Compound 1
Actelion Java MolfileCreator 2.0

  0  0  0  0  0  0              0 V3000
M  V30 BEGIN CTAB
M  V30 COUNTS 68 67 0 0 0
M  V30 BEGIN ATOM
M  V30 1 N -7.2426 -0.466 -1.2431 0 CHG=1
M  V30 2 C -6.3512 0.7187 -1.4784 0
M  V30 3 C -6.5819 -1.7325 -1.6434 0
M  V30 4 C -7.6887 -0.5607 0.1676 0
M  V30 5 C -8.4471 -0.3021 -2.0968 0
M  V30 6 C -5.2454 1.0071 -0.4277 0
M  V30 7 C -4.0774 0.0044 -0.4257 0
M  V30 8 C -2.7681 0.617 0.1002 0
M  V30 9 C -2.8458 0.976 1.5941 0
M  V30 10 C -1.5139 1.5396 2.1335 0
M  V30 11 C -0.7093 0.5315 2.9757 0
M  V30 12 C -0.157 -0.6754 2.1945 0
M  V30 13 C 0.8433 -0.3248 1.0773 0
M  V30 14 C 2.1232 0.3402 1.6055 0
M  V30 15 C 3.1596 0.4981 0.4866 0
M  V30 16 C 4.4349 1.1781 1.0074 0
M  V30 17 C 5.4241 1.543 -0.1149 0
M  V30 18 C 5.9499 0.3529 -0.9391 0
M  V30 19 C 6.8003 -0.622 -0.107 0
M  V30 20 C 7.3021 -1.8263 -0.9243 0
M  V30 21 C 8.2603 -1.4772 -2.078 0
M  V30 22 C 9.5329 -0.7719 -1.6091 0
M  V30 23 H -6.9696 1.6458 -1.5049 0
M  V30 24 H -5.8787 0.6577 -2.4848 0
M  V30 25 H -7.3034 -2.5807 -1.6355 0
M  V30 26 H -6.1567 -1.6595 -2.6693 0
M  V30 27 H -5.7733 -2.0198 -0.9478 0
M  V30 28 H -6.8506 -0.8442 0.8409 0
M  V30 29 H -8.4721 -1.3432 0.2901 0
M  V30 30 H -8.1131 0.4084 0.5144 0
M  V30 31 H -9.1407 -1.1678 -1.997 0
M  V30 32 H -9.0203 0.6115 -1.8161 0
M  V30 33 H -8.1649 -0.2149 -3.1714 0
M  V30 34 H -4.8381 2.0117 -0.6786 0
M  V30 35 H -5.6735 1.1061 0.5911 0
M  V30 36 H -3.894 -0.3557 -1.4614 0
M  V30 37 H -4.3305 -0.8673 0.2129 0
M  V30 38 H -1.9605 -0.1251 -0.0601 0
M  V30 39 H -2.5116 1.522 -0.4933 0
M  V30 40 H -3.6274 1.7536 1.729 0
M  V30 41 H -3.1635 0.0869 2.1815 0
M  V30 42 H -0.8892 1.9635 1.3191 0
M  V30 43 H -1.7532 2.3955 2.8017 0
M  V30 44 H -1.3588 0.1524 3.795 0
M  V30 45 H 0.1272 1.064 3.4738 0
M  V30 46 H -1.0008 -1.2509 1.7592 0
M  V30 47 H 0.3432 -1.3562 2.9168 0
M  V30 48 H 0.3686 0.3281 0.3162 0
M  V30 49 H 1.1161 -1.2731 0.5641 0
M  V30 50 H 1.8781 1.3453 2.0103 0
M  V30 51 H 2.5567 -0.2791 2.421 0
M  V30 52 H 2.7227 1.1073 -0.3353 0
M  V30 53 H 3.4115 -0.5092 0.0911 0
M  V30 54 H 4.1526 2.1231 1.5216 0
M  V30 55 H 4.9275 0.5346 1.766 0
M  V30 56 H 4.9261 2.2582 -0.8058 0
M  V30 57 H 6.2888 2.0789 0.3344 0
M  V30 58 H 5.109 -0.1867 -1.4229 0
M  V30 59 H 6.5762 0.7765 -1.7518 0
M  V30 60 H 6.1834 -1.0305 0.7195 0
M  V30 61 H 7.656 -0.0857 0.3552 0
M  V30 62 H 6.4265 -2.3688 -1.3433 0
M  V30 63 H 7.8174 -2.5301 -0.2339 0
M  V30 64 H 7.7474 -0.8557 -2.8423 0
M  V30 65 H 8.5544 -2.4251 -2.5789 0
M  V30 66 H 9.3067 0.265 -1.2829 0
M  V30 67 H 10.0038 -1.3327 -0.7723 0
M  V30 68 H 10.2572 -0.7152 -2.4501 0
M  V30 END ATOM
M  V30 BEGIN BOND
M  V30 1 1 1 2
M  V30 2 1 1 3
M  V30 3 1 1 4
M  V30 4 1 1 5
M  V30 5 1 2 6
M  V30 6 1 6 7
M  V30 7 1 7 8
M  V30 8 1 8 9
M  V30 9 1 9 10
M  V30 10 1 10 11
M  V30 11 1 11 12
M  V30 12 1 12 13
M  V30 13 1 13 14
M  V30 14 1 14 15
M  V30 15 1 15 16
M  V30 16 1 16 17
M  V30 17 1 17 18
M  V30 18 1 18 19
M  V30 19 1 19 20
M  V30 20 1 20 21
M  V30 21 1 21 22
M  V30 22 1 2 23
M  V30 23 1 2 24
M  V30 24 1 3 25
M  V30 25 1 3 26
M  V30 26 1 3 27
M  V30 27 1 4 28
M  V30 28 1 4 29
M  V30 29 1 4 30
M  V30 30 1 5 31
M  V30 31 1 5 32
M  V30 32 1 5 33
M  V30 33 1 6 34
M  V30 34 1 6 35
M  V30 35 1 7 36
M  V30 36 1 7 37
M  V30 37 1 8 38
M  V30 38 1 8 39
M  V30 39 1 9 40
M  V30 40 1 9 41
M  V30 41 1 10 42
M  V30 42 1 10 43
M  V30 43 1 11 44
M  V30 44 1 11 45
M  V30 45 1 12 46
M  V30 46 1 12 47
M  V30 47 1 13 48
M  V30 48 1 13 49
M  V30 49 1 14 50
M  V30 50 1 14 51
M  V30 51 1 15 52
M  V30 52 1 15 53
M  V30 53 1 16 54
M  V30 54 1 16 55
M  V30 55 1 17 56
M  V30 56 1 17 57
M  V30 57 1 18 58
M  V30 58 1 18 59
M  V30 59 1 19 60
M  V30 60 1 19 61
M  V30 61 1 20 62
M  V30 62 1 20 63
M  V30 63 1 21 64
M  V30 64 1 21 65
M  V30 65 1 22 66
M  V30 66 1 22 67
M  V30 67 1 22 68
M  V30 END BOND
M  V30 END CTAB
M  END
>  <Structure No>
1

>  <LogS>
-3.616127121

>  <MMFF94 Energy>
14.517

$$$$
Compound 2
Actelion Java MolfileCreator 2.0

  0  0  0  0  0  0              0 V3000
M  V30 BEGIN CTAB
M  V30 COUNTS 20 22 0 0 0
M  V30 BEGIN ATOM
M  V30 1 O 3.6502 -0.405 -0.162 0
M  V30 2 C 2.4586 -0.0024 -0.1154 0
M  V30 3 N 2.0697 1.3789 -0.1629 0
M  V30 4 C 1.2689 -0.8456 -0.0065 0
M  V30 5 C 0.6445 1.3191 -0.0802 0
M  V30 6 C 0.2231 0.0246 0.0084 0
M  V30 7 C 1.0472 -2.2205 0.0748 0
M  V30 8 C -0.2844 2.3605 -0.0803 0
M  V30 9 C -1.1022 -0.3576 0.1018 0
M  V30 10 C -0.2939 -2.6659 0.1723 0
M  V30 11 C -1.6569 2.0228 0.0134 0
M  V30 12 C -2.0695 0.6662 0.1045 0
M  V30 13 C -1.3707 -1.7382 0.1861 0
M  V30 14 H 2.6799 2.2223 -0.2393 0
M  V30 15 H 1.8711 -2.9217 0.0639 0
M  V30 16 H 0.0336 3.3923 -0.1498 0
M  V30 17 H -0.5011 -3.7259 0.237 0
M  V30 18 H -2.4009 2.8087 0.0158 0
M  V30 19 H -3.1229 0.4265 0.1756 0
M  V30 20 H -2.3898 -2.0958 0.2612 0
M  V30 END ATOM
M  V30 BEGIN BOND
M  V30 1 2 1 2
M  V30 2 1 2 3
M  V30 3 1 2 4
M  V30 4 1 3 5
M  V30 5 1 4 6
M  V30 6 2 4 7
M  V30 7 1 5 8
M  V30 8 1 6 9
M  V30 9 1 7 10
M  V30 10 2 8 11
M  V30 11 2 9 12
M  V30 12 1 9 13
M  V30 13 2 5 6
M  V30 14 2 10 13
M  V30 15 1 11 12
M  V30 16 1 3 14
M  V30 17 1 7 15
M  V30 18 1 8 16
M  V30 19 1 10 17
M  V30 20 1 11 18
M  V30 21 1 12 19
M  V30 22 1 13 20
M  V30 END BOND
M  V30 END CTAB
M  END
>  <Structure No>
2

>  <LogS>
-3.254767098

>  <MMFF94 Energy>
35.016

$$$$
Compound 3
Actelion Java MolfileCreator 2.0

  0  0  0  0  0  0              0 V3000
M  V30 BEGIN CTAB
M  V30 COUNTS 14 14 0 0 0
M  V30 BEGIN ATOM
M  V30 1 Cl -3.6006 -0.1634 0.0 0
M  V30 2 C -1.8482 -0.0895 0.0144 0
M  V30 3 C -1.2001 1.1474 0.0877 0
M  V30 4 C -1.0974 -1.2676 -0.0471 0
M  V30 5 C 0.1969 1.2082 0.0993 0
M  V30 6 C 0.2997 -1.2105 -0.0356 0
M  V30 7 C 0.9582 0.0274 0.0377 0
M  V30 8 C 2.4318 0.0692 0.0487 0
M  V30 9 O 3.0512 1.1642 0.1138 0
M  V30 10 H -1.7773 2.062 0.1355 0
M  V30 11 H -1.5947 -2.2275 -0.1038 0
M  V30 12 H 0.6796 2.1759 0.1565 0
M  V30 13 H 0.8665 -2.1323 -0.0839 0
M  V30 14 H 2.9994 -0.8512 5.0E-4 0
M  V30 END ATOM
M  V30 BEGIN BOND
M  V30 1 1 1 2
M  V30 2 2 2 3
M  V30 3 1 2 4
M  V30 4 1 3 5
M  V30 5 2 4 6
M  V30 6 2 5 7
M  V30 7 1 7 8
M  V30 8 2 8 9
M  V30 9 1 6 7
M  V30 10 1 3 10
M  V30 11 1 4 11
M  V30 12 1 5 12
M  V30 13 1 6 13
M  V30 14 1 8 14
M  V30 END BOND
M  V30 END CTAB
M  END
>  <Structure No>
3

>  <LogS>
-2.177077944

>  <MMFF94 Energy>
30.102

$$$$
Compound 4
Actelion Java MolfileCreator 2.0

  0  0  0  0  0  0              0 V3000
M  V30 BEGIN CTAB
M  V30 COUNTS 47 49 0 0 0
M  V30 BEGIN ATOM
M  V30 1 O 0.5613 -3.7735 -2.4877 0
M  V30 2 C -0.3172 -2.8713 -2.4891 0
M  V30 3 O -1.3946 -2.9974 -3.3595 0 CHG=-1
M  V30 4 C -0.2152 -1.6916 -1.5858 0
M  V30 5 C 0.8583 -1.5347 -0.6751 0
M  V30 6 C -1.2218 -0.714 -1.641 0
M  V30 7 O 1.8456 -2.5238 -0.6326 0
M  V30 8 C 0.9091 -0.3908 0.17 0
M  V30 9 C -1.1792 0.4224 -0.8201 0
M  V30 10 C -0.1241 0.5592 0.0894 0
M  V30 11 C 2.02 -0.1427 1.1893 0 CFG=2
M  V30 12 C -2.286 1.4668 -0.8255 0 CFG=2
M  V30 13 C 3.4013 -0.1011 0.5422 0
M  V30 14 C 1.8663 -1.0883 2.3932 0
M  V30 15 C -3.3784 1.0937 0.1585 0
M  V30 16 C -2.8581 1.7585 -2.2223 0
M  V30 17 C 4.4942 -0.8595 1.0178 0
M  V30 18 C 3.6146 0.7767 -0.5391 0
M  V30 19 C -3.6009 1.8901 1.2975 0
M  V30 20 C -4.169 -0.057 -0.0312 0
M  V30 21 C 5.7467 -0.7623 0.4038 0
M  V30 22 C 4.8691 0.8694 -1.1479 0
M  V30 23 C -4.5949 1.5472 2.2192 0
M  V30 24 C -5.1614 -0.3948 0.8937 0
M  V30 25 C 5.9334 0.0986 -0.6787 0
M  V30 26 C -5.3747 0.4065 2.0173 0
M  V30 27 H -2.0468 -0.8437 -2.3262 0
M  V30 28 H 2.6393 -2.5161 -0.0126 0
M  V30 29 H -0.1118 1.4216 0.746 0
M  V30 30 H 1.89 0.8761 1.619 0
M  V30 31 H -1.8303 2.4314 -0.5048 0
M  V30 32 H 0.8409 -0.9981 2.8123 0
M  V30 33 H 2.5796 -0.806 3.1968 0
M  V30 34 H 2.0319 -2.1483 2.1163 0
M  V30 35 H -3.4598 0.9126 -2.613 0
M  V30 36 H -2.0331 1.9743 -2.9345 0
M  V30 37 H -3.518 2.6513 -2.1761 0
M  V30 38 H 4.3911 -1.5373 1.8532 0
M  V30 39 H 2.8052 1.3922 -0.9122 0
M  V30 40 H -3.0046 2.7763 1.4759 0
M  V30 41 H -4.0199 -0.695 -0.8913 0
M  V30 42 H 6.575 -1.355 0.7699 0
M  V30 43 H 5.0165 1.5429 -1.9822 0
M  V30 44 H -4.7593 2.1662 3.0919 0
M  V30 45 H -5.7648 -1.2801 0.7396 0
M  V30 46 H 6.9046 0.172 -1.1509 0
M  V30 47 H -6.1432 0.1427 2.7325 0
M  V30 END ATOM
M  V30 BEGIN BOND
M  V30 1 2 1 2
M  V30 2 1 2 3
M  V30 3 1 2 4
M  V30 4 2 4 5
M  V30 5 1 4 6
M  V30 6 1 5 7
M  V30 7 1 5 8
M  V30 8 2 6 9
M  V30 9 2 8 10
M  V30 10 1 8 11
M  V30 11 1 9 12
M  V30 12 1 11 13
M  V30 13 1 11 14
M  V30 14 1 12 15
M  V30 15 1 12 16
M  V30 16 2 13 17
M  V30 17 1 13 18
M  V30 18 2 15 19
M  V30 19 1 15 20
M  V30 20 1 17 21
M  V30 21 2 18 22
M  V30 22 1 19 23
M  V30 23 2 20 24
M  V30 24 2 21 25
M  V30 25 2 23 26
M  V30 26 1 9 10
M  V30 27 1 22 25
M  V30 28 1 24 26
M  V30 29 1 6 27
M  V30 30 1 7 28
M  V30 31 1 10 29
M  V30 32 1 11 30
M  V30 33 1 12 31
M  V30 34 1 14 32
M  V30 35 1 14 33
M  V30 36 1 14 34
M  V30 37 1 16 35
M  V30 38 1 16 36
M  V30 39 1 16 37
M  V30 40 1 17 38
M  V30 41 1 18 39
M  V30 42 1 19 40
M  V30 43 1 20 41
M  V30 44 1 21 42
M  V30 45 1 22 43
M  V30 46 1 23 44
M  V30 47 1 24 45
M  V30 48 1 25 46
M  V30 49 1 26 47
M  V30 END BOND
M  V30 BEGIN COLLECTION
M  V30 MDLV30/STEABS ATOMS=(2 11 12)
M  V30 END COLLECTION
M  V30 END CTAB
M  END
>  <Structure No>
4

>  <LogS>
-3.924409095

>  <MMFF94 Energy>
85.52

$$$$
Compound 5
Actelion Java MolfileCreator 2.0

  0  0  0  0  0  0              0 V3000
M  V30 BEGIN CTAB
M  V30 COUNTS 61 66 0 0 0
M  V30 BEGIN ATOM
M  V30 1 O 6.8626 -2.2567 2.0953 0
M  V30 2 C 5.9343 -1.2648 1.7267 0 CFG=2
M  V30 3 C 5.502 -2.5846 2.244 0
M  V30 4 C 5.9366 -1.0612 0.2098 0
M  V30 5 N 4.9163 -0.0796 -0.1785 0
M  V30 6 C 3.718 -0.5105 -0.8559 0
M  V30 7 C 5.1207 1.3424 0.1355 0
M  V30 8 C 3.2881 0.134 -2.0273 0
M  V30 9 C 2.9571 -1.5731 -0.3438 0
M  V30 10 C 4.0675 1.8179 1.1395 0 CFG=1
M  V30 11 C 2.1119 -0.2657 -2.665 0
M  V30 12 C 1.7821 -1.9761 -0.9834 0
M  V30 13 O 3.9875 3.2227 1.1655 0
M  V30 14 C 2.8924 2.541 0.5997 0
M  V30 15 C 1.3514 -1.3253 -2.1493 0
M  V30 16 C 0.0452 -1.7088 -2.793 0
M  V30 17 C -1.1081 -1.1421 -2.0073 0
M  V30 18 C -1.3237 0.2439 -1.9717 0
M  V30 19 C -1.9563 -1.9819 -1.2841 0
M  V30 20 C -2.3615 0.7798 -1.2072 0
M  V30 21 C -2.9929 -1.4504 -0.5097 0
M  V30 22 C -3.208 -0.0577 -0.4479 0
M  V30 23 N -4.2616 0.5042 0.3802 0
M  V30 24 C -4.1795 1.8815 0.8931 0
M  V30 25 C -5.4336 -0.2965 0.7685 0
M  V30 26 C -4.9762 2.8315 -0.0036 0 CFG=2
M  V30 27 C -5.1672 -1.0156 2.0951 0 CFG=1
M  V30 28 O -4.1644 3.7158 -0.7415 0
M  V30 29 C -4.8685 4.2653 0.3509 0
M  V30 30 O -5.5843 -0.2536 3.2038 0
M  V30 31 C -6.3599 -1.3907 2.8909 0
M  V30 32 H 5.978 -0.3998 2.4238 0
M  V30 33 H 5.1968 -3.3624 1.5123 0
M  V30 34 H 5.2142 -2.6165 3.3139 0
M  V30 35 H 5.7783 -2.0209 -0.3306 0
M  V30 36 H 6.9366 -0.6884 -0.0969 0
M  V30 37 H 6.1223 1.4995 0.5943 0
M  V30 38 H 5.1051 1.947 -0.7956 0
M  V30 39 H 3.8633 0.9437 -2.4534 0
M  V30 40 H 3.2567 -2.0707 0.5669 0
M  V30 41 H 4.0013 1.3798 2.1599 0
M  V30 42 H 1.7902 0.2572 -3.5565 0
M  V30 43 H 1.1965 -2.7821 -0.5594 0
M  V30 44 H 1.9986 2.5955 1.2629 0
M  V30 45 H 2.8401 2.7023 -0.5001 0
M  V30 46 H -0.0033 -1.331 -3.8367 0
M  V30 47 H -0.0233 -2.8167 -2.8565 0
M  V30 48 H -0.6813 0.9116 -2.5322 0
M  V30 49 H -1.8086 -3.057 -1.2989 0
M  V30 50 H -2.4976 1.8521 -1.221 0
M  V30 51 H -3.6114 -2.137 0.0478 0
M  V30 52 H -3.12 2.1999 1.0003 0
M  V30 53 H -4.616 1.9269 1.9124 0
M  V30 54 H -5.6723 -1.0422 -0.0189 0
M  V30 55 H -6.3294 0.36 0.848 0
M  V30 56 H -5.8971 2.5233 -0.5344 0
M  V30 57 H -4.2204 -1.5634 2.2906 0
M  V30 58 H -5.6946 4.9244 0.0051 0
M  V30 59 H -4.173 4.5492 1.1688 0
M  V30 60 H -7.3611 -1.0995 2.5045 0
M  V30 61 H -6.2137 -2.1948 3.6418 0
M  V30 END ATOM
M  V30 BEGIN BOND
M  V30 1 1 1 2
M  V30 2 1 1 3
M  V30 3 1 2 4
M  V30 4 1 4 5
M  V30 5 1 5 6
M  V30 6 1 5 7
M  V30 7 2 6 8
M  V30 8 1 6 9
M  V30 9 1 7 10
M  V30 10 1 8 11
M  V30 11 2 9 12
M  V30 12 1 10 13
M  V30 13 1 10 14
M  V30 14 2 11 15
M  V30 15 1 15 16
M  V30 16 1 16 17
M  V30 17 2 17 18
M  V30 18 1 17 19
M  V30 19 1 18 20
M  V30 20 2 19 21
M  V30 21 2 20 22
M  V30 22 1 22 23
M  V30 23 1 23 24
M  V30 24 1 23 25
M  V30 25 1 24 26
M  V30 26 1 25 27
M  V30 27 1 26 28
M  V30 28 1 26 29
M  V30 29 1 27 30
M  V30 30 1 27 31
M  V30 31 1 2 3
M  V30 32 1 12 15
M  V30 33 1 13 14
M  V30 34 1 21 22
M  V30 35 1 28 29
M  V30 36 1 30 31
M  V30 37 1 2 32
M  V30 38 1 3 33
M  V30 39 1 3 34
M  V30 40 1 4 35
M  V30 41 1 4 36
M  V30 42 1 7 37
M  V30 43 1 7 38
M  V30 44 1 8 39
M  V30 45 1 9 40
M  V30 46 1 10 41
M  V30 47 1 11 42
M  V30 48 1 12 43
M  V30 49 1 14 44
M  V30 50 1 14 45
M  V30 51 1 16 46
M  V30 52 1 16 47
M  V30 53 1 18 48
M  V30 54 1 19 49
M  V30 55 1 20 50
M  V30 56 1 21 51
M  V30 57 1 24 52
M  V30 58 1 24 53
M  V30 59 1 25 54
M  V30 60 1 25 55
M  V30 61 1 26 56
M  V30 62 1 27 57
M  V30 63 1 29 58
M  V30 64 1 29 59
M  V30 65 1 31 60
M  V30 66 1 31 61
M  V30 END BOND
M  V30 BEGIN COLLECTION
M  V30 MDLV30/STEABS ATOMS=(4 2 10 26 27)
M  V30 END COLLECTION
M  V30 END CTAB
M  END
>  <Structure No>
5

>  <LogS>
-4.662064583

>  <MMFF94 Energy>
95.797

$$$$
Compound 6
Actelion Java MolfileCreator 2.0

  0  0  0  0  0  0              0 V3000
M  V30 BEGIN CTAB
M  V30 COUNTS 19 19 0 0 0
M  V30 BEGIN ATOM
M  V30 1 C -0.9335 0.4666 -0.2333 0
M  V30 2 C -0.0284 -0.5936 -0.019 0
M  V30 3 C -0.4296 1.7697 -0.3787 0
M  V30 4 C -2.4035 0.2677 -0.2758 0
M  V30 5 C 1.3554 -0.3559 0.012 0
M  V30 6 C 0.9454 2.0096 -0.3299 0
M  V30 7 C -2.995 -0.9091 -0.4857 0
M  V30 8 C 1.8356 0.9532 -0.132 0
M  V30 9 C 2.3088 -1.4834 0.2783 0
M  V30 10 H -0.3851 -1.6009 0.1459 0
M  V30 11 H -1.1025 2.6046 -0.5329 0
M  V30 12 H -3.042 1.137 -0.1683 0
M  V30 13 H 1.3215 3.0185 -0.4417 0
M  V30 14 H -4.0755 -0.9665 -0.5163 0
M  V30 15 H -2.4365 -1.8174 -0.6582 0
M  V30 16 H 2.8985 1.1567 -0.0865 0
M  V30 17 H 1.9205 -2.4327 -0.1485 0
M  V30 18 H 3.298 -1.2795 -0.1841 0
M  V30 19 H 2.4395 -1.6053 1.3738 0
M  V30 END ATOM
M  V30 BEGIN BOND
M  V30 1 2 1 2
M  V30 2 1 1 3
M  V30 3 1 1 4
M  V30 4 1 2 5
M  V30 5 2 3 6
M  V30 6 2 4 7
M  V30 7 2 5 8
M  V30 8 1 5 9
M  V30 9 1 6 8
M  V30 10 1 2 10
M  V30 11 1 3 11
M  V30 12 1 4 12
M  V30 13 1 6 13
M  V30 14 1 7 14
M  V30 15 1 7 15
M  V30 16 1 8 16
M  V30 17 1 9 17
M  V30 18 1 9 18
M  V30 19 1 9 19
M  V30 END BOND
M  V30 END CTAB
M  END
>  <Structure No>
6

>  <LogS>
-3.123150304

>  <MMFF94 Energy>
24.34

$$$$
Compound 7
Actelion Java MolfileCreator 2.0

  0  0  0  0  0  0              0 V3000
M  V30 BEGIN CTAB
M  V30 COUNTS 29 29 0 0 0
M  V30 BEGIN ATOM
M  V30 1 O 4.2153 1.0326 1.8276 0
M  V30 2 C 3.8368 0.2375 0.9276 0
M  V30 3 O 3.9255 -1.1325 1.1381 0 CHG=-1
M  V30 4 C 3.2604 0.7651 -0.3501 0
M  V30 5 C 1.8088 1.2366 -0.172 0
M  V30 6 C 0.8309 0.0868 0.1535 0 CFG=1
M  V30 7 C -0.5805 0.5974 0.4135 0
M  V30 8 C 0.6806 -0.9294 -0.982 0
M  V30 9 C -1.4802 -0.6056 0.145 0 CFG=2
M  V30 10 C -0.7762 -1.3941 -0.9644 0
M  V30 11 C -2.9202 -0.2144 -0.2423 0
M  V30 12 C -3.6661 0.4528 0.9121 0
M  V30 13 H 3.3201 -0.0143 -1.139 0
M  V30 14 H 3.8769 1.6249 -0.6902 0
M  V30 15 H 1.4859 1.7464 -1.1064 0
M  V30 16 H 1.771 1.9925 0.6433 0
M  V30 17 H 1.173 -0.4458 1.0696 0
M  V30 18 H -0.6886 0.9582 1.4598 0
M  V30 19 H -0.8263 1.4262 -0.2885 0
M  V30 20 H 1.3716 -1.787 -0.8299 0
M  V30 21 H 0.9048 -0.4635 -1.9674 0
M  V30 22 H -1.507 -1.2401 1.0607 0
M  V30 23 H -1.2375 -1.1963 -1.9579 0
M  V30 24 H -0.8383 -2.4856 -0.7609 0
M  V30 25 H -3.4777 -1.1314 -0.5331 0
M  V30 26 H -2.9123 0.4712 -1.1179 0
M  V30 27 H -3.1845 1.4156 1.1833 0
M  V30 28 H -3.6814 -0.2143 1.8 0
M  V30 29 H -4.7133 0.6592 0.6062 0
M  V30 END ATOM
M  V30 BEGIN BOND
M  V30 1 2 1 2
M  V30 2 1 2 3
M  V30 3 1 2 4
M  V30 4 1 4 5
M  V30 5 1 5 6
M  V30 6 1 6 7
M  V30 7 1 6 8
M  V30 8 1 7 9
M  V30 9 1 8 10
M  V30 10 1 9 11
M  V30 11 1 11 12
M  V30 12 1 9 10
M  V30 13 1 4 13
M  V30 14 1 4 14
M  V30 15 1 5 15
M  V30 16 1 5 16
M  V30 17 1 6 17
M  V30 18 1 7 18
M  V30 19 1 7 19
M  V30 20 1 8 20
M  V30 21 1 8 21
M  V30 22 1 9 22
M  V30 23 1 10 23
M  V30 24 1 10 24
M  V30 25 1 11 25
M  V30 26 1 11 26
M  V30 27 1 12 27
M  V30 28 1 12 28
M  V30 29 1 12 29
M  V30 END BOND
M  V30 BEGIN COLLECTION
M  V30 MDLV30/STEABS ATOMS=(2 6 9)
M  V30 END COLLECTION
M  V30 END CTAB
M  END
>  <Structure No>
7

>  <LogS>
-3.286116314

>  <MMFF94 Energy>
16.411

$$$$
Compound 8
Actelion Java MolfileCreator 2.0

  0  0  0  0  0  0              0 V3000
M  V30 BEGIN CTAB
M  V30 COUNTS 55 58 0 0 0
M  V30 BEGIN ATOM
M  V30 1 O -5.4391 3.0009 -0.5672 0
M  V30 2 C -4.6135 2.1435 -0.1569 0
M  V30 3 C -4.0631 1.1496 -1.0816 0
M  V30 4 C -4.1786 2.1513 1.2395 0
M  V30 5 C -3.2034 0.2116 -0.6524 0
M  V30 6 C -3.34 1.2178 1.6902 0
M  V30 7 C -2.8525 0.0527 0.8324 0 CFG=2
M  V30 8 C -2.6268 -0.7772 -1.6373 0
M  V30 9 C -1.2922 -0.0854 0.9653 0 CFG=2
M  V30 10 C -3.5761 -1.1975 1.3859 0
M  V30 11 C -1.1129 -0.9463 -1.4501 0
M  V30 12 C -0.5576 1.2803 0.7226 0 CFG=1
M  V30 13 C -0.7351 -1.2021 0.0334 0 CFG=1
M  V30 14 O -0.5921 2.0924 1.8712 0
M  V30 15 C 0.8904 1.1765 0.1754 0
M  V30 16 C 0.7765 -1.4274 0.342 0 CFG=2
M  V30 17 C 1.6571 -0.1421 0.5162 0 CFG=1
M  V30 18 C 1.5355 -2.3755 -0.5993 0
M  V30 19 C 2.8817 -0.3855 -0.4526 0 CFG=1
M  V30 20 C 2.128 -0.0672 2.0015 0
M  V30 21 C 2.9845 -1.9236 -0.503 0 CFG=2
M  V30 22 O 2.5677 0.0704 -1.7547 0
M  V30 23 C 4.181 0.2806 0.0167 0
M  V30 24 O 3.7319 -2.3629 -1.6081 0
M  V30 25 O 5.0035 -0.356 0.6596 0
M  V30 26 C 4.4706 1.7272 -0.2896 0
M  V30 27 O 4.7378 2.4304 0.8933 0
M  V30 28 H -4.3402 1.2066 -2.1276 0
M  V30 29 H -4.5321 2.9256 1.9092 0
M  V30 30 H -3.0515 1.2477 2.7345 0
M  V30 31 H -3.1303 -1.7578 -1.5034 0
M  V30 32 H -2.8137 -0.4584 -2.6866 0
M  V30 33 H -1.0757 -0.4028 2.0106 0
M  V30 34 H -3.3699 -2.1107 0.7951 0
M  V30 35 H -4.6774 -1.044 1.3667 0
M  V30 36 H -3.2729 -1.3924 2.4374 0
M  V30 37 H -0.8255 -1.8144 -2.0755 0
M  V30 38 H -0.5957 -0.0571 -1.8558 0
M  V30 39 H -1.1275 1.8352 -0.0549 0
M  V30 40 H -1.2232 -2.1619 0.3063 0
M  V30 41 H -0.0945 1.6289 2.5903 0
M  V30 42 H 0.8277 1.3268 -0.9185 0
M  V30 43 H 1.4787 2.0524 0.5255 0
M  V30 44 H 0.7692 -1.9757 1.3145 0
M  V30 45 H 1.2165 -2.2744 -1.6538 0
M  V30 46 H 1.4244 -3.4381 -0.2904 0
M  V30 47 H 2.6636 0.8803 2.214 0
M  V30 48 H 1.2702 -0.136 2.6998 0
M  V30 49 H 2.8066 -0.9101 2.2492 0
M  V30 50 H 3.4283 -2.3227 0.4394 0
M  V30 51 H 3.3725 -0.0262 -2.3292 0
M  V30 52 H 3.8651 -3.3393 -1.4885 0
M  V30 53 H 5.3681 1.7765 -0.9405 0
M  V30 54 H 3.6311 2.2027 -0.8454 0
M  V30 55 H 3.863 2.7314 1.2523 0
M  V30 END ATOM
M  V30 BEGIN BOND
M  V30 1 2 1 2
M  V30 2 1 2 3
M  V30 3 1 2 4
M  V30 4 2 3 5
M  V30 5 2 4 6
M  V30 6 1 5 7
M  V30 7 1 5 8
M  V30 8 1 7 9
M  V30 9 1 7 10
M  V30 10 1 8 11
M  V30 11 1 9 12
M  V30 12 1 9 13
M  V30 13 1 12 14
M  V30 14 1 12 15
M  V30 15 1 13 16
M  V30 16 1 15 17
M  V30 17 1 16 18
M  V30 18 1 17 19
M  V30 19 1 17 20
M  V30 20 1 18 21
M  V30 21 1 19 22
M  V30 22 1 19 23
M  V30 23 1 21 24
M  V30 24 2 23 25
M  V30 25 1 23 26
M  V30 26 1 26 27
M  V30 27 1 6 7
M  V30 28 1 11 13
M  V30 29 1 16 17
M  V30 30 1 19 21
M  V30 31 1 3 28
M  V30 32 1 4 29
M  V30 33 1 6 30
M  V30 34 1 8 31
M  V30 35 1 8 32
M  V30 36 1 9 33
M  V30 37 1 10 34
M  V30 38 1 10 35
M  V30 39 1 10 36
M  V30 40 1 11 37
M  V30 41 1 11 38
M  V30 42 1 12 39
M  V30 43 1 13 40
M  V30 44 1 14 41
M  V30 45 1 15 42
M  V30 46 1 15 43
M  V30 47 1 16 44
M  V30 48 1 18 45
M  V30 49 1 18 46
M  V30 50 1 20 47
M  V30 51 1 20 48
M  V30 52 1 20 49
M  V30 53 1 21 50
M  V30 54 1 22 51
M  V30 55 1 24 52
M  V30 56 1 26 53
M  V30 57 1 26 54
M  V30 58 1 27 55
M  V30 END BOND
M  V30 BEGIN COLLECTION
M  V30 MDLV30/STEABS ATOMS=(8 7 9 12 13 16 17 19 21)
M  V30 END COLLECTION
M  V30 END CTAB
M  END
>  <Structure No>
8

>  <LogS>
-2.664548539

>  <MMFF94 Energy>
155.75

$$$$
Compound 9
Actelion Java MolfileCreator 2.0

  0  0  0  0  0  0              0 V3000
M  V30 BEGIN CTAB
M  V30 COUNTS 24 25 0 0 0
M  V30 BEGIN ATOM
M  V30 1 F -4.7077 -0.5672 2.0271 0
M  V30 2 C -3.5867 -0.5827 1.2649 0
M  V30 3 C -2.3291 -0.624 1.8721 0
M  V30 4 C -3.6885 -0.5645 -0.1282 0
M  V30 5 C -1.1716 -0.6413 1.0882 0
M  V30 6 C -2.5336 -0.5819 -0.9165 0
M  V30 7 C -1.2621 -0.6063 -0.316 0
M  V30 8 C -0.0439 -0.6434 -1.1612 0
M  V30 9 O -0.0962 -1.2286 -2.2774 0
M  V30 10 C 1.2333 -0.0172 -0.7416 0
M  V30 11 C 1.2447 1.1592 0.0312 0
M  V30 12 C 2.4575 -0.5729 -1.1545 0
M  V30 13 C 2.4564 1.7487 0.4044 0
M  V30 14 C 3.6668 0.0199 -0.7787 0
M  V30 15 C 3.6666 1.1784 0.0024 0
M  V30 16 F 4.8403 1.7524 0.3646 0
M  V30 17 H -2.2499 -0.6488 2.9513 0
M  V30 18 H -4.6627 -0.5375 -0.5994 0
M  V30 19 H -0.2083 -0.6973 1.5791 0
M  V30 20 H -2.6331 -0.5648 -1.9948 0
M  V30 21 H 0.3185 1.6314 0.3336 0
M  V30 22 H 2.4781 -1.4719 -1.7582 0
M  V30 23 H 2.4554 2.6521 1.0006 0
M  V30 24 H 4.604 -0.4196 -1.0945 0
M  V30 END ATOM
M  V30 BEGIN BOND
M  V30 1 1 1 2
M  V30 2 2 2 3
M  V30 3 1 2 4
M  V30 4 1 3 5
M  V30 5 2 4 6
M  V30 6 2 5 7
M  V30 7 1 7 8
M  V30 8 2 8 9
M  V30 9 1 8 10
M  V30 10 2 10 11
M  V30 11 1 10 12
M  V30 12 1 11 13
M  V30 13 2 12 14
M  V30 14 2 13 15
M  V30 15 1 15 16
M  V30 16 1 6 7
M  V30 17 1 14 15
M  V30 18 1 3 17
M  V30 19 1 4 18
M  V30 20 1 5 19
M  V30 21 1 6 20
M  V30 22 1 11 21
M  V30 23 1 12 22
M  V30 24 1 13 23
M  V30 25 1 14 24
M  V30 END BOND
M  V30 END CTAB
M  END
>  <Structure No>
9

>  <LogS>
-4.396652185

>  <MMFF94 Energy>
65.201

$$$$
Compound 10
Actelion Java MolfileCreator 2.0

  0  0  0  0  0  0              0 V3000
M  V30 BEGIN CTAB
M  V30 COUNTS 47 48 0 0 0
M  V30 BEGIN ATOM
M  V30 1 O -5.4975 -1.5115 1.1931 0
M  V30 2 C -5.4498 -0.3855 0.6245 0
M  V30 3 O -4.2148 0.2353 0.3976 0
M  V30 4 C -6.6989 0.2857 0.2028 0
M  V30 5 C -2.9613 -0.3637 0.7196 0
M  V30 6 C -7.9509 -0.3175 0.4276 0
M  V30 7 C -6.6512 1.5402 -0.4324 0
M  V30 8 C -2.599 -1.4368 -0.313 0
M  V30 9 C -9.1272 0.3228 0.0252 0
M  V30 10 C -7.8307 2.176 -0.8326 0
M  V30 11 C -1.2478 -2.0847 -0.0084 0
M  V30 12 C -9.0673 1.5682 -0.6041 0
M  V30 13 O -0.2206 -1.123 -0.1339 0
M  V30 14 C 1.0223 -1.7169 0.1734 0
M  V30 15 C 2.1237 -0.6686 0.0227 0
M  V30 16 C 3.4973 -1.2535 0.345 0
M  V30 17 O 4.4888 -0.2434 0.1915 0
M  V30 18 C 5.8493 -0.4776 0.4178 0
M  V30 19 O 6.242 -1.6231 0.7737 0
M  V30 20 C 6.8249 0.62 0.239 0
M  V30 21 C 6.3905 1.8982 -0.1573 0
M  V30 22 C 8.1982 0.405 0.4616 0
M  V30 23 C 7.3111 2.9372 -0.327 0
M  V30 24 C 9.1141 1.4477 0.2904 0
M  V30 25 C 8.6712 2.7124 -0.1033 0
M  V30 26 H -2.9966 -0.7978 1.743 0
M  V30 27 H -2.1862 0.4316 0.7109 0
M  V30 28 H -8.022 -1.2826 0.9136 0
M  V30 29 H -5.7046 2.0308 -0.6206 0
M  V30 30 H -2.5695 -0.9805 -1.3265 0
M  V30 31 H -3.3797 -2.2274 -0.3146 0
M  V30 32 H -10.086 -0.1471 0.2016 0
M  V30 33 H -7.7857 3.141 -1.3208 0
M  V30 34 H -1.2774 -2.5103 1.0212 0
M  V30 35 H -1.0938 -2.9128 -0.7371 0
M  V30 36 H -9.9789 2.0621 -0.9148 0
M  V30 37 H 1.0275 -2.0897 1.2237 0
M  V30 38 H 1.2357 -2.5608 -0.5225 0
M  V30 39 H 2.1251 -0.2848 -1.0209 0
M  V30 40 H 1.9179 0.1817 0.7091 0
M  V30 41 H 3.5093 -1.6272 1.3924 0
M  V30 42 H 3.7177 -2.0961 -0.3465 0
M  V30 43 H 5.3412 2.0965 -0.3365 0
M  V30 44 H 8.5646 -0.5668 0.7675 0
M  V30 45 H 6.9691 3.9178 -0.6321 0
M  V30 46 H 10.1685 1.2747 0.4634 0
M  V30 47 H 9.3819 3.518 -0.2352 0
M  V30 END ATOM
M  V30 BEGIN BOND
M  V30 1 2 1 2
M  V30 2 1 2 3
M  V30 3 1 2 4
M  V30 4 1 3 5
M  V30 5 2 4 6
M  V30 6 1 4 7
M  V30 7 1 5 8
M  V30 8 1 6 9
M  V30 9 2 7 10
M  V30 10 1 8 11
M  V30 11 2 9 12
M  V30 12 1 11 13
M  V30 13 1 13 14
M  V30 14 1 14 15
M  V30 15 1 15 16
M  V30 16 1 16 17
M  V30 17 1 17 18
M  V30 18 2 18 19
M  V30 19 1 18 20
M  V30 20 2 20 21
M  V30 21 1 20 22
M  V30 22 1 21 23
M  V30 23 2 22 24
M  V30 24 2 23 25
M  V30 25 1 10 12
M  V30 26 1 24 25
M  V30 27 1 5 26
M  V30 28 1 5 27
M  V30 29 1 6 28
M  V30 30 1 7 29
M  V30 31 1 8 30
M  V30 32 1 8 31
M  V30 33 1 9 32
M  V30 34 1 10 33
M  V30 35 1 11 34
M  V30 36 1 11 35
M  V30 37 1 12 36
M  V30 38 1 14 37
M  V30 39 1 14 38
M  V30 40 1 15 39
M  V30 41 1 15 40
M  V30 42 1 16 41
M  V30 43 1 16 42
M  V30 44 1 21 43
M  V30 45 1 22 44
M  V30 46 1 23 45
M  V30 47 1 24 46
M  V30 48 1 25 47
M  V30 END BOND
M  V30 END CTAB
M  END
>  <Structure No>
10

>  <LogS>
-4.595502564

>  <MMFF94 Energy>
60.699

$$$$
Compound 11
Actelion Java MolfileCreator 2.0

  0  0  0  0  0  0              0 V3000
M  V30 BEGIN CTAB
M  V30 COUNTS 22 22 0 0 0
M  V30 BEGIN ATOM
M  V30 1 O 4.7158 0.5492 -0.0784 0
M  V30 2 C 3.9454 -0.4429 0.0167 0
M  V30 3 C 2.4815 -0.28 -0.0528 0
M  V30 4 C 1.8989 0.984 -0.2269 0
M  V30 5 C 1.6534 -1.404 0.0561 0
M  V30 6 C 0.5093 1.1206 -0.2911 0
M  V30 7 C 0.2635 -1.2704 -0.0071 0
M  V30 8 C -0.3338 -0.0047 -0.1821 0
M  V30 9 N -1.7775 0.1357 -0.2484 0
M  V30 10 C -2.3848 1.3255 -0.8578 0
M  V30 11 C -2.6551 -0.9095 0.2928 0
M  V30 12 H 4.3745 -1.4275 0.1518 0
M  V30 13 H 2.5165 1.8695 -0.3117 0
M  V30 14 H 2.0826 -2.3897 0.1889 0
M  V30 15 H 0.1019 2.1142 -0.4156 0
M  V30 16 H -0.3367 -2.1659 0.0712 0
M  V30 17 H -3.4746 1.1902 -1.023 0
M  V30 18 H -2.2414 2.204 -0.1947 0
M  V30 19 H -1.9199 1.5222 -1.8471 0
M  V30 20 H -2.3285 -1.183 1.3186 0
M  V30 21 H -2.6237 -1.805 -0.362 0
M  V30 22 H -3.7089 -0.5654 0.3597 0
M  V30 END ATOM
M  V30 BEGIN BOND
M  V30 1 2 1 2
M  V30 2 1 2 3
M  V30 3 2 3 4
M  V30 4 1 3 5
M  V30 5 1 4 6
M  V30 6 2 5 7
M  V30 7 2 6 8
M  V30 8 1 8 9
M  V30 9 1 9 10
M  V30 10 1 9 11
M  V30 11 1 7 8
M  V30 12 1 2 12
M  V30 13 1 4 13
M  V30 14 1 5 14
M  V30 15 1 6 15
M  V30 16 1 7 16
M  V30 17 1 10 17
M  V30 18 1 10 18
M  V30 19 1 10 19
M  V30 20 1 11 20
M  V30 21 1 11 21
M  V30 22 1 11 22
M  V30 END BOND
M  V30 END CTAB
M  END
>  <Structure No>
11

>  <LogS>
-2.28276885

>  <MMFF94 Energy>
32.904

$$$$
Compound 12
Actelion Java MolfileCreator 2.0

  0  0  0  0  0  0              0 V3000
M  V30 BEGIN CTAB
M  V30 COUNTS 30 30 0 0 0
M  V30 BEGIN ATOM
M  V30 1 O -2.3628 0.8658 1.4172 0
M  V30 2 C -2.1316 1.0456 0.1917 0
M  V30 3 O -1.4364 0.0935 -0.5687 0
M  V30 4 C -2.5446 2.3253 -0.4508 0
M  V30 5 C -0.9509 -1.1764 -0.1052 0
M  V30 6 C 0.1334 -0.9981 0.9954 0
M  V30 7 C -2.116 -2.0278 0.4417 0
M  V30 8 C -0.3603 -1.9096 -1.3235 0
M  V30 9 C 1.2941 -0.1318 0.5623 0
M  V30 10 C 1.2465 1.2628 0.7315 0
M  V30 11 C 2.4356 -0.7125 -0.0179 0
M  V30 12 C 2.3163 2.0613 0.316 0
M  V30 13 C 3.503 0.0897 -0.432 0
M  V30 14 C 3.4428 1.4757 -0.2669 0
M  V30 15 H -1.757 3.09 -0.2883 0
M  V30 16 H -3.5003 2.6829 -0.0127 0
M  V30 17 H -2.6851 2.1727 -1.5412 0
M  V30 18 H 0.5156 -1.9972 1.3021 0
M  V30 19 H -0.3186 -0.5613 1.9111 0
M  V30 20 H -1.7776 -3.0662 0.6484 0
M  V30 21 H -2.9447 -2.0664 -0.2974 0
M  V30 22 H -2.5147 -1.6138 1.39 0
M  V30 23 H -1.1568 -2.1265 -2.0676 0
M  V30 24 H 0.1111 -2.8694 -1.0207 0
M  V30 25 H 0.4002 -1.2795 -1.8301 0
M  V30 26 H 0.3878 1.7325 1.1921 0
M  V30 27 H 2.4963 -1.7851 -0.1538 0
M  V30 28 H 2.2727 3.1347 0.4484 0
M  V30 29 H 4.377 -0.3634 -0.8815 0
M  V30 30 H 4.2699 2.0955 -0.5878 0
M  V30 END ATOM
M  V30 BEGIN BOND
M  V30 1 2 1 2
M  V30 2 1 2 3
M  V30 3 1 2 4
M  V30 4 1 3 5
M  V30 5 1 5 6
M  V30 6 1 5 7
M  V30 7 1 5 8
M  V30 8 1 6 9
M  V30 9 2 9 10
M  V30 10 1 9 11
M  V30 11 1 10 12
M  V30 12 2 11 13
M  V30 13 2 12 14
M  V30 14 1 13 14
M  V30 15 1 4 15
M  V30 16 1 4 16
M  V30 17 1 4 17
M  V30 18 1 6 18
M  V30 19 1 6 19
M  V30 20 1 7 20
M  V30 21 1 7 21
M  V30 22 1 7 22
M  V30 23 1 8 23
M  V30 24 1 8 24
M  V30 25 1 8 25
M  V30 26 1 10 26
M  V30 27 1 11 27
M  V30 28 1 12 28
M  V30 29 1 13 29
M  V30 30 1 14 30
M  V30 END BOND
M  V30 END CTAB
M  END
>  <Structure No>
12

>  <LogS>
-2.394649969

>  <MMFF94 Energy>
28.928

$$$$
Compound 13
Actelion Java MolfileCreator 2.0

  0  0  0  0  0  0              0 V3000
M  V30 BEGIN CTAB
M  V30 COUNTS 19 19 0 0 0
M  V30 BEGIN ATOM
M  V30 1 O -2.4236 1.6413 -0.0781 0
M  V30 2 C -1.1671 1.0328 -0.046 0
M  V30 3 C -1.0144 -0.3722 -0.0724 0
M  V30 4 C -0.0345 1.8524 0.0107 0
M  V30 5 C 0.2783 -0.9243 -0.0368 0
M  V30 6 C -2.2093 -1.283 -0.1426 0
M  V30 7 C 1.2446 1.2947 0.0458 0
M  V30 8 C 1.4084 -0.0965 0.0381 0
M  V30 9 C 2.7843 -0.6948 0.0361 0
M  V30 10 H -3.289 1.1182 -0.1199 0
M  V30 11 H -0.1476 2.9292 0.0242 0
M  V30 12 H 0.4082 -1.9999 -0.0667 0
M  V30 13 H -2.8585 -1.1198 0.7432 0
M  V30 14 H -2.7859 -1.0752 -1.0686 0
M  V30 15 H -1.9102 -2.3527 -0.1567 0
M  V30 16 H 2.1073 1.9487 0.08 0
M  V30 17 H 2.7824 -1.6824 0.5447 0
M  V30 18 H 3.1276 -0.8272 -1.011 0
M  V30 19 H 3.5004 -0.0352 0.5716 0
M  V30 END ATOM
M  V30 BEGIN BOND
M  V30 1 1 1 2
M  V30 2 2 2 3
M  V30 3 1 2 4
M  V30 4 1 3 5
M  V30 5 1 3 6
M  V30 6 2 4 7
M  V30 7 2 5 8
M  V30 8 1 8 9
M  V30 9 1 7 8
M  V30 10 1 1 10
M  V30 11 1 4 11
M  V30 12 1 5 12
M  V30 13 1 6 13
M  V30 14 1 6 14
M  V30 15 1 6 15
M  V30 16 1 7 16
M  V30 17 1 9 17
M  V30 18 1 9 18
M  V30 19 1 9 19
M  V30 END BOND
M  V30 END CTAB
M  END
>  <Structure No>
13

>  <LogS>
-1.980309796

>  <MMFF94 Energy>
11.481

$$$$
Compound 14
Actelion Java MolfileCreator 2.0

  0  0  0  0  0  0              0 V3000
M  V30 BEGIN CTAB
M  V30 COUNTS 33 34 0 0 0
M  V30 BEGIN ATOM
M  V30 1 O 5.4038 0.0 0.7932 0
M  V30 2 C 5.1548 -0.1746 -0.5816 0 CFG=2
M  V30 3 C 5.5456 1.1403 -0.026 0
M  V30 4 C 3.6703 -0.3737 -0.9045 0
M  V30 5 O 2.8332 0.0829 0.1587 0
M  V30 6 C 1.4318 0.0323 0.1435 0
M  V30 7 C 0.7377 0.5208 1.2516 0
M  V30 8 C 0.7071 -0.4888 -0.9399 0
M  V30 9 C -0.659 0.495 1.2892 0
M  V30 10 C -0.6892 -0.517 -0.9073 0
M  V30 11 C -1.406 -0.0262 0.2067 0
M  V30 12 C -2.948 -0.0755 0.2029 0
M  V30 13 C -3.4161 -1.5406 0.0664 0
M  V30 14 C -3.4867 0.7477 -0.9871 0
M  V30 15 C -3.577 0.4999 1.4948 0
M  V30 16 H 5.9422 -0.766 -1.0941 0
M  V30 17 H 6.613 1.4215 -0.1394 0
M  V30 18 H 4.7428 1.8818 0.171 0
M  V30 19 H 3.4333 0.1826 -1.8364 0
M  V30 20 H 3.493 -1.4571 -1.0734 0
M  V30 21 H 1.286 0.9253 2.0932 0
M  V30 22 H 1.2123 -0.8759 -1.814 0
M  V30 23 H -1.1337 0.8883 2.1754 0
M  V30 24 H -1.2077 -0.9269 -1.7631 0
M  V30 25 H -3.0018 -2.157 0.8933 0
M  V30 26 H -4.5253 -1.6056 0.104 0
M  V30 27 H -3.0904 -1.9855 -0.8968 0
M  V30 28 H -3.1236 1.7966 -0.927 0
M  V30 29 H -4.5983 0.7622 -0.9858 0
M  V30 30 H -3.1618 0.3215 -1.9592 0
M  V30 31 H -4.6867 0.4456 1.4513 0
M  V30 32 H -3.2504 -0.0783 2.3861 0
M  V30 33 H -3.3011 1.5684 1.6279 0
M  V30 END ATOM
M  V30 BEGIN BOND
M  V30 1 1 1 2
M  V30 2 1 1 3
M  V30 3 1 2 4
M  V30 4 1 4 5
M  V30 5 1 5 6
M  V30 6 2 6 7
M  V30 7 1 6 8
M  V30 8 1 7 9
M  V30 9 2 8 10
M  V30 10 2 9 11
M  V30 11 1 11 12
M  V30 12 1 12 13
M  V30 13 1 12 14
M  V30 14 1 12 15
M  V30 15 1 2 3
M  V30 16 1 10 11
M  V30 17 1 2 16
M  V30 18 1 3 17
M  V30 19 1 3 18
M  V30 20 1 4 19
M  V30 21 1 4 20
M  V30 22 1 7 21
M  V30 23 1 8 22
M  V30 24 1 9 23
M  V30 25 1 10 24
M  V30 26 1 13 25
M  V30 27 1 13 26
M  V30 28 1 13 27
M  V30 29 1 14 28
M  V30 30 1 14 29
M  V30 31 1 14 30
M  V30 32 1 15 31
M  V30 33 1 15 32
M  V30 34 1 15 33
M  V30 END BOND
M  V30 BEGIN COLLECTION
M  V30 MDLV30/STEABS ATOMS=(1 2)
M  V30 END COLLECTION
M  V30 END CTAB
M  END
>  <Structure No>
14

>  <LogS>
-3.43023888

>  <MMFF94 Energy>
51.413

$$$$
Compound 15
Actelion Java MolfileCreator 2.0

  0  0  0  0  0  0              0 V3000
M  V30 BEGIN CTAB
M  V30 COUNTS 33 33 0 0 0
M  V30 BEGIN ATOM
M  V30 1 F -5.3008 -2.0856 0.7215 0
M  V30 2 C -4.3987 -1.3549 1.474 0
M  V30 3 F -5.1057 -0.4215 2.2116 0
M  V30 4 F -3.741 -2.2071 2.3389 0
M  V30 5 C -3.3877 -0.6716 0.5878 0
M  V30 6 C -3.0348 -1.2238 -0.6543 0
M  V30 7 C -2.718 0.4786 1.0364 0
M  V30 8 C -2.0568 -0.6166 -1.4473 0
M  V30 9 C -1.7404 1.0857 0.2439 0
M  V30 10 C -1.393 0.5387 -1.0037 0
M  V30 11 C -0.3497 1.1566 -1.8566 0
M  V30 12 O -0.46 1.0867 -3.1111 0
M  V30 13 C 0.8786 1.8123 -1.2783 0
M  V30 14 C 2.157 1.0315 -1.6215 0
M  V30 15 C 2.1703 -0.4178 -1.0963 0
M  V30 16 C 2.0745 -0.5286 0.4339 0
M  V30 17 O 3.0199 0.3084 1.0749 0
M  V30 18 C 4.2156 -0.3975 1.3238 0
M  V30 19 H -3.5104 -2.1285 -1.0119 0
M  V30 20 H -2.953 0.9102 2.0015 0
M  V30 21 H -1.8034 -1.0629 -2.4016 0
M  V30 22 H -1.275 1.9926 0.6057 0
M  V30 23 H 0.8121 1.932 -0.1789 0
M  V30 24 H 0.9614 2.8355 -1.7039 0
M  V30 25 H 2.2802 1.0071 -2.727 0
M  V30 26 H 3.0336 1.5797 -1.2138 0
M  V30 27 H 1.3354 -0.9919 -1.5534 0
M  V30 28 H 3.111 -0.9022 -1.4337 0
M  V30 29 H 2.1583 -1.5995 0.7367 0
M  V30 30 H 1.0604 -0.2133 0.7548 0
M  V30 31 H 4.9471 0.2994 1.7829 0
M  V30 32 H 4.046 -1.2285 2.0442 0
M  V30 33 H 4.6643 -0.7835 0.3818 0
M  V30 END ATOM
M  V30 BEGIN BOND
M  V30 1 1 1 2
M  V30 2 1 2 3
M  V30 3 1 2 4
M  V30 4 1 2 5
M  V30 5 2 5 6
M  V30 6 1 5 7
M  V30 7 1 6 8
M  V30 8 2 7 9
M  V30 9 2 8 10
M  V30 10 1 10 11
M  V30 11 2 11 12
M  V30 12 1 11 13
M  V30 13 1 13 14
M  V30 14 1 14 15
M  V30 15 1 15 16
M  V30 16 1 16 17
M  V30 17 1 17 18
M  V30 18 1 9 10
M  V30 19 1 6 19
M  V30 20 1 7 20
M  V30 21 1 8 21
M  V30 22 1 9 22
M  V30 23 1 13 23
M  V30 24 1 13 24
M  V30 25 1 14 25
M  V30 26 1 14 26
M  V30 27 1 15 27
M  V30 28 1 15 28
M  V30 29 1 16 29
M  V30 30 1 16 30
M  V30 31 1 18 31
M  V30 32 1 18 32
M  V30 33 1 18 33
M  V30 END BOND
M  V30 END CTAB
M  END
>  <Structure No>
15

>  <LogS>
-3.544059701

>  <MMFF94 Energy>
71.889

$$$$
Compound 16
Actelion Java MolfileCreator 2.0

  0  0  0  0  0  0              0 V3000
M  V30 BEGIN CTAB
M  V30 COUNTS 29 28 0 0 0
M  V30 BEGIN ATOM
M  V30 1 O 2.9311 2.6995 1.619 0
M  V30 2 C 3.1992 1.9409 0.4733 0
M  V30 3 C 2.0146 1.0731 0.1473 0
M  V30 4 C 0.8262 1.5509 -0.286 0
M  V30 5 C -0.2911 0.5771 -0.5904 0
M  V30 6 C 0.5963 3.0297 -0.4936 0
M  V30 7 C -0.9246 0.052 0.7031 0
M  V30 8 C -2.0223 -0.9368 0.3992 0
M  V30 9 C -1.824 -2.2618 0.2147 0
M  V30 10 C -2.9921 -3.1566 -0.1096 0
M  V30 11 C -0.4646 -2.8981 0.3702 0
M  V30 12 H 3.7339 3.263 1.7695 0
M  V30 13 H 4.0803 1.2885 0.662 0
M  V30 14 H 3.4345 2.6045 -0.3878 0
M  V30 15 H 2.1438 -9.0E-4 0.2561 0
M  V30 16 H -1.0784 1.0696 -1.2016 0
M  V30 17 H 0.1076 -0.2616 -1.2 0
M  V30 18 H 1.3033 3.4217 -1.2541 0
M  V30 19 H 0.7384 3.5756 0.4619 0
M  V30 20 H -0.4358 3.2338 -0.8467 0
M  V30 21 H -1.3708 0.9088 1.2534 0
M  V30 22 H -0.1582 -0.3977 1.3688 0
M  V30 23 H -3.0268 -0.5319 0.3074 0
M  V30 24 H -2.7735 -3.7316 -1.0339 0
M  V30 25 H -3.156 -3.8675 0.727 0
M  V30 26 H -3.9293 -2.5824 -0.2735 0
M  V30 27 H -0.0954 -2.7593 1.4077 0
M  V30 28 H -0.5152 -3.9894 0.1701 0
M  V30 29 H 0.2563 -2.4531 -0.345 0
M  V30 END ATOM
M  V30 BEGIN BOND
M  V30 1 1 1 2
M  V30 2 1 2 3
M  V30 3 2 3 4
M  V30 4 1 4 5
M  V30 5 1 4 6
M  V30 6 1 5 7
M  V30 7 1 7 8
M  V30 8 2 8 9
M  V30 9 1 9 10
M  V30 10 1 9 11
M  V30 11 1 1 12
M  V30 12 1 2 13
M  V30 13 1 2 14
M  V30 14 1 3 15
M  V30 15 1 5 16
M  V30 16 1 5 17
M  V30 17 1 6 18
M  V30 18 1 6 19
M  V30 19 1 6 20
M  V30 20 1 7 21
M  V30 21 1 7 22
M  V30 22 1 8 23
M  V30 23 1 10 24
M  V30 24 1 10 25
M  V30 25 1 10 26
M  V30 26 1 11 27
M  V30 27 1 11 28
M  V30 28 1 11 29
M  V30 END BOND
M  V30 END CTAB
M  END
>  <Structure No>
16

>  <LogS>
-2.320601166

>  <MMFF94 Energy>
14.44

$$$$
Compound 17
Actelion Java MolfileCreator 2.0

  0  0  0  0  0  0              0 V3000
M  V30 BEGIN CTAB
M  V30 COUNTS 24 24 0 0 0
M  V30 BEGIN ATOM
M  V30 1 Cl -4.5588 0.6503 -1.8704 0
M  V30 2 C -2.9804 0.4401 -1.1342 0
M  V30 3 C -2.787 -0.5462 -0.1639 0
M  V30 4 C -1.9172 1.2598 -1.5168 0
M  V30 5 C -1.526 -0.7203 0.4305 0
M  V30 6 C -0.6586 1.0961 -0.9336 0
M  V30 7 C -0.4482 0.1016 0.0435 0
M  V30 8 C -1.3257 -1.7857 1.4718 0
M  V30 9 O 0.8019 -0.0969 0.6579 0
M  V30 10 C 2.0247 0.5551 0.3084 0 CFG=1
M  V30 11 C 3.017 0.3388 1.4103 0
M  V30 12 C 2.5795 -0.0172 -0.9979 0
M  V30 13 O 3.7922 1.2691 1.7564 0
M  V30 14 O 3.1199 -0.9038 2.024 0 CHG=-1
M  V30 15 H -3.6199 -1.1754 0.1252 0
M  V30 16 H -2.065 2.0268 -2.2666 0
M  V30 17 H 0.1382 1.7522 -1.2512 0
M  V30 18 H -2.2658 -2.3409 1.6773 0
M  V30 19 H -0.5608 -2.5105 1.1218 0
M  V30 20 H -0.9805 -1.3219 2.4199 0
M  V30 21 H 1.8569 1.6491 0.2037 0
M  V30 22 H 2.7492 -1.111 -0.8995 0
M  V30 23 H 1.8685 0.1533 -1.8318 0
M  V30 24 H 3.5405 0.4774 -1.2554 0
M  V30 END ATOM
M  V30 BEGIN BOND
M  V30 1 1 1 2
M  V30 2 2 2 3
M  V30 3 1 2 4
M  V30 4 1 3 5
M  V30 5 2 4 6
M  V30 6 2 5 7
M  V30 7 1 5 8
M  V30 8 1 7 9
M  V30 9 1 9 10
M  V30 10 1 10 11
M  V30 11 1 10 12
M  V30 12 2 11 13
M  V30 13 1 11 14
M  V30 14 1 6 7
M  V30 15 1 3 15
M  V30 16 1 4 16
M  V30 17 1 6 17
M  V30 18 1 8 18
M  V30 19 1 8 19
M  V30 20 1 8 20
M  V30 21 1 10 21
M  V30 22 1 12 22
M  V30 23 1 12 23
M  V30 24 1 12 24
M  V30 END BOND
M  V30 BEGIN COLLECTION
M  V30 MDLV30/STEABS ATOMS=(1 10)
M  V30 END COLLECTION
M  V30 END CTAB
M  END
>  <Structure No>
17

>  <LogS>
-2.466030786

>  <MMFF94 Energy>
71.021

$$$$
Compound 18
Actelion Java MolfileCreator 2.0

  0  0  0  0  0  0              0 V3000
M  V30 BEGIN CTAB
M  V30 COUNTS 15 15 0 0 0
M  V30 BEGIN ATOM
M  V30 1 Cl 2.7735 2.1006 -0.4198 0
M  V30 2 C 1.6068 0.8114 -0.187 0
M  V30 3 C 0.2416 1.1092 -0.1028 0
M  V30 4 C 2.0405 -0.5142 -0.0929 0
M  V30 5 C -0.7001 0.0827 0.0948 0
M  V30 6 C 1.111 -1.5429 0.0764 0
M  V30 7 C -0.2534 -1.2495 0.161 0
M  V30 8 C -2.1745 0.397 0.1356 0
M  V30 9 F -2.8516 -0.5311 0.9076 0
M  V30 10 F -2.6813 0.3692 -1.1501 0
M  V30 11 F -2.3917 1.6516 0.6789 0
M  V30 12 H -0.0814 2.139 -0.1941 0
M  V30 13 H 3.0952 -0.7488 -0.1594 0
M  V30 14 H 1.4475 -2.5699 0.1366 0
M  V30 15 H -0.9586 -2.0632 0.2755 0
M  V30 END ATOM
M  V30 BEGIN BOND
M  V30 1 1 1 2
M  V30 2 2 2 3
M  V30 3 1 2 4
M  V30 4 1 3 5
M  V30 5 2 4 6
M  V30 6 2 5 7
M  V30 7 1 5 8
M  V30 8 1 8 9
M  V30 9 1 8 10
M  V30 10 1 8 11
M  V30 11 1 6 7
M  V30 12 1 3 12
M  V30 13 1 4 13
M  V30 14 1 6 14
M  V30 15 1 7 15
M  V30 END BOND
M  V30 END CTAB
M  END
>  <Structure No>
18

>  <LogS>
-3.411513885

>  <MMFF94 Energy>
36.056

$$$$
Compound 19
Actelion Java MolfileCreator 2.0

  0  0  0  0  0  0              0 V3000
M  V30 BEGIN CTAB
M  V30 COUNTS 40 40 0 0 0
M  V30 BEGIN ATOM
M  V30 1 O -1.578 0.9466 -1.3412 0
M  V30 2 C -1.3737 0.3935 -0.2243 0
M  V30 3 O -2.2542 0.6241 0.8417 0
M  V30 4 C -0.1334 -0.4636 -0.0231 0 CFG=2
M  V30 5 C -3.4667 1.3615 0.7115 0
M  V30 6 C 1.0731 0.5183 0.094 0
M  V30 7 C 0.0583 -1.4188 -1.2425 0
M  V30 8 C -0.2807 -1.2904 1.2793 0
M  V30 9 C -4.4945 0.549 -0.0793 0 CFG=1
M  V30 10 C 2.457 -0.1475 0.2635 0
M  V30 11 C -1.1406 -2.3322 -1.5285 0
M  V30 12 O -5.2161 -0.331 0.7489 0
M  V30 13 C -5.9185 0.784 0.2463 0
M  V30 14 C 3.5708 0.8716 0.5985 0
M  V30 15 C 4.8617 0.1337 0.9772 0
M  V30 16 C 3.8441 1.8313 -0.5698 0
M  V30 17 H -3.2736 2.3244 0.192 0
M  V30 18 H -3.8426 1.5959 1.7312 0
M  V30 19 H 1.1013 1.1505 -0.8199 0
M  V30 20 H 0.8978 1.201 0.9558 0
M  V30 21 H 0.2658 -0.8206 -2.157 0
M  V30 22 H 0.939 -2.075 -1.0763 0
M  V30 23 H -1.2667 -1.8008 1.3175 0
M  V30 24 H 0.5 -2.0757 1.3518 0
M  V30 25 H -0.2056 -0.6349 2.1737 0
M  V30 26 H -4.2534 0.1013 -1.0663 0
M  V30 27 H 2.408 -0.8844 1.091 0
M  V30 28 H 2.7317 -0.6923 -0.6649 0
M  V30 29 H -1.3131 -3.0331 -0.6862 0
M  V30 30 H -0.9315 -2.9356 -2.4369 0
M  V30 31 H -2.062 -1.742 -1.7131 0
M  V30 32 H -6.6534 0.4793 -0.5272 0
M  V30 33 H -6.1548 1.5088 1.0539 0
M  V30 34 H 3.2576 1.4732 1.4808 0
M  V30 35 H 5.222 -0.486 0.1279 0
M  V30 36 H 4.6856 -0.5259 1.8537 0
M  V30 37 H 5.655 0.8611 1.2528 0
M  V30 38 H 2.9692 2.4889 -0.7504 0
M  V30 39 H 4.7064 2.4905 -0.3327 0
M  V30 40 H 4.0733 1.2653 -1.4981 0
M  V30 END ATOM
M  V30 BEGIN BOND
M  V30 1 2 1 2
M  V30 2 1 2 3
M  V30 3 1 2 4
M  V30 4 1 3 5
M  V30 5 1 4 6
M  V30 6 1 4 7
M  V30 7 1 4 8
M  V30 8 1 5 9
M  V30 9 1 6 10
M  V30 10 1 7 11
M  V30 11 1 9 12
M  V30 12 1 9 13
M  V30 13 1 10 14
M  V30 14 1 14 15
M  V30 15 1 14 16
M  V30 16 1 12 13
M  V30 17 1 5 17
M  V30 18 1 5 18
M  V30 19 1 6 19
M  V30 20 1 6 20
M  V30 21 1 7 21
M  V30 22 1 7 22
M  V30 23 1 8 23
M  V30 24 1 8 24
M  V30 25 1 8 25
M  V30 26 1 9 26
M  V30 27 1 10 27
M  V30 28 1 10 28
M  V30 29 1 11 29
M  V30 30 1 11 30
M  V30 31 1 11 31
M  V30 32 1 13 32
M  V30 33 1 13 33
M  V30 34 1 14 34
M  V30 35 1 15 35
M  V30 36 1 15 36
M  V30 37 1 15 37
M  V30 38 1 16 38
M  V30 39 1 16 39
M  V30 40 1 16 40
M  V30 END BOND
M  V30 BEGIN COLLECTION
M  V30 MDLV30/STEABS ATOMS=(2 4 9)
M  V30 END COLLECTION
M  V30 END CTAB
M  END
>  <Structure No>
19

>  <LogS>
-3.513468741

>  <MMFF94 Energy>
17.13

$$$$
Compound 20
Actelion Java MolfileCreator 2.0

  0  0  0  0  0  0              0 V3000
M  V30 BEGIN CTAB
M  V30 COUNTS 36 35 0 0 0
M  V30 BEGIN ATOM
M  V30 1 S 4.8499 -0.7938 -1.032 0
M  V30 2 C 5.6564 0.5272 -0.0677 0
M  V30 3 C 4.6517 1.5913 0.3799 0
M  V30 4 C 3.677 1.0389 1.373 0
M  V30 5 O 3.975 1.0166 2.5987 0
M  V30 6 O 2.4619 0.5144 0.9245 0
M  V30 7 C 1.4981 -0.0554 1.8049 0
M  V30 8 C 0.2931 -0.5573 1.0091 0
M  V30 9 C -0.4673 0.6007 0.3427 0
M  V30 10 C -1.6075 0.1154 -0.567 0
M  V30 11 C -2.7935 -0.4632 0.2306 0
M  V30 12 C -4.0263 -0.8314 -0.6292 0
M  V30 13 C -4.6833 0.3968 -1.2743 0
M  V30 14 C -3.7078 -1.8998 -1.6838 0
M  V30 15 H 4.5293 0.0692 -2.0974 0
M  V30 16 H 6.1579 0.0788 0.8166 0
M  V30 17 H 6.435 1.0024 -0.7014 0
M  V30 18 H 5.2032 2.4378 0.8433 0
M  V30 19 H 4.1032 1.9898 -0.5004 0
M  V30 20 H 1.9552 -0.913 2.345 0
M  V30 21 H 1.1715 0.7017 2.5513 0
M  V30 22 H -0.3805 -1.0962 1.708 0
M  V30 23 H 0.6435 -1.2763 0.2366 0
M  V30 24 H 0.2413 1.1852 -0.284 0
M  V30 25 H -0.8703 1.2864 1.1201 0
M  V30 26 H -1.2119 -0.6426 -1.276 0
M  V30 27 H -1.952 0.988 -1.1598 0
M  V30 28 H -3.1076 0.2708 1.005 0
M  V30 29 H -2.4634 -1.3791 0.7651 0
M  V30 30 H -4.7767 -1.2723 0.0644 0
M  V30 31 H -4.8646 1.1838 -0.5115 0
M  V30 32 H -5.6625 0.1114 -1.7146 0
M  V30 33 H -4.0501 0.8147 -2.0845 0
M  V30 34 H -3.2042 -2.7698 -1.2113 0
M  V30 35 H -4.6486 -2.2579 -2.154 0
M  V30 36 H -3.0538 -1.4913 -2.4826 0
M  V30 END ATOM
M  V30 BEGIN BOND
M  V30 1 1 1 2
M  V30 2 1 2 3
M  V30 3 1 3 4
M  V30 4 2 4 5
M  V30 5 1 4 6
M  V30 6 1 6 7
M  V30 7 1 7 8
M  V30 8 1 8 9
M  V30 9 1 9 10
M  V30 10 1 10 11
M  V30 11 1 11 12
M  V30 12 1 12 13
M  V30 13 1 12 14
M  V30 14 1 1 15
M  V30 15 1 2 16
M  V30 16 1 2 17
M  V30 17 1 3 18
M  V30 18 1 3 19
M  V30 19 1 7 20
M  V30 20 1 7 21
M  V30 21 1 8 22
M  V30 22 1 8 23
M  V30 23 1 9 24
M  V30 24 1 9 25
M  V30 25 1 10 26
M  V30 26 1 10 27
M  V30 27 1 11 28
M  V30 28 1 11 29
M  V30 29 1 12 30
M  V30 30 1 13 31
M  V30 31 1 13 32
M  V30 32 1 13 33
M  V30 33 1 14 34
M  V30 34 1 14 35
M  V30 35 1 14 36
M  V30 END BOND
M  V30 END CTAB
M  END
>  <Structure No>
20

>  <LogS>
-4.4543817

>  <MMFF94 Energy>
-10.162

$$$$
Compound 21
Actelion Java MolfileCreator 2.0

  0  0  0  0  0  0              0 V3000
M  V30 BEGIN CTAB
M  V30 COUNTS 26 26 0 0 0
M  V30 BEGIN ATOM
M  V30 1 C -0.6268 -0.1566 -0.235 0
M  V30 2 C -1.9842 -0.0721 -0.1022 0
M  V30 3 C 0.0379 -0.1179 -1.6093 0
M  V30 4 C 0.2654 -0.3362 0.9917 0
M  V30 5 C -2.6369 -0.0913 1.2637 0
M  V30 6 C -2.886 0.0411 -1.3123 0
M  V30 7 C 1.4556 0.3874 -1.5312 0
M  V30 8 C 1.6887 -0.7745 0.621 0
M  V30 9 C 2.2416 0.0887 -0.484 0
M  V30 10 C 3.6414 0.6337 -0.4139 0
M  V30 11 H -0.5061 0.5513 -2.3066 0
M  V30 12 H 0.0395 -1.143 -2.036 0
M  V30 13 H -0.1524 -1.1152 1.6641 0
M  V30 14 H 0.3091 0.6236 1.5503 0
M  V30 15 H -2.4906 -1.0822 1.7415 0
M  V30 16 H -2.2006 0.7016 1.907 0
M  V30 17 H -3.7291 0.0955 1.2018 0
M  V30 18 H -3.9585 -0.0275 -1.0354 0
M  V30 19 H -2.6738 -0.7833 -2.0252 0
M  V30 20 H -2.7287 1.0195 -1.8124 0
M  V30 21 H 1.8333 1.0149 -2.3343 0
M  V30 22 H 2.3336 -0.731 1.5248 0
M  V30 23 H 1.665 -1.8288 0.2687 0
M  V30 24 H 4.1625 0.2884 0.5032 0
M  V30 25 H 4.222 0.2906 -1.296 0
M  V30 26 H 3.6119 1.7438 -0.4062 0
M  V30 END ATOM
M  V30 BEGIN BOND
M  V30 1 2 1 2
M  V30 2 1 1 3
M  V30 3 1 1 4
M  V30 4 1 2 5
M  V30 5 1 2 6
M  V30 6 1 3 7
M  V30 7 1 4 8
M  V30 8 2 7 9
M  V30 9 1 9 10
M  V30 10 1 8 9
M  V30 11 1 3 11
M  V30 12 1 3 12
M  V30 13 1 4 13
M  V30 14 1 4 14
M  V30 15 1 5 15
M  V30 16 1 5 16
M  V30 17 1 5 17
M  V30 18 1 6 18
M  V30 19 1 6 19
M  V30 20 1 6 20
M  V30 21 1 7 21
M  V30 22 1 8 22
M  V30 23 1 8 23
M  V30 24 1 10 24
M  V30 25 1 10 25
M  V30 26 1 10 26
M  V30 END BOND
M  V30 END CTAB
M  END
>  <Structure No>
21

>  <LogS>
-4.287342935

>  <MMFF94 Energy>
26.367

$$$$
Compound 22
Actelion Java MolfileCreator 2.0

  0  0  0  0  0  0              0 V3000
M  V30 BEGIN CTAB
M  V30 COUNTS 11 10 0 0 0
M  V30 BEGIN ATOM
M  V30 1 O -1.4816 -1.3256 -1.2475 0
M  V30 2 C -0.6018 -1.3511 -0.3465 0
M  V30 3 O -0.235 -2.5748 0.2031 0 CHG=-1
M  V30 4 C 0.0294 -0.0948 0.1145 0
M  V30 5 C 1.0181 -0.1223 1.0148 0
M  V30 6 C -0.3906 1.2162 -0.4927 0
M  V30 7 H 1.507 0.7901 1.3334 0
M  V30 8 H 1.3611 -1.0522 1.4498 0
M  V30 9 H -0.1183 2.0742 0.1593 0
M  V30 10 H 0.1046 1.342 -1.4781 0
M  V30 11 H -1.4916 1.2387 -0.6353 0
M  V30 END ATOM
M  V30 BEGIN BOND
M  V30 1 2 1 2
M  V30 2 1 2 3
M  V30 3 1 2 4
M  V30 4 2 4 5
M  V30 5 1 4 6
M  V30 6 1 5 7
M  V30 7 1 5 8
M  V30 8 1 6 9
M  V30 9 1 6 10
M  V30 10 1 6 11
M  V30 END BOND
M  V30 END CTAB
M  END
>  <Structure No>
22

>  <LogS>
-2.363208098

>  <MMFF94 Energy>
8.0129

$$$$
Compound 23
Actelion Java MolfileCreator 2.0

  0  0  0  0  0  0              0 V3000
M  V30 BEGIN CTAB
M  V30 COUNTS 29 29 0 0 0
M  V30 BEGIN ATOM
M  V30 1 O 3.4258 2.6464 -0.8556 0
M  V30 2 C 3.0868 1.3918 -0.3539 0
M  V30 3 C 1.8235 0.8384 -0.6069 0
M  V30 4 C 4.0167 0.6806 0.4105 0
M  V30 5 C 1.4886 -0.4318 -0.1028 0
M  V30 6 C 3.6874 -0.5752 0.9258 0
M  V30 7 C 2.4284 -1.1287 0.6757 0
M  V30 8 C 0.1152 -1.0204 -0.3465 0 CFG=2
M  V30 9 O -0.2552 -0.8432 -1.6891 0
M  V30 10 C -0.9189 -0.3507 0.5817 0
M  V30 11 N -2.2708 -0.9363 0.4377 0 CHG=1
M  V30 12 C -3.1325 -0.1774 -0.4901 0
M  V30 13 C -3.7832 1.0333 0.1861 0
M  V30 14 H 2.7747 3.1877 -1.4123 0
M  V30 15 H 1.1037 1.3974 -1.1923 0
M  V30 16 H 4.9932 1.104 0.609 0
M  V30 17 H 4.4077 -1.1196 1.5228 0
M  V30 18 H 2.1874 -2.0996 1.0904 0
M  V30 19 H 0.1309 -2.1117 -0.1149 0
M  V30 20 H 0.2907 -1.4782 -2.2227 0
M  V30 21 H -0.9292 0.747 0.4011 0
M  V30 22 H -0.5764 -0.4917 1.6324 0
M  V30 23 H -2.2038 -1.9247 0.0988 0
M  V30 24 H -2.7276 -0.9794 1.3793 0
M  V30 25 H -2.5636 0.1613 -1.3826 0
M  V30 26 H -3.9473 -0.8406 -0.8572 0
M  V30 27 H -4.4291 1.5625 -0.5457 0
M  V30 28 H -4.4144 0.7051 1.0391 0
M  V30 29 H -3.0152 1.7442 0.5537 0
M  V30 END ATOM
M  V30 BEGIN BOND
M  V30 1 1 1 2
M  V30 2 2 2 3
M  V30 3 1 2 4
M  V30 4 1 3 5
M  V30 5 2 4 6
M  V30 6 2 5 7
M  V30 7 1 5 8
M  V30 8 1 8 9
M  V30 9 1 8 10
M  V30 10 1 10 11
M  V30 11 1 11 12
M  V30 12 1 12 13
M  V30 13 1 6 7
M  V30 14 1 1 14
M  V30 15 1 3 15
M  V30 16 1 4 16
M  V30 17 1 6 17
M  V30 18 1 7 18
M  V30 19 1 8 19
M  V30 20 1 9 20
M  V30 21 1 10 21
M  V30 22 1 10 22
M  V30 23 1 11 23
M  V30 24 1 11 24
M  V30 25 1 12 25
M  V30 26 1 12 26
M  V30 27 1 13 27
M  V30 28 1 13 28
M  V30 29 1 13 29
M  V30 END BOND
M  V30 BEGIN COLLECTION
M  V30 MDLV30/STEABS ATOMS=(1 8)
M  V30 END COLLECTION
M  V30 END CTAB
M  END
>  <Structure No>
23

>  <LogS>
-3.45410264

>  <MMFF94 Energy>
32.459

$$$$
Compound 24
Actelion Java MolfileCreator 2.0

  0  0  0  0  0  0              0 V3000
M  V30 BEGIN CTAB
M  V30 COUNTS 15 15 0 0 0
M  V30 BEGIN ATOM
M  V30 1 Cl -0.8619 2.6738 -0.2585 0
M  V30 2 C -0.0137 1.1336 -0.1641 0
M  V30 3 C -0.7058 -0.0906 -0.0309 0
M  V30 4 C 1.3856 1.1424 -0.2173 0
M  V30 5 C 0.0289 -1.2844 0.0727 0
M  V30 6 C -2.2079 -0.1399 0.059 0
M  V30 7 C 2.1037 -0.0532 -0.1288 0
M  V30 8 C 1.4247 -1.265 0.0188 0
M  V30 9 Cl -2.7271 0.2141 1.7254 0
M  V30 10 Cl 3.8564 -0.0315 -0.1943 0
M  V30 11 H 1.9158 2.0807 -0.3234 0
M  V30 12 H -0.4791 -2.233 0.1957 0
M  V30 13 H -2.6691 0.5923 -0.6358 0
M  V30 14 H -2.5875 -1.1446 -0.2246 0
M  V30 15 H 1.9775 -2.1927 0.0949 0
M  V30 END ATOM
M  V30 BEGIN BOND
M  V30 1 1 1 2
M  V30 2 2 2 3
M  V30 3 1 2 4
M  V30 4 1 3 5
M  V30 5 1 3 6
M  V30 6 2 4 7
M  V30 7 2 5 8
M  V30 8 1 6 9
M  V30 9 1 7 10
M  V30 10 1 7 8
M  V30 11 1 4 11
M  V30 12 1 5 12
M  V30 13 1 6 13
M  V30 14 1 6 14
M  V30 15 1 8 15
M  V30 END BOND
M  V30 END CTAB
M  END
>  <Structure No>
24

>  <LogS>
-3.512942193

>  <MMFF94 Energy>
13.712

$$$$
Compound 25
Actelion Java MolfileCreator 2.0

  0  0  0  0  0  0              0 V3000
M  V30 BEGIN CTAB
M  V30 COUNTS 26 27 0 0 0
M  V30 BEGIN ATOM
M  V30 1 C 1.3597 0.2398 -0.7996 0
M  V30 2 C 2.0325 0.624 -1.8894 0
M  V30 3 C 0.2077 1.0684 -0.24 0 CFG=1
M  V30 4 C 1.719 -1.0537 -0.0524 0
M  V30 5 C -1.0251 0.1583 -0.0304 0
M  V30 6 C 0.4217 1.0697 1.2823 0
M  V30 7 C 0.6854 -1.3932 1.0878 0
M  V30 8 C -0.3608 -0.2537 1.3078 0 CFG=2
M  V30 9 C -2.3207 0.9772 0.1942 0
M  V30 10 C -1.3181 -0.9419 -1.0869 0
M  V30 11 H 1.7705 1.5402 -2.4093 0
M  V30 12 H 2.8516 0.0232 -2.2722 0
M  V30 13 H 0.0275 2.0644 -0.7017 0
M  V30 14 H 1.7737 -1.9017 -0.7685 0
M  V30 15 H 2.7297 -0.9323 0.3936 0
M  V30 16 H 1.4787 1.0217 1.6339 0
M  V30 17 H -0.1213 1.897 1.7889 0
M  V30 18 H 1.2338 -1.5626 2.0396 0
M  V30 19 H 0.1536 -2.3398 0.8521 0
M  V30 20 H -1.0411 -0.3895 2.1765 0
M  V30 21 H -2.6403 1.4506 -0.7585 0
M  V30 22 H -3.1346 0.3087 0.5476 0
M  V30 23 H -2.1988 1.784 0.9456 0
M  V30 24 H -0.4526 -1.5646 -1.3703 0
M  V30 25 H -1.6916 -0.4704 -2.0206 0
M  V30 26 H -2.1044 -1.6252 -0.7017 0
M  V30 END ATOM
M  V30 BEGIN BOND
M  V30 1 2 1 2
M  V30 2 1 1 3
M  V30 3 1 1 4
M  V30 4 1 3 5
M  V30 5 1 3 6
M  V30 6 1 4 7
M  V30 7 1 5 8
M  V30 8 1 5 9
M  V30 9 1 5 10
M  V30 10 1 6 8
M  V30 11 1 7 8
M  V30 12 1 2 11
M  V30 13 1 2 12
M  V30 14 1 3 13
M  V30 15 1 4 14
M  V30 16 1 4 15
M  V30 17 1 6 16
M  V30 18 1 6 17
M  V30 19 1 7 18
M  V30 20 1 7 19
M  V30 21 1 8 20
M  V30 22 1 9 21
M  V30 23 1 9 22
M  V30 24 1 9 23
M  V30 25 1 10 24
M  V30 26 1 10 25
M  V30 27 1 10 26
M  V30 END BOND
M  V30 BEGIN COLLECTION
M  V30 MDLV30/STEABS ATOMS=(2 3 8)
M  V30 END COLLECTION
M  V30 END CTAB
M  END
>  <Structure No>
25

>  <LogS>
-4.292313455

>  <MMFF94 Energy>
39.822

$$$$
Compound 26
Actelion Java MolfileCreator 2.0

  0  0  0  0  0  0              0 V3000
M  V30 BEGIN CTAB
M  V30 COUNTS 53 52 0 0 0
M  V30 BEGIN ATOM
M  V30 1 O -5.0191 1.6447 -3.841 0
M  V30 2 C -5.8094 0.7139 -3.5316 0
M  V30 3 O -5.9045 -0.4053 -4.349 0 CHG=-1
M  V30 4 C -6.6708 0.8264 -2.3101 0
M  V30 5 C -5.8515 1.0058 -1.0195 0
M  V30 6 C -5.2923 -0.3086 -0.4468 0
M  V30 7 C -4.1271 -0.8801 -1.273 0
M  V30 8 C -3.377 -2.0023 -0.5245 0
M  V30 9 C -2.0404 -1.5456 0.0844 0
M  V30 10 C -2.2185 -0.5342 1.2252 0
M  V30 11 C -0.9075 -0.249 1.9039 0
M  V30 12 C 0.0587 0.4552 1.2954 0
M  V30 13 C 1.3638 0.7566 1.9786 0
M  V30 14 C 2.2217 -0.5101 2.1182 0
M  V30 15 C 3.6101 -0.2114 2.7226 0
M  V30 16 C 4.7402 -0.1828 1.6795 0
M  V30 17 C 4.6158 0.9933 0.6978 0
M  V30 18 C 5.8802 1.1948 -0.1564 0
M  V30 19 C 6.238 0.0065 -1.0669 0
M  V30 20 C 5.1571 -0.2996 -2.1031 0
M  V30 21 H -7.3295 1.712 -2.44 0
M  V30 22 H -7.3305 -0.0641 -2.2263 0
M  V30 23 H -5.0327 1.7439 -1.1678 0
M  V30 24 H -6.5297 1.4385 -0.2518 0
M  V30 25 H -6.1039 -1.0651 -0.372 0
M  V30 26 H -4.9463 -0.102 0.5875 0
M  V30 27 H -4.5429 -1.3104 -2.2078 0
M  V30 28 H -3.4251 -0.0689 -1.5667 0
M  V30 29 H -4.0165 -2.4613 0.2617 0
M  V30 30 H -3.1472 -2.8115 -1.2522 0
M  V30 31 H -1.5181 -2.4447 0.48 0
M  V30 32 H -1.3993 -1.1104 -0.7133 0
M  V30 33 H -2.9231 -0.9491 1.9782 0
M  V30 34 H -2.6396 0.418 0.8376 0
M  V30 35 H -0.7609 -0.6034 2.9207 0
M  V30 36 H -0.1046 0.8441 0.2938 0
M  V30 37 H 1.1652 1.1955 2.9811 0
M  V30 38 H 1.9045 1.5167 1.3785 0
M  V30 39 H 2.3217 -1.0115 1.1299 0
M  V30 40 H 1.6911 -1.2202 2.79 0
M  V30 41 H 3.6033 0.7381 3.3025 0
M  V30 42 H 3.8524 -1.0187 3.4483 0
M  V30 43 H 4.7443 -1.1449 1.1238 0
M  V30 44 H 5.707 -0.1014 2.2231 0
M  V30 45 H 4.4466 1.9288 1.2747 0
M  V30 46 H 3.7372 0.8479 0.0358 0
M  V30 47 H 5.7415 2.1009 -0.7859 0
M  V30 48 H 6.7418 1.3981 0.5165 0
M  V30 49 H 7.1761 0.2573 -1.6076 0
M  V30 50 H 6.4454 -0.901 -0.462 0
M  V30 51 H 4.2546 -0.7223 -1.6145 0
M  V30 52 H 5.5406 -1.0512 -2.8249 0
M  V30 53 H 4.8819 0.6198 -2.6622 0
M  V30 END ATOM
M  V30 BEGIN BOND
M  V30 1 2 1 2
M  V30 2 1 2 3
M  V30 3 1 2 4
M  V30 4 1 4 5
M  V30 5 1 5 6
M  V30 6 1 6 7
M  V30 7 1 7 8
M  V30 8 1 8 9
M  V30 9 1 9 10
M  V30 10 1 10 11
M  V30 11 2 11 12
M  V30 12 1 12 13
M  V30 13 1 13 14
M  V30 14 1 14 15
M  V30 15 1 15 16
M  V30 16 1 16 17
M  V30 17 1 17 18
M  V30 18 1 18 19
M  V30 19 1 19 20
M  V30 20 1 4 21
M  V30 21 1 4 22
M  V30 22 1 5 23
M  V30 23 1 5 24
M  V30 24 1 6 25
M  V30 25 1 6 26
M  V30 26 1 7 27
M  V30 27 1 7 28
M  V30 28 1 8 29
M  V30 29 1 8 30
M  V30 30 1 9 31
M  V30 31 1 9 32
M  V30 32 1 10 33
M  V30 33 1 10 34
M  V30 34 1 11 35
M  V30 35 1 12 36
M  V30 36 1 13 37
M  V30 37 1 13 38
M  V30 38 1 14 39
M  V30 39 1 14 40
M  V30 40 1 15 41
M  V30 41 1 15 42
M  V30 42 1 16 43
M  V30 43 1 16 44
M  V30 44 1 17 45
M  V30 45 1 17 46
M  V30 46 1 18 47
M  V30 47 1 18 48
M  V30 48 1 19 49
M  V30 49 1 19 50
M  V30 50 1 20 51
M  V30 51 1 20 52
M  V30 52 1 20 53
M  V30 END BOND
M  V30 END CTAB
M  END
>  <Structure No>
26

>  <LogS>
-4.809134189

>  <MMFF94 Energy>
7.6338

$$$$
Compound 27
Actelion Java MolfileCreator 2.0

  0  0  0  0  0  0              0 V3000
M  V30 BEGIN CTAB
M  V30 COUNTS 48 47 0 0 0
M  V30 BEGIN ATOM
M  V30 1 O 6.724 -1.5605 0.0779 0
M  V30 2 C 6.3153 -0.367 0.0426 0
M  V30 3 O 4.9476 -0.0817 0.0848 0
M  V30 4 C 7.302 0.7632 -4.0E-4 0 CFG=2
M  V30 5 C 3.9529 -1.0983 0.1492 0
M  V30 6 O 8.3472 0.4619 -0.8871 0
M  V30 7 C 7.8757 1.0123 1.3916 0
M  V30 8 C 2.5688 -0.4534 0.1809 0
M  V30 9 C 1.464 -1.5187 0.2376 0
M  V30 10 C 0.0632 -0.9082 0.4014 0
M  V30 11 C -0.405 -0.1565 -0.857 0
M  V30 12 C -1.8921 0.2259 -0.795 0
M  V30 13 C -2.1827 1.2928 0.273 0
M  V30 14 C -3.6052 1.8694 0.1695 0
M  V30 15 C -4.7113 0.8461 0.5041 0
M  V30 16 C -5.3956 0.2965 -0.7596 0
M  V30 17 C -6.3578 -0.8615 -0.4543 0
M  V30 18 C -7.6014 -0.4113 0.3116 0
M  V30 19 H 6.7827 1.6919 -0.3326 0
M  V30 20 H 4.0389 -1.7569 -0.7429 0
M  V30 21 H 4.1049 -1.7059 1.0682 0
M  V30 22 H 7.9794 0.5577 -1.8048 0
M  V30 23 H 8.4137 0.1119 1.7587 0
M  V30 24 H 8.5885 1.8634 1.3568 0
M  V30 25 H 7.0607 1.2646 2.1038 0
M  V30 26 H 2.4484 0.1683 -0.7314 0
M  V30 27 H 2.4988 0.2073 1.0726 0
M  V30 28 H 1.4963 -2.1473 -0.6791 0
M  V30 29 H 1.6511 -2.1847 1.1086 0
M  V30 30 H -0.6477 -1.7364 0.6142 0
M  V30 31 H 0.0604 -0.226 1.2785 0
M  V30 32 H -0.2564 -0.8083 -1.7455 0
M  V30 33 H 0.2033 0.7612 -1.0048 0
M  V30 34 H -2.4963 -0.6852 -0.5965 0
M  V30 35 H -2.1855 0.622 -1.7918 0
M  V30 36 H -2.0354 0.8665 1.2886 0
M  V30 37 H -1.464 2.1327 0.1526 0
M  V30 38 H -3.7613 2.3191 -0.8359 0
M  V30 39 H -3.6747 2.7059 0.8995 0
M  V30 40 H -4.3013 0.0109 1.1134 0
M  V30 41 H -5.4789 1.3569 1.1245 0
M  V30 42 H -5.9459 1.1152 -1.2734 0
M  V30 43 H -4.6273 -0.0781 -1.467 0
M  V30 44 H -6.6851 -1.309 -1.4177 0
M  V30 45 H -5.8315 -1.6535 0.1215 0
M  V30 46 H -7.3332 -0.0803 1.3363 0
M  V30 47 H -8.3093 -1.2623 0.398 0
M  V30 48 H -8.1098 0.4178 -0.2249 0
M  V30 END ATOM
M  V30 BEGIN BOND
M  V30 1 2 1 2
M  V30 2 1 2 3
M  V30 3 1 2 4
M  V30 4 1 3 5
M  V30 5 1 4 6
M  V30 6 1 4 7
M  V30 7 1 5 8
M  V30 8 1 8 9
M  V30 9 1 9 10
M  V30 10 1 10 11
M  V30 11 1 11 12
M  V30 12 1 12 13
M  V30 13 1 13 14
M  V30 14 1 14 15
M  V30 15 1 15 16
M  V30 16 1 16 17
M  V30 17 1 17 18
M  V30 18 1 4 19
M  V30 19 1 5 20
M  V30 20 1 5 21
M  V30 21 1 6 22
M  V30 22 1 7 23
M  V30 23 1 7 24
M  V30 24 1 7 25
M  V30 25 1 8 26
M  V30 26 1 8 27
M  V30 27 1 9 28
M  V30 28 1 9 29
M  V30 29 1 10 30
M  V30 30 1 10 31
M  V30 31 1 11 32
M  V30 32 1 11 33
M  V30 33 1 12 34
M  V30 34 1 12 35
M  V30 35 1 13 36
M  V30 36 1 13 37
M  V30 37 1 14 38
M  V30 38 1 14 39
M  V30 39 1 15 40
M  V30 40 1 15 41
M  V30 41 1 16 42
M  V30 42 1 16 43
M  V30 43 1 17 44
M  V30 44 1 17 45
M  V30 45 1 18 46
M  V30 46 1 18 47
M  V30 47 1 18 48
M  V30 END BOND
M  V30 BEGIN COLLECTION
M  V30 MDLV30/STEABS ATOMS=(1 4)
M  V30 END COLLECTION
M  V30 END CTAB
M  END
>  <Structure No>
27

>  <LogS>
-4.63414462

>  <MMFF94 Energy>
23.203

$$$$
Compound 28
Actelion Java MolfileCreator 2.0

  0  0  0  0  0  0              0 V3000
M  V30 BEGIN CTAB
M  V30 COUNTS 5 4 0 0 0
M  V30 BEGIN ATOM
M  V30 1 O 0.7623 -0.0692 0.4157 0
M  V30 2 N -0.4336 -0.0149 -0.2161 0
M  V30 3 H 1.429 -0.1257 -0.3149 0
M  V30 4 H -0.9052 0.8597 0.1065 0
M  V30 5 H -1.0025 -0.8123 0.1469 0
M  V30 END ATOM
M  V30 BEGIN BOND
M  V30 1 1 1 2
M  V30 2 1 1 3
M  V30 3 1 2 4
M  V30 4 1 2 5
M  V30 END BOND
M  V30 END CTAB
M  END
>  <Structure No>
28

>  <LogS>
-0.763033718

>  <MMFF94 Energy>
25.004

$$$$
Compound 29
Actelion Java MolfileCreator 2.0

  0  0  0  0  0  0              0 V3000
M  V30 BEGIN CTAB
M  V30 COUNTS 26 26 0 0 0
M  V30 BEGIN ATOM
M  V30 1 O 4.0998 1.3388 0.0 0
M  V30 2 C 3.7993 0.1531 0.3123 0
M  V30 3 O 2.4622 -0.2511 0.3518 0
M  V30 4 C 4.8475 -0.8255 0.6407 0
M  V30 5 C 1.3841 0.6287 0.0494 0
M  V30 6 C 6.1439 -0.5202 0.6265 0
M  V30 7 C 0.0649 -0.117 0.1844 0
M  V30 8 O -1.0126 0.7652 -0.1186 0
M  V30 9 C -2.3669 0.4008 -0.0911 0
M  V30 10 C -2.7935 -0.8996 0.2461 0
M  V30 11 C -3.3244 1.372 -0.4123 0
M  V30 12 C -4.1571 -1.2111 0.2585 0
M  V30 13 C -4.6867 1.0566 -0.3989 0
M  V30 14 C -5.103 -0.2342 -0.0636 0
M  V30 15 H 4.5502 -1.833 0.9038 0
M  V30 16 H 1.3955 1.4897 0.7532 0
M  V30 17 H 1.4903 1.0061 -0.9911 0
M  V30 18 H 6.8781 -1.2753 0.8758 0
M  V30 19 H 6.489 0.4734 0.3699 0
M  V30 20 H -0.0387 -0.4912 1.2263 0
M  V30 21 H 0.0562 -0.9758 -0.5216 0
M  V30 22 H -2.0821 -1.6735 0.4994 0
M  V30 23 H -3.0106 2.3749 -0.6732 0
M  V30 24 H -4.4807 -2.2109 0.5182 0
M  V30 25 H -5.4196 1.8132 -0.6483 0
M  V30 26 H -6.1577 -0.4775 -0.0533 0
M  V30 END ATOM
M  V30 BEGIN BOND
M  V30 1 2 1 2
M  V30 2 1 2 3
M  V30 3 1 2 4
M  V30 4 1 3 5
M  V30 5 2 4 6
M  V30 6 1 5 7
M  V30 7 1 7 8
M  V30 8 1 8 9
M  V30 9 2 9 10
M  V30 10 1 9 11
M  V30 11 1 10 12
M  V30 12 2 11 13
M  V30 13 2 12 14
M  V30 14 1 13 14
M  V30 15 1 4 15
M  V30 16 1 5 16
M  V30 17 1 5 17
M  V30 18 1 6 18
M  V30 19 1 6 19
M  V30 20 1 7 20
M  V30 21 1 7 21
M  V30 22 1 10 22
M  V30 23 1 11 23
M  V30 24 1 12 24
M  V30 25 1 13 25
M  V30 26 1 14 26
M  V30 END BOND
M  V30 END CTAB
M  END
>  <Structure No>
29

>  <LogS>
-2.563625713

>  <MMFF94 Energy>
27.53

$$$$
Compound 30
Actelion Java MolfileCreator 2.0

  0  0  0  0  0  0              0 V3000
M  V30 BEGIN CTAB
M  V30 COUNTS 22 23 0 0 0
M  V30 BEGIN ATOM
M  V30 1 S 2.9336 -0.5024 0.2512 0
M  V30 2 O 3.242 0.347 1.452 0
M  V30 3 O 3.4373 0.1731 -0.9932 0
M  V30 4 O 3.7277 -1.9741 0.4193 0 CHG=-1
M  V30 5 C 1.1817 -0.7506 0.1289 0
M  V30 6 C 0.2641 0.3234 -0.0206 0
M  V30 7 C 0.7 -2.0626 0.1838 0
M  V30 8 C -1.136 0.0496 -0.1129 0
M  V30 9 C 0.7031 1.6646 -0.0809 0
M  V30 10 C -0.6615 -2.3276 0.094 0
M  V30 11 C -1.5871 -1.2953 -0.0533 0
M  V30 12 C -2.0344 1.1298 -0.2615 0
M  V30 13 C -0.2075 2.7089 -0.2279 0
M  V30 14 O -2.9348 -1.6612 -0.1348 0
M  V30 15 C -1.569 2.4428 -0.3176 0
M  V30 16 H 1.3802 -2.896 0.2975 0
M  V30 17 H 1.7483 1.9272 -0.0161 0
M  V30 18 H -1.0043 -3.3539 0.1396 0
M  V30 19 H -3.1004 0.9912 -0.3368 0
M  V30 20 H 0.1453 3.7314 -0.2723 0
M  V30 21 H -3.7036 -1.0164 -0.2419 0
M  V30 22 H -2.2701 3.2601 -0.4317 0
M  V30 END ATOM
M  V30 BEGIN BOND
M  V30 1 2 1 2
M  V30 2 2 1 3
M  V30 3 1 1 4
M  V30 4 1 1 5
M  V30 5 1 5 6
M  V30 6 2 5 7
M  V30 7 1 6 8
M  V30 8 2 6 9
M  V30 9 1 7 10
M  V30 10 1 8 11
M  V30 11 2 8 12
M  V30 12 1 9 13
M  V30 13 1 11 14
M  V30 14 1 12 15
M  V30 15 2 10 11
M  V30 16 2 13 15
M  V30 17 1 7 16
M  V30 18 1 9 17
M  V30 19 1 10 18
M  V30 20 1 12 19
M  V30 21 1 13 20
M  V30 22 1 14 21
M  V30 23 1 15 22
M  V30 END BOND
M  V30 END CTAB
M  END
>  <Structure No>
30

>  <LogS>
-2.641819273

>  <MMFF94 Energy>
57.304

$$$$
Compound 31
Actelion Java MolfileCreator 2.0

  0  0  0  0  0  0              0 V3000
M  V30 BEGIN CTAB
M  V30 COUNTS 32 31 0 0 0
M  V30 BEGIN ATOM
M  V30 1 O 5.0151 1.3302 -1.2519 0
M  V30 2 C 3.7784 1.4459 -1.0443 0
M  V30 3 O 2.8934 1.3993 -2.1142 0 CHG=-1
M  V30 4 C 3.2595 1.5958 0.3527 0
M  V30 5 C 3.2464 0.2584 1.1106 0
M  V30 6 C 2.3483 -0.8212 0.4785 0
M  V30 7 C 0.8559 -0.4617 0.5331 0
M  V30 8 C -0.0081 -1.6288 0.0317 0
M  V30 9 C -1.5136 -1.3512 0.1686 0
M  V30 10 C -2.0169 -0.3026 -0.8389 0
M  V30 11 C -3.5461 -0.1601 -0.808 0
M  V30 12 C -4.0451 0.3823 0.5051 0
M  V30 13 C -3.8204 1.6463 0.8762 0
M  V30 14 H 2.2446 2.0448 0.3336 0
M  V30 15 H 3.9147 2.3074 0.9001 0
M  V30 16 H 2.9159 0.442 2.1562 0
M  V30 17 H 4.2861 -0.1327 1.1636 0
M  V30 18 H 2.5113 -1.7665 1.0413 0
M  V30 19 H 2.6542 -1.0065 -0.5736 0
M  V30 20 H 0.6729 0.426 -0.1055 0
M  V30 21 H 0.5727 -0.2155 1.5801 0
M  V30 22 H 0.2392 -1.8553 -1.0287 0
M  V30 23 H 0.2278 -2.5343 0.6327 0
M  V30 24 H -1.7395 -1.0238 1.207 0
M  V30 25 H -2.0554 -2.3062 -0.0078 0
M  V30 26 H -1.7189 -0.6106 -1.8648 0
M  V30 27 H -1.5524 0.6848 -0.6338 0
M  V30 28 H -3.8689 0.5167 -1.6287 0
M  V30 29 H -4.0134 -1.1514 -0.9937 0
M  V30 30 H -4.626 -0.2649 1.1555 0
M  V30 31 H -4.2034 2.0098 1.8242 0
M  V30 32 H -3.2598 2.3248 0.2404 0
M  V30 END ATOM
M  V30 BEGIN BOND
M  V30 1 2 1 2
M  V30 2 1 2 3
M  V30 3 1 2 4
M  V30 4 1 4 5
M  V30 5 1 5 6
M  V30 6 1 6 7
M  V30 7 1 7 8
M  V30 8 1 8 9
M  V30 9 1 9 10
M  V30 10 1 10 11
M  V30 11 1 11 12
M  V30 12 2 12 13
M  V30 13 1 4 14
M  V30 14 1 4 15
M  V30 15 1 5 16
M  V30 16 1 5 17
M  V30 17 1 6 18
M  V30 18 1 6 19
M  V30 19 1 7 20
M  V30 20 1 7 21
M  V30 21 1 8 22
M  V30 22 1 8 23
M  V30 23 1 9 24
M  V30 24 1 9 25
M  V30 25 1 10 26
M  V30 26 1 10 27
M  V30 27 1 11 28
M  V30 28 1 11 29
M  V30 29 1 12 30
M  V30 30 1 13 31
M  V30 31 1 13 32
M  V30 END BOND
M  V30 END CTAB
M  END
>  <Structure No>
31

>  <LogS>
-3.552826145

>  <MMFF94 Energy>
10.624

$$$$
Compound 32
Actelion Java MolfileCreator 2.0

  0  0  0  0  0  0              0 V3000
M  V30 BEGIN CTAB
M  V30 COUNTS 54 53 0 0 0
M  V30 BEGIN ATOM
M  V30 1 S 0.5033 -2.0984 2.6025 0
M  V30 2 O 0.4994 -2.8538 3.9018 0
M  V30 3 O 1.5153 -2.7344 1.69 0
M  V30 4 N -1.0993 -2.1541 1.9222 0
M  V30 5 C 0.9445 -0.3992 2.9608 0
M  V30 6 C -1.0525 -2.4555 0.489 0
M  V30 7 C 0.8657 0.552 1.7506 0
M  V30 8 C -2.4316 -2.2482 -0.1463 0
M  V30 9 C 1.9669 0.4635 0.66 0
M  V30 10 C -2.8418 -0.7534 -0.1277 0
M  V30 11 F 1.6478 1.444 -0.2606 0
M  V30 12 F 1.9032 -0.755 0.0136 0
M  V30 13 C 3.4113 0.7016 1.1835 0
M  V30 14 N -4.2191 -0.4604 -0.6404 0 CHG=1
M  V30 15 F 3.733 -0.2997 2.0827 0
M  V30 16 F 3.462 1.9106 1.8589 0
M  V30 17 C 4.5269 0.6672 0.0973 0
M  V30 18 C -4.4079 1.0214 -0.739 0
M  V30 19 C -5.2559 -1.0404 0.2521 0
M  V30 20 C -4.4002 -1.0174 -2.0055 0
M  V30 21 F 4.5319 -0.5838 -0.5001 0
M  V30 22 F 5.733 0.8064 0.7668 0
M  V30 23 C 4.43 1.7541 -1.0153 0
M  V30 24 C -4.2857 1.7482 0.5768 0
M  V30 25 F 4.0471 2.9646 -0.4601 0
M  V30 26 F 3.4738 1.3639 -1.9381 0
M  V30 27 C 5.7765 1.9508 -1.765 0
M  V30 28 O -3.1789 2.2317 0.9362 0
M  V30 29 O -5.3982 1.897 1.3961 0 CHG=-1
M  V30 30 F 6.2342 0.7265 -2.2257 0
M  V30 31 F 6.722 2.4733 -0.8957 0
M  V30 32 C 5.6612 2.9078 -2.9643 0
M  V30 33 F 5.2235 4.1541 -2.5528 0
M  V30 34 F 4.7848 2.4073 -3.9117 0
M  V30 35 F 6.905 3.0502 -3.5532 0
M  V30 36 H -1.6119 -2.9345 2.396 0
M  V30 37 H 0.2058 -0.0383 3.7077 0
M  V30 38 H 1.9215 -0.354 3.4733 0
M  V30 39 H -0.3262 -1.7958 -0.0274 0
M  V30 40 H -0.7372 -3.5118 0.3346 0
M  V30 41 H 0.8674 1.5908 2.147 0
M  V30 42 H -0.124 0.4186 1.2638 0
M  V30 43 H -3.1693 -2.8749 0.3954 0
M  V30 44 H -2.3665 -2.6093 -1.1944 0
M  V30 45 H -2.0884 -0.1903 -0.7259 0
M  V30 46 H -2.7476 -0.3903 0.9196 0
M  V30 47 H -3.6683 1.4592 -1.4486 0
M  V30 48 H -5.4118 1.261 -1.1587 0
M  V30 49 H -6.2693 -0.6698 -0.0196 0
M  V30 50 H -5.2895 -2.1485 0.1797 0
M  V30 51 H -5.0661 -0.7814 1.3168 0
M  V30 52 H -4.4245 -2.1274 -1.9999 0
M  V30 53 H -3.581 -0.6889 -2.6826 0
M  V30 54 H -5.3664 -0.6881 -2.4497 0
M  V30 END ATOM
M  V30 BEGIN BOND
M  V30 1 2 1 2
M  V30 2 2 1 3
M  V30 3 1 1 4
M  V30 4 1 1 5
M  V30 5 1 4 6
M  V30 6 1 5 7
M  V30 7 1 6 8
M  V30 8 1 7 9
M  V30 9 1 8 10
M  V30 10 1 9 11
M  V30 11 1 9 12
M  V30 12 1 9 13
M  V30 13 1 10 14
M  V30 14 1 13 15
M  V30 15 1 13 16
M  V30 16 1 13 17
M  V30 17 1 14 18
M  V30 18 1 14 19
M  V30 19 1 14 20
M  V30 20 1 17 21
M  V30 21 1 17 22
M  V30 22 1 17 23
M  V30 23 1 18 24
M  V30 24 1 23 25
M  V30 25 1 23 26
M  V30 26 1 23 27
M  V30 27 2 24 28
M  V30 28 1 24 29
M  V30 29 1 27 30
M  V30 30 1 27 31
M  V30 31 1 27 32
M  V30 32 1 32 33
M  V30 33 1 32 34
M  V30 34 1 32 35
M  V30 35 1 4 36
M  V30 36 1 5 37
M  V30 37 1 5 38
M  V30 38 1 6 39
M  V30 39 1 6 40
M  V30 40 1 7 41
M  V30 41 1 7 42
M  V30 42 1 8 43
M  V30 43 1 8 44
M  V30 44 1 10 45
M  V30 45 1 10 46
M  V30 46 1 18 47
M  V30 47 1 18 48
M  V30 48 1 19 49
M  V30 49 1 19 50
M  V30 50 1 19 51
M  V30 51 1 20 52
M  V30 52 1 20 53
M  V30 53 1 20 54
M  V30 END BOND
M  V30 END CTAB
M  END
>  <Structure No>
32

>  <LogS>
-4.057185148

>  <MMFF94 Energy>
1.0298

$$$$
Compound 33
Actelion Java MolfileCreator 2.0

  0  0  0  0  0  0              0 V3000
M  V30 BEGIN CTAB
M  V30 COUNTS 58 60 0 0 0
M  V30 BEGIN ATOM
M  V30 1 O -1.0322 -2.1447 -1.3499 0
M  V30 2 C -0.7485 -1.0211 -0.8512 0
M  V30 3 C 0.6982 -0.715 -0.7268 0
M  V30 4 C -1.9039 -0.1325 -0.3161 0 CFG=1
M  V30 5 C 1.2902 0.3884 -1.3634 0
M  V30 6 C 1.5163 -1.6059 -0.0132 0
M  V30 7 N -2.8112 0.3027 -1.4541 0 CHG=1
M  V30 8 C -2.7176 -1.0042 0.7329 0
M  V30 9 C -1.3444 1.1441 0.4322 0
M  V30 10 C 2.6624 0.6242 -1.2423 0
M  V30 11 C 2.8881 -1.371 0.1069 0
M  V30 12 C -2.1928 1.2608 -2.3976 0
M  V30 13 C -3.3779 -0.8071 -2.2598 0
M  V30 14 C -4.1025 -0.4924 1.1095 0
M  V30 15 C -0.5753 0.9118 1.7478 0
M  V30 16 C 3.4737 -0.2531 -0.5058 0
M  V30 17 C -5.2532 -1.1482 0.6271 0
M  V30 18 C -4.2709 0.603 1.9781 0
M  V30 19 N 4.8856 -0.0061 -0.3686 0
M  V30 20 C -6.53 -0.6869 0.96 0
M  V30 21 C -5.55 1.0608 2.3083 0
M  V30 22 C 5.3566 1.3311 0.0121 0
M  V30 23 C 5.8575 -1.0412 -0.7469 0
M  V30 24 C -6.6785 0.4215 1.7939 0
M  V30 25 C 6.845 1.2946 0.3581 0
M  V30 26 C 7.1139 -0.9975 0.155 0
M  V30 27 O 7.1345 0.1002 1.0514 0
M  V30 28 H 0.7063 1.0683 -1.9623 0
M  V30 29 H 1.0857 -2.474 0.471 0
M  V30 30 H -3.6252 0.8157 -1.0407 0
M  V30 31 H -2.1345 -1.1568 1.6625 0
M  V30 32 H -2.8289 -2.0441 0.36 0
M  V30 33 H -0.6581 1.7074 -0.2241 0
M  V30 34 H -2.1758 1.8494 0.6375 0
M  V30 35 H 3.0934 1.4807 -1.7432 0
M  V30 36 H 3.4904 -2.0525 0.6936 0
M  V30 37 H -1.2953 0.8258 -2.8803 0
M  V30 38 H -1.9473 2.2248 -1.9084 0
M  V30 39 H -2.9084 1.5254 -3.2085 0
M  V30 40 H -2.6517 -1.1768 -3.0171 0
M  V30 41 H -4.2829 -0.4599 -2.8062 0
M  V30 42 H -3.6872 -1.669 -1.6475 0
M  V30 43 H -1.2576 0.721 2.5972 0
M  V30 44 H 0.1304 0.065 1.6808 0
M  V30 45 H 0.0063 1.8242 1.9978 0
M  V30 46 H -5.1713 -2.0294 0.0064 0
M  V30 47 H -3.4263 1.104 2.4181 0
M  V30 48 H -7.4054 -1.1954 0.5772 0
M  V30 49 H -5.6659 1.9089 2.9708 0
M  V30 50 H 4.7907 1.673 0.9063 0
M  V30 51 H 5.1862 2.0512 -0.8158 0
M  V30 52 H 6.1599 -0.8679 -1.8022 0
M  V30 53 H 5.4041 -2.0544 -0.701 0
M  V30 54 H -7.6678 0.7763 2.0531 0
M  V30 55 H 7.0895 2.1586 1.0115 0
M  V30 56 H 7.4662 1.3949 -0.5626 0
M  V30 57 H 8.034 -0.9897 -0.4708 0
M  V30 58 H 7.1503 -1.9287 0.7592 0
M  V30 END ATOM
M  V30 BEGIN BOND
M  V30 1 2 1 2
M  V30 2 1 2 3
M  V30 3 1 2 4
M  V30 4 2 3 5
M  V30 5 1 3 6
M  V30 6 1 4 7
M  V30 7 1 4 8
M  V30 8 1 4 9
M  V30 9 1 5 10
M  V30 10 2 6 11
M  V30 11 1 7 12
M  V30 12 1 7 13
M  V30 13 1 8 14
M  V30 14 1 9 15
M  V30 15 2 10 16
M  V30 16 2 14 17
M  V30 17 1 14 18
M  V30 18 1 16 19
M  V30 19 1 17 20
M  V30 20 2 18 21
M  V30 21 1 19 22
M  V30 22 1 19 23
M  V30 23 2 20 24
M  V30 24 1 22 25
M  V30 25 1 23 26
M  V30 26 1 25 27
M  V30 27 1 11 16
M  V30 28 1 21 24
M  V30 29 1 26 27
M  V30 30 1 5 28
M  V30 31 1 6 29
M  V30 32 1 7 30
M  V30 33 1 8 31
M  V30 34 1 8 32
M  V30 35 1 9 33
M  V30 36 1 9 34
M  V30 37 1 10 35
M  V30 38 1 11 36
M  V30 39 1 12 37
M  V30 40 1 12 38
M  V30 41 1 12 39
M  V30 42 1 13 40
M  V30 43 1 13 41
M  V30 44 1 13 42
M  V30 45 1 15 43
M  V30 46 1 15 44
M  V30 47 1 15 45
M  V30 48 1 17 46
M  V30 49 1 18 47
M  V30 50 1 20 48
M  V30 51 1 21 49
M  V30 52 1 22 50
M  V30 53 1 22 51
M  V30 54 1 23 52
M  V30 55 1 23 53
M  V30 56 1 24 54
M  V30 57 1 25 55
M  V30 58 1 25 56
M  V30 59 1 26 57
M  V30 60 1 26 58
M  V30 END BOND
M  V30 BEGIN COLLECTION
M  V30 MDLV30/STEABS ATOMS=(1 4)
M  V30 END COLLECTION
M  V30 END CTAB
M  END
>  <Structure No>
33

>  <LogS>
-4.793227892

>  <MMFF94 Energy>
191.12

$$$$
Compound 34
Actelion Java MolfileCreator 2.0

  0  0  0  0  0  0              0 V3000
M  V30 BEGIN CTAB
M  V30 COUNTS 40 40 0 0 0
M  V30 BEGIN ATOM
M  V30 1 O 6.9032 0.8608 -0.626 0
M  V30 2 C 5.726 0.2385 -0.2171 0
M  V30 3 C 5.2283 0.4312 1.0787 0
M  V30 4 C 5.0341 -0.5856 -1.1106 0
M  V30 5 C 4.0454 -0.1982 1.4775 0
M  V30 6 C 3.8511 -1.2165 -0.714 0
M  V30 7 C 3.35 -1.0305 0.5851 0
M  V30 8 C 2.0622 -1.6896 1.0099 0
M  V30 9 C 0.8793 -0.71 0.9966 0
M  V30 10 C 0.4935 -0.2819 -0.4297 0
M  V30 11 C -0.6628 0.7303 -0.4506 0
M  V30 12 C -2.0151 0.0953 -0.0911 0
M  V30 13 C -3.1607 1.1036 -0.2756 0
M  V30 14 C -4.5186 0.5677 0.2322 0
M  V30 15 C -5.5554 1.6984 0.2508 0
M  V30 16 C -5.0339 -0.5969 -0.6269 0
M  V30 17 H 7.4271 1.4641 -0.0027 0
M  V30 18 H 5.7559 1.0693 1.7762 0
M  V30 19 H 5.4124 -0.7352 -2.1137 0
M  V30 20 H 3.6696 -0.0366 2.4804 0
M  V30 21 H 3.3236 -1.8452 -1.4207 0
M  V30 22 H 1.8339 -2.5629 0.3601 0
M  V30 23 H 2.1854 -2.0855 2.0417 0
M  V30 24 H 0.0166 -1.2195 1.4748 0
M  V30 25 H 1.1267 0.1851 1.6083 0
M  V30 26 H 1.3701 0.2011 -0.9122 0
M  V30 27 H 0.2255 -1.1749 -1.0356 0
M  V30 28 H -0.7287 1.153 -1.4773 0
M  V30 29 H -0.4406 1.5696 0.2445 0
M  V30 30 H -1.9994 -0.243 0.9663 0
M  V30 31 H -2.1839 -0.7846 -0.7471 0
M  V30 32 H -3.243 1.3818 -1.3497 0
M  V30 33 H -2.9064 2.0258 0.293 0
M  V30 34 H -4.3971 0.206 1.2775 0
M  V30 35 H -5.7163 2.0993 -0.7731 0
M  V30 36 H -6.5245 1.3266 0.6472 0
M  V30 37 H -5.2125 2.5246 0.9098 0
M  V30 38 H -5.0916 -0.3009 -1.6963 0
M  V30 39 H -6.0457 -0.9063 -0.2879 0
M  V30 40 H -4.3703 -1.4802 -0.5289 0
M  V30 END ATOM
M  V30 BEGIN BOND
M  V30 1 1 1 2
M  V30 2 2 2 3
M  V30 3 1 2 4
M  V30 4 1 3 5
M  V30 5 2 4 6
M  V30 6 2 5 7
M  V30 7 1 7 8
M  V30 8 1 8 9
M  V30 9 1 9 10
M  V30 10 1 10 11
M  V30 11 1 11 12
M  V30 12 1 12 13
M  V30 13 1 13 14
M  V30 14 1 14 15
M  V30 15 1 14 16
M  V30 16 1 6 7
M  V30 17 1 1 17
M  V30 18 1 3 18
M  V30 19 1 4 19
M  V30 20 1 5 20
M  V30 21 1 6 21
M  V30 22 1 8 22
M  V30 23 1 8 23
M  V30 24 1 9 24
M  V30 25 1 9 25
M  V30 26 1 10 26
M  V30 27 1 10 27
M  V30 28 1 11 28
M  V30 29 1 11 29
M  V30 30 1 12 30
M  V30 31 1 12 31
M  V30 32 1 13 32
M  V30 33 1 13 33
M  V30 34 1 14 34
M  V30 35 1 15 35
M  V30 36 1 15 36
M  V30 37 1 15 37
M  V30 38 1 16 38
M  V30 39 1 16 39
M  V30 40 1 16 40
M  V30 END BOND
M  V30 END CTAB
M  END
>  <Structure No>
34

>  <LogS>
-4.587250025

>  <MMFF94 Energy>
12.314

$$$$
Compound 35
Actelion Java MolfileCreator 2.0

  0  0  0  0  0  0              0 V3000
M  V30 BEGIN CTAB
M  V30 COUNTS 26 26 0 0 0
M  V30 BEGIN ATOM
M  V30 1 C -1.247 -0.3116 0.1558 0
M  V30 2 C -2.5595 0.3318 -0.1236 0
M  V30 3 C -0.0499 0.3289 -0.2141 0
M  V30 4 C -1.1793 -1.5584 0.8031 0
M  V30 5 C -3.6053 -0.3952 -0.5346 0
M  V30 6 C -2.6975 1.828 -0.0406 0
M  V30 7 C 1.2003 -0.2629 0.0511 0
M  V30 8 C 0.0555 -2.154 1.0631 0
M  V30 9 C 2.4643 0.412 -0.3501 0
M  V30 10 C 1.2379 -1.5148 0.6882 0
M  V30 11 C 2.6079 1.7354 -0.2101 0
M  V30 12 C 3.6356 -0.4038 -0.8258 0
M  V30 13 H -0.0922 1.2748 -0.7395 0
M  V30 14 H -2.0803 -2.0656 1.1238 0
M  V30 15 H -4.5515 0.0761 -0.7712 0
M  V30 16 H -3.5318 -1.4669 -0.6663 0
M  V30 17 H -1.9817 2.2429 0.7002 0
M  V30 18 H -3.7212 2.1154 0.2827 0
M  V30 19 H -2.4924 2.2765 -1.0352 0
M  V30 20 H 0.0966 -3.1124 1.5643 0
M  V30 21 H 2.183 -1.9927 0.9128 0
M  V30 22 H 1.8114 2.3516 0.1871 0
M  V30 23 H 3.5392 2.2239 -0.4687 0
M  V30 24 H 4.28 -0.669 0.0383 0
M  V30 25 H 3.2844 -1.3354 -1.3177 0
M  V30 26 H 4.2387 0.1619 -1.5682 0
M  V30 END ATOM
M  V30 BEGIN BOND
M  V30 1 1 1 2
M  V30 2 2 1 3
M  V30 3 1 1 4
M  V30 4 2 2 5
M  V30 5 1 2 6
M  V30 6 1 3 7
M  V30 7 2 4 8
M  V30 8 1 7 9
M  V30 9 2 7 10
M  V30 10 2 9 11
M  V30 11 1 9 12
M  V30 12 1 8 10
M  V30 13 1 3 13
M  V30 14 1 4 14
M  V30 15 1 5 15
M  V30 16 1 5 16
M  V30 17 1 6 17
M  V30 18 1 6 18
M  V30 19 1 6 19
M  V30 20 1 8 20
M  V30 21 1 10 21
M  V30 22 1 11 22
M  V30 23 1 11 23
M  V30 24 1 12 24
M  V30 25 1 12 25
M  V30 26 1 12 26
M  V30 END BOND
M  V30 END CTAB
M  END
>  <Structure No>
35

>  <LogS>
-4.451139225

>  <MMFF94 Energy>
35.66

$$$$
Compound 36
Actelion Java MolfileCreator 2.0

  0  0  0  0  0  0              0 V3000
M  V30 BEGIN CTAB
M  V30 COUNTS 36 35 0 0 0
M  V30 BEGIN ATOM
M  V30 1 O 4.133 1.7919 0.5451 0
M  V30 2 C 3.6409 0.833 1.1999 0
M  V30 3 O 4.2488 -0.4297 1.201 0
M  V30 4 C 2.3988 1.0493 2.0079 0
M  V30 5 C 5.19 -0.8787 0.2629 0
M  V30 6 C 1.143 1.0537 1.1262 0
M  V30 7 C 5.2185 -0.4566 -1.0012 0
M  V30 8 C 0.8407 -0.3367 0.54 0
M  V30 9 C -0.3609 -0.3287 -0.4193 0
M  V30 10 C -1.705 -0.1452 0.3172 0
M  V30 11 C -2.975 -0.2798 -0.5765 0
M  V30 12 C -3.0992 -1.704 -1.1596 0
M  V30 13 C -4.2132 -0.0057 0.3037 0
M  V30 14 C -2.9563 0.7484 -1.7272 0
M  V30 15 H 2.4773 2.027 2.5308 0
M  V30 16 H 2.3133 0.2604 2.7863 0
M  V30 17 H 5.8981 -1.6364 0.5717 0
M  V30 18 H 0.2906 1.3817 1.7572 0
M  V30 19 H 1.2659 1.7954 0.3062 0
M  V30 20 H 4.4912 0.2463 -1.3826 0
M  V30 21 H 5.9597 -0.8515 -1.6835 0
M  V30 22 H 0.6638 -1.0644 1.3621 0
M  V30 23 H 1.7256 -0.6885 -0.0331 0
M  V30 24 H -0.2181 0.475 -1.1722 0
M  V30 25 H -0.3588 -1.3005 -0.9533 0
M  V30 26 H -1.7142 0.8611 0.7881 0
M  V30 27 H -1.764 -0.8913 1.1408 0
M  V30 28 H -2.3084 -1.9058 -1.9112 0
M  V30 29 H -3.0267 -2.4655 -0.3534 0
M  V30 30 H -4.0774 -1.832 -1.6718 0
M  V30 31 H -4.267 -0.7331 1.1426 0
M  V30 32 H -4.1719 1.0188 0.733 0
M  V30 33 H -5.1495 -0.0925 -0.2892 0
M  V30 34 H -2.1503 0.5212 -2.456 0
M  V30 35 H -2.7986 1.7751 -1.3321 0
M  V30 36 H -3.9194 0.7317 -2.2818 0
M  V30 END ATOM
M  V30 BEGIN BOND
M  V30 1 2 1 2
M  V30 2 1 2 3
M  V30 3 1 2 4
M  V30 4 1 3 5
M  V30 5 1 4 6
M  V30 6 2 5 7
M  V30 7 1 6 8
M  V30 8 1 8 9
M  V30 9 1 9 10
M  V30 10 1 10 11
M  V30 11 1 11 12
M  V30 12 1 11 13
M  V30 13 1 11 14
M  V30 14 1 4 15
M  V30 15 1 4 16
M  V30 16 1 5 17
M  V30 17 1 6 18
M  V30 18 1 6 19
M  V30 19 1 7 20
M  V30 20 1 7 21
M  V30 21 1 8 22
M  V30 22 1 8 23
M  V30 23 1 9 24
M  V30 24 1 9 25
M  V30 25 1 10 26
M  V30 26 1 10 27
M  V30 27 1 12 28
M  V30 28 1 12 29
M  V30 29 1 12 30
M  V30 30 1 13 31
M  V30 31 1 13 32
M  V30 32 1 13 33
M  V30 33 1 14 34
M  V30 34 1 14 35
M  V30 35 1 14 36
M  V30 END BOND
M  V30 END CTAB
M  END
>  <Structure No>
36

>  <LogS>
-4.581332511

>  <MMFF94 Energy>
28.244

$$$$
Compound 37
Actelion Java MolfileCreator 2.0

  0  0  0  0  0  0              0 V3000
M  V30 BEGIN CTAB
M  V30 COUNTS 27 27 0 0 0
M  V30 BEGIN ATOM
M  V30 1 C -0.1563 0.0781 0.0 0
M  V30 2 C 0.5208 0.3926 -1.2024 0
M  V30 3 C 0.6157 -0.4055 1.0802 0
M  V30 4 C -1.6824 0.235 0.1644 0
M  V30 5 C 1.9057 0.2357 -1.3098 0
M  V30 6 C 1.9995 -0.5604 0.9679 0
M  V30 7 C -2.3767 0.7827 -1.1059 0
M  V30 8 C -1.9781 1.2166 1.3194 0
M  V30 9 C -2.3092 -1.1389 0.4862 0
M  V30 10 C 2.6549 -0.2257 -0.2217 0
M  V30 11 C 4.1352 -0.43 -0.354 0
M  V30 12 H -8.0E-4 0.7583 -2.0739 0
M  V30 13 H 0.1507 -0.6705 2.02 0
M  V30 14 H 2.3942 0.4765 -2.246 0
M  V30 15 H 2.5599 -0.9422 1.8127 0
M  V30 16 H -3.472 0.8855 -0.9433 0
M  V30 17 H -1.9831 1.7881 -1.37 0
M  V30 18 H -2.2318 0.0931 -1.9655 0
M  V30 19 H -1.4966 2.1993 1.124 0
M  V30 20 H -1.6023 0.8312 2.2902 0
M  V30 21 H -3.0725 1.3795 1.4285 0
M  V30 22 H -2.0705 -1.8699 -0.3162 0
M  V30 23 H -3.4151 -1.0585 0.5681 0
M  V30 24 H -1.9336 -1.5435 1.4493 0
M  V30 25 H 4.3343 -1.4579 -0.7226 0
M  V30 26 H 4.639 -0.2928 0.6265 0
M  V30 27 H 4.5696 0.3016 -1.068 0
M  V30 END ATOM
M  V30 BEGIN BOND
M  V30 1 2 1 2
M  V30 2 1 1 3
M  V30 3 1 1 4
M  V30 4 1 2 5
M  V30 5 2 3 6
M  V30 6 1 4 7
M  V30 7 1 4 8
M  V30 8 1 4 9
M  V30 9 2 5 10
M  V30 10 1 10 11
M  V30 11 1 6 10
M  V30 12 1 2 12
M  V30 13 1 3 13
M  V30 14 1 5 14
M  V30 15 1 6 15
M  V30 16 1 7 16
M  V30 17 1 7 17
M  V30 18 1 7 18
M  V30 19 1 8 19
M  V30 20 1 8 20
M  V30 21 1 8 21
M  V30 22 1 9 22
M  V30 23 1 9 23
M  V30 24 1 9 24
M  V30 25 1 11 25
M  V30 26 1 11 26
M  V30 27 1 11 27
M  V30 END BOND
M  V30 END CTAB
M  END
>  <Structure No>
37

>  <LogS>
-4.472021768

>  <MMFF94 Energy>
36.654

$$$$
Compound 38
Actelion Java MolfileCreator 2.0

  0  0  0  0  0  0              0 V3000
M  V30 BEGIN CTAB
M  V30 COUNTS 20 20 0 0 0
M  V30 BEGIN ATOM
M  V30 1 O 3.048 0.5609 0.3205 0
M  V30 2 C 2.3905 0.2474 -0.7076 0
M  V30 3 O 3.0537 0.0684 -1.915 0 CHG=-1
M  V30 4 C 0.9029 0.0398 -0.6306 0
M  V30 5 C 0.5657 -1.2483 0.1611 0
M  V30 6 C 0.2027 1.2683 -0.0231 0
M  V30 7 C -0.8398 -1.2249 0.7978 0
M  V30 8 C -1.3329 1.1202 -0.0555 0
M  V30 9 C -1.8121 -0.3444 0.0062 0
M  V30 10 H 0.5236 -0.0812 -1.6706 0
M  V30 11 H 0.6394 -2.1167 -0.5297 0
M  V30 12 H 1.3062 -1.4148 0.9747 0
M  V30 13 H 0.5334 1.3957 1.0319 0
M  V30 14 H 0.4915 2.1868 -0.5802 0
M  V30 15 H -1.2388 -2.2607 0.8555 0
M  V30 16 H -0.7694 -0.8349 1.8374 0
M  V30 17 H -1.7282 1.5825 -0.9862 0
M  V30 18 H -1.7629 1.6847 0.8005 0
M  V30 19 H -1.9062 -0.749 -1.0256 0
M  V30 20 H -2.8188 -0.3857 0.4754 0
M  V30 END ATOM
M  V30 BEGIN BOND
M  V30 1 2 1 2
M  V30 2 1 2 3
M  V30 3 1 2 4
M  V30 4 1 4 5
M  V30 5 1 4 6
M  V30 6 1 5 7
M  V30 7 1 6 8
M  V30 8 1 7 9
M  V30 9 1 8 9
M  V30 10 1 4 10
M  V30 11 1 5 11
M  V30 12 1 5 12
M  V30 13 1 6 13
M  V30 14 1 6 14
M  V30 15 1 7 15
M  V30 16 1 7 16
M  V30 17 1 8 17
M  V30 18 1 8 18
M  V30 19 1 9 19
M  V30 20 1 9 20
M  V30 END BOND
M  V30 END CTAB
M  END
>  <Structure No>
38

>  <LogS>
-1.445031941

>  <MMFF94 Energy>
8.6116

$$$$
Compound 39
Actelion Java MolfileCreator 2.0

  0  0  0  0  0  0              0 V3000
M  V30 BEGIN CTAB
M  V30 COUNTS 83 88 0 0 0
M  V30 BEGIN ATOM
M  V30 1 Cl 2.9712 2.2715 2.7962 0
M  V30 2 C 2.7134 0.8217 1.853 0
M  V30 3 N 1.5767 0.1001 2.0148 0
M  V30 4 N 3.6514 0.4188 0.9613 0
M  V30 5 C 1.3723 -1.0259 1.2843 0
M  V30 6 C 3.4639 -0.7148 0.2357 0
M  V30 7 N 2.314 -1.4233 0.3876 0
M  V30 8 N 0.1518 -1.7619 1.4452 0
M  V30 9 N 4.4445 -1.154 -0.7172 0
M  V30 10 C -0.1862 -2.908 0.6468 0
M  V30 11 C 5.7864 -0.6392 -0.8066 0
M  V30 12 C -1.4385 -2.9927 -0.0101 0
M  V30 13 C 0.7044 -3.9897 0.579 0
M  V30 14 C 6.4896 -0.2134 0.3366 0
M  V30 15 C 6.4338 -0.6167 -2.0526 0
M  V30 16 C -2.4094 -1.8725 -0.0243 0
M  V30 17 C -1.7751 -4.1672 -0.7186 0
M  V30 18 C 0.3713 -5.1463 -0.1322 0
M  V30 19 C 7.7989 0.272 0.2274 0
M  V30 20 C 7.7421 -0.1363 -2.162 0
M  V30 21 O -2.0308 -0.6922 0.2005 0
M  V30 22 C -3.7988 -2.1436 -0.4628 0
M  V30 23 C -3.0808 -4.2819 -1.4151 0
M  V30 24 C -0.8638 -5.2312 -0.7812 0
M  V30 25 S 1.5051 -6.4926 -0.2139 0
M  V30 26 S 8.641 0.8661 1.6566 0
M  V30 27 C 8.4212 0.3114 -1.0269 0
M  V30 28 N -4.808 -1.3848 -0.1338 0
M  V30 29 C -4.0293 -3.3381 -1.3098 0
M  V30 30 O 0.751 -7.792 -0.2811 0
M  V30 31 O 2.3771 -6.5034 1.0105 0
M  V30 32 O 2.467 -6.3293 -1.5815 0 CHG=-1
M  V30 33 O 8.1788 0.0993 2.8642 0
M  V30 34 O 10.1218 0.6576 1.4989 0
M  V30 35 C 8.2833 2.6035 1.8971 0
M  V30 36 N -4.7496 -0.3411 0.8079 0
M  V30 37 S -5.5768 -3.5672 -2.1329 0
M  V30 38 C 8.7475 3.4521 0.7129 0
M  V30 39 C -5.6407 0.7763 0.719 0
M  V30 40 O -5.406 -4.4783 -3.3146 0
M  V30 41 O -6.1 -2.2446 -2.6208 0
M  V30 42 O -6.6792 -4.2476 -1.0633 0 CHG=-1
M  V30 43 O 10.1498 3.3896 0.6105 0
M  V30 44 C -7.044 0.6276 0.5818 0
M  V30 45 C -5.0776 2.0513 0.7625 0
M  V30 46 S 10.6223 4.2065 -0.7954 0
M  V30 47 S -7.8157 -0.9554 0.8802 0
M  V30 48 C -7.837 1.7851 0.3198 0
M  V30 49 C -5.8616 3.1868 0.6121 0
M  V30 50 O 10.1912 5.6461 -0.7315 0
M  V30 51 O 12.1203 4.151 -0.9069 0
M  V30 52 O 9.9501 3.473 -2.1493 0 CHG=-1
M  V30 53 O -9.0294 -0.7669 1.7471 0
M  V30 54 O -6.891 -1.8944 1.6024 0
M  V30 55 O -8.2721 -1.6403 -0.5814 0 CHG=-1
M  V30 56 C -7.2414 3.0827 0.3659 0
M  V30 57 C -9.2078 1.6841 -0.0034 0
M  V30 58 C -8.0448 4.2386 0.1596 0
M  V30 59 C -9.9772 2.8234 -0.2208 0
M  V30 60 S -7.3938 5.8847 0.2533 0
M  V30 61 C -9.4065 4.0872 -0.1285 0
M  V30 62 O -6.341 6.0767 -0.8019 0
M  V30 63 O -6.7973 6.1135 1.6139 0
M  V30 64 O -8.6135 7.0163 0.0056 0 CHG=-1
M  V30 65 H -0.56 -1.3927 2.1137 0
M  V30 66 H 4.1404 -1.8567 -1.4309 0
M  V30 67 H 1.652 -3.9351 1.0993 0
M  V30 68 H 6.0333 -0.2761 1.3139 0
M  V30 69 H 5.9193 -0.9637 -2.9394 0
M  V30 70 H 8.2301 -0.1046 -3.1281 0
M  V30 71 H -3.2759 -5.1707 -2.0037 0
M  V30 72 H -1.1156 -6.1271 -1.3364 0
M  V30 73 H 9.4294 0.6898 -1.1255 0
M  V30 74 H 7.1856 2.7226 2.0227 0
M  V30 75 H 8.7838 2.9516 2.827 0
M  V30 76 H -3.9764 -0.2958 1.5074 0
M  V30 77 H 8.4265 4.5026 0.8936 0
M  V30 78 H 8.2522 3.0787 -0.211 0
M  V30 79 H -4.0084 2.1649 0.896 0
M  V30 80 H -5.359 4.1411 0.6564 0
M  V30 81 H -9.6964 0.7286 -0.1307 0
M  V30 82 H -11.026 2.726 -0.4686 0
M  V30 83 H -10.0363 4.9516 -0.2937 0
M  V30 END ATOM
M  V30 BEGIN BOND
M  V30 1 1 1 2
M  V30 2 2 2 3
M  V30 3 1 2 4
M  V30 4 1 3 5
M  V30 5 2 4 6
M  V30 6 2 5 7
M  V30 7 1 5 8
M  V30 8 1 6 9
M  V30 9 1 8 10
M  V30 10 1 9 11
M  V30 11 2 10 12
M  V30 12 1 10 13
M  V30 13 2 11 14
M  V30 14 1 11 15
M  V30 15 1 12 16
M  V30 16 1 12 17
M  V30 17 2 13 18
M  V30 18 1 14 19
M  V30 19 2 15 20
M  V30 20 2 16 21
M  V30 21 1 16 22
M  V30 22 1 17 23
M  V30 23 2 17 24
M  V30 24 1 18 25
M  V30 25 1 19 26
M  V30 26 2 19 27
M  V30 27 2 22 28
M  V30 28 1 22 29
M  V30 29 2 25 30
M  V30 30 2 25 31
M  V30 31 1 25 32
M  V30 32 2 26 33
M  V30 33 2 26 34
M  V30 34 1 26 35
M  V30 35 1 28 36
M  V30 36 1 29 37
M  V30 37 1 35 38
M  V30 38 1 36 39
M  V30 39 2 37 40
M  V30 40 2 37 41
M  V30 41 1 37 42
M  V30 42 1 38 43
M  V30 43 2 39 44
M  V30 44 1 39 45
M  V30 45 1 43 46
M  V30 46 1 44 47
M  V30 47 1 44 48
M  V30 48 2 45 49
M  V30 49 2 46 50
M  V30 50 2 46 51
M  V30 51 1 46 52
M  V30 52 2 47 53
M  V30 53 2 47 54
M  V30 54 1 47 55
M  V30 55 1 48 56
M  V30 56 2 48 57
M  V30 57 2 56 58
M  V30 58 1 57 59
M  V30 59 1 58 60
M  V30 60 1 58 61
M  V30 61 2 60 62
M  V30 62 2 60 63
M  V30 63 1 60 64
M  V30 64 1 6 7
M  V30 65 1 18 24
M  V30 66 1 20 27
M  V30 67 2 23 29
M  V30 68 1 49 56
M  V30 69 2 59 61
M  V30 70 1 8 65
M  V30 71 1 9 66
M  V30 72 1 13 67
M  V30 73 1 14 68
M  V30 74 1 15 69
M  V30 75 1 20 70
M  V30 76 1 23 71
M  V30 77 1 24 72
M  V30 78 1 27 73
M  V30 79 1 35 74
M  V30 80 1 35 75
M  V30 81 1 36 76
M  V30 82 1 38 77
M  V30 83 1 38 78
M  V30 84 1 45 79
M  V30 85 1 49 80
M  V30 86 1 57 81
M  V30 87 1 59 82
M  V30 88 1 61 83
M  V30 END BOND
M  V30 END CTAB
M  END
>  <Structure No>
39

>  <LogS>
-0.410897736

>  <MMFF94 Energy>
209.84

$$$$
Compound 40
Actelion Java MolfileCreator 2.0

  0  0  0  0  0  0              0 V3000
M  V30 BEGIN CTAB
M  V30 COUNTS 56 57 0 0 0
M  V30 BEGIN ATOM
M  V30 1 N -4.4708 0.2349 1.175 0 CHG=1
M  V30 2 C -5.3556 0.1251 0.2226 0
M  V30 3 C -3.0587 -0.1439 1.0716 0
M  V30 4 C -5.043 -0.3947 -1.1306 0
M  V30 5 C -2.25 0.972 0.3914 0
M  V30 6 C -5.9698 -0.6436 -2.068 0
M  V30 7 C -0.793 0.5603 0.1285 0
M  V30 8 C -7.4311 -0.5713 -1.8574 0
M  V30 9 C 0.065 0.5936 1.4021 0
M  V30 10 C -8.0468 -1.236 -0.7815 0
M  V30 11 C -8.229 0.1051 -2.795 0
M  V30 12 C 1.5147 0.1961 1.0969 0
M  V30 13 C -9.4354 -1.1861 -0.6256 0
M  V30 14 C -9.6173 0.1571 -2.6345 0
M  V30 15 C 2.4013 0.3445 2.3414 0
M  V30 16 C -10.2198 -0.4862 -1.5497 0
M  V30 17 N 3.7528 -0.154 2.0835 0 CHG=1
M  V30 18 C 4.5734 0.4606 1.2805 0
M  V30 19 C 5.9369 -0.0498 1.0592 0
M  V30 20 C 6.771 0.5708 0.2158 0
M  V30 21 C 8.1577 0.1167 -0.0547 0
M  V30 22 C 8.7804 0.5287 -1.247 0
M  V30 23 C 8.8884 -0.6749 0.8584 0
M  V30 24 C 10.0936 0.1409 -1.534 0
M  V30 25 C 10.2021 -1.0592 0.5673 0
M  V30 26 C 10.8027 -0.6529 -0.6292 0
M  V30 27 H -4.7981 0.5915 2.1045 0
M  V30 28 H -6.3672 0.4448 0.4359 0
M  V30 29 H -2.6624 -0.3015 2.0979 0
M  V30 30 H -2.9527 -1.1122 0.5346 0
M  V30 31 H -4.0108 -0.5292 -1.4217 0
M  V30 32 H -2.2819 1.8905 1.0195 0
M  V30 33 H -2.7181 1.2273 -0.5829 0
M  V30 34 H -5.6263 -0.8865 -3.0656 0
M  V30 35 H -0.3612 1.2727 -0.6079 0
M  V30 36 H -0.7609 -0.4536 -0.3278 0
M  V30 37 H 0.0456 1.6215 1.8282 0
M  V30 38 H -0.3477 -0.1099 2.1568 0
M  V30 39 H -7.4557 -1.8022 -0.0741 0
M  V30 40 H -7.7755 0.6017 -3.6447 0
M  V30 41 H 1.9103 0.844 0.2831 0
M  V30 42 H 1.5421 -0.8618 0.7503 0
M  V30 43 H -9.9047 -1.695 0.2059 0
M  V30 44 H -10.227 0.6934 -3.3536 0
M  V30 45 H 1.9577 -0.2402 3.1783 0
M  V30 46 H 2.4477 1.4118 2.6575 0
M  V30 47 H -11.2942 -0.4472 -1.4268 0
M  V30 48 H 4.0638 -1.0144 2.592 0
M  V30 49 H 4.2572 1.3625 0.766 0
M  V30 50 H 6.2422 -0.9473 1.5834 0
M  V30 51 H 6.4076 1.4318 -0.3367 0
M  V30 52 H 8.2468 1.1475 -1.9612 0
M  V30 53 H 8.4642 -0.98 1.8074 0
M  V30 54 H 10.5623 0.4603 -2.4582 0
M  V30 55 H 10.7581 -1.6617 1.2731 0
M  V30 56 H 11.8203 -0.9488 -0.8514 0
M  V30 END ATOM
M  V30 BEGIN BOND
M  V30 1 2 1 2
M  V30 2 1 1 3
M  V30 3 1 2 4
M  V30 4 1 3 5
M  V30 5 2 4 6
M  V30 6 1 5 7
M  V30 7 1 6 8
M  V30 8 1 7 9
M  V30 9 2 8 10
M  V30 10 1 8 11
M  V30 11 1 9 12
M  V30 12 1 10 13
M  V30 13 2 11 14
M  V30 14 1 12 15
M  V30 15 2 13 16
M  V30 16 1 15 17
M  V30 17 2 17 18
M  V30 18 1 18 19
M  V30 19 2 19 20
M  V30 20 1 20 21
M  V30 21 2 21 22
M  V30 22 1 21 23
M  V30 23 1 22 24
M  V30 24 2 23 25
M  V30 25 2 24 26
M  V30 26 1 14 16
M  V30 27 1 25 26
M  V30 28 1 1 27
M  V30 29 1 2 28
M  V30 30 1 3 29
M  V30 31 1 3 30
M  V30 32 1 4 31
M  V30 33 1 5 32
M  V30 34 1 5 33
M  V30 35 1 6 34
M  V30 36 1 7 35
M  V30 37 1 7 36
M  V30 38 1 9 37
M  V30 39 1 9 38
M  V30 40 1 10 39
M  V30 41 1 11 40
M  V30 42 1 12 41
M  V30 43 1 12 42
M  V30 44 1 13 43
M  V30 45 1 14 44
M  V30 46 1 15 45
M  V30 47 1 15 46
M  V30 48 1 16 47
M  V30 49 1 17 48
M  V30 50 1 18 49
M  V30 51 1 19 50
M  V30 52 1 20 51
M  V30 53 1 22 52
M  V30 54 1 23 53
M  V30 55 1 24 54
M  V30 56 1 25 55
M  V30 57 1 26 56
M  V30 END BOND
M  V30 END CTAB
M  END
>  <Structure No>
40

>  <LogS>
-3.893739071

>  <MMFF94 Energy>
112.99

$$$$
Compound 41
Actelion Java MolfileCreator 2.0

  0  0  0  0  0  0              0 V3000
M  V30 BEGIN CTAB
M  V30 COUNTS 99 104 0 0 0
M  V30 BEGIN ATOM
M  V30 1 O -1.6784 3.8396 1.1187 0
M  V30 2 C -2.1249 2.5158 1.1269 0
M  V30 3 C -3.4076 2.1833 0.654 0
M  V30 4 C -1.2632 1.4989 1.5762 0
M  V30 5 N -4.3028 3.1991 0.193 0
M  V30 6 C -3.8127 0.844 0.6173 0
M  V30 7 C -1.6941 0.1607 1.5552 0
M  V30 8 C 0.141 1.8121 2.0452 0
M  V30 9 N -4.7381 3.2744 -1.0647 0
M  V30 10 N -4.7344 4.1986 0.9617 0
M  V30 11 C -2.9877 -0.1922 1.107 0
M  V30 12 C 1.1683 1.1709 1.1408 0
M  V30 13 C -5.491 4.3842 -1.0943 0
M  V30 14 C -5.4914 4.9485 0.1441 0
M  V30 15 C -3.4728 -1.6647 1.0327 0
M  V30 16 C 1.3258 1.6062 -0.1858 0
M  V30 17 C 1.9852 0.1431 1.6423 0
M  V30 18 C -6.1573 4.9591 -2.1738 0
M  V30 19 C -6.161 6.1386 0.4182 0
M  V30 20 C -3.4084 -2.074 -0.4832 0
M  V30 21 C -2.5992 -2.5841 1.921 0
M  V30 22 C -4.9253 -1.7259 1.587 0
M  V30 23 O 0.5565 2.6854 -0.6343 0
M  V30 24 C 2.2769 0.9759 -1.0178 0
M  V30 25 C 2.9635 -0.4826 0.8445 0
M  V30 26 C -6.8476 6.1643 -1.9385 0
M  V30 27 C -6.8504 6.7521 -0.649 0
M  V30 28 C -3.6197 -3.5495 -0.9894 0
M  V30 29 N 2.4047 1.315 -2.4074 0
M  V30 30 C 3.1103 -0.0194 -0.4828 0
M  V30 31 C 3.9429 -1.5217 1.4581 0
M  V30 32 C -4.8479 -4.2396 -0.3665 0
M  V30 33 C -2.3628 -4.4204 -0.7567 0
M  V30 34 C -3.853 -3.4795 -2.519 0
M  V30 35 N 1.3682 1.5311 -3.216 0
M  V30 36 N 3.576 1.3593 -3.0438 0
M  V30 37 C 5.1213 -0.6942 2.0956 0
M  V30 38 C 3.1989 -2.3996 2.4972 0
M  V30 39 C 4.463 -2.4761 0.344 0
M  V30 40 C 1.9125 1.7456 -4.4226 0
M  V30 41 C 3.2636 1.6407 -4.3176 0
M  V30 42 C 6.1879 -1.325 3.0694 0
M  V30 43 C 1.2824 2.0273 -5.633 0
M  V30 44 C 4.1108 1.8047 -5.4112 0
M  V30 45 C 6.8056 -2.6311 2.5321 0
M  V30 46 C 7.3355 -0.2911 3.2188 0
M  V30 47 C 5.6106 -1.5734 4.4836 0
M  V30 48 C 2.1039 2.2039 -6.7663 0
M  V30 49 C 3.5113 2.0902 -6.6556 0
M  V30 50 H -2.2144 4.599 0.7171 0
M  V30 51 H -4.7892 0.6223 0.21 0
M  V30 52 H -0.9912 -0.5932 1.8807 0
M  V30 53 H 0.2466 1.4502 3.0926 0
M  V30 54 H 0.3358 2.9059 2.0826 0
M  V30 55 H 1.8623 -0.1397 2.6759 0
M  V30 56 H -6.136 4.5047 -3.1561 0
M  V30 57 H -6.135 6.5909 1.4048 0
M  V30 58 H -2.4236 -1.7377 -0.8763 0
M  V30 59 H -4.1432 -1.4299 -1.0123 0
M  V30 60 H -2.4881 -2.1479 2.9358 0
M  V30 61 H -3.059 -3.5811 2.0616 0
M  V30 62 H -1.5919 -2.7274 1.4807 0
M  V30 63 H -5.6709 -1.3802 0.8424 0
M  V30 64 H -5.2232 -2.7425 1.9008 0
M  V30 65 H -5.0214 -1.0931 2.4957 0
M  V30 66 H 0.712 3.1524 -1.5139 0
M  V30 67 H -7.3722 6.6499 -2.7511 0
M  V30 68 H -7.3804 7.6834 -0.4856 0
M  V30 69 H 3.8565 -0.4457 -1.137 0
M  V30 70 H -5.0821 -5.1806 -0.9067 0
M  V30 71 H -5.7468 -3.5898 -0.4283 0
M  V30 72 H -4.6625 -4.5297 0.685 0
M  V30 73 H -1.4471 -3.9038 -1.1193 0
M  V30 74 H -2.4481 -5.3858 -1.3035 0
M  V30 75 H -2.221 -4.6819 0.3068 0
M  V30 76 H -2.9896 -2.9977 -3.024 0
M  V30 77 H -4.769 -2.8938 -2.752 0
M  V30 78 H -3.9827 -4.4922 -2.9535 0
M  V30 79 H 4.673 0.1673 2.6361 0
M  V30 80 H 5.6692 -0.2276 1.2469 0
M  V30 81 H 2.2283 -2.7472 2.0762 0
M  V30 82 H 2.9977 -1.8502 3.4398 0
M  V30 83 H 3.7784 -3.3074 2.756 0
M  V30 84 H 5.2468 -1.9933 -0.2769 0
M  V30 85 H 4.8949 -3.4121 0.7478 0
M  V30 86 H 3.6227 -2.7872 -0.3178 0
M  V30 87 H 0.2035 2.1112 -5.7048 0
M  V30 88 H 5.185 1.7205 -5.3091 0
M  V30 89 H 6.101 -3.4815 2.6181 0
M  V30 90 H 7.126 -2.5105 1.4753 0
M  V30 91 H 7.7021 -2.9065 3.1299 0
M  V30 92 H 7.8258 -0.1013 2.2378 0
M  V30 93 H 6.9449 0.673 3.6074 0
M  V30 94 H 8.1182 -0.653 3.9219 0
M  V30 95 H 5.0325 -0.6934 4.8299 0
M  V30 96 H 6.4283 -1.7531 5.2138 0
M  V30 97 H 4.9651 -2.4669 4.5275 0
M  V30 98 H 1.6558 2.4336 -7.728 0
M  V30 99 H 4.1313 2.2294 -7.5341 0
M  V30 END ATOM
M  V30 BEGIN BOND
M  V30 1 1 1 2
M  V30 2 2 2 3
M  V30 3 1 2 4
M  V30 4 1 3 5
M  V30 5 1 3 6
M  V30 6 2 4 7
M  V30 7 1 4 8
M  V30 8 1 5 9
M  V30 9 1 5 10
M  V30 10 2 6 11
M  V30 11 1 8 12
M  V30 12 2 9 13
M  V30 13 2 10 14
M  V30 14 1 11 15
M  V30 15 2 12 16
M  V30 16 1 12 17
M  V30 17 1 13 18
M  V30 18 1 14 19
M  V30 19 1 15 20
M  V30 20 1 15 21
M  V30 21 1 15 22
M  V30 22 1 16 23
M  V30 23 1 16 24
M  V30 24 2 17 25
M  V30 25 2 18 26
M  V30 26 2 19 27
M  V30 27 1 20 28
M  V30 28 1 24 29
M  V30 29 2 24 30
M  V30 30 1 25 31
M  V30 31 1 28 32
M  V30 32 1 28 33
M  V30 33 1 28 34
M  V30 34 1 29 35
M  V30 35 1 29 36
M  V30 36 1 31 37
M  V30 37 1 31 38
M  V30 38 1 31 39
M  V30 39 2 35 40
M  V30 40 2 36 41
M  V30 41 1 37 42
M  V30 42 1 40 43
M  V30 43 1 41 44
M  V30 44 1 42 45
M  V30 45 1 42 46
M  V30 46 1 42 47
M  V30 47 2 43 48
M  V30 48 2 44 49
M  V30 49 1 7 11
M  V30 50 1 13 14
M  V30 51 1 25 30
M  V30 52 1 26 27
M  V30 53 1 40 41
M  V30 54 1 48 49
M  V30 55 1 1 50
M  V30 56 1 6 51
M  V30 57 1 7 52
M  V30 58 1 8 53
M  V30 59 1 8 54
M  V30 60 1 17 55
M  V30 61 1 18 56
M  V30 62 1 19 57
M  V30 63 1 20 58
M  V30 64 1 20 59
M  V30 65 1 21 60
M  V30 66 1 21 61
M  V30 67 1 21 62
M  V30 68 1 22 63
M  V30 69 1 22 64
M  V30 70 1 22 65
M  V30 71 1 23 66
M  V30 72 1 26 67
M  V30 73 1 27 68
M  V30 74 1 30 69
M  V30 75 1 32 70
M  V30 76 1 32 71
M  V30 77 1 32 72
M  V30 78 1 33 73
M  V30 79 1 33 74
M  V30 80 1 33 75
M  V30 81 1 34 76
M  V30 82 1 34 77
M  V30 83 1 34 78
M  V30 84 1 37 79
M  V30 85 1 37 80
M  V30 86 1 38 81
M  V30 87 1 38 82
M  V30 88 1 38 83
M  V30 89 1 39 84
M  V30 90 1 39 85
M  V30 91 1 39 86
M  V30 92 1 43 87
M  V30 93 1 44 88
M  V30 94 1 45 89
M  V30 95 1 45 90
M  V30 96 1 45 91
M  V30 97 1 46 92
M  V30 98 1 46 93
M  V30 99 1 46 94
M  V30 100 1 47 95
M  V30 101 1 47 96
M  V30 102 1 47 97
M  V30 103 1 48 98
M  V30 104 1 49 99
M  V30 END BOND
M  V30 END CTAB
M  END
>  <Structure No>
41

>  <LogS>
-7.973715535

>  <MMFF94 Energy>
191.36

$$$$
Compound 42
Actelion Java MolfileCreator 2.0

  0  0  0  0  0  0              0 V3000
M  V30 BEGIN CTAB
M  V30 COUNTS 52 53 0 0 0
M  V30 BEGIN ATOM
M  V30 1 Cl 5.7671 -2.6401 -0.1598 0
M  V30 2 C 6.1359 -1.128 0.6561 0
M  V30 3 C 5.1529 -0.1343 0.8025 0
M  V30 4 C 7.4275 -0.9165 1.1522 0
M  V30 5 N 3.831 -0.3721 0.2995 0
M  V30 6 C 5.4805 1.0691 1.4538 0
M  V30 7 C 7.7581 0.2837 1.8057 0
M  V30 8 N 2.943 0.5399 0.2612 0
M  V30 9 C 6.7705 1.2722 1.9531 0
M  V30 10 N 9.084 0.4986 2.3218 0 CHG=1
M  V30 11 C 1.6151 0.2843 -0.2098 0
M  V30 12 O 10.013 -0.2854 2.033 0
M  V30 13 O 9.3563 1.5867 3.1229 0 CHG=-1
M  V30 14 C 0.7535 1.3636 -0.4355 0
M  V30 15 C 1.154 -1.0247 -0.4315 0
M  V30 16 C -0.5524 1.1436 -0.8814 0
M  V30 17 C -0.1581 -1.2463 -0.8554 0
M  V30 18 C -1.0266 -0.1629 -1.0763 0
M  V30 19 N -2.3899 -0.3852 -1.4946 0
M  V30 20 C -3.2467 -1.3477 -0.7838 0
M  V30 21 C -2.8529 0.1897 -2.7653 0
M  V30 22 C -3.4253 -1.0067 0.7192 0
M  V30 23 C -2.3431 -0.6376 -3.9375 0
M  V30 24 N -4.339 0.1336 1.0466 0 CHG=1
M  V30 25 C -3.7878 1.4258 0.5725 0
M  V30 26 C -5.6929 -0.0698 0.4769 0
M  V30 27 C -4.4658 0.2069 2.5239 0
M  V30 28 H 8.1694 -1.6944 1.0335 0
M  V30 29 H 4.7393 1.8465 1.5839 0
M  V30 30 H 6.9939 2.203 2.4576 0
M  V30 31 H 1.0962 2.3763 -0.2714 0
M  V30 32 H 1.8023 -1.875 -0.2625 0
M  V30 33 H -1.2026 1.9925 -1.0459 0
M  V30 34 H -0.4885 -2.2622 -1.0229 0
M  V30 35 H -2.7804 -2.3488 -0.8495 0
M  V30 36 H -4.2276 -1.4693 -1.2844 0
M  V30 37 H -3.9632 0.2219 -2.8006 0
M  V30 38 H -2.4983 1.2365 -2.87 0
M  V30 39 H -3.8118 -1.9333 1.2029 0
M  V30 40 H -2.4209 -0.8375 1.169 0
M  V30 41 H -1.2327 -0.6387 -3.949 0
M  V30 42 H -2.7129 -0.2087 -4.8906 0
M  V30 43 H -2.7078 -1.6821 -3.8527 0
M  V30 44 H -2.7434 1.5681 0.9277 0
M  V30 45 H -3.8075 1.4985 -0.532 0
M  V30 46 H -4.3921 2.2807 0.9498 0
M  V30 47 H -6.0788 -1.0858 0.7162 0
M  V30 48 H -5.6985 0.0605 -0.6251 0
M  V30 49 H -6.4139 0.6747 0.8839 0
M  V30 50 H -3.4716 0.3482 3.0035 0
M  V30 51 H -5.1113 1.06 2.8316 0
M  V30 52 H -4.9222 -0.7222 2.9368 0
M  V30 END ATOM
M  V30 BEGIN BOND
M  V30 1 1 1 2
M  V30 2 2 2 3
M  V30 3 1 2 4
M  V30 4 1 3 5
M  V30 5 1 3 6
M  V30 6 2 4 7
M  V30 7 2 5 8
M  V30 8 2 6 9
M  V30 9 1 7 10
M  V30 10 1 8 11
M  V30 11 2 10 12
M  V30 12 1 10 13
M  V30 13 2 11 14
M  V30 14 1 11 15
M  V30 15 1 14 16
M  V30 16 2 15 17
M  V30 17 2 16 18
M  V30 18 1 18 19
M  V30 19 1 19 20
M  V30 20 1 19 21
M  V30 21 1 20 22
M  V30 22 1 21 23
M  V30 23 1 22 24
M  V30 24 1 24 25
M  V30 25 1 24 26
M  V30 26 1 24 27
M  V30 27 1 7 9
M  V30 28 1 17 18
M  V30 29 1 4 28
M  V30 30 1 6 29
M  V30 31 1 9 30
M  V30 32 1 14 31
M  V30 33 1 15 32
M  V30 34 1 16 33
M  V30 35 1 17 34
M  V30 36 1 20 35
M  V30 37 1 20 36
M  V30 38 1 21 37
M  V30 39 1 21 38
M  V30 40 1 22 39
M  V30 41 1 22 40
M  V30 42 1 23 41
M  V30 43 1 23 42
M  V30 44 1 23 43
M  V30 45 1 25 44
M  V30 46 1 25 45
M  V30 47 1 25 46
M  V30 48 1 26 47
M  V30 49 1 26 48
M  V30 50 1 26 49
M  V30 51 1 27 50
M  V30 52 1 27 51
M  V30 53 1 27 52
M  V30 END BOND
M  V30 END CTAB
M  END
>  <Structure No>
42

>  <LogS>
-3.038699623

>  <MMFF94 Energy>
119.34

$$$$
Compound 43
Actelion Java MolfileCreator 2.0

  0  0  0  0  0  0              0 V3000
M  V30 BEGIN CTAB
M  V30 COUNTS 28 30 0 0 0
M  V30 BEGIN ATOM
M  V30 1 S 1.4219 -0.5017 2.0079 0
M  V30 2 C 0.5676 0.6003 1.0494 0
M  V30 3 C 2.8342 -0.2619 1.1331 0
M  V30 4 S -1.1585 0.9952 1.2767 0
M  V30 5 N 1.3317 1.149 0.075 0
M  V30 6 C 2.5977 0.6629 0.1275 0
M  V30 7 C 4.082 -0.8522 1.3161 0
M  V30 8 N -1.6688 -0.3164 0.1886 0
M  V30 9 C 3.6222 1.034 -0.7446 0
M  V30 10 C 5.1202 -0.4863 0.4448 0
M  V30 11 C -2.7209 -1.1177 0.8322 0
M  V30 12 C -2.114 0.2326 -1.1066 0
M  V30 13 C 4.8915 0.4525 -0.581 0
M  V30 14 C -4.0578 -0.3451 0.9459 0
M  V30 15 C -3.6079 0.6127 -1.1092 0
M  V30 16 O -4.0633 0.8601 0.2027 0
M  V30 17 H 4.2477 -1.5725 2.1066 0
M  V30 18 H 3.445 1.7551 -1.5323 0
M  V30 19 H 6.1012 -0.9278 0.5616 0
M  V30 20 H -2.3831 -1.4529 1.8375 0
M  V30 21 H -2.8838 -2.0384 0.2299 0
M  V30 22 H -1.499 1.1177 -1.3834 0
M  V30 23 H -1.9359 -0.5286 -1.8959 0
M  V30 24 H 5.6983 0.7278 -1.2476 0
M  V30 25 H -4.2306 -0.088 2.0124 0
M  V30 26 H -4.9061 -0.9921 0.6292 0
M  V30 27 H -4.2138 -0.1876 -1.5942 0
M  V30 28 H -3.7498 1.5328 -1.7147 0
M  V30 END ATOM
M  V30 BEGIN BOND
M  V30 1 1 1 2
M  V30 2 1 1 3
M  V30 3 1 2 4
M  V30 4 2 2 5
M  V30 5 2 3 6
M  V30 6 1 3 7
M  V30 7 1 4 8
M  V30 8 1 6 9
M  V30 9 2 7 10
M  V30 10 1 8 11
M  V30 11 1 8 12
M  V30 12 2 9 13
M  V30 13 1 11 14
M  V30 14 1 12 15
M  V30 15 1 14 16
M  V30 16 1 5 6
M  V30 17 1 10 13
M  V30 18 1 15 16
M  V30 19 1 7 17
M  V30 20 1 9 18
M  V30 21 1 10 19
M  V30 22 1 11 20
M  V30 23 1 11 21
M  V30 24 1 12 22
M  V30 25 1 12 23
M  V30 26 1 13 24
M  V30 27 1 14 25
M  V30 28 1 14 26
M  V30 29 1 15 27
M  V30 30 1 15 28
M  V30 END BOND
M  V30 END CTAB
M  END
>  <Structure No>
43

>  <LogS>
-3.810962795

>  <MMFF94 Energy>
77.337

$$$$
Compound 44
Actelion Java MolfileCreator 2.0

  0  0  0  0  0  0              0 V3000
M  V30 BEGIN CTAB
M  V30 COUNTS 27 29 0 0 0
M  V30 BEGIN ATOM
M  V30 1 O 2.1904 -0.4864 -1.1353 0
M  V30 2 C 1.5578 -0.0188 0.0404 0 CFG=2
M  V30 3 C 1.2678 -1.379 -0.5388 0 CFG=1
M  V30 4 C 0.4054 1.0215 -0.1542 0 CFG=2
M  V30 5 C 2.4781 0.0501 1.2544 0
M  V30 6 C -0.1005 -1.4994 -1.3027 0
M  V30 7 C -0.9442 0.3711 0.2516 0
M  V30 8 C -0.0626 0.9562 -1.6243 0
M  V30 9 C -0.969 -0.2012 -1.1901 0 CFG=1
M  V30 10 C -0.9814 -0.6237 1.446 0
M  V30 11 C -2.0543 1.4298 0.4811 0
M  V30 12 H 1.7714 -2.2738 -0.1165 0
M  V30 13 H 0.6042 2.0432 0.2359 0
M  V30 14 H 1.8855 -0.0934 2.1812 0
M  V30 15 H 2.9647 1.0468 1.2899 0
M  V30 16 H 3.2681 -0.7297 1.2073 0
M  V30 17 H -0.6733 -2.3509 -0.8792 0
M  V30 18 H 0.0937 -1.7301 -2.372 0
M  V30 19 H -0.6392 1.857 -1.9267 0
M  V30 20 H 0.6865 0.727 -2.4118 0
M  V30 21 H -1.9598 -0.2417 -1.6923 0
M  V30 22 H -1.9907 -1.0823 1.5135 0
M  V30 23 H -0.7868 -0.0733 2.3909 0
M  V30 24 H -0.2605 -1.4571 1.4054 0
M  V30 25 H -2.1062 2.1954 -0.3184 0
M  V30 26 H -1.8764 1.9621 1.44 0
M  V30 27 H -3.0469 0.9332 0.5323 0
M  V30 END ATOM
M  V30 BEGIN BOND
M  V30 1 1 1 2
M  V30 2 1 1 3
M  V30 3 1 2 4
M  V30 4 1 2 5
M  V30 5 1 3 6
M  V30 6 1 4 7
M  V30 7 1 4 8
M  V30 8 1 6 9
M  V30 9 1 7 10
M  V30 10 1 7 11
M  V30 11 1 2 3
M  V30 12 1 7 9
M  V30 13 1 8 9
M  V30 14 1 3 12
M  V30 15 1 4 13
M  V30 16 1 5 14
M  V30 17 1 5 15
M  V30 18 1 5 16
M  V30 19 1 6 17
M  V30 20 1 6 18
M  V30 21 1 8 19
M  V30 22 1 8 20
M  V30 23 1 9 21
M  V30 24 1 10 22
M  V30 25 1 10 23
M  V30 26 1 10 24
M  V30 27 1 11 25
M  V30 28 1 11 26
M  V30 29 1 11 27
M  V30 END BOND
M  V30 BEGIN COLLECTION
M  V30 MDLV30/STEABS ATOMS=(4 2 3 4 9)
M  V30 END COLLECTION
M  V30 END CTAB
M  END
>  <Structure No>
44

>  <LogS>
-2.593688492

>  <MMFF94 Energy>
42.379

$$$$
Compound 45
Actelion Java MolfileCreator 2.0

  0  0  0  0  0  0              0 V3000
M  V30 BEGIN CTAB
M  V30 COUNTS 79 83 0 0 0
M  V30 BEGIN ATOM
M  V30 1 Cl 1.3794 -4.488 -2.5011 0
M  V30 2 C 2.1975 -3.1023 -1.8148 0
M  V30 3 N 1.4948 -1.9843 -1.5058 0
M  V30 4 N 3.534 -3.1461 -1.5897 0
M  V30 5 C 2.1239 -0.9083 -0.9649 0
M  V30 6 C 4.1733 -2.0735 -1.057 0
M  V30 7 N 3.4649 -0.9512 -0.762 0
M  V30 8 N 1.397 0.2863 -0.6446 0
M  V30 9 N 5.5937 -2.1246 -0.8578 0
M  V30 10 C -0.0338 0.3504 -0.5185 0
M  V30 11 C 6.3599 -1.0893 -0.2169 0
M  V30 12 C -0.7733 -0.7353 -0.0192 0
M  V30 13 C -0.6999 1.5415 -0.8328 0
M  V30 14 C 7.6499 -0.8004 -0.6877 0
M  V30 15 C 5.8721 -0.4046 0.9094 0
M  V30 16 C -2.1717 -0.6596 0.1015 0
M  V30 17 C -2.0847 1.6394 -0.6879 0
M  V30 18 C 8.429 0.1902 -0.0711 0
M  V30 19 C 6.647 0.5809 1.5256 0
M  V30 20 N -2.9254 -1.774 0.6141 0
M  V30 21 C -2.8294 0.5423 -0.2218 0
M  V30 22 S 10.0495 0.5539 -0.6583 0
M  V30 23 C 7.9193 0.8815 1.0356 0
M  V30 24 C -2.6484 -3.1447 0.2926 0
M  V30 25 N -4.255 0.6157 -0.0947 0
M  V30 26 O 10.3104 -0.1845 -1.943 0
M  V30 27 O 10.1679 2.0309 -0.9134 0
M  V30 28 C 11.2425 0.0497 0.5714 0
M  V30 29 O -1.7767 -3.4411 -0.5677 0
M  V30 30 N -3.3878 -4.186 0.9278 0
M  V30 31 N -4.906 1.6924 -0.2798 0
M  V30 32 C 12.6683 0.2175 0.0559 0
M  V30 33 C -6.3357 1.746 -0.1662 0
M  V30 34 O 13.5668 -0.1348 1.0797 0
M  V30 35 C -6.9924 2.9854 -0.2577 0
M  V30 36 C -7.0876 0.5717 0.0197 0
M  V30 37 S 15.1388 -0.0869 0.4503 0
M  V30 38 S -6.0708 4.4753 -0.4824 0
M  V30 39 C -8.3874 3.0412 -0.1592 0
M  V30 40 C -8.4936 0.6129 0.1073 0
M  V30 41 O 15.4357 1.271 -0.1249 0
M  V30 42 O 16.1129 -0.3705 1.5572 0
M  V30 43 O 15.317 -1.2588 -0.7421 0 CHG=-1
M  V30 44 O -5.285 4.393 -1.7607 0
M  V30 45 O -5.1322 4.663 0.6763 0
M  V30 46 O -7.1033 5.7991 -0.5639 0 CHG=-1
M  V30 47 C -9.1413 1.8719 0.0175 0
M  V30 48 C -9.2757 -0.5597 0.28 0
M  V30 49 C -10.5383 1.9507 0.1024 0
M  V30 50 S -8.5501 -2.1744 0.3933 0
M  V30 51 C -10.6733 -0.4492 0.3614 0
M  V30 52 C -11.304 0.7942 0.2661 0
M  V30 53 O -9.6196 -3.224 0.5189 0
M  V30 54 O -7.658 -2.2449 1.6006 0
M  V30 55 O -7.6554 -2.4878 -0.994 0 CHG=-1
M  V30 56 S -13.0586 0.8995 0.374 0
M  V30 57 O -13.6791 -0.2897 -0.3033 0
M  V30 58 O -13.5437 2.1492 -0.3053 0
M  V30 59 O -13.5192 0.9324 1.9889 0 CHG=-1
M  V30 60 H 1.9436 1.173 -0.5521 0
M  V30 61 H 6.1135 -2.9164 -1.3008 0
M  V30 62 H -0.2586 -1.6232 0.3203 0
M  V30 63 H -0.1445 2.396 -1.1972 0
M  V30 64 H 8.0371 -1.344 -1.5389 0
M  V30 65 H 4.906 -0.6454 1.3309 0
M  V30 66 H -2.5737 2.5694 -0.9509 0
M  V30 67 H 6.2634 1.1052 2.3903 0
M  V30 68 H -3.7803 -1.5789 1.1825 0
M  V30 69 H 8.5102 1.6467 1.5254 0
M  V30 70 H 11.0624 -1.0141 0.8324 0
M  V30 71 H 11.1004 0.6678 1.4826 0
M  V30 72 H -4.1348 -3.9585 1.6195 0
M  V30 73 H -3.1883 -5.1851 0.707 0
M  V30 74 H 12.8011 -0.4407 -0.8335 0
M  V30 75 H 12.8214 1.2807 -0.2374 0
M  V30 76 H -6.5612 -0.368 0.0867 0
M  V30 77 H -8.8893 3.9987 -0.2227 0
M  V30 78 H -11.033 2.9133 0.0372 0
M  V30 79 H -11.2815 -1.3339 0.5003 0
M  V30 END ATOM
M  V30 BEGIN BOND
M  V30 1 1 1 2
M  V30 2 2 2 3
M  V30 3 1 2 4
M  V30 4 1 3 5
M  V30 5 2 4 6
M  V30 6 2 5 7
M  V30 7 1 5 8
M  V30 8 1 6 9
M  V30 9 1 8 10
M  V30 10 1 9 11
M  V30 11 2 10 12
M  V30 12 1 10 13
M  V30 13 2 11 14
M  V30 14 1 11 15
M  V30 15 1 12 16
M  V30 16 2 13 17
M  V30 17 1 14 18
M  V30 18 2 15 19
M  V30 19 1 16 20
M  V30 20 2 16 21
M  V30 21 1 18 22
M  V30 22 2 18 23
M  V30 23 1 20 24
M  V30 24 1 21 25
M  V30 25 2 22 26
M  V30 26 2 22 27
M  V30 27 1 22 28
M  V30 28 2 24 29
M  V30 29 1 24 30
M  V30 30 2 25 31
M  V30 31 1 28 32
M  V30 32 1 31 33
M  V30 33 1 32 34
M  V30 34 1 33 35
M  V30 35 2 33 36
M  V30 36 1 34 37
M  V30 37 1 35 38
M  V30 38 2 35 39
M  V30 39 1 36 40
M  V30 40 2 37 41
M  V30 41 2 37 42
M  V30 42 1 37 43
M  V30 43 2 38 44
M  V30 44 2 38 45
M  V30 45 1 38 46
M  V30 46 1 39 47
M  V30 47 2 40 48
M  V30 48 2 47 49
M  V30 49 1 48 50
M  V30 50 1 48 51
M  V30 51 1 49 52
M  V30 52 2 50 53
M  V30 53 2 50 54
M  V30 54 1 50 55
M  V30 55 1 52 56
M  V30 56 2 56 57
M  V30 57 2 56 58
M  V30 58 1 56 59
M  V30 59 1 6 7
M  V30 60 1 17 21
M  V30 61 1 19 23
M  V30 62 1 40 47
M  V30 63 2 51 52
M  V30 64 1 8 60
M  V30 65 1 9 61
M  V30 66 1 12 62
M  V30 67 1 13 63
M  V30 68 1 14 64
M  V30 69 1 15 65
M  V30 70 1 17 66
M  V30 71 1 19 67
M  V30 72 1 20 68
M  V30 73 1 23 69
M  V30 74 1 28 70
M  V30 75 1 28 71
M  V30 76 1 30 72
M  V30 77 1 30 73
M  V30 78 1 32 74
M  V30 79 1 32 75
M  V30 80 1 36 76
M  V30 81 1 39 77
M  V30 82 1 49 78
M  V30 83 1 51 79
M  V30 END BOND
M  V30 END CTAB
M  END
>  <Structure No>
45

>  <LogS>
-0.426136485

>  <MMFF94 Energy>
-65.005

$$$$
Compound 46
Actelion Java MolfileCreator 2.0

  0  0  0  0  0  0              0 V3000
M  V30 BEGIN CTAB
M  V30 COUNTS 96 100 0 0 0
M  V30 BEGIN ATOM
M  V30 1 Cl -4.938 -4.7731 -4.1961 0
M  V30 2 C -3.782 -3.8994 -3.2159 0
M  V30 3 N -2.5066 -3.7439 -3.648 0
M  V30 4 N -4.1653 -3.365 -2.0305 0
M  V30 5 C -1.6058 -3.0661 -2.8914 0
M  V30 6 C -3.2714 -2.6803 -1.2685 0
M  V30 7 N -1.9934 -2.5337 -1.7023 0
M  V30 8 N -0.2792 -2.8565 -3.3924 0
M  V30 9 N -3.6738 -2.0887 -0.0262 0
M  V30 10 C 0.7743 -2.2477 -2.6316 0
M  V30 11 C -5.0703 -2.0398 0.4022 0
M  V30 12 C 1.6169 -1.3128 -3.2451 0
M  V30 13 C 1.0233 -2.6308 -1.3049 0
M  V30 14 C -5.8361 -0.9862 -0.4132 0
M  V30 15 C 2.6841 -0.7391 -2.5376 0
M  V30 16 C 2.0964 -2.0797 -0.5993 0
M  V30 17 C -7.3612 -1.0915 -0.2405 0
M  V30 18 C 2.9343 -1.1297 -1.2086 0
M  V30 19 C 3.5371 0.2713 -3.1954 0
M  V30 20 C -7.8637 -0.8693 1.1972 0
M  V30 21 C 4.0896 -0.5514 -0.4873 0
M  V30 22 C 4.5487 0.8773 -2.5557 0
M  V30 23 C -7.5499 0.5413 1.7259 0
M  V30 24 O 4.4238 -1.0343 0.6263 0
M  V30 25 C 4.8644 0.5466 -1.1386 0
M  V30 26 S 5.5038 2.0976 -3.4097 0
M  V30 27 C -8.2143 0.8352 3.0812 0
M  V30 28 N 5.8117 1.2367 -0.5587 0
M  V30 29 O 5.2391 2.0391 -4.8874 0
M  V30 30 O 6.9667 1.8487 -3.1747 0
M  V30 31 O 5.0961 3.6213 -2.8389 0 CHG=-1
M  V30 32 C -9.7532 0.9326 3.0572 0
M  V30 33 N 6.2923 1.1282 0.7604 0
M  V30 34 C -10.2938 2.0802 2.1765 0
M  V30 35 C 7.4304 1.901 1.1659 0
M  V30 36 C -10.7651 1.6235 0.7831 0
M  V30 37 C 8.2294 1.4582 2.2288 0
M  V30 38 C 7.7683 3.0943 0.5024 0
M  V30 39 C -12.1146 0.8856 0.8267 0
M  V30 40 C 9.3803 2.1643 2.5892 0
M  V30 41 C 8.907 3.8124 0.8803 0
M  V30 42 C -12.6308 0.5284 -0.5753 0
M  V30 43 C 9.7339 3.3366 1.9017 0
M  V30 44 C -11.8079 -0.5735 -1.2452 0
M  V30 45 N 10.9279 4.0551 2.2445 0
M  V30 46 N 12.0966 3.5343 2.3136 0
M  V30 47 C 12.4351 2.1979 1.9015 0
M  V30 48 C 13.3143 1.4425 2.6856 0
M  V30 49 C 11.9668 1.6675 0.6868 0
M  V30 50 C 13.6712 0.1469 2.2959 0
M  V30 51 C 12.3184 0.372 0.3003 0
M  V30 52 C 13.1698 -0.3956 1.1034 0
M  V30 53 S 13.5831 -2.0357 0.6152 0
M  V30 54 O 14.8042 -2.5049 1.3545 0
M  V30 55 O 13.87 -2.0631 -0.8591 0
M  V30 56 O 12.2991 -3.0596 0.9611 0 CHG=-1
M  V30 57 H -0.1115 -3.0334 -4.4078 0
M  V30 58 H -2.942 -1.677 0.596 0
M  V30 59 H -5.5376 -3.0464 0.2873 0
M  V30 60 H -5.1059 -1.7614 1.4777 0
M  V30 61 H 1.4315 -1.0248 -4.2719 0
M  V30 62 H 0.4062 -3.3778 -0.8241 0
M  V30 63 H -5.4758 0.0326 -0.1476 0
M  V30 64 H -5.6144 -1.1272 -1.4929 0
M  V30 65 H 2.2731 -2.4016 0.4205 0
M  V30 66 H -7.6879 -2.1002 -0.5759 0
M  V30 67 H -7.8491 -0.3533 -0.9151 0
M  V30 68 H 3.3156 0.5365 -4.2216 0
M  V30 69 H -8.9603 -1.0312 1.1831 0
M  V30 70 H -7.4354 -1.6343 1.8799 0
M  V30 71 H -7.8309 1.3179 0.9861 0
M  V30 72 H -6.4529 0.6244 1.8747 0
M  V30 73 H -7.8037 1.7912 3.4728 0
M  V30 74 H -7.9217 0.0438 3.8028 0
M  V30 75 H -10.0783 1.1316 4.1026 0
M  V30 76 H -10.2018 -0.0439 2.7853 0
M  V30 77 H 5.874 0.4823 1.459 0
M  V30 78 H -11.1468 2.5695 2.6964 0
M  V30 79 H -9.514 2.8655 2.0537 0
M  V30 80 H -10.8761 2.5302 0.1491 0
M  V30 81 H -9.9958 0.9837 0.3134 0
M  V30 82 H 7.9797 0.5434 2.7543 0
M  V30 83 H 7.1608 3.4617 -0.3137 0
M  V30 84 H -12.8676 1.5432 1.312 0
M  V30 85 H -12.0393 -0.0405 1.4329 0
M  V30 86 H 9.9984 1.7948 3.3974 0
M  V30 87 H 9.1654 4.7222 0.3532 0
M  V30 88 H -12.6397 1.432 -1.2222 0
M  V30 89 H -13.6788 0.172 -0.4813 0
M  V30 90 H -11.7124 -1.4549 -0.5759 0
M  V30 91 H -12.3109 -0.8959 -2.1817 0
M  V30 92 H -10.7985 -0.2021 -1.5117 0
M  V30 93 H 13.7107 1.8529 3.6069 0
M  V30 94 H 11.3396 2.2574 0.0325 0
M  V30 95 H 14.3311 -0.4304 2.9279 0
M  V30 96 H 11.9299 -0.0301 -0.6258 0
M  V30 END ATOM
M  V30 BEGIN BOND
M  V30 1 1 1 2
M  V30 2 2 2 3
M  V30 3 1 2 4
M  V30 4 1 3 5
M  V30 5 2 4 6
M  V30 6 2 5 7
M  V30 7 1 5 8
M  V30 8 1 6 9
M  V30 9 1 8 10
M  V30 10 1 9 11
M  V30 11 2 10 12
M  V30 12 1 10 13
M  V30 13 1 11 14
M  V30 14 1 12 15
M  V30 15 2 13 16
M  V30 16 1 14 17
M  V30 17 2 15 18
M  V30 18 1 15 19
M  V30 19 1 17 20
M  V30 20 1 18 21
M  V30 21 2 19 22
M  V30 22 1 20 23
M  V30 23 2 21 24
M  V30 24 1 21 25
M  V30 25 1 22 26
M  V30 26 1 23 27
M  V30 27 2 25 28
M  V30 28 2 26 29
M  V30 29 2 26 30
M  V30 30 1 26 31
M  V30 31 1 27 32
M  V30 32 1 28 33
M  V30 33 1 32 34
M  V30 34 1 33 35
M  V30 35 1 34 36
M  V30 36 2 35 37
M  V30 37 1 35 38
M  V30 38 1 36 39
M  V30 39 1 37 40
M  V30 40 2 38 41
M  V30 41 1 39 42
M  V30 42 2 40 43
M  V30 43 1 42 44
M  V30 44 1 43 45
M  V30 45 2 45 46
M  V30 46 1 46 47
M  V30 47 2 47 48
M  V30 48 1 47 49
M  V30 49 1 48 50
M  V30 50 2 49 51
M  V30 51 2 50 52
M  V30 52 1 52 53
M  V30 53 2 53 54
M  V30 54 2 53 55
M  V30 55 1 53 56
M  V30 56 1 6 7
M  V30 57 1 16 18
M  V30 58 1 22 25
M  V30 59 1 41 43
M  V30 60 1 51 52
M  V30 61 1 8 57
M  V30 62 1 9 58
M  V30 63 1 11 59
M  V30 64 1 11 60
M  V30 65 1 12 61
M  V30 66 1 13 62
M  V30 67 1 14 63
M  V30 68 1 14 64
M  V30 69 1 16 65
M  V30 70 1 17 66
M  V30 71 1 17 67
M  V30 72 1 19 68
M  V30 73 1 20 69
M  V30 74 1 20 70
M  V30 75 1 23 71
M  V30 76 1 23 72
M  V30 77 1 27 73
M  V30 78 1 27 74
M  V30 79 1 32 75
M  V30 80 1 32 76
M  V30 81 1 33 77
M  V30 82 1 34 78
M  V30 83 1 34 79
M  V30 84 1 36 80
M  V30 85 1 36 81
M  V30 86 1 37 82
M  V30 87 1 38 83
M  V30 88 1 39 84
M  V30 89 1 39 85
M  V30 90 1 40 86
M  V30 91 1 41 87
M  V30 92 1 42 88
M  V30 93 1 42 89
M  V30 94 1 44 90
M  V30 95 1 44 91
M  V30 96 1 44 92
M  V30 97 1 48 93
M  V30 98 1 49 94
M  V30 99 1 50 95
M  V30 100 1 51 96
M  V30 END BOND
M  V30 END CTAB
M  END
>  <Structure No>
46

>  <LogS>
-3.358911212

>  <MMFF94 Energy>
-55.935

$$$$
Compound 47
Actelion Java MolfileCreator 2.0

  0  0  0  0  0  0              0 V3000
M  V30 BEGIN CTAB
M  V30 COUNTS 31 30 0 0 0
M  V30 BEGIN ATOM
M  V30 1 S 1.9022 1.1885 1.3471 0
M  V30 2 C 1.1286 -0.3094 0.7183 0
M  V30 3 C 2.6914 1.6394 -0.2383 0
M  V30 4 O 1.8174 -1.364 0.6782 0
M  V30 5 N -0.2471 -0.325 0.2766 0
M  V30 6 C 4.0678 0.9989 -0.3529 0
M  V30 7 C -1.1617 0.7835 0.5856 0
M  V30 8 C -0.7729 -1.498 -0.4351 0
M  V30 9 C -1.1239 1.8422 -0.5207 0
M  V30 10 C -1.1987 -2.5824 0.56 0
M  V30 11 C -2.1255 2.9604 -0.2484 0
M  V30 12 C -1.7614 -3.8032 -0.1613 0
M  V30 13 H 2.8051 2.7435 -0.268 0
M  V30 14 H 2.0626 1.3359 -1.1027 0
M  V30 15 H 4.7067 1.3097 0.5008 0
M  V30 16 H 3.9805 -0.1073 -0.3616 0
M  V30 17 H 4.5517 1.3238 -1.2978 0
M  V30 18 H -0.9036 1.2366 1.567 0
M  V30 19 H -2.2002 0.3957 0.6823 0
M  V30 20 H -0.0021 -1.8946 -1.132 0
M  V30 21 H -1.6486 -1.2043 -1.0557 0
M  V30 22 H -0.1096 2.2847 -0.5875 0
M  V30 23 H -1.3657 1.3699 -1.4973 0
M  V30 24 H -0.327 -2.897 1.1728 0
M  V30 25 H -1.976 -2.1752 1.2423 0
M  V30 26 H -2.0717 3.714 -1.062 0
M  V30 27 H -1.8917 3.4608 0.7154 0
M  V30 28 H -3.1584 2.5531 -0.2097 0
M  V30 29 H -2.0605 -4.57 0.5839 0
M  V30 30 H -0.9933 -4.2415 -0.8335 0
M  V30 31 H -2.6545 -3.5209 -0.7585 0
M  V30 END ATOM
M  V30 BEGIN BOND
M  V30 1 1 1 2
M  V30 2 1 1 3
M  V30 3 2 2 4
M  V30 4 1 2 5
M  V30 5 1 3 6
M  V30 6 1 5 7
M  V30 7 1 5 8
M  V30 8 1 7 9
M  V30 9 1 8 10
M  V30 10 1 9 11
M  V30 11 1 10 12
M  V30 12 1 3 13
M  V30 13 1 3 14
M  V30 14 1 6 15
M  V30 15 1 6 16
M  V30 16 1 6 17
M  V30 17 1 7 18
M  V30 18 1 7 19
M  V30 19 1 8 20
M  V30 20 1 8 21
M  V30 21 1 9 22
M  V30 22 1 9 23
M  V30 23 1 10 24
M  V30 24 1 10 25
M  V30 25 1 11 26
M  V30 26 1 11 27
M  V30 27 1 11 28
M  V30 28 1 12 29
M  V30 29 1 12 30
M  V30 30 1 12 31
M  V30 END BOND
M  V30 END CTAB
M  END
>  <Structure No>
47

>  <LogS>
-2.703174404

>  <MMFF94 Energy>
-44.327

$$$$
Compound 48
Actelion Java MolfileCreator 2.0

  0  0  0  0  0  0              0 V3000
M  V30 BEGIN CTAB
M  V30 COUNTS 42 44 0 0 0
M  V30 BEGIN ATOM
M  V30 1 O 5.2149 1.5222 -0.881 0
M  V30 2 C 4.6255 2.5081 -0.0652 0 CFG=1
M  V30 3 C 4.345 2.4342 -1.5171 0
M  V30 4 C 3.5448 1.9552 0.8714 0
M  V30 5 O 3.1149 0.6737 0.457 0
M  V30 6 C 2.0953 0.2134 1.3197 0
M  V30 7 C 1.5968 -1.1611 0.8402 0 CFG=1
M  V30 8 C 0.5215 -1.7342 1.8034 0
M  V30 9 C 1.0989 -1.0826 -0.6278 0
M  V30 10 C -0.8999 -1.4344 1.3153 0
M  V30 11 C 0.095 -2.197 -0.9421 0
M  V30 12 C -1.1811 -2.0897 -0.0636 0 CFG=2
M  V30 13 C -2.3006 -1.3366 -0.8027 0
M  V30 14 O -3.4696 -1.3249 -0.0064 0
M  V30 15 C -4.4345 -0.4529 -0.5595 0
M  V30 16 C -4.2443 0.9612 -0.0059 0 CFG=1
M  V30 17 O -3.6139 1.817 -0.9297 0
M  V30 18 C -4.9878 2.0349 -0.7008 0
M  V30 19 H 5.3455 3.2817 0.2741 0
M  V30 20 H 3.4062 1.9369 -1.8412 0
M  V30 21 H 4.9084 3.1411 -2.1614 0
M  V30 22 H 3.9822 1.9032 1.8936 0
M  V30 23 H 2.6989 2.6793 0.8746 0
M  V30 24 H 2.4943 0.1064 2.3549 0
M  V30 25 H 1.2353 0.9228 1.334 0
M  V30 26 H 2.4664 -1.8561 0.8685 0
M  V30 27 H 0.6502 -1.3348 2.8335 0
M  V30 28 H 0.6435 -2.8381 1.8737 0
M  V30 29 H 1.9669 -1.1654 -1.3177 0
M  V30 30 H 0.6099 -0.1026 -0.8252 0
M  V30 31 H -1.6316 -1.8146 2.0612 0
M  V30 32 H -1.0266 -0.3301 1.2591 0
M  V30 33 H 0.5875 -3.1769 -0.754 0
M  V30 34 H -0.1583 -2.172 -2.0244 0
M  V30 35 H -1.5432 -3.1268 0.1175 0
M  V30 36 H -2.5137 -1.8603 -1.7624 0
M  V30 37 H -1.9478 -0.3033 -1.0273 0
M  V30 38 H -4.4457 -0.471 -1.6764 0
M  V30 39 H -5.4348 -0.8066 -0.2333 0
M  V30 40 H -3.9289 1.1456 1.0428 0
M  V30 41 H -5.1552 2.9675 -0.123 0
M  V30 42 H -5.5927 1.7552 -1.5894 0
M  V30 END ATOM
M  V30 BEGIN BOND
M  V30 1 1 1 2
M  V30 2 1 1 3
M  V30 3 1 2 4
M  V30 4 1 4 5
M  V30 5 1 5 6
M  V30 6 1 6 7
M  V30 7 1 7 8
M  V30 8 1 7 9
M  V30 9 1 8 10
M  V30 10 1 9 11
M  V30 11 1 10 12
M  V30 12 1 12 13
M  V30 13 1 13 14
M  V30 14 1 14 15
M  V30 15 1 15 16
M  V30 16 1 16 17
M  V30 17 1 16 18
M  V30 18 1 2 3
M  V30 19 1 11 12
M  V30 20 1 17 18
M  V30 21 1 2 19
M  V30 22 1 3 20
M  V30 23 1 3 21
M  V30 24 1 4 22
M  V30 25 1 4 23
M  V30 26 1 6 24
M  V30 27 1 6 25
M  V30 28 1 7 26
M  V30 29 1 8 27
M  V30 30 1 8 28
M  V30 31 1 9 29
M  V30 32 1 9 30
M  V30 33 1 10 31
M  V30 34 1 10 32
M  V30 35 1 11 33
M  V30 36 1 11 34
M  V30 37 1 12 35
M  V30 38 1 13 36
M  V30 39 1 13 37
M  V30 40 1 15 38
M  V30 41 1 15 39
M  V30 42 1 16 40
M  V30 43 1 18 41
M  V30 44 1 18 42
M  V30 END BOND
M  V30 BEGIN COLLECTION
M  V30 MDLV30/STEABS ATOMS=(4 2 7 12 16)
M  V30 END COLLECTION
M  V30 END CTAB
M  END
>  <Structure No>
48

>  <LogS>
-1.835797234

>  <MMFF94 Energy>
43.784

$$$$
Compound 49
Actelion Java MolfileCreator 2.0

  0  0  0  0  0  0              0 V3000
M  V30 BEGIN CTAB
M  V30 COUNTS 39 39 0 0 0
M  V30 BEGIN ATOM
M  V30 1 O 3.3956 -0.7888 3.3165 0
M  V30 2 C 3.2436 -0.5121 2.0962 0
M  V30 3 N 2.0979 0.094 1.6681 0
M  V30 4 C 4.2564 -0.8298 1.1878 0
M  V30 5 O 1.1172 0.3925 2.5896 0 CHG=-1
M  V30 6 C 1.9157 0.4148 0.349 0
M  V30 7 C 4.0865 -0.5353 -0.1683 0
M  V30 8 C 2.915 0.1044 -0.5866 0
M  V30 9 C 0.6358 1.0708 -0.117 0
M  V30 10 C 5.1768 -0.8384 -1.1527 0
M  V30 11 C -0.5272 0.0598 -0.2508 0 CFG=1
M  V30 12 C -1.8685 0.8029 -0.5468 0
M  V30 13 C -0.2269 -0.9775 -1.3481 0
M  V30 14 C -3.0944 0.363 0.3128 0
M  V30 15 C -3.3708 -1.1479 0.1693 0
M  V30 16 C -4.3365 1.1321 -0.1876 0
M  V30 17 C -2.8778 0.7153 1.8017 0
M  V30 18 H 5.1664 -1.3043 1.5361 0
M  V30 19 H 2.7779 0.3519 -1.6326 0
M  V30 20 H 0.3625 1.8575 0.6196 0
M  V30 21 H 0.7945 1.5914 -1.0875 0
M  V30 22 H 5.7609 -1.7266 -0.8303 0
M  V30 23 H 4.7498 -1.0545 -2.1551 0
M  V30 24 H 5.8578 0.0345 -1.2294 0
M  V30 25 H -0.5973 -0.4918 0.7072 0
M  V30 26 H -1.7362 1.899 -0.4041 0
M  V30 27 H -2.1236 0.6927 -1.6249 0
M  V30 28 H -1.0877 -1.6638 -1.4842 0
M  V30 29 H 0.6508 -1.5972 -1.0692 0
M  V30 30 H -0.0188 -0.4741 -2.3165 0
M  V30 31 H -3.5054 -1.4194 -0.8996 0
M  V30 32 H -4.2967 -1.4283 0.7167 0
M  V30 33 H -2.5415 -1.7546 0.588 0
M  V30 34 H -5.238 0.8569 0.4018 0
M  V30 35 H -4.1841 2.2292 -0.0935 0
M  V30 36 H -4.5397 0.8994 -1.2555 0
M  V30 37 H -3.8001 0.5122 2.3879 0
M  V30 38 H -2.6251 1.7914 1.9163 0
M  V30 39 H -2.0632 0.1156 2.255 0
M  V30 END ATOM
M  V30 BEGIN BOND
M  V30 1 2 1 2
M  V30 2 1 2 3
M  V30 3 1 2 4
M  V30 4 1 3 5
M  V30 5 1 3 6
M  V30 6 2 4 7
M  V30 7 2 6 8
M  V30 8 1 6 9
M  V30 9 1 7 10
M  V30 10 1 9 11
M  V30 11 1 11 12
M  V30 12 1 11 13
M  V30 13 1 12 14
M  V30 14 1 14 15
M  V30 15 1 14 16
M  V30 16 1 14 17
M  V30 17 1 7 8
M  V30 18 1 4 18
M  V30 19 1 8 19
M  V30 20 1 9 20
M  V30 21 1 9 21
M  V30 22 1 10 22
M  V30 23 1 10 23
M  V30 24 1 10 24
M  V30 25 1 11 25
M  V30 26 1 12 26
M  V30 27 1 12 27
M  V30 28 1 13 28
M  V30 29 1 13 29
M  V30 30 1 13 30
M  V30 31 1 15 31
M  V30 32 1 15 32
M  V30 33 1 15 33
M  V30 34 1 16 34
M  V30 35 1 16 35
M  V30 36 1 16 36
M  V30 37 1 17 37
M  V30 38 1 17 38
M  V30 39 1 17 39
M  V30 END BOND
M  V30 BEGIN COLLECTION
M  V30 MDLV30/STEABS ATOMS=(1 11)
M  V30 END COLLECTION
M  V30 END CTAB
M  END
>  <Structure No>
49

>  <LogS>
-3.905464204

>  <MMFF94 Energy>
72.581

$$$$
Compound 50
Actelion Java MolfileCreator 2.0

  0  0  0  0  0  0              0 V3000
M  V30 BEGIN CTAB
M  V30 COUNTS 19 19 0 0 0
M  V30 BEGIN ATOM
M  V30 1 O 1.4176 -0.5511 1.9694 0
M  V30 2 C 0.9696 -0.2121 0.839 0
M  V30 3 O 1.8469 0.0071 -0.2293 0
M  V30 4 C -0.487 -0.0451 0.6391 0
M  V30 5 C 3.2322 -0.1297 -0.121 0
M  V30 6 C -0.9927 0.3325 -0.6183 0
M  V30 7 C -1.3878 -0.2602 1.6996 0
M  V30 8 C 4.0023 0.0946 -1.1773 0
M  V30 9 C -2.3689 0.4909 -0.8089 0
M  V30 10 C -2.7631 -0.1004 1.503 0
M  V30 11 C -3.2531 0.2748 0.2503 0
M  V30 12 H 3.6907 -0.4177 0.8174 0
M  V30 13 H -0.3271 0.5057 -1.4544 0
M  V30 14 H -1.0311 -0.5516 2.6796 0
M  V30 15 H 5.0766 -0.0097 -1.0998 0
M  V30 16 H 3.5649 0.3834 -2.1244 0
M  V30 17 H -2.7502 0.7816 -1.7793 0
M  V30 18 H -3.4493 -0.2676 2.3232 0
M  V30 19 H -4.318 0.3979 0.1003 0
M  V30 END ATOM
M  V30 BEGIN BOND
M  V30 1 2 1 2
M  V30 2 1 2 3
M  V30 3 1 2 4
M  V30 4 1 3 5
M  V30 5 2 4 6
M  V30 6 1 4 7
M  V30 7 2 5 8
M  V30 8 1 6 9
M  V30 9 2 7 10
M  V30 10 2 9 11
M  V30 11 1 10 11
M  V30 12 1 5 12
M  V30 13 1 6 13
M  V30 14 1 7 14
M  V30 15 1 8 15
M  V30 16 1 8 16
M  V30 17 1 9 17
M  V30 18 1 10 18
M  V30 19 1 11 19
M  V30 END BOND
M  V30 END CTAB
M  END
>  <Structure No>
50

>  <LogS>
-2.622959195

>  <MMFF94 Energy>
54.687

$$$$
Compound 51
Actelion Java MolfileCreator 2.0

  0  0  0  0  0  0              0 V3000
M  V30 BEGIN CTAB
M  V30 COUNTS 30 30 0 0 0
M  V30 BEGIN ATOM
M  V30 1 O 3.7883 1.4193 1.2615 0
M  V30 2 C 3.3159 0.5998 0.4256 0
M  V30 3 O 4.1755 -0.1112 -0.419 0
M  V30 4 C 1.8538 0.3891 0.3365 0
M  V30 5 C 5.5889 0.0448 -0.384 0
M  V30 6 C 0.9747 1.0919 1.1741 0
M  V30 7 C 1.3237 -0.5194 -0.5896 0
M  V30 8 C -0.4059 0.8916 1.0886 0
M  V30 9 C -0.0556 -0.7217 -0.6775 0
M  V30 10 C -0.9533 -0.0221 0.1584 0
M  V30 11 C -2.47 -0.275 0.0291 0
M  V30 12 C -2.9307 0.0778 -1.4018 0
M  V30 13 C -2.7698 -1.7632 0.3119 0
M  V30 14 C -3.3126 0.5693 1.0153 0
M  V30 15 H 6.0479 -0.6213 -1.1429 0
M  V30 16 H 5.9773 -0.2309 0.6192 0
M  V30 17 H 5.8611 1.0962 -0.6162 0
M  V30 18 H 1.3534 1.8009 1.9001 0
M  V30 19 H 1.9746 -1.0779 -1.2507 0
M  V30 20 H -1.0272 1.4636 1.7614 0
M  V30 21 H -0.4176 -1.4329 -1.4074 0
M  V30 22 H -2.6836 1.1356 -1.6373 0
M  V30 23 H -4.0295 -0.0558 -1.5068 0
M  V30 24 H -2.4439 -0.5708 -2.1596 0
M  V30 25 H -2.2816 -2.4269 -0.4317 0
M  V30 26 H -2.4054 -2.0451 1.3236 0
M  V30 27 H -3.8628 -1.9609 0.2667 0
M  V30 28 H -3.163 1.656 0.8349 0
M  V30 29 H -3.0472 0.331 2.0682 0
M  V30 30 H -4.3969 0.3574 0.8895 0
M  V30 END ATOM
M  V30 BEGIN BOND
M  V30 1 2 1 2
M  V30 2 1 2 3
M  V30 3 1 2 4
M  V30 4 1 3 5
M  V30 5 2 4 6
M  V30 6 1 4 7
M  V30 7 1 6 8
M  V30 8 2 7 9
M  V30 9 2 8 10
M  V30 10 1 10 11
M  V30 11 1 11 12
M  V30 12 1 11 13
M  V30 13 1 11 14
M  V30 14 1 9 10
M  V30 15 1 5 15
M  V30 16 1 5 16
M  V30 17 1 5 17
M  V30 18 1 6 18
M  V30 19 1 7 19
M  V30 20 1 8 20
M  V30 21 1 9 21
M  V30 22 1 12 22
M  V30 23 1 12 23
M  V30 24 1 12 24
M  V30 25 1 13 25
M  V30 26 1 13 26
M  V30 27 1 13 27
M  V30 28 1 14 28
M  V30 29 1 14 29
M  V30 30 1 14 30
M  V30 END BOND
M  V30 END CTAB
M  END
>  <Structure No>
51

>  <LogS>
-3.739816376

>  <MMFF94 Energy>
48.088

$$$$
Compound 52
Actelion Java MolfileCreator 2.0

  0  0  0  0  0  0              0 V3000
M  V30 BEGIN CTAB
M  V30 COUNTS 31 31 0 0 0
M  V30 BEGIN ATOM
M  V30 1 O -1.2523 0.9391 -1.4873 0
M  V30 2 C -2.2692 0.5955 -0.5851 0
M  V30 3 C -1.819 -0.5415 0.3709 0
M  V30 4 C -0.7733 -0.0392 1.4146 0
M  V30 5 C -3.0606 -1.0286 1.1506 0
M  V30 6 C -1.2678 -1.7358 -0.4401 0
M  V30 7 C 0.5197 0.4811 0.8281 0
M  V30 8 C 1.5827 -0.3973 0.557 0
M  V30 9 C 0.679 1.8522 0.5669 0
M  V30 10 C 2.7873 0.0847 0.0214 0
M  V30 11 C 1.8703 2.3319 0.0179 0
M  V30 12 C 2.9182 1.4522 -0.2626 0
M  V30 13 C 3.8985 -0.866 -0.3112 0
M  V30 14 H -1.6046 1.6935 -2.0275 0
M  V30 15 H -3.1607 0.2662 -1.166 0
M  V30 16 H -2.562 1.4912 0.0088 0
M  V30 17 H -1.2316 0.7609 2.038 0
M  V30 18 H -0.5321 -0.8648 2.1209 0
M  V30 19 H -2.7895 -1.8452 1.8546 0
M  V30 20 H -3.8385 -1.4174 0.4579 0
M  V30 21 H -3.507 -0.197 1.7384 0
M  V30 22 H -0.3998 -1.4377 -1.0634 0
M  V30 23 H -2.0485 -2.137 -1.122 0
M  V30 24 H -0.9444 -2.5535 0.2393 0
M  V30 25 H 1.4721 -1.4554 0.7622 0
M  V30 26 H -0.1244 2.5474 0.7766 0
M  V30 27 H 1.9802 3.3875 -0.1942 0
M  V30 28 H 3.8321 1.8373 -0.6977 0
M  V30 29 H 4.8837 -0.3569 -0.247 0
M  V30 30 H 3.9074 -1.7208 0.3981 0
M  V30 31 H 3.7569 -1.2523 -1.342 0
M  V30 END ATOM
M  V30 BEGIN BOND
M  V30 1 1 1 2
M  V30 2 1 2 3
M  V30 3 1 3 4
M  V30 4 1 3 5
M  V30 5 1 3 6
M  V30 6 1 4 7
M  V30 7 2 7 8
M  V30 8 1 7 9
M  V30 9 1 8 10
M  V30 10 2 9 11
M  V30 11 2 10 12
M  V30 12 1 10 13
M  V30 13 1 11 12
M  V30 14 1 1 14
M  V30 15 1 2 15
M  V30 16 1 2 16
M  V30 17 1 4 17
M  V30 18 1 4 18
M  V30 19 1 5 19
M  V30 20 1 5 20
M  V30 21 1 5 21
M  V30 22 1 6 22
M  V30 23 1 6 23
M  V30 24 1 6 24
M  V30 25 1 8 25
M  V30 26 1 9 26
M  V30 27 1 11 27
M  V30 28 1 12 28
M  V30 29 1 13 29
M  V30 30 1 13 30
M  V30 31 1 13 31
M  V30 END BOND
M  V30 END CTAB
M  END
>  <Structure No>
52

>  <LogS>
-2.826535469

>  <MMFF94 Energy>
35.804

$$$$
Compound 53
Actelion Java MolfileCreator 2.0

  0  0  0  0  0  0              0 V3000
M  V30 BEGIN CTAB
M  V30 COUNTS 34 33 0 0 0
M  V30 BEGIN ATOM
M  V30 1 O 5.5294 -0.6995 1.0106 0
M  V30 2 C 5.0818 -0.3384 -0.1117 0
M  V30 3 O 3.7453 0.0422 -0.2589 0
M  V30 4 C 5.9731 -0.3665 -1.3062 0
M  V30 5 C 2.8284 0.0638 0.8299 0
M  V30 6 C 1.4726 0.497 0.345 0
M  V30 7 C 0.6968 -0.2421 -0.4796 0
M  V30 8 C -0.6522 0.2969 -0.9033 0
M  V30 9 C 1.1458 -1.5922 -0.9877 0
M  V30 10 C -1.6749 0.1646 0.2311 0
M  V30 11 C -3.0292 0.6829 -0.1893 0
M  V30 12 C -4.1061 0.6752 0.6248 0
M  V30 13 C -5.4119 1.2176 0.104 0
M  V30 14 C -4.027 0.1381 2.0344 0
M  V30 15 H 7.0006 -0.0545 -1.0231 0
M  V30 16 H 6.0029 -1.3955 -1.7208 0
M  V30 17 H 5.5887 0.3278 -2.0824 0
M  V30 18 H 2.7633 -0.94 1.302 0
M  V30 19 H 3.1861 0.7871 1.5943 0
M  V30 20 H 1.1087 1.4617 0.69 0
M  V30 21 H -1.0244 -0.255 -1.7938 0
M  V30 22 H -0.5498 1.3643 -1.2009 0
M  V30 23 H 1.3477 -2.2726 -0.1341 0
M  V30 24 H 2.0641 -1.4832 -1.6012 0
M  V30 25 H 0.3657 -2.067 -1.6186 0
M  V30 26 H -1.3239 0.7418 1.1137 0
M  V30 27 H -1.765 -0.9068 0.5139 0
M  V30 28 H -3.1405 1.0815 -1.1957 0
M  V30 29 H -6.2161 1.1552 0.8664 0
M  V30 30 H -5.2875 2.2831 -0.1837 0
M  V30 31 H -5.7313 0.6358 -0.7865 0
M  V30 32 H -5.0049 0.2117 2.554 0
M  V30 33 H -3.7288 -0.931 2.0168 0
M  V30 34 H -3.2842 0.719 2.6205 0
M  V30 END ATOM
M  V30 BEGIN BOND
M  V30 1 2 1 2
M  V30 2 1 2 3
M  V30 3 1 2 4
M  V30 4 1 3 5
M  V30 5 1 5 6
M  V30 6 2 6 7
M  V30 7 1 7 8
M  V30 8 1 7 9
M  V30 9 1 8 10
M  V30 10 1 10 11
M  V30 11 2 11 12
M  V30 12 1 12 13
M  V30 13 1 12 14
M  V30 14 1 4 15
M  V30 15 1 4 16
M  V30 16 1 4 17
M  V30 17 1 5 18
M  V30 18 1 5 19
M  V30 19 1 6 20
M  V30 20 1 8 21
M  V30 21 1 8 22
M  V30 22 1 9 23
M  V30 23 1 9 24
M  V30 24 1 9 25
M  V30 25 1 10 26
M  V30 26 1 10 27
M  V30 27 1 11 28
M  V30 28 1 13 29
M  V30 29 1 13 30
M  V30 30 1 13 31
M  V30 31 1 14 32
M  V30 32 1 14 33
M  V30 33 1 14 34
M  V30 END BOND
M  V30 END CTAB
M  END
>  <Structure No>
53

>  <LogS>
-3.754953216

>  <MMFF94 Energy>
8.9273

$$$$
Compound 54
Actelion Java MolfileCreator 2.0

  0  0  0  0  0  0              0 V3000
M  V30 BEGIN CTAB
M  V30 COUNTS 30 31 0 0 0
M  V30 BEGIN ATOM
M  V30 1 O 2.637 -0.1596 -2.1571 0
M  V30 2 C 2.7118 0.8078 -1.1448 0
M  V30 3 C 2.4568 0.187 0.2321 0
M  V30 4 C 1.0523 -0.3449 0.3439 0
M  V30 5 C 0.6965 -1.5613 -0.167 0
M  V30 6 C -0.0471 0.4458 1.0676 0 CFG=1
M  V30 7 C -0.7681 -2.0232 -0.0331 0
M  V30 8 C -1.3253 0.468 0.1887 0
M  V30 9 C -0.7436 -0.5801 1.9824 0
M  V30 10 C -1.5994 -0.9525 0.7546 0 CFG=2
M  V30 11 C -2.3621 1.5067 0.6859 0
M  V30 12 C -1.1622 0.6393 -1.3478 0
M  V30 13 H 3.4653 -0.7029 -2.0923 0
M  V30 14 H 1.9551 1.5968 -1.3437 0
M  V30 15 H 3.7136 1.2939 -1.1545 0
M  V30 16 H 2.6158 0.9694 1.0048 0
M  V30 17 H 3.1894 -0.6253 0.4292 0
M  V30 18 H 1.4195 -2.1891 -0.6779 0
M  V30 19 H 0.2518 1.4032 1.5469 0
M  V30 20 H -0.7964 -2.9898 0.5127 0
M  V30 21 H -1.2087 -2.1834 -1.0394 0
M  V30 22 H -1.335 -0.1045 2.7945 0
M  V30 23 H -0.0963 -1.3904 2.3922 0
M  V30 24 H -2.659 -1.2138 0.9653 0
M  V30 25 H -2.0078 2.5344 0.4569 0
M  V30 26 H -2.5472 1.4524 1.7775 0
M  V30 27 H -3.3342 1.3456 0.1731 0
M  V30 28 H -0.4214 -0.0259 -1.8256 0
M  V30 29 H -0.848 1.6805 -1.573 0
M  V30 30 H -2.1373 0.4536 -1.8459 0
M  V30 END ATOM
M  V30 BEGIN BOND
M  V30 1 1 1 2
M  V30 2 1 2 3
M  V30 3 1 3 4
M  V30 4 2 4 5
M  V30 5 1 4 6
M  V30 6 1 5 7
M  V30 7 1 6 8
M  V30 8 1 6 9
M  V30 9 1 7 10
M  V30 10 1 8 11
M  V30 11 1 8 12
M  V30 12 1 8 10
M  V30 13 1 9 10
M  V30 14 1 1 13
M  V30 15 1 2 14
M  V30 16 1 2 15
M  V30 17 1 3 16
M  V30 18 1 3 17
M  V30 19 1 5 18
M  V30 20 1 6 19
M  V30 21 1 7 20
M  V30 22 1 7 21
M  V30 23 1 9 22
M  V30 24 1 9 23
M  V30 25 1 10 24
M  V30 26 1 11 25
M  V30 27 1 11 26
M  V30 28 1 11 27
M  V30 29 1 12 28
M  V30 30 1 12 29
M  V30 31 1 12 30
M  V30 END BOND
M  V30 BEGIN COLLECTION
M  V30 MDLV30/STEABS ATOMS=(2 6 10)
M  V30 END COLLECTION
M  V30 END CTAB
M  END
>  <Structure No>
54

>  <LogS>
-2.695999804

>  <MMFF94 Energy>
47.415

$$$$
Compound 55
Actelion Java MolfileCreator 2.0

  0  0  0  0  0  0              0 V3000
M  V30 BEGIN CTAB
M  V30 COUNTS 26 26 0 0 0
M  V30 BEGIN ATOM
M  V30 1 O 0.2367 2.9232 1.0263 0
M  V30 2 C 0.2416 1.9245 0.3232 0
M  V30 3 C -1.0447 1.3692 -0.2208 0
M  V30 4 C 1.5367 1.276 -0.069 0
M  V30 5 C -1.1255 -0.1645 -0.0067 0
M  V30 6 C 1.461 -0.2445 0.1591 0 CFG=1
M  V30 7 C 0.1902 -0.8442 -0.4898 0
M  V30 8 C -1.3917 -0.4795 1.484 0
M  V30 9 C -2.3024 -0.7221 -0.8333 0
M  V30 10 C 2.7173 -0.9285 -0.3917 0
M  V30 11 H -1.0792 1.6036 -1.3073 0
M  V30 12 H -1.9142 1.8732 0.2571 0
M  V30 13 H 2.3732 1.7027 0.5271 0
M  V30 14 H 1.7272 1.4934 -1.1426 0
M  V30 15 H 1.4379 -0.4389 1.2534 0
M  V30 16 H 0.2725 -0.735 -1.5949 0
M  V30 17 H 0.1475 -1.9343 -0.2707 0
M  V30 18 H -1.3863 -1.5769 1.6594 0
M  V30 19 H -0.6297 -0.0155 2.1433 0
M  V30 20 H -2.3828 -0.084 1.7951 0
M  V30 21 H -2.3961 -1.8203 -0.6894 0
M  V30 22 H -2.1523 -0.5265 -1.917 0
M  V30 23 H -3.2589 -0.246 -0.5262 0
M  V30 24 H 2.6796 -2.0195 -0.1862 0
M  V30 25 H 3.6242 -0.5151 0.0989 0
M  V30 26 H 2.8012 -0.7734 -1.4889 0
M  V30 END ATOM
M  V30 BEGIN BOND
M  V30 1 2 1 2
M  V30 2 1 2 3
M  V30 3 1 2 4
M  V30 4 1 3 5
M  V30 5 1 4 6
M  V30 6 1 5 7
M  V30 7 1 5 8
M  V30 8 1 5 9
M  V30 9 1 6 10
M  V30 10 1 6 7
M  V30 11 1 3 11
M  V30 12 1 3 12
M  V30 13 1 4 13
M  V30 14 1 4 14
M  V30 15 1 6 15
M  V30 16 1 7 16
M  V30 17 1 7 17
M  V30 18 1 8 18
M  V30 19 1 8 19
M  V30 20 1 8 20
M  V30 21 1 9 21
M  V30 22 1 9 22
M  V30 23 1 9 23
M  V30 24 1 10 24
M  V30 25 1 10 25
M  V30 26 1 10 26
M  V30 END BOND
M  V30 BEGIN COLLECTION
M  V30 MDLV30/STEABS ATOMS=(1 6)
M  V30 END COLLECTION
M  V30 END CTAB
M  END
>  <Structure No>
55

>  <LogS>
-1.647141463

>  <MMFF94 Energy>
19.122

$$$$
Compound 56
Actelion Java MolfileCreator 2.0

  0  0  0  0  0  0              0 V3000
M  V30 BEGIN CTAB
M  V30 COUNTS 36 37 0 0 0
M  V30 BEGIN ATOM
M  V30 1 O 4.2924 -0.635 1.3498 0
M  V30 2 C 4.4422 -0.793 0.1063 0
M  V30 3 O 3.3464 -0.7012 -0.7557 0
M  V30 4 C 5.77 -1.0762 -0.46 0
M  V30 5 C 2.0269 -0.4298 -0.2945 0
M  V30 6 C 6.8638 -1.179 0.2926 0
M  V30 7 C 1.0684 -0.4015 -1.4814 0
M  V30 8 O -0.2714 -0.1806 -1.0416 0
M  V30 9 C -0.7982 1.0406 -0.583 0
M  V30 10 C -2.0963 1.0561 -0.0239 0
M  V30 11 C -0.0815 2.2505 -0.691 0
M  V30 12 C -2.8773 -0.1946 0.1327 0
M  V30 13 C -2.6562 2.2758 0.3957 0
M  V30 14 C -0.6495 3.451 -0.2602 0
M  V30 15 C -2.3083 -1.3207 0.7551 0
M  V30 16 C -4.2071 -0.2623 -0.3199 0
M  V30 17 C -1.9348 3.4644 0.279 0
M  V30 18 C -3.0523 -2.4946 0.9075 0
M  V30 19 C -4.9469 -1.4386 -0.1652 0
M  V30 20 C -4.3697 -2.5542 0.4465 0
M  V30 21 H 5.8582 -1.2054 -1.5314 0
M  V30 22 H 1.7086 -1.2248 0.4146 0
M  V30 23 H 2.0125 0.548 0.2317 0
M  V30 24 H 6.8251 -1.0576 1.3678 0
M  V30 25 H 7.8191 -1.3888 -0.1706 0
M  V30 26 H 1.1072 -1.3889 -1.9879 0
M  V30 27 H 1.3726 0.3634 -2.2265 0
M  V30 28 H 0.911 2.2808 -1.1155 0
M  V30 29 H -3.6479 2.3044 0.8305 0
M  V30 30 H -0.0924 4.3748 -0.3492 0
M  V30 31 H -1.2948 -1.2862 1.1353 0
M  V30 32 H -4.6671 0.5908 -0.8031 0
M  V30 33 H -2.3721 4.3973 0.6107 0
M  V30 34 H -2.6084 -3.357 1.3875 0
M  V30 35 H -5.9681 -1.4856 -0.521 0
M  V30 36 H -4.9442 -3.4636 0.5658 0
M  V30 END ATOM
M  V30 BEGIN BOND
M  V30 1 2 1 2
M  V30 2 1 2 3
M  V30 3 1 2 4
M  V30 4 1 3 5
M  V30 5 2 4 6
M  V30 6 1 5 7
M  V30 7 1 7 8
M  V30 8 1 8 9
M  V30 9 2 9 10
M  V30 10 1 9 11
M  V30 11 1 10 12
M  V30 12 1 10 13
M  V30 13 2 11 14
M  V30 14 2 12 15
M  V30 15 1 12 16
M  V30 16 2 13 17
M  V30 17 1 15 18
M  V30 18 2 16 19
M  V30 19 2 18 20
M  V30 20 1 14 17
M  V30 21 1 19 20
M  V30 22 1 4 21
M  V30 23 1 5 22
M  V30 24 1 5 23
M  V30 25 1 6 24
M  V30 26 1 6 25
M  V30 27 1 7 26
M  V30 28 1 7 27
M  V30 29 1 11 28
M  V30 30 1 13 29
M  V30 31 1 14 30
M  V30 32 1 15 31
M  V30 33 1 16 32
M  V30 34 1 17 33
M  V30 35 1 18 34
M  V30 36 1 19 35
M  V30 37 1 20 36
M  V30 END BOND
M  V30 END CTAB
M  END
>  <Structure No>
56

>  <LogS>
-3.951518842

>  <MMFF94 Energy>
61.128

$$$$
Compound 57
Actelion Java MolfileCreator 2.0

  0  0  0  0  0  0              0 V3000
M  V30 BEGIN CTAB
M  V30 COUNTS 57 56 0 0 0
M  V30 BEGIN ATOM
M  V30 1 S -1.6585 -3.4853 5.4809 0
M  V30 2 C -1.1413 -2.9681 3.8151 0
M  V30 3 C -1.8881 -3.7714 2.752 0
M  V30 4 C -1.4947 -3.3107 1.3861 0
M  V30 5 O -0.555 -3.8904 0.7758 0
M  V30 6 O -2.1425 -2.2036 0.8265 0
M  V30 7 C -1.7404 -1.5732 -0.3913 0
M  V30 8 C -0.8009 -0.3599 -0.1365 0
M  V30 9 C -1.495 0.6045 0.8627 0
M  V30 10 C -0.5682 0.3868 -1.4806 0
M  V30 11 C 0.547 -0.8571 0.4591 0
M  V30 12 O -0.7125 1.7787 1.0709 0
M  V30 13 O 0.0974 -0.4378 -2.4402 0
M  V30 14 O 1.4715 0.2143 0.6541 0
M  V30 15 C -1.0882 2.7924 1.9559 0
M  V30 16 C -0.5593 -1.1264 -3.4675 0
M  V30 17 C 2.5286 0.5099 -0.214 0
M  V30 18 O -2.1639 2.7108 2.61 0
M  V30 19 C -0.2167 4.0006 2.1035 0
M  V30 20 O -1.8116 -1.0513 -3.5995 0
M  V30 21 C 0.2316 -1.9928 -4.3976 0
M  V30 22 O 2.7949 -0.2398 -1.1925 0
M  V30 23 C 3.319 1.76 -5.0E-4 0
M  V30 24 C -0.7802 5.1958 1.3325 0
M  V30 25 C 0.3364 -3.4266 -3.8748 0
M  V30 26 C 2.7069 2.9137 -0.7934 0
M  V30 27 S -0.749 4.8985 -0.4656 0
M  V30 28 S 1.4161 -3.5314 -2.4106 0
M  V30 29 S 3.5968 4.4632 -0.4537 0
M  V30 30 H -1.0569 -4.7515 5.3586 0
M  V30 31 H -1.3604 -1.8845 3.6986 0
M  V30 32 H -0.0451 -3.1227 3.7126 0
M  V30 33 H -2.9834 -3.6328 2.8796 0
M  V30 34 H -1.6598 -4.854 2.8626 0
M  V30 35 H -2.6613 -1.216 -0.9 0
M  V30 36 H -1.2678 -2.3149 -1.0708 0
M  V30 37 H -1.6478 0.097 1.8408 0
M  V30 38 H -2.4934 0.9012 0.4706 0
M  V30 39 H -1.5306 0.7688 -1.889 0
M  V30 40 H 0.0625 1.2838 -1.3117 0
M  V30 41 H 0.9922 -1.651 -0.1761 0
M  V30 42 H 0.3638 -1.3144 1.4532 0
M  V30 43 H 0.8098 3.7711 1.7456 0
M  V30 44 H -0.1458 4.2652 3.1809 0
M  V30 45 H 1.2455 -1.5617 -4.5421 0
M  V30 46 H -0.2692 -2.0088 -5.3894 0
M  V30 47 H 4.3715 1.5955 -0.3212 0
M  V30 48 H 3.3175 2.01 1.0836 0
M  V30 49 H -1.823 5.4053 1.6571 0
M  V30 50 H -0.161 6.0908 1.552 0
M  V30 51 H -0.672 -3.8148 -3.6149 0
M  V30 52 H 0.7602 -4.0759 -4.6696 0
M  V30 53 H 2.752 2.6992 -1.8831 0
M  V30 54 H 1.6454 3.0507 -0.5003 0
M  V30 55 H -1.2778 6.1732 -0.7457 0
M  V30 56 H 2.5755 -3.2082 -3.1386 0
M  V30 57 H 4.7804 4.0126 -1.0693 0
M  V30 END ATOM
M  V30 BEGIN BOND
M  V30 1 1 1 2
M  V30 2 1 2 3
M  V30 3 1 3 4
M  V30 4 2 4 5
M  V30 5 1 4 6
M  V30 6 1 6 7
M  V30 7 1 7 8
M  V30 8 1 8 9
M  V30 9 1 8 10
M  V30 10 1 8 11
M  V30 11 1 9 12
M  V30 12 1 10 13
M  V30 13 1 11 14
M  V30 14 1 12 15
M  V30 15 1 13 16
M  V30 16 1 14 17
M  V30 17 2 15 18
M  V30 18 1 15 19
M  V30 19 2 16 20
M  V30 20 1 16 21
M  V30 21 2 17 22
M  V30 22 1 17 23
M  V30 23 1 19 24
M  V30 24 1 21 25
M  V30 25 1 23 26
M  V30 26 1 24 27
M  V30 27 1 25 28
M  V30 28 1 26 29
M  V30 29 1 1 30
M  V30 30 1 2 31
M  V30 31 1 2 32
M  V30 32 1 3 33
M  V30 33 1 3 34
M  V30 34 1 7 35
M  V30 35 1 7 36
M  V30 36 1 9 37
M  V30 37 1 9 38
M  V30 38 1 10 39
M  V30 39 1 10 40
M  V30 40 1 11 41
M  V30 41 1 11 42
M  V30 42 1 19 43
M  V30 43 1 19 44
M  V30 44 1 21 45
M  V30 45 1 21 46
M  V30 46 1 23 47
M  V30 47 1 23 48
M  V30 48 1 24 49
M  V30 49 1 24 50
M  V30 50 1 25 51
M  V30 51 1 25 52
M  V30 52 1 26 53
M  V30 53 1 26 54
M  V30 54 1 27 55
M  V30 55 1 28 56
M  V30 56 1 29 57
M  V30 END BOND
M  V30 END CTAB
M  END
>  <Structure No>
57

>  <LogS>
-5.123168748

>  <MMFF94 Energy>
-51.074

$$$$
Compound 58
Actelion Java MolfileCreator 2.0

  0  0  0  0  0  0              0 V3000
M  V30 BEGIN CTAB
M  V30 COUNTS 45 46 0 0 0
M  V30 BEGIN ATOM
M  V30 1 O -4.6759 0.0791 -1.9 0
M  V30 2 C -3.5734 0.0448 -1.0398 0
M  V30 3 C -2.5049 -0.8144 -1.3438 0
M  V30 4 C -3.5186 0.8482 0.1194 0
M  V30 5 C -1.3913 -0.8708 -0.4951 0
M  V30 6 C -2.5617 -1.6854 -2.5683 0
M  V30 7 C -2.3926 0.7832 0.9568 0
M  V30 8 C -4.6524 1.772 0.476 0
M  V30 9 C -1.3036 -0.0614 0.6544 0
M  V30 10 C -0.0608 -0.1816 1.5604 0
M  V30 11 C 1.2146 -0.0751 0.6991 0
M  V30 12 C -0.181 -1.5316 2.3086 0
M  V30 13 C 0.0259 0.935 2.6291 0
M  V30 14 C 2.2958 -0.9738 0.8178 0
M  V30 15 C 1.3402 0.9978 -0.2047 0
M  V30 16 C 3.4517 -0.8305 0.0325 0
M  V30 17 C 2.4839 1.1524 -0.9992 0
M  V30 18 C 3.5447 0.2392 -0.8834 0
M  V30 19 C 4.5761 -1.8197 0.1852 0
M  V30 20 C 2.581 2.3042 -1.9611 0
M  V30 21 O 4.6778 0.4181 -1.6837 0
M  V30 22 H -5.4822 0.671 -1.7466 0
M  V30 23 H -0.5805 -1.5491 -0.7324 0
M  V30 24 H -1.6224 -2.2616 -2.7073 0
M  V30 25 H -2.7177 -1.0562 -3.4698 0
M  V30 26 H -3.4033 -2.4036 -2.4754 0
M  V30 27 H -2.3814 1.3998 1.8432 0
M  V30 28 H -5.5841 1.1854 0.6199 0
M  V30 29 H -4.4519 2.3303 1.4152 0
M  V30 30 H -4.802 2.5141 -0.3361 0
M  V30 31 H 0.6087 -1.6363 3.0835 0
M  V30 32 H -1.162 -1.5994 2.8279 0
M  V30 33 H -0.109 -2.3873 1.6033 0
M  V30 34 H 0.987 0.865 3.1839 0
M  V30 35 H -0.7918 0.8444 3.3762 0
M  V30 36 H -0.0244 1.9414 2.1606 0
M  V30 37 H 2.2553 -1.7941 1.5188 0
M  V30 38 H 0.5352 1.718 -0.2924 0
M  V30 39 H 4.3441 -2.5959 0.9451 0
M  V30 40 H 5.499 -1.2925 0.5061 0
M  V30 41 H 4.7583 -2.3332 -0.7821 0
M  V30 42 H 3.4151 2.972 -1.6593 0
M  V30 43 H 2.7725 1.9224 -2.986 0
M  V30 44 H 1.6444 2.9012 -1.9842 0
M  V30 45 H 5.4805 -0.1969 -1.6557 0
M  V30 END ATOM
M  V30 BEGIN BOND
M  V30 1 1 1 2
M  V30 2 2 2 3
M  V30 3 1 2 4
M  V30 4 1 3 5
M  V30 5 1 3 6
M  V30 6 2 4 7
M  V30 7 1 4 8
M  V30 8 2 5 9
M  V30 9 1 9 10
M  V30 10 1 10 11
M  V30 11 1 10 12
M  V30 12 1 10 13
M  V30 13 2 11 14
M  V30 14 1 11 15
M  V30 15 1 14 16
M  V30 16 2 15 17
M  V30 17 2 16 18
M  V30 18 1 16 19
M  V30 19 1 17 20
M  V30 20 1 18 21
M  V30 21 1 7 9
M  V30 22 1 17 18
M  V30 23 1 1 22
M  V30 24 1 5 23
M  V30 25 1 6 24
M  V30 26 1 6 25
M  V30 27 1 6 26
M  V30 28 1 7 27
M  V30 29 1 8 28
M  V30 30 1 8 29
M  V30 31 1 8 30
M  V30 32 1 12 31
M  V30 33 1 12 32
M  V30 34 1 12 33
M  V30 35 1 13 34
M  V30 36 1 13 35
M  V30 37 1 13 36
M  V30 38 1 14 37
M  V30 39 1 15 38
M  V30 40 1 19 39
M  V30 41 1 19 40
M  V30 42 1 19 41
M  V30 43 1 20 42
M  V30 44 1 20 43
M  V30 45 1 20 44
M  V30 46 1 21 45
M  V30 END BOND
M  V30 END CTAB
M  END
>  <Structure No>
58

>  <LogS>
-4.952868803

>  <MMFF94 Energy>
58.7

$$$$
Compound 59
Actelion Java MolfileCreator 2.0

  0  0  0  0  0  0              0 V3000
M  V30 BEGIN CTAB
M  V30 COUNTS 63 62 0 0 0
M  V30 BEGIN ATOM
M  V30 1 O 0 0 0 0
M  V30 2 C 0 0 0 0
M  V30 3 O 0 0 0 0
M  V30 4 C 0 0 0 0
M  V30 5 C 0 0 0 0
M  V30 6 C 0 0 0 0
M  V30 7 C 0 0 0 0
M  V30 8 C 0 0 0 0
M  V30 9 C 0 0 0 0
M  V30 10 O 0 0 0 0
M  V30 11 O 0 0 0 0
M  V30 12 C 0 0 0 0
M  V30 13 C 0 0 0 0
M  V30 14 C 0 0 0 0
M  V30 15 C 0 0 0 0
M  V30 16 O 0 0 0 0
M  V30 17 C 0 0 0 0
M  V30 18 O 0 0 0 0
M  V30 19 C 0 0 0 0
M  V30 20 C 0 0 0 0
M  V30 21 C 0 0 0 0
M  V30 22 C 0 0 0 0
M  V30 23 C 0 0 0 0
M  V30 24 C 0 0 0 0
M  V30 25 C 0 0 0 0
M  V30 26 C 0 0 0 0
M  V30 27 C 0 0 0 0
M  V30 28 C 0 0 0 0
M  V30 29 C 0 0 0 0
M  V30 30 C 0 0 0 0
M  V30 31 C 0 0 0 0
M  V30 32 C 0 0 0 0
M  V30 33 C 0 0 0 0
M  V30 34 C 0 0 0 0
M  V30 35 C 0 0 0 0
M  V30 36 C 0 0 0 0
M  V30 37 C 0 0 0 0
M  V30 38 C 0 0 0 0
M  V30 39 C 0 0 0 0
M  V30 40 C 0 0 0 0
M  V30 41 C 0 0 0 0
M  V30 42 C 0 0 0 0
M  V30 43 C 0 0 0 0
M  V30 44 C 0 0 0 0
M  V30 45 C 0 0 0 0
M  V30 46 C 0 0 0 0
M  V30 47 C 0 0 0 0
M  V30 48 C 0 0 0 0
M  V30 49 C 0 0 0 0
M  V30 50 C 0 0 0 0
M  V30 51 C 0 0 0 0
M  V30 52 C 0 0 0 0
M  V30 53 C 0 0 0 0
M  V30 54 C 0 0 0 0
M  V30 55 C 0 0 0 0
M  V30 56 C 0 0 0 0
M  V30 57 C 0 0 0 0
M  V30 58 C 0 0 0 0
M  V30 59 C 0 0 0 0
M  V30 60 C 0 0 0 0
M  V30 61 C 0 0 0 0
M  V30 62 C 0 0 0 0
M  V30 63 C 0 0 0 0
M  V30 END ATOM
M  V30 BEGIN BOND
M  V30 1 2 1 2
M  V30 2 1 2 3
M  V30 3 1 2 4
M  V30 4 1 3 5
M  V30 5 1 4 6
M  V30 6 1 5 7
M  V30 7 1 5 8
M  V30 8 1 6 9
M  V30 9 1 7 10
M  V30 10 1 8 11
M  V30 11 1 9 12
M  V30 12 1 10 13
M  V30 13 1 11 14
M  V30 14 1 12 15
M  V30 15 2 13 16
M  V30 16 1 13 17
M  V30 17 2 14 18
M  V30 18 1 14 19
M  V30 19 1 15 20
M  V30 20 1 17 21
M  V30 21 1 19 22
M  V30 22 1 20 23
M  V30 23 1 21 24
M  V30 24 1 22 25
M  V30 25 1 23 26
M  V30 26 1 24 27
M  V30 27 1 25 28
M  V30 28 1 26 29
M  V30 29 1 27 30
M  V30 30 1 28 31
M  V30 31 1 29 32
M  V30 32 1 30 33
M  V30 33 1 31 34
M  V30 34 1 32 35
M  V30 35 1 33 36
M  V30 36 1 34 37
M  V30 37 1 35 38
M  V30 38 1 36 39
M  V30 39 1 37 40
M  V30 40 1 38 41
M  V30 41 1 39 42
M  V30 42 1 40 43
M  V30 43 1 41 44
M  V30 44 1 42 45
M  V30 45 1 43 46
M  V30 46 1 44 47
M  V30 47 1 45 48
M  V30 48 1 46 49
M  V30 49 1 47 50
M  V30 50 1 48 51
M  V30 51 1 49 52
M  V30 52 1 50 53
M  V30 53 1 51 54
M  V30 54 1 52 55
M  V30 55 1 54 56
M  V30 56 1 55 57
M  V30 57 1 56 58
M  V30 58 1 57 59
M  V30 59 1 58 60
M  V30 60 1 59 61
M  V30 61 1 60 62
M  V30 62 1 61 63
M  V30 END BOND
M  V30 END CTAB
M  END
>  <Structure No>
59

>  <LogS>
-5.47300058

>  <MMFF94 Energy>
-24.58

$$$$
Compound 60
Actelion Java MolfileCreator 2.0

  0  0  0  0  0  0              0 V3000
M  V30 BEGIN CTAB
M  V30 COUNTS 35 34 0 0 0
M  V30 BEGIN ATOM
M  V30 1 O 1.8716 0.7015 2.1057 0
M  V30 2 C 1.8325 0.6184 0.8476 0
M  V30 3 O 3.007 0.4639 0.106 0
M  V30 4 C 0.5109 0.6445 0.1398 0
M  V30 5 C 4.2923 0.3873 0.7125 0
M  V30 6 C -0.2465 -0.7006 0.2429 0 CFG=1
M  V30 7 C 5.3521 0.2083 -0.3623 0
M  V30 8 C -1.5599 -0.718 -0.5974 0
M  V30 9 C 0.6493 -1.8678 -0.2214 0
M  V30 10 C -2.7532 0.2103 -0.1711 0
M  V30 11 C -4.0663 -0.4265 -0.6852 0
M  V30 12 C -2.6406 1.6075 -0.824 0
M  V30 13 C -2.8675 0.3559 1.3611 0
M  V30 14 H -0.0775 1.4474 0.6179 0
M  V30 15 H 0.6691 0.9135 -0.9271 0
M  V30 16 H 4.3271 -0.4776 1.4098 0
M  V30 17 H 4.4967 1.322 1.2787 0
M  V30 18 H -0.4919 -0.8922 1.3095 0
M  V30 19 H 5.3325 1.0707 -1.0617 0
M  V30 20 H 6.3562 0.1471 0.1075 0
M  V30 21 H 5.1615 -0.7267 -0.9303 0
M  V30 22 H -1.93 -1.7675 -0.5668 0
M  V30 23 H -1.3079 -0.5297 -1.6648 0
M  V30 24 H 0.0958 -2.8298 -0.1738 0
M  V30 25 H 1.5357 -1.9757 0.4381 0
M  V30 26 H 0.9933 -1.7044 -1.2653 0
M  V30 27 H -4.026 -0.5703 -1.7868 0
M  V30 28 H -4.2384 -1.4171 -0.2108 0
M  V30 29 H -4.9422 0.2171 -0.4513 0
M  V30 30 H -2.5405 1.5184 -1.9271 0
M  V30 31 H -1.7816 2.1876 -0.4463 0
M  V30 32 H -3.5503 2.2104 -0.612 0
M  V30 33 H -2.007 0.9137 1.7825 0
M  V30 34 H -2.916 -0.6437 1.844 0
M  V30 35 H -3.7877 0.9171 1.6334 0
M  V30 END ATOM
M  V30 BEGIN BOND
M  V30 1 2 1 2
M  V30 2 1 2 3
M  V30 3 1 2 4
M  V30 4 1 3 5
M  V30 5 1 4 6
M  V30 6 1 5 7
M  V30 7 1 6 8
M  V30 8 1 6 9
M  V30 9 1 8 10
M  V30 10 1 10 11
M  V30 11 1 10 12
M  V30 12 1 10 13
M  V30 13 1 4 14
M  V30 14 1 4 15
M  V30 15 1 5 16
M  V30 16 1 5 17
M  V30 17 1 6 18
M  V30 18 1 7 19
M  V30 19 1 7 20
M  V30 20 1 7 21
M  V30 21 1 8 22
M  V30 22 1 8 23
M  V30 23 1 9 24
M  V30 24 1 9 25
M  V30 25 1 9 26
M  V30 26 1 11 27
M  V30 27 1 11 28
M  V30 28 1 11 29
M  V30 29 1 12 30
M  V30 30 1 12 31
M  V30 31 1 12 32
M  V30 32 1 13 33
M  V30 33 1 13 34
M  V30 34 1 13 35
M  V30 END BOND
M  V30 BEGIN COLLECTION
M  V30 MDLV30/STEABS ATOMS=(1 6)
M  V30 END COLLECTION
M  V30 END CTAB
M  END
>  <Structure No>
60

>  <LogS>
-3.823043168

>  <MMFF94 Energy>
10.475

$$$$
Compound 61
Actelion Java MolfileCreator 2.0

  0  0  0  0  0  0              0 V3000
M  V30 BEGIN CTAB
M  V30 COUNTS 20 20 0 0 0
M  V30 BEGIN ATOM
M  V30 1 N 1.406 -0.3904 1.2497 0
M  V30 2 C 2.0139 0.2751 0.2298 0
M  V30 3 C 0.1155 -0.8104 1.1656 0
M  V30 4 C 1.2972 0.5569 -0.9396 0
M  V30 5 C 3.4306 0.7305 0.3772 0
M  V30 6 C -0.6318 -0.5663 0.004 0
M  V30 7 C -0.0292 0.1363 -1.0488 0
M  V30 8 C -2.0711 -0.9961 -0.086 0
M  V30 9 C -2.9955 0.0976 0.4381 0
M  V30 10 H -0.3281 -1.3316 2.0042 0
M  V30 11 H 1.7606 1.0987 -1.755 0
M  V30 12 H 3.8811 0.3102 1.3013 0
M  V30 13 H 3.4616 1.8388 0.435 0
M  V30 14 H 4.0296 0.3921 -0.4945 0
M  V30 15 H -0.5865 0.3593 -1.9502 0
M  V30 16 H -2.23 -1.9246 0.5045 0
M  V30 17 H -2.3356 -1.2253 -1.1412 0
M  V30 18 H -2.7676 0.3176 1.5031 0
M  V30 19 H -4.0507 -0.2394 0.3627 0
M  V30 20 H -2.8746 1.0249 -0.1618 0
M  V30 END ATOM
M  V30 BEGIN BOND
M  V30 1 2 1 2
M  V30 2 1 1 3
M  V30 3 1 2 4
M  V30 4 1 2 5
M  V30 5 2 3 6
M  V30 6 2 4 7
M  V30 7 1 6 8
M  V30 8 1 8 9
M  V30 9 1 6 7
M  V30 10 1 3 10
M  V30 11 1 4 11
M  V30 12 1 5 12
M  V30 13 1 5 13
M  V30 14 1 5 14
M  V30 15 1 7 15
M  V30 16 1 8 16
M  V30 17 1 8 17
M  V30 18 1 9 18
M  V30 19 1 9 19
M  V30 20 1 9 20
M  V30 END BOND
M  V30 END CTAB
M  END
>  <Structure No>
61

>  <LogS>
-1.004260454

>  <MMFF94 Energy>
18.983

$$$$
Compound 62
Actelion Java MolfileCreator 2.0

  0  0  0  0  0  0              0 V3000
M  V30 BEGIN CTAB
M  V30 COUNTS 40 40 0 0 0
M  V30 BEGIN ATOM
M  V30 1 O 1.9747 -1.4214 2.0537 0
M  V30 2 C 1.8908 -1.32 0.7992 0
M  V30 3 O 0.7699 -0.7333 0.2016 0
M  V30 4 C 3.0103 -1.8103 -0.0648 0 CFG=1
M  V30 5 C -0.2975 -0.1294 0.9363 0 CFG=2
M  V30 6 O 2.4847 -2.6405 -1.0659 0
M  V30 7 C 3.7374 -0.6222 -0.6963 0
M  V30 8 C -1.5453 0.0195 0.0204 0 CFG=2
M  V30 9 C 0.1451 1.2324 1.5039 0
M  V30 10 C -1.9932 -1.3506 -0.5951 0
M  V30 11 C -1.263 1.0702 -1.0857 0
M  V30 12 C 0.4377 2.2405 0.3812 0 CFG=1
M  V30 13 C -2.2168 -2.427 0.484 0
M  V30 14 C -3.2815 -1.2115 -1.4288 0
M  V30 15 C -0.8059 2.4128 -0.503 0
M  V30 16 C 0.873 3.588 0.9671 0
M  V30 17 H 3.7311 -2.3845 0.5633 0
M  V30 18 H -0.5616 -0.7691 1.8057 0
M  V30 19 H 3.2482 -3.1479 -1.4474 0
M  V30 20 H 4.5884 -0.9841 -1.3112 0
M  V30 21 H 4.1362 0.0488 0.0946 0
M  V30 22 H 3.047 -0.0441 -1.3482 0
M  V30 23 H -2.3818 0.4023 0.6488 0
M  V30 24 H 1.0542 1.0965 2.1286 0
M  V30 25 H -0.6568 1.6277 2.1669 0
M  V30 26 H -1.194 -1.7203 -1.2755 0
M  V30 27 H -0.4879 0.6875 -1.7858 0
M  V30 28 H -2.1838 1.2719 -1.6703 0
M  V30 29 H 1.2749 1.8558 -0.2436 0
M  V30 30 H -2.6612 -3.3437 0.0408 0
M  V30 31 H -2.8968 -2.0502 1.2779 0
M  V30 32 H -1.2526 -2.7366 0.9373 0
M  V30 33 H -3.6569 -2.2089 -1.7429 0
M  V30 34 H -4.076 -0.7026 -0.842 0
M  V30 35 H -3.0902 -0.6445 -2.3623 0
M  V30 36 H -0.5736 3.1058 -1.3411 0
M  V30 37 H -1.637 2.8579 0.0886 0
M  V30 38 H 1.1044 4.3033 0.1492 0
M  V30 39 H 1.7887 3.4586 1.5826 0
M  V30 40 H 0.0703 4.0186 1.604 0
M  V30 END ATOM
M  V30 BEGIN BOND
M  V30 1 2 1 2
M  V30 2 1 2 3
M  V30 3 1 2 4
M  V30 4 1 3 5
M  V30 5 1 4 6
M  V30 6 1 4 7
M  V30 7 1 5 8
M  V30 8 1 5 9
M  V30 9 1 8 10
M  V30 10 1 8 11
M  V30 11 1 9 12
M  V30 12 1 10 13
M  V30 13 1 10 14
M  V30 14 1 11 15
M  V30 15 1 12 16
M  V30 16 1 12 15
M  V30 17 1 4 17
M  V30 18 1 5 18
M  V30 19 1 6 19
M  V30 20 1 7 20
M  V30 21 1 7 21
M  V30 22 1 7 22
M  V30 23 1 8 23
M  V30 24 1 9 24
M  V30 25 1 9 25
M  V30 26 1 10 26
M  V30 27 1 11 27
M  V30 28 1 11 28
M  V30 29 1 12 29
M  V30 30 1 13 30
M  V30 31 1 13 31
M  V30 32 1 13 32
M  V30 33 1 14 33
M  V30 34 1 14 34
M  V30 35 1 14 35
M  V30 36 1 15 36
M  V30 37 1 15 37
M  V30 38 1 16 38
M  V30 39 1 16 39
M  V30 40 1 16 40
M  V30 END BOND
M  V30 BEGIN COLLECTION
M  V30 MDLV30/STEABS ATOMS=(4 4 5 8 12)
M  V30 END COLLECTION
M  V30 END CTAB
M  END
>  <Structure No>
62

>  <LogS>
-2.979987205

>  <MMFF94 Energy>
43.943

$$$$
Compound 63
Actelion Java MolfileCreator 2.0

  0  0  0  0  0  0              0 V3000
M  V30 BEGIN CTAB
M  V30 COUNTS 54 57 0 0 0
M  V30 BEGIN ATOM
M  V30 1 O -5.7652 -1.6214 -2.1083 0
M  V30 2 C -4.8652 -1.0225 -1.4627 0
M  V30 3 C -4.2225 -1.6717 -0.321 0
M  V30 4 C -4.4474 0.3192 -1.8584 0
M  V30 5 C -3.2665 -1.0471 0.3848 0
M  V30 6 C -3.5187 0.9732 -1.1607 0
M  V30 7 C -2.8714 0.4192 0.1122 0 CFG=2
M  V30 8 C -2.6007 -1.808 1.5149 0
M  V30 9 C -1.2802 0.5825 0.1032 0 CFG=2
M  V30 10 C -3.4709 1.261 1.264 0
M  V30 11 C -1.2114 -1.2536 1.8619 0
M  V30 12 C -0.6474 1.0164 -1.2424 0 CFG=2
M  V30 13 C -0.5344 -0.6866 0.6041 0 CFG=2
M  V30 14 O -0.8946 0.0565 -2.2378 0
M  V30 15 C 0.866 1.2833 -1.0816 0
M  V30 16 C 0.9875 -0.464 0.803 0 CFG=1
M  V30 17 C 1.7074 0.125 -0.4347 0 CFG=2
M  V30 18 C 1.38 0.4286 1.9934 0
M  V30 19 C 3.0364 0.7047 0.1783 0 CFG=2
M  V30 20 C 1.984 -0.9689 -1.5013 0
M  V30 21 C 2.6087 1.2325 1.5614 0
M  V30 22 O 3.5354 1.786 -0.5789 0
M  V30 23 C 4.1392 -0.3477 0.3739 0
M  V30 24 O 3.9543 -1.2834 1.1407 0
M  V30 25 C 5.455 -0.2511 -0.3573 0
M  V30 26 O 6.3213 -1.2768 0.0454 0
M  V30 27 H -4.5084 -2.6884 -0.076 0
M  V30 28 H -4.9086 0.7935 -2.7161 0
M  V30 29 H -3.3085 1.9945 -1.4527 0
M  V30 30 H -2.4735 -2.8721 1.2139 0
M  V30 31 H -3.2526 -1.7858 2.4145 0
M  V30 32 H -1.0373 1.4079 0.8062 0
M  V30 33 H -3.2443 2.3404 1.1215 0
M  V30 34 H -3.0638 0.9579 2.2498 0
M  V30 35 H -4.5765 1.1429 1.3021 0
M  V30 36 H -1.2964 -0.4671 2.6413 0
M  V30 37 H -0.5968 -2.075 2.2912 0
M  V30 38 H -1.0935 1.989 -1.5492 0
M  V30 39 H -0.626 -1.4716 -0.1811 0
M  V30 40 H -0.7175 0.4947 -3.1109 0
M  V30 41 H 0.9588 2.202 -0.4621 0
M  V30 42 H 1.2872 1.5484 -2.0762 0
M  V30 43 H 1.4214 -1.4692 1.0082 0
M  V30 44 H 1.6253 -0.2022 2.876 0
M  V30 45 H 0.5696 1.1237 2.2937 0
M  V30 46 H 1.0444 -1.3843 -1.9119 0
M  V30 47 H 2.5426 -1.8281 -1.0766 0
M  V30 48 H 2.5762 -0.5513 -2.3425 0
M  V30 49 H 3.4223 1.1561 2.3173 0
M  V30 50 H 2.3299 2.3077 1.4928 0
M  V30 51 H 3.6619 1.4708 -1.5112 0
M  V30 52 H 5.922 0.7343 -0.1371 0
M  V30 53 H 5.2672 -0.3333 -1.4504 0
M  V30 54 H 7.1566 -1.1517 -0.4756 0
M  V30 END ATOM
M  V30 BEGIN BOND
M  V30 1 2 1 2
M  V30 2 1 2 3
M  V30 3 1 2 4
M  V30 4 2 3 5
M  V30 5 2 4 6
M  V30 6 1 5 7
M  V30 7 1 5 8
M  V30 8 1 7 9
M  V30 9 1 7 10
M  V30 10 1 8 11
M  V30 11 1 9 12
M  V30 12 1 9 13
M  V30 13 1 12 14
M  V30 14 1 12 15
M  V30 15 1 13 16
M  V30 16 1 15 17
M  V30 17 1 16 18
M  V30 18 1 17 19
M  V30 19 1 17 20
M  V30 20 1 18 21
M  V30 21 1 19 22
M  V30 22 1 19 23
M  V30 23 2 23 24
M  V30 24 1 23 25
M  V30 25 1 25 26
M  V30 26 1 6 7
M  V30 27 1 11 13
M  V30 28 1 16 17
M  V30 29 1 19 21
M  V30 30 1 3 27
M  V30 31 1 4 28
M  V30 32 1 6 29
M  V30 33 1 8 30
M  V30 34 1 8 31
M  V30 35 1 9 32
M  V30 36 1 10 33
M  V30 37 1 10 34
M  V30 38 1 10 35
M  V30 39 1 11 36
M  V30 40 1 11 37
M  V30 41 1 12 38
M  V30 42 1 13 39
M  V30 43 1 14 40
M  V30 44 1 15 41
M  V30 45 1 15 42
M  V30 46 1 16 43
M  V30 47 1 18 44
M  V30 48 1 18 45
M  V30 49 1 20 46
M  V30 50 1 20 47
M  V30 51 1 20 48
M  V30 52 1 21 49
M  V30 53 1 21 50
M  V30 54 1 22 51
M  V30 55 1 25 52
M  V30 56 1 25 53
M  V30 57 1 26 54
M  V30 END BOND
M  V30 BEGIN COLLECTION
M  V30 MDLV30/STEABS ATOMS=(7 7 9 12 13 16 17 19)
M  V30 END COLLECTION
M  V30 END CTAB
M  END
>  <Structure No>
63

>  <LogS>
-3.178447129

>  <MMFF94 Energy>
142.34

$$$$
Compound 64
Actelion Java MolfileCreator 2.0

  0  0  0  0  0  0              0 V3000
M  V30 BEGIN CTAB
M  V30 COUNTS 60 64 0 0 0
M  V30 BEGIN ATOM
M  V30 1 S -5.1913 2.0072 1.0032 0
M  V30 2 O -3.9771 2.7886 1.4201 0
M  V30 3 O -5.5608 1.0296 2.0828 0
M  V30 4 O -6.465 3.081 0.7812 0 CHG=-1
M  V30 5 C -4.8534 1.1352 -0.4969 0
M  V30 6 C -3.6863 0.35 -0.6511 0
M  V30 7 C -5.7581 1.2491 -1.5645 0
M  V30 8 N -2.7568 0.1779 0.4359 0
M  V30 9 C -3.4596 -0.3062 -1.8741 0
M  V30 10 C -5.5098 0.6094 -2.7864 0
M  V30 11 C -1.3458 -0.0131 0.2374 0
M  V30 12 C -4.3633 -0.18 -2.9295 0
M  V30 13 C -6.5025 0.7081 -3.9071 0
M  V30 14 C -0.6211 -1.0008 0.9567 0
M  V30 15 C -0.669 0.8528 -0.6275 0
M  V30 16 C -1.3178 -2.0292 1.7857 0
M  V30 17 C 0.7948 -1.0478 0.8428 0
M  V30 18 C 0.7041 0.755 -0.7974 0
M  V30 19 O -2.573 -2.1448 1.7406 0
M  V30 20 C -0.5435 -2.972 2.622 0
M  V30 21 C 1.5651 -1.9674 1.7324 0
M  V30 22 C 1.4494 -0.1812 -0.0731 0
M  V30 23 C 0.863 -2.9455 2.5919 0
M  V30 24 C -1.2015 -3.9047 3.4468 0
M  V30 25 O 2.8214 -1.8843 1.8053 0
M  V30 26 N 2.8576 -0.2933 -0.3399 0
M  V30 27 C 1.5903 -3.8504 3.3891 0
M  V30 28 C -0.4684 -4.7965 4.2319 0
M  V30 29 C 3.7348 0.8467 -0.4153 0
M  V30 30 C 0.9251 -4.7695 4.2029 0
M  V30 31 C 4.8635 0.844 -1.268 0
M  V30 32 C 3.4959 1.9662 0.4019 0
M  V30 33 S 5.2049 -0.5195 -2.3407 0
M  V30 34 C 5.7207 1.9565 -1.2858 0
M  V30 35 C 4.3512 3.0681 0.3698 0
M  V30 36 O 5.698 -1.6855 -1.5319 0
M  V30 37 O 6.2547 -0.1425 -3.3484 0
M  V30 38 O 3.8067 -0.9517 -3.1663 0 CHG=-1
M  V30 39 C 5.4601 3.076 -0.4838 0
M  V30 40 C 6.4037 4.2425 -0.4869 0
M  V30 41 H -6.6585 1.839 -1.4493 0
M  V30 42 H -3.1005 0.2395 1.4194 0
M  V30 43 H -2.5885 -0.9352 -2.0061 0
M  V30 44 H -4.1711 -0.7044 -3.8574 0
M  V30 45 H -7.2438 -0.1131 -3.8167 0
M  V30 46 H -5.992 0.6292 -4.8907 0
M  V30 47 H -7.0354 1.6824 -3.875 0
M  V30 48 H -1.2132 1.6135 -1.1737 0
M  V30 49 H 1.1942 1.4141 -1.5032 0
M  V30 50 H -2.2829 -3.9443 3.4876 0
M  V30 51 H 3.2371 -1.2454 -0.536 0
M  V30 52 H 2.673 -3.8498 3.383 0
M  V30 53 H -0.9821 -5.5097 4.8638 0
M  V30 54 H 1.4917 -5.4619 4.8121 0
M  V30 55 H 2.6539 1.9792 1.0823 0
M  V30 56 H 6.5929 1.9571 -1.9274 0
M  V30 57 H 4.1507 3.9135 1.0169 0
M  V30 58 H 6.842 4.3868 -1.4973 0
M  V30 59 H 7.2217 4.0574 0.24 0
M  V30 60 H 5.875 5.1784 -0.2062 0
M  V30 END ATOM
M  V30 BEGIN BOND
M  V30 1 2 1 2
M  V30 2 2 1 3
M  V30 3 1 1 4
M  V30 4 1 1 5
M  V30 5 2 5 6
M  V30 6 1 5 7
M  V30 7 1 6 8
M  V30 8 1 6 9
M  V30 9 2 7 10
M  V30 10 1 8 11
M  V30 11 2 9 12
M  V30 12 1 10 13
M  V30 13 2 11 14
M  V30 14 1 11 15
M  V30 15 1 14 16
M  V30 16 1 14 17
M  V30 17 2 15 18
M  V30 18 2 16 19
M  V30 19 1 16 20
M  V30 20 1 17 21
M  V30 21 2 17 22
M  V30 22 2 20 23
M  V30 23 1 20 24
M  V30 24 2 21 25
M  V30 25 1 22 26
M  V30 26 1 23 27
M  V30 27 2 24 28
M  V30 28 1 26 29
M  V30 29 2 27 30
M  V30 30 2 29 31
M  V30 31 1 29 32
M  V30 32 1 31 33
M  V30 33 1 31 34
M  V30 34 2 32 35
M  V30 35 2 33 36
M  V30 36 2 33 37
M  V30 37 1 33 38
M  V30 38 2 34 39
M  V30 39 1 39 40
M  V30 40 1 10 12
M  V30 41 1 18 22
M  V30 42 1 21 23
M  V30 43 1 28 30
M  V30 44 1 35 39
M  V30 45 1 7 41
M  V30 46 1 8 42
M  V30 47 1 9 43
M  V30 48 1 12 44
M  V30 49 1 13 45
M  V30 50 1 13 46
M  V30 51 1 13 47
M  V30 52 1 15 48
M  V30 53 1 18 49
M  V30 54 1 24 50
M  V30 55 1 26 51
M  V30 56 1 27 52
M  V30 57 1 28 53
M  V30 58 1 30 54
M  V30 59 1 32 55
M  V30 60 1 34 56
M  V30 61 1 35 57
M  V30 62 1 40 58
M  V30 63 1 40 59
M  V30 64 1 40 60
M  V30 END BOND
M  V30 END CTAB
M  END
>  <Structure No>
64

>  <LogS>
-1.427031257

>  <MMFF94 Energy>
217.75

$$$$
Compound 65
Actelion Java MolfileCreator 2.0

  0  0  0  0  0  0              0 V3000
M  V30 BEGIN CTAB
M  V30 COUNTS 1 0 0 0 0
M  V30 BEGIN ATOM
M  V30 1 O 0.0 0.0 0.0 0
M  V30 END ATOM
M  V30 BEGIN BOND
M  V30 END BOND
M  V30 END CTAB
M  END
>  <Structure No>
65

>  <LogS>
-4.229152992

>  <MMFF94 Energy>
2.5088e-17

$$$$
Compound 66
Actelion Java MolfileCreator 2.0

  0  0  0  0  0  0              0 V3000
M  V30 BEGIN CTAB
M  V30 COUNTS 29 29 0 0 0
M  V30 BEGIN ATOM
M  V30 1 O 2.9943 -0.3148 -0.7873 0
M  V30 2 C 2.719 0.7489 -0.1663 0
M  V30 3 O 1.3972 1.2061 -0.112 0
M  V30 4 C 3.7969 1.5089 0.5046 0
M  V30 5 C 0.318 0.5168 -0.7343 0
M  V30 6 C 3.5108 2.5941 1.2324 0
M  V30 7 C 5.2153 1.0121 0.431 0
M  V30 8 C -0.9809 1.2793 -0.4886 0
M  V30 9 O -2.0781 0.6289 -1.1303 0
M  V30 10 C -2.7114 -0.5412 -0.6799 0
M  V30 11 C -2.3957 -1.1571 0.5488 0
M  V30 12 C -3.704 -1.1081 -1.4904 0
M  V30 13 C -3.0625 -2.3214 0.9442 0
M  V30 14 C -4.3684 -2.2719 -1.0914 0
M  V30 15 C -4.0472 -2.8787 0.1249 0
M  V30 16 H 0.5015 0.4479 -1.8287 0
M  V30 17 H 0.2447 -0.5094 -0.3167 0
M  V30 18 H 4.29 3.1377 1.7525 0
M  V30 19 H 2.4966 2.9611 1.3269 0
M  V30 20 H 5.9436 1.8168 0.6706 0
M  V30 21 H 5.3519 0.178 1.1507 0
M  V30 22 H 5.4416 0.6477 -0.593 0
M  V30 23 H -0.879 2.2964 -0.9226 0
M  V30 24 H -1.1748 1.4018 0.5982 0
M  V30 25 H -1.6429 -0.748 1.2071 0
M  V30 26 H -3.9597 -0.6448 -2.435 0
M  V30 27 H -2.8162 -2.7911 1.8878 0
M  V30 28 H -5.1323 -2.703 -1.7256 0
M  V30 29 H -4.562 -3.7796 0.4332 0
M  V30 END ATOM
M  V30 BEGIN BOND
M  V30 1 2 1 2
M  V30 2 1 2 3
M  V30 3 1 2 4
M  V30 4 1 3 5
M  V30 5 2 4 6
M  V30 6 1 4 7
M  V30 7 1 5 8
M  V30 8 1 8 9
M  V30 9 1 9 10
M  V30 10 2 10 11
M  V30 11 1 10 12
M  V30 12 1 11 13
M  V30 13 2 12 14
M  V30 14 2 13 15
M  V30 15 1 14 15
M  V30 16 1 5 16
M  V30 17 1 5 17
M  V30 18 1 6 18
M  V30 19 1 6 19
M  V30 20 1 7 20
M  V30 21 1 7 21
M  V30 22 1 7 22
M  V30 23 1 8 23
M  V30 24 1 8 24
M  V30 25 1 11 25
M  V30 26 1 12 26
M  V30 27 1 13 27
M  V30 28 1 14 28
M  V30 29 1 15 29
M  V30 END BOND
M  V30 END CTAB
M  END
>  <Structure No>
66

>  <LogS>
-2.95264717

>  <MMFF94 Energy>
30.054

$$$$
Compound 67
Actelion Java MolfileCreator 2.0

  0  0  0  0  0  0              0 V3000
M  V30 BEGIN CTAB
M  V30 COUNTS 54 55 0 0 0
M  V30 BEGIN ATOM
M  V30 1 O -5.3057 2.0563 -2.6105 0
M  V30 2 C -4.9605 1.5018 -1.3933 0
M  V30 3 C -6.7366 2.0681 -2.7014 0
M  V30 4 C -6.0812 1.1715 -0.7132 0
M  V30 5 C -3.6919 1.2872 -0.8726 0
M  V30 6 O -7.1919 1.4985 -1.4666 0
M  V30 7 C -6.0337 0.6023 0.551 0
M  V30 8 C -3.5749 0.6798 0.4028 0
M  V30 9 C -4.7688 0.3581 1.1359 0
M  V30 10 C -2.1938 0.4962 0.9976 0
M  V30 11 C -4.7348 -0.2539 2.5196 0
M  V30 12 O -1.246 0.2572 -0.0236 0
M  V30 13 C -4.599 -1.7838 2.4752 0
M  V30 14 C 0.0345 0.0857 0.5462 0
M  V30 15 C -5.8648 -2.4699 1.963 0
M  V30 16 C 1.0604 -0.0726 -0.5743 0
M  V30 17 O 2.3409 -0.3496 -0.0384 0
M  V30 18 C 3.0862 0.8368 0.1621 0
M  V30 19 C 3.9531 1.1489 -1.0608 0
M  V30 20 O 4.7306 0.0251 -1.43 0
M  V30 21 C 6.0131 0.0932 -0.8418 0
M  V30 22 C 6.7969 -1.1684 -1.2107 0
M  V30 23 C 8.1581 -1.2528 -0.5037 0
M  V30 24 C 9.1572 -0.2175 -1.0199 0
M  V30 25 H -7.1057 3.1101 -2.8031 0
M  V30 26 H -7.0714 1.4439 -3.5558 0
M  V30 27 H -2.8228 1.5887 -1.4446 0
M  V30 28 H -6.9529 0.3595 1.0687 0
M  V30 29 H -2.1905 -0.3594 1.7044 0
M  V30 30 H -1.9436 1.427 1.5546 0
M  V30 31 H -5.654 0.0169 3.0837 0
M  V30 32 H -3.8975 0.1772 3.1074 0
M  V30 33 H -4.3937 -2.1503 3.5047 0
M  V30 34 H -3.7416 -2.0819 1.8354 0
M  V30 35 H 0.3159 0.9683 1.1656 0
M  V30 36 H 0.0575 -0.8314 1.179 0
M  V30 37 H -6.7459 -2.1595 2.564 0
M  V30 38 H -6.0388 -2.2192 0.8957 0
M  V30 39 H -5.7487 -3.5714 2.0478 0
M  V30 40 H 1.045 0.8198 -1.2422 0
M  V30 41 H 0.7607 -0.9386 -1.201 0
M  V30 42 H 2.4526 1.7192 0.4094 0
M  V30 43 H 3.7469 0.6828 1.0386 0
M  V30 44 H 3.2869 1.3963 -1.912 0
M  V30 45 H 4.5579 2.0661 -0.8709 0
M  V30 46 H 6.5595 0.9832 -1.2259 0
M  V30 47 H 5.9332 0.1518 0.2669 0
M  V30 48 H 6.1966 -2.0558 -0.9123 0
M  V30 49 H 6.9386 -1.212 -2.3121 0
M  V30 50 H 8.0283 -1.1305 0.593 0
M  V30 51 H 8.5833 -2.2638 -0.6802 0
M  V30 52 H 9.2574 -0.2931 -2.1226 0
M  V30 53 H 10.15 -0.4032 -0.5602 0
M  V30 54 H 8.8367 0.8081 -0.7452 0
M  V30 END ATOM
M  V30 BEGIN BOND
M  V30 1 1 1 2
M  V30 2 1 1 3
M  V30 3 2 2 4
M  V30 4 1 2 5
M  V30 5 1 3 6
M  V30 6 1 4 7
M  V30 7 2 5 8
M  V30 8 2 7 9
M  V30 9 1 8 10
M  V30 10 1 9 11
M  V30 11 1 10 12
M  V30 12 1 11 13
M  V30 13 1 12 14
M  V30 14 1 13 15
M  V30 15 1 14 16
M  V30 16 1 16 17
M  V30 17 1 17 18
M  V30 18 1 18 19
M  V30 19 1 19 20
M  V30 20 1 20 21
M  V30 21 1 21 22
M  V30 22 1 22 23
M  V30 23 1 23 24
M  V30 24 1 4 6
M  V30 25 1 8 9
M  V30 26 1 3 25
M  V30 27 1 3 26
M  V30 28 1 5 27
M  V30 29 1 7 28
M  V30 30 1 10 29
M  V30 31 1 10 30
M  V30 32 1 11 31
M  V30 33 1 11 32
M  V30 34 1 13 33
M  V30 35 1 13 34
M  V30 36 1 14 35
M  V30 37 1 14 36
M  V30 38 1 15 37
M  V30 39 1 15 38
M  V30 40 1 15 39
M  V30 41 1 16 40
M  V30 42 1 16 41
M  V30 43 1 18 42
M  V30 44 1 18 43
M  V30 45 1 19 44
M  V30 46 1 19 45
M  V30 47 1 21 46
M  V30 48 1 21 47
M  V30 49 1 22 48
M  V30 50 1 22 49
M  V30 51 1 23 50
M  V30 52 1 23 51
M  V30 53 1 24 52
M  V30 54 1 24 53
M  V30 55 1 24 54
M  V30 END BOND
M  V30 END CTAB
M  END
>  <Structure No>
67

>  <LogS>
-4.151088918

>  <MMFF94 Energy>
76.503

$$$$
Compound 68
Actelion Java MolfileCreator 2.0

  0  0  0  0  0  0              0 V3000
M  V30 BEGIN CTAB
M  V30 COUNTS 5 4 0 0 0
M  V30 BEGIN ATOM
M  V30 1 F -0.0735 1.3253 -0.1471 0
M  V30 2 C -0.0238 -0.0502 -0.0288 0
M  V30 3 H 0.9317 -0.4233 -0.451 0
M  V30 4 H -0.09 -0.3319 1.0421 0
M  V30 5 H -0.8735 -0.4999 -0.5827 0
M  V30 END ATOM
M  V30 BEGIN BOND
M  V30 1 1 1 2
M  V30 2 1 2 3
M  V30 3 1 2 4
M  V30 4 1 2 5
M  V30 END BOND
M  V30 END CTAB
M  END
>  <Structure No>
68

>  <LogS>
-0.175874376

>  <MMFF94 Energy>
0.0964

$$$$
Compound 69
Actelion Java MolfileCreator 2.0

  0  0  0  0  0  0              0 V3000
M  V30 BEGIN CTAB
M  V30 COUNTS 30 31 0 0 0
M  V30 BEGIN ATOM
M  V30 1 O -1.4252 0.0791 0.2374 0
M  V30 2 C -2.7313 0.4827 -0.0767 0
M  V30 3 C -0.941 -1.2554 0.1076 0
M  V30 4 C -3.7061 -0.4157 -0.5555 0
M  V30 5 C -3.0707 1.8312 0.0947 0
M  V30 6 C 0.5181 -1.3141 0.5354 0
M  V30 7 C -4.9948 0.0387 -0.8544 0
M  V30 8 C -4.3601 2.2817 -0.2051 0
M  V30 9 O 1.2996 -0.4733 -0.3099 0
M  V30 10 C -5.3217 1.3859 -0.6794 0
M  V30 11 C 2.6852 -0.2941 -0.1874 0
M  V30 12 C 3.4478 -0.9469 0.8018 0
M  V30 13 C 3.3268 0.5681 -1.0862 0
M  V30 14 C 4.8279 -0.7331 0.8809 0
M  V30 15 C 4.7066 0.7795 -1.0039 0
M  V30 16 C 5.4569 0.1292 -0.0208 0
M  V30 17 H -1.5361 -1.9343 0.7563 0
M  V30 18 H -1.0268 -1.5874 -0.9499 0
M  V30 19 H -3.4788 -1.4631 -0.6994 0
M  V30 20 H -2.3315 2.5321 0.4618 0
M  V30 21 H 0.6048 -0.9746 1.5907 0
M  V30 22 H 0.8769 -2.3632 0.4553 0
M  V30 23 H -5.7406 -0.6543 -1.2218 0
M  V30 24 H -4.6136 3.3253 -0.0696 0
M  V30 25 H -6.3196 1.7354 -0.9113 0
M  V30 26 H 2.9855 -1.6192 1.5116 0
M  V30 27 H 2.7527 1.0762 -1.8509 0
M  V30 28 H 5.4102 -1.2364 1.6421 0
M  V30 29 H 5.194 1.4475 -1.7024 0
M  V30 30 H 6.5248 0.2933 0.042 0
M  V30 END ATOM
M  V30 BEGIN BOND
M  V30 1 1 1 2
M  V30 2 1 1 3
M  V30 3 2 2 4
M  V30 4 1 2 5
M  V30 5 1 3 6
M  V30 6 1 4 7
M  V30 7 2 5 8
M  V30 8 1 6 9
M  V30 9 2 7 10
M  V30 10 1 9 11
M  V30 11 2 11 12
M  V30 12 1 11 13
M  V30 13 1 12 14
M  V30 14 2 13 15
M  V30 15 2 14 16
M  V30 16 1 8 10
M  V30 17 1 15 16
M  V30 18 1 3 17
M  V30 19 1 3 18
M  V30 20 1 4 19
M  V30 21 1 5 20
M  V30 22 1 6 21
M  V30 23 1 6 22
M  V30 24 1 7 23
M  V30 25 1 8 24
M  V30 26 1 10 25
M  V30 27 1 12 26
M  V30 28 1 13 27
M  V30 29 1 14 28
M  V30 30 1 15 29
M  V30 31 1 16 30
M  V30 END BOND
M  V30 END CTAB
M  END
>  <Structure No>
69

>  <LogS>
-3.988526528

>  <MMFF94 Energy>
50.821

$$$$
Compound 70
Actelion Java MolfileCreator 2.0

  0  0  0  0  0  0              0 V3000
M  V30 BEGIN CTAB
M  V30 COUNTS 53 54 0 0 0
M  V30 BEGIN ATOM
M  V30 1 Cl 2.4906 -3.0536 1.8474 0
M  V30 2 C 2.4658 -1.8235 0.5733 0
M  V30 3 C 3.6295 -1.0567 0.3029 0
M  V30 4 C 1.2837 -1.6052 -0.1687 0
M  V30 5 C 3.5852 -0.0333 -0.6859 0
M  V30 6 C 4.9047 -1.3242 1.0871 0
M  V30 7 C 1.3028 -0.6873 -1.2272 0
M  V30 8 C -0.0017 -2.3713 0.1007 0
M  V30 9 N 4.6929 0.8758 -0.8513 0
M  V30 10 C 2.4274 0.1006 -1.4947 0
M  V30 11 C 4.9465 -0.4998 2.3727 0
M  V30 12 C -1.1937 -1.4405 0.214 0
M  V30 13 C 2.3213 1.115 -2.6153 0
M  V30 14 C -1.3668 -0.5925 1.327 0
M  V30 15 C -2.1138 -1.3915 -0.8377 0
M  V30 16 C 1.8734 2.4738 -2.0816 0
M  V30 17 Cl -0.1848 -0.6415 2.6462 0
M  V30 18 C -2.4715 0.294 1.3834 0
M  V30 19 C -3.1856 -0.4914 -0.8287 0
M  V30 20 C -3.3744 0.3622 0.2862 0
M  V30 21 C -2.6635 1.1828 2.6001 0
M  V30 22 C -4.1079 -0.4749 -2.0281 0
M  V30 23 N -4.4636 1.3035 0.2965 0
M  V30 24 C -1.9285 2.5109 2.4281 0
M  V30 25 C -5.309 -1.3906 -1.8054 0
M  V30 26 H 4.9978 -2.4007 1.3428 0
M  V30 27 H 5.806 -1.1207 0.473 0
M  V30 28 H 0.4151 -0.5599 -1.8349 0
M  V30 29 H 0.042 -2.9744 1.029 0
M  V30 30 H -0.1469 -3.1038 -0.7237 0
M  V30 31 H 5.4829 0.9254 -0.1731 0
M  V30 32 H 4.7001 1.6259 -1.5729 0
M  V30 33 H 5.8949 -0.705 2.9135 0
M  V30 34 H 4.0955 -0.7716 3.0322 0
M  V30 35 H 4.8953 0.5866 2.1462 0
M  V30 36 H 1.5826 0.7728 -3.373 0
M  V30 37 H 3.2779 1.2088 -3.1676 0
M  V30 38 H -1.9767 -2.0428 -1.6932 0
M  V30 39 H 1.7764 3.1923 -2.9246 0
M  V30 40 H 2.6144 2.8738 -1.3554 0
M  V30 41 H 0.8883 2.3813 -1.5753 0
M  V30 42 H -3.7406 1.3685 2.7944 0
M  V30 43 H -2.3008 0.6839 3.5237 0
M  V30 44 H -3.5643 -0.8203 -2.9351 0
M  V30 45 H -4.4464 0.5559 -2.2591 0
M  V30 46 H -4.4303 2.1804 0.8598 0
M  V30 47 H -5.3096 1.181 -0.3008 0
M  V30 48 H -0.8344 2.3381 2.3363 0
M  V30 49 H -2.1116 3.155 3.3139 0
M  V30 50 H -2.2863 3.0427 1.5207 0
M  V30 51 H -4.9689 -2.4363 -1.6493 0
M  V30 52 H -5.8943 -1.0656 -0.9195 0
M  V30 53 H -5.9686 -1.3603 -2.6976 0
M  V30 END ATOM
M  V30 BEGIN BOND
M  V30 1 1 1 2
M  V30 2 2 2 3
M  V30 3 1 2 4
M  V30 4 1 3 5
M  V30 5 1 3 6
M  V30 6 2 4 7
M  V30 7 1 4 8
M  V30 8 1 5 9
M  V30 9 2 5 10
M  V30 10 1 6 11
M  V30 11 1 8 12
M  V30 12 1 10 13
M  V30 13 2 12 14
M  V30 14 1 12 15
M  V30 15 1 13 16
M  V30 16 1 14 17
M  V30 17 1 14 18
M  V30 18 2 15 19
M  V30 19 2 18 20
M  V30 20 1 18 21
M  V30 21 1 19 22
M  V30 22 1 20 23
M  V30 23 1 21 24
M  V30 24 1 22 25
M  V30 25 1 7 10
M  V30 26 1 19 20
M  V30 27 1 6 26
M  V30 28 1 6 27
M  V30 29 1 7 28
M  V30 30 1 8 29
M  V30 31 1 8 30
M  V30 32 1 9 31
M  V30 33 1 9 32
M  V30 34 1 11 33
M  V30 35 1 11 34
M  V30 36 1 11 35
M  V30 37 1 13 36
M  V30 38 1 13 37
M  V30 39 1 15 38
M  V30 40 1 16 39
M  V30 41 1 16 40
M  V30 42 1 16 41
M  V30 43 1 21 42
M  V30 44 1 21 43
M  V30 45 1 22 44
M  V30 46 1 22 45
M  V30 47 1 23 46
M  V30 48 1 23 47
M  V30 49 1 24 48
M  V30 50 1 24 49
M  V30 51 1 24 50
M  V30 52 1 25 51
M  V30 53 1 25 52
M  V30 54 1 25 53
M  V30 END BOND
M  V30 END CTAB
M  END
>  <Structure No>
70

>  <LogS>
-7.278038713

>  <MMFF94 Energy>
52.09

$$$$
Compound 71
Actelion Java MolfileCreator 2.0

  0  0  0  0  0  0              0 V3000
M  V30 BEGIN CTAB
M  V30 COUNTS 67 71 0 0 0
M  V30 BEGIN ATOM
M  V30 1 S -3.4423 -3.6885 -2.3759 0
M  V30 2 O -2.0432 -4.2411 -2.413 0
M  V30 3 O -3.9507 -3.5572 -3.7858 0
M  V30 4 O -4.4157 -4.7588 -1.5168 0 CHG=-1
M  V30 5 C -3.4583 -2.1014 -1.5905 0
M  V30 6 C -4.6649 -1.4228 -1.3146 0
M  V30 7 C -2.2426 -1.5279 -1.2221 0
M  V30 8 N -5.9211 -2.0654 -1.592 0
M  V30 9 C -4.6267 -0.1382 -0.7032 0
M  V30 10 C -2.1873 -0.3035 -0.5474 0
M  V30 11 C -5.8598 0.6931 -0.5679 0
M  V30 12 C -3.3879 0.3961 -0.2579 0
M  V30 13 N -0.8978 0.2366 -0.2076 0
M  V30 14 O -6.8881 0.4286 -1.2491 0
M  V30 15 C -5.8635 1.8926 0.2935 0
M  V30 16 C -3.3903 1.6505 0.5583 0
M  V30 17 C 0.1895 -0.597 0.2305 0
M  V30 18 C -4.6551 2.3684 0.833 0
M  V30 19 C -7.0639 2.5776 0.5644 0
M  V30 20 O -2.3244 2.0883 1.0714 0
M  V30 21 C 1.3538 -0.7284 -0.5661 0
M  V30 22 C 0.09 -1.2842 1.4562 0
M  V30 23 C -4.6639 3.5283 1.6322 0
M  V30 24 C -7.0586 3.7223 1.3617 0
M  V30 25 C 2.4442 -1.5213 -0.102 0
M  V30 26 C 1.4273 -0.0041 -1.8961 0
M  V30 27 C 1.1443 -2.0924 1.8829 0
M  V30 28 C -1.1454 -1.1823 2.3125 0
M  V30 29 C -5.8605 4.1983 1.892 0
M  V30 30 C 2.322 -2.2092 1.136 0
M  V30 31 C 3.7118 -1.6513 -0.938 0
M  V30 32 C 3.4111 -3.1073 1.6759 0
M  V30 33 N 4.3913 -0.3632 -1.076 0
M  V30 34 C 5.0863 0.2612 0.0153 0
M  V30 35 O 4.796 -0.0544 1.1998 0
M  V30 36 C 6.1534 1.2624 -0.2233 0
M  V30 37 C 6.5634 2.1176 0.8181 0
M  V30 38 C 6.8152 1.3404 -1.4641 0
M  V30 39 C 7.6198 3.0136 0.6275 0
M  V30 40 C 7.8758 2.2371 -1.6476 0
M  V30 41 C 8.2816 3.0664 -0.6008 0
M  V30 42 H -1.318 -2.0382 -1.4596 0
M  V30 43 H -6.0234 -2.773 -2.3497 0
M  V30 44 H -6.7324 -1.9578 -0.9417 0
M  V30 45 H -0.6821 1.2215 -0.4817 0
M  V30 46 H -8.0074 2.2298 0.1634 0
M  V30 47 H -3.7478 3.9199 2.0571 0
M  V30 48 H -7.9851 4.2419 1.5649 0
M  V30 49 H 1.9974 0.9415 -1.7745 0
M  V30 50 H 1.9087 -0.6239 -2.6769 0
M  V30 51 H 0.423 0.235 -2.3008 0
M  V30 52 H 1.0482 -2.6308 2.8194 0
M  V30 53 H -1.4532 -0.1228 2.4164 0
M  V30 54 H -1.9672 -1.7661 1.8531 0
M  V30 55 H -0.9718 -1.579 3.3335 0
M  V30 56 H -5.8591 5.0875 2.5072 0
M  V30 57 H 4.4335 -2.3929 -0.5413 0
M  V30 58 H 3.4438 -2.043 -1.9437 0
M  V30 59 H 3.1856 -3.453 2.7091 0
M  V30 60 H 3.5113 -4.011 1.0332 0
M  V30 61 H 4.3745 -2.5641 1.7357 0
M  V30 62 H 4.3868 0.0931 -2.0131 0
M  V30 63 H 6.0749 2.0867 1.7832 0
M  V30 64 H 6.5472 0.6845 -2.2813 0
M  V30 65 H 7.9342 3.6566 1.4385 0
M  V30 66 H 8.3953 2.2812 -2.597 0
M  V30 67 H 9.1114 3.7482 -0.745 0
M  V30 END ATOM
M  V30 BEGIN BOND
M  V30 1 2 1 2
M  V30 2 2 1 3
M  V30 3 1 1 4
M  V30 4 1 1 5
M  V30 5 2 5 6
M  V30 6 1 5 7
M  V30 7 1 6 8
M  V30 8 1 6 9
M  V30 9 2 7 10
M  V30 10 1 9 11
M  V30 11 2 9 12
M  V30 12 1 10 13
M  V30 13 2 11 14
M  V30 14 1 11 15
M  V30 15 1 12 16
M  V30 16 1 13 17
M  V30 17 2 15 18
M  V30 18 1 15 19
M  V30 19 2 16 20
M  V30 20 2 17 21
M  V30 21 1 17 22
M  V30 22 1 18 23
M  V30 23 2 19 24
M  V30 24 1 21 25
M  V30 25 1 21 26
M  V30 26 2 22 27
M  V30 27 1 22 28
M  V30 28 2 23 29
M  V30 29 2 25 30
M  V30 30 1 25 31
M  V30 31 1 30 32
M  V30 32 1 31 33
M  V30 33 1 33 34
M  V30 34 2 34 35
M  V30 35 1 34 36
M  V30 36 2 36 37
M  V30 37 1 36 38
M  V30 38 1 37 39
M  V30 39 2 38 40
M  V30 40 2 39 41
M  V30 41 1 10 12
M  V30 42 1 16 18
M  V30 43 1 24 29
M  V30 44 1 27 30
M  V30 45 1 40 41
M  V30 46 1 7 42
M  V30 47 1 8 43
M  V30 48 1 8 44
M  V30 49 1 13 45
M  V30 50 1 19 46
M  V30 51 1 23 47
M  V30 52 1 24 48
M  V30 53 1 26 49
M  V30 54 1 26 50
M  V30 55 1 26 51
M  V30 56 1 27 52
M  V30 57 1 28 53
M  V30 58 1 28 54
M  V30 59 1 28 55
M  V30 60 1 29 56
M  V30 61 1 31 57
M  V30 62 1 31 58
M  V30 63 1 32 59
M  V30 64 1 32 60
M  V30 65 1 32 61
M  V30 66 1 33 62
M  V30 67 1 37 63
M  V30 68 1 38 64
M  V30 69 1 39 65
M  V30 70 1 40 66
M  V30 71 1 41 67
M  V30 END BOND
M  V30 END CTAB
M  END
>  <Structure No>
71

>  <LogS>
-1.439605121

>  <MMFF94 Energy>
142.55

$$$$
Compound 72
Actelion Java MolfileCreator 2.0

  0  0  0  0  0  0              0 V3000
M  V30 BEGIN CTAB
M  V30 COUNTS 25 24 0 0 0
M  V30 BEGIN ATOM
M  V30 1 O -1.1746 -0.8612 -2.8208 0
M  V30 2 C -0.8706 -1.3352 -1.6943 0
M  V30 3 O -1.2488 -2.6339 -1.3735 0 CHG=-1
M  V30 4 C -0.0955 -0.5023 -0.7065 0
M  V30 5 C -0.8825 -0.3469 0.6189 0
M  V30 6 C 1.2907 -1.1554 -0.4874 0
M  V30 7 C -2.289 0.2601 0.4533 0
M  V30 8 C 2.2602 -0.3574 0.4052 0
M  V30 9 C -2.257 1.7055 -0.043 0
M  V30 10 C 2.5765 1.0345 -0.1408 0
M  V30 11 H 0.0615 0.5019 -1.1529 0
M  V30 12 H -0.3164 0.3013 1.32 0
M  V30 13 H -0.9858 -1.3427 1.103 0
M  V30 14 H 1.7792 -1.3081 -1.4759 0
M  V30 15 H 1.1549 -2.1624 -0.0344 0
M  V30 16 H -2.905 -0.3567 -0.235 0
M  V30 17 H -2.7917 0.2452 1.4447 0
M  V30 18 H 1.8683 -0.2757 1.4402 0
M  V30 19 H 3.2126 -0.9272 0.4695 0
M  V30 20 H -1.9104 1.7507 -1.0963 0
M  V30 21 H -1.5888 2.3224 0.5948 0
M  V30 22 H -3.2809 2.1331 3.0E-4 0
M  V30 23 H 2.8795 0.9753 -1.2078 0
M  V30 24 H 3.4127 1.4774 0.4404 0
M  V30 25 H 1.6973 1.7042 -0.0388 0
M  V30 END ATOM
M  V30 BEGIN BOND
M  V30 1 2 1 2
M  V30 2 1 2 3
M  V30 3 1 2 4
M  V30 4 1 4 5
M  V30 5 1 4 6
M  V30 6 1 5 7
M  V30 7 1 6 8
M  V30 8 1 7 9
M  V30 9 1 8 10
M  V30 10 1 4 11
M  V30 11 1 5 12
M  V30 12 1 5 13
M  V30 13 1 6 14
M  V30 14 1 6 15
M  V30 15 1 7 16
M  V30 16 1 7 17
M  V30 17 1 8 18
M  V30 18 1 8 19
M  V30 19 1 9 20
M  V30 20 1 9 21
M  V30 21 1 9 22
M  V30 22 1 10 23
M  V30 23 1 10 24
M  V30 24 1 10 25
M  V30 END BOND
M  V30 END CTAB
M  END
>  <Structure No>
72

>  <LogS>
-1.857977427

>  <MMFF94 Energy>
7.1382

$$$$
Compound 73
Actelion Java MolfileCreator 2.0

  0  0  0  0  0  0              0 V3000
M  V30 BEGIN CTAB
M  V30 COUNTS 14 15 0 0 0
M  V30 BEGIN ATOM
M  V30 1 S 4.2643 -0.8518 -0.511 0
M  V30 2 C 2.6675 -0.6501 -0.2412 0
M  V30 3 S 1.7329 -1.6814 0.7207 0
M  V30 4 N 1.9518 0.3699 -0.7707 0 CHG=-1
M  V30 5 C 0.3456 -0.7763 0.4445 0
M  V30 6 C 0.6532 0.2933 -0.383 0
M  V30 7 C -0.943 -0.9911 0.9263 0
M  V30 8 C -0.3383 1.1998 -0.7619 0
M  V30 9 C -1.9484 -0.0856 0.5515 0
M  V30 10 C -1.6476 1.005 -0.2887 0
M  V30 11 H -1.1645 -1.8313 1.5712 0
M  V30 12 H -0.106 2.0371 -1.4073 0
M  V30 13 H -2.9597 -0.226 0.9101 0
M  V30 14 H -2.4297 1.6973 -0.5717 0
M  V30 END ATOM
M  V30 BEGIN BOND
M  V30 1 2 1 2
M  V30 2 1 2 3
M  V30 3 1 2 4
M  V30 4 1 3 5
M  V30 5 1 4 6
M  V30 6 1 5 7
M  V30 7 1 6 8
M  V30 8 2 7 9
M  V30 9 2 8 10
M  V30 10 2 5 6
M  V30 11 1 9 10
M  V30 12 1 7 11
M  V30 13 1 8 12
M  V30 14 1 9 13
M  V30 15 1 10 14
M  V30 END BOND
M  V30 END CTAB
M  END
>  <Structure No>
73

>  <LogS>
-4.285895804

>  <MMFF94 Energy>
17.256

$$$$
Compound 74
Actelion Java MolfileCreator 2.0

  0  0  0  0  0  0              0 V3000
M  V30 BEGIN CTAB
M  V30 COUNTS 13 13 0 0 0
M  V30 BEGIN ATOM
M  V30 1 O 2.4191 -0.7798 0.0 0
M  V30 2 C 1.0877 -0.3705 -0.0162 0
M  V30 3 C 0.7315 0.9224 0.3955 0
M  V30 4 C 0.0959 -1.2594 -0.4482 0
M  V30 5 C -0.6094 1.3203 0.374 0
M  V30 6 C -1.2444 -0.8598 -0.469 0
M  V30 7 C -1.597 0.4294 -0.058 0
M  V30 8 H 3.1595 -0.16 0.3071 0
M  V30 9 H 1.4907 1.6171 0.7313 0
M  V30 10 H 0.3643 -2.2585 -0.7671 0
M  V30 11 H -0.8829 2.3181 0.692 0
M  V30 12 H -2.0091 -1.5489 -0.8034 0
M  V30 13 H -2.6345 0.7379 -0.0743 0
M  V30 END ATOM
M  V30 BEGIN BOND
M  V30 1 1 1 2
M  V30 2 2 2 3
M  V30 3 1 2 4
M  V30 4 1 3 5
M  V30 5 2 4 6
M  V30 6 2 5 7
M  V30 7 1 6 7
M  V30 8 1 1 8
M  V30 9 1 3 9
M  V30 10 1 4 10
M  V30 11 1 5 11
M  V30 12 1 6 12
M  V30 13 1 7 13
M  V30 END BOND
M  V30 END CTAB
M  END
>  <Structure No>
74

>  <LogS>
-4.034756761

>  <MMFF94 Energy>
5.7133

$$$$
Compound 75
Actelion Java MolfileCreator 2.0

  0  0  0  0  0  0              0 V3000
M  V30 BEGIN CTAB
M  V30 COUNTS 33 33 0 0 0
M  V30 BEGIN ATOM
M  V30 1 O -2.5357 1.5842 -2.3771 0
M  V30 2 C -3.1175 1.1894 -1.3324 0
M  V30 3 O -4.4869 1.237 -1.1787 0
M  V30 4 C -2.4095 0.6545 -0.1271 0 CFG=2
M  V30 5 C -4.7799 0.7622 0.0818 0
M  V30 6 C -1.6177 -0.5846 -0.4631 0
M  V30 7 C -3.5688 0.3581 0.8537 0
M  V30 8 O -5.9555 0.6838 0.5249 0
M  V30 9 C -0.7832 -1.1312 0.4332 0
M  V30 10 C 0.0297 -2.3562 0.116 0
M  V30 11 C 1.0932 -2.1088 -0.9694 0
M  V30 12 C 2.32 -1.3185 -0.4761 0
M  V30 13 C 2.0637 0.1933 -0.3773 0
M  V30 14 C 3.3671 0.9554 -0.1107 0
M  V30 15 C 3.1132 2.4553 0.0114 0
M  V30 16 H -1.7385 1.4426 0.2808 0
M  V30 17 H -1.7136 -1.0326 -1.4493 0
M  V30 18 H -3.6383 -0.7174 1.1277 0
M  V30 19 H -3.4774 0.9787 1.7708 0
M  V30 20 H -0.6986 -0.6963 1.4258 0
M  V30 21 H -0.6594 -3.1578 -0.228 0
M  V30 22 H 0.5194 -2.7225 1.0439 0
M  V30 23 H 1.4535 -3.1045 -1.3085 0
M  V30 24 H 0.6453 -1.6175 -1.8604 0
M  V30 25 H 2.659 -1.7109 0.5074 0
M  V30 26 H 3.1437 -1.4901 -1.2037 0
M  V30 27 H 1.3595 0.4 0.4544 0
M  V30 28 H 1.6138 0.5593 -1.3264 0
M  V30 29 H 3.8282 0.5903 0.8328 0
M  V30 30 H 4.0824 0.7798 -0.9436 0
M  V30 31 H 4.0729 2.9804 0.2018 0
M  V30 32 H 2.4217 2.6625 0.856 0
M  V30 33 H 2.6725 2.85 -0.9287 0
M  V30 END ATOM
M  V30 BEGIN BOND
M  V30 1 2 1 2
M  V30 2 1 2 3
M  V30 3 1 2 4
M  V30 4 1 3 5
M  V30 5 1 4 6
M  V30 6 1 4 7
M  V30 7 2 5 8
M  V30 8 2 6 9
M  V30 9 1 9 10
M  V30 10 1 10 11
M  V30 11 1 11 12
M  V30 12 1 12 13
M  V30 13 1 13 14
M  V30 14 1 14 15
M  V30 15 1 5 7
M  V30 16 1 4 16
M  V30 17 1 6 17
M  V30 18 1 7 18
M  V30 19 1 7 19
M  V30 20 1 9 20
M  V30 21 1 10 21
M  V30 22 1 10 22
M  V30 23 1 11 23
M  V30 24 1 11 24
M  V30 25 1 12 25
M  V30 26 1 12 26
M  V30 27 1 13 27
M  V30 28 1 13 28
M  V30 29 1 14 29
M  V30 30 1 14 30
M  V30 31 1 15 31
M  V30 32 1 15 32
M  V30 33 1 15 33
M  V30 END BOND
M  V30 BEGIN COLLECTION
M  V30 MDLV30/STEABS ATOMS=(1 4)
M  V30 END COLLECTION
M  V30 END CTAB
M  END
>  <Structure No>
75

>  <LogS>
-4.021753515

>  <MMFF94 Energy>
-10.248

$$$$
Compound 76
Actelion Java MolfileCreator 2.0

  0  0  0  0  0  0              0 V3000
M  V30 BEGIN CTAB
M  V30 COUNTS 33 34 0 0 0
M  V30 BEGIN ATOM
M  V30 1 O -4.7675 2.0637 -0.2379 0
M  V30 2 C -3.6168 1.3004 -0.0547 0
M  V30 3 C -3.5738 -0.0362 -0.4638 0
M  V30 4 C -2.4965 1.8748 0.547 0
M  V30 5 C -2.4147 -0.7953 -0.2772 0
M  V30 6 C -1.3354 1.1217 0.7362 0
M  V30 7 C -1.2636 -0.2236 0.3126 0
M  V30 8 C 0.0292 -1.0223 0.5685 0
M  V30 9 C 1.24 -0.2161 0.0592 0
M  V30 10 C 0.0875 -1.3102 2.0883 0
M  V30 11 C 0.0554 -2.3856 -0.1638 0
M  V30 12 C 1.2164 0.3037 -1.2537 0
M  V30 13 C 2.4104 -0.0207 0.8286 0
M  V30 14 C 2.3023 1.0186 -1.7643 0
M  V30 15 C 3.4941 0.6956 0.3117 0
M  V30 16 C 3.4417 1.2188 -0.9842 0
M  V30 17 O 4.5167 1.9346 -1.5061 0
M  V30 18 H -5.5974 1.6752 -0.6705 0
M  V30 19 H -4.4417 -0.4913 -0.9243 0
M  V30 20 H -2.5261 2.9069 0.8725 0
M  V30 21 H -2.4373 -1.8251 -0.6006 0
M  V30 22 H -0.4855 1.5922 1.2147 0
M  V30 23 H 0.204 -0.3698 2.6689 0
M  V30 24 H 0.9281 -1.9929 2.3381 0
M  V30 25 H -0.8501 -1.8046 2.4244 0
M  V30 26 H -0.1158 -2.2566 -1.2542 0
M  V30 27 H 1.0435 -2.8777 -0.0295 0
M  V30 28 H -0.7148 -3.0766 0.2414 0
M  V30 29 H 0.3498 0.1567 -1.8862 0
M  V30 30 H 2.5056 -0.413 1.8301 0
M  V30 31 H 2.2586 1.415 -2.7708 0
M  V30 32 H 4.3776 0.8399 0.9206 0
M  V30 33 H 5.3581 2.0958 -0.9651 0
M  V30 END ATOM
M  V30 BEGIN BOND
M  V30 1 1 1 2
M  V30 2 2 2 3
M  V30 3 1 2 4
M  V30 4 1 3 5
M  V30 5 2 4 6
M  V30 6 2 5 7
M  V30 7 1 7 8
M  V30 8 1 8 9
M  V30 9 1 8 10
M  V30 10 1 8 11
M  V30 11 2 9 12
M  V30 12 1 9 13
M  V30 13 1 12 14
M  V30 14 2 13 15
M  V30 15 2 14 16
M  V30 16 1 16 17
M  V30 17 1 6 7
M  V30 18 1 15 16
M  V30 19 1 1 18
M  V30 20 1 3 19
M  V30 21 1 4 20
M  V30 22 1 5 21
M  V30 23 1 6 22
M  V30 24 1 10 23
M  V30 25 1 10 24
M  V30 26 1 10 25
M  V30 27 1 11 26
M  V30 28 1 11 27
M  V30 29 1 11 28
M  V30 30 1 12 29
M  V30 31 1 13 30
M  V30 32 1 14 31
M  V30 33 1 15 32
M  V30 34 1 17 33
M  V30 END BOND
M  V30 END CTAB
M  END
>  <Structure No>
76

>  <LogS>
-5.229282852

>  <MMFF94 Energy>
43.209

$$$$
Compound 77
Actelion Java MolfileCreator 2.0

  0  0  0  0  0  0              0 V3000
M  V30 BEGIN CTAB
M  V30 COUNTS 26 27 0 0 0
M  V30 BEGIN ATOM
M  V30 1 C 1.4402 -0.0799 0.3199 0
M  V30 2 C 1.3244 1.2587 0.5666 0
M  V30 3 C 0.3556 -0.7161 -0.5591 0 CFG=1
M  V30 4 C 2.5977 -0.8898 0.822 0
M  V30 5 C 0.101 2.0121 0.0062 0
M  V30 6 C -1.0419 -0.2811 -0.0447 0
M  V30 7 C 0.1767 0.2555 -1.7422 0
M  V30 8 C -0.7943 1.0351 -0.8321 0 CFG=2
M  V30 9 C -2.1847 -1.1266 -0.6613 0
M  V30 10 C -1.2707 -0.1981 1.4908 0
M  V30 11 H 2.0623 1.7888 1.1608 0
M  V30 12 H 0.4887 -1.7878 -0.8228 0
M  V30 13 H 2.2168 -1.7894 1.3491 0
M  V30 14 H 3.226 -0.3054 1.5276 0
M  V30 15 H 3.2229 -1.21 -0.0369 0
M  V30 16 H -0.4883 2.451 0.8384 0
M  V30 17 H 0.451 2.8428 -0.6425 0
M  V30 18 H 1.0907 0.8054 -2.0677 0
M  V30 19 H -0.3283 -0.2129 -2.6143 0
M  V30 20 H -1.6724 1.4899 -1.3394 0
M  V30 21 H -2.1774 -2.1482 -0.225 0
M  V30 22 H -2.1059 -1.2325 -1.762 0
M  V30 23 H -3.1657 -0.6546 -0.4398 0
M  V30 24 H -2.2416 0.3019 1.6933 0
M  V30 25 H -1.3112 -1.2236 1.9154 0
M  V30 26 H -0.4976 0.3498 2.0587 0
M  V30 END ATOM
M  V30 BEGIN BOND
M  V30 1 2 1 2
M  V30 2 1 1 3
M  V30 3 1 1 4
M  V30 4 1 2 5
M  V30 5 1 3 6
M  V30 6 1 3 7
M  V30 7 1 5 8
M  V30 8 1 6 9
M  V30 9 1 6 10
M  V30 10 1 6 8
M  V30 11 1 7 8
M  V30 12 1 2 11
M  V30 13 1 3 12
M  V30 14 1 4 13
M  V30 15 1 4 14
M  V30 16 1 4 15
M  V30 17 1 5 16
M  V30 18 1 5 17
M  V30 19 1 7 18
M  V30 20 1 7 19
M  V30 21 1 8 20
M  V30 22 1 9 21
M  V30 23 1 9 22
M  V30 24 1 9 23
M  V30 25 1 10 24
M  V30 26 1 10 25
M  V30 27 1 10 26
M  V30 END BOND
M  V30 BEGIN COLLECTION
M  V30 MDLV30/STEABS ATOMS=(2 3 8)
M  V30 END COLLECTION
M  V30 END CTAB
M  END
>  <Structure No>
77

>  <LogS>
-4.772570424

>  <MMFF94 Energy>
36.806

$$$$
Compound 78
Actelion Java MolfileCreator 2.0

  0  0  0  0  0  0              0 V3000
M  V30 BEGIN CTAB
M  V30 COUNTS 9 8 0 0 0
M  V30 BEGIN ATOM
M  V30 1 F -0.7398 1.5623 0.7398 0
M  V30 2 C -0.338 0.3954 0.1683 0
M  V30 3 C -1.2478 -0.3979 -0.4049 0
M  V30 4 C 1.1155 0.0183 0.1903 0
M  V30 5 F 1.2794 -1.1803 0.8608 0
M  V30 6 F 1.5862 -0.1125 -1.1037 0
M  V30 7 F 1.8464 0.9982 0.837 0
M  V30 8 H -2.2944 -0.1107 -0.4122 0
M  V30 9 H -0.958 -1.3358 -0.8694 0
M  V30 END ATOM
M  V30 BEGIN BOND
M  V30 1 1 1 2
M  V30 2 2 2 3
M  V30 3 1 2 4
M  V30 4 1 4 5
M  V30 5 1 4 6
M  V30 6 1 4 7
M  V30 7 1 3 8
M  V30 8 1 3 9
M  V30 END BOND
M  V30 END CTAB
M  END
>  <Structure No>
78

>  <LogS>
-2.759957367

>  <MMFF94 Energy>
31.283

$$$$
Compound 79
Actelion Java MolfileCreator 2.0

  0  0  0  0  0  0              0 V3000
M  V30 BEGIN CTAB
M  V30 COUNTS 17 18 0 0 0
M  V30 BEGIN ATOM
M  V30 1 O -3.121 -2.1599 0.3997 0
M  V30 2 C -2.2034 -1.3112 0.2508 0
M  V30 3 O -0.9321 -1.7017 0.2952 0
M  V30 4 C -2.5243 0.0342 0.0401 0
M  V30 5 C 0.0823 -0.8537 0.145 0
M  V30 6 C -1.4925 0.9581 -0.1224 0
M  V30 7 C -0.1657 0.5205 -0.0713 0
M  V30 8 C 1.4 -1.3211 0.201 0
M  V30 9 C 0.9081 1.4087 -0.2287 0
M  V30 10 C 2.4665 -0.43 0.0432 0
M  V30 11 C 2.2213 0.9306 -0.1709 0
M  V30 12 H -3.557 0.3587 0.003 0
M  V30 13 H -1.7286 2.0028 -0.2861 0
M  V30 14 H 1.5977 -2.3726 0.3666 0
M  V30 15 H 0.7325 2.4647 -0.3952 0
M  V30 16 H 3.4847 -0.7941 0.087 0
M  V30 17 H 3.0504 1.6154 -0.2923 0
M  V30 END ATOM
M  V30 BEGIN BOND
M  V30 1 2 1 2
M  V30 2 1 2 3
M  V30 3 1 2 4
M  V30 4 1 3 5
M  V30 5 2 4 6
M  V30 6 2 5 7
M  V30 7 1 5 8
M  V30 8 1 7 9
M  V30 9 2 8 10
M  V30 10 2 9 11
M  V30 11 1 6 7
M  V30 12 1 10 11
M  V30 13 1 4 12
M  V30 14 1 6 13
M  V30 15 1 8 14
M  V30 16 1 9 15
M  V30 17 1 10 16
M  V30 18 1 11 17
M  V30 END BOND
M  V30 END CTAB
M  END
>  <Structure No>
79

>  <LogS>
-1.886030361

>  <MMFF94 Energy>
33.798

$$$$
Compound 80
Actelion Java MolfileCreator 2.0

  0  0  0  0  0  0              0 V3000
M  V30 BEGIN CTAB
M  V30 COUNTS 26 26 0 0 0
M  V30 BEGIN ATOM
M  V30 1 C -2.117 0.0783 -0.235 0
M  V30 2 C -1.4854 -1.1023 -0.3415 0
M  V30 3 C -1.2972 1.3451 -0.3229 0
M  V30 4 C -3.5993 0.1239 0.0112 0
M  V30 5 C 0.0051 -1.127 -0.5362 0
M  V30 6 C -0.0358 1.2362 0.5542 0
M  V30 7 C 0.6897 -0.1457 0.4462 0 CFG=2
M  V30 8 C 2.166 0.0131 0.1086 0
M  V30 9 C 2.5519 0.5956 -1.0391 0
M  V30 10 C 3.223 -0.4828 1.0611 0
M  V30 11 H -2.0321 -2.0361 -0.2426 0
M  V30 12 H -1.8902 2.2313 -0.0101 0
M  V30 13 H -0.9914 1.4983 -1.3806 0
M  V30 14 H -3.9644 1.1703 0.0733 0
M  V30 15 H -4.1329 -0.3846 -0.8193 0
M  V30 16 H -3.8372 -0.3902 0.9663 0
M  V30 17 H 0.2202 -0.8418 -1.5885 0
M  V30 18 H 0.3865 -2.1583 -0.374 0
M  V30 19 H -0.3372 1.398 1.613 0
M  V30 20 H 0.6435 2.0778 0.2968 0
M  V30 21 H 0.6079 -0.6206 1.4495 0
M  V30 22 H 3.605 0.7074 -1.2795 0
M  V30 23 H 1.8222 0.974 -1.7484 0
M  V30 24 H 3.8641 0.3647 1.3841 0
M  V30 25 H 2.7774 -0.946 1.9657 0
M  V30 26 H 3.8545 -1.2443 0.5565 0
M  V30 END ATOM
M  V30 BEGIN BOND
M  V30 1 2 1 2
M  V30 2 1 1 3
M  V30 3 1 1 4
M  V30 4 1 2 5
M  V30 5 1 3 6
M  V30 6 1 5 7
M  V30 7 1 7 8
M  V30 8 2 8 9
M  V30 9 1 8 10
M  V30 10 1 6 7
M  V30 11 1 2 11
M  V30 12 1 3 12
M  V30 13 1 3 13
M  V30 14 1 4 14
M  V30 15 1 4 15
M  V30 16 1 4 16
M  V30 17 1 5 17
M  V30 18 1 5 18
M  V30 19 1 6 19
M  V30 20 1 6 20
M  V30 21 1 7 21
M  V30 22 1 9 22
M  V30 23 1 9 23
M  V30 24 1 10 24
M  V30 25 1 10 25
M  V30 26 1 10 26
M  V30 END BOND
M  V30 BEGIN COLLECTION
M  V30 MDLV30/STEABS ATOMS=(1 7)
M  V30 END COLLECTION
M  V30 END CTAB
M  END
>  <Structure No>
80

>  <LogS>
-3.84649653

>  <MMFF94 Energy>
24.882

$$$$
Compound 81
Actelion Java MolfileCreator 2.0

  0  0  0  0  0  0              0 V3000
M  V30 BEGIN CTAB
M  V30 COUNTS 99 103 0 0 0
M  V30 BEGIN ATOM
M  V30 1 S 9.7778 -5.1244 -1.0558 0
M  V30 2 O 10.6732 -5.673 0.0182 0
M  V30 3 O 10.3594 -3.8302 -1.5501 0
M  V30 4 O 9.6841 -6.2249 -2.3233 0 CHG=-1
M  V30 5 C 8.1626 -4.8408 -0.4112 0
M  V30 6 C 7.3547 -3.8446 -0.9736 0
M  V30 7 C 7.6736 -5.6049 0.6596 0
M  V30 8 C 6.0723 -3.5902 -0.4599 0
M  V30 9 C 6.3939 -5.3597 1.1722 0
M  V30 10 C 5.5945 -4.3578 0.615 0
M  V30 11 C 5.227 -2.4857 -1.0429 0
M  V30 12 N 5.0792 -1.3626 -0.1008 0
M  V30 13 C 3.7957 -0.7206 0.0219 0
M  V30 14 C 6.2557 -0.7691 0.5604 0
M  V30 15 C 2.6825 -1.4443 0.4767 0
M  V30 16 C 3.6409 0.6275 -0.3204 0
M  V30 17 C 7.2172 -0.1378 -0.4447 0
M  V30 18 C 1.4304 -0.8302 0.5767 0
M  V30 19 C 2.3893 1.2393 -0.2353 0
M  V30 20 C 1.2673 0.5191 0.2111 0
M  V30 21 C -0.0638 1.1806 0.3086 0 CHG=1
M  V30 22 C -0.1493 2.6549 0.4427 0
M  V30 23 C -1.3203 0.4036 0.195 0
M  V30 24 C -0.6255 3.4683 -0.6113 0
M  V30 25 C 0.288 3.2511 1.6301 0
M  V30 26 C -1.4779 -0.5568 -0.8121 0
M  V30 27 C -2.3923 0.6712 1.0562 0
M  V30 28 C -0.6527 4.8634 -0.4464 0
M  V30 29 C -1.1021 2.8723 -1.9095 0
M  V30 30 C 0.2585 4.6381 1.7845 0
M  V30 31 C -2.6997 -1.2168 -0.9772 0
M  V30 32 C -3.6052 -0.0069 0.9122 0
M  V30 33 C -0.1991 5.4647 0.7442 0
M  V30 34 C -3.7885 -0.9484 -0.1198 0
M  V30 35 N -0.1711 6.908 0.8774 0
M  V30 36 N -5.0819 -1.576 -0.3292 0
M  V30 37 C 0.9662 7.5847 1.5253 0
M  V30 38 C -1.2565 7.7289 0.3192 0
M  V30 39 C -5.1506 -2.8557 -1.0636 0
M  V30 40 C -6.2975 -0.7495 -0.194 0
M  V30 41 C 2.2688 7.2844 0.7881 0
M  V30 42 C -0.8036 8.4306 -0.9581 0
M  V30 43 C -6.3743 -3.6723 -0.7246 0
M  V30 44 C -7.0061 -1.0151 1.1321 0
M  V30 45 C -6.3908 -4.4956 0.4118 0
M  V30 46 C -7.5118 -3.6158 -1.5477 0
M  V30 47 C -7.5399 -5.237 0.7338 0
M  V30 48 C -8.6494 -4.3627 -1.2396 0
M  V30 49 S -7.5471 -6.2896 2.1456 0
M  V30 50 C -8.6658 -5.1717 -0.1006 0
M  V30 51 O -8.953 -6.4592 2.6525 0
M  V30 52 O -6.7065 -5.6833 3.2402 0
M  V30 53 O -6.9177 -7.7906 1.7158 0 CHG=-1
M  V30 54 H 7.7259 -3.2677 -1.811 0
M  V30 55 H 8.2803 -6.3868 1.0984 0
M  V30 56 H 6.017 -5.9475 2.0005 0
M  V30 57 H 4.6101 -4.1713 1.0256 0
M  V30 58 H 4.2316 -2.9076 -1.3011 0
M  V30 59 H 5.661 -2.1071 -1.998 0
M  V30 60 H 5.9365 0.0032 1.2925 0
M  V30 61 H 6.7955 -1.5474 1.1371 0
M  V30 62 H 2.7893 -2.4851 0.7583 0
M  V30 63 H 4.484 1.2044 -0.6763 0
M  V30 64 H 8.084 0.2933 0.0982 0
M  V30 65 H 6.7124 0.6729 -1.0075 0
M  V30 66 H 7.5961 -0.8955 -1.16 0
M  V30 67 H 0.5937 -1.4043 0.9495 0
M  V30 68 H 2.3015 2.2771 -0.5301 0
M  V30 69 H 0.6491 2.6357 2.4453 0
M  V30 70 H -0.6716 -0.7597 -1.5068 0
M  V30 71 H -2.2895 1.4077 1.8455 0
M  V30 72 H -1.0017 5.4814 -1.2628 0
M  V30 73 H -2.0965 2.4072 -1.7635 0
M  V30 74 H -0.3854 2.107 -2.2693 0
M  V30 75 H -1.1994 3.6468 -2.7005 0
M  V30 76 H 0.5897 5.0558 2.7254 0
M  V30 77 H -2.7968 -1.91 -1.7995 0
M  V30 78 H -4.406 0.2269 1.5973 0
M  V30 79 H 1.0544 7.267 2.5856 0
M  V30 80 H 0.8167 8.6888 1.5307 0
M  V30 81 H -2.1545 7.1095 0.1021 0
M  V30 82 H -1.5727 8.4885 1.0655 0
M  V30 83 H -5.1255 -2.6435 -2.1527 0
M  V30 84 H -4.2588 -3.4751 -0.8289 0
M  V30 85 H -7.0 -0.9502 -1.0283 0
M  V30 86 H -6.044 0.3294 -0.266 0
M  V30 87 H 2.5113 6.2033 0.8603 0
M  V30 88 H 2.1771 7.5561 -0.2844 0
M  V30 89 H 3.098 7.8676 1.2399 0
M  V30 90 H -0.0234 9.1867 -0.7312 0
M  V30 91 H -1.6675 8.948 -1.4252 0
M  V30 92 H -0.3911 7.7013 -1.6832 0
M  V30 93 H -7.7821 -0.2416 1.298 0
M  V30 94 H -7.5089 -2.0033 1.1151 0
M  V30 95 H -6.2955 -0.9926 1.9853 0
M  V30 96 H -5.5079 -4.5696 1.0336 0
M  V30 97 H -7.5134 -2.9958 -2.4308 0
M  V30 98 H -9.5191 -4.3198 -1.885 0
M  V30 99 H -9.5539 -5.7496 0.1235 0
M  V30 END ATOM
M  V30 BEGIN BOND
M  V30 1 2 1 2
M  V30 2 2 1 3
M  V30 3 1 1 4
M  V30 4 1 1 5
M  V30 5 2 5 6
M  V30 6 1 5 7
M  V30 7 1 6 8
M  V30 8 2 7 9
M  V30 9 2 8 10
M  V30 10 1 8 11
M  V30 11 1 11 12
M  V30 12 1 12 13
M  V30 13 1 12 14
M  V30 14 2 13 15
M  V30 15 1 13 16
M  V30 16 1 14 17
M  V30 17 1 15 18
M  V30 18 2 16 19
M  V30 19 2 18 20
M  V30 20 1 20 21
M  V30 21 1 21 22
M  V30 22 1 21 23
M  V30 23 2 22 24
M  V30 24 1 22 25
M  V30 25 2 23 26
M  V30 26 1 23 27
M  V30 27 1 24 28
M  V30 28 1 24 29
M  V30 29 2 25 30
M  V30 30 1 26 31
M  V30 31 2 27 32
M  V30 32 2 28 33
M  V30 33 2 31 34
M  V30 34 1 33 35
M  V30 35 1 34 36
M  V30 36 1 35 37
M  V30 37 1 35 38
M  V30 38 1 36 39
M  V30 39 1 36 40
M  V30 40 1 37 41
M  V30 41 1 38 42
M  V30 42 1 39 43
M  V30 43 1 40 44
M  V30 44 2 43 45
M  V30 45 1 43 46
M  V30 46 1 45 47
M  V30 47 2 46 48
M  V30 48 1 47 49
M  V30 49 2 47 50
M  V30 50 2 49 51
M  V30 51 2 49 52
M  V30 52 1 49 53
M  V30 53 1 9 10
M  V30 54 1 19 20
M  V30 55 1 30 33
M  V30 56 1 32 34
M  V30 57 1 48 50
M  V30 58 1 6 54
M  V30 59 1 7 55
M  V30 60 1 9 56
M  V30 61 1 10 57
M  V30 62 1 11 58
M  V30 63 1 11 59
M  V30 64 1 14 60
M  V30 65 1 14 61
M  V30 66 1 15 62
M  V30 67 1 16 63
M  V30 68 1 17 64
M  V30 69 1 17 65
M  V30 70 1 17 66
M  V30 71 1 18 67
M  V30 72 1 19 68
M  V30 73 1 25 69
M  V30 74 1 26 70
M  V30 75 1 27 71
M  V30 76 1 28 72
M  V30 77 1 29 73
M  V30 78 1 29 74
M  V30 79 1 29 75
M  V30 80 1 30 76
M  V30 81 1 31 77
M  V30 82 1 32 78
M  V30 83 1 37 79
M  V30 84 1 37 80
M  V30 85 1 38 81
M  V30 86 1 38 82
M  V30 87 1 39 83
M  V30 88 1 39 84
M  V30 89 1 40 85
M  V30 90 1 40 86
M  V30 91 1 41 87
M  V30 92 1 41 88
M  V30 93 1 41 89
M  V30 94 1 42 90
M  V30 95 1 42 91
M  V30 96 1 42 92
M  V30 97 1 44 93
M  V30 98 1 44 94
M  V30 99 1 44 95
M  V30 100 1 45 96
M  V30 101 1 46 97
M  V30 102 1 48 98
M  V30 103 1 50 99
M  V30 END BOND
M  V30 END CTAB
M  END
>  <Structure No>
81

>  <LogS>
-0.62297793

>  <MMFF94 Energy>
192.48

$$$$
Compound 82
Actelion Java MolfileCreator 2.0

  0  0  0  0  0  0              0 V3000
M  V30 BEGIN CTAB
M  V30 COUNTS 74 79 0 0 0
M  V30 BEGIN ATOM
M  V30 1 S -0.9157 -4.0006 -0.7492 0
M  V30 2 O 0.4537 -4.347 -0.2377 0
M  V30 3 O -0.8145 -3.4942 -2.1603 0
M  V30 4 O -1.855 -5.3932 -0.7334 0 CHG=-1
M  V30 5 C -1.655 -2.7609 0.2751 0
M  V30 6 C -0.919 -1.6549 0.763 0
M  V30 7 C -3.0101 -2.8879 0.6153 0
M  V30 8 C 0.495 -1.4322 0.3947 0
M  V30 9 C -1.5473 -0.7267 1.6062 0
M  V30 10 C -3.6417 -1.929 1.4154 0
M  V30 11 C 1.5489 -1.6376 1.3164 0
M  V30 12 C 0.7869 -0.9741 -0.9002 0
M  V30 13 C -2.8903 -0.8763 1.9513 0
M  V30 14 N -5.0251 -2.0999 1.755 0
M  V30 15 S 1.2574 -2.2346 2.9559 0
M  V30 16 C 2.8674 -1.3602 0.9247 0
M  V30 17 C 2.1047 -0.7217 -1.2828 0
M  V30 18 N -5.9498 -1.2401 1.5515 0
M  V30 19 O 0.2708 -3.3666 2.9296 0
M  V30 20 O 0.724 -1.1215 3.8121 0
M  V30 21 O 2.6916 -2.7996 3.6255 0 CHG=-1
M  V30 22 C 3.1534 -0.9086 -0.3676 0
M  V30 23 C -5.7936 0.043 0.8612 0 CFG=2
M  V30 24 N 4.5128 -0.6199 -0.7141 0
M  V30 25 C -7.0031 0.8769 1.0814 0
M  V30 26 C -5.8909 -0.1145 -0.6375 0
M  V30 27 N 4.8681 -0.3444 -1.9056 0
M  V30 28 O -7.4349 1.2411 2.2077 0
M  V30 29 N -7.6471 1.1403 -0.1571 0
M  V30 30 N -6.9162 0.4892 -1.153 0
M  V30 31 C -4.9208 -0.8814 -1.4747 0
M  V30 32 C 6.2547 -0.0253 -2.2331 0 CFG=1
M  V30 33 C -8.8629 1.8715 -0.405 0
M  V30 34 C 6.6936 1.2114 -1.5356 0
M  V30 35 C 7.2202 -1.0032 -1.6091 0
M  V30 36 C -9.6006 1.6226 -1.5757 0
M  V30 37 C -9.3201 2.8582 0.4898 0
M  V30 38 O 6.2779 2.3739 -1.7906 0
M  V30 39 N 7.7246 0.9035 -0.6072 0
M  V30 40 N 8.0024 -0.4611 -0.7264 0
M  V30 41 C 7.2972 -2.4516 -1.959 0
M  V30 42 C -10.7857 2.3217 -1.8297 0
M  V30 43 C -10.5062 3.5538 0.2322 0
M  V30 44 C 8.4298 1.7935 0.278 0
M  V30 45 C -11.241 3.2833 -0.9245 0
M  V30 46 C 7.8546 3.0056 0.7087 0
M  V30 47 C 9.709 1.4448 0.7452 0
M  V30 48 C 8.5583 3.8586 1.5667 0
M  V30 49 C 10.4099 2.3005 1.6029 0
M  V30 50 C 9.8354 3.509 2.0112 0
M  V30 51 H -3.5868 -3.7242 0.2409 0
M  V30 52 H -0.9938 0.1163 2.0 0
M  V30 53 H -0.0125 -0.8025 -1.6125 0
M  V30 54 H -3.3418 -0.1722 2.6391 0
M  V30 55 H 3.6812 -1.4936 1.6257 0
M  V30 56 H 2.3001 -0.3623 -2.2852 0
M  V30 57 H -4.889 0.6034 1.1632 0
M  V30 58 H -5.0481 -1.969 -1.2916 0
M  V30 59 H -5.0932 -0.6795 -2.5543 0
M  V30 60 H -3.8833 -0.5778 -1.2178 0
M  V30 61 H 6.3993 0.0524 -3.332 0
M  V30 62 H -9.2674 0.8783 -2.2883 0
M  V30 63 H -8.7573 3.1165 1.3747 0
M  V30 64 H 8.3132 -2.6879 -2.3406 0
M  V30 65 H 6.5478 -2.7009 -2.7403 0
M  V30 66 H 7.0931 -3.0652 -1.0563 0
M  V30 67 H -11.3497 2.1182 -2.7306 0
M  V30 68 H -10.8492 4.3101 0.9279 0
M  V30 69 H -12.1591 3.8233 -1.1239 0
M  V30 70 H 6.8557 3.288 0.4079 0
M  V30 71 H 10.1691 0.5149 0.437 0
M  V30 72 H 8.1085 4.7885 1.8918 0
M  V30 73 H 11.3983 2.0277 1.9514 0
M  V30 74 H 10.3779 4.1707 2.6751 0
M  V30 END ATOM
M  V30 BEGIN BOND
M  V30 1 2 1 2
M  V30 2 2 1 3
M  V30 3 1 1 4
M  V30 4 1 1 5
M  V30 5 2 5 6
M  V30 6 1 5 7
M  V30 7 1 6 8
M  V30 8 1 6 9
M  V30 9 2 7 10
M  V30 10 2 8 11
M  V30 11 1 8 12
M  V30 12 2 9 13
M  V30 13 1 10 14
M  V30 14 1 11 15
M  V30 15 1 11 16
M  V30 16 2 12 17
M  V30 17 2 14 18
M  V30 18 2 15 19
M  V30 19 2 15 20
M  V30 20 1 15 21
M  V30 21 2 16 22
M  V30 22 1 18 23
M  V30 23 1 22 24
M  V30 24 1 23 25
M  V30 25 1 23 26
M  V30 26 2 24 27
M  V30 27 2 25 28
M  V30 28 1 25 29
M  V30 29 2 26 30
M  V30 30 1 26 31
M  V30 31 1 27 32
M  V30 32 1 29 33
M  V30 33 1 32 34
M  V30 34 1 32 35
M  V30 35 2 33 36
M  V30 36 1 33 37
M  V30 37 2 34 38
M  V30 38 1 34 39
M  V30 39 2 35 40
M  V30 40 1 35 41
M  V30 41 1 36 42
M  V30 42 2 37 43
M  V30 43 1 39 44
M  V30 44 2 42 45
M  V30 45 2 44 46
M  V30 46 1 44 47
M  V30 47 1 46 48
M  V30 48 2 47 49
M  V30 49 2 48 50
M  V30 50 1 10 13
M  V30 51 1 17 22
M  V30 52 1 29 30
M  V30 53 1 39 40
M  V30 54 1 43 45
M  V30 55 1 49 50
M  V30 56 1 7 51
M  V30 57 1 9 52
M  V30 58 1 12 53
M  V30 59 1 13 54
M  V30 60 1 16 55
M  V30 61 1 17 56
M  V30 62 1 23 57
M  V30 63 1 31 58
M  V30 64 1 31 59
M  V30 65 1 31 60
M  V30 66 1 32 61
M  V30 67 1 36 62
M  V30 68 1 37 63
M  V30 69 1 41 64
M  V30 70 1 41 65
M  V30 71 1 41 66
M  V30 72 1 42 67
M  V30 73 1 43 68
M  V30 74 1 45 69
M  V30 75 1 46 70
M  V30 76 1 47 71
M  V30 77 1 48 72
M  V30 78 1 49 73
M  V30 79 1 50 74
M  V30 END BOND
M  V30 BEGIN COLLECTION
M  V30 MDLV30/STEABS ATOMS=(2 23 32)
M  V30 END COLLECTION
M  V30 END CTAB
M  END
>  <Structure No>
82

>  <LogS>
-1.642781181

>  <MMFF94 Energy>
265.03

$$$$
Compound 83
Actelion Java MolfileCreator 2.0

  0  0  0  0  0  0              0 V3000
M  V30 BEGIN CTAB
M  V30 COUNTS 34 35 0 0 0
M  V30 BEGIN ATOM
M  V30 1 O 3.2862 0.9609 0.9609 0
M  V30 2 C 3.0658 0.0964 0.0701 0
M  V30 3 O 1.8572 0.0823 -0.6346 0
M  V30 4 C 4.1255 -0.8921 -0.2761 0
M  V30 5 C 0.7578 0.9502 -0.3462 0 CFG=2
M  V30 6 C -0.2426 0.3442 0.6909 0 CFG=2
M  V30 7 C -0.1378 1.1251 -1.594 0
M  V30 8 C -1.1862 -0.5313 -0.1689 0
M  V30 9 C -1.1607 1.5244 1.1149 0
M  V30 10 C 0.4068 -0.3576 1.8925 0
M  V30 11 C -1.5257 0.6403 -1.1029 0 CFG=1
M  V30 12 C -0.5237 -1.7423 -0.8941 0
M  V30 13 C -2.4231 -1.1165 0.5827 0
M  V30 14 C -2.0442 1.7297 -0.1323 0
M  V30 15 H 4.8342 -0.4368 -0.9983 0
M  V30 16 H 3.6664 -1.7933 -0.7337 0
M  V30 17 H 4.6769 -1.1963 0.6384 0
M  V30 18 H 1.146 1.9447 -0.0278 0
M  V30 19 H 0.2155 0.5205 -2.4559 0
M  V30 20 H -0.1622 2.1859 -1.9277 0
M  V30 21 H -0.585 2.4445 1.3583 0
M  V30 22 H -1.7759 1.2775 2.0065 0
M  V30 23 H -0.3705 -0.7293 2.5924 0
M  V30 24 H 1.0208 -1.2205 1.5628 0
M  V30 25 H 1.0554 0.3561 2.4423 0
M  V30 26 H -2.2333 0.3975 -1.9246 0
M  V30 27 H -0.1671 -2.4851 -0.1498 0
M  V30 28 H -1.2713 -2.2437 -1.5455 0
M  V30 29 H 0.3299 -1.4965 -1.547 0
M  V30 30 H -2.1053 -1.9382 1.2593 0
M  V30 31 H -2.9827 -0.3939 1.2034 0
M  V30 32 H -3.1443 -1.5355 -0.1511 0
M  V30 33 H -3.1195 1.5777 0.1017 0
M  V30 34 H -1.9293 2.7549 -0.5477 0
M  V30 END ATOM
M  V30 BEGIN BOND
M  V30 1 2 1 2
M  V30 2 1 2 3
M  V30 3 1 2 4
M  V30 4 1 3 5
M  V30 5 1 5 6
M  V30 6 1 5 7
M  V30 7 1 6 8
M  V30 8 1 6 9
M  V30 9 1 6 10
M  V30 10 1 7 11
M  V30 11 1 8 12
M  V30 12 1 8 13
M  V30 13 1 9 14
M  V30 14 1 8 11
M  V30 15 1 11 14
M  V30 16 1 4 15
M  V30 17 1 4 16
M  V30 18 1 4 17
M  V30 19 1 5 18
M  V30 20 1 7 19
M  V30 21 1 7 20
M  V30 22 1 9 21
M  V30 23 1 9 22
M  V30 24 1 10 23
M  V30 25 1 10 24
M  V30 26 1 10 25
M  V30 27 1 11 26
M  V30 28 1 12 27
M  V30 29 1 12 28
M  V30 30 1 12 29
M  V30 31 1 13 30
M  V30 32 1 13 31
M  V30 33 1 13 32
M  V30 34 1 14 33
M  V30 35 1 14 34
M  V30 END BOND
M  V30 BEGIN COLLECTION
M  V30 MDLV30/STEABS ATOMS=(3 5 6 11)
M  V30 END COLLECTION
M  V30 END CTAB
M  END
>  <Structure No>
83

>  <LogS>
-3.088778192

>  <MMFF94 Energy>
46.308

$$$$
Compound 84
Actelion Java MolfileCreator 2.0

  0  0  0  0  0  0              0 V3000
M  V30 BEGIN CTAB
M  V30 COUNTS 36 36 0 0 0
M  V30 BEGIN ATOM
M  V30 1 O 1.8884 -0.4718 1.7309 0
M  V30 2 C 2.1676 -0.8157 0.5511 0
M  V30 3 O 1.2685 -0.6042 -0.5052 0
M  V30 4 C 3.5057 -1.4187 0.2568 0
M  V30 5 C -0.0268 0.0082 -0.4133 0
M  V30 6 C 4.5831 -0.3417 0.0782 0
M  V30 7 C -0.955 -0.8675 0.4783 0
M  V30 8 C 0.1101 1.445 0.1344 0
M  V30 9 C -0.5732 0.0794 -1.8503 0
M  V30 10 C 4.3649 0.4977 -1.1805 0
M  V30 11 C -2.3835 -0.3774 0.5571 0
M  V30 12 C -3.3523 -0.8613 -0.3394 0
M  V30 13 C -2.7594 0.566 1.529 0
M  V30 14 C -4.6706 -0.4007 -0.2698 0
M  V30 15 C -4.0789 1.0238 1.5949 0
M  V30 16 C -5.0334 0.5417 0.6957 0
M  V30 17 H 3.7954 -2.0833 1.0992 0
M  V30 18 H 3.4404 -2.0476 -0.6571 0
M  V30 19 H 4.6071 0.3237 0.9688 0
M  V30 20 H 5.5732 -0.8405 0.0018 0
M  V30 21 H -0.5495 -0.9263 1.5096 0
M  V30 22 H -0.9453 -1.9108 0.0927 0
M  V30 23 H -0.8361 2.0124 0.006 0
M  V30 24 H 0.9131 1.9857 -0.4105 0
M  V30 25 H 0.36 1.4439 1.2148 0
M  V30 26 H -1.5395 0.6253 -1.893 0
M  V30 27 H 0.1489 0.6108 -2.507 0
M  V30 28 H -0.7206 -0.9432 -2.2587 0
M  V30 29 H 4.3235 -0.1544 -2.0785 0
M  V30 30 H 5.2066 1.2118 -1.2994 0
M  V30 31 H 3.4218 1.0789 -1.1041 0
M  V30 32 H -3.0857 -1.591 -1.0935 0
M  V30 33 H -2.0313 0.9472 2.234 0
M  V30 34 H -5.4111 -0.7746 -0.9649 0
M  V30 35 H -4.3615 1.7522 2.3439 0
M  V30 36 H -6.0544 0.8973 0.7481 0
M  V30 END ATOM
M  V30 BEGIN BOND
M  V30 1 2 1 2
M  V30 2 1 2 3
M  V30 3 1 2 4
M  V30 4 1 3 5
M  V30 5 1 4 6
M  V30 6 1 5 7
M  V30 7 1 5 8
M  V30 8 1 5 9
M  V30 9 1 6 10
M  V30 10 1 7 11
M  V30 11 2 11 12
M  V30 12 1 11 13
M  V30 13 1 12 14
M  V30 14 2 13 15
M  V30 15 2 14 16
M  V30 16 1 15 16
M  V30 17 1 4 17
M  V30 18 1 4 18
M  V30 19 1 6 19
M  V30 20 1 6 20
M  V30 21 1 7 21
M  V30 22 1 7 22
M  V30 23 1 8 23
M  V30 24 1 8 24
M  V30 25 1 8 25
M  V30 26 1 9 26
M  V30 27 1 9 27
M  V30 28 1 9 28
M  V30 29 1 10 29
M  V30 30 1 10 30
M  V30 31 1 10 31
M  V30 32 1 12 32
M  V30 33 1 13 33
M  V30 34 1 14 34
M  V30 35 1 15 35
M  V30 36 1 16 36
M  V30 END BOND
M  V30 END CTAB
M  END
>  <Structure No>
84

>  <LogS>
-4.135942613

>  <MMFF94 Energy>
27.273

$$$$
Compound 85
Actelion Java MolfileCreator 2.0

  0  0  0  0  0  0              0 V3000
M  V30 BEGIN CTAB
M  V30 COUNTS 55 59 0 0 0
M  V30 BEGIN ATOM
M  V30 1 S 8.5082 0.3359 -0.3359 0
M  V30 2 O 8.6574 0.8483 -1.7406 0
M  V30 3 O 9.3049 -0.9309 -0.1971 0
M  V30 4 O 9.1126 1.4667 0.7499 0 CHG=-1
M  V30 5 C 6.7943 0.0355 0.0097 0
M  V30 6 C 5.8202 1.0674 -0.0136 0
M  V30 7 C 6.4 -1.2731 0.3089 0
M  V30 8 C 4.4569 0.7575 0.2768 0
M  V30 9 C 6.1636 2.4007 -0.3292 0
M  V30 10 C 5.0743 -1.5725 0.6027 0
M  V30 11 C 4.0927 -0.5726 0.6085 0
M  V30 12 C 3.4896 1.7837 0.198 0
M  V30 13 C 5.1907 3.398 -0.3747 0
M  V30 14 N 2.7435 -0.9126 0.9763 0
M  V30 15 C 3.8592 3.0897 -0.1189 0
M  V30 16 N 2.2912 -2.2415 0.8835 0
M  V30 17 C 1.0462 -2.6351 0.831 0
M  V30 18 C -0.0612 -1.7551 0.6909 0
M  V30 19 C 0.8099 -4.0133 0.8839 0
M  V30 20 O 0.1104 -0.5147 0.5395 0
M  V30 21 C -1.379 -2.2621 0.6747 0
M  V30 22 C -0.4862 -4.5204 0.8607 0
M  V30 23 N -2.3646 -1.4129 0.5585 0
M  V30 24 C -1.5823 -3.6624 0.7677 0
M  V30 25 N -3.7206 -1.7706 0.5152 0 CHG=-1
M  V30 26 O -2.7388 -4.1634 0.7635 0
M  V30 27 C -4.7626 -0.799 0.3622 0
M  V30 28 C -4.6828 0.2833 -0.5513 0
M  V30 29 C -5.8908 -0.9366 1.1704 0
M  V30 30 C -5.7142 1.2713 -0.5612 0
M  V30 31 C -3.6316 0.3831 -1.4879 0
M  V30 32 C -6.9051 0.0145 1.1498 0
M  V30 33 C -6.8267 1.1322 0.3103 0
M  V30 34 C -5.6087 2.3579 -1.4572 0
M  V30 35 C -3.5579 1.4638 -2.365 0
M  V30 36 S -8.1466 2.3161 0.3653 0
M  V30 37 C -4.5355 2.4527 -2.3416 0
M  V30 38 O -9.1579 1.9318 1.4091 0
M  V30 39 O -8.8302 2.3726 -0.9717 0
M  V30 40 O -7.5292 3.8298 0.7539 0 CHG=-1
M  V30 41 H 7.1242 -2.0769 0.326 0
M  V30 42 H 7.1797 2.691 -0.5515 0
M  V30 43 H 4.8203 -2.5946 0.8522 0
M  V30 44 H 2.4387 1.592 0.3582 0
M  V30 45 H 5.4702 4.4143 -0.6211 0
M  V30 46 H 2.1958 -0.2249 1.5369 0
M  V30 47 H 3.1067 3.8662 -0.1727 0
M  V30 48 H 1.6406 -4.7047 0.9661 0
M  V30 49 H -0.6381 -5.5913 0.921 0
M  V30 50 H -5.9677 -1.7753 1.8515 0
M  V30 51 H -2.8766 -0.3822 -1.5817 0
M  V30 52 H -7.7517 -0.1219 1.8097 0
M  V30 53 H -6.3531 3.1389 -1.4973 0
M  V30 54 H -2.743 1.529 -3.0744 0
M  V30 55 H -4.4724 3.2886 -3.0264 0
M  V30 END ATOM
M  V30 BEGIN BOND
M  V30 1 2 1 2
M  V30 2 2 1 3
M  V30 3 1 1 4
M  V30 4 1 1 5
M  V30 5 1 5 6
M  V30 6 2 5 7
M  V30 7 1 6 8
M  V30 8 2 6 9
M  V30 9 1 7 10
M  V30 10 1 8 11
M  V30 11 2 8 12
M  V30 12 1 9 13
M  V30 13 1 11 14
M  V30 14 1 12 15
M  V30 15 1 14 16
M  V30 16 2 16 17
M  V30 17 1 17 18
M  V30 18 1 17 19
M  V30 19 2 18 20
M  V30 20 1 18 21
M  V30 21 2 19 22
M  V30 22 2 21 23
M  V30 23 1 21 24
M  V30 24 1 23 25
M  V30 25 2 24 26
M  V30 26 1 25 27
M  V30 27 1 27 28
M  V30 28 2 27 29
M  V30 29 1 28 30
M  V30 30 2 28 31
M  V30 31 1 29 32
M  V30 32 1 30 33
M  V30 33 2 30 34
M  V30 34 1 31 35
M  V30 35 1 33 36
M  V30 36 1 34 37
M  V30 37 2 36 38
M  V30 38 2 36 39
M  V30 39 1 36 40
M  V30 40 2 10 11
M  V30 41 2 13 15
M  V30 42 1 22 24
M  V30 43 2 32 33
M  V30 44 2 35 37
M  V30 45 1 7 41
M  V30 46 1 9 42
M  V30 47 1 10 43
M  V30 48 1 12 44
M  V30 49 1 13 45
M  V30 50 1 14 46
M  V30 51 1 15 47
M  V30 52 1 19 48
M  V30 53 1 22 49
M  V30 54 1 29 50
M  V30 55 1 31 51
M  V30 56 1 32 52
M  V30 57 1 34 53
M  V30 58 1 35 54
M  V30 59 1 37 55
M  V30 END BOND
M  V30 END CTAB
M  END
>  <Structure No>
85

>  <LogS>
-2.603841144

>  <MMFF94 Energy>
338.07

$$$$
Compound 86
Actelion Java MolfileCreator 2.0

  0  0  0  0  0  0              0 V3000
M  V30 BEGIN CTAB
M  V30 COUNTS 32 31 0 0 0
M  V30 BEGIN ATOM
M  V30 1 O -1.8584 -0.6965 -0.0773 0
M  V30 2 C -0.6634 -0.0872 -0.539 0 CFG=1
M  V30 3 C -2.87 0.2607 0.1806 0
M  V30 4 C 0.5259 -0.857 0.0442 0
M  V30 5 C -0.6337 -0.1237 -2.0715 0
M  V30 6 C -2.8051 0.7314 1.6406 0 CFG=2
M  V30 7 O 1.7321 -0.2196 -0.3219 0
M  V30 8 O -2.94 -0.3773 2.4911 0
M  V30 9 C -3.9162 1.7438 1.93 0
M  V30 10 C 2.827 -0.9414 0.2016 0
M  V30 11 C 4.1333 -0.2644 -0.2142 0
M  V30 12 C 4.3368 -0.3036 -1.7274 0
M  V30 13 H -0.5584 0.9735 -0.2055 0
M  V30 14 H -3.8515 -0.2308 0.008 0
M  V30 15 H -2.8317 1.1297 -0.5179 0
M  V30 16 H 0.497 -1.9063 -0.3312 0
M  V30 17 H 0.4183 -0.868 1.1534 0
M  V30 18 H -0.6909 -1.1714 -2.4366 0
M  V30 19 H 0.2978 0.3441 -2.4549 0
M  V30 20 H -1.4969 0.4409 -2.4817 0
M  V30 21 H -1.8217 1.2257 1.8144 0
M  V30 22 H -2.6053 -0.0975 3.3831 0
M  V30 23 H -3.8161 2.6264 1.2628 0
M  V30 24 H -3.8452 2.0914 2.9824 0
M  V30 25 H -4.9142 1.281 1.7741 0
M  V30 26 H 2.7866 -0.9538 1.3148 0
M  V30 27 H 2.8322 -1.9916 -0.1715 0
M  V30 28 H 4.9839 -0.785 0.2766 0
M  V30 29 H 4.13 0.7925 0.13 0
M  V30 30 H 4.3556 -1.3543 -2.0873 0
M  V30 31 H 3.522 0.2465 -2.244 0
M  V30 32 H 5.3045 0.1763 -1.9837 0
M  V30 END ATOM
M  V30 BEGIN BOND
M  V30 1 1 1 2
M  V30 2 1 1 3
M  V30 3 1 2 4
M  V30 4 1 2 5
M  V30 5 1 3 6
M  V30 6 1 4 7
M  V30 7 1 6 8
M  V30 8 1 6 9
M  V30 9 1 7 10
M  V30 10 1 10 11
M  V30 11 1 11 12
M  V30 12 1 2 13
M  V30 13 1 3 14
M  V30 14 1 3 15
M  V30 15 1 4 16
M  V30 16 1 4 17
M  V30 17 1 5 18
M  V30 18 1 5 19
M  V30 19 1 5 20
M  V30 20 1 6 21
M  V30 21 1 8 22
M  V30 22 1 9 23
M  V30 23 1 9 24
M  V30 24 1 9 25
M  V30 25 1 10 26
M  V30 26 1 10 27
M  V30 27 1 11 28
M  V30 28 1 11 29
M  V30 29 1 12 30
M  V30 30 1 12 31
M  V30 31 1 12 32
M  V30 END BOND
M  V30 BEGIN COLLECTION
M  V30 MDLV30/STEABS ATOMS=(2 2 6)
M  V30 END COLLECTION
M  V30 END CTAB
M  END
>  <Structure No>
86

>  <LogS>
-0.070052651

>  <MMFF94 Energy>
44.826

$$$$
Compound 87
Actelion Java MolfileCreator 2.0

  0  0  0  0  0  0              0 V3000
M  V30 BEGIN CTAB
M  V30 COUNTS 34 34 0 0 0
M  V30 BEGIN ATOM
M  V30 1 O -2.24 3.9225 2.7205 0
M  V30 2 C -2.1375 3.1839 1.7331 0
M  V30 3 N -2.0319 2.4241 0.7177 0
M  V30 4 C -1.1101 1.2896 0.6891 0 CFG=2
M  V30 5 C -0.0911 1.4896 -0.439 0
M  V30 6 C -1.9083 -0.0151 0.4912 0
M  V30 7 C 1.016 0.3922 -0.427 0 CFG=2
M  V30 8 C -1.0711 -1.2109 -0.0771 0
M  V30 9 C 0.4602 -0.9762 0.1046 0
M  V30 10 C 2.1792 0.8677 0.4928 0
M  V30 11 C 1.5792 0.2304 -1.8606 0
M  V30 12 C -1.4178 -1.4446 -1.567 0
M  V30 13 C -1.4512 -2.5005 0.6873 0
M  V30 14 N 3.2307 -0.1413 0.5775 0
M  V30 15 C 4.2721 0.0497 1.2815 0
M  V30 16 O 5.2855 0.2359 1.9667 0
M  V30 17 H -0.5606 1.2215 1.657 0
M  V30 18 H 0.3652 2.5003 -0.3453 0
M  V30 19 H -0.6364 1.5004 -1.4072 0
M  V30 20 H -2.7798 0.1844 -0.1724 0
M  V30 21 H -2.3482 -0.275 1.48 0
M  V30 22 H 1.0276 -1.8219 -0.3445 0
M  V30 23 H 0.6657 -1.0383 1.1975 0
M  V30 24 H 2.6139 1.8141 0.0986 0
M  V30 25 H 1.7955 1.0778 1.5158 0
M  V30 26 H 0.7985 -0.0839 -2.5786 0
M  V30 27 H 2.0005 1.1932 -2.2226 0
M  V30 28 H 2.3862 -0.5322 -1.8895 0
M  V30 29 H -1.3681 -0.5086 -2.1542 0
M  V30 30 H -2.457 -1.8255 -1.6711 0
M  V30 31 H -0.732 -2.1915 -2.0213 0
M  V30 32 H -1.2098 -2.4059 1.7683 0
M  V30 33 H -0.8962 -3.3753 0.2843 0
M  V30 34 H -2.5402 -2.7054 0.5971 0
M  V30 END ATOM
M  V30 BEGIN BOND
M  V30 1 2 1 2
M  V30 2 2 2 3
M  V30 3 1 3 4
M  V30 4 1 4 5
M  V30 5 1 4 6
M  V30 6 1 5 7
M  V30 7 1 6 8
M  V30 8 1 7 9
M  V30 9 1 7 10
M  V30 10 1 7 11
M  V30 11 1 8 12
M  V30 12 1 8 13
M  V30 13 1 10 14
M  V30 14 2 14 15
M  V30 15 2 15 16
M  V30 16 1 8 9
M  V30 17 1 4 17
M  V30 18 1 5 18
M  V30 19 1 5 19
M  V30 20 1 6 20
M  V30 21 1 6 21
M  V30 22 1 9 22
M  V30 23 1 9 23
M  V30 24 1 10 24
M  V30 25 1 10 25
M  V30 26 1 11 26
M  V30 27 1 11 27
M  V30 28 1 11 28
M  V30 29 1 12 29
M  V30 30 1 12 30
M  V30 31 1 12 31
M  V30 32 1 13 32
M  V30 33 1 13 33
M  V30 34 1 13 34
M  V30 END BOND
M  V30 BEGIN COLLECTION
M  V30 MDLV30/STEABS ATOMS=(2 4 7)
M  V30 END COLLECTION
M  V30 END CTAB
M  END
>  <Structure No>
87

>  <LogS>
-4.170824759

>  <MMFF94 Energy>
23.422

$$$$
Compound 88
Actelion Java MolfileCreator 2.0

  0  0  0  0  0  0              0 V3000
M  V30 BEGIN CTAB
M  V30 COUNTS 53 52 0 0 0
M  V30 BEGIN ATOM
M  V30 1 O 8.3227 -1.0178 1.6445 0
M  V30 2 C 8.2468 -1.3324 0.4278 0
M  V30 3 O 8.8862 -2.4782 -0.0279 0 CHG=-1
M  V30 4 C 7.4419 -0.4963 -0.519 0
M  V30 5 C 6.0859 -1.1421 -0.844 0
M  V30 6 C 5.1591 -1.3244 0.375 0
M  V30 7 C 4.7802 -0.021 1.1063 0
M  V30 8 C 4.1142 1.0546 0.2251 0
M  V30 9 C 2.8367 0.5993 -0.5027 0
M  V30 10 C 1.7099 0.204 0.4631 0
M  V30 11 C 0.4416 -0.1092 -0.2816 0
M  V30 12 C -0.295 0.8562 -0.8518 0
M  V30 13 C -1.5705 0.545 -1.5885 0
M  V30 14 C -2.6948 0.0899 -0.6459 0
M  V30 15 C -3.138 1.2095 0.3117 0
M  V30 16 C -4.2974 0.7718 1.2323 0
M  V30 17 C -5.6689 1.3336 0.8121 0
M  V30 18 C -6.2029 0.8076 -0.5335 0
M  V30 19 C -6.4719 -0.7076 -0.5733 0
M  V30 20 C -7.5753 -1.143 0.3903 0
M  V30 21 H 8.0168 -0.3871 -1.4633 0
M  V30 22 H 7.3008 0.5257 -0.1088 0
M  V30 23 H 6.2659 -2.1409 -1.2985 0
M  V30 24 H 5.5724 -0.5348 -1.6186 0
M  V30 25 H 4.2339 -1.8426 0.0451 0
M  V30 26 H 5.6469 -2.0064 1.1041 0
M  V30 27 H 5.6891 0.4157 1.5711 0
M  V30 28 H 4.1047 -0.2729 1.9509 0
M  V30 29 H 3.8667 1.9283 0.8669 0
M  V30 30 H 4.8454 1.4186 -0.5273 0
M  V30 31 H 3.0614 -0.2441 -1.1891 0
M  V30 32 H 2.4931 1.4474 -1.1344 0
M  V30 33 H 1.52 1.021 1.1934 0
M  V30 34 H 2.0078 -0.7038 1.0284 0
M  V30 35 H 0.1078 -1.1424 -0.3267 0
M  V30 36 H 0.0365 1.89 -0.8042 0
M  V30 37 H -1.9001 1.4491 -2.1448 0
M  V30 38 H -1.3733 -0.2515 -2.3382 0
M  V30 39 H -3.5531 -0.2289 -1.271 0
M  V30 40 H -2.3613 -0.7952 -0.0616 0
M  V30 41 H -3.4155 2.1175 -0.2674 0
M  V30 42 H -2.2715 1.4857 0.9519 0
M  V30 43 H -4.3395 -0.3324 1.3413 0
M  V30 44 H -4.0887 1.1643 2.2519 0
M  V30 45 H -6.4067 1.1187 1.6135 0
M  V30 46 H -5.5965 2.4416 0.751 0
M  V30 47 H -5.4924 1.0739 -1.3436 0
M  V30 48 H -7.1501 1.3417 -0.7654 0
M  V30 49 H -6.7891 -0.9733 -1.6049 0
M  V30 50 H -5.5472 -1.2819 -0.3615 0
M  V30 51 H -7.2348 -1.0515 1.4425 0
M  V30 52 H -7.8292 -2.2076 0.2032 0
M  V30 53 H -8.4893 -0.53 0.2397 0
M  V30 END ATOM
M  V30 BEGIN BOND
M  V30 1 2 1 2
M  V30 2 1 2 3
M  V30 3 1 2 4
M  V30 4 1 4 5
M  V30 5 1 5 6
M  V30 6 1 6 7
M  V30 7 1 7 8
M  V30 8 1 8 9
M  V30 9 1 9 10
M  V30 10 1 10 11
M  V30 11 2 11 12
M  V30 12 1 12 13
M  V30 13 1 13 14
M  V30 14 1 14 15
M  V30 15 1 15 16
M  V30 16 1 16 17
M  V30 17 1 17 18
M  V30 18 1 18 19
M  V30 19 1 19 20
M  V30 20 1 4 21
M  V30 21 1 4 22
M  V30 22 1 5 23
M  V30 23 1 5 24
M  V30 24 1 6 25
M  V30 25 1 6 26
M  V30 26 1 7 27
M  V30 27 1 7 28
M  V30 28 1 8 29
M  V30 29 1 8 30
M  V30 30 1 9 31
M  V30 31 1 9 32
M  V30 32 1 10 33
M  V30 33 1 10 34
M  V30 34 1 11 35
M  V30 35 1 12 36
M  V30 36 1 13 37
M  V30 37 1 13 38
M  V30 38 1 14 39
M  V30 39 1 14 40
M  V30 40 1 15 41
M  V30 41 1 15 42
M  V30 42 1 16 43
M  V30 43 1 16 44
M  V30 44 1 17 45
M  V30 45 1 17 46
M  V30 46 1 18 47
M  V30 47 1 18 48
M  V30 48 1 19 49
M  V30 49 1 19 50
M  V30 50 1 20 51
M  V30 51 1 20 52
M  V30 52 1 20 53
M  V30 END BOND
M  V30 END CTAB
M  END
>  <Structure No>
88

>  <LogS>
-4.410087437

>  <MMFF94 Energy>
10.305

$$$$
Compound 89
Actelion Java MolfileCreator 2.0

  0  0  0  0  0  0              0 V3000
M  V30 BEGIN CTAB
M  V30 COUNTS 50 52 0 0 0
M  V30 BEGIN ATOM
M  V30 1 Cl 4.4395 0.7254 3.1465 0
M  V30 2 C 5.7167 0.5085 1.952 0
M  V30 3 C 5.4695 0.2295 0.5829 0
M  V30 4 C 7.0367 0.6235 2.4091 0
M  V30 5 N 4.1554 0.0929 0.0172 0
M  V30 6 C 6.5578 0.0748 -0.2839 0
M  V30 7 C 8.1228 0.4669 1.5331 0
M  V30 8 N 3.0806 0.2081 0.6868 0
M  V30 9 C 7.8685 0.1911 0.1807 0
M  V30 10 N 9.4732 0.5876 2.0172 0 CHG=1
M  V30 11 C 1.7879 0.065 0.0868 0
M  V30 12 O 10.4424 0.4487 1.2424 0
M  V30 13 O 9.7195 0.8588 3.3438 0 CHG=-1
M  V30 14 C 0.652 0.2044 0.8861 0
M  V30 15 C 1.6348 -0.2105 -1.2798 0
M  V30 16 C -0.6252 0.0715 0.3353 0
M  V30 17 C 0.3591 -0.3449 -1.8351 0
M  V30 18 C -0.7995 -0.2067 -1.0387 0
M  V30 19 N -2.1309 -0.3461 -1.6158 0
M  V30 20 C -3.3216 0.1865 -0.9319 0
M  V30 21 C -2.3428 -1.0286 -2.9037 0
M  V30 22 C -3.9594 -0.8837 -0.0381 0
M  V30 23 C -2.3241 -0.0291 -4.0584 0
M  V30 24 N -5.0607 -0.3044 0.7399 0 CHG=1
M  V30 25 C -6.3232 -0.275 0.2129 0
M  V30 26 C -4.8076 0.2499 1.9651 0
M  V30 27 C -7.3768 0.2996 0.928 0
M  V30 28 C -5.8385 0.8325 2.7063 0
M  V30 29 C -7.1304 0.854 2.1831 0
M  V30 30 H 7.2123 0.8365 3.456 0
M  V30 31 H 6.3864 -0.1382 -1.3319 0
M  V30 32 H 8.6839 0.065 -0.5201 0
M  V30 33 H 0.7573 0.4157 1.9432 0
M  V30 34 H 2.5 -0.3209 -1.921 0
M  V30 35 H -1.4677 0.1811 1.0012 0
M  V30 36 H 0.296 -0.5481 -2.8932 0
M  V30 37 H -3.0623 1.0924 -0.3432 0
M  V30 38 H -4.074 0.5172 -1.6806 0
M  V30 39 H -3.3266 -1.5464 -2.9042 0
M  V30 40 H -1.5818 -1.8218 -3.0614 0
M  V30 41 H -4.3345 -1.7199 -0.6685 0
M  V30 42 H -3.2002 -1.3258 0.6422 0
M  V30 43 H -2.4182 -0.5727 -5.0217 0
M  V30 44 H -1.3796 0.5518 -4.067 0
M  V30 45 H -3.1752 0.6777 -3.9666 0
M  V30 46 H -6.521 -0.6951 -0.7661 0
M  V30 47 H -3.8045 0.2458 2.3748 0
M  V30 48 H -8.3749 0.3176 0.51 0
M  V30 49 H -5.6356 1.2665 3.6768 0
M  V30 50 H -7.9376 1.3036 2.7467 0
M  V30 END ATOM
M  V30 BEGIN BOND
M  V30 1 1 1 2
M  V30 2 2 2 3
M  V30 3 1 2 4
M  V30 4 1 3 5
M  V30 5 1 3 6
M  V30 6 2 4 7
M  V30 7 2 5 8
M  V30 8 2 6 9
M  V30 9 1 7 10
M  V30 10 1 8 11
M  V30 11 2 10 12
M  V30 12 1 10 13
M  V30 13 2 11 14
M  V30 14 1 11 15
M  V30 15 1 14 16
M  V30 16 2 15 17
M  V30 17 2 16 18
M  V30 18 1 18 19
M  V30 19 1 19 20
M  V30 20 1 19 21
M  V30 21 1 20 22
M  V30 22 1 21 23
M  V30 23 1 22 24
M  V30 24 2 24 25
M  V30 25 1 24 26
M  V30 26 1 25 27
M  V30 27 2 26 28
M  V30 28 2 27 29
M  V30 29 1 7 9
M  V30 30 1 17 18
M  V30 31 1 28 29
M  V30 32 1 4 30
M  V30 33 1 6 31
M  V30 34 1 9 32
M  V30 35 1 14 33
M  V30 36 1 15 34
M  V30 37 1 16 35
M  V30 38 1 17 36
M  V30 39 1 20 37
M  V30 40 1 20 38
M  V30 41 1 21 39
M  V30 42 1 21 40
M  V30 43 1 22 41
M  V30 44 1 22 42
M  V30 45 1 23 43
M  V30 46 1 23 44
M  V30 47 1 23 45
M  V30 48 1 25 46
M  V30 49 1 26 47
M  V30 50 1 27 48
M  V30 51 1 28 49
M  V30 52 1 29 50
M  V30 END BOND
M  V30 END CTAB
M  END
>  <Structure No>
89

>  <LogS>
-1.521890085

>  <MMFF94 Energy>
133.43

$$$$
Compound 90
Actelion Java MolfileCreator 2.0

  0  0  0  0  0  0              0 V3000
M  V30 BEGIN CTAB
M  V30 COUNTS 26 27 0 0 0
M  V30 BEGIN ATOM
M  V30 1 O 0.0798 -1.0384 0.2395 0
M  V30 2 C -0.0073 -0.1024 -0.6022 0
M  V30 3 O -1.2555 0.3079 -1.0851 0
M  V30 4 O 1.145 0.469 -1.1545 0
M  V30 5 C -2.4893 0.045 -0.4708 0
M  V30 6 C 2.4361 0.3755 -0.6131 0
M  V30 7 C -2.6181 -0.1168 0.9228 0
M  V30 8 C -3.6355 -0.0164 -1.2744 0
M  V30 9 C 2.665 0.2376 0.7702 0
M  V30 10 C 3.5321 0.4644 -1.4813 0
M  V30 11 C -3.8726 -0.3657 1.4892 0
M  V30 12 C -4.8882 -0.2664 -0.7049 0
M  V30 13 C 3.9719 0.1606 1.2627 0
M  V30 14 C 4.8374 0.386 -0.9857 0
M  V30 15 C -5.0061 -0.4447 0.6758 0
M  V30 16 C 5.057 0.2304 0.3854 0
M  V30 17 H -1.7616 -0.0225 1.5761 0
M  V30 18 H -3.5532 0.1221 -2.345 0
M  V30 19 H 1.8425 0.2192 1.4722 0
M  V30 20 H 3.3705 0.5866 -2.545 0
M  V30 21 H -3.9672 -0.4883 2.5606 0
M  V30 22 H -5.7675 -0.3201 -1.334 0
M  V30 23 H 4.1434 0.0558 2.3264 0
M  V30 24 H 5.6782 0.4478 -1.6644 0
M  V30 25 H -5.9762 -0.636 1.1162 0
M  V30 26 H 6.0676 0.172 0.7685 0
M  V30 END ATOM
M  V30 BEGIN BOND
M  V30 1 2 1 2
M  V30 2 1 2 3
M  V30 3 1 2 4
M  V30 4 1 3 5
M  V30 5 1 4 6
M  V30 6 2 5 7
M  V30 7 1 5 8
M  V30 8 2 6 9
M  V30 9 1 6 10
M  V30 10 1 7 11
M  V30 11 2 8 12
M  V30 12 1 9 13
M  V30 13 2 10 14
M  V30 14 2 11 15
M  V30 15 2 13 16
M  V30 16 1 12 15
M  V30 17 1 14 16
M  V30 18 1 7 17
M  V30 19 1 8 18
M  V30 20 1 9 19
M  V30 21 1 10 20
M  V30 22 1 11 21
M  V30 23 1 12 22
M  V30 24 1 13 23
M  V30 25 1 14 24
M  V30 26 1 15 25
M  V30 27 1 16 26
M  V30 END BOND
M  V30 END CTAB
M  END
>  <Structure No>
90

>  <LogS>
-4.216916663

>  <MMFF94 Energy>


$$$$
Compound 91
Actelion Java MolfileCreator 2.0

  0  0  0  0  0  0              0 V3000
M  V30 BEGIN CTAB
M  V30 COUNTS 30 29 0 0 0
M  V30 BEGIN ATOM
M  V30 1 O -2.2548 1.3213 -1.4768 0
M  V30 2 C -1.7769 0.4055 -0.7527 0
M  V30 3 O -2.2545 0.1989 0.5502 0
M  V30 4 C -0.6837 -0.4743 -1.3022 0 CFG=1
M  V30 5 C -2.99 1.1264 1.3028 0
M  V30 6 C 0.7058 0.146 -1.0162 0
M  V30 7 C -0.848 -1.9305 -0.8061 0
M  V30 8 C -2.8553 2.4456 1.1672 0
M  V30 9 C 1.0902 0.1821 0.4735 0
M  V30 10 C 0.1451 -2.8967 -1.4519 0
M  V30 11 C 2.431 0.8978 0.6742 0
M  V30 12 C 2.823 0.9319 2.1487 0
M  V30 13 H -0.8064 -0.4937 -2.4089 0
M  V30 14 H -3.666 0.7498 2.0596 0
M  V30 15 H 1.4823 -0.4122 -1.5816 0
M  V30 16 H 0.7141 1.1846 -1.4164 0
M  V30 17 H -1.8735 -2.278 -1.0616 0
M  V30 18 H -0.7506 -1.9895 0.2987 0
M  V30 19 H -3.4391 3.1128 1.7879 0
M  V30 20 H -2.1435 2.8762 0.4769 0
M  V30 21 H 0.3072 0.7167 1.0526 0
M  V30 22 H 1.1789 -0.854 0.8631 0
M  V30 23 H -0.1174 -3.9384 -1.1708 0
M  V30 24 H 0.1098 -2.8098 -2.5587 0
M  V30 25 H 1.1765 -2.6949 -1.0957 0
M  V30 26 H 3.2263 0.3714 0.1027 0
M  V30 27 H 2.3593 1.9419 0.2983 0
M  V30 28 H 2.9276 -0.1008 2.5442 0
M  V30 29 H 3.7953 1.456 2.2629 0
M  V30 30 H 2.055 1.4753 2.7397 0
M  V30 END ATOM
M  V30 BEGIN BOND
M  V30 1 2 1 2
M  V30 2 1 2 3
M  V30 3 1 2 4
M  V30 4 1 3 5
M  V30 5 1 4 6
M  V30 6 1 4 7
M  V30 7 2 5 8
M  V30 8 1 6 9
M  V30 9 1 7 10
M  V30 10 1 9 11
M  V30 11 1 11 12
M  V30 12 1 4 13
M  V30 13 1 5 14
M  V30 14 1 6 15
M  V30 15 1 6 16
M  V30 16 1 7 17
M  V30 17 1 7 18
M  V30 18 1 8 19
M  V30 19 1 8 20
M  V30 20 1 9 21
M  V30 21 1 9 22
M  V30 22 1 10 23
M  V30 23 1 10 24
M  V30 24 1 10 25
M  V30 25 1 11 26
M  V30 26 1 11 27
M  V30 27 1 12 28
M  V30 28 1 12 29
M  V30 29 1 12 30
M  V30 END BOND
M  V30 BEGIN COLLECTION
M  V30 MDLV30/STEABS ATOMS=(1 4)
M  V30 END COLLECTION
M  V30 END CTAB
M  END
>  <Structure No>
91

>  <LogS>
-4.151910976

>  <MMFF94 Energy>
21.101

$$$$
Compound 92
Actelion Java MolfileCreator 2.0

  0  0  0  0  0  0              0 V3000
M  V30 BEGIN CTAB
M  V30 COUNTS 27 26 0 0 0
M  V30 BEGIN ATOM
M  V30 1 O 2.4862 2.0974 -0.9317 0
M  V30 2 C 2.5007 0.8881 -0.5695 0
M  V30 3 N 1.2557 0.2158 -0.3163 0
M  V30 4 C 3.8018 0.1835 -0.4105 0
M  V30 5 C -0.0248 0.8918 -0.5317 0
M  V30 6 C 4.9523 0.8684 -0.4481 0
M  V30 7 C 3.836 -1.3026 -0.1719 0
M  V30 8 N -1.1478 -0.0047 -0.2537 0
M  V30 9 C -2.5053 0.4593 -0.335 0
M  V30 10 O -2.7419 1.6126 -0.7885 0
M  V30 11 C -3.6417 -0.3986 0.0805 0
M  V30 12 C -3.4888 -1.35 1.0087 0
M  V30 13 C -5.0173 -0.1086 -0.4539 0
M  V30 14 H 1.2636 -0.7569 0.0617 0
M  V30 15 H -0.086 1.7749 0.1406 0
M  V30 16 H -0.0867 1.2356 -1.5869 0
M  V30 17 H 4.9687 1.9401 -0.6018 0
M  V30 18 H 5.9051 0.3703 -0.3191 0
M  V30 19 H 3.1871 -1.8186 -0.9103 0
M  V30 20 H 3.475 -1.5227 0.8545 0
M  V30 21 H 4.8611 -1.7182 -0.28 0
M  V30 22 H -0.966 -1.0153 -0.0639 0
M  V30 23 H -4.3331 -1.9429 1.3388 0
M  V30 24 H -2.535 -1.5385 1.4821 0
M  V30 25 H -4.9548 0.2981 -1.4854 0
M  V30 26 H -5.6344 -1.0322 -0.4926 0
M  V30 27 H -5.5194 0.6361 0.1987 0
M  V30 END ATOM
M  V30 BEGIN BOND
M  V30 1 2 1 2
M  V30 2 1 2 3
M  V30 3 1 2 4
M  V30 4 1 3 5
M  V30 5 2 4 6
M  V30 6 1 4 7
M  V30 7 1 5 8
M  V30 8 1 8 9
M  V30 9 2 9 10
M  V30 10 1 9 11
M  V30 11 2 11 12
M  V30 12 1 11 13
M  V30 13 1 3 14
M  V30 14 1 5 15
M  V30 15 1 5 16
M  V30 16 1 6 17
M  V30 17 1 6 18
M  V30 18 1 7 19
M  V30 19 1 7 20
M  V30 20 1 7 21
M  V30 21 1 8 22
M  V30 22 1 12 23
M  V30 23 1 12 24
M  V30 24 1 13 25
M  V30 25 1 13 26
M  V30 26 1 13 27
M  V30 END BOND
M  V30 END CTAB
M  END
>  <Structure No>
92

>  <LogS>
-1.189236756

>  <MMFF94 Energy>
-95.026

$$$$
Compound 93
Actelion Java MolfileCreator 2.0

  0  0  0  0  0  0              0 V3000
M  V30 BEGIN CTAB
M  V30 COUNTS 20 20 0 0 0
M  V30 BEGIN ATOM
M  V30 1 C 0.5476 1.7219 -0.3911 0
M  V30 2 C -0.7899 1.6128 -0.3432 0
M  V30 3 C 1.5024 0.7702 0.2806 0
M  V30 4 C -1.5279 0.5228 0.3889 0
M  V30 5 C 1.5864 -0.5805 -0.4508 0
M  V30 6 C -1.4439 -0.8279 -0.3424 0
M  V30 7 C 0.8484 -1.6705 0.2814 0
M  V30 8 C -0.4891 -1.7795 0.3292 0
M  V30 9 H 0.9713 2.5698 -0.922 0
M  V30 10 H -1.3819 2.3778 -0.8379 0
M  V30 11 H 1.2402 0.6477 1.3545 0
M  V30 12 H 2.5095 1.2407 0.2584 0
M  V30 13 H -1.1741 0.4507 1.4407 0
M  V30 14 H -2.5972 0.8239 0.4409 0
M  V30 15 H 1.2325 -0.5083 -1.5025 0
M  V30 16 H 2.6556 -0.8815 -0.5027 0
M  V30 17 H -1.1817 -0.7053 -1.4162 0
M  V30 18 H -2.4511 -1.2982 -0.3202 0
M  V30 19 H 1.4403 -2.4354 0.7761 0
M  V30 20 H -0.9128 -2.6274 0.8602 0
M  V30 END ATOM
M  V30 BEGIN BOND
M  V30 1 2 1 2
M  V30 2 1 1 3
M  V30 3 1 2 4
M  V30 4 1 3 5
M  V30 5 1 4 6
M  V30 6 1 5 7
M  V30 7 1 6 8
M  V30 8 2 7 8
M  V30 9 1 1 9
M  V30 10 1 2 10
M  V30 11 1 3 11
M  V30 12 1 3 12
M  V30 13 1 4 13
M  V30 14 1 4 14
M  V30 15 1 5 15
M  V30 16 1 5 16
M  V30 17 1 6 17
M  V30 18 1 6 18
M  V30 19 1 7 19
M  V30 20 1 8 20
M  V30 END BOND
M  V30 END CTAB
M  END
>  <Structure No>
93

>  <LogS>
-2.965977173

>  <MMFF94 Energy>
33.855

$$$$
Compound 94
Actelion Java MolfileCreator 2.0

  0  0  0  0  0  0              0 V3000
M  V30 BEGIN CTAB
M  V30 COUNTS 42 42 0 0 0
M  V30 BEGIN ATOM
M  V30 1 O -0.5529 -0.0789 0.5529 0
M  V30 2 C -1.09 -1.1367 0.1227 0
M  V30 3 O -2.4824 -1.2826 0.1541 0
M  V30 4 C -0.2505 -2.2556 -0.3607 0
M  V30 5 C -3.3712 -0.2425 0.5569 0
M  V30 6 C 0.9976 -2.0564 -1.0124 0
M  V30 7 C -0.6862 -3.5679 -0.1033 0
M  V30 8 C -3.48 0.8224 -0.5417 0
M  V30 9 C 1.4737 -0.723 -1.4392 0
M  V30 10 C 1.7962 -3.1718 -1.3203 0
M  V30 11 C 0.1113 -4.6625 -0.4391 0
M  V30 12 C -4.5477 1.8827 -0.2336 0
M  V30 13 O 0.6562 0.1331 -1.8758 0
M  V30 14 O 2.8436 -0.4374 -1.4032 0
M  V30 15 C 1.3549 -4.4644 -1.0352 0
M  V30 16 C -4.141 2.8132 0.9085 0
M  V30 17 C 3.3874 0.8459 -1.7095 0
M  V30 18 C 3.0865 1.8577 -0.5973 0
M  V30 19 C 3.6765 1.4152 0.7476 0
M  V30 20 C 3.3923 2.4439 1.8379 0
M  V30 21 H -4.3718 -0.6909 0.7335 0
M  V30 22 H -3.0188 0.2029 1.5116 0
M  V30 23 H -1.6341 -3.7472 0.3894 0
M  V30 24 H -2.4956 1.3146 -0.696 0
M  V30 25 H -3.7543 0.3175 -1.4933 0
M  V30 26 H 2.7527 -3.0449 -1.8127 0
M  V30 27 H -0.2306 -5.6667 -0.2241 0
M  V30 28 H -4.7039 2.4987 -1.1455 0
M  V30 29 H -5.5154 1.393 0.0106 0
M  V30 30 H 1.9738 -5.3153 -1.2887 0
M  V30 31 H -3.153 3.2759 0.7001 0
M  V30 32 H -4.8948 3.6221 1.0112 0
M  V30 33 H -4.0953 2.26 1.8692 0
M  V30 34 H 2.9765 1.2117 -2.6754 0
M  V30 35 H 4.4873 0.7474 -1.828 0
M  V30 36 H 1.9873 1.9885 -0.4994 0
M  V30 37 H 3.5225 2.8388 -0.8865 0
M  V30 38 H 3.2338 0.4421 1.0527 0
M  V30 39 H 4.7767 1.2872 0.6508 0
M  V30 40 H 3.8293 2.0981 2.7983 0
M  V30 41 H 2.2968 2.5712 1.9716 0
M  V30 42 H 3.8462 3.4226 1.5732 0
M  V30 END ATOM
M  V30 BEGIN BOND
M  V30 1 2 1 2
M  V30 2 1 2 3
M  V30 3 1 2 4
M  V30 4 1 3 5
M  V30 5 2 4 6
M  V30 6 1 4 7
M  V30 7 1 5 8
M  V30 8 1 6 9
M  V30 9 1 6 10
M  V30 10 2 7 11
M  V30 11 1 8 12
M  V30 12 2 9 13
M  V30 13 1 9 14
M  V30 14 2 10 15
M  V30 15 1 12 16
M  V30 16 1 14 17
M  V30 17 1 17 18
M  V30 18 1 18 19
M  V30 19 1 19 20
M  V30 20 1 11 15
M  V30 21 1 5 21
M  V30 22 1 5 22
M  V30 23 1 7 23
M  V30 24 1 8 24
M  V30 25 1 8 25
M  V30 26 1 10 26
M  V30 27 1 11 27
M  V30 28 1 12 28
M  V30 29 1 12 29
M  V30 30 1 15 30
M  V30 31 1 16 31
M  V30 32 1 16 32
M  V30 33 1 16 33
M  V30 34 1 17 34
M  V30 35 1 17 35
M  V30 36 1 18 36
M  V30 37 1 18 37
M  V30 38 1 19 38
M  V30 39 1 19 39
M  V30 40 1 20 40
M  V30 41 1 20 41
M  V30 42 1 20 42
M  V30 END BOND
M  V30 END CTAB
M  END
>  <Structure No>
94

>  <LogS>
-4.387683254

>  <MMFF94 Energy>
17.561

$$$$
Compound 95
Actelion Java MolfileCreator 2.0

  0  0  0  0  0  0              0 V3000
M  V30 BEGIN CTAB
M  V30 COUNTS 72 76 0 0 0
M  V30 BEGIN ATOM
M  V30 1 S -5.1475 2.3222 3.568 0
M  V30 2 O -5.3434 3.8025 3.7328 0
M  V30 3 O -4.0332 1.918 4.4912 0
M  V30 4 O -6.5581 1.5297 4.0181 0 CHG=-1
M  V30 5 C -4.7479 1.8878 1.8769 0
M  V30 6 C -4.0426 0.6824 1.5889 0
M  V30 7 C -5.1379 2.7294 0.8003 0
M  V30 8 C -3.5942 0.4303 0.2679 0
M  V30 9 C -3.695 -0.2979 2.6896 0
M  V30 10 C -4.6911 2.451 -0.497 0
M  V30 11 C -6.0111 3.944 0.9913 0
M  V30 12 N -2.7929 -0.7292 -0.0205 0
M  V30 13 C -3.9181 1.3219 -0.7717 0
M  V30 14 C -1.3876 -0.6401 -0.3262 0
M  V30 15 C -3.4443 1.0764 -2.1807 0
M  V30 16 C -0.7401 -1.6062 -1.1452 0
M  V30 17 C -0.6319 0.3848 0.2571 0
M  V30 18 C -1.513 -2.6147 -1.9324 0
M  V30 19 C 0.6757 -1.5773 -1.2722 0
M  V30 20 C 0.7356 0.4717 0.0451 0
M  V30 21 O -2.7635 -2.5122 -2.0546 0
M  V30 22 C -0.8158 -3.7039 -2.6507 0
M  V30 23 C 1.3659 -2.7273 -1.9289 0
M  V30 24 C 1.4072 -0.4902 -0.7205 0
M  V30 25 C 0.59 -3.7546 -2.655 0
M  V30 26 C -1.5465 -4.6896 -3.3419 0
M  V30 27 O 2.6125 -2.8775 -1.8114 0
M  V30 28 N 2.8153 -0.3249 -0.9855 0
M  V30 29 C 1.2449 -4.7928 -3.3454 0
M  V30 30 C -0.8852 -5.7129 -4.0238 0
M  V30 31 C 3.6831 0.4405 -0.1314 0
M  V30 32 C 0.5082 -5.7649 -4.025 0
M  V30 33 C 4.1401 -0.0872 1.1031 0
M  V30 34 C 4.0741 1.7279 -0.539 0
M  V30 35 C 5.0275 0.6818 1.9136 0
M  V30 36 C 3.7273 -1.4842 1.5173 0
M  V30 37 C 4.8779 2.5033 0.2963 0
M  V30 38 C 3.6097 2.2926 -1.8565 0
M  V30 39 S 5.7199 -0.0025 3.4193 0
M  V30 40 C 5.3255 2.0173 1.5299 0
M  V30 41 O 7.039 0.6351 3.7553 0
M  V30 42 O 5.9674 -1.4789 3.2814 0
M  V30 43 O 4.6423 0.2631 4.6825 0 CHG=-1
M  V30 44 C 6.1311 2.9536 2.3956 0
M  V30 45 H -4.5242 -0.3829 3.4215 0
M  V30 46 H -3.539 -1.3263 2.3128 0
M  V30 47 H -2.7655 0.0292 3.1996 0
M  V30 48 H -4.9517 3.123 -1.3072 0
M  V30 49 H -5.4058 4.7851 1.3903 0
M  V30 50 H -6.8553 3.7126 1.6743 0
M  V30 51 H -6.4625 4.2752 0.0311 0
M  V30 52 H -3.2233 -1.6682 0.128 0
M  V30 53 H -3.6612 0.0301 -2.4792 0
M  V30 54 H -2.3513 1.258 -2.2449 0
M  V30 55 H -3.9525 1.7454 -2.9078 0
M  V30 56 H -1.1043 1.1274 0.8877 0
M  V30 57 H 1.2706 1.3045 0.4821 0
M  V30 58 H -2.6291 -4.6717 -3.355 0
M  V30 59 H 3.1605 -0.5264 -1.9507 0
M  V30 60 H 2.3255 -4.8521 -3.3622 0
M  V30 61 H -1.4549 -6.4666 -4.5521 0
M  V30 62 H 1.0184 -6.5596 -4.5539 0
M  V30 63 H 4.546 -2.1974 1.2888 0
M  V30 64 H 2.8206 -1.844 0.9985 0
M  V30 65 H 3.481 -1.5138 2.5995 0
M  V30 66 H 5.1493 3.5065 -0.012 0
M  V30 67 H 3.8876 3.3623 -1.9673 0
M  V30 68 H 2.5046 2.2188 -1.9338 0
M  V30 69 H 4.0739 1.7251 -2.6897 0
M  V30 70 H 7.2119 2.7219 2.2955 0
M  V30 71 H 5.8156 2.8739 3.4565 0
M  V30 72 H 5.9784 4.0143 2.1003 0
M  V30 END ATOM
M  V30 BEGIN BOND
M  V30 1 2 1 2
M  V30 2 2 1 3
M  V30 3 1 1 4
M  V30 4 1 1 5
M  V30 5 2 5 6
M  V30 6 1 5 7
M  V30 7 1 6 8
M  V30 8 1 6 9
M  V30 9 2 7 10
M  V30 10 1 7 11
M  V30 11 1 8 12
M  V30 12 2 8 13
M  V30 13 1 12 14
M  V30 14 1 13 15
M  V30 15 2 14 16
M  V30 16 1 14 17
M  V30 17 1 16 18
M  V30 18 1 16 19
M  V30 19 2 17 20
M  V30 20 2 18 21
M  V30 21 1 18 22
M  V30 22 1 19 23
M  V30 23 2 19 24
M  V30 24 2 22 25
M  V30 25 1 22 26
M  V30 26 2 23 27
M  V30 27 1 24 28
M  V30 28 1 25 29
M  V30 29 2 26 30
M  V30 30 1 28 31
M  V30 31 2 29 32
M  V30 32 2 31 33
M  V30 33 1 31 34
M  V30 34 1 33 35
M  V30 35 1 33 36
M  V30 36 2 34 37
M  V30 37 1 34 38
M  V30 38 1 35 39
M  V30 39 2 35 40
M  V30 40 2 39 41
M  V30 41 2 39 42
M  V30 42 1 39 43
M  V30 43 1 40 44
M  V30 44 1 10 13
M  V30 45 1 20 24
M  V30 46 1 23 25
M  V30 47 1 30 32
M  V30 48 1 37 40
M  V30 49 1 9 45
M  V30 50 1 9 46
M  V30 51 1 9 47
M  V30 52 1 10 48
M  V30 53 1 11 49
M  V30 54 1 11 50
M  V30 55 1 11 51
M  V30 56 1 12 52
M  V30 57 1 15 53
M  V30 58 1 15 54
M  V30 59 1 15 55
M  V30 60 1 17 56
M  V30 61 1 20 57
M  V30 62 1 26 58
M  V30 63 1 28 59
M  V30 64 1 29 60
M  V30 65 1 30 61
M  V30 66 1 32 62
M  V30 67 1 36 63
M  V30 68 1 36 64
M  V30 69 1 36 65
M  V30 70 1 37 66
M  V30 71 1 38 67
M  V30 72 1 38 68
M  V30 73 1 38 69
M  V30 74 1 44 70
M  V30 75 1 44 71
M  V30 76 1 44 72
M  V30 END BOND
M  V30 END CTAB
M  END
>  <Structure No>
95

>  <LogS>
-1.79226117

>  <MMFF94 Energy>
215.16

$$$$
Compound 96
Actelion Java MolfileCreator 2.0

  0  0  0  0  0  0              0 V3000
M  V30 BEGIN CTAB
M  V30 COUNTS 27 28 0 0 0
M  V30 BEGIN ATOM
M  V30 1 O -0.7207 -1.8427 -1.6823 0
M  V30 2 C -0.6538 -0.953 -0.7904 0
M  V30 3 C 0.6749 -0.5904 -0.238 0
M  V30 4 C -1.9069 -0.3128 -0.3167 0
M  V30 5 C 1.8026 -0.4847 -1.0775 0
M  V30 6 C 0.825 -0.3865 1.1416 0
M  V30 7 C -1.9048 1.0024 0.1867 0
M  V30 8 C -3.1281 -1.0067 -0.4009 0
M  V30 9 O 1.6565 -0.6842 -2.4528 0
M  V30 10 C 3.0649 -0.1655 -0.5361 0
M  V30 11 C 2.0704 -0.0676 1.679 0
M  V30 12 C -3.0948 1.5977 0.6166 0
M  V30 13 C -4.3154 -0.4067 0.0305 0
M  V30 14 O 4.1545 -0.068 -1.406 0
M  V30 15 C 3.1946 0.0466 0.8576 0
M  V30 16 C -4.2984 0.8932 0.5411 0
M  V30 17 O 4.4107 0.3687 1.4644 0
M  V30 18 H -0.0224 -0.4871 1.8087 0
M  V30 19 H -0.988 1.5761 0.2343 0
M  V30 20 H -3.1628 -2.0168 -0.7903 0
M  V30 21 H 2.4335 -0.6152 -3.0987 0
M  V30 22 H 2.1649 0.0872 2.7467 0
M  V30 23 H -3.0843 2.6086 1.0035 0
M  V30 24 H -5.2494 -0.9504 -0.0311 0
M  V30 25 H 5.0957 0.1527 -1.1155 0
M  V30 26 H -5.2186 1.3564 0.8736 0
M  V30 27 H 5.282 0.4779 0.9664 0
M  V30 END ATOM
M  V30 BEGIN BOND
M  V30 1 2 1 2
M  V30 2 1 2 3
M  V30 3 1 2 4
M  V30 4 2 3 5
M  V30 5 1 3 6
M  V30 6 2 4 7
M  V30 7 1 4 8
M  V30 8 1 5 9
M  V30 9 1 5 10
M  V30 10 2 6 11
M  V30 11 1 7 12
M  V30 12 2 8 13
M  V30 13 1 10 14
M  V30 14 2 10 15
M  V30 15 2 12 16
M  V30 16 1 15 17
M  V30 17 1 11 15
M  V30 18 1 13 16
M  V30 19 1 6 18
M  V30 20 1 7 19
M  V30 21 1 8 20
M  V30 22 1 9 21
M  V30 23 1 11 22
M  V30 24 1 12 23
M  V30 25 1 13 24
M  V30 26 1 14 25
M  V30 27 1 16 26
M  V30 28 1 17 27
M  V30 END BOND
M  V30 END CTAB
M  END
>  <Structure No>
96

>  <LogS>
-3.345107824

>  <MMFF94 Energy>
63.415

$$$$
Compound 97
Actelion Java MolfileCreator 2.0

  0  0  0  0  0  0              0 V3000
M  V30 BEGIN CTAB
M  V30 COUNTS 45 45 0 0 0
M  V30 BEGIN ATOM
M  V30 1 O -4.429 -2.0544 0.4738 0
M  V30 2 C -5.1386 -1.1251 0.0062 0
M  V30 3 O -6.3899 -1.3442 -0.529 0
M  V30 4 C -4.7067 0.3099 -0.0726 0 CFG=1
M  V30 5 C -6.8604 -0.1359 -0.9953 0
M  V30 6 C -5.9034 0.9884 -0.7838 0
M  V30 7 C -4.4549 0.9169 1.3221 0
M  V30 8 O -7.9852 -0.0085 -1.5457 0
M  V30 9 C -3.2596 0.3067 2.014 0
M  V30 10 C -1.9714 0.5683 1.7203 0
M  V30 11 C -1.4929 1.5012 0.6316 0
M  V30 12 C -0.7721 0.7476 -0.5 0
M  V30 13 C 0.5143 0.0135 -0.077 0
M  V30 14 C 1.6256 0.9708 0.3872 0
M  V30 15 C 2.9402 0.2386 0.7025 0
M  V30 16 C 3.7016 -0.185 -0.5629 0
M  V30 17 C 5.0594 -0.8009 -0.2051 0
M  V30 18 C 5.8169 -1.2339 -1.4657 0
M  V30 19 C 7.1696 -1.8457 -1.113 0
M  V30 20 H -3.8039 0.3886 -0.712 0
M  V30 21 H -5.5928 1.4102 -1.7638 0
M  V30 22 H -6.382 1.7798 -0.1668 0
M  V30 23 H -5.3515 0.7444 1.9579 0
M  V30 24 H -4.3267 2.0181 1.2513 0
M  V30 25 H -3.4601 -0.3661 2.8431 0
M  V30 26 H -1.2132 0.0801 2.3251 0
M  V30 27 H -2.3295 2.0735 0.1843 0
M  V30 28 H -0.8199 2.2592 1.0806 0
M  V30 29 H -1.47 0.0018 -0.9374 0
M  V30 30 H -0.5251 1.4706 -1.3077 0
M  V30 31 H 0.2923 -0.7267 0.72 0
M  V30 32 H 0.8675 -0.5574 -0.9605 0
M  V30 33 H 1.2984 1.4775 1.3194 0
M  V30 34 H 1.8033 1.755 -0.3808 0
M  V30 35 H 2.7349 -0.6502 1.3388 0
M  V30 36 H 3.5845 0.9298 1.2896 0
M  V30 37 H 3.8629 0.7035 -1.2123 0
M  V30 38 H 3.107 -0.9333 -1.1282 0
M  V30 39 H 5.6683 -0.0537 0.3504 0
M  V30 40 H 4.9006 -1.6855 0.4507 0
M  V30 41 H 5.2173 -1.9854 -2.0241 0
M  V30 42 H 5.9814 -0.3539 -2.1252 0
M  V30 43 H 7.7998 -1.1052 -0.5759 0
M  V30 44 H 7.6938 -2.1496 -2.0435 0
M  V30 45 H 7.032 -2.7435 -0.4734 0
M  V30 END ATOM
M  V30 BEGIN BOND
M  V30 1 2 1 2
M  V30 2 1 2 3
M  V30 3 1 2 4
M  V30 4 1 3 5
M  V30 5 1 4 6
M  V30 6 1 4 7
M  V30 7 2 5 8
M  V30 8 1 7 9
M  V30 9 2 9 10
M  V30 10 1 10 11
M  V30 11 1 11 12
M  V30 12 1 12 13
M  V30 13 1 13 14
M  V30 14 1 14 15
M  V30 15 1 15 16
M  V30 16 1 16 17
M  V30 17 1 17 18
M  V30 18 1 18 19
M  V30 19 1 5 6
M  V30 20 1 4 20
M  V30 21 1 6 21
M  V30 22 1 6 22
M  V30 23 1 7 23
M  V30 24 1 7 24
M  V30 25 1 9 25
M  V30 26 1 10 26
M  V30 27 1 11 27
M  V30 28 1 11 28
M  V30 29 1 12 29
M  V30 30 1 12 30
M  V30 31 1 13 31
M  V30 32 1 13 32
M  V30 33 1 14 33
M  V30 34 1 14 34
M  V30 35 1 15 35
M  V30 36 1 15 36
M  V30 37 1 16 37
M  V30 38 1 16 38
M  V30 39 1 17 39
M  V30 40 1 17 40
M  V30 41 1 18 41
M  V30 42 1 18 42
M  V30 43 1 19 43
M  V30 44 1 19 44
M  V30 45 1 19 45
M  V30 END BOND
M  V30 BEGIN COLLECTION
M  V30 MDLV30/STEABS ATOMS=(1 4)
M  V30 END COLLECTION
M  V30 END CTAB
M  END
>  <Structure No>
97

>  <LogS>
-4.425503245

>  <MMFF94 Energy>
-29.513

$$$$
Compound 98
Actelion Java MolfileCreator 2.0

  0  0  0  0  0  0              0 V3000
M  V30 BEGIN CTAB
M  V30 COUNTS 45 45 0 0 0
M  V30 BEGIN ATOM
M  V30 1 O 4.6738 0.7118 0.9492 0
M  V30 2 C 3.9688 0.5683 -0.0838 0
M  V30 3 O 3.5827 1.6262 -0.8816 0
M  V30 4 C 3.5022 -0.7505 -0.6121 0 CFG=1
M  V30 5 C 2.821 1.1148 -1.9144 0
M  V30 6 C 2.7802 -1.6156 0.4217 0
M  V30 7 C 2.6394 -0.3659 -1.8351 0
M  V30 8 O 2.3193 1.8378 -2.814 0
M  V30 9 C 1.6837 -1.2428 1.1327 0
M  V30 10 C 3.3188 -3.0027 0.6805 0
M  V30 11 C 0.9397 0.0767 1.0475 0 CFG=1
M  V30 12 C -0.4959 -0.162 0.5034 0
M  V30 13 C 0.919 0.7081 2.4467 0
M  V30 14 C -0.9986 0.951 -0.4519 0 CFG=1
M  V30 15 C -2.2481 0.5193 -1.2714 0
M  V30 16 C -1.189 2.3058 0.2515 0
M  V30 17 C -3.4096 -0.1668 -0.5027 0
M  V30 18 C -4.0716 0.7573 0.529 0
M  V30 19 C -4.4647 -0.658 -1.5047 0
M  V30 20 H 4.4064 -1.2765 -0.9879 0
M  V30 21 H 3.0208 -0.8487 -2.7604 0
M  V30 22 H 1.5664 -0.6159 -1.6994 0
M  V30 23 H 1.2615 -1.9662 1.8281 0
M  V30 24 H 2.535 -3.7573 0.4568 0
M  V30 25 H 3.618 -3.0961 1.7461 0
M  V30 26 H 4.2041 -3.2343 0.0532 0
M  V30 27 H 1.4608 0.7864 0.3882 0
M  V30 28 H -0.5112 -1.1146 -0.0732 0
M  V30 29 H -1.2082 -0.2957 1.3462 0
M  V30 30 H 0.4124 1.6928 2.4352 0
M  V30 31 H 1.9589 0.8677 2.8048 0
M  V30 32 H 0.3924 0.049 3.1705 0
M  V30 33 H -0.2038 1.1173 -1.2131 0
M  V30 34 H -2.6426 1.3925 -1.8366 0
M  V30 35 H -1.8897 -0.1984 -2.043 0
M  V30 36 H -1.6963 2.1981 1.2292 0
M  V30 37 H -1.7725 3.0061 -0.3827 0
M  V30 38 H -0.1997 2.7774 0.4294 0
M  V30 39 H -3.0267 -1.0665 0.0246 0
M  V30 40 H -3.4369 0.8434 1.432 0
M  V30 41 H -4.2571 1.7647 0.0989 0
M  V30 42 H -5.0413 0.3347 0.8689 0
M  V30 43 H -5.2744 -1.2058 -0.9768 0
M  V30 44 H -4.9107 0.1982 -2.0552 0
M  V30 45 H -4.0065 -1.3562 -2.2373 0
M  V30 END ATOM
M  V30 BEGIN BOND
M  V30 1 2 1 2
M  V30 2 1 2 3
M  V30 3 1 2 4
M  V30 4 1 3 5
M  V30 5 1 4 6
M  V30 6 1 4 7
M  V30 7 2 5 8
M  V30 8 2 6 9
M  V30 9 1 6 10
M  V30 10 1 9 11
M  V30 11 1 11 12
M  V30 12 1 11 13
M  V30 13 1 12 14
M  V30 14 1 14 15
M  V30 15 1 14 16
M  V30 16 1 15 17
M  V30 17 1 17 18
M  V30 18 1 17 19
M  V30 19 1 5 7
M  V30 20 1 4 20
M  V30 21 1 7 21
M  V30 22 1 7 22
M  V30 23 1 9 23
M  V30 24 1 10 24
M  V30 25 1 10 25
M  V30 26 1 10 26
M  V30 27 1 11 27
M  V30 28 1 12 28
M  V30 29 1 12 29
M  V30 30 1 13 30
M  V30 31 1 13 31
M  V30 32 1 13 32
M  V30 33 1 14 33
M  V30 34 1 15 34
M  V30 35 1 15 35
M  V30 36 1 16 36
M  V30 37 1 16 37
M  V30 38 1 16 38
M  V30 39 1 17 39
M  V30 40 1 18 40
M  V30 41 1 18 41
M  V30 42 1 18 42
M  V30 43 1 19 43
M  V30 44 1 19 44
M  V30 45 1 19 45
M  V30 END BOND
M  V30 BEGIN COLLECTION
M  V30 MDLV30/STEABS ATOMS=(3 4 11 14)
M  V30 END COLLECTION
M  V30 END CTAB
M  END
>  <Structure No>
98

>  <LogS>
-4.425503245

>  <MMFF94 Energy>
11.118

$$$$
Compound 99
Actelion Java MolfileCreator 2.0

  0  0  0  0  0  0              0 V3000
M  V30 BEGIN CTAB
M  V30 COUNTS 44 44 0 0 0
M  V30 BEGIN ATOM
M  V30 1 O 8.3556 1.5874 0.7934 0
M  V30 2 C 7.2694 2.1572 1.0808 0
M  V30 3 O 7.2977 3.4691 1.5401 0 CHG=-1
M  V30 4 C 5.9824 1.4429 0.9319 0
M  V30 5 C 5.9478 0.1144 0.4726 0
M  V30 6 C 4.7739 2.0821 1.2563 0
M  V30 7 C 4.7291 -0.5565 0.3326 0
M  V30 8 C 3.5569 1.4088 1.1166 0
M  V30 9 C 3.5213 0.0943 0.6403 0
M  V30 10 O 2.2758 -0.5396 0.5261 0
M  V30 11 C 1.9603 -1.5529 -0.3881 0
M  V30 12 O 2.6953 -1.7813 -1.3869 0
M  V30 13 C 0.6725 -2.3001 -0.2326 0
M  V30 14 C -0.4457 -1.7035 -1.1017 0
M  V30 15 C -0.7947 -0.2369 -0.7752 0
M  V30 16 C -1.2663 0.0147 0.6707 0
M  V30 17 C -2.4869 -0.8161 1.1144 0
M  V30 18 C -3.7383 -0.6484 0.2344 0
M  V30 19 C -4.2672 0.796 0.2208 0
M  V30 20 C -5.6481 0.9107 -0.4421 0
M  V30 21 C -5.6 0.6655 -1.9499 0
M  V30 22 H 6.8633 -0.4104 0.2294 0
M  V30 23 H 4.7668 3.1021 1.6194 0
M  V30 24 H 4.7385 -1.5895 0.0137 0
M  V30 25 H 2.634 1.9146 1.3717 0
M  V30 26 H 0.8332 -3.3571 -0.5359 0
M  V30 27 H 0.3711 -2.3146 0.8354 0
M  V30 28 H -0.1364 -1.7595 -2.1682 0
M  V30 29 H -1.3537 -2.3351 -1.0058 0
M  V30 30 H 0.0938 0.401 -0.9704 0
M  V30 31 H -1.5777 0.1088 -1.4827 0
M  V30 32 H -0.4284 -0.1859 1.3708 0
M  V30 33 H -1.4983 1.0949 0.7835 0
M  V30 34 H -2.2104 -1.8912 1.1444 0
M  V30 35 H -2.7431 -0.5313 2.1582 0
M  V30 36 H -4.5278 -1.3179 0.6404 0
M  V30 37 H -3.5204 -0.9897 -0.7981 0
M  V30 38 H -3.552 1.4615 -0.3083 0
M  V30 39 H -4.3575 1.1582 1.2683 0
M  V30 40 H -6.0367 1.9377 -0.2682 0
M  V30 41 H -6.3601 0.1987 0.0288 0
M  V30 42 H -6.5981 0.8742 -2.3895 0
M  V30 43 H -4.8555 1.3358 -2.4295 0
M  V30 44 H -5.3411 -0.3911 -2.1678 0
M  V30 END ATOM
M  V30 BEGIN BOND
M  V30 1 2 1 2
M  V30 2 1 2 3
M  V30 3 1 2 4
M  V30 4 2 4 5
M  V30 5 1 4 6
M  V30 6 1 5 7
M  V30 7 2 6 8
M  V30 8 2 7 9
M  V30 9 1 9 10
M  V30 10 1 10 11
M  V30 11 2 11 12
M  V30 12 1 11 13
M  V30 13 1 13 14
M  V30 14 1 14 15
M  V30 15 1 15 16
M  V30 16 1 16 17
M  V30 17 1 17 18
M  V30 18 1 18 19
M  V30 19 1 19 20
M  V30 20 1 20 21
M  V30 21 1 8 9
M  V30 22 1 5 22
M  V30 23 1 6 23
M  V30 24 1 7 24
M  V30 25 1 8 25
M  V30 26 1 13 26
M  V30 27 1 13 27
M  V30 28 1 14 28
M  V30 29 1 14 29
M  V30 30 1 15 30
M  V30 31 1 15 31
M  V30 32 1 16 32
M  V30 33 1 16 33
M  V30 34 1 17 34
M  V30 35 1 17 35
M  V30 36 1 18 36
M  V30 37 1 18 37
M  V30 38 1 19 38
M  V30 39 1 19 39
M  V30 40 1 20 40
M  V30 41 1 20 41
M  V30 42 1 21 42
M  V30 43 1 21 43
M  V30 44 1 21 44
M  V30 END BOND
M  V30 END CTAB
M  END
>  <Structure No>
99

>  <LogS>
-5.42454755

>  <MMFF94 Energy>
43.017

$$$$
Compound 100
Actelion Java MolfileCreator 2.0

  0  0  0  0  0  0              0 V3000
M  V30 BEGIN CTAB
M  V30 COUNTS 38 38 0 0 0
M  V30 BEGIN ATOM
M  V30 1 O -1.4952 0.708 2.2829 0
M  V30 2 C -0.9209 0.0572 1.3685 0
M  V30 3 O -1.6612 -0.7674 0.5111 0
M  V30 4 C 0.538 0.1713 1.2178 0
M  V30 5 C -3.0819 -0.8842 0.5638 0
M  V30 6 C 1.2083 -0.5093 0.2785 0
M  V30 7 C -3.7444 0.3365 -0.0893 0
M  V30 8 C 2.6791 -0.433 0.0966 0
M  V30 9 C -5.2817 0.3392 0.0668 0
M  V30 10 C 3.3258 -1.4713 -0.5922 0
M  V30 11 C 3.445 0.6564 0.5563 0
M  V30 12 C -5.8523 1.6928 -0.3763 0
M  V30 13 C -5.9423 -0.792 -0.7354 0
M  V30 14 C 4.708 -1.438 -0.7958 0
M  V30 15 C 4.8279 0.6882 0.3506 0
M  V30 16 C 5.4707 -0.3641 -0.3264 0
M  V30 17 O 6.8546 -0.3785 -0.5551 0
M  V30 18 C 7.7495 0.646 -0.1346 0
M  V30 19 H 1.0603 0.8118 1.9151 0
M  V30 20 H -3.4158 -0.9992 1.6185 0
M  V30 21 H -3.3667 -1.8016 0.0096 0
M  V30 22 H 0.6629 -1.1893 -0.3657 0
M  V30 23 H -3.4699 0.3705 -1.1666 0
M  V30 24 H -3.3348 1.2528 0.3882 0
M  V30 25 H -5.5362 0.2029 1.1416 0
M  V30 26 H 2.7607 -2.3162 -0.9671 0
M  V30 27 H 2.9842 1.4986 1.0531 0
M  V30 28 H -5.6242 1.882 -1.4475 0
M  V30 29 H -6.9541 1.7117 -0.2349 0
M  V30 30 H -5.4165 2.5127 0.2337 0
M  V30 31 H -5.653 -1.7823 -0.328 0
M  V30 32 H -5.6487 -0.7381 -1.8057 0
M  V30 33 H -7.0487 -0.7175 -0.6655 0
M  V30 34 H 5.1895 -2.2521 -1.3226 0
M  V30 35 H 5.3864 1.5392 0.7161 0
M  V30 36 H 7.4758 1.6112 -0.6109 0
M  V30 37 H 7.7244 0.7448 0.9712 0
M  V30 38 H 8.78 0.3768 -0.444 0
M  V30 END ATOM
M  V30 BEGIN BOND
M  V30 1 2 1 2
M  V30 2 1 2 3
M  V30 3 1 2 4
M  V30 4 1 3 5
M  V30 5 2 4 6
M  V30 6 1 5 7
M  V30 7 1 6 8
M  V30 8 1 7 9
M  V30 9 2 8 10
M  V30 10 1 8 11
M  V30 11 1 9 12
M  V30 12 1 9 13
M  V30 13 1 10 14
M  V30 14 2 11 15
M  V30 15 2 14 16
M  V30 16 1 16 17
M  V30 17 1 17 18
M  V30 18 1 15 16
M  V30 19 1 4 19
M  V30 20 1 5 20
M  V30 21 1 5 21
M  V30 22 1 6 22
M  V30 23 1 7 23
M  V30 24 1 7 24
M  V30 25 1 9 25
M  V30 26 1 10 26
M  V30 27 1 11 27
M  V30 28 1 12 28
M  V30 29 1 12 29
M  V30 30 1 12 30
M  V30 31 1 13 31
M  V30 32 1 13 32
M  V30 33 1 13 33
M  V30 34 1 14 34
M  V30 35 1 15 35
M  V30 36 1 18 36
M  V30 37 1 18 37
M  V30 38 1 18 38
M  V30 END BOND
M  V30 END CTAB
M  END
>  <Structure No>
100

>  <LogS>
-5.49192521

>  <MMFF94 Energy>
17.523

$$$$
Compound 101
Actelion Java MolfileCreator 2.0

  0  0  0  0  0  0              0 V3000
M  V30 BEGIN CTAB
M  V30 COUNTS 56 55 0 0 0
M  V30 BEGIN ATOM
M  V30 1 O -8.1071 1.5702 2.6704 0
M  V30 2 C -8.3061 1.8959 1.4696 0
M  V30 3 O -8.0195 3.1895 1.0498 0 CHG=-1
M  V30 4 C -8.7999 0.8787 0.4895 0
M  V30 5 N -7.7041 0.0068 0.0775 0
M  V30 6 C -6.6736 0.4394 -0.8236 0
M  V30 7 O -6.7192 1.5896 -1.3403 0
M  V30 8 C -5.5063 -0.4536 -1.1162 0
M  V30 9 C -4.356 -0.1602 -0.1486 0
M  V30 10 C -3.1727 -1.1027 -0.397 0
M  V30 11 C -1.991 -0.7551 0.5205 0
M  V30 12 C -0.8578 -1.7946 0.4545 0
M  V30 13 C -0.2001 -1.9505 -0.9313 0
M  V30 14 C 0.392 -0.6558 -1.525 0
M  V30 15 C 1.434 0.0493 -0.6375 0
M  V30 16 C 2.6735 -0.8171 -0.3708 0
M  V30 17 C 3.7457 -0.0263 0.3891 0
M  V30 18 C 4.973 -0.9032 0.6801 0
M  V30 19 C 6.0828 -0.1313 1.4257 0
M  V30 20 C 7.2833 0.2389 0.5347 0
M  V30 21 C 6.9677 1.2558 -0.575 0
M  V30 22 C 6.6256 2.6415 -0.0293 0
M  V30 23 H -9.2457 1.3779 -0.3983 0
M  V30 24 H -9.5949 0.2686 0.9709 0
M  V30 25 H -7.6569 -0.9564 0.4802 0
M  V30 26 H -5.1693 -0.2869 -2.1631 0
M  V30 27 H -5.8194 -1.5163 -1.0226 0
M  V30 28 H -4.7123 -0.2873 0.8977 0
M  V30 29 H -4.0243 0.8932 -0.2835 0
M  V30 30 H -3.4948 -2.1507 -0.2087 0
M  V30 31 H -2.8571 -1.0121 -1.4588 0
M  V30 32 H -1.6025 0.2556 0.2715 0
M  V30 33 H -2.35 -0.7153 1.573 0
M  V30 34 H -0.0825 -1.5293 1.2044 0
M  V30 35 H -1.2625 -2.7836 0.7628 0
M  V30 36 H 0.5978 -2.7196 -0.8592 0
M  V30 37 H -0.9452 -2.3589 -1.6468 0
M  V30 38 H -0.43 0.0568 -1.7489 0
M  V30 39 H 0.8633 -0.9035 -2.5012 0
M  V30 40 H 0.974 0.362 0.3237 0
M  V30 41 H 1.7509 0.9771 -1.1634 0
M  V30 42 H 3.0935 -1.1687 -1.339 0
M  V30 43 H 2.386 -1.7022 0.236 0
M  V30 44 H 4.0438 0.8562 -0.2143 0
M  V30 45 H 3.32 0.3365 1.3509 0
M  V30 46 H 4.6462 -1.7546 1.3173 0
M  V30 47 H 5.3622 -1.3382 -0.2668 0
M  V30 48 H 5.6817 0.7692 1.9364 0
M  V30 49 H 6.4718 -0.7878 2.2346 0
M  V30 50 H 8.0934 0.647 1.1784 0
M  V30 51 H 7.6834 -0.6863 0.0657 0
M  V30 52 H 7.8674 1.3519 -1.2198 0
M  V30 53 H 6.1449 0.8884 -1.2227 0
M  V30 54 H 6.518 3.3546 -0.8743 0
M  V30 55 H 5.6673 2.6242 0.5282 0
M  V30 56 H 7.4348 3.0052 0.639 0
M  V30 END ATOM
M  V30 BEGIN BOND
M  V30 1 2 1 2
M  V30 2 1 2 3
M  V30 3 1 2 4
M  V30 4 1 4 5
M  V30 5 1 5 6
M  V30 6 2 6 7
M  V30 7 1 6 8
M  V30 8 1 8 9
M  V30 9 1 9 10
M  V30 10 1 10 11
M  V30 11 1 11 12
M  V30 12 1 12 13
M  V30 13 1 13 14
M  V30 14 1 14 15
M  V30 15 1 15 16
M  V30 16 1 16 17
M  V30 17 1 17 18
M  V30 18 1 18 19
M  V30 19 1 19 20
M  V30 20 1 20 21
M  V30 21 1 21 22
M  V30 22 1 4 23
M  V30 23 1 4 24
M  V30 24 1 5 25
M  V30 25 1 8 26
M  V30 26 1 8 27
M  V30 27 1 9 28
M  V30 28 1 9 29
M  V30 29 1 10 30
M  V30 30 1 10 31
M  V30 31 1 11 32
M  V30 32 1 11 33
M  V30 33 1 12 34
M  V30 34 1 12 35
M  V30 35 1 13 36
M  V30 36 1 13 37
M  V30 37 1 14 38
M  V30 38 1 14 39
M  V30 39 1 15 40
M  V30 40 1 15 41
M  V30 41 1 16 42
M  V30 42 1 16 43
M  V30 43 1 17 44
M  V30 44 1 17 45
M  V30 45 1 18 46
M  V30 46 1 18 47
M  V30 47 1 19 48
M  V30 48 1 19 49
M  V30 49 1 20 50
M  V30 50 1 20 51
M  V30 51 1 21 52
M  V30 52 1 21 53
M  V30 53 1 22 54
M  V30 54 1 22 55
M  V30 55 1 22 56
M  V30 END BOND
M  V30 END CTAB
M  END
>  <Structure No>
101

>  <LogS>
-5.593122622

>  <MMFF94 Energy>
21.462

$$$$
Compound 102
Actelion Java MolfileCreator 2.0

  0  0  0  0  0  0              0 V3000
M  V30 BEGIN CTAB
M  V30 COUNTS 30 30 0 0 0
M  V30 BEGIN ATOM
M  V30 1 C -0.5475 -2.5051 0.4693 0
M  V30 2 C -1.4282 -2.1387 -0.4874 0
M  V30 3 C 0.4269 -1.607 1.1992 0
M  V30 4 C -1.5087 -0.7952 -1.1723 0
M  V30 5 C 1.8054 -1.491 0.5334 0
M  V30 6 C -2.1285 0.3159 -0.3117 0
M  V30 7 C 1.8112 -0.5861 -0.6696 0
M  V30 8 C -1.7128 1.6719 -0.8386 0
M  V30 9 C 1.6645 0.7547 -0.6485 0
M  V30 10 C -0.7098 2.4381 -0.3581 0
M  V30 11 C 1.5401 1.6195 0.5867 0
M  V30 12 C 0.1151 2.1446 0.8749 0
M  V30 13 H -0.5977 -3.5343 0.8143 0
M  V30 14 H -2.0911 -2.9112 -0.8675 0
M  V30 15 H -0.0038 -0.622 1.3984 0
M  V30 16 H 0.59 -2.0589 2.2013 0
M  V30 17 H -2.1449 -0.9127 -2.0769 0
M  V30 18 H -0.5214 -0.5106 -1.5629 0
M  V30 19 H 2.5492 -1.1226 1.2714 0
M  V30 20 H 2.1421 -2.5041 0.2238 0
M  V30 21 H -3.2346 0.2429 -0.3914 0
M  V30 22 H -1.9147 0.1934 0.7623 0
M  V30 23 H 1.9355 -1.0621 -1.6383 0
M  V30 24 H -2.2112 2.0129 -1.7416 0
M  V30 25 H 1.6511 1.2698 -1.605 0
M  V30 26 H -0.4722 3.3511 -0.8966 0
M  V30 27 H 1.9256 1.0988 1.4872 0
M  V30 28 H 2.2061 2.4958 0.4327 0
M  V30 29 H -0.4166 1.4943 1.589 0
M  V30 30 H 0.2206 3.1025 1.4283 0
M  V30 END ATOM
M  V30 BEGIN BOND
M  V30 1 2 1 2
M  V30 2 1 1 3
M  V30 3 1 2 4
M  V30 4 1 3 5
M  V30 5 1 4 6
M  V30 6 1 5 7
M  V30 7 1 6 8
M  V30 8 2 7 9
M  V30 9 2 8 10
M  V30 10 1 9 11
M  V30 11 1 10 12
M  V30 12 1 11 12
M  V30 13 1 1 13
M  V30 14 1 2 14
M  V30 15 1 3 15
M  V30 16 1 3 16
M  V30 17 1 4 17
M  V30 18 1 4 18
M  V30 19 1 5 19
M  V30 20 1 5 20
M  V30 21 1 6 21
M  V30 22 1 6 22
M  V30 23 1 7 23
M  V30 24 1 8 24
M  V30 25 1 9 25
M  V30 26 1 10 26
M  V30 27 1 11 27
M  V30 28 1 11 28
M  V30 29 1 12 29
M  V30 30 1 12 30
M  V30 END BOND
M  V30 END CTAB
M  END
>  <Structure No>
102

>  <LogS>
-5.365156254

>  <MMFF94 Energy>
49.765

$$$$
Compound 103
Actelion Java MolfileCreator 2.0

  0  0  0  0  0  0              0 V3000
M  V30 BEGIN CTAB
M  V30 COUNTS 78 78 0 0 0
M  V30 BEGIN ATOM
M  V30 1 O -3.1423 0.9418 1.8844 0
M  V30 2 C -3.3088 -0.3076 1.8416 0
M  V30 3 O -4.1989 -0.8812 0.9273 0
M  V30 4 C -2.5161 -1.1952 2.7494 0
M  V30 5 C -5.0058 -0.1197 0.0283 0
M  V30 6 C -1.4265 -1.9671 1.9883 0
M  V30 7 C -5.564 -1.0503 -1.0448 0
M  V30 8 C -6.1484 0.5744 0.7922 0
M  V30 9 C -0.3759 -1.0746 1.3012 0
M  V30 10 C -6.3702 -0.2597 -2.1163 0
M  V30 11 C -7.3913 0.9191 -0.0947 0
M  V30 12 C 0.5066 -0.3142 2.3064 0
M  V30 13 N -7.0336 0.9573 -1.5431 0 CHG=1
M  V30 14 C -7.4115 -1.2002 -2.7744 0
M  V30 15 C -5.3977 0.1793 -3.243 0
M  V30 16 C -7.917 2.318 0.3166 0
M  V30 17 C -8.5415 -0.0839 0.1762 0
M  V30 18 C 1.5952 0.5338 1.6214 0
M  V30 19 C 2.7615 -0.2745 1.0221 0
M  V30 20 C 3.7048 -0.844 2.0962 0
M  V30 21 C 4.8327 -1.7092 1.5043 0
M  V30 22 C 5.8142 -0.9606 0.5845 0
M  V30 23 C 6.5413 0.1925 1.2981 0
M  V30 24 C 7.7401 0.7206 0.4948 0
M  V30 25 C 7.3158 1.4097 -0.814 0
M  V30 26 C 8.4696 2.1772 -1.4783 0
M  V30 27 C 9.5552 1.2449 -2.0354 0
M  V30 28 C 10.6177 2.0321 -2.7972 0
M  V30 29 H -3.2111 -1.9285 3.2112 0
M  V30 30 H -2.0735 -0.6061 3.5799 0
M  V30 31 H -4.3697 0.6476 -0.4667 0
M  V30 32 H -1.913 -2.6004 1.2141 0
M  V30 33 H -0.915 -2.6565 2.6949 0
M  V30 34 H -4.7247 -1.608 -1.5166 0
M  V30 35 H -6.1923 -1.8237 -0.5543 0
M  V30 36 H -6.4573 -0.065 1.6489 0
M  V30 37 H -5.7219 1.4954 1.2473 0
M  V30 38 H -0.8737 -0.3567 0.6143 0
M  V30 39 H 0.2595 -1.7383 0.68 0
M  V30 40 H 0.9555 -1.0214 3.033 0
M  V30 41 H -0.1332 0.3851 2.8842 0
M  V30 42 H -6.3927 1.7774 -1.6699 0
M  V30 43 H -7.8871 1.1929 -2.1036 0
M  V30 44 H -6.9083 -2.085 -3.2212 0
M  V30 45 H -8.1556 -1.5764 -2.0491 0
M  V30 46 H -7.9614 -0.6726 -3.5835 0
M  V30 47 H -4.9364 -0.7002 -3.7422 0
M  V30 48 H -5.9392 0.7712 -4.0124 0
M  V30 49 H -4.5784 0.8107 -2.8392 0
M  V30 50 H -8.828 2.58 -0.264 0
M  V30 51 H -8.1706 2.3438 1.3987 0
M  V30 52 H -7.1512 3.1003 0.1252 0
M  V30 53 H -9.3632 0.051 -0.5594 0
M  V30 54 H -8.964 0.0699 1.1931 0
M  V30 55 H -8.196 -1.1338 0.1444 0
M  V30 56 H 2.0026 1.2581 2.3604 0
M  V30 57 H 1.1252 1.1374 0.814 0
M  V30 58 H 3.3379 0.4199 0.3757 0
M  V30 59 H 2.384 -1.0906 0.3733 0
M  V30 60 H 4.1315 -0.0194 2.7056 0
M  V30 61 H 3.1295 -1.4928 2.7877 0
M  V30 62 H 4.3805 -2.5484 0.932 0
M  V30 63 H 5.4057 -2.1628 2.3424 0
M  V30 64 H 6.5667 -1.6977 0.2276 0
M  V30 65 H 5.2793 -0.5821 -0.3107 0
M  V30 66 H 5.8343 1.0282 1.4902 0
M  V30 67 H 6.9183 -0.1673 2.2804 0
M  V30 68 H 8.4336 -0.1195 0.2779 0
M  V30 69 H 8.2831 1.4521 1.1325 0
M  V30 70 H 6.9146 0.6591 -1.5285 0
M  V30 71 H 6.5032 2.1366 -0.5944 0
M  V30 72 H 8.0458 2.7759 -2.3145 0
M  V30 73 H 8.9176 2.8879 -0.7494 0
M  V30 74 H 10.0524 0.6998 -1.205 0
M  V30 75 H 9.0971 0.5017 -2.724 0
M  V30 76 H 11.3937 1.3358 -3.1794 0
M  V30 77 H 10.1614 2.5639 -3.6597 0
M  V30 78 H 11.1043 2.7723 -2.1261 0
M  V30 END ATOM
M  V30 BEGIN BOND
M  V30 1 2 1 2
M  V30 2 1 2 3
M  V30 3 1 2 4
M  V30 4 1 3 5
M  V30 5 1 4 6
M  V30 6 1 5 7
M  V30 7 1 5 8
M  V30 8 1 6 9
M  V30 9 1 7 10
M  V30 10 1 8 11
M  V30 11 1 9 12
M  V30 12 1 10 13
M  V30 13 1 10 14
M  V30 14 1 10 15
M  V30 15 1 11 16
M  V30 16 1 11 17
M  V30 17 1 12 18
M  V30 18 1 18 19
M  V30 19 1 19 20
M  V30 20 1 20 21
M  V30 21 1 21 22
M  V30 22 1 22 23
M  V30 23 1 23 24
M  V30 24 1 24 25
M  V30 25 1 25 26
M  V30 26 1 26 27
M  V30 27 1 27 28
M  V30 28 1 11 13
M  V30 29 1 4 29
M  V30 30 1 4 30
M  V30 31 1 5 31
M  V30 32 1 6 32
M  V30 33 1 6 33
M  V30 34 1 7 34
M  V30 35 1 7 35
M  V30 36 1 8 36
M  V30 37 1 8 37
M  V30 38 1 9 38
M  V30 39 1 9 39
M  V30 40 1 12 40
M  V30 41 1 12 41
M  V30 42 1 13 42
M  V30 43 1 13 43
M  V30 44 1 14 44
M  V30 45 1 14 45
M  V30 46 1 14 46
M  V30 47 1 15 47
M  V30 48 1 15 48
M  V30 49 1 15 49
M  V30 50 1 16 50
M  V30 51 1 16 51
M  V30 52 1 16 52
M  V30 53 1 17 53
M  V30 54 1 17 54
M  V30 55 1 17 55
M  V30 56 1 18 56
M  V30 57 1 18 57
M  V30 58 1 19 58
M  V30 59 1 19 59
M  V30 60 1 20 60
M  V30 61 1 20 61
M  V30 62 1 21 62
M  V30 63 1 21 63
M  V30 64 1 22 64
M  V30 65 1 22 65
M  V30 66 1 23 66
M  V30 67 1 23 67
M  V30 68 1 24 68
M  V30 69 1 24 69
M  V30 70 1 25 70
M  V30 71 1 25 71
M  V30 72 1 26 72
M  V30 73 1 26 73
M  V30 74 1 27 74
M  V30 75 1 27 75
M  V30 76 1 28 76
M  V30 77 1 28 77
M  V30 78 1 28 78
M  V30 END BOND
M  V30 END CTAB
M  END
>  <Structure No>
103

>  <LogS>
-6.214524895

>  <MMFF94 Energy>
5.7437

$$$$
Compound 104
Actelion Java MolfileCreator 2.0

  0  0  0  0  0  0              0 V3000
M  V30 BEGIN CTAB
M  V30 COUNTS 54 53 0 0 0
M  V30 BEGIN ATOM
M  V30 1 O 0.6232 -0.9349 -3.8219 0
M  V30 2 C 1.0012 -1.2841 -2.6708 0
M  V30 3 N 0.0774 -1.2702 -1.5753 0
M  V30 4 C 2.4151 -1.7505 -2.459 0
M  V30 5 C -1.2159 -0.5923 -1.6748 0
M  V30 6 C 3.455 -0.7643 -3.0173 0
M  V30 7 C -1.934 -0.5495 -0.3068 0 CFG=1
M  V30 8 C 3.4307 0.6281 -2.357 0
M  V30 9 C -3.1489 0.4063 -0.3908 0
M  V30 10 C -2.3466 -1.9806 0.148 0
M  V30 11 C 3.8458 0.6148 -0.8689 0
M  V30 12 C -3.804 0.6621 0.9751 0
M  V30 13 C -1.959 -2.2569 1.601 0
M  V30 14 C 2.6438 0.8425 0.0646 0
M  V30 15 C -4.883 1.7468 0.8732 0
M  V30 16 C 2.9663 0.5592 1.5471 0
M  V30 17 C -5.5683 1.9708 2.2178 0
M  V30 18 C 3.9534 1.5851 2.1217 0
M  V30 19 C 1.6732 0.5567 2.3729 0
M  V30 20 H 0.3759 -1.689 -0.6655 0
M  V30 21 H 2.5382 -2.7262 -2.9755 0
M  V30 22 H 2.6096 -1.9276 -1.3802 0
M  V30 23 H -1.852 -1.1134 -2.4235 0
M  V30 24 H -1.0391 0.4457 -2.0329 0
M  V30 25 H 3.2888 -0.6431 -4.11 0
M  V30 26 H 4.4679 -1.2065 -2.8957 0
M  V30 27 H -1.2119 -0.1086 0.4182 0
M  V30 28 H 2.4338 1.1014 -2.4981 0
M  V30 29 H 4.1527 1.2661 -2.9118 0
M  V30 30 H -3.9047 -0.0054 -1.0956 0
M  V30 31 H -2.807 1.3844 -0.7973 0
M  V30 32 H -3.44 -2.139 0.0279 0
M  V30 33 H -1.8573 -2.7583 -0.4776 0
M  V30 34 H 4.3571 -0.3384 -0.6117 0
M  V30 35 H 4.5793 1.4325 -0.7026 0
M  V30 36 H -3.0291 0.9864 1.7039 0
M  V30 37 H -4.2725 -0.2747 1.3447 0
M  V30 38 H -2.4402 -1.5285 2.2853 0
M  V30 39 H -0.8565 -2.1931 1.7218 0
M  V30 40 H -2.2862 -3.2793 1.8857 0
M  V30 41 H 1.823 0.1705 -0.2476 0
M  V30 42 H 2.2767 1.8866 -0.0519 0
M  V30 43 H -4.4229 2.7032 0.5414 0
M  V30 44 H -5.6484 1.4464 0.1244 0
M  V30 45 H 3.4205 -0.4526 1.632 0
M  V30 46 H -4.8255 2.2772 2.9855 0
M  V30 47 H -6.0764 1.0404 2.5507 0
M  V30 48 H -6.3283 2.7743 2.1182 0
M  V30 49 H 4.9375 1.5061 1.6156 0
M  V30 50 H 4.1198 1.3944 3.203 0
M  V30 51 H 3.5621 2.6177 1.9973 0
M  V30 52 H 1.1675 1.5445 2.3122 0
M  V30 53 H 1.8961 0.332 3.4379 0
M  V30 54 H 0.9787 -0.2254 1.998 0
M  V30 END ATOM
M  V30 BEGIN BOND
M  V30 1 2 1 2
M  V30 2 1 2 3
M  V30 3 1 2 4
M  V30 4 1 3 5
M  V30 5 1 4 6
M  V30 6 1 5 7
M  V30 7 1 6 8
M  V30 8 1 7 9
M  V30 9 1 7 10
M  V30 10 1 8 11
M  V30 11 1 9 12
M  V30 12 1 10 13
M  V30 13 1 11 14
M  V30 14 1 12 15
M  V30 15 1 14 16
M  V30 16 1 15 17
M  V30 17 1 16 18
M  V30 18 1 16 19
M  V30 19 1 3 20
M  V30 20 1 4 21
M  V30 21 1 4 22
M  V30 22 1 5 23
M  V30 23 1 5 24
M  V30 24 1 6 25
M  V30 25 1 6 26
M  V30 26 1 7 27
M  V30 27 1 8 28
M  V30 28 1 8 29
M  V30 29 1 9 30
M  V30 30 1 9 31
M  V30 31 1 10 32
M  V30 32 1 10 33
M  V30 33 1 11 34
M  V30 34 1 11 35
M  V30 35 1 12 36
M  V30 36 1 12 37
M  V30 37 1 13 38
M  V30 38 1 13 39
M  V30 39 1 13 40
M  V30 40 1 14 41
M  V30 41 1 14 42
M  V30 42 1 15 43
M  V30 43 1 15 44
M  V30 44 1 16 45
M  V30 45 1 17 46
M  V30 46 1 17 47
M  V30 47 1 17 48
M  V30 48 1 18 49
M  V30 49 1 18 50
M  V30 50 1 18 51
M  V30 51 1 19 52
M  V30 52 1 19 53
M  V30 53 1 19 54
M  V30 END BOND
M  V30 BEGIN COLLECTION
M  V30 MDLV30/STEABS ATOMS=(1 7)
M  V30 END COLLECTION
M  V30 END CTAB
M  END
>  <Structure No>
104

>  <LogS>
-5.731545253

>  <MMFF94 Energy>
-16.354

$$$$
Compound 105
Actelion Java MolfileCreator 2.0

  0  0  0  0  0  0              0 V3000
M  V30 BEGIN CTAB
M  V30 COUNTS 138 145 0 0 0
M  V30 BEGIN ATOM
M  V30 1 O -2.5791 4.4359 0.0 0
M  V30 2 C -3.6059 3.7426 0.1854 0
M  V30 3 O -4.3893 3.3866 -0.9211 0
M  V30 4 C -4.0092 3.328 1.5909 0 CFG=2
M  V30 5 C -4.2046 2.2072 -1.717 0 CFG=2
M  V30 6 C -5.5315 3.3137 1.7041 0
M  V30 7 C -3.4316 4.197 2.7504 0 CFG=1
M  V30 8 C -4.7878 0.9738 -1.0108 0
M  V30 9 C -2.7418 1.9787 -2.1748 0
M  V30 10 C -6.2492 4.2816 2.3321 0
M  V30 11 O -3.7173 3.5929 3.991 0
M  V30 12 C -2.0143 4.6563 2.7809 0
M  V30 13 C -4.1005 5.5616 2.6721 0 CFG=1
M  V30 14 C -4.3237 -0.3458 -1.6809 0 CFG=2
M  V30 15 C -2.1394 0.7062 -1.5279 0 CFG=1
M  V30 16 C -5.5894 5.4639 3.0419 0 CFG=1
M  V30 17 C -7.742 4.1301 2.4076 0
M  V30 18 C -0.8898 3.9749 2.5053 0
M  V30 19 C -2.0078 6.064 3.2769 0
M  V30 20 O -3.3559 6.4384 3.487 0
M  V30 21 O -4.7887 -1.4141 -0.8669 0
M  V30 22 O -2.9078 -0.4492 -1.8543 0
M  V30 23 C -4.9848 -0.4936 -3.0296 0
M  V30 24 C -0.6676 0.4022 -1.9422 0
M  V30 25 O -6.2451 6.646 2.6694 0
M  V30 26 C -0.8923 2.6045 1.9709 0
M  V30 27 C -4.3268 -2.6863 -1.3122 0 CFG=1
M  V30 28 C -5.1484 -1.7087 -3.5492 0
M  V30 29 C 0.1008 1.5321 -2.5984 0
M  V30 30 C -0.0916 2.1748 0.9905 0
M  V30 31 C -4.9662 -3.7869 -0.4148 0
M  V30 32 C -4.644 -2.9371 -2.835 0 CFG=1
M  V30 33 C 1.2085 2.1789 -2.156 0
M  V30 34 C 1.0247 2.9591 0.3169 0 CFG=1
M  V30 35 C -4.3511 -5.1895 -0.6978 0
M  V30 36 C -4.8428 -3.4539 1.0889 0
M  V30 37 C -3.411 -3.4619 -3.5828 0
M  V30 38 C 1.8103 2.1096 -0.74 0 CFG=1
M  V30 39 C 1.8518 3.1328 -3.1425 0
M  V30 40 C 0.5709 4.303 -0.3004 0
M  V30 41 C -4.5169 -6.1886 0.4662 0
M  V30 42 C -5.6072 -4.4685 1.9625 0
M  V30 43 O 1.9556 0.7681 -0.2927 0
M  V30 44 C -5.7353 -5.8631 1.3262 0
M  V30 45 C 3.2312 0.2191 -0.5807 0 CFG=2
M  V30 46 O 3.2707 -0.1484 -1.9528 0
M  V30 47 C 3.429 -1.013 0.3365 0
M  V30 48 C 4.5568 -0.6217 -2.3426 0 CFG=2
M  V30 49 C 4.1269 -2.1799 -0.3834 0 CFG=2
M  V30 50 C 5.2049 -1.6311 -1.3371 0 CFG=2
M  V30 51 C 5.4723 0.5406 -2.7507 0
M  V30 52 O 3.1741 -2.9229 -1.1325 0
M  V30 53 O 6.2361 -1.0089 -0.5788 0
M  V30 54 C 2.7241 -4.0432 -0.3971 0
M  V30 55 C 7.4 -1.8152 -0.5161 0 CFG=2
M  V30 56 O 7.0897 -3.0261 0.166 0
M  V30 57 C 8.5351 -1.015 0.1818 0
M  V30 58 C 8.2689 -3.7479 0.4527 0 CFG=1
M  V30 59 C 8.7789 -1.5157 1.613 0 CFG=1
M  V30 60 C 8.9938 -3.0607 1.6321 0 CFG=2
M  V30 61 C 7.8963 -5.1876 0.7888 0
M  V30 62 O 9.9189 -0.8644 2.1545 0
M  V30 63 O 10.3573 -3.3899 1.6328 0
M  V30 64 C 9.548 0.1936 3.004 0
M  V30 65 H -3.6696 2.2792 1.7311 0
M  V30 66 H -4.8103 2.369 -2.632 0
M  V30 67 H -6.0599 2.4924 1.2276 0
M  V30 68 H -5.8961 1.0337 -0.9963 0
M  V30 69 H -4.4571 0.9513 0.0443 0
M  V30 70 H -2.121 2.8658 -1.9393 0
M  V30 71 H -2.7321 1.8457 -3.2845 0
M  V30 72 H -3.2657 2.7084 4.0076 0
M  V30 73 H -4.0542 5.9605 1.6288 0
M  V30 74 H -2.148 0.8418 -0.4236 0
M  V30 75 H -5.6987 5.3194 4.1412 0
M  V30 76 H -8.1807 4.2316 1.389 0
M  V30 77 H -8.1896 4.9016 3.067 0
M  V30 78 H -8.006 3.1287 2.8055 0
M  V30 79 H 0.0626 4.475 2.6141 0
M  V30 80 H -1.4436 6.1408 4.2303 0
M  V30 81 H -1.5424 6.7335 2.5148 0
M  V30 82 H -5.3657 0.3662 -3.5739 0
M  V30 83 H -0.1212 -0.0643 -1.1047 0
M  V30 84 H -0.689 -0.4024 -2.7144 0
M  V30 85 H -5.9138 7.3696 3.2584 0
M  V30 86 H -1.5966 1.8974 2.3892 0
M  V30 87 H -3.226 -2.7349 -1.1308 0
M  V30 88 H -5.6266 -1.8115 -4.5163 0
M  V30 89 H -0.2361 1.7565 -3.6115 0
M  V30 90 H -0.1965 1.1317 0.7428 0
M  V30 91 H -6.0554 -3.8187 -0.6579 0
M  V30 92 H -5.4434 -3.7005 -2.9373 0
M  V30 93 H 1.753 3.2118 1.1208 0
M  V30 94 H -3.2641 -5.0954 -0.9 0
M  V30 95 H -4.8249 -5.6173 -1.6051 0
M  V30 96 H -5.2404 -2.4405 1.3044 0
M  V30 97 H -3.7663 -3.457 1.3664 0
M  V30 98 H -2.5822 -2.7173 -3.5523 0
M  V30 99 H -3.667 -3.6614 -4.648 0
M  V30 100 H -3.0567 -4.4141 -3.1361 0
M  V30 101 H 2.7993 2.6191 -0.7865 0
M  V30 102 H 2.7233 3.6659 -2.716 0
M  V30 103 H 1.1144 3.8963 -3.4677 0
M  V30 104 H 2.1998 2.569 -4.0333 0
M  V30 105 H -0.2092 4.1524 -1.0662 0
M  V30 106 H 1.4414 4.7957 -0.786 0
M  V30 107 H 0.1999 5.0249 0.4483 0
M  V30 108 H -4.6152 -7.2222 0.0641 0
M  V30 109 H -3.6144 -6.1612 1.1079 0
M  V30 110 H -6.6279 -4.0821 2.1714 0
M  V30 111 H -5.0819 -4.5636 2.9376 0
M  V30 112 H -5.846 -6.6309 2.119 0
M  V30 113 H -6.6489 -5.902 0.6886 0
M  V30 114 H 4.0424 0.9387 -0.3324 0
M  V30 115 H 2.4575 -1.3621 0.7479 0
M  V30 116 H 4.0506 -0.7088 1.2109 0
M  V30 117 H 4.3892 -1.193 -3.2852 0
M  V30 118 H 4.6345 -2.8077 0.3919 0
M  V30 119 H 5.5783 -2.4936 -1.943 0
M  V30 120 H 4.9682 1.1632 -3.5172 0
M  V30 121 H 5.7215 1.19 -1.8823 0
M  V30 122 H 6.4194 0.1491 -3.1808 0
M  V30 123 H 1.8963 -4.5219 -0.9562 0
M  V30 124 H 2.3299 -3.7581 0.6019 0
M  V30 125 H 3.54 -4.7904 -0.2929 0
M  V30 126 H 7.7464 -2.0426 -1.5551 0
M  V30 127 H 8.296 0.0732 0.1938 0
M  V30 128 H 9.4748 -1.1359 -0.4003 0
M  V30 129 H 8.9419 -3.7847 -0.4387 0
M  V30 130 H 7.847 -1.3095 2.2 0
M  V30 131 H 8.5645 -3.4282 2.5876 0
M  V30 132 H 7.4073 -5.6538 -0.0919 0
M  V30 133 H 8.8044 -5.7801 1.0427 0
M  V30 134 H 7.1853 -5.2099 1.647 0
M  V30 135 H 10.7596 -3.0269 0.8028 0
M  V30 136 H 8.9103 0.9295 2.4685 0
M  V30 137 H 9.0362 -0.1909 3.911 0
M  V30 138 H 10.4735 0.7193 3.3307 0
M  V30 END ATOM
M  V30 BEGIN BOND
M  V30 1 2 1 2
M  V30 2 1 2 3
M  V30 3 1 2 4
M  V30 4 1 3 5
M  V30 5 1 4 6
M  V30 6 1 4 7
M  V30 7 1 5 8
M  V30 8 1 5 9
M  V30 9 2 6 10
M  V30 10 1 7 11
M  V30 11 1 7 12
M  V30 12 1 7 13
M  V30 13 1 8 14
M  V30 14 1 9 15
M  V30 15 1 10 16
M  V30 16 1 10 17
M  V30 17 2 12 18
M  V30 18 1 12 19
M  V30 19 1 13 20
M  V30 20 1 14 21
M  V30 21 1 14 22
M  V30 22 1 14 23
M  V30 23 1 15 24
M  V30 24 1 16 25
M  V30 25 1 18 26
M  V30 26 1 21 27
M  V30 27 2 23 28
M  V30 28 1 24 29
M  V30 29 2 26 30
M  V30 30 1 27 31
M  V30 31 1 27 32
M  V30 32 2 29 33
M  V30 33 1 30 34
M  V30 34 1 31 35
M  V30 35 1 31 36
M  V30 36 1 32 37
M  V30 37 1 33 38
M  V30 38 1 33 39
M  V30 39 1 34 40
M  V30 40 1 35 41
M  V30 41 1 36 42
M  V30 42 1 38 43
M  V30 43 1 41 44
M  V30 44 1 43 45
M  V30 45 1 45 46
M  V30 46 1 45 47
M  V30 47 1 46 48
M  V30 48 1 47 49
M  V30 49 1 48 50
M  V30 50 1 48 51
M  V30 51 1 49 52
M  V30 52 1 50 53
M  V30 53 1 52 54
M  V30 54 1 53 55
M  V30 55 1 55 56
M  V30 56 1 55 57
M  V30 57 1 56 58
M  V30 58 1 57 59
M  V30 59 1 58 60
M  V30 60 1 58 61
M  V30 61 1 59 62
M  V30 62 1 60 63
M  V30 63 1 62 64
M  V30 64 1 13 16
M  V30 65 1 15 22
M  V30 66 1 19 20
M  V30 67 1 28 32
M  V30 68 1 34 38
M  V30 69 1 42 44
M  V30 70 1 49 50
M  V30 71 1 59 60
M  V30 72 1 4 65
M  V30 73 1 5 66
M  V30 74 1 6 67
M  V30 75 1 8 68
M  V30 76 1 8 69
M  V30 77 1 9 70
M  V30 78 1 9 71
M  V30 79 1 11 72
M  V30 80 1 13 73
M  V30 81 1 15 74
M  V30 82 1 16 75
M  V30 83 1 17 76
M  V30 84 1 17 77
M  V30 85 1 17 78
M  V30 86 1 18 79
M  V30 87 1 19 80
M  V30 88 1 19 81
M  V30 89 1 23 82
M  V30 90 1 24 83
M  V30 91 1 24 84
M  V30 92 1 25 85
M  V30 93 1 26 86
M  V30 94 1 27 87
M  V30 95 1 28 88
M  V30 96 1 29 89
M  V30 97 1 30 90
M  V30 98 1 31 91
M  V30 99 1 32 92
M  V30 100 1 34 93
M  V30 101 1 35 94
M  V30 102 1 35 95
M  V30 103 1 36 96
M  V30 104 1 36 97
M  V30 105 1 37 98
M  V30 106 1 37 99
M  V30 107 1 37 100
M  V30 108 1 38 101
M  V30 109 1 39 102
M  V30 110 1 39 103
M  V30 111 1 39 104
M  V30 112 1 40 105
M  V30 113 1 40 106
M  V30 114 1 40 107
M  V30 115 1 41 108
M  V30 116 1 41 109
M  V30 117 1 42 110
M  V30 118 1 42 111
M  V30 119 1 44 112
M  V30 120 1 44 113
M  V30 121 1 45 114
M  V30 122 1 47 115
M  V30 123 1 47 116
M  V30 124 1 48 117
M  V30 125 1 49 118
M  V30 126 1 50 119
M  V30 127 1 51 120
M  V30 128 1 51 121
M  V30 129 1 51 122
M  V30 130 1 54 123
M  V30 131 1 54 124
M  V30 132 1 54 125
M  V30 133 1 55 126
M  V30 134 1 57 127
M  V30 135 1 57 128
M  V30 136 1 58 129
M  V30 137 1 59 130
M  V30 138 1 60 131
M  V30 139 1 61 132
M  V30 140 1 61 133
M  V30 141 1 61 134
M  V30 142 1 63 135
M  V30 143 1 64 136
M  V30 144 1 64 137
M  V30 145 1 64 138
M  V30 END BOND
M  V30 BEGIN COLLECTION
M  V30 MDLV30/STEABS ATOMS=(19 4 5 7 13 14 15 16 27 32 34 38 45 48 49 50 55 58 59 60)
M  V30 END COLLECTION
M  V30 END CTAB
M  END
>  <Structure No>
105

>  <LogS>
-7.555881514

>  <MMFF94 Energy>
220.21

$$$$
Compound 106
Actelion Java MolfileCreator 2.0

  0  0  0  0  0  0              0 V3000
M  V30 BEGIN CTAB
M  V30 COUNTS 32 34 0 0 0
M  V30 BEGIN ATOM
M  V30 1 C -1.4354 0.0797 0.0 0
M  V30 2 C -2.9172 0.1382 -0.0857 0
M  V30 3 C -0.6786 -0.4523 -1.0581 0
M  V30 4 C -0.766 0.5555 1.1406 0
M  V30 5 C -3.712 -0.166 1.0361 0
M  V30 6 C -3.5511 0.4992 -1.2901 0
M  V30 7 C 0.7154 -0.5085 -0.9769 0
M  V30 8 C 0.6281 0.5015 1.2209 0
M  V30 9 C -5.1067 -0.1105 0.9523 0
M  V30 10 C -4.9462 0.554 -1.3677 0
M  V30 11 C 1.3849 -0.0315 0.1633 0
M  V30 12 C -5.7233 0.2492 -0.248 0
M  V30 13 C 2.8667 -0.09 0.249 0
M  V30 14 C 3.5669 -1.2184 -0.2186 0
M  V30 15 C 3.5949 0.982 0.7997 0
M  V30 16 C 4.9618 -1.2709 -0.1362 0
M  V30 17 C 4.9898 0.9243 0.8787 0
M  V30 18 C 5.6725 -0.2007 0.4116 0
M  V30 19 H -1.1655 -0.8396 -1.9443 0
M  V30 20 H -1.3198 0.9839 1.9667 0
M  V30 21 H -3.256 -0.4639 1.9719 0
M  V30 22 H -2.9684 0.7562 -2.1658 0
M  V30 23 H 1.2708 -0.9121 -1.8141 0
M  V30 24 H 1.1134 0.8643 2.1184 0
M  V30 25 H -5.7102 -0.3501 1.8185 0
M  V30 26 H -5.4251 0.8364 -2.2964 0
M  V30 27 H -6.803 0.2919 -0.3104 0
M  V30 28 H 3.0354 -2.0666 -0.6314 0
M  V30 29 H 3.0878 1.8713 1.1523 0
M  V30 30 H 5.4918 -2.144 -0.4944 0
M  V30 31 H 5.5419 1.7548 1.2997 0
M  V30 32 H 6.7522 -0.2433 0.4741 0
M  V30 END ATOM
M  V30 BEGIN BOND
M  V30 1 1 1 2
M  V30 2 2 1 3
M  V30 3 1 1 4
M  V30 4 2 2 5
M  V30 5 1 2 6
M  V30 6 1 3 7
M  V30 7 2 4 8
M  V30 8 1 5 9
M  V30 9 2 6 10
M  V30 10 2 7 11
M  V30 11 2 9 12
M  V30 12 1 11 13
M  V30 13 2 13 14
M  V30 14 1 13 15
M  V30 15 1 14 16
M  V30 16 2 15 17
M  V30 17 2 16 18
M  V30 18 1 8 11
M  V30 19 1 10 12
M  V30 20 1 17 18
M  V30 21 1 3 19
M  V30 22 1 4 20
M  V30 23 1 5 21
M  V30 24 1 6 22
M  V30 25 1 7 23
M  V30 26 1 8 24
M  V30 27 1 9 25
M  V30 28 1 10 26
M  V30 29 1 12 27
M  V30 30 1 14 28
M  V30 31 1 15 29
M  V30 32 1 16 30
M  V30 33 1 17 31
M  V30 34 1 18 32
M  V30 END BOND
M  V30 END CTAB
M  END
>  <Structure No>
106

>  <LogS>
-6.183335848

>  <MMFF94 Energy>
61.881

$$$$
Compound 107
Actelion Java MolfileCreator 2.0

  0  0  0  0  0  0              0 V3000
M  V30 BEGIN CTAB
M  V30 COUNTS 26 29 0 0 0
M  V30 BEGIN ATOM
M  V30 1 C -0.6469 -0.3234 0.0 0
M  V30 2 C 0.6236 0.2882 -0.0309 0
M  V30 3 C -1.8123 0.4744 0.0486 0
M  V30 4 C -0.7518 -1.7324 -0.0175 0
M  V30 5 C 0.7284 1.6973 -0.0133 0
M  V30 6 C 1.7889 -0.5095 -0.0795 0
M  V30 7 C -1.6959 1.8728 0.0657 0
M  V30 8 C -3.0715 -0.1434 0.0791 0
M  V30 9 C 0.4122 -2.5145 -0.0657 0
M  V30 10 C -2.0202 -2.3309 0.0135 0
M  V30 11 C -0.4356 2.4795 0.035 0
M  V30 12 C 1.9968 2.2958 -0.0443 0
M  V30 13 C 1.6725 -1.9078 -0.0965 0
M  V30 14 C 3.048 0.1084 -0.1099 0
M  V30 15 C -3.1715 -1.5381 0.0617 0
M  V30 16 C 3.1479 1.5032 -0.0924 0
M  V30 17 H -2.5805 2.4976 0.103 0
M  V30 18 H -3.9768 0.4507 0.1166 0
M  V30 19 H 0.3476 -3.5959 -0.0798 0
M  V30 20 H -2.1218 -3.4094 8.0E-4 0
M  V30 21 H -0.3712 3.561 0.0491 0
M  V30 22 H 2.0982 3.3745 -0.0315 0
M  V30 23 H 2.5569 -2.5326 -0.1337 0
M  V30 24 H 3.9532 -0.4857 -0.1473 0
M  V30 25 H -4.1465 -2.0073 0.0855 0
M  V30 26 H 4.1229 1.9724 -0.1161 0
M  V30 END ATOM
M  V30 BEGIN BOND
M  V30 1 2 1 2
M  V30 2 1 1 3
M  V30 3 1 1 4
M  V30 4 1 2 5
M  V30 5 1 2 6
M  V30 6 1 3 7
M  V30 7 2 3 8
M  V30 8 2 4 9
M  V30 9 1 4 10
M  V30 10 1 5 11
M  V30 11 2 5 12
M  V30 12 2 6 13
M  V30 13 1 6 14
M  V30 14 1 8 15
M  V30 15 1 12 16
M  V30 16 2 7 11
M  V30 17 1 9 13
M  V30 18 2 10 15
M  V30 19 2 14 16
M  V30 20 1 7 17
M  V30 21 1 8 18
M  V30 22 1 9 19
M  V30 23 1 10 20
M  V30 24 1 11 21
M  V30 25 1 12 22
M  V30 26 1 13 23
M  V30 27 1 14 24
M  V30 28 1 15 25
M  V30 29 1 16 26
M  V30 END BOND
M  V30 END CTAB
M  END
>  <Structure No>
107

>  <LogS>
-6.178796616

>  <MMFF94 Energy>
59.539

$$$$
Compound 108
Actelion Java MolfileCreator 2.0

  0  0  0  0  0  0              0 V3000
M  V30 BEGIN CTAB
M  V30 COUNTS 42 42 0 0 0
M  V30 BEGIN ATOM
M  V30 1 O 3.5591 -1.4224 2.1342 0
M  V30 2 C 3.0168 -0.4571 1.5281 0
M  V30 3 O 3.7616 0.6895 1.2248 0
M  V30 4 C 1.5911 -0.5309 1.1403 0
M  V30 5 C 5.1605 0.8116 1.4794 0
M  V30 6 C 0.989 0.5321 0.4472 0
M  V30 7 C 0.819 -1.6627 1.4538 0
M  V30 8 C 5.9802 -0.0018 0.4717 0
M  V30 9 C -0.357 0.4662 0.0758 0
M  V30 10 C -0.527 -1.7286 1.0828 0
M  V30 11 C 5.7471 0.4782 -0.9665 0
M  V30 12 C -1.1293 -0.6643 0.3894 0
M  V30 13 C 6.5925 -0.3179 -1.9559 0
M  V30 14 C -2.5539 -0.7287 -0.0049 0
M  V30 15 O -3.2441 -1.7462 0.2803 0
M  V30 16 O -3.1325 0.3399 -0.7018 0
M  V30 17 C -4.5095 0.3855 -1.0705 0
M  V30 18 C -5.38 0.7046 0.1514 0
M  V30 19 C -6.8519 0.9432 -0.2171 0
M  V30 20 C -7.5655 -0.3368 -0.6507 0
M  V30 21 H 5.3901 0.4766 2.5142 0
M  V30 22 H 5.4441 1.8828 1.4035 0
M  V30 23 H 1.5574 1.4169 0.1891 0
M  V30 24 H 1.254 -2.4988 1.9868 0
M  V30 25 H 5.7135 -1.0772 0.5565 0
M  V30 26 H 7.0572 0.1051 0.7261 0
M  V30 27 H -0.7913 1.3025 -0.4572 0
M  V30 28 H -1.0956 -2.6137 1.3393 0
M  V30 29 H 6.0128 1.5545 -1.0506 0
M  V30 30 H 4.6751 0.3579 -1.2358 0
M  V30 31 H 6.3284 -1.3958 -1.9087 0
M  V30 32 H 7.6726 -0.194 -1.7278 0
M  V30 33 H 6.4028 0.0492 -2.9865 0
M  V30 34 H -4.8071 -0.5801 -1.5319 0
M  V30 35 H -4.6376 1.1852 -1.8306 0
M  V30 36 H -5.3077 -0.1163 0.8968 0
M  V30 37 H -4.9869 1.6277 0.6307 0
M  V30 38 H -6.9268 1.7037 -1.0245 0
M  V30 39 H -7.376 1.3487 0.6754 0
M  V30 40 H -7.1544 -0.7097 -1.6115 0
M  V30 41 H -7.4607 -1.1228 0.127 0
M  V30 42 H -8.6459 -0.1256 -0.7958 0
M  V30 END ATOM
M  V30 BEGIN BOND
M  V30 1 2 1 2
M  V30 2 1 2 3
M  V30 3 1 2 4
M  V30 4 1 3 5
M  V30 5 2 4 6
M  V30 6 1 4 7
M  V30 7 1 5 8
M  V30 8 1 6 9
M  V30 9 2 7 10
M  V30 10 1 8 11
M  V30 11 2 9 12
M  V30 12 1 11 13
M  V30 13 1 12 14
M  V30 14 2 14 15
M  V30 15 1 14 16
M  V30 16 1 16 17
M  V30 17 1 17 18
M  V30 18 1 18 19
M  V30 19 1 19 20
M  V30 20 1 10 12
M  V30 21 1 5 21
M  V30 22 1 5 22
M  V30 23 1 6 23
M  V30 24 1 7 24
M  V30 25 1 8 25
M  V30 26 1 8 26
M  V30 27 1 9 27
M  V30 28 1 10 28
M  V30 29 1 11 29
M  V30 30 1 11 30
M  V30 31 1 13 31
M  V30 32 1 13 32
M  V30 33 1 13 33
M  V30 34 1 17 34
M  V30 35 1 17 35
M  V30 36 1 18 36
M  V30 37 1 18 37
M  V30 38 1 19 38
M  V30 39 1 19 39
M  V30 40 1 20 40
M  V30 41 1 20 41
M  V30 42 1 20 42
M  V30 END BOND
M  V30 END CTAB
M  END
>  <Structure No>
108

>  <LogS>
-6.40319542

>  <MMFF94 Energy>
38.817

$$$$
Compound 109
Actelion Java MolfileCreator 2.0

  0  0  0  0  0  0              0 V3000
M  V30 BEGIN CTAB
M  V30 COUNTS 37 37 0 0 0
M  V30 BEGIN ATOM
M  V30 1 N 0.4741 -2.7683 0.158 0
M  V30 2 C 0.6673 -1.6665 -0.14 0
M  V30 3 C 0.9241 -0.2588 -0.5214 0
M  V30 4 C 1.5603 0.5096 0.6865 0
M  V30 5 C 1.8987 -0.2545 -1.7295 0
M  V30 6 C -0.4112 0.418 -0.9631 0
M  V30 7 C 3.1003 0.5865 0.6563 0
M  V30 8 C 3.274 -0.8809 -1.4084 0
M  V30 9 C -1.5431 0.4323 0.1139 0
M  V30 10 C 3.7179 -0.6741 0.0515 0
M  V30 11 C -2.3708 1.7367 -0.0198 0
M  V30 12 C -2.4499 -0.8309 -0.0021 0
M  V30 13 C -3.3962 1.9228 1.0991 0
M  V30 14 C -2.7279 -1.4755 1.3569 0
M  V30 15 H 1.2484 0.0423 1.6479 0
M  V30 16 H 1.1851 1.5563 0.7215 0
M  V30 17 H 1.451 -0.7948 -2.5934 0
M  V30 18 H 2.0615 0.7967 -2.0577 0
M  V30 19 H -0.791 -0.0596 -1.8943 0
M  V30 20 H -0.1634 1.4611 -1.2624 0
M  V30 21 H 3.4182 1.4685 0.0572 0
M  V30 22 H 3.4843 0.7291 1.6897 0
M  V30 23 H 3.2415 -1.972 -1.6199 0
M  V30 24 H 4.0324 -0.438 -2.0903 0
M  V30 25 H -1.07 0.4588 1.1191 0
M  V30 26 H 3.4193 -1.5533 0.6637 0
M  V30 27 H 4.8262 -0.601 0.0946 0
M  V30 28 H -1.6836 2.6106 0.0184 0
M  V30 29 H -2.8907 1.7602 -1.0025 0
M  V30 30 H -1.9843 -1.6069 -0.645 0
M  V30 31 H -3.4176 -0.5835 -0.4902 0
M  V30 32 H -3.8456 2.9354 1.0226 0
M  V30 33 H -2.9094 1.8281 2.093 0
M  V30 34 H -4.215 1.1792 1.0108 0
M  V30 35 H -3.2351 -0.7635 2.039 0
M  V30 36 H -3.3837 -2.3612 1.221 0
M  V30 37 H -1.7775 -1.8089 1.8248 0
M  V30 END ATOM
M  V30 BEGIN BOND
M  V30 1 3 1 2
M  V30 2 1 2 3
M  V30 3 1 3 4
M  V30 4 1 3 5
M  V30 5 1 3 6
M  V30 6 1 4 7
M  V30 7 1 5 8
M  V30 8 1 6 9
M  V30 9 1 7 10
M  V30 10 1 9 11
M  V30 11 1 9 12
M  V30 12 1 11 13
M  V30 13 1 12 14
M  V30 14 1 8 10
M  V30 15 1 4 15
M  V30 16 1 4 16
M  V30 17 1 5 17
M  V30 18 1 5 18
M  V30 19 1 6 19
M  V30 20 1 6 20
M  V30 21 1 7 21
M  V30 22 1 7 22
M  V30 23 1 8 23
M  V30 24 1 8 24
M  V30 25 1 9 25
M  V30 26 1 10 26
M  V30 27 1 10 27
M  V30 28 1 11 28
M  V30 29 1 11 29
M  V30 30 1 12 30
M  V30 31 1 12 31
M  V30 32 1 13 32
M  V30 33 1 13 33
M  V30 34 1 13 34
M  V30 35 1 14 35
M  V30 36 1 14 36
M  V30 37 1 14 37
M  V30 END BOND
M  V30 END CTAB
M  END
>  <Structure No>
109

>  <LogS>
-6.587338232

>  <MMFF94 Energy>
21.447

$$$$
Compound 110
Actelion Java MolfileCreator 2.0

  0  0  0  0  0  0              0 V3000
M  V30 BEGIN CTAB
M  V30 COUNTS 42 44 0 0 0
M  V30 BEGIN ATOM
M  V30 1 O 8.1178 0.9618 0.4006 0
M  V30 2 N 7.4546 0.1148 -0.2332 0 CHG=1
M  V30 3 O 8.1247 -0.8436 -0.9585 0 CHG=-1
M  V30 4 C 6.0157 0.1393 -0.2071 0
M  V30 5 C 5.3271 1.1179 0.5324 0
M  V30 6 C 5.2751 -0.8179 -0.9217 0
M  V30 7 C 3.9296 1.1377 0.5552 0
M  V30 8 C 3.8776 -0.7964 -0.8985 0
M  V30 9 C 3.1928 0.1818 -0.1622 0
M  V30 10 N 1.7529 0.1952 -0.1404 0
M  V30 11 C 1.0014 0.2766 -1.3988 0
M  V30 12 C 1.0291 0.4621 1.1083 0
M  V30 13 C -0.2498 -0.5988 -1.3224 0
M  V30 14 C -0.2219 -0.4133 1.1847 0
M  V30 15 N -0.9734 -0.3319 -0.0734 0
M  V30 16 C -2.4135 -0.3185 -0.0517 0
M  V30 17 C -3.1504 -1.2741 -0.7702 0
M  V30 18 C -3.0984 0.6597 0.6856 0
M  V30 19 C -4.5477 -1.253 -0.7462 0
M  V30 20 C -4.496 0.6811 0.7086 0
M  V30 21 C -5.2325 -0.2797 -0.0097 0
M  V30 22 O -6.6351 -0.3013 -0.018 0
M  V30 23 C -7.4574 0.625 0.684 0
M  V30 24 H 5.8687 1.8699 1.0918 0
M  V30 25 H 5.7753 -1.5863 -1.4964 0
M  V30 26 H 3.4221 1.9076 1.1226 0
M  V30 27 H 3.3278 -1.5531 -1.4437 0
M  V30 28 H 0.702 1.3329 -1.5736 0
M  V30 29 H 1.6199 -0.0481 -2.2626 0
M  V30 30 H 0.7374 1.5344 1.1426 0
M  V30 31 H 1.6707 0.2418 1.9897 0
M  V30 32 H 0.0418 -1.671 -1.3565 0
M  V30 33 H -0.8913 -0.3784 -2.2036 0
M  V30 34 H -0.8405 -0.0885 2.0488 0
M  V30 35 H 0.0772 -1.4696 1.3596 0
M  V30 36 H -2.644 -2.0439 -1.3381 0
M  V30 37 H -2.5486 1.4161 1.2313 0
M  V30 38 H -5.1024 -1.9986 -1.3017 0
M  V30 39 H -4.9932 1.4497 1.2845 0
M  V30 40 H -7.2677 1.6567 0.3195 0
M  V30 41 H -8.5227 0.3745 0.5026 0
M  V30 42 H -7.2582 0.562 1.7748 0
M  V30 END ATOM
M  V30 BEGIN BOND
M  V30 1 2 1 2
M  V30 2 1 2 3
M  V30 3 1 2 4
M  V30 4 2 4 5
M  V30 5 1 4 6
M  V30 6 1 5 7
M  V30 7 2 6 8
M  V30 8 2 7 9
M  V30 9 1 9 10
M  V30 10 1 10 11
M  V30 11 1 10 12
M  V30 12 1 11 13
M  V30 13 1 12 14
M  V30 14 1 13 15
M  V30 15 1 15 16
M  V30 16 2 16 17
M  V30 17 1 16 18
M  V30 18 1 17 19
M  V30 19 2 18 20
M  V30 20 2 19 21
M  V30 21 1 21 22
M  V30 22 1 22 23
M  V30 23 1 8 9
M  V30 24 1 14 15
M  V30 25 1 20 21
M  V30 26 1 5 24
M  V30 27 1 6 25
M  V30 28 1 7 26
M  V30 29 1 8 27
M  V30 30 1 11 28
M  V30 31 1 11 29
M  V30 32 1 12 30
M  V30 33 1 12 31
M  V30 34 1 13 32
M  V30 35 1 13 33
M  V30 36 1 14 34
M  V30 37 1 14 35
M  V30 38 1 17 36
M  V30 39 1 18 37
M  V30 40 1 19 38
M  V30 41 1 20 39
M  V30 42 1 23 40
M  V30 43 1 23 41
M  V30 44 1 23 42
M  V30 END BOND
M  V30 END CTAB
M  END
>  <Structure No>
110

>  <LogS>
-6.929013035

>  <MMFF94 Energy>
155.47

$$$$
Compound 111
Actelion Java MolfileCreator 2.0

  0  0  0  0  0  0              0 V3000
M  V30 BEGIN CTAB
M  V30 COUNTS 92 91 0 0 0
M  V30 BEGIN ATOM
M  V30 1 O -4.0017 -1.9601 2.4309 0
M  V30 2 C -3.9207 -0.8423 1.8509 0
M  V30 3 O -4.6834 0.2477 2.284 0
M  V30 4 C -2.981 -0.6722 0.6985 0
M  V30 5 C -5.6788 0.1559 3.3027 0
M  V30 6 C -1.5228 -0.5462 1.1571 0
M  V30 7 C -6.9374 -0.5509 2.7856 0
M  V30 8 C -1.265 0.7605 1.9295 0
M  V30 9 C -7.5867 0.2191 1.6279 0
M  V30 10 C 0.2246 0.9701 2.2516 0
M  V30 11 C -8.8416 -0.5012 1.1199 0
M  V30 12 C 1.0168 1.4784 1.037 0
M  V30 13 C -9.4981 0.2812 -0.0238 0
M  V30 14 C 2.4995 1.6939 1.3803 0
M  V30 15 C -10.7293 -0.4554 -0.5662 0
M  V30 16 C 3.2741 2.4446 0.2768 0
M  V30 17 C -11.3913 0.3431 -1.7005 0
M  V30 18 C 3.2429 1.7911 -1.1189 0
M  V30 19 C -12.517 -0.4422 -2.411 0
M  V30 20 C 4.0875 0.5539 -1.2156 0
M  V30 21 C -13.7207 -0.6878 -1.4871 0
M  V30 22 C -12.9716 0.3134 -3.6667 0
M  V30 23 O 4.9196 0.4451 -2.1583 0
M  V30 24 O 3.9022 -0.4941 -0.3092 0
M  V30 25 C 4.6884 -1.6849 -0.2919 0
M  V30 26 C 5.9471 -1.5118 0.5694 0
M  V30 27 C 7.0207 -0.6607 -0.1222 0
M  V30 28 C 8.3448 -0.6961 0.6564 0
M  V30 29 C 9.4382 0.1681 0.0052 0
M  V30 30 C 10.0406 -0.4949 -1.2459 0
M  V30 31 C 11.091 0.3861 -1.9482 0
M  V30 32 C 12.3728 0.6699 -1.1272 0
M  V30 33 C 13.102 -0.6196 -0.7231 0
M  V30 34 C 13.3163 1.5699 -1.9368 0
M  V30 35 H -3.0731 -1.5568 0.0321 0
M  V30 36 H -3.2707 0.2212 0.1056 0
M  V30 37 H -5.2734 -0.3877 4.1833 0
M  V30 38 H -5.9429 1.181 3.6374 0
M  V30 39 H -0.8842 -0.5829 0.2509 0
M  V30 40 H -1.2524 -1.4177 1.7919 0
M  V30 41 H -6.6763 -1.5789 2.4538 0
M  V30 42 H -7.6636 -0.6355 3.6228 0
M  V30 43 H -1.8255 0.7213 2.8884 0
M  V30 44 H -1.6496 1.6299 1.3531 0
M  V30 45 H -7.8639 1.2386 1.9749 0
M  V30 46 H -6.8586 0.3146 0.793 0
M  V30 47 H 0.6676 0.023 2.6309 0
M  V30 48 H 0.2996 1.7263 3.0628 0
M  V30 49 H -9.5699 -0.6111 1.9537 0
M  V30 50 H -8.5619 -1.5157 0.7585 0
M  V30 51 H 0.9442 0.7322 0.2209 0
M  V30 52 H 0.5741 2.4379 0.688 0
M  V30 53 H -8.7611 0.4184 -0.8457 0
M  V30 54 H -9.8046 1.2849 0.3459 0
M  V30 55 H 2.9818 0.7209 1.6045 0
M  V30 56 H 2.5682 2.3048 2.3067 0
M  V30 57 H -11.4539 -0.599 0.2629 0
M  V30 58 H -10.42 -1.4526 -0.9463 0
M  V30 59 H 2.8468 3.4681 0.1893 0
M  V30 60 H 4.3323 2.5649 0.5983 0
M  V30 61 H -10.6101 0.5973 -2.451 0
M  V30 62 H -11.7942 1.2974 -1.2959 0
M  V30 63 H 3.6282 2.5379 -1.8476 0
M  V30 64 H 2.2078 1.559 -1.4369 0
M  V30 65 H -12.1183 -1.4293 -2.7375 0
M  V30 66 H -14.0965 0.2698 -1.0671 0
M  V30 67 H -13.4418 -1.3669 -0.6546 0
M  V30 68 H -14.5441 -1.1779 -2.0503 0
M  V30 69 H -13.7584 -0.2632 -4.1992 0
M  V30 70 H -12.1163 0.451 -4.3631 0
M  V30 71 H -13.3805 1.3121 -3.3961 0
M  V30 72 H 4.0732 -2.4898 0.1613 0
M  V30 73 H 4.9429 -2.0119 -1.3237 0
M  V30 74 H 5.6709 -1.0511 1.5432 0
M  V30 75 H 6.3619 -2.5225 0.7758 0
M  V30 76 H 6.6718 0.3919 -0.1858 0
M  V30 77 H 7.1785 -1.0512 -1.1488 0
M  V30 78 H 8.7049 -1.7439 0.7527 0
M  V30 79 H 8.1606 -0.3092 1.6828 0
M  V30 80 H 9.0278 1.1689 -0.2516 0
M  V30 81 H 10.2405 0.311 0.76 0
M  V30 82 H 9.2358 -0.6853 -1.9855 0
M  V30 83 H 10.4737 -1.4835 -0.9862 0
M  V30 84 H 10.6129 1.3519 -2.223 0
M  V30 85 H 11.3762 -0.1144 -2.8999 0
M  V30 86 H 12.104 1.2263 -0.2035 0
M  V30 87 H 14.0878 -0.3831 -0.2666 0
M  V30 88 H 12.5152 -1.1768 0.0365 0
M  V30 89 H 13.2683 -1.2719 -1.6074 0
M  V30 90 H 14.218 1.8235 -1.3386 0
M  V30 91 H 12.8066 2.5196 -2.2033 0
M  V30 92 H 13.6391 1.0609 -2.8723 0
M  V30 END ATOM
M  V30 BEGIN BOND
M  V30 1 2 1 2
M  V30 2 1 2 3
M  V30 3 1 2 4
M  V30 4 1 3 5
M  V30 5 1 4 6
M  V30 6 1 5 7
M  V30 7 1 6 8
M  V30 8 1 7 9
M  V30 9 1 8 10
M  V30 10 1 9 11
M  V30 11 1 10 12
M  V30 12 1 11 13
M  V30 13 1 12 14
M  V30 14 1 13 15
M  V30 15 1 14 16
M  V30 16 1 15 17
M  V30 17 1 16 18
M  V30 18 1 17 19
M  V30 19 1 18 20
M  V30 20 1 19 21
M  V30 21 1 19 22
M  V30 22 2 20 23
M  V30 23 1 20 24
M  V30 24 1 24 25
M  V30 25 1 25 26
M  V30 26 1 26 27
M  V30 27 1 27 28
M  V30 28 1 28 29
M  V30 29 1 29 30
M  V30 30 1 30 31
M  V30 31 1 31 32
M  V30 32 1 32 33
M  V30 33 1 32 34
M  V30 34 1 4 35
M  V30 35 1 4 36
M  V30 36 1 5 37
M  V30 37 1 5 38
M  V30 38 1 6 39
M  V30 39 1 6 40
M  V30 40 1 7 41
M  V30 41 1 7 42
M  V30 42 1 8 43
M  V30 43 1 8 44
M  V30 44 1 9 45
M  V30 45 1 9 46
M  V30 46 1 10 47
M  V30 47 1 10 48
M  V30 48 1 11 49
M  V30 49 1 11 50
M  V30 50 1 12 51
M  V30 51 1 12 52
M  V30 52 1 13 53
M  V30 53 1 13 54
M  V30 54 1 14 55
M  V30 55 1 14 56
M  V30 56 1 15 57
M  V30 57 1 15 58
M  V30 58 1 16 59
M  V30 59 1 16 60
M  V30 60 1 17 61
M  V30 61 1 17 62
M  V30 62 1 18 63
M  V30 63 1 18 64
M  V30 64 1 19 65
M  V30 65 1 21 66
M  V30 66 1 21 67
M  V30 67 1 21 68
M  V30 68 1 22 69
M  V30 69 1 22 70
M  V30 70 1 22 71
M  V30 71 1 25 72
M  V30 72 1 25 73
M  V30 73 1 26 74
M  V30 74 1 26 75
M  V30 75 1 27 76
M  V30 76 1 27 77
M  V30 77 1 28 78
M  V30 78 1 28 79
M  V30 79 1 29 80
M  V30 80 1 29 81
M  V30 81 1 30 82
M  V30 82 1 30 83
M  V30 83 1 31 84
M  V30 84 1 31 85
M  V30 85 1 32 86
M  V30 86 1 33 87
M  V30 87 1 33 88
M  V30 88 1 33 89
M  V30 89 1 34 90
M  V30 90 1 34 91
M  V30 91 1 34 92
M  V30 END BOND
M  V30 END CTAB
M  END
>  <Structure No>
111

>  <LogS>
-7.252394502

>  <MMFF94 Energy>
-12.235

$$$$
Compound 112
Actelion Java MolfileCreator 2.0

  0  0  0  0  0  0              0 V3000
M  V30 BEGIN CTAB
M  V30 COUNTS 76 81 0 0 0
M  V30 BEGIN ATOM
M  V30 1 O 2.5704 -3.938 0.0 0
M  V30 2 C 2.2285 -2.737 -0.1579 0
M  V30 3 O 1.6718 -1.9439 0.8391 0
M  V30 4 C 2.354 -1.9731 -1.3726 0
M  V30 5 C 1.4044 -0.6243 0.3376 0 CFG=2
M  V30 6 C 1.8634 -0.7159 -1.1036 0
M  V30 7 C 2.8821 -2.315 -2.616 0
M  V30 8 C 2.2545 0.3885 1.0908 0
M  V30 9 C -0.0896 -0.3497 0.4055 0
M  V30 10 C 1.8805 0.2801 -2.0828 0
M  V30 11 C 2.9039 -1.3269 -3.614 0
M  V30 12 C 1.6623 1.4652 1.7719 0
M  V30 13 C 3.654 0.2711 1.0883 0
M  V30 14 C -0.5893 0.7472 1.1334 0
M  V30 15 C -0.9964 -1.1955 -0.2602 0
M  V30 16 C 2.4044 -0.0346 -3.3488 0
M  V30 17 O 0.2754 1.615 1.8015 0
M  V30 18 C 2.4593 2.409 2.4245 0
M  V30 19 C 4.4631 1.2442 1.6941 0
M  V30 20 C -1.9662 0.99 1.1848 0
M  V30 21 C -2.3672 -0.9371 -0.2218 0
M  V30 22 C 3.8595 2.3201 2.3799 0
M  V30 23 N 5.8954 1.1265 1.6222 0
M  V30 24 C -2.8598 0.1564 0.5002 0
M  V30 25 C 4.6935 3.3674 3.0666 0
M  V30 26 C 6.6009 0.729 0.4314 0
M  V30 27 N -4.2678 0.4446 0.5073 0
M  V30 28 C 7.8784 0.1574 0.5415 0
M  V30 29 C 6.0551 0.9452 -0.849 0
M  V30 30 C -4.8813 1.0209 -0.6966 0
M  V30 31 C -5.0223 0.3883 1.7689 0
M  V30 32 C 8.5847 -0.2232 -0.6051 0
M  V30 33 C 6.7625 0.5622 -1.9912 0
M  V30 34 C -5.751 -0.0145 -1.4209 0
M  V30 35 C -4.994 -1.017 2.3928 0
M  V30 36 C 8.0259 -0.0225 -1.8702 0
M  V30 37 C -6.2685 0.4929 -2.7753 0
M  V30 38 C -5.7254 -2.0507 1.5261 0
M  V30 39 C -7.3241 1.5889 -2.6326 0
M  V30 40 C -5.7227 -3.4261 2.1861 0
M  V30 41 H 3.271 -3.3074 -2.8054 0
M  V30 42 H 1.5074 1.273 -1.866 0
M  V30 43 H 3.3082 -1.558 -4.5913 0
M  V30 44 H 4.12 -0.5713 0.5906 0
M  V30 45 H -0.6413 -2.052 -0.8216 0
M  V30 46 H 2.4302 0.7201 -4.123 0
M  V30 47 H 1.9786 3.2259 2.9496 0
M  V30 48 H -2.3375 1.8446 1.7352 0
M  V30 49 H -3.0435 -1.5961 -0.7484 0
M  V30 50 H 6.4509 1.3155 2.4873 0
M  V30 51 H 4.0854 4.2561 3.3434 0
M  V30 52 H 5.5049 3.7132 2.3911 0
M  V30 53 H 5.1401 2.9404 3.9895 0
M  V30 54 H 8.3211 -0.0013 1.5167 0
M  V30 55 H 5.0903 1.4212 -0.9686 0
M  V30 56 H -5.4956 1.9007 -0.4076 0
M  V30 57 H -4.0898 1.3922 -1.3872 0
M  V30 58 H -4.582 1.1106 2.4924 0
M  V30 59 H -6.0794 0.6949 1.6055 0
M  V30 60 H 9.5664 -0.6714 -0.5134 0
M  V30 61 H 6.3322 0.7234 -2.9712 0
M  V30 62 H -5.1436 -0.9225 -1.6102 0
M  V30 63 H -6.6099 -0.3055 -0.7791 0
M  V30 64 H -5.4876 -0.9657 3.3879 0
M  V30 65 H -3.9412 -1.336 2.5579 0
M  V30 66 H 8.5734 -0.317 -2.7563 0
M  V30 67 H -5.4231 0.868 -3.3922 0
M  V30 68 H -6.7261 -0.3615 -3.3185 0
M  V30 69 H -6.7784 -1.7289 1.369 0
M  V30 70 H -5.2254 -2.1334 0.5387 0
M  V30 71 H -8.1608 1.242 -1.9871 0
M  V30 72 H -6.8765 2.5083 -2.2002 0
M  V30 73 H -7.7301 1.843 -3.6345 0
M  V30 74 H -6.2776 -4.1432 1.5452 0
M  V30 75 H -4.6797 -3.7923 2.3105 0
M  V30 76 H -6.219 -3.379 3.1778 0
M  V30 END ATOM
M  V30 BEGIN BOND
M  V30 1 2 1 2
M  V30 2 1 2 3
M  V30 3 1 2 4
M  V30 4 1 3 5
M  V30 5 2 4 6
M  V30 6 1 4 7
M  V30 7 1 5 8
M  V30 8 1 5 9
M  V30 9 1 6 10
M  V30 10 2 7 11
M  V30 11 2 8 12
M  V30 12 1 8 13
M  V30 13 2 9 14
M  V30 14 1 9 15
M  V30 15 2 10 16
M  V30 16 1 12 17
M  V30 17 1 12 18
M  V30 18 2 13 19
M  V30 19 1 14 20
M  V30 20 2 15 21
M  V30 21 2 18 22
M  V30 22 1 19 23
M  V30 23 2 20 24
M  V30 24 1 22 25
M  V30 25 1 23 26
M  V30 26 1 24 27
M  V30 27 2 26 28
M  V30 28 1 26 29
M  V30 29 1 27 30
M  V30 30 1 27 31
M  V30 31 1 28 32
M  V30 32 2 29 33
M  V30 33 1 30 34
M  V30 34 1 31 35
M  V30 35 2 32 36
M  V30 36 1 34 37
M  V30 37 1 35 38
M  V30 38 1 37 39
M  V30 39 1 38 40
M  V30 40 1 5 6
M  V30 41 1 11 16
M  V30 42 1 14 17
M  V30 43 1 19 22
M  V30 44 1 21 24
M  V30 45 1 33 36
M  V30 46 1 7 41
M  V30 47 1 10 42
M  V30 48 1 11 43
M  V30 49 1 13 44
M  V30 50 1 15 45
M  V30 51 1 16 46
M  V30 52 1 18 47
M  V30 53 1 20 48
M  V30 54 1 21 49
M  V30 55 1 23 50
M  V30 56 1 25 51
M  V30 57 1 25 52
M  V30 58 1 25 53
M  V30 59 1 28 54
M  V30 60 1 29 55
M  V30 61 1 30 56
M  V30 62 1 30 57
M  V30 63 1 31 58
M  V30 64 1 31 59
M  V30 65 1 32 60
M  V30 66 1 33 61
M  V30 67 1 34 62
M  V30 68 1 34 63
M  V30 69 1 35 64
M  V30 70 1 35 65
M  V30 71 1 36 66
M  V30 72 1 37 67
M  V30 73 1 37 68
M  V30 74 1 38 69
M  V30 75 1 38 70
M  V30 76 1 39 71
M  V30 77 1 39 72
M  V30 78 1 39 73
M  V30 79 1 40 74
M  V30 80 1 40 75
M  V30 81 1 40 76
M  V30 END BOND
M  V30 BEGIN COLLECTION
M  V30 MDLV30/STEABS ATOMS=(1 5)
M  V30 END COLLECTION
M  V30 END CTAB
M  END
>  <Structure No>
112

>  <LogS>
-7.404250358

>  <MMFF94 Energy>
82.622

$$$$
Compound 113
Actelion Java MolfileCreator 2.0

  0  0  0  0  0  0              0 V3000
M  V30 BEGIN CTAB
M  V30 COUNTS 17 18 0 0 0
M  V30 BEGIN ATOM
M  V30 1 F 3.5638 -0.1655 -0.9107 0
M  V30 2 C 2.7032 -0.0926 0.1683 0
M  V30 3 F 3.4045 0.1812 1.3274 0
M  V30 4 O 1.7066 0.9129 -0.0582 0
M  V30 5 O 1.9751 -1.3197 0.3068 0
M  V30 6 C 0.4679 0.2976 -0.0509 0
M  V30 7 C 0.6306 -1.034 0.1669 0
M  V30 8 C -0.7936 0.8717 -0.2295 0
M  V30 9 C -0.449 -1.9097 0.226 0
M  V30 10 C -1.9121 0.0083 -0.1751 0
M  V30 11 C -0.9352 2.3184 -0.4637 0
M  V30 12 C -1.7375 -1.3749 0.0515 0
M  V30 13 O -2.0699 2.8408 -0.6253 0
M  V30 14 H -0.301 -2.9671 0.4004 0
M  V30 15 H -2.9141 0.3968 -0.3066 0
M  V30 16 H -0.0569 2.95 -0.4991 0
M  V30 17 H -2.6001 -2.027 0.0913 0
M  V30 END ATOM
M  V30 BEGIN BOND
M  V30 1 1 1 2
M  V30 2 1 2 3
M  V30 3 1 2 4
M  V30 4 1 2 5
M  V30 5 1 4 6
M  V30 6 1 5 7
M  V30 7 1 6 8
M  V30 8 1 7 9
M  V30 9 2 8 10
M  V30 10 1 8 11
M  V30 11 2 9 12
M  V30 12 2 11 13
M  V30 13 2 6 7
M  V30 14 1 10 12
M  V30 15 1 9 14
M  V30 16 1 10 15
M  V30 17 1 11 16
M  V30 18 1 12 17
M  V30 END BOND
M  V30 END CTAB
M  END
>  <Structure No>
113

>  <LogS>
-2.155833357

>  <MMFF94 Energy>
23.678

$$$$
Compound 114
Actelion Java MolfileCreator 2.0

  0  0  0  0  0  0              0 V3000
M  V30 BEGIN CTAB
M  V30 COUNTS 35 37 0 0 0
M  V30 BEGIN ATOM
M  V30 1 O -3.1596 -1.4573 -0.5665 0
M  V30 2 C -2.2315 -0.6137 -0.4339 0
M  V30 3 C -0.8342 -1.0622 -0.1591 0
M  V30 4 C -2.5665 0.8256 -0.4585 0
M  V30 5 C -0.4331 -2.413 -0.3533 0
M  V30 6 C 0.092 -0.1241 0.3692 0
M  V30 7 C -1.6022 1.7752 -0.0742 0
M  V30 8 C -3.8484 1.2571 -0.8494 0
M  V30 9 N -1.2647 -3.338 -1.0746 0
M  V30 10 C 0.8264 -2.8358 0.1122 0
M  V30 11 C -0.2536 1.3301 0.3409 0
M  V30 12 C 1.3454 -0.5806 0.8552 0
M  V30 13 C -1.9331 3.1441 -0.0914 0
M  V30 14 C -4.1634 2.6174 -0.862 0
M  V30 15 C 1.2669 -4.202 -0.0444 0
M  V30 16 C 1.6873 -1.9308 0.7278 0
M  V30 17 O 0.6175 2.2014 0.6093 0
M  V30 18 N 2.2477 0.3034 1.544 0
M  V30 19 C -3.2073 3.5594 -0.4837 0
M  V30 20 N 1.621 -5.2966 -0.1695 0
M  V30 21 C 3.6802 0.3695 1.2528 0
M  V30 22 C 3.9186 0.8089 -0.188 0
M  V30 23 H -4.6064 0.5441 -1.1489 0
M  V30 24 H -1.1548 -4.3701 -0.9647 0
M  V30 25 H -1.8827 -3.0138 -1.8503 0
M  V30 26 H -1.2086 3.8943 0.1998 0
M  V30 27 H -5.1507 2.9413 -1.1656 0
M  V30 28 H 2.6342 -2.2856 1.1151 0
M  V30 29 H 1.8676 0.9338 2.2859 0
M  V30 30 H -3.4537 4.6135 -0.4938 0
M  V30 31 H 4.1597 -0.6144 1.4342 0
M  V30 32 H 4.1582 1.1065 1.9339 0
M  V30 33 H 3.5044 0.0583 -0.894 0
M  V30 34 H 3.4339 1.7913 -0.3723 0
M  V30 35 H 5.0091 0.9064 -0.3724 0
M  V30 END ATOM
M  V30 BEGIN BOND
M  V30 1 2 1 2
M  V30 2 1 2 3
M  V30 3 1 2 4
M  V30 4 2 3 5
M  V30 5 1 3 6
M  V30 6 2 4 7
M  V30 7 1 4 8
M  V30 8 1 5 9
M  V30 9 1 5 10
M  V30 10 1 6 11
M  V30 11 2 6 12
M  V30 12 1 7 13
M  V30 13 2 8 14
M  V30 14 1 10 15
M  V30 15 2 10 16
M  V30 16 2 11 17
M  V30 17 1 12 18
M  V30 18 2 13 19
M  V30 19 3 15 20
M  V30 20 1 18 21
M  V30 21 1 21 22
M  V30 22 1 7 11
M  V30 23 1 12 16
M  V30 24 1 14 19
M  V30 25 1 8 23
M  V30 26 1 9 24
M  V30 27 1 9 25
M  V30 28 1 13 26
M  V30 29 1 14 27
M  V30 30 1 16 28
M  V30 31 1 18 29
M  V30 32 1 19 30
M  V30 33 1 21 31
M  V30 34 1 21 32
M  V30 35 1 22 33
M  V30 36 1 22 34
M  V30 37 1 22 35
M  V30 END BOND
M  V30 END CTAB
M  END
>  <Structure No>
114

>  <LogS>
-7.638280591

>  <MMFF94 Energy>
102.33

$$$$
Compound 115
Actelion Java MolfileCreator 2.0

  0  0  0  0  0  0              0 V3000
M  V30 BEGIN CTAB
M  V30 COUNTS 69 68 0 0 0
M  V30 BEGIN ATOM
M  V30 1 N -5.5808 -0.6188 1.5477 0 CHG=1
M  V30 2 C -6.492 -0.8055 0.4007 0
M  V30 3 C -4.5491 -1.6804 1.6326 0
M  V30 4 C -7.5741 -1.875 0.681 0
M  V30 5 C -3.1445 -1.1805 1.2465 0
M  V30 6 C -8.9509 -1.2793 1.0248 0
M  V30 7 C -3.0425 -0.7883 -0.2343 0
M  V30 8 N -8.9321 -0.5215 2.2754 0 CHG=1
M  V30 9 C -1.6148 -0.3566 -0.5927 0
M  V30 10 C -1.5335 0.1084 -2.0537 0
M  V30 11 C -0.1036 0.471 -2.4848 0
M  V30 12 C 0.4264 1.7286 -1.778 0
M  V30 13 C 1.7179 2.2267 -2.4364 0
M  V30 14 C 2.2833 3.4165 -1.7036 0
M  V30 15 C 2.9544 3.3604 -0.5381 0
M  V30 16 C 3.2449 2.096 0.2377 0
M  V30 17 C 4.6938 2.0716 0.7518 0
M  V30 18 C 5.7589 2.0835 -0.3653 0
M  V30 19 C 5.6934 0.8956 -1.3466 0
M  V30 20 C 5.7737 -0.4942 -0.6899 0
M  V30 21 C 7.0926 -0.7166 0.0707 0
M  V30 22 C 7.2825 -2.1798 0.5035 0
M  V30 23 C 6.3414 -2.5846 1.6413 0
M  V30 24 H -5.1383 0.3271 1.4696 0
M  V30 25 H -6.1347 -0.6073 2.4363 0
M  V30 26 H -5.915 -1.096 -0.5046 0
M  V30 27 H -6.9695 0.1657 0.1437 0
M  V30 28 H -4.4935 -2.0514 2.6811 0
M  V30 29 H -4.8057 -2.5674 1.0102 0
M  V30 30 H -7.2552 -2.569 1.4897 0
M  V30 31 H -7.698 -2.4929 -0.2359 0
M  V30 32 H -2.4163 -1.9957 1.4552 0
M  V30 33 H -2.8721 -0.3139 1.8884 0
M  V30 34 H -9.2951 -0.6268 0.1935 0
M  V30 35 H -9.6823 -2.1118 1.1183 0
M  V30 36 H -3.7326 0.0565 -0.4426 0
M  V30 37 H -3.3384 -1.6521 -0.8685 0
M  V30 38 H -8.3379 0.3332 2.1784 0
M  V30 39 H -9.907 -0.2181 2.5011 0
M  V30 40 H -8.5812 -1.1179 3.0581 0
M  V30 41 H -1.3137 0.4751 0.0793 0
M  V30 42 H -0.9202 -1.2115 -0.4362 0
M  V30 43 H -2.2031 0.984 -2.2075 0
M  V30 44 H -1.8928 -0.7122 -2.7122 0
M  V30 45 H -0.1149 0.6442 -3.5839 0
M  V30 46 H 0.5792 -0.3859 -2.2871 0
M  V30 47 H 0.6191 1.4945 -0.7108 0
M  V30 48 H -0.3358 2.537 -1.8256 0
M  V30 49 H 1.4865 2.5403 -3.4779 0
M  V30 50 H 2.4714 1.416 -2.5064 0
M  V30 51 H 2.1387 4.3938 -2.1584 0
M  V30 52 H 3.2742 4.3008 -0.0974 0
M  V30 53 H 2.5625 2.0731 1.1126 0
M  V30 54 H 3.046 1.1769 -0.345 0
M  V30 55 H 4.8589 2.9605 1.4005 0
M  V30 56 H 4.8363 1.1828 1.4023 0
M  V30 57 H 6.7678 2.1158 0.1018 0
M  V30 58 H 5.6612 3.0241 -0.9492 0
M  V30 59 H 4.7572 0.956 -1.9392 0
M  V30 60 H 6.528 0.9983 -2.0752 0
M  V30 61 H 4.9047 -0.6448 -0.0153 0
M  V30 62 H 5.6899 -1.2518 -1.4987 0
M  V30 63 H 7.1347 -0.0618 0.9669 0
M  V30 64 H 7.9417 -0.4401 -0.5921 0
M  V30 65 H 8.3311 -2.3123 0.8529 0
M  V30 66 H 7.1329 -2.859 -0.3638 0
M  V30 67 H 6.5627 -3.6271 1.9487 0
M  V30 68 H 5.2827 -2.5414 1.3129 0
M  V30 69 H 6.481 -1.9193 2.5192 0
M  V30 END ATOM
M  V30 BEGIN BOND
M  V30 1 1 1 2
M  V30 2 1 1 3
M  V30 3 1 2 4
M  V30 4 1 3 5
M  V30 5 1 4 6
M  V30 6 1 5 7
M  V30 7 1 6 8
M  V30 8 1 7 9
M  V30 9 1 9 10
M  V30 10 1 10 11
M  V30 11 1 11 12
M  V30 12 1 12 13
M  V30 13 1 13 14
M  V30 14 2 14 15
M  V30 15 1 15 16
M  V30 16 1 16 17
M  V30 17 1 17 18
M  V30 18 1 18 19
M  V30 19 1 19 20
M  V30 20 1 20 21
M  V30 21 1 21 22
M  V30 22 1 22 23
M  V30 23 1 1 24
M  V30 24 1 1 25
M  V30 25 1 2 26
M  V30 26 1 2 27
M  V30 27 1 3 28
M  V30 28 1 3 29
M  V30 29 1 4 30
M  V30 30 1 4 31
M  V30 31 1 5 32
M  V30 32 1 5 33
M  V30 33 1 6 34
M  V30 34 1 6 35
M  V30 35 1 7 36
M  V30 36 1 7 37
M  V30 37 1 8 38
M  V30 38 1 8 39
M  V30 39 1 8 40
M  V30 40 1 9 41
M  V30 41 1 9 42
M  V30 42 1 10 43
M  V30 43 1 10 44
M  V30 44 1 11 45
M  V30 45 1 11 46
M  V30 46 1 12 47
M  V30 47 1 12 48
M  V30 48 1 13 49
M  V30 49 1 13 50
M  V30 50 1 14 51
M  V30 51 1 15 52
M  V30 52 1 16 53
M  V30 53 1 16 54
M  V30 54 1 17 55
M  V30 55 1 17 56
M  V30 56 1 18 57
M  V30 57 1 18 58
M  V30 58 1 19 59
M  V30 59 1 19 60
M  V30 60 1 20 61
M  V30 61 1 20 62
M  V30 62 1 21 63
M  V30 63 1 21 64
M  V30 64 1 22 65
M  V30 65 1 22 66
M  V30 66 1 23 67
M  V30 67 1 23 68
M  V30 68 1 23 69
M  V30 END BOND
M  V30 END CTAB
M  END
>  <Structure No>
115

>  <LogS>
-8.25019206

>  <MMFF94 Energy>
68.532

$$$$
Compound 116
Actelion Java MolfileCreator 2.0

  0  0  0  0  0  0              0 V3000
M  V30 BEGIN CTAB
M  V30 COUNTS 56 59 0 0 0
M  V30 BEGIN ATOM
M  V30 1 O 0 0 0 0
M  V30 2 C 0 0 0 0
M  V30 3 O 0 0 0 0
M  V30 4 C 0 0 0 0
M  V30 5 C 0 0 0 0
M  V30 6 C 0 0 0 0
M  V30 7 C 0 0 0 0
M  V30 8 C 0 0 0 0
M  V30 9 C 0 0 0 0
M  V30 10 C 0 0 0 0
M  V30 11 C 0 0 0 0
M  V30 12 C 0 0 0 0
M  V30 13 C 0 0 0 0
M  V30 14 C 0 0 0 0
M  V30 15 C 0 0 0 0
M  V30 16 N 0 0 0 0
M  V30 17 C 0 0 0 0
M  V30 18 C 0 0 0 0
M  V30 19 C 0 0 0 0
M  V30 20 N 0 0 0 0
M  V30 21 N 0 0 0 0
M  V30 22 C 0 0 0 0
M  V30 23 C 0 0 0 0
M  V30 24 N 0 0 0 0
M  V30 25 N 0 0 0 0
M  V30 26 N 0 0 0 0
M  V30 27 C 0 0 0 0
M  V30 28 C 0 0 0 0
M  V30 29 C 0 0 0 0
M  V30 30 C 0 0 0 0
M  V30 31 C 0 0 0 0
M  V30 32 C 0 0 0 0
M  V30 33 C 0 0 0 0
M  V30 34 C 0 0 0 0
M  V30 35 C 0 0 0 0
M  V30 36 C 0 0 0 0
M  V30 37 C 0 0 0 0
M  V30 38 C 0 0 0 0
M  V30 39 C 0 0 0 0
M  V30 40 C 0 0 0 0
M  V30 41 O 0 0 0 0
M  V30 42 O 0 0 0 0
M  V30 43 O 0 0 0 0
M  V30 44 N 0 0 0 0
M  V30 45 C 0 0 0 0
M  V30 46 C 0 0 0 0
M  V30 47 C 0 0 0 0
M  V30 48 C 0 0 0 0
M  V30 49 C 0 0 0 0
M  V30 50 C 0 0 0 0
M  V30 51 C 0 0 0 0
M  V30 52 C 0 0 0 0
M  V30 53 C 0 0 0 0
M  V30 54 C 0 0 0 0
M  V30 55 C 0 0 0 0
M  V30 56 C 0 0 0 0
M  V30 END ATOM
M  V30 BEGIN BOND
M  V30 1 2 1 2
M  V30 2 1 2 3
M  V30 3 1 2 4
M  V30 4 1 3 5
M  V30 5 2 4 6
M  V30 6 1 4 7
M  V30 7 1 5 8
M  V30 8 1 6 9
M  V30 9 2 7 10
M  V30 10 1 8 11
M  V30 11 1 8 12
M  V30 12 2 9 13
M  V30 13 1 11 14
M  V30 14 1 12 15
M  V30 15 1 13 16
M  V30 16 1 14 17
M  V30 17 1 16 18
M  V30 18 1 17 19
M  V30 19 2 18 20
M  V30 20 1 18 21
M  V30 21 1 20 22
M  V30 22 2 21 23
M  V30 23 2 22 24
M  V30 24 1 22 25
M  V30 25 1 23 26
M  V30 26 1 25 27
M  V30 27 1 26 28
M  V30 28 2 27 29
M  V30 29 1 27 30
M  V30 30 2 28 31
M  V30 31 1 28 32
M  V30 32 1 29 33
M  V30 33 2 30 34
M  V30 34 1 31 35
M  V30 35 2 32 36
M  V30 36 2 33 37
M  V30 37 2 35 38
M  V30 38 1 37 39
M  V30 39 1 38 40
M  V30 40 2 39 41
M  V30 41 1 39 42
M  V30 42 2 40 43
M  V30 43 1 40 44
M  V30 44 1 42 45
M  V30 45 1 44 46
M  V30 46 1 45 47
M  V30 47 1 46 48
M  V30 48 1 46 49
M  V30 49 1 46 50
M  V30 50 1 47 51
M  V30 51 1 47 52
M  V30 52 1 51 53
M  V30 53 1 52 54
M  V30 54 1 53 55
M  V30 55 1 55 56
M  V30 56 1 10 13
M  V30 57 1 23 24
M  V30 58 1 34 37
M  V30 59 1 36 38
M  V30 END BOND
M  V30 END CTAB
M  END
>  <Structure No>
116

>  <LogS>
-8.185258765

>  <MMFF94 Energy>
-145.02

$$$$
Compound 117
Actelion Java MolfileCreator 2.0

  0  0  0  0  0  0              0 V3000
M  V30 BEGIN CTAB
M  V30 COUNTS 48 48 0 0 0
M  V30 BEGIN ATOM
M  V30 1 N -5.0011 0.546 0.7801 0 CHG=1
M  V30 2 C -5.5565 1.1988 -0.2869 0
M  V30 3 C -5.6325 -0.5339 1.3359 0
M  V30 4 C -3.712 1.0027 1.3193 0
M  V30 5 C -6.7745 0.7742 -0.8234 0
M  V30 6 C -6.8515 -0.9846 0.8233 0
M  V30 7 C -2.541 0.5591 0.4304 0
M  V30 8 C -7.4238 -0.3243 -0.2626 0
M  V30 9 C -2.3539 -0.9657 0.4351 0
M  V30 10 C -1.2351 -1.4332 -0.511 0
M  V30 11 C 0.1751 -0.9868 -0.0696 0
M  V30 12 C 0.6996 0.1898 -0.9118 0
M  V30 13 C 1.9915 0.7971 -0.3428 0
M  V30 14 C 3.196 -0.1472 -0.4702 0
M  V30 15 C 4.4872 0.5453 -0.017 0
M  V30 16 C 5.6882 -0.4063 -0.1232 0
M  V30 17 C 7.0203 0.2853 0.2049 0
M  V30 18 C 7.161 0.6242 1.6887 0
M  V30 19 H -5.0571 2.0526 -0.7297 0
M  V30 20 H -5.1926 -1.0583 2.176 0
M  V30 21 H -3.7116 2.1134 1.3849 0
M  V30 22 H -3.5575 0.6289 2.3564 0
M  V30 23 H -7.21 1.2932 -1.6675 0
M  V30 24 H -7.3466 -1.8401 1.2645 0
M  V30 25 H -2.7043 0.9179 -0.609 0
M  V30 26 H -1.621 1.0419 0.8227 0
M  V30 27 H -8.3676 -0.6638 -0.6694 0
M  V30 28 H -2.1414 -1.3168 1.4688 0
M  V30 29 H -3.2964 -1.4502 0.1019 0
M  V30 30 H -1.2587 -2.5453 -0.5243 0
M  V30 31 H -1.4567 -1.104 -1.5504 0
M  V30 32 H 0.1823 -0.7213 1.0104 0
M  V30 33 H 0.8668 -1.8467 -0.1989 0
M  V30 34 H -0.0659 0.9929 -0.9486 0
M  V30 35 H 0.8723 -0.1471 -1.9575 0
M  V30 36 H 2.2064 1.7324 -0.905 0
M  V30 37 H 1.8379 1.0739 0.7235 0
M  V30 38 H 3.0324 -1.0478 0.1596 0
M  V30 39 H 3.3035 -0.4681 -1.5298 0
M  V30 40 H 4.3654 0.8774 1.0362 0
M  V30 41 H 4.6671 1.4396 -0.6535 0
M  V30 42 H 5.5412 -1.279 0.5508 0
M  V30 43 H 5.7499 -0.7918 -1.1646 0
M  V30 44 H 7.131 1.2107 -0.401 0
M  V30 45 H 7.8495 -0.4001 -0.075 0
M  V30 46 H 8.184 1.0098 1.8833 0
M  V30 47 H 6.435 1.41 1.9836 0
M  V30 48 H 7.0007 -0.2812 2.3118 0
M  V30 END ATOM
M  V30 BEGIN BOND
M  V30 1 2 1 2
M  V30 2 1 1 3
M  V30 3 1 1 4
M  V30 4 1 2 5
M  V30 5 2 3 6
M  V30 6 1 4 7
M  V30 7 2 5 8
M  V30 8 1 7 9
M  V30 9 1 9 10
M  V30 10 1 10 11
M  V30 11 1 11 12
M  V30 12 1 12 13
M  V30 13 1 13 14
M  V30 14 1 14 15
M  V30 15 1 15 16
M  V30 16 1 16 17
M  V30 17 1 17 18
M  V30 18 1 6 8
M  V30 19 1 2 19
M  V30 20 1 3 20
M  V30 21 1 4 21
M  V30 22 1 4 22
M  V30 23 1 5 23
M  V30 24 1 6 24
M  V30 25 1 7 25
M  V30 26 1 7 26
M  V30 27 1 8 27
M  V30 28 1 9 28
M  V30 29 1 9 29
M  V30 30 1 10 30
M  V30 31 1 10 31
M  V30 32 1 11 32
M  V30 33 1 11 33
M  V30 34 1 12 34
M  V30 35 1 12 35
M  V30 36 1 13 36
M  V30 37 1 13 37
M  V30 38 1 14 38
M  V30 39 1 14 39
M  V30 40 1 15 40
M  V30 41 1 15 41
M  V30 42 1 16 42
M  V30 43 1 16 43
M  V30 44 1 17 44
M  V30 45 1 17 45
M  V30 46 1 18 46
M  V30 47 1 18 47
M  V30 48 1 18 48
M  V30 END BOND
M  V30 END CTAB
M  END
>  <Structure No>
117

>  <LogS>
-0.453910537

>  <MMFF94 Energy>
43.219

$$$$
Compound 118
Actelion Java MolfileCreator 2.0

  0  0  0  0  0  0              0 V3000
M  V30 BEGIN CTAB
M  V30 COUNTS 24 24 0 0 0
M  V30 BEGIN ATOM
M  V30 1 O 3.9795 1.1925 1.0335 0
M  V30 2 C 3.405 0.0726 1.006 0
M  V30 3 O 3.8347 -0.9432 1.8499 0 CHG=-1
M  V30 4 C 2.229 -0.1442 0.1156 0
M  V30 5 O 1.0453 0.2492 0.7984 0
M  V30 6 C -0.2109 0.1494 0.1949 0
M  V30 7 C -0.726 1.2339 -0.5452 0
M  V30 8 C -0.9706 -1.0301 0.3389 0
M  V30 9 C -1.9685 1.1058 -1.1847 0
M  V30 10 C 0.0686 2.499 -0.7113 0
M  V30 11 C -2.2107 -1.1365 -0.309 0
M  V30 12 C -0.4386 -2.1973 1.1225 0
M  V30 13 C -2.7056 -0.073 -1.0652 0
M  V30 14 H 2.1675 -1.2187 -0.1595 0
M  V30 15 H 2.3475 0.4532 -0.8138 0
M  V30 16 H -2.3672 1.9189 -1.7789 0
M  V30 17 H 0.6112 2.7463 0.2255 0
M  V30 18 H 0.8013 2.3707 -1.5349 0
M  V30 19 H -0.5951 3.3566 -0.9528 0
M  V30 20 H -2.7955 -2.0449 -0.2309 0
M  V30 21 H 0.244 -2.7932 0.4819 0
M  V30 22 H 0.1144 -1.847 2.0196 0
M  V30 23 H -1.2656 -2.8524 1.4707 0
M  V30 24 H -3.6627 -0.1638 -1.5624 0
M  V30 END ATOM
M  V30 BEGIN BOND
M  V30 1 2 1 2
M  V30 2 1 2 3
M  V30 3 1 2 4
M  V30 4 1 4 5
M  V30 5 1 5 6
M  V30 6 2 6 7
M  V30 7 1 6 8
M  V30 8 1 7 9
M  V30 9 1 7 10
M  V30 10 2 8 11
M  V30 11 1 8 12
M  V30 12 2 9 13
M  V30 13 1 11 13
M  V30 14 1 4 14
M  V30 15 1 4 15
M  V30 16 1 9 16
M  V30 17 1 10 17
M  V30 18 1 10 18
M  V30 19 1 10 19
M  V30 20 1 11 20
M  V30 21 1 12 21
M  V30 22 1 12 22
M  V30 23 1 12 23
M  V30 24 1 13 24
M  V30 END BOND
M  V30 END CTAB
M  END
>  <Structure No>
118

>  <LogS>
-2.256644531

>  <MMFF94 Energy>
77.595

$$$$
Compound 119
Actelion Java MolfileCreator 2.0

  0  0  0  0  0  0              0 V3000
M  V30 BEGIN CTAB
M  V30 COUNTS 59 63 0 0 0
M  V30 BEGIN ATOM
M  V30 1 S -6.7932 2.5959 -2.1768 0
M  V30 2 O -7.4414 2.2979 -3.5009 0
M  V30 3 O -6.3022 4.0173 -2.1818 0
M  V30 4 O -7.9193 2.4328 -0.9415 0 CHG=-1
M  V30 5 C -5.449 1.4736 -1.9069 0
M  V30 6 C -5.647 0.0798 -1.7145 0
M  V30 7 C -4.1486 1.9934 -1.8812 0
M  V30 8 C -4.5241 -0.7606 -1.4472 0
M  V30 9 C -6.9304 -0.5044 -1.7929 0
M  V30 10 C -3.0567 1.1707 -1.6217 0
M  V30 11 C -3.229 -0.1934 -1.3689 0
M  V30 12 C -4.7235 -2.1506 -1.3024 0
M  V30 13 C -7.1018 -1.8786 -1.6251 0
M  V30 14 N -2.0772 -0.9632 -0.9959 0
M  V30 15 C -6.0033 -2.6987 -1.3832 0
M  V30 16 N -2.0852 -1.7172 0.1928 0
M  V30 17 C -1.0804 -1.9055 1.0034 0
M  V30 18 C 0.1626 -1.225 0.9005 0
M  V30 19 C -1.2826 -2.7977 2.0621 0
M  V30 20 O 0.3375 -0.349 0.0133 0
M  V30 21 C 1.1974 -1.4958 1.8367 0
M  V30 22 C -0.2722 -3.0732 2.9881 0
M  V30 23 N 2.3668 -0.9146 1.787 0
M  V30 24 C 0.9629 -2.4131 2.8786 0
M  V30 25 C -0.5523 -4.0306 4.1233 0
M  V30 26 N 2.7542 0.0107 0.8061 0 CHG=-1
M  V30 27 O 1.8694 -2.6393 3.7268 0
M  V30 28 O -1.1438 -3.3487 5.1955 0
M  V30 29 C 4.0347 0.6566 0.8152 0
M  V30 30 C 4.4024 1.5206 -0.2401 0
M  V30 31 C 4.9265 0.4376 1.8683 0
M  V30 32 C 5.6717 2.169 -0.2232 0
M  V30 33 C 3.5246 1.7495 -1.3161 0
M  V30 34 C 6.1632 1.0775 1.8925 0
M  V30 35 C 6.5475 1.9527 0.8696 0
M  V30 36 C 6.022 3.0085 -1.3023 0
M  V30 37 C 3.8911 2.5945 -2.3635 0
M  V30 38 S 8.1282 2.7438 1.0057 0
M  V30 39 C 5.1366 3.2176 -2.3574 0
M  V30 40 O 7.9713 4.2315 0.8743 0
M  V30 41 O 9.0406 2.231 -0.0698 0
M  V30 42 O 8.8193 2.421 2.5043 0 CHG=-1
M  V30 43 H -3.9728 3.0495 -2.0471 0
M  V30 44 H -7.8127 0.0812 -1.9985 0
M  V30 45 H -2.0671 1.6075 -1.5764 0
M  V30 46 H -3.8953 -2.8286 -1.1553 0
M  V30 47 H -8.0914 -2.3102 -1.6969 0
M  V30 48 H -1.2238 -0.9001 -1.5999 0
M  V30 49 H -6.1417 -3.7687 -1.2662 0
M  V30 50 H -2.2414 -3.2959 2.1619 0
M  V30 51 H 0.3773 -4.548 4.451 0
M  V30 52 H -1.2489 -4.8276 3.7837 0
M  V30 53 H -0.4168 -2.8602 5.6591 0
M  V30 54 H 4.6676 -0.2322 2.6815 0
M  V30 55 H 2.5508 1.2766 -1.3574 0
M  V30 56 H 6.8221 0.881 2.7248 0
M  V30 57 H 6.9774 3.5104 -1.3525 0
M  V30 58 H 3.2079 2.76 -3.1827 0
M  V30 59 H 5.4178 3.8669 -3.176 0
M  V30 END ATOM
M  V30 BEGIN BOND
M  V30 1 2 1 2
M  V30 2 2 1 3
M  V30 3 1 1 4
M  V30 4 1 1 5
M  V30 5 1 5 6
M  V30 6 2 5 7
M  V30 7 1 6 8
M  V30 8 2 6 9
M  V30 9 1 7 10
M  V30 10 1 8 11
M  V30 11 2 8 12
M  V30 12 1 9 13
M  V30 13 1 11 14
M  V30 14 1 12 15
M  V30 15 1 14 16
M  V30 16 2 16 17
M  V30 17 1 17 18
M  V30 18 1 17 19
M  V30 19 2 18 20
M  V30 20 1 18 21
M  V30 21 2 19 22
M  V30 22 2 21 23
M  V30 23 1 21 24
M  V30 24 1 22 25
M  V30 25 1 23 26
M  V30 26 2 24 27
M  V30 27 1 25 28
M  V30 28 1 26 29
M  V30 29 1 29 30
M  V30 30 2 29 31
M  V30 31 1 30 32
M  V30 32 2 30 33
M  V30 33 1 31 34
M  V30 34 1 32 35
M  V30 35 2 32 36
M  V30 36 1 33 37
M  V30 37 1 35 38
M  V30 38 1 36 39
M  V30 39 2 38 40
M  V30 40 2 38 41
M  V30 41 1 38 42
M  V30 42 2 10 11
M  V30 43 2 13 15
M  V30 44 1 22 24
M  V30 45 2 34 35
M  V30 46 2 37 39
M  V30 47 1 7 43
M  V30 48 1 9 44
M  V30 49 1 10 45
M  V30 50 1 12 46
M  V30 51 1 13 47
M  V30 52 1 14 48
M  V30 53 1 15 49
M  V30 54 1 19 50
M  V30 55 1 25 51
M  V30 56 1 25 52
M  V30 57 1 28 53
M  V30 58 1 31 54
M  V30 59 1 33 55
M  V30 60 1 34 56
M  V30 61 1 36 57
M  V30 62 1 37 58
M  V30 63 1 39 59
M  V30 END BOND
M  V30 END CTAB
M  END
>  <Structure No>
119

>  <LogS>
-0.817164744

>  <MMFF94 Energy>
325.9

$$$$
Compound 120
Actelion Java MolfileCreator 2.0

  0  0  0  0  0  0              0 V3000
M  V30 BEGIN CTAB
M  V30 COUNTS 18 18 0 0 0
M  V30 BEGIN ATOM
M  V30 1 O -2.2904 -1.1052 -1.5001 0
M  V30 2 C -1.9173 -0.5273 -0.4429 0
M  V30 3 C -0.4764 -0.2172 -0.2402 0
M  V30 4 C -2.9558 -0.1726 0.5788 0
M  V30 5 C 0.4657 -0.5684 -1.2264 0
M  V30 6 C -0.0222 0.4273 0.9281 0
M  V30 7 C 1.8226 -0.2828 -1.0489 0
M  V30 8 C 1.3358 0.7107 1.1011 0
M  V30 9 C 2.2609 0.3576 0.1158 0
M  V30 10 O 3.6105 0.6469 0.3032 0
M  V30 11 H -2.7337 -0.6875 1.5369 0
M  V30 12 H -2.9686 0.9258 0.738 0
M  V30 13 H -3.9641 -0.489 0.2363 0
M  V30 14 H 0.1553 -1.0645 -2.1374 0
M  V30 15 H -0.7091 0.7157 1.7123 0
M  V30 16 H 2.5322 -0.5602 -1.8178 0
M  V30 17 H 1.6699 1.2063 2.0039 0
M  V30 18 H 4.3056 0.4035 -0.3925 0
M  V30 END ATOM
M  V30 BEGIN BOND
M  V30 1 2 1 2
M  V30 2 1 2 3
M  V30 3 1 2 4
M  V30 4 2 3 5
M  V30 5 1 3 6
M  V30 6 1 5 7
M  V30 7 2 6 8
M  V30 8 2 7 9
M  V30 9 1 9 10
M  V30 10 1 8 9
M  V30 11 1 4 11
M  V30 12 1 4 12
M  V30 13 1 4 13
M  V30 14 1 5 14
M  V30 15 1 6 15
M  V30 16 1 7 16
M  V30 17 1 8 17
M  V30 18 1 10 18
M  V30 END BOND
M  V30 END CTAB
M  END
>  <Structure No>
120

>  <LogS>
-1.138382451

>  <MMFF94 Energy>
23.642

$$$$
Compound 121
Actelion Java MolfileCreator 2.0

  0  0  0  0  0  0              0 V3000
M  V30 BEGIN CTAB
M  V30 COUNTS 57 61 0 0 0
M  V30 BEGIN ATOM
M  V30 1 S 3.0645 2.8987 -0.3309 0
M  V30 2 O 3.8551 4.1663 -0.1635 0
M  V30 3 O 2.0086 2.8429 0.7369 0
M  V30 4 O 2.3346 2.9048 -1.8435 0 CHG=-1
M  V30 5 C 4.1151 1.4816 -0.1955 0
M  V30 6 C 3.5157 0.1231 -0.1671 0
M  V30 7 C 5.4472 1.6424 -0.1486 0
M  V30 8 N 2.2297 0.0083 -0.3525 0
M  V30 9 C 4.4119 -1.0343 0.0974 0
M  V30 10 C 6.3733 0.4932 -0.0419 0
M  V30 11 N 1.5214 -1.2008 -0.457 0
M  V30 12 O 3.9492 -2.1683 0.3947 0
M  V30 13 C 5.8735 -0.8181 0.0819 0
M  V30 14 C 7.7586 0.7115 -0.0472 0
M  V30 15 C 0.0878 -1.1858 -0.3998 0
M  V30 16 C 6.77 -1.8945 0.201 0
M  V30 17 C 8.6428 -0.3632 0.0694 0
M  V30 18 C -0.6169 -0.5459 0.6508 0
M  V30 19 C -0.6256 -1.8185 -1.4222 0
M  V30 20 C 8.1538 -1.6696 0.1943 0
M  V30 21 C -2.0417 -0.4754 0.6037 0
M  V30 22 C 0.0597 -0.0221 1.7729 0
M  V30 23 C -2.0142 -1.7482 -1.4704 0
M  V30 24 N 9.062 -2.768 0.3152 0
M  V30 25 C -2.7304 -1.04 -0.5033 0
M  V30 26 C -2.7314 0.1048 1.6908 0
M  V30 27 C -0.6459 0.5788 2.8137 0
M  V30 28 N -4.1476 -0.9241 -0.6893 0
M  V30 29 C -2.035 0.6397 2.7741 0
M  V30 30 N -4.7705 0.1652 -0.4827 0
M  V30 31 C -6.1876 0.2895 -0.6596 0
M  V30 32 C -7.0937 -0.7783 -0.4237 0
M  V30 33 C -6.6761 1.522 -1.1038 0
M  V30 34 O -6.671 -1.9701 0.1711 0
M  V30 35 C -8.4636 -0.6192 -0.7485 0
M  V30 36 C -8.0294 1.6901 -1.3828 0
M  V30 37 C -9.4405 -1.7269 -0.5798 0
M  V30 38 C -8.9143 0.626 -1.2236 0
M  V30 39 O -10.6731 -1.5168 -0.734 0
M  V30 40 O -9.0202 -3.0139 -0.2677 0 CHG=-1
M  V30 41 H 5.8697 2.6384 -0.1951 0
M  V30 42 H 1.9768 -2.0202 -0.9173 0
M  V30 43 H 8.156 1.7148 -0.14 0
M  V30 44 H 6.3975 -2.907 0.2968 0
M  V30 45 H 9.7093 -0.1779 0.0628 0
M  V30 46 H -0.097 -2.3342 -2.2145 0
M  V30 47 H 1.1323 -0.0998 1.8767 0
M  V30 48 H -2.5375 -2.2105 -2.2984 0
M  V30 49 H 10.0945 -2.6102 0.3183 0
M  V30 50 H 8.7085 -3.7469 0.403 0
M  V30 51 H -3.8095 0.1197 1.7413 0
M  V30 52 H -0.1132 0.9772 3.6677 0
M  V30 53 H -2.5777 1.0836 3.5987 0
M  V30 54 H -5.9955 2.3491 -1.2632 0
M  V30 55 H -5.7852 -2.0744 0.6464 0
M  V30 56 H -8.3921 2.645 -1.741 0
M  V30 57 H -9.9578 0.7826 -1.4679 0
M  V30 END ATOM
M  V30 BEGIN BOND
M  V30 1 2 1 2
M  V30 2 2 1 3
M  V30 3 1 1 4
M  V30 4 1 1 5
M  V30 5 1 5 6
M  V30 6 2 5 7
M  V30 7 2 6 8
M  V30 8 1 6 9
M  V30 9 1 7 10
M  V30 10 1 8 11
M  V30 11 2 9 12
M  V30 12 1 9 13
M  V30 13 1 10 14
M  V30 14 1 11 15
M  V30 15 1 13 16
M  V30 16 2 14 17
M  V30 17 1 15 18
M  V30 18 2 15 19
M  V30 19 2 16 20
M  V30 20 1 18 21
M  V30 21 2 18 22
M  V30 22 1 19 23
M  V30 23 1 20 24
M  V30 24 1 21 25
M  V30 25 2 21 26
M  V30 26 1 22 27
M  V30 27 1 25 28
M  V30 28 1 26 29
M  V30 29 2 28 30
M  V30 30 1 30 31
M  V30 31 2 31 32
M  V30 32 1 31 33
M  V30 33 1 32 34
M  V30 34 1 32 35
M  V30 35 2 33 36
M  V30 36 1 35 37
M  V30 37 2 35 38
M  V30 38 2 37 39
M  V30 39 1 37 40
M  V30 40 2 10 13
M  V30 41 1 17 20
M  V30 42 2 23 25
M  V30 43 2 27 29
M  V30 44 1 36 38
M  V30 45 1 7 41
M  V30 46 1 11 42
M  V30 47 1 14 43
M  V30 48 1 16 44
M  V30 49 1 17 45
M  V30 50 1 19 46
M  V30 51 1 22 47
M  V30 52 1 23 48
M  V30 53 1 24 49
M  V30 54 1 24 50
M  V30 55 1 26 51
M  V30 56 1 27 52
M  V30 57 1 29 53
M  V30 58 1 33 54
M  V30 59 1 34 55
M  V30 60 1 36 56
M  V30 61 1 38 57
M  V30 END BOND
M  V30 END CTAB
M  END
>  <Structure No>
121

>  <LogS>
-2.786820452

>  <MMFF94 Energy>
192.31

$$$$
Compound 122
Actelion Java MolfileCreator 2.0

  0  0  0  0  0  0              0 V3000
M  V30 BEGIN CTAB
M  V30 COUNTS 34 33 0 0 0
M  V30 BEGIN ATOM
M  V30 1 O -3.8046 1.241 1.241 0
M  V30 2 C -4.5178 0.6696 0.3734 0
M  V30 3 C -4.1411 -0.6487 -0.1811 0
M  V30 4 C -5.8296 1.2779 -0.0041 0
M  V30 5 C -2.9019 -1.1619 -0.2184 0
M  V30 6 C -1.6717 -0.4194 0.1449 0
M  V30 7 C -0.4824 -1.0126 0.3656 0
M  V30 8 C 0.7149 -0.1564 0.7073 0
M  V30 9 C -0.318 -2.5105 0.3039 0
M  V30 10 C 1.2676 0.5324 -0.5454 0
M  V30 11 C 2.4971 1.3403 -0.2131 0
M  V30 12 C 3.7569 0.8515 -0.2196 0
M  V30 13 C 4.8855 1.769 0.1744 0
M  V30 14 C 4.0612 -0.5719 -0.6243 0
M  V30 15 H -4.9441 -1.2597 -0.5765 0
M  V30 16 H -6.641 0.8063 0.5884 0
M  V30 17 H -6.027 1.1204 -1.0854 0
M  V30 18 H -5.8207 2.3703 0.1975 0
M  V30 19 H -2.8059 -2.1719 -0.5954 0
M  V30 20 H -1.7166 0.66 0.2013 0
M  V30 21 H 0.4255 0.608 1.4623 0
M  V30 22 H 1.5096 -0.7759 1.1733 0
M  V30 23 H -0.5362 -2.8723 -0.7226 0
M  V30 24 H -1.0065 -2.9982 1.0261 0
M  V30 25 H 0.7185 -2.8179 0.5546 0
M  V30 26 H 1.4808 -0.2142 -1.3395 0
M  V30 27 H 0.498 1.2258 -0.9482 0
M  V30 28 H 2.3371 2.3767 0.0745 0
M  V30 29 H 5.8692 1.2583 0.1208 0
M  V30 30 H 4.7341 2.1234 1.216 0
M  V30 31 H 4.9121 2.6457 -0.5069 0
M  V30 32 H 5.1442 -0.7967 -0.5363 0
M  V30 33 H 3.7663 -0.7358 -1.6817 0
M  V30 34 H 3.515 -1.2842 0.0271 0
M  V30 END ATOM
M  V30 BEGIN BOND
M  V30 1 2 1 2
M  V30 2 1 2 3
M  V30 3 1 2 4
M  V30 4 2 3 5
M  V30 5 1 5 6
M  V30 6 2 6 7
M  V30 7 1 7 8
M  V30 8 1 7 9
M  V30 9 1 8 10
M  V30 10 1 10 11
M  V30 11 2 11 12
M  V30 12 1 12 13
M  V30 13 1 12 14
M  V30 14 1 3 15
M  V30 15 1 4 16
M  V30 16 1 4 17
M  V30 17 1 4 18
M  V30 18 1 5 19
M  V30 19 1 6 20
M  V30 20 1 8 21
M  V30 21 1 8 22
M  V30 22 1 9 23
M  V30 23 1 9 24
M  V30 24 1 9 25
M  V30 25 1 10 26
M  V30 26 1 10 27
M  V30 27 1 11 28
M  V30 28 1 13 29
M  V30 29 1 13 30
M  V30 30 1 13 31
M  V30 31 1 14 32
M  V30 32 1 14 33
M  V30 33 1 14 34
M  V30 END BOND
M  V30 END CTAB
M  END
>  <Structure No>
122

>  <LogS>
-3.297212067

>  <MMFF94 Energy>
33.623

$$$$
Compound 123
Actelion Java MolfileCreator 2.0

  0  0  0  0  0  0              0 V3000
M  V30 BEGIN CTAB
M  V30 COUNTS 20 20 0 0 0
M  V30 BEGIN ATOM
M  V30 1 O -0.1564 1.2522 -2.1922 0
M  V30 2 C -0.0592 0.569 -1.1372 0
M  V30 3 N 1.1655 0.0945 -0.6204 0
M  V30 4 N -1.163 0.1938 -0.3414 0
M  V30 5 C 2.4533 0.3199 -1.215 0
M  V30 6 C 0.8785 -0.6506 0.6039 0
M  V30 7 C -2.5312 0.5324 -0.6177 0
M  V30 8 C -0.6589 -0.5851 0.7882 0
M  V30 9 C 3.5744 -0.1558 -0.6768 0
M  V30 10 C -3.5296 0.1469 0.1744 0
M  V30 11 H 2.521 0.8948 -2.1304 0
M  V30 12 H 1.3939 -0.1762 1.4668 0
M  V30 13 H 1.2121 -1.705 0.4935 0
M  V30 14 H -2.7645 1.12 -1.4971 0
M  V30 15 H -0.9147 -0.0778 1.7435 0
M  V30 16 H -1.0965 -1.6067 0.7702 0
M  V30 17 H 4.5255 0.0361 -1.1559 0
M  V30 18 H 3.5637 -0.7356 0.2361 0
M  V30 19 H -4.5475 0.4227 -0.0687 0
M  V30 20 H -3.3527 -0.4409 1.0649 0
M  V30 END ATOM
M  V30 BEGIN BOND
M  V30 1 2 1 2
M  V30 2 1 2 3
M  V30 3 1 2 4
M  V30 4 1 3 5
M  V30 5 1 3 6
M  V30 6 1 4 7
M  V30 7 1 4 8
M  V30 8 2 5 9
M  V30 9 2 7 10
M  V30 10 1 6 8
M  V30 11 1 5 11
M  V30 12 1 6 12
M  V30 13 1 6 13
M  V30 14 1 7 14
M  V30 15 1 8 15
M  V30 16 1 8 16
M  V30 17 1 9 17
M  V30 18 1 9 18
M  V30 19 1 10 19
M  V30 20 1 10 20
M  V30 END BOND
M  V30 END CTAB
M  END
>  <Structure No>
123

>  <LogS>
-1.155886444

>  <MMFF94 Energy>
9.6947

$$$$
Compound 124
Actelion Java MolfileCreator 2.0

  0  0  0  0  0  0              0 V3000
M  V30 BEGIN CTAB
M  V30 COUNTS 17 17 0 0 0
M  V30 BEGIN ATOM
M  V30 1 O 3.6688 0.6373 0.4779 0
M  V30 2 N 2.7442 -0.1697 0.7081 0 CHG=1
M  V30 3 O 3.0284 -1.3199 1.4082 0 CHG=-1
M  V30 4 C 1.4054 0.0969 0.2503 0
M  V30 5 C 0.3691 -0.8147 0.512 0
M  V30 6 C 1.1133 1.2697 -0.4639 0
M  V30 7 C -0.9427 -0.5697 0.0721 0
M  V30 8 C -0.1856 1.5238 -0.9051 0
M  V30 9 N -1.9585 -1.5389 0.3681 0
M  V30 10 C -1.2202 0.6189 -0.6462 0
M  V30 11 O -2.4951 0.9413 -1.1175 0
M  V30 12 H 0.5785 -1.7239 1.0613 0
M  V30 13 H 1.8895 1.992 -0.6817 0
M  V30 14 H -0.3914 2.4342 -1.4542 0
M  V30 15 H -2.9507 -1.4364 0.0706 0
M  V30 16 H -1.7197 -2.403 0.9043 0
M  V30 17 H -3.3127 0.3647 -0.9839 0
M  V30 END ATOM
M  V30 BEGIN BOND
M  V30 1 2 1 2
M  V30 2 1 2 3
M  V30 3 1 2 4
M  V30 4 2 4 5
M  V30 5 1 4 6
M  V30 6 1 5 7
M  V30 7 2 6 8
M  V30 8 1 7 9
M  V30 9 2 7 10
M  V30 10 1 10 11
M  V30 11 1 8 10
M  V30 12 1 5 12
M  V30 13 1 6 13
M  V30 14 1 8 14
M  V30 15 1 9 15
M  V30 16 1 9 16
M  V30 17 1 11 17
M  V30 END BOND
M  V30 END CTAB
M  END
>  <Structure No>
124

>  <LogS>
-2.205601857

>  <MMFF94 Energy>
40.583

$$$$
Compound 125
Actelion Java MolfileCreator 2.0

  0  0  0  0  0  0              0 V3000
M  V30 BEGIN CTAB
M  V30 COUNTS 18 19 0 0 0
M  V30 BEGIN ATOM
M  V30 1 O -3.3821 1.6094 0.6435 0
M  V30 2 N -3.0794 0.4486 0.2975 0 CHG=1
M  V30 3 O -4.0825 -0.4809 0.1457 0 CHG=-1
M  V30 4 C -1.7067 0.0883 0.0614 0
M  V30 5 C -0.6756 1.0479 0.2186 0
M  V30 6 C -1.3723 -1.2373 -0.3325 0
M  V30 7 C 0.6345 0.6443 -0.0229 0
M  V30 8 C -0.0345 -1.606 -0.5675 0
M  V30 9 N 1.7597 1.3736 0.062 0
M  V30 10 C 0.9425 -0.6308 -0.4007 0
M  V30 11 C 2.7334 0.4945 -0.2748 0
M  V30 12 N 2.2709 -0.7448 -0.5652 0
M  V30 13 O 3.9542 0.8009 -0.3144 0
M  V30 14 H -0.886 2.0669 0.5168 0
M  V30 15 H -2.1452 -1.984 -0.4578 0
M  V30 16 H 0.2238 -2.6134 -0.8673 0
M  V30 17 H 1.86 2.3793 0.3254 0
M  V30 18 H 2.8171 -1.5883 -0.8496 0
M  V30 END ATOM
M  V30 BEGIN BOND
M  V30 1 2 1 2
M  V30 2 1 2 3
M  V30 3 1 2 4
M  V30 4 2 4 5
M  V30 5 1 4 6
M  V30 6 1 5 7
M  V30 7 2 6 8
M  V30 8 1 7 9
M  V30 9 2 7 10
M  V30 10 1 9 11
M  V30 11 1 10 12
M  V30 12 2 11 13
M  V30 13 1 8 10
M  V30 14 1 11 12
M  V30 15 1 5 14
M  V30 16 1 6 15
M  V30 17 1 8 16
M  V30 18 1 9 17
M  V30 19 1 12 18
M  V30 END BOND
M  V30 END CTAB
M  END
>  <Structure No>
125

>  <LogS>
-3.274087547

>  <MMFF94 Energy>
-4.6547

$$$$
Compound 126
Actelion Java MolfileCreator 2.0

  0  0  0  0  0  0              0 V3000
M  V30 BEGIN CTAB
M  V30 COUNTS 32 33 0 0 0
M  V30 BEGIN ATOM
M  V30 1 S -1.0824 -0.8325 -1.999 0
M  V30 2 O -1.3689 0.1474 -3.1026 0
M  V30 3 O -1.573 -2.1875 -2.4288 0
M  V30 4 C 0.6481 -0.9196 -1.6884 0
M  V30 5 C -1.9113 -0.3241 -0.5323 0
M  V30 6 C 1.4909 0.1357 -2.0627 0
M  V30 7 C 1.1841 -2.0321 -1.0267 0
M  V30 8 C -2.9084 -1.2049 0.0208 0
M  V30 9 C -1.6209 0.8754 -0.0024 0
M  V30 10 C 2.8612 0.071 -1.793 0
M  V30 11 C 2.5543 -2.0978 -0.7567 0
M  V30 12 N -3.7081 -1.919 0.4568 0
M  V30 13 N -2.2133 1.3981 1.2037 0
M  V30 14 C 3.4041 -1.0538 -1.1532 0
M  V30 15 C -2.1026 2.7659 1.6087 0
M  V30 16 C -2.5783 0.618 2.3916 0
M  V30 17 C 4.8672 -1.1051 -0.8271 0
M  V30 18 S -1.7886 4.0089 0.5884 0
M  V30 19 N -2.3802 2.9563 2.9824 0
M  V30 20 C -2.6571 1.6537 3.4653 0
M  V30 21 O -2.9426 1.413 4.6675 0
M  V30 22 H 1.0885 1.012 -2.5546 0
M  V30 23 H 0.5402 -2.8441 -0.7132 0
M  V30 24 H -0.9079 1.5002 -0.527 0
M  V30 25 H 3.498 0.8984 -2.081 0
M  V30 26 H 2.9515 -2.9612 -0.2373 0
M  V30 27 H -1.7913 -0.1291 2.6298 0
M  V30 28 H -3.5737 0.1462 2.2609 0
M  V30 29 H 5.4571 -0.5467 -1.5849 0
M  V30 30 H 5.0388 -0.6518 0.1714 0
M  V30 31 H 5.2293 -2.1551 -0.8158 0
M  V30 32 H -2.3839 3.8517 3.5197 0
M  V30 END ATOM
M  V30 BEGIN BOND
M  V30 1 2 1 2
M  V30 2 2 1 3
M  V30 3 1 1 4
M  V30 4 1 1 5
M  V30 5 2 4 6
M  V30 6 1 4 7
M  V30 7 1 5 8
M  V30 8 2 5 9
M  V30 9 1 6 10
M  V30 10 2 7 11
M  V30 11 3 8 12
M  V30 12 1 9 13
M  V30 13 2 10 14
M  V30 14 1 13 15
M  V30 15 1 13 16
M  V30 16 1 14 17
M  V30 17 2 15 18
M  V30 18 1 15 19
M  V30 19 1 16 20
M  V30 20 2 20 21
M  V30 21 1 11 14
M  V30 22 1 19 20
M  V30 23 1 6 22
M  V30 24 1 7 23
M  V30 25 1 9 24
M  V30 26 1 10 25
M  V30 27 1 11 26
M  V30 28 1 16 27
M  V30 29 1 16 28
M  V30 30 1 17 29
M  V30 31 1 17 30
M  V30 32 1 17 31
M  V30 33 1 19 32
M  V30 END BOND
M  V30 END CTAB
M  END
>  <Structure No>
126

>  <LogS>
-3.529299295

>  <MMFF94 Energy>
22.445

$$$$
Compound 127
Actelion Java MolfileCreator 2.0

  0  0  0  0  0  0              0 V3000
M  V30 BEGIN CTAB
M  V30 COUNTS 18 18 0 0 0
M  V30 BEGIN ATOM
M  V30 1 O -2.5223 1.8912 0.6301 0
M  V30 2 C -1.8803 0.8569 0.3051 0
M  V30 3 C -0.5186 0.9323 -0.0223 0
M  V30 4 C -2.527 -0.3781 0.2707 0
M  V30 5 O 0.1667 2.1488 0.0067 0
M  V30 6 C 0.1511 -0.2524 -0.3819 0
M  V30 7 C -1.796 -1.5106 -0.0883 0
M  V30 8 O -0.5063 -1.411 -0.3946 0
M  V30 9 C 1.6131 -0.2475 -0.728 0
M  V30 10 C 2.4668 -0.3384 0.532 0
M  V30 11 H -3.5777 -0.4627 0.5198 0
M  V30 12 H -0.2879 3.0171 0.2632 0
M  V30 13 H -2.2799 -2.4777 -0.1179 0
M  V30 14 H 1.8758 0.673 -1.2928 0
M  V30 15 H 1.8391 -1.1169 -1.3824 0
M  V30 16 H 2.233 -1.2709 1.0892 0
M  V30 17 H 2.281 0.5375 1.1896 0
M  V30 18 H 3.5414 -0.3506 0.2527 0
M  V30 END ATOM
M  V30 BEGIN BOND
M  V30 1 2 1 2
M  V30 2 1 2 3
M  V30 3 1 2 4
M  V30 4 1 3 5
M  V30 5 2 3 6
M  V30 6 2 4 7
M  V30 7 1 6 8
M  V30 8 1 6 9
M  V30 9 1 9 10
M  V30 10 1 7 8
M  V30 11 1 4 11
M  V30 12 1 5 12
M  V30 13 1 7 13
M  V30 14 1 9 14
M  V30 15 1 9 15
M  V30 16 1 10 16
M  V30 17 1 10 17
M  V30 18 1 10 18
M  V30 END BOND
M  V30 END CTAB
M  END
>  <Structure No>
127

>  <LogS>
-1.17595802

>  <MMFF94 Energy>
31.672

$$$$
Compound 128
Actelion Java MolfileCreator 2.0

  0  0  0  0  0  0              0 V3000
M  V30 BEGIN CTAB
M  V30 COUNTS 21 21 0 0 0
M  V30 BEGIN ATOM
M  V30 1 O -1.8906 -1.0237 -1.5753 0
M  V30 2 C -1.5687 -0.9527 -0.3576 0
M  V30 3 O -2.3784 -0.2723 0.5563 0
M  V30 4 C -0.2842 -1.5588 0.1076 0
M  V30 5 C -3.5969 0.3568 0.1793 0
M  V30 6 C 0.8114 -0.5301 0.0748 0
M  V30 7 C 1.0367 0.3015 1.185 0
M  V30 8 C 1.5834 -0.353 -1.0857 0
M  V30 9 C 2.035 1.2796 1.141 0
M  V30 10 C 2.5808 0.6262 -1.1252 0
M  V30 11 C 2.8078 1.4406 -0.0121 0
M  V30 12 H -0.4145 -1.9487 1.1403 0
M  V30 13 H -0.0202 -2.4254 -0.5371 0
M  V30 14 H -4.3012 -0.3953 -0.2347 0
M  V30 15 H -3.3994 1.144 -0.5788 0
M  V30 16 H -4.0566 0.8262 1.0732 0
M  V30 17 H 0.4386 0.1931 2.0815 0
M  V30 18 H 1.4116 -0.9714 -1.958 0
M  V30 19 H 2.2073 1.9153 2.0001 0
M  V30 20 H 3.1757 0.7561 -2.02 0
M  V30 21 H 3.5793 2.1991 -0.045 0
M  V30 END ATOM
M  V30 BEGIN BOND
M  V30 1 2 1 2
M  V30 2 1 2 3
M  V30 3 1 2 4
M  V30 4 1 3 5
M  V30 5 1 4 6
M  V30 6 2 6 7
M  V30 7 1 6 8
M  V30 8 1 7 9
M  V30 9 2 8 10
M  V30 10 2 9 11
M  V30 11 1 10 11
M  V30 12 1 4 12
M  V30 13 1 4 13
M  V30 14 1 5 14
M  V30 15 1 5 15
M  V30 16 1 5 16
M  V30 17 1 7 17
M  V30 18 1 8 18
M  V30 19 1 9 19
M  V30 20 1 10 20
M  V30 21 1 11 21
M  V30 END BOND
M  V30 END CTAB
M  END
>  <Structure No>
128

>  <LogS>
-2.211401723

>  <MMFF94 Energy>
29.048

$$$$
Compound 129
Actelion Java MolfileCreator 2.0

  0  0  0  0  0  0              0 V3000
M  V30 BEGIN CTAB
M  V30 COUNTS 5 4 0 0 0
M  V30 BEGIN ATOM
M  V30 1 S 0.0 0.0 0.0 0
M  V30 2 O -0.1218 -0.8417 1.2382 0
M  V30 3 O 0.0299 -0.89 -1.2097 0
M  V30 4 O 1.418 0.8971 0.0702 0 CHG=-1
M  V30 5 O -1.3153 1.0393 -0.102 0 CHG=-1
M  V30 END ATOM
M  V30 BEGIN BOND
M  V30 1 2 1 2
M  V30 2 2 1 3
M  V30 3 1 1 4
M  V30 4 1 1 5
M  V30 END BOND
M  V30 END CTAB
M  END
>  <Structure No>
129

>  <LogS>
-4.226296416

>  <MMFF94 Energy>
27.585

$$$$
Compound 130
Actelion Java MolfileCreator 2.0

  0  0  0  0  0  0              0 V3000
M  V30 BEGIN CTAB
M  V30 COUNTS 17 17 0 0 0
M  V30 BEGIN ATOM
M  V30 1 Cl 0.5749 3.1242 -0.4928 0
M  V30 2 C -0.1714 1.554 -0.2053 0
M  V30 3 C 0.5911 0.4019 0.1035 0
M  V30 4 C -1.5638 1.4706 -0.2992 0
M  V30 5 C -0.0713 -0.8465 0.2468 0
M  V30 6 C 2.0885 0.5046 0.2659 0
M  V30 7 C -2.2124 0.2545 -0.102 0
M  V30 8 N 0.6584 -2.068 0.4592 0 CHG=1
M  V30 9 C -1.4737 -0.8961 0.1653 0
M  V30 10 O 0.1593 -2.9848 1.1443 0
M  V30 11 O 1.8087 -2.3232 -0.2509 0 CHG=-1
M  V30 12 H -2.1478 2.3538 -0.5263 0
M  V30 13 H 2.3939 1.5068 0.6291 0
M  V30 14 H 2.4549 -0.2162 1.026 0
M  V30 15 H 2.5841 0.3055 -0.7069 0
M  V30 16 H -3.2911 0.1998 -0.174 0
M  V30 17 H -1.996 -1.8371 0.2834 0
M  V30 END ATOM
M  V30 BEGIN BOND
M  V30 1 1 1 2
M  V30 2 2 2 3
M  V30 3 1 2 4
M  V30 4 1 3 5
M  V30 5 1 3 6
M  V30 6 2 4 7
M  V30 7 1 5 8
M  V30 8 2 5 9
M  V30 9 2 8 10
M  V30 10 1 8 11
M  V30 11 1 7 9
M  V30 12 1 4 12
M  V30 13 1 6 13
M  V30 14 1 6 14
M  V30 15 1 6 15
M  V30 16 1 7 16
M  V30 17 1 9 17
M  V30 END BOND
M  V30 END CTAB
M  END
>  <Structure No>
130

>  <LogS>
-3.27068643

>  <MMFF94 Energy>
45.695

$$$$
Compound 131
Actelion Java MolfileCreator 2.0

  0  0  0  0  0  0              0 V3000
M  V30 BEGIN CTAB
M  V30 COUNTS 20 19 0 0 0
M  V30 BEGIN ATOM
M  V30 1 Cl -2.4397 2.3609 -0.5505 0
M  V30 2 C -2.746 0.6436 -0.1739 0
M  V30 3 C -1.4517 -0.0837 0.1984 0
M  V30 4 C -0.5073 -0.2298 -1.0063 0
M  V30 5 C 0.7029 -1.1338 -0.7108 0
M  V30 6 C 1.6411 -0.6158 0.3938 0
M  V30 7 C 2.2805 0.7299 0.0535 0
M  V30 8 H -3.2316 0.1545 -1.0451 0
M  V30 9 H -3.4489 0.5985 0.6847 0
M  V30 10 H -0.9503 0.478 1.0149 0
M  V30 11 H -1.7154 -1.0933 0.5822 0
M  V30 12 H -0.1625 0.7679 -1.3494 0
M  V30 13 H -1.0696 -0.6874 -1.8496 0
M  V30 14 H 0.3372 -2.143 -0.4209 0
M  V30 15 H 1.2877 -1.2594 -1.6482 0
M  V30 16 H 2.4544 -1.3609 0.532 0
M  V30 17 H 1.1031 -0.5414 1.3621 0
M  V30 18 H 2.7565 0.6924 -0.9492 0
M  V30 19 H 3.0604 0.9687 0.8068 0
M  V30 20 H 1.5224 1.5401 0.0759 0
M  V30 END ATOM
M  V30 BEGIN BOND
M  V30 1 1 1 2
M  V30 2 1 2 3
M  V30 3 1 3 4
M  V30 4 1 4 5
M  V30 5 1 5 6
M  V30 6 1 6 7
M  V30 7 1 2 8
M  V30 8 1 2 9
M  V30 9 1 3 10
M  V30 10 1 3 11
M  V30 11 1 4 12
M  V30 12 1 4 13
M  V30 13 1 5 14
M  V30 14 1 5 15
M  V30 15 1 6 16
M  V30 16 1 6 17
M  V30 17 1 7 18
M  V30 18 1 7 19
M  V30 19 1 7 20
M  V30 END BOND
M  V30 END CTAB
M  END
>  <Structure No>
131

>  <LogS>
-3.122388733

>  <MMFF94 Energy>
-2.973

$$$$
Compound 132
Actelion Java MolfileCreator 2.0

  0  0  0  0  0  0              0 V3000
M  V30 BEGIN CTAB
M  V30 COUNTS 18 17 0 0 0
M  V30 BEGIN ATOM
M  V30 1 F 3.2101 -0.6413 -1.2028 0
M  V30 2 C 3.2267 -0.1769 0.1 0
M  V30 3 F 3.1979 -1.2532 0.9684 0
M  V30 4 F 4.3888 0.5427 0.3094 0
M  V30 5 C 2.0198 0.7188 0.3457 0
M  V30 6 O 0.8207 -0.0191 0.1308 0
M  V30 7 C -0.4518 0.5437 0.2819 0
M  V30 8 O -0.5711 1.7532 0.6216 0
M  V30 9 C -1.6606 -0.2756 0.0426 0
M  V30 10 C -1.5514 -1.5355 -0.3931 0
M  V30 11 C -3.0232 0.3386 0.2169 0
M  V30 12 H 2.0456 1.0937 1.3922 0
M  V30 13 H 2.0555 1.5849 -0.3504 0
M  V30 14 H -2.4316 -2.1316 -0.6007 0
M  V30 15 H -0.5854 -1.997 -0.5538 0
M  V30 16 H -3.2647 0.9592 -0.6712 0
M  V30 17 H -3.0421 0.9801 1.123 0
M  V30 18 H -3.8096 -0.4376 0.3378 0
M  V30 END ATOM
M  V30 BEGIN BOND
M  V30 1 1 1 2
M  V30 2 1 2 3
M  V30 3 1 2 4
M  V30 4 1 2 5
M  V30 5 1 5 6
M  V30 6 1 6 7
M  V30 7 2 7 8
M  V30 8 1 7 9
M  V30 9 2 9 10
M  V30 10 1 9 11
M  V30 11 1 5 12
M  V30 12 1 5 13
M  V30 13 1 10 14
M  V30 14 1 10 15
M  V30 15 1 11 16
M  V30 16 1 11 17
M  V30 17 1 11 18
M  V30 END BOND
M  V30 END CTAB
M  END
>  <Structure No>
132

>  <LogS>
-2.268475684

>  <MMFF94 Energy>
26.86

$$$$
Compound 133
Actelion Java MolfileCreator 2.0

  0  0  0  0  0  0              0 V3000
M  V30 BEGIN CTAB
M  V30 COUNTS 25 24 0 0 0
M  V30 BEGIN ATOM
M  V30 1 O 3.5606 -1.0826 0.0772 0
M  V30 2 C 3.0667 0.0236 -0.0811 0
M  V30 3 C 1.5821 0.2051 0.0985 0
M  V30 4 C 3.9576 1.1758 -0.4407 0
M  V30 5 C 0.8096 -0.5345 -1.0027 0
M  V30 6 C -0.7027 -0.2669 -0.9461 0
M  V30 7 C -1.3703 -0.908 0.2831 0
M  V30 8 C -2.9044 -0.8618 0.2106 0
M  V30 9 C -3.4596 0.5551 0.3531 0
M  V30 10 H 1.3002 -0.1901 1.0973 0
M  V30 11 H 1.3194 1.2848 0.0733 0
M  V30 12 H 4.7106 1.327 0.3609 0
M  V30 13 H 3.3781 2.1142 -0.5662 0
M  V30 14 H 4.4819 0.9549 -1.394 0
M  V30 15 H 1.0004 -1.6281 -0.9324 0
M  V30 16 H 1.1823 -0.1907 -1.9928 0
M  V30 17 H -0.8822 0.8296 -0.9518 0
M  V30 18 H -1.1592 -0.6896 -1.8678 0
M  V30 19 H -1.0325 -0.4006 1.212 0
M  V30 20 H -1.0631 -1.9747 0.3479 0
M  V30 21 H -3.314 -1.4813 1.0378 0
M  V30 22 H -3.2565 -1.3052 -0.7461 0
M  V30 23 H -3.1793 1.1767 -0.5222 0
M  V30 24 H -3.0788 1.0304 1.2822 0
M  V30 25 H -4.568 0.5134 0.4067 0
M  V30 END ATOM
M  V30 BEGIN BOND
M  V30 1 2 1 2
M  V30 2 1 2 3
M  V30 3 1 2 4
M  V30 4 1 3 5
M  V30 5 1 5 6
M  V30 6 1 6 7
M  V30 7 1 7 8
M  V30 8 1 8 9
M  V30 9 1 3 10
M  V30 10 1 3 11
M  V30 11 1 4 12
M  V30 12 1 4 13
M  V30 13 1 4 14
M  V30 14 1 5 15
M  V30 15 1 5 16
M  V30 16 1 6 17
M  V30 17 1 6 18
M  V30 18 1 7 19
M  V30 19 1 7 20
M  V30 20 1 8 21
M  V30 21 1 8 22
M  V30 22 1 9 23
M  V30 23 1 9 24
M  V30 24 1 9 25
M  V30 END BOND
M  V30 END CTAB
M  END
>  <Structure No>
133

>  <LogS>
-2.153696327

>  <MMFF94 Energy>
1.1894

$$$$
Compound 134
Actelion Java MolfileCreator 2.0

  0  0  0  0  0  0              0 V3000
M  V30 BEGIN CTAB
M  V30 COUNTS 34 33 0 0 0
M  V30 BEGIN ATOM
M  V30 1 O -1.2686 2.6972 0.1585 0
M  V30 2 C -2.0089 2.0123 -0.5957 0
M  V30 3 O -3.0863 2.6184 -1.2318 0 CHG=-1
M  V30 4 C -1.7221 0.5496 -0.8115 0 CFG=1
M  V30 5 C -2.9205 -0.3138 -0.3637 0
M  V30 6 C -1.373 0.3114 -2.2967 0
M  V30 7 C -3.168 -0.1873 1.1093 0
M  V30 8 C -0.8945 -1.0956 -2.5727 0
M  V30 9 O -2.4557 -0.8264 1.9279 0
M  V30 10 O -4.1571 0.6677 1.5788 0 CHG=-1
M  V30 11 C 0.3168 -1.584 -2.2426 0
M  V30 12 C 1.3854 -0.8266 -1.4943 0
M  V30 13 C 1.5666 -1.419 -0.0893 0
M  V30 14 C 2.5366 -0.5984 0.7751 0
M  V30 15 C 1.8868 0.678 1.3323 0
M  V30 16 C 2.8428 1.4207 2.2608 0
M  V30 17 H -0.8464 0.2754 -0.188 0
M  V30 18 H -3.8373 -0.0207 -0.9207 0
M  V30 19 H -2.7225 -1.3839 -0.5886 0
M  V30 20 H -0.6054 1.0373 -2.6423 0
M  V30 21 H -2.2797 0.4965 -2.9139 0
M  V30 22 H -1.5713 -1.7505 -3.1143 0
M  V30 23 H 0.5348 -2.6156 -2.5043 0
M  V30 24 H 2.3391 -0.9272 -2.0554 0
M  V30 25 H 1.1602 0.2549 -1.4408 0
M  V30 26 H 0.5861 -1.5084 0.4278 0
M  V30 27 H 1.9754 -2.4482 -0.1937 0
M  V30 28 H 3.4439 -0.3396 0.1859 0
M  V30 29 H 2.8591 -1.2343 1.6288 0
M  V30 30 H 0.968 0.4156 1.901 0
M  V30 31 H 1.6025 1.3603 0.5042 0
M  V30 32 H 3.7632 1.7138 1.7122 0
M  V30 33 H 2.3501 2.3392 2.6443 0
M  V30 34 H 3.1188 0.7792 3.1249 0
M  V30 END ATOM
M  V30 BEGIN BOND
M  V30 1 2 1 2
M  V30 2 1 2 3
M  V30 3 1 2 4
M  V30 4 1 4 5
M  V30 5 1 4 6
M  V30 6 1 5 7
M  V30 7 1 6 8
M  V30 8 2 7 9
M  V30 9 1 7 10
M  V30 10 2 8 11
M  V30 11 1 11 12
M  V30 12 1 12 13
M  V30 13 1 13 14
M  V30 14 1 14 15
M  V30 15 1 15 16
M  V30 16 1 4 17
M  V30 17 1 5 18
M  V30 18 1 5 19
M  V30 19 1 6 20
M  V30 20 1 6 21
M  V30 21 1 8 22
M  V30 22 1 11 23
M  V30 23 1 12 24
M  V30 24 1 12 25
M  V30 25 1 13 26
M  V30 26 1 13 27
M  V30 27 1 14 28
M  V30 28 1 14 29
M  V30 29 1 15 30
M  V30 30 1 15 31
M  V30 31 1 16 32
M  V30 32 1 16 33
M  V30 33 1 16 34
M  V30 END BOND
M  V30 BEGIN COLLECTION
M  V30 MDLV30/STEABS ATOMS=(1 4)
M  V30 END COLLECTION
M  V30 END CTAB
M  END
>  <Structure No>
134

>  <LogS>
-2.404240574

>  <MMFF94 Energy>
68.326

$$$$
Compound 135
Actelion Java MolfileCreator 2.0

  0  0  0  0  0  0              0 V3000
M  V30 BEGIN CTAB
M  V30 COUNTS 46 45 0 0 0
M  V30 BEGIN ATOM
M  V30 1 O -1.8267 -1.8267 -1.8267 0
M  V30 2 C -1.7285 -1.7542 -0.5709 0
M  V30 3 O -2.2411 -2.8024 0.1877 0 CHG=-1
M  V30 4 C -0.993 -0.5773 0.0914 0 CFG=1
M  V30 5 C -1.6267 -0.3753 1.4888 0
M  V30 6 C 0.5751 -0.9462 0.2411 0
M  V30 7 C -1.2378 0.6967 -0.7967 0
M  V30 8 C -1.6748 0.7856 2.1712 0
M  V30 9 C 0.6768 -2.0981 1.2514 0
M  V30 10 C 1.4309 0.2631 0.8025 0
M  V30 11 C 1.1989 -1.4507 -1.1167 0
M  V30 12 C -2.7252 1.0642 -1.0066 0
M  V30 13 C -2.269 0.841 3.545 0
M  V30 14 O 0.8459 -1.8663 2.4796 0
M  V30 15 O 0.4901 -3.4157 0.8453 0 CHG=-1
M  V30 16 C 1.9908 1.2912 -0.2158 0
M  V30 17 C 2.6454 -1.9908 -1.0122 0
M  V30 18 C -2.862 2.3434 -1.8284 0
M  V30 19 C 2.3504 2.6069 0.4697 0
M  V30 20 C 3.2442 -2.228 -2.396 0
M  V30 21 H -2.0046 -1.2506 2.0106 0
M  V30 22 H -0.7796 0.5506 -1.7975 0
M  V30 23 H -0.7495 1.5793 -0.345 0
M  V30 24 H -1.2897 1.7089 1.7572 0
M  V30 25 H 0.8572 0.7945 1.5831 0
M  V30 26 H 2.3205 -0.1329 1.3415 0
M  V30 27 H 0.5975 -2.2832 -1.5338 0
M  V30 28 H 1.166 -0.6447 -1.8768 0
M  V30 29 H -3.26 0.2528 -1.5415 0
M  V30 30 H -3.2321 1.2218 -0.0323 0
M  V30 31 H -3.3337 0.5271 3.5096 0
M  V30 32 H -2.2135 1.8781 3.9372 0
M  V30 33 H -1.7069 0.1689 4.2277 0
M  V30 34 H 2.9128 0.8957 -0.6881 0
M  V30 35 H 1.2918 1.5108 -1.0409 0
M  V30 36 H 2.6528 -2.9562 -0.4642 0
M  V30 37 H 3.3073 -1.2964 -0.4606 0
M  V30 38 H -2.3917 2.213 -2.8262 0
M  V30 39 H -2.3778 3.1938 -1.3026 0
M  V30 40 H -3.9373 2.5813 -1.9712 0
M  V30 41 H 1.4394 3.0789 0.8961 0
M  V30 42 H 2.7966 3.3043 -0.2702 0
M  V30 43 H 3.0873 2.4294 1.2818 0
M  V30 44 H 3.3068 -1.2713 -2.9571 0
M  V30 45 H 4.268 -2.6453 -2.2924 0
M  V30 46 H 2.6221 -2.9493 -2.9675 0
M  V30 END ATOM
M  V30 BEGIN BOND
M  V30 1 2 1 2
M  V30 2 1 2 3
M  V30 3 1 2 4
M  V30 4 1 4 5
M  V30 5 1 4 6
M  V30 6 1 4 7
M  V30 7 2 5 8
M  V30 8 1 6 9
M  V30 9 1 6 10
M  V30 10 1 6 11
M  V30 11 1 7 12
M  V30 12 1 8 13
M  V30 13 2 9 14
M  V30 14 1 9 15
M  V30 15 1 10 16
M  V30 16 1 11 17
M  V30 17 1 12 18
M  V30 18 1 16 19
M  V30 19 1 17 20
M  V30 20 1 5 21
M  V30 21 1 7 22
M  V30 22 1 7 23
M  V30 23 1 8 24
M  V30 24 1 10 25
M  V30 25 1 10 26
M  V30 26 1 11 27
M  V30 27 1 11 28
M  V30 28 1 12 29
M  V30 29 1 12 30
M  V30 30 1 13 31
M  V30 31 1 13 32
M  V30 32 1 13 33
M  V30 33 1 16 34
M  V30 34 1 16 35
M  V30 35 1 17 36
M  V30 36 1 17 37
M  V30 37 1 18 38
M  V30 38 1 18 39
M  V30 39 1 18 40
M  V30 40 1 19 41
M  V30 41 1 19 42
M  V30 42 1 19 43
M  V30 43 1 20 44
M  V30 44 1 20 45
M  V30 45 1 20 46
M  V30 END BOND
M  V30 BEGIN COLLECTION
M  V30 MDLV30/STEABS ATOMS=(1 4)
M  V30 END COLLECTION
M  V30 END CTAB
M  END
>  <Structure No>
135

>  <LogS>
-3.495359601

>  <MMFF94 Energy>
143.06

$$$$
Compound 136
Actelion Java MolfileCreator 2.0

  0  0  0  0  0  0              0 V3000
M  V30 BEGIN CTAB
M  V30 COUNTS 52 55 0 0 0
M  V30 BEGIN ATOM
M  V30 1 O -3.0764 3.7249 1.0516 0
M  V30 2 C -2.7378 2.5878 0.6291 0
M  V30 3 C -2.372 2.4092 -0.7772 0
M  V30 4 C -2.6201 1.4427 1.5742 0
M  V30 5 C -2.0534 1.2033 -1.29 0
M  V30 6 C -2.9826 0.1442 0.8397 0 CFG=1
M  V30 7 C -2.0938 -0.1042 -0.4602 0 CFG=2
M  V30 8 C -1.2725 1.1837 -2.5839 0
M  V30 9 C -3.1685 -1.0152 1.8434 0
M  V30 10 C -0.5794 -0.6155 -0.2759 0 CFG=1
M  V30 11 C -2.8545 -1.1546 -1.3239 0
M  V30 12 C 0.1717 0.6971 -2.3406 0
M  V30 13 C 0.4813 0.3975 -0.8489 0 CFG=2
M  V30 14 C -0.1859 -1.1647 1.1293 0
M  V30 15 C 1.896 -0.2014 -0.7035 0 CFG=2
M  V30 16 C 1.2882 -1.6212 1.2379 0
M  V30 17 C 2.2555 -0.5196 0.749 0 CFG=1
M  V30 18 C 3.0836 0.592 -1.2301 0
M  V30 19 C 3.74 -0.9306 0.6147 0 CFG=2
M  V30 20 C 2.1886 0.7113 1.7076 0
M  V30 21 C 4.2935 -0.0052 -0.4917 0
M  V30 22 O 3.87 -2.2694 0.2039 0
M  V30 23 H -2.2748 3.3035 -1.3818 0
M  V30 24 H -1.586 1.4153 1.968 0
M  V30 25 H -3.315 1.6009 2.4287 0
M  V30 26 H -4.0176 0.3226 0.4601 0
M  V30 27 H -1.7771 0.5262 -3.3209 0
M  V30 28 H -1.2423 2.1882 -3.0621 0
M  V30 29 H -3.1625 -2.0082 1.3578 0
M  V30 30 H -2.4132 -0.9938 2.6537 0
M  V30 31 H -4.1535 -0.9087 2.3477 0
M  V30 32 H -0.458 -1.514 -0.9246 0
M  V30 33 H -3.8811 -0.8067 -1.5701 0
M  V30 34 H -2.3328 -1.363 -2.2802 0
M  V30 35 H -2.9267 -2.1311 -0.807 0
M  V30 36 H 0.3469 -0.2184 -2.9477 0
M  V30 37 H 0.8756 1.4744 -2.7099 0
M  V30 38 H 0.4248 1.3578 -0.2939 0
M  V30 39 H -0.8015 -2.0609 1.3477 0
M  V30 40 H -0.3731 -0.4149 1.9149 0
M  V30 41 H 1.8966 -1.1578 -1.2824 0
M  V30 42 H 1.4081 -2.5452 0.6308 0
M  V30 43 H 1.5177 -1.8881 2.2926 0
M  V30 44 H 2.9718 1.6719 -0.9898 0
M  V30 45 H 3.1897 0.4729 -2.3304 0
M  V30 46 H 4.3085 -0.7683 1.5623 0
M  V30 47 H 1.1807 1.1611 1.7763 0
M  V30 48 H 2.8842 1.517 1.3937 0
M  V30 49 H 2.4798 0.403 2.7347 0
M  V30 50 H 4.899 0.8117 -0.042 0
M  V30 51 H 4.9415 -0.5695 -1.1978 0
M  V30 52 H 3.8732 -2.8234 1.0276 0
M  V30 END ATOM
M  V30 BEGIN BOND
M  V30 1 2 1 2
M  V30 2 1 2 3
M  V30 3 1 2 4
M  V30 4 2 3 5
M  V30 5 1 4 6
M  V30 6 1 5 7
M  V30 7 1 5 8
M  V30 8 1 6 9
M  V30 9 1 7 10
M  V30 10 1 7 11
M  V30 11 1 8 12
M  V30 12 1 10 13
M  V30 13 1 10 14
M  V30 14 1 13 15
M  V30 15 1 14 16
M  V30 16 1 15 17
M  V30 17 1 15 18
M  V30 18 1 17 19
M  V30 19 1 17 20
M  V30 20 1 18 21
M  V30 21 1 19 22
M  V30 22 1 6 7
M  V30 23 1 12 13
M  V30 24 1 16 17
M  V30 25 1 19 21
M  V30 26 1 3 23
M  V30 27 1 4 24
M  V30 28 1 4 25
M  V30 29 1 6 26
M  V30 30 1 8 27
M  V30 31 1 8 28
M  V30 32 1 9 29
M  V30 33 1 9 30
M  V30 34 1 9 31
M  V30 35 1 10 32
M  V30 36 1 11 33
M  V30 37 1 11 34
M  V30 38 1 11 35
M  V30 39 1 12 36
M  V30 40 1 12 37
M  V30 41 1 13 38
M  V30 42 1 14 39
M  V30 43 1 14 40
M  V30 44 1 15 41
M  V30 45 1 16 42
M  V30 46 1 16 43
M  V30 47 1 18 44
M  V30 48 1 18 45
M  V30 49 1 19 46
M  V30 50 1 20 47
M  V30 51 1 20 48
M  V30 52 1 20 49
M  V30 53 1 21 50
M  V30 54 1 21 51
M  V30 55 1 22 52
M  V30 END BOND
M  V30 BEGIN COLLECTION
M  V30 MDLV30/STEABS ATOMS=(7 6 7 10 13 15 17 19)
M  V30 END COLLECTION
M  V30 END CTAB
M  END
>  <Structure No>
136

>  <LogS>
-3.526422567

>  <MMFF94 Energy>
85.196

$$$$
Compound 137
Actelion Java MolfileCreator 2.0

  0  0  0  0  0  0              0 V3000
M  V30 BEGIN CTAB
M  V30 COUNTS 45 47 0 0 0
M  V30 BEGIN ATOM
M  V30 1 Cl 2.7245 -1.1062 -2.0429 0
M  V30 2 C 1.772 0.19 -1.3273 0
M  V30 3 C 2.2647 1.5036 -1.1713 0
M  V30 4 C 0.4819 -0.1262 -0.8869 0
M  V30 5 S 3.8927 1.9878 -1.6829 0
M  V30 6 C 1.4511 2.4677 -0.5607 0
M  V30 7 C -0.336 0.8421 -0.2789 0
M  V30 8 O 3.8543 3.4268 -2.1158 0
M  V30 9 O 4.3615 1.1706 -2.854 0
M  V30 10 N 5.0162 1.8365 -0.365 0
M  V30 11 C 0.1622 2.151 -0.1207 0
M  V30 12 N -1.6607 0.498 0.1666 0
M  V30 13 C 5.088 0.4425 0.0751 0
M  V30 14 Cl -0.7971 3.4297 0.6169 0
M  V30 15 N -2.1344 -0.8199 0.0678 0
M  V30 16 C 6.1613 0.2916 1.1521 0
M  V30 17 C -3.3909 -1.1523 0.1056 0
M  V30 18 S 6.2818 -1.4038 1.6971 0
M  V30 19 C -4.5866 -0.3133 0.137 0
M  V30 20 C -3.8947 -2.5254 0.2014 0
M  V30 21 O 6.6513 -2.287 0.5388 0
M  V30 22 O 4.9652 -1.8511 2.2668 0
M  V30 23 O 7.4662 -1.52 2.8821 0 CHG=-1
M  V30 24 C -5.6298 -1.2013 0.2915 0
M  V30 25 C -4.8215 1.047 -0.0934 0
M  V30 26 N -5.1857 -2.5565 0.3403 0
M  V30 27 C -3.044 -3.7509 0.2715 0
M  V30 28 C -6.9556 -0.7717 0.3053 0
M  V30 29 C -6.1511 1.5022 -0.0704 0
M  V30 30 C -7.2129 0.5988 0.1381 0
M  V30 31 H 0.1221 -1.1388 -1.0179 0
M  V30 32 H 1.8213 3.4759 -0.4219 0
M  V30 33 H 4.633 2.4085 0.423 0
M  V30 34 H -2.2081 1.1877 0.7229 0
M  V30 35 H 4.107 0.1196 0.4891 0
M  V30 36 H 5.3552 -0.2097 -0.7844 0
M  V30 37 H 7.1459 0.6098 0.748 0
M  V30 38 H 5.9114 0.93 2.0264 0
M  V30 39 H -4.0281 1.7401 -0.326 0
M  V30 40 H -2.6758 -3.8862 1.3095 0
M  V30 41 H -3.6326 -4.644 -0.0269 0
M  V30 42 H -2.177 -3.6494 -0.414 0
M  V30 43 H -7.7672 -1.4777 0.4237 0
M  V30 44 H -6.3631 2.5506 -0.2361 0
M  V30 45 H -8.2334 0.9591 0.142 0
M  V30 END ATOM
M  V30 BEGIN BOND
M  V30 1 1 1 2
M  V30 2 2 2 3
M  V30 3 1 2 4
M  V30 4 1 3 5
M  V30 5 1 3 6
M  V30 6 2 4 7
M  V30 7 2 5 8
M  V30 8 2 5 9
M  V30 9 1 5 10
M  V30 10 2 6 11
M  V30 11 1 7 12
M  V30 12 1 10 13
M  V30 13 1 11 14
M  V30 14 1 12 15
M  V30 15 1 13 16
M  V30 16 2 15 17
M  V30 17 1 16 18
M  V30 18 1 17 19
M  V30 19 1 17 20
M  V30 20 2 18 21
M  V30 21 2 18 22
M  V30 22 1 18 23
M  V30 23 2 19 24
M  V30 24 1 19 25
M  V30 25 2 20 26
M  V30 26 1 20 27
M  V30 27 1 24 28
M  V30 28 2 25 29
M  V30 29 2 28 30
M  V30 30 1 7 11
M  V30 31 1 24 26
M  V30 32 1 29 30
M  V30 33 1 4 31
M  V30 34 1 6 32
M  V30 35 1 10 33
M  V30 36 1 12 34
M  V30 37 1 13 35
M  V30 38 1 13 36
M  V30 39 1 16 37
M  V30 40 1 16 38
M  V30 41 1 25 39
M  V30 42 1 27 40
M  V30 43 1 27 41
M  V30 44 1 27 42
M  V30 45 1 28 43
M  V30 46 1 29 44
M  V30 47 1 30 45
M  V30 END BOND
M  V30 END CTAB
M  END
>  <Structure No>
137

>  <LogS>
-3.756179517

>  <MMFF94 Energy>
22.834

$$$$
Compound 138
Actelion Java MolfileCreator 2.0

  0  0  0  0  0  0              0 V3000
M  V30 BEGIN CTAB
M  V30 COUNTS 49 50 0 0 0
M  V30 BEGIN ATOM
M  V30 1 O -3.9772 -2.3053 -0.7944 0
M  V30 2 C -4.2037 -1.2617 -0.1226 0
M  V30 3 C -3.1625 -0.2073 -0.1086 0
M  V30 4 C -5.5368 -1.1503 0.6121 0
M  V30 5 C -2.6928 0.3488 1.093 0
M  V30 6 C -2.5892 0.2066 -1.3215 0
M  V30 7 O -6.5401 -1.7668 -0.161 0
M  V30 8 C -5.9521 0.314 0.873 0
M  V30 9 C -5.4529 -1.9099 1.9436 0
M  V30 10 C -1.6948 1.3272 1.0774 0
M  V30 11 C -1.5915 1.185 -1.3373 0
M  V30 12 C -1.1471 1.7625 -0.1385 0
M  V30 13 C -0.0432 2.7844 -0.1512 0
M  V30 14 C 1.2945 2.1035 -0.0515 0
M  V30 15 C 1.9621 1.6809 -1.2107 0
M  V30 16 C 1.8613 1.8358 1.2034 0
M  V30 17 C 3.1848 1.0105 -1.1173 0
M  V30 18 C 3.0841 1.166 1.2966 0
M  V30 19 C 3.7491 0.7326 0.1386 0
M  V30 20 C 5.0501 0.0359 0.2691 0
M  V30 21 O 5.9291 0.5615 1.0058 0
M  V30 22 C 5.3789 -1.2854 -0.4193 0
M  V30 23 O 6.1867 -2.0602 0.4359 0
M  V30 24 C 6.1908 -1.011 -1.6929 0
M  V30 25 C 4.1168 -2.1025 -0.772 0
M  V30 26 H -3.0772 0.0176 2.046 0
M  V30 27 H -2.9212 -0.223 -2.2588 0
M  V30 28 H -6.5983 -1.2832 -1.0275 0
M  V30 29 H -5.3079 0.7961 1.6359 0
M  V30 30 H -5.8999 0.9056 -0.0662 0
M  V30 31 H -6.9982 0.3504 1.2461 0
M  V30 32 H -6.4386 -1.893 2.4568 0
M  V30 33 H -5.1766 -2.9715 1.7652 0
M  V30 34 H -4.7014 -1.461 2.6236 0
M  V30 35 H -1.3422 1.7391 2.0148 0
M  V30 36 H -1.163 1.4899 -2.284 0
M  V30 37 H -0.1732 3.4982 0.6919 0
M  V30 38 H -0.0948 3.3915 -1.0819 0
M  V30 39 H 1.5368 1.8736 -2.188 0
M  V30 40 H 1.355 2.1436 2.1101 0
M  V30 41 H 3.6885 0.7239 -2.0282 0
M  V30 42 H 3.5051 0.9703 2.2754 0
M  V30 43 H 5.6694 -2.2386 1.2658 0
M  V30 44 H 7.1138 -0.4428 -1.4469 0
M  V30 45 H 5.606 -0.4277 -2.4322 0
M  V30 46 H 6.4932 -1.969 -2.168 0
M  V30 47 H 3.5371 -1.6328 -1.5923 0
M  V30 48 H 3.4594 -2.2055 0.1179 0
M  V30 49 H 4.4067 -3.1215 -1.1069 0
M  V30 END ATOM
M  V30 BEGIN BOND
M  V30 1 2 1 2
M  V30 2 1 2 3
M  V30 3 1 2 4
M  V30 4 2 3 5
M  V30 5 1 3 6
M  V30 6 1 4 7
M  V30 7 1 4 8
M  V30 8 1 4 9
M  V30 9 1 5 10
M  V30 10 2 6 11
M  V30 11 2 10 12
M  V30 12 1 12 13
M  V30 13 1 13 14
M  V30 14 2 14 15
M  V30 15 1 14 16
M  V30 16 1 15 17
M  V30 17 2 16 18
M  V30 18 2 17 19
M  V30 19 1 19 20
M  V30 20 2 20 21
M  V30 21 1 20 22
M  V30 22 1 22 23
M  V30 23 1 22 24
M  V30 24 1 22 25
M  V30 25 1 11 12
M  V30 26 1 18 19
M  V30 27 1 5 26
M  V30 28 1 6 27
M  V30 29 1 7 28
M  V30 30 1 8 29
M  V30 31 1 8 30
M  V30 32 1 8 31
M  V30 33 1 9 32
M  V30 34 1 9 33
M  V30 35 1 9 34
M  V30 36 1 10 35
M  V30 37 1 11 36
M  V30 38 1 13 37
M  V30 39 1 13 38
M  V30 40 1 15 39
M  V30 41 1 16 40
M  V30 42 1 17 41
M  V30 43 1 18 42
M  V30 44 1 23 43
M  V30 45 1 24 44
M  V30 46 1 24 45
M  V30 47 1 24 46
M  V30 48 1 25 47
M  V30 49 1 25 48
M  V30 50 1 25 49
M  V30 END BOND
M  V30 END CTAB
M  END
>  <Structure No>
138

>  <LogS>
-4.536378597

>  <MMFF94 Energy>
148.7

$$$$
Compound 139
Actelion Java MolfileCreator 2.0

  0  0  0  0  0  0              0 V3000
M  V30 BEGIN CTAB
M  V30 COUNTS 46 48 0 0 0
M  V30 BEGIN ATOM
M  V30 1 O 4.1911 1.127 -1.8521 0
M  V30 2 C 4.0547 1.58 -0.6815 0
M  V30 3 O 3.1944 0.9534 0.2239 0
M  V30 4 C 4.7955 2.7744 -0.247 0
M  V30 5 C 2.435 -0.2042 -0.112 0
M  V30 6 C 5.6333 3.4297 -1.0484 0
M  V30 7 C 1.5985 -0.6313 1.0991 0 CFG=2
M  V30 8 C 0.9582 -2.0554 1.0968 0 CFG=2
M  V30 9 C 0.4016 0.2962 1.3777 0
M  V30 10 C -0.0108 -2.3764 -0.075 0 CFG=1
M  V30 11 C -0.0821 -1.8495 2.1909 0
M  V30 12 C -0.7726 -0.6932 1.4803 0 CFG=2
M  V30 13 C -1.1335 -1.3629 0.1184 0 CFG=1
M  V30 14 C 0.4491 -2.3215 -1.5325 0
M  V30 15 C -1.1802 -0.5138 -1.17 0 CFG=1
M  V30 16 C -0.5182 -1.379 -2.2487 0
M  V30 17 C -2.6108 -0.108 -1.5469 0
M  V30 18 O -3.1517 0.7204 -0.5227 0
M  V30 19 C -4.4466 1.2455 -0.5751 0
M  V30 20 O -5.1933 1.0076 -1.5627 0
M  V30 21 C -4.9526 2.0811 0.5231 0
M  V30 22 C -4.2157 2.3631 1.5954 0
M  V30 23 H 4.6516 3.1326 0.7647 0
M  V30 24 H 3.1344 -1.0247 -0.3824 0
M  V30 25 H 1.7835 0.0468 -0.9731 0
M  V30 26 H 5.8092 3.1095 -2.0676 0
M  V30 27 H 6.1559 4.3042 -0.6828 0
M  V30 28 H 2.2837 -0.5934 1.9787 0
M  V30 29 H 1.6785 -2.8725 1.3156 0
M  V30 30 H 0.265 1.1157 0.649 0
M  V30 31 H 0.5404 0.7949 2.3635 0
M  V30 32 H -0.4183 -3.4023 0.095 0
M  V30 33 H 0.3582 -1.5664 3.1766 0
M  V30 34 H -0.7522 -2.7276 2.3497 0
M  V30 35 H -1.6511 -0.2865 2.0256 0
M  V30 36 H -2.0928 -1.9185 0.2402 0
M  V30 37 H 1.5004 -2.0185 -1.6579 0
M  V30 38 H 0.3769 -3.3335 -1.9895 0
M  V30 39 H -0.5877 0.4124 -1.1011 0
M  V30 40 H -1.2825 -1.9865 -2.7835 0
M  V30 41 H 0.0182 -0.7516 -2.9937 0
M  V30 42 H -2.594 0.4554 -2.5055 0
M  V30 43 H -3.2496 -1.0101 -1.6744 0
M  V30 44 H -5.958 2.4793 0.4583 0
M  V30 45 H -4.6252 2.9817 2.3834 0
M  V30 46 H -3.2061 1.9869 1.7043 0
M  V30 END ATOM
M  V30 BEGIN BOND
M  V30 1 2 1 2
M  V30 2 1 2 3
M  V30 3 1 2 4
M  V30 4 1 3 5
M  V30 5 2 4 6
M  V30 6 1 5 7
M  V30 7 1 7 8
M  V30 8 1 7 9
M  V30 9 1 8 10
M  V30 10 1 8 11
M  V30 11 1 9 12
M  V30 12 1 10 13
M  V30 13 1 10 14
M  V30 14 1 13 15
M  V30 15 1 14 16
M  V30 16 1 15 17
M  V30 17 1 17 18
M  V30 18 1 18 19
M  V30 19 2 19 20
M  V30 20 1 19 21
M  V30 21 2 21 22
M  V30 22 1 11 12
M  V30 23 1 12 13
M  V30 24 1 15 16
M  V30 25 1 4 23
M  V30 26 1 5 24
M  V30 27 1 5 25
M  V30 28 1 6 26
M  V30 29 1 6 27
M  V30 30 1 7 28
M  V30 31 1 8 29
M  V30 32 1 9 30
M  V30 33 1 9 31
M  V30 34 1 10 32
M  V30 35 1 11 33
M  V30 36 1 11 34
M  V30 37 1 12 35
M  V30 38 1 13 36
M  V30 39 1 14 37
M  V30 40 1 14 38
M  V30 41 1 15 39
M  V30 42 1 16 40
M  V30 43 1 16 41
M  V30 44 1 17 42
M  V30 45 1 17 43
M  V30 46 1 21 44
M  V30 47 1 22 45
M  V30 48 1 22 46
M  V30 END BOND
M  V30 BEGIN COLLECTION
M  V30 MDLV30/STEABS ATOMS=(6 7 8 10 12 13 15)
M  V30 END COLLECTION
M  V30 END CTAB
M  END
>  <Structure No>
139

>  <LogS>
-4.493085819

>  <MMFF94 Energy>
57.588

$$$$
Compound 140
Actelion Java MolfileCreator 2.0

  0  0  0  0  0  0              0 V3000
M  V30 BEGIN CTAB
M  V30 COUNTS 43 45 0 0 0
M  V30 BEGIN ATOM
M  V30 1 S -2.9255 -1.0556 -2.1122 0
M  V30 2 O -2.9155 -0.2265 -3.3649 0
M  V30 3 O -3.3228 -2.4633 -2.4581 0
M  V30 4 N -1.3358 -1.0677 -1.4179 0
M  V30 5 C -4.0671 -0.3447 -0.9752 0
M  V30 6 C -1.089 -1.3961 -0.0388 0
M  V30 7 C -3.7298 0.8358 -0.2981 0
M  V30 8 C -5.3071 -0.9534 -0.7315 0
M  V30 9 C 0.0125 -0.8299 0.6438 0
M  V30 10 C -1.9146 -2.3167 0.6336 0
M  V30 11 C -4.6221 1.3992 0.619 0
M  V30 12 C -6.1981 -0.387 0.1856 0
M  V30 13 N 0.8321 0.164 0.0054 0
M  V30 14 C 0.2486 -1.1796 1.9855 0
M  V30 15 C -1.6609 -2.66 1.9625 0
M  V30 16 C -5.8557 0.7879 0.8614 0
M  V30 17 C 2.2623 0.1995 0.1157 0
M  V30 18 C -0.5818 -2.092 2.6375 0
M  V30 19 O 2.8791 -0.7506 0.6703 0
M  V30 20 N 2.9825 1.3292 -0.3998 0
M  V30 21 C 4.4124 1.3796 -0.5426 0
M  V30 22 C 5.0779 2.6043 -0.3737 0
M  V30 23 C 5.1554 0.2412 -0.9079 0
M  V30 24 C 6.4653 2.6834 -0.5287 0
M  V30 25 C 6.5428 0.325 -1.0629 0
M  V30 26 C 7.1977 1.5437 -0.869 0
M  V30 27 H -0.5537 -0.7274 -2.0196 0
M  V30 28 H -2.7756 1.3152 -0.4769 0
M  V30 29 H -5.5844 -1.8638 -1.2466 0
M  V30 30 H -2.7485 -2.7852 0.13 0
M  V30 31 H -4.3572 2.3088 1.1426 0
M  V30 32 H -7.1536 -0.8594 0.3734 0
M  V30 33 H 0.3708 0.8741 -0.6063 0
M  V30 34 H 1.0605 -0.724 2.5375 0
M  V30 35 H -2.3025 -3.369 2.4697 0
M  V30 36 H -6.5457 1.2245 1.5718 0
M  V30 37 H -0.393 -2.3527 3.6709 0
M  V30 38 H 2.438 2.1991 -0.5975 0
M  V30 39 H 4.521 3.4951 -0.1115 0
M  V30 40 H 4.6654 -0.7037 -1.0989 0
M  V30 41 H 6.9721 3.6292 -0.3865 0
M  V30 42 H 7.1093 -0.5538 -1.3424 0
M  V30 43 H 8.2712 1.6067 -0.9907 0
M  V30 END ATOM
M  V30 BEGIN BOND
M  V30 1 2 1 2
M  V30 2 2 1 3
M  V30 3 1 1 4
M  V30 4 1 1 5
M  V30 5 1 4 6
M  V30 6 2 5 7
M  V30 7 1 5 8
M  V30 8 2 6 9
M  V30 9 1 6 10
M  V30 10 1 7 11
M  V30 11 2 8 12
M  V30 12 1 9 13
M  V30 13 1 9 14
M  V30 14 2 10 15
M  V30 15 2 11 16
M  V30 16 1 13 17
M  V30 17 2 14 18
M  V30 18 2 17 19
M  V30 19 1 17 20
M  V30 20 1 20 21
M  V30 21 2 21 22
M  V30 22 1 21 23
M  V30 23 1 22 24
M  V30 24 2 23 25
M  V30 25 2 24 26
M  V30 26 1 12 16
M  V30 27 1 15 18
M  V30 28 1 25 26
M  V30 29 1 4 27
M  V30 30 1 7 28
M  V30 31 1 8 29
M  V30 32 1 10 30
M  V30 33 1 11 31
M  V30 34 1 12 32
M  V30 35 1 13 33
M  V30 36 1 14 34
M  V30 37 1 15 35
M  V30 38 1 16 36
M  V30 39 1 18 37
M  V30 40 1 20 38
M  V30 41 1 22 39
M  V30 42 1 23 40
M  V30 43 1 24 41
M  V30 44 1 25 42
M  V30 45 1 26 43
M  V30 END BOND
M  V30 END CTAB
M  END
>  <Structure No>
140

>  <LogS>
-4.578402879

>  <MMFF94 Energy>
-45.84

$$$$
Compound 141
Actelion Java MolfileCreator 2.0

  0  0  0  0  0  0              0 V3000
M  V30 BEGIN CTAB
M  V30 COUNTS 33 32 0 0 0
M  V30 BEGIN ATOM
M  V30 1 O 3.1912 0.3109 -2.1785 0
M  V30 2 C 3.1777 0.495 -0.9311 0
M  V30 3 O 2.0042 0.2918 -0.1976 0
M  V30 4 C 4.4102 0.9252 -0.2561 0
M  V30 5 C 0.7862 -0.1436 -0.7949 0
M  V30 6 C 4.4649 1.1251 1.0586 0
M  V30 7 C -0.3145 -0.2875 0.2758 0 CFG=1
M  V30 8 C -1.6252 -0.8688 -0.3155 0
M  V30 9 C 0.1564 -1.1069 1.5057 0
M  V30 10 C -2.2986 -0.0016 -1.4006 0
M  V30 11 C 0.6078 -2.5356 1.1889 0
M  V30 12 C -2.6632 1.4293 -0.9671 0
M  V30 13 C -3.6166 1.4678 0.2265 0
M  V30 14 H 5.3038 1.0827 -0.8478 0
M  V30 15 H 0.9486 -1.1122 -1.3153 0
M  V30 16 H 0.476 0.6101 -1.5492 0
M  V30 17 H 3.5978 0.9783 1.6906 0
M  V30 18 H 5.3925 1.441 1.5178 0
M  V30 19 H -0.5301 0.729 0.6672 0
M  V30 20 H -1.4138 -1.8597 -0.7709 0
M  V30 21 H -2.356 -1.0469 0.5022 0
M  V30 22 H -0.668 -1.1539 2.2503 0
M  V30 23 H 0.9966 -0.5751 2.0029 0
M  V30 24 H -3.2278 -0.5175 -1.7273 0
M  V30 25 H -1.6433 0.0504 -2.2954 0
M  V30 26 H -0.2196 -3.127 0.7472 0
M  V30 27 H 1.4773 -2.5338 0.4999 0
M  V30 28 H 0.9199 -3.0355 2.1299 0
M  V30 29 H -1.7493 2.0164 -0.7401 0
M  V30 30 H -3.1612 1.9318 -1.8245 0
M  V30 31 H -3.1056 1.1165 1.147 0
M  V30 32 H -4.5085 0.835 0.0318 0
M  V30 33 H -3.9534 2.5121 0.3965 0
M  V30 END ATOM
M  V30 BEGIN BOND
M  V30 1 2 1 2
M  V30 2 1 2 3
M  V30 3 1 2 4
M  V30 4 1 3 5
M  V30 5 2 4 6
M  V30 6 1 5 7
M  V30 7 1 7 8
M  V30 8 1 7 9
M  V30 9 1 8 10
M  V30 10 1 9 11
M  V30 11 1 10 12
M  V30 12 1 12 13
M  V30 13 1 4 14
M  V30 14 1 5 15
M  V30 15 1 5 16
M  V30 16 1 6 17
M  V30 17 1 6 18
M  V30 18 1 7 19
M  V30 19 1 8 20
M  V30 20 1 8 21
M  V30 21 1 9 22
M  V30 22 1 9 23
M  V30 23 1 10 24
M  V30 24 1 10 25
M  V30 25 1 11 26
M  V30 26 1 11 27
M  V30 27 1 11 28
M  V30 28 1 12 29
M  V30 29 1 12 30
M  V30 30 1 13 31
M  V30 31 1 13 32
M  V30 32 1 13 33
M  V30 END BOND
M  V30 BEGIN COLLECTION
M  V30 MDLV30/STEABS ATOMS=(1 7)
M  V30 END COLLECTION
M  V30 END CTAB
M  END
>  <Structure No>
141

>  <LogS>
-4.283204614

>  <MMFF94 Energy>
4.6984

$$$$
Compound 142
Actelion Java MolfileCreator 2.0

  0  0  0  0  0  0              0 V3000
M  V30 BEGIN CTAB
M  V30 COUNTS 32 34 0 0 0
M  V30 BEGIN ATOM
M  V30 1 O 2.7528 -1.2947 -1.4566 0
M  V30 2 C 3.0286 -0.1077 -1.1318 0
M  V30 3 O 2.029 0.7633 -0.6864 0
M  V30 4 C 4.4259 0.3906 -1.2743 0
M  V30 5 C 0.6687 0.3645 -0.5065 0 CFG=1
M  V30 6 C 0.5142 -0.4844 0.7796 0 CFG=2
M  V30 7 C -0.203 1.5946 -0.1996 0
M  V30 8 C -0.9089 -1.0948 0.9022 0 CFG=1
M  V30 9 C 0.4427 0.6017 1.8354 0
M  V30 10 C -0.7521 1.2911 1.2096 0 CFG=2
M  V30 11 C -1.7806 0.1276 1.1967 0 CFG=1
M  V30 12 C -1.4923 -1.7871 -0.3336 0
M  V30 13 C -2.8853 0.1703 0.1361 0
M  V30 14 C -2.4779 -0.8061 -0.9632 0
M  V30 15 H 5.146 -0.4117 -1.009 0
M  V30 16 H 4.5898 1.2565 -0.5992 0
M  V30 17 H 4.5999 0.7082 -2.3232 0
M  V30 18 H 0.3203 -0.1489 -1.4247 0
M  V30 19 H 1.3274 -1.2228 0.9446 0
M  V30 20 H -0.9927 1.7481 -0.9608 0
M  V30 21 H 0.4134 2.5204 -0.1655 0
M  V30 22 H -0.9285 -1.7986 1.7659 0
M  V30 23 H 1.3531 1.2446 1.871 0
M  V30 24 H 0.2366 0.2074 2.8582 0
M  V30 25 H -1.0991 2.1913 1.7605 0
M  V30 26 H -2.2401 0.0386 2.2081 0
M  V30 27 H -2.0527 -2.6907 -0.0067 0
M  V30 28 H -0.7126 -2.1191 -1.0509 0
M  V30 29 H -3.8346 -0.1869 0.5932 0
M  V30 30 H -3.0681 1.1927 -0.2564 0
M  V30 31 H -3.3647 -1.3395 -1.3697 0
M  V30 32 H -1.9932 -0.2588 -1.7983 0
M  V30 END ATOM
M  V30 BEGIN BOND
M  V30 1 2 1 2
M  V30 2 1 2 3
M  V30 3 1 2 4
M  V30 4 1 3 5
M  V30 5 1 5 6
M  V30 6 1 5 7
M  V30 7 1 6 8
M  V30 8 1 6 9
M  V30 9 1 7 10
M  V30 10 1 8 11
M  V30 11 1 8 12
M  V30 12 1 11 13
M  V30 13 1 12 14
M  V30 14 1 9 10
M  V30 15 1 10 11
M  V30 16 1 13 14
M  V30 17 1 4 15
M  V30 18 1 4 16
M  V30 19 1 4 17
M  V30 20 1 5 18
M  V30 21 1 6 19
M  V30 22 1 7 20
M  V30 23 1 7 21
M  V30 24 1 8 22
M  V30 25 1 9 23
M  V30 26 1 9 24
M  V30 27 1 10 25
M  V30 28 1 11 26
M  V30 29 1 12 27
M  V30 30 1 12 28
M  V30 31 1 13 29
M  V30 32 1 13 30
M  V30 33 1 14 31
M  V30 34 1 14 32
M  V30 END BOND
M  V30 BEGIN COLLECTION
M  V30 MDLV30/STEABS ATOMS=(5 5 6 8 10 11)
M  V30 END COLLECTION
M  V30 END CTAB
M  END
>  <Structure No>
142

>  <LogS>
-3.338049828

>  <MMFF94 Energy>
34.163

$$$$
Compound 143
Actelion Java MolfileCreator 2.0

  0  0  0  0  0  0              0 V3000
M  V30 BEGIN CTAB
M  V30 COUNTS 9 8 0 0 0
M  V30 BEGIN ATOM
M  V30 1 S 1.6107 -0.322 -1.1273 0
M  V30 2 C 0.1122 -0.6854 -0.1612 0
M  V30 3 C -0.8473 0.4955 -0.1996 0
M  V30 4 H 2.0488 0.6665 -0.225 0
M  V30 5 H 0.3959 -0.9059 0.8897 0
M  V30 6 H -0.3849 -1.5797 -0.5922 0
M  V30 7 H -0.3708 1.3928 0.2487 0
M  V30 8 H -1.137 0.7189 -1.2483 0
M  V30 9 H -1.7624 0.2508 0.3797 0
M  V30 END ATOM
M  V30 BEGIN BOND
M  V30 1 1 1 2
M  V30 2 1 2 3
M  V30 3 1 1 4
M  V30 4 1 2 5
M  V30 5 1 2 6
M  V30 6 1 3 7
M  V30 7 1 3 8
M  V30 8 1 3 9
M  V30 END BOND
M  V30 END CTAB
M  END
>  <Structure No>
143

>  <LogS>
-0.84591656

>  <MMFF94 Energy>
-0.25235

$$$$
Compound 144
Actelion Java MolfileCreator 2.0

  0  0  0  0  0  0              0 V3000
M  V30 BEGIN CTAB
M  V30 COUNTS 58 57 0 0 0
M  V30 BEGIN ATOM
M  V30 1 O 1.2579 0.3929 1.7299 0
M  V30 2 C 1.7284 0.7728 0.6228 0
M  V30 3 O 1.0565 1.731 -0.1417 0
M  V30 4 O 2.949 0.2748 0.1632 0
M  V30 5 O -0.2397 2.1103 0.0907 0
M  V30 6 C 3.7055 -0.6945 0.8847 0
M  V30 7 C -1.2618 1.2102 0.4062 0
M  V30 8 C 4.9894 -1.0646 0.1134 0 CFG=2
M  V30 9 O -1.0872 -0.0299 0.2579 0
M  V30 10 O -2.4914 1.7117 0.8466 0
M  V30 11 C 5.9226 0.1697 0.0179 0
M  V30 12 C 4.6688 -1.6366 -1.2922 0
M  V30 13 C -3.6237 0.8971 1.1556 0
M  V30 14 C 7.39 -0.2115 -0.2526 0
M  V30 15 C 3.8792 -2.9458 -1.2426 0
M  V30 16 C -4.6806 0.966 0.0316 0 CFG=2
M  V30 17 C 8.3041 1.0174 -0.3808 0
M  V30 18 C -5.993 0.2854 0.496 0
M  V30 19 C -4.1417 0.429 -1.3218 0
M  V30 20 C 8.5538 1.7152 0.9562 0
M  V30 21 C -7.1531 0.4707 -0.4988 0
M  V30 22 C -3.9325 -1.0872 -1.3728 0
M  V30 23 C -8.4693 -0.1374 0.0112 0
M  V30 24 C -9.1193 0.6948 1.1166 0
M  V30 25 H 3.0873 -1.6 1.0608 0
M  V30 26 H 3.9723 -0.2872 1.8846 0
M  V30 27 H 5.5102 -1.8505 0.7051 0
M  V30 28 H 5.886 0.7239 0.9797 0
M  V30 29 H 5.5583 0.8577 -0.7765 0
M  V30 30 H 5.6118 -1.8479 -1.8356 0
M  V30 31 H 4.1021 -0.8922 -1.8927 0
M  V30 32 H -4.0702 1.2996 2.0901 0
M  V30 33 H -3.3283 -0.1507 1.3754 0
M  V30 34 H 7.765 -0.8746 0.5575 0
M  V30 35 H 7.4601 -0.7756 -1.2047 0
M  V30 36 H 4.3696 -3.6717 -0.5599 0
M  V30 37 H 2.8363 -2.7652 -0.9094 0
M  V30 38 H 3.838 -3.3905 -2.2592 0
M  V30 39 H -4.9079 2.0454 -0.1191 0
M  V30 40 H 9.2847 0.6838 -0.7848 0
M  V30 41 H 7.8728 1.7422 -1.1051 0
M  V30 42 H -6.2881 0.7374 1.4662 0
M  V30 43 H -5.8219 -0.7968 0.6806 0
M  V30 44 H -4.8376 0.717 -2.1376 0
M  V30 45 H -3.1811 0.9289 -1.5644 0
M  V30 46 H 9.3205 2.5068 0.8206 0
M  V30 47 H 8.9261 0.9901 1.7106 0
M  V30 48 H 7.6268 2.1963 1.33 0
M  V30 49 H -6.9021 -0.0406 -1.4513 0
M  V30 50 H -7.2973 1.5506 -0.7217 0
M  V30 51 H -4.9026 -1.6219 -1.3148 0
M  V30 52 H -3.4539 -1.3571 -2.3375 0
M  V30 53 H -3.2722 -1.4316 -0.5525 0
M  V30 54 H -8.298 -1.1737 0.3751 0
M  V30 55 H -9.1818 -0.1953 -0.8402 0
M  V30 56 H -8.5086 0.6712 2.0421 0
M  V30 57 H -10.119 0.2738 1.3544 0
M  V30 58 H -9.2506 1.747 0.7859 0
M  V30 END ATOM
M  V30 BEGIN BOND
M  V30 1 2 1 2
M  V30 2 1 2 3
M  V30 3 1 2 4
M  V30 4 1 3 5
M  V30 5 1 4 6
M  V30 6 1 5 7
M  V30 7 1 6 8
M  V30 8 2 7 9
M  V30 9 1 7 10
M  V30 10 1 8 11
M  V30 11 1 8 12
M  V30 12 1 10 13
M  V30 13 1 11 14
M  V30 14 1 12 15
M  V30 15 1 13 16
M  V30 16 1 14 17
M  V30 17 1 16 18
M  V30 18 1 16 19
M  V30 19 1 17 20
M  V30 20 1 18 21
M  V30 21 1 19 22
M  V30 22 1 21 23
M  V30 23 1 23 24
M  V30 24 1 6 25
M  V30 25 1 6 26
M  V30 26 1 8 27
M  V30 27 1 11 28
M  V30 28 1 11 29
M  V30 29 1 12 30
M  V30 30 1 12 31
M  V30 31 1 13 32
M  V30 32 1 13 33
M  V30 33 1 14 34
M  V30 34 1 14 35
M  V30 35 1 15 36
M  V30 36 1 15 37
M  V30 37 1 15 38
M  V30 38 1 16 39
M  V30 39 1 17 40
M  V30 40 1 17 41
M  V30 41 1 18 42
M  V30 42 1 18 43
M  V30 43 1 19 44
M  V30 44 1 19 45
M  V30 45 1 20 46
M  V30 46 1 20 47
M  V30 47 1 20 48
M  V30 48 1 21 49
M  V30 49 1 21 50
M  V30 50 1 22 51
M  V30 51 1 22 52
M  V30 52 1 22 53
M  V30 53 1 23 54
M  V30 54 1 23 55
M  V30 55 1 24 56
M  V30 56 1 24 57
M  V30 57 1 24 58
M  V30 END BOND
M  V30 BEGIN COLLECTION
M  V30 MDLV30/STEABS ATOMS=(2 8 16)
M  V30 END COLLECTION
M  V30 END CTAB
M  END
>  <Structure No>
144

>  <LogS>
-2.595175443

>  <MMFF94 Energy>
-6.228

$$$$
Compound 145
Actelion Java MolfileCreator 2.0

  0  0  0  0  0  0              0 V3000
M  V30 BEGIN CTAB
M  V30 COUNTS 29 28 0 0 0
M  V30 BEGIN ATOM
M  V30 1 O -3.6479 2.1719 -1.2406 0
M  V30 2 C -2.8952 1.216 -1.1475 0
M  V30 3 C -2.9235 0.3589 0.0863 0
M  V30 4 C -1.8411 -0.7515 0.0721 0 CFG=1
M  V30 5 C -0.4711 -0.2543 0.5977 0
M  V30 6 C -2.3076 -1.9394 0.9274 0
M  V30 7 C 0.1912 0.7857 -0.3167 0
M  V30 8 C 1.6006 1.0756 0.1372 0
M  V30 9 C 2.6901 0.3855 -0.2665 0
M  V30 10 C 4.0325 0.7635 0.3045 0
M  V30 11 C 2.5994 -0.7332 -1.2778 0
M  V30 12 H -2.2173 0.9975 -1.9663 0
M  V30 13 H -3.9376 -0.0944 0.1391 0
M  V30 14 H -2.8026 1.0011 0.9859 0
M  V30 15 H -1.7124 -1.1372 -0.9643 0
M  V30 16 H -0.5909 0.1763 1.6167 0
M  V30 17 H 0.2105 -1.1277 0.6902 0
M  V30 18 H -1.5514 -2.7531 0.9069 0
M  V30 19 H -2.4678 -1.6235 1.981 0
M  V30 20 H -3.2581 -2.3533 0.5276 0
M  V30 21 H -0.38 1.7357 -0.2595 0
M  V30 22 H 0.1758 0.4491 -1.3745 0
M  V30 23 H 1.7259 1.8797 0.8587 0
M  V30 24 H 4.8479 0.1345 -0.109 0
M  V30 25 H 4.2572 1.8246 0.065 0
M  V30 26 H 4.0199 0.6353 1.4078 0
M  V30 27 H 3.5895 -1.2019 -1.4553 0
M  V30 28 H 1.9109 -1.5249 -0.9178 0
M  V30 29 H 2.2334 -0.3371 -2.2481 0
M  V30 END ATOM
M  V30 BEGIN BOND
M  V30 1 2 1 2
M  V30 2 1 2 3
M  V30 3 1 3 4
M  V30 4 1 4 5
M  V30 5 1 4 6
M  V30 6 1 5 7
M  V30 7 1 7 8
M  V30 8 2 8 9
M  V30 9 1 9 10
M  V30 10 1 9 11
M  V30 11 1 2 12
M  V30 12 1 3 13
M  V30 13 1 3 14
M  V30 14 1 4 15
M  V30 15 1 5 16
M  V30 16 1 5 17
M  V30 17 1 6 18
M  V30 18 1 6 19
M  V30 19 1 6 20
M  V30 20 1 7 21
M  V30 21 1 7 22
M  V30 22 1 8 23
M  V30 23 1 10 24
M  V30 24 1 10 25
M  V30 25 1 10 26
M  V30 26 1 11 27
M  V30 27 1 11 28
M  V30 28 1 11 29
M  V30 END BOND
M  V30 BEGIN COLLECTION
M  V30 MDLV30/STEABS ATOMS=(1 4)
M  V30 END COLLECTION
M  V30 END CTAB
M  END
>  <Structure No>
145

>  <LogS>
-3.243750947

>  <MMFF94 Energy>
15.279

$$$$
Compound 146
Actelion Java MolfileCreator 2.0

  0  0  0  0  0  0              0 V3000
M  V30 BEGIN CTAB
M  V30 COUNTS 30 31 0 0 0
M  V30 BEGIN ATOM
M  V30 1 O -0.3183 1.1146 -0.3183 0
M  V30 2 C 0.4038 -0.0517 -0.0339 0 CFG=2
M  V30 3 C -1.5918 0.5694 -0.1385 0 CFG=1
M  V30 4 C 1.9383 0.1655 -0.1732 0
M  V30 5 C -0.1635 -1.0648 -1.0539 0
M  V30 6 C -0.0913 -0.4359 1.3777 0
M  V30 7 C -1.6119 -0.5859 -1.1578 0 CFG=1
M  V30 8 C -1.5388 0.0366 1.306 0
M  V30 9 C -2.6942 1.6054 -0.3662 0
M  V30 10 C 2.4405 1.3847 0.6179 0
M  V30 11 C 2.7349 -1.0871 0.2208 0
M  V30 12 O -2.5289 -1.5899 -0.8081 0
M  V30 13 H 2.1545 0.3744 -1.2447 0
M  V30 14 H -0.0837 -2.1167 -0.7006 0
M  V30 15 H 0.3377 -0.9681 -2.042 0
M  V30 16 H 0.445 0.1162 2.1767 0
M  V30 17 H -0.0219 -1.5285 1.5726 0
M  V30 18 H -1.8219 -0.2001 -2.1833 0
M  V30 19 H -1.7081 0.8574 2.0382 0
M  V30 20 H -2.2605 -0.7848 1.5016 0
M  V30 21 H -2.6371 2.0072 -1.4001 0
M  V30 22 H -2.5795 2.4516 0.3442 0
M  V30 23 H -3.6909 1.1394 -0.2144 0
M  V30 24 H 3.5051 1.5813 0.3688 0
M  V30 25 H 2.3706 1.2172 1.7123 0
M  V30 26 H 1.8592 2.2925 0.3517 0
M  V30 27 H 3.8189 -0.9203 0.044 0
M  V30 28 H 2.4209 -1.9574 -0.3924 0
M  V30 29 H 2.5857 -1.3299 1.2943 0
M  V30 30 H -2.5479 -2.2267 -1.5691 0
M  V30 END ATOM
M  V30 BEGIN BOND
M  V30 1 1 1 2
M  V30 2 1 1 3
M  V30 3 1 2 4
M  V30 4 1 2 5
M  V30 5 1 2 6
M  V30 6 1 3 7
M  V30 7 1 3 8
M  V30 8 1 3 9
M  V30 9 1 4 10
M  V30 10 1 4 11
M  V30 11 1 7 12
M  V30 12 1 5 7
M  V30 13 1 6 8
M  V30 14 1 4 13
M  V30 15 1 5 14
M  V30 16 1 5 15
M  V30 17 1 6 16
M  V30 18 1 6 17
M  V30 19 1 7 18
M  V30 20 1 8 19
M  V30 21 1 8 20
M  V30 22 1 9 21
M  V30 23 1 9 22
M  V30 24 1 9 23
M  V30 25 1 10 24
M  V30 26 1 10 25
M  V30 27 1 10 26
M  V30 28 1 11 27
M  V30 29 1 11 28
M  V30 30 1 11 29
M  V30 31 1 12 30
M  V30 END BOND
M  V30 BEGIN COLLECTION
M  V30 MDLV30/STEABS ATOMS=(3 2 3 7)
M  V30 END COLLECTION
M  V30 END CTAB
M  END
>  <Structure No>
146

>  <LogS>
-0.288092629

>  <MMFF94 Energy>
61.442

$$$$
Compound 147
Actelion Java MolfileCreator 2.0

  0  0  0  0  0  0              0 V3000
M  V30 BEGIN CTAB
M  V30 COUNTS 29 29 0 0 0
M  V30 BEGIN ATOM
M  V30 1 O 5.6604 0.4707 0.3138 0
M  V30 2 C 5.0192 -0.2889 -0.3947 0
M  V30 3 C 3.5541 -0.497 -0.1556 0
M  V30 4 C 2.7665 0.7887 -0.4243 0
M  V30 5 C 1.2945 0.5623 -0.2046 0
M  V30 6 C 0.7329 0.7416 1.0682 0
M  V30 7 C 0.482 0.1156 -1.2572 0
M  V30 8 C -0.6272 0.5004 1.2808 0
M  V30 9 C -0.8782 -0.126 -1.0459 0
M  V30 10 C -1.449 0.0664 0.2262 0
M  V30 11 C -2.9236 -0.1938 0.471 0
M  V30 12 C -3.7979 0.7318 -0.3831 0
M  V30 13 C -3.273 -1.666 0.2237 0
M  V30 14 H 5.5196 -0.8265 -1.1934 0
M  V30 15 H 3.4004 -0.8262 0.8951 0
M  V30 16 H 3.192 -1.3022 -0.8314 0
M  V30 17 H 3.1253 1.5985 0.2489 0
M  V30 18 H 2.9439 1.1249 -1.4699 0
M  V30 19 H 1.3493 1.0669 1.8972 0
M  V30 20 H 0.9025 -0.0473 -2.2417 0
M  V30 21 H -1.0369 0.6503 2.272 0
M  V30 22 H -1.4832 -0.4664 -1.8761 0
M  V30 23 H -3.1659 0.0229 1.5356 0
M  V30 24 H -3.6706 0.518 -1.4654 0
M  V30 25 H -3.5287 1.7928 -0.192 0
M  V30 26 H -4.8683 0.5931 -0.1199 0
M  V30 27 H -3.1309 -1.938 -0.8435 0
M  V30 28 H -2.6297 -2.3202 0.8504 0
M  V30 29 H -4.3326 -1.8564 0.498 0
M  V30 END ATOM
M  V30 BEGIN BOND
M  V30 1 2 1 2
M  V30 2 1 2 3
M  V30 3 1 3 4
M  V30 4 1 4 5
M  V30 5 2 5 6
M  V30 6 1 5 7
M  V30 7 1 6 8
M  V30 8 2 7 9
M  V30 9 2 8 10
M  V30 10 1 10 11
M  V30 11 1 11 12
M  V30 12 1 11 13
M  V30 13 1 9 10
M  V30 14 1 2 14
M  V30 15 1 3 15
M  V30 16 1 3 16
M  V30 17 1 4 17
M  V30 18 1 4 18
M  V30 19 1 6 19
M  V30 20 1 7 20
M  V30 21 1 8 21
M  V30 22 1 9 22
M  V30 23 1 11 23
M  V30 24 1 12 24
M  V30 25 1 12 25
M  V30 26 1 12 26
M  V30 27 1 13 27
M  V30 28 1 13 28
M  V30 29 1 13 29
M  V30 END BOND
M  V30 END CTAB
M  END
>  <Structure No>
147

>  <LogS>
-3.302656786

>  <MMFF94 Energy>
23.36

$$$$
Compound 148
Actelion Java MolfileCreator 2.0

  0  0  0  0  0  0              0 V3000
M  V30 BEGIN CTAB
M  V30 COUNTS 52 51 0 0 0
M  V30 BEGIN ATOM
M  V30 1 O -3.1686 2.8514 1.2665 0
M  V30 2 C -3.6337 2.1224 0.3504 0
M  V30 3 O -3.1737 2.2812 -0.9524 0 CHG=-1
M  V30 4 C -4.6664 1.0787 0.6644 0 CFG=2
M  V30 5 N -4.1217 -0.2389 0.3299 0
M  V30 6 C -5.9582 1.3518 -0.1318 0
M  V30 7 C -3.6573 -1.1645 1.3232 0
M  V30 8 C -7.15 0.5038 0.3413 0
M  V30 9 O -3.9261 -0.9842 2.5413 0
M  V30 10 C -2.8156 -2.3404 0.9216 0
M  V30 11 C -7.0292 -0.929 -0.0776 0
M  V30 12 C -1.3192 -2.047 1.0959 0
M  V30 13 O -6.8322 -1.8273 0.7824 0
M  V30 14 O -7.1288 -1.2728 -1.419 0 CHG=-1
M  V30 15 C -0.8193 -0.9654 0.1261 0
M  V30 16 C 0.6904 -0.7453 0.2752 0
M  V30 17 C 1.1788 0.3626 -0.6698 0
M  V30 18 C 2.6627 0.7061 -0.4644 0
M  V30 19 C 3.6013 -0.3697 -1.0381 0
M  V30 20 C 5.0866 -0.0333 -0.8273 0
M  V30 21 C 5.5802 1.083 -1.7642 0
M  V30 22 C 7.0774 1.3817 -1.5845 0
M  V30 23 C 7.974 0.299 -2.1852 0
M  V30 24 H -4.908 1.1383 1.7496 0
M  V30 25 H -3.9364 -0.4557 -0.6762 0
M  V30 26 H -5.7863 1.195 -1.2202 0
M  V30 27 H -6.2379 2.4199 0.0042 0
M  V30 28 H -7.2569 0.576 1.4456 0
M  V30 29 H -8.079 0.9148 -0.1077 0
M  V30 30 H -3.088 -3.2113 1.5573 0
M  V30 31 H -3.0279 -2.6231 -0.1325 0
M  V30 32 H -1.1216 -1.7341 2.1445 0
M  V30 33 H -0.7572 -2.9877 0.9109 0
M  V30 34 H -1.0451 -1.2717 -0.9185 0
M  V30 35 H -1.3449 -0.0096 0.3355 0
M  V30 36 H 0.9161 -0.4601 1.3263 0
M  V30 37 H 1.2146 -1.696 0.0445 0
M  V30 38 H 0.5851 1.2831 -0.476 0
M  V30 39 H 1.0017 0.0661 -1.727 0
M  V30 40 H 2.8538 1.6704 -0.9794 0
M  V30 41 H 2.8694 0.8558 0.6184 0
M  V30 42 H 3.3986 -0.5141 -2.1217 0
M  V30 43 H 3.4031 -1.3348 -0.5279 0
M  V30 44 H 5.6689 -0.9573 -1.0247 0
M  V30 45 H 5.2613 0.2542 0.2324 0
M  V30 46 H 5.026 2.0186 -1.5413 0
M  V30 47 H 5.3741 0.8135 -2.8232 0
M  V30 48 H 7.3169 1.5087 -0.5065 0
M  V30 49 H 7.307 2.3429 -2.0945 0
M  V30 50 H 7.7144 0.1269 -3.2512 0
M  V30 51 H 7.8786 -0.6526 -1.6215 0
M  V30 52 H 9.0343 0.6271 -2.1303 0
M  V30 END ATOM
M  V30 BEGIN BOND
M  V30 1 2 1 2
M  V30 2 1 2 3
M  V30 3 1 2 4
M  V30 4 1 4 5
M  V30 5 1 4 6
M  V30 6 1 5 7
M  V30 7 1 6 8
M  V30 8 2 7 9
M  V30 9 1 7 10
M  V30 10 1 8 11
M  V30 11 1 10 12
M  V30 12 2 11 13
M  V30 13 1 11 14
M  V30 14 1 12 15
M  V30 15 1 15 16
M  V30 16 1 16 17
M  V30 17 1 17 18
M  V30 18 1 18 19
M  V30 19 1 19 20
M  V30 20 1 20 21
M  V30 21 1 21 22
M  V30 22 1 22 23
M  V30 23 1 4 24
M  V30 24 1 5 25
M  V30 25 1 6 26
M  V30 26 1 6 27
M  V30 27 1 8 28
M  V30 28 1 8 29
M  V30 29 1 10 30
M  V30 30 1 10 31
M  V30 31 1 12 32
M  V30 32 1 12 33
M  V30 33 1 15 34
M  V30 34 1 15 35
M  V30 35 1 16 36
M  V30 36 1 16 37
M  V30 37 1 17 38
M  V30 38 1 17 39
M  V30 39 1 18 40
M  V30 40 1 18 41
M  V30 41 1 19 42
M  V30 42 1 19 43
M  V30 43 1 20 44
M  V30 44 1 20 45
M  V30 45 1 21 46
M  V30 46 1 21 47
M  V30 47 1 22 48
M  V30 48 1 22 49
M  V30 49 1 23 50
M  V30 50 1 23 51
M  V30 51 1 23 52
M  V30 END BOND
M  V30 BEGIN COLLECTION
M  V30 MDLV30/STEABS ATOMS=(1 4)
M  V30 END COLLECTION
M  V30 END CTAB
M  END
>  <Structure No>
148

>  <LogS>
-3.60911048

>  <MMFF94 Energy>
84.556

$$$$
Compound 149
Actelion Java MolfileCreator 2.0

  0  0  0  0  0  0              0 V3000
M  V30 BEGIN CTAB
M  V30 COUNTS 35 35 0 0 0
M  V30 BEGIN ATOM
M  V30 1 O 0.5473 -1.2513 -0.5473 0
M  V30 2 C 1.522 -0.7488 -1.4485 0 CFG=1
M  V30 3 C -0.5852 -0.4087 -0.5131 0
M  V30 4 O 2.8068 -0.9067 -0.8795 0
M  V30 5 C 1.4687 -1.5698 -2.7329 0
M  V30 6 C -1.6381 -1.0266 0.4035 0
M  V30 7 C 3.0182 0.0679 0.1216 0
M  V30 8 C -2.8617 -0.1527 0.4758 0
M  V30 9 C 4.3779 -0.1767 0.7735 0
M  V30 10 C -3.9035 -0.3134 -0.4531 0
M  V30 11 C -2.9478 0.8682 1.4372 0
M  V30 12 C 4.6645 0.8503 1.8653 0
M  V30 13 C -5.0248 0.5208 -0.4047 0
M  V30 14 C -4.0709 1.7003 1.4819 0
M  V30 15 C -5.1095 1.5255 0.5632 0
M  V30 16 H 1.3609 0.3201 -1.747 0
M  V30 17 H -1.02 -0.2946 -1.533 0
M  V30 18 H -0.3052 0.5926 -0.112 0
M  V30 19 H 1.6434 -2.6439 -2.5093 0
M  V30 20 H 2.2488 -1.2175 -3.4407 0
M  V30 21 H 0.4751 -1.46 -3.2164 0
M  V30 22 H -1.2088 -1.163 1.4204 0
M  V30 23 H -1.9134 -2.0348 0.0232 0
M  V30 24 H 3.0166 1.0885 -0.3252 0
M  V30 25 H 2.2315 0.0063 0.9086 0
M  V30 26 H 5.1744 -0.1176 4.0E-4 0
M  V30 27 H 4.3958 -1.1951 1.2189 0
M  V30 28 H -3.846 -1.082 -1.2137 0
M  V30 29 H -2.1458 1.02 2.149 0
M  V30 30 H 3.8928 0.7925 2.6623 0
M  V30 31 H 4.6745 1.8756 1.4378 0
M  V30 32 H 5.6576 0.6446 2.3173 0
M  V30 33 H -5.8267 0.3907 -1.1199 0
M  V30 34 H -4.1345 2.4829 2.2269 0
M  V30 35 H -5.9774 2.1711 0.5984 0
M  V30 END ATOM
M  V30 BEGIN BOND
M  V30 1 1 1 2
M  V30 2 1 1 3
M  V30 3 1 2 4
M  V30 4 1 2 5
M  V30 5 1 3 6
M  V30 6 1 4 7
M  V30 7 1 6 8
M  V30 8 1 7 9
M  V30 9 2 8 10
M  V30 10 1 8 11
M  V30 11 1 9 12
M  V30 12 1 10 13
M  V30 13 2 11 14
M  V30 14 2 13 15
M  V30 15 1 14 15
M  V30 16 1 2 16
M  V30 17 1 3 17
M  V30 18 1 3 18
M  V30 19 1 5 19
M  V30 20 1 5 20
M  V30 21 1 5 21
M  V30 22 1 6 22
M  V30 23 1 6 23
M  V30 24 1 7 24
M  V30 25 1 7 25
M  V30 26 1 9 26
M  V30 27 1 9 27
M  V30 28 1 10 28
M  V30 29 1 11 29
M  V30 30 1 12 30
M  V30 31 1 12 31
M  V30 32 1 12 32
M  V30 33 1 13 33
M  V30 34 1 14 34
M  V30 35 1 15 35
M  V30 END BOND
M  V30 BEGIN COLLECTION
M  V30 MDLV30/STEABS ATOMS=(1 2)
M  V30 END COLLECTION
M  V30 END CTAB
M  END
>  <Structure No>
149

>  <LogS>
-3.384192904

>  <MMFF94 Energy>
17.328

$$$$
Compound 150
Actelion Java MolfileCreator 2.0

  0  0  0  0  0  0              0 V3000
M  V30 BEGIN CTAB
M  V30 COUNTS 35 34 0 0 0
M  V30 BEGIN ATOM
M  V30 1 O -2.5619 0.1551 -0.6206 0
M  V30 2 C -1.2222 0.0161 -0.1593 0
M  V30 3 C -3.4861 -0.2024 0.3849 0
M  V30 4 O -0.5406 -0.896 -1.0032 0
M  V30 5 C -0.5059 1.4056 -0.2171 0
M  V30 6 C -0.9727 -2.217 -0.7619 0
M  V30 7 C 0.9291 1.3294 0.3938 0
M  V30 8 C -0.4495 1.9289 -1.6729 0
M  V30 9 C -1.3068 2.4275 0.6244 0
M  V30 10 C 1.8823 0.4261 -0.3627 0
M  V30 11 C 2.3948 -0.7315 0.1122 0
M  V30 12 C 3.2994 -1.5354 -0.7856 0
M  V30 13 C 2.0899 -1.2377 1.5019 0
M  V30 14 H -1.1495 -0.3258 0.9064 0
M  V30 15 H -3.3582 -1.2637 0.6905 0
M  V30 16 H -4.5122 -0.0879 -0.0199 0
M  V30 17 H -3.3944 0.4652 1.2692 0
M  V30 18 H -2.025 -2.3569 -1.0902 0
M  V30 19 H -0.853 -2.5045 0.3058 0
M  V30 20 H -0.3431 -2.906 -1.361 0
M  V30 21 H 0.8572 1.0418 1.4632 0
M  V30 22 H 1.3816 2.3452 0.3898 0
M  V30 23 H 0.0995 2.8941 -1.7199 0
M  V30 24 H -1.4733 2.0958 -2.0715 0
M  V30 25 H 0.0581 1.2079 -2.3464 0
M  V30 26 H -1.405 2.0799 1.6755 0
M  V30 27 H -0.7978 3.4158 0.6334 0
M  V30 28 H -2.3263 2.5813 0.2105 0
M  V30 29 H 2.158 0.7389 -1.3663 0
M  V30 30 H 4.1834 -0.9264 -1.0708 0
M  V30 31 H 2.7487 -1.8293 -1.7043 0
M  V30 32 H 3.6606 -2.4588 -0.2872 0
M  V30 33 H 2.4668 -0.5164 2.2571 0
M  V30 34 H 0.9965 -1.3725 1.6295 0
M  V30 35 H 2.5754 -2.2165 1.695 0
M  V30 END ATOM
M  V30 BEGIN BOND
M  V30 1 1 1 2
M  V30 2 1 1 3
M  V30 3 1 2 4
M  V30 4 1 2 5
M  V30 5 1 4 6
M  V30 6 1 5 7
M  V30 7 1 5 8
M  V30 8 1 5 9
M  V30 9 1 7 10
M  V30 10 2 10 11
M  V30 11 1 11 12
M  V30 12 1 11 13
M  V30 13 1 2 14
M  V30 14 1 3 15
M  V30 15 1 3 16
M  V30 16 1 3 17
M  V30 17 1 6 18
M  V30 18 1 6 19
M  V30 19 1 6 20
M  V30 20 1 7 21
M  V30 21 1 7 22
M  V30 22 1 8 23
M  V30 23 1 8 24
M  V30 24 1 8 25
M  V30 25 1 9 26
M  V30 26 1 9 27
M  V30 27 1 9 28
M  V30 28 1 10 29
M  V30 29 1 12 30
M  V30 30 1 12 31
M  V30 31 1 12 32
M  V30 32 1 13 33
M  V30 33 1 13 34
M  V30 34 1 13 35
M  V30 END BOND
M  V30 END CTAB
M  END
>  <Structure No>
150

>  <LogS>
-3.339761604

>  <MMFF94 Energy>
21.962

$$$$
Compound 151
Actelion Java MolfileCreator 2.0

  0  0  0  0  0  0              0 V3000
M  V30 BEGIN CTAB
M  V30 COUNTS 32 32 0 0 0
M  V30 BEGIN ATOM
M  V30 1 O -1.1009 1.0223 0.7076 0
M  V30 2 C -1.4689 -0.2159 0.0959 0
M  V30 3 C -2.1935 1.8771 0.9868 0
M  V30 4 C -0.1308 -0.9312 -0.3219 0 CFG=2
M  V30 5 C -2.2527 -1.1176 1.0929 0
M  V30 6 C -2.3517 -0.0158 -1.1716 0
M  V30 7 C 0.8261 -1.2045 0.8897 0
M  V30 8 C 0.5928 -0.1852 -1.4936 0
M  V30 9 C 1.9707 -0.2285 0.9792 0
M  V30 10 C 2.1154 -0.3586 -1.4608 0
M  V30 11 C 2.6255 0.1404 -0.1326 0
M  V30 12 C 3.7711 1.1104 -0.0502 0
M  V30 13 H -3.0104 1.3677 1.5375 0
M  V30 14 H -1.8322 2.6994 1.6374 0
M  V30 15 H -2.5766 2.3472 0.0569 0
M  V30 16 H -0.4059 -1.9334 -0.7241 0
M  V30 17 H -2.1925 -2.1871 0.7984 0
M  V30 18 H -3.3309 -0.8536 1.1252 0
M  V30 19 H -1.8686 -1.0061 2.1275 0
M  V30 20 H -2.4351 -0.9657 -1.7424 0
M  V30 21 H -1.9297 0.7642 -1.8384 0
M  V30 22 H -3.383 0.3001 -0.9054 0
M  V30 23 H 1.2706 -2.2159 0.7623 0
M  V30 24 H 0.3022 -1.2222 1.8634 0
M  V30 25 H 0.384 0.9065 -1.4451 0
M  V30 26 H 0.2077 -0.5546 -2.4691 0
M  V30 27 H 2.2619 0.1664 1.9488 0
M  V30 28 H 2.3736 -1.4332 -1.579 0
M  V30 29 H 2.571 0.2042 -2.3033 0
M  V30 30 H 4.5788 0.6823 0.5803 0
M  V30 31 H 4.1889 1.3255 -1.0558 0
M  V30 32 H 3.4242 2.0647 0.3998 0
M  V30 END ATOM
M  V30 BEGIN BOND
M  V30 1 1 1 2
M  V30 2 1 1 3
M  V30 3 1 2 4
M  V30 4 1 2 5
M  V30 5 1 2 6
M  V30 6 1 4 7
M  V30 7 1 4 8
M  V30 8 1 7 9
M  V30 9 1 8 10
M  V30 10 2 9 11
M  V30 11 1 11 12
M  V30 12 1 10 11
M  V30 13 1 3 13
M  V30 14 1 3 14
M  V30 15 1 3 15
M  V30 16 1 4 16
M  V30 17 1 5 17
M  V30 18 1 5 18
M  V30 19 1 5 19
M  V30 20 1 6 20
M  V30 21 1 6 21
M  V30 22 1 6 22
M  V30 23 1 7 23
M  V30 24 1 7 24
M  V30 25 1 8 25
M  V30 26 1 8 26
M  V30 27 1 9 27
M  V30 28 1 10 28
M  V30 29 1 10 29
M  V30 30 1 12 30
M  V30 31 1 12 31
M  V30 32 1 12 32
M  V30 END BOND
M  V30 BEGIN COLLECTION
M  V30 MDLV30/STEABS ATOMS=(1 4)
M  V30 END COLLECTION
M  V30 END CTAB
M  END
>  <Structure No>
151

>  <LogS>
-3.296613578

>  <MMFF94 Energy>
34.156

$$$$
Compound 152
Actelion Java MolfileCreator 2.0

  0  0  0  0  0  0              0 V3000
M  V30 BEGIN CTAB
M  V30 COUNTS 14 14 0 0 0
M  V30 BEGIN ATOM
M  V30 1 Cl -1.8908 2.2349 -0.2576 0
M  V30 2 C -0.5945 1.0529 -0.1151 0
M  V30 3 C -0.8446 -0.3272 0.072 0
M  V30 4 C 0.7218 1.5117 -0.2518 0
M  V30 5 N -2.1811 -0.8378 0.2337 0 CHG=1
M  V30 6 C 0.2451 -1.2182 0.0965 0
M  V30 7 C 1.7918 0.6166 -0.2112 0
M  V30 8 O -2.4443 -2.0173 -0.0801 0
M  V30 9 O -3.1451 -0.0962 0.8763 0 CHG=-1
M  V30 10 C 1.5546 -0.7482 -0.0408 0
M  V30 11 Cl 2.9004 -1.8726 0.0037 0
M  V30 12 H 0.917 2.5663 -0.4004 0
M  V30 13 H 0.0787 -2.2788 0.2385 0
M  V30 14 H 2.804 0.9846 -0.3195 0
M  V30 END ATOM
M  V30 BEGIN BOND
M  V30 1 1 1 2
M  V30 2 2 2 3
M  V30 3 1 2 4
M  V30 4 1 3 5
M  V30 5 1 3 6
M  V30 6 2 4 7
M  V30 7 2 5 8
M  V30 8 1 5 9
M  V30 9 2 6 10
M  V30 10 1 10 11
M  V30 11 1 7 10
M  V30 12 1 4 12
M  V30 13 1 6 13
M  V30 14 1 7 14
M  V30 END BOND
M  V30 END CTAB
M  END
>  <Structure No>
152

>  <LogS>
-3.364225398

>  <MMFF94 Energy>
25.035

$$$$
Compound 153
Actelion Java MolfileCreator 2.0

  0  0  0  0  0  0              0 V3000
M  V30 BEGIN CTAB
M  V30 COUNTS 30 29 0 0 0
M  V30 BEGIN ATOM
M  V30 1 O -0.6971 0.7746 3.3343 0
M  V30 2 C -1.3858 0.2257 2.2356 0 CFG=1
M  V30 3 C -2.2502 1.2551 1.6181 0
M  V30 4 C -0.3597 -0.287 1.1988 0
M  V30 5 C -2.2636 -0.9468 2.7075 0
M  V30 6 C -2.9533 2.0943 1.1129 0
M  V30 7 C 0.645 0.7917 0.7566 0
M  V30 8 C 1.5678 0.2529 -0.3074 0
M  V30 9 C 1.303 0.2823 -1.6337 0
M  V30 10 C 2.2952 -0.3351 -2.5946 0
M  V30 11 C 0.0584 0.9405 -2.1828 0
M  V30 12 C 2.2128 -1.8586 -2.5623 0
M  V30 13 H -1.3697 1.0991 3.9904 0
M  V30 14 H -0.8991 -0.6853 0.3113 0
M  V30 15 H 0.2126 -1.1328 1.6412 0
M  V30 16 H -2.7865 -1.4189 1.8473 0
M  V30 17 H -1.6394 -1.7169 3.2092 0
M  V30 18 H -3.0293 -0.5958 3.4331 0
M  V30 19 H -3.5699 2.8308 0.6689 0
M  V30 20 H 1.2641 1.0891 1.6299 0
M  V30 21 H 0.1262 1.7058 0.4008 0
M  V30 22 H 2.489 -0.2111 0.0356 0
M  V30 23 H 3.3264 -0.0113 -2.3335 0
M  V30 24 H 2.1011 0.0073 -3.6336 0
M  V30 25 H 0.0732 2.0272 -1.9561 0
M  V30 26 H -0.0095 0.8219 -3.2841 0
M  V30 27 H -0.8494 0.4825 -1.7405 0
M  V30 28 H 2.4671 -2.2418 -1.5512 0
M  V30 29 H 2.9317 -2.2853 -3.2929 0
M  V30 30 H 1.1884 -2.1929 -2.8335 0
M  V30 END ATOM
M  V30 BEGIN BOND
M  V30 1 1 1 2
M  V30 2 1 2 3
M  V30 3 1 2 4
M  V30 4 1 2 5
M  V30 5 3 3 6
M  V30 6 1 4 7
M  V30 7 1 7 8
M  V30 8 2 8 9
M  V30 9 1 9 10
M  V30 10 1 9 11
M  V30 11 1 10 12
M  V30 12 1 1 13
M  V30 13 1 4 14
M  V30 14 1 4 15
M  V30 15 1 5 16
M  V30 16 1 5 17
M  V30 17 1 5 18
M  V30 18 1 6 19
M  V30 19 1 7 20
M  V30 20 1 7 21
M  V30 21 1 8 22
M  V30 22 1 10 23
M  V30 23 1 10 24
M  V30 24 1 11 25
M  V30 25 1 11 26
M  V30 26 1 11 27
M  V30 27 1 12 28
M  V30 28 1 12 29
M  V30 29 1 12 30
M  V30 END BOND
M  V30 BEGIN COLLECTION
M  V30 MDLV30/STEABS ATOMS=(1 2)
M  V30 END COLLECTION
M  V30 END CTAB
M  END
>  <Structure No>
153

>  <LogS>
-2.302767888

>  <MMFF94 Energy>
14.516

$$$$
Compound 154
Actelion Java MolfileCreator 2.0

  0  0  0  0  0  0              0 V3000
M  V30 BEGIN CTAB
M  V30 COUNTS 33 34 0 0 0
M  V30 BEGIN ATOM
M  V30 1 O -4.6879 1.6666 1.4284 0
M  V30 2 C -3.5345 0.9726 1.0702 0
M  V30 3 C -2.3189 1.229 1.7116 0
M  V30 4 C -3.5942 0.0084 0.0628 0
M  V30 5 C -1.1687 0.5273 1.3432 0
M  V30 6 C -2.4465 -0.697 -0.3105 0
M  V30 7 C -1.2038 -0.4378 0.3126 0
M  V30 8 C 0.0848 -1.2062 -0.0392 0
M  V30 9 C 1.2361 -0.2052 -0.2573 0
M  V30 10 C 0.3515 -2.1943 1.122 0
M  V30 11 C -0.0405 -2.0387 -1.338 0
M  V30 12 C 2.511 -0.3608 0.3346 0
M  V30 13 C 1.0413 0.8863 -1.1323 0
M  V30 14 C 3.5324 0.5603 0.0842 0
M  V30 15 C 2.0659 1.8033 -1.3783 0
M  V30 16 C 3.3118 1.6453 -0.7703 0
M  V30 17 O 4.3239 2.5681 -1.0242 0
M  V30 18 H -4.6772 2.3714 2.1564 0
M  V30 19 H -2.264 1.9697 2.4993 0
M  V30 20 H -4.5352 -0.1985 -0.4309 0
M  V30 21 H -0.2433 0.7401 1.8639 0
M  V30 22 H -2.5499 -1.4396 -1.0875 0
M  V30 23 H 1.1957 -2.8771 0.8854 0
M  V30 24 H 0.5818 -1.6513 2.0638 0
M  V30 25 H -0.5441 -2.8279 1.3039 0
M  V30 26 H -0.3624 -1.4027 -2.1907 0
M  V30 27 H -0.7672 -2.8705 -1.2159 0
M  V30 28 H 0.9394 -2.4928 -1.6022 0
M  V30 29 H 2.736 -1.1863 0.9931 0
M  V30 30 H 0.0883 1.03 -1.6261 0
M  V30 31 H 4.4987 0.4266 0.5536 0
M  V30 32 H 1.8912 2.637 -2.0466 0
M  V30 33 H 5.2394 2.4803 -0.5988 0
M  V30 END ATOM
M  V30 BEGIN BOND
M  V30 1 1 1 2
M  V30 2 2 2 3
M  V30 3 1 2 4
M  V30 4 1 3 5
M  V30 5 2 4 6
M  V30 6 2 5 7
M  V30 7 1 7 8
M  V30 8 1 8 9
M  V30 9 1 8 10
M  V30 10 1 8 11
M  V30 11 2 9 12
M  V30 12 1 9 13
M  V30 13 1 12 14
M  V30 14 2 13 15
M  V30 15 2 14 16
M  V30 16 1 16 17
M  V30 17 1 6 7
M  V30 18 1 15 16
M  V30 19 1 1 18
M  V30 20 1 3 19
M  V30 21 1 4 20
M  V30 22 1 5 21
M  V30 23 1 6 22
M  V30 24 1 10 23
M  V30 25 1 10 24
M  V30 26 1 10 25
M  V30 27 1 11 26
M  V30 28 1 11 27
M  V30 29 1 11 28
M  V30 30 1 12 29
M  V30 31 1 13 30
M  V30 32 1 14 31
M  V30 33 1 15 32
M  V30 34 1 17 33
M  V30 END BOND
M  V30 END CTAB
M  END
>  <Structure No>
154

>  <LogS>
-3.680444963

>  <MMFF94 Energy>
42.649

$$$$
Compound 155
Actelion Java MolfileCreator 2.0

  0  0  0  0  0  0              0 V3000
M  V30 BEGIN CTAB
M  V30 COUNTS 20 21 0 0 0
M  V30 BEGIN ATOM
M  V30 1 O 1.5296 -1.5296 1.8519 0
M  V30 2 C 1.9161 -0.7505 0.9413 0
M  V30 3 N 1.0443 0.0038 0.1046 0
M  V30 4 C 3.3129 -0.452 0.6348 0
M  V30 5 C -0.3941 0.0072 0.0788 0
M  V30 6 C 1.9491 0.7538 -0.7002 0
M  V30 7 C 3.3327 0.4485 -0.3438 0
M  V30 8 C -1.1143 -1.175 0.3235 0
M  V30 9 C -1.0993 1.1932 -0.1914 0
M  V30 10 O 1.5993 1.5347 -1.624 0
M  V30 11 C -2.5124 -1.1695 0.2972 0
M  V30 12 C -2.4975 1.1946 -0.2152 0
M  V30 13 C -3.2037 0.0142 0.0284 0
M  V30 14 H 4.1843 -0.8767 1.1153 0
M  V30 15 H 4.2227 0.869 -0.7926 0
M  V30 16 H -0.5971 -2.1061 0.5128 0
M  V30 17 H -0.5711 2.1218 -0.3618 0
M  V30 18 H -3.0602 -2.0847 0.4815 0
M  V30 19 H -3.0338 2.1124 -0.4188 0
M  V30 20 H -4.2859 0.0169 0.0091 0
M  V30 END ATOM
M  V30 BEGIN BOND
M  V30 1 2 1 2
M  V30 2 1 2 3
M  V30 3 1 2 4
M  V30 4 1 3 5
M  V30 5 1 3 6
M  V30 6 2 4 7
M  V30 7 2 5 8
M  V30 8 1 5 9
M  V30 9 2 6 10
M  V30 10 1 8 11
M  V30 11 2 9 12
M  V30 12 2 11 13
M  V30 13 1 6 7
M  V30 14 1 12 13
M  V30 15 1 4 14
M  V30 16 1 7 15
M  V30 17 1 8 16
M  V30 18 1 9 17
M  V30 19 1 11 18
M  V30 20 1 12 19
M  V30 21 1 13 20
M  V30 END BOND
M  V30 END CTAB
M  END
>  <Structure No>
155

>  <LogS>
-2.327317556

>  <MMFF94 Energy>
-6.8047

$$$$
Compound 156
Actelion Java MolfileCreator 2.0

  0  0  0  0  0  0              0 V3000
M  V30 BEGIN CTAB
M  V30 COUNTS 26 27 0 0 0
M  V30 BEGIN ATOM
M  V30 1 O -1.1026 -0.945 -2.5217 0
M  V30 2 C -1.705 -0.5448 -1.4901 0
M  V30 3 N -1.0987 -0.1251 -0.3589 0
M  V30 4 C -3.0745 -0.4436 -1.3625 0
M  V30 5 N -2.0416 0.2523 0.492 0
M  V30 6 C 0.314 -0.074 -0.0817 0
M  V30 7 C -3.2448 0.0781 -0.0913 0
M  V30 8 C 1.1797 -1.0728 -0.56 0
M  V30 9 C 0.8429 0.975 0.6881 0
M  V30 10 C -4.5521 0.3196 0.588 0
M  V30 11 C 2.548 -1.0182 -0.279 0
M  V30 12 C 2.2114 1.0297 0.9675 0
M  V30 13 C 3.0702 0.0258 0.4978 0
M  V30 14 C 4.544 0.1053 0.7651 0
M  V30 15 H -3.8354 -0.7093 -2.0847 0
M  V30 16 H -1.8735 0.5969 1.464 0
M  V30 17 H 0.7973 -1.9065 -1.1332 0
M  V30 18 H 0.1994 1.7638 1.0556 0
M  V30 19 H -4.4523 1.1503 1.3175 0
M  V30 20 H -4.8659 -0.6005 1.1227 0
M  V30 21 H -5.3268 0.591 -0.1597 0
M  V30 22 H 3.199 -1.7942 -0.6622 0
M  V30 23 H 2.6009 1.856 1.5493 0
M  V30 24 H 4.7396 0.61 1.7352 0
M  V30 25 H 5.0358 0.6795 -0.0473 0
M  V30 26 H 4.9891 -0.9112 0.8114 0
M  V30 END ATOM
M  V30 BEGIN BOND
M  V30 1 2 1 2
M  V30 2 1 2 3
M  V30 3 1 2 4
M  V30 4 1 3 5
M  V30 5 1 3 6
M  V30 6 2 4 7
M  V30 7 2 6 8
M  V30 8 1 6 9
M  V30 9 1 7 10
M  V30 10 1 8 11
M  V30 11 2 9 12
M  V30 12 2 11 13
M  V30 13 1 13 14
M  V30 14 1 5 7
M  V30 15 1 12 13
M  V30 16 1 4 15
M  V30 17 1 5 16
M  V30 18 1 8 17
M  V30 19 1 9 18
M  V30 20 1 10 19
M  V30 21 1 10 20
M  V30 22 1 10 21
M  V30 23 1 11 22
M  V30 24 1 12 23
M  V30 25 1 14 24
M  V30 26 1 14 25
M  V30 27 1 14 26
M  V30 END BOND
M  V30 END CTAB
M  END
>  <Structure No>
156

>  <LogS>
-2.365667988

>  <MMFF94 Energy>
61.334

$$$$
Compound 157
Actelion Java MolfileCreator 2.0

  0  0  0  0  0  0              0 V3000
M  V30 BEGIN CTAB
M  V30 COUNTS 29 29 0 0 0
M  V30 BEGIN ATOM
M  V30 1 O -2.9905 0.7076 0.3931 0
M  V30 2 C -2.1861 0.4006 -0.4731 0
M  V30 3 C -1.5285 -0.9603 -0.4365 0
M  V30 4 C -1.8931 1.3787 -1.5722 0
M  V30 5 C -0.334 -1.0469 0.5618 0
M  V30 6 C 0.7158 0.0402 0.2431 0
M  V30 7 C 0.3305 -2.4354 0.4164 0
M  V30 8 C -0.8784 -0.9614 2.0118 0
M  V30 9 C 1.1101 1.0233 1.1831 0
M  V30 10 C 1.3154 0.0773 -1.0369 0
M  V30 11 C 2.0547 1.9978 0.8477 0
M  V30 12 C 2.2578 1.0553 -1.3637 0
M  V30 13 C 2.6267 2.0149 -0.423 0
M  V30 14 H -2.2995 -1.7186 -0.1751 0
M  V30 15 H -1.1898 -1.2272 -1.4604 0
M  V30 16 H -1.179 0.9573 -2.3096 0
M  V30 17 H -2.8345 1.639 -2.0998 0
M  V30 18 H -1.4514 2.3002 -1.1384 0
M  V30 19 H -0.3835 -3.2444 0.684 0
M  V30 20 H 1.2146 -2.5151 1.0855 0
M  V30 21 H 0.6671 -2.6224 -0.6244 0
M  V30 22 H -0.0614 -1.1178 2.7494 0
M  V30 23 H -1.646 -1.7453 2.1905 0
M  V30 24 H -1.3509 0.0215 2.2145 0
M  V30 25 H 0.7018 1.0575 2.1819 0
M  V30 26 H 1.0508 -0.6465 -1.795 0
M  V30 27 H 2.3439 2.743 1.5777 0
M  V30 28 H 2.7019 1.0691 -2.3506 0
M  V30 29 H 3.3569 2.7718 -0.6786 0
M  V30 END ATOM
M  V30 BEGIN BOND
M  V30 1 2 1 2
M  V30 2 1 2 3
M  V30 3 1 2 4
M  V30 4 1 3 5
M  V30 5 1 5 6
M  V30 6 1 5 7
M  V30 7 1 5 8
M  V30 8 2 6 9
M  V30 9 1 6 10
M  V30 10 1 9 11
M  V30 11 2 10 12
M  V30 12 2 11 13
M  V30 13 1 12 13
M  V30 14 1 3 14
M  V30 15 1 3 15
M  V30 16 1 4 16
M  V30 17 1 4 17
M  V30 18 1 4 18
M  V30 19 1 7 19
M  V30 20 1 7 20
M  V30 21 1 7 21
M  V30 22 1 8 22
M  V30 23 1 8 23
M  V30 24 1 8 24
M  V30 25 1 9 25
M  V30 26 1 10 26
M  V30 27 1 11 27
M  V30 28 1 12 28
M  V30 29 1 13 29
M  V30 END BOND
M  V30 END CTAB
M  END
>  <Structure No>
157

>  <LogS>
-2.337666283

>  <MMFF94 Energy>
35.531

$$$$
Compound 158
Actelion Java MolfileCreator 2.0

  0  0  0  0  0  0              0 V3000
M  V30 BEGIN CTAB
M  V30 COUNTS 26 25 0 0 0
M  V30 BEGIN ATOM
M  V30 1 O -1.8623 1.5517 0.0775 0
M  V30 2 C -2.2316 0.5113 0.6877 0
M  V30 3 O -1.2926 -0.3894 1.2024 0
M  V30 4 C -3.6895 0.2118 0.8286 0
M  V30 5 C 0.115 -0.2362 1.0341 0
M  V30 6 C -4.1661 -0.671 -0.3182 0
M  V30 7 C 0.5255 -0.6135 -0.3949 0
M  V30 8 C 2.0497 -0.6501 -0.584 0
M  V30 9 C 2.6797 0.7499 -0.559 0
M  V30 10 C 4.1714 0.6866 -0.8743 0
M  V30 11 H -4.2714 1.159 0.8338 0
M  V30 12 H -3.8668 -0.3092 1.7937 0
M  V30 13 H 0.6249 -0.9122 1.7529 0
M  V30 14 H 0.41 0.8078 1.2726 0
M  V30 15 H -3.6093 -1.6325 -0.322 0
M  V30 16 H -5.2483 -0.8873 -0.1958 0
M  V30 17 H -4.0142 -0.1553 -1.2906 0
M  V30 18 H 0.1223 -1.625 -0.6192 0
M  V30 19 H 0.0732 0.095 -1.1217 0
M  V30 20 H 2.512 -1.2882 0.2007 0
M  V30 21 H 2.2612 -1.1213 -1.5689 0
M  V30 22 H 2.182 1.4012 -1.3101 0
M  V30 23 H 2.5532 1.2074 0.4448 0
M  V30 24 H 4.697 0.0547 -0.1269 0
M  V30 25 H 4.6024 1.7094 -0.8404 0
M  V30 26 H 4.3343 0.2668 -1.8896 0
M  V30 END ATOM
M  V30 BEGIN BOND
M  V30 1 2 1 2
M  V30 2 1 2 3
M  V30 3 1 2 4
M  V30 4 1 3 5
M  V30 5 1 4 6
M  V30 6 1 5 7
M  V30 7 1 7 8
M  V30 8 1 8 9
M  V30 9 1 9 10
M  V30 10 1 4 11
M  V30 11 1 4 12
M  V30 12 1 5 13
M  V30 13 1 5 14
M  V30 14 1 6 15
M  V30 15 1 6 16
M  V30 16 1 6 17
M  V30 17 1 7 18
M  V30 18 1 7 19
M  V30 19 1 8 20
M  V30 20 1 8 21
M  V30 21 1 9 22
M  V30 22 1 9 23
M  V30 23 1 10 24
M  V30 24 1 10 25
M  V30 25 1 10 26
M  V30 END BOND
M  V30 END CTAB
M  END
>  <Structure No>
158

>  <LogS>
-2.250522404

>  <MMFF94 Energy>
-13.19

$$$$
Compound 159
Actelion Java MolfileCreator 2.0

  0  0  0  0  0  0              0 V3000
M  V30 BEGIN CTAB
M  V30 COUNTS 6 5 0 0 0
M  V30 BEGIN ATOM
M  V30 1 Cl 1.7036 -1.2551 0.0896 0
M  V30 2 C 0.5949 0.1077 0.0358 0
M  V30 3 F 1.097 1.37 0.0662 0
M  V30 4 C -0.7239 -0.0849 -0.0337 0
M  V30 5 F -1.5666 0.9801 -0.0745 0
M  V30 6 F -1.2398 -1.3421 -0.0647 0
M  V30 END ATOM
M  V30 BEGIN BOND
M  V30 1 1 1 2
M  V30 2 1 2 3
M  V30 3 2 2 4
M  V30 4 1 4 5
M  V30 5 1 4 6
M  V30 END BOND
M  V30 END CTAB
M  END
>  <Structure No>
159

>  <LogS>
-2.160954298

>  <MMFF94 Energy>
7.3162

$$$$
Compound 160
Actelion Java MolfileCreator 2.0

  0  0  0  0  0  0              0 V3000
M  V30 BEGIN CTAB
M  V30 COUNTS 46 45 0 0 0
M  V30 BEGIN ATOM
M  V30 1 O 5.0559 -1.5535 -0.3105 0
M  V30 2 C 5.8591 -0.6626 -1.0567 0
M  V30 3 C 3.7234 -1.0812 -0.2383 0
M  V30 4 C 7.312 -1.1225 -0.9872 0
M  V30 5 C 3.5103 -0.3032 1.0675 0
M  V30 6 O 8.1274 -0.2803 -1.7554 0
M  V30 7 C 2.0347 0.0462 1.3178 0
M  V30 8 C 1.5049 1.1063 0.3361 0
M  V30 9 C 0.1283 1.6539 0.745 0
M  V30 10 C -0.99 0.6112 0.5985 0
M  V30 11 C -2.3642 1.2393 0.8751 0
M  V30 12 C -3.4985 0.2026 0.8875 0
M  V30 13 C -3.7774 -0.3892 -0.5052 0
M  V30 14 C -5.0513 -1.2602 -0.523 0
M  V30 15 C -6.272 -0.5518 -1.1341 0
M  V30 16 C -6.7684 0.6202 -0.2906 0
M  V30 17 H 5.7967 0.372 -0.6488 0
M  V30 18 H 5.5403 -0.6603 -2.1237 0
M  V30 19 H 3.0541 -1.9677 -0.2369 0
M  V30 20 H 3.428 -0.465 -1.1195 0
M  V30 21 H 7.6575 -1.1391 0.0716 0
M  V30 22 H 7.3889 -2.1547 -1.39 0
M  V30 23 H 3.8664 -0.9314 1.9131 0
M  V30 24 H 4.1206 0.6251 1.0624 0
M  V30 25 H 8.2571 0.5497 -1.2262 0
M  V30 26 H 1.9477 0.4373 2.3551 0
M  V30 27 H 1.4223 -0.8782 1.2521 0
M  V30 28 H 2.2165 1.9602 0.3055 0
M  V30 29 H 1.4404 0.6824 -0.6886 0
M  V30 30 H 0.1667 2.0238 1.7932 0
M  V30 31 H -0.1029 2.5229 0.0904 0
M  V30 32 H -0.821 -0.2189 1.3168 0
M  V30 33 H -0.9691 0.202 -0.4338 0
M  V30 34 H -2.5818 2.0239 0.1173 0
M  V30 35 H -2.3399 1.7322 1.8719 0
M  V30 36 H -3.251 -0.6155 1.5987 0
M  V30 37 H -4.4121 0.704 1.2692 0
M  V30 38 H -3.8478 0.4227 -1.2619 0
M  V30 39 H -2.9168 -1.0307 -0.7923 0
M  V30 40 H -5.299 -1.6338 0.4951 0
M  V30 41 H -4.8481 -2.1592 -1.1453 0
M  V30 42 H -6.0309 -0.1952 -2.159 0
M  V30 43 H -7.0971 -1.2913 -1.2235 0
M  V30 44 H -7.725 0.9973 -0.7095 0
M  V30 45 H -6.0333 1.4516 -0.3095 0
M  V30 46 H -6.9442 0.2985 0.7579 0
M  V30 END ATOM
M  V30 BEGIN BOND
M  V30 1 1 1 2
M  V30 2 1 1 3
M  V30 3 1 2 4
M  V30 4 1 3 5
M  V30 5 1 4 6
M  V30 6 1 5 7
M  V30 7 1 7 8
M  V30 8 1 8 9
M  V30 9 1 9 10
M  V30 10 1 10 11
M  V30 11 1 11 12
M  V30 12 1 12 13
M  V30 13 1 13 14
M  V30 14 1 14 15
M  V30 15 1 15 16
M  V30 16 1 2 17
M  V30 17 1 2 18
M  V30 18 1 3 19
M  V30 19 1 3 20
M  V30 20 1 4 21
M  V30 21 1 4 22
M  V30 22 1 5 23
M  V30 23 1 5 24
M  V30 24 1 6 25
M  V30 25 1 7 26
M  V30 26 1 7 27
M  V30 27 1 8 28
M  V30 28 1 8 29
M  V30 29 1 9 30
M  V30 30 1 9 31
M  V30 31 1 10 32
M  V30 32 1 10 33
M  V30 33 1 11 34
M  V30 34 1 11 35
M  V30 35 1 12 36
M  V30 36 1 12 37
M  V30 37 1 13 38
M  V30 38 1 13 39
M  V30 39 1 14 40
M  V30 40 1 14 41
M  V30 41 1 15 42
M  V30 42 1 15 43
M  V30 43 1 16 44
M  V30 44 1 16 45
M  V30 45 1 16 46
M  V30 END BOND
M  V30 END CTAB
M  END
>  <Structure No>
160

>  <LogS>
-1.459377408

>  <MMFF94 Energy>
23.58

$$$$
Compound 161
Actelion Java MolfileCreator 2.0

  0  0  0  0  0  0              0 V3000
M  V30 BEGIN CTAB
M  V30 COUNTS 37 36 0 0 0
M  V30 BEGIN ATOM
M  V30 1 O 6.3167 1.5567 0.6224 0
M  V30 2 C 5.3708 1.0072 1.246 0
M  V30 3 O 4.6137 1.7506 2.1427 0 CHG=-1
M  V30 4 C 5.039 -0.4319 0.9957 0
M  V30 5 C 4.2472 -0.6162 -0.3057 0
M  V30 6 C 2.8335 -0.0221 -0.2162 0
M  V30 7 C 2.0428 -0.2913 -1.5054 0
M  V30 8 C 0.674 0.4077 -1.5182 0
M  V30 9 C -0.3232 -0.2244 -0.5357 0
M  V30 10 C -1.7114 0.4116 -0.6773 0
M  V30 11 C -2.7066 -0.2101 0.3102 0
M  V30 12 C -4.0928 0.4361 0.1739 0
M  V30 13 C -5.1534 -0.2508 1.0503 0
M  V30 14 N -4.9196 -0.0266 2.4784 0 CHG=1
M  V30 15 H 4.4619 -0.8397 1.8538 0
M  V30 16 H 5.9857 -1.0099 0.9264 0
M  V30 17 H 4.8024 -0.15 -1.1496 0
M  V30 18 H 4.1686 -1.706 -0.5124 0
M  V30 19 H 2.9022 1.0749 -0.0513 0
M  V30 20 H 2.3062 -0.4795 0.6478 0
M  V30 21 H 2.6286 0.0888 -2.371 0
M  V30 22 H 1.9077 -1.3862 -1.6455 0
M  V30 23 H 0.2607 0.3306 -2.548 0
M  V30 24 H 0.8005 1.4882 -1.2868 0
M  V30 25 H -0.3982 -1.3161 -0.7351 0
M  V30 26 H 0.0336 -0.077 0.5058 0
M  V30 27 H -2.0809 0.2603 -1.7156 0
M  V30 28 H -1.6364 1.5048 -0.4844 0
M  V30 29 H -2.7858 -1.3017 0.1126 0
M  V30 30 H -2.3265 -0.0618 1.3438 0
M  V30 31 H -4.4235 0.3615 -0.8853 0
M  V30 32 H -4.0338 1.5158 0.4338 0
M  V30 33 H -5.1731 -1.343 0.8385 0
M  V30 34 H -6.1511 0.16 0.7786 0
M  V30 35 H -5.7414 -0.3845 3.017 0
M  V30 36 H -4.0692 -0.5454 2.794 0
M  V30 37 H -4.8094 0.9947 2.6747 0
M  V30 END ATOM
M  V30 BEGIN BOND
M  V30 1 2 1 2
M  V30 2 1 2 3
M  V30 3 1 2 4
M  V30 4 1 4 5
M  V30 5 1 5 6
M  V30 6 1 6 7
M  V30 7 1 7 8
M  V30 8 1 8 9
M  V30 9 1 9 10
M  V30 10 1 10 11
M  V30 11 1 11 12
M  V30 12 1 12 13
M  V30 13 1 13 14
M  V30 14 1 4 15
M  V30 15 1 4 16
M  V30 16 1 5 17
M  V30 17 1 5 18
M  V30 18 1 6 19
M  V30 19 1 6 20
M  V30 20 1 7 21
M  V30 21 1 7 22
M  V30 22 1 8 23
M  V30 23 1 8 24
M  V30 24 1 9 25
M  V30 25 1 9 26
M  V30 26 1 10 27
M  V30 27 1 10 28
M  V30 28 1 11 29
M  V30 29 1 11 30
M  V30 30 1 12 31
M  V30 31 1 12 32
M  V30 32 1 13 33
M  V30 33 1 13 34
M  V30 34 1 14 35
M  V30 35 1 14 36
M  V30 36 1 14 37
M  V30 END BOND
M  V30 END CTAB
M  END
>  <Structure No>
161

>  <LogS>
-2.400775362

>  <MMFF94 Energy>
-112.03

$$$$
Compound 162
Actelion Java MolfileCreator 2.0

  0  0  0  0  0  0              0 V3000
M  V30 BEGIN CTAB
M  V30 COUNTS 66 67 0 0 0
M  V30 BEGIN ATOM
M  V30 1 Cl 10.4329 -2.6997 -3.0177 0
M  V30 2 C 9.7599 -1.3638 -2.1043 0
M  V30 3 C 10.5949 -0.5505 -1.334 0
M  V30 4 C 8.3861 -1.1014 -2.1547 0
M  V30 5 C 10.0559 0.5098 -0.5999 0
M  V30 6 C 7.8464 -0.0386 -1.4244 0
M  V30 7 C 8.6757 0.7572 -0.6154 0
M  V30 8 N 8.1415 1.8473 0.1552 0
M  V30 9 C 6.8984 1.7919 0.8741 0
M  V30 10 N 6.2553 0.6627 0.9592 0
M  V30 11 N 6.4556 2.9591 1.5806 0
M  V30 12 C 4.9847 0.4168 1.5807 0
M  V30 13 N 4.7976 -0.7305 2.1655 0 CHG=1
M  V30 14 N 3.9036 1.362 1.4276 0
M  V30 15 C 2.6128 1.2452 2.1078 0
M  V30 16 C 1.6897 0.2835 1.3494 0
M  V30 17 C 0.614 -0.3004 2.2781 0
M  V30 18 C -0.4055 -1.1566 1.5044 0
M  V30 19 C -1.6275 -0.3381 1.0644 0
M  V30 20 C -2.5053 -1.1298 0.0814 0
M  V30 21 N -3.9055 -0.7112 0.1779 0
M  V30 22 C -4.5168 0.2846 -0.659 0
M  V30 23 N -5.9474 0.2762 -0.7865 0
M  V30 24 N -3.8059 1.2364 -1.192 0 CHG=1
M  V30 25 C -6.6517 0.5264 -1.8541 0
M  V30 26 N -8.0851 0.5245 -1.7759 0
M  V30 27 N -6.0333 0.7731 -3.1218 0
M  V30 28 C -8.856 -0.3502 -0.9275 0
M  V30 29 C -8.3297 -1.5668 -0.4462 0
M  V30 30 C -10.1946 -0.0261 -0.6402 0
M  V30 31 C -9.1197 -2.4225 0.3253 0
M  V30 32 C -10.9825 -0.8871 0.1307 0
M  V30 33 C -10.4468 -2.0852 0.6114 0
M  V30 34 Cl -11.4478 -3.1732 1.5575 0
M  V30 35 H 11.6563 -0.7405 -1.2918 0
M  V30 36 H 7.7382 -1.7203 -2.7592 0
M  V30 37 H 10.7098 1.1271 0.0021 0
M  V30 38 H 6.7872 0.1745 -1.5078 0
M  V30 39 H 8.7454 2.6861 0.2977 0
M  V30 40 H 5.7403 2.9118 2.3393 0
M  V30 41 H 6.9236 3.8766 1.4107 0
M  V30 42 H 5.5761 -1.4229 2.2215 0
M  V30 43 H 3.8944 -1.0007 2.6041 0
M  V30 44 H 4.0374 2.1784 0.7893 0
M  V30 45 H 2.1293 2.2443 2.1533 0
M  V30 46 H 2.7714 0.9176 3.1593 0
M  V30 47 H 1.2326 0.8123 0.4903 0
M  V30 48 H 2.2837 -0.5572 0.9342 0
M  V30 49 H 1.1184 -0.949 3.0316 0
M  V30 50 H 0.1008 0.5171 2.8336 0
M  V30 51 H -0.7585 -1.9764 2.1692 0
M  V30 52 H 0.078 -1.6329 0.6212 0
M  V30 53 H -2.2148 -0.0693 1.9679 0
M  V30 54 H -1.2919 0.6045 0.5836 0
M  V30 55 H -2.132 -1.0049 -0.9561 0
M  V30 56 H -2.4548 -2.2155 0.3135 0
M  V30 57 H -4.5335 -1.2852 0.7883 0
M  V30 58 H -2.7727 1.2822 -1.0757 0
M  V30 59 H -4.2537 2.0244 -1.711 0
M  V30 60 H -8.6027 1.1686 -2.4166 0
M  V30 61 H -6.6068 1.1072 -3.9299 0
M  V30 62 H -5.0491 0.4889 -3.3186 0
M  V30 63 H -7.3255 -1.8843 -0.6896 0
M  V30 64 H -10.6268 0.8913 -1.0214 0
M  V30 65 H -8.7062 -3.3593 0.6815 0
M  V30 66 H -12.0138 -0.6287 0.3461 0
M  V30 END ATOM
M  V30 BEGIN BOND
M  V30 1 1 1 2
M  V30 2 2 2 3
M  V30 3 1 2 4
M  V30 4 1 3 5
M  V30 5 2 4 6
M  V30 6 2 5 7
M  V30 7 1 7 8
M  V30 8 1 8 9
M  V30 9 2 9 10
M  V30 10 1 9 11
M  V30 11 1 10 12
M  V30 12 2 12 13
M  V30 13 1 12 14
M  V30 14 1 14 15
M  V30 15 1 15 16
M  V30 16 1 16 17
M  V30 17 1 17 18
M  V30 18 1 18 19
M  V30 19 1 19 20
M  V30 20 1 20 21
M  V30 21 1 21 22
M  V30 22 1 22 23
M  V30 23 2 22 24
M  V30 24 2 23 25
M  V30 25 1 25 26
M  V30 26 1 25 27
M  V30 27 1 26 28
M  V30 28 2 28 29
M  V30 29 1 28 30
M  V30 30 1 29 31
M  V30 31 2 30 32
M  V30 32 2 31 33
M  V30 33 1 33 34
M  V30 34 1 6 7
M  V30 35 1 32 33
M  V30 36 1 3 35
M  V30 37 1 4 36
M  V30 38 1 5 37
M  V30 39 1 6 38
M  V30 40 1 8 39
M  V30 41 1 11 40
M  V30 42 1 11 41
M  V30 43 1 13 42
M  V30 44 1 13 43
M  V30 45 1 14 44
M  V30 46 1 15 45
M  V30 47 1 15 46
M  V30 48 1 16 47
M  V30 49 1 16 48
M  V30 50 1 17 49
M  V30 51 1 17 50
M  V30 52 1 18 51
M  V30 53 1 18 52
M  V30 54 1 19 53
M  V30 55 1 19 54
M  V30 56 1 20 55
M  V30 57 1 20 56
M  V30 58 1 21 57
M  V30 59 1 24 58
M  V30 60 1 24 59
M  V30 61 1 26 60
M  V30 62 1 27 61
M  V30 63 1 27 62
M  V30 64 1 29 63
M  V30 65 1 30 64
M  V30 66 1 31 65
M  V30 67 1 32 66
M  V30 END BOND
M  V30 END CTAB
M  END
>  <Structure No>
162

>  <LogS>
-2.800595088

>  <MMFF94 Energy>
-299.98

$$$$
Compound 163
Actelion Java MolfileCreator 2.0

  0  0  0  0  0  0              0 V3000
M  V30 BEGIN CTAB
M  V30 COUNTS 21 22 0 0 0
M  V30 BEGIN ATOM
M  V30 1 C 0.638 -0.3189 0.0 0
M  V30 2 C 1.968 -0.1566 -0.0649 0
M  V30 3 C -0.3719 0.6053 0.6381 0 CFG=1
M  V30 4 C -0.1376 -1.4261 -0.6685 0
M  V30 5 C 2.6634 1.0074 0.5729 0
M  V30 6 C -1.1164 1.2578 -0.4977 0
M  V30 7 C -1.4128 -0.4147 1.0649 0
M  V30 8 C -1.5832 -0.9804 -0.3389 0 CFG=1
M  V30 9 C -1.8489 0.3057 -1.0874 0
M  V30 10 H 2.5645 -0.8889 -0.6011 0
M  V30 11 H -0.007 1.2823 1.4388 0
M  V30 12 H 0.0973 -2.4072 -0.2016 0
M  V30 13 H 0.0477 -1.456 -1.7646 0
M  V30 14 H 2.2755 1.9591 0.1519 0
M  V30 15 H 2.5008 0.9916 1.6711 0
M  V30 16 H 3.7535 0.9465 0.3733 0
M  V30 17 H -1.1229 2.3116 -0.7548 0
M  V30 18 H -1.0266 -1.1615 1.7982 0
M  V30 19 H -2.3444 0.0523 1.4643 0
M  V30 20 H -2.3631 -1.7625 -0.4536 0
M  V30 21 H -2.5534 0.459 -1.8977 0
M  V30 END ATOM
M  V30 BEGIN BOND
M  V30 1 2 1 2
M  V30 2 1 1 3
M  V30 3 1 1 4
M  V30 4 1 2 5
M  V30 5 1 3 6
M  V30 6 1 3 7
M  V30 7 1 4 8
M  V30 8 2 6 9
M  V30 9 1 7 8
M  V30 10 1 8 9
M  V30 11 1 2 10
M  V30 12 1 3 11
M  V30 13 1 4 12
M  V30 14 1 4 13
M  V30 15 1 5 14
M  V30 16 1 5 15
M  V30 17 1 5 16
M  V30 18 1 6 17
M  V30 19 1 7 18
M  V30 20 1 7 19
M  V30 21 1 8 20
M  V30 22 1 9 21
M  V30 END BOND
M  V30 BEGIN COLLECTION
M  V30 MDLV30/STEABS ATOMS=(2 3 8)
M  V30 END COLLECTION
M  V30 END CTAB
M  END
>  <Structure No>
163

>  <LogS>
-3.176796415

>  <MMFF94 Energy>
48.116

$$$$
Compound 164
Actelion Java MolfileCreator 2.0

  0  0  0  0  0  0              0 V3000
M  V30 BEGIN CTAB
M  V30 COUNTS 40 41 0 0 0
M  V30 BEGIN ATOM
M  V30 1 O -0.5522 2.3686 0.3944 0
M  V30 2 C -0.0455 1.2523 0.0981 0
M  V30 3 N 1.3878 1.1 0.1055 0
M  V30 4 N -0.9027 0.1401 -0.2259 0
M  V30 5 C 1.9875 -0.1074 0.6268 0
M  V30 6 C 2.2274 2.2141 -0.3577 0
M  V30 7 C -2.1846 0.0121 0.4091 0
M  V30 8 C -0.5756 -0.7545 -1.3429 0
M  V30 9 C 3.1263 -0.6674 0.0173 0
M  V30 10 C 1.4294 -0.7531 1.7465 0
M  V30 11 C 2.1591 2.3395 -1.8766 0
M  V30 12 C -2.4407 -1.0822 1.2482 0
M  V30 13 C -3.1964 0.9581 0.1777 0
M  V30 14 C -1.1585 -0.2124 -2.6428 0
M  V30 15 C 3.689 -1.8459 0.5163 0
M  V30 16 C 1.9953 -1.9317 2.2409 0
M  V30 17 C -3.6897 -1.2213 1.8615 0
M  V30 18 C -4.4447 0.8157 0.7917 0
M  V30 19 C 3.1241 -2.4777 1.6263 0
M  V30 20 C -4.6907 -0.2721 1.6345 0
M  V30 21 H 3.2846 2.0692 -0.0467 0
M  V30 22 H 1.8872 3.1652 0.1057 0
M  V30 23 H -0.9846 -1.7704 -1.1523 0
M  V30 24 H 0.5215 -0.8595 -1.4631 0
M  V30 25 H 3.5695 -0.2056 -0.8543 0
M  V30 26 H 0.5609 -0.3394 2.243 0
M  V30 27 H 1.1242 2.5862 -2.1945 0
M  V30 28 H 2.4682 1.388 -2.3576 0
M  V30 29 H 2.8378 3.1505 -2.2149 0
M  V30 30 H -1.67 -1.8209 1.4292 0
M  V30 31 H -3.021 1.7953 -0.4858 0
M  V30 32 H -2.2651 -0.1508 -2.5708 0
M  V30 33 H -0.7491 0.7982 -2.8524 0
M  V30 34 H -0.8922 -0.8884 -3.4823 0
M  V30 35 H 4.5617 -2.2723 0.0385 0
M  V30 36 H 1.559 -2.4207 3.1022 0
M  V30 37 H -3.8817 -2.0649 2.5118 0
M  V30 38 H -5.2226 1.5464 0.6112 0
M  V30 39 H 3.5608 -3.3907 2.0101 0
M  V30 40 H -5.6574 -0.3815 2.1088 0
M  V30 END ATOM
M  V30 BEGIN BOND
M  V30 1 2 1 2
M  V30 2 1 2 3
M  V30 3 1 2 4
M  V30 4 1 3 5
M  V30 5 1 3 6
M  V30 6 1 4 7
M  V30 7 1 4 8
M  V30 8 2 5 9
M  V30 9 1 5 10
M  V30 10 1 6 11
M  V30 11 2 7 12
M  V30 12 1 7 13
M  V30 13 1 8 14
M  V30 14 1 9 15
M  V30 15 2 10 16
M  V30 16 1 12 17
M  V30 17 2 13 18
M  V30 18 2 15 19
M  V30 19 2 17 20
M  V30 20 1 16 19
M  V30 21 1 18 20
M  V30 22 1 6 21
M  V30 23 1 6 22
M  V30 24 1 8 23
M  V30 25 1 8 24
M  V30 26 1 9 25
M  V30 27 1 10 26
M  V30 28 1 11 27
M  V30 29 1 11 28
M  V30 30 1 11 29
M  V30 31 1 12 30
M  V30 32 1 13 31
M  V30 33 1 14 32
M  V30 34 1 14 33
M  V30 35 1 14 34
M  V30 36 1 15 35
M  V30 37 1 16 36
M  V30 38 1 17 37
M  V30 39 1 18 38
M  V30 40 1 19 39
M  V30 41 1 20 40
M  V30 END BOND
M  V30 END CTAB
M  END
>  <Structure No>
164

>  <LogS>
-3.525627796

>  <MMFF94 Energy>
7.116

$$$$
Compound 165
Actelion Java MolfileCreator 2.0

  0  0  0  0  0  0              0 V3000
M  V30 BEGIN CTAB
M  V30 COUNTS 29 29 0 0 0
M  V30 BEGIN ATOM
M  V30 1 O 0.6282 -2.279 -1.414 0
M  V30 2 C 0.5798 -1.2593 -0.6716 0
M  V30 3 O -0.6063 -0.9323 -0.009 0
M  V30 4 C 1.7632 -0.3775 -0.5531 0
M  V30 5 C -1.7973 -1.7027 -0.1257 0
M  V30 6 C 2.0291 0.3861 0.6137 0
M  V30 7 C 2.624 -0.2537 -1.6602 0
M  V30 8 C -2.8994 -1.107 0.7551 0
M  V30 9 N 1.2638 0.227 1.816 0
M  V30 10 C 3.1082 1.2848 0.6191 0
M  V30 11 C 3.7026 0.6318 -1.6293 0
M  V30 12 C -3.5106 0.1822 0.1813 0
M  V30 13 C 3.9385 1.4069 -0.4955 0
M  V30 14 C -2.561 1.3785 0.2471 0
M  V30 15 H -1.5918 -2.7413 0.2137 0
M  V30 16 H -2.1272 -1.7372 -1.187 0
M  V30 17 H 2.4457 -0.8237 -2.5638 0
M  V30 18 H -2.5075 -0.925 1.7798 0
M  V30 19 H -3.7126 -1.8601 0.8429 0
M  V30 20 H 1.3855 0.8935 2.611 0
M  V30 21 H 0.6883 -0.6237 1.9952 0
M  V30 22 H 3.3202 1.8764 1.501 0
M  V30 23 H 4.3504 0.725 -2.4915 0
M  V30 24 H -4.4181 0.4289 0.7739 0
M  V30 25 H -3.8329 0.0196 -0.87 0
M  V30 26 H 4.7725 2.0965 -0.4759 0
M  V30 27 H -1.7392 1.2682 -0.4897 0
M  V30 28 H -3.1189 2.3057 -0.0017 0
M  V30 29 H -2.1357 1.4858 1.2676 0
M  V30 END ATOM
M  V30 BEGIN BOND
M  V30 1 2 1 2
M  V30 2 1 2 3
M  V30 3 1 2 4
M  V30 4 1 3 5
M  V30 5 2 4 6
M  V30 6 1 4 7
M  V30 7 1 5 8
M  V30 8 1 6 9
M  V30 9 1 6 10
M  V30 10 2 7 11
M  V30 11 1 8 12
M  V30 12 2 10 13
M  V30 13 1 12 14
M  V30 14 1 11 13
M  V30 15 1 5 15
M  V30 16 1 5 16
M  V30 17 1 7 17
M  V30 18 1 8 18
M  V30 19 1 8 19
M  V30 20 1 9 20
M  V30 21 1 9 21
M  V30 22 1 10 22
M  V30 23 1 11 23
M  V30 24 1 12 24
M  V30 25 1 12 25
M  V30 26 1 13 26
M  V30 27 1 14 27
M  V30 28 1 14 28
M  V30 29 1 14 29
M  V30 END BOND
M  V30 END CTAB
M  END
>  <Structure No>
165

>  <LogS>
-3.383020526

>  <MMFF94 Energy>
42.235

$$$$
Compound 166
Actelion Java MolfileCreator 2.0

  0  0  0  0  0  0              0 V3000
M  V30 BEGIN CTAB
M  V30 COUNTS 29 30 0 0 0
M  V30 BEGIN ATOM
M  V30 1 O 0.1594 0.7175 1.7545 0
M  V30 2 C 0.6968 -0.1305 0.9902 0
M  V30 3 O -0.0081 -1.2768 0.6042 0
M  V30 4 C 2.0512 0.1222 0.4552 0
M  V30 5 C -1.3445 -1.5524 1.0176 0
M  V30 6 C 2.9774 -0.9226 0.21 0
M  V30 7 C 2.4168 1.4445 0.1417 0
M  V30 8 C -2.3096 -0.6351 0.3175 0
M  V30 9 O 2.7311 -2.2465 0.5795 0
M  V30 10 C 4.2076 -0.6304 -0.3923 0
M  V30 11 C 3.656 1.7216 -0.4393 0
M  V30 12 C -3.0088 0.3513 1.033 0
M  V30 13 C -2.4975 -0.7432 -1.0697 0
M  V30 14 C 4.5462 0.6845 -0.7149 0
M  V30 15 C -3.8889 1.2114 0.3684 0
M  V30 16 C -3.3785 0.1185 -1.7304 0
M  V30 17 C -4.0741 1.0947 -1.0118 0
M  V30 18 H -1.5887 -2.6022 0.7507 0
M  V30 19 H -1.4248 -1.4664 2.1236 0
M  V30 20 H 1.7304 2.2631 0.3216 0
M  V30 21 H 1.9573 -2.5248 1.1672 0
M  V30 22 H 4.9144 -1.4262 -0.5904 0
M  V30 23 H 3.9216 2.7415 -0.686 0
M  V30 24 H -2.8717 0.457 2.1019 0
M  V30 25 H -1.9604 -1.4929 -1.6375 0
M  V30 26 H 5.5036 0.9004 -1.171 0
M  V30 27 H -4.426 1.9696 0.9235 0
M  V30 28 H -3.5207 0.0307 -2.7997 0
M  V30 29 H -4.7552 1.7617 -1.5245 0
M  V30 END ATOM
M  V30 BEGIN BOND
M  V30 1 2 1 2
M  V30 2 1 2 3
M  V30 3 1 2 4
M  V30 4 1 3 5
M  V30 5 2 4 6
M  V30 6 1 4 7
M  V30 7 1 5 8
M  V30 8 1 6 9
M  V30 9 1 6 10
M  V30 10 2 7 11
M  V30 11 2 8 12
M  V30 12 1 8 13
M  V30 13 2 10 14
M  V30 14 1 12 15
M  V30 15 2 13 16
M  V30 16 2 15 17
M  V30 17 1 11 14
M  V30 18 1 16 17
M  V30 19 1 5 18
M  V30 20 1 5 19
M  V30 21 1 7 20
M  V30 22 1 9 21
M  V30 23 1 10 22
M  V30 24 1 11 23
M  V30 25 1 12 24
M  V30 26 1 13 25
M  V30 27 1 14 26
M  V30 28 1 15 27
M  V30 29 1 16 28
M  V30 30 1 17 29
M  V30 END BOND
M  V30 END CTAB
M  END
>  <Structure No>
166

>  <LogS>
-4.413922406

>  <MMFF94 Energy>
43.985

$$$$
Compound 167
Actelion Java MolfileCreator 2.0

  0  0  0  0  0  0              0 V3000
M  V30 BEGIN CTAB
M  V30 COUNTS 6 5 0 0 0
M  V30 BEGIN ATOM
M  V30 1 O 0.9304 0.5009 0.0715 0
M  V30 2 C -0.3745 0.0024 0.0066 0
M  V30 3 H 1.525 -0.2928 0.102 0
M  V30 4 H -0.5048 -0.6134 -0.9095 0
M  V30 5 H -1.0873 0.8518 -0.0297 0
M  V30 6 H -0.5957 -0.6117 0.9064 0
M  V30 END ATOM
M  V30 BEGIN BOND
M  V30 1 1 1 2
M  V30 2 1 1 3
M  V30 3 1 2 4
M  V30 4 1 2 5
M  V30 5 1 2 6
M  V30 END BOND
M  V30 END CTAB
M  END
>  <Structure No>
167

>  <LogS>
-3.994369951

>  <MMFF94 Energy>
0.66577

$$$$
Compound 168
Actelion Java MolfileCreator 2.0

  0  0  0  0  0  0              0 V3000
M  V30 BEGIN CTAB
M  V30 COUNTS 45 48 0 0 0
M  V30 BEGIN ATOM
M  V30 1 S -3.5219 -0.3272 2.4562 0
M  V30 2 O -3.9135 1.1168 2.5927 0
M  V30 3 O -4.2694 -1.1229 3.4898 0
M  V30 4 O -3.9754 -0.9139 0.9494 0 CHG=-1
M  V30 5 C -1.771 -0.5269 2.6951 0
M  V30 6 C -0.7905 -0.3732 1.6604 0
M  V30 7 C -1.3746 -1.0277 3.947 0
M  V30 8 C -1.0333 0.2763 0.4132 0
M  V30 9 C 0.5118 -0.9118 1.8875 0
M  V30 10 C -0.0757 -1.4697 4.1681 0
M  V30 11 N -2.1551 1.1519 0.2234 0
M  V30 12 C -0.0472 0.2564 -0.5876 0
M  V30 13 C 1.4729 -0.9135 0.8677 0
M  V30 14 C 0.8527 -1.4467 3.1369 0
M  V30 15 C -2.9361 1.2103 -0.9854 0
M  V30 16 C 1.1967 -0.3349 -0.3733 0
M  V30 17 C -3.694 2.3593 -1.2638 0
M  V30 18 C -2.9944 0.1202 -1.875 0
M  V30 19 N 2.1647 -0.3481 -1.4369 0
M  V30 20 C -4.475 2.429 -2.4215 0
M  V30 21 C -3.777 0.194 -3.0313 0
M  V30 22 C 3.5876 -0.2722 -1.2425 0
M  V30 23 C -4.5145 1.3484 -3.3059 0
M  V30 24 C 4.1423 0.4554 -0.1728 0
M  V30 25 C 4.4444 -0.8797 -2.1735 0
M  V30 26 C 5.5299 0.5376 -0.0208 0
M  V30 27 C 5.8316 -0.7953 -2.018 0
M  V30 28 C 6.3738 -0.0904 -0.9402 0
M  V30 29 H -2.0884 -1.1193 4.7556 0
M  V30 30 H 0.2009 -1.871 5.1346 0
M  V30 31 H -2.282 1.9079 0.9324 0
M  V30 32 H -0.2246 0.7678 -1.5259 0
M  V30 33 H 2.4373 -1.3776 1.0374 0
M  V30 34 H 1.8471 -1.8364 3.321 0
M  V30 35 H -3.6752 3.2032 -0.5855 0
M  V30 36 H -2.4483 -0.7912 -1.6701 0
M  V30 37 H 1.809 -0.4115 -2.4181 0
M  V30 38 H -5.0516 3.3207 -2.6318 0
M  V30 39 H -3.8163 -0.6465 -3.7118 0
M  V30 40 H -5.1209 1.4032 -4.2008 0
M  V30 41 H 3.505 0.9721 0.533 0
M  V30 42 H 4.0353 -1.4261 -3.0139 0
M  V30 43 H 5.9509 1.0951 0.8059 0
M  V30 44 H 6.4859 -1.2744 -2.7346 0
M  V30 45 H 7.4477 -0.0245 -0.822 0
M  V30 END ATOM
M  V30 BEGIN BOND
M  V30 1 2 1 2
M  V30 2 2 1 3
M  V30 3 1 1 4
M  V30 4 1 1 5
M  V30 5 1 5 6
M  V30 6 2 5 7
M  V30 7 2 6 8
M  V30 8 1 6 9
M  V30 9 1 7 10
M  V30 10 1 8 11
M  V30 11 1 8 12
M  V30 12 2 9 13
M  V30 13 1 9 14
M  V30 14 1 11 15
M  V30 15 2 12 16
M  V30 16 2 15 17
M  V30 17 1 15 18
M  V30 18 1 16 19
M  V30 19 1 17 20
M  V30 20 2 18 21
M  V30 21 1 19 22
M  V30 22 2 20 23
M  V30 23 2 22 24
M  V30 24 1 22 25
M  V30 25 1 24 26
M  V30 26 2 25 27
M  V30 27 2 26 28
M  V30 28 2 10 14
M  V30 29 1 13 16
M  V30 30 1 21 23
M  V30 31 1 27 28
M  V30 32 1 7 29
M  V30 33 1 10 30
M  V30 34 1 11 31
M  V30 35 1 12 32
M  V30 36 1 13 33
M  V30 37 1 14 34
M  V30 38 1 17 35
M  V30 39 1 18 36
M  V30 40 1 19 37
M  V30 41 1 20 38
M  V30 42 1 21 39
M  V30 43 1 23 40
M  V30 44 1 24 41
M  V30 45 1 25 42
M  V30 46 1 26 43
M  V30 47 1 27 44
M  V30 48 1 28 45
M  V30 END BOND
M  V30 END CTAB
M  END
>  <Structure No>
168

>  <LogS>
-4.672502907

>  <MMFF94 Energy>
86.96

$$$$
Compound 169
Actelion Java MolfileCreator 2.0

  0  0  0  0  0  0              0 V3000
M  V30 BEGIN CTAB
M  V30 COUNTS 42 41 0 0 0
M  V30 BEGIN ATOM
M  V30 1 O -1.1687 0.0 0.9349 0
M  V30 2 O -1.6742 -0.5824 -0.1454 0
M  V30 3 C -0.0335 0.7419 0.5336 0
M  V30 4 C -3.065 -0.7528 0.0583 0
M  V30 5 O 0.8028 -0.1068 -0.2437 0
M  V30 6 C -0.5215 1.9742 -0.2894 0
M  V30 7 C 0.653 1.1803 1.8479 0
M  V30 8 C -3.769 0.6072 0.2554 0
M  V30 9 C -3.3307 -1.6745 1.2678 0
M  V30 10 C -3.6305 -1.4207 -1.204 0
M  V30 11 O 2.0005 0.4519 -0.3505 0
M  V30 12 C 0.563 2.9604 -0.7339 0
M  V30 13 C 2.9639 -0.5832 -0.4121 0
M  V30 14 C 4.3397 0.0856 -0.551 0
M  V30 15 C 2.7239 -1.4828 -1.6436 0
M  V30 16 C 2.9526 -1.4276 0.88 0
M  V30 17 H -1.2677 2.5347 0.3153 0
M  V30 18 H -1.0444 1.6209 -1.2042 0
M  V30 19 H 0.9001 0.2853 2.4572 0
M  V30 20 H 1.5916 1.7448 1.6751 0
M  V30 21 H -0.0331 1.8215 2.4418 0
M  V30 22 H -3.4252 1.1036 1.1878 0
M  V30 23 H -4.8697 0.471 0.328 0
M  V30 24 H -3.553 1.2811 -0.6006 0
M  V30 25 H -4.416 -1.8953 1.3619 0
M  V30 26 H -2.9967 -1.1969 2.2135 0
M  V30 27 H -2.7822 -2.6332 1.1481 0
M  V30 28 H -4.7259 -1.5861 -1.1115 0
M  V30 29 H -3.4434 -0.7824 -2.0943 0
M  V30 30 H -3.1381 -2.4023 -1.3747 0
M  V30 31 H 0.0792 3.8268 -1.2325 0
M  V30 32 H 1.2472 2.4953 -1.4721 0
M  V30 33 H 1.1386 3.3497 0.1293 0
M  V30 34 H 5.1493 -0.6742 -0.6031 0
M  V30 35 H 4.5343 0.7508 0.3179 0
M  V30 36 H 4.3759 0.7051 -1.4729 0
M  V30 37 H 3.5442 -2.2245 -1.7536 0
M  V30 38 H 1.7688 -2.0422 -1.5485 0
M  V30 39 H 2.6767 -0.8656 -2.5663 0
M  V30 40 H 3.1093 -0.777 1.7666 0
M  V30 41 H 1.9846 -1.9585 1.0016 0
M  V30 42 H 3.7605 -2.1903 0.8557 0
M  V30 END ATOM
M  V30 BEGIN BOND
M  V30 1 1 1 2
M  V30 2 1 1 3
M  V30 3 1 2 4
M  V30 4 1 3 5
M  V30 5 1 3 6
M  V30 6 1 3 7
M  V30 7 1 4 8
M  V30 8 1 4 9
M  V30 9 1 4 10
M  V30 10 1 5 11
M  V30 11 1 6 12
M  V30 12 1 11 13
M  V30 13 1 13 14
M  V30 14 1 13 15
M  V30 15 1 13 16
M  V30 16 1 6 17
M  V30 17 1 6 18
M  V30 18 1 7 19
M  V30 19 1 7 20
M  V30 20 1 7 21
M  V30 21 1 8 22
M  V30 22 1 8 23
M  V30 23 1 8 24
M  V30 24 1 9 25
M  V30 25 1 9 26
M  V30 26 1 9 27
M  V30 27 1 10 28
M  V30 28 1 10 29
M  V30 29 1 10 30
M  V30 30 1 12 31
M  V30 31 1 12 32
M  V30 32 1 12 33
M  V30 33 1 14 34
M  V30 34 1 14 35
M  V30 35 1 14 36
M  V30 36 1 15 37
M  V30 37 1 15 38
M  V30 38 1 15 39
M  V30 39 1 16 40
M  V30 40 1 16 41
M  V30 41 1 16 42
M  V30 END BOND
M  V30 END CTAB
M  END
>  <Structure No>
169

>  <LogS>
-4.45076092

>  <MMFF94 Energy>
54.412

$$$$
Compound 170
Actelion Java MolfileCreator 2.0

  0  0  0  0  0  0              0 V3000
M  V30 BEGIN CTAB
M  V30 COUNTS 23 24 0 0 0
M  V30 BEGIN ATOM
M  V30 1 S 0.0812 -1.1381 1.7075 0
M  V30 2 C -1.24 -0.7549 0.5576 0
M  V30 3 C 1.3124 -0.2834 0.7236 0
M  V30 4 C -1.5297 -1.6313 -0.4961 0
M  V30 5 C -1.9872 0.4199 0.7128 0
M  V30 6 C 1.5669 1.0765 0.9439 0
M  V30 7 C 2.0244 -0.9747 -0.265 0
M  V30 8 C -2.558 -1.3297 -1.3949 0
M  V30 9 C -3.0151 0.7199 -0.187 0
M  V30 10 C 2.5247 1.7433 0.1731 0
M  V30 11 C 2.9819 -0.3062 -1.0347 0
M  V30 12 C -3.3002 -0.1542 -1.2408 0
M  V30 13 C 3.2317 1.0524 -0.8161 0
M  V30 14 H -0.9574 -2.5417 -0.6214 0
M  V30 15 H -1.77 1.1013 1.5257 0
M  V30 16 H 1.0214 1.6169 1.7072 0
M  V30 17 H 1.8341 -2.0261 -0.4399 0
M  V30 18 H -2.7792 -2.006 -2.2105 0
M  V30 19 H -3.59 1.6293 -0.0678 0
M  V30 20 H 2.7186 2.7947 0.3423 0
M  V30 21 H 3.5296 -0.8404 -1.8002 0
M  V30 22 H -4.0956 0.0787 -1.9369 0
M  V30 23 H 3.9726 1.5692 -1.4124 0
M  V30 END ATOM
M  V30 BEGIN BOND
M  V30 1 1 1 2
M  V30 2 1 1 3
M  V30 3 2 2 4
M  V30 4 1 2 5
M  V30 5 2 3 6
M  V30 6 1 3 7
M  V30 7 1 4 8
M  V30 8 2 5 9
M  V30 9 1 6 10
M  V30 10 2 7 11
M  V30 11 2 8 12
M  V30 12 2 10 13
M  V30 13 1 9 12
M  V30 14 1 11 13
M  V30 15 1 4 14
M  V30 16 1 5 15
M  V30 17 1 6 16
M  V30 18 1 7 17
M  V30 19 1 8 18
M  V30 20 1 9 19
M  V30 21 1 10 20
M  V30 22 1 11 21
M  V30 23 1 12 22
M  V30 24 1 13 23
M  V30 END BOND
M  V30 END CTAB
M  END
>  <Structure No>
170

>  <LogS>
-4.360607869

>  <MMFF94 Energy>
35.844

$$$$
Compound 171
Actelion Java MolfileCreator 2.0

  0  0  0  0  0  0              0 V3000
M  V30 BEGIN CTAB
M  V30 COUNTS 59 62 0 0 0
M  V30 BEGIN ATOM
M  V30 1 S -3.6744 -0.5709 0.734 0
M  V30 2 O -4.4308 -0.3266 2.0111 0
M  V30 3 O -3.4338 -2.0493 0.603 0
M  V30 4 N -4.6145 -0.0293 -0.6222 0
M  V30 5 C -2.1243 0.266 0.7846 0
M  V30 6 C -4.8606 1.412 -0.5238 0
M  V30 7 C -1.0376 -0.2262 0.0511 0
M  V30 8 C -1.9764 1.4387 1.5374 0
M  V30 9 C -5.9122 1.85 -1.5512 0
M  V30 10 C 0.1934 0.4342 0.0878 0
M  V30 11 C -0.7459 2.1015 1.5723 0
M  V30 12 C -7.2899 1.2425 -1.2677 0
M  V30 13 C 0.3509 1.5987 0.8634 0
M  V30 14 O -7.2665 -0.1424 -1.554 0
M  V30 15 O 1.5723 2.2866 0.9367 0
M  V30 16 C -8.3426 -0.8053 -0.9196 0
M  V30 17 C 2.8068 1.7539 0.5412 0
M  V30 18 C -7.886 -1.3921 0.4116 0
M  V30 19 C 3.3299 0.5828 1.1271 0
M  V30 20 C 3.5166 2.4127 -0.4574 0
M  V30 21 N 2.5787 -0.0724 2.159 0
M  V30 22 C 4.5757 0.0644 0.6749 0
M  V30 23 C 4.7109 1.8876 -0.9528 0
M  V30 24 C 5.2355 -1.0988 1.3389 0
M  V30 25 C 5.2444 0.6987 -0.4055 0
M  V30 26 O 5.3608 2.5523 -1.9937 0
M  V30 27 O 4.8768 -1.4719 2.4886 0
M  V30 28 C 6.3745 -1.7809 0.6887 0
M  V30 29 C 6.4985 0.1009 -0.9488 0
M  V30 30 C 6.9979 -1.19 -0.4263 0
M  V30 31 C 6.8569 -3.0059 1.1862 0
M  V30 32 O 7.1396 0.6829 -1.8665 0
M  V30 33 C 8.0975 -1.8323 -1.0266 0
M  V30 34 C 7.9446 -3.6359 0.5779 0
M  V30 35 C 8.5646 -3.0496 -0.5257 0
M  V30 36 H -4.0438 -0.2073 -1.4812 0
M  V30 37 H -3.9182 1.9721 -0.7155 0
M  V30 38 H -5.2218 1.6804 0.4937 0
M  V30 39 H -1.1427 -1.1205 -0.5497 0
M  V30 40 H -2.8125 1.8418 2.0944 0
M  V30 41 H -6.0 2.9572 -1.5132 0
M  V30 42 H -5.5808 1.5729 -2.5755 0
M  V30 43 H 1.0165 0.0388 -0.492 0
M  V30 44 H -0.6413 3.0045 2.1602 0
M  V30 45 H -8.0368 1.7369 -1.9282 0
M  V30 46 H -7.5613 1.4568 -0.2066 0
M  V30 47 H -9.2401 -0.1589 -0.7707 0
M  V30 48 H -8.663 -1.6428 -1.5742 0
M  V30 49 H -8.7135 -1.9761 0.8673 0
M  V30 50 H -7.5924 -0.5824 1.1119 0
M  V30 51 H -7.0157 -2.0642 0.252 0
M  V30 52 H 3.1092 3.321 -0.8854 0
M  V30 53 H 1.9319 0.4673 2.7761 0
M  V30 54 H 2.532 -1.1131 2.2132 0
M  V30 55 H 4.9911 3.4059 -2.3965 0
M  V30 56 H 6.3912 -3.4784 2.0424 0
M  V30 57 H 8.5939 -1.3959 -1.8847 0
M  V30 58 H 8.3087 -4.5796 0.9639 0
M  V30 59 H 9.4088 -3.5389 -0.9943 0
M  V30 END ATOM
M  V30 BEGIN BOND
M  V30 1 2 1 2
M  V30 2 2 1 3
M  V30 3 1 1 4
M  V30 4 1 1 5
M  V30 5 1 4 6
M  V30 6 2 5 7
M  V30 7 1 5 8
M  V30 8 1 6 9
M  V30 9 1 7 10
M  V30 10 2 8 11
M  V30 11 1 9 12
M  V30 12 2 10 13
M  V30 13 1 12 14
M  V30 14 1 13 15
M  V30 15 1 14 16
M  V30 16 1 15 17
M  V30 17 1 16 18
M  V30 18 2 17 19
M  V30 19 1 17 20
M  V30 20 1 19 21
M  V30 21 1 19 22
M  V30 22 2 20 23
M  V30 23 1 22 24
M  V30 24 2 22 25
M  V30 25 1 23 26
M  V30 26 2 24 27
M  V30 27 1 24 28
M  V30 28 1 25 29
M  V30 29 2 28 30
M  V30 30 1 28 31
M  V30 31 2 29 32
M  V30 32 1 30 33
M  V30 33 2 31 34
M  V30 34 2 33 35
M  V30 35 1 11 13
M  V30 36 1 23 25
M  V30 37 1 29 30
M  V30 38 1 34 35
M  V30 39 1 4 36
M  V30 40 1 6 37
M  V30 41 1 6 38
M  V30 42 1 7 39
M  V30 43 1 8 40
M  V30 44 1 9 41
M  V30 45 1 9 42
M  V30 46 1 10 43
M  V30 47 1 11 44
M  V30 48 1 12 45
M  V30 49 1 12 46
M  V30 50 1 16 47
M  V30 51 1 16 48
M  V30 52 1 18 49
M  V30 53 1 18 50
M  V30 54 1 18 51
M  V30 55 1 20 52
M  V30 56 1 21 53
M  V30 57 1 21 54
M  V30 58 1 26 55
M  V30 59 1 31 56
M  V30 60 1 33 57
M  V30 61 1 34 58
M  V30 62 1 35 59
M  V30 END BOND
M  V30 END CTAB
M  END
>  <Structure No>
171

>  <LogS>
-4.787470096

>  <MMFF94 Energy>
57.915

$$$$
Compound 172
Actelion Java MolfileCreator 2.0

  0  0  0  0  0  0              0 V3000
M  V30 BEGIN CTAB
M  V30 COUNTS 15 16 0 0 0
M  V30 BEGIN ATOM
M  V30 1 Cl 3.521 1.111 0.0925 0
M  V30 2 C 1.8952 0.4289 0.0385 0
M  V30 3 C 1.714 -0.9796 0.0584 0
M  V30 4 C 0.7761 1.2902 -0.0242 0
M  V30 5 Cl 3.1145 -2.049 0.137 0
M  V30 6 C 0.4132 -1.5311 0.0154 0
M  V30 7 Cl 0.9655 3.0409 -0.0501 0
M  V30 8 C -0.4948 0.7128 -0.0655 0
M  V30 9 Cl 0.1536 -3.2727 0.0383 0
M  V30 10 C -0.6704 -0.6523 -0.0463 0
M  V30 11 C -1.8279 1.3113 -0.1322 0
M  V30 12 C -2.1117 -0.8958 -0.1012 0
M  V30 13 O -2.0868 2.5427 -0.1666 0
M  V30 14 O -2.798 0.3138 -0.1529 0
M  V30 15 O -2.6738 -2.0219 -0.1026 0
M  V30 END ATOM
M  V30 BEGIN BOND
M  V30 1 1 1 2
M  V30 2 2 2 3
M  V30 3 1 2 4
M  V30 4 1 3 5
M  V30 5 1 3 6
M  V30 6 1 4 7
M  V30 7 2 4 8
M  V30 8 1 6 9
M  V30 9 2 6 10
M  V30 10 1 8 11
M  V30 11 1 10 12
M  V30 12 2 11 13
M  V30 13 1 11 14
M  V30 14 2 12 15
M  V30 15 1 8 10
M  V30 16 1 12 14
M  V30 END BOND
M  V30 END CTAB
M  END
>  <Structure No>
172

>  <LogS>
-4.553119611

>  <MMFF94 Energy>
-14.691

$$$$
Compound 173
Actelion Java MolfileCreator 2.0

  0  0  0  0  0  0              0 V3000
M  V30 BEGIN CTAB
M  V30 COUNTS 41 43 0 0 0
M  V30 BEGIN ATOM
M  V30 1 Cl -7.6494 2.1689 -0.8671 0
M  V30 2 C -6.1823 1.212 -0.7091 0
M  V30 3 C -5.9642 0.0811 -1.5058 0
M  V30 4 C -5.2288 1.587 0.2408 0
M  V30 5 Cl -7.1459 -0.4344 -2.702 0
M  V30 6 C -4.7853 -0.6529 -1.3592 0
M  V30 7 C -4.044 0.8513 0.4073 0
M  V30 8 C -3.8065 -0.2728 -0.4317 0
M  V30 9 S -2.9517 1.3316 1.7167 0
M  V30 10 N -2.6112 -1.066 -0.3868 0
M  V30 11 O -1.7313 1.9974 1.1464 0
M  V30 12 O -2.5497 0.1254 2.5182 0
M  V30 13 O -3.723 2.4112 2.7485 0 CHG=-1
M  V30 14 N -1.486 -0.6079 -0.0152 0
M  V30 15 C -0.3031 -1.4545 0.0098 0 CFG=2
M  V30 16 C 0.8307 -0.7208 0.6263 0
M  V30 17 C 0.263 -1.6397 -1.3761 0
M  V30 18 O 0.8432 -0.2564 1.7971 0
M  V30 19 N 1.8697 -0.5448 -0.3251 0
M  V30 20 N 1.4442 -1.1248 -1.5222 0
M  V30 21 C -0.4247 -2.3657 -2.4856 0
M  V30 22 C 3.1179 0.1542 -0.1734 0
M  V30 23 C 3.7411 0.2685 1.0826 0
M  V30 24 C 3.7474 0.7091 -1.2998 0
M  V30 25 C 4.9589 0.9512 1.2137 0
M  V30 26 C 4.9643 1.3832 -1.1708 0
M  V30 27 S 5.7354 1.0771 2.7887 0
M  V30 28 C 5.5691 1.5054 0.0816 0
M  V30 29 O 4.6911 1.1459 3.8674 0
M  V30 30 O 6.5733 2.3233 2.8481 0
M  V30 31 O 6.712 -0.2658 3.039 0 CHG=-1
M  V30 32 H -5.4236 2.4533 0.8594 0
M  V30 33 H -4.617 -1.5191 -1.988 0
M  V30 34 H -0.4934 -2.421 0.5242 0
M  V30 35 H 0.2198 -3.195 -2.8439 0
M  V30 36 H -1.3883 -2.7904 -2.1357 0
M  V30 37 H -0.6204 -1.6647 -3.3235 0
M  V30 38 H 3.3022 -0.1943 1.955 0
M  V30 39 H 3.2915 0.6289 -2.2784 0
M  V30 40 H 5.44 1.8105 -2.044 0
M  V30 41 H 6.5152 2.0246 0.1659 0
M  V30 END ATOM
M  V30 BEGIN BOND
M  V30 1 1 1 2
M  V30 2 2 2 3
M  V30 3 1 2 4
M  V30 4 1 3 5
M  V30 5 1 3 6
M  V30 6 2 4 7
M  V30 7 2 6 8
M  V30 8 1 7 9
M  V30 9 1 8 10
M  V30 10 2 9 11
M  V30 11 2 9 12
M  V30 12 1 9 13
M  V30 13 2 10 14
M  V30 14 1 14 15
M  V30 15 1 15 16
M  V30 16 1 15 17
M  V30 17 2 16 18
M  V30 18 1 16 19
M  V30 19 2 17 20
M  V30 20 1 17 21
M  V30 21 1 19 22
M  V30 22 2 22 23
M  V30 23 1 22 24
M  V30 24 1 23 25
M  V30 25 2 24 26
M  V30 26 1 25 27
M  V30 27 2 25 28
M  V30 28 2 27 29
M  V30 29 2 27 30
M  V30 30 1 27 31
M  V30 31 1 7 8
M  V30 32 1 19 20
M  V30 33 1 26 28
M  V30 34 1 4 32
M  V30 35 1 6 33
M  V30 36 1 15 34
M  V30 37 1 21 35
M  V30 38 1 21 36
M  V30 39 1 21 37
M  V30 40 1 23 38
M  V30 41 1 24 39
M  V30 42 1 26 40
M  V30 43 1 28 41
M  V30 END BOND
M  V30 BEGIN COLLECTION
M  V30 MDLV30/STEABS ATOMS=(1 15)
M  V30 END COLLECTION
M  V30 END CTAB
M  END
>  <Structure No>
173

>  <LogS>
-3.839084061

>  <MMFF94 Energy>
133.1

$$$$
Compound 174
Actelion Java MolfileCreator 2.0

  0  0  0  0  0  0              0 V3000
M  V30 BEGIN CTAB
M  V30 COUNTS 9 8 0 0 0
M  V30 BEGIN ATOM
M  V30 1 O 1.4071 0.5182 0.4441 0
M  V30 2 C 0.4944 -0.3582 -0.1582 0
M  V30 3 C -0.9015 0.2526 -0.1654 0
M  V30 4 H 1.2577 0.4543 1.4238 0
M  V30 5 H 0.4791 -1.3351 0.3761 0
M  V30 6 H 0.8148 -0.5435 -1.2051 0
M  V30 7 H -1.2486 0.424 0.8755 0
M  V30 8 H -1.6094 -0.4374 -0.6708 0
M  V30 9 H -0.8902 1.2202 -0.7106 0
M  V30 END ATOM
M  V30 BEGIN BOND
M  V30 1 1 1 2
M  V30 2 1 2 3
M  V30 3 1 1 4
M  V30 4 1 2 5
M  V30 5 1 2 6
M  V30 6 1 3 7
M  V30 7 1 3 8
M  V30 8 1 3 9
M  V30 END BOND
M  V30 END CTAB
M  END
>  <Structure No>
174

>  <LogS>
1.233668218

>  <MMFF94 Energy>
-1.5171

$$$$
Compound 175
Actelion Java MolfileCreator 2.0

  0  0  0  0  0  0              0 V3000
M  V30 BEGIN CTAB
M  V30 COUNTS 20 20 0 0 0
M  V30 BEGIN ATOM
M  V30 1 O 2.8215 0.6264 -0.1565 0
M  V30 2 C 1.4218 0.5556 -0.0923 0
M  V30 3 C 3.6693 -0.4782 -0.4531 0
M  V30 4 C 0.7098 1.7215 0.2102 0
M  V30 5 C 0.7145 -0.6399 -0.3201 0
M  V30 6 C -0.6857 1.7021 0.2858 0
M  V30 7 C -0.6818 -0.6593 -0.2445 0
M  V30 8 C -1.3936 0.5164 0.0601 0
M  V30 9 O -2.7933 0.5482 0.1475 0
M  V30 10 C -3.6373 -0.58 -0.0574 0
M  V30 11 H 3.54 -1.2744 0.3102 0
M  V30 12 H 4.7253 -0.1392 -0.4374 0
M  V30 13 H 3.4384 -0.8761 -1.4639 0
M  V30 14 H 1.2412 2.648 0.3878 0
M  V30 15 H 1.2334 -1.5589 -0.5561 0
M  V30 16 H -1.2204 2.6137 0.5211 0
M  V30 17 H -1.1975 -1.5927 -0.4245 0
M  V30 18 H -4.6945 -0.2705 0.0726 0
M  V30 19 H -3.5059 -0.9729 -1.0876 0
M  V30 20 H -3.4043 -1.3711 0.6863 0
M  V30 END ATOM
M  V30 BEGIN BOND
M  V30 1 1 1 2
M  V30 2 1 1 3
M  V30 3 2 2 4
M  V30 4 1 2 5
M  V30 5 1 4 6
M  V30 6 2 5 7
M  V30 7 2 6 8
M  V30 8 1 8 9
M  V30 9 1 9 10
M  V30 10 1 7 8
M  V30 11 1 3 11
M  V30 12 1 3 12
M  V30 13 1 3 13
M  V30 14 1 4 14
M  V30 15 1 5 15
M  V30 16 1 6 16
M  V30 17 1 7 17
M  V30 18 1 10 18
M  V30 19 1 10 19
M  V30 20 1 10 20
M  V30 END BOND
M  V30 END CTAB
M  END
>  <Structure No>
175

>  <LogS>
-2.245531528

>  <MMFF94 Energy>
23.346

$$$$
Compound 176
Actelion Java MolfileCreator 2.0

  0  0  0  0  0  0              0 V3000
M  V30 BEGIN CTAB
M  V30 COUNTS 35 36 0 0 0
M  V30 BEGIN ATOM
M  V30 1 O -0.6337 0.2376 -0.7921 0
M  V30 2 C -1.6386 -0.5124 -0.1287 0
M  V30 3 C 0.6486 -0.0913 -0.2987 0
M  V30 4 C -2.2269 0.3201 1.0408 0
M  V30 5 C -2.7101 -0.9118 -1.1697 0
M  V30 6 C 1.6762 0.8562 -0.913 0
M  V30 7 C -3.4701 1.1106 0.6192 0
M  V30 8 C -4.0824 -1.1179 -0.5207 0
M  V30 9 C 3.0606 0.5374 -0.4152 0
M  V30 10 C -4.5988 0.1777 0.1369 0
M  V30 11 C 3.8587 -0.4002 -1.0916 0
M  V30 12 C 3.5451 1.1326 0.7615 0
M  V30 13 C 5.1319 -0.7192 -0.6093 0
M  V30 14 C 4.8189 0.8108 1.2404 0
M  V30 15 C 5.6124 -0.1127 0.5545 0
M  V30 16 H -1.2473 -1.4678 0.3013 0
M  V30 17 H 0.6873 0.0105 0.8107 0
M  V30 18 H 0.9077 -1.1363 -0.5845 0
M  V30 19 H -1.4637 1.0237 1.438 0
M  V30 20 H -2.5064 -0.3611 1.8748 0
M  V30 21 H -2.8013 -0.1214 -1.9479 0
M  V30 22 H -2.3978 -1.8474 -1.6824 0
M  V30 23 H 1.6421 0.771 -2.0213 0
M  V30 24 H 1.4121 1.9052 -0.6541 0
M  V30 25 H -3.8331 1.7201 1.4749 0
M  V30 26 H -3.1914 1.8117 -0.198 0
M  V30 27 H -4.0015 -1.9185 0.2472 0
M  V30 28 H -4.8101 -1.4606 -1.2877 0
M  V30 29 H -5.232 0.7332 -0.5887 0
M  V30 30 H -5.246 -0.0944 0.999 0
M  V30 31 H 3.4944 -0.8839 -1.9893 0
M  V30 32 H 2.9364 1.8431 1.3074 0
M  V30 33 H 5.7446 -1.4391 -1.1359 0
M  V30 34 H 5.1895 1.275 2.1452 0
M  V30 35 H 6.5975 -0.3616 0.9271 0
M  V30 END ATOM
M  V30 BEGIN BOND
M  V30 1 1 1 2
M  V30 2 1 1 3
M  V30 3 1 2 4
M  V30 4 1 2 5
M  V30 5 1 3 6
M  V30 6 1 4 7
M  V30 7 1 5 8
M  V30 8 1 6 9
M  V30 9 1 7 10
M  V30 10 2 9 11
M  V30 11 1 9 12
M  V30 12 1 11 13
M  V30 13 2 12 14
M  V30 14 2 13 15
M  V30 15 1 8 10
M  V30 16 1 14 15
M  V30 17 1 2 16
M  V30 18 1 3 17
M  V30 19 1 3 18
M  V30 20 1 4 19
M  V30 21 1 4 20
M  V30 22 1 5 21
M  V30 23 1 5 22
M  V30 24 1 6 23
M  V30 25 1 6 24
M  V30 26 1 7 25
M  V30 27 1 7 26
M  V30 28 1 8 27
M  V30 29 1 8 28
M  V30 30 1 10 29
M  V30 31 1 10 30
M  V30 32 1 11 31
M  V30 33 1 12 32
M  V30 34 1 13 33
M  V30 35 1 14 34
M  V30 36 1 15 35
M  V30 END BOND
M  V30 END CTAB
M  END
>  <Structure No>
176

>  <LogS>
-2.418090055

>  <MMFF94 Energy>
35.773

$$$$
Compound 177
Actelion Java MolfileCreator 2.0

  0  0  0  0  0  0              0 V3000
M  V30 BEGIN CTAB
M  V30 COUNTS 31 30 0 0 0
M  V30 BEGIN ATOM
M  V30 1 O -3.849 -0.2353 -1.334 0
M  V30 2 C -2.6098 -0.4144 -1.4808 0
M  V30 3 O -2.109 -0.5989 -2.7656 0 CHG=-1
M  V30 4 C -1.6972 -0.508 -0.265 0 CFG=1
M  V30 5 C -0.2084 -0.3593 -0.7239 0
M  V30 6 C -2.0991 0.5767 0.7829 0
M  V30 7 C -1.9214 -1.9039 0.3577 0
M  V30 8 C 0.8364 -0.3173 0.4139 0
M  V30 9 C -1.9372 2.0206 0.2926 0
M  V30 10 C 2.2903 -0.363 -0.1113 0
M  V30 11 C 2.6636 0.9122 -0.8831 0
M  V30 12 C 3.2648 -0.5663 1.0566 0
M  V30 13 H 0.0457 -1.2067 -1.399 0
M  V30 14 H -0.1146 0.5669 -1.3289 0
M  V30 15 H -3.1621 0.4327 1.0784 0
M  V30 16 H -1.5075 0.4511 1.7149 0
M  V30 17 H -3.0006 -2.0709 0.568 0
M  V30 18 H -1.5775 -2.7039 -0.3329 0
M  V30 19 H -1.3836 -2.0127 1.3218 0
M  V30 20 H 0.7026 0.6003 1.0248 0
M  V30 21 H 0.6837 -1.1919 1.0785 0
M  V30 22 H -0.8691 2.2664 0.1224 0
M  V30 23 H -2.3274 2.7157 1.0657 0
M  V30 24 H -2.5075 2.1888 -0.6443 0
M  V30 25 H 2.4015 -1.2331 -0.7957 0
M  V30 26 H 2.079 0.9882 -1.8227 0
M  V30 27 H 2.4774 1.8158 -0.2635 0
M  V30 28 H 3.7376 0.8902 -1.1664 0
M  V30 29 H 4.3082 -0.6338 0.681 0
M  V30 30 H 3.1957 0.2783 1.7759 0
M  V30 31 H 3.0337 -1.5125 1.5911 0
M  V30 END ATOM
M  V30 BEGIN BOND
M  V30 1 2 1 2
M  V30 2 1 2 3
M  V30 3 1 2 4
M  V30 4 1 4 5
M  V30 5 1 4 6
M  V30 6 1 4 7
M  V30 7 1 5 8
M  V30 8 1 6 9
M  V30 9 1 8 10
M  V30 10 1 10 11
M  V30 11 1 10 12
M  V30 12 1 5 13
M  V30 13 1 5 14
M  V30 14 1 6 15
M  V30 15 1 6 16
M  V30 16 1 7 17
M  V30 17 1 7 18
M  V30 18 1 7 19
M  V30 19 1 8 20
M  V30 20 1 8 21
M  V30 21 1 9 22
M  V30 22 1 9 23
M  V30 23 1 9 24
M  V30 24 1 10 25
M  V30 25 1 11 26
M  V30 26 1 11 27
M  V30 27 1 11 28
M  V30 28 1 12 29
M  V30 29 1 12 30
M  V30 30 1 12 31
M  V30 END BOND
M  V30 BEGIN COLLECTION
M  V30 MDLV30/STEABS ATOMS=(1 4)
M  V30 END COLLECTION
M  V30 END CTAB
M  END
>  <Structure No>
177

>  <LogS>
-2.716017407

>  <MMFF94 Energy>
25.215

$$$$
Compound 178
Actelion Java MolfileCreator 2.0

  0  0  0  0  0  0              0 V3000
M  V30 BEGIN CTAB
M  V30 COUNTS 34 34 0 0 0
M  V30 BEGIN ATOM
M  V30 1 O 1.1055 1.3426 -0.3947 0
M  V30 2 C 1.0075 0.2103 0.1516 0
M  V30 3 C 2.2151 -0.6044 0.4354 0
M  V30 4 C -0.3728 -0.3463 0.4805 0 CFG=2
M  V30 5 C 3.4859 -0.2189 0.2443 0
M  V30 6 C -1.1641 -0.8987 -0.7962 0
M  V30 7 C -1.2212 0.6859 1.284 0 CFG=2
M  V30 8 C 3.9038 1.1185 -0.2849 0
M  V30 9 C -2.4238 -0.0291 -1.139 0
M  V30 10 C -0.2757 -0.9823 -2.0651 0
M  V30 11 C -1.6519 -2.3347 -0.4928 0
M  V30 12 C -1.6966 1.7752 0.3555 0
M  V30 13 C -0.4868 1.2633 2.5031 0
M  V30 14 C -2.2192 1.4278 -0.8245 0
M  V30 15 H 2.0605 -1.6001 0.8331 0
M  V30 16 H -0.2064 -1.1902 1.1879 0
M  V30 17 H 4.272 -0.9201 0.4974 0
M  V30 18 H -2.1207 0.1572 1.6725 0
M  V30 19 H 3.5329 1.9272 0.3794 0
M  V30 20 H 5.012 1.1747 -0.3168 0
M  V30 21 H 3.5189 1.2602 -1.3164 0
M  V30 22 H -2.7224 -0.1402 -2.2043 0
M  V30 23 H -3.2963 -0.3646 -0.5354 0
M  V30 24 H -0.827 -1.4597 -2.9042 0
M  V30 25 H 0.6341 -1.5903 -1.873 0
M  V30 26 H 0.0286 0.0307 -2.403 0
M  V30 27 H -0.7886 -3.0146 -0.3246 0
M  V30 28 H -2.2855 -2.3477 0.4204 0
M  V30 29 H -2.2528 -2.7372 -1.3372 0
M  V30 30 H -1.5414 2.8242 0.5917 0
M  V30 31 H 0.3698 1.8994 2.1953 0
M  V30 32 H -0.1119 0.44 3.1472 0
M  V30 33 H -1.185 1.8848 3.1037 0
M  V30 34 H -2.4972 2.1895 -1.5462 0
M  V30 END ATOM
M  V30 BEGIN BOND
M  V30 1 2 1 2
M  V30 2 1 2 3
M  V30 3 1 2 4
M  V30 4 2 3 5
M  V30 5 1 4 6
M  V30 6 1 4 7
M  V30 7 1 5 8
M  V30 8 1 6 9
M  V30 9 1 6 10
M  V30 10 1 6 11
M  V30 11 1 7 12
M  V30 12 1 7 13
M  V30 13 1 9 14
M  V30 14 2 12 14
M  V30 15 1 3 15
M  V30 16 1 4 16
M  V30 17 1 5 17
M  V30 18 1 7 18
M  V30 19 1 8 19
M  V30 20 1 8 20
M  V30 21 1 8 21
M  V30 22 1 9 22
M  V30 23 1 9 23
M  V30 24 1 10 24
M  V30 25 1 10 25
M  V30 26 1 10 26
M  V30 27 1 11 27
M  V30 28 1 11 28
M  V30 29 1 11 29
M  V30 30 1 12 30
M  V30 31 1 13 31
M  V30 32 1 13 32
M  V30 33 1 13 33
M  V30 34 1 14 34
M  V30 END BOND
M  V30 BEGIN COLLECTION
M  V30 MDLV30/STEABS ATOMS=(2 4 7)
M  V30 END COLLECTION
M  V30 END CTAB
M  END
>  <Structure No>
178

>  <LogS>
-3.396366501

>  <MMFF94 Energy>
43.05

$$$$
Compound 179
Actelion Java MolfileCreator 2.0

  0  0  0  0  0  0              0 V3000
M  V30 BEGIN CTAB
M  V30 COUNTS 34 36 0 0 0
M  V30 BEGIN ATOM
M  V30 1 O 3.2445 1.7835 0.243 0
M  V30 2 C 2.7698 0.6612 0.5728 0
M  V30 3 O 3.5754 -0.2739 1.2355 0
M  V30 4 C 1.3629 0.3286 0.259 0
M  V30 5 C 4.9537 -0.0505 1.5379 0
M  V30 6 C 0.5335 1.2571 -0.3934 0
M  V30 7 C 0.8361 -0.9256 0.6083 0
M  V30 8 C 5.8624 -0.2344 0.3138 0 CFG=2
M  V30 9 C -0.7948 0.9374 -0.6894 0
M  V30 10 C -0.492 -1.2454 0.3123 0
M  V30 11 O 5.1647 -0.4346 -0.8937 0
M  V30 12 C 5.8 -1.5631 -0.3363 0
M  V30 13 C -1.3215 -0.317 -0.3401 0
M  V30 14 C -2.7285 -0.6496 -0.6539 0
M  V30 15 O -3.2028 -1.772 -0.3244 0
M  V30 16 O -3.5343 0.2856 -1.3161 0
M  V30 17 C -4.9123 0.0616 -1.6192 0
M  V30 18 C -5.8206 0.2382 -0.3938 0 CFG=1
M  V30 19 O -5.1231 0.4583 0.8105 0
M  V30 20 C -5.7779 1.5723 0.2471 0
M  V30 21 H 5.2674 -0.7718 2.3214 0
M  V30 22 H 5.0914 0.9708 1.953 0
M  V30 23 H 0.91 2.2325 -0.6757 0
M  V30 24 H 1.4497 -1.6631 1.1104 0
M  V30 25 H 6.8034 0.3418 0.1926 0
M  V30 26 H -1.4083 1.6749 -1.1915 0
M  V30 27 H -0.8686 -2.2207 0.5947 0
M  V30 28 H 5.055 -2.2934 0.045 0
M  V30 29 H 6.6865 -1.8587 -0.9347 0
M  V30 30 H -5.2273 0.7853 -2.3999 0
M  V30 31 H -5.0482 -0.9583 -2.0385 0
M  V30 32 H -6.752 -0.3522 -0.2659 0
M  V30 33 H -6.6676 1.8579 0.8461 0
M  V30 34 H -5.0458 2.3119 -0.1412 0
M  V30 END ATOM
M  V30 BEGIN BOND
M  V30 1 2 1 2
M  V30 2 1 2 3
M  V30 3 1 2 4
M  V30 4 1 3 5
M  V30 5 2 4 6
M  V30 6 1 4 7
M  V30 7 1 5 8
M  V30 8 1 6 9
M  V30 9 2 7 10
M  V30 10 1 8 11
M  V30 11 1 8 12
M  V30 12 2 9 13
M  V30 13 1 13 14
M  V30 14 2 14 15
M  V30 15 1 14 16
M  V30 16 1 16 17
M  V30 17 1 17 18
M  V30 18 1 18 19
M  V30 19 1 18 20
M  V30 20 1 10 13
M  V30 21 1 11 12
M  V30 22 1 19 20
M  V30 23 1 5 21
M  V30 24 1 5 22
M  V30 25 1 6 23
M  V30 26 1 7 24
M  V30 27 1 8 25
M  V30 28 1 9 26
M  V30 29 1 10 27
M  V30 30 1 12 28
M  V30 31 1 12 29
M  V30 32 1 17 30
M  V30 33 1 17 31
M  V30 34 1 18 32
M  V30 35 1 20 33
M  V30 36 1 20 34
M  V30 END BOND
M  V30 BEGIN COLLECTION
M  V30 MDLV30/STEABS ATOMS=(2 8 18)
M  V30 END COLLECTION
M  V30 END CTAB
M  END
>  <Structure No>
179

>  <LogS>
-3.557960056

>  <MMFF94 Energy>
56.938

$$$$
Compound 180
Actelion Java MolfileCreator 2.0

  0  0  0  0  0  0              0 V3000
M  V30 BEGIN CTAB
M  V30 COUNTS 29 28 0 0 0
M  V30 BEGIN ATOM
M  V30 1 O -4.4192 -1.7038 0.7741 0
M  V30 2 C -4.2624 -1.091 -0.2699 0
M  V30 3 C -3.026 -0.2734 -0.4928 0
M  V30 4 C -2.9706 0.9087 0.4814 0
M  V30 5 C -1.79 1.8047 0.2008 0
M  V30 6 C -0.5128 1.5369 0.5346 0
M  V30 7 C -0.0324 0.2764 1.2158 0
M  V30 8 C 0.7988 -0.5981 0.2659 0
M  V30 9 C 2.1788 0.0066 -0.0323 0
M  V30 10 C 3.0084 -0.9309 -0.9169 0
M  V30 11 C 4.3787 -0.3329 -1.2218 0
M  V30 12 H -5.019 -1.1518 -1.0454 0
M  V30 13 H -3.032 0.1077 -1.537 0
M  V30 14 H -2.1407 -0.9287 -0.3672 0
M  V30 15 H -3.8955 1.513 0.3545 0
M  V30 16 H -2.9537 0.5609 1.5365 0
M  V30 17 H -1.9967 2.7601 -0.2732 0
M  V30 18 H 0.2356 2.2838 0.2878 0
M  V30 19 H -0.8752 -0.3276 1.6065 0
M  V30 20 H 0.5808 0.5605 2.0976 0
M  V30 21 H 0.9385 -1.5923 0.7442 0
M  V30 22 H 0.2447 -0.7546 -0.6851 0
M  V30 23 H 2.0553 0.98 -0.5542 0
M  V30 24 H 2.7196 0.1828 0.9235 0
M  V30 25 H 3.149 -1.9063 -0.4019 0
M  V30 26 H 2.4741 -1.1125 -1.8749 0
M  V30 27 H 4.9441 -0.1639 -0.2805 0
M  V30 28 H 4.2675 0.6318 -1.7613 0
M  V30 29 H 4.9557 -1.033 -1.8618 0
M  V30 END ATOM
M  V30 BEGIN BOND
M  V30 1 2 1 2
M  V30 2 1 2 3
M  V30 3 1 3 4
M  V30 4 1 4 5
M  V30 5 2 5 6
M  V30 6 1 6 7
M  V30 7 1 7 8
M  V30 8 1 8 9
M  V30 9 1 9 10
M  V30 10 1 10 11
M  V30 11 1 2 12
M  V30 12 1 3 13
M  V30 13 1 3 14
M  V30 14 1 4 15
M  V30 15 1 4 16
M  V30 16 1 5 17
M  V30 17 1 6 18
M  V30 18 1 7 19
M  V30 19 1 7 20
M  V30 20 1 8 21
M  V30 21 1 8 22
M  V30 22 1 9 23
M  V30 23 1 9 24
M  V30 24 1 10 25
M  V30 25 1 10 26
M  V30 26 1 11 27
M  V30 27 1 11 28
M  V30 28 1 11 29
M  V30 END BOND
M  V30 END CTAB
M  END
>  <Structure No>
180

>  <LogS>
-3.301742894

>  <MMFF94 Energy>
4.7743

$$$$
Compound 181
Actelion Java MolfileCreator 2.0

  0  0  0  0  0  0              0 V3000
M  V30 BEGIN CTAB
M  V30 COUNTS 98 103 0 0 0
M  V30 BEGIN ATOM
M  V30 1 S -2.7788 -1.7974 -1.8791 0
M  V30 2 O -1.7125 -1.8745 -0.8247 0
M  V30 3 O -2.2785 -2.4069 -3.1595 0
M  V30 4 O -4.0958 -2.6912 -1.3406 0 CHG=-1
M  V30 5 C -3.2775 -0.1161 -2.168 0
M  V30 6 C -2.4095 1.0155 -2.1077 0
M  V30 7 C -4.649 0.0902 -2.4091 0
M  V30 8 C -2.9578 2.301 -2.2742 0
M  V30 9 C -0.9563 0.9584 -1.8244 0
M  V30 10 C -5.1805 1.3852 -2.5373 0
M  V30 11 C -4.3224 2.4806 -2.4916 0
M  V30 12 C -0.1208 0.0616 -2.3545 0
M  V30 13 N -6.5956 1.609 -2.6633 0
M  V30 14 C 1.3547 0.1507 -2.2199 0
M  V30 15 C -7.5552 0.9966 -1.7847 0
M  V30 16 C 2.0438 0.5081 -1.0294 0
M  V30 17 C 2.102 -0.117 -3.3753 0
M  V30 18 N -8.8672 1.3438 -1.8585 0
M  V30 19 N -7.1524 0.1111 -0.8406 0
M  V30 20 S 1.2588 0.6452 0.5624 0
M  V30 21 C 3.4432 0.6875 -1.0683 0
M  V30 22 C 3.4917 0.0046 -3.378 0
M  V30 23 C -9.7751 0.7898 -1.0095 0
M  V30 24 C -8.0422 -0.4376 0.0229 0
M  V30 25 O 0.0637 -0.2594 0.6668 0
M  V30 26 O 0.8467 2.072 0.8168 0
M  V30 27 O 2.3439 0.1734 1.7534 0 CHG=-1
M  V30 28 C 4.1825 0.3984 -2.2251 0
M  V30 29 N -9.3549 -0.1077 -0.0751 0
M  V30 30 N -11.1696 1.1557 -1.103 0
M  V30 31 N -7.6159 -1.3887 1.0068 0
M  V30 32 N 5.6213 0.496 -2.2825 0
M  V30 33 C -12.1929 0.3887 -0.3737 0
M  V30 34 C -11.5634 2.2822 -1.9481 0
M  V30 35 C -6.2397 -1.6768 1.3154 0
M  V30 36 C 6.5349 0.1971 -1.2068 0
M  V30 37 C -12.2482 0.7837 1.1065 0
M  V30 38 C -5.8753 -2.9796 1.7059 0
M  V30 39 C -5.2564 -0.6678 1.293 0
M  V30 40 N 7.7941 -0.2187 -1.5013 0
M  V30 41 N 6.1712 0.3453 0.0923 0
M  V30 42 O -12.5286 2.1557 1.2411 0
M  V30 43 C -4.5428 -3.2794 2.012 0
M  V30 44 C -3.9279 -0.9768 1.6069 0
M  V30 45 C 8.6802 -0.4902 -0.5111 0
M  V30 46 C 7.0516 0.0941 1.0939 0
M  V30 47 C -3.5706 -2.2804 1.9639 0
M  V30 48 N 8.3054 -0.3201 0.7808 0
M  V30 49 N 9.9958 -0.972 -0.8289 0
M  V30 50 N 6.6619 0.3297 2.4518 0
M  V30 51 C 10.7728 -1.7488 0.1529 0
M  V30 52 C 10.56 -0.6852 -2.1445 0
M  V30 53 C 7.5726 0.2923 3.5684 0
M  V30 54 C 11.8288 -0.8847 0.8373 0
M  V30 55 C 7.4573 1.2577 4.5783 0
M  V30 56 C 8.561 -0.7041 3.6822 0
M  V30 57 O 11.2134 0.1526 1.5473 0
M  V30 58 C 8.3293 1.2544 5.6703 0
M  V30 59 C 9.4229 -0.7138 4.7896 0
M  V30 60 C 9.3125 0.2679 5.7817 0
M  V30 61 H -5.3224 -0.7539 -2.4822 0
M  V30 62 H -2.3209 3.1753 -2.2206 0
M  V30 63 H -0.5332 1.7944 -1.2952 0
M  V30 64 H -4.7175 3.4842 -2.5849 0
M  V30 65 H -0.5049 -0.65 -3.0686 0
M  V30 66 H -6.9274 2.3999 -3.269 0
M  V30 67 H 1.6052 -0.3975 -4.2989 0
M  V30 68 H 3.9276 1.0591 -0.1845 0
M  V30 69 H 4.0344 -0.2077 -4.294 0
M  V30 70 H -8.3566 -1.9582 1.4747 0
M  V30 71 H 6.047 0.5189 -3.2359 0
M  V30 72 H -11.9704 -0.7004 -0.4477 0
M  V30 73 H -13.1926 0.5453 -0.8386 0
M  V30 74 H -12.6576 2.477 -1.8825 0
M  V30 75 H -11.3108 2.0553 -3.0097 0
M  V30 76 H -11.0286 3.1994 -1.6175 0
M  V30 77 H -13.0275 0.1762 1.6288 0
M  V30 78 H -11.2772 0.5643 1.6096 0
M  V30 79 H -6.6213 -3.7603 1.7519 0
M  V30 80 H -5.5117 0.3603 1.0751 0
M  V30 81 H -13.4992 2.273 1.087 0
M  V30 82 H -4.2735 -4.2888 2.2905 0
M  V30 83 H -3.1696 -0.2074 1.5739 0
M  V30 84 H -2.537 -2.5252 2.1802 0
M  V30 85 H 5.7161 0.7596 2.603 0
M  V30 86 H 10.1072 -2.2004 0.9135 0
M  V30 87 H 11.2738 -2.5984 -0.3509 0
M  V30 88 H 11.5687 -1.1396 -2.243 0
M  V30 89 H 9.911 -1.1021 -2.9432 0
M  V30 90 H 10.6572 0.4075 -2.2758 0
M  V30 91 H 12.4175 -1.5312 1.529 0
M  V30 92 H 12.5194 -0.462 0.0741 0
M  V30 93 H 6.7068 2.0308 4.509 0
M  V30 94 H 8.6291 -1.5015 2.9617 0
M  V30 95 H 11.929 0.5616 2.1066 0
M  V30 96 H 8.239 2.0137 6.4356 0
M  V30 97 H 10.1971 -1.4736 4.8549 0
M  V30 98 H 9.9793 0.2488 6.649 0
M  V30 END ATOM
M  V30 BEGIN BOND
M  V30 1 2 1 2
M  V30 2 2 1 3
M  V30 3 1 1 4
M  V30 4 1 1 5
M  V30 5 2 5 6
M  V30 6 1 5 7
M  V30 7 1 6 8
M  V30 8 1 6 9
M  V30 9 2 7 10
M  V30 10 2 8 11
M  V30 11 2 9 12
M  V30 12 1 10 13
M  V30 13 1 12 14
M  V30 14 1 13 15
M  V30 15 2 14 16
M  V30 16 1 14 17
M  V30 17 2 15 18
M  V30 18 1 15 19
M  V30 19 1 16 20
M  V30 20 1 16 21
M  V30 21 2 17 22
M  V30 22 1 18 23
M  V30 23 2 19 24
M  V30 24 2 20 25
M  V30 25 2 20 26
M  V30 26 1 20 27
M  V30 27 2 21 28
M  V30 28 2 23 29
M  V30 29 1 23 30
M  V30 30 1 24 31
M  V30 31 1 28 32
M  V30 32 1 30 33
M  V30 33 1 30 34
M  V30 34 1 31 35
M  V30 35 1 32 36
M  V30 36 1 33 37
M  V30 37 2 35 38
M  V30 38 1 35 39
M  V30 39 2 36 40
M  V30 40 1 36 41
M  V30 41 1 37 42
M  V30 42 1 38 43
M  V30 43 2 39 44
M  V30 44 1 40 45
M  V30 45 2 41 46
M  V30 46 2 43 47
M  V30 47 2 45 48
M  V30 48 1 45 49
M  V30 49 1 46 50
M  V30 50 1 49 51
M  V30 51 1 49 52
M  V30 52 1 50 53
M  V30 53 1 51 54
M  V30 54 2 53 55
M  V30 55 1 53 56
M  V30 56 1 54 57
M  V30 57 1 55 58
M  V30 58 2 56 59
M  V30 59 2 58 60
M  V30 60 1 10 11
M  V30 61 1 22 28
M  V30 62 1 24 29
M  V30 63 1 44 47
M  V30 64 1 46 48
M  V30 65 1 59 60
M  V30 66 1 7 61
M  V30 67 1 8 62
M  V30 68 1 9 63
M  V30 69 1 11 64
M  V30 70 1 12 65
M  V30 71 1 13 66
M  V30 72 1 17 67
M  V30 73 1 21 68
M  V30 74 1 22 69
M  V30 75 1 31 70
M  V30 76 1 32 71
M  V30 77 1 33 72
M  V30 78 1 33 73
M  V30 79 1 34 74
M  V30 80 1 34 75
M  V30 81 1 34 76
M  V30 82 1 37 77
M  V30 83 1 37 78
M  V30 84 1 38 79
M  V30 85 1 39 80
M  V30 86 1 42 81
M  V30 87 1 43 82
M  V30 88 1 44 83
M  V30 89 1 47 84
M  V30 90 1 50 85
M  V30 91 1 51 86
M  V30 92 1 51 87
M  V30 93 1 52 88
M  V30 94 1 52 89
M  V30 95 1 52 90
M  V30 96 1 54 91
M  V30 97 1 54 92
M  V30 98 1 55 93
M  V30 99 1 56 94
M  V30 100 1 57 95
M  V30 101 1 58 96
M  V30 102 1 59 97
M  V30 103 1 60 98
M  V30 END BOND
M  V30 END CTAB
M  END
>  <Structure No>
181

>  <LogS>
-3.069321152

>  <MMFF94 Energy>
-289.58

$$$$
Compound 182
Actelion Java MolfileCreator 2.0

  0  0  0  0  0  0              0 V3000
M  V30 BEGIN CTAB
M  V30 COUNTS 22 22 0 0 0
M  V30 BEGIN ATOM
M  V30 1 O -0.391 -2.8966 0.0782 0
M  V30 2 C -0.0419 -1.5442 0.0255 0
M  V30 3 C -1.011 -0.5121 0.0896 0
M  V30 4 C 1.314 -1.2276 -0.0897 0
M  V30 5 C -0.579 0.8421 0.0646 0
M  V30 6 C -2.4739 -0.879 0.2007 0
M  V30 7 C 1.7363 0.1032 -0.1479 0
M  V30 8 C 0.7914 1.13 -0.0522 0
M  V30 9 C -1.5494 1.9921 0.1586 0
M  V30 10 C 3.199 0.428 -0.2329 0
M  V30 11 H -1.3425 -3.2241 0.1821 0
M  V30 12 H 2.0423 -2.0287 -0.1329 0
M  V30 13 H -2.7587 -1.5398 -0.6448 0
M  V30 14 H -3.1556 -0.008 0.1683 0
M  V30 15 H -2.6514 -1.4106 1.1593 0
M  V30 16 H 1.1287 2.16 -0.069 0
M  V30 17 H -1.0286 2.9734 0.1704 0
M  V30 18 H -2.2316 1.9817 -0.7173 0
M  V30 19 H -2.1385 1.9145 1.0966 0
M  V30 20 H 3.7478 -0.3696 -0.7771 0
M  V30 21 H 3.3572 1.3839 -0.7765 0
M  V30 22 H 3.6165 0.5206 0.7914 0
M  V30 END ATOM
M  V30 BEGIN BOND
M  V30 1 1 1 2
M  V30 2 2 2 3
M  V30 3 1 2 4
M  V30 4 1 3 5
M  V30 5 1 3 6
M  V30 6 2 4 7
M  V30 7 2 5 8
M  V30 8 1 5 9
M  V30 9 1 7 10
M  V30 10 1 7 8
M  V30 11 1 1 11
M  V30 12 1 4 12
M  V30 13 1 6 13
M  V30 14 1 6 14
M  V30 15 1 6 15
M  V30 16 1 8 16
M  V30 17 1 9 17
M  V30 18 1 9 18
M  V30 19 1 9 19
M  V30 20 1 10 20
M  V30 21 1 10 21
M  V30 22 1 10 22
M  V30 END BOND
M  V30 END CTAB
M  END
>  <Structure No>
182

>  <LogS>
-2.252203004

>  <MMFF94 Energy>
15.683

$$$$
Compound 183
Actelion Java MolfileCreator 2.0

  0  0  0  0  0  0              0 V3000
M  V30 BEGIN CTAB
M  V30 COUNTS 8 7 0 0 0
M  V30 BEGIN ATOM
M  V30 1 F -1.206 -1.206 -0.4823 0
M  V30 2 C -0.7606 -0.0107 0.0514 0
M  V30 3 F -1.3528 1.0394 -0.6258 0
M  V30 4 F -1.1136 0.0516 1.387 0
M  V30 5 C 0.7515 0.0794 -0.0839 0
M  V30 6 H 1.2312 -0.7624 0.4588 0
M  V30 7 H 1.1136 1.0383 0.3436 0
M  V30 8 H 1.0395 0.0297 -1.1554 0
M  V30 END ATOM
M  V30 BEGIN BOND
M  V30 1 1 1 2
M  V30 2 1 2 3
M  V30 3 1 2 4
M  V30 4 1 2 5
M  V30 5 1 5 6
M  V30 6 1 5 7
M  V30 7 1 5 8
M  V30 END BOND
M  V30 END CTAB
M  END
>  <Structure No>
183

>  <LogS>
-2.043101387

>  <MMFF94 Energy>
3.0147

$$$$
Compound 184
Actelion Java MolfileCreator 2.0

  0  0  0  0  0  0              0 V3000
M  V30 BEGIN CTAB
M  V30 COUNTS 32 32 0 0 0
M  V30 BEGIN ATOM
M  V30 1 O 1.814 1.5773 -2.2087 0
M  V30 2 C 1.9299 0.8275 -1.2007 0
M  V30 3 C 0.6952 0.45 -0.4729 0
M  V30 4 C 3.326 0.3488 -0.8126 0
M  V30 5 C -0.4118 -0.0185 -1.1969 0
M  V30 6 C 0.5857 0.5958 0.919 0
M  V30 7 O 4.0819 0.1412 -1.9833 0
M  V30 8 C 3.301 -0.9687 -0.0075 0
M  V30 9 C 4.0339 1.4406 0.0021 0
M  V30 10 C -1.5964 -0.3656 -0.5406 0
M  V30 11 C -0.5987 0.2495 1.5751 0
M  V30 12 C -1.6999 -0.23 0.8571 0
M  V30 13 O -2.86 -0.5647 1.5759 0
M  V30 14 C -4.1325 -0.8949 1.016 0
M  V30 15 C -4.9207 0.3683 0.6618 0
M  V30 16 O -4.3111 1.0671 -0.3885 0
M  V30 17 H -0.3535 -0.1296 -2.2731 0
M  V30 18 H 1.4034 0.9917 1.5026 0
M  V30 19 H 3.6276 -0.5617 -2.5195 0
M  V30 20 H 2.8926 -0.8212 1.0129 0
M  V30 21 H 4.3327 -1.3675 0.0986 0
M  V30 22 H 2.6877 -1.7327 -0.5321 0
M  V30 23 H 5.0759 1.1307 0.2335 0
M  V30 24 H 3.5117 1.6393 0.9596 0
M  V30 25 H 4.0778 2.3877 -0.5779 0
M  V30 26 H -2.4166 -0.7402 -1.1341 0
M  V30 27 H -0.6655 0.3645 2.6497 0
M  V30 28 H -4.7085 -1.4484 1.7873 0
M  V30 29 H -4.0346 -1.5744 0.1442 0
M  V30 30 H -4.9683 1.0307 1.552 0
M  V30 31 H -5.9655 0.0941 0.3892 0
M  V30 32 H -4.5618 0.5959 -1.2257 0
M  V30 END ATOM
M  V30 BEGIN BOND
M  V30 1 2 1 2
M  V30 2 1 2 3
M  V30 3 1 2 4
M  V30 4 2 3 5
M  V30 5 1 3 6
M  V30 6 1 4 7
M  V30 7 1 4 8
M  V30 8 1 4 9
M  V30 9 1 5 10
M  V30 10 2 6 11
M  V30 11 2 10 12
M  V30 12 1 12 13
M  V30 13 1 13 14
M  V30 14 1 14 15
M  V30 15 1 15 16
M  V30 16 1 11 12
M  V30 17 1 5 17
M  V30 18 1 6 18
M  V30 19 1 7 19
M  V30 20 1 8 20
M  V30 21 1 8 21
M  V30 22 1 8 22
M  V30 23 1 9 23
M  V30 24 1 9 24
M  V30 25 1 9 25
M  V30 26 1 10 26
M  V30 27 1 11 27
M  V30 28 1 14 28
M  V30 29 1 14 29
M  V30 30 1 15 30
M  V30 31 1 15 31
M  V30 32 1 16 32
M  V30 END BOND
M  V30 END CTAB
M  END
>  <Structure No>
184

>  <LogS>
-1.469930479

>  <MMFF94 Energy>
87.406

$$$$
Compound 185
Actelion Java MolfileCreator 2.0

  0  0  0  0  0  0              0 V3000
M  V30 BEGIN CTAB
M  V30 COUNTS 7 6 0 0 0
M  V30 BEGIN ATOM
M  V30 1 S 2.8803 -0.1598 0.3996 0
M  V30 2 C 1.4159 0.1074 -0.217 0
M  V30 3 N 0.2595 0.3183 -0.7035 0
M  V30 4 C -0.9543 -0.0516 0.0119 0
M  V30 5 H -1.5696 0.8559 0.1825 0
M  V30 6 H -0.7241 -0.5207 0.9946 0
M  V30 7 H -1.536 -0.7701 -0.6016 0
M  V30 END ATOM
M  V30 BEGIN BOND
M  V30 1 2 1 2
M  V30 2 2 2 3
M  V30 3 1 3 4
M  V30 4 1 4 5
M  V30 5 1 4 6
M  V30 6 1 4 7
M  V30 END BOND
M  V30 END CTAB
M  END
>  <Structure No>
185

>  <LogS>
-0.98322259

>  <MMFF94 Energy>
MMFF94 error code 2

$$$$
Compound 186
Actelion Java MolfileCreator 2.0

  0  0  0  0  0  0              0 V3000
M  V30 BEGIN CTAB
M  V30 COUNTS 34 35 0 0 0
M  V30 BEGIN ATOM
M  V30 1 O -1.1856 -1.8185 -1.3438 0
M  V30 2 C -0.3245 -0.9451 -1.0462 0
M  V30 3 N -0.7573 0.3976 -0.7399 0
M  V30 4 N 1.0724 -1.3028 -1.043 0
M  V30 5 C -2.07 0.6144 -0.1872 0
M  V30 6 C 0.151 1.5354 -0.918 0
M  V30 7 C 1.9496 -0.8071 -0.0145 0
M  V30 8 C 1.5223 -2.41 -1.8898 0
M  V30 9 C -2.4961 -0.1195 0.9334 0
M  V30 10 C -2.9466 1.5483 -0.7673 0
M  V30 11 C 1.55 -0.8247 1.3331 0
M  V30 12 C 3.2108 -0.2862 -0.3492 0
M  V30 13 C -3.77 0.0871 1.4711 0
M  V30 14 C -4.2203 1.7514 -0.2268 0
M  V30 15 C 2.3982 -0.3275 2.3269 0
M  V30 16 C 4.056 0.2103 0.6477 0
M  V30 17 C -4.6309 1.0232 0.8926 0
M  V30 18 C 3.6501 0.1899 1.9846 0
M  V30 19 H -0.4036 2.4538 -1.1978 0
M  V30 20 H 0.6935 1.732 0.0298 0
M  V30 21 H 0.8824 1.3284 -1.7279 0
M  V30 22 H 1.252 -3.3757 -1.4135 0
M  V30 23 H 1.0404 -2.3473 -2.8886 0
M  V30 24 H 2.6217 -2.3815 -2.0389 0
M  V30 25 H -1.839 -0.8451 1.394 0
M  V30 26 H -2.6546 2.1039 -1.6487 0
M  V30 27 H 0.5873 -1.2307 1.6127 0
M  V30 28 H 3.5296 -0.2464 -1.3828 0
M  V30 29 H -4.0897 -0.4784 2.3366 0
M  V30 30 H -4.8913 2.4698 -0.6794 0
M  V30 31 H 2.0852 -0.3444 3.3629 0
M  V30 32 H 5.0241 0.6153 0.3831 0
M  V30 33 H -5.6172 1.1814 1.3091 0
M  V30 34 H 4.3053 0.5754 2.755 0
M  V30 END ATOM
M  V30 BEGIN BOND
M  V30 1 2 1 2
M  V30 2 1 2 3
M  V30 3 1 2 4
M  V30 4 1 3 5
M  V30 5 1 3 6
M  V30 6 1 4 7
M  V30 7 1 4 8
M  V30 8 2 5 9
M  V30 9 1 5 10
M  V30 10 2 7 11
M  V30 11 1 7 12
M  V30 12 1 9 13
M  V30 13 2 10 14
M  V30 14 1 11 15
M  V30 15 2 12 16
M  V30 16 2 13 17
M  V30 17 2 15 18
M  V30 18 1 14 17
M  V30 19 1 16 18
M  V30 20 1 6 19
M  V30 21 1 6 20
M  V30 22 1 6 21
M  V30 23 1 8 22
M  V30 24 1 8 23
M  V30 25 1 8 24
M  V30 26 1 9 25
M  V30 27 1 10 26
M  V30 28 1 11 27
M  V30 29 1 12 28
M  V30 30 1 13 29
M  V30 31 1 14 30
M  V30 32 1 15 31
M  V30 33 1 16 32
M  V30 34 1 17 33
M  V30 35 1 18 34
M  V30 END BOND
M  V30 END CTAB
M  END
>  <Structure No>
186

>  <LogS>
-3.497557581

>  <MMFF94 Energy>
10.386

$$$$
Compound 187
Actelion Java MolfileCreator 2.0

  0  0  0  0  0  0              0 V3000
M  V30 BEGIN CTAB
M  V30 COUNTS 42 42 0 0 0
M  V30 BEGIN ATOM
M  V30 1 O -4.1265 2.2997 0.5547 0
M  V30 2 C -2.9181 2.1286 0.2442 0
M  V30 3 O -1.9912 3.1106 0.6292 0
M  V30 4 C -2.5448 0.8731 -0.4992 0
M  V30 5 C -0.591 3.1141 0.3455 0
M  V30 6 C -2.5663 -0.3369 0.4419 0
M  V30 7 C 0.1672 2.1498 1.2646 0
M  V30 8 C -2.2628 -1.6478 -0.3125 0
M  V30 9 O 1.5289 2.5575 1.4061 0
M  V30 10 C -1.579 -2.705 0.5717 0
M  V30 11 C 2.5498 2.3257 0.4719 0
M  V30 12 C -0.1137 -2.3899 0.9512 0
M  V30 13 O 3.6684 2.8732 0.6579 0
M  V30 14 C 2.3915 1.3897 -0.6948 0
M  V30 15 C 0.9133 -2.6882 -0.1579 0
M  V30 16 C 2.8573 -0.0257 -0.3193 0
M  V30 17 C 1.0321 -1.5675 -1.2184 0
M  V30 18 C 2.4739 -1.0575 -1.3955 0
M  V30 19 H -1.5468 0.9654 -0.9708 0
M  V30 20 H -3.2808 0.7136 -1.3172 0
M  V30 21 H -0.2182 4.1431 0.5358 0
M  V30 22 H -0.404 2.8986 -0.7261 0
M  V30 23 H -1.8452 -0.1611 1.2638 0
M  V30 24 H -3.5698 -0.4246 0.9145 0
M  V30 25 H 0.1071 1.107 0.8959 0
M  V30 26 H -0.3003 2.1754 2.2716 0
M  V30 27 H -3.2292 -2.0682 -0.6676 0
M  V30 28 H -1.6688 -1.4732 -1.2293 0
M  V30 29 H -1.621 -3.6884 0.0551 0
M  V30 30 H -2.1719 -2.8142 1.5066 0
M  V30 31 H 0.1395 -3.0447 1.8139 0
M  V30 32 H 0.0108 -1.3515 1.3178 0
M  V30 33 H 3.0073 1.761 -1.5429 0
M  V30 34 H 1.3434 1.3831 -1.0485 0
M  V30 35 H 0.664 -3.6507 -0.6557 0
M  V30 36 H 1.8953 -2.8486 0.3393 0
M  V30 37 H 2.4311 -0.3259 0.6637 0
M  V30 38 H 3.9641 -0.0153 -0.2118 0
M  V30 39 H 0.6782 -1.9671 -2.1938 0
M  V30 40 H 0.3817 -0.7056 -0.9705 0
M  V30 41 H 3.1835 -1.9132 -1.3636 0
M  V30 42 H 2.5801 -0.6006 -2.4043 0
M  V30 END ATOM
M  V30 BEGIN BOND
M  V30 1 2 1 2
M  V30 2 1 2 3
M  V30 3 1 2 4
M  V30 4 1 3 5
M  V30 5 1 4 6
M  V30 6 1 5 7
M  V30 7 1 6 8
M  V30 8 1 7 9
M  V30 9 1 8 10
M  V30 10 1 9 11
M  V30 11 1 10 12
M  V30 12 2 11 13
M  V30 13 1 11 14
M  V30 14 1 12 15
M  V30 15 1 14 16
M  V30 16 1 15 17
M  V30 17 1 16 18
M  V30 18 1 17 18
M  V30 19 1 4 19
M  V30 20 1 4 20
M  V30 21 1 5 21
M  V30 22 1 5 22
M  V30 23 1 6 23
M  V30 24 1 6 24
M  V30 25 1 7 25
M  V30 26 1 7 26
M  V30 27 1 8 27
M  V30 28 1 8 28
M  V30 29 1 10 29
M  V30 30 1 10 30
M  V30 31 1 12 31
M  V30 32 1 12 32
M  V30 33 1 14 33
M  V30 34 1 14 34
M  V30 35 1 15 35
M  V30 36 1 15 36
M  V30 37 1 16 37
M  V30 38 1 16 38
M  V30 39 1 17 39
M  V30 40 1 17 40
M  V30 41 1 18 41
M  V30 42 1 18 42
M  V30 END BOND
M  V30 END CTAB
M  END
>  <Structure No>
187

>  <LogS>
-3.533758505

>  <MMFF94 Energy>
-3.0405

$$$$
Compound 188
Actelion Java MolfileCreator 2.0

  0  0  0  0  0  0              0 V3000
M  V30 BEGIN CTAB
M  V30 COUNTS 33 32 0 0 0
M  V30 BEGIN ATOM
M  V30 1 O 5.2665 0.2318 1.2372 0
M  V30 2 C 5.0152 -0.6061 0.1405 0
M  V30 3 C 3.5351 -0.996 0.0841 0
M  V30 4 C 2.636 0.2062 -0.235 0
M  V30 5 C 1.1676 -0.2207 -0.352 0
M  V30 6 C 0.267 0.9862 -0.657 0
M  V30 7 C -1.1965 0.5876 -0.9096 0
M  V30 8 C -1.942 0.2223 0.3869 0
M  V30 9 C -3.398 -0.231 0.1316 0
M  V30 10 C -3.9879 -0.8473 1.4073 0
M  V30 11 C -4.2875 0.9283 -0.3432 0
M  V30 12 H 5.1602 1.1655 0.9171 0
M  V30 13 H 5.6199 -1.5295 0.2626 0
M  V30 14 H 5.3302 -0.1272 -0.8157 0
M  V30 15 H 3.2369 -1.4417 1.0585 0
M  V30 16 H 3.4059 -1.7699 -0.7038 0
M  V30 17 H 2.7302 0.9648 0.5725 0
M  V30 18 H 2.9632 0.6661 -1.1935 0
M  V30 19 H 1.0686 -0.9711 -1.167 0
M  V30 20 H 0.8556 -0.6921 0.6036 0
M  V30 21 H 0.3202 1.7208 0.1765 0
M  V30 22 H 0.6469 1.4904 -1.5729 0
M  V30 23 H -1.2384 -0.2606 -1.6274 0
M  V30 24 H -1.6982 1.4565 -1.3847 0
M  V30 25 H -1.4005 -0.6093 0.8847 0
M  V30 26 H -1.9344 1.0922 1.0805 0
M  V30 27 H -3.3991 -1.0194 -0.6535 0
M  V30 28 H -4.0074 -0.1003 2.2302 0
M  V30 29 H -3.3813 -1.7206 1.7296 0
M  V30 30 H -5.0237 -1.2032 1.2206 0
M  V30 31 H -4.245 1.7762 0.3737 0
M  V30 32 H -3.9712 1.2827 -1.3454 0
M  V30 33 H -5.3426 0.5917 -0.4332 0
M  V30 END ATOM
M  V30 BEGIN BOND
M  V30 1 1 1 2
M  V30 2 1 2 3
M  V30 3 1 3 4
M  V30 4 1 4 5
M  V30 5 1 5 6
M  V30 6 1 6 7
M  V30 7 1 7 8
M  V30 8 1 8 9
M  V30 9 1 9 10
M  V30 10 1 9 11
M  V30 11 1 1 12
M  V30 12 1 2 13
M  V30 13 1 2 14
M  V30 14 1 3 15
M  V30 15 1 3 16
M  V30 16 1 4 17
M  V30 17 1 4 18
M  V30 18 1 5 19
M  V30 19 1 5 20
M  V30 20 1 6 21
M  V30 21 1 6 22
M  V30 22 1 7 23
M  V30 23 1 7 24
M  V30 24 1 8 25
M  V30 25 1 8 26
M  V30 26 1 9 27
M  V30 27 1 10 28
M  V30 28 1 10 29
M  V30 29 1 10 30
M  V30 30 1 11 31
M  V30 31 1 11 32
M  V30 32 1 11 33
M  V30 END BOND
M  V30 END CTAB
M  END
>  <Structure No>
188

>  <LogS>
-3.324378497

>  <MMFF94 Energy>
3.2731

$$$$
Compound 189
Actelion Java MolfileCreator 2.0

  0  0  0  0  0  0              0 V3000
M  V30 BEGIN CTAB
M  V30 COUNTS 10 9 0 0 0
M  V30 BEGIN ATOM
M  V30 1 O 1.2475 1.2475 -1.3256 0
M  V30 2 C 1.1925 0.495 -0.3176 0
M  V30 3 O 2.0961 0.6707 0.7226 0 CHG=-1
M  V30 4 C 0.1272 -0.5496 -0.2155 0
M  V30 5 C -1.1158 0.0152 0.4615 0
M  V30 6 H -0.1382 -0.916 -1.2306 0
M  V30 7 H 0.5096 -1.4099 0.3743 0
M  V30 8 H -1.8926 -0.775 0.5308 0
M  V30 9 H -1.524 0.8642 -0.1276 0
M  V30 10 H -0.8716 0.3643 1.4877 0
M  V30 END ATOM
M  V30 BEGIN BOND
M  V30 1 2 1 2
M  V30 2 1 2 3
M  V30 3 1 2 4
M  V30 4 1 4 5
M  V30 5 1 4 6
M  V30 6 1 4 7
M  V30 7 1 5 8
M  V30 8 1 5 9
M  V30 9 1 5 10
M  V30 END BOND
M  V30 END CTAB
M  END
>  <Structure No>
189

>  <LogS>
-0.437662317

>  <MMFF94 Energy>
1.8575

$$$$
Compound 190
Actelion Java MolfileCreator 2.0

  0  0  0  0  0  0              0 V3000
M  V30 BEGIN CTAB
M  V30 COUNTS 26 27 0 0 0
M  V30 BEGIN ATOM
M  V30 1 O 1.9975 1.3579 -0.8785 0
M  V30 2 C 1.7663 0.2156 -0.3977 0
M  V30 3 O 2.7674 -0.7608 -0.3514 0
M  V30 4 C 0.4145 -0.0895 0.1527 0 CFG=2
M  V30 5 C 4.1013 -0.5391 -0.8043 0
M  V30 6 O -0.0401 -1.3503 -0.2799 0
M  V30 7 C -0.6669 -0.2248 -0.8534 0 CFG=1
M  V30 8 C 4.8818 0.2926 0.2068 0
M  V30 9 C -2.0629 -0.0465 -0.3359 0
M  V30 10 C -2.4752 1.2002 0.16 0
M  V30 11 C -2.984 -1.104 -0.4002 0
M  V30 12 C -3.7862 1.3774 0.6138 0
M  V30 13 C -4.2942 -0.923 0.0543 0
M  V30 14 C -4.6944 0.3159 0.5634 0
M  V30 15 H 0.1731 0.0938 1.2213 0
M  V30 16 H 4.6032 -1.5226 -0.9195 0
M  V30 17 H 4.0957 -0.0365 -1.796 0
M  V30 18 H -0.4405 -0.1286 -1.9366 0
M  V30 19 H 5.9318 0.4069 -0.1351 0
M  V30 20 H 4.8782 -0.2121 1.1959 0
M  V30 21 H 4.4296 1.301 0.311 0
M  V30 22 H -1.7816 2.0311 0.1965 0
M  V30 23 H -2.6874 -2.0654 -0.8008 0
M  V30 24 H -4.099 2.3383 1.0016 0
M  V30 25 H -5.0002 -1.7421 0.0088 0
M  V30 26 H -5.7091 0.4548 0.9137 0
M  V30 END ATOM
M  V30 BEGIN BOND
M  V30 1 2 1 2
M  V30 2 1 2 3
M  V30 3 1 2 4
M  V30 4 1 3 5
M  V30 5 1 4 6
M  V30 6 1 4 7
M  V30 7 1 5 8
M  V30 8 1 7 9
M  V30 9 2 9 10
M  V30 10 1 9 11
M  V30 11 1 10 12
M  V30 12 2 11 13
M  V30 13 2 12 14
M  V30 14 1 6 7
M  V30 15 1 13 14
M  V30 16 1 4 15
M  V30 17 1 5 16
M  V30 18 1 5 17
M  V30 19 1 7 18
M  V30 20 1 8 19
M  V30 21 1 8 20
M  V30 22 1 8 21
M  V30 23 1 10 22
M  V30 24 1 11 23
M  V30 25 1 12 24
M  V30 26 1 13 25
M  V30 27 1 14 26
M  V30 END BOND
M  V30 BEGIN COLLECTION
M  V30 MDLV30/STEABS ATOMS=(2 4 7)
M  V30 END COLLECTION
M  V30 END CTAB
M  END
>  <Structure No>
190

>  <LogS>
-2.409651238

>  <MMFF94 Energy>
14.077

$$$$
Compound 191
Actelion Java MolfileCreator 2.0

  0  0  0  0  0  0              0 V3000
M  V30 BEGIN CTAB
M  V30 COUNTS 30 29 0 0 0
M  V30 BEGIN ATOM
M  V30 1 O 2.9393 0.2318 -1.2367 0
M  V30 2 C 2.4036 -0.0074 0.0435 0
M  V30 3 C 0.8979 0.3784 0.0863 0
M  V30 4 C 2.5959 -1.4979 0.3743 0
M  V30 5 C 3.175 0.8313 1.0816 0
M  V30 6 C 0.0419 -0.3506 -0.9681 0
M  V30 7 C -1.3632 0.2604 -1.126 0
M  V30 8 C -2.2361 0.234 0.1523 0
M  V30 9 C -3.5748 0.9326 -0.1191 0
M  V30 10 C -2.487 -1.1961 0.6532 0
M  V30 11 H 2.8047 1.1927 -1.4493 0
M  V30 12 H 0.8031 1.4754 -0.0744 0
M  V30 13 H 0.4975 0.1549 1.099 0
M  V30 14 H 2.1156 -1.7527 1.3436 0
M  V30 15 H 3.6778 -1.7428 0.4411 0
M  V30 16 H 2.1614 -2.1382 -0.4212 0
M  V30 17 H 2.8044 0.6232 2.1088 0
M  V30 18 H 3.0509 1.9166 0.8778 0
M  V30 19 H 4.2601 0.5958 1.041 0
M  V30 20 H -0.0448 -1.4277 -0.718 0
M  V30 21 H 0.5437 -0.2863 -1.9572 0
M  V30 22 H -1.8899 -0.2872 -1.9385 0
M  V30 23 H -1.2486 1.313 -1.4674 0
M  V30 24 H -1.728 0.8058 0.958 0
M  V30 25 H -4.1437 0.3974 -0.9096 0
M  V30 26 H -3.4023 1.9798 -0.4478 0
M  V30 27 H -4.1887 0.9623 0.8064 0
M  V30 28 H -2.9071 -1.8282 -0.1579 0
M  V30 29 H -3.2009 -1.1867 1.5044 0
M  V30 30 H -1.5449 -1.6518 1.0214 0
M  V30 END ATOM
M  V30 BEGIN BOND
M  V30 1 1 1 2
M  V30 2 1 2 3
M  V30 3 1 2 4
M  V30 4 1 2 5
M  V30 5 1 3 6
M  V30 6 1 6 7
M  V30 7 1 7 8
M  V30 8 1 8 9
M  V30 9 1 8 10
M  V30 10 1 1 11
M  V30 11 1 3 12
M  V30 12 1 3 13
M  V30 13 1 4 14
M  V30 14 1 4 15
M  V30 15 1 4 16
M  V30 16 1 5 17
M  V30 17 1 5 18
M  V30 18 1 5 19
M  V30 19 1 6 20
M  V30 20 1 6 21
M  V30 21 1 7 22
M  V30 22 1 7 23
M  V30 23 1 8 24
M  V30 24 1 9 25
M  V30 25 1 9 26
M  V30 26 1 9 27
M  V30 27 1 10 28
M  V30 28 1 10 29
M  V30 29 1 10 30
M  V30 END BOND
M  V30 END CTAB
M  END
>  <Structure No>
191

>  <LogS>
-2.286983634

>  <MMFF94 Energy>
16.983

$$$$
Compound 192
Actelion Java MolfileCreator 2.0

  0  0  0  0  0  0              0 V3000
M  V30 BEGIN CTAB
M  V30 COUNTS 24 24 0 0 0
M  V30 BEGIN ATOM
M  V30 1 O 2.3612 1.1013 -1.9673 0
M  V30 2 C 2.0585 0.9994 -0.747 0
M  V30 3 O 0.7863 0.569 -0.3605 0
M  V30 4 C 3.0835 1.2953 0.3004 0
M  V30 5 C -0.2315 0.2413 -1.2997 0
M  V30 6 C 3.8084 0.0205 0.7146 0
M  V30 7 C -1.465 -0.1888 -0.5616 0
M  V30 8 C -1.6333 -1.5321 -0.1877 0
M  V30 9 C -2.4286 0.7589 -0.179 0
M  V30 10 C -2.7654 -1.9254 0.5333 0
M  V30 11 C -3.5592 0.3615 0.5419 0
M  V30 12 C -3.7288 -0.9799 0.8957 0
M  V30 13 H 2.5845 1.7407 1.1876 0
M  V30 14 H 3.8203 2.031 -0.0886 0
M  V30 15 H 0.1207 -0.5782 -1.9637 0
M  V30 16 H -0.4541 1.1263 -1.9354 0
M  V30 17 H 3.0873 -0.7159 1.1297 0
M  V30 18 H 4.562 0.2584 1.4947 0
M  V30 19 H 4.3295 -0.4276 -0.1582 0
M  V30 20 H -0.8894 -2.2729 -0.4534 0
M  V30 21 H -2.3045 1.8032 -0.4379 0
M  V30 22 H -2.8938 -2.9627 0.8145 0
M  V30 23 H -4.3021 1.0942 0.8299 0
M  V30 24 H -4.6036 -1.2856 1.4549 0
M  V30 END ATOM
M  V30 BEGIN BOND
M  V30 1 2 1 2
M  V30 2 1 2 3
M  V30 3 1 2 4
M  V30 4 1 3 5
M  V30 5 1 4 6
M  V30 6 1 5 7
M  V30 7 2 7 8
M  V30 8 1 7 9
M  V30 9 1 8 10
M  V30 10 2 9 11
M  V30 11 2 10 12
M  V30 12 1 11 12
M  V30 13 1 4 13
M  V30 14 1 4 14
M  V30 15 1 5 15
M  V30 16 1 5 16
M  V30 17 1 6 17
M  V30 18 1 6 18
M  V30 19 1 6 19
M  V30 20 1 8 20
M  V30 21 1 9 21
M  V30 22 1 10 22
M  V30 23 1 11 23
M  V30 24 1 12 24
M  V30 END BOND
M  V30 END CTAB
M  END
>  <Structure No>
192

>  <LogS>
-2.344979827

>  <MMFF94 Energy>
7.6152

$$$$
Compound 193
Actelion Java MolfileCreator 2.0

  0  0  0  0  0  0              0 V3000
M  V30 BEGIN CTAB
M  V30 COUNTS 26 26 0 0 0
M  V30 BEGIN ATOM
M  V30 1 O 1.4292 -0.3174 2.4624 0
M  V30 2 C 1.3727 -1.3317 1.7158 0
M  V30 3 O 0.8878 -1.2405 0.4022 0
M  V30 4 C 1.8851 -2.6393 2.2145 0
M  V30 5 C 0.3386 -0.0624 -0.2045 0
M  V30 6 C 1.3395 1.0275 -0.1625 0
M  V30 7 C 0.0177 -0.4098 -1.6759 0
M  V30 8 C -0.9599 0.3545 0.5329 0
M  V30 9 C 2.1541 1.9157 -0.1286 0
M  V30 10 C -0.7474 0.7099 -2.3978 0
M  V30 11 C -1.7227 1.469 -0.2 0
M  V30 12 C -2.0312 1.0695 -1.6454 0
M  V30 13 H 1.4147 -3.4709 1.6492 0
M  V30 14 H 1.6446 -2.7577 3.2923 0
M  V30 15 H 2.9854 -2.6817 2.0772 0
M  V30 16 H 0.9583 -0.6245 -2.2298 0
M  V30 17 H -0.5971 -1.337 -1.7065 0
M  V30 18 H -0.7297 0.7052 1.5614 0
M  V30 19 H -1.6253 -0.5319 0.6292 0
M  V30 20 H 2.8688 2.6955 -0.099 0
M  V30 21 H -1.0088 0.3709 -3.4232 0
M  V30 22 H -0.1028 1.6108 -2.4937 0
M  V30 23 H -1.1254 2.4069 -0.1895 0
M  V30 24 H -2.6765 1.6703 0.3336 0
M  V30 25 H -2.7264 0.2013 -1.6537 0
M  V30 26 H -2.5338 1.9162 -2.1608 0
M  V30 END ATOM
M  V30 BEGIN BOND
M  V30 1 2 1 2
M  V30 2 1 2 3
M  V30 3 1 2 4
M  V30 4 1 3 5
M  V30 5 1 5 6
M  V30 6 1 5 7
M  V30 7 1 5 8
M  V30 8 3 6 9
M  V30 9 1 7 10
M  V30 10 1 8 11
M  V30 11 1 10 12
M  V30 12 1 11 12
M  V30 13 1 4 13
M  V30 14 1 4 14
M  V30 15 1 4 15
M  V30 16 1 7 16
M  V30 17 1 7 17
M  V30 18 1 8 18
M  V30 19 1 8 19
M  V30 20 1 9 20
M  V30 21 1 10 21
M  V30 22 1 10 22
M  V30 23 1 11 23
M  V30 24 1 11 24
M  V30 25 1 12 25
M  V30 26 1 12 26
M  V30 END BOND
M  V30 END CTAB
M  END
>  <Structure No>
193

>  <LogS>
-2.352215179

>  <MMFF94 Energy>
-2.3966

$$$$
Compound 194
Actelion Java MolfileCreator 2.0

  0  0  0  0  0  0              0 V3000
M  V30 BEGIN CTAB
M  V30 COUNTS 23 22 0 0 0
M  V30 BEGIN ATOM
M  V30 1 N -0.3043 0.1521 -0.3804 0 CHG=1
M  V30 2 C -1.1153 -1.0148 0.0614 0
M  V30 3 C 0.2702 0.8729 0.7869 0
M  V30 4 C 0.717 -0.2577 -1.3829 0
M  V30 5 C -2.5173 -0.6125 0.5365 0
M  V30 6 C 1.004 2.1611 0.3962 0
M  V30 7 C 1.8104 -1.1869 -0.8345 0
M  V30 8 H -0.9433 0.8175 -0.8783 0
M  V30 9 H -0.6045 -1.568 0.8811 0
M  V30 10 H -1.2591 -1.7345 -0.7755 0
M  V30 11 H 0.953 0.2188 1.3706 0
M  V30 12 H -0.5439 1.1746 1.4795 0
M  V30 13 H 0.2189 -0.7714 -2.2358 0
M  V30 14 H 1.1984 0.6368 -1.833 0
M  V30 15 H -2.4696 0.0058 1.4553 0
M  V30 16 H -3.1022 -1.5269 0.7711 0
M  V30 17 H -3.0516 -0.0517 -0.259 0
M  V30 18 H 0.3776 2.7762 -0.2837 0
M  V30 19 H 1.2196 2.7548 1.3097 0
M  V30 20 H 1.9732 1.9316 -0.0923 0
M  V30 21 H 2.452 -1.5264 -1.6746 0
M  V30 22 H 1.3728 -2.0855 -0.3543 0
M  V30 23 H 2.4612 -0.6542 -0.1118 0
M  V30 END ATOM
M  V30 BEGIN BOND
M  V30 1 1 1 2
M  V30 2 1 1 3
M  V30 3 1 1 4
M  V30 4 1 2 5
M  V30 5 1 3 6
M  V30 6 1 4 7
M  V30 7 1 1 8
M  V30 8 1 2 9
M  V30 9 1 2 10
M  V30 10 1 3 11
M  V30 11 1 3 12
M  V30 12 1 4 13
M  V30 13 1 4 14
M  V30 14 1 5 15
M  V30 15 1 5 16
M  V30 16 1 5 17
M  V30 17 1 6 18
M  V30 18 1 6 19
M  V30 19 1 6 20
M  V30 20 1 7 21
M  V30 21 1 7 22
M  V30 22 1 7 23
M  V30 END BOND
M  V30 END CTAB
M  END
>  <Structure No>
194

>  <LogS>
-0.137682984

>  <MMFF94 Energy>
7.7814

$$$$
Compound 195
Actelion Java MolfileCreator 2.0

  0  0  0  0  0  0              0 V3000
M  V30 BEGIN CTAB
M  V30 COUNTS 80 79 0 0 0
M  V30 BEGIN ATOM
M  V30 1 N -5.0419 -2.2469 -0.1548 0 CHG=1
M  V30 2 C -5.961 -1.8965 -1.2514 0
M  V30 3 C -3.9978 -3.1713 -0.6283 0
M  V30 4 C -7.1972 -1.1306 -0.7475 0
M  V30 5 C -3.0953 -3.6628 0.5202 0
M  V30 6 C -6.8593 0.2681 -0.2157 0
M  V30 7 C -2.2809 -2.5614 1.2281 0
M  V30 8 N -8.0942 0.978 0.1404 0
M  V30 9 C -1.3399 -1.7543 0.3155 0
M  V30 10 C -7.7851 2.2993 0.7041 0
M  V30 11 C -0.2628 -2.6291 -0.3487 0
M  V30 12 C -9.0203 2.9093 1.3846 0
M  V30 13 C 0.768 -1.8054 -1.1379 0
M  V30 14 C -10.2049 3.1782 0.4375 0
M  V30 15 C 1.7809 -1.0928 -0.2235 0
M  V30 16 N -9.8733 4.1528 -0.6036 0 CHG=1
M  V30 17 C 2.8932 -0.3977 -1.024 0
M  V30 18 C 3.8266 -1.3912 -1.6723 0
M  V30 19 C 4.8673 -1.9801 -1.0547 0
M  V30 20 C 5.327 -1.6617 0.3476 0
M  V30 21 C 6.3108 -0.483 0.3705 0
M  V30 22 C 7.6517 -0.8356 -0.2974 0
M  V30 23 C 8.7102 0.2623 -0.1101 0
M  V30 24 C 8.3973 1.5287 -0.926 0
M  V30 25 C 9.5572 2.5367 -0.9163 0
M  V30 26 C 9.7425 3.2095 0.4515 0
M  V30 27 C 10.8198 4.2889 0.3916 0
M  V30 28 H -5.5789 -2.7007 0.6215 0
M  V30 29 H -4.5873 -1.3726 0.1933 0
M  V30 30 H -5.4297 -1.286 -2.0163 0
M  V30 31 H -6.3269 -2.8218 -1.751 0
M  V30 32 H -3.3851 -2.6931 -1.4229 0
M  V30 33 H -4.4713 -4.0718 -1.0796 0
M  V30 34 H -7.707 -1.7186 0.0467 0
M  V30 35 H -7.9075 -1.0295 -1.5972 0
M  V30 36 H -3.7304 -4.1689 1.2794 0
M  V30 37 H -2.4053 -4.4391 0.1279 0
M  V30 38 H -6.22 0.1628 0.6877 0
M  V30 39 H -6.2998 0.8388 -0.9919 0
M  V30 40 H -1.6747 -3.0388 2.0288 0
M  V30 41 H -2.9724 -1.8606 1.7419 0
M  V30 42 H -8.6331 1.1289 -0.7446 0
M  V30 43 H -0.8519 -0.9853 0.9486 0
M  V30 44 H -1.922 -1.2119 -0.4583 0
M  V30 45 H -6.9967 2.207 1.4847 0
M  V30 46 H -7.3944 2.981 -0.0831 0
M  V30 47 H -0.7565 -3.3202 -1.0646 0
M  V30 48 H 0.2553 -3.2482 0.416 0
M  V30 49 H -9.3596 2.2199 2.1879 0
M  V30 50 H -8.7254 3.8628 1.8747 0
M  V30 51 H 0.2483 -1.0626 -1.7822 0
M  V30 52 H 1.315 -2.5045 -1.8071 0
M  V30 53 H -10.5561 2.2318 -0.0273 0
M  V30 54 H -11.0495 3.5725 1.0451 0
M  V30 55 H 1.257 -0.316 0.3723 0
M  V30 56 H 2.2246 -1.8225 0.4871 0
M  V30 57 H -10.7505 4.4294 -1.1014 0
M  V30 58 H -9.2196 3.7304 -1.3009 0
M  V30 59 H -9.4441 5.0076 -0.1805 0
M  V30 60 H 2.4343 0.232 -1.8164 0
M  V30 61 H 3.4576 0.2908 -0.3615 0
M  V30 62 H 3.6253 -1.6654 -2.7038 0
M  V30 63 H 5.4497 -2.7042 -1.6173 0
M  V30 64 H 4.4649 -1.4356 1.0076 0
M  V30 65 H 5.819 -2.5617 0.7748 0
M  V30 66 H 6.4935 -0.2063 1.4318 0
M  V30 67 H 5.8517 0.3922 -0.135 0
M  V30 68 H 8.0459 -1.7704 0.157 0
M  V30 69 H 7.5 -1.0272 -1.3816 0
M  V30 70 H 8.793 0.51 0.9693 0
M  V30 71 H 9.69 -0.1472 -0.4401 0
M  V30 72 H 7.4807 2.0209 -0.5371 0
M  V30 73 H 8.2041 1.2395 -1.9816 0
M  V30 74 H 10.4999 2.0309 -1.2201 0
M  V30 75 H 9.3367 3.3201 -1.6743 0
M  V30 76 H 8.7862 3.6747 0.7759 0
M  V30 77 H 10.0444 2.4564 1.2095 0
M  V30 78 H 11.7929 3.8462 0.09 0
M  V30 79 H 10.5361 5.0792 -0.3353 0
M  V30 80 H 10.9362 4.7542 1.393 0
M  V30 END ATOM
M  V30 BEGIN BOND
M  V30 1 1 1 2
M  V30 2 1 1 3
M  V30 3 1 2 4
M  V30 4 1 3 5
M  V30 5 1 4 6
M  V30 6 1 5 7
M  V30 7 1 6 8
M  V30 8 1 7 9
M  V30 9 1 8 10
M  V30 10 1 9 11
M  V30 11 1 10 12
M  V30 12 1 11 13
M  V30 13 1 12 14
M  V30 14 1 13 15
M  V30 15 1 14 16
M  V30 16 1 15 17
M  V30 17 1 17 18
M  V30 18 2 18 19
M  V30 19 1 19 20
M  V30 20 1 20 21
M  V30 21 1 21 22
M  V30 22 1 22 23
M  V30 23 1 23 24
M  V30 24 1 24 25
M  V30 25 1 25 26
M  V30 26 1 26 27
M  V30 27 1 1 28
M  V30 28 1 1 29
M  V30 29 1 2 30
M  V30 30 1 2 31
M  V30 31 1 3 32
M  V30 32 1 3 33
M  V30 33 1 4 34
M  V30 34 1 4 35
M  V30 35 1 5 36
M  V30 36 1 5 37
M  V30 37 1 6 38
M  V30 38 1 6 39
M  V30 39 1 7 40
M  V30 40 1 7 41
M  V30 41 1 8 42
M  V30 42 1 9 43
M  V30 43 1 9 44
M  V30 44 1 10 45
M  V30 45 1 10 46
M  V30 46 1 11 47
M  V30 47 1 11 48
M  V30 48 1 12 49
M  V30 49 1 12 50
M  V30 50 1 13 51
M  V30 51 1 13 52
M  V30 52 1 14 53
M  V30 53 1 14 54
M  V30 54 1 15 55
M  V30 55 1 15 56
M  V30 56 1 16 57
M  V30 57 1 16 58
M  V30 58 1 16 59
M  V30 59 1 17 60
M  V30 60 1 17 61
M  V30 61 1 18 62
M  V30 62 1 19 63
M  V30 63 1 20 64
M  V30 64 1 20 65
M  V30 65 1 21 66
M  V30 66 1 21 67
M  V30 67 1 22 68
M  V30 68 1 22 69
M  V30 69 1 23 70
M  V30 70 1 23 71
M  V30 71 1 24 72
M  V30 72 1 24 73
M  V30 73 1 25 74
M  V30 74 1 25 75
M  V30 75 1 26 76
M  V30 76 1 26 77
M  V30 77 1 27 78
M  V30 78 1 27 79
M  V30 79 1 27 80
M  V30 END BOND
M  V30 END CTAB
M  END
>  <Structure No>
195

>  <LogS>
-3.718391335

>  <MMFF94 Energy>
43.093

$$$$
Compound 196
Actelion Java MolfileCreator 2.0

  0  0  0  0  0  0              0 V3000
M  V30 BEGIN CTAB
M  V30 COUNTS 9 8 0 0 0
M  V30 BEGIN ATOM
M  V30 1 S 0.0804 -0.4828 -1.1269 0
M  V30 2 C -1.3238 -0.0074 -0.0703 0
M  V30 3 C 1.3473 0.0296 0.0757 0
M  V30 4 H -2.2702 -0.2309 -0.604 0
M  V30 5 H -1.2847 1.0795 0.1507 0
M  V30 6 H -1.3014 -0.5845 0.8773 0
M  V30 7 H 1.2374 -0.5492 1.0163 0
M  V30 8 H 1.254 1.1148 0.2897 0
M  V30 9 H 2.352 -0.1668 -0.351 0
M  V30 END ATOM
M  V30 BEGIN BOND
M  V30 1 1 1 2
M  V30 2 1 1 3
M  V30 3 1 2 4
M  V30 4 1 2 5
M  V30 5 1 2 6
M  V30 6 1 3 7
M  V30 7 1 3 8
M  V30 8 1 3 9
M  V30 END BOND
M  V30 END CTAB
M  END
>  <Structure No>
196

>  <LogS>
-0.931218902

>  <MMFF94 Energy>
3.231

$$$$
Compound 197
Actelion Java MolfileCreator 2.0

  0  0  0  0  0  0              0 V3000
M  V30 BEGIN CTAB
M  V30 COUNTS 9 8 0 0 0
M  V30 BEGIN ATOM
M  V30 1 S 2.512 -1.3392 0.1673 0
M  V30 2 C 1.3331 -0.2255 -0.0388 0
M  V30 3 S 1.7925 1.4367 -0.576 0 CHG=-1 VAL=2
M  V30 4 N -0.0338 -0.5799 0.2071 0
M  V30 5 C -1.127 0.3696 0.0404 0
M  V30 6 H -0.2615 -1.5517 0.5171 0
M  V30 7 H -0.983 1.2344 0.7218 0
M  V30 8 H -2.0928 -0.1206 0.2849 0
M  V30 9 H -1.1624 0.7235 -1.0112 0
M  V30 END ATOM
M  V30 BEGIN BOND
M  V30 1 2 1 2
M  V30 2 1 2 3
M  V30 3 1 2 4
M  V30 4 1 4 5
M  V30 5 1 4 6
M  V30 6 1 5 7
M  V30 7 1 5 8
M  V30 8 1 5 9
M  V30 END BOND
M  V30 END CTAB
M  END
>  <Structure No>
197

>  <LogS>
0.747325108

>  <MMFF94 Energy>
-67.787

$$$$
Compound 198
Actelion Java MolfileCreator 2.0

  0  0  0  0  0  0              0 V3000
M  V30 BEGIN CTAB
M  V30 COUNTS 14 14 0 0 0
M  V30 BEGIN ATOM
M  V30 1 Cl 3.5514 -0.8653 -0.0865 0
M  V30 2 C 1.8453 -0.4402 -0.0485 0
M  V30 3 C 1.4221 0.8886 -0.2091 0
M  V30 4 C 0.899 -1.4515 0.1457 0
M  V30 5 Cl 2.5788 2.1903 -0.4555 0
M  V30 6 C 0.0569 1.1929 -0.1737 0
M  V30 7 C -0.4675 -1.1507 0.1815 0
M  V30 8 C -0.8969 0.1824 0.0208 0
M  V30 9 Cl -1.6073 -2.4681 0.4294 0
M  V30 10 N -2.2879 0.5266 0.0521 0
M  V30 11 H 1.2271 -2.4761 0.2694 0
M  V30 12 H -0.2632 2.2202 -0.2982 0
M  V30 13 H -2.5914 1.5187 -0.0683 0
M  V30 14 H -3.0316 -0.191 0.194 0
M  V30 END ATOM
M  V30 BEGIN BOND
M  V30 1 1 1 2
M  V30 2 2 2 3
M  V30 3 1 2 4
M  V30 4 1 3 5
M  V30 5 1 3 6
M  V30 6 2 4 7
M  V30 7 2 6 8
M  V30 8 1 7 9
M  V30 9 1 8 10
M  V30 10 1 7 8
M  V30 11 1 4 11
M  V30 12 1 6 12
M  V30 13 1 10 13
M  V30 14 1 10 14
M  V30 END BOND
M  V30 END CTAB
M  END
>  <Structure No>
198

>  <LogS>
-3.435950486

>  <MMFF94 Energy>
29.243

$$$$
Compound 199
Actelion Java MolfileCreator 2.0

  0  0  0  0  0  0              0 V3000
M  V30 BEGIN CTAB
M  V30 COUNTS 14 14 0 0 0
M  V30 BEGIN ATOM
M  V30 1 Cl -2.0736 2.7053 -1.0815 0
M  V30 2 C -1.3126 1.2262 -0.5321 0
M  V30 3 N 0.0381 1.1783 -0.3846 0
M  V30 4 C -2.087 0.0997 -0.2461 0
M  V30 5 C 0.6835 0.0542 0.0394 0
M  V30 6 C -1.4577 -1.0664 0.1898 0
M  V30 7 C -0.0696 -1.0955 0.3349 0
M  V30 8 C 2.1872 0.0463 0.1891 0
M  V30 9 Cl 2.8987 -1.1966 -0.873 0
M  V30 10 Cl 2.6297 -0.3132 1.8785 0
M  V30 11 Cl 2.9128 1.6209 -0.2454 0
M  V30 12 H -3.1633 0.127 -0.36 0
M  V30 13 H -2.0449 -1.9472 0.4152 0
M  V30 14 H 0.4137 -2.0034 0.6738 0
M  V30 END ATOM
M  V30 BEGIN BOND
M  V30 1 1 1 2
M  V30 2 2 2 3
M  V30 3 1 2 4
M  V30 4 1 3 5
M  V30 5 2 4 6
M  V30 6 2 5 7
M  V30 7 1 5 8
M  V30 8 1 8 9
M  V30 9 1 8 10
M  V30 10 1 8 11
M  V30 11 1 6 7
M  V30 12 1 4 12
M  V30 13 1 6 13
M  V30 14 1 7 14
M  V30 END BOND
M  V30 END CTAB
M  END
>  <Structure No>
199

>  <LogS>
-3.506108364

>  <MMFF94 Energy>
62.642

$$$$
Compound 200
Actelion Java MolfileCreator 2.0

  0  0  0  0  0  0              0 V3000
M  V30 BEGIN CTAB
M  V30 COUNTS 21 22 0 0 0
M  V30 BEGIN ATOM
M  V30 1 O -4.0522 -0.2427 1.2953 0
M  V30 2 C -2.9513 -0.8481 1.3816 0
M  V30 3 O -2.8928 -2.0208 2.1262 0 CHG=-1
M  V30 4 C -1.7348 -0.3279 0.7052 0
M  V30 5 C -1.7572 0.8614 -0.0601 0
M  V30 6 C -0.5255 -1.0376 0.8288 0
M  V30 7 O -2.9369 1.5921 -0.2055 0
M  V30 8 C -0.5872 1.3194 -0.6831 0
M  V30 9 C 0.6439 -0.5797 0.206 0
M  V30 10 C 0.6125 0.6094 -0.5567 0
M  V30 11 C 1.8479 -1.2915 0.3325 0
M  V30 12 C 1.7842 1.0674 -1.1802 0
M  V30 13 C 3.008 -0.8258 -0.2926 0
M  V30 14 C 2.9763 0.3499 -1.0466 0
M  V30 15 H -0.4902 -1.9509 1.4116 0
M  V30 16 H -2.972 2.4462 -0.7498 0
M  V30 17 H -0.6181 2.2322 -1.2667 0
M  V30 18 H 1.8915 -2.2053 0.9132 0
M  V30 19 H 1.7781 1.9771 -1.7686 0
M  V30 20 H 3.9337 -1.3776 -0.1925 0
M  V30 21 H 3.8774 0.706 -1.5287 0
M  V30 END ATOM
M  V30 BEGIN BOND
M  V30 1 2 1 2
M  V30 2 1 2 3
M  V30 3 1 2 4
M  V30 4 1 4 5
M  V30 5 2 4 6
M  V30 6 1 5 7
M  V30 7 2 5 8
M  V30 8 1 6 9
M  V30 9 1 8 10
M  V30 10 2 9 11
M  V30 11 2 10 12
M  V30 12 1 11 13
M  V30 13 1 12 14
M  V30 14 1 9 10
M  V30 15 2 13 14
M  V30 16 1 6 15
M  V30 17 1 7 16
M  V30 18 1 8 17
M  V30 19 1 11 18
M  V30 20 1 12 19
M  V30 21 1 13 20
M  V30 22 1 14 21
M  V30 END BOND
M  V30 END CTAB
M  END
>  <Structure No>
200

>  <LogS>
-3.417245584

>  <MMFF94 Energy>
23.399

$$$$
Compound 201
Actelion Java MolfileCreator 2.0

  0  0  0  0  0  0              0 V3000
M  V30 BEGIN CTAB
M  V30 COUNTS 13 12 0 0 0
M  V30 BEGIN ATOM
M  V30 1 C 0.1498 0.1498 -0.0748 0
M  V30 2 C 1.4078 -0.6123 -0.1214 0
M  V30 3 C -0.982 -0.3618 -0.5617 0
M  V30 4 C 2.5376 -0.1053 0.3629 0
M  V30 5 C -2.2595 0.4128 -0.514 0
M  V30 6 H 0.144 1.1427 0.3622 0
M  V30 7 H 1.4223 -1.605 -0.5564 0
M  V30 8 H -0.9901 -1.3527 -1.0011 0
M  V30 9 H 2.5651 0.8827 0.8056 0
M  V30 10 H 3.4521 -0.6827 0.3187 0
M  V30 11 H -2.1502 1.3601 -1.0834 0
M  V30 12 H -2.5244 0.6433 0.5397 0
M  V30 13 H -3.0779 -0.185 -0.9667 0
M  V30 END ATOM
M  V30 BEGIN BOND
M  V30 1 1 1 2
M  V30 2 2 1 3
M  V30 3 2 2 4
M  V30 4 1 3 5
M  V30 5 1 1 6
M  V30 6 1 2 7
M  V30 7 1 3 8
M  V30 8 1 4 9
M  V30 9 1 4 10
M  V30 10 1 5 11
M  V30 11 1 5 12
M  V30 12 1 5 13
M  V30 END BOND
M  V30 END CTAB
M  END
>  <Structure No>
201

>  <LogS>
-2.454265074

>  <MMFF94 Energy>
3.631

$$$$
Compound 202
Actelion Java MolfileCreator 2.0

  0  0  0  0  0  0              0 V3000
M  V30 BEGIN CTAB
M  V30 COUNTS 32 32 0 0 0
M  V30 BEGIN ATOM
M  V30 1 O -4.4822 -0.2355 -0.9423 0
M  V30 2 C -3.5091 -0.9191 -0.6677 0
M  V30 3 C -2.8645 -0.8271 0.6867 0
M  V30 4 C -1.9939 0.4334 0.8837 0 CFG=1
M  V30 5 C -0.821 0.4712 -0.0853 0
M  V30 6 C -2.8122 1.735 0.8775 0
M  V30 7 C 0.4436 0.0244 0.3398 0
M  V30 8 C -0.9791 0.8899 -1.42 0
M  V30 9 C 1.5436 0.0181 -0.5393 0
M  V30 10 C 0.1069 0.8859 -2.2963 0
M  V30 11 C 1.3611 0.4563 -1.8611 0
M  V30 12 C 2.9096 -0.4591 -0.0815 0
M  V30 13 C 3.4496 0.4167 1.0554 0
M  V30 14 C 2.8693 -1.9355 0.3301 0
M  V30 15 H -3.1249 -1.6205 -1.4012 0
M  V30 16 H -2.2238 -1.7245 0.8293 0
M  V30 17 H -3.654 -0.8661 1.4687 0
M  V30 18 H -1.583 0.3592 1.9161 0
M  V30 19 H -3.5866 1.6986 1.6733 0
M  V30 20 H -3.3192 1.9059 -0.0929 0
M  V30 21 H -2.1458 2.5999 1.0835 0
M  V30 22 H 0.5712 -0.3216 1.3578 0
M  V30 23 H -1.9412 1.2141 -1.792 0
M  V30 24 H -0.0251 1.2132 -3.3197 0
M  V30 25 H 2.1883 0.4607 -2.5599 0
M  V30 26 H 3.632 -0.3769 -0.9244 0
M  V30 27 H 2.8227 0.3228 1.9675 0
M  V30 28 H 3.4674 1.4819 0.7396 0
M  V30 29 H 4.4877 0.1127 1.3088 0
M  V30 30 H 2.2266 -2.0859 1.2234 0
M  V30 31 H 3.8942 -2.2912 0.5696 0
M  V30 32 H 2.4742 -2.5528 -0.5049 0
M  V30 END ATOM
M  V30 BEGIN BOND
M  V30 1 2 1 2
M  V30 2 1 2 3
M  V30 3 1 3 4
M  V30 4 1 4 5
M  V30 5 1 4 6
M  V30 6 2 5 7
M  V30 7 1 5 8
M  V30 8 1 7 9
M  V30 9 2 8 10
M  V30 10 2 9 11
M  V30 11 1 9 12
M  V30 12 1 12 13
M  V30 13 1 12 14
M  V30 14 1 10 11
M  V30 15 1 2 15
M  V30 16 1 3 16
M  V30 17 1 3 17
M  V30 18 1 4 18
M  V30 19 1 6 19
M  V30 20 1 6 20
M  V30 21 1 6 21
M  V30 22 1 7 22
M  V30 23 1 8 23
M  V30 24 1 10 24
M  V30 25 1 11 25
M  V30 26 1 12 26
M  V30 27 1 13 27
M  V30 28 1 13 28
M  V30 29 1 13 29
M  V30 30 1 14 30
M  V30 31 1 14 31
M  V30 32 1 14 32
M  V30 END BOND
M  V30 BEGIN COLLECTION
M  V30 MDLV30/STEABS ATOMS=(1 4)
M  V30 END COLLECTION
M  V30 END CTAB
M  END
>  <Structure No>
202

>  <LogS>
-3.677346846

>  <MMFF94 Energy>
27.984

$$$$
Compound 203
Actelion Java MolfileCreator 2.0

  0  0  0  0  0  0              0 V3000
M  V30 BEGIN CTAB
M  V30 COUNTS 100 106 0 0 0
M  V30 BEGIN ATOM
M  V30 1 Cl 6.7205 1.8297 -0.5225 0
M  V30 2 C 5.539 0.715 0.1246 0
M  V30 3 N 4.2182 0.9476 -0.0637 0
M  V30 4 N 5.9414 -0.3686 0.8348 0
M  V30 5 C 3.2933 0.0897 0.4443 0
M  V30 6 C 5.0251 -1.2253 1.3547 0
M  V30 7 N 3.6998 -1.0005 1.1479 0
M  V30 8 N 1.9004 0.3631 0.2894 0
M  V30 9 N 5.4464 -2.3735 2.1037 0
M  V30 10 C 1.4432 1.6524 -0.126 0
M  V30 11 C 6.7733 -2.5206 2.641 0
M  V30 12 C 0.9537 2.5487 0.8238 0
M  V30 13 C 1.5142 2.0364 -1.4664 0
M  V30 14 C 7.3928 -3.7779 2.6101 0
M  V30 15 C 7.4552 -1.4307 3.2118 0
M  V30 16 C 0.519 3.8243 0.4505 0
M  V30 17 C 1.115 3.3172 -1.8464 0
M  V30 18 C 8.7006 -3.9419 3.0948 0
M  V30 19 C 8.7563 -1.5922 3.6967 0
M  V30 20 N 0.0749 4.7043 1.4937 0
M  V30 21 C 0.6467 4.2352 -0.8951 0
M  V30 22 S 9.5249 -5.4878 2.9121 0
M  V30 23 C 9.3814 -2.8423 3.634 0
M  V30 24 N -1.0829 5.2338 1.6119 0
M  V30 25 S 0.3759 5.9038 -1.4074 0
M  V30 26 O 10.4626 -5.6878 4.0674 0
M  V30 27 O 8.5058 -6.5895 2.9266 0
M  V30 28 C 10.4522 -5.5289 1.3774 0
M  V30 29 C -2.2344 5.0348 0.7632 0
M  V30 30 O -1.0347 6.0538 -1.8998 0
M  V30 31 O 1.3272 6.246 -2.5211 0
M  V30 32 O 0.6596 6.9696 -0.14 0 CHG=-1
M  V30 33 C 9.5803 -5.1645 0.1728 0
M  V30 34 C -2.651 3.7425 0.3519 0
M  V30 35 C -3.0098 6.1587 0.4204 0
M  V30 36 O 9.2964 -3.7855 0.2032 0
M  V30 37 N -2.0963 2.5995 1.0171 0
M  V30 38 C -3.7167 3.6101 -0.5916 0
M  V30 39 S -2.6564 7.773 1.0577 0
M  V30 40 C -4.0874 6.0132 -0.4507 0
M  V30 41 S 8.2389 -3.4214 -1.0676 0
M  V30 42 C -4.1595 2.304 -1.1677 0
M  V30 43 C -4.4295 4.7666 -0.9777 0
M  V30 44 O -3.9379 8.5298 1.2486 0
M  V30 45 O -1.7839 8.5207 0.0905 0
M  V30 46 O -1.8903 7.6752 2.5489 0 CHG=-1
M  V30 47 O 6.9666 -4.2196 -0.9532 0
M  V30 48 O 7.9092 -1.9529 -1.0073 0
M  V30 49 O 8.9744 -3.7437 -2.5425 0 CHG=-1
M  V30 50 O -3.6056 1.2304 -0.8203 0
M  V30 51 C -5.3043 2.2692 -2.127 0
M  V30 52 C -5.5924 4.6882 -1.891 0
M  V30 53 N -5.7037 1.1707 -2.7103 0
M  V30 54 C -6.0243 3.5351 -2.415 0
M  V30 55 N -4.9737 -0.0329 -2.7139 0
M  V30 56 S -7.3934 3.5551 -3.5361 0
M  V30 57 C -5.4423 -1.2074 -2.0295 0
M  V30 58 O -8.0801 4.8908 -3.5085 0
M  V30 59 O -8.3855 2.5032 -3.125 0
M  V30 60 O -6.8551 3.2562 -5.099 0 CHG=-1
M  V30 61 C -6.7688 -1.6991 -2.1508 0
M  V30 62 C -4.5304 -1.8745 -1.2066 0
M  V30 63 S -7.8506 -1.1265 -3.4489 0
M  V30 64 C -7.193 -2.7529 -1.2852 0
M  V30 65 C -4.9178 -2.9623 -0.4348 0
M  V30 66 O -8.4713 -2.3106 -4.14 0
M  V30 67 O -7.123 -0.3162 -4.4804 0
M  V30 68 O -9.058 -0.1914 -2.7593 0 CHG=-1
M  V30 69 C -6.2501 -3.4075 -0.4359 0
M  V30 70 C -8.5438 -3.1704 -1.2396 0
M  V30 71 C -6.6697 -4.4979 0.3806 0
M  V30 72 C -8.9462 -4.2202 -0.4211 0
M  V30 73 S -5.5449 -5.4075 1.4127 0
M  V30 74 C -8.019 -4.8865 0.3735 0
M  V30 75 O -6.2481 -6.5434 2.0984 0
M  V30 76 O -4.9678 -4.493 2.4584 0
M  V30 77 O -4.3024 -6.0434 0.4729 0 CHG=-1
M  V30 78 H 1.2189 -0.2672 0.773 0
M  V30 79 H 4.7785 -3.1749 2.1806 0
M  V30 80 H 0.9166 2.2501 1.8659 0
M  V30 81 H 1.8993 1.3539 -2.214 0
M  V30 82 H 6.8794 -4.6104 2.1504 0
M  V30 83 H 6.9802 -0.4566 3.2762 0
M  V30 84 H 1.2023 3.6097 -2.8839 0
M  V30 85 H 9.2885 -0.7424 4.1069 0
M  V30 86 H 10.3991 -2.9448 3.9899 0
M  V30 87 H 11.3028 -4.8208 1.4498 0
M  V30 88 H 10.8614 -6.5508 1.2394 0
M  V30 89 H 10.1378 -5.4172 -0.7565 0
M  V30 90 H 8.6542 -5.7786 0.2106 0
M  V30 91 H -1.7572 2.6814 1.9999 0
M  V30 92 H -1.8044 1.7441 0.5025 0
M  V30 93 H -4.6623 6.8887 -0.7331 0
M  V30 94 H -6.1048 5.609 -2.1351 0
M  V30 95 H -3.9583 0.0107 -2.965 0
M  V30 96 H -3.5036 -1.5358 -1.1516 0
M  V30 97 H -4.1662 -3.4198 0.1943 0
M  V30 98 H -9.3155 -2.6649 -1.7962 0
M  V30 99 H -9.9929 -4.5135 -0.4075 0
M  V30 100 H -8.3625 -5.7027 0.995 0
M  V30 END ATOM
M  V30 BEGIN BOND
M  V30 1 1 1 2
M  V30 2 2 2 3
M  V30 3 1 2 4
M  V30 4 1 3 5
M  V30 5 2 4 6
M  V30 6 2 5 7
M  V30 7 1 5 8
M  V30 8 1 6 9
M  V30 9 1 8 10
M  V30 10 1 9 11
M  V30 11 2 10 12
M  V30 12 1 10 13
M  V30 13 2 11 14
M  V30 14 1 11 15
M  V30 15 1 12 16
M  V30 16 2 13 17
M  V30 17 1 14 18
M  V30 18 2 15 19
M  V30 19 1 16 20
M  V30 20 2 16 21
M  V30 21 1 18 22
M  V30 22 2 18 23
M  V30 23 2 20 24
M  V30 24 1 21 25
M  V30 25 2 22 26
M  V30 26 2 22 27
M  V30 27 1 22 28
M  V30 28 1 24 29
M  V30 29 2 25 30
M  V30 30 2 25 31
M  V30 31 1 25 32
M  V30 32 1 28 33
M  V30 33 2 29 34
M  V30 34 1 29 35
M  V30 35 1 33 36
M  V30 36 1 34 37
M  V30 37 1 34 38
M  V30 38 1 35 39
M  V30 39 2 35 40
M  V30 40 1 36 41
M  V30 41 1 38 42
M  V30 42 2 38 43
M  V30 43 2 39 44
M  V30 44 2 39 45
M  V30 45 1 39 46
M  V30 46 2 41 47
M  V30 47 2 41 48
M  V30 48 1 41 49
M  V30 49 2 42 50
M  V30 50 1 42 51
M  V30 51 1 43 52
M  V30 52 2 51 53
M  V30 53 1 51 54
M  V30 54 1 53 55
M  V30 55 1 54 56
M  V30 56 1 55 57
M  V30 57 2 56 58
M  V30 58 2 56 59
M  V30 59 1 56 60
M  V30 60 2 57 61
M  V30 61 1 57 62
M  V30 62 1 61 63
M  V30 63 1 61 64
M  V30 64 2 62 65
M  V30 65 2 63 66
M  V30 66 2 63 67
M  V30 67 1 63 68
M  V30 68 1 64 69
M  V30 69 2 64 70
M  V30 70 2 69 71
M  V30 71 1 70 72
M  V30 72 1 71 73
M  V30 73 1 71 74
M  V30 74 2 73 75
M  V30 75 2 73 76
M  V30 76 1 73 77
M  V30 77 1 6 7
M  V30 78 1 17 21
M  V30 79 1 19 23
M  V30 80 1 40 43
M  V30 81 2 52 54
M  V30 82 1 65 69
M  V30 83 2 72 74
M  V30 84 1 8 78
M  V30 85 1 9 79
M  V30 86 1 12 80
M  V30 87 1 13 81
M  V30 88 1 14 82
M  V30 89 1 15 83
M  V30 90 1 17 84
M  V30 91 1 19 85
M  V30 92 1 23 86
M  V30 93 1 28 87
M  V30 94 1 28 88
M  V30 95 1 33 89
M  V30 96 1 33 90
M  V30 97 1 37 91
M  V30 98 1 37 92
M  V30 99 1 40 93
M  V30 100 1 52 94
M  V30 101 1 55 95
M  V30 102 1 62 96
M  V30 103 1 65 97
M  V30 104 1 70 98
M  V30 105 1 72 99
M  V30 106 1 74 100
M  V30 END BOND
M  V30 END CTAB
M  END
>  <Structure No>
203

>  <LogS>
-1.277021164

>  <MMFF94 Energy>
418.85

$$$$
Compound 204
Actelion Java MolfileCreator 2.0

  0  0  0  0  0  0              0 V3000
M  V30 BEGIN CTAB
M  V30 COUNTS 15 15 0 0 0
M  V30 BEGIN ATOM
M  V30 1 F 2.2414 0.6031 0.8616 0
M  V30 2 C 1.1856 0.3873 -0.0091 0
M  V30 3 F 1.6104 0.6187 -1.309 0
M  V30 4 C 0.644 -1.0292 0.1155 0
M  V30 5 C -0.0024 1.2851 0.3198 0
M  V30 6 F 1.3652 -1.9134 -0.6698 0
M  V30 7 F 0.6978 -1.4424 1.4383 0
M  V30 8 C -0.8067 -0.9382 -0.3502 0 CFG=2
M  V30 9 F -0.06 1.5158 1.6859 0
M  V30 10 F 0.0909 2.4989 -0.3415 0
M  V30 11 C -1.2448 0.5115 -0.1253 0
M  V30 12 F -1.6139 -1.8164 0.3545 0
M  V30 13 H -0.8703 -1.181 -1.4342 0
M  V30 14 H -1.6452 0.9333 -1.0736 0
M  V30 15 H -2.0427 0.573 0.6473 0
M  V30 END ATOM
M  V30 BEGIN BOND
M  V30 1 1 1 2
M  V30 2 1 2 3
M  V30 3 1 2 4
M  V30 4 1 2 5
M  V30 5 1 4 6
M  V30 6 1 4 7
M  V30 7 1 4 8
M  V30 8 1 5 9
M  V30 9 1 5 10
M  V30 10 1 5 11
M  V30 11 1 8 12
M  V30 12 1 8 11
M  V30 13 1 8 13
M  V30 14 1 11 14
M  V30 15 1 11 15
M  V30 END BOND
M  V30 BEGIN COLLECTION
M  V30 MDLV30/STEABS ATOMS=(1 8)
M  V30 END COLLECTION
M  V30 END CTAB
M  END
>  <Structure No>
204

>  <LogS>
-2.436880918

>  <MMFF94 Energy>
56.974

$$$$
Compound 205
Actelion Java MolfileCreator 2.0

  0  0  0  0  0  0              0 V3000
M  V30 BEGIN CTAB
M  V30 COUNTS 17 16 0 0 0
M  V30 BEGIN ATOM
M  V30 1 C 0.0 0.0759 -0.3039 0
M  V30 2 C -1.2783 -0.1352 0.5149 0
M  V30 3 C 1.2475 -0.122 0.5643 0
M  V30 4 C -2.5231 0.0609 -0.3453 0
M  V30 5 C 2.5227 0.0873 -0.2469 0
M  V30 6 H 0.0202 -0.6484 -1.1479 0
M  V30 7 H 0.0027 1.1067 -0.7224 0
M  V30 8 H -1.307 0.5882 1.3588 0
M  V30 9 H -1.2896 -1.1651 0.9337 0
M  V30 10 H 1.2357 0.6016 1.4083 0
M  V30 11 H 1.2531 -1.1518 0.9833 0
M  V30 12 H -2.5495 1.0927 -0.7562 0
M  V30 13 H -2.532 -0.6682 -1.1831 0
M  V30 14 H -3.4314 -0.0979 0.2732 0
M  V30 15 H 2.5543 1.1193 -0.6567 0
M  V30 16 H 3.4077 -0.0621 0.4066 0
M  V30 17 H 2.5718 -0.6415 -1.0836 0
M  V30 END ATOM
M  V30 BEGIN BOND
M  V30 1 1 1 2
M  V30 2 1 1 3
M  V30 3 1 2 4
M  V30 4 1 3 5
M  V30 5 1 1 6
M  V30 6 1 1 7
M  V30 7 1 2 8
M  V30 8 1 2 9
M  V30 9 1 3 10
M  V30 10 1 3 11
M  V30 11 1 4 12
M  V30 12 1 4 13
M  V30 13 1 4 14
M  V30 14 1 5 15
M  V30 15 1 5 16
M  V30 16 1 5 17
M  V30 END BOND
M  V30 END CTAB
M  END
>  <Structure No>
205

>  <LogS>
-3.006984006

>  <MMFF94 Energy>
-5.2718

$$$$
Compound 206
Actelion Java MolfileCreator 2.0

  0  0  0  0  0  0              0 V3000
M  V30 BEGIN CTAB
M  V30 COUNTS 24 24 0 0 0
M  V30 BEGIN ATOM
M  V30 1 O 3.1335 0.0 0.4695 0
M  V30 2 C 1.869 -0.3971 0.0068 0
M  V30 3 C 3.3971 1.2254 1.1454 0
M  V30 4 C 1.7548 -1.6327 -0.6433 0
M  V30 5 C 0.7215 0.4034 0.1751 0
M  V30 6 O 2.8858 -2.4298 -0.8122 0
M  V30 7 C 0.5117 -2.0611 -1.1237 0
M  V30 8 C -0.5321 -0.0272 -0.291 0
M  V30 9 C -0.6231 -1.2655 -0.9547 0
M  V30 10 C -1.7056 0.8603 -0.0952 0
M  V30 11 C -2.9758 0.4409 -0.1397 0
M  V30 12 C -4.104 1.3966 0.0823 0
M  V30 13 H 3.1424 2.0853 0.4905 0
M  V30 14 H 2.8122 1.2753 2.0881 0
M  V30 15 H 4.4767 1.2767 1.3946 0
M  V30 16 H 0.7956 1.3599 0.6758 0
M  V30 17 H 2.8371 -3.3279 -1.279 0
M  V30 18 H 0.4251 -3.0107 -1.6363 0
M  V30 19 H -1.5585 -1.6176 -1.3663 0
M  V30 20 H -1.5168 1.9031 0.1365 0
M  V30 21 H -3.2199 -0.5983 -0.3102 0
M  V30 22 H -4.0858 2.1911 -0.6932 0
M  V30 23 H -5.072 0.8566 0.0192 0
M  V30 24 H -4.0174 1.8597 1.0882 0
M  V30 END ATOM
M  V30 BEGIN BOND
M  V30 1 1 1 2
M  V30 2 1 1 3
M  V30 3 2 2 4
M  V30 4 1 2 5
M  V30 5 1 4 6
M  V30 6 1 4 7
M  V30 7 2 5 8
M  V30 8 2 7 9
M  V30 9 1 8 10
M  V30 10 2 10 11
M  V30 11 1 11 12
M  V30 12 1 8 9
M  V30 13 1 3 13
M  V30 14 1 3 14
M  V30 15 1 3 15
M  V30 16 1 5 16
M  V30 17 1 6 17
M  V30 18 1 7 18
M  V30 19 1 9 19
M  V30 20 1 10 20
M  V30 21 1 11 21
M  V30 22 1 12 22
M  V30 23 1 12 23
M  V30 24 1 12 24
M  V30 END BOND
M  V30 END CTAB
M  END
>  <Structure No>
206

>  <LogS>
-2.364737497

>  <MMFF94 Energy>
21.63

$$$$
Compound 207
Actelion Java MolfileCreator 2.0

  0  0  0  0  0  0              0 V3000
M  V30 BEGIN CTAB
M  V30 COUNTS 20 20 0 0 0
M  V30 BEGIN ATOM
M  V30 1 O 3.1499 -2.4405 0.0 0
M  V30 2 C 3.0551 -1.2056 -0.2308 0
M  V30 3 C 1.7532 -0.5152 -0.1651 0
M  V30 4 C 0.5769 -1.2114 0.1573 0
M  V30 5 C 1.687 0.8583 -0.4277 0
M  V30 6 C -0.6596 -0.5447 0.2202 0
M  V30 7 C 0.465 1.5305 -0.3734 0
M  V30 8 C -0.7174 0.8421 -0.0567 0
M  V30 9 C -1.9022 -1.3238 0.5651 0
M  V30 10 C -2.0196 1.5975 -0.0022 0
M  V30 11 H 3.9501 -0.6502 -0.4811 0
M  V30 12 H 0.6221 -2.2746 0.3612 0
M  V30 13 H 2.5834 1.4135 -0.6765 0
M  V30 14 H 0.4439 2.5934 -0.5812 0
M  V30 15 H -2.5951 -1.3276 -0.3021 0
M  V30 16 H -1.6675 -2.378 0.8247 0
M  V30 17 H -2.4087 -0.8638 1.4392 0
M  V30 18 H -1.8936 2.6553 -0.3173 0
M  V30 19 H -2.4141 1.5905 1.0352 0
M  V30 20 H -2.7605 1.1266 -0.6815 0
M  V30 END ATOM
M  V30 BEGIN BOND
M  V30 1 2 1 2
M  V30 2 1 2 3
M  V30 3 2 3 4
M  V30 4 1 3 5
M  V30 5 1 4 6
M  V30 6 2 5 7
M  V30 7 2 6 8
M  V30 8 1 6 9
M  V30 9 1 8 10
M  V30 10 1 7 8
M  V30 11 1 2 11
M  V30 12 1 4 12
M  V30 13 1 5 13
M  V30 14 1 7 14
M  V30 15 1 9 15
M  V30 16 1 9 16
M  V30 17 1 9 17
M  V30 18 1 10 18
M  V30 19 1 10 19
M  V30 20 1 10 20
M  V30 END BOND
M  V30 END CTAB
M  END
>  <Structure No>
207

>  <LogS>
-2.277035079

>  <MMFF94 Energy>
36.387

$$$$
Compound 208
Actelion Java MolfileCreator 2.0

  0  0  0  0  0  0              0 V3000
M  V30 BEGIN CTAB
M  V30 COUNTS 21 21 0 0 0
M  V30 BEGIN ATOM
M  V30 1 N -2.0075 -1.1578 0.0771 0 CHG=1
M  V30 2 C -1.398 0.1498 0.3495 0 CFG=1
M  V30 3 C 0.1153 0.0759 0.2466 0
M  V30 4 C -1.9604 1.2223 -0.5931 0
M  V30 5 C 0.7441 -0.2989 -0.9568 0
M  V30 6 C 0.9132 0.3851 1.3635 0
M  V30 7 C 2.1384 -0.3626 -1.0365 0
M  V30 8 C 2.3073 0.3196 1.278 0
M  V30 9 C 2.9193 -0.0539 0.0796 0
M  V30 10 H -3.0367 -1.1104 0.2589 0
M  V30 11 H -1.5956 -1.8796 0.7126 0
M  V30 12 H -1.8539 -1.4453 -0.9164 0
M  V30 13 H -1.6811 0.4508 1.3843 0
M  V30 14 H -3.0566 1.3206 -0.4429 0
M  V30 15 H -1.7728 0.9586 -1.6554 0
M  V30 16 H -1.4895 2.2051 -0.3769 0
M  V30 17 H 0.1588 -0.5401 -1.8344 0
M  V30 18 H 0.4586 0.6772 2.302 0
M  V30 19 H 2.6139 -0.6512 -1.965 0
M  V30 20 H 2.9136 0.559 2.1422 0
M  V30 21 H 3.9986 -0.1037 0.0156 0
M  V30 END ATOM
M  V30 BEGIN BOND
M  V30 1 1 1 2
M  V30 2 1 2 3
M  V30 3 1 2 4
M  V30 4 2 3 5
M  V30 5 1 3 6
M  V30 6 1 5 7
M  V30 7 2 6 8
M  V30 8 2 7 9
M  V30 9 1 8 9
M  V30 10 1 1 10
M  V30 11 1 1 11
M  V30 12 1 1 12
M  V30 13 1 2 13
M  V30 14 1 4 14
M  V30 15 1 4 15
M  V30 16 1 4 16
M  V30 17 1 5 17
M  V30 18 1 6 18
M  V30 19 1 7 19
M  V30 20 1 8 20
M  V30 21 1 9 21
M  V30 END BOND
M  V30 BEGIN COLLECTION
M  V30 MDLV30/STEABS ATOMS=(1 2)
M  V30 END COLLECTION
M  V30 END CTAB
M  END
>  <Structure No>
208

>  <LogS>
-0.594139338

>  <MMFF94 Energy>
11.777

$$$$
Compound 209
Actelion Java MolfileCreator 2.0

  0  0  0  0  0  0              0 V3000
M  V30 BEGIN CTAB
M  V30 COUNTS 20 19 0 0 0
M  V30 BEGIN ATOM
M  V30 1 O 2.9403 -1.3919 -0.3091 0
M  V30 2 C 2.7211 -0.2227 0.1098 0
M  V30 3 O 1.4148 0.2593 0.2314 0
M  V30 4 C 3.8642 0.6385 0.5269 0
M  V30 5 C 0.2746 -0.5137 -0.1287 0
M  V30 6 C -0.9922 0.3017 0.1213 0
M  V30 7 C -2.2463 -0.4956 -0.2541 0
M  V30 8 C -3.5123 0.3189 -0.0044 0
M  V30 9 H 4.161 0.3821 1.5651 0
M  V30 10 H 3.5682 1.7078 0.4863 0
M  V30 11 H 4.7285 0.4799 -0.1519 0
M  V30 12 H 0.2492 -1.4423 0.4829 0
M  V30 13 H 0.338 -0.7868 -1.205 0
M  V30 14 H -0.9482 1.234 -0.4836 0
M  V30 15 H -1.0366 0.581 1.1971 0
M  V30 16 H -2.2934 -1.4275 0.3504 0
M  V30 17 H -2.2049 -0.7749 -1.3296 0
M  V30 18 H -3.5909 0.5901 1.07 0
M  V30 19 H -4.4027 -0.2824 -0.2847 0
M  V30 20 H -3.5022 1.2455 -0.6172 0
M  V30 END ATOM
M  V30 BEGIN BOND
M  V30 1 2 1 2
M  V30 2 1 2 3
M  V30 3 1 2 4
M  V30 4 1 3 5
M  V30 5 1 5 6
M  V30 6 1 6 7
M  V30 7 1 7 8
M  V30 8 1 4 9
M  V30 9 1 4 10
M  V30 10 1 4 11
M  V30 11 1 5 12
M  V30 12 1 5 13
M  V30 13 1 6 14
M  V30 14 1 6 15
M  V30 15 1 7 16
M  V30 16 1 7 17
M  V30 17 1 8 18
M  V30 18 1 8 19
M  V30 19 1 8 20
M  V30 END BOND
M  V30 END CTAB
M  END
>  <Structure No>
209

>  <LogS>
-1.219958563

>  <MMFF94 Energy>
-11.26

$$$$
Compound 210
Actelion Java MolfileCreator 2.0

  0  0  0  0  0  0              0 V3000
M  V30 BEGIN CTAB
M  V30 COUNTS 32 33 0 0 0
M  V30 BEGIN ATOM
M  V30 1 S -1.1873 0.3391 -2.3756 0
M  V30 2 O -0.0998 1.3757 -2.3446 0
M  V30 3 O -2.3589 0.8993 -3.1325 0
M  V30 4 O -0.6342 -1.0345 -3.1679 0 CHG=-1
M  V30 5 C -1.6711 -0.0835 -0.7251 0
M  V30 6 C -0.7157 -0.3685 0.2786 0
M  V30 7 C -3.0381 -0.1386 -0.4074 0
M  V30 8 C 0.7355 -0.3465 0.0015 0
M  V30 9 C -1.147 -0.7017 1.5714 0
M  V30 10 C -3.4593 -0.4654 0.8884 0
M  V30 11 C 1.5528 0.7404 0.3914 0
M  V30 12 C 1.3117 -1.4481 -0.6484 0
M  V30 13 C -2.5082 -0.7456 1.8752 0
M  V30 14 N -4.8543 -0.5147 1.2004 0
M  V30 15 S 0.8869 2.1566 1.2183 0
M  V30 16 C 2.9289 0.6984 0.1177 0
M  V30 17 C 2.68 -1.4742 -0.9205 0
M  V30 18 O 0.5483 1.7988 2.6376 0
M  V30 19 O -0.349 2.6348 0.5098 0
M  V30 20 O 2.0111 3.4058 1.2239 0 CHG=-1
M  V30 21 C 3.4946 -0.4024 -0.5389 0
M  V30 22 N 4.8974 -0.4324 -0.8153 0
M  V30 23 H -3.7808 0.0711 -1.1664 0
M  V30 24 H -0.4248 -0.9294 2.3463 0
M  V30 25 H 0.6977 -2.2905 -0.9435 0
M  V30 26 H -2.8218 -1.002 2.8795 0
M  V30 27 H -5.1787 -0.7579 2.1631 0
M  V30 28 H -5.5734 -0.308 0.4716 0
M  V30 29 H 3.5666 1.5209 0.4151 0
M  V30 30 H 3.1062 -2.3318 -1.4256 0
M  V30 31 H 5.5152 0.3616 -0.5343 0
M  V30 32 H 5.3289 -1.2487 -1.3035 0
M  V30 END ATOM
M  V30 BEGIN BOND
M  V30 1 2 1 2
M  V30 2 2 1 3
M  V30 3 1 1 4
M  V30 4 1 1 5
M  V30 5 2 5 6
M  V30 6 1 5 7
M  V30 7 1 6 8
M  V30 8 1 6 9
M  V30 9 2 7 10
M  V30 10 2 8 11
M  V30 11 1 8 12
M  V30 12 2 9 13
M  V30 13 1 10 14
M  V30 14 1 11 15
M  V30 15 1 11 16
M  V30 16 2 12 17
M  V30 17 2 15 18
M  V30 18 2 15 19
M  V30 19 1 15 20
M  V30 20 2 16 21
M  V30 21 1 21 22
M  V30 22 1 10 13
M  V30 23 1 17 21
M  V30 24 1 7 23
M  V30 25 1 9 24
M  V30 26 1 12 25
M  V30 27 1 13 26
M  V30 28 1 14 27
M  V30 29 1 14 28
M  V30 30 1 16 29
M  V30 31 1 17 30
M  V30 32 1 22 31
M  V30 33 1 22 32
M  V30 END BOND
M  V30 END CTAB
M  END
>  <Structure No>
210

>  <LogS>
-2.691927271

>  <MMFF94 Energy>
117.4

$$$$
Compound 211
Actelion Java MolfileCreator 2.0

  0  0  0  0  0  0              0 V3000
M  V30 BEGIN CTAB
M  V30 COUNTS 20 20 0 0 0
M  V30 BEGIN ATOM
M  V30 1 O -3.095 2.6873 -0.7323 0
M  V30 2 N -1.8627 2.7151 -0.5319 0 CHG=1
M  V30 3 O -1.2405 3.9402 -0.4636 0 CHG=-1
M  V30 4 C -1.1232 1.4872 -0.3537 0
M  V30 5 C 0.2856 1.4845 -0.2433 0
M  V30 6 C -1.8101 0.2602 -0.2888 0
M  V30 7 O 1.0084 2.6709 -0.3135 0 CHG=-1
M  V30 8 C 0.9859 0.2826 -0.0665 0
M  V30 9 C -1.1172 -0.9472 -0.113 0
M  V30 10 O 2.3852 0.336 0.0391 0
M  V30 11 C 0.2779 -0.9301 -0.0016 0
M  V30 12 C -1.8359 -2.2341 -0.0425 0
M  V30 13 C 3.2256 -0.7991 0.2199 0
M  V30 14 O -3.0909 -2.2859 -0.139 0
M  V30 15 H -2.8896 0.2453 -0.3712 0
M  V30 16 H 0.8062 -1.8646 0.1343 0
M  V30 17 H -1.284 -3.1554 0.0941 0
M  V30 18 H 3.1149 -1.4965 -0.6369 0
M  V30 19 H 4.2817 -0.4635 0.2703 0
M  V30 20 H 2.9714 -1.3152 1.1698 0
M  V30 END ATOM
M  V30 BEGIN BOND
M  V30 1 2 1 2
M  V30 2 1 2 3
M  V30 3 1 2 4
M  V30 4 2 4 5
M  V30 5 1 4 6
M  V30 6 1 5 7
M  V30 7 1 5 8
M  V30 8 2 6 9
M  V30 9 1 8 10
M  V30 10 2 8 11
M  V30 11 1 9 12
M  V30 12 1 10 13
M  V30 13 2 12 14
M  V30 14 1 9 11
M  V30 15 1 6 15
M  V30 16 1 11 16
M  V30 17 1 12 17
M  V30 18 1 13 18
M  V30 19 1 13 19
M  V30 20 1 13 20
M  V30 END BOND
M  V30 END CTAB
M  END
>  <Structure No>
211

>  <LogS>
-2.44968993

>  <MMFF94 Energy>
78.7

$$$$
Compound 212
Actelion Java MolfileCreator 2.0

  0  0  0  0  0  0              0 V3000
M  V30 BEGIN CTAB
M  V30 COUNTS 33 33 0 0 0
M  V30 BEGIN ATOM
M  V30 1 O 4.0709 1.4859 0.2345 0
M  V30 2 C 3.9353 0.4106 -0.4092 0
M  V30 3 N 2.6622 -0.2502 -0.4727 0
M  V30 4 C 5.0897 -0.1235 -1.1925 0
M  V30 5 C 1.5435 0.0696 0.3726 0
M  V30 6 C 0.2405 -0.0797 -0.1263 0
M  V30 7 C 1.7233 0.4727 1.7087 0
M  V30 8 C -0.8688 0.2041 0.6821 0
M  V30 9 C 0.6168 0.7547 2.5153 0
M  V30 10 N -2.1981 0.0615 0.1608 0
M  V30 11 C -0.6759 0.6256 2.0032 0
M  V30 12 C -2.8738 1.236 -0.4046 0
M  V30 13 C -2.922 -1.1962 0.3832 0
M  V30 14 C -2.3044 1.5742 -1.778 0
M  V30 15 C -2.3815 -2.2951 -0.525 0
M  V30 16 H 2.5166 -0.9489 -1.2365 0
M  V30 17 H 5.0899 -1.2331 -1.1568 0
M  V30 18 H 6.0478 0.2458 -0.7692 0
M  V30 19 H 5.0051 0.2084 -2.248 0
M  V30 20 H 0.088 -0.4074 -1.1474 0
M  V30 21 H 2.7133 0.5449 2.1384 0
M  V30 22 H 0.7619 1.0653 3.5419 0
M  V30 23 H -1.5282 0.8446 2.6343 0
M  V30 24 H -2.748 2.1062 0.2756 0
M  V30 25 H -3.9647 1.0547 -0.5119 0
M  V30 26 H -2.8192 -1.5066 1.4457 0
M  V30 27 H -4.007 -1.0732 0.1778 0
M  V30 28 H -2.8757 2.4167 -2.2215 0
M  V30 29 H -1.2398 1.8772 -1.6914 0
M  V30 30 H -2.3827 0.6936 -2.4503 0
M  V30 31 H -2.9878 -3.2164 -0.3971 0
M  V30 32 H -2.4367 -1.9734 -1.5867 0
M  V30 33 H -1.3276 -2.5278 -0.2655 0
M  V30 END ATOM
M  V30 BEGIN BOND
M  V30 1 2 1 2
M  V30 2 1 2 3
M  V30 3 1 2 4
M  V30 4 1 3 5
M  V30 5 2 5 6
M  V30 6 1 5 7
M  V30 7 1 6 8
M  V30 8 2 7 9
M  V30 9 1 8 10
M  V30 10 2 8 11
M  V30 11 1 10 12
M  V30 12 1 10 13
M  V30 13 1 12 14
M  V30 14 1 13 15
M  V30 15 1 9 11
M  V30 16 1 3 16
M  V30 17 1 4 17
M  V30 18 1 4 18
M  V30 19 1 4 19
M  V30 20 1 6 20
M  V30 21 1 7 21
M  V30 22 1 9 22
M  V30 23 1 11 23
M  V30 24 1 12 24
M  V30 25 1 12 25
M  V30 26 1 13 26
M  V30 27 1 13 27
M  V30 28 1 14 28
M  V30 29 1 14 29
M  V30 30 1 14 30
M  V30 31 1 15 31
M  V30 32 1 15 32
M  V30 33 1 15 33
M  V30 END BOND
M  V30 END CTAB
M  END
>  <Structure No>
212

>  <LogS>
-2.469378031

>  <MMFF94 Energy>
2.8317

$$$$
Compound 213
Actelion Java MolfileCreator 2.0

  0  0  0  0  0  0              0 V3000
M  V30 BEGIN CTAB
M  V30 COUNTS 36 37 0 0 0
M  V30 BEGIN ATOM
M  V30 1 N 0.0 -1.6468 0.0783 0 CHG=1
M  V30 2 C -0.038 -0.3711 0.3354 0
M  V30 3 N 1.1746 0.357 0.5922 0
M  V30 4 N -1.2979 0.3024 0.4971 0
M  V30 5 C 2.4416 0.0507 -0.0191 0
M  V30 6 C -2.4995 -0.0584 -0.2092 0
M  V30 7 C 3.6487 0.2422 0.6932 0
M  V30 8 C 2.4932 -0.3883 -1.3551 0
M  V30 9 C -3.7651 0.0786 0.4081 0
M  V30 10 C -2.4291 -0.497 -1.5444 0
M  V30 11 C 4.8757 -0.013 0.0566 0
M  V30 12 C 3.6407 0.7293 2.1167 0
M  V30 13 C 3.7193 -0.6489 -1.9696 0
M  V30 14 C -4.9273 -0.2294 -0.3203 0
M  V30 15 C -3.888 0.5633 1.8271 0
M  V30 16 C -3.5919 -0.8103 -2.2507 0
M  V30 17 C 4.9082 -0.4615 -1.265 0
M  V30 18 C -4.8386 -0.6767 -1.6399 0
M  V30 19 H 0.9045 -2.1657 0.0341 0
M  V30 20 H -0.8748 -2.205 -0.0342 0
M  V30 21 H 1.1128 1.196 1.2115 0
M  V30 22 H -1.321 1.1421 1.1179 0
M  V30 23 H 1.583 -0.5124 -1.9279 0
M  V30 24 H -1.4731 -0.58 -2.0454 0
M  V30 25 H 5.8104 0.1336 0.5839 0
M  V30 26 H 3.3692 1.8056 2.14 0
M  V30 27 H 2.9047 0.1509 2.7143 0
M  V30 28 H 4.636 0.6061 2.5943 0
M  V30 29 H 3.7477 -0.987 -2.9973 0
M  V30 30 H -5.9052 -0.125 0.1334 0
M  V30 31 H -3.1753 0.0168 2.4805 0
M  V30 32 H -4.9106 0.3953 2.2272 0
M  V30 33 H -3.6671 1.6503 1.8694 0
M  V30 34 H -3.5265 -1.1476 -3.277 0
M  V30 35 H 5.8577 -0.6585 -1.7459 0
M  V30 36 H -5.7388 -0.9145 -2.1918 0
M  V30 END ATOM
M  V30 BEGIN BOND
M  V30 1 2 1 2
M  V30 2 1 2 3
M  V30 3 1 2 4
M  V30 4 1 3 5
M  V30 5 1 4 6
M  V30 6 2 5 7
M  V30 7 1 5 8
M  V30 8 2 6 9
M  V30 9 1 6 10
M  V30 10 1 7 11
M  V30 11 1 7 12
M  V30 12 2 8 13
M  V30 13 1 9 14
M  V30 14 1 9 15
M  V30 15 2 10 16
M  V30 16 2 11 17
M  V30 17 2 14 18
M  V30 18 1 13 17
M  V30 19 1 16 18
M  V30 20 1 1 19
M  V30 21 1 1 20
M  V30 22 1 3 21
M  V30 23 1 4 22
M  V30 24 1 8 23
M  V30 25 1 10 24
M  V30 26 1 11 25
M  V30 27 1 12 26
M  V30 28 1 12 27
M  V30 29 1 12 28
M  V30 30 1 13 29
M  V30 31 1 14 30
M  V30 32 1 15 31
M  V30 33 1 15 32
M  V30 34 1 15 33
M  V30 35 1 16 34
M  V30 36 1 17 35
M  V30 37 1 18 36
M  V30 END BOND
M  V30 END CTAB
M  END
>  <Structure No>
213

>  <LogS>
-3.533884584

>  <MMFF94 Energy>
-114.14

$$$$
Compound 214
Actelion Java MolfileCreator 2.0

  0  0  0  0  0  0              0 V3000
M  V30 BEGIN CTAB
M  V30 COUNTS 67 67 0 0 0
M  V30 BEGIN ATOM
M  V30 1 O 2.9971 -0.3939 1.5765 0
M  V30 2 C 2.4371 -0.3605 0.447 0
M  V30 3 O 3.1327 -0.72 -0.714 0
M  V30 4 C 0.9989 0.0352 0.3465 0
M  V30 5 C 4.5168 -1.0694 -0.7379 0
M  V30 6 C 0.0904 -1.1356 0.7289 0
M  V30 7 C 5.3801 0.1128 -1.2318 0 CFG=2
M  V30 8 C -1.3608 -0.7483 0.5851 0
M  V30 9 C 6.8108 -0.3405 -1.6368 0
M  V30 10 C 5.394 1.3035 -0.2327 0
M  V30 11 C -2.031 -0.9832 -0.6123 0
M  V30 12 C -2.0145 -0.1013 1.629 0
M  V30 13 C 7.5807 -1.2128 -0.6231 0
M  V30 14 C 4.3846 2.3914 -0.6037 0
M  V30 15 C -3.3813 -0.6081 -0.8017 0
M  V30 16 C -3.363 0.3012 1.5231 0
M  V30 17 C 7.9618 -0.4794 0.6607 0
M  V30 18 C -4.0502 0.0298 0.2998 0
M  V30 19 C -4.0941 -0.9282 -2.153 0
M  V30 20 C -4.0744 1.0159 2.713 0
M  V30 21 O -5.3922 0.4122 0.2223 0
M  V30 22 C -3.1301 -1.4891 -3.2374 0
M  V30 23 C -5.1519 -2.0347 -1.9176 0
M  V30 24 C -4.7439 0.3555 -2.7592 0
M  V30 25 C -4.5743 2.4152 2.2792 0
M  V30 26 C -5.2623 0.1616 3.2149 0
M  V30 27 C -3.1436 1.2413 3.935 0
M  V30 28 H 0.7815 0.3564 -0.6956 0
M  V30 29 H 0.8089 0.8985 1.0215 0
M  V30 30 H 4.8541 -1.4275 0.2588 0
M  V30 31 H 4.633 -1.9168 -1.4474 0
M  V30 32 H 0.3173 -2.0133 0.0833 0
M  V30 33 H 0.2954 -1.4421 1.7786 0
M  V30 34 H 4.9159 0.466 -2.181 0
M  V30 35 H 6.7224 -0.9355 -2.5729 0
M  V30 36 H 7.426 0.5467 -1.9035 0
M  V30 37 H 5.1799 0.9569 0.7999 0
M  V30 38 H 6.3936 1.7879 -0.2101 0
M  V30 39 H -1.4608 -1.4668 -1.3887 0
M  V30 40 H -1.4365 0.0769 2.5223 0
M  V30 41 H 7.0104 -2.1325 -0.376 0
M  V30 42 H 8.5217 -1.5461 -1.1126 0
M  V30 43 H 3.3568 1.9812 -0.6629 0
M  V30 44 H 4.6508 2.8415 -1.5844 0
M  V30 45 H 4.4036 3.1927 0.1642 0
M  V30 46 H 8.683 -1.0967 1.2367 0
M  V30 47 H 7.0698 -0.3215 1.299 0
M  V30 48 H 8.4426 0.4947 0.428 0
M  V30 49 H -6.0032 0.3056 -0.5673 0
M  V30 50 H -2.3083 -0.7696 -3.4464 0
M  V30 51 H -3.6723 -1.6658 -4.1924 0
M  V30 52 H -2.6997 -2.4689 -2.9362 0
M  V30 53 H -5.6866 -2.2716 -2.8628 0
M  V30 54 H -4.661 -2.9643 -1.5557 0
M  V30 55 H -5.9122 -1.7593 -1.1647 0
M  V30 56 H -4.4449 0.5346 -3.815 0
M  V30 57 H -5.853 0.2931 -2.7738 0
M  V30 58 H -4.4458 1.2697 -2.2023 0
M  V30 59 H -4.9623 2.9848 3.1517 0
M  V30 60 H -3.7423 2.9978 1.8277 0
M  V30 61 H -5.4046 2.3684 1.5492 0
M  V30 62 H -4.9185 -0.8659 3.4618 0
M  V30 63 H -6.0795 0.086 2.4726 0
M  V30 64 H -5.7091 0.6066 4.1307 0
M  V30 65 H -3.6837 1.7586 4.7581 0
M  V30 66 H -2.7812 0.2735 4.3448 0
M  V30 67 H -2.276 1.8809 3.6618 0
M  V30 END ATOM
M  V30 BEGIN BOND
M  V30 1 2 1 2
M  V30 2 1 2 3
M  V30 3 1 2 4
M  V30 4 1 3 5
M  V30 5 1 4 6
M  V30 6 1 5 7
M  V30 7 1 6 8
M  V30 8 1 7 9
M  V30 9 1 7 10
M  V30 10 2 8 11
M  V30 11 1 8 12
M  V30 12 1 9 13
M  V30 13 1 10 14
M  V30 14 1 11 15
M  V30 15 2 12 16
M  V30 16 1 13 17
M  V30 17 2 15 18
M  V30 18 1 15 19
M  V30 19 1 16 20
M  V30 20 1 18 21
M  V30 21 1 19 22
M  V30 22 1 19 23
M  V30 23 1 19 24
M  V30 24 1 20 25
M  V30 25 1 20 26
M  V30 26 1 20 27
M  V30 27 1 16 18
M  V30 28 1 4 28
M  V30 29 1 4 29
M  V30 30 1 5 30
M  V30 31 1 5 31
M  V30 32 1 6 32
M  V30 33 1 6 33
M  V30 34 1 7 34
M  V30 35 1 9 35
M  V30 36 1 9 36
M  V30 37 1 10 37
M  V30 38 1 10 38
M  V30 39 1 11 39
M  V30 40 1 12 40
M  V30 41 1 13 41
M  V30 42 1 13 42
M  V30 43 1 14 43
M  V30 44 1 14 44
M  V30 45 1 14 45
M  V30 46 1 17 46
M  V30 47 1 17 47
M  V30 48 1 17 48
M  V30 49 1 21 49
M  V30 50 1 22 50
M  V30 51 1 22 51
M  V30 52 1 22 52
M  V30 53 1 23 53
M  V30 54 1 23 54
M  V30 55 1 23 55
M  V30 56 1 24 56
M  V30 57 1 24 57
M  V30 58 1 24 58
M  V30 59 1 25 59
M  V30 60 1 25 60
M  V30 61 1 25 61
M  V30 62 1 26 62
M  V30 63 1 26 63
M  V30 64 1 26 64
M  V30 65 1 27 65
M  V30 66 1 27 66
M  V30 67 1 27 67
M  V30 END BOND
M  V30 BEGIN COLLECTION
M  V30 MDLV30/STEABS ATOMS=(1 7)
M  V30 END COLLECTION
M  V30 END CTAB
M  END
>  <Structure No>
214

>  <LogS>
-7.09873715

>  <MMFF94 Energy>
48.232

$$$$
Compound 215
Actelion Java MolfileCreator 2.0

  0  0  0  0  0  0              0 V3000
M  V30 BEGIN CTAB
M  V30 COUNTS 39 41 0 0 0
M  V30 BEGIN ATOM
M  V30 1 C -1.1246 0.1605 -0.9638 0
M  V30 2 C -1.5693 -0.1603 -2.1856 0
M  V30 3 C -1.3824 -0.6023 0.3159 0 CFG=2
M  V30 4 C -0.3821 1.4234 -0.6288 0 CFG=2
M  V30 5 C -0.6375 0.352 1.3278 0 CFG=1
M  V30 6 C -0.8137 -2.0514 0.2848 0
M  V30 7 C -2.9109 -0.7188 0.5632 0
M  V30 8 C 0.5214 0.9619 0.5073 0 CFG=1
M  V30 9 C -1.3714 2.3305 0.1392 0
M  V30 10 C -1.4708 1.6476 1.5265 0
M  V30 11 C 0.6887 -2.2133 0.5019 0
M  V30 12 C 1.7988 0.1058 0.161 0
M  V30 13 C 1.5251 -1.3134 -0.4091 0
M  V30 14 C 2.6396 0.8656 -0.8945 0
M  V30 15 C 2.6772 0.0017 1.437 0
M  V30 16 H -1.3617 0.4856 -3.0323 0
M  V30 17 H -2.1437 -1.0663 -2.3461 0
M  V30 18 H 0.1155 1.9275 -1.4835 0
M  V30 19 H -0.3436 -0.1196 2.2892 0
M  V30 20 H -1.0874 -2.5361 -0.6781 0
M  V30 21 H -1.3067 -2.6534 1.0811 0
M  V30 22 H -3.4566 0.207 0.2844 0
M  V30 23 H -3.11 -0.9539 1.6307 0
M  V30 24 H -3.3482 -1.5308 -0.0575 0
M  V30 25 H 0.9362 1.8654 1.0261 0
M  V30 26 H -2.3615 2.3859 -0.3649 0
M  V30 27 H -0.9576 3.358 0.2398 0
M  V30 28 H -2.5155 1.4795 1.8553 0
M  V30 29 H -0.9938 2.288 2.3023 0
M  V30 30 H 0.9343 -2.0747 1.5723 0
M  V30 31 H 0.9436 -3.2713 0.2718 0
M  V30 32 H 1.0621 -1.258 -1.4177 0
M  V30 33 H 2.5028 -1.8208 -0.5701 0
M  V30 34 H 3.6276 0.3762 -1.0386 0
M  V30 35 H 2.1308 0.8785 -1.8815 0
M  V30 36 H 2.8194 1.9166 -0.5802 0
M  V30 37 H 2.0985 -0.3574 2.3114 0
M  V30 38 H 3.0867 0.9973 1.7155 0
M  V30 39 H 3.5375 -0.6834 1.2768 0
M  V30 END ATOM
M  V30 BEGIN BOND
M  V30 1 2 1 2
M  V30 2 1 1 3
M  V30 3 1 1 4
M  V30 4 1 3 5
M  V30 5 1 3 6
M  V30 6 1 3 7
M  V30 7 1 4 8
M  V30 8 1 4 9
M  V30 9 1 5 10
M  V30 10 1 6 11
M  V30 11 1 8 12
M  V30 12 1 11 13
M  V30 13 1 12 14
M  V30 14 1 12 15
M  V30 15 1 5 8
M  V30 16 1 9 10
M  V30 17 1 12 13
M  V30 18 1 2 16
M  V30 19 1 2 17
M  V30 20 1 4 18
M  V30 21 1 5 19
M  V30 22 1 6 20
M  V30 23 1 6 21
M  V30 24 1 7 22
M  V30 25 1 7 23
M  V30 26 1 7 24
M  V30 27 1 8 25
M  V30 28 1 9 26
M  V30 29 1 9 27
M  V30 30 1 10 28
M  V30 31 1 10 29
M  V30 32 1 11 30
M  V30 33 1 11 31
M  V30 34 1 13 32
M  V30 35 1 13 33
M  V30 36 1 14 34
M  V30 37 1 14 35
M  V30 38 1 14 36
M  V30 39 1 15 37
M  V30 40 1 15 38
M  V30 41 1 15 39
M  V30 END BOND
M  V30 BEGIN COLLECTION
M  V30 MDLV30/STEABS ATOMS=(4 3 4 5 8)
M  V30 END COLLECTION
M  V30 END CTAB
M  END
>  <Structure No>
215

>  <LogS>
-4.412762427

>  <MMFF94 Energy>
78.615

$$$$
Compound 216
Actelion Java MolfileCreator 2.0

  0  0  0  0  0  0              0 V3000
M  V30 BEGIN CTAB
M  V30 COUNTS 32 33 0 0 0
M  V30 BEGIN ATOM
M  V30 1 O -0.9552 1.5923 -1.0348 0
M  V30 2 C -1.5254 0.5342 -0.6501 0
M  V30 3 O -0.7797 -0.6324 -0.4428 0
M  V30 4 C -2.9761 0.5476 -0.3658 0
M  V30 5 C 0.6327 -0.7054 -0.6232 0
M  V30 6 C -3.8073 -0.5753 -0.6073 0
M  V30 7 C -3.5421 1.7049 0.2006 0
M  V30 8 C 1.3582 -0.0556 0.5571 0
M  V30 9 O -3.3477 -1.7251 -1.2528 0
M  V30 10 C -5.1539 -0.5358 -0.2233 0
M  V30 11 C -4.8918 1.7355 0.5582 0
M  V30 12 C 2.8495 -0.1628 0.3868 0
M  V30 13 C -5.6942 0.6133 0.3558 0
M  V30 14 C 3.5544 0.8254 -0.3204 0
M  V30 15 C 3.542 -1.2792 0.8848 0
M  V30 16 C 4.9355 0.7087 -0.5056 0
M  V30 17 C 4.9232 -1.392 0.6974 0
M  V30 18 C 5.6196 -0.3979 0.0045 0
M  V30 19 H 0.9219 -0.2176 -1.5803 0
M  V30 20 H 0.9207 -1.7767 -0.6827 0
M  V30 21 H -2.9319 2.5792 0.3924 0
M  V30 22 H 1.0663 1.0135 0.6385 0
M  V30 23 H 1.0457 -0.5541 1.5006 0
M  V30 24 H -2.4514 -1.7814 -1.7162 0
M  V30 25 H -5.7903 -1.3943 -0.3967 0
M  V30 26 H -5.3132 2.6277 1.0035 0
M  V30 27 H -6.7386 0.6368 0.6394 0
M  V30 28 H 3.0343 1.6834 -0.7285 0
M  V30 29 H 3.0127 -2.0607 1.4156 0
M  V30 30 H 5.4748 1.4747 -1.0476 0
M  V30 31 H 5.453 -2.2518 1.0864 0
M  V30 32 H 6.6883 -0.4874 -0.1406 0
M  V30 END ATOM
M  V30 BEGIN BOND
M  V30 1 2 1 2
M  V30 2 1 2 3
M  V30 3 1 2 4
M  V30 4 1 3 5
M  V30 5 2 4 6
M  V30 6 1 4 7
M  V30 7 1 5 8
M  V30 8 1 6 9
M  V30 9 1 6 10
M  V30 10 2 7 11
M  V30 11 1 8 12
M  V30 12 2 10 13
M  V30 13 2 12 14
M  V30 14 1 12 15
M  V30 15 1 14 16
M  V30 16 2 15 17
M  V30 17 2 16 18
M  V30 18 1 11 13
M  V30 19 1 17 18
M  V30 20 1 5 19
M  V30 21 1 5 20
M  V30 22 1 7 21
M  V30 23 1 8 22
M  V30 24 1 8 23
M  V30 25 1 9 24
M  V30 26 1 10 25
M  V30 27 1 11 26
M  V30 28 1 13 27
M  V30 29 1 14 28
M  V30 30 1 15 29
M  V30 31 1 16 30
M  V30 32 1 17 31
M  V30 33 1 18 32
M  V30 END BOND
M  V30 END CTAB
M  END
>  <Structure No>
216

>  <LogS>
-4.489105335

>  <MMFF94 Energy>
51.903

$$$$
Compound 217
Actelion Java MolfileCreator 2.0

  0  0  0  0  0  0              0 V3000
M  V30 BEGIN CTAB
M  V30 COUNTS 37 38 0 0 0
M  V30 BEGIN ATOM
M  V30 1 O -2.5555 -2.1559 -0.0797 0
M  V30 2 C -2.7935 -0.9932 0.3499 0
M  V30 3 O -1.7528 -0.0641 0.479 0
M  V30 4 C -4.1714 -0.6092 0.727 0
M  V30 5 C -0.4031 -0.3263 0.0929 0 CFG=2
M  V30 6 C -4.4409 0.6849 1.2088 0
M  V30 7 C -5.2318 -1.5277 0.6097 0
M  V30 8 C 0.5081 0.6935 0.7878 0
M  V30 9 C -0.276 -0.2514 -1.4324 0
M  V30 10 C -5.7428 1.0505 1.5651 0
M  V30 11 C -6.5318 -1.1566 0.9676 0
M  V30 12 O 1.8853 0.3675 0.5985 0
M  V30 13 C -6.7871 0.1309 1.4449 0
M  V30 14 C 2.6893 0.921 -0.4066 0
M  V30 15 O 2.2261 1.811 -1.1722 0
M  V30 16 C 4.0859 0.4605 -0.5659 0
M  V30 17 C 4.6055 -0.5366 0.2797 0
M  V30 18 C 4.9141 1.0077 -1.5641 0
M  V30 19 C 5.9248 -0.9749 0.1293 0
M  V30 20 C 6.2326 0.5656 -1.7097 0
M  V30 21 C 6.7376 -0.4243 -0.864 0
M  V30 22 H -0.1096 -1.3435 0.4364 0
M  V30 23 H -3.6479 1.4151 1.3105 0
M  V30 24 H -5.0579 -2.5311 0.242 0
M  V30 25 H 0.299 0.658 1.8782 0
M  V30 26 H 0.2845 1.7284 0.4469 0
M  V30 27 H -0.4937 0.7772 -1.7905 0
M  V30 28 H 0.7447 -0.5459 -1.7521 0
M  V30 29 H -0.9925 -0.9502 -1.9118 0
M  V30 30 H -5.9421 2.048 1.935 0
M  V30 31 H -7.3419 -1.8683 0.8748 0
M  V30 32 H -7.7941 0.416 1.7213 0
M  V30 33 H 3.9943 -0.9789 1.0564 0
M  V30 34 H 4.5443 1.7761 -2.2315 0
M  V30 35 H 6.3171 -1.7424 0.7838 0
M  V30 36 H 6.8633 0.9914 -2.4795 0
M  V30 37 H 7.7584 -0.7651 -0.9786 0
M  V30 END ATOM
M  V30 BEGIN BOND
M  V30 1 2 1 2
M  V30 2 1 2 3
M  V30 3 1 2 4
M  V30 4 1 3 5
M  V30 5 2 4 6
M  V30 6 1 4 7
M  V30 7 1 5 8
M  V30 8 1 5 9
M  V30 9 1 6 10
M  V30 10 2 7 11
M  V30 11 1 8 12
M  V30 12 2 10 13
M  V30 13 1 12 14
M  V30 14 2 14 15
M  V30 15 1 14 16
M  V30 16 2 16 17
M  V30 17 1 16 18
M  V30 18 1 17 19
M  V30 19 2 18 20
M  V30 20 2 19 21
M  V30 21 1 11 13
M  V30 22 1 20 21
M  V30 23 1 5 22
M  V30 24 1 6 23
M  V30 25 1 7 24
M  V30 26 1 8 25
M  V30 27 1 8 26
M  V30 28 1 9 27
M  V30 29 1 9 28
M  V30 30 1 9 29
M  V30 31 1 10 30
M  V30 32 1 11 31
M  V30 33 1 13 32
M  V30 34 1 17 33
M  V30 35 1 18 34
M  V30 36 1 19 35
M  V30 37 1 20 36
M  V30 38 1 21 37
M  V30 END BOND
M  V30 BEGIN COLLECTION
M  V30 MDLV30/STEABS ATOMS=(1 5)
M  V30 END COLLECTION
M  V30 END CTAB
M  END
>  <Structure No>
217

>  <LogS>
-4.567302938

>  <MMFF94 Energy>
67.623

$$$$
Compound 218
Actelion Java MolfileCreator 2.0

  0  0  0  0  0  0              0 V3000
M  V30 BEGIN CTAB
M  V30 COUNTS 39 39 0 0 0
M  V30 BEGIN ATOM
M  V30 1 O -3.3211 1.027 -1.027 0
M  V30 2 C -2.4895 1.6754 -0.3357 0
M  V30 3 O -1.3506 1.0543 0.1877 0
M  V30 4 C -2.6862 3.1373 -0.1236 0
M  V30 5 C -1.0637 -0.334 0.037 0 CFG=1
M  V30 6 C 0.4562 -0.6102 0.283 0 CFG=2
M  V30 7 C -1.9407 -1.1169 1.0334 0
M  V30 8 C 1.4446 0.1959 -0.6753 0
M  V30 9 C 0.7027 -2.1488 0.2449 0
M  V30 10 C -1.6661 -2.6176 0.9612 0
M  V30 11 C 1.3854 1.7485 -0.461 0
M  V30 12 C 2.9132 -0.2522 -0.4376 0
M  V30 13 C 1.1188 -0.0662 -2.167 0
M  V30 14 C -0.1919 -2.9006 1.2358 0
M  V30 15 C 1.5608 2.2246 0.9859 0
M  V30 16 H -2.3104 3.6924 -1.0078 0
M  V30 17 H -2.1275 3.4675 0.7771 0
M  V30 18 H -3.7644 3.3603 0.0205 0
M  V30 19 H -1.3292 -0.6621 -0.9915 0
M  V30 20 H 0.6825 -0.3034 1.3268 0
M  V30 21 H -3.0142 -0.9427 0.8062 0
M  V30 22 H -1.7508 -0.7523 2.0673 0
M  V30 23 H 0.5184 -2.5506 -0.7732 0
M  V30 24 H 1.7477 -2.3881 0.5272 0
M  V30 25 H -1.9457 -3.005 -0.0432 0
M  V30 26 H -2.2881 -3.142 1.7182 0
M  V30 27 H 0.4461 2.1755 -0.8659 0
M  V30 28 H 2.1841 2.232 -1.0664 0
M  V30 29 H 3.105 -1.2584 -0.8666 0
M  V30 30 H 3.6327 0.4367 -0.9302 0
M  V30 31 H 3.1503 -0.2845 0.6466 0
M  V30 32 H 0.1186 0.3299 -2.4392 0
M  V30 33 H 1.8597 0.4435 -2.8207 0
M  V30 34 H 1.152 -1.1465 -2.4124 0
M  V30 35 H -0.0069 -3.9925 1.1423 0
M  V30 36 H 0.062 -2.5992 2.2761 0
M  V30 37 H 0.6853 1.9506 1.6082 0
M  V30 38 H 1.6418 3.3321 0.9968 0
M  V30 39 H 2.4847 1.8099 1.4368 0
M  V30 END ATOM
M  V30 BEGIN BOND
M  V30 1 2 1 2
M  V30 2 1 2 3
M  V30 3 1 2 4
M  V30 4 1 3 5
M  V30 5 1 5 6
M  V30 6 1 5 7
M  V30 7 1 6 8
M  V30 8 1 6 9
M  V30 9 1 7 10
M  V30 10 1 8 11
M  V30 11 1 8 12
M  V30 12 1 8 13
M  V30 13 1 9 14
M  V30 14 1 11 15
M  V30 15 1 10 14
M  V30 16 1 4 16
M  V30 17 1 4 17
M  V30 18 1 4 18
M  V30 19 1 5 19
M  V30 20 1 6 20
M  V30 21 1 7 21
M  V30 22 1 7 22
M  V30 23 1 9 23
M  V30 24 1 9 24
M  V30 25 1 10 25
M  V30 26 1 10 26
M  V30 27 1 11 27
M  V30 28 1 11 28
M  V30 29 1 12 29
M  V30 30 1 12 30
M  V30 31 1 12 31
M  V30 32 1 13 32
M  V30 33 1 13 33
M  V30 34 1 13 34
M  V30 35 1 14 35
M  V30 36 1 14 36
M  V30 37 1 15 37
M  V30 38 1 15 38
M  V30 39 1 15 39
M  V30 END BOND
M  V30 BEGIN COLLECTION
M  V30 MDLV30/STEABS ATOMS=(2 5 6)
M  V30 END COLLECTION
M  V30 END CTAB
M  END
>  <Structure No>
218

>  <LogS>
-4.446203904

>  <MMFF94 Energy>
20.758

$$$$
Compound 219
Actelion Java MolfileCreator 2.0

  0  0  0  0  0  0              0 V3000
M  V30 BEGIN CTAB
M  V30 COUNTS 30 31 0 0 0
M  V30 BEGIN ATOM
M  V30 1 N 1.8346 -2.3934 2.3136 0
M  V30 2 C 1.3657 -1.5719 1.6469 0
M  V30 3 C 0.7828 -0.5443 0.8139 0
M  V30 4 C 1.7323 0.4047 0.1967 0
M  V30 5 C -0.5593 -0.472 0.6105 0
M  V30 6 C 1.9204 0.4158 -1.1957 0
M  V30 7 C 2.4917 1.2678 1.0029 0
M  V30 8 C -1.2125 0.7018 -0.0979 0
M  V30 9 C -1.5262 -1.4731 1.2198 0
M  V30 10 C 2.8377 1.2985 -1.7739 0
M  V30 11 C 3.4086 2.1484 0.4203 0
M  V30 12 C -2.2319 0.2057 -1.1283 0
M  V30 13 C -2.5537 -1.9312 0.177 0
M  V30 14 C 3.5799 2.1653 -0.9668 0
M  V30 15 C -3.2543 -0.738 -0.484 0
M  V30 16 H 1.3549 -0.2562 -1.8295 0
M  V30 17 H 2.3684 1.2622 2.0789 0
M  V30 18 H -0.4921 1.366 -0.6139 0
M  V30 19 H -1.7337 1.3249 0.6609 0
M  V30 20 H -2.0527 -0.9899 2.0712 0
M  V30 21 H -1.0202 -2.3795 1.6111 0
M  V30 22 H 2.9752 1.3085 -2.8473 0
M  V30 23 H 3.9874 2.8168 1.0445 0
M  V30 24 H -2.7641 1.0771 -1.5671 0
M  V30 25 H -1.7013 -0.3218 -1.9514 0
M  V30 26 H -2.0441 -2.5404 -0.6017 0
M  V30 27 H -3.3142 -2.5746 0.6696 0
M  V30 28 H 4.2903 2.8473 -1.4157 0
M  V30 29 H -3.8501 -0.185 0.275 0
M  V30 30 H -3.9526 -1.1095 -1.2644 0
M  V30 END ATOM
M  V30 BEGIN BOND
M  V30 1 3 1 2
M  V30 2 1 2 3
M  V30 3 1 3 4
M  V30 4 2 3 5
M  V30 5 2 4 6
M  V30 6 1 4 7
M  V30 7 1 5 8
M  V30 8 1 5 9
M  V30 9 1 6 10
M  V30 10 2 7 11
M  V30 11 1 8 12
M  V30 12 1 9 13
M  V30 13 2 10 14
M  V30 14 1 12 15
M  V30 15 1 11 14
M  V30 16 1 13 15
M  V30 17 1 6 16
M  V30 18 1 7 17
M  V30 19 1 8 18
M  V30 20 1 8 19
M  V30 21 1 9 20
M  V30 22 1 9 21
M  V30 23 1 10 22
M  V30 24 1 11 23
M  V30 25 1 12 24
M  V30 26 1 12 25
M  V30 27 1 13 26
M  V30 28 1 13 27
M  V30 29 1 14 28
M  V30 30 1 15 29
M  V30 31 1 15 30
M  V30 END BOND
M  V30 END CTAB
M  END
>  <Structure No>
219

>  <LogS>
-4.420023997

>  <MMFF94 Energy>
42.57

$$$$
Compound 220
Actelion Java MolfileCreator 2.0

  0  0  0  0  0  0              0 V3000
M  V30 BEGIN CTAB
M  V30 COUNTS 29 30 0 0 0
M  V30 BEGIN ATOM
M  V30 1 Cl 1.9046 -0.9105 1.8217 0
M  V30 2 C 2.4148 -0.2056 0.2924 0
M  V30 3 C 1.5195 -0.0581 -0.7889 0
M  V30 4 C 3.7556 0.1663 0.1443 0
M  V30 5 N 0.1389 -0.4342 -0.6593 0
M  V30 6 C 1.9977 0.4358 -2.018 0
M  V30 7 C 4.2158 0.6731 -1.0718 0
M  V30 8 C -0.743 0.1263 0.3329 0
M  V30 9 Cl 0.9221 0.6384 -3.3947 0
M  V30 10 C 3.3407 0.8039 -2.1512 0
M  V30 11 C -1.8859 -0.5866 0.7762 0
M  V30 12 C -0.4908 1.4101 0.8548 0
M  V30 13 C -2.7486 0.0088 1.7141 0
M  V30 14 C -2.2167 -1.9676 0.2631 0
M  V30 15 C -1.3514 1.9783 1.7948 0
M  V30 16 C -2.4793 1.2803 2.2218 0
M  V30 17 C -3.0578 -1.8827 -0.9717 0
M  V30 18 O -4.2534 -1.4942 -0.8973 0
M  V30 19 O -2.5224 -2.224 -2.2069 0 CHG=-1
M  V30 20 H 4.4461 0.053 0.9704 0
M  V30 21 H -0.2634 -1.0434 -1.4046 0
M  V30 22 H 5.2543 0.958 -1.1805 0
M  V30 23 H 3.7073 1.1943 -3.092 0
M  V30 24 H 0.3663 1.9814 0.5232 0
M  V30 25 H -3.6323 -0.5157 2.0563 0
M  V30 26 H -1.2903 -2.5447 0.0581 0
M  V30 27 H -2.7716 -2.5424 1.0364 0
M  V30 28 H -1.1473 2.9664 2.1867 0
M  V30 29 H -3.1485 1.7262 2.9463 0
M  V30 END ATOM
M  V30 BEGIN BOND
M  V30 1 1 1 2
M  V30 2 2 2 3
M  V30 3 1 2 4
M  V30 4 1 3 5
M  V30 5 1 3 6
M  V30 6 2 4 7
M  V30 7 1 5 8
M  V30 8 1 6 9
M  V30 9 2 6 10
M  V30 10 2 8 11
M  V30 11 1 8 12
M  V30 12 1 11 13
M  V30 13 1 11 14
M  V30 14 2 12 15
M  V30 15 2 13 16
M  V30 16 1 14 17
M  V30 17 2 17 18
M  V30 18 1 17 19
M  V30 19 1 7 10
M  V30 20 1 15 16
M  V30 21 1 4 20
M  V30 22 1 5 21
M  V30 23 1 7 22
M  V30 24 1 10 23
M  V30 25 1 12 24
M  V30 26 1 13 25
M  V30 27 1 14 26
M  V30 28 1 14 27
M  V30 29 1 15 28
M  V30 30 1 16 29
M  V30 END BOND
M  V30 END CTAB
M  END
>  <Structure No>
220

>  <LogS>
-4.620257788

>  <MMFF94 Energy>
81.284

$$$$
Compound 221
Actelion Java MolfileCreator 2.0

  0  0  0  0  0  0              0 V3000
M  V30 BEGIN CTAB
M  V30 COUNTS 32 33 0 0 0
M  V30 BEGIN ATOM
M  V30 1 O 6.6344 1.3727 0.6457 0
M  V30 2 N 6.0568 0.3172 0.3119 0 CHG=1
M  V30 3 O 6.8083 -0.8223 0.1364 0 CHG=-1
M  V30 4 C 4.6315 0.2913 0.1125 0
M  V30 5 C 3.9871 -0.9007 -0.2617 0
M  V30 6 C 3.8596 1.454 0.2929 0
M  V30 7 C 2.603 -0.9291 -0.4556 0
M  V30 8 C 2.4756 1.4243 0.0986 0
M  V30 9 C 1.8395 0.2357 -0.2886 0
M  V30 10 C 0.3449 0.1961 -0.4631 0
M  V30 11 C -0.3426 -0.1528 0.86 0
M  V30 12 C -1.8371 -0.1924 0.6855 0
M  V30 13 C -2.4732 -1.381 0.2982 0
M  V30 14 C -2.6006 0.9722 0.8526 0
M  V30 15 C -3.8573 -1.411 0.1038 0
M  V30 16 C -3.9847 0.9437 0.6587 0
M  V30 17 C -4.6291 -0.2496 0.284 0
M  V30 18 N -6.054 -0.2835 0.0826 0 CHG=1
M  V30 19 O -6.7444 0.745 0.2398 0
M  V30 20 O -6.6806 -1.4522 -0.2854 0 CHG=-1
M  V30 21 H 4.5522 -1.8131 -0.4017 0
M  V30 22 H 4.3254 2.3858 0.5873 0
M  V30 23 H 2.1257 -1.8605 -0.7347 0
M  V30 24 H 1.8991 2.3285 0.2518 0
M  V30 25 H -0.0179 1.1835 -0.8253 0
M  V30 26 H 0.0763 -0.5581 -1.2356 0
M  V30 27 H -0.074 0.6015 1.6327 0
M  V30 28 H 0.0201 -1.1402 1.2224 0
M  V30 29 H -1.8968 -2.285 0.1449 0
M  V30 30 H -2.1235 1.9038 1.1319 0
M  V30 31 H -4.3227 -2.3427 -0.1904 0
M  V30 32 H -4.5504 1.856 0.7986 0
M  V30 END ATOM
M  V30 BEGIN BOND
M  V30 1 2 1 2
M  V30 2 1 2 3
M  V30 3 1 2 4
M  V30 4 2 4 5
M  V30 5 1 4 6
M  V30 6 1 5 7
M  V30 7 2 6 8
M  V30 8 2 7 9
M  V30 9 1 9 10
M  V30 10 1 10 11
M  V30 11 1 11 12
M  V30 12 2 12 13
M  V30 13 1 12 14
M  V30 14 1 13 15
M  V30 15 2 14 16
M  V30 16 2 15 17
M  V30 17 1 17 18
M  V30 18 2 18 19
M  V30 19 1 18 20
M  V30 20 1 8 9
M  V30 21 1 16 17
M  V30 22 1 5 21
M  V30 23 1 6 22
M  V30 24 1 7 23
M  V30 25 1 8 24
M  V30 26 1 10 25
M  V30 27 1 10 26
M  V30 28 1 11 27
M  V30 29 1 11 28
M  V30 30 1 13 29
M  V30 31 1 14 30
M  V30 32 1 15 31
M  V30 33 1 16 32
M  V30 END BOND
M  V30 END CTAB
M  END
>  <Structure No>
221

>  <LogS>
-4.5898858

>  <MMFF94 Energy>
109.93

$$$$
Compound 222
Actelion Java MolfileCreator 2.0

  0  0  0  0  0  0              0 V3000
M  V30 BEGIN CTAB
M  V30 COUNTS 37 37 0 0 0
M  V30 BEGIN ATOM
M  V30 1 O 4.4024 2.5138 0.785 0
M  V30 2 C 3.3803 1.5969 0.5496 0
M  V30 3 C 2.9396 0.7429 1.5639 0
M  V30 4 C 2.7953 1.5256 -0.7137 0
M  V30 5 C 1.9119 -0.1722 1.32 0
M  V30 6 C 1.767 0.6138 -0.9648 0
M  V30 7 C 1.2794 -0.2385 0.054 0
M  V30 8 C 0.1505 -1.2481 -0.2588 0
M  V30 9 C -1.0939 -0.5633 -0.9407 0
M  V30 10 C 0.7275 -2.2743 -1.2649 0
M  V30 11 C -0.301 -2.0619 0.9795 0
M  V30 12 C -2.0009 0.4593 -0.1567 0
M  V30 13 C -1.2008 1.4302 0.7342 0
M  V30 14 C -3.0637 -0.2673 0.7019 0
M  V30 15 C -2.7651 1.3066 -1.202 0
M  V30 16 H 4.8486 2.5881 1.6918 0
M  V30 17 H 3.3978 0.7824 2.5441 0
M  V30 18 H 3.1427 2.1745 -1.5076 0
M  V30 19 H 1.6273 -0.8179 2.1367 0
M  V30 20 H 1.3631 0.5778 -1.966 0
M  V30 21 H -1.7604 -1.3695 -1.322 0
M  V30 22 H -0.7397 -0.0711 -1.87 0
M  V30 23 H 0.9943 -1.7913 -2.2291 0
M  V30 24 H -0.0119 -3.0753 -1.4841 0
M  V30 25 H 1.6441 -2.7533 -0.8562 0
M  V30 26 H -0.5527 -1.4059 1.8339 0
M  V30 27 H 0.5056 -2.7473 1.3194 0
M  V30 28 H -1.1876 -2.6871 0.7381 0
M  V30 29 H -0.7052 0.899 1.5701 0
M  V30 30 H -1.8764 2.1871 1.1887 0
M  V30 31 H -0.4385 1.9744 0.1385 0
M  V30 32 H -2.6253 -0.7767 1.5779 0
M  V30 33 H -3.6167 -1.0177 0.0974 0
M  V30 34 H -3.805 0.4585 1.1019 0
M  V30 35 H -3.3637 0.6532 -1.8736 0
M  V30 36 H -2.0585 1.8944 -1.8274 0
M  V30 37 H -3.458 2.0237 -0.7099 0
M  V30 END ATOM
M  V30 BEGIN BOND
M  V30 1 1 1 2
M  V30 2 2 2 3
M  V30 3 1 2 4
M  V30 4 1 3 5
M  V30 5 2 4 6
M  V30 6 2 5 7
M  V30 7 1 7 8
M  V30 8 1 8 9
M  V30 9 1 8 10
M  V30 10 1 8 11
M  V30 11 1 9 12
M  V30 12 1 12 13
M  V30 13 1 12 14
M  V30 14 1 12 15
M  V30 15 1 6 7
M  V30 16 1 1 16
M  V30 17 1 3 17
M  V30 18 1 4 18
M  V30 19 1 5 19
M  V30 20 1 6 20
M  V30 21 1 9 21
M  V30 22 1 9 22
M  V30 23 1 10 23
M  V30 24 1 10 24
M  V30 25 1 10 25
M  V30 26 1 11 26
M  V30 27 1 11 27
M  V30 28 1 11 28
M  V30 29 1 13 29
M  V30 30 1 13 30
M  V30 31 1 13 31
M  V30 32 1 14 32
M  V30 33 1 14 33
M  V30 34 1 14 34
M  V30 35 1 15 35
M  V30 36 1 15 36
M  V30 37 1 15 37
M  V30 END BOND
M  V30 END CTAB
M  END
>  <Structure No>
222

>  <LogS>
-4.469462233

>  <MMFF94 Energy>
45.375

$$$$
Compound 223
Actelion Java MolfileCreator 2.0

  0  0  0  0  0  0              0 V3000
M  V30 BEGIN CTAB
M  V30 COUNTS 40 40 0 0 0
M  V30 BEGIN ATOM
M  V30 1 O 6.9016 1.5652 0.3129 0
M  V30 2 C 5.6509 0.9524 0.3383 0
M  V30 3 C 4.5158 1.6614 0.7549 0
M  V30 4 C 5.5279 -0.383 -0.0587 0
M  V30 5 C 3.2656 1.0356 0.7764 0
M  V30 6 C 4.2787 -1.0111 -0.0381 0
M  V30 7 C 3.1404 -0.3092 0.3912 0
M  V30 8 C 1.7889 -0.9723 0.3805 0
M  V30 9 C 1.0803 -0.7259 -0.9583 0
M  V30 10 C -0.2295 -1.5219 -1.1028 0
M  V30 11 C -1.3032 -1.2176 -0.0414 0
M  V30 12 C -1.785 0.2425 -0.0763 0
M  V30 13 C -2.8773 0.5381 0.9679 0
M  V30 14 C -4.1928 -0.2472 0.7882 0
M  V30 15 C -4.8586 -0.0952 -0.5903 0
M  V30 16 C -5.2475 1.3481 -0.9076 0
M  V30 17 H 7.0235 2.5313 0.5935 0
M  V30 18 H 4.6006 2.6971 1.0584 0
M  V30 19 H 6.4004 -0.9334 -0.3868 0
M  V30 20 H 2.3954 1.5984 1.0913 0
M  V30 21 H 4.1982 -2.0427 -0.3579 0
M  V30 22 H 1.9031 -2.0654 0.5516 0
M  V30 23 H 1.1791 -0.565 1.2151 0
M  V30 24 H 1.7562 -1.0408 -1.7837 0
M  V30 25 H 0.8906 0.3595 -1.0955 0
M  V30 26 H -0.6548 -1.3215 -2.1104 0
M  V30 27 H 0.0072 -2.6075 -1.0622 0
M  V30 28 H -0.929 -1.4734 0.972 0
M  V30 29 H -2.1615 -1.8895 -0.2514 0
M  V30 30 H -2.1404 0.5065 -1.0944 0
M  V30 31 H -0.9305 0.912 0.1554 0
M  V30 32 H -3.0986 1.6268 0.9523 0
M  V30 33 H -2.473 0.3158 1.9797 0
M  V30 34 H -4.0116 -1.3251 0.983 0
M  V30 35 H -4.9091 0.0915 1.5683 0
M  V30 36 H -4.1993 -0.493 -1.3899 0
M  V30 37 H -5.7828 -0.7129 -0.5971 0
M  V30 38 H -5.839 1.3731 -1.8469 0
M  V30 39 H -5.8656 1.7729 -0.0883 0
M  V30 40 H -4.3431 1.9747 -1.0528 0
M  V30 END ATOM
M  V30 BEGIN BOND
M  V30 1 1 1 2
M  V30 2 2 2 3
M  V30 3 1 2 4
M  V30 4 1 3 5
M  V30 5 2 4 6
M  V30 6 2 5 7
M  V30 7 1 7 8
M  V30 8 1 8 9
M  V30 9 1 9 10
M  V30 10 1 10 11
M  V30 11 1 11 12
M  V30 12 1 12 13
M  V30 13 1 13 14
M  V30 14 1 14 15
M  V30 15 1 15 16
M  V30 16 1 6 7
M  V30 17 1 1 17
M  V30 18 1 3 18
M  V30 19 1 4 19
M  V30 20 1 5 20
M  V30 21 1 6 21
M  V30 22 1 8 22
M  V30 23 1 8 23
M  V30 24 1 9 24
M  V30 25 1 9 25
M  V30 26 1 10 26
M  V30 27 1 10 27
M  V30 28 1 11 28
M  V30 29 1 11 29
M  V30 30 1 12 30
M  V30 31 1 12 31
M  V30 32 1 13 32
M  V30 33 1 13 33
M  V30 34 1 14 34
M  V30 35 1 14 35
M  V30 36 1 15 36
M  V30 37 1 15 37
M  V30 38 1 16 38
M  V30 39 1 16 39
M  V30 40 1 16 40
M  V30 END BOND
M  V30 END CTAB
M  END
>  <Structure No>
223

>  <LogS>
-4.49802684

>  <MMFF94 Energy>
7.5115

$$$$
Compound 224
Actelion Java MolfileCreator 2.0

  0  0  0  0  0  0              0 V3000
M  V30 BEGIN CTAB
M  V30 COUNTS 36 37 0 0 0
M  V30 BEGIN ATOM
M  V30 1 O 5.315 1.4474 2.0107 0
M  V30 2 N 4.0854 1.2928 1.8623 0 CHG=1
M  V30 3 O 3.2347 1.9912 2.6889 0 CHG=-1
M  V30 4 C 3.5562 0.4343 0.828 0
M  V30 5 C 4.3953 -0.4175 0.0688 0
M  V30 6 C 2.1712 0.4374 0.5727 0
M  V30 7 O 5.7766 -0.4382 0.3249 0
M  V30 8 C 3.8268 -1.2368 -0.9247 0
M  V30 9 C 1.6118 -0.3761 -0.4264 0
M  V30 10 C 6.7201 -1.2505 -0.3665 0
M  V30 11 C 2.4539 -1.2177 -1.1654 0
M  V30 12 C 0.1513 -0.3683 -0.6875 0
M  V30 13 O -0.3739 -1.3358 -1.3038 0
M  V30 14 N -0.662 0.7494 -0.2925 0
M  V30 15 C -2.0894 0.6807 -0.1294 0
M  V30 16 C -2.8642 1.8278 -0.3484 0
M  V30 17 C -2.7216 -0.4964 0.305 0
M  V30 18 C -4.2505 1.7924 -0.1757 0
M  V30 19 C -4.1085 -0.5339 0.4782 0
M  V30 20 C -4.8912 0.6073 0.2269 0
M  V30 21 C -6.3632 0.5862 0.4101 0
M  V30 22 O -6.9839 1.6674 0.5984 0
M  V30 23 N -7.1054 -0.6354 0.3625 0
M  V30 24 H 1.5252 1.0685 1.1678 0
M  V30 25 H 4.4399 -1.8987 -1.5202 0
M  V30 26 H 7.7324 -1.0583 0.0439 0
M  V30 27 H 6.7219 -0.9979 -1.4478 0
M  V30 28 H 6.4773 -2.3245 -0.2231 0
M  V30 29 H 2.0517 -1.8589 -1.94 0
M  V30 30 H -0.2081 1.6886 -0.2303 0
M  V30 31 H -2.3929 2.7505 -0.6635 0
M  V30 32 H -2.1433 -1.3802 0.5391 0
M  V30 33 H -4.8231 2.6917 -0.3664 0
M  V30 34 H -4.5563 -1.4495 0.8394 0
M  V30 35 H -6.6698 -1.532 0.0559 0
M  V30 36 H -8.1321 -0.6277 0.5528 0
M  V30 END ATOM
M  V30 BEGIN BOND
M  V30 1 2 1 2
M  V30 2 1 2 3
M  V30 3 1 2 4
M  V30 4 2 4 5
M  V30 5 1 4 6
M  V30 6 1 5 7
M  V30 7 1 5 8
M  V30 8 2 6 9
M  V30 9 1 7 10
M  V30 10 2 8 11
M  V30 11 1 9 12
M  V30 12 2 12 13
M  V30 13 1 12 14
M  V30 14 1 14 15
M  V30 15 2 15 16
M  V30 16 1 15 17
M  V30 17 1 16 18
M  V30 18 2 17 19
M  V30 19 2 18 20
M  V30 20 1 20 21
M  V30 21 2 21 22
M  V30 22 1 21 23
M  V30 23 1 9 11
M  V30 24 1 19 20
M  V30 25 1 6 24
M  V30 26 1 8 25
M  V30 27 1 10 26
M  V30 28 1 10 27
M  V30 29 1 10 28
M  V30 30 1 11 29
M  V30 31 1 14 30
M  V30 32 1 16 31
M  V30 33 1 17 32
M  V30 34 1 18 33
M  V30 35 1 19 34
M  V30 36 1 23 35
M  V30 37 1 23 36
M  V30 END BOND
M  V30 END CTAB
M  END
>  <Structure No>
224

>  <LogS>
-4.653605269

>  <MMFF94 Energy>
52.212

$$$$
Compound 225
Actelion Java MolfileCreator 2.0

  0  0  0  0  0  0              0 V3000
M  V30 BEGIN CTAB
M  V30 COUNTS 65 64 0 0 0
M  V30 BEGIN ATOM
M  V30 1 N -6.3793 0.9315 -0.388 0 CHG=1
M  V30 2 C -5.2345 0.1755 0.1809 0
M  V30 3 C -7.4084 -0.0092 -0.8689 0
M  V30 4 C -6.9751 1.8503 0.6001 0
M  V30 5 C -3.9963 1.0453 0.5131 0
M  V30 6 C -3.4677 1.9202 -0.6393 0
M  V30 7 C -3.123 1.1661 -1.9413 0
M  V30 8 C -1.8158 0.3501 -1.8679 0
M  V30 9 C -2.0537 -1.1333 -1.5302 0
M  V30 10 C -0.7461 -1.9522 -1.5393 0
M  V30 11 C -0.147 -2.1955 -0.1424 0
M  V30 12 C 0.3445 -0.9046 0.5331 0
M  V30 13 C 1.1021 -1.1572 1.8509 0
M  V30 14 C 2.4167 -1.9503 1.7182 0
M  V30 15 C 3.4237 -1.2944 0.761 0
M  V30 16 C 4.7738 -2.0281 0.7909 0
M  V30 17 C 5.7822 -1.4346 -0.2181 0
M  V30 18 C 6.891 -0.5862 0.435 0
M  V30 19 C 6.3996 0.6869 1.1412 0
M  V30 20 C 5.8203 1.7219 0.1645 0
M  V30 21 C 5.481 3.0238 0.8861 0
M  V30 22 H -6.068 1.4837 -1.2188 0
M  V30 23 H -5.549 -0.3484 1.1122 0
M  V30 24 H -4.9177 -0.6233 -0.5251 0
M  V30 25 H -7.7803 -0.6581 -0.0439 0
M  V30 26 H -6.9951 -0.6583 -1.6741 0
M  V30 27 H -8.2693 0.5446 -1.3039 0
M  V30 28 H -7.3144 1.3005 1.5068 0
M  V30 29 H -7.8493 2.3813 0.158 0
M  V30 30 H -6.25 2.6355 0.9023 0
M  V30 31 H -4.231 1.7044 1.3757 0
M  V30 32 H -3.1782 0.3867 0.8704 0
M  V30 33 H -2.5652 2.4633 -0.2827 0
M  V30 34 H -4.2157 2.7084 -0.8687 0
M  V30 35 H -3.9741 0.5415 -2.2872 0
M  V30 36 H -2.9838 1.9399 -2.7271 0
M  V30 37 H -1.11 0.8159 -1.1489 0
M  V30 38 H -1.3268 0.3983 -2.8669 0
M  V30 39 H -2.7351 -1.5561 -2.302 0
M  V30 40 H -2.565 -1.2469 -0.554 0
M  V30 41 H 0.0177 -1.4869 -2.2006 0
M  V30 42 H -0.9705 -2.9495 -1.9762 0
M  V30 43 H -0.8975 -2.6974 0.5077 0
M  V30 44 H 0.7041 -2.8946 -0.2765 0
M  V30 45 H -0.5411 -0.2819 0.7835 0
M  V30 46 H 0.9765 -0.316 -0.1652 0
M  V30 47 H 0.4313 -1.699 2.5537 0
M  V30 48 H 1.3321 -0.1723 2.3146 0
M  V30 49 H 2.874 -2.0123 2.7309 0
M  V30 50 H 2.2075 -2.992 1.3964 0
M  V30 51 H 3.5635 -0.2315 1.0488 0
M  V30 52 H 3.0231 -1.3337 -0.2751 0
M  V30 53 H 5.1919 -2.0146 1.823 0
M  V30 54 H 4.5964 -3.0946 0.5257 0
M  V30 55 H 6.2869 -2.2809 -0.7352 0
M  V30 56 H 5.2706 -0.8568 -1.0172 0
M  V30 57 H 7.6306 -0.3039 -0.3456 0
M  V30 58 H 7.4323 -1.2164 1.1755 0
M  V30 59 H 7.2718 1.139 1.6623 0
M  V30 60 H 5.6525 0.4338 1.9227 0
M  V30 61 H 4.892 1.3298 -0.3039 0
M  V30 62 H 6.5603 1.9393 -0.64 0
M  V30 63 H 4.699 2.8461 1.657 0
M  V30 64 H 6.386 3.4436 1.3741 0
M  V30 65 H 5.0993 3.7666 0.1555 0
M  V30 END ATOM
M  V30 BEGIN BOND
M  V30 1 1 1 2
M  V30 2 1 1 3
M  V30 3 1 1 4
M  V30 4 1 2 5
M  V30 5 1 5 6
M  V30 6 1 6 7
M  V30 7 1 7 8
M  V30 8 1 8 9
M  V30 9 1 9 10
M  V30 10 1 10 11
M  V30 11 1 11 12
M  V30 12 1 12 13
M  V30 13 1 13 14
M  V30 14 1 14 15
M  V30 15 1 15 16
M  V30 16 1 16 17
M  V30 17 1 17 18
M  V30 18 1 18 19
M  V30 19 1 19 20
M  V30 20 1 20 21
M  V30 21 1 1 22
M  V30 22 1 2 23
M  V30 23 1 2 24
M  V30 24 1 3 25
M  V30 25 1 3 26
M  V30 26 1 3 27
M  V30 27 1 4 28
M  V30 28 1 4 29
M  V30 29 1 4 30
M  V30 30 1 5 31
M  V30 31 1 5 32
M  V30 32 1 6 33
M  V30 33 1 6 34
M  V30 34 1 7 35
M  V30 35 1 7 36
M  V30 36 1 8 37
M  V30 37 1 8 38
M  V30 38 1 9 39
M  V30 39 1 9 40
M  V30 40 1 10 41
M  V30 41 1 10 42
M  V30 42 1 11 43
M  V30 43 1 11 44
M  V30 44 1 12 45
M  V30 45 1 12 46
M  V30 46 1 13 47
M  V30 47 1 13 48
M  V30 48 1 14 49
M  V30 49 1 14 50
M  V30 50 1 15 51
M  V30 51 1 15 52
M  V30 52 1 16 53
M  V30 53 1 16 54
M  V30 54 1 17 55
M  V30 55 1 17 56
M  V30 56 1 18 57
M  V30 57 1 18 58
M  V30 58 1 19 59
M  V30 59 1 19 60
M  V30 60 1 20 61
M  V30 61 1 20 62
M  V30 62 1 21 63
M  V30 63 1 21 64
M  V30 64 1 21 65
M  V30 END BOND
M  V30 END CTAB
M  END
>  <Structure No>
225

>  <LogS>
-4.678690034

>  <MMFF94 Energy>
4.8149

$$$$
Compound 226
Actelion Java MolfileCreator 2.0

  0  0  0  0  0  0              0 V3000
M  V30 BEGIN CTAB
M  V30 COUNTS 53 52 0 0 0
M  V30 BEGIN ATOM
M  V30 1 N 0.2326 0.6204 -0.4653 0 CHG=1
M  V30 2 C 0.6464 0.354 -1.9026 0
M  V30 3 C 0.0314 2.1347 -0.3537 0
M  V30 4 C -1.0559 -0.1071 -0.1749 0
M  V30 5 C 1.3547 0.2031 0.4517 0
M  V30 6 C 1.5075 -0.9073 -2.199 0
M  V30 7 C -1.268 2.7158 0.2971 0
M  V30 8 C -1.041 -1.6524 -0.2656 0
M  V30 9 C 1.1277 0.4306 1.9628 0
M  V30 10 C 1.5778 -1.178 -3.7078 0
M  V30 11 C -1.2382 2.8337 1.828 0
M  V30 12 C -2.2875 -2.2867 0.3761 0
M  V30 13 C 2.2886 -0.1123 2.8147 0
M  V30 14 C 2.4676 -2.3794 -4.015 0
M  V30 15 C -2.4612 3.5879 2.3453 0
M  V30 16 C -3.5794 -1.9495 -0.3685 0
M  V30 17 C 2.2555 -1.6344 2.9639 0
M  V30 18 H -0.2518 0.3471 -2.5618 0
M  V30 19 H 1.2856 1.1846 -2.2842 0
M  V30 20 H 0.0057 2.6054 -1.364 0
M  V30 21 H 0.9099 2.6316 0.1152 0
M  V30 22 H -1.8333 0.23 -0.8951 0
M  V30 23 H -1.4298 0.1528 0.8321 0
M  V30 24 H 1.5963 -0.8652 0.3264 0
M  V30 25 H 2.2855 0.7457 0.1662 0
M  V30 26 H 2.5432 -0.7353 -1.8312 0
M  V30 27 H 1.1279 -1.8164 -1.7034 0
M  V30 28 H -1.3749 3.755 -0.0894 0
M  V30 29 H -2.1922 2.207 -0.0394 0
M  V30 30 H -1.012 -1.9669 -1.3299 0
M  V30 31 H -0.1699 -2.0783 0.2665 0
M  V30 32 H 0.1882 -0.0437 2.309 0
M  V30 33 H 1.081 1.5173 2.1594 0
M  V30 34 H 1.9853 -0.2857 -4.2312 0
M  V30 35 H 0.5566 -1.3799 -4.0988 0
M  V30 36 H -0.3274 3.3862 2.1442 0
M  V30 37 H -1.2403 1.8339 2.3004 0
M  V30 38 H -2.3759 -1.9668 1.4374 0
M  V30 39 H -2.1612 -3.3913 0.371 0
M  V30 40 H 3.2645 0.2005 2.3837 0
M  V30 41 H 2.2154 0.3325 3.8311 0
M  V30 42 H 3.5028 -2.1947 -3.6568 0
M  V30 43 H 2.0666 -3.292 -3.5246 0
M  V30 44 H 2.4965 -2.5494 -5.1118 0
M  V30 45 H -2.4834 4.6199 1.9345 0
M  V30 46 H -2.4187 3.6497 3.4533 0
M  V30 47 H -3.3929 3.0568 2.0552 0
M  V30 48 H -4.4175 -2.5369 0.0623 0
M  V30 49 H -3.4859 -2.2046 -1.4454 0
M  V30 50 H -3.8237 -0.8719 -0.262 0
M  V30 51 H 1.2691 -1.9666 3.352 0
M  V30 52 H 2.4581 -2.135 1.9954 0
M  V30 53 H 3.0401 -1.95 3.6834 0
M  V30 END ATOM
M  V30 BEGIN BOND
M  V30 1 1 1 2
M  V30 2 1 1 3
M  V30 3 1 1 4
M  V30 4 1 1 5
M  V30 5 1 2 6
M  V30 6 1 3 7
M  V30 7 1 4 8
M  V30 8 1 5 9
M  V30 9 1 6 10
M  V30 10 1 7 11
M  V30 11 1 8 12
M  V30 12 1 9 13
M  V30 13 1 10 14
M  V30 14 1 11 15
M  V30 15 1 12 16
M  V30 16 1 13 17
M  V30 17 1 2 18
M  V30 18 1 2 19
M  V30 19 1 3 20
M  V30 20 1 3 21
M  V30 21 1 4 22
M  V30 22 1 4 23
M  V30 23 1 5 24
M  V30 24 1 5 25
M  V30 25 1 6 26
M  V30 26 1 6 27
M  V30 27 1 7 28
M  V30 28 1 7 29
M  V30 29 1 8 30
M  V30 30 1 8 31
M  V30 31 1 9 32
M  V30 32 1 9 33
M  V30 33 1 10 34
M  V30 34 1 10 35
M  V30 35 1 11 36
M  V30 36 1 11 37
M  V30 37 1 12 38
M  V30 38 1 12 39
M  V30 39 1 13 40
M  V30 40 1 13 41
M  V30 41 1 14 42
M  V30 42 1 14 43
M  V30 43 1 14 44
M  V30 44 1 15 45
M  V30 45 1 15 46
M  V30 46 1 15 47
M  V30 47 1 16 48
M  V30 48 1 16 49
M  V30 49 1 16 50
M  V30 50 1 17 51
M  V30 51 1 17 52
M  V30 52 1 17 53
M  V30 END BOND
M  V30 END CTAB
M  END
>  <Structure No>
226

>  <LogS>
1.332024844

>  <MMFF94 Energy>
22.336

$$$$
Compound 227
Actelion Java MolfileCreator 2.0

  0  0  0  0  0  0              0 V3000
M  V30 BEGIN CTAB
M  V30 COUNTS 25 27 0 0 0
M  V30 BEGIN ATOM
M  V30 1 F 4.9735 0.0 -0.2441 0
M  V30 2 C 3.6589 0.0282 0.0862 0
M  V30 3 C 2.6906 -0.2854 -0.873 0
M  V30 4 C 3.2728 0.3694 1.3862 0
M  V30 5 C 1.3287 -0.2498 -0.5377 0
M  V30 6 C 1.9186 0.3917 1.7323 0
M  V30 7 C 0.9454 0.0727 0.7796 0
M  V30 8 C 0.282 -0.6134 -1.5608 0
M  V30 9 O -0.4084 0.0998 1.1356 0
M  V30 10 C -1.0909 -0.0366 -1.1897 0
M  V30 11 C -1.4332 -0.3935 0.2716 0 CFG=2
M  V30 12 C -2.7958 0.1125 0.7871 0 CFG=2
M  V30 13 O -3.8509 -0.3651 -0.0154 0
M  V30 14 C -3.6474 1.0287 -0.0154 0
M  V30 15 H 2.9998 -0.5528 -1.8758 0
M  V30 16 H 4.0227 0.6133 2.1275 0
M  V30 17 H 1.625 0.6523 2.7412 0
M  V30 18 H 0.2141 -1.7209 -1.625 0
M  V30 19 H 0.5757 -0.2258 -2.5605 0
M  V30 20 H -1.0524 1.0683 -1.3091 0
M  V30 21 H -1.8574 -0.4511 -1.8796 0
M  V30 22 H -1.4462 -1.5026 0.3583 0
M  V30 23 H -3.0404 -0.0111 1.8633 0
M  V30 24 H -4.4591 1.5445 0.5382 0
M  V30 25 H -3.3139 1.376 -1.0125 0
M  V30 END ATOM
M  V30 BEGIN BOND
M  V30 1 1 1 2
M  V30 2 2 2 3
M  V30 3 1 2 4
M  V30 4 1 3 5
M  V30 5 2 4 6
M  V30 6 2 5 7
M  V30 7 1 5 8
M  V30 8 1 7 9
M  V30 9 1 8 10
M  V30 10 1 9 11
M  V30 11 1 11 12
M  V30 12 1 12 13
M  V30 13 1 12 14
M  V30 14 1 6 7
M  V30 15 1 10 11
M  V30 16 1 13 14
M  V30 17 1 3 15
M  V30 18 1 4 16
M  V30 19 1 6 17
M  V30 20 1 8 18
M  V30 21 1 8 19
M  V30 22 1 10 20
M  V30 23 1 10 21
M  V30 24 1 11 22
M  V30 25 1 12 23
M  V30 26 1 14 24
M  V30 27 1 14 25
M  V30 END BOND
M  V30 BEGIN COLLECTION
M  V30 MDLV30/STEABS ATOMS=(2 11 12)
M  V30 END COLLECTION
M  V30 END CTAB
M  END
>  <Structure No>
227

>  <LogS>
-3.052101177

>  <MMFF94 Energy>
27.109

$$$$
Compound 228
Actelion Java MolfileCreator 2.0

  0  0  0  0  0  0              0 V3000
M  V30 BEGIN CTAB
M  V30 COUNTS 29 28 0 0 0
M  V30 BEGIN ATOM
M  V30 1 O 3.1625 1.6188 -1.4645 0
M  V30 2 C 3.2606 1.145 -0.1507 0
M  V30 3 C 2.9933 -0.3346 -0.1229 0
M  V30 4 C 1.7794 -0.8954 -0.324 0
M  V30 5 C 0.5228 -0.0784 -0.5508 0
M  V30 6 C 1.6607 -2.3955 -0.2497 0
M  V30 7 C -0.1918 0.1926 0.7772 0
M  V30 8 C -1.46 0.9769 0.5514 0
M  V30 9 C -2.6655 0.4226 0.2944 0
M  V30 10 C -3.8387 1.3361 0.0495 0
M  V30 11 C -2.8683 -1.0742 0.2636 0
M  V30 12 H 3.3227 2.597 -1.4166 0
M  V30 13 H 4.2896 1.3295 0.2291 0
M  V30 14 H 2.5455 1.679 0.5124 0
M  V30 15 H 3.842 -0.9822 0.0833 0
M  V30 16 H 0.7485 0.881 -1.0609 0
M  V30 17 H -0.1524 -0.6358 -1.2337 0
M  V30 18 H 0.6084 -2.724 -0.3844 0
M  V30 19 H 2.0109 -2.7529 0.7418 0
M  V30 20 H 2.2796 -2.8611 -1.0454 0
M  V30 21 H -0.3992 -0.7584 1.312 0
M  V30 22 H 0.4739 0.7932 1.4328 0
M  V30 23 H -1.3742 2.0607 0.5738 0
M  V30 24 H -4.772 0.7663 -0.14 0
M  V30 25 H -3.6367 1.9765 -0.835 0
M  V30 26 H -4.002 1.9839 0.9368 0
M  V30 27 H -2.6448 -1.5069 1.2611 0
M  V30 28 H -3.9156 -1.3371 0.0079 0
M  V30 29 H -2.2088 -1.5379 -0.4975 0
M  V30 END ATOM
M  V30 BEGIN BOND
M  V30 1 1 1 2
M  V30 2 1 2 3
M  V30 3 2 3 4
M  V30 4 1 4 5
M  V30 5 1 4 6
M  V30 6 1 5 7
M  V30 7 1 7 8
M  V30 8 2 8 9
M  V30 9 1 9 10
M  V30 10 1 9 11
M  V30 11 1 1 12
M  V30 12 1 2 13
M  V30 13 1 2 14
M  V30 14 1 3 15
M  V30 15 1 5 16
M  V30 16 1 5 17
M  V30 17 1 6 18
M  V30 18 1 6 19
M  V30 19 1 6 20
M  V30 20 1 7 21
M  V30 21 1 7 22
M  V30 22 1 8 23
M  V30 23 1 10 24
M  V30 24 1 10 25
M  V30 25 1 10 26
M  V30 26 1 11 27
M  V30 27 1 11 28
M  V30 28 1 11 29
M  V30 END BOND
M  V30 END CTAB
M  END
>  <Structure No>
228

>  <LogS>
-2.351909504

>  <MMFF94 Energy>
13.983

$$$$
Compound 229
Actelion Java MolfileCreator 2.0

  0  0  0  0  0  0              0 V3000
M  V30 BEGIN CTAB
M  V30 COUNTS 20 20 0 0 0
M  V30 BEGIN ATOM
M  V30 1 O 0.3915 1.8805 0.2349 0
M  V30 2 C -0.2582 0.6554 0.0159 0
M  V30 3 C -0.268 3.1403 0.3123 0
M  V30 4 C 0.5201 -0.5133 -0.0372 0
M  V30 5 C -1.655 0.5687 -0.1498 0
M  V30 6 O 1.9091 -0.3983 0.1312 0
M  V30 7 C -0.1064 -1.7565 -0.2558 0
M  V30 8 C -2.264 -0.6692 -0.3659 0
M  V30 9 C 2.8182 -1.4938 0.1013 0
M  V30 10 C -1.4914 -1.8292 -0.4188 0
M  V30 11 H -0.9917 3.1413 1.1547 0
M  V30 12 H -0.7915 3.3566 -0.6426 0
M  V30 13 H 0.4861 3.9337 0.4914 0
M  V30 14 H -2.2783 1.4518 -0.1135 0
M  V30 15 H 0.4678 -2.6716 -0.3014 0
M  V30 16 H -3.3374 -0.7289 -0.4925 0
M  V30 17 H 3.8482 -1.1145 0.2614 0
M  V30 18 H 2.775 -1.999 -0.8866 0
M  V30 19 H 2.5749 -2.2142 0.9107 0
M  V30 20 H -1.9667 -2.7871 -0.5863 0
M  V30 END ATOM
M  V30 BEGIN BOND
M  V30 1 1 1 2
M  V30 2 1 1 3
M  V30 3 2 2 4
M  V30 4 1 2 5
M  V30 5 1 4 6
M  V30 6 1 4 7
M  V30 7 2 5 8
M  V30 8 1 6 9
M  V30 9 2 7 10
M  V30 10 1 8 10
M  V30 11 1 3 11
M  V30 12 1 3 12
M  V30 13 1 3 13
M  V30 14 1 5 14
M  V30 15 1 7 15
M  V30 16 1 8 16
M  V30 17 1 9 17
M  V30 18 1 9 18
M  V30 19 1 9 19
M  V30 20 1 10 20
M  V30 END BOND
M  V30 END CTAB
M  END
>  <Structure No>
229

>  <LogS>
-1.314975067

>  <MMFF94 Energy>
40.812

$$$$
Compound 230
Actelion Java MolfileCreator 2.0

  0  0  0  0  0  0              0 V3000
M  V30 BEGIN CTAB
M  V30 COUNTS 20 20 0 0 0
M  V30 BEGIN ATOM
M  V30 1 O -1.7786 1.3917 -1.1597 0
M  V30 2 C -2.3535 0.8459 -0.0051 0
M  V30 3 C -1.734 -0.5169 0.2969 0
M  V30 4 N -0.3113 -0.3806 0.6084 0
M  V30 5 N 0.1404 -0.1351 1.832 0
M  V30 6 C 0.7299 -0.4123 -0.2517 0
M  V30 7 C 1.4846 -0.0209 1.7707 0
M  V30 8 N 0.6314 -0.6213 -1.6641 0
M  V30 9 C 1.8862 -0.1916 0.4624 0
M  V30 10 N 3.2243 -0.1312 -0.0306 0
M  V30 11 H -2.2152 2.2728 -1.2938 0
M  V30 12 H -2.1909 1.5275 0.8597 0
M  V30 13 H -3.4483 0.7182 -0.1582 0
M  V30 14 H -2.2572 -0.9618 1.1712 0
M  V30 15 H -1.8855 -1.2083 -0.5585 0
M  V30 16 H 2.1224 0.1803 2.6211 0
M  V30 17 H -0.2918 -0.7574 -2.1292 0
M  V30 18 H 1.4856 -0.6321 -2.2625 0
M  V30 19 H 3.4329 -0.2689 -1.0434 0
M  V30 20 H 4.0157 0.0522 0.6251 0
M  V30 END ATOM
M  V30 BEGIN BOND
M  V30 1 1 1 2
M  V30 2 1 2 3
M  V30 3 1 3 4
M  V30 4 1 4 5
M  V30 5 1 4 6
M  V30 6 2 5 7
M  V30 7 1 6 8
M  V30 8 2 6 9
M  V30 9 1 9 10
M  V30 10 1 7 9
M  V30 11 1 1 11
M  V30 12 1 2 12
M  V30 13 1 2 13
M  V30 14 1 3 14
M  V30 15 1 3 15
M  V30 16 1 7 16
M  V30 17 1 8 17
M  V30 18 1 8 18
M  V30 19 1 10 19
M  V30 20 1 10 20
M  V30 END BOND
M  V30 END CTAB
M  END
>  <Structure No>
230

>  <LogS>
0.444259344

>  <MMFF94 Energy>
34.37

$$$$
Compound 231
Actelion Java MolfileCreator 2.0

  0  0  0  0  0  0              0 V3000
M  V30 BEGIN CTAB
M  V30 COUNTS 18 18 0 0 0
M  V30 BEGIN ATOM
M  V30 1 S -2.6716 -0.8009 0.7119 0
M  V30 2 O -2.4666 -2.276 0.9133 0
M  V30 3 O -3.7852 -0.5989 -0.2768 0
M  V30 4 O -3.0868 -0.0881 2.1749 0 CHG=-1
M  V30 5 C -1.1903 -0.0696 0.1039 0
M  V30 6 C 0.057 -0.5842 0.4854 0
M  V30 7 C -1.2504 1.0426 -0.7468 0
M  V30 8 C 1.2393 0.0038 0.0136 0
M  V30 9 C -0.0733 1.6255 -1.2241 0
M  V30 10 S 2.8026 -0.656 0.4819 0
M  V30 11 C 1.1687 1.1064 -0.8488 0
M  V30 12 O 2.7184 -1.232 1.8676 0
M  V30 13 O 3.8401 0.4313 0.4736 0
M  V30 14 O 3.2468 -1.8613 -0.5998 0 CHG=-1
M  V30 15 H 0.1073 -1.4397 1.1472 0
M  V30 16 H -2.2058 1.4582 -1.0411 0
M  V30 17 H -0.1238 2.4807 -1.8857 0
M  V30 18 H 2.0725 1.5643 -1.2302 0
M  V30 END ATOM
M  V30 BEGIN BOND
M  V30 1 2 1 2
M  V30 2 2 1 3
M  V30 3 1 1 4
M  V30 4 1 1 5
M  V30 5 2 5 6
M  V30 6 1 5 7
M  V30 7 1 6 8
M  V30 8 2 7 9
M  V30 9 1 8 10
M  V30 10 2 8 11
M  V30 11 2 10 12
M  V30 12 2 10 13
M  V30 13 1 10 14
M  V30 14 1 9 11
M  V30 15 1 6 15
M  V30 16 1 7 16
M  V30 17 1 9 17
M  V30 18 1 11 18
M  V30 END BOND
M  V30 END CTAB
M  END
>  <Structure No>
231

>  <LogS>
0.370947285

>  <MMFF94 Energy>
112.18

$$$$
Compound 232
Actelion Java MolfileCreator 2.0

  0  0  0  0  0  0              0 V3000
M  V30 BEGIN CTAB
M  V30 COUNTS 24 23 0 0 0
M  V30 BEGIN ATOM
M  V30 1 O 2.3843 0.9224 -0.1536 0
M  V30 2 C 2.2382 -0.3428 0.457 0
M  V30 3 C 3.4638 1.6063 0.4412 0
M  V30 4 C 1.052 -1.0819 -0.1651 0
M  V30 5 C -0.2777 -0.3731 0.1278 0
M  V30 6 C -1.4556 -1.1375 -0.4945 0
M  V30 7 C -2.8168 -0.5287 -0.1236 0
M  V30 8 C -3.0682 0.8167 -0.8036 0
M  V30 9 H 3.1504 -0.9604 0.2909 0
M  V30 10 H 2.065 -0.2432 1.5538 0
M  V30 11 H 3.275 1.7936 1.5218 0
M  V30 12 H 3.5739 2.5923 -0.055 0
M  V30 13 H 4.4188 1.0519 0.3031 0
M  V30 14 H 1.2047 -1.1567 -1.2642 0
M  V30 15 H 1.0193 -2.1126 0.2509 0
M  V30 16 H -0.4221 -0.3043 1.2285 0
M  V30 17 H -0.24 0.655 -0.2902 0
M  V30 18 H -1.4381 -2.1866 -0.1257 0
M  V30 19 H -1.3455 -1.1676 -1.6009 0
M  V30 20 H -2.8956 -0.4097 0.9789 0
M  V30 21 H -3.6147 -1.2338 -0.4426 0
M  V30 22 H -2.9407 0.7267 -1.9033 0
M  V30 23 H -4.1078 1.1466 -0.5949 0
M  V30 24 H -2.3763 1.591 -0.4124 0
M  V30 END ATOM
M  V30 BEGIN BOND
M  V30 1 1 1 2
M  V30 2 1 1 3
M  V30 3 1 2 4
M  V30 4 1 4 5
M  V30 5 1 5 6
M  V30 6 1 6 7
M  V30 7 1 7 8
M  V30 8 1 2 9
M  V30 9 1 2 10
M  V30 10 1 3 11
M  V30 11 1 3 12
M  V30 12 1 3 13
M  V30 13 1 4 14
M  V30 14 1 4 15
M  V30 15 1 5 16
M  V30 16 1 5 17
M  V30 17 1 6 18
M  V30 18 1 6 19
M  V30 19 1 7 20
M  V30 20 1 7 21
M  V30 21 1 8 22
M  V30 22 1 8 23
M  V30 23 1 8 24
M  V30 END BOND
M  V30 END CTAB
M  END
>  <Structure No>
232

>  <LogS>
-2.245085326

>  <MMFF94 Energy>
4.6039

$$$$
Compound 233
Actelion Java MolfileCreator 2.0

  0  0  0  0  0  0              0 V3000
M  V30 BEGIN CTAB
M  V30 COUNTS 17 17 0 0 0
M  V30 BEGIN ATOM
M  V30 1 Cl -2.983 1.9595 0.0 0
M  V30 2 C -1.4419 1.1097 -0.0629 0
M  V30 3 C -1.3357 -0.2878 0.132 0
M  V30 4 C -0.2875 1.8762 -0.2538 0
M  V30 5 N -2.4949 -1.118 0.3356 0 CHG=1
M  V30 6 C -0.0584 -0.8781 0.1398 0
M  V30 7 C 0.9715 1.2756 -0.257 0
M  V30 8 O -3.5878 -0.8343 -0.1958 0
M  V30 9 O -2.3755 -2.319 0.9968 0 CHG=-1
M  V30 10 C 1.0975 -0.1102 -0.0804 0
M  V30 11 C 2.4609 -0.7539 -0.0294 0
M  V30 12 F 3.3678 -0.0462 -0.7995 0
M  V30 13 F 2.9042 -0.7776 1.2796 0
M  V30 14 F 2.4057 -2.0506 -0.5107 0
M  V30 15 H -0.3638 2.9482 -0.3861 0
M  V30 16 H 0.0345 -1.9442 0.305 0
M  V30 17 H 1.8478 1.8977 -0.3896 0
M  V30 END ATOM
M  V30 BEGIN BOND
M  V30 1 1 1 2
M  V30 2 2 2 3
M  V30 3 1 2 4
M  V30 4 1 3 5
M  V30 5 1 3 6
M  V30 6 2 4 7
M  V30 7 2 5 8
M  V30 8 1 5 9
M  V30 9 2 6 10
M  V30 10 1 10 11
M  V30 11 1 11 12
M  V30 12 1 11 13
M  V30 13 1 11 14
M  V30 14 1 7 10
M  V30 15 1 4 15
M  V30 16 1 6 16
M  V30 17 1 7 17
M  V30 END BOND
M  V30 END CTAB
M  END
>  <Structure No>
233

>  <LogS>
-2.533704672

>  <MMFF94 Energy>
62.881

$$$$
Compound 234
Actelion Java MolfileCreator 2.0

  0  0  0  0  0  0              0 V3000
M  V30 BEGIN CTAB
M  V30 COUNTS 57 60 0 0 0
M  V30 BEGIN ATOM
M  V30 1 F 1.3808 0.0811 -1.4621 0
M  V30 2 C 1.4927 -0.3171 -0.137 0 CFG=2
M  V30 3 C 3.051 -0.4142 0.1866 0 CFG=2
M  V30 4 C 0.7178 -1.6621 0.0263 0 CFG=2
M  V30 5 C 0.7908 0.7551 0.77 0 CFG=2
M  V30 6 C 3.6189 1.02 0.2105 0
M  V30 7 C 3.7688 -1.2925 -0.8476 0
M  V30 8 C 3.3346 -1.0666 1.5621 0
M  V30 9 O 1.2404 -2.6405 -0.8322 0
M  V30 10 C -0.7729 -1.4925 -0.321 0
M  V30 11 C -0.7445 0.8982 0.5469 0 CFG=2
M  V30 12 C 1.4819 2.1341 0.6991 0
M  V30 13 C 4.5978 1.4315 -0.6123 0
M  V30 14 C 2.9475 2.0313 1.1 0
M  V30 15 C 4.7372 -0.8574 -1.6536 0
M  V30 16 C -1.5325 -0.4331 0.5377 0 CFG=1
M  V30 17 C -1.1854 1.67 -0.7147 0
M  V30 18 C 5.1967 0.5234 -1.5849 0
M  V30 19 C -2.9016 -0.0148 -0.1221 0 CFG=2
M  V30 20 C -1.7352 -0.9794 1.9753 0
M  V30 21 C -2.4816 1.0082 -1.2159 0 CFG=1
M  V30 22 O 6.1067 0.9282 -2.355 0
M  V30 23 O -3.7417 0.6098 0.8336 0
M  V30 24 C -3.6898 -1.1818 -0.7338 0
M  V30 25 C -3.5712 2.0289 -1.5807 0
M  V30 26 O -3.2747 -1.7529 -1.7321 0
M  V30 27 C -5.0176 -1.6218 -0.1683 0
M  V30 28 O -4.8601 -2.1061 1.1363 0
M  V30 29 H 0.8037 -2.0108 1.0789 0
M  V30 30 H 0.892 0.4153 1.8227 0
M  V30 31 H 3.5556 -2.3503 -0.8874 0
M  V30 32 H 3.0578 -2.1422 1.5636 0
M  V30 33 H 4.4202 -1.0065 1.7948 0
M  V30 34 H 2.7887 -0.5756 2.3902 0
M  V30 35 H 0.9809 -3.5244 -0.4609 0
M  V30 36 H -0.8279 -1.2266 -1.3976 0
M  V30 37 H -1.2704 -2.4811 -0.2074 0
M  V30 38 H -1.1064 1.4997 1.4128 0
M  V30 39 H 1.4186 2.5518 -0.3288 0
M  V30 40 H 0.9761 2.8453 1.3884 0
M  V30 41 H 4.9438 2.4584 -0.5896 0
M  V30 42 H 3.4138 3.0379 1.0173 0
M  V30 43 H 3.033 1.7228 2.1629 0
M  V30 44 H 5.2134 -1.5455 -2.3415 0
M  V30 45 H -0.4232 1.631 -1.518 0
M  V30 46 H -1.3426 2.7418 -0.4588 0
M  V30 47 H -2.2681 -0.2518 2.6219 0
M  V30 48 H -2.3212 -1.9207 1.952 0
M  V30 49 H -0.7667 -1.1913 2.4698 0
M  V30 50 H -2.2299 0.4682 -2.1561 0
M  V30 51 H -3.3124 1.4373 1.169 0
M  V30 52 H -3.7979 2.7071 -0.7315 0
M  V30 53 H -3.2304 2.6485 -2.4373 0
M  V30 54 H -4.5009 1.5001 -1.8793 0
M  V30 55 H -5.4796 -2.4043 -0.8134 0
M  V30 56 H -5.715 -0.7583 -0.1534 0
M  V30 57 H -4.4552 -3.009 1.0554 0
M  V30 END ATOM
M  V30 BEGIN BOND
M  V30 1 1 1 2
M  V30 2 1 2 3
M  V30 3 1 2 4
M  V30 4 1 2 5
M  V30 5 1 3 6
M  V30 6 1 3 7
M  V30 7 1 3 8
M  V30 8 1 4 9
M  V30 9 1 4 10
M  V30 10 1 5 11
M  V30 11 1 5 12
M  V30 12 2 6 13
M  V30 13 1 6 14
M  V30 14 2 7 15
M  V30 15 1 10 16
M  V30 16 1 11 17
M  V30 17 1 13 18
M  V30 18 1 16 19
M  V30 19 1 16 20
M  V30 20 1 17 21
M  V30 21 2 18 22
M  V30 22 1 19 23
M  V30 23 1 19 24
M  V30 24 1 21 25
M  V30 25 2 24 26
M  V30 26 1 24 27
M  V30 27 1 27 28
M  V30 28 1 11 16
M  V30 29 1 12 14
M  V30 30 1 15 18
M  V30 31 1 19 21
M  V30 32 1 4 29
M  V30 33 1 5 30
M  V30 34 1 7 31
M  V30 35 1 8 32
M  V30 36 1 8 33
M  V30 37 1 8 34
M  V30 38 1 9 35
M  V30 39 1 10 36
M  V30 40 1 10 37
M  V30 41 1 11 38
M  V30 42 1 12 39
M  V30 43 1 12 40
M  V30 44 1 13 41
M  V30 45 1 14 42
M  V30 46 1 14 43
M  V30 47 1 15 44
M  V30 48 1 17 45
M  V30 49 1 17 46
M  V30 50 1 20 47
M  V30 51 1 20 48
M  V30 52 1 20 49
M  V30 53 1 21 50
M  V30 54 1 23 51
M  V30 55 1 25 52
M  V30 56 1 25 53
M  V30 57 1 25 54
M  V30 58 1 27 55
M  V30 59 1 27 56
M  V30 60 1 28 57
M  V30 END BOND
M  V30 BEGIN COLLECTION
M  V30 MDLV30/STEABS ATOMS=(8 2 3 4 5 11 16 19 21)
M  V30 END COLLECTION
M  V30 END CTAB
M  END
>  <Structure No>
234

>  <LogS>
-3.7709815

>  <MMFF94 Energy>
168.66

$$$$
Compound 235
Actelion Java MolfileCreator 2.0

  0  0  0  0  0  0              0 V3000
M  V30 BEGIN CTAB
M  V30 COUNTS 32 32 0 0 0
M  V30 BEGIN ATOM
M  V30 1 O -1.7281 0.2355 -2.7503 0
M  V30 2 C -2.8432 -0.046 -2.3416 0
M  V30 3 C -3.0408 -1.1782 -1.3733 0
M  V30 4 C -2.6585 -0.8245 0.0801 0 CFG=1
M  V30 5 C -1.1684 -0.552 0.2293 0
M  V30 6 C -3.5437 0.2939 0.6562 0
M  V30 7 C -0.6219 0.7339 0.0549 0
M  V30 8 C -0.2986 -1.6244 0.49 0
M  V30 9 C 0.755 0.9423 0.1665 0
M  V30 10 C 1.0784 -1.4157 0.6021 0
M  V30 11 C 1.6208 -0.1301 0.445 0
M  V30 12 C 3.1183 0.0819 0.5653 0
M  V30 13 C 3.7121 0.5852 -0.7555 0
M  V30 14 C 3.4514 1.0355 1.7189 0
M  V30 15 H -3.7019 0.5084 -2.7061 0
M  V30 16 H -2.4513 -2.0571 -1.7144 0
M  V30 17 H -4.1111 -1.4773 -1.3984 0
M  V30 18 H -2.8942 -1.7252 0.6911 0
M  V30 19 H -3.503 1.2122 0.0347 0
M  V30 20 H -3.2217 0.5418 1.6903 0
M  V30 21 H -4.6008 -0.0458 0.6958 0
M  V30 22 H -1.2523 1.5805 -0.1776 0
M  V30 23 H -0.6872 -2.6286 0.6059 0
M  V30 24 H 1.1441 1.9428 0.0297 0
M  V30 25 H 1.7209 -2.2627 0.8081 0
M  V30 26 H 3.6123 -0.8888 0.7946 0
M  V30 27 H 3.3223 1.593 -1.0122 0
M  V30 28 H 3.4603 -0.1175 -1.5783 0
M  V30 29 H 4.8186 0.6445 -0.6765 0
M  V30 30 H 3.0594 2.056 1.5221 0
M  V30 31 H 3.0092 0.657 2.6654 0
M  V30 32 H 4.5523 1.1006 1.8521 0
M  V30 END ATOM
M  V30 BEGIN BOND
M  V30 1 2 1 2
M  V30 2 1 2 3
M  V30 3 1 3 4
M  V30 4 1 4 5
M  V30 5 1 4 6
M  V30 6 2 5 7
M  V30 7 1 5 8
M  V30 8 1 7 9
M  V30 9 2 8 10
M  V30 10 2 9 11
M  V30 11 1 11 12
M  V30 12 1 12 13
M  V30 13 1 12 14
M  V30 14 1 10 11
M  V30 15 1 2 15
M  V30 16 1 3 16
M  V30 17 1 3 17
M  V30 18 1 4 18
M  V30 19 1 6 19
M  V30 20 1 6 20
M  V30 21 1 6 21
M  V30 22 1 7 22
M  V30 23 1 8 23
M  V30 24 1 9 24
M  V30 25 1 10 25
M  V30 26 1 12 26
M  V30 27 1 13 27
M  V30 28 1 13 28
M  V30 29 1 13 29
M  V30 30 1 14 30
M  V30 31 1 14 31
M  V30 32 1 14 32
M  V30 END BOND
M  V30 BEGIN COLLECTION
M  V30 MDLV30/STEABS ATOMS=(1 4)
M  V30 END COLLECTION
M  V30 END CTAB
M  END
>  <Structure No>
235

>  <LogS>
-3.459862901

>  <MMFF94 Energy>
28.005

$$$$
Compound 236
Actelion Java MolfileCreator 2.0

  0  0  0  0  0  0              0 V3000
M  V30 BEGIN CTAB
M  V30 COUNTS 29 29 0 0 0
M  V30 BEGIN ATOM
M  V30 1 O -2.5138 0.0 -1.8849 0
M  V30 2 C -1.4833 0.7106 -1.2512 0
M  V30 3 C -1.1623 0.0964 0.1362 0 CFG=1
M  V30 4 C -0.6503 -1.3658 -0.0122 0 CFG=1
M  V30 5 C -0.1346 0.932 0.9485 0 CFG=1
M  V30 6 C 0.8134 -1.4357 -0.3938 0
M  V30 7 C -0.8861 -2.1912 1.2608 0
M  V30 8 C 1.2418 0.9485 0.2607 0
M  V30 9 C -0.6177 2.3593 1.2491 0
M  V30 10 C 1.6855 -0.4222 -0.2061 0
M  V30 11 C 3.1258 -0.6228 -0.5911 0
M  V30 12 H -3.3563 0.2433 -1.4191 0
M  V30 13 H -0.586 0.6771 -1.9036 0
M  V30 14 H -1.7866 1.7753 -1.1562 0
M  V30 15 H -2.1167 0.0825 0.7098 0
M  V30 16 H -1.2257 -1.8724 -0.8174 0
M  V30 17 H -0.0055 0.4436 1.9387 0
M  V30 18 H 1.1838 -2.389 -0.763 0
M  V30 19 H -0.6172 -3.2536 1.0777 0
M  V30 20 H -1.9577 -2.1566 1.5511 0
M  V30 21 H -0.2702 -1.8197 2.1059 0
M  V30 22 H 1.9922 1.3488 0.9772 0
M  V30 23 H 1.224 1.6277 -0.6187 0
M  V30 24 H -0.6007 2.9963 0.3406 0
M  V30 25 H -1.6485 2.3393 1.6626 0
M  V30 26 H 0.048 2.828 2.0049 0
M  V30 27 H 3.5727 -1.424 0.0344 0
M  V30 28 H 3.1946 -0.9126 -1.6611 0
M  V30 29 H 3.7122 0.3086 -0.443 0
M  V30 END ATOM
M  V30 BEGIN BOND
M  V30 1 1 1 2
M  V30 2 1 2 3
M  V30 3 1 3 4
M  V30 4 1 3 5
M  V30 5 1 4 6
M  V30 6 1 4 7
M  V30 7 1 5 8
M  V30 8 1 5 9
M  V30 9 2 6 10
M  V30 10 1 10 11
M  V30 11 1 8 10
M  V30 12 1 1 12
M  V30 13 1 2 13
M  V30 14 1 2 14
M  V30 15 1 3 15
M  V30 16 1 4 16
M  V30 17 1 5 17
M  V30 18 1 6 18
M  V30 19 1 7 19
M  V30 20 1 7 20
M  V30 21 1 7 21
M  V30 22 1 8 22
M  V30 23 1 8 23
M  V30 24 1 9 24
M  V30 25 1 9 25
M  V30 26 1 9 26
M  V30 27 1 11 27
M  V30 28 1 11 28
M  V30 29 1 11 29
M  V30 END BOND
M  V30 BEGIN COLLECTION
M  V30 MDLV30/STEABS ATOMS=(3 3 4 5)
M  V30 END COLLECTION
M  V30 END CTAB
M  END
>  <Structure No>
236

>  <LogS>
-2.371197393

>  <MMFF94 Energy>
23.878

$$$$
Compound 237
Actelion Java MolfileCreator 2.0

  0  0  0  0  0  0              0 V3000
M  V30 BEGIN CTAB
M  V30 COUNTS 32 31 0 0 0
M  V30 BEGIN ATOM
M  V30 1 O 2.0101 -1.0046 -1.3139 0
M  V30 2 C 2.14 -0.7698 0.0707 0 CFG=1
M  V30 3 C 3.1224 0.3629 0.3476 0
M  V30 4 C 0.7486 -0.4593 0.6884 0
M  V30 5 C 2.6821 -2.0563 0.7154 0
M  V30 6 C 4.327 0.4186 -0.232 0
M  V30 7 C 0.0351 0.7479 0.0547 0
M  V30 8 C -1.2555 1.0295 0.7882 0
M  V30 9 C -2.5007 0.9484 0.2619 0
M  V30 10 C -2.7735 0.5729 -1.1826 0
M  V30 11 C -3.6694 1.2622 1.1623 0
M  V30 12 C -2.6629 -0.9343 -1.3983 0
M  V30 13 H 1.9305 -0.1298 -1.7769 0
M  V30 14 H 2.8485 1.1577 1.0361 0
M  V30 15 H 0.0917 -1.3497 0.5728 0
M  V30 16 H 0.8682 -0.2788 1.7809 0
M  V30 17 H 1.9818 -2.9019 0.543 0
M  V30 18 H 3.6626 -2.3342 0.2728 0
M  V30 19 H 2.8137 -1.9228 1.8114 0
M  V30 20 H 4.999 1.241 -0.0091 0
M  V30 21 H 4.6492 -0.3471 -0.9304 0
M  V30 22 H 0.6727 1.6523 0.137 0
M  V30 23 H -0.1286 0.5601 -1.022 0
M  V30 24 H -1.1546 1.3122 1.8339 0
M  V30 25 H -3.8015 0.883 -1.4684 0
M  V30 26 H -2.0953 1.1195 -1.8706 0
M  V30 27 H -4.6393 1.1324 0.6383 0
M  V30 28 H -3.6604 0.5814 2.04 0
M  V30 29 H -3.5997 2.3127 1.5162 0
M  V30 30 H -2.9152 -1.1771 -2.4519 0
M  V30 31 H -1.6338 -1.2925 -1.1945 0
M  V30 32 H -3.3724 -1.4691 -0.7313 0
M  V30 END ATOM
M  V30 BEGIN BOND
M  V30 1 1 1 2
M  V30 2 1 2 3
M  V30 3 1 2 4
M  V30 4 1 2 5
M  V30 5 2 3 6
M  V30 6 1 4 7
M  V30 7 1 7 8
M  V30 8 2 8 9
M  V30 9 1 9 10
M  V30 10 1 9 11
M  V30 11 1 10 12
M  V30 12 1 1 13
M  V30 13 1 3 14
M  V30 14 1 4 15
M  V30 15 1 4 16
M  V30 16 1 5 17
M  V30 17 1 5 18
M  V30 18 1 5 19
M  V30 19 1 6 20
M  V30 20 1 6 21
M  V30 21 1 7 22
M  V30 22 1 7 23
M  V30 23 1 8 24
M  V30 24 1 10 25
M  V30 25 1 10 26
M  V30 26 1 11 27
M  V30 27 1 11 28
M  V30 28 1 11 29
M  V30 29 1 12 30
M  V30 30 1 12 31
M  V30 31 1 12 32
M  V30 END BOND
M  V30 BEGIN COLLECTION
M  V30 MDLV30/STEABS ATOMS=(1 2)
M  V30 END COLLECTION
M  V30 END CTAB
M  END
>  <Structure No>
237

>  <LogS>
-2.409128664

>  <MMFF94 Energy>
17.737

$$$$
Compound 238
Actelion Java MolfileCreator 2.0

  0  0  0  0  0  0              0 V3000
M  V30 BEGIN CTAB
M  V30 COUNTS 45 48 0 0 0
M  V30 BEGIN ATOM
M  V30 1 O -0.4885 -2.3629 0.2442 0
M  V30 2 C -0.8533 -1.158 0.3312 0
M  V30 3 O -2.1413 -0.8415 0.7824 0
M  V30 4 C 0.1029 -0.0721 0.0118 0
M  V30 5 C -3.1392 -1.8176 1.0676 0
M  V30 6 C -0.3233 1.1786 -0.5022 0
M  V30 7 C 1.466 -0.2661 0.3017 0
M  V30 8 C -3.7199 -2.3726 -0.2331 0 CFG=1
M  V30 9 C -1.7085 1.4171 -0.9517 0
M  V30 10 C 0.6076 2.2177 -0.645 0
M  V30 11 C 2.3981 0.7706 0.1305 0
M  V30 12 O -3.1102 -3.5813 -0.6188 0
M  V30 13 C -4.4294 -3.6663 -0.1274 0
M  V30 14 O -2.311 0.5392 -1.6287 0
M  V30 15 O -2.3363 2.6296 -0.6448 0
M  V30 16 C 1.9525 2.0174 -0.3339 0
M  V30 17 C 3.8268 0.5518 0.4498 0
M  V30 18 C -3.7064 2.8934 -0.9376 0
M  V30 19 O 4.659 1.489 0.3019 0
M  V30 20 O 4.2523 -0.6967 0.9213 0
M  V30 21 C -4.6121 1.9941 -0.0916 0 CFG=2
M  V30 22 C 5.6144 -1.0072 1.2035 0
M  V30 23 O -5.7882 2.6535 0.3128 0
M  V30 24 C -4.8223 2.4108 1.3118 0
M  V30 25 C 6.3933 -1.1961 -0.0987 0 CFG=1
M  V30 26 O 7.1243 -0.0475 -0.4572 0
M  V30 27 C 7.8675 -1.1489 0.0153 0
M  V30 28 H -3.9598 -1.3231 1.6279 0
M  V30 29 H -2.7164 -2.6178 1.7157 0
M  V30 30 H 1.795 -1.2212 0.6933 0
M  V30 31 H -3.9692 -1.7165 -1.0934 0
M  V30 32 H 0.2977 3.182 -1.0303 0
M  V30 33 H -4.4573 -4.1631 0.8655 0
M  V30 34 H -5.1462 -3.8992 -0.9419 0
M  V30 35 H 2.6461 2.8379 -0.4698 0
M  V30 36 H -3.9112 3.9673 -0.7352 0
M  V30 37 H -3.9058 2.7104 -2.0151 0
M  V30 38 H -4.7837 0.9272 -0.3473 0
M  V30 39 H 6.0599 -0.2164 1.8481 0
M  V30 40 H 5.645 -1.9628 1.7669 0
M  V30 41 H -5.1563 1.6162 2.0109 0
M  V30 42 H -4.3426 3.3546 1.6478 0
M  V30 43 H 5.9587 -1.7256 -0.9726 0
M  V30 44 H 8.3035 -0.94 1.0154 0
M  V30 45 H 8.4378 -1.6297 -0.8062 0
M  V30 END ATOM
M  V30 BEGIN BOND
M  V30 1 2 1 2
M  V30 2 1 2 3
M  V30 3 1 2 4
M  V30 4 1 3 5
M  V30 5 2 4 6
M  V30 6 1 4 7
M  V30 7 1 5 8
M  V30 8 1 6 9
M  V30 9 1 6 10
M  V30 10 2 7 11
M  V30 11 1 8 12
M  V30 12 1 8 13
M  V30 13 2 9 14
M  V30 14 1 9 15
M  V30 15 2 10 16
M  V30 16 1 11 17
M  V30 17 1 15 18
M  V30 18 2 17 19
M  V30 19 1 17 20
M  V30 20 1 18 21
M  V30 21 1 20 22
M  V30 22 1 21 23
M  V30 23 1 21 24
M  V30 24 1 22 25
M  V30 25 1 25 26
M  V30 26 1 25 27
M  V30 27 1 11 16
M  V30 28 1 12 13
M  V30 29 1 23 24
M  V30 30 1 26 27
M  V30 31 1 5 28
M  V30 32 1 5 29
M  V30 33 1 7 30
M  V30 34 1 8 31
M  V30 35 1 10 32
M  V30 36 1 13 33
M  V30 37 1 13 34
M  V30 38 1 16 35
M  V30 39 1 18 36
M  V30 40 1 18 37
M  V30 41 1 21 38
M  V30 42 1 22 39
M  V30 43 1 22 40
M  V30 44 1 24 41
M  V30 45 1 24 42
M  V30 46 1 25 43
M  V30 47 1 27 44
M  V30 48 1 27 45
M  V30 END BOND
M  V30 BEGIN COLLECTION
M  V30 MDLV30/STEABS ATOMS=(3 8 21 25)
M  V30 END COLLECTION
M  V30 END CTAB
M  END
>  <Structure No>
238

>  <LogS>
-2.762296476

>  <MMFF94 Energy>
47.337

$$$$
Compound 239
Actelion Java MolfileCreator 2.0

  0  0  0  0  0  0              0 V3000
M  V30 BEGIN CTAB
M  V30 COUNTS 29 30 0 0 0
M  V30 BEGIN ATOM
M  V30 1 O -2.3029 0.238 -1.27 0
M  V30 2 C -2.5446 -0.1554 0.0645 0 CFG=1
M  V30 3 C -0.9087 0.3065 -1.4517 0
M  V30 4 C -1.2214 -0.5117 0.7468 0
M  V30 5 C -3.2953 0.9546 0.8012 0
M  V30 6 C -0.2295 -0.586 -0.4055 0 CFG=2
M  V30 7 C 1.1637 -0.047 -0.0085 0
M  V30 8 C -0.1958 -2.0405 -0.9461 0
M  V30 9 C 2.3414 -0.8252 -0.1266 0
M  V30 10 C 1.2962 1.269 0.4957 0
M  V30 11 C 3.5859 -0.3051 0.2415 0
M  V30 12 C 2.544 1.7803 0.8612 0
M  V30 13 C 3.6876 0.9947 0.734 0
M  V30 14 H -3.1923 -1.0596 0.0442 0
M  V30 15 H -0.6051 1.3707 -1.3641 0
M  V30 16 H -0.6541 -0.0106 -2.4862 0
M  V30 17 H -0.9409 0.2632 1.4923 0
M  V30 18 H -1.3046 -1.4732 1.3014 0
M  V30 19 H -3.5039 0.6459 1.8478 0
M  V30 20 H -2.694 1.8891 0.8083 0
M  V30 21 H -4.2615 1.1564 0.2921 0
M  V30 22 H 0.192 -2.7388 -0.1734 0
M  V30 23 H 0.4415 -2.1089 -1.8538 0
M  V30 24 H -1.2147 -2.385 -1.2278 0
M  V30 25 H 2.3235 -1.8377 -0.5005 0
M  V30 26 H 0.4315 1.9094 0.6125 0
M  V30 27 H 4.4754 -0.9143 0.1441 0
M  V30 28 H 2.623 2.7895 1.245 0
M  V30 29 H 4.6531 1.3929 1.0178 0
M  V30 END ATOM
M  V30 BEGIN BOND
M  V30 1 1 1 2
M  V30 2 1 1 3
M  V30 3 1 2 4
M  V30 4 1 2 5
M  V30 5 1 3 6
M  V30 6 1 6 7
M  V30 7 1 6 8
M  V30 8 2 7 9
M  V30 9 1 7 10
M  V30 10 1 9 11
M  V30 11 2 10 12
M  V30 12 2 11 13
M  V30 13 1 4 6
M  V30 14 1 12 13
M  V30 15 1 2 14
M  V30 16 1 3 15
M  V30 17 1 3 16
M  V30 18 1 4 17
M  V30 19 1 4 18
M  V30 20 1 5 19
M  V30 21 1 5 20
M  V30 22 1 5 21
M  V30 23 1 8 22
M  V30 24 1 8 23
M  V30 25 1 8 24
M  V30 26 1 9 25
M  V30 27 1 10 26
M  V30 28 1 11 27
M  V30 29 1 12 28
M  V30 30 1 13 29
M  V30 END BOND
M  V30 BEGIN COLLECTION
M  V30 MDLV30/STEABS ATOMS=(2 2 6)
M  V30 END COLLECTION
M  V30 END CTAB
M  END
>  <Structure No>
239

>  <LogS>
-2.433237945

>  <MMFF94 Energy>
48.523

$$$$
Compound 240
Actelion Java MolfileCreator 2.0

  0  0  0  0  0  0              0 V3000
M  V30 BEGIN CTAB
M  V30 COUNTS 32 31 0 0 0
M  V30 BEGIN ATOM
M  V30 1 O -2.1787 0.0 1.7894 0
M  V30 2 C -1.5227 0.144 0.7214 0
M  V30 3 O -1.7072 -0.7395 -0.3497 0
M  V30 4 C -0.4957 1.2422 0.6256 0 CFG=1
M  V30 5 C -2.6759 -1.7855 -0.3479 0
M  V30 6 C 0.8818 0.7475 1.1306 0
M  V30 7 C -0.4763 1.8491 -0.7971 0
M  V30 8 C -4.0744 -1.2227 -0.5725 0
M  V30 9 C 1.5416 -0.3178 0.2375 0
M  V30 10 C 0.4377 3.0692 -0.9126 0
M  V30 11 C 2.8524 -0.8147 0.858 0
M  V30 12 C 3.5178 -1.8655 -0.0258 0
M  V30 13 H -0.8205 2.0516 1.318 0
M  V30 14 H -2.4375 -2.4888 -1.1732 0
M  V30 15 H -2.635 -2.3501 0.6088 0
M  V30 16 H 1.5686 1.615 1.2332 0
M  V30 17 H 0.7505 0.3303 2.1539 0
M  V30 18 H -0.1734 1.0914 -1.5504 0
M  V30 19 H -1.5081 2.1731 -1.058 0
M  V30 20 H -4.8076 -2.0547 -0.6251 0
M  V30 21 H -4.105 -0.6546 -1.5263 0
M  V30 22 H -4.3595 -0.5487 0.2619 0
M  V30 23 H 0.8542 -1.1809 0.1093 0
M  V30 24 H 1.7633 0.1146 -0.761 0
M  V30 25 H 1.5027 2.7714 -0.8207 0
M  V30 26 H 0.298 3.542 -1.9076 0
M  V30 27 H 0.1914 3.8164 -0.1287 0
M  V30 28 H 2.6498 -1.2615 1.8558 0
M  V30 29 H 3.5521 0.0393 0.99 0
M  V30 30 H 3.7559 -1.4368 -1.0225 0
M  V30 31 H 4.462 -2.2064 0.4487 0
M  V30 32 H 2.8478 -2.7423 -0.1539 0
M  V30 END ATOM
M  V30 BEGIN BOND
M  V30 1 2 1 2
M  V30 2 1 2 3
M  V30 3 1 2 4
M  V30 4 1 3 5
M  V30 5 1 4 6
M  V30 6 1 4 7
M  V30 7 1 5 8
M  V30 8 1 6 9
M  V30 9 1 7 10
M  V30 10 1 9 11
M  V30 11 1 11 12
M  V30 12 1 4 13
M  V30 13 1 5 14
M  V30 14 1 5 15
M  V30 15 1 6 16
M  V30 16 1 6 17
M  V30 17 1 7 18
M  V30 18 1 7 19
M  V30 19 1 8 20
M  V30 20 1 8 21
M  V30 21 1 8 22
M  V30 22 1 9 23
M  V30 23 1 9 24
M  V30 24 1 10 25
M  V30 25 1 10 26
M  V30 26 1 10 27
M  V30 27 1 11 28
M  V30 28 1 11 29
M  V30 29 1 12 30
M  V30 30 1 12 31
M  V30 31 1 12 32
M  V30 END BOND
M  V30 BEGIN COLLECTION
M  V30 MDLV30/STEABS ATOMS=(1 4)
M  V30 END COLLECTION
M  V30 END CTAB
M  END
>  <Structure No>
240

>  <LogS>
-3.423291255

>  <MMFF94 Energy>
-8.1947

$$$$
Compound 241
Actelion Java MolfileCreator 2.0

  0  0  0  0  0  0              0 V3000
M  V30 BEGIN CTAB
M  V30 COUNTS 18 19 0 0 0
M  V30 BEGIN ATOM
M  V30 1 O -1.9949 2.1546 0.0 0
M  V30 2 C -1.4836 0.8593 0.0877 0
M  V30 3 C -0.1119 0.6237 0.299 0
M  V30 4 C -2.3605 -0.2246 -0.038 0
M  V30 5 N 0.7593 1.663 0.4244 0
M  V30 6 C 0.3683 -0.7047 0.3822 0
M  V30 7 C -1.8834 -1.5361 0.0445 0
M  V30 8 C 2.0888 1.4653 0.629 0
M  V30 9 C 1.7367 -0.9206 0.5928 0
M  V30 10 C -0.5235 -1.7789 0.254 0
M  V30 11 C 2.6005 0.169 0.7168 0
M  V30 12 H -1.407 2.9753 0.0838 0
M  V30 13 H -3.4165 -0.0493 -0.2006 0
M  V30 14 H -2.5704 -2.3667 -0.0542 0
M  V30 15 H 2.75 2.3163 0.7237 0
M  V30 16 H 2.1351 -1.9259 0.6612 0
M  V30 17 H -0.1702 -2.8013 0.3156 0
M  V30 18 H 3.6587 0.0104 0.8797 0
M  V30 END ATOM
M  V30 BEGIN BOND
M  V30 1 1 1 2
M  V30 2 1 2 3
M  V30 3 2 2 4
M  V30 4 2 3 5
M  V30 5 1 3 6
M  V30 6 1 4 7
M  V30 7 1 5 8
M  V30 8 2 6 9
M  V30 9 1 6 10
M  V30 10 2 8 11
M  V30 11 2 7 10
M  V30 12 1 9 11
M  V30 13 1 1 12
M  V30 14 1 4 13
M  V30 15 1 7 14
M  V30 16 1 8 15
M  V30 17 1 9 16
M  V30 18 1 10 17
M  V30 19 1 11 18
M  V30 END BOND
M  V30 END CTAB
M  END
>  <Structure No>
241

>  <LogS>
-2.349605255

>  <MMFF94 Energy>
54.094

$$$$
Compound 242
Actelion Java MolfileCreator 2.0

  0  0  0  0  0  0              0 V3000
M  V30 BEGIN CTAB
M  V30 COUNTS 81 85 0 0 0
M  V30 BEGIN ATOM
M  V30 1 Cl 2.2958 -3.147 -3.4025 0
M  V30 2 C 2.7383 -1.8442 -2.3192 0
M  V30 3 N 4.0454 -1.5789 -2.0769 0
M  V30 4 N 1.773 -1.105 -1.7163 0
M  V30 5 C 4.3908 -0.5676 -1.2388 0
M  V30 6 C 2.1101 -0.0863 -0.8798 0
M  V30 7 N 3.4216 0.1663 -0.6314 0
M  V30 8 N 5.7716 -0.3225 -0.9368 0
M  V30 9 N 1.1019 0.6907 -0.2124 0
M  V30 10 C 6.2104 -0.4844 0.4288 0
M  V30 11 C 6.6374 0.3184 -1.9401 0
M  V30 12 C -0.315 0.5478 -0.4239 0
M  V30 13 C 7.0273 0.4796 1.0512 0
M  V30 14 C 5.8221 -1.6222 1.1586 0
M  V30 15 C 6.637 -0.4346 -3.2693 0
M  V30 16 C -1.1866 0.7227 0.6604 0
M  V30 17 C -0.8528 0.293 -1.6992 0
M  V30 18 C 7.4712 0.2934 2.369 0
M  V30 19 C 6.2581 -1.8044 2.4731 0
M  V30 20 C -2.5741 0.5945 0.4936 0
M  V30 21 C -2.2328 0.1548 -1.8714 0
M  V30 22 S 8.5632 1.4592 3.1144 0
M  V30 23 C 7.0873 -0.8542 3.0751 0
M  V30 24 C -3.102 0.297 -0.7766 0
M  V30 25 C -3.4697 0.7521 1.6601 0
M  V30 26 O 8.4951 2.7691 2.3798 0
M  V30 27 O 8.1413 1.6875 4.5376 0
M  V30 28 C 10.2439 0.8452 3.0918 0
M  V30 29 C -4.5638 0.133 -0.9327 0
M  V30 30 C -4.8054 0.6664 1.5512 0
M  V30 31 C 10.759 0.6482 1.6669 0
M  V30 32 O -5.028 -0.3167 -2.0138 0
M  V30 33 C -5.4468 0.4264 0.2309 0
M  V30 34 S -5.8129 0.8774 2.9888 0
M  V30 35 O 10.058 -0.4069 1.0539 0
M  V30 36 N -6.7509 0.4559 0.1641 0
M  V30 37 O -4.9661 0.9844 4.2249 0
M  V30 38 O -6.7309 -0.3021 3.1313 0
M  V30 39 O -6.7204 2.2817 2.8324 0 CHG=-1
M  V30 40 S 10.6209 -0.5824 -0.5336 0
M  V30 41 N -7.5333 0.3592 -1.0015 0
M  V30 42 O 10.4771 0.7079 -1.2928 0
M  V30 43 O 12.0628 -1.0098 -0.5283 0
M  V30 44 O 9.7035 -1.7621 -1.2996 0 CHG=-1
M  V30 45 C -8.9393 0.0648 -0.9001 0
M  V30 46 C -9.8457 0.3991 -1.9352 0
M  V30 47 C -9.4264 -0.5933 0.2435 0
M  V30 48 S -9.3315 1.2773 -3.3825 0
M  V30 49 C -11.1985 0.0415 -1.8103 0
M  V30 50 C -10.7757 -0.9217 0.3631 0
M  V30 51 O -10.5313 1.7749 -4.1429 0
M  V30 52 O -8.5329 0.3626 -4.2714 0
M  V30 53 O -8.3988 2.6061 -2.9441 0 CHG=-1
M  V30 54 C -11.6729 -0.6127 -0.6703 0
M  V30 55 O -13.0369 -0.9325 -0.6016 0
M  V30 56 C -13.6728 -1.5226 0.5273 0
M  V30 57 H 1.4184 1.3204 0.559 0
M  V30 58 H 7.6889 0.3464 -1.5784 0
M  V30 59 H 6.3035 1.3658 -2.1037 0
M  V30 60 H 7.3253 1.369 0.5114 0
M  V30 61 H 5.1939 -2.3757 0.7003 0
M  V30 62 H 5.6567 -0.3236 -3.778 0
M  V30 63 H 6.8537 -1.5112 -3.0974 0
M  V30 64 H 7.4249 -0.0137 -3.9343 0
M  V30 65 H -0.7765 0.9409 1.6395 0
M  V30 66 H -0.2131 0.2215 -2.5671 0
M  V30 67 H 5.9615 -2.6896 3.0225 0
M  V30 68 H -2.6187 -0.055 -2.8616 0
M  V30 69 H 7.4332 -1.0157 4.0884 0
M  V30 70 H -3.0203 0.9465 2.628 0
M  V30 71 H 10.8933 1.5783 3.6143 0
M  V30 72 H 10.2902 -0.1184 3.6429 0
M  V30 73 H 10.6324 1.6001 1.1054 0
M  V30 74 H 11.8419 0.4024 1.7247 0
M  V30 75 H -7.1365 0.6528 -1.9164 0
M  V30 76 H -8.7542 -0.875 1.0428 0
M  V30 77 H -11.9018 0.2851 -2.5974 0
M  V30 78 H -11.1105 -1.4282 1.2587 0
M  V30 79 H -13.5581 -0.8648 1.4144 0
M  V30 80 H -13.2428 -2.5251 0.7273 0
M  V30 81 H -14.7573 -1.6349 0.3159 0
M  V30 END ATOM
M  V30 BEGIN BOND
M  V30 1 1 1 2
M  V30 2 2 2 3
M  V30 3 1 2 4
M  V30 4 1 3 5
M  V30 5 2 4 6
M  V30 6 2 5 7
M  V30 7 1 5 8
M  V30 8 1 6 9
M  V30 9 1 8 10
M  V30 10 1 8 11
M  V30 11 1 9 12
M  V30 12 2 10 13
M  V30 13 1 10 14
M  V30 14 1 11 15
M  V30 15 2 12 16
M  V30 16 1 12 17
M  V30 17 1 13 18
M  V30 18 2 14 19
M  V30 19 1 16 20
M  V30 20 2 17 21
M  V30 21 1 18 22
M  V30 22 2 18 23
M  V30 23 2 20 24
M  V30 24 1 20 25
M  V30 25 2 22 26
M  V30 26 2 22 27
M  V30 27 1 22 28
M  V30 28 1 24 29
M  V30 29 2 25 30
M  V30 30 1 28 31
M  V30 31 2 29 32
M  V30 32 1 29 33
M  V30 33 1 30 34
M  V30 34 1 31 35
M  V30 35 2 33 36
M  V30 36 2 34 37
M  V30 37 2 34 38
M  V30 38 1 34 39
M  V30 39 1 35 40
M  V30 40 1 36 41
M  V30 41 2 40 42
M  V30 42 2 40 43
M  V30 43 1 40 44
M  V30 44 1 41 45
M  V30 45 2 45 46
M  V30 46 1 45 47
M  V30 47 1 46 48
M  V30 48 1 46 49
M  V30 49 2 47 50
M  V30 50 2 48 51
M  V30 51 2 48 52
M  V30 52 1 48 53
M  V30 53 2 49 54
M  V30 54 1 54 55
M  V30 55 1 55 56
M  V30 56 1 6 7
M  V30 57 1 19 23
M  V30 58 1 21 24
M  V30 59 1 30 33
M  V30 60 1 50 54
M  V30 61 1 9 57
M  V30 62 1 11 58
M  V30 63 1 11 59
M  V30 64 1 13 60
M  V30 65 1 14 61
M  V30 66 1 15 62
M  V30 67 1 15 63
M  V30 68 1 15 64
M  V30 69 1 16 65
M  V30 70 1 17 66
M  V30 71 1 19 67
M  V30 72 1 21 68
M  V30 73 1 23 69
M  V30 74 1 25 70
M  V30 75 1 28 71
M  V30 76 1 28 72
M  V30 77 1 31 73
M  V30 78 1 31 74
M  V30 79 1 41 75
M  V30 80 1 47 76
M  V30 81 1 49 77
M  V30 82 1 50 78
M  V30 83 1 56 79
M  V30 84 1 56 80
M  V30 85 1 56 81
M  V30 END BOND
M  V30 END CTAB
M  END
>  <Structure No>
242

>  <LogS>
-1.161671108

>  <MMFF94 Energy>
-19.983

$$$$
Compound 243
Actelion Java MolfileCreator 2.0

  0  0  0  0  0  0              0 V3000
M  V30 BEGIN CTAB
M  V30 COUNTS 26 26 0 0 0
M  V30 BEGIN ATOM
M  V30 1 O -1.0958 -1.1742 -0.1564 0
M  V30 2 C -0.8157 0.1894 0.0239 0
M  V30 3 C -2.3634 -1.6939 -0.5489 0
M  V30 4 C 0.4837 0.5575 0.4118 0
M  V30 5 C -1.7925 1.1856 -0.1734 0
M  V30 6 C -2.2837 -3.209 -0.6409 0
M  V30 7 O 1.4318 -0.4628 0.602 0
M  V30 8 C 0.7901 1.9201 0.6042 0
M  V30 9 C -1.4748 2.5316 0.0164 0
M  V30 10 C 2.8178 -0.2707 0.8852 0
M  V30 11 C -0.1866 2.8979 0.4049 0
M  V30 12 C 3.5714 0.1595 -0.3684 0
M  V30 13 H -2.6475 -1.2839 -1.5422 0
M  V30 14 H -3.1338 -1.4153 0.2024 0
M  V30 15 H -2.7995 0.93 -0.4731 0
M  V30 16 H -3.2694 -3.6187 -0.9465 0
M  V30 17 H -2.0062 -3.6348 0.3465 0
M  V30 18 H -1.5211 -3.5036 -1.3926 0
M  V30 19 H 1.7761 2.238 0.9102 0
M  V30 20 H -2.2295 3.2923 -0.1366 0
M  V30 21 H 3.2391 -1.2382 1.2304 0
M  V30 22 H 2.9579 0.4623 1.7074 0
M  V30 23 H 0.0556 3.9424 0.5537 0
M  V30 24 H 4.6527 0.2598 -0.1372 0
M  V30 25 H 3.4436 -0.6027 -1.1655 0
M  V30 26 H 3.1948 1.1349 -0.7387 0
M  V30 END ATOM
M  V30 BEGIN BOND
M  V30 1 1 1 2
M  V30 2 1 1 3
M  V30 3 2 2 4
M  V30 4 1 2 5
M  V30 5 1 3 6
M  V30 6 1 4 7
M  V30 7 1 4 8
M  V30 8 2 5 9
M  V30 9 1 7 10
M  V30 10 2 8 11
M  V30 11 1 10 12
M  V30 12 1 9 11
M  V30 13 1 3 13
M  V30 14 1 3 14
M  V30 15 1 5 15
M  V30 16 1 6 16
M  V30 17 1 6 17
M  V30 18 1 6 18
M  V30 19 1 8 19
M  V30 20 1 9 20
M  V30 21 1 10 21
M  V30 22 1 10 22
M  V30 23 1 11 23
M  V30 24 1 12 24
M  V30 25 1 12 25
M  V30 26 1 12 26
M  V30 END BOND
M  V30 END CTAB
M  END
>  <Structure No>
243

>  <LogS>
-2.41045076

>  <MMFF94 Energy>
35.501

$$$$
Compound 244
Actelion Java MolfileCreator 2.0

  0  0  0  0  0  0              0 V3000
M  V30 BEGIN CTAB
M  V30 COUNTS 12 11 0 0 0
M  V30 BEGIN ATOM
M  V30 1 C -0.5239 0.3741 -0.1496 0
M  V30 2 C 0.4588 -0.3811 0.3566 0
M  V30 3 C -1.9415 -0.1077 -0.1552 0
M  V30 4 C 1.8764 0.1008 0.3623 0
M  V30 5 H -0.2997 1.3533 -0.5649 0
M  V30 6 H 0.2346 -1.3602 0.772 0
M  V30 7 H -2.2825 -0.2945 0.885 0
M  V30 8 H -2.0206 -1.0457 -0.7443 0
M  V30 9 H -2.5969 0.6612 -0.615 0
M  V30 10 H 2.2173 0.2877 -0.6778 0
M  V30 11 H 2.5317 -0.6681 0.8222 0
M  V30 12 H 1.9553 1.0388 0.9515 0
M  V30 END ATOM
M  V30 BEGIN BOND
M  V30 1 2 1 2
M  V30 2 1 1 3
M  V30 3 1 2 4
M  V30 4 1 1 5
M  V30 5 1 2 6
M  V30 6 1 3 7
M  V30 7 1 3 8
M  V30 8 1 3 9
M  V30 9 1 4 10
M  V30 10 1 4 11
M  V30 11 1 4 12
M  V30 END BOND
M  V30 END CTAB
M  END
>  <Structure No>
244

>  <LogS>
-1.939465074

>  <MMFF94 Energy>
4.8468

$$$$
Compound 245
Actelion Java MolfileCreator 2.0

  0  0  0  0  0  0              0 V3000
M  V30 BEGIN CTAB
M  V30 COUNTS 22 21 0 0 0
M  V30 BEGIN ATOM
M  V30 1 O -0.1545 1.5459 -0.4635 0
M  V30 2 C -0.0062 0.3329 0.2368 0 CFG=2
M  V30 3 C 1.2285 -0.4691 -0.25 0 CFG=1
M  V30 4 C -1.3103 -0.5076 0.2034 0 CFG=2
M  V30 5 O 1.0854 -0.8087 -1.6065 0
M  V30 6 C 2.5206 0.3367 -0.0507 0
M  V30 7 O -1.6425 -0.9025 -1.1061 0
M  V30 8 C -2.4816 0.2341 0.8709 0
M  V30 9 O 3.6286 -0.4523 -0.3852 0
M  V30 10 O -3.6194 -0.583 0.8705 0
M  V30 11 H -0.1927 1.3415 -1.4329 0
M  V30 12 H 0.1788 0.592 1.3031 0
M  V30 13 H 1.2989 -1.3956 0.3685 0
M  V30 14 H -1.1316 -1.432 0.7956 0
M  V30 15 H 1.6514 -1.6082 -1.7673 0
M  V30 16 H 2.501 1.2449 -0.6942 0
M  V30 17 H 2.6032 0.6525 1.0135 0
M  V30 18 H -1.9803 -0.1057 -1.5917 0
M  V30 19 H -2.2099 0.4875 1.9204 0
M  V30 20 H -2.6985 1.1782 0.3223 0
M  V30 21 H 4.4271 0.1198 -0.2436 0
M  V30 22 H -4.3373 -0.0558 1.3085 0
M  V30 END ATOM
M  V30 BEGIN BOND
M  V30 1 1 1 2
M  V30 2 1 2 3
M  V30 3 1 2 4
M  V30 4 1 3 5
M  V30 5 1 3 6
M  V30 6 1 4 7
M  V30 7 1 4 8
M  V30 8 1 6 9
M  V30 9 1 8 10
M  V30 10 1 1 11
M  V30 11 1 2 12
M  V30 12 1 3 13
M  V30 13 1 4 14
M  V30 14 1 5 15
M  V30 15 1 6 16
M  V30 16 1 6 17
M  V30 17 1 7 18
M  V30 18 1 8 19
M  V30 19 1 8 20
M  V30 20 1 9 21
M  V30 21 1 10 22
M  V30 END BOND
M  V30 BEGIN COLLECTION
M  V30 MDLV30/STEABS ATOMS=(3 2 3 4)
M  V30 END COLLECTION
M  V30 END CTAB
M  END
>  <Structure No>
245

>  <LogS>
0.625274489

>  <MMFF94 Energy>
74.177

$$$$
Compound 246
Actelion Java MolfileCreator 2.0

  0  0  0  0  0  0              0 V3000
M  V30 BEGIN CTAB
M  V30 COUNTS 13 12 0 0 0
M  V30 BEGIN ATOM
M  V30 1 C -0.2307 -0.0769 -0.2307 0
M  V30 2 C 0.6949 0.2339 0.7312 0
M  V30 3 C 0.0483 0.4087 -1.5615 0
M  V30 4 C -1.5205 -0.7726 -0.2402 0
M  V30 5 C 1.5203 0.51 1.5926 0
M  V30 6 H 0.0223 -0.538 1.7462 0
M  V30 7 H -0.6972 0.1874 -2.2563 0
M  V30 8 H 0.9329 0.8909 -1.7136 0
M  V30 9 H -1.4854 -1.6331 0.4709 0
M  V30 10 H -2.42 -0.1425 -0.095 0
M  V30 11 H -1.6035 -1.2969 -1.2527 0
M  V30 12 H 2.1965 0.7362 2.2983 0
M  V30 13 H 2.114 1.5261 0.8568 0
M  V30 END ATOM
M  V30 BEGIN BOND
M  V30 1 1 1 2
M  V30 2 2 1 3
M  V30 3 1 1 4
M  V30 4 2 2 5
M  V30 5 1 2 6
M  V30 6 1 3 7
M  V30 7 1 3 8
M  V30 8 1 4 9
M  V30 9 1 4 10
M  V30 10 1 4 11
M  V30 11 1 5 12
M  V30 12 1 5 13
M  V30 END BOND
M  V30 END CTAB
M  END
>  <Structure No>
246

>  <LogS>
-2.025733236

>  <MMFF94 Energy>
7.5928

$$$$
Compound 247
Actelion Java MolfileCreator 2.0

  0  0  0  0  0  0              0 V3000
M  V30 BEGIN CTAB
M  V30 COUNTS 92 91 0 0 0
M  V30 BEGIN ATOM
M  V30 1 N 5.586 -0.0774 0.7743 0 CHG=1
M  V30 2 C 6.5535 -0.7202 -0.1396 0
M  V30 3 C 5.1243 1.2659 0.3667 0
M  V30 4 C 7.8263 0.1123 -0.4128 0
M  V30 5 C 4.4963 1.3404 -1.0418 0
M  V30 6 C 8.6266 0.5189 0.8452 0
M  V30 7 C 3.2155 0.4945 -1.1845 0
M  V30 8 N 9.0898 -0.6148 1.6731 0 CHG=1
M  V30 9 N 2.6308 0.5352 -2.5439 0 CHG=1
M  V30 10 C 9.9604 -1.5856 0.9795 0
M  V30 11 C 2.3712 1.8812 -3.1007 0
M  V30 12 C 11.2559 -0.9512 0.4387 0
M  V30 13 C 1.3517 2.7044 -2.2876 0
M  V30 14 C 12.2149 -2.0281 -0.0868 0
M  V30 15 C -0.1134 2.3134 -2.5873 0
M  V30 16 N 13.4296 -1.4308 -0.6414 0
M  V30 17 C -0.9991 2.3628 -1.3287 0
M  V30 18 C -0.9769 1.0221 -0.5717 0
M  V30 19 C -1.4447 1.1365 0.891 0
M  V30 20 C -2.8231 1.7891 1.0913 0
M  V30 21 C -3.9562 1.0633 0.3511 0
M  V30 22 C -5.2894 1.6682 0.7034 0
M  V30 23 C -6.3587 1.5025 -0.0927 0
M  V30 24 C -7.68 2.1476 0.2299 0
M  V30 25 C -8.4098 1.4221 1.3687 0
M  V30 26 C -8.9259 0.0433 0.9318 0
M  V30 27 C -9.7269 -0.6286 2.0565 0
M  V30 28 C -10.1935 -2.0502 1.698 0
M  V30 29 C -11.2546 -2.0658 0.5825 0
M  V30 30 C -11.8243 -3.4706 0.328 0
M  V30 31 C -12.8414 -3.895 1.3863 0
M  V30 32 H 6.0162 -0.0033 1.7247 0
M  V30 33 H 4.7579 -0.7082 0.8817 0
M  V30 34 H 6.8534 -1.7042 0.2808 0
M  V30 35 H 6.0629 -0.9561 -1.1077 0
M  V30 36 H 5.9657 1.9915 0.4203 0
M  V30 37 H 4.3729 1.6252 1.1058 0
M  V30 38 H 8.4813 -0.4564 -1.1091 0
M  V30 39 H 7.553 1.0351 -0.9695 0
M  V30 40 H 5.2337 1.0613 -1.8227 0
M  V30 41 H 4.242 2.4096 -1.1972 0
M  V30 42 H 9.4907 1.1437 0.5315 0
M  V30 43 H 7.9982 1.187 1.4738 0
M  V30 44 H 2.4709 0.8029 -0.4207 0
M  V30 45 H 3.4591 -0.5659 -0.9573 0
M  V30 46 H 8.262 -1.1227 2.0606 0
M  V30 47 H 9.6155 -0.225 2.4925 0
M  V30 48 H 1.7378 -0.0073 -2.532 0
M  V30 49 H 3.2802 0.0375 -3.1964 0
M  V30 50 H 9.4099 -2.0948 0.1593 0
M  V30 51 H 10.2366 -2.3814 1.7081 0
M  V30 52 H 3.3211 2.4502 -3.1995 0
M  V30 53 H 1.9932 1.7755 -4.143 0
M  V30 54 H 11.014 -0.2627 -0.3967 0
M  V30 55 H 11.7531 -0.3733 1.2465 0
M  V30 56 H 1.5763 2.6453 -1.2039 0
M  V30 57 H 1.4794 3.7774 -2.5559 0
M  V30 58 H 12.4966 -2.7178 0.7367 0
M  V30 59 H 11.709 -2.6231 -0.8781 0
M  V30 60 H -0.5224 3.0368 -3.3306 0
M  V30 61 H -0.1883 1.3083 -3.063 0
M  V30 62 H 13.8947 -0.8498 0.095 0
M  V30 63 H 13.1632 -0.8012 -1.4344 0
M  V30 64 H -0.6799 3.1977 -0.6641 0
M  V30 65 H -2.0451 2.5763 -1.6446 0
M  V30 66 H -1.6048 0.2794 -1.1085 0
M  V30 67 H 0.0583 0.6178 -0.5606 0
M  V30 68 H -0.6935 1.7278 1.4578 0
M  V30 69 H -1.4569 0.1175 1.3385 0
M  V30 70 H -3.0402 1.7819 2.1832 0
M  V30 71 H -2.7872 2.853 0.7686 0
M  V30 72 H -3.9639 -0.0157 0.6203 0
M  V30 73 H -3.796 1.1558 -0.7445 0
M  V30 74 H -5.3805 2.2796 1.5996 0
M  V30 75 H -6.2719 0.9189 -1.0065 0
M  V30 76 H -7.5104 3.2085 0.5162 0
M  V30 77 H -8.3195 2.1512 -0.6796 0
M  V30 78 H -9.2722 2.0498 1.6864 0
M  V30 79 H -7.7335 1.3131 2.2446 0
M  V30 80 H -9.575 0.1791 0.0437 0
M  V30 81 H -8.0684 -0.6036 0.6473 0
M  V30 82 H -10.6068 -0.0037 2.3179 0
M  V30 83 H -9.0824 -0.6951 2.9576 0
M  V30 84 H -9.3177 -2.6682 1.4002 0
M  V30 85 H -10.6219 -2.4997 2.6202 0
M  V30 86 H -12.0793 -1.361 0.8292 0
M  V30 87 H -10.7858 -1.7221 -0.3637 0
M  V30 88 H -11.0057 -4.2203 0.2796 0
M  V30 89 H -12.3333 -3.4711 -0.6598 0
M  V30 90 H -12.3599 -4.0001 2.3803 0
M  V30 91 H -13.2764 -4.8781 1.1064 0
M  V30 92 H -13.6647 -3.1513 1.4537 0
M  V30 END ATOM
M  V30 BEGIN BOND
M  V30 1 1 1 2
M  V30 2 1 1 3
M  V30 3 1 2 4
M  V30 4 1 3 5
M  V30 5 1 4 6
M  V30 6 1 5 7
M  V30 7 1 6 8
M  V30 8 1 7 9
M  V30 9 1 8 10
M  V30 10 1 9 11
M  V30 11 1 10 12
M  V30 12 1 11 13
M  V30 13 1 12 14
M  V30 14 1 13 15
M  V30 15 1 14 16
M  V30 16 1 15 17
M  V30 17 1 17 18
M  V30 18 1 18 19
M  V30 19 1 19 20
M  V30 20 1 20 21
M  V30 21 1 21 22
M  V30 22 2 22 23
M  V30 23 1 23 24
M  V30 24 1 24 25
M  V30 25 1 25 26
M  V30 26 1 26 27
M  V30 27 1 27 28
M  V30 28 1 28 29
M  V30 29 1 29 30
M  V30 30 1 30 31
M  V30 31 1 1 32
M  V30 32 1 1 33
M  V30 33 1 2 34
M  V30 34 1 2 35
M  V30 35 1 3 36
M  V30 36 1 3 37
M  V30 37 1 4 38
M  V30 38 1 4 39
M  V30 39 1 5 40
M  V30 40 1 5 41
M  V30 41 1 6 42
M  V30 42 1 6 43
M  V30 43 1 7 44
M  V30 44 1 7 45
M  V30 45 1 8 46
M  V30 46 1 8 47
M  V30 47 1 9 48
M  V30 48 1 9 49
M  V30 49 1 10 50
M  V30 50 1 10 51
M  V30 51 1 11 52
M  V30 52 1 11 53
M  V30 53 1 12 54
M  V30 54 1 12 55
M  V30 55 1 13 56
M  V30 56 1 13 57
M  V30 57 1 14 58
M  V30 58 1 14 59
M  V30 59 1 15 60
M  V30 60 1 15 61
M  V30 61 1 16 62
M  V30 62 1 16 63
M  V30 63 1 17 64
M  V30 64 1 17 65
M  V30 65 1 18 66
M  V30 66 1 18 67
M  V30 67 1 19 68
M  V30 68 1 19 69
M  V30 69 1 20 70
M  V30 70 1 20 71
M  V30 71 1 21 72
M  V30 72 1 21 73
M  V30 73 1 22 74
M  V30 74 1 23 75
M  V30 75 1 24 76
M  V30 76 1 24 77
M  V30 77 1 25 78
M  V30 78 1 25 79
M  V30 79 1 26 80
M  V30 80 1 26 81
M  V30 81 1 27 82
M  V30 82 1 27 83
M  V30 83 1 28 84
M  V30 84 1 28 85
M  V30 85 1 29 86
M  V30 86 1 29 87
M  V30 87 1 30 88
M  V30 88 1 30 89
M  V30 89 1 31 90
M  V30 90 1 31 91
M  V30 91 1 31 92
M  V30 END BOND
M  V30 END CTAB
M  END
>  <Structure No>
247

>  <LogS>
-3.836075758

>  <MMFF94 Energy>
158.36

$$$$
Compound 248
Actelion Java MolfileCreator 2.0

  0  0  0  0  0  0              0 V3000
M  V30 BEGIN CTAB
M  V30 COUNTS 33 32 0 0 0
M  V30 BEGIN ATOM
M  V30 1 O 4.3385 -0.6962 0.6188 0
M  V30 2 C 3.8169 -0.4549 -0.6595 0
M  V30 3 C 3.0332 0.8691 -0.7065 0
M  V30 4 C 1.6895 0.878 0.0666 0 CFG=1
M  V30 5 C 0.6906 -0.1626 -0.4955 0
M  V30 6 C 1.8943 0.7195 1.5826 0
M  V30 7 C -0.7565 0.1112 -0.0552 0
M  V30 8 C -1.7263 -0.8873 -0.7125 0
M  V30 9 C -3.2103 -0.6988 -0.3174 0
M  V30 10 C -3.4547 -0.934 1.1794 0
M  V30 11 C -3.7666 0.6629 -0.7553 0
M  V30 12 H 5.0963 -0.0666 0.7412 0
M  V30 13 H 3.1707 -1.3054 -0.9564 0
M  V30 14 H 4.6479 -0.4115 -1.3996 0
M  V30 15 H 2.8254 1.1077 -1.7726 0
M  V30 16 H 3.6824 1.6885 -0.3267 0
M  V30 17 H 1.2556 1.89 -0.097 0
M  V30 18 H 0.9809 -1.1849 -0.1694 0
M  V30 19 H 0.7284 -0.1357 -1.607 0
M  V30 20 H 0.9794 1.0293 2.1291 0
M  V30 21 H 2.1201 -0.3342 1.8484 0
M  V30 22 H 2.7252 1.3683 1.9326 0
M  V30 23 H -0.8237 0.018 1.0474 0
M  V30 24 H -1.0309 1.1469 -0.347 0
M  V30 25 H -1.6416 -0.8001 -1.8182 0
M  V30 26 H -1.4171 -1.9218 -0.4447 0
M  V30 27 H -3.7862 -1.4769 -0.8664 0
M  V30 28 H -4.5465 -0.9725 1.3813 0
M  V30 29 H -3.0186 -0.1169 1.7915 0
M  V30 30 H -3.0108 -1.9019 1.4958 0
M  V30 31 H -4.8689 0.6814 -0.6179 0
M  V30 32 H -3.5496 0.8409 -1.8301 0
M  V30 33 H -3.329 1.4876 -0.1547 0
M  V30 END ATOM
M  V30 BEGIN BOND
M  V30 1 1 1 2
M  V30 2 1 2 3
M  V30 3 1 3 4
M  V30 4 1 4 5
M  V30 5 1 4 6
M  V30 6 1 5 7
M  V30 7 1 7 8
M  V30 8 1 8 9
M  V30 9 1 9 10
M  V30 10 1 9 11
M  V30 11 1 1 12
M  V30 12 1 2 13
M  V30 13 1 2 14
M  V30 14 1 3 15
M  V30 15 1 3 16
M  V30 16 1 4 17
M  V30 17 1 5 18
M  V30 18 1 5 19
M  V30 19 1 6 20
M  V30 20 1 6 21
M  V30 21 1 6 22
M  V30 22 1 7 23
M  V30 23 1 7 24
M  V30 24 1 8 25
M  V30 25 1 8 26
M  V30 26 1 9 27
M  V30 27 1 10 28
M  V30 28 1 10 29
M  V30 29 1 10 30
M  V30 30 1 11 31
M  V30 31 1 11 32
M  V30 32 1 11 33
M  V30 END BOND
M  V30 BEGIN COLLECTION
M  V30 MDLV30/STEABS ATOMS=(1 4)
M  V30 END COLLECTION
M  V30 END CTAB
M  END
>  <Structure No>
248

>  <LogS>
-3.393259787

>  <MMFF94 Energy>
9.3009

$$$$
Compound 249
Actelion Java MolfileCreator 2.0

  0  0  0  0  0  0              0 V3000
M  V30 BEGIN CTAB
M  V30 COUNTS 81 84 0 0 0
M  V30 BEGIN ATOM
M  V30 1 S 1.0841 -1.8351 -2.0855 0
M  V30 2 O 1.7432 -3.1578 -1.8061 0
M  V30 3 O 1.0161 -1.639 -3.5744 0
M  V30 4 C -0.5524 -1.838 -1.4273 0
M  V30 5 C 2.0557 -0.5487 -1.368 0
M  V30 6 C -1.2837 -3.033 -1.3639 0
M  V30 7 C -1.1568 -0.6404 -1.0216 0
M  V30 8 C 1.9527 0.7612 -1.8544 0
M  V30 9 C 2.9103 -0.8189 -0.291 0
M  V30 10 C -2.6061 -3.0277 -0.9091 0
M  V30 11 C -2.4755 -0.6334 -0.5637 0
M  V30 12 C 2.6755 1.7953 -1.2534 0
M  V30 13 C 3.6513 0.2108 0.2969 0
M  V30 14 C -3.2165 -1.8265 -0.5128 0
M  V30 15 C 3.5352 1.5283 -0.179 0
M  V30 16 N -4.5959 -1.8221 -0.1171 0
M  V30 17 N 4.2672 2.6061 0.4279 0
M  V30 18 N -5.1939 -0.6489 0.3746 0
M  V30 19 N 5.3538 2.3743 1.2875 0
M  V30 20 C -6.4465 -0.3061 0.2293 0
M  V30 21 C 6.4804 1.8187 0.932 0
M  V30 22 C -7.3843 -1.0476 -0.6538 0
M  V30 23 C -6.9242 0.9375 0.9044 0
M  V30 24 C 7.3999 1.3892 1.9932 0
M  V30 25 C 6.8485 1.5079 -0.4869 0
M  V30 26 O -6.9884 -2.0286 -1.3375 0
M  V30 27 N -8.747 -0.6061 -0.7717 0
M  V30 28 C -8.1931 1.3898 0.7091 0
M  V30 29 C -5.9452 1.7156 1.7647 0
M  V30 30 O 7.2888 1.8662 3.1559 0
M  V30 31 N 8.3786 0.3789 1.7077 0
M  V30 32 C 7.7154 0.4922 -0.7438 0
M  V30 33 C 6.328 2.3852 -1.6048 0
M  V30 34 C -9.1576 0.5992 -0.1026 0
M  V30 35 C -9.7373 -1.4376 -1.4728 0
M  V30 36 C -8.6959 2.6791 1.336 0
M  V30 37 C 8.426 -0.1774 0.3801 0
M  V30 38 C 9.2144 -0.179 2.7809 0
M  V30 39 C 8.043 0.0437 -2.1557 0
M  V30 40 O -10.3516 0.9947 -0.2045 0
M  V30 41 C -10.334 -2.4623 -0.5171 0
M  V30 42 S -9.5436 2.3518 2.875 0
M  V30 43 O 9.0994 -1.221 0.1601 0
M  V30 44 C 8.5161 -1.3616 3.4456 0
M  V30 45 S 9.5989 0.7298 -2.7058 0
M  V30 46 O -10.9221 1.8241 2.5893 0
M  V30 47 O -9.6556 3.6302 3.6565 0
M  V30 48 O -8.6954 1.2193 3.7839 0 CHG=-1
M  V30 49 O 10.7378 0.0515 -1.9973 0
M  V30 50 O 9.6532 2.2046 -2.4242 0
M  V30 51 O 9.7555 0.4745 -4.3581 0 CHG=-1
M  V30 52 H -0.8384 -3.9656 -1.6844 0
M  V30 53 H -0.6207 0.2967 -1.0708 0
M  V30 54 H 1.2943 0.9857 -2.684 0
M  V30 55 H 2.9956 -1.8239 0.1021 0
M  V30 56 H -3.1628 -3.9561 -0.8871 0
M  V30 57 H -2.9218 0.3086 -0.2754 0
M  V30 58 H 2.575 2.803 -1.6333 0
M  V30 59 H 4.2935 -0.0188 1.139 0
M  V30 60 H -5.1106 -2.7276 -0.0679 0
M  V30 61 H 3.8627 3.568 0.3907 0
M  V30 62 H -5.5793 2.602 1.2042 0
M  V30 63 H -5.0683 1.1076 2.0649 0
M  V30 64 H -6.4201 2.0424 2.7113 0
M  V30 65 H 5.9956 3.372 -1.223 0
M  V30 66 H 7.1234 2.608 -2.343 0
M  V30 67 H 5.4888 1.8815 -2.1253 0
M  V30 68 H -9.2698 -1.9634 -2.3335 0
M  V30 69 H -10.5504 -0.8075 -1.8932 0
M  V30 70 H -9.4023 3.19 0.6463 0
M  V30 71 H -7.8806 3.4099 1.5114 0
M  V30 72 H 10.1959 -0.51 2.373 0
M  V30 73 H 9.4342 0.5983 3.546 0
M  V30 74 H 8.1136 -1.063 -2.1888 0
M  V30 75 H 7.247 0.3115 -2.8799 0
M  V30 76 H -10.8388 -1.9468 0.3278 0
M  V30 77 H -11.0777 -3.0841 -1.0543 0
M  V30 78 H -9.5373 -3.1218 -0.1182 0
M  V30 79 H 9.1521 -1.7589 4.2634 0
M  V30 80 H 8.3405 -2.1716 2.7049 0
M  V30 81 H 7.5417 -1.041 3.8725 0
M  V30 END ATOM
M  V30 BEGIN BOND
M  V30 1 2 1 2
M  V30 2 2 1 3
M  V30 3 1 1 4
M  V30 4 1 1 5
M  V30 5 2 4 6
M  V30 6 1 4 7
M  V30 7 2 5 8
M  V30 8 1 5 9
M  V30 9 1 6 10
M  V30 10 2 7 11
M  V30 11 1 8 12
M  V30 12 2 9 13
M  V30 13 2 10 14
M  V30 14 2 12 15
M  V30 15 1 14 16
M  V30 16 1 15 17
M  V30 17 1 16 18
M  V30 18 1 17 19
M  V30 19 2 18 20
M  V30 20 2 19 21
M  V30 21 1 20 22
M  V30 22 1 20 23
M  V30 23 1 21 24
M  V30 24 1 21 25
M  V30 25 2 22 26
M  V30 26 1 22 27
M  V30 27 2 23 28
M  V30 28 1 23 29
M  V30 29 2 24 30
M  V30 30 1 24 31
M  V30 31 2 25 32
M  V30 32 1 25 33
M  V30 33 1 27 34
M  V30 34 1 27 35
M  V30 35 1 28 36
M  V30 36 1 31 37
M  V30 37 1 31 38
M  V30 38 1 32 39
M  V30 39 2 34 40
M  V30 40 1 35 41
M  V30 41 1 36 42
M  V30 42 2 37 43
M  V30 43 1 38 44
M  V30 44 1 39 45
M  V30 45 2 42 46
M  V30 46 2 42 47
M  V30 47 1 42 48
M  V30 48 2 45 49
M  V30 49 2 45 50
M  V30 50 1 45 51
M  V30 51 1 11 14
M  V30 52 1 13 15
M  V30 53 1 28 34
M  V30 54 1 32 37
M  V30 55 1 6 52
M  V30 56 1 7 53
M  V30 57 1 8 54
M  V30 58 1 9 55
M  V30 59 1 10 56
M  V30 60 1 11 57
M  V30 61 1 12 58
M  V30 62 1 13 59
M  V30 63 1 16 60
M  V30 64 1 17 61
M  V30 65 1 29 62
M  V30 66 1 29 63
M  V30 67 1 29 64
M  V30 68 1 33 65
M  V30 69 1 33 66
M  V30 70 1 33 67
M  V30 71 1 35 68
M  V30 72 1 35 69
M  V30 73 1 36 70
M  V30 74 1 36 71
M  V30 75 1 38 72
M  V30 76 1 38 73
M  V30 77 1 39 74
M  V30 78 1 39 75
M  V30 79 1 41 76
M  V30 80 1 41 77
M  V30 81 1 41 78
M  V30 82 1 44 79
M  V30 83 1 44 80
M  V30 84 1 44 81
M  V30 END BOND
M  V30 END CTAB
M  END
>  <Structure No>
249

>  <LogS>
-2.10218738

>  <MMFF94 Energy>
169.45

$$$$
Compound 250
Actelion Java MolfileCreator 2.0

  0  0  0  0  0  0              0 V3000
M  V30 BEGIN CTAB
M  V30 COUNTS 17 17 0 0 0
M  V30 BEGIN ATOM
M  V30 1 O 2.047 -1.8895 0.1573 0
M  V30 2 C 1.6776 -0.6961 -0.0159 0
M  V30 3 C 0.2309 -0.3544 0.0471 0
M  V30 4 C 2.7262 0.3422 -0.2819 0
M  V30 5 C -0.7212 -1.362 0.2997 0
M  V30 6 C -0.2196 0.9684 -0.1414 0
M  V30 7 C -2.0837 -1.0539 0.3616 0
M  V30 8 C -1.5837 1.2695 -0.0783 0
M  V30 9 C -2.5145 0.2601 0.1728 0
M  V30 10 H 2.5488 0.8124 -1.2717 0
M  V30 11 H 3.7375 -0.1176 -0.288 0
M  V30 12 H 2.6987 1.1179 0.5117 0
M  V30 13 H -0.4147 -2.3895 0.4501 0
M  V30 14 H 0.4741 1.7744 -0.3378 0
M  V30 15 H -2.8062 -1.836 0.5563 0
M  V30 16 H -1.9194 2.2881 -0.2246 0
M  V30 17 H -3.5698 0.4963 0.2211 0
M  V30 END ATOM
M  V30 BEGIN BOND
M  V30 1 2 1 2
M  V30 2 1 2 3
M  V30 3 1 2 4
M  V30 4 2 3 5
M  V30 5 1 3 6
M  V30 6 1 5 7
M  V30 7 2 6 8
M  V30 8 2 7 9
M  V30 9 1 8 9
M  V30 10 1 4 10
M  V30 11 1 4 11
M  V30 12 1 4 12
M  V30 13 1 5 13
M  V30 14 1 6 14
M  V30 15 1 7 15
M  V30 16 1 8 16
M  V30 17 1 9 17
M  V30 END BOND
M  V30 END CTAB
M  END
>  <Structure No>
250

>  <LogS>
-1.28038684

>  <MMFF94 Energy>
35.268

$$$$
Compound 251
Actelion Java MolfileCreator 2.0

  0  0  0  0  0  0              0 V3000
M  V30 BEGIN CTAB
M  V30 COUNTS 34 33 0 0 0
M  V30 BEGIN ATOM
M  V30 1 O 1.005 -0.3864 2.0882 0
M  V30 2 C 1.0428 -0.2624 0.6866 0 CFG=1
M  V30 3 C 2.1435 -1.1484 0.1055 0
M  V30 4 C -0.3224 -0.5808 0.0387 0
M  V30 5 C 3.1419 -0.6756 -0.6797 0
M  V30 6 C 2.1137 -2.6367 0.3622 0
M  V30 7 C -1.4165 0.3847 0.5156 0
M  V30 8 C 3.342 0.7662 -1.074 0
M  V30 9 C -2.7581 0.072 -0.1571 0
M  V30 10 C 4.006 1.5611 0.0478 0
M  V30 11 C -3.8504 1.0363 0.3192 0
M  V30 12 C -5.1873 0.7283 -0.3484 0
M  V30 13 H 0.5604 -1.2427 2.3173 0
M  V30 14 H 1.2485 0.8038 0.4775 0
M  V30 15 H -0.2225 -0.4944 -1.066 0
M  V30 16 H -0.6263 -1.6239 0.2735 0
M  V30 17 H 3.8612 -1.3832 -1.0857 0
M  V30 18 H 1.2386 -2.9411 0.9699 0
M  V30 19 H 2.0626 -3.1836 -0.6031 0
M  V30 20 H 3.0343 -2.9415 0.9033 0
M  V30 21 H -1.1186 1.4284 0.2722 0
M  V30 22 H -1.5316 0.2984 1.6183 0
M  V30 23 H 2.3851 1.2351 -1.3859 0
M  V30 24 H 4.0138 0.7969 -1.9586 0
M  V30 25 H -3.0572 -0.9713 0.0859 0
M  V30 26 H -2.6459 0.1598 -1.2603 0
M  V30 27 H 5.0036 1.1311 0.2805 0
M  V30 28 H 3.3881 1.5508 0.9691 0
M  V30 29 H 4.1414 2.6147 -0.2749 0
M  V30 30 H -3.5598 2.0817 0.0763 0
M  V30 31 H -3.9711 0.9514 1.4212 0
M  V30 32 H -5.9573 1.441 0.015 0
M  V30 33 H -5.1006 0.831 -1.4511 0
M  V30 34 H -5.5137 -0.3041 -0.1004 0
M  V30 END ATOM
M  V30 BEGIN BOND
M  V30 1 1 1 2
M  V30 2 1 2 3
M  V30 3 1 2 4
M  V30 4 2 3 5
M  V30 5 1 3 6
M  V30 6 1 4 7
M  V30 7 1 5 8
M  V30 8 1 7 9
M  V30 9 1 8 10
M  V30 10 1 9 11
M  V30 11 1 11 12
M  V30 12 1 1 13
M  V30 13 1 2 14
M  V30 14 1 4 15
M  V30 15 1 4 16
M  V30 16 1 5 17
M  V30 17 1 6 18
M  V30 18 1 6 19
M  V30 19 1 6 20
M  V30 20 1 7 21
M  V30 21 1 7 22
M  V30 22 1 8 23
M  V30 23 1 8 24
M  V30 24 1 9 25
M  V30 25 1 9 26
M  V30 26 1 10 27
M  V30 27 1 10 28
M  V30 28 1 10 29
M  V30 29 1 11 30
M  V30 30 1 11 31
M  V30 31 1 12 32
M  V30 32 1 12 33
M  V30 33 1 12 34
M  V30 END BOND
M  V30 BEGIN COLLECTION
M  V30 MDLV30/STEABS ATOMS=(1 2)
M  V30 END COLLECTION
M  V30 END CTAB
M  END
>  <Structure No>
251

>  <LogS>
-3.431863898

>  <MMFF94 Energy>
2.2185

$$$$
Compound 252
Actelion Java MolfileCreator 2.0

  0  0  0  0  0  0              0 V3000
M  V30 BEGIN CTAB
M  V30 COUNTS 26 25 0 0 0
M  V30 BEGIN ATOM
M  V30 1 O -0.8531 -2.2503 -0.7755 0
M  V30 2 C -0.9387 -1.4633 0.2065 0
M  V30 3 O 0.1787 -1.1827 1.0001 0
M  V30 4 C -2.2368 -0.7835 0.5026 0
M  V30 5 C 1.487 -1.6766 0.7176 0
M  V30 6 C -2.2694 0.6032 -0.1451 0
M  V30 7 C 2.1154 -0.9351 -0.4677 0
M  V30 8 C -3.5865 1.3162 0.1454 0
M  V30 9 C 2.2549 0.5665 -0.1874 0
M  V30 10 C 2.9068 1.2874 -1.3634 0
M  V30 11 H -2.3511 -0.688 1.6042 0
M  V30 12 H -3.0773 -1.4017 0.1178 0
M  V30 13 H 2.1231 -1.5358 1.6173 0
M  V30 14 H 1.4446 -2.7667 0.5038 0
M  V30 15 H -1.4321 1.2207 0.2477 0
M  V30 16 H -2.1479 0.5055 -1.2462 0
M  V30 17 H 3.1204 -1.3691 -0.6618 0
M  V30 18 H 1.4943 -1.091 -1.376 0
M  V30 19 H -4.4395 0.7318 -0.2604 0
M  V30 20 H -3.5812 2.3172 -0.335 0
M  V30 21 H -3.7202 1.4487 1.2403 0
M  V30 22 H 2.8775 0.7225 0.7203 0
M  V30 23 H 1.2526 1.0125 -0.008 0
M  V30 24 H 2.9942 2.3701 -1.1334 0
M  V30 25 H 2.2894 1.1676 -2.279 0
M  V30 26 H 3.9235 0.8807 -1.5499 0
M  V30 END ATOM
M  V30 BEGIN BOND
M  V30 1 2 1 2
M  V30 2 1 2 3
M  V30 3 1 2 4
M  V30 4 1 3 5
M  V30 5 1 4 6
M  V30 6 1 5 7
M  V30 7 1 6 8
M  V30 8 1 7 9
M  V30 9 1 9 10
M  V30 10 1 4 11
M  V30 11 1 4 12
M  V30 12 1 5 13
M  V30 13 1 5 14
M  V30 14 1 6 15
M  V30 15 1 6 16
M  V30 16 1 7 17
M  V30 17 1 7 18
M  V30 18 1 8 19
M  V30 19 1 8 20
M  V30 20 1 8 21
M  V30 21 1 9 22
M  V30 22 1 9 23
M  V30 23 1 10 24
M  V30 24 1 10 25
M  V30 25 1 10 26
M  V30 END BOND
M  V30 END CTAB
M  END
>  <Structure No>
252

>  <LogS>
-2.361047779

>  <MMFF94 Energy>
-12.617

$$$$
Compound 253
Actelion Java MolfileCreator 2.0

  0  0  0  0  0  0              0 V3000
M  V30 BEGIN CTAB
M  V30 COUNTS 16 16 0 0 0
M  V30 BEGIN ATOM
M  V30 1 O -2.7114 1.2318 0.4104 0
M  V30 2 C -1.7503 1.4297 -0.3787 0
M  V30 3 O -1.8584 2.4321 -1.3358 0 CHG=-1
M  V30 4 C -0.4923 0.6585 -0.2499 0
M  V30 5 C -0.4525 -0.6845 0.2182 0
M  V30 6 C 0.7158 1.3167 -0.5439 0
M  V30 7 C -1.6734 -1.4984 0.4198 0
M  V30 8 C 0.7962 -1.2961 0.4365 0
M  V30 9 C 1.9421 0.6829 -0.3408 0
M  V30 10 O -1.7057 -2.3809 1.3182 0
M  V30 11 O -2.7727 -1.3474 -0.4173 0 CHG=-1
M  V30 12 C 1.9825 -0.6161 0.1593 0
M  V30 13 H 0.7137 2.3388 -0.9026 0
M  V30 14 H 0.8546 -2.3174 0.7934 0
M  V30 15 H 2.864 1.2061 -0.5601 0
M  V30 16 H 2.9355 -1.1032 0.3207 0
M  V30 END ATOM
M  V30 BEGIN BOND
M  V30 1 2 1 2
M  V30 2 1 2 3
M  V30 3 1 2 4
M  V30 4 2 4 5
M  V30 5 1 4 6
M  V30 6 1 5 7
M  V30 7 1 5 8
M  V30 8 2 6 9
M  V30 9 2 7 10
M  V30 10 1 7 11
M  V30 11 2 8 12
M  V30 12 1 9 12
M  V30 13 1 6 13
M  V30 14 1 8 14
M  V30 15 1 9 15
M  V30 16 1 12 16
M  V30 END BOND
M  V30 END CTAB
M  END
>  <Structure No>
253

>  <LogS>
-1.424573276

>  <MMFF94 Energy>
124.43

$$$$
Compound 254
Actelion Java MolfileCreator 2.0

  0  0  0  0  0  0              0 V3000
M  V30 BEGIN CTAB
M  V30 COUNTS 28 30 0 0 0
M  V30 BEGIN ATOM
M  V30 1 O 2.2719 2.4343 1.0543 0
M  V30 2 C 2.1461 1.2283 1.1935 0
M  V30 3 C 1.7697 0.3667 0.0177 0 CFG=2
M  V30 4 C 0.4258 0.723 -0.6445 0 CFG=1
M  V30 5 C 1.7053 -1.1276 0.3364 0
M  V30 6 C -0.1747 -0.5926 -1.1525 0 CFG=1
M  V30 7 C -0.734 1.3209 0.2044 0 CFG=1
M  V30 8 C 0.7568 -1.7268 -0.7001 0
M  V30 9 C -1.613 -0.5707 -0.5648 0 CFG=2
M  V30 10 C -1.9272 0.9106 -0.6362 0
M  V30 11 C -1.0052 0.514 1.4911 0
M  V30 12 C -1.6158 -0.7887 0.9607 0
M  V30 13 H 2.3242 0.7863 2.1688 0
M  V30 14 H 2.5657 0.4991 -0.75 0
M  V30 15 H 0.6202 1.4083 -1.5021 0
M  V30 16 H 2.7127 -1.593 0.2679 0
M  V30 17 H 1.3102 -1.311 1.3571 0
M  V30 18 H -0.2367 -0.5833 -2.265 0
M  V30 19 H -0.652 2.4164 0.3697 0
M  V30 20 H 0.2102 -2.6111 -0.311 0
M  V30 21 H 1.3571 -2.0652 -1.5733 0
M  V30 22 H -2.3326 -1.2165 -1.112 0
M  V30 23 H -1.8955 1.3162 -1.6746 0
M  V30 24 H -2.9061 1.1767 -0.172 0
M  V30 25 H -0.1089 0.3327 2.1106 0
M  V30 26 H -1.7469 1.0535 2.1212 0
M  V30 27 H -1.0519 -1.6826 1.2904 0
M  V30 28 H -2.6627 -0.8953 1.3226 0
M  V30 END ATOM
M  V30 BEGIN BOND
M  V30 1 2 1 2
M  V30 2 1 2 3
M  V30 3 1 3 4
M  V30 4 1 3 5
M  V30 5 1 4 6
M  V30 6 1 4 7
M  V30 7 1 5 8
M  V30 8 1 6 9
M  V30 9 1 7 10
M  V30 10 1 7 11
M  V30 11 1 9 12
M  V30 12 1 6 8
M  V30 13 1 9 10
M  V30 14 1 11 12
M  V30 15 1 2 13
M  V30 16 1 3 14
M  V30 17 1 4 15
M  V30 18 1 5 16
M  V30 19 1 5 17
M  V30 20 1 6 18
M  V30 21 1 7 19
M  V30 22 1 8 20
M  V30 23 1 8 21
M  V30 24 1 9 22
M  V30 25 1 10 23
M  V30 26 1 10 24
M  V30 27 1 11 25
M  V30 28 1 11 26
M  V30 29 1 12 27
M  V30 30 1 12 28
M  V30 END BOND
M  V30 BEGIN COLLECTION
M  V30 MDLV30/STEABS ATOMS=(5 3 4 6 7 9)
M  V30 END COLLECTION
M  V30 END CTAB
M  END
>  <Structure No>
254

>  <LogS>
-2.419967647

>  <MMFF94 Energy>
50.009

$$$$
Compound 255
Actelion Java MolfileCreator 2.0

  0  0  0  0  0  0              0 V3000
M  V30 BEGIN CTAB
M  V30 COUNTS 30 30 0 0 0
M  V30 BEGIN ATOM
M  V30 1 C 0.7815 0.2344 -0.2344 0
M  V30 2 C -0.6125 0.5429 -0.1367 0
M  V30 3 C 1.6682 1.2472 -0.6633 0
M  V30 4 C 1.3508 -1.1288 0.1631 0
M  V30 5 C -1.0657 1.7837 -0.6379 0
M  V30 6 C -1.6338 -0.4423 0.4351 0
M  V30 7 C 1.1946 2.483 -1.0982 0
M  V30 8 C 2.4508 -1.6233 -0.7917 0
M  V30 9 C 1.8624 -1.0907 1.6064 0
M  V30 10 C -0.1702 2.7414 -1.1082 0
M  V30 11 C -2.6985 0.2366 1.314 0
M  V30 12 C -2.2919 -1.2409 -0.694 0
M  V30 13 H 2.7367 1.086 -0.6736 0
M  V30 14 H 0.5657 -1.907 0.093 0
M  V30 15 H -2.1189 2.0256 -0.6607 0
M  V30 16 H -1.1358 -1.1554 1.1209 0
M  V30 17 H 1.8896 3.2385 -1.4414 0
M  V30 18 H 2.6622 -2.697 -0.5976 0
M  V30 19 H 2.117 -1.5233 -1.8467 0
M  V30 20 H 3.3999 -1.0648 -0.6525 0
M  V30 21 H 1.0448 -0.7909 2.2961 0
M  V30 22 H 2.697 -0.3638 1.7064 0
M  V30 23 H 2.2235 -2.096 1.9117 0
M  V30 24 H -0.5367 3.6936 -1.4698 0
M  V30 25 H -2.2145 0.9173 2.0469 0
M  V30 26 H -3.2647 -0.5333 1.8811 0
M  V30 27 H -3.4297 0.8106 0.7075 0
M  V30 28 H -1.5197 -1.7763 -1.2863 0
M  V30 29 H -2.8568 -0.566 -1.3725 0
M  V30 30 H -2.9915 -1.9944 -0.2732 0
M  V30 END ATOM
M  V30 BEGIN BOND
M  V30 1 2 1 2
M  V30 2 1 1 3
M  V30 3 1 1 4
M  V30 4 1 2 5
M  V30 5 1 2 6
M  V30 6 2 3 7
M  V30 7 1 4 8
M  V30 8 1 4 9
M  V30 9 2 5 10
M  V30 10 1 6 11
M  V30 11 1 6 12
M  V30 12 1 7 10
M  V30 13 1 3 13
M  V30 14 1 4 14
M  V30 15 1 5 15
M  V30 16 1 6 16
M  V30 17 1 7 17
M  V30 18 1 8 18
M  V30 19 1 8 19
M  V30 20 1 8 20
M  V30 21 1 9 21
M  V30 22 1 9 22
M  V30 23 1 9 23
M  V30 24 1 10 24
M  V30 25 1 11 25
M  V30 26 1 11 26
M  V30 27 1 11 27
M  V30 28 1 12 28
M  V30 29 1 12 29
M  V30 30 1 12 30
M  V30 END BOND
M  V30 END CTAB
M  END
>  <Structure No>
255

>  <LogS>
-2.497713585

>  <MMFF94 Energy>
34.163

$$$$
Compound 256
Actelion Java MolfileCreator 2.0

  0  0  0  0  0  0              0 V3000
M  V30 BEGIN CTAB
M  V30 COUNTS 19 19 0 0 0
M  V30 BEGIN ATOM
M  V30 1 O 0.0 -2.0329 0.3906 0
M  V30 2 C -0.0392 -0.663 0.1112 0
M  V30 3 C -1.2897 -0.0148 0.0657 0
M  V30 4 C 1.1448 0.0754 -0.1244 0
M  V30 5 C -1.3524 1.3589 -0.2128 0
M  V30 6 C -2.5531 -0.7903 0.3147 0
M  V30 7 C 1.0563 1.4496 -0.4013 0
M  V30 8 C 2.496 -0.5843 -0.0835 0
M  V30 9 C -0.1847 2.0847 -0.4447 0
M  V30 10 H 0.8595 -2.5641 0.4396 0
M  V30 11 H -2.306 1.8709 -0.2511 0
M  V30 12 H -2.5233 -1.2371 1.3307 0
M  V30 13 H -3.4528 -0.1425 0.2446 0
M  V30 14 H -2.6479 -1.6015 -0.4373 0
M  V30 15 H 1.9495 2.0339 -0.5847 0
M  V30 16 H 2.5458 -1.3857 -0.8502 0
M  V30 17 H 2.6708 -1.0204 0.9223 0
M  V30 18 H 3.3129 0.1394 -0.2903 0
M  V30 19 H -0.2415 3.1442 -0.659 0
M  V30 END ATOM
M  V30 BEGIN BOND
M  V30 1 1 1 2
M  V30 2 2 2 3
M  V30 3 1 2 4
M  V30 4 1 3 5
M  V30 5 1 3 6
M  V30 6 2 4 7
M  V30 7 1 4 8
M  V30 8 2 5 9
M  V30 9 1 7 9
M  V30 10 1 1 10
M  V30 11 1 5 11
M  V30 12 1 6 12
M  V30 13 1 6 13
M  V30 14 1 6 14
M  V30 15 1 7 15
M  V30 16 1 8 16
M  V30 17 1 8 17
M  V30 18 1 8 18
M  V30 19 1 9 19
M  V30 END BOND
M  V30 END CTAB
M  END
>  <Structure No>
256

>  <LogS>
-1.292396158

>  <MMFF94 Energy>
13.652

$$$$
Compound 257
Actelion Java MolfileCreator 2.0

  0  0  0  0  0  0              0 V3000
M  V30 BEGIN CTAB
M  V30 COUNTS 22 22 0 0 0
M  V30 BEGIN ATOM
M  V30 1 O 1.4054 -0.7805 -1.4835 0
M  V30 2 C 0.9854 -0.5517 -0.1609 0 CFG=2
M  V30 3 C -0.5166 -0.3826 -0.136 0
M  V30 4 C 1.6636 0.7084 0.4054 0
M  V30 5 C -1.1616 0.4407 -1.078 0
M  V30 6 C -1.2837 -1.0055 0.865 0
M  V30 7 C 3.1744 0.5338 0.5471 0
M  V30 8 C -2.548 0.6163 -1.0313 0
M  V30 9 C -2.6699 -0.8267 0.9072 0
M  V30 10 C -3.3018 -0.0183 -0.041 0
M  V30 11 H 2.2167 -1.3509 -1.4406 0
M  V30 12 H 1.2593 -1.4255 0.4786 0
M  V30 13 H 1.4607 1.579 -0.2559 0
M  V30 14 H 1.2427 0.9332 1.4104 0
M  V30 15 H -0.591 0.9479 -1.8461 0
M  V30 16 H -0.8101 -1.6282 1.6138 0
M  V30 17 H 3.6456 0.3925 -0.4482 0
M  V30 18 H 3.4046 -0.3405 1.1923 0
M  V30 19 H 3.6097 1.4423 1.0141 0
M  V30 20 H -3.0378 1.2479 -1.7614 0
M  V30 21 H -3.2544 -1.3124 1.6779 0
M  V30 22 H -4.3747 0.1197 -0.0056 0
M  V30 END ATOM
M  V30 BEGIN BOND
M  V30 1 1 1 2
M  V30 2 1 2 3
M  V30 3 1 2 4
M  V30 4 2 3 5
M  V30 5 1 3 6
M  V30 6 1 4 7
M  V30 7 1 5 8
M  V30 8 2 6 9
M  V30 9 2 8 10
M  V30 10 1 9 10
M  V30 11 1 1 11
M  V30 12 1 2 12
M  V30 13 1 4 13
M  V30 14 1 4 14
M  V30 15 1 5 15
M  V30 16 1 6 16
M  V30 17 1 7 17
M  V30 18 1 7 18
M  V30 19 1 7 19
M  V30 20 1 8 20
M  V30 21 1 9 21
M  V30 22 1 10 22
M  V30 END BOND
M  V30 BEGIN COLLECTION
M  V30 MDLV30/STEABS ATOMS=(1 2)
M  V30 END COLLECTION
M  V30 END CTAB
M  END
>  <Structure No>
257

>  <LogS>
-2.340367591

>  <MMFF94 Energy>
22.243

$$$$
Compound 258
Actelion Java MolfileCreator 2.0

  0  0  0  0  0  0              0 V3000
M  V30 BEGIN CTAB
M  V30 COUNTS 20 20 0 0 0
M  V30 BEGIN ATOM
M  V30 1 F -3.0082 2.0318 -0.4061 0
M  V30 2 C -3.086 0.7119 0.0032 0
M  V30 3 F -3.9991 0.0614 -0.8089 0
M  V30 4 F -3.5365 0.671 1.3094 0
M  V30 5 C -1.7322 0.0513 -0.0759 0
M  V30 6 C -0.5659 0.7883 0.1982 0
M  V30 7 C -1.6259 -1.3249 -0.332 0
M  V30 8 C 0.7023 0.1751 0.1726 0
M  V30 9 C -0.3751 -1.9422 -0.3599 0
M  V30 10 C 1.924 0.9781 0.4517 0
M  V30 11 C 0.7821 -1.2008 -0.1149 0
M  V30 12 O 1.82 2.2097 0.7032 0
M  V30 13 C 3.2933 0.3671 0.4439 0
M  V30 14 H -0.6497 1.8421 0.4345 0
M  V30 15 H -2.51 -1.9244 -0.5089 0
M  V30 16 H -0.3024 -3.002 -0.5672 0
M  V30 17 H 1.7339 -1.7134 -0.1444 0
M  V30 18 H 3.3527 -0.4349 1.209 0
M  V30 19 H 4.0633 1.1328 0.6782 0
M  V30 20 H 3.5123 -0.0546 -0.5591 0
M  V30 END ATOM
M  V30 BEGIN BOND
M  V30 1 1 1 2
M  V30 2 1 2 3
M  V30 3 1 2 4
M  V30 4 1 2 5
M  V30 5 2 5 6
M  V30 6 1 5 7
M  V30 7 1 6 8
M  V30 8 2 7 9
M  V30 9 1 8 10
M  V30 10 2 8 11
M  V30 11 2 10 12
M  V30 12 1 10 13
M  V30 13 1 9 11
M  V30 14 1 6 14
M  V30 15 1 7 15
M  V30 16 1 9 16
M  V30 17 1 11 17
M  V30 18 1 13 18
M  V30 19 1 13 19
M  V30 20 1 13 20
M  V30 END BOND
M  V30 END CTAB
M  END
>  <Structure No>
258

>  <LogS>
-2.482107917

>  <MMFF94 Energy>
58.03

$$$$
Compound 259
Actelion Java MolfileCreator 2.0

  0  0  0  0  0  0              0 V3000
M  V30 BEGIN CTAB
M  V30 COUNTS 14 14 0 0 0
M  V30 BEGIN ATOM
M  V30 1 Cl -1.2521 -2.5889 -0.5007 0
M  V30 2 C -0.3218 -1.119 -0.2378 0
M  V30 3 C -0.945 0.113 0.0531 0
M  V30 4 C 1.0743 -1.1906 -0.3231 0
M  V30 5 N -2.3705 0.2234 0.1482 0
M  V30 6 C -0.152 1.2538 0.2536 0
M  V30 7 C 1.8541 -0.0479 -0.1217 0
M  V30 8 C 1.24 1.1734 0.1665 0
M  V30 9 Cl 3.602 -0.1473 -0.2305 0
M  V30 10 H 1.5536 -2.1355 -0.5462 0
M  V30 11 H -2.9989 -0.5972 0.0069 0
M  V30 12 H -2.8178 1.1422 0.3642 0
M  V30 13 H -0.6141 2.2071 0.4776 0
M  V30 14 H 1.8397 2.0609 0.3233 0
M  V30 END ATOM
M  V30 BEGIN BOND
M  V30 1 1 1 2
M  V30 2 2 2 3
M  V30 3 1 2 4
M  V30 4 1 3 5
M  V30 5 1 3 6
M  V30 6 2 4 7
M  V30 7 2 6 8
M  V30 8 1 7 9
M  V30 9 1 7 8
M  V30 10 1 4 10
M  V30 11 1 5 11
M  V30 12 1 5 12
M  V30 13 1 6 13
M  V30 14 1 8 14
M  V30 END BOND
M  V30 END CTAB
M  END
>  <Structure No>
259

>  <LogS>
-2.417174258

>  <MMFF94 Energy>
21.619

$$$$
Compound 260
Actelion Java MolfileCreator 2.0

  0  0  0  0  0  0              0 V3000
M  V30 BEGIN CTAB
M  V30 COUNTS 34 35 0 0 0
M  V30 BEGIN ATOM
M  V30 1 O 3.527 -1.1212 0.2401 0
M  V30 2 C 3.1291 0.0724 0.154 0
M  V30 3 O 1.7754 0.3885 0.3058 0
M  V30 4 C 4.1171 1.1669 -0.0634 0
M  V30 5 C 0.7602 -0.596 0.5098 0 CFG=1
M  V30 6 C -0.6324 0.054 0.7671 0 CFG=1
M  V30 7 C 0.4984 -1.4318 -0.7667 0
M  V30 8 C -1.2009 0.2934 -0.6525 0
M  V30 9 C -1.532 -1.091 1.3103 0
M  V30 10 C -0.5978 1.2766 1.6957 0
M  V30 11 C -1.0057 -1.1796 -1.0461 0 CFG=2
M  V30 12 C -2.6867 0.7697 -0.7029 0
M  V30 13 C -0.4078 1.2935 -1.5488 0
M  V30 14 C -1.7832 -1.9465 0.0519 0
M  V30 15 H 4.5651 1.4592 0.9089 0
M  V30 16 H 4.9198 0.8253 -0.7504 0
M  V30 17 H 3.6123 2.0483 -0.5121 0
M  V30 18 H 1.0644 -1.2492 1.3593 0
M  V30 19 H 1.1239 -1.1045 -1.6238 0
M  V30 20 H 0.7159 -2.5085 -0.5929 0
M  V30 21 H -1.0325 -1.6832 2.1085 0
M  V30 22 H -2.4854 -0.7085 1.7337 0
M  V30 23 H -1.6238 1.6654 1.8657 0
M  V30 24 H -0.1617 0.992 2.6766 0
M  V30 25 H 0.0186 2.0884 1.2572 0
M  V30 26 H -1.3197 -1.4357 -2.0808 0
M  V30 27 H -3.3885 0.1927 -0.0742 0
M  V30 28 H -2.7593 1.828 -0.3728 0
M  V30 29 H -3.0654 0.7079 -1.7456 0
M  V30 30 H -0.4684 2.318 -1.1244 0
M  V30 31 H 0.6603 1.0599 -1.6915 0
M  V30 32 H -0.8531 1.3188 -2.5666 0
M  V30 33 H -1.41 -2.9857 0.1855 0
M  V30 34 H -2.8658 -2.0044 -0.1909 0
M  V30 END ATOM
M  V30 BEGIN BOND
M  V30 1 2 1 2
M  V30 2 1 2 3
M  V30 3 1 2 4
M  V30 4 1 3 5
M  V30 5 1 5 6
M  V30 6 1 5 7
M  V30 7 1 6 8
M  V30 8 1 6 9
M  V30 9 1 6 10
M  V30 10 1 7 11
M  V30 11 1 8 12
M  V30 12 1 8 13
M  V30 13 1 9 14
M  V30 14 1 8 11
M  V30 15 1 11 14
M  V30 16 1 4 15
M  V30 17 1 4 16
M  V30 18 1 4 17
M  V30 19 1 5 18
M  V30 20 1 7 19
M  V30 21 1 7 20
M  V30 22 1 9 21
M  V30 23 1 9 22
M  V30 24 1 10 23
M  V30 25 1 10 24
M  V30 26 1 10 25
M  V30 27 1 11 26
M  V30 28 1 12 27
M  V30 29 1 12 28
M  V30 30 1 12 29
M  V30 31 1 13 30
M  V30 32 1 13 31
M  V30 33 1 13 32
M  V30 34 1 14 33
M  V30 35 1 14 34
M  V30 END BOND
M  V30 BEGIN COLLECTION
M  V30 MDLV30/STEABS ATOMS=(3 5 6 11)
M  V30 END COLLECTION
M  V30 END CTAB
M  END
>  <Structure No>
260

>  <LogS>
-3.496323842

>  <MMFF94 Energy>
45.291

$$$$
Compound 261
Actelion Java MolfileCreator 2.0

  0  0  0  0  0  0              0 V3000
M  V30 BEGIN CTAB
M  V30 COUNTS 37 38 0 0 0
M  V30 BEGIN ATOM
M  V30 1 S -5.5641 -0.4973 -0.3315 0
M  V30 2 O -6.3815 -1.0807 -1.4498 0
M  V30 3 O -6.0081 0.9223 -0.1089 0
M  V30 4 N -5.8251 -1.4303 1.1147 0
M  V30 5 C -3.8615 -0.5357 -0.7831 0
M  V30 6 N -5.0403 -0.9121 2.1641 0
M  V30 7 C -3.3324 -1.6687 -1.4139 0
M  V30 8 C -3.024 0.551 -0.4972 0
M  V30 9 C -1.9783 -1.7147 -1.7583 0
M  V30 10 C -1.6701 0.5048 -0.8411 0
M  V30 11 C -1.1343 -0.6387 -1.4608 0
M  V30 12 O 0.2159 -0.7178 -1.8332 0
M  V30 13 C 1.283 -0.1022 -1.162 0
M  V30 14 C 2.4211 0.2551 -1.8945 0
M  V30 15 C 1.2629 0.1171 0.2273 0
M  V30 16 C 3.5143 0.8534 -1.26 0
M  V30 17 C 2.3521 0.722 0.8608 0
M  V30 18 C 3.4808 1.0957 0.1204 0
M  V30 19 S 4.8491 1.8442 0.9396 0
M  V30 20 O 4.3902 3.1232 1.5807 0
M  V30 21 O 5.9396 2.163 -0.0463 0
M  V30 22 N 5.4682 0.775 2.1671 0
M  V30 23 N 5.883 -0.4366 1.5791 0
M  V30 24 H -6.8278 -1.3103 1.3865 0
M  V30 25 H -4.0331 -1.0636 1.9289 0
M  V30 26 H -5.2148 0.1159 2.2605 0
M  V30 27 H -3.9672 -2.5174 -1.6365 0
M  V30 28 H -3.4163 1.4342 -0.01 0
M  V30 29 H -1.581 -2.595 -2.2465 0
M  V30 30 H -1.0466 1.3659 -0.6386 0
M  V30 31 H 2.4572 0.0698 -2.9606 0
M  V30 32 H 0.4174 -0.1986 0.8237 0
M  V30 33 H 4.3834 1.122 -1.8463 0
M  V30 34 H 2.3232 0.8848 1.9307 0
M  V30 35 H 6.3164 1.2285 2.5783 0
M  V30 36 H 5.0378 -0.9294 1.2099 0
M  V30 37 H 6.5314 -0.2382 0.7814 0
M  V30 END ATOM
M  V30 BEGIN BOND
M  V30 1 2 1 2
M  V30 2 2 1 3
M  V30 3 1 1 4
M  V30 4 1 1 5
M  V30 5 1 4 6
M  V30 6 2 5 7
M  V30 7 1 5 8
M  V30 8 1 7 9
M  V30 9 2 8 10
M  V30 10 2 9 11
M  V30 11 1 11 12
M  V30 12 1 12 13
M  V30 13 2 13 14
M  V30 14 1 13 15
M  V30 15 1 14 16
M  V30 16 2 15 17
M  V30 17 2 16 18
M  V30 18 1 18 19
M  V30 19 2 19 20
M  V30 20 2 19 21
M  V30 21 1 19 22
M  V30 22 1 22 23
M  V30 23 1 10 11
M  V30 24 1 17 18
M  V30 25 1 4 24
M  V30 26 1 6 25
M  V30 27 1 6 26
M  V30 28 1 7 27
M  V30 29 1 8 28
M  V30 30 1 9 29
M  V30 31 1 10 30
M  V30 32 1 14 31
M  V30 33 1 15 32
M  V30 34 1 16 33
M  V30 35 1 17 34
M  V30 36 1 22 35
M  V30 37 1 23 36
M  V30 38 1 23 37
M  V30 END BOND
M  V30 END CTAB
M  END
>  <Structure No>
261

>  <LogS>
-3.758489195

>  <MMFF94 Energy>
188.66

$$$$
Compound 262
Actelion Java MolfileCreator 2.0

  0  0  0  0  0  0              0 V3000
M  V30 BEGIN CTAB
M  V30 COUNTS 26 25 0 0 0
M  V30 BEGIN ATOM
M  V30 1 C 2.5315 -0.9199 0.8432 0
M  V30 2 C 3.4733 -0.0135 0.1561 0
M  V30 3 C 1.4002 -1.385 0.2954 0
M  V30 4 C 4.5639 0.4326 0.7725 0
M  V30 5 C 0.906 -1.0356 -1.0849 0
M  V30 6 C 0.2861 0.3692 -1.1405 0
M  V30 7 C -0.9229 0.4922 -0.2513 0
M  V30 8 C -2.0767 -0.1275 -0.5422 0
M  V30 9 C -3.2809 -0.0093 0.3505 0
M  V30 10 C -3.8947 1.3859 0.2745 0
M  V30 11 H 2.7711 -1.2436 1.8498 0
M  V30 12 H 3.2982 0.301 -0.8637 0
M  V30 13 H 0.799 -2.0724 0.8784 0
M  V30 14 H 4.7892 0.1476 1.793 0
M  V30 15 H 5.2457 1.0944 0.2543 0
M  V30 16 H 0.1416 -1.783 -1.3885 0
M  V30 17 H 1.733 -1.1179 -1.8216 0
M  V30 18 H -0.0035 0.6019 -2.1882 0
M  V30 19 H 1.0365 1.1266 -0.8311 0
M  V30 20 H -0.8532 1.1191 0.6336 0
M  V30 21 H -2.1463 -0.7551 -1.4264 0
M  V30 22 H -4.0422 -0.7517 0.0283 0
M  V30 23 H -2.9976 -0.2409 1.4002 0
M  V30 24 H -3.1757 2.1491 0.6405 0
M  V30 25 H -4.181 1.6237 -0.7722 0
M  V30 26 H -4.8046 1.4257 0.9097 0
M  V30 END ATOM
M  V30 BEGIN BOND
M  V30 1 1 1 2
M  V30 2 2 1 3
M  V30 3 2 2 4
M  V30 4 1 3 5
M  V30 5 1 5 6
M  V30 6 1 6 7
M  V30 7 2 7 8
M  V30 8 1 8 9
M  V30 9 1 9 10
M  V30 10 1 1 11
M  V30 11 1 2 12
M  V30 12 1 3 13
M  V30 13 1 4 14
M  V30 14 1 4 15
M  V30 15 1 5 16
M  V30 16 1 5 17
M  V30 17 1 6 18
M  V30 18 1 6 19
M  V30 19 1 7 20
M  V30 20 1 8 21
M  V30 21 1 9 22
M  V30 22 1 9 23
M  V30 23 1 10 24
M  V30 24 1 10 25
M  V30 25 1 10 26
M  V30 END BOND
M  V30 END CTAB
M  END
>  <Structure No>
262

>  <LogS>
-3.34190657

>  <MMFF94 Energy>
16.693

$$$$
Compound 263
Actelion Java MolfileCreator 2.0

  0  0  0  0  0  0              0 V3000
M  V30 BEGIN CTAB
M  V30 COUNTS 14 13 0 0 0
M  V30 BEGIN ATOM
M  V30 1 O -2.35 -0.0757 -0.9091 0
M  V30 2 C -1.9574 0.0134 0.4336 0
M  V30 3 C -0.4842 0.2895 0.5331 0
M  V30 4 C 0.4204 -0.5861 0.0729 0
M  V30 5 C 1.891 -0.317 0.1858 0
M  V30 6 O 2.2259 0.8055 -0.5811 0
M  V30 7 H -2.3541 0.8512 -1.2655 0
M  V30 8 H -2.1888 -0.9455 0.9438 0
M  V30 9 H -2.5274 0.819 0.9492 0
M  V30 10 H -0.1563 1.2147 0.9999 0
M  V30 11 H 0.0918 -1.5179 -0.3796 0
M  V30 12 H 2.1562 -0.1458 1.2532 0
M  V30 13 H 2.4513 -1.2037 -0.1846 0
M  V30 14 H 3.202 0.9389 -0.4607 0
M  V30 END ATOM
M  V30 BEGIN BOND
M  V30 1 1 1 2
M  V30 2 1 2 3
M  V30 3 2 3 4
M  V30 4 1 4 5
M  V30 5 1 5 6
M  V30 6 1 1 7
M  V30 7 1 2 8
M  V30 8 1 2 9
M  V30 9 1 3 10
M  V30 10 1 4 11
M  V30 11 1 5 12
M  V30 12 1 5 13
M  V30 13 1 6 14
M  V30 END BOND
M  V30 END CTAB
M  END
>  <Structure No>
263

>  <LogS>
0.846685164

>  <MMFF94 Energy>
-11.452

$$$$
Compound 264
Actelion Java MolfileCreator 2.0

  0  0  0  0  0  0              0 V3000
M  V30 BEGIN CTAB
M  V30 COUNTS 39 38 0 0 0
M  V30 BEGIN ATOM
M  V30 1 O -2.3418 -1.6388 -0.0779 0
M  V30 2 C -3.2555 -1.4346 -0.9242 0
M  V30 3 O -2.9648 -0.7798 -2.1287 0
M  V30 4 C -4.6327 -1.8967 -0.6431 0
M  V30 5 C -1.6755 -0.2612 -2.4487 0
M  V30 6 C -5.5954 -1.7617 -1.5617 0
M  V30 7 C -4.9339 -2.5907 0.6577 0
M  V30 8 C -1.414 1.0386 -1.6843 0
M  V30 9 O -0.1611 1.5838 -2.0558 0
M  V30 10 C 0.8674 1.1453 -1.1871 0
M  V30 11 C 1.0654 2.1481 -0.0476 0
M  V30 12 O 2.1428 1.7421 0.7742 0
M  V30 13 C 1.6676 1.0366 1.9026 0
M  V30 14 C 2.8416 0.3843 2.6259 0
M  V30 15 O 3.3996 -0.6352 1.8165 0
M  V30 16 C 4.6653 -0.2476 1.3258 0
M  V30 17 C 5.1746 -1.3096 0.3641 0
M  V30 18 H -0.8932 -1.0177 -2.2238 0
M  V30 19 H -1.6418 -0.0492 -3.5383 0
M  V30 20 H -6.5984 -2.1251 -1.3753 0
M  V30 21 H -5.404 -1.2896 -2.5168 0
M  V30 22 H -4.4134 -2.0792 1.4946 0
M  V30 23 H -6.0223 -2.5831 0.8835 0
M  V30 24 H -4.5856 -3.6433 0.6037 0
M  V30 25 H -1.514 0.8785 -0.5855 0
M  V30 26 H -2.2012 1.7701 -1.9642 0
M  V30 27 H 0.6953 0.1198 -0.785 0
M  V30 28 H 1.8098 1.0933 -1.7726 0
M  V30 29 H 1.3267 3.132 -0.4918 0
M  V30 30 H 0.1129 2.3024 0.5129 0
M  V30 31 H 0.9458 0.2369 1.6154 0
M  V30 32 H 1.1678 1.7416 2.6042 0
M  V30 33 H 2.4568 -0.0889 3.5541 0
M  V30 34 H 3.5667 1.1699 2.95 0
M  V30 35 H 5.3919 -0.1532 2.1643 0
M  V30 36 H 4.6038 0.719 0.7758 0
M  V30 37 H 4.4722 -1.4155 -0.4898 0
M  V30 38 H 5.2627 -2.2854 0.8871 0
M  V30 39 H 6.1729 -1.0173 -0.0241 0
M  V30 END ATOM
M  V30 BEGIN BOND
M  V30 1 2 1 2
M  V30 2 1 2 3
M  V30 3 1 2 4
M  V30 4 1 3 5
M  V30 5 2 4 6
M  V30 6 1 4 7
M  V30 7 1 5 8
M  V30 8 1 8 9
M  V30 9 1 9 10
M  V30 10 1 10 11
M  V30 11 1 11 12
M  V30 12 1 12 13
M  V30 13 1 13 14
M  V30 14 1 14 15
M  V30 15 1 15 16
M  V30 16 1 16 17
M  V30 17 1 5 18
M  V30 18 1 5 19
M  V30 19 1 6 20
M  V30 20 1 6 21
M  V30 21 1 7 22
M  V30 22 1 7 23
M  V30 23 1 7 24
M  V30 24 1 8 25
M  V30 25 1 8 26
M  V30 26 1 10 27
M  V30 27 1 10 28
M  V30 28 1 11 29
M  V30 29 1 11 30
M  V30 30 1 13 31
M  V30 31 1 13 32
M  V30 32 1 14 33
M  V30 33 1 14 34
M  V30 34 1 16 35
M  V30 35 1 16 36
M  V30 36 1 17 37
M  V30 37 1 17 38
M  V30 38 1 17 39
M  V30 END BOND
M  V30 END CTAB
M  END
>  <Structure No>
264

>  <LogS>
-0.603011426

>  <MMFF94 Energy>
63.804

$$$$
Compound 265
Actelion Java MolfileCreator 2.0

  0  0  0  0  0  0              0 V3000
M  V30 BEGIN CTAB
M  V30 COUNTS 30 31 0 0 0
M  V30 BEGIN ATOM
M  V30 1 S -1.2384 2.1472 0.7429 0
M  V30 2 C -2.0053 0.5808 1.3458 0 CFG=2
M  V30 3 C -0.4382 1.5107 -0.7877 0
M  V30 4 N -1.5309 -0.5543 0.594 0
M  V30 5 C -3.3971 0.3049 1.041 0 CFG=2
M  V30 6 C 0.3597 0.2345 -0.5738 0
M  V30 7 C -0.2716 -0.8209 -0.0108 0
M  V30 8 C -2.9371 -0.9325 0.3252 0
M  V30 9 N -4.0514 1.2526 0.1314 0 CHG=1
M  V30 10 C 1.7825 0.1775 -1.0754 0
M  V30 11 C 0.2665 -2.1996 0.0784 0
M  V30 12 O -3.5054 -1.8707 -0.2916 0
M  V30 13 O 2.6564 -0.1708 -0.0059 0
M  V30 14 O -0.2989 -3.0332 0.8342 0
M  V30 15 O 1.3563 -2.6167 -0.6747 0 CHG=-1
M  V30 16 C 4.0342 -0.3279 -0.1776 0
M  V30 17 O 4.5632 -0.1809 -1.3129 0
M  V30 18 C 4.8783 -0.7249 0.9851 0
M  V30 19 H -1.7852 0.4401 2.4275 0
M  V30 20 H 0.2001 2.322 -1.194 0
M  V30 21 H -1.2275 1.3129 -1.5431 0
M  V30 22 H -4.0154 0.0719 1.9366 0
M  V30 23 H -4.1512 2.1793 0.6053 0
M  V30 24 H -5.0082 0.8958 -0.0933 0
M  V30 25 H -3.5226 1.3655 -0.7638 0
M  V30 26 H 2.097 1.1607 -1.4863 0
M  V30 27 H 1.8633 -0.5583 -1.9027 0
M  V30 28 H 4.3853 -0.4213 1.9323 0
M  V30 29 H 5.0155 -1.8261 0.9828 0
M  V30 30 H 5.8707 -0.2307 0.9228 0
M  V30 END ATOM
M  V30 BEGIN BOND
M  V30 1 1 1 2
M  V30 2 1 1 3
M  V30 3 1 2 4
M  V30 4 1 2 5
M  V30 5 1 3 6
M  V30 6 1 4 7
M  V30 7 1 4 8
M  V30 8 1 5 9
M  V30 9 1 6 10
M  V30 10 1 7 11
M  V30 11 2 8 12
M  V30 12 1 10 13
M  V30 13 2 11 14
M  V30 14 1 11 15
M  V30 15 1 13 16
M  V30 16 2 16 17
M  V30 17 1 16 18
M  V30 18 1 5 8
M  V30 19 2 6 7
M  V30 20 1 2 19
M  V30 21 1 3 20
M  V30 22 1 3 21
M  V30 23 1 5 22
M  V30 24 1 9 23
M  V30 25 1 9 24
M  V30 26 1 9 25
M  V30 27 1 10 26
M  V30 28 1 10 27
M  V30 29 1 18 28
M  V30 30 1 18 29
M  V30 31 1 18 30
M  V30 END BOND
M  V30 BEGIN COLLECTION
M  V30 MDLV30/STEABS ATOMS=(2 2 5)
M  V30 END COLLECTION
M  V30 END CTAB
M  END
>  <Structure No>
265

>  <LogS>
-2.648977722

>  <MMFF94 Energy>
-21.092

$$$$
Compound 266
Actelion Java MolfileCreator 2.0

  0  0  0  0  0  0              0 V3000
M  V30 BEGIN CTAB
M  V30 COUNTS 31 30 0 0 0
M  V30 BEGIN ATOM
M  V30 1 O 5.3292 1.9566 2.1916 0
M  V30 2 C 5.1345 1.4596 1.0514 0
M  V30 3 O 5.6846 2.0699 -0.0685 0 CHG=-1
M  V30 4 C 4.2712 0.2479 0.8958 0
M  V30 5 C 2.8096 0.6541 0.6857 0
M  V30 6 C 1.9142 -0.5793 0.5199 0
M  V30 7 C 0.4503 -0.1736 0.3105 0
M  V30 8 C -0.443 -1.4104 0.1334 0
M  V30 9 C -1.9359 -1.0543 0.0508 0
M  V30 10 C -2.2978 -0.3214 -1.2528 0
M  V30 11 C -3.8156 -0.1965 -1.4555 0
M  V30 12 C -4.4676 0.7597 -0.4573 0
M  V30 13 H 4.3608 -0.3878 1.8038 0
M  V30 14 H 4.6282 -0.3408 0.0233 0
M  V30 15 H 2.4627 1.2457 1.5621 0
M  V30 16 H 2.732 1.2905 -0.2236 0
M  V30 17 H 2.2605 -1.1704 -0.3564 0
M  V30 18 H 1.9935 -1.2155 1.4291 0
M  V30 19 H 0.3818 0.4688 -0.5931 0
M  V30 20 H 0.1025 0.4114 1.1902 0
M  V30 21 H -0.3001 -2.0849 1.006 0
M  V30 22 H -0.1382 -1.9704 -0.7775 0
M  V30 23 H -2.2147 -0.4341 0.9295 0
M  V30 24 H -2.5162 -2.0011 0.1067 0
M  V30 25 H -1.8432 0.6922 -1.2626 0
M  V30 26 H -1.8832 -0.8879 -2.1149 0
M  V30 27 H -4.0024 0.1896 -2.4809 0
M  V30 28 H -4.2958 -1.1964 -1.3814 0
M  V30 29 H -3.9677 1.7513 -0.4851 0
M  V30 30 H -5.5374 0.8961 -0.7217 0
M  V30 31 H -4.4161 0.348 0.5718 0
M  V30 END ATOM
M  V30 BEGIN BOND
M  V30 1 2 1 2
M  V30 2 1 2 3
M  V30 3 1 2 4
M  V30 4 1 4 5
M  V30 5 1 5 6
M  V30 6 1 6 7
M  V30 7 1 7 8
M  V30 8 1 8 9
M  V30 9 1 9 10
M  V30 10 1 10 11
M  V30 11 1 11 12
M  V30 12 1 4 13
M  V30 13 1 4 14
M  V30 14 1 5 15
M  V30 15 1 5 16
M  V30 16 1 6 17
M  V30 17 1 6 18
M  V30 18 1 7 19
M  V30 19 1 7 20
M  V30 20 1 8 21
M  V30 21 1 8 22
M  V30 22 1 9 23
M  V30 23 1 9 24
M  V30 24 1 10 25
M  V30 25 1 10 26
M  V30 26 1 11 27
M  V30 27 1 11 28
M  V30 28 1 12 29
M  V30 29 1 12 30
M  V30 30 1 12 31
M  V30 END BOND
M  V30 END CTAB
M  END
>  <Structure No>
266

>  <LogS>
-3.445216137

>  <MMFF94 Energy>
1.3093

$$$$
Compound 267
Actelion Java MolfileCreator 2.0

  0  0  0  0  0  0              0 V3000
M  V30 BEGIN CTAB
M  V30 COUNTS 14 13 0 0 0
M  V30 BEGIN ATOM
M  V30 1 C 0.0755 -0.0755 0.3776 0
M  V30 2 C 0.2827 1.4014 0.0255 0
M  V30 3 C 1.0423 -0.9601 -0.4166 0
M  V30 4 C -1.3756 -0.4934 0.1171 0
M  V30 5 H 0.2887 -0.2097 1.4611 0
M  V30 6 H 1.3276 1.705 0.2489 0
M  V30 7 H 0.0793 1.5805 -1.0522 0
M  V30 8 H -0.3981 2.0381 0.6298 0
M  V30 9 H 0.9089 -2.0252 -0.1309 0
M  V30 10 H 0.8631 -0.856 -1.5084 0
M  V30 11 H 2.0925 -0.6727 -0.1964 0
M  V30 12 H -2.068 0.1301 0.7221 0
M  V30 13 H -1.6318 -0.3745 -0.9576 0
M  V30 14 H -1.5258 -1.5554 0.4065 0
M  V30 END ATOM
M  V30 BEGIN BOND
M  V30 1 1 1 2
M  V30 2 1 1 3
M  V30 3 1 1 4
M  V30 4 1 1 5
M  V30 5 1 2 6
M  V30 6 1 2 7
M  V30 7 1 2 8
M  V30 8 1 3 9
M  V30 9 1 3 10
M  V30 10 1 3 11
M  V30 11 1 4 12
M  V30 12 1 4 13
M  V30 13 1 4 14
M  V30 END BOND
M  V30 END CTAB
M  END
>  <Structure No>
267

>  <LogS>
-2.977604072

>  <MMFF94 Energy>
-0.47752

$$$$
Compound 268
Actelion Java MolfileCreator 2.0

  0  0  0  0  0  0              0 V3000
M  V30 BEGIN CTAB
M  V30 COUNTS 14 13 0 0 0
M  V30 BEGIN ATOM
M  V30 1 C -0.8305 -0.3774 -0.4529 0
M  V30 2 C 0.6541 -0.7034 -0.2334 0
M  V30 3 C -1.4642 0.3226 0.7486 0
M  V30 4 C 1.5371 0.5438 -0.229 0
M  V30 5 H -1.3766 -1.3292 -0.6295 0
M  V30 6 H -0.9539 0.2538 -1.3596 0
M  V30 7 H 0.993 -1.3676 -1.0576 0
M  V30 8 H 0.7871 -1.2576 0.721 0
M  V30 9 H -2.5554 0.435 0.5768 0
M  V30 10 H -1.3122 -0.2758 1.672 0
M  V30 11 H -1.0304 1.3344 0.8878 0
M  V30 12 H 1.3142 1.1799 0.6524 0
M  V30 13 H 2.6037 0.2401 -0.1755 0
M  V30 14 H 1.3837 1.1319 -1.1586 0
M  V30 END ATOM
M  V30 BEGIN BOND
M  V30 1 1 1 2
M  V30 2 1 1 3
M  V30 3 1 2 4
M  V30 4 1 1 5
M  V30 5 1 1 6
M  V30 6 1 2 7
M  V30 7 1 2 8
M  V30 8 1 3 9
M  V30 9 1 3 10
M  V30 10 1 3 11
M  V30 11 1 4 12
M  V30 12 1 4 13
M  V30 13 1 4 14
M  V30 END BOND
M  V30 END CTAB
M  END
>  <Structure No>
268

>  <LogS>
-2.977604072

>  <MMFF94 Energy>
-5.076

$$$$
Compound 269
Actelion Java MolfileCreator 2.0

  0  0  0  0  0  0              0 V3000
M  V30 BEGIN CTAB
M  V30 COUNTS 8 7 0 0 0
M  V30 BEGIN ATOM
M  V30 1 C -0.7307 -0.073 0.073 0
M  V30 2 C 0.7677 0.0781 -0.1271 0
M  V30 3 H -1.0702 -1.0442 -0.3446 0
M  V30 4 H -0.9711 -0.0389 1.1566 0
M  V30 5 H -1.2647 0.7519 -0.444 0
M  V30 6 H 1.107 1.0494 0.2906 0
M  V30 7 H 1.3015 -0.7467 0.39 0
M  V30 8 H 1.0079 0.0442 -1.2106 0
M  V30 END ATOM
M  V30 BEGIN BOND
M  V30 1 1 1 2
M  V30 2 1 1 3
M  V30 3 1 1 4
M  V30 4 1 1 5
M  V30 5 1 2 6
M  V30 6 1 2 7
M  V30 7 1 2 8
M  V30 END BOND
M  V30 END CTAB
M  END
>  <Structure No>
269

>  <LogS>
-2.691382006

>  <MMFF94 Energy>
-4.7344

$$$$
Compound 270
Actelion Java MolfileCreator 2.0

  0  0  0  0  0  0              0 V3000
M  V30 BEGIN CTAB
M  V30 COUNTS 31 32 0 0 0
M  V30 BEGIN ATOM
M  V30 1 O 4.7338 -1.7631 -0.8812 0
M  V30 2 C 4.0806 -1.2179 -0.0065 0
M  V30 3 C 2.7198 -0.6707 -0.3204 0
M  V30 4 C 2.0768 -0.0376 0.9175 0
M  V30 5 C 0.7036 0.4882 0.5963 0
M  V30 6 C 0.5204 1.6161 -0.1534 0
M  V30 7 C -0.5634 -0.2022 1.1218 0 CFG=2
M  V30 8 C -0.9179 2.0769 -0.4622 0
M  V30 9 C -1.5777 -0.3631 -0.0406 0
M  V30 10 C -1.4414 0.9367 1.6758 0
M  V30 11 C -1.9489 1.1209 0.2311 0 CFG=1
M  V30 12 C -1.0353 -0.7507 -1.4451 0
M  V30 13 C -2.7334 -1.331 0.3179 0
M  V30 14 H 4.4971 -1.1365 0.993 0
M  V30 15 H 2.8177 0.0896 -1.1252 0
M  V30 16 H 2.0763 -1.4985 -0.6903 0
M  V30 17 H 2.0021 -0.802 1.7213 0
M  V30 18 H 2.7101 0.7945 1.2959 0
M  V30 19 H 1.3657 2.1706 -0.5485 0
M  V30 20 H -0.4213 -1.0777 1.7915 0
M  V30 21 H -1.0582 3.1114 -0.0831 0
M  V30 22 H -1.0853 2.0872 -1.5595 0
M  V30 23 H -0.8975 1.8039 2.118 0
M  V30 24 H -2.2311 0.5759 2.3696 0
M  V30 25 H -3.02 1.3982 0.1269 0
M  V30 26 H -0.6998 -1.8094 -1.433 0
M  V30 27 H -1.8474 -0.6502 -2.1958 0
M  V30 28 H -0.1814 -0.1517 -1.8083 0
M  V30 29 H -3.5396 -1.255 -0.4425 0
M  V30 30 H -3.1871 -1.1232 1.3077 0
M  V30 31 H -2.3597 -2.3769 0.3335 0
M  V30 END ATOM
M  V30 BEGIN BOND
M  V30 1 2 1 2
M  V30 2 1 2 3
M  V30 3 1 3 4
M  V30 4 1 4 5
M  V30 5 2 5 6
M  V30 6 1 5 7
M  V30 7 1 6 8
M  V30 8 1 7 9
M  V30 9 1 7 10
M  V30 10 1 8 11
M  V30 11 1 9 12
M  V30 12 1 9 13
M  V30 13 1 9 11
M  V30 14 1 10 11
M  V30 15 1 2 14
M  V30 16 1 3 15
M  V30 17 1 3 16
M  V30 18 1 4 17
M  V30 19 1 4 18
M  V30 20 1 6 19
M  V30 21 1 7 20
M  V30 22 1 8 21
M  V30 23 1 8 22
M  V30 24 1 10 23
M  V30 25 1 10 24
M  V30 26 1 11 25
M  V30 27 1 12 26
M  V30 28 1 12 27
M  V30 29 1 12 28
M  V30 30 1 13 29
M  V30 31 1 13 30
M  V30 32 1 13 31
M  V30 END BOND
M  V30 BEGIN COLLECTION
M  V30 MDLV30/STEABS ATOMS=(2 7 11)
M  V30 END COLLECTION
M  V30 END CTAB
M  END
>  <Structure No>
270

>  <LogS>
-3.46576061

>  <MMFF94 Energy>
35.206

$$$$
Compound 271
Actelion Java MolfileCreator 2.0

  0  0  0  0  0  0              0 V3000
M  V30 BEGIN CTAB
M  V30 COUNTS 18 18 0 0 0
M  V30 BEGIN ATOM
M  V30 1 O -3.2004 1.3592 0.0799 0
M  V30 2 C -2.757 0.3011 0.5988 0
M  V30 3 O -2.93 0.0762 1.9588 0 CHG=-1
M  V30 4 C -2.0013 -0.6851 -0.2324 0
M  V30 5 C -0.5333 -0.3603 -0.2129 0
M  V30 6 C 0.2971 -0.8915 0.7876 0
M  V30 7 C 0.0106 0.5187 -1.1639 0
M  V30 8 C 1.6563 -0.565 0.8223 0
M  V30 9 C 1.3702 0.8437 -1.1269 0
M  V30 10 C 2.1966 0.3029 -0.1363 0
M  V30 11 O 3.5491 0.6353 -0.1119 0
M  V30 12 H -2.3862 -0.6699 -1.2756 0
M  V30 13 H -2.1738 -1.7094 0.1634 0
M  V30 14 H -0.1082 -1.5567 1.5401 0
M  V30 15 H -0.6179 0.9526 -1.9319 0
M  V30 16 H 2.2874 -0.9839 1.5958 0
M  V30 17 H 1.7814 1.5188 -1.8667 0
M  V30 18 H 4.1736 0.2609 0.593 0
M  V30 END ATOM
M  V30 BEGIN BOND
M  V30 1 2 1 2
M  V30 2 1 2 3
M  V30 3 1 2 4
M  V30 4 1 4 5
M  V30 5 2 5 6
M  V30 6 1 5 7
M  V30 7 1 6 8
M  V30 8 2 7 9
M  V30 9 2 8 10
M  V30 10 1 10 11
M  V30 11 1 9 10
M  V30 12 1 4 12
M  V30 13 1 4 13
M  V30 14 1 6 14
M  V30 15 1 7 15
M  V30 16 1 8 16
M  V30 17 1 9 17
M  V30 18 1 11 18
M  V30 END BOND
M  V30 END CTAB
M  END
>  <Structure No>
271

>  <LogS>
-0.399080411

>  <MMFF94 Energy>
35.544

$$$$
Compound 272
Actelion Java MolfileCreator 2.0

  0  0  0  0  0  0              0 V3000
M  V30 BEGIN CTAB
M  V30 COUNTS 25 25 0 0 0
M  V30 BEGIN ATOM
M  V30 1 O 2.6039 1.4985 1.0251 0
M  V30 2 C 3.0847 0.4772 0.4634 0
M  V30 3 O 2.6929 0.1199 -0.8314 0
M  V30 4 C 4.123 -0.3299 1.1649 0
M  V30 5 C 1.6937 0.8212 -1.5686 0
M  V30 6 C 0.3296 0.5485 -0.9955 0
M  V30 7 C -0.2292 -0.7336 -1.098 0
M  V30 8 C -0.3836 1.5587 -0.3322 0
M  V30 9 C -1.4883 -1.0019 -0.5523 0
M  V30 10 C -1.6424 1.2902 0.2132 0
M  V30 11 C -2.2059 0.0132 0.1091 0
M  V30 12 O -3.4715 -0.2051 0.6734 0
M  V30 13 C -4.1612 -1.4503 0.6426 0
M  V30 14 H 5.1181 0.1381 1.0165 0
M  V30 15 H 4.1406 -1.3619 0.7561 0
M  V30 16 H 3.8983 -0.379 2.2513 0
M  V30 17 H 1.9239 1.9093 -1.5795 0
M  V30 18 H 1.718 0.4701 -2.6218 0
M  V30 19 H 0.3121 -1.5262 -1.5997 0
M  V30 20 H 0.0336 2.5531 -0.2346 0
M  V30 21 H -1.893 -2.0 -0.6487 0
M  V30 22 H -2.1829 2.0786 0.7216 0
M  V30 23 H -4.3503 -1.7561 -0.408 0
M  V30 24 H -5.1355 -1.3381 1.1608 0
M  V30 25 H -3.5673 -2.2287 1.1666 0
M  V30 END ATOM
M  V30 BEGIN BOND
M  V30 1 2 1 2
M  V30 2 1 2 3
M  V30 3 1 2 4
M  V30 4 1 3 5
M  V30 5 1 5 6
M  V30 6 2 6 7
M  V30 7 1 6 8
M  V30 8 1 7 9
M  V30 9 2 8 10
M  V30 10 2 9 11
M  V30 11 1 11 12
M  V30 12 1 12 13
M  V30 13 1 10 11
M  V30 14 1 4 14
M  V30 15 1 4 15
M  V30 16 1 4 16
M  V30 17 1 5 17
M  V30 18 1 5 18
M  V30 19 1 7 19
M  V30 20 1 8 20
M  V30 21 1 9 21
M  V30 22 1 10 22
M  V30 23 1 13 23
M  V30 24 1 13 24
M  V30 25 1 13 25
M  V30 END BOND
M  V30 END CTAB
M  END
>  <Structure No>
272

>  <LogS>
-2.474006642

>  <MMFF94 Energy>
12.701

$$$$
Compound 273
Actelion Java MolfileCreator 2.0

  0  0  0  0  0  0              0 V3000
M  V30 BEGIN CTAB
M  V30 COUNTS 1 0 0 0 0
M  V30 BEGIN ATOM
M  V30 1 F 0.0 0.0 0.0 0 CHG=-1
M  V30 END ATOM
M  V30 BEGIN BOND
M  V30 END BOND
M  V30 END CTAB
M  END
>  <Structure No>
273

>  <LogS>
1.023394133

>  <MMFF94 Energy>
MMFF94 error code 2

$$$$
Compound 274
Actelion Java MolfileCreator 2.0

  0  0  0  0  0  0              0 V3000
M  V30 BEGIN CTAB
M  V30 COUNTS 24 25 0 0 0
M  V30 BEGIN ATOM
M  V30 1 N -1.1829 -0.7096 0.7885 0 CHG=1
M  V30 2 C -2.5331 -0.6859 0.6185 0
M  V30 3 C -0.3735 -0.0013 -0.0518 0
M  V30 4 N -3.076 0.0495 -0.384 0
M  V30 5 N -3.3843 -1.4243 1.4953 0
M  V30 6 N -0.9327 0.7377 -1.0467 0
M  V30 7 C 1.1023 -0.0092 0.1075 0
M  V30 8 C -2.278 0.7635 -1.2158 0
M  V30 9 C 1.7732 -1.127 0.641 0
M  V30 10 C 1.8592 1.1046 -0.3025 0
M  V30 11 N -2.8516 1.5391 -2.2654 0
M  V30 12 C 3.1651 -1.1189 0.7767 0
M  V30 13 C 3.2504 1.1073 -0.1635 0
M  V30 14 C 3.9026 -0.0022 0.3777 0
M  V30 15 H -0.7831 -1.2528 1.5855 0
M  V30 16 H -4.4203 -1.4025 1.366 0
M  V30 17 H -2.9846 -1.9944 2.2734 0
M  V30 18 H 1.2322 -2.0181 0.9299 0
M  V30 19 H 1.3743 1.9787 -0.7193 0
M  V30 20 H -3.8867 1.5628 -2.4004 0
M  V30 21 H -2.2417 2.0911 -2.9086 0
M  V30 22 H 3.673 -1.983 1.1853 0
M  V30 23 H 3.8232 1.9711 -0.4754 0
M  V30 24 H 4.9797 9.0E-4 0.4832 0
M  V30 END ATOM
M  V30 BEGIN BOND
M  V30 1 2 1 2
M  V30 2 1 1 3
M  V30 3 1 2 4
M  V30 4 1 2 5
M  V30 5 2 3 6
M  V30 6 1 3 7
M  V30 7 2 4 8
M  V30 8 2 7 9
M  V30 9 1 7 10
M  V30 10 1 8 11
M  V30 11 1 9 12
M  V30 12 2 10 13
M  V30 13 2 12 14
M  V30 14 1 6 8
M  V30 15 1 13 14
M  V30 16 1 1 15
M  V30 17 1 5 16
M  V30 18 1 5 17
M  V30 19 1 9 18
M  V30 20 1 10 19
M  V30 21 1 11 20
M  V30 22 1 11 21
M  V30 23 1 12 22
M  V30 24 1 13 23
M  V30 25 1 14 24
M  V30 END BOND
M  V30 END CTAB
M  END
>  <Structure No>
274

>  <LogS>
-2.494168514

>  <MMFF94 Energy>
-172.25

$$$$
Compound 275
Actelion Java MolfileCreator 2.0

  0  0  0  0  0  0              0 V3000
M  V30 BEGIN CTAB
M  V30 COUNTS 37 37 0 0 0
M  V30 BEGIN ATOM
M  V30 1 O 3.5587 -0.3159 -2.2131 0
M  V30 2 C 3.925 -0.2726 -1.0074 0
M  V30 3 O 2.9825 -0.348 0.0265 0
M  V30 4 C 5.3571 -0.1505 -0.6991 0
M  V30 5 C 1.5725 -0.4171 -0.1915 0 CFG=1
M  V30 6 C 5.8111 -0.0992 0.5509 0
M  V30 7 C 1.0263 0.9605 -0.5957 0
M  V30 8 C 0.887 -0.9215 1.0962 0
M  V30 9 C -0.4849 0.9078 -0.9014 0
M  V30 10 C -0.5645 -0.4232 1.2624 0
M  V30 11 C -1.2537 -0.1917 -0.1054 0 CFG=2
M  V30 12 C -2.8094 0.065 -0.0072 0
M  V30 13 C -3.3844 0.4061 -1.4035 0
M  V30 14 C -3.5303 -1.2149 0.4831 0
M  V30 15 C -3.1542 1.2184 0.9642 0
M  V30 16 H 6.0659 -0.0995 -1.5166 0
M  V30 17 H 1.3632 -1.144 -1.0092 0
M  V30 18 H 5.1405 -0.1458 1.3997 0
M  V30 19 H 6.8737 -0.0086 0.735 0
M  V30 20 H 1.2121 1.6797 0.2326 0
M  V30 21 H 1.5645 1.3401 -1.4904 0
M  V30 22 H 1.4706 -0.5981 1.9864 0
M  V30 23 H 0.895 -2.0336 1.0874 0
M  V30 24 H -0.6163 0.7144 -1.9889 0
M  V30 25 H -0.9009 1.9153 -0.6977 0
M  V30 26 H -1.1121 -1.167 1.8743 0
M  V30 27 H -0.5477 0.5319 1.8315 0
M  V30 28 H -1.1267 -1.1366 -0.6827 0
M  V30 29 H -3.0105 1.3858 -1.7683 0
M  V30 30 H -3.1064 -0.3767 -2.1417 0
M  V30 31 H -4.4937 0.4737 -1.3714 0
M  V30 32 H -3.2619 -2.0871 -0.151 0
M  V30 33 H -3.2793 -1.4525 1.5366 0
M  V30 34 H -4.634 -1.0871 0.4398 0
M  V30 35 H -2.6604 2.1657 0.6683 0
M  V30 36 H -2.8516 0.9723 2.0036 0
M  V30 37 H -4.2508 1.4007 0.9744 0
M  V30 END ATOM
M  V30 BEGIN BOND
M  V30 1 2 1 2
M  V30 2 1 2 3
M  V30 3 1 2 4
M  V30 4 1 3 5
M  V30 5 2 4 6
M  V30 6 1 5 7
M  V30 7 1 5 8
M  V30 8 1 7 9
M  V30 9 1 8 10
M  V30 10 1 9 11
M  V30 11 1 11 12
M  V30 12 1 12 13
M  V30 13 1 12 14
M  V30 14 1 12 15
M  V30 15 1 10 11
M  V30 16 1 4 16
M  V30 17 1 5 17
M  V30 18 1 6 18
M  V30 19 1 6 19
M  V30 20 1 7 20
M  V30 21 1 7 21
M  V30 22 1 8 22
M  V30 23 1 8 23
M  V30 24 1 9 24
M  V30 25 1 9 25
M  V30 26 1 10 26
M  V30 27 1 10 27
M  V30 28 1 11 28
M  V30 29 1 13 29
M  V30 30 1 13 30
M  V30 31 1 13 31
M  V30 32 1 14 32
M  V30 33 1 14 33
M  V30 34 1 14 34
M  V30 35 1 15 35
M  V30 36 1 15 36
M  V30 37 1 15 37
M  V30 END BOND
M  V30 BEGIN COLLECTION
M  V30 MDLV30/STEABS ATOMS=(2 5 11)
M  V30 END COLLECTION
M  V30 END CTAB
M  END
>  <Structure No>
275

>  <LogS>
-3.539328096

>  <MMFF94 Energy>
23.925

$$$$
Compound 276
Actelion Java MolfileCreator 2.0

  0  0  0  0  0  0              0 V3000
M  V30 BEGIN CTAB
M  V30 COUNTS 36 38 0 0 0
M  V30 BEGIN ATOM
M  V30 1 O -0.6394 1.8393 0.8793 0
M  V30 2 C -0.4334 0.7003 0.3781 0
M  V30 3 N -1.535 -0.1886 0.1229 0
M  V30 4 C 0.9544 0.293 0.0684 0
M  V30 5 C -2.9084 0.1613 0.3677 0
M  V30 6 C 1.2777 -0.3605 -1.1389 0
M  V30 7 C 1.9744 0.5897 0.988 0
M  V30 8 C -3.9044 -0.1385 -0.5905 0
M  V30 9 C -3.2823 0.7521 1.5883 0
M  V30 10 O 0.2933 -0.6001 -2.0978 0
M  V30 11 C 2.6011 -0.7477 -1.3939 0
M  V30 12 C 3.2994 0.2093 0.7325 0
M  V30 13 C -5.2479 0.1661 -0.3108 0
M  V30 14 C -3.5478 -0.7904 -1.8988 0
M  V30 15 C -4.6198 1.0587 1.8472 0
M  V30 16 C 3.6147 -0.4699 -0.4672 0
M  V30 17 C 4.3167 0.4935 1.6577 0
M  V30 18 C -5.6006 0.7672 0.8992 0
M  V30 19 C 4.9414 -0.8526 -0.7211 0
M  V30 20 C 5.6337 0.1066 1.3936 0
M  V30 21 C 5.9449 -0.5643 0.2082 0
M  V30 22 H -1.3379 -1.1281 -0.2877 0
M  V30 23 H 1.7312 1.1029 1.9122 0
M  V30 24 H -2.5423 0.9523 2.3521 0
M  V30 25 H 0.5044 -1.0613 -2.975 0
M  V30 26 H 2.8376 -1.2544 -2.3222 0
M  V30 27 H -6.0252 -0.0603 -1.0304 0
M  V30 28 H -4.3958 -0.7548 -2.6155 0
M  V30 29 H -2.6876 -0.2649 -2.3648 0
M  V30 30 H -3.2782 -1.8529 -1.7238 0
M  V30 31 H -4.8977 1.5127 2.7898 0
M  V30 32 H 4.0938 1.0126 2.5824 0
M  V30 33 H -6.6374 1.0005 1.1051 0
M  V30 34 H 5.2013 -1.3725 -1.6355 0
M  V30 35 H 6.4149 0.3273 2.1096 0
M  V30 36 H 6.9666 -0.8612 0.0088 0
M  V30 END ATOM
M  V30 BEGIN BOND
M  V30 1 2 1 2
M  V30 2 1 2 3
M  V30 3 1 2 4
M  V30 4 1 3 5
M  V30 5 1 4 6
M  V30 6 2 4 7
M  V30 7 2 5 8
M  V30 8 1 5 9
M  V30 9 1 6 10
M  V30 10 2 6 11
M  V30 11 1 7 12
M  V30 12 1 8 13
M  V30 13 1 8 14
M  V30 14 2 9 15
M  V30 15 1 11 16
M  V30 16 2 12 17
M  V30 17 2 13 18
M  V30 18 2 16 19
M  V30 19 1 17 20
M  V30 20 1 19 21
M  V30 21 1 12 16
M  V30 22 1 15 18
M  V30 23 2 20 21
M  V30 24 1 3 22
M  V30 25 1 7 23
M  V30 26 1 9 24
M  V30 27 1 10 25
M  V30 28 1 11 26
M  V30 29 1 13 27
M  V30 30 1 14 28
M  V30 31 1 14 29
M  V30 32 1 14 30
M  V30 33 1 15 31
M  V30 34 1 17 32
M  V30 35 1 18 33
M  V30 36 1 19 34
M  V30 37 1 20 35
M  V30 38 1 21 36
M  V30 END BOND
M  V30 END CTAB
M  END
>  <Structure No>
276

>  <LogS>
-4.623441954

>  <MMFF94 Energy>
44.232

$$$$
Compound 277
Actelion Java MolfileCreator 2.0

  0  0  0  0  0  0              0 V3000
M  V30 BEGIN CTAB
M  V30 COUNTS 18 18 0 0 0
M  V30 BEGIN ATOM
M  V30 1 Cl -4.6234 0.2517 1.3434 0
M  V30 2 C -2.9374 0.1555 0.8627 0
M  V30 3 N -2.3722 -1.0637 0.6745 0
M  V30 4 C -2.1665 1.3035 0.6521 0
M  V30 5 C -1.0725 -1.2087 0.3004 0
M  V30 6 Cl -2.8351 2.9144 0.8551 0
M  V30 7 N -0.8641 1.1685 0.2946 0
M  V30 8 N -0.5791 -2.5273 0.0422 0
M  V30 9 C -0.2795 -0.0484 0.1243 0
M  V30 10 C 1.1614 -0.077 -0.1962 0
M  V30 11 O 1.8758 -1.0678 0.1178 0
M  V30 12 O 1.7435 1.0452 -0.7943 0
M  V30 13 C 3.1284 1.1144 -1.1118 0
M  V30 14 H 0.2688 -2.7024 -0.5376 0
M  V30 15 H -1.1639 -3.3541 0.2969 0
M  V30 16 H 3.395 0.308 -1.8274 0
M  V30 17 H 3.3466 2.0966 -1.5789 0
M  V30 18 H 3.736 1.0126 -0.1876 0
M  V30 END ATOM
M  V30 BEGIN BOND
M  V30 1 1 1 2
M  V30 2 2 2 3
M  V30 3 1 2 4
M  V30 4 1 3 5
M  V30 5 1 4 6
M  V30 6 2 4 7
M  V30 7 1 5 8
M  V30 8 2 5 9
M  V30 9 1 9 10
M  V30 10 2 10 11
M  V30 11 1 10 12
M  V30 12 1 12 13
M  V30 13 1 7 9
M  V30 14 1 8 14
M  V30 15 1 8 15
M  V30 16 1 13 16
M  V30 17 1 13 17
M  V30 18 1 13 18
M  V30 END BOND
M  V30 END CTAB
M  END
>  <Structure No>
277

>  <LogS>
-4.534838609

>  <MMFF94 Energy>
102.27

$$$$
Compound 278
Actelion Java MolfileCreator 2.0

  0  0  0  0  0  0              0 V3000
M  V30 BEGIN CTAB
M  V30 COUNTS 79 78 0 0 0
M  V30 BEGIN ATOM
M  V30 1 O -5.0005 -1.7167 1.951 0
M  V30 2 C -4.4437 -1.3323 0.8864 0
M  V30 3 N -5.041 -0.2646 0.115 0
M  V30 4 C -3.1564 -1.9984 0.4723 0
M  V30 5 C -4.9318 -0.2117 -1.353 0
M  V30 6 C -5.8639 0.7394 0.8031 0
M  V30 7 C -2.0552 -1.8353 1.5325 0
M  V30 8 C -5.5282 -1.4755 -1.9932 0
M  V30 9 C -7.3428 0.3286 0.777 0
M  V30 10 C -1.7163 -0.371 1.88 0
M  V30 11 C -5.6339 -1.3697 -3.5216 0
M  V30 12 C -8.2307 1.264 1.6119 0
M  V30 13 C -1.2561 0.4915 0.6898 0
M  V30 14 C -4.2694 -1.3668 -4.2094 0
M  V30 15 C -8.4042 2.6405 0.9704 0
M  V30 16 C -0.0313 -0.0493 -0.0736 0
M  V30 17 C 1.2187 -0.3085 0.7915 0
M  V30 18 C 1.7345 0.9159 1.5666 0
M  V30 19 C 2.1987 2.017 0.6405 0
M  V30 20 C 3.4656 2.463 0.5356 0
M  V30 21 C 4.6355 1.9443 1.3328 0
M  V30 22 C 5.1377 0.6029 0.7854 0
M  V30 23 C 6.2391 0.0196 1.6821 0
M  V30 24 C 6.8438 -1.2725 1.0937 0
M  V30 25 C 8.2297 -1.0672 0.4602 0
M  V30 26 C 8.1876 -0.174 -0.7875 0
M  V30 27 C 9.5577 -0.1246 -1.4725 0
M  V30 28 C 9.5304 0.7837 -2.6988 0
M  V30 29 H -2.7842 -1.6253 -0.4992 0
M  V30 30 H -3.3564 -3.083 0.3386 0
M  V30 31 H -3.8716 -0.079 -1.6481 0
M  V30 32 H -5.4807 0.673 -1.7452 0
M  V30 33 H -5.7323 1.7268 0.3111 0
M  V30 34 H -5.519 0.8577 1.8543 0
M  V30 35 H -1.1412 -2.3605 1.185 0
M  V30 36 H -2.3768 -2.349 2.4649 0
M  V30 37 H -4.9224 -2.3676 -1.7264 0
M  V30 38 H -6.5512 -1.6323 -1.5869 0
M  V30 39 H -7.7081 0.2982 -0.2725 0
M  V30 40 H -7.4353 -0.6977 1.1942 0
M  V30 41 H -2.608 0.1104 2.3365 0
M  V30 42 H -0.9306 -0.3662 2.6652 0
M  V30 43 H -6.1945 -0.4519 -3.803 0
M  V30 44 H -6.2114 -2.2432 -3.8941 0
M  V30 45 H -7.8102 1.3794 2.6347 0
M  V30 46 H -9.2352 0.7977 1.7144 0
M  V30 47 H -2.097 0.6057 -0.0256 0
M  V30 48 H -1.0366 1.5158 1.0577 0
M  V30 49 H -4.4124 -1.4016 -5.3094 0
M  V30 50 H -3.707 -0.4421 -3.9647 0
M  V30 51 H -3.6757 -2.2528 -3.9013 0
M  V30 52 H -7.4394 3.1889 0.9505 0
M  V30 53 H -8.797 2.5414 -0.0639 0
M  V30 54 H -9.128 3.235 1.5666 0
M  V30 55 H 0.2252 0.6682 -0.881 0
M  V30 56 H -0.3093 -0.9958 -0.5842 0
M  V30 57 H 2.0282 -0.6811 0.1279 0
M  V30 58 H 1.0061 -1.1251 1.5132 0
M  V30 59 H 2.5434 0.5739 2.2415 0
M  V30 60 H 0.9425 1.3181 2.2303 0
M  V30 61 H 1.4451 2.5 0.0253 0
M  V30 62 H 3.6573 3.2855 -0.148 0
M  V30 63 H 5.4614 2.6837 1.2546 0
M  V30 64 H 4.3702 1.8729 2.4083 0
M  V30 65 H 5.5223 0.7579 -0.2445 0
M  V30 66 H 4.3034 -0.1264 0.7289 0
M  V30 67 H 5.7878 -0.2168 2.6716 0
M  V30 68 H 7.0314 0.7802 1.861 0
M  V30 69 H 6.9624 -2.0075 1.9202 0
M  V30 70 H 6.1563 -1.7411 0.3543 0
M  V30 71 H 8.9231 -0.6326 1.2134 0
M  V30 72 H 8.6248 -2.0669 0.1765 0
M  V30 73 H 7.8972 0.8583 -0.4947 0
M  V30 74 H 7.4332 -0.5697 -1.5025 0
M  V30 75 H 10.3208 0.2579 -0.7585 0
M  V30 76 H 9.8537 -1.1482 -1.7913 0
M  V30 77 H 9.2687 1.8223 -2.4032 0
M  V30 78 H 10.533 0.7925 -3.1769 0
M  V30 79 H 8.7866 0.4138 -3.4371 0
M  V30 END ATOM
M  V30 BEGIN BOND
M  V30 1 2 1 2
M  V30 2 1 2 3
M  V30 3 1 2 4
M  V30 4 1 3 5
M  V30 5 1 3 6
M  V30 6 1 4 7
M  V30 7 1 5 8
M  V30 8 1 6 9
M  V30 9 1 7 10
M  V30 10 1 8 11
M  V30 11 1 9 12
M  V30 12 1 10 13
M  V30 13 1 11 14
M  V30 14 1 12 15
M  V30 15 1 13 16
M  V30 16 1 16 17
M  V30 17 1 17 18
M  V30 18 1 18 19
M  V30 19 2 19 20
M  V30 20 1 20 21
M  V30 21 1 21 22
M  V30 22 1 22 23
M  V30 23 1 23 24
M  V30 24 1 24 25
M  V30 25 1 25 26
M  V30 26 1 26 27
M  V30 27 1 27 28
M  V30 28 1 4 29
M  V30 29 1 4 30
M  V30 30 1 5 31
M  V30 31 1 5 32
M  V30 32 1 6 33
M  V30 33 1 6 34
M  V30 34 1 7 35
M  V30 35 1 7 36
M  V30 36 1 8 37
M  V30 37 1 8 38
M  V30 38 1 9 39
M  V30 39 1 9 40
M  V30 40 1 10 41
M  V30 41 1 10 42
M  V30 42 1 11 43
M  V30 43 1 11 44
M  V30 44 1 12 45
M  V30 45 1 12 46
M  V30 46 1 13 47
M  V30 47 1 13 48
M  V30 48 1 14 49
M  V30 49 1 14 50
M  V30 50 1 14 51
M  V30 51 1 15 52
M  V30 52 1 15 53
M  V30 53 1 15 54
M  V30 54 1 16 55
M  V30 55 1 16 56
M  V30 56 1 17 57
M  V30 57 1 17 58
M  V30 58 1 18 59
M  V30 59 1 18 60
M  V30 60 1 19 61
M  V30 61 1 20 62
M  V30 62 1 21 63
M  V30 63 1 21 64
M  V30 64 1 22 65
M  V30 65 1 22 66
M  V30 66 1 23 67
M  V30 67 1 23 68
M  V30 68 1 24 69
M  V30 69 1 24 70
M  V30 70 1 25 71
M  V30 71 1 25 72
M  V30 72 1 26 73
M  V30 73 1 26 74
M  V30 74 1 27 75
M  V30 75 1 27 76
M  V30 76 1 28 77
M  V30 77 1 28 78
M  V30 78 1 28 79
M  V30 END BOND
M  V30 END CTAB
M  END
>  <Structure No>
278

>  <LogS>
-4.788985441

>  <MMFF94 Energy>
-9.6386

$$$$
Compound 279
Actelion Java MolfileCreator 2.0

  0  0  0  0  0  0              0 V3000
M  V30 BEGIN CTAB
M  V30 COUNTS 38 39 0 0 0
M  V30 BEGIN ATOM
M  V30 1 O 2.0777 0.7188 1.9977 0
M  V30 2 C 2.3748 0.2126 0.8809 0
M  V30 3 O 1.4504 -0.5923 0.2036 0
M  V30 4 C 3.7098 0.4603 0.2945 0
M  V30 5 C 0.0948 -0.7716 0.6218 0 CFG=1
M  V30 6 C 4.0601 -0.1131 -0.8619 0
M  V30 7 C 4.7029 1.311 1.0391 0
M  V30 8 C -0.8623 0.3396 0.082 0 CFG=2
M  V30 9 C -0.4977 -2.0487 -0.0143 0
M  V30 10 C -2.2391 -0.367 0.0825 0
M  V30 11 C -0.5665 0.5118 -1.4341 0
M  V30 12 C -0.7992 1.657 0.8664 0
M  V30 13 C -1.7202 -1.5135 -0.8 0 CFG=1
M  V30 14 C -2.7576 -0.8309 1.4791 0
M  V30 15 C -3.4129 0.4354 -0.5613 0
M  V30 16 C -1.1498 -0.7801 -2.0387 0
M  V30 17 H 0.0581 -0.8492 1.7307 0
M  V30 18 H 5.0453 0.0406 -1.2844 0
M  V30 19 H 3.3742 -0.7465 -1.4099 0
M  V30 20 H 5.1462 0.7205 1.8679 0
M  V30 21 H 5.5197 1.6659 0.374 0
M  V30 22 H 4.1991 2.2062 1.461 0
M  V30 23 H 0.2314 -2.5655 -0.6766 0
M  V30 24 H -0.8134 -2.7782 0.7617 0
M  V30 25 H 0.5162 0.613 -1.6598 0
M  V30 26 H -1.0668 1.4114 -1.8521 0
M  V30 27 H -0.9644 1.4746 1.9488 0
M  V30 28 H -1.5706 2.3662 0.5011 0
M  V30 29 H 0.1932 2.1343 0.7311 0
M  V30 30 H -2.4713 -2.2943 -1.0474 0
M  V30 31 H -3.036 0.051 2.0945 0
M  V30 32 H -2.0417 -1.4238 2.0757 0
M  V30 33 H -3.6638 -1.4611 1.352 0
M  V30 34 H -3.1928 0.8809 -1.5481 0
M  V30 35 H -4.2906 -0.2318 -0.6984 0
M  V30 36 H -3.7192 1.2696 0.1051 0
M  V30 37 H -0.3668 -1.3745 -2.5586 0
M  V30 38 H -1.9508 -0.5578 -2.7754 0
M  V30 END ATOM
M  V30 BEGIN BOND
M  V30 1 2 1 2
M  V30 2 1 2 3
M  V30 3 1 2 4
M  V30 4 1 3 5
M  V30 5 2 4 6
M  V30 6 1 4 7
M  V30 7 1 5 8
M  V30 8 1 5 9
M  V30 9 1 8 10
M  V30 10 1 8 11
M  V30 11 1 8 12
M  V30 12 1 9 13
M  V30 13 1 10 14
M  V30 14 1 10 15
M  V30 15 1 11 16
M  V30 16 1 10 13
M  V30 17 1 13 16
M  V30 18 1 5 17
M  V30 19 1 6 18
M  V30 20 1 6 19
M  V30 21 1 7 20
M  V30 22 1 7 21
M  V30 23 1 7 22
M  V30 24 1 9 23
M  V30 25 1 9 24
M  V30 26 1 11 25
M  V30 27 1 11 26
M  V30 28 1 12 27
M  V30 29 1 12 28
M  V30 30 1 12 29
M  V30 31 1 13 30
M  V30 32 1 14 31
M  V30 33 1 14 32
M  V30 34 1 14 33
M  V30 35 1 15 34
M  V30 36 1 15 35
M  V30 37 1 15 36
M  V30 38 1 16 37
M  V30 39 1 16 38
M  V30 END BOND
M  V30 BEGIN COLLECTION
M  V30 MDLV30/STEABS ATOMS=(3 5 8 13)
M  V30 END COLLECTION
M  V30 END CTAB
M  END
>  <Structure No>
279

>  <LogS>
-4.544220436

>  <MMFF94 Energy>
55.841

$$$$
Compound 280
Actelion Java MolfileCreator 2.0

  0  0  0  0  0  0              0 V3000
M  V30 BEGIN CTAB
M  V30 COUNTS 35 34 0 0 0
M  V30 BEGIN ATOM
M  V30 1 O 4.9861 -1.4003 0.2332 0
M  V30 2 C 4.8477 -0.1493 0.312 0
M  V30 3 O 4.1588 0.5604 -0.6775 0
M  V30 4 C 5.3882 0.5791 1.4949 0
M  V30 5 C 3.5344 -0.0607 -1.8005 0
M  V30 6 C 2.235 -0.7659 -1.395 0
M  V30 7 C 1.2119 0.2192 -0.8143 0
M  V30 8 C -0.0919 -0.497 -0.444 0
M  V30 9 C -1.1136 0.4858 0.14 0
M  V30 10 C -2.4176 -0.2303 0.5118 0
M  V30 11 C -3.4429 0.7578 1.0874 0
M  V30 12 C -4.7186 0.0615 1.586 0
M  V30 13 C -5.5797 -0.4819 0.4463 0
M  V30 14 H 4.6659 0.5072 2.3344 0
M  V30 15 H 6.3579 0.1361 1.8055 0
M  V30 16 H 5.5472 1.6483 1.2419 0
M  V30 17 H 4.2313 -0.7897 -2.2684 0
M  V30 18 H 3.3074 0.719 -2.5585 0
M  V30 19 H 1.8048 -1.2555 -2.2958 0
M  V30 20 H 2.4584 -1.5585 -0.6489 0
M  V30 21 H 0.9964 1.0112 -1.565 0
M  V30 22 H 1.6354 0.6995 0.0951 0
M  V30 23 H 0.1243 -1.2907 0.3049 0
M  V30 24 H -0.5196 -0.9755 -1.3527 0
M  V30 25 H -0.6849 0.9649 1.048 0
M  V30 26 H -1.331 1.2792 -0.609 0
M  V30 27 H -2.2005 -1.0191 1.2656 0
M  V30 28 H -2.8341 -0.7131 -0.3978 0
M  V30 29 H -3.7053 1.5207 0.3218 0
M  V30 30 H -2.9843 1.2898 1.9496 0
M  V30 31 H -4.457 -0.7644 2.2825 0
M  V30 32 H -5.3223 0.8015 2.155 0
M  V30 33 H -6.5374 -0.8642 0.8581 0
M  V30 34 H -5.8065 0.3207 -0.2871 0
M  V30 35 H -5.0671 -1.3205 -0.0686 0
M  V30 END ATOM
M  V30 BEGIN BOND
M  V30 1 2 1 2
M  V30 2 1 2 3
M  V30 3 1 2 4
M  V30 4 1 3 5
M  V30 5 1 5 6
M  V30 6 1 6 7
M  V30 7 1 7 8
M  V30 8 1 8 9
M  V30 9 1 9 10
M  V30 10 1 10 11
M  V30 11 1 11 12
M  V30 12 1 12 13
M  V30 13 1 4 14
M  V30 14 1 4 15
M  V30 15 1 4 16
M  V30 16 1 5 17
M  V30 17 1 5 18
M  V30 18 1 6 19
M  V30 19 1 6 20
M  V30 20 1 7 21
M  V30 21 1 7 22
M  V30 22 1 8 23
M  V30 23 1 8 24
M  V30 24 1 9 25
M  V30 25 1 9 26
M  V30 26 1 10 27
M  V30 27 1 10 28
M  V30 28 1 11 29
M  V30 29 1 11 30
M  V30 30 1 12 31
M  V30 31 1 12 32
M  V30 32 1 13 33
M  V30 33 1 13 34
M  V30 34 1 13 35
M  V30 END BOND
M  V30 END CTAB
M  END
>  <Structure No>
280

>  <LogS>
-4.47086065

>  <MMFF94 Energy>
-11.806

$$$$
Compound 281
Actelion Java MolfileCreator 2.0

  0  0  0  0  0  0              0 V3000
M  V30 BEGIN CTAB
M  V30 COUNTS 92 91 0 0 0
M  V30 BEGIN ATOM
M  V30 1 C -0.1559 -3.4354 0.7019 0
M  V30 2 C -1.6426 -3.3141 0.3085 0
M  V30 3 C 0.4262 -2.1166 1.2347 0
M  V30 4 C -1.8827 -3.1435 -1.2063 0
M  V30 5 C 1.8624 -2.326 1.7328 0
M  V30 6 C -1.327 -1.8505 -1.8343 0
M  V30 7 C 2.5086 -1.0342 2.2654 0
M  V30 8 C -1.9545 -0.5449 -1.2894 0
M  V30 9 C 2.8023 0.0391 1.1962 0
M  V30 10 C -3.0397 0.0591 -2.2059 0
M  V30 11 C 3.6738 -0.4279 0.0122 0
M  V30 12 C -4.3 -0.808 -2.3797 0
M  V30 13 C 5.0104 -1.0895 0.4041 0
M  V30 14 C -5.0674 -1.1173 -1.0784 0
M  V30 15 C 5.9751 -0.1873 1.1959 0
M  V30 16 C -5.5924 0.1161 -0.3192 0
M  V30 17 C 6.5745 0.937 0.335 0
M  V30 18 C -6.5375 1.0256 -1.1288 0
M  V30 19 C 7.5986 1.8043 1.0978 0
M  V30 20 C -7.7671 0.3194 -1.7358 0
M  V30 21 C 8.9383 1.1018 1.4092 0
M  V30 22 C -8.6545 -0.4414 -0.7276 0
M  V30 23 C 9.8452 0.9109 0.1763 0
M  V30 24 C -9.2443 0.4267 0.3979 0
M  V30 25 C 10.6645 2.1762 -0.1448 0
M  V30 26 C -10.259 1.4587 -0.125 0
M  V30 27 C 11.5114 2.0107 -1.4181 0
M  V30 28 C -11.0053 2.1803 1.0087 0
M  V30 29 C 10.6761 2.1636 -2.6922 0
M  V30 30 C -10.1344 3.2116 1.7257 0
M  V30 31 H 0.4477 -3.7949 -0.157 0
M  V30 32 H -0.07 -4.2028 1.5018 0
M  V30 33 H -2.1453 -4.2615 0.6033 0
M  V30 34 H -2.151 -2.521 0.8931 0
M  V30 35 H 0.4207 -1.357 0.4253 0
M  V30 36 H -0.2029 -1.7394 2.0735 0
M  V30 37 H -1.4258 -4.0083 -1.7318 0
M  V30 38 H -2.9708 -3.2177 -1.3991 0
M  V30 39 H 2.4821 -2.7622 0.9233 0
M  V30 40 H 1.8449 -3.0663 2.5651 0
M  V30 41 H -0.2265 -1.8226 -1.6907 0
M  V30 42 H -1.4744 -1.9076 -2.9365 0
M  V30 43 H 3.4534 -1.2972 2.7858 0
M  V30 44 H 1.8445 -0.5897 3.0385 0
M  V30 45 H -2.3433 -0.6529 -0.26 0
M  V30 46 H -1.1419 0.2113 -1.2185 0
M  V30 47 H 1.8422 0.4289 0.7943 0
M  V30 48 H 3.2941 0.9039 1.6913 0
M  V30 49 H -3.3304 1.0564 -1.8091 0
M  V30 50 H -2.6006 0.2449 -3.2097 0
M  V30 51 H 3.8704 0.4399 -0.6489 0
M  V30 52 H 3.0923 -1.1465 -0.6013 0
M  V30 53 H -4.9796 -0.2983 -3.0948 0
M  V30 54 H -4.021 -1.7629 -2.8679 0
M  V30 55 H 4.8128 -2.0074 0.998 0
M  V30 56 H 5.5186 -1.434 -0.5221 0
M  V30 57 H -4.4213 -1.6975 -0.3903 0
M  V30 58 H -5.9144 -1.7903 -1.3248 0
M  V30 59 H 6.7887 -0.8385 1.5682 0
M  V30 60 H 5.4698 0.2394 2.0851 0
M  V30 61 H -4.7313 0.721 0.0368 0
M  V30 62 H -6.1157 -0.2314 0.5966 0
M  V30 63 H 7.0277 0.5124 -0.5827 0
M  V30 64 H 5.7545 1.6103 0.0066 0
M  V30 65 H -5.9624 1.5039 -1.9505 0
M  V30 66 H -6.8762 1.8568 -0.4744 0
M  V30 67 H 7.7958 2.7236 0.5054 0
M  V30 68 H 7.141 2.1349 2.0574 0
M  V30 69 H -7.4256 -0.3961 -2.5136 0
M  V30 70 H -8.3803 1.0767 -2.267 0
M  V30 71 H 8.7556 0.1166 1.8845 0
M  V30 72 H 9.4828 1.703 2.1701 0
M  V30 73 H -8.0735 -1.2681 -0.2703 0
M  V30 74 H -9.4872 -0.923 -1.2851 0
M  V30 75 H 9.2486 0.6063 -0.7033 0
M  V30 76 H 10.5516 0.0783 0.3904 0
M  V30 77 H -9.7617 -0.2532 1.1098 0
M  V30 78 H -8.4314 0.9284 0.9607 0
M  V30 79 H 9.9968 3.0606 -0.2458 0
M  V30 80 H 11.353 2.378 0.7066 0
M  V30 81 H -9.7496 2.2107 -0.7641 0
M  V30 82 H -11.0127 0.9324 -0.7531 0
M  V30 83 H 12.0173 1.0178 -1.4246 0
M  V30 84 H 12.302 2.7961 -1.4281 0
M  V30 85 H -11.3934 1.4437 1.7447 0
M  V30 86 H -11.8816 2.7079 0.5735 0
M  V30 87 H 10.1441 3.1381 -2.6934 0
M  V30 88 H 9.9415 1.3362 -2.7899 0
M  V30 89 H 11.3446 2.1337 -3.5794 0
M  V30 90 H -10.7295 3.7054 2.5226 0
M  V30 91 H -9.7882 3.9849 1.0098 0
M  V30 92 H -9.2564 2.7281 2.1968 0
M  V30 END ATOM
M  V30 BEGIN BOND
M  V30 1 1 1 2
M  V30 2 1 1 3
M  V30 3 1 2 4
M  V30 4 1 3 5
M  V30 5 1 4 6
M  V30 6 1 5 7
M  V30 7 1 6 8
M  V30 8 1 7 9
M  V30 9 1 8 10
M  V30 10 1 9 11
M  V30 11 1 10 12
M  V30 12 1 11 13
M  V30 13 1 12 14
M  V30 14 1 13 15
M  V30 15 1 14 16
M  V30 16 1 15 17
M  V30 17 1 16 18
M  V30 18 1 17 19
M  V30 19 1 18 20
M  V30 20 1 19 21
M  V30 21 1 20 22
M  V30 22 1 21 23
M  V30 23 1 22 24
M  V30 24 1 23 25
M  V30 25 1 24 26
M  V30 26 1 25 27
M  V30 27 1 26 28
M  V30 28 1 27 29
M  V30 29 1 28 30
M  V30 30 1 1 31
M  V30 31 1 1 32
M  V30 32 1 2 33
M  V30 33 1 2 34
M  V30 34 1 3 35
M  V30 35 1 3 36
M  V30 36 1 4 37
M  V30 37 1 4 38
M  V30 38 1 5 39
M  V30 39 1 5 40
M  V30 40 1 6 41
M  V30 41 1 6 42
M  V30 42 1 7 43
M  V30 43 1 7 44
M  V30 44 1 8 45
M  V30 45 1 8 46
M  V30 46 1 9 47
M  V30 47 1 9 48
M  V30 48 1 10 49
M  V30 49 1 10 50
M  V30 50 1 11 51
M  V30 51 1 11 52
M  V30 52 1 12 53
M  V30 53 1 12 54
M  V30 54 1 13 55
M  V30 55 1 13 56
M  V30 56 1 14 57
M  V30 57 1 14 58
M  V30 58 1 15 59
M  V30 59 1 15 60
M  V30 60 1 16 61
M  V30 61 1 16 62
M  V30 62 1 17 63
M  V30 63 1 17 64
M  V30 64 1 18 65
M  V30 65 1 18 66
M  V30 66 1 19 67
M  V30 67 1 19 68
M  V30 68 1 20 69
M  V30 69 1 20 70
M  V30 70 1 21 71
M  V30 71 1 21 72
M  V30 72 1 22 73
M  V30 73 1 22 74
M  V30 74 1 23 75
M  V30 75 1 23 76
M  V30 76 1 24 77
M  V30 77 1 24 78
M  V30 78 1 25 79
M  V30 79 1 25 80
M  V30 80 1 26 81
M  V30 81 1 26 82
M  V30 82 1 27 83
M  V30 83 1 27 84
M  V30 84 1 28 85
M  V30 85 1 28 86
M  V30 86 1 29 87
M  V30 87 1 29 88
M  V30 88 1 29 89
M  V30 89 1 30 90
M  V30 90 1 30 91
M  V30 91 1 30 92
M  V30 END BOND
M  V30 END CTAB
M  END
>  <Structure No>
281

>  <LogS>
-5.405053261

>  <MMFF94 Energy>
-7.9384

$$$$
Compound 282
Actelion Java MolfileCreator 2.0

  0  0  0  0  0  0              0 V3000
M  V30 BEGIN CTAB
M  V30 COUNTS 44 43 0 0 0
M  V30 BEGIN ATOM
M  V30 1 C -0.3099 -1.7834 -1.3179 0
M  V30 2 C 0.1482 -1.6768 0.1456 0
M  V30 3 C -1.8383 -1.8873 -1.4584 0
M  V30 4 C 1.6687 -1.8349 0.3019 0
M  V30 5 C -2.5847 -0.6039 -1.036 0
M  V30 6 C 2.4491 -0.6465 -0.2797 0
M  V30 7 C -3.2184 -0.7333 0.3604 0
M  V30 8 C 3.9476 -0.7685 0.0336 0
M  V30 9 C -3.7766 0.5992 0.8838 0
M  V30 10 C 4.7996 0.2915 -0.6875 0
M  V30 11 C -5.0148 1.0682 0.1061 0
M  V30 12 C 4.4851 1.7471 -0.2991 0
M  V30 13 C -5.6188 2.3191 0.7377 0
M  V30 14 C 4.7364 2.0392 1.1796 0
M  V30 15 H 0.0491 -0.9054 -1.896 0
M  V30 16 H 0.1378 -2.6935 -1.7733 0
M  V30 17 H -0.1634 -0.6989 0.5715 0
M  V30 18 H -0.3415 -2.481 0.7372 0
M  V30 19 H -2.2127 -2.7743 -0.901 0
M  V30 20 H -2.0573 -2.0781 -2.5319 0
M  V30 21 H 1.8946 -1.9157 1.388 0
M  V30 22 H 2.0004 -2.7796 -0.1817 0
M  V30 23 H -3.3951 -0.4174 -1.7728 0
M  V30 24 H -1.9034 0.2744 -1.0695 0
M  V30 25 H 2.0537 0.2933 0.161 0
M  V30 26 H 2.3109 -0.6131 -1.3813 0
M  V30 27 H -2.4561 -1.0888 1.0842 0
M  V30 28 H -4.0283 -1.4949 0.3346 0
M  V30 29 H 4.303 -1.7682 -0.2994 0
M  V30 30 H 4.1129 -0.7135 1.1305 0
M  V30 31 H -4.055 0.4581 1.9513 0
M  V30 32 H -2.9855 1.3798 0.843 0
M  V30 33 H 5.8718 0.0873 -0.4754 0
M  V30 34 H 4.6606 0.1798 -1.7848 0
M  V30 35 H -4.7384 1.3047 -0.943 0
M  V30 36 H -5.7823 0.264 0.0981 0
M  V30 37 H 3.4374 2.005 -0.5601 0
M  V30 38 H 5.1414 2.413 -0.9003 0
M  V30 39 H -4.8761 3.1452 0.7434 0
M  V30 40 H -6.5044 2.6416 0.1506 0
M  V30 41 H -5.9418 2.1087 1.7795 0
M  V30 42 H 4.6455 3.1311 1.3605 0
M  V30 43 H 3.9861 1.5229 1.8135 0
M  V30 44 H 5.7577 1.7158 1.4724 0
M  V30 END ATOM
M  V30 BEGIN BOND
M  V30 1 1 1 2
M  V30 2 1 1 3
M  V30 3 1 2 4
M  V30 4 1 3 5
M  V30 5 1 4 6
M  V30 6 1 5 7
M  V30 7 1 6 8
M  V30 8 1 7 9
M  V30 9 1 8 10
M  V30 10 1 9 11
M  V30 11 1 10 12
M  V30 12 1 11 13
M  V30 13 1 12 14
M  V30 14 1 1 15
M  V30 15 1 1 16
M  V30 16 1 2 17
M  V30 17 1 2 18
M  V30 18 1 3 19
M  V30 19 1 3 20
M  V30 20 1 4 21
M  V30 21 1 4 22
M  V30 22 1 5 23
M  V30 23 1 5 24
M  V30 24 1 6 25
M  V30 25 1 6 26
M  V30 26 1 7 27
M  V30 27 1 7 28
M  V30 28 1 8 29
M  V30 29 1 8 30
M  V30 30 1 9 31
M  V30 31 1 9 32
M  V30 32 1 10 33
M  V30 33 1 10 34
M  V30 34 1 11 35
M  V30 35 1 11 36
M  V30 36 1 12 37
M  V30 37 1 12 38
M  V30 38 1 13 39
M  V30 39 1 13 40
M  V30 40 1 13 41
M  V30 41 1 14 42
M  V30 42 1 14 43
M  V30 43 1 14 44
M  V30 END BOND
M  V30 END CTAB
M  END
>  <Structure No>
282

>  <LogS>
-5.041697833

>  <MMFF94 Energy>
-4.8818

$$$$
Compound 283
Actelion Java MolfileCreator 2.0

  0  0  0  0  0  0              0 V3000
M  V30 BEGIN CTAB
M  V30 COUNTS 18 19 0 0 0
M  V30 BEGIN ATOM
M  V30 1 C 0.0 0.7131 -0.1584 0
M  V30 2 C -0.005 -0.6752 0.1268 0
M  V30 3 C 1.222 1.3941 -0.2723 0
M  V30 4 C -1.2171 1.3923 -0.3238 0
M  V30 5 C 1.2119 -1.3543 0.2922 0
M  V30 6 C -1.2271 -1.3561 0.2407 0
M  V30 7 C 2.427 0.7053 -0.105 0
M  V30 8 C -2.4272 0.7018 -0.2076 0
M  V30 9 C 2.4219 -0.6637 0.1762 0
M  V30 10 C -2.4322 -0.6671 0.0735 0
M  V30 11 H 1.245 2.4554 -0.4897 0
M  V30 12 H -1.2325 2.4536 -0.5421 0
M  V30 13 H 1.2273 -2.4155 0.5107 0
M  V30 14 H -1.2502 -2.4173 0.4582 0
M  V30 15 H 3.3673 1.234 -0.1936 0
M  V30 16 H -3.3637 1.2293 -0.3359 0
M  V30 17 H 3.3584 -1.1911 0.3045 0
M  V30 18 H -3.3726 -1.1958 0.1622 0
M  V30 END ATOM
M  V30 BEGIN BOND
M  V30 1 1 1 2
M  V30 2 1 1 3
M  V30 3 2 1 4
M  V30 4 1 2 5
M  V30 5 2 2 6
M  V30 6 2 3 7
M  V30 7 1 4 8
M  V30 8 2 5 9
M  V30 9 1 6 10
M  V30 10 1 7 9
M  V30 11 2 8 10
M  V30 12 1 3 11
M  V30 13 1 4 12
M  V30 14 1 5 13
M  V30 15 1 6 14
M  V30 16 1 7 15
M  V30 17 1 8 16
M  V30 18 1 9 17
M  V30 19 1 10 18
M  V30 END BOND
M  V30 END CTAB
M  END
>  <Structure No>
283

>  <LogS>
-4.311225605

>  <MMFF94 Energy>
31.133

$$$$
Compound 284
Actelion Java MolfileCreator 2.0

  0  0  0  0  0  0              0 V3000
M  V30 BEGIN CTAB
M  V30 COUNTS 32 33 0 0 0
M  V30 BEGIN ATOM
M  V30 1 O 0.7987 1.438 -1.2782 0
M  V30 2 C 1.0928 0.6854 -0.3098 0
M  V30 3 O 0.0808 0.1134 0.4711 0
M  V30 4 C 2.5042 0.3516 -0.0224 0
M  V30 5 C -1.3121 0.2971 0.2185 0
M  V30 6 C 3.5705 1.2617 -0.2433 0
M  V30 7 C 2.7979 -0.9361 0.4619 0
M  V30 8 C -1.7484 -0.5572 -0.9861 0
M  V30 9 C -2.0999 -0.1062 1.4739 0
M  V30 10 O 3.3621 2.5872 -0.6309 0
M  V30 11 C 4.8911 0.8436 -0.0362 0
M  V30 12 C 4.1192 -1.3299 0.6829 0
M  V30 13 C -3.2602 -0.4485 -1.2217 0
M  V30 14 C -3.6116 0.0044 1.239 0
M  V30 15 C 5.1649 -0.4447 0.4249 0
M  V30 16 C -4.0437 -0.8419 0.036 0
M  V30 17 H -1.5121 1.3724 0.0074 0
M  V30 18 H 2.0042 -1.6503 0.6451 0
M  V30 19 H -1.2185 -0.2165 -1.9007 0
M  V30 20 H -1.4751 -1.621 -0.8103 0
M  V30 21 H -1.8441 -1.1505 1.7598 0
M  V30 22 H -1.8135 0.5586 2.3173 0
M  V30 23 H 2.4533 3.0292 -0.6424 0
M  V30 24 H 5.709 1.5308 -0.2128 0
M  V30 25 H 4.3328 -2.3273 1.0451 0
M  V30 26 H -3.5188 0.5935 -1.5122 0
M  V30 27 H -3.5503 -1.1191 -2.059 0
M  V30 28 H -3.8864 1.0683 1.066 0
M  V30 29 H -4.1504 -0.345 2.1458 0
M  V30 30 H 6.1887 -0.7538 0.591 0
M  V30 31 H -5.1297 -0.6932 -0.1462 0
M  V30 32 H -3.8776 -1.9192 0.258 0
M  V30 END ATOM
M  V30 BEGIN BOND
M  V30 1 2 1 2
M  V30 2 1 2 3
M  V30 3 1 2 4
M  V30 4 1 3 5
M  V30 5 2 4 6
M  V30 6 1 4 7
M  V30 7 1 5 8
M  V30 8 1 5 9
M  V30 9 1 6 10
M  V30 10 1 6 11
M  V30 11 2 7 12
M  V30 12 1 8 13
M  V30 13 1 9 14
M  V30 14 2 11 15
M  V30 15 1 13 16
M  V30 16 1 12 15
M  V30 17 1 14 16
M  V30 18 1 5 17
M  V30 19 1 7 18
M  V30 20 1 8 19
M  V30 21 1 8 20
M  V30 22 1 9 21
M  V30 23 1 9 22
M  V30 24 1 10 23
M  V30 25 1 11 24
M  V30 26 1 12 25
M  V30 27 1 13 26
M  V30 28 1 13 27
M  V30 29 1 14 28
M  V30 30 1 14 29
M  V30 31 1 15 30
M  V30 32 1 16 31
M  V30 33 1 16 32
M  V30 END BOND
M  V30 END CTAB
M  END
>  <Structure No>
284

>  <LogS>
-4.554076293

>  <MMFF94 Energy>
29.778

$$$$
Compound 285
Actelion Java MolfileCreator 2.0

  0  0  0  0  0  0              0 V3000
M  V30 BEGIN CTAB
M  V30 COUNTS 26 26 0 0 0
M  V30 BEGIN ATOM
M  V30 1 C 2.1153 0.1565 0.1565 0
M  V30 2 C 1.4342 -0.6206 1.026 0
M  V30 3 C 1.4061 1.0423 -0.8497 0
M  V30 4 C 3.6118 0.2468 0.2757 0
M  V30 5 C -0.0601 -0.818 0.9562 0
M  V30 6 C -0.0384 0.6045 -1.1193 0
M  V30 7 C -0.7634 0.3261 0.2059 0 CFG=1
M  V30 8 C -2.2383 0.0191 -0.0163 0
M  V30 9 C -3.1793 0.7802 0.5648 0
M  V30 10 C -2.6796 -1.1403 -0.8751 0
M  V30 11 H 1.983 -1.2164 1.7507 0
M  V30 12 H 1.406 2.0839 -0.4613 0
M  V30 13 H 1.9644 1.0372 -1.8106 0
M  V30 14 H 4.0636 -0.7491 0.0839 0
M  V30 15 H 3.8906 0.5845 1.2965 0
M  V30 16 H 4.0272 0.9699 -0.4575 0
M  V30 17 H -0.2488 -1.7914 0.4567 0
M  V30 18 H -0.4633 -0.8812 1.9899 0
M  V30 19 H -0.564 1.4098 -1.6776 0
M  V30 20 H -0.0242 -0.3056 -1.757 0
M  V30 21 H -0.6686 1.242 0.8347 0
M  V30 22 H -2.914 1.6228 1.1959 0
M  V30 23 H -4.2344 0.5689 0.4165 0
M  V30 24 H -1.8181 -1.701 -1.2889 0
M  V30 25 H -3.2906 -1.8435 -0.2705 0
M  V30 26 H -3.29 -0.7664 -1.7241 0
M  V30 END ATOM
M  V30 BEGIN BOND
M  V30 1 2 1 2
M  V30 2 1 1 3
M  V30 3 1 1 4
M  V30 4 1 2 5
M  V30 5 1 3 6
M  V30 6 1 5 7
M  V30 7 1 7 8
M  V30 8 2 8 9
M  V30 9 1 8 10
M  V30 10 1 6 7
M  V30 11 1 2 11
M  V30 12 1 3 12
M  V30 13 1 3 13
M  V30 14 1 4 14
M  V30 15 1 4 15
M  V30 16 1 4 16
M  V30 17 1 5 17
M  V30 18 1 5 18
M  V30 19 1 6 19
M  V30 20 1 6 20
M  V30 21 1 7 21
M  V30 22 1 9 22
M  V30 23 1 9 23
M  V30 24 1 10 24
M  V30 25 1 10 25
M  V30 26 1 10 26
M  V30 END BOND
M  V30 BEGIN COLLECTION
M  V30 MDLV30/STEABS ATOMS=(1 7)
M  V30 END COLLECTION
M  V30 END CTAB
M  END
>  <Structure No>
285

>  <LogS>
-4.346837785

>  <MMFF94 Energy>
23.663

$$$$
Compound 286
Actelion Java MolfileCreator 2.0

  0  0  0  0  0  0              0 V3000
M  V30 BEGIN CTAB
M  V30 COUNTS 34 33 0 0 0
M  V30 BEGIN ATOM
M  V30 1 O 1.3981 -1.5535 1.2426 0
M  V30 2 C 1.1089 -0.7952 0.277 0
M  V30 3 O 0.0668 0.1301 0.3855 0
M  V30 4 C 1.8666 -0.9064 -1.0083 0
M  V30 5 C -0.7008 0.2874 1.5751 0
M  V30 6 C 2.3726 0.4421 -1.4497 0
M  V30 7 C -1.7529 1.3784 1.377 0
M  V30 8 C 3.4453 1.0632 -0.9249 0
M  V30 9 C -2.699 1.043 0.2558 0
M  V30 10 C 4.3401 0.4736 0.1346 0
M  V30 11 C -3.5996 0.0562 0.3668 0
M  V30 12 C 5.4556 -0.3548 -0.4941 0
M  V30 13 C -4.5394 -0.2549 -0.7651 0
M  V30 14 C -5.4649 -1.4156 -0.4152 0
M  V30 15 H 1.1732 -1.2977 -1.7822 0
M  V30 16 H 2.7026 -1.631 -0.9165 0
M  V30 17 H -0.0301 0.5812 2.4116 0
M  V30 18 H -1.1923 -0.6745 1.8379 0
M  V30 19 H 1.8182 0.9541 -2.2312 0
M  V30 20 H -1.2384 2.335 1.1417 0
M  V30 21 H -2.3252 1.5227 2.319 0
M  V30 22 H 3.7047 2.0458 -1.3085 0
M  V30 23 H -2.6586 1.6376 -0.6529 0
M  V30 24 H 3.7651 -0.1433 0.8552 0
M  V30 25 H 4.8007 1.3053 0.7094 0
M  V30 26 H -3.6497 -0.5238 1.2854 0
M  V30 27 H 5.0373 -1.201 -1.0776 0
M  V30 28 H 6.0723 0.2795 -1.166 0
M  V30 29 H 6.1086 -0.7646 0.3048 0
M  V30 30 H -5.1539 0.643 -0.9921 0
M  V30 31 H -3.9511 -0.5209 -1.6699 0
M  V30 32 H -4.8717 -2.3312 -0.205 0
M  V30 33 H -6.1439 -1.6203 -1.2695 0
M  V30 34 H -6.0798 -1.1631 0.475 0
M  V30 END ATOM
M  V30 BEGIN BOND
M  V30 1 2 1 2
M  V30 2 1 2 3
M  V30 3 1 2 4
M  V30 4 1 3 5
M  V30 5 1 4 6
M  V30 6 1 5 7
M  V30 7 2 6 8
M  V30 8 1 7 9
M  V30 9 1 8 10
M  V30 10 2 9 11
M  V30 11 1 10 12
M  V30 12 1 11 13
M  V30 13 1 13 14
M  V30 14 1 4 15
M  V30 15 1 4 16
M  V30 16 1 5 17
M  V30 17 1 5 18
M  V30 18 1 6 19
M  V30 19 1 7 20
M  V30 20 1 7 21
M  V30 21 1 8 22
M  V30 22 1 9 23
M  V30 23 1 10 24
M  V30 24 1 10 25
M  V30 25 1 11 26
M  V30 26 1 12 27
M  V30 27 1 12 28
M  V30 28 1 12 29
M  V30 29 1 13 30
M  V30 30 1 13 31
M  V30 31 1 14 32
M  V30 32 1 14 33
M  V30 33 1 14 34
M  V30 END BOND
M  V30 END CTAB
M  END
>  <Structure No>
286

>  <LogS>
-4.509709484

>  <MMFF94 Energy>
30.48

$$$$
Compound 287
Actelion Java MolfileCreator 2.0

  0  0  0  0  0  0              0 V3000
M  V30 BEGIN CTAB
M  V30 COUNTS 52 55 0 0 0
M  V30 BEGIN ATOM
M  V30 1 O 5.8875 -0.8854 0.3219 0
M  V30 2 C 4.5661 -0.6853 -0.1096 0
M  V30 3 C 6.9358 0.0711 0.1992 0
M  V30 4 C 4.1637 0.446 -0.7119 0
M  V30 5 C 3.5789 -1.8004 0.0913 0
M  V30 6 C 2.7465 0.6017 -1.1945 0
M  V30 7 C 2.1869 -1.2632 0.3515 0
M  V30 8 C 1.7521 -0.1658 -0.3336 0
M  V30 9 C 1.2894 -2.0584 1.281 0
M  V30 10 C 0.3463 0.4034 -0.1231 0 CFG=2
M  V30 11 C 0.0305 -1.297 1.7014 0
M  V30 12 C -0.61 -0.6561 0.4678 0 CFG=1
M  V30 13 C -0.2758 0.9546 -1.42 0
M  V30 14 C -2.0288 -0.1006 0.754 0 CFG=2
M  V30 15 C -1.658 1.5706 -1.1455 0
M  V30 16 C -2.676 0.5874 -0.4722 0 CFG=2
M  V30 17 C -2.1313 0.9179 1.8984 0
M  V30 18 C -3.8276 1.397 0.1795 0 CFG=1
M  V30 19 C -3.2094 -0.4113 -1.5563 0
M  V30 20 C -3.3129 1.8277 1.557 0
M  V30 21 O -4.1991 2.5204 -0.5792 0
M  V30 22 C -4.0253 -1.61 -1.0539 0
M  V30 23 H 7.8656 -0.3528 0.6303 0
M  V30 24 H 7.1155 0.3058 -0.8711 0
M  V30 25 H 6.6758 0.9963 0.7557 0
M  V30 26 H 4.8532 1.26 -0.8899 0
M  V30 27 H 3.5572 -2.4273 -0.825 0
M  V30 28 H 3.9126 -2.4379 0.9379 0
M  V30 29 H 2.6816 0.2249 -2.2369 0
M  V30 30 H 2.5076 1.6854 -1.1925 0
M  V30 31 H 0.9943 -2.9973 0.7645 0
M  V30 32 H 1.8536 -2.3377 2.1966 0
M  V30 33 H 0.4643 1.247 0.5886 0
M  V30 34 H 0.2982 -0.5173 2.4482 0
M  V30 35 H -0.6786 -2.0076 2.1792 0
M  V30 36 H -0.7395 -1.4632 -0.2906 0
M  V30 37 H -0.3428 0.1537 -2.1857 0
M  V30 38 H 0.3595 1.7578 -1.8458 0
M  V30 39 H -2.6609 -0.9571 1.0715 0
M  V30 40 H -2.074 1.9467 -2.106 0
M  V30 41 H -1.5015 2.464 -0.501 0
M  V30 42 H -2.3005 0.4007 2.8685 0
M  V30 43 H -1.2141 1.5329 1.9947 0
M  V30 44 H -4.7209 0.7574 0.3515 0
M  V30 45 H -2.3632 -0.8298 -2.1376 0
M  V30 46 H -3.836 0.1502 -2.2825 0
M  V30 47 H -2.9757 2.8881 1.5382 0
M  V30 48 H -4.1162 1.7308 2.3202 0
M  V30 49 H -4.7587 2.1861 -1.3272 0
M  V30 50 H -4.8438 -1.3077 -0.373 0
M  V30 51 H -4.4831 -2.1255 -1.9242 0
M  V30 52 H -3.3682 -2.3462 -0.546 0
M  V30 END ATOM
M  V30 BEGIN BOND
M  V30 1 1 1 2
M  V30 2 1 1 3
M  V30 3 2 2 4
M  V30 4 1 2 5
M  V30 5 1 4 6
M  V30 6 1 5 7
M  V30 7 1 6 8
M  V30 8 1 7 9
M  V30 9 1 8 10
M  V30 10 1 9 11
M  V30 11 1 10 12
M  V30 12 1 10 13
M  V30 13 1 12 14
M  V30 14 1 13 15
M  V30 15 1 14 16
M  V30 16 1 14 17
M  V30 17 1 16 18
M  V30 18 1 16 19
M  V30 19 1 17 20
M  V30 20 1 18 21
M  V30 21 1 19 22
M  V30 22 2 7 8
M  V30 23 1 11 12
M  V30 24 1 15 16
M  V30 25 1 18 20
M  V30 26 1 3 23
M  V30 27 1 3 24
M  V30 28 1 3 25
M  V30 29 1 4 26
M  V30 30 1 5 27
M  V30 31 1 5 28
M  V30 32 1 6 29
M  V30 33 1 6 30
M  V30 34 1 9 31
M  V30 35 1 9 32
M  V30 36 1 10 33
M  V30 37 1 11 34
M  V30 38 1 11 35
M  V30 39 1 12 36
M  V30 40 1 13 37
M  V30 41 1 13 38
M  V30 42 1 14 39
M  V30 43 1 15 40
M  V30 44 1 15 41
M  V30 45 1 17 42
M  V30 46 1 17 43
M  V30 47 1 18 44
M  V30 48 1 19 45
M  V30 49 1 19 46
M  V30 50 1 20 47
M  V30 51 1 20 48
M  V30 52 1 21 49
M  V30 53 1 22 50
M  V30 54 1 22 51
M  V30 55 1 22 52
M  V30 END BOND
M  V30 BEGIN COLLECTION
M  V30 MDLV30/STEABS ATOMS=(5 10 12 14 16 18)
M  V30 END COLLECTION
M  V30 END CTAB
M  END
>  <Structure No>
287

>  <LogS>
-4.702513826

>  <MMFF94 Energy>
65.745

$$$$
Compound 288
Actelion Java MolfileCreator 2.0

  0  0  0  0  0  0              0 V3000
M  V30 BEGIN CTAB
M  V30 COUNTS 49 48 0 0 0
M  V30 BEGIN ATOM
M  V30 1 O 3.986 -1.4054 1.2491 0
M  V30 2 C 3.7143 -0.9785 0.0938 0
M  V30 3 O 4.537 -0.0373 -0.5356 0
M  V30 4 C 2.4735 -1.4495 -0.5998 0
M  V30 5 C 5.7623 0.4393 0.019 0
M  V30 6 C 1.3816 -0.3716 -0.6049 0
M  V30 7 C 6.9136 -0.5264 -0.299 0 CFG=2
M  V30 8 C 0.8056 -0.123 0.7999 0
M  V30 9 O 6.7168 -1.7398 0.3787 0
M  V30 10 C 8.2737 0.0759 0.0892 0
M  V30 11 C -0.2371 1.006 0.8198 0
M  V30 12 O 8.3774 0.2276 1.4806 0
M  V30 13 C -1.561 0.6028 0.153 0
M  V30 14 C -2.62 1.7017 0.3301 0
M  V30 15 C -3.9161 1.4066 -0.4414 0
M  V30 16 C -4.7213 0.2519 0.173 0
M  V30 17 C -6.0674 0.08 -0.5409 0
M  V30 18 C -6.8681 -1.078 0.0656 0
M  V30 19 C -8.2088 -1.2517 -0.642 0
M  V30 20 H 2.7349 -1.7006 -1.6499 0
M  V30 21 H 2.0914 -2.3771 -0.1198 0
M  V30 22 H 5.9808 1.4268 -0.4405 0
M  V30 23 H 5.6584 0.5932 1.1156 0
M  V30 24 H 1.7922 0.5744 -1.0217 0
M  V30 25 H 0.5704 -0.7168 -1.2796 0
M  V30 26 H 6.9126 -0.7049 -1.3997 0
M  V30 27 H 1.6312 0.1688 1.4842 0
M  V30 28 H 0.3559 -1.0594 1.1968 0
M  V30 29 H 7.289 -2.4155 -0.0703 0
M  V30 30 H 9.0796 -0.6097 -0.2485 0
M  V30 31 H 8.4329 1.048 -0.4329 0
M  V30 32 H 0.178 1.9105 0.3233 0
M  V30 33 H -0.4374 1.268 1.8821 0
M  V30 34 H 8.0202 1.1275 1.6998 0
M  V30 35 H -1.9234 -0.341 0.6123 0
M  V30 36 H -1.396 0.4329 -0.9318 0
M  V30 37 H -2.2066 2.6618 -0.0497 0
M  V30 38 H -2.8483 1.8379 1.4101 0
M  V30 39 H -3.6789 1.1799 -1.5041 0
M  V30 40 H -4.54 2.3273 -0.4255 0
M  V30 41 H -4.1458 -0.694 0.0843 0
M  V30 42 H -4.902 0.4588 1.2509 0
M  V30 43 H -6.6555 1.0201 -0.4506 0
M  V30 44 H -5.8876 -0.1223 -1.6201 0
M  V30 45 H -6.289 -2.0227 -0.0248 0
M  V30 46 H -7.0541 -0.8809 1.1441 0
M  V30 47 H -8.0506 -1.4736 -1.719 0
M  V30 48 H -8.8198 -0.3291 -0.5432 0
M  V30 49 H -8.7646 -2.0965 -0.1834 0
M  V30 END ATOM
M  V30 BEGIN BOND
M  V30 1 2 1 2
M  V30 2 1 2 3
M  V30 3 1 2 4
M  V30 4 1 3 5
M  V30 5 1 4 6
M  V30 6 1 5 7
M  V30 7 1 6 8
M  V30 8 1 7 9
M  V30 9 1 7 10
M  V30 10 1 8 11
M  V30 11 1 10 12
M  V30 12 1 11 13
M  V30 13 1 13 14
M  V30 14 1 14 15
M  V30 15 1 15 16
M  V30 16 1 16 17
M  V30 17 1 17 18
M  V30 18 1 18 19
M  V30 19 1 4 20
M  V30 20 1 4 21
M  V30 21 1 5 22
M  V30 22 1 5 23
M  V30 23 1 6 24
M  V30 24 1 6 25
M  V30 25 1 7 26
M  V30 26 1 8 27
M  V30 27 1 8 28
M  V30 28 1 9 29
M  V30 29 1 10 30
M  V30 30 1 10 31
M  V30 31 1 11 32
M  V30 32 1 11 33
M  V30 33 1 12 34
M  V30 34 1 13 35
M  V30 35 1 13 36
M  V30 36 1 14 37
M  V30 37 1 14 38
M  V30 38 1 15 39
M  V30 39 1 15 40
M  V30 40 1 16 41
M  V30 41 1 16 42
M  V30 42 1 17 43
M  V30 43 1 17 44
M  V30 44 1 18 45
M  V30 45 1 18 46
M  V30 46 1 19 47
M  V30 47 1 19 48
M  V30 48 1 19 49
M  V30 END BOND
M  V30 BEGIN COLLECTION
M  V30 MDLV30/STEABS ATOMS=(1 7)
M  V30 END COLLECTION
M  V30 END CTAB
M  END
>  <Structure No>
288

>  <LogS>
-4.660234439

>  <MMFF94 Energy>
21.379

$$$$
Compound 289
Actelion Java MolfileCreator 2.0

  0  0  0  0  0  0              0 V3000
M  V30 BEGIN CTAB
M  V30 COUNTS 29 30 0 0 0
M  V30 BEGIN ATOM
M  V30 1 O -1.5959 -2.075 1.516 0
M  V30 2 C -1.2617 -1.0393 0.8783 0
M  V30 3 C 0.1475 -0.8923 0.4382 0
M  V30 4 C -2.2869 -0.0016 0.6037 0
M  V30 5 C 0.8726 -1.9993 -0.0464 0
M  V30 6 C 0.7891 0.3542 0.5383 0
M  V30 7 C -3.3916 0.1421 1.4635 0
M  V30 8 C -2.196 0.8259 -0.5318 0
M  V30 9 O 0.2606 -3.248 -0.1575 0
M  V30 10 C 2.2117 -1.8437 -0.4332 0
M  V30 11 C 2.122 0.5023 0.1482 0
M  V30 12 C -4.3692 1.108 1.2052 0
M  V30 13 C -3.1765 1.7899 -0.7855 0
M  V30 14 C 2.8441 -0.5996 -0.3424 0
M  V30 15 C -4.2606 1.9327 0.0834 0
M  V30 16 O 4.184 -0.5019 -0.7462 0
M  V30 17 C 4.9494 0.6981 -0.7087 0
M  V30 18 H 0.2611 1.2139 0.9322 0
M  V30 19 H -3.4929 -0.4848 2.3407 0
M  V30 20 H -1.3769 0.7186 -1.2314 0
M  V30 21 H 0.7612 -4.0564 -0.5077 0
M  V30 22 H 2.7652 -2.6948 -0.8099 0
M  V30 23 H 2.5827 1.4765 0.2379 0
M  V30 24 H -5.212 1.2167 1.8757 0
M  V30 25 H -3.0985 2.423 -1.6598 0
M  V30 26 H -5.019 2.6791 -0.1153 0
M  V30 27 H 5.0245 1.0707 0.3346 0
M  V30 28 H 4.4828 1.4691 -1.3575 0
M  V30 29 H 5.9713 0.488 -1.0853 0
M  V30 END ATOM
M  V30 BEGIN BOND
M  V30 1 2 1 2
M  V30 2 1 2 3
M  V30 3 1 2 4
M  V30 4 2 3 5
M  V30 5 1 3 6
M  V30 6 2 4 7
M  V30 7 1 4 8
M  V30 8 1 5 9
M  V30 9 1 5 10
M  V30 10 2 6 11
M  V30 11 1 7 12
M  V30 12 2 8 13
M  V30 13 2 10 14
M  V30 14 2 12 15
M  V30 15 1 14 16
M  V30 16 1 16 17
M  V30 17 1 11 14
M  V30 18 1 13 15
M  V30 19 1 6 18
M  V30 20 1 7 19
M  V30 21 1 8 20
M  V30 22 1 9 21
M  V30 23 1 10 22
M  V30 24 1 11 23
M  V30 25 1 12 24
M  V30 26 1 13 25
M  V30 27 1 15 26
M  V30 28 1 17 27
M  V30 29 1 17 28
M  V30 30 1 17 29
M  V30 END BOND
M  V30 END CTAB
M  END
>  <Structure No>
289

>  <LogS>
-4.580253828

>  <MMFF94 Energy>
68.394

$$$$
Compound 290
Actelion Java MolfileCreator 2.0

  0  0  0  0  0  0              0 V3000
M  V30 BEGIN CTAB
M  V30 COUNTS 44 46 0 0 0
M  V30 BEGIN ATOM
M  V30 1 O 4.0241 0.9646 0.643 0
M  V30 2 C 3.3428 -0.083 0.481 0
M  V30 3 C 1.9327 -0.0028 0.0059 0
M  V30 4 C 3.9574 -1.3979 0.8522 0
M  V30 5 C 1.5102 0.9465 -0.88 0
M  V30 6 C 0.9674 -1.0858 0.4862 0
M  V30 7 C 0.0274 1.0331 -1.2405 0 CFG=2
M  V30 8 C 2.4563 1.9311 -1.522 0
M  V30 9 C -0.511 -0.8638 0.0464 0 CFG=2
M  V30 10 C -0.8325 1.5989 -0.0661 0
M  V30 11 C -0.4968 -0.3872 -1.4109 0
M  V30 12 C -1.1478 0.3214 0.7915 0 CFG=1
M  V30 13 C -1.3948 -2.1059 0.3735 0 CFG=1
M  V30 14 C -0.082 2.6504 0.7917 0
M  V30 15 C -2.0829 2.3087 -0.6489 0
M  V30 16 C -2.6191 -0.0778 0.9718 0
M  V30 17 C -2.6016 -1.5833 1.1657 0
M  V30 18 C -1.822 -2.9399 -0.8449 0
M  V30 19 H 3.7685 -2.1445 0.0528 0
M  V30 20 H 5.0561 -1.2911 0.9765 0
M  V30 21 H 3.5243 -1.7593 1.8081 0
M  V30 22 H 1.3097 -2.0556 0.0643 0
M  V30 23 H 1.0254 -1.1668 1.5936 0
M  V30 24 H -0.1193 1.6085 -2.1815 0
M  V30 25 H 1.953 2.5179 -2.3181 0
M  V30 26 H 2.8268 2.6524 -0.7648 0
M  V30 27 H 3.3099 1.394 -1.9865 0
M  V30 28 H -1.5157 -0.3618 -1.8538 0
M  V30 29 H 0.1603 -1.0071 -2.0618 0
M  V30 30 H -0.7093 0.4044 1.8133 0
M  V30 31 H -0.8352 -2.7968 1.0447 0
M  V30 32 H 0.2894 3.4806 0.1533 0
M  V30 33 H 0.7832 2.2076 1.3285 0
M  V30 34 H -0.7621 3.0746 1.5617 0
M  V30 35 H -1.7855 3.241 -1.1761 0
M  V30 36 H -2.7915 2.5872 0.1605 0
M  V30 37 H -2.6106 1.6785 -1.3941 0
M  V30 38 H -3.0747 0.4389 1.8442 0
M  V30 39 H -3.2295 0.1223 0.069 0
M  V30 40 H -2.4614 -1.8053 2.2473 0
M  V30 41 H -3.5646 -2.037 0.8422 0
M  V30 42 H -2.3285 -3.8675 -0.5029 0
M  V30 43 H -0.931 -3.2339 -1.4389 0
M  V30 44 H -2.5315 -2.3804 -1.4897 0
M  V30 END ATOM
M  V30 BEGIN BOND
M  V30 1 2 1 2
M  V30 2 1 2 3
M  V30 3 1 2 4
M  V30 4 2 3 5
M  V30 5 1 3 6
M  V30 6 1 5 7
M  V30 7 1 5 8
M  V30 8 1 6 9
M  V30 9 1 7 10
M  V30 10 1 7 11
M  V30 11 1 9 12
M  V30 12 1 9 13
M  V30 13 1 10 14
M  V30 14 1 10 15
M  V30 15 1 12 16
M  V30 16 1 13 17
M  V30 17 1 13 18
M  V30 18 1 9 11
M  V30 19 1 10 12
M  V30 20 1 16 17
M  V30 21 1 4 19
M  V30 22 1 4 20
M  V30 23 1 4 21
M  V30 24 1 6 22
M  V30 25 1 6 23
M  V30 26 1 7 24
M  V30 27 1 8 25
M  V30 28 1 8 26
M  V30 29 1 8 27
M  V30 30 1 11 28
M  V30 31 1 11 29
M  V30 32 1 12 30
M  V30 33 1 13 31
M  V30 34 1 14 32
M  V30 35 1 14 33
M  V30 36 1 14 34
M  V30 37 1 15 35
M  V30 38 1 15 36
M  V30 39 1 15 37
M  V30 40 1 16 38
M  V30 41 1 16 39
M  V30 42 1 17 40
M  V30 43 1 17 41
M  V30 44 1 18 42
M  V30 45 1 18 43
M  V30 46 1 18 44
M  V30 END BOND
M  V30 BEGIN COLLECTION
M  V30 MDLV30/STEABS ATOMS=(4 7 9 12 13)
M  V30 END COLLECTION
M  V30 END CTAB
M  END
>  <Structure No>
290

>  <LogS>
-4.613478878

>  <MMFF94 Energy>
78.609

$$$$
Compound 291
Actelion Java MolfileCreator 2.0

  0  0  0  0  0  0              0 V3000
M  V30 BEGIN CTAB
M  V30 COUNTS 21 21 0 0 0
M  V30 BEGIN ATOM
M  V30 1 O 0.6301 -2.2067 0.1574 0
M  V30 2 C 0.4447 -0.9608 0.0738 0
M  V30 3 O 1.5343 -0.0855 0.1381 0
M  V30 4 C -0.9233 -0.4226 -0.0922 0
M  V30 5 C 2.8754 -0.5361 0.297 0
M  V30 6 C -2.0329 -1.2864 -0.1589 0
M  V30 7 C -1.1337 0.9655 -0.1857 0
M  V30 8 C 3.8136 0.6596 0.3292 0
M  V30 9 C -3.323 -0.77 -0.316 0
M  V30 10 C -2.4261 1.4762 -0.3427 0
M  V30 11 C -3.5196 0.6097 -0.4077 0
M  V30 12 H 2.9708 -1.1034 1.2483 0
M  V30 13 H 3.1525 -1.1974 -0.5524 0
M  V30 14 H -1.9049 -2.3595 -0.09 0
M  V30 15 H -0.3018 1.6569 -0.1379 0
M  V30 16 H 3.7325 1.2309 -0.6196 0
M  V30 17 H 4.8606 0.3117 0.4531 0
M  V30 18 H 3.5511 1.3248 1.1791 0
M  V30 19 H -4.1713 -1.4406 -0.3665 0
M  V30 20 H -2.5797 2.5454 -0.4139 0
M  V30 21 H -4.519 1.0073 -0.5293 0
M  V30 END ATOM
M  V30 BEGIN BOND
M  V30 1 2 1 2
M  V30 2 1 2 3
M  V30 3 1 2 4
M  V30 4 1 3 5
M  V30 5 2 4 6
M  V30 6 1 4 7
M  V30 7 1 5 8
M  V30 8 1 6 9
M  V30 9 2 7 10
M  V30 10 2 9 11
M  V30 11 1 10 11
M  V30 12 1 5 12
M  V30 13 1 5 13
M  V30 14 1 6 14
M  V30 15 1 7 15
M  V30 16 1 8 16
M  V30 17 1 8 17
M  V30 18 1 8 18
M  V30 19 1 9 19
M  V30 20 1 10 20
M  V30 21 1 11 21
M  V30 END BOND
M  V30 END CTAB
M  END
>  <Structure No>
291

>  <LogS>
-2.39990224

>  <MMFF94 Energy>
27.692

$$$$
Compound 292
Actelion Java MolfileCreator 2.0

  0  0  0  0  0  0              0 V3000
M  V30 BEGIN CTAB
M  V30 COUNTS 20 20 0 0 0
M  V30 BEGIN ATOM
M  V30 1 O 3.8223 -1.6709 -0.4771 0
M  V30 2 C 3.3495 -0.7274 0.2097 0
M  V30 3 O 4.1932 0.2689 0.6841 0 CHG=-1
M  V30 4 C 1.8786 -0.6495 0.4699 0
M  V30 5 C 1.1798 0.1465 -0.6347 0
M  V30 6 C -0.3 0.2295 -0.3716 0
M  V30 7 C -0.8243 1.2762 0.4055 0
M  V30 8 C -1.1629 -0.769 -0.8535 0
M  V30 9 C -2.1953 1.3341 0.6757 0
M  V30 10 C -2.5332 -0.7072 -0.581 0
M  V30 11 C -3.0493 0.3445 0.1811 0
M  V30 12 H 1.7099 -0.1577 1.4529 0
M  V30 13 H 1.4572 -1.6777 0.5198 0
M  V30 14 H 1.6099 1.1712 -0.6885 0
M  V30 15 H 1.3597 -0.3401 -1.619 0
M  V30 16 H -0.1722 2.0444 0.8023 0
M  V30 17 H -0.7745 -1.5941 -1.4377 0
M  V30 18 H -2.5951 2.1445 1.2714 0
M  V30 19 H -3.1946 -1.4766 -0.9579 0
M  V30 20 H -4.1099 0.3901 0.3923 0
M  V30 END ATOM
M  V30 BEGIN BOND
M  V30 1 2 1 2
M  V30 2 1 2 3
M  V30 3 1 2 4
M  V30 4 1 4 5
M  V30 5 1 5 6
M  V30 6 2 6 7
M  V30 7 1 6 8
M  V30 8 1 7 9
M  V30 9 2 8 10
M  V30 10 2 9 11
M  V30 11 1 10 11
M  V30 12 1 4 12
M  V30 13 1 4 13
M  V30 14 1 5 14
M  V30 15 1 5 15
M  V30 16 1 7 16
M  V30 17 1 8 17
M  V30 18 1 9 18
M  V30 19 1 10 19
M  V30 20 1 11 20
M  V30 END BOND
M  V30 END CTAB
M  END
>  <Structure No>
292

>  <LogS>
-1.405751413

>  <MMFF94 Energy>
17.412

$$$$
Compound 293
Actelion Java MolfileCreator 2.0

  0  0  0  0  0  0              0 V3000
M  V30 BEGIN CTAB
M  V30 COUNTS 27 26 0 0 0
M  V30 BEGIN ATOM
M  V30 1 O 4.4192 0.8516 -1.7813 0
M  V30 2 C 3.3405 0.7458 -1.1413 0
M  V30 3 C 3.1722 -0.3544 -0.1769 0
M  V30 4 C 2.0665 -0.5589 0.5656 0
M  V30 5 C 0.8446 0.3315 0.4856 0
M  V30 6 C 2.049 -1.7319 1.5086 0
M  V30 7 C -0.0222 -0.0347 -0.7248 0
M  V30 8 C -1.2493 0.8402 -0.7866 0
M  V30 9 C -2.4215 0.5571 -0.1763 0
M  V30 10 C -3.55 1.5492 -0.2926 0
M  V30 11 C -2.6324 -0.7229 0.5981 0
M  V30 12 H 2.5608 1.4718 -1.3211 0
M  V30 13 H 4.0075 -1.0374 -0.066 0
M  V30 14 H 0.2419 0.2217 1.4118 0
M  V30 15 H 1.1422 1.4013 0.4484 0
M  V30 16 H 2.2245 -2.6718 0.9432 0
M  V30 17 H 1.0731 -1.8237 2.0303 0
M  V30 18 H 2.8461 -1.6121 2.2727 0
M  V30 19 H -0.2968 -1.1104 -0.6938 0
M  V30 20 H 0.5589 0.1218 -1.658 0
M  V30 21 H -1.1565 1.7722 -1.3393 0
M  V30 22 H -3.8099 1.6987 -1.3621 0
M  V30 23 H -4.4599 1.2024 0.2401 0
M  V30 24 H -3.2405 2.522 0.1449 0
M  V30 25 H -3.6445 -0.7613 1.0519 0
M  V30 26 H -2.5322 -1.5962 -0.0798 0
M  V30 27 H -1.8915 -0.8043 1.4193 0
M  V30 END ATOM
M  V30 BEGIN BOND
M  V30 1 2 1 2
M  V30 2 1 2 3
M  V30 3 2 3 4
M  V30 4 1 4 5
M  V30 5 1 4 6
M  V30 6 1 5 7
M  V30 7 1 7 8
M  V30 8 2 8 9
M  V30 9 1 9 10
M  V30 10 1 9 11
M  V30 11 1 2 12
M  V30 12 1 3 13
M  V30 13 1 5 14
M  V30 14 1 5 15
M  V30 15 1 6 16
M  V30 16 1 6 17
M  V30 17 1 6 18
M  V30 18 1 7 19
M  V30 19 1 7 20
M  V30 20 1 8 21
M  V30 21 1 10 22
M  V30 22 1 10 23
M  V30 23 1 10 24
M  V30 24 1 11 25
M  V30 25 1 11 26
M  V30 26 1 11 27
M  V30 END BOND
M  V30 END CTAB
M  END
>  <Structure No>
293

>  <LogS>
-2.411668206

>  <MMFF94 Energy>
26.232

$$$$
Compound 294
Actelion Java MolfileCreator 2.0

  0  0  0  0  0  0              0 V3000
M  V30 BEGIN CTAB
M  V30 COUNTS 32 32 0 0 0
M  V30 BEGIN ATOM
M  V30 1 O -1.966 -2.0447 0.8646 0
M  V30 2 C -2.6737 -1.1302 0.4725 0
M  V30 3 C -2.2305 0.2947 0.4226 0 CFG=2
M  V30 4 C -4.0826 -1.3354 0.0607 0
M  V30 5 C -3.4282 1.0083 -0.2215 0
M  V30 6 C -0.9405 0.5014 -0.401 0
M  V30 7 C -4.6352 0.0792 -0.0628 0
M  V30 8 C 0.3233 0.1041 0.3767 0
M  V30 9 C 1.5868 0.4037 -0.4392 0
M  V30 10 C 2.8496 0.0033 0.3329 0
M  V30 11 C 4.1118 0.3039 -0.4834 0
M  V30 12 C 5.3708 -0.0934 0.2817 0
M  V30 13 H -2.0939 0.6703 1.4611 0
M  V30 14 H -4.1135 -1.8614 -0.9175 0
M  V30 15 H -4.6415 -1.9131 0.8282 0
M  V30 16 H -3.6159 1.9914 0.2627 0
M  V30 17 H -3.2551 1.1766 -1.3084 0
M  V30 18 H -0.8587 1.5793 -0.6654 0
M  V30 19 H -0.9985 -0.0777 -1.3497 0
M  V30 20 H -5.3288 0.1663 -0.9272 0
M  V30 21 H -5.1834 0.3456 0.868 0
M  V30 22 H 0.2972 -0.9802 0.6123 0
M  V30 23 H 0.3619 0.6725 1.3322 0
M  V30 24 H 1.5472 -0.1599 -1.3974 0
M  V30 25 H 1.6271 1.4911 -0.6701 0
M  V30 26 H 2.8109 -1.0844 0.563 0
M  V30 27 H 2.8887 0.5664 1.2916 0
M  V30 28 H 4.1594 1.3906 -0.714 0
M  V30 29 H 4.0811 -0.2584 -1.442 0
M  V30 30 H 5.4388 0.4742 1.2343 0
M  V30 31 H 6.2669 0.1354 -0.3327 0
M  V30 32 H 5.3603 -1.1819 0.503 0
M  V30 END ATOM
M  V30 BEGIN BOND
M  V30 1 2 1 2
M  V30 2 1 2 3
M  V30 3 1 2 4
M  V30 4 1 3 5
M  V30 5 1 3 6
M  V30 6 1 4 7
M  V30 7 1 6 8
M  V30 8 1 8 9
M  V30 9 1 9 10
M  V30 10 1 10 11
M  V30 11 1 11 12
M  V30 12 1 5 7
M  V30 13 1 3 13
M  V30 14 1 4 14
M  V30 15 1 4 15
M  V30 16 1 5 16
M  V30 17 1 5 17
M  V30 18 1 6 18
M  V30 19 1 6 19
M  V30 20 1 7 20
M  V30 21 1 7 21
M  V30 22 1 8 22
M  V30 23 1 8 23
M  V30 24 1 9 24
M  V30 25 1 9 25
M  V30 26 1 10 26
M  V30 27 1 10 27
M  V30 28 1 11 28
M  V30 29 1 11 29
M  V30 30 1 12 30
M  V30 31 1 12 31
M  V30 32 1 12 32
M  V30 END BOND
M  V30 BEGIN COLLECTION
M  V30 MDLV30/STEABS ATOMS=(1 3)
M  V30 END COLLECTION
M  V30 END CTAB
M  END
>  <Structure No>
294

>  <LogS>
-3.451515538

>  <MMFF94 Energy>
3.872

$$$$
Compound 295
Actelion Java MolfileCreator 2.0

  0  0  0  0  0  0              0 V3000
M  V30 BEGIN CTAB
M  V30 COUNTS 35 34 0 0 0
M  V30 BEGIN ATOM
M  V30 1 O -2.1008 0.6221 -1.7115 0
M  V30 2 C -1.7556 0.2876 -0.5849 0
M  V30 3 C -0.3873 0.7725 -0.0799 0
M  V30 4 C -2.7138 -0.5885 0.2111 0
M  V30 5 C 0.7032 0.145 -0.9972 0
M  V30 6 C -0.3654 2.3152 -0.181 0
M  V30 7 C -0.1199 0.384 1.3931 0
M  V30 8 C -4.0276 0.1593 0.4616 0
M  V30 9 C -2.9717 -1.9027 -0.534 0
M  V30 10 C 2.1145 0.5851 -0.6582 0
M  V30 11 C 3.0675 -0.2135 -0.1248 0
M  V30 12 C 4.4288 0.3525 0.188 0
M  V30 13 C 2.8317 -1.6765 0.1537 0
M  V30 14 H -2.3072 -0.8625 1.2022 0
M  V30 15 H 0.6024 -0.96 -0.9765 0
M  V30 16 H 0.5169 0.4441 -2.0519 0
M  V30 17 H -1.2265 2.7504 0.3717 0
M  V30 18 H 0.5635 2.7376 0.2571 0
M  V30 19 H -0.4287 2.6449 -1.2405 0
M  V30 20 H 0.848 0.8 1.7454 0
M  V30 21 H -0.0715 -0.719 1.5106 0
M  V30 22 H -0.9131 0.791 2.0569 0
M  V30 23 H -4.7118 -0.4639 1.0763 0
M  V30 24 H -3.8268 1.1025 1.014 0
M  V30 25 H -4.5338 0.4051 -0.4966 0
M  V30 26 H -2.0122 -2.4378 -0.7009 0
M  V30 27 H -3.6356 -2.56 0.0675 0
M  V30 28 H -3.454 -1.7144 -1.5173 0
M  V30 29 H 2.3546 1.626 -0.8548 0
M  V30 30 H 4.4896 1.4433 -0.0153 0
M  V30 31 H 5.1938 -0.1625 -0.4297 0
M  V30 32 H 4.6607 0.1871 1.2611 0
M  V30 33 H 2.5976 -2.2105 -0.7909 0
M  V30 34 H 3.7365 -2.1453 0.5953 0
M  V30 35 H 1.9972 -1.8013 0.8734 0
M  V30 END ATOM
M  V30 BEGIN BOND
M  V30 1 2 1 2
M  V30 2 1 2 3
M  V30 3 1 2 4
M  V30 4 1 3 5
M  V30 5 1 3 6
M  V30 6 1 3 7
M  V30 7 1 4 8
M  V30 8 1 4 9
M  V30 9 1 5 10
M  V30 10 2 10 11
M  V30 11 1 11 12
M  V30 12 1 11 13
M  V30 13 1 4 14
M  V30 14 1 5 15
M  V30 15 1 5 16
M  V30 16 1 6 17
M  V30 17 1 6 18
M  V30 18 1 6 19
M  V30 19 1 7 20
M  V30 20 1 7 21
M  V30 21 1 7 22
M  V30 22 1 8 23
M  V30 23 1 8 24
M  V30 24 1 8 25
M  V30 25 1 9 26
M  V30 26 1 9 27
M  V30 27 1 9 28
M  V30 28 1 10 29
M  V30 29 1 12 30
M  V30 30 1 12 31
M  V30 31 1 12 32
M  V30 32 1 13 33
M  V30 33 1 13 34
M  V30 34 1 13 35
M  V30 END BOND
M  V30 END CTAB
M  END
>  <Structure No>
295

>  <LogS>
-3.489215864

>  <MMFF94 Energy>
28.245

$$$$
Compound 296
Actelion Java MolfileCreator 2.0

  0  0  0  0  0  0              0 V3000
M  V30 BEGIN CTAB
M  V30 COUNTS 21 21 0 0 0
M  V30 BEGIN ATOM
M  V30 1 O -1.9523 2.4995 0.2341 0
M  V30 2 C -0.9324 1.5474 0.1979 0
M  V30 3 C -1.2184 0.2072 -0.137 0
M  V30 4 C 0.3789 1.9332 0.4972 0
M  V30 5 C -0.1569 -0.7245 -0.1618 0
M  V30 6 C -2.6266 -0.174 -0.451 0
M  V30 7 C 1.4175 1.0038 0.4689 0
M  V30 8 C 1.162 -0.3395 0.1384 0
M  V30 9 C -3.0367 -1.4005 -0.7823 0
M  V30 10 C 2.2266 -1.3785 0.0909 0
M  V30 11 C 3.5181 -1.1642 0.3501 0
M  V30 12 H -1.7697 3.4675 0.4721 0
M  V30 13 H 0.5959 2.9626 0.7541 0
M  V30 14 H -0.3371 -1.7584 -0.4136 0
M  V30 15 H -3.3894 0.5939 -0.4117 0
M  V30 16 H 2.4098 1.3545 0.708 0
M  V30 17 H -4.085 -1.5715 -0.9919 0
M  V30 18 H -2.3747 -2.2484 -0.8554 0
M  V30 19 H 1.9398 -2.3898 -0.1735 0
M  V30 20 H 3.9126 -0.1979 0.6228 0
M  V30 21 H 4.2168 -1.9885 0.2883 0
M  V30 END ATOM
M  V30 BEGIN BOND
M  V30 1 1 1 2
M  V30 2 2 2 3
M  V30 3 1 2 4
M  V30 4 1 3 5
M  V30 5 1 3 6
M  V30 6 2 4 7
M  V30 7 2 5 8
M  V30 8 2 6 9
M  V30 9 1 8 10
M  V30 10 2 10 11
M  V30 11 1 7 8
M  V30 12 1 1 12
M  V30 13 1 4 13
M  V30 14 1 5 14
M  V30 15 1 6 15
M  V30 16 1 7 16
M  V30 17 1 9 17
M  V30 18 1 9 18
M  V30 19 1 10 19
M  V30 20 1 11 20
M  V30 21 1 11 21
M  V30 END BOND
M  V30 END CTAB
M  END
>  <Structure No>
296

>  <LogS>
-3.394062684

>  <MMFF94 Energy>
29.054

$$$$
Compound 297
Actelion Java MolfileCreator 2.0

  0  0  0  0  0  0              0 V3000
M  V30 BEGIN CTAB
M  V30 COUNTS 15 15 0 0 0
M  V30 BEGIN ATOM
M  V30 1 Cl 3.6308 0.1611 0.0 0
M  V30 2 C 1.8883 -0.0399 0.0241 0
M  V30 3 C 1.0555 1.0256 -0.3321 0
M  V30 4 C 1.3311 -1.2655 0.3995 0
M  V30 5 C -0.3386 0.8702 -0.3147 0
M  V30 6 C -0.0569 -1.4273 0.4192 0
M  V30 7 O -1.1644 1.9358 -0.6708 0
M  V30 8 C -0.9002 -0.3638 0.0632 0
M  V30 9 N -2.3203 -0.5443 0.0882 0
M  V30 10 H 1.4907 1.9737 -0.6224 0
M  V30 11 H 1.9718 -2.0929 0.6761 0
M  V30 12 H -0.476 -2.3817 0.7119 0
M  V30 13 H -0.7835 2.8335 -0.9464 0
M  V30 14 H -2.7357 -1.4606 0.3689 0
M  V30 15 H -2.971 0.2297 -0.1716 0
M  V30 END ATOM
M  V30 BEGIN BOND
M  V30 1 1 1 2
M  V30 2 2 2 3
M  V30 3 1 2 4
M  V30 4 1 3 5
M  V30 5 2 4 6
M  V30 6 1 5 7
M  V30 7 2 5 8
M  V30 8 1 8 9
M  V30 9 1 6 8
M  V30 10 1 3 10
M  V30 11 1 4 11
M  V30 12 1 6 12
M  V30 13 1 7 13
M  V30 14 1 9 14
M  V30 15 1 9 15
M  V30 END BOND
M  V30 END CTAB
M  END
>  <Structure No>
297

>  <LogS>
-2.390659928

>  <MMFF94 Energy>
8.9774

$$$$
Compound 298
Actelion Java MolfileCreator 2.0

  0  0  0  0  0  0              0 V3000
M  V30 BEGIN CTAB
M  V30 COUNTS 21 21 0 0 0
M  V30 BEGIN ATOM
M  V30 1 O 4.6302 -1.0363 -0.3985 0
M  V30 2 C 4.0779 -0.0393 0.1383 0
M  V30 3 O 4.875 0.944 0.7131 0 CHG=-1
M  V30 4 C 2.6036 0.0845 0.1577 0
M  V30 5 C 1.7923 -0.9067 -0.4219 0
M  V30 6 C 1.9927 1.1985 0.7577 0
M  V30 7 C 0.3994 -0.7857 -0.4014 0
M  V30 8 C 0.6 1.3177 0.7772 0
M  V30 9 C -0.2075 0.3318 0.2007 0
M  V30 10 O -1.5996 0.4992 0.247 0
M  V30 11 C -2.5401 -0.4224 -0.298 0
M  V30 12 C -3.9509 0.0913 -0.0592 0
M  V30 13 H 2.2335 -1.7769 -0.8918 0
M  V30 14 H 2.5893 1.9791 1.2128 0
M  V30 15 H -0.1949 -1.5662 -0.8562 0
M  V30 16 H 0.1448 2.1825 1.2436 0
M  V30 17 H -2.4257 -1.4125 0.194 0
M  V30 18 H -2.3722 -0.5292 -1.3915 0
M  V30 19 H -4.6872 -0.6238 -0.4826 0
M  V30 20 H -4.1366 0.198 1.0305 0
M  V30 21 H -4.0833 1.0787 -0.5503 0
M  V30 END ATOM
M  V30 BEGIN BOND
M  V30 1 2 1 2
M  V30 2 1 2 3
M  V30 3 1 2 4
M  V30 4 2 4 5
M  V30 5 1 4 6
M  V30 6 1 5 7
M  V30 7 2 6 8
M  V30 8 2 7 9
M  V30 9 1 9 10
M  V30 10 1 10 11
M  V30 11 1 11 12
M  V30 12 1 8 9
M  V30 13 1 5 13
M  V30 14 1 6 14
M  V30 15 1 7 15
M  V30 16 1 8 16
M  V30 17 1 11 17
M  V30 18 1 11 18
M  V30 19 1 12 19
M  V30 20 1 12 20
M  V30 21 1 12 21
M  V30 END BOND
M  V30 END CTAB
M  END
>  <Structure No>
298

>  <LogS>
-2.454899746

>  <MMFF94 Energy>
38.341

$$$$
Compound 299
Actelion Java MolfileCreator 2.0

  0  0  0  0  0  0              0 V3000
M  V30 BEGIN CTAB
M  V30 COUNTS 17 17 0 0 0
M  V30 BEGIN ATOM
M  V30 1 Cl -1.6281 2.4858 1.2852 0
M  V30 2 C -0.8193 1.0794 0.6023 0
M  V30 3 C -1.5361 -0.064 0.1894 0
M  V30 4 C 0.5725 1.1232 0.4693 0
M  V30 5 N -2.9652 -0.1172 0.3256 0
M  V30 6 C -0.8287 -1.1514 -0.3662 0
M  V30 7 C 1.2782 0.0308 -0.056 0
M  V30 8 Cl -1.6496 -2.6051 -0.9249 0
M  V30 9 C 0.5633 -1.094 -0.4932 0
M  V30 10 C 2.7734 0.105 -0.2414 0
M  V30 11 F 3.0513 0.6434 -1.4838 0
M  V30 12 F 3.3398 -1.1551 -0.1589 0
M  V30 13 F 3.3484 0.9014 0.7339 0
M  V30 14 H 1.1034 2.0162 0.7764 0
M  V30 15 H -3.5084 0.6749 0.7325 0
M  V30 16 H -3.5152 -0.9513 0.0265 0
M  V30 17 H 1.0868 -1.9316 -0.9375 0
M  V30 END ATOM
M  V30 BEGIN BOND
M  V30 1 1 1 2
M  V30 2 2 2 3
M  V30 3 1 2 4
M  V30 4 1 3 5
M  V30 5 1 3 6
M  V30 6 2 4 7
M  V30 7 1 6 8
M  V30 8 2 6 9
M  V30 9 1 7 10
M  V30 10 1 10 11
M  V30 11 1 10 12
M  V30 12 1 10 13
M  V30 13 1 7 9
M  V30 14 1 4 14
M  V30 15 1 5 15
M  V30 16 1 5 16
M  V30 17 1 9 17
M  V30 END BOND
M  V30 END CTAB
M  END
>  <Structure No>
299

>  <LogS>
-3.591642752

>  <MMFF94 Energy>
63.687

$$$$
Compound 300
Actelion Java MolfileCreator 2.0

  0  0  0  0  0  0              0 V3000
M  V30 BEGIN CTAB
M  V30 COUNTS 43 45 0 0 0
M  V30 BEGIN ATOM
M  V30 1 N -0.4745 0.1581 0.079 0
M  V30 2 C -1.0884 -0.9008 0.8247 0
M  V30 3 C -1.1458 1.4271 -0.0581 0
M  V30 4 C 0.7136 -0.1317 -0.7374 0
M  V30 5 C -2.2364 -1.5205 0.3188 0
M  V30 6 C -0.559 -1.3086 2.0577 0
M  V30 7 C -2.5246 1.5425 -0.4203 0
M  V30 8 C -0.3936 2.5969 0.1535 0
M  V30 9 C 1.9723 -0.2595 0.1292 0
M  V30 10 C -2.8466 -2.5577 1.0429 0
M  V30 11 C -2.8474 -0.9874 -0.9427 0
M  V30 12 C -1.162 -2.3491 2.7696 0
M  V30 13 C -3.0889 2.8297 -0.5151 0
M  V30 14 C -3.479 0.3813 -0.6766 0
M  V30 15 C -0.9766 3.857 0.037 0
M  V30 16 C 3.2378 -0.3173 -0.7365 0
M  V30 17 C -2.3024 -2.9762 2.2606 0
M  V30 18 C -2.3226 3.9732 -0.2932 0
M  V30 19 N 4.4355 -0.47 0.1023 0 CHG=1
M  V30 20 C 5.6446 -0.5216 -0.723 0
M  V30 21 H 0.5546 -1.0776 -1.3004 0
M  V30 22 H 0.8608 0.6726 -1.4923 0
M  V30 23 H 0.3082 -0.8123 2.4727 0
M  V30 24 H 0.652 2.5314 0.4224 0
M  V30 25 H 2.0405 0.6063 0.8221 0
M  V30 26 H 1.9095 -1.1907 0.7309 0
M  V30 27 H -3.7459 -3.0334 0.672 0
M  V30 28 H -2.0838 -0.9095 -1.7466 0
M  V30 29 H -3.6339 -1.6822 -1.3107 0
M  V30 30 H -0.7504 -2.6639 3.7199 0
M  V30 31 H -4.136 2.9503 -0.7671 0
M  V30 32 H -4.0977 0.6286 -1.5677 0
M  V30 33 H -4.1787 0.3006 0.1843 0
M  V30 34 H -0.3833 4.746 0.2086 0
M  V30 35 H 3.1557 -1.1775 -1.4393 0
M  V30 36 H 3.3116 0.6206 -1.3326 0
M  V30 37 H -2.7729 -3.7766 2.8168 0
M  V30 38 H -2.7757 4.9528 -0.3769 0
M  V30 39 H 4.3693 -1.3568 0.6551 0
M  V30 40 H 4.5125 0.3417 0.7592 0
M  V30 41 H 6.5375 -0.6376 -0.0715 0
M  V30 42 H 5.6072 -1.388 -1.4192 0
M  V30 43 H 5.7607 0.4175 -1.3075 0
M  V30 END ATOM
M  V30 BEGIN BOND
M  V30 1 1 1 2
M  V30 2 1 1 3
M  V30 3 1 1 4
M  V30 4 2 2 5
M  V30 5 1 2 6
M  V30 6 2 3 7
M  V30 7 1 3 8
M  V30 8 1 4 9
M  V30 9 1 5 10
M  V30 10 1 5 11
M  V30 11 2 6 12
M  V30 12 1 7 13
M  V30 13 1 7 14
M  V30 14 2 8 15
M  V30 15 1 9 16
M  V30 16 2 10 17
M  V30 17 2 13 18
M  V30 18 1 16 19
M  V30 19 1 19 20
M  V30 20 1 11 14
M  V30 21 1 12 17
M  V30 22 1 15 18
M  V30 23 1 4 21
M  V30 24 1 4 22
M  V30 25 1 6 23
M  V30 26 1 8 24
M  V30 27 1 9 25
M  V30 28 1 9 26
M  V30 29 1 10 27
M  V30 30 1 11 28
M  V30 31 1 11 29
M  V30 32 1 12 30
M  V30 33 1 13 31
M  V30 34 1 14 32
M  V30 35 1 14 33
M  V30 36 1 15 34
M  V30 37 1 16 35
M  V30 38 1 16 36
M  V30 39 1 17 37
M  V30 40 1 18 38
M  V30 41 1 19 39
M  V30 42 1 19 40
M  V30 43 1 20 41
M  V30 44 1 20 42
M  V30 45 1 20 43
M  V30 END BOND
M  V30 END CTAB
M  END
>  <Structure No>
300

>  <LogS>
-3.657617041

>  <MMFF94 Energy>
54.844

$$$$
Compound 301
Actelion Java MolfileCreator 2.0

  0  0  0  0  0  0              0 V3000
M  V30 BEGIN CTAB
M  V30 COUNTS 37 38 0 0 0
M  V30 BEGIN ATOM
M  V30 1 Cl 6.7605 0.4014 0.6423 0
M  V30 2 C 5.0773 0.1331 0.2277 0
M  V30 3 C 4.0787 0.3407 1.1842 0
M  V30 4 C 4.732 -0.291 -1.0586 0
M  V30 5 C 2.7361 0.1274 0.856 0
M  V30 6 C 3.3903 -0.5047 -1.389 0
M  V30 7 C 2.3812 -0.2946 -0.4406 0
M  V30 8 O 1.0508 -0.5205 -0.8282 0
M  V30 9 C -0.1038 -0.2427 -0.0307 0 CFG=1
M  V30 10 N -0.2383 1.2039 0.1574 0
M  V30 11 C -1.3371 -0.7769 -0.7332 0
M  V30 12 C -0.3525 1.8687 1.324 0
M  V30 13 C -0.2822 2.144 -0.8019 0
M  V30 14 O -1.3092 -0.8569 -1.9544 0
M  V30 15 C -2.6466 -1.1174 -0.0135 0
M  V30 16 N -0.4673 3.2017 1.1491 0
M  V30 17 C -0.4232 3.368 -0.1888 0
M  V30 18 C -2.4927 -1.1914 1.5211 0
M  V30 19 C -3.687 -0.0335 -0.354 0
M  V30 20 C -3.1559 -2.4862 -0.511 0
M  V30 21 H 4.3414 0.6657 2.1829 0
M  V30 22 H 5.5008 -0.455 -1.8027 0
M  V30 23 H 1.989 0.2872 1.6191 0
M  V30 24 H 3.1322 -0.8317 -2.3882 0
M  V30 25 H 0.0208 -0.752 0.9466 0
M  V30 26 H -0.3451 1.3939 2.2965 0
M  V30 27 H -0.2178 1.9543 -1.8654 0
M  V30 28 H -0.4898 4.3262 -0.6864 0
M  V30 29 H -3.4622 -1.4528 1.9982 0
M  V30 30 H -1.7557 -1.9723 1.8072 0
M  V30 31 H -2.1722 -0.2154 1.9385 0
M  V30 32 H -3.3361 0.9632 -0.0082 0
M  V30 33 H -3.8586 0.0196 -1.451 0
M  V30 34 H -4.6598 -0.252 0.1375 0
M  V30 35 H -2.4041 -3.2782 -0.3034 0
M  V30 36 H -3.3494 -2.4663 -1.6053 0
M  V30 37 H -4.1055 -2.7627 -0.003 0
M  V30 END ATOM
M  V30 BEGIN BOND
M  V30 1 1 1 2
M  V30 2 2 2 3
M  V30 3 1 2 4
M  V30 4 1 3 5
M  V30 5 2 4 6
M  V30 6 2 5 7
M  V30 7 1 7 8
M  V30 8 1 8 9
M  V30 9 1 9 10
M  V30 10 1 9 11
M  V30 11 1 10 12
M  V30 12 1 10 13
M  V30 13 2 11 14
M  V30 14 1 11 15
M  V30 15 2 12 16
M  V30 16 2 13 17
M  V30 17 1 15 18
M  V30 18 1 15 19
M  V30 19 1 15 20
M  V30 20 1 6 7
M  V30 21 1 16 17
M  V30 22 1 3 21
M  V30 23 1 4 22
M  V30 24 1 5 23
M  V30 25 1 6 24
M  V30 26 1 9 25
M  V30 27 1 12 26
M  V30 28 1 13 27
M  V30 29 1 17 28
M  V30 30 1 18 29
M  V30 31 1 18 30
M  V30 32 1 18 31
M  V30 33 1 19 32
M  V30 34 1 19 33
M  V30 35 1 19 34
M  V30 36 1 20 35
M  V30 37 1 20 36
M  V30 38 1 20 37
M  V30 END BOND
M  V30 BEGIN COLLECTION
M  V30 MDLV30/STEABS ATOMS=(1 9)
M  V30 END COLLECTION
M  V30 END CTAB
M  END
>  <Structure No>
301

>  <LogS>
-3.703092646

>  <MMFF94 Energy>
64.173

$$$$
Compound 302
Actelion Java MolfileCreator 2.0

  0  0  0  0  0  0              0 V3000
M  V30 BEGIN CTAB
M  V30 COUNTS 34 33 0 0 0
M  V30 BEGIN ATOM
M  V30 1 O -4.6506 1.5483 0.3095 0
M  V30 2 C -3.8837 0.3792 0.4447 0 CFG=1
M  V30 3 C -4.5887 -0.7638 -0.3023 0
M  V30 4 C -2.4653 0.6392 -0.1052 0
M  V30 5 O -5.8833 -0.9518 0.204 0
M  V30 6 C -1.4729 -0.4808 0.2456 0
M  V30 7 C -0.0492 -0.1092 -0.1874 0
M  V30 8 C 0.9421 -1.2295 0.1614 0
M  V30 9 C 2.3568 -0.9566 -0.3734 0
M  V30 10 C 3.0689 0.1736 0.3846 0
M  V30 11 C 4.52 0.3207 -0.0875 0
M  V30 12 C 5.23 1.4496 0.6542 0
M  V30 13 H -4.3819 2.1573 1.0464 0
M  V30 14 H -3.8176 0.1008 1.5233 0
M  V30 15 H -4.0303 -1.7111 -0.1588 0
M  V30 16 H -4.6239 -0.5518 -1.3961 0
M  V30 17 H -2.5073 0.7733 -1.2086 0
M  V30 18 H -2.0902 1.5903 0.3333 0
M  V30 19 H -6.4697 -0.2939 -0.2533 0
M  V30 20 H -1.4864 -0.6578 1.3436 0
M  V30 21 H -1.7691 -1.4187 -0.2696 0
M  V30 22 H -0.0354 0.0695 -1.2851 0
M  V30 23 H 0.2497 0.8277 0.3289 0
M  V30 24 H 0.9772 -1.3748 1.2636 0
M  V30 25 H 0.5832 -2.1798 -0.2914 0
M  V30 26 H 2.9497 -1.891 -0.2631 0
M  V30 27 H 2.3095 -0.7143 -1.4578 0
M  V30 28 H 2.5371 1.1335 0.2117 0
M  V30 29 H 3.0589 -0.0474 1.4747 0
M  V30 30 H 4.5389 0.5389 -1.1776 0
M  V30 31 H 5.0712 -0.6282 0.0913 0
M  V30 32 H 6.2767 1.5311 0.2929 0
M  V30 33 H 5.2459 1.2441 1.7457 0
M  V30 34 H 4.7146 2.4165 0.4702 0
M  V30 END ATOM
M  V30 BEGIN BOND
M  V30 1 1 1 2
M  V30 2 1 2 3
M  V30 3 1 2 4
M  V30 4 1 3 5
M  V30 5 1 4 6
M  V30 6 1 6 7
M  V30 7 1 7 8
M  V30 8 1 8 9
M  V30 9 1 9 10
M  V30 10 1 10 11
M  V30 11 1 11 12
M  V30 12 1 1 13
M  V30 13 1 2 14
M  V30 14 1 3 15
M  V30 15 1 3 16
M  V30 16 1 4 17
M  V30 17 1 4 18
M  V30 18 1 5 19
M  V30 19 1 6 20
M  V30 20 1 6 21
M  V30 21 1 7 22
M  V30 22 1 7 23
M  V30 23 1 8 24
M  V30 24 1 8 25
M  V30 25 1 9 26
M  V30 26 1 9 27
M  V30 27 1 10 28
M  V30 28 1 10 29
M  V30 29 1 11 30
M  V30 30 1 11 31
M  V30 31 1 12 32
M  V30 32 1 12 33
M  V30 33 1 12 34
M  V30 END BOND
M  V30 BEGIN COLLECTION
M  V30 MDLV30/STEABS ATOMS=(1 2)
M  V30 END COLLECTION
M  V30 END CTAB
M  END
>  <Structure No>
302

>  <LogS>
-2.478578955

>  <MMFF94 Energy>
19.577

$$$$
Compound 303
Actelion Java MolfileCreator 2.0

  0  0  0  0  0  0              0 V3000
M  V30 BEGIN CTAB
M  V30 COUNTS 29 29 0 0 0
M  V30 BEGIN ATOM
M  V30 1 O 0.2366 0.8678 2.3683 0
M  V30 2 C 0.6687 0.635 1.2493 0
M  V30 3 C 0.1829 -0.5738 0.4734 0 CFG=1
M  V30 4 C 1.7347 1.5215 0.6631 0
M  V30 5 C -1.3701 -0.7667 0.5475 0 CFG=1
M  V30 6 C 0.7376 -0.5351 -0.9699 0
M  V30 7 C 2.8221 0.6613 0.0068 0
M  V30 8 C -2.2114 0.1864 -0.3413 0
M  V30 9 C -1.7481 -2.2227 0.2247 0
M  V30 10 C 2.271 -0.391 -0.9871 0
M  V30 11 C -2.0844 1.6601 0.04 0
M  V30 12 H 0.65 -1.4484 0.9791 0
M  V30 13 H 2.1929 2.1511 1.4567 0
M  V30 14 H 1.2843 2.1965 -0.0945 0
M  V30 15 H -1.6881 -0.6065 1.602 0
M  V30 16 H 0.3075 0.3265 -1.5231 0
M  V30 17 H 0.4618 -1.4612 -1.516 0
M  V30 18 H 3.5425 1.3266 -0.5162 0
M  V30 19 H 3.3866 0.1377 0.81 0
M  V30 20 H -1.9623 0.0545 -1.4152 0
M  V30 21 H -3.2845 -0.085 -0.2307 0
M  V30 22 H -2.83 -2.3892 0.4159 0
M  V30 23 H -1.1819 -2.9266 0.871 0
M  V30 24 H -1.5413 -2.463 -0.8389 0
M  V30 25 H 2.7256 -1.3789 -0.7543 0
M  V30 26 H 2.5877 -0.1244 -2.0189 0
M  V30 27 H -1.0991 2.0603 -0.2676 0
M  V30 28 H -2.8655 2.2461 -0.4887 0
M  V30 29 H -2.2233 1.7961 1.1333 0
M  V30 END ATOM
M  V30 BEGIN BOND
M  V30 1 2 1 2
M  V30 2 1 2 3
M  V30 3 1 2 4
M  V30 4 1 3 5
M  V30 5 1 3 6
M  V30 6 1 4 7
M  V30 7 1 5 8
M  V30 8 1 5 9
M  V30 9 1 6 10
M  V30 10 1 8 11
M  V30 11 1 7 10
M  V30 12 1 3 12
M  V30 13 1 4 13
M  V30 14 1 4 14
M  V30 15 1 5 15
M  V30 16 1 6 16
M  V30 17 1 6 17
M  V30 18 1 7 18
M  V30 19 1 7 19
M  V30 20 1 8 20
M  V30 21 1 8 21
M  V30 22 1 9 22
M  V30 23 1 9 23
M  V30 24 1 9 24
M  V30 25 1 10 25
M  V30 26 1 10 26
M  V30 27 1 11 27
M  V30 28 1 11 28
M  V30 29 1 11 29
M  V30 END BOND
M  V30 BEGIN COLLECTION
M  V30 MDLV30/STEABS ATOMS=(2 3 5)
M  V30 END COLLECTION
M  V30 END CTAB
M  END
>  <Structure No>
303

>  <LogS>
-2.427057806

>  <MMFF94 Energy>
11.968

$$$$
Compound 304
Actelion Java MolfileCreator 2.0

  0  0  0  0  0  0              0 V3000
M  V30 BEGIN CTAB
M  V30 COUNTS 30 30 0 0 0
M  V30 BEGIN ATOM
M  V30 1 O -1.031 -0.2378 1.904 0
M  V30 2 C -1.6099 -0.2043 0.7835 0
M  V30 3 O -0.9295 -0.5763 -0.383 0
M  V30 4 C -3.0567 0.1917 0.7061 0
M  V30 5 C 0.4629 -0.6984 -0.4784 0
M  V30 6 C -3.2199 1.4259 -0.1854 0
M  V30 7 C -3.9006 -0.9751 0.1858 0
M  V30 8 C 1.3336 0.2873 0.0312 0
M  V30 9 C 0.9866 -1.8155 -1.1363 0
M  V30 10 O 0.7876 1.4442 0.6108 0
M  V30 11 C 2.7263 0.0997 -0.0811 0
M  V30 12 C 2.3665 -1.99 -1.2514 0
M  V30 13 C 1.5506 2.5137 1.1593 0
M  V30 14 C 3.2469 -1.0368 -0.7178 0
M  V30 15 C 4.7081 -1.207 -0.8257 0
M  V30 16 O 5.2058 -2.2148 -1.3945 0
M  V30 17 H -3.4186 0.4528 1.7259 0
M  V30 18 H -2.6098 2.2659 0.2112 0
M  V30 19 H -4.2833 1.7468 -0.2018 0
M  V30 20 H -2.8961 1.2077 -1.2261 0
M  V30 21 H -4.9751 -0.6929 0.1735 0
M  V30 22 H -3.5934 -1.2569 -0.8445 0
M  V30 23 H -3.7814 -1.8578 0.8502 0
M  V30 24 H 0.318 -2.5614 -1.5475 0
M  V30 25 H 3.4106 0.8396 0.3129 0
M  V30 26 H 2.7432 -2.8713 -1.7556 0
M  V30 27 H 0.859 3.2884 1.5495 0
M  V30 28 H 2.1885 2.9703 0.3734 0
M  V30 29 H 2.1788 2.1441 1.9972 0
M  V30 30 H 5.3723 -0.4588 -0.4118 0
M  V30 END ATOM
M  V30 BEGIN BOND
M  V30 1 2 1 2
M  V30 2 1 2 3
M  V30 3 1 2 4
M  V30 4 1 3 5
M  V30 5 1 4 6
M  V30 6 1 4 7
M  V30 7 2 5 8
M  V30 8 1 5 9
M  V30 9 1 8 10
M  V30 10 1 8 11
M  V30 11 2 9 12
M  V30 12 1 10 13
M  V30 13 2 11 14
M  V30 14 1 14 15
M  V30 15 2 15 16
M  V30 16 1 12 14
M  V30 17 1 4 17
M  V30 18 1 6 18
M  V30 19 1 6 19
M  V30 20 1 6 20
M  V30 21 1 7 21
M  V30 22 1 7 22
M  V30 23 1 7 23
M  V30 24 1 9 24
M  V30 25 1 11 25
M  V30 26 1 12 26
M  V30 27 1 13 27
M  V30 28 1 13 28
M  V30 29 1 13 29
M  V30 30 1 15 30
M  V30 END BOND
M  V30 END CTAB
M  END
>  <Structure No>
304

>  <LogS>
-2.588667606

>  <MMFF94 Energy>
49.312

$$$$
Compound 305
Actelion Java MolfileCreator 2.0

  0  0  0  0  0  0              0 V3000
M  V30 BEGIN CTAB
M  V30 COUNTS 15 15 0 0 0
M  V30 BEGIN ATOM
M  V30 1 C 0.6994 0.0 0.0 0
M  V30 2 C 0.0389 -1.2119 -0.2596 0
M  V30 3 C -0.0561 1.1538 0.2654 0
M  V30 4 C 2.1952 0.0773 -0.0772 0
M  V30 5 C -1.3578 -1.2738 -0.2237 0
M  V30 6 C -1.4528 1.0877 0.3004 0
M  V30 7 C -2.103 -0.1255 0.0586 0
M  V30 8 H 0.6042 -2.1067 -0.4889 0
M  V30 9 H 0.435 2.1022 0.4452 0
M  V30 10 H 2.6531 -0.8908 0.2173 0
M  V30 11 H 2.499 0.3203 -1.1167 0
M  V30 12 H 2.5827 0.8624 0.6065 0
M  V30 13 H -1.8626 -2.2112 -0.4184 0
M  V30 14 H -2.031 1.9781 0.5114 0
M  V30 15 H -3.184 -0.1747 0.0847 0
M  V30 END ATOM
M  V30 BEGIN BOND
M  V30 1 2 1 2
M  V30 2 1 1 3
M  V30 3 1 1 4
M  V30 4 1 2 5
M  V30 5 2 3 6
M  V30 6 2 5 7
M  V30 7 1 6 7
M  V30 8 1 2 8
M  V30 9 1 3 9
M  V30 10 1 4 10
M  V30 11 1 4 11
M  V30 12 1 4 12
M  V30 13 1 5 13
M  V30 14 1 6 14
M  V30 15 1 7 15
M  V30 END BOND
M  V30 END CTAB
M  END
>  <Structure No>
305

>  <LogS>
-2.206298299

>  <MMFF94 Energy>
18.417

$$$$
Compound 306
Actelion Java MolfileCreator 2.0

  0  0  0  0  0  0              0 V3000
M  V30 BEGIN CTAB
M  V30 COUNTS 39 41 0 0 0
M  V30 BEGIN ATOM
M  V30 1 Cl 6.5813 0.4209 -0.2525 0
M  V30 2 C 4.8255 0.295 -0.2992 0
M  V30 3 C 4.0147 1.422 -0.5137 0
M  V30 4 C 4.2408 -0.9622 -0.1312 0
M  V30 5 C 2.6211 1.269 -0.5293 0
M  V30 6 C 4.6228 2.7835 -0.7096 0
M  V30 7 C 2.8464 -1.1246 -0.1627 0
M  V30 8 C 2.0218 0.0181 -0.3294 0
M  V30 9 S 2.2045 -2.7668 -0.0743 0
M  V30 10 N 0.5859 -0.0096 -0.3137 0
M  V30 11 O 1.6758 -3.0236 1.308 0
M  V30 12 O 3.2896 -3.7633 -0.3726 0
M  V30 13 O 0.9897 -2.9651 -1.2182 0 CHG=-1
M  V30 14 N -0.1183 -0.8125 0.3794 0
M  V30 15 C -1.5561 -0.7107 0.3917 0
M  V30 16 C -2.327 -1.8952 0.3378 0
M  V30 17 C -2.216 0.5496 0.4155 0
M  V30 18 O -1.7108 -3.1417 0.4504 0
M  V30 19 C -3.7283 -1.8335 0.1678 0
M  V30 20 C -3.6214 0.6009 0.2361 0
M  V30 21 C -1.528 1.76 0.6621 0
M  V30 22 C -4.5589 -3.0645 0.061 0
M  V30 23 C -4.3544 -0.5804 0.0954 0
M  V30 24 C -4.2868 1.8384 0.2192 0
M  V30 25 C -2.2049 2.9818 0.6501 0
M  V30 26 O -5.8144 -2.9811 -0.0098 0
M  V30 27 O -3.9771 -4.3263 0.0303 0 CHG=-1
M  V30 28 C -3.5776 3.0224 0.4161 0
M  V30 29 H 4.8854 -1.82 0.012 0
M  V30 30 H 1.9868 2.1358 -0.6756 0
M  V30 31 H 5.1959 3.0713 0.1968 0
M  V30 32 H 3.847 3.5578 -0.8908 0
M  V30 33 H 5.3054 2.7675 -1.585 0
M  V30 34 H -0.735 -3.2515 0.6792 0
M  V30 35 H -0.4767 1.7808 0.9069 0
M  V30 36 H -5.4282 -0.521 -0.0431 0
M  V30 37 H -5.3587 1.8889 0.0674 0
M  V30 38 H -1.6633 3.9007 0.8355 0
M  V30 39 H -4.097 3.972 0.4092 0
M  V30 END ATOM
M  V30 BEGIN BOND
M  V30 1 1 1 2
M  V30 2 2 2 3
M  V30 3 1 2 4
M  V30 4 1 3 5
M  V30 5 1 3 6
M  V30 6 2 4 7
M  V30 7 2 5 8
M  V30 8 1 7 9
M  V30 9 1 8 10
M  V30 10 2 9 11
M  V30 11 2 9 12
M  V30 12 1 9 13
M  V30 13 2 10 14
M  V30 14 1 14 15
M  V30 15 2 15 16
M  V30 16 1 15 17
M  V30 17 1 16 18
M  V30 18 1 16 19
M  V30 19 1 17 20
M  V30 20 2 17 21
M  V30 21 1 19 22
M  V30 22 2 19 23
M  V30 23 2 20 24
M  V30 24 1 21 25
M  V30 25 2 22 26
M  V30 26 1 22 27
M  V30 27 1 24 28
M  V30 28 1 7 8
M  V30 29 1 20 23
M  V30 30 2 25 28
M  V30 31 1 4 29
M  V30 32 1 5 30
M  V30 33 1 6 31
M  V30 34 1 6 32
M  V30 35 1 6 33
M  V30 36 1 18 34
M  V30 37 1 21 35
M  V30 38 1 23 36
M  V30 39 1 24 37
M  V30 40 1 25 38
M  V30 41 1 28 39
M  V30 END BOND
M  V30 END CTAB
M  END
>  <Structure No>
306

>  <LogS>
-3.944100371

>  <MMFF94 Energy>
131.63

$$$$
Compound 307
Actelion Java MolfileCreator 2.0

  0  0  0  0  0  0              0 V3000
M  V30 BEGIN CTAB
M  V30 COUNTS 47 50 0 0 0
M  V30 BEGIN ATOM
M  V30 1 O 5.5198 1.8644 0.4861 0
M  V30 2 C 4.4102 1.3651 0.1629 0
M  V30 3 C 3.9038 0.1822 0.8604 0
M  V30 4 C 3.608 1.9789 -0.8924 0
M  V30 5 C 2.7374 -0.3832 0.5109 0
M  V30 6 C 2.4547 1.4278 -1.2706 0
M  V30 7 C 1.936 0.0997 -0.7134 0 CFG=2
M  V30 8 C 2.2568 -1.5713 1.3204 0
M  V30 9 C 0.383 0.1833 -0.37 0 CFG=1
M  V30 10 C 2.177 -0.9188 -1.8545 0
M  V30 11 C 0.7886 -1.9244 1.0499 0
M  V30 12 C -0.0395 -0.6416 0.8754 0 CFG=2
M  V30 13 C -0.1668 1.6279 -0.1933 0
M  V30 14 C -1.5864 -0.8523 0.9325 0 CFG=1
M  V30 15 C -1.496 1.7183 0.5977 0
M  V30 16 C -2.3893 0.4361 0.5613 0 CFG=1
M  V30 17 C -2.139 -1.9536 0.0143 0
M  V30 18 C -3.0379 0.162 -0.8376 0 CFG=2
M  V30 19 C -3.5256 0.6343 1.5957 0
M  V30 20 C -2.7069 -1.2789 -1.2206 0
M  V30 21 O -2.572 1.0292 -1.8409 0
M  V30 22 H 4.4738 -0.211 1.6945 0
M  V30 23 H 3.9516 2.8886 -1.3691 0
M  V30 24 H 1.9128 1.8964 -2.0837 0
M  V30 25 H 2.8991 -2.4526 1.1069 0
M  V30 26 H 2.3558 -1.3312 2.4028 0
M  V30 27 H -0.1574 -0.2347 -1.2408 0
M  V30 28 H 1.8337 -1.937 -1.5969 0
M  V30 29 H 3.2611 -0.9846 -2.0946 0
M  V30 30 H 1.6405 -0.6092 -2.7781 0
M  V30 31 H 0.7238 -2.5746 0.1583 0
M  V30 32 H 0.3968 -2.5099 1.9102 0
M  V30 33 H 0.2065 -0.0266 1.774 0
M  V30 34 H -0.3075 2.0906 -1.1938 0
M  V30 35 H 0.5788 2.2481 0.3508 0
M  V30 36 H -1.8041 -1.1607 1.9817 0
M  V30 37 H -1.2351 1.9338 1.6585 0
M  V30 38 H -2.0735 2.601 0.2464 0
M  V30 39 H -2.9708 -2.4705 0.5431 0
M  V30 40 H -1.405 -2.7302 -0.2698 0
M  V30 41 H -4.1519 0.2384 -0.7862 0
M  V30 42 H -3.1115 0.7844 2.6164 0
M  V30 43 H -4.193 -0.2543 1.6235 0
M  V30 44 H -4.1386 1.5243 1.3357 0
M  V30 45 H -3.6159 -1.8155 -1.5715 0
M  V30 46 H -1.9618 -1.3163 -2.0445 0
M  V30 47 H -3.13 1.8491 -1.796 0
M  V30 END ATOM
M  V30 BEGIN BOND
M  V30 1 2 1 2
M  V30 2 1 2 3
M  V30 3 1 2 4
M  V30 4 2 3 5
M  V30 5 2 4 6
M  V30 6 1 5 7
M  V30 7 1 5 8
M  V30 8 1 7 9
M  V30 9 1 7 10
M  V30 10 1 8 11
M  V30 11 1 9 12
M  V30 12 1 9 13
M  V30 13 1 12 14
M  V30 14 1 13 15
M  V30 15 1 14 16
M  V30 16 1 14 17
M  V30 17 1 16 18
M  V30 18 1 16 19
M  V30 19 1 17 20
M  V30 20 1 18 21
M  V30 21 1 6 7
M  V30 22 1 11 12
M  V30 23 1 15 16
M  V30 24 1 18 20
M  V30 25 1 3 22
M  V30 26 1 4 23
M  V30 27 1 6 24
M  V30 28 1 8 25
M  V30 29 1 8 26
M  V30 30 1 9 27
M  V30 31 1 10 28
M  V30 32 1 10 29
M  V30 33 1 10 30
M  V30 34 1 11 31
M  V30 35 1 11 32
M  V30 36 1 12 33
M  V30 37 1 13 34
M  V30 38 1 13 35
M  V30 39 1 14 36
M  V30 40 1 15 37
M  V30 41 1 15 38
M  V30 42 1 17 39
M  V30 43 1 17 40
M  V30 44 1 18 41
M  V30 45 1 19 42
M  V30 46 1 19 43
M  V30 47 1 19 44
M  V30 48 1 20 45
M  V30 49 1 20 46
M  V30 50 1 21 47
M  V30 END BOND
M  V30 BEGIN COLLECTION
M  V30 MDLV30/STEABS ATOMS=(6 7 9 12 14 16 18)
M  V30 END COLLECTION
M  V30 END CTAB
M  END
>  <Structure No>
307

>  <LogS>
-3.700359651

>  <MMFF94 Energy>
82.667

$$$$
Compound 308
Actelion Java MolfileCreator 2.0

  0  0  0  0  0  0              0 V3000
M  V30 BEGIN CTAB
M  V30 COUNTS 31 31 0 0 0
M  V30 BEGIN ATOM
M  V30 1 N -1.8888 -2.9131 0.3146 0
M  V30 2 C -2.2021 -1.8205 0.0956 0
M  V30 3 C -2.6023 -0.4263 -0.1828 0
M  V30 4 C -1.6878 0.1877 -1.2793 0
M  V30 5 C -4.0555 -0.4365 -0.691 0
M  V30 6 C -2.5333 0.3857 1.1246 0
M  V30 7 C -0.2262 0.2564 -0.8944 0
M  V30 8 C 0.2954 1.4111 -0.2886 0
M  V30 9 C 0.6216 -0.8387 -1.1258 0
M  V30 10 C 1.6418 1.4687 0.0817 0
M  V30 11 C 1.9681 -0.7811 -0.7555 0
M  V30 12 C 2.4899 0.3768 -0.1585 0
M  V30 13 C 3.9308 0.4251 0.2733 0
M  V30 14 C 4.0832 -0.0848 1.7026 0
M  V30 15 H -1.7842 -0.403 -2.2179 0
M  V30 16 H -2.046 1.2119 -1.5274 0
M  V30 17 H -4.4042 0.5987 -0.8968 0
M  V30 18 H -4.1401 -1.0257 -1.6302 0
M  V30 19 H -4.736 -0.8881 0.0639 0
M  V30 20 H -2.7764 1.4532 0.9333 0
M  V30 21 H -3.2577 -0.0083 1.8706 0
M  V30 22 H -1.5205 0.3293 1.5779 0
M  V30 23 H -0.343 2.2644 -0.0954 0
M  V30 24 H 0.239 -1.7391 -1.5901 0
M  V30 25 H 2.0226 2.3633 0.5586 0
M  V30 26 H 2.6038 -1.6399 -0.9325 0
M  V30 27 H 4.3135 1.4673 0.2132 0
M  V30 28 H 4.5548 -0.1956 -0.4058 0
M  V30 29 H 3.492 0.5449 2.4017 0
M  V30 30 H 5.1517 -0.0409 2.0013 0
M  V30 31 H 3.7362 -1.1378 1.7751 0
M  V30 END ATOM
M  V30 BEGIN BOND
M  V30 1 3 1 2
M  V30 2 1 2 3
M  V30 3 1 3 4
M  V30 4 1 3 5
M  V30 5 1 3 6
M  V30 6 1 4 7
M  V30 7 2 7 8
M  V30 8 1 7 9
M  V30 9 1 8 10
M  V30 10 2 9 11
M  V30 11 2 10 12
M  V30 12 1 12 13
M  V30 13 1 13 14
M  V30 14 1 11 12
M  V30 15 1 4 15
M  V30 16 1 4 16
M  V30 17 1 5 17
M  V30 18 1 5 18
M  V30 19 1 5 19
M  V30 20 1 6 20
M  V30 21 1 6 21
M  V30 22 1 6 22
M  V30 23 1 8 23
M  V30 24 1 9 24
M  V30 25 1 10 25
M  V30 26 1 11 26
M  V30 27 1 13 27
M  V30 28 1 13 28
M  V30 29 1 14 29
M  V30 30 1 14 30
M  V30 31 1 14 31
M  V30 END BOND
M  V30 END CTAB
M  END
>  <Structure No>
308

>  <LogS>
-3.351339264

>  <MMFF94 Energy>
30.197

$$$$
Compound 309
Actelion Java MolfileCreator 2.0

  0  0  0  0  0  0              0 V3000
M  V30 BEGIN CTAB
M  V30 COUNTS 20 19 0 0 0
M  V30 BEGIN ATOM
M  V30 1 Cl -4.4519 0.0 1.3744 0
M  V30 2 C -3.1851 -0.2109 0.1398 0
M  V30 3 C -1.8112 0.075 0.7438 0
M  V30 4 C -0.7027 -0.1 -0.3004 0
M  V30 5 C 0.6756 0.1873 0.3063 0
M  V30 6 C 1.7847 0.01 -0.74 0
M  V30 7 C 3.1688 0.3272 -0.1689 0
M  V30 8 Cl 3.6856 -0.9106 1.0077 0
M  V30 9 H -3.2277 -1.2546 -0.2381 0
M  V30 10 H -3.3875 0.4877 -0.6997 0
M  V30 11 H -1.7943 1.1173 1.1317 0
M  V30 12 H -1.635 -0.6215 1.5926 0
M  V30 13 H -0.7237 -1.1427 -0.6877 0
M  V30 14 H -0.8838 0.5961 -1.149 0
M  V30 15 H 0.6967 1.2306 0.6916 0
M  V30 16 H 0.8507 -0.5065 1.1569 0
M  V30 17 H 1.777 -1.0314 -1.1296 0
M  V30 18 H 1.5924 0.697 -1.593 0
M  V30 19 H 3.169 1.325 0.3192 0
M  V30 20 H 3.9085 0.3458 -0.9968 0
M  V30 END ATOM
M  V30 BEGIN BOND
M  V30 1 1 1 2
M  V30 2 1 2 3
M  V30 3 1 3 4
M  V30 4 1 4 5
M  V30 5 1 5 6
M  V30 6 1 6 7
M  V30 7 1 7 8
M  V30 8 1 2 9
M  V30 9 1 2 10
M  V30 10 1 3 11
M  V30 11 1 3 12
M  V30 12 1 4 13
M  V30 13 1 4 14
M  V30 14 1 5 15
M  V30 15 1 5 16
M  V30 16 1 6 17
M  V30 17 1 6 18
M  V30 18 1 7 19
M  V30 19 1 7 20
M  V30 END BOND
M  V30 END CTAB
M  END
>  <Structure No>
309

>  <LogS>
-3.43464733

>  <MMFF94 Energy>
-0.59362

$$$$
Compound 310
Actelion Java MolfileCreator 2.0

  0  0  0  0  0  0              0 V3000
M  V30 BEGIN CTAB
M  V30 COUNTS 33 35 0 0 0
M  V30 BEGIN ATOM
M  V30 1 O 2.5056 1.2926 0.8077 0
M  V30 2 C 2.3351 0.1147 0.3898 0
M  V30 3 O 1.3876 -0.1625 -0.6006 0
M  V30 4 C 3.1803 -0.9946 0.9272 0
M  V30 5 C 0.5171 0.8274 -1.1431 0 CFG=1
M  V30 6 C 4.3892 -1.229 0.0298 0
M  V30 7 C -0.2414 0.3025 -2.3141 0
M  V30 8 C -0.5865 1.2927 -0.1669 0 CFG=1
M  V30 9 C -1.5363 0.5861 -2.2465 0
M  V30 10 C -1.8984 1.27 -0.966 0 CFG=1
M  V30 11 C -0.9402 0.4227 1.0717 0 CFG=1
M  V30 12 C -2.8705 0.4967 -0.0323 0 CFG=2
M  V30 13 C -2.3546 0.9017 1.3346 0
M  V30 14 C -1.2036 -1.0589 0.706 0
M  V30 15 C -2.5534 -1.0092 -0.0201 0
M  V30 16 H 2.5737 -1.924 0.9805 0
M  V30 17 H 3.5235 -0.7451 1.9546 0
M  V30 18 H 1.1143 1.7001 -1.4899 0
M  V30 19 H 5.016 -0.3129 -0.0195 0
M  V30 20 H 4.061 -1.5053 -0.9952 0
M  V30 21 H 5.0025 -2.0578 0.442 0
M  V30 22 H 0.2185 -0.1811 -3.1695 0
M  V30 23 H -0.3597 2.3304 0.1708 0
M  V30 24 H -2.2473 0.3331 -3.0262 0
M  V30 25 H -2.2672 2.3004 -1.1664 0
M  V30 26 H -0.2491 0.5604 1.9305 0
M  V30 27 H -3.9431 0.7291 -0.2043 0
M  V30 28 H -2.4241 1.9996 1.519 0
M  V30 29 H -2.8527 0.36 2.1728 0
M  V30 30 H -0.4267 -1.5197 0.0686 0
M  V30 31 H -1.2909 -1.6651 1.6348 0
M  V30 32 H -2.5058 -1.459 -1.034 0
M  V30 33 H -3.3272 -1.555 0.5644 0
M  V30 END ATOM
M  V30 BEGIN BOND
M  V30 1 2 1 2
M  V30 2 1 2 3
M  V30 3 1 2 4
M  V30 4 1 3 5
M  V30 5 1 4 6
M  V30 6 1 5 7
M  V30 7 1 5 8
M  V30 8 2 7 9
M  V30 9 1 8 10
M  V30 10 1 8 11
M  V30 11 1 10 12
M  V30 12 1 11 13
M  V30 13 1 11 14
M  V30 14 1 12 15
M  V30 15 1 9 10
M  V30 16 1 12 13
M  V30 17 1 14 15
M  V30 18 1 4 16
M  V30 19 1 4 17
M  V30 20 1 5 18
M  V30 21 1 6 19
M  V30 22 1 6 20
M  V30 23 1 6 21
M  V30 24 1 7 22
M  V30 25 1 8 23
M  V30 26 1 9 24
M  V30 27 1 10 25
M  V30 28 1 11 26
M  V30 29 1 12 27
M  V30 30 1 13 28
M  V30 31 1 13 29
M  V30 32 1 14 30
M  V30 33 1 14 31
M  V30 34 1 15 32
M  V30 35 1 15 33
M  V30 END BOND
M  V30 BEGIN COLLECTION
M  V30 MDLV30/STEABS ATOMS=(5 5 8 10 11 12)
M  V30 END COLLECTION
M  V30 END CTAB
M  END
>  <Structure No>
310

>  <LogS>
-3.558592794

>  <MMFF94 Energy>
29.526

$$$$
Compound 311
Actelion Java MolfileCreator 2.0

  0  0  0  0  0  0              0 V3000
M  V30 BEGIN CTAB
M  V30 COUNTS 19 19 0 0 0
M  V30 BEGIN ATOM
M  V30 1 O -1.0925 0.4681 -0.078 0
M  V30 2 C 0.2972 0.2833 -0.1097 0
M  V30 3 C -2.004 -0.3923 0.6002 0
M  V30 4 C 0.932 -0.7938 0.5406 0
M  V30 5 C 1.0759 1.2089 -0.8167 0
M  V30 6 C -3.4221 0.1223 0.4142 0
M  V30 7 C 2.3224 -0.9323 0.4778 0
M  V30 8 C 2.4656 1.0671 -0.8771 0
M  V30 9 C 3.0885 -0.0029 -0.2301 0
M  V30 10 H -1.9326 -1.4201 0.1833 0
M  V30 11 H -1.7645 -0.4142 1.6854 0
M  V30 12 H 0.3621 -1.5265 1.0952 0
M  V30 13 H 0.6011 2.0412 -1.3208 0
M  V30 14 H -3.6791 0.1445 -0.6658 0
M  V30 15 H -3.5115 1.1476 0.8318 0
M  V30 16 H -4.1357 -0.5453 0.9413 0
M  V30 17 H 2.806 -1.7609 0.9787 0
M  V30 18 H 3.0592 1.787 -1.4256 0
M  V30 19 H 4.1642 -0.1119 -0.2773 0
M  V30 END ATOM
M  V30 BEGIN BOND
M  V30 1 1 1 2
M  V30 2 1 1 3
M  V30 3 2 2 4
M  V30 4 1 2 5
M  V30 5 1 3 6
M  V30 6 1 4 7
M  V30 7 2 5 8
M  V30 8 2 7 9
M  V30 9 1 8 9
M  V30 10 1 3 10
M  V30 11 1 3 11
M  V30 12 1 4 12
M  V30 13 1 5 13
M  V30 14 1 6 14
M  V30 15 1 6 15
M  V30 16 1 6 16
M  V30 17 1 7 17
M  V30 18 1 8 18
M  V30 19 1 9 19
M  V30 END BOND
M  V30 END CTAB
M  END
>  <Structure No>
311

>  <LogS>
-2.331841643

>  <MMFF94 Energy>
18.287

$$$$
Compound 312
Actelion Java MolfileCreator 2.0

  0  0  0  0  0  0              0 V3000
M  V30 BEGIN CTAB
M  V30 COUNTS 50 51 0 0 0
M  V30 BEGIN ATOM
M  V30 1 Cl 0.489 4.571 2.855 0
M  V30 2 C -0.513 3.3917 2.0122 0
M  V30 3 C 0.0108 2.4489 1.091 0
M  V30 4 C -1.8798 3.3851 2.3158 0
M  V30 5 C 1.4457 2.4024 0.7108 0
M  V30 6 C -0.8661 1.5119 0.5111 0
M  V30 7 C -2.7349 2.456 1.7246 0
M  V30 8 O 2.1944 3.3953 0.9124 0
M  V30 9 O 1.9513 1.244 0.0976 0
M  V30 10 C -2.2337 1.5123 0.8212 0
M  V30 11 C 3.2995 1.0287 -0.3506 0
M  V30 12 N -3.1182 0.5486 0.2109 0
M  V30 13 C 3.3846 -0.3612 -0.9348 0
M  V30 14 C 3.6687 2.0445 -1.4473 0
M  V30 15 C 4.2807 1.1166 0.8326 0
M  V30 16 C -3.7554 -0.386 0.9857 0
M  V30 17 C -3.3187 0.5714 -1.1393 0
M  V30 18 O 2.3778 -1.123 -0.9107 0
M  V30 19 O 4.5916 -0.8051 -1.4907 0
M  V30 20 O -3.5339 -0.4136 2.2306 0
M  V30 21 N -4.6191 -1.2978 0.4215 0
M  V30 22 O -2.7605 1.4445 -1.8601 0
M  V30 23 C -4.1473 -0.3667 -1.7373 0
M  V30 24 C 4.7823 -2.1251 -1.9951 0
M  V30 25 C -4.7832 -1.3334 -0.9481 0
M  V30 26 C -5.3031 -2.2713 1.2959 0
M  V30 27 C 4.8029 -3.1233 -0.8728 0
M  V30 28 C -5.6757 -2.3604 -1.6306 0
M  V30 29 C 5.7263 -3.0674 0.0902 0
M  V30 30 F -5.3935 -3.6313 -1.1638 0
M  V30 31 F -7.0019 -2.0603 -1.3788 0
M  V30 32 F -5.4881 -2.3712 -3.0026 0
M  V30 33 H -2.2832 4.1017 3.0203 0
M  V30 34 H -0.495 0.7767 -0.1924 0
M  V30 35 H -3.7899 2.4695 1.9684 0
M  V30 36 H 2.9259 2.0011 -2.2728 0
M  V30 37 H 3.6899 3.0797 -1.0509 0
M  V30 38 H 4.6758 1.8275 -1.8642 0
M  V30 39 H 5.3103 0.8471 0.5119 0
M  V30 40 H 3.968 0.4198 1.64 0
M  V30 41 H 4.3204 2.1423 1.2517 0
M  V30 42 H -4.2885 -0.3328 -2.8106 0
M  V30 43 H 3.973 -2.3771 -2.714 0
M  V30 44 H 5.7492 -2.167 -2.5393 0
M  V30 45 H -6.3368 -2.471 0.9495 0
M  V30 46 H -5.4139 -1.8902 2.3333 0
M  V30 47 H -4.7259 -3.2191 1.326 0
M  V30 48 H 4.052 -3.9072 -0.8466 0
M  V30 49 H 5.7212 -3.7999 0.8908 0
M  V30 50 H 6.4884 -2.2938 0.0882 0
M  V30 END ATOM
M  V30 BEGIN BOND
M  V30 1 1 1 2
M  V30 2 2 2 3
M  V30 3 1 2 4
M  V30 4 1 3 5
M  V30 5 1 3 6
M  V30 6 2 4 7
M  V30 7 2 5 8
M  V30 8 1 5 9
M  V30 9 2 6 10
M  V30 10 1 9 11
M  V30 11 1 10 12
M  V30 12 1 11 13
M  V30 13 1 11 14
M  V30 14 1 11 15
M  V30 15 1 12 16
M  V30 16 1 12 17
M  V30 17 2 13 18
M  V30 18 1 13 19
M  V30 19 2 16 20
M  V30 20 1 16 21
M  V30 21 2 17 22
M  V30 22 1 17 23
M  V30 23 1 19 24
M  V30 24 1 21 25
M  V30 25 1 21 26
M  V30 26 1 24 27
M  V30 27 1 25 28
M  V30 28 2 27 29
M  V30 29 1 28 30
M  V30 30 1 28 31
M  V30 31 1 28 32
M  V30 32 1 7 10
M  V30 33 2 23 25
M  V30 34 1 4 33
M  V30 35 1 6 34
M  V30 36 1 7 35
M  V30 37 1 14 36
M  V30 38 1 14 37
M  V30 39 1 14 38
M  V30 40 1 15 39
M  V30 41 1 15 40
M  V30 42 1 15 41
M  V30 43 1 23 42
M  V30 44 1 24 43
M  V30 45 1 24 44
M  V30 46 1 26 45
M  V30 47 1 26 46
M  V30 48 1 26 47
M  V30 49 1 27 48
M  V30 50 1 29 49
M  V30 51 1 29 50
M  V30 END BOND
M  V30 END CTAB
M  END
>  <Structure No>
312

>  <LogS>
-4.676528089

>  <MMFF94 Energy>
32.011

$$$$
Compound 313
Actelion Java MolfileCreator 2.0

  0  0  0  0  0  0              0 V3000
M  V30 BEGIN CTAB
M  V30 COUNTS 18 18 0 0 0
M  V30 BEGIN ATOM
M  V30 1 S 3.0885 0.2501 -0.1667 0
M  V30 2 O 3.4727 1.5862 -0.7371 0
M  V30 3 O 3.6468 -0.8301 -1.0496 0
M  V30 4 O 3.7277 0.0963 1.3784 0 CHG=-1
M  V30 5 C 1.3351 0.1141 -0.0913 0
M  V30 6 C 0.5468 1.2565 0.1023 0
M  V30 7 C 0.7195 -1.1393 -0.2076 0
M  V30 8 C -0.8453 1.1478 0.1718 0
M  V30 9 C -0.6725 -1.2491 -0.1381 0
M  V30 10 C -1.463 -0.1076 0.0661 0
M  V30 11 C -2.9582 -0.2199 0.1014 0
M  V30 12 H 1.0081 2.2311 0.1978 0
M  V30 13 H 1.3153 -2.0311 -0.3535 0
M  V30 14 H -1.4409 2.0418 0.3104 0
M  V30 15 H -1.1335 -2.2236 -0.2413 0
M  V30 16 H -3.2678 -1.2039 0.5136 0
M  V30 17 H -3.3959 0.5738 0.7436 0
M  V30 18 H -3.3604 -0.1157 -0.9277 0
M  V30 END ATOM
M  V30 BEGIN BOND
M  V30 1 2 1 2
M  V30 2 2 1 3
M  V30 3 1 1 4
M  V30 4 1 1 5
M  V30 5 2 5 6
M  V30 6 1 5 7
M  V30 7 1 6 8
M  V30 8 2 7 9
M  V30 9 2 8 10
M  V30 10 1 10 11
M  V30 11 1 9 10
M  V30 12 1 6 12
M  V30 13 1 7 13
M  V30 14 1 8 14
M  V30 15 1 9 15
M  V30 16 1 11 16
M  V30 17 1 11 17
M  V30 18 1 11 18
M  V30 END BOND
M  V30 END CTAB
M  END
>  <Structure No>
313

>  <LogS>
-0.008033112

>  <MMFF94 Energy>
50.003

$$$$
Compound 314
Actelion Java MolfileCreator 2.0

  0  0  0  0  0  0              0 V3000
M  V30 BEGIN CTAB
M  V30 COUNTS 26 26 0 0 0
M  V30 BEGIN ATOM
M  V30 1 O 1.6543 -1.0238 2.3639 0
M  V30 2 C 1.4403 -0.3253 1.3358 0
M  V30 3 O 2.4079 -0.2148 0.3337 0
M  V30 4 C 0.122 0.3487 1.1595 0
M  V30 5 C 3.6804 -0.8474 0.4223 0
M  V30 6 O -0.7635 -0.5292 0.4714 0
M  V30 7 C 4.4861 -0.5337 -0.8014 0
M  V30 8 C -2.0871 -0.2133 0.1312 0
M  V30 9 C 4.8708 0.7146 -1.0791 0
M  V30 10 C -2.847 -1.1741 -0.5484 0
M  V30 11 C -2.6736 1.0286 0.4474 0
M  V30 12 C -4.1711 -0.9057 -0.9091 0
M  V30 13 C -3.9983 1.2933 0.0848 0
M  V30 14 C -4.7464 0.3274 -0.5927 0
M  V30 15 H -0.3 0.6086 2.1548 0
M  V30 16 H 0.2648 1.2792 0.5692 0
M  V30 17 H 3.543 -1.9477 0.4956 0
M  V30 18 H 4.2206 -0.4915 1.3266 0
M  V30 19 H 4.7684 -1.3395 -1.4723 0
M  V30 20 H 4.6058 1.5391 -0.4237 0
M  V30 21 H 5.4566 0.917 -1.9698 0
M  V30 22 H -2.4088 -2.1322 -0.7974 0
M  V30 23 H -2.1164 1.7932 0.9712 0
M  V30 24 H -4.7508 -1.654 -1.4341 0
M  V30 25 H -4.4451 2.2483 0.3295 0
M  V30 26 H -5.7713 0.5343 -0.8723 0
M  V30 END ATOM
M  V30 BEGIN BOND
M  V30 1 2 1 2
M  V30 2 1 2 3
M  V30 3 1 2 4
M  V30 4 1 3 5
M  V30 5 1 4 6
M  V30 6 1 5 7
M  V30 7 1 6 8
M  V30 8 2 7 9
M  V30 9 2 8 10
M  V30 10 1 8 11
M  V30 11 1 10 12
M  V30 12 2 11 13
M  V30 13 2 12 14
M  V30 14 1 13 14
M  V30 15 1 4 15
M  V30 16 1 4 16
M  V30 17 1 5 17
M  V30 18 1 5 18
M  V30 19 1 7 19
M  V30 20 1 9 20
M  V30 21 1 9 21
M  V30 22 1 10 22
M  V30 23 1 11 23
M  V30 24 1 12 24
M  V30 25 1 13 25
M  V30 26 1 14 26
M  V30 END BOND
M  V30 END CTAB
M  END
>  <Structure No>
314

>  <LogS>
-2.536373209

>  <MMFF94 Energy>
37.056

$$$$
Compound 315
Actelion Java MolfileCreator 2.0

  0  0  0  0  0  0              0 V3000
M  V30 BEGIN CTAB
M  V30 COUNTS 18 17 0 0 0
M  V30 BEGIN ATOM
M  V30 1 O 3.7696 -0.4806 1.2018 0
M  V30 2 C 3.1406 -0.2369 0.1385 0
M  V30 3 O 3.61 -0.7381 -1.0689 0 CHG=-1
M  V30 4 C 1.8649 0.5435 0.1803 0
M  V30 5 C 0.6686 -0.3936 0.3701 0
M  V30 6 C -0.6464 0.3937 0.41 0
M  V30 7 C -1.8427 -0.5434 0.5999 0
M  V30 8 C -3.1184 0.237 0.6416 0
M  V30 9 O -3.7474 0.4806 -0.4216 0
M  V30 10 O -3.5879 0.7383 1.8493 0 CHG=-1
M  V30 11 H 1.7548 1.1077 -0.7711 0
M  V30 12 H 1.9081 1.2764 1.0157 0
M  V30 13 H 0.6356 -1.1228 -0.4697 0
M  V30 14 H 0.7898 -0.9563 1.3226 0
M  V30 15 H -0.6135 1.123 1.25 0
M  V30 16 H -0.7677 0.9565 -0.5421 0
M  V30 17 H -1.8859 -1.2763 -0.2353 0
M  V30 18 H -1.7327 -1.1076 1.5515 0
M  V30 END ATOM
M  V30 BEGIN BOND
M  V30 1 2 1 2
M  V30 2 1 2 3
M  V30 3 1 2 4
M  V30 4 1 4 5
M  V30 5 1 5 6
M  V30 6 1 6 7
M  V30 7 1 7 8
M  V30 8 2 8 9
M  V30 9 1 8 10
M  V30 10 1 4 11
M  V30 11 1 4 12
M  V30 12 1 5 13
M  V30 13 1 5 14
M  V30 14 1 6 15
M  V30 15 1 6 16
M  V30 16 1 7 17
M  V30 17 1 7 18
M  V30 END BOND
M  V30 END CTAB
M  END
>  <Structure No>
315

>  <LogS>
-0.623286686

>  <MMFF94 Energy>
48.013

$$$$
Compound 316
Actelion Java MolfileCreator 2.0

  0  0  0  0  0  0              0 V3000
M  V30 BEGIN CTAB
M  V30 COUNTS 30 30 0 0 0
M  V30 BEGIN ATOM
M  V30 1 S -2.0215 -0.6465 -1.2934 0
M  V30 2 O -1.9127 -2.0616 -1.7908 0
M  V30 3 O -2.4496 0.2244 -2.441 0
M  V30 4 N -3.2183 -0.5665 -0.0356 0
M  V30 5 C -0.4545 -0.0867 -0.6932 0
M  V30 6 C -2.8112 -1.4087 1.0868 0
M  V30 7 C -0.2428 1.2762 -0.423 0
M  V30 8 C 0.5708 -1.0135 -0.46 0
M  V30 9 O -1.2907 2.1848 -0.6468 0
M  V30 10 C 1.0083 1.6937 0.0667 0
M  V30 11 C 1.8213 -0.5961 0.0321 0
M  V30 12 C -1.2136 3.5858 -0.4054 0
M  V30 13 C 2.0361 0.7684 0.2929 0
M  V30 14 O 2.8642 -1.5058 0.2726 0
M  V30 15 N 3.2986 1.2254 0.7931 0
M  V30 16 C 2.7793 -2.9106 0.0556 0
M  V30 17 H -3.2491 0.4226 0.3018 0
M  V30 18 H -1.8541 -1.0519 1.5257 0
M  V30 19 H -3.5925 -1.3704 1.8745 0
M  V30 20 H -2.7048 -2.4649 0.7599 0
M  V30 21 H 0.3876 -2.0599 -0.6581 0
M  V30 22 H 1.1931 2.7383 0.278 0
M  V30 23 H -1.0052 3.7774 0.6684 0
M  V30 24 H -2.1857 4.0519 -0.6666 0
M  V30 25 H -0.421 4.0394 -1.0372 0
M  V30 26 H 4.0856 0.5636 0.9736 0
M  V30 27 H 3.4593 2.2388 0.9888 0
M  V30 28 H 1.981 -3.3478 0.6921 0
M  V30 29 H 3.747 -3.3784 0.3292 0
M  V30 30 H 2.5737 -3.1199 -1.0152 0
M  V30 END ATOM
M  V30 BEGIN BOND
M  V30 1 2 1 2
M  V30 2 2 1 3
M  V30 3 1 1 4
M  V30 4 1 1 5
M  V30 5 1 4 6
M  V30 6 2 5 7
M  V30 7 1 5 8
M  V30 8 1 7 9
M  V30 9 1 7 10
M  V30 10 2 8 11
M  V30 11 1 9 12
M  V30 12 2 10 13
M  V30 13 1 11 14
M  V30 14 1 13 15
M  V30 15 1 14 16
M  V30 16 1 11 13
M  V30 17 1 4 17
M  V30 18 1 6 18
M  V30 19 1 6 19
M  V30 20 1 6 20
M  V30 21 1 8 21
M  V30 22 1 10 22
M  V30 23 1 12 23
M  V30 24 1 12 24
M  V30 25 1 12 25
M  V30 26 1 15 26
M  V30 27 1 15 27
M  V30 28 1 16 28
M  V30 29 1 16 29
M  V30 30 1 16 30
M  V30 END BOND
M  V30 END CTAB
M  END
>  <Structure No>
316

>  <LogS>
-3.651080563

>  <MMFF94 Energy>
-30.262

$$$$
Compound 317
Actelion Java MolfileCreator 2.0

  0  0  0  0  0  0              0 V3000
M  V30 BEGIN CTAB
M  V30 COUNTS 8 7 0 0 0
M  V30 BEGIN ATOM
M  V30 1 O 0.37 1.1106 1.7033 0
M  V30 2 C 0.1178 0.3024 0.771 0
M  V30 3 N -1.2314 -0.0775 0.5058 0
M  V30 4 N 1.1824 -0.229 -0.0157 0
M  V30 5 H -1.4524 -0.7465 -0.2644 0
M  V30 6 H -2.0119 0.3106 1.0809 0
M  V30 7 H 2.1704 0.0482 0.177 0
M  V30 8 H 0.9852 -0.8995 -0.7912 0
M  V30 END ATOM
M  V30 BEGIN BOND
M  V30 1 2 1 2
M  V30 2 1 2 3
M  V30 3 1 2 4
M  V30 4 1 3 5
M  V30 5 1 3 6
M  V30 6 1 4 7
M  V30 7 1 4 8
M  V30 END BOND
M  V30 END CTAB
M  END
>  <Structure No>
317

>  <LogS>
0.957840099

>  <MMFF94 Energy>
-115.37

$$$$
Compound 318
Actelion Java MolfileCreator 2.0

  0  0  0  0  0  0              0 V3000
M  V30 BEGIN CTAB
M  V30 COUNTS 16 17 0 0 0
M  V30 BEGIN ATOM
M  V30 1 O 3.5549 -0.1577 -0.2366 0
M  V30 2 C 2.3001 -0.113 -0.1406 0
M  V30 3 N 1.5174 -1.2188 -0.1402 0
M  V30 4 N 1.6067 1.0452 -0.0278 0
M  V30 5 C 0.274 -0.724 -0.0212 0
M  V30 6 C 0.3278 0.6403 0.0464 0
M  V30 7 C -0.932 -1.4188 0.0322 0
M  V30 8 C -0.8202 1.419 0.1731 0
M  V30 9 C -2.1134 -0.6628 0.1603 0
M  V30 10 C -2.0578 0.7492 0.2304 0
M  V30 11 H 1.811 -2.2182 -0.2147 0
M  V30 12 H 1.9781 2.0212 -0.0042 0
M  V30 13 H -0.9614 -2.4992 -0.0222 0
M  V30 14 H -0.7645 2.4986 0.2257 0
M  V30 15 H -3.0705 -1.1658 0.2053 0
M  V30 16 H -2.9726 1.319 0.3287 0
M  V30 END ATOM
M  V30 BEGIN BOND
M  V30 1 2 1 2
M  V30 2 1 2 3
M  V30 3 1 2 4
M  V30 4 1 3 5
M  V30 5 1 4 6
M  V30 6 1 5 7
M  V30 7 1 6 8
M  V30 8 2 7 9
M  V30 9 2 8 10
M  V30 10 2 5 6
M  V30 11 1 9 10
M  V30 12 1 3 11
M  V30 13 1 4 12
M  V30 14 1 7 13
M  V30 15 1 8 14
M  V30 16 1 9 15
M  V30 17 1 10 16
M  V30 END BOND
M  V30 END CTAB
M  END
>  <Structure No>
318

>  <LogS>
-2.392751997

>  <MMFF94 Energy>
-29.998

$$$$
Compound 319
Actelion Java MolfileCreator 2.0

  0  0  0  0  0  0              0 V3000
M  V30 BEGIN CTAB
M  V30 COUNTS 2 1 0 0 0
M  V30 BEGIN ATOM
M  V30 1 O 0 0 0 0 CHG=1
M  V30 2 C 0 0 0 0
M  V30 END ATOM
M  V30 BEGIN BOND
M  V30 1 3 1 2
M  V30 END BOND
M  V30 END CTAB
M  END
>  <Structure No>
319

>  <LogS>
-3.292023351

>  <MMFF94 Energy>
Couldn't assign an atom type to atom 0 (O)

$$$$
Compound 320
Actelion Java MolfileCreator 2.0

  0  0  0  0  0  0              0 V3000
M  V30 BEGIN CTAB
M  V30 COUNTS 34 33 0 0 0
M  V30 BEGIN ATOM
M  V30 1 O -2.5065 1.6443 -0.9393 0
M  V30 2 C -3.2546 1.1427 -0.0548 0
M  V30 3 O -2.7563 0.1916 0.8421 0
M  V30 4 C -4.6628 1.5534 0.057 0
M  V30 5 C -1.4232 -0.3137 0.7925 0
M  V30 6 C -5.2145 2.4529 -0.7555 0
M  V30 7 C -1.2775 -1.3183 -0.3581 0
M  V30 8 C 0.0662 -2.0877 -0.3951 0
M  V30 9 C 1.3107 -1.1703 -0.5511 0
M  V30 10 C 0.1873 -3.119 0.7392 0
M  V30 11 C 1.9843 -0.7369 0.7631 0
M  V30 12 O 3.0259 0.2014 0.5012 0
M  V30 13 C 2.7933 1.5505 0.2033 0
M  V30 14 O 1.6206 2.0131 0.2012 0
M  V30 15 C 3.9159 2.4479 -0.1046 0
M  V30 16 C 5.1777 2.0249 -0.122 0
M  V30 17 H -5.2725 1.1044 0.8311 0
M  V30 18 H -1.2135 -0.8127 1.7597 0
M  V30 19 H -0.7134 0.5305 0.6683 0
M  V30 20 H -6.2556 2.7224 -0.6337 0
M  V30 21 H -4.6452 2.9282 -1.5441 0
M  V30 22 H -2.1102 -2.053 -0.2957 0
M  V30 23 H -1.4023 -0.7778 -1.3213 0
M  V30 24 H 0.0207 -2.6885 -1.3317 0
M  V30 25 H 2.0748 -1.7144 -1.1491 0
M  V30 26 H 1.0333 -0.2723 -1.1439 0
M  V30 27 H 0.2114 -2.6322 1.7354 0
M  V30 28 H 1.116 -3.7146 0.6108 0
M  V30 29 H -0.6748 -3.8187 0.712 0
M  V30 30 H 1.2604 -0.3038 1.4818 0
M  V30 31 H 2.4439 -1.6245 1.2457 0
M  V30 32 H 3.709 3.4879 -0.3258 0
M  V30 33 H 5.4329 0.9948 0.0916 0
M  V30 34 H 5.9753 2.7185 -0.3542 0
M  V30 END ATOM
M  V30 BEGIN BOND
M  V30 1 2 1 2
M  V30 2 1 2 3
M  V30 3 1 2 4
M  V30 4 1 3 5
M  V30 5 2 4 6
M  V30 6 1 5 7
M  V30 7 1 7 8
M  V30 8 1 8 9
M  V30 9 1 8 10
M  V30 10 1 9 11
M  V30 11 1 11 12
M  V30 12 1 12 13
M  V30 13 2 13 14
M  V30 14 1 13 15
M  V30 15 2 15 16
M  V30 16 1 4 17
M  V30 17 1 5 18
M  V30 18 1 5 19
M  V30 19 1 6 20
M  V30 20 1 6 21
M  V30 21 1 7 22
M  V30 22 1 7 23
M  V30 23 1 8 24
M  V30 24 1 9 25
M  V30 25 1 9 26
M  V30 26 1 10 27
M  V30 27 1 10 28
M  V30 28 1 10 29
M  V30 29 1 11 30
M  V30 30 1 11 31
M  V30 31 1 15 32
M  V30 32 1 16 33
M  V30 33 1 16 34
M  V30 END BOND
M  V30 END CTAB
M  END
>  <Structure No>
320

>  <LogS>
-2.621433551

>  <MMFF94 Energy>
5.8321

$$$$
Compound 321
Actelion Java MolfileCreator 2.0

  0  0  0  0  0  0              0 V3000
M  V30 BEGIN CTAB
M  V30 COUNTS 14 14 0 0 0
M  V30 BEGIN ATOM
M  V30 1 Cl -2.5746 2.2525 0.0 0
M  V30 2 C -1.4075 0.9429 -0.0119 0
M  V30 3 C -0.0368 1.2265 -0.0338 0
M  V30 4 C -1.8465 -0.3854 2.0E-4 0
M  V30 5 C 0.8993 0.1815 -0.0434 0
M  V30 6 C -0.9169 -1.4292 -0.0093 0
M  V30 7 N 2.2997 0.4701 -0.0657 0
M  V30 8 C 0.4526 -1.1482 -0.031 0
M  V30 9 H 0.2985 2.2561 -0.0431 0
M  V30 10 H -2.9055 -0.6095 0.0171 0
M  V30 11 H -1.2578 -2.4565 2.0E-4 0
M  V30 12 H 2.6421 1.4568 -0.075 0
M  V30 13 H 3.0042 -0.3008 -0.073 0
M  V30 14 H 1.1643 -1.9641 -0.0382 0
M  V30 END ATOM
M  V30 BEGIN BOND
M  V30 1 1 1 2
M  V30 2 2 2 3
M  V30 3 1 2 4
M  V30 4 1 3 5
M  V30 5 2 4 6
M  V30 6 1 5 7
M  V30 7 2 5 8
M  V30 8 1 6 8
M  V30 9 1 3 9
M  V30 10 1 4 10
M  V30 11 1 6 11
M  V30 12 1 7 12
M  V30 13 1 7 13
M  V30 14 1 8 14
M  V30 END BOND
M  V30 END CTAB
M  END
>  <Structure No>
321

>  <LogS>
-1.373368413

>  <MMFF94 Energy>
6.1497

$$$$
Compound 322
Actelion Java MolfileCreator 2.0

  0  0  0  0  0  0              0 V3000
M  V30 BEGIN CTAB
M  V30 COUNTS 34 35 0 0 0
M  V30 BEGIN ATOM
M  V30 1 O 3.9243 -1.2801 1.2 0
M  V30 2 C 3.8109 -0.5008 0.2153 0
M  V30 3 O 2.5815 0.0924 -0.0927 0
M  V30 4 C 5.0129 -0.1603 -0.5976 0
M  V30 5 C 1.3697 -0.1886 0.6108 0 CFG=1
M  V30 6 C 0.3308 0.9165 0.2907 0
M  V30 7 C 0.876 -1.6107 0.2473 0
M  V30 8 C -0.7047 0.4455 -0.7475 0 CFG=1
M  V30 9 C -0.616 -1.7898 0.5507 0
M  V30 10 C -1.5178 -0.7663 -0.2 0 CFG=1
M  V30 11 C -1.6042 1.5907 -1.2625 0
M  V30 12 C -2.6812 -0.3296 0.7218 0
M  V30 13 C -2.7077 1.9723 -0.2743 0
M  V30 14 C -3.5519 0.7494 0.0791 0
M  V30 15 H 4.7031 0.1721 -1.6104 0
M  V30 16 H 5.6699 -1.0497 -0.6977 0
M  V30 17 H 5.5751 0.6576 -0.1015 0
M  V30 18 H 1.5718 -0.1488 1.7052 0
M  V30 19 H -0.1917 1.2086 1.227 0
M  V30 20 H 0.8546 1.8248 -0.0803 0
M  V30 21 H 1.0532 -1.812 -0.8319 0
M  V30 22 H 1.4565 -2.3635 0.8225 0
M  V30 23 H -0.1323 0.0987 -1.6377 0
M  V30 24 H -0.7433 -1.7046 1.6529 0
M  V30 25 H -0.9213 -2.8219 0.2724 0
M  V30 26 H -1.9636 -1.2834 -1.0799 0
M  V30 27 H -2.0791 1.2708 -2.2165 0
M  V30 28 H -0.9896 2.4878 -1.4927 0
M  V30 29 H -2.2863 0.0602 1.6859 0
M  V30 30 H -3.3174 -1.2118 0.9523 0
M  V30 31 H -3.36 2.7441 -0.7366 0
M  V30 32 H -2.2634 2.4099 0.6459 0
M  V30 33 H -4.0416 0.3464 -0.8346 0
M  V30 34 H -4.3495 1.0494 0.7925 0
M  V30 END ATOM
M  V30 BEGIN BOND
M  V30 1 2 1 2
M  V30 2 1 2 3
M  V30 3 1 2 4
M  V30 4 1 3 5
M  V30 5 1 5 6
M  V30 6 1 5 7
M  V30 7 1 6 8
M  V30 8 1 7 9
M  V30 9 1 8 10
M  V30 10 1 8 11
M  V30 11 1 10 12
M  V30 12 1 11 13
M  V30 13 1 12 14
M  V30 14 1 9 10
M  V30 15 1 13 14
M  V30 16 1 4 15
M  V30 17 1 4 16
M  V30 18 1 4 17
M  V30 19 1 5 18
M  V30 20 1 6 19
M  V30 21 1 6 20
M  V30 22 1 7 21
M  V30 23 1 7 22
M  V30 24 1 8 23
M  V30 25 1 9 24
M  V30 26 1 9 25
M  V30 27 1 10 26
M  V30 28 1 11 27
M  V30 29 1 11 28
M  V30 30 1 12 29
M  V30 31 1 12 30
M  V30 32 1 13 31
M  V30 33 1 13 32
M  V30 34 1 14 33
M  V30 35 1 14 34
M  V30 END BOND
M  V30 BEGIN COLLECTION
M  V30 MDLV30/STEABS ATOMS=(3 5 8 10)
M  V30 END COLLECTION
M  V30 END CTAB
M  END
>  <Structure No>
322

>  <LogS>
-3.560504415

>  <MMFF94 Energy>
4.6925

$$$$
Compound 323
Actelion Java MolfileCreator 2.0

  0  0  0  0  0  0              0 V3000
M  V30 BEGIN CTAB
M  V30 COUNTS 67 67 0 0 0
M  V30 BEGIN ATOM
M  V30 1 O -4.7076 -3.372 -1.5672 0
M  V30 2 C -5.3828 -2.151 -1.4643 0
M  V30 3 C -5.307 -1.4195 -0.2557 0
M  V30 4 C -6.1361 -1.6446 -2.5496 0
M  V30 5 C -5.9834 -0.1893 -0.1543 0
M  V30 6 C -4.5074 -1.9471 0.9317 0 CFG=1
M  V30 7 C -6.7997 -0.4152 -2.419 0
M  V30 8 C -6.2425 -2.4032 -3.845 0
M  V30 9 C -6.7123 0.3218 -1.2331 0
M  V30 10 C -3.3604 -0.9935 1.3351 0
M  V30 11 C -5.434 -2.2175 2.1249 0
M  V30 12 C -7.4558 1.6179 -1.0912 0
M  V30 13 C -2.3274 -0.8189 0.2067 0
M  V30 14 C -1.1928 0.1458 0.5892 0
M  V30 15 C -0.1525 -0.5054 1.5177 0
M  V30 16 C 0.9319 0.483 1.9763 0
M  V30 17 C 1.8916 0.8827 0.8451 0
M  V30 18 C 3.0431 1.7446 1.3846 0
M  V30 19 C 3.9388 2.3041 0.2681 0
M  V30 20 C 4.8006 1.2216 -0.3981 0
M  V30 21 C 5.7619 1.8399 -1.4248 0
M  V30 22 C 6.71 0.7927 -2.0428 0
M  V30 23 C 8.1378 0.8212 -1.4638 0
M  V30 24 C 8.2541 0.2377 -0.0417 0
M  V30 25 C 8.2511 1.3165 1.0422 0
M  V30 26 H -4.7134 -3.9445 -2.4015 0
M  V30 27 H -5.9434 0.3771 0.7674 0
M  V30 28 H -4.0398 -2.9235 0.6816 0
M  V30 29 H -7.3861 -0.0269 -3.2438 0
M  V30 30 H -5.2323 -2.5365 -4.2864 0
M  V30 31 H -6.7041 -3.3965 -3.6621 0
M  V30 32 H -6.8708 -1.8659 -4.5871 0
M  V30 33 H -2.8539 -1.4192 2.2273 0
M  V30 34 H -3.7675 -8.0E-4 1.6264 0
M  V30 35 H -6.2589 -2.897 1.8209 0
M  V30 36 H -5.8708 -1.2744 2.5165 0
M  V30 37 H -4.8674 -2.7086 2.9445 0
M  V30 38 H -6.8941 2.32 -0.4384 0
M  V30 39 H -7.5924 2.1063 -2.0798 0
M  V30 40 H -8.4528 1.4246 -0.6424 0
M  V30 41 H -2.8388 -0.4005 -0.6871 0
M  V30 42 H -1.9054 -1.8068 -0.0807 0
M  V30 43 H -0.6899 0.4594 -0.3498 0
M  V30 44 H -1.616 1.0577 1.0653 0
M  V30 45 H -0.6577 -0.8892 2.4281 0
M  V30 46 H 0.3207 -1.3722 1.0062 0
M  V30 47 H 0.4543 1.3909 2.4065 0
M  V30 48 H 1.518 -0.0042 2.7867 0
M  V30 49 H 2.3024 -0.0371 0.3775 0
M  V30 50 H 1.3393 1.4616 0.0746 0
M  V30 51 H 2.6147 2.6062 1.9427 0
M  V30 52 H 3.657 1.1529 2.0989 0
M  V30 53 H 3.3146 2.8165 -0.4966 0
M  V30 54 H 4.6091 3.0677 0.7205 0
M  V30 55 H 4.1468 0.492 -0.9217 0
M  V30 56 H 5.3719 0.677 0.3813 0
M  V30 57 H 6.3403 2.6723 -0.9686 0
M  V30 58 H 5.1496 2.2872 -2.2392 0
M  V30 59 H 6.7945 1.0126 -3.1298 0
M  V30 60 H 6.2863 -0.2331 -1.9682 0
M  V30 61 H 8.7721 0.2007 -2.1345 0
M  V30 62 H 8.5536 1.8519 -1.5128 0
M  V30 63 H 7.4489 -0.5016 0.1563 0
M  V30 64 H 9.2187 -0.3094 0.0372 0
M  V30 65 H 9.0914 2.0249 0.8827 0
M  V30 66 H 8.3778 0.8401 2.0371 0
M  V30 67 H 7.2986 1.8808 1.0476 0
M  V30 END ATOM
M  V30 BEGIN BOND
M  V30 1 1 1 2
M  V30 2 2 2 3
M  V30 3 1 2 4
M  V30 4 1 3 5
M  V30 5 1 3 6
M  V30 6 2 4 7
M  V30 7 1 4 8
M  V30 8 2 5 9
M  V30 9 1 6 10
M  V30 10 1 6 11
M  V30 11 1 9 12
M  V30 12 1 10 13
M  V30 13 1 13 14
M  V30 14 1 14 15
M  V30 15 1 15 16
M  V30 16 1 16 17
M  V30 17 1 17 18
M  V30 18 1 18 19
M  V30 19 1 19 20
M  V30 20 1 20 21
M  V30 21 1 21 22
M  V30 22 1 22 23
M  V30 23 1 23 24
M  V30 24 1 24 25
M  V30 25 1 7 9
M  V30 26 1 1 26
M  V30 27 1 5 27
M  V30 28 1 6 28
M  V30 29 1 7 29
M  V30 30 1 8 30
M  V30 31 1 8 31
M  V30 32 1 8 32
M  V30 33 1 10 33
M  V30 34 1 10 34
M  V30 35 1 11 35
M  V30 36 1 11 36
M  V30 37 1 11 37
M  V30 38 1 12 38
M  V30 39 1 12 39
M  V30 40 1 12 40
M  V30 41 1 13 41
M  V30 42 1 13 42
M  V30 43 1 14 43
M  V30 44 1 14 44
M  V30 45 1 15 45
M  V30 46 1 15 46
M  V30 47 1 16 47
M  V30 48 1 16 48
M  V30 49 1 17 49
M  V30 50 1 17 50
M  V30 51 1 18 51
M  V30 52 1 18 52
M  V30 53 1 19 53
M  V30 54 1 19 54
M  V30 55 1 20 55
M  V30 56 1 20 56
M  V30 57 1 21 57
M  V30 58 1 21 58
M  V30 59 1 22 59
M  V30 60 1 22 60
M  V30 61 1 23 61
M  V30 62 1 23 62
M  V30 63 1 24 63
M  V30 64 1 24 64
M  V30 65 1 25 65
M  V30 66 1 25 66
M  V30 67 1 25 67
M  V30 END BOND
M  V30 BEGIN COLLECTION
M  V30 MDLV30/STEABS ATOMS=(1 6)
M  V30 END COLLECTION
M  V30 END CTAB
M  END
>  <Structure No>
323

>  <LogS>
-7.335707323

>  <MMFF94 Energy>
21.445

$$$$
Compound 324
Actelion Java MolfileCreator 2.0

  0  0  0  0  0  0              0 V3000
M  V30 BEGIN CTAB
M  V30 COUNTS 13 13 0 0 0
M  V30 BEGIN ATOM
M  V30 1 C 0.9346 0.8566 0.3114 0
M  V30 2 C -0.3136 1.278 0.2166 0
M  V30 3 C 1.0648 -0.5945 0.024 0
M  V30 4 C -1.2519 0.1873 -0.1521 0
M  V30 5 C -0.3639 -1.054 -0.2836 0
M  V30 6 H 1.7663 1.5034 0.5707 0
M  V30 7 H -0.613 2.3065 0.3898 0
M  V30 8 H 1.7315 -0.7496 -0.8511 0
M  V30 9 H 1.4715 -1.1225 0.913 0
M  V30 10 H -1.7508 0.4256 -1.1159 0
M  V30 11 H -2.0108 0.0528 0.6483 0
M  V30 12 H -0.4249 -1.4668 -1.3143 0
M  V30 13 H -0.6832 -1.8372 0.4383 0
M  V30 END ATOM
M  V30 BEGIN BOND
M  V30 1 2 1 2
M  V30 2 1 1 3
M  V30 3 1 2 4
M  V30 4 1 3 5
M  V30 5 1 4 5
M  V30 6 1 1 6
M  V30 7 1 2 7
M  V30 8 1 3 8
M  V30 9 1 3 9
M  V30 10 1 4 10
M  V30 11 1 4 11
M  V30 12 1 5 12
M  V30 13 1 5 13
M  V30 END BOND
M  V30 END CTAB
M  END
>  <Structure No>
324

>  <LogS>
-2.104914482

>  <MMFF94 Energy>
7.0546

$$$$
Compound 325
Actelion Java MolfileCreator 2.0

  0  0  0  0  0  0              0 V3000
M  V30 BEGIN CTAB
M  V30 COUNTS 5 4 0 0 0
M  V30 BEGIN ATOM
M  V30 1 C 0.0 0.0 0.0 0
M  V30 2 H -0.4595 0.4211 0.9178 0
M  V30 3 H 0.4082 0.8239 -0.6206 0
M  V30 4 H 0.8198 -0.6923 0.2812 0
M  V30 5 H -0.7687 -0.5526 -0.5782 0
M  V30 END ATOM
M  V30 BEGIN BOND
M  V30 1 1 1 2
M  V30 2 1 1 3
M  V30 3 1 1 4
M  V30 4 1 1 5
M  V30 END BOND
M  V30 END CTAB
M  END
>  <Structure No>
325

>  <LogS>
-3.333093505

>  <MMFF94 Energy>
0.026383

$$$$
Compound 326
Actelion Java MolfileCreator 2.0

  0  0  0  0  0  0              0 V3000
M  V30 BEGIN CTAB
M  V30 COUNTS 8 7 0 0 0
M  V30 BEGIN ATOM
M  V30 1 F 1.3163 -0.7018 -0.9651 0
M  V30 2 C 0.7039 -0.0822 0.1092 0
M  V30 3 F 1.2647 1.1692 0.29 0
M  V30 4 F 0.9115 -0.84 1.2476 0
M  V30 5 C -0.7912 0.0544 -0.1554 0
M  V30 6 F -1.352 -1.197 -0.3362 0
M  V30 7 F -1.4035 0.674 0.9189 0
M  V30 8 F -0.9989 0.8123 -1.2937 0
M  V30 END ATOM
M  V30 BEGIN BOND
M  V30 1 1 1 2
M  V30 2 1 2 3
M  V30 3 1 2 4
M  V30 4 1 2 5
M  V30 5 1 5 6
M  V30 6 1 5 7
M  V30 7 1 5 8
M  V30 END BOND
M  V30 END CTAB
M  END
>  <Structure No>
326

>  <LogS>
-2.423907212

>  <MMFF94 Energy>
81.351

$$$$
Compound 327
Actelion Java MolfileCreator 2.0

  0  0  0  0  0  0              0 V3000
M  V30 BEGIN CTAB
M  V30 COUNTS 33 32 0 0 0
M  V30 BEGIN ATOM
M  V30 1 O 5.5932 -0.2325 -1.3959 0
M  V30 2 C 5.1714 -0.8613 -0.4382 0
M  V30 3 C 3.7227 -0.7885 -0.0596 0
M  V30 4 C 3.3507 0.6199 0.4138 0
M  V30 5 C 1.8991 0.6791 0.8186 0
M  V30 6 C 0.8796 0.9562 -0.0263 0
M  V30 7 C -0.5383 0.9355 0.501 0
M  V30 8 C 1.1185 1.3031 -1.4772 0
M  V30 9 C -1.034 -0.5048 0.6703 0
M  V30 10 C -2.4681 -0.5255 1.1374 0
M  V30 11 C -3.5396 -0.5084 0.314 0
M  V30 12 C -4.9164 -0.492 0.9269 0
M  V30 13 C -3.3942 -0.5223 -1.1896 0
M  V30 14 H 5.8498 -1.4873 0.1321 0
M  V30 15 H 3.1056 -1.0824 -0.9348 0
M  V30 16 H 3.5296 -1.5157 0.759 0
M  V30 17 H 3.9687 0.8747 1.3024 0
M  V30 18 H 3.5784 1.3732 -0.37 0
M  V30 19 H 1.6738 0.4522 1.8579 0
M  V30 20 H -1.2117 1.4841 -0.1907 0
M  V30 21 H -0.5826 1.468 1.4771 0
M  V30 22 H 1.6718 0.4865 -1.9834 0
M  V30 23 H 0.1616 1.4458 -2.0214 0
M  V30 24 H 1.6985 2.2468 -1.5503 0
M  V30 25 H -0.912 -1.0735 -0.2758 0
M  V30 26 H -0.4133 -1.0142 1.4389 0
M  V30 27 H -2.6315 -0.5278 2.2125 0
M  V30 28 H -5.7119 -0.4887 0.1529 0
M  V30 29 H -5.0552 -1.3919 1.5631 0
M  V30 30 H -5.0371 0.4171 1.5533 0
M  V30 31 H -2.8955 -1.4599 -1.5128 0
M  V30 32 H -2.7987 0.3496 -1.5287 0
M  V30 33 H -4.3815 -0.4731 -1.694 0
M  V30 END ATOM
M  V30 BEGIN BOND
M  V30 1 2 1 2
M  V30 2 1 2 3
M  V30 3 1 3 4
M  V30 4 1 4 5
M  V30 5 2 5 6
M  V30 6 1 6 7
M  V30 7 1 6 8
M  V30 8 1 7 9
M  V30 9 1 9 10
M  V30 10 2 10 11
M  V30 11 1 11 12
M  V30 12 1 11 13
M  V30 13 1 2 14
M  V30 14 1 3 15
M  V30 15 1 3 16
M  V30 16 1 4 17
M  V30 17 1 4 18
M  V30 18 1 5 19
M  V30 19 1 7 20
M  V30 20 1 7 21
M  V30 21 1 8 22
M  V30 22 1 8 23
M  V30 23 1 8 24
M  V30 24 1 9 25
M  V30 25 1 9 26
M  V30 26 1 10 27
M  V30 27 1 12 28
M  V30 28 1 12 29
M  V30 29 1 12 30
M  V30 30 1 13 31
M  V30 31 1 13 32
M  V30 32 1 13 33
M  V30 END BOND
M  V30 END CTAB
M  END
>  <Structure No>
327

>  <LogS>
-3.538303545

>  <MMFF94 Energy>
22.992

$$$$
Compound 328
Actelion Java MolfileCreator 2.0

  0  0  0  0  0  0              0 V3000
M  V30 BEGIN CTAB
M  V30 COUNTS 22 22 0 0 0
M  V30 BEGIN ATOM
M  V30 1 O -0.9446 -1.4959 0.7084 0
M  V30 2 C -1.2387 -0.3277 0.3338 0
M  V30 3 O -0.2318 0.6287 0.1356 0
M  V30 4 C -2.6598 0.0484 0.1629 0
M  V30 5 C 1.1349 0.3512 -0.0152 0
M  V30 6 C -2.9984 1.3074 -0.1365 0
M  V30 7 C -3.7352 -0.9772 0.3994 0
M  V30 8 C 2.0608 1.3273 0.3753 0
M  V30 9 C 1.6016 -0.851 -0.5816 0
M  V30 10 C 3.4332 1.0991 0.2343 0
M  V30 11 C 2.9749 -1.0756 -0.7223 0
M  V30 12 C 3.8901 -0.1034 -0.3104 0
M  V30 13 H -4.0375 1.597 -0.2336 0
M  V30 14 H -2.2495 2.0741 -0.2889 0
M  V30 15 H -3.8949 -1.0994 1.4911 0
M  V30 16 H -3.4353 -1.9542 -0.0344 0
M  V30 17 H -4.6961 -0.6796 -0.0734 0
M  V30 18 H 1.7148 2.2625 0.7969 0
M  V30 19 H 0.9119 -1.6013 -0.9427 0
M  V30 20 H 4.142 1.8554 0.5461 0
M  V30 21 H 3.3294 -2.0003 -1.159 0
M  V30 22 H 4.9524 -0.2784 -0.4213 0
M  V30 END ATOM
M  V30 BEGIN BOND
M  V30 1 2 1 2
M  V30 2 1 2 3
M  V30 3 1 2 4
M  V30 4 1 3 5
M  V30 5 2 4 6
M  V30 6 1 4 7
M  V30 7 2 5 8
M  V30 8 1 5 9
M  V30 9 1 8 10
M  V30 10 2 9 11
M  V30 11 2 10 12
M  V30 12 1 11 12
M  V30 13 1 6 13
M  V30 14 1 6 14
M  V30 15 1 7 15
M  V30 16 1 7 16
M  V30 17 1 7 17
M  V30 18 1 8 18
M  V30 19 1 9 19
M  V30 20 1 10 20
M  V30 21 1 11 21
M  V30 22 1 12 22
M  V30 END BOND
M  V30 END CTAB
M  END
>  <Structure No>
328

>  <LogS>
-2.494851361

>  <MMFF94 Energy>
40.36

$$$$
Compound 329
Actelion Java MolfileCreator 2.0

  0  0  0  0  0  0              0 V3000
M  V30 BEGIN CTAB
M  V30 COUNTS 15 14 0 0 0
M  V30 BEGIN ATOM
M  V30 1 O -1.6165 1.0774 -1.0774 0
M  V30 2 C -1.3452 0.1435 -0.2764 0
M  V30 3 C 0.0448 -0.3187 -0.0834 0
M  V30 4 C -2.4641 -0.5958 0.3834 0
M  V30 5 C 1.149 0.4272 -0.2741 0
M  V30 6 O 1.1054 1.7972 -0.5484 0
M  V30 7 C 2.4954 -0.2163 -0.1491 0
M  V30 8 H 0.1704 -1.3506 0.226 0
M  V30 9 H -2.7026 -1.5074 -0.2032 0
M  V30 10 H -2.1733 -0.8896 1.4142 0
M  V30 11 H -3.369 0.0458 0.4414 0
M  V30 12 H 0.2701 2.3609 -0.4715 0
M  V30 13 H 2.6605 -0.5444 0.8988 0
M  V30 14 H 2.5638 -1.0948 -0.8257 0
M  V30 15 H 3.2926 0.5051 -0.4263 0
M  V30 END ATOM
M  V30 BEGIN BOND
M  V30 1 2 1 2
M  V30 2 1 2 3
M  V30 3 1 2 4
M  V30 4 2 3 5
M  V30 5 1 5 6
M  V30 6 1 5 7
M  V30 7 1 3 8
M  V30 8 1 4 9
M  V30 9 1 4 10
M  V30 10 1 4 11
M  V30 11 1 6 12
M  V30 12 1 7 13
M  V30 13 1 7 14
M  V30 14 1 7 15
M  V30 END BOND
M  V30 END CTAB
M  END
>  <Structure No>
329

>  <LogS>
-1.697530099

>  <MMFF94 Energy>
5.2379

$$$$
Compound 330
Actelion Java MolfileCreator 2.0

  0  0  0  0  0  0              0 V3000
M  V30 BEGIN CTAB
M  V30 COUNTS 25 25 0 0 0
M  V30 BEGIN ATOM
M  V30 1 O 2.292 2.0547 0.7898 0
M  V30 2 C 1.1389 1.5958 1.0037 0
M  V30 3 C 0.5864 0.4666 0.208 0
M  V30 4 C 1.3751 -0.5684 -0.2021 0
M  V30 5 C -0.9384 0.3836 0.0081 0
M  V30 6 C 0.7806 -1.716 -0.9298 0
M  V30 7 C 2.8531 -0.6313 0.0935 0
M  V30 8 C -1.2666 -0.4101 -1.2863 0
M  V30 9 C -1.5661 -0.3204 1.2292 0
M  V30 10 C -1.571 1.7884 -0.1387 0
M  V30 11 C -0.4697 -1.6737 -1.3844 0
M  V30 12 H 0.5305 2.0683 1.7622 0
M  V30 13 H 1.3598 -2.6182 -1.0824 0
M  V30 14 H 3.3915 0.1278 -0.5115 0
M  V30 15 H 3.0393 -0.4589 1.1746 0
M  V30 16 H 3.2753 -1.6265 -0.1599 0
M  V30 17 H -2.3505 -0.6529 -1.3395 0
M  V30 18 H -1.0183 0.2067 -2.1781 0
M  V30 19 H -1.3548 0.2489 2.16 0
M  V30 20 H -2.6686 -0.3998 1.1133 0
M  V30 21 H -1.1537 -1.3448 1.3517 0
M  V30 22 H -1.53 2.3601 0.8118 0
M  V30 23 H -1.0461 2.3716 -0.926 0
M  V30 24 H -2.6428 1.706 -0.423 0
M  V30 25 H -0.8896 -2.5338 -1.8908 0
M  V30 END ATOM
M  V30 BEGIN BOND
M  V30 1 2 1 2
M  V30 2 1 2 3
M  V30 3 2 3 4
M  V30 4 1 3 5
M  V30 5 1 4 6
M  V30 6 1 4 7
M  V30 7 1 5 8
M  V30 8 1 5 9
M  V30 9 1 5 10
M  V30 10 2 6 11
M  V30 11 1 8 11
M  V30 12 1 2 12
M  V30 13 1 6 13
M  V30 14 1 7 14
M  V30 15 1 7 15
M  V30 16 1 7 16
M  V30 17 1 8 17
M  V30 18 1 8 18
M  V30 19 1 9 19
M  V30 20 1 9 20
M  V30 21 1 9 21
M  V30 22 1 10 22
M  V30 23 1 10 23
M  V30 24 1 10 24
M  V30 25 1 11 25
M  V30 END BOND
M  V30 END CTAB
M  END
>  <Structure No>
330

>  <LogS>
-2.465007757

>  <MMFF94 Energy>
31.964

$$$$
Compound 331
Actelion Java MolfileCreator 2.0

  0  0  0  0  0  0              0 V3000
M  V30 BEGIN CTAB
M  V30 COUNTS 49 49 0 0 0
M  V30 BEGIN ATOM
M  V30 1 O -2.427 1.5652 -0.3911 0
M  V30 2 C -1.2316 0.8541 -0.3115 0
M  V30 3 C -1.1327 -0.4845 -0.8095 0
M  V30 4 C -0.0961 1.517 0.2417 0
M  V30 5 C 0.1653 -1.0079 -0.994 0
M  V30 6 C -2.372 -1.3675 -1.1506 0
M  V30 7 C 1.1642 0.901 0.0853 0
M  V30 8 C -0.225 2.9046 0.9357 0
M  V30 9 C 1.3002 -0.327 -0.5591 0
M  V30 10 C -3.5344 -1.141 -0.1432 0
M  V30 11 C -2.0385 -2.886 -1.0702 0
M  V30 12 C -2.8434 -1.0755 -2.5895 0
M  V30 13 C -0.6036 3.9834 -0.1032 0
M  V30 14 C 1.0922 3.3676 1.6137 0
M  V30 15 C -1.295 2.8501 2.0543 0
M  V30 16 C 2.6675 -0.9541 -0.7291 0
M  V30 17 N 2.9086 -2.0326 0.258 0 CHG=1
M  V30 18 C 4.1315 -2.7736 -0.0968 0
M  V30 19 C 3.0339 -1.4937 1.6255 0
M  V30 20 H -3.0905 1.4518 -1.1409 0
M  V30 21 H 0.3233 -1.9641 -1.4667 0
M  V30 22 H 2.0692 1.3657 0.4434 0
M  V30 23 H -3.1432 -1.086 0.8956 0
M  V30 24 H -4.2759 -1.9681 -0.1812 0
M  V30 25 H -4.1295 -0.2354 -0.3556 0
M  V30 26 H -1.5507 -3.1294 -0.1012 0
M  V30 27 H -1.3844 -3.2136 -1.9053 0
M  V30 28 H -2.9551 -3.5088 -1.1591 0
M  V30 29 H -2.0272 -1.2896 -3.313 0
M  V30 30 H -3.7164 -1.7126 -2.8502 0
M  V30 31 H -3.1436 -0.0205 -2.7287 0
M  V30 32 H 0.1302 3.9877 -0.9379 0
M  V30 33 H -1.6127 3.8232 -0.5298 0
M  V30 34 H -0.6069 4.993 0.3625 0
M  V30 35 H 1.4442 2.6126 2.35 0
M  V30 36 H 1.8885 3.5535 0.8609 0
M  V30 37 H 0.9448 4.3247 2.1604 0
M  V30 38 H -1.2981 3.7907 2.6472 0
M  V30 39 H -2.3229 2.7342 1.661 0
M  V30 40 H -1.0854 2.0056 2.7461 0
M  V30 41 H 2.7238 -1.3636 -1.7635 0
M  V30 42 H 3.4647 -0.1783 -0.6625 0
M  V30 43 H 2.1087 -2.7094 0.2386 0
M  V30 44 H 4.0304 -3.2313 -1.1055 0
M  V30 45 H 5.0201 -2.1033 -0.0953 0
M  V30 46 H 4.3082 -3.6032 0.623 0
M  V30 47 H 3.2609 -2.3087 2.3477 0
M  V30 48 H 3.8419 -0.7308 1.6839 0
M  V30 49 H 2.0781 -1.0319 1.954 0
M  V30 END ATOM
M  V30 BEGIN BOND
M  V30 1 1 1 2
M  V30 2 2 2 3
M  V30 3 1 2 4
M  V30 4 1 3 5
M  V30 5 1 3 6
M  V30 6 2 4 7
M  V30 7 1 4 8
M  V30 8 2 5 9
M  V30 9 1 6 10
M  V30 10 1 6 11
M  V30 11 1 6 12
M  V30 12 1 8 13
M  V30 13 1 8 14
M  V30 14 1 8 15
M  V30 15 1 9 16
M  V30 16 1 16 17
M  V30 17 1 17 18
M  V30 18 1 17 19
M  V30 19 1 7 9
M  V30 20 1 1 20
M  V30 21 1 5 21
M  V30 22 1 7 22
M  V30 23 1 10 23
M  V30 24 1 10 24
M  V30 25 1 10 25
M  V30 26 1 11 26
M  V30 27 1 11 27
M  V30 28 1 11 28
M  V30 29 1 12 29
M  V30 30 1 12 30
M  V30 31 1 12 31
M  V30 32 1 13 32
M  V30 33 1 13 33
M  V30 34 1 13 34
M  V30 35 1 14 35
M  V30 36 1 14 36
M  V30 37 1 14 37
M  V30 38 1 15 38
M  V30 39 1 15 39
M  V30 40 1 15 40
M  V30 41 1 16 41
M  V30 42 1 16 42
M  V30 43 1 17 43
M  V30 44 1 18 44
M  V30 45 1 18 45
M  V30 46 1 18 46
M  V30 47 1 19 47
M  V30 48 1 19 48
M  V30 49 1 19 49
M  V30 END BOND
M  V30 END CTAB
M  END
>  <Structure No>
331

>  <LogS>
-2.711387028

>  <MMFF94 Energy>
54.897

$$$$
Compound 332
Actelion Java MolfileCreator 2.0

  0  0  0  0  0  0              0 V3000
M  V30 BEGIN CTAB
M  V30 COUNTS 35 35 0 0 0
M  V30 BEGIN ATOM
M  V30 1 O 3.6328 -0.5521 -1.4203 0
M  V30 2 C 3.2301 0.2258 -0.569 0
M  V30 3 C 1.7689 0.6203 -0.5429 0
M  V30 4 C 4.2106 0.8067 0.4073 0
M  V30 5 C 0.7998 -0.4644 0.0418 0
M  V30 6 C -0.6612 0.1504 0.1479 0
M  V30 7 C 1.3043 -0.8694 1.453 0
M  V30 8 C 0.82 -1.7233 -0.861 0
M  V30 9 C -1.2917 0.487 -1.2333 0
M  V30 10 C -1.6627 -0.7158 0.9656 0
M  V30 11 C -2.6573 1.1679 -1.0819 0
M  V30 12 C -3.0318 -0.0341 1.0935 0
M  V30 13 C -3.6198 0.2909 -0.28 0
M  V30 14 H 1.4932 0.8701 -1.5872 0
M  V30 15 H 1.6589 1.5596 0.0415 0
M  V30 16 H 3.7065 1.4722 1.1388 0
M  V30 17 H 4.7097 -0.0137 0.9641 0
M  V30 18 H 4.9778 1.3925 -0.1406 0
M  V30 19 H -0.5649 1.1126 0.7015 0
M  V30 20 H 2.3638 -1.1972 1.4322 0
M  V30 21 H 0.7372 -1.7354 1.8526 0
M  V30 22 H 1.2169 -0.0166 2.16 0
M  V30 23 H 0.0485 -2.4568 -0.5528 0
M  V30 24 H 1.799 -2.2427 -0.7957 0
M  V30 25 H 0.653 -1.4573 -1.9257 0
M  V30 26 H -0.6471 1.181 -1.8068 0
M  V30 27 H -1.4254 -0.4378 -1.8338 0
M  V30 28 H -1.2943 -0.8713 1.9996 0
M  V30 29 H -1.802 -1.7095 0.4913 0
M  V30 30 H -3.0879 1.3546 -2.0894 0
M  V30 31 H -2.5334 2.1507 -0.5759 0
M  V30 32 H -3.7279 -0.7086 1.6376 0
M  V30 33 H -2.9304 0.901 1.6874 0
M  V30 34 H -3.8231 -0.6511 -0.8351 0
M  V30 35 H -4.5839 0.828 -0.1492 0
M  V30 END ATOM
M  V30 BEGIN BOND
M  V30 1 2 1 2
M  V30 2 1 2 3
M  V30 3 1 2 4
M  V30 4 1 3 5
M  V30 5 1 5 6
M  V30 6 1 5 7
M  V30 7 1 5 8
M  V30 8 1 6 9
M  V30 9 1 6 10
M  V30 10 1 9 11
M  V30 11 1 10 12
M  V30 12 1 11 13
M  V30 13 1 12 13
M  V30 14 1 3 14
M  V30 15 1 3 15
M  V30 16 1 4 16
M  V30 17 1 4 17
M  V30 18 1 4 18
M  V30 19 1 6 19
M  V30 20 1 7 20
M  V30 21 1 7 21
M  V30 22 1 7 22
M  V30 23 1 8 23
M  V30 24 1 8 24
M  V30 25 1 8 25
M  V30 26 1 9 26
M  V30 27 1 9 27
M  V30 28 1 10 28
M  V30 29 1 10 29
M  V30 30 1 11 30
M  V30 31 1 11 31
M  V30 32 1 12 32
M  V30 33 1 12 33
M  V30 34 1 13 34
M  V30 35 1 13 35
M  V30 END BOND
M  V30 END CTAB
M  END
>  <Structure No>
332

>  <LogS>
-3.548153643

>  <MMFF94 Energy>
25.643

$$$$
Compound 333
Actelion Java MolfileCreator 2.0

  0  0  0  0  0  0              0 V3000
M  V30 BEGIN CTAB
M  V30 COUNTS 31 31 0 0 0
M  V30 BEGIN ATOM
M  V30 1 O -0.314 -1.8855 1.6497 0
M  V30 2 C 0.1975 -1.1594 0.5616 0 CFG=1
M  V30 3 C -0.6614 0.1117 0.3271 0 CFG=2
M  V30 4 C 1.6609 -0.7782 0.8541 0
M  V30 5 C -2.1749 -0.2192 0.1114 0
M  V30 6 C -0.0536 0.9581 -0.8176 0
M  V30 7 C 2.2561 0.0709 -0.2837 0 CFG=1
M  V30 8 C -3.0553 1.0346 0.2339 0
M  V30 9 C -2.4764 -0.9443 -1.2113 0
M  V30 10 C 1.4027 1.3303 -0.5159 0
M  V30 11 C 3.7054 0.4549 0.0328 0
M  V30 12 H 0.0544 -2.8049 1.5814 0
M  V30 13 H 0.1792 -1.7916 -0.3557 0
M  V30 14 H -0.5947 0.7184 1.2595 0
M  V30 15 H 2.2599 -1.7081 0.9702 0
M  V30 16 H 1.7132 -0.2167 1.8139 0
M  V30 17 H -2.4963 -0.8966 0.9328 0
M  V30 18 H -0.0833 0.3955 -1.7752 0
M  V30 19 H -0.6281 1.898 -0.9503 0
M  V30 20 H 2.2607 -0.5354 -1.2174 0
M  V30 21 H -2.8351 1.5743 1.1794 0
M  V30 22 H -2.8982 1.7236 -0.6216 0
M  V30 23 H -4.1276 0.7439 0.2499 0
M  V30 24 H -3.5488 -1.233 -1.2441 0
M  V30 25 H -1.8816 -1.8748 -1.3024 0
M  V30 26 H -2.2729 -0.2904 -2.0847 0
M  V30 27 H 1.4374 1.9879 0.3811 0
M  V30 28 H 1.8111 1.9039 -1.3765 0
M  V30 29 H 4.1373 1.0413 -0.8059 0
M  V30 30 H 3.7573 1.0644 0.9607 0
M  V30 31 H 4.3218 -0.4591 0.1692 0
M  V30 END ATOM
M  V30 BEGIN BOND
M  V30 1 1 1 2
M  V30 2 1 2 3
M  V30 3 1 2 4
M  V30 4 1 3 5
M  V30 5 1 3 6
M  V30 6 1 4 7
M  V30 7 1 5 8
M  V30 8 1 5 9
M  V30 9 1 6 10
M  V30 10 1 7 11
M  V30 11 1 7 10
M  V30 12 1 1 12
M  V30 13 1 2 13
M  V30 14 1 3 14
M  V30 15 1 4 15
M  V30 16 1 4 16
M  V30 17 1 5 17
M  V30 18 1 6 18
M  V30 19 1 6 19
M  V30 20 1 7 20
M  V30 21 1 8 21
M  V30 22 1 8 22
M  V30 23 1 8 23
M  V30 24 1 9 24
M  V30 25 1 9 25
M  V30 26 1 9 26
M  V30 27 1 10 27
M  V30 28 1 10 28
M  V30 29 1 11 29
M  V30 30 1 11 30
M  V30 31 1 11 31
M  V30 END BOND
M  V30 BEGIN COLLECTION
M  V30 MDLV30/STEABS ATOMS=(3 2 3 7)
M  V30 END COLLECTION
M  V30 END CTAB
M  END
>  <Structure No>
333

>  <LogS>
-2.488009121

>  <MMFF94 Energy>
17.774

$$$$
Compound 334
Actelion Java MolfileCreator 2.0

  0  0  0  0  0  0              0 V3000
M  V30 BEGIN CTAB
M  V30 COUNTS 26 27 0 0 0
M  V30 BEGIN ATOM
M  V30 1 N -0.4722 -1.0233 -0.7871 0
M  V30 2 C 0.8201 -0.5012 -0.4333 0
M  V30 3 C -1.721 -0.4962 -0.3067 0
M  V30 4 C 1.8809 -0.6111 -1.3443 0
M  V30 5 C 1.0607 0.0584 0.8343 0
M  V30 6 C -2.8239 -1.3533 -0.1676 0
M  V30 7 C -1.8806 0.8756 -0.0359 0
M  V30 8 C 3.1526 -0.135 -1.0117 0
M  V30 9 C 2.3327 0.5341 1.1663 0
M  V30 10 C -4.055 -0.8564 0.2717 0
M  V30 11 C -3.1133 1.3689 0.403 0
M  V30 12 C 3.3837 0.4433 0.2438 0
M  V30 13 C -4.1986 0.5031 0.5607 0
M  V30 14 N 4.6847 0.9296 0.5841 0
M  V30 15 H -0.5063 -1.8411 -1.4376 0
M  V30 16 H 1.7182 -1.0581 -2.317 0
M  V30 17 H 0.271 0.1124 1.5723 0
M  V30 18 H -2.7251 -2.4081 -0.3913 0
M  V30 19 H -1.0597 1.5661 -0.1795 0
M  V30 20 H 3.9576 -0.2189 -1.7309 0
M  V30 21 H 2.501 0.9662 2.1449 0
M  V30 22 H -4.8984 -1.525 0.3859 0
M  V30 23 H -3.2294 2.4244 0.6135 0
M  V30 24 H -5.1525 0.8868 0.8989 0
M  V30 25 H 5.4747 0.8637 -0.0956 0
M  V30 26 H 4.8671 1.3598 1.5184 0
M  V30 END ATOM
M  V30 BEGIN BOND
M  V30 1 1 1 2
M  V30 2 1 1 3
M  V30 3 2 2 4
M  V30 4 1 2 5
M  V30 5 2 3 6
M  V30 6 1 3 7
M  V30 7 1 4 8
M  V30 8 2 5 9
M  V30 9 1 6 10
M  V30 10 2 7 11
M  V30 11 2 8 12
M  V30 12 2 10 13
M  V30 13 1 12 14
M  V30 14 1 9 12
M  V30 15 1 11 13
M  V30 16 1 1 15
M  V30 17 1 4 16
M  V30 18 1 5 17
M  V30 19 1 6 18
M  V30 20 1 7 19
M  V30 21 1 8 20
M  V30 22 1 9 21
M  V30 23 1 10 22
M  V30 24 1 11 23
M  V30 25 1 13 24
M  V30 26 1 14 25
M  V30 27 1 14 26
M  V30 END BOND
M  V30 END CTAB
M  END
>  <Structure No>
334

>  <LogS>
-2.563130476

>  <MMFF94 Energy>
18.287

$$$$
Compound 335
Actelion Java MolfileCreator 2.0

  0  0  0  0  0  0              0 V3000
M  V30 BEGIN CTAB
M  V30 COUNTS 31 31 0 0 0
M  V30 BEGIN ATOM
M  V30 1 O -1.804 1.0193 -1.8825 0
M  V30 2 C -0.9831 0.7356 -0.9664 0
M  V30 3 N 0.4006 1.1243 -1.1088 0
M  V30 4 C -1.4973 0.0453 0.2808 0 CFG=2
M  V30 5 C 1.4456 0.4736 -0.363 0
M  V30 6 C 0.7404 2.2437 -1.9913 0
M  V30 7 C -2.131 -1.3129 -0.0911 0
M  V30 8 C -2.4948 0.9655 0.9985 0
M  V30 9 C 2.3134 1.2247 0.4468 0
M  V30 10 C 1.6122 -0.9186 -0.4442 0
M  V30 11 C -2.3911 -2.1975 1.1284 0
M  V30 12 C 3.3247 0.5893 1.1738 0
M  V30 13 C 2.6241 -1.5507 0.2846 0
M  V30 14 C 3.479 -0.7975 1.0939 0
M  V30 15 H -0.6586 -0.1357 0.985 0
M  V30 16 H 1.8403 2.326 -2.1284 0
M  V30 17 H 0.2865 2.093 -2.9934 0
M  V30 18 H 0.3612 3.1912 -1.5539 0
M  V30 19 H -3.0856 -1.1565 -0.64 0
M  V30 20 H -1.4441 -1.866 -0.7679 0
M  V30 21 H -2.0304 1.958 1.1846 0
M  V30 22 H -2.7807 0.5409 1.9829 0
M  V30 23 H -3.4118 1.1098 0.3876 0
M  V30 24 H 2.1969 2.2984 0.5226 0
M  V30 25 H 0.9637 -1.5092 -1.0776 0
M  V30 26 H -1.4571 -2.3373 1.7133 0
M  V30 27 H -2.7479 -3.1936 0.7919 0
M  V30 28 H -3.1729 -1.7533 1.7784 0
M  V30 29 H 3.9877 1.1717 1.8004 0
M  V30 30 H 2.747 -2.624 0.2195 0
M  V30 31 H 4.262 -1.288 1.6575 0
M  V30 END ATOM
M  V30 BEGIN BOND
M  V30 1 2 1 2
M  V30 2 1 2 3
M  V30 3 1 2 4
M  V30 4 1 3 5
M  V30 5 1 3 6
M  V30 6 1 4 7
M  V30 7 1 4 8
M  V30 8 2 5 9
M  V30 9 1 5 10
M  V30 10 1 7 11
M  V30 11 1 9 12
M  V30 12 2 10 13
M  V30 13 2 12 14
M  V30 14 1 13 14
M  V30 15 1 4 15
M  V30 16 1 6 16
M  V30 17 1 6 17
M  V30 18 1 6 18
M  V30 19 1 7 19
M  V30 20 1 7 20
M  V30 21 1 8 21
M  V30 22 1 8 22
M  V30 23 1 8 23
M  V30 24 1 9 24
M  V30 25 1 10 25
M  V30 26 1 11 26
M  V30 27 1 11 27
M  V30 28 1 11 28
M  V30 29 1 12 29
M  V30 30 1 13 30
M  V30 31 1 14 31
M  V30 END BOND
M  V30 BEGIN COLLECTION
M  V30 MDLV30/STEABS ATOMS=(1 4)
M  V30 END COLLECTION
M  V30 END CTAB
M  END
>  <Structure No>
335

>  <LogS>
-1.580579513

>  <MMFF94 Energy>
17.496

$$$$
Compound 336
Actelion Java MolfileCreator 2.0

  0  0  0  0  0  0              0 V3000
M  V30 BEGIN CTAB
M  V30 COUNTS 15 15 0 0 0
M  V30 BEGIN ATOM
M  V30 1 O 1.8925 -1.8136 0.4728 0
M  V30 2 C 1.6274 -0.5948 0.2887 0
M  V30 3 N 2.7042 0.3451 0.2398 0
M  V30 4 C 0.2169 -0.17 0.1124 0
M  V30 5 C -0.188 1.1572 0.3459 0
M  V30 6 C -0.7599 -1.1037 -0.2744 0
M  V30 7 N -1.4896 1.5167 0.183 0
M  V30 8 C -2.0881 -0.7063 -0.4371 0
M  V30 9 C -2.4372 0.6234 -0.204 0
M  V30 10 H 2.56 1.3328 -0.0633 0
M  V30 11 H 3.6811 0.0264 0.4258 0
M  V30 12 H 0.5157 1.906 0.6802 0
M  V30 13 H -0.4952 -2.1372 -0.4609 0
M  V30 14 H -2.8398 -1.4231 -0.7415 0
M  V30 15 H -3.4629 0.9452 -0.3255 0
M  V30 END ATOM
M  V30 BEGIN BOND
M  V30 1 2 1 2
M  V30 2 1 2 3
M  V30 3 1 2 4
M  V30 4 2 4 5
M  V30 5 1 4 6
M  V30 6 1 5 7
M  V30 7 2 6 8
M  V30 8 2 7 9
M  V30 9 1 8 9
M  V30 10 1 3 10
M  V30 11 1 3 11
M  V30 12 1 5 12
M  V30 13 1 6 13
M  V30 14 1 8 14
M  V30 15 1 9 15
M  V30 END BOND
M  V30 END CTAB
M  END
>  <Structure No>
336

>  <LogS>
0.612158315

>  <MMFF94 Energy>
6.067

$$$$
Compound 337
Actelion Java MolfileCreator 2.0

  0  0  0  0  0  0              0 V3000
M  V30 BEGIN CTAB
M  V30 COUNTS 18 18 0 0 0
M  V30 BEGIN ATOM
M  V30 1 O 3.5859 0.545 0.3892 0
M  V30 2 C 2.2354 0.2466 0.2226 0
M  V30 3 C 1.7466 -0.9959 0.6352 0
M  V30 4 C 1.3633 1.1789 -0.3538 0
M  V30 5 C 0.3935 -1.3087 0.474 0
M  V30 6 C 0.0093 0.8693 -0.5166 0
M  V30 7 C -0.4896 -0.3815 -0.1026 0
M  V30 8 N -1.8776 -0.7316 -0.2558 0
M  V30 9 C -2.8741 0.1587 -0.8417 0
M  V30 10 H 3.9705 1.4369 0.1004 0
M  V30 11 H 2.4159 -1.7204 1.0816 0
M  V30 12 H 1.7334 2.1439 -0.6763 0
M  V30 13 H 0.0325 -2.2762 0.7997 0
M  V30 14 H -0.6391 1.6097 -0.9648 0
M  V30 15 H -2.1998 -1.6723 0.067 0
M  V30 16 H -2.9489 1.0898 -0.2416 0
M  V30 17 H -3.8668 -0.339 -0.8482 0
M  V30 18 H -2.594 0.4035 -1.8878 0
M  V30 END ATOM
M  V30 BEGIN BOND
M  V30 1 1 1 2
M  V30 2 2 2 3
M  V30 3 1 2 4
M  V30 4 1 3 5
M  V30 5 2 4 6
M  V30 6 2 5 7
M  V30 7 1 7 8
M  V30 8 1 8 9
M  V30 9 1 6 7
M  V30 10 1 1 10
M  V30 11 1 3 11
M  V30 12 1 4 12
M  V30 13 1 5 13
M  V30 14 1 6 14
M  V30 15 1 8 15
M  V30 16 1 9 16
M  V30 17 1 9 17
M  V30 18 1 9 18
M  V30 END BOND
M  V30 END CTAB
M  END
>  <Structure No>
337

>  <LogS>
-0.838079267

>  <MMFF94 Energy>
-1.2081

$$$$
Compound 338
Actelion Java MolfileCreator 2.0

  0  0  0  0  0  0              0 V3000
M  V30 BEGIN CTAB
M  V30 COUNTS 46 49 0 0 0
M  V30 BEGIN ATOM
M  V30 1 S -3.1095 -4.5803 -0.5177 0
M  V30 2 O -4.5215 -4.8336 -0.9666 0
M  V30 3 O -2.8592 -5.3283 0.7609 0
M  V30 4 O -2.0589 -5.1293 -1.708 0 CHG=-1
M  V30 5 C -2.8443 -2.8551 -0.2505 0
M  V30 6 C -1.5569 -2.3767 0.0378 0
M  V30 7 C -3.9183 -1.9647 -0.3284 0
M  V30 8 O -0.5014 -3.2893 0.1215 0
M  V30 9 C -1.3333 -0.9964 0.2264 0
M  V30 10 C -3.7327 -0.5998 -0.081 0
M  V30 11 N 0.0233 -0.5512 0.3851 0
M  V30 12 C -2.4398 -0.101 0.2261 0
M  V30 13 C -4.8354 0.2692 -0.1172 0
M  V30 14 N 0.4538 0.5273 -0.1346 0
M  V30 15 C -2.3129 1.2628 0.569 0
M  V30 16 C -4.6805 1.625 0.187 0
M  V30 17 C 1.8113 0.9536 0.0317 0
M  V30 18 C -3.4191 2.1146 0.5355 0
M  V30 19 S -6.0683 2.7076 0.1329 0
M  V30 20 C 2.9179 0.0999 -0.2038 0
M  V30 21 C 2.0294 2.2651 0.4531 0
M  V30 22 O -5.8672 3.8473 1.0919 0
M  V30 23 O -7.3127 1.9615 0.5247 0
M  V30 24 O -6.244 3.3121 -1.424 0 CHG=-1
M  V30 25 C 4.2374 0.5632 0.0814 0
M  V30 26 C 2.747 -1.1861 -0.7577 0
M  V30 27 C 3.3154 2.726 0.7152 0
M  V30 28 C 4.427 1.8894 0.5532 0
M  V30 29 C 5.3261 -0.3109 -0.1301 0
M  V30 30 C 3.8414 -2.0244 -0.9635 0
M  V30 31 S 6.0322 2.5449 0.9276 0
M  V30 32 C 5.1237 -1.593 -0.64 0
M  V30 33 O 6.6626 1.7379 2.0276 0
M  V30 34 O 5.9266 3.9751 1.3788 0
M  V30 35 O 6.9981 2.4882 -0.4458 0 CHG=-1
M  V30 36 H -4.9094 -2.3388 -0.5555 0
M  V30 37 H 0.4418 -3.0177 0.3681 0
M  V30 38 H -5.8182 -0.11 -0.3722 0
M  V30 39 H -1.3777 1.6848 0.9028 0
M  V30 40 H -3.2903 3.1586 0.792 0
M  V30 41 H 1.1873 2.9281 0.6118 0
M  V30 42 H 1.7767 -1.5455 -1.0665 0
M  V30 43 H 3.4365 3.7446 1.0599 0
M  V30 44 H 6.343 -0.0182 0.0849 0
M  V30 45 H 3.6944 -3.0109 -1.3842 0
M  V30 46 H 5.9691 -2.2494 -0.8017 0
M  V30 END ATOM
M  V30 BEGIN BOND
M  V30 1 2 1 2
M  V30 2 2 1 3
M  V30 3 1 1 4
M  V30 4 1 1 5
M  V30 5 1 5 6
M  V30 6 2 5 7
M  V30 7 1 6 8
M  V30 8 2 6 9
M  V30 9 1 7 10
M  V30 10 1 9 11
M  V30 11 1 9 12
M  V30 12 2 10 13
M  V30 13 2 11 14
M  V30 14 2 12 15
M  V30 15 1 13 16
M  V30 16 1 14 17
M  V30 17 1 15 18
M  V30 18 1 16 19
M  V30 19 1 17 20
M  V30 20 2 17 21
M  V30 21 2 19 22
M  V30 22 2 19 23
M  V30 23 1 19 24
M  V30 24 1 20 25
M  V30 25 2 20 26
M  V30 26 1 21 27
M  V30 27 1 25 28
M  V30 28 2 25 29
M  V30 29 1 26 30
M  V30 30 1 28 31
M  V30 31 1 29 32
M  V30 32 2 31 33
M  V30 33 2 31 34
M  V30 34 1 31 35
M  V30 35 1 10 12
M  V30 36 2 16 18
M  V30 37 2 27 28
M  V30 38 2 30 32
M  V30 39 1 7 36
M  V30 40 1 8 37
M  V30 41 1 13 38
M  V30 42 1 15 39
M  V30 43 1 18 40
M  V30 44 1 21 41
M  V30 45 1 26 42
M  V30 46 1 27 43
M  V30 47 1 29 44
M  V30 48 1 30 45
M  V30 49 1 32 46
M  V30 END BOND
M  V30 END CTAB
M  END
>  <Structure No>
338

>  <LogS>
-1.082414087

>  <MMFF94 Energy>
247.63

$$$$
Compound 339
Actelion Java MolfileCreator 2.0

  0  0  0  0  0  0              0 V3000
M  V30 BEGIN CTAB
M  V30 COUNTS 19 19 0 0 0
M  V30 BEGIN ATOM
M  V30 1 O -0.6247 3.0484 0.2342 0
M  V30 2 C -0.3543 1.6851 0.1395 0
M  V30 3 C 0.9332 1.2336 -0.1794 0
M  V30 4 C -1.3801 0.7619 0.3659 0
M  V30 5 C 1.2025 -0.1412 -0.2548 0
M  V30 6 C -1.1319 -0.6146 0.257 0
M  V30 7 C 0.1638 -1.0616 -0.0445 0
M  V30 8 C 2.5743 -0.6225 -0.6248 0
M  V30 9 C -2.2272 -1.6031 0.5288 0
M  V30 10 H 0.0954 3.7437 0.0765 0
M  V30 11 H 1.7228 1.9525 -0.3623 0
M  V30 12 H -2.3708 1.119 0.6203 0
M  V30 13 H 0.3638 -2.1245 -0.1157 0
M  V30 14 H 2.7817 -1.6099 -0.1602 0
M  V30 15 H 2.6461 -0.7191 -1.7282 0
M  V30 16 H 3.3491 0.0914 -0.2724 0
M  V30 17 H -2.076 -2.5287 -0.0664 0
M  V30 18 H -3.2165 -1.1778 0.2554 0
M  V30 19 H -2.2306 -1.8628 1.608 0
M  V30 END ATOM
M  V30 BEGIN BOND
M  V30 1 1 1 2
M  V30 2 2 2 3
M  V30 3 1 2 4
M  V30 4 1 3 5
M  V30 5 2 4 6
M  V30 6 2 5 7
M  V30 7 1 5 8
M  V30 8 1 6 9
M  V30 9 1 6 7
M  V30 10 1 1 10
M  V30 11 1 3 11
M  V30 12 1 4 12
M  V30 13 1 7 13
M  V30 14 1 8 14
M  V30 15 1 8 15
M  V30 16 1 8 16
M  V30 17 1 9 17
M  V30 18 1 9 18
M  V30 19 1 9 19
M  V30 END BOND
M  V30 END CTAB
M  END
>  <Structure No>
339

>  <LogS>
-1.387983905

>  <MMFF94 Energy>
9.9814

$$$$
Compound 340
Actelion Java MolfileCreator 2.0

  0  0  0  0  0  0              0 V3000
M  V30 BEGIN CTAB
M  V30 COUNTS 41 40 0 0 0
M  V30 BEGIN ATOM
M  V30 1 O 2.8379 -0.3937 -1.4181 0
M  V30 2 C 2.6394 -0.3569 -0.172 0
M  V30 3 O 1.3491 -0.1854 0.3343 0
M  V30 4 C 3.7588 -0.4932 0.7717 0
M  V30 5 C 0.204 -0.0448 -0.5037 0
M  V30 6 C 5.018 -0.6598 0.3717 0
M  V30 7 C -1.086 0.129 0.3405 0
M  V30 8 C -1.276 -1.1107 1.2627 0
M  V30 9 C -0.9525 1.3919 1.2415 0
M  V30 10 C -2.2846 0.2756 -0.6517 0
M  V30 11 O -1.552 -2.2959 0.5129 0
M  V30 12 O -0.9216 2.5959 0.4716 0
M  V30 13 C -3.6606 0.4577 -0.0013 0
M  V30 14 C -0.5868 -3.2502 0.1726 0
M  V30 15 C 0.2529 3.2678 0.1148 0
M  V30 16 O 0.6008 -3.1406 0.5852 0
M  V30 17 C -0.9836 -4.3863 -0.6728 0
M  V30 18 O 1.3756 2.8664 0.5287 0
M  V30 19 C 0.1542 4.4537 -0.7493 0
M  V30 20 C -0.1266 -5.3334 -1.0497 0
M  V30 21 C 1.222 5.1454 -1.1428 0
M  V30 22 H 3.5473 -0.4561 1.833 0
M  V30 23 H 0.3459 0.8303 -1.1737 0
M  V30 24 H 0.1176 -0.9387 -1.1584 0
M  V30 25 H 5.2775 -0.7031 -0.6783 0
M  V30 26 H 5.8082 -0.7552 1.1049 0
M  V30 27 H -2.1299 -0.9397 1.9508 0
M  V30 28 H -0.3925 -1.2565 1.9225 0
M  V30 29 H -0.0588 1.32 1.8997 0
M  V30 30 H -1.8196 1.4543 1.9314 0
M  V30 31 H -2.1085 1.1447 -1.3228 0
M  V30 32 H -2.3355 -0.6197 -1.3093 0
M  V30 33 H -4.4279 0.5518 -0.7984 0
M  V30 34 H -3.9294 -0.4193 0.6213 0
M  V30 35 H -3.6967 1.3819 0.61 0
M  V30 36 H -2.0129 -4.4507 -1.0024 0
M  V30 37 H -0.8265 4.7726 -1.0794 0
M  V30 38 H 0.9124 -5.3102 -0.7466 0
M  V30 39 H -0.466 -6.1495 -1.6742 0
M  V30 40 H 2.2225 4.8635 -0.8399 0
M  V30 41 H 1.0984 6.011 -1.7804 0
M  V30 END ATOM
M  V30 BEGIN BOND
M  V30 1 2 1 2
M  V30 2 1 2 3
M  V30 3 1 2 4
M  V30 4 1 3 5
M  V30 5 2 4 6
M  V30 6 1 5 7
M  V30 7 1 7 8
M  V30 8 1 7 9
M  V30 9 1 7 10
M  V30 10 1 8 11
M  V30 11 1 9 12
M  V30 12 1 10 13
M  V30 13 1 11 14
M  V30 14 1 12 15
M  V30 15 2 14 16
M  V30 16 1 14 17
M  V30 17 2 15 18
M  V30 18 1 15 19
M  V30 19 2 17 20
M  V30 20 2 19 21
M  V30 21 1 4 22
M  V30 22 1 5 23
M  V30 23 1 5 24
M  V30 24 1 6 25
M  V30 25 1 6 26
M  V30 26 1 8 27
M  V30 27 1 8 28
M  V30 28 1 9 29
M  V30 29 1 9 30
M  V30 30 1 10 31
M  V30 31 1 10 32
M  V30 32 1 13 33
M  V30 33 1 13 34
M  V30 34 1 13 35
M  V30 35 1 17 36
M  V30 36 1 19 37
M  V30 37 1 20 38
M  V30 38 1 20 39
M  V30 39 1 21 40
M  V30 40 1 21 41
M  V30 END BOND
M  V30 END CTAB
M  END
>  <Structure No>
340

>  <LogS>
-2.772789495

>  <MMFF94 Energy>
11

$$$$
Compound 341
Actelion Java MolfileCreator 2.0

  0  0  0  0  0  0              0 V3000
M  V30 BEGIN CTAB
M  V30 COUNTS 28 27 0 0 0
M  V30 BEGIN ATOM
M  V30 1 O 0.2324 -0.3874 2.0159 0
M  V30 2 C 0.1153 -0.2052 0.8134 0
M  V30 3 C -0.8891 0.7992 0.3106 0
M  V30 4 C 0.9264 -1.0354 -0.1527 0
M  V30 5 C -2.2166 0.1317 -0.1054 0
M  V30 6 C 2.4193 -0.6406 -0.2095 0
M  V30 7 C -2.9489 -0.4723 1.1019 0
M  V30 8 C -3.1208 1.1499 -0.8107 0
M  V30 9 C 2.611 0.8175 -0.6479 0
M  V30 10 C 3.1496 -0.9148 1.1122 0
M  V30 11 H -1.077 1.5667 1.094 0
M  V30 12 H -0.4474 1.3273 -0.5622 0
M  V30 13 H 0.8325 -2.1072 0.1266 0
M  V30 14 H 0.4985 -0.9383 -1.1743 0
M  V30 15 H -2.001 -0.6857 -0.8289 0
M  V30 16 H 2.894 -1.2832 -0.9841 0
M  V30 17 H -2.3399 -1.2779 1.5628 0
M  V30 18 H -3.913 -0.9212 0.7807 0
M  V30 19 H -3.1545 0.3073 1.8667 0
M  V30 20 H -4.065 0.6644 -1.1379 0
M  V30 21 H -2.6134 1.5541 -1.7126 0
M  V30 22 H -3.3678 1.993 -0.1296 0
M  V30 23 H 2.2057 1.5176 0.1136 0
M  V30 24 H 2.0941 0.9983 -1.6144 0
M  V30 25 H 3.6916 1.0338 -0.7875 0
M  V30 26 H 2.813 -0.2182 1.9084 0
M  V30 27 H 2.9692 -1.9597 1.443 0
M  V30 28 H 4.2435 -0.7805 0.9734 0
M  V30 END ATOM
M  V30 BEGIN BOND
M  V30 1 2 1 2
M  V30 2 1 2 3
M  V30 3 1 2 4
M  V30 4 1 3 5
M  V30 5 1 4 6
M  V30 6 1 5 7
M  V30 7 1 5 8
M  V30 8 1 6 9
M  V30 9 1 6 10
M  V30 10 1 3 11
M  V30 11 1 3 12
M  V30 12 1 4 13
M  V30 13 1 4 14
M  V30 14 1 5 15
M  V30 15 1 6 16
M  V30 16 1 7 17
M  V30 17 1 7 18
M  V30 18 1 7 19
M  V30 19 1 8 20
M  V30 20 1 8 21
M  V30 21 1 8 22
M  V30 22 1 9 23
M  V30 23 1 9 24
M  V30 24 1 9 25
M  V30 25 1 10 26
M  V30 26 1 10 27
M  V30 27 1 10 28
M  V30 END BOND
M  V30 END CTAB
M  END
>  <Structure No>
341

>  <LogS>
-2.454057846

>  <MMFF94 Energy>
7.977

$$$$
Compound 342
Actelion Java MolfileCreator 2.0

  0  0  0  0  0  0              0 V3000
M  V30 BEGIN CTAB
M  V30 COUNTS 27 27 0 0 0
M  V30 BEGIN ATOM
M  V30 1 O -2.1148 1.3311 0.9394 0
M  V30 2 C -1.1167 0.6134 0.261 0
M  V30 3 C -1.8967 2.5517 1.6398 0
M  V30 4 C -1.4771 -0.5791 -0.3858 0
M  V30 5 C 0.2207 1.0539 0.2156 0
M  V30 6 O -2.8175 -0.9927 -0.3245 0
M  V30 7 C -0.4965 -1.3226 -1.0697 0
M  V30 8 C 1.1925 0.315 -0.4754 0
M  V30 9 C -3.3247 -2.1771 -0.9308 0
M  V30 10 C 0.8264 -0.8794 -1.1095 0
M  V30 11 C 2.6251 0.7788 -0.4932 0
M  V30 12 C 3.3195 0.4135 0.7887 0
M  V30 13 C 3.6433 -0.8504 1.0766 0
M  V30 14 H -1.5257 3.3316 0.9418 0
M  V30 15 H -1.1671 2.395 2.4623 0
M  V30 16 H -2.8565 2.8947 2.0776 0
M  V30 17 H 0.5155 1.9673 0.7153 0
M  V30 18 H -0.7464 -2.2469 -1.5723 0
M  V30 19 H -3.1744 -2.1375 -2.0304 0
M  V30 20 H -4.4118 -2.2533 -0.7236 0
M  V30 21 H -2.8185 -3.0698 -0.5068 0
M  V30 22 H 1.5664 -1.4701 -1.6351 0
M  V30 23 H 2.6511 1.8833 -0.6157 0
M  V30 24 H 3.175 0.3446 -1.3569 0
M  V30 25 H 3.574 1.1998 1.4935 0
M  V30 26 H 3.4096 -1.6576 0.3891 0
M  V30 27 H 4.1485 -1.0826 2.0085 0
M  V30 END ATOM
M  V30 BEGIN BOND
M  V30 1 1 1 2
M  V30 2 1 1 3
M  V30 3 2 2 4
M  V30 4 1 2 5
M  V30 5 1 4 6
M  V30 6 1 4 7
M  V30 7 2 5 8
M  V30 8 1 6 9
M  V30 9 2 7 10
M  V30 10 1 8 11
M  V30 11 1 11 12
M  V30 12 2 12 13
M  V30 13 1 8 10
M  V30 14 1 3 14
M  V30 15 1 3 15
M  V30 16 1 3 16
M  V30 17 1 5 17
M  V30 18 1 7 18
M  V30 19 1 9 19
M  V30 20 1 9 20
M  V30 21 1 9 21
M  V30 22 1 10 22
M  V30 23 1 11 23
M  V30 24 1 11 24
M  V30 25 1 12 25
M  V30 26 1 13 26
M  V30 27 1 13 27
M  V30 END BOND
M  V30 END CTAB
M  END
>  <Structure No>
342

>  <LogS>
-2.55201324

>  <MMFF94 Energy>
54.358

$$$$
Compound 343
Actelion Java MolfileCreator 2.0

  0  0  0  0  0  0              0 V3000
M  V30 BEGIN CTAB
M  V30 COUNTS 24 25 0 0 0
M  V30 BEGIN ATOM
M  V30 1 S 3.827 0.9973 0.4154 0
M  V30 2 O 3.8261 2.4326 -0.0302 0
M  V30 3 O 4.8836 0.2544 -0.3527 0
M  V30 4 O 4.1716 0.9211 2.0574 0 CHG=-1
M  V30 5 C 2.2488 0.2765 0.1145 0
M  V30 6 C 2.1431 -1.0875 -0.1707 0
M  V30 7 C 1.0954 1.0615 0.1834 0
M  V30 8 C 0.898 -1.6826 -0.4027 0
M  V30 9 C -0.1656 0.4932 -0.0452 0
M  V30 10 O 0.8886 -3.0523 -0.6831 0
M  V30 11 C -0.2805 -0.8917 -0.3442 0
M  V30 12 C -1.3144 1.2977 0.0229 0
M  V30 13 C -1.5663 -1.4273 -0.5701 0
M  V30 14 C -2.5804 0.7478 -0.2033 0
M  V30 15 C -2.6997 -0.6131 -0.4994 0
M  V30 16 N -3.7467 1.5731 -0.1329 0
M  V30 17 H 3.0357 -1.6993 -0.2117 0
M  V30 18 H 1.1814 2.1163 0.4174 0
M  V30 19 H 0.0577 -3.5956 -0.864 0
M  V30 20 H -1.2273 2.3539 0.2518 0
M  V30 21 H -1.7253 -2.4677 -0.8026 0
M  V30 22 H -3.6762 -1.0466 -0.6764 0
M  V30 23 H -3.6694 2.5911 0.0874 0
M  V30 24 H -4.6964 1.1722 -0.3003 0
M  V30 END ATOM
M  V30 BEGIN BOND
M  V30 1 2 1 2
M  V30 2 2 1 3
M  V30 3 1 1 4
M  V30 4 1 1 5
M  V30 5 1 5 6
M  V30 6 2 5 7
M  V30 7 2 6 8
M  V30 8 1 7 9
M  V30 9 1 8 10
M  V30 10 1 8 11
M  V30 11 2 9 12
M  V30 12 2 11 13
M  V30 13 1 12 14
M  V30 14 1 13 15
M  V30 15 1 14 16
M  V30 16 1 9 11
M  V30 17 2 14 15
M  V30 18 1 6 17
M  V30 19 1 7 18
M  V30 20 1 10 19
M  V30 21 1 12 20
M  V30 22 1 13 21
M  V30 23 1 15 22
M  V30 24 1 16 23
M  V30 25 1 16 24
M  V30 END BOND
M  V30 END CTAB
M  END
>  <Structure No>
343

>  <LogS>
-2.679885573

>  <MMFF94 Energy>
36.231

$$$$
Compound 344
Actelion Java MolfileCreator 2.0

  0  0  0  0  0  0              0 V3000
M  V30 BEGIN CTAB
M  V30 COUNTS 37 39 0 0 0
M  V30 BEGIN ATOM
M  V30 1 S -5.4512 0.9354 1.9565 0
M  V30 2 O -6.3024 -0.3025 1.9982 0
M  V30 3 O -6.2751 2.0693 1.4137 0
M  V30 4 O -4.9348 1.3128 3.5094 0 CHG=-1
M  V30 5 C -4.0515 0.6634 0.924 0
M  V30 6 C -3.4791 -0.6114 0.8387 0
M  V30 7 C -3.4913 1.7252 0.2048 0
M  V30 8 C -2.3564 -0.8326 0.0259 0
M  V30 9 C -2.3736 1.5184 -0.6068 0
M  V30 10 C -1.7937 0.24 -0.711 0
M  V30 11 C -1.7879 -2.1104 -0.0579 0
M  V30 12 C -0.6529 0.0132 -1.5132 0
M  V30 13 C -0.6805 -2.3346 -0.8747 0
M  V30 14 N -0.0769 1.0923 -2.2705 0
M  V30 15 C -0.1191 -1.2865 -1.6131 0
M  V30 16 N 1.148 1.4579 -2.2198 0
M  V30 17 O 0.9601 -1.5348 -2.4606 0
M  V30 18 C 2.1329 0.9583 -1.2999 0
M  V30 19 C 1.8454 0.7905 0.066 0
M  V30 20 C 3.4301 0.709 -1.7629 0
M  V30 21 C 2.8306 0.3242 0.9409 0
M  V30 22 C 4.4159 0.2428 -0.8879 0
M  V30 23 C 4.1202 0.0476 0.4678 0
M  V30 24 S 5.3562 -0.5543 1.567 0
M  V30 25 O 5.1195 -0.011 2.9482 0
M  V30 26 O 6.7144 -0.1114 1.1004 0
M  V30 27 O 5.2978 -2.2321 1.6077 0 CHG=-1
M  V30 28 H -3.9072 -1.4287 1.4073 0
M  V30 29 H -3.9176 2.718 0.2746 0
M  V30 30 H -1.9657 2.3638 -1.1465 0
M  V30 31 H -2.2062 -2.9391 0.5011 0
M  V30 32 H -0.2635 -3.3314 -0.9425 0
M  V30 33 H 1.3645 -2.4596 -2.5496 0
M  V30 34 H 0.8671 1.0343 0.4589 0
M  V30 35 H 3.6713 0.8599 -2.8077 0
M  V30 36 H 2.5888 0.1857 1.9871 0
M  V30 37 H 5.4075 0.0343 -1.2686 0
M  V30 END ATOM
M  V30 BEGIN BOND
M  V30 1 2 1 2
M  V30 2 2 1 3
M  V30 3 1 1 4
M  V30 4 1 1 5
M  V30 5 2 5 6
M  V30 6 1 5 7
M  V30 7 1 6 8
M  V30 8 2 7 9
M  V30 9 1 8 10
M  V30 10 2 8 11
M  V30 11 2 10 12
M  V30 12 1 11 13
M  V30 13 1 12 14
M  V30 14 1 12 15
M  V30 15 2 14 16
M  V30 16 1 15 17
M  V30 17 1 16 18
M  V30 18 2 18 19
M  V30 19 1 18 20
M  V30 20 1 19 21
M  V30 21 2 20 22
M  V30 22 2 21 23
M  V30 23 1 23 24
M  V30 24 2 24 25
M  V30 25 2 24 26
M  V30 26 1 24 27
M  V30 27 1 9 10
M  V30 28 2 13 15
M  V30 29 1 22 23
M  V30 30 1 6 28
M  V30 31 1 7 29
M  V30 32 1 9 30
M  V30 33 1 11 31
M  V30 34 1 13 32
M  V30 35 1 17 33
M  V30 36 1 19 34
M  V30 37 1 20 35
M  V30 38 1 21 36
M  V30 39 1 22 37
M  V30 END BOND
M  V30 END CTAB
M  END
>  <Structure No>
344

>  <LogS>
-2.936886553

>  <MMFF94 Energy>
139.45

$$$$
Compound 345
Actelion Java MolfileCreator 2.0

  0  0  0  0  0  0              0 V3000
M  V30 BEGIN CTAB
M  V30 COUNTS 43 43 0 0 0
M  V30 BEGIN ATOM
M  V30 1 O 2.2146 -3.7989 0.3161 0
M  V30 2 C 2.6196 -2.8776 -0.4445 0
M  V30 3 O 3.9819 -2.7254 -0.7167 0
M  V30 4 C 1.6357 -1.9129 -1.0319 0
M  V30 5 C 4.973 -3.5867 -0.1702 0
M  V30 6 C 1.2392 -0.8287 -0.0112 0 CFG=2
M  V30 7 C 0.2541 0.1503 -0.5734 0
M  V30 8 C 2.4292 0.0517 0.4169 0
M  V30 9 C 0.6177 1.4039 -0.3412 0
M  V30 10 C -1.09 -0.2337 -1.1499 0
M  V30 11 C 1.9329 1.496 0.3507 0
M  V30 12 O -0.1933 2.4936 -0.6962 0
M  V30 13 C -2.0519 -0.7686 -0.0795 0
M  V30 14 C 0.0697 3.8413 -0.419 0
M  V30 15 C -2.4614 0.318 0.9294 0
M  V30 16 O 1.1159 4.1995 0.1852 0
M  V30 17 C -0.8932 4.8765 -0.8918 0
M  V30 18 C -3.3922 -0.217 2.028 0
M  V30 19 C -4.796 -0.5339 1.5136 0
M  V30 20 H 0.7368 -2.4872 -1.3407 0
M  V30 21 H 2.0698 -1.4444 -1.9422 0
M  V30 22 H 4.9559 -3.5297 0.9389 0
M  V30 23 H 5.9722 -3.2678 -0.5309 0
M  V30 24 H 4.7895 -4.6324 -0.4959 0
M  V30 25 H 0.7907 -1.3057 0.8886 0
M  V30 26 H 3.2935 -0.0654 -0.2739 0
M  V30 27 H 2.7619 -0.2067 1.4457 0
M  V30 28 H -1.5609 0.6266 -1.6732 0
M  V30 29 H -0.9436 -1.0165 -1.9219 0
M  V30 30 H 1.7918 1.9043 1.3748 0
M  V30 31 H 2.6392 2.1279 -0.2294 0
M  V30 32 H -1.5854 -1.6264 0.4514 0
M  V30 33 H -2.9568 -1.1471 -0.5997 0
M  V30 34 H -2.9507 1.1643 0.3991 0
M  V30 35 H -1.5503 0.7146 1.4267 0
M  V30 36 H -1.9256 4.4683 -0.8679 0
M  V30 37 H -0.8484 5.7728 -0.2374 0
M  V30 38 H -0.6401 5.1689 -1.9317 0
M  V30 39 H -2.9517 -1.1248 2.4944 0
M  V30 40 H -3.4803 0.5577 2.8201 0
M  V30 41 H -5.2271 0.3462 0.9913 0
M  V30 42 H -5.453 -0.7919 2.3706 0
M  V30 43 H -4.7757 -1.4015 0.8228 0
M  V30 END ATOM
M  V30 BEGIN BOND
M  V30 1 2 1 2
M  V30 2 1 2 3
M  V30 3 1 2 4
M  V30 4 1 3 5
M  V30 5 1 4 6
M  V30 6 1 6 7
M  V30 7 1 6 8
M  V30 8 2 7 9
M  V30 9 1 7 10
M  V30 10 1 8 11
M  V30 11 1 9 12
M  V30 12 1 10 13
M  V30 13 1 12 14
M  V30 14 1 13 15
M  V30 15 2 14 16
M  V30 16 1 14 17
M  V30 17 1 15 18
M  V30 18 1 18 19
M  V30 19 1 9 11
M  V30 20 1 4 20
M  V30 21 1 4 21
M  V30 22 1 5 22
M  V30 23 1 5 23
M  V30 24 1 5 24
M  V30 25 1 6 25
M  V30 26 1 8 26
M  V30 27 1 8 27
M  V30 28 1 10 28
M  V30 29 1 10 29
M  V30 30 1 11 30
M  V30 31 1 11 31
M  V30 32 1 13 32
M  V30 33 1 13 33
M  V30 34 1 15 34
M  V30 35 1 15 35
M  V30 36 1 17 36
M  V30 37 1 17 37
M  V30 38 1 17 38
M  V30 39 1 18 39
M  V30 40 1 18 40
M  V30 41 1 19 41
M  V30 42 1 19 42
M  V30 43 1 19 43
M  V30 END BOND
M  V30 BEGIN COLLECTION
M  V30 MDLV30/STEABS ATOMS=(1 6)
M  V30 END COLLECTION
M  V30 END CTAB
M  END
>  <Structure No>
345

>  <LogS>
-3.721988672

>  <MMFF94 Energy>
11.362

$$$$
Compound 346
Actelion Java MolfileCreator 2.0

  0  0  0  0  0  0              0 V3000
M  V30 BEGIN CTAB
M  V30 COUNTS 20 20 0 0 0
M  V30 BEGIN ATOM
M  V30 1 C 1.6455 1.3319 0.5482 0
M  V30 2 C 2.3244 0.3292 -0.0202 0
M  V30 3 C 0.2375 1.0916 1.0154 0
M  V30 4 C 1.6961 -1.035 -0.1112 0
M  V30 5 C -0.5368 0.3251 -0.0762 0 CFG=1
M  V30 6 C 0.212 -0.9646 -0.5396 0
M  V30 7 C -1.9398 0.0102 0.3898 0
M  V30 8 C -2.872 -0.4351 -0.458 0
M  V30 9 H 2.0767 2.3271 0.5948 0
M  V30 10 H 3.3145 0.5034 -0.4299 0
M  V30 11 H -0.2549 2.0654 1.227 0
M  V30 12 H 0.2645 0.4965 1.9549 0
M  V30 13 H 1.7582 -1.5097 0.8922 0
M  V30 14 H 2.2692 -1.6682 -0.8216 0
M  V30 15 H -0.6187 1.0105 -0.951 0
M  V30 16 H 0.1594 -1.0218 -1.649 0
M  V30 17 H -0.2946 -1.8762 -0.1517 0
M  V30 18 H -2.2141 0.1666 1.4298 0
M  V30 19 H -2.6424 -0.5929 -1.5073 0
M  V30 20 H -3.8753 -0.6442 -0.1015 0
M  V30 END ATOM
M  V30 BEGIN BOND
M  V30 1 2 1 2
M  V30 2 1 1 3
M  V30 3 1 2 4
M  V30 4 1 3 5
M  V30 5 1 4 6
M  V30 6 1 5 7
M  V30 7 2 7 8
M  V30 8 1 5 6
M  V30 9 1 1 9
M  V30 10 1 2 10
M  V30 11 1 3 11
M  V30 12 1 3 12
M  V30 13 1 4 13
M  V30 14 1 4 14
M  V30 15 1 5 15
M  V30 16 1 6 16
M  V30 17 1 6 17
M  V30 18 1 7 18
M  V30 19 1 8 19
M  V30 20 1 8 20
M  V30 END BOND
M  V30 BEGIN COLLECTION
M  V30 MDLV30/STEABS ATOMS=(1 5)
M  V30 END COLLECTION
M  V30 END CTAB
M  END
>  <Structure No>
346

>  <LogS>
-3.335193031

>  <MMFF94 Energy>
20.759

$$$$
Compound 347
Actelion Java MolfileCreator 2.0

  0  0  0  0  0  0              0 V3000
M  V30 BEGIN CTAB
M  V30 COUNTS 77 81 0 0 0
M  V30 BEGIN ATOM
M  V30 1 O 3.9609 -3.3943 3.1516 0
M  V30 2 C 3.9671 -2.5671 2.2008 0
M  V30 3 C 2.7298 -2.2339 1.4487 0
M  V30 4 C 5.2449 -1.852 1.8623 0
M  V30 5 C 2.7386 -1.0297 0.7129 0
M  V30 6 C 1.5557 -3.0298 1.4448 0
M  V30 7 C 4.9464 -0.3581 1.6306 0 CFG=2
M  V30 8 O 3.8853 -0.2264 0.6807 0
M  V30 9 C 1.6054 -0.6133 0.0106 0
M  V30 10 O 1.4765 -4.2816 2.0613 0
M  V30 11 C 0.4135 -2.5707 0.7757 0
M  V30 12 C 6.1304 0.4763 1.1714 0
M  V30 13 C 0.4218 -1.3666 0.0637 0
M  V30 14 C 7.4547 -0.009 1.1475 0
M  V30 15 C 5.8993 1.8134 0.8127 0
M  V30 16 O -0.7695 -0.961 -0.56 0
M  V30 17 C 8.5113 0.8199 0.7477 0
M  V30 18 C 6.9503 2.6383 0.411 0
M  V30 19 C -0.9273 0.1823 -1.4104 0 CFG=2
M  V30 20 O 9.816 0.3297 0.7274 0
M  V30 21 C 8.2657 2.1456 0.3693 0
M  V30 22 O -2.2946 0.5547 -1.4954 0
M  V30 23 C -0.3339 -0.0692 -2.8113 0 CFG=2
M  V30 24 O 9.3492 2.9381 -0.0402 0
M  V30 25 C -3.0893 -0.4792 -2.0569 0 CFG=2
M  V30 26 O -0.3279 1.1426 -3.5259 0
M  V30 27 C -1.171 -1.1297 -3.5545 0 CFG=1
M  V30 28 C 9.237 4.2846 -0.4904 0
M  V30 29 C -2.663 -0.7608 -3.5148 0 CFG=1
M  V30 30 C -4.5593 -0.0474 -1.9961 0
M  V30 31 O -0.7487 -1.24 -4.8898 0
M  V30 32 O -3.4279 -1.8206 -4.0345 0
M  V30 33 O -4.8859 0.2993 -0.6646 0
M  V30 34 C -6.2839 0.5283 -0.5216 0 CFG=2
M  V30 35 O -6.5124 1.6442 0.3219 0
M  V30 36 C -6.9845 -0.7376 0.039 0 CFG=2
M  V30 37 C -5.8388 1.5255 1.5698 0 CFG=2
M  V30 38 O -8.2264 -0.9143 -0.5972 0
M  V30 39 C -7.1696 -0.6656 1.58 0 CFG=1
M  V30 40 C -6.0349 0.1303 2.2492 0 CFG=1
M  V30 41 C -6.3356 2.6471 2.4831 0
M  V30 42 O -8.4252 -0.1377 1.9448 0
M  V30 43 O -4.8468 -0.616 2.1585 0
M  V30 44 H 5.6705 -2.3055 0.9403 0
M  V30 45 H 5.9698 -1.9695 2.6983 0
M  V30 46 H 4.599 0.0705 2.5979 0
M  V30 47 H 1.6586 0.3138 -0.5418 0
M  V30 48 H 2.2744 -4.7969 2.4088 0
M  V30 49 H -0.4885 -3.1686 0.7976 0
M  V30 50 H 7.6841 -1.0241 1.44 0
M  V30 51 H 4.8953 2.2248 0.8431 0
M  V30 52 H 6.7298 3.6615 0.1384 0
M  V30 53 H -0.3998 1.0452 -0.9523 0
M  V30 54 H 10.0324 -0.623 0.9959 0
M  V30 55 H 0.7094 -0.4463 -2.7004 0
M  V30 56 H -3.003 -1.413 -1.4545 0
M  V30 57 H 0.3598 1.0581 -4.2382 0
M  V30 58 H -1.04 -2.1146 -3.0454 0
M  V30 59 H 8.8384 4.9276 0.3242 0
M  V30 60 H 8.573 4.3358 -1.3775 0
M  V30 61 H 10.24 4.6553 -0.786 0
M  V30 62 H -2.8304 0.1648 -4.1191 0
M  V30 63 H -4.7087 0.8338 -2.6606 0
M  V30 64 H -5.1977 -0.8888 -2.3559 0
M  V30 65 H 0.1341 -1.6924 -4.8726 0
M  V30 66 H -3.3953 -1.7416 -5.0241 0
M  V30 67 H -6.7603 0.7858 -1.4985 0
M  V30 68 H -6.3409 -1.6191 -0.1925 0
M  V30 69 H -4.753 1.7174 1.4126 0
M  V30 70 H -8.529 -1.8349 -0.3808 0
M  V30 71 H -7.1349 -1.7053 1.9733 0
M  V30 72 H -6.2939 0.2429 3.3289 0
M  V30 73 H -6.1586 3.6331 2.003 0
M  V30 74 H -7.4219 2.5355 2.6739 0
M  V30 75 H -5.7952 2.6275 3.4522 0
M  V30 76 H -8.5593 0.7133 1.4593 0
M  V30 77 H -4.1994 -0.2 2.7841 0
M  V30 END ATOM
M  V30 BEGIN BOND
M  V30 1 2 1 2
M  V30 2 1 2 3
M  V30 3 1 2 4
M  V30 4 2 3 5
M  V30 5 1 3 6
M  V30 6 1 4 7
M  V30 7 1 5 8
M  V30 8 1 5 9
M  V30 9 1 6 10
M  V30 10 2 6 11
M  V30 11 1 7 12
M  V30 12 2 9 13
M  V30 13 2 12 14
M  V30 14 1 12 15
M  V30 15 1 13 16
M  V30 16 1 14 17
M  V30 17 2 15 18
M  V30 18 1 16 19
M  V30 19 1 17 20
M  V30 20 2 17 21
M  V30 21 1 19 22
M  V30 22 1 19 23
M  V30 23 1 21 24
M  V30 24 1 22 25
M  V30 25 1 23 26
M  V30 26 1 23 27
M  V30 27 1 24 28
M  V30 28 1 25 29
M  V30 29 1 25 30
M  V30 30 1 27 31
M  V30 31 1 29 32
M  V30 32 1 30 33
M  V30 33 1 33 34
M  V30 34 1 34 35
M  V30 35 1 34 36
M  V30 36 1 35 37
M  V30 37 1 36 38
M  V30 38 1 36 39
M  V30 39 1 37 40
M  V30 40 1 37 41
M  V30 41 1 39 42
M  V30 42 1 40 43
M  V30 43 1 7 8
M  V30 44 1 11 13
M  V30 45 1 18 21
M  V30 46 1 27 29
M  V30 47 1 39 40
M  V30 48 1 4 44
M  V30 49 1 4 45
M  V30 50 1 7 46
M  V30 51 1 9 47
M  V30 52 1 10 48
M  V30 53 1 11 49
M  V30 54 1 14 50
M  V30 55 1 15 51
M  V30 56 1 18 52
M  V30 57 1 19 53
M  V30 58 1 20 54
M  V30 59 1 23 55
M  V30 60 1 25 56
M  V30 61 1 26 57
M  V30 62 1 27 58
M  V30 63 1 28 59
M  V30 64 1 28 60
M  V30 65 1 28 61
M  V30 66 1 29 62
M  V30 67 1 30 63
M  V30 68 1 30 64
M  V30 69 1 31 65
M  V30 70 1 32 66
M  V30 71 1 34 67
M  V30 72 1 36 68
M  V30 73 1 37 69
M  V30 74 1 38 70
M  V30 75 1 39 71
M  V30 76 1 40 72
M  V30 77 1 41 73
M  V30 78 1 41 74
M  V30 79 1 41 75
M  V30 80 1 42 76
M  V30 81 1 43 77
M  V30 END BOND
M  V30 BEGIN COLLECTION
M  V30 MDLV30/STEABS ATOMS=(11 7 19 23 25 27 29 34 36 37 39 40)
M  V30 END COLLECTION
M  V30 END CTAB
M  END
>  <Structure No>
347

>  <LogS>
-5.010485646

>  <MMFF94 Energy>
242.35

$$$$
Compound 348
Actelion Java MolfileCreator 2.0

  0  0  0  0  0  0              0 V3000
M  V30 BEGIN CTAB
M  V30 COUNTS 71 70 0 0 0
M  V30 BEGIN ATOM
M  V30 1 O -8.8878 -1.3214 -1.0881 0
M  V30 2 C -8.8732 -1.5093 0.3007 0
M  V30 3 C -8.4473 -0.2112 1.0039 0
M  V30 4 N -7.0242 0.1406 0.7389 0 CHG=1
M  V30 5 C -6.8095 1.5984 0.9617 0
M  V30 6 C -6.112 -0.6595 1.613 0
M  V30 7 C -7.2202 2.4582 -0.2472 0
M  V30 8 C -4.8833 -1.2099 0.8595 0
M  V30 9 O -6.3665 2.219 -1.3352 0
M  V30 10 C -3.9083 -0.1108 0.4173 0
M  V30 11 C -2.6333 -0.7124 -0.1874 0
M  V30 12 C -1.6656 0.3956 -0.6319 0
M  V30 13 C -0.3502 -0.1628 -1.1998 0
M  V30 14 C 0.617 -0.6109 -0.0896 0
M  V30 15 C 1.9256 -1.2057 -0.6356 0
M  V30 16 C 2.6397 -0.3581 -1.6647 0
M  V30 17 C 3.2707 0.8157 -1.4594 0
M  V30 18 C 3.3276 1.599 -0.1714 0
M  V30 19 C 4.2381 0.9937 0.9105 0
M  V30 20 C 5.7306 0.9705 0.5253 0
M  V30 21 C 6.1525 -0.3604 -0.121 0
M  V30 22 C 7.6344 -0.3722 -0.5328 0
M  V30 23 C 8.5829 -0.4916 0.6711 0
M  V30 24 C 10.0448 -0.5795 0.2151 0
M  V30 25 C 10.9872 -0.7126 1.4079 0
M  V30 26 H -9.3488 -2.1115 -1.4696 0
M  V30 27 H -9.8936 -1.7801 0.6546 0
M  V30 28 H -8.184 -2.3431 0.5565 0
M  V30 29 H -9.1365 0.587 0.6526 0
M  V30 30 H -8.6284 -0.3102 2.0992 0
M  V30 31 H -6.8144 -0.0757 -0.2631 0
M  V30 32 H -5.7405 1.8243 1.1669 0
M  V30 33 H -7.3709 1.9429 1.8602 0
M  V30 34 H -6.6303 -1.5463 2.0414 0
M  V30 35 H -5.7771 -0.0795 2.5042 0
M  V30 36 H -8.2873 2.2966 -0.5226 0
M  V30 37 H -7.1239 3.5274 0.0362 0
M  V30 38 H -5.2179 -1.7968 -0.0233 0
M  V30 39 H -4.3502 -1.9087 1.5402 0
M  V30 40 H -6.8485 1.618 -1.962 0
M  V30 41 H -4.3958 0.5343 -0.3432 0
M  V30 42 H -3.6335 0.5118 1.2982 0
M  V30 43 H -2.1466 -1.3633 0.5704 0
M  V30 44 H -2.9044 -1.339 -1.0667 0
M  V30 45 H -2.1601 0.9994 -1.425 0
M  V30 46 H -1.4468 1.0797 0.2174 0
M  V30 47 H 0.1322 0.645 -1.7917 0
M  V30 48 H -0.56 -1.0086 -1.8906 0
M  V30 49 H 0.1321 -1.3964 0.5255 0
M  V30 50 H 0.8284 0.2294 0.5965 0
M  V30 51 H 2.606 -1.4644 0.1996 0
M  V30 52 H 1.6711 -2.1723 -1.124 0
M  V30 53 H 2.678 -0.766 -2.6706 0
M  V30 54 H 3.7436 1.2762 -2.3227 0
M  V30 55 H 3.7057 2.6166 -0.4073 0
M  V30 56 H 2.3107 1.7568 0.2283 0
M  V30 57 H 3.8926 -0.0112 1.2192 0
M  V30 58 H 4.1315 1.6381 1.8118 0
M  V30 59 H 6.3178 1.1143 1.4579 0
M  V30 60 H 5.9698 1.8185 -0.1519 0
M  V30 61 H 5.5458 -0.5329 -1.034 0
M  V30 62 H 5.9512 -1.2012 0.5783 0
M  V30 63 H 7.7992 -1.2455 -1.2034 0
M  V30 64 H 7.8708 0.5463 -1.1137 0
M  V30 65 H 8.4702 0.3966 1.3293 0
M  V30 66 H 8.3241 -1.4033 1.2545 0
M  V30 67 H 10.1804 -1.4626 -0.4473 0
M  V30 68 H 10.3137 0.3363 -0.3555 0
M  V30 69 H 10.7539 -1.6353 1.9816 0
M  V30 70 H 12.0363 -0.7732 1.0493 0
M  V30 71 H 10.8913 0.169 2.0765 0
M  V30 END ATOM
M  V30 BEGIN BOND
M  V30 1 1 1 2
M  V30 2 1 2 3
M  V30 3 1 3 4
M  V30 4 1 4 5
M  V30 5 1 4 6
M  V30 6 1 5 7
M  V30 7 1 6 8
M  V30 8 1 7 9
M  V30 9 1 8 10
M  V30 10 1 10 11
M  V30 11 1 11 12
M  V30 12 1 12 13
M  V30 13 1 13 14
M  V30 14 1 14 15
M  V30 15 1 15 16
M  V30 16 2 16 17
M  V30 17 1 17 18
M  V30 18 1 18 19
M  V30 19 1 19 20
M  V30 20 1 20 21
M  V30 21 1 21 22
M  V30 22 1 22 23
M  V30 23 1 23 24
M  V30 24 1 24 25
M  V30 25 1 1 26
M  V30 26 1 2 27
M  V30 27 1 2 28
M  V30 28 1 3 29
M  V30 29 1 3 30
M  V30 30 1 4 31
M  V30 31 1 5 32
M  V30 32 1 5 33
M  V30 33 1 6 34
M  V30 34 1 6 35
M  V30 35 1 7 36
M  V30 36 1 7 37
M  V30 37 1 8 38
M  V30 38 1 8 39
M  V30 39 1 9 40
M  V30 40 1 10 41
M  V30 41 1 10 42
M  V30 42 1 11 43
M  V30 43 1 11 44
M  V30 44 1 12 45
M  V30 45 1 12 46
M  V30 46 1 13 47
M  V30 47 1 13 48
M  V30 48 1 14 49
M  V30 49 1 14 50
M  V30 50 1 15 51
M  V30 51 1 15 52
M  V30 52 1 16 53
M  V30 53 1 17 54
M  V30 54 1 18 55
M  V30 55 1 18 56
M  V30 56 1 19 57
M  V30 57 1 19 58
M  V30 58 1 20 59
M  V30 59 1 20 60
M  V30 60 1 21 61
M  V30 61 1 21 62
M  V30 62 1 22 63
M  V30 63 1 22 64
M  V30 64 1 23 65
M  V30 65 1 23 66
M  V30 66 1 24 67
M  V30 67 1 24 68
M  V30 68 1 25 69
M  V30 69 1 25 70
M  V30 70 1 25 71
M  V30 END BOND
M  V30 END CTAB
M  END
>  <Structure No>
348

>  <LogS>
-4.78011829

>  <MMFF94 Energy>
51.605

$$$$
Compound 349
Actelion Java MolfileCreator 2.0

  0  0  0  0  0  0              0 V3000
M  V30 BEGIN CTAB
M  V30 COUNTS 57 57 0 0 0
M  V30 BEGIN ATOM
M  V30 1 O -2.2175 -0.3957 0.8707 0
M  V30 2 C -1.2939 0.0493 0.1352 0
M  V30 3 O -1.3295 1.3744 -0.3108 0
M  V30 4 C -0.1354 -0.8057 -0.2118 0
M  V30 5 C -2.3964 2.2635 0.0026 0
M  V30 6 C -0.2385 -2.2127 -0.3795 0
M  V30 7 C 1.1262 -0.1927 -0.3154 0
M  V30 8 C -2.1251 3.625 -0.6332 0
M  V30 9 C -1.5349 -2.9253 -0.4189 0
M  V30 10 C 0.9305 -2.9645 -0.5765 0
M  V30 11 C 2.2864 -0.9509 -0.5374 0
M  V30 12 C -3.2518 4.6158 -0.32 0
M  V30 13 O -2.545 -2.3785 -0.9412 0
M  V30 14 O -1.6168 -4.2339 0.0727 0
M  V30 15 C 2.1766 -2.3435 -0.6545 0
M  V30 16 C 3.6064 -0.2877 -0.6304 0
M  V30 17 C -2.9805 5.9767 -0.9544 0
M  V30 18 C -2.832 -4.9787 0.1229 0
M  V30 19 O 4.6485 -0.9754 -0.8153 0
M  V30 20 O 3.6952 1.106 -0.5204 0
M  V30 21 C -3.725 -4.4675 1.2607 0
M  V30 22 C 4.9291 1.821 -0.5387 0
M  V30 23 C -4.9698 -5.3417 1.4735 0
M  V30 24 C 5.6424 1.6917 0.8128 0
M  V30 25 C -5.9856 -5.2053 0.3399 0
M  V30 26 C 7.0252 2.3603 0.8177 0
M  V30 27 C 6.9445 3.886 0.7776 0
M  V30 28 H -2.4734 2.3743 1.1065 0
M  V30 29 H -3.3506 1.849 -0.3908 0
M  V30 30 H 1.207 0.8805 -0.19 0
M  V30 31 H -2.0351 3.4989 -1.7344 0
M  V30 32 H -1.1615 4.021 -0.2435 0
M  V30 33 H 0.8779 -4.0391 -0.7037 0
M  V30 34 H -3.3435 4.7442 0.7805 0
M  V30 35 H -4.216 4.2231 -0.7104 0
M  V30 36 H 3.0541 -2.9561 -0.8201 0
M  V30 37 H -2.0332 6.4038 -0.5615 0
M  V30 38 H -3.8111 6.6724 -0.7113 0
M  V30 39 H -2.9095 5.8804 -2.0587 0
M  V30 40 H -2.5776 -6.0441 0.3064 0
M  V30 41 H -3.3539 -4.9114 -0.8553 0
M  V30 42 H -3.1317 -4.4712 2.2008 0
M  V30 43 H -4.0322 -3.4179 1.0632 0
M  V30 44 H 5.5742 1.4474 -1.3639 0
M  V30 45 H 4.7009 2.8885 -0.7361 0
M  V30 46 H -5.4607 -5.0286 2.4204 0
M  V30 47 H -4.6753 -6.4077 1.5843 0
M  V30 48 H 5.006 2.1273 1.6139 0
M  V30 49 H 5.781 0.6144 1.046 0
M  V30 50 H -5.58 -5.624 -0.6039 0
M  V30 51 H -6.9064 -5.7687 0.6003 0
M  V30 52 H -6.256 -4.1389 0.1861 0
M  V30 53 H 7.5543 2.0646 1.7494 0
M  V30 54 H 7.6292 1.9961 -0.0414 0
M  V30 55 H 7.9622 4.3122 0.9014 0
M  V30 56 H 6.5414 4.2333 -0.1959 0
M  V30 57 H 6.3016 4.2633 1.6011 0
M  V30 END ATOM
M  V30 BEGIN BOND
M  V30 1 2 1 2
M  V30 2 1 2 3
M  V30 3 1 2 4
M  V30 4 1 3 5
M  V30 5 2 4 6
M  V30 6 1 4 7
M  V30 7 1 5 8
M  V30 8 1 6 9
M  V30 9 1 6 10
M  V30 10 2 7 11
M  V30 11 1 8 12
M  V30 12 2 9 13
M  V30 13 1 9 14
M  V30 14 2 10 15
M  V30 15 1 11 16
M  V30 16 1 12 17
M  V30 17 1 14 18
M  V30 18 2 16 19
M  V30 19 1 16 20
M  V30 20 1 18 21
M  V30 21 1 20 22
M  V30 22 1 21 23
M  V30 23 1 22 24
M  V30 24 1 23 25
M  V30 25 1 24 26
M  V30 26 1 26 27
M  V30 27 1 11 15
M  V30 28 1 5 28
M  V30 29 1 5 29
M  V30 30 1 7 30
M  V30 31 1 8 31
M  V30 32 1 8 32
M  V30 33 1 10 33
M  V30 34 1 12 34
M  V30 35 1 12 35
M  V30 36 1 15 36
M  V30 37 1 17 37
M  V30 38 1 17 38
M  V30 39 1 17 39
M  V30 40 1 18 40
M  V30 41 1 18 41
M  V30 42 1 21 42
M  V30 43 1 21 43
M  V30 44 1 22 44
M  V30 45 1 22 45
M  V30 46 1 23 46
M  V30 47 1 23 47
M  V30 48 1 24 48
M  V30 49 1 24 49
M  V30 50 1 25 50
M  V30 51 1 25 51
M  V30 52 1 25 52
M  V30 53 1 26 53
M  V30 54 1 26 54
M  V30 55 1 27 55
M  V30 56 1 27 56
M  V30 57 1 27 57
M  V30 END BOND
M  V30 END CTAB
M  END
>  <Structure No>
349

>  <LogS>
-4.807173711

>  <MMFF94 Energy>
19.231

$$$$
Compound 350
Actelion Java MolfileCreator 2.0

  0  0  0  0  0  0              0 V3000
M  V30 BEGIN CTAB
M  V30 COUNTS 56 59 0 0 0
M  V30 BEGIN ATOM
M  V30 1 O 4.5482 1.1156 0.1593 0
M  V30 2 C 4.7413 -0.1274 0.2376 0
M  V30 3 N 3.7593 -1.0478 0.3072 0
M  V30 4 N 5.9575 -0.7047 0.2997 0
M  V30 5 C 2.3308 -0.8626 0.28 0
M  V30 6 C 4.4381 -2.2111 0.4255 0
M  V30 7 N 5.7739 -2.0111 0.418 0
M  V30 8 C 7.281 -0.0696 0.2595 0 CFG=1
M  V30 9 C 1.7532 0.1672 -0.4805 0
M  V30 10 C 1.4912 -1.7263 1.0016 0
M  V30 11 C 7.5019 0.6879 -1.0643 0
M  V30 12 C 7.4664 0.8578 1.4647 0
M  V30 13 C 0.3663 0.3375 -0.5081 0
M  V30 14 C 0.1045 -1.5552 0.9764 0
M  V30 15 C 7.4167 -0.2395 -2.2755 0
M  V30 16 C -0.4753 -0.5185 0.2236 0
M  V30 17 N -1.9096 -0.3426 0.193 0
M  V30 18 C -2.568 0.0678 -1.0571 0
M  V30 19 C -2.7193 -0.6565 1.3792 0
M  V30 20 C -4.0574 -0.2898 -1.0536 0
M  V30 21 C -3.9669 0.2304 1.4373 0
M  V30 22 N -4.7104 0.2028 0.168 0
M  V30 23 C -6.1059 0.5788 0.1464 0
M  V30 24 C -7.0192 -0.097 -0.6851 0
M  V30 25 C -6.5787 1.6234 0.9633 0
M  V30 26 C -8.3689 0.2669 -0.7012 0
M  V30 27 C -7.9289 1.9849 0.9439 0
M  V30 28 C -8.8275 1.3074 0.111 0
M  V30 29 O -10.1751 1.6592 0.0837 0
M  V30 30 H 3.978 -3.1876 0.5002 0
M  V30 31 H 8.0595 -0.862 0.3353 0
M  V30 32 H 2.37 0.8287 -1.0733 0
M  V30 33 H 1.9094 -2.5273 1.5971 0
M  V30 34 H 8.5111 1.1546 -1.0538 0
M  V30 35 H 6.7558 1.503 -1.1766 0
M  V30 36 H 7.2745 0.298 2.4048 0
M  V30 37 H 8.5084 1.2415 1.493 0
M  V30 38 H 6.772 1.7224 1.4138 0
M  V30 39 H -0.0465 1.1457 -1.0968 0
M  V30 40 H -0.515 -2.2439 1.5355 0
M  V30 41 H 7.6368 0.3359 -3.1991 0
M  V30 42 H 6.3973 -0.6706 -2.3657 0
M  V30 43 H 8.1571 -1.0623 -2.1852 0
M  V30 44 H -2.4567 1.1659 -1.1858 0
M  V30 45 H -2.0884 -0.4414 -1.9215 0
M  V30 46 H -2.1292 -0.4865 2.3064 0
M  V30 47 H -3.0222 -1.7253 1.3438 0
M  V30 48 H -4.1768 -1.3932 -1.1134 0
M  V30 49 H -4.5259 0.166 -1.9532 0
M  V30 50 H -4.6162 -0.1335 2.2636 0
M  V30 51 H -3.6618 1.2754 1.6601 0
M  V30 52 H -6.6934 -0.917 -1.3113 0
M  V30 53 H -5.9026 2.1701 1.6069 0
M  V30 54 H -9.0603 -0.2633 -1.3437 0
M  V30 55 H -8.275 2.7934 1.5753 0
M  V30 56 H -10.5384 2.4089 0.6605 0
M  V30 END ATOM
M  V30 BEGIN BOND
M  V30 1 2 1 2
M  V30 2 1 2 3
M  V30 3 1 2 4
M  V30 4 1 3 5
M  V30 5 1 3 6
M  V30 6 1 4 7
M  V30 7 1 4 8
M  V30 8 2 5 9
M  V30 9 1 5 10
M  V30 10 1 8 11
M  V30 11 1 8 12
M  V30 12 1 9 13
M  V30 13 2 10 14
M  V30 14 1 11 15
M  V30 15 2 13 16
M  V30 16 1 16 17
M  V30 17 1 17 18
M  V30 18 1 17 19
M  V30 19 1 18 20
M  V30 20 1 19 21
M  V30 21 1 20 22
M  V30 22 1 22 23
M  V30 23 2 23 24
M  V30 24 1 23 25
M  V30 25 1 24 26
M  V30 26 2 25 27
M  V30 27 2 26 28
M  V30 28 1 28 29
M  V30 29 2 6 7
M  V30 30 1 14 16
M  V30 31 1 21 22
M  V30 32 1 27 28
M  V30 33 1 6 30
M  V30 34 1 8 31
M  V30 35 1 9 32
M  V30 36 1 10 33
M  V30 37 1 11 34
M  V30 38 1 11 35
M  V30 39 1 12 36
M  V30 40 1 12 37
M  V30 41 1 12 38
M  V30 42 1 13 39
M  V30 43 1 14 40
M  V30 44 1 15 41
M  V30 45 1 15 42
M  V30 46 1 15 43
M  V30 47 1 18 44
M  V30 48 1 18 45
M  V30 49 1 19 46
M  V30 50 1 19 47
M  V30 51 1 20 48
M  V30 52 1 20 49
M  V30 53 1 21 50
M  V30 54 1 21 51
M  V30 55 1 24 52
M  V30 56 1 25 53
M  V30 57 1 26 54
M  V30 58 1 27 55
M  V30 59 1 29 56
M  V30 END BOND
M  V30 BEGIN COLLECTION
M  V30 MDLV30/STEABS ATOMS=(1 8)
M  V30 END COLLECTION
M  V30 END CTAB
M  END
>  <Structure No>
350

>  <LogS>
-4.828521956

>  <MMFF94 Energy>
121.18

$$$$
Compound 351
Actelion Java MolfileCreator 2.0

  0  0  0  0  0  0              0 V3000
M  V30 BEGIN CTAB
M  V30 COUNTS 36 35 0 0 0
M  V30 BEGIN ATOM
M  V30 1 O -6.0477 0.6963 -0.9285 0
M  V30 2 C -5.4544 0.6873 0.3429 0
M  V30 3 C -3.9281 0.6324 0.2282 0
M  V30 4 C -3.443 -0.7159 -0.3281 0
M  V30 5 C -1.9174 -0.7651 -0.5083 0
M  V30 6 C -1.1634 -0.804 0.8329 0
M  V30 7 C 0.3286 -1.1305 0.6622 0
M  V30 8 C 1.109 0.008 -0.0119 0
M  V30 9 C 2.6108 -0.3006 -0.0466 0
M  V30 10 C 3.3908 0.8373 -0.7218 0
M  V30 11 C 4.8838 0.5138 -0.8855 0
M  V30 12 C 5.6382 0.5139 0.4439 0
M  V30 13 H -6.2557 -0.2468 -1.1576 0
M  V30 14 H -5.7366 1.6264 0.8646 0
M  V30 15 H -5.8302 -0.1612 0.9612 0
M  V30 16 H -3.5812 1.4606 -0.4278 0
M  V30 17 H -3.5036 0.7917 1.2419 0
M  V30 18 H -3.7711 -1.5424 0.3396 0
M  V30 19 H -3.9063 -0.8843 -1.3243 0
M  V30 20 H -1.6718 -1.6815 -1.0882 0
M  V30 21 H -1.591 0.1121 -1.1069 0
M  V30 22 H -1.6128 -1.5898 1.479 0
M  V30 23 H -1.2669 0.1681 1.3605 0
M  V30 24 H 0.757 -1.3112 1.6726 0
M  V30 25 H 0.4445 -2.0683 0.0757 0
M  V30 26 H 0.9422 0.9542 0.5488 0
M  V30 27 H 0.7455 0.143 -1.053 0
M  V30 28 H 2.9745 -0.4353 0.9944 0
M  V30 29 H 2.7773 -1.247 -0.607 0
M  V30 30 H 3.2708 1.7771 -0.1388 0
M  V30 31 H 2.9657 1.0129 -1.7345 0
M  V30 32 H 5.0097 -0.4708 -1.3856 0
M  V30 33 H 5.3395 1.2851 -1.5436 0
M  V30 34 H 5.3069 -0.3292 1.0845 0
M  V30 35 H 6.725 0.3938 0.2508 0
M  V30 36 H 5.4792 1.4729 0.9815 0
M  V30 END ATOM
M  V30 BEGIN BOND
M  V30 1 1 1 2
M  V30 2 1 2 3
M  V30 3 1 3 4
M  V30 4 1 4 5
M  V30 5 1 5 6
M  V30 6 1 6 7
M  V30 7 1 7 8
M  V30 8 1 8 9
M  V30 9 1 9 10
M  V30 10 1 10 11
M  V30 11 1 11 12
M  V30 12 1 1 13
M  V30 13 1 2 14
M  V30 14 1 2 15
M  V30 15 1 3 16
M  V30 16 1 3 17
M  V30 17 1 4 18
M  V30 18 1 4 19
M  V30 19 1 5 20
M  V30 20 1 5 21
M  V30 21 1 6 22
M  V30 22 1 6 23
M  V30 23 1 7 24
M  V30 24 1 7 25
M  V30 25 1 8 26
M  V30 26 1 8 27
M  V30 27 1 9 28
M  V30 28 1 9 29
M  V30 29 1 10 30
M  V30 30 1 10 31
M  V30 31 1 11 32
M  V30 32 1 11 33
M  V30 33 1 12 34
M  V30 34 1 12 35
M  V30 35 1 12 36
M  V30 END BOND
M  V30 END CTAB
M  END
>  <Structure No>
351

>  <LogS>
-4.480440668

>  <MMFF94 Energy>
-3.1283

$$$$
Compound 352
Actelion Java MolfileCreator 2.0

  0  0  0  0  0  0              0 V3000
M  V30 BEGIN CTAB
M  V30 COUNTS 35 36 0 0 0
M  V30 BEGIN ATOM
M  V30 1 O 2.641 -1.9202 0.7197 0
M  V30 2 C 2.7561 -0.6854 0.9458 0
M  V30 3 O 1.6227 0.1111 1.1484 0
M  V30 4 C 4.0988 -0.0919 1.009 0
M  V30 5 C 0.2822 -0.3555 0.9753 0 CFG=2
M  V30 6 C 4.289 1.2076 1.2243 0
M  V30 7 C -0.2197 -0.2375 -0.4997 0 CFG=1
M  V30 8 C -0.7061 0.5618 1.7295 0
M  V30 9 C -1.7559 -0.1581 -0.3315 0
M  V30 10 C 0.1437 1.1879 -1.0019 0
M  V30 11 C 0.2837 -1.3536 -1.4242 0
M  V30 12 C -1.6526 1.0544 0.6073 0 CFG=2
M  V30 13 C -2.5663 0.1276 -1.6345 0
M  V30 14 C -2.4274 -1.406 0.3212 0
M  V30 15 C -0.8417 2.0799 -0.222 0
M  V30 16 H 4.9614 -0.7322 0.871 0
M  V30 17 H 0.2014 -1.3958 1.3598 0
M  V30 18 H 5.2943 1.6064 1.2613 0
M  V30 19 H 3.457 1.8866 1.3633 0
M  V30 20 H -1.269 -6.0E-4 2.5047 0
M  V30 21 H -0.1907 1.4042 2.2416 0
M  V30 22 H 1.1976 1.4694 -0.794 0
M  V30 23 H -0.0055 1.2892 -2.098 0
M  V30 24 H 0.0455 -2.3503 -0.9974 0
M  V30 25 H 1.3823 -1.2736 -1.5554 0
M  V30 26 H -0.1859 -1.2717 -2.4262 0
M  V30 27 H -2.6239 1.446 0.9793 0
M  V30 28 H -2.1882 0.9634 -2.2499 0
M  V30 29 H -3.6187 0.3708 -1.3741 0
M  V30 30 H -2.575 -0.7714 -2.2864 0
M  V30 31 H -1.9727 -1.7456 1.2687 0
M  V30 32 H -2.3927 -2.2672 -0.379 0
M  V30 33 H -3.4938 -1.1851 0.5418 0
M  V30 34 H -1.5027 2.651 -0.9081 0
M  V30 35 H -0.3054 2.8132 0.4195 0
M  V30 END ATOM
M  V30 BEGIN BOND
M  V30 1 2 1 2
M  V30 2 1 2 3
M  V30 3 1 2 4
M  V30 4 1 3 5
M  V30 5 2 4 6
M  V30 6 1 5 7
M  V30 7 1 5 8
M  V30 8 1 7 9
M  V30 9 1 7 10
M  V30 10 1 7 11
M  V30 11 1 8 12
M  V30 12 1 9 13
M  V30 13 1 9 14
M  V30 14 1 10 15
M  V30 15 1 9 12
M  V30 16 1 12 15
M  V30 17 1 4 16
M  V30 18 1 5 17
M  V30 19 1 6 18
M  V30 20 1 6 19
M  V30 21 1 8 20
M  V30 22 1 8 21
M  V30 23 1 10 22
M  V30 24 1 10 23
M  V30 25 1 11 24
M  V30 26 1 11 25
M  V30 27 1 11 26
M  V30 28 1 12 27
M  V30 29 1 13 28
M  V30 30 1 13 29
M  V30 31 1 13 30
M  V30 32 1 14 31
M  V30 33 1 14 32
M  V30 34 1 14 33
M  V30 35 1 15 34
M  V30 36 1 15 35
M  V30 END BOND
M  V30 BEGIN COLLECTION
M  V30 MDLV30/STEABS ATOMS=(3 5 7 12)
M  V30 END COLLECTION
M  V30 END CTAB
M  END
>  <Structure No>
352

>  <LogS>
-4.583092455

>  <MMFF94 Energy>
54.437

$$$$
Compound 353
Actelion Java MolfileCreator 2.0

  0  0  0  0  0  0              0 V3000
M  V30 BEGIN CTAB
M  V30 COUNTS 32 35 0 0 0
M  V30 BEGIN ATOM
M  V30 1 O 0.9745 2.3564 -0.3247 0
M  V30 2 C 1.5707 1.2491 -0.2601 0
M  V30 3 C 3.0173 1.0697 -0.2019 0
M  V30 4 C 0.9408 -0.0784 -0.2882 0 CHG=-1
M  V30 5 C 3.3051 -0.2807 -0.1965 0
M  V30 6 C 4.0301 2.0282 -0.1608 0
M  V30 7 C -0.5069 -0.3828 -0.3435 0
M  V30 8 C 2.0571 -1.0347 -0.2466 0
M  V30 9 C 4.6203 -0.7428 -0.1444 0
M  V30 10 C 5.3629 1.5849 -0.1094 0
M  V30 11 N -1.4119 0.4658 0.2304 0 CHG=1
M  V30 12 C -0.9599 -1.5432 -0.9906 0
M  V30 13 O 1.9603 -2.2898 -0.212 0
M  V30 14 C 5.6565 0.2056 -0.1008 0
M  V30 15 C -2.7541 0.2171 0.1922 0
M  V30 16 C -2.3251 -1.8205 -1.0446 0
M  V30 17 C -3.2385 -0.9429 -0.4535 0
M  V30 18 C -3.663 1.1037 0.7926 0
M  V30 19 C -4.6176 -1.1983 -0.4928 0
M  V30 20 C -5.0355 0.8405 0.7487 0
M  V30 21 C -5.5113 -0.3067 0.1077 0
M  V30 22 H 3.7977 3.0853 -0.1675 0
M  V30 23 H 4.8387 -1.8028 -0.1382 0
M  V30 24 H 6.1685 2.3068 -0.0762 0
M  V30 25 H -1.0705 1.3157 0.7333 0
M  V30 26 H -0.2678 -2.2208 -1.4724 0
M  V30 27 H 6.6863 -0.1248 -0.0606 0
M  V30 28 H -2.6659 -2.7158 -1.551 0
M  V30 29 H -3.3103 1.9972 1.293 0
M  V30 30 H -5.0023 -2.0836 -0.9849 0
M  V30 31 H -5.7318 1.5272 1.2125 0
M  V30 32 H -6.5749 -0.5054 0.0767 0
M  V30 END ATOM
M  V30 BEGIN BOND
M  V30 1 2 1 2
M  V30 2 1 2 3
M  V30 3 1 2 4
M  V30 4 2 3 5
M  V30 5 1 3 6
M  V30 6 1 4 7
M  V30 7 1 4 8
M  V30 8 1 5 9
M  V30 9 2 6 10
M  V30 10 2 7 11
M  V30 11 1 7 12
M  V30 12 2 8 13
M  V30 13 2 9 14
M  V30 14 1 11 15
M  V30 15 2 12 16
M  V30 16 1 15 17
M  V30 17 2 15 18
M  V30 18 2 17 19
M  V30 19 1 18 20
M  V30 20 1 19 21
M  V30 21 1 5 8
M  V30 22 1 10 14
M  V30 23 1 16 17
M  V30 24 2 20 21
M  V30 25 1 6 22
M  V30 26 1 9 23
M  V30 27 1 10 24
M  V30 28 1 11 25
M  V30 29 1 12 26
M  V30 30 1 14 27
M  V30 31 1 16 28
M  V30 32 1 18 29
M  V30 33 1 19 30
M  V30 34 1 20 31
M  V30 35 1 21 32
M  V30 END BOND
M  V30 END CTAB
M  END
>  <Structure No>
353

>  <LogS>
-4.701186127

>  <MMFF94 Energy>
33.841

$$$$
Compound 354
Actelion Java MolfileCreator 2.0

  0  0  0  0  0  0              0 V3000
M  V30 BEGIN CTAB
M  V30 COUNTS 43 42 0 0 0
M  V30 BEGIN ATOM
M  V30 1 O -1.9571 -0.0782 -2.0354 0
M  V30 2 C -1.7782 0.2771 -0.8383 0
M  V30 3 O -2.8538 0.7072 -0.0668 0
M  V30 4 O -0.5107 0.212 -0.2569 0
M  V30 5 O -4.0796 0.8555 -0.602 0
M  V30 6 C 0.6219 -0.3398 -0.9188 0
M  V30 7 C -5.0204 0.8777 0.4499 0
M  V30 8 C 1.8589 -0.2918 0.0046 0 CFG=2
M  V30 9 C -5.0589 -0.4927 1.161 0
M  V30 10 C -4.7069 1.9982 1.4654 0
M  V30 11 C -6.3975 1.1549 -0.1741 0
M  V30 12 C 3.1014 -0.8847 -0.7067 0
M  V30 13 C 1.5786 -1.0525 1.3325 0
M  V30 14 C 3.6383 0.025 -1.8303 0
M  V30 15 C 2.5267 -0.6416 2.4627 0
M  V30 16 C 4.975 -0.4836 -2.4024 0
M  V30 17 C 6.1672 -0.0984 -1.5278 0
M  V30 18 H 0.4061 -1.392 -1.2117 0
M  V30 19 H 0.8091 0.2554 -1.8361 0
M  V30 20 H 2.0534 0.7801 0.2448 0
M  V30 21 H -5.3131 -1.2984 0.4366 0
M  V30 22 H -4.0734 -0.7344 1.6134 0
M  V30 23 H -5.814 -0.4918 1.9782 0
M  V30 24 H -3.7544 1.7992 2.0026 0
M  V30 25 H -5.5106 2.0744 2.2304 0
M  V30 26 H -4.6239 2.9764 0.9449 0
M  V30 27 H -7.1963 1.1327 0.6012 0
M  V30 28 H -6.4092 2.1564 -0.6652 0
M  V30 29 H -6.6282 0.3894 -0.9456 0
M  V30 30 H 3.9093 -1.0386 0.0354 0
M  V30 31 H 2.8545 -1.8847 -1.1278 0
M  V30 32 H 0.5489 -0.8435 1.6905 0
M  V30 33 H 1.6499 -2.151 1.1718 0
M  V30 34 H 3.7559 1.0706 -1.4593 0
M  V30 35 H 2.9064 0.0462 -2.6648 0
M  V30 36 H 3.5626 -0.983 2.2622 0
M  V30 37 H 2.1895 -1.1036 3.417 0
M  V30 38 H 2.524 0.4642 2.5874 0
M  V30 39 H 4.9473 -1.5866 -2.5304 0
M  V30 40 H 5.1277 -0.0346 -3.4125 0
M  V30 41 H 6.2339 1.011 -1.431 0
M  V30 42 H 6.086 -0.5554 -0.5158 0
M  V30 43 H 7.1018 -0.4683 -2.0022 0
M  V30 END ATOM
M  V30 BEGIN BOND
M  V30 1 2 1 2
M  V30 2 1 2 3
M  V30 3 1 2 4
M  V30 4 1 3 5
M  V30 5 1 4 6
M  V30 6 1 5 7
M  V30 7 1 6 8
M  V30 8 1 7 9
M  V30 9 1 7 10
M  V30 10 1 7 11
M  V30 11 1 8 12
M  V30 12 1 8 13
M  V30 13 1 12 14
M  V30 14 1 13 15
M  V30 15 1 14 16
M  V30 16 1 16 17
M  V30 17 1 6 18
M  V30 18 1 6 19
M  V30 19 1 8 20
M  V30 20 1 9 21
M  V30 21 1 9 22
M  V30 22 1 9 23
M  V30 23 1 10 24
M  V30 24 1 10 25
M  V30 25 1 10 26
M  V30 26 1 11 27
M  V30 27 1 11 28
M  V30 28 1 11 29
M  V30 29 1 12 30
M  V30 30 1 12 31
M  V30 31 1 13 32
M  V30 32 1 13 33
M  V30 33 1 14 34
M  V30 34 1 14 35
M  V30 35 1 15 36
M  V30 36 1 15 37
M  V30 37 1 15 38
M  V30 38 1 16 39
M  V30 39 1 16 40
M  V30 40 1 17 41
M  V30 41 1 17 42
M  V30 42 1 17 43
M  V30 END BOND
M  V30 BEGIN COLLECTION
M  V30 MDLV30/STEABS ATOMS=(1 8)
M  V30 END COLLECTION
M  V30 END CTAB
M  END
>  <Structure No>
354

>  <LogS>
-4.659958513

>  <MMFF94 Energy>
22.467

$$$$
Compound 355
Actelion Java MolfileCreator 2.0

  0  0  0  0  0  0              0 V3000
M  V30 BEGIN CTAB
M  V30 COUNTS 37 37 0 0 0
M  V30 BEGIN ATOM
M  V30 1 O 2.0528 -0.868 2.0528 0
M  V30 2 C 2.5434 -0.5734 0.9273 0
M  V30 3 O 1.7042 -0.3725 -0.1759 0
M  V30 4 C 4.0077 -0.4434 0.7584 0
M  V30 5 C 0.2785 -0.4195 -0.1056 0 CFG=1
M  V30 6 C 4.8343 -0.555 1.8053 0
M  V30 7 C 4.561 -0.1075 -0.5988 0
M  V30 8 C -0.253 0.8713 0.5446 0
M  V30 9 C -0.2717 -0.5638 -1.5299 0
M  V30 10 C -1.8028 0.9455 0.5881 0
M  V30 11 C -1.8108 -0.5562 -1.5779 0 CFG=2
M  V30 12 C -2.4085 0.6535 -0.8179 0
M  V30 13 C -2.3704 -0.013 1.6614 0
M  V30 14 C -2.2082 2.3799 0.9988 0
M  V30 15 C -2.419 -1.9094 -1.1717 0
M  V30 16 H -0.0173 -1.3077 0.4906 0
M  V30 17 H 4.4622 -0.7704 2.7991 0
M  V30 18 H 5.9035 -0.4298 1.6874 0
M  V30 19 H 4.404 0.9721 -0.8041 0
M  V30 20 H 5.6474 -0.332 -0.6669 0
M  V30 21 H 4.0438 -0.7032 -1.3802 0
M  V30 22 H 0.1519 0.9602 1.5762 0
M  V30 23 H 0.1452 1.736 -0.0329 0
M  V30 24 H 0.1096 0.2779 -2.15 0
M  V30 25 H 0.1151 -1.5031 -1.9826 0
M  V30 26 H -2.0939 -0.419 -2.6464 0
M  V30 27 H -3.5137 0.5494 -0.7464 0
M  V30 28 H -2.2333 1.5437 -1.4638 0
M  V30 29 H -3.4815 -0.0138 1.6379 0
M  V30 30 H -2.0214 -1.0508 1.5335 0
M  V30 31 H -2.0489 0.3059 2.6766 0
M  V30 32 H -1.7924 2.6381 1.9972 0
M  V30 33 H -3.3149 2.4761 1.0458 0
M  V30 34 H -1.8278 3.1273 0.269 0
M  V30 35 H -2.2234 -2.6557 -1.9711 0
M  V30 36 H -1.9784 -2.3114 -0.2415 0
M  V30 37 H -3.5195 -1.8254 -1.0488 0
M  V30 END ATOM
M  V30 BEGIN BOND
M  V30 1 2 1 2
M  V30 2 1 2 3
M  V30 3 1 2 4
M  V30 4 1 3 5
M  V30 5 2 4 6
M  V30 6 1 4 7
M  V30 7 1 5 8
M  V30 8 1 5 9
M  V30 9 1 8 10
M  V30 10 1 9 11
M  V30 11 1 10 12
M  V30 12 1 10 13
M  V30 13 1 10 14
M  V30 14 1 11 15
M  V30 15 1 11 12
M  V30 16 1 5 16
M  V30 17 1 6 17
M  V30 18 1 6 18
M  V30 19 1 7 19
M  V30 20 1 7 20
M  V30 21 1 7 21
M  V30 22 1 8 22
M  V30 23 1 8 23
M  V30 24 1 9 24
M  V30 25 1 9 25
M  V30 26 1 11 26
M  V30 27 1 12 27
M  V30 28 1 12 28
M  V30 29 1 13 29
M  V30 30 1 13 30
M  V30 31 1 13 31
M  V30 32 1 14 32
M  V30 33 1 14 33
M  V30 34 1 14 34
M  V30 35 1 15 35
M  V30 36 1 15 36
M  V30 37 1 15 37
M  V30 END BOND
M  V30 BEGIN COLLECTION
M  V30 MDLV30/STEABS ATOMS=(2 5 11)
M  V30 END COLLECTION
M  V30 END CTAB
M  END
>  <Structure No>
355

>  <LogS>
-4.598598509

>  <MMFF94 Energy>
24.434

$$$$
Compound 356
Actelion Java MolfileCreator 2.0

  0  0  0  0  0  0              0 V3000
M  V30 BEGIN CTAB
M  V30 COUNTS 13 12 0 0 0
M  V30 BEGIN ATOM
M  V30 1 O 2.0613 1.0684 0.9157 0
M  V30 2 C 1.6666 0.4277 -0.0453 0
M  V30 3 C 0.749 -0.7438 0.1465 0
M  V30 4 C -0.6154 -0.5032 -0.51 0
M  V30 5 C -1.4189 0.5824 0.2054 0
M  V30 6 H 1.9752 0.7158 -1.0449 0
M  V30 7 H 0.6166 -0.9618 1.2293 0
M  V30 8 H 1.2207 -1.6341 -0.321 0
M  V30 9 H -1.1967 -1.45 -0.4791 0
M  V30 10 H -0.4803 -0.2234 -1.5778 0
M  V30 11 H -0.8945 1.5595 0.1453 0
M  V30 12 H -1.5702 0.3116 1.2719 0
M  V30 13 H -2.4129 0.6868 -0.2781 0
M  V30 END ATOM
M  V30 BEGIN BOND
M  V30 1 2 1 2
M  V30 2 1 2 3
M  V30 3 1 3 4
M  V30 4 1 4 5
M  V30 5 1 2 6
M  V30 6 1 3 7
M  V30 7 1 3 8
M  V30 8 1 4 9
M  V30 9 1 4 10
M  V30 10 1 5 11
M  V30 11 1 5 12
M  V30 12 1 5 13
M  V30 END BOND
M  V30 END CTAB
M  END
>  <Structure No>
356

>  <LogS>
-4.50210133

>  <MMFF94 Energy>
-1.7011

$$$$
Compound 357
Actelion Java MolfileCreator 2.0

  0  0  0  0  0  0              0 V3000
M  V30 BEGIN CTAB
M  V30 COUNTS 37 36 0 0 0
M  V30 BEGIN ATOM
M  V30 1 O -3.8397 2.9767 0.7826 0
M  V30 2 C -4.4754 1.8973 0.9098 0
M  V30 3 O -5.3944 1.7571 1.942 0 CHG=-1
M  V30 4 C -4.2049 0.7512 -0.0126 0
M  V30 5 C -3.0902 -0.1367 0.5478 0
M  V30 6 C -2.7929 -1.3088 -0.3989 0
M  V30 7 C -1.8095 -2.3306 0.2003 0
M  V30 8 C -0.4149 -1.7694 0.5325 0
M  V30 9 C 0.3157 -1.2163 -0.7036 0
M  V30 10 C 1.8011 -0.9263 -0.4344 0
M  V30 11 C 2.0076 0.3148 0.4507 0
M  V30 12 C 3.4883 0.5723 0.7847 0
M  V30 13 C 4.3802 0.9022 -0.4257 0
M  V30 14 C 3.9496 2.1721 -1.1586 0
M  V30 15 H -3.9105 1.1428 -1.011 0
M  V30 16 H -5.1367 0.1573 -0.1335 0
M  V30 17 H -3.3985 -0.5311 1.5414 0
M  V30 18 H -2.1745 0.4797 0.676 0
M  V30 19 H -3.7426 -1.8452 -0.6162 0
M  V30 20 H -2.4071 -0.9264 -1.3676 0
M  V30 21 H -2.2516 -2.7527 1.1292 0
M  V30 22 H -1.6964 -3.1739 -0.5152 0
M  V30 23 H 0.185 -2.5983 0.9672 0
M  V30 24 H -0.5043 -0.9876 1.314 0
M  V30 25 H -0.1793 -0.2867 -1.0578 0
M  V30 26 H 0.2553 -1.9666 -1.522 0
M  V30 27 H 2.2871 -0.7549 -1.4177 0
M  V30 28 H 2.282 -1.8137 0.0317 0
M  V30 29 H 1.5604 1.2084 -0.0334 0
M  V30 30 H 1.4773 0.1684 1.4148 0
M  V30 31 H 3.9032 -0.3228 1.2972 0
M  V30 32 H 3.5452 1.4139 1.5092 0
M  V30 33 H 4.4102 0.0502 -1.1361 0
M  V30 34 H 5.4181 1.0508 -0.0566 0
M  V30 35 H 4.7211 2.4443 -1.9094 0
M  V30 36 H 2.9919 2.0088 -1.6949 0
M  V30 37 H 3.8379 3.0155 -0.4443 0
M  V30 END ATOM
M  V30 BEGIN BOND
M  V30 1 2 1 2
M  V30 2 1 2 3
M  V30 3 1 2 4
M  V30 4 1 4 5
M  V30 5 1 5 6
M  V30 6 1 6 7
M  V30 7 1 7 8
M  V30 8 1 8 9
M  V30 9 1 9 10
M  V30 10 1 10 11
M  V30 11 1 11 12
M  V30 12 1 12 13
M  V30 13 1 13 14
M  V30 14 1 4 15
M  V30 15 1 4 16
M  V30 16 1 5 17
M  V30 17 1 5 18
M  V30 18 1 6 19
M  V30 19 1 6 20
M  V30 20 1 7 21
M  V30 21 1 7 22
M  V30 22 1 8 23
M  V30 23 1 8 24
M  V30 24 1 9 25
M  V30 25 1 9 26
M  V30 26 1 10 27
M  V30 27 1 10 28
M  V30 28 1 11 29
M  V30 29 1 11 30
M  V30 30 1 12 31
M  V30 31 1 12 32
M  V30 32 1 13 33
M  V30 33 1 13 34
M  V30 34 1 14 35
M  V30 35 1 14 36
M  V30 36 1 14 37
M  V30 END BOND
M  V30 END CTAB
M  END
>  <Structure No>
357

>  <LogS>
-4.950531484

>  <MMFF94 Energy>
1.6775

$$$$
Compound 358
Actelion Java MolfileCreator 2.0

  0  0  0  0  0  0              0 V3000
M  V30 BEGIN CTAB
M  V30 COUNTS 55 54 0 0 0
M  V30 BEGIN ATOM
M  V30 1 O -7.6954 2.8999 0.7831 0
M  V30 2 C -7.138 2.0877 -8.0E-4 0
M  V30 3 O -7.5408 2.0258 -1.329 0 CHG=-1
M  V30 4 C -6.0802 1.1585 0.5048 0
M  V30 5 C -6.7112 -0.1323 1.041 0
M  V30 6 C -5.6736 -1.0864 1.6754 0
M  V30 7 C -5.3546 -2.3168 0.8067 0
M  V30 8 C -4.4567 -2.0226 -0.408 0
M  V30 9 C -2.978 -1.7682 -0.036 0
M  V30 10 C -2.5777 -0.2919 -0.1933 0
M  V30 11 C -1.124 -0.0214 0.2264 0
M  V30 12 C -0.1014 -0.6027 -0.7614 0
M  V30 13 C 1.323 -0.165 -0.3989 0
M  V30 14 C 2.3468 -0.7573 -1.3787 0
M  V30 15 C 3.797 -0.4357 -0.9843 0
M  V30 16 C 4.1435 1.0525 -1.1679 0
M  V30 17 C 5.6501 1.3266 -1.0382 0
M  V30 18 C 6.1668 1.1141 0.3955 0
M  V30 19 C 7.606 1.618 0.5828 0
M  V30 20 C 8.6319 0.7617 -0.1588 0
M  V30 21 H -5.3859 0.9313 -0.3279 0
M  V30 22 H -5.505 1.6642 1.311 0
M  V30 23 H -7.4541 0.1438 1.8225 0
M  V30 24 H -7.2733 -0.6386 0.2255 0
M  V30 25 H -6.1052 -1.4682 2.6268 0
M  V30 26 H -4.7423 -0.5556 1.9626 0
M  V30 27 H -4.865 -3.0882 1.4408 0
M  V30 28 H -6.3062 -2.7692 0.4515 0
M  V30 29 H -4.8796 -1.1977 -1.0171 0
M  V30 30 H -4.4925 -2.9227 -1.0604 0
M  V30 31 H -2.3457 -2.3816 -0.7125 0
M  V30 32 H -2.7649 -2.1044 1.0023 0
M  V30 33 H -2.7317 0.033 -1.2457 0
M  V30 34 H -3.23 0.3318 0.4498 0
M  V30 35 H -0.9429 -0.4318 1.2441 0
M  V30 36 H -0.9849 1.0807 0.2794 0
M  V30 37 H -0.1515 -1.712 -0.7403 0
M  V30 38 H -0.3395 -0.2549 -1.7906 0
M  V30 39 H 1.5594 -0.504 0.6336 0
M  V30 40 H 1.3764 0.9441 -0.4295 0
M  V30 41 H 2.1451 -0.3867 -2.4077 0
M  V30 42 H 2.2329 -1.8635 -1.3917 0
M  V30 43 H 4.4688 -1.0463 -1.6265 0
M  V30 44 H 3.9672 -0.7414 0.0704 0
M  V30 45 H 3.8229 1.378 -2.1818 0
M  V30 46 H 3.5938 1.6691 -0.4249 0
M  V30 47 H 5.8327 2.3823 -1.3364 0
M  V30 48 H 6.2044 0.6745 -1.7467 0
M  V30 49 H 5.514 1.6717 1.1024 0
M  V30 50 H 6.1171 0.0375 0.6657 0
M  V30 51 H 7.8489 1.5919 1.6671 0
M  V30 52 H 7.6892 2.6743 0.2461 0
M  V30 53 H 8.5307 -0.3054 0.1321 0
M  V30 54 H 9.6554 1.1035 0.1025 0
M  V30 55 H 8.5049 0.8596 -1.2568 0
M  V30 END ATOM
M  V30 BEGIN BOND
M  V30 1 2 1 2
M  V30 2 1 2 3
M  V30 3 1 2 4
M  V30 4 1 4 5
M  V30 5 1 5 6
M  V30 6 1 6 7
M  V30 7 1 7 8
M  V30 8 1 8 9
M  V30 9 1 9 10
M  V30 10 1 10 11
M  V30 11 1 11 12
M  V30 12 1 12 13
M  V30 13 1 13 14
M  V30 14 1 14 15
M  V30 15 1 15 16
M  V30 16 1 16 17
M  V30 17 1 17 18
M  V30 18 1 18 19
M  V30 19 1 19 20
M  V30 20 1 4 21
M  V30 21 1 4 22
M  V30 22 1 5 23
M  V30 23 1 5 24
M  V30 24 1 6 25
M  V30 25 1 6 26
M  V30 26 1 7 27
M  V30 27 1 7 28
M  V30 28 1 8 29
M  V30 29 1 8 30
M  V30 30 1 9 31
M  V30 31 1 9 32
M  V30 32 1 10 33
M  V30 33 1 10 34
M  V30 34 1 11 35
M  V30 35 1 11 36
M  V30 36 1 12 37
M  V30 37 1 12 38
M  V30 38 1 13 39
M  V30 39 1 13 40
M  V30 40 1 14 41
M  V30 41 1 14 42
M  V30 42 1 15 43
M  V30 43 1 15 44
M  V30 44 1 16 45
M  V30 45 1 16 46
M  V30 46 1 17 47
M  V30 47 1 17 48
M  V30 48 1 18 49
M  V30 49 1 18 50
M  V30 50 1 19 51
M  V30 51 1 19 52
M  V30 52 1 20 53
M  V30 53 1 20 54
M  V30 54 1 20 55
M  V30 END BOND
M  V30 END CTAB
M  END
>  <Structure No>
358

>  <LogS>
-4.960419449

>  <MMFF94 Energy>
0.47199

$$$$
Compound 359
Actelion Java MolfileCreator 2.0

  0  0  0  0  0  0              0 V3000
M  V30 BEGIN CTAB
M  V30 COUNTS 32 32 0 0 0
M  V30 BEGIN ATOM
M  V30 1 O -0.6298 -1.3387 1.8115 0
M  V30 2 C -0.9856 -0.9067 0.6812 0
M  V30 3 O -0.1141 -0.9942 -0.4087 0
M  V30 4 C -2.295 -0.2414 0.5095 0
M  V30 5 C 1.1886 -1.5621 -0.3111 0
M  V30 6 C -3.4492 -0.6119 1.2478 0
M  V30 7 C -2.3852 0.8239 -0.4049 0
M  V30 8 C 1.8975 -1.4789 -1.6635 0
M  V30 9 O -3.4743 -1.7145 2.1045 0
M  V30 10 C -4.6315 0.1246 1.0995 0
M  V30 11 C -3.5779 1.5346 -0.5557 0
M  V30 12 C 1.9702 -0.0626 -2.1803 0
M  V30 13 C -4.6966 1.1918 0.2024 0
M  V30 14 C 2.8115 0.8872 -1.7295 0
M  V30 15 C 3.8158 0.7077 -0.6187 0
M  V30 16 C 3.4362 1.5655 0.5833 0
M  V30 17 H 1.7728 -1.0291 0.4667 0
M  V30 18 H 1.1049 -2.6295 -0.0129 0
M  V30 19 H -1.5223 1.1259 -0.9863 0
M  V30 20 H 1.3215 -2.0876 -2.3934 0
M  V30 21 H 2.9116 -1.9267 -1.601 0
M  V30 22 H -2.7345 -2.4012 2.1523 0
M  V30 23 H -5.5121 -0.1474 1.6677 0
M  V30 24 H -3.6312 2.3595 -1.2544 0
M  V30 25 H 1.3065 0.1993 -2.9996 0
M  V30 26 H -5.6184 1.7475 0.0885 0
M  V30 27 H 2.7579 1.8693 -2.1913 0
M  V30 28 H 3.9165 -0.3477 -0.2975 0
M  V30 29 H 4.8106 1.0325 -0.9906 0
M  V30 30 H 2.4333 1.2786 0.9648 0
M  V30 31 H 3.4239 2.6402 0.3015 0
M  V30 32 H 4.1807 1.4202 1.3943 0
M  V30 END ATOM
M  V30 BEGIN BOND
M  V30 1 2 1 2
M  V30 2 1 2 3
M  V30 3 1 2 4
M  V30 4 1 3 5
M  V30 5 2 4 6
M  V30 6 1 4 7
M  V30 7 1 5 8
M  V30 8 1 6 9
M  V30 9 1 6 10
M  V30 10 2 7 11
M  V30 11 1 8 12
M  V30 12 2 10 13
M  V30 13 2 12 14
M  V30 14 1 14 15
M  V30 15 1 15 16
M  V30 16 1 11 13
M  V30 17 1 5 17
M  V30 18 1 5 18
M  V30 19 1 7 19
M  V30 20 1 8 20
M  V30 21 1 8 21
M  V30 22 1 9 22
M  V30 23 1 10 23
M  V30 24 1 11 24
M  V30 25 1 12 25
M  V30 26 1 13 26
M  V30 27 1 14 27
M  V30 28 1 15 28
M  V30 29 1 15 29
M  V30 30 1 16 30
M  V30 31 1 16 31
M  V30 32 1 16 32
M  V30 END BOND
M  V30 END CTAB
M  END
>  <Structure No>
359

>  <LogS>
-4.643981404

>  <MMFF94 Energy>
41.281

$$$$
Compound 360
Actelion Java MolfileCreator 2.0

  0  0  0  0  0  0              0 V3000
M  V30 BEGIN CTAB
M  V30 COUNTS 29 29 0 0 0
M  V30 BEGIN ATOM
M  V30 1 O -0.4736 -0.4736 2.37 0
M  V30 2 C 0.0938 -0.4418 1.2882 0
M  V30 3 C -0.664 -0.1526 9.0E-4 0 CFG=1
M  V30 4 C 1.5869 -0.6311 1.2445 0
M  V30 5 C -2.1979 0.0678 0.2208 0
M  V30 6 C 0.0261 1.0411 -0.7115 0
M  V30 7 C 2.1473 -0.334 -0.1591 0 CFG=1
M  V30 8 C -2.9006 0.6226 -1.032 0
M  V30 9 C -2.8935 -1.2463 0.625 0
M  V30 10 C 1.577 0.9978 -0.6898 0
M  V30 11 C 3.6792 -0.2993 -0.1337 0
M  V30 12 H -0.5467 -1.0406 -0.6596 0
M  V30 13 H 1.8322 -1.6749 1.5364 0
M  V30 14 H 2.0493 0.059 1.9844 0
M  V30 15 H -2.3447 0.8079 1.0388 0
M  V30 16 H -0.3063 1.9922 -0.2393 0
M  V30 17 H -0.3023 1.0648 -1.7733 0
M  V30 18 H 1.843 -1.1523 -0.8496 0
M  V30 19 H -2.5671 1.6595 -1.2448 0
M  V30 20 H -2.6912 -0.0194 -1.9144 0
M  V30 21 H -4.0 0.6647 -0.8754 0
M  V30 22 H -2.4612 -1.672 1.5517 0
M  V30 23 H -3.9728 -1.0656 0.8181 0
M  V30 24 H -2.8002 -2.0014 -0.1848 0
M  V30 25 H 1.9616 1.1787 -1.7177 0
M  V30 26 H 1.9493 1.8301 -0.0514 0
M  V30 27 H 4.0444 0.5122 0.5318 0
M  V30 28 H 4.0763 -1.2698 0.2331 0
M  V30 29 H 4.0739 -0.1273 -1.1576 0
M  V30 END ATOM
M  V30 BEGIN BOND
M  V30 1 2 1 2
M  V30 2 1 2 3
M  V30 3 1 2 4
M  V30 4 1 3 5
M  V30 5 1 3 6
M  V30 6 1 4 7
M  V30 7 1 5 8
M  V30 8 1 5 9
M  V30 9 1 6 10
M  V30 10 1 7 11
M  V30 11 1 7 10
M  V30 12 1 3 12
M  V30 13 1 4 13
M  V30 14 1 4 14
M  V30 15 1 5 15
M  V30 16 1 6 16
M  V30 17 1 6 17
M  V30 18 1 7 18
M  V30 19 1 8 19
M  V30 20 1 8 20
M  V30 21 1 8 21
M  V30 22 1 9 22
M  V30 23 1 9 23
M  V30 24 1 9 24
M  V30 25 1 10 25
M  V30 26 1 10 26
M  V30 27 1 11 27
M  V30 28 1 11 28
M  V30 29 1 11 29
M  V30 END BOND
M  V30 BEGIN COLLECTION
M  V30 MDLV30/STEABS ATOMS=(2 3 7)
M  V30 END COLLECTION
M  V30 END CTAB
M  END
>  <Structure No>
360

>  <LogS>
-2.491877231

>  <MMFF94 Energy>
18.028

$$$$
Compound 361
Actelion Java MolfileCreator 2.0

  0  0  0  0  0  0              0 V3000
M  V30 BEGIN CTAB
M  V30 COUNTS 22 22 0 0 0
M  V30 BEGIN ATOM
M  V30 1 O 0.4086 2.4539 -1.7172 0
M  V30 2 N -0.4559 2.2826 -0.8331 0 CHG=1
M  V30 3 O -1.3204 3.3127 -0.5415 0 CHG=-1
M  V30 4 C -0.7127 0.9651 -0.3204 0
M  V30 5 C 0.3402 0.0791 0.0264 0
M  V30 6 C -2.0446 0.5298 -0.2123 0
M  V30 7 C 1.76 0.5002 0.0586 0
M  V30 8 C 0.0265 -1.2343 0.4126 0
M  V30 9 C -2.3492 -0.7785 0.1943 0
M  V30 10 O 2.0642 1.7006 0.3012 0
M  V30 11 O 2.7669 -0.4519 -0.1327 0
M  V30 12 C -1.3 -1.6587 0.4954 0
M  V30 13 C -3.7577 -1.2232 0.2913 0
M  V30 14 C 4.1506 -0.1242 -0.0952 0
M  V30 15 O -4.0351 -2.3993 0.6482 0
M  V30 16 O -4.7956 -0.3485 -0.0091 0 CHG=-1
M  V30 17 H -2.8445 1.2102 -0.4772 0
M  V30 18 H 0.8106 -1.9314 0.682 0
M  V30 19 H -1.5033 -2.6754 0.808 0
M  V30 20 H 4.3862 0.6207 -0.8845 0
M  V30 21 H 4.7474 -1.0413 -0.2764 0
M  V30 22 H 4.4168 0.2875 0.9013 0
M  V30 END ATOM
M  V30 BEGIN BOND
M  V30 1 2 1 2
M  V30 2 1 2 3
M  V30 3 1 2 4
M  V30 4 2 4 5
M  V30 5 1 4 6
M  V30 6 1 5 7
M  V30 7 1 5 8
M  V30 8 2 6 9
M  V30 9 2 7 10
M  V30 10 1 7 11
M  V30 11 2 8 12
M  V30 12 1 9 13
M  V30 13 1 11 14
M  V30 14 2 13 15
M  V30 15 1 13 16
M  V30 16 1 9 12
M  V30 17 1 6 17
M  V30 18 1 8 18
M  V30 19 1 12 19
M  V30 20 1 14 20
M  V30 21 1 14 21
M  V30 22 1 14 22
M  V30 END BOND
M  V30 END CTAB
M  END
>  <Structure No>
361

>  <LogS>
-2.657001848

>  <MMFF94 Energy>
36.639

$$$$
Compound 362
Actelion Java MolfileCreator 2.0

  0  0  0  0  0  0              0 V3000
M  V30 BEGIN CTAB
M  V30 COUNTS 21 21 0 0 0
M  V30 BEGIN ATOM
M  V30 1 C 1.0906 -0.7789 0.2336 0
M  V30 2 C 1.2324 0.6161 0.1879 0
M  V30 3 C -0.1769 -1.3516 0.0515 0
M  V30 4 C 2.298 -1.6548 0.394 0
M  V30 5 C 0.1114 1.4387 6.0E-4 0
M  V30 6 C -1.3043 -0.5379 -0.1363 0
M  V30 7 C -1.1516 0.856 -0.1804 0
M  V30 8 C 0.2748 2.9275 -0.0875 0
M  V30 9 C -2.6506 -1.1568 -0.3706 0
M  V30 10 H 2.2149 1.061 0.2944 0
M  V30 11 H -0.2855 -2.4299 0.0524 0
M  V30 12 H 3.0733 -1.1455 1.0053 0
M  V30 13 H 2.0285 -2.6042 0.9042 0
M  V30 14 H 2.7202 -1.8879 -0.6057 0
M  V30 15 H -2.0149 1.4866 -0.3591 0
M  V30 16 H -0.6418 3.4444 0.2686 0
M  V30 17 H 1.1253 3.2666 0.5416 0
M  V30 18 H 0.4667 3.2159 -1.142 0
M  V30 19 H -2.7917 -1.3333 -1.4573 0
M  V30 20 H -3.4587 -0.4884 -0.0039 0
M  V30 21 H -2.7363 -2.1247 0.168 0
M  V30 END ATOM
M  V30 BEGIN BOND
M  V30 1 2 1 2
M  V30 2 1 1 3
M  V30 3 1 1 4
M  V30 4 1 2 5
M  V30 5 2 3 6
M  V30 6 2 5 7
M  V30 7 1 5 8
M  V30 8 1 6 9
M  V30 9 1 6 7
M  V30 10 1 2 10
M  V30 11 1 3 11
M  V30 12 1 4 12
M  V30 13 1 4 13
M  V30 14 1 4 14
M  V30 15 1 7 15
M  V30 16 1 8 16
M  V30 17 1 8 17
M  V30 18 1 8 18
M  V30 19 1 9 19
M  V30 20 1 9 20
M  V30 21 1 9 21
M  V30 END BOND
M  V30 END CTAB
M  END
>  <Structure No>
362

>  <LogS>
-3.382657059

>  <MMFF94 Energy>
22.824

$$$$
Compound 363
Actelion Java MolfileCreator 2.0

  0  0  0  0  0  0              0 V3000
M  V30 BEGIN CTAB
M  V30 COUNTS 34 33 0 0 0
M  V30 BEGIN ATOM
M  V30 1 O -4.2837 0.1555 -0.1555 0
M  V30 2 C -3.5863 0.4525 0.8507 0
M  V30 3 O -2.206 0.1984 0.8908 0
M  V30 4 C -4.2484 1.0446 2.0479 0
M  V30 5 C -1.3988 -0.376 -0.1511 0
M  V30 6 C 0.0495 -0.4147 0.4123 0
M  V30 7 C -1.8924 -1.8047 -0.4671 0
M  V30 8 C -1.4615 0.5114 -1.4133 0
M  V30 9 C 1.1359 -0.9503 -0.5451 0
M  V30 10 C 2.5114 -1.0413 0.1361 0
M  V30 11 C 3.0942 0.3241 0.4428 0
M  V30 12 C 3.735 1.1653 -0.602 0
M  V30 13 C 3.0075 0.8061 1.6877 0
M  V30 14 C 3.8747 0.7965 -1.8756 0
M  V30 15 H -3.503 1.5916 2.6622 0
M  V30 16 H -5.0427 1.754 1.733 0
M  V30 17 H -4.7001 0.2354 2.6586 0
M  V30 18 H 0.3265 0.6175 0.7189 0
M  V30 19 H 0.0522 -1.0337 1.337 0
M  V30 20 H -1.3104 -2.2599 -1.2939 0
M  V30 21 H -1.8069 -2.4504 0.4328 0
M  V30 22 H -2.9513 -1.805 -0.7917 0
M  V30 23 H -0.8729 0.0705 -2.2438 0
M  V30 24 H -2.5 0.6165 -1.7841 0
M  V30 25 H -1.0683 1.5263 -1.1908 0
M  V30 26 H 1.2157 -0.3001 -1.44 0
M  V30 27 H 0.8698 -1.9715 -0.8846 0
M  V30 28 H 2.4239 -1.6531 1.0617 0
M  V30 29 H 3.2101 -1.6018 -0.5195 0
M  V30 30 H 4.1176 2.1403 -0.3215 0
M  V30 31 H 2.5335 0.2356 2.4769 0
M  V30 32 H 3.403 1.7822 1.9408 0
M  V30 33 H 4.3542 1.4669 -2.577 0
M  V30 34 H 3.5238 -0.1551 -2.2471 0
M  V30 END ATOM
M  V30 BEGIN BOND
M  V30 1 2 1 2
M  V30 2 1 2 3
M  V30 3 1 2 4
M  V30 4 1 3 5
M  V30 5 1 5 6
M  V30 6 1 5 7
M  V30 7 1 5 8
M  V30 8 1 6 9
M  V30 9 1 9 10
M  V30 10 1 10 11
M  V30 11 1 11 12
M  V30 12 2 11 13
M  V30 13 2 12 14
M  V30 14 1 4 15
M  V30 15 1 4 16
M  V30 16 1 4 17
M  V30 17 1 6 18
M  V30 18 1 6 19
M  V30 19 1 7 20
M  V30 20 1 7 21
M  V30 21 1 7 22
M  V30 22 1 8 23
M  V30 23 1 8 24
M  V30 24 1 8 25
M  V30 25 1 9 26
M  V30 26 1 9 27
M  V30 27 1 10 28
M  V30 28 1 10 29
M  V30 29 1 12 30
M  V30 30 1 13 31
M  V30 31 1 13 32
M  V30 32 1 14 33
M  V30 33 1 14 34
M  V30 END BOND
M  V30 END CTAB
M  END
>  <Structure No>
363

>  <LogS>
-3.597416499

>  <MMFF94 Energy>
13.169

$$$$
Compound 364
Actelion Java MolfileCreator 2.0

  0  0  0  0  0  0              0 V3000
M  V30 BEGIN CTAB
M  V30 COUNTS 17 17 0 0 0
M  V30 BEGIN ATOM
M  V30 1 Cl -1.2319 2.5472 1.0676 0
M  V30 2 C -0.4625 1.0848 0.4595 0
M  V30 3 C -1.22 0.0248 -0.0763 0
M  V30 4 C 0.9332 0.9896 0.5172 0
M  V30 5 C -0.5588 -1.1197 -0.548 0
M  V30 6 C -2.7199 0.1075 -0.1473 0
M  V30 7 C 1.5955 -0.1573 0.0446 0
M  V30 8 C 0.834 -1.2101 -0.4884 0
M  V30 9 N 3.0306 -0.2545 0.1042 0 CHG=1
M  V30 10 O 3.7134 0.6779 0.5769 0
M  V30 11 O 3.6752 -1.3787 -0.3593 0 CHG=-1
M  V30 12 H 1.4991 1.814 0.9324 0
M  V30 13 H -1.1204 -1.947 -0.9642 0
M  V30 14 H -3.1604 -0.8087 -0.595 0
M  V30 15 H -3.0183 0.9763 -0.7711 0
M  V30 16 H -3.1373 0.2293 0.8743 0
M  V30 17 H 1.3146 -2.1057 -0.86 0
M  V30 END ATOM
M  V30 BEGIN BOND
M  V30 1 1 1 2
M  V30 2 2 2 3
M  V30 3 1 2 4
M  V30 4 1 3 5
M  V30 5 1 3 6
M  V30 6 2 4 7
M  V30 7 2 5 8
M  V30 8 1 7 9
M  V30 9 2 9 10
M  V30 10 1 9 11
M  V30 11 1 7 8
M  V30 12 1 4 12
M  V30 13 1 5 13
M  V30 14 1 6 14
M  V30 15 1 6 15
M  V30 16 1 6 16
M  V30 17 1 8 17
M  V30 END BOND
M  V30 END CTAB
M  END
>  <Structure No>
364

>  <LogS>
-3.544278177

>  <MMFF94 Energy>
40.981

$$$$
Compound 365
Actelion Java MolfileCreator 2.0

  0  0  0  0  0  0              0 V3000
M  V30 BEGIN CTAB
M  V30 COUNTS 68 67 0 0 0
M  V30 BEGIN ATOM
M  V30 1 N -6.5391 0.699 1.1652 0 CHG=1
M  V30 2 C -5.1661 1.2195 1.5013 0
M  V30 3 C -7.3661 1.8417 0.6981 0
M  V30 4 C -6.4836 -0.2845 0.0569 0
M  V30 5 C -7.2274 0.0857 2.3267 0
M  V30 6 C -4.3376 0.4578 2.5765 0
M  V30 7 C -3.6697 -0.8599 2.1422 0
M  V30 8 C -2.513 -0.6774 1.1346 0
M  V30 9 C -2.9032 -1.0845 -0.2948 0
M  V30 10 C -1.7453 -0.9196 -1.2919 0
M  V30 11 C -0.6534 -1.9888 -1.1137 0
M  V30 12 C 0.3591 -2.0069 -2.273 0
M  V30 13 C 1.1497 -0.6998 -2.4663 0
M  V30 14 C 2.0159 -0.3386 -1.2471 0
M  V30 15 C 2.9029 0.8922 -1.4959 0
M  V30 16 C 4.1316 0.5672 -2.3636 0
M  V30 17 C 5.0549 1.7806 -2.567 0
M  V30 18 C 5.7945 2.2574 -1.3019 0
M  V30 19 C 6.7683 1.2122 -0.7176 0
M  V30 20 C 6.2032 0.5265 0.5351 0
M  V30 21 C 7.1687 -0.5412 1.0614 0
M  V30 22 C 6.6132 -1.2191 2.3108 0
M  V30 23 H -5.254 2.2531 1.9103 0
M  V30 24 H -4.554 1.3457 0.5826 0
M  V30 25 H -7.5151 2.5885 1.5107 0
M  V30 26 H -6.881 2.3623 -0.159 0
M  V30 27 H -8.3758 1.5081 0.365 0
M  V30 28 H -7.5051 -0.628 -0.2265 0
M  V30 29 H -6.0197 0.1598 -0.8522 0
M  V30 30 H -5.915 -1.1899 0.3341 0
M  V30 31 H -8.284 -0.1654 2.0819 0
M  V30 32 H -7.2394 0.7819 3.1944 0
M  V30 33 H -6.7378 -0.8647 2.6312 0
M  V30 34 H -3.5265 1.1403 2.9149 0
M  V30 35 H -4.9357 0.2813 3.4932 0
M  V30 36 H -3.2321 -1.3031 3.0647 0
M  V30 37 H -4.4108 -1.6071 1.8037 0
M  V30 38 H -2.1443 0.3712 1.1404 0
M  V30 39 H -1.6695 -1.3188 1.4664 0
M  V30 40 H -3.2672 -2.135 -0.3088 0
M  V30 41 H -3.7315 -0.4382 -0.6403 0
M  V30 42 H -2.1631 -1.0003 -2.3195 0
M  V30 43 H -1.3097 0.0966 -1.1819 0
M  V30 44 H -1.1325 -2.9911 -1.0723 0
M  V30 45 H -0.1198 -1.8446 -0.1526 0
M  V30 46 H -0.1811 -2.2358 -3.2174 0
M  V30 47 H 1.0771 -2.8385 -2.1027 0
M  V30 48 H 0.4585 0.1368 -2.7018 0
M  V30 49 H 1.8 -0.8419 -3.3535 0
M  V30 50 H 1.3482 -0.0996 -0.3924 0
M  V30 51 H 2.6465 -1.2058 -0.9519 0
M  V30 52 H 2.3054 1.7013 -1.9708 0
M  V30 53 H 3.2399 1.2631 -0.5059 0
M  V30 54 H 4.7016 -0.2813 -1.9322 0
M  V30 55 H 3.7893 0.2457 -3.3688 0
M  V30 56 H 5.8091 1.5239 -3.3427 0
M  V30 57 H 4.4563 2.6265 -2.97 0
M  V30 58 H 5.074 2.6159 -0.5369 0
M  V30 59 H 6.3879 3.151 -1.5943 0
M  V30 60 H 7.7113 1.7288 -0.4331 0
M  V30 61 H 7.0349 0.4513 -1.4832 0
M  V30 62 H 6.0364 1.2916 1.3244 0
M  V30 63 H 5.2291 0.0496 0.3037 0
M  V30 64 H 7.3352 -1.3138 0.2793 0
M  V30 65 H 8.1471 -0.0754 1.3088 0
M  V30 66 H 5.6486 -1.7206 2.0808 0
M  V30 67 H 6.4558 -0.4724 3.1185 0
M  V30 68 H 7.3338 -1.9835 2.669 0
M  V30 END ATOM
M  V30 BEGIN BOND
M  V30 1 1 1 2
M  V30 2 1 1 3
M  V30 3 1 1 4
M  V30 4 1 1 5
M  V30 5 1 2 6
M  V30 6 1 6 7
M  V30 7 1 7 8
M  V30 8 1 8 9
M  V30 9 1 9 10
M  V30 10 1 10 11
M  V30 11 1 11 12
M  V30 12 1 12 13
M  V30 13 1 13 14
M  V30 14 1 14 15
M  V30 15 1 15 16
M  V30 16 1 16 17
M  V30 17 1 17 18
M  V30 18 1 18 19
M  V30 19 1 19 20
M  V30 20 1 20 21
M  V30 21 1 21 22
M  V30 22 1 2 23
M  V30 23 1 2 24
M  V30 24 1 3 25
M  V30 25 1 3 26
M  V30 26 1 3 27
M  V30 27 1 4 28
M  V30 28 1 4 29
M  V30 29 1 4 30
M  V30 30 1 5 31
M  V30 31 1 5 32
M  V30 32 1 5 33
M  V30 33 1 6 34
M  V30 34 1 6 35
M  V30 35 1 7 36
M  V30 36 1 7 37
M  V30 37 1 8 38
M  V30 38 1 8 39
M  V30 39 1 9 40
M  V30 40 1 9 41
M  V30 41 1 10 42
M  V30 42 1 10 43
M  V30 43 1 11 44
M  V30 44 1 11 45
M  V30 45 1 12 46
M  V30 46 1 12 47
M  V30 47 1 13 48
M  V30 48 1 13 49
M  V30 49 1 14 50
M  V30 50 1 14 51
M  V30 51 1 15 52
M  V30 52 1 15 53
M  V30 53 1 16 54
M  V30 54 1 16 55
M  V30 55 1 17 56
M  V30 56 1 17 57
M  V30 57 1 18 58
M  V30 58 1 18 59
M  V30 59 1 19 60
M  V30 60 1 19 61
M  V30 61 1 20 62
M  V30 62 1 20 63
M  V30 63 1 21 64
M  V30 64 1 21 65
M  V30 65 1 22 66
M  V30 66 1 22 67
M  V30 67 1 22 68
M  V30 END BOND
M  V30 END CTAB
M  END
>  <Structure No>
365

>  <LogS>
-3.851456788

>  <MMFF94 Energy>
17.659

$$$$
Compound 366
Actelion Java MolfileCreator 2.0

  0  0  0  0  0  0              0 V3000
M  V30 BEGIN CTAB
M  V30 COUNTS 32 31 0 0 0
M  V30 BEGIN ATOM
M  V30 1 N -0.0767 0.0767 0.1534 0 CHG=1
M  V30 2 C -1.3387 -0.6821 0.3686 0
M  V30 3 C 1.0957 -0.8362 0.2509 0
M  V30 4 C 0.0454 1.192 1.1426 0
M  V30 5 C -2.5566 0.0431 -0.2355 0
M  V30 6 C 1.3747 -1.5716 -1.0746 0
M  V30 7 C 0.4978 2.5175 0.4983 0
M  V30 8 C -3.8463 -0.7273 0.0322 0
M  V30 9 C 2.5741 -2.5062 -0.9442 0
M  V30 10 C 1.9293 2.4681 -0.0301 0
M  V30 11 H -0.1019 0.4743 -0.816 0
M  V30 12 H -1.2859 -1.684 -0.1097 0
M  V30 13 H -1.5039 -0.8636 1.4557 0
M  V30 14 H 2.0188 -0.2688 0.5033 0
M  V30 15 H 0.9488 -1.5764 1.071 0
M  V30 16 H -0.9261 1.4068 1.6404 0
M  V30 17 H 0.732 0.932 1.9807 0
M  V30 18 H -2.4215 0.1414 -1.3345 0
M  V30 19 H -2.658 1.0626 0.1913 0
M  V30 20 H 0.4944 -2.1704 -1.386 0
M  V30 21 H 1.5883 -0.8287 -1.8734 0
M  V30 22 H -0.1942 2.7921 -0.327 0
M  V30 23 H 0.4375 3.3208 1.2646 0
M  V30 24 H -4.7037 -0.186 -0.4201 0
M  V30 25 H -3.7906 -1.742 -0.4162 0
M  V30 26 H -4.0209 -0.8181 1.1255 0
M  V30 27 H 2.7541 -3.0177 -1.9132 0
M  V30 28 H 3.4847 -1.9308 -0.6724 0
M  V30 29 H 2.3802 -3.2757 -0.1669 0
M  V30 30 H 2.6301 2.1671 0.7771 0
M  V30 31 H 2.0096 1.7577 -0.879 0
M  V30 32 H 2.2229 3.4753 -0.3938 0
M  V30 END ATOM
M  V30 BEGIN BOND
M  V30 1 1 1 2
M  V30 2 1 1 3
M  V30 3 1 1 4
M  V30 4 1 2 5
M  V30 5 1 3 6
M  V30 6 1 4 7
M  V30 7 1 5 8
M  V30 8 1 6 9
M  V30 9 1 7 10
M  V30 10 1 1 11
M  V30 11 1 2 12
M  V30 12 1 2 13
M  V30 13 1 3 14
M  V30 14 1 3 15
M  V30 15 1 4 16
M  V30 16 1 4 17
M  V30 17 1 5 18
M  V30 18 1 5 19
M  V30 19 1 6 20
M  V30 20 1 6 21
M  V30 21 1 7 22
M  V30 22 1 7 23
M  V30 23 1 8 24
M  V30 24 1 8 25
M  V30 25 1 8 26
M  V30 26 1 9 27
M  V30 27 1 9 28
M  V30 28 1 9 29
M  V30 29 1 10 30
M  V30 30 1 10 31
M  V30 31 1 10 32
M  V30 END BOND
M  V30 END CTAB
M  END
>  <Structure No>
366

>  <LogS>
-2.472220255

>  <MMFF94 Energy>
7.6242

$$$$
Compound 367
Actelion Java MolfileCreator 2.0

  0  0  0  0  0  0              0 V3000
M  V30 BEGIN CTAB
M  V30 COUNTS 5 4 0 0 0
M  V30 BEGIN ATOM
M  V30 1 N 0.0 0.0 0.0 0 CHG=1
M  V30 2 H 0.8913 -0.5423 0.0463 0
M  V30 3 H 0.1889 0.947 -0.3978 0
M  V30 4 H -0.3976 0.0991 0.9607 0
M  V30 5 H -0.6828 -0.5035 -0.609 0
M  V30 END ATOM
M  V30 BEGIN BOND
M  V30 1 1 1 2
M  V30 2 1 1 3
M  V30 3 1 1 4
M  V30 4 1 1 5
M  V30 END BOND
M  V30 END CTAB
M  END
>  <Structure No>
367

>  <LogS>
1.451806889

>  <MMFF94 Energy>
0.21038

$$$$
Compound 368
Actelion Java MolfileCreator 2.0

  0  0  0  0  0  0              0 V3000
M  V30 BEGIN CTAB
M  V30 COUNTS 62 63 0 0 0
M  V30 BEGIN ATOM
M  V30 1 O 5.0249 0.1592 2.6297 0
M  V30 2 C 5.7918 0.2883 1.6375 0
M  V30 3 N 5.3054 0.8985 0.4282 0
M  V30 4 C 7.2091 -0.1813 1.7364 0
M  V30 5 C 4.5208 2.1026 0.562 0
M  V30 6 C 5.3258 0.1769 -0.8592 0
M  V30 7 C 7.3849 -1.608 1.1979 0
M  V30 8 O 4.7825 2.911 1.4963 0
M  V30 9 N 3.4296 2.3828 -0.3307 0
M  V30 10 C 6.5647 -0.7121 -1.0788 0
M  V30 11 C 6.6221 -1.905 -0.1068 0
M  V30 12 C 2.6018 3.5788 -0.1599 0
M  V30 13 C 1.4016 3.5842 -1.1175 0
M  V30 14 C 0.3856 2.4841 -0.7731 0
M  V30 15 C -0.8683 2.5962 -1.6533 0
M  V30 16 C -1.7875 1.3696 -1.5431 0
M  V30 17 C -2.3805 1.1909 -0.1378 0
M  V30 18 N -3.3535 0.0986 -0.1205 0
M  V30 19 C -4.0353 -0.2747 1.0861 0
M  V30 20 O -3.9059 0.4332 2.1221 0
M  V30 21 N -4.8895 -1.4349 1.1159 0
M  V30 22 C -4.5696 -2.6123 0.3435 0
M  V30 23 C -6.1492 -1.395 1.8745 0
M  V30 24 O -3.3977 -2.7931 -0.0856 0
M  V30 25 C -5.6179 -3.6604 0.0744 0
M  V30 26 C -7.3775 -1.2148 0.9567 0
M  V30 27 C -6.8411 -3.1279 -0.7031 0
M  V30 28 C -7.1688 -1.634 -0.5109 0
M  V30 29 H 7.5411 -0.149 2.7977 0
M  V30 30 H 7.8638 0.5211 1.1751 0
M  V30 31 H 5.3115 0.9151 -1.6921 0
M  V30 32 H 4.4058 -0.4427 -0.9449 0
M  V30 33 H 8.4705 -1.7836 1.0315 0
M  V30 34 H 7.0526 -2.3322 1.9739 0
M  V30 35 H 3.1911 1.6993 -1.0824 0
M  V30 36 H 7.4953 -0.1074 -1.0376 0
M  V30 37 H 6.5003 -1.115 -2.1134 0
M  V30 38 H 7.1287 -2.7565 -0.6121 0
M  V30 39 H 5.5927 -2.2512 0.1353 0
M  V30 40 H 3.2228 4.4788 -0.3579 0
M  V30 41 H 2.238 3.6364 0.8898 0
M  V30 42 H 0.9016 4.5753 -1.0464 0
M  V30 43 H 1.7598 3.4582 -2.163 0
M  V30 44 H 0.8518 1.4862 -0.921 0
M  V30 45 H 0.0908 2.5835 0.2938 0
M  V30 46 H -0.5595 2.6923 -2.7167 0
M  V30 47 H -1.4343 3.514 -1.3808 0
M  V30 48 H -2.6212 1.5007 -2.2687 0
M  V30 49 H -1.2259 0.4534 -1.8324 0
M  V30 50 H -1.5688 0.9533 0.5826 0
M  V30 51 H -2.8817 2.1321 0.1786 0
M  V30 52 H -3.5879 -0.4012 -1.007 0
M  V30 53 H -6.2545 -2.3298 2.4664 0
M  V30 54 H -6.137 -0.5723 2.6236 0
M  V30 55 H -5.1685 -4.4972 -0.5042 0
M  V30 56 H -5.9497 -4.0978 1.0405 0
M  V30 57 H -8.2365 -1.7782 1.3831 0
M  V30 58 H -7.6628 -0.1394 0.9612 0
M  V30 59 H -6.6655 -3.2966 -1.7878 0
M  V30 60 H -7.7313 -3.7329 -0.4242 0
M  V30 61 H -8.1058 -1.414 -1.068 0
M  V30 62 H -6.3779 -1.0071 -0.9779 0
M  V30 END ATOM
M  V30 BEGIN BOND
M  V30 1 2 1 2
M  V30 2 1 2 3
M  V30 3 1 2 4
M  V30 4 1 3 5
M  V30 5 1 3 6
M  V30 6 1 4 7
M  V30 7 2 5 8
M  V30 8 1 5 9
M  V30 9 1 6 10
M  V30 10 1 7 11
M  V30 11 1 9 12
M  V30 12 1 12 13
M  V30 13 1 13 14
M  V30 14 1 14 15
M  V30 15 1 15 16
M  V30 16 1 16 17
M  V30 17 1 17 18
M  V30 18 1 18 19
M  V30 19 2 19 20
M  V30 20 1 19 21
M  V30 21 1 21 22
M  V30 22 1 21 23
M  V30 23 2 22 24
M  V30 24 1 22 25
M  V30 25 1 23 26
M  V30 26 1 25 27
M  V30 27 1 26 28
M  V30 28 1 10 11
M  V30 29 1 27 28
M  V30 30 1 4 29
M  V30 31 1 4 30
M  V30 32 1 6 31
M  V30 33 1 6 32
M  V30 34 1 7 33
M  V30 35 1 7 34
M  V30 36 1 9 35
M  V30 37 1 10 36
M  V30 38 1 10 37
M  V30 39 1 11 38
M  V30 40 1 11 39
M  V30 41 1 12 40
M  V30 42 1 12 41
M  V30 43 1 13 42
M  V30 44 1 13 43
M  V30 45 1 14 44
M  V30 46 1 14 45
M  V30 47 1 15 46
M  V30 48 1 15 47
M  V30 49 1 16 48
M  V30 50 1 16 49
M  V30 51 1 17 50
M  V30 52 1 17 51
M  V30 53 1 18 52
M  V30 54 1 23 53
M  V30 55 1 23 54
M  V30 56 1 25 55
M  V30 57 1 25 56
M  V30 58 1 26 57
M  V30 59 1 26 58
M  V30 60 1 27 59
M  V30 61 1 27 60
M  V30 62 1 28 61
M  V30 63 1 28 62
M  V30 END BOND
M  V30 END CTAB
M  END
>  <Structure No>
368

>  <LogS>
-3.906400656

>  <MMFF94 Energy>
-147.8

$$$$
Compound 369
Actelion Java MolfileCreator 2.0

  0  0  0  0  0  0              0 V3000
M  V30 BEGIN CTAB
M  V30 COUNTS 32 31 0 0 0
M  V30 BEGIN ATOM
M  V30 1 O -1.4782 -0.7777 -2.179 0
M  V30 2 C -1.4044 0.1465 -1.3236 0
M  V30 3 O -0.2036 0.4092 -0.6586 0
M  V30 4 C -2.6251 0.9456 -0.984 0
M  V30 5 C 0.9845 -0.3382 -0.895 0
M  V30 6 C -3.5371 0.2004 0.0117 0
M  V30 7 C 2.1049 0.1964 1.0E-4 0
M  V30 8 C -2.8607 0.0322 1.3809 0
M  V30 9 C -4.8662 0.9483 0.1723 0
M  V30 10 C 3.4774 -0.4426 -0.3083 0
M  V30 11 C 4.5864 0.311 0.437 0
M  V30 12 C 3.5145 -1.9311 0.0694 0
M  V30 13 H -3.1827 1.1471 -1.9249 0
M  V30 14 H -2.3184 1.9274 -0.5613 0
M  V30 15 H 1.2751 -0.2386 -1.9636 0
M  V30 16 H 0.7898 -1.407 -0.6647 0
M  V30 17 H -3.7645 -0.8106 -0.3941 0
M  V30 18 H 1.836 0.0285 1.0664 0
M  V30 19 H 2.1726 1.2951 -0.1607 0
M  V30 20 H -1.9432 -0.586 1.2887 0
M  V30 21 H -2.5873 1.0213 1.8076 0
M  V30 22 H -3.5458 -0.4846 2.0864 0
M  V30 23 H -4.6949 1.97 0.575 0
M  V30 24 H -5.5365 0.3968 0.8658 0
M  V30 25 H -5.3814 1.0308 -0.8083 0
M  V30 26 H 3.6825 -0.3514 -1.3981 0
M  V30 27 H 5.5792 -0.1234 0.1925 0
M  V30 28 H 4.5976 1.3793 0.1324 0
M  V30 29 H 4.4294 0.2526 1.5358 0
M  V30 30 H 2.8181 -2.5145 -0.5669 0
M  V30 31 H 4.5333 -2.3434 -0.0925 0
M  V30 32 H 3.2385 -2.0728 1.1364 0
M  V30 END ATOM
M  V30 BEGIN BOND
M  V30 1 2 1 2
M  V30 2 1 2 3
M  V30 3 1 2 4
M  V30 4 1 3 5
M  V30 5 1 4 6
M  V30 6 1 5 7
M  V30 7 1 6 8
M  V30 8 1 6 9
M  V30 9 1 7 10
M  V30 10 1 10 11
M  V30 11 1 10 12
M  V30 12 1 4 13
M  V30 13 1 4 14
M  V30 14 1 5 15
M  V30 15 1 5 16
M  V30 16 1 6 17
M  V30 17 1 7 18
M  V30 18 1 7 19
M  V30 19 1 8 20
M  V30 20 1 8 21
M  V30 21 1 8 22
M  V30 22 1 9 23
M  V30 23 1 9 24
M  V30 24 1 9 25
M  V30 25 1 10 26
M  V30 26 1 11 27
M  V30 27 1 11 28
M  V30 28 1 11 29
M  V30 29 1 12 30
M  V30 30 1 12 31
M  V30 31 1 12 32
M  V30 END BOND
M  V30 END CTAB
M  END
>  <Structure No>
369

>  <LogS>
-3.554059535

>  <MMFF94 Energy>
-3.3578

$$$$
Compound 370
Actelion Java MolfileCreator 2.0

  0  0  0  0  0  0              0 V3000
M  V30 BEGIN CTAB
M  V30 COUNTS 33 32 0 0 0
M  V30 BEGIN ATOM
M  V30 1 O -1.3929 -2.3223 -0.3867 0
M  V30 2 C -0.686 -1.3882 0.3822 0
M  V30 3 C -0.7649 0.0128 -0.2679 0 CFG=2
M  V30 4 C 0.4173 0.9085 0.2123 0
M  V30 5 C -2.1164 0.7101 0.0367 0
M  V30 6 C 1.5472 1.05 -0.8274 0
M  V30 7 C -3.3341 -0.0327 -0.5352 0
M  V30 8 C 2.3351 -0.2429 -1.1112 0
M  V30 9 C -4.603 0.8056 -0.4052 0
M  V30 10 C 3.1885 -0.7454 0.0678 0
M  V30 11 C 4.35 0.1892 0.4043 0
M  V30 12 H -1.3415 -3.1824 0.1059 0
M  V30 13 H 0.3693 -1.7249 0.4534 0
M  V30 14 H -1.0973 -1.3533 1.4165 0
M  V30 15 H -0.6974 -0.1093 -1.3726 0
M  V30 16 H 0.8221 0.5576 1.185 0
M  V30 17 H 0.0573 1.9415 0.4147 0
M  V30 18 H -2.0943 1.7278 -0.4137 0
M  V30 19 H -2.2392 0.8299 1.136 0
M  V30 20 H 2.2451 1.8471 -0.4963 0
M  V30 21 H 1.1064 1.4092 -1.7829 0
M  V30 22 H -3.1667 -0.2652 -1.6093 0
M  V30 23 H -3.492 -0.9827 0.0175 0
M  V30 24 H 1.6349 -1.0452 -1.4241 0
M  V30 25 H 3.0036 -0.0614 -1.9808 0
M  V30 26 H -4.504 1.7496 -0.9825 0
M  V30 27 H -5.468 0.2357 -0.805 0
M  V30 28 H -4.7983 1.0464 0.6616 0
M  V30 29 H 2.5679 -0.903 0.9729 0
M  V30 30 H 3.6121 -1.7343 -0.2119 0
M  V30 31 H 4.9461 0.4149 -0.5051 0
M  V30 32 H 5.0134 -0.3008 1.1478 0
M  V30 33 H 3.9774 1.1347 0.8493 0
M  V30 END ATOM
M  V30 BEGIN BOND
M  V30 1 1 1 2
M  V30 2 1 2 3
M  V30 3 1 3 4
M  V30 4 1 3 5
M  V30 5 1 4 6
M  V30 6 1 5 7
M  V30 7 1 6 8
M  V30 8 1 7 9
M  V30 9 1 8 10
M  V30 10 1 10 11
M  V30 11 1 1 12
M  V30 12 1 2 13
M  V30 13 1 2 14
M  V30 14 1 3 15
M  V30 15 1 4 16
M  V30 16 1 4 17
M  V30 17 1 5 18
M  V30 18 1 5 19
M  V30 19 1 6 20
M  V30 20 1 6 21
M  V30 21 1 7 22
M  V30 22 1 7 23
M  V30 23 1 8 24
M  V30 24 1 8 25
M  V30 25 1 9 26
M  V30 26 1 9 27
M  V30 27 1 9 28
M  V30 28 1 10 29
M  V30 29 1 10 30
M  V30 30 1 11 31
M  V30 31 1 11 32
M  V30 32 1 11 33
M  V30 END BOND
M  V30 BEGIN COLLECTION
M  V30 MDLV30/STEABS ATOMS=(1 3)
M  V30 END COLLECTION
M  V30 END CTAB
M  END
>  <Structure No>
370

>  <LogS>
-3.518198523

>  <MMFF94 Energy>
5.5379

$$$$
Compound 371
Actelion Java MolfileCreator 2.0

  0  0  0  0  0  0              0 V3000
M  V30 BEGIN CTAB
M  V30 COUNTS 32 33 0 0 0
M  V30 BEGIN ATOM
M  V30 1 N -6.0677 -0.1572 -0.0786 0
M  V30 2 C -4.6448 -0.2739 -0.1575 0
M  V30 3 C -3.9469 0.3112 -1.2232 0
M  V30 4 C -3.9378 -0.9699 0.8328 0
M  V30 5 C -2.5555 0.1984 -1.3005 0
M  V30 6 C -2.5462 -1.0835 0.7567 0
M  V30 7 C -1.8467 -0.5101 -0.3171 0
M  V30 8 C -0.3458 -0.6018 -0.3809 0
M  V30 9 C 0.2972 0.579 0.352 0
M  V30 10 C 1.7982 0.4873 0.2882 0
M  V30 11 C 2.5069 -0.2211 1.2716 0
M  V30 12 C 2.4977 1.0606 -0.7856 0
M  V30 13 C 3.8983 -0.334 1.1943 0
M  V30 14 C 3.8892 0.9471 -0.8618 0
M  V30 15 C 4.5962 0.2511 0.1286 0
M  V30 16 N 6.0192 0.1344 0.0495 0
M  V30 17 H -6.6032 0.3608 -0.8106 0
M  V30 18 H -6.5965 -0.5881 0.7124 0
M  V30 19 H -4.4804 0.8572 -1.9913 0
M  V30 20 H -4.4641 -1.4209 1.6647 0
M  V30 21 H -2.0303 0.6642 -2.1253 0
M  V30 22 H -2.0141 -1.6165 1.5349 0
M  V30 23 H -0.0144 -0.6095 -1.443 0
M  V30 24 H -0.0075 -1.5573 0.0779 0
M  V30 25 H -0.0342 0.5868 1.414 0
M  V30 26 H -0.041 1.5346 -0.1067 0
M  V30 27 H 1.9817 -0.6869 2.0965 0
M  V30 28 H 1.9654 1.5937 -1.5638 0
M  V30 29 H 4.4317 -0.8798 1.9624 0
M  V30 30 H 4.4155 1.3982 -1.6935 0
M  V30 31 H 6.5546 -0.3835 0.7817 0
M  V30 32 H 6.5478 0.5654 -0.7413 0
M  V30 END ATOM
M  V30 BEGIN BOND
M  V30 1 1 1 2
M  V30 2 2 2 3
M  V30 3 1 2 4
M  V30 4 1 3 5
M  V30 5 2 4 6
M  V30 6 2 5 7
M  V30 7 1 7 8
M  V30 8 1 8 9
M  V30 9 1 9 10
M  V30 10 2 10 11
M  V30 11 1 10 12
M  V30 12 1 11 13
M  V30 13 2 12 14
M  V30 14 2 13 15
M  V30 15 1 15 16
M  V30 16 1 6 7
M  V30 17 1 14 15
M  V30 18 1 1 17
M  V30 19 1 1 18
M  V30 20 1 3 19
M  V30 21 1 4 20
M  V30 22 1 5 21
M  V30 23 1 6 22
M  V30 24 1 8 23
M  V30 25 1 8 24
M  V30 26 1 9 25
M  V30 27 1 9 26
M  V30 28 1 11 27
M  V30 29 1 12 28
M  V30 30 1 13 29
M  V30 31 1 14 30
M  V30 32 1 16 31
M  V30 33 1 16 32
M  V30 END BOND
M  V30 END CTAB
M  END
>  <Structure No>
371

>  <LogS>
-3.645700574

>  <MMFF94 Energy>
26.73

$$$$
Compound 372
Actelion Java MolfileCreator 2.0

  0  0  0  0  0  0              0 V3000
M  V30 BEGIN CTAB
M  V30 COUNTS 17 17 0 0 0
M  V30 BEGIN ATOM
M  V30 1 O 1.585 -1.585 -0.6337 0
M  V30 2 C 1.0833 -0.5069 -0.21 0
M  V30 3 O 1.9167 0.5338 0.2145 0
M  V30 4 C -0.3854 -0.3406 -0.1613 0
M  V30 5 C 3.3358 0.4384 0.1935 0
M  V30 6 C -1.2456 -1.3704 -0.5818 0
M  V30 7 C -0.955 0.8542 0.3081 0
M  V30 8 N -2.5942 -1.2019 -0.5307 0
M  V30 9 C -2.3427 1.0006 0.3499 0
M  V30 10 C -3.1548 -0.0498 -0.0781 0
M  V30 11 H 3.7703 1.3848 0.5757 0
M  V30 12 H 3.6902 0.2736 -0.846 0
M  V30 13 H 3.6702 -0.3989 0.8417 0
M  V30 14 H -0.849 -2.3074 -0.9505 0
M  V30 15 H -0.3313 1.6737 0.6421 0
M  V30 16 H -2.7847 1.9202 0.7112 0
M  V30 17 H -4.2316 0.0503 -0.051 0
M  V30 END ATOM
M  V30 BEGIN BOND
M  V30 1 2 1 2
M  V30 2 1 2 3
M  V30 3 1 2 4
M  V30 4 1 3 5
M  V30 5 2 4 6
M  V30 6 1 4 7
M  V30 7 1 6 8
M  V30 8 2 7 9
M  V30 9 2 8 10
M  V30 10 1 9 10
M  V30 11 1 5 11
M  V30 12 1 5 12
M  V30 13 1 5 13
M  V30 14 1 6 14
M  V30 15 1 7 15
M  V30 16 1 9 16
M  V30 17 1 10 17
M  V30 END BOND
M  V30 END CTAB
M  END
>  <Structure No>
372

>  <LogS>
-0.459550859

>  <MMFF94 Energy>
25.911

$$$$
Compound 373
Actelion Java MolfileCreator 2.0

  0  0  0  0  0  0              0 V3000
M  V30 BEGIN CTAB
M  V30 COUNTS 14 13 0 0 0
M  V30 BEGIN ATOM
M  V30 1 O -1.7868 -1.218 -1.7868 0
M  V30 2 C -1.4468 -1.0056 -0.5929 0
M  V30 3 O -1.6193 -2.0061 0.3564 0 CHG=-1
M  V30 4 C -0.8081 0.2993 -0.2124 0 CFG=1
M  V30 5 O -1.174 0.6255 1.1052 0
M  V30 6 C 0.7302 0.2213 -0.3585 0 CFG=1
M  V30 7 O 1.3152 1.4947 -0.2359 0
M  V30 8 C 1.3566 -0.7503 0.6098 0
M  V30 9 O 1.4545 -0.4646 1.8328 0
M  V30 10 O 1.8026 -1.9863 0.1589 0 CHG=-1
M  V30 11 H -1.1895 1.0784 -0.9155 0
M  V30 12 H -1.1931 1.6161 1.168 0
M  V30 13 H 0.9551 -0.1354 -1.3877 0
M  V30 14 H 1.1382 1.8286 0.6817 0
M  V30 END ATOM
M  V30 BEGIN BOND
M  V30 1 2 1 2
M  V30 2 1 2 3
M  V30 3 1 2 4
M  V30 4 1 4 5
M  V30 5 1 4 6
M  V30 6 1 6 7
M  V30 7 1 6 8
M  V30 8 2 8 9
M  V30 9 1 8 10
M  V30 10 1 4 11
M  V30 11 1 5 12
M  V30 12 1 6 13
M  V30 13 1 7 14
M  V30 END BOND
M  V30 BEGIN COLLECTION
M  V30 MDLV30/STEABS ATOMS=(2 4 6)
M  V30 END COLLECTION
M  V30 END CTAB
M  END
>  <Structure No>
373

>  <LogS>
-2.602434694

>  <MMFF94 Energy>
179

$$$$
Compound 374
Actelion Java MolfileCreator 2.0

  0  0  0  0  0  0              0 V3000
M  V30 BEGIN CTAB
M  V30 COUNTS 26 26 0 0 0
M  V30 BEGIN ATOM
M  V30 1 O 5.0168 0.4769 -0.2384 0
M  V30 2 C 4.2354 -0.505 -0.3502 0
M  V30 3 O 4.7582 -1.7455 -0.6969 0 CHG=-1
M  V30 4 C 2.7833 -0.3419 -0.1165 0
M  V30 5 C 2.2494 0.9068 0.2334 0
M  V30 6 C 1.9173 -1.4369 -0.242 0
M  V30 7 C 0.8781 1.0569 0.4533 0
M  V30 8 C 0.5445 -1.2901 -0.0227 0
M  V30 9 C -0.007 -0.0365 0.3307 0
M  V30 10 C -1.5151 0.1717 0.5821 0
M  V30 11 C -2.0635 1.2172 -0.4132 0
M  V30 12 C -2.3443 -1.1233 0.4071 0
M  V30 13 C -1.7319 0.6754 2.0257 0
M  V30 14 H 2.8917 1.7724 0.3384 0
M  V30 15 H 2.2994 -2.4138 -0.511 0
M  V30 16 H 0.5125 2.0388 0.7211 0
M  V30 17 H -0.0672 -2.1723 -0.1355 0
M  V30 18 H -1.8772 0.8898 -1.4589 0
M  V30 19 H -3.1589 1.3528 -0.2795 0
M  V30 20 H -1.5867 2.2091 -0.2682 0
M  V30 21 H -2.2538 -1.5147 -0.6292 0
M  V30 22 H -2.0152 -1.9047 1.1258 0
M  V30 23 H -3.4227 -0.9298 0.5967 0
M  V30 24 H -1.2524 1.6628 2.1906 0
M  V30 25 H -1.3042 -0.0463 2.755 0
M  V30 26 H -2.8156 0.792 2.2444 0
M  V30 END ATOM
M  V30 BEGIN BOND
M  V30 1 2 1 2
M  V30 2 1 2 3
M  V30 3 1 2 4
M  V30 4 2 4 5
M  V30 5 1 4 6
M  V30 6 1 5 7
M  V30 7 2 6 8
M  V30 8 2 7 9
M  V30 9 1 9 10
M  V30 10 1 10 11
M  V30 11 1 10 12
M  V30 12 1 10 13
M  V30 13 1 8 9
M  V30 14 1 5 14
M  V30 15 1 6 15
M  V30 16 1 7 16
M  V30 17 1 8 17
M  V30 18 1 11 18
M  V30 19 1 11 19
M  V30 20 1 11 20
M  V30 21 1 12 21
M  V30 22 1 12 22
M  V30 23 1 12 23
M  V30 24 1 13 24
M  V30 25 1 13 25
M  V30 26 1 13 26
M  V30 END BOND
M  V30 END CTAB
M  END
>  <Structure No>
374

>  <LogS>
-3.577962337

>  <MMFF94 Energy>
55.553

$$$$
Compound 375
Actelion Java MolfileCreator 2.0

  0  0  0  0  0  0              0 V3000
M  V30 BEGIN CTAB
M  V30 COUNTS 23 24 0 0 0
M  V30 BEGIN ATOM
M  V30 1 S 3.4942 0.9974 0.2492 0
M  V30 2 O 4.5933 0.0364 0.6054 0
M  V30 3 O 3.3614 2.0087 1.353 0
M  V30 4 O 3.8803 1.7802 -1.1852 0 CHG=-1
M  V30 5 C 1.9748 0.1287 0.0514 0
M  V30 6 C 0.7566 0.7965 0.2369 0
M  V30 7 C 1.9816 -1.2191 -0.318 0
M  V30 8 C -0.4722 0.1188 0.0762 0
M  V30 9 C 0.7816 -1.9043 -0.4987 0
M  V30 10 C -1.73 0.7566 0.2676 0
M  V30 11 C -0.4446 -1.25 -0.31 0
M  V30 12 N -1.8491 2.1214 0.7003 0
M  V30 13 C -2.9102 0.0308 0.0417 0
M  V30 14 C -1.6425 -1.9486 -0.513 0
M  V30 15 C -2.8664 -1.3075 -0.343 0
M  V30 16 H 0.7966 1.8442 0.4874 0
M  V30 17 H 2.9172 -1.7402 -0.4758 0
M  V30 18 H 0.8119 -2.947 -0.7922 0
M  V30 19 H -2.7859 2.5828 0.726 0
M  V30 20 H -1.0556 2.6698 1.0917 0
M  V30 21 H -3.8746 0.5044 0.1781 0
M  V30 22 H -1.6319 -2.9907 -0.8096 0
M  V30 23 H -3.7875 -1.8522 -0.5059 0
M  V30 END ATOM
M  V30 BEGIN BOND
M  V30 1 2 1 2
M  V30 2 2 1 3
M  V30 3 1 1 4
M  V30 4 1 1 5
M  V30 5 2 5 6
M  V30 6 1 5 7
M  V30 7 1 6 8
M  V30 8 2 7 9
M  V30 9 2 8 10
M  V30 10 1 8 11
M  V30 11 1 10 12
M  V30 12 1 10 13
M  V30 13 2 11 14
M  V30 14 2 13 15
M  V30 15 1 9 11
M  V30 16 1 14 15
M  V30 17 1 6 16
M  V30 18 1 7 17
M  V30 19 1 9 18
M  V30 20 1 12 19
M  V30 21 1 12 20
M  V30 22 1 13 21
M  V30 23 1 14 22
M  V30 24 1 15 23
M  V30 END BOND
M  V30 END CTAB
M  END
>  <Structure No>
375

>  <LogS>
-1.682279323

>  <MMFF94 Energy>
61.838

$$$$
Compound 376
Actelion Java MolfileCreator 2.0

  0  0  0  0  0  0              0 V3000
M  V30 BEGIN CTAB
M  V30 COUNTS 8 7 0 0 0
M  V30 BEGIN ATOM
M  V30 1 F 1.1089 1.2795 -0.5969 0
M  V30 2 C 0.7861 0.0457 -0.0615 0
M  V30 3 F 1.3012 -0.9499 -0.8714 0
M  V30 4 F 1.3444 -0.0626 1.199 0
M  V30 5 C -0.7275 -0.099 0.0322 0
M  V30 6 F -1.2468 0.8923 0.8452 0
M  V30 7 F -1.2902 0.0044 -1.2271 0
M  V30 8 H -0.9836 -1.0903 0.4623 0
M  V30 END ATOM
M  V30 BEGIN BOND
M  V30 1 1 1 2
M  V30 2 1 2 3
M  V30 3 1 2 4
M  V30 4 1 2 5
M  V30 5 1 5 6
M  V30 6 1 5 7
M  V30 7 1 5 8
M  V30 END BOND
M  V30 END CTAB
M  END
>  <Structure No>
376

>  <LogS>
-1.416495791

>  <MMFF94 Energy>
55.237

$$$$
Compound 377
Actelion Java MolfileCreator 2.0

  0  0  0  0  0  0              0 V3000
M  V30 BEGIN CTAB
M  V30 COUNTS 19 19 0 0 0
M  V30 BEGIN ATOM
M  V30 1 O -1.564 -2.3467 0.1563 0
M  V30 2 C -0.472 -1.4855 0.043 0
M  V30 3 C -0.6502 -0.0876 0.1416 0
M  V30 4 C 0.8062 -2.0168 -0.1707 0
M  V30 5 C 0.4701 0.7675 -0.0208 0
M  V30 6 C -2.0306 0.4842 0.3603 0
M  V30 7 C 1.9078 -1.1733 -0.2976 0
M  V30 8 C 1.7433 0.209 -0.2235 0
M  V30 9 C 0.3334 2.2664 0.0514 0
M  V30 10 H -1.4584 -3.3523 0.0882 0
M  V30 11 H 0.9464 -3.0881 -0.2397 0
M  V30 12 H -2.7444 -0.2783 0.7346 0
M  V30 13 H -2.0001 1.2945 1.1182 0
M  V30 14 H -2.4182 0.892 -0.5963 0
M  V30 15 H 2.8927 -1.5922 -0.4593 0
M  V30 16 H 2.6134 0.8451 -0.3297 0
M  V30 17 H -0.4898 2.6092 -0.6097 0
M  V30 18 H 1.2629 2.7777 -0.2779 0
M  V30 19 H 0.1189 2.5715 1.0969 0
M  V30 END ATOM
M  V30 BEGIN BOND
M  V30 1 1 1 2
M  V30 2 2 2 3
M  V30 3 1 2 4
M  V30 4 1 3 5
M  V30 5 1 3 6
M  V30 6 2 4 7
M  V30 7 2 5 8
M  V30 8 1 5 9
M  V30 9 1 7 8
M  V30 10 1 1 10
M  V30 11 1 4 11
M  V30 12 1 6 12
M  V30 13 1 6 13
M  V30 14 1 6 14
M  V30 15 1 7 15
M  V30 16 1 8 16
M  V30 17 1 9 17
M  V30 18 1 9 18
M  V30 19 1 9 19
M  V30 END BOND
M  V30 END CTAB
M  END
>  <Structure No>
377

>  <LogS>
-1.424196078

>  <MMFF94 Energy>
13.529

$$$$
Compound 378
Actelion Java MolfileCreator 2.0

  0  0  0  0  0  0              0 V3000
M  V30 BEGIN CTAB
M  V30 COUNTS 39 38 0 0 0
M  V30 BEGIN ATOM
M  V30 1 O 0.7805 2.8902 -0.6243 0
M  V30 2 C 0.531 1.6579 -0.5327 0
M  V30 3 O 1.5501 0.7585 -0.229 0
M  V30 4 C -0.8692 1.1515 -0.7506 0 CFG=2
M  V30 5 O 2.8101 1.1819 -0.0274 0
M  V30 6 C -1.3697 0.505 0.562 0
M  V30 7 C -0.8903 0.1699 -1.9542 0
M  V30 8 C 3.6062 0.0483 0.26 0
M  V30 9 C -2.8516 0.1074 0.5125 0
M  V30 10 C -2.0971 0.3912 -2.8678 0
M  V30 11 C 5.042 0.5446 0.489 0
M  V30 12 C 3.114 -0.6556 1.5429 0
M  V30 13 C 3.6052 -0.9371 -0.9283 0
M  V30 14 C -3.3457 -0.346 1.8914 0
M  V30 15 C -4.8123 -0.764 1.8414 0
M  V30 16 H -1.514 2.0329 -0.9714 0
M  V30 17 H -0.7566 -0.3926 0.8006 0
M  V30 18 H -1.2297 1.2366 1.3895 0
M  V30 19 H -0.8819 -0.8854 -1.6045 0
M  V30 20 H 0.0177 0.3002 -2.5848 0
M  V30 21 H -2.9846 -0.7303 -0.2046 0
M  V30 22 H -3.4589 0.9752 0.1731 0
M  V30 23 H -2.0776 -0.35 -3.694 0
M  V30 24 H -2.0598 1.4101 -3.3086 0
M  V30 25 H -3.0496 0.2739 -2.3136 0
M  V30 26 H 5.7244 -0.3018 0.7203 0
M  V30 27 H 5.4195 1.065 -0.4175 0
M  V30 28 H 5.0713 1.2636 1.336 0
M  V30 29 H 3.8021 -1.4814 1.8254 0
M  V30 30 H 2.1019 -1.09 1.397 0
M  V30 31 H 3.0643 0.0689 2.3838 0
M  V30 32 H 3.9091 -0.4149 -1.8606 0
M  V30 33 H 2.5949 -1.3717 -1.0856 0
M  V30 34 H 4.3119 -1.7747 -0.7433 0
M  V30 35 H -3.2346 0.4845 2.6223 0
M  V30 36 H -2.7374 -1.2079 2.2427 0
M  V30 37 H -4.9478 -1.6134 1.1386 0
M  V30 38 H -5.4455 0.0879 1.514 0
M  V30 39 H -5.1423 -1.0837 2.8523 0
M  V30 END ATOM
M  V30 BEGIN BOND
M  V30 1 2 1 2
M  V30 2 1 2 3
M  V30 3 1 2 4
M  V30 4 1 3 5
M  V30 5 1 4 6
M  V30 6 1 4 7
M  V30 7 1 5 8
M  V30 8 1 6 9
M  V30 9 1 7 10
M  V30 10 1 8 11
M  V30 11 1 8 12
M  V30 12 1 8 13
M  V30 13 1 9 14
M  V30 14 1 14 15
M  V30 15 1 4 16
M  V30 16 1 6 17
M  V30 17 1 6 18
M  V30 18 1 7 19
M  V30 19 1 7 20
M  V30 20 1 9 21
M  V30 21 1 9 22
M  V30 22 1 10 23
M  V30 23 1 10 24
M  V30 24 1 10 25
M  V30 25 1 11 26
M  V30 26 1 11 27
M  V30 27 1 11 28
M  V30 28 1 12 29
M  V30 29 1 12 30
M  V30 30 1 12 31
M  V30 31 1 13 32
M  V30 32 1 13 33
M  V30 33 1 13 34
M  V30 34 1 14 35
M  V30 35 1 14 36
M  V30 36 1 15 37
M  V30 37 1 15 38
M  V30 38 1 15 39
M  V30 END BOND
M  V30 BEGIN COLLECTION
M  V30 MDLV30/STEABS ATOMS=(1 4)
M  V30 END COLLECTION
M  V30 END CTAB
M  END
>  <Structure No>
378

>  <LogS>
-3.669517691

>  <MMFF94 Energy>
38.12

$$$$
Compound 379
Actelion Java MolfileCreator 2.0

  0  0  0  0  0  0              0 V3000
M  V30 BEGIN CTAB
M  V30 COUNTS 30 31 0 0 0
M  V30 BEGIN ATOM
M  V30 1 O 3.6148 -1.0432 -1.3644 0
M  V30 2 C 2.9741 -0.6901 -0.3867 0
M  V30 3 C 1.5829 -0.125 -0.5573 0 CFG=2
M  V30 4 C 1.0452 0.5102 0.7984 0 CFG=2
M  V30 5 C 0.6215 -1.2204 -1.1836 0
M  V30 6 C -0.3824 -0.0019 1.1633 0 CFG=1
M  V30 7 C 1.1495 2.0417 0.8284 0
M  V30 8 C -0.6924 -1.414 -0.3726 0 CFG=2
M  V30 9 C -1.3559 -0.0602 -0.0435 0
M  V30 10 C -0.2747 -1.5355 1.0964 0
M  V30 11 C -2.825 -0.2364 0.4235 0
M  V30 12 C -1.3382 1.0489 -1.1257 0
M  V30 13 H 3.4286 -0.7822 0.5941 0
M  V30 14 H 1.7013 0.6878 -1.3056 0
M  V30 15 H 1.691 0.1759 1.6418 0
M  V30 16 H 0.3679 -0.9482 -2.2306 0
M  V30 17 H 1.1285 -2.2092 -1.2397 0
M  V30 18 H -0.7999 0.3866 2.1183 0
M  V30 19 H 0.5835 2.522 0.0097 0
M  V30 20 H 0.7686 2.4305 1.7968 0
M  V30 21 H 2.2141 2.3426 0.7305 0
M  V30 22 H -1.3659 -2.2176 -0.7423 0
M  V30 23 H -1.041 -2.0473 1.7181 0
M  V30 24 H 0.7312 -1.9796 1.2796 0
M  V30 25 H -3.2086 0.7217 0.8349 0
M  V30 26 H -3.4651 -0.5339 -0.4343 0
M  V30 27 H -2.9446 -1.0074 1.2113 0
M  V30 28 H -1.6724 2.0095 -0.6797 0
M  V30 29 H -0.3719 1.2229 -1.6173 0
M  V30 30 H -2.0486 0.7841 -1.9374 0
M  V30 END ATOM
M  V30 BEGIN BOND
M  V30 1 2 1 2
M  V30 2 1 2 3
M  V30 3 1 3 4
M  V30 4 1 3 5
M  V30 5 1 4 6
M  V30 6 1 4 7
M  V30 7 1 5 8
M  V30 8 1 6 9
M  V30 9 1 6 10
M  V30 10 1 9 11
M  V30 11 1 9 12
M  V30 12 1 8 9
M  V30 13 1 8 10
M  V30 14 1 2 13
M  V30 15 1 3 14
M  V30 16 1 4 15
M  V30 17 1 5 16
M  V30 18 1 5 17
M  V30 19 1 6 18
M  V30 20 1 7 19
M  V30 21 1 7 20
M  V30 22 1 7 21
M  V30 23 1 8 22
M  V30 24 1 10 23
M  V30 25 1 10 24
M  V30 26 1 11 25
M  V30 27 1 11 26
M  V30 28 1 11 27
M  V30 29 1 12 28
M  V30 30 1 12 29
M  V30 31 1 12 30
M  V30 END BOND
M  V30 BEGIN COLLECTION
M  V30 MDLV30/STEABS ATOMS=(4 3 4 6 8)
M  V30 END COLLECTION
M  V30 END CTAB
M  END
>  <Structure No>
379

>  <LogS>
-3.558040393

>  <MMFF94 Energy>
41.208

$$$$
Compound 380
Actelion Java MolfileCreator 2.0

  0  0  0  0  0  0              0 V3000
M  V30 BEGIN CTAB
M  V30 COUNTS 28 28 0 0 0
M  V30 BEGIN ATOM
M  V30 1 O -2.5816 -1.0164 -1.0946 0
M  V30 2 C -2.2919 -0.2498 0.0511 0
M  V30 3 C -0.7575 -0.2447 0.273 0
M  V30 4 C -2.8284 1.187 -0.1265 0
M  V30 5 C -2.9646 -0.896 1.2787 0
M  V30 6 C 0.042 0.2997 -0.9231 0
M  V30 7 C 1.52 0.1415 -0.6835 0
M  V30 8 C 2.1832 -1.0284 -1.09 0
M  V30 9 C 2.2378 1.1373 3.0E-4 0
M  V30 10 C 3.5491 -1.1877 -0.8368 0
M  V30 11 C 3.6036 0.9741 0.2513 0
M  V30 12 C 4.2592 -0.1864 -0.1686 0
M  V30 13 H -3.5658 -1.0073 -1.2295 0
M  V30 14 H -0.4239 -1.2884 0.4703 0
M  V30 15 H -0.5117 0.3584 1.1757 0
M  V30 16 H -3.9395 1.1888 -0.1433 0
M  V30 17 H -2.4905 1.8392 0.7072 0
M  V30 18 H -2.4835 1.6207 -1.0879 0
M  V30 19 H -4.069 -0.916 1.1562 0
M  V30 20 H -2.6144 -1.9428 1.4056 0
M  V30 21 H -2.7254 -0.3265 2.2029 0
M  V30 22 H -0.2437 -0.2391 -1.8525 0
M  V30 23 H -0.1863 1.3754 -1.079 0
M  V30 24 H 1.6424 -1.816 -1.6002 0
M  V30 25 H 1.7393 2.0373 0.3393 0
M  V30 26 H 4.0565 -2.089 -1.1555 0
M  V30 27 H 4.1532 1.7459 0.7747 0
M  V30 28 H 5.3162 -0.3118 0.0277 0
M  V30 END ATOM
M  V30 BEGIN BOND
M  V30 1 1 1 2
M  V30 2 1 2 3
M  V30 3 1 2 4
M  V30 4 1 2 5
M  V30 5 1 3 6
M  V30 6 1 6 7
M  V30 7 2 7 8
M  V30 8 1 7 9
M  V30 9 1 8 10
M  V30 10 2 9 11
M  V30 11 2 10 12
M  V30 12 1 11 12
M  V30 13 1 1 13
M  V30 14 1 3 14
M  V30 15 1 3 15
M  V30 16 1 4 16
M  V30 17 1 4 17
M  V30 18 1 4 18
M  V30 19 1 5 19
M  V30 20 1 5 20
M  V30 21 1 5 21
M  V30 22 1 6 22
M  V30 23 1 6 23
M  V30 24 1 8 24
M  V30 25 1 9 25
M  V30 26 1 10 26
M  V30 27 1 11 27
M  V30 28 1 12 28
M  V30 END BOND
M  V30 END CTAB
M  END
>  <Structure No>
380

>  <LogS>
-1.555639677

>  <MMFF94 Energy>
29.68

$$$$
Compound 381
Actelion Java MolfileCreator 2.0

  0  0  0  0  0  0              0 V3000
M  V30 BEGIN CTAB
M  V30 COUNTS 20 20 0 0 0
M  V30 BEGIN ATOM
M  V30 1 O 4.5842 -0.4014 1.3655 0
M  V30 2 N 3.8537 -0.7745 0.4241 0 CHG=1
M  V30 3 O 4.4004 -1.5522 -0.5707 0 CHG=-1
M  V30 4 C 2.4644 -0.4009 0.3802 0
M  V30 5 C 1.902 0.395 1.3944 0
M  V30 6 C 1.6482 -0.8201 -0.6843 0
M  V30 7 C 0.5522 0.7552 1.3465 0
M  V30 8 C 0.298 -0.4596 -0.7295 0
M  V30 9 C -0.2637 0.3202 0.297 0
M  V30 10 O -1.6098 0.7159 0.2892 0
M  V30 11 C -2.66 0.0059 -0.3065 0
M  V30 12 O -2.5362 -1.2133 -0.6022 0
M  V30 13 C -3.9813 0.6728 -0.4846 0
M  V30 14 H 2.5053 0.7404 2.224 0
M  V30 15 H 2.055 -1.4202 -1.4878 0
M  V30 16 H 0.1353 1.3696 2.1345 0
M  V30 17 H -0.2928 -0.7666 -1.5812 0
M  V30 18 H -3.8388 1.7671 -0.6058 0
M  V30 19 H -4.6141 0.4841 0.4072 0
M  V30 20 H -4.4915 0.276 -1.3875 0
M  V30 END ATOM
M  V30 BEGIN BOND
M  V30 1 2 1 2
M  V30 2 1 2 3
M  V30 3 1 2 4
M  V30 4 2 4 5
M  V30 5 1 4 6
M  V30 6 1 5 7
M  V30 7 2 6 8
M  V30 8 2 7 9
M  V30 9 1 9 10
M  V30 10 1 10 11
M  V30 11 2 11 12
M  V30 12 1 11 13
M  V30 13 1 8 9
M  V30 14 1 5 14
M  V30 15 1 6 15
M  V30 16 1 7 16
M  V30 17 1 8 17
M  V30 18 1 13 18
M  V30 19 1 13 19
M  V30 20 1 13 20
M  V30 END BOND
M  V30 END CTAB
M  END
>  <Structure No>
381

>  <LogS>
-2.599256825

>  <MMFF94 Energy>
57.6

$$$$
Compound 382
Actelion Java MolfileCreator 2.0

  0  0  0  0  0  0              0 V3000
M  V30 BEGIN CTAB
M  V30 COUNTS 20 21 0 0 0
M  V30 BEGIN ATOM
M  V30 1 O 3.2687 -0.6371 1.5137 0
M  V30 2 C 2.6835 0.1961 0.7711 0
M  V30 3 C 1.265 0.0099 0.4322 0
M  V30 4 C 3.438 1.3718 0.2384 0
M  V30 5 O 0.5796 0.8366 -0.3387 0
M  V30 6 C 0.4599 -1.0417 0.8665 0
M  V30 7 C -0.6411 0.3692 -0.4268 0
M  V30 8 C -0.7662 -0.7863 0.2977 0
M  V30 9 C -1.7128 0.9097 -1.134 0
M  V30 10 C -1.9692 -1.4855 0.3689 0
M  V30 11 C -2.9433 0.2279 -1.0835 0
M  V30 12 C -3.071 -0.9644 -0.3352 0
M  V30 13 H 3.4342 1.3468 -0.8713 0
M  V30 14 H 4.4904 1.3539 0.5935 0
M  V30 15 H 2.9594 2.3116 0.5854 0
M  V30 16 H 0.7336 -1.8714 1.5053 0
M  V30 17 H -1.6028 1.8234 -1.7033 0
M  V30 18 H -2.0553 -2.3977 0.945 0
M  V30 19 H -3.7969 0.6196 -1.621 0
M  V30 20 H -4.0217 -1.4803 -0.3033 0
M  V30 END ATOM
M  V30 BEGIN BOND
M  V30 1 2 1 2
M  V30 2 1 2 3
M  V30 3 1 2 4
M  V30 4 1 3 5
M  V30 5 2 3 6
M  V30 6 1 5 7
M  V30 7 1 6 8
M  V30 8 1 7 9
M  V30 9 1 8 10
M  V30 10 2 9 11
M  V30 11 2 10 12
M  V30 12 2 7 8
M  V30 13 1 11 12
M  V30 14 1 4 13
M  V30 15 1 4 14
M  V30 16 1 4 15
M  V30 17 1 6 16
M  V30 18 1 9 17
M  V30 19 1 10 18
M  V30 20 1 11 19
M  V30 21 1 12 20
M  V30 END BOND
M  V30 END CTAB
M  END
>  <Structure No>
382

>  <LogS>
-2.548488397

>  <MMFF94 Energy>
36.262

$$$$
Compound 383
Actelion Java MolfileCreator 2.0

  0  0  0  0  0  0              0 V3000
M  V30 BEGIN CTAB
M  V30 COUNTS 16 16 0 0 0
M  V30 BEGIN ATOM
M  V30 1 Cl 0.0 3.3349 1.1663 0
M  V30 2 C 0.0021 1.6759 0.5876 0
M  V30 3 C 1.2075 0.9794 0.4306 0
M  V30 4 C -1.2128 1.0535 0.2839 0
M  V30 5 O 2.4123 1.6055 0.735 0 CHG=-1
M  V30 6 C 1.1964 -0.3469 -0.0328 0
M  V30 7 C -1.2403 -0.272 -0.1805 0
M  V30 8 N 2.4194 -1.0731 -0.1989 0
M  V30 9 C -0.0259 -0.965 -0.3355 0
M  V30 10 N -2.4939 -0.9078 -0.4916 0 CHG=1
M  V30 11 O -2.5259 -2.0856 -0.9048 0
M  V30 12 O -3.6804 -0.2273 -0.3388 0 CHG=-1
M  V30 13 H -2.1337 1.608 0.4117 0
M  V30 14 H 3.3433 -0.6381 0.0187 0
M  V30 15 H 2.4113 -2.0589 -0.5434 0
M  V30 16 H -0.026 -1.9873 -0.6922 0
M  V30 END ATOM
M  V30 BEGIN BOND
M  V30 1 1 1 2
M  V30 2 2 2 3
M  V30 3 1 2 4
M  V30 4 1 3 5
M  V30 5 1 3 6
M  V30 6 2 4 7
M  V30 7 1 6 8
M  V30 8 2 6 9
M  V30 9 1 7 10
M  V30 10 2 10 11
M  V30 11 1 10 12
M  V30 12 1 7 9
M  V30 13 1 4 13
M  V30 14 1 8 14
M  V30 15 1 8 15
M  V30 16 1 9 16
M  V30 END BOND
M  V30 END CTAB
M  END
>  <Structure No>
383

>  <LogS>
-2.699029836

>  <MMFF94 Energy>
24.12

$$$$
Compound 384
Actelion Java MolfileCreator 2.0

  0  0  0  0  0  0              0 V3000
M  V30 BEGIN CTAB
M  V30 COUNTS 44 44 0 0 0
M  V30 BEGIN ATOM
M  V30 1 O 0.5506 -0.2359 -0.6293 0
M  V30 2 C -0.3191 -0.7612 0.3608 0 CFG=1
M  V30 3 C 1.9022 -0.3222 -0.2158 0
M  V30 4 C -1.7472 -0.1237 0.2251 0 CFG=1
M  V30 5 C -0.3506 -2.3133 0.2375 0
M  V30 6 C 2.8067 0.2641 -1.3104 0 CFG=1
M  V30 7 C -1.7983 1.4492 0.0347 0
M  V30 8 C -2.5643 -0.9087 -0.8311 0
M  V30 9 C -1.7233 -2.9123 0.5534 0
M  V30 10 O 2.6343 1.6565 -1.3883 0
M  V30 11 C 4.2945 -0.0602 -1.0752 0
M  V30 12 C -3.1938 1.9769 0.4564 0
M  V30 13 C -0.7611 2.1506 0.9443 0
M  V30 14 C -1.5537 1.8835 -1.4308 0
M  V30 15 C -2.8052 -2.3701 -0.3978 0
M  V30 16 C 4.8633 0.5585 0.2038 0
M  V30 17 H 0.0323 -0.5089 1.3905 0
M  V30 18 H 2.0603 0.2513 0.7251 0
M  V30 19 H 2.1884 -1.3847 -0.0492 0
M  V30 20 H -2.2453 -0.3156 1.2038 0
M  V30 21 H 0.4018 -2.7554 0.9261 0
M  V30 22 H -0.0708 -2.6162 -0.7961 0
M  V30 23 H 2.5257 -0.2053 -2.2831 0
M  V30 24 H -2.0091 -0.9064 -1.795 0
M  V30 25 H -3.5504 -0.4384 -1.0179 0
M  V30 26 H -1.6753 -4.0193 0.4657 0
M  V30 27 H -1.992 -2.6736 1.606 0
M  V30 28 H 1.8152 1.8185 -1.9244 0
M  V30 29 H 4.8803 0.3204 -1.9401 0
M  V30 30 H 4.4363 -1.1625 -1.0398 0
M  V30 31 H -3.4198 1.7023 1.5095 0
M  V30 32 H -3.2375 3.0853 0.3782 0
M  V30 33 H -4.0003 1.5748 -0.1892 0
M  V30 34 H -0.9029 3.2532 0.9314 0
M  V30 35 H 0.2758 1.96 0.6047 0
M  V30 36 H -0.8636 1.8024 1.9947 0
M  V30 37 H -0.5853 1.518 -1.8177 0
M  V30 38 H -2.3572 1.5101 -2.0999 0
M  V30 39 H -1.5474 2.9924 -1.5104 0
M  V30 40 H -3.7914 -2.4475 0.1101 0
M  V30 41 H -2.851 -3.0094 -1.3065 0
M  V30 42 H 5.9553 0.3633 0.2522 0
M  V30 43 H 4.7032 1.6573 0.215 0
M  V30 44 H 4.3936 0.106 1.1018 0
M  V30 END ATOM
M  V30 BEGIN BOND
M  V30 1 1 1 2
M  V30 2 1 1 3
M  V30 3 1 2 4
M  V30 4 1 2 5
M  V30 5 1 3 6
M  V30 6 1 4 7
M  V30 7 1 4 8
M  V30 8 1 5 9
M  V30 9 1 6 10
M  V30 10 1 6 11
M  V30 11 1 7 12
M  V30 12 1 7 13
M  V30 13 1 7 14
M  V30 14 1 8 15
M  V30 15 1 11 16
M  V30 16 1 9 15
M  V30 17 1 2 17
M  V30 18 1 3 18
M  V30 19 1 3 19
M  V30 20 1 4 20
M  V30 21 1 5 21
M  V30 22 1 5 22
M  V30 23 1 6 23
M  V30 24 1 8 24
M  V30 25 1 8 25
M  V30 26 1 9 26
M  V30 27 1 9 27
M  V30 28 1 10 28
M  V30 29 1 11 29
M  V30 30 1 11 30
M  V30 31 1 12 31
M  V30 32 1 12 32
M  V30 33 1 12 33
M  V30 34 1 13 34
M  V30 35 1 13 35
M  V30 36 1 13 36
M  V30 37 1 14 37
M  V30 38 1 14 38
M  V30 39 1 14 39
M  V30 40 1 15 40
M  V30 41 1 15 41
M  V30 42 1 16 42
M  V30 43 1 16 43
M  V30 44 1 16 44
M  V30 END BOND
M  V30 BEGIN COLLECTION
M  V30 MDLV30/STEABS ATOMS=(3 2 4 6)
M  V30 END COLLECTION
M  V30 END CTAB
M  END
>  <Structure No>
384

>  <LogS>
-3.698734262

>  <MMFF94 Energy>
49.299

$$$$
Compound 385
Actelion Java MolfileCreator 2.0

  0  0  0  0  0  0              0 V3000
M  V30 BEGIN CTAB
M  V30 COUNTS 32 32 0 0 0
M  V30 BEGIN ATOM
M  V30 1 O -0.3935 2.2054 -0.3148 0
M  V30 2 O -0.1735 3.1912 0.5375 0
M  V30 3 C 0.1192 1.0298 0.2726 0 CFG=1
M  V30 4 C -0.6435 -0.2151 -0.2873 0 CFG=2
M  V30 5 C 1.6286 0.9729 -0.0422 0
M  V30 6 C -2.1477 -0.2583 0.1755 0
M  V30 7 C 0.0798 -1.5233 0.1394 0
M  V30 8 C 2.2706 -0.3272 0.4535 0 CFG=1
M  V30 9 C -2.9439 0.9945 -0.2378 0
M  V30 10 C -2.8839 -1.5017 -0.3652 0
M  V30 11 C 1.5704 -1.5201 -0.2013 0
M  V30 12 C 3.7708 -0.3434 0.1389 0
M  V30 13 H 0.4986 3.7672 0.0912 0
M  V30 14 H -0.0171 1.0384 1.3817 0
M  V30 15 H -0.6196 -0.1618 -1.3993 0
M  V30 16 H 2.1332 1.834 0.4482 0
M  V30 17 H 1.779 1.0731 -1.1408 0
M  V30 18 H -2.1754 -0.3152 1.2867 0
M  V30 19 H -0.3591 -2.394 -0.3902 0
M  V30 20 H -0.045 -1.6849 1.2332 0
M  V30 21 H 2.1509 -0.3937 1.5586 0
M  V30 22 H -2.7669 1.2388 -1.3069 0
M  V30 23 H -4.0345 0.8448 -0.0882 0
M  V30 24 H -2.6728 1.8589 0.4015 0
M  V30 25 H -2.743 -1.5931 -1.4635 0
M  V30 26 H -3.9726 -1.4459 -0.1509 0
M  V30 27 H -2.5246 -2.4244 0.1345 0
M  V30 28 H 1.6981 -1.4845 -1.3064 0
M  V30 29 H 2.023 -2.4671 0.1664 0
M  V30 30 H 4.2742 0.5145 0.6334 0
M  V30 31 H 4.2307 -1.28 0.5201 0
M  V30 32 H 3.9446 -0.2785 -0.9567 0
M  V30 END ATOM
M  V30 BEGIN BOND
M  V30 1 1 1 2
M  V30 2 1 1 3
M  V30 3 1 3 4
M  V30 4 1 3 5
M  V30 5 1 4 6
M  V30 6 1 4 7
M  V30 7 1 5 8
M  V30 8 1 6 9
M  V30 9 1 6 10
M  V30 10 1 7 11
M  V30 11 1 8 12
M  V30 12 1 8 11
M  V30 13 1 2 13
M  V30 14 1 3 14
M  V30 15 1 4 15
M  V30 16 1 5 16
M  V30 17 1 5 17
M  V30 18 1 6 18
M  V30 19 1 7 19
M  V30 20 1 7 20
M  V30 21 1 8 21
M  V30 22 1 9 22
M  V30 23 1 9 23
M  V30 24 1 9 24
M  V30 25 1 10 25
M  V30 26 1 10 26
M  V30 27 1 10 27
M  V30 28 1 11 28
M  V30 29 1 11 29
M  V30 30 1 12 30
M  V30 31 1 12 31
M  V30 32 1 12 32
M  V30 END BOND
M  V30 BEGIN COLLECTION
M  V30 MDLV30/STEABS ATOMS=(3 3 4 8)
M  V30 END COLLECTION
M  V30 END CTAB
M  END
>  <Structure No>
385

>  <LogS>
-2.588821642

>  <MMFF94 Energy>
28.214

$$$$
Compound 386
Actelion Java MolfileCreator 2.0

  0  0  0  0  0  0              0 V3000
M  V30 BEGIN CTAB
M  V30 COUNTS 31 31 0 0 0
M  V30 BEGIN ATOM
M  V30 1 Cl 5.5981 -1.0378 -0.399 0
M  V30 2 C 3.9633 -0.3872 -0.2478 0
M  V30 3 C 2.8597 -1.2605 -0.1374 0
M  V30 4 C 3.7536 1.0088 -0.2366 0
M  V30 5 N 3.0302 -2.6845 -0.145 0
M  V30 6 C 1.5662 -0.7332 -0.0177 0
M  V30 7 N 4.848 1.9295 -0.3464 0
M  V30 8 C 2.4516 1.5145 -0.1161 0
M  V30 9 C 1.3502 0.6523 -0.0056 0
M  V30 10 C -0.0223 1.1918 0.1205 0
M  V30 11 O -0.2173 2.4389 0.1183 0
M  V30 12 O -1.1056 0.3151 0.2418 0
M  V30 13 C -2.4536 0.763 0.3512 0
M  V30 14 C -3.3991 -0.442 0.4638 0
M  V30 15 C -4.8375 0.0273 0.7108 0
M  V30 16 C -3.3324 -1.3147 -0.7962 0
M  V30 17 H 3.9677 -3.1329 -0.2314 0
M  V30 18 H 2.2035 -3.3176 -0.0627 0
M  V30 19 H 0.727 -1.4131 0.0655 0
M  V30 20 H 5.8369 1.6112 -0.4383 0
M  V30 21 H 4.6768 2.9599 -0.3367 0
M  V30 22 H 2.3022 2.5875 -0.1087 0
M  V30 23 H -2.7182 1.3741 -0.54 0
M  V30 24 H -2.5507 1.398 1.2594 0
M  V30 25 H -3.0825 -1.0583 1.3342 0
M  V30 26 H -5.5124 -0.8479 0.8231 0
M  V30 27 H -5.1973 0.652 -0.135 0
M  V30 28 H -4.8908 0.6246 1.646 0
M  V30 29 H -4.013 -2.1867 -0.6944 0
M  V30 30 H -3.6297 -0.7311 -1.6941 0
M  V30 31 H -2.302 -1.7016 -0.9446 0
M  V30 END ATOM
M  V30 BEGIN BOND
M  V30 1 1 1 2
M  V30 2 2 2 3
M  V30 3 1 2 4
M  V30 4 1 3 5
M  V30 5 1 3 6
M  V30 6 1 4 7
M  V30 7 2 4 8
M  V30 8 2 6 9
M  V30 9 1 9 10
M  V30 10 2 10 11
M  V30 11 1 10 12
M  V30 12 1 12 13
M  V30 13 1 13 14
M  V30 14 1 14 15
M  V30 15 1 14 16
M  V30 16 1 8 9
M  V30 17 1 5 17
M  V30 18 1 5 18
M  V30 19 1 6 19
M  V30 20 1 7 20
M  V30 21 1 7 21
M  V30 22 1 8 22
M  V30 23 1 13 23
M  V30 24 1 13 24
M  V30 25 1 14 25
M  V30 26 1 15 26
M  V30 27 1 15 27
M  V30 28 1 15 28
M  V30 29 1 16 29
M  V30 30 1 16 30
M  V30 31 1 16 31
M  V30 END BOND
M  V30 END CTAB
M  END
>  <Structure No>
386

>  <LogS>
-2.738284824

>  <MMFF94 Energy>
58.147

$$$$
Compound 387
Actelion Java MolfileCreator 2.0

  0  0  0  0  0  0              0 V3000
M  V30 BEGIN CTAB
M  V30 COUNTS 31 32 0 0 0
M  V30 BEGIN ATOM
M  V30 1 O 0.3993 -0.3194 -2.2379 0
M  V30 2 C 0.553 -0.2114 -0.9892 0
M  V30 3 C 1.9368 -0.0734 -0.4686 0
M  V30 4 C -0.6831 -0.1844 -0.0947 0
M  V30 5 C 2.9746 -0.817 -1.0588 0
M  V30 6 C 2.2483 0.8221 0.5723 0
M  V30 7 O -0.2773 -0.3827 1.2423 0
M  V30 8 C -1.6662 -1.3384 -0.5071 0
M  V30 9 C -1.3435 1.2135 -0.2407 0
M  V30 10 C 4.2888 -0.6894 -0.5987 0
M  V30 11 C 3.5643 0.9465 1.0284 0
M  V30 12 C -3.1191 -0.8777 -0.7082 0
M  V30 13 C -2.6901 1.3314 0.4988 0
M  V30 14 C 4.583 0.1894 0.4459 0
M  V30 15 C -3.5601 0.0609 0.4162 0
M  V30 16 H 2.7654 -1.5051 -1.8688 0
M  V30 17 H 1.4842 1.4406 1.0227 0
M  V30 18 H -1.0838 -0.4061 1.8193 0
M  V30 19 H -1.6573 -2.1327 0.2721 0
M  V30 20 H -1.348 -1.8489 -1.4415 0
M  V30 21 H -1.5205 1.4256 -1.3191 0
M  V30 22 H -0.6586 2.0043 0.1339 0
M  V30 23 H 5.0796 -1.2719 -1.0535 0
M  V30 24 H 3.7955 1.6364 1.8299 0
M  V30 25 H -3.2175 -0.3583 -1.6866 0
M  V30 26 H -3.7871 -1.766 -0.731 0
M  V30 27 H -3.2516 2.1893 0.0681 0
M  V30 28 H -2.5039 1.5743 1.5678 0
M  V30 29 H 5.6009 0.2881 0.7999 0
M  V30 30 H -3.5115 -0.4878 1.3823 0
M  V30 31 H -4.6219 0.3489 0.2565 0
M  V30 END ATOM
M  V30 BEGIN BOND
M  V30 1 2 1 2
M  V30 2 1 2 3
M  V30 3 1 2 4
M  V30 4 2 3 5
M  V30 5 1 3 6
M  V30 6 1 4 7
M  V30 7 1 4 8
M  V30 8 1 4 9
M  V30 9 1 5 10
M  V30 10 2 6 11
M  V30 11 1 8 12
M  V30 12 1 9 13
M  V30 13 2 10 14
M  V30 14 1 12 15
M  V30 15 1 11 14
M  V30 16 1 13 15
M  V30 17 1 5 16
M  V30 18 1 6 17
M  V30 19 1 7 18
M  V30 20 1 8 19
M  V30 21 1 8 20
M  V30 22 1 9 21
M  V30 23 1 9 22
M  V30 24 1 10 23
M  V30 25 1 11 24
M  V30 26 1 12 25
M  V30 27 1 12 26
M  V30 28 1 13 27
M  V30 29 1 13 28
M  V30 30 1 14 29
M  V30 31 1 15 30
M  V30 32 1 15 31
M  V30 END BOND
M  V30 END CTAB
M  END
>  <Structure No>
387

>  <LogS>
-2.664780194

>  <MMFF94 Energy>
68.827

$$$$
Compound 388
Actelion Java MolfileCreator 2.0

  0  0  0  0  0  0              0 V3000
M  V30 BEGIN CTAB
M  V30 COUNTS 20 20 0 0 0
M  V30 BEGIN ATOM
M  V30 1 N 1.9242 0.3846 0.0 0
M  V30 2 N 3.2555 -0.004 -0.263 0 CHG=1
M  V30 3 C 0.9963 -0.5856 -0.594 0
M  V30 4 C -0.4158 -0.2351 -0.2146 0
M  V30 5 C -0.9495 -0.6748 1.0082 0
M  V30 6 C -1.1926 0.5852 -1.0497 0
M  V30 7 C -2.2511 -0.3202 1.3765 0
M  V30 8 C -2.4938 0.9375 -0.6775 0
M  V30 9 C -3.0235 0.4833 0.5333 0
M  V30 10 H 1.7655 1.3118 -0.4632 0
M  V30 11 H 3.4505 -0.9221 0.1991 0
M  V30 12 H 3.8941 0.7144 0.148 0
M  V30 13 H 3.4224 -0.0624 -1.2955 0
M  V30 14 H 1.2281 -1.6101 -0.2271 0
M  V30 15 H 1.1033 -0.5945 -1.7023 0
M  V30 16 H -0.3581 -1.2902 1.6747 0
M  V30 17 H -0.7911 0.9518 -1.9862 0
M  V30 18 H -2.6598 -0.6655 2.3173 0
M  V30 19 H -3.0902 1.5657 -1.3263 0
M  V30 20 H -4.0303 0.758 0.8205 0
M  V30 END ATOM
M  V30 BEGIN BOND
M  V30 1 1 1 2
M  V30 2 1 1 3
M  V30 3 1 3 4
M  V30 4 2 4 5
M  V30 5 1 4 6
M  V30 6 1 5 7
M  V30 7 2 6 8
M  V30 8 2 7 9
M  V30 9 1 8 9
M  V30 10 1 1 10
M  V30 11 1 2 11
M  V30 12 1 2 12
M  V30 13 1 2 13
M  V30 14 1 3 14
M  V30 15 1 3 15
M  V30 16 1 5 16
M  V30 17 1 6 17
M  V30 18 1 7 18
M  V30 19 1 8 19
M  V30 20 1 9 20
M  V30 END BOND
M  V30 END CTAB
M  END
>  <Structure No>
388

>  <LogS>
-1.646789011

>  <MMFF94 Energy>
105.3

$$$$
Compound 389
Actelion Java MolfileCreator 2.0

  0  0  0  0  0  0              0 V3000
M  V30 BEGIN CTAB
M  V30 COUNTS 51 55 0 0 0
M  V30 BEGIN ATOM
M  V30 1 O 2.1927 2.1927 4.0635 0
M  V30 2 C 1.9545 1.2644 3.2454 0
M  V30 3 O 0.6379 0.925 2.9676 0 CHG=-1
M  V30 4 C 3.0609 0.4616 2.6991 0
M  V30 5 C 3.1689 0.0711 1.344 0
M  V30 6 C 4.0401 -0.0299 3.5918 0
M  V30 7 N 2.4749 0.4575 0.2475 0
M  V30 8 C 4.1555 -0.7934 0.9346 0
M  V30 9 C 5.0523 -0.9048 3.15 0
M  V30 10 C 3.0595 -0.2189 -0.7744 0
M  V30 11 C 1.4406 1.4863 0.0882 0
M  V30 12 N 4.0975 -1.002 -0.3917 0
M  V30 13 C 5.1098 -1.3042 1.8082 0
M  V30 14 O 2.6302 -0.1039 -2.1019 0
M  V30 15 C 0.0355 0.9272 0.1358 0
M  V30 16 C 3.2489 -0.7897 -3.1861 0
M  V30 17 C -0.2431 -0.4428 -0.0342 0
M  V30 18 C -1.0342 1.819 0.3061 0
M  V30 19 C 4.5717 -0.1317 -3.5557 0
M  V30 20 C -1.5624 -0.9052 -0.0152 0
M  V30 21 C -2.3517 1.3575 0.3267 0
M  V30 22 C -2.6264 -0.0077 0.1551 0
M  V30 23 C -4.0234 -0.4983 0.1861 0
M  V30 24 C -5.0242 3.0E-4 -0.6908 0
M  V30 25 C -4.3756 -1.4406 1.1682 0
M  V30 26 C -4.7153 0.9215 -1.8107 0
M  V30 27 C -6.3545 -0.4241 -0.5201 0
M  V30 28 C -5.6984 -1.8627 1.3078 0
M  V30 29 N -3.5348 0.9787 -2.4579 0
M  V30 30 N -5.5984 1.7839 -2.3493 0 CHG=-1
M  V30 31 C -6.687 -1.3482 0.4721 0
M  V30 32 N -3.7037 1.9017 -3.3898 0
M  V30 33 N -4.9364 2.381 -3.3266 0
M  V30 34 H 4.0046 0.2368 4.6416 0
M  V30 35 H 5.7868 -1.2765 3.8528 0
M  V30 36 H 1.5722 2.2792 0.8534 0
M  V30 37 H 1.5748 1.9943 -0.8933 0
M  V30 38 H 5.8878 -1.9713 1.4584 0
M  V30 39 H 3.4078 -1.8579 -2.9266 0
M  V30 40 H 2.5713 -0.745 -4.0654 0
M  V30 41 H 0.5495 -1.1622 -0.1806 0
M  V30 42 H -0.8471 2.88 0.4264 0
M  V30 43 H 4.4069 0.9376 -3.8071 0
M  V30 44 H 5.2892 -0.2011 -2.7114 0
M  V30 45 H 5.008 -0.644 -4.439 0
M  V30 46 H -1.7564 -1.9636 -0.1455 0
M  V30 47 H -3.1597 2.0639 0.4741 0
M  V30 48 H -3.627 -1.8289 1.8494 0
M  V30 49 H -7.1367 -0.0611 -1.1747 0
M  V30 50 H -5.9583 -2.5822 2.0752 0
M  V30 51 H -7.7132 -1.6749 0.5859 0
M  V30 END ATOM
M  V30 BEGIN BOND
M  V30 1 2 1 2
M  V30 2 1 2 3
M  V30 3 1 2 4
M  V30 4 2 4 5
M  V30 5 1 4 6
M  V30 6 1 5 7
M  V30 7 1 5 8
M  V30 8 2 6 9
M  V30 9 1 7 10
M  V30 10 1 7 11
M  V30 11 1 8 12
M  V30 12 2 8 13
M  V30 13 1 10 14
M  V30 14 1 11 15
M  V30 15 1 14 16
M  V30 16 2 15 17
M  V30 17 1 15 18
M  V30 18 1 16 19
M  V30 19 1 17 20
M  V30 20 2 18 21
M  V30 21 2 20 22
M  V30 22 1 22 23
M  V30 23 2 23 24
M  V30 24 1 23 25
M  V30 25 1 24 26
M  V30 26 1 24 27
M  V30 27 2 25 28
M  V30 28 2 26 29
M  V30 29 1 26 30
M  V30 30 2 27 31
M  V30 31 1 29 32
M  V30 32 1 30 33
M  V30 33 1 9 13
M  V30 34 2 10 12
M  V30 35 1 21 22
M  V30 36 1 28 31
M  V30 37 2 32 33
M  V30 38 1 6 34
M  V30 39 1 9 35
M  V30 40 1 11 36
M  V30 41 1 11 37
M  V30 42 1 13 38
M  V30 43 1 16 39
M  V30 44 1 16 40
M  V30 45 1 17 41
M  V30 46 1 18 42
M  V30 47 1 19 43
M  V30 48 1 19 44
M  V30 49 1 19 45
M  V30 50 1 20 46
M  V30 51 1 21 47
M  V30 52 1 25 48
M  V30 53 1 27 49
M  V30 54 1 28 50
M  V30 55 1 31 51
M  V30 END BOND
M  V30 END CTAB
M  END
>  <Structure No>
389

>  <LogS>
-6.497781397

>  <MMFF94 Energy>
121.51

$$$$
Compound 390
Actelion Java MolfileCreator 2.0

  0  0  0  0  0  0              0 V3000
M  V30 BEGIN CTAB
M  V30 COUNTS 9 9 0 0 0
M  V30 BEGIN ATOM
M  V30 1 Cl -2.3266 -2.0472 0.279 0
M  V30 2 C -1.0126 -0.915 0.046 0
M  V30 3 N 0.1756 -1.3469 -0.4459 0
M  V30 4 N -1.1823 0.3946 0.3577 0
M  V30 5 C 1.1944 -0.469 -0.6264 0
M  V30 6 C -0.1635 1.2723 0.177 0
M  V30 7 Cl 2.727 -1.0261 -1.2611 0
M  V30 8 N 1.0248 0.8406 -0.3149 0
M  V30 9 Cl -0.3823 2.9616 0.5789 0
M  V30 END ATOM
M  V30 BEGIN BOND
M  V30 1 1 1 2
M  V30 2 2 2 3
M  V30 3 1 2 4
M  V30 4 1 3 5
M  V30 5 2 4 6
M  V30 6 1 5 7
M  V30 7 2 5 8
M  V30 8 1 6 9
M  V30 9 1 6 8
M  V30 END BOND
M  V30 END CTAB
M  END
>  <Structure No>
390

>  <LogS>
-2.622338856

>  <MMFF94 Energy>
-148.75

$$$$
Compound 391
Actelion Java MolfileCreator 2.0

  0  0  0  0  0  0              0 V3000
M  V30 BEGIN CTAB
M  V30 COUNTS 56 57 0 0 0
M  V30 BEGIN ATOM
M  V30 1 O -3.0918 -0.0791 3.4888 0
M  V30 2 C -2.5506 0.009 2.1968 0
M  V30 3 C -2.3323 0.0134 4.6898 0
M  V30 4 C -1.1833 0.1971 1.9705 0
M  V30 5 C -3.4183 -0.099 1.109 0
M  V30 6 C -0.6845 0.2775 0.6684 0
M  V30 7 C -2.9585 -0.0165 -0.2292 0
M  V30 8 C -1.5641 0.1893 -0.4352 0
M  V30 9 C 0.7713 0.4598 0.4839 0
M  V30 10 C -3.9403 -0.14 -1.4277 0
M  V30 11 O -1.0608 0.3129 -1.7329 0
M  V30 12 C 1.5936 -0.5899 0.0139 0
M  V30 13 C 1.3284 1.7034 0.7904 0
M  V30 14 C -3.9326 1.1642 -2.2575 0
M  V30 15 C -5.4076 -0.3836 -0.9877 0
M  V30 16 C -3.5392 -1.336 -2.3224 0
M  V30 17 O 1.0337 -1.8428 -0.2499 0
M  V30 18 C 2.9884 -0.3778 -0.1834 0
M  V30 19 C 2.6977 1.9301 0.6176 0
M  V30 20 C 3.5083 0.9021 0.1344 0
M  V30 21 C 3.9072 -1.5101 -0.7213 0
M  V30 22 O 3.2965 3.1651 0.9116 0
M  V30 23 C 3.4229 -1.9698 -2.1162 0
M  V30 24 C 5.3844 -1.0666 -0.8849 0
M  V30 25 C 3.9048 -2.7065 0.2576 0
M  V30 26 C 2.5985 4.3018 1.4106 0
M  V30 27 H -1.8273 1.0007 4.7471 0
M  V30 28 H -3.0144 -0.0873 5.5587 0
M  V30 29 H -1.5817 -0.8037 4.7308 0
M  V30 30 H -0.4951 0.2743 2.8025 0
M  V30 31 H -4.4604 -0.247 1.3456 0
M  V30 32 H -0.0882 0.4989 -1.9409 0
M  V30 33 H 0.6835 2.4922 1.1561 0
M  V30 34 H -4.1485 2.0372 -1.6042 0
M  V30 35 H -4.7055 1.1281 -3.0558 0
M  V30 36 H -2.9636 1.3393 -2.7632 0
M  V30 37 H -5.7871 0.4652 -0.3785 0
M  V30 38 H -6.0774 -0.4761 -1.8705 0
M  V30 39 H -5.4972 -1.3276 -0.4076 0
M  V30 40 H -4.2943 -1.5023 -3.1211 0
M  V30 41 H -3.4667 -2.2637 -1.7146 0
M  V30 42 H -2.5701 -1.1781 -2.8333 0
M  V30 43 H 0.0591 -2.0649 -0.092 0
M  V30 44 H 4.5548 1.1371 0.0181 0
M  V30 45 H 4.133 -2.7016 -2.5592 0
M  V30 46 H 2.4367 -2.471 -2.0798 0
M  V30 47 H 3.3475 -1.0994 -2.8034 0
M  V30 48 H 6.0079 -1.8982 -1.28 0
M  V30 49 H 5.469 -0.2229 -1.6038 0
M  V30 50 H 5.8214 -0.7679 0.0925 0
M  V30 51 H 2.9192 -3.2078 0.3121 0
M  V30 52 H 4.1813 -2.3681 1.2796 0
M  V30 53 H 4.637 -3.4793 -0.0624 0
M  V30 54 H 1.8228 4.6231 0.6837 0
M  V30 55 H 2.1309 4.0636 2.3893 0
M  V30 56 H 3.3172 5.1344 1.5537 0
M  V30 END ATOM
M  V30 BEGIN BOND
M  V30 1 1 1 2
M  V30 2 1 1 3
M  V30 3 2 2 4
M  V30 4 1 2 5
M  V30 5 1 4 6
M  V30 6 2 5 7
M  V30 7 2 6 8
M  V30 8 1 6 9
M  V30 9 1 7 10
M  V30 10 1 8 11
M  V30 11 2 9 12
M  V30 12 1 9 13
M  V30 13 1 10 14
M  V30 14 1 10 15
M  V30 15 1 10 16
M  V30 16 1 12 17
M  V30 17 1 12 18
M  V30 18 2 13 19
M  V30 19 2 18 20
M  V30 20 1 18 21
M  V30 21 1 19 22
M  V30 22 1 21 23
M  V30 23 1 21 24
M  V30 24 1 21 25
M  V30 25 1 22 26
M  V30 26 1 7 8
M  V30 27 1 19 20
M  V30 28 1 3 27
M  V30 29 1 3 28
M  V30 30 1 3 29
M  V30 31 1 4 30
M  V30 32 1 5 31
M  V30 33 1 11 32
M  V30 34 1 13 33
M  V30 35 1 14 34
M  V30 36 1 14 35
M  V30 37 1 14 36
M  V30 38 1 15 37
M  V30 39 1 15 38
M  V30 40 1 15 39
M  V30 41 1 16 40
M  V30 42 1 16 41
M  V30 43 1 16 42
M  V30 44 1 17 43
M  V30 45 1 20 44
M  V30 46 1 23 45
M  V30 47 1 23 46
M  V30 48 1 23 47
M  V30 49 1 24 48
M  V30 50 1 24 49
M  V30 51 1 24 50
M  V30 52 1 25 51
M  V30 53 1 25 52
M  V30 54 1 25 53
M  V30 55 1 26 54
M  V30 56 1 26 55
M  V30 57 1 26 56
M  V30 END BOND
M  V30 END CTAB
M  END
>  <Structure No>
391

>  <LogS>
-6.776311258

>  <MMFF94 Energy>
81.005

$$$$
Compound 392
Actelion Java MolfileCreator 2.0

  0  0  0  0  0  0              0 V3000
M  V30 BEGIN CTAB
M  V30 COUNTS 31 33 0 0 0
M  V30 BEGIN ATOM
M  V30 1 S -0.8399 1.008 1.7645 0
M  V30 2 O -0.6145 0.1818 3.0011 0
M  V30 3 O -0.7248 2.4697 2.0969 0
M  V30 4 C 0.2432 0.5343 0.3809 0 CFG=2
M  V30 5 C -2.4147 0.6817 1.0088 0 CFG=1
M  V30 6 C -0.7203 0.4358 -0.8612 0 CFG=1
M  V30 7 C 0.8533 -0.8597 0.7051 0
M  V30 8 C 1.3724 1.5773 0.2186 0
M  V30 9 N -2.0387 0.2157 -0.2949 0 CFG=1
M  V30 10 C -3.0876 -0.5418 1.355 0
M  V30 11 C -0.7598 1.6791 -1.7095 0
M  V30 12 N 1.7747 -1.3325 -0.3296 0
M  V30 13 C -2.8154 -1.0176 -0.0344 0
M  V30 14 O -0.14 1.7137 -2.8049 0
M  V30 15 O -1.4411 2.8097 -1.2731 0 CHG=-1
M  V30 16 N 1.4315 -2.0996 -1.3513 0
M  V30 17 C 3.1001 -1.1181 -0.3891 0
M  V30 18 O -3.0706 -2.0641 -0.685 0
M  V30 19 N 2.4949 -2.3842 -2.0889 0
M  V30 20 C 3.5515 -1.7807 -1.508 0
M  V30 21 H -3.0796 1.5718 0.9469 0
M  V30 22 H -0.4675 -0.421 -1.5177 0
M  V30 23 H 0.0389 -1.6065 0.8325 0
M  V30 24 H 1.3994 -0.8144 1.6732 0
M  V30 25 H 2.0562 1.5473 1.0936 0
M  V30 26 H 0.9638 2.6066 0.1443 0
M  V30 27 H 1.9589 1.3799 -0.7026 0
M  V30 28 H -4.1754 -0.4059 1.5365 0
M  V30 29 H -2.5704 -1.172 2.1086 0
M  V30 30 H 3.6811 -0.5392 0.3169 0
M  V30 31 H 4.569 -1.8275 -1.8712 0
M  V30 END ATOM
M  V30 BEGIN BOND
M  V30 1 2 1 2
M  V30 2 2 1 3
M  V30 3 1 1 4
M  V30 4 1 1 5
M  V30 5 1 4 6
M  V30 6 1 4 7
M  V30 7 1 4 8
M  V30 8 1 5 9
M  V30 9 1 5 10
M  V30 10 1 6 11
M  V30 11 1 7 12
M  V30 12 1 9 13
M  V30 13 2 11 14
M  V30 14 1 11 15
M  V30 15 1 12 16
M  V30 16 1 12 17
M  V30 17 2 13 18
M  V30 18 2 16 19
M  V30 19 2 17 20
M  V30 20 1 6 9
M  V30 21 1 10 13
M  V30 22 1 19 20
M  V30 23 1 5 21
M  V30 24 1 6 22
M  V30 25 1 7 23
M  V30 26 1 7 24
M  V30 27 1 8 25
M  V30 28 1 8 26
M  V30 29 1 8 27
M  V30 30 1 10 28
M  V30 31 1 10 29
M  V30 32 1 17 30
M  V30 33 1 20 31
M  V30 END BOND
M  V30 BEGIN COLLECTION
M  V30 MDLV30/STEABS ATOMS=(4 4 5 6 9)
M  V30 END COLLECTION
M  V30 END CTAB
M  END
>  <Structure No>
392

>  <LogS>
-1.838461676

>  <MMFF94 Energy>
-4.2454

$$$$
Compound 393
Actelion Java MolfileCreator 2.0

  0  0  0  0  0  0              0 V3000
M  V30 BEGIN CTAB
M  V30 COUNTS 19 19 0 0 0
M  V30 BEGIN ATOM
M  V30 1 O -3.4549 -0.9413 -0.9413 0
M  V30 2 C -2.2018 -0.8212 -0.9965 0
M  V30 3 N -1.4856 -0.0825 0.0085 0
M  V30 4 C -0.0479 0.0081 -0.0631 0
M  V30 5 C -2.2019 0.4414 1.1757 0
M  V30 6 C 0.5873 0.2996 -1.2843 0
M  V30 7 C 0.7411 -0.1873 1.0859 0
M  V30 8 C 1.9809 0.3903 -1.3535 0
M  V30 9 C 2.1345 -0.0964 1.0114 0
M  V30 10 C 2.7537 0.1919 -0.2069 0
M  V30 11 H -1.6693 -1.2946 -1.8113 0
M  V30 12 H -1.6213 1.2566 1.6586 0
M  V30 13 H -2.3682 -0.3747 1.9098 0
M  V30 14 H -3.1817 0.8671 0.8715 0
M  V30 15 H 0.0033 0.4724 -2.1793 0
M  V30 16 H 0.28 -0.424 2.0362 0
M  V30 17 H 2.4616 0.6179 -2.2961 0
M  V30 18 H 2.7344 -0.2519 1.8987 0
M  V30 19 H 3.8324 0.2624 -0.2624 0
M  V30 END ATOM
M  V30 BEGIN BOND
M  V30 1 2 1 2
M  V30 2 1 2 3
M  V30 3 1 3 4
M  V30 4 1 3 5
M  V30 5 2 4 6
M  V30 6 1 4 7
M  V30 7 1 6 8
M  V30 8 2 7 9
M  V30 9 2 8 10
M  V30 10 1 9 10
M  V30 11 1 2 11
M  V30 12 1 5 12
M  V30 13 1 5 13
M  V30 14 1 5 14
M  V30 15 1 6 15
M  V30 16 1 7 16
M  V30 17 1 8 17
M  V30 18 1 9 18
M  V30 19 1 10 19
M  V30 END BOND
M  V30 END CTAB
M  END
>  <Structure No>
393

>  <LogS>
-1.494780947

>  <MMFF94 Energy>
6.4635

$$$$
Compound 394
Actelion Java MolfileCreator 2.0

  0  0  0  0  0  0              0 V3000
M  V30 BEGIN CTAB
M  V30 COUNTS 20 20 0 0 0
M  V30 BEGIN ATOM
M  V30 1 S -2.1081 1.5808 0.7023 0
M  V30 2 O -3.0255 1.8386 -0.4596 0
M  V30 3 O -1.5285 2.8897 1.1613 0
M  V30 4 O -2.9747 0.9043 1.9728 0 CHG=-1
M  V30 5 C -0.8207 0.4728 0.2073 0
M  V30 6 C -1.1001 -0.8442 -0.2315 0
M  V30 7 C 0.5125 0.9138 0.2557 0
M  V30 8 N -2.4405 -1.3502 -0.3071 0
M  V30 9 C -0.0398 -1.6846 -0.604 0
M  V30 10 C 1.5607 0.0685 -0.1271 0
M  V30 11 C 1.2794 -1.2337 -0.5501 0
M  V30 12 S 3.2261 0.6341 -0.0471 0
M  V30 13 O 3.2793 2.1058 -0.3479 0
M  V30 14 O 4.0642 -0.0956 -1.059 0
M  V30 15 O 3.8378 0.354 1.4916 0 CHG=-1
M  V30 16 H 0.7406 1.9161 0.5938 0
M  V30 17 H -3.2732 -0.7751 -0.0581 0
M  V30 18 H -2.6183 -2.3282 -0.6278 0
M  V30 19 H -0.2375 -2.6956 -0.9377 0
M  V30 20 H 2.0805 -1.9026 -0.8375 0
M  V30 END ATOM
M  V30 BEGIN BOND
M  V30 1 2 1 2
M  V30 2 2 1 3
M  V30 3 1 1 4
M  V30 4 1 1 5
M  V30 5 2 5 6
M  V30 6 1 5 7
M  V30 7 1 6 8
M  V30 8 1 6 9
M  V30 9 2 7 10
M  V30 10 2 9 11
M  V30 11 1 10 12
M  V30 12 2 12 13
M  V30 13 2 12 14
M  V30 14 1 12 15
M  V30 15 1 10 11
M  V30 16 1 7 16
M  V30 17 1 8 17
M  V30 18 1 8 18
M  V30 19 1 9 19
M  V30 20 1 11 20
M  V30 END BOND
M  V30 END CTAB
M  END
>  <Structure No>
394

>  <LogS>
-1.770093003

>  <MMFF94 Energy>
125.55

$$$$
Compound 395
Actelion Java MolfileCreator 2.0

  0  0  0  0  0  0              0 V3000
M  V30 BEGIN CTAB
M  V30 COUNTS 31 31 0 0 0
M  V30 BEGIN ATOM
M  V30 1 O -0.2358 0.3144 2.2813 0
M  V30 2 C 0.0401 -0.5853 1.235 0 CFG=1
M  V30 3 C -0.6835 -0.1625 -0.0784 0 CFG=1
M  V30 4 C 1.5717 -0.7856 1.0628 0
M  V30 5 C -2.2225 0.0476 0.1165 0
M  V30 6 C -0.0164 1.0945 -0.709 0
M  V30 7 C 2.1315 -0.2041 -0.2513 0 CFG=1
M  V30 8 C -2.9191 0.3905 -1.2134 0
M  V30 9 C -2.9064 -1.1878 0.7298 0
M  V30 10 C 1.5128 1.1718 -0.5276 0
M  V30 11 C 3.6609 -0.1136 -0.1973 0
M  V30 12 H 0.1648 1.1896 2.0432 0
M  V30 13 H -0.36 -1.5737 1.545 0
M  V30 14 H -0.5539 -1.0021 -0.7988 0
M  V30 15 H 2.1005 -0.3335 1.9317 0
M  V30 16 H 1.8048 -1.8735 1.085 0
M  V30 17 H -2.3862 0.9017 0.8104 0
M  V30 18 H -0.4636 2.0197 -0.2833 0
M  V30 19 H -0.2339 1.0975 -1.7995 0
M  V30 20 H 1.8666 -0.8871 -1.0895 0
M  V30 21 H -4.0176 0.4727 -1.0687 0
M  V30 22 H -2.7176 -0.3938 -1.9739 0
M  V30 23 H -2.5738 1.3711 -1.6005 0
M  V30 24 H -4.0105 -1.0633 0.7341 0
M  V30 25 H -2.6543 -2.1026 0.1522 0
M  V30 26 H -2.6011 -1.3224 1.7878 0
M  V30 27 H 1.7517 1.8578 0.3152 0
M  V30 28 H 1.9634 1.6116 -1.4446 0
M  V30 29 H 4.0567 0.2485 -1.17 0
M  V30 30 H 3.9865 0.5844 0.6036 0
M  V30 31 H 4.0951 -1.1165 0.0016 0
M  V30 END ATOM
M  V30 BEGIN BOND
M  V30 1 1 1 2
M  V30 2 1 2 3
M  V30 3 1 2 4
M  V30 4 1 3 5
M  V30 5 1 3 6
M  V30 6 1 4 7
M  V30 7 1 5 8
M  V30 8 1 5 9
M  V30 9 1 6 10
M  V30 10 1 7 11
M  V30 11 1 7 10
M  V30 12 1 1 12
M  V30 13 1 2 13
M  V30 14 1 3 14
M  V30 15 1 4 15
M  V30 16 1 4 16
M  V30 17 1 5 17
M  V30 18 1 6 18
M  V30 19 1 6 19
M  V30 20 1 7 20
M  V30 21 1 8 21
M  V30 22 1 8 22
M  V30 23 1 8 23
M  V30 24 1 9 24
M  V30 25 1 9 25
M  V30 26 1 9 26
M  V30 27 1 10 27
M  V30 28 1 10 28
M  V30 29 1 11 29
M  V30 30 1 11 30
M  V30 31 1 11 31
M  V30 END BOND
M  V30 BEGIN COLLECTION
M  V30 MDLV30/STEABS ATOMS=(3 2 3 7)
M  V30 END COLLECTION
M  V30 END CTAB
M  END
>  <Structure No>
395

>  <LogS>
-2.560404377

>  <MMFF94 Energy>
21.766

$$$$
Compound 396
Actelion Java MolfileCreator 2.0

  0  0  0  0  0  0              0 V3000
M  V30 BEGIN CTAB
M  V30 COUNTS 20 20 0 0 0
M  V30 BEGIN ATOM
M  V30 1 O 0.0 3.4216 -0.651 0
M  V30 2 N -0.6349 2.4481 -0.1942 0 CHG=1
M  V30 3 O -1.9092 2.6623 0.2786 0 CHG=-1
M  V30 4 C -0.016 1.1464 -0.1122 0
M  V30 5 C -0.7837 -0.0178 0.1254 0
M  V30 6 C 1.3784 1.0281 -0.2753 0
M  V30 7 O -2.1779 0.0888 0.26 0
M  V30 8 C -0.1358 -1.2651 0.2098 0
M  V30 9 C 2.0171 -0.22 -0.1937 0
M  V30 10 C -3.058 -1.0054 0.4972 0
M  V30 11 C 1.2461 -1.3632 0.0524 0
M  V30 12 C 3.4836 -0.3318 -0.3621 0
M  V30 13 O 4.1836 0.6919 -0.5838 0
M  V30 14 O 4.1099 -1.57 -0.2779 0 CHG=-1
M  V30 15 H 1.9701 1.9166 -0.4568 0
M  V30 16 H -0.6944 -2.1726 0.393 0
M  V30 17 H -4.0985 -0.6259 0.56 0
M  V30 18 H -2.8024 -1.5002 1.458 0
M  V30 19 H -2.9959 -1.7338 -0.3385 0
M  V30 20 H 1.7102 -2.3391 0.1217 0
M  V30 END ATOM
M  V30 BEGIN BOND
M  V30 1 2 1 2
M  V30 2 1 2 3
M  V30 3 1 2 4
M  V30 4 2 4 5
M  V30 5 1 4 6
M  V30 6 1 5 7
M  V30 7 1 5 8
M  V30 8 2 6 9
M  V30 9 1 7 10
M  V30 10 2 8 11
M  V30 11 1 9 12
M  V30 12 2 12 13
M  V30 13 1 12 14
M  V30 14 1 9 11
M  V30 15 1 6 15
M  V30 16 1 8 16
M  V30 17 1 10 17
M  V30 18 1 10 18
M  V30 19 1 10 19
M  V30 20 1 11 20
M  V30 END BOND
M  V30 END CTAB
M  END
>  <Structure No>
396

>  <LogS>
-2.661319514

>  <MMFF94 Energy>
68.854

$$$$
Compound 397
Actelion Java MolfileCreator 2.0

  0  0  0  0  0  0              0 V3000
M  V30 BEGIN CTAB
M  V30 COUNTS 45 48 0 0 0
M  V30 BEGIN ATOM
M  V30 1 O 5.53 1.7053 -0.893 0
M  V30 2 C 4.4354 1.1125 -0.7039 0
M  V30 3 C 3.7045 1.2953 0.5487 0
M  V30 4 C 3.8684 0.2639 -1.7478 0
M  V30 5 C 2.5582 0.634 0.7802 0
M  V30 6 C 2.7379 -0.4104 -1.5324 0
M  V30 7 C 2.0229 -0.4453 -0.1779 0 CFG=2
M  V30 8 C 1.8052 0.8954 2.0583 0
M  V30 9 C 0.476 -0.21 -0.4006 0 CFG=2
M  V30 10 C 2.3222 -1.8261 0.4504 0
M  V30 11 C 0.3514 1.2116 1.7305 0
M  V30 12 C -0.2964 0.0697 0.9231 0 CFG=1
M  V30 13 C -0.2245 -1.3771 -1.1397 0
M  V30 14 C -1.8156 0.3366 0.7025 0 CFG=2
M  V30 15 C -1.6667 -1.0115 -1.4898 0
M  V30 16 C -2.5203 -0.6685 -0.2415 0 CFG=2
M  V30 17 C -2.1884 1.7301 0.1624 0
M  V30 18 C -3.7081 0.1247 -0.6927 0
M  V30 19 C -2.9613 -1.9383 0.5152 0
M  V30 20 C -3.5948 1.5802 -0.4129 0
M  V30 21 O -4.6655 -0.3635 -1.2744 0
M  V30 22 H 4.0883 2.0066 1.2709 0
M  V30 23 H 4.366 0.1884 -2.7069 0
M  V30 24 H 2.3908 -1.0466 -2.3341 0
M  V30 25 H 1.8624 0.0031 2.7174 0
M  V30 26 H 2.2334 1.753 2.623 0
M  V30 27 H 0.3843 0.6975 -1.0393 0
M  V30 28 H 2.0809 -2.6512 -0.253 0
M  V30 29 H 1.7473 -1.988 1.3844 0
M  V30 30 H 3.4034 -1.9092 0.6966 0
M  V30 31 H -0.2049 1.3609 2.6818 0
M  V30 32 H 0.3149 2.1632 1.156 0
M  V30 33 H -0.2365 -0.8458 1.5519 0
M  V30 34 H 0.2932 -1.6165 -2.0887 0
M  V30 35 H -0.2226 -2.2966 -0.5171 0
M  V30 36 H -2.297 0.2683 1.7072 0
M  V30 37 H -2.1308 -1.8541 -2.0482 0
M  V30 38 H -1.638 -0.1445 -2.1891 0
M  V30 39 H -1.4914 2.0361 -0.647 0
M  V30 40 H -2.172 2.4971 0.9672 0
M  V30 41 H -2.085 -2.4582 0.9549 0
M  V30 42 H -3.4804 -2.6419 -0.1703 0
M  V30 43 H -3.661 -1.6815 1.3399 0
M  V30 44 H -4.362 1.8782 0.3337 0
M  V30 45 H -3.7094 2.1744 -1.3449 0
M  V30 END ATOM
M  V30 BEGIN BOND
M  V30 1 2 1 2
M  V30 2 1 2 3
M  V30 3 1 2 4
M  V30 4 2 3 5
M  V30 5 2 4 6
M  V30 6 1 5 7
M  V30 7 1 5 8
M  V30 8 1 7 9
M  V30 9 1 7 10
M  V30 10 1 8 11
M  V30 11 1 9 12
M  V30 12 1 9 13
M  V30 13 1 12 14
M  V30 14 1 13 15
M  V30 15 1 14 16
M  V30 16 1 14 17
M  V30 17 1 16 18
M  V30 18 1 16 19
M  V30 19 1 17 20
M  V30 20 2 18 21
M  V30 21 1 6 7
M  V30 22 1 11 12
M  V30 23 1 15 16
M  V30 24 1 18 20
M  V30 25 1 3 22
M  V30 26 1 4 23
M  V30 27 1 6 24
M  V30 28 1 8 25
M  V30 29 1 8 26
M  V30 30 1 9 27
M  V30 31 1 10 28
M  V30 32 1 10 29
M  V30 33 1 10 30
M  V30 34 1 11 31
M  V30 35 1 11 32
M  V30 36 1 12 33
M  V30 37 1 13 34
M  V30 38 1 13 35
M  V30 39 1 14 36
M  V30 40 1 15 37
M  V30 41 1 15 38
M  V30 42 1 17 39
M  V30 43 1 17 40
M  V30 44 1 19 41
M  V30 45 1 19 42
M  V30 46 1 19 43
M  V30 47 1 20 44
M  V30 48 1 20 45
M  V30 END BOND
M  V30 BEGIN COLLECTION
M  V30 MDLV30/STEABS ATOMS=(5 7 9 12 14 16)
M  V30 END COLLECTION
M  V30 END CTAB
M  END
>  <Structure No>
397

>  <LogS>
-2.820459609

>  <MMFF94 Energy>
64.663

$$$$
Compound 398
Actelion Java MolfileCreator 2.0

  0  0  0  0  0  0              0 V3000
M  V30 BEGIN CTAB
M  V30 COUNTS 33 33 0 0 0
M  V30 BEGIN ATOM
M  V30 1 O -1.2592 -1.1017 1.1017 0
M  V30 2 C -1.7102 -0.1604 0.3906 0
M  V30 3 O -0.85 0.8493 -0.0623 0
M  V30 4 C -3.1959 -0.0801 0.0977 0
M  V30 5 C 0.5618 0.8264 0.1355 0
M  V30 6 C -3.9113 0.5162 1.3222 0
M  V30 7 C -3.4517 0.8166 -1.1307 0
M  V30 8 C -3.7542 -1.4885 -0.1915 0
M  V30 9 C 1.2196 -0.1729 -0.8185 0
M  V30 10 C 2.7137 -0.1732 -0.6383 0
M  V30 11 C 3.3114 -1.011 0.3182 0
M  V30 12 C 3.5186 0.7035 -1.3849 0
M  V30 13 C 4.6968 -0.9876 0.5071 0
M  V30 14 C 4.9038 0.7238 -1.1928 0
M  V30 15 C 5.4925 -0.1224 -0.249 0
M  V30 16 H 0.7957 0.5737 1.1933 0
M  V30 17 H 0.9587 1.8434 -0.0709 0
M  V30 18 H -3.7529 -0.122 2.2186 0
M  V30 19 H -5.0051 0.5932 1.1384 0
M  V30 20 H -3.5215 1.5333 1.5455 0
M  V30 21 H -3.1069 1.8564 -0.9416 0
M  V30 22 H -4.5368 0.8553 -1.3695 0
M  V30 23 H -2.9123 0.423 -2.0196 0
M  V30 24 H -4.8376 -1.4388 -0.4355 0
M  V30 25 H -3.6332 -2.1534 0.6909 0
M  V30 26 H -3.2221 -1.9483 -1.0527 0
M  V30 27 H 0.9621 0.0949 -1.8666 0
M  V30 28 H 0.8192 -1.1928 -0.6322 0
M  V30 29 H 2.7049 -1.6795 0.9168 0
M  V30 30 H 3.0738 1.3708 -2.1129 0
M  V30 31 H 5.1532 -1.6378 1.2423 0
M  V30 32 H 5.5202 1.3981 -1.7732 0
M  V30 33 H 6.5645 -0.1046 -0.1005 0
M  V30 END ATOM
M  V30 BEGIN BOND
M  V30 1 2 1 2
M  V30 2 1 2 3
M  V30 3 1 2 4
M  V30 4 1 3 5
M  V30 5 1 4 6
M  V30 6 1 4 7
M  V30 7 1 4 8
M  V30 8 1 5 9
M  V30 9 1 9 10
M  V30 10 2 10 11
M  V30 11 1 10 12
M  V30 12 1 11 13
M  V30 13 2 12 14
M  V30 14 2 13 15
M  V30 15 1 14 15
M  V30 16 1 5 16
M  V30 17 1 5 17
M  V30 18 1 6 18
M  V30 19 1 6 19
M  V30 20 1 6 20
M  V30 21 1 7 21
M  V30 22 1 7 22
M  V30 23 1 7 23
M  V30 24 1 8 24
M  V30 25 1 8 25
M  V30 26 1 8 26
M  V30 27 1 9 27
M  V30 28 1 9 28
M  V30 29 1 11 29
M  V30 30 1 12 30
M  V30 31 1 13 31
M  V30 32 1 14 32
M  V30 33 1 15 33
M  V30 END BOND
M  V30 END CTAB
M  END
>  <Structure No>
398

>  <LogS>
-3.67528009

>  <MMFF94 Energy>
26.462

$$$$
Compound 399
Actelion Java MolfileCreator 2.0

  0  0  0  0  0  0              0 V3000
M  V30 BEGIN CTAB
M  V30 COUNTS 30 30 0 0 0
M  V30 BEGIN ATOM
M  V30 1 O 2.927 0.079 1.344 0
M  V30 2 C 2.9109 -0.3297 0.1514 0
M  V30 3 O 1.9338 0.11 -0.7501 0
M  V30 4 C 3.919 -1.3321 -0.2956 0
M  V30 5 C 0.8724 1.0097 -0.4143 0 CFG=2
M  V30 6 C -0.4605 0.22 -0.2907 0
M  V30 7 C 0.8143 2.0837 -1.5061 0
M  V30 8 C -0.312 -0.9628 0.7058 0
M  V30 9 C -1.6455 1.1179 0.1314 0
M  V30 10 C -1.6493 -1.4685 1.2858 0
M  V30 11 C -2.9843 0.3484 0.1314 0
M  V30 12 C -2.8261 -1.1657 0.3578 0
M  V30 13 H 4.8987 -1.1297 0.1863 0
M  V30 14 H 4.0437 -1.2785 -1.3973 0
M  V30 15 H 3.5756 -2.3499 -0.0169 0
M  V30 16 H 1.0867 1.5262 0.5481 0
M  V30 17 H -0.6965 -0.206 -1.2924 0
M  V30 18 H 1.8338 2.4857 -1.6871 0
M  V30 19 H 0.1762 2.9358 -1.1947 0
M  V30 20 H 0.4308 1.6576 -2.4575 0
M  V30 21 H 0.3323 -0.6649 1.5613 0
M  V30 22 H 0.197 -1.8037 0.1854 0
M  V30 23 H -1.4509 1.52 1.1504 0
M  V30 24 H -1.7545 1.9827 -0.5541 0
M  V30 25 H -1.8354 -0.9815 2.2688 0
M  V30 26 H -1.588 -2.564 1.4628 0
M  V30 27 H -3.6384 0.7722 0.9245 0
M  V30 28 H -3.5018 0.5056 -0.84 0
M  V30 29 H -3.762 -1.575 0.7959 0
M  V30 30 H -2.6606 -1.675 -0.617 0
M  V30 END ATOM
M  V30 BEGIN BOND
M  V30 1 2 1 2
M  V30 2 1 2 3
M  V30 3 1 2 4
M  V30 4 1 3 5
M  V30 5 1 5 6
M  V30 6 1 5 7
M  V30 7 1 6 8
M  V30 8 1 6 9
M  V30 9 1 8 10
M  V30 10 1 9 11
M  V30 11 1 10 12
M  V30 12 1 11 12
M  V30 13 1 4 13
M  V30 14 1 4 14
M  V30 15 1 4 15
M  V30 16 1 5 16
M  V30 17 1 6 17
M  V30 18 1 7 18
M  V30 19 1 7 19
M  V30 20 1 7 20
M  V30 21 1 8 21
M  V30 22 1 8 22
M  V30 23 1 9 23
M  V30 24 1 9 24
M  V30 25 1 10 25
M  V30 26 1 10 26
M  V30 27 1 11 27
M  V30 28 1 11 28
M  V30 29 1 12 29
M  V30 30 1 12 30
M  V30 END BOND
M  V30 BEGIN COLLECTION
M  V30 MDLV30/STEABS ATOMS=(1 5)
M  V30 END COLLECTION
M  V30 END CTAB
M  END
>  <Structure No>
399

>  <LogS>
-3.597623767

>  <MMFF94 Energy>
-1.7387

$$$$
Compound 400
Actelion Java MolfileCreator 2.0

  0  0  0  0  0  0              0 V3000
M  V30 BEGIN CTAB
M  V30 COUNTS 36 36 0 0 0
M  V30 BEGIN ATOM
M  V30 1 O 3.3928 -1.498 0.1576 0
M  V30 2 C 2.8446 -0.4916 -0.2653 0
M  V30 3 C 2.3399 0.54 0.7092 0
M  V30 4 C 2.7358 -0.2905 -1.7474 0
M  V30 5 C 1.1265 0.0455 1.5121 0
M  V30 6 C -0.1529 -0.1647 0.679 0
M  V30 7 C -0.5949 -1.4375 0.3939 0
M  V30 8 C -0.9518 1.0655 0.1702 0
M  V30 9 C -1.9479 -1.7214 -0.2428 0
M  V30 10 C 0.1488 -2.6735 0.8529 0
M  V30 11 C -2.457 0.7118 0.0679 0
M  V30 12 C -0.8429 2.2734 1.1311 0
M  V30 13 C -0.4292 1.5015 -1.2223 0
M  V30 14 C -2.6756 -0.5088 -0.8152 0
M  V30 15 H 2.1115 1.4947 0.2028 0
M  V30 16 H 3.1622 0.7686 1.4217 0
M  V30 17 H 3.7309 -0.4399 -2.2158 0
M  V30 18 H 2.3877 0.7333 -1.995 0
M  V30 19 H 2.0176 -1.0263 -2.1671 0
M  V30 20 H 1.4307 -0.8607 2.0698 0
M  V30 21 H 0.9237 0.7735 2.3228 0
M  V30 22 H -1.8269 -2.4736 -1.0517 0
M  V30 23 H -2.5961 -2.1742 0.5381 0
M  V30 24 H 0.1821 -2.7155 1.9612 0
M  V30 25 H 1.1716 -2.6897 0.4331 0
M  V30 26 H -0.3575 -3.6006 0.5097 0
M  V30 27 H -2.8671 0.4972 1.0807 0
M  V30 28 H -3.0359 1.5655 -0.3488 0
M  V30 29 H -1.1675 1.9892 2.1558 0
M  V30 30 H -1.4896 3.1089 0.7845 0
M  V30 31 H 0.1945 2.6661 1.1803 0
M  V30 32 H -1.1714 2.1483 -1.7387 0
M  V30 33 H -0.2215 0.622 -1.8685 0
M  V30 34 H 0.5014 2.0962 -1.1494 0
M  V30 35 H -2.3342 -0.312 -1.8533 0
M  V30 36 H -3.7642 -0.729 -0.8722 0
M  V30 END ATOM
M  V30 BEGIN BOND
M  V30 1 2 1 2
M  V30 2 1 2 3
M  V30 3 1 2 4
M  V30 4 1 3 5
M  V30 5 1 5 6
M  V30 6 2 6 7
M  V30 7 1 6 8
M  V30 8 1 7 9
M  V30 9 1 7 10
M  V30 10 1 8 11
M  V30 11 1 8 12
M  V30 12 1 8 13
M  V30 13 1 9 14
M  V30 14 1 11 14
M  V30 15 1 3 15
M  V30 16 1 3 16
M  V30 17 1 4 17
M  V30 18 1 4 18
M  V30 19 1 4 19
M  V30 20 1 5 20
M  V30 21 1 5 21
M  V30 22 1 9 22
M  V30 23 1 9 23
M  V30 24 1 10 24
M  V30 25 1 10 25
M  V30 26 1 10 26
M  V30 27 1 11 27
M  V30 28 1 11 28
M  V30 29 1 12 29
M  V30 30 1 12 30
M  V30 31 1 12 31
M  V30 32 1 13 32
M  V30 33 1 13 33
M  V30 34 1 13 34
M  V30 35 1 14 35
M  V30 36 1 14 36
M  V30 END BOND
M  V30 END CTAB
M  END
>  <Structure No>
400

>  <LogS>
-3.655044576

>  <MMFF94 Energy>
24.801

$$$$
Compound 401
Actelion Java MolfileCreator 2.0

  0  0  0  0  0  0              0 V3000
M  V30 BEGIN CTAB
M  V30 COUNTS 53 54 0 0 0
M  V30 BEGIN ATOM
M  V30 1 O -0.8665 -0.7877 0.2362 0
M  V30 2 C -0.4876 0.1212 -0.5489 0
M  V30 3 N -1.4661 0.9053 -1.245 0
M  V30 4 C 0.9838 0.4552 -0.7208 0
M  V30 5 C -2.875 0.7459 -1.0186 0
M  V30 6 N 1.9756 -0.6599 -0.49 0 CHG=1
M  V30 7 C -3.6986 0.2649 -2.0604 0
M  V30 8 C -3.45 1.0927 0.2283 0
M  V30 9 C 1.9448 -1.1452 0.9427 0
M  V30 10 C 3.3214 -0.0972 -0.8944 0
M  V30 11 C 1.5896 -1.7744 -1.43 0
M  V30 12 C -5.0762 0.1113 -1.8408 0
M  V30 13 C -3.1143 -0.0829 -3.4023 0
M  V30 14 C -4.8256 0.9022 0.4298 0
M  V30 15 C -2.6184 1.6383 1.359 0
M  V30 16 C 1.7012 -0.0826 2.0145 0
M  V30 17 C 4.5954 -0.7651 -0.3254 0
M  V30 18 C 2.5303 -2.985 -1.475 0
M  V30 19 C -5.6322 0.4194 -0.5998 0
M  V30 20 C 0.5627 -0.1745 2.8406 0
M  V30 21 C 2.6122 0.9668 2.2443 0
M  V30 22 C 0.3176 0.7829 3.8285 0
M  V30 23 C 2.3632 1.9216 3.2351 0
M  V30 24 C 1.2143 1.8336 4.0222 0
M  V30 25 H -1.1568 1.5306 -2.0224 0
M  V30 26 H 1.103 0.8448 -1.7588 0
M  V30 27 H 1.199 1.331 -0.0724 0
M  V30 28 H 2.863 -1.696 1.2188 0
M  V30 29 H 1.1683 -1.9329 1.0573 0
M  V30 30 H 3.4163 -0.0999 -2.0044 0
M  V30 31 H 3.4037 0.9782 -0.6194 0
M  V30 32 H 1.4948 -1.3919 -2.4726 0
M  V30 33 H 0.5893 -2.181 -1.1705 0
M  V30 34 H -5.7222 -0.2552 -2.6288 0
M  V30 35 H -2.7754 0.8431 -3.9118 0
M  V30 36 H -3.8578 -0.5907 -4.053 0
M  V30 37 H -2.249 -0.7669 -3.2732 0
M  V30 38 H -5.2784 1.1402 1.3847 0
M  V30 39 H -2.2258 0.7998 1.9697 0
M  V30 40 H -3.2282 2.297 2.0135 0
M  V30 41 H -1.7711 2.2454 0.9772 0
M  V30 42 H 4.6121 -1.862 -0.424 0
M  V30 43 H 5.478 -0.3726 -0.8734 0
M  V30 44 H 4.7498 -0.5157 0.7416 0
M  V30 45 H 2.0198 -3.8188 -2.0021 0
M  V30 46 H 2.7903 -3.3456 -0.4597 0
M  V30 47 H 3.4398 -2.751 -2.0649 0
M  V30 48 H -6.6941 0.2876 -0.4366 0
M  V30 49 H -0.1403 -0.9892 2.7253 0
M  V30 50 H 3.5119 1.0672 1.6642 0
M  V30 51 H -0.5672 0.707 4.4472 0
M  V30 52 H 3.0644 2.7307 3.3939 0
M  V30 53 H 1.024 2.5744 4.7882 0
M  V30 END ATOM
M  V30 BEGIN BOND
M  V30 1 2 1 2
M  V30 2 1 2 3
M  V30 3 1 2 4
M  V30 4 1 3 5
M  V30 5 1 4 6
M  V30 6 2 5 7
M  V30 7 1 5 8
M  V30 8 1 6 9
M  V30 9 1 6 10
M  V30 10 1 6 11
M  V30 11 1 7 12
M  V30 12 1 7 13
M  V30 13 2 8 14
M  V30 14 1 8 15
M  V30 15 1 9 16
M  V30 16 1 10 17
M  V30 17 1 11 18
M  V30 18 2 12 19
M  V30 19 2 16 20
M  V30 20 1 16 21
M  V30 21 1 20 22
M  V30 22 2 21 23
M  V30 23 2 22 24
M  V30 24 1 14 19
M  V30 25 1 23 24
M  V30 26 1 3 25
M  V30 27 1 4 26
M  V30 28 1 4 27
M  V30 29 1 9 28
M  V30 30 1 9 29
M  V30 31 1 10 30
M  V30 32 1 10 31
M  V30 33 1 11 32
M  V30 34 1 11 33
M  V30 35 1 12 34
M  V30 36 1 13 35
M  V30 37 1 13 36
M  V30 38 1 13 37
M  V30 39 1 14 38
M  V30 40 1 15 39
M  V30 41 1 15 40
M  V30 42 1 15 41
M  V30 43 1 17 42
M  V30 44 1 17 43
M  V30 45 1 17 44
M  V30 46 1 18 45
M  V30 47 1 18 46
M  V30 48 1 18 47
M  V30 49 1 19 48
M  V30 50 1 20 49
M  V30 51 1 21 50
M  V30 52 1 22 51
M  V30 53 1 23 52
M  V30 54 1 24 53
M  V30 END BOND
M  V30 END CTAB
M  END
>  <Structure No>
401

>  <LogS>
-1.020958606

>  <MMFF94 Energy>
79.102

$$$$
Compound 402
Actelion Java MolfileCreator 2.0

  0  0  0  0  0  0              0 V3000
M  V30 BEGIN CTAB
M  V30 COUNTS 21 20 0 0 0
M  V30 BEGIN ATOM
M  V30 1 O 3.3745 0.5362 0.4596 0
M  V30 2 C 2.9512 -0.0987 -0.717 0
M  V30 3 C 1.6306 -0.8433 -0.4933 0
M  V30 4 C 0.4893 0.1175 -0.1339 0
M  V30 5 C -0.8289 -0.6416 0.0574 0
M  V30 6 C -1.9691 0.3177 0.4178 0
M  V30 7 C -3.283 -0.4344 0.6089 0
M  V30 8 H 3.7244 -0.1758 1.0564 0
M  V30 9 H 3.7287 -0.8153 -1.0664 0
M  V30 10 H 2.8203 0.6659 -1.5123 0
M  V30 11 H 1.7642 -1.5911 0.3189 0
M  V30 12 H 1.3715 -1.3899 -1.4263 0
M  V30 13 H 0.3678 0.8655 -0.9485 0
M  V30 14 H 0.7408 0.6563 0.8061 0
M  V30 15 H -0.7073 -1.3904 0.8712 0
M  V30 16 H -1.084 -1.1791 -0.8826 0
M  V30 17 H -2.0989 1.0675 -0.3929 0
M  V30 18 H -1.7231 0.856 1.3591 0
M  V30 19 H -3.1881 -1.1739 1.4325 0
M  V30 20 H -3.5656 -0.9616 -0.327 0
M  V30 21 H -4.0886 0.2844 0.8686 0
M  V30 END ATOM
M  V30 BEGIN BOND
M  V30 1 1 1 2
M  V30 2 1 2 3
M  V30 3 1 3 4
M  V30 4 1 4 5
M  V30 5 1 5 6
M  V30 6 1 6 7
M  V30 7 1 1 8
M  V30 8 1 2 9
M  V30 9 1 2 10
M  V30 10 1 3 11
M  V30 11 1 3 12
M  V30 12 1 4 13
M  V30 13 1 4 14
M  V30 14 1 5 15
M  V30 15 1 5 16
M  V30 16 1 6 17
M  V30 17 1 6 18
M  V30 18 1 7 19
M  V30 19 1 7 20
M  V30 20 1 7 21
M  V30 END BOND
M  V30 END CTAB
M  END
>  <Structure No>
402

>  <LogS>
-1.382910122

>  <MMFF94 Energy>
-2.417

$$$$
Compound 403
Actelion Java MolfileCreator 2.0

  0  0  0  0  0  0              0 V3000
M  V30 BEGIN CTAB
M  V30 COUNTS 31 31 0 0 0
M  V30 BEGIN ATOM
M  V30 1 O -0.7075 2.1236 -1.1007 0
M  V30 2 C -0.041 1.0548 -0.4783 0 CFG=1
M  V30 3 C -0.7802 -0.2815 -0.8003 0 CFG=2
M  V30 4 C 1.4118 1.009 -0.9847 0
M  V30 5 C -2.0929 -0.5048 0.0216 0
M  V30 6 C 0.1663 -1.5174 -0.7378 0
M  V30 7 C 2.2412 -0.1065 -0.2973 0 CFG=2
M  V30 8 C -1.8669 -0.7329 1.5265 0
M  V30 9 C -3.1153 0.6213 -0.1918 0
M  V30 10 C 1.3681 -1.288 0.1868 0
M  V30 11 C 3.0696 0.454 0.8663 0
M  V30 12 H -0.4184 2.9536 -0.6384 0
M  V30 13 H -0.0149 1.2204 0.6214 0
M  V30 14 H -1.1002 -0.2154 -1.8659 0
M  V30 15 H 1.3963 0.8237 -2.082 0
M  V30 16 H 1.8914 2.0022 -0.8398 0
M  V30 17 H -2.5689 -1.4304 -0.3736 0
M  V30 18 H 0.554 -1.7337 -1.7583 0
M  V30 19 H -0.3794 -2.4303 -0.4157 0
M  V30 20 H 2.9599 -0.4997 -1.051 0
M  V30 21 H -1.4041 0.15 2.011 0
M  V30 22 H -2.8399 -0.9253 2.0272 0
M  V30 23 H -1.2323 -1.6247 1.7013 0
M  V30 24 H -4.0986 0.3262 0.2331 0
M  V30 25 H -3.2571 0.8177 -1.2757 0
M  V30 26 H -2.7889 1.5559 0.311 0
M  V30 27 H 1.9855 -2.2119 0.2222 0
M  V30 28 H 1.0 -1.0989 1.2178 0
M  V30 29 H 3.7782 1.2254 0.4959 0
M  V30 30 H 3.6612 -0.3576 1.341 0
M  V30 31 H 2.4079 0.9129 1.6321 0
M  V30 END ATOM
M  V30 BEGIN BOND
M  V30 1 1 1 2
M  V30 2 1 2 3
M  V30 3 1 2 4
M  V30 4 1 3 5
M  V30 5 1 3 6
M  V30 6 1 4 7
M  V30 7 1 5 8
M  V30 8 1 5 9
M  V30 9 1 6 10
M  V30 10 1 7 11
M  V30 11 1 7 10
M  V30 12 1 1 12
M  V30 13 1 2 13
M  V30 14 1 3 14
M  V30 15 1 4 15
M  V30 16 1 4 16
M  V30 17 1 5 17
M  V30 18 1 6 18
M  V30 19 1 6 19
M  V30 20 1 7 20
M  V30 21 1 8 21
M  V30 22 1 8 22
M  V30 23 1 8 23
M  V30 24 1 9 24
M  V30 25 1 9 25
M  V30 26 1 9 26
M  V30 27 1 10 27
M  V30 28 1 10 28
M  V30 29 1 11 29
M  V30 30 1 11 30
M  V30 31 1 11 31
M  V30 END BOND
M  V30 BEGIN COLLECTION
M  V30 MDLV30/STEABS ATOMS=(3 2 3 7)
M  V30 END COLLECTION
M  V30 END CTAB
M  END
>  <Structure No>
403

>  <LogS>
-2.570623543

>  <MMFF94 Energy>
20.306

$$$$
Compound 404
Actelion Java MolfileCreator 2.0

  0  0  0  0  0  0              0 V3000
M  V30 BEGIN CTAB
M  V30 COUNTS 29 28 0 0 0
M  V30 BEGIN ATOM
M  V30 1 N 1.0082 2.6387 1.7068 0
M  V30 2 C 1.831 2.0362 1.1599 0
M  V30 3 C 2.8594 1.2896 0.479 0
M  V30 4 C 2.6731 0.0444 0.0068 0
M  V30 5 C 1.351 -0.6825 0.1412 0
M  V30 6 C 3.823 -0.6415 -0.6785 0
M  V30 7 C 0.3551 -0.21 -0.9249 0
M  V30 8 C -0.923 -1.0085 -0.8607 0
M  V30 9 C -1.9732 -0.7283 -0.0549 0
M  V30 10 C -2.0188 0.4875 0.8486 0
M  V30 11 C -3.1735 -1.6379 -0.1033 0
M  V30 12 C -2.6044 1.6903 0.115 0
M  V30 13 H 3.8224 1.7709 0.3578 0
M  V30 14 H 0.9386 -0.5378 1.1624 0
M  V30 15 H 1.5094 -1.7766 0.0228 0
M  V30 16 H 3.5345 -1.6451 -1.0549 0
M  V30 17 H 4.6671 -0.7621 0.0331 0
M  V30 18 H 4.161 -0.0337 -1.5447 0
M  V30 19 H 0.808 -0.3689 -1.9279 0
M  V30 20 H 0.1532 0.8766 -0.8312 0
M  V30 21 H -0.9804 -1.8811 -1.5072 0
M  V30 22 H -1.015 0.74 1.2421 0
M  V30 23 H -2.6518 0.2711 1.7361 0
M  V30 24 H -3.5732 -1.68 -1.1388 0
M  V30 25 H -3.9832 -1.2767 0.5651 0
M  V30 26 H -2.8826 -2.6606 0.2172 0
M  V30 27 H -1.9911 1.9452 -0.7743 0
M  V30 28 H -2.6232 2.5674 0.7956 0
M  V30 29 H -3.6435 1.4716 -0.2114 0
M  V30 END ATOM
M  V30 BEGIN BOND
M  V30 1 3 1 2
M  V30 2 1 2 3
M  V30 3 2 3 4
M  V30 4 1 4 5
M  V30 5 1 4 6
M  V30 6 1 5 7
M  V30 7 1 7 8
M  V30 8 2 8 9
M  V30 9 1 9 10
M  V30 10 1 9 11
M  V30 11 1 10 12
M  V30 12 1 3 13
M  V30 13 1 5 14
M  V30 14 1 5 15
M  V30 15 1 6 16
M  V30 16 1 6 17
M  V30 17 1 6 18
M  V30 18 1 7 19
M  V30 19 1 7 20
M  V30 20 1 8 21
M  V30 21 1 10 22
M  V30 22 1 10 23
M  V30 23 1 11 24
M  V30 24 1 11 25
M  V30 25 1 11 26
M  V30 26 1 12 27
M  V30 27 1 12 28
M  V30 28 1 12 29
M  V30 END BOND
M  V30 END CTAB
M  END
>  <Structure No>
404

>  <LogS>
-3.589641142

>  <MMFF94 Energy>
23.817

$$$$
Compound 405
Actelion Java MolfileCreator 2.0

  0  0  0  0  0  0              0 V3000
M  V30 BEGIN CTAB
M  V30 COUNTS 33 33 0 0 0
M  V30 BEGIN ATOM
M  V30 1 O -3.8674 -2.2874 -1.8928 0
M  V30 2 C -3.5261 -1.2353 -1.2922 0
M  V30 3 O -2.3768 -1.1445 -0.5404 0
M  V30 4 C -4.3085 0.014 -1.3049 0
M  V30 5 C -2.2455 0.1337 0.0635 0 CFG=2
M  V30 6 C -3.3878 0.9916 -0.5639 0
M  V30 7 C -0.8573 0.7348 -0.2707 0
M  V30 8 C -2.461 -0.0063 1.5817 0
M  V30 9 C 0.3211 -0.1265 0.2145 0
M  V30 10 C 1.6561 0.4376 -0.2869 0
M  V30 11 C 2.8341 -0.4086 0.2101 0
M  V30 12 C 4.1676 0.1552 -0.2934 0
M  V30 13 C 5.3425 -0.6844 0.1994 0
M  V30 14 H -4.5048 0.3477 -2.3465 0
M  V30 15 H -5.2609 -0.1315 -0.7514 0
M  V30 16 H -2.9876 1.7281 -1.2956 0
M  V30 17 H -3.9604 1.5635 0.1998 0
M  V30 18 H -0.7782 0.8458 -1.3753 0
M  V30 19 H -0.7775 1.7503 0.1767 0
M  V30 20 H -2.2855 0.9649 2.092 0
M  V30 21 H -3.5008 -0.3364 1.7938 0
M  V30 22 H -1.7791 -0.7706 2.0088 0
M  V30 23 H 0.3383 -0.144 1.3252 0
M  V30 24 H 0.203 -1.1675 -0.1574 0
M  V30 25 H 1.6565 0.4492 -1.3993 0
M  V30 26 H 1.7738 1.4822 0.0774 0
M  V30 27 H 2.7157 -1.4534 -0.1533 0
M  V30 28 H 2.8362 -0.4193 1.3226 0
M  V30 29 H 4.1746 0.1654 -1.4052 0
M  V30 30 H 4.2945 1.1987 0.0691 0
M  V30 31 H 6.2927 -0.253 -0.18 0
M  V30 32 H 5.2532 -1.7279 -0.1707 0
M  V30 33 H 5.3737 -0.6901 1.3099 0
M  V30 END ATOM
M  V30 BEGIN BOND
M  V30 1 2 1 2
M  V30 2 1 2 3
M  V30 3 1 2 4
M  V30 4 1 3 5
M  V30 5 1 4 6
M  V30 6 1 5 7
M  V30 7 1 5 8
M  V30 8 1 7 9
M  V30 9 1 9 10
M  V30 10 1 10 11
M  V30 11 1 11 12
M  V30 12 1 12 13
M  V30 13 1 5 6
M  V30 14 1 4 14
M  V30 15 1 4 15
M  V30 16 1 6 16
M  V30 17 1 6 17
M  V30 18 1 7 18
M  V30 19 1 7 19
M  V30 20 1 8 20
M  V30 21 1 8 21
M  V30 22 1 8 22
M  V30 23 1 9 23
M  V30 24 1 9 24
M  V30 25 1 10 25
M  V30 26 1 10 26
M  V30 27 1 11 27
M  V30 28 1 11 28
M  V30 29 1 12 29
M  V30 30 1 12 30
M  V30 31 1 13 31
M  V30 32 1 13 32
M  V30 33 1 13 33
M  V30 END BOND
M  V30 BEGIN COLLECTION
M  V30 MDLV30/STEABS ATOMS=(1 5)
M  V30 END COLLECTION
M  V30 END CTAB
M  END
>  <Structure No>
405

>  <LogS>
-2.643261824

>  <MMFF94 Energy>
0.6851

$$$$
Compound 406
Actelion Java MolfileCreator 2.0

  0  0  0  0  0  0              0 V3000
M  V30 BEGIN CTAB
M  V30 COUNTS 18 17 0 0 0
M  V30 BEGIN ATOM
M  V30 1 O 0.9947 -0.765 0.3824 0
M  V30 2 C -0.2589 -0.1379 0.1107 0
M  V30 3 C 2.115 -0.058 -0.1141 0
M  V30 4 C -0.6479 -0.2962 -1.376 0
M  V30 5 C -0.2959 1.3552 0.5219 0
M  V30 6 C -1.3044 -0.8851 0.9567 0
M  V30 7 H 2.9979 -0.7272 -0.0636 0
M  V30 8 H 2.3394 0.8219 0.5248 0
M  V30 9 H 2.0013 0.2452 -1.1742 0
M  V30 10 H -0.0392 0.3581 -2.0328 0
M  V30 11 H -1.7118 -0.0154 -1.5355 0
M  V30 12 H -0.5092 -1.3502 -1.699 0
M  V30 13 H 0.0603 1.476 1.5675 0
M  V30 14 H -1.3307 1.7552 0.4536 0
M  V30 15 H 0.3397 1.9742 -0.1461 0
M  V30 16 H -1.055 -0.8036 2.0369 0
M  V30 17 H -1.3194 -1.9637 0.6882 0
M  V30 18 H -2.3238 -0.4697 0.7992 0
M  V30 END ATOM
M  V30 BEGIN BOND
M  V30 1 1 1 2
M  V30 2 1 1 3
M  V30 3 1 2 4
M  V30 4 1 2 5
M  V30 5 1 2 6
M  V30 6 1 3 7
M  V30 7 1 3 8
M  V30 8 1 3 9
M  V30 9 1 4 10
M  V30 10 1 4 11
M  V30 11 1 4 12
M  V30 12 1 5 13
M  V30 13 1 5 14
M  V30 14 1 5 15
M  V30 15 1 6 16
M  V30 16 1 6 17
M  V30 17 1 6 18
M  V30 END BOND
M  V30 END CTAB
M  END
>  <Structure No>
406

>  <LogS>
-0.323526854

>  <MMFF94 Energy>
16.978

$$$$
Compound 407
Actelion Java MolfileCreator 2.0

  0  0  0  0  0  0              0 V3000
M  V30 BEGIN CTAB
M  V30 COUNTS 19 19 0 0 0
M  V30 BEGIN ATOM
M  V30 1 S -2.2009 -1.4387 0.0 0
M  V30 2 O -2.8751 -1.3435 1.3397 0
M  V30 3 O -1.8751 -2.8797 -0.2764 0
M  V30 4 O -3.2387 -0.8852 -1.1998 0 CHG=-1
M  V30 5 C -0.7273 -0.4591 0.0066 0
M  V30 6 C -0.767 0.9408 0.2084 0
M  V30 7 C 0.5113 -1.0913 -0.1954 0
M  V30 8 N -2.0001 1.6418 0.4245 0
M  V30 9 C 0.43 1.6704 0.2 0
M  V30 10 C 1.7089 -0.3546 -0.202 0
M  V30 11 C 1.6538 1.0322 -0.0026 0
M  V30 12 N 2.9742 -1.0094 -0.4101 0 CHG=1
M  V30 13 O 3.0318 -2.2439 -0.5885 0
M  V30 14 O 4.144 -0.2844 -0.4158 0 CHG=-1
M  V30 15 H 0.5452 -2.1616 -0.3485 0
M  V30 16 H -2.9231 1.1593 0.4559 0
M  V30 17 H -2.0014 2.6769 0.5652 0
M  V30 18 H 0.4149 2.7426 0.3527 0
M  V30 19 H 2.5582 1.6268 -0.0024 0
M  V30 END ATOM
M  V30 BEGIN BOND
M  V30 1 2 1 2
M  V30 2 2 1 3
M  V30 3 1 1 4
M  V30 4 1 1 5
M  V30 5 2 5 6
M  V30 6 1 5 7
M  V30 7 1 6 8
M  V30 8 1 6 9
M  V30 9 2 7 10
M  V30 10 2 9 11
M  V30 11 1 10 12
M  V30 12 2 12 13
M  V30 13 1 12 14
M  V30 14 1 10 11
M  V30 15 1 7 15
M  V30 16 1 8 16
M  V30 17 1 8 17
M  V30 18 1 9 18
M  V30 19 1 11 19
M  V30 END BOND
M  V30 END CTAB
M  END
>  <Structure No>
407

>  <LogS>
-1.767738518

>  <MMFF94 Energy>
74.32

$$$$
Compound 408
Actelion Java MolfileCreator 2.0

  0  0  0  0  0  0              0 V3000
M  V30 BEGIN CTAB
M  V30 COUNTS 42 44 0 0 0
M  V30 BEGIN ATOM
M  V30 1 O -0.8865 0.2417 -2.2577 0
M  V30 2 C -0.2866 0.3791 -0.9811 0 CFG=2
M  V30 3 C 0.0191 -1.0607 -0.3943 0 CFG=1
M  V30 4 C -1.3499 1.118 -0.003 0
M  V30 5 C 1.0716 1.1605 -1.1822 0
M  V30 6 C 0.7896 -0.8423 0.9565 0 CFG=1
M  V30 7 C -1.3228 -1.7997 -0.0661 0
M  V30 8 C 0.7847 -1.9883 -1.3779 0
M  V30 9 C -1.4925 0.283 1.3301 0 CFG=2
M  V30 10 C -1.0076 2.5912 0.3598 0
M  V30 11 C -2.7535 1.2245 -0.6837 0
M  V30 12 C 2.0683 1.1781 -6.0E-4 0
M  V30 13 C 2.1689 -0.1402 0.7939 0 CFG=2
M  V30 14 C -0.1043 -0.0161 1.9459 0
M  V30 15 C -2.1252 -1.0905 1.0405 0
M  V30 16 C 3.2974 -1.0511 0.272 0
M  V30 17 H -0.2328 -0.1291 -2.9041 0
M  V30 18 H 0.8747 2.2023 -1.505 0
M  V30 19 H 1.6233 0.7292 -2.0429 0
M  V30 20 H 0.9635 -1.838 1.4245 0
M  V30 21 H -1.1133 -2.8426 0.2622 0
M  V30 22 H -1.9495 -1.8719 -0.9821 0
M  V30 23 H 1.2206 -2.8556 -0.8381 0
M  V30 24 H 1.5842 -1.4716 -1.9318 0
M  V30 25 H 0.099 -2.3942 -2.1529 0
M  V30 26 H -2.121 0.8233 2.0732 0
M  V30 27 H -1.8382 3.0473 0.9422 0
M  V30 28 H -0.8776 3.2115 -0.5515 0
M  V30 29 H -0.1232 2.6977 1.0013 0
M  V30 30 H -3.5234 1.5637 0.0434 0
M  V30 31 H -2.7306 1.9551 -1.5218 0
M  V30 32 H -3.095 0.2611 -1.113 0
M  V30 33 H 1.8307 2.0001 0.6957 0
M  V30 34 H 3.072 1.4543 -0.3934 0
M  V30 35 H 2.5047 0.1312 1.8217 0
M  V30 36 H 0.371 0.9319 2.268 0
M  V30 37 H -0.2366 -0.5954 2.887 0
M  V30 38 H -2.1184 -1.7112 1.9646 0
M  V30 39 H -3.1947 -0.9955 0.7581 0
M  V30 40 H 3.3799 -1.0308 -0.8307 0
M  V30 41 H 3.1658 -2.0968 0.6206 0
M  V30 42 H 4.2734 -0.6891 0.6613 0
M  V30 END ATOM
M  V30 BEGIN BOND
M  V30 1 1 1 2
M  V30 2 1 2 3
M  V30 3 1 2 4
M  V30 4 1 2 5
M  V30 5 1 3 6
M  V30 6 1 3 7
M  V30 7 1 3 8
M  V30 8 1 4 9
M  V30 9 1 4 10
M  V30 10 1 4 11
M  V30 11 1 5 12
M  V30 12 1 6 13
M  V30 13 1 6 14
M  V30 14 1 7 15
M  V30 15 1 13 16
M  V30 16 1 9 14
M  V30 17 1 9 15
M  V30 18 1 12 13
M  V30 19 1 1 17
M  V30 20 1 5 18
M  V30 21 1 5 19
M  V30 22 1 6 20
M  V30 23 1 7 21
M  V30 24 1 7 22
M  V30 25 1 8 23
M  V30 26 1 8 24
M  V30 27 1 8 25
M  V30 28 1 9 26
M  V30 29 1 10 27
M  V30 30 1 10 28
M  V30 31 1 10 29
M  V30 32 1 11 30
M  V30 33 1 11 31
M  V30 34 1 11 32
M  V30 35 1 12 33
M  V30 36 1 12 34
M  V30 37 1 13 35
M  V30 38 1 14 36
M  V30 39 1 14 37
M  V30 40 1 15 38
M  V30 41 1 15 39
M  V30 42 1 16 40
M  V30 43 1 16 41
M  V30 44 1 16 42
M  V30 END BOND
M  V30 BEGIN COLLECTION
M  V30 MDLV30/STEABS ATOMS=(5 2 3 6 9 13)
M  V30 END COLLECTION
M  V30 END CTAB
M  END
>  <Structure No>
408

>  <LogS>
-3.72590382

>  <MMFF94 Energy>
84.106

$$$$
Compound 409
Actelion Java MolfileCreator 2.0

  0  0  0  0  0  0              0 V3000
M  V30 BEGIN CTAB
M  V30 COUNTS 34 35 0 0 0
M  V30 BEGIN ATOM
M  V30 1 C 1.1073 0.3163 0.079 0
M  V30 2 C 1.173 1.3082 1.0853 0
M  V30 3 C 2.0671 0.3743 -0.9613 0
M  V30 4 C -0.059 -0.7022 0.101 0
M  V30 5 C 2.1845 2.2718 1.0852 0
M  V30 6 C 3.0768 1.3411 -0.9532 0
M  V30 7 C -1.375 0.0568 -0.1679 0
M  V30 8 C 0.0419 -1.816 -0.9928 0
M  V30 9 C -0.0651 -1.3902 1.4977 0
M  V30 10 C 3.1399 2.2838 0.0713 0
M  V30 11 C -1.43 1.0207 -1.2012 0
M  V30 12 C -2.5798 -0.2542 0.5069 0
M  V30 13 C 1.192 -2.8171 -0.8019 0
M  V30 14 C -2.6194 1.6903 -1.4989 0
M  V30 15 C -3.766 0.4203 0.203 0
M  V30 16 C -3.7847 1.3957 -0.7929 0
M  V30 17 H 0.4284 1.3526 1.8683 0
M  V30 18 H 2.0512 -0.3091 -1.7951 0
M  V30 19 H 2.2206 3.0173 1.8691 0
M  V30 20 H 3.8078 1.3646 -1.7511 0
M  V30 21 H -0.9028 -2.4046 -0.9999 0
M  V30 22 H 0.1101 -1.3609 -2.0039 0
M  V30 23 H -0.4256 -0.7057 2.2937 0
M  V30 24 H 0.9585 -1.7206 1.7771 0
M  V30 25 H -0.7191 -2.2888 1.5026 0
M  V30 26 H 3.921 3.033 0.0714 0
M  V30 27 H -0.5508 1.2549 -1.7868 0
M  V30 28 H -2.6235 -1.0197 1.2673 0
M  V30 29 H 1.3186 -3.4139 -1.7294 0
M  V30 30 H 0.9596 -3.5199 0.0253 0
M  V30 31 H 2.151 -2.3108 -0.5752 0
M  V30 32 H -2.6388 2.4335 -2.2855 0
M  V30 33 H -4.6763 0.1787 0.7367 0
M  V30 34 H -4.7058 1.9134 -1.0272 0
M  V30 END ATOM
M  V30 BEGIN BOND
M  V30 1 2 1 2
M  V30 2 1 1 3
M  V30 3 1 1 4
M  V30 4 1 2 5
M  V30 5 2 3 6
M  V30 6 1 4 7
M  V30 7 1 4 8
M  V30 8 1 4 9
M  V30 9 2 5 10
M  V30 10 2 7 11
M  V30 11 1 7 12
M  V30 12 1 8 13
M  V30 13 1 11 14
M  V30 14 2 12 15
M  V30 15 2 14 16
M  V30 16 1 6 10
M  V30 17 1 15 16
M  V30 18 1 2 17
M  V30 19 1 3 18
M  V30 20 1 5 19
M  V30 21 1 6 20
M  V30 22 1 8 21
M  V30 23 1 8 22
M  V30 24 1 9 23
M  V30 25 1 9 24
M  V30 26 1 9 25
M  V30 27 1 10 26
M  V30 28 1 11 27
M  V30 29 1 12 28
M  V30 30 1 13 29
M  V30 31 1 13 30
M  V30 32 1 13 31
M  V30 33 1 14 32
M  V30 34 1 15 33
M  V30 35 1 16 34
M  V30 END BOND
M  V30 END CTAB
M  END
>  <Structure No>
409

>  <LogS>
-4.588176842

>  <MMFF94 Energy>
66.013

$$$$
Compound 410
Actelion Java MolfileCreator 2.0

  0  0  0  0  0  0              0 V3000
M  V30 BEGIN CTAB
M  V30 COUNTS 31 32 0 0 0
M  V30 BEGIN ATOM
M  V30 1 N -0.0784 -0.7057 -1.098 0 CHG=1
M  V30 2 C -0.4784 -0.8851 0.3073 0
M  V30 3 C 1.3337 -1.061 -1.3197 0
M  V30 4 C -1.9434 -0.5776 0.4807 0
M  V30 5 C 2.2732 -0.0503 -0.7054 0
M  V30 6 C -2.9034 -1.5926 0.3351 0
M  V30 7 C -2.3655 0.7394 0.728 0
M  V30 8 C 2.9318 -0.3318 0.5035 0
M  V30 9 C 2.4729 1.195 -1.3239 0
M  V30 10 C -4.2646 -1.2976 0.4615 0
M  V30 11 C -3.7276 1.0303 0.8536 0
M  V30 12 C 3.7827 0.6167 1.0793 0
M  V30 13 C 3.3249 2.1407 -0.7449 0
M  V30 14 C -4.6763 0.0123 0.7229 0
M  V30 15 C 3.9798 1.8516 0.4553 0
M  V30 16 H -0.6663 -1.3305 -1.6989 0
M  V30 17 H -0.2464 0.2851 -1.3931 0
M  V30 18 H -0.2771 -1.93 0.635 0
M  V30 19 H 0.1125 -0.2119 0.9669 0
M  V30 20 H 1.5299 -1.1034 -2.4142 0
M  V30 21 H 1.5426 -2.0829 -0.9298 0
M  V30 22 H -2.5981 -2.6098 0.1228 0
M  V30 23 H -1.6408 1.5388 0.8216 0
M  V30 24 H 2.7822 -1.2816 1.002 0
M  V30 25 H 1.9678 1.4326 -2.2521 0
M  V30 26 H -5.0005 -2.0837 0.3531 0
M  V30 27 H -4.0478 2.0456 1.0487 0
M  V30 28 H 4.2876 0.3952 2.0108 0
M  V30 29 H 3.4762 3.0984 -1.226 0
M  V30 30 H -5.7303 0.2392 0.819 0
M  V30 31 H 4.6382 2.585 0.9026 0
M  V30 END ATOM
M  V30 BEGIN BOND
M  V30 1 1 1 2
M  V30 2 1 1 3
M  V30 3 1 2 4
M  V30 4 1 3 5
M  V30 5 2 4 6
M  V30 6 1 4 7
M  V30 7 2 5 8
M  V30 8 1 5 9
M  V30 9 1 6 10
M  V30 10 2 7 11
M  V30 11 1 8 12
M  V30 12 2 9 13
M  V30 13 2 10 14
M  V30 14 2 12 15
M  V30 15 1 11 14
M  V30 16 1 13 15
M  V30 17 1 1 16
M  V30 18 1 1 17
M  V30 19 1 2 18
M  V30 20 1 2 19
M  V30 21 1 3 20
M  V30 22 1 3 21
M  V30 23 1 6 22
M  V30 24 1 7 23
M  V30 25 1 8 24
M  V30 26 1 9 25
M  V30 27 1 10 26
M  V30 28 1 11 27
M  V30 29 1 12 28
M  V30 30 1 13 29
M  V30 31 1 14 30
M  V30 32 1 15 31
M  V30 END BOND
M  V30 END CTAB
M  END
>  <Structure No>
410

>  <LogS>
-2.687630237

>  <MMFF94 Energy>
17.038

$$$$
Compound 411
Actelion Java MolfileCreator 2.0

  0  0  0  0  0  0              0 V3000
M  V30 BEGIN CTAB
M  V30 COUNTS 17 18 0 0 0
M  V30 BEGIN ATOM
M  V30 1 N 0.8732 2.7805 0.3968 0
M  V30 2 N 1.9469 1.9978 0.2955 0
M  V30 3 N -0.2492 2.0782 0.2751 0
M  V30 4 C 1.4711 0.7554 0.1025 0
M  V30 5 C 0.1123 0.8014 0.0893 0
M  V30 6 C 2.1745 -0.4324 -0.0649 0
M  V30 7 C -0.6758 -0.3379 -0.093 0
M  V30 8 C 1.4227 -1.6088 -0.2522 0
M  V30 9 C 0.0071 -1.5642 -0.2664 0
M  V30 10 C -2.1732 -0.2602 -0.1034 0
M  V30 11 H -1.2145 2.4737 0.32 0
M  V30 12 H 3.2564 -0.4529 -0.052 0
M  V30 13 H 1.9315 -2.5544 -0.3863 0
M  V30 14 H -0.5476 -2.4825 -0.4121 0
M  V30 15 H -2.6275 -1.2615 -0.2604 0
M  V30 16 H -2.5062 0.4108 -0.9227 0
M  V30 17 H -2.5327 0.1426 0.8667 0
M  V30 END ATOM
M  V30 BEGIN BOND
M  V30 1 2 1 2
M  V30 2 1 1 3
M  V30 3 1 2 4
M  V30 4 1 3 5
M  V30 5 1 4 6
M  V30 6 1 5 7
M  V30 7 2 6 8
M  V30 8 2 7 9
M  V30 9 1 7 10
M  V30 10 2 4 5
M  V30 11 1 8 9
M  V30 12 1 3 11
M  V30 13 1 6 12
M  V30 14 1 8 13
M  V30 15 1 9 14
M  V30 16 1 10 15
M  V30 17 1 10 16
M  V30 18 1 10 17
M  V30 END BOND
M  V30 END CTAB
M  END
>  <Structure No>
411

>  <LogS>
-1.516963539

>  <MMFF94 Energy>
21.02

$$$$
Compound 412
Actelion Java MolfileCreator 2.0

  0  0  0  0  0  0              0 V3000
M  V30 BEGIN CTAB
M  V30 COUNTS 20 20 0 0 0
M  V30 BEGIN ATOM
M  V30 1 S 2.8762 0.169 -0.338 0
M  V30 2 O 3.4032 1.5672 -0.1748 0
M  V30 3 O 3.2424 -0.338 -1.704 0
M  V30 4 O 3.5768 -0.8095 0.8341 0 CHG=-1
M  V30 5 C 1.12 0.1437 -0.1528 0
M  V30 6 C 0.4329 -1.0826 -0.0973 0
M  V30 7 C 0.4108 1.3499 -0.0816 0
M  V30 8 O 1.1719 -2.2636 -0.2171 0
M  V30 9 C -0.9742 -1.0887 0.0611 0
M  V30 10 C -0.9858 1.3548 0.0536 0
M  V30 11 N -1.7227 -2.3077 0.1735 0
M  V30 12 C -1.666 0.1301 0.1253 0
M  V30 13 N -1.7129 2.596 0.1231 0 CHG=1
M  V30 14 O -1.1139 3.6901 0.0637 0
M  V30 15 O -3.0828 2.5984 0.255 0 CHG=-1
M  V30 16 H 0.9471 2.2879 -0.137 0
M  V30 17 H 0.764 -3.1852 -0.2751 0
M  V30 18 H -2.7666 -2.2824 0.2055 0
M  V30 19 H -1.2759 -3.2382 0.3088 0
M  V30 20 H -2.7424 0.1185 0.2409 0
M  V30 END ATOM
M  V30 BEGIN BOND
M  V30 1 2 1 2
M  V30 2 2 1 3
M  V30 3 1 1 4
M  V30 4 1 1 5
M  V30 5 2 5 6
M  V30 6 1 5 7
M  V30 7 1 6 8
M  V30 8 1 6 9
M  V30 9 2 7 10
M  V30 10 1 9 11
M  V30 11 2 9 12
M  V30 12 1 10 13
M  V30 13 2 13 14
M  V30 14 1 13 15
M  V30 15 1 10 12
M  V30 16 1 7 16
M  V30 17 1 8 17
M  V30 18 1 11 18
M  V30 19 1 11 19
M  V30 20 1 12 20
M  V30 END BOND
M  V30 END CTAB
M  END
>  <Structure No>
412

>  <LogS>
-1.766205568

>  <MMFF94 Energy>
41.913

$$$$
Compound 413
Actelion Java MolfileCreator 2.0

  0  0  0  0  0  0              0 V3000
M  V30 BEGIN CTAB
M  V30 COUNTS 112 117 0 0 0
M  V30 BEGIN ATOM
M  V30 1 S -1.245 2.6574 1.7433 0
M  V30 2 O -1.5897 3.6928 2.7755 0
M  V30 3 O -1.8408 3.0438 0.417 0
M  V30 4 O 0.4283 2.5771 1.5708 0 CHG=-1
M  V30 5 C -1.8803 1.0858 2.2353 0
M  V30 6 C -3.2526 0.7698 2.1187 0
M  V30 7 C -0.9845 0.1285 2.736 0
M  V30 8 N -4.2064 1.7756 1.7193 0
M  V30 9 C -3.6847 -0.5125 2.5052 0
M  V30 10 C -1.4048 -1.1834 3.0128 0
M  V30 11 C -5.4517 1.5056 1.0559 0
M  V30 12 C -2.7711 -1.4824 2.9322 0
M  V30 13 C -0.4785 -2.2412 3.4974 0
M  V30 14 N -5.6861 0.3119 0.4503 0
M  V30 15 N -6.4144 2.4616 1.0389 0
M  V30 16 C 0.8292 -2.3617 3.2138 0
M  V30 17 C -6.8844 0.0665 -0.1361 0
M  V30 18 C -7.6123 2.2245 0.4493 0
M  V30 19 C 1.6066 -1.5185 2.2868 0
M  V30 20 N -7.8427 1.0232 -0.1353 0
M  V30 21 N -7.1663 -1.2281 -0.6791 0
M  V30 22 N -8.6043 3.2587 0.4168 0
M  V30 23 C 1.1569 -1.2468 0.9821 0
M  V30 24 C 2.8331 -0.9926 2.7213 0
M  V30 25 C -6.3261 -1.7614 -1.7594 0
M  V30 26 C -8.3714 -1.9439 -0.2431 0
M  V30 27 C -9.9879 3.0549 0.082 0
M  V30 28 C 1.9081 -0.4194 0.1328 0
M  V30 29 C 3.5853 -0.1747 1.882 0
M  V30 30 C -6.855 -1.2822 -3.1127 0
M  V30 31 C -8.2092 -2.4181 1.2024 0
M  V30 32 C -10.657 1.8522 0.3926 0
M  V30 33 C -10.7142 4.1032 -0.5057 0
M  V30 34 S 1.302 -0.0907 -1.4899 0
M  V30 35 C 3.1335 0.1255 0.5844 0
M  V30 36 O -6.0297 -1.7709 -4.1342 0
M  V30 37 O -9.3896 -3.0261 1.665 0
M  V30 38 C -12.004 1.6905 0.0755 0
M  V30 39 C -12.0631 3.938 -0.8229 0
M  V30 40 O 2.4266 -0.1884 -2.4821 0
M  V30 41 O 0.7093 1.2886 -1.5307 0
M  V30 42 O 0.1226 -1.2142 -1.9042 0 CHG=-1
M  V30 43 N 3.9244 0.9823 -0.2563 0
M  V30 44 C -12.7068 2.7258 -0.5509 0
M  V30 45 C 5.3231 0.744 -0.4723 0
M  V30 46 S -14.408 2.5245 -0.9416 0
M  V30 47 N 5.8971 -0.3994 -0.0113 0
M  V30 48 N 6.0676 1.6283 -1.1913 0
M  V30 49 O -14.6985 1.0742 -1.1939 0
M  V30 50 O -14.7463 3.3001 -2.1866 0
M  V30 51 O -15.3475 3.0711 0.3401 0 CHG=-1
M  V30 52 C 7.1996 -0.6651 -0.2637 0
M  V30 53 C 7.3817 1.3753 -1.4353 0
M  V30 54 N 7.9358 0.2226 -0.9801 0
M  V30 55 N 7.7799 -1.903 0.1715 0
M  V30 56 N 8.1604 2.3038 -2.2066 0
M  V30 57 C 8.588 -2.6979 -0.7633 0
M  V30 58 C 7.5587 -2.3784 1.5399 0
M  V30 59 C 9.593 2.2238 -2.3005 0
M  V30 60 C 7.7043 -3.313 -1.8454 0
M  V30 61 C 8.7417 -1.9875 2.434 0
M  V30 62 C 10.2131 2.3128 -3.5547 0
M  V30 63 C 10.3821 2.0693 -1.1458 0
M  V30 64 O 6.8141 -4.2241 -1.2667 0
M  V30 65 O 8.5712 -2.528 3.7142 0
M  V30 66 C 11.6057 2.2138 -3.6573 0
M  V30 67 C 11.7727 1.9889 -1.2503 0
M  V30 68 C 12.3884 2.0444 -2.5053 0
M  V30 69 S 14.1419 1.9242 -2.6205 0
M  V30 70 O 14.5768 2.0252 -4.0512 0
M  V30 71 O 14.5953 0.6021 -2.0579 0
M  V30 72 O 14.8403 3.1859 -1.7526 0 CHG=-1
M  V30 73 H 0.0447 0.4137 2.8965 0
M  V30 74 H -4.0243 2.7688 1.9943 0
M  V30 75 H -4.734 -0.7664 2.51 0
M  V30 76 H -3.136 -2.4619 3.2098 0
M  V30 77 H -0.8956 -2.9985 4.1523 0
M  V30 78 H 1.3758 -3.1315 3.7354 0
M  V30 79 H -8.2815 4.2404 0.5782 0
M  V30 80 H 0.2277 -1.6894 0.6353 0
M  V30 81 H 3.1871 -1.1894 3.7262 0
M  V30 82 H -6.3353 -2.8745 -1.7354 0
M  V30 83 H -5.2725 -1.4282 -1.6369 0
M  V30 84 H -8.5477 -2.8305 -0.8953 0
M  V30 85 H -9.255 -1.2806 -0.3253 0
M  V30 86 H 4.5097 0.2404 2.2483 0
M  V30 87 H -7.8976 -1.6547 -3.2544 0
M  V30 88 H -6.8655 -0.1685 -3.1376 0
M  V30 89 H -7.9698 -1.5542 1.8586 0
M  V30 90 H -7.3589 -3.1345 1.2733 0
M  V30 91 H -10.151 1.0422 0.8995 0
M  V30 92 H -10.2329 5.0465 -0.7337 0
M  V30 93 H -6.4516 -1.4735 -4.9846 0
M  V30 94 H -9.4739 -3.8888 1.1775 0
M  V30 95 H -12.5049 0.7627 0.3192 0
M  V30 96 H -12.6119 4.7531 -1.2758 0
M  V30 97 H 3.4522 1.73 -0.8173 0
M  V30 98 H 7.6545 3.013 -2.7873 0
M  V30 99 H 9.1123 -3.5197 -0.2227 0
M  V30 100 H 9.3637 -2.0502 -1.2266 0
M  V30 101 H 7.4401 -3.4881 1.5335 0
M  V30 102 H 6.6247 -1.9445 1.9593 0
M  V30 103 H 7.1375 -2.5236 -2.3772 0
M  V30 104 H 8.3596 -3.8395 -2.5831 0
M  V30 105 H 8.8494 -0.8773 2.4879 0
M  V30 106 H 9.6783 -2.3991 1.9993 0
M  V30 107 H 9.6165 2.4398 -4.4532 0
M  V30 108 H 9.9193 2.034 -0.1646 0
M  V30 109 H 6.2679 -4.5961 -2.0166 0
M  V30 110 H 7.9224 -1.9423 4.1816 0
M  V30 111 H 12.0649 2.2841 -4.6292 0
M  V30 112 H 12.3692 1.864 -0.358 0
M  V30 END ATOM
M  V30 BEGIN BOND
M  V30 1 2 1 2
M  V30 2 2 1 3
M  V30 3 1 1 4
M  V30 4 1 1 5
M  V30 5 2 5 6
M  V30 6 1 5 7
M  V30 7 1 6 8
M  V30 8 1 6 9
M  V30 9 2 7 10
M  V30 10 1 8 11
M  V30 11 2 9 12
M  V30 12 1 10 13
M  V30 13 2 11 14
M  V30 14 1 11 15
M  V30 15 2 13 16
M  V30 16 1 14 17
M  V30 17 2 15 18
M  V30 18 1 16 19
M  V30 19 2 17 20
M  V30 20 1 17 21
M  V30 21 1 18 22
M  V30 22 2 19 23
M  V30 23 1 19 24
M  V30 24 1 21 25
M  V30 25 1 21 26
M  V30 26 1 22 27
M  V30 27 1 23 28
M  V30 28 2 24 29
M  V30 29 1 25 30
M  V30 30 1 26 31
M  V30 31 2 27 32
M  V30 32 1 27 33
M  V30 33 1 28 34
M  V30 34 2 28 35
M  V30 35 1 30 36
M  V30 36 1 31 37
M  V30 37 1 32 38
M  V30 38 2 33 39
M  V30 39 2 34 40
M  V30 40 2 34 41
M  V30 41 1 34 42
M  V30 42 1 35 43
M  V30 43 2 38 44
M  V30 44 1 43 45
M  V30 45 1 44 46
M  V30 46 2 45 47
M  V30 47 1 45 48
M  V30 48 2 46 49
M  V30 49 2 46 50
M  V30 50 1 46 51
M  V30 51 1 47 52
M  V30 52 2 48 53
M  V30 53 2 52 54
M  V30 54 1 52 55
M  V30 55 1 53 56
M  V30 56 1 55 57
M  V30 57 1 55 58
M  V30 58 1 56 59
M  V30 59 1 57 60
M  V30 60 1 58 61
M  V30 61 2 59 62
M  V30 62 1 59 63
M  V30 63 1 60 64
M  V30 64 1 61 65
M  V30 65 1 62 66
M  V30 66 2 63 67
M  V30 67 2 66 68
M  V30 68 1 68 69
M  V30 69 2 69 70
M  V30 70 2 69 71
M  V30 71 1 69 72
M  V30 72 1 10 12
M  V30 73 1 18 20
M  V30 74 1 29 35
M  V30 75 1 39 44
M  V30 76 1 53 54
M  V30 77 1 67 68
M  V30 78 1 7 73
M  V30 79 1 8 74
M  V30 80 1 9 75
M  V30 81 1 12 76
M  V30 82 1 13 77
M  V30 83 1 16 78
M  V30 84 1 22 79
M  V30 85 1 23 80
M  V30 86 1 24 81
M  V30 87 1 25 82
M  V30 88 1 25 83
M  V30 89 1 26 84
M  V30 90 1 26 85
M  V30 91 1 29 86
M  V30 92 1 30 87
M  V30 93 1 30 88
M  V30 94 1 31 89
M  V30 95 1 31 90
M  V30 96 1 32 91
M  V30 97 1 33 92
M  V30 98 1 36 93
M  V30 99 1 37 94
M  V30 100 1 38 95
M  V30 101 1 39 96
M  V30 102 1 43 97
M  V30 103 1 56 98
M  V30 104 1 57 99
M  V30 105 1 57 100
M  V30 106 1 58 101
M  V30 107 1 58 102
M  V30 108 1 60 103
M  V30 109 1 60 104
M  V30 110 1 61 105
M  V30 111 1 61 106
M  V30 112 1 62 107
M  V30 113 1 63 108
M  V30 114 1 64 109
M  V30 115 1 65 110
M  V30 116 1 66 111
M  V30 117 1 67 112
M  V30 END BOND
M  V30 END CTAB
M  END
>  <Structure No>
413

>  <LogS>
-0.46428681

>  <MMFF94 Energy>
-101.87

$$$$
Compound 414
Actelion Java MolfileCreator 2.0

  0  0  0  0  0  0              0 V3000
M  V30 BEGIN CTAB
M  V30 COUNTS 24 24 0 0 0
M  V30 BEGIN ATOM
M  V30 1 O -3.0258 -0.2386 0.6364 0
M  V30 2 C -1.7663 -0.3039 0.6888 0
M  V30 3 O -1.1435 -1.4536 1.1856 0
M  V30 4 C -0.9518 0.8623 0.2775 0
M  V30 5 C -1.8714 -2.6021 1.6026 0
M  V30 6 C 0.3345 0.728 -0.3144 0
M  V30 7 C -1.4485 2.1507 0.5507 0
M  V30 8 C 0.8832 -0.573 -0.7594 0
M  V30 9 C 1.1029 1.8823 -0.5515 0
M  V30 10 C -0.6779 3.2835 0.2861 0
M  V30 11 O 0.1165 -1.4638 -1.2187 0
M  V30 12 O 2.2649 -0.788 -0.7204 0
M  V30 13 C 0.5993 3.1489 -0.2528 0
M  V30 14 C 2.8638 -2.0055 -1.1476 0
M  V30 15 H -2.5525 -2.3379 2.4391 0
M  V30 16 H -1.1592 -3.3784 1.9499 0
M  V30 17 H -2.4598 -3.008 0.7526 0
M  V30 18 H -2.4253 2.2807 1.0011 0
M  V30 19 H 2.0862 1.8072 -1.0001 0
M  V30 20 H -1.0679 4.2677 0.5122 0
M  V30 21 H 1.1969 4.0293 -0.4517 0
M  V30 22 H 2.4809 -2.8515 -0.5382 0
M  V30 23 H 3.9631 -1.9363 -1.0168 0
M  V30 24 H 2.6392 -2.1834 -2.2206 0
M  V30 END ATOM
M  V30 BEGIN BOND
M  V30 1 2 1 2
M  V30 2 1 2 3
M  V30 3 1 2 4
M  V30 4 1 3 5
M  V30 5 2 4 6
M  V30 6 1 4 7
M  V30 7 1 6 8
M  V30 8 1 6 9
M  V30 9 2 7 10
M  V30 10 2 8 11
M  V30 11 1 8 12
M  V30 12 2 9 13
M  V30 13 1 12 14
M  V30 14 1 10 13
M  V30 15 1 5 15
M  V30 16 1 5 16
M  V30 17 1 5 17
M  V30 18 1 7 18
M  V30 19 1 9 19
M  V30 20 1 10 20
M  V30 21 1 13 21
M  V30 22 1 14 22
M  V30 23 1 14 23
M  V30 24 1 14 24
M  V30 END BOND
M  V30 END CTAB
M  END
>  <Structure No>
414

>  <LogS>
-1.686157925

>  <MMFF94 Energy>
23.134

$$$$
Compound 415
Actelion Java MolfileCreator 2.0

  0  0  0  0  0  0              0 V3000
M  V30 BEGIN CTAB
M  V30 COUNTS 58 60 0 0 0
M  V30 BEGIN ATOM
M  V30 1 N -1.8185 5.3838 -0.8694 0
M  V30 2 C -1.3667 4.0209 -0.6438 0
M  V30 3 C -2.7029 6.0493 0.0964 0
M  V30 4 C -1.4074 6.1161 -2.0745 0
M  V30 5 C -2.0138 3.1872 0.2936 0
M  V30 6 C -0.2633 3.4961 -1.349 0
M  V30 7 C -1.5778 1.8775 0.5105 0
M  V30 8 C 0.1674 2.1848 -1.1338 0
M  V30 9 C -0.4863 1.3618 -0.2045 0
M  V30 10 C -0.0241 -0.0324 0.0258 0 CHG=1
M  V30 11 C -1.0156 -1.1209 0.2338 0
M  V30 12 C 1.43 -0.3389 0.0464 0
M  V30 13 C -0.7756 -2.1322 1.1762 0
M  V30 14 C -2.2051 -1.153 -0.5095 0
M  V30 15 C 2.3343 0.5394 0.6647 0
M  V30 16 C 1.9195 -1.5099 -0.5533 0
M  V30 17 C -1.7066 -3.1551 1.3737 0
M  V30 18 C -3.1369 -2.1762 -0.3153 0
M  V30 19 C 3.7011 0.25 0.6864 0
M  V30 20 C 3.2865 -1.7983 -0.5348 0
M  V30 21 C -2.9038 -3.1948 0.6307 0
M  V30 22 C 4.195 -0.9244 0.0889 0
M  V30 23 N -3.8711 -4.257 0.8348 0
M  V30 24 N 5.6086 -1.2259 0.1103 0
M  V30 25 C -3.9034 -5.0024 2.0988 0
M  V30 26 C -4.8336 -4.602 -0.2185 0
M  V30 27 C 6.448 -0.7929 1.2304 0
M  V30 28 C 6.2491 -1.8185 -1.0681 0
M  V30 29 H -3.709 5.5798 0.0747 0
M  V30 30 H -2.2722 5.9702 1.1173 0
M  V30 31 H -2.8227 7.1297 -0.1313 0
M  V30 32 H -1.9691 7.0668 -2.1921 0
M  V30 33 H -1.6068 5.4993 -2.9763 0
M  V30 34 H -0.3258 6.3608 -2.0172 0
M  V30 35 H -2.8638 3.537 0.863 0
M  V30 36 H 0.2796 4.0946 -2.0667 0
M  V30 37 H -2.0919 1.2667 1.2426 0
M  V30 38 H 1.0099 1.809 -1.7019 0
M  V30 39 H 0.1306 -2.1267 1.7689 0
M  V30 40 H -2.4109 -0.3896 -1.2497 0
M  V30 41 H 1.9814 1.4475 1.1383 0
M  V30 42 H 1.2438 -2.1983 -1.0456 0
M  V30 43 H -1.4778 -3.918 2.1047 0
M  V30 44 H -4.0437 -2.1575 -0.9035 0
M  V30 45 H 4.3733 0.9536 1.1595 0
M  V30 46 H 3.629 -2.7132 -0.9978 0
M  V30 47 H -3.0342 -5.6898 2.1535 0
M  V30 48 H -3.8769 -4.2956 2.9554 0
M  V30 49 H -4.8306 -5.6061 2.1928 0
M  V30 50 H -5.3434 -5.5667 -0.0069 0
M  V30 51 H -4.3072 -4.7096 -1.1904 0
M  V30 52 H -5.6075 -3.8099 -0.2966 0
M  V30 53 H 7.3054 -1.4877 1.3644 0
M  V30 54 H 6.8346 0.2303 1.0361 0
M  V30 55 H 5.8664 -0.7996 2.1769 0
M  V30 56 H 5.9582 -2.8845 -1.1615 0
M  V30 57 H 7.356 -1.7675 -0.9926 0
M  V30 58 H 5.942 -1.2679 -1.9819 0
M  V30 END ATOM
M  V30 BEGIN BOND
M  V30 1 1 1 2
M  V30 2 1 1 3
M  V30 3 1 1 4
M  V30 4 2 2 5
M  V30 5 1 2 6
M  V30 6 1 5 7
M  V30 7 2 6 8
M  V30 8 2 7 9
M  V30 9 1 9 10
M  V30 10 1 10 11
M  V30 11 1 10 12
M  V30 12 2 11 13
M  V30 13 1 11 14
M  V30 14 2 12 15
M  V30 15 1 12 16
M  V30 16 1 13 17
M  V30 17 2 14 18
M  V30 18 1 15 19
M  V30 19 2 16 20
M  V30 20 2 17 21
M  V30 21 2 19 22
M  V30 22 1 21 23
M  V30 23 1 22 24
M  V30 24 1 23 25
M  V30 25 1 23 26
M  V30 26 1 24 27
M  V30 27 1 24 28
M  V30 28 1 8 9
M  V30 29 1 18 21
M  V30 30 1 20 22
M  V30 31 1 3 29
M  V30 32 1 3 30
M  V30 33 1 3 31
M  V30 34 1 4 32
M  V30 35 1 4 33
M  V30 36 1 4 34
M  V30 37 1 5 35
M  V30 38 1 6 36
M  V30 39 1 7 37
M  V30 40 1 8 38
M  V30 41 1 13 39
M  V30 42 1 14 40
M  V30 43 1 15 41
M  V30 44 1 16 42
M  V30 45 1 17 43
M  V30 46 1 18 44
M  V30 47 1 19 45
M  V30 48 1 20 46
M  V30 49 1 25 47
M  V30 50 1 25 48
M  V30 51 1 25 49
M  V30 52 1 26 50
M  V30 53 1 26 51
M  V30 54 1 26 52
M  V30 55 1 27 53
M  V30 56 1 27 54
M  V30 57 1 27 55
M  V30 58 1 28 56
M  V30 59 1 28 57
M  V30 60 1 28 58
M  V30 END BOND
M  V30 END CTAB
M  END
>  <Structure No>
415

>  <LogS>
-2.008588463

>  <MMFF94 Energy>
72.616

$$$$
Compound 416
Actelion Java MolfileCreator 2.0

  0  0  0  0  0  0              0 V3000
M  V30 BEGIN CTAB
M  V30 COUNTS 30 30 0 0 0
M  V30 BEGIN ATOM
M  V30 1 O 3.3999 -2.9249 0.7108 0
M  V30 2 C 2.9133 -1.8844 0.1959 0
M  V30 3 O 1.6671 -1.4145 0.6037 0
M  V30 4 C 3.6556 -1.1271 -0.8557 0
M  V30 5 C 1.0208 -0.3688 -0.1211 0 CFG=2
M  V30 6 C 3.476 0.3733 -0.5956 0
M  V30 7 C 2.0012 0.8056 -0.3867 0
M  V30 8 C -0.2352 0.074 0.6475 0
M  V30 9 C -1.0983 1.063 -0.1559 0
M  V30 10 C -2.4304 1.3835 0.554 0
M  V30 11 C -3.6375 0.6354 -0.0362 0
M  V30 12 C -3.5756 -0.8732 0.1903 0
M  V30 13 H 3.2454 -1.3895 -1.8542 0
M  V30 14 H 4.7364 -1.3857 -0.8321 0
M  V30 15 H 0.7033 -0.7872 -1.1029 0
M  V30 16 H 3.9162 0.9445 -1.4414 0
M  V30 17 H 4.0594 0.64 0.3136 0
M  V30 18 H 1.6567 1.3547 -1.2902 0
M  V30 19 H 1.9698 1.5254 0.4607 0
M  V30 20 H 0.0631 0.5378 1.6134 0
M  V30 21 H -0.8321 -0.8306 0.886 0
M  V30 22 H -1.2844 0.6668 -1.1782 0
M  V30 23 H -0.5293 2.0108 -0.2723 0
M  V30 24 H -2.6309 2.4715 0.4402 0
M  V30 25 H -2.3621 1.1907 1.6474 0
M  V30 26 H -3.7186 0.8439 -1.1251 0
M  V30 27 H -4.5601 1.0234 0.4475 0
M  V30 28 H -2.7609 -1.3238 -0.4134 0
M  V30 29 H -4.5344 -1.3338 -0.1279 0
M  V30 30 H -3.4149 -1.0993 1.2659 0
M  V30 END ATOM
M  V30 BEGIN BOND
M  V30 1 2 1 2
M  V30 2 1 2 3
M  V30 3 1 2 4
M  V30 4 1 3 5
M  V30 5 1 4 6
M  V30 6 1 5 7
M  V30 7 1 5 8
M  V30 8 1 8 9
M  V30 9 1 9 10
M  V30 10 1 10 11
M  V30 11 1 11 12
M  V30 12 1 6 7
M  V30 13 1 4 13
M  V30 14 1 4 14
M  V30 15 1 5 15
M  V30 16 1 6 16
M  V30 17 1 6 17
M  V30 18 1 7 18
M  V30 19 1 7 19
M  V30 20 1 8 20
M  V30 21 1 8 21
M  V30 22 1 9 22
M  V30 23 1 9 23
M  V30 24 1 10 24
M  V30 25 1 10 25
M  V30 26 1 11 26
M  V30 27 1 11 27
M  V30 28 1 12 28
M  V30 29 1 12 29
M  V30 30 1 12 30
M  V30 END BOND
M  V30 BEGIN COLLECTION
M  V30 MDLV30/STEABS ATOMS=(1 5)
M  V30 END COLLECTION
M  V30 END CTAB
M  END
>  <Structure No>
416

>  <LogS>
-1.629032231

>  <MMFF94 Energy>
0.28787

$$$$
Compound 417
Actelion Java MolfileCreator 2.0

  0  0  0  0  0  0              0 V3000
M  V30 BEGIN CTAB
M  V30 COUNTS 19 18 0 0 0
M  V30 BEGIN ATOM
M  V30 1 F 4.0442 0.4846 -0.727 0
M  V30 2 C 3.0646 0.4726 0.2484 0
M  V30 3 F 3.4227 1.3515 1.256 0
M  V30 4 F 2.9651 -0.8003 0.7788 0
M  V30 5 C 1.7472 0.8708 -0.3565 0
M  V30 6 O 1.1827 1.8861 0.0245 0
M  V30 7 C 1.122 0.0403 -1.4421 0
M  V30 8 C -0.1389 -0.5895 -0.9459 0
M  V30 9 O -0.0961 -1.7198 -0.3874 0
M  V30 10 O -1.3488 0.1023 -1.0722 0
M  V30 11 C -2.5846 -0.3754 -0.5448 0
M  V30 12 C -2.6352 -0.1793 0.9659 0
M  V30 13 H 0.8982 0.6858 -2.3181 0
M  V30 14 H 1.8235 -0.7537 -1.7782 0
M  V30 15 H -2.7268 -1.4479 -0.8004 0
M  V30 16 H -3.4129 0.2018 -1.0069 0
M  V30 17 H -3.6245 -0.5038 1.3516 0
M  V30 18 H -2.4861 0.8928 1.2137 0
M  V30 19 H -1.8448 -0.7805 1.4615 0
M  V30 END ATOM
M  V30 BEGIN BOND
M  V30 1 1 1 2
M  V30 2 1 2 3
M  V30 3 1 2 4
M  V30 4 1 2 5
M  V30 5 2 5 6
M  V30 6 1 5 7
M  V30 7 1 7 8
M  V30 8 2 8 9
M  V30 9 1 8 10
M  V30 10 1 10 11
M  V30 11 1 11 12
M  V30 12 1 7 13
M  V30 13 1 7 14
M  V30 14 1 11 15
M  V30 15 1 11 16
M  V30 16 1 12 17
M  V30 17 1 12 18
M  V30 18 1 12 19
M  V30 END BOND
M  V30 END CTAB
M  END
>  <Structure No>
417

>  <LogS>
-1.663024463

>  <MMFF94 Energy>
-1.3943

$$$$
Compound 418
Actelion Java MolfileCreator 2.0

  0  0  0  0  0  0              0 V3000
M  V30 BEGIN CTAB
M  V30 COUNTS 21 20 0 0 0
M  V30 BEGIN ATOM
M  V30 1 O 4.9755 -0.4005 0.0 0
M  V30 2 N 4.4688 0.608 0.5345 0 CHG=1
M  V30 3 O 3.1216 0.8815 0.4039 0
M  V30 4 O 5.2633 1.4592 1.264 0 CHG=-1
M  V30 5 C 2.2487 0.0372 -0.3389 0
M  V30 6 C 0.8347 0.5994 -0.297 0
M  V30 7 O -0.0203 -0.242 -1.0424 0
M  V30 8 C -1.3658 0.1784 -0.9153 0
M  V30 9 C -2.0764 -0.6443 0.1553 0
M  V30 10 O -3.45 -0.2733 0.2093 0
M  V30 11 N -4.3333 -0.8628 1.0919 0 CHG=1
M  V30 12 O -3.9554 -1.752 1.883 0
M  V30 13 O -5.6483 -0.464 1.0991 0 CHG=-1
M  V30 14 H 2.2552 -0.9831 0.1021 0
M  V30 15 H 2.5953 -0.0187 -1.3936 0
M  V30 16 H 0.8484 1.6218 -0.7383 0
M  V30 17 H 0.512 0.6586 0.7676 0
M  V30 18 H -1.8724 -0.0026 -1.887 0
M  V30 19 H -1.4784 1.268 -0.6989 0
M  V30 20 H -1.6066 -0.4617 1.1452 0
M  V30 21 H -1.9943 -1.7248 -0.092 0
M  V30 END ATOM
M  V30 BEGIN BOND
M  V30 1 2 1 2
M  V30 2 1 2 3
M  V30 3 1 2 4
M  V30 4 1 3 5
M  V30 5 1 5 6
M  V30 6 1 6 7
M  V30 7 1 7 8
M  V30 8 1 8 9
M  V30 9 1 9 10
M  V30 10 1 10 11
M  V30 11 2 11 12
M  V30 12 1 11 13
M  V30 13 1 5 14
M  V30 14 1 5 15
M  V30 15 1 6 16
M  V30 16 1 6 17
M  V30 17 1 8 18
M  V30 18 1 8 19
M  V30 19 1 9 20
M  V30 20 1 9 21
M  V30 END BOND
M  V30 END CTAB
M  END
>  <Structure No>
418

>  <LogS>
-1.690450821

>  <MMFF94 Energy>
-7.4638

$$$$
Compound 419
Actelion Java MolfileCreator 2.0

  0  0  0  0  0  0              0 V3000
M  V30 BEGIN CTAB
M  V30 COUNTS 32 31 0 0 0
M  V30 BEGIN ATOM
M  V30 1 O -1.2438 0.9327 -2.1775 0
M  V30 2 C -1.3707 -0.136 -1.5196 0
M  V30 3 O -0.2494 -0.8026 -1.0184 0
M  V30 4 C -2.7369 -0.6831 -1.2427 0
M  V30 5 C 1.0767 -0.3203 -1.2047 0
M  V30 6 C -3.1385 -0.4851 0.2245 0
M  V30 7 C 2.0631 -1.2721 -0.5253 0
M  V30 8 C -3.3516 0.995 0.5728 0
M  V30 9 C 3.5238 -0.7914 -0.6505 0
M  V30 10 C -3.804 1.1596 2.0207 0
M  V30 11 C 4.0631 -0.123 0.6251 0
M  V30 12 C 3.3771 1.2043 0.9412 0
M  V30 13 H -3.4868 -0.2053 -1.9107 0
M  V30 14 H -2.7315 -1.7705 -1.47 0
M  V30 15 H 1.1608 0.6979 -0.7712 0
M  V30 16 H 1.3001 -0.2673 -2.2927 0
M  V30 17 H -2.3596 -0.9222 0.8879 0
M  V30 18 H -4.0859 -1.0392 0.4031 0
M  V30 19 H 1.9699 -2.266 -1.0154 0
M  V30 20 H 1.7791 -1.4073 0.5412 0
M  V30 21 H -4.1245 1.4307 -0.0969 0
M  V30 22 H -2.4042 1.5584 0.431 0
M  V30 23 H 3.6518 -0.1087 -1.5195 0
M  V30 24 H 4.1632 -1.6786 -0.852 0
M  V30 25 H -3.9473 2.2376 2.2453 0
M  V30 26 H -3.0372 0.7514 2.7129 0
M  V30 27 H -4.7671 0.6316 2.1868 0
M  V30 28 H 3.9544 -0.812 1.4907 0
M  V30 29 H 5.1488 0.0699 0.486 0
M  V30 30 H 2.3283 1.033 1.2604 0
M  V30 31 H 3.9118 1.7065 1.7747 0
M  V30 32 H 3.3956 1.8736 0.055 0
M  V30 END ATOM
M  V30 BEGIN BOND
M  V30 1 2 1 2
M  V30 2 1 2 3
M  V30 3 1 2 4
M  V30 4 1 3 5
M  V30 5 1 4 6
M  V30 6 1 5 7
M  V30 7 1 6 8
M  V30 8 1 7 9
M  V30 9 1 8 10
M  V30 10 1 9 11
M  V30 11 1 11 12
M  V30 12 1 4 13
M  V30 13 1 4 14
M  V30 14 1 5 15
M  V30 15 1 5 16
M  V30 16 1 6 17
M  V30 17 1 6 18
M  V30 18 1 7 19
M  V30 19 1 7 20
M  V30 20 1 8 21
M  V30 21 1 8 22
M  V30 22 1 9 23
M  V30 23 1 9 24
M  V30 24 1 10 25
M  V30 25 1 10 26
M  V30 26 1 10 27
M  V30 27 1 11 28
M  V30 28 1 11 29
M  V30 29 1 12 30
M  V30 30 1 12 31
M  V30 31 1 12 32
M  V30 END BOND
M  V30 END CTAB
M  END
>  <Structure No>
419

>  <LogS>
-3.624481304

>  <MMFF94 Energy>
-13.41

$$$$
Compound 420
Actelion Java MolfileCreator 2.0

  0  0  0  0  0  0              0 V3000
M  V30 BEGIN CTAB
M  V30 COUNTS 40 42 0 0 0
M  V30 BEGIN ATOM
M  V30 1 O -3.7941 2.5013 -0.887 0
M  V30 2 C -3.7115 1.2682 -1.1276 0
M  V30 3 N -2.5512 0.6366 -1.656 0
M  V30 4 C -4.7725 0.2873 -0.9008 0
M  V30 5 C -2.9333 -0.7342 -1.7043 0
M  V30 6 C -1.187 1.1586 -1.6234 0
M  V30 7 C -4.3152 -0.9101 -1.2612 0
M  V30 8 C -6.166 0.5795 -0.4453 0
M  V30 9 O -2.1694 -1.6662 -2.0703 0
M  V30 10 C -0.5913 0.9709 -0.2545 0
M  V30 11 C 0.1012 -0.209 0.0604 0
M  V30 12 C -0.7757 1.9467 0.7373 0
M  V30 13 C 0.6173 -0.4094 1.3513 0
M  V30 14 C -0.2547 1.7554 2.0191 0
M  V30 15 C 0.4449 0.5862 2.3254 0
M  V30 16 C 1.4021 -1.6527 1.6685 0
M  V30 17 N 2.8115 -1.4603 1.3372 0
M  V30 18 C 3.3972 -1.5331 0.0428 0
M  V30 19 C 3.7595 -0.6912 2.0702 0
M  V30 20 O 2.849 -2.0818 -0.9493 0
M  V30 21 C 4.7004 -0.8707 0.0322 0
M  V30 22 O 3.6028 -0.3353 3.2679 0
M  V30 23 C 4.9123 -0.3516 1.2408 0
M  V30 24 C 5.5813 -0.6791 -1.1585 0
M  V30 25 H -0.571 0.6379 -2.3889 0
M  V30 26 H -1.195 2.2365 -1.8942 0
M  V30 27 H -4.8727 -1.8375 -1.2357 0
M  V30 28 H -6.8254 0.707 -1.3284 0
M  V30 29 H -6.5476 -0.2548 0.1802 0
M  V30 30 H -6.1822 1.5109 0.1579 0
M  V30 31 H 0.2385 -0.9704 -0.6977 0
M  V30 32 H -1.3217 2.8558 0.5174 0
M  V30 33 H -0.3921 2.5163 2.7766 0
M  V30 34 H 0.8516 0.4576 3.3212 0
M  V30 35 H 1.3067 -1.904 2.7475 0
M  V30 36 H 1.0 -2.517 1.0976 0
M  V30 37 H 5.7691 0.239 1.5385 0
M  V30 38 H 5.4887 -1.5495 -1.8405 0
M  V30 39 H 6.6418 -0.5852 -0.8427 0
M  V30 40 H 5.2783 0.2402 -1.6995 0
M  V30 END ATOM
M  V30 BEGIN BOND
M  V30 1 2 1 2
M  V30 2 1 2 3
M  V30 3 1 2 4
M  V30 4 1 3 5
M  V30 5 1 3 6
M  V30 6 2 4 7
M  V30 7 1 4 8
M  V30 8 2 5 9
M  V30 9 1 6 10
M  V30 10 2 10 11
M  V30 11 1 10 12
M  V30 12 1 11 13
M  V30 13 2 12 14
M  V30 14 2 13 15
M  V30 15 1 13 16
M  V30 16 1 16 17
M  V30 17 1 17 18
M  V30 18 1 17 19
M  V30 19 2 18 20
M  V30 20 1 18 21
M  V30 21 2 19 22
M  V30 22 1 19 23
M  V30 23 1 21 24
M  V30 24 1 5 7
M  V30 25 1 14 15
M  V30 26 2 21 23
M  V30 27 1 6 25
M  V30 28 1 6 26
M  V30 29 1 7 27
M  V30 30 1 8 28
M  V30 31 1 8 29
M  V30 32 1 8 30
M  V30 33 1 11 31
M  V30 34 1 12 32
M  V30 35 1 14 33
M  V30 36 1 15 34
M  V30 37 1 16 35
M  V30 38 1 16 36
M  V30 39 1 23 37
M  V30 40 1 24 38
M  V30 41 1 24 39
M  V30 42 1 24 40
M  V30 END BOND
M  V30 END CTAB
M  END
>  <Structure No>
420

>  <LogS>
-3.900334993

>  <MMFF94 Energy>
-107.91

$$$$
Compound 421
Actelion Java MolfileCreator 2.0

  0  0  0  0  0  0              0 V3000
M  V30 BEGIN CTAB
M  V30 COUNTS 6 5 0 0 0
M  V30 BEGIN ATOM
M  V30 1 O -1.2683 0.0 1.2683 0
M  V30 2 C -0.7636 0.0335 0.1156 0
M  V30 3 O -1.5927 0.1384 -0.9943 0 CHG=-1
M  V30 4 C 0.6897 -0.0378 -0.0539 0
M  V30 5 O 1.1943 -0.0043 -1.2066 0
M  V30 6 O 1.5187 -0.1426 1.0561 0 CHG=-1
M  V30 END ATOM
M  V30 BEGIN BOND
M  V30 1 2 1 2
M  V30 2 1 2 3
M  V30 3 1 2 4
M  V30 4 2 4 5
M  V30 5 1 4 6
M  V30 END BOND
M  V30 END CTAB
M  END
>  <Structure No>
421

>  <LogS>
-3.556228502

>  <MMFF94 Energy>
278.93

$$$$
Compound 422
Actelion Java MolfileCreator 2.0

  0  0  0  0  0  0              0 V3000
M  V30 BEGIN CTAB
M  V30 COUNTS 31 31 0 0 0
M  V30 BEGIN ATOM
M  V30 1 O -1.1788 2.044 0.7857 0
M  V30 2 C -1.6511 1.0026 0.2511 0
M  V30 3 O -0.806 -0.0672 -0.063 0
M  V30 4 C -3.0977 0.9096 -0.0446 0
M  V30 5 C 0.5941 -0.044 0.194 0
M  V30 6 C -3.6273 -0.2496 -0.6406 0
M  V30 7 C -3.965 1.975 0.2638 0
M  V30 8 C 1.2153 -1.3619 -0.2644 0
M  V30 9 C -4.9945 -0.3395 -0.9212 0
M  V30 10 C -5.3313 1.8796 -0.019 0
M  V30 11 C 2.6881 -1.4044 0.0349 0
M  V30 12 C -5.8456 0.7237 -0.6107 0
M  V30 13 C 3.5655 -0.6501 -0.6447 0
M  V30 14 C 5.041 -0.7101 -0.3613 0
M  V30 15 C 5.3737 -0.0712 0.9841 0
M  V30 16 H 0.768 0.0915 1.2843 0
M  V30 17 H 1.0554 0.8044 -0.3572 0
M  V30 18 H -2.9876 -1.0866 -0.8903 0
M  V30 19 H -3.5889 2.8809 0.7229 0
M  V30 20 H 1.0482 -1.5017 -1.3547 0
M  V30 21 H 0.7169 -2.1992 0.2701 0
M  V30 22 H -5.3944 -1.2346 -1.3798 0
M  V30 23 H -5.9918 2.703 0.2211 0
M  V30 24 H 3.0422 -2.087 0.8028 0
M  V30 25 H -6.9034 0.6519 -0.8287 0
M  V30 26 H 3.2159 0.0023 -1.4404 0
M  V30 27 H 5.3861 -1.7666 -0.3738 0
M  V30 28 H 5.5838 -0.1615 -1.1606 0
M  V30 29 H 5.0322 0.9859 1.0032 0
M  V30 30 H 6.4724 -0.0928 1.1434 0
M  V30 31 H 4.8864 -0.6289 1.812 0
M  V30 END ATOM
M  V30 BEGIN BOND
M  V30 1 2 1 2
M  V30 2 1 2 3
M  V30 3 1 2 4
M  V30 4 1 3 5
M  V30 5 2 4 6
M  V30 6 1 4 7
M  V30 7 1 5 8
M  V30 8 1 6 9
M  V30 9 2 7 10
M  V30 10 1 8 11
M  V30 11 2 9 12
M  V30 12 2 11 13
M  V30 13 1 13 14
M  V30 14 1 14 15
M  V30 15 1 10 12
M  V30 16 1 5 16
M  V30 17 1 5 17
M  V30 18 1 6 18
M  V30 19 1 7 19
M  V30 20 1 8 20
M  V30 21 1 8 21
M  V30 22 1 9 22
M  V30 23 1 10 23
M  V30 24 1 11 24
M  V30 25 1 12 25
M  V30 26 1 13 26
M  V30 27 1 14 27
M  V30 28 1 14 28
M  V30 29 1 15 29
M  V30 30 1 15 30
M  V30 31 1 15 31
M  V30 END BOND
M  V30 END CTAB
M  END
>  <Structure No>
422

>  <LogS>
-3.704897417

>  <MMFF94 Energy>
40.657

$$$$
Compound 423
Actelion Java MolfileCreator 2.0

  0  0  0  0  0  0              0 V3000
M  V30 BEGIN CTAB
M  V30 COUNTS 26 26 0 0 0
M  V30 BEGIN ATOM
M  V30 1 O -3.0961 -1.2693 -1.428 0
M  V30 2 C -2.6968 -0.3972 -0.6076 0
M  V30 3 O -3.6058 0.5069 -0.0482 0
M  V30 4 C -1.2557 -0.2973 -0.2864 0
M  V30 5 C -4.9995 0.4675 -0.3294 0
M  V30 6 C -0.789 0.1126 0.9867 0
M  V30 7 C -0.321 -0.5783 -1.297 0
M  V30 8 N -1.6808 0.3031 2.0938 0
M  V30 9 C 0.5889 0.2822 1.1971 0
M  V30 10 C 1.0467 -0.4217 -1.0702 0
M  V30 11 C 1.5159 0.0191 0.1749 0
M  V30 12 C 2.9675 0.1924 0.4068 0
M  V30 13 O 3.3874 0.5881 1.5295 0
M  V30 14 O 3.8753 -0.0824 -0.6217 0
M  V30 15 C 5.2815 0.0637 -0.4643 0
M  V30 16 H -5.5074 1.278 0.2324 0
M  V30 17 H -5.1728 0.6192 -1.4158 0
M  V30 18 H -5.4233 -0.5091 -0.0137 0
M  V30 19 H -0.6518 -0.8952 -2.2787 0
M  V30 20 H -1.3344 0.7216 2.9859 0
M  V30 21 H -2.6467 -0.0897 2.0982 0
M  V30 22 H 0.9363 0.6 2.1728 0
M  V30 23 H 1.736 -0.6373 -1.8769 0
M  V30 24 H 5.7849 -0.2125 -1.4132 0
M  V30 25 H 5.529 1.1182 -0.2192 0
M  V30 26 H 5.645 -0.6052 0.3441 0
M  V30 END ATOM
M  V30 BEGIN BOND
M  V30 1 2 1 2
M  V30 2 1 2 3
M  V30 3 1 2 4
M  V30 4 1 3 5
M  V30 5 2 4 6
M  V30 6 1 4 7
M  V30 7 1 6 8
M  V30 8 1 6 9
M  V30 9 2 7 10
M  V30 10 2 9 11
M  V30 11 1 11 12
M  V30 12 2 12 13
M  V30 13 1 12 14
M  V30 14 1 14 15
M  V30 15 1 10 11
M  V30 16 1 5 16
M  V30 17 1 5 17
M  V30 18 1 5 18
M  V30 19 1 7 19
M  V30 20 1 8 20
M  V30 21 1 8 21
M  V30 22 1 9 22
M  V30 23 1 10 23
M  V30 24 1 15 24
M  V30 25 1 15 25
M  V30 26 1 15 26
M  V30 END BOND
M  V30 END CTAB
M  END
>  <Structure No>
423

>  <LogS>
-3.718503765

>  <MMFF94 Energy>
53.538

$$$$
Compound 424
Actelion Java MolfileCreator 2.0

  0  0  0  0  0  0              0 V3000
M  V30 BEGIN CTAB
M  V30 COUNTS 44 43 0 0 0
M  V30 BEGIN ATOM
M  V30 1 N 5.5686 -1.3898 0.3087 0 CHG=1
M  V30 2 C 4.6686 -0.394 0.8945 0
M  V30 3 C 3.8244 0.3262 -0.1705 0
M  V30 4 C 2.7545 -0.5878 -0.7905 0
M  V30 5 C 1.9154 0.122 -1.8685 0
M  V30 6 C 1.0935 1.3316 -1.3759 0
M  V30 7 C 0.1765 1.062 -0.1682 0
M  V30 8 C -0.9157 0.0196 -0.4655 0
M  V30 9 C -1.7936 -0.3155 0.7701 0 CFG=1
M  V30 10 C -2.5465 0.8942 1.3932 0
M  V30 11 C -2.7039 -1.5561 0.5505 0
M  V30 12 C -3.5538 1.6223 0.477 0
M  V30 13 C -3.3836 -1.6477 -0.8203 0
M  V30 14 C -5.0033 1.2686 0.8116 0
M  V30 15 H 6.2237 -1.7311 1.0486 0
M  V30 16 H 5.0252 -2.2072 -0.0492 0
M  V30 17 H 6.1296 -0.9656 -0.4651 0
M  V30 18 H 4.0038 -0.8797 1.6431 0
M  V30 19 H 5.2755 0.3678 1.4326 0
M  V30 20 H 4.487 0.7304 -0.9664 0
M  V30 21 H 3.3277 1.1858 0.3266 0
M  V30 22 H 2.0947 -1.0012 0.0011 0
M  V30 23 H 3.2523 -1.4503 -1.2809 0
M  V30 24 H 2.5949 0.4694 -2.6771 0
M  V30 25 H 1.2337 -0.6193 -2.3365 0
M  V30 26 H 1.7853 2.1616 -1.1183 0
M  V30 27 H 0.471 1.6976 -2.2213 0
M  V30 28 H 0.7784 0.7534 0.712 0
M  V30 29 H -0.3068 2.0281 0.0875 0
M  V30 30 H -1.5352 0.3752 -1.314 0
M  V30 31 H -0.4267 -0.9241 -0.7859 0
M  V30 32 H -1.079 -0.632 1.5643 0
M  V30 33 H -1.7961 1.6341 1.7435 0
M  V30 34 H -3.0507 0.5599 2.3272 0
M  V30 35 H -3.4815 -1.6008 1.3435 0
M  V30 36 H -2.0844 -2.4722 0.6707 0
M  V30 37 H -3.3614 1.4283 -0.5949 0
M  V30 38 H -3.4362 2.7189 0.6196 0
M  V30 39 H -4.0827 -2.5103 -0.8237 0
M  V30 40 H -3.9631 -0.7365 -1.0558 0
M  V30 41 H -2.6321 -1.8186 -1.6192 0
M  V30 42 H -5.2534 1.615 1.8371 0
M  V30 43 H -5.6844 1.7721 0.0937 0
M  V30 44 H -5.1712 0.1743 0.7533 0
M  V30 END ATOM
M  V30 BEGIN BOND
M  V30 1 1 1 2
M  V30 2 1 2 3
M  V30 3 1 3 4
M  V30 4 1 4 5
M  V30 5 1 5 6
M  V30 6 1 6 7
M  V30 7 1 7 8
M  V30 8 1 8 9
M  V30 9 1 9 10
M  V30 10 1 9 11
M  V30 11 1 10 12
M  V30 12 1 11 13
M  V30 13 1 12 14
M  V30 14 1 1 15
M  V30 15 1 1 16
M  V30 16 1 1 17
M  V30 17 1 2 18
M  V30 18 1 2 19
M  V30 19 1 3 20
M  V30 20 1 3 21
M  V30 21 1 4 22
M  V30 22 1 4 23
M  V30 23 1 5 24
M  V30 24 1 5 25
M  V30 25 1 6 26
M  V30 26 1 6 27
M  V30 27 1 7 28
M  V30 28 1 7 29
M  V30 29 1 8 30
M  V30 30 1 8 31
M  V30 31 1 9 32
M  V30 32 1 10 33
M  V30 33 1 10 34
M  V30 34 1 11 35
M  V30 35 1 11 36
M  V30 36 1 12 37
M  V30 37 1 12 38
M  V30 38 1 13 39
M  V30 39 1 13 40
M  V30 40 1 13 41
M  V30 41 1 14 42
M  V30 42 1 14 43
M  V30 43 1 14 44
M  V30 END BOND
M  V30 BEGIN COLLECTION
M  V30 MDLV30/STEABS ATOMS=(1 9)
M  V30 END COLLECTION
M  V30 END CTAB
M  END
>  <Structure No>
424

>  <LogS>
-3.697625957

>  <MMFF94 Energy>
5.1841

$$$$
Compound 425
Actelion Java MolfileCreator 2.0

  0  0  0  0  0  0              0 V3000
M  V30 BEGIN CTAB
M  V30 COUNTS 36 35 0 0 0
M  V30 BEGIN ATOM
M  V30 1 O -6.351 2.4573 -0.7921 0
M  V30 2 C -5.2302 2.7473 -0.2971 0
M  V30 3 O -5.1639 3.5599 0.8275 0 CHG=-1
M  V30 4 C -3.978 2.1775 -0.8839 0
M  V30 5 C -3.6354 0.8401 -0.2211 0
M  V30 6 C -2.3511 0.2462 -0.8116 0
M  V30 7 C -1.9978 -1.0852 -0.1326 0
M  V30 8 C -0.826 -1.8154 -0.8138 0
M  V30 9 C 0.506 -1.0433 -0.8284 0
M  V30 10 C 1.047 -0.7558 0.5826 0
M  V30 11 C 2.4286 -0.0818 0.5582 0
M  V30 12 C 3.5648 -1.0719 0.2476 0
M  V30 13 C 4.9429 -0.397 0.2715 0
M  V30 14 C 5.3428 0.0063 1.6577 0
M  V30 15 O 5.7585 -0.8577 2.4737 0
M  V30 16 O 5.2273 1.3315 2.0582 0 CHG=-1
M  V30 17 H -4.1154 2.0336 -1.978 0
M  V30 18 H -3.146 2.8986 -0.7305 0
M  V30 19 H -3.5 0.9952 0.8724 0
M  V30 20 H -4.4762 0.1279 -0.376 0
M  V30 21 H -1.5224 0.9709 -0.6621 0
M  V30 22 H -2.4901 0.0809 -1.9025 0
M  V30 23 H -1.7761 -0.9177 0.9424 0
M  V30 24 H -2.8825 -1.7574 -0.1789 0
M  V30 25 H -1.1111 -2.0464 -1.8634 0
M  V30 26 H -0.6705 -2.7891 -0.3001 0
M  V30 27 H 1.2369 -1.6662 -1.3839 0
M  V30 28 H 0.3947 -0.0945 -1.3945 0
M  V30 29 H 1.0937 -1.6955 1.1753 0
M  V30 30 H 0.3498 -0.0631 1.0997 0
M  V30 31 H 2.6053 0.3639 1.561 0
M  V30 32 H 2.432 0.7476 -0.1824 0
M  V30 33 H 3.5482 -1.9118 0.9766 0
M  V30 34 H 3.4174 -1.5002 -0.7653 0
M  V30 35 H 4.9423 0.4929 -0.3943 0
M  V30 36 H 5.6995 -1.1084 -0.1239 0
M  V30 END ATOM
M  V30 BEGIN BOND
M  V30 1 2 1 2
M  V30 2 1 2 3
M  V30 3 1 2 4
M  V30 4 1 4 5
M  V30 5 1 5 6
M  V30 6 1 6 7
M  V30 7 1 7 8
M  V30 8 1 8 9
M  V30 9 1 9 10
M  V30 10 1 10 11
M  V30 11 1 11 12
M  V30 12 1 12 13
M  V30 13 1 13 14
M  V30 14 2 14 15
M  V30 15 1 14 16
M  V30 16 1 4 17
M  V30 17 1 4 18
M  V30 18 1 5 19
M  V30 19 1 5 20
M  V30 20 1 6 21
M  V30 21 1 6 22
M  V30 22 1 7 23
M  V30 23 1 7 24
M  V30 24 1 8 25
M  V30 25 1 8 26
M  V30 26 1 9 27
M  V30 27 1 9 28
M  V30 28 1 10 29
M  V30 29 1 10 30
M  V30 30 1 11 31
M  V30 31 1 11 32
M  V30 32 1 12 33
M  V30 33 1 12 34
M  V30 34 1 13 35
M  V30 35 1 13 36
M  V30 END BOND
M  V30 END CTAB
M  END
>  <Structure No>
425

>  <LogS>
-3.76024149

>  <MMFF94 Energy>
30.001

$$$$
Compound 426
Actelion Java MolfileCreator 2.0

  0  0  0  0  0  0              0 V3000
M  V30 BEGIN CTAB
M  V30 COUNTS 40 43 0 0 0
M  V30 BEGIN ATOM
M  V30 1 O 0.162 1.9464 -0.3242 0
M  V30 2 C 0.5937 0.6833 0.1375 0 CFG=1
M  V30 3 C 0.2075 1.7511 1.0767 0 CFG=2
M  V30 4 C -0.3527 -0.4932 -0.1388 0 CFG=1
M  V30 5 C 2.023 0.2942 -0.2757 0
M  V30 6 C -1.1735 1.5377 1.7096 0
M  V30 7 C -1.89 -0.0838 -0.2516 0
M  V30 8 C 0.3301 -1.0702 -1.3759 0
M  V30 9 C 0.0194 -1.5819 0.9152 0
M  V30 10 C 1.7247 -1.1731 -0.75 0 CFG=2
M  V30 11 C 2.5731 1.144 -1.4459 0
M  V30 12 C 3.0131 0.3804 0.908 0
M  V30 13 C -2.2581 1.1275 0.6932 0
M  V30 14 C -2.235 0.3307 -1.7073 0
M  V30 15 C -2.8182 -1.2742 0.0916 0
M  V30 16 C 1.3985 -2.0903 0.4466 0
M  V30 17 H 1.0113 2.327 1.5798 0
M  V30 18 H -1.0979 0.7684 2.5059 0
M  V30 19 H -1.4832 2.4853 2.1997 0
M  V30 20 H 0.31 -0.3985 -2.2598 0
M  V30 21 H -0.0871 -2.0598 -1.6768 0
M  V30 22 H -0.6767 -2.4447 0.9168 0
M  V30 23 H 0.0788 -1.1694 1.9449 0
M  V30 24 H 2.4942 -1.6003 -1.4289 0
M  V30 25 H 2.7321 2.1948 -1.1214 0
M  V30 26 H 3.5473 0.7343 -1.7883 0
M  V30 27 H 1.883 1.1644 -2.3129 0
M  V30 28 H 3.9194 -0.2252 0.6946 0
M  V30 29 H 3.3295 1.4317 1.0786 0
M  V30 30 H 2.5538 0.032 1.8567 0
M  V30 31 H -3.1939 0.9257 1.2601 0
M  V30 32 H -2.4854 2.0375 0.0933 0
M  V30 33 H -3.2873 0.6834 -1.7776 0
M  V30 34 H -2.128 -0.5263 -2.4063 0
M  V30 35 H -1.5784 1.1552 -2.0556 0
M  V30 36 H -3.8809 -1.0194 -0.1139 0
M  V30 37 H -2.5581 -2.1661 -0.5183 0
M  V30 38 H -2.7504 -1.5324 1.1701 0
M  V30 39 H 1.3174 -3.1428 0.093 0
M  V30 40 H 2.159 -2.0755 1.2522 0
M  V30 END ATOM
M  V30 BEGIN BOND
M  V30 1 1 1 2
M  V30 2 1 1 3
M  V30 3 1 2 4
M  V30 4 1 2 5
M  V30 5 1 3 6
M  V30 6 1 4 7
M  V30 7 1 4 8
M  V30 8 1 4 9
M  V30 9 1 5 10
M  V30 10 1 5 11
M  V30 11 1 5 12
M  V30 12 1 6 13
M  V30 13 1 7 14
M  V30 14 1 7 15
M  V30 15 1 9 16
M  V30 16 1 2 3
M  V30 17 1 7 13
M  V30 18 1 8 10
M  V30 19 1 10 16
M  V30 20 1 3 17
M  V30 21 1 6 18
M  V30 22 1 6 19
M  V30 23 1 8 20
M  V30 24 1 8 21
M  V30 25 1 9 22
M  V30 26 1 9 23
M  V30 27 1 10 24
M  V30 28 1 11 25
M  V30 29 1 11 26
M  V30 30 1 11 27
M  V30 31 1 12 28
M  V30 32 1 12 29
M  V30 33 1 12 30
M  V30 34 1 13 31
M  V30 35 1 13 32
M  V30 36 1 14 33
M  V30 37 1 14 34
M  V30 38 1 14 35
M  V30 39 1 15 36
M  V30 40 1 15 37
M  V30 41 1 15 38
M  V30 42 1 16 39
M  V30 43 1 16 40
M  V30 END BOND
M  V30 BEGIN COLLECTION
M  V30 MDLV30/STEABS ATOMS=(4 2 3 4 10)
M  V30 END COLLECTION
M  V30 END CTAB
M  END
>  <Structure No>
426

>  <LogS>
-4.6529288

>  <MMFF94 Energy>
75.71

$$$$
Compound 427
Actelion Java MolfileCreator 2.0

  0  0  0  0  0  0              0 V3000
M  V30 BEGIN CTAB
M  V30 COUNTS 49 48 0 0 0
M  V30 BEGIN ATOM
M  V30 1 S 4.5854 -1.1053 1.5793 0
M  V30 2 C 4.996 -2.0158 0.0388 0
M  V30 3 C 2.8716 -0.6729 1.113 0
M  V30 4 C 5.8084 -1.1549 -0.9467 0 CFG=1
M  V30 5 C 2.3239 0.3819 2.0826 0
M  V30 6 O 5.1239 0.0324 -1.2435 0
M  V30 7 C 7.1984 -0.8099 -0.4021 0
M  V30 8 C 0.8573 0.7409 1.799 0
M  V30 9 C 0.6856 1.5291 0.4888 0
M  V30 10 C -0.715 2.144 0.3501 0
M  V30 11 C -1.8109 1.0764 0.1756 0
M  V30 12 C -3.1593 1.7249 -0.1642 0
M  V30 13 C -4.3872 0.819 0.0967 0
M  V30 14 C -4.5803 -0.4481 -0.8069 0
M  V30 15 C -6.0687 -0.8649 -0.732 0
M  V30 16 C -4.2328 -0.1651 -2.2856 0
M  V30 17 C -3.7387 -1.639 -0.2924 0
M  V30 18 H 5.5911 -2.9113 0.3134 0
M  V30 19 H 4.0729 -2.3866 -0.4608 0
M  V30 20 H 2.2428 -1.5907 1.1526 0
M  V30 21 H 2.8636 -0.2702 0.0774 0
M  V30 22 H 5.9599 -1.7458 -1.8809 0
M  V30 23 H 2.3897 -0.0148 3.1205 0
M  V30 24 H 2.9519 1.3001 2.032 0
M  V30 25 H 4.4348 -0.1986 -1.9222 0
M  V30 26 H 7.1218 -0.1936 0.5234 0
M  V30 27 H 7.7733 -0.2288 -1.1648 0
M  V30 28 H 7.76 -1.7435 -0.1779 0
M  V30 29 H 0.2493 -0.1887 1.7706 0
M  V30 30 H 0.4873 1.3613 2.6459 0
M  V30 31 H 1.4233 2.3577 0.4625 0
M  V30 32 H 0.8828 0.8719 -0.383 0
M  V30 33 H -0.94 2.7759 1.2447 0
M  V30 34 H -0.7124 2.8131 -0.5443 0
M  V30 35 H -1.5106 0.402 -0.6551 0
M  V30 36 H -1.9094 0.4876 1.1151 0
M  V30 37 H -3.1511 2.0882 -1.2145 0
M  V30 38 H -3.288 2.6272 0.4779 0
M  V30 39 H -4.3951 0.5221 1.1694 0
M  V30 40 H -5.2738 1.4807 -0.0324 0
M  V30 41 H -6.3684 -1.0711 0.3235 0
M  V30 42 H -6.7241 -0.0571 -1.1296 0
M  V30 43 H -6.2546 -1.7869 -1.3335 0
M  V30 44 H -4.7894 0.7251 -2.6541 0
M  V30 45 H -4.5025 -1.0337 -2.9258 0
M  V30 46 H -3.1456 0.0168 -2.4161 0
M  V30 47 H -2.6533 -1.4607 -0.3969 0
M  V30 48 H -3.9636 -1.8387 0.778 0
M  V30 49 H -3.97 -2.5608 -0.8706 0
M  V30 END ATOM
M  V30 BEGIN BOND
M  V30 1 1 1 2
M  V30 2 1 1 3
M  V30 3 1 2 4
M  V30 4 1 3 5
M  V30 5 1 4 6
M  V30 6 1 4 7
M  V30 7 1 5 8
M  V30 8 1 8 9
M  V30 9 1 9 10
M  V30 10 1 10 11
M  V30 11 1 11 12
M  V30 12 1 12 13
M  V30 13 1 13 14
M  V30 14 1 14 15
M  V30 15 1 14 16
M  V30 16 1 14 17
M  V30 17 1 2 18
M  V30 18 1 2 19
M  V30 19 1 3 20
M  V30 20 1 3 21
M  V30 21 1 4 22
M  V30 22 1 5 23
M  V30 23 1 5 24
M  V30 24 1 6 25
M  V30 25 1 7 26
M  V30 26 1 7 27
M  V30 27 1 7 28
M  V30 28 1 8 29
M  V30 29 1 8 30
M  V30 30 1 9 31
M  V30 31 1 9 32
M  V30 32 1 10 33
M  V30 33 1 10 34
M  V30 34 1 11 35
M  V30 35 1 11 36
M  V30 36 1 12 37
M  V30 37 1 12 38
M  V30 38 1 13 39
M  V30 39 1 13 40
M  V30 40 1 15 41
M  V30 41 1 15 42
M  V30 42 1 15 43
M  V30 43 1 16 44
M  V30 44 1 16 45
M  V30 45 1 16 46
M  V30 46 1 17 47
M  V30 47 1 17 48
M  V30 48 1 17 49
M  V30 END BOND
M  V30 BEGIN COLLECTION
M  V30 MDLV30/STEABS ATOMS=(1 4)
M  V30 END COLLECTION
M  V30 END CTAB
M  END
>  <Structure No>
427

>  <LogS>
-4.730940692

>  <MMFF94 Energy>
30.016

$$$$
Compound 428
Actelion Java MolfileCreator 2.0

  0  0  0  0  0  0              0 V3000
M  V30 BEGIN CTAB
M  V30 COUNTS 37 36 0 0 0
M  V30 BEGIN ATOM
M  V30 1 O -3.5254 2.5059 -1.0957 0
M  V30 2 C -4.5138 2.1354 -0.409 0
M  V30 3 O -5.0859 3.0129 0.5033 0 CHG=-1
M  V30 4 C -5.0489 0.7432 -0.5469 0
M  V30 5 C -4.6075 -0.16 0.6156 0
M  V30 6 C -3.084 -0.3577 0.718 0
M  V30 7 C -2.5016 -1.1181 -0.4861 0
M  V30 8 C -1.0453 -1.5541 -0.2605 0
M  V30 9 C -0.0701 -0.3675 -0.2418 0
M  V30 10 C 1.3818 -0.8514 -0.1485 0
M  V30 11 C 2.3562 0.332 -0.1182 0
M  V30 12 C 3.8081 -0.1519 -0.0261 0
M  V30 13 C 4.7816 1.0318 0.0044 0
M  V30 14 C 6.2278 0.5541 0.0961 0
M  V30 15 H -6.1588 0.7947 -0.5531 0
M  V30 16 H -4.7414 0.3065 -1.5204 0
M  V30 17 H -4.9736 0.2781 1.5702 0
M  V30 18 H -5.0984 -1.1515 0.5058 0
M  V30 19 H -2.5873 0.6291 0.8263 0
M  V30 20 H -2.8797 -0.9367 1.6451 0
M  V30 21 H -2.5564 -0.4887 -1.4 0
M  V30 22 H -3.1091 -2.0319 -0.6658 0
M  V30 23 H -0.7614 -2.2398 -1.0889 0
M  V30 24 H -0.9656 -2.1252 0.6904 0
M  V30 25 H -0.2888 0.2815 0.633 0
M  V30 26 H -0.1981 0.2318 -1.1701 0
M  V30 27 H 1.5087 -1.4566 0.7762 0
M  V30 28 H 1.6126 -1.4946 -1.0264 0
M  V30 29 H 2.2282 0.9376 -1.0426 0
M  V30 30 H 2.1266 0.9751 0.7602 0
M  V30 31 H 4.0381 -0.7946 -0.9045 0
M  V30 32 H 3.9361 -0.7574 0.8984 0
M  V30 33 H 4.6616 1.64 -0.9186 0
M  V30 34 H 4.5599 1.6771 0.8826 0
M  V30 35 H 6.4833 -0.0733 -0.7842 0
M  V30 36 H 6.3811 -0.0361 1.0247 0
M  V30 37 H 6.9084 1.4313 0.1164 0
M  V30 END ATOM
M  V30 BEGIN BOND
M  V30 1 2 1 2
M  V30 2 1 2 3
M  V30 3 1 2 4
M  V30 4 1 4 5
M  V30 5 1 5 6
M  V30 6 1 6 7
M  V30 7 1 7 8
M  V30 8 1 8 9
M  V30 9 1 9 10
M  V30 10 1 10 11
M  V30 11 1 11 12
M  V30 12 1 12 13
M  V30 13 1 13 14
M  V30 14 1 4 15
M  V30 15 1 4 16
M  V30 16 1 5 17
M  V30 17 1 5 18
M  V30 18 1 6 19
M  V30 19 1 6 20
M  V30 20 1 7 21
M  V30 21 1 7 22
M  V30 22 1 8 23
M  V30 23 1 8 24
M  V30 24 1 9 25
M  V30 25 1 9 26
M  V30 26 1 10 27
M  V30 27 1 10 28
M  V30 28 1 11 29
M  V30 29 1 11 30
M  V30 30 1 12 31
M  V30 31 1 12 32
M  V30 32 1 13 33
M  V30 33 1 13 34
M  V30 34 1 14 35
M  V30 35 1 14 36
M  V30 36 1 14 37
M  V30 END BOND
M  V30 END CTAB
M  END
>  <Structure No>
428

>  <LogS>
-4.619583571

>  <MMFF94 Energy>
2.4656

$$$$
Compound 429
Actelion Java MolfileCreator 2.0

  0  0  0  0  0  0              0 V3000
M  V30 BEGIN CTAB
M  V30 COUNTS 52 55 0 0 0
M  V30 BEGIN ATOM
M  V30 1 Cl -3.6392 3.3963 2.2632 0
M  V30 2 C -3.2227 1.9532 1.358 0
M  V30 3 N -3.7353 0.7369 1.6205 0
M  V30 4 C -2.335 1.8705 0.3066 0
M  V30 5 C -3.1329 -0.0776 0.7265 0
M  V30 6 N -2.2719 0.5811 -0.0898 0
M  V30 7 C -1.4959 2.9972 -0.2299 0
M  V30 8 C -3.4559 -1.5446 0.6418 0
M  V30 9 C -1.4141 0.0203 -1.1421 0
M  V30 10 O -0.2716 3.0527 0.4489 0
M  V30 11 C -4.4618 -1.8442 -0.4783 0
M  V30 12 C 0.0302 0.0363 -0.715 0
M  V30 13 C -5.8548 -1.2725 -0.1766 0
M  V30 14 C 0.4327 -0.6494 0.442 0
M  V30 15 C 0.9879 0.7356 -1.4672 0
M  V30 16 C -6.851 -1.6455 -1.2705 0
M  V30 17 C 1.7698 -0.6272 0.8474 0
M  V30 18 C 2.3249 0.7581 -1.0614 0
M  V30 19 C 2.7264 0.0683 0.093 0
M  V30 20 C 4.1373 0.1111 0.5363 0
M  V30 21 C 5.2071 -0.3636 -0.2709 0
M  V30 22 C 4.4202 0.6996 1.7814 0
M  V30 23 C 4.9879 -1.0793 -1.5526 0
M  V30 24 C 6.5289 -0.1898 0.1808 0
M  V30 25 C 5.7374 0.8459 2.2163 0
M  V30 26 N 5.9212 -1.2122 -2.514 0
M  V30 27 N 3.8598 -1.7325 -1.89 0 CHG=-1
M  V30 28 C 6.7897 0.4097 1.4141 0
M  V30 29 N 5.3423 -1.9441 -3.4512 0
M  V30 30 N 4.1114 -2.2546 -3.0787 0
M  V30 31 H -1.3019 2.8445 -1.3108 0
M  V30 32 H -2.0378 3.9646 -0.1321 0
M  V30 33 H -2.5254 -2.1236 0.468 0
M  V30 34 H -3.8669 -1.8905 1.6152 0
M  V30 35 H -1.7011 -1.0237 -1.379 0
M  V30 36 H -1.5621 0.599 -2.0791 0
M  V30 37 H -0.4596 3.4389 1.3441 0
M  V30 38 H -4.0895 -1.4333 -1.442 0
M  V30 39 H -4.5394 -2.948 -0.5879 0
M  V30 40 H -6.2222 -1.6697 0.7946 0
M  V30 41 H -5.8032 -0.1645 -0.108 0
M  V30 42 H -0.2894 -1.1947 1.0357 0
M  V30 43 H 0.6998 1.2727 -2.3622 0
M  V30 44 H -6.9504 -2.7496 -1.3423 0
M  V30 45 H -7.8458 -1.2142 -1.0306 0
M  V30 46 H -6.5165 -1.2423 -2.2502 0
M  V30 47 H 2.0615 -1.1577 1.7457 0
M  V30 48 H 3.0481 1.314 -1.6457 0
M  V30 49 H 3.6167 1.0686 2.408 0
M  V30 50 H 7.3653 -0.54 -0.4114 0
M  V30 51 H 5.9429 1.3078 3.1735 0
M  V30 52 H 7.8111 0.5283 1.7522 0
M  V30 END ATOM
M  V30 BEGIN BOND
M  V30 1 1 1 2
M  V30 2 1 2 3
M  V30 3 2 2 4
M  V30 4 2 3 5
M  V30 5 1 4 6
M  V30 6 1 4 7
M  V30 7 1 5 8
M  V30 8 1 6 9
M  V30 9 1 7 10
M  V30 10 1 8 11
M  V30 11 1 9 12
M  V30 12 1 11 13
M  V30 13 2 12 14
M  V30 14 1 12 15
M  V30 15 1 13 16
M  V30 16 1 14 17
M  V30 17 2 15 18
M  V30 18 2 17 19
M  V30 19 1 19 20
M  V30 20 2 20 21
M  V30 21 1 20 22
M  V30 22 1 21 23
M  V30 23 1 21 24
M  V30 24 2 22 25
M  V30 25 2 23 26
M  V30 26 1 23 27
M  V30 27 2 24 28
M  V30 28 1 26 29
M  V30 29 1 27 30
M  V30 30 1 5 6
M  V30 31 1 18 19
M  V30 32 1 25 28
M  V30 33 2 29 30
M  V30 34 1 7 31
M  V30 35 1 7 32
M  V30 36 1 8 33
M  V30 37 1 8 34
M  V30 38 1 9 35
M  V30 39 1 9 36
M  V30 40 1 10 37
M  V30 41 1 11 38
M  V30 42 1 11 39
M  V30 43 1 13 40
M  V30 44 1 13 41
M  V30 45 1 14 42
M  V30 46 1 15 43
M  V30 47 1 16 44
M  V30 48 1 16 45
M  V30 49 1 16 46
M  V30 50 1 17 47
M  V30 51 1 18 48
M  V30 52 1 22 49
M  V30 53 1 24 50
M  V30 54 1 25 51
M  V30 55 1 28 52
M  V30 END BOND
M  V30 END CTAB
M  END
>  <Structure No>
429

>  <LogS>
-4.945016986

>  <MMFF94 Energy>
55.402

$$$$
Compound 430
Actelion Java MolfileCreator 2.0

  0  0  0  0  0  0              0 V3000
M  V30 BEGIN CTAB
M  V30 COUNTS 33 32 0 0 0
M  V30 BEGIN ATOM
M  V30 1 S 4.3787 -2.8643 -0.7155 0
M  V30 2 C 4.3012 -1.6181 0.6047 0
M  V30 3 C 2.8891 -1.4436 1.0538 0
M  V30 4 O 2.4508 -2.1194 2.0246 0
M  V30 5 O 2.0542 -0.5619 0.3627 0
M  V30 6 C 0.6925 -0.348 0.7218 0
M  V30 7 C 0.0541 0.7048 -0.2125 0 CFG=1
M  V30 8 C -1.4934 0.6256 -0.1604 0
M  V30 9 C 0.5059 2.1413 0.1561 0
M  V30 10 C -2.0584 -0.5807 -0.9361 0
M  V30 11 C 2.0043 2.3817 -0.0341 0
M  V30 12 C -3.5873 -0.5241 -1.0809 0
M  V30 13 C -4.3142 -0.7372 0.2465 0
M  V30 14 H 3.6545 -2.0644 -1.6208 0
M  V30 15 H 4.9339 -1.949 1.4552 0
M  V30 16 H 4.6965 -0.6525 0.2247 0
M  V30 17 H 0.1618 -1.3183 0.6436 0
M  V30 18 H 0.6289 -0.0097 1.7795 0
M  V30 19 H 0.3784 0.5008 -1.2577 0
M  V30 20 H -1.924 1.5468 -0.6116 0
M  V30 21 H -1.8245 0.5876 0.8999 0
M  V30 22 H -0.0268 2.8681 -0.4956 0
M  V30 23 H 0.2294 2.3719 1.2084 0
M  V30 24 H -1.6214 -0.5903 -1.9583 0
M  V30 25 H -1.7785 -1.5341 -0.4421 0
M  V30 26 H 2.216 3.4692 0.0414 0
M  V30 27 H 2.5874 1.8692 0.7587 0
M  V30 28 H 2.3347 2.027 -1.0333 0
M  V30 29 H -3.9032 -1.3254 -1.7835 0
M  V30 30 H -3.8957 0.4485 -1.5224 0
M  V30 31 H -3.9798 -1.6817 0.7259 0
M  V30 32 H -5.4072 -0.8026 0.0621 0
M  V30 33 H -4.1309 0.113 0.9356 0
M  V30 END ATOM
M  V30 BEGIN BOND
M  V30 1 1 1 2
M  V30 2 1 2 3
M  V30 3 2 3 4
M  V30 4 1 3 5
M  V30 5 1 5 6
M  V30 6 1 6 7
M  V30 7 1 7 8
M  V30 8 1 7 9
M  V30 9 1 8 10
M  V30 10 1 9 11
M  V30 11 1 10 12
M  V30 12 1 12 13
M  V30 13 1 1 14
M  V30 14 1 2 15
M  V30 15 1 2 16
M  V30 16 1 6 17
M  V30 17 1 6 18
M  V30 18 1 7 19
M  V30 19 1 8 20
M  V30 20 1 8 21
M  V30 21 1 9 22
M  V30 22 1 9 23
M  V30 23 1 10 24
M  V30 24 1 10 25
M  V30 25 1 11 26
M  V30 26 1 11 27
M  V30 27 1 11 28
M  V30 28 1 12 29
M  V30 29 1 12 30
M  V30 30 1 13 31
M  V30 31 1 13 32
M  V30 32 1 13 33
M  V30 END BOND
M  V30 BEGIN COLLECTION
M  V30 MDLV30/STEABS ATOMS=(1 7)
M  V30 END COLLECTION
M  V30 END CTAB
M  END
>  <Structure No>
430

>  <LogS>
-4.635481621

>  <MMFF94 Energy>
21.649

$$$$
Compound 431
Actelion Java MolfileCreator 2.0

  0  0  0  0  0  0              0 V3000
M  V30 BEGIN CTAB
M  V30 COUNTS 27 27 0 0 0
M  V30 BEGIN ATOM
M  V30 1 C 0.7822 -0.0782 -0.0782 0
M  V30 2 C 1.4485 0.8697 0.7344 0
M  V30 3 C 1.501 -1.2412 -0.4508 0
M  V30 4 C -0.7035 0.1365 -0.449 0
M  V30 5 C 2.7811 0.6871 1.1128 0
M  V30 6 C 2.8343 -1.4154 -0.068 0
M  V30 7 C -1.5476 -0.075 0.8445 0
M  V30 8 C -0.8919 1.5734 -1.001 0
M  V30 9 C -1.1717 -0.8462 -1.5545 0
M  V30 10 C 3.475 -0.451 0.7077 0
M  V30 11 C -3.062 0.097 0.6769 0
M  V30 12 H 0.9389 1.7531 1.0926 0
M  V30 13 H 1.051 -2.0292 -1.0354 0
M  V30 14 H 3.274 1.4279 1.7293 0
M  V30 15 H 3.3705 -2.306 -0.3697 0
M  V30 16 H -1.3595 -1.0976 1.2403 0
M  V30 17 H -1.215 0.639 1.6295 0
M  V30 18 H -0.8089 2.3365 -0.1997 0
M  V30 19 H -1.8913 1.7029 -1.4682 0
M  V30 20 H -0.129 1.7909 -1.7795 0
M  V30 21 H -2.1838 -0.5852 -1.9299 0
M  V30 22 H -0.4843 -0.8086 -2.4272 0
M  V30 23 H -1.2215 -1.8872 -1.169 0
M  V30 24 H 4.5064 -0.5913 1.004 0
M  V30 25 H -3.3111 1.1115 0.3046 0
M  V30 26 H -3.4782 -0.6693 -0.0082 0
M  V30 27 H -3.5534 -0.0324 1.6643 0
M  V30 END ATOM
M  V30 BEGIN BOND
M  V30 1 2 1 2
M  V30 2 1 1 3
M  V30 3 1 1 4
M  V30 4 1 2 5
M  V30 5 2 3 6
M  V30 6 1 4 7
M  V30 7 1 4 8
M  V30 8 1 4 9
M  V30 9 2 5 10
M  V30 10 1 7 11
M  V30 11 1 6 10
M  V30 12 1 2 12
M  V30 13 1 3 13
M  V30 14 1 5 14
M  V30 15 1 6 15
M  V30 16 1 7 16
M  V30 17 1 7 17
M  V30 18 1 8 18
M  V30 19 1 8 19
M  V30 20 1 8 20
M  V30 21 1 9 21
M  V30 22 1 9 22
M  V30 23 1 9 23
M  V30 24 1 10 24
M  V30 25 1 11 25
M  V30 26 1 11 26
M  V30 27 1 11 27
M  V30 END BOND
M  V30 END CTAB
M  END
>  <Structure No>
431

>  <LogS>
-4.50074592

>  <MMFF94 Energy>
35.315

$$$$
Compound 432
Actelion Java MolfileCreator 2.0

  0  0  0  0  0  0              0 V3000
M  V30 BEGIN CTAB
M  V30 COUNTS 39 39 0 0 0
M  V30 BEGIN ATOM
M  V30 1 O 4.1889 -1.4211 1.1841 0
M  V30 2 C 4.122 -0.5409 0.3409 0
M  V30 3 C 3.363 -0.7641 -0.9346 0
M  V30 4 C 1.858 -0.9802 -0.6906 0
M  V30 5 C 1.1276 0.2763 -0.147 0 CFG=2
M  V30 6 C -0.2691 -0.0334 0.52 0 CFG=1
M  V30 7 C 1.1082 1.419 -1.1882 0
M  V30 8 C -0.8113 1.1118 1.4112 0
M  V30 9 C -1.4203 -0.7214 -0.3693 0
M  V30 10 C -1.9883 0.9273 2.039 0
M  V30 11 C -0.0831 2.4058 1.7208 0
M  V30 12 C -2.8494 -0.4606 0.2289 0
M  V30 13 C -1.4561 -0.215 -1.8278 0
M  V30 14 C -1.2234 -2.2611 -0.4056 0
M  V30 15 C -2.82 -0.2779 1.7424 0
M  V30 16 H 4.6245 0.4052 0.5127 0
M  V30 17 H 3.5227 0.0974 -1.6164 0
M  V30 18 H 3.7794 -1.6631 -1.438 0
M  V30 19 H 1.414 -1.291 -1.6566 0
M  V30 20 H 1.7402 -1.8237 0.0242 0
M  V30 21 H 1.77 0.6191 0.691 0
M  V30 22 H -0.009 -0.7962 1.2889 0
M  V30 23 H 1.0236 1.0371 -2.2253 0
M  V30 24 H 2.0568 1.9941 -1.1296 0
M  V30 25 H 0.2773 2.1302 -1.0072 0
M  V30 26 H -2.397 1.6964 2.6902 0
M  V30 27 H -0.6973 3.2633 1.3729 0
M  V30 28 H 0.0594 2.4972 2.8188 0
M  V30 29 H 0.9128 2.5057 1.2596 0
M  V30 30 H -3.5589 -1.2795 -0.0229 0
M  V30 31 H -3.2935 0.464 -0.2079 0
M  V30 32 H -0.5733 -0.5475 -2.4043 0
M  V30 33 H -2.343 -0.6264 -2.3578 0
M  V30 34 H -1.5364 0.8912 -1.8598 0
M  V30 35 H -1.2116 -2.6845 0.6212 0
M  V30 36 H -0.2889 -2.5552 -0.9142 0
M  V30 37 H -2.0481 -2.7533 -0.9656 0
M  V30 38 H -2.3848 -1.1732 2.2357 0
M  V30 39 H -3.8512 -0.126 2.1275 0
M  V30 END ATOM
M  V30 BEGIN BOND
M  V30 1 2 1 2
M  V30 2 1 2 3
M  V30 3 1 3 4
M  V30 4 1 4 5
M  V30 5 1 5 6
M  V30 6 1 5 7
M  V30 7 1 6 8
M  V30 8 1 6 9
M  V30 9 2 8 10
M  V30 10 1 8 11
M  V30 11 1 9 12
M  V30 12 1 9 13
M  V30 13 1 9 14
M  V30 14 1 10 15
M  V30 15 1 12 15
M  V30 16 1 2 16
M  V30 17 1 3 17
M  V30 18 1 3 18
M  V30 19 1 4 19
M  V30 20 1 4 20
M  V30 21 1 5 21
M  V30 22 1 6 22
M  V30 23 1 7 23
M  V30 24 1 7 24
M  V30 25 1 7 25
M  V30 26 1 10 26
M  V30 27 1 11 27
M  V30 28 1 11 28
M  V30 29 1 11 29
M  V30 30 1 12 30
M  V30 31 1 12 31
M  V30 32 1 13 32
M  V30 33 1 13 33
M  V30 34 1 13 34
M  V30 35 1 14 35
M  V30 36 1 14 36
M  V30 37 1 14 37
M  V30 38 1 15 38
M  V30 39 1 15 39
M  V30 END BOND
M  V30 BEGIN COLLECTION
M  V30 MDLV30/STEABS ATOMS=(2 5 6)
M  V30 END COLLECTION
M  V30 END CTAB
M  END
>  <Structure No>
432

>  <LogS>
-4.653202091

>  <MMFF94 Energy>
44.596

$$$$
Compound 433
Actelion Java MolfileCreator 2.0

  0  0  0  0  0  0              0 V3000
M  V30 BEGIN CTAB
M  V30 COUNTS 26 27 0 0 0
M  V30 BEGIN ATOM
M  V30 1 C 0.0 0.9562 -0.5577 0
M  V30 2 C -0.3391 2.2255 -0.8119 0
M  V30 3 C -0.8864 -0.1047 0.0499 0
M  V30 4 C 1.3663 0.3635 -0.7759 0 CFG=2
M  V30 5 C 0.1494 -1.281 0.126 0 CFG=1
M  V30 6 C -1.4436 0.3297 1.425 0
M  V30 7 C -2.0671 -0.4569 -0.8822 0
M  V30 8 C 0.9928 -1.0599 -1.1253 0
M  V30 9 C 2.0155 0.1786 0.6069 0
M  V30 10 C 1.2271 -1.0072 1.2032 0
M  V30 11 H 0.3876 2.9149 -1.2291 0
M  V30 12 H -1.343 2.5808 -0.6044 0
M  V30 13 H 1.9948 0.8806 -1.5326 0
M  V30 14 H -0.303 -2.2936 0.1995 0
M  V30 15 H -0.6799 0.8608 2.031 0
M  V30 16 H -1.8075 -0.5561 1.9877 0
M  V30 17 H -2.2921 1.0363 1.2999 0
M  V30 18 H -2.7674 0.4017 -0.9657 0
M  V30 19 H -1.7346 -0.7102 -1.9084 0
M  V30 20 H -2.627 -1.3252 -0.4738 0
M  V30 21 H 1.8769 -1.7375 -1.1866 0
M  V30 22 H 0.4285 -1.1381 -2.0794 0
M  V30 23 H 1.9185 1.0925 1.234 0
M  V30 24 H 3.0912 -0.0815 0.4984 0
M  V30 25 H 1.8917 -1.8944 1.3025 0
M  V30 26 H 0.8149 -0.7879 2.2082 0
M  V30 END ATOM
M  V30 BEGIN BOND
M  V30 1 2 1 2
M  V30 2 1 1 3
M  V30 3 1 1 4
M  V30 4 1 3 5
M  V30 5 1 3 6
M  V30 6 1 3 7
M  V30 7 1 4 8
M  V30 8 1 4 9
M  V30 9 1 5 10
M  V30 10 1 5 8
M  V30 11 1 9 10
M  V30 12 1 2 11
M  V30 13 1 2 12
M  V30 14 1 4 13
M  V30 15 1 5 14
M  V30 16 1 6 15
M  V30 17 1 6 16
M  V30 18 1 6 17
M  V30 19 1 7 18
M  V30 20 1 7 19
M  V30 21 1 7 20
M  V30 22 1 8 21
M  V30 23 1 8 22
M  V30 24 1 9 23
M  V30 25 1 9 24
M  V30 26 1 10 25
M  V30 27 1 10 26
M  V30 END BOND
M  V30 BEGIN COLLECTION
M  V30 MDLV30/STEABS ATOMS=(2 4 5)
M  V30 END COLLECTION
M  V30 END CTAB
M  END
>  <Structure No>
433

>  <LogS>
-4.471540428

>  <MMFF94 Energy>
42.522

$$$$
Compound 434
Actelion Java MolfileCreator 2.0

  0  0  0  0  0  0              0 V3000
M  V30 BEGIN CTAB
M  V30 COUNTS 40 41 0 0 0
M  V30 BEGIN ATOM
M  V30 1 O -3.5839 -0.7955 1.6712 0
M  V30 2 C -3.3165 0.2331 1.0669 0
M  V30 3 C -1.9605 0.5358 0.5276 0 CFG=2
M  V30 4 C -4.3114 1.3062 0.8278 0
M  V30 5 C -2.0785 2.021 0.1518 0
M  V30 6 C -1.6245 -0.372 -0.6954 0
M  V30 7 C -3.5691 2.295 -0.0611 0
M  V30 8 C -0.4854 -1.4018 -0.4468 0 CFG=1
M  V30 9 C 0.9078 -0.7484 -0.1396 0 CFG=1
M  V30 10 C -0.9214 -2.4127 0.6327 0
M  V30 11 C 1.9771 -1.8125 0.2042 0
M  V30 12 C 1.4317 0.078 -1.3339 0
M  V30 13 C 3.3522 -1.2172 0.3675 0
M  V30 14 C 2.7428 0.7984 -0.9796 0
M  V30 15 C 3.7302 -0.0733 -0.2351 0
M  V30 16 C 5.1343 0.4302 -0.0327 0
M  V30 17 H -1.2245 0.4288 1.3475 0
M  V30 18 H -4.5893 1.7771 1.7947 0
M  V30 19 H -5.212 0.905 0.3161 0
M  V30 20 H -1.4759 2.3041 -0.7377 0
M  V30 21 H -1.7227 2.6407 1.0071 0
M  V30 22 H -1.3829 0.2311 -1.5926 0
M  V30 23 H -2.533 -0.9326 -1.0136 0
M  V30 24 H -3.8282 2.0998 -1.1256 0
M  V30 25 H -3.8299 3.3449 0.1934 0
M  V30 26 H -0.3761 -1.9827 -1.3898 0
M  V30 27 H 0.8187 -0.0735 0.7383 0
M  V30 28 H -0.8493 -1.9646 1.6479 0
M  V30 29 H -0.2857 -3.3237 0.5939 0
M  V30 30 H -1.9675 -2.7481 0.46 0
M  V30 31 H 1.7189 -2.3225 1.1612 0
M  V30 32 H 2.022 -2.5827 -0.6023 0
M  V30 33 H 1.6001 -0.5832 -2.2043 0
M  V30 34 H 0.701 0.8576 -1.6337 0
M  V30 35 H 4.081 -1.7878 0.9354 0
M  V30 36 H 3.211 1.1681 -1.9213 0
M  V30 37 H 2.5109 1.6853 -0.338 0
M  V30 38 H 5.2957 1.3863 -0.5753 0
M  V30 39 H 5.3151 0.6063 1.0493 0
M  V30 40 H 5.8664 -0.3176 -0.4098 0
M  V30 END ATOM
M  V30 BEGIN BOND
M  V30 1 2 1 2
M  V30 2 1 2 3
M  V30 3 1 2 4
M  V30 4 1 3 5
M  V30 5 1 3 6
M  V30 6 1 4 7
M  V30 7 1 6 8
M  V30 8 1 8 9
M  V30 9 1 8 10
M  V30 10 1 9 11
M  V30 11 1 9 12
M  V30 12 1 11 13
M  V30 13 1 12 14
M  V30 14 2 13 15
M  V30 15 1 15 16
M  V30 16 1 5 7
M  V30 17 1 14 15
M  V30 18 1 3 17
M  V30 19 1 4 18
M  V30 20 1 4 19
M  V30 21 1 5 20
M  V30 22 1 5 21
M  V30 23 1 6 22
M  V30 24 1 6 23
M  V30 25 1 7 24
M  V30 26 1 7 25
M  V30 27 1 8 26
M  V30 28 1 9 27
M  V30 29 1 10 28
M  V30 30 1 10 29
M  V30 31 1 10 30
M  V30 32 1 11 31
M  V30 33 1 11 32
M  V30 34 1 12 33
M  V30 35 1 12 34
M  V30 36 1 13 35
M  V30 37 1 14 36
M  V30 38 1 14 37
M  V30 39 1 16 38
M  V30 40 1 16 39
M  V30 41 1 16 40
M  V30 END BOND
M  V30 BEGIN COLLECTION
M  V30 MDLV30/STEABS ATOMS=(3 3 8 9)
M  V30 END COLLECTION
M  V30 END CTAB
M  END
>  <Structure No>
434

>  <LogS>
-4.680367049

>  <MMFF94 Energy>
26.469

$$$$
Compound 435
Actelion Java MolfileCreator 2.0

  0  0  0  0  0  0              0 V3000
M  V30 BEGIN CTAB
M  V30 COUNTS 35 34 0 0 0
M  V30 BEGIN ATOM
M  V30 1 O 2.647 0.4667 2.2574 0
M  V30 2 C 3.2284 0.459 1.1379 0
M  V30 3 O 4.603 0.222 1.0494 0
M  V30 4 C 2.4334 0.6567 -0.1135 0
M  V30 5 C 5.4167 -6.0E-4 2.1946 0
M  V30 6 C 1.9236 -0.6904 -0.6404 0
M  V30 7 C 1.2555 -0.5804 -2.0232 0
M  V30 8 C 0.0133 0.3276 -2.0762 0
M  V30 9 C -1.1228 -0.1559 -1.1626 0
M  V30 10 C -2.3949 0.6773 -1.3802 0
M  V30 11 C -3.5883 0.1613 -0.5605 0
M  V30 12 C -3.439 0.4403 0.9424 0
M  V30 13 C -4.7001 0.0405 1.7031 0
M  V30 14 H 1.5789 1.3311 0.1076 0
M  V30 15 H 3.0765 1.1441 -0.8776 0
M  V30 16 H 6.4653 -0.162 1.871 0
M  V30 17 H 5.3791 0.8836 2.8658 0
M  V30 18 H 5.0657 -0.9017 2.7409 0
M  V30 19 H 2.7859 -1.3864 -0.739 0
M  V30 20 H 1.2229 -1.1456 0.0915 0
M  V30 21 H 2.0029 -0.1991 -2.7528 0
M  V30 22 H 0.9682 -1.6009 -2.3586 0
M  V30 23 H -0.3491 0.3366 -3.1274 0
M  V30 24 H 0.2886 1.3727 -1.8197 0
M  V30 25 H -1.3398 -1.2253 -1.3768 0
M  V30 26 H -0.8028 -0.0586 -0.1051 0
M  V30 27 H -2.6744 0.6315 -2.4556 0
M  V30 28 H -2.1975 1.7429 -1.1291 0
M  V30 29 H -3.7204 -0.9294 -0.7322 0
M  V30 30 H -4.5039 0.6733 -0.9303 0
M  V30 31 H -3.2486 1.5231 1.1084 0
M  V30 32 H -2.5848 -0.1364 1.3553 0
M  V30 33 H -4.5612 0.243 2.7861 0
M  V30 34 H -5.5717 0.6272 1.342 0
M  V30 35 H -4.905 -1.0427 1.5675 0
M  V30 END ATOM
M  V30 BEGIN BOND
M  V30 1 2 1 2
M  V30 2 1 2 3
M  V30 3 1 2 4
M  V30 4 1 3 5
M  V30 5 1 4 6
M  V30 6 1 6 7
M  V30 7 1 7 8
M  V30 8 1 8 9
M  V30 9 1 9 10
M  V30 10 1 10 11
M  V30 11 1 11 12
M  V30 12 1 12 13
M  V30 13 1 4 14
M  V30 14 1 4 15
M  V30 15 1 5 16
M  V30 16 1 5 17
M  V30 17 1 5 18
M  V30 18 1 6 19
M  V30 19 1 6 20
M  V30 20 1 7 21
M  V30 21 1 7 22
M  V30 22 1 8 23
M  V30 23 1 8 24
M  V30 24 1 9 25
M  V30 25 1 9 26
M  V30 26 1 10 27
M  V30 27 1 10 28
M  V30 28 1 11 29
M  V30 29 1 11 30
M  V30 30 1 12 31
M  V30 31 1 12 32
M  V30 32 1 13 33
M  V30 33 1 13 34
M  V30 34 1 13 35
M  V30 END BOND
M  V30 END CTAB
M  END
>  <Structure No>
435

>  <LogS>
-4.626748523

>  <MMFF94 Energy>
-10.836

$$$$
Compound 436
Actelion Java MolfileCreator 2.0

  0  0  0  0  0  0              0 V3000
M  V30 BEGIN CTAB
M  V30 COUNTS 5 4 0 0 0
M  V30 BEGIN ATOM
M  V30 1 O -0.4735 1.2631 0.2367 0
M  V30 2 C -0.4015 0.0199 0.0526 0
M  V30 3 O 0.8371 -0.6065 -0.0243 0
M  V30 4 O -1.5635 -0.7287 -0.0737 0 CHG=-1
M  V30 5 H 1.6945 -0.0746 0.0659 0
M  V30 END ATOM
M  V30 BEGIN BOND
M  V30 1 2 1 2
M  V30 2 1 2 3
M  V30 3 1 2 4
M  V30 4 1 3 5
M  V30 END BOND
M  V30 END CTAB
M  END
>  <Structure No>
436

>  <LogS>
-5.022027024

>  <MMFF94 Energy>
-89.96

$$$$
Compound 437
Actelion Java MolfileCreator 2.0

  0  0  0  0  0  0              0 V3000
M  V30 BEGIN CTAB
M  V30 COUNTS 56 55 0 0 0
M  V30 BEGIN ATOM
M  V30 1 O 1.0886 -1.5555 0.8553 0
M  V30 2 C 0.2829 -0.6039 0.6587 0
M  V30 3 N 0.7761 0.62 0.0968 0
M  V30 4 N -1.1278 -0.7936 0.8953 0
M  V30 5 C 1.3707 1.6584 0.9507 0
M  V30 6 C 0.7748 0.7656 -1.3626 0
M  V30 7 C -1.7089 -2.1358 0.7513 0
M  V30 8 C -1.9622 0.3218 1.3654 0
M  V30 9 C 2.5729 1.1186 1.7395 0
M  V30 10 C 2.1069 0.2821 -1.9501 0
M  V30 11 C -1.704 -2.5606 -0.7246 0
M  V30 12 C -2.5348 1.114 0.1838 0
M  V30 13 C 3.2364 2.236 2.5552 0
M  V30 14 C 2.1545 0.4135 -3.4812 0
M  V30 15 C -2.4041 -3.9065 -0.9553 0
M  V30 16 C -3.4428 2.2678 0.6337 0
M  V30 17 C 4.3883 1.6994 3.4001 0
M  V30 18 C 1.3254 -0.6588 -4.1891 0
M  V30 19 C -1.6185 -5.0839 -0.3804 0
M  V30 20 C -2.6584 3.4336 1.2363 0
M  V30 21 H 1.7047 2.5176 0.3271 0
M  V30 22 H 0.6054 2.0452 1.6569 0
M  V30 23 H 0.6041 1.8296 -1.6356 0
M  V30 24 H -0.0665 0.1809 -1.7904 0
M  V30 25 H -1.1267 -2.854 1.3667 0
M  V30 26 H -2.7566 -2.1521 1.1249 0
M  V30 27 H -1.3664 0.975 2.0336 0
M  V30 28 H -2.8016 -0.0621 1.9831 0
M  V30 29 H 2.2298 0.3209 2.4336 0
M  V30 30 H 3.3144 0.6828 1.0329 0
M  V30 31 H 2.291 -0.7731 -1.6536 0
M  V30 32 H 2.9258 0.8998 -1.5224 0
M  V30 33 H -2.24 -1.7865 -1.316 0
M  V30 34 H -0.6619 -2.6108 -1.11 0
M  V30 35 H -1.7177 1.5174 -0.4441 0
M  V30 36 H -3.133 0.4229 -0.4472 0
M  V30 37 H 3.6269 3.0189 1.8694 0
M  V30 38 H 2.4847 2.7033 3.2309 0
M  V30 39 H 1.8032 1.4221 -3.7906 0
M  V30 40 H 3.2119 0.3097 -3.8103 0
M  V30 41 H -3.4255 -3.8888 -0.5154 0
M  V30 42 H -2.5117 -4.0606 -2.0513 0
M  V30 43 H -3.9969 2.6444 -0.2512 0
M  V30 44 H -4.1922 1.9036 1.3677 0
M  V30 45 H 5.1735 1.2568 2.7496 0
M  V30 46 H 4.8383 2.5319 3.9809 0
M  V30 47 H 4.0216 0.9263 4.1118 0
M  V30 48 H 1.4604 -0.5631 -5.2864 0
M  V30 49 H 0.2442 -0.5417 -3.9617 0
M  V30 50 H 1.6607 -1.6702 -3.8812 0
M  V30 51 H -1.629 -5.0552 0.7293 0
M  V30 52 H -2.092 -6.0343 -0.7029 0
M  V30 53 H -0.5688 -5.0695 -0.7441 0
M  V30 54 H -2.1851 3.1372 2.1928 0
M  V30 55 H -3.3481 4.2766 1.4406 0
M  V30 56 H -1.8763 3.7817 0.531 0
M  V30 END ATOM
M  V30 BEGIN BOND
M  V30 1 2 1 2
M  V30 2 1 2 3
M  V30 3 1 2 4
M  V30 4 1 3 5
M  V30 5 1 3 6
M  V30 6 1 4 7
M  V30 7 1 4 8
M  V30 8 1 5 9
M  V30 9 1 6 10
M  V30 10 1 7 11
M  V30 11 1 8 12
M  V30 12 1 9 13
M  V30 13 1 10 14
M  V30 14 1 11 15
M  V30 15 1 12 16
M  V30 16 1 13 17
M  V30 17 1 14 18
M  V30 18 1 15 19
M  V30 19 1 16 20
M  V30 20 1 5 21
M  V30 21 1 5 22
M  V30 22 1 6 23
M  V30 23 1 6 24
M  V30 24 1 7 25
M  V30 25 1 7 26
M  V30 26 1 8 27
M  V30 27 1 8 28
M  V30 28 1 9 29
M  V30 29 1 9 30
M  V30 30 1 10 31
M  V30 31 1 10 32
M  V30 32 1 11 33
M  V30 33 1 11 34
M  V30 34 1 12 35
M  V30 35 1 12 36
M  V30 36 1 13 37
M  V30 37 1 13 38
M  V30 38 1 14 39
M  V30 39 1 14 40
M  V30 40 1 15 41
M  V30 41 1 15 42
M  V30 42 1 16 43
M  V30 43 1 16 44
M  V30 44 1 17 45
M  V30 45 1 17 46
M  V30 46 1 17 47
M  V30 47 1 18 48
M  V30 48 1 18 49
M  V30 49 1 18 50
M  V30 50 1 19 51
M  V30 51 1 19 52
M  V30 52 1 19 53
M  V30 53 1 20 54
M  V30 54 1 20 55
M  V30 55 1 20 56
M  V30 END BOND
M  V30 END CTAB
M  END
>  <Structure No>
437

>  <LogS>
-4.820595497

>  <MMFF94 Energy>
-63.385

$$$$
Compound 438
Actelion Java MolfileCreator 2.0

  0  0  0  0  0  0              0 V3000
M  V30 BEGIN CTAB
M  V30 COUNTS 45 47 0 0 0
M  V30 BEGIN ATOM
M  V30 1 O -2.8894 0.0801 -0.9624 0
M  V30 2 C -1.9053 -0.6345 -0.2105 0 CFG=2
M  V30 3 C -3.9033 0.6884 -0.1816 0
M  V30 4 C -1.0139 0.3369 0.6823 0 CFG=2
M  V30 5 C -1.0148 -1.3802 -1.2633 0
M  V30 6 C -2.5963 -1.7241 0.6634 0
M  V30 7 C -0.2041 1.4514 -0.0813 0
M  V30 8 C 0.1131 -0.4796 1.3205 0
M  V30 9 C 0.3989 -1.7785 -0.7725 0
M  V30 10 C 1.0724 0.6791 -0.5724 0 CFG=2
M  V30 11 C -0.9383 2.1075 -1.2772 0
M  V30 12 C 0.1006 2.614 0.9067 0
M  V30 13 C 1.0502 -0.6936 0.1366 0 CFG=1
M  V30 14 C 2.4604 1.2732 -0.2918 0
M  V30 15 C 2.5215 -0.9765 0.5735 0 CFG=2
M  V30 16 C 3.3665 0.0628 -0.1606 0
M  V30 17 C 3.0432 -2.4019 0.3385 0
M  V30 18 H -4.5308 1.3053 -0.8566 0
M  V30 19 H -4.5787 -0.0646 0.2739 0
M  V30 20 H -3.5013 1.3776 0.5856 0
M  V30 21 H -1.6256 0.7704 1.5017 0
M  V30 22 H -1.5354 -2.2933 -1.6281 0
M  V30 23 H -0.8949 -0.7575 -2.1711 0
M  V30 24 H -3.0067 -1.2861 1.5982 0
M  V30 25 H -1.9036 -2.5442 0.9428 0
M  V30 26 H -3.4282 -2.1955 0.0973 0
M  V30 27 H 0.6003 0.1006 2.1323 0
M  V30 28 H -0.2084 -1.4307 1.7888 0
M  V30 29 H 1.037 -1.9618 -1.6639 0
M  V30 30 H 0.32 -2.7372 -0.2158 0
M  V30 31 H 1.03 0.5253 -1.6754 0
M  V30 32 H -1.8958 2.564 -0.9501 0
M  V30 33 H -0.3095 2.9154 -1.71 0
M  V30 34 H -1.1401 1.4063 -2.1055 0
M  V30 35 H -0.8458 3.099 1.2307 0
M  V30 36 H 0.7266 3.3935 0.4212 0
M  V30 37 H 0.6191 2.2766 1.8254 0
M  V30 38 H 2.5132 1.8281 0.6656 0
M  V30 39 H 2.7919 1.9391 -1.1178 0
M  V30 40 H 2.6359 -0.7754 1.663 0
M  V30 41 H 3.6409 -0.299 -1.1769 0
M  V30 42 H 4.2927 0.3093 0.4033 0
M  V30 43 H 4.0811 -2.4871 0.7252 0
M  V30 44 H 2.4135 -3.1336 0.8869 0
M  V30 45 H 3.0567 -2.6586 -0.7411 0
M  V30 END ATOM
M  V30 BEGIN BOND
M  V30 1 1 1 2
M  V30 2 1 1 3
M  V30 3 1 2 4
M  V30 4 1 2 5
M  V30 5 1 2 6
M  V30 6 1 4 7
M  V30 7 1 4 8
M  V30 8 1 5 9
M  V30 9 1 7 10
M  V30 10 1 7 11
M  V30 11 1 7 12
M  V30 12 1 8 13
M  V30 13 1 10 14
M  V30 14 1 13 15
M  V30 15 1 14 16
M  V30 16 1 15 17
M  V30 17 1 9 13
M  V30 18 1 10 13
M  V30 19 1 15 16
M  V30 20 1 3 18
M  V30 21 1 3 19
M  V30 22 1 3 20
M  V30 23 1 4 21
M  V30 24 1 5 22
M  V30 25 1 5 23
M  V30 26 1 6 24
M  V30 27 1 6 25
M  V30 28 1 6 26
M  V30 29 1 8 27
M  V30 30 1 8 28
M  V30 31 1 9 29
M  V30 32 1 9 30
M  V30 33 1 10 31
M  V30 34 1 11 32
M  V30 35 1 11 33
M  V30 36 1 11 34
M  V30 37 1 12 35
M  V30 38 1 12 36
M  V30 39 1 12 37
M  V30 40 1 14 38
M  V30 41 1 14 39
M  V30 42 1 15 40
M  V30 43 1 16 41
M  V30 44 1 16 42
M  V30 45 1 17 43
M  V30 46 1 17 44
M  V30 47 1 17 45
M  V30 END BOND
M  V30 BEGIN COLLECTION
M  V30 MDLV30/STEABS ATOMS=(5 2 4 10 13 15)
M  V30 END COLLECTION
M  V30 END CTAB
M  END
>  <Structure No>
438

>  <LogS>
-4.74017718

>  <MMFF94 Energy>
87.847

$$$$
Compound 439
Actelion Java MolfileCreator 2.0

  0  0  0  0  0  0              0 V3000
M  V30 BEGIN CTAB
M  V30 COUNTS 40 40 0 0 0
M  V30 BEGIN ATOM
M  V30 1 O 1.8075 -0.4712 -1.1785 0
M  V30 2 C 2.3048 -0.5552 0.1481 0
M  V30 3 C 2.8633 -0.3644 -2.1083 0
M  V30 4 C 2.4854 0.8701 0.7601 0
M  V30 5 C 1.3907 -1.4576 1.039 0
M  V30 6 C 1.4379 1.926 0.3235 0
M  V30 7 C 0.5421 -2.5196 0.294 0
M  V30 8 C 0.0173 1.4923 0.679 0
M  V30 9 C -0.7364 -1.9993 -0.4074 0
M  V30 10 C -1.0871 2.4173 0.1708 0
M  V30 11 C -1.8338 -1.501 0.5631 0
M  V30 12 C -2.4629 1.7237 0.2902 0
M  V30 13 C -3.0022 -0.7907 -0.156 0
M  V30 14 C -2.6734 0.5974 -0.7588 0
M  V30 15 H 3.3069 -1.0514 0.172 0
M  V30 16 H 2.4302 -0.2074 -3.1172 0
M  V30 17 H 3.4579 -1.3036 -2.1387 0
M  V30 18 H 3.5192 0.5051 -1.8844 0
M  V30 19 H 2.507 0.8076 1.8703 0
M  V30 20 H 3.4838 1.2536 0.4575 0
M  V30 21 H 2.0586 -2.0112 1.7358 0
M  V30 22 H 0.7502 -0.8681 1.7186 0
M  V30 23 H 1.6614 2.8882 0.8329 0
M  V30 24 H 1.518 2.0964 -0.772 0
M  V30 25 H 1.1845 -3.0248 -0.4593 0
M  V30 26 H 0.2377 -3.3001 1.0253 0
M  V30 27 H -0.0787 1.3647 1.7796 0
M  V30 28 H -0.1364 0.5371 0.1783 0
M  V30 29 H -0.4758 -1.2304 -1.1542 0
M  V30 30 H -1.1641 -2.8423 -0.9924 0
M  V30 31 H -1.0888 3.3457 0.782 0
M  V30 32 H -0.9023 2.7029 -0.8878 0
M  V30 33 H -1.4363 -0.8396 1.354 0
M  V30 34 H -2.2456 -2.388 1.0917 0
M  V30 35 H -3.2467 2.4981 0.1398 0
M  V30 36 H -2.6004 1.3415 1.3253 0
M  V30 37 H -3.3687 -1.4522 -0.971 0
M  V30 38 H -3.8437 -0.6751 0.5613 0
M  V30 39 H -1.819 0.5249 -1.4618 0
M  V30 40 H -3.5386 0.8872 -1.3945 0
M  V30 END ATOM
M  V30 BEGIN BOND
M  V30 1 1 1 2
M  V30 2 1 1 3
M  V30 3 1 2 4
M  V30 4 1 2 5
M  V30 5 1 4 6
M  V30 6 1 5 7
M  V30 7 1 6 8
M  V30 8 1 7 9
M  V30 9 1 8 10
M  V30 10 1 9 11
M  V30 11 1 10 12
M  V30 12 1 11 13
M  V30 13 1 12 14
M  V30 14 1 13 14
M  V30 15 1 2 15
M  V30 16 1 3 16
M  V30 17 1 3 17
M  V30 18 1 3 18
M  V30 19 1 4 19
M  V30 20 1 4 20
M  V30 21 1 5 21
M  V30 22 1 5 22
M  V30 23 1 6 23
M  V30 24 1 6 24
M  V30 25 1 7 25
M  V30 26 1 7 26
M  V30 27 1 8 27
M  V30 28 1 8 28
M  V30 29 1 9 29
M  V30 30 1 9 30
M  V30 31 1 10 31
M  V30 32 1 10 32
M  V30 33 1 11 33
M  V30 34 1 11 34
M  V30 35 1 12 35
M  V30 36 1 12 36
M  V30 37 1 13 37
M  V30 38 1 13 38
M  V30 39 1 14 39
M  V30 40 1 14 40
M  V30 END BOND
M  V30 END CTAB
M  END
>  <Structure No>
439

>  <LogS>
-4.683590383

>  <MMFF94 Energy>
36.322

$$$$
Compound 440
Actelion Java MolfileCreator 2.0

  0  0  0  0  0  0              0 V3000
M  V30 BEGIN CTAB
M  V30 COUNTS 42 43 0 0 0
M  V30 BEGIN ATOM
M  V30 1 O 2.6272 -0.716 -0.3977 0
M  V30 2 C 1.4456 0.0777 -0.5347 0 CFG=2
M  V30 3 C 3.5431 -0.2471 0.5794 0
M  V30 4 C 0.4684 -0.2392 0.6858 0 CFG=2
M  V30 5 C 0.8089 -0.3933 -1.8898 0
M  V30 6 C 1.8104 1.5844 -0.7035 0
M  V30 7 C 4.349 -1.4231 1.1074 0
M  V30 8 C -0.5785 -1.2254 0.2457 0
M  V30 9 C -0.2771 0.962 1.3435 0
M  V30 10 C -0.7085 -0.1265 -1.9953 0
M  V30 11 C -0.622 -2.4948 0.6779 0
M  V30 12 C -1.5343 -0.6736 -0.7808 0 CFG=2
M  V30 13 C -1.4774 1.523 0.5353 0
M  V30 14 C -2.402 0.4237 -0.0742 0
M  V30 15 C -3.3964 1.0691 -1.0708 0
M  V30 16 C -3.2552 -0.2201 1.0511 0
M  V30 17 H 4.245 0.4747 0.1088 0
M  V30 18 H 3.0534 0.249 1.4458 0
M  V30 19 H 1.0555 -0.7074 1.505 0
M  V30 20 H 1.3271 0.0721 -2.7574 0
M  V30 21 H 0.9598 -1.4909 -2.0023 0
M  V30 22 H 0.9509 2.1807 -1.0611 0
M  V30 23 H 2.1832 2.0377 0.2367 0
M  V30 24 H 2.6152 1.6923 -1.462 0
M  V30 25 H 5.0884 -1.0673 1.8556 0
M  V30 26 H 4.8895 -1.9191 0.2736 0
M  V30 27 H 3.6712 -2.1583 1.5911 0
M  V30 28 H -0.6697 0.6171 2.3253 0
M  V30 29 H 0.4229 1.7834 1.5936 0
M  V30 30 H -1.0829 -0.6038 -2.927 0
M  V30 31 H -0.8355 0.9615 -2.1429 0
M  V30 32 H -1.3833 -3.1785 0.3163 0
M  V30 33 H 0.1016 -2.8628 1.3981 0
M  V30 34 H -2.2046 -1.483 -1.1507 0
M  V30 35 H -2.0737 2.1818 1.2048 0
M  V30 36 H -1.1008 2.1919 -0.2607 0
M  V30 37 H -4.0102 0.2875 -1.568 0
M  V30 38 H -2.8879 1.6619 -1.8564 0
M  V30 39 H -4.0826 1.7649 -0.5409 0
M  V30 40 H -3.907 -1.0189 0.6364 0
M  V30 41 H -2.6256 -0.6711 1.8452 0
M  V30 42 H -3.9053 0.5393 1.5371 0
M  V30 END ATOM
M  V30 BEGIN BOND
M  V30 1 1 1 2
M  V30 2 1 1 3
M  V30 3 1 2 4
M  V30 4 1 2 5
M  V30 5 1 2 6
M  V30 6 1 3 7
M  V30 7 1 4 8
M  V30 8 1 4 9
M  V30 9 1 5 10
M  V30 10 2 8 11
M  V30 11 1 8 12
M  V30 12 1 9 13
M  V30 13 1 12 14
M  V30 14 1 14 15
M  V30 15 1 14 16
M  V30 16 1 10 12
M  V30 17 1 13 14
M  V30 18 1 3 17
M  V30 19 1 3 18
M  V30 20 1 4 19
M  V30 21 1 5 20
M  V30 22 1 5 21
M  V30 23 1 6 22
M  V30 24 1 6 23
M  V30 25 1 6 24
M  V30 26 1 7 25
M  V30 27 1 7 26
M  V30 28 1 7 27
M  V30 29 1 9 28
M  V30 30 1 9 29
M  V30 31 1 10 30
M  V30 32 1 10 31
M  V30 33 1 11 32
M  V30 34 1 11 33
M  V30 35 1 12 34
M  V30 36 1 13 35
M  V30 37 1 13 36
M  V30 38 1 15 37
M  V30 39 1 15 38
M  V30 40 1 15 39
M  V30 41 1 16 40
M  V30 42 1 16 41
M  V30 43 1 16 42
M  V30 END BOND
M  V30 BEGIN COLLECTION
M  V30 MDLV30/STEABS ATOMS=(3 2 4 12)
M  V30 END COLLECTION
M  V30 END CTAB
M  END
>  <Structure No>
440

>  <LogS>
-4.734296245

>  <MMFF94 Energy>
69.469

$$$$
Compound 441
Actelion Java MolfileCreator 2.0

  0  0  0  0  0  0              0 V3000
M  V30 BEGIN CTAB
M  V30 COUNTS 36 35 0 0 0
M  V30 BEGIN ATOM
M  V30 1 S 1.8949 -2.1423 -0.8235 0
M  V30 2 C 1.8907 -0.5187 -0.5869 0
M  V30 3 S 0.3936 0.3768 -1.0186 0
M  V30 4 N 3.0841 0.1797 -0.1525 0
M  V30 5 S -0.407 0.2455 0.9561 0
M  V30 6 C 4.1683 -0.5293 0.5457 0
M  V30 7 C 3.2553 1.6151 -0.4246 0
M  V30 8 C -1.6614 -0.9514 0.4835 0
M  V30 9 C 5.2072 -1.0468 -0.4454 0
M  V30 10 C 2.7285 2.459 0.7321 0
M  V30 11 S -1.2929 -2.5407 0.6579 0
M  V30 12 N -2.9849 -0.5284 0.071 0
M  V30 13 C -3.479 0.818 0.3976 0
M  V30 14 C -3.8809 -1.4394 -0.6591 0
M  V30 15 C -3.1647 1.8039 -0.7234 0
M  V30 16 C -4.7698 -2.2187 0.3066 0
M  V30 17 H 4.6706 0.1555 1.2632 0
M  V30 18 H 3.7613 -1.372 1.145 0
M  V30 19 H 4.3327 1.8486 -0.5681 0
M  V30 20 H 2.7432 1.8996 -1.3685 0
M  V30 21 H 5.6596 -0.2015 -1.0053 0
M  V30 22 H 6.0116 -1.5791 0.1042 0
M  V30 23 H 4.7453 -1.7511 -1.167 0
M  V30 24 H 1.6347 2.3278 0.8468 0
M  V30 25 H 3.2312 2.1723 1.6796 0
M  V30 26 H 2.933 3.5317 0.5316 0
M  V30 27 H -3.0416 1.1755 1.3542 0
M  V30 28 H -4.5807 0.7929 0.5452 0
M  V30 29 H -3.2945 -2.1428 -1.2883 0
M  V30 30 H -4.5298 -0.8606 -1.3518 0
M  V30 31 H -2.0705 1.931 -0.8379 0
M  V30 32 H -3.6084 2.7928 -0.4824 0
M  V30 33 H -3.5928 1.4466 -1.6833 0
M  V30 34 H -5.4014 -1.5218 0.8965 0
M  V30 35 H -5.4334 -2.8996 -0.2667 0
M  V30 36 H -4.156 -2.8259 1.0029 0
M  V30 END ATOM
M  V30 BEGIN BOND
M  V30 1 2 1 2
M  V30 2 1 2 3
M  V30 3 1 2 4
M  V30 4 1 3 5
M  V30 5 1 4 6
M  V30 6 1 4 7
M  V30 7 1 5 8
M  V30 8 1 6 9
M  V30 9 1 7 10
M  V30 10 2 8 11
M  V30 11 1 8 12
M  V30 12 1 12 13
M  V30 13 1 12 14
M  V30 14 1 13 15
M  V30 15 1 14 16
M  V30 16 1 6 17
M  V30 17 1 6 18
M  V30 18 1 7 19
M  V30 19 1 7 20
M  V30 20 1 9 21
M  V30 21 1 9 22
M  V30 22 1 9 23
M  V30 23 1 10 24
M  V30 24 1 10 25
M  V30 25 1 10 26
M  V30 26 1 13 27
M  V30 27 1 13 28
M  V30 28 1 14 29
M  V30 29 1 14 30
M  V30 30 1 15 31
M  V30 31 1 15 32
M  V30 32 1 15 33
M  V30 33 1 16 34
M  V30 34 1 16 35
M  V30 35 1 16 36
M  V30 END BOND
M  V30 END CTAB
M  END
>  <Structure No>
441

>  <LogS>
-4.860377549

>  <MMFF94 Energy>
-15.299

$$$$
Compound 442
Actelion Java MolfileCreator 2.0

  0  0  0  0  0  0              0 V3000
M  V30 BEGIN CTAB
M  V30 COUNTS 40 43 0 0 0
M  V30 BEGIN ATOM
M  V30 1 O 0.3228 -1.6152 1.4536 0
M  V30 2 C -0.2489 -0.741 0.7449 0
M  V30 3 N 0.5318 0.2562 0.0689 0
M  V30 4 C -1.7247 -0.7345 0.6146 0
M  V30 5 C -0.1327 1.279 -0.6881 0
M  V30 6 C 1.9656 0.2441 0.1657 0
M  V30 7 C -2.3688 0.2671 -0.148 0
M  V30 8 C -2.4901 -1.7176 1.2543 0
M  V30 9 O 0.5434 2.171 -1.2715 0
M  V30 10 C -1.6106 1.2768 -0.7903 0
M  V30 11 C 2.7357 -0.6774 -0.5761 0
M  V30 12 C 2.6039 1.1695 1.0022 0
M  V30 13 C -3.7912 0.2654 -0.2641 0
M  V30 14 C -3.8756 -1.7272 1.1344 0
M  V30 15 C -2.2656 2.2766 -1.5241 0
M  V30 16 C 4.1332 -0.6813 -0.431 0
M  V30 17 C 2.0792 -1.6752 -1.4906 0
M  V30 18 C 3.9942 1.1686 1.1269 0
M  V30 19 C -4.5417 -0.76 0.3726 0
M  V30 20 C -4.4122 1.3002 -0.9953 0
M  V30 21 C -3.653 2.2882 -1.6186 0
M  V30 22 C 4.7655 0.2309 0.4271 0
M  V30 23 N -5.9704 -0.8606 0.2569 0
M  V30 24 C 6.2613 0.25 0.5386 0
M  V30 25 H -2.0161 -2.4903 1.8469 0
M  V30 26 H 2.0183 1.8889 1.5608 0
M  V30 27 H -4.4373 -2.5093 1.6303 0
M  V30 28 H -1.7047 3.0584 -2.0211 0
M  V30 29 H 4.7313 -1.3923 -0.9889 0
M  V30 30 H 1.2566 -1.1952 -2.0618 0
M  V30 31 H 2.8048 -2.0848 -2.2252 0
M  V30 32 H 1.6677 -2.5138 -0.8916 0
M  V30 33 H 4.4687 1.8956 1.7744 0
M  V30 34 H -5.4836 1.3802 -1.0865 0
M  V30 35 H -4.1463 3.0736 -2.1771 0
M  V30 36 H -6.5215 -0.3594 -0.4704 0
M  V30 37 H -6.4963 -1.5486 0.8412 0
M  V30 38 H 6.681 0.9168 -0.2431 0
M  V30 39 H 6.576 0.6203 1.5377 0
M  V30 40 H 6.6768 -0.7715 0.4056 0
M  V30 END ATOM
M  V30 BEGIN BOND
M  V30 1 2 1 2
M  V30 2 1 2 3
M  V30 3 1 2 4
M  V30 4 1 3 5
M  V30 5 1 3 6
M  V30 6 1 4 7
M  V30 7 2 4 8
M  V30 8 2 5 9
M  V30 9 1 5 10
M  V30 10 2 6 11
M  V30 11 1 6 12
M  V30 12 1 7 13
M  V30 13 1 8 14
M  V30 14 1 10 15
M  V30 15 1 11 16
M  V30 16 1 11 17
M  V30 17 2 12 18
M  V30 18 1 13 19
M  V30 19 2 13 20
M  V30 20 2 15 21
M  V30 21 2 16 22
M  V30 22 1 19 23
M  V30 23 1 22 24
M  V30 24 2 7 10
M  V30 25 2 14 19
M  V30 26 1 18 22
M  V30 27 1 20 21
M  V30 28 1 8 25
M  V30 29 1 12 26
M  V30 30 1 14 27
M  V30 31 1 15 28
M  V30 32 1 16 29
M  V30 33 1 17 30
M  V30 34 1 17 31
M  V30 35 1 17 32
M  V30 36 1 18 33
M  V30 37 1 20 34
M  V30 38 1 21 35
M  V30 39 1 23 36
M  V30 40 1 23 37
M  V30 41 1 24 38
M  V30 42 1 24 39
M  V30 43 1 24 40
M  V30 END BOND
M  V30 END CTAB
M  END
>  <Structure No>
442

>  <LogS>
-4.891655533

>  <MMFF94 Energy>
74.156

$$$$
Compound 443
Actelion Java MolfileCreator 2.0

  0  0  0  0  0  0              0 V3000
M  V30 BEGIN CTAB
M  V30 COUNTS 34 34 0 0 0
M  V30 BEGIN ATOM
M  V30 1 N 4.5763 -0.4726 2.0494 0
M  V30 2 C 4.1066 -0.2978 1.0064 0
M  V30 3 C 3.5107 -0.0763 -0.3153 0
M  V30 4 C 1.9959 -0.0603 -0.2101 0
M  V30 5 C 1.2527 -1.2631 -0.3243 0
M  V30 6 C 1.3055 1.1491 0.0561 0
M  V30 7 C -0.149 -1.2302 -0.247 0
M  V30 8 C 1.9288 -2.5913 -0.5633 0
M  V30 9 C -0.0953 1.1514 0.1289 0
M  V30 10 C 2.0362 2.4578 0.2331 0
M  V30 11 C -0.8496 -0.027 -0.0245 0
M  V30 12 C -2.3907 0.0395 0.0638 0
M  V30 13 C -2.9298 0.988 -1.0297 0
M  V30 14 C -2.8045 0.5714 1.4536 0
M  V30 15 C -3.0741 -1.3356 -0.1329 0
M  V30 16 H 3.8624 -0.8667 -1.0086 0
M  V30 17 H 3.8996 0.8739 -0.7334 0
M  V30 18 H -0.6798 -2.1629 -0.3632 0
M  V30 19 H 2.3285 -2.6262 -1.5983 0
M  V30 20 H 1.2257 -3.4419 -0.4357 0
M  V30 21 H 2.7561 -2.7394 0.1615 0
M  V30 22 H -0.6022 2.0899 0.3097 0
M  V30 23 H 1.3659 3.2555 0.6186 0
M  V30 24 H 2.863 2.3424 0.9647 0
M  V30 25 H 2.4453 2.7925 -0.743 0
M  V30 26 H -4.0412 1.0152 -1.0157 0
M  V30 27 H -2.6014 0.6444 -2.0346 0
M  V30 28 H -2.5726 2.0286 -0.8831 0
M  V30 29 H -3.9115 0.5856 1.5572 0
M  V30 30 H -2.4436 1.6077 1.6201 0
M  V30 31 H -2.3872 -0.0762 2.2549 0
M  V30 32 H -4.18 -1.2395 -0.0669 0
M  V30 33 H -2.7566 -2.0529 0.6544 0
M  V30 34 H -2.8364 -1.7566 -1.1338 0
M  V30 END ATOM
M  V30 BEGIN BOND
M  V30 1 3 1 2
M  V30 2 1 2 3
M  V30 3 1 3 4
M  V30 4 2 4 5
M  V30 5 1 4 6
M  V30 6 1 5 7
M  V30 7 1 5 8
M  V30 8 2 6 9
M  V30 9 1 6 10
M  V30 10 2 7 11
M  V30 11 1 11 12
M  V30 12 1 12 13
M  V30 13 1 12 14
M  V30 14 1 12 15
M  V30 15 1 9 11
M  V30 16 1 3 16
M  V30 17 1 3 17
M  V30 18 1 7 18
M  V30 19 1 8 19
M  V30 20 1 8 20
M  V30 21 1 8 21
M  V30 22 1 9 22
M  V30 23 1 10 23
M  V30 24 1 10 24
M  V30 25 1 10 25
M  V30 26 1 13 26
M  V30 27 1 13 27
M  V30 28 1 13 28
M  V30 29 1 14 29
M  V30 30 1 14 30
M  V30 31 1 14 31
M  V30 32 1 15 32
M  V30 33 1 15 33
M  V30 34 1 15 34
M  V30 END BOND
M  V30 END CTAB
M  END
>  <Structure No>
443

>  <LogS>
-4.70181183

>  <MMFF94 Energy>
58.873

$$$$
Compound 444
Actelion Java MolfileCreator 2.0

  0  0  0  0  0  0              0 V3000
M  V30 BEGIN CTAB
M  V30 COUNTS 22 24 0 0 0
M  V30 BEGIN ATOM
M  V30 1 O 2.3682 2.7769 0.0815 0
M  V30 2 C 1.2786 2.1431 0.0648 0
M  V30 3 N 0.0433 2.8622 0.0882 0
M  V30 4 C 1.2625 0.6631 0.021 0
M  V30 5 C -1.2002 2.1578 0.0696 0
M  V30 6 C 0.0261 -0.0255 0.0029 0
M  V30 7 C 2.4632 -0.0662 -0.0026 0
M  V30 8 O -2.2822 2.8045 0.0907 0
M  V30 9 C -1.2018 0.6777 0.0259 0
M  V30 10 C 0.0176 -1.4436 -0.0389 0
M  V30 11 C 2.4433 -1.4613 -0.0437 0
M  V30 12 C -2.4113 -0.0373 0.0069 0
M  V30 13 C 1.2293 -2.1488 -0.0619 0
M  V30 14 C -1.2024 -2.1344 -0.0572 0
M  V30 15 C -2.4081 -1.4325 -0.0343 0
M  V30 16 H 0.0496 3.9068 0.1192 0
M  V30 17 H 3.4193 0.4419 0.0108 0
M  V30 18 H 3.3744 -2.0127 -0.0616 0
M  V30 19 H -3.3613 0.4819 0.024 0
M  V30 20 H 1.2377 -3.2318 -0.0939 0
M  V30 21 H -1.2238 -3.2173 -0.0891 0
M  V30 22 H -3.3458 -1.9729 -0.0485 0
M  V30 END ATOM
M  V30 BEGIN BOND
M  V30 1 2 1 2
M  V30 2 1 2 3
M  V30 3 1 2 4
M  V30 4 1 3 5
M  V30 5 1 4 6
M  V30 6 2 4 7
M  V30 7 2 5 8
M  V30 8 1 5 9
M  V30 9 1 6 10
M  V30 10 1 7 11
M  V30 11 1 9 12
M  V30 12 1 10 13
M  V30 13 2 10 14
M  V30 14 2 12 15
M  V30 15 2 6 9
M  V30 16 2 11 13
M  V30 17 1 14 15
M  V30 18 1 3 16
M  V30 19 1 7 17
M  V30 20 1 11 18
M  V30 21 1 12 19
M  V30 22 1 13 20
M  V30 23 1 14 21
M  V30 24 1 15 22
M  V30 END BOND
M  V30 END CTAB
M  END
>  <Structure No>
444

>  <LogS>
-4.692831503

>  <MMFF94 Energy>
2.4298

$$$$
Compound 445
Actelion Java MolfileCreator 2.0

  0  0  0  0  0  0              0 V3000
M  V30 BEGIN CTAB
M  V30 COUNTS 25 26 0 0 0
M  V30 BEGIN ATOM
M  V30 1 O -3.4656 2.0944 -0.1609 0
M  V30 2 C -2.514 1.271 -0.1349 0
M  V30 3 O -1.199 1.7463 -0.0889 0
M  V30 4 C -2.8019 -0.1965 -0.2763 0
M  V30 5 C -0.0797 0.9154 0.2264 0 CFG=1
M  V30 6 C -1.6434 -1.0537 0.2411 0
M  V30 7 C -0.2945 -0.5274 -0.2752 0 CFG=2
M  V30 8 C 1.2051 1.5314 -0.3681 0
M  V30 9 C 0.872 -1.4478 0.1646 0
M  V30 10 C 2.3 0.4891 -0.6758 0
M  V30 11 C 2.2244 -0.7123 0.2721 0
M  V30 12 H -2.9711 -0.4192 -1.3517 0
M  V30 13 H -3.7278 -0.4545 0.2817 0
M  V30 14 H 0.0225 0.8866 1.335 0
M  V30 15 H -1.6522 -1.0463 1.354 0
M  V30 16 H -1.7925 -2.1028 -0.0954 0
M  V30 17 H -0.3272 -0.5126 -1.389 0
M  V30 18 H 0.9626 2.071 -1.3098 0
M  V30 19 H 1.6032 2.2828 0.3483 0
M  V30 20 H 0.6537 -1.9104 1.1525 0
M  V30 21 H 0.9638 -2.2769 -0.5706 0
M  V30 22 H 2.1865 0.1289 -1.722 0
M  V30 23 H 3.3002 0.9664 -0.5928 0
M  V30 24 H 3.0508 -1.4193 0.0429 0
M  V30 25 H 2.37 -0.3546 1.3154 0
M  V30 END ATOM
M  V30 BEGIN BOND
M  V30 1 2 1 2
M  V30 2 1 2 3
M  V30 3 1 2 4
M  V30 4 1 3 5
M  V30 5 1 4 6
M  V30 6 1 5 7
M  V30 7 1 5 8
M  V30 8 1 7 9
M  V30 9 1 8 10
M  V30 10 1 9 11
M  V30 11 1 6 7
M  V30 12 1 10 11
M  V30 13 1 4 12
M  V30 14 1 4 13
M  V30 15 1 5 14
M  V30 16 1 6 15
M  V30 17 1 6 16
M  V30 18 1 7 17
M  V30 19 1 8 18
M  V30 20 1 8 19
M  V30 21 1 9 20
M  V30 22 1 9 21
M  V30 23 1 10 22
M  V30 24 1 10 23
M  V30 25 1 11 24
M  V30 26 1 11 25
M  V30 END BOND
M  V30 BEGIN COLLECTION
M  V30 MDLV30/STEABS ATOMS=(2 5 7)
M  V30 END COLLECTION
M  V30 END CTAB
M  END
>  <Structure No>
445

>  <LogS>
-0.586560326

>  <MMFF94 Energy>
5.655

$$$$
Compound 446
Actelion Java MolfileCreator 2.0

  0  0  0  0  0  0              0 V3000
M  V30 BEGIN CTAB
M  V30 COUNTS 21 21 0 0 0
M  V30 BEGIN ATOM
M  V30 1 O 2.6813 1.1822 -0.5515 0
M  V30 2 C 2.0457 0.294 0.0811 0
M  V30 3 O 2.7367 -0.634 0.868 0
M  V30 4 C 0.5698 0.2317 -0.0068 0
M  V30 5 C 4.1535 -0.6289 0.9953 0
M  V30 6 C -0.1419 -0.7571 0.694 0
M  V30 7 C -0.1423 1.1543 -0.7945 0
M  V30 8 C -1.5363 -0.819 0.6131 0
M  V30 9 C -1.5367 1.091 -0.8742 0
M  V30 10 C -2.2433 0.1138 -0.1587 0
M  V30 11 C -3.7358 0.0221 -0.2762 0
M  V30 12 H 4.4618 -1.4555 1.6676 0
M  V30 13 H 4.625 -0.7786 0.0011 0
M  V30 14 H 4.4925 0.3347 1.4308 0
M  V30 15 H 0.3773 -1.4865 1.3028 0
M  V30 16 H 0.3772 1.9234 -1.3523 0
M  V30 17 H -2.0645 -1.5948 1.1537 0
M  V30 18 H -2.0651 1.8051 -1.4939 0
M  V30 19 H -3.999 -0.6404 -1.127 0
M  V30 20 H -4.178 1.0265 -0.449 0
M  V30 21 H -4.1776 -0.3912 0.6553 0
M  V30 END ATOM
M  V30 BEGIN BOND
M  V30 1 2 1 2
M  V30 2 1 2 3
M  V30 3 1 2 4
M  V30 4 1 3 5
M  V30 5 2 4 6
M  V30 6 1 4 7
M  V30 7 1 6 8
M  V30 8 2 7 9
M  V30 9 2 8 10
M  V30 10 1 10 11
M  V30 11 1 9 10
M  V30 12 1 5 12
M  V30 13 1 5 13
M  V30 14 1 5 14
M  V30 15 1 6 15
M  V30 16 1 7 16
M  V30 17 1 8 17
M  V30 18 1 9 18
M  V30 19 1 11 19
M  V30 20 1 11 20
M  V30 21 1 11 21
M  V30 END BOND
M  V30 END CTAB
M  END
>  <Structure No>
446

>  <LogS>
-2.576720352

>  <MMFF94 Energy>
32.043

$$$$
Compound 447
Actelion Java MolfileCreator 2.0

  0  0  0  0  0  0              0 V3000
M  V30 BEGIN CTAB
M  V30 COUNTS 36 37 0 0 0
M  V30 BEGIN ATOM
M  V30 1 O -0.317 0.4755 0.6341 0
M  V30 2 C -1.5096 1.0184 0.0825 0
M  V30 3 C -0.1065 -0.9134 0.3688 0 CFG=1
M  V30 4 C -2.7469 0.1681 0.4747 0
M  V30 5 C -1.6718 2.4322 0.6659 0
M  V30 6 C -1.3875 1.1538 -1.4542 0
M  V30 7 O -1.2264 -1.5762 -0.1973 0
M  V30 8 C 1.0985 -1.0879 -0.5632 0
M  V30 9 C -2.3692 -1.317 0.584 0 CFG=2
M  V30 10 C 2.3424 -0.4754 0.0266 0
M  V30 11 C -3.5115 -2.2147 0.1103 0
M  V30 12 C 3.1311 -1.2061 0.9309 0
M  V30 13 C 2.6954 0.8498 -0.2799 0
M  V30 14 C 4.2669 -0.6253 1.5035 0
M  V30 15 C 3.8317 1.4268 0.2952 0
M  V30 16 C 4.6178 0.6895 1.1849 0
M  V30 17 H 0.1516 -1.4111 1.3318 0
M  V30 18 H -3.1519 0.4866 1.4614 0
M  V30 19 H -3.5608 0.3295 -0.2676 0
M  V30 20 H -0.8119 3.0732 0.3737 0
M  V30 21 H -1.7031 2.3916 1.7761 0
M  V30 22 H -2.6094 2.9063 0.3023 0
M  V30 23 H -1.3927 0.1662 -1.9578 0
M  V30 24 H -2.2391 1.738 -1.865 0
M  V30 25 H -0.4439 1.6767 -1.7195 0
M  V30 26 H 1.2682 -2.1726 -0.7412 0
M  V30 27 H 0.8831 -0.6315 -1.5527 0
M  V30 28 H -2.1758 -1.5743 1.6533 0
M  V30 29 H -3.2279 -3.281 0.2372 0
M  V30 30 H -3.7303 -2.0311 -0.9636 0
M  V30 31 H -4.427 -2.0187 0.7083 0
M  V30 32 H 2.8647 -2.2227 1.1928 0
M  V30 33 H 2.0899 1.4354 -0.9604 0
M  V30 34 H 4.8733 -1.1933 2.1972 0
M  V30 35 H 4.1009 2.447 0.054 0
M  V30 36 H 5.4963 1.1381 1.6303 0
M  V30 END ATOM
M  V30 BEGIN BOND
M  V30 1 1 1 2
M  V30 2 1 1 3
M  V30 3 1 2 4
M  V30 4 1 2 5
M  V30 5 1 2 6
M  V30 6 1 3 7
M  V30 7 1 3 8
M  V30 8 1 4 9
M  V30 9 1 8 10
M  V30 10 1 9 11
M  V30 11 2 10 12
M  V30 12 1 10 13
M  V30 13 1 12 14
M  V30 14 2 13 15
M  V30 15 2 14 16
M  V30 16 1 7 9
M  V30 17 1 15 16
M  V30 18 1 3 17
M  V30 19 1 4 18
M  V30 20 1 4 19
M  V30 21 1 5 20
M  V30 22 1 5 21
M  V30 23 1 5 22
M  V30 24 1 6 23
M  V30 25 1 6 24
M  V30 26 1 6 25
M  V30 27 1 8 26
M  V30 28 1 8 27
M  V30 29 1 9 28
M  V30 30 1 11 29
M  V30 31 1 11 30
M  V30 32 1 11 31
M  V30 33 1 12 32
M  V30 34 1 13 33
M  V30 35 1 14 34
M  V30 36 1 15 35
M  V30 37 1 16 36
M  V30 END BOND
M  V30 BEGIN COLLECTION
M  V30 MDLV30/STEABS ATOMS=(2 3 9)
M  V30 END COLLECTION
M  V30 END CTAB
M  END
>  <Structure No>
447

>  <LogS>
-2.744685443

>  <MMFF94 Energy>
31.089

$$$$
Compound 448
Actelion Java MolfileCreator 2.0

  0  0  0  0  0  0              0 V3000
M  V30 BEGIN CTAB
M  V30 COUNTS 16 16 0 0 0
M  V30 BEGIN ATOM
M  V30 1 N -1.4693 -1.7014 0.3865 0
M  V30 2 C -0.3917 -0.7962 0.1096 0
M  V30 3 C -0.5816 0.6086 0.0618 0
M  V30 4 C 0.884 -1.326 -0.1455 0
M  V30 5 N -1.8435 1.2176 0.3681 0
M  V30 6 C 0.5028 1.4372 -0.271 0
M  V30 7 C 1.9529 -0.4865 -0.4643 0
M  V30 8 C 1.7613 0.8926 -0.5323 0
M  V30 9 H -2.4678 -1.4048 0.3894 0
M  V30 10 H -1.2816 -2.7225 0.5018 0
M  V30 11 H 1.0472 -2.3958 -0.1097 0
M  V30 12 H -2.6291 0.6952 0.8098 0
M  V30 13 H -1.9762 2.2456 0.2391 0
M  V30 14 H 0.3744 2.5116 -0.3156 0
M  V30 15 H 2.93 -0.9071 -0.6642 0
M  V30 16 H 2.5904 1.5419 -0.7824 0
M  V30 END ATOM
M  V30 BEGIN BOND
M  V30 1 1 1 2
M  V30 2 2 2 3
M  V30 3 1 2 4
M  V30 4 1 3 5
M  V30 5 1 3 6
M  V30 6 2 4 7
M  V30 7 2 6 8
M  V30 8 1 7 8
M  V30 9 1 1 9
M  V30 10 1 1 10
M  V30 11 1 4 11
M  V30 12 1 5 12
M  V30 13 1 5 13
M  V30 14 1 6 14
M  V30 15 1 7 15
M  V30 16 1 8 16
M  V30 END BOND
M  V30 END CTAB
M  END
>  <Structure No>
448

>  <LogS>
-0.439609879

>  <MMFF94 Energy>
17.743

$$$$
Compound 449
Actelion Java MolfileCreator 2.0

  0  0  0  0  0  0              0 V3000
M  V30 BEGIN CTAB
M  V30 COUNTS 16 17 0 0 0
M  V30 BEGIN ATOM
M  V30 1 S 2.0614 -1.0303 -0.3433 0
M  V30 2 O 2.3452 -1.5418 -1.727 0
M  V30 3 O 2.5053 -1.991 0.7229 0
M  V30 4 N 2.7349 0.5412 -0.0991 0 CHG=-1
M  V30 5 C 0.4063 -0.5416 -0.1456 0
M  V30 6 C 1.652 1.4442 0.1371 0
M  V30 7 C 0.3254 0.8155 0.1085 0
M  V30 8 C -0.7338 -1.3403 -0.2174 0
M  V30 9 O 1.837 2.6711 0.3499 0
M  V30 10 C -0.9134 1.4321 0.3025 0
M  V30 11 C -1.9859 -0.7354 -0.0247 0
M  V30 12 C -2.0755 0.6459 0.2343 0
M  V30 13 H -0.656 -2.401 -0.417 0
M  V30 14 H -0.9804 2.494 0.5016 0
M  V30 15 H -2.8864 -1.3337 -0.0755 0
M  V30 16 H -3.0449 1.1042 0.3818 0
M  V30 END ATOM
M  V30 BEGIN BOND
M  V30 1 2 1 2
M  V30 2 2 1 3
M  V30 3 1 1 4
M  V30 4 1 1 5
M  V30 5 1 4 6
M  V30 6 2 5 7
M  V30 7 1 5 8
M  V30 8 2 6 9
M  V30 9 1 7 10
M  V30 10 2 8 11
M  V30 11 2 10 12
M  V30 12 1 6 7
M  V30 13 1 11 12
M  V30 14 1 8 13
M  V30 15 1 10 14
M  V30 16 1 11 15
M  V30 17 1 12 16
M  V30 END BOND
M  V30 END CTAB
M  END
>  <Structure No>
449

>  <LogS>
-1.671832414

>  <MMFF94 Energy>
36.432

$$$$
Compound 450
Actelion Java MolfileCreator 2.0

  0  0  0  0  0  0              0 V3000
M  V30 BEGIN CTAB
M  V30 COUNTS 20 20 0 0 0
M  V30 BEGIN ATOM
M  V30 1 S 3.0642 -0.8274 -0.4136 0
M  V30 2 O 3.1032 -2.2251 0.1369 0
M  V30 3 O 4.0978 1.0E-4 0.2973 0
M  V30 4 O 3.4096 -0.8623 -2.0566 0 CHG=-1
M  V30 5 C 1.4655 -0.1327 -0.1661 0
M  V30 6 C 0.3298 -0.9509 -0.2042 0
M  V30 7 C 1.3208 1.2418 0.0465 0
M  V30 8 C -0.9535 -0.407 -0.0182 0
M  V30 9 C 0.0528 1.7945 0.2324 0
M  V30 10 C -1.0918 0.9839 0.2042 0
M  V30 11 C -2.1527 -1.3152 -0.0618 0
M  V30 12 N -2.3775 1.5895 0.3998 0
M  V30 13 H 0.4472 -2.013 -0.3813 0
M  V30 14 H 2.1888 1.8884 0.0666 0
M  V30 15 H -0.0388 2.8607 0.3978 0
M  V30 16 H -1.8623 -2.3714 -0.246 0
M  V30 17 H -2.8335 -0.9996 -0.8802 0
M  V30 18 H -2.692 -1.2726 0.9077 0
M  V30 19 H -2.4589 2.6182 0.5616 0
M  V30 20 H -3.2613 1.0355 0.3884 0
M  V30 END ATOM
M  V30 BEGIN BOND
M  V30 1 2 1 2
M  V30 2 2 1 3
M  V30 3 1 1 4
M  V30 4 1 1 5
M  V30 5 2 5 6
M  V30 6 1 5 7
M  V30 7 1 6 8
M  V30 8 2 7 9
M  V30 9 2 8 10
M  V30 10 1 8 11
M  V30 11 1 10 12
M  V30 12 1 9 10
M  V30 13 1 6 13
M  V30 14 1 7 14
M  V30 15 1 9 15
M  V30 16 1 11 16
M  V30 17 1 11 17
M  V30 18 1 11 18
M  V30 19 1 12 19
M  V30 20 1 12 20
M  V30 END BOND
M  V30 END CTAB
M  END
>  <Structure No>
450

>  <LogS>
-1.729501225

>  <MMFF94 Energy>
43.474

$$$$
Compound 451
Actelion Java MolfileCreator 2.0

  0  0  0  0  0  0              0 V3000
M  V30 BEGIN CTAB
M  V30 COUNTS 30 29 0 0 0
M  V30 BEGIN ATOM
M  V30 1 N 2.5685 -2.1011 3.7377 0
M  V30 2 C 2.5264 -1.0986 3.1613 0
M  V30 3 C 2.4728 0.1744 2.4291 0
M  V30 4 C 2.0809 -0.0335 0.9503 0 CFG=1
M  V30 5 C 0.6078 -0.5021 0.826 0
M  V30 6 C 2.318 1.2691 0.1704 0
M  V30 7 C 0.2108 -0.9188 -0.6102 0
M  V30 8 C -0.6833 0.1198 -1.316 0
M  V30 9 C -2.1536 0.1068 -0.8274 0
M  V30 10 C -2.8488 1.4197 -1.2111 0
M  V30 11 C -2.9358 -1.0809 -1.4098 0
M  V30 12 H 1.7479 0.8518 2.9299 0
M  V30 13 H 3.4801 0.6386 2.4947 0
M  V30 14 H 2.7485 -0.8141 0.5196 0
M  V30 15 H 0.4586 -1.3882 1.4803 0
M  V30 16 H -0.0655 0.2908 1.2181 0
M  V30 17 H 2.1622 1.1096 -0.9163 0
M  V30 18 H 1.6312 2.0682 0.5239 0
M  V30 19 H 3.3653 1.6144 0.3038 0
M  V30 20 H -0.3048 -1.9005 -0.5785 0
M  V30 21 H 1.1195 -1.0836 -1.2287 0
M  V30 22 H -0.6586 -0.0699 -2.4116 0
M  V30 23 H -0.2435 1.1287 -1.1629 0
M  V30 24 H -2.1811 0.0282 0.2807 0
M  V30 25 H -2.3287 2.2813 -0.7403 0
M  V30 26 H -3.9002 1.4194 -0.8516 0
M  V30 27 H -2.8456 1.5567 -2.3139 0
M  V30 28 H -2.5103 -2.0447 -1.0651 0
M  V30 29 H -2.919 -1.0562 -2.5207 0
M  V30 30 H -3.9932 -1.0455 -1.0708 0
M  V30 END ATOM
M  V30 BEGIN BOND
M  V30 1 3 1 2
M  V30 2 1 2 3
M  V30 3 1 3 4
M  V30 4 1 4 5
M  V30 5 1 4 6
M  V30 6 1 5 7
M  V30 7 1 7 8
M  V30 8 1 8 9
M  V30 9 1 9 10
M  V30 10 1 9 11
M  V30 11 1 3 12
M  V30 12 1 3 13
M  V30 13 1 4 14
M  V30 14 1 5 15
M  V30 15 1 5 16
M  V30 16 1 6 17
M  V30 17 1 6 18
M  V30 18 1 6 19
M  V30 19 1 7 20
M  V30 20 1 7 21
M  V30 21 1 8 22
M  V30 22 1 8 23
M  V30 23 1 9 24
M  V30 24 1 10 25
M  V30 25 1 10 26
M  V30 26 1 10 27
M  V30 27 1 11 28
M  V30 28 1 11 29
M  V30 29 1 11 30
M  V30 END BOND
M  V30 BEGIN COLLECTION
M  V30 MDLV30/STEABS ATOMS=(1 4)
M  V30 END COLLECTION
M  V30 END CTAB
M  END
>  <Structure No>
451

>  <LogS>
-3.587759138

>  <MMFF94 Energy>
8.6946

$$$$
Compound 452
Actelion Java MolfileCreator 2.0

  0  0  0  0  0  0              0 V3000
M  V30 BEGIN CTAB
M  V30 COUNTS 50 52 0 0 0
M  V30 BEGIN ATOM
M  V30 1 O -4.9224 1.8538 -1.7732 0
M  V30 2 C -4.8409 1.3844 -0.6054 0
M  V30 3 N -3.6417 0.7173 -0.1819 0
M  V30 4 C -5.9861 1.5492 0.3426 0
M  V30 5 C -2.393 1.422 -0.3289 0
M  V30 6 C -3.6618 -0.6913 0.2534 0
M  V30 7 C -6.912 0.3258 0.3623 0
M  V30 8 O -2.3483 2.6523 -0.054 0
M  V30 9 C -1.1589 0.7483 -0.7977 0
M  V30 10 C -4.8651 -1.0561 1.1412 0
M  V30 11 C -6.1961 -1.0393 0.3669 0
M  V30 12 C 0.0954 1.1604 -0.3141 0
M  V30 13 C -1.2186 -0.2634 -1.771 0
M  V30 14 C 1.2792 0.5502 -0.7667 0
M  V30 15 C -0.0481 -0.8737 -2.2246 0
M  V30 16 C 2.5964 1.0071 -0.261 0
M  V30 17 C 1.1933 -0.4723 -1.7293 0
M  V30 18 O 2.6985 2.1513 0.2604 0
M  V30 19 N 3.7711 0.1865 -0.381 0
M  V30 20 C 3.7906 -1.1531 0.157 0
M  V30 21 C 5.0086 0.7782 -0.908 0
M  V30 22 O 2.7761 -1.6196 0.745 0
M  V30 23 C 5.0431 -1.9867 0.0859 0
M  V30 24 C 6.0218 1.0933 0.2057 0
M  V30 25 C 6.234 -1.4001 0.8816 0
M  V30 26 C 6.0845 0.062 1.3471 0
M  V30 27 H -5.587 1.7411 1.3626 0
M  V30 28 H -6.5788 2.4466 0.061 0
M  V30 29 H -3.656 -1.3562 -0.6354 0
M  V30 30 H -2.7396 -0.9091 0.8356 0
M  V30 31 H -7.5832 0.3671 -0.5247 0
M  V30 32 H -7.5617 0.3992 1.2615 0
M  V30 33 H -4.7015 -2.092 1.5094 0
M  V30 34 H -4.9073 -0.4065 2.0406 0
M  V30 35 H -6.8843 -1.7848 0.822 0
M  V30 36 H -6.0293 -1.3707 -0.6818 0
M  V30 37 H 0.1467 1.9481 0.4275 0
M  V30 38 H -2.1633 -0.5572 -2.2062 0
M  V30 39 H -0.1039 -1.6491 -2.9769 0
M  V30 40 H 2.0867 -0.9456 -2.1168 0
M  V30 41 H 4.7843 1.7125 -1.4666 0
M  V30 42 H 5.4685 0.0924 -1.6491 0
M  V30 43 H 5.3309 -2.1031 -0.9806 0
M  V30 44 H 4.8276 -3.012 0.4552 0
M  V30 45 H 5.7658 2.0805 0.6487 0
M  V30 46 H 7.03 1.1917 -0.2513 0
M  V30 47 H 6.3806 -2.0226 1.7906 0
M  V30 48 H 7.1616 -1.4958 0.2766 0
M  V30 49 H 5.1903 0.1645 2.0004 0
M  V30 50 H 6.9602 0.3127 1.9851 0
M  V30 END ATOM
M  V30 BEGIN BOND
M  V30 1 2 1 2
M  V30 2 1 2 3
M  V30 3 1 2 4
M  V30 4 1 3 5
M  V30 5 1 3 6
M  V30 6 1 4 7
M  V30 7 2 5 8
M  V30 8 1 5 9
M  V30 9 1 6 10
M  V30 10 1 7 11
M  V30 11 2 9 12
M  V30 12 1 9 13
M  V30 13 1 12 14
M  V30 14 2 13 15
M  V30 15 1 14 16
M  V30 16 2 14 17
M  V30 17 2 16 18
M  V30 18 1 16 19
M  V30 19 1 19 20
M  V30 20 1 19 21
M  V30 21 2 20 22
M  V30 22 1 20 23
M  V30 23 1 21 24
M  V30 24 1 23 25
M  V30 25 1 24 26
M  V30 26 1 10 11
M  V30 27 1 15 17
M  V30 28 1 25 26
M  V30 29 1 4 27
M  V30 30 1 4 28
M  V30 31 1 6 29
M  V30 32 1 6 30
M  V30 33 1 7 31
M  V30 34 1 7 32
M  V30 35 1 10 33
M  V30 36 1 10 34
M  V30 37 1 11 35
M  V30 38 1 11 36
M  V30 39 1 12 37
M  V30 40 1 13 38
M  V30 41 1 15 39
M  V30 42 1 17 40
M  V30 43 1 21 41
M  V30 44 1 21 42
M  V30 45 1 23 43
M  V30 46 1 23 44
M  V30 47 1 24 45
M  V30 48 1 24 46
M  V30 49 1 25 47
M  V30 50 1 25 48
M  V30 51 1 26 49
M  V30 52 1 26 50
M  V30 END BOND
M  V30 END CTAB
M  END
>  <Structure No>
452

>  <LogS>
-3.958346195

>  <MMFF94 Energy>
2.4737

$$$$
Compound 453
Actelion Java MolfileCreator 2.0

  0  0  0  0  0  0              0 V3000
M  V30 BEGIN CTAB
M  V30 COUNTS 36 35 0 0 0
M  V30 BEGIN ATOM
M  V30 1 O 4.8978 -1.3197 1.0091 0
M  V30 2 C 4.2492 -0.2858 1.0644 0
M  V30 3 C 3.8829 0.4306 -0.2112 0
M  V30 4 C 3.843 0.2504 2.4052 0
M  V30 5 C 2.9112 -0.3929 -1.066 0
M  V30 6 C 1.559 -0.5395 -0.4064 0
M  V30 7 C 0.5393 -1.2325 -0.9588 0
M  V30 8 C -0.7788 -1.3235 -0.2206 0
M  V30 9 C 0.6917 -1.9264 -2.2917 0
M  V30 10 C -1.5549 -0.0052 -0.3222 0
M  V30 11 C -2.8795 -0.093 0.3969 0
M  V30 12 C -3.7557 0.9324 0.4545 0
M  V30 13 C -5.0505 0.7378 1.2001 0
M  V30 14 C -3.4646 2.2581 -0.208 0
M  V30 15 H 4.812 0.6117 -0.7934 0
M  V30 16 H 3.4339 1.4245 0.0048 0
M  V30 17 H 3.2553 1.1869 2.3061 0
M  V30 18 H 4.7488 0.4605 3.0115 0
M  V30 19 H 3.2198 -0.5027 2.9314 0
M  V30 20 H 2.7812 0.1236 -2.0412 0
M  V30 21 H 3.3479 -1.3964 -1.2602 0
M  V30 22 H 1.4015 -0.0625 0.5583 0
M  V30 23 H -0.5897 -1.5726 0.8472 0
M  V30 24 H -1.4002 -2.1435 -0.6418 0
M  V30 25 H 0.9588 -1.1873 -3.0758 0
M  V30 26 H -0.2517 -2.4222 -2.6015 0
M  V30 27 H 1.4842 -2.7011 -2.2276 0
M  V30 28 H -1.7354 0.2266 -1.3945 0
M  V30 29 H -0.9525 0.8136 0.127 0
M  V30 30 H -3.1381 -1.0269 0.8921 0
M  V30 31 H -5.681 1.6509 1.1739 0
M  V30 32 H -4.8385 0.4919 2.2623 0
M  V30 33 H -5.6255 -0.0949 0.7425 0
M  V30 34 H -3.3304 2.1148 -1.3007 0
M  V30 35 H -4.2943 2.9797 -0.0575 0
M  V30 36 H -2.5428 2.7029 0.2218 0
M  V30 END ATOM
M  V30 BEGIN BOND
M  V30 1 2 1 2
M  V30 2 1 2 3
M  V30 3 1 2 4
M  V30 4 1 3 5
M  V30 5 1 5 6
M  V30 6 2 6 7
M  V30 7 1 7 8
M  V30 8 1 7 9
M  V30 9 1 8 10
M  V30 10 1 10 11
M  V30 11 2 11 12
M  V30 12 1 12 13
M  V30 13 1 12 14
M  V30 14 1 3 15
M  V30 15 1 3 16
M  V30 16 1 4 17
M  V30 17 1 4 18
M  V30 18 1 4 19
M  V30 19 1 5 20
M  V30 20 1 5 21
M  V30 21 1 6 22
M  V30 22 1 8 23
M  V30 23 1 8 24
M  V30 24 1 9 25
M  V30 25 1 9 26
M  V30 26 1 9 27
M  V30 27 1 10 28
M  V30 28 1 10 29
M  V30 29 1 11 30
M  V30 30 1 13 31
M  V30 31 1 13 32
M  V30 32 1 13 33
M  V30 33 1 14 34
M  V30 34 1 14 35
M  V30 35 1 14 36
M  V30 END BOND
M  V30 END CTAB
M  END
>  <Structure No>
453

>  <LogS>
-3.697448425

>  <MMFF94 Energy>
25.125

$$$$
Compound 454
Actelion Java MolfileCreator 2.0

  0  0  0  0  0  0              0 V3000
M  V30 BEGIN CTAB
M  V30 COUNTS 27 26 0 0 0
M  V30 BEGIN ATOM
M  V30 1 O 1.3968 1.8627 0.6982 0
M  V30 2 C 1.1195 0.6323 0.721 0
M  V30 3 O 1.7996 -0.2698 -0.1048 0
M  V30 4 C 0.0247 0.1336 1.6128 0
M  V30 5 C 2.8475 0.1186 -0.9908 0
M  V30 6 C -1.3626 0.3906 1.0095 0
M  V30 7 C 4.0788 0.5042 -0.2216 0
M  V30 8 C -1.6266 -0.4796 -0.2315 0
M  V30 9 C 4.7211 -0.3763 0.5497 0
M  V30 10 C -2.991 -0.1889 -0.8755 0
M  V30 11 C -4.1626 -0.7021 -0.0384 0
M  V30 12 H 0.1614 -0.9527 1.8044 0
M  V30 13 H 0.0952 0.6559 2.5916 0
M  V30 14 H 2.5125 0.9691 -1.6231 0
M  V30 15 H 3.0868 -0.7327 -1.6623 0
M  V30 16 H -2.1182 0.1578 1.7893 0
M  V30 17 H -1.4629 1.4674 0.7485 0
M  V30 18 H 4.4563 1.5195 -0.2995 0
M  V30 19 H -1.5589 -1.5564 0.0384 0
M  V30 20 H -0.8436 -0.2738 -0.9929 0
M  V30 21 H 4.3667 -1.3986 0.6437 0
M  V30 22 H 5.61 -0.0747 1.0945 0
M  V30 23 H -3.0256 -0.6927 -1.8658 0
M  V30 24 H -3.1074 0.9028 -1.0504 0
M  V30 25 H -4.2514 -0.13 0.908 0
M  V30 26 H -5.1069 -0.5731 -0.6084 0
M  V30 27 H -4.0339 -1.7813 0.1909 0
M  V30 END ATOM
M  V30 BEGIN BOND
M  V30 1 2 1 2
M  V30 2 1 2 3
M  V30 3 1 2 4
M  V30 4 1 3 5
M  V30 5 1 4 6
M  V30 6 1 5 7
M  V30 7 1 6 8
M  V30 8 2 7 9
M  V30 9 1 8 10
M  V30 10 1 10 11
M  V30 11 1 4 12
M  V30 12 1 4 13
M  V30 13 1 5 14
M  V30 14 1 5 15
M  V30 15 1 6 16
M  V30 16 1 6 17
M  V30 17 1 7 18
M  V30 18 1 8 19
M  V30 19 1 8 20
M  V30 20 1 9 21
M  V30 21 1 9 22
M  V30 22 1 10 23
M  V30 23 1 10 24
M  V30 24 1 11 25
M  V30 25 1 11 26
M  V30 26 1 11 27
M  V30 END BOND
M  V30 END CTAB
M  END
>  <Structure No>
454

>  <LogS>
-2.610551759

>  <MMFF94 Energy>
-7.3861

$$$$
Compound 455
Actelion Java MolfileCreator 2.0

  0  0  0  0  0  0              0 V3000
M  V30 BEGIN CTAB
M  V30 COUNTS 18 18 0 0 0
M  V30 BEGIN ATOM
M  V30 1 O 3.6173 0.4105 0.0821 0
M  V30 2 N 2.8011 -0.5274 0.1969 0 CHG=1
M  V30 3 O 3.2865 -1.7846 0.4739 0 CHG=-1
M  V30 4 C 1.3831 -0.2817 0.0753 0
M  V30 5 C 0.4529 -1.3441 0.0285 0
M  V30 6 C 0.9074 1.0414 -0.0015 0
M  V30 7 O 0.8849 -2.6655 0.0836 0 CHG=-1
M  V30 8 C -0.9229 -1.0769 -0.0835 0
M  V30 9 C -0.4659 1.3159 -0.1156 0
M  V30 10 N -1.8733 -2.148 -0.1294 0
M  V30 11 C -1.3724 0.2469 -0.1543 0
M  V30 12 N -0.9402 2.6737 -0.1905 0 CHG=1
M  V30 13 O -0.14 3.6316 -0.1574 0
M  V30 14 O -2.286 2.9397 -0.3006 0 CHG=-1
M  V30 15 H 1.6101 1.8636 0.0341 0
M  V30 16 H -1.5725 -3.1463 -0.0786 0
M  V30 17 H -2.8954 -1.9503 -0.2144 0
M  V30 18 H -2.4343 0.439 -0.2412 0
M  V30 END ATOM
M  V30 BEGIN BOND
M  V30 1 2 1 2
M  V30 2 1 2 3
M  V30 3 1 2 4
M  V30 4 2 4 5
M  V30 5 1 4 6
M  V30 6 1 5 7
M  V30 7 1 5 8
M  V30 8 2 6 9
M  V30 9 1 8 10
M  V30 10 2 8 11
M  V30 11 1 9 12
M  V30 12 2 12 13
M  V30 13 1 12 14
M  V30 14 1 9 11
M  V30 15 1 6 15
M  V30 16 1 10 16
M  V30 17 1 10 17
M  V30 18 1 11 18
M  V30 END BOND
M  V30 END CTAB
M  END
>  <Structure No>
455

>  <LogS>
-1.764813003

>  <MMFF94 Energy>
63.08

$$$$
Compound 456
Actelion Java MolfileCreator 2.0

  0  0  0  0  0  0              0 V3000
M  V30 BEGIN CTAB
M  V30 COUNTS 23 23 0 0 0
M  V30 BEGIN ATOM
M  V30 1 Cl -3.0882 -2.1935 0.2435 0
M  V30 2 C -3.1607 -0.4641 0.6774 0
M  V30 3 C -2.8863 0.4309 -0.5373 0
M  V30 4 C -1.4365 0.3359 -1.0453 0
M  V30 5 C -0.4236 0.8499 -0.0489 0
M  V30 6 O -0.7256 1.8321 0.6839 0
M  V30 7 C 0.9369 0.2651 0.053 0
M  V30 8 C 1.6792 0.4208 1.2389 0
M  V30 9 C 1.5177 -0.4318 -1.0248 0
M  V30 10 C 2.9631 -0.1218 1.3492 0
M  V30 11 C 2.8025 -0.9717 -0.9091 0
M  V30 12 C 3.5237 -0.8192 0.2772 0
M  V30 13 F 4.7694 -1.3433 0.3859 0
M  V30 14 H -4.18 -0.2488 1.0621 0
M  V30 15 H -2.4362 -0.2585 1.4928 0
M  V30 16 H -3.5751 0.1405 -1.3601 0
M  V30 17 H -3.1214 1.4853 -0.2747 0
M  V30 18 H -1.3439 0.9363 -1.9753 0
M  V30 19 H -1.2217 -0.7216 -1.3057 0
M  V30 20 H 1.2623 0.953 2.0852 0
M  V30 21 H 0.9935 -0.5444 -1.9646 0
M  V30 22 H 3.5225 -8.0E-4 2.2681 0
M  V30 23 H 3.2404 -1.5041 -1.7435 0
M  V30 END ATOM
M  V30 BEGIN BOND
M  V30 1 1 1 2
M  V30 2 1 2 3
M  V30 3 1 3 4
M  V30 4 1 4 5
M  V30 5 2 5 6
M  V30 6 1 5 7
M  V30 7 2 7 8
M  V30 8 1 7 9
M  V30 9 1 8 10
M  V30 10 2 9 11
M  V30 11 2 10 12
M  V30 12 1 12 13
M  V30 13 1 11 12
M  V30 14 1 2 14
M  V30 15 1 2 15
M  V30 16 1 3 16
M  V30 17 1 3 17
M  V30 18 1 4 18
M  V30 19 1 4 19
M  V30 20 1 8 20
M  V30 21 1 9 21
M  V30 22 1 10 22
M  V30 23 1 11 23
M  V30 END BOND
M  V30 END CTAB
M  END
>  <Structure No>
456

>  <LogS>
-2.722633923

>  <MMFF94 Energy>
30.939

$$$$
Compound 457
Actelion Java MolfileCreator 2.0

  0  0  0  0  0  0              0 V3000
M  V30 BEGIN CTAB
M  V30 COUNTS 32 31 0 0 0
M  V30 BEGIN ATOM
M  V30 1 O -2.6636 0.2348 2.1932 0
M  V30 2 C -1.9572 -0.24 1.2624 0
M  V30 3 O -2.5346 -0.6193 0.0453 0
M  V30 4 C -0.4779 -0.3622 1.4415 0
M  V30 5 C -3.9199 -0.4514 -0.2565 0
M  V30 6 C 0.2274 0.8797 0.8952 0
M  V30 7 C -4.2187 1.0186 -0.5644 0
M  V30 8 C -4.275 -1.3308 -1.4536 0
M  V30 9 C 1.7083 0.7512 1.0562 0
M  V30 10 O 2.2675 1.2064 2.0912 0
M  V30 11 O 2.4488 0.0778 0.078 0
M  V30 12 C 3.8665 -0.0813 0.1323 0
M  V30 13 C 4.2765 -1.1905 -0.8341 0
M  V30 14 C 4.5611 1.2331 -0.2344 0
M  V30 15 H -0.1225 -1.2665 0.9011 0
M  V30 16 H -0.2426 -0.4873 2.5216 0
M  V30 17 H -4.537 -0.7799 0.6093 0
M  V30 18 H -0.0087 1.0038 -0.1842 0
M  V30 19 H -0.128 1.7855 1.4347 0
M  V30 20 H -3.5951 1.3702 -1.4141 0
M  V30 21 H -3.9981 1.6489 0.3221 0
M  V30 22 H -5.2915 1.1474 -0.8229 0
M  V30 23 H -5.3556 -1.237 -1.6948 0
M  V30 24 H -4.0596 -2.3937 -1.2142 0
M  V30 25 H -3.6763 -1.0377 -2.3426 0
M  V30 26 H 4.1722 -0.3861 1.1581 0
M  V30 27 H 3.7706 -2.1382 -0.5522 0
M  V30 28 H 3.9857 -0.9274 -1.8738 0
M  V30 29 H 5.3749 -1.3523 -0.7925 0
M  V30 30 H 4.2925 2.0255 0.4949 0
M  V30 31 H 4.2518 1.5641 -1.2488 0
M  V30 32 H 5.6643 1.1038 -0.2147 0
M  V30 END ATOM
M  V30 BEGIN BOND
M  V30 1 2 1 2
M  V30 2 1 2 3
M  V30 3 1 2 4
M  V30 4 1 3 5
M  V30 5 1 4 6
M  V30 6 1 5 7
M  V30 7 1 5 8
M  V30 8 1 6 9
M  V30 9 2 9 10
M  V30 10 1 9 11
M  V30 11 1 11 12
M  V30 12 1 12 13
M  V30 13 1 12 14
M  V30 14 1 4 15
M  V30 15 1 4 16
M  V30 16 1 5 17
M  V30 17 1 6 18
M  V30 18 1 6 19
M  V30 19 1 7 20
M  V30 20 1 7 21
M  V30 21 1 7 22
M  V30 22 1 8 23
M  V30 23 1 8 24
M  V30 24 1 8 25
M  V30 25 1 12 26
M  V30 26 1 13 27
M  V30 27 1 13 28
M  V30 28 1 13 29
M  V30 29 1 14 30
M  V30 30 1 14 31
M  V30 31 1 14 32
M  V30 END BOND
M  V30 END CTAB
M  END
>  <Structure No>
457

>  <LogS>
-1.729316846

>  <MMFF94 Energy>
-29.853

$$$$
Compound 458
Actelion Java MolfileCreator 2.0

  0  0  0  0  0  0              0 V3000
M  V30 BEGIN CTAB
M  V30 COUNTS 39 41 0 0 0
M  V30 BEGIN ATOM
M  V30 1 S 1.6635 -2.3295 0.8315 0
M  V30 2 O 0.6936 -2.5984 -0.2846 0
M  V30 3 O 0.9196 -2.1628 2.1265 0
M  V30 4 O 2.6882 -3.6551 0.964 0 CHG=-1
M  V30 5 C 2.5992 -0.8665 0.4813 0
M  V30 6 C 2.0102 0.3327 -0.0074 0
M  V30 7 C 3.9949 -0.9292 0.6328 0
M  V30 8 N 0.5956 0.5242 -0.1544 0
M  V30 9 C 2.8393 1.3942 -0.3915 0
M  V30 10 C 4.8077 0.1599 0.291 0
M  V30 11 N -0.2632 -0.0534 0.5834 0
M  V30 12 C 4.2237 1.3115 -0.2466 0
M  V30 13 C 6.2993 0.0585 0.4179 0
M  V30 14 C -1.6741 0.1445 0.4122 0
M  V30 15 C -2.4569 0.3791 1.5632 0
M  V30 16 C -2.2899 0.1109 -0.866 0
M  V30 17 O -1.8613 0.3581 2.8281 0
M  V30 18 C -3.8378 0.6533 1.4472 0
M  V30 19 C -3.672 0.4064 -0.9751 0
M  V30 20 C -1.5845 -0.2512 -2.0352 0
M  V30 21 C -4.6855 0.9209 2.6414 0
M  V30 22 C -4.4237 0.6824 0.1719 0
M  V30 23 C -4.2966 0.4017 -2.2336 0
M  V30 24 C -2.2212 -0.2569 -3.2785 0
M  V30 25 O -5.9126 1.174 2.5072 0
M  V30 26 O -4.1512 0.8979 3.9242 0 CHG=-1
M  V30 27 C -3.57 0.0786 -3.3791 0
M  V30 28 H 4.4582 -1.8329 1.0076 0
M  V30 29 H 2.404 2.302 -0.7916 0
M  V30 30 H 4.8397 2.15 -0.5478 0
M  V30 31 H 6.5756 -0.5903 1.2762 0
M  V30 32 H 6.7202 -0.3738 -0.5136 0
M  V30 33 H 6.7482 1.0604 0.5875 0
M  V30 34 H -0.8777 0.166 2.9733 0
M  V30 35 H -0.5512 -0.5622 -2.006 0
M  V30 36 H -5.4808 0.901 0.0689 0
M  V30 37 H -5.3501 0.637 -2.3298 0
M  V30 38 H -1.6676 -0.5323 -4.1669 0
M  V30 39 H -4.0583 0.0713 -4.3451 0
M  V30 END ATOM
M  V30 BEGIN BOND
M  V30 1 2 1 2
M  V30 2 2 1 3
M  V30 3 1 1 4
M  V30 4 1 1 5
M  V30 5 2 5 6
M  V30 6 1 5 7
M  V30 7 1 6 8
M  V30 8 1 6 9
M  V30 9 2 7 10
M  V30 10 2 8 11
M  V30 11 2 9 12
M  V30 12 1 10 13
M  V30 13 1 11 14
M  V30 14 2 14 15
M  V30 15 1 14 16
M  V30 16 1 15 17
M  V30 17 1 15 18
M  V30 18 1 16 19
M  V30 19 2 16 20
M  V30 20 1 18 21
M  V30 21 2 18 22
M  V30 22 2 19 23
M  V30 23 1 20 24
M  V30 24 2 21 25
M  V30 25 1 21 26
M  V30 26 1 23 27
M  V30 27 1 10 12
M  V30 28 1 19 22
M  V30 29 2 24 27
M  V30 30 1 7 28
M  V30 31 1 9 29
M  V30 32 1 12 30
M  V30 33 1 13 31
M  V30 34 1 13 32
M  V30 35 1 13 33
M  V30 36 1 17 34
M  V30 37 1 20 35
M  V30 38 1 22 36
M  V30 39 1 23 37
M  V30 40 1 24 38
M  V30 41 1 27 39
M  V30 END BOND
M  V30 END CTAB
M  END
>  <Structure No>
458

>  <LogS>
-4.105730153

>  <MMFF94 Energy>
147.85

$$$$
Compound 459
Actelion Java MolfileCreator 2.0

  0  0  0  0  0  0              0 V3000
M  V30 BEGIN CTAB
M  V30 COUNTS 45 47 0 0 0
M  V30 BEGIN ATOM
M  V30 1 O 1.9091 -1.8295 -3.3427 0
M  V30 2 C 0.7109 -1.6778 -2.9877 0
M  V30 3 C 0.34 -0.8857 -1.783 0
M  V30 4 C -0.3437 -2.367 -3.7468 0
M  V30 5 N 1.1719 -0.1078 -1.1446 0
M  V30 6 C -1.0562 -1.0152 -1.2818 0
M  V30 7 C -1.604 -2.3943 -3.3077 0
M  V30 8 N 2.4774 0.221 -1.5506 0
M  V30 9 C -1.9958 -1.7431 -2.0375 0
M  V30 10 C -1.4586 -0.4086 -0.0749 0
M  V30 11 C 3.4064 0.7994 -0.6215 0
M  V30 12 C -3.3121 -1.8529 -1.5855 0
M  V30 13 C -2.7941 -0.5115 0.4019 0
M  V30 14 C 3.0967 0.9023 0.7467 0
M  V30 15 C 4.6493 1.2646 -1.0781 0
M  V30 16 C -3.7052 -1.2509 -0.3914 0
M  V30 17 N -3.2493 0.1114 1.6629 0 CHG=1
M  V30 18 C 4.0149 1.4654 1.6382 0
M  V30 19 C 5.5658 1.8289 -0.1856 0
M  V30 20 C -2.1759 0.85 2.3792 0
M  V30 21 C -3.7546 -0.9396 2.5801 0
M  V30 22 C -4.3369 1.078 1.3722 0
M  V30 23 C 5.2528 1.9323 1.1764 0
M  V30 24 N 6.1907 2.5084 2.0892 0
M  V30 25 H -0.0895 -2.8804 -4.6659 0
M  V30 26 H -2.3484 -2.9247 -3.8895 0
M  V30 27 H 2.7335 0.213 -2.562 0
M  V30 28 H -0.7118 0.1383 0.4776 0
M  V30 29 H -4.043 -2.4092 -2.16 0
M  V30 30 H 2.1487 0.5466 1.1292 0
M  V30 31 H 4.9083 1.1908 -2.1267 0
M  V30 32 H -4.7366 -1.3701 -0.0914 0
M  V30 33 H 3.7617 1.5374 2.6886 0
M  V30 34 H 6.5194 2.1843 -0.5553 0
M  V30 35 H -1.7791 1.6853 1.7594 0
M  V30 36 H -2.5561 1.3038 3.3226 0
M  V30 37 H -1.3412 0.1711 2.6643 0
M  V30 38 H -4.055 -0.5089 3.562 0
M  V30 39 H -4.6515 -1.4524 2.1719 0
M  V30 40 H -2.9724 -1.7097 2.7655 0
M  V30 41 H -3.9976 1.8438 0.639 0
M  V30 42 H -4.6659 1.6061 2.2957 0
M  V30 43 H -5.2374 0.5787 0.9551 0
M  V30 44 H 7.1144 2.8622 1.7541 0
M  V30 45 H 5.9689 2.5834 3.1072 0
M  V30 END ATOM
M  V30 BEGIN BOND
M  V30 1 2 1 2
M  V30 2 1 2 3
M  V30 3 1 2 4
M  V30 4 2 3 5
M  V30 5 1 3 6
M  V30 6 2 4 7
M  V30 7 1 5 8
M  V30 8 2 6 9
M  V30 9 1 6 10
M  V30 10 1 8 11
M  V30 11 1 9 12
M  V30 12 2 10 13
M  V30 13 2 11 14
M  V30 14 1 11 15
M  V30 15 2 12 16
M  V30 16 1 13 17
M  V30 17 1 14 18
M  V30 18 2 15 19
M  V30 19 1 17 20
M  V30 20 1 17 21
M  V30 21 1 17 22
M  V30 22 2 18 23
M  V30 23 1 23 24
M  V30 24 1 7 9
M  V30 25 1 13 16
M  V30 26 1 19 23
M  V30 27 1 4 25
M  V30 28 1 7 26
M  V30 29 1 8 27
M  V30 30 1 10 28
M  V30 31 1 12 29
M  V30 32 1 14 30
M  V30 33 1 15 31
M  V30 34 1 16 32
M  V30 35 1 18 33
M  V30 36 1 19 34
M  V30 37 1 20 35
M  V30 38 1 20 36
M  V30 39 1 20 37
M  V30 40 1 21 38
M  V30 41 1 21 39
M  V30 42 1 21 40
M  V30 43 1 22 41
M  V30 44 1 22 42
M  V30 45 1 22 43
M  V30 46 1 24 44
M  V30 47 1 24 45
M  V30 END BOND
M  V30 END CTAB
M  END
>  <Structure No>
459

>  <LogS>
-1.980785388

>  <MMFF94 Energy>
101.9

$$$$
Compound 460
Actelion Java MolfileCreator 2.0

  0  0  0  0  0  0              0 V3000
M  V30 BEGIN CTAB
M  V30 COUNTS 9 8 0 0 0
M  V30 BEGIN ATOM
M  V30 1 F -0.9775 -1.6295 -0.2443 0
M  V30 2 C -1.0687 -0.2704 -0.008 0
M  V30 3 F -2.0834 0.2559 -0.7884 0
M  V30 4 F -1.3692 -0.0588 1.3246 0
M  V30 5 C 0.239 0.3821 -0.335 0
M  V30 6 O 0.2969 1.2791 -1.2184 0
M  V30 7 N 1.4272 -0.0083 0.3528 0
M  V30 8 H 1.3974 -0.7496 1.0877 0
M  V30 9 H 2.3404 0.4449 0.1271 0
M  V30 END ATOM
M  V30 BEGIN BOND
M  V30 1 1 1 2
M  V30 2 1 2 3
M  V30 3 1 2 4
M  V30 4 1 2 5
M  V30 5 2 5 6
M  V30 6 1 5 7
M  V30 7 1 7 8
M  V30 8 1 7 9
M  V30 END BOND
M  V30 END CTAB
M  END
>  <Structure No>
460

>  <LogS>
-1.485022741

>  <MMFF94 Energy>
74.255

$$$$
Compound 461
Actelion Java MolfileCreator 2.0

  0  0  0  0  0  0              0 V3000
M  V30 BEGIN CTAB
M  V30 COUNTS 32 32 0 0 0
M  V30 BEGIN ATOM
M  V30 1 O 4.5083 0.7107 0.3158 0
M  V30 2 C 3.3139 0.4684 0.2352 0
M  V30 3 C 2.4493 1.24 -0.7176 0
M  V30 4 C 2.7032 -0.5964 1.0994 0
M  V30 5 C 1.4076 0.3022 -1.3403 0
M  V30 6 C 1.1763 -0.4559 1.1344 0
M  V30 7 C 0.5317 -0.468 -0.2876 0
M  V30 8 C -1.0033 -0.064 -0.2866 0
M  V30 9 C -1.7498 -0.8567 0.8436 0
M  V30 10 C -1.1793 1.4583 -0.0487 0
M  V30 11 C -1.6311 -0.4385 -1.6571 0
M  V30 12 C -3.2825 -0.7707 0.836 0
M  V30 13 H 3.0723 1.6847 -1.5241 0
M  V30 14 H 1.9419 2.0641 -0.1715 0
M  V30 15 H 3.0966 -0.5034 2.135 0
M  V30 16 H 2.9845 -1.5956 0.7028 0
M  V30 17 H 0.8091 0.8974 -2.0539 0
M  V30 18 H 1.9522 -0.4434 -1.9619 0
M  V30 19 H 0.7782 -1.298 1.7402 0
M  V30 20 H 0.928 0.4874 1.6645 0
M  V30 21 H 0.5636 -1.5371 -0.6015 0
M  V30 22 H -1.4773 -1.9333 0.7798 0
M  V30 23 H -1.4164 -0.4921 1.8393 0
M  V30 24 H -2.2431 1.7575 -0.1428 0
M  V30 25 H -0.6206 2.0619 -0.7906 0
M  V30 26 H -0.8358 1.7508 0.9645 0
M  V30 27 H -1.108 0.0314 -2.5109 0
M  V30 28 H -1.6094 -1.5394 -1.8065 0
M  V30 29 H -2.6845 -0.0951 -1.7249 0
M  V30 30 H -3.6782 -1.2803 1.74 0
M  V30 31 H -3.7069 -1.2902 -0.0476 0
M  V30 32 H -3.6321 0.2805 0.8613 0
M  V30 END ATOM
M  V30 BEGIN BOND
M  V30 1 2 1 2
M  V30 2 1 2 3
M  V30 3 1 2 4
M  V30 4 1 3 5
M  V30 5 1 4 6
M  V30 6 1 5 7
M  V30 7 1 7 8
M  V30 8 1 8 9
M  V30 9 1 8 10
M  V30 10 1 8 11
M  V30 11 1 9 12
M  V30 12 1 6 7
M  V30 13 1 3 13
M  V30 14 1 3 14
M  V30 15 1 4 15
M  V30 16 1 4 16
M  V30 17 1 5 17
M  V30 18 1 5 18
M  V30 19 1 6 19
M  V30 20 1 6 20
M  V30 21 1 7 21
M  V30 22 1 9 22
M  V30 23 1 9 23
M  V30 24 1 10 24
M  V30 25 1 10 25
M  V30 26 1 10 26
M  V30 27 1 11 27
M  V30 28 1 11 28
M  V30 29 1 11 29
M  V30 30 1 12 30
M  V30 31 1 12 31
M  V30 32 1 12 32
M  V30 END BOND
M  V30 END CTAB
M  END
>  <Structure No>
461

>  <LogS>
-2.656892778

>  <MMFF94 Energy>
29.426

$$$$
Compound 462
Actelion Java MolfileCreator 2.0

  0  0  0  0  0  0              0 V3000
M  V30 BEGIN CTAB
M  V30 COUNTS 23 23 0 0 0
M  V30 BEGIN ATOM
M  V30 1 S 2.65 -0.662 -0.3309 0
M  V30 2 O 2.7638 -2.1585 -0.2508 0
M  V30 3 O 3.3059 -0.1958 -1.6004 0
M  V30 4 C 0.953 -0.1925 -0.3264 0
M  V30 5 C 3.4691 0.0734 1.0653 0
M  V30 6 C 0.0185 -0.9434 0.3954 0
M  V30 7 C 0.5385 0.9511 -1.0134 0
M  V30 8 C -1.3369 -0.57 0.4311 0
M  V30 9 C -0.8043 1.3285 -1.0031 0
M  V30 10 N -2.2566 -1.3612 1.2071 0 CHG=1
M  V30 11 C -1.758 0.5702 -0.3028 0
M  V30 12 O -3.2081 -0.8262 1.8123 0
M  V30 13 O -1.9966 -2.6934 1.4335 0 CHG=-1
M  V30 14 C -3.2013 0.9954 -0.3571 0
M  V30 15 H 2.99 -0.2765 2.0028 0
M  V30 16 H 3.3898 1.1783 1.0019 0
M  V30 17 H 4.539 -0.2201 1.066 0
M  V30 18 H 0.3527 -1.8104 0.9511 0
M  V30 19 H 1.2541 1.5521 -1.5597 0
M  V30 20 H -1.1013 2.2134 -1.5527 0
M  V30 21 H -3.3815 1.7146 -1.1844 0
M  V30 22 H -3.8551 0.1162 -0.5364 0
M  V30 23 H -3.4835 1.4864 0.5975 0
M  V30 END ATOM
M  V30 BEGIN BOND
M  V30 1 2 1 2
M  V30 2 2 1 3
M  V30 3 1 1 4
M  V30 4 1 1 5
M  V30 5 2 4 6
M  V30 6 1 4 7
M  V30 7 1 6 8
M  V30 8 2 7 9
M  V30 9 1 8 10
M  V30 10 2 8 11
M  V30 11 2 10 12
M  V30 12 1 10 13
M  V30 13 1 11 14
M  V30 14 1 9 11
M  V30 15 1 5 15
M  V30 16 1 5 16
M  V30 17 1 5 17
M  V30 18 1 6 18
M  V30 19 1 7 19
M  V30 20 1 9 20
M  V30 21 1 14 21
M  V30 22 1 14 22
M  V30 23 1 14 23
M  V30 END BOND
M  V30 END CTAB
M  END
>  <Structure No>
462

>  <LogS>
-2.764701082

>  <MMFF94 Energy>
72.675

$$$$
Compound 463
Actelion Java MolfileCreator 2.0

  0  0  0  0  0  0              0 V3000
M  V30 BEGIN CTAB
M  V30 COUNTS 28 27 0 0 0
M  V30 BEGIN ATOM
M  V30 1 O 3.8996 1.3245 0.5452 0
M  V30 2 C 3.8374 0.1266 0.1586 0
M  V30 3 O 4.9983 -0.6094 -0.0888 0
M  V30 4 C 2.5563 -0.4906 -0.0301 0
M  V30 5 C 6.3011 -0.0627 0.0768 0
M  V30 6 C 1.479 -1.008 -0.1882 0
M  V30 7 C 0.165 -1.6353 -0.3796 0
M  V30 8 C -0.9194 -0.5906 -0.6711 0
M  V30 9 C -1.2481 0.264 0.5656 0
M  V30 10 C -2.2204 1.4166 0.2554 0
M  V30 11 C -3.6157 0.976 -0.2218 0
M  V30 12 C -4.3718 0.1524 0.8199 0
M  V30 13 H 7.0556 -0.8347 -0.1782 0
M  V30 14 H 6.4361 0.8093 -0.5976 0
M  V30 15 H 6.4502 0.2518 1.1315 0
M  V30 16 H 0.2352 -2.3355 -1.2388 0
M  V30 17 H -0.0986 -2.2232 0.5253 0
M  V30 18 H -1.8326 -1.1351 -0.9913 0
M  V30 19 H -0.5955 0.0609 -1.5129 0
M  V30 20 H -0.3108 0.7171 0.9549 0
M  V30 21 H -1.6571 -0.3783 1.3738 0
M  V30 22 H -2.3346 2.0386 1.1701 0
M  V30 23 H -1.7689 2.0686 -0.5236 0
M  V30 24 H -3.5439 0.4059 -1.1714 0
M  V30 25 H -4.2097 1.8904 -0.4379 0
M  V30 26 H -5.4197 0.0047 0.4837 0
M  V30 27 H -3.9063 -0.8475 0.9413 0
M  V30 28 H -4.3849 0.6788 1.798 0
M  V30 END ATOM
M  V30 BEGIN BOND
M  V30 1 2 1 2
M  V30 2 1 2 3
M  V30 3 1 2 4
M  V30 4 1 3 5
M  V30 5 3 4 6
M  V30 6 1 6 7
M  V30 7 1 7 8
M  V30 8 1 8 9
M  V30 9 1 9 10
M  V30 10 1 10 11
M  V30 11 1 11 12
M  V30 12 1 5 13
M  V30 13 1 5 14
M  V30 14 1 5 15
M  V30 15 1 7 16
M  V30 16 1 7 17
M  V30 17 1 8 18
M  V30 18 1 8 19
M  V30 19 1 9 20
M  V30 20 1 9 21
M  V30 21 1 10 22
M  V30 22 1 10 23
M  V30 23 1 11 24
M  V30 24 1 11 25
M  V30 25 1 12 26
M  V30 26 1 12 27
M  V30 27 1 12 28
M  V30 END BOND
M  V30 END CTAB
M  END
>  <Structure No>
463

>  <LogS>
-3.651887666

>  <MMFF94 Energy>
-3.7864

$$$$
Compound 464
Actelion Java MolfileCreator 2.0

  0  0  0  0  0  0              0 V3000
M  V30 BEGIN CTAB
M  V30 COUNTS 33 32 0 0 0
M  V30 BEGIN ATOM
M  V30 1 O -2.8622 -0.6956 2.7073 0
M  V30 2 C -2.6343 -0.0895 1.4642 0
M  V30 3 C -2.7495 -1.1279 0.3418 0
M  V30 4 C -2.6889 -0.5046 -1.0646 0
M  V30 5 C -1.3747 0.2271 -1.3913 0
M  V30 6 C -0.1485 -0.7005 -1.3496 0
M  V30 7 C 1.1118 -0.0483 -1.9449 0
M  V30 8 C 1.5765 1.2392 -1.2338 0
M  V30 9 C 1.8382 1.0935 0.276 0
M  V30 10 C 2.9458 0.0793 0.5943 0
M  V30 11 C 3.275 0.0755 2.0844 0
M  V30 12 H -3.8448 -0.8116 2.7919 0
M  V30 13 H -3.3583 0.7418 1.3019 0
M  V30 14 H -1.6112 0.3396 1.4746 0
M  V30 15 H -1.9597 -1.8993 0.4603 0
M  V30 16 H -3.7274 -1.6481 0.4398 0
M  V30 17 H -3.5308 0.2131 -1.176 0
M  V30 18 H -2.8492 -1.309 -1.8153 0
M  V30 19 H -1.4701 0.6523 -2.4143 0
M  V30 20 H -1.238 1.0797 -0.6944 0
M  V30 21 H -0.3681 -1.6158 -1.9414 0
M  V30 22 H 0.0563 -1.0252 -0.3088 0
M  V30 23 H 1.9371 -0.7917 -1.9379 0
M  V30 24 H 0.9185 0.193 -3.0129 0
M  V30 25 H 2.5095 1.592 -1.7251 0
M  V30 26 H 0.8202 2.038 -1.3894 0
M  V30 27 H 2.1435 2.0908 0.6623 0
M  V30 28 H 0.9022 0.8153 0.8048 0
M  V30 29 H 2.6199 -0.9426 0.3068 0
M  V30 30 H 3.865 0.3334 0.023 0
M  V30 31 H 2.3741 -0.1916 2.6772 0
M  V30 32 H 3.6405 1.0752 2.4022 0
M  V30 33 H 4.0693 -0.6732 2.2878 0
M  V30 END ATOM
M  V30 BEGIN BOND
M  V30 1 1 1 2
M  V30 2 1 2 3
M  V30 3 1 3 4
M  V30 4 1 4 5
M  V30 5 1 5 6
M  V30 6 1 6 7
M  V30 7 1 7 8
M  V30 8 1 8 9
M  V30 9 1 9 10
M  V30 10 1 10 11
M  V30 11 1 1 12
M  V30 12 1 2 13
M  V30 13 1 2 14
M  V30 14 1 3 15
M  V30 15 1 3 16
M  V30 16 1 4 17
M  V30 17 1 4 18
M  V30 18 1 5 19
M  V30 19 1 5 20
M  V30 20 1 6 21
M  V30 21 1 6 22
M  V30 22 1 7 23
M  V30 23 1 7 24
M  V30 24 1 8 25
M  V30 25 1 8 26
M  V30 26 1 9 27
M  V30 27 1 9 28
M  V30 28 1 10 29
M  V30 29 1 10 30
M  V30 30 1 11 31
M  V30 31 1 11 32
M  V30 32 1 11 33
M  V30 END BOND
M  V30 END CTAB
M  END
>  <Structure No>
464

>  <LogS>
-3.631238037

>  <MMFF94 Energy>
-2.3765

$$$$
Compound 465
Actelion Java MolfileCreator 2.0

  0  0  0  0  0  0              0 V3000
M  V30 BEGIN CTAB
M  V30 COUNTS 20 20 0 0 0
M  V30 BEGIN ATOM
M  V30 1 Cl 1.2872 -1.1262 2.6563 0
M  V30 2 C 0.5785 -0.5105 1.1707 0
M  V30 3 C 1.3785 0.1392 0.218 0
M  V30 4 C -0.7936 -0.6757 0.9489 0
M  V30 5 O 2.7509 0.2866 0.4749 0
M  V30 6 C 0.7819 0.6216 -0.9622 0
M  V30 7 C -1.3867 -0.1922 -0.2321 0
M  V30 8 C 3.6716 0.9236 -0.4048 0
M  V30 9 C -0.5882 0.4549 -1.1803 0
M  V30 10 O -2.7567 -0.3336 -0.4995 0
M  V30 11 C -3.6852 -0.9686 0.3736 0
M  V30 12 H -1.387 -1.18 1.6996 0
M  V30 13 H 1.3674 1.127 -1.7179 0
M  V30 14 H 4.6836 0.8973 0.0487 0
M  V30 15 H 3.3796 1.9837 -0.561 0
M  V30 16 H 3.7038 0.3879 -1.377 0
M  V30 17 H -1.0329 0.8312 -2.0929 0
M  V30 18 H -3.7216 -0.4341 1.3463 0
M  V30 19 H -4.6942 -0.9384 -0.0861 0
M  V30 20 H -3.3976 -2.0296 0.5305 0
M  V30 END ATOM
M  V30 BEGIN BOND
M  V30 1 1 1 2
M  V30 2 2 2 3
M  V30 3 1 2 4
M  V30 4 1 3 5
M  V30 5 1 3 6
M  V30 6 2 4 7
M  V30 7 1 5 8
M  V30 8 2 6 9
M  V30 9 1 7 10
M  V30 10 1 10 11
M  V30 11 1 7 9
M  V30 12 1 4 12
M  V30 13 1 6 13
M  V30 14 1 8 14
M  V30 15 1 8 15
M  V30 16 1 8 16
M  V30 17 1 9 17
M  V30 18 1 11 18
M  V30 19 1 11 19
M  V30 20 1 11 20
M  V30 END BOND
M  V30 END CTAB
M  END
>  <Structure No>
465

>  <LogS>
-2.672402404

>  <MMFF94 Energy>
33.81

$$$$
Compound 466
Actelion Java MolfileCreator 2.0

  0  0  0  0  0  0              0 V3000
M  V30 BEGIN CTAB
M  V30 COUNTS 26 27 0 0 0
M  V30 BEGIN ATOM
M  V30 1 O 2.0601 0.2375 1.0296 0
M  V30 2 C 0.6718 0.3789 0.8854 0
M  V30 3 C 2.8861 -0.5401 0.1671 0
M  V30 4 C -0.0477 -0.25 -0.1494 0
M  V30 5 C -0.0115 1.177 1.8101 0
M  V30 6 C 4.3339 -0.4542 0.638 0
M  V30 7 C -1.4371 -0.0782 -0.2524 0
M  V30 8 C -1.3942 1.3544 1.7165 0
M  V30 9 O 5.1585 -1.2414 -0.1771 0
M  V30 10 C -2.1165 0.7317 0.6895 0
M  V30 11 C -2.1614 -0.7017 -1.2809 0
M  V30 12 C -3.5058 0.9028 0.5855 0
M  V30 13 C -3.5448 -0.5232 -1.3733 0
M  V30 14 C -4.2147 0.2762 -0.4433 0
M  V30 15 H 2.8135 -0.1499 -0.8713 0
M  V30 16 H 2.5562 -1.6016 0.1896 0
M  V30 17 H 0.4647 -0.8706 -0.8731 0
M  V30 18 H 0.5345 1.6637 2.6083 0
M  V30 19 H 4.6764 0.6058 0.6303 0
M  V30 20 H 4.4019 -0.8301 1.6809 0
M  V30 21 H -1.8976 1.9776 2.446 0
M  V30 22 H 5.2906 -0.7351 -1.0209 0
M  V30 23 H -1.6593 -1.3252 -2.0111 0
M  V30 24 H -4.0417 1.5192 1.2978 0
M  V30 25 H -4.0991 -1.0057 -2.1678 0
M  V30 26 H -5.286 0.4106 -0.5201 0
M  V30 END ATOM
M  V30 BEGIN BOND
M  V30 1 1 1 2
M  V30 2 1 1 3
M  V30 3 2 2 4
M  V30 4 1 2 5
M  V30 5 1 3 6
M  V30 6 1 4 7
M  V30 7 2 5 8
M  V30 8 1 6 9
M  V30 9 1 7 10
M  V30 10 2 7 11
M  V30 11 2 10 12
M  V30 12 1 11 13
M  V30 13 1 12 14
M  V30 14 1 8 10
M  V30 15 2 13 14
M  V30 16 1 3 15
M  V30 17 1 3 16
M  V30 18 1 4 17
M  V30 19 1 5 18
M  V30 20 1 6 19
M  V30 21 1 6 20
M  V30 22 1 8 21
M  V30 23 1 9 22
M  V30 24 1 11 23
M  V30 25 1 12 24
M  V30 26 1 13 25
M  V30 27 1 14 26
M  V30 END BOND
M  V30 END CTAB
M  END
>  <Structure No>
466

>  <LogS>
-2.71429469

>  <MMFF94 Energy>
50.072

$$$$
Compound 467
Actelion Java MolfileCreator 2.0

  0  0  0  0  0  0              0 V3000
M  V30 BEGIN CTAB
M  V30 COUNTS 25 25 0 0 0
M  V30 BEGIN ATOM
M  V30 1 O 0.3123 -0.6248 0.2342 0
M  V30 2 C 1.6959 -0.4273 0.1153 0
M  V30 3 C -0.6724 0.3457 -0.1118 0
M  V30 4 C 2.552 -1.47 0.4934 0
M  V30 5 C 2.2496 0.7754 -0.3679 0
M  V30 6 C -2.0629 -0.2273 0.1529 0
M  V30 7 C 3.9387 -1.3206 0.3931 0
M  V30 8 C 3.6372 0.9209 -0.4668 0
M  V30 9 C -3.1561 0.7853 -0.2062 0
M  V30 10 C 4.481 -0.1259 -0.0866 0
M  V30 11 C -4.5456 0.2131 0.0583 0
M  V30 12 H -0.5245 1.2601 0.5037 0
M  V30 13 H -0.5763 0.6035 -1.1895 0
M  V30 14 H 2.1399 -2.3991 0.8664 0
M  V30 15 H 1.6187 1.6007 -0.6686 0
M  V30 16 H -2.1959 -1.15 -0.4536 0
M  V30 17 H -2.1443 -0.4976 1.2288 0
M  V30 18 H 4.5925 -2.1314 0.6876 0
M  V30 19 H 4.0586 1.8461 -0.8384 0
M  V30 20 H -3.0262 1.7085 0.4 0
M  V30 21 H -3.0777 1.0564 -1.2818 0
M  V30 22 H 5.5545 -0.0111 -0.1639 0
M  V30 23 H -4.6594 -0.0429 1.1333 0
M  V30 24 H -4.7111 -0.6978 -0.5555 0
M  V30 25 H -5.3155 0.9669 -0.2103 0
M  V30 END ATOM
M  V30 BEGIN BOND
M  V30 1 1 1 2
M  V30 2 1 1 3
M  V30 3 2 2 4
M  V30 4 1 2 5
M  V30 5 1 3 6
M  V30 6 1 4 7
M  V30 7 2 5 8
M  V30 8 1 6 9
M  V30 9 2 7 10
M  V30 10 1 9 11
M  V30 11 1 8 10
M  V30 12 1 3 12
M  V30 13 1 3 13
M  V30 14 1 4 14
M  V30 15 1 5 15
M  V30 16 1 6 16
M  V30 17 1 6 17
M  V30 18 1 7 18
M  V30 19 1 8 19
M  V30 20 1 9 20
M  V30 21 1 9 21
M  V30 22 1 10 22
M  V30 23 1 11 23
M  V30 24 1 11 24
M  V30 25 1 11 25
M  V30 END BOND
M  V30 END CTAB
M  END
>  <Structure No>
467

>  <LogS>
-3.613249563

>  <MMFF94 Energy>
19.493

$$$$
Compound 468
Actelion Java MolfileCreator 2.0

  0  0  0  0  0  0              0 V3000
M  V30 BEGIN CTAB
M  V30 COUNTS 41 42 0 0 0
M  V30 BEGIN ATOM
M  V30 1 O 2.6321 0.0796 -2.8717 0
M  V30 2 C 2.7759 0.3001 -1.6369 0
M  V30 3 O 1.9283 1.2006 -0.9832 0
M  V30 4 C 3.8349 -0.3971 -0.8747 0
M  V30 5 C 0.8757 1.8921 -1.6477 0
M  V30 6 C 3.9791 -0.173 0.5069 0
M  V30 7 C 4.7095 -1.295 -1.5155 0
M  V30 8 C 0.1155 2.7504 -0.646 0
M  V30 9 C 4.9759 -0.8351 1.2307 0
M  V30 10 C 5.7042 -1.9546 -0.7866 0
M  V30 11 O -0.4104 1.9209 0.3678 0
M  V30 12 C 5.836 -1.7262 0.585 0
M  V30 13 C -1.1296 2.7037 1.2957 0
M  V30 14 C -1.7103 1.8038 2.3845 0
M  V30 15 O -2.6895 0.9192 1.8406 0
M  V30 16 C -2.3778 -0.291 1.2065 0
M  V30 17 O -1.1873 -0.7099 1.1896 0
M  V30 18 C -3.4505 -1.0816 0.564 0
M  V30 19 C -4.7807 -0.6242 0.5871 0
M  V30 20 C -3.1586 -2.2976 -0.0825 0
M  V30 21 C -5.7955 -1.3695 -0.0212 0
M  V30 22 C -4.1775 -3.0389 -0.6891 0
M  V30 23 C -5.4944 -2.5752 -0.6585 0
M  V30 24 H 1.2994 2.5417 -2.4438 0
M  V30 25 H 0.1778 1.1598 -2.1102 0
M  V30 26 H 3.3219 0.5105 1.0297 0
M  V30 27 H 4.6251 -1.4888 -2.5772 0
M  V30 28 H -0.7011 3.2781 -1.1904 0
M  V30 29 H 0.8194 3.5008 -0.2184 0
M  V30 30 H 5.0792 -0.6586 2.2936 0
M  V30 31 H 6.3712 -2.6461 -1.2853 0
M  V30 32 H 6.6038 -2.2409 1.148 0
M  V30 33 H -1.9702 3.2398 0.7977 0
M  V30 34 H -0.4575 3.446 1.7839 0
M  V30 35 H -2.2035 2.4455 3.1454 0
M  V30 36 H -0.9031 1.2353 2.8952 0
M  V30 37 H -5.0385 0.3077 1.0742 0
M  V30 38 H -2.144 -2.6753 -0.1201 0
M  V30 39 H -6.8171 -1.0121 0.0017 0
M  V30 40 H -3.9453 -3.9727 -1.1846 0
M  V30 41 H -6.2817 -3.1486 -1.1311 0
M  V30 END ATOM
M  V30 BEGIN BOND
M  V30 1 2 1 2
M  V30 2 1 2 3
M  V30 3 1 2 4
M  V30 4 1 3 5
M  V30 5 2 4 6
M  V30 6 1 4 7
M  V30 7 1 5 8
M  V30 8 1 6 9
M  V30 9 2 7 10
M  V30 10 1 8 11
M  V30 11 2 9 12
M  V30 12 1 11 13
M  V30 13 1 13 14
M  V30 14 1 14 15
M  V30 15 1 15 16
M  V30 16 2 16 17
M  V30 17 1 16 18
M  V30 18 2 18 19
M  V30 19 1 18 20
M  V30 20 1 19 21
M  V30 21 2 20 22
M  V30 22 2 21 23
M  V30 23 1 10 12
M  V30 24 1 22 23
M  V30 25 1 5 24
M  V30 26 1 5 25
M  V30 27 1 6 26
M  V30 28 1 7 27
M  V30 29 1 8 28
M  V30 30 1 8 29
M  V30 31 1 9 30
M  V30 32 1 10 31
M  V30 33 1 12 32
M  V30 34 1 13 33
M  V30 35 1 13 34
M  V30 36 1 14 35
M  V30 37 1 14 36
M  V30 38 1 19 37
M  V30 39 1 20 38
M  V30 40 1 21 39
M  V30 41 1 22 40
M  V30 42 1 23 41
M  V30 END BOND
M  V30 END CTAB
M  END
>  <Structure No>
468

>  <LogS>
-3.937488879

>  <MMFF94 Energy>
87.592

$$$$
Compound 469
Actelion Java MolfileCreator 2.0

  0  0  0  0  0  0              0 V3000
M  V30 BEGIN CTAB
M  V30 COUNTS 69 68 0 0 0
M  V30 BEGIN ATOM
M  V30 1 N -5.7349 1.083 -1.3925 0 CHG=1
M  V30 2 C -6.6541 0.8401 -0.2682 0
M  V30 3 C -4.4863 1.748 -0.9528 0
M  V30 4 C -7.9312 0.1383 -0.7498 0
M  V30 5 C -3.2508 0.8309 -1.0548 0
M  V30 6 C -8.9089 -0.0899 0.4105 0
M  V30 7 C -3.2489 -0.3444 -0.0585 0
M  V30 8 N -10.1235 -0.76 -0.0532 0 CHG=1
M  V30 9 C -3.1503 0.0634 1.4263 0
M  V30 10 C -1.9215 0.92 1.7957 0
M  V30 11 C -0.5626 0.3204 1.3912 0
M  V30 12 C -0.2593 -1.0071 2.1053 0
M  V30 13 C 1.1306 -1.5483 1.7462 0
M  V30 14 C 1.1745 -2.0318 0.3149 0
M  V30 15 C 1.8545 -1.4368 -0.6831 0
M  V30 16 C 2.7387 -0.227 -0.5224 0
M  V30 17 C 4.1237 -0.6261 0.0018 0
M  V30 18 C 5.0162 0.61 0.188 0
M  V30 19 C 6.4137 0.2545 0.7233 0
M  V30 20 C 7.3393 -0.2993 -0.3738 0
M  V30 21 C 8.6968 -0.7785 0.1729 0
M  V30 22 C 9.5718 0.3251 0.7941 0
M  V30 23 C 9.9748 1.4049 -0.2096 0
M  V30 24 H -6.2185 1.7061 -2.0815 0
M  V30 25 H -5.5329 0.1788 -1.8799 0
M  V30 26 H -6.9337 1.8095 0.2044 0
M  V30 27 H -6.1612 0.2033 0.4981 0
M  V30 28 H -4.2934 2.624 -1.6124 0
M  V30 29 H -4.5685 2.1702 0.0734 0
M  V30 30 H -7.6641 -0.8417 -1.2027 0
M  V30 31 H -8.4245 0.764 -1.5266 0
M  V30 32 H -3.1938 0.4204 -2.0867 0
M  V30 33 H -2.3337 1.4414 -0.9193 0
M  V30 34 H -8.4206 -0.7138 1.1927 0
M  V30 35 H -9.1799 0.8871 0.8681 0
M  V30 36 H -4.1679 -0.951 -0.201 0
M  V30 37 H -2.4034 -1.0202 -0.3075 0
M  V30 38 H -9.8858 -1.6916 -0.4643 0
M  V30 39 H -10.6067 -0.1714 -0.7702 0
M  V30 40 H -10.7679 -0.9017 0.7581 0
M  V30 41 H -3.1514 -0.8585 2.0449 0
M  V30 42 H -4.0647 0.6203 1.7185 0
M  V30 43 H -2.023 1.923 1.3292 0
M  V30 44 H -1.9277 1.0862 2.8952 0
M  V30 45 H 0.2256 1.0565 1.6601 0
M  V30 46 H -0.5169 0.1888 0.2907 0
M  V30 47 H -0.3018 -0.8445 3.2044 0
M  V30 48 H -1.022 -1.7716 1.8449 0
M  V30 49 H 1.3483 -2.4179 2.4015 0
M  V30 50 H 1.9015 -0.784 1.9709 0
M  V30 51 H 0.5619 -2.8938 0.0651 0
M  V30 52 H 1.7567 -1.8531 -1.6817 0
M  V30 53 H 2.2584 0.5267 0.1366 0
M  V30 54 H 2.8601 0.2462 -1.5207 0
M  V30 55 H 4.0247 -1.1568 0.9735 0
M  V30 56 H 4.5889 -1.3238 -0.7261 0
M  V30 57 H 5.1087 1.1636 -0.7723 0
M  V30 58 H 4.5277 1.2893 0.9215 0
M  V30 59 H 6.3266 -0.4734 1.5591 0
M  V30 60 H 6.8606 1.1857 1.1312 0
M  V30 61 H 7.4909 0.4666 -1.1636 0
M  V30 62 H 6.8561 -1.173 -0.8586 0
M  V30 63 H 9.2613 -1.2589 -0.6567 0
M  V30 64 H 8.5188 -1.565 0.9394 0
M  V30 65 H 9.0596 0.792 1.6601 0
M  V30 66 H 10.4977 -0.1489 1.1835 0
M  V30 67 H 10.4168 0.9472 -1.1199 0
M  V30 68 H 9.0972 2.0236 -0.4905 0
M  V30 69 H 10.7308 2.0743 0.2522 0
M  V30 END ATOM
M  V30 BEGIN BOND
M  V30 1 1 1 2
M  V30 2 1 1 3
M  V30 3 1 2 4
M  V30 4 1 3 5
M  V30 5 1 4 6
M  V30 6 1 5 7
M  V30 7 1 6 8
M  V30 8 1 7 9
M  V30 9 1 9 10
M  V30 10 1 10 11
M  V30 11 1 11 12
M  V30 12 1 12 13
M  V30 13 1 13 14
M  V30 14 2 14 15
M  V30 15 1 15 16
M  V30 16 1 16 17
M  V30 17 1 17 18
M  V30 18 1 18 19
M  V30 19 1 19 20
M  V30 20 1 20 21
M  V30 21 1 21 22
M  V30 22 1 22 23
M  V30 23 1 1 24
M  V30 24 1 1 25
M  V30 25 1 2 26
M  V30 26 1 2 27
M  V30 27 1 3 28
M  V30 28 1 3 29
M  V30 29 1 4 30
M  V30 30 1 4 31
M  V30 31 1 5 32
M  V30 32 1 5 33
M  V30 33 1 6 34
M  V30 34 1 6 35
M  V30 35 1 7 36
M  V30 36 1 7 37
M  V30 37 1 8 38
M  V30 38 1 8 39
M  V30 39 1 8 40
M  V30 40 1 9 41
M  V30 41 1 9 42
M  V30 42 1 10 43
M  V30 43 1 10 44
M  V30 44 1 11 45
M  V30 45 1 11 46
M  V30 46 1 12 47
M  V30 47 1 12 48
M  V30 48 1 13 49
M  V30 49 1 13 50
M  V30 50 1 14 51
M  V30 51 1 15 52
M  V30 52 1 16 53
M  V30 53 1 16 54
M  V30 54 1 17 55
M  V30 55 1 17 56
M  V30 56 1 18 57
M  V30 57 1 18 58
M  V30 58 1 19 59
M  V30 59 1 19 60
M  V30 60 1 20 61
M  V30 61 1 20 62
M  V30 62 1 21 63
M  V30 63 1 21 64
M  V30 64 1 22 65
M  V30 65 1 22 66
M  V30 66 1 23 67
M  V30 67 1 23 68
M  V30 68 1 23 69
M  V30 END BOND
M  V30 END CTAB
M  END
>  <Structure No>
469

>  <LogS>
-3.955042001

>  <MMFF94 Energy>
74.979

$$$$
Compound 470
Actelion Java MolfileCreator 2.0

  0  0  0  0  0  0              0 V3000
M  V30 BEGIN CTAB
M  V30 COUNTS 12 12 0 0 0
M  V30 BEGIN ATOM
M  V30 1 Cl -2.1167 2.2932 0.0881 0
M  V30 2 C -0.941 0.9861 0.053 0
M  V30 3 C -1.347 -0.3585 -0.016 0
M  V30 4 C 0.4233 1.2993 0.0951 0
M  V30 5 Cl -3.0494 -0.7957 -0.0705 0
M  V30 6 C -0.3841 -1.3746 -0.0423 0
M  V30 7 C 1.3813 0.28 0.0685 0
M  V30 8 C 0.9762 -1.0566 0.0 0
M  V30 9 Cl 3.0888 0.6783 0.1215 0
M  V30 10 H 0.7388 2.3338 0.1484 0
M  V30 11 H -0.6891 -2.412 -0.0954 0
M  V30 12 H 1.7137 -1.8488 -0.0208 0
M  V30 END ATOM
M  V30 BEGIN BOND
M  V30 1 1 1 2
M  V30 2 2 2 3
M  V30 3 1 2 4
M  V30 4 1 3 5
M  V30 5 1 3 6
M  V30 6 2 4 7
M  V30 7 2 6 8
M  V30 8 1 7 9
M  V30 9 1 7 8
M  V30 10 1 4 10
M  V30 11 1 6 11
M  V30 12 1 8 12
M  V30 END BOND
M  V30 END CTAB
M  END
>  <Structure No>
470

>  <LogS>
-3.702452078

>  <MMFF94 Energy>
15.894

$$$$
Compound 471
Actelion Java MolfileCreator 2.0

  0  0  0  0  0  0              0 V3000
M  V30 BEGIN CTAB
M  V30 COUNTS 25 25 0 0 0
M  V30 BEGIN ATOM
M  V30 1 F 3.7081 0.8857 0.8052 0
M  V30 2 C 3.622 -0.2634 0.0404 0
M  V30 3 F 3.0372 -1.2644 0.7929 0
M  V30 4 F 4.8967 -0.661 -0.3187 0
M  V30 5 C 2.8026 0.0149 -1.2192 0
M  V30 6 O 1.5085 0.5231 -0.889 0
M  V30 7 C 0.3936 -0.2334 -0.4812 0
M  V30 8 C -0.7613 0.4425 -0.028 0
M  V30 9 C 0.3911 -1.6392 -0.526 0
M  V30 10 C -1.9037 -0.3172 0.3278 0
M  V30 11 C -0.7895 1.9523 0.015 0
M  V30 12 C -0.7436 -2.3421 -0.1318 0
M  V30 13 N -1.8501 -1.6753 0.2784 0
M  V30 14 C -3.1783 0.3219 0.8033 0
M  V30 15 O -3.0431 0.6897 2.1474 0
M  V30 16 H 2.7333 -0.8842 -1.8656 0
M  V30 17 H 3.3328 0.792 -1.8095 0
M  V30 18 H 1.249 -2.2009 -0.8635 0
M  V30 19 H -1.3399 2.3374 -0.8685 0
M  V30 20 H 0.2303 2.389 0.0164 0
M  V30 21 H -1.2871 2.309 0.9403 0
M  V30 22 H -0.7485 -3.4237 -0.1596 0
M  V30 23 H -3.4204 1.2117 0.181 0
M  V30 24 H -4.0192 -0.3999 0.6991 0
M  V30 25 H -3.8998 1.121 2.4024 0
M  V30 END ATOM
M  V30 BEGIN BOND
M  V30 1 1 1 2
M  V30 2 1 2 3
M  V30 3 1 2 4
M  V30 4 1 2 5
M  V30 5 1 5 6
M  V30 6 1 6 7
M  V30 7 2 7 8
M  V30 8 1 7 9
M  V30 9 1 8 10
M  V30 10 1 8 11
M  V30 11 2 9 12
M  V30 12 2 10 13
M  V30 13 1 10 14
M  V30 14 1 14 15
M  V30 15 1 12 13
M  V30 16 1 5 16
M  V30 17 1 5 17
M  V30 18 1 9 18
M  V30 19 1 11 19
M  V30 20 1 11 20
M  V30 21 1 11 21
M  V30 22 1 12 22
M  V30 23 1 14 23
M  V30 24 1 14 24
M  V30 25 1 15 25
M  V30 END BOND
M  V30 END CTAB
M  END
>  <Structure No>
471

>  <LogS>
-1.792073711

>  <MMFF94 Energy>
61.838

$$$$
Compound 472
Actelion Java MolfileCreator 2.0

  0  0  0  0  0  0              0 V3000
M  V30 BEGIN CTAB
M  V30 COUNTS 9 8 0 0 0
M  V30 BEGIN ATOM
M  V30 1 O 0.2224 -0.8157 -0.3707 0
M  V30 2 C 1.136 0.2034 -0.0341 0
M  V30 3 C -1.0914 -0.3324 -0.2061 0
M  V30 4 H 1.0269 0.5075 1.0309 0
M  V30 5 H 1.022 1.0849 -0.7038 0
M  V30 6 H 2.1657 -0.187 -0.1669 0
M  V30 7 H -1.2925 0.528 -0.8825 0
M  V30 8 H -1.2876 -0.0493 0.8522 0
M  V30 9 H -1.8017 -1.1414 -0.4733 0
M  V30 END ATOM
M  V30 BEGIN BOND
M  V30 1 1 1 2
M  V30 2 1 1 3
M  V30 3 1 2 4
M  V30 4 1 2 5
M  V30 5 1 2 6
M  V30 6 1 3 7
M  V30 7 1 3 8
M  V30 8 1 3 9
M  V30 END BOND
M  V30 END CTAB
M  END
>  <Structure No>
472

>  <LogS>
0.88436592

>  <MMFF94 Energy>
6.0891

$$$$
Compound 473
Actelion Java MolfileCreator 2.0

  0  0  0  0  0  0              0 V3000
M  V30 BEGIN CTAB
M  V30 COUNTS 30 30 0 0 0
M  V30 BEGIN ATOM
M  V30 1 O 2.7876 -1.2736 1.5125 0
M  V30 2 C 3.8152 -0.7306 1.0279 0
M  V30 3 O 5.0375 -1.3812 1.1308 0 CHG=-1
M  V30 4 C 3.7645 0.6118 0.4166 0
M  V30 5 C 2.6542 1.2451 0.005 0
M  V30 6 C 1.3054 0.6452 -0.0735 0
M  V30 7 C 1.0939 -0.5733 -0.7281 0
M  V30 8 C 0.2107 1.3565 0.4253 0
M  V30 9 C -0.1993 -1.113 -0.8341 0
M  V30 10 C -1.0958 0.8385 0.3289 0
M  V30 11 O -0.4374 -2.3453 -1.4647 0
M  V30 12 C -1.298 -0.4158 -0.3039 0
M  V30 13 O -2.1907 1.5482 0.8474 0
M  V30 14 C 0.5725 -3.1701 -2.0371 0
M  V30 15 O -2.5598 -1.0254 -0.4452 0
M  V30 16 C -2.112 2.8106 1.5021 0
M  V30 17 C -3.8059 -0.5157 0.0166 0
M  V30 18 H 4.7033 1.1462 0.3401 0
M  V30 19 H 2.7502 2.2802 -0.3005 0
M  V30 20 H 1.9403 -1.0919 -1.158 0
M  V30 21 H 0.3887 2.3132 0.8986 0
M  V30 22 H 0.1013 -4.0835 -2.4536 0
M  V30 23 H 1.3057 -3.4714 -1.2591 0
M  V30 24 H 1.0866 -2.6292 -2.8594 0
M  V30 25 H -1.6962 3.5742 0.8114 0
M  V30 26 H -1.4811 2.7304 2.4125 0
M  V30 27 H -3.1317 3.1249 1.8047 0
M  V30 28 H -4.6064 -1.2384 -0.2424 0
M  V30 29 H -4.0363 0.4486 -0.483 0
M  V30 30 H -3.7889 -0.3992 1.1206 0
M  V30 END ATOM
M  V30 BEGIN BOND
M  V30 1 2 1 2
M  V30 2 1 2 3
M  V30 3 1 2 4
M  V30 4 2 4 5
M  V30 5 1 5 6
M  V30 6 2 6 7
M  V30 7 1 6 8
M  V30 8 1 7 9
M  V30 9 2 8 10
M  V30 10 1 9 11
M  V30 11 2 9 12
M  V30 12 1 10 13
M  V30 13 1 11 14
M  V30 14 1 12 15
M  V30 15 1 13 16
M  V30 16 1 15 17
M  V30 17 1 10 12
M  V30 18 1 4 18
M  V30 19 1 5 19
M  V30 20 1 7 20
M  V30 21 1 8 21
M  V30 22 1 14 22
M  V30 23 1 14 23
M  V30 24 1 14 24
M  V30 25 1 16 25
M  V30 26 1 16 26
M  V30 27 1 16 27
M  V30 28 1 17 28
M  V30 29 1 17 29
M  V30 30 1 17 30
M  V30 END BOND
M  V30 END CTAB
M  END
>  <Structure No>
473

>  <LogS>
-2.830470194

>  <MMFF94 Energy>
51.029

$$$$
Compound 474
Actelion Java MolfileCreator 2.0

  0  0  0  0  0  0              0 V3000
M  V30 BEGIN CTAB
M  V30 COUNTS 22 23 0 0 0
M  V30 BEGIN ATOM
M  V30 1 C 0.3975 -0.7155 0.1589 0
M  V30 2 C 0.3391 0.6949 0.0425 0
M  V30 3 C 1.6447 -1.3595 0.1214 0
M  V30 4 C -0.8403 -1.5374 0.4323 0
M  V30 5 C 1.5248 1.4198 -0.1587 0
M  V30 6 C -0.9796 1.4319 0.0205 0
M  V30 7 C 2.8165 -0.6232 -0.0658 0
M  V30 8 C -2.1304 -0.8013 0.0589 0
M  V30 9 C 2.7564 0.7635 -0.2077 0
M  V30 10 C -2.1211 0.6151 0.6329 0
M  V30 11 H 1.7091 -2.4341 0.2403 0
M  V30 12 H -0.7963 -2.4897 -0.1395 0
M  V30 13 H -0.8643 -1.7888 1.5149 0
M  V30 14 H 1.494 2.4957 -0.2809 0
M  V30 15 H -1.2301 1.6743 -1.0351 0
M  V30 16 H -0.8879 2.3889 0.5789 0
M  V30 17 H 3.773 -1.1285 -0.0987 0
M  V30 18 H -3.0021 -1.3594 0.4635 0
M  V30 19 H -2.2326 -0.7585 -1.048 0
M  V30 20 H 3.6656 1.3311 -0.3579 0
M  V30 21 H -2.0031 0.5729 1.7383 0
M  V30 22 H -3.0896 1.1121 0.409 0
M  V30 END ATOM
M  V30 BEGIN BOND
M  V30 1 2 1 2
M  V30 2 1 1 3
M  V30 3 1 1 4
M  V30 4 1 2 5
M  V30 5 1 2 6
M  V30 6 2 3 7
M  V30 7 1 4 8
M  V30 8 2 5 9
M  V30 9 1 6 10
M  V30 10 1 7 9
M  V30 11 1 8 10
M  V30 12 1 3 11
M  V30 13 1 4 12
M  V30 14 1 4 13
M  V30 15 1 5 14
M  V30 16 1 6 15
M  V30 17 1 6 16
M  V30 18 1 7 17
M  V30 19 1 8 18
M  V30 20 1 8 19
M  V30 21 1 9 20
M  V30 22 1 10 21
M  V30 23 1 10 22
M  V30 END BOND
M  V30 END CTAB
M  END
>  <Structure No>
474

>  <LogS>
-3.567368139

>  <MMFF94 Energy>
20.497

$$$$
Compound 475
Actelion Java MolfileCreator 2.0

  0  0  0  0  0  0              0 V3000
M  V30 BEGIN CTAB
M  V30 COUNTS 44 43 0 0 0
M  V30 BEGIN ATOM
M  V30 1 O 3.0558 2.35 -0.1565 0
M  V30 2 C 2.7014 1.2066 0.2416 0
M  V30 3 O 3.6522 0.2544 0.6258 0
M  V30 4 C 1.2507 0.8453 0.2662 0
M  V30 5 C 5.059 0.4752 0.5515 0
M  V30 6 C 0.8713 0.0826 -1.0092 0
M  V30 7 C 5.5447 0.3517 -0.8981 0
M  V30 8 C -0.634 -0.2132 -1.0946 0
M  V30 9 C 7.0378 0.6784 -1.0506 0
M  V30 10 C -1.0795 -1.2923 -0.0998 0
M  V30 11 C 7.9425 -0.3972 -0.4505 0
M  V30 12 C -2.5273 -1.613 -0.2944 0
M  V30 13 O -2.8624 -2.5842 -1.0264 0
M  V30 14 O -3.4962 -0.8042 0.3061 0
M  V30 15 C -4.8924 -1.0333 0.1487 0
M  V30 16 C -5.6712 0.0227 0.9298 0
M  V30 17 C -7.1828 -0.1855 0.7859 0
M  V30 18 C -7.9609 0.8682 1.5683 0
M  V30 19 H 1.0614 0.2171 1.1613 0
M  V30 20 H 0.639 1.77 0.3531 0
M  V30 21 H 5.5577 -0.2943 1.1757 0
M  V30 22 H 5.3104 1.4746 0.9692 0
M  V30 23 H 1.4465 -0.8675 -1.0686 0
M  V30 24 H 1.1507 0.6997 -1.8917 0
M  V30 25 H 4.9712 1.0611 -1.5325 0
M  V30 26 H 5.3384 -0.6736 -1.2748 0
M  V30 27 H -0.8571 -0.5646 -2.1262 0
M  V30 28 H -1.2124 0.7218 -0.9256 0
M  V30 29 H 7.2643 1.6606 -0.5818 0
M  V30 30 H 7.2695 0.7626 -2.1344 0
M  V30 31 H -0.4734 -2.2136 -0.2423 0
M  V30 32 H -0.9361 -0.939 0.9425 0
M  V30 33 H 9.0013 -0.1626 -0.6883 0
M  V30 34 H 7.6974 -1.3931 -0.8767 0
M  V30 35 H 7.8361 -0.4305 0.6533 0
M  V30 36 H -5.1464 -2.0461 0.532 0
M  V30 37 H -5.1578 -0.9734 -0.9298 0
M  V30 38 H -5.396 1.0308 0.5492 0
M  V30 39 H -5.3872 -0.0385 2.0033 0
M  V30 40 H -7.4696 -0.1215 -0.2862 0
M  V30 41 H -7.4607 -1.193 1.1653 0
M  V30 42 H -9.0505 0.6917 1.4474 0
M  V30 43 H -7.7095 0.8106 2.6488 0
M  V30 44 H -7.7214 1.8848 1.1893 0
M  V30 END ATOM
M  V30 BEGIN BOND
M  V30 1 2 1 2
M  V30 2 1 2 3
M  V30 3 1 2 4
M  V30 4 1 3 5
M  V30 5 1 4 6
M  V30 6 1 5 7
M  V30 7 1 6 8
M  V30 8 1 7 9
M  V30 9 1 8 10
M  V30 10 1 9 11
M  V30 11 1 10 12
M  V30 12 2 12 13
M  V30 13 1 12 14
M  V30 14 1 14 15
M  V30 15 1 15 16
M  V30 16 1 16 17
M  V30 17 1 17 18
M  V30 18 1 4 19
M  V30 19 1 4 20
M  V30 20 1 5 21
M  V30 21 1 5 22
M  V30 22 1 6 23
M  V30 23 1 6 24
M  V30 24 1 7 25
M  V30 25 1 7 26
M  V30 26 1 8 27
M  V30 27 1 8 28
M  V30 28 1 9 29
M  V30 29 1 9 30
M  V30 30 1 10 31
M  V30 31 1 10 32
M  V30 32 1 11 33
M  V30 33 1 11 34
M  V30 34 1 11 35
M  V30 35 1 15 36
M  V30 36 1 15 37
M  V30 37 1 16 38
M  V30 38 1 16 39
M  V30 39 1 17 40
M  V30 40 1 17 41
M  V30 41 1 18 42
M  V30 42 1 18 43
M  V30 43 1 18 44
M  V30 END BOND
M  V30 END CTAB
M  END
>  <Structure No>
475

>  <LogS>
-3.86815387

>  <MMFF94 Energy>
-19.569

$$$$
Compound 476
Actelion Java MolfileCreator 2.0

  0  0  0  0  0  0              0 V3000
M  V30 BEGIN CTAB
M  V30 COUNTS 28 28 0 0 0
M  V30 BEGIN ATOM
M  V30 1 O -0.2351 2.2747 0.5487 0
M  V30 2 C 0.4876 1.103 0.3294 0
M  V30 3 C -0.1695 -0.113 -0.0127 0
M  V30 4 C 1.8842 1.1481 0.4564 0
M  V30 5 C 0.6438 -1.2588 -0.2055 0
M  V30 6 C -1.7135 -0.1808 -0.1609 0
M  V30 7 C 2.6615 0.008 0.2397 0
M  V30 8 C 2.0318 -1.197 -0.0748 0
M  V30 9 C -2.2228 -1.5945 -0.5436 0
M  V30 10 C -2.1819 0.7823 -1.2756 0
M  V30 11 C -2.3912 0.1949 1.1766 0
M  V30 12 C 4.1504 0.0611 0.4174 0
M  V30 13 H 0.2183 3.1474 0.7934 0
M  V30 14 H 2.3653 2.0808 0.7256 0
M  V30 15 H 0.2299 -2.2229 -0.4572 0
M  V30 16 H 2.6176 -2.0963 -0.2217 0
M  V30 17 H -1.8001 -1.9186 -1.5193 0
M  V30 18 H -1.9603 -2.3378 0.24 0
M  V30 19 H -3.3301 -1.6036 -0.6459 0
M  V30 20 H -1.6454 0.5636 -2.2241 0
M  V30 21 H -3.2728 0.6717 -1.4598 0
M  V30 22 H -2.0105 1.8448 -1.0154 0
M  V30 23 H -3.4927 0.0573 1.1127 0
M  V30 24 H -2.0076 -0.4493 1.9971 0
M  V30 25 H -2.2184 1.2525 1.4547 0
M  V30 26 H 4.4034 -0.1516 1.4771 0
M  V30 27 H 4.6504 -0.6887 -0.2319 0
M  V30 28 H 4.542 1.0646 0.1459 0
M  V30 END ATOM
M  V30 BEGIN BOND
M  V30 1 1 1 2
M  V30 2 2 2 3
M  V30 3 1 2 4
M  V30 4 1 3 5
M  V30 5 1 3 6
M  V30 6 2 4 7
M  V30 7 2 5 8
M  V30 8 1 6 9
M  V30 9 1 6 10
M  V30 10 1 6 11
M  V30 11 1 7 12
M  V30 12 1 7 8
M  V30 13 1 1 13
M  V30 14 1 4 14
M  V30 15 1 5 15
M  V30 16 1 8 16
M  V30 17 1 9 17
M  V30 18 1 9 18
M  V30 19 1 9 19
M  V30 20 1 10 20
M  V30 21 1 10 21
M  V30 22 1 10 22
M  V30 23 1 11 23
M  V30 24 1 11 24
M  V30 25 1 11 25
M  V30 26 1 12 26
M  V30 27 1 12 27
M  V30 28 1 12 28
M  V30 END BOND
M  V30 END CTAB
M  END
>  <Structure No>
476

>  <LogS>
-2.672674663

>  <MMFF94 Energy>
29.943

$$$$
Compound 477
Actelion Java MolfileCreator 2.0

  0  0  0  0  0  0              0 V3000
M  V30 BEGIN CTAB
M  V30 COUNTS 26 26 0 0 0
M  V30 BEGIN ATOM
M  V30 1 O -0.5643 -3.3088 -1.6937 0
M  V30 2 N -1.1363 -2.2158 -1.5021 0 CHG=1
M  V30 3 O -2.2629 -1.9178 -2.2337 0 CHG=-1
M  V30 4 C -0.496 -1.1938 -0.7207 0
M  V30 5 C -1.2419 -0.3109 0.1011 0
M  V30 6 C 0.8969 -1.0304 -0.8228 0
M  V30 7 C -2.6896 -0.4921 0.3562 0
M  V30 8 C -0.5773 0.7431 0.7493 0
M  V30 9 C 1.5556 0.0145 -0.1543 0
M  V30 10 O -3.2054 -1.6428 0.3153 0
M  V30 11 O -3.4756 0.6156 0.6919 0
M  V30 12 C 0.8026 0.9045 0.6236 0
M  V30 13 C 3.0209 0.1858 -0.2757 0
M  V30 14 C -4.867 0.5139 0.9692 0
M  V30 15 O 3.697 -0.6162 -0.9777 0
M  V30 16 O 3.6572 1.2391 0.3903 0
M  V30 17 C 5.0606 1.4591 0.3154 0
M  V30 18 H 1.462 -1.7069 -1.4522 0
M  V30 19 H -1.1234 1.4315 1.3828 0
M  V30 20 H 1.2805 1.7226 1.1479 0
M  V30 21 H -5.0331 -0.1523 1.8421 0
M  V30 22 H -5.2664 1.5216 1.2051 0
M  V30 23 H -5.4028 0.1127 0.083 0
M  V30 24 H 5.361 1.6422 -0.7378 0
M  V30 25 H 5.6053 0.5769 0.7136 0
M  V30 26 H 5.3231 2.3485 0.9241 0
M  V30 END ATOM
M  V30 BEGIN BOND
M  V30 1 2 1 2
M  V30 2 1 2 3
M  V30 3 1 2 4
M  V30 4 2 4 5
M  V30 5 1 4 6
M  V30 6 1 5 7
M  V30 7 1 5 8
M  V30 8 2 6 9
M  V30 9 2 7 10
M  V30 10 1 7 11
M  V30 11 2 8 12
M  V30 12 1 9 13
M  V30 13 1 11 14
M  V30 14 2 13 15
M  V30 15 1 13 16
M  V30 16 1 16 17
M  V30 17 1 9 12
M  V30 18 1 6 18
M  V30 19 1 8 19
M  V30 20 1 12 20
M  V30 21 1 14 21
M  V30 22 1 14 22
M  V30 23 1 14 23
M  V30 24 1 17 24
M  V30 25 1 17 25
M  V30 26 1 17 26
M  V30 END BOND
M  V30 END CTAB
M  END
>  <Structure No>
477

>  <LogS>
-2.835904882

>  <MMFF94 Energy>
32.068

$$$$
Compound 478
Actelion Java MolfileCreator 2.0

  0  0  0  0  0  0              0 V3000
M  V30 BEGIN CTAB
M  V30 COUNTS 7 6 0 0 0
M  V30 BEGIN ATOM
M  V30 1 O 1.4011 -1.0896 0.5447 0
M  V30 2 C 0.8266 -0.0433 0.1451 0
M  V30 3 O 1.5463 1.1394 0.0364 0 CHG=-1
M  V30 4 C -0.6337 -0.0596 -0.1549 0
M  V30 5 H -0.8862 0.7639 -0.855 0
M  V30 6 H -1.2063 0.0738 0.7863 0
M  V30 7 H -0.9161 -1.0265 -0.622 0
M  V30 END ATOM
M  V30 BEGIN BOND
M  V30 1 2 1 2
M  V30 2 1 2 3
M  V30 3 1 2 4
M  V30 4 1 4 5
M  V30 5 1 4 6
M  V30 6 1 4 7
M  V30 END BOND
M  V30 END CTAB
M  END
>  <Structure No>
478

>  <LogS>
0.29360437

>  <MMFF94 Energy>
1.0491

$$$$
Compound 479
Actelion Java MolfileCreator 2.0

  0  0  0  0  0  0              0 V3000
M  V30 BEGIN CTAB
M  V30 COUNTS 34 33 0 0 0
M  V30 BEGIN ATOM
M  V30 1 O 4.3076 2.6612 -1.4081 0
M  V30 2 C 4.4664 1.4177 -1.2725 0
M  V30 3 O 3.4552 0.6318 -0.709 0
M  V30 4 C 5.7271 0.8042 -1.7139 0
M  V30 5 C 2.2158 1.1748 -0.2659 0
M  V30 6 C 5.9583 -0.5013 -1.5996 0
M  V30 7 C 1.3411 0.0539 0.2916 0
M  V30 8 C -0.0159 0.5949 0.7642 0
M  V30 9 C -0.8647 -0.467 1.4857 0
M  V30 10 C -1.2556 -1.6817 0.622 0
M  V30 11 C -2.0608 -1.3176 -0.6336 0
M  V30 12 O -3.183 -0.4963 -0.3134 0
M  V30 13 C -4.3396 -0.978 0.3124 0
M  V30 14 O -4.4712 -2.2078 0.5563 0
M  V30 15 C -5.4195 -0.0545 0.6884 0
M  V30 16 C -5.336 1.2568 0.477 0
M  V30 17 H 6.4933 1.436 -2.1465 0
M  V30 18 H 1.6988 1.6627 -1.1214 0
M  V30 19 H 2.4064 1.932 0.5261 0
M  V30 20 H 6.9003 -0.9134 -1.9371 0
M  V30 21 H 5.2224 -1.1718 -1.1738 0
M  V30 22 H 1.1883 -0.7021 -0.5075 0
M  V30 23 H 1.8697 -0.4285 1.1425 0
M  V30 24 H 0.159 1.428 1.4799 0
M  V30 25 H -0.5784 1.0182 -0.0949 0
M  V30 26 H -1.7888 0.0184 1.8679 0
M  V30 27 H -0.3049 -0.8317 2.3745 0
M  V30 28 H -0.3474 -2.2465 0.3242 0
M  V30 29 H -1.8629 -2.3698 1.2481 0
M  V30 30 H -2.4013 -2.2445 -1.1442 0
M  V30 31 H -1.4106 -0.7736 -1.3495 0
M  V30 32 H -6.3108 -0.4541 1.1566 0
M  V30 33 H -6.1531 1.9031 0.7706 0
M  V30 34 H -4.4635 1.7019 0.0158 0
M  V30 END ATOM
M  V30 BEGIN BOND
M  V30 1 2 1 2
M  V30 2 1 2 3
M  V30 3 1 2 4
M  V30 4 1 3 5
M  V30 5 2 4 6
M  V30 6 1 5 7
M  V30 7 1 7 8
M  V30 8 1 8 9
M  V30 9 1 9 10
M  V30 10 1 10 11
M  V30 11 1 11 12
M  V30 12 1 12 13
M  V30 13 2 13 14
M  V30 14 1 13 15
M  V30 15 2 15 16
M  V30 16 1 4 17
M  V30 17 1 5 18
M  V30 18 1 5 19
M  V30 19 1 6 20
M  V30 20 1 6 21
M  V30 21 1 7 22
M  V30 22 1 7 23
M  V30 23 1 8 24
M  V30 24 1 8 25
M  V30 25 1 9 26
M  V30 26 1 9 27
M  V30 27 1 10 28
M  V30 28 1 10 29
M  V30 29 1 11 30
M  V30 30 1 11 31
M  V30 31 1 15 32
M  V30 32 1 16 33
M  V30 33 1 16 34
M  V30 END BOND
M  V30 END CTAB
M  END
>  <Structure No>
479

>  <LogS>
-2.819336696

>  <MMFF94 Energy>
-1.3245

$$$$
Compound 480
Actelion Java MolfileCreator 2.0

  0  0  0  0  0  0              0 V3000
M  V30 BEGIN CTAB
M  V30 COUNTS 39 38 0 0 0
M  V30 BEGIN ATOM
M  V30 1 O 3.8896 -1.0101 0.233 0
M  V30 2 C 3.0695 -0.061 0.0853 0
M  V30 3 N 3.5587 1.2508 -0.2696 0
M  V30 4 C 1.5899 -0.3186 0.2558 0
M  V30 5 C 2.6281 2.3637 -0.4926 0
M  V30 6 C 5.003 1.4595 -0.415 0
M  V30 7 C 1.2774 -1.7391 0.7599 0
M  V30 8 C -0.2204 -1.9448 1.0382 0
M  V30 9 C -1.0457 -2.074 -0.2541 0
M  V30 10 C -2.5366 -2.3362 0.0172 0
M  V30 11 C -3.2923 -1.1608 0.6686 0
M  V30 12 C -3.3479 0.1084 -0.2087 0
M  V30 13 C -2.3613 1.1874 0.2633 0
M  V30 14 C -2.4067 2.4129 -0.6444 0
M  V30 15 H 1.099 -0.1546 -0.7251 0
M  V30 16 H 1.1837 0.4158 0.9834 0
M  V30 17 H 1.9138 2.103 -1.3015 0
M  V30 18 H 2.0683 2.5806 0.4411 0
M  V30 19 H 3.1595 3.2905 -0.7943 0
M  V30 20 H 5.2446 2.5099 -0.6808 0
M  V30 21 H 5.5138 1.2193 0.5414 0
M  V30 22 H 5.3978 0.7994 -1.216 0
M  V30 23 H 1.8285 -1.9085 1.7111 0
M  V30 24 H 1.6317 -2.4925 0.0224 0
M  V30 25 H -0.593 -1.1071 1.6637 0
M  V30 26 H -0.3388 -2.8795 1.6287 0
M  V30 27 H -0.9356 -1.1758 -0.8928 0
M  V30 28 H -0.6507 -2.9336 -0.8385 0
M  V30 29 H -2.6346 -3.2303 0.671 0
M  V30 30 H -3.0322 -2.5878 -0.9459 0
M  V30 31 H -4.3363 -1.504 0.8392 0
M  V30 32 H -2.8816 -0.9406 1.6768 0
M  V30 33 H -4.3751 0.5322 -0.1523 0
M  V30 34 H -3.1597 -0.1425 -1.2757 0
M  V30 35 H -2.6186 1.4986 1.2992 0
M  V30 36 H -1.3257 0.7931 0.2691 0
M  V30 37 H -3.4265 2.8535 -0.648 0
M  V30 38 H -1.6906 3.1765 -0.2738 0
M  V30 39 H -2.1224 2.1343 -1.6816 0
M  V30 END ATOM
M  V30 BEGIN BOND
M  V30 1 2 1 2
M  V30 2 1 2 3
M  V30 3 1 2 4
M  V30 4 1 3 5
M  V30 5 1 3 6
M  V30 6 1 4 7
M  V30 7 1 7 8
M  V30 8 1 8 9
M  V30 9 1 9 10
M  V30 10 1 10 11
M  V30 11 1 11 12
M  V30 12 1 12 13
M  V30 13 1 13 14
M  V30 14 1 4 15
M  V30 15 1 4 16
M  V30 16 1 5 17
M  V30 17 1 5 18
M  V30 18 1 5 19
M  V30 19 1 6 20
M  V30 20 1 6 21
M  V30 21 1 6 22
M  V30 22 1 7 23
M  V30 23 1 7 24
M  V30 24 1 8 25
M  V30 25 1 8 26
M  V30 26 1 9 27
M  V30 27 1 9 28
M  V30 28 1 10 29
M  V30 29 1 10 30
M  V30 30 1 11 31
M  V30 31 1 11 32
M  V30 32 1 12 33
M  V30 33 1 12 34
M  V30 34 1 13 35
M  V30 35 1 13 36
M  V30 36 1 14 37
M  V30 37 1 14 38
M  V30 38 1 14 39
M  V30 END BOND
M  V30 END CTAB
M  END
>  <Structure No>
480

>  <LogS>
-2.76811118

>  <MMFF94 Energy>
-14.973

$$$$
Compound 481
Actelion Java MolfileCreator 2.0

  0  0  0  0  0  0              0 V3000
M  V30 BEGIN CTAB
M  V30 COUNTS 26 27 0 0 0
M  V30 BEGIN ATOM
M  V30 1 N 0.1583 -0.3959 -0.1583 0
M  V30 2 N 0.9271 0.4429 0.4117 0
M  V30 3 C -1.2686 -0.2931 -0.0876 0
M  V30 4 C 2.3541 0.3398 0.341 0
M  V30 5 C -2.0507 -1.2536 -0.7404 0
M  V30 6 C -1.9004 0.7461 0.6194 0
M  V30 7 C 2.986 -0.7001 -0.3666 0
M  V30 8 C 3.1367 1.301 0.9942 0
M  V30 9 C -3.4462 -1.1823 -0.6911 0
M  V30 10 C -3.2962 0.8169 0.6682 0
M  V30 11 C 4.3821 -0.7696 -0.4145 0
M  V30 12 C 4.5324 1.2283 0.9439 0
M  V30 13 C -4.0757 -0.1467 0.0133 0
M  V30 14 C 5.1546 0.1936 0.2401 0
M  V30 15 N -5.5029 -0.0738 0.0637 0
M  V30 16 H -1.5763 -2.0583 -1.2879 0
M  V30 17 H -1.3183 1.5009 1.1324 0
M  V30 18 H 2.4041 -1.4549 -0.8795 0
M  V30 19 H 2.6631 2.1063 1.542 0
M  V30 20 H -4.0363 -1.9331 -1.2014 0
M  V30 21 H -3.77 1.6219 1.216 0
M  V30 22 H 4.865 -1.5703 -0.9593 0
M  V30 23 H 5.1312 1.9739 1.4506 0
M  V30 24 H 6.2348 0.1384 0.2019 0
M  V30 25 H -6.0921 -0.787 -0.421 0
M  V30 26 H -5.9811 0.6939 0.5861 0
M  V30 END ATOM
M  V30 BEGIN BOND
M  V30 1 2 1 2
M  V30 2 1 1 3
M  V30 3 1 2 4
M  V30 4 2 3 5
M  V30 5 1 3 6
M  V30 6 2 4 7
M  V30 7 1 4 8
M  V30 8 1 5 9
M  V30 9 2 6 10
M  V30 10 1 7 11
M  V30 11 2 8 12
M  V30 12 2 9 13
M  V30 13 2 11 14
M  V30 14 1 13 15
M  V30 15 1 10 13
M  V30 16 1 12 14
M  V30 17 1 5 16
M  V30 18 1 6 17
M  V30 19 1 7 18
M  V30 20 1 8 19
M  V30 21 1 9 20
M  V30 22 1 10 21
M  V30 23 1 11 22
M  V30 24 1 12 23
M  V30 25 1 14 24
M  V30 26 1 15 25
M  V30 27 1 15 26
M  V30 END BOND
M  V30 END CTAB
M  END
>  <Structure No>
481

>  <LogS>
-3.759703076

>  <MMFF94 Energy>
30.357

$$$$
Compound 482
Actelion Java MolfileCreator 2.0

  0  0  0  0  0  0              0 V3000
M  V30 BEGIN CTAB
M  V30 COUNTS 26 26 0 0 0
M  V30 BEGIN ATOM
M  V30 1 N 2.0544 -1.6591 -2.1335 0
M  V30 2 C 1.4053 -1.9301 -1.2147 0
M  V30 3 C 0.5801 -2.2744 -0.0451 0
M  V30 4 C 0.203 -1.048 0.8308 0 CFG=2
M  V30 5 C -0.6986 0.049 0.1595 0
M  V30 6 C 1.4625 -0.2857 1.2915 0
M  V30 7 C 0.2924 1.1418 -0.1477 0
M  V30 8 C -1.7232 0.5821 1.1841 0
M  V30 9 C -1.4556 -0.414 -1.1067 0
M  V30 10 C 1.4508 0.9554 0.4735 0
M  V30 11 C 8.0E-4 2.3872 -0.9381 0
M  V30 12 H 1.1552 -2.9938 0.5762 0
M  V30 13 H -0.3314 -2.8076 -0.3831 0
M  V30 14 H -0.3062 -1.4633 1.7302 0
M  V30 15 H 2.4056 -0.852 1.1342 0
M  V30 16 H 1.3785 -0.0108 2.3652 0
M  V30 17 H -1.214 0.9352 2.1073 0
M  V30 18 H -2.3007 1.4326 0.7619 0
M  V30 19 H -2.4394 -0.2195 1.4655 0
M  V30 20 H -0.7623 -0.6268 -1.9449 0
M  V30 21 H -2.1593 0.37 -1.457 0
M  V30 22 H -2.059 -1.3198 -0.8872 0
M  V30 23 H 2.2705 1.6668 0.4465 0
M  V30 24 H 0.6556 2.4203 -1.8337 0
M  V30 25 H 0.1938 3.2833 -0.3116 0
M  V30 26 H -1.057 2.416 -1.2673 0
M  V30 END ATOM
M  V30 BEGIN BOND
M  V30 1 3 1 2
M  V30 2 1 2 3
M  V30 3 1 3 4
M  V30 4 1 4 5
M  V30 5 1 4 6
M  V30 6 1 5 7
M  V30 7 1 5 8
M  V30 8 1 5 9
M  V30 9 1 6 10
M  V30 10 1 7 11
M  V30 11 2 7 10
M  V30 12 1 3 12
M  V30 13 1 3 13
M  V30 14 1 4 14
M  V30 15 1 6 15
M  V30 16 1 6 16
M  V30 17 1 8 17
M  V30 18 1 8 18
M  V30 19 1 8 19
M  V30 20 1 9 20
M  V30 21 1 9 21
M  V30 22 1 9 22
M  V30 23 1 10 23
M  V30 24 1 11 24
M  V30 25 1 11 25
M  V30 26 1 11 26
M  V30 END BOND
M  V30 BEGIN COLLECTION
M  V30 MDLV30/STEABS ATOMS=(1 4)
M  V30 END COLLECTION
M  V30 END CTAB
M  END
>  <Structure No>
482

>  <LogS>
-2.647537233

>  <MMFF94 Energy>
24.155

$$$$
Compound 483
Actelion Java MolfileCreator 2.0

  0  0  0  0  0  0              0 V3000
M  V30 BEGIN CTAB
M  V30 COUNTS 28 28 0 0 0
M  V30 BEGIN ATOM
M  V30 1 O 0.6271 2.6677 -0.3919 0
M  V30 2 C 0.959 1.3118 -0.3774 0
M  V30 3 C 0.0375 0.2542 -0.0736 0
M  V30 4 C 2.2883 1.0168 -0.7002 0
M  V30 5 C 0.5122 -1.0749 -0.2527 0
M  V30 6 C -1.4115 0.5016 0.4467 0
M  V30 7 C 2.7265 -0.2954 -0.818 0
M  V30 8 C 1.8334 -1.3476 -0.631 0
M  V30 9 C -1.4159 1.5168 1.6198 0
M  V30 10 C -2.3173 0.9857 -0.7066 0
M  V30 11 C -2.0711 -0.7879 1.0133 0
M  V30 12 C 2.3069 -2.7672 -0.7518 0
M  V30 13 H -0.3011 3.0348 -0.5101 0
M  V30 14 H 2.9859 1.8228 -0.892 0
M  V30 15 H -0.1239 -1.9302 -0.0916 0
M  V30 16 H 3.7602 -0.489 -1.0775 0
M  V30 17 H -0.6529 1.2317 2.376 0
M  V30 18 H -2.4056 1.5399 2.1256 0
M  V30 19 H -1.2302 2.5583 1.313 0
M  V30 20 H -3.3537 1.1574 -0.3425 0
M  V30 21 H -1.9719 1.9252 -1.169 0
M  V30 22 H -2.3549 0.2191 -1.5104 0
M  V30 23 H -1.4356 -1.2423 1.8042 0
M  V30 24 H -2.2615 -1.5357 0.2138 0
M  V30 25 H -3.0636 -0.5673 1.4642 0
M  V30 26 H 2.6104 -3.1413 0.2481 0
M  V30 27 H 3.1737 -2.8383 -1.4429 0
M  V30 28 H 1.4979 -3.4152 -1.1514 0
M  V30 END ATOM
M  V30 BEGIN BOND
M  V30 1 1 1 2
M  V30 2 2 2 3
M  V30 3 1 2 4
M  V30 4 1 3 5
M  V30 5 1 3 6
M  V30 6 2 4 7
M  V30 7 2 5 8
M  V30 8 1 6 9
M  V30 9 1 6 10
M  V30 10 1 6 11
M  V30 11 1 8 12
M  V30 12 1 7 8
M  V30 13 1 1 13
M  V30 14 1 4 14
M  V30 15 1 5 15
M  V30 16 1 7 16
M  V30 17 1 9 17
M  V30 18 1 9 18
M  V30 19 1 9 19
M  V30 20 1 10 20
M  V30 21 1 10 21
M  V30 22 1 10 22
M  V30 23 1 11 23
M  V30 24 1 11 24
M  V30 25 1 11 25
M  V30 26 1 12 26
M  V30 27 1 12 27
M  V30 28 1 12 28
M  V30 END BOND
M  V30 END CTAB
M  END
>  <Structure No>
483

>  <LogS>
-2.691753623

>  <MMFF94 Energy>
29.977

$$$$
Compound 484
Actelion Java MolfileCreator 2.0

  0  0  0  0  0  0              0 V3000
M  V30 BEGIN CTAB
M  V30 COUNTS 24 24 0 0 0
M  V30 BEGIN ATOM
M  V30 1 N -1.086 0.155 0.0 0 CHG=1
M  V30 2 C 0.3833 0.0062 -0.0303 0
M  V30 3 C -1.6904 -0.6861 -1.0619 0
M  V30 4 C -1.5399 1.5528 -0.2235 0
M  V30 5 C -1.5995 -0.2751 1.3236 0
M  V30 6 C 1.2679 1.0987 -0.2522 0
M  V30 7 C 0.9742 -1.2696 0.1669 0
M  V30 8 C 2.6533 0.9139 -0.2731 0
M  V30 9 C 2.3601 -1.4413 0.1438 0
M  V30 10 C 3.1984 -0.3519 -0.0756 0
M  V30 11 H -1.506 -1.7681 -0.8908 0
M  V30 12 H -2.7954 -0.554 -1.1018 0
M  V30 13 H -1.2746 -0.4199 -2.0597 0
M  V30 14 H -2.6508 1.6278 -0.194 0
M  V30 15 H -1.2191 1.9253 -1.2222 0
M  V30 16 H -1.1509 2.2334 0.5667 0
M  V30 17 H -1.4146 -1.3543 1.5108 0
M  V30 18 H -1.1145 0.3038 2.1415 0
M  V30 19 H -2.7001 -0.1233 1.3987 0
M  V30 20 H 0.917 2.1066 -0.4124 0
M  V30 21 H 0.3659 -2.1456 0.3411 0
M  V30 22 H 3.3077 1.7593 -0.4436 0
M  V30 23 H 2.7848 -2.4252 0.2972 0
M  V30 24 H 4.2718 -0.4888 -0.093 0
M  V30 END ATOM
M  V30 BEGIN BOND
M  V30 1 1 1 2
M  V30 2 1 1 3
M  V30 3 1 1 4
M  V30 4 1 1 5
M  V30 5 2 2 6
M  V30 6 1 2 7
M  V30 7 1 6 8
M  V30 8 2 7 9
M  V30 9 2 8 10
M  V30 10 1 9 10
M  V30 11 1 3 11
M  V30 12 1 3 12
M  V30 13 1 3 13
M  V30 14 1 4 14
M  V30 15 1 4 15
M  V30 16 1 4 16
M  V30 17 1 5 17
M  V30 18 1 5 18
M  V30 19 1 5 19
M  V30 20 1 6 20
M  V30 21 1 7 21
M  V30 22 1 8 22
M  V30 23 1 9 23
M  V30 24 1 10 24
M  V30 END BOND
M  V30 END CTAB
M  END
>  <Structure No>
484

>  <LogS>
0.287747296

>  <MMFF94 Energy>
30.746

$$$$
Compound 485
Actelion Java MolfileCreator 2.0

  0  0  0  0  0  0              0 V3000
M  V30 BEGIN CTAB
M  V30 COUNTS 34 34 0 0 0
M  V30 BEGIN ATOM
M  V30 1 O -2.3708 -0.7897 -2.0544 0
M  V30 2 C -2.8128 -0.7914 -0.8746 0
M  V30 3 O -2.2847 0.0561 0.1144 0
M  V30 4 C -3.9488 -1.6908 -0.5248 0
M  V30 5 C -1.2154 1.0148 -0.0107 0
M  V30 6 C 0.1734 0.3195 0.2623 0 CFG=2
M  V30 7 C -1.2733 1.7537 -1.3728 0
M  V30 8 C -1.4881 2.0603 1.0912 0
M  V30 9 C 1.3755 1.2924 0.1653 0
M  V30 10 C 0.4526 -0.9017 -0.6384 0
M  V30 11 C 2.7065 0.6021 0.3214 0
M  V30 12 C 1.7201 -1.6366 -0.1844 0
M  V30 13 C 2.8866 -0.7105 0.0779 0
M  V30 14 C 4.2665 -1.2954 0.2049 0
M  V30 15 H -3.9931 -1.8372 0.5748 0
M  V30 16 H -3.8152 -2.6793 -1.0125 0
M  V30 17 H -4.9005 -1.2361 -0.8701 0
M  V30 18 H 0.1418 -0.062 1.3091 0
M  V30 19 H -0.69 2.6987 -1.3464 0
M  V30 20 H -0.8612 1.1401 -2.1973 0
M  V30 21 H -2.324 2.019 -1.6183 0
M  V30 22 H -1.4065 1.5983 2.0986 0
M  V30 23 H -2.5192 2.4621 0.9863 0
M  V30 24 H -0.7886 2.9201 1.0354 0
M  V30 25 H 1.3859 1.8018 -0.8199 0
M  V30 26 H 1.3063 2.0656 0.9572 0
M  V30 27 H 0.5748 -0.5867 -1.6967 0
M  V30 28 H -0.377 -1.6323 -0.5789 0
M  V30 29 H 3.5697 1.2263 0.5381 0
M  V30 30 H 1.5029 -2.1964 0.7512 0
M  V30 31 H 2.0003 -2.3763 -0.9653 0
M  V30 32 H 4.6701 -1.0969 1.2206 0
M  V30 33 H 4.9385 -0.8378 -0.5514 0
M  V30 34 H 4.2501 -2.3941 0.0435 0
M  V30 END ATOM
M  V30 BEGIN BOND
M  V30 1 2 1 2
M  V30 2 1 2 3
M  V30 3 1 2 4
M  V30 4 1 3 5
M  V30 5 1 5 6
M  V30 6 1 5 7
M  V30 7 1 5 8
M  V30 8 1 6 9
M  V30 9 1 6 10
M  V30 10 1 9 11
M  V30 11 1 10 12
M  V30 12 2 11 13
M  V30 13 1 13 14
M  V30 14 1 12 13
M  V30 15 1 4 15
M  V30 16 1 4 16
M  V30 17 1 4 17
M  V30 18 1 6 18
M  V30 19 1 7 19
M  V30 20 1 7 20
M  V30 21 1 7 21
M  V30 22 1 8 22
M  V30 23 1 8 23
M  V30 24 1 8 24
M  V30 25 1 9 25
M  V30 26 1 9 26
M  V30 27 1 10 27
M  V30 28 1 10 28
M  V30 29 1 11 29
M  V30 30 1 12 30
M  V30 31 1 12 31
M  V30 32 1 14 32
M  V30 33 1 14 33
M  V30 34 1 14 34
M  V30 END BOND
M  V30 BEGIN COLLECTION
M  V30 MDLV30/STEABS ATOMS=(1 6)
M  V30 END COLLECTION
M  V30 END CTAB
M  END
>  <Structure No>
485

>  <LogS>
-3.021359064

>  <MMFF94 Energy>
15.126

$$$$
Compound 486
Actelion Java MolfileCreator 2.0

  0  0  0  0  0  0              0 V3000
M  V30 BEGIN CTAB
M  V30 COUNTS 33 33 0 0 0
M  V30 BEGIN ATOM
M  V30 1 O -0.5512 2.3639 1.1814 0
M  V30 2 C -0.4897 1.1144 0.5555 0
M  V30 3 C 0.5011 3.3257 1.1162 0
M  V30 4 N 0.5983 0.7531 -0.173 0
M  V30 5 N -1.5308 0.2536 0.6793 0
M  V30 6 C 0.6272 3.8871 -0.2715 0
M  V30 7 C 0.6484 -0.4632 -0.7759 0
M  V30 8 C -1.4882 -0.9635 0.0808 0
M  V30 9 C -0.3673 4.5759 -0.8364 0
M  V30 10 O 1.7631 -0.8453 -1.5294 0
M  V30 11 N -0.3956 -1.3192 -0.6465 0
M  V30 12 O -2.5708 -1.8352 0.2219 0
M  V30 13 C 2.8995 -0.0054 -1.7286 0
M  V30 14 C -2.602 -3.1286 -0.373 0
M  V30 15 C 3.6671 0.168 -0.4488 0
M  V30 16 C -3.8916 -3.8109 -0.0304 0
M  V30 17 C 4.2361 -0.8707 0.1674 0
M  V30 18 C -4.1927 -4.1355 1.2295 0
M  V30 19 H 1.4608 2.8563 1.4233 0
M  V30 20 H 0.2816 4.1506 1.8267 0
M  V30 21 H 1.5485 3.7298 -0.8248 0
M  V30 22 H -0.2522 4.9715 -1.8403 0
M  V30 23 H -1.2986 4.7485 -0.3052 0
M  V30 24 H 3.5603 -0.4665 -2.4927 0
M  V30 25 H 2.5737 0.9858 -2.1118 0
M  V30 26 H -1.7481 -3.7383 -0.0051 0
M  V30 27 H -2.5246 -3.0307 -1.4774 0
M  V30 28 H 3.7612 1.1605 -0.0179 0
M  V30 29 H -4.5919 -4.0526 -0.8245 0
M  V30 30 H 4.7853 -0.72 1.0909 0
M  V30 31 H 4.1579 -1.8734 -0.242 0
M  V30 32 H -5.1313 -4.6323 1.4529 0
M  V30 33 H -3.5094 -3.9095 2.0427 0
M  V30 END ATOM
M  V30 BEGIN BOND
M  V30 1 1 1 2
M  V30 2 1 1 3
M  V30 3 2 2 4
M  V30 4 1 2 5
M  V30 5 1 3 6
M  V30 6 1 4 7
M  V30 7 2 5 8
M  V30 8 2 6 9
M  V30 9 1 7 10
M  V30 10 2 7 11
M  V30 11 1 8 12
M  V30 12 1 10 13
M  V30 13 1 12 14
M  V30 14 1 13 15
M  V30 15 1 14 16
M  V30 16 2 15 17
M  V30 17 2 16 18
M  V30 18 1 8 11
M  V30 19 1 3 19
M  V30 20 1 3 20
M  V30 21 1 6 21
M  V30 22 1 9 22
M  V30 23 1 9 23
M  V30 24 1 13 24
M  V30 25 1 13 25
M  V30 26 1 14 26
M  V30 27 1 14 27
M  V30 28 1 15 28
M  V30 29 1 16 29
M  V30 30 1 17 30
M  V30 31 1 17 31
M  V30 32 1 18 32
M  V30 33 1 18 33
M  V30 END BOND
M  V30 END CTAB
M  END
>  <Structure No>
486

>  <LogS>
-2.87422578

>  <MMFF94 Energy>
-146.85

$$$$
Compound 487
Actelion Java MolfileCreator 2.0

  0  0  0  0  0  0              0 V3000
M  V30 BEGIN CTAB
M  V30 COUNTS 16 15 0 0 0
M  V30 BEGIN ATOM
M  V30 1 O 2.8149 0.1562 1.2503 0
M  V30 2 C 2.2499 0.4999 0.1788 0
M  V30 3 O 2.3172 1.8224 -0.2411 0 CHG=-1
M  V30 4 C 1.478 -0.5038 -0.6215 0
M  V30 5 C 0.0961 -0.777 -0.013 0
M  V30 6 C -0.8399 0.4347 -0.1299 0
M  V30 7 C -2.2248 0.1155 0.4256 0
M  V30 8 H 1.3694 -0.1469 -1.6687 0
M  V30 9 H 2.0529 -1.4546 -0.6515 0
M  V30 10 H -0.3567 -1.637 -0.5534 0
M  V30 11 H 0.2081 -1.0684 1.0549 0
M  V30 12 H -0.9403 0.7302 -1.197 0
M  V30 13 H -0.4201 1.2942 0.4358 0
M  V30 14 H -2.6849 -0.7216 -0.1413 0
M  V30 15 H -2.878 1.0087 0.3318 0
M  V30 16 H -2.1551 -0.1623 1.4989 0
M  V30 END ATOM
M  V30 BEGIN BOND
M  V30 1 2 1 2
M  V30 2 1 2 3
M  V30 3 1 2 4
M  V30 4 1 4 5
M  V30 5 1 5 6
M  V30 6 1 6 7
M  V30 7 1 4 8
M  V30 8 1 4 9
M  V30 9 1 5 10
M  V30 10 1 5 11
M  V30 11 1 6 12
M  V30 12 1 6 13
M  V30 13 1 7 14
M  V30 14 1 7 15
M  V30 15 1 7 16
M  V30 END BOND
M  V30 END CTAB
M  END
>  <Structure No>
487

>  <LogS>
-0.490652149

>  <MMFF94 Energy>
1.4757

$$$$
Compound 488
Actelion Java MolfileCreator 2.0

  0  0  0  0  0  0              0 V3000
M  V30 BEGIN CTAB
M  V30 COUNTS 28 28 0 0 0
M  V30 BEGIN ATOM
M  V30 1 O -3.2874 -0.4691 1.0166 0
M  V30 2 C -1.8944 -0.2944 0.9549 0 CFG=1
M  V30 3 C -1.3149 -1.1186 -0.2379 0 CFG=2
M  V30 4 C -1.6105 1.213 0.884 0
M  V30 5 C 0.1238 -1.6433 0.002 0
M  V30 6 C -1.4714 -0.4263 -1.6025 0
M  V30 7 C 1.1687 -0.5697 0.1833 0
M  V30 8 C 1.5501 -0.1608 1.4737 0
M  V30 9 C 1.7853 0.02 -0.9331 0
M  V30 10 C 2.5159 0.8363 1.6408 0
M  V30 11 C 2.7506 1.0169 -0.7613 0
M  V30 12 C 3.1139 1.4263 0.5243 0
M  V30 13 H -3.4513 -1.3558 1.4328 0
M  V30 14 H -1.4435 -0.6682 1.9043 0
M  V30 15 H -1.9333 -2.0423 -0.3083 0
M  V30 16 H -2.1904 1.6831 0.0617 0
M  V30 17 H -0.5361 1.4252 0.7281 0
M  V30 18 H -1.9208 1.6923 1.8368 0
M  V30 19 H 0.4195 -2.2953 -0.8494 0
M  V30 20 H 0.1176 -2.3073 0.8947 0
M  V30 21 H -2.5373 -0.1656 -1.775 0
M  V30 22 H -0.8652 0.5005 -1.6605 0
M  V30 23 H -1.1479 -1.1096 -2.4163 0
M  V30 24 H 1.0944 -0.6072 2.3488 0
M  V30 25 H 1.52 -0.2924 -1.9354 0
M  V30 26 H 2.8004 1.1518 2.6362 0
M  V30 27 H 3.2186 1.4707 -1.6253 0
M  V30 28 H 3.8613 2.1982 0.6554 0
M  V30 END ATOM
M  V30 BEGIN BOND
M  V30 1 1 1 2
M  V30 2 1 2 3
M  V30 3 1 2 4
M  V30 4 1 3 5
M  V30 5 1 3 6
M  V30 6 1 5 7
M  V30 7 2 7 8
M  V30 8 1 7 9
M  V30 9 1 8 10
M  V30 10 2 9 11
M  V30 11 2 10 12
M  V30 12 1 11 12
M  V30 13 1 1 13
M  V30 14 1 2 14
M  V30 15 1 3 15
M  V30 16 1 4 16
M  V30 17 1 4 17
M  V30 18 1 4 18
M  V30 19 1 5 19
M  V30 20 1 5 20
M  V30 21 1 6 21
M  V30 22 1 6 22
M  V30 23 1 6 23
M  V30 24 1 8 24
M  V30 25 1 9 25
M  V30 26 1 10 26
M  V30 27 1 11 27
M  V30 28 1 12 28
M  V30 END BOND
M  V30 BEGIN COLLECTION
M  V30 MDLV30/STEABS ATOMS=(2 2 3)
M  V30 END COLLECTION
M  V30 END CTAB
M  END
>  <Structure No>
488

>  <LogS>
-1.69697299

>  <MMFF94 Energy>
28.712

$$$$
Compound 489
Actelion Java MolfileCreator 2.0

  0  0  0  0  0  0              0 V3000
M  V30 BEGIN CTAB
M  V30 COUNTS 35 34 0 0 0
M  V30 BEGIN ATOM
M  V30 1 O -1.4103 1.8023 -1.0184 0
M  V30 2 C -0.801 1.5811 0.065 0
M  V30 3 O -0.7096 2.5754 1.0461 0
M  V30 4 C -0.1683 0.2419 0.3152 0
M  V30 5 C -1.2192 3.8962 0.8748 0
M  V30 6 C -1.2285 -0.8235 0.3262 0
M  V30 7 C 0.9228 -0.0425 -0.74 0
M  V30 8 C -0.3071 4.7102 -0.0354 0
M  V30 9 O -1.5495 -1.3728 1.4155 0
M  V30 10 O -1.8626 -1.1853 -0.8686 0
M  V30 11 C 1.6391 -1.3985 -0.5671 0
M  V30 12 C -2.8007 -2.2543 -0.9658 0
M  V30 13 C 2.3546 -1.5893 0.7816 0
M  V30 14 C -2.0851 -3.5994 -0.925 0
M  V30 15 C 3.4483 -0.5515 1.03 0
M  V30 16 H 0.311 0.2852 1.3169 0
M  V30 17 H -2.2501 3.8635 0.4601 0
M  V30 18 H -1.2634 4.3895 1.8686 0
M  V30 19 H 0.466 -0.0277 -1.7544 0
M  V30 20 H 1.6749 0.7753 -0.723 0
M  V30 21 H 0.7216 4.7334 0.3821 0
M  V30 22 H -0.6881 5.7502 -0.1123 0
M  V30 23 H -0.2772 4.2657 -1.0518 0
M  V30 24 H 0.9041 -2.2216 -0.6975 0
M  V30 25 H 2.3847 -1.5071 -1.3846 0
M  V30 26 H -3.5494 -2.1892 -0.1465 0
M  V30 27 H -3.3391 -2.1654 -1.9327 0
M  V30 28 H 1.6247 -1.5749 1.6179 0
M  V30 29 H 2.8251 -2.5962 0.7821 0
M  V30 30 H -1.5696 -3.7343 0.0485 0
M  V30 31 H -2.8227 -4.419 -1.0551 0
M  V30 32 H -1.3365 -3.6545 -1.7434 0
M  V30 33 H 4.0227 -0.8311 1.9381 0
M  V30 34 H 4.147 -0.5091 0.1678 0
M  V30 35 H 3.0048 0.4516 1.1992 0
M  V30 END ATOM
M  V30 BEGIN BOND
M  V30 1 2 1 2
M  V30 2 1 2 3
M  V30 3 1 2 4
M  V30 4 1 3 5
M  V30 5 1 4 6
M  V30 6 1 4 7
M  V30 7 1 5 8
M  V30 8 2 6 9
M  V30 9 1 6 10
M  V30 10 1 7 11
M  V30 11 1 10 12
M  V30 12 1 11 13
M  V30 13 1 12 14
M  V30 14 1 13 15
M  V30 15 1 4 16
M  V30 16 1 5 17
M  V30 17 1 5 18
M  V30 18 1 7 19
M  V30 19 1 7 20
M  V30 20 1 8 21
M  V30 21 1 8 22
M  V30 22 1 8 23
M  V30 23 1 11 24
M  V30 24 1 11 25
M  V30 25 1 12 26
M  V30 26 1 12 27
M  V30 27 1 13 28
M  V30 28 1 13 29
M  V30 29 1 14 30
M  V30 30 1 14 31
M  V30 31 1 14 32
M  V30 32 1 15 33
M  V30 33 1 15 34
M  V30 34 1 15 35
M  V30 END BOND
M  V30 END CTAB
M  END
>  <Structure No>
489

>  <LogS>
-2.816496397

>  <MMFF94 Energy>
-33.867

$$$$
Compound 490
Actelion Java MolfileCreator 2.0

  0  0  0  0  0  0              0 V3000
M  V30 BEGIN CTAB
M  V30 COUNTS 52 52 0 0 0
M  V30 BEGIN ATOM
M  V30 1 O -3.6729 -0.8586 -1.4835 0
M  V30 2 C -5.0519 -0.611 -1.461 0
M  V30 3 C -5.6181 -0.7693 -0.0475 0
M  V30 4 N -5.0829 0.2586 0.8489 0
M  V30 5 C -3.9189 0.1933 1.6677 0
M  V30 6 C -5.7849 1.4881 1.1848 0
M  V30 7 N -3.7949 1.2155 2.4429 0 CHG=1
M  V30 8 C -2.9209 -0.9342 1.6651 0
M  V30 9 C -4.8934 2.1503 2.2485 0
M  V30 10 C -1.569 -0.4688 1.1122 0
M  V30 11 C -0.5997 -1.6514 0.966 0
M  V30 12 C 0.8415 -1.2047 0.677 0
M  V30 13 C 0.9923 -0.5342 -0.7002 0
M  V30 14 C 2.464 -0.3424 -1.1005 0
M  V30 15 C 3.1851 0.6914 -0.2182 0
M  V30 16 C 4.5914 1.03 -0.7367 0
M  V30 17 C 5.573 -0.1464 -0.5908 0
M  V30 18 C 7.0339 0.2712 -0.8238 0
M  V30 19 C 7.3104 0.675 -2.2735 0
M  V30 20 H -3.5581 -1.842 -1.4122 0
M  V30 21 H -5.5782 -1.3056 -2.1545 0
M  V30 22 H -5.2351 0.4245 -1.8195 0
M  V30 23 H -6.7238 -0.6658 -0.1019 0
M  V30 24 H -5.4164 -1.7855 0.3514 0
M  V30 25 H -6.7878 1.254 1.6035 0
M  V30 26 H -5.8812 2.132 0.2833 0
M  V30 27 H -3.0104 1.3573 3.1208 0
M  V30 28 H -2.7873 -1.2911 2.71 0
M  V30 29 H -3.2926 -1.7908 1.07 0
M  V30 30 H -4.4999 3.1265 1.888 0
M  V30 31 H -5.447 2.2882 3.2032 0
M  V30 32 H -1.7204 0.0085 0.122 0
M  V30 33 H -1.1346 0.286 1.802 0
M  V30 34 H -0.5914 -2.2343 1.9144 0
M  V30 35 H -0.9541 -2.3287 0.1571 0
M  V30 36 H 1.1739 -0.5107 1.4786 0
M  V30 37 H 1.4924 -2.1055 0.7173 0
M  V30 38 H 0.5073 -1.1728 -1.4709 0
M  V30 39 H 0.4784 0.4513 -0.7044 0
M  V30 40 H 2.4909 0.003 -2.1571 0
M  V30 41 H 2.9872 -1.3212 -1.0513 0
M  V30 42 H 2.5889 1.6301 -0.2015 0
M  V30 43 H 3.2611 0.3204 0.8262 0
M  V30 44 H 4.9717 1.895 -0.1517 0
M  V30 45 H 4.5256 1.3435 -1.8001 0
M  V30 46 H 5.4976 -0.5587 0.4399 0
M  V30 47 H 5.3049 -0.9583 -1.3012 0
M  V30 48 H 7.6889 -0.5908 -0.5695 0
M  V30 49 H 7.3053 1.1102 -0.1449 0
M  V30 50 H 6.9984 -0.1338 -2.9688 0
M  V30 51 H 8.3984 0.856 -2.4055 0
M  V30 52 H 6.7722 1.6115 -2.5291 0
M  V30 END ATOM
M  V30 BEGIN BOND
M  V30 1 1 1 2
M  V30 2 1 2 3
M  V30 3 1 3 4
M  V30 4 1 4 5
M  V30 5 1 4 6
M  V30 6 2 5 7
M  V30 7 1 5 8
M  V30 8 1 6 9
M  V30 9 1 8 10
M  V30 10 1 10 11
M  V30 11 1 11 12
M  V30 12 1 12 13
M  V30 13 1 13 14
M  V30 14 1 14 15
M  V30 15 1 15 16
M  V30 16 1 16 17
M  V30 17 1 17 18
M  V30 18 1 18 19
M  V30 19 1 7 9
M  V30 20 1 1 20
M  V30 21 1 2 21
M  V30 22 1 2 22
M  V30 23 1 3 23
M  V30 24 1 3 24
M  V30 25 1 6 25
M  V30 26 1 6 26
M  V30 27 1 7 27
M  V30 28 1 8 28
M  V30 29 1 8 29
M  V30 30 1 9 30
M  V30 31 1 9 31
M  V30 32 1 10 32
M  V30 33 1 10 33
M  V30 34 1 11 34
M  V30 35 1 11 35
M  V30 36 1 12 36
M  V30 37 1 12 37
M  V30 38 1 13 38
M  V30 39 1 13 39
M  V30 40 1 14 40
M  V30 41 1 14 41
M  V30 42 1 15 42
M  V30 43 1 15 43
M  V30 44 1 16 44
M  V30 45 1 16 45
M  V30 46 1 17 46
M  V30 47 1 17 47
M  V30 48 1 18 48
M  V30 49 1 18 49
M  V30 50 1 19 50
M  V30 51 1 19 51
M  V30 52 1 19 52
M  V30 END BOND
M  V30 END CTAB
M  END
>  <Structure No>
490

>  <LogS>
-3.898655621

>  <MMFF94 Energy>
39.129

$$$$
Compound 491
Actelion Java MolfileCreator 2.0

  0  0  0  0  0  0              0 V3000
M  V30 BEGIN CTAB
M  V30 COUNTS 15 15 0 0 0
M  V30 BEGIN ATOM
M  V30 1 Cl 3.7834 0.3358 -0.2519 0
M  V30 2 C 2.0386 0.2 -0.1311 0
M  V30 3 C 1.4509 -1.0348 0.1591 0
M  V30 4 C 1.2329 1.3242 -0.3355 0
M  V30 5 C 0.06 -1.1456 0.2533 0
M  V30 6 C -0.1582 1.2173 -0.2419 0
M  V30 7 C -0.7578 -0.0147 0.0759 0
M  V30 8 C -2.2595 -0.1426 0.1278 0
M  V30 9 F -2.6348 -1.1431 1.0078 0
M  V30 10 F -2.8369 1.0427 0.5496 0
M  V30 11 F -2.7338 -0.4507 -1.1334 0
M  V30 12 H 2.0699 -1.9108 0.3059 0
M  V30 13 H 1.6827 2.2801 -0.5725 0
M  V30 14 H -0.3757 -2.1144 0.4625 0
M  V30 15 H -0.7648 2.0964 -0.4202 0
M  V30 END ATOM
M  V30 BEGIN BOND
M  V30 1 1 1 2
M  V30 2 2 2 3
M  V30 3 1 2 4
M  V30 4 1 3 5
M  V30 5 2 4 6
M  V30 6 2 5 7
M  V30 7 1 7 8
M  V30 8 1 8 9
M  V30 9 1 8 10
M  V30 10 1 8 11
M  V30 11 1 6 7
M  V30 12 1 3 12
M  V30 13 1 4 13
M  V30 14 1 5 14
M  V30 15 1 6 15
M  V30 END BOND
M  V30 END CTAB
M  END
>  <Structure No>
491

>  <LogS>
-3.727695225

>  <MMFF94 Energy>
42.871

$$$$
Compound 492
Actelion Java MolfileCreator 2.0

  0  0  0  0  0  0              0 V3000
M  V30 BEGIN CTAB
M  V30 COUNTS 24 25 0 0 0
M  V30 BEGIN ATOM
M  V30 1 O 4.855 -0.0794 -0.8741 0
M  V30 2 C 3.4817 -0.0521 -0.6421 0
M  V30 3 C 2.6301 0.5014 -1.602 0
M  V30 4 C 2.9467 -0.5735 0.5424 0
M  V30 5 C 1.2496 0.5353 -1.3834 0
M  V30 6 C 1.5669 -0.5405 0.765 0
M  V30 7 C 0.7017 0.0145 -0.1962 0
M  V30 8 C -0.7645 0.0501 0.038 0
M  V30 9 C -1.6635 -0.227 -1.0086 0
M  V30 10 C -1.2785 0.3618 1.3107 0
M  V30 11 C -3.0433 -0.1935 -0.7859 0
M  V30 12 C -2.659 0.3953 1.5292 0
M  V30 13 C -3.5449 0.1174 0.4809 0
M  V30 14 O -4.9222 0.1474 0.6875 0
M  V30 15 H 5.4984 -0.4736 -0.1978 0
M  V30 16 H 3.0389 0.9093 -2.5177 0
M  V30 17 H 3.5985 -1.0076 1.2898 0
M  V30 18 H 0.6127 0.9849 -2.1347 0
M  V30 19 H 1.1753 -0.9652 1.6807 0
M  V30 20 H -1.2999 -0.4872 -1.9946 0
M  V30 21 H -0.6139 0.5972 2.1324 0
M  V30 22 H -3.7238 -0.4129 -1.5986 0
M  V30 23 H -3.0388 0.6409 2.5128 0
M  V30 24 H -5.3169 0.3692 1.5941 0
M  V30 END ATOM
M  V30 BEGIN BOND
M  V30 1 1 1 2
M  V30 2 2 2 3
M  V30 3 1 2 4
M  V30 4 1 3 5
M  V30 5 2 4 6
M  V30 6 2 5 7
M  V30 7 1 7 8
M  V30 8 2 8 9
M  V30 9 1 8 10
M  V30 10 1 9 11
M  V30 11 2 10 12
M  V30 12 2 11 13
M  V30 13 1 13 14
M  V30 14 1 6 7
M  V30 15 1 12 13
M  V30 16 1 1 15
M  V30 17 1 3 16
M  V30 18 1 4 17
M  V30 19 1 5 18
M  V30 20 1 6 19
M  V30 21 1 9 20
M  V30 22 1 10 21
M  V30 23 1 11 22
M  V30 24 1 12 23
M  V30 25 1 14 24
M  V30 END BOND
M  V30 END CTAB
M  END
>  <Structure No>
492

>  <LogS>
-3.742373099

>  <MMFF94 Energy>
16.751

$$$$
Compound 493
Actelion Java MolfileCreator 2.0

  0  0  0  0  0  0              0 V3000
M  V30 BEGIN CTAB
M  V30 COUNTS 34 34 0 0 0
M  V30 BEGIN ATOM
M  V30 1 O -2.7465 -0.0783 0.2351 0
M  V30 2 C -3.5896 0.9641 0.6285 0
M  V30 3 C -1.3262 0.0305 0.2859 0 CFG=1
M  V30 4 C -4.9133 0.8384 0.5485 0
M  V30 5 C -0.7154 -1.3708 0.131 0
M  V30 6 C -0.8256 0.9656 -0.8312 0
M  V30 7 C -5.5606 -0.4098 0.0374 0
M  V30 8 C 0.8171 -1.3094 0.1192 0
M  V30 9 C 0.7066 1.0355 -0.8486 0
M  V30 10 C 1.3165 -0.3705 -0.9938 0 CFG=1
M  V30 11 O 2.7453 -0.3148 -1.0225 0
M  V30 12 C 3.5278 0.1583 0.0351 0
M  V30 13 C 4.8529 0.1733 -0.0804 0
M  V30 14 C 5.7196 0.6724 1.03 0
M  V30 15 H -3.1688 1.889 1.0053 0
M  V30 16 H -1.0258 0.4416 1.2768 0
M  V30 17 H -5.5414 1.6636 0.8614 0
M  V30 18 H -1.047 -2.0117 0.9764 0
M  V30 19 H -1.0766 -1.8367 -0.8123 0
M  V30 20 H -1.229 1.9886 -0.671 0
M  V30 21 H -1.1938 0.6042 -1.8167 0
M  V30 22 H -6.6644 -0.2943 0.0574 0
M  V30 23 H -5.2794 -1.2729 0.6773 0
M  V30 24 H -5.2398 -0.6033 -1.0079 0
M  V30 25 H 1.2224 -2.3301 -0.0504 0
M  V30 26 H 1.1736 -0.959 1.112 0
M  V30 27 H 1.0576 1.5157 0.0901 0
M  V30 28 H 1.0339 1.6688 -1.7011 0
M  V30 29 H 0.9862 -0.7889 -1.9703 0
M  V30 30 H 3.0619 0.5128 0.9473 0
M  V30 31 H 5.3156 -0.1813 -0.9932 0
M  V30 32 H 5.5585 0.0593 1.9419 0
M  V30 33 H 6.7868 0.6003 0.7333 0
M  V30 34 H 5.4794 1.7339 1.2511 0
M  V30 END ATOM
M  V30 BEGIN BOND
M  V30 1 1 1 2
M  V30 2 1 1 3
M  V30 3 2 2 4
M  V30 4 1 3 5
M  V30 5 1 3 6
M  V30 6 1 4 7
M  V30 7 1 5 8
M  V30 8 1 6 9
M  V30 9 1 8 10
M  V30 10 1 10 11
M  V30 11 1 11 12
M  V30 12 2 12 13
M  V30 13 1 13 14
M  V30 14 1 9 10
M  V30 15 1 2 15
M  V30 16 1 3 16
M  V30 17 1 4 17
M  V30 18 1 5 18
M  V30 19 1 5 19
M  V30 20 1 6 20
M  V30 21 1 6 21
M  V30 22 1 7 22
M  V30 23 1 7 23
M  V30 24 1 7 24
M  V30 25 1 8 25
M  V30 26 1 8 26
M  V30 27 1 9 27
M  V30 28 1 9 28
M  V30 29 1 10 29
M  V30 30 1 12 30
M  V30 31 1 13 31
M  V30 32 1 14 32
M  V30 33 1 14 33
M  V30 34 1 14 34
M  V30 END BOND
M  V30 BEGIN COLLECTION
M  V30 MDLV30/STEABS ATOMS=(2 3 10)
M  V30 END COLLECTION
M  V30 END CTAB
M  END
>  <Structure No>
493

>  <LogS>
-3.903732091

>  <MMFF94 Energy>
22.459

$$$$
Compound 494
Actelion Java MolfileCreator 2.0

  0  0  0  0  0  0              0 V3000
M  V30 BEGIN CTAB
M  V30 COUNTS 46 46 0 0 0
M  V30 BEGIN ATOM
M  V30 1 O -1.4191 5.053 0.5517 0
M  V30 2 C -1.3992 3.8112 0.3446 0
M  V30 3 O -2.4109 3.2505 -0.4521 0
M  V30 4 C -0.2743 3.0023 0.9298 0
M  V30 5 C -2.5147 1.8753 -0.8288 0
M  V30 6 C 0.8727 2.8192 -0.0749 0
M  V30 7 C -3.2507 1.0568 0.2411 0
M  V30 8 C 1.8648 1.7587 0.4254 0
M  V30 9 C -3.7087 -0.3232 -0.2706 0
M  V30 10 C 2.792 1.2504 -0.6971 0
M  V30 11 C -2.584 -1.2218 -0.8214 0
M  V30 12 C 3.3547 -0.1444 -0.375 0
M  V30 13 C -1.5992 -1.6906 0.252 0
M  V30 14 C 2.3202 -1.255 -0.652 0
M  V30 15 O -0.6027 -2.4817 -0.3621 0
M  V30 16 C 2.5965 -2.5091 0.1886 0
M  V30 17 C 0.1498 -3.1704 0.6172 0
M  V30 18 C 1.5089 -3.5873 0.0298 0
M  V30 19 H 0.1165 3.513 1.8371 0
M  V30 20 H -0.6636 2.0203 1.2598 0
M  V30 21 H -1.5148 1.4455 -1.0308 0
M  V30 22 H -3.0941 1.8304 -1.7754 0
M  V30 23 H 1.403 3.7857 -0.2198 0
M  V30 24 H 0.4606 2.5117 -1.0585 0
M  V30 25 H -2.621 0.9322 1.1437 0
M  V30 26 H -4.1556 1.6211 0.5555 0
M  V30 27 H 2.4805 2.1875 1.2461 0
M  V30 28 H 1.2977 0.91 0.8619 0
M  V30 29 H -4.23 -0.8559 0.5542 0
M  V30 30 H -4.4576 -0.1687 -1.0778 0
M  V30 31 H 3.634 1.9668 -0.8136 0
M  V30 32 H 2.2583 1.2056 -1.6722 0
M  V30 33 H -2.0372 -0.7079 -1.6391 0
M  V30 34 H -3.0553 -2.1223 -1.2723 0
M  V30 35 H 4.2518 -0.33 -1.0049 0
M  V30 36 H 3.6883 -0.1627 0.6863 0
M  V30 37 H -1.1213 -0.8069 0.7288 0
M  V30 38 H -2.1634 -2.2703 1.0199 0
M  V30 39 H 2.3435 -1.5173 -1.7322 0
M  V30 40 H 1.3017 -0.8861 -0.4279 0
M  V30 41 H 3.5724 -2.9399 -0.1245 0
M  V30 42 H 2.6799 -2.236 1.2637 0
M  V30 43 H -0.4057 -4.0897 0.9064 0
M  V30 44 H 0.3169 -2.5658 1.5408 0
M  V30 45 H 1.3976 -3.8649 -1.0412 0
M  V30 46 H 1.8559 -4.4958 0.5688 0
M  V30 END ATOM
M  V30 BEGIN BOND
M  V30 1 2 1 2
M  V30 2 1 2 3
M  V30 3 1 2 4
M  V30 4 1 3 5
M  V30 5 1 4 6
M  V30 6 1 5 7
M  V30 7 1 6 8
M  V30 8 1 7 9
M  V30 9 1 8 10
M  V30 10 1 9 11
M  V30 11 1 10 12
M  V30 12 1 11 13
M  V30 13 1 12 14
M  V30 14 1 13 15
M  V30 15 1 14 16
M  V30 16 1 15 17
M  V30 17 1 16 18
M  V30 18 1 17 18
M  V30 19 1 4 19
M  V30 20 1 4 20
M  V30 21 1 5 21
M  V30 22 1 5 22
M  V30 23 1 6 23
M  V30 24 1 6 24
M  V30 25 1 7 25
M  V30 26 1 7 26
M  V30 27 1 8 27
M  V30 28 1 8 28
M  V30 29 1 9 29
M  V30 30 1 9 30
M  V30 31 1 10 31
M  V30 32 1 10 32
M  V30 33 1 11 33
M  V30 34 1 11 34
M  V30 35 1 12 35
M  V30 36 1 12 36
M  V30 37 1 13 37
M  V30 38 1 13 38
M  V30 39 1 14 39
M  V30 40 1 14 40
M  V30 41 1 16 41
M  V30 42 1 16 42
M  V30 43 1 17 43
M  V30 44 1 17 44
M  V30 45 1 18 45
M  V30 46 1 18 46
M  V30 END BOND
M  V30 END CTAB
M  END
>  <Structure No>
494

>  <LogS>
-3.8838495

>  <MMFF94 Energy>
3.9928

$$$$
Compound 495
Actelion Java MolfileCreator 2.0

  0  0  0  0  0  0              0 V3000
M  V30 BEGIN CTAB
M  V30 COUNTS 62 61 0 0 0
M  V30 BEGIN ATOM
M  V30 1 C 1.478 1.7894 -3.1136 0 CFG=1
M  V30 2 C 0.0253 1.2515 -3.224 0
M  V30 3 C 1.8096 2.4785 -1.761 0
M  V30 4 C 2.5585 0.8051 -3.5895 0
M  V30 5 C -0.1592 -0.2308 -2.8391 0
M  V30 6 C 1.5023 1.7112 -0.4554 0
M  V30 7 C -1.6388 -0.6392 -2.7652 0
M  V30 8 C 2.4595 0.5603 -0.0941 0
M  V30 9 C -2.319 -0.1505 -1.4764 0
M  V30 10 C 3.9277 1.0031 0.0256 0
M  V30 11 C -3.7501 -0.6986 -1.3712 0
M  V30 12 C 4.83 -0.1058 0.5909 0
M  V30 13 C -4.5306 -0.1021 -0.1892 0
M  V30 14 C 4.7121 -0.2414 2.1163 0
M  V30 15 C -4.0351 -0.6207 1.1718 0
M  V30 16 C 5.668 -1.3163 2.646 0
M  V30 17 C -4.8309 -0.0346 2.3497 0
M  V30 18 C 5.5464 -1.4658 4.1597 0
M  V30 19 C -6.237 -0.6402 2.4756 0
M  V30 20 C -6.9515 -0.1158 3.7185 0
M  V30 21 H 1.5289 2.6214 -3.8531 0
M  V30 22 H -0.6417 1.8995 -2.6187 0
M  V30 23 H -0.3093 1.3645 -4.2792 0
M  V30 24 H 1.2013 3.4099 -1.7212 0
M  V30 25 H 2.8613 2.8318 -1.7652 0
M  V30 26 H 2.5938 -0.113 -2.9771 0
M  V30 27 H 2.3553 0.5077 -4.6402 0
M  V30 28 H 3.5578 1.2886 -3.5596 0
M  V30 29 H 0.3326 -0.4666 -1.8772 0
M  V30 30 H 0.3258 -0.8589 -3.6169 0
M  V30 31 H 0.4586 1.3377 -0.4675 0
M  V30 32 H 1.5403 2.4455 0.3789 0
M  V30 33 H -2.1834 -0.2537 -3.6547 0
M  V30 34 H -1.69 -1.7498 -2.7942 0
M  V30 35 H 2.1177 0.1548 0.8805 0
M  V30 36 H 2.3757 -0.2701 -0.8171 0
M  V30 37 H -2.3549 0.9594 -1.4673 0
M  V30 38 H -1.7251 -0.4932 -0.6029 0
M  V30 39 H 4.3077 1.2557 -0.9867 0
M  V30 40 H 4.0059 1.9155 0.656 0
M  V30 41 H -4.2998 -0.4444 -2.304 0
M  V30 42 H -3.7266 -1.8072 -1.2864 0
M  V30 43 H 4.59 -1.0747 0.1013 0
M  V30 44 H 5.884 0.1447 0.3396 0
M  V30 45 H -4.4676 1.008 -0.2185 0
M  V30 46 H -5.5964 -0.3826 -0.3221 0
M  V30 47 H 4.9582 0.7329 2.5926 0
M  V30 48 H 3.6731 -0.5162 2.3933 0
M  V30 49 H -4.0836 -1.7319 1.1982 0
M  V30 50 H -2.9734 -0.3251 1.3097 0
M  V30 51 H 5.434 -2.293 2.1686 0
M  V30 52 H 6.716 -1.0439 2.3953 0
M  V30 53 H -4.9007 1.0704 2.2459 0
M  V30 54 H -4.2666 -0.2474 3.2841 0
M  V30 55 H 6.2458 -2.2525 4.5133 0
M  V30 56 H 5.8028 -0.5092 4.6631 0
M  V30 57 H 4.512 -1.7603 4.4363 0
M  V30 58 H -6.1663 -1.7477 2.5439 0
M  V30 59 H -6.8487 -0.3799 1.5867 0
M  V30 60 H -7.9702 -0.5534 3.7752 0
M  V30 61 H -7.0421 0.9901 3.674 0
M  V30 62 H -6.3917 -0.4003 4.6349 0
M  V30 END ATOM
M  V30 BEGIN BOND
M  V30 1 1 1 2
M  V30 2 1 1 3
M  V30 3 1 1 4
M  V30 4 1 2 5
M  V30 5 1 3 6
M  V30 6 1 5 7
M  V30 7 1 6 8
M  V30 8 1 7 9
M  V30 9 1 8 10
M  V30 10 1 9 11
M  V30 11 1 10 12
M  V30 12 1 11 13
M  V30 13 1 12 14
M  V30 14 1 13 15
M  V30 15 1 14 16
M  V30 16 1 15 17
M  V30 17 1 16 18
M  V30 18 1 17 19
M  V30 19 1 19 20
M  V30 20 1 1 21
M  V30 21 1 2 22
M  V30 22 1 2 23
M  V30 23 1 3 24
M  V30 24 1 3 25
M  V30 25 1 4 26
M  V30 26 1 4 27
M  V30 27 1 4 28
M  V30 28 1 5 29
M  V30 29 1 5 30
M  V30 30 1 6 31
M  V30 31 1 6 32
M  V30 32 1 7 33
M  V30 33 1 7 34
M  V30 34 1 8 35
M  V30 35 1 8 36
M  V30 36 1 9 37
M  V30 37 1 9 38
M  V30 38 1 10 39
M  V30 39 1 10 40
M  V30 40 1 11 41
M  V30 41 1 11 42
M  V30 42 1 12 43
M  V30 43 1 12 44
M  V30 44 1 13 45
M  V30 45 1 13 46
M  V30 46 1 14 47
M  V30 47 1 14 48
M  V30 48 1 15 49
M  V30 49 1 15 50
M  V30 50 1 16 51
M  V30 51 1 16 52
M  V30 52 1 17 53
M  V30 53 1 17 54
M  V30 54 1 18 55
M  V30 55 1 18 56
M  V30 56 1 18 57
M  V30 57 1 19 58
M  V30 58 1 19 59
M  V30 59 1 20 60
M  V30 60 1 20 61
M  V30 61 1 20 62
M  V30 END BOND
M  V30 BEGIN COLLECTION
M  V30 MDLV30/STEABS ATOMS=(1 1)
M  V30 END COLLECTION
M  V30 END CTAB
M  END
>  <Structure No>
495

>  <LogS>
-6.451104534

>  <MMFF94 Energy>
0.95835

$$$$
Compound 496
Actelion Java MolfileCreator 2.0

  0  0  0  0  0  0              0 V3000
M  V30 BEGIN CTAB
M  V30 COUNTS 12 11 0 0 0
M  V30 BEGIN ATOM
M  V30 1 O 2.4897 -2.1004 0.2332 0
M  V30 2 C 1.8144 -1.0381 0.2257 0
M  V30 3 N 0.3872 -1.1177 0.2113 0
M  V30 4 N 2.4848 0.2244 0.2319 0
M  V30 5 N -0.3383 -0.0734 0.2035 0
M  V30 6 C -1.7637 -0.1632 0.1891 0
M  V30 7 O -2.333 -1.288 0.1841 0
M  V30 8 N -2.5472 1.0274 0.1806 0
M  V30 9 H 1.9513 1.1216 0.2259 0
M  V30 10 H 3.5282 0.2633 0.2424 0
M  V30 11 H -2.0839 1.963 0.1847 0
M  V30 12 H -3.5901 0.9747 0.17 0
M  V30 END ATOM
M  V30 BEGIN BOND
M  V30 1 2 1 2
M  V30 2 1 2 3
M  V30 3 1 2 4
M  V30 4 2 3 5
M  V30 5 1 5 6
M  V30 6 2 6 7
M  V30 7 1 6 8
M  V30 8 1 4 9
M  V30 9 1 4 10
M  V30 10 1 8 11
M  V30 11 1 8 12
M  V30 END BOND
M  V30 END CTAB
M  END
>  <Structure No>
496

>  <LogS>
-3.54624346

>  <MMFF94 Energy>
-83.3

$$$$
Compound 497
Actelion Java MolfileCreator 2.0

  0  0  0  0  0  0              0 V3000
M  V30 BEGIN CTAB
M  V30 COUNTS 37 37 0 0 0
M  V30 BEGIN ATOM
M  V30 1 O -2.5144 -2.3571 -0.157 0
M  V30 2 C -1.2782 -1.7157 -0.0948 0
M  V30 3 C -1.184 -0.2987 -0.0832 0
M  V30 4 C -0.1239 -2.502 -0.0438 0
M  V30 5 C 0.1153 0.2679 -0.0185 0
M  V30 6 C -2.4571 0.5909 -0.1393 0
M  V30 7 C 1.1369 -1.9208 0.0192 0
M  V30 8 C 1.2862 -0.5209 0.0333 0
M  V30 9 C -3.3589 0.303 1.083 0
M  V30 10 C -2.1418 2.1093 -0.1166 0
M  V30 11 C -3.2385 0.3157 -1.4447 0
M  V30 12 C 2.6685 0.1661 0.1028 0
M  V30 13 C 2.8676 1.0537 -1.1455 0
M  V30 14 C 3.8454 -0.8385 0.1538 0
M  V30 15 C 2.7475 1.041 1.3733 0
M  V30 16 H -2.5954 -3.3673 -0.1659 0
M  V30 17 H -0.2048 -3.5819 -0.053 0
M  V30 18 H 0.2401 1.3361 -0.007 0
M  V30 19 H 1.9835 -2.5895 0.0563 0
M  V30 20 H -4.2241 1.0009 1.1084 0
M  V30 21 H -3.7786 -0.7212 1.0672 0
M  V30 22 H -2.7824 0.43 2.0248 0
M  V30 23 H -1.6131 2.3923 0.8194 0
M  V30 24 H -1.5266 2.4015 -0.9953 0
M  V30 25 H -3.0769 2.71 -0.1582 0
M  V30 26 H -2.5752 0.4519 -2.3261 0
M  V30 27 H -4.0977 1.0142 -1.5451 0
M  V30 28 H -3.6573 -0.7085 -1.4789 0
M  V30 29 H 2.7664 0.4463 -2.071 0
M  V30 30 H 3.8771 1.5191 -1.1417 0
M  V30 31 H 2.1251 1.8778 -1.1868 0
M  V30 32 H 3.7759 -1.485 1.0554 0
M  V30 33 H 3.8623 -1.4759 -0.7566 0
M  V30 34 H 4.819 -0.3037 0.203 0
M  V30 35 H 2.0041 1.8649 1.3524 0
M  V30 36 H 2.5592 0.4245 2.2789 0
M  V30 37 H 3.7527 1.5059 1.4702 0
M  V30 END ATOM
M  V30 BEGIN BOND
M  V30 1 1 1 2
M  V30 2 2 2 3
M  V30 3 1 2 4
M  V30 4 1 3 5
M  V30 5 1 3 6
M  V30 6 2 4 7
M  V30 7 2 5 8
M  V30 8 1 6 9
M  V30 9 1 6 10
M  V30 10 1 6 11
M  V30 11 1 8 12
M  V30 12 1 12 13
M  V30 13 1 12 14
M  V30 14 1 12 15
M  V30 15 1 7 8
M  V30 16 1 1 16
M  V30 17 1 4 17
M  V30 18 1 5 18
M  V30 19 1 7 19
M  V30 20 1 9 20
M  V30 21 1 9 21
M  V30 22 1 9 22
M  V30 23 1 10 23
M  V30 24 1 10 24
M  V30 25 1 10 25
M  V30 26 1 11 26
M  V30 27 1 11 27
M  V30 28 1 11 28
M  V30 29 1 13 29
M  V30 30 1 13 30
M  V30 31 1 13 31
M  V30 32 1 14 32
M  V30 33 1 14 33
M  V30 34 1 14 34
M  V30 35 1 15 35
M  V30 36 1 15 36
M  V30 37 1 15 37
M  V30 END BOND
M  V30 END CTAB
M  END
>  <Structure No>
497

>  <LogS>
-3.796046333

>  <MMFF94 Energy>
46.009

$$$$
Compound 498
Actelion Java MolfileCreator 2.0

  0  0  0  0  0  0              0 V3000
M  V30 BEGIN CTAB
M  V30 COUNTS 35 35 0 0 0
M  V30 BEGIN ATOM
M  V30 1 O 5.7485 -0.3143 0.7073 0
M  V30 2 C 5.0745 -0.8042 -0.1858 0
M  V30 3 C 3.6547 -0.3576 -0.4153 0 CFG=1
M  V30 4 C 2.795 -0.6587 0.8299 0
M  V30 5 C 3.6261 1.1309 -0.7886 0
M  V30 6 C 1.3266 -0.4309 0.571 0
M  V30 7 C 0.702 0.7461 1.0021 0
M  V30 8 C 0.5795 -1.3807 -0.1351 0
M  V30 9 C -0.6526 0.9685 0.7405 0
M  V30 10 C -0.7745 -1.1629 -0.3985 0
M  V30 11 C -1.4236 0.0155 0.0334 0
M  V30 12 C -2.9205 0.2192 -0.2799 0
M  V30 13 C -3.4784 1.5565 0.2648 0
M  V30 14 C -3.7405 -0.9239 0.3567 0
M  V30 15 C -3.1317 0.2116 -1.8095 0
M  V30 16 H 5.507 -1.5713 -0.8199 0
M  V30 17 H 3.2555 -0.9384 -1.2761 0
M  V30 18 H 2.9391 -1.7209 1.1287 0
M  V30 19 H 3.1368 -0.0376 1.6877 0
M  V30 20 H 3.9554 1.7587 0.0672 0
M  V30 21 H 4.2983 1.3212 -1.6528 0
M  V30 22 H 2.6005 1.4361 -1.0846 0
M  V30 23 H 1.2667 1.4987 1.5387 0
M  V30 24 H 1.0478 -2.2924 -0.4852 0
M  V30 25 H -1.0759 1.8948 1.0988 0
M  V30 26 H -1.3128 -1.9239 -0.9465 0
M  V30 27 H -3.381 1.605 1.371 0
M  V30 28 H -2.9484 2.4214 -0.1896 0
M  V30 29 H -4.5579 1.6621 0.0204 0
M  V30 30 H -3.4675 -1.9107 -0.0721 0
M  V30 31 H -4.828 -0.7749 0.1807 0
M  V30 32 H -3.5658 -0.9599 1.4539 0
M  V30 33 H -2.515 1.0027 -2.2884 0
M  V30 34 H -4.1981 0.3993 -2.0613 0
M  V30 35 H -2.8525 -0.7656 -2.2554 0
M  V30 END ATOM
M  V30 BEGIN BOND
M  V30 1 2 1 2
M  V30 2 1 2 3
M  V30 3 1 3 4
M  V30 4 1 3 5
M  V30 5 1 4 6
M  V30 6 2 6 7
M  V30 7 1 6 8
M  V30 8 1 7 9
M  V30 9 2 8 10
M  V30 10 2 9 11
M  V30 11 1 11 12
M  V30 12 1 12 13
M  V30 13 1 12 14
M  V30 14 1 12 15
M  V30 15 1 10 11
M  V30 16 1 2 16
M  V30 17 1 3 17
M  V30 18 1 4 18
M  V30 19 1 4 19
M  V30 20 1 5 20
M  V30 21 1 5 21
M  V30 22 1 5 22
M  V30 23 1 7 23
M  V30 24 1 8 24
M  V30 25 1 9 25
M  V30 26 1 10 26
M  V30 27 1 13 27
M  V30 28 1 13 28
M  V30 29 1 13 29
M  V30 30 1 14 30
M  V30 31 1 14 31
M  V30 32 1 14 32
M  V30 33 1 15 33
M  V30 34 1 15 34
M  V30 35 1 15 35
M  V30 END BOND
M  V30 BEGIN COLLECTION
M  V30 MDLV30/STEABS ATOMS=(1 3)
M  V30 END COLLECTION
M  V30 END CTAB
M  END
>  <Structure No>
498

>  <LogS>
-3.791782061

>  <MMFF94 Energy>
39.692

$$$$
Compound 499
Actelion Java MolfileCreator 2.0

  0  0  0  0  0  0              0 V3000
M  V30 BEGIN CTAB
M  V30 COUNTS 32 33 0 0 0
M  V30 BEGIN ATOM
M  V30 1 O 1.1095 -1.4267 -1.1888 0
M  V30 2 C 0.7296 -0.5728 -0.3416 0
M  V30 3 N 1.6975 0.0912 0.4933 0
M  V30 4 C -0.7189 -0.2789 -0.222 0
M  V30 5 C 3.1191 -0.0807 0.364 0
M  V30 6 C -1.2923 0.0949 1.0055 0
M  V30 7 C -1.5476 -0.4006 -1.3481 0
M  V30 8 C 3.7362 -0.1766 -0.8971 0
M  V30 9 C 3.9184 -0.0868 1.518 0
M  V30 10 C -2.6658 0.3657 1.1044 0
M  V30 11 C -2.9147 -0.1316 -1.2581 0
M  V30 12 C 5.1244 -0.3162 -0.9937 0
M  V30 13 C 5.3059 -0.2276 1.4173 0
M  V30 14 N -3.2203 0.7444 2.3701 0
M  V30 15 C -3.4874 0.2568 -0.0329 0
M  V30 16 C 5.9081 -0.3467 0.1625 0
M  V30 17 O -4.8585 0.5361 0.0885 0
M  V30 18 C -5.796 0.463 -0.9806 0
M  V30 19 H 1.3659 0.6988 1.2744 0
M  V30 20 H -0.6874 0.15 1.9004 0
M  V30 21 H -1.1343 -0.6922 -2.3059 0
M  V30 22 H 3.1534 -0.1156 -1.8063 0
M  V30 23 H 3.4629 0.0072 2.496 0
M  V30 24 H -3.5179 -0.2284 -2.1503 0
M  V30 25 H 5.5937 -0.3907 -1.9661 0
M  V30 26 H 5.9142 -0.2418 2.3125 0
M  V30 27 H -4.2381 0.9492 2.4802 0
M  V30 28 H -2.6125 0.8249 3.2157 0
M  V30 29 H 6.9824 -0.453 0.0857 0
M  V30 30 H -5.5151 1.176 -1.7843 0
M  V30 31 H -6.8016 0.7358 -0.6 0
M  V30 32 H -5.8369 -0.5711 -1.3827 0
M  V30 END ATOM
M  V30 BEGIN BOND
M  V30 1 2 1 2
M  V30 2 1 2 3
M  V30 3 1 2 4
M  V30 4 1 3 5
M  V30 5 2 4 6
M  V30 6 1 4 7
M  V30 7 2 5 8
M  V30 8 1 5 9
M  V30 9 1 6 10
M  V30 10 2 7 11
M  V30 11 1 8 12
M  V30 12 2 9 13
M  V30 13 1 10 14
M  V30 14 2 10 15
M  V30 15 2 12 16
M  V30 16 1 15 17
M  V30 17 1 17 18
M  V30 18 1 11 15
M  V30 19 1 13 16
M  V30 20 1 3 19
M  V30 21 1 6 20
M  V30 22 1 7 21
M  V30 23 1 8 22
M  V30 24 1 9 23
M  V30 25 1 11 24
M  V30 26 1 12 25
M  V30 27 1 13 26
M  V30 28 1 14 27
M  V30 29 1 14 28
M  V30 30 1 16 29
M  V30 31 1 18 30
M  V30 32 1 18 31
M  V30 33 1 18 32
M  V30 END BOND
M  V30 END CTAB
M  END
>  <Structure No>
499

>  <LogS>
-3.86580004

>  <MMFF94 Energy>
43.344

$$$$
Compound 500
Actelion Java MolfileCreator 2.0

  0  0  0  0  0  0              0 V3000
M  V30 BEGIN CTAB
M  V30 COUNTS 2 1 0 0 0
M  V30 BEGIN ATOM
M  V30 1 O 0 0 0 0 CHG=1
M  V30 2 C 0 0 0 0
M  V30 END ATOM
M  V30 BEGIN BOND
M  V30 1 3 1 2
M  V30 END BOND
M  V30 END CTAB
M  END
>  <Structure No>
500

>  <LogS>
-2.928799169

>  <MMFF94 Energy>
Couldn't assign an atom type to atom 0 (O)

$$$$
Compound 501
Actelion Java MolfileCreator 2.0

  0  0  0  0  0  0              0 V3000
M  V30 BEGIN CTAB
M  V30 COUNTS 17 16 0 0 0
M  V30 BEGIN ATOM
M  V30 1 Cl -0.0788 -0.0788 2.2082 0
M  V30 2 C 0.3863 -0.0957 0.4772 0
M  V30 3 C -0.7598 -0.6972 -0.3773 0
M  V30 4 C 0.7304 1.3385 0.04 0
M  V30 5 C 1.6352 -0.9804 0.3364 0
M  V30 6 C -2.0662 0.1029 -0.3422 0
M  V30 7 H -0.978 -1.7272 -0.0189 0
M  V30 8 H -0.4321 -0.7796 -1.4372 0
M  V30 9 H 1.6227 1.7087 0.5896 0
M  V30 10 H -0.1068 2.0325 0.2628 0
M  V30 11 H 0.9471 1.3741 -1.0492 0
M  V30 12 H 1.9792 -1.0081 -0.7201 0
M  V30 13 H 2.4639 -0.5898 0.9657 0
M  V30 14 H 1.4144 -2.0196 0.6629 0
M  V30 15 H -2.8524 -0.4567 -0.8914 0
M  V30 16 H -2.4146 0.2558 0.6999 0
M  V30 17 H -1.9398 1.0862 -0.8407 0
M  V30 END ATOM
M  V30 BEGIN BOND
M  V30 1 1 1 2
M  V30 2 1 2 3
M  V30 3 1 2 4
M  V30 4 1 2 5
M  V30 5 1 3 6
M  V30 6 1 3 7
M  V30 7 1 3 8
M  V30 8 1 4 9
M  V30 9 1 4 10
M  V30 10 1 4 11
M  V30 11 1 5 12
M  V30 12 1 5 13
M  V30 13 1 5 14
M  V30 14 1 6 15
M  V30 15 1 6 16
M  V30 16 1 6 17
M  V30 END BOND
M  V30 END CTAB
M  END
>  <Structure No>
501

>  <LogS>
-2.51054501

>  <MMFF94 Energy>
8.0191

$$$$
Compound 502
Actelion Java MolfileCreator 2.0

  0  0  0  0  0  0              0 V3000
M  V30 BEGIN CTAB
M  V30 COUNTS 28 27 0 0 0
M  V30 BEGIN ATOM
M  V30 1 N 3.0181 -2.9385 0.5554 0
M  V30 2 C 3.0203 -1.7834 0.4861 0
M  V30 3 C 3.0218 -0.3181 0.398 0
M  V30 4 N 1.7333 0.2195 0.883 0
M  V30 5 C 1.8661 1.6071 1.3863 0
M  V30 6 C 0.6521 0.0814 -0.1222 0
M  V30 7 C 2.3769 2.5421 0.3656 0
M  V30 8 C -0.6911 -0.168 0.5735 0
M  V30 9 N 2.7774 3.2752 -0.4351 0
M  V30 10 N -1.7461 -0.4365 -0.4323 0
M  V30 11 C -2.3693 0.8253 -0.8878 0
M  V30 12 C -2.7709 -1.3568 0.1076 0
M  V30 13 C -2.9689 0.6413 -2.2149 0
M  V30 14 C -2.2758 -2.7387 0.0755 0
M  V30 15 N -3.4416 0.4959 -3.2611 0
M  V30 16 N -1.8846 -3.8274 0.0504 0
M  V30 17 H 3.2153 -0.0095 -0.6532 0
M  V30 18 H 3.8645 0.0457 1.0259 0
M  V30 19 H 0.888 1.9809 1.7532 0
M  V30 20 H 2.5551 1.621 2.2576 0
M  V30 21 H 0.8405 -0.7904 -0.7888 0
M  V30 22 H 0.593 0.9742 -0.7808 0
M  V30 23 H -0.5481 -1.0433 1.2474 0
M  V30 24 H -0.9678 0.6922 1.2231 0
M  V30 25 H -1.6159 1.636 -0.9842 0
M  V30 26 H -3.1471 1.1741 -0.172 0
M  V30 27 H -3.6958 -1.3317 -0.5091 0
M  V30 28 H -3.0501 -1.083 1.1499 0
M  V30 END ATOM
M  V30 BEGIN BOND
M  V30 1 3 1 2
M  V30 2 1 2 3
M  V30 3 1 3 4
M  V30 4 1 4 5
M  V30 5 1 4 6
M  V30 6 1 5 7
M  V30 7 1 6 8
M  V30 8 3 7 9
M  V30 9 1 8 10
M  V30 10 1 10 11
M  V30 11 1 10 12
M  V30 12 1 11 13
M  V30 13 1 12 14
M  V30 14 3 13 15
M  V30 15 3 14 16
M  V30 16 1 3 17
M  V30 17 1 3 18
M  V30 18 1 5 19
M  V30 19 1 5 20
M  V30 20 1 6 21
M  V30 21 1 6 22
M  V30 22 1 8 23
M  V30 23 1 8 24
M  V30 24 1 11 25
M  V30 25 1 11 26
M  V30 26 1 12 27
M  V30 27 1 12 28
M  V30 END BOND
M  V30 END CTAB
M  END
>  <Structure No>
502

>  <LogS>
-2.820404347

>  <MMFF94 Energy>
123.8

$$$$
Compound 503
Actelion Java MolfileCreator 2.0

  0  0  0  0  0  0              0 V3000
M  V30 BEGIN CTAB
M  V30 COUNTS 28 28 0 0 0
M  V30 BEGIN ATOM
M  V30 1 O 0.9469 -0.6312 -2.6057 0
M  V30 2 C 0.9236 -0.3241 -1.3825 0
M  V30 3 O -0.3002 -0.1568 -0.7376 0
M  V30 4 C 2.1848 -0.1415 -0.6321 0
M  V30 5 O -1.4597 -0.3176 -1.3997 0
M  V30 6 C 3.4302 -0.3065 -1.2672 0
M  V30 7 C 2.1547 0.2009 0.7323 0
M  V30 8 C -2.5163 -0.084 -0.4878 0
M  V30 9 C 4.6181 -0.1319 -0.5499 0
M  V30 10 C 3.3457 0.3742 1.4444 0
M  V30 11 C -2.472 -1.0995 0.6743 0
M  V30 12 C -2.4609 1.3594 0.0572 0
M  V30 13 C -3.8332 -0.2709 -1.2569 0
M  V30 14 C 4.5759 0.208 0.8042 0
M  V30 15 H 3.4868 -0.5698 -2.3159 0
M  V30 16 H 1.2128 0.335 1.2498 0
M  V30 17 H 5.5721 -0.2604 -1.0449 0
M  V30 18 H 3.3145 0.6377 2.4939 0
M  V30 19 H -2.4581 -2.1372 0.2772 0
M  V30 20 H -1.5648 -0.9525 1.2986 0
M  V30 21 H -3.3609 -0.9821 1.3314 0
M  V30 22 H -1.5537 1.5169 0.6789 0
M  V30 23 H -3.3493 1.5739 0.69 0
M  V30 24 H -2.4391 2.0867 -0.7826 0
M  V30 25 H -4.7098 -0.1007 -0.5945 0
M  V30 26 H -3.8966 -1.3013 -1.6687 0
M  V30 27 H -3.8887 0.4435 -2.1065 0
M  V30 28 H 5.4965 0.3427 1.3573 0
M  V30 END ATOM
M  V30 BEGIN BOND
M  V30 1 2 1 2
M  V30 2 1 2 3
M  V30 3 1 2 4
M  V30 4 1 3 5
M  V30 5 2 4 6
M  V30 6 1 4 7
M  V30 7 1 5 8
M  V30 8 1 6 9
M  V30 9 2 7 10
M  V30 10 1 8 11
M  V30 11 1 8 12
M  V30 12 1 8 13
M  V30 13 2 9 14
M  V30 14 1 10 14
M  V30 15 1 6 15
M  V30 16 1 7 16
M  V30 17 1 9 17
M  V30 18 1 10 18
M  V30 19 1 11 19
M  V30 20 1 11 20
M  V30 21 1 11 21
M  V30 22 1 12 22
M  V30 23 1 12 23
M  V30 24 1 12 24
M  V30 25 1 13 25
M  V30 26 1 13 26
M  V30 27 1 13 27
M  V30 28 1 14 28
M  V30 END BOND
M  V30 END CTAB
M  END
>  <Structure No>
503

>  <LogS>
-2.776432949

>  <MMFF94 Energy>
66.065

$$$$
Compound 504
Actelion Java MolfileCreator 2.0

  0  0  0  0  0  0              0 V3000
M  V30 BEGIN CTAB
M  V30 COUNTS 8 7 0 0 0
M  V30 BEGIN ATOM
M  V30 1 F 1.1694 1.3254 -0.1558 0
M  V30 2 C 0.7252 0.0177 -0.0885 0
M  V30 3 F 1.3143 -0.6095 0.9938 0
M  V30 4 C -0.7871 -0.0043 0.065 0
M  V30 5 H 1.0147 -0.5136 -1.0194 0
M  V30 6 H -1.262 0.4966 -0.8048 0
M  V30 7 H -1.0821 0.526 0.9951 0
M  V30 8 H -1.1457 -1.0541 0.1165 0
M  V30 END ATOM
M  V30 BEGIN BOND
M  V30 1 1 1 2
M  V30 2 1 2 3
M  V30 3 1 2 4
M  V30 4 1 2 5
M  V30 5 1 4 6
M  V30 6 1 4 7
M  V30 7 1 4 8
M  V30 END BOND
M  V30 END CTAB
M  END
>  <Structure No>
504

>  <LogS>
-1.314722844

>  <MMFF94 Energy>
0.1032

$$$$
Compound 505
Actelion Java MolfileCreator 2.0

  0  0  0  0  0  0              0 V3000
M  V30 BEGIN CTAB
M  V30 COUNTS 33 32 0 0 0
M  V30 BEGIN ATOM
M  V30 1 O -1.8586 0.9289 -1.7811 0
M  V30 2 C -2.0773 0.2357 -0.5737 0 CFG=1
M  V30 3 C -0.8395 0.3969 0.3602 0
M  V30 4 C -3.356 0.8221 0.0969 0
M  V30 5 C -2.298 -1.2482 -0.9307 0
M  V30 6 C 0.5005 0.0747 -0.3266 0
M  V30 7 C -3.78 0.1392 1.4021 0
M  V30 8 C 1.6786 0.3025 0.6345 0
M  V30 9 C 3.0535 0.1343 -0.0512 0
M  V30 10 C 4.1691 0.6214 0.8828 0
M  V30 11 C 3.3172 -1.3231 -0.4603 0
M  V30 12 H -1.6874 1.8827 -1.561 0
M  V30 13 H -0.8027 1.4458 0.7299 0
M  V30 14 H -0.9454 -0.265 1.2468 0
M  V30 15 H -3.1983 1.9023 0.3101 0
M  V30 16 H -4.2041 0.7594 -0.6198 0
M  V30 17 H -1.5096 -1.6053 -1.6259 0
M  V30 18 H -2.2769 -1.8903 -0.0248 0
M  V30 19 H -3.2748 -1.3842 -1.4427 0
M  V30 20 H 0.4963 -0.9853 -0.6509 0
M  V30 21 H 0.6295 0.723 -1.22 0
M  V30 22 H -4.0076 -0.9336 1.2372 0
M  V30 23 H -2.9964 0.2427 2.1799 0
M  V30 24 H -4.7019 0.6266 1.7838 0
M  V30 25 H 1.5976 -0.3976 1.4955 0
M  V30 26 H 1.6056 1.3383 1.0349 0
M  V30 27 H 3.0814 0.7666 -0.9664 0
M  V30 28 H 5.1569 0.534 0.382 0
M  V30 29 H 4.0132 1.6901 1.1442 0
M  V30 30 H 4.1862 0.0218 1.8185 0
M  V30 31 H 3.2135 -2.0017 0.4135 0
M  V30 32 H 2.6114 -1.6416 -1.2545 0
M  V30 33 H 4.3438 -1.427 -0.872 0
M  V30 END ATOM
M  V30 BEGIN BOND
M  V30 1 1 1 2
M  V30 2 1 2 3
M  V30 3 1 2 4
M  V30 4 1 2 5
M  V30 5 1 3 6
M  V30 6 1 4 7
M  V30 7 1 6 8
M  V30 8 1 8 9
M  V30 9 1 9 10
M  V30 10 1 9 11
M  V30 11 1 1 12
M  V30 12 1 3 13
M  V30 13 1 3 14
M  V30 14 1 4 15
M  V30 15 1 4 16
M  V30 16 1 5 17
M  V30 17 1 5 18
M  V30 18 1 5 19
M  V30 19 1 6 20
M  V30 20 1 6 21
M  V30 21 1 7 22
M  V30 22 1 7 23
M  V30 23 1 7 24
M  V30 24 1 8 25
M  V30 25 1 8 26
M  V30 26 1 9 27
M  V30 27 1 10 28
M  V30 28 1 10 29
M  V30 29 1 10 30
M  V30 30 1 11 31
M  V30 31 1 11 32
M  V30 32 1 11 33
M  V30 END BOND
M  V30 BEGIN COLLECTION
M  V30 MDLV30/STEABS ATOMS=(1 2)
M  V30 END COLLECTION
M  V30 END CTAB
M  END
>  <Structure No>
505

>  <LogS>
-2.694289782

>  <MMFF94 Energy>
14.666

$$$$
Compound 506
Actelion Java MolfileCreator 2.0

  0  0  0  0  0  0              0 V3000
M  V30 BEGIN CTAB
M  V30 COUNTS 20 21 0 0 0
M  V30 BEGIN ATOM
M  V30 1 S 4.3329 1.7635 -0.3204 0
M  V30 2 C 2.9181 0.956 -0.1773 0
M  V30 3 N 1.7322 1.5672 0.0632 0
M  V30 4 N 2.8145 -0.3909 -0.2873 0
M  V30 5 C 0.8521 0.5533 0.1044 0
M  V30 6 C 1.5046 -0.6264 -0.1068 0
M  V30 7 C -0.522 0.6106 0.3221 0
M  V30 8 C 0.8366 -1.8466 -0.1178 0
M  V30 9 C -1.2425 -0.6112 0.3192 0
M  V30 10 C -0.5541 -1.8298 0.0987 0
M  V30 11 O -2.6283 -0.6612 0.5287 0
M  V30 12 C -3.4457 0.4811 0.7618 0
M  V30 13 H 1.5445 2.5872 0.1877 0
M  V30 14 H 3.5738 -1.0847 -0.4696 0
M  V30 15 H -1.0053 1.5643 0.4861 0
M  V30 16 H 1.3661 -2.7753 -0.2864 0
M  V30 17 H -1.1023 -2.7632 0.0961 0
M  V30 18 H -3.3941 1.1712 -0.1066 0
M  V30 19 H -4.4974 0.1539 0.8938 0
M  V30 20 H -3.1172 1.0037 1.6851 0
M  V30 END ATOM
M  V30 BEGIN BOND
M  V30 1 2 1 2
M  V30 2 1 2 3
M  V30 3 1 2 4
M  V30 4 1 3 5
M  V30 5 1 4 6
M  V30 6 1 5 7
M  V30 7 1 6 8
M  V30 8 2 7 9
M  V30 9 2 8 10
M  V30 10 1 9 11
M  V30 11 1 11 12
M  V30 12 2 5 6
M  V30 13 1 9 10
M  V30 14 1 3 13
M  V30 15 1 4 14
M  V30 16 1 7 15
M  V30 17 1 8 16
M  V30 18 1 10 17
M  V30 19 1 12 18
M  V30 20 1 12 19
M  V30 21 1 12 20
M  V30 END BOND
M  V30 END CTAB
M  END
>  <Structure No>
506

>  <LogS>
-2.750681924

>  <MMFF94 Energy>
-11.161

$$$$
Compound 507
Actelion Java MolfileCreator 2.0

  0  0  0  0  0  0              0 V3000
M  V30 BEGIN CTAB
M  V30 COUNTS 36 39 0 0 0
M  V30 BEGIN ATOM
M  V30 1 O -3.313 -3.5558 0.6457 0
M  V30 2 C -4.0666 -3.3353 -0.5232 0 CFG=2
M  V30 3 C -2.9023 -4.2493 -0.5126 0
M  V30 4 C -3.8495 -1.9426 -1.1236 0
M  V30 5 O -2.6233 -1.3628 -0.6767 0
M  V30 6 C -2.1469 -0.0979 -1.0607 0
M  V30 7 C -0.9069 0.3519 -0.5582 0
M  V30 8 C -2.8764 0.7317 -1.9348 0
M  V30 9 C -0.4129 1.6256 -0.9358 0
M  V30 10 C -0.1458 -0.4447 0.3154 0
M  V30 11 C -2.3827 1.9847 -2.3016 0
M  V30 12 C 0.8196 2.0738 -0.4369 0
M  V30 13 C -1.1583 2.4322 -1.8066 0
M  V30 14 C 1.0801 0.012 0.8054 0
M  V30 15 C 1.5713 1.276 0.4318 0
M  V30 16 O 2.7964 1.7747 0.8992 0
M  V30 17 C 3.668 1.0747 1.7822 0
M  V30 18 C 4.8786 1.9524 2.0857 0 CFG=2
M  V30 19 O 5.9085 1.7719 1.1433 0
M  V30 20 C 6.134 1.2512 2.4346 0
M  V30 21 H -5.0767 -3.794 -0.4801 0
M  V30 22 H -3.1314 -5.3322 -0.4329 0
M  V30 23 H -1.9325 -3.8634 -0.8918 0
M  V30 24 H -4.6976 -1.2945 -0.816 0
M  V30 25 H -3.8423 -2.0324 -2.2309 0
M  V30 26 H -3.8295 0.4177 -2.3373 0
M  V30 27 H -0.4934 -1.4231 0.6237 0
M  V30 28 H -2.9533 2.6126 -2.9738 0
M  V30 29 H 1.2028 3.0469 -0.722 0
M  V30 30 H -0.7939 3.4083 -2.1045 0
M  V30 31 H 1.6385 -0.6269 1.4757 0
M  V30 32 H 3.1404 0.8644 2.7369 0
M  V30 33 H 3.975 0.1126 1.3142 0
M  V30 34 H 4.7671 3.012 2.3988 0
M  V30 35 H 6.1281 0.1407 2.4279 0
M  V30 36 H 6.8922 1.8494 2.9813 0
M  V30 END ATOM
M  V30 BEGIN BOND
M  V30 1 1 1 2
M  V30 2 1 1 3
M  V30 3 1 2 4
M  V30 4 1 4 5
M  V30 5 1 5 6
M  V30 6 1 6 7
M  V30 7 2 6 8
M  V30 8 1 7 9
M  V30 9 2 7 10
M  V30 10 1 8 11
M  V30 11 2 9 12
M  V30 12 1 9 13
M  V30 13 1 10 14
M  V30 14 1 12 15
M  V30 15 1 15 16
M  V30 16 1 16 17
M  V30 17 1 17 18
M  V30 18 1 18 19
M  V30 19 1 18 20
M  V30 20 1 2 3
M  V30 21 2 11 13
M  V30 22 2 14 15
M  V30 23 1 19 20
M  V30 24 1 2 21
M  V30 25 1 3 22
M  V30 26 1 3 23
M  V30 27 1 4 24
M  V30 28 1 4 25
M  V30 29 1 8 26
M  V30 30 1 10 27
M  V30 31 1 11 28
M  V30 32 1 12 29
M  V30 33 1 13 30
M  V30 34 1 14 31
M  V30 35 1 17 32
M  V30 36 1 17 33
M  V30 37 1 18 34
M  V30 38 1 20 35
M  V30 39 1 20 36
M  V30 END BOND
M  V30 BEGIN COLLECTION
M  V30 MDLV30/STEABS ATOMS=(2 2 18)
M  V30 END COLLECTION
M  V30 END CTAB
M  END
>  <Structure No>
507

>  <LogS>
-3.919173798

>  <MMFF94 Energy>
67.6

$$$$
Compound 508
Actelion Java MolfileCreator 2.0

  0  0  0  0  0  0              0 V3000
M  V30 BEGIN CTAB
M  V30 COUNTS 31 30 0 0 0
M  V30 BEGIN ATOM
M  V30 1 O 4.8255 1.7101 -0.3884 0
M  V30 2 C 4.9618 0.904 0.5704 0
M  V30 3 O 4.4077 -0.3787 0.521 0
M  V30 4 C 3.6444 -0.8585 -0.5841 0
M  V30 5 C 2.3189 -0.1464 -0.6733 0
M  V30 6 C 1.338 -0.2608 0.2495 0
M  V30 7 C 0.0481 0.5048 0.0544 0
M  V30 8 C 1.497 -1.1382 1.4687 0
M  V30 9 C -0.8348 -0.1746 -0.9978 0
M  V30 10 C -2.1457 0.556 -1.1485 0
M  V30 11 C -3.249 0.3056 -0.4091 0
M  V30 12 C -4.4777 1.1455 -0.6449 0
M  V30 13 C -3.2867 -0.795 0.6252 0
M  V30 14 H 5.5186 1.2077 1.4461 0
M  V30 15 H 3.4783 -1.9498 -0.47 0
M  V30 16 H 4.2154 -0.7058 -1.5253 0
M  V30 17 H 2.1587 0.491 -1.5391 0
M  V30 18 H -0.5023 0.5757 1.016 0
M  V30 19 H 0.2762 1.5476 -0.2596 0
M  V30 20 H 2.3289 -0.7652 2.1012 0
M  V30 21 H 1.7032 -2.1845 1.161 0
M  V30 22 H 0.5735 -1.1453 2.0846 0
M  V30 23 H -0.3125 -0.1522 -1.9786 0
M  V30 24 H -0.9982 -1.2425 -0.7398 0
M  V30 25 H -2.1787 1.3521 -1.8884 0
M  V30 26 H -5.318 0.84 0.0125 0
M  V30 27 H -4.8072 1.041 -1.7003 0
M  V30 28 H -4.247 2.2126 -0.4408 0
M  V30 29 H -4.2643 -0.8266 1.1495 0
M  V30 30 H -3.1334 -1.7793 0.1359 0
M  V30 31 H -2.4995 -0.6346 1.3896 0
M  V30 END ATOM
M  V30 BEGIN BOND
M  V30 1 2 1 2
M  V30 2 1 2 3
M  V30 3 1 3 4
M  V30 4 1 4 5
M  V30 5 2 5 6
M  V30 6 1 6 7
M  V30 7 1 6 8
M  V30 8 1 7 9
M  V30 9 1 9 10
M  V30 10 2 10 11
M  V30 11 1 11 12
M  V30 12 1 11 13
M  V30 13 1 2 14
M  V30 14 1 4 15
M  V30 15 1 4 16
M  V30 16 1 5 17
M  V30 17 1 7 18
M  V30 18 1 7 19
M  V30 19 1 8 20
M  V30 20 1 8 21
M  V30 21 1 8 22
M  V30 22 1 9 23
M  V30 23 1 9 24
M  V30 24 1 10 25
M  V30 25 1 12 26
M  V30 26 1 12 27
M  V30 27 1 12 28
M  V30 28 1 13 29
M  V30 29 1 13 30
M  V30 30 1 13 31
M  V30 END BOND
M  V30 END CTAB
M  END
>  <Structure No>
508

>  <LogS>
-3.746150762

>  <MMFF94 Energy>
10.201

$$$$
Compound 509
Actelion Java MolfileCreator 2.0

  0  0  0  0  0  0              0 V3000
M  V30 BEGIN CTAB
M  V30 COUNTS 37 37 0 0 0
M  V30 BEGIN ATOM
M  V30 1 O 3.9469 -1.2617 -0.8672 0
M  V30 2 C 3.4262 -0.7026 0.1362 0
M  V30 3 C 2.0736 -0.1206 0.0599 0
M  V30 4 C 4.189 -0.6328 1.4194 0
M  V30 5 C 1.3438 -0.1491 -1.0644 0
M  V30 6 C -0.0618 0.4195 -1.1754 0 CFG=2
M  V30 7 C -0.1456 1.7757 -0.4895 0
M  V30 8 C -1.1881 -0.5722 -0.7093 0
M  V30 9 C -0.7169 1.9258 0.7223 0
M  V30 10 C 0.5235 2.9643 -1.1278 0
M  V30 11 C -1.2429 -0.5779 0.858 0 CFG=1
M  V30 12 C -2.5392 -0.1126 -1.3234 0
M  V30 13 C -0.8957 -1.9951 -1.2534 0
M  V30 14 C -1.4846 0.8371 1.428 0
M  V30 15 C -2.2711 -1.5557 1.4601 0
M  V30 16 H 1.6776 0.3496 0.9504 0
M  V30 17 H 3.6274 -1.1635 2.2167 0
M  V30 18 H 5.1872 -1.107 1.3075 0
M  V30 19 H 4.3278 0.4284 1.7144 0
M  V30 20 H 1.7565 -0.6114 -1.9535 0
M  V30 21 H -0.2181 0.5998 -2.2631 0
M  V30 22 H -0.7228 2.9092 1.1855 0
M  V30 23 H -0.2272 3.7599 -1.3185 0
M  V30 24 H 0.9956 2.6868 -2.0938 0
M  V30 25 H 1.3134 3.3596 -0.4543 0
M  V30 26 H -0.2559 -0.9199 1.2342 0
M  V30 27 H -2.4777 -0.1053 -2.4332 0
M  V30 28 H -2.8123 0.9126 -0.9994 0
M  V30 29 H -3.3663 -0.7989 -1.0494 0
M  V30 30 H -0.0355 -2.4578 -0.7237 0
M  V30 31 H -0.6596 -1.9552 -2.3387 0
M  V30 32 H -1.7734 -2.6646 -1.1314 0
M  V30 33 H -1.2001 0.8494 2.5023 0
M  V30 34 H -2.5646 1.0932 1.3716 0
M  V30 35 H -2.2141 -1.5215 2.5693 0
M  V30 36 H -2.0556 -2.6003 1.1575 0
M  V30 37 H -3.3076 -1.2919 1.1667 0
M  V30 END ATOM
M  V30 BEGIN BOND
M  V30 1 2 1 2
M  V30 2 1 2 3
M  V30 3 1 2 4
M  V30 4 2 3 5
M  V30 5 1 5 6
M  V30 6 1 6 7
M  V30 7 1 6 8
M  V30 8 2 7 9
M  V30 9 1 7 10
M  V30 10 1 8 11
M  V30 11 1 8 12
M  V30 12 1 8 13
M  V30 13 1 9 14
M  V30 14 1 11 15
M  V30 15 1 11 14
M  V30 16 1 3 16
M  V30 17 1 4 17
M  V30 18 1 4 18
M  V30 19 1 4 19
M  V30 20 1 5 20
M  V30 21 1 6 21
M  V30 22 1 9 22
M  V30 23 1 10 23
M  V30 24 1 10 24
M  V30 25 1 10 25
M  V30 26 1 11 26
M  V30 27 1 12 27
M  V30 28 1 12 28
M  V30 29 1 12 29
M  V30 30 1 13 30
M  V30 31 1 13 31
M  V30 32 1 13 32
M  V30 33 1 14 33
M  V30 34 1 14 34
M  V30 35 1 15 35
M  V30 36 1 15 36
M  V30 37 1 15 37
M  V30 END BOND
M  V30 BEGIN COLLECTION
M  V30 MDLV30/STEABS ATOMS=(2 6 11)
M  V30 END COLLECTION
M  V30 END CTAB
M  END
>  <Structure No>
509

>  <LogS>
-3.802676912

>  <MMFF94 Energy>
40.098

$$$$
Compound 510
Actelion Java MolfileCreator 2.0

  0  0  0  0  0  0              0 V3000
M  V30 BEGIN CTAB
M  V30 COUNTS 36 37 0 0 0
M  V30 BEGIN ATOM
M  V30 1 S -2.0193 -0.084 2.5246 0
M  V30 2 O -3.0478 -0.5559 3.5144 0
M  V30 3 O -1.6475 1.3346 2.8512 0
M  V30 4 O -0.6743 -1.0725 2.6817 0 CHG=-1
M  V30 5 C -2.6945 -0.1668 0.8862 0
M  V30 6 C -1.9194 -0.3932 -0.2899 0
M  V30 7 C -4.091 -0.0465 0.7712 0
M  V30 8 C -2.5862 -0.5566 -1.5178 0
M  V30 9 C -0.4361 -0.4719 -0.3416 0
M  V30 10 C -4.7308 -0.1855 -0.4644 0
M  V30 11 C -3.9734 -0.4516 -1.6053 0
M  V30 12 C 0.3695 0.3823 0.2961 0
M  V30 13 N -6.1533 -0.0664 -0.557 0
M  V30 14 C 1.8186 0.5205 -0.0028 0
M  V30 15 C 2.7278 -0.5605 -0.2037 0
M  V30 16 C 2.3045 1.8377 -0.0917 0
M  V30 17 S 2.3076 -2.2702 0.0146 0
M  V30 18 C 4.0607 -0.2764 -0.55 0
M  V30 19 C 3.6345 2.0959 -0.4185 0
M  V30 20 O 3.5301 -3.0359 0.4374 0
M  V30 21 O 1.8028 -2.8399 -1.2807 0
M  V30 22 O 1.1483 -2.4664 1.2098 0 CHG=-1
M  V30 23 C 4.5156 1.0415 -0.6598 0
M  V30 24 N 5.8776 1.3073 -1.0062 0
M  V30 25 H -4.6917 0.1456 1.6516 0
M  V30 26 H -2.025 -0.7447 -2.4257 0
M  V30 27 H -0.0103 -1.1072 -1.104 0
M  V30 28 H -4.457 -0.5691 -2.5669 0
M  V30 29 H -0.0791 1.1621 0.8939 0
M  V30 30 H -6.7304 0.1292 0.2913 0
M  V30 31 H -6.6403 -0.1722 -1.4748 0
M  V30 32 H 1.6407 2.6793 0.0706 0
M  V30 33 H 4.7583 -1.0858 -0.7257 0
M  V30 34 H 3.9758 3.121 -0.4924 0
M  V30 35 H 6.5467 0.5256 -1.1854 0
M  V30 36 H 6.2272 2.2882 -1.0869 0
M  V30 END ATOM
M  V30 BEGIN BOND
M  V30 1 2 1 2
M  V30 2 2 1 3
M  V30 3 1 1 4
M  V30 4 1 1 5
M  V30 5 2 5 6
M  V30 6 1 5 7
M  V30 7 1 6 8
M  V30 8 1 6 9
M  V30 9 2 7 10
M  V30 10 2 8 11
M  V30 11 2 9 12
M  V30 12 1 10 13
M  V30 13 1 12 14
M  V30 14 2 14 15
M  V30 15 1 14 16
M  V30 16 1 15 17
M  V30 17 1 15 18
M  V30 18 2 16 19
M  V30 19 2 17 20
M  V30 20 2 17 21
M  V30 21 1 17 22
M  V30 22 2 18 23
M  V30 23 1 23 24
M  V30 24 1 10 11
M  V30 25 1 19 23
M  V30 26 1 7 25
M  V30 27 1 8 26
M  V30 28 1 9 27
M  V30 29 1 11 28
M  V30 30 1 12 29
M  V30 31 1 13 30
M  V30 32 1 13 31
M  V30 33 1 16 32
M  V30 34 1 18 33
M  V30 35 1 19 34
M  V30 36 1 24 35
M  V30 37 1 24 36
M  V30 END BOND
M  V30 END CTAB
M  END
>  <Structure No>
510

>  <LogS>
-4.06353038

>  <MMFF94 Energy>
106.98

$$$$
Compound 511
Actelion Java MolfileCreator 2.0

  0  0  0  0  0  0              0 V3000
M  V30 BEGIN CTAB
M  V30 COUNTS 19 20 0 0 0
M  V30 BEGIN ATOM
M  V30 1 S 3.7643 -1.3603 -0.8 0
M  V30 2 C 2.3437 -0.6222 -0.4665 0
M  V30 3 N 1.1791 -1.2925 -0.2912 0
M  V30 4 N 2.214 0.7202 -0.338 0
M  V30 5 C 0.2816 -0.3221 -0.0418 0
M  V30 6 C 0.9092 0.8922 -0.0707 0
M  V30 7 C -1.0886 -0.4424 0.2157 0
M  V30 8 C 0.2261 2.084 0.1539 0
M  V30 9 C -1.8083 0.7518 0.4478 0
M  V30 10 C -1.7628 -1.7817 0.2441 0
M  V30 11 C -1.1534 2.0047 0.4165 0
M  V30 12 H 1.0188 -2.3235 -0.3392 0
M  V30 13 H 2.9542 1.452 -0.4258 0
M  V30 14 H 0.7369 3.0377 0.1278 0
M  V30 15 H -2.871 0.7183 0.6521 0
M  V30 16 H -1.3009 -2.4154 1.0299 0
M  V30 17 H -1.6459 -2.2792 -0.7412 0
M  V30 18 H -2.8473 -1.6832 0.4629 0
M  V30 19 H -1.7181 2.9103 0.5961 0
M  V30 END ATOM
M  V30 BEGIN BOND
M  V30 1 2 1 2
M  V30 2 1 2 3
M  V30 3 1 2 4
M  V30 4 1 3 5
M  V30 5 1 4 6
M  V30 6 1 5 7
M  V30 7 1 6 8
M  V30 8 2 7 9
M  V30 9 1 7 10
M  V30 10 2 8 11
M  V30 11 2 5 6
M  V30 12 1 9 11
M  V30 13 1 3 12
M  V30 14 1 4 13
M  V30 15 1 8 14
M  V30 16 1 9 15
M  V30 17 1 10 16
M  V30 18 1 10 17
M  V30 19 1 10 18
M  V30 20 1 11 19
M  V30 END BOND
M  V30 END CTAB
M  END
>  <Structure No>
511

>  <LogS>
-4.08795879

>  <MMFF94 Energy>
-10.41

$$$$
Compound 512
Actelion Java MolfileCreator 2.0

  0  0  0  0  0  0              0 V3000
M  V30 BEGIN CTAB
M  V30 COUNTS 30 31 0 0 0
M  V30 BEGIN ATOM
M  V30 1 S 0.0 0.081 0.0 0
M  V30 2 O -0.1207 0.5007 1.4594 0
M  V30 3 C -1.344 0.9695 -0.8142 0
M  V30 4 C 1.4886 0.9291 -0.5684 0
M  V30 5 C -2.6636 0.361 -0.4352 0
M  V30 6 C 2.7053 0.2844 0.0305 0
M  V30 7 C -3.3845 0.8563 0.6642 0
M  V30 8 C -3.1618 -0.745 -1.1438 0
M  V30 9 C 3.2866 -0.8368 -0.5842 0
M  V30 10 C 3.2397 0.762 1.2391 0
M  V30 11 C -4.5972 0.2665 1.0342 0
M  V30 12 C -4.375 -1.3318 -0.7703 0
M  V30 13 C 4.4001 -1.4567 -0.009 0
M  V30 14 C 4.3534 0.1389 1.811 0
M  V30 15 C -5.0931 -0.8252 0.3165 0
M  V30 16 C 4.9343 -0.9682 1.1865 0
M  V30 17 H -1.2002 0.9143 -1.9144 0
M  V30 18 H -1.3089 2.0415 -0.5232 0
M  V30 19 H 1.5347 0.8754 -1.677 0
M  V30 20 H 1.4342 2.0025 -0.2852 0
M  V30 21 H -3.0071 1.6963 1.2344 0
M  V30 22 H -2.6106 -1.1522 -1.9822 0
M  V30 23 H 2.8765 -1.2304 -1.5061 0
M  V30 24 H 2.7937 1.6136 1.7378 0
M  V30 25 H -5.151 0.6538 1.8798 0
M  V30 26 H -4.7569 -2.1812 -1.3216 0
M  V30 27 H 4.847 -2.3181 -0.4882 0
M  V30 28 H 4.7639 0.5124 2.7401 0
M  V30 29 H -6.0312 -1.2814 0.6051 0
M  V30 30 H 5.7953 -1.45 1.6313 0
M  V30 END ATOM
M  V30 BEGIN BOND
M  V30 1 2 1 2
M  V30 2 1 1 3
M  V30 3 1 1 4
M  V30 4 1 3 5
M  V30 5 1 4 6
M  V30 6 2 5 7
M  V30 7 1 5 8
M  V30 8 2 6 9
M  V30 9 1 6 10
M  V30 10 1 7 11
M  V30 11 2 8 12
M  V30 12 1 9 13
M  V30 13 2 10 14
M  V30 14 2 11 15
M  V30 15 2 13 16
M  V30 16 1 12 15
M  V30 17 1 14 16
M  V30 18 1 3 17
M  V30 19 1 3 18
M  V30 20 1 4 19
M  V30 21 1 4 20
M  V30 22 1 7 21
M  V30 23 1 8 22
M  V30 24 1 9 23
M  V30 25 1 10 24
M  V30 26 1 11 25
M  V30 27 1 12 26
M  V30 28 1 13 27
M  V30 29 1 14 28
M  V30 30 1 15 29
M  V30 31 1 16 30
M  V30 END BOND
M  V30 END CTAB
M  END
>  <Structure No>
512

>  <LogS>
-2.858808721

>  <MMFF94 Energy>
58.291

$$$$
Compound 513
Actelion Java MolfileCreator 2.0

  0  0  0  0  0  0              0 V3000
M  V30 BEGIN CTAB
M  V30 COUNTS 24 23 0 0 0
M  V30 BEGIN ATOM
M  V30 1 N 2.6723 -0.7854 2.3576 0
M  V30 2 C 2.2424 -0.1181 1.5153 0
M  V30 3 C 1.6935 0.7321 0.4415 0
M  V30 4 N 0.6273 0.0276 -0.2407 0
M  V30 5 C 2.8044 1.0351 -0.5706 0
M  V30 6 C 1.1616 2.0441 1.0414 0
M  V30 7 N -0.3987 -0.3497 0.3635 0
M  V30 8 C -1.4664 -1.0511 -0.3193 0
M  V30 9 C -0.9469 -2.3067 -0.8943 0
M  V30 10 C -2.5612 -1.3857 0.7003 0
M  V30 11 C -2.0467 -0.1709 -1.4384 0
M  V30 12 N -0.5388 -3.2913 -1.3453 0
M  V30 13 H 2.4134 1.6708 -1.3943 0
M  V30 14 H 3.6486 1.57 -0.0829 0
M  V30 15 H 3.1929 0.0928 -1.0148 0
M  V30 16 H 1.9813 2.6127 1.5323 0
M  V30 17 H 0.718 2.6799 0.2452 0
M  V30 18 H 0.3763 1.8391 1.801 0
M  V30 19 H -3.3986 -1.9342 0.216 0
M  V30 20 H -2.1508 -2.0182 1.5176 0
M  V30 21 H -2.9652 -0.4543 1.153 0
M  V30 22 H -2.4139 0.7913 -1.0206 0
M  V30 23 H -1.2719 0.0546 -2.2029 0
M  V30 24 H -2.8947 -0.6838 -1.9424 0
M  V30 END ATOM
M  V30 BEGIN BOND
M  V30 1 3 1 2
M  V30 2 1 2 3
M  V30 3 1 3 4
M  V30 4 1 3 5
M  V30 5 1 3 6
M  V30 6 2 4 7
M  V30 7 1 7 8
M  V30 8 1 8 9
M  V30 9 1 8 10
M  V30 10 1 8 11
M  V30 11 3 9 12
M  V30 12 1 5 13
M  V30 13 1 5 14
M  V30 14 1 5 15
M  V30 15 1 6 16
M  V30 16 1 6 17
M  V30 17 1 6 18
M  V30 18 1 10 19
M  V30 19 1 10 20
M  V30 20 1 10 21
M  V30 21 1 11 22
M  V30 22 1 11 23
M  V30 23 1 11 24
M  V30 END BOND
M  V30 END CTAB
M  END
>  <Structure No>
513

>  <LogS>
-2.713250998

>  <MMFF94 Energy>
53.85

$$$$
Compound 514
Actelion Java MolfileCreator 2.0

  0  0  0  0  0  0              0 V3000
M  V30 BEGIN CTAB
M  V30 COUNTS 24 23 0 0 0
M  V30 BEGIN ATOM
M  V30 1 O 1.3179 2.0162 0.4649 0
M  V30 2 C 1.9453 0.965 0.1637 0
M  V30 3 O 1.311 -0.064 -0.5437 0
M  V30 4 C 3.355 0.8356 0.5589 0
M  V30 5 C -0.0719 -0.0401 -0.8965 0
M  V30 6 C 4.0709 -0.252 0.2843 0
M  V30 7 C -0.9663 -0.3223 0.3305 0 CFG=1
M  V30 8 C -2.466 -0.3126 -0.0438 0
M  V30 9 C -0.5982 -1.6747 0.9597 0
M  V30 10 C -2.982 1.0815 -0.4042 0
M  V30 11 H 3.8258 1.6514 1.0939 0
M  V30 12 H -0.3139 0.9442 -1.3491 0
M  V30 13 H -0.2492 -0.8173 -1.6703 0
M  V30 14 H 5.1063 -0.3082 0.5944 0
M  V30 15 H 3.6426 -1.0934 -0.2455 0
M  V30 16 H -0.788 0.4635 1.0969 0
M  V30 17 H -2.6551 -1.0057 -0.8927 0
M  V30 18 H -3.0624 -0.6737 0.8228 0
M  V30 19 H -0.7497 -2.4998 0.2308 0
M  V30 20 H -1.2278 -1.8674 1.8546 0
M  V30 21 H 0.4622 -1.6759 1.2893 0
M  V30 22 H -2.5544 1.4256 -1.3681 0
M  V30 23 H -4.0865 1.0482 -0.5141 0
M  V30 24 H -2.73 1.8098 0.3956 0
M  V30 END ATOM
M  V30 BEGIN BOND
M  V30 1 2 1 2
M  V30 2 1 2 3
M  V30 3 1 2 4
M  V30 4 1 3 5
M  V30 5 2 4 6
M  V30 6 1 5 7
M  V30 7 1 7 8
M  V30 8 1 7 9
M  V30 9 1 8 10
M  V30 10 1 4 11
M  V30 11 1 5 12
M  V30 12 1 5 13
M  V30 13 1 6 14
M  V30 14 1 6 15
M  V30 15 1 7 16
M  V30 16 1 8 17
M  V30 17 1 8 18
M  V30 18 1 9 19
M  V30 19 1 9 20
M  V30 20 1 9 21
M  V30 21 1 10 22
M  V30 22 1 10 23
M  V30 23 1 10 24
M  V30 END BOND
M  V30 BEGIN COLLECTION
M  V30 MDLV30/STEABS ATOMS=(1 7)
M  V30 END COLLECTION
M  V30 END CTAB
M  END
>  <Structure No>
514

>  <LogS>
-2.653206406

>  <MMFF94 Energy>
3.5777

$$$$
Compound 515
Actelion Java MolfileCreator 2.0

  0  0  0  0  0  0              0 V3000
M  V30 BEGIN CTAB
M  V30 COUNTS 14 15 0 0 0
M  V30 BEGIN ATOM
M  V30 1 Cl 4.461 0.1713 0.3426 0
M  V30 2 C 2.7305 0.1027 0.0903 0
M  V30 3 S 1.9854 0.211 -1.4255 0
M  V30 4 N 1.8376 -0.0441 1.0985 0
M  V30 5 C 0.4534 0.0628 -0.7563 0
M  V30 6 C 0.5679 -0.0657 0.6192 0
M  V30 7 C -0.7816 0.0592 -1.3994 0
M  V30 8 C -0.5728 -0.2047 1.4118 0
M  V30 9 C -1.9361 -0.0801 -0.6123 0
M  V30 10 C -1.8323 -0.2115 0.787 0
M  V30 11 H -0.8511 0.1609 -2.4746 0
M  V30 12 H -0.492 -0.3056 2.4865 0
M  V30 13 H -2.9106 -0.0865 -1.0829 0
M  V30 14 H -2.7281 -0.3183 1.3848 0
M  V30 END ATOM
M  V30 BEGIN BOND
M  V30 1 1 1 2
M  V30 2 1 2 3
M  V30 3 2 2 4
M  V30 4 1 3 5
M  V30 5 1 4 6
M  V30 6 1 5 7
M  V30 7 1 6 8
M  V30 8 2 7 9
M  V30 9 2 8 10
M  V30 10 2 5 6
M  V30 11 1 9 10
M  V30 12 1 7 11
M  V30 13 1 8 12
M  V30 14 1 9 13
M  V30 15 1 10 14
M  V30 END BOND
M  V30 END CTAB
M  END
>  <Structure No>
515

>  <LogS>
-2.732588375

>  <MMFF94 Energy>
14.014

$$$$
Compound 516
Actelion Java MolfileCreator 2.0

  0  0  0  0  0  0              0 V3000
M  V30 BEGIN CTAB
M  V30 COUNTS 31 32 0 0 0
M  V30 BEGIN ATOM
M  V30 1 O 3.0451 -2.5638 1.2813 0
M  V30 2 C 2.6171 -1.5108 0.7358 0
M  V30 3 N 1.2755 -1.2606 0.6872 0
M  V30 4 C 3.5269 -0.6057 0.1867 0
M  V30 5 O 0.4189 -2.183 1.2474 0 CHG=-1
M  V30 6 C 0.785 -0.1156 0.1065 0
M  V30 7 C 3.0587 0.5583 -0.4264 0
M  V30 8 C 1.6838 0.8112 -0.4514 0
M  V30 9 C -0.7077 0.1834 0.0491 0
M  V30 10 C 4.024 1.5614 -0.9856 0
M  V30 11 C -1.4722 -0.86 -0.7897 0
M  V30 12 C -1.3208 0.3663 1.4631 0
M  V30 13 C -2.9496 -0.4586 -0.9777 0
M  V30 14 C -2.8115 -0.0185 1.5307 0
M  V30 15 C -3.5376 0.3133 0.2227 0
M  V30 16 H 4.5903 -0.8089 0.2377 0
M  V30 17 H 1.3185 1.7249 -0.9052 0
M  V30 18 H -0.8522 1.1532 -0.4806 0
M  V30 19 H 4.2907 2.2961 -0.1975 0
M  V30 20 H 3.5736 2.1004 -1.8462 0
M  V30 21 H 4.9491 1.0601 -1.3417 0
M  V30 22 H -1.4403 -1.8529 -0.2959 0
M  V30 23 H -0.9943 -0.967 -1.7881 0
M  V30 24 H -1.2114 1.4334 1.7584 0
M  V30 25 H -0.7761 -0.2251 2.2282 0
M  V30 26 H -3.5481 -1.3794 -1.1527 0
M  V30 27 H -3.0458 0.1728 -1.8877 0
M  V30 28 H -3.2956 0.5216 2.3729 0
M  V30 29 H -2.9055 -1.1085 1.7318 0
M  V30 30 H -3.4568 1.407 0.0356 0
M  V30 31 H -4.6175 0.0715 0.3263 0
M  V30 END ATOM
M  V30 BEGIN BOND
M  V30 1 2 1 2
M  V30 2 1 2 3
M  V30 3 1 2 4
M  V30 4 1 3 5
M  V30 5 1 3 6
M  V30 6 2 4 7
M  V30 7 2 6 8
M  V30 8 1 6 9
M  V30 9 1 7 10
M  V30 10 1 9 11
M  V30 11 1 9 12
M  V30 12 1 11 13
M  V30 13 1 12 14
M  V30 14 1 13 15
M  V30 15 1 7 8
M  V30 16 1 14 15
M  V30 17 1 4 16
M  V30 18 1 8 17
M  V30 19 1 9 18
M  V30 20 1 10 19
M  V30 21 1 10 20
M  V30 22 1 10 21
M  V30 23 1 11 22
M  V30 24 1 11 23
M  V30 25 1 12 24
M  V30 26 1 12 25
M  V30 27 1 13 26
M  V30 28 1 13 27
M  V30 29 1 14 28
M  V30 30 1 14 29
M  V30 31 1 15 30
M  V30 32 1 15 31
M  V30 END BOND
M  V30 END CTAB
M  END
>  <Structure No>
516

>  <LogS>
-0.933168591

>  <MMFF94 Energy>
54.09

$$$$
Compound 517
Actelion Java MolfileCreator 2.0

  0  0  0  0  0  0              0 V3000
M  V30 BEGIN CTAB
M  V30 COUNTS 17 18 0 0 0
M  V30 BEGIN ATOM
M  V30 1 Cl -1.9394 2.699 -0.337 0
M  V30 2 C -1.5146 1.0106 -0.0677 0
M  V30 3 C -0.1798 0.5554 -0.0929 0
M  V30 4 C -2.5479 0.1013 0.1787 0
M  V30 5 C 0.0712 -0.8202 0.134 0
M  V30 6 C 0.9057 1.4182 -0.3351 0
M  V30 7 C -2.2506 -1.2442 0.3966 0
M  V30 8 N -0.962 -1.672 0.3702 0
M  V30 9 C 1.3828 -1.3077 0.1164 0
M  V30 10 C 2.2118 0.9197 -0.3502 0
M  V30 11 C 2.4513 -0.4391 -0.1253 0
M  V30 12 Cl 4.0936 -1.0547 -0.1464 0
M  V30 13 H -3.5779 0.4345 0.2015 0
M  V30 14 H 0.7561 2.4749 -0.5129 0
M  V30 15 H -3.0472 -1.9508 0.5877 0
M  V30 16 H 1.5723 -2.3599 0.2904 0
M  V30 17 H 3.0391 1.5924 -0.5376 0
M  V30 END ATOM
M  V30 BEGIN BOND
M  V30 1 1 1 2
M  V30 2 1 2 3
M  V30 3 2 2 4
M  V30 4 1 3 5
M  V30 5 2 3 6
M  V30 6 1 4 7
M  V30 7 1 5 8
M  V30 8 2 5 9
M  V30 9 1 6 10
M  V30 10 1 9 11
M  V30 11 1 11 12
M  V30 12 2 7 8
M  V30 13 2 10 11
M  V30 14 1 4 13
M  V30 15 1 6 14
M  V30 16 1 7 15
M  V30 17 1 9 16
M  V30 18 1 10 17
M  V30 END BOND
M  V30 END CTAB
M  END
>  <Structure No>
517

>  <LogS>
-2.802624638

>  <MMFF94 Energy>
14.054

$$$$
Compound 518
Actelion Java MolfileCreator 2.0

  0  0  0  0  0  0              0 V3000
M  V30 BEGIN CTAB
M  V30 COUNTS 17 17 0 0 0
M  V30 BEGIN ATOM
M  V30 1 S 2.173 -0.5011 0.5847 0
M  V30 2 O 2.7523 0.7758 1.1246 0
M  V30 3 O 2.8531 -0.8627 -0.7053 0
M  V30 4 O 2.4475 -1.7287 1.6992 0 CHG=-1
M  V30 5 C 0.4392 -0.2968 0.3062 0
M  V30 6 C -0.0659 0.6758 -0.5923 0
M  V30 7 C -0.4592 -1.1252 0.9987 0
M  V30 8 N 0.7999 1.551 -1.3282 0
M  V30 9 C -1.454 0.7913 -0.7721 0
M  V30 10 C -1.8363 -0.9965 0.8078 0
M  V30 11 C -2.3329 -0.0398 -0.0761 0
M  V30 12 H -0.0985 -1.8749 1.69 0
M  V30 13 H 0.4009 2.2591 -1.9841 0
M  V30 14 H 1.8377 1.518 -1.2415 0
M  V30 15 H -1.856 1.5293 -1.455 0
M  V30 16 H -2.5195 -1.6402 1.3467 0
M  V30 17 H -3.4008 0.058 -0.2226 0
M  V30 END ATOM
M  V30 BEGIN BOND
M  V30 1 2 1 2
M  V30 2 2 1 3
M  V30 3 1 1 4
M  V30 4 1 1 5
M  V30 5 2 5 6
M  V30 6 1 5 7
M  V30 7 1 6 8
M  V30 8 1 6 9
M  V30 9 2 7 10
M  V30 10 2 9 11
M  V30 11 1 10 11
M  V30 12 1 7 12
M  V30 13 1 8 13
M  V30 14 1 8 14
M  V30 15 1 9 15
M  V30 16 1 10 16
M  V30 17 1 11 17
M  V30 END BOND
M  V30 END CTAB
M  END
>  <Structure No>
518

>  <LogS>
-1.747168641

>  <MMFF94 Energy>
60.934

$$$$
Compound 519
Actelion Java MolfileCreator 2.0

  0  0  0  0  0  0              0 V3000
M  V30 BEGIN CTAB
M  V30 COUNTS 15 14 0 0 0
M  V30 BEGIN ATOM
M  V30 1 O 1.3084 0.8465 -1.6165 0
M  V30 2 C 1.3471 0.264 -0.499 0
M  V30 3 C 0.1075 -0.0939 0.2233 0
M  V30 4 C 2.6723 -0.0704 0.1063 0
M  V30 5 C -1.1295 0.1601 -0.23 0
M  V30 6 O -1.325 0.8004 -1.4541 0
M  V30 7 C -2.3175 -0.2498 0.5904 0
M  V30 8 H 0.2177 -0.5935 1.1797 0
M  V30 9 H 3.5002 0.2621 -0.5553 0
M  V30 10 H 2.7499 -1.1682 0.2523 0
M  V30 11 H 2.7733 0.4374 1.0884 0
M  V30 12 H -2.2532 0.9983 -1.8079 0
M  V30 13 H -2.3101 -1.3499 0.7421 0
M  V30 14 H -3.2634 0.0292 0.0811 0
M  V30 15 H -2.2867 0.2565 1.5786 0
M  V30 END ATOM
M  V30 BEGIN BOND
M  V30 1 2 1 2
M  V30 2 1 2 3
M  V30 3 1 2 4
M  V30 4 2 3 5
M  V30 5 1 5 6
M  V30 6 1 5 7
M  V30 7 1 3 8
M  V30 8 1 4 9
M  V30 9 1 4 10
M  V30 10 1 4 11
M  V30 11 1 6 12
M  V30 12 1 7 13
M  V30 13 1 7 14
M  V30 14 1 7 15
M  V30 END BOND
M  V30 END CTAB
M  END
>  <Structure No>
519

>  <LogS>
-2.070050982

>  <MMFF94 Energy>
5.2379

$$$$
Compound 520
Actelion Java MolfileCreator 2.0

  0  0  0  0  0  0              0 V3000
M  V30 BEGIN CTAB
M  V30 COUNTS 22 22 0 0 0
M  V30 BEGIN ATOM
M  V30 1 Cl 4.7126 -1.8494 0.336 0
M  V30 2 S 4.0641 0.0634 -0.0926 0
M  V30 3 O 4.73 1.0387 0.8367 0
M  V30 4 O 4.4345 0.4135 -1.5064 0
M  V30 5 C 2.3171 0.1444 0.1057 0
M  V30 6 C 1.7635 0.485 1.3465 0
M  V30 7 C 1.4711 -0.1462 -0.9719 0
M  V30 8 C 0.3759 0.5387 1.507 0
M  V30 9 C 0.083 -0.0938 -0.8124 0
M  V30 10 C -0.477 0.2332 0.4358 0
M  V30 11 N -1.9005 0.3177 0.6223 0
M  V30 12 C -2.8528 -0.5195 -0.0514 0
M  V30 13 O -2.4783 -1.553 -0.6679 0
M  V30 14 C -4.3127 -0.2222 0.0592 0
M  V30 15 H 2.4041 0.7083 2.1901 0
M  V30 16 H 1.8845 -0.4072 -1.9376 0
M  V30 17 H -0.0368 0.8073 2.4714 0
M  V30 18 H -0.5473 -0.285 -1.6702 0
M  V30 19 H -2.2624 0.9717 1.3532 0
M  V30 20 H -4.4797 0.8745 0.0179 0
M  V30 21 H -4.6976 -0.6144 1.0234 0
M  V30 22 H -4.8684 -0.698 -0.7762 0
M  V30 END ATOM
M  V30 BEGIN BOND
M  V30 1 1 1 2
M  V30 2 2 2 3
M  V30 3 2 2 4
M  V30 4 1 2 5
M  V30 5 2 5 6
M  V30 6 1 5 7
M  V30 7 1 6 8
M  V30 8 2 7 9
M  V30 9 2 8 10
M  V30 10 1 10 11
M  V30 11 1 11 12
M  V30 12 2 12 13
M  V30 13 1 12 14
M  V30 14 1 9 10
M  V30 15 1 6 15
M  V30 16 1 7 16
M  V30 17 1 8 17
M  V30 18 1 9 18
M  V30 19 1 11 19
M  V30 20 1 14 20
M  V30 21 1 14 21
M  V30 22 1 14 22
M  V30 END BOND
M  V30 END CTAB
M  END
>  <Structure No>
520

>  <LogS>
-2.877252416

>  <MMFF94 Energy>
31.45

$$$$
Compound 521
Actelion Java MolfileCreator 2.0

  0  0  0  0  0  0              0 V3000
M  V30 BEGIN CTAB
M  V30 COUNTS 36 36 0 0 0
M  V30 BEGIN ATOM
M  V30 1 O 1.5813 0.0 2.6102 0
M  V30 2 C 2.0477 -0.0556 1.4396 0
M  V30 3 O 1.2245 -0.3677 0.3499 0
M  V30 4 C 3.4879 0.2647 1.1996 0
M  V30 5 C -0.1752 -0.6625 0.4542 0 CFG=1
M  V30 6 C 3.6506 1.7247 0.7943 0
M  V30 7 C -1.0787 0.6216 0.2278 0
M  V30 8 C -0.5077 -1.8708 -0.4741 0 CFG=1
M  V30 9 C -1.7696 0.5997 -1.1618 0
M  V30 10 C -2.1631 0.7082 1.3317 0
M  V30 11 C -0.248 1.9259 0.3118 0
M  V30 12 C -2.0099 -1.9511 -0.7839 0
M  V30 13 C 0.3424 -1.9322 -1.7594 0
M  V30 14 C -2.5661 -0.6853 -1.4582 0
M  V30 15 H 4.0778 0.0682 2.1212 0
M  V30 16 H 3.8795 -0.3888 0.391 0
M  V30 17 H -0.3669 -1.0398 1.4853 0
M  V30 18 H 3.2587 2.3929 1.5911 0
M  V30 19 H 4.7268 1.9493 0.6387 0
M  V30 20 H 3.1062 1.9248 -0.1531 0
M  V30 21 H -0.2527 -2.7967 0.0905 0
M  V30 22 H -1.0073 0.7442 -1.9554 0
M  V30 23 H -2.4592 1.468 -1.2586 0
M  V30 24 H -1.6916 0.803 2.334 0
M  V30 25 H -2.8083 -0.1919 1.346 0
M  V30 26 H -2.8176 1.5934 1.1764 0
M  V30 27 H 0.2284 2.0323 1.3091 0
M  V30 28 H 0.5433 1.9442 -0.4678 0
M  V30 29 H -0.8949 2.8164 0.1533 0
M  V30 30 H -2.2192 -2.8332 -1.4282 0
M  V30 31 H -2.5566 -2.1334 0.166 0
M  V30 32 H 0.2652 -1.0067 -2.3596 0
M  V30 33 H 0.0216 -2.788 -2.3908 0
M  V30 34 H 1.4111 -2.0937 -1.504 0
M  V30 35 H -2.587 -0.8386 -2.5595 0
M  V30 36 H -3.6206 -0.5457 -1.1336 0
M  V30 END ATOM
M  V30 BEGIN BOND
M  V30 1 2 1 2
M  V30 2 1 2 3
M  V30 3 1 2 4
M  V30 4 1 3 5
M  V30 5 1 4 6
M  V30 6 1 5 7
M  V30 7 1 5 8
M  V30 8 1 7 9
M  V30 9 1 7 10
M  V30 10 1 7 11
M  V30 11 1 8 12
M  V30 12 1 8 13
M  V30 13 1 9 14
M  V30 14 1 12 14
M  V30 15 1 4 15
M  V30 16 1 4 16
M  V30 17 1 5 17
M  V30 18 1 6 18
M  V30 19 1 6 19
M  V30 20 1 6 20
M  V30 21 1 8 21
M  V30 22 1 9 22
M  V30 23 1 9 23
M  V30 24 1 10 24
M  V30 25 1 10 25
M  V30 26 1 10 26
M  V30 27 1 11 27
M  V30 28 1 11 28
M  V30 29 1 11 29
M  V30 30 1 12 30
M  V30 31 1 12 31
M  V30 32 1 13 32
M  V30 33 1 13 33
M  V30 34 1 13 34
M  V30 35 1 14 35
M  V30 36 1 14 36
M  V30 END BOND
M  V30 BEGIN COLLECTION
M  V30 MDLV30/STEABS ATOMS=(2 5 8)
M  V30 END COLLECTION
M  V30 END CTAB
M  END
>  <Structure No>
521

>  <LogS>
-3.803181261

>  <MMFF94 Energy>
12.197

$$$$
Compound 522
Actelion Java MolfileCreator 2.0

  0  0  0  0  0  0              0 V3000
M  V30 BEGIN CTAB
M  V30 COUNTS 24 24 0 0 0
M  V30 BEGIN ATOM
M  V30 1 O -3.2646 -1.6711 -0.3181 0
M  V30 2 C -2.8367 -0.4958 -0.1474 0
M  V30 3 O -3.7377 0.572 -0.0687 0
M  V30 4 C -1.3831 -0.244 -0.0303 0
M  V30 5 C -5.1457 0.3983 -0.1734 0
M  V30 6 C -0.9023 1.062 0.1596 0
M  V30 7 C -0.4624 -1.3034 -0.1067 0
M  V30 8 C 0.4699 1.3044 0.2707 0
M  V30 9 C 0.9098 -1.061 0.0043 0
M  V30 10 C 1.3905 0.245 0.1943 0
M  V30 11 C 2.8441 0.4968 0.3115 0
M  V30 12 O 3.272 1.6721 0.4821 0
M  V30 13 O 3.745 -0.5709 0.2328 0
M  V30 14 C 5.153 -0.3971 0.3375 0
M  V30 15 H -5.4021 -0.0425 -1.16 0
M  V30 16 H -5.6427 1.3857 -0.0807 0
M  V30 17 H -5.5086 -0.265 0.6401 0
M  V30 18 H -1.5857 1.8996 0.2227 0
M  V30 19 H -0.8016 -2.3215 -0.2526 0
M  V30 20 H 0.8089 2.3226 0.4167 0
M  V30 21 H 1.5931 -1.8985 -0.0586 0
M  V30 22 H 5.5158 0.2662 -0.4758 0
M  V30 23 H 5.4093 0.0438 1.3243 0
M  V30 24 H 5.6499 -1.3844 0.245 0
M  V30 END ATOM
M  V30 BEGIN BOND
M  V30 1 2 1 2
M  V30 2 1 2 3
M  V30 3 1 2 4
M  V30 4 1 3 5
M  V30 5 2 4 6
M  V30 6 1 4 7
M  V30 7 1 6 8
M  V30 8 2 7 9
M  V30 9 2 8 10
M  V30 10 1 10 11
M  V30 11 2 11 12
M  V30 12 1 11 13
M  V30 13 1 13 14
M  V30 14 1 9 10
M  V30 15 1 5 15
M  V30 16 1 5 16
M  V30 17 1 5 17
M  V30 18 1 6 18
M  V30 19 1 7 19
M  V30 20 1 8 20
M  V30 21 1 9 21
M  V30 22 1 14 22
M  V30 23 1 14 23
M  V30 24 1 14 24
M  V30 END BOND
M  V30 END CTAB
M  END
>  <Structure No>
522

>  <LogS>
-3.796856222

>  <MMFF94 Energy>
44.255

$$$$
Compound 523
Actelion Java MolfileCreator 2.0

  0  0  0  0  0  0              0 V3000
M  V30 BEGIN CTAB
M  V30 COUNTS 35 35 0 0 0
M  V30 BEGIN ATOM
M  V30 1 O -2.2808 1.3365 1.4939 0
M  V30 2 C -2.8186 0.5785 0.7017 0
M  V30 3 C -2.0829 -0.4833 -0.0437 0 CFG=1
M  V30 4 C -4.2817 0.5815 0.4602 0
M  V30 5 C -3.2187 -1.3646 -0.5813 0
M  V30 6 C -1.2318 0.0945 -1.1989 0
M  V30 7 C -4.4796 -0.4944 -0.6014 0
M  V30 8 C -0.0773 1.0115 -0.7547 0
M  V30 9 C 0.9613 0.2897 0.1169 0
M  V30 10 C 2.191 1.1789 0.3546 0
M  V30 11 C 3.1712 0.5849 1.3826 0
M  V30 12 C 3.7937 -0.7631 0.9779 0
M  V30 13 C 4.6316 -0.6759 -0.297 0
M  V30 14 H -1.4546 -1.0832 0.6489 0
M  V30 15 H -4.8168 0.3139 1.3969 0
M  V30 16 H -4.6196 1.5742 0.0922 0
M  V30 17 H -3.0045 -1.7827 -1.5894 0
M  V30 18 H -3.3821 -2.2157 0.117 0
M  V30 19 H -1.8894 0.6718 -1.8864 0
M  V30 20 H -0.8038 -0.7467 -1.7872 0
M  V30 21 H -5.3896 -1.0997 -0.3982 0
M  V30 22 H -4.5791 -0.016 -1.601 0
M  V30 23 H -0.4742 1.8986 -0.2179 0
M  V30 24 H 0.425 1.3864 -1.6736 0
M  V30 25 H 1.2725 -0.646 -0.394 0
M  V30 26 H 0.5087 0.033 1.0984 0
M  V30 27 H 2.7126 1.3721 -0.6068 0
M  V30 28 H 1.8512 2.1635 0.7446 0
M  V30 29 H 3.9877 1.3191 1.5578 0
M  V30 30 H 2.6415 0.4539 2.3515 0
M  V30 31 H 4.4556 -1.0987 1.8055 0
M  V30 32 H 3.0075 -1.5378 0.8585 0
M  V30 33 H 3.9823 -0.5097 -1.1815 0
M  V30 34 H 5.1769 -1.6318 -0.446 0
M  V30 35 H 5.3739 0.1467 -0.2197 0
M  V30 END ATOM
M  V30 BEGIN BOND
M  V30 1 2 1 2
M  V30 2 1 2 3
M  V30 3 1 2 4
M  V30 4 1 3 5
M  V30 5 1 3 6
M  V30 6 1 4 7
M  V30 7 1 6 8
M  V30 8 1 8 9
M  V30 9 1 9 10
M  V30 10 1 10 11
M  V30 11 1 11 12
M  V30 12 1 12 13
M  V30 13 1 5 7
M  V30 14 1 3 14
M  V30 15 1 4 15
M  V30 16 1 4 16
M  V30 17 1 5 17
M  V30 18 1 5 18
M  V30 19 1 6 19
M  V30 20 1 6 20
M  V30 21 1 7 21
M  V30 22 1 7 22
M  V30 23 1 8 23
M  V30 24 1 8 24
M  V30 25 1 9 25
M  V30 26 1 9 26
M  V30 27 1 10 27
M  V30 28 1 10 28
M  V30 29 1 11 29
M  V30 30 1 11 30
M  V30 31 1 12 31
M  V30 32 1 12 32
M  V30 33 1 13 33
M  V30 34 1 13 34
M  V30 35 1 13 35
M  V30 END BOND
M  V30 BEGIN COLLECTION
M  V30 MDLV30/STEABS ATOMS=(1 3)
M  V30 END COLLECTION
M  V30 END CTAB
M  END
>  <Structure No>
523

>  <LogS>
-3.769441651

>  <MMFF94 Energy>
4.6097

$$$$
Compound 524
Actelion Java MolfileCreator 2.0

  0  0  0  0  0  0              0 V3000
M  V30 BEGIN CTAB
M  V30 COUNTS 31 32 0 0 0
M  V30 BEGIN ATOM
M  V30 1 O 0.7149 -2.1459 2.0664 0
M  V30 2 C 0.2105 -2.2893 0.9194 0
M  V30 3 O 1.0186 -2.281 -0.2211 0
M  V30 4 C -1.2722 -2.3493 0.7582 0
M  V30 5 C 2.2627 -1.5896 -0.2729 0
M  V30 6 C -1.7551 -1.0266 0.2292 0
M  V30 7 C 2.008 -0.1066 -0.2547 0
M  V30 8 C -1.943 0.0571 1.104 0
M  V30 9 C -1.9119 -0.829 -1.1533 0
M  V30 10 C 2.2088 0.639 0.9186 0
M  V30 11 C 1.4584 0.5217 -1.3842 0
M  V30 12 C -2.3004 1.313 0.6038 0
M  V30 13 C -2.2717 0.4279 -1.649 0
M  V30 14 C 1.8785 1.9976 0.9538 0
M  V30 15 C 1.1288 1.8798 -1.3446 0
M  V30 16 C -2.466 1.498 -0.7713 0
M  V30 17 C 1.3385 2.6174 -0.1765 0
M  V30 18 H -1.7578 -2.5727 1.7334 0
M  V30 19 H -1.5331 -3.1717 0.0577 0
M  V30 20 H 2.9149 -1.9039 0.5711 0
M  V30 21 H 2.7836 -1.8609 -1.2153 0
M  V30 22 H -1.7973 -0.0679 2.1699 0
M  V30 23 H -1.7409 -1.643 -1.8468 0
M  V30 24 H 2.6069 0.1675 1.8083 0
M  V30 25 H 1.2685 -0.0449 -2.2875 0
M  V30 26 H -2.4401 2.1452 1.2815 0
M  V30 27 H -2.3885 0.5755 -2.7148 0
M  V30 28 H 2.0327 2.5681 1.8607 0
M  V30 29 H 0.6995 2.3574 -2.2158 0
M  V30 30 H -2.7367 2.4722 -1.1574 0
M  V30 31 H 1.0769 3.6671 -0.1451 0
M  V30 END ATOM
M  V30 BEGIN BOND
M  V30 1 2 1 2
M  V30 2 1 2 3
M  V30 3 1 2 4
M  V30 4 1 3 5
M  V30 5 1 4 6
M  V30 6 1 5 7
M  V30 7 2 6 8
M  V30 8 1 6 9
M  V30 9 2 7 10
M  V30 10 1 7 11
M  V30 11 1 8 12
M  V30 12 2 9 13
M  V30 13 1 10 14
M  V30 14 2 11 15
M  V30 15 2 12 16
M  V30 16 2 14 17
M  V30 17 1 13 16
M  V30 18 1 15 17
M  V30 19 1 4 18
M  V30 20 1 4 19
M  V30 21 1 5 20
M  V30 22 1 5 21
M  V30 23 1 8 22
M  V30 24 1 9 23
M  V30 25 1 10 24
M  V30 26 1 11 25
M  V30 27 1 12 26
M  V30 28 1 13 27
M  V30 29 1 14 28
M  V30 30 1 15 29
M  V30 31 1 16 30
M  V30 32 1 17 31
M  V30 END BOND
M  V30 END CTAB
M  END
>  <Structure No>
524

>  <LogS>
-3.86327488

>  <MMFF94 Energy>
45.501

$$$$
Compound 525
Actelion Java MolfileCreator 2.0

  0  0  0  0  0  0              0 V3000
M  V30 BEGIN CTAB
M  V30 COUNTS 23 22 0 0 0
M  V30 BEGIN ATOM
M  V30 1 S 2.2227 2.2227 -1.3167 0
M  V30 2 C 1.5817 1.2081 -0.1953 0
M  V30 3 S 0.423 1.9191 0.9868 0
M  V30 4 N 2.0086 -0.1721 -0.1032 0
M  V30 5 C -1.0244 1.5135 0.0025 0
M  V30 6 C 1.4401 -1.0501 0.9237 0
M  V30 7 C 3.003 -0.708 -1.0413 0
M  V30 8 S -1.4414 2.5136 -1.2284 0
M  V30 9 N -1.8745 0.4117 0.3701 0
M  V30 10 C -2.5419 -0.3756 -0.6704 0
M  V30 11 C -2.0932 0.1098 1.7879 0
M  V30 12 H 0.3681 -1.2282 0.7065 0
M  V30 13 H 1.9497 -2.0357 0.9525 0
M  V30 14 H 1.5519 -0.5865 1.9264 0
M  V30 15 H 3.2055 -1.7845 -0.8613 0
M  V30 16 H 3.9595 -0.1548 -0.9314 0
M  V30 17 H 2.632 -0.6025 -2.0827 0
M  V30 18 H -3.2955 0.2494 -1.1934 0
M  V30 19 H -1.7903 -0.7365 -1.4042 0
M  V30 20 H -3.0578 -1.2616 -0.2445 0
M  V30 21 H -1.1422 -0.1983 2.2675 0
M  V30 22 H -2.4821 1.0127 2.3046 0
M  V30 23 H -2.8313 -0.7082 1.923 0
M  V30 END ATOM
M  V30 BEGIN BOND
M  V30 1 2 1 2
M  V30 2 1 2 3
M  V30 3 1 2 4
M  V30 4 1 3 5
M  V30 5 1 4 6
M  V30 6 1 4 7
M  V30 7 2 5 8
M  V30 8 1 5 9
M  V30 9 1 9 10
M  V30 10 1 9 11
M  V30 11 1 6 12
M  V30 12 1 6 13
M  V30 13 1 6 14
M  V30 14 1 7 15
M  V30 15 1 7 16
M  V30 16 1 7 17
M  V30 17 1 10 18
M  V30 18 1 10 19
M  V30 19 1 10 20
M  V30 20 1 11 21
M  V30 21 1 11 22
M  V30 22 1 11 23
M  V30 END BOND
M  V30 END CTAB
M  END
>  <Structure No>
525

>  <LogS>
-2.830299065

>  <MMFF94 Energy>
-23.976

$$$$
Compound 526
Actelion Java MolfileCreator 2.0

  0  0  0  0  0  0              0 V3000
M  V30 BEGIN CTAB
M  V30 COUNTS 31 30 0 0 0
M  V30 BEGIN ATOM
M  V30 1 O -2.7054 0.4633 1.9318 0
M  V30 2 C -3.2892 0.5504 0.6613 0
M  V30 3 C -2.2044 0.647 -0.4182 0
M  V30 4 C -1.1815 -0.5186 -0.3935 0 CFG=2
M  V30 5 C -0.0807 -0.3307 -1.4708 0
M  V30 6 C -1.8732 -1.8751 -0.6137 0
M  V30 7 C 0.8249 0.8991 -1.2701 0
M  V30 8 C 1.4704 0.9304 0.095 0
M  V30 9 C 2.6215 0.3004 0.4169 0
M  V30 10 C 3.1193 0.3986 1.8359 0
M  V30 11 C 3.4257 -0.4725 -0.6013 0
M  V30 12 H -3.4574 0.3954 2.5759 0
M  V30 13 H -3.9466 -0.3264 0.476 0
M  V30 14 H -3.9233 1.4635 0.6085 0
M  V30 15 H -1.6773 1.6097 -0.257 0
M  V30 16 H -2.6942 0.6953 -1.4154 0
M  V30 17 H -0.6962 -0.5551 0.6058 0
M  V30 18 H 0.5639 -1.2343 -1.493 0
M  V30 19 H -0.5574 -0.2547 -2.4727 0
M  V30 20 H -2.4694 -1.8639 -1.5512 0
M  V30 21 H -2.5374 -2.1217 0.2398 0
M  V30 22 H -1.1204 -2.6892 -0.6799 0
M  V30 23 H 0.2334 1.8271 -1.4082 0
M  V30 24 H 1.5969 0.9209 -2.0674 0
M  V30 25 H 0.9484 1.4935 0.8652 0
M  V30 26 H 2.364 -0.0302 2.5281 0
M  V30 27 H 3.291 1.4635 2.1009 0
M  V30 28 H 4.0721 -0.1522 1.9777 0
M  V30 29 H 4.3397 -0.91 -0.1491 0
M  V30 30 H 2.8251 -1.3067 -1.0155 0
M  V30 31 H 3.7468 0.2006 -1.4232 0
M  V30 END ATOM
M  V30 BEGIN BOND
M  V30 1 1 1 2
M  V30 2 1 2 3
M  V30 3 1 3 4
M  V30 4 1 4 5
M  V30 5 1 4 6
M  V30 6 1 5 7
M  V30 7 1 7 8
M  V30 8 2 8 9
M  V30 9 1 9 10
M  V30 10 1 9 11
M  V30 11 1 1 12
M  V30 12 1 2 13
M  V30 13 1 2 14
M  V30 14 1 3 15
M  V30 15 1 3 16
M  V30 16 1 4 17
M  V30 17 1 5 18
M  V30 18 1 5 19
M  V30 19 1 6 20
M  V30 20 1 6 21
M  V30 21 1 6 22
M  V30 22 1 7 23
M  V30 23 1 7 24
M  V30 24 1 8 25
M  V30 25 1 10 26
M  V30 26 1 10 27
M  V30 27 1 10 28
M  V30 28 1 11 29
M  V30 29 1 11 30
M  V30 30 1 11 31
M  V30 END BOND
M  V30 BEGIN COLLECTION
M  V30 MDLV30/STEABS ATOMS=(1 4)
M  V30 END COLLECTION
M  V30 END CTAB
M  END
>  <Structure No>
526

>  <LogS>
-2.706734458

>  <MMFF94 Energy>
16.279

$$$$
Compound 527
Actelion Java MolfileCreator 2.0

  0  0  0  0  0  0              0 V3000
M  V30 BEGIN CTAB
M  V30 COUNTS 29 28 0 0 0
M  V30 BEGIN ATOM
M  V30 1 O 2.0152 1.705 -0.7747 0
M  V30 2 C 2.0125 0.6763 -0.1129 0
M  V30 3 C 0.7299 -0.1136 0.04 0 CFG=1
M  V30 4 C 3.2901 0.2245 0.5446 0
M  V30 5 C -0.3371 0.7426 0.7503 0
M  V30 6 C 0.2502 -0.5971 -1.3354 0
M  V30 7 C 4.3036 -0.2318 -0.4994 0
M  V30 8 C -1.5358 -0.0886 1.1494 0
M  V30 9 C -2.7672 0.0157 0.6019 0
M  V30 10 C -3.8488 -0.9149 1.0871 0
M  V30 11 C -3.0858 1.0282 -0.4721 0
M  V30 12 H 0.9275 -1.0146 0.6623 0
M  V30 13 H 3.7163 1.0659 1.1323 0
M  V30 14 H 3.0983 -0.6137 1.2479 0
M  V30 15 H 0.0983 1.1582 1.685 0
M  V30 16 H -0.6126 1.611 0.1165 0
M  V30 17 H -0.0056 0.2638 -1.9897 0
M  V30 18 H 1.0476 -1.1949 -1.827 0
M  V30 19 H -0.6451 -1.2452 -1.2284 0
M  V30 20 H 3.8912 -1.0779 -1.09 0
M  V30 21 H 4.5578 0.6048 -1.1847 0
M  V30 22 H 5.2323 -0.57 0.0066 0
M  V30 23 H -1.3659 -0.8465 1.9108 0
M  V30 24 H -4.0082 -0.7697 2.1768 0
M  V30 25 H -3.5483 -1.9679 0.9015 0
M  V30 26 H -4.8131 -0.7326 0.5685 0
M  V30 27 H -2.4318 0.8667 -1.354 0
M  V30 28 H -2.9368 2.0559 -0.079 0
M  V30 29 H -4.139 0.9445 -0.8118 0
M  V30 END ATOM
M  V30 BEGIN BOND
M  V30 1 2 1 2
M  V30 2 1 2 3
M  V30 3 1 2 4
M  V30 4 1 3 5
M  V30 5 1 3 6
M  V30 6 1 4 7
M  V30 7 1 5 8
M  V30 8 2 8 9
M  V30 9 1 9 10
M  V30 10 1 9 11
M  V30 11 1 3 12
M  V30 12 1 4 13
M  V30 13 1 4 14
M  V30 14 1 5 15
M  V30 15 1 5 16
M  V30 16 1 6 17
M  V30 17 1 6 18
M  V30 18 1 6 19
M  V30 19 1 7 20
M  V30 20 1 7 21
M  V30 21 1 7 22
M  V30 22 1 8 23
M  V30 23 1 10 24
M  V30 24 1 10 25
M  V30 25 1 10 26
M  V30 26 1 11 27
M  V30 27 1 11 28
M  V30 28 1 11 29
M  V30 END BOND
M  V30 BEGIN COLLECTION
M  V30 MDLV30/STEABS ATOMS=(1 3)
M  V30 END COLLECTION
M  V30 END CTAB
M  END
>  <Structure No>
527

>  <LogS>
-2.701095244

>  <MMFF94 Energy>
12.629

$$$$
Compound 528
Actelion Java MolfileCreator 2.0

  0  0  0  0  0  0              0 V3000
M  V30 BEGIN CTAB
M  V30 COUNTS 23 23 0 0 0
M  V30 BEGIN ATOM
M  V30 1 S 2.7158 -1.1515 -0.5756 0
M  V30 2 O 3.6002 -0.8328 0.5967 0
M  V30 3 O 3.253 -0.49 -1.8133 0
M  V30 4 O 2.7214 -2.8153 -0.8132 0 CHG=-1
M  V30 5 C 1.0728 -0.5747 -0.2567 0
M  V30 6 C 0.787 0.797 -0.0314 0
M  V30 7 C 0.0324 -1.5142 -0.2337 0
M  V30 8 N 1.8396 1.7794 -0.0465 0
M  V30 9 C -0.5539 1.1943 0.2061 0
M  V30 10 C -1.2846 -1.1217 0.0209 0
M  V30 11 C -1.574 0.2304 0.2227 0
M  V30 12 C -0.9166 2.6377 0.4404 0
M  V30 13 C -2.391 -2.1358 0.0035 0
M  V30 14 H 0.2431 -2.5604 -0.4141 0
M  V30 15 H 1.6529 2.7933 0.1099 0
M  V30 16 H 2.837 1.5287 -0.2102 0
M  V30 17 H -2.6008 0.5316 0.3947 0
M  V30 18 H -2.0071 2.7686 0.6073 0
M  V30 19 H -0.6339 3.2454 -0.4446 0
M  V30 20 H -0.3881 3.0176 1.3399 0
M  V30 21 H -3.2172 -1.8276 0.6792 0
M  V30 22 H -2.0216 -3.126 0.3456 0
M  V30 23 H -2.7856 -2.2336 -1.0292 0
M  V30 END ATOM
M  V30 BEGIN BOND
M  V30 1 2 1 2
M  V30 2 2 1 3
M  V30 3 1 1 4
M  V30 4 1 1 5
M  V30 5 2 5 6
M  V30 6 1 5 7
M  V30 7 1 6 8
M  V30 8 1 6 9
M  V30 9 2 7 10
M  V30 10 2 9 11
M  V30 11 1 9 12
M  V30 12 1 10 13
M  V30 13 1 10 11
M  V30 14 1 7 14
M  V30 15 1 8 15
M  V30 16 1 8 16
M  V30 17 1 11 17
M  V30 18 1 12 18
M  V30 19 1 12 19
M  V30 20 1 12 20
M  V30 21 1 13 21
M  V30 22 1 13 22
M  V30 23 1 13 23
M  V30 END BOND
M  V30 END CTAB
M  END
>  <Structure No>
528

>  <LogS>
-1.819543504

>  <MMFF94 Energy>
67.826

$$$$
Compound 529
Actelion Java MolfileCreator 2.0

  0  0  0  0  0  0              0 V3000
M  V30 BEGIN CTAB
M  V30 COUNTS 9 9 0 0 0
M  V30 BEGIN ATOM
M  V30 1 S 0.0 1.7312 0.0823 0
M  V30 2 C 1.2586 0.6411 -0.145 0
M  V30 3 C -1.2214 0.5893 0.2514 0
M  V30 4 C 0.731 -0.6412 -0.0905 0
M  V30 5 C -0.6514 -0.6701 0.1304 0
M  V30 6 H 2.2982 0.8922 -0.3058 0
M  V30 7 H -2.2689 0.7967 0.4242 0
M  V30 8 H 1.331 -1.5337 -0.2077 0
M  V30 9 H -1.2213 -1.587 0.2003 0
M  V30 END ATOM
M  V30 BEGIN BOND
M  V30 1 1 1 2
M  V30 2 1 1 3
M  V30 3 2 2 4
M  V30 4 2 3 5
M  V30 5 1 4 5
M  V30 6 1 2 6
M  V30 7 1 3 7
M  V30 8 1 4 8
M  V30 9 1 5 9
M  V30 END BOND
M  V30 END CTAB
M  END
>  <Structure No>
529

>  <LogS>
-1.445011049

>  <MMFF94 Energy>
4.3792

$$$$
Compound 530
Actelion Java MolfileCreator 2.0

  0  0  0  0  0  0              0 V3000
M  V30 BEGIN CTAB
M  V30 COUNTS 33 34 0 0 0
M  V30 BEGIN ATOM
M  V30 1 O -4.5287 2.5405 -0.4759 0
M  V30 2 C -3.4751 1.6492 -0.2859 0
M  V30 3 C -3.5142 0.3945 -0.896 0
M  V30 4 C -2.3812 1.9968 0.5124 0
M  V30 5 C -2.4652 -0.5123 -0.7174 0
M  V30 6 C -1.3302 1.0951 0.6949 0
M  V30 7 C -1.3412 -0.1714 0.0701 0
M  V30 8 C -0.1722 -1.1431 0.3242 0
M  V30 9 C 1.1633 -0.4151 0.0763 0
M  V30 10 C -0.3222 -1.6586 1.776 0
M  V30 11 C -0.1937 -2.376 -0.6112 0
M  V30 12 C 1.346 0.2936 -1.1315 0
M  V30 13 C 2.2482 -0.4727 0.9817 0
M  V30 14 C 2.5495 0.9466 -1.4079 0
M  V30 15 C 3.4504 0.1828 0.6991 0
M  V30 16 C 3.6029 0.8956 -0.4944 0
M  V30 17 O 4.7971 1.5524 -0.783 0
M  V30 18 H -4.5302 3.458 -0.0456 0
M  V30 19 H -4.3631 0.1185 -1.5088 0
M  V30 20 H -2.3453 2.9647 0.996 0
M  V30 21 H -2.5505 -1.473 -1.2024 0
M  V30 22 H -0.5007 1.3879 1.3264 0
M  V30 23 H -0.1835 -0.8349 2.5089 0
M  V30 24 H -1.337 -2.0861 1.9315 0
M  V30 25 H 0.4117 -2.4632 1.9966 0
M  V30 26 H -1.0705 -3.0261 -0.4023 0
M  V30 27 H 0.7184 -2.9931 -0.4583 0
M  V30 28 H -0.2216 -2.0674 -1.6784 0
M  V30 29 H 0.55 0.3432 -1.8639 0
M  V30 30 H 2.1856 -1.0179 1.9115 0
M  V30 31 H 2.6641 1.4906 -2.3368 0
M  V30 32 H 4.2657 0.1321 1.4096 0
M  V30 33 H 5.5805 1.5332 -0.1405 0
M  V30 END ATOM
M  V30 BEGIN BOND
M  V30 1 1 1 2
M  V30 2 2 2 3
M  V30 3 1 2 4
M  V30 4 1 3 5
M  V30 5 2 4 6
M  V30 6 2 5 7
M  V30 7 1 7 8
M  V30 8 1 8 9
M  V30 9 1 8 10
M  V30 10 1 8 11
M  V30 11 2 9 12
M  V30 12 1 9 13
M  V30 13 1 12 14
M  V30 14 2 13 15
M  V30 15 2 14 16
M  V30 16 1 16 17
M  V30 17 1 6 7
M  V30 18 1 15 16
M  V30 19 1 1 18
M  V30 20 1 3 19
M  V30 21 1 4 20
M  V30 22 1 5 21
M  V30 23 1 6 22
M  V30 24 1 10 23
M  V30 25 1 10 24
M  V30 26 1 10 25
M  V30 27 1 11 26
M  V30 28 1 11 27
M  V30 29 1 11 28
M  V30 30 1 12 29
M  V30 31 1 13 30
M  V30 32 1 14 31
M  V30 33 1 15 32
M  V30 34 1 17 33
M  V30 END BOND
M  V30 END CTAB
M  END
>  <Structure No>
530

>  <LogS>
-2.879922295

>  <MMFF94 Energy>
42.649

$$$$
Compound 531
Actelion Java MolfileCreator 2.0

  0  0  0  0  0  0              0 V3000
M  V30 BEGIN CTAB
M  V30 COUNTS 7 6 0 0 0
M  V30 BEGIN ATOM
M  V30 1 Cl -1.1441 1.621 -0.1906 0
M  V30 2 C -0.5123 -0.0394 -0.061 0
M  V30 3 Cl -1.2214 -0.812 1.3786 0
M  V30 4 Cl -0.9939 -0.9509 -1.5135 0
M  V30 5 C 0.9824 -0.0152 0.0552 0
M  V30 6 O 1.6119 -1.0566 0.1549 0
M  V30 7 H 1.5193 0.9281 0.0523 0
M  V30 END ATOM
M  V30 BEGIN BOND
M  V30 1 1 1 2
M  V30 2 1 2 3
M  V30 3 1 2 4
M  V30 4 1 2 5
M  V30 5 2 5 6
M  V30 6 1 5 7
M  V30 END BOND
M  V30 END CTAB
M  END
>  <Structure No>
531

>  <LogS>
-0.691340871

>  <MMFF94 Energy>
37.49

$$$$
Compound 532
Actelion Java MolfileCreator 2.0

  0  0  0  0  0  0              0 V3000
M  V30 BEGIN CTAB
M  V30 COUNTS 18 17 0 0 0
M  V30 BEGIN ATOM
M  V30 1 O 2.1404 -1.3755 -0.1527 0
M  V30 2 C 1.7058 -0.0744 -0.4457 0
M  V30 3 C 0.3484 0.2189 0.2243 0 CFG=2
M  V30 4 C -0.7452 -0.7262 -0.327 0
M  V30 5 C -0.0233 1.6952 0.0131 0
M  V30 6 C -2.0546 -0.6443 0.4587 0
M  V30 7 H 2.4519 -1.3656 0.7898 0
M  V30 8 H 1.6114 0.0293 -1.5483 0
M  V30 9 H 2.4723 0.6594 -0.106 0
M  V30 10 H 0.4606 0.0451 1.3179 0
M  V30 11 H -0.3886 -1.7775 -0.269 0
M  V30 12 H -0.945 -0.4988 -1.397 0
M  V30 13 H 0.8003 2.3536 0.3627 0
M  V30 14 H -0.9266 1.9607 0.5997 0
M  V30 15 H -0.2132 1.9024 -1.0618 0
M  V30 16 H -2.7447 -1.441 0.1093 0
M  V30 17 H -1.8678 -0.791 1.5437 0
M  V30 18 H -2.5523 0.3337 0.296 0
M  V30 END ATOM
M  V30 BEGIN BOND
M  V30 1 1 1 2
M  V30 2 1 2 3
M  V30 3 1 3 4
M  V30 4 1 3 5
M  V30 5 1 4 6
M  V30 6 1 1 7
M  V30 7 1 2 8
M  V30 8 1 2 9
M  V30 9 1 3 10
M  V30 10 1 4 11
M  V30 11 1 4 12
M  V30 12 1 5 13
M  V30 13 1 5 14
M  V30 14 1 5 15
M  V30 15 1 6 16
M  V30 16 1 6 17
M  V30 17 1 6 18
M  V30 END BOND
M  V30 BEGIN COLLECTION
M  V30 MDLV30/STEABS ATOMS=(1 3)
M  V30 END COLLECTION
M  V30 END CTAB
M  END
>  <Structure No>
532

>  <LogS>
-0.468101062

>  <MMFF94 Energy>
3.8506

$$$$
Compound 533
Actelion Java MolfileCreator 2.0

  0  0  0  0  0  0              0 V3000
M  V30 BEGIN CTAB
M  V30 COUNTS 18 17 0 0 0
M  V30 BEGIN ATOM
M  V30 1 O 2.9813 -0.3818 0.3054 0
M  V30 2 C 1.7227 -0.5662 -0.2802 0
M  V30 3 C 0.6976 0.3253 0.4268 0
M  V30 4 C -0.6844 0.3183 -0.2645 0
M  V30 5 C -1.3808 -1.0453 -0.1405 0
M  V30 6 C -1.5762 1.4139 0.3341 0
M  V30 7 H 3.6059 -0.9713 -0.1917 0
M  V30 8 H 1.7725 -0.2969 -1.3591 0
M  V30 9 H 1.4284 -1.6339 -0.1829 0
M  V30 10 H 0.596 0.0018 1.4863 0
M  V30 11 H 1.095 1.3646 0.429 0
M  V30 12 H -0.5501 0.5474 -1.345 0
M  V30 13 H -0.8193 -1.8241 -0.696 0
M  V30 14 H -2.4003 -0.9975 -0.5798 0
M  V30 15 H -1.4661 -1.3478 0.9252 0
M  V30 16 H -1.1018 2.41 0.2046 0
M  V30 17 H -2.5598 1.4352 -0.1821 0
M  V30 18 H -1.7435 1.234 1.4181 0
M  V30 END ATOM
M  V30 BEGIN BOND
M  V30 1 1 1 2
M  V30 2 1 2 3
M  V30 3 1 3 4
M  V30 4 1 4 5
M  V30 5 1 4 6
M  V30 6 1 1 7
M  V30 7 1 2 8
M  V30 8 1 2 9
M  V30 9 1 3 10
M  V30 10 1 3 11
M  V30 11 1 4 12
M  V30 12 1 5 13
M  V30 13 1 5 14
M  V30 14 1 5 15
M  V30 15 1 6 16
M  V30 16 1 6 17
M  V30 17 1 6 18
M  V30 END BOND
M  V30 END CTAB
M  END
>  <Structure No>
533

>  <LogS>
-0.468101062

>  <MMFF94 Energy>
3.6614

$$$$
Compound 534
Actelion Java MolfileCreator 2.0

  0  0  0  0  0  0              0 V3000
M  V30 BEGIN CTAB
M  V30 COUNTS 68 72 0 0 0
M  V30 BEGIN ATOM
M  V30 1 S -2.5803 -0.4297 -3.4414 0
M  V30 2 O -3.4047 -0.8959 -4.6086 0
M  V30 3 O -1.5885 -1.507 -3.0917 0
M  V30 4 O -1.7623 0.9748 -3.8666 0 CHG=-1
M  V30 5 C -3.6136 -0.1096 -2.0434 0
M  V30 6 C -2.9977 0.0994 -0.7189 0
M  V30 7 C -4.9471 -0.056 -2.1844 0
M  V30 8 N -1.7142 0.3145 -0.6462 0
M  V30 9 C -3.8761 0.0328 0.4665 0
M  V30 10 C -5.8655 0.1965 -1.0353 0
M  V30 11 N -1.0054 0.6406 0.5234 0
M  V30 12 O -3.4083 -0.3122 1.5863 0
M  V30 13 C -5.3361 0.2475 0.2816 0
M  V30 14 C -7.2602 0.3661 -1.2367 0
M  V30 15 C 0.4241 0.7125 0.4679 0
M  V30 16 C -6.2035 0.4656 1.3804 0
M  V30 17 S -7.991 0.3683 -2.8543 0
M  V30 18 C -8.096 0.5735 -0.134 0
M  V30 19 C 1.2054 -0.3749 0.0029 0
M  V30 20 C 1.0452 1.9161 0.814 0
M  V30 21 N -5.6936 0.5994 2.718 0
M  V30 22 C -7.5749 0.6252 1.1552 0
M  V30 23 O -9.4631 0.6513 -2.7676 0
M  V30 24 O -7.7978 -0.9733 -3.5076 0
M  V30 25 O -7.2722 1.5679 -3.7878 0 CHG=-1
M  V30 26 C 2.6092 -0.2115 -0.1666 0
M  V30 27 C 0.6162 -1.6239 -0.2829 0
M  V30 28 C 2.4201 2.0728 0.6667 0
M  V30 29 C -6.1871 -0.1819 3.8172 0
M  V30 30 C 3.2143 1.0229 0.1953 0
M  V30 31 C 3.352 -1.2674 -0.7358 0
M  V30 32 C 1.3791 -2.6739 -0.8043 0
M  V30 33 O -7.176 -0.9546 3.6633 0
M  V30 34 C -5.525 -0.091 5.1525 0
M  V30 35 N 4.6242 1.2566 0.0925 0
M  V30 36 C 2.7396 -2.4831 -1.049 0
M  V30 37 S 0.627 -4.2222 -1.1878 0
M  V30 38 N 5.4799 0.4307 0.5454 0
M  V30 39 O -0.6968 -4.3429 -0.4862 0
M  V30 40 O 1.5167 -5.3448 -0.7306 0
M  V30 41 O 0.3895 -4.3299 -2.8482 0 CHG=-1
M  V30 42 C 6.8895 0.654 0.4255 0
M  V30 43 C 7.403 1.7768 -0.2507 0
M  V30 44 C 7.7762 -0.2711 0.9906 0
M  V30 45 C 8.7848 1.966 -0.3534 0
M  V30 46 C 9.1584 -0.0836 0.8825 0
M  V30 47 C 9.6682 1.0318 0.2042 0
M  V30 48 S 11.408 1.2787 0.0835 0
M  V30 49 O 11.7221 2.1223 -1.1207 0
M  V30 50 O 12.1033 -0.0451 -0.0579 0
M  V30 51 O 11.9587 2.0541 1.4674 0 CHG=-1
M  V30 52 H -5.357 -0.1974 -3.1714 0
M  V30 53 H -1.4864 1.1204 1.3179 0
M  V30 54 H -9.1616 0.7109 -0.2666 0
M  V30 55 H 0.4508 2.7506 1.1679 0
M  V30 56 H -4.8732 1.2265 2.8783 0
M  V30 57 H -8.2431 0.8193 1.9857 0
M  V30 58 H -0.4351 -1.7924 -0.0985 0
M  V30 59 H 2.8754 3.0198 0.9296 0
M  V30 60 H 4.4027 -1.1634 -0.9688 0
M  V30 61 H -5.7923 0.87 5.639 0
M  V30 62 H -5.8477 -0.9337 5.8051 0
M  V30 63 H -4.4253 -0.1435 5.0226 0
M  V30 64 H 3.3339 -3.2801 -1.4808 0
M  V30 65 H 6.7405 2.5091 -0.697 0
M  V30 66 H 7.3958 -1.1382 1.5155 0
M  V30 67 H 9.1641 2.8406 -0.8674 0
M  V30 68 H 9.8301 -0.806 1.3303 0
M  V30 END ATOM
M  V30 BEGIN BOND
M  V30 1 2 1 2
M  V30 2 2 1 3
M  V30 3 1 1 4
M  V30 4 1 1 5
M  V30 5 1 5 6
M  V30 6 2 5 7
M  V30 7 2 6 8
M  V30 8 1 6 9
M  V30 9 1 7 10
M  V30 10 1 8 11
M  V30 11 2 9 12
M  V30 12 1 9 13
M  V30 13 1 10 14
M  V30 14 1 11 15
M  V30 15 1 13 16
M  V30 16 1 14 17
M  V30 17 2 14 18
M  V30 18 1 15 19
M  V30 19 2 15 20
M  V30 20 1 16 21
M  V30 21 2 16 22
M  V30 22 2 17 23
M  V30 23 2 17 24
M  V30 24 1 17 25
M  V30 25 1 19 26
M  V30 26 2 19 27
M  V30 27 1 20 28
M  V30 28 1 21 29
M  V30 29 1 26 30
M  V30 30 2 26 31
M  V30 31 1 27 32
M  V30 32 2 29 33
M  V30 33 1 29 34
M  V30 34 1 30 35
M  V30 35 1 31 36
M  V30 36 1 32 37
M  V30 37 2 35 38
M  V30 38 2 37 39
M  V30 39 2 37 40
M  V30 40 1 37 41
M  V30 41 1 38 42
M  V30 42 2 42 43
M  V30 43 1 42 44
M  V30 44 1 43 45
M  V30 45 2 44 46
M  V30 46 2 45 47
M  V30 47 1 47 48
M  V30 48 2 48 49
M  V30 49 2 48 50
M  V30 50 1 48 51
M  V30 51 2 10 13
M  V30 52 1 18 22
M  V30 53 2 28 30
M  V30 54 2 32 36
M  V30 55 1 46 47
M  V30 56 1 7 52
M  V30 57 1 11 53
M  V30 58 1 18 54
M  V30 59 1 20 55
M  V30 60 1 21 56
M  V30 61 1 22 57
M  V30 62 1 27 58
M  V30 63 1 28 59
M  V30 64 1 31 60
M  V30 65 1 34 61
M  V30 66 1 34 62
M  V30 67 1 34 63
M  V30 68 1 36 64
M  V30 69 1 43 65
M  V30 70 1 44 66
M  V30 71 1 45 67
M  V30 72 1 46 68
M  V30 END BOND
M  V30 END CTAB
M  END
>  <Structure No>
534

>  <LogS>
-1.461244839

>  <MMFF94 Energy>
361.16

$$$$
Compound 535
Actelion Java MolfileCreator 2.0

  0  0  0  0  0  0              0 V3000
M  V30 BEGIN CTAB
M  V30 COUNTS 14 15 0 0 0
M  V30 BEGIN ATOM
M  V30 1 S 1.7413 1.4924 0.9947 0
M  V30 2 C 0.3454 0.7162 0.4841 0
M  V30 3 C 2.7433 0.2949 0.3387 0
M  V30 4 C 0.695 -0.4479 -0.1798 0
M  V30 5 C -0.9816 1.1027 0.6538 0
M  V30 6 N 2.0288 -0.6874 -0.2636 0
M  V30 7 C -0.2922 -1.2823 -0.7073 0
M  V30 8 C -1.9836 0.2715 0.1275 0
M  V30 9 C -1.6405 -0.9158 -0.5501 0
M  V30 10 H 3.8234 0.2986 0.386 0
M  V30 11 H -1.2345 2.0164 1.1759 0
M  V30 12 H -0.0273 -2.1939 -1.2276 0
M  V30 13 H -3.0245 0.5442 0.243 0
M  V30 14 H -2.4201 -1.5498 -0.9521 0
M  V30 END ATOM
M  V30 BEGIN BOND
M  V30 1 1 1 2
M  V30 2 1 1 3
M  V30 3 2 2 4
M  V30 4 1 2 5
M  V30 5 2 3 6
M  V30 6 1 4 7
M  V30 7 2 5 8
M  V30 8 2 7 9
M  V30 9 1 4 6
M  V30 10 1 8 9
M  V30 11 1 3 10
M  V30 12 1 5 11
M  V30 13 1 7 12
M  V30 14 1 8 13
M  V30 15 1 9 14
M  V30 END BOND
M  V30 END CTAB
M  END
>  <Structure No>
535

>  <LogS>
-1.653826526

>  <MMFF94 Energy>
19.055

$$$$
Compound 536
Actelion Java MolfileCreator 2.0

  0  0  0  0  0  0              0 V3000
M  V30 BEGIN CTAB
M  V30 COUNTS 16 16 0 0 0
M  V30 BEGIN ATOM
M  V30 1 O 2.2925 -2.3745 -0.3272 0
M  V30 2 N 2.3875 -1.1384 -0.1781 0 CHG=1
M  V30 3 O 3.6408 -0.5734 -0.116 0 CHG=-1
M  V30 4 C 1.2092 -0.3177 -0.0725 0
M  V30 5 C -0.0751 -0.8921 -0.1355 0
M  V30 6 C 1.3263 1.0723 0.0951 0
M  V30 7 C -1.2281 -0.0924 -0.0327 0
M  V30 8 C 0.1859 1.871 0.1978 0
M  V30 9 C -2.5728 -0.707 -0.1001 0
M  V30 10 C -1.0842 1.2955 0.1346 0
M  V30 11 O -3.6082 0.0052 -0.0085 0
M  V30 12 O -2.713 -2.0801 -0.2657 0 CHG=-1
M  V30 13 H -0.1754 -1.9622 -0.2644 0
M  V30 14 H 2.2994 1.543 0.1472 0
M  V30 15 H 0.287 2.9409 0.3268 0
M  V30 16 H -1.9527 1.937 0.2168 0
M  V30 END ATOM
M  V30 BEGIN BOND
M  V30 1 2 1 2
M  V30 2 1 2 3
M  V30 3 1 2 4
M  V30 4 2 4 5
M  V30 5 1 4 6
M  V30 6 1 5 7
M  V30 7 2 6 8
M  V30 8 1 7 9
M  V30 9 2 7 10
M  V30 10 2 9 11
M  V30 11 1 9 12
M  V30 12 1 8 10
M  V30 13 1 5 13
M  V30 14 1 6 14
M  V30 15 1 8 15
M  V30 16 1 10 16
M  V30 END BOND
M  V30 END CTAB
M  END
>  <Structure No>
536

>  <LogS>
-1.745907172

>  <MMFF94 Energy>
60.373

$$$$
Compound 537
Actelion Java MolfileCreator 2.0

  0  0  0  0  0  0              0 V3000
M  V30 BEGIN CTAB
M  V30 COUNTS 17 18 0 0 0
M  V30 BEGIN ATOM
M  V30 1 O 3.6131 -1.444 -0.0801 0
M  V30 2 C 2.5478 -0.7816 0.0287 0
M  V30 3 O 2.5979 0.4739 0.4601 0
M  V30 4 N 1.3554 -1.3519 -0.2943 0
M  V30 5 C 1.5094 1.2227 0.5958 0
M  V30 6 C 0.2007 -0.6403 -0.1785 0
M  V30 7 O 1.6258 2.4073 1.0103 0
M  V30 8 C 0.2493 0.6921 0.2787 0
M  V30 9 C -1.0352 -1.2179 -0.5089 0
M  V30 10 C -0.9396 1.4332 0.4008 0
M  V30 11 C -2.2125 -0.4741 -0.3846 0
M  V30 12 C -2.1648 0.8473 0.0688 0
M  V30 13 H 1.3344 -2.3416 -0.6324 0
M  V30 14 H -1.0871 -2.2405 -0.8614 0
M  V30 15 H -0.9241 2.4583 0.7503 0
M  V30 16 H -3.1638 -0.9226 -0.6402 0
M  V30 17 H -3.0794 1.4184 0.1631 0
M  V30 END ATOM
M  V30 BEGIN BOND
M  V30 1 2 1 2
M  V30 2 1 2 3
M  V30 3 1 2 4
M  V30 4 1 3 5
M  V30 5 1 4 6
M  V30 6 2 5 7
M  V30 7 1 5 8
M  V30 8 1 6 9
M  V30 9 1 8 10
M  V30 10 2 9 11
M  V30 11 2 10 12
M  V30 12 2 6 8
M  V30 13 1 11 12
M  V30 14 1 4 13
M  V30 15 1 9 14
M  V30 16 1 10 15
M  V30 17 1 11 16
M  V30 18 1 12 17
M  V30 END BOND
M  V30 END CTAB
M  END
>  <Structure No>
537

>  <LogS>
-2.735417906

>  <MMFF94 Energy>
-23.247

$$$$
Compound 538
Actelion Java MolfileCreator 2.0

  0  0  0  0  0  0              0 V3000
M  V30 BEGIN CTAB
M  V30 COUNTS 28 29 0 0 0
M  V30 BEGIN ATOM
M  V30 1 O 0.9555 -2.7889 0.9555 0
M  V30 2 C 0.7471 -1.7523 0.2672 0
M  V30 3 C 1.5693 -0.5362 0.5276 0
M  V30 4 C -0.3467 -1.8092 -0.7786 0 CFG=2
M  V30 5 C 2.2963 -0.4327 1.7304 0
M  V30 6 C 1.6485 0.5225 -0.3998 0
M  V30 7 O 0.2093 -1.7308 -2.0664 0
M  V30 8 C -1.3858 -0.7279 -0.5443 0
M  V30 9 C 3.0689 0.7006 2.0011 0
M  V30 10 C 2.4227 1.6536 -0.1232 0
M  V30 11 C -1.6737 0.2559 -1.5129 0
M  V30 12 C -2.1039 -0.7163 0.6663 0
M  V30 13 C 3.1309 1.7436 1.076 0
M  V30 14 C -2.6399 1.235 -1.2618 0
M  V30 15 C -3.0691 0.2647 0.9113 0
M  V30 16 C -3.3355 1.2408 -0.0509 0
M  V30 17 H -0.8813 -2.7843 -0.6869 0
M  V30 18 H 2.2602 -1.2239 2.4689 0
M  V30 19 H 1.1298 0.4826 -1.3448 0
M  V30 20 H 0.6848 -2.5877 -2.2275 0
M  V30 21 H 3.6191 0.7702 2.9308 0
M  V30 22 H 2.4763 2.4604 -0.8427 0
M  V30 23 H -1.154 0.2757 -2.4616 0
M  V30 24 H -1.9123 -1.4676 1.4227 0
M  V30 25 H 3.7296 2.6203 1.2872 0
M  V30 26 H -2.8507 1.9898 -2.0084 0
M  V30 27 H -3.6118 0.2673 1.8479 0
M  V30 28 H -4.0832 1.9998 0.1403 0
M  V30 END ATOM
M  V30 BEGIN BOND
M  V30 1 2 1 2
M  V30 2 1 2 3
M  V30 3 1 2 4
M  V30 4 2 3 5
M  V30 5 1 3 6
M  V30 6 1 4 7
M  V30 7 1 4 8
M  V30 8 1 5 9
M  V30 9 2 6 10
M  V30 10 2 8 11
M  V30 11 1 8 12
M  V30 12 2 9 13
M  V30 13 1 11 14
M  V30 14 2 12 15
M  V30 15 2 14 16
M  V30 16 1 10 13
M  V30 17 1 15 16
M  V30 18 1 4 17
M  V30 19 1 5 18
M  V30 20 1 6 19
M  V30 21 1 7 20
M  V30 22 1 9 21
M  V30 23 1 10 22
M  V30 24 1 11 23
M  V30 25 1 12 24
M  V30 26 1 13 25
M  V30 27 1 14 26
M  V30 28 1 15 27
M  V30 29 1 16 28
M  V30 END BOND
M  V30 BEGIN COLLECTION
M  V30 MDLV30/STEABS ATOMS=(1 4)
M  V30 END COLLECTION
M  V30 END CTAB
M  END
>  <Structure No>
538

>  <LogS>
-2.849722352

>  <MMFF94 Energy>
86.784

$$$$
Compound 539
Actelion Java MolfileCreator 2.0

  0  0  0  0  0  0              0 V3000
M  V30 BEGIN CTAB
M  V30 COUNTS 27 26 0 0 0
M  V30 BEGIN ATOM
M  V30 1 O -5.015 -0.231 0.9243 0
M  V30 2 C -3.7769 -0.7431 0.5132 0
M  V30 3 C -2.7538 0.3882 0.3808 0
M  V30 4 C -1.3815 -0.1525 -0.038 0
M  V30 5 C -0.3567 0.9855 -0.16 0
M  V30 6 C 0.9985 0.5087 -0.7071 0
M  V30 7 C 1.8005 -0.3016 0.3259 0
M  V30 8 C 3.1592 -0.7691 -0.2197 0
M  V30 9 C 4.1702 0.37 -0.3494 0
M  V30 10 H -5.4252 0.1954 0.127 0
M  V30 11 H -3.8853 -1.2829 -0.4554 0
M  V30 12 H -3.4276 -1.4717 1.2756 0
M  V30 13 H -2.6646 0.9127 1.3576 0
M  V30 14 H -3.1139 1.1165 -0.3788 0
M  V30 15 H -1.4764 -0.6723 -1.0167 0
M  V30 16 H -1.0392 -0.8864 0.7221 0
M  V30 17 H -0.2137 1.4752 0.8283 0
M  V30 18 H -0.7569 1.752 -0.8596 0
M  V30 19 H 0.8422 -0.0954 -1.6276 0
M  V30 20 H 1.579 1.4114 -0.9915 0
M  V30 21 H 1.2249 -1.2084 0.6061 0
M  V30 22 H 1.9526 0.3005 1.2485 0
M  V30 23 H 3.5772 -1.5241 0.4811 0
M  V30 24 H 3.0263 -1.2648 -1.2059 0
M  V30 25 H 5.1609 -0.0471 -0.6277 0
M  V30 26 H 4.274 0.9105 0.6154 0
M  V30 27 H 3.8629 1.0829 -1.142 0
M  V30 END ATOM
M  V30 BEGIN BOND
M  V30 1 1 1 2
M  V30 2 1 2 3
M  V30 3 1 3 4
M  V30 4 1 4 5
M  V30 5 1 5 6
M  V30 6 1 6 7
M  V30 7 1 7 8
M  V30 8 1 8 9
M  V30 9 1 1 10
M  V30 10 1 2 11
M  V30 11 1 2 12
M  V30 12 1 3 13
M  V30 13 1 3 14
M  V30 14 1 4 15
M  V30 15 1 4 16
M  V30 16 1 5 17
M  V30 17 1 5 18
M  V30 18 1 6 19
M  V30 19 1 6 20
M  V30 20 1 7 21
M  V30 21 1 7 22
M  V30 22 1 8 23
M  V30 23 1 8 24
M  V30 24 1 9 25
M  V30 25 1 9 26
M  V30 26 1 9 27
M  V30 END BOND
M  V30 END CTAB
M  END
>  <Structure No>
539

>  <LogS>
-2.637593121

>  <MMFF94 Energy>
-2.829

$$$$
Compound 540
Actelion Java MolfileCreator 2.0

  0  0  0  0  0  0              0 V3000
M  V30 BEGIN CTAB
M  V30 COUNTS 23 23 0 0 0
M  V30 BEGIN ATOM
M  V30 1 Cl -5.0967 -1.2515 -1.168 0
M  V30 2 C -3.4623 -0.7753 -0.7152 0
M  V30 3 C -2.5483 -0.4628 -1.7268 0
M  V30 4 C -3.054 -0.7014 0.6328 0
M  V30 5 F -2.918 -0.5267 -3.0299 0
M  V30 6 N -1.2818 -0.0925 -1.4123 0
M  V30 7 N -3.973 -1.017 1.691 0
M  V30 8 C -1.7294 -0.3128 0.9256 0
M  V30 9 C -0.8516 -0.0097 -0.1242 0
M  V30 10 Cl -1.1449 -0.1973 2.585 0
M  V30 11 O 0.4627 0.376 0.1597 0
M  V30 12 C 1.4097 0.6973 -0.8525 0
M  V30 13 C 2.7075 1.0588 -0.2134 0
M  V30 14 O 2.932 2.2561 0.114 0
M  V30 15 O 3.6418 0.0563 0.061 0
M  V30 16 C 4.8887 0.3236 0.6912 0
M  V30 17 H -4.9562 -1.3063 1.4969 0
M  V30 18 H -3.6936 -0.9693 2.6948 0
M  V30 19 H 1.5592 -0.1791 -1.5193 0
M  V30 20 H 1.0386 1.552 -1.459 0
M  V30 21 H 5.4535 -0.6248 0.7985 0
M  V30 22 H 4.7199 0.758 1.6993 0
M  V30 23 H 5.4835 1.0291 0.0731 0
M  V30 END ATOM
M  V30 BEGIN BOND
M  V30 1 1 1 2
M  V30 2 2 2 3
M  V30 3 1 2 4
M  V30 4 1 3 5
M  V30 5 1 3 6
M  V30 6 1 4 7
M  V30 7 2 4 8
M  V30 8 2 6 9
M  V30 9 1 8 10
M  V30 10 1 9 11
M  V30 11 1 11 12
M  V30 12 1 12 13
M  V30 13 2 13 14
M  V30 14 1 13 15
M  V30 15 1 15 16
M  V30 16 1 8 9
M  V30 17 1 7 17
M  V30 18 1 7 18
M  V30 19 1 12 19
M  V30 20 1 12 20
M  V30 21 1 16 21
M  V30 22 1 16 22
M  V30 23 1 16 23
M  V30 END BOND
M  V30 END CTAB
M  END
>  <Structure No>
540

>  <LogS>
-3.951281028

>  <MMFF94 Energy>
76.982

$$$$
Compound 541
Actelion Java MolfileCreator 2.0

  0  0  0  0  0  0              0 V3000
M  V30 BEGIN CTAB
M  V30 COUNTS 34 33 0 0 0
M  V30 BEGIN ATOM
M  V30 1 O -3.0382 -1.635 -0.3112 0
M  V30 2 C -2.9694 -0.8389 0.6638 0
M  V30 3 O -2.1104 0.2699 0.6373 0
M  V30 4 C -3.7876 -1.0981 1.8822 0
M  V30 5 C -1.206 0.5982 -0.4293 0 CFG=2
M  V30 6 C -1.965 0.7422 -1.7404 0
M  V30 7 C -0.1144 -0.5015 -0.5816 0
M  V30 8 C -0.5506 1.9502 -0.0957 0
M  V30 9 C -3.0897 1.4607 -1.8402 0
M  V30 10 C 0.6508 -0.8366 0.7189 0
M  V30 11 C 1.9389 -0.057 0.8432 0
M  V30 12 C 3.0905 -0.3806 0.2136 0
M  V30 13 C 4.2942 0.5021 0.4209 0
M  V30 14 C 3.2092 -1.6083 -0.6597 0
M  V30 15 H -3.9205 -0.1575 2.457 0
M  V30 16 H -4.7874 -1.4867 1.5947 0
M  V30 17 H -3.2725 -1.8454 2.5208 0
M  V30 18 H -1.5927 0.247 -2.6335 0
M  V30 19 H -0.5932 -1.4377 -0.9398 0
M  V30 20 H 0.5956 -0.2036 -1.384 0
M  V30 21 H -1.3087 2.7621 -0.0781 0
M  V30 22 H -0.0869 1.9219 0.9111 0
M  V30 23 H 0.2266 2.2097 -0.8467 0
M  V30 24 H -3.6018 1.5375 -2.7938 0
M  V30 25 H -3.509 1.9699 -0.9778 0
M  V30 26 H 0.0203 -0.6253 1.608 0
M  V30 27 H 0.8681 -1.9251 0.7574 0
M  V30 28 H 1.9313 0.8057 1.5042 0
M  V30 29 H 4.5548 0.535 1.5001 0
M  V30 30 H 5.1782 0.1315 -0.1384 0
M  V30 31 H 4.0679 1.5317 0.0707 0
M  V30 32 H 4.2268 -1.7016 -1.0924 0
M  V30 33 H 2.4898 -1.5589 -1.5016 0
M  V30 34 H 3.0135 -2.521 -0.0591 0
M  V30 END ATOM
M  V30 BEGIN BOND
M  V30 1 2 1 2
M  V30 2 1 2 3
M  V30 3 1 2 4
M  V30 4 1 3 5
M  V30 5 1 5 6
M  V30 6 1 5 7
M  V30 7 1 5 8
M  V30 8 2 6 9
M  V30 9 1 7 10
M  V30 10 1 10 11
M  V30 11 2 11 12
M  V30 12 1 12 13
M  V30 13 1 12 14
M  V30 14 1 4 15
M  V30 15 1 4 16
M  V30 16 1 4 17
M  V30 17 1 6 18
M  V30 18 1 7 19
M  V30 19 1 7 20
M  V30 20 1 8 21
M  V30 21 1 8 22
M  V30 22 1 8 23
M  V30 23 1 9 24
M  V30 24 1 9 25
M  V30 25 1 10 26
M  V30 26 1 10 27
M  V30 27 1 11 28
M  V30 28 1 13 29
M  V30 29 1 13 30
M  V30 30 1 13 31
M  V30 31 1 14 32
M  V30 32 1 14 33
M  V30 33 1 14 34
M  V30 END BOND
M  V30 BEGIN COLLECTION
M  V30 MDLV30/STEABS ATOMS=(1 5)
M  V30 END COLLECTION
M  V30 END CTAB
M  END
>  <Structure No>
541

>  <LogS>
-3.81577692

>  <MMFF94 Energy>
16.488

$$$$
Compound 542
Actelion Java MolfileCreator 2.0

  0  0  0  0  0  0              0 V3000
M  V30 BEGIN CTAB
M  V30 COUNTS 37 37 0 0 0
M  V30 BEGIN ATOM
M  V30 1 O -0.2357 1.5727 0.1571 0
M  V30 2 C -0.0331 0.1981 0.012 0
M  V30 3 C -1.1881 -0.6121 -0.2243 0
M  V30 4 C 1.2794 -0.3866 0.0947 0
M  V30 5 C -1.0024 -2.0046 -0.3585 0
M  V30 6 C -2.6123 0.0121 -0.3284 0
M  V30 7 C 1.3719 -1.7915 -0.0395 0
M  V30 8 C 2.5666 0.4537 0.3614 0
M  V30 9 C 0.2536 -2.5761 -0.2642 0
M  V30 10 C -3.7202 -1.0412 -0.5969 0
M  V30 11 C -2.6706 1.021 -1.4998 0
M  V30 12 C -2.9858 0.7174 0.9967 0
M  V30 13 C 2.6996 1.6155 -0.6724 0
M  V30 14 C 2.5263 0.9968 1.8106 0
M  V30 15 C 3.8735 -0.3828 0.2572 0
M  V30 16 H 0.4676 2.2676 0.3317 0
M  V30 17 H -1.8195 -2.6857 -0.5358 0
M  V30 18 H 2.3076 -2.3226 0.0225 0
M  V30 19 H 0.3632 -3.6486 -0.3667 0
M  V30 20 H -3.5429 -1.5691 -1.5589 0
M  V30 21 H -3.7754 -1.7814 0.2306 0
M  V30 22 H -4.7198 -0.5591 -0.6688 0
M  V30 23 H -2.319 0.5409 -2.4384 0
M  V30 24 H -2.057 1.924 -1.3192 0
M  V30 25 H -3.711 1.3782 -1.6619 0
M  V30 26 H -2.8635 0.0183 1.852 0
M  V30 27 H -2.3711 1.6168 1.1914 0
M  V30 28 H -4.0435 1.0596 0.9772 0
M  V30 29 H 3.699 1.6491 -1.1586 0
M  V30 30 H 2.5723 2.6119 -0.1987 0
M  V30 31 H 1.963 1.5162 -1.4983 0
M  V30 32 H 2.5183 0.1549 2.5365 0
M  V30 33 H 3.4201 1.6245 2.0179 0
M  V30 34 H 1.631 1.6098 2.0212 0
M  V30 35 H 3.9172 -1.1736 1.0371 0
M  V30 36 H 4.7669 0.261 0.4146 0
M  V30 37 H 3.9662 -0.8468 -0.7487 0
M  V30 END ATOM
M  V30 BEGIN BOND
M  V30 1 1 1 2
M  V30 2 2 2 3
M  V30 3 1 2 4
M  V30 4 1 3 5
M  V30 5 1 3 6
M  V30 6 2 4 7
M  V30 7 1 4 8
M  V30 8 2 5 9
M  V30 9 1 6 10
M  V30 10 1 6 11
M  V30 11 1 6 12
M  V30 12 1 8 13
M  V30 13 1 8 14
M  V30 14 1 8 15
M  V30 15 1 7 9
M  V30 16 1 1 16
M  V30 17 1 5 17
M  V30 18 1 7 18
M  V30 19 1 9 19
M  V30 20 1 10 20
M  V30 21 1 10 21
M  V30 22 1 10 22
M  V30 23 1 11 23
M  V30 24 1 11 24
M  V30 25 1 11 25
M  V30 26 1 12 26
M  V30 27 1 12 27
M  V30 28 1 12 28
M  V30 29 1 13 29
M  V30 30 1 13 30
M  V30 31 1 13 31
M  V30 32 1 14 32
M  V30 33 1 14 33
M  V30 34 1 14 34
M  V30 35 1 15 35
M  V30 36 1 15 36
M  V30 37 1 15 37
M  V30 END BOND
M  V30 END CTAB
M  END
>  <Structure No>
542

>  <LogS>
-4.713587378

>  <MMFF94 Energy>
53.63

$$$$
Compound 543
Actelion Java MolfileCreator 2.0

  0  0  0  0  0  0              0 V3000
M  V30 BEGIN CTAB
M  V30 COUNTS 77 81 0 0 0
M  V30 BEGIN ATOM
M  V30 1 O 4.5288 -4.0428 0.5652 0
M  V30 2 C 4.1799 -2.8458 0.3928 0
M  V30 3 C 2.75 -2.4667 0.3111 0
M  V30 4 C 5.231 -1.7887 0.2177 0
M  V30 5 C 2.4327 -1.0951 0.321 0
M  V30 6 C 1.7149 -3.4165 0.1887 0
M  V30 7 C 4.7683 -0.4765 0.8735 0 CFG=2
M  V30 8 O 3.4465 -0.1356 0.4445 0
M  V30 9 C 1.1037 -0.6787 0.2002 0
M  V30 10 O 1.9984 -4.782 0.186 0
M  V30 11 C 0.3863 -2.9852 0.0652 0
M  V30 12 C 5.7214 0.6462 0.5468 0
M  V30 13 C 0.0722 -1.6139 0.0778 0
M  V30 14 C 5.7312 1.2212 -0.7359 0
M  V30 15 C 6.6419 1.0965 1.5066 0
M  V30 16 O -1.244 -1.138 -0.0264 0
M  V30 17 C 6.6359 2.2446 -1.05 0
M  V30 18 C 7.5401 2.1215 1.1976 0
M  V30 19 C -2.3995 -1.9497 -0.245 0 CFG=1
M  V30 20 O 6.6432 2.8097 -2.3247 0
M  V30 21 C 7.5428 2.7039 -0.085 0
M  V30 22 O -2.6053 -2.8008 0.8727 0
M  V30 23 C -3.6351 -1.0382 -0.4518 0 CFG=2
M  V30 24 O 8.4296 3.7326 -0.4373 0
M  V30 25 C -3.5844 -3.8058 0.607 0 CFG=1
M  V30 26 O -3.5528 0.0734 0.4347 0
M  V30 27 C -4.9562 -1.81 -0.1781 0 CFG=1
M  V30 28 C 9.384 4.3089 0.4471 0
M  V30 29 C -4.7357 -3.3266 -0.3354 0 CFG=2
M  V30 30 C -2.9036 -5.0838 0.0859 0
M  V30 31 C -3.3523 1.305 -0.2375 0 CFG=2
M  V30 32 O -5.4196 -1.5297 1.1227 0
M  V30 33 O -5.9263 -4.0451 -0.1192 0
M  V30 34 O -3.8136 -6.1495 0.0405 0
M  V30 35 O -2.7714 2.1932 0.7064 0
M  V30 36 C -4.7145 1.8234 -0.7886 0 CFG=2
M  V30 37 C -2.6714 3.535 0.2419 0 CFG=2
M  V30 38 O -4.5908 2.081 -2.1666 0
M  V30 39 C -5.1622 3.0919 -0.0483 0 CFG=1
M  V30 40 C -4.0524 4.1551 -0.1152 0 CFG=1
M  V30 41 C -1.6406 3.6811 -0.8913 0
M  V30 42 O -6.3476 3.5802 -0.6241 0
M  V30 43 O -4.3417 5.1977 0.7847 0
M  V30 44 H 5.3904 -1.6395 -0.8717 0
M  V30 45 H 6.1876 -2.1203 0.6748 0
M  V30 46 H 4.733 -0.6317 1.9754 0
M  V30 47 H 0.868 0.3789 0.2093 0
M  V30 48 H 1.2655 -5.4781 0.1099 0
M  V30 49 H -0.3896 -3.7272 -0.0373 0
M  V30 50 H 5.0386 0.8707 -1.4913 0
M  V30 51 H 6.6639 0.6566 2.4968 0
M  V30 52 H 8.2311 2.45 1.9622 0
M  V30 53 H -2.2233 -2.5449 -1.1721 0
M  V30 54 H 6.0008 2.5026 -3.0461 0
M  V30 55 H -3.6465 -0.7434 -1.53 0
M  V30 56 H -4.0306 -4.06 1.5931 0
M  V30 57 H -5.7132 -1.4815 -0.9307 0
M  V30 58 H 10.1054 3.5367 0.7921 0
M  V30 59 H 8.8669 4.7636 1.3173 0
M  V30 60 H 9.9433 5.1035 -0.0898 0
M  V30 61 H -4.4355 -3.5065 -1.3923 0
M  V30 62 H -2.0836 -5.361 0.7827 0
M  V30 63 H -2.4443 -4.9079 -0.914 0
M  V30 64 H -2.6188 1.168 -1.0671 0
M  V30 65 H -6.4121 -1.5117 1.0875 0
M  V30 66 H -6.1797 -3.9424 0.8363 0
M  V30 67 H -4.2304 -6.1368 -0.8603 0
M  V30 68 H -5.4979 1.0473 -0.6263 0
M  V30 69 H -2.2474 4.1144 1.0935 0
M  V30 70 H -5.4984 2.0038 -2.5619 0
M  V30 71 H -5.3469 2.8195 1.0192 0
M  V30 72 H -4.0179 4.5668 -1.1527 0
M  V30 73 H -0.7049 3.1476 -0.6215 0
M  V30 74 H -1.4005 4.7557 -1.0461 0
M  V30 75 H -2.0297 3.2682 -1.845 0
M  V30 76 H -6.8042 4.1259 0.0694 0
M  V30 77 H -5.0215 5.779 0.3539 0
M  V30 END ATOM
M  V30 BEGIN BOND
M  V30 1 2 1 2
M  V30 2 1 2 3
M  V30 3 1 2 4
M  V30 4 2 3 5
M  V30 5 1 3 6
M  V30 6 1 4 7
M  V30 7 1 5 8
M  V30 8 1 5 9
M  V30 9 1 6 10
M  V30 10 2 6 11
M  V30 11 1 7 12
M  V30 12 2 9 13
M  V30 13 2 12 14
M  V30 14 1 12 15
M  V30 15 1 13 16
M  V30 16 1 14 17
M  V30 17 2 15 18
M  V30 18 1 16 19
M  V30 19 1 17 20
M  V30 20 2 17 21
M  V30 21 1 19 22
M  V30 22 1 19 23
M  V30 23 1 21 24
M  V30 24 1 22 25
M  V30 25 1 23 26
M  V30 26 1 23 27
M  V30 27 1 24 28
M  V30 28 1 25 29
M  V30 29 1 25 30
M  V30 30 1 26 31
M  V30 31 1 27 32
M  V30 32 1 29 33
M  V30 33 1 30 34
M  V30 34 1 31 35
M  V30 35 1 31 36
M  V30 36 1 35 37
M  V30 37 1 36 38
M  V30 38 1 36 39
M  V30 39 1 37 40
M  V30 40 1 37 41
M  V30 41 1 39 42
M  V30 42 1 40 43
M  V30 43 1 7 8
M  V30 44 1 11 13
M  V30 45 1 18 21
M  V30 46 1 27 29
M  V30 47 1 39 40
M  V30 48 1 4 44
M  V30 49 1 4 45
M  V30 50 1 7 46
M  V30 51 1 9 47
M  V30 52 1 10 48
M  V30 53 1 11 49
M  V30 54 1 14 50
M  V30 55 1 15 51
M  V30 56 1 18 52
M  V30 57 1 19 53
M  V30 58 1 20 54
M  V30 59 1 23 55
M  V30 60 1 25 56
M  V30 61 1 27 57
M  V30 62 1 28 58
M  V30 63 1 28 59
M  V30 64 1 28 60
M  V30 65 1 29 61
M  V30 66 1 30 62
M  V30 67 1 30 63
M  V30 68 1 31 64
M  V30 69 1 32 65
M  V30 70 1 33 66
M  V30 71 1 34 67
M  V30 72 1 36 68
M  V30 73 1 37 69
M  V30 74 1 38 70
M  V30 75 1 39 71
M  V30 76 1 40 72
M  V30 77 1 41 73
M  V30 78 1 41 74
M  V30 79 1 41 75
M  V30 80 1 42 76
M  V30 81 1 43 77
M  V30 END BOND
M  V30 BEGIN COLLECTION
M  V30 MDLV30/STEABS ATOMS=(11 7 19 23 25 27 29 31 36 37 39 40)
M  V30 END COLLECTION
M  V30 END CTAB
M  END
>  <Structure No>
543

>  <LogS>
-5.185848833

>  <MMFF94 Energy>
245.04

$$$$
Compound 544
Actelion Java MolfileCreator 2.0

  0  0  0  0  0  0              0 V3000
M  V30 BEGIN CTAB
M  V30 COUNTS 32 31 0 0 0
M  V30 BEGIN ATOM
M  V30 1 O 3.4274 0.5446 0.2333 0
M  V30 2 C 2.6062 0.9864 1.0824 0
M  V30 3 O 1.535 0.2004 1.5211 0
M  V30 4 C 2.8068 2.3422 1.6684 0
M  V30 5 C 1.224 -1.081 0.9762 0
M  V30 6 C 0.5818 -0.9628 -0.4287 0 CFG=2
M  V30 7 C -0.8848 -0.4595 -0.3509 0
M  V30 8 C 0.6563 -2.3386 -1.1377 0
M  V30 9 C -1.0153 0.9628 0.226 0
M  V30 10 C 0.3278 -2.2714 -2.6313 0
M  V30 11 C -2.3939 1.5867 -0.043 0
M  V30 12 C -3.5184 0.8787 0.7121 0
M  V30 13 H 3.2359 3.0279 0.9076 0
M  V30 14 H 3.4993 2.2728 2.5328 0
M  V30 15 H 1.8339 2.7526 2.0117 0
M  V30 16 H 0.5235 -1.601 1.6643 0
M  V30 17 H 2.1554 -1.6879 0.9423 0
M  V30 18 H 1.1768 -0.24 -1.0291 0
M  V30 19 H -1.3165 -0.4474 -1.3727 0
M  V30 20 H -1.4862 -1.1658 0.2616 0
M  V30 21 H -0.0264 -3.0631 -0.6422 0
M  V30 22 H 1.6894 -2.7414 -1.0524 0
M  V30 23 H -0.2471 1.6186 -0.2388 0
M  V30 24 H -0.8388 0.9473 1.3226 0
M  V30 25 H -0.7557 -2.1002 -2.7943 0
M  V30 26 H 0.5906 -3.2388 -3.1091 0
M  V30 27 H 0.9123 -1.4663 -3.1253 0
M  V30 28 H -2.6131 1.5764 -1.1328 0
M  V30 29 H -2.3685 2.6492 0.2831 0
M  V30 30 H -3.6573 -0.1538 0.3297 0
M  V30 31 H -3.2943 0.844 1.7996 0
M  V30 32 H -4.4687 1.4338 0.5645 0
M  V30 END ATOM
M  V30 BEGIN BOND
M  V30 1 2 1 2
M  V30 2 1 2 3
M  V30 3 1 2 4
M  V30 4 1 3 5
M  V30 5 1 5 6
M  V30 6 1 6 7
M  V30 7 1 6 8
M  V30 8 1 7 9
M  V30 9 1 8 10
M  V30 10 1 9 11
M  V30 11 1 11 12
M  V30 12 1 4 13
M  V30 13 1 4 14
M  V30 14 1 4 15
M  V30 15 1 5 16
M  V30 16 1 5 17
M  V30 17 1 6 18
M  V30 18 1 7 19
M  V30 19 1 7 20
M  V30 20 1 8 21
M  V30 21 1 8 22
M  V30 22 1 9 23
M  V30 23 1 9 24
M  V30 24 1 10 25
M  V30 25 1 10 26
M  V30 26 1 10 27
M  V30 27 1 11 28
M  V30 28 1 11 29
M  V30 29 1 12 30
M  V30 30 1 12 31
M  V30 31 1 12 32
M  V30 END BOND
M  V30 BEGIN COLLECTION
M  V30 MDLV30/STEABS ATOMS=(1 6)
M  V30 END COLLECTION
M  V30 END CTAB
M  END
>  <Structure No>
544

>  <LogS>
-4.645140005

>  <MMFF94 Energy>
-4.0962

$$$$
Compound 545
Actelion Java MolfileCreator 2.0

  0  0  0  0  0  0              0 V3000
M  V30 BEGIN CTAB
M  V30 COUNTS 33 32 0 0 0
M  V30 BEGIN ATOM
M  V30 1 N 4.8283 -1.1664 1.6333 0
M  V30 2 C 4.4051 -0.741 0.6436 0
M  V30 3 C 3.8665 -0.1999 -0.6152 0 CFG=1
M  V30 4 C 2.3225 -0.1678 -0.5978 0
M  V30 5 C 4.488 1.1683 -0.9162 0
M  V30 6 C 1.7228 0.7397 0.4959 0
M  V30 7 C 0.1857 0.7505 0.4734 0
M  V30 8 C -0.4241 -0.5708 0.975 0
M  V30 9 C -1.9379 -0.467 1.2196 0
M  V30 10 C -2.738 -0.3177 -0.0829 0
M  V30 11 C -4.2458 -0.3488 0.1932 0
M  V30 12 C -5.0461 -0.1902 -1.0962 0
M  V30 13 H 4.1743 -0.8921 -1.429 0
M  V30 14 H 1.9602 -1.2084 -0.4572 0
M  V30 15 H 1.9604 0.1731 -1.5925 0
M  V30 16 H 4.3471 1.8719 -0.0684 0
M  V30 17 H 4.0326 1.6049 -1.8304 0
M  V30 18 H 5.5791 1.0556 -1.0941 0
M  V30 19 H 2.0635 1.7834 0.3297 0
M  V30 20 H 2.0783 0.4247 1.5006 0
M  V30 21 H -0.1592 1.5789 1.1304 0
M  V30 22 H -0.165 0.9686 -0.5579 0
M  V30 23 H 0.058 -0.8512 1.9369 0
M  V30 24 H -0.2274 -1.3866 0.2474 0
M  V30 25 H -2.2653 -1.3948 1.7383 0
M  V30 26 H -2.1526 0.3893 1.8962 0
M  V30 27 H -2.4822 0.6478 -0.5696 0
M  V30 28 H -2.4748 -1.1465 -0.7762 0
M  V30 29 H -4.5166 0.4756 0.8883 0
M  V30 30 H -4.5205 -1.3154 0.6692 0
M  V30 31 H -6.1321 -0.2179 -0.8655 0
M  V30 32 H -4.8114 -1.0167 -1.8002 0
M  V30 33 H -4.8107 0.7818 -1.5797 0
M  V30 END ATOM
M  V30 BEGIN BOND
M  V30 1 3 1 2
M  V30 2 1 2 3
M  V30 3 1 3 4
M  V30 4 1 3 5
M  V30 5 1 4 6
M  V30 6 1 6 7
M  V30 7 1 7 8
M  V30 8 1 8 9
M  V30 9 1 9 10
M  V30 10 1 10 11
M  V30 11 1 11 12
M  V30 12 1 3 13
M  V30 13 1 4 14
M  V30 14 1 4 15
M  V30 15 1 5 16
M  V30 16 1 5 17
M  V30 17 1 5 18
M  V30 18 1 6 19
M  V30 19 1 6 20
M  V30 20 1 7 21
M  V30 21 1 7 22
M  V30 22 1 8 23
M  V30 23 1 8 24
M  V30 24 1 9 25
M  V30 25 1 9 26
M  V30 26 1 10 27
M  V30 27 1 10 28
M  V30 28 1 11 29
M  V30 29 1 11 30
M  V30 30 1 12 31
M  V30 31 1 12 32
M  V30 32 1 12 33
M  V30 END BOND
M  V30 BEGIN COLLECTION
M  V30 MDLV30/STEABS ATOMS=(1 3)
M  V30 END COLLECTION
M  V30 END CTAB
M  END
>  <Structure No>
545

>  <LogS>
-4.63242095

>  <MMFF94 Energy>
4.8577

$$$$
Compound 546
Actelion Java MolfileCreator 2.0

  0  0  0  0  0  0              0 V3000
M  V30 BEGIN CTAB
M  V30 COUNTS 36 37 0 0 0
M  V30 BEGIN ATOM
M  V30 1 Cl 7.1969 -1.2381 -0.9904 0
M  V30 2 C 5.4672 -0.9549 -0.9115 0
M  V30 3 C 4.6168 -1.5575 -1.8418 0
M  V30 4 C 4.9415 -0.1252 0.0784 0
M  V30 5 C 3.2267 -1.3349 -1.7977 0
M  V30 6 C 3.5661 0.0992 0.1458 0
M  V30 7 N 2.3761 -1.9571 -2.7815 0 CHG=1
M  V30 8 C 2.6963 -0.5023 -0.7823 0
M  V30 9 O 2.7785 -2.9482 -3.4256 0
M  V30 10 O 1.1539 -1.4152 -3.1053 0 CHG=-1
M  V30 11 N 1.281 -0.3028 -0.6761 0 CHG=-1
M  V30 12 N 0.7141 0.5165 0.3116 0
M  V30 13 C -0.5667 0.7111 0.4584 0
M  V30 14 C -1.5757 0.0577 -0.4161 0
M  V30 15 C -1.0365 1.607 1.5535 0
M  V30 16 O -1.2177 -0.7033 -1.3557 0
M  V30 17 N -2.9754 0.291 -0.1829 0
M  V30 18 C -2.3606 1.7539 1.7963 0
M  V30 19 C -0.0162 2.296 2.4393 0
M  V30 20 C -3.374 1.0876 0.9474 0
M  V30 21 C -3.9888 -0.3633 -1.0243 0
M  V30 22 C -2.8321 2.5649 2.9003 0
M  V30 23 O -4.5988 1.2242 1.2216 0
M  V30 24 C -4.3394 -1.7368 -0.4633 0
M  V30 25 N -3.2096 3.2126 3.7821 0
M  V30 26 H 5.0443 -2.1901 -2.6094 0
M  V30 27 H 5.5976 0.3434 0.8011 0
M  V30 28 H 3.1825 0.738 0.9307 0
M  V30 29 H 0.994 2.3136 1.9824 0
M  V30 30 H -0.301 3.3553 2.6141 0
M  V30 31 H 0.0453 1.7681 3.4141 0
M  V30 32 H -4.9083 0.2586 -1.0816 0
M  V30 33 H -3.6181 -0.4725 -2.0663 0
M  V30 34 H -3.4358 -2.3817 -0.4369 0
M  V30 35 H -4.7467 -1.6377 0.5651 0
M  V30 36 H -5.105 -2.2188 -1.1068 0
M  V30 END ATOM
M  V30 BEGIN BOND
M  V30 1 1 1 2
M  V30 2 2 2 3
M  V30 3 1 2 4
M  V30 4 1 3 5
M  V30 5 2 4 6
M  V30 6 1 5 7
M  V30 7 2 5 8
M  V30 8 2 7 9
M  V30 9 1 7 10
M  V30 10 1 8 11
M  V30 11 1 11 12
M  V30 12 2 12 13
M  V30 13 1 13 14
M  V30 14 1 13 15
M  V30 15 2 14 16
M  V30 16 1 14 17
M  V30 17 2 15 18
M  V30 18 1 15 19
M  V30 19 1 17 20
M  V30 20 1 17 21
M  V30 21 1 18 22
M  V30 22 2 20 23
M  V30 23 1 21 24
M  V30 24 3 22 25
M  V30 25 1 6 8
M  V30 26 1 18 20
M  V30 27 1 3 26
M  V30 28 1 4 27
M  V30 29 1 6 28
M  V30 30 1 19 29
M  V30 31 1 19 30
M  V30 32 1 19 31
M  V30 33 1 21 32
M  V30 34 1 21 33
M  V30 35 1 24 34
M  V30 36 1 24 35
M  V30 37 1 24 36
M  V30 END BOND
M  V30 END CTAB
M  END
>  <Structure No>
546

>  <LogS>
-4.96733793

>  <MMFF94 Energy>
40.528

$$$$
Compound 547
Actelion Java MolfileCreator 2.0

  0  0  0  0  0  0              0 V3000
M  V30 BEGIN CTAB
M  V30 COUNTS 24 23 0 0 0
M  V30 BEGIN ATOM
M  V30 1 C 3.0731 0.1534 -0.2302 0
M  V30 2 C 3.4669 0.7784 0.8835 0
M  V30 3 C 1.6239 0.0822 -0.6267 0
M  V30 4 C 0.8365 -0.8416 0.3144 0
M  V30 5 C -0.5949 -1.124 -0.1787 0
M  V30 6 C -1.5055 0.1224 -0.2962 0
M  V30 7 C -2.8741 -0.286 -0.8564 0
M  V30 8 C -1.6867 0.8373 1.0513 0
M  V30 9 H 3.8208 -0.2892 -0.8814 0
M  V30 10 H 4.5212 0.8247 1.1359 0
M  V30 11 H 2.7461 1.2486 1.5455 0
M  V30 12 H 1.1974 1.1078 -0.6143 0
M  V30 13 H 1.5611 -0.309 -1.6651 0
M  V30 14 H 1.367 -1.8171 0.3814 0
M  V30 15 H 0.8126 -0.4173 1.3401 0
M  V30 16 H -1.0635 -1.8528 0.5189 0
M  V30 17 H -0.5292 -1.6222 -1.1712 0
M  V30 18 H -1.0592 0.8391 -1.0182 0
M  V30 19 H -3.5183 0.6091 -0.9914 0
M  V30 20 H -2.754 -0.7726 -1.8479 0
M  V30 21 H -3.3845 -0.9943 -0.1685 0
M  V30 22 H -0.7319 1.2958 1.3816 0
M  V30 23 H -2.0401 0.1264 1.8288 0
M  V30 24 H -2.4287 1.6588 0.9554 0
M  V30 END ATOM
M  V30 BEGIN BOND
M  V30 1 2 1 2
M  V30 2 1 1 3
M  V30 3 1 3 4
M  V30 4 1 4 5
M  V30 5 1 5 6
M  V30 6 1 6 7
M  V30 7 1 6 8
M  V30 8 1 1 9
M  V30 9 1 2 10
M  V30 10 1 2 11
M  V30 11 1 3 12
M  V30 12 1 3 13
M  V30 13 1 4 14
M  V30 14 1 4 15
M  V30 15 1 5 16
M  V30 16 1 5 17
M  V30 17 1 6 18
M  V30 18 1 7 19
M  V30 19 1 7 20
M  V30 20 1 7 21
M  V30 21 1 8 22
M  V30 22 1 8 23
M  V30 23 1 8 24
M  V30 END BOND
M  V30 END CTAB
M  END
>  <Structure No>
547

>  <LogS>
-4.458990177

>  <MMFF94 Energy>
10.276

$$$$
Compound 548
Actelion Java MolfileCreator 2.0

  0  0  0  0  0  0              0 V3000
M  V30 BEGIN CTAB
M  V30 COUNTS 23 24 0 0 0
M  V30 BEGIN ATOM
M  V30 1 Cl 2.1655 2.4156 -1.1656 0
M  V30 2 C 0.8994 1.3599 -0.5464 0
M  V30 3 C 1.1814 0.2653 0.3221 0
M  V30 4 C -0.4247 1.6306 -0.9348 0
M  V30 5 C 0.1198 -0.5451 0.7823 0
M  V30 6 C 2.5904 -0.0799 0.7489 0
M  V30 7 C -1.4418 0.8101 -0.4573 0
M  V30 8 C -1.1805 -0.2509 0.3795 0
M  V30 9 C 3.1435 -1.2751 -0.0312 0
M  V30 10 N -2.8223 0.9308 -0.7442 0
M  V30 11 C -2.4434 -0.9664 0.7382 0
M  V30 12 Cl 3.3775 -0.8815 -1.7553 0
M  V30 13 C -3.4315 -0.1369 -0.0268 0
M  V30 14 O -4.672 -0.3508 -0.0423 0
M  V30 15 H -0.6535 2.4592 -1.5929 0
M  V30 16 H 0.3047 -1.3873 1.4378 0
M  V30 17 H 2.584 -0.3379 1.8305 0
M  V30 18 H 3.2781 0.7842 0.6444 0
M  V30 19 H 4.1271 -1.5642 0.395 0
M  V30 20 H 2.4596 -2.1461 0.0554 0
M  V30 21 H -3.29 1.6424 -1.3483 0
M  V30 22 H -2.4287 -2.0127 0.3668 0
M  V30 23 H -2.6371 -0.9115 1.8302 0
M  V30 END ATOM
M  V30 BEGIN BOND
M  V30 1 1 1 2
M  V30 2 2 2 3
M  V30 3 1 2 4
M  V30 4 1 3 5
M  V30 5 1 3 6
M  V30 6 2 4 7
M  V30 7 2 5 8
M  V30 8 1 6 9
M  V30 9 1 7 10
M  V30 10 1 8 11
M  V30 11 1 9 12
M  V30 12 1 10 13
M  V30 13 2 13 14
M  V30 14 1 7 8
M  V30 15 1 11 13
M  V30 16 1 4 15
M  V30 17 1 5 16
M  V30 18 1 6 17
M  V30 19 1 6 18
M  V30 20 1 9 19
M  V30 21 1 9 20
M  V30 22 1 10 21
M  V30 23 1 11 22
M  V30 24 1 11 23
M  V30 END BOND
M  V30 END CTAB
M  END
>  <Structure No>
548

>  <LogS>
-4.77757407

>  <MMFF94 Energy>
15.148

$$$$
Compound 549
Actelion Java MolfileCreator 2.0

  0  0  0  0  0  0              0 V3000
M  V30 BEGIN CTAB
M  V30 COUNTS 58 57 0 0 0
M  V30 BEGIN ATOM
M  V30 1 O 2.119 -2.5117 1.4907 0
M  V30 2 C 2.5916 -2.1932 0.3643 0
M  V30 3 O 3.8919 -1.6922 0.2516 0
M  V30 4 C 1.7534 -2.3425 -0.8697 0
M  V30 5 C 4.7458 -1.5027 1.3742 0
M  V30 6 C 0.822 -1.1392 -1.0835 0
M  V30 7 C 6.1207 -1.0374 0.909 0
M  V30 8 C -0.3761 -1.1498 -0.1193 0
M  V30 9 O 6.0171 0.2243 0.2721 0
M  V30 10 C -1.3533 -0.0112 -0.4344 0
M  V30 11 C 6.1934 0.1206 -1.1284 0
M  V30 12 C -2.5184 -0.0249 0.5102 0
M  V30 13 C 7.6817 0.1572 -1.5176 0
M  V30 14 O -2.8568 1.038 1.1011 0
M  V30 15 O -3.227 -1.2169 0.716 0
M  V30 16 C 8.3405 1.5269 -1.2843 0
M  V30 17 C -4.3966 -1.3172 1.5302 0
M  V30 18 C 8.62 1.8187 0.194 0
M  V30 19 C -5.6441 -0.9407 0.7332 0
M  V30 20 O -5.6149 0.4371 0.4216 0
M  V30 21 C -6.8133 0.8277 -0.2253 0
M  V30 22 C -7.7684 1.4754 0.7858 0
M  V30 23 C -9.1342 1.8216 0.1755 0
M  V30 24 C -9.0592 2.961 -0.8412 0
M  V30 25 H 1.1648 -3.2844 -0.8153 0
M  V30 26 H 2.4307 -2.427 -1.7473 0
M  V30 27 H 4.3055 -0.7446 2.0566 0
M  V30 28 H 4.8577 -2.4614 1.9241 0
M  V30 29 H 1.394 -0.1898 -0.9711 0
M  V30 30 H 0.4419 -1.1831 -2.1286 0
M  V30 31 H 6.5929 -1.8342 0.2863 0
M  V30 32 H 6.767 -0.915 1.8043 0
M  V30 33 H -0.0161 -1.0377 0.9268 0
M  V30 34 H -0.906 -2.1244 -0.2089 0
M  V30 35 H -1.737 -0.1191 -1.4717 0
M  V30 36 H -0.8222 0.9635 -0.3574 0
M  V30 37 H 5.715 -0.7944 -1.5466 0
M  V30 38 H 5.6764 0.9763 -1.6078 0
M  V30 39 H 7.751 -0.0724 -2.6034 0
M  V30 40 H 8.2453 -0.6374 -0.9846 0
M  V30 41 H 7.7095 2.3365 -1.7124 0
M  V30 42 H 9.3156 1.5376 -1.8231 0
M  V30 43 H -4.3041 -0.6828 2.4401 0
M  V30 44 H -4.4983 -2.3736 1.8633 0
M  V30 45 H 9.2978 2.6954 0.2777 0
M  V30 46 H 9.1154 0.9491 0.679 0
M  V30 47 H 7.6808 2.0651 0.7348 0
M  V30 48 H -5.6641 -1.5507 -0.1987 0
M  V30 49 H -6.5367 -1.1888 1.352 0
M  V30 50 H -7.324 -0.0073 -0.7624 0
M  V30 51 H -6.5422 1.5786 -0.9964 0
M  V30 52 H -7.9381 0.7651 1.6253 0
M  V30 53 H -7.3018 2.3895 1.213 0
M  V30 54 H -9.8147 2.135 0.9972 0
M  V30 55 H -9.5769 0.9225 -0.3035 0
M  V30 56 H -8.4935 2.6487 -1.742 0
M  V30 57 H -10.0854 3.2399 -1.1589 0
M  V30 58 H -8.5766 3.8523 -0.3895 0
M  V30 END ATOM
M  V30 BEGIN BOND
M  V30 1 2 1 2
M  V30 2 1 2 3
M  V30 3 1 2 4
M  V30 4 1 3 5
M  V30 5 1 4 6
M  V30 6 1 5 7
M  V30 7 1 6 8
M  V30 8 1 7 9
M  V30 9 1 8 10
M  V30 10 1 9 11
M  V30 11 1 10 12
M  V30 12 1 11 13
M  V30 13 2 12 14
M  V30 14 1 12 15
M  V30 15 1 13 16
M  V30 16 1 15 17
M  V30 17 1 16 18
M  V30 18 1 17 19
M  V30 19 1 19 20
M  V30 20 1 20 21
M  V30 21 1 21 22
M  V30 22 1 22 23
M  V30 23 1 23 24
M  V30 24 1 4 25
M  V30 25 1 4 26
M  V30 26 1 5 27
M  V30 27 1 5 28
M  V30 28 1 6 29
M  V30 29 1 6 30
M  V30 30 1 7 31
M  V30 31 1 7 32
M  V30 32 1 8 33
M  V30 33 1 8 34
M  V30 34 1 10 35
M  V30 35 1 10 36
M  V30 36 1 11 37
M  V30 37 1 11 38
M  V30 38 1 13 39
M  V30 39 1 13 40
M  V30 40 1 16 41
M  V30 41 1 16 42
M  V30 42 1 17 43
M  V30 43 1 17 44
M  V30 44 1 18 45
M  V30 45 1 18 46
M  V30 46 1 18 47
M  V30 47 1 19 48
M  V30 48 1 19 49
M  V30 49 1 21 50
M  V30 50 1 21 51
M  V30 51 1 22 52
M  V30 52 1 22 53
M  V30 53 1 23 54
M  V30 54 1 23 55
M  V30 55 1 24 56
M  V30 56 1 24 57
M  V30 57 1 24 58
M  V30 END BOND
M  V30 END CTAB
M  END
>  <Structure No>
549

>  <LogS>
-4.958733139

>  <MMFF94 Energy>
14.492

$$$$
Compound 550
Actelion Java MolfileCreator 2.0

  0  0  0  0  0  0              0 V3000
M  V30 BEGIN CTAB
M  V30 COUNTS 28 29 0 0 0
M  V30 BEGIN ATOM
M  V30 1 C -1.2644 -0.2369 -0.316 0
M  V30 2 C -2.1887 0.5167 -1.0636 0
M  V30 3 C -1.4926 -0.4182 1.0623 0
M  V30 4 C -0.0387 -0.8201 -0.9925 0
M  V30 5 C -3.316 1.0689 -0.448 0
M  V30 6 C -2.6216 0.1364 1.6726 0
M  V30 7 C 1.229 -0.1723 -0.4598 0
M  V30 8 C -0.0264 -2.3549 -0.9136 0
M  V30 9 C -3.5327 0.8786 0.9183 0
M  V30 10 C 1.8993 -0.6591 0.6818 0
M  V30 11 C 1.7125 0.9952 -1.08 0
M  V30 12 C 3.0392 -0.0094 1.165 0
M  V30 13 C 2.8526 1.6403 -0.5921 0
M  V30 14 C 3.517 1.1368 0.5275 0
M  V30 15 H -2.0381 0.6797 -2.1234 0
M  V30 16 H -0.7998 -0.9865 1.6678 0
M  V30 17 H -0.09 -0.5948 -2.0821 0
M  V30 18 H -4.0218 1.6463 -1.0312 0
M  V30 19 H -2.7894 -0.0086 2.7319 0
M  V30 20 H 0.9012 -2.7527 -1.3777 0
M  V30 21 H -0.0905 -2.7193 0.132 0
M  V30 22 H -0.8958 -2.7643 -1.4712 0
M  V30 23 H -4.4058 1.3074 1.3929 0
M  V30 24 H 1.5481 -1.5366 1.2055 0
M  V30 25 H 1.2038 1.4091 -1.9419 0
M  V30 26 H 3.5502 -0.3935 2.0384 0
M  V30 27 H 3.2182 2.5343 -1.0805 0
M  V30 28 H 4.3986 1.6386 0.9049 0
M  V30 END ATOM
M  V30 BEGIN BOND
M  V30 1 2 1 2
M  V30 2 1 1 3
M  V30 3 1 1 4
M  V30 4 1 2 5
M  V30 5 2 3 6
M  V30 6 1 4 7
M  V30 7 1 4 8
M  V30 8 2 5 9
M  V30 9 2 7 10
M  V30 10 1 7 11
M  V30 11 1 10 12
M  V30 12 2 11 13
M  V30 13 2 12 14
M  V30 14 1 6 9
M  V30 15 1 13 14
M  V30 16 1 2 15
M  V30 17 1 3 16
M  V30 18 1 4 17
M  V30 19 1 5 18
M  V30 20 1 6 19
M  V30 21 1 8 20
M  V30 22 1 8 21
M  V30 23 1 8 22
M  V30 24 1 9 23
M  V30 25 1 10 24
M  V30 26 1 11 25
M  V30 27 1 12 26
M  V30 28 1 13 27
M  V30 29 1 14 28
M  V30 END BOND
M  V30 END CTAB
M  END
>  <Structure No>
550

>  <LogS>
-4.692503939

>  <MMFF94 Energy>
51.849

$$$$
Compound 551
Actelion Java MolfileCreator 2.0

  0  0  0  0  0  0              0 V3000
M  V30 BEGIN CTAB
M  V30 COUNTS 28 29 0 0 0
M  V30 BEGIN ATOM
M  V30 1 C -1.1061 -0.3159 -0.3159 0
M  V30 2 C -1.9536 0.8244 -0.3593 0
M  V30 3 C -1.3545 -1.3156 0.6435 0
M  V30 4 C 0.0644 -0.5056 -1.2586 0
M  V30 5 C -3.0119 0.93 0.562 0
M  V30 6 C -1.7761 1.9136 -1.3849 0
M  V30 7 C -2.4078 -1.1904 1.5497 0
M  V30 8 C 1.3731 -0.3854 -0.5196 0
M  V30 9 C -3.2335 -0.0691 1.5105 0
M  V30 10 C 1.9039 0.8796 -0.2151 0
M  V30 11 C 2.0582 -1.5372 -0.0945 0
M  V30 12 C 3.1044 0.9891 0.4935 0
M  V30 13 C 3.2582 -1.4231 0.614 0
M  V30 14 C 3.7813 -0.161 0.9074 0
M  V30 15 H -0.7275 -2.1971 0.6905 0
M  V30 16 H 0.0545 0.2165 -2.0994 0
M  V30 17 H -0.0168 -1.5086 -1.7318 0
M  V30 18 H -3.6733 1.7877 0.5462 0
M  V30 19 H -0.7612 2.3519 -1.3072 0
M  V30 20 H -2.5079 2.737 -1.2414 0
M  V30 21 H -1.9275 1.4984 -2.4032 0
M  V30 22 H -2.5847 -1.9661 2.2837 0
M  V30 23 H -4.0509 0.0246 2.2139 0
M  V30 24 H 1.3917 1.7799 -0.5255 0
M  V30 25 H 1.6635 -2.5224 -0.3097 0
M  V30 26 H 3.5092 1.9664 0.7232 0
M  V30 27 H 3.7817 -2.3134 0.9376 0
M  V30 28 H 4.7098 -0.0742 1.4565 0
M  V30 END ATOM
M  V30 BEGIN BOND
M  V30 1 2 1 2
M  V30 2 1 1 3
M  V30 3 1 1 4
M  V30 4 1 2 5
M  V30 5 1 2 6
M  V30 6 2 3 7
M  V30 7 1 4 8
M  V30 8 2 5 9
M  V30 9 2 8 10
M  V30 10 1 8 11
M  V30 11 1 10 12
M  V30 12 2 11 13
M  V30 13 2 12 14
M  V30 14 1 7 9
M  V30 15 1 13 14
M  V30 16 1 3 15
M  V30 17 1 4 16
M  V30 18 1 4 17
M  V30 19 1 5 18
M  V30 20 1 6 19
M  V30 21 1 6 20
M  V30 22 1 6 21
M  V30 23 1 7 22
M  V30 24 1 9 23
M  V30 25 1 10 24
M  V30 26 1 11 25
M  V30 27 1 12 26
M  V30 28 1 13 27
M  V30 29 1 14 28
M  V30 END BOND
M  V30 END CTAB
M  END
>  <Structure No>
551

>  <LogS>
-4.692503939

>  <MMFF94 Energy>
50.193

$$$$
Compound 552
Actelion Java MolfileCreator 2.0

  0  0  0  0  0  0              0 V3000
M  V30 BEGIN CTAB
M  V30 COUNTS 56 59 0 0 0
M  V30 BEGIN ATOM
M  V30 1 O 6.9105 0.5677 -0.8111 0
M  V30 2 C 5.7305 0.6353 -0.3762 0
M  V30 3 C 4.9713 -0.6013 -0.1263 0
M  V30 4 C 5.1331 1.9684 -0.0405 0
M  V30 5 C 3.6916 -0.573 0.2891 0
M  V30 6 C 3.6167 1.9165 -0.2238 0
M  V30 7 C 2.9996 0.7523 0.5895 0 CFG=1
M  V30 8 C 3.0716 -1.8469 0.8044 0
M  V30 9 C 1.4408 0.6826 0.4638 0 CFG=2
M  V30 10 C 1.5753 -1.8819 0.5163 0
M  V30 11 C 0.8766 -0.6289 1.0868 0 CFG=2
M  V30 12 C 0.8768 0.9309 -0.9676 0
M  V30 13 C -0.6688 -0.6026 0.9762 0 CFG=1
M  V30 14 C -0.6757 0.9058 -1.0145 0
M  V30 15 C -1.2688 -0.4039 -0.4311 0 CFG=2
M  V30 16 C -1.5039 -1.7004 1.625 0
M  V30 17 C -2.8021 -0.3872 -0.0571 0 CFG=1
M  V30 18 C -0.9615 -1.6058 -1.3993 0
M  V30 19 C -2.8815 -1.5796 0.941 0
M  V30 20 O -3.1582 0.7904 0.6969 0
M  V30 21 C -3.7882 -0.5585 -1.2179 0
M  V30 22 C -3.5229 2.0487 0.1907 0
M  V30 23 O -3.4907 -0.1665 -2.3368 0
M  V30 24 C -5.186 -1.0657 -0.9986 0
M  V30 25 O -3.5249 2.2853 -1.0469 0
M  V30 26 C -3.8519 3.1448 1.1448 0
M  V30 27 H 5.4834 -1.5484 -0.2508 0
M  V30 28 H 5.3788 2.2238 1.0126 0
M  V30 29 H 5.5582 2.7532 -0.703 0
M  V30 30 H 3.4177 1.7804 -1.3086 0
M  V30 31 H 3.1736 2.8829 0.1012 0
M  V30 32 H 3.215 0.9641 1.6616 0
M  V30 33 H 3.2434 -1.9136 1.9007 0
M  V30 34 H 3.54 -2.7387 0.3318 0
M  V30 35 H 1.0567 1.5259 1.0833 0
M  V30 36 H 1.1534 -2.8008 0.973 0
M  V30 37 H 1.4688 -1.9557 -0.5772 0
M  V30 38 H 1.1093 -0.6054 2.1766 0
M  V30 39 H 1.3209 0.212 -1.6839 0
M  V30 40 H 1.1733 1.9441 -1.3106 0
M  V30 41 H -0.9318 0.3085 1.5691 0
M  V30 42 H -1.0212 1.7812 -0.4303 0
M  V30 43 H -1.0171 1.0451 -2.0626 0
M  V30 44 H -1.587 -1.5363 2.722 0
M  V30 45 H -1.0755 -2.7082 1.4499 0
M  V30 46 H -1.753 -1.7809 -2.1472 0
M  V30 47 H -0.8455 -2.5649 -0.8568 0
M  V30 48 H -0.0603 -1.4449 -2.0164 0
M  V30 49 H -3.6758 -1.4176 1.7026 0
M  V30 50 H -3.104 -2.5289 0.4041 0
M  V30 51 H -5.4134 -1.1941 0.0786 0
M  V30 52 H -5.3105 -2.0401 -1.5148 0
M  V30 53 H -5.9143 -0.3387 -1.4159 0
M  V30 54 H -4.218 2.7166 2.1014 0
M  V30 55 H -2.9416 3.7485 1.3408 0
M  V30 56 H -4.6421 3.7985 0.719 0
M  V30 END ATOM
M  V30 BEGIN BOND
M  V30 1 2 1 2
M  V30 2 1 2 3
M  V30 3 1 2 4
M  V30 4 2 3 5
M  V30 5 1 4 6
M  V30 6 1 5 7
M  V30 7 1 5 8
M  V30 8 1 7 9
M  V30 9 1 8 10
M  V30 10 1 9 11
M  V30 11 1 9 12
M  V30 12 1 11 13
M  V30 13 1 12 14
M  V30 14 1 13 15
M  V30 15 1 13 16
M  V30 16 1 15 17
M  V30 17 1 15 18
M  V30 18 1 16 19
M  V30 19 1 17 20
M  V30 20 1 17 21
M  V30 21 1 20 22
M  V30 22 2 21 23
M  V30 23 1 21 24
M  V30 24 2 22 25
M  V30 25 1 22 26
M  V30 26 1 6 7
M  V30 27 1 10 11
M  V30 28 1 14 15
M  V30 29 1 17 19
M  V30 30 1 3 27
M  V30 31 1 4 28
M  V30 32 1 4 29
M  V30 33 1 6 30
M  V30 34 1 6 31
M  V30 35 1 7 32
M  V30 36 1 8 33
M  V30 37 1 8 34
M  V30 38 1 9 35
M  V30 39 1 10 36
M  V30 40 1 10 37
M  V30 41 1 11 38
M  V30 42 1 12 39
M  V30 43 1 12 40
M  V30 44 1 13 41
M  V30 45 1 14 42
M  V30 46 1 14 43
M  V30 47 1 16 44
M  V30 48 1 16 45
M  V30 49 1 18 46
M  V30 50 1 18 47
M  V30 51 1 18 48
M  V30 52 1 19 49
M  V30 53 1 19 50
M  V30 54 1 24 51
M  V30 55 1 24 52
M  V30 56 1 24 53
M  V30 57 1 26 54
M  V30 58 1 26 55
M  V30 59 1 26 56
M  V30 END BOND
M  V30 BEGIN COLLECTION
M  V30 MDLV30/STEABS ATOMS=(6 7 9 11 13 15 17)
M  V30 END COLLECTION
M  V30 END CTAB
M  END
>  <Structure No>
552

>  <LogS>
-4.995753937

>  <MMFF94 Energy>
80.833

$$$$
Compound 553
Actelion Java MolfileCreator 2.0

  0  0  0  0  0  0              0 V3000
M  V30 BEGIN CTAB
M  V30 COUNTS 40 42 0 0 0
M  V30 BEGIN ATOM
M  V30 1 O 1.2947 3.0771 -1.6996 0
M  V30 2 C 0.2752 2.8558 -0.9941 0
M  V30 3 O -0.8014 3.7311 -1.0822 0 CHG=-1
M  V30 4 C 0.1982 1.6637 -0.1119 0
M  V30 5 C 1.3478 0.9517 0.3008 0
M  V30 6 C -1.0647 1.2142 0.3041 0
M  V30 7 N 2.6678 1.427 -0.0132 0
M  V30 8 C 1.2051 -0.1887 1.1062 0
M  V30 9 C -1.2087 0.0619 1.0923 0
M  V30 10 C 3.7245 0.5849 -0.508 0
M  V30 11 C -0.0597 -0.6552 1.4977 0
M  V30 12 N -2.5188 -0.3154 1.5492 0
M  V30 13 C 3.4483 -0.6292 -1.1658 0
M  V30 14 C 5.0589 1.0005 -0.3739 0
M  V30 15 C -0.1423 -1.9018 2.3004 0
M  V30 16 C -3.6711 -0.4011 0.6916 0
M  V30 17 C 4.4928 -1.4208 -1.653 0
M  V30 18 C 6.1005 0.2056 -0.8627 0
M  V30 19 O -1.208 -2.5708 2.3534 0
M  V30 20 O 0.9762 -2.3713 2.9798 0 CHG=-1
M  V30 21 C -3.5397 -0.5915 -0.6974 0
M  V30 22 C -4.9564 -0.3392 1.2536 0
M  V30 23 C 5.8178 -1.0053 -1.4991 0
M  V30 24 C -4.6759 -0.6893 -1.5065 0
M  V30 25 C -6.09 -0.4375 0.4407 0
M  V30 26 C -5.9499 -0.6095 -0.9385 0
M  V30 27 H -1.9537 1.7624 0.0163 0
M  V30 28 H 2.8826 2.4312 0.1828 0
M  V30 29 H 2.0964 -0.7131 1.4288 0
M  V30 30 H -2.6472 -0.4822 2.5732 0
M  V30 31 H 2.4285 -0.9591 -1.3153 0
M  V30 32 H 5.2917 1.9376 0.1162 0
M  V30 33 H 4.2743 -2.3542 -2.1555 0
M  V30 34 H 7.127 0.5298 -0.7491 0
M  V30 35 H -2.563 -0.6781 -1.1549 0
M  V30 36 H -5.0791 -0.2071 2.3214 0
M  V30 37 H 6.6248 -1.6189 -1.8781 0
M  V30 38 H -4.5686 -0.8332 -2.5739 0
M  V30 39 H -7.0774 -0.3816 0.8808 0
M  V30 40 H -6.8283 -0.6867 -1.5663 0
M  V30 END ATOM
M  V30 BEGIN BOND
M  V30 1 2 1 2
M  V30 2 1 2 3
M  V30 3 1 2 4
M  V30 4 2 4 5
M  V30 5 1 4 6
M  V30 6 1 5 7
M  V30 7 1 5 8
M  V30 8 2 6 9
M  V30 9 1 7 10
M  V30 10 2 8 11
M  V30 11 1 9 12
M  V30 12 2 10 13
M  V30 13 1 10 14
M  V30 14 1 11 15
M  V30 15 1 12 16
M  V30 16 1 13 17
M  V30 17 2 14 18
M  V30 18 2 15 19
M  V30 19 1 15 20
M  V30 20 2 16 21
M  V30 21 1 16 22
M  V30 22 2 17 23
M  V30 23 1 21 24
M  V30 24 2 22 25
M  V30 25 2 24 26
M  V30 26 1 9 11
M  V30 27 1 18 23
M  V30 28 1 25 26
M  V30 29 1 6 27
M  V30 30 1 7 28
M  V30 31 1 8 29
M  V30 32 1 12 30
M  V30 33 1 13 31
M  V30 34 1 14 32
M  V30 35 1 17 33
M  V30 36 1 18 34
M  V30 37 1 21 35
M  V30 38 1 22 36
M  V30 39 1 23 37
M  V30 40 1 24 38
M  V30 41 1 25 39
M  V30 42 1 26 40
M  V30 END BOND
M  V30 END CTAB
M  END
>  <Structure No>
553

>  <LogS>
-4.985723288

>  <MMFF94 Energy>
105.44

$$$$
Compound 554
Actelion Java MolfileCreator 2.0

  0  0  0  0  0  0              0 V3000
M  V30 BEGIN CTAB
M  V30 COUNTS 32 33 0 0 0
M  V30 BEGIN ATOM
M  V30 1 O 0.9526 -0.3968 1.032 0
M  V30 2 C 0.3886 0.5867 0.4783 0
M  V30 3 O -0.9924 0.5785 0.2667 0
M  V30 4 C 1.1538 1.7904 0.1009 0
M  V30 5 C -1.8167 -0.5289 0.6136 0
M  V30 6 C 2.4859 1.8554 -0.0535 0
M  V30 7 C -3.2389 -0.2212 0.2471 0
M  V30 8 C 3.405 0.6983 -0.0542 0
M  V30 9 C -3.7195 -0.5209 -1.0383 0
M  V30 10 C -4.0815 0.4299 1.1634 0
M  V30 11 C 3.1531 -0.4328 -0.8517 0
M  V30 12 C 4.6019 0.7712 0.6748 0
M  V30 13 C -5.0343 -0.1995 -1.3908 0
M  V30 14 C -5.3956 0.7496 0.8069 0
M  V30 15 C 4.0626 -1.4948 -0.8744 0
M  V30 16 C 5.5091 -0.293 0.6496 0
M  V30 17 C -5.8725 0.4329 -0.4682 0
M  V30 18 C 5.2374 -1.427 -0.1206 0
M  V30 19 H 0.5899 2.7079 -0.0148 0
M  V30 20 H -1.4708 -1.4374 0.0731 0
M  V30 21 H -1.7374 -0.7281 1.705 0
M  V30 22 H 2.9277 2.834 -0.1991 0
M  V30 23 H -3.0773 -1.0019 -1.7657 0
M  V30 24 H -3.7213 0.6898 2.1513 0
M  V30 25 H 2.2596 -0.4889 -1.4612 0
M  V30 26 H 4.828 1.6476 1.2702 0
M  V30 27 H -5.4022 -0.4372 -2.3806 0
M  V30 28 H -6.0432 1.2464 1.518 0
M  V30 29 H 3.8603 -2.3668 -1.4828 0
M  V30 30 H 6.4248 -0.2364 1.2238 0
M  V30 31 H -6.8893 0.6823 -0.743 0
M  V30 32 H 5.9414 -2.2488 -0.1407 0
M  V30 END ATOM
M  V30 BEGIN BOND
M  V30 1 2 1 2
M  V30 2 1 2 3
M  V30 3 1 2 4
M  V30 4 1 3 5
M  V30 5 2 4 6
M  V30 6 1 5 7
M  V30 7 1 6 8
M  V30 8 2 7 9
M  V30 9 1 7 10
M  V30 10 2 8 11
M  V30 11 1 8 12
M  V30 12 1 9 13
M  V30 13 2 10 14
M  V30 14 1 11 15
M  V30 15 2 12 16
M  V30 16 2 13 17
M  V30 17 2 15 18
M  V30 18 1 14 17
M  V30 19 1 16 18
M  V30 20 1 4 19
M  V30 21 1 5 20
M  V30 22 1 5 21
M  V30 23 1 6 22
M  V30 24 1 9 23
M  V30 25 1 10 24
M  V30 26 1 11 25
M  V30 27 1 12 26
M  V30 28 1 13 27
M  V30 29 1 14 28
M  V30 30 1 15 29
M  V30 31 1 16 30
M  V30 32 1 17 31
M  V30 33 1 18 32
M  V30 END BOND
M  V30 END CTAB
M  END
>  <Structure No>
554

>  <LogS>
-4.820796026

>  <MMFF94 Energy>
33.097

$$$$
Compound 555
Actelion Java MolfileCreator 2.0

  0  0  0  0  0  0              0 V3000
M  V30 BEGIN CTAB
M  V30 COUNTS 30 32 0 0 0
M  V30 BEGIN ATOM
M  V30 1 O 0.401 -3.8553 -1.4444 0
M  V30 2 C 0.2916 -2.6951 -0.9672 0
M  V30 3 N 1.4027 -1.9489 -0.7527 0
M  V30 4 N -0.9346 -2.1939 -0.6632 0
M  V30 5 C 1.3032 -0.6991 -0.23 0
M  V30 6 C -1.0492 -0.9361 -0.1474 0
M  V30 7 N 0.0746 -0.2032 0.0706 0
M  V30 8 C 2.52 0.1149 0.011 0
M  V30 9 C -2.3724 -0.357 0.1954 0
M  V30 10 C 2.4202 1.4078 0.5619 0
M  V30 11 C 3.7961 -0.3902 -0.3061 0
M  V30 12 C -2.4731 0.6088 1.2147 0
M  V30 13 C -3.5379 -0.7342 -0.4999 0
M  V30 14 C 3.5685 2.1727 0.7883 0
M  V30 15 C 4.9406 0.3797 -0.0773 0
M  V30 16 C -3.7121 1.1675 1.5431 0
M  V30 17 C -4.7742 -0.1711 -0.1675 0
M  V30 18 C 4.8271 1.6597 0.469 0
M  V30 19 C -4.8618 0.7762 0.8545 0
M  V30 20 H -1.7756 -2.7967 -0.8047 0
M  V30 21 H 1.4568 1.8299 0.8191 0
M  V30 22 H 3.9126 -1.3791 -0.7307 0
M  V30 23 H -1.5958 0.9237 1.7661 0
M  V30 24 H -3.4972 -1.4416 -1.3169 0
M  V30 25 H 3.4819 3.165 1.212 0
M  V30 26 H 5.9169 -0.0167 -0.3242 0
M  V30 27 H -3.7804 1.9046 2.3328 0
M  V30 28 H -5.6645 -0.4647 -0.7084 0
M  V30 29 H 5.7144 2.2537 0.6452 0
M  V30 30 H -5.8198 1.2109 1.1091 0
M  V30 END ATOM
M  V30 BEGIN BOND
M  V30 1 2 1 2
M  V30 2 1 2 3
M  V30 3 1 2 4
M  V30 4 2 3 5
M  V30 5 1 4 6
M  V30 6 1 5 7
M  V30 7 1 5 8
M  V30 8 1 6 9
M  V30 9 2 8 10
M  V30 10 1 8 11
M  V30 11 2 9 12
M  V30 12 1 9 13
M  V30 13 1 10 14
M  V30 14 2 11 15
M  V30 15 1 12 16
M  V30 16 2 13 17
M  V30 17 2 14 18
M  V30 18 2 16 19
M  V30 19 2 6 7
M  V30 20 1 15 18
M  V30 21 1 17 19
M  V30 22 1 4 20
M  V30 23 1 10 21
M  V30 24 1 11 22
M  V30 25 1 12 23
M  V30 26 1 13 24
M  V30 27 1 14 25
M  V30 28 1 15 26
M  V30 29 1 16 27
M  V30 30 1 17 28
M  V30 31 1 18 29
M  V30 32 1 19 30
M  V30 END BOND
M  V30 END CTAB
M  END
>  <Structure No>
555

>  <LogS>
-5.493585254

>  <MMFF94 Energy>
-63.945

$$$$
Compound 556
Actelion Java MolfileCreator 2.0

  0  0  0  0  0  0              0 V3000
M  V30 BEGIN CTAB
M  V30 COUNTS 40 39 0 0 0
M  V30 BEGIN ATOM
M  V30 1 O -1.7925 -1.2467 1.2467 0
M  V30 2 C -2.1359 -0.319 0.463 0
M  V30 3 O -1.4807 -0.1313 -0.7631 0
M  V30 4 C -3.2604 0.6032 0.8384 0
M  V30 5 C -0.3548 -0.8922 -1.2271 0 CFG=2
M  V30 6 C -4.5612 -0.1826 1.0276 0
M  V30 7 C -2.9056 1.3942 2.1009 0
M  V30 8 C -0.6995 -2.3735 -1.2723 0
M  V30 9 C 0.8746 -0.6742 -0.2989 0
M  V30 10 C -0.0255 -0.429 -2.6586 0
M  V30 11 C -1.8388 -2.826 -1.8094 0
M  V30 12 C 1.1793 0.8054 -0.0046 0
M  V30 13 C 2.3448 0.9278 0.9453 0
M  V30 14 C 3.6401 0.9822 0.5632 0
M  V30 15 C 4.7008 1.0636 1.6306 0
M  V30 16 C 4.0467 0.9815 -0.8919 0
M  V30 17 H -3.4146 1.3292 0.0097 0
M  V30 18 H -4.4684 -0.9052 1.8671 0
M  V30 19 H -5.3988 0.5137 1.2469 0
M  V30 20 H -4.8078 -0.7405 0.0987 0
M  V30 21 H -2.7642 0.7128 2.9677 0
M  V30 22 H -1.9685 1.9693 1.9398 0
M  V30 23 H -3.7174 2.1138 2.3409 0
M  V30 24 H -0.0047 -3.099 -0.8569 0
M  V30 25 H 0.7006 -1.1891 0.6713 0
M  V30 26 H 1.7678 -1.1555 -0.753 0
M  V30 27 H -0.871 -0.6481 -3.3452 0
M  V30 28 H 0.8812 -0.9449 -3.0425 0
M  V30 29 H 0.1422 0.6666 -2.6945 0
M  V30 30 H -2.5695 -2.1436 -2.2328 0
M  V30 31 H -2.0474 -3.8907 -1.8218 0
M  V30 32 H 1.3767 1.3728 -0.9352 0
M  V30 33 H 0.2969 1.2727 0.4814 0
M  V30 34 H 2.1092 0.9461 2.0069 0
M  V30 35 H 4.5432 1.9734 2.2482 0
M  V30 36 H 4.6446 0.1672 2.284 0
M  V30 37 H 5.7205 1.1127 1.1952 0
M  V30 38 H 5.1504 1.0014 -1.0054 0
M  V30 39 H 3.6384 1.8804 -1.3995 0
M  V30 40 H 3.6724 0.0685 -1.3978 0
M  V30 END ATOM
M  V30 BEGIN BOND
M  V30 1 2 1 2
M  V30 2 1 2 3
M  V30 3 1 2 4
M  V30 4 1 3 5
M  V30 5 1 4 6
M  V30 6 1 4 7
M  V30 7 1 5 8
M  V30 8 1 5 9
M  V30 9 1 5 10
M  V30 10 2 8 11
M  V30 11 1 9 12
M  V30 12 1 12 13
M  V30 13 2 13 14
M  V30 14 1 14 15
M  V30 15 1 14 16
M  V30 16 1 4 17
M  V30 17 1 6 18
M  V30 18 1 6 19
M  V30 19 1 6 20
M  V30 20 1 7 21
M  V30 21 1 7 22
M  V30 22 1 7 23
M  V30 23 1 8 24
M  V30 24 1 9 25
M  V30 25 1 9 26
M  V30 26 1 10 27
M  V30 27 1 10 28
M  V30 28 1 10 29
M  V30 29 1 11 30
M  V30 30 1 11 31
M  V30 31 1 12 32
M  V30 32 1 12 33
M  V30 33 1 13 34
M  V30 34 1 15 35
M  V30 35 1 15 36
M  V30 36 1 15 37
M  V30 37 1 16 38
M  V30 38 1 16 39
M  V30 39 1 16 40
M  V30 END BOND
M  V30 BEGIN COLLECTION
M  V30 MDLV30/STEABS ATOMS=(1 5)
M  V30 END COLLECTION
M  V30 END CTAB
M  END
>  <Structure No>
556

>  <LogS>
-4.810584984

>  <MMFF94 Energy>
18.859

$$$$
Compound 557
Actelion Java MolfileCreator 2.0

  0  0  0  0  0  0              0 V3000
M  V30 BEGIN CTAB
M  V30 COUNTS 65 64 0 0 0
M  V30 BEGIN ATOM
M  V30 1 O -2.1975 2.2761 -0.1568 0
M  V30 2 C -2.6307 1.0966 -0.2681 0
M  V30 3 O -1.9978 0.1787 -1.1149 0
M  V30 4 C -3.8731 0.6841 0.4807 0 CFG=1
M  V30 5 C -0.8726 0.488 -1.9403 0
M  V30 6 C -5.0289 0.415 -0.5108 0
M  V30 7 C -3.6079 -0.57 1.341 0
M  V30 8 C 0.4783 0.1495 -1.2532 0
M  V30 9 C -5.5287 1.6898 -1.2297 0
M  V30 10 C -2.6148 -0.3066 2.4721 0
M  V30 11 C 1.6108 0.314 -2.3007 0
M  V30 12 C 0.4453 -1.303 -0.7318 0
M  V30 13 C 0.735 1.1164 -0.0783 0
M  V30 14 C -6.8348 2.2536 -0.6454 0
M  V30 15 O 2.8865 -0.0476 -1.7641 0
M  V30 16 C -6.6685 2.7959 0.7724 0
M  V30 17 C 3.5302 -1.2654 -2.0296 0
M  V30 18 O 3.0341 -2.0794 -2.857 0
M  V30 19 C 4.8689 -1.5783 -1.3981 0 CFG=1
M  V30 20 C 5.334 -0.508 -0.3775 0
M  V30 21 C 4.9852 -3.037 -0.8738 0
M  V30 22 C 4.5494 -0.4949 0.9438 0
M  V30 23 C 3.7554 -3.5843 -0.1358 0
M  V30 24 C 4.7832 0.8078 1.7165 0
M  V30 25 C 4.0071 0.8148 3.0304 0
M  V30 26 H -4.174 1.5078 1.1633 0
M  V30 27 H -0.9697 -0.1216 -2.8643 0
M  V30 28 H -0.9024 1.5529 -2.2616 0
M  V30 29 H -4.6833 -0.3176 -1.274 0
M  V30 30 H -5.8774 -0.072 0.018 0
M  V30 31 H -3.2304 -1.4022 0.7072 0
M  V30 32 H -4.5615 -0.9052 1.8041 0
M  V30 33 H -5.7278 1.4299 -2.2923 0
M  V30 34 H -4.7528 2.4855 -1.2436 0
M  V30 35 H -1.6114 -0.0753 2.0645 0
M  V30 36 H -2.5296 -1.2123 3.1081 0
M  V30 37 H -2.9608 0.5386 3.1043 0
M  V30 38 H 1.6625 1.3782 -2.6172 0
M  V30 39 H 1.3888 -0.274 -3.2183 0
M  V30 40 H 0.308 -2.016 -1.5728 0
M  V30 41 H 1.387 -1.5563 -0.2031 0
M  V30 42 H -0.3857 -1.448 -0.009 0
M  V30 43 H -0.0112 0.973 0.7268 0
M  V30 44 H 1.7372 0.948 0.365 0
M  V30 45 H 0.6866 2.1723 -0.4209 0
M  V30 46 H -7.624 1.4708 -0.6533 0
M  V30 47 H -7.1802 3.084 -1.2988 0
M  V30 48 H -6.4798 1.9671 1.4861 0
M  V30 49 H -5.8322 3.5258 0.8152 0
M  V30 50 H -7.6026 3.3098 1.0819 0
M  V30 51 H 5.6019 -1.504 -2.2323 0
M  V30 52 H 6.409 -0.6739 -0.1455 0
M  V30 53 H 5.2703 0.4909 -0.8633 0
M  V30 54 H 5.8716 -3.1256 -0.2092 0
M  V30 55 H 5.1734 -3.7064 -1.7422 0
M  V30 56 H 3.4645 -0.6043 0.7464 0
M  V30 57 H 4.8863 -1.3471 1.5721 0
M  V30 58 H 2.8736 -3.6321 -0.8067 0
M  V30 59 H 3.9702 -4.6182 0.2085 0
M  V30 60 H 3.5003 -2.981 0.7542 0
M  V30 61 H 4.4505 1.6731 1.102 0
M  V30 62 H 5.8672 0.925 1.9346 0
M  V30 63 H 4.3265 -0.034 3.6722 0
M  V30 64 H 4.2028 1.7636 3.5728 0
M  V30 65 H 2.9159 0.7368 2.8345 0
M  V30 END ATOM
M  V30 BEGIN BOND
M  V30 1 2 1 2
M  V30 2 1 2 3
M  V30 3 1 2 4
M  V30 4 1 3 5
M  V30 5 1 4 6
M  V30 6 1 4 7
M  V30 7 1 5 8
M  V30 8 1 6 9
M  V30 9 1 7 10
M  V30 10 1 8 11
M  V30 11 1 8 12
M  V30 12 1 8 13
M  V30 13 1 9 14
M  V30 14 1 11 15
M  V30 15 1 14 16
M  V30 16 1 15 17
M  V30 17 2 17 18
M  V30 18 1 17 19
M  V30 19 1 19 20
M  V30 20 1 19 21
M  V30 21 1 20 22
M  V30 22 1 21 23
M  V30 23 1 22 24
M  V30 24 1 24 25
M  V30 25 1 4 26
M  V30 26 1 5 27
M  V30 27 1 5 28
M  V30 28 1 6 29
M  V30 29 1 6 30
M  V30 30 1 7 31
M  V30 31 1 7 32
M  V30 32 1 9 33
M  V30 33 1 9 34
M  V30 34 1 10 35
M  V30 35 1 10 36
M  V30 36 1 10 37
M  V30 37 1 11 38
M  V30 38 1 11 39
M  V30 39 1 12 40
M  V30 40 1 12 41
M  V30 41 1 12 42
M  V30 42 1 13 43
M  V30 43 1 13 44
M  V30 44 1 13 45
M  V30 45 1 14 46
M  V30 46 1 14 47
M  V30 47 1 16 48
M  V30 48 1 16 49
M  V30 49 1 16 50
M  V30 50 1 19 51
M  V30 51 1 20 52
M  V30 52 1 20 53
M  V30 53 1 21 54
M  V30 54 1 21 55
M  V30 55 1 22 56
M  V30 56 1 22 57
M  V30 57 1 23 58
M  V30 58 1 23 59
M  V30 59 1 23 60
M  V30 60 1 24 61
M  V30 61 1 24 62
M  V30 62 1 25 63
M  V30 63 1 25 64
M  V30 64 1 25 65
M  V30 END BOND
M  V30 BEGIN COLLECTION
M  V30 MDLV30/STEABS ATOMS=(2 4 19)
M  V30 END COLLECTION
M  V30 END CTAB
M  END
>  <Structure No>
557

>  <LogS>
-5.02063787

>  <MMFF94 Energy>
-2.5774

$$$$
Compound 558
Actelion Java MolfileCreator 2.0

  0  0  0  0  0  0              0 V3000
M  V30 BEGIN CTAB
M  V30 COUNTS 34 34 0 0 0
M  V30 BEGIN ATOM
M  V30 1 O 1.8917 1.9705 0.0787 0
M  V30 2 C 1.8178 0.773 0.4676 0
M  V30 3 O 2.9648 -0.0227 0.5596 0
M  V30 4 C 0.4953 0.2058 0.8869 0 CFG=2
M  V30 5 C 4.2712 0.4414 0.2271 0
M  V30 6 C -0.0396 -0.9864 0.0788 0
M  V30 7 C -0.6403 0.4107 -0.1261 0 CFG=1
M  V30 8 C 4.824 1.3315 1.334 0
M  V30 9 C 0.7758 -1.5178 -1.109 0
M  V30 10 C -0.8362 -2.0217 0.8875 0
M  V30 11 C -1.9908 0.6723 0.4941 0
M  V30 12 C -3.1454 0.4523 -0.1658 0
M  V30 13 C -4.4479 0.7334 0.5363 0
M  V30 14 C -3.1515 -0.0668 -1.5839 0
M  V30 15 H 0.2177 0.2511 1.9623 0
M  V30 16 H 4.9388 -0.4377 0.11 0
M  V30 17 H 4.2528 0.9914 -0.7389 0
M  V30 18 H -0.3652 0.955 -1.0561 0
M  V30 19 H 5.8622 1.6357 1.0846 0
M  V30 20 H 4.8324 0.7778 2.2966 0
M  V30 21 H 4.2025 2.2445 1.4446 0
M  V30 22 H 0.1112 -2.1041 -1.7773 0
M  V30 23 H 1.5821 -2.1833 -0.7364 0
M  V30 24 H 1.2338 -0.7037 -1.71 0
M  V30 25 H -1.3085 -1.5841 1.7925 0
M  V30 26 H -1.6305 -2.4611 0.2491 0
M  V30 27 H -0.1549 -2.8341 1.216 0
M  V30 28 H -2.0264 1.0578 1.5103 0
M  V30 29 H -4.5251 0.1045 1.4484 0
M  V30 30 H -5.3201 0.5126 -0.1135 0
M  V30 31 H -4.4935 1.804 0.8284 0
M  V30 32 H -4.1852 -0.1987 -1.9653 0
M  V30 33 H -2.6394 -1.0503 -1.6305 0
M  V30 34 H -2.6274 0.6503 -2.2499 0
M  V30 END ATOM
M  V30 BEGIN BOND
M  V30 1 2 1 2
M  V30 2 1 2 3
M  V30 3 1 2 4
M  V30 4 1 3 5
M  V30 5 1 4 6
M  V30 6 1 4 7
M  V30 7 1 5 8
M  V30 8 1 6 9
M  V30 9 1 6 10
M  V30 10 1 7 11
M  V30 11 2 11 12
M  V30 12 1 12 13
M  V30 13 1 12 14
M  V30 14 1 6 7
M  V30 15 1 4 15
M  V30 16 1 5 16
M  V30 17 1 5 17
M  V30 18 1 7 18
M  V30 19 1 8 19
M  V30 20 1 8 20
M  V30 21 1 8 21
M  V30 22 1 9 22
M  V30 23 1 9 23
M  V30 24 1 9 24
M  V30 25 1 10 25
M  V30 26 1 10 26
M  V30 27 1 10 27
M  V30 28 1 11 28
M  V30 29 1 13 29
M  V30 30 1 13 30
M  V30 31 1 13 31
M  V30 32 1 14 32
M  V30 33 1 14 33
M  V30 34 1 14 34
M  V30 END BOND
M  V30 BEGIN COLLECTION
M  V30 MDLV30/STEABS ATOMS=(2 4 7)
M  V30 END COLLECTION
M  V30 END CTAB
M  END
>  <Structure No>
558

>  <LogS>
-4.765268274

>  <MMFF94 Energy>
17.308

$$$$
Compound 559
Actelion Java MolfileCreator 2.0

  0  0  0  0  0  0              0 V3000
M  V30 BEGIN CTAB
M  V30 COUNTS 32 33 0 0 0
M  V30 BEGIN ATOM
M  V30 1 O -7.1806 -0.5633 -1.1269 0
M  V30 2 N -6.6168 0.1226 -0.2489 0 CHG=1
M  V30 3 O -7.3908 0.7483 0.7017 0 CHG=-1
M  V30 4 C -5.1837 0.2562 -0.2291 0
M  V30 5 C -4.3897 -0.3777 -1.2006 0
M  V30 6 C -4.5553 1.0295 0.7608 0
M  V30 7 C -2.9979 -0.247 -1.1784 0
M  V30 8 C -3.1641 1.1614 0.7824 0
M  V30 9 C -2.3682 0.5158 -0.179 0
M  V30 10 C -0.894 0.6735 -0.1382 0
M  V30 11 O -0.4088 1.7395 0.3303 0
M  V30 12 N -0.018 -0.3594 -0.6287 0
M  V30 13 C 1.4151 -0.3092 -0.5256 0
M  V30 14 C 2.1968 -0.8197 -1.5702 0
M  V30 15 C 2.0517 0.1843 0.6255 0
M  V30 16 C 3.5917 -0.8048 -1.486 0
M  V30 17 C 3.4471 0.1979 0.7127 0
M  V30 18 C 4.234 -0.3003 -0.3413 0
M  V30 19 C 5.7158 -0.2875 -0.2692 0
M  V30 20 O 6.3917 -0.3289 -1.3326 0
M  V30 21 N 6.404 -0.2448 0.984 0
M  V30 22 H -4.8456 -0.9695 -1.9841 0
M  V30 23 H -5.1389 1.5335 1.5205 0
M  V30 24 H -2.4268 -0.7213 -1.9643 0
M  V30 25 H -2.7081 1.7602 1.5615 0
M  V30 26 H -0.4251 -1.1759 -1.135 0
M  V30 27 H 1.7225 -1.2206 -2.4574 0
M  V30 28 H 1.4736 0.5401 1.468 0
M  V30 29 H 4.1684 -1.2002 -2.313 0
M  V30 30 H 3.9015 0.6141 1.6014 0
M  V30 31 H 7.4458 -0.1761 1.0028 0
M  V30 32 H 5.9043 -0.3702 1.8911 0
M  V30 END ATOM
M  V30 BEGIN BOND
M  V30 1 2 1 2
M  V30 2 1 2 3
M  V30 3 1 2 4
M  V30 4 2 4 5
M  V30 5 1 4 6
M  V30 6 1 5 7
M  V30 7 2 6 8
M  V30 8 2 7 9
M  V30 9 1 9 10
M  V30 10 2 10 11
M  V30 11 1 10 12
M  V30 12 1 12 13
M  V30 13 2 13 14
M  V30 14 1 13 15
M  V30 15 1 14 16
M  V30 16 2 15 17
M  V30 17 2 16 18
M  V30 18 1 18 19
M  V30 19 2 19 20
M  V30 20 1 19 21
M  V30 21 1 8 9
M  V30 22 1 17 18
M  V30 23 1 5 22
M  V30 24 1 6 23
M  V30 25 1 7 24
M  V30 26 1 8 25
M  V30 27 1 12 26
M  V30 28 1 14 27
M  V30 29 1 15 28
M  V30 30 1 16 29
M  V30 31 1 17 30
M  V30 32 1 21 31
M  V30 33 1 21 32
M  V30 END BOND
M  V30 END CTAB
M  END
>  <Structure No>
559

>  <LogS>
-4.936725416

>  <MMFF94 Energy>
55.639

$$$$
Compound 560
Actelion Java MolfileCreator 2.0

  0  0  0  0  0  0              0 V3000
M  V30 BEGIN CTAB
M  V30 COUNTS 42 43 0 0 0
M  V30 BEGIN ATOM
M  V30 1 O 0.7145 3.9744 -0.7145 0
M  V30 2 C -0.1345 3.2975 -0.0739 0
M  V30 3 C -0.0295 1.8182 -0.0725 0
M  V30 4 C -1.2065 4.0213 0.6802 0
M  V30 5 C -1.151 0.9738 -0.1751 0
M  V30 6 C 1.2461 1.2243 0.0104 0
M  V30 7 C -1.0078 -0.3929 -0.1863 0
M  V30 8 C -2.5784 1.3675 -0.3229 0
M  V30 9 C 1.4107 -0.1865 0.0246 0
M  V30 10 C 0.2506 -0.9885 -0.069 0
M  V30 11 C -2.3189 -1.1029 -0.3198 0
M  V30 12 C -3.3123 0.0518 -0.6233 0
M  V30 13 C 2.7919 -0.8654 0.1368 0
M  V30 14 C -2.2898 -2.1235 -1.4734 0
M  V30 15 C -2.6753 -1.7999 1.0056 0
M  V30 16 C 3.0331 -1.7497 -1.1061 0
M  V30 17 C 2.8318 -1.7435 1.4065 0
M  V30 18 C 3.9616 0.1441 0.2279 0
M  V30 19 H -0.8318 5.013 1.0116 0
M  V30 20 H -2.0892 4.179 0.0274 0
M  V30 21 H -1.4988 3.4474 1.5844 0
M  V30 22 H 2.0991 1.8824 0.083 0
M  V30 23 H -2.9547 1.796 0.6298 0
M  V30 24 H -2.706 2.0915 -1.1564 0
M  V30 25 H 0.3192 -2.067 -0.0594 0
M  V30 26 H -4.2447 -0.0216 -0.0205 0
M  V30 27 H -3.6113 0.0517 -1.6955 0
M  V30 28 H -1.9562 -1.6387 -2.4166 0
M  V30 29 H -1.596 -2.9604 -1.2456 0
M  V30 30 H -3.3039 -2.5481 -1.6346 0
M  V30 31 H -3.6734 -2.2826 0.9318 0
M  V30 32 H -1.9251 -2.5824 1.2504 0
M  V30 33 H -2.7007 -1.0651 1.8398 0
M  V30 34 H 2.9637 -1.1401 -2.0329 0
M  V30 35 H 2.2904 -2.572 -1.1735 0
M  V30 36 H 4.0416 -2.2159 -1.0689 0
M  V30 37 H 2.0871 -2.5653 1.3592 0
M  V30 38 H 2.6164 -1.1292 2.3077 0
M  V30 39 H 3.833 -2.2098 1.5325 0
M  V30 40 H 4.0037 0.7848 -0.6794 0
M  V30 41 H 4.9353 -0.3867 0.3055 0
M  V30 42 H 3.8611 0.787 1.1291 0
M  V30 END ATOM
M  V30 BEGIN BOND
M  V30 1 2 1 2
M  V30 2 1 2 3
M  V30 3 1 2 4
M  V30 4 2 3 5
M  V30 5 1 3 6
M  V30 6 1 5 7
M  V30 7 1 5 8
M  V30 8 2 6 9
M  V30 9 2 7 10
M  V30 10 1 7 11
M  V30 11 1 8 12
M  V30 12 1 9 13
M  V30 13 1 11 14
M  V30 14 1 11 15
M  V30 15 1 13 16
M  V30 16 1 13 17
M  V30 17 1 13 18
M  V30 18 1 9 10
M  V30 19 1 11 12
M  V30 20 1 4 19
M  V30 21 1 4 20
M  V30 22 1 4 21
M  V30 23 1 6 22
M  V30 24 1 8 23
M  V30 25 1 8 24
M  V30 26 1 10 25
M  V30 27 1 12 26
M  V30 28 1 12 27
M  V30 29 1 14 28
M  V30 30 1 14 29
M  V30 31 1 14 30
M  V30 32 1 15 31
M  V30 33 1 15 32
M  V30 34 1 15 33
M  V30 35 1 16 34
M  V30 36 1 16 35
M  V30 37 1 16 36
M  V30 38 1 17 37
M  V30 39 1 17 38
M  V30 40 1 17 39
M  V30 41 1 18 40
M  V30 42 1 18 41
M  V30 43 1 18 42
M  V30 END BOND
M  V30 END CTAB
M  END
>  <Structure No>
560

>  <LogS>
-4.870866208

>  <MMFF94 Energy>
73.66

$$$$
Compound 561
Actelion Java MolfileCreator 2.0

  0  0  0  0  0  0              0 V3000
M  V30 BEGIN CTAB
M  V30 COUNTS 48 51 0 0 0
M  V30 BEGIN ATOM
M  V30 1 S 3.0398 1.1493 1.3136 0
M  V30 2 O 3.3327 2.6201 1.2467 0
M  V30 3 O 4.297 0.4194 1.6941 0
M  V30 4 N 1.8251 0.8579 2.5169 0
M  V30 5 C 2.4821 0.5894 -0.2623 0
M  V30 6 C 0.4412 0.9853 2.1746 0
M  V30 7 C 1.5205 1.3315 -0.9621 0
M  V30 8 C 2.8986 -0.6512 -0.7649 0
M  V30 9 C -0.2363 -0.0312 1.4622 0
M  V30 10 C -0.196 2.1959 2.4442 0
M  V30 11 C 0.9522 0.8212 -2.1326 0
M  V30 12 C 2.3353 -1.1596 -1.9407 0
M  V30 13 C 0.3745 -1.3771 1.2814 0
M  V30 14 C -1.5071 0.2402 0.8998 0
M  V30 15 C -1.5017 2.4355 1.9948 0
M  V30 16 C 1.3575 -0.4269 -2.631 0
M  V30 17 O 1.3688 -1.7268 1.9752 0
M  V30 18 C -0.1875 -2.3227 0.3018 0
M  V30 19 C -2.0615 -0.717 -0.1065 0
M  V30 20 C -2.1676 1.4565 1.2322 0
M  V30 21 O -2.1676 3.6396 2.283 0
M  V30 22 C 0.6735 -1.0131 -3.8291 0
M  V30 23 C -1.3754 -1.9987 -0.3846 0
M  V30 24 C 0.4725 -3.5306 0.0065 0
M  V30 25 O -3.0753 -0.4123 -0.7909 0
M  V30 26 N -3.5299 1.6971 0.8451 0
M  V30 27 C -1.6055 4.7243 3.0149 0
M  V30 28 C -1.8809 -2.8872 -1.3494 0
M  V30 29 C -0.0342 -4.3978 -0.9646 0
M  V30 30 C -1.209 -4.0759 -1.6395 0
M  V30 31 H 2.1037 0.963 3.5188 0
M  V30 32 H 1.1738 2.2808 -0.574 0
M  V30 33 H 3.6216 -1.2491 -0.2255 0
M  V30 34 H 0.3476 2.9552 2.9937 0
M  V30 35 H 0.1781 1.3861 -2.6367 0
M  V30 36 H 2.6375 -2.1388 -2.2932 0
M  V30 37 H 0.4792 -0.2219 -4.587 0
M  V30 38 H 1.2981 -1.8002 -4.303 0
M  V30 39 H -0.2909 -1.4605 -3.5145 0
M  V30 40 H 1.395 -3.7935 0.5077 0
M  V30 41 H -4.2235 0.9173 0.8112 0
M  V30 42 H -3.9171 2.6652 0.8131 0
M  V30 43 H -0.6995 5.1046 2.4978 0
M  V30 44 H -2.3496 5.5444 3.0744 0
M  V30 45 H -1.3502 4.3995 4.0454 0
M  V30 46 H -2.7874 -2.6568 -1.8927 0
M  V30 47 H 0.4886 -5.3174 -1.1968 0
M  V30 48 H -1.5937 -4.7432 -2.3901 0
M  V30 END ATOM
M  V30 BEGIN BOND
M  V30 1 2 1 2
M  V30 2 2 1 3
M  V30 3 1 1 4
M  V30 4 1 1 5
M  V30 5 1 4 6
M  V30 6 2 5 7
M  V30 7 1 5 8
M  V30 8 2 6 9
M  V30 9 1 6 10
M  V30 10 1 7 11
M  V30 11 2 8 12
M  V30 12 1 9 13
M  V30 13 1 9 14
M  V30 14 2 10 15
M  V30 15 2 11 16
M  V30 16 2 13 17
M  V30 17 1 13 18
M  V30 18 1 14 19
M  V30 19 2 14 20
M  V30 20 1 15 21
M  V30 21 1 16 22
M  V30 22 2 18 23
M  V30 23 1 18 24
M  V30 24 2 19 25
M  V30 25 1 20 26
M  V30 26 1 21 27
M  V30 27 1 23 28
M  V30 28 2 24 29
M  V30 29 2 28 30
M  V30 30 1 12 16
M  V30 31 1 15 20
M  V30 32 1 19 23
M  V30 33 1 29 30
M  V30 34 1 4 31
M  V30 35 1 7 32
M  V30 36 1 8 33
M  V30 37 1 10 34
M  V30 38 1 11 35
M  V30 39 1 12 36
M  V30 40 1 22 37
M  V30 41 1 22 38
M  V30 42 1 22 39
M  V30 43 1 24 40
M  V30 44 1 26 41
M  V30 45 1 26 42
M  V30 46 1 27 43
M  V30 47 1 27 44
M  V30 48 1 27 45
M  V30 49 1 28 46
M  V30 50 1 29 47
M  V30 51 1 30 48
M  V30 END BOND
M  V30 END CTAB
M  END
>  <Structure No>
561

>  <LogS>
-5.112570051

>  <MMFF94 Energy>
65.593

$$$$
Compound 562
Actelion Java MolfileCreator 2.0

  0  0  0  0  0  0              0 V3000
M  V30 BEGIN CTAB
M  V30 COUNTS 39 41 0 0 0
M  V30 BEGIN ATOM
M  V30 1 Cl 2.0209 -2.611 1.5154 0
M  V30 2 C 2.2944 -1.145 0.5799 0
M  V30 3 C 3.4076 -0.3177 0.8167 0
M  V30 4 C 1.3773 -0.8116 -0.42 0
M  V30 5 C 3.5927 0.8281 0.0269 0
M  V30 6 C 4.4049 -0.6584 1.8895 0
M  V30 7 C 1.5368 0.3591 -1.1792 0
M  V30 8 C 2.6722 1.1647 -0.9764 0
M  V30 9 N 0.588 0.7041 -2.205 0
M  V30 10 S 2.9271 2.6153 -1.9516 0
M  V30 11 N -0.685 0.6501 -2.0887 0
M  V30 12 O 4.2658 3.2263 -1.6459 0
M  V30 13 O 1.8501 3.6184 -1.6504 0
M  V30 14 O 2.8805 2.2091 -3.5809 0 CHG=-1
M  V30 15 C -1.3949 0.3669 -0.8689 0
M  V30 16 C -1.1671 1.1518 0.28 0
M  V30 17 C -2.368 -0.6533 -0.8441 0
M  V30 18 O -0.3217 2.2596 0.1669 0
M  V30 19 C -1.8243 0.8386 1.4941 0
M  V30 20 C -3.0665 -0.9236 0.3567 0
M  V30 21 C -2.6517 -1.424 -1.9893 0
M  V30 22 C -1.5154 1.5295 2.7656 0
M  V30 23 C -2.7832 -0.1847 1.5108 0
M  V30 24 C -4.0296 -1.9452 0.3914 0
M  V30 25 C -3.6137 -2.436 -1.9404 0
M  V30 26 O -0.345 1.9175 3.0206 0
M  V30 27 O -2.5058 1.6956 3.7267 0 CHG=-1
M  V30 28 C -4.3011 -2.6952 -0.7542 0
M  V30 29 H 0.5433 -1.4742 -0.6113 0
M  V30 30 H 4.4549 1.4602 0.1969 0
M  V30 31 H 4.8842 -1.6328 1.6585 0
M  V30 32 H 5.2015 0.1114 1.9695 0
M  V30 33 H 3.8914 -0.7262 2.8716 0
M  V30 34 H -0.2347 2.973 0.8774 0
M  V30 35 H -2.1343 -1.2508 -2.9243 0
M  V30 36 H -3.2982 -0.4228 2.4352 0
M  V30 37 H -4.5705 -2.1646 1.3042 0
M  V30 38 H -3.8259 -3.0221 -2.8252 0
M  V30 39 H -5.0444 -3.4813 -0.7217 0
M  V30 END ATOM
M  V30 BEGIN BOND
M  V30 1 1 1 2
M  V30 2 2 2 3
M  V30 3 1 2 4
M  V30 4 1 3 5
M  V30 5 1 3 6
M  V30 6 2 4 7
M  V30 7 2 5 8
M  V30 8 1 7 9
M  V30 9 1 8 10
M  V30 10 2 9 11
M  V30 11 2 10 12
M  V30 12 2 10 13
M  V30 13 1 10 14
M  V30 14 1 11 15
M  V30 15 2 15 16
M  V30 16 1 15 17
M  V30 17 1 16 18
M  V30 18 1 16 19
M  V30 19 1 17 20
M  V30 20 2 17 21
M  V30 21 1 19 22
M  V30 22 2 19 23
M  V30 23 2 20 24
M  V30 24 1 21 25
M  V30 25 2 22 26
M  V30 26 1 22 27
M  V30 27 1 24 28
M  V30 28 1 7 8
M  V30 29 1 20 23
M  V30 30 2 25 28
M  V30 31 1 4 29
M  V30 32 1 5 30
M  V30 33 1 6 31
M  V30 34 1 6 32
M  V30 35 1 6 33
M  V30 36 1 18 34
M  V30 37 1 21 35
M  V30 38 1 23 36
M  V30 39 1 24 37
M  V30 40 1 25 38
M  V30 41 1 28 39
M  V30 END BOND
M  V30 END CTAB
M  END
>  <Structure No>
562

>  <LogS>
-5.170401078

>  <MMFF94 Energy>
137.19

$$$$
Compound 563
Actelion Java MolfileCreator 2.0

  0  0  0  0  0  0              0 V3000
M  V30 BEGIN CTAB
M  V30 COUNTS 47 49 0 0 0
M  V30 BEGIN ATOM
M  V30 1 O -1.9278 -3.295 1.4455 0
M  V30 2 C -1.1243 -2.3309 1.3524 0
M  V30 3 O -0.6873 -1.7013 2.5118 0 CHG=-1
M  V30 4 C -0.5813 -1.9165 0.0409 0
M  V30 5 C -1.3739 -1.8167 -1.1335 0
M  V30 6 C 0.7859 -1.6144 -0.0265 0
M  V30 7 N -2.8137 -1.9785 -1.11 0 CHG=1
M  V30 8 C -0.7533 -1.4435 -2.3409 0
M  V30 9 C 1.3932 -1.23 -1.2298 0
M  V30 10 C -3.4417 -0.7943 -0.5731 0
M  V30 11 C 0.6173 -1.148 -2.4072 0
M  V30 12 N 2.815 -1.019 -1.2606 0
M  V30 13 C -4.0609 -0.8185 0.6893 0
M  V30 14 C -3.4543 0.4016 -1.3141 0
M  V30 15 C 1.1883 -0.709 -3.7056 0
M  V30 16 C 3.5251 -0.2167 -0.3001 0
M  V30 17 C -4.6583 0.3335 1.2084 0
M  V30 18 C -4.052 1.5527 -0.7938 0
M  V30 19 O 2.2637 -0.0557 -3.7547 0
M  V30 20 O 0.5185 -0.9846 -4.8923 0 CHG=-1
M  V30 21 C 4.9025 -0.4118 -0.1219 0
M  V30 22 C 2.8753 0.7888 0.4389 0
M  V30 23 C -4.6418 1.5306 0.4782 0
M  V30 24 C 5.6167 0.3658 0.7941 0
M  V30 25 C 3.5898 1.5663 1.3548 0
M  V30 26 C -5.3168 2.7557 1.0197 0
M  V30 27 C 4.9672 1.3682 1.5291 0
M  V30 28 C 5.7251 2.1762 2.5403 0
M  V30 29 H 1.3992 -1.7125 0.8617 0
M  V30 30 H -3.181 -2.1345 -2.0779 0
M  V30 31 H -3.0829 -2.8324 -0.5747 0
M  V30 32 H -1.361 -1.347 -3.2323 0
M  V30 33 H 3.3659 -1.5242 -1.9912 0
M  V30 34 H -4.0891 -1.7305 1.2703 0
M  V30 35 H -3.0016 0.4397 -2.2963 0
M  V30 36 H -5.1349 0.2912 2.1801 0
M  V30 37 H -4.0547 2.4612 -1.3832 0
M  V30 38 H 5.4216 -1.1763 -0.6863 0
M  V30 39 H 1.8192 0.9814 0.3028 0
M  V30 40 H 6.6764 0.1871 0.9284 0
M  V30 41 H 3.0696 2.3273 1.9234 0
M  V30 42 H -5.2718 2.7697 2.1296 0
M  V30 43 H -4.819 3.6753 0.6448 0
M  V30 44 H -6.3797 2.7632 0.7003 0
M  V30 45 H 6.7859 2.2942 2.2324 0
M  V30 46 H 5.6884 1.664 3.5243 0
M  V30 47 H 5.283 3.1902 2.6427 0
M  V30 END ATOM
M  V30 BEGIN BOND
M  V30 1 2 1 2
M  V30 2 1 2 3
M  V30 3 1 2 4
M  V30 4 2 4 5
M  V30 5 1 4 6
M  V30 6 1 5 7
M  V30 7 1 5 8
M  V30 8 2 6 9
M  V30 9 1 7 10
M  V30 10 2 8 11
M  V30 11 1 9 12
M  V30 12 2 10 13
M  V30 13 1 10 14
M  V30 14 1 11 15
M  V30 15 1 12 16
M  V30 16 1 13 17
M  V30 17 2 14 18
M  V30 18 2 15 19
M  V30 19 1 15 20
M  V30 20 2 16 21
M  V30 21 1 16 22
M  V30 22 2 17 23
M  V30 23 1 21 24
M  V30 24 2 22 25
M  V30 25 1 23 26
M  V30 26 2 24 27
M  V30 27 1 27 28
M  V30 28 1 9 11
M  V30 29 1 18 23
M  V30 30 1 25 27
M  V30 31 1 6 29
M  V30 32 1 7 30
M  V30 33 1 7 31
M  V30 34 1 8 32
M  V30 35 1 12 33
M  V30 36 1 13 34
M  V30 37 1 14 35
M  V30 38 1 17 36
M  V30 39 1 18 37
M  V30 40 1 21 38
M  V30 41 1 22 39
M  V30 42 1 24 40
M  V30 43 1 25 41
M  V30 44 1 26 42
M  V30 45 1 26 43
M  V30 46 1 26 44
M  V30 47 1 28 45
M  V30 48 1 28 46
M  V30 49 1 28 47
M  V30 END BOND
M  V30 END CTAB
M  END
>  <Structure No>
563

>  <LogS>
-5.070513482

>  <MMFF94 Energy>
-56.279

$$$$
Compound 564
Actelion Java MolfileCreator 2.0

  0  0  0  0  0  0              0 V3000
M  V30 BEGIN CTAB
M  V30 COUNTS 41 43 0 0 0
M  V30 BEGIN ATOM
M  V30 1 Cl -6.7327 -0.5665 0.1618 0
M  V30 2 C -4.9827 -0.4095 0.2016 0
M  V30 3 C -4.3486 0.6344 -0.4843 0
M  V30 4 C -4.2319 -1.3338 0.9331 0
M  V30 5 O -5.1381 1.5509 -1.1976 0
M  V30 6 C -2.9461 0.7352 -0.4345 0
M  V30 7 C -2.8289 -1.2369 0.983 0
M  V30 8 C -4.6251 2.6522 -1.9403 0
M  V30 9 C -2.1827 -0.2038 0.2808 0
M  V30 10 O -2.0474 -2.1517 1.7077 0
M  V30 11 N -0.751 -0.084 0.35 0
M  V30 12 C -2.5684 -3.2436 2.4583 0
M  V30 13 C 0.0718 0.2885 -0.7687 0
M  V30 14 O -0.4275 0.3767 -1.9235 0
M  V30 15 C 1.522 0.508 -0.5884 0
M  V30 16 C 2.1788 1.6301 -1.147 0
M  V30 17 C 2.2702 -0.4429 0.1265 0
M  V30 18 O 1.4853 2.6384 -1.8205 0
M  V30 19 C 3.5646 1.7672 -1.0083 0
M  V30 20 C 3.6562 -0.2972 0.276 0
M  V30 21 C 4.3099 0.8158 -0.3001 0
M  V30 22 C 4.4035 -1.2506 0.9859 0
M  V30 23 C 5.6989 0.9585 -0.1545 0
M  V30 24 C 5.786 -1.0978 1.124 0
M  V30 25 C 6.4317 0.0034 0.5557 0
M  V30 26 H -4.7506 -2.1241 1.4582 0
M  V30 27 H -2.4451 1.5557 -0.9279 0
M  V30 28 H -3.949 2.2897 -2.7431 0
M  V30 29 H -4.0814 3.3474 -1.2663 0
M  V30 30 H -5.4696 3.1991 -2.4073 0
M  V30 31 H -0.2835 -0.3267 1.2524 0
M  V30 32 H -1.7278 -3.7946 2.9273 0
M  V30 33 H -3.2398 -2.8702 3.2602 0
M  V30 34 H -3.1193 -3.9383 1.7896 0
M  V30 35 H 1.7767 -1.313 0.5448 0
M  V30 36 H 0.476 2.6744 -1.8775 0
M  V30 37 H 4.0555 2.6296 -1.4443 0
M  V30 38 H 3.9199 -2.1112 1.4328 0
M  V30 39 H 6.2162 1.806 -0.5886 0
M  V30 40 H 6.3583 -1.8347 1.6726 0
M  V30 41 H 7.5024 0.1167 0.6656 0
M  V30 END ATOM
M  V30 BEGIN BOND
M  V30 1 1 1 2
M  V30 2 2 2 3
M  V30 3 1 2 4
M  V30 4 1 3 5
M  V30 5 1 3 6
M  V30 6 2 4 7
M  V30 7 1 5 8
M  V30 8 2 6 9
M  V30 9 1 7 10
M  V30 10 1 9 11
M  V30 11 1 10 12
M  V30 12 1 11 13
M  V30 13 2 13 14
M  V30 14 1 13 15
M  V30 15 1 15 16
M  V30 16 2 15 17
M  V30 17 1 16 18
M  V30 18 2 16 19
M  V30 19 1 17 20
M  V30 20 1 19 21
M  V30 21 2 20 22
M  V30 22 2 21 23
M  V30 23 1 22 24
M  V30 24 1 23 25
M  V30 25 1 7 9
M  V30 26 1 20 21
M  V30 27 2 24 25
M  V30 28 1 4 26
M  V30 29 1 6 27
M  V30 30 1 8 28
M  V30 31 1 8 29
M  V30 32 1 8 30
M  V30 33 1 11 31
M  V30 34 1 12 32
M  V30 35 1 12 33
M  V30 36 1 12 34
M  V30 37 1 17 35
M  V30 38 1 18 36
M  V30 39 1 19 37
M  V30 40 1 22 38
M  V30 41 1 23 39
M  V30 42 1 24 40
M  V30 43 1 25 41
M  V30 END BOND
M  V30 END CTAB
M  END
>  <Structure No>
564

>  <LogS>
-5.062270146

>  <MMFF94 Energy>
63.736

$$$$
Compound 565
Actelion Java MolfileCreator 2.0

  0  0  0  0  0  0              0 V3000
M  V30 BEGIN CTAB
M  V30 COUNTS 36 35 0 0 0
M  V30 BEGIN ATOM
M  V30 1 O 2.0246 -0.8561 2.5703 0
M  V30 2 C 2.5419 -0.4606 1.4891 0
M  V30 3 O 1.7255 -0.06 0.4272 0
M  V30 4 C 4.0118 -0.418 1.3302 0
M  V30 5 C 0.3025 -0.0913 0.4942 0
M  V30 6 C 4.8222 -0.7793 2.3325 0
M  V30 7 C 4.5963 0.0947 0.0425 0
M  V30 8 C -0.3025 0.2812 -0.8745 0 CFG=2
M  V30 9 C -1.8518 0.2692 -0.8297 0
M  V30 10 C 0.2394 -0.6154 -2.0177 0
M  V30 11 C -2.4279 1.5416 -0.1828 0
M  V30 12 C -0.0716 -2.1072 -1.8553 0
M  V30 13 C -3.9642 1.5631 -0.2017 0
M  V30 14 C -4.5779 0.6201 0.8336 0
M  V30 15 H -0.0375 -1.1033 0.8033 0
M  V30 16 H -0.031 0.6333 1.2667 0
M  V30 17 H 5.8983 -0.723 2.2285 0
M  V30 18 H 4.4309 -1.1484 3.2726 0
M  V30 19 H 5.6595 -0.2043 -0.0728 0
M  V30 20 H 4.0344 -0.3166 -0.822 0
M  V30 21 H 4.5318 1.2008 0.024 0
M  V30 22 H 0.0314 1.3175 -1.1134 0
M  V30 23 H -2.2019 -0.6292 -0.278 0
M  V30 24 H -2.2523 0.2019 -1.8651 0
M  V30 25 H 1.3412 -0.4875 -2.0993 0
M  V30 26 H -0.189 -0.2698 -2.9848 0
M  V30 27 H -2.0673 1.6522 0.8621 0
M  V30 28 H -2.0674 2.4245 -0.7557 0
M  V30 29 H 0.4897 -2.5368 -0.9986 0
M  V30 30 H -1.1588 -2.2766 -1.7144 0
M  V30 31 H 0.242 -2.6447 -2.7734 0
M  V30 32 H -4.3425 1.3033 -1.2154 0
M  V30 33 H -4.3032 2.5971 0.0279 0
M  V30 34 H -4.2013 0.8647 1.8496 0
M  V30 35 H -5.6813 0.7371 0.8294 0
M  V30 36 H -4.3433 -0.4373 0.5968 0
M  V30 END ATOM
M  V30 BEGIN BOND
M  V30 1 2 1 2
M  V30 2 1 2 3
M  V30 3 1 2 4
M  V30 4 1 3 5
M  V30 5 2 4 6
M  V30 6 1 4 7
M  V30 7 1 5 8
M  V30 8 1 8 9
M  V30 9 1 8 10
M  V30 10 1 9 11
M  V30 11 1 10 12
M  V30 12 1 11 13
M  V30 13 1 13 14
M  V30 14 1 5 15
M  V30 15 1 5 16
M  V30 16 1 6 17
M  V30 17 1 6 18
M  V30 18 1 7 19
M  V30 19 1 7 20
M  V30 20 1 7 21
M  V30 21 1 8 22
M  V30 22 1 9 23
M  V30 23 1 9 24
M  V30 24 1 10 25
M  V30 25 1 10 26
M  V30 26 1 11 27
M  V30 27 1 11 28
M  V30 28 1 12 29
M  V30 29 1 12 30
M  V30 30 1 12 31
M  V30 31 1 13 32
M  V30 32 1 13 33
M  V30 33 1 14 34
M  V30 34 1 14 35
M  V30 35 1 14 36
M  V30 END BOND
M  V30 BEGIN COLLECTION
M  V30 MDLV30/STEABS ATOMS=(1 8)
M  V30 END COLLECTION
M  V30 END CTAB
M  END
>  <Structure No>
565

>  <LogS>
-4.805974161

>  <MMFF94 Energy>
6.0137

$$$$
Compound 566
Actelion Java MolfileCreator 2.0

  0  0  0  0  0  0              0 V3000
M  V30 BEGIN CTAB
M  V30 COUNTS 26 25 0 0 0
M  V30 BEGIN ATOM
M  V30 1 Cl -1.6524 0.4718 2.9128 0
M  V30 2 C -1.7235 -0.8975 1.7657 0
M  V30 3 C -1.0832 -0.5687 0.3975 0 CFG=2
M  V30 4 C 0.4398 -0.3357 0.5631 0
M  V30 5 C -1.7677 0.6312 -0.3079 0
M  V30 6 C 1.2033 -0.3749 -0.7743 0
M  V30 7 C -3.2595 0.4105 -0.5639 0
M  V30 8 C 2.7262 -0.4445 -0.5814 0
M  V30 9 C 3.306 0.8417 0.0064 0
M  V30 10 H -2.7821 -1.2026 1.6367 0
M  V30 11 H -1.2019 -1.7634 2.2263 0
M  V30 12 H -1.2233 -1.4685 -0.2423 0
M  V30 13 H 0.8554 -1.1299 1.2219 0
M  V30 14 H 0.6134 0.6418 1.0621 0
M  V30 15 H -1.2926 0.796 -1.2968 0
M  V30 16 H -1.632 1.5617 0.2839 0
M  V30 17 H 0.9583 0.5188 -1.3861 0
M  V30 18 H 0.8914 -1.2752 -1.3469 0
M  V30 19 H -3.4293 -0.5674 -1.0619 0
M  V30 20 H -3.8317 0.4505 0.386 0
M  V30 21 H -3.6438 1.2151 -1.2258 0
M  V30 22 H 2.9911 -1.3044 0.0712 0
M  V30 23 H 3.1982 -0.6188 -1.5726 0
M  V30 24 H 3.0098 1.7181 -0.6082 0
M  V30 25 H 4.4142 0.7757 0.0169 0
M  V30 26 H 2.9586 0.9873 1.0503 0
M  V30 END ATOM
M  V30 BEGIN BOND
M  V30 1 1 1 2
M  V30 2 1 2 3
M  V30 3 1 3 4
M  V30 4 1 3 5
M  V30 5 1 4 6
M  V30 6 1 5 7
M  V30 7 1 6 8
M  V30 8 1 8 9
M  V30 9 1 2 10
M  V30 10 1 2 11
M  V30 11 1 3 12
M  V30 12 1 4 13
M  V30 13 1 4 14
M  V30 14 1 5 15
M  V30 15 1 5 16
M  V30 16 1 6 17
M  V30 17 1 6 18
M  V30 18 1 7 19
M  V30 19 1 7 20
M  V30 20 1 7 21
M  V30 21 1 8 22
M  V30 22 1 8 23
M  V30 23 1 9 24
M  V30 24 1 9 25
M  V30 25 1 9 26
M  V30 END BOND
M  V30 BEGIN COLLECTION
M  V30 MDLV30/STEABS ATOMS=(1 3)
M  V30 END COLLECTION
M  V30 END CTAB
M  END
>  <Structure No>
566

>  <LogS>
-4.680882096

>  <MMFF94 Energy>
7.3876

$$$$
Compound 567
Actelion Java MolfileCreator 2.0

  0  0  0  0  0  0              0 V3000
M  V30 BEGIN CTAB
M  V30 COUNTS 32 33 0 0 0
M  V30 BEGIN ATOM
M  V30 1 O 0.3971 -0.4765 1.5892 0
M  V30 2 C 0.8838 -0.2592 0.446 0
M  V30 3 N 0.0093 -0.0768 -0.684 0
M  V30 4 C 2.3581 -0.2052 0.2948 0
M  V30 5 C -1.4241 -0.0213 -0.586 0
M  V30 6 C 3.1538 0.2189 1.3743 0
M  V30 7 C 2.9889 -0.5957 -0.9012 0
M  V30 8 C -2.062 0.6438 0.4744 0
M  V30 9 C -2.2043 -0.5803 -1.6065 0
M  V30 10 C 4.5453 0.2736 1.2537 0
M  V30 11 C 4.3812 -0.5412 -1.0185 0
M  V30 12 C -3.4576 0.7068 0.534 0
M  V30 13 C -3.5993 -0.5187 -1.5488 0
M  V30 14 C 5.1653 -0.1035 0.0562 0
M  V30 15 C -4.2433 0.1134 -0.4704 0
M  V30 16 N 6.5889 -0.0486 -0.0661 0
M  V30 17 C -5.7249 0.1746 -0.4247 0
M  V30 18 O -6.388 0.0339 -1.4876 0
M  V30 19 N -6.4276 0.3747 0.8048 0
M  V30 20 H 0.4177 -0.0293 -1.6428 0
M  V30 21 H 2.6977 0.5209 2.3092 0
M  V30 22 H 2.4186 -0.9722 -1.7388 0
M  V30 23 H -1.4847 1.1447 1.24 0
M  V30 24 H -1.7289 -1.0756 -2.4439 0
M  V30 25 H 5.1397 0.6101 2.0939 0
M  V30 26 H 4.8493 -0.8479 -1.9454 0
M  V30 27 H -3.9127 1.2499 1.351 0
M  V30 28 H -4.1749 -0.9742 -2.345 0
M  V30 29 H 7.1819 0.2741 0.7307 0
M  V30 30 H 7.0604 -0.3298 -0.9546 0
M  V30 31 H -5.9426 0.3401 1.7277 0
M  V30 32 H -7.4674 0.4719 0.7996 0
M  V30 END ATOM
M  V30 BEGIN BOND
M  V30 1 2 1 2
M  V30 2 1 2 3
M  V30 3 1 2 4
M  V30 4 1 3 5
M  V30 5 2 4 6
M  V30 6 1 4 7
M  V30 7 2 5 8
M  V30 8 1 5 9
M  V30 9 1 6 10
M  V30 10 2 7 11
M  V30 11 1 8 12
M  V30 12 2 9 13
M  V30 13 2 10 14
M  V30 14 2 12 15
M  V30 15 1 14 16
M  V30 16 1 15 17
M  V30 17 2 17 18
M  V30 18 1 17 19
M  V30 19 1 11 14
M  V30 20 1 13 15
M  V30 21 1 3 20
M  V30 22 1 6 21
M  V30 23 1 7 22
M  V30 24 1 8 23
M  V30 25 1 9 24
M  V30 26 1 10 25
M  V30 27 1 11 26
M  V30 28 1 12 27
M  V30 29 1 13 28
M  V30 30 1 16 29
M  V30 31 1 16 30
M  V30 32 1 19 31
M  V30 33 1 19 32
M  V30 END BOND
M  V30 END CTAB
M  END
>  <Structure No>
567

>  <LogS>
-4.915649994

>  <MMFF94 Energy>
11.164

$$$$
Compound 568
Actelion Java MolfileCreator 2.0

  0  0  0  0  0  0              0 V3000
M  V30 BEGIN CTAB
M  V30 COUNTS 39 38 0 0 0
M  V30 BEGIN ATOM
M  V30 1 O 5.0424 1.3943 1.2393 0
M  V30 2 C 5.6207 1.0026 0.0255 0
M  V30 3 C 5.2636 -0.4546 -0.2889 0
M  V30 4 C 3.8475 -0.6292 -0.8632 0
M  V30 5 C 2.744 -0.3697 0.1726 0
M  V30 6 C 1.3654 -0.7381 -0.3889 0
M  V30 7 C 0.2602 -0.4608 0.6372 0
M  V30 8 C -1.1178 -0.8312 0.0763 0
M  V30 9 C -2.225 -0.5371 1.0991 0
M  V30 10 C -3.6071 -1.0406 0.6465 0
M  V30 11 C -4.1371 -0.4116 -0.6579 0
M  V30 12 C -4.2373 1.1236 -0.645 0
M  V30 13 C -5.1932 1.6493 0.4251 0
M  V30 14 H 5.2949 2.345 1.3706 0
M  V30 15 H 5.2809 1.67 -0.7979 0
M  V30 16 H 6.7273 1.0869 0.1082 0
M  V30 17 H 5.392 -1.0832 0.6193 0
M  V30 18 H 5.9846 -0.8272 -1.0487 0
M  V30 19 H 3.7095 0.0435 -1.7379 0
M  V30 20 H 3.7575 -1.6757 -1.2289 0
M  V30 21 H 2.74 0.7062 0.4483 0
M  V30 22 H 2.9414 -0.9735 1.0856 0
M  V30 23 H 1.1722 -0.1423 -1.3082 0
M  V30 24 H 1.3535 -1.8174 -0.6581 0
M  V30 25 H 0.4557 -1.0553 1.5569 0
M  V30 26 H 0.2691 0.6187 0.9054 0
M  V30 27 H -1.1311 -1.9127 -0.1827 0
M  V30 28 H -1.2981 -0.2406 -0.8472 0
M  V30 29 H -2.2637 0.5508 1.318 0
M  V30 30 H -1.9769 -1.0505 2.054 0
M  V30 31 H -4.3378 -0.8616 1.4639 0
M  V30 32 H -3.5571 -2.1424 0.5074 0
M  V30 33 H -3.4916 -0.7217 -1.5066 0
M  V30 34 H -5.1455 -0.8325 -0.8633 0
M  V30 35 H -4.6129 1.4531 -1.6378 0
M  V30 36 H -3.2346 1.5808 -0.5115 0
M  V30 37 H -4.7804 1.4724 1.4399 0
M  V30 38 H -5.3285 2.7435 0.2937 0
M  V30 39 H -6.1847 1.1566 0.3362 0
M  V30 END ATOM
M  V30 BEGIN BOND
M  V30 1 1 1 2
M  V30 2 1 2 3
M  V30 3 1 3 4
M  V30 4 1 4 5
M  V30 5 1 5 6
M  V30 6 1 6 7
M  V30 7 1 7 8
M  V30 8 1 8 9
M  V30 9 1 9 10
M  V30 10 1 10 11
M  V30 11 1 11 12
M  V30 12 1 12 13
M  V30 13 1 1 14
M  V30 14 1 2 15
M  V30 15 1 2 16
M  V30 16 1 3 17
M  V30 17 1 3 18
M  V30 18 1 4 19
M  V30 19 1 4 20
M  V30 20 1 5 21
M  V30 21 1 5 22
M  V30 22 1 6 23
M  V30 23 1 6 24
M  V30 24 1 7 25
M  V30 25 1 7 26
M  V30 26 1 8 27
M  V30 27 1 8 28
M  V30 28 1 9 29
M  V30 29 1 9 30
M  V30 30 1 10 31
M  V30 31 1 10 32
M  V30 32 1 11 33
M  V30 33 1 11 34
M  V30 34 1 12 35
M  V30 35 1 12 36
M  V30 36 1 13 37
M  V30 37 1 13 38
M  V30 38 1 13 39
M  V30 END BOND
M  V30 END CTAB
M  END
>  <Structure No>
568

>  <LogS>
-4.81481019

>  <MMFF94 Energy>
-1.5988

$$$$
Compound 569
Actelion Java MolfileCreator 2.0

  0  0  0  0  0  0              0 V3000
M  V30 BEGIN CTAB
M  V30 COUNTS 46 45 0 0 0
M  V30 BEGIN ATOM
M  V30 1 O -6.981 -1.6438 -2.1922 0
M  V30 2 C -6.5203 -1.4794 -1.03 0
M  V30 3 O -5.4802 -0.5723 -0.8017 0
M  V30 4 C -7.0892 -2.2531 0.0829 0
M  V30 5 C -4.8817 0.1921 -1.8441 0
M  V30 6 C -6.6418 -2.1331 1.3308 0
M  V30 7 C -3.7783 1.083 -1.2732 0
M  V30 8 C -2.6287 0.2546 -0.6835 0
M  V30 9 C -1.5149 1.1664 -0.1468 0
M  V30 10 C -0.4074 0.3869 0.5807 0
M  V30 11 C 0.4954 -0.3981 -0.3866 0
M  V30 12 C 1.6029 -1.1776 0.3409 0
M  V30 13 C 2.716 -0.2656 0.8786 0
M  V30 14 C 3.867 -1.0936 1.4659 0
M  V30 15 C 4.9687 -0.2006 2.048 0
M  V30 16 O 5.5325 0.6441 1.0452 0
M  V30 17 C 6.411 0.1876 0.0544 0
M  V30 18 O 6.8117 -1.0077 0.055 0
M  V30 19 C 6.8833 1.0998 -0.9968 0
M  V30 20 C 6.4868 2.3685 -1.0652 0
M  V30 21 H -7.8982 -2.9446 -0.1196 0
M  V30 22 H -5.6542 0.8346 -2.3202 0
M  V30 23 H -4.4587 -0.4866 -2.6169 0
M  V30 24 H -5.8345 -1.4561 1.5807 0
M  V30 25 H -7.0876 -2.7217 2.1222 0
M  V30 26 H -3.3868 1.7297 -2.0887 0
M  V30 27 H -4.2126 1.7392 -0.4872 0
M  V30 28 H -3.0172 -0.3785 0.1442 0
M  V30 29 H -2.2222 -0.408 -1.4765 0
M  V30 30 H -1.9598 1.884 0.5775 0
M  V30 31 H -1.0752 1.7588 -0.9792 0
M  V30 32 H -0.8596 -0.3036 1.3259 0
M  V30 33 H 0.208 1.1251 1.1363 0
M  V30 34 H -0.1201 -1.1362 -0.9422 0
M  V30 35 H 0.9476 0.2925 -1.1316 0
M  V30 36 H 1.163 -1.7706 1.1729 0
M  V30 37 H 2.0482 -1.8945 -0.3836 0
M  V30 38 H 3.1033 0.3687 0.0512 0
M  V30 39 H 2.3096 0.3957 1.6729 0
M  V30 40 H 3.4755 -1.7445 2.2781 0
M  V30 41 H 4.2978 -1.7499 0.6793 0
M  V30 42 H 4.5392 0.4365 2.8501 0
M  V30 43 H 5.7627 -0.8284 2.5079 0
M  V30 44 H 7.5742 0.7259 -1.7427 0
M  V30 45 H 6.857 3.007 -1.8567 0
M  V30 46 H 5.795 2.7856 -0.3441 0
M  V30 END ATOM
M  V30 BEGIN BOND
M  V30 1 2 1 2
M  V30 2 1 2 3
M  V30 3 1 2 4
M  V30 4 1 3 5
M  V30 5 2 4 6
M  V30 6 1 5 7
M  V30 7 1 7 8
M  V30 8 1 8 9
M  V30 9 1 9 10
M  V30 10 1 10 11
M  V30 11 1 11 12
M  V30 12 1 12 13
M  V30 13 1 13 14
M  V30 14 1 14 15
M  V30 15 1 15 16
M  V30 16 1 16 17
M  V30 17 2 17 18
M  V30 18 1 17 19
M  V30 19 2 19 20
M  V30 20 1 4 21
M  V30 21 1 5 22
M  V30 22 1 5 23
M  V30 23 1 6 24
M  V30 24 1 6 25
M  V30 25 1 7 26
M  V30 26 1 7 27
M  V30 27 1 8 28
M  V30 28 1 8 29
M  V30 29 1 9 30
M  V30 30 1 9 31
M  V30 31 1 10 32
M  V30 32 1 10 33
M  V30 33 1 11 34
M  V30 34 1 11 35
M  V30 35 1 12 36
M  V30 36 1 12 37
M  V30 37 1 13 38
M  V30 38 1 13 39
M  V30 39 1 14 40
M  V30 40 1 14 41
M  V30 41 1 15 42
M  V30 42 1 15 43
M  V30 43 1 19 44
M  V30 44 1 20 45
M  V30 45 1 20 46
M  V30 END BOND
M  V30 END CTAB
M  END
>  <Structure No>
569

>  <LogS>
-4.960875455

>  <MMFF94 Energy>
0.11532

$$$$
Compound 570
Actelion Java MolfileCreator 2.0

  0  0  0  0  0  0              0 V3000
M  V30 BEGIN CTAB
M  V30 COUNTS 54 57 0 0 0
M  V30 BEGIN ATOM
M  V30 1 O -2.9936 -3.3986 0.3233 0
M  V30 2 C -3.0463 -2.1791 0.3772 0
M  V30 3 C -3.1265 -1.4818 1.7038 0
M  V30 4 C -3.074 -1.3726 -0.8868 0
M  V30 5 C -2.0839 -0.3343 1.8007 0 CFG=2
M  V30 6 C -3.0339 0.135 -0.5663 0 CFG=1
M  V30 7 C -1.8558 0.493 0.4416 0 CFG=2
M  V30 8 C -0.7863 -0.9071 2.4203 0
M  V30 9 C -3.1626 0.9532 -1.8689 0
M  V30 10 C -0.4097 0.1528 -0.1225 0 CFG=2
M  V30 11 C -1.9544 2.0091 0.7928 0
M  V30 12 C 0.3584 0.094 2.3563 0
M  V30 13 C 0.7229 0.4832 0.8983 0 CFG=1
M  V30 14 C -0.0593 0.7436 -1.5186 0
M  V30 15 C 2.0621 -0.1871 0.4561 0 CFG=1
M  V30 16 C 1.4439 0.9984 -1.7393 0
M  V30 17 C 2.3626 -0.0659 -1.0746 0 CFG=1
M  V30 18 C 3.2691 0.4327 1.191 0
M  V30 19 C 3.8373 0.4256 -1.1599 0 CFG=1
M  V30 20 C 2.1804 -1.4231 -1.8053 0
M  V30 21 C 4.0963 1.1617 0.148 0
M  V30 22 O 4.7625 -0.6263 -1.3273 0
M  V30 23 H -4.1501 -1.0625 1.814 0
M  V30 24 H -3.003 -2.2136 2.5346 0
M  V30 25 H -4.0058 -1.6155 -1.4429 0
M  V30 26 H -2.2105 -1.6551 -1.525 0
M  V30 27 H -2.4985 0.3543 2.5728 0
M  V30 28 H -3.9813 0.3666 -0.0264 0
M  V30 29 H -0.4803 -1.8433 1.9034 0
M  V30 30 H -0.9705 -1.1687 3.4858 0
M  V30 31 H -3.0038 2.0363 -1.7067 0
M  V30 32 H -2.4929 0.5869 -2.6697 0
M  V30 33 H -4.1965 0.8444 -2.2638 0
M  V30 34 H -0.3874 -0.9503 -0.2547 0
M  V30 35 H -1.3059 2.2789 1.6474 0
M  V30 36 H -2.9939 2.2719 1.0828 0
M  V30 37 H -1.6602 2.6667 -0.0441 0
M  V30 38 H 0.0759 1.0002 2.9329 0
M  V30 39 H 1.2296 -0.3398 2.8919 0
M  V30 40 H 0.8751 1.5864 0.8878 0
M  V30 41 H -0.3926 0.0297 -2.3002 0
M  V30 42 H -0.5758 1.7038 -1.7005 0
M  V30 43 H 2.0107 -1.2643 0.7384 0
M  V30 44 H 1.643 1.0438 -2.8335 0
M  V30 45 H 1.6879 2.0048 -1.3343 0
M  V30 46 H 3.8833 -0.3772 1.6417 0
M  V30 47 H 2.9818 1.1309 2.0068 0
M  V30 48 H 3.9837 1.1276 -2.0108 0
M  V30 49 H 1.1254 -1.7597 -1.7875 0
M  V30 50 H 2.4968 -1.335 -2.8662 0
M  V30 51 H 2.7794 -2.2259 -1.3263 0
M  V30 52 H 3.7405 2.2126 0.0635 0
M  V30 53 H 5.1756 1.1709 0.4157 0
M  V30 54 H 4.7327 -1.2015 -0.5182 0
M  V30 END ATOM
M  V30 BEGIN BOND
M  V30 1 2 1 2
M  V30 2 1 2 3
M  V30 3 1 2 4
M  V30 4 1 3 5
M  V30 5 1 4 6
M  V30 6 1 5 7
M  V30 7 1 5 8
M  V30 8 1 6 9
M  V30 9 1 7 10
M  V30 10 1 7 11
M  V30 11 1 8 12
M  V30 12 1 10 13
M  V30 13 1 10 14
M  V30 14 1 13 15
M  V30 15 1 14 16
M  V30 16 1 15 17
M  V30 17 1 15 18
M  V30 18 1 17 19
M  V30 19 1 17 20
M  V30 20 1 18 21
M  V30 21 1 19 22
M  V30 22 1 6 7
M  V30 23 1 12 13
M  V30 24 1 16 17
M  V30 25 1 19 21
M  V30 26 1 3 23
M  V30 27 1 3 24
M  V30 28 1 4 25
M  V30 29 1 4 26
M  V30 30 1 5 27
M  V30 31 1 6 28
M  V30 32 1 8 29
M  V30 33 1 8 30
M  V30 34 1 9 31
M  V30 35 1 9 32
M  V30 36 1 9 33
M  V30 37 1 10 34
M  V30 38 1 11 35
M  V30 39 1 11 36
M  V30 40 1 11 37
M  V30 41 1 12 38
M  V30 42 1 12 39
M  V30 43 1 13 40
M  V30 44 1 14 41
M  V30 45 1 14 42
M  V30 46 1 15 43
M  V30 47 1 16 44
M  V30 48 1 16 45
M  V30 49 1 18 46
M  V30 50 1 18 47
M  V30 51 1 19 48
M  V30 52 1 20 49
M  V30 53 1 20 50
M  V30 54 1 20 51
M  V30 55 1 21 52
M  V30 56 1 21 53
M  V30 57 1 22 54
M  V30 END BOND
M  V30 BEGIN COLLECTION
M  V30 MDLV30/STEABS ATOMS=(8 5 6 7 10 13 15 17 19)
M  V30 END COLLECTION
M  V30 END CTAB
M  END
>  <Structure No>
570

>  <LogS>
-5.006428958

>  <MMFF94 Energy>
84.729

$$$$
Compound 571
Actelion Java MolfileCreator 2.0

  0  0  0  0  0  0              0 V3000
M  V30 BEGIN CTAB
M  V30 COUNTS 67 69 0 0 0
M  V30 BEGIN ATOM
M  V30 1 O 2.705 1.2722 -2.5458 0
M  V30 2 C 1.6654 1.1722 -1.8427 0
M  V30 3 N 0.4161 1.6043 -2.2774 0
M  V30 4 C 1.5402 0.4277 -0.5679 0 CFG=2
M  V30 5 C -0.5678 1.0313 -1.3743 0 CFG=2
M  V30 6 O 0.1411 0.4022 -0.303 0
M  V30 7 C 2.2161 1.1669 0.6076 0
M  V30 8 C 2.0327 -1.0347 -0.7222 0
M  V30 9 C -1.3761 -0.0415 -2.1676 0
M  V30 10 C -1.4935 2.1792 -0.8438 0
M  V30 11 C 3.7731 1.0718 0.6587 0
M  V30 12 C 3.4281 -1.3388 -0.0931 0
M  V30 13 C -2.0289 -1.1216 -1.2788 0
M  V30 14 C -1.5255 2.4144 0.688 0
M  V30 15 N 4.2939 -0.126 -0.0692 0 CHG=1
M  V30 16 C 4.2415 1.0667 2.1409 0
M  V30 17 C 4.3909 2.3555 0.04 0
M  V30 18 C 4.1279 -2.4182 -0.9577 0
M  V30 19 C 3.251 -1.9486 1.3202 0
M  V30 20 C -3.4757 -1.4403 -1.6861 0
M  V30 21 C -2.2545 1.3513 1.5357 0
M  V30 22 C -4.1279 -2.5177 -0.7953 0
M  V30 23 C -3.7195 1.1369 1.1152 0
M  V30 24 C -4.177 -2.1955 0.7151 0
M  V30 25 C -4.433 0.0545 1.9558 0
M  V30 26 C -5.1199 -1.0259 1.0889 0
M  V30 27 H 0.2175 2.0675 -3.1927 0
M  V30 28 H 1.7864 0.7479 1.5435 0
M  V30 29 H 1.8916 2.2315 0.6084 0
M  V30 30 H 2.0263 -1.3049 -1.8031 0
M  V30 31 H 1.2782 -1.7222 -0.2769 0
M  V30 32 H -0.6899 -0.5657 -2.8697 0
M  V30 33 H -2.1307 0.4612 -2.8119 0
M  V30 34 H -2.5239 2.0871 -1.2389 0
M  V30 35 H -1.1448 3.1411 -1.2816 0
M  V30 36 H -1.4193 -2.0509 -1.32 0
M  V30 37 H -2.0258 -0.7871 -0.2372 0
M  V30 38 H -0.4877 2.5254 1.0655 0
M  V30 39 H -2.0264 3.3905 0.8708 0
M  V30 40 H 4.4734 0.1394 -1.0662 0
M  V30 41 H 5.2343 -0.3847 0.3137 0
M  V30 42 H 3.911 1.9953 2.6556 0
M  V30 43 H 3.8321 0.2223 2.7214 0
M  V30 44 H 5.3499 1.0167 2.2049 0
M  V30 45 H 4.0813 3.2617 0.6051 0
M  V30 46 H 5.5006 2.2977 0.0606 0
M  V30 47 H 4.0849 2.5025 -1.0105 0
M  V30 48 H 5.1052 -2.7041 -0.5119 0
M  V30 49 H 3.4989 -3.3313 -1.0396 0
M  V30 50 H 4.3176 -2.0391 -1.985 0
M  V30 51 H 2.8441 -2.9811 1.255 0
M  V30 52 H 4.2248 -2.0013 1.852 0
M  V30 53 H 2.5239 -1.3767 1.9277 0
M  V30 54 H -3.472 -1.8143 -2.733 0
M  V30 55 H -4.0943 -0.5205 -1.6785 0
M  V30 56 H -2.247 1.6992 2.5917 0
M  V30 57 H -1.6892 0.4002 1.528 0
M  V30 58 H -3.5667 -3.4679 -0.9298 0
M  V30 59 H -5.1627 -2.7009 -1.158 0
M  V30 60 H -4.2667 2.0997 1.2187 0
M  V30 61 H -3.7628 0.8664 0.0495 0
M  V30 62 H -4.5494 -3.1088 1.2293 0
M  V30 63 H -3.1544 -2.0516 1.1174 0
M  V30 64 H -5.2165 0.5563 2.5656 0
M  V30 65 H -3.7427 -0.4234 2.6854 0
M  V30 66 H -5.9662 -1.4436 1.6779 0
M  V30 67 H -5.586 -0.5653 0.1913 0
M  V30 END ATOM
M  V30 BEGIN BOND
M  V30 1 2 1 2
M  V30 2 1 2 3
M  V30 3 1 2 4
M  V30 4 1 3 5
M  V30 5 1 4 6
M  V30 6 1 4 7
M  V30 7 1 4 8
M  V30 8 1 5 9
M  V30 9 1 5 10
M  V30 10 1 7 11
M  V30 11 1 8 12
M  V30 12 1 9 13
M  V30 13 1 10 14
M  V30 14 1 11 15
M  V30 15 1 11 16
M  V30 16 1 11 17
M  V30 17 1 12 18
M  V30 18 1 12 19
M  V30 19 1 13 20
M  V30 20 1 14 21
M  V30 21 1 20 22
M  V30 22 1 21 23
M  V30 23 1 22 24
M  V30 24 1 23 25
M  V30 25 1 24 26
M  V30 26 1 5 6
M  V30 27 1 12 15
M  V30 28 1 25 26
M  V30 29 1 3 27
M  V30 30 1 7 28
M  V30 31 1 7 29
M  V30 32 1 8 30
M  V30 33 1 8 31
M  V30 34 1 9 32
M  V30 35 1 9 33
M  V30 36 1 10 34
M  V30 37 1 10 35
M  V30 38 1 13 36
M  V30 39 1 13 37
M  V30 40 1 14 38
M  V30 41 1 14 39
M  V30 42 1 15 40
M  V30 43 1 15 41
M  V30 44 1 16 42
M  V30 45 1 16 43
M  V30 46 1 16 44
M  V30 47 1 17 45
M  V30 48 1 17 46
M  V30 49 1 17 47
M  V30 50 1 18 48
M  V30 51 1 18 49
M  V30 52 1 18 50
M  V30 53 1 19 51
M  V30 54 1 19 52
M  V30 55 1 19 53
M  V30 56 1 20 54
M  V30 57 1 20 55
M  V30 58 1 21 56
M  V30 59 1 21 57
M  V30 60 1 22 58
M  V30 61 1 22 59
M  V30 62 1 23 60
M  V30 63 1 23 61
M  V30 64 1 24 62
M  V30 65 1 24 63
M  V30 66 1 25 64
M  V30 67 1 25 65
M  V30 68 1 26 66
M  V30 69 1 26 67
M  V30 END BOND
M  V30 BEGIN COLLECTION
M  V30 MDLV30/STEABS ATOMS=(2 4 5)
M  V30 END COLLECTION
M  V30 END CTAB
M  END
>  <Structure No>
571

>  <LogS>
-5.084664439

>  <MMFF94 Energy>
27.493

$$$$
Compound 572
Actelion Java MolfileCreator 2.0

  0  0  0  0  0  0              0 V3000
M  V30 BEGIN CTAB
M  V30 COUNTS 43 43 0 0 0
M  V30 BEGIN ATOM
M  V30 1 O -1.8857 1.8857 2.2003 0
M  V30 2 C -0.9319 1.0739 1.5909 0
M  V30 3 C -0.9909 0.7413 0.2072 0
M  V30 4 C 0.1106 0.5846 2.3855 0
M  V30 5 C 0.058 -0.0545 -0.3148 0
M  V30 6 C -2.1016 1.2115 -0.7765 0
M  V30 7 C 1.1142 -0.2127 1.8476 0
M  V30 8 C 1.1177 -0.5396 0.4796 0
M  V30 9 C -2.7249 -0.0051 -1.5372 0
M  V30 10 C -3.2598 2.0071 -0.1216 0
M  V30 11 C -1.4539 2.155 -1.8172 0
M  V30 12 C 2.2175 -1.4138 -0.1653 0
M  V30 13 C -3.272 -1.1077 -0.6228 0
M  V30 14 C 2.8753 -0.6816 -1.3774 0
M  V30 15 C 3.3317 -1.8268 0.8322 0
M  V30 16 C 1.5657 -2.719 -0.6763 0
M  V30 17 C 3.452 0.6996 -1.0451 0
M  V30 18 H -1.8425 2.1227 3.1849 0
M  V30 19 H 0.1467 0.8293 3.44 0
M  V30 20 H 0.0535 -0.3031 -1.3635 0
M  V30 21 H 1.883 -0.5576 2.5222 0
M  V30 22 H -3.554 0.3434 -2.1924 0
M  V30 23 H -1.9838 -0.4656 -2.2232 0
M  V30 24 H -2.9012 2.9783 0.2823 0
M  V30 25 H -4.0432 2.2503 -0.872 0
M  V30 26 H -3.7511 1.4265 0.6859 0
M  V30 27 H -0.6779 1.6352 -2.4171 0
M  V30 28 H -2.2158 2.5449 -2.5271 0
M  V30 29 H -0.9741 3.0206 -1.3105 0
M  V30 30 H -3.6567 -1.9418 -1.2466 0
M  V30 31 H -4.1106 -0.7322 -0.0023 0
M  V30 32 H -2.4756 -1.5114 0.0361 0
M  V30 33 H 3.6944 -1.3081 -1.7944 0
M  V30 34 H 2.1409 -0.5557 -2.2011 0
M  V30 35 H 2.9192 -2.4641 1.6443 0
M  V30 36 H 3.8161 -0.9411 1.2926 0
M  V30 37 H 4.1223 -2.4155 0.3183 0
M  V30 38 H 1.0589 -3.253 0.1568 0
M  V30 39 H 2.3307 -3.398 -1.1117 0
M  V30 40 H 0.8108 -2.5173 -1.4652 0
M  V30 41 H 3.8482 1.1626 -1.9733 0
M  V30 42 H 2.6693 1.3707 -0.6341 0
M  V30 43 H 4.2885 0.619 -0.3219 0
M  V30 END ATOM
M  V30 BEGIN BOND
M  V30 1 1 1 2
M  V30 2 2 2 3
M  V30 3 1 2 4
M  V30 4 1 3 5
M  V30 5 1 3 6
M  V30 6 2 4 7
M  V30 7 2 5 8
M  V30 8 1 6 9
M  V30 9 1 6 10
M  V30 10 1 6 11
M  V30 11 1 8 12
M  V30 12 1 9 13
M  V30 13 1 12 14
M  V30 14 1 12 15
M  V30 15 1 12 16
M  V30 16 1 14 17
M  V30 17 1 7 8
M  V30 18 1 1 18
M  V30 19 1 4 19
M  V30 20 1 5 20
M  V30 21 1 7 21
M  V30 22 1 9 22
M  V30 23 1 9 23
M  V30 24 1 10 24
M  V30 25 1 10 25
M  V30 26 1 10 26
M  V30 27 1 11 27
M  V30 28 1 11 28
M  V30 29 1 11 29
M  V30 30 1 13 30
M  V30 31 1 13 31
M  V30 32 1 13 32
M  V30 33 1 14 33
M  V30 34 1 14 34
M  V30 35 1 15 35
M  V30 36 1 15 36
M  V30 37 1 15 37
M  V30 38 1 16 38
M  V30 39 1 16 39
M  V30 40 1 16 40
M  V30 41 1 17 41
M  V30 42 1 17 42
M  V30 43 1 17 43
M  V30 END BOND
M  V30 END CTAB
M  END
>  <Structure No>
572

>  <LogS>
-4.892804854

>  <MMFF94 Energy>
50.586

$$$$
Compound 573
Actelion Java MolfileCreator 2.0

  0  0  0  0  0  0              0 V3000
M  V30 BEGIN CTAB
M  V30 COUNTS 21 20 0 0 0
M  V30 BEGIN ATOM
M  V30 1 Cl 4.9667 1.9017 -1.0745 0
M  V30 2 C 4.2722 0.5939 -0.1418 0
M  V30 3 O 4.9647 0.0271 0.7453 0
M  V30 4 O 2.9576 0.1948 -0.3922 0
M  V30 5 C 2.3259 -0.8596 0.3272 0
M  V30 6 C 0.9018 -1.0476 -0.1781 0
M  V30 7 O 0.1666 0.1368 0.0458 0
M  V30 8 C -1.1516 -0.0298 -0.4305 0
M  V30 9 C -1.9353 1.2571 -0.1875 0
M  V30 10 O -3.2567 1.1499 -0.714 0
M  V30 11 C -4.278 0.4278 -0.0886 0
M  V30 12 Cl -5.8467 0.3185 -0.8562 0
M  V30 13 O -4.0896 -0.1381 1.0212 0
M  V30 14 H 2.8939 -1.8038 0.1801 0
M  V30 15 H 2.3053 -0.6159 1.4121 0
M  V30 16 H 0.9441 -1.2912 -1.2646 0
M  V30 17 H 0.4484 -1.9023 0.374 0
M  V30 18 H -1.6585 -0.8645 0.1042 0
M  V30 19 H -1.1515 -0.2369 -1.5252 0
M  V30 20 H -1.4192 2.0948 -0.7031 0
M  V30 21 H -1.9705 1.4919 0.8988 0
M  V30 END ATOM
M  V30 BEGIN BOND
M  V30 1 1 1 2
M  V30 2 2 2 3
M  V30 3 1 2 4
M  V30 4 1 4 5
M  V30 5 1 5 6
M  V30 6 1 6 7
M  V30 7 1 7 8
M  V30 8 1 8 9
M  V30 9 1 9 10
M  V30 10 1 10 11
M  V30 11 1 11 12
M  V30 12 2 11 13
M  V30 13 1 5 14
M  V30 14 1 5 15
M  V30 15 1 6 16
M  V30 16 1 6 17
M  V30 17 1 8 18
M  V30 18 1 8 19
M  V30 19 1 9 20
M  V30 20 1 9 21
M  V30 END BOND
M  V30 END CTAB
M  END
>  <Structure No>
573

>  <LogS>
-4.886549003

>  <MMFF94 Energy>
8.338

$$$$
Compound 574
Actelion Java MolfileCreator 2.0

  0  0  0  0  0  0              0 V3000
M  V30 BEGIN CTAB
M  V30 COUNTS 27 28 0 0 0
M  V30 BEGIN ATOM
M  V30 1 O -0.4752 1.1091 0.5544 0
M  V30 2 C 0.5276 0.1332 0.4589 0
M  V30 3 C -1.8161 0.9369 0.1806 0
M  V30 4 C 1.8493 0.546 0.25 0
M  V30 5 C 0.2492 -1.2366 0.6125 0
M  V30 6 C -2.8015 1.6732 0.8508 0
M  V30 7 C -2.1918 0.086 -0.876 0
M  V30 8 C 2.8881 -0.3952 0.1709 0
M  V30 9 C 1.2774 -2.1777 0.5192 0
M  V30 10 C -4.1477 1.5403 0.496 0
M  V30 11 C -3.5387 -0.0446 -1.2288 0
M  V30 12 C 2.5911 -1.7614 0.2895 0
M  V30 13 C 4.2977 0.0518 -0.1023 0
M  V30 14 C -4.5165 0.679 -0.5407 0
M  V30 15 O 4.5568 0.011 -1.4785 0
M  V30 16 H 2.0639 1.6023 0.1412 0
M  V30 17 H -0.7574 -1.5758 0.8188 0
M  V30 18 H -2.523 2.3443 1.6534 0
M  V30 19 H -1.4452 -0.4591 -1.438 0
M  V30 20 H 1.0564 -3.2315 0.6289 0
M  V30 21 H -4.9044 2.1063 1.0236 0
M  V30 22 H -3.8237 -0.7014 -2.0405 0
M  V30 23 H 3.377 -2.5023 0.2117 0
M  V30 24 H 4.4722 1.0775 0.2961 0
M  V30 25 H 5.0131 -0.6215 0.4159 0
M  V30 26 H -5.5585 0.578 -0.8158 0
M  V30 27 H 4.1041 0.8004 -1.8759 0
M  V30 END ATOM
M  V30 BEGIN BOND
M  V30 1 1 1 2
M  V30 2 1 1 3
M  V30 3 2 2 4
M  V30 4 1 2 5
M  V30 5 2 3 6
M  V30 6 1 3 7
M  V30 7 1 4 8
M  V30 8 2 5 9
M  V30 9 1 6 10
M  V30 10 2 7 11
M  V30 11 2 8 12
M  V30 12 1 8 13
M  V30 13 2 10 14
M  V30 14 1 13 15
M  V30 15 1 9 12
M  V30 16 1 11 14
M  V30 17 1 4 16
M  V30 18 1 5 17
M  V30 19 1 6 18
M  V30 20 1 7 19
M  V30 21 1 9 20
M  V30 22 1 10 21
M  V30 23 1 11 22
M  V30 24 1 12 23
M  V30 25 1 13 24
M  V30 26 1 13 25
M  V30 27 1 14 26
M  V30 28 1 15 27
M  V30 END BOND
M  V30 END CTAB
M  END
>  <Structure No>
574

>  <LogS>
-2.825873142

>  <MMFF94 Energy>
44.646

$$$$
Compound 575
Actelion Java MolfileCreator 2.0

  0  0  0  0  0  0              0 V3000
M  V30 BEGIN CTAB
M  V30 COUNTS 37 37 0 0 0
M  V30 BEGIN ATOM
M  V30 1 O -0.7085 -3.3889 1.4175 0
M  V30 2 C -0.35 -2.7008 0.4242 0
M  V30 3 N -1.3348 -2.0121 -0.3688 0
M  V30 4 C 1.1229 -2.5326 0.1215 0
M  V30 5 C -2.6154 -1.5572 0.1919 0
M  V30 6 C 1.4672 -1.0488 0.2406 0
M  V30 7 C -3.1925 -0.3432 -0.5835 0
M  V30 8 C 2.8772 -0.6322 -0.1654 0
M  V30 9 C -2.6413 1.0367 -0.1405 0
M  V30 10 C 3.1113 0.8871 0.0567 0
M  V30 11 C -1.1142 1.0718 -0.1742 0
M  V30 12 C 2.0048 1.8284 -0.5107 0
M  V30 13 C -0.4712 2.4438 0.0781 0
M  V30 14 C 0.9922 2.3048 0.57 0
M  V30 15 H -1.0654 -1.7171 -1.3344 0
M  V30 16 H 1.3294 -2.8925 -0.9092 0
M  V30 17 H 1.7373 -3.1202 0.8377 0
M  V30 18 H -3.3377 -2.3996 0.1402 0
M  V30 19 H -2.4919 -1.2862 1.2634 0
M  V30 20 H 0.8214 -0.5545 -0.4863 0
M  V30 21 H 1.2553 -0.7045 1.2764 0
M  V30 22 H -3.0312 -0.4776 -1.6753 0
M  V30 23 H -4.2931 -0.3263 -0.4279 0
M  V30 24 H 3.0377 -0.8749 -1.239 0
M  V30 25 H 3.6191 -1.2049 0.4318 0
M  V30 26 H -3.0436 1.8181 -0.8212 0
M  V30 27 H -2.9943 1.2623 0.8897 0
M  V30 28 H 3.2623 1.0807 1.1413 0
M  V30 29 H 4.0742 1.1451 -0.4354 0
M  V30 30 H -0.7865 0.3928 0.6362 0
M  V30 31 H -0.7876 0.7158 -1.1738 0
M  V30 32 H 1.5001 1.3597 -1.3803 0
M  V30 33 H 2.4999 2.7343 -0.9245 0
M  V30 34 H -1.0491 2.9748 0.866 0
M  V30 35 H -0.5086 3.0597 -0.8464 0
M  V30 36 H 1.3264 3.2973 0.9437 0
M  V30 37 H 1.0067 1.6341 1.455 0
M  V30 END ATOM
M  V30 BEGIN BOND
M  V30 1 2 1 2
M  V30 2 1 2 3
M  V30 3 1 2 4
M  V30 4 1 3 5
M  V30 5 1 4 6
M  V30 6 1 5 7
M  V30 7 1 6 8
M  V30 8 1 7 9
M  V30 9 1 8 10
M  V30 10 1 9 11
M  V30 11 1 10 12
M  V30 12 1 11 13
M  V30 13 1 12 14
M  V30 14 1 13 14
M  V30 15 1 3 15
M  V30 16 1 4 16
M  V30 17 1 4 17
M  V30 18 1 5 18
M  V30 19 1 5 19
M  V30 20 1 6 20
M  V30 21 1 6 21
M  V30 22 1 7 22
M  V30 23 1 7 23
M  V30 24 1 8 24
M  V30 25 1 8 25
M  V30 26 1 9 26
M  V30 27 1 9 27
M  V30 28 1 10 28
M  V30 29 1 10 29
M  V30 30 1 11 30
M  V30 31 1 11 31
M  V30 32 1 12 32
M  V30 33 1 12 33
M  V30 34 1 13 34
M  V30 35 1 13 35
M  V30 36 1 14 36
M  V30 37 1 14 37
M  V30 END BOND
M  V30 END CTAB
M  END
>  <Structure No>
575

>  <LogS>
-2.81950432

>  <MMFF94 Energy>
-8.8234

$$$$
Compound 576
Actelion Java MolfileCreator 2.0

  0  0  0  0  0  0              0 V3000
M  V30 BEGIN CTAB
M  V30 COUNTS 22 22 0 0 0
M  V30 BEGIN ATOM
M  V30 1 O 0.6295 2.4411 1.5744 0
M  V30 2 C 1.3206 1.7503 0.775 0
M  V30 3 O 2.6183 2.1457 0.4391 0
M  V30 4 C 0.7779 0.5165 0.1825 0
M  V30 5 C 3.2218 3.3219 0.9647 0
M  V30 6 C -0.4658 0.0855 0.4381 0
M  V30 7 C -1.049 -1.1457 -0.1497 0
M  V30 8 C -2.4482 -1.2826 -0.1731 0
M  V30 9 C -0.2546 -2.1974 -0.6523 0
M  V30 10 C -3.0415 -2.4296 -0.7088 0
M  V30 11 C -0.8541 -3.3428 -1.1862 0
M  V30 12 C -2.2454 -3.4574 -1.2175 0
M  V30 13 H 1.4208 -0.0238 -0.4976 0
M  V30 14 H 3.2835 3.2556 2.0716 0
M  V30 15 H 4.2469 3.4209 0.5527 0
M  V30 16 H 2.6293 4.2155 0.6745 0
M  V30 17 H -1.1066 0.6828 1.0768 0
M  V30 18 H -3.0834 -0.4963 0.2164 0
M  V30 19 H 0.8247 -2.156 -0.6159 0
M  V30 20 H -4.1199 -2.5217 -0.728 0
M  V30 21 H -0.2381 -4.146 -1.5694 0
M  V30 22 H -2.7063 -4.3456 -1.6303 0
M  V30 END ATOM
M  V30 BEGIN BOND
M  V30 1 2 1 2
M  V30 2 1 2 3
M  V30 3 1 2 4
M  V30 4 1 3 5
M  V30 5 2 4 6
M  V30 6 1 6 7
M  V30 7 2 7 8
M  V30 8 1 7 9
M  V30 9 1 8 10
M  V30 10 2 9 11
M  V30 11 2 10 12
M  V30 12 1 11 12
M  V30 13 1 4 13
M  V30 14 1 5 14
M  V30 15 1 5 15
M  V30 16 1 5 16
M  V30 17 1 6 17
M  V30 18 1 8 18
M  V30 19 1 9 19
M  V30 20 1 10 20
M  V30 21 1 11 21
M  V30 22 1 12 22
M  V30 END BOND
M  V30 END CTAB
M  END
>  <Structure No>
576

>  <LogS>
-2.73434753

>  <MMFF94 Energy>
10.81

$$$$
Compound 577
Actelion Java MolfileCreator 2.0

  0  0  0  0  0  0              0 V3000
M  V30 BEGIN CTAB
M  V30 COUNTS 27 27 0 0 0
M  V30 BEGIN ATOM
M  V30 1 S 2.0455 -1.718 -1.8818 0
M  V30 2 C 0.9071 -0.7724 -0.8555 0
M  V30 3 C 3.3974 -1.6417 -0.6661 0
M  V30 4 C 0.8329 0.6343 -0.9233 0
M  V30 5 C 0.0949 -1.4739 0.0335 0
M  V30 6 N 1.7158 1.3557 -1.8 0
M  V30 7 C -0.0985 1.3251 -0.1032 0
M  V30 8 C -0.7718 -0.8027 0.8941 0
M  V30 9 C -0.8583 0.6045 0.8564 0
M  V30 10 C -0.2873 2.8178 -0.2573 0
M  V30 11 S -1.7253 -1.7856 2.0633 0
M  V30 12 N -1.6944 1.296 1.8008 0
M  V30 13 C -3.1298 -1.9965 0.9257 0
M  V30 14 H 4.2794 -2.1786 -1.0707 0
M  V30 15 H 3.0846 -2.1263 0.2823 0
M  V30 16 H 3.677 -0.5851 -0.4722 0
M  V30 17 H 0.1596 -2.5543 0.0768 0
M  V30 18 H 2.2409 0.8802 -2.5652 0
M  V30 19 H 1.9349 2.3643 -1.6488 0
M  V30 20 H -1.3305 3.12 -0.0322 0
M  V30 21 H 0.4119 3.3572 0.4148 0
M  V30 22 H -0.1231 3.1413 -1.3053 0
M  V30 23 H -1.5481 2.3037 2.0275 0
M  V30 24 H -2.4189 0.7993 2.3628 0
M  V30 25 H -3.9156 -2.5972 1.4276 0
M  V30 26 H -2.8005 -2.5283 0.0089 0
M  V30 27 H -3.5524 -1.0069 0.6531 0
M  V30 END ATOM
M  V30 BEGIN BOND
M  V30 1 1 1 2
M  V30 2 1 1 3
M  V30 3 2 2 4
M  V30 4 1 2 5
M  V30 5 1 4 6
M  V30 6 1 4 7
M  V30 7 2 5 8
M  V30 8 2 7 9
M  V30 9 1 7 10
M  V30 10 1 8 11
M  V30 11 1 9 12
M  V30 12 1 11 13
M  V30 13 1 8 9
M  V30 14 1 3 14
M  V30 15 1 3 15
M  V30 16 1 3 16
M  V30 17 1 5 17
M  V30 18 1 6 18
M  V30 19 1 6 19
M  V30 20 1 10 20
M  V30 21 1 10 21
M  V30 22 1 10 22
M  V30 23 1 12 23
M  V30 24 1 12 24
M  V30 25 1 13 25
M  V30 26 1 13 26
M  V30 27 1 13 27
M  V30 END BOND
M  V30 END CTAB
M  END
>  <Structure No>
577

>  <LogS>
-2.856925458

>  <MMFF94 Energy>
41.686

$$$$
Compound 578
Actelion Java MolfileCreator 2.0

  0  0  0  0  0  0              0 V3000
M  V30 BEGIN CTAB
M  V30 COUNTS 27 27 0 0 0
M  V30 BEGIN ATOM
M  V30 1 O -1.8006 -0.626 1.879 0
M  V30 2 C -1.1809 -0.1963 0.6944 0
M  V30 3 C -1.1186 -1.2157 2.9811 0
M  V30 4 C -1.984 0.3707 -0.3062 0
M  V30 5 C 0.2074 -0.3225 0.4877 0
M  V30 6 O -3.3631 0.4863 -0.0695 0
M  V30 7 C -1.3944 0.8004 -1.5083 0
M  V30 8 C 0.7991 0.1241 -0.7095 0
M  V30 9 C -4.2963 1.0389 -0.9921 0
M  V30 10 C -0.0192 0.6722 -1.7066 0
M  V30 11 C 2.254 0.0034 -0.9745 0
M  V30 12 C 3.1804 -0.1099 -0.0154 0
M  V30 13 C 4.631 -0.2114 -0.3627 0
M  V30 14 H -0.3651 -0.5083 3.387 0
M  V30 15 H -1.8531 -1.4481 3.7791 0
M  V30 16 H -0.6274 -2.1601 2.6652 0
M  V30 17 H 0.8157 -0.7893 1.2469 0
M  V30 18 H -1.9909 1.2359 -2.2981 0
M  V30 19 H -4.3024 0.4457 -1.9308 0
M  V30 20 H -5.3109 1.006 -0.545 0
M  V30 21 H -4.038 2.0969 -1.2092 0
M  V30 22 H 0.4093 1.0121 -2.6417 0
M  V30 23 H 2.5849 0.0538 -2.0062 0
M  V30 24 H 2.9103 -0.1035 1.0315 0
M  V30 25 H 4.8103 -1.1181 -0.9781 0
M  V30 26 H 5.2354 -0.2832 0.5656 0
M  V30 27 H 4.9499 0.689 -0.9289 0
M  V30 END ATOM
M  V30 BEGIN BOND
M  V30 1 1 1 2
M  V30 2 1 1 3
M  V30 3 2 2 4
M  V30 4 1 2 5
M  V30 5 1 4 6
M  V30 6 1 4 7
M  V30 7 2 5 8
M  V30 8 1 6 9
M  V30 9 2 7 10
M  V30 10 1 8 11
M  V30 11 2 11 12
M  V30 12 1 12 13
M  V30 13 1 8 10
M  V30 14 1 3 14
M  V30 15 1 3 15
M  V30 16 1 3 16
M  V30 17 1 5 17
M  V30 18 1 7 18
M  V30 19 1 9 19
M  V30 20 1 9 20
M  V30 21 1 9 21
M  V30 22 1 10 22
M  V30 23 1 11 23
M  V30 24 1 12 24
M  V30 25 1 13 25
M  V30 26 1 13 26
M  V30 27 1 13 27
M  V30 END BOND
M  V30 END CTAB
M  END
>  <Structure No>
578

>  <LogS>
-2.778226795

>  <MMFF94 Energy>
43.056

$$$$
Compound 579
Actelion Java MolfileCreator 2.0

  0  0  0  0  0  0              0 V3000
M  V30 BEGIN CTAB
M  V30 COUNTS 21 22 0 0 0
M  V30 BEGIN ATOM
M  V30 1 O -1.1136 -0.3976 -2.786 0
M  V30 2 C -1.3516 0.088 -1.4996 0
M  V30 3 C -0.3805 -0.0122 -0.4854 0
M  V30 4 C -2.5855 0.6866 -1.2191 0
M  V30 5 N 0.8261 -0.5905 -0.736 0
M  V30 6 C -0.6588 0.4919 0.8064 0
M  V30 7 C -2.8582 1.1841 0.0586 0
M  V30 8 C 1.787 -0.7034 0.2214 0
M  V30 9 C 0.319 0.3836 1.8032 0
M  V30 10 C -1.8998 1.0886 1.0708 0
M  V30 11 C 1.5456 -0.2153 1.5119 0
M  V30 12 C 3.0951 -1.3481 -0.1094 0
M  V30 13 H -0.2397 -0.8395 -3.0444 0
M  V30 14 H -3.3363 0.7665 -1.9952 0
M  V30 15 H -3.8158 1.6452 0.2646 0
M  V30 16 H 0.1354 0.7603 2.8025 0
M  V30 17 H -2.1272 1.4792 2.0556 0
M  V30 18 H 2.3012 -0.2984 2.2835 0
M  V30 19 H 3.2501 -2.2361 0.5388 0
M  V30 20 H 3.1122 -1.6741 -1.1711 0
M  V30 21 H 3.9217 -0.6253 0.0551 0
M  V30 END ATOM
M  V30 BEGIN BOND
M  V30 1 1 1 2
M  V30 2 1 2 3
M  V30 3 2 2 4
M  V30 4 2 3 5
M  V30 5 1 3 6
M  V30 6 1 4 7
M  V30 7 1 5 8
M  V30 8 2 6 9
M  V30 9 1 6 10
M  V30 10 2 8 11
M  V30 11 1 8 12
M  V30 12 2 7 10
M  V30 13 1 9 11
M  V30 14 1 1 13
M  V30 15 1 4 14
M  V30 16 1 7 15
M  V30 17 1 9 16
M  V30 18 1 10 17
M  V30 19 1 11 18
M  V30 20 1 12 19
M  V30 21 1 12 20
M  V30 22 1 12 21
M  V30 END BOND
M  V30 END CTAB
M  END
>  <Structure No>
579

>  <LogS>
-1.730618615

>  <MMFF94 Energy>
55.222

$$$$
Compound 580
Actelion Java MolfileCreator 2.0

  0  0  0  0  0  0              0 V3000
M  V30 BEGIN CTAB
M  V30 COUNTS 51 50 0 0 0
M  V30 BEGIN ATOM
M  V30 1 O -5.8146 -1.3334 -0.9411 0
M  V30 2 C -6.3892 -0.5822 -0.1049 0
M  V30 3 O -6.3488 0.8093 -0.2517 0
M  V30 4 C -7.1177 -1.1545 1.0376 0
M  V30 5 C -5.6344 1.4762 -1.2933 0
M  V30 6 C -7.2039 -2.4672 1.2486 0
M  V30 7 C -4.237 1.8984 -0.8265 0
M  V30 8 C -3.3377 0.7066 -0.4999 0
M  V30 9 O -2.0257 1.1709 -0.2654 0
M  V30 10 C -1.2046 0.0951 0.1457 0
M  V30 11 C 0.2767 0.5421 0.2203 0
M  V30 12 C 1.1357 -0.6563 0.6953 0
M  V30 13 C 0.4202 1.71 1.2196 0
M  V30 14 C 0.7499 0.9998 -1.1773 0
M  V30 15 O 2.5047 -0.2993 0.7226 0
M  V30 16 C 3.3142 -1.427 0.9948 0
M  V30 17 C 3.7589 -2.1229 -0.2999 0
M  V30 18 C 4.4353 -1.1728 -1.2939 0
M  V30 19 O 5.6546 -0.66 -0.7587 0
M  V30 20 C 5.7871 0.6206 -0.205 0
M  V30 21 O 4.807 1.4143 -0.1752 0
M  V30 22 C 7.0787 1.0622 0.34 0
M  V30 23 C 8.1391 0.2616 0.3912 0
M  V30 24 H -7.6007 -0.4804 1.7329 0
M  V30 25 H -5.5739 0.8489 -2.2096 0
M  V30 26 H -6.1985 2.3942 -1.5644 0
M  V30 27 H -6.7364 -3.1795 0.5808 0
M  V30 28 H -7.7508 -2.8425 2.1035 0
M  V30 29 H -4.3275 2.5512 0.0694 0
M  V30 30 H -3.7635 2.4943 -1.6369 0
M  V30 31 H -3.3439 0.0063 -1.3639 0
M  V30 32 H -3.7397 0.1952 0.4029 0
M  V30 33 H -1.5287 -0.2605 1.151 0
M  V30 34 H -1.2818 -0.7582 -0.5685 0
M  V30 35 H 0.8061 -0.9573 1.7168 0
M  V30 36 H 0.9636 -1.5153 0.0062 0
M  V30 37 H -0.1762 2.5876 0.8914 0
M  V30 38 H 1.4805 2.0322 1.3018 0
M  V30 39 H 0.0682 1.4071 2.2288 0
M  V30 40 H 0.1313 1.8454 -1.5468 0
M  V30 41 H 0.6763 0.1657 -1.9084 0
M  V30 42 H 1.806 1.3444 -1.1467 0
M  V30 43 H 2.8208 -2.1639 1.6725 0
M  V30 44 H 4.2176 -1.0775 1.5372 0
M  V30 45 H 4.4667 -2.9414 -0.0444 0
M  V30 46 H 2.8795 -2.5884 -0.7918 0
M  V30 47 H 3.7448 -0.3565 -1.5985 0
M  V30 48 H 4.6795 -1.747 -2.212 0
M  V30 49 H 7.1673 2.0718 0.7245 0
M  V30 50 H 8.0958 -0.7569 0.0273 0
M  V30 51 H 9.0715 0.6254 0.803 0
M  V30 END ATOM
M  V30 BEGIN BOND
M  V30 1 2 1 2
M  V30 2 1 2 3
M  V30 3 1 2 4
M  V30 4 1 3 5
M  V30 5 2 4 6
M  V30 6 1 5 7
M  V30 7 1 7 8
M  V30 8 1 8 9
M  V30 9 1 9 10
M  V30 10 1 10 11
M  V30 11 1 11 12
M  V30 12 1 11 13
M  V30 13 1 11 14
M  V30 14 1 12 15
M  V30 15 1 15 16
M  V30 16 1 16 17
M  V30 17 1 17 18
M  V30 18 1 18 19
M  V30 19 1 19 20
M  V30 20 2 20 21
M  V30 21 1 20 22
M  V30 22 2 22 23
M  V30 23 1 4 24
M  V30 24 1 5 25
M  V30 25 1 5 26
M  V30 26 1 6 27
M  V30 27 1 6 28
M  V30 28 1 7 29
M  V30 29 1 7 30
M  V30 30 1 8 31
M  V30 31 1 8 32
M  V30 32 1 10 33
M  V30 33 1 10 34
M  V30 34 1 12 35
M  V30 35 1 12 36
M  V30 36 1 13 37
M  V30 37 1 13 38
M  V30 38 1 13 39
M  V30 39 1 14 40
M  V30 40 1 14 41
M  V30 41 1 14 42
M  V30 42 1 16 43
M  V30 43 1 16 44
M  V30 44 1 17 45
M  V30 45 1 17 46
M  V30 46 1 18 47
M  V30 47 1 18 48
M  V30 48 1 22 49
M  V30 49 1 23 50
M  V30 50 1 23 51
M  V30 END BOND
M  V30 END CTAB
M  END
>  <Structure No>
580

>  <LogS>
-3.04954214

>  <MMFF94 Energy>
17.731

$$$$
Compound 581
Actelion Java MolfileCreator 2.0

  0  0  0  0  0  0              0 V3000
M  V30 BEGIN CTAB
M  V30 COUNTS 20 19 0 0 0
M  V30 BEGIN ATOM
M  V30 1 O 4.4166 0.3868 0.1547 0
M  V30 2 C 3.62 0.3409 -0.8207 0
M  V30 3 O 2.3079 -0.1093 -0.659 0
M  V30 4 C 1.7932 -0.5385 0.5985 0
M  V30 5 C 0.3339 -0.9701 0.4504 0
M  V30 6 C -0.5696 0.2079 0.063 0
M  V30 7 C -2.0312 -0.2382 -0.058 0
M  V30 8 C -2.9343 0.9296 -0.4443 0
M  V30 9 H 3.9567 0.6551 -1.7988 0
M  V30 10 H 2.389 -1.4029 0.9643 0
M  V30 11 H 1.871 0.2854 1.3416 0
M  V30 12 H 0.267 -1.7672 -0.3222 0
M  V30 13 H -0.0096 -1.3954 1.4188 0
M  V30 14 H -0.4911 1.0025 0.8376 0
M  V30 15 H -0.2338 0.6286 -0.9101 0
M  V30 16 H -2.3782 -0.6547 0.9128 0
M  V30 17 H -2.1182 -1.0312 -0.8326 0
M  V30 18 H -3.9843 0.5771 -0.5241 0
M  V30 19 H -2.6248 1.3487 -1.4254 0
M  V30 20 H -2.8852 1.7271 0.3275 0
M  V30 END ATOM
M  V30 BEGIN BOND
M  V30 1 2 1 2
M  V30 2 1 2 3
M  V30 3 1 3 4
M  V30 4 1 4 5
M  V30 5 1 5 6
M  V30 6 1 6 7
M  V30 7 1 7 8
M  V30 8 1 2 9
M  V30 9 1 4 10
M  V30 10 1 4 11
M  V30 11 1 5 12
M  V30 12 1 5 13
M  V30 13 1 6 14
M  V30 14 1 6 15
M  V30 15 1 7 16
M  V30 16 1 7 17
M  V30 17 1 8 18
M  V30 18 1 8 19
M  V30 19 1 8 20
M  V30 END BOND
M  V30 END CTAB
M  END
>  <Structure No>
581

>  <LogS>
-1.602059991

>  <MMFF94 Energy>
-10.057

$$$$
Compound 582
Actelion Java MolfileCreator 2.0

  0  0  0  0  0  0              0 V3000
M  V30 BEGIN CTAB
M  V30 COUNTS 24 24 0 0 0
M  V30 BEGIN ATOM
M  V30 1 O 3.6633 0.3181 -0.159 0
M  V30 2 C 2.504 -0.1703 -0.0529 0
M  V30 3 O 2.3399 -1.5482 0.1265 0
M  V30 4 C 1.3172 0.7121 -0.1179 0
M  V30 5 C 3.4379 -2.4496 0.1974 0
M  V30 6 C 0.0233 0.1723 -2.0E-4 0
M  V30 7 C 1.4653 2.0983 -0.2978 0
M  V30 8 C -1.1115 1.0017 -0.0607 0
M  V30 9 C 0.3432 2.9264 -0.3585 0
M  V30 10 C -2.4681 0.4227 0.0644 0
M  V30 11 C -0.9379 2.3849 -0.2411 0
M  V30 12 O -3.4838 1.1705 0.0096 0
M  V30 13 O -2.6243 -0.956 0.2437 0
M  V30 14 C -3.899 -1.5747 0.3707 0
M  V30 15 H 4.0223 -2.4118 -0.746 0
M  V30 16 H 4.0918 -2.1855 1.0553 0
M  V30 17 H 3.0542 -3.4804 0.3418 0
M  V30 18 H -0.1006 -0.8942 0.1385 0
M  V30 19 H 2.4478 2.5437 -0.3916 0
M  V30 20 H 0.467 3.9929 -0.4973 0
M  V30 21 H -1.7917 3.0493 -0.2916 0
M  V30 22 H -4.432 -1.169 1.2566 0
M  V30 23 H -3.7621 -2.6674 0.5027 0
M  V30 24 H -4.5014 -1.3954 -0.5448 0
M  V30 END ATOM
M  V30 BEGIN BOND
M  V30 1 2 1 2
M  V30 2 1 2 3
M  V30 3 1 2 4
M  V30 4 1 3 5
M  V30 5 2 4 6
M  V30 6 1 4 7
M  V30 7 1 6 8
M  V30 8 2 7 9
M  V30 9 1 8 10
M  V30 10 2 8 11
M  V30 11 2 10 12
M  V30 12 1 10 13
M  V30 13 1 13 14
M  V30 14 1 9 11
M  V30 15 1 5 15
M  V30 16 1 5 16
M  V30 17 1 5 17
M  V30 18 1 6 18
M  V30 19 1 7 19
M  V30 20 1 9 20
M  V30 21 1 11 21
M  V30 22 1 14 22
M  V30 23 1 14 23
M  V30 24 1 14 24
M  V30 END BOND
M  V30 END CTAB
M  END
>  <Structure No>
582

>  <LogS>
-2.825819918

>  <MMFF94 Energy>
34.27

$$$$
Compound 583
Actelion Java MolfileCreator 2.0

  0  0  0  0  0  0              0 V3000
M  V30 BEGIN CTAB
M  V30 COUNTS 16 16 0 0 0
M  V30 BEGIN ATOM
M  V30 1 C -0.3883 -0.233 -0.0776 0
M  V30 2 C 0.657 -1.1377 -0.3372 0
M  V30 3 C -0.0828 0.9883 0.5615 0
M  V30 4 C -1.7649 -0.6124 -0.4918 0
M  V30 5 C 1.9712 -0.8338 0.03 0
M  V30 6 C 1.2342 1.286 0.9263 0
M  V30 7 C -2.852 0.14 -0.312 0
M  V30 8 C 2.2596 0.3768 0.6612 0
M  V30 9 H 0.4568 -2.0834 -0.826 0
M  V30 10 H -0.8433 1.7205 0.7861 0
M  V30 11 H -1.9038 -1.5716 -0.977 0
M  V30 12 H 2.7665 -1.5385 -0.1753 0
M  V30 13 H 1.46 2.2246 1.416 0
M  V30 14 H -3.8135 -0.2248 -0.6494 0
M  V30 15 H -2.8258 1.1099 0.1594 0
M  V30 16 H 3.2775 0.6107 0.945 0
M  V30 END ATOM
M  V30 BEGIN BOND
M  V30 1 2 1 2
M  V30 2 1 1 3
M  V30 3 1 1 4
M  V30 4 1 2 5
M  V30 5 2 3 6
M  V30 6 2 4 7
M  V30 7 2 5 8
M  V30 8 1 6 8
M  V30 9 1 2 9
M  V30 10 1 3 10
M  V30 11 1 4 11
M  V30 12 1 5 12
M  V30 13 1 6 13
M  V30 14 1 7 14
M  V30 15 1 7 15
M  V30 16 1 8 16
M  V30 END BOND
M  V30 END CTAB
M  END
>  <Structure No>
583

>  <LogS>
-2.555269616

>  <MMFF94 Energy>
22.529

$$$$
Compound 584
Actelion Java MolfileCreator 2.0

  0  0  0  0  0  0              0 V3000
M  V30 BEGIN CTAB
M  V30 COUNTS 30 29 0 0 0
M  V30 BEGIN ATOM
M  V30 1 O 2.7977 -0.9318 1.6312 0
M  V30 2 C 2.8874 -0.4182 0.482 0
M  V30 3 O 1.7286 -0.1141 -0.2415 0
M  V30 4 C 4.2202 -0.1406 -0.0972 0
M  V30 5 C 0.4194 -0.3587 0.2621 0
M  V30 6 C 4.3339 0.3304 -1.3438 0
M  V30 7 C 5.4583 -0.4636 0.6945 0
M  V30 8 C -0.6126 0.0833 -0.7771 0
M  V30 9 C -2.0519 -0.2862 -0.3838 0
M  V30 10 C -2.5944 0.5888 0.7592 0
M  V30 11 C -4.0359 0.2233 1.1465 0
M  V30 12 C -5.0613 0.6677 0.1035 0
M  V30 13 H 0.3028 -1.4448 0.4703 0
M  V30 14 H 0.2817 0.212 1.2047 0
M  V30 15 H 5.3065 0.5065 -1.7865 0
M  V30 16 H 3.4624 0.5475 -1.9485 0
M  V30 17 H 6.3451 0.0844 0.309 0
M  V30 18 H 5.3203 -0.1744 1.7576 0
M  V30 19 H 5.6578 -1.5541 0.6387 0
M  V30 20 H -0.5319 1.1799 -0.9428 0
M  V30 21 H -0.3757 -0.4195 -1.74 0
M  V30 22 H -2.6887 -0.1476 -1.2825 0
M  V30 23 H -2.1006 -1.3598 -0.098 0
M  V30 24 H -1.9614 0.4464 1.66 0
M  V30 25 H -2.5417 1.6628 0.4756 0
M  V30 26 H -4.2794 0.7274 2.107 0
M  V30 27 H -4.1227 -0.8725 1.3121 0
M  V30 28 H -4.952 1.7516 -0.1129 0
M  V30 29 H -6.0852 0.4883 0.4942 0
M  V30 30 H -4.9459 0.0887 -0.8356 0
M  V30 END ATOM
M  V30 BEGIN BOND
M  V30 1 2 1 2
M  V30 2 1 2 3
M  V30 3 1 2 4
M  V30 4 1 3 5
M  V30 5 2 4 6
M  V30 6 1 4 7
M  V30 7 1 5 8
M  V30 8 1 8 9
M  V30 9 1 9 10
M  V30 10 1 10 11
M  V30 11 1 11 12
M  V30 12 1 5 13
M  V30 13 1 5 14
M  V30 14 1 6 15
M  V30 15 1 6 16
M  V30 16 1 7 17
M  V30 17 1 7 18
M  V30 18 1 7 19
M  V30 19 1 8 20
M  V30 20 1 8 21
M  V30 21 1 9 22
M  V30 22 1 9 23
M  V30 23 1 10 24
M  V30 24 1 10 25
M  V30 25 1 11 26
M  V30 26 1 11 27
M  V30 27 1 12 28
M  V30 28 1 12 29
M  V30 29 1 12 30
M  V30 END BOND
M  V30 END CTAB
M  END
>  <Structure No>
584

>  <LogS>
-3.755421034

>  <MMFF94 Energy>
-0.5634

$$$$
Compound 585
Actelion Java MolfileCreator 2.0

  0  0  0  0  0  0              0 V3000
M  V30 BEGIN CTAB
M  V30 COUNTS 11 11 0 0 0
M  V30 BEGIN ATOM
M  V30 1 Cl 2.7098 -1.7748 0.0933 0
M  V30 2 C 1.2048 -0.8707 0.0663 0
M  V30 3 N 0.0291 -1.553 0.101 0
M  V30 4 C 1.1959 0.5312 0.0101 0
M  V30 5 C -1.1747 -0.921 0.083 0
M  V30 6 Cl 2.6879 1.46 -0.0362 0
M  V30 7 C -0.0299 1.2017 -0.0092 0
M  V30 8 Cl -2.6394 -1.888 0.1309 0
M  V30 9 C -1.2259 0.48 0.0271 0
M  V30 10 Cl -2.7566 1.3447 0.0018 0
M  V30 11 H -0.0532 2.2835 -0.0525 0
M  V30 END ATOM
M  V30 BEGIN BOND
M  V30 1 1 1 2
M  V30 2 2 2 3
M  V30 3 1 2 4
M  V30 4 1 3 5
M  V30 5 1 4 6
M  V30 6 2 4 7
M  V30 7 1 5 8
M  V30 8 2 5 9
M  V30 9 1 9 10
M  V30 10 1 7 9
M  V30 11 1 7 11
M  V30 END BOND
M  V30 END CTAB
M  END
>  <Structure No>
585

>  <LogS>
-3.861424691

>  <MMFF94 Energy>
32.826

$$$$
Compound 586
Actelion Java MolfileCreator 2.0

  0  0  0  0  0  0              0 V3000
M  V30 BEGIN CTAB
M  V30 COUNTS 26 28 0 0 0
M  V30 BEGIN ATOM
M  V30 1 S 4.2509 -1.0614 -1.4699 0
M  V30 2 C 4.2556 0.4595 -0.7639 0
M  V30 3 C 2.5846 -1.2365 -1.3072 0
M  V30 4 N 3.019 0.8561 -0.4012 0
M  V30 5 N 5.4207 1.2555 -0.5674 0
M  V30 6 C 2.0766 -0.0835 -0.696 0
M  V30 7 C 0.6386 0.1411 -0.3918 0
M  V30 8 C -0.2877 -0.9205 -0.3914 0
M  V30 9 C 0.1858 1.4376 -0.0841 0
M  V30 10 C -1.6412 -0.6886 -0.1001 0
M  V30 11 C -1.1595 1.6764 0.2063 0
M  V30 12 C -2.0809 0.6222 0.2 0
M  V30 13 C -2.5648 -1.7464 -0.1007 0
M  V30 14 C -3.4347 0.8525 0.4912 0
M  V30 15 C -3.9102 -1.5042 0.191 0
M  V30 16 C -4.3439 -0.2089 0.4857 0
M  V30 17 H 2.0221 -2.0942 -1.6472 0
M  V30 18 H 5.3461 2.1964 -0.1215 0
M  V30 19 H 6.3565 0.9039 -0.8678 0
M  V30 20 H 0.0366 -1.9313 -0.5991 0
M  V30 21 H 0.8723 2.2749 -0.0756 0
M  V30 22 H -1.4789 2.6862 0.4353 0
M  V30 23 H -2.2474 -2.7574 -0.3268 0
M  V30 24 H -3.7883 1.8503 0.7232 0
M  V30 25 H -4.6187 -2.3225 0.1886 0
M  V30 26 H -5.3869 -0.0274 0.711 0
M  V30 END ATOM
M  V30 BEGIN BOND
M  V30 1 1 1 2
M  V30 2 1 1 3
M  V30 3 2 2 4
M  V30 4 1 2 5
M  V30 5 2 3 6
M  V30 6 1 6 7
M  V30 7 2 7 8
M  V30 8 1 7 9
M  V30 9 1 8 10
M  V30 10 2 9 11
M  V30 11 1 10 12
M  V30 12 2 10 13
M  V30 13 2 12 14
M  V30 14 1 13 15
M  V30 15 1 14 16
M  V30 16 1 4 6
M  V30 17 1 11 12
M  V30 18 2 15 16
M  V30 19 1 3 17
M  V30 20 1 5 18
M  V30 21 1 5 19
M  V30 22 1 8 20
M  V30 23 1 9 21
M  V30 24 1 11 22
M  V30 25 1 13 23
M  V30 26 1 14 24
M  V30 27 1 15 25
M  V30 28 1 16 26
M  V30 END BOND
M  V30 END CTAB
M  END
>  <Structure No>
586

>  <LogS>
-4.849542252

>  <MMFF94 Energy>
-3.4137

$$$$
Compound 587
Actelion Java MolfileCreator 2.0

  0  0  0  0  0  0              0 V3000
M  V30 BEGIN CTAB
M  V30 COUNTS 37 37 0 0 0
M  V30 BEGIN ATOM
M  V30 1 O -0.7822 -0.7822 -2.2697 0
M  V30 2 C -0.9967 0.541 -1.8604 0
M  V30 3 C -0.2899 0.8331 -0.5189 0 CFG=1
M  V30 4 C -0.6249 -0.2074 0.5776 0
M  V30 5 C 1.2366 1.041 -0.6789 0
M  V30 6 C -2.0812 -0.1612 0.968 0
M  V30 7 C 1.9998 -0.1691 -1.2527 0
M  V30 8 C -2.9937 -1.0846 0.4297 0
M  V30 9 C -2.5456 0.832 1.8468 0
M  V30 10 C 3.5294 0.0196 -1.1731 0
M  V30 11 C -4.3471 -1.0204 0.7752 0
M  V30 12 C -3.8999 0.8921 2.1899 0
M  V30 13 C 4.1824 -0.7429 -0.0078 0
M  V30 14 C -4.7998 -0.0337 1.6553 0
M  V30 15 C 3.7694 -0.2112 1.3629 0
M  V30 16 H -1.2688 -0.8878 -3.128 0
M  V30 17 H -2.0895 0.7174 -1.7432 0
M  V30 18 H -0.6254 1.2427 -2.6406 0
M  V30 19 H -0.6816 1.8145 -0.1669 0
M  V30 20 H -0.3579 -1.2323 0.2438 0
M  V30 21 H -0.0123 -0.0023 1.4829 0
M  V30 22 H 1.4089 1.9139 -1.3469 0
M  V30 23 H 1.657 1.32 0.3098 0
M  V30 24 H 1.7233 -0.2781 -2.3234 0
M  V30 25 H 1.704 -1.1075 -0.74 0
M  V30 26 H -2.6587 -1.8501 -0.2587 0
M  V30 27 H -1.8593 1.559 2.2631 0
M  V30 28 H 3.801 1.0973 -1.1217 0
M  V30 29 H 3.9767 -0.3717 -2.1129 0
M  V30 30 H -5.0457 -1.7345 0.3586 0
M  V30 31 H -4.2521 1.6581 2.8687 0
M  V30 32 H 3.9343 -1.8244 -0.0753 0
M  V30 33 H 5.2859 -0.647 -0.1014 0
M  V30 34 H -5.8479 0.0148 1.9211 0
M  V30 35 H 4.3732 -0.7105 2.1495 0
M  V30 36 H 3.9446 0.8837 1.4247 0
M  V30 37 H 2.6993 -0.4317 1.5593 0
M  V30 END ATOM
M  V30 BEGIN BOND
M  V30 1 1 1 2
M  V30 2 1 2 3
M  V30 3 1 3 4
M  V30 4 1 3 5
M  V30 5 1 4 6
M  V30 6 1 5 7
M  V30 7 2 6 8
M  V30 8 1 6 9
M  V30 9 1 7 10
M  V30 10 1 8 11
M  V30 11 2 9 12
M  V30 12 1 10 13
M  V30 13 2 11 14
M  V30 14 1 13 15
M  V30 15 1 12 14
M  V30 16 1 1 16
M  V30 17 1 2 17
M  V30 18 1 2 18
M  V30 19 1 3 19
M  V30 20 1 4 20
M  V30 21 1 4 21
M  V30 22 1 5 22
M  V30 23 1 5 23
M  V30 24 1 7 24
M  V30 25 1 7 25
M  V30 26 1 8 26
M  V30 27 1 9 27
M  V30 28 1 10 28
M  V30 29 1 10 29
M  V30 30 1 11 30
M  V30 31 1 12 31
M  V30 32 1 13 32
M  V30 33 1 13 33
M  V30 34 1 14 34
M  V30 35 1 15 35
M  V30 36 1 15 36
M  V30 37 1 15 37
M  V30 END BOND
M  V30 BEGIN COLLECTION
M  V30 MDLV30/STEABS ATOMS=(1 3)
M  V30 END COLLECTION
M  V30 END CTAB
M  END
>  <Structure No>
587

>  <LogS>
-3.843268562

>  <MMFF94 Energy>
24.071

$$$$
Compound 588
Actelion Java MolfileCreator 2.0

  0  0  0  0  0  0              0 V3000
M  V30 BEGIN CTAB
M  V30 COUNTS 31 30 0 0 0
M  V30 BEGIN ATOM
M  V30 1 O -4.8148 2.0169 -0.0775 0
M  V30 2 C -4.8507 0.8018 -0.1899 0
M  V30 3 C -4.3163 -0.0798 0.9005 0
M  V30 4 C -2.8035 0.0936 1.093 0
M  V30 5 C -2.0036 -0.4204 -0.113 0
M  V30 6 C -0.4957 -0.278 0.126 0
M  V30 7 C 0.303 -0.7796 -1.086 0
M  V30 8 C 1.8195 -0.7752 -0.8375 0
M  V30 9 C 2.4008 0.6469 -0.7525 0
M  V30 10 C 3.9371 0.6563 -0.7648 0
M  V30 11 C 4.5408 0.0768 0.514 0
M  V30 12 H -5.2834 0.3589 -1.0808 0
M  V30 13 H -4.5453 -1.1412 0.6631 0
M  V30 14 H -4.8359 0.1728 1.8498 0
M  V30 15 H -2.5692 1.1658 1.2756 0
M  V30 16 H -2.5009 -0.4774 1.998 0
M  V30 17 H -2.2492 -1.4911 -0.287 0
M  V30 18 H -2.2844 0.1582 -1.02 0
M  V30 19 H -0.2616 0.7922 0.3106 0
M  V30 20 H -0.2099 -0.8651 1.0265 0
M  V30 21 H -0.0038 -1.8247 -1.311 0
M  V30 22 H 0.0656 -0.1602 -1.9788 0
M  V30 23 H 2.305 -1.3148 -1.6798 0
M  V30 24 H 2.0403 -1.336 0.0959 0
M  V30 25 H 2.0482 1.2362 -1.6272 0
M  V30 26 H 2.0395 1.1555 0.1668 0
M  V30 27 H 4.3166 0.0927 -1.6446 0
M  V30 28 H 4.2809 1.7084 -0.867 0
M  V30 29 H 5.6427 0.2126 0.4959 0
M  V30 30 H 4.1352 0.5987 1.4067 0
M  V30 31 H 4.3278 -1.0093 0.5915 0
M  V30 END ATOM
M  V30 BEGIN BOND
M  V30 1 2 1 2
M  V30 2 1 2 3
M  V30 3 1 3 4
M  V30 4 1 4 5
M  V30 5 1 5 6
M  V30 6 1 6 7
M  V30 7 1 7 8
M  V30 8 1 8 9
M  V30 9 1 9 10
M  V30 10 1 10 11
M  V30 11 1 2 12
M  V30 12 1 3 13
M  V30 13 1 3 14
M  V30 14 1 4 15
M  V30 15 1 4 16
M  V30 16 1 5 17
M  V30 17 1 5 18
M  V30 18 1 6 19
M  V30 19 1 6 20
M  V30 20 1 7 21
M  V30 21 1 7 22
M  V30 22 1 8 23
M  V30 23 1 8 24
M  V30 24 1 9 25
M  V30 25 1 9 26
M  V30 26 1 10 27
M  V30 27 1 10 28
M  V30 28 1 11 29
M  V30 29 1 11 30
M  V30 30 1 11 31
M  V30 END BOND
M  V30 END CTAB
M  END
>  <Structure No>
588

>  <LogS>
-3.725525503

>  <MMFF94 Energy>
-2.9354

$$$$
Compound 589
Actelion Java MolfileCreator 2.0

  0  0  0  0  0  0              0 V3000
M  V30 BEGIN CTAB
M  V30 COUNTS 34 33 0 0 0
M  V30 BEGIN ATOM
M  V30 1 O 4.9052 1.4773 -1.3995 0
M  V30 2 C 4.8523 0.8894 -0.2848 0
M  V30 3 O 3.6897 0.227 0.1189 0
M  V30 4 C 6.0251 0.9426 0.6341 0
M  V30 5 C 2.5256 0.1531 -0.6975 0
M  V30 6 C 1.456 -0.6243 0.0185 0
M  V30 7 C 0.2363 -0.8649 -0.5101 0
M  V30 8 C -0.7785 -1.6535 0.2922 0
M  V30 9 C -0.1373 -0.3639 -1.8854 0
M  V30 10 C -1.3867 -0.8167 1.4271 0
M  V30 11 C -2.1314 0.3865 0.8983 0
M  V30 12 C -3.4245 0.3774 0.5064 0
M  V30 13 C -4.0147 1.6483 -0.0481 0
M  V30 14 C -4.2899 -0.8549 0.626 0
M  V30 15 H 6.9686 0.8759 0.0524 0
M  V30 16 H 5.9848 0.0949 1.3499 0
M  V30 17 H 6.0091 1.8975 1.1993 0
M  V30 18 H 2.1585 1.1809 -0.9083 0
M  V30 19 H 2.7783 -0.3559 -1.6526 0
M  V30 20 H 1.6856 -1.0066 1.0103 0
M  V30 21 H -1.5872 -2.0306 -0.3674 0
M  V30 22 H -0.2869 -2.5518 0.7257 0
M  V30 23 H 0.5347 -0.81 -2.6479 0
M  V30 24 H -0.0553 0.7427 -1.9205 0
M  V30 25 H -1.1828 -0.6332 -2.144 0
M  V30 26 H -0.5735 -0.4631 2.0971 0
M  V30 27 H -2.0503 -1.4532 2.0489 0
M  V30 28 H -1.5623 1.3087 0.8065 0
M  V30 29 H -3.9502 2.4556 0.7121 0
M  V30 30 H -3.452 1.9575 -0.9545 0
M  V30 31 H -5.0809 1.5197 -0.3284 0
M  V30 32 H -3.8598 -1.6882 0.035 0
M  V30 33 H -5.3164 -0.6686 0.2472 0
M  V30 34 H -4.3733 -1.1579 1.6906 0
M  V30 END ATOM
M  V30 BEGIN BOND
M  V30 1 2 1 2
M  V30 2 1 2 3
M  V30 3 1 2 4
M  V30 4 1 3 5
M  V30 5 1 5 6
M  V30 6 2 6 7
M  V30 7 1 7 8
M  V30 8 1 7 9
M  V30 9 1 8 10
M  V30 10 1 10 11
M  V30 11 2 11 12
M  V30 12 1 12 13
M  V30 13 1 12 14
M  V30 14 1 4 15
M  V30 15 1 4 16
M  V30 16 1 4 17
M  V30 17 1 5 18
M  V30 18 1 5 19
M  V30 19 1 6 20
M  V30 20 1 8 21
M  V30 21 1 8 22
M  V30 22 1 9 23
M  V30 23 1 9 24
M  V30 24 1 9 25
M  V30 25 1 10 26
M  V30 26 1 10 27
M  V30 27 1 11 28
M  V30 28 1 13 29
M  V30 29 1 13 30
M  V30 30 1 13 31
M  V30 31 1 14 32
M  V30 32 1 14 33
M  V30 33 1 14 34
M  V30 END BOND
M  V30 END CTAB
M  END
>  <Structure No>
589

>  <LogS>
-3.830500177

>  <MMFF94 Energy>
8.8026

$$$$
Compound 590
Actelion Java MolfileCreator 2.0

  0  0  0  0  0  0              0 V3000
M  V30 BEGIN CTAB
M  V30 COUNTS 33 32 0 0 0
M  V30 BEGIN ATOM
M  V30 1 O 5.5172 0.698 -1.3188 0
M  V30 2 C 4.7822 1.4218 -0.666 0
M  V30 3 C 3.3456 1.0513 -0.4511 0
M  V30 4 C 3.2279 -0.2212 0.3947 0
M  V30 5 C 1.7762 -0.5673 0.646 0
M  V30 6 C 1.0497 -1.1155 -0.3548 0
M  V30 7 C 1.1857 -0.3161 2.0141 0
M  V30 8 C -0.4141 -1.4641 -0.2539 0
M  V30 9 C -1.284 -0.2577 -0.6373 0
M  V30 10 C -2.794 -0.5866 -0.6282 0 CFG=2
M  V30 11 C -3.5806 0.4916 -1.3413 0
M  V30 12 C -3.3379 -0.7975 0.7935 0
M  V30 13 C -3.6139 1.7626 -0.9227 0
M  V30 14 H 5.171 2.3461 -0.2513 0
M  V30 15 H 2.8589 0.9045 -1.4394 0
M  V30 16 H 2.833 1.889 0.0699 0
M  V30 17 H 3.7609 -0.0666 1.3582 0
M  V30 18 H 3.7279 -1.0712 -0.1203 0
M  V30 19 H 1.5284 -1.2972 -1.3136 0
M  V30 20 H 0.8897 -1.2784 2.4813 0
M  V30 21 H 1.917 0.1793 2.6858 0
M  V30 22 H 0.3003 0.3469 1.9379 0
M  V30 23 H -0.6588 -1.831 0.763 0
M  V30 24 H -0.6201 -2.296 -0.9613 0
M  V30 25 H -1.0781 0.5916 0.0482 0
M  V30 26 H -0.9939 0.0643 -1.6628 0
M  V30 27 H -2.9517 -1.5311 -1.1946 0
M  V30 28 H -4.1408 0.2223 -2.2319 0
M  V30 29 H -2.9101 -1.7169 1.2429 0
M  V30 30 H -4.4417 -0.9232 0.7657 0
M  V30 31 H -3.0934 0.0675 1.446 0
M  V30 32 H -4.1933 2.4983 -1.4709 0
M  V30 33 H -3.0699 2.079 -0.0387 0
M  V30 END ATOM
M  V30 BEGIN BOND
M  V30 1 2 1 2
M  V30 2 1 2 3
M  V30 3 1 3 4
M  V30 4 1 4 5
M  V30 5 2 5 6
M  V30 6 1 5 7
M  V30 7 1 6 8
M  V30 8 1 8 9
M  V30 9 1 9 10
M  V30 10 1 10 11
M  V30 11 1 10 12
M  V30 12 2 11 13
M  V30 13 1 2 14
M  V30 14 1 3 15
M  V30 15 1 3 16
M  V30 16 1 4 17
M  V30 17 1 4 18
M  V30 18 1 6 19
M  V30 19 1 7 20
M  V30 20 1 7 21
M  V30 21 1 7 22
M  V30 22 1 8 23
M  V30 23 1 8 24
M  V30 24 1 9 25
M  V30 25 1 9 26
M  V30 26 1 10 27
M  V30 27 1 11 28
M  V30 28 1 12 29
M  V30 29 1 12 30
M  V30 30 1 12 31
M  V30 31 1 13 32
M  V30 32 1 13 33
M  V30 END BOND
M  V30 BEGIN COLLECTION
M  V30 MDLV30/STEABS ATOMS=(1 10)
M  V30 END COLLECTION
M  V30 END CTAB
M  END
>  <Structure No>
590

>  <LogS>
-3.79357605

>  <MMFF94 Energy>
22.262

$$$$
Compound 591
Actelion Java MolfileCreator 2.0

  0  0  0  0  0  0              0 V3000
M  V30 BEGIN CTAB
M  V30 COUNTS 11 10 0 0 0
M  V30 BEGIN ATOM
M  V30 1 F -2.4502 0.1632 -0.6529 0
M  V30 2 C -1.8278 0.033 0.5741 0
M  V30 3 F -2.4857 -0.928 1.3203 0
M  V30 4 F -1.8868 1.2412 1.2447 0
M  V30 5 C -0.403 -0.3673 0.3671 0
M  V30 6 O -0.1169 -1.5797 0.1682 0
M  V30 7 O 0.5944 0.6123 0.3411 0
M  V30 8 C 1.9662 0.3033 0.126 0
M  V30 9 H 2.5593 1.2406 0.1519 0
M  V30 10 H 2.3324 -0.3764 0.9243 0
M  V30 11 H 2.0965 -0.1779 -0.8663 0
M  V30 END ATOM
M  V30 BEGIN BOND
M  V30 1 1 1 2
M  V30 2 1 2 3
M  V30 3 1 2 4
M  V30 4 1 2 5
M  V30 5 2 5 6
M  V30 6 1 5 7
M  V30 7 1 7 8
M  V30 8 1 8 9
M  V30 9 1 8 10
M  V30 10 1 8 11
M  V30 END BOND
M  V30 END CTAB
M  END
>  <Structure No>
591

>  <LogS>
-0.647983703

>  <MMFF94 Energy>
72.986

$$$$
Compound 592
Actelion Java MolfileCreator 2.0

  0  0  0  0  0  0              0 V3000
M  V30 BEGIN CTAB
M  V30 COUNTS 22 22 0 0 0
M  V30 BEGIN ATOM
M  V30 1 O -4.1126 0.5528 -1.9756 0
M  V30 2 C -2.869 0.721 -1.8647 0
M  V30 3 C -2.1089 0.0877 -0.7706 0
M  V30 4 C -0.7242 0.2962 -0.6769 0
M  V30 5 C -2.7489 -0.7222 0.1806 0
M  V30 6 C 0.0235 -0.2984 0.3597 0
M  V30 7 C -2.0138 -1.3136 1.2094 0
M  V30 8 O 1.4094 -0.1086 0.4802 0
M  V30 9 C -0.6345 -1.1071 1.3045 0
M  V30 10 C 2.1988 0.6828 -0.4039 0
M  V30 11 O 0.0669 -1.7145 2.3461 0
M  V30 12 C 3.6505 0.6495 0.0456 0
M  V30 13 H -2.3588 1.3425 -2.5895 0
M  V30 14 H -0.2365 0.9215 -1.4131 0
M  V30 15 H -3.8161 -0.8984 0.1302 0
M  V30 16 H -2.5183 -1.9364 1.9376 0
M  V30 17 H 1.8387 1.7345 -0.3914 0
M  V30 18 H 2.1289 0.2775 -1.4365 0
M  V30 19 H 1.0664 -1.5993 2.4632 0
M  V30 20 H 4.27 1.2649 -0.6402 0
M  V30 21 H 4.0275 -0.3951 0.0335 0
M  V30 22 H 3.7383 1.0571 1.0751 0
M  V30 END ATOM
M  V30 BEGIN BOND
M  V30 1 2 1 2
M  V30 2 1 2 3
M  V30 3 2 3 4
M  V30 4 1 3 5
M  V30 5 1 4 6
M  V30 6 2 5 7
M  V30 7 1 6 8
M  V30 8 2 6 9
M  V30 9 1 8 10
M  V30 10 1 9 11
M  V30 11 1 10 12
M  V30 12 1 7 9
M  V30 13 1 2 13
M  V30 14 1 4 14
M  V30 15 1 5 15
M  V30 16 1 7 16
M  V30 17 1 10 17
M  V30 18 1 10 18
M  V30 19 1 11 19
M  V30 20 1 12 20
M  V30 21 1 12 21
M  V30 22 1 12 22
M  V30 END BOND
M  V30 END CTAB
M  END
>  <Structure No>
592

>  <LogS>
-1.764202268

>  <MMFF94 Energy>
34.493

$$$$
Compound 593
Actelion Java MolfileCreator 2.0

  0  0  0  0  0  0              0 V3000
M  V30 BEGIN CTAB
M  V30 COUNTS 23 23 0 0 0
M  V30 BEGIN ATOM
M  V30 1 O -3.2191 1.4907 -0.2352 0
M  V30 2 C -2.8277 0.3868 0.1123 0
M  V30 3 C -1.3984 0.2123 0.5529 0
M  V30 4 C -3.7888 -0.7649 0.101 0
M  V30 5 C -0.4404 0.4014 -0.6266 0
M  V30 6 C 0.9862 0.2138 -0.1851 0
M  V30 7 C 1.7253 1.3031 0.3063 0
M  V30 8 C 1.5732 -1.0625 -0.2074 0
M  V30 9 C 3.0401 1.1206 0.7462 0
M  V30 10 C 2.8883 -1.2403 0.2334 0
M  V30 11 C 3.6217 -0.1494 0.708 0
M  V30 12 H -1.1734 0.9587 1.3457 0
M  V30 13 H -1.2489 -0.7992 0.989 0
M  V30 14 H -3.2984 -1.7062 0.4253 0
M  V30 15 H -4.1826 -0.9082 -0.9267 0
M  V30 16 H -4.6347 -0.5494 0.7869 0
M  V30 17 H -0.5683 1.419 -1.0575 0
M  V30 18 H -0.6859 -0.3304 -1.4278 0
M  V30 19 H 1.2829 2.2907 0.3497 0
M  V30 20 H 1.0125 -1.9175 -0.564 0
M  V30 21 H 3.6067 1.9635 1.1201 0
M  V30 22 H 3.3375 -2.2246 0.2106 0
M  V30 23 H 4.6389 -0.289 1.0502 0
M  V30 END ATOM
M  V30 BEGIN BOND
M  V30 1 2 1 2
M  V30 2 1 2 3
M  V30 3 1 2 4
M  V30 4 1 3 5
M  V30 5 1 5 6
M  V30 6 2 6 7
M  V30 7 1 6 8
M  V30 8 1 7 9
M  V30 9 2 8 10
M  V30 10 2 9 11
M  V30 11 1 10 11
M  V30 12 1 3 12
M  V30 13 1 3 13
M  V30 14 1 4 14
M  V30 15 1 4 15
M  V30 16 1 4 16
M  V30 17 1 5 17
M  V30 18 1 5 18
M  V30 19 1 7 19
M  V30 20 1 8 20
M  V30 21 1 9 21
M  V30 22 1 10 22
M  V30 23 1 11 23
M  V30 END BOND
M  V30 END CTAB
M  END
>  <Structure No>
593

>  <LogS>
-1.716017996

>  <MMFF94 Energy>
17.861

$$$$
Compound 594
Actelion Java MolfileCreator 2.0

  0  0  0  0  0  0              0 V3000
M  V30 BEGIN CTAB
M  V30 COUNTS 32 32 0 0 0
M  V30 BEGIN ATOM
M  V30 1 Cl -4.6664 0.723 2.0897 0
M  V30 2 C -3.1146 0.6307 1.2697 0
M  V30 3 C -2.1251 -0.252 1.7216 0
M  V30 4 C -2.8827 1.4424 0.1561 0
M  V30 5 O -2.4004 -1.0608 2.8361 0
M  V30 6 C -0.8925 -0.3047 1.0451 0
M  V30 7 C -1.6503 1.3937 -0.5214 0
M  V30 8 C -1.4864 -1.9951 3.4015 0
M  V30 9 C -0.6438 0.5246 -0.0627 0
M  V30 10 O -1.388 2.1988 -1.6422 0
M  V30 11 N 0.6085 0.4496 -0.767 0
M  V30 12 C -2.3125 3.1216 -2.2092 0
M  V30 13 C 1.879 0.2807 -0.1186 0
M  V30 14 O 1.9812 0.3925 1.1333 0
M  V30 15 C 3.0973 -0.0398 -0.9288 0
M  V30 16 C 3.1669 -1.5193 -1.1877 0
M  V30 17 O 2.3948 -2.027 -1.9871 0
M  V30 18 C 4.1624 -2.3894 -0.4792 0
M  V30 19 H -3.6689 2.1084 -0.173 0
M  V30 20 H -0.1332 -1.0064 1.3594 0
M  V30 21 H -0.5687 -1.472 3.7444 0
M  V30 22 H -1.9633 -2.485 4.275 0
M  V30 23 H -1.2268 -2.7748 2.6548 0
M  V30 24 H 0.6042 0.5879 -1.8029 0
M  V30 25 H -3.2241 2.5875 -2.5515 0
M  V30 26 H -2.5814 3.8997 -1.4637 0
M  V30 27 H -1.8413 3.6157 -3.0833 0
M  V30 28 H 4.0035 0.307 -0.3871 0
M  V30 29 H 3.0654 0.5053 -1.8964 0
M  V30 30 H 4.8343 -2.8664 -1.223 0
M  V30 31 H 4.7783 -1.8021 0.2335 0
M  V30 32 H 3.6265 -3.1804 0.0863 0
M  V30 END ATOM
M  V30 BEGIN BOND
M  V30 1 1 1 2
M  V30 2 2 2 3
M  V30 3 1 2 4
M  V30 4 1 3 5
M  V30 5 1 3 6
M  V30 6 2 4 7
M  V30 7 1 5 8
M  V30 8 2 6 9
M  V30 9 1 7 10
M  V30 10 1 9 11
M  V30 11 1 10 12
M  V30 12 1 11 13
M  V30 13 2 13 14
M  V30 14 1 13 15
M  V30 15 1 15 16
M  V30 16 2 16 17
M  V30 17 1 16 18
M  V30 18 1 7 9
M  V30 19 1 4 19
M  V30 20 1 6 20
M  V30 21 1 8 21
M  V30 22 1 8 22
M  V30 23 1 8 23
M  V30 24 1 11 24
M  V30 25 1 12 25
M  V30 26 1 12 26
M  V30 27 1 12 27
M  V30 28 1 15 28
M  V30 29 1 15 29
M  V30 30 1 18 30
M  V30 31 1 18 31
M  V30 32 1 18 32
M  V30 END BOND
M  V30 END CTAB
M  END
>  <Structure No>
594

>  <LogS>
-2.979244778

>  <MMFF94 Energy>
16.642

$$$$
Compound 595
Actelion Java MolfileCreator 2.0

  0  0  0  0  0  0              0 V3000
M  V30 BEGIN CTAB
M  V30 COUNTS 25 25 0 0 0
M  V30 BEGIN ATOM
M  V30 1 O 4.4863 -1.415 -0.5501 0
M  V30 2 C 3.898 -0.6481 0.2599 0
M  V30 3 O 2.5693 -0.2701 0.0492 0
M  V30 4 C 4.6106 -0.1785 1.4823 0
M  V30 5 C 1.8198 -0.698 -1.0833 0
M  V30 6 C 0.4376 -0.1282 -1.0169 0
M  V30 7 C -0.4067 -0.4826 -0.0401 0
M  V30 8 C -1.7944 0.0277 0.0819 0
M  V30 9 C -2.224 1.2189 -0.5397 0
M  V30 10 C -2.7064 -0.6883 0.8768 0
M  V30 11 C -3.5414 1.6621 -0.3839 0
M  V30 12 C -4.0222 -0.2405 1.0282 0
M  V30 13 C -4.4403 0.9319 0.3961 0
M  V30 14 H 5.6759 0.028 1.247 0
M  V30 15 H 4.5529 -0.9607 2.2672 0
M  V30 16 H 4.1402 0.753 1.8612 0
M  V30 17 H 2.3171 -0.3439 -2.012 0
M  V30 18 H 1.7656 -1.8083 -1.1069 0
M  V30 19 H 0.1351 0.5521 -1.8006 0
M  V30 20 H -0.0735 -1.2155 0.6868 0
M  V30 21 H -1.548 1.8249 -1.1262 0
M  V30 22 H -2.4019 -1.6005 1.3755 0
M  V30 23 H -3.8637 2.5774 -0.8633 0
M  V30 24 H -4.718 -0.803 1.6373 0
M  V30 25 H -5.4588 1.2781 0.5158 0
M  V30 END ATOM
M  V30 BEGIN BOND
M  V30 1 2 1 2
M  V30 2 1 2 3
M  V30 3 1 2 4
M  V30 4 1 3 5
M  V30 5 1 5 6
M  V30 6 2 6 7
M  V30 7 1 7 8
M  V30 8 2 8 9
M  V30 9 1 8 10
M  V30 10 1 9 11
M  V30 11 2 10 12
M  V30 12 2 11 13
M  V30 13 1 12 13
M  V30 14 1 4 14
M  V30 15 1 4 15
M  V30 16 1 4 16
M  V30 17 1 5 17
M  V30 18 1 5 18
M  V30 19 1 6 19
M  V30 20 1 7 20
M  V30 21 1 9 21
M  V30 22 1 10 22
M  V30 23 1 11 23
M  V30 24 1 12 24
M  V30 25 1 13 25
M  V30 END BOND
M  V30 END CTAB
M  END
>  <Structure No>
595

>  <LogS>
-2.792724534

>  <MMFF94 Energy>
4.524

$$$$
Compound 596
Actelion Java MolfileCreator 2.0

  0  0  0  0  0  0              0 V3000
M  V30 BEGIN CTAB
M  V30 COUNTS 80 82 0 0 0
M  V30 BEGIN ATOM
M  V30 1 O -1.7537 0.239 -4.0691 0
M  V30 2 C -0.6769 0.0506 -3.4437 0
M  V30 3 O 0.448 -0.5227 -4.0268 0
M  V30 4 C -0.4493 0.4317 -2.0073 0 CFG=1
M  V30 5 C 1.42 -0.559 -3.0436 0
M  V30 6 C -1.3915 -0.2862 -1.0553 0
M  V30 7 C 0.9691 -0.0249 -1.8597 0
M  V30 8 C 2.7038 -1.0716 -3.164 0
M  V30 9 C -1.4368 -1.6943 -0.9701 0
M  V30 10 C -2.2108 0.4802 -0.2099 0
M  V30 11 C 1.7798 0.0113 -0.7267 0
M  V30 12 C 3.539 -1.0571 -2.0352 0
M  V30 13 O -0.6318 -2.4634 -1.8226 0
M  V30 14 C -2.306 -2.3014 -0.0541 0
M  V30 15 C -3.1051 -0.1198 0.7049 0
M  V30 16 C 3.0817 -0.5587 -0.7782 0
M  V30 17 C 0.0036 -3.662 -1.473 0
M  V30 18 C -3.1131 -1.5308 0.7816 0
M  V30 19 C -3.9798 0.7674 1.6221 0
M  V30 20 C 4.0184 -0.5089 0.4564 0
M  V30 21 O 0.0397 -4.057 -0.2767 0
M  V30 22 C 0.7392 -4.4241 -2.5211 0
M  V30 23 C -4.7918 1.8482 0.8118 0
M  V30 24 C -4.9359 -0.0463 2.5301 0
M  V30 25 C -3.0182 1.5223 2.5742 0
M  V30 26 C 4.7618 0.8746 0.3866 0
M  V30 27 C 3.1665 -0.6403 1.7524 0
M  V30 28 C 4.9965 -1.7092 0.4278 0
M  V30 29 C -5.9456 1.4367 -0.1797 0
M  V30 30 C 5.9756 1.2433 1.3193 0
M  V30 31 C -5.6177 0.1843 -1.0175 0
M  V30 32 C -7.2834 1.2179 0.5672 0
M  V30 33 C -6.1618 2.6126 -1.1628 0
M  V30 34 C 5.7041 0.9626 2.8102 0
M  V30 35 C 7.2783 0.527 0.8883 0
M  V30 36 C 6.2202 2.7652 1.1664 0
M  V30 37 H -0.497 1.5377 -1.9028 0
M  V30 38 H 3.0514 -1.4749 -4.1061 0
M  V30 39 H -2.1358 1.5568 -0.2636 0
M  V30 40 H 1.3849 0.4671 0.1694 0
M  V30 41 H 4.5417 -1.4364 -2.16 0
M  V30 42 H -2.3787 -3.3792 0.0031 0
M  V30 43 H -3.745 -2.0634 1.4759 0
M  V30 44 H 1.8227 -4.1956 -2.4527 0
M  V30 45 H 0.3713 -4.1351 -3.5274 0
M  V30 46 H 0.5822 -5.5135 -2.379 0
M  V30 47 H -5.2258 2.5665 1.5434 0
M  V30 48 H -4.0615 2.4693 0.2543 0
M  V30 49 H -5.6222 0.6285 3.0856 0
M  V30 50 H -5.5437 -0.7651 1.9495 0
M  V30 51 H -4.3642 -0.6333 3.2823 0
M  V30 52 H -2.3773 0.8063 3.134 0
M  V30 53 H -3.5854 2.1282 3.3145 0
M  V30 54 H -2.3525 2.215 2.0161 0
M  V30 55 H 5.1149 1.0131 -0.6609 0
M  V30 56 H 3.9788 1.6555 0.5222 0
M  V30 57 H 3.7598 -0.9611 2.6291 0
M  V30 58 H 2.6756 0.3193 2.0192 0
M  V30 59 H 2.3808 -1.4167 1.6226 0
M  V30 60 H 4.4477 -2.6485 0.1977 0
M  V30 61 H 5.7918 -1.5697 -0.3326 0
M  V30 62 H 5.4885 -1.8625 1.4096 0
M  V30 63 H -4.6669 0.3201 -1.5747 0
M  V30 64 H -6.4209 -0.0057 -1.762 0
M  V30 65 H -5.5503 -0.7201 -0.3829 0
M  V30 66 H -7.282 0.3012 1.1832 0
M  V30 67 H -8.1203 1.1052 -0.1559 0
M  V30 68 H -7.5174 2.0828 1.2251 0
M  V30 69 H -5.2479 2.7933 -1.7703 0
M  V30 70 H -6.4013 3.5471 -0.6087 0
M  V30 71 H -6.9974 2.4023 -1.8656 0
M  V30 72 H 6.4768 1.4443 3.4476 0
M  V30 73 H 4.7143 1.3656 3.1129 0
M  V30 74 H 5.7546 -0.1214 3.0313 0
M  V30 75 H 7.4271 0.598 -0.2106 0
M  V30 76 H 8.1603 0.9872 1.3838 0
M  V30 77 H 7.2898 -0.5382 1.1832 0
M  V30 78 H 5.3322 3.345 1.5016 0
M  V30 79 H 7.0911 3.0988 1.7731 0
M  V30 80 H 6.4251 3.0236 0.1039 0
M  V30 END ATOM
M  V30 BEGIN BOND
M  V30 1 2 1 2
M  V30 2 1 2 3
M  V30 3 1 2 4
M  V30 4 1 3 5
M  V30 5 1 4 6
M  V30 6 1 4 7
M  V30 7 1 5 8
M  V30 8 2 6 9
M  V30 9 1 6 10
M  V30 10 1 7 11
M  V30 11 2 8 12
M  V30 12 1 9 13
M  V30 13 1 9 14
M  V30 14 2 10 15
M  V30 15 2 11 16
M  V30 16 1 13 17
M  V30 17 2 14 18
M  V30 18 1 15 19
M  V30 19 1 16 20
M  V30 20 2 17 21
M  V30 21 1 17 22
M  V30 22 1 19 23
M  V30 23 1 19 24
M  V30 24 1 19 25
M  V30 25 1 20 26
M  V30 26 1 20 27
M  V30 27 1 20 28
M  V30 28 1 23 29
M  V30 29 1 26 30
M  V30 30 1 29 31
M  V30 31 1 29 32
M  V30 32 1 29 33
M  V30 33 1 30 34
M  V30 34 1 30 35
M  V30 35 1 30 36
M  V30 36 2 5 7
M  V30 37 1 12 16
M  V30 38 1 15 18
M  V30 39 1 4 37
M  V30 40 1 8 38
M  V30 41 1 10 39
M  V30 42 1 11 40
M  V30 43 1 12 41
M  V30 44 1 14 42
M  V30 45 1 18 43
M  V30 46 1 22 44
M  V30 47 1 22 45
M  V30 48 1 22 46
M  V30 49 1 23 47
M  V30 50 1 23 48
M  V30 51 1 24 49
M  V30 52 1 24 50
M  V30 53 1 24 51
M  V30 54 1 25 52
M  V30 55 1 25 53
M  V30 56 1 25 54
M  V30 57 1 26 55
M  V30 58 1 26 56
M  V30 59 1 27 57
M  V30 60 1 27 58
M  V30 61 1 27 59
M  V30 62 1 28 60
M  V30 63 1 28 61
M  V30 64 1 28 62
M  V30 65 1 31 63
M  V30 66 1 31 64
M  V30 67 1 31 65
M  V30 68 1 32 66
M  V30 69 1 32 67
M  V30 70 1 32 68
M  V30 71 1 33 69
M  V30 72 1 33 70
M  V30 73 1 33 71
M  V30 74 1 34 72
M  V30 75 1 34 73
M  V30 76 1 34 74
M  V30 77 1 35 75
M  V30 78 1 35 76
M  V30 79 1 35 77
M  V30 80 1 36 78
M  V30 81 1 36 79
M  V30 82 1 36 80
M  V30 END BOND
M  V30 BEGIN COLLECTION
M  V30 MDLV30/STEABS ATOMS=(1 4)
M  V30 END COLLECTION
M  V30 END CTAB
M  END
>  <Structure No>
596

>  <LogS>
-6.692582562

>  <MMFF94 Energy>
154.37

$$$$
Compound 597
Actelion Java MolfileCreator 2.0

  0  0  0  0  0  0              0 V3000
M  V30 BEGIN CTAB
M  V30 COUNTS 64 64 0 0 0
M  V30 BEGIN ATOM
M  V30 1 O 4.0059 -0.706 0.1568 0
M  V30 2 C 4.4279 -0.5034 -1.0151 0
M  V30 3 O 5.515 0.3486 -1.2387 0
M  V30 4 N 3.8259 -1.1733 -2.1299 0
M  V30 5 C 6.1452 1.1039 -0.2056 0
M  V30 6 C 2.6122 -1.9421 -2.0385 0
M  V30 7 C 5.2774 2.3234 0.1648 0
M  V30 8 C 2.4739 -3.1529 -2.754 0
M  V30 9 C 1.5317 -1.4678 -1.2729 0
M  V30 10 N 5.8263 3.1622 1.2587 0 CHG=1
M  V30 11 C 1.2694 -3.8696 -2.6728 0
M  V30 12 C 3.5965 -3.6868 -3.6019 0
M  V30 13 C 0.3264 -2.1795 -1.206 0
M  V30 14 C 5.875 2.4484 2.5471 0
M  V30 15 C 7.1415 3.7391 0.9275 0
M  V30 16 C 0.2109 -3.3958 -1.8961 0
M  V30 17 N -0.7447 -1.6737 -0.3905 0
M  V30 18 C -2.1372 -1.832 -0.6922 0
M  V30 19 O -2.5061 -2.2692 -1.8169 0
M  V30 20 O -3.0852 -1.452 0.2613 0
M  V30 21 C -4.4885 -1.5609 0.0397 0
M  V30 22 C -5.2675 -1.0185 1.2561 0 CFG=1
M  V30 23 C -4.7887 0.3929 1.6856 0
M  V30 24 C -6.7964 -1.0452 1.0137 0
M  V30 25 C -4.9509 1.4758 0.6043 0
M  V30 26 C -7.3725 -2.4619 1.0187 0
M  V30 27 C -4.4889 2.8412 1.1265 0
M  V30 28 C -4.6383 3.9202 0.0579 0
M  V30 29 H 4.3351 -1.1372 -3.041 0
M  V30 30 H 7.1263 1.4465 -0.5923 0
M  V30 31 H 6.3274 0.4494 0.6718 0
M  V30 32 H 4.2597 1.9728 0.4464 0
M  V30 33 H 5.1443 2.9471 -0.7476 0
M  V30 34 H 1.6122 -0.522 -0.7522 0
M  V30 35 H 5.1634 3.9648 1.3804 0
M  V30 36 H 1.1503 -4.8058 -3.2042 0
M  V30 37 H 3.4047 -4.7336 -3.9204 0
M  V30 38 H 4.547 -3.6761 -3.0277 0
M  V30 39 H 3.7077 -3.0584 -4.5101 0
M  V30 40 H 6.6742 1.6774 2.5581 0
M  V30 41 H 6.082 3.1644 3.3721 0
M  V30 42 H 4.8994 1.9617 2.7646 0
M  V30 43 H 7.9408 2.9675 0.9454 0
M  V30 44 H 7.1199 4.2154 -0.0767 0
M  V30 45 H 7.4101 4.526 1.6664 0
M  V30 46 H -0.688 -3.9926 -1.8218 0
M  V30 47 H -0.5009 -1.077 0.4319 0
M  V30 48 H -4.7686 -1.0033 -0.8796 0
M  V30 49 H -4.7375 -2.6315 -0.1169 0
M  V30 50 H -5.0468 -1.6916 2.115 0
M  V30 51 H -3.7192 0.3378 1.9853 0
M  V30 52 H -5.3536 0.6994 2.5937 0
M  V30 53 H -7.0446 -0.5618 0.0443 0
M  V30 54 H -7.309 -0.4725 1.8176 0
M  V30 55 H -4.3425 1.2115 -0.2864 0
M  V30 56 H -6.0167 1.5499 0.3005 0
M  V30 57 H -8.4796 -2.4094 0.951 0
M  V30 58 H -7.1028 -2.9891 1.9583 0
M  V30 59 H -7.0029 -3.0421 0.1484 0
M  V30 60 H -5.0943 3.1284 2.0138 0
M  V30 61 H -3.4213 2.7842 1.4321 0
M  V30 62 H -4.0208 3.6708 -0.8312 0
M  V30 63 H -5.7019 4.0155 -0.2483 0
M  V30 64 H -4.2974 4.8957 0.4644 0
M  V30 END ATOM
M  V30 BEGIN BOND
M  V30 1 2 1 2
M  V30 2 1 2 3
M  V30 3 1 2 4
M  V30 4 1 3 5
M  V30 5 1 4 6
M  V30 6 1 5 7
M  V30 7 2 6 8
M  V30 8 1 6 9
M  V30 9 1 7 10
M  V30 10 1 8 11
M  V30 11 1 8 12
M  V30 12 2 9 13
M  V30 13 1 10 14
M  V30 14 1 10 15
M  V30 15 2 11 16
M  V30 16 1 13 17
M  V30 17 1 17 18
M  V30 18 2 18 19
M  V30 19 1 18 20
M  V30 20 1 20 21
M  V30 21 1 21 22
M  V30 22 1 22 23
M  V30 23 1 22 24
M  V30 24 1 23 25
M  V30 25 1 24 26
M  V30 26 1 25 27
M  V30 27 1 27 28
M  V30 28 1 13 16
M  V30 29 1 4 29
M  V30 30 1 5 30
M  V30 31 1 5 31
M  V30 32 1 7 32
M  V30 33 1 7 33
M  V30 34 1 9 34
M  V30 35 1 10 35
M  V30 36 1 11 36
M  V30 37 1 12 37
M  V30 38 1 12 38
M  V30 39 1 12 39
M  V30 40 1 14 40
M  V30 41 1 14 41
M  V30 42 1 14 42
M  V30 43 1 15 43
M  V30 44 1 15 44
M  V30 45 1 15 45
M  V30 46 1 16 46
M  V30 47 1 17 47
M  V30 48 1 21 48
M  V30 49 1 21 49
M  V30 50 1 22 50
M  V30 51 1 23 51
M  V30 52 1 23 52
M  V30 53 1 24 53
M  V30 54 1 24 54
M  V30 55 1 25 55
M  V30 56 1 25 56
M  V30 57 1 26 57
M  V30 58 1 26 58
M  V30 59 1 26 59
M  V30 60 1 27 60
M  V30 61 1 27 61
M  V30 62 1 28 62
M  V30 63 1 28 63
M  V30 64 1 28 64
M  V30 END BOND
M  V30 BEGIN COLLECTION
M  V30 MDLV30/STEABS ATOMS=(1 22)
M  V30 END COLLECTION
M  V30 END CTAB
M  END
>  <Structure No>
597

>  <LogS>
-0.235193825

>  <MMFF94 Energy>
-56.656

$$$$
Compound 598
Actelion Java MolfileCreator 2.0

  0  0  0  0  0  0              0 V3000
M  V30 BEGIN CTAB
M  V30 COUNTS 33 32 0 0 0
M  V30 BEGIN ATOM
M  V30 1 O 1.7036 1.7036 0.3095 0
M  V30 2 C 2.4939 0.5478 0.1654 0
M  V30 3 C 1.7684 -0.6992 0.758 0
M  V30 4 C 2.802 0.3571 -1.3299 0
M  V30 5 C 3.8245 0.7586 0.9163 0
M  V30 6 C 0.4976 -1.175 0.0225 0
M  V30 7 C -0.648 -0.1481 0.0459 0
M  V30 8 C -1.9794 -0.7303 -0.4895 0 CFG=2
M  V30 9 C -2.9498 0.3856 -0.948 0
M  V30 10 C -2.6483 -1.672 0.5276 0
M  V30 11 C -3.3767 1.3471 0.1649 0
M  V30 12 H 1.5059 1.8222 1.2759 0
M  V30 13 H 1.5098 -0.5057 1.8226 0
M  V30 14 H 2.4808 -1.554 0.7618 0
M  V30 15 H 1.8674 0.3598 -1.9288 0
M  V30 16 H 3.4334 1.191 -1.7052 0
M  V30 17 H 3.3401 -0.5996 -1.5022 0
M  V30 18 H 4.3334 1.6772 0.5528 0
M  V30 19 H 4.5053 -0.1067 0.7641 0
M  V30 20 H 3.6431 0.8742 2.0067 0
M  V30 21 H 0.7364 -1.4545 -1.0251 0
M  V30 22 H 0.1652 -2.1045 0.5291 0
M  V30 23 H -0.7884 0.2325 1.0813 0
M  V30 24 H -0.3577 0.7064 -0.5999 0
M  V30 25 H -1.7526 -1.3329 -1.3976 0
M  V30 26 H -2.4701 0.9748 -1.7597 0
M  V30 27 H -3.861 -0.0777 -1.3855 0
M  V30 28 H -2.7463 -1.1846 1.5206 0
M  V30 29 H -3.6583 -1.9693 0.1733 0
M  V30 30 H -2.0553 -2.6012 0.6491 0
M  V30 31 H -4.0613 2.1131 -0.2567 0
M  V30 32 H -2.4982 1.871 0.5949 0
M  V30 33 H -3.9191 0.8074 0.9682 0
M  V30 END ATOM
M  V30 BEGIN BOND
M  V30 1 1 1 2
M  V30 2 1 2 3
M  V30 3 1 2 4
M  V30 4 1 2 5
M  V30 5 1 3 6
M  V30 6 1 6 7
M  V30 7 1 7 8
M  V30 8 1 8 9
M  V30 9 1 8 10
M  V30 10 1 9 11
M  V30 11 1 1 12
M  V30 12 1 3 13
M  V30 13 1 3 14
M  V30 14 1 4 15
M  V30 15 1 4 16
M  V30 16 1 4 17
M  V30 17 1 5 18
M  V30 18 1 5 19
M  V30 19 1 5 20
M  V30 20 1 6 21
M  V30 21 1 6 22
M  V30 22 1 7 23
M  V30 23 1 7 24
M  V30 24 1 8 25
M  V30 25 1 9 26
M  V30 26 1 9 27
M  V30 27 1 10 28
M  V30 28 1 10 29
M  V30 29 1 10 30
M  V30 30 1 11 31
M  V30 31 1 11 32
M  V30 32 1 11 33
M  V30 END BOND
M  V30 BEGIN COLLECTION
M  V30 MDLV30/STEABS ATOMS=(1 8)
M  V30 END COLLECTION
M  V30 END CTAB
M  END
>  <Structure No>
598

>  <LogS>
-2.749344685

>  <MMFF94 Energy>
15.395

$$$$
Compound 599
Actelion Java MolfileCreator 2.0

  0  0  0  0  0  0              0 V3000
M  V30 BEGIN CTAB
M  V30 COUNTS 11 11 0 0 0
M  V30 BEGIN ATOM
M  V30 1 Cl -2.6344 1.4922 -0.0877 0
M  V30 2 N -1.1879 0.5099 -0.0271 0
M  V30 3 C 0.0401 1.1006 0.0227 0
M  V30 4 C -1.2845 -0.8484 -0.0298 0
M  V30 5 O 0.1346 2.3588 0.0255 0
M  V30 6 N 1.1662 0.333 0.0699 0
M  V30 7 O -2.4114 -1.41 -0.0757 0
M  V30 8 N -0.1633 -1.6074 0.0169 0 CHG=-1
M  V30 9 Cl 2.7432 1.0879 0.134 0
M  V30 10 C 1.0587 -1.0245 0.0668 0
M  V30 11 O 2.0888 -1.7484 0.1099 0
M  V30 END ATOM
M  V30 BEGIN BOND
M  V30 1 1 1 2
M  V30 2 1 2 3
M  V30 3 1 2 4
M  V30 4 2 3 5
M  V30 5 1 3 6
M  V30 6 2 4 7
M  V30 7 1 4 8
M  V30 8 1 6 9
M  V30 9 1 6 10
M  V30 10 2 10 11
M  V30 11 1 8 10
M  V30 END BOND
M  V30 END CTAB
M  END
>  <Structure No>
599

>  <LogS>
-0.895160011

>  <MMFF94 Energy>
-10.295

$$$$
Compound 600
Actelion Java MolfileCreator 2.0

  0  0  0  0  0  0              0 V3000
M  V30 BEGIN CTAB
M  V30 COUNTS 18 18 0 0 0
M  V30 BEGIN ATOM
M  V30 1 S 2.8407 -0.2504 -0.6678 0
M  V30 2 O 3.6181 1.034 -0.7361 0
M  V30 3 O 2.8247 -0.8779 -2.0333 0
M  V30 4 O 3.5803 -1.2944 0.42 0 CHG=-1
M  V30 5 C 1.1925 0.0739 -0.1402 0
M  V30 6 C 0.1483 -0.7718 -0.5341 0
M  V30 7 C 0.922 1.1625 0.6945 0
M  V30 8 C -1.1702 -0.5333 -0.1112 0
M  V30 9 C -0.3836 1.4133 1.1192 0
M  V30 10 N -2.2018 -1.4357 -0.5353 0
M  V30 11 C -1.4374 0.5812 0.7228 0
M  V30 12 O -2.72 0.9001 1.1747 0
M  V30 13 H 0.3614 -1.6237 -1.168 0
M  V30 14 H 1.7205 1.8181 1.0182 0
M  V30 15 H -0.58 2.2633 1.7608 0
M  V30 16 H -1.9741 -2.2302 -1.1741 0
M  V30 17 H -3.1895 -1.3648 -0.2142 0
M  V30 18 H -3.5532 0.3879 0.9247 0
M  V30 END ATOM
M  V30 BEGIN BOND
M  V30 1 2 1 2
M  V30 2 2 1 3
M  V30 3 1 1 4
M  V30 4 1 1 5
M  V30 5 2 5 6
M  V30 6 1 5 7
M  V30 7 1 6 8
M  V30 8 2 7 9
M  V30 9 1 8 10
M  V30 10 2 8 11
M  V30 11 1 11 12
M  V30 12 1 9 11
M  V30 13 1 6 13
M  V30 14 1 7 14
M  V30 15 1 9 15
M  V30 16 1 10 16
M  V30 17 1 10 17
M  V30 18 1 12 18
M  V30 END BOND
M  V30 END CTAB
M  END
>  <Structure No>
600

>  <LogS>
-1.829744737

>  <MMFF94 Energy>
36.976

$$$$
Compound 601
Actelion Java MolfileCreator 2.0

  0  0  0  0  0  0              0 V3000
M  V30 BEGIN CTAB
M  V30 COUNTS 56 59 0 0 0
M  V30 BEGIN ATOM
M  V30 1 O -4.9516 -1.297 -2.1083 0
M  V30 2 C -4.171 -0.7791 -1.2663 0
M  V30 3 C -3.7639 0.6222 -1.4043 0
M  V30 4 C -3.5687 -1.6118 -0.1855 0
M  V30 5 C -3.0096 1.2339 -0.47 0
M  V30 6 C -3.4357 -0.759 1.072 0
M  V30 7 C -2.5987 0.5518 0.8492 0 CFG=1
M  V30 8 C -2.1703 2.4039 -0.905 0
M  V30 9 C -1.0099 0.3616 0.8506 0 CFG=1
M  V30 10 C -2.9848 1.5004 2.0154 0
M  V30 11 C -0.722 1.9363 -1.1665 0
M  V30 12 C -0.4884 -0.9044 1.6149 0 CFG=2
M  V30 13 C -0.3911 0.5261 -0.5853 0 CFG=1
M  V30 14 O -0.8453 -0.7985 2.9702 0
M  V30 15 C 1.0519 -1.0727 1.5251 0
M  V30 16 C 1.1391 0.3268 -0.5196 0 CFG=1
M  V30 17 C 1.5597 -1.027 0.0595 0 CFG=1
M  V30 18 C 1.9325 0.4696 -1.812 0
M  V30 19 C 3.1162 -0.9944 -0.1636 0 CFG=2
M  V30 20 C 0.9624 -2.2407 -0.7336 0
M  V30 21 C 3.2384 -0.3035 -1.5611 0
M  V30 22 O 3.6275 -2.3065 -0.2395 0
M  V30 23 C 3.8749 -0.2663 0.964 0
M  V30 24 O 3.9374 -0.8104 2.0575 0
M  V30 25 C 4.6563 1.0136 0.7843 0
M  V30 26 O 3.8187 2.046 0.3482 0
M  V30 27 H -3.9774 1.1177 -2.3442 0
M  V30 28 H -4.2185 -2.4881 0.0283 0
M  V30 29 H -2.577 -1.9797 -0.5171 0
M  V30 30 H -4.4729 -0.4875 1.3767 0
M  V30 31 H -3.0549 -1.3738 1.9104 0
M  V30 32 H -2.1733 3.1813 -0.114 0
M  V30 33 H -2.58 2.8937 -1.8162 0
M  V30 34 H -0.5726 1.2142 1.4207 0
M  V30 35 H -2.8017 1.0093 2.9947 0
M  V30 36 H -2.3998 2.4432 2.0036 0
M  V30 37 H -4.0612 1.7745 1.962 0
M  V30 38 H -0.5465 1.9141 -2.2643 0
M  V30 39 H -0.0312 2.6982 -0.7424 0
M  V30 40 H -0.9565 -1.8153 1.1896 0
M  V30 41 H -0.8403 -0.2229 -1.2694 0
M  V30 42 H -0.7721 -1.7082 3.362 0
M  V30 43 H 1.5038 -0.2518 2.1222 0
M  V30 44 H 1.351 -2.0348 1.9952 0
M  V30 45 H 1.5176 1.1223 0.1625 0
M  V30 46 H 2.1394 1.5392 -2.0347 0
M  V30 47 H 1.3736 0.0236 -2.6639 0
M  V30 48 H 1.2458 -3.1942 -0.2394 0
M  V30 49 H -0.1392 -2.2348 -0.7976 0
M  V30 50 H 1.3368 -2.2788 -1.7771 0
M  V30 51 H 4.1186 0.3588 -1.666 0
M  V30 52 H 3.3468 -1.0739 -2.3566 0
M  V30 53 H 4.5824 -2.2407 -0.5065 0
M  V30 54 H 5.4847 0.847 0.0616 0
M  V30 55 H 5.1168 1.3095 1.7541 0
M  V30 56 H 4.4043 2.8336 0.2015 0
M  V30 END ATOM
M  V30 BEGIN BOND
M  V30 1 2 1 2
M  V30 2 1 2 3
M  V30 3 1 2 4
M  V30 4 2 3 5
M  V30 5 1 4 6
M  V30 6 1 5 7
M  V30 7 1 5 8
M  V30 8 1 7 9
M  V30 9 1 7 10
M  V30 10 1 8 11
M  V30 11 1 9 12
M  V30 12 1 9 13
M  V30 13 1 12 14
M  V30 14 1 12 15
M  V30 15 1 13 16
M  V30 16 1 15 17
M  V30 17 1 16 18
M  V30 18 1 17 19
M  V30 19 1 17 20
M  V30 20 1 18 21
M  V30 21 1 19 22
M  V30 22 1 19 23
M  V30 23 2 23 24
M  V30 24 1 23 25
M  V30 25 1 25 26
M  V30 26 1 6 7
M  V30 27 1 11 13
M  V30 28 1 16 17
M  V30 29 1 19 21
M  V30 30 1 3 27
M  V30 31 1 4 28
M  V30 32 1 4 29
M  V30 33 1 6 30
M  V30 34 1 6 31
M  V30 35 1 8 32
M  V30 36 1 8 33
M  V30 37 1 9 34
M  V30 38 1 10 35
M  V30 39 1 10 36
M  V30 40 1 10 37
M  V30 41 1 11 38
M  V30 42 1 11 39
M  V30 43 1 12 40
M  V30 44 1 13 41
M  V30 45 1 14 42
M  V30 46 1 15 43
M  V30 47 1 15 44
M  V30 48 1 16 45
M  V30 49 1 18 46
M  V30 50 1 18 47
M  V30 51 1 20 48
M  V30 52 1 20 49
M  V30 53 1 20 50
M  V30 54 1 21 51
M  V30 55 1 21 52
M  V30 56 1 22 53
M  V30 57 1 25 54
M  V30 58 1 25 55
M  V30 59 1 26 56
M  V30 END BOND
M  V30 BEGIN COLLECTION
M  V30 MDLV30/STEABS ATOMS=(7 7 9 12 13 16 17 19)
M  V30 END COLLECTION
M  V30 END CTAB
M  END
>  <Structure No>
601

>  <LogS>
-3.112109244

>  <MMFF94 Energy>
130

$$$$
Compound 602
Actelion Java MolfileCreator 2.0

  0  0  0  0  0  0              0 V3000
M  V30 BEGIN CTAB
M  V30 COUNTS 53 52 0 0 0
M  V30 BEGIN ATOM
M  V30 1 O 6.8269 3.6051 0.0782 0
M  V30 2 C 6.2174 3.34 -0.9913 0
M  V30 3 O 5.4829 4.332 -1.6288 0 CHG=-1
M  V30 4 C 6.2571 1.9543 -1.5595 0
M  V30 5 C 4.9465 1.1971 -1.3064 0
M  V30 6 C 4.7612 0.8386 0.1785 0
M  V30 7 C 3.4169 0.147 0.4577 0
M  V30 8 C 3.3905 -1.3127 -0.0282 0
M  V30 9 C 2.0448 -1.9994 0.2542 0
M  V30 10 C 1.8638 -2.3581 1.7375 0
M  V30 11 C 0.5981 -3.1469 1.9634 0
M  V30 12 C -0.6456 -2.6298 1.9864 0
M  V30 13 C -0.9929 -1.1768 1.7558 0
M  V30 14 C -1.7318 -0.9757 0.4246 0
M  V30 15 C -3.1624 -1.5424 0.4532 0
M  V30 16 C -3.9487 -1.1989 -0.83 0
M  V30 17 C -4.9746 -0.0677 -0.6417 0
M  V30 18 C -4.3172 1.2931 -0.3601 0
M  V30 19 C -5.3424 2.4341 -0.2655 0
M  V30 20 C -5.9 2.8446 -1.6284 0
M  V30 21 H 6.4215 2.0308 -2.6557 0
M  V30 22 H 7.1136 1.3878 -1.1324 0
M  V30 23 H 4.9741 0.2663 -1.9106 0
M  V30 24 H 4.0874 1.8081 -1.662 0
M  V30 25 H 4.792 1.7719 0.7816 0
M  V30 26 H 5.5979 0.1907 0.5206 0
M  V30 27 H 3.2524 0.1684 1.5554 0
M  V30 28 H 2.5915 0.7223 -0.0162 0
M  V30 29 H 4.216 -1.8883 0.4448 0
M  V30 30 H 3.5511 -1.3349 -1.1263 0
M  V30 31 H 2.0029 -2.937 -0.3428 0
M  V30 32 H 1.219 -1.3466 -0.0956 0
M  V30 33 H 2.7211 -2.9903 2.0553 0
M  V30 34 H 1.8694 -1.4573 2.3841 0
M  V30 35 H 0.7059 -4.2097 2.1619 0
M  V30 36 H -1.4682 -3.312 2.1795 0
M  V30 37 H -0.0926 -0.5308 1.7609 0
M  V30 38 H -1.6308 -0.826 2.5953 0
M  V30 39 H -1.1604 -1.456 -0.3991 0
M  V30 40 H -1.7663 0.113 0.2118 0
M  V30 41 H -3.1 -2.6488 0.5378 0
M  V30 42 H -3.7029 -1.1771 1.354 0
M  V30 43 H -4.512 -2.1051 -1.144 0
M  V30 44 H -3.2632 -0.9509 -1.6703 0
M  V30 45 H -5.6703 -0.3285 0.1858 0
M  V30 46 H -5.573 -0.0036 -1.5745 0
M  V30 47 H -3.7895 1.2399 0.6156 0
M  V30 48 H -3.5642 1.5255 -1.1447 0
M  V30 49 H -6.178 2.145 0.4086 0
M  V30 50 H -4.8412 3.3194 0.1829 0
M  V30 51 H -6.5245 2.0361 -2.0606 0
M  V30 52 H -5.0738 3.0895 -2.3293 0
M  V30 53 H -6.5385 3.7453 -1.5087 0
M  V30 END ATOM
M  V30 BEGIN BOND
M  V30 1 2 1 2
M  V30 2 1 2 3
M  V30 3 1 2 4
M  V30 4 1 4 5
M  V30 5 1 5 6
M  V30 6 1 6 7
M  V30 7 1 7 8
M  V30 8 1 8 9
M  V30 9 1 9 10
M  V30 10 1 10 11
M  V30 11 2 11 12
M  V30 12 1 12 13
M  V30 13 1 13 14
M  V30 14 1 14 15
M  V30 15 1 15 16
M  V30 16 1 16 17
M  V30 17 1 17 18
M  V30 18 1 18 19
M  V30 19 1 19 20
M  V30 20 1 4 21
M  V30 21 1 4 22
M  V30 22 1 5 23
M  V30 23 1 5 24
M  V30 24 1 6 25
M  V30 25 1 6 26
M  V30 26 1 7 27
M  V30 27 1 7 28
M  V30 28 1 8 29
M  V30 29 1 8 30
M  V30 30 1 9 31
M  V30 31 1 9 32
M  V30 32 1 10 33
M  V30 33 1 10 34
M  V30 34 1 11 35
M  V30 35 1 12 36
M  V30 36 1 13 37
M  V30 37 1 13 38
M  V30 38 1 14 39
M  V30 39 1 14 40
M  V30 40 1 15 41
M  V30 41 1 15 42
M  V30 42 1 16 43
M  V30 43 1 16 44
M  V30 44 1 17 45
M  V30 45 1 17 46
M  V30 46 1 18 47
M  V30 47 1 18 48
M  V30 48 1 19 49
M  V30 49 1 19 50
M  V30 50 1 20 51
M  V30 51 1 20 52
M  V30 52 1 20 53
M  V30 END BOND
M  V30 END CTAB
M  END
>  <Structure No>
602

>  <LogS>
-3.08883445

>  <MMFF94 Energy>
8.9523

$$$$
Compound 603
Actelion Java MolfileCreator 2.0

  0  0  0  0  0  0              0 V3000
M  V30 BEGIN CTAB
M  V30 COUNTS 38 38 0 0 0
M  V30 BEGIN ATOM
M  V30 1 O 2.7465 1.5687 1.0979 0
M  V30 2 C 2.9785 1.5885 -0.2834 0
M  V30 3 C 2.9141 0.1712 -0.8885 0 CFG=2
M  V30 4 C 1.4699 -0.3776 -1.0104 0
M  V30 5 C 3.8676 -0.8013 -0.1783 0
M  V30 6 C 0.8466 -0.8747 0.3136 0
M  V30 7 C -0.6878 -1.1261 0.2958 0 CFG=1
M  V30 8 C -1.6276 0.0721 0.6476 0
M  V30 9 C -1.2738 -1.7426 -0.984 0
M  V30 10 C -2.895 -0.3202 -0.07 0
M  V30 11 C -1.1504 1.4339 0.1003 0
M  V30 12 C -1.8492 0.1651 2.1717 0
M  V30 13 C -2.6936 -1.3005 -0.9458 0
M  V30 14 C -4.2224 0.3727 0.0664 0
M  V30 15 H 2.7766 2.5146 1.3967 0
M  V30 16 H 3.9883 2.0159 -0.4764 0
M  V30 17 H 2.2315 2.2452 -0.7838 0
M  V30 18 H 3.2893 0.2703 -1.9321 0
M  V30 19 H 0.8382 0.3989 -1.4807 0
M  V30 20 H 1.4958 -1.2336 -1.72 0
M  V30 21 H 3.6053 -0.9116 0.8948 0
M  V30 22 H 3.8246 -1.7999 -0.6631 0
M  V30 23 H 4.9111 -0.4266 -0.2475 0
M  V30 24 H 1.075 -0.1855 1.148 0
M  V30 25 H 1.3417 -1.8373 0.5695 0
M  V30 26 H -0.8545 -1.9018 1.0813 0
M  V30 27 H -1.203 -2.8516 -0.9733 0
M  V30 28 H -0.8169 -1.3397 -1.9096 0
M  V30 29 H -0.1624 1.7136 0.5198 0
M  V30 30 H -1.8681 2.235 0.3789 0
M  V30 31 H -1.0936 1.4192 -1.0082 0
M  V30 32 H -2.3257 -0.7613 2.5594 0
M  V30 33 H -0.8774 0.3056 2.6911 0
M  V30 34 H -2.5034 1.0239 2.4317 0
M  V30 35 H -3.461 -1.6782 -1.6147 0
M  V30 36 H -4.9795 -0.345 0.4459 0
M  V30 37 H -4.1572 1.228 0.7688 0
M  V30 38 H -4.5479 0.7578 -0.9229 0
M  V30 END ATOM
M  V30 BEGIN BOND
M  V30 1 1 1 2
M  V30 2 1 2 3
M  V30 3 1 3 4
M  V30 4 1 3 5
M  V30 5 1 4 6
M  V30 6 1 6 7
M  V30 7 1 7 8
M  V30 8 1 7 9
M  V30 9 1 8 10
M  V30 10 1 8 11
M  V30 11 1 8 12
M  V30 12 1 9 13
M  V30 13 1 10 14
M  V30 14 2 10 13
M  V30 15 1 1 15
M  V30 16 1 2 16
M  V30 17 1 2 17
M  V30 18 1 3 18
M  V30 19 1 4 19
M  V30 20 1 4 20
M  V30 21 1 5 21
M  V30 22 1 5 22
M  V30 23 1 5 23
M  V30 24 1 6 24
M  V30 25 1 6 25
M  V30 26 1 7 26
M  V30 27 1 9 27
M  V30 28 1 9 28
M  V30 29 1 11 29
M  V30 30 1 11 30
M  V30 31 1 11 31
M  V30 32 1 12 32
M  V30 33 1 12 33
M  V30 34 1 12 34
M  V30 35 1 13 35
M  V30 36 1 14 36
M  V30 37 1 14 37
M  V30 38 1 14 38
M  V30 END BOND
M  V30 BEGIN COLLECTION
M  V30 MDLV30/STEABS ATOMS=(2 3 7)
M  V30 END COLLECTION
M  V30 END CTAB
M  END
>  <Structure No>
603

>  <LogS>
-3.842746406

>  <MMFF94 Energy>
33.765

$$$$
Compound 604
Actelion Java MolfileCreator 2.0

  0  0  0  0  0  0              0 V3000
M  V30 BEGIN CTAB
M  V30 COUNTS 45 44 0 0 0
M  V30 BEGIN ATOM
M  V30 1 O 3.9717 -0.8556 -2.7243 0
M  V30 2 C 4.1553 -0.7014 -1.4843 0
M  V30 3 N 5.2732 -1.3572 -0.8466 0
M  V30 4 C 3.1814 0.1339 -0.684 0
M  V30 5 C 6.2008 -2.1446 -1.6652 0
M  V30 6 C 5.4781 -1.2528 0.6027 0
M  V30 7 C 2.1808 0.8996 -1.5674 0
M  V30 8 C 1.2881 1.8559 -0.7602 0
M  V30 9 C 0.2733 1.1155 0.1241 0
M  V30 10 C -0.7015 2.1022 0.7839 0
M  V30 11 C -1.6086 1.4391 1.8368 0
M  V30 12 C -2.514 0.3132 1.3043 0
M  V30 13 C -3.5153 0.8011 0.2433 0
M  V30 14 C -4.4779 -0.3074 -0.2122 0
M  V30 15 C -5.5672 -0.6104 0.8276 0
M  V30 16 C -6.5719 -1.6255 0.2899 0
M  V30 17 H 3.7526 0.8668 -0.0754 0
M  V30 18 H 2.6303 -0.5441 0.0 0
M  V30 19 H 7.019 -2.5839 -1.0568 0
M  V30 20 H 6.6585 -1.4952 -2.4411 0
M  V30 21 H 5.6522 -2.974 -2.1597 0
M  V30 22 H 6.3454 -1.8578 0.9402 0
M  V30 23 H 4.5783 -1.6211 1.1389 0
M  V30 24 H 5.6703 -0.1958 0.8813 0
M  V30 25 H 2.7481 1.5063 -2.3072 0
M  V30 26 H 1.5459 0.1815 -2.1318 0
M  V30 27 H 1.921 2.5225 -0.1339 0
M  V30 28 H 0.7347 2.4973 -1.4809 0
M  V30 29 H 0.8095 0.5526 0.9173 0
M  V30 30 H -0.2955 0.3983 -0.5052 0
M  V30 31 H -1.3158 2.6072 0.0089 0
M  V30 32 H -0.1155 2.895 1.2988 0
M  V30 33 H -2.2464 2.2244 2.2986 0
M  V30 34 H -0.9704 1.0244 2.6474 0
M  V30 35 H -1.8978 -0.515 0.8953 0
M  V30 36 H -3.0695 -0.096 2.1734 0
M  V30 37 H -2.9537 1.1401 -0.6526 0
M  V30 38 H -4.0927 1.669 0.6308 0
M  V30 39 H -3.9062 -1.2326 -0.4451 0
M  V30 40 H -4.9683 0.0296 -1.1521 0
M  V30 41 H -6.1091 0.3244 1.0895 0
M  V30 42 H -5.1126 -1.0251 1.7513 0
M  V30 43 H -6.0592 -2.5777 0.0357 0
M  V30 44 H -7.0768 -1.2273 -0.6158 0
M  V30 45 H -7.3419 -1.832 1.0628 0
M  V30 END ATOM
M  V30 BEGIN BOND
M  V30 1 2 1 2
M  V30 2 1 2 3
M  V30 3 1 2 4
M  V30 4 1 3 5
M  V30 5 1 3 6
M  V30 6 1 4 7
M  V30 7 1 7 8
M  V30 8 1 8 9
M  V30 9 1 9 10
M  V30 10 1 10 11
M  V30 11 1 11 12
M  V30 12 1 12 13
M  V30 13 1 13 14
M  V30 14 1 14 15
M  V30 15 1 15 16
M  V30 16 1 4 17
M  V30 17 1 4 18
M  V30 18 1 5 19
M  V30 19 1 5 20
M  V30 20 1 5 21
M  V30 21 1 6 22
M  V30 22 1 6 23
M  V30 23 1 6 24
M  V30 24 1 7 25
M  V30 25 1 7 26
M  V30 26 1 8 27
M  V30 27 1 8 28
M  V30 28 1 9 29
M  V30 29 1 9 30
M  V30 30 1 10 31
M  V30 31 1 10 32
M  V30 32 1 11 33
M  V30 33 1 11 34
M  V30 34 1 12 35
M  V30 35 1 12 36
M  V30 36 1 13 37
M  V30 37 1 13 38
M  V30 38 1 14 39
M  V30 39 1 14 40
M  V30 40 1 15 41
M  V30 41 1 15 42
M  V30 42 1 16 43
M  V30 43 1 16 44
M  V30 44 1 16 45
M  V30 END BOND
M  V30 END CTAB
M  END
>  <Structure No>
604

>  <LogS>
-3.909307051

>  <MMFF94 Energy>
-13.703

$$$$
Compound 605
Actelion Java MolfileCreator 2.0

  0  0  0  0  0  0              0 V3000
M  V30 BEGIN CTAB
M  V30 COUNTS 31 31 0 0 0
M  V30 BEGIN ATOM
M  V30 1 O 3.0686 -0.1571 1.3367 0
M  V30 2 C 2.8242 -0.3302 -0.0358 0 CFG=1
M  V30 3 C 2.188 0.9338 -0.6351 0
M  V30 4 C 1.9071 -1.5408 -0.2496 0
M  V30 5 C 0.7853 1.1877 -0.0655 0
M  V30 6 C 0.5017 -1.2981 0.3192 0
M  V30 7 C -0.151 -0.0297 -0.2943 0 CFG=2
M  V30 8 C -1.6387 0.2145 0.1861 0
M  V30 9 C -2.5217 -1.0087 -0.1632 0
M  V30 10 C -2.2436 1.4377 -0.5463 0
M  V30 11 C -1.7356 0.464 1.7092 0
M  V30 12 H 3.8525 0.4471 1.414 0
M  V30 13 H 3.7864 -0.5312 -0.5615 0
M  V30 14 H 2.8354 1.8123 -0.4234 0
M  V30 15 H 2.1233 0.8261 -1.7403 0
M  V30 16 H 1.8317 -1.7604 -1.3376 0
M  V30 17 H 2.3533 -2.4327 0.2417 0
M  V30 18 H 0.388 2.089 -0.5741 0
M  V30 19 H 0.8762 1.4132 1.0177 0
M  V30 20 H -0.1003 -2.1995 0.0882 0
M  V30 21 H 0.5752 -1.2047 1.423 0
M  V30 22 H -0.1951 -0.1953 -1.3954 0
M  V30 23 H -2.4013 -1.2886 -1.2318 0
M  V30 24 H -3.5965 -0.7886 0.0164 0
M  V30 25 H -2.2721 -1.8862 0.4684 0
M  V30 26 H -2.1018 1.3484 -1.6449 0
M  V30 27 H -3.3336 1.5235 -0.3453 0
M  V30 28 H -1.7861 2.3879 -0.2011 0
M  V30 29 H -1.1646 1.3656 2.0109 0
M  V30 30 H -1.3648 -0.4058 2.2884 0
M  V30 31 H -2.7943 0.6302 2.0052 0
M  V30 END ATOM
M  V30 BEGIN BOND
M  V30 1 1 1 2
M  V30 2 1 2 3
M  V30 3 1 2 4
M  V30 4 1 3 5
M  V30 5 1 4 6
M  V30 6 1 5 7
M  V30 7 1 7 8
M  V30 8 1 8 9
M  V30 9 1 8 10
M  V30 10 1 8 11
M  V30 11 1 6 7
M  V30 12 1 1 12
M  V30 13 1 2 13
M  V30 14 1 3 14
M  V30 15 1 3 15
M  V30 16 1 4 16
M  V30 17 1 4 17
M  V30 18 1 5 18
M  V30 19 1 5 19
M  V30 20 1 6 20
M  V30 21 1 6 21
M  V30 22 1 7 22
M  V30 23 1 9 23
M  V30 24 1 9 24
M  V30 25 1 9 25
M  V30 26 1 10 26
M  V30 27 1 10 27
M  V30 28 1 10 28
M  V30 29 1 11 29
M  V30 30 1 11 30
M  V30 31 1 11 31
M  V30 END BOND
M  V30 BEGIN COLLECTION
M  V30 MDLV30/STEABS ATOMS=(2 2 7)
M  V30 END COLLECTION
M  V30 END CTAB
M  END
>  <Structure No>
605

>  <LogS>
-3.103262125

>  <MMFF94 Energy>
24.612

$$$$
Compound 606
Actelion Java MolfileCreator 2.0

  0  0  0  0  0  0              0 V3000
M  V30 BEGIN CTAB
M  V30 COUNTS 53 52 0 0 0
M  V30 BEGIN ATOM
M  V30 1 N -6.3601 0.8513 -0.0773 0 CHG=1
M  V30 2 C -5.75 0.7576 1.2726 0
M  V30 3 C -6.8691 -0.4518 -0.5458 0
M  V30 4 C -7.4627 1.8295 -0.0512 0
M  V30 5 C -4.5096 -0.1586 1.3498 0
M  V30 6 C -3.3648 0.2939 0.4311 0
M  V30 7 C -2.0856 -0.5036 0.7131 0
M  V30 8 C -0.948 -0.0679 -0.2181 0
M  V30 9 C 0.3312 -0.865 0.0639 0
M  V30 10 C 1.4724 -0.418 -0.8622 0
M  V30 11 C 2.7333 -1.2841 -0.7131 0
M  V30 12 C 3.4697 -1.031 0.614 0
M  V30 13 C 4.7646 -1.8517 0.7425 0
M  V30 14 C 5.8938 -1.4453 -0.2245 0
M  V30 15 C 6.4137 -0.0082 -0.0075 0
M  V30 16 C 5.8944 0.9662 -1.0754 0
M  V30 17 C 6.4063 2.3818 -0.8251 0
M  V30 18 H -5.6529 1.2043 -0.7628 0
M  V30 19 H -5.4399 1.7709 1.6161 0
M  V30 20 H -6.5014 0.3865 2.0067 0
M  V30 21 H -6.0299 -1.1417 -0.7747 0
M  V30 22 H -7.4416 -0.3345 -1.4925 0
M  V30 23 H -7.5335 -0.9207 0.2137 0
M  V30 24 H -8.2687 1.5063 0.6453 0
M  V30 25 H -7.0919 2.828 0.2702 0
M  V30 26 H -7.8983 1.9551 -1.0672 0
M  V30 27 H -4.7852 -1.2108 1.1275 0
M  V30 28 H -4.151 -0.1406 2.4026 0
M  V30 29 H -3.1655 1.3765 0.5914 0
M  V30 30 H -3.6545 0.1357 -0.6296 0
M  V30 31 H -1.7767 -0.3431 1.7697 0
M  V30 32 H -2.2884 -1.5874 0.5647 0
M  V30 33 H -0.7458 1.016 -0.07 0
M  V30 34 H -1.2566 -0.2286 -1.2749 0
M  V30 35 H 0.13 -1.9478 -0.0918 0
M  V30 36 H 0.6245 -0.7065 1.1235 0
M  V30 37 H 1.1277 -0.4951 -1.9169 0
M  V30 38 H 1.723 0.6482 -0.6681 0
M  V30 39 H 2.465 -2.3599 -0.7986 0
M  V30 40 H 3.4043 -1.0383 -1.5616 0
M  V30 41 H 3.6843 0.0501 0.7425 0
M  V30 42 H 2.8087 -1.331 1.4541 0
M  V30 43 H 4.5281 -2.9265 0.5833 0
M  V30 44 H 5.1397 -1.7579 1.7853 0
M  V30 45 H 6.7392 -2.1448 -0.0433 0
M  V30 46 H 5.589 -1.614 -1.2789 0
M  V30 47 H 6.1458 0.3586 1.0077 0
M  V30 48 H 7.5248 -0.0224 -0.0641 0
M  V30 49 H 6.2373 0.6343 -2.0796 0
M  V30 50 H 4.7854 0.9864 -1.0781 0
M  V30 51 H 6.023 3.061 -1.6156 0
M  V30 52 H 6.0527 2.7505 0.1614 0
M  V30 53 H 7.5168 2.4009 -0.848 0
M  V30 END ATOM
M  V30 BEGIN BOND
M  V30 1 1 1 2
M  V30 2 1 1 3
M  V30 3 1 1 4
M  V30 4 1 2 5
M  V30 5 1 5 6
M  V30 6 1 6 7
M  V30 7 1 7 8
M  V30 8 1 8 9
M  V30 9 1 9 10
M  V30 10 1 10 11
M  V30 11 1 11 12
M  V30 12 1 12 13
M  V30 13 1 13 14
M  V30 14 1 14 15
M  V30 15 1 15 16
M  V30 16 1 16 17
M  V30 17 1 1 18
M  V30 18 1 2 19
M  V30 19 1 2 20
M  V30 20 1 3 21
M  V30 21 1 3 22
M  V30 22 1 3 23
M  V30 23 1 4 24
M  V30 24 1 4 25
M  V30 25 1 4 26
M  V30 26 1 5 27
M  V30 27 1 5 28
M  V30 28 1 6 29
M  V30 29 1 6 30
M  V30 30 1 7 31
M  V30 31 1 7 32
M  V30 32 1 8 33
M  V30 33 1 8 34
M  V30 34 1 9 35
M  V30 35 1 9 36
M  V30 36 1 10 37
M  V30 37 1 10 38
M  V30 38 1 11 39
M  V30 39 1 11 40
M  V30 40 1 12 41
M  V30 41 1 12 42
M  V30 42 1 13 43
M  V30 43 1 13 44
M  V30 44 1 14 45
M  V30 45 1 14 46
M  V30 46 1 15 47
M  V30 47 1 15 48
M  V30 48 1 16 49
M  V30 49 1 16 50
M  V30 50 1 17 51
M  V30 51 1 17 52
M  V30 52 1 17 53
M  V30 END BOND
M  V30 END CTAB
M  END
>  <Structure No>
606

>  <LogS>
-3.935692561

>  <MMFF94 Energy>
4.8193

$$$$
Compound 607
Actelion Java MolfileCreator 2.0

  0  0  0  0  0  0              0 V3000
M  V30 BEGIN CTAB
M  V30 COUNTS 11 10 0 0 0
M  V30 BEGIN ATOM
M  V30 1 Cl -1.7361 1.4992 0.4732 0
M  V30 2 C -1.2304 -0.0719 -0.2048 0
M  V30 3 C 0.1096 -0.5249 0.3786 0
M  V30 4 C 1.2709 0.3413 -0.1059 0
M  V30 5 H -2.0091 -0.8228 0.0463 0
M  V30 6 H -1.1667 0.0056 -1.3111 0
M  V30 7 H 0.0636 -0.4991 1.4888 0
M  V30 8 H 0.2978 -1.5754 0.0681 0
M  V30 9 H 1.3344 0.3176 -1.2146 0
M  V30 10 H 1.144 1.3912 0.2323 0
M  V30 11 H 2.2229 -0.049 0.3113 0
M  V30 END ATOM
M  V30 BEGIN BOND
M  V30 1 1 1 2
M  V30 2 1 2 3
M  V30 3 1 3 4
M  V30 4 1 2 5
M  V30 5 1 2 6
M  V30 6 1 3 7
M  V30 7 1 3 8
M  V30 8 1 4 9
M  V30 9 1 4 10
M  V30 10 1 4 11
M  V30 END BOND
M  V30 END CTAB
M  END
>  <Structure No>
607

>  <LogS>
-1.45340682

>  <MMFF94 Energy>
-2.386

$$$$
Compound 608
Actelion Java MolfileCreator 2.0

  0  0  0  0  0  0              0 V3000
M  V30 BEGIN CTAB
M  V30 COUNTS 14 14 0 0 0
M  V30 BEGIN ATOM
M  V30 1 Cl -2.2384 2.4874 0.0828 0
M  V30 2 C -1.2477 1.0405 0.031 0
M  V30 3 C 0.1477 1.1477 0.0153 0
M  V30 4 C -1.8531 -0.2191 0.0056 0
M  V30 5 C 0.9513 -0.0066 -0.0261 0
M  V30 6 C -1.0656 -1.3716 -0.0355 0
M  V30 7 N 2.3862 0.1051 -0.0423 0 CHG=1
M  V30 8 C 0.3285 -1.2692 -0.0514 0
M  V30 9 O 3.1042 -0.9157 -0.0789 0
M  V30 10 O 2.9919 1.3407 -0.0173 0 CHG=-1
M  V30 11 H 0.6003 2.1308 0.0354 0
M  V30 12 H -2.9322 -0.306 0.0177 0
M  V30 13 H -1.5361 -2.3462 -0.0551 0
M  V30 14 H 0.9186 -2.1761 -0.0833 0
M  V30 END ATOM
M  V30 BEGIN BOND
M  V30 1 1 1 2
M  V30 2 2 2 3
M  V30 3 1 2 4
M  V30 4 1 3 5
M  V30 5 2 4 6
M  V30 6 1 5 7
M  V30 7 2 5 8
M  V30 8 2 7 9
M  V30 9 1 7 10
M  V30 10 1 6 8
M  V30 11 1 3 11
M  V30 12 1 4 12
M  V30 13 1 6 13
M  V30 14 1 8 14
M  V30 END BOND
M  V30 END CTAB
M  END
>  <Structure No>
608

>  <LogS>
-2.7612723

>  <MMFF94 Energy>
36.994

$$$$
Compound 609
Actelion Java MolfileCreator 2.0

  0  0  0  0  0  0              0 V3000
M  V30 BEGIN CTAB
M  V30 COUNTS 23 24 0 0 0
M  V30 BEGIN ATOM
M  V30 1 O 3.5103 -0.9564 1.5146 0
M  V30 2 C 2.8797 -0.3163 0.6296 0
M  V30 3 C 1.3921 -0.3637 0.6029 0
M  V30 4 C 3.6668 0.476 -0.3709 0
M  V30 5 C 0.6541 0.3386 -0.3709 0
M  V30 6 C 0.697 -1.1219 1.5642 0
M  V30 7 C -0.7483 0.2843 -0.3833 0
M  V30 8 C -0.6985 -1.1808 1.5581 0
M  V30 9 C -1.4305 -0.4824 0.5901 0
M  V30 10 C -1.483 0.9844 -1.3539 0
M  V30 11 C -2.8332 -0.5359 0.5763 0
M  V30 12 C -2.8795 0.9233 -1.3572 0
M  V30 13 C -3.5525 0.1657 -0.3952 0
M  V30 14 H 4.756 0.3781 -0.1757 0
M  V30 15 H 3.4595 0.1019 -1.3952 0
M  V30 16 H 3.3935 1.5497 -0.3011 0
M  V30 17 H 1.1619 0.9298 -1.1223 0
M  V30 18 H 1.2331 -1.6735 2.3264 0
M  V30 19 H -1.2051 -1.7729 2.3111 0
M  V30 20 H -0.9789 1.5772 -2.1077 0
M  V30 21 H -3.3715 -1.1184 1.3146 0
M  V30 22 H -3.4416 1.4646 -2.1071 0
M  V30 23 H -4.6339 0.122 -0.4025 0
M  V30 END ATOM
M  V30 BEGIN BOND
M  V30 1 2 1 2
M  V30 2 1 2 3
M  V30 3 1 2 4
M  V30 4 2 3 5
M  V30 5 1 3 6
M  V30 6 1 5 7
M  V30 7 2 6 8
M  V30 8 1 7 9
M  V30 9 2 7 10
M  V30 10 2 9 11
M  V30 11 1 10 12
M  V30 12 1 11 13
M  V30 13 1 8 9
M  V30 14 2 12 13
M  V30 15 1 4 14
M  V30 16 1 4 15
M  V30 17 1 4 16
M  V30 18 1 5 17
M  V30 19 1 6 18
M  V30 20 1 8 19
M  V30 21 1 10 20
M  V30 22 1 11 21
M  V30 23 1 12 22
M  V30 24 1 13 23
M  V30 END BOND
M  V30 END CTAB
M  END
>  <Structure No>
609

>  <LogS>
-2.796418719

>  <MMFF94 Energy>
46.045

$$$$
Compound 610
Actelion Java MolfileCreator 2.0

  0  0  0  0  0  0              0 V3000
M  V30 BEGIN CTAB
M  V30 COUNTS 84 89 0 0 0
M  V30 BEGIN ATOM
M  V30 1 S -1.0038 4.3552 1.0038 0
M  V30 2 O -1.6453 5.4197 1.8496 0
M  V30 3 O -0.562 4.9941 -0.2829 0
M  V30 4 O 0.3249 3.7425 1.8277 0 CHG=-1
M  V30 5 C -2.1686 3.0559 0.6743 0
M  V30 6 C -2.1262 2.2212 -0.5688 0
M  V30 7 C -3.224 2.9445 1.4984 0
M  V30 8 N -1.0473 1.9702 -1.2583 0
M  V30 9 C -3.3725 1.5669 -0.9973 0
M  V30 10 C -4.3704 2.0476 1.2137 0
M  V30 11 N 0.2516 2.3411 -0.8813 0
M  V30 12 O -3.5238 1.2607 -2.211 0
M  V30 13 C -4.4449 1.3292 0.0025 0
M  V30 14 C -5.3968 1.9417 2.157 0
M  V30 15 C 1.0606 1.4889 -0.0555 0
M  V30 16 C -5.5224 0.4268 -0.2108 0
M  V30 17 C -6.5164 1.1463 1.9062 0
M  V30 18 C 0.569 0.2662 0.4349 0
M  V30 19 C 2.37 1.8763 0.264 0
M  V30 20 N -5.4494 -0.5667 -1.2495 0
M  V30 21 C -6.6029 0.4102 0.7101 0
M  V30 22 S -7.8248 1.0846 3.095 0
M  V30 23 C 1.3824 -0.5589 1.2162 0
M  V30 24 C 3.1736 1.0625 1.0669 0
M  V30 25 N -7.7875 -0.364 0.4744 0
M  V30 26 O -9.0699 1.6793 2.5006 0
M  V30 27 O -7.454 1.8567 4.3305 0
M  V30 28 O -8.117 -0.5118 3.5248 0 CHG=-1
M  V30 29 C 2.6877 -0.1646 1.5385 0
M  V30 30 N -8.3415 -0.42 -0.6698 0
M  V30 31 S 3.7187 -1.2362 2.4864 0
M  V30 32 C -9.5189 -1.2009 -0.9046 0
M  V30 33 O 2.8663 -1.9744 3.4818 0
M  V30 34 O 4.7519 -0.4495 3.2451 0
M  V30 35 N 4.4921 -2.3866 1.4395 0
M  V30 36 C -10.0709 -1.2206 -2.1914 0
M  V30 37 C -10.1219 -1.9568 0.1173 0
M  V30 38 C 5.2556 -2.0123 0.2807 0
M  V30 39 C -11.2109 -1.9845 -2.4615 0
M  V30 40 C -11.2585 -2.7256 -0.1533 0
M  V30 41 C 5.3143 -2.8852 -0.8173 0
M  V30 42 C 5.957 -0.7955 0.2225 0
M  V30 43 C -11.8152 -2.748 -1.446 0
M  V30 44 C 6.0432 -2.5404 -1.9597 0
M  V30 45 C 6.6809 -0.4502 -0.9207 0
M  V30 46 N -12.9845 -3.5386 -1.728 0 CHG=1
M  V30 47 C 6.7513 -1.3344 -2.0094 0
M  V30 48 O -13.4693 -4.2922 -0.8563 0
M  V30 49 O -13.5946 -3.4682 -2.9602 0 CHG=-1
M  V30 50 N 7.4843 -1.0022 -3.2011 0
M  V30 51 N 8.6521 -0.4804 -3.2327 0
M  V30 52 C 9.4852 -0.2552 -2.0837 0
M  V30 53 C 9.8792 -1.312 -1.23 0
M  V30 54 C 9.9219 1.0483 -1.8179 0
M  V30 55 N 9.5502 -2.6741 -1.5317 0
M  V30 56 C 10.6401 -1.0263 -0.0857 0
M  V30 57 C 10.6857 1.3205 -0.68 0
M  V30 58 C 11.0386 0.2873 0.1974 0
M  V30 59 N 11.8096 0.5692 1.3698 0
M  V30 60 H -3.2664 3.5537 2.3939 0
M  V30 61 H 0.7266 3.0908 -1.4331 0
M  V30 62 H -5.3314 2.503 3.0821 0
M  V30 63 H -0.436 -0.0608 0.2024 0
M  V30 64 H 2.7644 2.8169 -0.1003 0
M  V30 65 H -4.5473 -0.7975 -1.7202 0
M  V30 66 H -6.1874 -1.2902 -1.3753 0
M  V30 67 H 0.9937 -1.5068 1.5668 0
M  V30 68 H 4.1731 1.3929 1.3165 0
M  V30 69 H 4.2204 -3.3882 1.5577 0
M  V30 70 H -9.6135 -0.644 -2.9886 0
M  V30 71 H -9.7137 -1.9607 1.1193 0
M  V30 72 H -11.6136 -1.9832 -3.4671 0
M  V30 73 H -11.7031 -3.3026 0.6479 0
M  V30 74 H 4.7831 -3.8287 -0.7931 0
M  V30 75 H 5.9647 -0.1132 1.0582 0
M  V30 76 H 6.0712 -3.2209 -2.8015 0
M  V30 77 H 7.1812 0.508 -0.9545 0
M  V30 78 H 9.6435 1.8594 -2.4815 0
M  V30 79 H 9.1293 -2.9454 -2.4474 0
M  V30 80 H 9.7905 -3.4422 -0.8633 0
M  V30 81 H 10.937 -1.8301 0.5761 0
M  V30 82 H 10.9964 2.3376 -0.4785 0
M  V30 83 H 12.0745 -0.1941 2.0324 0
M  V30 84 H 12.1151 1.544 1.5894 0
M  V30 END ATOM
M  V30 BEGIN BOND
M  V30 1 2 1 2
M  V30 2 2 1 3
M  V30 3 1 1 4
M  V30 4 1 1 5
M  V30 5 1 5 6
M  V30 6 2 5 7
M  V30 7 2 6 8
M  V30 8 1 6 9
M  V30 9 1 7 10
M  V30 10 1 8 11
M  V30 11 2 9 12
M  V30 12 1 9 13
M  V30 13 1 10 14
M  V30 14 1 11 15
M  V30 15 1 13 16
M  V30 16 2 14 17
M  V30 17 2 15 18
M  V30 18 1 15 19
M  V30 19 1 16 20
M  V30 20 2 16 21
M  V30 21 1 17 22
M  V30 22 1 18 23
M  V30 23 2 19 24
M  V30 24 1 21 25
M  V30 25 2 22 26
M  V30 26 2 22 27
M  V30 27 1 22 28
M  V30 28 2 23 29
M  V30 29 2 25 30
M  V30 30 1 29 31
M  V30 31 1 30 32
M  V30 32 2 31 33
M  V30 33 2 31 34
M  V30 34 1 31 35
M  V30 35 2 32 36
M  V30 36 1 32 37
M  V30 37 1 35 38
M  V30 38 1 36 39
M  V30 39 2 37 40
M  V30 40 2 38 41
M  V30 41 1 38 42
M  V30 42 2 39 43
M  V30 43 1 41 44
M  V30 44 2 42 45
M  V30 45 1 43 46
M  V30 46 2 44 47
M  V30 47 2 46 48
M  V30 48 1 46 49
M  V30 49 1 47 50
M  V30 50 2 50 51
M  V30 51 1 51 52
M  V30 52 2 52 53
M  V30 53 1 52 54
M  V30 54 1 53 55
M  V30 55 1 53 56
M  V30 56 2 54 57
M  V30 57 2 56 58
M  V30 58 1 58 59
M  V30 59 2 10 13
M  V30 60 1 17 21
M  V30 61 1 24 29
M  V30 62 1 40 43
M  V30 63 1 45 47
M  V30 64 1 57 58
M  V30 65 1 7 60
M  V30 66 1 11 61
M  V30 67 1 14 62
M  V30 68 1 18 63
M  V30 69 1 19 64
M  V30 70 1 20 65
M  V30 71 1 20 66
M  V30 72 1 23 67
M  V30 73 1 24 68
M  V30 74 1 35 69
M  V30 75 1 36 70
M  V30 76 1 37 71
M  V30 77 1 39 72
M  V30 78 1 40 73
M  V30 79 1 41 74
M  V30 80 1 42 75
M  V30 81 1 44 76
M  V30 82 1 45 77
M  V30 83 1 54 78
M  V30 84 1 55 79
M  V30 85 1 55 80
M  V30 86 1 56 81
M  V30 87 1 57 82
M  V30 88 1 59 83
M  V30 89 1 59 84
M  V30 END BOND
M  V30 END CTAB
M  END
>  <Structure No>
610

>  <LogS>
-0.525678621

>  <MMFF94 Energy>
216.25

$$$$
Compound 611
Actelion Java MolfileCreator 2.0

  0  0  0  0  0  0              0 V3000
M  V30 BEGIN CTAB
M  V30 COUNTS 11 10 0 0 0
M  V30 BEGIN ATOM
M  V30 1 Cl -0.1662 2.1627 0.0831 0
M  V30 2 C -0.0037 0.4366 -0.3531 0 CFG=1
M  V30 3 C 1.206 -0.1817 0.3552 0
M  V30 4 C -1.2886 -0.3001 0.0219 0
M  V30 5 Cl 2.7275 0.5405 -0.2336 0
M  V30 6 H 0.1382 0.3633 -1.4531 0
M  V30 7 H 1.1319 -0.0266 1.453 0
M  V30 8 H 1.2472 -1.2735 0.1538 0
M  V30 9 H -1.4649 -0.2427 1.1176 0
M  V30 10 H -2.1534 0.1566 -0.5046 0
M  V30 11 H -1.2216 -1.3674 -0.2787 0
M  V30 END ATOM
M  V30 BEGIN BOND
M  V30 1 1 1 2
M  V30 2 1 2 3
M  V30 3 1 2 4
M  V30 4 1 3 5
M  V30 5 1 2 6
M  V30 6 1 3 7
M  V30 7 1 3 8
M  V30 8 1 4 9
M  V30 9 1 4 10
M  V30 10 1 4 11
M  V30 END BOND
M  V30 BEGIN COLLECTION
M  V30 MDLV30/STEABS ATOMS=(1 2)
M  V30 END COLLECTION
M  V30 END CTAB
M  END
>  <Structure No>
611

>  <LogS>
-1.621664713

>  <MMFF94 Energy>
8.5389

$$$$
Compound 612
Actelion Java MolfileCreator 2.0

  0  0  0  0  0  0              0 V3000
M  V30 BEGIN CTAB
M  V30 COUNTS 20 20 0 0 0
M  V30 BEGIN ATOM
M  V30 1 N 1.0098 -0.3882 0.2329 0
M  V30 2 C -0.4069 -0.2356 0.0241 0
M  V30 3 C 2.0163 0.3774 -0.5055 0
M  V30 4 C -1.3011 -1.0134 0.7793 0
M  V30 5 C -0.9249 0.6747 -0.9193 0
M  V30 6 C 3.4264 -0.0032 -0.0655 0
M  V30 7 C -2.6816 -0.8861 0.5977 0
M  V30 8 C -2.3067 0.7981 -1.0969 0
M  V30 9 C -3.184 0.0187 -0.3396 0
M  V30 10 H 1.3293 -1.0814 0.9485 0
M  V30 11 H 1.8648 1.463 -0.3224 0
M  V30 12 H 1.9132 0.1737 -1.5931 0
M  V30 13 H -0.9276 -1.7196 1.5102 0
M  V30 14 H -0.2711 1.2916 -1.5203 0
M  V30 15 H 3.6074 -1.0826 -0.2544 0
M  V30 16 H 4.1694 0.59 -0.6391 0
M  V30 17 H 3.5589 0.2076 1.017 0
M  V30 18 H -3.362 -1.4898 1.1844 0
M  V30 19 H -2.6977 1.4991 -1.8232 0
M  V30 20 H -4.2529 0.1162 -0.4792 0
M  V30 END ATOM
M  V30 BEGIN BOND
M  V30 1 1 1 2
M  V30 2 1 1 3
M  V30 3 2 2 4
M  V30 4 1 2 5
M  V30 5 1 3 6
M  V30 6 1 4 7
M  V30 7 2 5 8
M  V30 8 2 7 9
M  V30 9 1 8 9
M  V30 10 1 1 10
M  V30 11 1 3 11
M  V30 12 1 3 12
M  V30 13 1 4 13
M  V30 14 1 5 14
M  V30 15 1 6 15
M  V30 16 1 6 16
M  V30 17 1 6 17
M  V30 18 1 7 18
M  V30 19 1 8 19
M  V30 20 1 9 20
M  V30 END BOND
M  V30 END CTAB
M  END
>  <Structure No>
612

>  <LogS>
-1.652077936

>  <MMFF94 Energy>
10.14

$$$$
Compound 613
Actelion Java MolfileCreator 2.0

  0  0  0  0  0  0              0 V3000
M  V30 BEGIN CTAB
M  V30 COUNTS 33 32 0 0 0
M  V30 BEGIN ATOM
M  V30 1 O -0.0773 -0.696 -1.1602 0
M  V30 2 C 0.8772 0.1409 -0.5393 0
M  V30 3 C -1.3824 -0.171 -0.9998 0
M  V30 4 C 2.2446 -0.5474 -0.5821 0
M  V30 5 C -2.0813 -0.8624 0.1825 0
M  V30 6 C 3.3265 0.2078 0.2228 0
M  V30 7 C -3.5334 -0.395 0.4408 0
M  V30 8 C 4.5894 -0.6551 0.3418 0
M  V30 9 C 3.6779 1.5601 -0.416 0
M  V30 10 C -3.6099 1.0813 0.8537 0
M  V30 11 C -4.4639 -0.6812 -0.7454 0
M  V30 12 H 0.9369 1.1062 -1.0888 0
M  V30 13 H 0.606 0.3334 0.5241 0
M  V30 14 H -1.3973 0.9372 -0.8811 0
M  V30 15 H -1.942 -0.3951 -1.9308 0
M  V30 16 H 2.5667 -0.6618 -1.6407 0
M  V30 17 H 2.1241 -1.5679 -0.1551 0
M  V30 18 H -2.0854 -1.9594 -9.0E-4 0
M  V30 19 H -1.4856 -0.6953 1.1058 0
M  V30 20 H 2.9482 0.3938 1.2526 0
M  V30 21 H -3.9103 -0.9921 1.301 0
M  V30 22 H 5.3584 -0.1311 0.949 0
M  V30 23 H 4.3527 -1.6158 0.8471 0
M  V30 24 H 5.0115 -0.8722 -0.663 0
M  V30 25 H 3.9848 1.4263 -1.4756 0
M  V30 26 H 2.8111 2.2512 -0.3726 0
M  V30 27 H 4.5115 2.042 0.1381 0
M  V30 28 H -4.6354 1.3202 1.2085 0
M  V30 29 H -2.901 1.2877 1.6836 0
M  V30 30 H -3.3749 1.751 3.0E-4 0
M  V30 31 H -5.5192 -0.4996 -0.449 0
M  V30 32 H -4.3713 -1.7422 -1.061 0
M  V30 33 H -4.2282 -0.0233 -1.6081 0
M  V30 END ATOM
M  V30 BEGIN BOND
M  V30 1 1 1 2
M  V30 2 1 1 3
M  V30 3 1 2 4
M  V30 4 1 3 5
M  V30 5 1 4 6
M  V30 6 1 5 7
M  V30 7 1 6 8
M  V30 8 1 6 9
M  V30 9 1 7 10
M  V30 10 1 7 11
M  V30 11 1 2 12
M  V30 12 1 2 13
M  V30 13 1 3 14
M  V30 14 1 3 15
M  V30 15 1 4 16
M  V30 16 1 4 17
M  V30 17 1 5 18
M  V30 18 1 5 19
M  V30 19 1 6 20
M  V30 20 1 7 21
M  V30 21 1 8 22
M  V30 22 1 8 23
M  V30 23 1 8 24
M  V30 24 1 9 25
M  V30 25 1 9 26
M  V30 26 1 9 27
M  V30 27 1 10 28
M  V30 28 1 10 29
M  V30 29 1 10 30
M  V30 30 1 11 31
M  V30 31 1 11 32
M  V30 32 1 11 33
M  V30 END BOND
M  V30 END CTAB
M  END
>  <Structure No>
613

>  <LogS>
-3.760107067

>  <MMFF94 Energy>
12.696

$$$$
Compound 614
Actelion Java MolfileCreator 2.0

  0  0  0  0  0  0              0 V3000
M  V30 BEGIN CTAB
M  V30 COUNTS 60 63 0 0 0
M  V30 BEGIN ATOM
M  V30 1 Cl 10.5634 -1.9221 -0.6682 0
M  V30 2 C 10.1805 -0.2448 -1.1195 0
M  V30 3 C 8.8418 0.1257 -0.5669 0
M  V30 4 O 8.775 0.6982 0.5544 0
M  V30 5 N 7.6466 -0.1782 -1.3075 0
M  V30 6 C 6.3196 -0.0236 -0.7778 0
M  V30 7 C 5.2897 0.4146 -1.6216 0
M  V30 8 C 6.0219 -0.3533 0.554 0
M  V30 9 C 3.9821 0.568 -1.137 0
M  V30 10 C 4.7224 -0.2073 1.0429 0
M  V30 11 S 2.7096 1.1376 -2.2207 0
M  V30 12 C 3.6942 0.262 0.2062 0
M  V30 13 O 2.1427 2.4283 -1.6978 0
M  V30 14 O 1.621 0.1069 -2.3035 0
M  V30 15 O 3.3246 1.4 -3.7613 0 CHG=-1
M  V30 16 N 2.3592 0.4337 0.701 0
M  V30 17 N 2.027 0.1336 1.8921 0
M  V30 18 C 0.6838 0.3285 2.3499 0
M  V30 19 C -0.4345 -0.2417 1.6749 0
M  V30 20 C 0.4756 1.182 3.4538 0
M  V30 21 C -0.3084 -1.232 0.6657 0
M  V30 22 C -1.7423 0.169 2.0526 0
M  V30 23 N 1.5832 1.7344 4.1769 0
M  V30 24 C -0.8241 1.5339 3.8301 0
M  V30 25 O 0.9178 -1.8052 0.3498 0 CHG=-1
M  V30 26 C -1.4391 -1.697 -0.0127 0
M  V30 27 C -2.8633 -0.3168 1.3641 0
M  V30 28 C -1.9208 1.0545 3.1221 0
M  V30 29 C -2.7132 -1.2308 0.32 0
M  V30 30 S -4.1368 -1.7935 -0.5526 0
M  V30 31 O -4.9719 -2.6154 0.3885 0
M  V30 32 O -3.7394 -2.6418 -1.7275 0
M  V30 33 N -5.0434 -0.4223 -1.1239 0
M  V30 34 C -6.4801 -0.4039 -1.0348 0
M  V30 35 C -4.3309 0.6896 -1.7553 0
M  V30 36 C -7.1524 0.7541 -0.6081 0
M  V30 37 C -7.2314 -1.5377 -1.3906 0
M  V30 38 C -8.5462 0.7721 -0.5281 0
M  V30 39 C -8.6256 -1.5145 -1.3103 0
M  V30 40 C -9.2823 -0.3614 -0.8789 0
M  V30 41 H 10.963 0.4291 -0.7108 0
M  V30 42 H 10.1795 -0.1538 -2.2257 0
M  V30 43 H 7.7468 -0.4185 -2.3209 0
M  V30 44 H 5.517 0.6482 -2.6546 0
M  V30 45 H 6.7874 -0.7444 1.2114 0
M  V30 46 H 4.5209 -0.4644 2.0743 0
M  V30 47 H 1.4239 2.397 4.969 0
M  V30 48 H 2.571 1.495 3.9378 0
M  V30 49 H -0.9874 2.2031 4.6655 0
M  V30 50 H -1.3187 -2.4376 -0.793 0
M  V30 51 H -3.8577 0.0157 1.6371 0
M  V30 52 H -2.9146 1.3647 3.4235 0
M  V30 53 H -4.3795 1.5894 -1.1076 0
M  V30 54 H -4.7852 0.9149 -2.744 0
M  V30 55 H -3.261 0.4353 -1.9158 0
M  V30 56 H -6.6001 1.6382 -0.322 0
M  V30 57 H -6.7401 -2.4333 -1.7462 0
M  V30 58 H -9.0562 1.6648 -0.1947 0
M  V30 59 H -9.1969 -2.3908 -1.5879 0
M  V30 60 H -10.3609 -0.3447 -0.8173 0
M  V30 END ATOM
M  V30 BEGIN BOND
M  V30 1 1 1 2
M  V30 2 1 2 3
M  V30 3 2 3 4
M  V30 4 1 3 5
M  V30 5 1 5 6
M  V30 6 2 6 7
M  V30 7 1 6 8
M  V30 8 1 7 9
M  V30 9 2 8 10
M  V30 10 1 9 11
M  V30 11 2 9 12
M  V30 12 2 11 13
M  V30 13 2 11 14
M  V30 14 1 11 15
M  V30 15 1 12 16
M  V30 16 2 16 17
M  V30 17 1 17 18
M  V30 18 1 18 19
M  V30 19 2 18 20
M  V30 20 2 19 21
M  V30 21 1 19 22
M  V30 22 1 20 23
M  V30 23 1 20 24
M  V30 24 1 21 25
M  V30 25 1 21 26
M  V30 26 2 22 27
M  V30 27 1 22 28
M  V30 28 2 26 29
M  V30 29 1 29 30
M  V30 30 2 30 31
M  V30 31 2 30 32
M  V30 32 1 30 33
M  V30 33 1 33 34
M  V30 34 1 33 35
M  V30 35 2 34 36
M  V30 36 1 34 37
M  V30 37 1 36 38
M  V30 38 2 37 39
M  V30 39 2 38 40
M  V30 40 1 10 12
M  V30 41 2 24 28
M  V30 42 1 27 29
M  V30 43 1 39 40
M  V30 44 1 2 41
M  V30 45 1 2 42
M  V30 46 1 5 43
M  V30 47 1 7 44
M  V30 48 1 8 45
M  V30 49 1 10 46
M  V30 50 1 23 47
M  V30 51 1 23 48
M  V30 52 1 24 49
M  V30 53 1 26 50
M  V30 54 1 27 51
M  V30 55 1 28 52
M  V30 56 1 35 53
M  V30 57 1 35 54
M  V30 58 1 35 55
M  V30 59 1 36 56
M  V30 60 1 37 57
M  V30 61 1 38 58
M  V30 62 1 39 59
M  V30 63 1 40 60
M  V30 END BOND
M  V30 END CTAB
M  END
>  <Structure No>
614

>  <LogS>
-4.35885707

>  <MMFF94 Energy>
132.58

$$$$
Compound 615
Actelion Java MolfileCreator 2.0

  0  0  0  0  0  0              0 V3000
M  V30 BEGIN CTAB
M  V30 COUNTS 15 15 0 0 0
M  V30 BEGIN ATOM
M  V30 1 Cl 2.7536 1.6682 1.3344 0
M  V30 2 C 1.5614 0.6164 0.5828 0
M  V30 3 C 1.9341 -0.6061 -0.0012 0
M  V30 4 C 0.2191 1.0153 0.5672 0
M  V30 5 Cl 3.6083 -1.1433 -0.0039 0
M  V30 6 C 0.9616 -1.4149 -0.5996 0
M  V30 7 C -0.7591 0.1959 -0.0167 0
M  V30 8 C -0.3772 -1.0144 -0.6138 0
M  V30 9 C -2.1895 0.6449 -0.0664 0
M  V30 10 H -0.0615 1.9631 1.0107 0
M  V30 11 H 1.2428 -2.3544 -1.0581 0
M  V30 12 H -1.1154 -1.6482 -1.0896 0
M  V30 13 H -2.3577 1.2399 -0.9882 0
M  V30 14 H -2.4347 1.2702 0.8184 0
M  V30 15 H -2.8752 -0.229 -0.0691 0
M  V30 END ATOM
M  V30 BEGIN BOND
M  V30 1 1 1 2
M  V30 2 2 2 3
M  V30 3 1 2 4
M  V30 4 1 3 5
M  V30 5 1 3 6
M  V30 6 2 4 7
M  V30 7 2 6 8
M  V30 8 1 7 9
M  V30 9 1 7 8
M  V30 10 1 4 10
M  V30 11 1 6 11
M  V30 12 1 8 12
M  V30 13 1 9 13
M  V30 14 1 9 14
M  V30 15 1 9 15
M  V30 END BOND
M  V30 END CTAB
M  END
>  <Structure No>
615

>  <LogS>
-3.775545726

>  <MMFF94 Energy>
26.68

$$$$
Compound 616
Actelion Java MolfileCreator 2.0

  0  0  0  0  0  0              0 V3000
M  V30 BEGIN CTAB
M  V30 COUNTS 37 38 0 0 0
M  V30 BEGIN ATOM
M  V30 1 S 0.3239 0.2429 2.5126 0
M  V30 2 O -0.3274 -0.4395 3.6821 0
M  V30 3 O 0.6565 1.6576 2.8978 0
M  V30 4 N 1.7913 -0.5903 2.1065 0
M  V30 5 C -0.7932 0.2068 1.1439 0
M  V30 6 C 2.4978 -0.3954 0.8695 0
M  V30 7 C -1.0131 -0.9892 0.4396 0
M  V30 8 C -1.4495 1.3812 0.7516 0
M  V30 9 C 2.3025 0.7526 0.0774 0
M  V30 10 C 3.4122 -1.3713 0.4405 0
M  V30 11 O -0.3501 -2.1551 0.8569 0
M  V30 12 C -1.8876 -0.987 -0.6622 0
M  V30 13 C -2.3238 1.3835 -0.3509 0
M  V30 14 C 2.997 0.9057 -1.1264 0
M  V30 15 C 4.1047 -1.2137 -0.7637 0
M  V30 16 C -0.4361 -3.4152 0.2006 0
M  V30 17 C -2.5398 0.1882 -1.059 0
M  V30 18 O -2.9887 2.5489 -0.767 0
M  V30 19 C 3.8955 -0.077 -1.5479 0
M  V30 20 N -3.4234 0.1579 -2.1864 0
M  V30 21 C -2.855 3.8231 -0.1452 0
M  V30 22 H 2.087 -1.3646 2.7425 0
M  V30 23 H -1.2718 2.2917 1.3061 0
M  V30 24 H 1.6256 1.5365 0.3853 0
M  V30 25 H 3.5805 -2.2602 1.0355 0
M  V30 26 H -2.0691 -1.8963 -1.2191 0
M  V30 27 H 2.8406 1.7895 -1.7316 0
M  V30 28 H 4.8029 -1.974 -1.0893 0
M  V30 29 H 0.2053 -4.1454 0.735 0
M  V30 30 H -1.4836 -3.7837 0.2165 0
M  V30 31 H -0.0758 -3.3253 -0.8459 0
M  V30 32 H 4.432 0.0439 -2.48 0
M  V30 33 H -3.9253 1.0147 -2.5092 0
M  V30 34 H -3.5847 -0.7292 -2.7135 0
M  V30 35 H -1.7992 4.1636 -0.1952 0
M  V30 36 H -3.4903 4.5567 -0.6824 0
M  V30 37 H -3.1911 3.7694 0.9119 0
M  V30 END ATOM
M  V30 BEGIN BOND
M  V30 1 2 1 2
M  V30 2 2 1 3
M  V30 3 1 1 4
M  V30 4 1 1 5
M  V30 5 1 4 6
M  V30 6 2 5 7
M  V30 7 1 5 8
M  V30 8 2 6 9
M  V30 9 1 6 10
M  V30 10 1 7 11
M  V30 11 1 7 12
M  V30 12 2 8 13
M  V30 13 1 9 14
M  V30 14 2 10 15
M  V30 15 1 11 16
M  V30 16 2 12 17
M  V30 17 1 13 18
M  V30 18 2 14 19
M  V30 19 1 17 20
M  V30 20 1 18 21
M  V30 21 1 13 17
M  V30 22 1 15 19
M  V30 23 1 4 22
M  V30 24 1 8 23
M  V30 25 1 9 24
M  V30 26 1 10 25
M  V30 27 1 12 26
M  V30 28 1 14 27
M  V30 29 1 15 28
M  V30 30 1 16 29
M  V30 31 1 16 30
M  V30 32 1 16 31
M  V30 33 1 19 32
M  V30 34 1 20 33
M  V30 35 1 20 34
M  V30 36 1 21 35
M  V30 37 1 21 36
M  V30 38 1 21 37
M  V30 END BOND
M  V30 END CTAB
M  END
>  <Structure No>
616

>  <LogS>
-4.057692864

>  <MMFF94 Energy>
1.362

$$$$
Compound 617
Actelion Java MolfileCreator 2.0

  0  0  0  0  0  0              0 V3000
M  V30 BEGIN CTAB
M  V30 COUNTS 38 40 0 0 0
M  V30 BEGIN ATOM
M  V30 1 O 0.1613 0.2419 -3.0682 0
M  V30 2 C 0.9849 0.2038 -2.1152 0
M  V30 3 O 2.1961 0.7138 -2.3059 0
M  V30 4 C 0.6214 -0.3645 -0.8694 0
M  V30 5 C 3.125 0.7435 -1.3608 0
M  V30 6 C 1.5802 -0.3138 0.1696 0
M  V30 7 C -0.7978 -0.9206 -0.6792 0 CFG=2
M  V30 8 C 2.8495 0.2312 -0.0772 0
M  V30 9 C 4.3808 1.2938 -1.6411 0
M  V30 10 O 1.2814 -0.7863 1.442 0 CHG=-1
M  V30 11 C -1.7811 0.1742 -0.285 0
M  V30 12 C -0.903 -2.2255 0.1733 0
M  V30 13 C 3.8444 0.2847 0.9163 0
M  V30 14 C 5.3639 1.3395 -0.6492 0
M  V30 15 C -1.5085 1.0616 0.7752 0
M  V30 16 C -3.0172 0.2766 -0.9518 0
M  V30 17 C -1.5955 -2.0729 1.5101 0
M  V30 18 C 5.0959 0.837 0.6267 0
M  V30 19 C -2.442 2.0347 1.1434 0
M  V30 20 C -3.9469 1.2515 -0.579 0
M  V30 21 O -0.9376 -1.8991 2.5235 0
M  V30 22 C -3.0908 -2.1384 1.6167 0
M  V30 23 C -3.6591 2.1309 0.4663 0
M  V30 24 H -1.1066 -1.2666 -1.6911 0
M  V30 25 H 4.594 1.688 -2.6267 0
M  V30 26 H 0.0947 -2.6923 0.3147 0
M  V30 27 H -1.4767 -2.9839 -0.405 0
M  V30 28 H 3.661 -0.0988 1.9123 0
M  V30 29 H 6.3338 1.7664 -0.869 0
M  V30 30 H -0.5819 1.0006 1.3261 0
M  V30 31 H -3.2664 -0.4029 -1.7571 0
M  V30 32 H 5.8594 0.8752 1.3928 0
M  V30 33 H -2.223 2.7122 1.9586 0
M  V30 34 H -4.8936 1.3223 -1.0988 0
M  V30 35 H -3.4751 -1.1875 2.042 0
M  V30 36 H -3.3803 -2.9784 2.2818 0
M  V30 37 H -3.5555 -2.2946 0.6206 0
M  V30 38 H -4.3811 2.8838 0.7548 0
M  V30 END ATOM
M  V30 BEGIN BOND
M  V30 1 2 1 2
M  V30 2 1 2 3
M  V30 3 1 2 4
M  V30 4 1 3 5
M  V30 5 2 4 6
M  V30 6 1 4 7
M  V30 7 2 5 8
M  V30 8 1 5 9
M  V30 9 1 6 10
M  V30 10 1 7 11
M  V30 11 1 7 12
M  V30 12 1 8 13
M  V30 13 2 9 14
M  V30 14 2 11 15
M  V30 15 1 11 16
M  V30 16 1 12 17
M  V30 17 2 13 18
M  V30 18 1 15 19
M  V30 19 2 16 20
M  V30 20 2 17 21
M  V30 21 1 17 22
M  V30 22 2 19 23
M  V30 23 1 6 8
M  V30 24 1 14 18
M  V30 25 1 20 23
M  V30 26 1 7 24
M  V30 27 1 9 25
M  V30 28 1 12 26
M  V30 29 1 12 27
M  V30 30 1 13 28
M  V30 31 1 14 29
M  V30 32 1 15 30
M  V30 33 1 16 31
M  V30 34 1 18 32
M  V30 35 1 19 33
M  V30 36 1 20 34
M  V30 37 1 22 35
M  V30 38 1 22 36
M  V30 39 1 22 37
M  V30 40 1 23 38
M  V30 END BOND
M  V30 BEGIN COLLECTION
M  V30 MDLV30/STEABS ATOMS=(1 7)
M  V30 END COLLECTION
M  V30 END CTAB
M  END
>  <Structure No>
617

>  <LogS>
-3.062508747

>  <MMFF94 Energy>
58.831

$$$$
Compound 618
Actelion Java MolfileCreator 2.0

  0  0  0  0  0  0              0 V3000
M  V30 BEGIN CTAB
M  V30 COUNTS 42 44 0 0 0
M  V30 BEGIN ATOM
M  V30 1 N -4.6928 -1.9864 1.9864 0
M  V30 2 C -3.5817 -1.5066 1.5194 0
M  V30 3 C -2.5802 -2.3627 0.8248 0
M  V30 4 C -3.3101 -0.0701 1.6843 0
M  V30 5 C -1.4455 -1.8094 0.3622 0
M  V30 6 C -2.8323 -3.8348 0.6234 0
M  V30 7 C -2.1826 0.4724 1.2234 0
M  V30 8 C -1.1567 -0.3542 0.5281 0
M  V30 9 C -0.001 0.1967 0.0643 0
M  V30 10 C 0.2112 1.6649 0.0349 0
M  V30 11 C 1.1191 -0.636 -0.4383 0
M  V30 12 C 1.3028 2.2313 0.7113 0
M  V30 13 C -0.6356 2.4932 -0.7203 0
M  V30 14 C 1.5996 -0.4539 -1.7444 0
M  V30 15 C 1.75 -1.5664 0.4039 0
M  V30 16 C 1.5275 3.6101 0.6577 0
M  V30 17 C -0.4101 3.8717 -0.7728 0
M  V30 18 C 2.6769 -1.2124 -2.2114 0
M  V30 19 C 2.8267 -2.3247 -0.0644 0
M  V30 20 C 0.6709 4.4371 -0.0824 0
M  V30 21 C 3.2939 -2.153 -1.3749 0
M  V30 22 N 0.9017 5.8473 -0.1372 0
M  V30 23 N 4.3959 -2.9284 -1.8533 0
M  V30 24 H -4.965 -2.9908 1.9127 0
M  V30 25 H -4.031 0.5559 2.1968 0
M  V30 26 H -0.7437 -2.4363 -0.1722 0
M  V30 27 H -1.9942 -4.3369 0.094 0
M  V30 28 H -2.9579 -4.3299 1.6091 0
M  V30 29 H -3.7531 -3.9762 0.0197 0
M  V30 30 H -2.0217 1.5274 1.4023 0
M  V30 31 H 1.9757 1.6056 1.285 0
M  V30 32 H -1.4672 2.0695 -1.2699 0
M  V30 33 H 1.1356 0.2709 -2.4022 0
M  V30 34 H 1.4087 -1.7011 1.4232 0
M  V30 35 H 2.3696 4.0336 1.1905 0
M  V30 36 H -1.0746 4.4983 -1.3546 0
M  V30 37 H 3.0318 -1.0659 -3.2238 0
M  V30 38 H 3.2992 -3.0423 0.5944 0
M  V30 39 H 1.7056 6.2777 0.3722 0
M  V30 40 H 0.2701 6.4715 -0.6873 0
M  V30 41 H 4.7522 -2.8064 -2.8275 0
M  V30 42 H 4.8631 -3.6304 -1.2372 0
M  V30 END ATOM
M  V30 BEGIN BOND
M  V30 1 2 1 2
M  V30 2 1 2 3
M  V30 3 1 2 4
M  V30 4 2 3 5
M  V30 5 1 3 6
M  V30 6 2 4 7
M  V30 7 1 5 8
M  V30 8 2 8 9
M  V30 9 1 9 10
M  V30 10 1 9 11
M  V30 11 2 10 12
M  V30 12 1 10 13
M  V30 13 2 11 14
M  V30 14 1 11 15
M  V30 15 1 12 16
M  V30 16 2 13 17
M  V30 17 1 14 18
M  V30 18 2 15 19
M  V30 19 2 16 20
M  V30 20 2 18 21
M  V30 21 1 20 22
M  V30 22 1 21 23
M  V30 23 1 7 8
M  V30 24 1 17 20
M  V30 25 1 19 21
M  V30 26 1 1 24
M  V30 27 1 4 25
M  V30 28 1 5 26
M  V30 29 1 6 27
M  V30 30 1 6 28
M  V30 31 1 6 29
M  V30 32 1 7 30
M  V30 33 1 12 31
M  V30 34 1 13 32
M  V30 35 1 14 33
M  V30 36 1 15 34
M  V30 37 1 16 35
M  V30 38 1 17 36
M  V30 39 1 18 37
M  V30 40 1 19 38
M  V30 41 1 22 39
M  V30 42 1 22 40
M  V30 43 1 23 41
M  V30 44 1 23 42
M  V30 END BOND
M  V30 END CTAB
M  END
>  <Structure No>
618

>  <LogS>
-2.105483191

>  <MMFF94 Energy>
45.713

$$$$
Compound 619
Actelion Java MolfileCreator 2.0

  0  0  0  0  0  0              0 V3000
M  V30 BEGIN CTAB
M  V30 COUNTS 21 21 0 0 0
M  V30 BEGIN ATOM
M  V30 1 O 1.9724 1.4987 0.6308 0
M  V30 2 C 1.319 0.5034 0.2113 0
M  V30 3 O 1.9825 -0.6981 -0.0556 0
M  V30 4 C -0.1415 0.6318 -0.0303 0
M  V30 5 C 3.3784 -0.8699 0.156 0
M  V30 6 C -1.0287 -0.4798 0.001 0
M  V30 7 C -0.6649 1.9113 -0.3028 0
M  V30 8 C -2.3926 -0.281 -0.2821 0
M  V30 9 C -0.5634 -1.8729 0.3362 0
M  V30 10 C -2.0235 2.0881 -0.5668 0
M  V30 11 C -2.8843 0.9936 -0.5624 0
M  V30 12 H 3.6231 -0.7071 1.2271 0
M  V30 13 H 3.6645 -1.904 -0.1248 0
M  V30 14 H 3.9493 -0.1546 -0.473 0
M  V30 15 H -0.0171 2.779 -0.3298 0
M  V30 16 H -3.0835 -1.115 -0.2772 0
M  V30 17 H 0.074 -1.857 1.2451 0
M  V30 18 H 0.0037 -2.2953 -0.519 0
M  V30 19 H -1.4192 -2.5487 0.5486 0
M  V30 20 H -2.4084 3.0766 -0.7823 0
M  V30 21 H -3.9368 1.1333 -0.7728 0
M  V30 END ATOM
M  V30 BEGIN BOND
M  V30 1 2 1 2
M  V30 2 1 2 3
M  V30 3 1 2 4
M  V30 4 1 3 5
M  V30 5 2 4 6
M  V30 6 1 4 7
M  V30 7 1 6 8
M  V30 8 1 6 9
M  V30 9 2 7 10
M  V30 10 2 8 11
M  V30 11 1 10 11
M  V30 12 1 5 12
M  V30 13 1 5 13
M  V30 14 1 5 14
M  V30 15 1 7 15
M  V30 16 1 8 16
M  V30 17 1 9 17
M  V30 18 1 9 18
M  V30 19 1 9 19
M  V30 20 1 10 20
M  V30 21 1 11 21
M  V30 END BOND
M  V30 END CTAB
M  END
>  <Structure No>
619

>  <LogS>
-1.756647676

>  <MMFF94 Energy>
36.335

$$$$
Compound 620
Actelion Java MolfileCreator 2.0

  0  0  0  0  0  0              0 V3000
M  V30 BEGIN CTAB
M  V30 COUNTS 12 11 0 0 0
M  V30 BEGIN ATOM
M  V30 1 C -0.0749 -0.0749 0.0749 0
M  V30 2 C -0.6471 -1.0062 0.8497 0
M  V30 3 C -0.7869 1.2284 -0.1701 0
M  V30 4 C 1.2721 -0.3441 -0.54 0
M  V30 5 H -1.6187 -0.8324 1.3033 0
M  V30 6 H -0.1508 -1.9534 1.0396 0
M  V30 7 H -0.1943 1.898 -0.8276 0
M  V30 8 H -0.9591 1.7496 0.7954 0
M  V30 9 H -1.7656 1.0356 -0.6585 0
M  V30 10 H 2.0205 -0.526 0.2602 0
M  V30 11 H 1.214 -1.24 -1.1937 0
M  V30 12 H 1.6179 0.514 -1.1531 0
M  V30 END ATOM
M  V30 BEGIN BOND
M  V30 1 2 1 2
M  V30 2 1 1 3
M  V30 3 1 1 4
M  V30 4 1 2 5
M  V30 5 1 2 6
M  V30 6 1 3 7
M  V30 7 1 3 8
M  V30 8 1 3 9
M  V30 9 1 4 10
M  V30 10 1 4 11
M  V30 11 1 4 12
M  V30 END BOND
M  V30 END CTAB
M  END
>  <Structure No>
620

>  <LogS>
-2.32906904

>  <MMFF94 Energy>
7.5013

$$$$
Compound 621
Actelion Java MolfileCreator 2.0

  0  0  0  0  0  0              0 V3000
M  V30 BEGIN CTAB
M  V30 COUNTS 24 23 0 0 0
M  V30 BEGIN ATOM
M  V30 1 O -2.0359 1.7225 1.0958 0
M  V30 2 C -2.54 0.7248 0.5121 0
M  V30 3 O -1.7501 -0.3745 0.1578 0
M  V30 4 C -3.9887 0.731 0.1608 0
M  V30 5 C -0.3421 -0.4423 0.3896 0 CFG=1
M  V30 6 C 0.1086 -1.8782 0.2969 0
M  V30 7 C 0.4103 0.4402 -0.622 0
M  V30 8 C -0.1531 -2.6415 -0.7693 0
M  V30 9 O 1.8223 0.3444 -0.4367 0
M  V30 10 C 2.5047 0.9649 0.6154 0
M  V30 11 O 1.8909 1.685 1.4491 0
M  V30 12 C 3.9693 0.7376 0.7751 0
M  V30 13 H -4.5779 1.1894 0.9831 0
M  V30 14 H -4.1409 1.3156 -0.77 0
M  V30 15 H -4.345 -0.3081 7.0E-4 0
M  V30 16 H -0.1242 -0.0865 1.4205 0
M  V30 17 H 0.6571 -2.309 1.1297 0
M  V30 18 H 0.1658 0.1131 -1.6547 0
M  V30 19 H 0.0905 1.5003 -0.5279 0
M  V30 20 H 0.1861 -3.6718 -0.7951 0
M  V30 21 H -0.7066 -2.2497 -1.617 0
M  V30 22 H 4.4147 0.4368 -0.1961 0
M  V30 23 H 4.139 -0.0682 1.5189 0
M  V30 24 H 4.4639 1.669 1.1233 0
M  V30 END ATOM
M  V30 BEGIN BOND
M  V30 1 2 1 2
M  V30 2 1 2 3
M  V30 3 1 2 4
M  V30 4 1 3 5
M  V30 5 1 5 6
M  V30 6 1 5 7
M  V30 7 2 6 8
M  V30 8 1 7 9
M  V30 9 1 9 10
M  V30 10 2 10 11
M  V30 11 1 10 12
M  V30 12 1 4 13
M  V30 13 1 4 14
M  V30 14 1 4 15
M  V30 15 1 5 16
M  V30 16 1 6 17
M  V30 17 1 7 18
M  V30 18 1 7 19
M  V30 19 1 8 20
M  V30 20 1 8 21
M  V30 21 1 12 22
M  V30 22 1 12 23
M  V30 23 1 12 24
M  V30 END BOND
M  V30 BEGIN COLLECTION
M  V30 MDLV30/STEABS ATOMS=(1 5)
M  V30 END COLLECTION
M  V30 END CTAB
M  END
>  <Structure No>
621

>  <LogS>
-0.817681412

>  <MMFF94 Energy>
-0.74021

$$$$
Compound 622
Actelion Java MolfileCreator 2.0

  0  0  0  0  0  0              0 V3000
M  V30 BEGIN CTAB
M  V30 COUNTS 15 15 0 0 0
M  V30 BEGIN ATOM
M  V30 1 O -1.6337 -2.1787 0.6999 0
M  V30 2 C -0.9893 -0.9861 0.379 0
M  V30 3 C 0.3866 -0.9915 0.1224 0
M  V30 4 C -1.7058 0.2171 0.3113 0
M  V30 5 C 1.0507 0.2011 -0.2021 0
M  V30 6 C -1.0473 1.4071 -0.0117 0
M  V30 7 N 2.4564 0.1936 -0.4641 0
M  V30 8 C 0.3269 1.4008 -0.2679 0
M  V30 9 H -2.6284 -2.2082 0.8911 0
M  V30 10 H 0.9367 -1.9227 0.1757 0
M  V30 11 H -2.7702 0.2308 0.5083 0
M  V30 12 H -1.6024 2.3349 -0.0634 0
M  V30 13 H 2.9597 1.0761 -0.7064 0
M  V30 14 H 3.0042 -0.6942 -0.4175 0
M  V30 15 H 0.8269 2.3282 -0.5172 0
M  V30 END ATOM
M  V30 BEGIN BOND
M  V30 1 1 1 2
M  V30 2 2 2 3
M  V30 3 1 2 4
M  V30 4 1 3 5
M  V30 5 2 4 6
M  V30 6 1 5 7
M  V30 7 2 5 8
M  V30 8 1 6 8
M  V30 9 1 1 9
M  V30 10 1 3 10
M  V30 11 1 4 11
M  V30 12 1 6 12
M  V30 13 1 7 13
M  V30 14 1 7 14
M  V30 15 1 8 15
M  V30 END BOND
M  V30 END CTAB
M  END
>  <Structure No>
622

>  <LogS>
-0.622962848

>  <MMFF94 Energy>
-0.50585

$$$$
Compound 623
Actelion Java MolfileCreator 2.0

  0  0  0  0  0  0              0 V3000
M  V30 BEGIN CTAB
M  V30 COUNTS 66 69 0 0 0
M  V30 BEGIN ATOM
M  V30 1 S 2.2611 -1.13 2.9887 0
M  V30 2 O 3.0523 -2.1784 3.7206 0
M  V30 3 O 1.4474 -0.3721 4.0007 0
M  V30 4 N 3.3551 -0.0315 2.1862 0
M  V30 5 C 1.175 -1.9157 1.84 0
M  V30 6 C 2.5914 1.0061 1.4702 0
M  V30 7 C 4.2215 -0.775 1.2543 0
M  V30 8 C -0.05 -1.3247 1.5133 0
M  V30 9 C 1.5368 -3.1276 1.2467 0
M  V30 10 C 3.5551 1.9765 0.7823 0
M  V30 11 C 5.1885 0.1898 0.5615 0
M  V30 12 C -0.9161 -1.9303 0.5861 0
M  V30 13 C 0.6862 -3.7441 0.3288 0
M  V30 14 N 4.4171 1.2264 -0.1482 0
M  V30 15 C -2.213 -1.2858 0.267 0
M  V30 16 C -0.5444 -3.1516 -0.019 0
M  V30 17 C 5.2481 2.0928 -1.0125 0
M  V30 18 N -3.3319 -2.0571 0.0903 0
M  V30 19 N -2.3141 0.0762 0.1559 0
M  V30 20 O -1.4121 -3.7359 -0.9602 0
M  V30 21 C 6.2647 2.9613 -0.2576 0
M  V30 22 C -4.5423 -1.5005 -0.1909 0
M  V30 23 N -3.5036 0.6084 -0.1268 0
M  V30 24 C -1.1479 -4.9109 -1.7272 0
M  V30 25 O -5.5589 -2.2272 -0.3453 0
M  V30 26 C -4.6091 -0.116 -0.2954 0
M  V30 27 C -3.8593 1.8996 -0.2789 0
M  V30 28 C -0.1895 -4.6034 -2.8726 0
M  V30 29 C -5.6566 0.7497 -0.5396 0
M  V30 30 N -5.1904 2.0226 -0.5181 0
M  V30 31 C -2.924 3.0671 -0.0964 0
M  V30 32 C -7.0861 0.3889 -0.7787 0
M  V30 33 C -3.4522 4.3731 -0.7118 0
M  V30 34 C -3.4899 4.3219 -2.2396 0
M  V30 35 H 1.9252 0.5533 0.7023 0
M  V30 36 H 1.9644 1.5786 2.188 0
M  V30 37 H 3.6172 -1.3021 0.4824 0
M  V30 38 H 4.8166 -1.53 1.8127 0
M  V30 39 H -0.3332 -0.398 1.9957 0
M  V30 40 H 2.4826 -3.5945 1.4901 0
M  V30 41 H 4.1603 2.4919 1.56 0
M  V30 42 H 2.9616 2.7353 0.2281 0
M  V30 43 H 5.811 -0.3851 -0.1584 0
M  V30 44 H 5.8541 0.6428 1.3291 0
M  V30 45 H 1.0032 -4.6803 -0.1056 0
M  V30 46 H 4.5841 2.7573 -1.6078 0
M  V30 47 H 5.7956 1.4613 -1.7462 0
M  V30 48 H -1.475 0.6871 0.2688 0
M  V30 49 H 5.757 3.6703 0.4276 0
M  V30 50 H 6.9857 2.3382 0.3101 0
M  V30 51 H 6.8425 3.5605 -0.9922 0
M  V30 52 H -2.1064 -5.2644 -2.1617 0
M  V30 53 H -0.757 -5.7275 -1.0837 0
M  V30 54 H 0.7896 -4.2562 -2.4839 0
M  V30 55 H -0.6192 -3.811 -3.5212 0
M  V30 56 H -0.0278 -5.5186 -3.48 0
M  V30 57 H -1.936 2.8315 -0.5466 0
M  V30 58 H -2.773 3.2212 0.9941 0
M  V30 59 H -7.4809 -0.1778 0.0901 0
M  V30 60 H -7.6944 1.3075 -0.9145 0
M  V30 61 H -7.1646 -0.2361 -1.693 0
M  V30 62 H -4.4676 4.5995 -0.3182 0
M  V30 63 H -2.7814 5.2056 -0.4047 0
M  V30 64 H -2.4819 4.097 -2.6451 0
M  V30 65 H -3.8186 5.306 -2.636 0
M  V30 66 H -4.2047 3.5475 -2.5879 0
M  V30 END ATOM
M  V30 BEGIN BOND
M  V30 1 2 1 2
M  V30 2 2 1 3
M  V30 3 1 1 4
M  V30 4 1 1 5
M  V30 5 1 4 6
M  V30 6 1 4 7
M  V30 7 2 5 8
M  V30 8 1 5 9
M  V30 9 1 6 10
M  V30 10 1 7 11
M  V30 11 1 8 12
M  V30 12 2 9 13
M  V30 13 1 10 14
M  V30 14 1 12 15
M  V30 15 2 12 16
M  V30 16 1 14 17
M  V30 17 2 15 18
M  V30 18 1 15 19
M  V30 19 1 16 20
M  V30 20 1 17 21
M  V30 21 1 18 22
M  V30 22 1 19 23
M  V30 23 1 20 24
M  V30 24 2 22 25
M  V30 25 1 22 26
M  V30 26 1 23 27
M  V30 27 1 24 28
M  V30 28 2 26 29
M  V30 29 2 27 30
M  V30 30 1 27 31
M  V30 31 1 29 32
M  V30 32 1 31 33
M  V30 33 1 33 34
M  V30 34 1 11 14
M  V30 35 1 13 16
M  V30 36 1 23 26
M  V30 37 1 29 30
M  V30 38 1 6 35
M  V30 39 1 6 36
M  V30 40 1 7 37
M  V30 41 1 7 38
M  V30 42 1 8 39
M  V30 43 1 9 40
M  V30 44 1 10 41
M  V30 45 1 10 42
M  V30 46 1 11 43
M  V30 47 1 11 44
M  V30 48 1 13 45
M  V30 49 1 17 46
M  V30 50 1 17 47
M  V30 51 1 19 48
M  V30 52 1 21 49
M  V30 53 1 21 50
M  V30 54 1 21 51
M  V30 55 1 24 52
M  V30 56 1 24 53
M  V30 57 1 28 54
M  V30 58 1 28 55
M  V30 59 1 28 56
M  V30 60 1 31 57
M  V30 61 1 31 58
M  V30 62 1 32 59
M  V30 63 1 32 60
M  V30 64 1 32 61
M  V30 65 1 33 62
M  V30 66 1 33 63
M  V30 67 1 34 64
M  V30 68 1 34 65
M  V30 69 1 34 66
M  V30 END BOND
M  V30 END CTAB
M  END
>  <Structure No>
623

>  <LogS>
-4.843867866

>  <MMFF94 Energy>
-24.231

$$$$
Compound 624
Actelion Java MolfileCreator 2.0

  0  0  0  0  0  0              0 V3000
M  V30 BEGIN CTAB
M  V30 COUNTS 73 72 0 0 0
M  V30 BEGIN ATOM
M  V30 1 O -5.1434 2.1795 -2.2574 0
M  V30 2 C -5.6056 1.0243 -2.0495 0
M  V30 3 N -6.9502 0.8623 -1.5747 0
M  V30 4 C -4.7822 -0.1871 -2.3905 0
M  V30 5 C -7.7507 2.0146 -1.1594 0
M  V30 6 C -3.292 -0.0186 -2.0582 0
M  V30 7 C -9.1551 1.6038 -0.6818 0
M  V30 8 C -3.0391 0.0466 -0.5413 0
M  V30 9 C -9.2346 1.2367 0.8187 0
M  V30 10 C -1.5633 0.3198 -0.2076 0
M  V30 11 N -8.6829 -0.1119 1.128 0 CHG=1
M  V30 12 C -0.6632 -0.8989 -0.4588 0
M  V30 13 C -7.3104 -0.0228 1.6655 0
M  V30 14 C -9.5382 -0.8134 2.1041 0
M  V30 15 C 0.7892 -0.601 -0.0659 0
M  V30 16 C 1.6896 -1.8121 -0.3395 0
M  V30 17 C 3.1371 -1.4956 -0.0832 0
M  V30 18 C 3.6054 -1.2835 1.1563 0
M  V30 19 C 5.0561 -0.9738 1.4001 0
M  V30 20 C 5.9174 -2.23 1.2183 0
M  V30 21 C 7.3976 -1.9914 1.5583 0
M  V30 22 C 8.1173 -1.0707 0.5504 0
M  V30 23 C 8.3341 0.3474 1.1093 0
M  V30 24 C 8.8576 1.3278 0.0463 0
M  V30 25 C 10.2793 0.988 -0.4258 0
M  V30 26 C 10.8231 2.0668 -1.3613 0
M  V30 27 H -7.3541 -0.1006 -1.5427 0
M  V30 28 H -4.8875 -0.3825 -3.4793 0
M  V30 29 H -5.1767 -1.0761 -1.8527 0
M  V30 30 H -7.8601 2.6977 -2.0314 0
M  V30 31 H -7.2179 2.5763 -0.3594 0
M  V30 32 H -2.7567 -0.8945 -2.481 0
M  V30 33 H -2.8926 0.8921 -2.5568 0
M  V30 34 H -9.5647 0.7843 -1.3122 0
M  V30 35 H -9.8239 2.4776 -0.84 0
M  V30 36 H -3.3693 -0.9012 -0.0591 0
M  V30 37 H -3.6457 0.872 -0.1086 0
M  V30 38 H -8.749 2.0309 1.4314 0
M  V30 39 H -10.3175 1.287 1.0815 0
M  V30 40 H -1.4989 0.5985 0.8654 0
M  V30 41 H -1.1981 1.186 -0.7996 0
M  V30 42 H -8.6617 -0.7058 0.2671 0
M  V30 43 H -0.69 -1.1688 -1.5358 0
M  V30 44 H -1.0365 -1.7635 0.1324 0
M  V30 45 H -6.6442 0.534 0.978 0
M  V30 46 H -6.8765 -1.0391 1.7907 0
M  V30 47 H -7.2969 0.4918 2.6512 0
M  V30 48 H -9.1158 -1.8133 2.3547 0
M  V30 49 H -10.5509 -0.9847 1.675 0
M  V30 50 H -9.6403 -0.2222 3.0426 0
M  V30 51 H 0.8354 -0.338 1.0145 0
M  V30 52 H 1.1548 0.2695 -0.6544 0
M  V30 53 H 1.3796 -2.6722 0.2925 0
M  V30 54 H 1.5847 -2.111 -1.4043 0
M  V30 55 H 3.8134 -1.439 -0.9294 0
M  V30 56 H 2.9253 -1.3058 2.0069 0
M  V30 57 H 5.169 -0.5957 2.4401 0
M  V30 58 H 5.3791 -0.1728 0.7014 0
M  V30 59 H 5.8326 -2.6053 0.175 0
M  V30 60 H 5.5327 -3.0258 1.8937 0
M  V30 61 H 7.4941 -1.6087 2.5983 0
M  V30 62 H 7.9013 -2.9822 1.542 0
M  V30 63 H 9.1109 -1.5142 0.3245 0
M  V30 64 H 7.5537 -1.0208 -0.4069 0
M  V30 65 H 7.3724 0.7463 1.4953 0
M  V30 66 H 9.0445 0.309 1.9656 0
M  V30 67 H 8.8557 2.3465 0.492 0
M  V30 68 H 8.1644 1.3401 -0.8229 0
M  V30 69 H 10.2741 0.0236 -0.9776 0
M  V30 70 H 10.9597 0.8941 0.4489 0
M  V30 71 H 11.847 1.7901 -1.6936 0
M  V30 72 H 10.8694 3.0465 -0.8365 0
M  V30 73 H 10.1718 2.163 -2.2573 0
M  V30 END ATOM
M  V30 BEGIN BOND
M  V30 1 2 1 2
M  V30 2 1 2 3
M  V30 3 1 2 4
M  V30 4 1 3 5
M  V30 5 1 4 6
M  V30 6 1 5 7
M  V30 7 1 6 8
M  V30 8 1 7 9
M  V30 9 1 8 10
M  V30 10 1 9 11
M  V30 11 1 10 12
M  V30 12 1 11 13
M  V30 13 1 11 14
M  V30 14 1 12 15
M  V30 15 1 15 16
M  V30 16 1 16 17
M  V30 17 2 17 18
M  V30 18 1 18 19
M  V30 19 1 19 20
M  V30 20 1 20 21
M  V30 21 1 21 22
M  V30 22 1 22 23
M  V30 23 1 23 24
M  V30 24 1 24 25
M  V30 25 1 25 26
M  V30 26 1 3 27
M  V30 27 1 4 28
M  V30 28 1 4 29
M  V30 29 1 5 30
M  V30 30 1 5 31
M  V30 31 1 6 32
M  V30 32 1 6 33
M  V30 33 1 7 34
M  V30 34 1 7 35
M  V30 35 1 8 36
M  V30 36 1 8 37
M  V30 37 1 9 38
M  V30 38 1 9 39
M  V30 39 1 10 40
M  V30 40 1 10 41
M  V30 41 1 11 42
M  V30 42 1 12 43
M  V30 43 1 12 44
M  V30 44 1 13 45
M  V30 45 1 13 46
M  V30 46 1 13 47
M  V30 47 1 14 48
M  V30 48 1 14 49
M  V30 49 1 14 50
M  V30 50 1 15 51
M  V30 51 1 15 52
M  V30 52 1 16 53
M  V30 53 1 16 54
M  V30 54 1 17 55
M  V30 55 1 18 56
M  V30 56 1 19 57
M  V30 57 1 19 58
M  V30 58 1 20 59
M  V30 59 1 20 60
M  V30 60 1 21 61
M  V30 61 1 21 62
M  V30 62 1 22 63
M  V30 63 1 22 64
M  V30 64 1 23 65
M  V30 65 1 23 66
M  V30 66 1 24 67
M  V30 67 1 24 68
M  V30 68 1 25 69
M  V30 69 1 25 70
M  V30 70 1 26 71
M  V30 71 1 26 72
M  V30 72 1 26 73
M  V30 END BOND
M  V30 END CTAB
M  END
>  <Structure No>
624

>  <LogS>
-4.149259389

>  <MMFF94 Energy>
-26.14

$$$$
Compound 625
Actelion Java MolfileCreator 2.0

  0  0  0  0  0  0              0 V3000
M  V30 BEGIN CTAB
M  V30 COUNTS 15 15 0 0 0
M  V30 BEGIN ATOM
M  V30 1 Cl 0.9181 -2.7561 -0.2503 0
M  V30 2 C 0.0343 -1.2429 -0.0696 0
M  V30 3 C 0.6885 0.0114 -0.0471 0
M  V30 4 C -1.3593 -1.3094 0.038 0
M  V30 5 C -0.0929 1.1885 0.033 0
M  V30 6 C 2.1886 0.0959 -0.1867 0
M  V30 7 C -2.1151 -0.1433 0.1485 0
M  V30 8 Cl 0.6276 2.7953 -0.0155 0
M  V30 9 C -1.4854 1.1002 0.1399 0
M  V30 10 H -1.8605 -2.2691 0.0285 0
M  V30 11 H 2.4573 0.1554 -1.2618 0
M  V30 12 H 2.5953 0.9828 0.3403 0
M  V30 13 H 2.6878 -0.7849 0.2655 0
M  V30 14 H -3.1929 -0.203 0.2289 0
M  V30 15 H -2.0839 1.9999 0.2091 0
M  V30 END ATOM
M  V30 BEGIN BOND
M  V30 1 1 1 2
M  V30 2 2 2 3
M  V30 3 1 2 4
M  V30 4 1 3 5
M  V30 5 1 3 6
M  V30 6 2 4 7
M  V30 7 1 5 8
M  V30 8 2 5 9
M  V30 9 1 7 9
M  V30 10 1 4 10
M  V30 11 1 6 11
M  V30 12 1 6 12
M  V30 13 1 6 13
M  V30 14 1 7 14
M  V30 15 1 9 15
M  V30 END BOND
M  V30 END CTAB
M  END
>  <Structure No>
625

>  <LogS>
-3.791936142

>  <MMFF94 Energy>
14.901

$$$$
Compound 626
Actelion Java MolfileCreator 2.0

  0  0  0  0  0  0              0 V3000
M  V30 BEGIN CTAB
M  V30 COUNTS 35 35 0 0 0
M  V30 BEGIN ATOM
M  V30 1 O -1.8912 3.3115 1.497 0
M  V30 2 C -1.2338 2.3804 1.0567 0
M  V30 3 C -0.2535 2.6486 -0.0715 0
M  V30 4 C -1.425 1.0034 1.6636 0
M  V30 5 C 1.206 2.2868 0.2901 0
M  V30 6 C -1.8087 -0.0581 0.6179 0
M  V30 7 C 2.0086 1.67 -0.8778 0
M  V30 8 C -1.5088 -1.4871 1.1133 0
M  V30 9 C 1.5217 0.2869 -1.3659 0
M  V30 10 C -1.4463 -2.5316 -0.0172 0
M  V30 11 C 1.5492 -0.7917 -0.2658 0
M  V30 12 C -0.4283 -2.2698 -1.1547 0
M  V30 13 C 1.0575 -2.1801 -0.7291 0
M  V30 14 H -0.2871 3.7296 -0.333 0
M  V30 15 H -0.601 2.1307 -0.9844 0
M  V30 16 H -2.224 1.0405 2.4366 0
M  V30 17 H -0.4938 0.7188 2.1934 0
M  V30 18 H 1.7222 3.2234 0.5954 0
M  V30 19 H 1.2748 1.6319 1.1779 0
M  V30 20 H -2.889 0.033 0.3719 0
M  V30 21 H -1.2527 0.1311 -0.3093 0
M  V30 22 H 3.0704 1.5772 -0.5611 0
M  V30 23 H 1.9881 2.3761 -1.7363 0
M  V30 24 H -2.3152 -1.7843 1.8186 0
M  V30 25 H -0.5683 -1.5377 1.698 0
M  V30 26 H 2.1905 -0.0396 -2.1915 0
M  V30 27 H 0.5144 0.3901 -1.8058 0
M  V30 28 H -2.4576 -2.6121 -0.4721 0
M  V30 29 H -1.2208 -3.5208 0.4375 0
M  V30 30 H 2.599 -0.9019 0.0829 0
M  V30 31 H 0.9681 -0.4662 0.6055 0
M  V30 32 H -0.7387 -1.4118 -1.7786 0
M  V30 33 H -0.5085 -3.1425 -1.8392 0
M  V30 34 H 1.2468 -2.9159 0.0823 0
M  V30 35 H 1.6877 -2.4917 -1.5909 0
M  V30 END ATOM
M  V30 BEGIN BOND
M  V30 1 2 1 2
M  V30 2 1 2 3
M  V30 3 1 2 4
M  V30 4 1 3 5
M  V30 5 1 4 6
M  V30 6 1 5 7
M  V30 7 1 6 8
M  V30 8 1 7 9
M  V30 9 1 8 10
M  V30 10 1 9 11
M  V30 11 1 10 12
M  V30 12 1 11 13
M  V30 13 1 12 13
M  V30 14 1 3 14
M  V30 15 1 3 15
M  V30 16 1 4 16
M  V30 17 1 4 17
M  V30 18 1 5 18
M  V30 19 1 5 19
M  V30 20 1 6 20
M  V30 21 1 6 21
M  V30 22 1 7 22
M  V30 23 1 7 23
M  V30 24 1 8 24
M  V30 25 1 8 25
M  V30 26 1 9 26
M  V30 27 1 9 27
M  V30 28 1 10 28
M  V30 29 1 10 29
M  V30 30 1 11 30
M  V30 31 1 11 31
M  V30 32 1 12 32
M  V30 33 1 12 33
M  V30 34 1 13 34
M  V30 35 1 13 35
M  V30 END BOND
M  V30 END CTAB
M  END
>  <Structure No>
626

>  <LogS>
-3.845829997

>  <MMFF94 Energy>
17.53

$$$$
Compound 627
Actelion Java MolfileCreator 2.0

  0  0  0  0  0  0              0 V3000
M  V30 BEGIN CTAB
M  V30 COUNTS 27 26 0 0 0
M  V30 BEGIN ATOM
M  V30 1 O 2.477 -1.0057 1.625 0
M  V30 2 C 2.1091 -0.7493 0.2915 0 CFG=2
M  V30 3 C 2.5425 0.6172 -0.0512 0
M  V30 4 C 0.5745 -0.8742 0.1102 0
M  V30 5 C 2.8333 -1.7335 -0.6423 0
M  V30 6 C 2.8945 1.7359 -0.3317 0
M  V30 7 C -0.2222 -0.0121 1.1049 0
M  V30 8 C -1.7021 -0.1163 0.8338 0
M  V30 9 C -2.3767 0.6728 -0.0314 0
M  V30 10 C -3.8499 0.4266 -0.2298 0
M  V30 11 C -1.7013 1.7958 -0.7838 0
M  V30 12 H 2.1719 -1.9232 1.8525 0
M  V30 13 H 0.274 -1.9365 0.2512 0
M  V30 14 H 0.3037 -0.5954 -0.9317 0
M  V30 15 H 3.9342 -1.6555 -0.5082 0
M  V30 16 H 2.531 -2.7785 -0.4163 0
M  V30 17 H 2.5883 -1.5206 -1.7058 0
M  V30 18 H 3.2024 2.7178 -0.5779 0
M  V30 19 H -0.0348 -0.3832 2.1353 0
M  V30 20 H 0.1093 1.0463 1.0767 0
M  V30 21 H -2.2416 -0.9 1.3602 0
M  V30 22 H -4.2932 1.1417 -0.9536 0
M  V30 23 H -4.3831 0.5375 0.7381 0
M  V30 24 H -4.0092 -0.6025 -0.616 0
M  V30 25 H -1.3142 2.5514 -0.0686 0
M  V30 26 H -2.4082 2.3091 -1.4681 0
M  V30 27 H -0.8644 1.4032 -1.3961 0
M  V30 END ATOM
M  V30 BEGIN BOND
M  V30 1 1 1 2
M  V30 2 1 2 3
M  V30 3 1 2 4
M  V30 4 1 2 5
M  V30 5 3 3 6
M  V30 6 1 4 7
M  V30 7 1 7 8
M  V30 8 2 8 9
M  V30 9 1 9 10
M  V30 10 1 9 11
M  V30 11 1 1 12
M  V30 12 1 4 13
M  V30 13 1 4 14
M  V30 14 1 5 15
M  V30 15 1 5 16
M  V30 16 1 5 17
M  V30 17 1 6 18
M  V30 18 1 7 19
M  V30 19 1 7 20
M  V30 20 1 8 21
M  V30 21 1 10 22
M  V30 22 1 10 23
M  V30 23 1 10 24
M  V30 24 1 11 25
M  V30 25 1 11 26
M  V30 26 1 11 27
M  V30 END BOND
M  V30 BEGIN COLLECTION
M  V30 MDLV30/STEABS ATOMS=(1 2)
M  V30 END COLLECTION
M  V30 END CTAB
M  END
>  <Structure No>
627

>  <LogS>
-1.772080431

>  <MMFF94 Energy>
12.023

$$$$
Compound 628
Actelion Java MolfileCreator 2.0

  0  0  0  0  0  0              0 V3000
M  V30 BEGIN CTAB
M  V30 COUNTS 19 19 0 0 0
M  V30 BEGIN ATOM
M  V30 1 O -2.5223 0.7317 1.9523 0
M  V30 2 N -1.6366 1.3309 1.3085 0 CHG=1
M  V30 3 O -1.5138 2.6925 1.4653 0 CHG=-1
M  V30 4 C -0.6475 0.6 0.5588 0
M  V30 5 C -0.9604 -0.6046 -0.1218 0
M  V30 6 C 0.6646 1.1023 0.4944 0
M  V30 7 C 0.0564 -1.2935 -0.8023 0
M  V30 8 C -2.356 -1.1694 -0.143 0
M  V30 9 C 1.6728 0.4152 -0.2019 0
M  V30 10 C 1.3565 -0.7899 -0.8432 0
M  V30 11 C 3.0528 0.948 -0.2545 0
M  V30 12 O 3.3449 2.0303 0.3204 0
M  V30 13 O 4.0476 0.2609 -0.941 0 CHG=-1
M  V30 14 H 0.9032 2.0253 1.0084 0
M  V30 15 H -0.1581 -2.2233 -1.3149 0
M  V30 16 H -3.0935 -0.3659 -0.3514 0
M  V30 17 H -2.4714 -1.937 -0.9377 0
M  V30 18 H -2.5828 -1.6444 0.8342 0
M  V30 19 H 2.1134 -1.3449 -1.3831 0
M  V30 END ATOM
M  V30 BEGIN BOND
M  V30 1 2 1 2
M  V30 2 1 2 3
M  V30 3 1 2 4
M  V30 4 2 4 5
M  V30 5 1 4 6
M  V30 6 1 5 7
M  V30 7 1 5 8
M  V30 8 2 6 9
M  V30 9 2 7 10
M  V30 10 1 9 11
M  V30 11 2 11 12
M  V30 12 1 11 13
M  V30 13 1 9 10
M  V30 14 1 6 14
M  V30 15 1 7 15
M  V30 16 1 8 16
M  V30 17 1 8 17
M  V30 18 1 8 18
M  V30 19 1 10 19
M  V30 END BOND
M  V30 END CTAB
M  END
>  <Structure No>
628

>  <LogS>
-2.848098023

>  <MMFF94 Energy>
65.881

$$$$
Compound 629
Actelion Java MolfileCreator 2.0

  0  0  0  0  0  0              0 V3000
M  V30 BEGIN CTAB
M  V30 COUNTS 21 21 0 0 0
M  V30 BEGIN ATOM
M  V30 1 S 3.3951 -0.4135 0.579 0
M  V30 2 O 4.1605 0.7821 0.0858 0
M  V30 3 O 3.9139 -1.6397 -0.118 0
M  V30 4 O 3.6168 -0.5761 2.2358 0 CHG=-1
M  V30 5 C 1.6806 -0.209 0.2349 0
M  V30 6 C 1.1107 1.0697 0.2341 0
M  V30 7 C 0.8751 -1.3246 -0.0161 0
M  V30 8 C -0.2568 1.2412 -0.0287 0
M  V30 9 C -0.4873 -1.165 -0.279 0
M  V30 10 N -0.8152 2.5604 -0.0271 0
M  V30 11 C -1.0673 0.1189 -0.2892 0
M  V30 12 O -2.4336 0.3126 -0.551 0
M  V30 13 C -3.3592 -0.7332 -0.8282 0
M  V30 14 H 1.7293 1.9345 0.4399 0
M  V30 15 H 1.2999 -2.3203 -0.0068 0
M  V30 16 H -1.0815 -2.0476 -0.4713 0
M  V30 17 H -0.2146 3.3928 0.1664 0
M  V30 18 H -1.8287 2.7236 -0.2179 0
M  V30 19 H -3.4169 -1.4307 0.0338 0
M  V30 20 H -4.3635 -0.293 -0.9962 0
M  V30 21 H -3.0536 -1.2807 -1.7446 0
M  V30 END ATOM
M  V30 BEGIN BOND
M  V30 1 2 1 2
M  V30 2 2 1 3
M  V30 3 1 1 4
M  V30 4 1 1 5
M  V30 5 2 5 6
M  V30 6 1 5 7
M  V30 7 1 6 8
M  V30 8 2 7 9
M  V30 9 1 8 10
M  V30 10 2 8 11
M  V30 11 1 11 12
M  V30 12 1 12 13
M  V30 13 1 9 11
M  V30 14 1 6 14
M  V30 15 1 7 15
M  V30 16 1 9 16
M  V30 17 1 10 17
M  V30 18 1 10 18
M  V30 19 1 13 19
M  V30 20 1 13 20
M  V30 21 1 13 21
M  V30 END BOND
M  V30 END CTAB
M  END
>  <Structure No>
629

>  <LogS>
-0.899724345

>  <MMFF94 Energy>
52.976

$$$$
Compound 630
Actelion Java MolfileCreator 2.0

  0  0  0  0  0  0              0 V3000
M  V30 BEGIN CTAB
M  V30 COUNTS 26 27 0 0 0
M  V30 BEGIN ATOM
M  V30 1 O 0.6394 2.6398 0.1598 0
M  V30 2 C 0.4885 1.3876 0.1298 0
M  V30 3 C -0.8789 0.836 -0.0316 0
M  V30 4 C 1.685 0.5202 0.258 0
M  V30 5 C -1.0992 -0.357 -0.744 0
M  V30 6 C -1.9823 1.5307 0.4922 0
M  V30 7 C 2.928 0.9604 -0.2316 0
M  V30 8 C 1.6102 -0.7275 0.9059 0
M  V30 9 C -2.3979 -0.861 -0.9053 0
M  V30 10 C -3.2766 1.0283 0.3321 0
M  V30 11 C 4.0651 0.1569 -0.1004 0
M  V30 12 C 2.7501 -1.5268 1.0346 0
M  V30 13 O -2.6124 -2.047 -1.6054 0
M  V30 14 C -3.4881 -0.1686 -0.3637 0
M  V30 15 C 3.9758 -1.0864 0.5295 0
M  V30 16 O -4.7772 -0.6739 -0.5237 0
M  V30 17 H -0.2675 -0.8897 -1.1879 0
M  V30 18 H -1.8418 2.4567 1.0362 0
M  V30 19 H 3.0167 1.9204 -0.7253 0
M  V30 20 H 0.6756 -1.0777 1.3255 0
M  V30 21 H -4.1153 1.5711 0.7497 0
M  V30 22 H 5.0163 0.4995 -0.4869 0
M  V30 23 H 2.6842 -2.4859 1.5321 0
M  V30 24 H -1.8445 -2.5707 -2.0089 0
M  V30 25 H 4.8572 -1.7063 0.6312 0
M  V30 26 H -5.5855 -0.1946 -0.144 0
M  V30 END ATOM
M  V30 BEGIN BOND
M  V30 1 2 1 2
M  V30 2 1 2 3
M  V30 3 1 2 4
M  V30 4 2 3 5
M  V30 5 1 3 6
M  V30 6 2 4 7
M  V30 7 1 4 8
M  V30 8 1 5 9
M  V30 9 2 6 10
M  V30 10 1 7 11
M  V30 11 2 8 12
M  V30 12 1 9 13
M  V30 13 2 9 14
M  V30 14 2 11 15
M  V30 15 1 14 16
M  V30 16 1 10 14
M  V30 17 1 12 15
M  V30 18 1 5 17
M  V30 19 1 6 18
M  V30 20 1 7 19
M  V30 21 1 8 20
M  V30 22 1 10 21
M  V30 23 1 11 22
M  V30 24 1 12 23
M  V30 25 1 13 24
M  V30 26 1 15 25
M  V30 27 1 16 26
M  V30 END BOND
M  V30 END CTAB
M  END
>  <Structure No>
630

>  <LogS>
-2.92262005

>  <MMFF94 Energy>
53.306

$$$$
Compound 631
Actelion Java MolfileCreator 2.0

  0  0  0  0  0  0              0 V3000
M  V30 BEGIN CTAB
M  V30 COUNTS 49 51 0 0 0
M  V30 BEGIN ATOM
M  V30 1 S 3.7726 -1.2831 -0.8819 0
M  V30 2 C 2.5972 -0.4577 0.0039 0
M  V30 3 C 5.0296 -0.5186 -0.0805 0
M  V30 4 N 3.1445 0.3798 0.9378 0 CHG=1
M  V30 5 N 1.1978 -0.6215 -0.2614 0
M  V30 6 C 4.5146 0.3614 0.8636 0
M  V30 7 C 6.3957 -0.6773 -0.2947 0
M  V30 8 C 2.3676 1.1761 1.8967 0
M  V30 9 N 0.3193 0.2099 0.1302 0
M  V30 10 C 5.4 1.1432 1.6256 0
M  V30 11 C 7.2915 0.0933 0.4772 0
M  V30 12 C -1.0762 0.0309 -0.1366 0
M  V30 13 C 6.7831 0.9993 1.4283 0
M  V30 14 O 8.683 -0.0045 0.3301 0
M  V30 15 C -1.981 1.0005 0.3124 0
M  V30 16 C -1.5575 -1.0927 -0.8336 0
M  V30 17 C 9.3331 -0.8756 -0.589 0
M  V30 18 C -3.3503 0.8549 0.0721 0
M  V30 19 C -2.9276 -1.2377 -1.072 0
M  V30 20 C -3.829 -0.2659 -0.6184 0
M  V30 21 N -5.2342 -0.4167 -0.8674 0
M  V30 22 C -6.0616 -1.137 0.1096 0
M  V30 23 C -5.7745 -0.0221 -2.1744 0
M  V30 24 C -6.3639 -0.2512 1.3163 0
M  V30 25 C -5.8192 1.4971 -2.2993 0
M  V30 26 O -7.243 -0.919 2.1779 0
M  V30 27 H 6.743 -1.3764 -1.0433 0
M  V30 28 H 1.9931 2.0982 1.4051 0
M  V30 29 H 2.9658 1.4507 2.7863 0
M  V30 30 H 1.5182 0.582 2.2924 0
M  V30 31 H 5.0533 1.8676 2.3473 0
M  V30 32 H 7.4671 1.6 2.0143 0
M  V30 33 H -1.6224 1.8713 0.8481 0
M  V30 34 H -0.8781 -1.8561 -1.19 0
M  V30 35 H 10.431 -0.75 -0.4935 0
M  V30 36 H 9.0356 -0.6238 -1.6289 0
M  V30 37 H 9.0742 -1.9319 -0.3631 0
M  V30 38 H -4.0385 1.6151 0.4197 0
M  V30 39 H -3.2901 -2.1064 -1.6072 0
M  V30 40 H -5.5335 -2.0576 0.4423 0
M  V30 41 H -7.0235 -1.457 -0.3471 0
M  V30 42 H -6.8039 -0.4159 -2.3153 0
M  V30 43 H -5.1423 -0.4442 -2.9857 0
M  V30 44 H -6.8281 0.699 0.9689 0
M  V30 45 H -5.4193 -0.0209 1.8571 0
M  V30 46 H -6.4135 1.9303 -1.4669 0
M  V30 47 H -6.2924 1.7791 -3.2633 0
M  V30 48 H -4.7917 1.9169 -2.2745 0
M  V30 49 H -7.4137 -0.2969 2.9323 0
M  V30 END ATOM
M  V30 BEGIN BOND
M  V30 1 1 1 2
M  V30 2 1 1 3
M  V30 3 2 2 4
M  V30 4 1 2 5
M  V30 5 2 3 6
M  V30 6 1 3 7
M  V30 7 1 4 8
M  V30 8 2 5 9
M  V30 9 1 6 10
M  V30 10 2 7 11
M  V30 11 1 9 12
M  V30 12 2 10 13
M  V30 13 1 11 14
M  V30 14 2 12 15
M  V30 15 1 12 16
M  V30 16 1 14 17
M  V30 17 1 15 18
M  V30 18 2 16 19
M  V30 19 2 18 20
M  V30 20 1 20 21
M  V30 21 1 21 22
M  V30 22 1 21 23
M  V30 23 1 22 24
M  V30 24 1 23 25
M  V30 25 1 24 26
M  V30 26 1 4 6
M  V30 27 1 11 13
M  V30 28 1 19 20
M  V30 29 1 7 27
M  V30 30 1 8 28
M  V30 31 1 8 29
M  V30 32 1 8 30
M  V30 33 1 10 31
M  V30 34 1 13 32
M  V30 35 1 15 33
M  V30 36 1 16 34
M  V30 37 1 17 35
M  V30 38 1 17 36
M  V30 39 1 17 37
M  V30 40 1 18 38
M  V30 41 1 19 39
M  V30 42 1 22 40
M  V30 43 1 22 41
M  V30 44 1 23 42
M  V30 45 1 23 43
M  V30 46 1 24 44
M  V30 47 1 24 45
M  V30 48 1 25 46
M  V30 49 1 25 47
M  V30 50 1 25 48
M  V30 51 1 26 49
M  V30 END BOND
M  V30 END CTAB
M  END
>  <Structure No>
631

>  <LogS>
-0.226272691

>  <MMFF94 Energy>
70.564

$$$$
Compound 632
Actelion Java MolfileCreator 2.0

  0  0  0  0  0  0              0 V3000
M  V30 BEGIN CTAB
M  V30 COUNTS 34 34 0 0 0
M  V30 BEGIN ATOM
M  V30 1 O -2.3738 1.8195 -0.949 0
M  V30 2 C -3.1196 1.1561 -0.1792 0
M  V30 3 O -2.6675 -0.0143 0.4506 0
M  V30 4 C -4.5249 1.6022 0.0397 0
M  V30 5 C -1.3688 -0.6143 0.3129 0 CFG=2
M  V30 6 C -0.2523 0.3622 0.7981 0
M  V30 7 C -1.1271 -1.044 -1.1577 0
M  V30 8 C -1.3764 -1.8726 1.2051 0
M  V30 9 C 1.0317 0.2408 -0.0535 0 CFG=2
M  V30 10 C 0.3233 -1.5332 -1.3913 0
M  V30 11 O 1.2392 -1.1169 -0.3902 0
M  V30 12 C 2.2504 0.7745 0.7239 0
M  V30 13 C 3.4734 1.0484 -0.1683 0
M  V30 14 C 4.1217 -0.2244 -0.7106 0
M  V30 15 H -5.154 1.2745 -0.8136 0
M  V30 16 H -4.9227 1.159 0.9766 0
M  V30 17 H -4.5646 2.7089 0.1218 0
M  V30 18 H -0.0179 0.1694 1.8693 0
M  V30 19 H -0.5935 1.4169 0.7575 0
M  V30 20 H -1.8491 -1.8349 -1.4578 0
M  V30 21 H -1.3029 -0.1861 -1.8374 0
M  V30 22 H -2.1471 -2.5921 0.8542 0
M  V30 23 H -1.6239 -1.5975 2.253 0
M  V30 24 H -0.3902 -2.3824 1.2038 0
M  V30 25 H 0.9123 0.8664 -0.9712 0
M  V30 26 H 0.3218 -2.6436 -1.4063 0
M  V30 27 H 0.6837 -1.1994 -2.3893 0
M  V30 28 H 2.5239 0.0663 1.537 0
M  V30 29 H 1.973 1.7381 1.2059 0
M  V30 30 H 3.1903 1.7115 -1.0144 0
M  V30 31 H 4.231 1.5896 0.4391 0
M  V30 32 H 4.307 -0.9498 0.1098 0
M  V30 33 H 3.4794 -0.6915 -1.4851 0
M  V30 34 H 5.0938 0.0298 -1.1829 0
M  V30 END ATOM
M  V30 BEGIN BOND
M  V30 1 2 1 2
M  V30 2 1 2 3
M  V30 3 1 2 4
M  V30 4 1 3 5
M  V30 5 1 5 6
M  V30 6 1 5 7
M  V30 7 1 5 8
M  V30 8 1 6 9
M  V30 9 1 7 10
M  V30 10 1 9 11
M  V30 11 1 9 12
M  V30 12 1 12 13
M  V30 13 1 13 14
M  V30 14 1 10 11
M  V30 15 1 4 15
M  V30 16 1 4 16
M  V30 17 1 4 17
M  V30 18 1 6 18
M  V30 19 1 6 19
M  V30 20 1 7 20
M  V30 21 1 7 21
M  V30 22 1 8 22
M  V30 23 1 8 23
M  V30 24 1 8 24
M  V30 25 1 9 25
M  V30 26 1 10 26
M  V30 27 1 10 27
M  V30 28 1 12 28
M  V30 29 1 12 29
M  V30 30 1 13 30
M  V30 31 1 13 31
M  V30 32 1 14 32
M  V30 33 1 14 33
M  V30 34 1 14 34
M  V30 END BOND
M  V30 BEGIN COLLECTION
M  V30 MDLV30/STEABS ATOMS=(2 5 9)
M  V30 END COLLECTION
M  V30 END CTAB
M  END
>  <Structure No>
632

>  <LogS>
-2.204723233

>  <MMFF94 Energy>
2.6975

$$$$
Compound 633
Actelion Java MolfileCreator 2.0

  0  0  0  0  0  0              0 V3000
M  V30 BEGIN CTAB
M  V30 COUNTS 29 28 0 0 0
M  V30 BEGIN ATOM
M  V30 1 N -1.9149 -2.0682 -0.5358 0 CHG=1
M  V30 2 C -2.1125 -0.7094 -0.0272 0
M  V30 3 C -0.7995 -0.0937 0.5228 0 CFG=1
M  V30 4 C 0.2555 0.1595 -0.5956 0
M  V30 5 C -1.0826 1.1914 1.3396 0
M  V30 6 C 1.3593 -0.9156 -0.6476 0
M  V30 7 C -1.7683 2.306 0.5423 0
M  V30 8 C 2.4024 -0.7841 0.4781 0
M  V30 9 C 3.3792 0.3696 0.249 0
M  V30 10 H -1.3353 -2.0493 -1.4051 0
M  V30 11 H -2.8462 -2.4808 -0.7719 0
M  V30 12 H -1.4583 -2.6676 0.1893 0
M  V30 13 H -2.5272 -0.0733 -0.84 0
M  V30 14 H -2.8689 -0.7434 0.789 0
M  V30 15 H -0.3883 -0.8198 1.2577 0
M  V30 16 H 0.7341 1.1536 -0.4785 0
M  V30 17 H -0.2461 0.1952 -1.5871 0
M  V30 18 H -0.124 1.5808 1.7475 0
M  V30 19 H -1.7226 0.9379 2.2131 0
M  V30 20 H 0.8997 -1.9245 -0.5888 0
M  V30 21 H 1.8739 -0.8591 -1.6317 0
M  V30 22 H -2.8019 2.0114 0.266 0
M  V30 23 H -1.8303 3.2201 1.1699 0
M  V30 24 H -1.1977 2.5528 -0.3765 0
M  V30 25 H 1.9087 -0.6572 1.4644 0
M  V30 26 H 2.9893 -1.7271 0.5204 0
M  V30 27 H 2.8627 1.3484 0.3244 0
M  V30 28 H 3.8605 0.2807 -0.7479 0
M  V30 29 H 4.1723 0.3395 1.0256 0
M  V30 END ATOM
M  V30 BEGIN BOND
M  V30 1 1 1 2
M  V30 2 1 2 3
M  V30 3 1 3 4
M  V30 4 1 3 5
M  V30 5 1 4 6
M  V30 6 1 5 7
M  V30 7 1 6 8
M  V30 8 1 8 9
M  V30 9 1 1 10
M  V30 10 1 1 11
M  V30 11 1 1 12
M  V30 12 1 2 13
M  V30 13 1 2 14
M  V30 14 1 3 15
M  V30 15 1 4 16
M  V30 16 1 4 17
M  V30 17 1 5 18
M  V30 18 1 5 19
M  V30 19 1 6 20
M  V30 20 1 6 21
M  V30 21 1 7 22
M  V30 22 1 7 23
M  V30 23 1 7 24
M  V30 24 1 8 25
M  V30 25 1 8 26
M  V30 26 1 9 27
M  V30 27 1 9 28
M  V30 28 1 9 29
M  V30 END BOND
M  V30 BEGIN COLLECTION
M  V30 MDLV30/STEABS ATOMS=(1 3)
M  V30 END COLLECTION
M  V30 END CTAB
M  END
>  <Structure No>
633

>  <LogS>
-1.713480463

>  <MMFF94 Energy>
7.0094

$$$$
Compound 634
Actelion Java MolfileCreator 2.0

  0  0  0  0  0  0              0 V3000
M  V30 BEGIN CTAB
M  V30 COUNTS 17 17 0 0 0
M  V30 BEGIN ATOM
M  V30 1 Cl 1.3617 2.7249 0.1601 0
M  V30 2 C 0.5249 1.1784 0.0733 0
M  V30 3 C 1.2326 -0.0357 -0.0401 0
M  V30 4 C -0.8744 1.1708 0.1193 0
M  V30 5 C 0.5177 -1.2433 -0.1059 0
M  V30 6 C 2.7352 -0.0501 -0.0911 0
M  V30 7 C -1.581 -0.0371 0.0532 0
M  V30 8 C -0.8787 -1.2432 -0.0594 0
M  V30 9 N -3.0104 -0.0386 0.1006 0
M  V30 10 H -1.4129 2.1065 0.2065 0
M  V30 11 H 1.0396 -2.1881 -0.1932 0
M  V30 12 H 3.086 0.5337 -0.9678 0
M  V30 13 H 3.146 0.3998 0.837 0
M  V30 14 H 3.1323 -1.0836 -0.1809 0
M  V30 15 H -1.4132 -2.1833 -0.1114 0
M  V30 16 H -3.5461 -0.9338 0.052 0
M  V30 17 H -3.5436 0.8556 0.1847 0
M  V30 END ATOM
M  V30 BEGIN BOND
M  V30 1 1 1 2
M  V30 2 2 2 3
M  V30 3 1 2 4
M  V30 4 1 3 5
M  V30 5 1 3 6
M  V30 6 2 4 7
M  V30 7 2 5 8
M  V30 8 1 7 9
M  V30 9 1 7 8
M  V30 10 1 4 10
M  V30 11 1 5 11
M  V30 12 1 6 12
M  V30 13 1 6 13
M  V30 14 1 6 14
M  V30 15 1 8 15
M  V30 16 1 9 16
M  V30 17 1 9 17
M  V30 END BOND
M  V30 END CTAB
M  END
>  <Structure No>
634

>  <LogS>
-1.753126312

>  <MMFF94 Energy>
10.281

$$$$
Compound 635
Actelion Java MolfileCreator 2.0

  0  0  0  0  0  0              0 V3000
M  V30 BEGIN CTAB
M  V30 COUNTS 30 32 0 0 0
M  V30 BEGIN ATOM
M  V30 1 O -2.3734 2.5372 0.7361 0
M  V30 2 C -1.7914 1.4676 0.4084 0
M  V30 3 C -0.3949 1.4159 0.4321 0
M  V30 4 C -2.5235 0.3243 0.0275 0
M  V30 5 O 0.3343 2.5258 0.8505 0 CHG=-1
M  V30 6 C 0.2532 0.2264 0.0577 0
M  V30 7 C -1.7938 -0.8406 -0.3126 0
M  V30 8 C -3.9379 0.291 -0.0207 0
M  V30 9 O -0.4654 -0.8397 -0.2814 0
M  V30 10 C 1.7264 0.1123 0.0541 0
M  V30 11 C -2.4663 -2.0072 -0.6881 0
M  V30 12 O -4.6941 1.4173 0.3058 0
M  V30 13 C -4.5927 -0.8896 -0.4018 0
M  V30 14 C 2.5374 1.0222 -0.6554 0
M  V30 15 C 2.3268 -0.9584 0.7348 0
M  V30 16 C -3.861 -2.0319 -0.7329 0
M  V30 17 O 1.9593 2.0513 -1.3986 0
M  V30 18 C 3.9325 0.8763 -0.6331 0
M  V30 19 C 3.7167 -1.0996 0.7472 0
M  V30 20 O -4.5223 -3.1949 -1.1077 0 CHG=-1
M  V30 21 C 4.5231 -0.1795 0.067 0
M  V30 22 O 5.91 -0.3082 0.0758 0
M  V30 23 H -1.9038 -2.8958 -0.9468 0
M  V30 24 H -5.707 1.4065 0.2752 0
M  V30 25 H -5.6744 -0.9205 -0.4404 0
M  V30 26 H 1.718 -1.6777 1.2694 0
M  V30 27 H 2.5233 2.7115 -1.9209 0
M  V30 28 H 4.5587 1.5774 -1.1705 0
M  V30 29 H 4.1655 -1.9241 1.2862 0
M  V30 30 H 6.3686 -1.0633 0.5722 0
M  V30 END ATOM
M  V30 BEGIN BOND
M  V30 1 2 1 2
M  V30 2 1 2 3
M  V30 3 1 2 4
M  V30 4 1 3 5
M  V30 5 2 3 6
M  V30 6 2 4 7
M  V30 7 1 4 8
M  V30 8 1 6 9
M  V30 9 1 6 10
M  V30 10 1 7 11
M  V30 11 1 8 12
M  V30 12 2 8 13
M  V30 13 2 10 14
M  V30 14 1 10 15
M  V30 15 2 11 16
M  V30 16 1 14 17
M  V30 17 1 14 18
M  V30 18 2 15 19
M  V30 19 1 16 20
M  V30 20 2 18 21
M  V30 21 1 21 22
M  V30 22 1 7 9
M  V30 23 1 13 16
M  V30 24 1 19 21
M  V30 25 1 11 23
M  V30 26 1 12 24
M  V30 27 1 13 25
M  V30 28 1 15 26
M  V30 29 1 17 27
M  V30 30 1 18 28
M  V30 31 1 19 29
M  V30 32 1 22 30
M  V30 END BOND
M  V30 END CTAB
M  END
>  <Structure No>
635

>  <LogS>
-3.082409058

>  <MMFF94 Energy>
114.52

$$$$
Compound 636
Actelion Java MolfileCreator 2.0

  0  0  0  0  0  0              0 V3000
M  V30 BEGIN CTAB
M  V30 COUNTS 41 43 0 0 0
M  V30 BEGIN ATOM
M  V30 1 O -3.8423 -3.2813 -2.1599 0
M  V30 2 C -2.916 -2.5579 -1.4119 0
M  V30 3 C -2.0372 -3.2087 -0.5412 0
M  V30 4 C -2.8591 -1.1697 -1.54 0
M  V30 5 C -1.1131 -2.4735 0.2055 0
M  V30 6 C -1.9365 -0.4284 -0.7966 0
M  V30 7 C -1.0625 -1.0629 0.1189 0
M  V30 8 C 0.0049 -0.2754 0.9163 0
M  V30 9 C -0.3463 1.2311 0.9598 0
M  V30 10 C 1.4113 -0.4913 0.3075 0
M  V30 11 C 0.0183 -0.8161 2.3802 0
M  V30 12 C 0.3173 2.1817 0.1467 0
M  V30 13 C -1.4337 1.6823 1.7435 0
M  V30 14 C 2.5637 -0.1236 1.0397 0
M  V30 15 C 1.5935 -0.9472 -1.0206 0
M  V30 16 C -0.0524 3.5293 0.1698 0
M  V30 17 C -1.7988 3.0308 1.7611 0
M  V30 18 C 3.8411 -0.2654 0.492 0
M  V30 19 C 2.8741 -1.0875 -1.562 0
M  V30 20 C -1.1054 3.9585 0.9783 0
M  V30 21 C 3.9995 -0.7528 -0.8084 0
M  V30 22 O -1.4603 5.3057 0.9899 0
M  V30 23 O 5.2688 -0.8994 -1.3634 0
M  V30 24 H -3.9063 -4.2903 -2.0911 0
M  V30 25 H -2.0612 -4.2871 -0.4493 0
M  V30 26 H -3.5258 -0.6627 -2.2262 0
M  V30 27 H -0.4262 -3.0156 0.8406 0
M  V30 28 H -1.9108 0.6403 -0.956 0
M  V30 29 H 0.6039 -1.7569 2.4614 0
M  V30 30 H 0.4706 -0.0819 3.0812 0
M  V30 31 H -1.0093 -1.0324 2.7438 0
M  V30 32 H 1.118 1.8952 -0.5202 0
M  V30 33 H -2.0169 0.9899 2.3347 0
M  V30 34 H 2.4803 0.2903 2.035 0
M  V30 35 H 0.7535 -1.1895 -1.6562 0
M  V30 36 H 0.476 4.2411 -0.4516 0
M  V30 37 H -2.6295 3.3515 2.3772 0
M  V30 38 H 4.7076 0.0147 1.0775 0
M  V30 39 H 2.9909 -1.4486 -2.576 0
M  V30 40 H -2.2221 5.6478 1.5641 0
M  V30 41 H 6.1051 -0.6623 -0.8425 0
M  V30 END ATOM
M  V30 BEGIN BOND
M  V30 1 1 1 2
M  V30 2 2 2 3
M  V30 3 1 2 4
M  V30 4 1 3 5
M  V30 5 2 4 6
M  V30 6 2 5 7
M  V30 7 1 7 8
M  V30 8 1 8 9
M  V30 9 1 8 10
M  V30 10 1 8 11
M  V30 11 2 9 12
M  V30 12 1 9 13
M  V30 13 2 10 14
M  V30 14 1 10 15
M  V30 15 1 12 16
M  V30 16 2 13 17
M  V30 17 1 14 18
M  V30 18 2 15 19
M  V30 19 2 16 20
M  V30 20 2 18 21
M  V30 21 1 20 22
M  V30 22 1 21 23
M  V30 23 1 6 7
M  V30 24 1 17 20
M  V30 25 1 19 21
M  V30 26 1 1 24
M  V30 27 1 3 25
M  V30 28 1 4 26
M  V30 29 1 5 27
M  V30 30 1 6 28
M  V30 31 1 11 29
M  V30 32 1 11 30
M  V30 33 1 11 31
M  V30 34 1 12 32
M  V30 35 1 13 33
M  V30 36 1 14 34
M  V30 37 1 15 35
M  V30 38 1 16 36
M  V30 39 1 17 37
M  V30 40 1 18 38
M  V30 41 1 19 39
M  V30 42 1 22 40
M  V30 43 1 23 41
M  V30 END BOND
M  V30 END CTAB
M  END
>  <Structure No>
636

>  <LogS>
-4.086559757

>  <MMFF94 Energy>
70.859

$$$$
Compound 637
Actelion Java MolfileCreator 2.0

  0  0  0  0  0  0              0 V3000
M  V30 BEGIN CTAB
M  V30 COUNTS 15 15 0 0 0
M  V30 BEGIN ATOM
M  V30 1 Cl -1.0842 2.6704 0.3335 0
M  V30 2 C -0.1391 1.1978 0.139 0
M  V30 3 C -0.7584 -0.0626 0.0057 0
M  V30 4 C 1.2576 1.2961 0.1181 0
M  V30 5 C 0.0417 -1.2081 -0.1469 0
M  V30 6 C -2.2564 -0.1915 0.0255 0
M  V30 7 C 2.0436 0.1502 -0.0342 0
M  V30 8 C 1.4349 -1.1005 -0.1665 0
M  V30 9 Cl 3.7928 0.2822 -0.0594 0
M  V30 10 H 1.7323 2.2641 0.2206 0
M  V30 11 H -0.4108 -2.1866 -0.2509 0
M  V30 12 H -2.6943 0.3983 -0.807 0
M  V30 13 H -2.6525 0.1877 0.9911 0
M  V30 14 H -2.5784 -1.2483 -0.0907 0
M  V30 15 H 2.0401 -1.9904 -0.2848 0
M  V30 END ATOM
M  V30 BEGIN BOND
M  V30 1 1 1 2
M  V30 2 2 2 3
M  V30 3 1 2 4
M  V30 4 1 3 5
M  V30 5 1 3 6
M  V30 6 2 4 7
M  V30 7 2 5 8
M  V30 8 1 7 9
M  V30 9 1 7 8
M  V30 10 1 4 10
M  V30 11 1 5 11
M  V30 12 1 6 12
M  V30 13 1 6 13
M  V30 14 1 6 14
M  V30 15 1 8 15
M  V30 END BOND
M  V30 END CTAB
M  END
>  <Structure No>
637

>  <LogS>
-3.808969481

>  <MMFF94 Energy>
11.292

$$$$
Compound 638
Actelion Java MolfileCreator 2.0

  0  0  0  0  0  0              0 V3000
M  V30 BEGIN CTAB
M  V30 COUNTS 46 48 0 0 0
M  V30 BEGIN ATOM
M  V30 1 S 2.0365 -1.955 -1.3845 0
M  V30 2 O 2.0486 -3.4574 -1.3943 0
M  V30 3 O 2.1478 -1.4757 -2.8059 0
M  V30 4 O 0.5762 -1.4257 -0.7063 0
M  V30 5 C 3.4102 -1.3891 -0.4354 0
M  V30 6 C 0.5675 -0.0173 -0.6946 0
M  V30 7 C 4.2169 -0.3421 -0.9023 0
M  V30 8 C 3.6785 -1.9655 0.8125 0
M  V30 9 C -0.7816 0.4791 -0.1705 0 CFG=1
M  V30 10 C 5.292 0.1137 -0.1336 0
M  V30 11 C 4.7536 -1.5107 1.5818 0
M  V30 12 O -0.7788 1.8838 -0.1088 0
M  V30 13 C -1.9411 0.0524 -1.0661 0 CFG=1
M  V30 14 C 5.5771 -0.4789 1.1061 0
M  V30 15 C -2.1157 2.2991 -0.264 0 CFG=1
M  V30 16 O -2.6 -1.058 -0.5395 0
M  V30 17 C -2.8764 1.1992 -1.0183 0 CFG=2
M  V30 18 C 6.7051 0.0372 1.9491 0
M  V30 19 O -2.6684 2.527 1.023 0
M  V30 20 C -3.8852 -0.6156 -0.164 0
M  V30 21 O -4.0178 0.7772 -0.3348 0
M  V30 22 C -3.5966 3.589 0.9811 0
M  V30 23 C -4.1082 -0.9509 1.3128 0
M  V30 24 C -4.9306 -1.3273 -1.0288 0
M  V30 25 H 1.361 0.3653 -0.0153 0
M  V30 26 H 0.7312 0.3962 -1.7156 0
M  V30 27 H 4.0104 0.1281 -1.8548 0
M  V30 28 H 3.0513 -2.7622 1.1923 0
M  V30 29 H -0.9265 0.0847 0.8621 0
M  V30 30 H 5.9003 0.9296 -0.504 0
M  V30 31 H 4.9426 -1.9617 2.5482 0
M  V30 32 H -1.6212 -0.1503 -2.1131 0
M  V30 33 H -2.0951 3.2224 -0.8923 0
M  V30 34 H -3.1547 1.5339 -2.0426 0
M  V30 35 H 7.5224 0.4338 1.3097 0
M  V30 36 H 7.126 -0.7746 2.5797 0
M  V30 37 H 6.3325 0.8502 2.6064 0
M  V30 38 H -4.383 3.4169 0.2126 0
M  V30 39 H -3.0784 4.5549 0.7939 0
M  V30 40 H -4.0988 3.6598 1.9676 0
M  V30 41 H -4.0122 -2.0448 1.4821 0
M  V30 42 H -5.1184 -0.6213 1.6379 0
M  V30 43 H -3.3508 -0.4295 1.9362 0
M  V30 44 H -4.854 -2.4286 -0.9032 0
M  V30 45 H -5.9549 -1.0014 -0.7472 0
M  V30 46 H -4.7647 -1.0826 -2.0997 0
M  V30 END ATOM
M  V30 BEGIN BOND
M  V30 1 2 1 2
M  V30 2 2 1 3
M  V30 3 1 1 4
M  V30 4 1 1 5
M  V30 5 1 4 6
M  V30 6 2 5 7
M  V30 7 1 5 8
M  V30 8 1 6 9
M  V30 9 1 7 10
M  V30 10 2 8 11
M  V30 11 1 9 12
M  V30 12 1 9 13
M  V30 13 2 10 14
M  V30 14 1 12 15
M  V30 15 1 13 16
M  V30 16 1 13 17
M  V30 17 1 14 18
M  V30 18 1 15 19
M  V30 19 1 16 20
M  V30 20 1 17 21
M  V30 21 1 19 22
M  V30 22 1 20 23
M  V30 23 1 20 24
M  V30 24 1 11 14
M  V30 25 1 15 17
M  V30 26 1 20 21
M  V30 27 1 6 25
M  V30 28 1 6 26
M  V30 29 1 7 27
M  V30 30 1 8 28
M  V30 31 1 9 29
M  V30 32 1 10 30
M  V30 33 1 11 31
M  V30 34 1 13 32
M  V30 35 1 15 33
M  V30 36 1 17 34
M  V30 37 1 18 35
M  V30 38 1 18 36
M  V30 39 1 18 37
M  V30 40 1 22 38
M  V30 41 1 22 39
M  V30 42 1 22 40
M  V30 43 1 23 41
M  V30 44 1 23 42
M  V30 45 1 23 43
M  V30 46 1 24 44
M  V30 47 1 24 45
M  V30 48 1 24 46
M  V30 END BOND
M  V30 BEGIN COLLECTION
M  V30 MDLV30/STEABS ATOMS=(4 9 13 15 17)
M  V30 END COLLECTION
M  V30 END CTAB
M  END
>  <Structure No>
638

>  <LogS>
-4.156442533

>  <MMFF94 Energy>
80.417

$$$$
Compound 639
Actelion Java MolfileCreator 2.0

  0  0  0  0  0  0              0 V3000
M  V30 BEGIN CTAB
M  V30 COUNTS 19 19 0 0 0
M  V30 BEGIN ATOM
M  V30 1 O 1.5625 0.781 -0.1561 0
M  V30 2 C 0.3657 0.0468 -0.1037 0
M  V30 3 C 2.742 0.3554 -0.8305 0
M  V30 4 C -0.7319 0.5833 0.6 0
M  V30 5 C 0.234 -1.2072 -0.7339 0
M  V30 6 C -1.9378 -0.1352 0.6643 0
M  V30 7 C -0.614 1.9189 1.2795 0
M  V30 8 C -0.9705 -1.9111 -0.662 0
M  V30 9 C -2.054 -1.3764 0.0354 0
M  V30 10 H 2.5368 0.2265 -1.9143 0
M  V30 11 H 3.1088 -0.5974 -0.3939 0
M  V30 12 H 3.5283 1.1281 -0.7076 0
M  V30 13 H 1.0562 -1.6468 -1.2815 0
M  V30 14 H -2.7895 0.264 1.2012 0
M  V30 15 H -0.3729 2.7004 0.5283 0
M  V30 16 H -1.5587 2.2043 1.7896 0
M  V30 17 H 0.1953 1.8817 2.0388 0
M  V30 18 H -1.0638 -2.8735 -1.1485 0
M  V30 19 H -2.9859 -1.9245 0.0888 0
M  V30 END ATOM
M  V30 BEGIN BOND
M  V30 1 1 1 2
M  V30 2 1 1 3
M  V30 3 2 2 4
M  V30 4 1 2 5
M  V30 5 1 4 6
M  V30 6 1 4 7
M  V30 7 2 5 8
M  V30 8 2 6 9
M  V30 9 1 8 9
M  V30 10 1 3 10
M  V30 11 1 3 11
M  V30 12 1 3 12
M  V30 13 1 5 13
M  V30 14 1 6 14
M  V30 15 1 7 15
M  V30 16 1 7 16
M  V30 17 1 7 17
M  V30 18 1 8 18
M  V30 19 1 9 19
M  V30 END BOND
M  V30 END CTAB
M  END
>  <Structure No>
639

>  <LogS>
-2.689083393

>  <MMFF94 Energy>
24.454

$$$$
Compound 640
Actelion Java MolfileCreator 2.0

  0  0  0  0  0  0              0 V3000
M  V30 BEGIN CTAB
M  V30 COUNTS 17 17 0 0 0
M  V30 BEGIN ATOM
M  V30 1 Cl 0.339 2.4597 1.2717 0
M  V30 2 C -0.4276 1.0384 0.5698 0
M  V30 3 C 0.2495 0.1982 -0.3431 0
M  V30 4 C -1.7457 0.7459 0.9421 0
M  V30 5 C -0.4104 -0.9371 -0.8457 0
M  V30 6 C 1.6785 0.4579 -0.7498 0
M  V30 7 C -2.3943 -0.3784 0.4239 0
M  V30 8 C -1.7252 -1.2199 -0.4676 0
M  V30 9 C 2.6177 -0.1611 0.2356 0
M  V30 10 Cl -4.0447 -0.7368 0.8985 0
M  V30 11 O 3.1274 0.5362 1.1518 0
M  V30 12 O 2.8999 -1.5195 0.1671 0 CHG=-1
M  V30 13 H -2.2659 1.392 1.6386 0
M  V30 14 H 0.0947 -1.606 -1.5317 0
M  V30 15 H 1.877 0.0275 -1.7553 0
M  V30 16 H 1.8732 1.5484 -0.8339 0
M  V30 17 H -2.2217 -2.0955 -0.8662 0
M  V30 END ATOM
M  V30 BEGIN BOND
M  V30 1 1 1 2
M  V30 2 2 2 3
M  V30 3 1 2 4
M  V30 4 1 3 5
M  V30 5 1 3 6
M  V30 6 2 4 7
M  V30 7 2 5 8
M  V30 8 1 6 9
M  V30 9 1 7 10
M  V30 10 2 9 11
M  V30 11 1 9 12
M  V30 12 1 7 8
M  V30 13 1 4 13
M  V30 14 1 5 14
M  V30 15 1 6 15
M  V30 16 1 6 16
M  V30 17 1 8 17
M  V30 END BOND
M  V30 END CTAB
M  END
>  <Structure No>
640

>  <LogS>
-2.91914164

>  <MMFF94 Energy>
33.713

$$$$
Compound 641
Actelion Java MolfileCreator 2.0

  0  0  0  0  0  0              0 V3000
M  V30 BEGIN CTAB
M  V30 COUNTS 33 34 0 0 0
M  V30 BEGIN ATOM
M  V30 1 O 4.6879 2.0637 0.714 0
M  V30 2 C 3.5661 1.3221 0.3506 0
M  V30 3 C 2.4504 1.9726 -0.1774 0
M  V30 4 C 3.5478 -0.0676 0.5062 0
M  V30 5 C 1.3182 1.2419 -0.5452 0
M  V30 6 C 2.4175 -0.8046 0.14 0
M  V30 7 C 1.2706 -0.1596 -0.3782 0
M  V30 8 C 0.0102 -0.9258 -0.8248 0
M  V30 9 C -1.2393 -0.254 -0.2227 0
M  V30 10 C -0.0012 -2.4009 -0.356 0
M  V30 11 C 0.0105 -0.9302 -2.3726 0
M  V30 12 C -1.2743 0.0156 1.1633 0
M  V30 13 C -2.3887 0.0537 -0.9869 0
M  V30 14 C -2.3966 0.6002 1.7548 0
M  V30 15 C -3.5089 0.6387 -0.3889 0
M  V30 16 C -3.5148 0.9154 0.982 0
M  V30 17 O -4.6266 1.4991 1.5852 0
M  V30 18 H 5.5137 1.6206 1.0993 0
M  V30 19 H 2.4611 3.0474 -0.3071 0
M  V30 20 H 4.4124 -0.5805 0.9081 0
M  V30 21 H 0.4714 1.7736 -0.9612 0
M  V30 22 H 2.4587 -1.8756 0.2699 0
M  V30 23 H 0.1298 -2.4712 0.7452 0
M  V30 24 H 0.8013 -2.9884 -0.8515 0
M  V30 25 H -0.9699 -2.8815 -0.6154 0
M  V30 26 H 0.9724 -1.3335 -2.7578 0
M  V30 27 H -0.8014 -1.5736 -2.7748 0
M  V30 28 H -0.1134 0.0981 -2.775 0
M  V30 29 H -0.4255 -0.2262 1.7906 0
M  V30 30 H -2.4394 -0.1493 -2.046 0
M  V30 31 H -2.3979 0.8053 2.8178 0
M  V30 32 H -4.3757 0.8732 -0.9938 0
M  V30 33 H -5.454 1.7386 1.0515 0
M  V30 END ATOM
M  V30 BEGIN BOND
M  V30 1 1 1 2
M  V30 2 2 2 3
M  V30 3 1 2 4
M  V30 4 1 3 5
M  V30 5 2 4 6
M  V30 6 2 5 7
M  V30 7 1 7 8
M  V30 8 1 8 9
M  V30 9 1 8 10
M  V30 10 1 8 11
M  V30 11 2 9 12
M  V30 12 1 9 13
M  V30 13 1 12 14
M  V30 14 2 13 15
M  V30 15 2 14 16
M  V30 16 1 16 17
M  V30 17 1 6 7
M  V30 18 1 15 16
M  V30 19 1 1 18
M  V30 20 1 3 19
M  V30 21 1 4 20
M  V30 22 1 5 21
M  V30 23 1 6 22
M  V30 24 1 10 23
M  V30 25 1 10 24
M  V30 26 1 10 25
M  V30 27 1 11 26
M  V30 28 1 11 27
M  V30 29 1 11 28
M  V30 30 1 12 29
M  V30 31 1 13 30
M  V30 32 1 14 31
M  V30 33 1 15 32
M  V30 34 1 17 33
M  V30 END BOND
M  V30 END CTAB
M  END
>  <Structure No>
641

>  <LogS>
-5.029134765

>  <MMFF94 Energy>
42.953

$$$$
Compound 642
Actelion Java MolfileCreator 2.0

  0  0  0  0  0  0              0 V3000
M  V30 BEGIN CTAB
M  V30 COUNTS 10 9 0 0 0
M  V30 BEGIN ATOM
M  V30 1 O 2.2621 -0.1558 0.1558 0
M  V30 2 C 1.2758 0.1634 -0.5585 0
M  V30 3 O 1.3518 0.0248 -1.9385 0 CHG=-1
M  V30 4 C 0.0089 0.6408 0.0772 0
M  V30 5 C -0.9172 -0.532 0.3759 0
M  V30 6 H -0.5031 1.35 -0.6076 0
M  V30 7 H 0.2418 1.1785 1.0218 0
M  V30 8 H -1.1788 -1.0658 -0.5627 0
M  V30 9 H -1.8518 -0.1573 0.8438 0
M  V30 10 H -0.4279 -1.241 1.0776 0
M  V30 END ATOM
M  V30 BEGIN BOND
M  V30 1 2 1 2
M  V30 2 1 2 3
M  V30 3 1 2 4
M  V30 4 1 4 5
M  V30 5 1 4 6
M  V30 6 1 4 7
M  V30 7 1 5 8
M  V30 8 1 5 9
M  V30 9 1 5 10
M  V30 END BOND
M  V30 END CTAB
M  END
>  <Structure No>
642

>  <LogS>
-2.823279191

>  <MMFF94 Energy>
1.8575

$$$$
Compound 643
Actelion Java MolfileCreator 2.0

  0  0  0  0  0  0              0 V3000
M  V30 BEGIN CTAB
M  V30 COUNTS 13 13 0 0 0
M  V30 BEGIN ATOM
M  V30 1 Cl -2.5484 0.7393 -2.1371 0
M  V30 2 C -1.228 0.3492 -1.0501 0
M  V30 3 C -1.1508 -0.9218 -0.4694 0
M  V30 4 C -0.2505 1.3087 -0.7626 0
M  V30 5 C -0.0982 -1.2338 0.3975 0
M  V30 6 C 0.8028 0.9987 0.104 0
M  V30 7 C 0.8811 -0.2738 0.6861 0
M  V30 8 C 1.9647 -0.5939 1.5781 0
M  V30 9 N 2.8358 -0.8513 2.2952 0
M  V30 10 H -1.9046 -1.6673 -0.6886 0
M  V30 11 H -0.3059 2.2934 -1.2092 0
M  V30 12 H -0.0482 -2.2208 0.8415 0
M  V30 13 H 1.5542 1.7489 0.3197 0
M  V30 END ATOM
M  V30 BEGIN BOND
M  V30 1 1 1 2
M  V30 2 2 2 3
M  V30 3 1 2 4
M  V30 4 1 3 5
M  V30 5 2 4 6
M  V30 6 2 5 7
M  V30 7 1 7 8
M  V30 8 3 8 9
M  V30 9 1 6 7
M  V30 10 1 3 10
M  V30 11 1 4 11
M  V30 12 1 5 12
M  V30 13 1 6 13
M  V30 END BOND
M  V30 END CTAB
M  END
>  <Structure No>
643

>  <LogS>
-2.749354496

>  <MMFF94 Energy>
28.866

$$$$
Compound 644
Actelion Java MolfileCreator 2.0

  0  0  0  0  0  0              0 V3000
M  V30 BEGIN CTAB
M  V30 COUNTS 14 14 0 0 0
M  V30 BEGIN ATOM
M  V30 1 Cl -3.5667 -0.5799 0.4971 0
M  V30 2 C -1.858 -0.2776 0.2396 0
M  V30 3 C -1.0163 -1.3176 -0.165 0
M  V30 4 C -1.336 1.0035 0.4391 0
M  V30 5 C 0.346 -1.0789 -0.3707 0
M  V30 6 C 0.0257 1.2466 0.2345 0
M  V30 7 C 0.8827 0.2065 -0.1732 0
M  V30 8 N 2.2852 0.4506 -0.3855 0 CHG=1
M  V30 9 O 2.767 1.5894 -0.2116 0
M  V30 10 O 3.1198 -0.5684 -0.7839 0 CHG=-1
M  V30 11 H -1.4163 -2.3116 -0.3206 0
M  V30 12 H -1.9841 1.8123 0.7527 0
M  V30 13 H 0.9782 -1.8994 -0.684 0
M  V30 14 H 0.4078 2.2467 0.395 0
M  V30 END ATOM
M  V30 BEGIN BOND
M  V30 1 1 1 2
M  V30 2 2 2 3
M  V30 3 1 2 4
M  V30 4 1 3 5
M  V30 5 2 4 6
M  V30 6 2 5 7
M  V30 7 1 7 8
M  V30 8 2 8 9
M  V30 9 1 8 10
M  V30 10 1 6 7
M  V30 11 1 3 11
M  V30 12 1 4 12
M  V30 13 1 5 13
M  V30 14 1 6 14
M  V30 END BOND
M  V30 END CTAB
M  END
>  <Structure No>
644

>  <LogS>
-2.811828673

>  <MMFF94 Energy>
49.015

$$$$
Compound 645
Actelion Java MolfileCreator 2.0

  0  0  0  0  0  0              0 V3000
M  V30 BEGIN CTAB
M  V30 COUNTS 23 23 0 0 0
M  V30 BEGIN ATOM
M  V30 1 O 4.7245 0.7862 0.4716 0
M  V30 2 C 3.979 -0.1081 -0.009 0
M  V30 3 C 2.5105 0.0118 0.049 0
M  V30 4 C 1.8958 1.1267 0.642 0
M  V30 5 C 1.7103 -1.0022 -0.4957 0
M  V30 6 C 0.5021 1.2239 0.6884 0
M  V30 7 C 0.3168 -0.9059 -0.4498 0
M  V30 8 C -0.3035 0.2095 0.1434 0
M  V30 9 C -1.815 0.3277 0.2004 0
M  V30 10 C -2.419 0.379 -1.2079 0
M  V30 11 C -2.428 -0.8121 1.0223 0
M  V30 12 H 4.4332 -0.9756 -0.4705 0
M  V30 13 H 2.4909 1.9236 1.0702 0
M  V30 14 H 2.1641 -1.8705 -0.9576 0
M  V30 15 H 0.0529 2.0939 1.1512 0
M  V30 16 H -0.2761 -1.7033 -0.8781 0
M  V30 17 H -2.0931 1.2789 0.7074 0
M  V30 18 H -1.962 1.2092 -1.7877 0
M  V30 19 H -3.5132 0.5607 -1.1456 0
M  V30 20 H -2.2504 -0.5745 -1.7515 0
M  V30 21 H -3.5225 -0.6558 1.132 0
M  V30 22 H -1.9775 -0.8339 2.0377 0
M  V30 23 H -2.2597 -1.7948 0.5333 0
M  V30 END ATOM
M  V30 BEGIN BOND
M  V30 1 2 1 2
M  V30 2 1 2 3
M  V30 3 2 3 4
M  V30 4 1 3 5
M  V30 5 1 4 6
M  V30 6 2 5 7
M  V30 7 2 6 8
M  V30 8 1 8 9
M  V30 9 1 9 10
M  V30 10 1 9 11
M  V30 11 1 7 8
M  V30 12 1 2 12
M  V30 13 1 4 13
M  V30 14 1 5 14
M  V30 15 1 6 15
M  V30 16 1 7 16
M  V30 17 1 9 17
M  V30 18 1 10 18
M  V30 19 1 10 19
M  V30 20 1 10 20
M  V30 21 1 11 21
M  V30 22 1 11 22
M  V30 23 1 11 23
M  V30 END BOND
M  V30 END CTAB
M  END
>  <Structure No>
645

>  <LogS>
-2.785256582

>  <MMFF94 Energy>
37.665

$$$$
Compound 646
Actelion Java MolfileCreator 2.0

  0  0  0  0  0  0              0 V3000
M  V30 BEGIN CTAB
M  V30 COUNTS 34 33 0 0 0
M  V30 BEGIN ATOM
M  V30 1 O -4.1527 -1.2522 1.2522 0
M  V30 2 C -3.512 -0.4456 0.5231 0
M  V30 3 O -2.3016 0.0942 0.9714 0
M  V30 4 C -4.0427 -0.0744 -0.8072 0
M  V30 5 C -1.7267 -0.2391 2.2314 0
M  V30 6 C -3.3304 0.705 -1.6283 0
M  V30 7 C -5.3562 -0.6435 -1.2708 0
M  V30 8 C -0.4078 0.5103 2.4192 0
M  V30 9 C 0.6383 0.0821 1.3822 0
M  V30 10 C 1.9579 0.8303 1.5901 0
M  V30 11 O 2.9323 0.3964 0.6432 0
M  V30 12 C 2.9297 0.7861 -0.7021 0
M  V30 13 O 2.0688 1.6084 -1.1226 0
M  V30 14 C 3.9472 0.2299 -1.6217 0
M  V30 15 C 3.9279 0.5225 -2.9277 0
M  V30 16 C 4.9682 -0.7358 -1.0871 0
M  V30 17 H -2.4267 0.0521 3.0447 0
M  V30 18 H -1.5506 -1.3357 2.2894 0
M  V30 19 H -2.3685 1.1064 -1.335 0
M  V30 20 H -3.6967 0.9548 -2.6164 0
M  V30 21 H -5.202 -1.6826 -1.6296 0
M  V30 22 H -6.0872 -0.6535 -0.4349 0
M  V30 23 H -5.7951 -0.0396 -2.0943 0
M  V30 24 H -0.0229 0.3012 3.4412 0
M  V30 25 H -0.5959 1.6033 2.335 0
M  V30 26 H 0.8249 -1.0105 1.4705 0
M  V30 27 H 0.255 0.2905 0.3602 0
M  V30 28 H 2.3433 0.614 2.6093 0
M  V30 29 H 1.8051 1.9289 1.5056 0
M  V30 30 H 3.1884 1.1939 -3.3459 0
M  V30 31 H 4.6534 0.0916 -3.6065 0
M  V30 32 H 4.4969 -1.7312 -0.9481 0
M  V30 33 H 5.8343 -0.8411 -1.7757 0
M  V30 34 H 5.3561 -0.3793 -0.1096 0
M  V30 END ATOM
M  V30 BEGIN BOND
M  V30 1 2 1 2
M  V30 2 1 2 3
M  V30 3 1 2 4
M  V30 4 1 3 5
M  V30 5 2 4 6
M  V30 6 1 4 7
M  V30 7 1 5 8
M  V30 8 1 8 9
M  V30 9 1 9 10
M  V30 10 1 10 11
M  V30 11 1 11 12
M  V30 12 2 12 13
M  V30 13 1 12 14
M  V30 14 2 14 15
M  V30 15 1 14 16
M  V30 16 1 5 17
M  V30 17 1 5 18
M  V30 18 1 6 19
M  V30 19 1 6 20
M  V30 20 1 7 21
M  V30 21 1 7 22
M  V30 22 1 7 23
M  V30 23 1 8 24
M  V30 24 1 8 25
M  V30 25 1 9 26
M  V30 26 1 9 27
M  V30 27 1 10 28
M  V30 28 1 10 29
M  V30 29 1 15 30
M  V30 30 1 15 31
M  V30 31 1 16 32
M  V30 32 1 16 33
M  V30 33 1 16 34
M  V30 END BOND
M  V30 END CTAB
M  END
>  <Structure No>
646

>  <LogS>
-2.969024542

>  <MMFF94 Energy>
2.9313

$$$$
Compound 647
Actelion Java MolfileCreator 2.0

  0  0  0  0  0  0              0 V3000
M  V30 BEGIN CTAB
M  V30 COUNTS 20 20 0 0 0
M  V30 BEGIN ATOM
M  V30 1 Cl 2.828 0.4843 -2.5853 0
M  V30 2 C 2.1512 -0.0559 -1.0595 0
M  V30 3 C 0.8507 0.3166 -0.6998 0
M  V30 4 C 2.9109 -0.8596 -0.2066 0
M  V30 5 C 0.2935 -0.1126 0.5231 0
M  V30 6 C 2.3727 -1.2935 1.0051 0
M  V30 7 C -1.089 0.2656 0.9328 0
M  V30 8 C 1.0744 -0.9251 1.3692 0
M  V30 9 O -1.5919 -0.2547 1.9661 0
M  V30 10 C -1.939 1.2278 0.1465 0
M  V30 11 C -2.6812 0.5089 -0.9757 0
M  V30 12 H 0.2879 0.9318 -1.3869 0
M  V30 13 H 3.9169 -1.1492 -0.4823 0
M  V30 14 H 2.9624 -1.9167 1.6649 0
M  V30 15 H 0.6845 -1.2751 2.3167 0
M  V30 16 H -1.3233 2.0545 -0.2648 0
M  V30 17 H -2.6868 1.6953 0.8237 0
M  V30 18 H -3.3487 -0.273 -0.5547 0
M  V30 19 H -3.3006 1.2388 -1.5382 0
M  V30 20 H -1.966 0.0344 -1.6799 0
M  V30 END ATOM
M  V30 BEGIN BOND
M  V30 1 1 1 2
M  V30 2 2 2 3
M  V30 3 1 2 4
M  V30 4 1 3 5
M  V30 5 2 4 6
M  V30 6 1 5 7
M  V30 7 2 5 8
M  V30 8 2 7 9
M  V30 9 1 7 10
M  V30 10 1 10 11
M  V30 11 1 6 8
M  V30 12 1 3 12
M  V30 13 1 4 13
M  V30 14 1 6 14
M  V30 15 1 8 15
M  V30 16 1 10 16
M  V30 17 1 10 17
M  V30 18 1 11 18
M  V30 19 1 11 19
M  V30 20 1 11 20
M  V30 END BOND
M  V30 END CTAB
M  END
>  <Structure No>
647

>  <LogS>
-1.84670557

>  <MMFF94 Energy>
25.519

$$$$
Compound 648
Actelion Java MolfileCreator 2.0

  0  0  0  0  0  0              0 V3000
M  V30 BEGIN CTAB
M  V30 COUNTS 21 22 0 0 0
M  V30 BEGIN ATOM
M  V30 1 O 3.4272 -0.9555 0.5573 0
M  V30 2 C 2.8142 -0.2482 -0.4941 0 CFG=2
M  V30 3 C 4.0347 0.2575 0.1718 0
M  V30 4 C 1.4917 0.3798 -0.0638 0
M  V30 5 O 0.442 -0.561 -0.2691 0
M  V30 6 C -0.9123 -0.3082 -0.0059 0
M  V30 7 C -1.8398 -1.3294 -0.2508 0
M  V30 8 C -1.3683 0.9289 0.4924 0
M  V30 9 C -3.201 -1.1254 -0.004 0
M  V30 10 C -2.7307 1.1291 0.7379 0
M  V30 11 C -3.6462 0.1032 0.4901 0
M  V30 12 H 2.9262 -0.7578 -1.4741 0
M  V30 13 H 4.9922 0.0755 -0.3588 0
M  V30 14 H 3.915 1.0352 0.9557 0
M  V30 15 H 1.5173 0.6783 1.0081 0
M  V30 16 H 1.3121 1.2801 -0.6892 0
M  V30 17 H -1.5033 -2.2845 -0.6336 0
M  V30 18 H -0.6807 1.7392 0.6924 0
M  V30 19 H -3.9105 -1.9199 -0.196 0
M  V30 20 H -3.0769 2.0807 1.1206 0
M  V30 21 H -4.7001 0.2602 0.6809 0
M  V30 END ATOM
M  V30 BEGIN BOND
M  V30 1 1 1 2
M  V30 2 1 1 3
M  V30 3 1 2 4
M  V30 4 1 4 5
M  V30 5 1 5 6
M  V30 6 2 6 7
M  V30 7 1 6 8
M  V30 8 1 7 9
M  V30 9 2 8 10
M  V30 10 2 9 11
M  V30 11 1 2 3
M  V30 12 1 10 11
M  V30 13 1 2 12
M  V30 14 1 3 13
M  V30 15 1 3 14
M  V30 16 1 4 15
M  V30 17 1 4 16
M  V30 18 1 7 17
M  V30 19 1 8 18
M  V30 20 1 9 19
M  V30 21 1 10 20
M  V30 22 1 11 21
M  V30 END BOND
M  V30 BEGIN COLLECTION
M  V30 MDLV30/STEABS ATOMS=(1 2)
M  V30 END COLLECTION
M  V30 END CTAB
M  END
>  <Structure No>
648

>  <LogS>
-1.796392183

>  <MMFF94 Energy>
31.15

$$$$
Compound 649
Actelion Java MolfileCreator 2.0

  0  0  0  0  0  0              0 V3000
M  V30 BEGIN CTAB
M  V30 COUNTS 27 26 0 0 0
M  V30 BEGIN ATOM
M  V30 1 O 2.7857 3.0247 -1.4319 0
M  V30 2 C 3.3355 2.0239 -0.9012 0
M  V30 3 O 4.1759 1.2181 -1.6589 0 CHG=-1
M  V30 4 C 3.0552 1.6807 0.5297 0
M  V30 5 C 1.7021 0.975 0.6912 0
M  V30 6 C 1.6974 -0.4245 0.0517 0
M  V30 7 C 0.4193 -1.2164 0.3704 0
M  V30 8 C -0.8166 -0.6596 -0.3517 0
M  V30 9 C -2.0432 -1.5515 -0.1078 0
M  V30 10 C -3.2849 -1.0492 -0.8562 0
M  V30 11 C -3.7941 0.2387 -0.2848 0
M  V30 12 O -3.555 1.3295 -0.8668 0
M  V30 13 O -4.5052 0.2368 0.9084 0 CHG=-1
M  V30 14 H 3.0463 2.6179 1.1274 0
M  V30 15 H 3.8704 1.0393 0.9294 0
M  V30 16 H 0.9066 1.6076 0.2421 0
M  V30 17 H 1.4892 0.8796 1.7784 0
M  V30 18 H 2.5637 -1.0013 0.4437 0
M  V30 19 H 1.8188 -0.3421 -1.0502 0
M  V30 20 H 0.2445 -1.2244 1.4689 0
M  V30 21 H 0.5799 -2.2686 0.0479 0
M  V30 22 H -1.0327 0.3633 0.0211 0
M  V30 23 H -0.6137 -0.605 -1.4439 0
M  V30 24 H -1.8184 -2.5811 -0.4629 0
M  V30 25 H -2.2601 -1.6086 0.9819 0
M  V30 26 H -4.0881 -1.8123 -0.7714 0
M  V30 27 H -3.0553 -0.9256 -1.9373 0
M  V30 END ATOM
M  V30 BEGIN BOND
M  V30 1 2 1 2
M  V30 2 1 2 3
M  V30 3 1 2 4
M  V30 4 1 4 5
M  V30 5 1 5 6
M  V30 6 1 6 7
M  V30 7 1 7 8
M  V30 8 1 8 9
M  V30 9 1 9 10
M  V30 10 1 10 11
M  V30 11 2 11 12
M  V30 12 1 11 13
M  V30 13 1 4 14
M  V30 14 1 4 15
M  V30 15 1 5 16
M  V30 16 1 5 17
M  V30 17 1 6 18
M  V30 18 1 6 19
M  V30 19 1 7 20
M  V30 20 1 7 21
M  V30 21 1 8 22
M  V30 22 1 8 23
M  V30 23 1 9 24
M  V30 24 1 9 25
M  V30 25 1 10 26
M  V30 26 1 10 27
M  V30 END BOND
M  V30 END CTAB
M  END
>  <Structure No>
649

>  <LogS>
-1.894461449

>  <MMFF94 Energy>
39.222

$$$$
Compound 650
Actelion Java MolfileCreator 2.0

  0  0  0  0  0  0              0 V3000
M  V30 BEGIN CTAB
M  V30 COUNTS 46 46 0 0 0
M  V30 BEGIN ATOM
M  V30 1 O -1.8132 3.1551 -2.4445 0
M  V30 2 C -1.3779 2.8993 -1.291 0
M  V30 3 O -0.0171 3.104 -1.0281 0
M  V30 4 C -2.3199 2.3121 -0.2745 0
M  V30 5 C 0.5799 2.9834 0.2612 0
M  V30 6 C -2.3152 0.7833 -0.3723 0
M  V30 7 C 2.1007 3.1301 0.1454 0
M  V30 8 C -3.2279 0.1528 0.6883 0
M  V30 9 C 2.7567 1.9456 -0.5865 0
M  V30 10 C -3.3794 -1.3705 0.5216 0
M  V30 11 C 2.9691 0.7395 0.332 0
M  V30 12 C -2.0616 -2.1463 0.7281 0
M  V30 13 O 3.4427 -0.349 -0.4342 0
M  V30 14 C -1.4079 -2.5421 -0.609 0
M  V30 15 C 3.488 -1.5317 0.3462 0
M  V30 16 C 0.0077 -3.1152 -0.4363 0
M  V30 17 C 2.469 -2.5526 -0.1724 0
M  V30 18 C 1.0303 -2.0344 -0.0517 0
M  V30 19 H -2.0376 2.6349 0.7493 0
M  V30 20 H -3.3469 2.692 -0.4687 0
M  V30 21 H 0.19 3.791 0.9174 0
M  V30 22 H 0.3223 2.0067 0.7192 0
M  V30 23 H -1.2763 0.4178 -0.2273 0
M  V30 24 H -2.6628 0.4826 -1.3853 0
M  V30 25 H 2.3216 4.0657 -0.413 0
M  V30 26 H 2.5413 3.2414 1.1602 0
M  V30 27 H -2.8327 0.3786 1.7032 0
M  V30 28 H -4.2398 0.6081 0.613 0
M  V30 29 H 3.7483 2.2693 -0.9709 0
M  V30 30 H 2.1413 1.6472 -1.4633 0
M  V30 31 H -4.1085 -1.7155 1.2869 0
M  V30 32 H -3.8303 -1.6003 -0.4689 0
M  V30 33 H 2.0068 0.4845 0.8268 0
M  V30 34 H 3.7175 1.0075 1.1118 0
M  V30 35 H -2.2783 -3.0792 1.2933 0
M  V30 36 H -1.3684 -1.5478 1.3542 0
M  V30 37 H -2.0423 -3.3177 -1.091 0
M  V30 38 H -1.3708 -1.6799 -1.3065 0
M  V30 39 H 3.3352 -1.3734 1.4417 0
M  V30 40 H 4.5014 -1.9725 0.2378 0
M  V30 41 H 9.0E-4 -3.9209 0.33 0
M  V30 42 H 0.3101 -3.5707 -1.4046 0
M  V30 43 H 2.6937 -2.7846 -1.2364 0
M  V30 44 H 2.5758 -3.4897 0.4167 0
M  V30 45 H 0.8526 -1.714 0.9964 0
M  V30 46 H 0.9064 -1.1547 -0.7205 0
M  V30 END ATOM
M  V30 BEGIN BOND
M  V30 1 2 1 2
M  V30 2 1 2 3
M  V30 3 1 2 4
M  V30 4 1 3 5
M  V30 5 1 4 6
M  V30 6 1 5 7
M  V30 7 1 6 8
M  V30 8 1 7 9
M  V30 9 1 8 10
M  V30 10 1 9 11
M  V30 11 1 10 12
M  V30 12 1 11 13
M  V30 13 1 12 14
M  V30 14 1 13 15
M  V30 15 1 14 16
M  V30 16 1 15 17
M  V30 17 1 16 18
M  V30 18 1 17 18
M  V30 19 1 4 19
M  V30 20 1 4 20
M  V30 21 1 5 21
M  V30 22 1 5 22
M  V30 23 1 6 23
M  V30 24 1 6 24
M  V30 25 1 7 25
M  V30 26 1 7 26
M  V30 27 1 8 27
M  V30 28 1 8 28
M  V30 29 1 9 29
M  V30 30 1 9 30
M  V30 31 1 10 31
M  V30 32 1 10 32
M  V30 33 1 11 33
M  V30 34 1 11 34
M  V30 35 1 12 35
M  V30 36 1 12 36
M  V30 37 1 14 37
M  V30 38 1 14 38
M  V30 39 1 15 39
M  V30 40 1 15 40
M  V30 41 1 16 41
M  V30 42 1 16 42
M  V30 43 1 17 43
M  V30 44 1 17 44
M  V30 45 1 18 45
M  V30 46 1 18 46
M  V30 END BOND
M  V30 END CTAB
M  END
>  <Structure No>
650

>  <LogS>
-4.0179592

>  <MMFF94 Energy>
5.8872

$$$$
Compound 651
Actelion Java MolfileCreator 2.0

  0  0  0  0  0  0              0 V3000
M  V30 BEGIN CTAB
M  V30 COUNTS 31 30 0 0 0
M  V30 BEGIN ATOM
M  V30 1 O 4.821 -0.5433 -0.6986 0
M  V30 2 C 3.7444 -0.9655 -1.0901 0
M  V30 3 C 2.485 -0.1854 -0.845 0
M  V30 4 C 2.1468 -0.0878 0.6589 0 CFG=1
M  V30 5 C 1.0542 0.9738 0.965 0
M  V30 6 C 1.825 -1.4641 1.2685 0
M  V30 7 C -0.1863 1.0051 0.0469 0
M  V30 8 C -1.0827 -0.2415 0.1707 0
M  V30 9 C -2.5202 -0.0553 -0.3716 0
M  V30 10 C -3.3653 0.8778 0.5075 0
M  V30 11 C -2.5386 0.4028 -1.8362 0
M  V30 12 H 3.7025 -1.9053 -1.6309 0
M  V30 13 H 1.6525 -0.6773 -1.3919 0
M  V30 14 H 2.6193 0.834 -1.2675 0
M  V30 15 H 3.061 0.2717 1.1842 0
M  V30 16 H 0.7249 0.8848 2.0236 0
M  V30 17 H 1.5351 1.9739 0.8848 0
M  V30 18 H 1.4623 -1.3567 2.3126 0
M  V30 19 H 1.0687 -2.0135 0.6769 0
M  V30 20 H 2.7443 -2.0868 1.2963 0
M  V30 21 H -0.7666 1.9061 0.3325 0
M  V30 22 H 0.1199 1.1503 -1.0101 0
M  V30 23 H -0.6182 -1.0676 -0.4053 0
M  V30 24 H -1.1398 -0.5627 1.234 0
M  V30 25 H -3.0058 -1.0562 -0.3363 0
M  V30 26 H -4.4293 0.8291 0.1915 0
M  V30 27 H -3.0304 1.9321 0.4229 0
M  V30 28 H -3.3085 0.5634 1.5713 0
M  V30 29 H -3.5776 0.375 -2.2285 0
M  V30 30 H -2.1546 1.4403 -1.9342 0
M  V30 31 H -1.9149 -0.2741 -2.4579 0
M  V30 END ATOM
M  V30 BEGIN BOND
M  V30 1 2 1 2
M  V30 2 1 2 3
M  V30 3 1 3 4
M  V30 4 1 4 5
M  V30 5 1 4 6
M  V30 6 1 5 7
M  V30 7 1 7 8
M  V30 8 1 8 9
M  V30 9 1 9 10
M  V30 10 1 9 11
M  V30 11 1 2 12
M  V30 12 1 3 13
M  V30 13 1 3 14
M  V30 14 1 4 15
M  V30 15 1 5 16
M  V30 16 1 5 17
M  V30 17 1 6 18
M  V30 18 1 6 19
M  V30 19 1 6 20
M  V30 20 1 7 21
M  V30 21 1 7 22
M  V30 22 1 8 23
M  V30 23 1 8 24
M  V30 24 1 9 25
M  V30 25 1 10 26
M  V30 26 1 10 27
M  V30 27 1 10 28
M  V30 28 1 11 29
M  V30 29 1 11 30
M  V30 30 1 11 31
M  V30 END BOND
M  V30 BEGIN COLLECTION
M  V30 MDLV30/STEABS ATOMS=(1 4)
M  V30 END COLLECTION
M  V30 END CTAB
M  END
>  <Structure No>
651

>  <LogS>
-3.806483007

>  <MMFF94 Energy>
9.7638

$$$$
Compound 652
Actelion Java MolfileCreator 2.0

  0  0  0  0  0  0              0 V3000
M  V30 BEGIN CTAB
M  V30 COUNTS 28 29 0 0 0
M  V30 BEGIN ATOM
M  V30 1 S 0.1599 -0.8801 1.6007 0
M  V30 2 C 0.0562 0.3387 0.4989 0
M  V30 3 N 1.2572 0.9446 -0.0051 0
M  V30 4 N -1.1919 1.0259 0.3154 0
M  V30 5 C 2.4715 0.2277 -0.2878 0
M  V30 6 C -2.4822 0.3924 0.3605 0
M  V30 7 C 2.4474 -1.109 -0.7272 0
M  V30 8 C 3.7038 0.8918 -0.1858 0
M  V30 9 C -2.6593 -0.9392 -0.0587 0
M  V30 10 C -3.6009 1.1346 0.7703 0
M  V30 11 C 3.6408 -1.7758 -1.0216 0
M  V30 12 C 4.8951 0.2215 -0.4805 0
M  V30 13 C -3.9293 -1.5242 -0.0307 0
M  V30 14 C -4.8691 0.5461 0.7975 0
M  V30 15 C 4.8638 -1.1125 -0.8944 0
M  V30 16 C -5.0326 -0.7835 0.4009 0
M  V30 17 H 1.2451 1.9745 -0.1821 0
M  V30 18 H -1.1585 2.0544 0.1324 0
M  V30 19 H 1.5083 -1.6298 -0.8613 0
M  V30 20 H 3.7402 1.9265 0.1316 0
M  V30 21 H -1.8225 -1.5191 -0.4253 0
M  V30 22 H -3.4868 2.1667 1.0775 0
M  V30 23 H 3.6164 -2.8047 -1.3563 0
M  V30 24 H 5.8423 0.7375 -0.3902 0
M  V30 25 H -4.0592 -2.5496 -0.3516 0
M  V30 26 H -5.7256 1.122 1.1238 0
M  V30 27 H 5.7864 -1.6295 -1.1241 0
M  V30 28 H -6.0151 -1.2372 0.4205 0
M  V30 END ATOM
M  V30 BEGIN BOND
M  V30 1 2 1 2
M  V30 2 1 2 3
M  V30 3 1 2 4
M  V30 4 1 3 5
M  V30 5 1 4 6
M  V30 6 2 5 7
M  V30 7 1 5 8
M  V30 8 2 6 9
M  V30 9 1 6 10
M  V30 10 1 7 11
M  V30 11 2 8 12
M  V30 12 1 9 13
M  V30 13 2 10 14
M  V30 14 2 11 15
M  V30 15 2 13 16
M  V30 16 1 12 15
M  V30 17 1 14 16
M  V30 18 1 3 17
M  V30 19 1 4 18
M  V30 20 1 7 19
M  V30 21 1 8 20
M  V30 22 1 9 21
M  V30 23 1 10 22
M  V30 24 1 11 23
M  V30 25 1 12 24
M  V30 26 1 13 25
M  V30 27 1 14 26
M  V30 28 1 15 27
M  V30 29 1 16 28
M  V30 END BOND
M  V30 END CTAB
M  END
>  <Structure No>
652

>  <LogS>
-3.971688427

>  <MMFF94 Energy>
2.8703

$$$$
Compound 653
Actelion Java MolfileCreator 2.0

  0  0  0  0  0  0              0 V3000
M  V30 BEGIN CTAB
M  V30 COUNTS 44 47 0 0 0
M  V30 BEGIN ATOM
M  V30 1 O 5.453 0.1624 -1.1375 0
M  V30 2 C 4.425 0.2711 -0.487 0
M  V30 3 C 3.9215 -0.9 0.317 0
M  V30 4 C 3.6846 1.5846 -0.4782 0
M  V30 5 C 2.4155 -0.8411 0.4662 0
M  V30 6 C 2.6164 1.6186 0.624 0
M  V30 7 C 1.7799 0.3479 0.6098 0
M  V30 8 C 1.5914 -2.106 0.3973 0
M  V30 9 C 0.253 0.3247 0.7008 0 CFG=2
M  V30 10 C 0.4215 -1.9309 -0.585 0
M  V30 11 C -0.3095 -0.5555 -0.4458 0 CFG=1
M  V30 12 C -0.4158 1.709 0.666 0
M  V30 13 C -1.8583 -0.6903 -0.393 0 CFG=2
M  V30 14 C -1.9283 1.5772 0.8565 0
M  V30 15 C -2.6041 0.6564 -0.198 0 CFG=2
M  V30 16 C -2.4255 -1.627 0.6912 0
M  V30 17 C -3.912 0.1943 0.3653 0
M  V30 18 C -2.8074 1.3874 -1.5407 0
M  V30 19 C -3.8811 -1.2011 0.8755 0
M  V30 20 O -4.9028 0.9053 0.4455 0
M  V30 21 H 4.2245 -1.8474 -0.1781 0
M  V30 22 H 4.3875 -0.8681 1.3243 0
M  V30 23 H 4.4038 2.4149 -0.3087 0
M  V30 24 H 3.2036 1.7329 -1.469 0
M  V30 25 H 2.015 2.5376 0.4904 0
M  V30 26 H 3.1199 1.6932 1.6123 0
M  V30 27 H 2.2098 -2.9752 0.0872 0
M  V30 28 H 1.1882 -2.3263 1.4096 0
M  V30 29 H 0.0018 -0.1451 1.6771 0
M  V30 30 H 0.8234 -2.0181 -1.6189 0
M  V30 31 H -0.2693 -2.7878 -0.4574 0
M  V30 32 H -0.0869 -0.0028 -1.388 0
M  V30 33 H -0.201 2.2253 -0.2948 0
M  V30 34 H -0.0251 2.3332 1.499 0
M  V30 35 H -2.1723 -1.131 -1.3687 0
M  V30 36 H -2.387 2.5899 0.8291 0
M  V30 37 H -2.104 1.179 1.8824 0
M  V30 38 H -1.8776 -1.4988 1.649 0
M  V30 39 H -2.3776 -2.6937 0.3853 0
M  V30 40 H -3.3749 0.7509 -2.2534 0
M  V30 41 H -1.83 1.6403 -2.0011 0
M  V30 42 H -3.3776 2.3293 -1.3906 0
M  V30 43 H -4.5595 -1.8361 0.2661 0
M  V30 44 H -4.1748 -1.2385 1.9466 0
M  V30 END ATOM
M  V30 BEGIN BOND
M  V30 1 2 1 2
M  V30 2 1 2 3
M  V30 3 1 2 4
M  V30 4 1 3 5
M  V30 5 1 4 6
M  V30 6 2 5 7
M  V30 7 1 5 8
M  V30 8 1 7 9
M  V30 9 1 8 10
M  V30 10 1 9 11
M  V30 11 1 9 12
M  V30 12 1 11 13
M  V30 13 1 12 14
M  V30 14 1 13 15
M  V30 15 1 13 16
M  V30 16 1 15 17
M  V30 17 1 15 18
M  V30 18 1 16 19
M  V30 19 2 17 20
M  V30 20 1 6 7
M  V30 21 1 10 11
M  V30 22 1 14 15
M  V30 23 1 17 19
M  V30 24 1 3 21
M  V30 25 1 3 22
M  V30 26 1 4 23
M  V30 27 1 4 24
M  V30 28 1 6 25
M  V30 29 1 6 26
M  V30 30 1 8 27
M  V30 31 1 8 28
M  V30 32 1 9 29
M  V30 33 1 10 30
M  V30 34 1 10 31
M  V30 35 1 11 32
M  V30 36 1 12 33
M  V30 37 1 12 34
M  V30 38 1 13 35
M  V30 39 1 14 36
M  V30 40 1 14 37
M  V30 41 1 16 38
M  V30 42 1 16 39
M  V30 43 1 18 40
M  V30 44 1 18 41
M  V30 45 1 18 42
M  V30 46 1 19 43
M  V30 47 1 19 44
M  V30 END BOND
M  V30 BEGIN COLLECTION
M  V30 MDLV30/STEABS ATOMS=(4 9 11 13 15)
M  V30 END COLLECTION
M  V30 END CTAB
M  END
>  <Structure No>
653

>  <LogS>
-4.054976729

>  <MMFF94 Energy>
51.059

$$$$
Compound 654
Actelion Java MolfileCreator 2.0

  0  0  0  0  0  0              0 V3000
M  V30 BEGIN CTAB
M  V30 COUNTS 16 16 0 0 0
M  V30 BEGIN ATOM
M  V30 1 Cl -3.9572 0.968 0.2419 0
M  V30 2 C -2.2967 0.4247 0.0858 0
M  V30 3 C -2.0192 -0.8279 -0.4697 0
M  V30 4 C -1.2484 1.2437 0.5168 0
M  V30 5 C -0.6957 -1.2614 -0.5944 0
M  V30 6 C 0.0762 0.8124 0.3933 0
M  V30 7 C 0.3619 -0.449 -0.1658 0
M  V30 8 O 1.6721 -0.9282 -0.312 0
M  V30 9 C 2.8382 -0.2108 0.0792 0
M  V30 10 H -2.827 -1.466 -0.8051 0
M  V30 11 H -1.4585 2.2145 0.9478 0
M  V30 12 H -0.4904 -2.2329 -1.0258 0
M  V30 13 H 0.8682 1.4649 0.7344 0
M  V30 14 H 3.7342 -0.8229 -0.1502 0
M  V30 15 H 2.8146 -0.0102 1.1713 0
M  V30 16 H 2.9058 0.7439 -0.4836 0
M  V30 END ATOM
M  V30 BEGIN BOND
M  V30 1 1 1 2
M  V30 2 2 2 3
M  V30 3 1 2 4
M  V30 4 1 3 5
M  V30 5 2 4 6
M  V30 6 2 5 7
M  V30 7 1 7 8
M  V30 8 1 8 9
M  V30 9 1 6 7
M  V30 10 1 3 10
M  V30 11 1 4 11
M  V30 12 1 5 12
M  V30 13 1 6 13
M  V30 14 1 9 14
M  V30 15 1 9 15
M  V30 16 1 9 16
M  V30 END BOND
M  V30 END CTAB
M  END
>  <Structure No>
654

>  <LogS>
-2.779325494

>  <MMFF94 Energy>
18.087

$$$$
Compound 655
Actelion Java MolfileCreator 2.0

  0  0  0  0  0  0              0 V3000
M  V30 BEGIN CTAB
M  V30 COUNTS 56 59 0 0 0
M  V30 BEGIN ATOM
M  V30 1 F -3.0068 -2.3561 -1.9496 0
M  V30 2 C -2.9084 -0.9738 -1.9981 0 CFG=1
M  V30 3 C -3.6091 -0.3813 -0.7939 0
M  V30 4 C -1.4267 -0.593 -2.0722 0
M  V30 5 C -4.8777 -0.7582 -0.5569 0
M  V30 6 C -2.9273 0.7124 0.0486 0 CFG=1
M  V30 7 C -0.7685 -0.6887 -0.6882 0 CFG=2
M  V30 8 C -5.5984 -0.2779 0.6232 0
M  V30 9 C -3.6405 0.9294 1.3861 0
M  V30 10 C -1.4217 0.3071 0.3491 0 CFG=1
M  V30 11 C -3.0808 2.044 -0.7252 0
M  V30 12 C 0.7595 -0.4648 -0.7884 0 CFG=1
M  V30 13 O -6.8042 -0.5924 0.803 0
M  V30 14 C -4.8919 0.5294 1.615 0
M  V30 15 C -0.4783 1.5042 0.7232 0 CFG=2
M  V30 16 C 1.4303 -0.2846 0.5843 0 CFG=2
M  V30 17 C 1.5978 -1.5173 -1.5101 0
M  V30 18 O -0.2799 2.3367 -0.3922 0
M  V30 19 C 0.9072 1.0257 1.257 0
M  V30 20 C 2.916 -0.23 0.1468 0 CFG=2
M  V30 21 C 1.1853 -1.5019 1.5355 0
M  V30 22 C 3.0332 -1.3021 -0.9739 0 CFG=2
M  V30 23 C 3.9299 -0.4015 1.2667 0
M  V30 24 C 4.0038 -0.8692 -2.0794 0
M  V30 25 O 4.1766 -1.513 1.7121 0
M  V30 26 C 4.6481 0.784 1.8438 0
M  V30 27 O 6.0178 0.6712 1.5788 0
M  V30 28 H -3.4156 -0.6236 -2.9232 0
M  V30 29 H -0.9255 -1.2894 -2.7786 0
M  V30 30 H -1.3 0.4241 -2.4934 0
M  V30 31 H -5.3726 -1.464 -1.2143 0
M  V30 32 H -0.9362 -1.7291 -0.3276 0
M  V30 33 H -3.1576 1.5311 2.146 0
M  V30 34 H -1.4846 -0.2858 1.2866 0
M  V30 35 H -4.1511 2.2257 -0.9672 0
M  V30 36 H -2.7398 2.9083 -0.1161 0
M  V30 37 H -2.5246 2.0454 -1.6805 0
M  V30 38 H 0.9137 0.4693 -1.3785 0
M  V30 39 H -5.3783 0.7845 2.5485 0
M  V30 40 H -0.9648 2.0939 1.534 0
M  V30 41 H 1.2402 -2.5392 -1.2571 0
M  V30 42 H 1.5298 -1.3873 -2.6129 0
M  V30 43 H 0.0125 3.2209 -0.0478 0
M  V30 44 H 1.6413 1.8499 1.1264 0
M  V30 45 H 0.829 0.8852 2.3577 0
M  V30 46 H 3.0909 0.7679 -0.3187 0
M  V30 47 H 1.6879 -1.3375 2.5118 0
M  V30 48 H 1.5771 -2.4481 1.1099 0
M  V30 49 H 0.1175 -1.6634 1.7631 0
M  V30 50 H 3.3962 -2.2683 -0.5584 0
M  V30 51 H 4.0841 -1.6685 -2.8462 0
M  V30 52 H 3.6514 0.0637 -2.5699 0
M  V30 53 H 5.0123 -0.6921 -1.649 0
M  V30 54 H 4.2602 1.7314 1.409 0
M  V30 55 H 4.4748 0.8091 2.9426 0
M  V30 56 H 6.4451 1.4637 1.9964 0
M  V30 END ATOM
M  V30 BEGIN BOND
M  V30 1 1 1 2
M  V30 2 1 2 3
M  V30 3 1 2 4
M  V30 4 2 3 5
M  V30 5 1 3 6
M  V30 6 1 4 7
M  V30 7 1 5 8
M  V30 8 1 6 9
M  V30 9 1 6 10
M  V30 10 1 6 11
M  V30 11 1 7 12
M  V30 12 2 8 13
M  V30 13 1 8 14
M  V30 14 1 10 15
M  V30 15 1 12 16
M  V30 16 1 12 17
M  V30 17 1 15 18
M  V30 18 1 15 19
M  V30 19 1 16 20
M  V30 20 1 16 21
M  V30 21 1 17 22
M  V30 22 1 20 23
M  V30 23 1 22 24
M  V30 24 2 23 25
M  V30 25 1 23 26
M  V30 26 1 26 27
M  V30 27 1 7 10
M  V30 28 2 9 14
M  V30 29 1 16 19
M  V30 30 1 20 22
M  V30 31 1 2 28
M  V30 32 1 4 29
M  V30 33 1 4 30
M  V30 34 1 5 31
M  V30 35 1 7 32
M  V30 36 1 9 33
M  V30 37 1 10 34
M  V30 38 1 11 35
M  V30 39 1 11 36
M  V30 40 1 11 37
M  V30 41 1 12 38
M  V30 42 1 14 39
M  V30 43 1 15 40
M  V30 44 1 17 41
M  V30 45 1 17 42
M  V30 46 1 18 43
M  V30 47 1 19 44
M  V30 48 1 19 45
M  V30 49 1 20 46
M  V30 50 1 21 47
M  V30 51 1 21 48
M  V30 52 1 21 49
M  V30 53 1 22 50
M  V30 54 1 24 51
M  V30 55 1 24 52
M  V30 56 1 24 53
M  V30 57 1 26 54
M  V30 58 1 26 55
M  V30 59 1 27 56
M  V30 END BOND
M  V30 BEGIN COLLECTION
M  V30 MDLV30/STEABS ATOMS=(9 2 6 7 10 12 15 16 20 22)
M  V30 END COLLECTION
M  V30 END CTAB
M  END
>  <Structure No>
655

>  <LogS>
-3.203737155

>  <MMFF94 Energy>
112

$$$$
Compound 656
Actelion Java MolfileCreator 2.0

  0  0  0  0  0  0              0 V3000
M  V30 BEGIN CTAB
M  V30 COUNTS 39 41 0 0 0
M  V30 BEGIN ATOM
M  V30 1 S -7.4834 0.164 -1.8053 0
M  V30 2 O -8.7677 0.4778 -1.0904 0
M  V30 3 O -7.7016 -0.9836 -2.7499 0
M  V30 4 O -7.0071 1.5209 -2.6746 0 CHG=-1
M  V30 5 C -6.2401 -0.2644 -0.6365 0
M  V30 6 C -4.9017 0.0797 -0.8727 0
M  V30 7 C -6.5804 -0.9681 0.5264 0
M  V30 8 C -3.9059 -0.2658 0.0499 0
M  V30 9 C -5.5921 -1.3158 1.4507 0
M  V30 10 N -2.5495 0.1052 -0.223 0
M  V30 11 C -4.2589 -0.9669 1.2176 0
M  V30 12 N -1.5964 -0.1769 0.5719 0
M  V30 13 C -0.2402 0.1948 0.2987 0
M  V30 14 C 0.1118 0.9007 -0.8653 0
M  V30 15 C 0.755 -0.147 1.221 0
M  V30 16 C 1.4451 1.2498 -1.1002 0
M  V30 17 C 2.0883 0.2015 0.9858 0
M  V30 18 C 2.4465 0.8871 -0.1882 0
M  V30 19 N 3.8065 1.2822 -0.4374 0
M  V30 20 C 4.9605 0.5398 -0.0069 0
M  V30 21 C 4.9374 -0.8648 0.0772 0
M  V30 22 C 6.1552 1.2221 0.2715 0
M  V30 23 C 6.0814 -1.5664 0.4704 0
M  V30 24 C 7.2972 0.517 0.6645 0
M  V30 25 C 7.2592 -0.8758 0.7677 0
M  V30 26 H -4.6302 0.6145 -1.7745 0
M  V30 27 H -7.6088 -1.2485 0.7164 0
M  V30 28 H -5.8594 -1.8579 2.3487 0
M  V30 29 H -3.5077 -1.2456 1.9454 0
M  V30 30 H -0.6405 1.1842 -1.5901 0
M  V30 31 H 0.4945 -0.6784 2.128 0
M  V30 32 H 1.701 1.7963 -1.9995 0
M  V30 33 H 2.8349 -0.0488 1.7281 0
M  V30 34 H 3.9672 2.1688 -0.9681 0
M  V30 35 H 4.043 -1.4187 -0.1767 0
M  V30 36 H 6.1972 2.3013 0.1922 0
M  V30 37 H 6.0569 -2.6464 0.537 0
M  V30 38 H 8.2123 1.0507 0.8868 0
M  V30 39 H 8.1442 -1.4204 1.0703 0
M  V30 END ATOM
M  V30 BEGIN BOND
M  V30 1 2 1 2
M  V30 2 2 1 3
M  V30 3 1 1 4
M  V30 4 1 1 5
M  V30 5 2 5 6
M  V30 6 1 5 7
M  V30 7 1 6 8
M  V30 8 2 7 9
M  V30 9 1 8 10
M  V30 10 2 8 11
M  V30 11 2 10 12
M  V30 12 1 12 13
M  V30 13 2 13 14
M  V30 14 1 13 15
M  V30 15 1 14 16
M  V30 16 2 15 17
M  V30 17 2 16 18
M  V30 18 1 18 19
M  V30 19 1 19 20
M  V30 20 2 20 21
M  V30 21 1 20 22
M  V30 22 1 21 23
M  V30 23 2 22 24
M  V30 24 2 23 25
M  V30 25 1 9 11
M  V30 26 1 17 18
M  V30 27 1 24 25
M  V30 28 1 6 26
M  V30 29 1 7 27
M  V30 30 1 9 28
M  V30 31 1 11 29
M  V30 32 1 14 30
M  V30 33 1 15 31
M  V30 34 1 16 32
M  V30 35 1 17 33
M  V30 36 1 19 34
M  V30 37 1 21 35
M  V30 38 1 22 36
M  V30 39 1 23 37
M  V30 40 1 24 38
M  V30 41 1 25 39
M  V30 END BOND
M  V30 END CTAB
M  END
>  <Structure No>
656

>  <LogS>
-1.204686091

>  <MMFF94 Energy>
68.581

$$$$
Compound 657
Actelion Java MolfileCreator 2.0

  0  0  0  0  0  0              0 V3000
M  V30 BEGIN CTAB
M  V30 COUNTS 31 32 0 0 0
M  V30 BEGIN ATOM
M  V30 1 O -2.3746 0.5537 1.2659 0
M  V30 2 C -1.6659 -0.2716 0.6266 0
M  V30 3 N -0.3439 0.1074 0.1909 0
M  V30 4 N -2.1869 -1.5754 0.3296 0
M  V30 5 C -0.041 1.4963 -0.0636 0
M  V30 6 C 0.6882 -0.8904 0.0474 0
M  V30 7 C -3.48 -2.017 0.8363 0
M  V30 8 C 1.169 2.0563 0.3853 0
M  V30 9 C -0.9454 2.3057 -0.7749 0
M  V30 10 C 1.5303 -0.884 -1.0786 0
M  V30 11 C 0.8768 -1.8709 1.0379 0
M  V30 12 C 1.4642 3.399 0.1308 0
M  V30 13 C -0.6458 3.6479 -1.0271 0
M  V30 14 C 2.5363 -1.8454 -1.2134 0
M  V30 15 C 1.884 -2.8306 0.8986 0
M  V30 16 C 0.5575 4.1942 -0.5743 0
M  V30 17 C 2.7125 -2.8182 -0.2262 0
M  V30 18 H -1.6443 -2.224 -0.2832 0
M  V30 19 H -3.4704 -2.0115 1.9466 0
M  V30 20 H -3.6911 -3.0487 0.4841 0
M  V30 21 H -4.2803 -1.3413 0.4676 0
M  V30 22 H 1.8782 1.4552 0.9399 0
M  V30 23 H -1.8756 1.8936 -1.1451 0
M  V30 24 H 1.4005 -0.1395 -1.8538 0
M  V30 25 H 0.25 -1.8851 1.9205 0
M  V30 26 H 2.3959 3.8233 0.4817 0
M  V30 27 H -1.3456 4.2638 -1.577 0
M  V30 28 H 3.179 -1.8365 -2.0843 0
M  V30 29 H 2.0239 -3.5822 1.6646 0
M  V30 30 H 0.788 5.2333 -0.7707 0
M  V30 31 H 3.492 -3.5616 -0.3321 0
M  V30 END ATOM
M  V30 BEGIN BOND
M  V30 1 2 1 2
M  V30 2 1 2 3
M  V30 3 1 2 4
M  V30 4 1 3 5
M  V30 5 1 3 6
M  V30 6 1 4 7
M  V30 7 2 5 8
M  V30 8 1 5 9
M  V30 9 2 6 10
M  V30 10 1 6 11
M  V30 11 1 8 12
M  V30 12 2 9 13
M  V30 13 1 10 14
M  V30 14 2 11 15
M  V30 15 2 12 16
M  V30 16 2 14 17
M  V30 17 1 13 16
M  V30 18 1 15 17
M  V30 19 1 4 18
M  V30 20 1 7 19
M  V30 21 1 7 20
M  V30 22 1 7 21
M  V30 23 1 8 22
M  V30 24 1 9 23
M  V30 25 1 10 24
M  V30 26 1 11 25
M  V30 27 1 12 26
M  V30 28 1 13 27
M  V30 29 1 14 28
M  V30 30 1 15 29
M  V30 31 1 16 30
M  V30 32 1 17 31
M  V30 END BOND
M  V30 END CTAB
M  END
>  <Structure No>
657

>  <LogS>
-2.983946158

>  <MMFF94 Energy>
4.5512

$$$$
Compound 658
Actelion Java MolfileCreator 2.0

  0  0  0  0  0  0              0 V3000
M  V30 BEGIN CTAB
M  V30 COUNTS 24 25 0 0 0
M  V30 BEGIN ATOM
M  V30 1 N -1.1052 -2.1323 -0.1578 0
M  V30 2 C -1.5184 -0.767 -0.308 0
M  V30 3 C -0.6218 0.3092 -0.0915 0
M  V30 4 C -2.8563 -0.4942 -0.6355 0
M  V30 5 C 0.8126 0.0897 0.1987 0
M  V30 6 C -1.0989 1.6292 -0.1772 0
M  V30 7 C -3.3105 0.8227 -0.7293 0
M  V30 8 C 1.3883 0.6237 1.364 0
M  V30 9 C 1.6228 -0.6145 -0.7084 0
M  V30 10 C -2.4348 1.8824 -0.4948 0
M  V30 11 C 2.7487 0.4359 1.6273 0
M  V30 12 C 2.9827 -0.8 -0.441 0
M  V30 13 C 3.5448 -0.2768 0.7265 0
M  V30 14 H -0.1743 -2.3881 0.2373 0
M  V30 15 H -1.7648 -2.9122 -0.3758 0
M  V30 16 H -3.5529 -1.306 -0.8043 0
M  V30 17 H -0.4294 2.4655 -0.015 0
M  V30 18 H -4.3452 1.0215 -0.9776 0
M  V30 19 H 0.7824 1.1777 2.0706 0
M  V30 20 H 1.2019 -1.0147 -1.6226 0
M  V30 21 H -2.7898 2.9025 -0.5651 0
M  V30 22 H 3.1861 0.8441 2.5294 0
M  V30 23 H 3.6015 -1.3463 -1.141 0
M  V30 24 H 4.5978 -0.4206 0.9316 0
M  V30 END ATOM
M  V30 BEGIN BOND
M  V30 1 1 1 2
M  V30 2 2 2 3
M  V30 3 1 2 4
M  V30 4 1 3 5
M  V30 5 1 3 6
M  V30 6 2 4 7
M  V30 7 2 5 8
M  V30 8 1 5 9
M  V30 9 2 6 10
M  V30 10 1 8 11
M  V30 11 2 9 12
M  V30 12 2 11 13
M  V30 13 1 7 10
M  V30 14 1 12 13
M  V30 15 1 1 14
M  V30 16 1 1 15
M  V30 17 1 4 16
M  V30 18 1 6 17
M  V30 19 1 7 18
M  V30 20 1 8 19
M  V30 21 1 9 20
M  V30 22 1 10 21
M  V30 23 1 11 22
M  V30 24 1 12 23
M  V30 25 1 13 24
M  V30 END BOND
M  V30 END CTAB
M  END
>  <Structure No>
658

>  <LogS>
-2.861113735

>  <MMFF94 Energy>
45.62

$$$$
Compound 659
Actelion Java MolfileCreator 2.0

  0  0  0  0  0  0              0 V3000
M  V30 BEGIN CTAB
M  V30 COUNTS 22 22 0 0 0
M  V30 BEGIN ATOM
M  V30 1 O 2.7753 -0.9788 -1.3053 0
M  V30 2 C 2.7444 -0.2302 -0.2923 0
M  V30 3 O 3.9366 0.1845 0.2879 0 CHG=-1
M  V30 4 C 1.4305 0.2367 0.2745 0 CFG=1
M  V30 5 C 0.7709 1.2627 -0.679 0
M  V30 6 C 0.5033 -0.9604 0.617 0
M  V30 7 C -0.7415 1.3355 -0.4509 0
M  V30 8 C -0.5161 -1.2415 -0.4953 0
M  V30 9 C -1.4221 -0.0144 -0.7849 0 CFG=1
M  V30 10 C -2.741 -0.1234 -0.0678 0
M  V30 11 O -2.7797 -0.2813 1.1815 0
M  V30 12 O -3.9287 -0.0251 -0.7817 0 CHG=-1
M  V30 13 H 1.6491 0.7606 1.2322 0
M  V30 14 H 0.9522 0.9899 -1.743 0
M  V30 15 H 1.2189 2.2663 -0.5108 0
M  V30 16 H 1.097 -1.8794 0.8181 0
M  V30 17 H -0.0533 -0.7334 1.5529 0
M  V30 18 H -0.9229 1.62 0.6101 0
M  V30 19 H -1.1739 2.1365 -1.0895 0
M  V30 20 H -1.1259 -2.1316 -0.2244 0
M  V30 21 H 0.0401 -1.5096 -1.4202 0
M  V30 22 H -1.6361 -0.0212 -1.8773 0
M  V30 END ATOM
M  V30 BEGIN BOND
M  V30 1 2 1 2
M  V30 2 1 2 3
M  V30 3 1 2 4
M  V30 4 1 4 5
M  V30 5 1 4 6
M  V30 6 1 5 7
M  V30 7 1 6 8
M  V30 8 1 7 9
M  V30 9 1 9 10
M  V30 10 2 10 11
M  V30 11 1 10 12
M  V30 12 1 8 9
M  V30 13 1 4 13
M  V30 14 1 5 14
M  V30 15 1 5 15
M  V30 16 1 6 16
M  V30 17 1 6 17
M  V30 18 1 7 18
M  V30 19 1 7 19
M  V30 20 1 8 20
M  V30 21 1 8 21
M  V30 22 1 9 22
M  V30 END BOND
M  V30 BEGIN COLLECTION
M  V30 MDLV30/STEABS ATOMS=(2 4 9)
M  V30 END COLLECTION
M  V30 END CTAB
M  END
>  <Structure No>
659

>  <LogS>
-0.872370724

>  <MMFF94 Energy>
63.658

$$$$
Compound 660
Actelion Java MolfileCreator 2.0

  0  0  0  0  0  0              0 V3000
M  V30 BEGIN CTAB
M  V30 COUNTS 29 30 0 0 0
M  V30 BEGIN ATOM
M  V30 1 O 5.0366 0.0785 -0.157 0
M  V30 2 C 3.6867 0.4542 -0.1843 0
M  V30 3 C 2.8783 -0.4089 0.7854 0
M  V30 4 C 1.4376 0.0072 0.7887 0
M  V30 5 C 0.4563 -0.3474 -0.1155 0
M  V30 6 C 0.8379 0.9069 1.662 0
M  V30 7 C -0.6849 0.3264 0.2447 0
M  V30 8 C 0.4928 -1.2025 -1.2155 0
M  V30 9 N -0.46 1.0917 1.331 0
M  V30 10 C -1.8795 0.1884 -0.4801 0
M  V30 11 C -0.6897 -1.373 -1.9536 0
M  V30 12 C -1.8686 -0.6894 -1.5869 0
M  V30 13 C -3.1454 0.8989 -0.0779 0
M  V30 14 C -3.871 0.1314 1.0223 0
M  V30 15 H 5.1067 -0.7661 -0.6741 0
M  V30 16 H 3.6115 1.5206 0.1189 0
M  V30 17 H 3.281 0.3606 -1.218 0
M  V30 18 H 3.2961 -0.3052 1.8102 0
M  V30 19 H 2.9543 -1.4775 0.4911 0
M  V30 20 H 1.3265 1.4044 2.4897 0
M  V30 21 H 1.3991 -1.7248 -1.4931 0
M  V30 22 H -1.1375 1.7136 1.8245 0
M  V30 23 H -0.6973 -2.0364 -2.8086 0
M  V30 24 H -2.7692 -0.8448 -2.1677 0
M  V30 25 H -3.8219 1.0013 -0.9541 0
M  V30 26 H -2.9142 1.9268 0.2737 0
M  V30 27 H -4.8029 0.6686 1.2979 0
M  V30 28 H -4.1387 -0.887 0.668 0
M  V30 29 H -3.2293 0.0479 1.9251 0
M  V30 END ATOM
M  V30 BEGIN BOND
M  V30 1 1 1 2
M  V30 2 1 2 3
M  V30 3 1 3 4
M  V30 4 1 4 5
M  V30 5 2 4 6
M  V30 6 2 5 7
M  V30 7 1 5 8
M  V30 8 1 6 9
M  V30 9 1 7 10
M  V30 10 2 8 11
M  V30 11 2 10 12
M  V30 12 1 10 13
M  V30 13 1 13 14
M  V30 14 1 7 9
M  V30 15 1 11 12
M  V30 16 1 1 15
M  V30 17 1 2 16
M  V30 18 1 2 17
M  V30 19 1 3 18
M  V30 20 1 3 19
M  V30 21 1 6 20
M  V30 22 1 8 21
M  V30 23 1 9 22
M  V30 24 1 11 23
M  V30 25 1 12 24
M  V30 26 1 13 25
M  V30 27 1 13 26
M  V30 28 1 14 27
M  V30 29 1 14 28
M  V30 30 1 14 29
M  V30 END BOND
M  V30 END CTAB
M  END
>  <Structure No>
660

>  <LogS>
-1.91532641

>  <MMFF94 Energy>
28.957

$$$$
Compound 661
Actelion Java MolfileCreator 2.0

  0  0  0  0  0  0              0 V3000
M  V30 BEGIN CTAB
M  V30 COUNTS 42 41 0 0 0
M  V30 BEGIN ATOM
M  V30 1 O -1.4756 0.8541 1.0094 0
M  V30 2 C -0.3283 0.9276 0.1621 0 CFG=2
M  V30 3 C -2.6127 0.2082 0.4501 0 CFG=1
M  V30 4 C -0.6305 1.7157 -1.1109 0
M  V30 5 C 0.1983 -0.5058 -0.1833 0
M  V30 6 C 0.7382 1.6947 0.9706 0
M  V30 7 O -2.8738 -0.9619 1.2118 0
M  V30 8 C -3.8018 1.1541 0.6114 0
M  V30 9 C -1.1506 2.9484 -1.0881 0
M  V30 10 C 1.5933 -0.5648 -0.8478 0
M  V30 11 C -3.0767 -2.1091 0.4056 0
M  V30 12 C 2.7175 -0.6619 0.1588 0
M  V30 13 C -4.5002 -2.1663 -0.1418 0
M  V30 14 C 4.0212 -0.6669 -0.1905 0
M  V30 15 C 5.061 -0.7712 0.8949 0
M  V30 16 C 4.4532 -0.5699 -1.6345 0
M  V30 17 H -2.5156 0.0175 -0.6461 0
M  V30 18 H -0.4426 1.2606 -2.0793 0
M  V30 19 H -0.5009 -0.9764 -0.9026 0
M  V30 20 H 0.1796 -1.1435 0.728 0
M  V30 21 H 1.0463 1.1055 1.8601 0
M  V30 22 H 0.3284 2.6574 1.3436 0
M  V30 23 H 1.6333 1.9258 0.355 0
M  V30 24 H -4.7313 0.6861 0.2283 0
M  V30 25 H -3.9475 1.4071 1.6835 0
M  V30 26 H -3.626 2.0917 0.0446 0
M  V30 27 H -1.3597 3.4658 -2.0187 0
M  V30 28 H -1.3819 3.4446 -0.1511 0
M  V30 29 H 1.7432 0.3181 -1.5039 0
M  V30 30 H 1.6366 -1.4698 -1.492 0
M  V30 31 H -2.3397 -2.1975 -0.4202 0
M  V30 32 H -2.9247 -3.0011 1.0492 0
M  V30 33 H 2.4653 -0.7387 1.2136 0
M  V30 34 H -4.6428 -1.3975 -0.9292 0
M  V30 35 H -5.2324 -2.0006 0.6767 0
M  V30 36 H -4.6856 -3.1636 -0.593 0
M  V30 37 H 4.9594 0.0851 1.5949 0
M  V30 38 H 4.9217 -1.7185 1.4578 0
M  V30 39 H 6.0904 -0.7609 0.4803 0
M  V30 40 H 5.5579 -0.6111 -1.7326 0
M  V30 41 H 4.0269 -1.414 -2.216 0
M  V30 42 H 4.1073 0.3908 -2.0698 0
M  V30 END ATOM
M  V30 BEGIN BOND
M  V30 1 1 1 2
M  V30 2 1 1 3
M  V30 3 1 2 4
M  V30 4 1 2 5
M  V30 5 1 2 6
M  V30 6 1 3 7
M  V30 7 1 3 8
M  V30 8 2 4 9
M  V30 9 1 5 10
M  V30 10 1 7 11
M  V30 11 1 10 12
M  V30 12 1 11 13
M  V30 13 2 12 14
M  V30 14 1 14 15
M  V30 15 1 14 16
M  V30 16 1 3 17
M  V30 17 1 4 18
M  V30 18 1 5 19
M  V30 19 1 5 20
M  V30 20 1 6 21
M  V30 21 1 6 22
M  V30 22 1 6 23
M  V30 23 1 8 24
M  V30 24 1 8 25
M  V30 25 1 8 26
M  V30 26 1 9 27
M  V30 27 1 9 28
M  V30 28 1 10 29
M  V30 29 1 10 30
M  V30 30 1 11 31
M  V30 31 1 11 32
M  V30 32 1 12 33
M  V30 33 1 13 34
M  V30 34 1 13 35
M  V30 35 1 13 36
M  V30 36 1 15 37
M  V30 37 1 15 38
M  V30 38 1 15 39
M  V30 39 1 16 40
M  V30 40 1 16 41
M  V30 41 1 16 42
M  V30 END BOND
M  V30 BEGIN COLLECTION
M  V30 MDLV30/STEABS ATOMS=(2 2 3)
M  V30 END COLLECTION
M  V30 END CTAB
M  END
>  <Structure No>
661

>  <LogS>
-3.976401784

>  <MMFF94 Energy>
17.73

$$$$
Compound 662
Actelion Java MolfileCreator 2.0

  0  0  0  0  0  0              0 V3000
M  V30 BEGIN CTAB
M  V30 COUNTS 24 25 0 0 0
M  V30 BEGIN ATOM
M  V30 1 O -0.2389 -2.5514 -0.1593 0
M  V30 2 C -0.1397 -1.2948 -0.1064 0
M  V30 3 C -1.3785 -0.4824 -0.0355 0
M  V30 4 C 1.2115 -0.6836 -0.1173 0
M  V30 5 C -1.4511 0.7841 -0.6454 0
M  V30 6 C -2.519 -0.9945 0.609 0
M  V30 7 C 2.2617 -1.3124 -0.8098 0
M  V30 8 C 1.4775 0.5005 0.5958 0
M  V30 9 C -2.6315 1.5312 -0.5861 0
M  V30 10 C -3.6971 -0.2432 0.6658 0
M  V30 11 C 3.5433 -0.753 -0.8114 0
M  V30 12 C 2.7608 1.0556 0.5913 0
M  V30 13 C -3.7526 1.0195 0.0713 0
M  V30 14 C 3.7919 0.4312 -0.1139 0
M  V30 15 H -0.6019 1.1898 -1.1806 0
M  V30 16 H -2.4949 -1.9703 1.0781 0
M  V30 17 H 2.0879 -2.2297 -1.3584 0
M  V30 18 H 0.6988 0.9882 1.1686 0
M  V30 19 H -2.6789 2.5052 -1.0556 0
M  V30 20 H -4.568 -0.641 1.1707 0
M  V30 21 H 4.3443 -1.2388 -1.3534 0
M  V30 22 H 2.9571 1.9675 1.1403 0
M  V30 23 H -4.6657 1.5989 0.1154 0
M  V30 24 H 4.7848 0.8619 -0.1152 0
M  V30 END ATOM
M  V30 BEGIN BOND
M  V30 1 2 1 2
M  V30 2 1 2 3
M  V30 3 1 2 4
M  V30 4 2 3 5
M  V30 5 1 3 6
M  V30 6 2 4 7
M  V30 7 1 4 8
M  V30 8 1 5 9
M  V30 9 2 6 10
M  V30 10 1 7 11
M  V30 11 2 8 12
M  V30 12 2 9 13
M  V30 13 2 11 14
M  V30 14 1 10 13
M  V30 15 1 12 14
M  V30 16 1 5 15
M  V30 17 1 6 16
M  V30 18 1 7 17
M  V30 19 1 8 18
M  V30 20 1 9 19
M  V30 21 1 10 20
M  V30 22 1 11 21
M  V30 23 1 12 22
M  V30 24 1 13 23
M  V30 25 1 14 24
M  V30 END BOND
M  V30 END CTAB
M  END
>  <Structure No>
662

>  <LogS>
-3.882202908

>  <MMFF94 Energy>
70.377

$$$$
Compound 663
Actelion Java MolfileCreator 2.0

  0  0  0  0  0  0              0 V3000
M  V30 BEGIN CTAB
M  V30 COUNTS 36 36 0 0 0
M  V30 BEGIN ATOM
M  V30 1 O 1.8157 -0.3156 -2.2108 0
M  V30 2 C 2.0908 -0.4933 -0.9929 0
M  V30 3 O 1.2035 -1.1653 -0.1429 0
M  V30 4 C 3.3619 0.0585 -0.4323 0
M  V30 5 C -0.0893 -1.6362 -0.5362 0 CFG=2
M  V30 6 C 3.1014 1.4043 0.2495 0
M  V30 7 C -1.1835 -0.6843 0.0237 0
M  V30 8 C -0.2384 -3.0681 -0.0105 0
M  V30 9 C 4.3895 1.9926 0.8174 0
M  V30 10 C -0.9059 0.7865 -0.3942 0
M  V30 11 C -2.6078 -1.0957 -0.413 0
M  V30 12 C -2.15 1.6979 -0.3536 0
M  V30 13 C -3.6928 -0.2185 0.2487 0
M  V30 14 C -3.1998 1.1878 0.634 0
M  V30 15 H 3.7742 -0.6639 0.3048 0
M  V30 16 H 4.1057 0.1851 -1.2494 0
M  V30 17 H -0.1688 -1.6798 -1.6456 0
M  V30 18 H 2.3723 1.2696 1.0785 0
M  V30 19 H 2.671 2.1202 -0.4848 0
M  V30 20 H -1.1409 -0.7355 1.1356 0
M  V30 21 H -1.1115 -3.5738 -0.4712 0
M  V30 22 H 0.6629 -3.6588 -0.2791 0
M  V30 23 H -0.3444 -3.0725 1.0952 0
M  V30 24 H 4.1697 2.9649 1.3066 0
M  V30 25 H 5.1271 2.1628 0.0045 0
M  V30 26 H 4.827 1.3056 1.5727 0
M  V30 27 H -0.1295 1.207 0.2815 0
M  V30 28 H -0.4991 0.8217 -1.428 0
M  V30 29 H -2.8184 -2.1509 -0.1444 0
M  V30 30 H -2.6872 -1.0087 -1.5194 0
M  V30 31 H -2.6071 1.7476 -1.3668 0
M  V30 32 H -1.8466 2.7298 -0.0735 0
M  V30 33 H -4.5525 -0.1279 -0.4504 0
M  V30 34 H -4.0675 -0.7225 1.1665 0
M  V30 35 H -4.0615 1.8894 0.6583 0
M  V30 36 H -2.7573 1.1634 1.6542 0
M  V30 END ATOM
M  V30 BEGIN BOND
M  V30 1 2 1 2
M  V30 2 1 2 3
M  V30 3 1 2 4
M  V30 4 1 3 5
M  V30 5 1 4 6
M  V30 6 1 5 7
M  V30 7 1 5 8
M  V30 8 1 6 9
M  V30 9 1 7 10
M  V30 10 1 7 11
M  V30 11 1 10 12
M  V30 12 1 11 13
M  V30 13 1 12 14
M  V30 14 1 13 14
M  V30 15 1 4 15
M  V30 16 1 4 16
M  V30 17 1 5 17
M  V30 18 1 6 18
M  V30 19 1 6 19
M  V30 20 1 7 20
M  V30 21 1 8 21
M  V30 22 1 8 22
M  V30 23 1 8 23
M  V30 24 1 9 24
M  V30 25 1 9 25
M  V30 26 1 9 26
M  V30 27 1 10 27
M  V30 28 1 10 28
M  V30 29 1 11 29
M  V30 30 1 11 30
M  V30 31 1 12 31
M  V30 32 1 12 32
M  V30 33 1 13 33
M  V30 34 1 13 34
M  V30 35 1 14 35
M  V30 36 1 14 36
M  V30 END BOND
M  V30 BEGIN COLLECTION
M  V30 MDLV30/STEABS ATOMS=(1 5)
M  V30 END COLLECTION
M  V30 END CTAB
M  END
>  <Structure No>
663

>  <LogS>
-3.920758898

>  <MMFF94 Energy>
-3.3768

$$$$
Compound 664
Actelion Java MolfileCreator 2.0

  0  0  0  0  0  0              0 V3000
M  V30 BEGIN CTAB
M  V30 COUNTS 49 51 0 0 0
M  V30 BEGIN ATOM
M  V30 1 O -2.4012 2.7217 -0.1599 0
M  V30 2 C -3.0429 1.7795 0.2805 0
M  V30 3 C -2.5774 0.3525 0.2133 0 CFG=2
M  V30 4 C -4.3516 1.9617 0.9551 0
M  V30 5 C -3.5694 -0.3462 1.1942 0 CFG=2
M  V30 6 C -1.0902 0.246 0.6718 0
M  V30 7 C -2.7947 -0.2078 -1.2297 0
M  V30 8 C -4.8246 0.5397 1.2248 0
M  V30 9 O -3.0346 -0.4263 2.4935 0
M  V30 10 C -0.5795 -1.1767 0.6743 0
M  V30 11 C -1.8787 0.3836 -2.3071 0
M  V30 12 C 0.7024 -1.5456 0.4628 0
M  V30 13 C 1.8397 -0.5818 0.3279 0
M  V30 14 C 0.9547 -3.0145 0.1671 0
M  V30 15 C 2.8825 -0.893 -0.5681 0
M  V30 16 C 1.9607 0.5647 1.1341 0
M  V30 17 C 2.3766 -3.3041 -0.343 0
M  V30 18 C 3.946 0.0035 -0.7504 0
M  V30 19 C 2.8603 -2.2084 -1.2988 0
M  V30 20 C 3.0303 1.4467 0.9605 0
M  V30 21 C 4.0236 1.1795 0.0019 0
M  V30 22 O 5.1072 2.0425 -0.2197 0
M  V30 23 C 5.3132 3.2689 0.474 0
M  V30 24 H -4.2076 2.5167 1.9071 0
M  V30 25 H -5.066 2.5014 0.2968 0
M  V30 26 H -3.8336 -1.371 0.8398 0
M  V30 27 H -0.9823 0.671 1.6918 0
M  V30 28 H -0.467 0.8708 -0.0014 0
M  V30 29 H -2.6466 -1.3094 -1.2305 0
M  V30 30 H -3.8483 -0.0306 -1.5408 0
M  V30 31 H -5.3625 0.4716 2.1957 0
M  V30 32 H -5.5179 0.2214 0.4148 0
M  V30 33 H -3.5825 -1.0889 2.9904 0
M  V30 34 H -1.3242 -1.9618 0.7453 0
M  V30 35 H -2.1823 -0.0118 -3.2993 0
M  V30 36 H -0.8231 0.0862 -2.1369 0
M  V30 37 H -1.958 1.4886 -2.3412 0
M  V30 38 H 0.7663 -3.6141 1.0839 0
M  V30 39 H 0.2365 -3.3514 -0.6136 0
M  V30 40 H 1.2497 0.7711 1.9195 0
M  V30 41 H 2.3901 -4.2856 -0.8646 0
M  V30 42 H 3.0733 -3.3711 0.5221 0
M  V30 43 H 4.7304 -0.2213 -1.4629 0
M  V30 44 H 2.1784 -2.1354 -2.1738 0
M  V30 45 H 3.8755 -2.4749 -1.6656 0
M  V30 46 H 3.0811 2.328 1.5854 0
M  V30 47 H 5.4333 3.0772 1.5613 0
M  V30 48 H 4.4578 3.9553 0.2988 0
M  V30 49 H 6.238 3.7495 0.094 0
M  V30 END ATOM
M  V30 BEGIN BOND
M  V30 1 2 1 2
M  V30 2 1 2 3
M  V30 3 1 2 4
M  V30 4 1 3 5
M  V30 5 1 3 6
M  V30 6 1 3 7
M  V30 7 1 4 8
M  V30 8 1 5 9
M  V30 9 1 6 10
M  V30 10 1 7 11
M  V30 11 2 10 12
M  V30 12 1 12 13
M  V30 13 1 12 14
M  V30 14 2 13 15
M  V30 15 1 13 16
M  V30 16 1 14 17
M  V30 17 1 15 18
M  V30 18 1 15 19
M  V30 19 2 16 20
M  V30 20 2 18 21
M  V30 21 1 21 22
M  V30 22 1 22 23
M  V30 23 1 5 8
M  V30 24 1 17 19
M  V30 25 1 20 21
M  V30 26 1 4 24
M  V30 27 1 4 25
M  V30 28 1 5 26
M  V30 29 1 6 27
M  V30 30 1 6 28
M  V30 31 1 7 29
M  V30 32 1 7 30
M  V30 33 1 8 31
M  V30 34 1 8 32
M  V30 35 1 9 33
M  V30 36 1 10 34
M  V30 37 1 11 35
M  V30 38 1 11 36
M  V30 39 1 11 37
M  V30 40 1 14 38
M  V30 41 1 14 39
M  V30 42 1 16 40
M  V30 43 1 17 41
M  V30 44 1 17 42
M  V30 45 1 18 43
M  V30 46 1 19 44
M  V30 47 1 19 45
M  V30 48 1 20 46
M  V30 49 1 23 47
M  V30 50 1 23 48
M  V30 51 1 23 49
M  V30 END BOND
M  V30 BEGIN COLLECTION
M  V30 MDLV30/STEABS ATOMS=(2 3 5)
M  V30 END COLLECTION
M  V30 END CTAB
M  END
>  <Structure No>
664

>  <LogS>
-4.122768724

>  <MMFF94 Energy>
53.326

$$$$
Compound 665
Actelion Java MolfileCreator 2.0

  0  0  0  0  0  0              0 V3000
M  V30 BEGIN CTAB
M  V30 COUNTS 24 24 0 0 0
M  V30 BEGIN ATOM
M  V30 1 C 0.546 -0.39 -0.0779 0
M  V30 2 C 1.0719 0.6044 0.7727 0
M  V30 3 C 1.3 -0.7888 -1.1975 0
M  V30 4 C -0.8323 -0.9951 0.1443 0 CFG=2
M  V30 5 C 2.3298 1.1601 0.5206 0
M  V30 6 C 2.5573 -0.2299 -1.4442 0
M  V30 7 C -1.9485 -0.1789 -0.5467 0
M  V30 8 C -1.137 -1.2853 1.6237 0
M  V30 9 C 3.073 0.7414 -0.5843 0
M  V30 10 C -2.0843 1.2653 -0.0575 0
M  V30 11 H 0.5118 0.9637 1.6244 0
M  V30 12 H 0.9137 -1.5332 -1.8826 0
M  V30 13 H -0.839 -1.9945 -0.3465 0
M  V30 14 H 2.7261 1.9211 1.1805 0
M  V30 15 H 3.1305 -0.5479 -2.3053 0
M  V30 16 H -2.9217 -0.696 -0.3993 0
M  V30 17 H -1.754 -0.1602 -1.6414 0
M  V30 18 H -0.3225 -1.8991 2.0639 0
M  V30 19 H -1.243 -0.3581 2.2208 0
M  V30 20 H -2.0844 -1.8592 1.708 0
M  V30 21 H 4.0458 1.1743 -0.7779 0
M  V30 22 H -2.9295 1.7515 -0.5886 0
M  V30 23 H -2.2976 1.3021 1.0298 0
M  V30 24 H -1.1652 1.8452 -0.2797 0
M  V30 END ATOM
M  V30 BEGIN BOND
M  V30 1 2 1 2
M  V30 2 1 1 3
M  V30 3 1 1 4
M  V30 4 1 2 5
M  V30 5 2 3 6
M  V30 6 1 4 7
M  V30 7 1 4 8
M  V30 8 2 5 9
M  V30 9 1 7 10
M  V30 10 1 6 9
M  V30 11 1 2 11
M  V30 12 1 3 12
M  V30 13 1 4 13
M  V30 14 1 5 14
M  V30 15 1 6 15
M  V30 16 1 7 16
M  V30 17 1 7 17
M  V30 18 1 8 18
M  V30 19 1 8 19
M  V30 20 1 8 20
M  V30 21 1 9 21
M  V30 22 1 10 22
M  V30 23 1 10 23
M  V30 24 1 10 24
M  V30 END BOND
M  V30 BEGIN COLLECTION
M  V30 MDLV30/STEABS ATOMS=(1 4)
M  V30 END COLLECTION
M  V30 END CTAB
M  END
>  <Structure No>
665

>  <LogS>
-3.758607848

>  <MMFF94 Energy>
22.712

$$$$
Compound 666
Actelion Java MolfileCreator 2.0

  0  0  0  0  0  0              0 V3000
M  V30 BEGIN CTAB
M  V30 COUNTS 48 51 0 0 0
M  V30 BEGIN ATOM
M  V30 1 S -0.6609 -3.722 -1.9838 0
M  V30 2 O -1.6156 -4.1216 -3.0733 0
M  V30 3 O -0.7183 -4.724 -0.8652 0
M  V30 4 O 0.8994 -3.7113 -2.6084 0 CHG=-1
M  V30 5 C -1.0944 -2.1182 -1.3725 0
M  V30 6 C -2.2888 -1.8924 -0.6553 0
M  V30 7 C -0.2105 -1.063 -1.5927 0
M  V30 8 N -3.1581 -2.9966 -0.3595 0
M  V30 9 C -2.5904 -0.5848 -0.1807 0
M  V30 10 C -0.4492 0.2069 -1.0622 0
M  V30 11 C -3.9216 -0.2552 0.4103 0
M  V30 12 C -1.6322 0.4527 -0.322 0
M  V30 13 N 0.4857 1.2585 -1.3542 0
M  V30 14 O -4.9028 -1.0316 0.2516 0
M  V30 15 C -4.1335 1.027 1.1143 0
M  V30 16 C -1.87 1.7634 0.356 0
M  V30 17 C 1.9025 1.1507 -1.1253 0
M  V30 18 C -3.1334 2.0157 1.0837 0
M  V30 19 C -5.3356 1.2767 1.8035 0
M  V30 20 O -0.9778 2.6548 0.3597 0
M  V30 21 C 2.4299 0.2095 -0.2208 0
M  V30 22 C 2.7761 2.024 -1.7888 0
M  V30 23 C -3.3486 3.2393 1.7471 0
M  V30 24 C -5.536 2.4939 2.4579 0
M  V30 25 C 3.8121 0.1324 0.0094 0
M  V30 26 C 4.1542 1.9378 -1.581 0
M  V30 27 C -4.5441 3.4735 2.4297 0
M  V30 28 N 4.3197 -0.8607 0.9172 0
M  V30 29 C 4.6735 0.9917 -0.6946 0
M  V30 30 C 5.4859 -0.6835 1.7361 0
M  V30 31 O 5.999 0.458 1.8871 0
M  V30 32 C 6.0421 -1.8423 2.4975 0
M  V30 33 H 0.6877 -1.2257 -2.1739 0
M  V30 34 H -3.2394 -3.818 -0.9966 0
M  V30 35 H -3.6475 -3.0605 0.5601 0
M  V30 36 H 0.1186 2.1153 -1.8277 0
M  V30 37 H -6.1194 0.5305 1.8402 0
M  V30 38 H 1.7688 -0.452 0.3242 0
M  V30 39 H 2.3891 2.762 -2.4802 0
M  V30 40 H -2.5943 4.0161 1.7383 0
M  V30 41 H -6.4621 2.6775 2.9873 0
M  V30 42 H 4.8226 2.6009 -2.1152 0
M  V30 43 H -4.7016 4.4167 2.9372 0
M  V30 44 H 3.7614 -1.7343 1.0521 0
M  V30 45 H 5.7465 0.9199 -0.5783 0
M  V30 46 H 5.4515 -1.9925 3.425 0
M  V30 47 H 5.9904 -2.7618 1.8777 0
M  V30 48 H 7.1031 -1.6542 2.7668 0
M  V30 END ATOM
M  V30 BEGIN BOND
M  V30 1 2 1 2
M  V30 2 2 1 3
M  V30 3 1 1 4
M  V30 4 1 1 5
M  V30 5 2 5 6
M  V30 6 1 5 7
M  V30 7 1 6 8
M  V30 8 1 6 9
M  V30 9 2 7 10
M  V30 10 1 9 11
M  V30 11 2 9 12
M  V30 12 1 10 13
M  V30 13 2 11 14
M  V30 14 1 11 15
M  V30 15 1 12 16
M  V30 16 1 13 17
M  V30 17 2 15 18
M  V30 18 1 15 19
M  V30 19 2 16 20
M  V30 20 2 17 21
M  V30 21 1 17 22
M  V30 22 1 18 23
M  V30 23 2 19 24
M  V30 24 1 21 25
M  V30 25 2 22 26
M  V30 26 2 23 27
M  V30 27 1 25 28
M  V30 28 2 25 29
M  V30 29 1 28 30
M  V30 30 2 30 31
M  V30 31 1 30 32
M  V30 32 1 10 12
M  V30 33 1 16 18
M  V30 34 1 24 27
M  V30 35 1 26 29
M  V30 36 1 7 33
M  V30 37 1 8 34
M  V30 38 1 8 35
M  V30 39 1 13 36
M  V30 40 1 19 37
M  V30 41 1 21 38
M  V30 42 1 22 39
M  V30 43 1 23 40
M  V30 44 1 24 41
M  V30 45 1 26 42
M  V30 46 1 27 43
M  V30 47 1 28 44
M  V30 48 1 29 45
M  V30 49 1 32 46
M  V30 50 1 32 47
M  V30 51 1 32 48
M  V30 END BOND
M  V30 END CTAB
M  END
>  <Structure No>
666

>  <LogS>
-4.307910861

>  <MMFF94 Energy>
99.07

$$$$
Compound 667
Actelion Java MolfileCreator 2.0

  0  0  0  0  0  0              0 V3000
M  V30 BEGIN CTAB
M  V30 COUNTS 34 34 0 0 0
M  V30 BEGIN ATOM
M  V30 1 O -2.6081 1.0268 1.4219 0
M  V30 2 C -2.8935 0.8608 0.2061 0
M  V30 3 O -2.2374 -0.0995 -0.5828 0
M  V30 4 C -3.911 1.7449 -0.4299 0
M  V30 5 C -1.2281 -1.0461 -0.1786 0
M  V30 6 C 0.2056 -0.4061 -0.3247 0 CFG=2
M  V30 7 C -1.5086 -1.6025 1.2415 0
M  V30 8 C -1.3653 -2.2216 -1.1687 0
M  V30 9 C 1.3507 -1.3666 0.084 0
M  V30 10 C 0.3801 0.9235 0.4385 0
M  V30 11 C 2.7091 -0.7147 0.0419 0
M  V30 12 C 1.7224 1.5801 0.0921 0
M  V30 13 C 2.8879 0.6174 0.1347 0
M  V30 14 C 4.2874 1.1687 0.1431 0
M  V30 15 H -4.7293 1.9641 0.2881 0
M  V30 16 H -3.4308 2.6957 -0.741 0
M  V30 17 H -4.3422 1.2451 -1.3225 0
M  V30 18 H 0.3439 -0.1689 -1.4049 0
M  V30 19 H -0.9563 -2.5491 1.422 0
M  V30 20 H -1.2042 -0.892 2.0345 0
M  V30 21 H -2.5915 -1.8225 1.358 0
M  V30 22 H -2.4116 -2.5976 -1.1685 0
M  V30 23 H -0.7054 -3.0729 -0.902 0
M  V30 24 H -1.1246 -1.8933 -2.2026 0
M  V30 25 H 1.1984 -1.7363 1.1188 0
M  V30 26 H 1.3784 -2.2404 -0.5982 0
M  V30 27 H 0.331 0.7533 1.5353 0
M  V30 28 H -0.4103 1.6456 0.1554 0
M  V30 29 H 3.5769 -1.3693 0.0433 0
M  V30 30 H 1.9029 2.4152 0.8032 0
M  V30 31 H 1.6648 2.0117 -0.9308 0
M  V30 32 H 4.2785 2.2793 0.1538 0
M  V30 33 H 4.8255 0.8117 1.0466 0
M  V30 34 H 4.8325 0.8321 -0.7641 0
M  V30 END ATOM
M  V30 BEGIN BOND
M  V30 1 2 1 2
M  V30 2 1 2 3
M  V30 3 1 2 4
M  V30 4 1 3 5
M  V30 5 1 5 6
M  V30 6 1 5 7
M  V30 7 1 5 8
M  V30 8 1 6 9
M  V30 9 1 6 10
M  V30 10 1 9 11
M  V30 11 1 10 12
M  V30 12 2 11 13
M  V30 13 1 13 14
M  V30 14 1 12 13
M  V30 15 1 4 15
M  V30 16 1 4 16
M  V30 17 1 4 17
M  V30 18 1 6 18
M  V30 19 1 7 19
M  V30 20 1 7 20
M  V30 21 1 7 21
M  V30 22 1 8 22
M  V30 23 1 8 23
M  V30 24 1 8 24
M  V30 25 1 9 25
M  V30 26 1 9 26
M  V30 27 1 10 27
M  V30 28 1 10 28
M  V30 29 1 11 29
M  V30 30 1 12 30
M  V30 31 1 12 31
M  V30 32 1 14 32
M  V30 33 1 14 33
M  V30 34 1 14 34
M  V30 END BOND
M  V30 BEGIN COLLECTION
M  V30 MDLV30/STEABS ATOMS=(1 6)
M  V30 END COLLECTION
M  V30 END CTAB
M  END
>  <Structure No>
667

>  <LogS>
-3.931170339

>  <MMFF94 Energy>
15.482

$$$$
Compound 668
Actelion Java MolfileCreator 2.0

  0  0  0  0  0  0              0 V3000
M  V30 BEGIN CTAB
M  V30 COUNTS 42 41 0 0 0
M  V30 BEGIN ATOM
M  V30 1 O 4.1138 -1.3956 0.9302 0
M  V30 2 C 4.0367 -0.2213 0.1556 0 CFG=2
M  V30 3 C 4.5361 0.9489 0.9919 0
M  V30 4 C 2.5657 0.0296 -0.2863 0
M  V30 5 C 4.9585 -0.404 -1.0637 0
M  V30 6 C 4.6084 2.2028 0.5272 0
M  V30 7 C 1.929 -1.1678 -1.0129 0
M  V30 8 C 0.4609 -0.9211 -1.2539 0
M  V30 9 C -0.5192 -1.2303 -0.3744 0
M  V30 10 C -1.9507 -0.8799 -0.7161 0
M  V30 11 C -0.2262 -1.9304 0.9321 0
M  V30 12 C -2.2051 0.6184 -0.5178 0
M  V30 13 C -3.648 0.9577 -0.7973 0
M  V30 14 C -4.6353 0.9132 0.1244 0
M  V30 15 C -6.0401 1.2414 -0.311 0
M  V30 16 C -4.3663 0.563 1.5694 0
M  V30 17 H 3.4956 -1.2954 1.7021 0
M  V30 18 H 4.8535 0.7646 2.0148 0
M  V30 19 H 2.5157 0.9146 -0.9579 0
M  V30 20 H 1.961 0.2741 0.6144 0
M  V30 21 H 6.0207 -0.4507 -0.7393 0
M  V30 22 H 4.7293 -1.3542 -1.5897 0
M  V30 23 H 4.8441 0.4343 -1.7834 0
M  V30 24 H 4.3106 2.4492 -0.4863 0
M  V30 25 H 4.9739 2.9975 1.1694 0
M  V30 26 H 2.4167 -1.2944 -2.0022 0
M  V30 27 H 2.0821 -2.1111 -0.4491 0
M  V30 28 H 0.195 -0.4333 -2.1885 0
M  V30 29 H -2.164 -1.1634 -1.7707 0
M  V30 30 H -2.6497 -1.4652 -0.0821 0
M  V30 31 H -1.1455 -2.0468 1.5433 0
M  V30 32 H 0.1851 -2.9423 0.7351 0
M  V30 33 H 0.5007 -1.3449 1.5309 0
M  V30 34 H -1.5718 1.1913 -1.2291 0
M  V30 35 H -1.9104 0.9325 0.506 0
M  V30 36 H -3.8965 1.2288 -1.8206 0
M  V30 37 H -6.3656 0.5267 -1.0963 0
M  V30 38 H -6.758 1.1802 0.5333 0
M  V30 39 H -6.0748 2.2727 -0.7217 0
M  V30 40 H -3.9028 -0.4416 1.644 0
M  V30 41 H -5.3027 0.5475 2.1649 0
M  V30 42 H -3.69 1.3178 2.0222 0
M  V30 END ATOM
M  V30 BEGIN BOND
M  V30 1 1 1 2
M  V30 2 1 2 3
M  V30 3 1 2 4
M  V30 4 1 2 5
M  V30 5 2 3 6
M  V30 6 1 4 7
M  V30 7 1 7 8
M  V30 8 2 8 9
M  V30 9 1 9 10
M  V30 10 1 9 11
M  V30 11 1 10 12
M  V30 12 1 12 13
M  V30 13 2 13 14
M  V30 14 1 14 15
M  V30 15 1 14 16
M  V30 16 1 1 17
M  V30 17 1 3 18
M  V30 18 1 4 19
M  V30 19 1 4 20
M  V30 20 1 5 21
M  V30 21 1 5 22
M  V30 22 1 5 23
M  V30 23 1 6 24
M  V30 24 1 6 25
M  V30 25 1 7 26
M  V30 26 1 7 27
M  V30 27 1 8 28
M  V30 28 1 10 29
M  V30 29 1 10 30
M  V30 30 1 11 31
M  V30 31 1 11 32
M  V30 32 1 11 33
M  V30 33 1 12 34
M  V30 34 1 12 35
M  V30 35 1 13 36
M  V30 36 1 15 37
M  V30 37 1 15 38
M  V30 38 1 15 39
M  V30 39 1 16 40
M  V30 40 1 16 41
M  V30 41 1 16 42
M  V30 END BOND
M  V30 BEGIN COLLECTION
M  V30 MDLV30/STEABS ATOMS=(1 2)
M  V30 END COLLECTION
M  V30 END CTAB
M  END
>  <Structure No>
668

>  <LogS>
-3.985352266

>  <MMFF94 Energy>
32.562

$$$$
Compound 669
Actelion Java MolfileCreator 2.0

  0  0  0  0  0  0              0 V3000
M  V30 BEGIN CTAB
M  V30 COUNTS 40 39 0 0 0
M  V30 BEGIN ATOM
M  V30 1 O 3.8406 -0.2348 2.1148 0
M  V30 2 C 4.1742 -0.3214 0.9003 0
M  V30 3 O 3.358 -1.0085 -0.0065 0
M  V30 4 C 5.4314 0.2953 0.422 0
M  V30 5 C 2.0849 -1.5549 0.3358 0
M  V30 6 C 6.2841 0.8728 1.277 0
M  V30 7 C 5.7802 0.2082 -1.038 0
M  V30 8 C 1.0269 -0.4539 0.4726 0
M  V30 9 C 0.813 0.2947 -0.8527 0
M  V30 10 C -0.1194 1.5113 -0.7105 0
M  V30 11 C -1.5493 1.1813 -0.2463 0
M  V30 12 C -2.3004 0.267 -1.2222 0
M  V30 13 O -3.6739 0.1658 -0.8509 0
M  V30 14 C -4.1268 -0.6004 0.2315 0
M  V30 15 O -3.3123 -1.2925 0.9024 0
M  V30 16 C -5.5628 -0.6059 0.5887 0
M  V30 17 C -6.427 0.1825 -0.0597 0
M  V30 18 C -6.0398 -1.4459 1.7425 0
M  V30 19 H 1.7751 -2.2641 -0.4612 0
M  V30 20 H 2.1599 -2.1292 1.2849 0
M  V30 21 H 6.0706 0.929 2.337 0
M  V30 22 H 7.2174 1.2995 0.9309 0
M  V30 23 H 6.1582 -0.81 -1.2669 0
M  V30 24 H 6.5567 0.9517 -1.3198 0
M  V30 25 H 4.8808 0.4085 -1.6577 0
M  V30 26 H 0.076 -0.9337 0.7873 0
M  V30 27 H 1.3333 0.261 1.2662 0
M  V30 28 H 0.4223 -0.4022 -1.624 0
M  V30 29 H 1.793 0.6692 -1.2204 0
M  V30 30 H -0.1716 2.0336 -1.6907 0
M  V30 31 H 0.3306 2.226 0.0127 0
M  V30 32 H -1.53 0.729 0.7666 0
M  V30 33 H -2.1105 2.1373 -0.1614 0
M  V30 34 H -1.8458 -0.7462 -1.2495 0
M  V30 35 H -2.248 0.6991 -2.244 0
M  V30 36 H -6.1097 0.8194 -0.8756 0
M  V30 37 H -7.4738 0.2082 0.2169 0
M  V30 38 H -7.1363 -1.6222 1.6945 0
M  V30 39 H -5.5391 -2.4369 1.7285 0
M  V30 40 H -5.8 -0.9323 2.6969 0
M  V30 END ATOM
M  V30 BEGIN BOND
M  V30 1 2 1 2
M  V30 2 1 2 3
M  V30 3 1 2 4
M  V30 4 1 3 5
M  V30 5 2 4 6
M  V30 6 1 4 7
M  V30 7 1 5 8
M  V30 8 1 8 9
M  V30 9 1 9 10
M  V30 10 1 10 11
M  V30 11 1 11 12
M  V30 12 1 12 13
M  V30 13 1 13 14
M  V30 14 2 14 15
M  V30 15 1 14 16
M  V30 16 2 16 17
M  V30 17 1 16 18
M  V30 18 1 5 19
M  V30 19 1 5 20
M  V30 20 1 6 21
M  V30 21 1 6 22
M  V30 22 1 7 23
M  V30 23 1 7 24
M  V30 24 1 7 25
M  V30 25 1 8 26
M  V30 26 1 8 27
M  V30 27 1 9 28
M  V30 28 1 9 29
M  V30 29 1 10 30
M  V30 30 1 10 31
M  V30 31 1 11 32
M  V30 32 1 11 33
M  V30 33 1 12 34
M  V30 34 1 12 35
M  V30 35 1 17 36
M  V30 36 1 17 37
M  V30 37 1 18 38
M  V30 38 1 18 39
M  V30 39 1 18 40
M  V30 END BOND
M  V30 END CTAB
M  END
>  <Structure No>
669

>  <LogS>
-4.043662925

>  <MMFF94 Energy>
4.4872

$$$$
Compound 670
Actelion Java MolfileCreator 2.0

  0  0  0  0  0  0              0 V3000
M  V30 BEGIN CTAB
M  V30 COUNTS 17 17 0 0 0
M  V30 BEGIN ATOM
M  V30 1 F -3.0657 0.3223 1.3706 0
M  V30 2 C -2.6954 0.0875 0.0598 0
M  V30 3 F -3.1941 1.1024 -0.7385 0
M  V30 4 F -3.2551 -1.1069 -0.3597 0
M  V30 5 C -1.1912 0.0308 -0.0284 0
M  V30 6 C -0.5107 -1.1816 0.1806 0
M  V30 7 C -0.4448 1.2055 -0.2286 0
M  V30 8 C 0.8862 -1.2253 0.1446 0
M  V30 9 C 0.952 1.1598 -0.2641 0
M  V30 10 C 1.6239 -0.0559 -0.0818 0
M  V30 11 N 3.0527 -0.1013 -0.1171 0
M  V30 12 H -1.0588 -2.0951 0.3739 0
M  V30 13 H -0.9413 2.1595 -0.3554 0
M  V30 14 H 1.3934 -2.1692 0.2991 0
M  V30 15 H 1.5106 2.0728 -0.428 0
M  V30 16 H 3.6113 0.7655 -0.2821 0
M  V30 17 H 3.5624 -1.0023 0.0208 0
M  V30 END ATOM
M  V30 BEGIN BOND
M  V30 1 1 1 2
M  V30 2 1 2 3
M  V30 3 1 2 4
M  V30 4 1 2 5
M  V30 5 2 5 6
M  V30 6 1 5 7
M  V30 7 1 6 8
M  V30 8 2 7 9
M  V30 9 2 8 10
M  V30 10 1 10 11
M  V30 11 1 9 10
M  V30 12 1 6 12
M  V30 13 1 7 13
M  V30 14 1 8 14
M  V30 15 1 9 15
M  V30 16 1 11 16
M  V30 17 1 11 17
M  V30 END BOND
M  V30 END CTAB
M  END
>  <Structure No>
670

>  <LogS>
-2.847330143

>  <MMFF94 Energy>
34.523

$$$$
Compound 671
Actelion Java MolfileCreator 2.0

  0  0  0  0  0  0              0 V3000
M  V30 BEGIN CTAB
M  V30 COUNTS 36 36 0 0 0
M  V30 BEGIN ATOM
M  V30 1 N -0.8571 0.0 -0.3116 0 CHG=1
M  V30 2 C 0.2851 -0.9843 -0.3352 0
M  V30 3 C -2.1319 -0.6558 -0.7899 0
M  V30 4 C -0.5153 1.1107 -1.2726 0
M  V30 5 C -1.0395 0.6071 1.0525 0
M  V30 6 C 1.6571 -0.4101 -0.0092 0
M  V30 7 C -2.3274 -2.1494 -0.4515 0
M  V30 8 C -1.6163 2.1658 -1.5193 0
M  V30 9 C -1.4523 -0.354 2.1784 0
M  V30 10 C 2.5052 0.0314 -1.0424 0
M  V30 11 C 2.1224 -0.3647 1.3178 0
M  V30 12 C 3.7726 0.5432 -0.7489 0
M  V30 13 C 3.3909 0.1476 1.6065 0
M  V30 14 C 4.2137 0.605 0.5747 0
M  V30 15 H 0.3453 -1.4589 -1.3417 0
M  V30 16 H 0.1111 -1.8303 0.3588 0
M  V30 17 H -3.0203 -0.1067 -0.404 0
M  V30 18 H -2.203 -0.6089 -1.9011 0
M  V30 19 H -0.2445 0.6854 -2.2663 0
M  V30 20 H 0.3727 1.6789 -0.9181 0
M  V30 21 H -0.1172 1.1401 1.3696 0
M  V30 22 H -1.835 1.3804 1.0321 0
M  V30 23 H -2.1789 -2.377 0.6189 0
M  V30 24 H -3.3643 -2.4465 -0.7161 0
M  V30 25 H -1.643 -2.7822 -1.0547 0
M  V30 26 H -2.5741 1.7158 -1.8471 0
M  V30 27 H -1.7841 2.8009 -0.6269 0
M  V30 28 H -1.2807 2.8437 -2.3325 0
M  V30 29 H -2.5075 -0.6723 2.053 0
M  V30 30 H -0.7921 -1.2367 2.2598 0
M  V30 31 H -1.3951 0.1866 3.1469 0
M  V30 32 H 2.1835 -0.0173 -2.0751 0
M  V30 33 H 1.509 -0.7282 2.1303 0
M  V30 34 H 4.4145 0.8888 -1.549 0
M  V30 35 H 3.738 0.1856 2.6311 0
M  V30 36 H 5.1958 1.0003 0.8002 0
M  V30 END ATOM
M  V30 BEGIN BOND
M  V30 1 1 1 2
M  V30 2 1 1 3
M  V30 3 1 1 4
M  V30 4 1 1 5
M  V30 5 1 2 6
M  V30 6 1 3 7
M  V30 7 1 4 8
M  V30 8 1 5 9
M  V30 9 2 6 10
M  V30 10 1 6 11
M  V30 11 1 10 12
M  V30 12 2 11 13
M  V30 13 2 12 14
M  V30 14 1 13 14
M  V30 15 1 2 15
M  V30 16 1 2 16
M  V30 17 1 3 17
M  V30 18 1 3 18
M  V30 19 1 4 19
M  V30 20 1 4 20
M  V30 21 1 5 21
M  V30 22 1 5 22
M  V30 23 1 7 23
M  V30 24 1 7 24
M  V30 25 1 7 25
M  V30 26 1 8 26
M  V30 27 1 8 27
M  V30 28 1 8 28
M  V30 29 1 9 29
M  V30 30 1 9 30
M  V30 31 1 9 31
M  V30 32 1 10 32
M  V30 33 1 11 33
M  V30 34 1 12 34
M  V30 35 1 13 35
M  V30 36 1 14 36
M  V30 END BOND
M  V30 END CTAB
M  END
>  <Structure No>
671

>  <LogS>
-0.007265664

>  <MMFF94 Energy>
35.532

$$$$
Compound 672
Actelion Java MolfileCreator 2.0

  0  0  0  0  0  0              0 V3000
M  V30 BEGIN CTAB
M  V30 COUNTS 30 29 0 0 0
M  V30 BEGIN ATOM
M  V30 1 O 5.5683 -0.794 -1.668 0
M  V30 2 C 5.2561 -0.0377 -0.7106 0
M  V30 3 O 6.2092 0.2928 0.2443 0 CHG=-1
M  V30 4 C 3.8522 0.4602 -0.5712 0
M  V30 5 C 3.0084 -0.5368 0.2339 0
M  V30 6 C 1.5933 -0.014 0.5303 0
M  V30 7 C 0.6908 -0.014 -0.716 0
M  V30 8 C -0.7326 0.4838 -0.4143 0
M  V30 9 C -1.5923 -0.578 0.2937 0
M  V30 10 C -3.0067 -0.0708 0.619 0
M  V30 11 C -3.8954 0.046 -0.6263 0
M  V30 12 C -5.294 0.4082 -0.2369 0
M  V30 13 O -5.6243 1.6169 -0.1127 0
M  V30 14 O -6.2201 -0.59 0.0373 0 CHG=-1
M  V30 15 H 3.4207 0.6036 -1.5842 0
M  V30 16 H 3.8684 1.4453 -0.0566 0
M  V30 17 H 3.5136 -0.7272 1.2069 0
M  V30 18 H 2.9468 -1.5064 -0.3077 0
M  V30 19 H 1.1503 -0.6738 1.3049 0
M  V30 20 H 1.6528 1.0113 0.9569 0
M  V30 21 H 0.6486 -1.0335 -1.1583 0
M  V30 22 H 1.1273 0.665 -1.4782 0
M  V30 23 H -1.2072 0.7453 -1.3834 0
M  V30 24 H -0.6869 1.4107 0.1987 0
M  V30 25 H -1.1114 -0.8601 1.2533 0
M  V30 26 H -1.6562 -1.495 -0.3319 0
M  V30 27 H -3.4753 -0.7923 1.3247 0
M  V30 28 H -2.9458 0.9126 1.1355 0
M  V30 29 H -3.9124 -0.922 -1.1719 0
M  V30 30 H -3.5014 0.8254 -1.3119 0
M  V30 END ATOM
M  V30 BEGIN BOND
M  V30 1 2 1 2
M  V30 2 1 2 3
M  V30 3 1 2 4
M  V30 4 1 4 5
M  V30 5 1 5 6
M  V30 6 1 6 7
M  V30 7 1 7 8
M  V30 8 1 8 9
M  V30 9 1 9 10
M  V30 10 1 10 11
M  V30 11 1 11 12
M  V30 12 2 12 13
M  V30 13 1 12 14
M  V30 14 1 4 15
M  V30 15 1 4 16
M  V30 16 1 5 17
M  V30 17 1 5 18
M  V30 18 1 6 19
M  V30 19 1 6 20
M  V30 20 1 7 21
M  V30 21 1 7 22
M  V30 22 1 8 23
M  V30 23 1 8 24
M  V30 24 1 9 25
M  V30 25 1 9 26
M  V30 26 1 10 27
M  V30 27 1 10 28
M  V30 28 1 11 29
M  V30 29 1 11 30
M  V30 END BOND
M  V30 END CTAB
M  END
>  <Structure No>
672

>  <LogS>
-3.041064725

>  <MMFF94 Energy>
34.233

$$$$
Compound 673
Actelion Java MolfileCreator 2.0

  0  0  0  0  0  0              0 V3000
M  V30 BEGIN CTAB
M  V30 COUNTS 38 37 0 0 0
M  V30 BEGIN ATOM
M  V30 1 O -4.9177 -0.5454 1.6371 0
M  V30 2 C -4.479 -0.2987 0.4794 0
M  V30 3 O -3.5605 0.7394 0.2812 0
M  V30 4 C -4.9355 -1.0958 -0.6811 0
M  V30 5 C -3.0031 1.5124 1.343 0
M  V30 6 C -5.743 -2.1506 -0.5168 0
M  V30 7 C -4.4172 -0.7589 -2.052 0
M  V30 8 C -1.949 0.7087 2.109 0
M  V30 9 O -1.0047 0.148 1.2156 0
M  V30 10 C 0.1284 0.9836 1.1023 0
M  V30 11 C 1.0593 0.4198 0.0375 0
M  V30 12 O 2.1902 1.2585 -0.0806 0
M  V30 13 C 3.1457 0.6849 -0.9532 0
M  V30 14 C 4.2121 -0.0649 -0.1483 0
M  V30 15 C 5.3105 -0.6167 -1.0644 0
M  V30 16 C 6.3679 -1.3716 -0.264 0
M  V30 17 H -3.8047 1.8512 2.035 0
M  V30 18 H -2.5304 2.4178 0.9094 0
M  V30 19 H -6.1085 -2.4358 0.4617 0
M  V30 20 H -6.0508 -2.7536 -1.3621 0
M  V30 21 H -4.392 0.3422 -2.1924 0
M  V30 22 H -3.3895 -1.1625 -2.1675 0
M  V30 23 H -5.0637 -1.1842 -2.8501 0
M  V30 24 H -2.4547 -0.1255 2.6383 0
M  V30 25 H -1.4904 1.344 2.9039 0
M  V30 26 H -0.1625 2.0166 0.8034 0
M  V30 27 H 0.6799 1.0184 2.0696 0
M  V30 28 H 0.5082 0.3821 -0.9295 0
M  V30 29 H 1.352 -0.6121 0.3378 0
M  V30 30 H 3.6372 1.5146 -1.505 0
M  V30 31 H 2.6975 0.0148 -1.726 0
M  V30 32 H 3.7361 -0.9046 0.4031 0
M  V30 33 H 4.6628 0.63 0.5939 0
M  V30 34 H 4.8636 -1.3093 -1.8112 0
M  V30 35 H 5.8008 0.2199 -1.6085 0
M  V30 36 H 5.9081 -2.2323 0.2666 0
M  V30 37 H 6.8466 -0.6975 0.4775 0
M  V30 38 H 7.151 -1.7554 -0.9513 0
M  V30 END ATOM
M  V30 BEGIN BOND
M  V30 1 2 1 2
M  V30 2 1 2 3
M  V30 3 1 2 4
M  V30 4 1 3 5
M  V30 5 2 4 6
M  V30 6 1 4 7
M  V30 7 1 5 8
M  V30 8 1 8 9
M  V30 9 1 9 10
M  V30 10 1 10 11
M  V30 11 1 11 12
M  V30 12 1 12 13
M  V30 13 1 13 14
M  V30 14 1 14 15
M  V30 15 1 15 16
M  V30 16 1 5 17
M  V30 17 1 5 18
M  V30 18 1 6 19
M  V30 19 1 6 20
M  V30 20 1 7 21
M  V30 21 1 7 22
M  V30 22 1 7 23
M  V30 23 1 8 24
M  V30 24 1 8 25
M  V30 25 1 10 26
M  V30 26 1 10 27
M  V30 27 1 11 28
M  V30 28 1 11 29
M  V30 29 1 13 30
M  V30 30 1 13 31
M  V30 31 1 14 32
M  V30 32 1 14 33
M  V30 33 1 15 34
M  V30 34 1 15 35
M  V30 35 1 16 36
M  V30 36 1 16 37
M  V30 37 1 16 38
M  V30 END BOND
M  V30 END CTAB
M  END
>  <Structure No>
673

>  <LogS>
-2.015948507

>  <MMFF94 Energy>
39.252

$$$$
Compound 674
Actelion Java MolfileCreator 2.0

  0  0  0  0  0  0              0 V3000
M  V30 BEGIN CTAB
M  V30 COUNTS 33 34 0 0 0
M  V30 BEGIN ATOM
M  V30 1 F 1.7322 -2.8057 0.1648 0
M  V30 2 C 0.5074 -2.4103 -0.3492 0
M  V30 3 F -0.38 -3.4574 -0.1629 0
M  V30 4 F 0.668 -2.2023 -1.709 0
M  V30 5 C 0.0137 -1.1042 0.3615 0
M  V30 6 C 1.2011 -0.1081 0.3227 0
M  V30 7 C -1.2095 -0.4545 -0.3354 0
M  V30 8 C -0.4441 -1.4623 1.8166 0
M  V30 9 C 1.5142 0.5496 -0.8899 0
M  V30 10 C 2.0544 0.1161 1.4293 0
M  V30 11 C -2.0523 -1.1603 -1.2266 0
M  V30 12 C -1.5655 0.8758 -0.0118 0
M  V30 13 F -0.6339 -0.3163 2.5711 0
M  V30 14 F 0.4833 -2.2665 2.4584 0
M  V30 15 F -1.6455 -2.1527 1.7881 0
M  V30 16 C 2.5989 1.4251 -0.9784 0
M  V30 17 C 3.1387 0.9934 1.334 0
M  V30 18 C -3.1691 -0.5441 -1.7991 0
M  V30 19 C -2.6825 1.4857 -0.5873 0
M  V30 20 C 3.4124 1.6513 0.1349 0
M  V30 21 C -3.4857 0.7777 -1.4851 0
M  V30 22 O 4.4964 2.523 0.0588 0
M  V30 23 O -4.6015 1.3758 -2.0663 0
M  V30 24 H 0.912 0.3896 -1.775 0
M  V30 25 H 1.902 -0.3742 2.377 0
M  V30 26 H -1.8674 -2.1875 -1.4956 0
M  V30 27 H -0.9725 1.4503 0.6881 0
M  V30 28 H 2.8084 1.9234 -1.9164 0
M  V30 29 H 3.7726 1.1578 2.1964 0
M  V30 30 H -3.7945 -1.0998 -2.4863 0
M  V30 31 H -2.9249 2.5091 -0.3297 0
M  V30 32 H 4.7217 3.0143 -0.7981 0
M  V30 33 H -4.8581 2.3336 -1.8571 0
M  V30 END ATOM
M  V30 BEGIN BOND
M  V30 1 1 1 2
M  V30 2 1 2 3
M  V30 3 1 2 4
M  V30 4 1 2 5
M  V30 5 1 5 6
M  V30 6 1 5 7
M  V30 7 1 5 8
M  V30 8 2 6 9
M  V30 9 1 6 10
M  V30 10 2 7 11
M  V30 11 1 7 12
M  V30 12 1 8 13
M  V30 13 1 8 14
M  V30 14 1 8 15
M  V30 15 1 9 16
M  V30 16 2 10 17
M  V30 17 1 11 18
M  V30 18 2 12 19
M  V30 19 2 16 20
M  V30 20 2 18 21
M  V30 21 1 20 22
M  V30 22 1 21 23
M  V30 23 1 17 20
M  V30 24 1 19 21
M  V30 25 1 9 24
M  V30 26 1 10 25
M  V30 27 1 11 26
M  V30 28 1 12 27
M  V30 29 1 16 28
M  V30 30 1 17 29
M  V30 31 1 18 30
M  V30 32 1 19 31
M  V30 33 1 22 32
M  V30 34 1 23 33
M  V30 END BOND
M  V30 END CTAB
M  END
>  <Structure No>
674

>  <LogS>
-3.179502969

>  <MMFF94 Energy>
50.249

$$$$
Compound 675
Actelion Java MolfileCreator 2.0

  0  0  0  0  0  0              0 V3000
M  V30 BEGIN CTAB
M  V30 COUNTS 23 24 0 0 0
M  V30 BEGIN ATOM
M  V30 1 O 2.4719 -1.1955 1.036 0
M  V30 2 C 2.2522 -0.3312 0.1454 0
M  V30 3 C 0.9348 0.3478 0.0813 0
M  V30 4 C 3.3686 0.0643 -0.7702 0
M  V30 5 C -0.2972 -0.3596 0.1528 0
M  V30 6 C 0.9142 1.7501 -0.0213 0
M  V30 7 C -1.5182 0.3702 0.1601 0
M  V30 8 C -0.3567 -1.7705 0.1815 0
M  V30 9 C -0.2908 2.4508 -0.0229 0
M  V30 10 C -1.5006 1.7688 0.0759 0
M  V30 11 C -2.7443 -0.309 0.239 0
M  V30 12 C -1.586 -2.4299 0.2568 0
M  V30 13 C -2.7747 -1.7023 0.2922 0
M  V30 14 H 3.9628 0.8773 -0.3036 0
M  V30 15 H 2.9639 0.4159 -1.7428 0
M  V30 16 H 4.032 -0.8058 -0.9594 0
M  V30 17 H 1.8389 2.3115 -0.0747 0
M  V30 18 H 0.5344 -2.3783 0.125 0
M  V30 19 H -0.2857 3.531 -0.092 0
M  V30 20 H -2.4248 2.3347 0.0779 0
M  V30 21 H -3.6797 0.238 0.2524 0
M  V30 22 H -1.617 -3.5116 0.2808 0
M  V30 23 H -3.7233 -2.2203 0.3494 0
M  V30 END ATOM
M  V30 BEGIN BOND
M  V30 1 2 1 2
M  V30 2 1 2 3
M  V30 3 1 2 4
M  V30 4 1 3 5
M  V30 5 2 3 6
M  V30 6 1 5 7
M  V30 7 2 5 8
M  V30 8 1 6 9
M  V30 9 1 7 10
M  V30 10 2 7 11
M  V30 11 1 8 12
M  V30 12 1 11 13
M  V30 13 2 9 10
M  V30 14 2 12 13
M  V30 15 1 4 14
M  V30 16 1 4 15
M  V30 17 1 4 16
M  V30 18 1 6 17
M  V30 19 1 8 18
M  V30 20 1 9 19
M  V30 21 1 10 20
M  V30 22 1 11 21
M  V30 23 1 12 22
M  V30 24 1 13 23
M  V30 END BOND
M  V30 END CTAB
M  END
>  <Structure No>
675

>  <LogS>
-2.884634649

>  <MMFF94 Energy>
54.06

$$$$
Compound 676
Actelion Java MolfileCreator 2.0

  0  0  0  0  0  0              0 V3000
M  V30 BEGIN CTAB
M  V30 COUNTS 23 23 0 0 0
M  V30 BEGIN ATOM
M  V30 1 N 3.895 -0.6224 0.0 0
M  V30 2 C 2.4887 -0.3746 0.0767 0
M  V30 3 C 1.9094 0.0356 1.2846 0
M  V30 4 C 1.6804 -0.5402 -1.0554 0
M  V30 5 C 0.5347 0.2781 1.361 0
M  V30 6 C 0.3056 -0.2984 -0.9816 0
M  V30 7 C -0.2831 0.114 0.2291 0
M  V30 8 C -1.7739 0.3805 0.325 0
M  V30 9 C -2.191 1.528 -0.6025 0
M  V30 10 C -2.5822 -0.8886 0.0306 0
M  V30 11 H 4.3359 -0.9284 -0.8959 0
M  V30 12 H 4.5056 -0.5015 0.8386 0
M  V30 13 H 2.523 0.1674 2.1669 0
M  V30 14 H 2.1155 -0.8568 -1.9949 0
M  V30 15 H 0.1102 0.5943 2.3059 0
M  V30 16 H -0.2971 -0.4336 -1.8702 0
M  V30 17 H -2.0278 0.6935 1.3626 0
M  V30 18 H -3.2643 1.7702 -0.4483 0
M  V30 19 H -1.5943 2.4372 -0.375 0
M  V30 20 H -2.0407 1.2567 -1.6688 0
M  V30 21 H -3.6638 -0.6976 0.1981 0
M  V30 22 H -2.4415 -1.219 -1.0203 0
M  V30 23 H -2.2653 -1.7079 0.7107 0
M  V30 END ATOM
M  V30 BEGIN BOND
M  V30 1 1 1 2
M  V30 2 2 2 3
M  V30 3 1 2 4
M  V30 4 1 3 5
M  V30 5 2 4 6
M  V30 6 2 5 7
M  V30 7 1 7 8
M  V30 8 1 8 9
M  V30 9 1 8 10
M  V30 10 1 6 7
M  V30 11 1 1 11
M  V30 12 1 1 12
M  V30 13 1 3 13
M  V30 14 1 4 14
M  V30 15 1 5 15
M  V30 16 1 6 16
M  V30 17 1 8 17
M  V30 18 1 9 18
M  V30 19 1 9 19
M  V30 20 1 9 20
M  V30 21 1 10 21
M  V30 22 1 10 22
M  V30 23 1 10 23
M  V30 END BOND
M  V30 END CTAB
M  END
>  <Structure No>
676

>  <LogS>
-1.785831196

>  <MMFF94 Energy>
14.766

$$$$
Compound 677
Actelion Java MolfileCreator 2.0

  0  0  0  0  0  0              0 V3000
M  V30 BEGIN CTAB
M  V30 COUNTS 18 18 0 0 0
M  V30 BEGIN ATOM
M  V30 1 O -2.181 0.9342 0.0778 0
M  V30 2 C -0.8515 0.5149 0.2342 0
M  V30 3 C -3.2475 0.0869 -0.337 0
M  V30 4 C -0.4435 -0.8108 -0.0103 0
M  V30 5 C 0.0985 1.4558 0.6495 0
M  V30 6 C 0.8947 -1.1789 0.1603 0
M  V30 7 C 1.4364 1.0871 0.8199 0
M  V30 8 C 1.8408 -0.2322 0.5761 0
M  V30 9 N 3.2091 -0.6098 0.7504 0
M  V30 10 H -3.3794 -0.7437 0.3882 0
M  V30 11 H -3.0409 -0.3187 -1.3499 0
M  V30 12 H -4.1859 0.6774 -0.3754 0
M  V30 13 H -1.1512 -1.5627 -0.332 0
M  V30 14 H -0.2019 2.4783 0.841 0
M  V30 15 H 1.1942 -2.2017 -0.0313 0
M  V30 16 H 2.1566 1.8289 1.1416 0
M  V30 17 H 3.9211 0.0887 1.0599 0
M  V30 18 H 3.5199 -1.5907 0.5711 0
M  V30 END ATOM
M  V30 BEGIN BOND
M  V30 1 1 1 2
M  V30 2 1 1 3
M  V30 3 2 2 4
M  V30 4 1 2 5
M  V30 5 1 4 6
M  V30 6 2 5 7
M  V30 7 2 6 8
M  V30 8 1 8 9
M  V30 9 1 7 8
M  V30 10 1 3 10
M  V30 11 1 3 11
M  V30 12 1 3 12
M  V30 13 1 4 13
M  V30 14 1 5 14
M  V30 15 1 6 15
M  V30 16 1 7 16
M  V30 17 1 9 17
M  V30 18 1 9 18
M  V30 END BOND
M  V30 END CTAB
M  END
>  <Structure No>
677

>  <LogS>
-0.748029368

>  <MMFF94 Energy>
10.86

$$$$
Compound 678
Actelion Java MolfileCreator 2.0

  0  0  0  0  0  0              0 V3000
M  V30 BEGIN CTAB
M  V30 COUNTS 18 17 0 0 0
M  V30 BEGIN ATOM
M  V30 1 O 3.2851 0.0763 0.1526 0
M  V30 2 C 1.9463 0.1331 0.5636 0
M  V30 3 C 1.0541 -0.6088 -0.4391 0
M  V30 4 C -0.3998 -0.7381 0.0409 0
M  V30 5 C -1.1505 0.6013 0.0169 0
M  V30 6 C -2.6215 0.4132 0.3772 0
M  V30 7 H 3.3787 0.7171 -0.6 0
M  V30 8 H 1.8663 -0.3489 1.5613 0
M  V30 9 H 1.6268 1.194 0.666 0
M  V30 10 H 1.4644 -1.632 -0.5842 0
M  V30 11 H 1.0842 -0.0922 -1.4233 0
M  V30 12 H -0.4215 -1.1665 1.0672 0
M  V30 13 H -0.9206 -1.4532 -0.6332 0
M  V30 14 H -0.6986 1.3052 0.7472 0
M  V30 15 H -1.085 1.0524 -0.9971 0
M  V30 16 H -2.7166 -0.0212 1.3953 0
M  V30 17 H -3.1371 1.3965 0.3611 0
M  V30 18 H -3.1163 -0.2584 -0.3563 0
M  V30 END ATOM
M  V30 BEGIN BOND
M  V30 1 1 1 2
M  V30 2 1 2 3
M  V30 3 1 3 4
M  V30 4 1 4 5
M  V30 5 1 5 6
M  V30 6 1 1 7
M  V30 7 1 2 8
M  V30 8 1 2 9
M  V30 9 1 3 10
M  V30 10 1 3 11
M  V30 11 1 4 12
M  V30 12 1 4 13
M  V30 13 1 5 14
M  V30 14 1 5 15
M  V30 15 1 6 16
M  V30 16 1 6 17
M  V30 17 1 6 18
M  V30 END BOND
M  V30 END CTAB
M  END
>  <Structure No>
678

>  <LogS>
-0.602799636

>  <MMFF94 Energy>
-1.3873

$$$$
Compound 679
Actelion Java MolfileCreator 2.0

  0  0  0  0  0  0              0 V3000
M  V30 BEGIN CTAB
M  V30 COUNTS 20 20 0 0 0
M  V30 BEGIN ATOM
M  V30 1 O 4.1366 -0.4766 0.715 0
M  V30 2 N 3.1841 -1.2195 0.3986 0 CHG=1
M  V30 3 O 3.4229 -2.5633 0.2218 0 CHG=-1
M  V30 4 C 1.8603 -0.6817 0.2218 0
M  V30 5 C 0.7928 -1.5225 -0.134 0
M  V30 6 C 1.6139 0.6894 0.4017 0
M  V30 7 C -0.501 -1.0084 -0.3087 0
M  V30 8 C 0.3291 1.2087 0.2296 0
M  V30 9 N -1.5678 -1.8928 -0.6719 0
M  V30 10 C -0.7408 0.3666 -0.1269 0
M  V30 11 O -2.0437 0.8598 -0.3069 0
M  V30 12 C -2.4196 2.2248 -0.1542 0
M  V30 13 H 0.9625 -2.5821 -0.2771 0
M  V30 14 H 2.4161 1.3625 0.6761 0
M  V30 15 H 0.1789 2.2695 0.377 0
M  V30 16 H -1.3914 -2.9133 -0.807 0
M  V30 17 H -2.5422 -1.5441 -0.8098 0
M  V30 18 H -3.5056 2.3263 -0.356 0
M  V30 19 H -2.2183 2.5625 0.8844 0
M  V30 20 H -1.8631 2.8574 -0.8776 0
M  V30 END ATOM
M  V30 BEGIN BOND
M  V30 1 2 1 2
M  V30 2 1 2 3
M  V30 3 1 2 4
M  V30 4 2 4 5
M  V30 5 1 4 6
M  V30 6 1 5 7
M  V30 7 2 6 8
M  V30 8 1 7 9
M  V30 9 2 7 10
M  V30 10 1 10 11
M  V30 11 1 11 12
M  V30 12 1 8 10
M  V30 13 1 5 13
M  V30 14 1 6 14
M  V30 15 1 8 15
M  V30 16 1 9 16
M  V30 17 1 9 17
M  V30 18 1 12 18
M  V30 19 1 12 19
M  V30 20 1 12 20
M  V30 END BOND
M  V30 END CTAB
M  END
>  <Structure No>
679

>  <LogS>
-1.883279356

>  <MMFF94 Energy>
56.286

$$$$
Compound 680
Actelion Java MolfileCreator 2.0

  0  0  0  0  0  0              0 V3000
M  V30 BEGIN CTAB
M  V30 COUNTS 19 18 0 0 0
M  V30 BEGIN ATOM
M  V30 1 O 0.4631 1.3126 0.8491 0
M  V30 2 C -0.3483 0.7195 0.0862 0
M  V30 3 O 0.0926 0.1923 -1.1349 0
M  V30 4 C -1.7676 0.5877 0.4838 0
M  V30 5 C 1.4483 0.2535 -1.5703 0
M  V30 6 C -2.6566 0.0312 -0.3461 0
M  V30 7 C -2.2272 1.1522 1.8007 0
M  V30 8 C 2.2911 -0.7064 -0.7785 0
M  V30 9 C 3.2923 -0.2906 0.0018 0
M  V30 10 H 1.8242 1.2982 -1.4984 0
M  V30 11 H 1.49 -0.0458 -2.6379 0
M  V30 12 H -2.3617 -0.3605 -1.3111 0
M  V30 13 H -3.7027 -0.0409 -0.0752 0
M  V30 14 H -1.4801 0.9348 2.593 0
M  V30 15 H -2.3481 2.2518 1.7089 0
M  V30 16 H -3.1953 0.7094 2.1205 0
M  V30 17 H 2.0669 -1.7674 -0.8335 0
M  V30 18 H 3.8751 -1.0117 0.5656 0
M  V30 19 H 3.5379 0.7633 0.0879 0
M  V30 END ATOM
M  V30 BEGIN BOND
M  V30 1 2 1 2
M  V30 2 1 2 3
M  V30 3 1 2 4
M  V30 4 1 3 5
M  V30 5 2 4 6
M  V30 6 1 4 7
M  V30 7 1 5 8
M  V30 8 2 8 9
M  V30 9 1 5 10
M  V30 10 1 5 11
M  V30 11 1 6 12
M  V30 12 1 6 13
M  V30 13 1 7 14
M  V30 14 1 7 15
M  V30 15 1 7 16
M  V30 16 1 8 17
M  V30 17 1 9 18
M  V30 18 1 9 19
M  V30 END BOND
M  V30 END CTAB
M  END
>  <Structure No>
680

>  <LogS>
-1.758481787

>  <MMFF94 Energy>
3.5345

$$$$
Compound 681
Actelion Java MolfileCreator 2.0

  0  0  0  0  0  0              0 V3000
M  V30 BEGIN CTAB
M  V30 COUNTS 41 41 0 0 0
M  V30 BEGIN ATOM
M  V30 1 O 0.0786 -2.0461 -0.2359 0
M  V30 2 C -8.0E-4 -0.6688 -0.0129 0
M  V30 3 C 1.1211 0.0828 0.4804 0
M  V30 4 C -1.249 -0.0322 -0.2942 0
M  V30 5 C 0.9328 1.4688 0.6904 0
M  V30 6 C 2.5182 -0.5614 0.7439 0
M  V30 7 C -1.3552 1.3541 -0.0521 0
M  V30 8 C -2.4639 -0.8371 -0.8491 0
M  V30 9 C -0.2889 2.0916 0.4512 0
M  V30 10 C 2.4021 -1.7499 1.7488 0
M  V30 11 C 3.1259 -1.0242 -0.6036 0
M  V30 12 C 3.549 0.433 1.3502 0
M  V30 13 C -2.8894 -1.9285 0.1615 0
M  V30 14 C -3.7169 0.044 -1.1012 0
M  V30 15 C -2.1022 -1.4849 -2.2071 0
M  V30 16 C -0.4322 3.5748 0.6615 0
M  V30 17 O -0.0779 4.2453 -0.515 0
M  V30 18 H 0.8646 -2.6411 -0.0436 0
M  V30 19 H 1.7282 2.104 1.0455 0
M  V30 20 H -2.2668 1.8964 -0.248 0
M  V30 21 H 3.1026 -1.6597 2.6077 0
M  V30 22 H 1.3853 -1.8152 2.1925 0
M  V30 23 H 2.6443 -2.7232 1.2715 0
M  V30 24 H 3.2729 -0.1524 -1.2777 0
M  V30 25 H 4.1141 -1.5071 -0.4417 0
M  V30 26 H 2.4887 -1.7458 -1.1461 0
M  V30 27 H 4.5199 -0.0751 1.5416 0
M  V30 28 H 3.1869 0.8361 2.3212 0
M  V30 29 H 3.7636 1.2735 0.6549 0
M  V30 30 H -2.1342 -2.7298 0.2708 0
M  V30 31 H -3.0678 -1.4774 1.1617 0
M  V30 32 H -3.8279 -2.4263 -0.1664 0
M  V30 33 H -4.5584 -0.5638 -1.5002 0
M  V30 34 H -3.5029 0.8355 -1.852 0
M  V30 35 H -4.0734 0.5104 -0.157 0
M  V30 36 H -1.7109 -0.7156 -2.9074 0
M  V30 37 H -1.346 -2.2869 -2.1123 0
M  V30 38 H -2.9967 -1.9539 -2.672 0
M  V30 39 H 0.222 3.9087 1.4983 0
M  V30 40 H -1.4819 3.8242 0.937 0
M  V30 41 H -0.1879 5.2131 -0.3244 0
M  V30 END ATOM
M  V30 BEGIN BOND
M  V30 1 1 1 2
M  V30 2 2 2 3
M  V30 3 1 2 4
M  V30 4 1 3 5
M  V30 5 1 3 6
M  V30 6 2 4 7
M  V30 7 1 4 8
M  V30 8 2 5 9
M  V30 9 1 6 10
M  V30 10 1 6 11
M  V30 11 1 6 12
M  V30 12 1 8 13
M  V30 13 1 8 14
M  V30 14 1 8 15
M  V30 15 1 9 16
M  V30 16 1 16 17
M  V30 17 1 7 9
M  V30 18 1 1 18
M  V30 19 1 5 19
M  V30 20 1 7 20
M  V30 21 1 10 21
M  V30 22 1 10 22
M  V30 23 1 10 23
M  V30 24 1 11 24
M  V30 25 1 11 25
M  V30 26 1 11 26
M  V30 27 1 12 27
M  V30 28 1 12 28
M  V30 29 1 12 29
M  V30 30 1 13 30
M  V30 31 1 13 31
M  V30 32 1 13 32
M  V30 33 1 14 33
M  V30 34 1 14 34
M  V30 35 1 14 35
M  V30 36 1 15 36
M  V30 37 1 15 37
M  V30 38 1 15 38
M  V30 39 1 16 39
M  V30 40 1 16 40
M  V30 41 1 17 41
M  V30 END BOND
M  V30 END CTAB
M  END
>  <Structure No>
681

>  <LogS>
-4.012782104

>  <MMFF94 Energy>
57.202

$$$$
Compound 682
Actelion Java MolfileCreator 2.0

  0  0  0  0  0  0              0 V3000
M  V30 BEGIN CTAB
M  V30 COUNTS 34 34 0 0 0
M  V30 BEGIN ATOM
M  V30 1 O 0.1563 -0.6253 0.1563 0
M  V30 2 C 0.7175 -0.8276 -1.1289 0
M  V30 3 C -1.0152 0.1672 0.0918 0
M  V30 4 C 1.7501 0.2576 -1.4558 0
M  V30 5 C -2.2555 -0.7316 -0.0158 0
M  V30 6 C 2.8555 0.2877 -0.4329 0
M  V30 7 C -3.58 0.0473 0.1499 0
M  V30 8 C 3.9558 -0.5774 -0.5534 0
M  V30 9 C 2.7714 1.1445 0.6777 0
M  V30 10 C -3.841 0.9917 -1.0335 0
M  V30 11 C -4.7503 -0.9334 0.3001 0
M  V30 12 C 4.9663 -0.5702 0.4133 0
M  V30 13 C 3.7838 1.1481 1.6423 0
M  V30 14 C 4.8813 0.2929 1.5093 0
M  V30 15 H 1.2271 -1.8149 -1.1304 0
M  V30 16 H -0.0485 -0.8775 -1.9375 0
M  V30 17 H -0.9876 0.9124 -0.7353 0
M  V30 18 H -1.0771 0.7487 1.0362 0
M  V30 19 H 1.2521 1.2495 -1.5116 0
M  V30 20 H 2.1779 0.0574 -2.4623 0
M  V30 21 H -2.1861 -1.5014 0.7843 0
M  V30 22 H -2.25 -1.2632 -0.9921 0
M  V30 23 H -3.5296 0.6554 1.0805 0
M  V30 24 H 4.0291 -1.2567 -1.3936 0
M  V30 25 H 1.9218 1.8056 0.7974 0
M  V30 26 H -3.082 1.7998 -1.0661 0
M  V30 27 H -3.8201 0.4334 -1.994 0
M  V30 28 H -4.8345 1.4774 -0.9257 0
M  V30 29 H -5.7009 -0.3787 0.4523 0
M  V30 30 H -4.5927 -1.588 1.1838 0
M  V30 31 H -4.8466 -1.5697 -0.6057 0
M  V30 32 H 5.8137 -1.2362 0.3144 0
M  V30 33 H 3.7161 1.8118 2.4946 0
M  V30 34 H 5.6635 0.2962 2.2573 0
M  V30 END ATOM
M  V30 BEGIN BOND
M  V30 1 1 1 2
M  V30 2 1 1 3
M  V30 3 1 2 4
M  V30 4 1 3 5
M  V30 5 1 4 6
M  V30 6 1 5 7
M  V30 7 2 6 8
M  V30 8 1 6 9
M  V30 9 1 7 10
M  V30 10 1 7 11
M  V30 11 1 8 12
M  V30 12 2 9 13
M  V30 13 2 12 14
M  V30 14 1 13 14
M  V30 15 1 2 15
M  V30 16 1 2 16
M  V30 17 1 3 17
M  V30 18 1 3 18
M  V30 19 1 4 19
M  V30 20 1 4 20
M  V30 21 1 5 21
M  V30 22 1 5 22
M  V30 23 1 7 23
M  V30 24 1 8 24
M  V30 25 1 9 25
M  V30 26 1 10 26
M  V30 27 1 10 27
M  V30 28 1 10 28
M  V30 29 1 11 29
M  V30 30 1 11 30
M  V30 31 1 11 31
M  V30 32 1 12 32
M  V30 33 1 13 33
M  V30 34 1 14 34
M  V30 END BOND
M  V30 END CTAB
M  END
>  <Structure No>
682

>  <LogS>
-3.933735783

>  <MMFF94 Energy>
37.223

$$$$
Compound 683
Actelion Java MolfileCreator 2.0

  0  0  0  0  0  0              0 V3000
M  V30 BEGIN CTAB
M  V30 COUNTS 21 22 0 0 0
M  V30 BEGIN ATOM
M  V30 1 O 3.206 1.041 1.2814 0
M  V30 2 C 2.1874 1.3352 0.6015 0
M  V30 3 C 1.2999 0.2775 0.0674 0
M  V30 4 C 1.8513 -0.8564 -0.5818 0
M  V30 5 C -0.1136 0.382 0.1999 0
M  V30 6 O 3.222 -0.9928 -0.8176 0
M  V30 7 C 1.015 -1.875 -1.0426 0
M  V30 8 C -0.9412 -0.6589 -0.3013 0
M  V30 9 C -0.7313 1.4797 0.8425 0
M  V30 10 C -0.3664 -1.779 -0.9102 0
M  V30 11 C -2.3374 -0.5729 -0.1769 0
M  V30 12 C -2.122 1.5486 0.9581 0
M  V30 13 C -2.9223 0.5283 0.4473 0
M  V30 14 H 1.9488 2.3784 0.4443 0
M  V30 15 H 3.8951 -0.2577 -0.6481 0
M  V30 16 H 1.4418 -2.7421 -1.531 0
M  V30 17 H -0.1551 2.2884 1.2691 0
M  V30 18 H -0.9875 -2.5817 -1.29 0
M  V30 19 H -2.9762 -1.3605 -0.559 0
M  V30 20 H -2.5809 2.3965 1.4503 0
M  V30 21 H -3.9989 0.5878 0.5414 0
M  V30 END ATOM
M  V30 BEGIN BOND
M  V30 1 2 1 2
M  V30 2 1 2 3
M  V30 3 2 3 4
M  V30 4 1 3 5
M  V30 5 1 4 6
M  V30 6 1 4 7
M  V30 7 1 5 8
M  V30 8 2 5 9
M  V30 9 2 7 10
M  V30 10 2 8 11
M  V30 11 1 9 12
M  V30 12 1 11 13
M  V30 13 1 8 10
M  V30 14 2 12 13
M  V30 15 1 2 14
M  V30 16 1 6 15
M  V30 17 1 7 16
M  V30 18 1 9 17
M  V30 19 1 10 18
M  V30 20 1 11 19
M  V30 21 1 12 20
M  V30 22 1 13 21
M  V30 END BOND
M  V30 END CTAB
M  END
>  <Structure No>
683

>  <LogS>
-3.89356759

>  <MMFF94 Energy>
47.306

$$$$
Compound 684
Actelion Java MolfileCreator 2.0

  0  0  0  0  0  0              0 V3000
M  V30 BEGIN CTAB
M  V30 COUNTS 17 17 0 0 0
M  V30 BEGIN ATOM
M  V30 1 O 2.3722 1.3437 1.8974 0
M  V30 2 N 1.5213 1.6614 1.042 0
M  V30 3 C 0.6474 0.7081 0.4182 0
M  V30 4 C 0.9427 -0.6742 0.3382 0
M  V30 5 C -0.5805 1.1495 -0.1095 0
M  V30 6 N 0.0177 -1.5234 -0.1825 0
M  V30 7 N 2.2105 -1.2103 0.7296 0
M  V30 8 N -1.4577 0.2488 -0.6241 0
M  V30 9 N -0.9401 2.5343 -0.091 0
M  V30 10 C -1.1737 -1.0769 -0.6528 0
M  V30 11 N -2.1186 -1.9979 -1.1926 0
M  V30 12 H 3.0699 -0.6229 0.7824 0
M  V30 13 H 2.3361 -2.2456 0.7843 0
M  V30 14 H -0.3008 3.2655 0.2919 0
M  V30 15 H -1.8625 2.8384 -0.4748 0
M  V30 16 H -1.9033 -3.0191 -1.2232 0
M  V30 17 H -3.035 -1.6597 -1.5618 0
M  V30 END ATOM
M  V30 BEGIN BOND
M  V30 1 2 1 2
M  V30 2 1 2 3
M  V30 3 2 3 4
M  V30 4 1 3 5
M  V30 5 1 4 6
M  V30 6 1 4 7
M  V30 7 2 5 8
M  V30 8 1 5 9
M  V30 9 2 6 10
M  V30 10 1 10 11
M  V30 11 1 8 10
M  V30 12 1 7 12
M  V30 13 1 7 13
M  V30 14 1 9 14
M  V30 15 1 9 15
M  V30 16 1 11 16
M  V30 17 1 11 17
M  V30 END BOND
M  V30 END CTAB
M  END
>  <Structure No>
684

>  <LogS>
-3.845472951

>  <MMFF94 Energy>
-79.951

$$$$
Compound 685
Actelion Java MolfileCreator 2.0

  0  0  0  0  0  0              0 V3000
M  V30 BEGIN CTAB
M  V30 COUNTS 9 8 0 0 0
M  V30 BEGIN ATOM
M  V30 1 Cl 2.9472 0.1682 -0.1682 0
M  V30 2 C 1.2767 -0.3673 -0.2416 0
M  V30 3 C 0.2863 0.4529 0.1242 0
M  V30 4 C -1.1491 0.0249 0.0568 0
M  V30 5 Cl -1.4742 -1.253 1.2555 0
M  V30 6 H 1.0633 -1.3738 -0.5887 0
M  V30 7 H 0.5183 1.4611 0.4552 0
M  V30 8 H -1.3897 -0.3481 -0.9611 0
M  V30 9 H -1.8043 0.8928 0.2797 0
M  V30 END ATOM
M  V30 BEGIN BOND
M  V30 1 1 1 2
M  V30 2 2 2 3
M  V30 3 1 3 4
M  V30 4 1 4 5
M  V30 5 1 2 6
M  V30 6 1 3 7
M  V30 7 1 4 8
M  V30 8 1 4 9
M  V30 END BOND
M  V30 END CTAB
M  END
>  <Structure No>
685

>  <LogS>
-1.706753006

>  <MMFF94 Energy>
-1.9068

$$$$
Compound 686
Actelion Java MolfileCreator 2.0

  0  0  0  0  0  0              0 V3000
M  V30 BEGIN CTAB
M  V30 COUNTS 48 50 0 0 0
M  V30 BEGIN ATOM
M  V30 1 Cl -8.9291 2.3698 0.4082 0
M  V30 2 C -7.5007 1.4373 -0.0311 0
M  V30 3 C -7.0934 1.2824 -1.3755 0
M  V30 4 C -6.7695 0.8332 0.9963 0
M  V30 5 C -5.9406 0.5201 -1.6518 0
M  V30 6 C -7.8812 1.9203 -2.4997 0
M  V30 7 C -5.6297 0.0827 0.7084 0
M  V30 8 C -5.195 -0.0641 -0.6175 0
M  V30 9 F -7.9126 3.2921 -2.3246 0
M  V30 10 F -9.175 1.4315 -2.4956 0
M  V30 11 F -7.3212 1.6543 -3.7376 0
M  V30 12 N -4.0374 -0.853 -0.9426 0
M  V30 13 C -2.8554 -0.9237 -0.1305 0
M  V30 14 O -2.699 -0.1288 0.836 0
M  V30 15 N -1.8537 -1.9079 -0.4285 0
M  V30 16 C -0.5434 -1.9334 0.1632 0
M  V30 17 C 0.0783 -3.1672 0.4036 0
M  V30 18 C 0.1527 -0.7477 0.458 0
M  V30 19 C 1.3606 -3.2189 0.9574 0
M  V30 20 C 1.4357 -0.8008 1.0105 0
M  V30 21 C 2.0537 -2.0402 1.2521 0
M  V30 22 O 3.3325 -2.1344 1.8208 0
M  V30 23 C 4.3691 -1.2051 1.6493 0
M  V30 24 C 4.5216 -0.4703 0.4612 0
M  V30 25 C 5.303 -1.0433 2.6753 0
M  V30 26 C 5.5868 0.438 0.3361 0
M  V30 27 C 6.3493 -0.1338 2.5181 0
M  V30 28 N 6.4652 0.5793 1.3675 0
M  V30 29 C 5.7695 1.2344 -0.8973 0
M  V30 30 O 4.9546 1.1076 -1.8525 0
M  V30 31 N 6.8661 2.1528 -1.0177 0
M  V30 32 C 7.0669 2.9499 -2.2216 0
M  V30 33 H -7.0907 0.9382 2.0251 0
M  V30 34 H -5.6054 0.3822 -2.6718 0
M  V30 35 H -5.106 -0.4026 1.5209 0
M  V30 36 H -4.0135 -1.3324 -1.8709 0
M  V30 37 H -2.13 -2.7054 -1.0449 0
M  V30 38 H -0.4374 -4.0906 0.172 0
M  V30 39 H -0.2828 0.2191 0.2447 0
M  V30 40 H 1.8224 -4.1792 1.1488 0
M  V30 41 H 1.9397 0.1241 1.258 0
M  V30 42 H 3.8316 -0.6195 -0.3591 0
M  V30 43 H 5.2129 -1.6124 3.5917 0
M  V30 44 H 7.0713 0.0046 3.3115 0
M  V30 45 H 7.5453 2.2641 -0.2319 0
M  V30 46 H 7.9673 3.5894 -2.1054 0
M  V30 47 H 6.1842 3.601 -2.3939 0
M  V30 48 H 7.2124 2.2811 -3.096 0
M  V30 END ATOM
M  V30 BEGIN BOND
M  V30 1 1 1 2
M  V30 2 2 2 3
M  V30 3 1 2 4
M  V30 4 1 3 5
M  V30 5 1 3 6
M  V30 6 2 4 7
M  V30 7 2 5 8
M  V30 8 1 6 9
M  V30 9 1 6 10
M  V30 10 1 6 11
M  V30 11 1 8 12
M  V30 12 1 12 13
M  V30 13 2 13 14
M  V30 14 1 13 15
M  V30 15 1 15 16
M  V30 16 2 16 17
M  V30 17 1 16 18
M  V30 18 1 17 19
M  V30 19 2 18 20
M  V30 20 2 19 21
M  V30 21 1 21 22
M  V30 22 1 22 23
M  V30 23 2 23 24
M  V30 24 1 23 25
M  V30 25 1 24 26
M  V30 26 2 25 27
M  V30 27 2 26 28
M  V30 28 1 26 29
M  V30 29 2 29 30
M  V30 30 1 29 31
M  V30 31 1 31 32
M  V30 32 1 7 8
M  V30 33 1 20 21
M  V30 34 1 27 28
M  V30 35 1 4 33
M  V30 36 1 5 34
M  V30 37 1 7 35
M  V30 38 1 12 36
M  V30 39 1 15 37
M  V30 40 1 17 38
M  V30 41 1 18 39
M  V30 42 1 19 40
M  V30 43 1 20 41
M  V30 44 1 24 42
M  V30 45 1 25 43
M  V30 46 1 27 44
M  V30 47 1 31 45
M  V30 48 1 32 46
M  V30 49 1 32 47
M  V30 50 1 32 48
M  V30 END BOND
M  V30 END CTAB
M  END
>  <Structure No>
686

>  <LogS>
-6.667295084

>  <MMFF94 Energy>
-4.8823

$$$$
Compound 687
Actelion Java MolfileCreator 2.0

  0  0  0  0  0  0              0 V3000
M  V30 BEGIN CTAB
M  V30 COUNTS 24 24 0 0 0
M  V30 BEGIN ATOM
M  V30 1 O -2.7484 -0.3922 0.7061 0
M  V30 2 C -1.5873 0.2228 0.211 0
M  V30 3 C -2.9719 -1.7983 0.7263 0
M  V30 4 C -1.4925 1.6264 0.2512 0
M  V30 5 C -0.5173 -0.5235 -0.3224 0
M  V30 6 O -2.5279 2.404 0.77 0
M  V30 7 C -0.3462 2.2651 -0.232 0
M  V30 8 C 0.6286 0.1213 -0.8126 0
M  V30 9 C 0.7096 1.5198 -0.7587 0
M  V30 10 C 1.7732 -0.6898 -1.3607 0
M  V30 11 O 2.4075 -1.4157 -0.3254 0
M  V30 12 C 3.4087 -0.6271 0.2804 0
M  V30 13 H -2.9548 -2.2026 -0.3077 0
M  V30 14 H -2.1987 -2.2991 1.3465 0
M  V30 15 H -3.9682 -2.0005 1.1699 0
M  V30 16 H -0.5651 -1.6037 -0.3598 0
M  V30 17 H -3.3802 1.9953 1.1339 0
M  V30 18 H -0.2736 3.3449 -0.197 0
M  V30 19 H 1.591 2.0337 -1.1219 0
M  V30 20 H 1.3626 -1.4208 -2.0892 0
M  V30 21 H 2.4827 -0.0573 -1.9454 0
M  V30 22 H 2.9902 0.3171 0.6934 0
M  V30 23 H 3.8443 -1.1977 1.1259 0
M  V30 24 H 4.2308 -0.4078 -0.4361 0
M  V30 END ATOM
M  V30 BEGIN BOND
M  V30 1 1 1 2
M  V30 2 1 1 3
M  V30 3 2 2 4
M  V30 4 1 2 5
M  V30 5 1 4 6
M  V30 6 1 4 7
M  V30 7 2 5 8
M  V30 8 2 7 9
M  V30 9 1 8 10
M  V30 10 1 10 11
M  V30 11 1 11 12
M  V30 12 1 8 9
M  V30 13 1 3 13
M  V30 14 1 3 14
M  V30 15 1 3 15
M  V30 16 1 5 16
M  V30 17 1 6 17
M  V30 18 1 7 18
M  V30 19 1 9 19
M  V30 20 1 10 20
M  V30 21 1 10 21
M  V30 22 1 12 22
M  V30 23 1 12 23
M  V30 24 1 12 24
M  V30 END BOND
M  V30 END CTAB
M  END
>  <Structure No>
687

>  <LogS>
-1.893447681

>  <MMFF94 Energy>
29.588

$$$$
Compound 688
Actelion Java MolfileCreator 2.0

  0  0  0  0  0  0              0 V3000
M  V30 BEGIN CTAB
M  V30 COUNTS 37 37 0 0 0
M  V30 BEGIN ATOM
M  V30 1 O -2.5275 1.5791 1.5791 0
M  V30 2 C -1.6812 1.8006 0.671 0
M  V30 3 O -1.1596 0.7537 -0.0953 0
M  V30 4 C -1.1774 3.1861 0.4518 0
M  V30 5 C -1.5461 -0.612 0.0583 0 CFG=2
M  V30 6 C -0.4856 -1.5314 -0.599 0 CFG=2
M  V30 7 C -2.9205 -0.8154 -0.6 0
M  V30 8 C -1.0455 -2.9674 -0.7172 0
M  V30 9 C 0.8506 -1.5826 0.1912 0
M  V30 10 C -3.2586 -2.3032 -0.6942 0
M  V30 11 O -2.2664 -2.9883 -1.4303 0
M  V30 12 C 1.5971 -0.2465 0.3668 0
M  V30 13 C 1.9913 0.4106 -0.9673 0
M  V30 14 C 2.7335 1.7414 -0.7687 0
M  V30 15 C 4.1551 1.5557 -0.2388 0
M  V30 16 H -0.7789 3.2847 -0.5797 0
M  V30 17 H -0.365 3.4019 1.1764 0
M  V30 18 H -2.0003 3.9185 0.5914 0
M  V30 19 H -1.6174 -0.866 1.1408 0
M  V30 20 H -0.2896 -1.1738 -1.633 0
M  V30 21 H -2.9118 -0.3805 -1.6238 0
M  V30 22 H -3.7057 -0.2972 -0.0087 0
M  V30 23 H -1.1643 -3.4358 0.2876 0
M  V30 24 H -0.3164 -3.5929 -1.2754 0
M  V30 25 H 0.6547 -1.9974 1.2047 0
M  V30 26 H 1.5402 -2.292 -0.3178 0
M  V30 27 H -3.3927 -2.7444 0.3203 0
M  V30 28 H -4.2275 -2.4128 -1.2256 0
M  V30 29 H 1.0015 0.4526 0.9885 0
M  V30 30 H 2.5198 -0.4667 0.9438 0
M  V30 31 H 2.6172 -0.2877 -1.5645 0
M  V30 32 H 1.0773 0.6325 -1.5554 0
M  V30 33 H 2.7952 2.2582 -1.7511 0
M  V30 34 H 2.1606 2.4001 -0.0797 0
M  V30 35 H 4.7222 0.8514 -0.8839 0
M  V30 36 H 4.6792 2.5347 -0.2402 0
M  V30 37 H 4.1416 1.1753 0.8031 0
M  V30 END ATOM
M  V30 BEGIN BOND
M  V30 1 2 1 2
M  V30 2 1 2 3
M  V30 3 1 2 4
M  V30 4 1 3 5
M  V30 5 1 5 6
M  V30 6 1 5 7
M  V30 7 1 6 8
M  V30 8 1 6 9
M  V30 9 1 7 10
M  V30 10 1 8 11
M  V30 11 1 9 12
M  V30 12 1 12 13
M  V30 13 1 13 14
M  V30 14 1 14 15
M  V30 15 1 10 11
M  V30 16 1 4 16
M  V30 17 1 4 17
M  V30 18 1 4 18
M  V30 19 1 5 19
M  V30 20 1 6 20
M  V30 21 1 7 21
M  V30 22 1 7 22
M  V30 23 1 8 23
M  V30 24 1 8 24
M  V30 25 1 9 25
M  V30 26 1 9 26
M  V30 27 1 10 27
M  V30 28 1 10 28
M  V30 29 1 12 29
M  V30 30 1 12 30
M  V30 31 1 13 31
M  V30 32 1 13 32
M  V30 33 1 14 33
M  V30 34 1 14 34
M  V30 35 1 15 35
M  V30 36 1 15 36
M  V30 37 1 15 37
M  V30 END BOND
M  V30 BEGIN COLLECTION
M  V30 MDLV30/STEABS ATOMS=(2 5 6)
M  V30 END COLLECTION
M  V30 END CTAB
M  END
>  <Structure No>
688

>  <LogS>
-2.998795888

>  <MMFF94 Energy>
-3.9197

$$$$
Compound 689
Actelion Java MolfileCreator 2.0

  0  0  0  0  0  0              0 V3000
M  V30 BEGIN CTAB
M  V30 COUNTS 28 29 0 0 0
M  V30 BEGIN ATOM
M  V30 1 N -0.316 0.5531 0.237 0
M  V30 2 N -0.5345 -0.6201 0.6771 0
M  V30 3 C 0.661 0.8326 -0.7753 0
M  V30 4 C -1.5149 -0.886 1.6868 0
M  V30 5 C 1.0501 -0.1104 -1.7625 0
M  V30 6 C 1.2699 2.0942 -0.7563 0
M  V30 7 C -1.7058 -2.206 2.1157 0
M  V30 8 C -2.2889 0.1433 2.2554 0
M  V30 9 N 0.3702 -1.3612 -1.9304 0
M  V30 10 C 2.0895 0.2133 -2.6498 0
M  V30 11 C 2.288 2.4098 -1.6571 0
M  V30 12 C -2.6559 -2.4986 3.0993 0
M  V30 13 C -3.2381 -0.1531 3.239 0
M  V30 14 C 2.711 1.4673 -2.5997 0
M  V30 15 C -3.4215 -1.4729 3.6606 0
M  V30 16 N 3.7604 1.7881 -3.5167 0
M  V30 17 H 0.9705 2.8279 -0.0179 0
M  V30 18 H -1.1173 -3.007 1.6858 0
M  V30 19 H -2.1608 1.1713 1.9415 0
M  V30 20 H 0.7692 -2.0981 -2.5538 0
M  V30 21 H -0.6034 -1.5089 -1.5881 0
M  V30 22 H 2.397 -0.504 -3.401 0
M  V30 23 H 2.7538 3.3863 -1.6138 0
M  V30 24 H -2.7986 -3.5205 3.4262 0
M  V30 25 H -3.8317 0.6403 3.6743 0
M  V30 26 H -4.1565 -1.7006 4.4218 0
M  V30 27 H 4.0805 1.0932 -4.2276 0
M  V30 28 H 4.226 2.7227 -3.4908 0
M  V30 END ATOM
M  V30 BEGIN BOND
M  V30 1 2 1 2
M  V30 2 1 1 3
M  V30 3 1 2 4
M  V30 4 2 3 5
M  V30 5 1 3 6
M  V30 6 2 4 7
M  V30 7 1 4 8
M  V30 8 1 5 9
M  V30 9 1 5 10
M  V30 10 2 6 11
M  V30 11 1 7 12
M  V30 12 2 8 13
M  V30 13 2 10 14
M  V30 14 2 12 15
M  V30 15 1 14 16
M  V30 16 1 11 14
M  V30 17 1 13 15
M  V30 18 1 6 17
M  V30 19 1 7 18
M  V30 20 1 8 19
M  V30 21 1 9 20
M  V30 22 1 9 21
M  V30 23 1 10 22
M  V30 24 1 11 23
M  V30 25 1 12 24
M  V30 26 1 13 25
M  V30 27 1 15 26
M  V30 28 1 16 27
M  V30 29 1 16 28
M  V30 END BOND
M  V30 END CTAB
M  END
>  <Structure No>
689

>  <LogS>
-2.997665561

>  <MMFF94 Energy>
51.694

$$$$
Compound 690
Actelion Java MolfileCreator 2.0

  0  0  0  0  0  0              0 V3000
M  V30 BEGIN CTAB
M  V30 COUNTS 29 29 0 0 0
M  V30 BEGIN ATOM
M  V30 1 O 3.4597 -0.157 -0.3926 0
M  V30 2 C 2.2039 -0.5762 0.0744 0
M  V30 3 C 3.6822 1.0039 -1.1868 0
M  V30 4 C 1.0176 0.1283 -0.2046 0
M  V30 5 C 2.1454 -1.7357 0.8426 0
M  V30 6 C -0.2419 -0.3151 0.279 0
M  V30 7 C 0.9279 -2.1961 1.331 0
M  V30 8 C -0.2603 -1.5048 1.0608 0
M  V30 9 C -1.5505 0.4633 -0.0297 0
M  V30 10 O -1.4525 -2.0116 1.5757 0
M  V30 11 C -2.2092 0.9358 1.2868 0
M  V30 12 C -2.5315 -0.439 -0.813 0
M  V30 13 C -1.3158 1.7291 -0.8944 0
M  V30 14 H 3.3609 1.9122 -0.6345 0
M  V30 15 H 3.1289 0.9223 -2.1463 0
M  V30 16 H 4.7657 1.0887 -1.4086 0
M  V30 17 H 1.0966 1.0205 -0.8008 0
M  V30 18 H 3.0521 -2.285 1.0632 0
M  V30 19 H 0.9072 -3.1004 1.9263 0
M  V30 20 H -1.4797 -2.8572 2.1335 0
M  V30 21 H -2.5692 0.0915 1.9061 0
M  V30 22 H -3.0931 1.5772 1.0779 0
M  V30 23 H -1.4855 1.5269 1.8888 0
M  V30 24 H -2.894 -1.2933 -0.2091 0
M  V30 25 H -2.0403 -0.8397 -1.726 0
M  V30 26 H -3.4313 0.1345 -1.1255 0
M  V30 27 H -2.2738 2.2577 -1.0933 0
M  V30 28 H -0.6473 2.4487 -0.3735 0
M  V30 29 H -0.8786 1.4618 -1.8808 0
M  V30 END ATOM
M  V30 BEGIN BOND
M  V30 1 1 1 2
M  V30 2 1 1 3
M  V30 3 2 2 4
M  V30 4 1 2 5
M  V30 5 1 4 6
M  V30 6 2 5 7
M  V30 7 2 6 8
M  V30 8 1 6 9
M  V30 9 1 8 10
M  V30 10 1 9 11
M  V30 11 1 9 12
M  V30 12 1 9 13
M  V30 13 1 7 8
M  V30 14 1 3 14
M  V30 15 1 3 15
M  V30 16 1 3 16
M  V30 17 1 4 17
M  V30 18 1 5 18
M  V30 19 1 7 19
M  V30 20 1 10 20
M  V30 21 1 11 21
M  V30 22 1 11 22
M  V30 23 1 11 23
M  V30 24 1 12 24
M  V30 25 1 12 25
M  V30 26 1 12 26
M  V30 27 1 13 27
M  V30 28 1 13 28
M  V30 29 1 13 29
M  V30 END BOND
M  V30 END CTAB
M  END
>  <Structure No>
690

>  <LogS>
-2.927488442

>  <MMFF94 Energy>
32.257

$$$$
Compound 691
Actelion Java MolfileCreator 2.0

  0  0  0  0  0  0              0 V3000
M  V30 BEGIN CTAB
M  V30 COUNTS 31 32 0 0 0
M  V30 BEGIN ATOM
M  V30 1 O -3.6408 0.5533 -0.8697 0
M  V30 2 C -3.006 1.3316 0.1273 0
M  V30 3 C -3.3135 -0.8124 -0.6944 0
M  V30 4 C -1.4833 1.212 0.0115 0
M  V30 5 C -1.8003 -1.0359 -0.8206 0
M  V30 6 N -1.0947 -0.2042 0.172 0
M  V30 7 C 0.3718 -0.4583 0.1831 0
M  V30 8 C 1.1637 0.3099 -0.8984 0
M  V30 9 C 0.9602 -0.1844 1.5864 0
M  V30 10 C 2.6517 -0.1066 -0.8937 0
M  V30 11 C 2.4735 0.1108 1.5421 0
M  V30 12 N 3.1239 -0.5869 0.4231 0 CHG=1
M  V30 13 H -3.3458 1.0316 1.1448 0
M  V30 14 H -3.2936 2.3943 -0.0178 0
M  V30 15 H -3.6804 -1.1838 0.2894 0
M  V30 16 H -3.828 -1.4022 -1.4819 0
M  V30 17 H -1.0153 1.8406 0.7973 0
M  V30 18 H -1.1818 1.6 -0.9865 0
M  V30 19 H -1.4735 -0.7823 -1.8534 0
M  V30 20 H -1.5934 -2.1127 -0.636 0
M  V30 21 H 0.5464 -1.5425 -0.0109 0
M  V30 22 H 1.1128 1.4022 -0.6978 0
M  V30 23 H 0.7332 0.1232 -1.905 0
M  V30 24 H 0.4527 0.672 2.0764 0
M  V30 25 H 0.7794 -1.0752 2.2273 0
M  V30 26 H 3.2673 0.7608 -1.2218 0
M  V30 27 H 2.8026 -0.9115 -1.6471 0
M  V30 28 H 2.9363 -0.2068 2.5025 0
M  V30 29 H 2.638 1.208 1.4446 0
M  V30 30 H 4.1574 -0.4339 0.4872 0
M  V30 31 H 2.9505 -1.6163 0.5086 0
M  V30 END ATOM
M  V30 BEGIN BOND
M  V30 1 1 1 2
M  V30 2 1 1 3
M  V30 3 1 2 4
M  V30 4 1 3 5
M  V30 5 1 4 6
M  V30 6 1 6 7
M  V30 7 1 7 8
M  V30 8 1 7 9
M  V30 9 1 8 10
M  V30 10 1 9 11
M  V30 11 1 10 12
M  V30 12 1 5 6
M  V30 13 1 11 12
M  V30 14 1 2 13
M  V30 15 1 2 14
M  V30 16 1 3 15
M  V30 17 1 3 16
M  V30 18 1 4 17
M  V30 19 1 4 18
M  V30 20 1 5 19
M  V30 21 1 5 20
M  V30 22 1 7 21
M  V30 23 1 8 22
M  V30 24 1 8 23
M  V30 25 1 9 24
M  V30 26 1 9 25
M  V30 27 1 10 26
M  V30 28 1 10 27
M  V30 29 1 11 28
M  V30 30 1 11 29
M  V30 31 1 12 30
M  V30 32 1 12 31
M  V30 END BOND
M  V30 END CTAB
M  END
>  <Structure No>
691

>  <LogS>
-2.902722822

>  <MMFF94 Energy>
58.999

$$$$
Compound 692
Actelion Java MolfileCreator 2.0

  0  0  0  0  0  0              0 V3000
M  V30 BEGIN CTAB
M  V30 COUNTS 17 17 0 0 0
M  V30 BEGIN ATOM
M  V30 1 O 2.2952 -2.5413 0.6553 0
M  V30 2 N 2.392 -1.3333 0.3543 0 CHG=1
M  V30 3 O 3.6502 -0.792 0.2269 0 CHG=-1
M  V30 4 C 1.2067 -0.5322 0.1546 0
M  V30 5 C 1.2897 0.8275 -0.2228 0
M  V30 6 C -0.0667 -1.1074 0.3367 0
M  V30 7 O 2.5212 1.4433 -0.419 0 CHG=-1
M  V30 8 C 0.1244 1.5821 -0.4086 0
M  V30 9 C -1.2355 -0.3514 0.1502 0
M  V30 10 O 0.2235 2.9219 -0.7804 0
M  V30 11 C -1.1311 0.9937 -0.2223 0
M  V30 12 C -2.5701 -0.9502 0.3405 0
M  V30 13 O -2.7007 -2.1575 0.6757 0
M  V30 14 H -0.1488 -2.1475 0.626 0
M  V30 15 H -0.5994 3.4958 -0.9231 0
M  V30 16 H -2.0252 1.5878 -0.3692 0
M  V30 17 H -3.4588 -0.35 0.1919 0
M  V30 END ATOM
M  V30 BEGIN BOND
M  V30 1 2 1 2
M  V30 2 1 2 3
M  V30 3 1 2 4
M  V30 4 2 4 5
M  V30 5 1 4 6
M  V30 6 1 5 7
M  V30 7 1 5 8
M  V30 8 2 6 9
M  V30 9 1 8 10
M  V30 10 2 8 11
M  V30 11 1 9 12
M  V30 12 2 12 13
M  V30 13 1 9 11
M  V30 14 1 6 14
M  V30 15 1 10 15
M  V30 16 1 11 16
M  V30 17 1 12 17
M  V30 END BOND
M  V30 END CTAB
M  END
>  <Structure No>
692

>  <LogS>
-1.937833911

>  <MMFF94 Energy>
40.556

$$$$
Compound 693
Actelion Java MolfileCreator 2.0

  0  0  0  0  0  0              0 V3000
M  V30 BEGIN CTAB
M  V30 COUNTS 30 30 0 0 0
M  V30 BEGIN ATOM
M  V30 1 O 1.7339 -0.709 0.7878 0
M  V30 2 C 1.1577 -0.6561 -0.3345 0
M  V30 3 O 1.8609 -0.2196 -1.4654 0
M  V30 4 C -0.2988 -1.0717 -0.4457 0
M  V30 5 C 3.19 0.2936 -1.4136 0
M  V30 6 C -1.1487 -0.2062 0.5001 0
M  V30 7 C -0.3678 -2.5815 -0.1194 0
M  V30 8 C -0.8149 -0.8652 -1.8853 0
M  V30 9 C 3.1951 1.7087 -0.8465 0
M  V30 10 C -2.1682 -0.7471 1.3184 0
M  V30 11 C -0.9712 1.1963 0.5047 0
M  V30 12 C -2.9436 0.0814 2.1355 0
M  V30 13 C -1.7505 2.0171 1.324 0
M  V30 14 C -2.7329 1.46 2.1415 0
M  V30 15 H 3.5986 0.3213 -2.4455 0
M  V30 16 H 3.839 -0.3704 -0.8025 0
M  V30 17 H 0.3514 -3.1491 -0.7498 0
M  V30 18 H -1.3792 -2.9928 -0.3257 0
M  V30 19 H -0.112 -2.7674 0.9463 0
M  V30 20 H -0.7211 0.1986 -2.193 0
M  V30 21 H -0.2393 -1.4873 -2.6047 0
M  V30 22 H -1.8866 -1.1519 -1.958 0
M  V30 23 H 2.539 2.3638 -1.4577 0
M  V30 24 H 2.8311 1.7072 0.2021 0
M  V30 25 H 4.2283 2.1148 -0.8649 0
M  V30 26 H -2.3795 -1.8056 1.3386 0
M  V30 27 H -0.2266 1.6592 -0.1308 0
M  V30 28 H -3.7146 -0.3478 2.7625 0
M  V30 29 H -1.5951 3.0883 1.3203 0
M  V30 30 H -3.3369 2.0977 2.7742 0
M  V30 END ATOM
M  V30 BEGIN BOND
M  V30 1 2 1 2
M  V30 2 1 2 3
M  V30 3 1 2 4
M  V30 4 1 3 5
M  V30 5 1 4 6
M  V30 6 1 4 7
M  V30 7 1 4 8
M  V30 8 1 5 9
M  V30 9 2 6 10
M  V30 10 1 6 11
M  V30 11 1 10 12
M  V30 12 2 11 13
M  V30 13 2 12 14
M  V30 14 1 13 14
M  V30 15 1 5 15
M  V30 16 1 5 16
M  V30 17 1 7 17
M  V30 18 1 7 18
M  V30 19 1 7 19
M  V30 20 1 8 20
M  V30 21 1 8 21
M  V30 22 1 8 22
M  V30 23 1 9 23
M  V30 24 1 9 24
M  V30 25 1 9 25
M  V30 26 1 10 26
M  V30 27 1 11 27
M  V30 28 1 12 28
M  V30 29 1 13 29
M  V30 30 1 14 30
M  V30 END BOND
M  V30 END CTAB
M  END
>  <Structure No>
693

>  <LogS>
-3.045838317

>  <MMFF94 Energy>
41.431

$$$$
Compound 694
Actelion Java MolfileCreator 2.0

  0  0  0  0  0  0              0 V3000
M  V30 BEGIN CTAB
M  V30 COUNTS 19 19 0 0 0
M  V30 BEGIN ATOM
M  V30 1 O 1.189 3.0936 -0.5547 0
M  V30 2 N 1.5549 2.0899 0.0913 0 CHG=1
M  V30 3 O 2.5636 2.2283 1.0167 0 CHG=-1
M  V30 4 C 0.7814 0.8801 0.0428 0
M  V30 5 C 1.3951 -0.3917 0.1365 0
M  V30 6 C -0.6181 0.9609 -0.0709 0
M  V30 7 N 2.8209 -0.5378 0.149 0
M  V30 8 C 0.5956 -1.5442 0.1558 0
M  V30 9 C -1.4093 -0.1962 -0.0458 0
M  V30 10 C -0.7935 -1.4489 0.0603 0
M  V30 11 C -2.8989 -0.0966 -0.195 0
M  V30 12 H -1.0949 1.9304 -0.1537 0
M  V30 13 H 3.2554 -1.4744 0.3074 0
M  V30 14 H 3.4574 0.2469 -0.1088 0
M  V30 15 H 1.0533 -2.5234 0.2213 0
M  V30 16 H -1.3883 -2.3542 0.0608 0
M  V30 17 H -3.4029 -0.9452 0.315 0
M  V30 18 H -3.2755 0.8462 0.2559 0
M  V30 19 H -3.1636 -0.1134 -1.2728 0
M  V30 END ATOM
M  V30 BEGIN BOND
M  V30 1 2 1 2
M  V30 2 1 2 3
M  V30 3 1 2 4
M  V30 4 2 4 5
M  V30 5 1 4 6
M  V30 6 1 5 7
M  V30 7 1 5 8
M  V30 8 2 6 9
M  V30 9 2 8 10
M  V30 10 1 9 11
M  V30 11 1 9 10
M  V30 12 1 6 12
M  V30 13 1 7 13
M  V30 14 1 7 14
M  V30 15 1 8 15
M  V30 16 1 10 16
M  V30 17 1 11 17
M  V30 18 1 11 18
M  V30 19 1 11 19
M  V30 END BOND
M  V30 END CTAB
M  END
>  <Structure No>
694

>  <LogS>
-1.860061225

>  <MMFF94 Energy>
67.563

$$$$
Compound 695
Actelion Java MolfileCreator 2.0

  0  0  0  0  0  0              0 V3000
M  V30 BEGIN CTAB
M  V30 COUNTS 3 2 0 0 0
M  V30 BEGIN ATOM
M  V30 1 S 0 0 0 0
M  V30 2 C 0 0 0 0
M  V30 3 S 0 0 0 0
M  V30 END ATOM
M  V30 BEGIN BOND
M  V30 1 2 1 2
M  V30 2 2 2 3
M  V30 END BOND
M  V30 END CTAB
M  END
>  <Structure No>
695

>  <LogS>
-1.559422096

>  <MMFF94 Energy>
MMFF94 error code 2

$$$$
Compound 696
Actelion Java MolfileCreator 2.0

  0  0  0  0  0  0              0 V3000
M  V30 BEGIN CTAB
M  V30 COUNTS 18 18 0 0 0
M  V30 BEGIN ATOM
M  V30 1 O 1.3413 1.8151 0.631 0
M  V30 2 C 1.1045 0.6832 0.1248 0
M  V30 3 O 2.163 -0.1346 -0.2855 0
M  V30 4 C -0.2911 0.2188 -0.0358 0
M  V30 5 C 3.5261 0.252 -0.1591 0
M  V30 6 C -1.3695 1.0275 0.3711 0
M  V30 7 C -0.5598 -1.0419 -0.5996 0
M  V30 8 C -2.686 0.5818 0.2161 0
M  V30 9 C -1.8783 -1.4824 -0.7521 0
M  V30 10 C -2.9403 -0.6716 -0.3448 0
M  V30 11 H 3.7145 1.1774 -0.7435 0
M  V30 12 H 3.7744 0.4254 0.9094 0
M  V30 13 H 4.1729 -0.5591 -0.5514 0
M  V30 14 H -1.1967 2.0029 0.8086 0
M  V30 15 H 0.2465 -1.6881 -0.9227 0
M  V30 16 H -3.5097 1.2093 0.5315 0
M  V30 17 H -2.0768 -2.4537 -1.1867 0
M  V30 18 H -3.96 -1.0146 -0.4638 0
M  V30 END ATOM
M  V30 BEGIN BOND
M  V30 1 2 1 2
M  V30 2 1 2 3
M  V30 3 1 2 4
M  V30 4 1 3 5
M  V30 5 2 4 6
M  V30 6 1 4 7
M  V30 7 1 6 8
M  V30 8 2 7 9
M  V30 9 2 8 10
M  V30 10 1 9 10
M  V30 11 1 5 11
M  V30 12 1 5 12
M  V30 13 1 5 13
M  V30 14 1 6 14
M  V30 15 1 7 15
M  V30 16 1 8 16
M  V30 17 1 9 17
M  V30 18 1 10 18
M  V30 END BOND
M  V30 END CTAB
M  END
>  <Structure No>
696

>  <LogS>
-1.811798351

>  <MMFF94 Energy>
30.034

$$$$
Compound 697
Actelion Java MolfileCreator 2.0

  0  0  0  0  0  0              0 V3000
M  V30 BEGIN CTAB
M  V30 COUNTS 34 33 0 0 0
M  V30 BEGIN ATOM
M  V30 1 O -2.3245 0.542 1.4717 0
M  V30 2 C -2.4259 0.8808 0.1013 0
M  V30 3 C -3.1528 -0.5633 1.7591 0
M  V30 4 O -3.6273 1.6106 -0.0999 0
M  V30 5 C -1.2369 1.7849 -0.2693 0
M  V30 6 C -4.2256 1.2618 -1.3293 0
M  V30 7 C 0.1364 1.144 3.0E-4 0
M  V30 8 C 0.4241 -0.0561 -0.9189 0
M  V30 9 C 1.8914 -0.5086 -0.8546 0
M  V30 10 C 2.2595 -1.1213 0.5081 0
M  V30 11 C 3.639 -1.7976 0.4959 0
M  V30 12 C 4.7863 -0.7953 0.372 0
M  V30 13 H -2.3596 -0.0392 -0.5345 0
M  V30 14 H -3.1154 -0.7583 2.8505 0
M  V30 15 H -2.7878 -1.4781 1.242 0
M  V30 16 H -4.2135 -0.3616 1.4898 0
M  V30 17 H -1.3058 2.7224 0.3254 0
M  V30 18 H -1.3043 2.0718 -1.3411 0
M  V30 19 H -3.53 1.4282 -2.1814 0
M  V30 20 H -4.5731 0.2053 -1.3117 0
M  V30 21 H -5.1139 1.9073 -1.4871 0
M  V30 22 H 0.2006 0.8337 1.0649 0
M  V30 23 H 0.9119 1.9229 -0.168 0
M  V30 24 H -0.2323 -0.9112 -0.6503 0
M  V30 25 H 0.1986 0.2282 -1.97 0
M  V30 26 H 2.0497 -1.2699 -1.6494 0
M  V30 27 H 2.5526 0.356 -1.0777 0
M  V30 28 H 2.2414 -0.3395 1.2976 0
M  V30 29 H 1.5033 -1.8914 0.7759 0
M  V30 30 H 3.7649 -2.3554 1.4491 0
M  V30 31 H 3.697 -2.5348 -0.3341 0
M  V30 32 H 4.7733 -0.3045 -0.6231 0
M  V30 33 H 4.7154 -0.0227 1.1672 0
M  V30 34 H 5.7544 -1.3276 0.4823 0
M  V30 END ATOM
M  V30 BEGIN BOND
M  V30 1 1 1 2
M  V30 2 1 1 3
M  V30 3 1 2 4
M  V30 4 1 2 5
M  V30 5 1 4 6
M  V30 6 1 5 7
M  V30 7 1 7 8
M  V30 8 1 8 9
M  V30 9 1 9 10
M  V30 10 1 10 11
M  V30 11 1 11 12
M  V30 12 1 2 13
M  V30 13 1 3 14
M  V30 14 1 3 15
M  V30 15 1 3 16
M  V30 16 1 5 17
M  V30 17 1 5 18
M  V30 18 1 6 19
M  V30 19 1 6 20
M  V30 20 1 6 21
M  V30 21 1 7 22
M  V30 22 1 7 23
M  V30 23 1 8 24
M  V30 24 1 8 25
M  V30 25 1 9 26
M  V30 26 1 9 27
M  V30 27 1 10 28
M  V30 28 1 10 29
M  V30 29 1 11 30
M  V30 30 1 11 31
M  V30 31 1 12 32
M  V30 32 1 12 33
M  V30 33 1 12 34
M  V30 END BOND
M  V30 END CTAB
M  END
>  <Structure No>
697

>  <LogS>
-2.918005419

>  <MMFF94 Energy>
0.36327

$$$$
Compound 698
Actelion Java MolfileCreator 2.0

  0  0  0  0  0  0              0 V3000
M  V30 BEGIN CTAB
M  V30 COUNTS 34 34 0 0 0
M  V30 BEGIN ATOM
M  V30 1 N 2.5521 -0.0772 0.2318 0 CHG=1
M  V30 2 C 1.772 -1.1255 -0.4607 0
M  V30 3 C 1.7167 1.0252 0.7552 0
M  V30 4 C 1.0388 -2.0726 0.5248 0
M  V30 5 C 1.2678 2.012 -0.3541 0
M  V30 6 N -0.1016 -2.805 -0.0672 0
M  V30 7 N 0.0805 2.8226 -0.0057 0
M  V30 8 C -1.183 -1.9836 -0.6521 0
M  V30 9 C -1.1505 2.0787 0.337 0
M  V30 10 C -1.8552 -1.0205 0.3586 0
M  V30 11 C -1.6611 1.1552 -0.7976 0
M  V30 12 N -2.5658 0.0945 -0.304 0 CHG=1
M  V30 13 H 3.2599 0.3148 -0.4327 0
M  V30 14 H 3.0795 -0.5105 1.0258 0
M  V30 15 H 2.465 -1.7457 -1.0717 0
M  V30 16 H 1.0859 -0.6624 -1.1843 0
M  V30 17 H 2.3077 1.6024 1.5008 0
M  V30 18 H 0.8666 0.6138 1.3179 0
M  V30 19 H 1.7806 -2.8231 0.875 0
M  V30 20 H 0.7281 -1.5674 1.4561 0
M  V30 21 H 2.1142 2.7093 -0.5378 0
M  V30 22 H 1.1238 1.522 -1.3329 0
M  V30 23 H 0.2716 -3.4261 -0.8229 0
M  V30 24 H 0.3296 3.4228 0.8152 0
M  V30 25 H -0.8394 -1.4739 -1.5706 0
M  V30 26 H -1.9743 -2.6758 -1.014 0
M  V30 27 H -1.0389 1.5538 1.3032 0
M  V30 28 H -1.952 2.8243 0.5321 0
M  V30 29 H -2.5868 -1.6116 0.9533 0
M  V30 30 H -1.1416 -0.6224 1.0943 0
M  V30 31 H -2.213 1.7895 -1.5266 0
M  V30 32 H -0.8386 0.7058 -1.3722 0
M  V30 33 H -3.2477 0.5125 0.3717 0
M  V30 34 H -3.1192 -0.282 -1.1092 0
M  V30 END ATOM
M  V30 BEGIN BOND
M  V30 1 1 1 2
M  V30 2 1 1 3
M  V30 3 1 2 4
M  V30 4 1 3 5
M  V30 5 1 4 6
M  V30 6 1 5 7
M  V30 7 1 6 8
M  V30 8 1 7 9
M  V30 9 1 8 10
M  V30 10 1 9 11
M  V30 11 1 10 12
M  V30 12 1 11 12
M  V30 13 1 1 13
M  V30 14 1 1 14
M  V30 15 1 2 15
M  V30 16 1 2 16
M  V30 17 1 3 17
M  V30 18 1 3 18
M  V30 19 1 4 19
M  V30 20 1 4 20
M  V30 21 1 5 21
M  V30 22 1 5 22
M  V30 23 1 6 23
M  V30 24 1 7 24
M  V30 25 1 8 25
M  V30 26 1 8 26
M  V30 27 1 9 27
M  V30 28 1 9 28
M  V30 29 1 10 29
M  V30 30 1 10 30
M  V30 31 1 11 31
M  V30 32 1 11 32
M  V30 33 1 12 33
M  V30 34 1 12 34
M  V30 END BOND
M  V30 END CTAB
M  END
>  <Structure No>
698

>  <LogS>
-0.031020416

>  <MMFF94 Energy>
170.58

$$$$
Compound 699
Actelion Java MolfileCreator 2.0

  0  0  0  0  0  0              0 V3000
M  V30 BEGIN CTAB
M  V30 COUNTS 32 31 0 0 0
M  V30 BEGIN ATOM
M  V30 1 O 4.1143 2.7932 0.4651 0
M  V30 2 C 4.6792 1.7213 0.6137 0
M  V30 3 C 4.1974 0.5006 -0.1111 0
M  V30 4 C 2.8001 0.0929 0.3688 0
M  V30 5 C 2.3134 -1.1658 -0.3647 0
M  V30 6 C 0.9754 -1.6902 0.1805 0
M  V30 7 C -0.2105 -0.7867 -0.1898 0
M  V30 8 C -1.5382 -1.4099 0.2669 0
M  V30 9 C -2.7605 -0.5946 -0.1843 0
M  V30 10 C -2.898 0.7348 0.5734 0
M  V30 11 C -4.1918 1.422 0.2329 0
M  V30 12 C -4.4022 1.9699 -0.9676 0
M  V30 13 H 5.5449 1.6582 1.265 0
M  V30 14 H 4.9122 -0.3299 0.0751 0
M  V30 15 H 4.1799 0.7099 -1.2028 0
M  V30 16 H 2.8324 -0.1043 1.4633 0
M  V30 17 H 2.0961 0.9312 0.1791 0
M  V30 18 H 3.0718 -1.9695 -0.2388 0
M  V30 19 H 2.2215 -0.9579 -1.4534 0
M  V30 20 H 0.8047 -2.7012 -0.2503 0
M  V30 21 H 1.036 -1.8017 1.2854 0
M  V30 22 H -0.0841 0.1999 0.3002 0
M  V30 23 H -0.2321 -0.6392 -1.2918 0
M  V30 24 H -1.5449 -1.5183 1.3738 0
M  V30 25 H -1.6267 -2.4282 -0.1711 0
M  V30 26 H -2.7013 -0.407 -1.2788 0
M  V30 27 H -3.6699 -1.2075 0.0027 0
M  V30 28 H -2.8818 0.5383 1.6673 0
M  V30 29 H -2.0534 1.414 0.3311 0
M  V30 30 H -4.9636 1.5008 0.993 0
M  V30 31 H -3.6431 1.9267 -1.7426 0
M  V30 32 H -5.3412 2.4713 -1.1785 0
M  V30 END ATOM
M  V30 BEGIN BOND
M  V30 1 2 1 2
M  V30 2 1 2 3
M  V30 3 1 3 4
M  V30 4 1 4 5
M  V30 5 1 5 6
M  V30 6 1 6 7
M  V30 7 1 7 8
M  V30 8 1 8 9
M  V30 9 1 9 10
M  V30 10 1 10 11
M  V30 11 2 11 12
M  V30 12 1 2 13
M  V30 13 1 3 14
M  V30 14 1 3 15
M  V30 15 1 4 16
M  V30 16 1 4 17
M  V30 17 1 5 18
M  V30 18 1 5 19
M  V30 19 1 6 20
M  V30 20 1 6 21
M  V30 21 1 7 22
M  V30 22 1 7 23
M  V30 23 1 8 24
M  V30 24 1 8 25
M  V30 25 1 9 26
M  V30 26 1 9 27
M  V30 27 1 10 28
M  V30 28 1 10 29
M  V30 29 1 11 30
M  V30 30 1 12 31
M  V30 31 1 12 32
M  V30 END BOND
M  V30 END CTAB
M  END
>  <Structure No>
699

>  <LogS>
-3.8931862

>  <MMFF94 Energy>
8.5607

$$$$
Compound 700
Actelion Java MolfileCreator 2.0

  0  0  0  0  0  0              0 V3000
M  V30 BEGIN CTAB
M  V30 COUNTS 94 95 0 0 0
M  V30 BEGIN ATOM
M  V30 1 O -4.8308 2.3735 3.0072 0
M  V30 2 C -3.9799 1.6115 2.4736 0
M  V30 3 O -4.2653 0.9347 1.2826 0
M  V30 4 C -2.6222 1.4597 3.0843 0
M  V30 5 C -5.4609 1.1224 0.5261 0 CFG=2
M  V30 6 C -1.6781 2.6092 2.6904 0
M  V30 7 C -5.2094 0.6245 -0.904 0
M  V30 8 C -6.6537 0.424 1.2061 0
M  V30 9 C -1.5401 2.8416 1.1705 0
M  V30 10 C -6.4846 0.1321 -1.6336 0
M  V30 11 C -6.9596 -0.9925 0.6509 0
M  V30 12 C -0.9621 1.6452 0.3937 0
M  V30 13 N -7.1997 -0.9701 -0.8521 0 CHG=1 CFG=1
M  V30 14 C -6.0319 -0.2971 -3.064 0
M  V30 15 C -7.4359 1.3468 -1.8627 0
M  V30 16 C -8.2407 -1.4766 1.3901 0
M  V30 17 C -5.8026 -1.9475 1.0855 0
M  V30 18 C 0.5322 1.3844 0.6891 0
M  V30 19 C -7.0615 -2.328 -1.443 0
M  V30 20 C 0.7829 0.1447 1.5674 0
M  V30 21 C 0.4733 -1.2056 0.883 0
M  V30 22 C 1.3695 -1.5296 -0.3245 0
M  V30 23 C 2.8173 -1.573 0.0513 0
M  V30 24 O 3.2477 -2.5188 0.7671 0
M  V30 25 O 3.6662 -0.5346 -0.3512 0
M  V30 26 C 5.048 -0.4669 0.0057 0 CFG=2
M  V30 27 C 5.844 -1.508 -0.7874 0
M  V30 28 C 5.5694 0.9391 -0.3021 0
M  V30 29 C 7.3768 -1.4087 -0.5615 0
M  V30 30 C 7.1031 1.0985 -0.0841 0
M  V30 31 N 7.8833 0.0067 -0.809 0 CHG=1 CFG=1
M  V30 32 C 8.0418 -2.4526 -1.5131 0
M  V30 33 C 7.7428 -1.9106 0.8688 0
M  V30 34 C 7.4305 1.1216 1.4466 0
M  V30 35 C 7.4809 2.528 -0.5919 0
M  V30 36 C 8.018 0.2987 -2.2678 0
M  V30 37 H -2.722 1.4437 4.1905 0
M  V30 38 H -2.1907 0.4827 2.7866 0
M  V30 39 H -5.6798 2.2128 0.4743 0
M  V30 40 H -0.6754 2.4213 3.1304 0
M  V30 41 H -2.0567 3.5477 3.1524 0
M  V30 42 H -4.7341 1.4522 -1.4767 0
M  V30 43 H -4.4551 -0.1896 -0.8989 0
M  V30 44 H -7.5548 1.0637 1.1086 0
M  V30 45 H -6.4757 0.37 2.304 0
M  V30 46 H -0.8959 3.7328 1.0037 0
M  V30 47 H -2.534 3.0985 0.7453 0
M  V30 48 H -1.5881 0.7512 0.5679 0
M  V30 49 H -1.0628 1.8726 -0.6862 0
M  V30 50 H -8.2227 -0.7776 -0.9753 0
M  V30 51 H -5.5503 0.5514 -3.599 0
M  V30 52 H -6.8976 -0.6163 -3.6829 0
M  V30 53 H -5.2797 -1.1133 -3.033 0
M  V30 54 H -6.9034 2.1813 -2.3692 0
M  V30 55 H -8.293 1.0525 -2.5054 0
M  V30 56 H -7.8557 1.7428 -0.9224 0
M  V30 57 H -9.1025 -0.8103 1.1676 0
M  V30 58 H -8.5224 -2.508 1.0953 0
M  V30 59 H -8.086 -1.4752 2.4913 0
M  V30 60 H -5.5608 -1.811 2.1622 0
M  V30 61 H -6.0851 -3.0146 0.9611 0
M  V30 62 H -4.8734 -1.7809 0.5117 0
M  V30 63 H 0.984 2.2652 1.195 0
M  V30 64 H 1.0855 1.2826 -0.266 0
M  V30 65 H -7.5296 -2.3796 -2.4484 0
M  V30 66 H -5.9955 -2.6338 -1.5127 0
M  V30 67 H -7.6036 -3.0907 -0.8459 0
M  V30 68 H 1.8454 0.1536 1.8933 0
M  V30 69 H 0.1755 0.2206 2.4941 0
M  V30 70 H 0.5961 -2.0116 1.6405 0
M  V30 71 H -0.5863 -1.2415 0.559 0
M  V30 72 H 1.2089 -0.7943 -1.1414 0
M  V30 73 H 1.0791 -2.5255 -0.7262 0
M  V30 74 H 5.1276 -0.6634 1.0932 0
M  V30 75 H 5.6105 -1.3768 -1.8665 0
M  V30 76 H 5.4957 -2.5268 -0.5096 0
M  V30 77 H 5.3113 1.1806 -1.3571 0
M  V30 78 H 5.0205 1.6687 0.3337 0
M  V30 79 H 8.8692 0.0437 -0.4563 0
M  V30 80 H 9.1493 -2.3628 -1.48 0
M  V30 81 H 7.6926 -2.3463 -2.5623 0
M  V30 82 H 7.7729 -3.4941 -1.2287 0
M  V30 83 H 7.5971 -3.0091 0.9643 0
M  V30 84 H 8.8074 -1.6942 1.0998 0
M  V30 85 H 7.1124 -1.4913 1.6651 0
M  V30 86 H 7.3845 2.1453 1.8784 0
M  V30 87 H 8.453 0.7426 1.6529 0
M  V30 88 H 6.7006 0.5629 2.057 0
M  V30 89 H 8.5802 2.6807 -0.5384 0
M  V30 90 H 6.9943 3.317 0.0198 0
M  V30 91 H 7.1289 2.7143 -1.63 0
M  V30 92 H 7.032 0.3137 -2.7762 0
M  V30 93 H 8.5511 1.2513 -2.4546 0
M  V30 94 H 8.6949 -0.4114 -2.7796 0
M  V30 END ATOM
M  V30 BEGIN BOND
M  V30 1 2 1 2
M  V30 2 1 2 3
M  V30 3 1 2 4
M  V30 4 1 3 5
M  V30 5 1 4 6
M  V30 6 1 5 7
M  V30 7 1 5 8
M  V30 8 1 6 9
M  V30 9 1 7 10
M  V30 10 1 8 11
M  V30 11 1 9 12
M  V30 12 1 10 13
M  V30 13 1 10 14
M  V30 14 1 10 15
M  V30 15 1 11 16
M  V30 16 1 11 17
M  V30 17 1 12 18
M  V30 18 1 13 19
M  V30 19 1 18 20
M  V30 20 1 20 21
M  V30 21 1 21 22
M  V30 22 1 22 23
M  V30 23 2 23 24
M  V30 24 1 23 25
M  V30 25 1 25 26
M  V30 26 1 26 27
M  V30 27 1 26 28
M  V30 28 1 27 29
M  V30 29 1 28 30
M  V30 30 1 29 31
M  V30 31 1 29 32
M  V30 32 1 29 33
M  V30 33 1 30 34
M  V30 34 1 30 35
M  V30 35 1 31 36
M  V30 36 1 11 13
M  V30 37 1 30 31
M  V30 38 1 4 37
M  V30 39 1 4 38
M  V30 40 1 5 39
M  V30 41 1 6 40
M  V30 42 1 6 41
M  V30 43 1 7 42
M  V30 44 1 7 43
M  V30 45 1 8 44
M  V30 46 1 8 45
M  V30 47 1 9 46
M  V30 48 1 9 47
M  V30 49 1 12 48
M  V30 50 1 12 49
M  V30 51 1 13 50
M  V30 52 1 14 51
M  V30 53 1 14 52
M  V30 54 1 14 53
M  V30 55 1 15 54
M  V30 56 1 15 55
M  V30 57 1 15 56
M  V30 58 1 16 57
M  V30 59 1 16 58
M  V30 60 1 16 59
M  V30 61 1 17 60
M  V30 62 1 17 61
M  V30 63 1 17 62
M  V30 64 1 18 63
M  V30 65 1 18 64
M  V30 66 1 19 65
M  V30 67 1 19 66
M  V30 68 1 19 67
M  V30 69 1 20 68
M  V30 70 1 20 69
M  V30 71 1 21 70
M  V30 72 1 21 71
M  V30 73 1 22 72
M  V30 74 1 22 73
M  V30 75 1 26 74
M  V30 76 1 27 75
M  V30 77 1 27 76
M  V30 78 1 28 77
M  V30 79 1 28 78
M  V30 80 1 31 79
M  V30 81 1 32 80
M  V30 82 1 32 81
M  V30 83 1 32 82
M  V30 84 1 33 83
M  V30 85 1 33 84
M  V30 86 1 33 85
M  V30 87 1 34 86
M  V30 88 1 34 87
M  V30 89 1 34 88
M  V30 90 1 35 89
M  V30 91 1 35 90
M  V30 92 1 35 91
M  V30 93 1 36 92
M  V30 94 1 36 93
M  V30 95 1 36 94
M  V30 END BOND
M  V30 BEGIN COLLECTION
M  V30 MDLV30/STEABS ATOMS=(4 5 13 26 31)
M  V30 END COLLECTION
M  V30 END CTAB
M  END
>  <Structure No>
700

>  <LogS>
-4.611221235

>  <MMFF94 Energy>
71.374

$$$$
Compound 701
Actelion Java MolfileCreator 2.0

  0  0  0  0  0  0              0 V3000
M  V30 BEGIN CTAB
M  V30 COUNTS 32 32 0 0 0
M  V30 BEGIN ATOM
M  V30 1 O -3.9629 -0.2374 2.3763 0
M  V30 2 C -3.7584 -1.043 1.4293 0
M  V30 3 O -3.708 -2.406 1.6929 0 CHG=-1
M  V30 4 C -3.5119 -0.5448 0.0306 0 CFG=2
M  V30 5 C -2.0537 -0.1766 -0.1567 0
M  V30 6 C -4.4341 0.6273 -0.3288 0
M  V30 7 C -1.2725 -0.8577 -1.1063 0
M  V30 8 C -1.4583 0.8444 0.6077 0
M  V30 9 C 0.0728 -0.5261 -1.2881 0
M  V30 10 C -0.113 1.1745 0.425 0
M  V30 11 C 0.6612 0.4951 -0.5268 0
M  V30 12 C 2.1193 0.8381 -0.7028 0
M  V30 13 C 2.9965 0.2324 0.4137 0
M  V30 14 C 3.0096 -1.3021 0.3539 0
M  V30 15 C 4.4279 0.773 0.3119 0
M  V30 16 H -3.7753 -1.3754 -0.6614 0
M  V30 17 H -5.4968 0.3163 -0.2362 0
M  V30 18 H -4.2606 1.4986 0.3377 0
M  V30 19 H -4.2542 0.9419 -1.3791 0
M  V30 20 H -1.7024 -1.6493 -1.707 0
M  V30 21 H -2.0335 1.3846 1.3483 0
M  V30 22 H 0.6573 -1.0702 -2.0196 0
M  V30 23 H 0.327 1.9595 1.0276 0
M  V30 24 H 2.2207 1.9459 -0.6939 0
M  V30 25 H 2.4814 0.4942 -1.6971 0
M  V30 26 H 2.589 0.5409 1.4022 0
M  V30 27 H 3.6767 -1.7115 1.1422 0
M  V30 28 H 1.9915 -1.7066 0.5327 0
M  V30 29 H 3.3688 -1.653 -0.6373 0
M  V30 30 H 5.0529 0.3639 1.1343 0
M  V30 31 H 4.4275 1.8803 0.4011 0
M  V30 32 H 4.8852 0.4913 -0.661 0
M  V30 END ATOM
M  V30 BEGIN BOND
M  V30 1 2 1 2
M  V30 2 1 2 3
M  V30 3 1 2 4
M  V30 4 1 4 5
M  V30 5 1 4 6
M  V30 6 2 5 7
M  V30 7 1 5 8
M  V30 8 1 7 9
M  V30 9 2 8 10
M  V30 10 2 9 11
M  V30 11 1 11 12
M  V30 12 1 12 13
M  V30 13 1 13 14
M  V30 14 1 13 15
M  V30 15 1 10 11
M  V30 16 1 4 16
M  V30 17 1 6 17
M  V30 18 1 6 18
M  V30 19 1 6 19
M  V30 20 1 7 20
M  V30 21 1 8 21
M  V30 22 1 9 22
M  V30 23 1 10 23
M  V30 24 1 12 24
M  V30 25 1 12 25
M  V30 26 1 13 26
M  V30 27 1 14 27
M  V30 28 1 14 28
M  V30 29 1 14 29
M  V30 30 1 15 30
M  V30 31 1 15 31
M  V30 32 1 15 32
M  V30 END BOND
M  V30 BEGIN COLLECTION
M  V30 MDLV30/STEABS ATOMS=(1 4)
M  V30 END COLLECTION
M  V30 END CTAB
M  END
>  <Structure No>
701

>  <LogS>
-3.992248355

>  <MMFF94 Energy>
59.775

$$$$
Compound 702
Actelion Java MolfileCreator 2.0

  0  0  0  0  0  0              0 V3000
M  V30 BEGIN CTAB
M  V30 COUNTS 5 4 0 0 0
M  V30 BEGIN ATOM
M  V30 1 Cl 0.0 0.0 0.0 0
M  V30 2 O -1.1913 1.1025 0.7211 0
M  V30 3 O -0.7501 -0.9536 -1.1616 0
M  V30 4 O 1.3417 0.9756 -0.7827 0
M  V30 5 O 0.6841 -1.0373 1.2638 0 CHG=-1
M  V30 END ATOM
M  V30 BEGIN BOND
M  V30 1 2 1 2
M  V30 2 2 1 3
M  V30 3 2 1 4
M  V30 4 1 1 5
M  V30 END BOND
M  V30 END CTAB
M  END
>  <Structure No>
702

>  <LogS>
-1.766528496

>  <MMFF94 Energy>
1.2794e-7

$$$$
Compound 703
Actelion Java MolfileCreator 2.0

  0  0  0  0  0  0              0 V3000
M  V30 BEGIN CTAB
M  V30 COUNTS 32 32 0 0 0
M  V30 BEGIN ATOM
M  V30 1 S -2.2381 2.9584 -1.7582 0
M  V30 2 C -1.2535 1.6676 -1.0074 0
M  V30 3 C -2.3273 3.9384 -0.228 0
M  V30 4 N 0.1004 1.744 -1.0352 0
M  V30 5 N -1.8611 0.6113 -0.412 0
M  V30 6 C 0.8514 0.7663 -0.4665 0
M  V30 7 C -1.1166 -0.3703 0.1611 0
M  V30 8 N 0.2381 -0.2883 0.1328 0
M  V30 9 N 2.2817 0.8604 -0.4984 0
M  V30 10 N -1.7478 -1.4884 0.7946 0
M  V30 11 C 3.1551 -0.1731 0.0675 0
M  V30 12 C -3.2038 -1.6161 0.8529 0
M  V30 13 C 3.2153 -1.3819 -0.871 0
M  V30 14 C 4.5601 0.3899 0.304 0
M  V30 15 C -3.6118 -2.8922 1.5815 0
M  V30 16 H -1.3068 4.2301 0.0978 0
M  V30 17 H -2.92 4.8563 -0.4192 0
M  V30 18 H -2.8228 3.3505 0.5728 0
M  V30 19 H 2.7056 1.7161 -0.925 0
M  V30 20 H -1.1395 -2.2235 1.2229 0
M  V30 21 H 2.7523 -0.4982 1.0524 0
M  V30 22 H -3.6147 -1.6405 -0.1793 0
M  V30 23 H -3.631 -0.7405 1.3879 0
M  V30 24 H 3.6053 -1.0803 -1.8668 0
M  V30 25 H 3.8771 -2.166 -0.4453 0
M  V30 26 H 2.2036 -1.8191 -1.0031 0
M  V30 27 H 4.5057 1.2639 0.9875 0
M  V30 28 H 5.0195 0.713 -0.6549 0
M  V30 29 H 5.2087 -0.3802 0.7733 0
M  V30 30 H -3.208 -3.7806 1.051 0
M  V30 31 H -3.2243 -2.8783 2.6224 0
M  V30 32 H -4.7193 -2.9663 1.6127 0
M  V30 END ATOM
M  V30 BEGIN BOND
M  V30 1 1 1 2
M  V30 2 1 1 3
M  V30 3 2 2 4
M  V30 4 1 2 5
M  V30 5 1 4 6
M  V30 6 2 5 7
M  V30 7 2 6 8
M  V30 8 1 6 9
M  V30 9 1 7 10
M  V30 10 1 9 11
M  V30 11 1 10 12
M  V30 12 1 11 13
M  V30 13 1 11 14
M  V30 14 1 12 15
M  V30 15 1 7 8
M  V30 16 1 3 16
M  V30 17 1 3 17
M  V30 18 1 3 18
M  V30 19 1 9 19
M  V30 20 1 10 20
M  V30 21 1 11 21
M  V30 22 1 12 22
M  V30 23 1 12 23
M  V30 24 1 13 24
M  V30 25 1 13 25
M  V30 26 1 13 26
M  V30 27 1 14 27
M  V30 28 1 14 28
M  V30 29 1 14 29
M  V30 30 1 15 30
M  V30 31 1 15 31
M  V30 32 1 15 32
M  V30 END BOND
M  V30 END CTAB
M  END
>  <Structure No>
703

>  <LogS>
-3.047039957

>  <MMFF94 Energy>
-244.14

$$$$
Compound 704
Actelion Java MolfileCreator 2.0

  0  0  0  0  0  0              0 V3000
M  V30 BEGIN CTAB
M  V30 COUNTS 21 21 0 0 0
M  V30 BEGIN ATOM
M  V30 1 O 3.2355 1.1828 0.0 0
M  V30 2 C 2.3191 0.3167 -0.0333 0
M  V30 3 C 0.8944 0.748 -0.0064 0
M  V30 4 C 2.71 -1.1294 -0.0997 0
M  V30 5 C -0.1579 -0.1902 -0.0424 0
M  V30 6 C 0.5768 2.1178 0.0561 0
M  V30 7 C -1.5017 0.234 -0.0161 0
M  V30 8 C -0.7542 2.5382 0.0821 0
M  V30 9 O -2.5771 -0.6667 -0.0503 0
M  V30 10 C -1.7869 1.6012 0.0462 0
M  V30 11 C -2.441 -2.0827 -0.1139 0
M  V30 12 H 3.8159 -1.2341 -0.1104 0
M  V30 13 H 2.3158 -1.6678 0.7874 0
M  V30 14 H 2.3059 -1.5873 -1.0267 0
M  V30 15 H 0.0639 -1.2459 -0.0904 0
M  V30 16 H 1.3575 2.8677 0.0853 0
M  V30 17 H -0.9859 3.5945 0.1303 0
M  V30 18 H -2.8156 1.9387 0.0668 0
M  V30 19 H -1.8939 -2.4544 0.7782 0
M  V30 20 H -3.45 -2.5434 -0.1289 0
M  V30 21 H -1.9038 -2.3735 -1.0413 0
M  V30 END ATOM
M  V30 BEGIN BOND
M  V30 1 2 1 2
M  V30 2 1 2 3
M  V30 3 1 2 4
M  V30 4 2 3 5
M  V30 5 1 3 6
M  V30 6 1 5 7
M  V30 7 2 6 8
M  V30 8 1 7 9
M  V30 9 2 7 10
M  V30 10 1 9 11
M  V30 11 1 8 10
M  V30 12 1 4 12
M  V30 13 1 4 13
M  V30 14 1 4 14
M  V30 15 1 5 15
M  V30 16 1 6 16
M  V30 17 1 8 17
M  V30 18 1 10 18
M  V30 19 1 11 19
M  V30 20 1 11 20
M  V30 21 1 11 21
M  V30 END BOND
M  V30 END CTAB
M  END
>  <Structure No>
704

>  <LogS>
-1.869107387

>  <MMFF94 Energy>
34.14

$$$$
Compound 705
Actelion Java MolfileCreator 2.0

  0  0  0  0  0  0              0 V3000
M  V30 BEGIN CTAB
M  V30 COUNTS 15 16 0 0 0
M  V30 BEGIN ATOM
M  V30 1 N 1.5815 1.4232 0.3161 0
M  V30 2 C 0.3864 0.827 0.1569 0
M  V30 3 C 2.4547 0.3893 0.1875 0
M  V30 4 C 0.5474 -0.5084 -0.0575 0
M  V30 5 C -0.8745 1.4182 0.1924 0
M  V30 6 N 1.8525 -0.8026 -0.0412 0
M  V30 7 C -0.5328 -1.3655 -0.2544 0
M  V30 8 C -1.9928 0.5845 -0.0025 0
M  V30 9 C -1.8226 -0.8017 -0.225 0
M  V30 10 H 3.5275 0.5082 0.2611 0
M  V30 11 H -0.9917 2.4805 0.3635 0
M  V30 12 H 2.3055 -1.7339 -0.1738 0
M  V30 13 H -0.3873 -2.4244 -0.4236 0
M  V30 14 H -2.9886 1.0078 0.0182 0
M  V30 15 H -2.6888 -1.4332 -0.3736 0
M  V30 END ATOM
M  V30 BEGIN BOND
M  V30 1 1 1 2
M  V30 2 2 1 3
M  V30 3 2 2 4
M  V30 4 1 2 5
M  V30 5 1 3 6
M  V30 6 1 4 7
M  V30 7 2 5 8
M  V30 8 2 7 9
M  V30 9 1 4 6
M  V30 10 1 8 9
M  V30 11 1 3 10
M  V30 12 1 5 11
M  V30 13 1 6 12
M  V30 14 1 7 13
M  V30 15 1 8 14
M  V30 16 1 9 15
M  V30 END BOND
M  V30 END CTAB
M  END
>  <Structure No>
705

>  <LogS>
-1.769197233

>  <MMFF94 Energy>
9.1839

$$$$
Compound 706
Actelion Java MolfileCreator 2.0

  0  0  0  0  0  0              0 V3000
M  V30 BEGIN CTAB
M  V30 COUNTS 11 11 0 0 0
M  V30 BEGIN ATOM
M  V30 1 O -0.239 2.3921 0.0 0
M  V30 2 C -0.1274 1.1366 0.0015 0
M  V30 3 N 1.1052 0.5633 -0.011 0
M  V30 4 N -1.2399 0.355 0.0157 0
M  V30 5 C 1.224 -0.7905 -0.0095 0
M  V30 6 C -1.1181 -0.9986 0.0173 0
M  V30 7 O 2.3631 -1.3268 -0.021 0
M  V30 8 N 0.1127 -1.5683 0.0047 0 CHG=-1
M  V30 9 O -2.145 -1.7272 0.0304 0
M  V30 10 H 1.9615 1.1636 -0.0219 0
M  V30 11 H -2.1887 0.795 0.0255 0
M  V30 END ATOM
M  V30 BEGIN BOND
M  V30 1 2 1 2
M  V30 2 1 2 3
M  V30 3 1 2 4
M  V30 4 1 3 5
M  V30 5 1 4 6
M  V30 6 2 5 7
M  V30 7 1 5 8
M  V30 8 2 6 9
M  V30 9 1 6 8
M  V30 10 1 3 10
M  V30 11 1 4 11
M  V30 END BOND
M  V30 END CTAB
M  END
>  <Structure No>
706

>  <LogS>
-1.807646076

>  <MMFF94 Energy>
-154.75

$$$$
Compound 707
Actelion Java MolfileCreator 2.0

  0  0  0  0  0  0              0 V3000
M  V30 BEGIN CTAB
M  V30 COUNTS 25 26 0 0 0
M  V30 BEGIN ATOM
M  V30 1 Cl -3.4571 2.7328 0.8031 0
M  V30 2 C -2.6563 1.1457 0.9161 0
M  V30 3 C -2.3506 0.6127 -0.4841 0
M  V30 4 C -1.7382 -0.793 -0.4473 0
M  V30 5 N -0.4195 -0.7812 0.1911 0
M  V30 6 C -0.108 -1.134 1.4649 0
M  V30 7 C 0.7544 -0.3676 -0.3265 0
M  V30 8 O -0.9518 -1.5678 2.2943 0
M  V30 9 N 1.202 -0.9679 1.7638 0
M  V30 10 C 1.7308 -0.484 0.6261 0
M  V30 11 C 1.0302 0.1192 -1.6056 0
M  V30 12 C 3.0532 -0.1244 0.3769 0
M  V30 13 C 2.3579 0.4909 -1.8899 0
M  V30 14 C 3.3642 0.3697 -0.9038 0
M  V30 15 H -1.7176 1.2693 1.4958 0
M  V30 16 H -3.3288 0.4455 1.4557 0
M  V30 17 H -1.6592 1.3102 -1.0043 0
M  V30 18 H -3.2957 0.569 -1.0678 0
M  V30 19 H -1.639 -1.1734 -1.4867 0
M  V30 20 H -2.4195 -1.4886 0.0897 0
M  V30 21 H 1.6865 -1.1625 2.6685 0
M  V30 22 H 0.2569 0.2101 -2.3568 0
M  V30 23 H 3.8146 -0.2197 1.1402 0
M  V30 24 H 2.61 0.8726 -2.8706 0
M  V30 25 H 4.381 0.6596 -1.135 0
M  V30 END ATOM
M  V30 BEGIN BOND
M  V30 1 1 1 2
M  V30 2 1 2 3
M  V30 3 1 3 4
M  V30 4 1 4 5
M  V30 5 1 5 6
M  V30 6 1 5 7
M  V30 7 2 6 8
M  V30 8 1 6 9
M  V30 9 2 7 10
M  V30 10 1 7 11
M  V30 11 1 10 12
M  V30 12 2 11 13
M  V30 13 2 12 14
M  V30 14 1 9 10
M  V30 15 1 13 14
M  V30 16 1 2 15
M  V30 17 1 2 16
M  V30 18 1 3 17
M  V30 19 1 3 18
M  V30 20 1 4 19
M  V30 21 1 4 20
M  V30 22 1 9 21
M  V30 23 1 11 22
M  V30 24 1 12 23
M  V30 25 1 13 24
M  V30 26 1 14 25
M  V30 END BOND
M  V30 END CTAB
M  END
>  <Structure No>
707

>  <LogS>
-3.020394269

>  <MMFF94 Energy>
-23.526

$$$$
Compound 708
Actelion Java MolfileCreator 2.0

  0  0  0  0  0  0              0 V3000
M  V30 BEGIN CTAB
M  V30 COUNTS 11 11 0 0 0
M  V30 BEGIN ATOM
M  V30 1 Cl 2.865 -1.1452 -0.8179 0
M  V30 2 C 1.2703 -0.6125 -0.3253 0
M  V30 3 N 0.4589 -1.4597 0.3638 0
M  V30 4 C 0.8303 0.6778 -0.6374 0
M  V30 5 C -0.7861 -1.0867 0.7654 0
M  V30 6 C -0.445 1.08 -0.234 0
M  V30 7 C -1.2615 0.1942 0.4723 0
M  V30 8 H 1.4677 1.3601 -1.1852 0
M  V30 9 H -1.4069 -1.7841 1.3119 0
M  V30 10 H -0.7996 2.0755 -0.4681 0
M  V30 11 H -2.2512 0.4964 0.7894 0
M  V30 END ATOM
M  V30 BEGIN BOND
M  V30 1 1 1 2
M  V30 2 2 2 3
M  V30 3 1 2 4
M  V30 4 1 3 5
M  V30 5 2 4 6
M  V30 6 2 5 7
M  V30 7 1 6 7
M  V30 8 1 4 8
M  V30 9 1 5 9
M  V30 10 1 6 10
M  V30 11 1 7 11
M  V30 END BOND
M  V30 END CTAB
M  END
>  <Structure No>
708

>  <LogS>
-0.754145669

>  <MMFF94 Energy>
11.689

$$$$
Compound 709
Actelion Java MolfileCreator 2.0

  0  0  0  0  0  0              0 V3000
M  V30 BEGIN CTAB
M  V30 COUNTS 13 13 0 0 0
M  V30 BEGIN ATOM
M  V30 1 Cl -2.7062 1.1833 0.1689 0
M  V30 2 C -1.0494 0.5995 0.0896 0
M  V30 3 C -0.7527 -0.7779 0.0463 0
M  V30 4 C -0.0079 1.5356 0.0695 0
M  V30 5 O -1.7571 -1.7464 0.0642 0
M  V30 6 C 0.5824 -1.1957 -0.0163 0
M  V30 7 C 1.3216 1.1099 0.0067 0
M  V30 8 C 1.618 -0.2554 -0.0361 0
M  V30 9 Cl 3.2872 -0.789 -0.1149 0
M  V30 10 H -0.2279 2.5952 0.1026 0
M  V30 11 H -2.7411 -1.5131 0.1089 0
M  V30 12 H 0.8135 -2.2531 -0.0497 0
M  V30 13 H 2.1195 1.8416 -0.0082 0
M  V30 END ATOM
M  V30 BEGIN BOND
M  V30 1 1 1 2
M  V30 2 2 2 3
M  V30 3 1 2 4
M  V30 4 1 3 5
M  V30 5 1 3 6
M  V30 6 2 4 7
M  V30 7 2 6 8
M  V30 8 1 8 9
M  V30 9 1 7 8
M  V30 10 1 4 10
M  V30 11 1 5 11
M  V30 12 1 6 12
M  V30 13 1 7 13
M  V30 END BOND
M  V30 END CTAB
M  END
>  <Structure No>
709

>  <LogS>
-1.911165602

>  <MMFF94 Energy>
19.397

$$$$
Compound 710
Actelion Java MolfileCreator 2.0

  0  0  0  0  0  0              0 V3000
M  V30 BEGIN CTAB
M  V30 COUNTS 78 83 0 0 0
M  V30 BEGIN ATOM
M  V30 1 S -6.7265 3.572 -1.1046 0
M  V30 2 O -6.0528 4.7749 -1.7044 0
M  V30 3 O -7.7698 4.0358 -0.128 0
M  V30 4 O -7.4521 2.7067 -2.3496 0 CHG=-1
M  V30 5 C -5.5352 2.5571 -0.2721 0
M  V30 6 C -5.7649 1.1898 0.0286 0
M  V30 7 C -4.2946 3.1264 0.0343 0
M  V30 8 N -7.0379 0.5517 -0.166 0
M  V30 9 C -4.7205 0.3977 0.5414 0
M  V30 10 C -3.2622 2.3589 0.5817 0
M  V30 11 N -8.1453 1.1663 -0.0493 0
M  V30 12 O -4.998 -0.956 0.7683 0
M  V30 13 C -3.455 0.9765 0.8244 0
M  V30 14 C -2.0306 2.9649 0.8781 0
M  V30 15 C -9.4076 0.515 -0.2413 0
M  V30 16 C -2.3799 0.2332 1.36 0
M  V30 17 C -0.9693 2.2125 1.3896 0
M  V30 18 C -10.5868 1.2693 -0.1453 0
M  V30 19 C -9.4893 -0.8629 -0.5153 0
M  V30 20 C -1.1564 0.8468 1.6399 0
M  V30 21 N 0.2697 2.8663 1.7119 0
M  V30 22 O -10.5269 2.6316 0.1271 0 CHG=-1
M  V30 23 C -11.8306 0.6554 -0.3203 0
M  V30 24 C -10.7374 -1.476 -0.6962 0
M  V30 25 C 1.5648 2.2547 1.5878 0
M  V30 26 C -11.9071 -0.7124 -0.5924 0
M  V30 27 S -10.8367 -3.2056 -1.0121 0
M  V30 28 C 1.8285 1.3054 0.5907 0
M  V30 29 C 2.6034 2.6698 2.4258 0
M  V30 30 O -9.623 -3.6525 -1.7781 0
M  V30 31 O -12.0611 -3.5029 -1.832 0
M  V30 32 N -10.9242 -4.065 0.4851 0
M  V30 33 C 3.1135 0.757 0.447 0
M  V30 34 C 3.8845 2.1291 2.2977 0
M  V30 35 C 4.1633 1.1624 1.3084 0
M  V30 36 C 3.3521 -0.1915 -0.5521 0
M  V30 37 C 5.4568 0.6079 1.1266 0
M  V30 38 C 4.6235 -0.7452 -0.7334 0
M  V30 39 O 6.5436 0.9456 1.9432 0
M  V30 40 C 5.6946 -0.3075 0.0856 0
M  V30 41 S 4.8031 -2.0399 -1.9299 0
M  V30 42 N 7.0434 -0.7673 -0.0915 0
M  V30 43 O 3.4556 -2.5971 -2.296 0
M  V30 44 O 5.6328 -3.1543 -1.355 0
M  V30 45 O 5.5357 -1.4379 -3.3173 0 CHG=-1
M  V30 46 N 7.545 -0.999 -1.2363 0
M  V30 47 C 8.8947 -1.4519 -1.4022 0
M  V30 48 C 9.3997 -1.6384 -2.6978 0
M  V30 49 C 9.7258 -1.7038 -0.2947 0
M  V30 50 O 8.5954 -1.3948 -3.8048 0 CHG=-1
M  V30 51 C 10.7171 -2.0665 -2.8848 0
M  V30 52 C 11.0455 -2.1367 -0.4833 0
M  V30 53 C 11.5396 -2.3123 -1.7831 0
M  V30 54 S 12.0761 -2.4318 0.9136 0
M  V30 55 O 13.2756 -3.2428 0.5098 0
M  V30 56 O 11.3051 -3.1955 1.9538 0
M  V30 57 N 12.603 -0.924 1.5743 0
M  V30 58 H -4.1221 4.1763 -0.1708 0
M  V30 59 H -4.3384 -1.6317 1.1251 0
M  V30 60 H -1.8864 4.0248 0.699 0
M  V30 61 H -2.4563 -0.8189 1.5797 0
M  V30 62 H -8.5877 -1.4583 -0.5821 0
M  V30 63 H -0.358 0.2565 2.0718 0
M  V30 64 H 0.2274 3.8572 2.0422 0
M  V30 65 H -12.7386 1.2401 -0.2419 0
M  V30 66 H -12.8776 -1.1753 -0.7171 0
M  V30 67 H 1.0385 1.0115 -0.0899 0
M  V30 68 H 2.4172 3.4163 3.1875 0
M  V30 69 H -11.7508 -3.6898 1.0024 0
M  V30 70 H -10.0778 -3.8032 1.0393 0
M  V30 71 H 4.6369 2.4991 2.9743 0
M  V30 72 H 2.536 -0.5069 -1.1918 0
M  V30 73 H 6.4925 1.5416 2.7556 0
M  V30 74 H 9.3529 -1.5613 0.7118 0
M  V30 75 H 11.1032 -2.2056 -3.8869 0
M  V30 76 H 12.5571 -2.6398 -1.9464 0
M  V30 77 H 13.1025 -0.4148 0.8113 0
M  V30 78 H 11.7456 -0.3701 1.7945 0
M  V30 END ATOM
M  V30 BEGIN BOND
M  V30 1 2 1 2
M  V30 2 2 1 3
M  V30 3 1 1 4
M  V30 4 1 1 5
M  V30 5 1 5 6
M  V30 6 2 5 7
M  V30 7 1 6 8
M  V30 8 2 6 9
M  V30 9 1 7 10
M  V30 10 2 8 11
M  V30 11 1 9 12
M  V30 12 1 9 13
M  V30 13 2 10 14
M  V30 14 1 11 15
M  V30 15 2 13 16
M  V30 16 1 14 17
M  V30 17 2 15 18
M  V30 18 1 15 19
M  V30 19 1 16 20
M  V30 20 1 17 21
M  V30 21 1 18 22
M  V30 22 1 18 23
M  V30 23 2 19 24
M  V30 24 1 21 25
M  V30 25 2 23 26
M  V30 26 1 24 27
M  V30 27 2 25 28
M  V30 28 1 25 29
M  V30 29 2 27 30
M  V30 30 2 27 31
M  V30 31 1 27 32
M  V30 32 1 28 33
M  V30 33 2 29 34
M  V30 34 1 33 35
M  V30 35 2 33 36
M  V30 36 2 35 37
M  V30 37 1 36 38
M  V30 38 1 37 39
M  V30 39 1 37 40
M  V30 40 1 38 41
M  V30 41 1 40 42
M  V30 42 2 41 43
M  V30 43 2 41 44
M  V30 44 1 41 45
M  V30 45 2 42 46
M  V30 46 1 46 47
M  V30 47 2 47 48
M  V30 48 1 47 49
M  V30 49 1 48 50
M  V30 50 1 48 51
M  V30 51 2 49 52
M  V30 52 2 51 53
M  V30 53 1 52 54
M  V30 54 2 54 55
M  V30 55 2 54 56
M  V30 56 1 54 57
M  V30 57 1 10 13
M  V30 58 2 17 20
M  V30 59 1 24 26
M  V30 60 1 34 35
M  V30 61 2 38 40
M  V30 62 1 52 53
M  V30 63 1 7 58
M  V30 64 1 12 59
M  V30 65 1 14 60
M  V30 66 1 16 61
M  V30 67 1 19 62
M  V30 68 1 20 63
M  V30 69 1 21 64
M  V30 70 1 23 65
M  V30 71 1 26 66
M  V30 72 1 28 67
M  V30 73 1 29 68
M  V30 74 1 32 69
M  V30 75 1 32 70
M  V30 76 1 34 71
M  V30 77 1 36 72
M  V30 78 1 39 73
M  V30 79 1 49 74
M  V30 80 1 51 75
M  V30 81 1 53 76
M  V30 82 1 57 77
M  V30 83 1 57 78
M  V30 END BOND
M  V30 END CTAB
M  END
>  <Structure No>
710

>  <LogS>
-2.710489277

>  <MMFF94 Energy>
97.522

$$$$
Compound 711
Actelion Java MolfileCreator 2.0

  0  0  0  0  0  0              0 V3000
M  V30 BEGIN CTAB
M  V30 COUNTS 80 79 0 0 0
M  V30 BEGIN ATOM
M  V30 1 O -5.6545 2.8241 -1.8036 0
M  V30 2 C -5.0881 2.9092 -0.6786 0
M  V30 3 O -5.3947 2.0083 0.3469 0
M  V30 4 C -4.0533 3.9675 -0.4469 0
M  V30 5 C -6.2137 0.8551 0.1544 0
M  V30 6 C -2.8157 3.7568 -1.3298 0
M  V30 7 C -5.4124 -0.2752 -0.5281 0 CFG=2
M  V30 8 C -2.0705 2.4579 -0.9889 0
M  V30 9 C -6.294 -1.4453 -1.0471 0
M  V30 10 C -4.1815 -0.7357 0.2983 0
M  V30 11 C -0.8322 2.286 -1.8774 0
M  V30 12 C -7.3627 -1.9882 -0.0661 0
M  V30 13 C -4.4983 -1.5404 1.558 0
M  V30 14 C -0.1093 0.949 -1.6367 0
M  V30 15 C -8.7802 -1.5143 -0.4222 0
M  V30 16 C 0.552 0.8098 -0.2538 0
M  V30 17 C -9.8102 -2.0728 0.556 0
M  V30 18 C 1.5993 1.9038 0.0203 0
M  V30 19 C 2.4993 1.5633 1.2162 0
M  V30 20 C 3.451 0.4489 0.8998 0
M  V30 21 O 3.5144 -0.5557 1.6596 0
M  V30 22 O 4.2698 0.544 -0.2322 0
M  V30 23 C 5.258 -0.4263 -0.5742 0
M  V30 24 C 6.5139 -0.2826 0.3157 0 CFG=1
M  V30 25 C 7.5187 -1.4268 0.0175 0
M  V30 26 C 7.1673 1.105 0.0893 0
M  V30 27 C 7.1552 -2.7301 0.7525 0
M  V30 28 C 8.0724 1.5262 1.2491 0
M  V30 29 C 8.0267 -3.9175 0.316 0
M  V30 30 C 9.4827 -3.7811 0.7605 0
M  V30 31 H -4.5001 4.9579 -0.6795 0
M  V30 32 H -3.7546 3.9752 0.624 0
M  V30 33 H -7.0949 1.1293 -0.4638 0
M  V30 34 H -6.589 0.5271 1.1436 0
M  V30 35 H -2.1292 4.6182 -1.1793 0
M  V30 36 H -3.1197 3.7498 -2.4002 0
M  V30 37 H -4.9777 0.178 -1.4475 0
M  V30 38 H -1.7711 2.4835 0.0805 0
M  V30 39 H -2.7452 1.5908 -1.1521 0
M  V30 40 H -6.7839 -1.1216 -1.9921 0
M  V30 41 H -5.624 -2.2833 -1.3404 0
M  V30 42 H -3.5855 0.152 0.5988 0
M  V30 43 H -3.5243 -1.3522 -0.352 0
M  V30 44 H -1.1559 2.306 -2.9405 0
M  V30 45 H -0.1343 3.1378 -1.7348 0
M  V30 46 H -7.1388 -1.7078 0.981 0
M  V30 47 H -7.3474 -3.0988 -0.113 0
M  V30 48 H -5.1761 -0.9781 2.232 0
M  V30 49 H -3.5546 -1.7407 2.1076 0
M  V30 50 H -4.9453 -2.5204 1.2933 0
M  V30 51 H 0.6711 0.8247 -2.4178 0
M  V30 52 H -0.8323 0.1156 -1.7698 0
M  V30 53 H -9.0416 -1.8539 -1.4477 0
M  V30 54 H -8.8329 -0.4064 -0.3965 0
M  V30 55 H 1.0402 -0.1879 -0.2227 0
M  V30 56 H -0.2182 0.8173 0.5457 0
M  V30 57 H -9.5822 -1.7371 1.5905 0
M  V30 58 H -10.8215 -1.707 0.2791 0
M  V30 59 H -9.8127 -3.1842 0.5194 0
M  V30 60 H 2.2259 2.0753 -0.8822 0
M  V30 61 H 1.072 2.8552 0.2504 0
M  V30 62 H 1.8731 1.3008 2.0972 0
M  V30 63 H 3.0976 2.46 1.4829 0
M  V30 64 H 5.5431 -0.2726 -1.6366 0
M  V30 65 H 4.8165 -1.4416 -0.4964 0
M  V30 66 H 6.1945 -0.35 1.3793 0
M  V30 67 H 8.5364 -1.1297 0.3404 0
M  V30 68 H 7.5698 -1.6085 -1.0791 0
M  V30 69 H 7.7513 1.1044 -0.8571 0
M  V30 70 H 6.3828 1.8868 -0.0092 0
M  V30 71 H 6.0981 -2.9967 0.5475 0
M  V30 72 H 7.2516 -2.5792 1.8495 0
M  V30 73 H 7.4955 1.5509 2.1974 0
M  V30 74 H 8.9325 0.8368 1.3616 0
M  V30 75 H 8.4702 2.5447 1.0552 0
M  V30 76 H 7.6108 -4.8423 0.7713 0
M  V30 77 H 7.9832 -4.0373 -0.788 0
M  V30 78 H 10.0276 -4.7221 0.534 0
M  V30 79 H 9.9848 -2.9543 0.2167 0
M  V30 80 H 9.5402 -3.5937 1.8546 0
M  V30 END ATOM
M  V30 BEGIN BOND
M  V30 1 2 1 2
M  V30 2 1 2 3
M  V30 3 1 2 4
M  V30 4 1 3 5
M  V30 5 1 4 6
M  V30 6 1 5 7
M  V30 7 1 6 8
M  V30 8 1 7 9
M  V30 9 1 7 10
M  V30 10 1 8 11
M  V30 11 1 9 12
M  V30 12 1 10 13
M  V30 13 1 11 14
M  V30 14 1 12 15
M  V30 15 1 14 16
M  V30 16 1 15 17
M  V30 17 1 16 18
M  V30 18 1 18 19
M  V30 19 1 19 20
M  V30 20 2 20 21
M  V30 21 1 20 22
M  V30 22 1 22 23
M  V30 23 1 23 24
M  V30 24 1 24 25
M  V30 25 1 24 26
M  V30 26 1 25 27
M  V30 27 1 26 28
M  V30 28 1 27 29
M  V30 29 1 29 30
M  V30 30 1 4 31
M  V30 31 1 4 32
M  V30 32 1 5 33
M  V30 33 1 5 34
M  V30 34 1 6 35
M  V30 35 1 6 36
M  V30 36 1 7 37
M  V30 37 1 8 38
M  V30 38 1 8 39
M  V30 39 1 9 40
M  V30 40 1 9 41
M  V30 41 1 10 42
M  V30 42 1 10 43
M  V30 43 1 11 44
M  V30 44 1 11 45
M  V30 45 1 12 46
M  V30 46 1 12 47
M  V30 47 1 13 48
M  V30 48 1 13 49
M  V30 49 1 13 50
M  V30 50 1 14 51
M  V30 51 1 14 52
M  V30 52 1 15 53
M  V30 53 1 15 54
M  V30 54 1 16 55
M  V30 55 1 16 56
M  V30 56 1 17 57
M  V30 57 1 17 58
M  V30 58 1 17 59
M  V30 59 1 18 60
M  V30 60 1 18 61
M  V30 61 1 19 62
M  V30 62 1 19 63
M  V30 63 1 23 64
M  V30 64 1 23 65
M  V30 65 1 24 66
M  V30 66 1 25 67
M  V30 67 1 25 68
M  V30 68 1 26 69
M  V30 69 1 26 70
M  V30 70 1 27 71
M  V30 71 1 27 72
M  V30 72 1 28 73
M  V30 73 1 28 74
M  V30 74 1 28 75
M  V30 75 1 29 76
M  V30 76 1 29 77
M  V30 77 1 30 78
M  V30 78 1 30 79
M  V30 79 1 30 80
M  V30 END BOND
M  V30 BEGIN COLLECTION
M  V30 MDLV30/STEABS ATOMS=(2 7 24)
M  V30 END COLLECTION
M  V30 END CTAB
M  END
>  <Structure No>
711

>  <LogS>
-3.329074326

>  <MMFF94 Energy>
-7.9284

$$$$
Compound 712
Actelion Java MolfileCreator 2.0

  0  0  0  0  0  0              0 V3000
M  V30 BEGIN CTAB
M  V30 COUNTS 43 43 0 0 0
M  V30 BEGIN ATOM
M  V30 1 Cl -6.1818 -2.3741 -0.9491 0
M  V30 2 C -4.7499 -1.3637 -0.7874 0
M  V30 3 C -4.8129 0.036 -0.9113 0
M  V30 4 C -3.526 -1.9853 -0.5247 0
M  V30 5 N -6.0531 0.7049 -1.1755 0
M  V30 6 C -3.6397 0.7919 -0.7808 0
M  V30 7 C -2.3514 -1.2311 -0.3734 0
M  V30 8 C -2.4017 0.1708 -0.5245 0
M  V30 9 C -1.0794 -1.9306 -0.08 0
M  V30 10 O -1.2112 0.9129 -0.4426 0
M  V30 11 O -0.8592 -3.0583 -0.6008 0
M  V30 12 N -0.1164 -1.3568 0.8161 0
M  V30 13 C -1.1232 2.3272 -0.5841 0
M  V30 14 C 1.2057 -1.9479 1.0203 0
M  V30 15 C 2.248 -0.872 1.3811 0
M  V30 16 N 2.3193 0.2531 0.4078 0 CHG=1
M  V30 17 C 3.2915 1.2853 0.8588 0
M  V30 18 C 2.6117 -0.1811 -0.9854 0
M  V30 19 C 2.7155 2.2026 1.9453 0
M  V30 20 C 3.9357 -0.9423 -1.148 0
M  V30 21 H -3.4949 -3.0635 -0.4205 0
M  V30 22 H -6.0861 1.7448 -1.2679 0
M  V30 23 H -6.9508 0.184 -1.2815 0
M  V30 24 H -3.7003 1.8662 -0.8915 0
M  V30 25 H -0.4318 -0.6077 1.4738 0
M  V30 26 H -0.0636 2.6373 -0.4776 0
M  V30 27 H -1.7207 2.8277 0.2066 0
M  V30 28 H -1.4819 2.6337 -1.5893 0
M  V30 29 H 1.5332 -2.5073 0.1191 0
M  V30 30 H 1.1436 -2.6805 1.8533 0
M  V30 31 H 1.9703 -0.4846 2.3846 0
M  V30 32 H 3.241 -1.3572 1.5004 0
M  V30 33 H 1.3764 0.7057 0.3728 0
M  V30 34 H 4.2236 0.8148 1.2438 0
M  V30 35 H 3.5864 1.9451 0.0117 0
M  V30 36 H 2.635 0.7062 -1.6573 0
M  V30 37 H 1.7829 -0.8085 -1.3779 0
M  V30 38 H 1.7743 2.6777 1.5959 0
M  V30 39 H 2.5206 1.6433 2.8823 0
M  V30 40 H 3.4473 3.0061 2.1739 0
M  V30 41 H 4.7904 -0.349 -0.7638 0
M  V30 42 H 4.1117 -1.1367 -2.2268 0
M  V30 43 H 3.899 -1.9234 -0.6326 0
M  V30 END ATOM
M  V30 BEGIN BOND
M  V30 1 1 1 2
M  V30 2 2 2 3
M  V30 3 1 2 4
M  V30 4 1 3 5
M  V30 5 1 3 6
M  V30 6 2 4 7
M  V30 7 2 6 8
M  V30 8 1 7 9
M  V30 9 1 8 10
M  V30 10 2 9 11
M  V30 11 1 9 12
M  V30 12 1 10 13
M  V30 13 1 12 14
M  V30 14 1 14 15
M  V30 15 1 15 16
M  V30 16 1 16 17
M  V30 17 1 16 18
M  V30 18 1 17 19
M  V30 19 1 18 20
M  V30 20 1 7 8
M  V30 21 1 4 21
M  V30 22 1 5 22
M  V30 23 1 5 23
M  V30 24 1 6 24
M  V30 25 1 12 25
M  V30 26 1 13 26
M  V30 27 1 13 27
M  V30 28 1 13 28
M  V30 29 1 14 29
M  V30 30 1 14 30
M  V30 31 1 15 31
M  V30 32 1 15 32
M  V30 33 1 16 33
M  V30 34 1 17 34
M  V30 35 1 17 35
M  V30 36 1 18 36
M  V30 37 1 18 37
M  V30 38 1 19 38
M  V30 39 1 19 39
M  V30 40 1 19 40
M  V30 41 1 20 41
M  V30 42 1 20 42
M  V30 43 1 20 43
M  V30 END BOND
M  V30 END CTAB
M  END
>  <Structure No>
712

>  <LogS>
-3.225649088

>  <MMFF94 Energy>
40.414

$$$$
Compound 713
Actelion Java MolfileCreator 2.0

  0  0  0  0  0  0              0 V3000
M  V30 BEGIN CTAB
M  V30 COUNTS 55 59 0 0 0
M  V30 BEGIN ATOM
M  V30 1 O -6.4521 0.978 -0.8965 0
M  V30 2 C -5.2956 0.5718 -0.608 0
M  V30 3 C -4.2226 1.5518 -0.374 0
M  V30 4 C -5.0349 -0.9035 -0.511 0
M  V30 5 C -3.0052 1.1743 0.0552 0
M  V30 6 C -3.5284 -1.2141 -0.4942 0
M  V30 7 C -2.7138 -0.2727 0.4477 0 CFG=1
M  V30 8 C -1.8692 2.154 0.0259 0
M  V30 9 C -1.1668 -0.608 0.2823 0 CFG=1
M  V30 10 C -3.2006 -0.4817 1.9061 0
M  V30 11 C -0.8362 1.6889 -1.0022 0
M  V30 12 C -0.5168 0.1644 -0.9244 0 CFG=1
M  V30 13 C -0.3074 -0.5189 1.5882 0
M  V30 14 C 0.9817 -0.2084 -1.0222 0 CFG=2
M  V30 15 C 1.1827 -0.8786 1.3718 0
M  V30 16 C 1.8159 -0.0175 0.2555 0 CFG=1
M  V30 17 C 1.8355 0.342 -2.1593 0
M  V30 18 C 3.2026 -0.5002 -0.2627 0 CFG=2
M  V30 19 C 1.9222 1.4659 0.7319 0
M  V30 20 C 3.285 0.0858 -1.7 0
M  V30 21 O 3.2519 -1.9199 -0.3585 0
M  V30 22 C 4.4381 -0.141 0.6145 0
M  V30 23 C 4.4807 -2.4026 0.033 0
M  V30 24 C 5.386 -1.3397 0.5088 0
M  V30 25 O 4.7883 -3.6213 -0.0268 0
M  V30 26 H -4.4139 2.5866 -0.6327 0
M  V30 27 H -5.4984 -1.4152 -1.3819 0
M  V30 28 H -5.5208 -1.3026 0.404 0
M  V30 29 H -3.3896 -2.2757 -0.1922 0
M  V30 30 H -3.1489 -1.1175 -1.5348 0
M  V30 31 H -1.4156 2.2221 1.034 0
M  V30 32 H -2.2099 3.1792 -0.2393 0
M  V30 33 H -1.1026 -1.6886 0.0162 0
M  V30 34 H -3.0493 -1.5358 2.2224 0
M  V30 35 H -4.2774 -0.2401 2.0195 0
M  V30 36 H -2.6672 0.1923 2.6083 0
M  V30 37 H 0.0618 2.3272 -0.925 0
M  V30 38 H -1.2454 1.9086 -2.014 0
M  V30 39 H -0.9803 -0.2711 -1.8389 0
M  V30 40 H -0.3939 0.4784 2.0577 0
M  V30 41 H -0.6953 -1.2473 2.3316 0
M  V30 42 H 0.9522 -1.3089 -1.2236 0
M  V30 43 H 1.2442 -1.9586 1.1161 0
M  V30 44 H 1.7387 -0.7368 2.3239 0
M  V30 45 H 1.6675 1.429 -2.3075 0
M  V30 46 H 1.6168 -0.1874 -3.1122 0
M  V30 47 H 2.5663 1.5498 1.63 0
M  V30 48 H 2.3514 2.1235 -0.0517 0
M  V30 49 H 0.952 1.8885 1.0391 0
M  V30 50 H 3.8453 1.0459 -1.7148 0
M  V30 51 H 3.7962 -0.6201 -2.3906 0
M  V30 52 H 4.9378 0.8012 0.3031 0
M  V30 53 H 4.1379 -0.0505 1.6805 0
M  V30 54 H 6.1761 -1.1519 -0.2491 0
M  V30 55 H 5.8325 -1.5998 1.4926 0
M  V30 END ATOM
M  V30 BEGIN BOND
M  V30 1 2 1 2
M  V30 2 1 2 3
M  V30 3 1 2 4
M  V30 4 2 3 5
M  V30 5 1 4 6
M  V30 6 1 5 7
M  V30 7 1 5 8
M  V30 8 1 7 9
M  V30 9 1 7 10
M  V30 10 1 8 11
M  V30 11 1 9 12
M  V30 12 1 9 13
M  V30 13 1 12 14
M  V30 14 1 13 15
M  V30 15 1 14 16
M  V30 16 1 14 17
M  V30 17 1 16 18
M  V30 18 1 16 19
M  V30 19 1 17 20
M  V30 20 1 18 21
M  V30 21 1 18 22
M  V30 22 1 21 23
M  V30 23 1 22 24
M  V30 24 2 23 25
M  V30 25 1 6 7
M  V30 26 1 11 12
M  V30 27 1 15 16
M  V30 28 1 18 20
M  V30 29 1 23 24
M  V30 30 1 3 26
M  V30 31 1 4 27
M  V30 32 1 4 28
M  V30 33 1 6 29
M  V30 34 1 6 30
M  V30 35 1 8 31
M  V30 36 1 8 32
M  V30 37 1 9 33
M  V30 38 1 10 34
M  V30 39 1 10 35
M  V30 40 1 10 36
M  V30 41 1 11 37
M  V30 42 1 11 38
M  V30 43 1 12 39
M  V30 44 1 13 40
M  V30 45 1 13 41
M  V30 46 1 14 42
M  V30 47 1 15 43
M  V30 48 1 15 44
M  V30 49 1 17 45
M  V30 50 1 17 46
M  V30 51 1 19 47
M  V30 52 1 19 48
M  V30 53 1 19 49
M  V30 54 1 20 50
M  V30 55 1 20 51
M  V30 56 1 22 52
M  V30 57 1 22 53
M  V30 58 1 24 54
M  V30 59 1 24 55
M  V30 END BOND
M  V30 BEGIN COLLECTION
M  V30 MDLV30/STEABS ATOMS=(6 7 9 12 14 16 18)
M  V30 END COLLECTION
M  V30 END CTAB
M  END
>  <Structure No>
713

>  <LogS>
-4.225003779

>  <MMFF94 Energy>
84.947

$$$$
Compound 714
Actelion Java MolfileCreator 2.0

  0  0  0  0  0  0              0 V3000
M  V30 BEGIN CTAB
M  V30 COUNTS 50 49 0 0 0
M  V30 BEGIN ATOM
M  V30 1 O -2.1271 2.2848 -2.6003 0
M  V30 2 C -1.4516 2.716 -1.6273 0
M  V30 3 O -0.2296 2.1151 -1.294 0
M  V30 4 C -1.9537 3.8594 -0.8342 0
M  V30 5 C 0.2884 0.942 -1.9265 0
M  V30 6 C -1.2991 4.2643 0.2603 0
M  V30 7 C -3.2582 4.5104 -1.2058 0
M  V30 8 C 0.114 -0.323 -1.0354 0
M  V30 9 C -1.4036 -0.6157 -0.877 0
M  V30 10 C 0.7473 -0.0529 0.3577 0
M  V30 11 C 0.8376 -1.4999 -1.7711 0
M  V30 12 O -1.6363 -1.6496 0.0752 0
M  V30 13 O 2.1406 0.2179 0.2296 0
M  V30 14 C 0.7789 -2.8712 -1.0873 0
M  V30 15 C -2.911 -2.1426 0.3649 0
M  V30 16 C 2.9606 0.5181 1.3219 0
M  V30 17 O -3.9176 -1.6878 -0.2462 0
M  V30 18 C -3.0688 -3.2028 1.3864 0
M  V30 19 O 2.472 0.5713 2.4849 0
M  V30 20 C 4.4024 0.776 1.1166 0
M  V30 21 C -4.2671 -3.7426 1.6376 0
M  V30 22 C -1.8826 -3.6242 2.2125 0
M  V30 23 C 4.9283 0.7522 -0.1137 0
M  V30 24 C 5.2691 1.1185 2.2986 0
M  V30 25 H 1.3694 1.1167 -2.1172 0
M  V30 26 H -0.1794 0.7868 -2.9242 0
M  V30 27 H -0.3767 3.7924 0.5747 0
M  V30 28 H -1.6819 5.0721 0.8698 0
M  V30 29 H -3.3426 5.5317 -0.7752 0
M  V30 30 H -3.3405 4.6027 -2.3091 0
M  V30 31 H -4.0998 3.8916 -0.8301 0
M  V30 32 H -1.835 -0.9095 -1.8601 0
M  V30 33 H -1.9363 0.2934 -0.5249 0
M  V30 34 H 0.248 0.8159 0.8405 0
M  V30 35 H 0.6062 -0.9198 1.0364 0
M  V30 36 H 0.4067 -1.6162 -2.7901 0
M  V30 37 H 1.9109 -1.2428 -1.9115 0
M  V30 38 H 1.1349 -2.8247 -0.0403 0
M  V30 39 H 1.4413 -3.5752 -1.6344 0
M  V30 40 H -0.2454 -3.2894 -1.1248 0
M  V30 41 H -4.3883 -4.4947 2.4075 0
M  V30 42 H -5.1492 -3.4488 1.0806 0
M  V30 43 H -1.9658 -4.6912 2.5118 0
M  V30 44 H -1.8262 -2.9944 3.1266 0
M  V30 45 H -0.9355 -3.5101 1.641 0
M  V30 46 H 5.9799 0.9585 -0.2776 0
M  V30 47 H 4.3224 0.5249 -0.9835 0
M  V30 48 H 6.3504 1.0758 2.046 0
M  V30 49 H 5.0842 0.3986 3.124 0
M  V30 50 H 5.0258 2.143 2.6503 0
M  V30 END ATOM
M  V30 BEGIN BOND
M  V30 1 2 1 2
M  V30 2 1 2 3
M  V30 3 1 2 4
M  V30 4 1 3 5
M  V30 5 2 4 6
M  V30 6 1 4 7
M  V30 7 1 5 8
M  V30 8 1 8 9
M  V30 9 1 8 10
M  V30 10 1 8 11
M  V30 11 1 9 12
M  V30 12 1 10 13
M  V30 13 1 11 14
M  V30 14 1 12 15
M  V30 15 1 13 16
M  V30 16 2 15 17
M  V30 17 1 15 18
M  V30 18 2 16 19
M  V30 19 1 16 20
M  V30 20 2 18 21
M  V30 21 1 18 22
M  V30 22 2 20 23
M  V30 23 1 20 24
M  V30 24 1 5 25
M  V30 25 1 5 26
M  V30 26 1 6 27
M  V30 27 1 6 28
M  V30 28 1 7 29
M  V30 29 1 7 30
M  V30 30 1 7 31
M  V30 31 1 9 32
M  V30 32 1 9 33
M  V30 33 1 10 34
M  V30 34 1 10 35
M  V30 35 1 11 36
M  V30 36 1 11 37
M  V30 37 1 14 38
M  V30 38 1 14 39
M  V30 39 1 14 40
M  V30 40 1 21 41
M  V30 41 1 21 42
M  V30 42 1 22 43
M  V30 43 1 22 44
M  V30 44 1 22 45
M  V30 45 1 23 46
M  V30 46 1 23 47
M  V30 47 1 24 48
M  V30 48 1 24 49
M  V30 49 1 24 50
M  V30 END BOND
M  V30 END CTAB
M  END
>  <Structure No>
714

>  <LogS>
-4.226234297

>  <MMFF94 Energy>
14.172

$$$$
Compound 715
Actelion Java MolfileCreator 2.0

  0  0  0  0  0  0              0 V3000
M  V30 BEGIN CTAB
M  V30 COUNTS 25 25 0 0 0
M  V30 BEGIN ATOM
M  V30 1 O 4.1531 -0.2347 0.626 0
M  V30 2 C 2.7745 -0.0505 0.5428 0
M  V30 3 C 2.0439 -0.5986 -0.5145 0
M  V30 4 C 2.1203 0.6862 1.5249 0
M  V30 5 C 0.649 -0.424 -0.6021 0
M  V30 6 C 0.743 0.8873 1.4514 0
M  V30 7 C -0.0202 0.3614 0.3871 0
M  V30 8 C -0.0499 -1.0377 -1.7882 0
M  V30 9 C -1.5274 0.6303 0.4212 0
M  V30 10 C -2.1173 1.1233 -0.9086 0
M  V30 11 C -2.3021 -0.5642 0.9897 0
M  V30 12 H 4.6603 -0.7662 -0.0719 0
M  V30 13 H 2.5709 -1.1675 -1.2712 0
M  V30 14 H 2.6813 1.107 2.35 0
M  V30 15 H 0.2701 1.4625 2.2382 0
M  V30 16 H -0.274 -0.2526 -2.5392 0
M  V30 17 H -0.975 -1.5604 -1.4861 0
M  V30 18 H 0.5872 -1.8009 -2.2838 0
M  V30 19 H -1.7089 1.4691 1.1314 0
M  V30 20 H -2.3801 0.2853 -1.584 0
M  V30 21 H -3.057 1.6839 -0.7141 0
M  V30 22 H -1.4089 1.8106 -1.4185 0
M  V30 23 H -2.2262 -1.4552 0.3375 0
M  V30 24 H -1.9068 -0.8281 1.9941 0
M  V30 25 H -3.376 -0.3017 1.1001 0
M  V30 END ATOM
M  V30 BEGIN BOND
M  V30 1 1 1 2
M  V30 2 2 2 3
M  V30 3 1 2 4
M  V30 4 1 3 5
M  V30 5 2 4 6
M  V30 6 2 5 7
M  V30 7 1 5 8
M  V30 8 1 7 9
M  V30 9 1 9 10
M  V30 10 1 9 11
M  V30 11 1 6 7
M  V30 12 1 1 12
M  V30 13 1 3 13
M  V30 14 1 4 14
M  V30 15 1 6 15
M  V30 16 1 8 16
M  V30 17 1 8 17
M  V30 18 1 8 18
M  V30 19 1 9 19
M  V30 20 1 10 20
M  V30 21 1 10 21
M  V30 22 1 10 22
M  V30 23 1 11 23
M  V30 24 1 11 24
M  V30 25 1 11 25
M  V30 END BOND
M  V30 END CTAB
M  END
>  <Structure No>
715

>  <LogS>
-2.854511354

>  <MMFF94 Energy>
16.853

$$$$
Compound 716
Actelion Java MolfileCreator 2.0

  0  0  0  0  0  0              0 V3000
M  V30 BEGIN CTAB
M  V30 COUNTS 34 34 0 0 0
M  V30 BEGIN ATOM
M  V30 1 O 0.0 1.7289 -0.5498 0
M  V30 2 C 0.1237 0.7994 0.5177 0 CFG=1
M  V30 3 C -0.1222 3.0468 -0.0606 0
M  V30 4 C -0.6278 -0.5144 0.1515 0 CFG=1
M  V30 5 C 1.6133 0.5142 0.7951 0
M  V30 6 C -2.1483 -0.2613 -0.1346 0
M  V30 7 C 0.078 -1.2079 -1.0437 0
M  V30 8 C 2.2947 -0.158 -0.4081 0 CFG=2
M  V30 9 C -2.8858 -1.5497 -0.5472 0
M  V30 10 C -2.8671 0.3445 1.0859 0
M  V30 11 C 1.5642 -1.4607 -0.7641 0
M  V30 12 C 3.7713 -0.4347 -0.1052 0
M  V30 13 H -0.3024 1.1798 1.4759 0
M  V30 14 H -0.1193 3.745 -0.9223 0
M  V30 15 H 0.7304 3.3214 0.5978 0
M  V30 16 H -1.085 3.1808 0.4776 0
M  V30 17 H -0.5586 -1.2023 1.0251 0
M  V30 18 H 2.1356 1.4656 1.0337 0
M  V30 19 H 1.6976 -0.1417 1.6904 0
M  V30 20 H -2.2449 0.4592 -0.9765 0
M  V30 21 H -0.0292 -0.5896 -1.9619 0
M  V30 22 H -0.3799 -2.1989 -1.2408 0
M  V30 23 H 2.251 0.53 -1.2821 0
M  V30 24 H -3.9824 -1.3786 -0.5977 0
M  V30 25 H -2.6873 -2.3655 0.1804 0
M  V30 26 H -2.5763 -1.873 -1.5621 0
M  V30 27 H -2.5251 1.3805 1.2773 0
M  V30 28 H -3.9617 0.4076 0.9065 0
M  V30 29 H -2.6915 -0.2746 1.9915 0
M  V30 30 H 2.0267 -1.9116 -1.6693 0
M  V30 31 H 1.6605 -2.1921 0.0693 0
M  V30 32 H 3.8736 -1.1195 0.764 0
M  V30 33 H 4.299 0.5157 0.1229 0
M  V30 34 H 4.2615 -0.8992 -0.9872 0
M  V30 END ATOM
M  V30 BEGIN BOND
M  V30 1 1 1 2
M  V30 2 1 1 3
M  V30 3 1 2 4
M  V30 4 1 2 5
M  V30 5 1 4 6
M  V30 6 1 4 7
M  V30 7 1 5 8
M  V30 8 1 6 9
M  V30 9 1 6 10
M  V30 10 1 7 11
M  V30 11 1 8 12
M  V30 12 1 8 11
M  V30 13 1 2 13
M  V30 14 1 3 14
M  V30 15 1 3 15
M  V30 16 1 3 16
M  V30 17 1 4 17
M  V30 18 1 5 18
M  V30 19 1 5 19
M  V30 20 1 6 20
M  V30 21 1 7 21
M  V30 22 1 7 22
M  V30 23 1 8 23
M  V30 24 1 9 24
M  V30 25 1 9 25
M  V30 26 1 9 26
M  V30 27 1 10 27
M  V30 28 1 10 28
M  V30 29 1 10 29
M  V30 30 1 11 30
M  V30 31 1 11 31
M  V30 32 1 12 32
M  V30 33 1 12 33
M  V30 34 1 12 34
M  V30 END BOND
M  V30 BEGIN COLLECTION
M  V30 MDLV30/STEABS ATOMS=(3 2 4 8)
M  V30 END COLLECTION
M  V30 END CTAB
M  END
>  <Structure No>
716

>  <LogS>
-3.930174452

>  <MMFF94 Energy>
26.479

$$$$
Compound 717
Actelion Java MolfileCreator 2.0

  0  0  0  0  0  0              0 V3000
M  V30 BEGIN CTAB
M  V30 COUNTS 26 27 0 0 0
M  V30 BEGIN ATOM
M  V30 1 C 1.9908 -0.2387 0.0 0
M  V30 2 C 1.5118 -1.3229 0.6329 0
M  V30 3 C 1.0451 0.7983 -0.5594 0
M  V30 4 C 3.4779 -0.0669 -0.1509 0
M  V30 5 C 0.036 -1.5462 0.8059 0
M  V30 6 C -0.176 1.0237 0.3595 0 CFG=2
M  V30 7 C -0.7158 -0.2285 1.0882 0 CFG=1
M  V30 8 C -1.5507 0.4447 -0.0138 0
M  V30 9 C -2.7451 1.2575 0.4978 0
M  V30 10 C -1.7572 -0.2558 -1.3704 0
M  V30 11 H 2.1983 -2.0588 1.0436 0
M  V30 12 H 0.7678 0.5313 -1.5955 0
M  V30 13 H 1.5748 1.7711 -0.6398 0
M  V30 14 H 3.9511 0.0039 0.8511 0
M  V30 15 H 3.7216 0.8529 -0.7225 0
M  V30 16 H 3.9034 -0.9369 -0.6944 0
M  V30 17 H -0.1107 -2.215 1.68 0
M  V30 18 H -0.365 -2.1015 -0.0613 0
M  V30 19 H -0.1664 1.9239 1.012 0
M  V30 20 H -1.0026 -0.0172 2.1415 0
M  V30 21 H -2.5389 1.7387 1.4783 0
M  V30 22 H -3.6245 0.5901 0.6146 0
M  V30 23 H -2.9938 2.0526 -0.2358 0
M  V30 24 H -2.6214 -0.948 -1.2924 0
M  V30 25 H -1.9914 0.5083 -2.1406 0
M  V30 26 H -0.8922 -0.8405 -1.7318 0
M  V30 END ATOM
M  V30 BEGIN BOND
M  V30 1 2 1 2
M  V30 2 1 1 3
M  V30 3 1 1 4
M  V30 4 1 2 5
M  V30 5 1 3 6
M  V30 6 1 5 7
M  V30 7 1 6 8
M  V30 8 1 8 9
M  V30 9 1 8 10
M  V30 10 1 6 7
M  V30 11 1 7 8
M  V30 12 1 2 11
M  V30 13 1 3 12
M  V30 14 1 3 13
M  V30 15 1 4 14
M  V30 16 1 4 15
M  V30 17 1 4 16
M  V30 18 1 5 17
M  V30 19 1 5 18
M  V30 20 1 6 19
M  V30 21 1 7 20
M  V30 22 1 9 21
M  V30 23 1 9 22
M  V30 24 1 9 23
M  V30 25 1 10 24
M  V30 26 1 10 25
M  V30 27 1 10 26
M  V30 END BOND
M  V30 BEGIN COLLECTION
M  V30 MDLV30/STEABS ATOMS=(2 6 7)
M  V30 END COLLECTION
M  V30 END CTAB
M  END
>  <Structure No>
717

>  <LogS>
-4.670405271

>  <MMFF94 Energy>
38.366

$$$$
Compound 718
Actelion Java MolfileCreator 2.0

  0  0  0  0  0  0              0 V3000
M  V30 BEGIN CTAB
M  V30 COUNTS 42 42 0 0 0
M  V30 BEGIN ATOM
M  V30 1 O -2.7539 2.5176 0.7075 0
M  V30 2 C -2.26 2.1602 -0.3513 0
M  V30 3 C -0.8781 2.6335 -0.731 0
M  V30 4 C -3.0741 1.2995 -1.2844 0
M  V30 5 C 0.101 2.5436 0.4471 0
M  V30 6 C -3.1975 -0.1383 -0.7612 0
M  V30 7 C 1.4977 2.9009 0.0023 0
M  V30 8 C -1.9187 -0.9617 -1.0137 0
M  V30 9 C 2.4112 2.0211 -0.4499 0
M  V30 10 C -1.5876 -1.8799 0.1674 0
M  V30 11 C 2.2324 0.5245 -0.4667 0
M  V30 12 C -0.3061 -2.6964 -0.0977 0
M  V30 13 C 2.9654 -0.1122 0.7221 0
M  V30 14 C 0.4756 -3.0007 1.1923 0
M  V30 15 C 2.606 -1.5966 0.8892 0
M  V30 16 C 1.2963 -1.7939 1.684 0
M  V30 17 H -0.9479 3.6906 -1.0664 0
M  V30 18 H -0.4919 2.0347 -1.5837 0
M  V30 19 H -2.634 1.295 -2.3053 0
M  V30 20 H -4.0898 1.742 -1.3714 0
M  V30 21 H -0.2082 3.2775 1.222 0
M  V30 22 H 0.0666 1.5433 0.9267 0
M  V30 23 H -3.4652 -0.1143 0.3171 0
M  V30 24 H -4.0426 -0.6345 -1.2849 0
M  V30 25 H 1.7626 3.9545 0.0011 0
M  V30 26 H -1.0528 -0.2897 -1.1844 0
M  V30 27 H -2.0507 -1.5708 -1.9335 0
M  V30 28 H 3.3779 2.4062 -0.7581 0
M  V30 29 H -2.4352 -2.5763 0.3492 0
M  V30 30 H -1.4759 -1.2498 1.0754 0
M  V30 31 H 1.1632 0.2408 -0.4777 0
M  V30 32 H 2.6687 0.1319 -1.4112 0
M  V30 33 H -0.5961 -3.657 -0.5752 0
M  V30 34 H 0.3574 -2.1729 -0.8188 0
M  V30 35 H 2.7345 0.4386 1.6604 0
M  V30 36 H 4.0589 -0.0302 0.543 0
M  V30 37 H 1.1568 -3.8605 1.0172 0
M  V30 38 H -0.2369 -3.3091 1.9876 0
M  V30 39 H 3.4281 -2.102 1.4431 0
M  V30 40 H 2.5621 -2.0796 -0.1107 0
M  V30 41 H 1.5574 -1.957 2.7523 0
M  V30 42 H 0.6717 -0.8773 1.6576 0
M  V30 END ATOM
M  V30 BEGIN BOND
M  V30 1 2 1 2
M  V30 2 1 2 3
M  V30 3 1 2 4
M  V30 4 1 3 5
M  V30 5 1 4 6
M  V30 6 1 5 7
M  V30 7 1 6 8
M  V30 8 2 7 9
M  V30 9 1 8 10
M  V30 10 1 9 11
M  V30 11 1 10 12
M  V30 12 1 11 13
M  V30 13 1 12 14
M  V30 14 1 13 15
M  V30 15 1 14 16
M  V30 16 1 15 16
M  V30 17 1 3 17
M  V30 18 1 3 18
M  V30 19 1 4 19
M  V30 20 1 4 20
M  V30 21 1 5 21
M  V30 22 1 5 22
M  V30 23 1 6 23
M  V30 24 1 6 24
M  V30 25 1 7 25
M  V30 26 1 8 26
M  V30 27 1 8 27
M  V30 28 1 9 28
M  V30 29 1 10 29
M  V30 30 1 10 30
M  V30 31 1 11 31
M  V30 32 1 11 32
M  V30 33 1 12 33
M  V30 34 1 12 34
M  V30 35 1 13 35
M  V30 36 1 13 36
M  V30 37 1 14 37
M  V30 38 1 14 38
M  V30 39 1 15 39
M  V30 40 1 15 40
M  V30 41 1 16 41
M  V30 42 1 16 42
M  V30 END BOND
M  V30 END CTAB
M  END
>  <Structure No>
718

>  <LogS>
-4.883187113

>  <MMFF94 Energy>
17.3

$$$$
Compound 719
Actelion Java MolfileCreator 2.0

  0  0  0  0  0  0              0 V3000
M  V30 BEGIN CTAB
M  V30 COUNTS 29 30 0 0 0
M  V30 BEGIN ATOM
M  V30 1 O 0.0 0.6327 0.0 0
M  V30 2 C -1.2162 -0.0567 -0.1291 0
M  V30 3 C 1.2584 0.04 0.1908 0
M  V30 4 C -2.405 0.5575 0.3117 0
M  V30 5 C -1.2768 -1.3264 -0.7333 0
M  V30 6 C 2.4056 0.6859 -0.3104 0
M  V30 7 C 1.4001 -1.1592 0.9135 0
M  V30 8 C -3.6282 -0.1215 0.1813 0
M  V30 9 C -2.361 1.9186 0.9467 0
M  V30 10 C -2.4993 -1.9892 -0.8629 0
M  V30 11 C 3.6702 0.1039 -0.1194 0
M  V30 12 C 2.2745 1.9742 -1.0724 0
M  V30 13 C 2.6629 -1.7251 1.102 0
M  V30 14 C -3.6723 -1.3898 -0.402 0
M  V30 15 C 3.7954 -1.097 0.5824 0
M  V30 16 H -0.3819 -1.7957 -1.1201 0
M  V30 17 H 0.5367 -1.6471 1.3462 0
M  V30 18 H -4.549 0.3301 0.5289 0
M  V30 19 H -1.7913 1.8666 1.8982 0
M  V30 20 H -1.8618 2.6369 0.2626 0
M  V30 21 H -3.3807 2.3008 1.1662 0
M  V30 22 H -2.5378 -2.9665 -1.3262 0
M  V30 23 H 4.5604 0.5797 -0.5114 0
M  V30 24 H 1.7122 1.7941 -2.0127 0
M  V30 25 H 1.7268 2.7203 -0.4586 0
M  V30 26 H 3.2675 2.3997 -1.3306 0
M  V30 27 H 2.764 -2.6489 1.6568 0
M  V30 28 H -4.6183 -1.906 -0.5026 0
M  V30 29 H 4.7728 -1.5381 0.729 0
M  V30 END ATOM
M  V30 BEGIN BOND
M  V30 1 1 1 2
M  V30 2 1 1 3
M  V30 3 2 2 4
M  V30 4 1 2 5
M  V30 5 2 3 6
M  V30 6 1 3 7
M  V30 7 1 4 8
M  V30 8 1 4 9
M  V30 9 2 5 10
M  V30 10 1 6 11
M  V30 11 1 6 12
M  V30 12 2 7 13
M  V30 13 2 8 14
M  V30 14 2 11 15
M  V30 15 1 10 14
M  V30 16 1 13 15
M  V30 17 1 5 16
M  V30 18 1 7 17
M  V30 19 1 8 18
M  V30 20 1 9 19
M  V30 21 1 9 20
M  V30 22 1 9 21
M  V30 23 1 10 22
M  V30 24 1 11 23
M  V30 25 1 12 24
M  V30 26 1 12 25
M  V30 27 1 12 26
M  V30 28 1 13 27
M  V30 29 1 14 28
M  V30 30 1 15 29
M  V30 END BOND
M  V30 END CTAB
M  END
>  <Structure No>
719

>  <LogS>
-4.843927714

>  <MMFF94 Energy>
48.616

$$$$
Compound 720
Actelion Java MolfileCreator 2.0

  0  0  0  0  0  0              0 V3000
M  V30 BEGIN CTAB
M  V30 COUNTS 27 28 0 0 0
M  V30 BEGIN ATOM
M  V30 1 C 0.7904 0.237 -0.079 0
M  V30 2 C 1.9161 -0.6344 -0.1264 0
M  V30 3 C -0.5266 -0.3172 -0.1235 0
M  V30 4 C 1.0314 1.6276 0.0308 0
M  V30 5 C 1.7317 -2.0209 -0.168 0
M  V30 6 C 3.2187 -0.1108 -0.1138 0
M  V30 7 C -0.6629 -1.7228 -0.105 0
M  V30 8 C -1.7824 0.5599 -0.1156 0
M  V30 9 C 2.335 2.1292 0.0475 0
M  V30 10 C 0.4506 -2.5582 -0.1397 0
M  V30 11 C 3.424 1.265 -0.0326 0
M  V30 12 C -2.9562 -0.0332 -0.9148 0
M  V30 13 C -2.2097 0.8588 1.3247 0
M  V30 14 H 0.2342 2.3472 0.1306 0
M  V30 15 H 2.582 -2.6921 -0.1991 0
M  V30 16 H 4.0796 -0.7677 -0.1575 0
M  V30 17 H -1.6356 -2.1912 -0.0682 0
M  V30 18 H -1.5692 1.5202 -0.6257 0
M  V30 19 H 2.5012 3.1958 0.1301 0
M  V30 20 H 0.318 -3.6325 -0.144 0
M  V30 21 H 4.431 1.6617 -0.0186 0
M  V30 22 H -2.6082 -0.3783 -1.9119 0
M  V30 23 H -3.4338 -0.8788 -0.3767 0
M  V30 24 H -3.7344 0.7444 -1.0725 0
M  V30 25 H -2.4747 -0.0808 1.8553 0
M  V30 26 H -1.3847 1.3585 1.8756 0
M  V30 27 H -3.0904 1.5361 1.3312 0
M  V30 END ATOM
M  V30 BEGIN BOND
M  V30 1 1 1 2
M  V30 2 1 1 3
M  V30 3 2 1 4
M  V30 4 1 2 5
M  V30 5 2 2 6
M  V30 6 2 3 7
M  V30 7 1 3 8
M  V30 8 1 4 9
M  V30 9 2 5 10
M  V30 10 1 6 11
M  V30 11 1 8 12
M  V30 12 1 8 13
M  V30 13 1 7 10
M  V30 14 2 9 11
M  V30 15 1 4 14
M  V30 16 1 5 15
M  V30 17 1 6 16
M  V30 18 1 7 17
M  V30 19 1 8 18
M  V30 20 1 9 19
M  V30 21 1 10 20
M  V30 22 1 11 21
M  V30 23 1 12 22
M  V30 24 1 12 23
M  V30 25 1 12 24
M  V30 26 1 13 25
M  V30 27 1 13 26
M  V30 28 1 13 27
M  V30 END BOND
M  V30 END CTAB
M  END
>  <Structure No>
720

>  <LogS>
-4.782393555

>  <MMFF94 Energy>
42.48

$$$$
Compound 721
Actelion Java MolfileCreator 2.0

  0  0  0  0  0  0              0 V3000
M  V30 BEGIN CTAB
M  V30 COUNTS 61 63 0 0 0
M  V30 BEGIN ATOM
M  V30 1 O -0.0792 -0.7931 3.4141 0
M  V30 2 C -0.1107 -0.2958 2.254 0
M  V30 3 C 1.1315 -0.3637 1.4568 0
M  V30 4 C -1.4331 0.3232 1.7327 0 CFG=2
M  V30 5 C 1.2469 -1.2578 0.3845 0
M  V30 6 C 2.2117 0.4693 1.7792 0
M  V30 7 N -1.9987 1.1826 2.8498 0 CHG=1
M  V30 8 C -2.3648 -0.9389 1.4494 0
M  V30 9 C -1.0891 1.1647 0.4355 0
M  V30 10 C 2.402 -1.2696 -0.4016 0
M  V30 11 C 3.3716 0.4523 0.9999 0
M  V30 12 C -1.1152 2.3056 3.2418 0
M  V30 13 C -3.3672 1.7086 2.6551 0
M  V30 14 C -3.1772 -0.9748 0.1676 0
M  V30 15 C -2.1863 2.0278 -0.2017 0
M  V30 16 C 3.4702 -0.4046 -0.1093 0
M  V30 17 C -2.5615 -1.3008 -1.0534 0
M  V30 18 C -4.5727 -0.7942 0.1895 0
M  V30 19 N 4.6321 -0.3784 -0.9584 0
M  V30 20 C -3.3042 -1.35 -2.2357 0
M  V30 21 C -5.314 -0.8386 -0.9947 0
M  V30 22 C 5.9673 -0.2306 -0.3735 0
M  V30 23 C 4.4718 -0.0429 -2.3769 0
M  V30 24 C -4.6803 -1.09 -2.218 0
M  V30 25 C 7.0147 -0.8067 -1.3302 0
M  V30 26 C 5.6453 -0.6064 -3.187 0
M  V30 27 C -5.4847 -1.1845 -3.4809 0
M  V30 28 O 6.8845 -0.2309 -2.6159 0
M  V30 29 H 0.4412 -1.9387 0.1505 0
M  V30 30 H 2.1482 1.1494 2.6206 0
M  V30 31 H -2.0753 0.5751 3.7006 0
M  V30 32 H -3.0397 -1.1022 2.3163 0
M  V30 33 H -1.7665 -1.8772 1.4346 0
M  V30 34 H -0.2342 1.8438 0.6467 0
M  V30 35 H -0.7101 0.4844 -0.3509 0
M  V30 36 H 2.4702 -1.9606 -1.2318 0
M  V30 37 H 4.1817 1.1265 1.2483 0
M  V30 38 H -0.0928 1.9572 3.4913 0
M  V30 39 H -1.0463 3.0712 2.4405 0
M  V30 40 H -1.5069 2.805 4.1558 0
M  V30 41 H -3.3854 2.6345 2.05 0
M  V30 42 H -3.8109 1.9801 3.6395 0
M  V30 43 H -4.0425 0.9673 2.2082 0
M  V30 44 H -2.1712 3.0517 0.225 0
M  V30 45 H -1.984 2.1344 -1.2884 0
M  V30 46 H -3.197 1.5963 -0.0907 0
M  V30 47 H -1.5083 -1.5312 -1.0936 0
M  V30 48 H -5.0987 -0.6376 1.1207 0
M  V30 49 H -2.8051 -1.596 -3.1645 0
M  V30 50 H -6.3857 -0.6889 -0.9545 0
M  V30 51 H 6.1788 0.8463 -0.2067 0
M  V30 52 H 6.0254 -0.7618 0.601 0
M  V30 53 H 3.5204 -0.4449 -2.7827 0
M  V30 54 H 4.4545 1.0626 -2.4845 0
M  V30 55 H 6.9331 -1.9169 -1.3746 0
M  V30 56 H 8.0257 -0.5683 -0.939 0
M  V30 57 H 5.5902 -0.1819 -4.2135 0
M  V30 58 H 5.567 -1.7138 -3.288 0
M  V30 59 H -6.3581 -0.4976 -3.4425 0
M  V30 60 H -5.8489 -2.2252 -3.6081 0
M  V30 61 H -4.8662 -0.9044 -4.3615 0
M  V30 END ATOM
M  V30 BEGIN BOND
M  V30 1 2 1 2
M  V30 2 1 2 3
M  V30 3 1 2 4
M  V30 4 2 3 5
M  V30 5 1 3 6
M  V30 6 1 4 7
M  V30 7 1 4 8
M  V30 8 1 4 9
M  V30 9 1 5 10
M  V30 10 2 6 11
M  V30 11 1 7 12
M  V30 12 1 7 13
M  V30 13 1 8 14
M  V30 14 1 9 15
M  V30 15 2 10 16
M  V30 16 2 14 17
M  V30 17 1 14 18
M  V30 18 1 16 19
M  V30 19 1 17 20
M  V30 20 2 18 21
M  V30 21 1 19 22
M  V30 22 1 19 23
M  V30 23 2 20 24
M  V30 24 1 22 25
M  V30 25 1 23 26
M  V30 26 1 24 27
M  V30 27 1 25 28
M  V30 28 1 11 16
M  V30 29 1 21 24
M  V30 30 1 26 28
M  V30 31 1 5 29
M  V30 32 1 6 30
M  V30 33 1 7 31
M  V30 34 1 8 32
M  V30 35 1 8 33
M  V30 36 1 9 34
M  V30 37 1 9 35
M  V30 38 1 10 36
M  V30 39 1 11 37
M  V30 40 1 12 38
M  V30 41 1 12 39
M  V30 42 1 12 40
M  V30 43 1 13 41
M  V30 44 1 13 42
M  V30 45 1 13 43
M  V30 46 1 15 44
M  V30 47 1 15 45
M  V30 48 1 15 46
M  V30 49 1 17 47
M  V30 50 1 18 48
M  V30 51 1 20 49
M  V30 52 1 21 50
M  V30 53 1 22 51
M  V30 54 1 22 52
M  V30 55 1 23 53
M  V30 56 1 23 54
M  V30 57 1 25 55
M  V30 58 1 25 56
M  V30 59 1 26 57
M  V30 60 1 26 58
M  V30 61 1 27 59
M  V30 62 1 27 60
M  V30 63 1 27 61
M  V30 END BOND
M  V30 BEGIN COLLECTION
M  V30 MDLV30/STEABS ATOMS=(1 4)
M  V30 END COLLECTION
M  V30 END CTAB
M  END
>  <Structure No>
721

>  <LogS>
-5.133233152

>  <MMFF94 Energy>
192.87

$$$$
Compound 722
Actelion Java MolfileCreator 2.0

  0  0  0  0  0  0              0 V3000
M  V30 BEGIN CTAB
M  V30 COUNTS 32 33 0 0 0
M  V30 BEGIN ATOM
M  V30 1 O 4.1004 -2.9735 1.044 0
M  V30 2 N 2.9049 -2.6288 0.945 0 CHG=1
M  V30 3 O 1.9301 -3.5412 1.2794 0 CHG=-1
M  V30 4 C 2.5407 -1.3232 0.4473 0
M  V30 5 C 3.4961 -0.2859 0.3214 0
M  V30 6 C 1.205 -1.0757 0.0766 0
M  V30 7 O 4.8249 -0.5168 0.7153 0
M  V30 8 C 3.0937 0.9622 -0.1903 0
M  V30 9 C 0.8067 0.1782 -0.4156 0
M  V30 10 C 5.8739 0.4435 0.6401 0
M  V30 11 C 1.7679 1.1875 -0.558 0
M  V30 12 C -0.5973 0.4415 -0.8135 0
M  V30 13 O -0.8218 1.2502 -1.7552 0
M  V30 14 N -1.6957 -0.2132 -0.1503 0
M  V30 15 C -3.0791 0.0617 -0.4297 0
M  V30 16 C -3.5344 1.3716 -0.6708 0
M  V30 17 C -4.0091 -0.9893 -0.3959 0
M  V30 18 C -4.8905 1.6131 -0.9131 0
M  V30 19 C -5.364 -0.7439 -0.6396 0
M  V30 20 C -5.8039 0.5558 -0.9024 0
M  V30 21 H 0.4857 -1.8802 0.1369 0
M  V30 22 H 3.8 1.7729 -0.3044 0
M  V30 23 H 6.0309 0.756 -0.4138 0
M  V30 24 H 6.8111 -0.014 1.0176 0
M  V30 25 H 5.6307 1.3252 1.2701 0
M  V30 26 H 1.4896 2.1618 -0.9413 0
M  V30 27 H -1.496 -0.9682 0.5416 0
M  V30 28 H -2.8517 2.2101 -0.6447 0
M  V30 29 H -3.6803 -2.0003 -0.1909 0
M  V30 30 H -5.2351 2.6222 -1.0992 0
M  V30 31 H -6.0733 -1.5613 -0.6221 0
M  V30 32 H -6.8532 0.745 -1.0883 0
M  V30 END ATOM
M  V30 BEGIN BOND
M  V30 1 2 1 2
M  V30 2 1 2 3
M  V30 3 1 2 4
M  V30 4 2 4 5
M  V30 5 1 4 6
M  V30 6 1 5 7
M  V30 7 1 5 8
M  V30 8 2 6 9
M  V30 9 1 7 10
M  V30 10 2 8 11
M  V30 11 1 9 12
M  V30 12 2 12 13
M  V30 13 1 12 14
M  V30 14 1 14 15
M  V30 15 2 15 16
M  V30 16 1 15 17
M  V30 17 1 16 18
M  V30 18 2 17 19
M  V30 19 2 18 20
M  V30 20 1 9 11
M  V30 21 1 19 20
M  V30 22 1 6 21
M  V30 23 1 8 22
M  V30 24 1 10 23
M  V30 25 1 10 24
M  V30 26 1 10 25
M  V30 27 1 11 26
M  V30 28 1 14 27
M  V30 29 1 16 28
M  V30 30 1 17 29
M  V30 31 1 18 30
M  V30 32 1 19 31
M  V30 33 1 20 32
M  V30 END BOND
M  V30 END CTAB
M  END
>  <Structure No>
722

>  <LogS>
-4.987825809

>  <MMFF94 Energy>
65.586

$$$$
Compound 723
Actelion Java MolfileCreator 2.0

  0  0  0  0  0  0              0 V3000
M  V30 BEGIN CTAB
M  V30 COUNTS 11 11 0 0 0
M  V30 BEGIN ATOM
M  V30 1 O -0.3983 2.3921 0.0 0
M  V30 2 C -0.1896 1.1492 -0.0136 0
M  V30 3 N -1.238 0.2837 -0.0327 0
M  V30 4 N 1.084 0.6734 -0.0094 0
M  V30 5 C -1.0114 -1.0562 -0.0474 0
M  V30 6 C 1.3075 -0.667 -0.0242 0
M  V30 7 O -1.9786 -1.8624 -0.0651 0
M  V30 8 N 0.26 -1.5286 -0.0432 0 CHG=-1
M  V30 9 O 2.485 -1.1132 -0.0204 0
M  V30 10 H -2.218 0.6487 -0.0358 0
M  V30 11 H 1.8911 1.3384 0.0052 0
M  V30 END ATOM
M  V30 BEGIN BOND
M  V30 1 2 1 2
M  V30 2 1 2 3
M  V30 3 1 2 4
M  V30 4 1 3 5
M  V30 5 1 4 6
M  V30 6 2 5 7
M  V30 7 1 5 8
M  V30 8 2 6 9
M  V30 9 1 6 8
M  V30 10 1 3 10
M  V30 11 1 4 11
M  V30 END BOND
M  V30 END CTAB
M  END
>  <Structure No>
723

>  <LogS>
-4.975513502

>  <MMFF94 Energy>
-154.75

$$$$
Compound 724
Actelion Java MolfileCreator 2.0

  0  0  0  0  0  0              0 V3000
M  V30 BEGIN CTAB
M  V30 COUNTS 24 25 0 0 0
M  V30 BEGIN ATOM
M  V30 1 Cl 5.3379 0.2459 0.0819 0
M  V30 2 C 3.5909 0.0893 0.0855 0
M  V30 3 C 2.928 -0.3312 1.243 0
M  V30 4 C 2.8596 0.3816 -1.0701 0
M  V30 5 C 1.5354 -0.4569 1.2475 0
M  V30 6 C 1.467 0.2569 -1.0689 0
M  V30 7 C 0.7927 -0.1539 0.0939 0
M  V30 8 C -0.6809 -0.3051 0.0926 0
M  V30 9 C -1.5494 0.7472 -0.3033 0
M  V30 10 C -1.2263 -1.5543 0.4388 0
M  V30 11 N -1.0601 2.0705 -0.5874 0 CHG=1
M  V30 12 C -2.9313 0.4997 -0.3836 0
M  V30 13 C -2.6028 -1.7732 0.3699 0
M  V30 14 O -0.1083 2.5492 0.0633 0
M  V30 15 O -1.7523 2.891 -1.4482 0 CHG=-1
M  V30 16 C -3.4526 -0.7508 -0.0482 0
M  V30 17 H 3.4901 -0.5613 2.1391 0
M  V30 18 H 3.3688 0.702 -1.9701 0
M  V30 19 H 1.0353 -0.7812 2.152 0
M  V30 20 H 0.9146 0.4756 -1.9745 0
M  V30 21 H -0.5804 -2.3707 0.7389 0
M  V30 22 H -3.6127 1.2861 -0.6826 0
M  V30 23 H -3.01 -2.7414 0.6311 0
M  V30 24 H -4.5194 -0.9247 -0.1048 0
M  V30 END ATOM
M  V30 BEGIN BOND
M  V30 1 1 1 2
M  V30 2 2 2 3
M  V30 3 1 2 4
M  V30 4 1 3 5
M  V30 5 2 4 6
M  V30 6 2 5 7
M  V30 7 1 7 8
M  V30 8 2 8 9
M  V30 9 1 8 10
M  V30 10 1 9 11
M  V30 11 1 9 12
M  V30 12 2 10 13
M  V30 13 2 11 14
M  V30 14 1 11 15
M  V30 15 2 12 16
M  V30 16 1 6 7
M  V30 17 1 13 16
M  V30 18 1 3 17
M  V30 19 1 4 18
M  V30 20 1 5 19
M  V30 21 1 6 20
M  V30 22 1 10 21
M  V30 23 1 12 22
M  V30 24 1 13 23
M  V30 25 1 16 24
M  V30 END BOND
M  V30 END CTAB
M  END
>  <Structure No>
724

>  <LogS>
-4.937209456

>  <MMFF94 Energy>
70.002

$$$$
Compound 725
Actelion Java MolfileCreator 2.0

  0  0  0  0  0  0              0 V3000
M  V30 BEGIN CTAB
M  V30 COUNTS 43 44 0 0 0
M  V30 BEGIN ATOM
M  V30 1 O 3.5115 -0.4782 1.9142 0
M  V30 2 C 2.8589 -1.0861 1.0781 0
M  V30 3 C 1.8896 -0.3429 0.1369 0 CFG=2
M  V30 4 C 3.0402 -2.5805 1.016 0
M  V30 5 C 1.8289 1.2099 0.5044 0 CFG=2
M  V30 6 C 0.4759 -1.0157 0.2858 0
M  V30 7 C 2.4059 -0.5592 -1.3087 0
M  V30 8 C 0.6986 1.4685 1.5231 0
M  V30 9 C 1.6627 2.1675 -0.7009 0
M  V30 10 C -0.692 -0.047 0.1587 0
M  V30 11 C -0.6273 1.0918 0.9006 0
M  V30 12 C -1.9433 -0.436 -0.6526 0
M  V30 13 C -1.7421 2.1099 0.9312 0
M  V30 14 C -2.9645 0.7355 -0.7447 0
M  V30 15 C -1.5445 -0.8133 -2.0979 0
M  V30 16 C -2.6158 -1.6547 0.0165 0
M  V30 17 C -3.0897 1.4959 0.5716 0
M  V30 18 H 2.3667 -3.0542 0.2742 0
M  V30 19 H 4.0901 -2.8141 0.7416 0
M  V30 20 H 2.8206 -3.0205 2.0113 0
M  V30 21 H 2.7794 1.5366 0.9772 0
M  V30 22 H 0.374 -1.8761 -0.4036 0
M  V30 23 H 0.3797 -1.4579 1.3033 0
M  V30 24 H 3.4016 -0.0843 -1.4412 0
M  V30 25 H 1.6976 -0.1422 -2.0545 0
M  V30 26 H 2.5134 -1.637 -1.5499 0
M  V30 27 H 0.8646 0.8522 2.4332 0
M  V30 28 H 0.7019 2.5347 1.8405 0
M  V30 29 H 0.7763 1.9028 -1.3147 0
M  V30 30 H 1.5386 3.2134 -0.3466 0
M  V30 31 H 2.5677 2.1511 -1.3428 0
M  V30 32 H -1.5008 2.9262 0.2159 0
M  V30 33 H -1.8125 2.553 1.948 0
M  V30 34 H -2.6473 1.4607 -1.5288 0
M  V30 35 H -3.9672 0.3606 -1.0468 0
M  V30 36 H -0.9716 -1.7615 -2.143 0
M  V30 37 H -0.9276 -0.0082 -2.5526 0
M  V30 38 H -2.4506 -0.9545 -2.7266 0
M  V30 39 H -3.543 -1.9408 -0.5253 0
M  V30 40 H -2.8787 -1.4332 1.0721 0
M  V30 41 H -1.9386 -2.535 0.0139 0
M  V30 42 H -3.4315 0.8201 1.3845 0
M  V30 43 H -3.8434 2.3054 0.4615 0
M  V30 END ATOM
M  V30 BEGIN BOND
M  V30 1 2 1 2
M  V30 2 1 2 3
M  V30 3 1 2 4
M  V30 4 1 3 5
M  V30 5 1 3 6
M  V30 6 1 3 7
M  V30 7 1 5 8
M  V30 8 1 5 9
M  V30 9 1 6 10
M  V30 10 1 8 11
M  V30 11 1 10 12
M  V30 12 1 11 13
M  V30 13 1 12 14
M  V30 14 1 12 15
M  V30 15 1 12 16
M  V30 16 1 13 17
M  V30 17 2 10 11
M  V30 18 1 14 17
M  V30 19 1 4 18
M  V30 20 1 4 19
M  V30 21 1 4 20
M  V30 22 1 5 21
M  V30 23 1 6 22
M  V30 24 1 6 23
M  V30 25 1 7 24
M  V30 26 1 7 25
M  V30 27 1 7 26
M  V30 28 1 8 27
M  V30 29 1 8 28
M  V30 30 1 9 29
M  V30 31 1 9 30
M  V30 32 1 9 31
M  V30 33 1 13 32
M  V30 34 1 13 33
M  V30 35 1 14 34
M  V30 36 1 14 35
M  V30 37 1 15 36
M  V30 38 1 15 37
M  V30 39 1 15 38
M  V30 40 1 16 39
M  V30 41 1 16 40
M  V30 42 1 16 41
M  V30 43 1 17 42
M  V30 44 1 17 43
M  V30 END BOND
M  V30 BEGIN COLLECTION
M  V30 MDLV30/STEABS ATOMS=(2 3 5)
M  V30 END COLLECTION
M  V30 END CTAB
M  END
>  <Structure No>
725

>  <LogS>
-4.941791315

>  <MMFF94 Energy>
38.817

$$$$
Compound 726
Actelion Java MolfileCreator 2.0

  0  0  0  0  0  0              0 V3000
M  V30 BEGIN CTAB
M  V30 COUNTS 25 24 0 0 0
M  V30 BEGIN ATOM
M  V30 1 O -0.7827 -2.2713 1.6443 0
M  V30 2 C -1.0874 -1.8404 0.501 0
M  V30 3 O -1.4077 -2.7416 -0.5074 0 CHG=-1
M  V30 4 C -1.1033 -0.3589 0.2303 0 CFG=1
M  V30 5 C -0.0852 0.0075 -0.8784 0
M  V30 6 C -2.5394 0.0673 -0.1476 0
M  V30 7 C 1.365 -0.4161 -0.5753 0
M  V30 8 C -2.7319 1.5848 -0.1504 0
M  V30 9 C 1.9647 0.3317 0.6243 0
M  V30 10 C 3.4484 0.0133 0.7845 0
M  V30 11 H -0.8278 0.1749 1.1661 0
M  V30 12 H -0.0921 1.1044 -1.0497 0
M  V30 13 H -0.3955 -0.4729 -1.8324 0
M  V30 14 H -2.8124 -0.3377 -1.1467 0
M  V30 15 H -3.2523 -0.3582 0.5933 0
M  V30 16 H 1.9765 -0.1949 -1.4776 0
M  V30 17 H 1.4196 -1.5125 -0.4031 0
M  V30 18 H -3.8094 1.8188 -0.2826 0
M  V30 19 H -2.3927 2.0236 0.8118 0
M  V30 20 H -2.1768 2.0532 -0.9887 0
M  V30 21 H 1.8459 1.4282 0.4845 0
M  V30 22 H 1.4423 0.0341 1.5579 0
M  V30 23 H 3.5939 -1.0767 0.9411 0
M  V30 24 H 4.012 0.3333 -0.1176 0
M  V30 25 H 3.8522 0.5559 1.6652 0
M  V30 END ATOM
M  V30 BEGIN BOND
M  V30 1 2 1 2
M  V30 2 1 2 3
M  V30 3 1 2 4
M  V30 4 1 4 5
M  V30 5 1 4 6
M  V30 6 1 5 7
M  V30 7 1 6 8
M  V30 8 1 7 9
M  V30 9 1 9 10
M  V30 10 1 4 11
M  V30 11 1 5 12
M  V30 12 1 5 13
M  V30 13 1 6 14
M  V30 14 1 6 15
M  V30 15 1 7 16
M  V30 16 1 7 17
M  V30 17 1 8 18
M  V30 18 1 8 19
M  V30 19 1 8 20
M  V30 20 1 9 21
M  V30 21 1 9 22
M  V30 22 1 10 23
M  V30 23 1 10 24
M  V30 24 1 10 25
M  V30 END BOND
M  V30 BEGIN COLLECTION
M  V30 MDLV30/STEABS ATOMS=(1 4)
M  V30 END COLLECTION
M  V30 END CTAB
M  END
>  <Structure No>
726

>  <LogS>
-3.435168605

>  <MMFF94 Energy>
7.9576

$$$$
Compound 727
Actelion Java MolfileCreator 2.0

  0  0  0  0  0  0              0 V3000
M  V30 BEGIN CTAB
M  V30 COUNTS 25 26 0 0 0
M  V30 BEGIN ATOM
M  V30 1 Cl 1.0072 -2.0151 1.2591 0
M  V30 2 C 1.9288 -0.8197 0.3568 0
M  V30 3 C 1.4344 0.4842 0.1452 0
M  V30 4 C 3.2042 -1.1636 -0.1075 0
M  V30 5 O 0.1633 0.8717 0.5874 0
M  V30 6 C 2.2417 1.4328 -0.4937 0
M  V30 7 C 3.9934 -0.2164 -0.7677 0
M  V30 8 C -1.038 0.249 0.2118 0
M  V30 9 C 3.5133 1.0831 -0.9552 0
M  V30 10 Cl 5.5909 -0.6536 -1.3452 0
M  V30 11 C -2.1963 0.4683 0.9826 0
M  V30 12 C -1.1163 -0.5665 -0.9341 0
M  V30 13 N -2.1521 1.3021 2.1462 0
M  V30 14 C -3.4048 -0.1418 0.6137 0
M  V30 15 C -2.3243 -1.1692 -1.2916 0
M  V30 16 C -3.4679 -0.9597 -0.5178 0
M  V30 17 Cl -4.9838 -1.7178 -0.97 0
M  V30 18 H 3.5866 -2.1635 0.055 0
M  V30 19 H 1.8754 2.4403 -0.6449 0
M  V30 20 H 4.1241 1.8223 -1.4576 0
M  V30 21 H -0.2469 -0.7304 -1.5567 0
M  V30 22 H -1.2674 1.7655 2.4506 0
M  V30 23 H -3.0106 1.4633 2.7188 0
M  V30 24 H -4.2966 0.0194 1.2068 0
M  V30 25 H -2.3707 -1.796 -2.173 0
M  V30 END ATOM
M  V30 BEGIN BOND
M  V30 1 1 1 2
M  V30 2 2 2 3
M  V30 3 1 2 4
M  V30 4 1 3 5
M  V30 5 1 3 6
M  V30 6 2 4 7
M  V30 7 1 5 8
M  V30 8 2 6 9
M  V30 9 1 7 10
M  V30 10 2 8 11
M  V30 11 1 8 12
M  V30 12 1 11 13
M  V30 13 1 11 14
M  V30 14 2 12 15
M  V30 15 2 14 16
M  V30 16 1 16 17
M  V30 17 1 7 9
M  V30 18 1 15 16
M  V30 19 1 4 18
M  V30 20 1 6 19
M  V30 21 1 9 20
M  V30 22 1 12 21
M  V30 23 1 13 22
M  V30 24 1 13 23
M  V30 25 1 14 24
M  V30 26 1 15 25
M  V30 END BOND
M  V30 END CTAB
M  END
>  <Structure No>
727

>  <LogS>
-5.045264286

>  <MMFF94 Energy>
47.284

$$$$
Compound 728
Actelion Java MolfileCreator 2.0

  0  0  0  0  0  0              0 V3000
M  V30 BEGIN CTAB
M  V30 COUNTS 56 55 0 0 0
M  V30 BEGIN ATOM
M  V30 1 O 2.1947 1.6457 0.0783 0
M  V30 2 C 1.9009 0.4607 0.3973 0
M  V30 3 O 2.8758 -0.4096 0.8984 0
M  V30 4 C 0.5057 -0.0383 0.1952 0
M  V30 5 C 4.2543 -0.0618 1.0119 0
M  V30 6 C 0.3758 -0.7036 -1.1815 0
M  V30 7 C 4.9339 -0.1197 -0.3621 0
M  V30 8 C -1.002 -1.357 -1.4043 0
M  V30 9 C 6.3965 0.3493 -0.32 0
M  V30 10 C -2.0636 -0.3918 -1.9567 0
M  V30 11 C 7.314 -0.6418 0.4172 0
M  V30 12 C -2.541 0.5814 -0.9257 0
M  V30 13 C 8.8031 -0.3034 0.2456 0
M  V30 14 O -2.3805 1.8189 -1.1111 0
M  V30 15 O -3.1569 0.1052 0.237 0
M  V30 16 C 9.2063 0.9741 0.9821 0
M  V30 17 C -3.6736 0.9568 1.2586 0
M  V30 18 C -4.9822 1.6322 0.8206 0
M  V30 19 C -6.0518 0.6447 0.3217 0
M  V30 20 C -6.6087 -0.2441 1.4471 0
M  V30 21 C -7.6996 -1.2067 0.9512 0
M  V30 22 C -9.0191 -0.4993 0.641 0
M  V30 23 H -0.1973 0.8143 0.2871 0
M  V30 24 H 0.2678 -0.7724 0.9954 0
M  V30 25 H 4.7351 -0.7929 1.6941 0
M  V30 26 H 4.3566 0.9498 1.462 0
M  V30 27 H 1.148 -1.5017 -1.2564 0
M  V30 28 H 0.5879 0.0366 -1.9841 0
M  V30 29 H 4.8763 -1.1549 -0.7632 0
M  V30 30 H 4.3816 0.5401 -1.065 0
M  V30 31 H -0.8732 -2.1662 -2.1561 0
M  V30 32 H -1.3646 -1.8465 -0.4735 0
M  V30 33 H 6.4469 1.3501 0.1603 0
M  V30 34 H 6.7503 0.4588 -1.3686 0
M  V30 35 H -1.6653 0.1469 -2.8443 0
M  V30 36 H -2.9401 -0.984 -2.2967 0
M  V30 37 H 7.0652 -0.6639 1.5001 0
M  V30 38 H 7.1465 -1.6629 0.0095 0
M  V30 39 H 9.0524 -0.2056 -0.8335 0
M  V30 40 H 9.404 -1.1455 0.6533 0
M  V30 41 H 10.3064 1.1078 0.9124 0
M  V30 42 H 8.7206 1.8613 0.525 0
M  V30 43 H 8.9249 0.9092 2.0551 0
M  V30 44 H -2.9209 1.7321 1.5216 0
M  V30 45 H -3.8489 0.3534 2.1728 0
M  V30 46 H -5.3881 2.2244 1.6697 0
M  V30 47 H -4.7578 2.3495 0.0022 0
M  V30 48 H -6.8784 1.2451 -0.1133 0
M  V30 49 H -5.6354 0.0118 -0.4918 0
M  V30 50 H -7.0092 0.3877 2.2702 0
M  V30 51 H -5.7855 -0.8618 1.864 0
M  V30 52 H -7.8899 -1.96 1.7465 0
M  V30 53 H -7.3477 -1.753 0.0492 0
M  V30 54 H -8.9143 0.1635 -0.2424 0
M  V30 55 H -9.7982 -1.2569 0.4117 0
M  V30 56 H -9.3553 0.0981 1.5152 0
M  V30 END ATOM
M  V30 BEGIN BOND
M  V30 1 2 1 2
M  V30 2 1 2 3
M  V30 3 1 2 4
M  V30 4 1 3 5
M  V30 5 1 4 6
M  V30 6 1 5 7
M  V30 7 1 6 8
M  V30 8 1 7 9
M  V30 9 1 8 10
M  V30 10 1 9 11
M  V30 11 1 10 12
M  V30 12 1 11 13
M  V30 13 2 12 14
M  V30 14 1 12 15
M  V30 15 1 13 16
M  V30 16 1 15 17
M  V30 17 1 17 18
M  V30 18 1 18 19
M  V30 19 1 19 20
M  V30 20 1 20 21
M  V30 21 1 21 22
M  V30 22 1 4 23
M  V30 23 1 4 24
M  V30 24 1 5 25
M  V30 25 1 5 26
M  V30 26 1 6 27
M  V30 27 1 6 28
M  V30 28 1 7 29
M  V30 29 1 7 30
M  V30 30 1 8 31
M  V30 31 1 8 32
M  V30 32 1 9 33
M  V30 33 1 9 34
M  V30 34 1 10 35
M  V30 35 1 10 36
M  V30 36 1 11 37
M  V30 37 1 11 38
M  V30 38 1 13 39
M  V30 39 1 13 40
M  V30 40 1 16 41
M  V30 41 1 16 42
M  V30 42 1 16 43
M  V30 43 1 17 44
M  V30 44 1 17 45
M  V30 45 1 18 46
M  V30 46 1 18 47
M  V30 47 1 19 48
M  V30 48 1 19 49
M  V30 49 1 20 50
M  V30 50 1 20 51
M  V30 51 1 21 52
M  V30 52 1 21 53
M  V30 53 1 22 54
M  V30 54 1 22 55
M  V30 55 1 22 56
M  V30 END BOND
M  V30 END CTAB
M  END
>  <Structure No>
728

>  <LogS>
-5.082600349

>  <MMFF94 Energy>
-22.213

$$$$
Compound 729
Actelion Java MolfileCreator 2.0

  0  0  0  0  0  0              0 V3000
M  V30 BEGIN CTAB
M  V30 COUNTS 39 41 0 0 0
M  V30 BEGIN ATOM
M  V30 1 Cl 3.7935 2.6122 2.1905 0
M  V30 2 C 3.4313 1.2814 1.0926 0
M  V30 3 C 4.4395 0.6123 0.3589 0
M  V30 4 C 2.0915 0.9083 0.9527 0
M  V30 5 C 4.0601 -0.3976 -0.5647 0
M  V30 6 C 5.8854 1.025 0.5115 0
M  V30 7 C 1.7257 -0.1185 0.0728 0
M  V30 8 S 5.2388 -1.229 -1.5932 0
M  V30 9 C 2.7095 -0.7587 -0.6812 0
M  V30 10 N 0.3601 -0.5221 -0.085 0
M  V30 11 O 6.0774 -2.1529 -0.7561 0
M  V30 12 O 6.1207 -0.2234 -2.2783 0
M  V30 13 O 4.4509 -2.1307 -2.7725 0 CHG=-1
M  V30 14 N -0.5842 0.0087 0.5818 0
M  V30 15 C -1.9554 -0.39 0.4267 0
M  V30 16 C -2.3159 -1.7437 0.1968 0
M  V30 17 C -2.9612 0.599 0.4911 0
M  V30 18 O -1.3695 -2.7678 0.2963 0
M  V30 19 C -3.6593 -2.0807 -0.0873 0
M  V30 20 C -4.3096 0.2463 0.2474 0
M  V30 21 C -2.6491 1.9456 0.7741 0
M  V30 22 C -4.0638 -3.4793 -0.3941 0
M  V30 23 C -4.6416 -1.0776 -0.0549 0
M  V30 24 C -5.3118 1.2299 0.2956 0
M  V30 25 C -3.6566 2.9124 0.8211 0
M  V30 26 O -5.2833 -3.7867 -0.4733 0
M  V30 27 O -3.1145 -4.4702 -0.6148 0 CHG=-1
M  V30 28 C -4.9838 2.5558 0.5831 0
M  V30 29 H 1.3358 1.4273 1.5292 0
M  V30 30 H 6.1381 1.7832 -0.2585 0
M  V30 31 H 6.5666 0.1572 0.4116 0
M  V30 32 H 6.09 1.4488 1.5153 0
M  V30 33 H 2.4121 -1.5419 -1.3667 0
M  V30 34 H -0.4589 -2.6491 0.719 0
M  V30 35 H -1.6301 2.2588 0.9635 0
M  V30 36 H -5.6765 -1.3282 -0.259 0
M  V30 37 H -6.3481 0.9736 0.1097 0
M  V30 38 H -3.4066 3.9422 1.0418 0
M  V30 39 H -5.7604 3.3091 0.6195 0
M  V30 END ATOM
M  V30 BEGIN BOND
M  V30 1 1 1 2
M  V30 2 2 2 3
M  V30 3 1 2 4
M  V30 4 1 3 5
M  V30 5 1 3 6
M  V30 6 2 4 7
M  V30 7 1 5 8
M  V30 8 2 5 9
M  V30 9 1 7 10
M  V30 10 2 8 11
M  V30 11 2 8 12
M  V30 12 1 8 13
M  V30 13 2 10 14
M  V30 14 1 14 15
M  V30 15 2 15 16
M  V30 16 1 15 17
M  V30 17 1 16 18
M  V30 18 1 16 19
M  V30 19 1 17 20
M  V30 20 2 17 21
M  V30 21 1 19 22
M  V30 22 2 19 23
M  V30 23 2 20 24
M  V30 24 1 21 25
M  V30 25 2 22 26
M  V30 26 1 22 27
M  V30 27 1 24 28
M  V30 28 1 7 9
M  V30 29 1 20 23
M  V30 30 2 25 28
M  V30 31 1 4 29
M  V30 32 1 6 30
M  V30 33 1 6 31
M  V30 34 1 6 32
M  V30 35 1 9 33
M  V30 36 1 18 34
M  V30 37 1 21 35
M  V30 38 1 23 36
M  V30 39 1 24 37
M  V30 40 1 25 38
M  V30 41 1 28 39
M  V30 END BOND
M  V30 END CTAB
M  END
>  <Structure No>
729

>  <LogS>
-5.306582846

>  <MMFF94 Energy>
117.92

$$$$
Compound 730
Actelion Java MolfileCreator 2.0

  0  0  0  0  0  0              0 V3000
M  V30 BEGIN CTAB
M  V30 COUNTS 47 48 0 0 0
M  V30 BEGIN ATOM
M  V30 1 O 2.308 0.7158 2.5469 0
M  V30 2 C 3.0061 1.1418 1.5892 0
M  V30 3 O 3.0725 0.4623 0.3604 0
M  V30 4 C 3.7314 2.4354 1.7374 0
M  V30 5 C 2.4526 -0.7863 -0.0101 0
M  V30 6 C 0.9951 -0.5339 -0.5678 0 CFG=2
M  V30 7 C 3.3519 -1.3444 -1.1363 0
M  V30 8 C 2.4858 -1.8013 1.158 0
M  V30 9 C 0.1477 0.403 0.3334 0
M  V30 10 C 0.226 -1.8365 -0.9703 0
M  V30 11 C -1.2159 0.6692 -0.2529 0
M  V30 12 C -0.7464 -2.3578 0.105 0
M  V30 13 C -2.1788 -0.244 -0.4038 0
M  V30 14 C -1.6341 2.0145 -0.7592 0 CFG=1
M  V30 15 C -2.1462 -1.6891 0.0712 0 CFG=2
M  V30 16 C -3.3907 0.3403 -1.0498 0
M  V30 17 C -2.955 1.7369 -1.4921 0
M  V30 18 C -1.8271 2.9999 0.3999 0
M  V30 19 C -2.8249 -1.7997 1.4409 0
M  V30 20 H 4.5887 2.4718 1.0331 0
M  V30 21 H 3.0394 3.2737 1.5131 0
M  V30 22 H 4.1144 2.5425 2.7743 0
M  V30 23 H 1.1316 0.0373 -1.5149 0
M  V30 24 H 3.3178 -0.684 -2.0292 0
M  V30 25 H 3.0731 -2.3718 -1.4445 0
M  V30 26 H 4.4079 -1.3834 -0.7907 0
M  V30 27 H 3.4974 -1.8214 1.6173 0
M  V30 28 H 2.2525 -2.8279 0.8042 0
M  V30 29 H 1.7499 -1.5523 1.946 0
M  V30 30 H 0.6663 1.3786 0.4199 0
M  V30 31 H 0.033 -0.0022 1.3592 0
M  V30 32 H -0.3417 -1.6532 -1.9094 0
M  V30 33 H 0.9274 -2.6542 -1.2204 0
M  V30 34 H -0.8893 -3.4494 -0.0558 0
M  V30 35 H -0.2885 -2.2687 1.1105 0
M  V30 36 H -0.8735 2.4108 -1.4676 0
M  V30 37 H -2.7631 -2.2739 -0.6471 0
M  V30 38 H -4.2159 0.408 -0.3085 0
M  V30 39 H -3.7089 -0.2724 -1.9205 0
M  V30 40 H -3.7429 2.4902 -1.2694 0
M  V30 41 H -2.7736 1.7353 -2.5899 0
M  V30 42 H -2.5709 2.6098 1.1283 0
M  V30 43 H -0.8649 3.1718 0.9265 0
M  V30 44 H -2.1841 3.9766 0.0095 0
M  V30 45 H -2.2776 -1.1948 2.196 0
M  V30 46 H -2.845 -2.8593 1.7743 0
M  V30 47 H -3.8734 -1.4371 1.3839 0
M  V30 END ATOM
M  V30 BEGIN BOND
M  V30 1 2 1 2
M  V30 2 1 2 3
M  V30 3 1 2 4
M  V30 4 1 3 5
M  V30 5 1 5 6
M  V30 6 1 5 7
M  V30 7 1 5 8
M  V30 8 1 6 9
M  V30 9 1 6 10
M  V30 10 1 9 11
M  V30 11 1 10 12
M  V30 12 2 11 13
M  V30 13 1 11 14
M  V30 14 1 12 15
M  V30 15 1 13 16
M  V30 16 1 14 17
M  V30 17 1 14 18
M  V30 18 1 15 19
M  V30 19 1 13 15
M  V30 20 1 16 17
M  V30 21 1 4 20
M  V30 22 1 4 21
M  V30 23 1 4 22
M  V30 24 1 6 23
M  V30 25 1 7 24
M  V30 26 1 7 25
M  V30 27 1 7 26
M  V30 28 1 8 27
M  V30 29 1 8 28
M  V30 30 1 8 29
M  V30 31 1 9 30
M  V30 32 1 9 31
M  V30 33 1 10 32
M  V30 34 1 10 33
M  V30 35 1 12 34
M  V30 36 1 12 35
M  V30 37 1 14 36
M  V30 38 1 15 37
M  V30 39 1 16 38
M  V30 40 1 16 39
M  V30 41 1 17 40
M  V30 42 1 17 41
M  V30 43 1 18 42
M  V30 44 1 18 43
M  V30 45 1 18 44
M  V30 46 1 19 45
M  V30 47 1 19 46
M  V30 48 1 19 47
M  V30 END BOND
M  V30 BEGIN COLLECTION
M  V30 MDLV30/STEABS ATOMS=(3 6 14 15)
M  V30 END COLLECTION
M  V30 END CTAB
M  END
>  <Structure No>
730

>  <LogS>
-5.022602512

>  <MMFF94 Energy>
34.928

$$$$
Compound 731
Actelion Java MolfileCreator 2.0

  0  0  0  0  0  0              0 V3000
M  V30 BEGIN CTAB
M  V30 COUNTS 55 54 0 0 0
M  V30 BEGIN ATOM
M  V30 1 O -7.5457 1.5683 1.1761 0
M  V30 2 C -6.8557 1.5329 0.1236 0
M  V30 3 O -7.3148 0.8187 -0.9755 0 CHG=-1
M  V30 4 C -5.5272 2.2234 0.0689 0
M  V30 5 C -4.4483 1.4547 0.8451 0
M  V30 6 C -4.0693 0.1295 0.1566 0
M  V30 7 C -3.0573 -0.7102 0.9758 0 CFG=2
M  V30 8 C -1.6347 -0.0945 0.9182 0
M  V30 9 C -3.0551 -2.1574 0.4544 0
M  V30 10 C -0.6122 -0.8064 1.8359 0
M  V30 11 C 0.3553 -1.7254 1.0682 0
M  V30 12 C 1.4674 -0.9329 0.3639 0
M  V30 13 C 2.4123 -1.874 -0.397 0
M  V30 14 C 3.5538 -1.1957 -1.2061 0 CFG=2
M  V30 15 C 4.4357 -0.1761 -0.4089 0
M  V30 16 C 3.191 -0.8267 -2.6713 0
M  V30 17 C 4.3229 1.3355 -0.7354 0
M  V30 18 C 1.9249 0.0102 -2.8573 0
M  V30 19 C 3.2603 2.113 0.0601 0
M  V30 20 C 3.6153 2.2729 1.5394 0
M  V30 21 H -5.6361 3.2373 0.5112 0
M  V30 22 H -5.2135 2.3534 -0.9895 0
M  V30 23 H -4.8033 1.259 1.8809 0
M  V30 24 H -3.5565 2.1112 0.9105 0
M  V30 25 H -3.6575 0.3367 -0.8556 0
M  V30 26 H -4.9999 -0.4631 0.0213 0
M  V30 27 H -3.3979 -0.7352 2.0351 0
M  V30 28 H -1.2845 -0.0716 -0.1361 0
M  V30 29 H -1.6846 0.9614 1.2535 0
M  V30 30 H -4.084 -2.5761 0.4657 0
M  V30 31 H -2.4351 -2.809 1.104 0
M  V30 32 H -2.6643 -2.198 -0.585 0
M  V30 33 H -1.1396 -1.4028 2.6118 0
M  V30 34 H -0.0217 -0.0444 2.3921 0
M  V30 35 H -0.2016 -2.3349 0.3256 0
M  V30 36 H 0.823 -2.4248 1.7957 0
M  V30 37 H 1.0065 -0.2107 -0.3317 0
M  V30 38 H 2.04 -0.3792 1.1348 0
M  V30 39 H 2.8761 -2.5581 0.349 0
M  V30 40 H 1.8169 -2.5146 -1.0844 0
M  V30 41 H 4.2534 -2.0515 -1.3604 0
M  V30 42 H 5.4964 -0.44 -0.6239 0
M  V30 43 H 4.3365 -0.3535 0.6803 0
M  V30 44 H 3.0421 -1.7684 -3.2453 0
M  V30 45 H 4.0511 -0.3159 -3.1542 0
M  V30 46 H 5.3078 1.8062 -0.5197 0
M  V30 47 H 4.1659 1.5041 -1.8174 0
M  V30 48 H 1.9425 0.928 -2.2415 0
M  V30 49 H 1.8445 0.3158 -3.9217 0
M  V30 50 H 1.0239 -0.5903 -2.6128 0
M  V30 51 H 2.2637 1.6511 -0.0393 0
M  V30 52 H 3.1817 3.1309 -0.3799 0
M  V30 53 H 4.6176 2.7383 1.6506 0
M  V30 54 H 2.8662 2.9317 2.0274 0
M  V30 55 H 3.6037 1.2961 2.0636 0
M  V30 END ATOM
M  V30 BEGIN BOND
M  V30 1 2 1 2
M  V30 2 1 2 3
M  V30 3 1 2 4
M  V30 4 1 4 5
M  V30 5 1 5 6
M  V30 6 1 6 7
M  V30 7 1 7 8
M  V30 8 1 7 9
M  V30 9 1 8 10
M  V30 10 1 10 11
M  V30 11 1 11 12
M  V30 12 1 12 13
M  V30 13 1 13 14
M  V30 14 1 14 15
M  V30 15 1 14 16
M  V30 16 1 15 17
M  V30 17 1 16 18
M  V30 18 1 17 19
M  V30 19 1 19 20
M  V30 20 1 4 21
M  V30 21 1 4 22
M  V30 22 1 5 23
M  V30 23 1 5 24
M  V30 24 1 6 25
M  V30 25 1 6 26
M  V30 26 1 7 27
M  V30 27 1 8 28
M  V30 28 1 8 29
M  V30 29 1 9 30
M  V30 30 1 9 31
M  V30 31 1 9 32
M  V30 32 1 10 33
M  V30 33 1 10 34
M  V30 34 1 11 35
M  V30 35 1 11 36
M  V30 36 1 12 37
M  V30 37 1 12 38
M  V30 38 1 13 39
M  V30 39 1 13 40
M  V30 40 1 14 41
M  V30 41 1 15 42
M  V30 42 1 15 43
M  V30 43 1 16 44
M  V30 44 1 16 45
M  V30 45 1 17 46
M  V30 46 1 17 47
M  V30 47 1 18 48
M  V30 48 1 18 49
M  V30 49 1 18 50
M  V30 50 1 19 51
M  V30 51 1 19 52
M  V30 52 1 20 53
M  V30 53 1 20 54
M  V30 54 1 20 55
M  V30 END BOND
M  V30 BEGIN COLLECTION
M  V30 MDLV30/STEABS ATOMS=(2 7 14)
M  V30 END COLLECTION
M  V30 END CTAB
M  END
>  <Structure No>
731

>  <LogS>
-5.056117837

>  <MMFF94 Energy>
14.521

$$$$
Compound 732
Actelion Java MolfileCreator 2.0

  0  0  0  0  0  0              0 V3000
M  V30 BEGIN CTAB
M  V30 COUNTS 44 43 0 0 0
M  V30 BEGIN ATOM
M  V30 1 O -4.2086 1.1676 -3.0382 0
M  V30 2 C -3.3316 2.217 -2.7033 0 CFG=1
M  V30 3 C -4.1117 3.3414 -2.1458 0
M  V30 4 C -2.3482 1.7261 -1.6137 0
M  V30 5 C -2.5822 2.7065 -3.9584 0
M  V30 6 C -4.7488 4.2587 -1.6908 0
M  V30 7 C -1.5217 0.4974 -2.0343 0
M  V30 8 C -0.6596 -0.0096 -0.8672 0
M  V30 9 C 0.1266 -1.2946 -1.2236 0 CFG=2
M  V30 10 C 0.6357 -2.0281 0.0415 0
M  V30 11 C 1.2696 -1.0145 -2.2146 0
M  V30 12 C 1.6368 -1.2186 0.8857 0
M  V30 13 C 2.0764 -2.0146 2.125 0
M  V30 14 C 3.1966 -1.3103 2.9238 0
M  V30 15 C 2.7016 -0.0176 3.5905 0
M  V30 16 C 3.7594 -2.2612 3.9882 0
M  V30 17 H -4.8293 1.4962 -3.7418 0
M  V30 18 H -1.6535 2.5509 -1.3365 0
M  V30 19 H -2.9319 1.4624 -0.7026 0
M  V30 20 H -1.7946 3.442 -3.6858 0
M  V30 21 H -3.2861 3.1942 -4.6674 0
M  V30 22 H -2.1121 1.8548 -4.4925 0
M  V30 23 H -5.3076 5.0637 -1.2915 0
M  V30 24 H -2.203 -0.3155 -2.366 0
M  V30 25 H -0.859 0.7758 -2.8785 0
M  V30 26 H 0.0431 0.7947 -0.5585 0
M  V30 27 H -1.3298 -0.2249 -0.0057 0
M  V30 28 H -0.5753 -1.9992 -1.7234 0
M  V30 29 H 1.1119 -2.9843 -0.2691 0
M  V30 30 H -0.2386 -2.2962 0.6749 0
M  V30 31 H 1.8995 -1.9198 -2.3455 0
M  V30 32 H 0.8607 -0.7485 -3.2112 0
M  V30 33 H 1.9098 -0.1787 -1.8617 0
M  V30 34 H 1.1576 -0.2735 1.2123 0
M  V30 35 H 2.5325 -0.9771 0.2755 0
M  V30 36 H 1.1978 -2.193 2.784 0
M  V30 37 H 2.4505 -3.0063 1.7865 0
M  V30 38 H 4.0279 -1.0519 2.2308 0
M  V30 39 H 1.8136 -0.2188 4.2275 0
M  V30 40 H 2.4372 0.7418 2.8265 0
M  V30 41 H 3.5025 0.4192 4.2243 0
M  V30 42 H 4.5882 -1.7716 4.5429 0
M  V30 43 H 2.9669 -2.5534 4.7106 0
M  V30 44 H 4.1648 -3.1781 3.5097 0
M  V30 END ATOM
M  V30 BEGIN BOND
M  V30 1 1 1 2
M  V30 2 1 2 3
M  V30 3 1 2 4
M  V30 4 1 2 5
M  V30 5 3 3 6
M  V30 6 1 4 7
M  V30 7 1 7 8
M  V30 8 1 8 9
M  V30 9 1 9 10
M  V30 10 1 9 11
M  V30 11 1 10 12
M  V30 12 1 12 13
M  V30 13 1 13 14
M  V30 14 1 14 15
M  V30 15 1 14 16
M  V30 16 1 1 17
M  V30 17 1 4 18
M  V30 18 1 4 19
M  V30 19 1 5 20
M  V30 20 1 5 21
M  V30 21 1 5 22
M  V30 22 1 6 23
M  V30 23 1 7 24
M  V30 24 1 7 25
M  V30 25 1 8 26
M  V30 26 1 8 27
M  V30 27 1 9 28
M  V30 28 1 10 29
M  V30 29 1 10 30
M  V30 30 1 11 31
M  V30 31 1 11 32
M  V30 32 1 11 33
M  V30 33 1 12 34
M  V30 34 1 12 35
M  V30 35 1 13 36
M  V30 36 1 13 37
M  V30 37 1 14 38
M  V30 38 1 15 39
M  V30 39 1 15 40
M  V30 40 1 15 41
M  V30 41 1 16 42
M  V30 42 1 16 43
M  V30 43 1 16 44
M  V30 END BOND
M  V30 BEGIN COLLECTION
M  V30 MDLV30/STEABS ATOMS=(2 2 9)
M  V30 END COLLECTION
M  V30 END CTAB
M  END
>  <Structure No>
732

>  <LogS>
-4.953059619

>  <MMFF94 Energy>
16.525

$$$$
Compound 733
Actelion Java MolfileCreator 2.0

  0  0  0  0  0  0              0 V3000
M  V30 BEGIN CTAB
M  V30 COUNTS 13 12 0 0 0
M  V30 BEGIN ATOM
M  V30 1 F 2.1717 1.3026 1.824 0
M  V30 2 C 2.4916 0.3086 0.9587 0
M  V30 3 F 3.7789 -0.1071 0.8694 0
M  V30 4 C 1.5535 -0.2535 0.2047 0
M  V30 5 F 1.8898 -1.2479 -0.6572 0
M  V30 6 O 0.2294 0.1807 0.3028 0
M  V30 7 C -0.8208 -0.3818 -0.4781 0
M  V30 8 F -0.5467 -0.206 -1.8243 0
M  V30 9 F -0.9289 -1.7361 -0.2081 0
M  V30 10 C -2.1371 0.309 -0.1352 0
M  V30 11 F -3.1615 -0.2327 -0.8904 0
M  V30 12 F -2.0432 1.6624 -0.4065 0
M  V30 13 F -2.4247 0.1352 1.2067 0
M  V30 END ATOM
M  V30 BEGIN BOND
M  V30 1 1 1 2
M  V30 2 1 2 3
M  V30 3 2 2 4
M  V30 4 1 4 5
M  V30 5 1 4 6
M  V30 6 1 6 7
M  V30 7 1 7 8
M  V30 8 1 7 9
M  V30 9 1 7 10
M  V30 10 1 10 11
M  V30 11 1 10 12
M  V30 12 1 10 13
M  V30 END BOND
M  V30 END CTAB
M  END
>  <Structure No>
733

>  <LogS>
-4.954296793

>  <MMFF94 Energy>
79.672

$$$$
Compound 734
Actelion Java MolfileCreator 2.0

  0  0  0  0  0  0              0 V3000
M  V30 BEGIN CTAB
M  V30 COUNTS 24 23 0 0 0
M  V30 BEGIN ATOM
M  V30 1 C 1.5379 0.1537 -0.3074 0
M  V30 2 C 1.7101 1.0485 -1.2918 0
M  V30 3 C 0.3745 -0.82 -0.3472 0
M  V30 4 C 2.5457 0.0868 0.809 0
M  V30 5 C -0.936 -0.2872 0.3044 0
M  V30 6 C -2.0084 -1.3925 0.2121 0
M  V30 7 C -0.7095 0.0544 1.792 0
M  V30 8 C -1.4567 0.9629 -0.4347 0
M  V30 9 H 2.5509 1.7358 -1.2775 0
M  V30 10 H 1.0166 1.1028 -2.1254 0
M  V30 11 H 0.6796 -1.7582 0.1665 0
M  V30 12 H 0.178 -1.1107 -1.4036 0
M  V30 13 H 3.5501 -0.1459 0.3963 0
M  V30 14 H 2.5864 1.0626 1.3378 0
M  V30 15 H 2.2777 -0.6989 1.546 0
M  V30 16 H -2.9646 -1.0561 0.6689 0
M  V30 17 H -1.675 -2.3091 0.7454 0
M  V30 18 H -2.2067 -1.6591 -0.8485 0
M  V30 19 H -0.3004 -0.823 2.3374 0
M  V30 20 H -1.6655 0.3509 2.2755 0
M  V30 21 H 2.0E-4 0.9011 1.9025 0
M  V30 22 H -1.5721 0.7559 -1.5205 0
M  V30 23 H -0.7629 1.8203 -0.3079 0
M  V30 24 H -2.4456 1.2721 -0.032 0
M  V30 END ATOM
M  V30 BEGIN BOND
M  V30 1 2 1 2
M  V30 2 1 1 3
M  V30 3 1 1 4
M  V30 4 1 3 5
M  V30 5 1 5 6
M  V30 6 1 5 7
M  V30 7 1 5 8
M  V30 8 1 2 9
M  V30 9 1 2 10
M  V30 10 1 3 11
M  V30 11 1 3 12
M  V30 12 1 4 13
M  V30 13 1 4 14
M  V30 14 1 4 15
M  V30 15 1 6 16
M  V30 16 1 6 17
M  V30 17 1 6 18
M  V30 18 1 7 19
M  V30 19 1 7 20
M  V30 20 1 7 21
M  V30 21 1 8 22
M  V30 22 1 8 23
M  V30 23 1 8 24
M  V30 END BOND
M  V30 END CTAB
M  END
>  <Structure No>
734

>  <LogS>
-4.688326948

>  <MMFF94 Energy>
22.797

$$$$
Compound 735
Actelion Java MolfileCreator 2.0

  0  0  0  0  0  0              0 V3000
M  V30 BEGIN CTAB
M  V30 COUNTS 24 25 0 0 0
M  V30 BEGIN ATOM
M  V30 1 N 0.0 -1.1836 -0.4733 0
M  V30 2 C 1.2792 -0.5701 -0.2392 0
M  V30 3 C -1.2648 -0.5425 -0.2344 0
M  V30 4 C 1.4697 0.8136 -0.4119 0
M  V30 5 C 2.3775 -1.3739 0.1036 0
M  V30 6 C -1.4287 0.3867 0.8098 0
M  V30 7 C -2.3764 -0.8979 -1.0141 0
M  V30 8 C 2.7303 1.3827 -0.2061 0
M  V30 9 C 3.6364 -0.8011 0.3088 0
M  V30 10 C -2.676 0.9755 1.0403 0
M  V30 11 C -3.6221 -0.3068 -0.7807 0
M  V30 12 C 3.8119 0.5767 0.1578 0
M  V30 13 C -3.771 0.6321 0.2432 0
M  V30 14 H -0.0113 -2.1619 -0.8418 0
M  V30 15 H 0.6506 1.4494 -0.7214 0
M  V30 16 H 2.2539 -2.4432 0.2205 0
M  V30 17 H -0.5994 0.6436 1.4557 0
M  V30 18 H -2.2738 -1.6263 -1.8084 0
M  V30 19 H 2.8701 2.448 -0.3365 0
M  V30 20 H 4.4765 -1.4262 0.5824 0
M  V30 21 H -2.7954 1.6923 1.8423 0
M  V30 22 H -4.4727 -0.5787 -1.3923 0
M  V30 23 H 4.7872 1.0186 0.3152 0
M  V30 24 H -4.7361 1.0874 0.424 0
M  V30 END ATOM
M  V30 BEGIN BOND
M  V30 1 1 1 2
M  V30 2 1 1 3
M  V30 3 2 2 4
M  V30 4 1 2 5
M  V30 5 2 3 6
M  V30 6 1 3 7
M  V30 7 1 4 8
M  V30 8 2 5 9
M  V30 9 1 6 10
M  V30 10 2 7 11
M  V30 11 2 8 12
M  V30 12 2 10 13
M  V30 13 1 9 12
M  V30 14 1 11 13
M  V30 15 1 1 14
M  V30 16 1 4 15
M  V30 17 1 5 16
M  V30 18 1 6 17
M  V30 19 1 7 18
M  V30 20 1 8 19
M  V30 21 1 9 20
M  V30 22 1 10 21
M  V30 23 1 11 22
M  V30 24 1 12 23
M  V30 25 1 13 24
M  V30 END BOND
M  V30 END CTAB
M  END
>  <Structure No>
735

>  <LogS>
-5.087662615

>  <MMFF94 Energy>
28.088

$$$$
Compound 736
Actelion Java MolfileCreator 2.0

  0  0  0  0  0  0              0 V3000
M  V30 BEGIN CTAB
M  V30 COUNTS 1 0 0 0 0
M  V30 BEGIN ATOM
M  V30 1 O 0.0 0.0 0.0 0
M  V30 END ATOM
M  V30 BEGIN BOND
M  V30 END BOND
M  V30 END CTAB
M  END
>  <Structure No>
736

>  <LogS>
-5.130514687

>  <MMFF94 Energy>
1.5533e-12

$$$$
Compound 737
Actelion Java MolfileCreator 2.0

  0  0  0  0  0  0              0 V3000
M  V30 BEGIN CTAB
M  V30 COUNTS 50 49 0 0 0
M  V30 BEGIN ATOM
M  V30 1 O 2.6575 0.3123 0.078 0
M  V30 2 O 3.8189 -0.3256 0.1515 0
M  V30 3 C 1.6326 -0.657 -0.0192 0
M  V30 4 C 4.6984 0.4532 0.9421 0
M  V30 5 C 0.3554 0.0675 -0.1018 0
M  V30 6 C 1.789 -1.5017 -1.2981 0
M  V30 7 C 1.5913 -1.5584 1.2297 0
M  V30 8 C 6.0357 -0.2996 1.0091 0
M  V30 9 C 4.1536 0.6211 2.3769 0
M  V30 10 C 4.9392 1.8339 0.2948 0
M  V30 11 C -0.6925 0.66 -0.1682 0
M  V30 12 C -1.9813 1.3801 -0.2491 0
M  V30 13 O -2.8651 0.7189 -1.1347 0
M  V30 14 C -1.7149 2.7799 -0.8148 0
M  V30 15 C -2.5969 1.5117 1.1575 0
M  V30 16 O -3.0601 -0.5121 -0.6761 0
M  V30 17 C -4.3709 -0.9116 -1.0323 0
M  V30 18 C -5.4269 0.0125 -0.3884 0
M  V30 19 C -4.5724 -2.337 -0.4962 0
M  V30 20 C -4.5389 -0.9311 -2.5667 0
M  V30 21 H 2.7078 -2.1244 -1.2522 0
M  V30 22 H 1.8583 -0.8411 -2.1893 0
M  V30 23 H 0.92 -2.1835 -1.4278 0
M  V30 24 H 2.5186 -2.164 1.3137 0
M  V30 25 H 1.4905 -0.9408 2.1482 0
M  V30 26 H 0.7289 -2.2587 1.1795 0
M  V30 27 H 5.8902 -1.3042 1.4617 0
M  V30 28 H 6.4515 -0.4391 -0.012 0
M  V30 29 H 6.7781 0.259 1.6198 0
M  V30 30 H 3.2062 1.201 2.379 0
M  V30 31 H 3.9579 -0.3723 2.8335 0
M  V30 32 H 4.8867 1.163 3.0127 0
M  V30 33 H 5.7128 2.401 0.8563 0
M  V30 34 H 4.0082 2.44 0.2907 0
M  V30 35 H 5.2809 1.7114 -0.7552 0
M  V30 36 H -1.2732 2.7081 -1.8325 0
M  V30 37 H -1.0132 3.3463 -0.1636 0
M  V30 38 H -2.6655 3.3509 -0.8914 0
M  V30 39 H -3.5788 2.0281 1.1001 0
M  V30 40 H -2.7519 0.5134 1.6205 0
M  V30 41 H -1.9287 2.0982 1.825 0
M  V30 42 H -5.3459 1.0475 -0.7836 0
M  V30 43 H -6.453 -0.3559 -0.6043 0
M  V30 44 H -5.2891 0.046 0.7133 0
M  V30 45 H -3.8215 -3.0257 -0.9398 0
M  V30 46 H -4.4457 -2.3549 0.6078 0
M  V30 47 H -5.5883 -2.7158 -0.7416 0
M  V30 48 H -4.4695 0.0942 -2.9883 0
M  V30 49 H -3.7456 -1.5545 -3.032 0
M  V30 50 H -5.5298 -1.3491 -2.8476 0
M  V30 END ATOM
M  V30 BEGIN BOND
M  V30 1 1 1 2
M  V30 2 1 1 3
M  V30 3 1 2 4
M  V30 4 1 3 5
M  V30 5 1 3 6
M  V30 6 1 3 7
M  V30 7 1 4 8
M  V30 8 1 4 9
M  V30 9 1 4 10
M  V30 10 3 5 11
M  V30 11 1 11 12
M  V30 12 1 12 13
M  V30 13 1 12 14
M  V30 14 1 12 15
M  V30 15 1 13 16
M  V30 16 1 16 17
M  V30 17 1 17 18
M  V30 18 1 17 19
M  V30 19 1 17 20
M  V30 20 1 6 21
M  V30 21 1 6 22
M  V30 22 1 6 23
M  V30 23 1 7 24
M  V30 24 1 7 25
M  V30 25 1 7 26
M  V30 26 1 8 27
M  V30 27 1 8 28
M  V30 28 1 8 29
M  V30 29 1 9 30
M  V30 30 1 9 31
M  V30 31 1 9 32
M  V30 32 1 10 33
M  V30 33 1 10 34
M  V30 34 1 10 35
M  V30 35 1 14 36
M  V30 36 1 14 37
M  V30 37 1 14 38
M  V30 38 1 15 39
M  V30 39 1 15 40
M  V30 40 1 15 41
M  V30 41 1 18 42
M  V30 42 1 18 43
M  V30 43 1 18 44
M  V30 44 1 19 45
M  V30 45 1 19 46
M  V30 46 1 19 47
M  V30 47 1 20 48
M  V30 48 1 20 49
M  V30 49 1 20 50
M  V30 END BOND
M  V30 END CTAB
M  END
>  <Structure No>
737

>  <LogS>
-5.114568529

>  <MMFF94 Energy>
65.534

$$$$
Compound 738
Actelion Java MolfileCreator 2.0

  0  0  0  0  0  0              0 V3000
M  V30 BEGIN CTAB
M  V30 COUNTS 37 36 0 0 0
M  V30 BEGIN ATOM
M  V30 1 O -1.0966 2.6649 -1.2533 0
M  V30 2 C -1.2246 1.479 -1.6596 0
M  V30 3 O -1.1984 1.2204 -3.0241 0 CHG=-1
M  V30 4 C -1.3529 0.3339 -0.6851 0 CFG=1
M  V30 5 C 0.0351 -0.2207 -0.2912 0
M  V30 6 C -2.2176 0.6997 0.5478 0
M  V30 7 C 0.9263 0.7828 0.4678 0
M  V30 8 C -3.7135 0.8807 0.2012 0
M  V30 9 C 2.2568 0.1614 0.9226 0
M  V30 10 C -4.5851 -0.3245 0.5917 0
M  V30 11 C 3.2266 -0.0837 -0.2431 0
M  V30 12 C -4.2756 -1.5754 -0.2279 0
M  V30 13 C 4.5871 -0.5702 0.2693 0
M  V30 14 C 5.552 -0.8262 -0.8847 0
M  V30 15 H -1.8673 -0.4894 -1.2248 0
M  V30 16 H -0.1091 -1.1281 0.3358 0
M  V30 17 H 0.5514 -0.5451 -1.2197 0
M  V30 18 H -1.8433 1.6459 0.9954 0
M  V30 19 H -2.1019 -0.0792 1.3333 0
M  V30 20 H 1.1319 1.6728 -0.1641 0
M  V30 21 H 0.3944 1.1293 1.3785 0
M  V30 22 H -4.0958 1.76 0.7648 0
M  V30 23 H -3.8563 1.1145 -0.8763 0
M  V30 24 H 2.0637 -0.7916 1.4622 0
M  V30 25 H 2.7333 0.8634 1.642 0
M  V30 26 H -4.461 -0.5494 1.6734 0
M  V30 27 H -5.6508 -0.0542 0.427 0
M  V30 28 H 3.3666 0.8607 -0.8137 0
M  V30 29 H 2.806 -0.8522 -0.9258 0
M  V30 30 H -5.0213 -2.3638 0.0064 0
M  V30 31 H -4.3275 -1.3511 -1.3144 0
M  V30 32 H -3.2687 -1.9674 0.0259 0
M  V30 33 H 4.4556 -1.5129 0.8441 0
M  V30 34 H 5.03 0.1947 0.9439 0
M  V30 35 H 5.7193 0.1078 -1.4622 0
M  V30 36 H 6.5268 -1.1752 -0.4837 0
M  V30 37 H 5.1458 -1.6082 -1.5612 0
M  V30 END ATOM
M  V30 BEGIN BOND
M  V30 1 2 1 2
M  V30 2 1 2 3
M  V30 3 1 2 4
M  V30 4 1 4 5
M  V30 5 1 4 6
M  V30 6 1 5 7
M  V30 7 1 6 8
M  V30 8 1 7 9
M  V30 9 1 8 10
M  V30 10 1 9 11
M  V30 11 1 10 12
M  V30 12 1 11 13
M  V30 13 1 13 14
M  V30 14 1 4 15
M  V30 15 1 5 16
M  V30 16 1 5 17
M  V30 17 1 6 18
M  V30 18 1 6 19
M  V30 19 1 7 20
M  V30 20 1 7 21
M  V30 21 1 8 22
M  V30 22 1 8 23
M  V30 23 1 9 24
M  V30 24 1 9 25
M  V30 25 1 10 26
M  V30 26 1 10 27
M  V30 27 1 11 28
M  V30 28 1 11 29
M  V30 29 1 12 30
M  V30 30 1 12 31
M  V30 31 1 12 32
M  V30 32 1 13 33
M  V30 33 1 13 34
M  V30 34 1 14 35
M  V30 35 1 14 36
M  V30 36 1 14 37
M  V30 END BOND
M  V30 BEGIN COLLECTION
M  V30 MDLV30/STEABS ATOMS=(1 4)
M  V30 END COLLECTION
M  V30 END CTAB
M  END
>  <Structure No>
738

>  <LogS>
-4.959305967

>  <MMFF94 Energy>
8.7202

$$$$
Compound 739
Actelion Java MolfileCreator 2.0

  0  0  0  0  0  0              0 V3000
M  V30 BEGIN CTAB
M  V30 COUNTS 41 41 0 0 0
M  V30 BEGIN ATOM
M  V30 1 O 1.8851 2.5141 -0.471 0
M  V30 2 C 1.8495 1.3723 0.0643 0
M  V30 3 O 0.8155 1.0387 0.9482 0
M  V30 4 C 2.9042 0.3799 -0.2355 0
M  V30 5 C -0.3201 1.8667 1.2057 0
M  V30 6 C 2.8497 -0.9055 0.3313 0
M  V30 7 C 3.9708 0.7018 -1.0943 0
M  V30 8 C -1.5429 1.4254 0.3686 0 CFG=2
M  V30 9 C 3.8422 -1.8479 0.0467 0
M  V30 10 C 4.9622 -0.2425 -1.377 0
M  V30 11 C -1.8449 -0.073 0.6276 0
M  V30 12 C -1.3533 1.7086 -1.1434 0
M  V30 13 C 4.9029 -1.5211 -0.808 0
M  V30 14 C -3.2933 -0.4601 0.2849 0
M  V30 15 C -1.3607 3.2017 -1.4761 0
M  V30 16 N 5.9172 -2.4862 -1.0983 0
M  V30 17 C -3.5686 -1.9248 0.6457 0
M  V30 18 C -5.0028 -2.3178 0.3033 0
M  V30 19 H -0.578 1.7645 2.2816 0
M  V30 20 H -0.0824 2.9404 1.0562 0
M  V30 21 H 2.0398 -1.1853 0.9932 0
M  V30 22 H 4.0402 1.6827 -1.5477 0
M  V30 23 H -2.412 2.0201 0.7295 0
M  V30 24 H 3.784 -2.8331 0.4921 0
M  V30 25 H 5.7762 0.0225 -2.0398 0
M  V30 26 H -1.682 -0.2983 1.7053 0
M  V30 27 H -1.1392 -0.7063 0.0456 0
M  V30 28 H -0.4132 1.2488 -1.5133 0
M  V30 29 H -2.1821 1.2497 -1.7195 0
M  V30 30 H -3.4811 -0.32 -0.7996 0
M  V30 31 H -3.9935 0.1923 0.8515 0
M  V30 32 H -1.343 3.333 -2.5787 0
M  V30 33 H -2.28 3.6831 -1.0802 0
M  V30 34 H -0.4695 3.7112 -1.0592 0
M  V30 35 H 5.8813 -3.4421 -0.6791 0
M  V30 36 H 6.7116 -2.2519 -1.7345 0
M  V30 37 H -3.4045 -2.0812 1.7342 0
M  V30 38 H -2.8713 -2.5857 0.086 0
M  V30 39 H -5.1866 -2.1977 -0.7855 0
M  V30 40 H -5.1724 -3.3805 0.5767 0
M  V30 41 H -5.7214 -1.6867 0.8686 0
M  V30 END ATOM
M  V30 BEGIN BOND
M  V30 1 2 1 2
M  V30 2 1 2 3
M  V30 3 1 2 4
M  V30 4 1 3 5
M  V30 5 2 4 6
M  V30 6 1 4 7
M  V30 7 1 5 8
M  V30 8 1 6 9
M  V30 9 2 7 10
M  V30 10 1 8 11
M  V30 11 1 8 12
M  V30 12 2 9 13
M  V30 13 1 11 14
M  V30 14 1 12 15
M  V30 15 1 13 16
M  V30 16 1 14 17
M  V30 17 1 17 18
M  V30 18 1 10 13
M  V30 19 1 5 19
M  V30 20 1 5 20
M  V30 21 1 6 21
M  V30 22 1 7 22
M  V30 23 1 8 23
M  V30 24 1 9 24
M  V30 25 1 10 25
M  V30 26 1 11 26
M  V30 27 1 11 27
M  V30 28 1 12 28
M  V30 29 1 12 29
M  V30 30 1 14 30
M  V30 31 1 14 31
M  V30 32 1 15 32
M  V30 33 1 15 33
M  V30 34 1 15 34
M  V30 35 1 16 35
M  V30 36 1 16 36
M  V30 37 1 17 37
M  V30 38 1 17 38
M  V30 39 1 18 39
M  V30 40 1 18 40
M  V30 41 1 18 41
M  V30 END BOND
M  V30 BEGIN COLLECTION
M  V30 MDLV30/STEABS ATOMS=(1 8)
M  V30 END COLLECTION
M  V30 END CTAB
M  END
>  <Structure No>
739

>  <LogS>
-5.054393659

>  <MMFF94 Energy>
24.658

$$$$
Compound 740
Actelion Java MolfileCreator 2.0

  0  0  0  0  0  0              0 V3000
M  V30 BEGIN CTAB
M  V30 COUNTS 56 55 0 0 0
M  V30 BEGIN ATOM
M  V30 1 O 9.2791 1.7249 0.3134 0
M  V30 2 C 8.5224 0.7644 0.0126 0
M  V30 3 O 9.0451 -0.3453 -0.6395 0 CHG=-1
M  V30 4 C 7.0583 0.837 0.3108 0
M  V30 5 C 6.2998 1.4547 -0.8705 0
M  V30 6 C 4.7846 1.5773 -0.6006 0
M  V30 7 C 3.9401 0.5063 -1.316 0
M  V30 8 C 4.1407 -0.9294 -0.7966 0
M  V30 9 C 3.7696 -1.1478 0.685 0
M  V30 10 C 2.3266 -0.7643 1.0581 0
M  V30 11 C 1.2741 -1.5578 0.2645 0
M  V30 12 C -0.1462 -1.3873 0.8267 0
M  V30 13 C -0.7005 0.0324 0.6099 0
M  V30 14 C -2.1615 0.1812 1.0909 0 CFG=1
M  V30 15 O -2.4526 1.5396 1.3119 0
M  V30 16 C -3.1705 -0.43 0.0929 0
M  V30 17 C -4.6139 -0.3129 0.603 0
M  V30 18 C -5.6021 -0.9509 -0.3852 0
M  V30 19 C -7.0673 -0.8023 0.076 0
M  V30 20 C -7.8321 0.315 -0.6531 0
M  V30 21 C -7.308 1.7116 -0.326 0
M  V30 22 H 6.9001 1.453 1.2227 0
M  V30 23 H 6.6889 -0.1863 0.5193 0
M  V30 24 H 6.7082 2.475 -1.0472 0
M  V30 25 H 6.4907 0.8644 -1.794 0
M  V30 26 H 4.5614 1.5935 0.487 0
M  V30 27 H 4.4494 2.5634 -0.9902 0
M  V30 28 H 2.8673 0.7824 -1.2404 0
M  V30 29 H 4.1823 0.5243 -2.4009 0
M  V30 30 H 5.1977 -1.2307 -0.9509 0
M  V30 31 H 3.538 -1.6179 -1.426 0
M  V30 32 H 3.9274 -2.221 0.9286 0
M  V30 33 H 4.4651 -0.5761 1.3335 0
M  V30 34 H 2.1932 -0.9705 2.1427 0
M  V30 35 H 2.1825 0.326 0.9138 0
M  V30 36 H 1.5317 -2.6388 0.3051 0
M  V30 37 H 1.2835 -1.2465 -0.802 0
M  V30 38 H -0.7977 -2.1237 0.3127 0
M  V30 39 H -0.1525 -1.6339 1.911 0
M  V30 40 H -0.0763 0.7469 1.1876 0
M  V30 41 H -0.6258 0.3113 -0.4641 0
M  V30 42 H -2.2665 -0.3431 2.066 0
M  V30 43 H -2.3542 2.0118 0.4436 0
M  V30 44 H -3.0831 0.0867 -0.8882 0
M  V30 45 H -2.9407 -1.5047 -0.0638 0
M  V30 46 H -4.6975 -0.8282 1.5856 0
M  V30 47 H -4.8672 0.7573 0.7506 0
M  V30 48 H -5.3639 -2.0349 -0.4623 0
M  V30 49 H -5.4642 -0.5143 -1.3989 0
M  V30 50 H -7.5959 -1.7566 -0.139 0
M  V30 51 H -7.1314 -0.6501 1.1763 0
M  V30 52 H -8.9 0.2632 -0.3492 0
M  V30 53 H -7.7893 0.1503 -1.7515 0
M  V30 54 H -7.2595 1.8623 0.7734 0
M  V30 55 H -7.9914 2.4727 -0.7576 0
M  V30 56 H -6.3026 1.8626 -0.7701 0
M  V30 END ATOM
M  V30 BEGIN BOND
M  V30 1 2 1 2
M  V30 2 1 2 3
M  V30 3 1 2 4
M  V30 4 1 4 5
M  V30 5 1 5 6
M  V30 6 1 6 7
M  V30 7 1 7 8
M  V30 8 1 8 9
M  V30 9 1 9 10
M  V30 10 1 10 11
M  V30 11 1 11 12
M  V30 12 1 12 13
M  V30 13 1 13 14
M  V30 14 1 14 15
M  V30 15 1 14 16
M  V30 16 1 16 17
M  V30 17 1 17 18
M  V30 18 1 18 19
M  V30 19 1 19 20
M  V30 20 1 20 21
M  V30 21 1 4 22
M  V30 22 1 4 23
M  V30 23 1 5 24
M  V30 24 1 5 25
M  V30 25 1 6 26
M  V30 26 1 6 27
M  V30 27 1 7 28
M  V30 28 1 7 29
M  V30 29 1 8 30
M  V30 30 1 8 31
M  V30 31 1 9 32
M  V30 32 1 9 33
M  V30 33 1 10 34
M  V30 34 1 10 35
M  V30 35 1 11 36
M  V30 36 1 11 37
M  V30 37 1 12 38
M  V30 38 1 12 39
M  V30 39 1 13 40
M  V30 40 1 13 41
M  V30 41 1 14 42
M  V30 42 1 15 43
M  V30 43 1 16 44
M  V30 44 1 16 45
M  V30 45 1 17 46
M  V30 46 1 17 47
M  V30 47 1 18 48
M  V30 48 1 18 49
M  V30 49 1 19 50
M  V30 50 1 19 51
M  V30 51 1 20 52
M  V30 52 1 20 53
M  V30 53 1 21 54
M  V30 54 1 21 55
M  V30 55 1 21 56
M  V30 END BOND
M  V30 BEGIN COLLECTION
M  V30 MDLV30/STEABS ATOMS=(1 14)
M  V30 END COLLECTION
M  V30 END CTAB
M  END
>  <Structure No>
740

>  <LogS>
-5.463097207

>  <MMFF94 Energy>
7.1257

$$$$
Compound 741
Actelion Java MolfileCreator 2.0

  0  0  0  0  0  0              0 V3000
M  V30 BEGIN CTAB
M  V30 COUNTS 55 54 0 0 0
M  V30 BEGIN ATOM
M  V30 1 O -3.8419 -0.7048 -4.3917 0
M  V30 2 C -3.9175 -0.0232 -3.3351 0
M  V30 3 O -4.8459 1.006 -3.2444 0 CHG=-1
M  V30 4 C -3.0384 -0.3423 -2.1679 0
M  V30 5 C -3.5715 -1.5663 -1.4108 0
M  V30 6 C -2.703 -1.9201 -0.193 0
M  V30 7 C -3.0234 -1.0406 1.0252 0
M  V30 8 C -2.07 -1.351 2.1884 0
M  V30 9 C -2.316 -0.4602 3.4179 0
M  V30 10 C -1.971 1.0307 3.2256 0
M  V30 11 C -0.4878 1.2911 2.8859 0
M  V30 12 C -0.2793 1.5795 1.3917 0
M  V30 13 C 1.2119 1.6458 1.0394 0
M  V30 14 C 1.4661 2.1005 -0.4106 0
M  V30 15 C 0.7988 1.2333 -1.4969 0
M  V30 16 C 1.2165 -0.2497 -1.4947 0
M  V30 17 C 2.6855 -0.4803 -1.9106 0
M  V30 18 C 3.6053 -0.7489 -0.7066 0
M  V30 19 C 5.0355 -1.1189 -1.1308 0
M  V30 20 C 5.8248 0.0822 -1.6513 0
M  V30 21 H -2.9975 0.5415 -1.4984 0
M  V30 22 H -2.0083 -0.5442 -2.5346 0
M  V30 23 H -3.5723 -2.4376 -2.1032 0
M  V30 24 H -4.6233 -1.3923 -1.0913 0
M  V30 25 H -1.6267 -1.8308 -0.4603 0
M  V30 26 H -2.8929 -2.9817 0.0791 0
M  V30 27 H -4.0701 -1.2289 1.3495 0
M  V30 28 H -2.942 0.0261 0.7416 0
M  V30 29 H -1.0125 -1.2675 1.8611 0
M  V30 30 H -2.2265 -2.4082 2.4961 0
M  V30 31 H -3.3834 -0.5441 3.7169 0
M  V30 32 H -1.714 -0.8556 4.2644 0
M  V30 33 H -2.6459 1.4955 2.4756 0
M  V30 34 H -2.196 1.5412 4.1876 0
M  V30 35 H -0.1402 2.1785 3.4596 0
M  V30 36 H 0.1416 0.432 3.206 0
M  V30 37 H -0.7689 2.5442 1.1335 0
M  V30 38 H -0.749 0.7777 0.7922 0
M  V30 39 H 1.6804 0.6561 1.2208 0
M  V30 40 H 1.7115 2.3733 1.7163 0
M  V30 41 H 1.0927 3.1416 -0.5229 0
M  V30 42 H 2.5605 2.1391 -0.5924 0
M  V30 43 H -0.3053 1.2968 -1.3954 0
M  V30 44 H 1.0349 1.6727 -2.4909 0
M  V30 45 H 0.9853 -0.7244 -0.5175 0
M  V30 46 H 0.5693 -0.7667 -2.2375 0
M  V30 47 H 3.0608 0.3841 -2.4971 0
M  V30 48 H 2.7221 -1.3684 -2.5799 0
M  V30 49 H 3.6389 0.1329 -0.0347 0
M  V30 50 H 3.1918 -1.6005 -0.1242 0
M  V30 51 H 5.0132 -1.9153 -1.906 0
M  V30 52 H 5.5705 -1.5286 -0.2465 0
M  V30 53 H 6.8682 -0.229 -1.8688 0
M  V30 54 H 5.379 0.4753 -2.5872 0
M  V30 55 H 5.8512 0.888 -0.8877 0
M  V30 END ATOM
M  V30 BEGIN BOND
M  V30 1 2 1 2
M  V30 2 1 2 3
M  V30 3 1 2 4
M  V30 4 1 4 5
M  V30 5 1 5 6
M  V30 6 1 6 7
M  V30 7 1 7 8
M  V30 8 1 8 9
M  V30 9 1 9 10
M  V30 10 1 10 11
M  V30 11 1 11 12
M  V30 12 1 12 13
M  V30 13 1 13 14
M  V30 14 1 14 15
M  V30 15 1 15 16
M  V30 16 1 16 17
M  V30 17 1 17 18
M  V30 18 1 18 19
M  V30 19 1 19 20
M  V30 20 1 4 21
M  V30 21 1 4 22
M  V30 22 1 5 23
M  V30 23 1 5 24
M  V30 24 1 6 25
M  V30 25 1 6 26
M  V30 26 1 7 27
M  V30 27 1 7 28
M  V30 28 1 8 29
M  V30 29 1 8 30
M  V30 30 1 9 31
M  V30 31 1 9 32
M  V30 32 1 10 33
M  V30 33 1 10 34
M  V30 34 1 11 35
M  V30 35 1 11 36
M  V30 36 1 12 37
M  V30 37 1 12 38
M  V30 38 1 13 39
M  V30 39 1 13 40
M  V30 40 1 14 41
M  V30 41 1 14 42
M  V30 42 1 15 43
M  V30 43 1 15 44
M  V30 44 1 16 45
M  V30 45 1 16 46
M  V30 46 1 17 47
M  V30 47 1 17 48
M  V30 48 1 18 49
M  V30 49 1 18 50
M  V30 50 1 19 51
M  V30 51 1 19 52
M  V30 52 1 20 53
M  V30 53 1 20 54
M  V30 54 1 20 55
M  V30 END BOND
M  V30 END CTAB
M  END
>  <Structure No>
741

>  <LogS>
-5.440787474

>  <MMFF94 Energy>
0.45245

$$$$
Compound 742
Actelion Java MolfileCreator 2.0

  0  0  0  0  0  0              0 V3000
M  V30 BEGIN CTAB
M  V30 COUNTS 57 56 0 0 0
M  V30 BEGIN ATOM
M  V30 1 O 2.8221 1.8807 0.3132 0
M  V30 2 C 2.5256 0.6582 0.4074 0
M  V30 3 O 3.4601 -0.2721 0.8764 0
M  V30 4 C 1.1425 0.2022 0.0681 0
M  V30 5 C 4.8064 0.0654 1.2045 0
M  V30 6 C 0.246 0.2403 1.3156 0
M  V30 7 C 5.6373 0.2561 -0.0675 0
M  V30 8 C -1.2031 -0.2038 1.0207 0
M  V30 9 C 7.0957 0.5835 0.2709 0
M  V30 10 O -1.7188 0.6865 0.0397 0
M  V30 11 O -1.1442 -1.532 0.5293 0
M  V30 12 C -1.9893 -0.1453 2.358 0
M  V30 13 C 7.9277 0.7655 -0.9949 0
M  V30 14 O -3.0385 0.5592 -0.0059 0
M  V30 15 O -2.3766 -1.9201 0.2334 0
M  V30 16 C -3.5882 1.8167 -0.3517 0
M  V30 17 C -2.3258 -2.6648 -0.9704 0
M  V30 18 C -3.0819 2.2765 -1.7361 0
M  V30 19 C -3.2577 2.8771 0.72 0
M  V30 20 C -5.1127 1.6412 -0.4185 0
M  V30 21 C -3.7654 -3.0847 -1.3038 0
M  V30 22 C -1.7792 -1.8112 -2.136 0
M  V30 23 C -1.467 -3.9342 -0.7886 0
M  V30 24 H 0.7263 0.8588 -0.7266 0
M  V30 25 H 1.1968 -0.8331 -0.3311 0
M  V30 26 H 4.8281 0.9847 1.8306 0
M  V30 27 H 5.2377 -0.7668 1.8006 0
M  V30 28 H 0.2362 1.2784 1.7189 0
M  V30 29 H 0.6874 -0.4243 2.0924 0
M  V30 30 H 5.595 -0.6779 -0.6696 0
M  V30 31 H 5.2054 1.083 -0.6716 0
M  V30 32 H 7.5352 -0.2399 0.875 0
M  V30 33 H 7.1399 1.5206 0.8681 0
M  V30 34 H -1.9992 0.8914 2.7561 0
M  V30 35 H -3.0404 -0.4803 2.2329 0
M  V30 36 H -1.5155 -0.81 3.1121 0
M  V30 37 H 7.9205 -0.167 -1.5986 0
M  V30 38 H 7.5239 1.6013 -1.6055 0
M  V30 39 H 8.9772 1.0019 -0.719 0
M  V30 40 H -3.2867 1.4959 -2.4992 0
M  V30 41 H -3.5887 3.2158 -2.0464 0
M  V30 42 H -1.9884 2.4691 -1.7176 0
M  V30 43 H -3.609 2.5385 1.718 0
M  V30 44 H -3.7534 3.8426 0.4808 0
M  V30 45 H -2.1634 3.0593 0.777 0
M  V30 46 H -5.3795 0.8774 -1.1807 0
M  V30 47 H -5.5043 1.2982 0.5634 0
M  V30 48 H -5.6131 2.5976 -0.6848 0
M  V30 49 H -4.1886 -3.7 -0.4806 0
M  V30 50 H -4.4092 -2.1868 -1.428 0
M  V30 51 H -3.8008 -3.6782 -2.2432 0
M  V30 52 H -1.8133 -2.3836 -3.0882 0
M  V30 53 H -0.7247 -1.5141 -1.9555 0
M  V30 54 H -2.3868 -0.8903 -2.2598 0
M  V30 55 H -1.516 -4.5745 -1.6958 0
M  V30 56 H -1.83 -4.5226 0.0813 0
M  V30 57 H -0.402 -3.6716 -0.6127 0
M  V30 END ATOM
M  V30 BEGIN BOND
M  V30 1 2 1 2
M  V30 2 1 2 3
M  V30 3 1 2 4
M  V30 4 1 3 5
M  V30 5 1 4 6
M  V30 6 1 5 7
M  V30 7 1 6 8
M  V30 8 1 7 9
M  V30 9 1 8 10
M  V30 10 1 8 11
M  V30 11 1 8 12
M  V30 12 1 9 13
M  V30 13 1 10 14
M  V30 14 1 11 15
M  V30 15 1 14 16
M  V30 16 1 15 17
M  V30 17 1 16 18
M  V30 18 1 16 19
M  V30 19 1 16 20
M  V30 20 1 17 21
M  V30 21 1 17 22
M  V30 22 1 17 23
M  V30 23 1 4 24
M  V30 24 1 4 25
M  V30 25 1 5 26
M  V30 26 1 5 27
M  V30 27 1 6 28
M  V30 28 1 6 29
M  V30 29 1 7 30
M  V30 30 1 7 31
M  V30 31 1 9 32
M  V30 32 1 9 33
M  V30 33 1 12 34
M  V30 34 1 12 35
M  V30 35 1 12 36
M  V30 36 1 13 37
M  V30 37 1 13 38
M  V30 38 1 13 39
M  V30 39 1 18 40
M  V30 40 1 18 41
M  V30 41 1 18 42
M  V30 42 1 19 43
M  V30 43 1 19 44
M  V30 44 1 19 45
M  V30 45 1 20 46
M  V30 46 1 20 47
M  V30 47 1 20 48
M  V30 48 1 21 49
M  V30 49 1 21 50
M  V30 50 1 21 51
M  V30 51 1 22 52
M  V30 52 1 22 53
M  V30 53 1 22 54
M  V30 54 1 23 55
M  V30 55 1 23 56
M  V30 56 1 23 57
M  V30 END BOND
M  V30 END CTAB
M  END
>  <Structure No>
742

>  <LogS>
-5.189881345

>  <MMFF94 Energy>
38.588

$$$$
Compound 743
Actelion Java MolfileCreator 2.0

  0  0  0  0  0  0              0 V3000
M  V30 BEGIN CTAB
M  V30 COUNTS 18 19 0 0 0
M  V30 BEGIN ATOM
M  V30 1 Cl -4.1207 -1.2006 -0.1714 0
M  V30 2 C -2.5358 -0.4293 -0.1004 0
M  V30 3 C -2.4204 0.9118 -0.099 0
M  V30 4 C -1.3338 -1.2904 -0.0424 0
M  V30 5 Cl -3.8501 1.9428 -0.168 0
M  V30 6 C -1.0889 1.5547 -0.0394 0
M  V30 7 O -1.4648 -2.5445 -0.0448 0
M  V30 8 C 0.014 -0.6805 0.018 0
M  V30 9 O -1.0035 2.8129 -0.0391 0
M  V30 10 C 0.1349 0.7234 0.0195 0
M  V30 11 C 1.171 -1.4776 0.0738 0
M  V30 12 C 1.4111 1.3108 0.0768 0
M  V30 13 C 2.4338 -0.8825 0.1304 0
M  V30 14 C 2.5536 0.5085 0.1318 0
M  V30 15 H 1.0999 -2.5581 0.0737 0
M  V30 16 H 1.5257 2.3877 0.0789 0
M  V30 17 H 3.3212 -1.5008 0.1731 0
M  V30 18 H 3.5335 0.966 0.1758 0
M  V30 END ATOM
M  V30 BEGIN BOND
M  V30 1 1 1 2
M  V30 2 2 2 3
M  V30 3 1 2 4
M  V30 4 1 3 5
M  V30 5 1 3 6
M  V30 6 2 4 7
M  V30 7 1 4 8
M  V30 8 2 6 9
M  V30 9 1 6 10
M  V30 10 1 8 11
M  V30 11 1 10 12
M  V30 12 2 11 13
M  V30 13 2 12 14
M  V30 14 2 8 10
M  V30 15 1 13 14
M  V30 16 1 11 15
M  V30 17 1 12 16
M  V30 18 1 13 17
M  V30 19 1 14 18
M  V30 END BOND
M  V30 END CTAB
M  END
>  <Structure No>
743

>  <LogS>
-5.023776406

>  <MMFF94 Energy>
47.522

$$$$
Compound 744
Actelion Java MolfileCreator 2.0

  0  0  0  0  0  0              0 V3000
M  V30 BEGIN CTAB
M  V30 COUNTS 27 28 0 0 0
M  V30 BEGIN ATOM
M  V30 1 O -1.8465 0.4814 -2.1679 0
M  V30 2 C -1.055 -0.0028 -1.3739 0
M  V30 3 C -0.6899 0.5676 -0.0259 0 CFG=2
M  V30 4 C -0.3655 -1.322 -1.5372 0
M  V30 5 C 0.7665 0.0735 0.1081 0
M  V30 6 C -1.4593 -0.3059 0.9938 0
M  V30 7 C -0.9163 2.0766 0.1214 0
M  V30 8 C 0.3707 -1.3965 -0.1705 0 CFG=1
M  V30 9 C 1.7544 0.6649 -0.9448 0
M  V30 10 C 1.4245 0.2952 1.5031 0
M  V30 11 C -0.7216 -1.665 0.9014 0
M  V30 12 H 0.3455 -1.3046 -2.3896 0
M  V30 13 H -1.0948 -2.1485 -1.6796 0
M  V30 14 H -1.4051 0.1133 2.0215 0
M  V30 15 H -2.533 -0.4105 0.7192 0
M  V30 16 H -0.5809 2.4213 1.1218 0
M  V30 17 H -1.9966 2.3098 0.0128 0
M  V30 18 H -0.3531 2.632 -0.6577 0
M  V30 19 H 1.2106 -2.1236 -0.1505 0
M  V30 20 H 2.0344 1.7045 -0.6707 0
M  V30 21 H 1.3438 0.7158 -1.9727 0
M  V30 22 H 2.6811 0.0533 -0.9762 0
M  V30 23 H 0.8153 -0.0384 2.3629 0
M  V30 24 H 2.3895 -0.253 1.5519 0
M  V30 25 H 1.6329 1.3747 1.6617 0
M  V30 26 H -1.4133 -2.4818 0.5996 0
M  V30 27 H -0.2673 -1.9487 1.8743 0
M  V30 END ATOM
M  V30 BEGIN BOND
M  V30 1 2 1 2
M  V30 2 1 2 3
M  V30 3 1 2 4
M  V30 4 1 3 5
M  V30 5 1 3 6
M  V30 6 1 3 7
M  V30 7 1 4 8
M  V30 8 1 5 9
M  V30 9 1 5 10
M  V30 10 1 6 11
M  V30 11 1 5 8
M  V30 12 1 8 11
M  V30 13 1 4 12
M  V30 14 1 4 13
M  V30 15 1 6 14
M  V30 16 1 6 15
M  V30 17 1 7 16
M  V30 18 1 7 17
M  V30 19 1 7 18
M  V30 20 1 8 19
M  V30 21 1 9 20
M  V30 22 1 9 21
M  V30 23 1 9 22
M  V30 24 1 10 23
M  V30 25 1 10 24
M  V30 26 1 10 25
M  V30 27 1 11 26
M  V30 28 1 11 27
M  V30 END BOND
M  V30 BEGIN COLLECTION
M  V30 MDLV30/STEABS ATOMS=(2 3 8)
M  V30 END COLLECTION
M  V30 END CTAB
M  END
>  <Structure No>
744

>  <LogS>
-5.438370605

>  <MMFF94 Energy>
45.556

$$$$
Compound 745
Actelion Java MolfileCreator 2.0

  0  0  0  0  0  0              0 V3000
M  V30 BEGIN CTAB
M  V30 COUNTS 37 39 0 0 0
M  V30 BEGIN ATOM
M  V30 1 O -0.0799 1.5204 -1.6806 0
M  V30 2 C -0.0582 0.7299 -0.6981 0
M  V30 3 N -1.2834 0.3401 -0.0523 0
M  V30 4 C 1.2442 0.2184 -0.2189 0
M  V30 5 C -2.5854 0.7735 -0.4819 0
M  V30 6 C 1.4248 -1.1408 0.1106 0
M  V30 7 C 2.33 1.1042 -0.1175 0
M  V30 8 C -3.6525 -0.1459 -0.504 0
M  V30 9 C -2.82 2.118 -0.8221 0
M  V30 10 O 0.3806 -2.0517 -0.0516 0
M  V30 11 C 2.6685 -1.5897 0.5775 0
M  V30 12 C 3.5764 0.6567 0.3426 0
M  V30 13 O -3.4011 -1.4792 -0.1411 0
M  V30 14 C -4.934 0.2902 -0.8974 0
M  V30 15 C -4.0939 2.5368 -1.2112 0
M  V30 16 C 3.7458 -0.7017 0.6981 0
M  V30 17 C 4.658 1.5447 0.4573 0
M  V30 18 C -4.3829 -2.5102 -0.1236 0
M  V30 19 C -5.1477 1.6239 -1.2522 0
M  V30 20 C 4.9936 -1.1484 1.1614 0
M  V30 21 C 5.8952 1.0878 0.9203 0
M  V30 22 C 6.0624 -0.2542 1.2714 0
M  V30 23 H -1.2376 -0.3335 0.7443 0
M  V30 24 H 2.1975 2.1478 -0.3818 0
M  V30 25 H -2.0255 2.8499 -0.7613 0
M  V30 26 H 0.4907 -3.034 0.1715 0
M  V30 27 H 2.7951 -2.6352 0.8335 0
M  V30 28 H -5.7711 -0.3934 -0.9317 0
M  V30 29 H -4.2664 3.5732 -1.4718 0
M  V30 30 H 4.5467 2.589 0.1902 0
M  V30 31 H -4.8022 -2.6554 -1.1417 0
M  V30 32 H -5.193 -2.2542 0.5915 0
M  V30 33 H -3.9072 -3.4576 0.2026 0
M  V30 34 H -6.1348 1.952 -1.5522 0
M  V30 35 H 5.1417 -2.1858 1.4368 0
M  V30 36 H 6.7265 1.7756 1.0075 0
M  V30 37 H 7.0227 -0.6026 1.6292 0
M  V30 END ATOM
M  V30 BEGIN BOND
M  V30 1 2 1 2
M  V30 2 1 2 3
M  V30 3 1 2 4
M  V30 4 1 3 5
M  V30 5 1 4 6
M  V30 6 2 4 7
M  V30 7 2 5 8
M  V30 8 1 5 9
M  V30 9 1 6 10
M  V30 10 2 6 11
M  V30 11 1 7 12
M  V30 12 1 8 13
M  V30 13 1 8 14
M  V30 14 2 9 15
M  V30 15 1 11 16
M  V30 16 2 12 17
M  V30 17 1 13 18
M  V30 18 2 14 19
M  V30 19 2 16 20
M  V30 20 1 17 21
M  V30 21 1 20 22
M  V30 22 1 12 16
M  V30 23 1 15 19
M  V30 24 2 21 22
M  V30 25 1 3 23
M  V30 26 1 7 24
M  V30 27 1 9 25
M  V30 28 1 10 26
M  V30 29 1 11 27
M  V30 30 1 14 28
M  V30 31 1 15 29
M  V30 32 1 17 30
M  V30 33 1 18 31
M  V30 34 1 18 32
M  V30 35 1 18 33
M  V30 36 1 19 34
M  V30 37 1 20 35
M  V30 38 1 21 36
M  V30 39 1 22 37
M  V30 END BOND
M  V30 END CTAB
M  END
>  <Structure No>
745

>  <LogS>
-5.176510186

>  <MMFF94 Energy>
53.212

$$$$
Compound 746
Actelion Java MolfileCreator 2.0

  0  0  0  0  0  0              0 V3000
M  V30 BEGIN CTAB
M  V30 COUNTS 15 15 0 0 0
M  V30 BEGIN ATOM
M  V30 1 Cl 0.4459 2.7672 0.2675 0
M  V30 2 C -0.1874 1.1337 0.0678 0
M  V30 3 C 0.645 -0.0194 -0.0072 0
M  V30 4 C -1.5797 1.0072 -0.0167 0
M  V30 5 C 0.0152 -1.2769 -0.1683 0
M  V30 6 C 2.1705 0.0948 0.083 0
M  V30 7 C -2.1703 -0.2437 -0.175 0
M  V30 8 C -1.3746 -1.3824 -0.2506 0
M  V30 9 Cl 3.043 -1.4646 -0.0316 0
M  V30 10 Cl 2.7942 1.1082 -1.2471 0
M  V30 11 Cl 2.6453 0.8122 1.6467 0
M  V30 12 H -2.21 1.8858 0.0407 0
M  V30 13 H 0.5794 -2.1947 -0.2332 0
M  V30 14 H -3.2473 -0.3304 -0.2393 0
M  V30 15 H -1.836 -2.3538 -0.3737 0
M  V30 END ATOM
M  V30 BEGIN BOND
M  V30 1 1 1 2
M  V30 2 2 2 3
M  V30 3 1 2 4
M  V30 4 1 3 5
M  V30 5 1 3 6
M  V30 6 2 4 7
M  V30 7 2 5 8
M  V30 8 1 6 9
M  V30 9 1 6 10
M  V30 10 1 6 11
M  V30 11 1 7 8
M  V30 12 1 4 12
M  V30 13 1 5 13
M  V30 14 1 7 14
M  V30 15 1 8 15
M  V30 END BOND
M  V30 END CTAB
M  END
>  <Structure No>
746

>  <LogS>
-5.043933097

>  <MMFF94 Energy>
32.469

$$$$
Compound 747
Actelion Java MolfileCreator 2.0

  0  0  0  0  0  0              0 V3000
M  V30 BEGIN CTAB
M  V30 COUNTS 38 37 0 0 0
M  V30 BEGIN ATOM
M  V30 1 O 5.6941 -1.0121 0.467 0
M  V30 2 C 5.1863 0.106 0.1807 0
M  V30 3 O 3.9094 0.4523 0.6357 0
M  V30 4 C 5.9369 1.0555 -0.6892 0
M  V30 5 C 3.083 -0.4236 1.4017 0
M  V30 6 C 2.488 -1.5397 0.5311 0
M  V30 7 C 1.7741 -1.0295 -0.7355 0
M  V30 8 C 0.604 -0.0627 -0.4783 0
M  V30 9 C -0.5397 -0.7094 0.322 0
M  V30 10 C -1.7563 0.2203 0.4643 0
M  V30 11 C -2.6397 0.2298 -0.7952 0
M  V30 12 C -3.7805 1.261 -0.7178 0
M  V30 13 C -4.8052 1.0122 0.4034 0
M  V30 14 C -5.5417 -0.3185 0.2565 0
M  V30 15 H 5.5754 2.0915 -0.5201 0
M  V30 16 H 7.0216 1.0116 -0.4555 0
M  V30 17 H 5.779 0.7841 -1.7536 0
M  V30 18 H 2.2647 0.1666 1.8632 0
M  V30 19 H 3.6706 -0.8689 2.2338 0
M  V30 20 H 3.3068 -2.2209 0.2154 0
M  V30 21 H 1.7912 -2.1502 1.143 0
M  V30 22 H 2.5162 -0.5209 -1.3884 0
M  V30 23 H 1.3966 -1.9065 -1.3049 0
M  V30 24 H 0.2251 0.2642 -1.4686 0
M  V30 25 H 0.9665 0.8479 0.044 0
M  V30 26 H -0.1733 -0.9396 1.345 0
M  V30 27 H -0.8473 -1.6677 -0.1508 0
M  V30 28 H -1.4194 1.2522 0.7072 0
M  V30 29 H -2.3603 -0.1483 1.3204 0
M  V30 30 H -2.0221 0.4904 -1.6793 0
M  V30 31 H -3.0514 -0.7853 -0.9777 0
M  V30 32 H -3.3418 2.2731 -0.5786 0
M  V30 33 H -4.3137 1.2719 -1.6934 0
M  V30 34 H -4.318 1.0641 1.3994 0
M  V30 35 H -5.5575 1.8298 0.369 0
M  V30 36 H -6.3709 -0.3644 0.9936 0
M  V30 37 H -5.9694 -0.4165 -0.7637 0
M  V30 38 H -4.8574 -1.1688 0.4567 0
M  V30 END ATOM
M  V30 BEGIN BOND
M  V30 1 2 1 2
M  V30 2 1 2 3
M  V30 3 1 2 4
M  V30 4 1 3 5
M  V30 5 1 5 6
M  V30 6 1 6 7
M  V30 7 1 7 8
M  V30 8 1 8 9
M  V30 9 1 9 10
M  V30 10 1 10 11
M  V30 11 1 11 12
M  V30 12 1 12 13
M  V30 13 1 13 14
M  V30 14 1 4 15
M  V30 15 1 4 16
M  V30 16 1 4 17
M  V30 17 1 5 18
M  V30 18 1 5 19
M  V30 19 1 6 20
M  V30 20 1 6 21
M  V30 21 1 7 22
M  V30 22 1 7 23
M  V30 23 1 8 24
M  V30 24 1 8 25
M  V30 25 1 9 26
M  V30 26 1 9 27
M  V30 27 1 10 28
M  V30 28 1 10 29
M  V30 29 1 11 30
M  V30 30 1 11 31
M  V30 31 1 12 32
M  V30 32 1 12 33
M  V30 33 1 13 34
M  V30 34 1 13 35
M  V30 35 1 14 36
M  V30 36 1 14 37
M  V30 37 1 14 38
M  V30 END BOND
M  V30 END CTAB
M  END
>  <Structure No>
747

>  <LogS>
-4.985758302

>  <MMFF94 Energy>
-12.335

$$$$
Compound 748
Actelion Java MolfileCreator 2.0

  0  0  0  0  0  0              0 V3000
M  V30 BEGIN CTAB
M  V30 COUNTS 35 34 0 0 0
M  V30 BEGIN ATOM
M  V30 1 S -0.7621 0.254 0.6774 0
M  V30 2 O -0.1126 -1.0591 1.0191 0
M  V30 3 O -1.2187 0.9109 1.952 0
M  V30 4 N 0.3646 1.2941 -0.1771 0
M  V30 5 C -2.1763 -0.063 -0.3816 0
M  V30 6 C 1.7612 0.9816 0.1857 0
M  V30 7 C 0.059 2.7018 0.1161 0
M  V30 8 F -2.672 1.1559 -0.8058 0
M  V30 9 F -1.736 -0.7752 -1.4833 0
M  V30 10 C -3.283 -0.8505 0.3635 0
M  V30 11 C 2.324 -0.0818 -0.7614 0
M  V30 12 F -2.7103 -1.9325 1.0132 0
M  V30 13 F -3.8475 -0.0324 1.3295 0
M  V30 14 C -4.4068 -1.4092 -0.5498 0
M  V30 15 O 3.6797 -0.378 -0.4325 0
M  V30 16 F -5.3276 -2.0525 0.2619 0
M  V30 17 F -3.8757 -2.3573 -1.4094 0
M  V30 18 C -5.1605 -0.354 -1.381 0
M  V30 19 C 4.0515 -1.1693 0.6621 0
M  V30 20 F -5.5288 0.7237 -0.5953 0
M  V30 21 F -6.3062 -0.9224 -1.909 0
M  V30 22 F -4.3802 0.0887 -2.4338 0
M  V30 23 O 3.1742 -1.7068 1.391 0
M  V30 24 C 5.4714 -1.3901 0.9718 0
M  V30 25 C 6.4477 -0.851 0.2454 0
M  V30 26 H 2.4129 1.8794 0.0819 0
M  V30 27 H 1.8403 0.6525 1.2453 0
M  V30 28 H 0.2732 2.9466 1.1802 0
M  V30 29 H -1.0064 2.9235 -0.1004 0
M  V30 30 H 0.6676 3.3638 -0.5364 0
M  V30 31 H 2.2941 0.3136 -1.7989 0
M  V30 32 H 1.7161 -1.0105 -0.7396 0
M  V30 33 H 5.7315 -2.0112 1.8203 0
M  V30 34 H 6.2364 -0.2227 -0.6105 0
M  V30 35 H 7.4809 -1.0382 0.5077 0
M  V30 END ATOM
M  V30 BEGIN BOND
M  V30 1 2 1 2
M  V30 2 2 1 3
M  V30 3 1 1 4
M  V30 4 1 1 5
M  V30 5 1 4 6
M  V30 6 1 4 7
M  V30 7 1 5 8
M  V30 8 1 5 9
M  V30 9 1 5 10
M  V30 10 1 6 11
M  V30 11 1 10 12
M  V30 12 1 10 13
M  V30 13 1 10 14
M  V30 14 1 11 15
M  V30 15 1 14 16
M  V30 16 1 14 17
M  V30 17 1 14 18
M  V30 18 1 15 19
M  V30 19 1 18 20
M  V30 20 1 18 21
M  V30 21 1 18 22
M  V30 22 2 19 23
M  V30 23 1 19 24
M  V30 24 2 24 25
M  V30 25 1 6 26
M  V30 26 1 6 27
M  V30 27 1 7 28
M  V30 28 1 7 29
M  V30 29 1 7 30
M  V30 30 1 11 31
M  V30 31 1 11 32
M  V30 32 1 24 33
M  V30 33 1 25 34
M  V30 34 1 25 35
M  V30 END BOND
M  V30 END CTAB
M  END
>  <Structure No>
748

>  <LogS>
-5.308746093

>  <MMFF94 Energy>
41.263

$$$$
Compound 749
Actelion Java MolfileCreator 2.0

  0  0  0  0  0  0              0 V3000
M  V30 BEGIN CTAB
M  V30 COUNTS 28 28 0 0 0
M  V30 BEGIN ATOM
M  V30 1 N 0.1572 -1.5734 -2.5972 0
M  V30 2 C 0.1767 -0.9152 -1.6455 0
M  V30 3 C 0.2009 -0.0769 -0.4337 0 CFG=2
M  V30 4 C 1.6195 0.0402 0.0858 0
M  V30 5 C -0.729 -0.6452 0.6604 0
M  V30 6 C 2.3766 -1.1077 0.3944 0
M  V30 7 C 2.1886 1.3087 0.3029 0
M  V30 8 C -2.2218 -0.6463 0.2787 0
M  V30 9 C 3.6767 -0.985 0.8935 0
M  V30 10 C 3.4894 1.425 0.8025 0
M  V30 11 C -2.8323 0.763 0.2611 0
M  V30 12 C 4.2329 0.2799 1.0962 0
M  V30 13 C -4.3404 0.7052 0.0342 0
M  V30 14 H -0.1597 0.9302 -0.7284 0
M  V30 15 H -0.5978 -0.0608 1.5982 0
M  V30 16 H -0.4299 -1.6921 0.8889 0
M  V30 17 H 1.9604 -2.0963 0.2471 0
M  V30 18 H 1.6266 2.2089 0.0877 0
M  V30 19 H -2.7632 -1.2583 1.0335 0
M  V30 20 H -2.3676 -1.1347 -0.7087 0
M  V30 21 H 4.2525 -1.8718 1.1249 0
M  V30 22 H 3.9204 2.4046 0.9641 0
M  V30 23 H -2.3815 1.3665 -0.5538 0
M  V30 24 H -2.6357 1.2724 1.2295 0
M  V30 25 H 5.2394 0.3726 1.4834 0
M  V30 26 H -4.7535 1.7357 0.0151 0
M  V30 27 H -4.5655 0.2139 -0.9362 0
M  V30 28 H -4.8335 0.1411 0.8544 0
M  V30 END ATOM
M  V30 BEGIN BOND
M  V30 1 3 1 2
M  V30 2 1 2 3
M  V30 3 1 3 4
M  V30 4 1 3 5
M  V30 5 2 4 6
M  V30 6 1 4 7
M  V30 7 1 5 8
M  V30 8 1 6 9
M  V30 9 2 7 10
M  V30 10 1 8 11
M  V30 11 2 9 12
M  V30 12 1 11 13
M  V30 13 1 10 12
M  V30 14 1 3 14
M  V30 15 1 5 15
M  V30 16 1 5 16
M  V30 17 1 6 17
M  V30 18 1 7 18
M  V30 19 1 8 19
M  V30 20 1 8 20
M  V30 21 1 9 21
M  V30 22 1 10 22
M  V30 23 1 11 23
M  V30 24 1 11 24
M  V30 25 1 12 25
M  V30 26 1 13 26
M  V30 27 1 13 27
M  V30 28 1 13 28
M  V30 END BOND
M  V30 BEGIN COLLECTION
M  V30 MDLV30/STEABS ATOMS=(1 3)
M  V30 END COLLECTION
M  V30 END CTAB
M  END
>  <Structure No>
749

>  <LogS>
-3.662354453

>  <MMFF94 Energy>
35.476

$$$$
Compound 750
Actelion Java MolfileCreator 2.0

  0  0  0  0  0  0              0 V3000
M  V30 BEGIN CTAB
M  V30 COUNTS 8 7 0 0 0
M  V30 BEGIN ATOM
M  V30 1 Cl 1.5773 -1.1828 -0.887 0
M  V30 2 C 0.7046 0.1349 -0.06 0
M  V30 3 Cl 1.3446 0.2885 1.5977 0
M  V30 4 Cl 1.015 1.6588 -0.9333 0
M  V30 5 C -0.7983 -0.1618 -0.0249 0
M  V30 6 F -1.4711 0.8631 0.6175 0
M  V30 7 F -1.0343 -1.3448 0.6535 0
M  V30 8 F -1.2904 -0.2801 -1.3132 0
M  V30 END ATOM
M  V30 BEGIN BOND
M  V30 1 1 1 2
M  V30 2 1 2 3
M  V30 3 1 2 4
M  V30 4 1 2 5
M  V30 5 1 5 6
M  V30 6 1 5 7
M  V30 7 1 5 8
M  V30 END BOND
M  V30 END CTAB
M  END
>  <Structure No>
750

>  <LogS>
-4.333192393

>  <MMFF94 Energy>
69.126

$$$$
Compound 751
Actelion Java MolfileCreator 2.0

  0  0  0  0  0  0              0 V3000
M  V30 BEGIN CTAB
M  V30 COUNTS 42 41 0 0 0
M  V30 BEGIN ATOM
M  V30 1 O -6.9182 -1.7066 0.7754 0
M  V30 2 C -6.4901 -0.6334 -0.0179 0
M  V30 3 C -4.9878 -0.4039 0.1679 0
M  V30 4 C -4.5019 0.7826 -0.6776 0
M  V30 5 C -3.0258 1.1254 -0.4213 0
M  V30 6 C -2.0671 0.0466 -0.9566 0
M  V30 7 C -0.5999 0.5055 -0.9586 0
M  V30 8 C -0.011 0.6045 0.4594 0
M  V30 9 C 1.4572 1.0602 0.4584 0
M  V30 10 C 2.4194 -0.0339 -0.0296 0
M  V30 11 C 3.8822 0.4101 0.132 0
M  V30 12 C 4.8838 -0.584 -0.4982 0
M  V30 13 C 6.2887 0.032 -0.5243 0
M  V30 14 C 4.916 -1.9222 0.2559 0
M  V30 15 H -6.6248 -2.5357 0.3146 0
M  V30 16 H -7.0462 0.2767 0.2933 0
M  V30 17 H -6.7223 -0.8293 -1.09 0
M  V30 18 H -4.4478 -1.3267 -0.133 0
M  V30 19 H -4.7823 -0.2069 1.243 0
M  V30 20 H -4.657 0.5666 -1.7575 0
M  V30 21 H -5.1105 1.6784 -0.4235 0
M  V30 22 H -2.8694 1.273 0.6685 0
M  V30 23 H -2.8066 2.0901 -0.929 0
M  V30 24 H -2.3489 -0.1989 -2.004 0
M  V30 25 H -2.1598 -0.8825 -0.3545 0
M  V30 26 H -0.5121 1.4855 -1.4768 0
M  V30 27 H -0.0201 -0.2379 -1.5447 0
M  V30 28 H -0.5904 1.3508 1.0425 0
M  V30 29 H -0.1021 -0.3742 0.9796 0
M  V30 30 H 1.7305 1.3356 1.501 0
M  V30 31 H 1.568 1.9716 -0.1694 0
M  V30 32 H 2.2252 -0.252 -1.1009 0
M  V30 33 H 2.2428 -0.957 0.562 0
M  V30 34 H 4.0014 1.399 -0.3643 0
M  V30 35 H 4.1135 0.5451 1.2121 0
M  V30 36 H 4.5837 -0.7814 -1.5513 0
M  V30 37 H 6.6396 0.2511 0.5073 0
M  V30 38 H 6.2843 0.9761 -1.1099 0
M  V30 39 H 7.0064 -0.6652 -1.0072 0
M  V30 40 H 5.7004 -2.5842 -0.1692 0
M  V30 41 H 5.1319 -1.7609 1.334 0
M  V30 42 H 3.9474 -2.4532 0.1541 0
M  V30 END ATOM
M  V30 BEGIN BOND
M  V30 1 1 1 2
M  V30 2 1 2 3
M  V30 3 1 3 4
M  V30 4 1 4 5
M  V30 5 1 5 6
M  V30 6 1 6 7
M  V30 7 1 7 8
M  V30 8 1 8 9
M  V30 9 1 9 10
M  V30 10 1 10 11
M  V30 11 1 11 12
M  V30 12 1 12 13
M  V30 13 1 12 14
M  V30 14 1 1 15
M  V30 15 1 2 16
M  V30 16 1 2 17
M  V30 17 1 3 18
M  V30 18 1 3 19
M  V30 19 1 4 20
M  V30 20 1 4 21
M  V30 21 1 5 22
M  V30 22 1 5 23
M  V30 23 1 6 24
M  V30 24 1 6 25
M  V30 25 1 7 26
M  V30 26 1 7 27
M  V30 27 1 8 28
M  V30 28 1 8 29
M  V30 29 1 9 30
M  V30 30 1 9 31
M  V30 31 1 10 32
M  V30 32 1 10 33
M  V30 33 1 11 34
M  V30 34 1 11 35
M  V30 35 1 12 36
M  V30 36 1 13 37
M  V30 37 1 13 38
M  V30 38 1 13 39
M  V30 39 1 14 40
M  V30 40 1 14 41
M  V30 41 1 14 42
M  V30 END BOND
M  V30 END CTAB
M  END
>  <Structure No>
751

>  <LogS>
-5.000794033

>  <MMFF94 Energy>
3.3424

$$$$
Compound 752
Actelion Java MolfileCreator 2.0

  0  0  0  0  0  0              0 V3000
M  V30 BEGIN CTAB
M  V30 COUNTS 40 42 0 0 0
M  V30 BEGIN ATOM
M  V30 1 O 0.0798 -2.7176 0.0 0
M  V30 2 C 0.3163 -1.4928 0.1859 0
M  V30 3 N -0.7659 -0.5825 0.4541 0
M  V30 4 C 1.7134 -1.0045 0.0984 0
M  V30 5 C -2.1362 -0.9944 0.599 0
M  V30 6 C 2.781 -1.7899 0.5816 0
M  V30 7 C 1.9883 0.2429 -0.4902 0
M  V30 8 C -3.1635 -0.2036 0.0466 0
M  V30 9 C -2.4658 -2.1431 1.3409 0
M  V30 10 O 2.5313 -3.0272 1.1759 0
M  V30 11 C 4.0994 -1.3239 0.4807 0
M  V30 12 C 3.3058 0.7121 -0.5894 0
M  V30 13 O -2.8059 0.949 -0.6754 0
M  V30 14 C -4.5063 -0.599 0.2165 0
M  V30 15 C -3.7995 -2.5211 1.5033 0
M  V30 16 C 4.3708 -0.0779 -0.0985 0
M  V30 17 C 3.5793 1.9579 -1.1768 0
M  V30 18 C -3.7114 1.9201 -1.2003 0
M  V30 19 C -4.8171 -1.753 0.9389 0
M  V30 20 C 5.6896 0.3923 -0.1998 0
M  V30 21 C 4.8966 2.4152 -1.2718 0
M  V30 22 C -4.2553 2.8096 -0.0875 0
M  V30 23 C 5.9483 1.6352 -0.7845 0
M  V30 24 H -0.5634 0.4404 0.5077 0
M  V30 25 H 1.1818 0.8404 -0.8979 0
M  V30 26 H -1.6939 -2.7335 1.8165 0
M  V30 27 H 3.281 -3.607 1.5345 0
M  V30 28 H 4.9104 -1.9355 0.8589 0
M  V30 29 H -5.3196 -0.0268 -0.2053 0
M  V30 30 H -4.0448 -3.4068 2.075 0
M  V30 31 H 2.7766 2.5766 -1.5601 0
M  V30 32 H -3.1564 2.56 -1.9181 0
M  V30 33 H -4.5359 1.4328 -1.7619 0
M  V30 34 H -5.8504 -2.0489 1.0665 0
M  V30 35 H 6.5177 -0.1997 0.1711 0
M  V30 36 H 5.1028 3.3765 -1.7244 0
M  V30 37 H -3.4156 3.3095 0.44 0
M  V30 38 H -4.9198 3.5857 -0.5218 0
M  V30 39 H -4.8367 2.2127 0.6447 0
M  V30 40 H 6.9665 1.9942 -0.8609 0
M  V30 END ATOM
M  V30 BEGIN BOND
M  V30 1 2 1 2
M  V30 2 1 2 3
M  V30 3 1 2 4
M  V30 4 1 3 5
M  V30 5 1 4 6
M  V30 6 2 4 7
M  V30 7 2 5 8
M  V30 8 1 5 9
M  V30 9 1 6 10
M  V30 10 2 6 11
M  V30 11 1 7 12
M  V30 12 1 8 13
M  V30 13 1 8 14
M  V30 14 2 9 15
M  V30 15 1 11 16
M  V30 16 2 12 17
M  V30 17 1 13 18
M  V30 18 2 14 19
M  V30 19 2 16 20
M  V30 20 1 17 21
M  V30 21 1 18 22
M  V30 22 1 20 23
M  V30 23 1 12 16
M  V30 24 1 15 19
M  V30 25 2 21 23
M  V30 26 1 3 24
M  V30 27 1 7 25
M  V30 28 1 9 26
M  V30 29 1 10 27
M  V30 30 1 11 28
M  V30 31 1 14 29
M  V30 32 1 15 30
M  V30 33 1 17 31
M  V30 34 1 18 32
M  V30 35 1 18 33
M  V30 36 1 19 34
M  V30 37 1 20 35
M  V30 38 1 21 36
M  V30 39 1 22 37
M  V30 40 1 22 38
M  V30 41 1 22 39
M  V30 42 1 23 40
M  V30 END BOND
M  V30 END CTAB
M  END
>  <Structure No>
752

>  <LogS>
-5.186601809

>  <MMFF94 Energy>
50.837

$$$$
Compound 753
Actelion Java MolfileCreator 2.0

  0  0  0  0  0  0              0 V3000
M  V30 BEGIN CTAB
M  V30 COUNTS 50 49 0 0 0
M  V30 BEGIN ATOM
M  V30 1 O -3.3708 2.5861 -1.2532 0
M  V30 2 C -4.1096 1.5906 -1.4862 0
M  V30 3 O -5.2389 1.3362 -0.6999 0
M  V30 4 C -3.7614 0.6489 -2.5973 0
M  V30 5 C -5.5676 2.0842 0.4707 0
M  V30 6 C -3.2816 -0.7046 -2.0573 0
M  V30 7 C -7.0252 1.8124 0.8375 0
M  V30 8 C -4.642 1.6873 1.6251 0
M  V30 9 C -1.9411 -0.5915 -1.3153 0
M  V30 10 C -1.4584 -1.9697 -0.8395 0
M  V30 11 C -0.1936 -1.8844 0.0295 0
M  V30 12 C 1.0602 -1.5343 -0.7852 0
M  V30 13 C 2.3127 -1.552 0.0989 0
M  V30 14 C 3.564 -1.2091 -0.7142 0
M  V30 15 C 4.7738 -1.2055 0.1644 0
M  V30 16 O 5.4428 -2.2645 0.3138 0
M  V30 17 O 5.1195 -0.0353 0.8506 0
M  V30 18 C 6.273 0.0788 1.684 0
M  V30 19 C 7.5344 0.2045 0.8255 0
M  V30 20 C 6.1144 1.3042 2.5821 0
M  V30 21 H -2.9803 1.0963 -3.251 0
M  V30 22 H -4.6679 0.4881 -3.2192 0
M  V30 23 H -5.4584 3.1728 0.2664 0
M  V30 24 H -3.1629 -1.4002 -2.9168 0
M  V30 25 H -4.0546 -1.1306 -1.3798 0
M  V30 26 H -7.6848 2.1077 -0.0055 0
M  V30 27 H -7.1786 0.7317 1.0465 0
M  V30 28 H -7.3144 2.4023 1.7338 0
M  V30 29 H -3.5884 1.928 1.3714 0
M  V30 30 H -4.9133 2.2459 2.5467 0
M  V30 31 H -4.7189 0.5967 1.8245 0
M  V30 32 H -2.0597 0.0779 -0.4359 0
M  V30 33 H -1.1893 -0.147 -2.001 0
M  V30 34 H -1.2709 -2.6285 -1.7157 0
M  V30 35 H -2.2614 -2.4399 -0.2302 0
M  V30 36 H -0.0414 -2.875 0.5112 0
M  V30 37 H -0.342 -1.1363 0.8389 0
M  V30 38 H 1.1823 -2.2708 -1.6098 0
M  V30 39 H 0.95 -0.5217 -1.2276 0
M  V30 40 H 2.1925 -0.8109 0.92 0
M  V30 41 H 2.4333 -2.5622 0.5491 0
M  V30 42 H 3.7005 -1.9522 -1.5304 0
M  V30 43 H 3.4507 -0.2041 -1.1757 0
M  V30 44 H 6.3577 -0.819 2.336 0
M  V30 45 H 7.6681 -0.7067 0.2059 0
M  V30 46 H 7.4576 1.0845 0.1513 0
M  V30 47 H 8.4304 0.3187 1.472 0
M  V30 48 H 6.0127 2.2246 1.9682 0
M  V30 49 H 5.2047 1.1935 3.21 0
M  V30 50 H 6.9937 1.4091 3.2531 0
M  V30 END ATOM
M  V30 BEGIN BOND
M  V30 1 2 1 2
M  V30 2 1 2 3
M  V30 3 1 2 4
M  V30 4 1 3 5
M  V30 5 1 4 6
M  V30 6 1 5 7
M  V30 7 1 5 8
M  V30 8 1 6 9
M  V30 9 1 9 10
M  V30 10 1 10 11
M  V30 11 1 11 12
M  V30 12 1 12 13
M  V30 13 1 13 14
M  V30 14 1 14 15
M  V30 15 2 15 16
M  V30 16 1 15 17
M  V30 17 1 17 18
M  V30 18 1 18 19
M  V30 19 1 18 20
M  V30 20 1 4 21
M  V30 21 1 4 22
M  V30 22 1 5 23
M  V30 23 1 6 24
M  V30 24 1 6 25
M  V30 25 1 7 26
M  V30 26 1 7 27
M  V30 27 1 7 28
M  V30 28 1 8 29
M  V30 29 1 8 30
M  V30 30 1 8 31
M  V30 31 1 9 32
M  V30 32 1 9 33
M  V30 33 1 10 34
M  V30 34 1 10 35
M  V30 35 1 11 36
M  V30 36 1 11 37
M  V30 37 1 12 38
M  V30 38 1 12 39
M  V30 39 1 13 40
M  V30 40 1 13 41
M  V30 41 1 14 42
M  V30 42 1 14 43
M  V30 43 1 18 44
M  V30 44 1 19 45
M  V30 45 1 19 46
M  V30 46 1 19 47
M  V30 47 1 20 48
M  V30 48 1 20 49
M  V30 49 1 20 50
M  V30 END BOND
M  V30 END CTAB
M  END
>  <Structure No>
753

>  <LogS>
-5.155961214

>  <MMFF94 Energy>
-14.838

$$$$
Compound 754
Actelion Java MolfileCreator 2.0

  0  0  0  0  0  0              0 V3000
M  V30 BEGIN CTAB
M  V30 COUNTS 34 34 0 0 0
M  V30 BEGIN ATOM
M  V30 1 O -1.4181 -1.2605 1.4181 0
M  V30 2 C -1.8479 -0.3202 0.6942 0
M  V30 3 O -0.9587 0.6189 0.1578 0
M  V30 4 C -3.2883 -0.2476 0.3693 0
M  V30 5 C 0.4517 0.5755 0.364 0
M  V30 6 C -3.9687 0.9858 0.207 0
M  V30 7 C -3.9981 -1.4476 0.1771 0
M  V30 8 C 1.0914 -0.49 -0.535 0
M  V30 9 O -3.3655 2.2171 0.4722 0
M  V30 10 C -5.3092 0.9894 -0.1996 0
M  V30 11 C -5.3405 -1.4269 -0.2076 0
M  V30 12 C 2.5957 -0.6605 -0.2721 0
M  V30 13 C -5.9925 -0.2101 -0.4053 0
M  V30 14 C 3.4181 0.5553 -0.7336 0
M  V30 15 C 4.9305 0.2859 -0.7095 0
M  V30 16 C 5.4833 0.151 0.709 0
M  V30 17 H 0.864 1.5727 0.1065 0
M  V30 18 H 0.6746 0.376 1.4353 0
M  V30 19 H -3.505 -2.4045 0.2983 0
M  V30 20 H 0.9177 -0.2306 -1.602 0
M  V30 21 H 0.5968 -1.4667 -0.3453 0
M  V30 22 H -2.4693 2.3098 0.9305 0
M  V30 23 H -5.8303 1.9289 -0.3342 0
M  V30 24 H -5.8729 -2.3564 -0.3632 0
M  V30 25 H 2.9392 -1.5613 -0.8261 0
M  V30 26 H 2.7597 -0.8459 0.8111 0
M  V30 27 H -7.0312 -0.196 -0.7094 0
M  V30 28 H 3.1932 1.4361 -0.0946 0
M  V30 29 H 3.1328 0.8113 -1.7774 0
M  V30 30 H 5.1652 -0.6327 -1.2898 0
M  V30 31 H 5.4466 1.1365 -1.2053 0
M  V30 32 H 5.2162 1.0415 1.3168 0
M  V30 33 H 6.59 0.071 0.6673 0
M  V30 34 H 5.0891 -0.7634 1.1986 0
M  V30 END ATOM
M  V30 BEGIN BOND
M  V30 1 2 1 2
M  V30 2 1 2 3
M  V30 3 1 2 4
M  V30 4 1 3 5
M  V30 5 2 4 6
M  V30 6 1 4 7
M  V30 7 1 5 8
M  V30 8 1 6 9
M  V30 9 1 6 10
M  V30 10 2 7 11
M  V30 11 1 8 12
M  V30 12 2 10 13
M  V30 13 1 12 14
M  V30 14 1 14 15
M  V30 15 1 15 16
M  V30 16 1 11 13
M  V30 17 1 5 17
M  V30 18 1 5 18
M  V30 19 1 7 19
M  V30 20 1 8 20
M  V30 21 1 8 21
M  V30 22 1 9 22
M  V30 23 1 10 23
M  V30 24 1 11 24
M  V30 25 1 12 25
M  V30 26 1 12 26
M  V30 27 1 13 27
M  V30 28 1 14 28
M  V30 29 1 14 29
M  V30 30 1 15 30
M  V30 31 1 15 31
M  V30 32 1 16 32
M  V30 33 1 16 33
M  V30 34 1 16 34
M  V30 END BOND
M  V30 END CTAB
M  END
>  <Structure No>
754

>  <LogS>
-5.045878208

>  <MMFF94 Energy>
22.77

$$$$
Compound 755
Actelion Java MolfileCreator 2.0

  0  0  0  0  0  0              0 V3000
M  V30 BEGIN CTAB
M  V30 COUNTS 58 57 0 0 0
M  V30 BEGIN ATOM
M  V30 1 O 3.8955 -1.401 3.2714 0
M  V30 2 C 3.6649 -1.7713 1.9347 0 CFG=1
M  V30 3 C 2.2546 -1.3103 1.5103 0
M  V30 4 C 4.7567 -1.1241 1.0606 0
M  V30 5 C 1.1556 -1.9818 2.3506 0
M  V30 6 C 4.8813 -1.7824 -0.3262 0
M  V30 7 C -0.2553 -1.7077 1.8063 0
M  V30 8 C 5.9388 -1.0831 -1.2065 0
M  V30 9 C -0.6632 -0.23 1.9404 0
M  V30 10 C 5.335 -0.142 -2.2638 0
M  V30 11 C -2.1587 -4.0E-4 1.6695 0
M  V30 12 C 4.6144 1.0664 -1.6502 0
M  V30 13 C -2.529 -0.206 0.1902 0
M  V30 14 C 4.1753 2.0513 -2.73 0
M  V30 15 C -4.0131 0.0835 -0.0904 0
M  V30 16 C -4.3115 1.5904 -0.1837 0
M  V30 17 C -5.805 1.8846 -0.3992 0
M  V30 18 C -6.2854 1.5184 -1.8118 0
M  V30 19 C -7.7324 1.9584 -2.0318 0
M  V30 20 O -8.1405 1.594 -3.3203 0
M  V30 21 H 3.6196 -2.1658 3.8413 0
M  V30 22 H 3.7397 -2.8804 1.826 0
M  V30 23 H 2.0833 -1.5598 0.4431 0
M  V30 24 H 2.1859 -0.2069 1.623 0
M  V30 25 H 5.7346 -1.2368 1.5795 0
M  V30 26 H 4.5637 -0.0349 0.966 0
M  V30 27 H 1.317 -3.0818 2.3439 0
M  V30 28 H 1.2186 -1.6377 3.4055 0
M  V30 29 H 5.189 -2.8411 -0.1782 0
M  V30 30 H 3.9027 -1.8034 -0.8492 0
M  V30 31 H -0.3032 -2.0239 0.7428 0
M  V30 32 H -0.9708 -2.3367 2.3795 0
M  V30 33 H 6.6804 -0.5306 -0.5874 0
M  V30 34 H 6.5092 -1.8678 -1.7509 0
M  V30 35 H -0.4472 0.1125 2.976 0
M  V30 36 H -0.0645 0.3964 1.2451 0
M  V30 37 H 4.6294 -0.7105 -2.9094 0
M  V30 38 H 6.1637 0.2213 -2.9103 0
M  V30 39 H -2.7645 -0.6783 2.3097 0
M  V30 40 H -2.3955 1.0412 1.9694 0
M  V30 41 H 3.71 0.7265 -1.1018 0
M  V30 42 H 5.2907 1.5895 -0.9394 0
M  V30 43 H -1.8895 0.4319 -0.4584 0
M  V30 44 H -2.3363 -1.2646 -0.0844 0
M  V30 45 H 3.6261 2.8961 -2.2629 0
M  V30 46 H 3.5031 1.5495 -3.4578 0
M  V30 47 H 5.0597 2.4573 -3.2651 0
M  V30 48 H -4.6453 -0.3853 0.6952 0
M  V30 49 H -4.27 -0.3948 -1.059 0
M  V30 50 H -4.0076 2.0861 0.7616 0
M  V30 51 H -3.7165 2.0447 -1.0062 0
M  V30 52 H -6.4095 1.3407 0.3596 0
M  V30 53 H -5.9649 2.9736 -0.2383 0
M  V30 54 H -6.2253 0.4193 -1.9596 0
M  V30 55 H -5.6385 2.0148 -2.5681 0
M  V30 56 H -8.3898 1.4672 -1.2795 0
M  V30 57 H -7.8086 3.0628 -1.9155 0
M  V30 58 H -9.0801 1.9016 -3.4089 0
M  V30 END ATOM
M  V30 BEGIN BOND
M  V30 1 1 1 2
M  V30 2 1 2 3
M  V30 3 1 2 4
M  V30 4 1 3 5
M  V30 5 1 4 6
M  V30 6 1 5 7
M  V30 7 1 6 8
M  V30 8 1 7 9
M  V30 9 1 8 10
M  V30 10 1 9 11
M  V30 11 1 10 12
M  V30 12 1 11 13
M  V30 13 1 12 14
M  V30 14 1 13 15
M  V30 15 1 15 16
M  V30 16 1 16 17
M  V30 17 1 17 18
M  V30 18 1 18 19
M  V30 19 1 19 20
M  V30 20 1 1 21
M  V30 21 1 2 22
M  V30 22 1 3 23
M  V30 23 1 3 24
M  V30 24 1 4 25
M  V30 25 1 4 26
M  V30 26 1 5 27
M  V30 27 1 5 28
M  V30 28 1 6 29
M  V30 29 1 6 30
M  V30 30 1 7 31
M  V30 31 1 7 32
M  V30 32 1 8 33
M  V30 33 1 8 34
M  V30 34 1 9 35
M  V30 35 1 9 36
M  V30 36 1 10 37
M  V30 37 1 10 38
M  V30 38 1 11 39
M  V30 39 1 11 40
M  V30 40 1 12 41
M  V30 41 1 12 42
M  V30 42 1 13 43
M  V30 43 1 13 44
M  V30 44 1 14 45
M  V30 45 1 14 46
M  V30 46 1 14 47
M  V30 47 1 15 48
M  V30 48 1 15 49
M  V30 49 1 16 50
M  V30 50 1 16 51
M  V30 51 1 17 52
M  V30 52 1 17 53
M  V30 53 1 18 54
M  V30 54 1 18 55
M  V30 55 1 19 56
M  V30 56 1 19 57
M  V30 57 1 20 58
M  V30 END BOND
M  V30 BEGIN COLLECTION
M  V30 MDLV30/STEABS ATOMS=(1 2)
M  V30 END COLLECTION
M  V30 END CTAB
M  END
>  <Structure No>
755

>  <LogS>
-5.156094631

>  <MMFF94 Energy>
7.3295

$$$$
Compound 756
Actelion Java MolfileCreator 2.0

  0  0  0  0  0  0              0 V3000
M  V30 BEGIN CTAB
M  V30 COUNTS 12 12 0 0 0
M  V30 BEGIN ATOM
M  V30 1 Cl -3.1272 0.5681 -0.4734 0
M  V30 2 C -1.4161 0.2187 -0.231 0
M  V30 3 C -0.9744 -1.0453 -0.1163 0
M  V30 4 C -0.46 1.3444 -0.154 0
M  V30 5 Cl -2.0863 -2.411 -0.2031 0
M  V30 6 C 0.4667 -1.3079 0.0863 0
M  V30 7 O -0.8743 2.5297 -0.2614 0
M  V30 8 C 0.9811 1.0818 0.0486 0
M  V30 9 O 0.8808 -2.4931 0.1938 0
M  V30 10 C 1.4228 -0.1822 0.1633 0
M  V30 11 Cl 2.0929 2.4476 0.1355 0
M  V30 12 Cl 3.1339 -0.5316 0.4057 0
M  V30 END ATOM
M  V30 BEGIN BOND
M  V30 1 1 1 2
M  V30 2 2 2 3
M  V30 3 1 2 4
M  V30 4 1 3 5
M  V30 5 1 3 6
M  V30 6 2 4 7
M  V30 7 1 4 8
M  V30 8 2 6 9
M  V30 9 1 6 10
M  V30 10 1 8 11
M  V30 11 1 10 12
M  V30 12 2 8 10
M  V30 END BOND
M  V30 END CTAB
M  END
>  <Structure No>
756

>  <LogS>
-5.089686144

>  <MMFF94 Energy>
24.991

$$$$
Compound 757
Actelion Java MolfileCreator 2.0

  0  0  0  0  0  0              0 V3000
M  V30 BEGIN CTAB
M  V30 COUNTS 28 28 0 0 0
M  V30 BEGIN ATOM
M  V30 1 Cl -2.5582 -2.7983 -2.2381 0
M  V30 2 C -1.6682 -1.8535 -1.0182 0
M  V30 3 C -1.8103 -0.3591 -1.3034 0
M  V30 4 N -1.1331 0.4364 -0.2656 0
M  V30 5 C 0.297 0.3331 -0.0695 0
M  V30 6 C -1.9323 1.342 0.5736 0
M  V30 7 C 0.8373 0.2722 1.2275 0
M  V30 8 C 1.1726 0.2853 -1.1695 0
M  V30 9 C -2.7845 0.5578 1.569 0
M  V30 10 C 2.2171 0.1614 1.4202 0
M  V30 11 C 2.5524 0.1751 -0.976 0
M  V30 12 C 3.0855 0.1112 0.3186 0
M  V30 13 C 4.5439 -0.0057 0.5015 0
M  V30 14 O 5.0526 -0.0644 1.6525 0
M  V30 15 H -0.5995 -2.1524 -1.0508 0
M  V30 16 H -2.0784 -2.0881 -0.0133 0
M  V30 17 H -1.3963 -0.1205 -2.3043 0
M  V30 18 H -2.8928 -0.1064 -1.3403 0
M  V30 19 H -1.2754 2.047 1.1283 0
M  V30 20 H -2.5946 1.9599 -0.0705 0
M  V30 21 H 0.1927 0.297 2.095 0
M  V30 22 H 0.7977 0.3512 -2.1808 0
M  V30 23 H -3.5371 -0.0585 1.0344 0
M  V30 24 H -2.1485 -0.1075 2.1884 0
M  V30 25 H -3.3195 1.2645 2.2377 0
M  V30 26 H 2.6028 0.1127 2.4309 0
M  V30 27 H 3.2051 0.1432 -1.84 0
M  V30 28 H 5.1963 -0.0424 -0.3616 0
M  V30 END ATOM
M  V30 BEGIN BOND
M  V30 1 1 1 2
M  V30 2 1 2 3
M  V30 3 1 3 4
M  V30 4 1 4 5
M  V30 5 1 4 6
M  V30 6 2 5 7
M  V30 7 1 5 8
M  V30 8 1 6 9
M  V30 9 1 7 10
M  V30 10 2 8 11
M  V30 11 2 10 12
M  V30 12 1 12 13
M  V30 13 2 13 14
M  V30 14 1 11 12
M  V30 15 1 2 15
M  V30 16 1 2 16
M  V30 17 1 3 17
M  V30 18 1 3 18
M  V30 19 1 6 19
M  V30 20 1 6 20
M  V30 21 1 7 21
M  V30 22 1 8 22
M  V30 23 1 9 23
M  V30 24 1 9 24
M  V30 25 1 9 25
M  V30 26 1 10 26
M  V30 27 1 11 27
M  V30 28 1 13 28
M  V30 END BOND
M  V30 END CTAB
M  END
>  <Structure No>
757

>  <LogS>
-3.033448375

>  <MMFF94 Energy>
48.947

$$$$
Compound 758
Actelion Java MolfileCreator 2.0

  0  0  0  0  0  0              0 V3000
M  V30 BEGIN CTAB
M  V30 COUNTS 26 25 0 0 0
M  V30 BEGIN ATOM
M  V30 1 O 2.019 0.6209 1.8636 0
M  V30 2 C 1.8979 -0.3836 1.1106 0
M  V30 3 O 0.6894 -1.0853 1.0396 0
M  V30 4 C 3.0439 -0.8084 0.2498 0
M  V30 5 C -0.4921 -0.6884 1.7342 0
M  V30 6 C 2.9028 -0.2263 -1.1515 0
M  V30 7 C -1.135 0.5495 1.0893 0
M  V30 8 C -1.404 0.3931 -0.4256 0
M  V30 9 C -2.4534 -0.6906 -0.7134 0
M  V30 10 C -1.862 1.7325 -1.0165 0
M  V30 11 H 3.066 -1.9175 0.1884 0
M  V30 12 H 4.0018 -0.4663 0.6983 0
M  V30 13 H -0.2521 -0.4747 2.7986 0
M  V30 14 H -1.2123 -1.5322 1.7287 0
M  V30 15 H 1.969 -0.5927 -1.6293 0
M  V30 16 H 2.8814 0.8838 -1.1081 0
M  V30 17 H 3.7668 -0.5416 -1.7735 0
M  V30 18 H -0.4588 1.4166 1.2525 0
M  V30 19 H -2.0871 0.7745 1.6186 0
M  V30 20 H -0.4586 0.1105 -0.9382 0
M  V30 21 H -2.0702 -1.6915 -0.4264 0
M  V30 22 H -2.6833 -0.7245 -1.7998 0
M  V30 23 H -3.3928 -0.4861 -0.1562 0
M  V30 24 H -2.8108 2.066 -0.5431 0
M  V30 25 H -2.0216 1.6361 -2.1118 0
M  V30 26 H -1.0859 2.5105 -0.8521 0
M  V30 END ATOM
M  V30 BEGIN BOND
M  V30 1 2 1 2
M  V30 2 1 2 3
M  V30 3 1 2 4
M  V30 4 1 3 5
M  V30 5 1 4 6
M  V30 6 1 5 7
M  V30 7 1 7 8
M  V30 8 1 8 9
M  V30 9 1 8 10
M  V30 10 1 4 11
M  V30 11 1 4 12
M  V30 12 1 5 13
M  V30 13 1 5 14
M  V30 14 1 6 15
M  V30 15 1 6 16
M  V30 16 1 6 17
M  V30 17 1 7 18
M  V30 18 1 7 19
M  V30 19 1 8 20
M  V30 20 1 9 21
M  V30 21 1 9 22
M  V30 22 1 9 23
M  V30 23 1 10 24
M  V30 24 1 10 25
M  V30 25 1 10 26
M  V30 END BOND
M  V30 END CTAB
M  END
>  <Structure No>
758

>  <LogS>
-2.870073641

>  <MMFF94 Energy>
-7.6473

$$$$
Compound 759
Actelion Java MolfileCreator 2.0

  0  0  0  0  0  0              0 V3000
M  V30 BEGIN CTAB
M  V30 COUNTS 42 42 0 0 0
M  V30 BEGIN ATOM
M  V30 1 O 2.8333 -1.2584 -0.9437 0
M  V30 2 C 2.7156 -0.2444 0.0285 0
M  V30 3 C 1.1908 -5.0E-4 0.3337 0 CFG=1
M  V30 4 C 3.4681 -0.6783 1.3104 0
M  V30 5 C 3.3798 1.0499 -0.5008 0
M  V30 6 C 0.4287 0.5142 -0.9204 0
M  V30 7 C 0.5118 -1.2707 0.9026 0
M  V30 8 C -1.117 0.5871 -0.7971 0 CFG=2
M  V30 9 C -0.9922 -1.0876 1.1393 0
M  V30 10 C -1.6051 1.9376 -0.2359 0
M  V30 11 C -1.7512 -0.7008 -0.1535 0 CFG=2
M  V30 12 C -2.4111 2.7144 -0.9838 0
M  V30 13 C -1.2411 2.4557 1.1333 0
M  V30 14 C -1.6683 -1.855 -1.1623 0
M  V30 15 C -3.2437 -0.4585 0.1803 0
M  V30 16 C -2.1227 -3.0916 -0.9153 0
M  V30 17 H 3.7994 -1.4001 -1.1266 0
M  V30 18 H 1.15 0.7836 1.1135 0
M  V30 19 H 3.2549 0.0196 2.1484 0
M  V30 20 H 4.566 -0.6918 1.1398 0
M  V30 21 H 3.1841 -1.7081 1.61 0
M  V30 22 H 3.0262 1.2882 -1.5253 0
M  V30 23 H 4.4826 0.9311 -0.5673 0
M  V30 24 H 3.1615 1.9077 0.171 0
M  V30 25 H 0.6745 -0.1517 -1.7762 0
M  V30 26 H 0.7959 1.5263 -1.1936 0
M  V30 27 H 0.9586 -1.5302 1.8846 0
M  V30 28 H 0.6772 -2.1323 0.2205 0
M  V30 29 H -1.4598 0.5802 -1.8583 0
M  V30 30 H -1.1562 -0.337 1.9357 0
M  V30 31 H -1.3965 -2.0361 1.5534 0
M  V30 32 H -2.7702 3.669 -0.6094 0
M  V30 33 H -2.7321 2.4147 -1.9765 0
M  V30 34 H -2.1661 2.6739 1.7089 0
M  V30 35 H -0.6498 1.7492 1.7276 0
M  V30 36 H -0.6534 3.3924 1.0313 0
M  V30 37 H -1.2139 -1.6856 -2.1344 0
M  V30 38 H -3.7204 -1.3721 0.5931 0
M  V30 39 H -3.3608 0.3363 0.9465 0
M  V30 40 H -3.8005 -0.1556 -0.7326 0
M  V30 41 H -2.5874 -3.3524 0.029 0
M  V30 42 H -2.0282 -3.8625 -1.6729 0
M  V30 END ATOM
M  V30 BEGIN BOND
M  V30 1 1 1 2
M  V30 2 1 2 3
M  V30 3 1 2 4
M  V30 4 1 2 5
M  V30 5 1 3 6
M  V30 6 1 3 7
M  V30 7 1 6 8
M  V30 8 1 7 9
M  V30 9 1 8 10
M  V30 10 1 8 11
M  V30 11 2 10 12
M  V30 12 1 10 13
M  V30 13 1 11 14
M  V30 14 1 11 15
M  V30 15 2 14 16
M  V30 16 1 9 11
M  V30 17 1 1 17
M  V30 18 1 3 18
M  V30 19 1 4 19
M  V30 20 1 4 20
M  V30 21 1 4 21
M  V30 22 1 5 22
M  V30 23 1 5 23
M  V30 24 1 5 24
M  V30 25 1 6 25
M  V30 26 1 6 26
M  V30 27 1 7 27
M  V30 28 1 7 28
M  V30 29 1 8 29
M  V30 30 1 9 30
M  V30 31 1 9 31
M  V30 32 1 12 32
M  V30 33 1 12 33
M  V30 34 1 13 34
M  V30 35 1 13 35
M  V30 36 1 13 36
M  V30 37 1 14 37
M  V30 38 1 15 38
M  V30 39 1 15 39
M  V30 40 1 15 40
M  V30 41 1 16 41
M  V30 42 1 16 42
M  V30 END BOND
M  V30 BEGIN COLLECTION
M  V30 MDLV30/STEABS ATOMS=(3 3 8 11)
M  V30 END COLLECTION
M  V30 END CTAB
M  END
>  <Structure No>
759

>  <LogS>
-3.059278372

>  <MMFF94 Energy>
67.889

$$$$
Compound 760
Actelion Java MolfileCreator 2.0

  0  0  0  0  0  0              0 V3000
M  V30 BEGIN CTAB
M  V30 COUNTS 41 42 0 0 0
M  V30 BEGIN ATOM
M  V30 1 S 5.981 -1.2438 -0.8291 0
M  V30 2 O 5.9351 -0.6458 -2.2068 0
M  V30 3 O 5.7613 -2.7277 -0.9153 0
M  V30 4 O 7.4972 -0.9526 -0.1655 0 CHG=-1
M  V30 5 C 4.7197 -0.5194 0.1708 0
M  V30 6 C 3.3806 -0.5279 -0.2598 0
M  V30 7 C 5.0521 0.0293 1.4162 0
M  V30 8 O 3.0673 -1.1849 -1.4527 0
M  V30 9 C 2.3869 0.0846 0.541 0
M  V30 10 C 4.0629 0.5796 2.2451 0
M  V30 11 N 1.0269 0.2274 0.115 0 CHG=-1
M  V30 12 C 2.7328 0.6 1.7952 0
M  V30 13 N 4.4115 1.1263 3.5308 0 CHG=1
M  V30 14 N 0.6692 0.4201 -1.2276 0
M  V30 15 O 3.5357 1.6176 4.2732 0
M  V30 16 O 5.7168 1.1135 3.9664 0 CHG=-1
M  V30 17 C -0.566 0.5436 -1.6144 0
M  V30 18 C -1.6734 0.5177 -0.631 0
M  V30 19 C -0.8341 0.725 -3.0591 0
M  V30 20 O -1.6024 1.2484 0.394 0
M  V30 21 N -2.8232 -0.3159 -0.8546 0
M  V30 22 O 0.0672 0.4412 -3.8935 0
M  V30 23 C -2.1478 1.2367 -3.57 0
M  V30 24 C -3.9262 -0.4297 0.0597 0
M  V30 25 C -5.2275 -0.5683 -0.4479 0
M  V30 26 C -3.726 -0.4695 1.4523 0
M  V30 27 C -6.3153 -0.7041 0.42 0
M  V30 28 C -4.8166 -0.6066 2.3172 0
M  V30 29 C -6.1105 -0.7189 1.802 0
M  V30 30 H 6.0818 0.0148 1.747 0
M  V30 31 H 2.126 -1.4411 -1.7159 0
M  V30 32 H 1.9592 1.046 2.4085 0
M  V30 33 H -2.8968 -0.824 -1.7641 0
M  V30 34 H -1.9846 1.8477 -4.4828 0
M  V30 35 H -2.6466 1.8778 -2.8131 0
M  V30 36 H -2.8084 0.3839 -3.8288 0
M  V30 37 H -5.3978 -0.56 -1.5173 0
M  V30 38 H -2.7301 -0.424 1.8715 0
M  V30 39 H -7.3169 -0.8002 0.0211 0
M  V30 40 H -4.6573 -0.6358 3.3875 0
M  V30 41 H -6.9529 -0.8265 2.473 0
M  V30 END ATOM
M  V30 BEGIN BOND
M  V30 1 2 1 2
M  V30 2 2 1 3
M  V30 3 1 1 4
M  V30 4 1 1 5
M  V30 5 2 5 6
M  V30 6 1 5 7
M  V30 7 1 6 8
M  V30 8 1 6 9
M  V30 9 2 7 10
M  V30 10 1 9 11
M  V30 11 2 9 12
M  V30 12 1 10 13
M  V30 13 1 11 14
M  V30 14 2 13 15
M  V30 15 1 13 16
M  V30 16 2 14 17
M  V30 17 1 17 18
M  V30 18 1 17 19
M  V30 19 2 18 20
M  V30 20 1 18 21
M  V30 21 2 19 22
M  V30 22 1 19 23
M  V30 23 1 21 24
M  V30 24 2 24 25
M  V30 25 1 24 26
M  V30 26 1 25 27
M  V30 27 2 26 28
M  V30 28 2 27 29
M  V30 29 1 10 12
M  V30 30 1 28 29
M  V30 31 1 7 30
M  V30 32 1 8 31
M  V30 33 1 12 32
M  V30 34 1 21 33
M  V30 35 1 23 34
M  V30 36 1 23 35
M  V30 37 1 23 36
M  V30 38 1 25 37
M  V30 39 1 26 38
M  V30 40 1 27 39
M  V30 41 1 28 40
M  V30 42 1 29 41
M  V30 END BOND
M  V30 END CTAB
M  END
>  <Structure No>
760

>  <LogS>
-3.542587387

>  <MMFF94 Energy>
153.32

$$$$
Compound 761
Actelion Java MolfileCreator 2.0

  0  0  0  0  0  0              0 V3000
M  V30 BEGIN CTAB
M  V30 COUNTS 25 24 0 0 0
M  V30 BEGIN ATOM
M  V30 1 O -2.3857 -1.9236 0.0768 0
M  V30 2 C -2.0922 -0.6451 0.5861 0 CFG=2
M  V30 3 C -3.2336 0.3098 0.3199 0
M  V30 4 C -0.7538 -0.1024 0.0413 0
M  V30 5 C -3.6321 0.6361 -0.9147 0
M  V30 6 C 0.429 -0.9869 0.4685 0
M  V30 7 C 1.7613 -0.5329 -0.149 0
M  V30 8 C 2.2778 0.7802 0.4571 0
M  V30 9 C 3.6639 1.1254 -0.0804 0
M  V30 10 H -2.3542 -1.8734 -0.9139 0
M  V30 11 H -1.9974 -0.7378 1.6901 0
M  V30 12 H -3.7532 0.7476 1.1677 0
M  V30 13 H -0.7915 -0.0444 -1.0683 0
M  V30 14 H -0.6052 0.9254 0.4363 0
M  V30 15 H -4.4583 1.3263 -1.0519 0
M  V30 16 H -3.1442 0.2265 -1.793 0
M  V30 17 H 0.2386 -2.0303 0.1353 0
M  V30 18 H 0.5129 -0.9986 1.5775 0
M  V30 19 H 2.5129 -1.332 0.0341 0
M  V30 20 H 1.6485 -0.4235 -1.2502 0
M  V30 21 H 2.3355 0.6882 1.5636 0
M  V30 22 H 1.5887 1.614 0.2065 0
M  V30 23 H 4.391 0.3286 0.1853 0
M  V30 24 H 3.6314 1.2394 -1.1849 0
M  V30 25 H 4.008 2.0823 0.3657 0
M  V30 END ATOM
M  V30 BEGIN BOND
M  V30 1 1 1 2
M  V30 2 1 2 3
M  V30 3 1 2 4
M  V30 4 2 3 5
M  V30 5 1 4 6
M  V30 6 1 6 7
M  V30 7 1 7 8
M  V30 8 1 8 9
M  V30 9 1 1 10
M  V30 10 1 2 11
M  V30 11 1 3 12
M  V30 12 1 4 13
M  V30 13 1 4 14
M  V30 14 1 5 15
M  V30 15 1 5 16
M  V30 16 1 6 17
M  V30 17 1 6 18
M  V30 18 1 7 19
M  V30 19 1 7 20
M  V30 20 1 8 21
M  V30 21 1 8 22
M  V30 22 1 9 23
M  V30 23 1 9 24
M  V30 24 1 9 25
M  V30 END BOND
M  V30 BEGIN COLLECTION
M  V30 MDLV30/STEABS ATOMS=(1 2)
M  V30 END COLLECTION
M  V30 END CTAB
M  END
>  <Structure No>
761

>  <LogS>
-1.821931715

>  <MMFF94 Energy>
1.502

$$$$
Compound 762
Actelion Java MolfileCreator 2.0

  0  0  0  0  0  0              0 V3000
M  V30 BEGIN CTAB
M  V30 COUNTS 9 8 0 0 0
M  V30 BEGIN ATOM
M  V30 1 F -1.2979 0.346 1.4711 0
M  V30 2 C -1.2379 0.5105 0.1224 0
M  V30 3 F -2.317 1.0176 -0.5292 0
M  V30 4 C -0.1362 0.1809 -0.5637 0
M  V30 5 F -0.1164 0.3608 -1.9119 0
M  V30 6 C 1.0777 -0.3828 0.1205 0
M  V30 7 F 2.0679 -0.6353 -0.8112 0
M  V30 8 F 0.7516 -1.5657 0.7588 0
M  V30 9 F 1.5577 0.5228 1.0493 0
M  V30 END ATOM
M  V30 BEGIN BOND
M  V30 1 1 1 2
M  V30 2 1 2 3
M  V30 3 2 2 4
M  V30 4 1 4 5
M  V30 5 1 4 6
M  V30 6 1 6 7
M  V30 7 1 6 8
M  V30 8 1 6 9
M  V30 END BOND
M  V30 END CTAB
M  END
>  <Structure No>
762

>  <LogS>
-2.888798283

>  <MMFF94 Energy>
-7.4856

$$$$
Compound 763
Actelion Java MolfileCreator 2.0

  0  0  0  0  0  0              0 V3000
M  V30 BEGIN CTAB
M  V30 COUNTS 50 53 0 0 0
M  V30 BEGIN ATOM
M  V30 1 O 6.0464 -0.4826 0.2413 0
M  V30 2 C 4.6511 -0.383 0.351 0
M  V30 3 C 6.9702 0.2585 1.0316 0
M  V30 4 C 3.8617 -1.1711 -0.4877 0
M  V30 5 C 4.0271 0.468 1.275 0
M  V30 6 C 2.4599 -1.1199 -0.4246 0
M  V30 7 C 2.6349 0.5421 1.3393 0
M  V30 8 C 1.8246 -0.2041 0.4585 0
M  V30 9 C 1.6781 -2.0118 -1.3626 0
M  V30 10 C 0.2985 -0.1657 0.5856 0 CFG=2
M  V30 11 C 0.2116 -2.1606 -0.9562 0
M  V30 12 C -0.3816 -0.7782 -0.6614 0 CFG=1
M  V30 13 C -0.2704 1.2534 0.8009 0
M  V30 14 C -1.9317 -0.8091 -0.5636 0 CFG=2
M  V30 15 C -1.7908 1.2002 1.0038 0
M  V30 16 C -2.5623 0.5556 -0.194 0 CFG=2
M  V30 17 C -2.5121 -1.8195 0.4329 0
M  V30 18 C -3.99 0.1378 0.2365 0 CFG=1
M  V30 19 C -2.5942 1.4918 -1.4465 0
M  V30 20 C -3.8577 -1.2494 0.8779 0
M  V30 21 O -4.5607 1.0568 1.1343 0
M  V30 22 C -3.3299 2.8207 -1.2455 0
M  V30 23 H 6.8369 0.0122 2.1062 0
M  V30 24 H 6.8253 1.3473 0.8678 0
M  V30 25 H 8.0029 -0.0117 0.7309 0
M  V30 26 H 4.3468 -1.8385 -1.1902 0
M  V30 27 H 4.6094 1.0707 1.9587 0
M  V30 28 H 2.2053 1.177 2.0989 0
M  V30 29 H 2.1391 -3.0231 -1.3949 0
M  V30 30 H 1.7325 -1.5807 -2.386 0
M  V30 31 H 0.0512 -0.7758 1.4805 0
M  V30 32 H -0.3425 -2.6479 -1.788 0
M  V30 33 H 0.1371 -2.8144 -0.0595 0
M  V30 34 H -0.1376 -0.1297 -1.5341 0
M  V30 35 H -0.0114 1.9121 -0.0553 0
M  V30 36 H 0.1509 1.7146 1.7156 0
M  V30 37 H -2.3137 -1.1122 -1.5668 0
M  V30 38 H -1.9841 0.6181 1.9323 0
M  V30 39 H -2.1625 2.2235 1.2128 0
M  V30 40 H -2.6436 -2.8135 -0.048 0
M  V30 41 H -1.8574 -1.9461 1.3194 0
M  V30 42 H -4.6377 0.0444 -0.6683 0
M  V30 43 H -1.5624 1.7196 -1.7836 0
M  V30 44 H -3.0898 0.9639 -2.2908 0
M  V30 45 H -3.8852 -1.1753 1.9878 0
M  V30 46 H -4.6915 -1.9073 0.5485 0
M  V30 47 H -5.522 0.8203 1.2086 0
M  V30 48 H -4.3718 2.6552 -0.9042 0
M  V30 49 H -3.3726 3.3611 -2.2146 0
M  V30 50 H -2.7952 3.472 -0.5257 0
M  V30 END ATOM
M  V30 BEGIN BOND
M  V30 1 1 1 2
M  V30 2 1 1 3
M  V30 3 2 2 4
M  V30 4 1 2 5
M  V30 5 1 4 6
M  V30 6 2 5 7
M  V30 7 2 6 8
M  V30 8 1 6 9
M  V30 9 1 8 10
M  V30 10 1 9 11
M  V30 11 1 10 12
M  V30 12 1 10 13
M  V30 13 1 12 14
M  V30 14 1 13 15
M  V30 15 1 14 16
M  V30 16 1 14 17
M  V30 17 1 16 18
M  V30 18 1 16 19
M  V30 19 1 17 20
M  V30 20 1 18 21
M  V30 21 1 19 22
M  V30 22 1 7 8
M  V30 23 1 11 12
M  V30 24 1 15 16
M  V30 25 1 18 20
M  V30 26 1 3 23
M  V30 27 1 3 24
M  V30 28 1 3 25
M  V30 29 1 4 26
M  V30 30 1 5 27
M  V30 31 1 7 28
M  V30 32 1 9 29
M  V30 33 1 9 30
M  V30 34 1 10 31
M  V30 35 1 11 32
M  V30 36 1 11 33
M  V30 37 1 12 34
M  V30 38 1 13 35
M  V30 39 1 13 36
M  V30 40 1 14 37
M  V30 41 1 15 38
M  V30 42 1 15 39
M  V30 43 1 17 40
M  V30 44 1 17 41
M  V30 45 1 18 42
M  V30 46 1 19 43
M  V30 47 1 19 44
M  V30 48 1 20 45
M  V30 49 1 20 46
M  V30 50 1 21 47
M  V30 51 1 22 48
M  V30 52 1 22 49
M  V30 53 1 22 50
M  V30 END BOND
M  V30 BEGIN COLLECTION
M  V30 MDLV30/STEABS ATOMS=(5 10 12 14 16 18)
M  V30 END COLLECTION
M  V30 END CTAB
M  END
>  <Structure No>
763

>  <LogS>
-4.875700653

>  <MMFF94 Energy>
71.969

$$$$
Compound 764
Actelion Java MolfileCreator 2.0

  0  0  0  0  0  0              0 V3000
M  V30 BEGIN CTAB
M  V30 COUNTS 45 46 0 0 0
M  V30 BEGIN ATOM
M  V30 1 O 4.8606 1.6712 -1.1935 0
M  V30 2 C 3.8952 0.7812 -0.6968 0 CFG=1
M  V30 3 C 3.0227 0.2695 -1.8638 0
M  V30 4 C 3.0412 1.4753 0.3732 0
M  V30 5 C 1.5615 -0.0253 -1.4658 0
M  V30 6 C 2.0373 0.495 1.0063 0
M  V30 7 C 1.4411 -0.5378 -0.009 0 CFG=2
M  V30 8 C 0.007 -1.1505 0.3534 0
M  V30 9 C -1.2155 -0.4042 -0.35 0 CFG=2
M  V30 10 C 0.0165 -2.6293 -0.1353 0
M  V30 11 C -0.1816 -1.2056 1.8937 0
M  V30 12 C -2.5854 -1.1363 -0.1889 0
M  V30 13 C -1.3528 1.1171 -0.0272 0
M  V30 14 C -3.7581 -0.2375 -0.5979 0
M  V30 15 C -2.5189 1.4254 0.921 0
M  V30 16 C -3.873 1.0102 0.3097 0 CFG=1
M  V30 17 O -4.7851 0.7692 1.3502 0
M  V30 18 H 5.5648 1.7496 -0.4978 0
M  V30 19 H 4.4048 -0.095 -0.2296 0
M  V30 20 H 3.0124 1.017 -2.6876 0
M  V30 21 H 3.4847 -0.6561 -2.2716 0
M  V30 22 H 3.6968 1.8895 1.1699 0
M  V30 23 H 2.4919 2.3268 -0.0863 0
M  V30 24 H 0.9717 0.9085 -1.5823 0
M  V30 25 H 1.157 -0.7753 -2.1779 0
M  V30 26 H 1.2726 1.0957 1.5267 0
M  V30 27 H 2.5652 -0.0671 1.8086 0
M  V30 28 H 2.1689 -1.3806 0.0411 0
M  V30 29 H -1.0246 -0.4524 -1.4436 0
M  V30 30 H -0.8918 -3.1795 0.1869 0
M  V30 31 H 0.0801 -2.6827 -1.2424 0
M  V30 32 H 0.877 -3.1894 0.2902 0
M  V30 33 H -0.3607 -0.202 2.3245 0
M  V30 34 H 0.7203 -1.6371 2.3782 0
M  V30 35 H -1.0348 -1.8498 2.1876 0
M  V30 36 H -2.6095 -2.0403 -0.835 0
M  V30 37 H -2.7544 -1.4623 0.8565 0
M  V30 38 H -0.4318 1.5509 0.382 0
M  V30 39 H -1.5358 1.6705 -0.9755 0
M  V30 40 H -3.6083 0.0859 -1.6518 0
M  V30 41 H -4.7023 -0.824 -0.5697 0
M  V30 42 H -2.5353 2.5141 1.1457 0
M  V30 43 H -2.3595 0.8933 1.8828 0
M  V30 44 H -4.2404 1.8594 -0.3139 0
M  V30 45 H -5.6947 0.8336 0.9571 0
M  V30 END ATOM
M  V30 BEGIN BOND
M  V30 1 1 1 2
M  V30 2 1 2 3
M  V30 3 1 2 4
M  V30 4 1 3 5
M  V30 5 1 4 6
M  V30 6 1 5 7
M  V30 7 1 7 8
M  V30 8 1 8 9
M  V30 9 1 8 10
M  V30 10 1 8 11
M  V30 11 1 9 12
M  V30 12 1 9 13
M  V30 13 1 12 14
M  V30 14 1 13 15
M  V30 15 1 14 16
M  V30 16 1 16 17
M  V30 17 1 6 7
M  V30 18 1 15 16
M  V30 19 1 1 18
M  V30 20 1 2 19
M  V30 21 1 3 20
M  V30 22 1 3 21
M  V30 23 1 4 22
M  V30 24 1 4 23
M  V30 25 1 5 24
M  V30 26 1 5 25
M  V30 27 1 6 26
M  V30 28 1 6 27
M  V30 29 1 7 28
M  V30 30 1 9 29
M  V30 31 1 10 30
M  V30 32 1 10 31
M  V30 33 1 10 32
M  V30 34 1 11 33
M  V30 35 1 11 34
M  V30 36 1 11 35
M  V30 37 1 12 36
M  V30 38 1 12 37
M  V30 39 1 13 38
M  V30 40 1 13 39
M  V30 41 1 14 40
M  V30 42 1 14 41
M  V30 43 1 15 42
M  V30 44 1 15 43
M  V30 45 1 16 44
M  V30 46 1 17 45
M  V30 END BOND
M  V30 BEGIN COLLECTION
M  V30 MDLV30/STEABS ATOMS=(4 2 7 9 16)
M  V30 END COLLECTION
M  V30 END CTAB
M  END
>  <Structure No>
764

>  <LogS>
-3.097609749

>  <MMFF94 Energy>
44.644

$$$$
Compound 765
Actelion Java MolfileCreator 2.0

  0  0  0  0  0  0              0 V3000
M  V30 BEGIN CTAB
M  V30 COUNTS 37 39 0 0 0
M  V30 BEGIN ATOM
M  V30 1 S 6.2347 -1.1935 0.3409 0
M  V30 2 O 6.8947 -0.8755 1.653 0
M  V30 3 O 7.0555 -0.5991 -0.7686 0
M  V30 4 O 6.1516 -2.8594 0.1459 0 CHG=-1
M  V30 5 C 4.609 -0.5187 0.3088 0
M  V30 6 C 4.0243 -0.1516 -0.9093 0
M  V30 7 C 3.8858 -0.3683 1.4973 0
M  V30 8 C 2.7254 0.3774 -0.9442 0
M  V30 9 C 2.5917 0.1562 1.4742 0
M  V30 10 C 1.9979 0.5372 0.2567 0
M  V30 11 C 2.1276 0.7606 -2.243 0
M  V30 12 C 0.6185 1.0873 0.2091 0
M  V30 13 C 0.9047 1.2915 -2.3212 0
M  V30 14 N -0.0722 1.1814 1.3129 0
M  V30 15 C 0.0929 1.5167 -1.115 0
M  V30 16 N -1.4084 1.6104 1.3827 0
M  V30 17 O -1.0198 2.0954 -1.2294 0
M  V30 18 C -2.5035 0.7698 0.9783 0
M  V30 19 C -2.2891 -0.5428 0.5201 0
M  V30 20 C -3.8145 1.2656 1.0403 0
M  V30 21 C -3.3692 -1.3384 0.127 0
M  V30 22 C -4.8934 0.4687 0.647 0
M  V30 23 C -4.6759 -0.8384 0.1934 0
M  V30 24 S -6.0331 -1.8368 -0.3157 0
M  V30 25 O -7.2644 -1.4582 0.4585 0
M  V30 26 O -5.7266 -3.2851 -0.0568 0
M  V30 27 O -6.3108 -1.6077 -1.9559 0 CHG=-1
M  V30 28 H 4.5795 -0.2797 -1.8306 0
M  V30 29 H 4.3219 -0.6601 2.4442 0
M  V30 30 H 2.0571 0.2612 2.4099 0
M  V30 31 H 2.694 0.6179 -3.1554 0
M  V30 32 H 0.5075 1.5712 -3.2892 0
M  V30 33 H -1.6151 2.4773 1.9277 0
M  V30 34 H -1.2916 -0.9575 0.4678 0
M  V30 35 H -3.9998 2.2744 1.3875 0
M  V30 36 H -3.1849 -2.3438 -0.2293 0
M  V30 37 H -5.8965 0.873 0.694 0
M  V30 END ATOM
M  V30 BEGIN BOND
M  V30 1 2 1 2
M  V30 2 2 1 3
M  V30 3 1 1 4
M  V30 4 1 1 5
M  V30 5 2 5 6
M  V30 6 1 5 7
M  V30 7 1 6 8
M  V30 8 2 7 9
M  V30 9 2 8 10
M  V30 10 1 8 11
M  V30 11 1 10 12
M  V30 12 2 11 13
M  V30 13 2 12 14
M  V30 14 1 12 15
M  V30 15 1 14 16
M  V30 16 2 15 17
M  V30 17 1 16 18
M  V30 18 2 18 19
M  V30 19 1 18 20
M  V30 20 1 19 21
M  V30 21 2 20 22
M  V30 22 2 21 23
M  V30 23 1 23 24
M  V30 24 2 24 25
M  V30 25 2 24 26
M  V30 26 1 24 27
M  V30 27 1 9 10
M  V30 28 1 13 15
M  V30 29 1 22 23
M  V30 30 1 6 28
M  V30 31 1 7 29
M  V30 32 1 9 30
M  V30 33 1 11 31
M  V30 34 1 13 32
M  V30 35 1 16 33
M  V30 36 1 19 34
M  V30 37 1 20 35
M  V30 38 1 21 36
M  V30 39 1 22 37
M  V30 END BOND
M  V30 END CTAB
M  END
>  <Structure No>
765

>  <LogS>
-1.376746915

>  <MMFF94 Energy>
178.92

$$$$
Compound 766
Actelion Java MolfileCreator 2.0

  0  0  0  0  0  0              0 V3000
M  V30 BEGIN CTAB
M  V30 COUNTS 8 7 0 0 0
M  V30 BEGIN ATOM
M  V30 1 Cl 1.2595 1.5956 -0.3357 0
M  V30 2 C 0.6851 -0.0534 0.0158 0
M  V30 3 F 1.2382 -0.9306 -0.8985 0
M  V30 4 F 1.087 -0.4114 1.2894 0
M  V30 5 C -0.833 -0.1085 -0.0759 0
M  V30 6 H -1.286 0.5901 0.659 0
M  V30 7 H -1.1865 -1.138 0.1439 0
M  V30 8 H -1.1647 0.1733 -1.0977 0
M  V30 END ATOM
M  V30 BEGIN BOND
M  V30 1 1 1 2
M  V30 2 1 2 3
M  V30 3 1 2 4
M  V30 4 1 2 5
M  V30 5 1 5 6
M  V30 6 1 5 7
M  V30 7 1 5 8
M  V30 END BOND
M  V30 END CTAB
M  END
>  <Structure No>
766

>  <LogS>
-1.723390854

>  <MMFF94 Energy>
2.6438

$$$$
Compound 767
Actelion Java MolfileCreator 2.0

  0  0  0  0  0  0              0 V3000
M  V30 BEGIN CTAB
M  V30 COUNTS 22 22 0 0 0
M  V30 BEGIN ATOM
M  V30 1 O -0.8993 -3.601 -0.4904 0
M  V30 2 N -1.7509 -2.6945 -0.3797 0 CHG=1
M  V30 3 O -3.0846 -3.0315 -0.4203 0 CHG=-1
M  V30 4 C -1.3468 -1.3222 -0.2125 0
M  V30 5 C 0.0155 -0.9772 -0.1708 0
M  V30 6 C -2.3122 -0.3092 -0.0889 0
M  V30 7 C 0.4157 0.3589 -0.008 0
M  V30 8 C -1.9317 1.0326 0.0744 0
M  V30 9 C 1.8547 0.7063 0.0338 0
M  V30 10 C -0.5654 1.3578 0.1138 0
M  V30 11 C -2.9613 2.0891 0.2034 0
M  V30 12 O 2.2129 1.9079 0.1802 0
M  V30 13 O 2.8191 -0.2999 -0.0888 0
M  V30 14 O -2.6278 3.2952 0.3502 0
M  V30 15 O -4.3127 1.7652 0.1642 0 CHG=-1
M  V30 16 C 4.2159 -0.0332 -0.0567 0
M  V30 17 H 0.7645 -1.753 -0.2654 0
M  V30 18 H -3.3629 -0.5673 -0.12 0
M  V30 19 H -0.2649 2.3909 0.2396 0
M  V30 20 H 4.7716 -0.986 -0.1729 0
M  V30 21 H 4.4925 0.4286 0.9147 0
M  V30 22 H 4.4921 0.6483 -0.8888 0
M  V30 END ATOM
M  V30 BEGIN BOND
M  V30 1 2 1 2
M  V30 2 1 2 3
M  V30 3 1 2 4
M  V30 4 2 4 5
M  V30 5 1 4 6
M  V30 6 1 5 7
M  V30 7 2 6 8
M  V30 8 1 7 9
M  V30 9 2 7 10
M  V30 10 1 8 11
M  V30 11 2 9 12
M  V30 12 1 9 13
M  V30 13 2 11 14
M  V30 14 1 11 15
M  V30 15 1 13 16
M  V30 16 1 8 10
M  V30 17 1 5 17
M  V30 18 1 6 18
M  V30 19 1 10 19
M  V30 20 1 16 20
M  V30 21 1 16 21
M  V30 22 1 16 22
M  V30 END BOND
M  V30 END CTAB
M  END
>  <Structure No>
767

>  <LogS>
-2.073729924

>  <MMFF94 Energy>
58.305

$$$$
Compound 768
Actelion Java MolfileCreator 2.0

  0  0  0  0  0  0              0 V3000
M  V30 BEGIN CTAB
M  V30 COUNTS 5 4 0 0 0
M  V30 BEGIN ATOM
M  V30 1 F -1.0901 0.8564 0.0 0
M  V30 2 C -0.0323 -0.0315 0.028 0
M  V30 3 F 1.1543 0.6614 -0.1132 0
M  V30 4 H -0.0306 -0.5742 0.9955 0
M  V30 5 H -0.1374 -0.7581 -0.8035 0
M  V30 END ATOM
M  V30 BEGIN BOND
M  V30 1 1 1 2
M  V30 2 1 2 3
M  V30 3 1 2 4
M  V30 4 1 2 5
M  V30 END BOND
M  V30 END CTAB
M  END
>  <Structure No>
768

>  <LogS>
-1.437441792

>  <MMFF94 Energy>
0.28714

$$$$
Compound 769
Actelion Java MolfileCreator 2.0

  0  0  0  0  0  0              0 V3000
M  V30 BEGIN CTAB
M  V30 COUNTS 39 40 0 0 0
M  V30 BEGIN ATOM
M  V30 1 O 3.8872 2.6166 -0.4753 0
M  V30 2 C 4.5865 1.4334 -0.235 0
M  V30 3 C 3.8936 0.2134 -0.089 0
M  V30 4 C 5.986 1.4596 -0.1381 0
M  V30 5 C 4.6261 -0.9654 0.1535 0
M  V30 6 C 2.4172 0.179 -0.1895 0
M  V30 7 C 6.6986 0.2834 0.1024 0
M  V30 8 C 6.0197 -0.9269 0.248 0
M  V30 9 N 1.7635 -0.9351 -0.0568 0
M  V30 10 C 0.3065 -1.0219 -0.1423 0 CFG=2
M  V30 11 C -0.3335 -0.4302 1.1297 0
M  V30 12 C -0.0889 -2.4887 -0.3278 0
M  V30 13 N -1.7924 -0.4471 1.0481 0
M  V30 14 C -2.4682 0.3553 0.2828 0
M  V30 15 C -3.9472 0.2739 0.2185 0
M  V30 16 C -4.7298 1.3078 -0.3595 0
M  V30 17 C -4.6002 -0.873 0.7154 0
M  V30 18 O -4.1766 2.4992 -0.8363 0
M  V30 19 C -6.1197 1.1579 -0.4506 0
M  V30 20 C -5.988 -0.9995 0.6265 0
M  V30 21 C -6.7462 0.012 0.0401 0
M  V30 22 H 4.3647 3.5039 -0.5832 0
M  V30 23 H 6.5224 2.3935 -0.2494 0
M  V30 24 H 4.1238 -1.9175 0.2705 0
M  V30 25 H 1.8736 1.0978 -0.3787 0
M  V30 26 H 7.7782 0.3103 0.176 0
M  V30 27 H 6.574 -1.8376 0.4346 0
M  V30 28 H -0.041 -0.4548 -1.0351 0
M  V30 29 H 0.0152 0.6139 1.2885 0
M  V30 30 H -0.0192 -1.0252 2.014 0
M  V30 31 H 0.2268 -3.0922 0.5501 0
M  V30 32 H 0.4016 -2.8985 -1.2363 0
M  V30 33 H -1.1882 -2.5828 -0.457 0
M  V30 34 H -1.9335 1.0714 -0.3252 0
M  V30 35 H -4.0368 -1.6841 1.1599 0
M  V30 36 H -3.2046 2.7528 -0.7311 0
M  V30 37 H -6.7192 1.9425 -0.8953 0
M  V30 38 H -6.4755 -1.8878 1.0072 0
M  V30 39 H -7.8215 -0.0897 -0.0312 0
M  V30 END ATOM
M  V30 BEGIN BOND
M  V30 1 1 1 2
M  V30 2 2 2 3
M  V30 3 1 2 4
M  V30 4 1 3 5
M  V30 5 1 3 6
M  V30 6 2 4 7
M  V30 7 2 5 8
M  V30 8 2 6 9
M  V30 9 1 9 10
M  V30 10 1 10 11
M  V30 11 1 10 12
M  V30 12 1 11 13
M  V30 13 2 13 14
M  V30 14 1 14 15
M  V30 15 2 15 16
M  V30 16 1 15 17
M  V30 17 1 16 18
M  V30 18 1 16 19
M  V30 19 2 17 20
M  V30 20 2 19 21
M  V30 21 1 7 8
M  V30 22 1 20 21
M  V30 23 1 1 22
M  V30 24 1 4 23
M  V30 25 1 5 24
M  V30 26 1 6 25
M  V30 27 1 7 26
M  V30 28 1 8 27
M  V30 29 1 10 28
M  V30 30 1 11 29
M  V30 31 1 11 30
M  V30 32 1 12 31
M  V30 33 1 12 32
M  V30 34 1 12 33
M  V30 35 1 14 34
M  V30 36 1 17 35
M  V30 37 1 18 36
M  V30 38 1 19 37
M  V30 39 1 20 38
M  V30 40 1 21 39
M  V30 END BOND
M  V30 BEGIN COLLECTION
M  V30 MDLV30/STEABS ATOMS=(1 10)
M  V30 END COLLECTION
M  V30 END CTAB
M  END
>  <Structure No>
769

>  <LogS>
-3.172023424

>  <MMFF94 Energy>
74.96

$$$$
Compound 770
Actelion Java MolfileCreator 2.0

  0  0  0  0  0  0              0 V3000
M  V30 BEGIN CTAB
M  V30 COUNTS 75 76 0 0 0
M  V30 BEGIN ATOM
M  V30 1 S 2.5615 -2.7217 3.5233 0
M  V30 2 O 3.0725 -1.3137 3.5978 0
M  V30 3 O 3.7571 -3.6237 3.3909 0
M  V30 4 O 1.7748 -3.0532 4.9708 0 CHG=-1
M  V30 5 C 1.4244 -3.0646 2.1662 0
M  V30 6 C 0.9682 -4.4093 1.9984 0
M  V30 7 C 0.9541 -2.0483 1.2616 0
M  V30 8 C 0.1066 -4.7323 0.9229 0
M  V30 9 C 1.3362 -5.4581 2.8812 0
M  V30 10 C 0.0808 -2.4137 0.1908 0
M  V30 11 C 1.3692 -0.594 1.4354 0
M  V30 12 C -0.3128 -3.7446 0.0416 0
M  V30 13 C -0.342 -6.0513 0.7368 0
M  V30 14 C 0.8821 -6.7633 2.6833 0
M  V30 15 C -0.5108 -1.434 -0.8148 0
M  V30 16 C 2.7793 -0.3092 0.8778 0
M  V30 17 C 0.0465 -7.0597 1.6134 0
M  V30 18 C -1.9828 -1.102 -0.5171 0
M  V30 19 C 2.7779 -0.0542 -0.6336 0
M  V30 20 C -2.1526 -0.2623 0.7582 0
M  V30 21 C 4.1855 0.3062 -1.1325 0
M  V30 22 C -3.6266 0.0237 1.0863 0
M  V30 23 C 4.218 0.5835 -2.647 0
M  V30 24 C -4.2556 1.0539 0.1354 0
M  V30 25 C 3.6617 1.9666 -3.035 0
M  V30 26 C -5.668 1.4428 0.5984 0
M  V30 27 C 4.6759 3.0974 -2.7884 0
M  V30 28 C -6.3236 2.4826 -0.3347 0
M  V30 29 C 4.1037 4.4791 -3.142 0
M  V30 30 C -6.2679 3.9222 0.206 0
M  V30 31 C 3.1698 5.0207 -2.0581 0
M  V30 32 C -4.8498 4.4845 0.2718 0
M  V30 33 H 1.9651 -5.3009 3.7415 0
M  V30 34 H 1.3008 -0.3179 2.5048 0
M  V30 35 H 0.6488 0.1182 1.0003 0
M  V30 36 H -0.9764 -4.0115 -0.7741 0
M  V30 37 H -0.9995 -6.3039 -0.0863 0
M  V30 38 H 1.1779 -7.5482 3.3679 0
M  V30 39 H 0.067 -0.5027 -0.9328 0
M  V30 40 H -0.468 -1.9023 -1.8229 0
M  V30 41 H 3.4651 -1.1554 1.0992 0
M  V30 42 H 3.176 0.5942 1.3902 0
M  V30 43 H -0.3056 -8.0719 1.4648 0
M  V30 44 H -2.381 -0.5345 -1.3846 0
M  V30 45 H -2.57 -2.0421 -0.4309 0
M  V30 46 H 2.079 0.7791 -0.8527 0
M  V30 47 H 2.4302 -0.9692 -1.1596 0
M  V30 48 H -1.6039 0.6986 0.6556 0
M  V30 49 H -1.7147 -0.8155 1.6169 0
M  V30 50 H 4.8608 -0.5526 -0.9247 0
M  V30 51 H 4.5767 1.1782 -0.5688 0
M  V30 52 H -4.2108 -0.9222 1.0616 0
M  V30 53 H -3.6729 0.4203 2.1243 0
M  V30 54 H 3.6372 -0.2047 -3.1751 0
M  V30 55 H 5.2679 0.4969 -3.0069 0
M  V30 56 H -4.3193 0.6239 -0.8857 0
M  V30 57 H -3.6119 1.9558 0.0921 0
M  V30 58 H 2.7147 2.1671 -2.4969 0
M  V30 59 H 3.4193 1.9482 -4.12 0
M  V30 60 H -5.6392 1.8183 1.645 0
M  V30 61 H -6.2974 0.5251 0.5994 0
M  V30 62 H 5.024 3.1013 -1.7331 0
M  V30 63 H 5.5689 2.9143 -3.4259 0
M  V30 64 H -5.884 2.4446 -1.3564 0
M  V30 65 H -7.398 2.2154 -0.4466 0
M  V30 66 H 3.5636 4.4367 -4.1124 0
M  V30 67 H 4.947 5.1938 -3.2622 0
M  V30 68 H -6.7314 3.9669 1.2163 0
M  V30 69 H -6.8709 4.5706 -0.4662 0
M  V30 70 H 3.7127 5.102 -1.0921 0
M  V30 71 H 2.2827 4.3653 -1.9289 0
M  V30 72 H 2.8174 6.0321 -2.3496 0
M  V30 73 H -4.8925 5.5687 0.5048 0
M  V30 74 H -4.3315 4.3503 -0.7018 0
M  V30 75 H -4.2718 3.9862 1.0773 0
M  V30 END ATOM
M  V30 BEGIN BOND
M  V30 1 2 1 2
M  V30 2 2 1 3
M  V30 3 1 1 4
M  V30 4 1 1 5
M  V30 5 1 5 6
M  V30 6 2 5 7
M  V30 7 1 6 8
M  V30 8 2 6 9
M  V30 9 1 7 10
M  V30 10 1 7 11
M  V30 11 1 8 12
M  V30 12 2 8 13
M  V30 13 1 9 14
M  V30 14 1 10 15
M  V30 15 1 11 16
M  V30 16 1 13 17
M  V30 17 1 15 18
M  V30 18 1 16 19
M  V30 19 1 18 20
M  V30 20 1 19 21
M  V30 21 1 20 22
M  V30 22 1 21 23
M  V30 23 1 22 24
M  V30 24 1 23 25
M  V30 25 1 24 26
M  V30 26 1 25 27
M  V30 27 1 26 28
M  V30 28 1 27 29
M  V30 29 1 28 30
M  V30 30 1 29 31
M  V30 31 1 30 32
M  V30 32 2 10 12
M  V30 33 2 14 17
M  V30 34 1 9 33
M  V30 35 1 11 34
M  V30 36 1 11 35
M  V30 37 1 12 36
M  V30 38 1 13 37
M  V30 39 1 14 38
M  V30 40 1 15 39
M  V30 41 1 15 40
M  V30 42 1 16 41
M  V30 43 1 16 42
M  V30 44 1 17 43
M  V30 45 1 18 44
M  V30 46 1 18 45
M  V30 47 1 19 46
M  V30 48 1 19 47
M  V30 49 1 20 48
M  V30 50 1 20 49
M  V30 51 1 21 50
M  V30 52 1 21 51
M  V30 53 1 22 52
M  V30 54 1 22 53
M  V30 55 1 23 54
M  V30 56 1 23 55
M  V30 57 1 24 56
M  V30 58 1 24 57
M  V30 59 1 25 58
M  V30 60 1 25 59
M  V30 61 1 26 60
M  V30 62 1 26 61
M  V30 63 1 27 62
M  V30 64 1 27 63
M  V30 65 1 28 64
M  V30 66 1 28 65
M  V30 67 1 29 66
M  V30 68 1 29 67
M  V30 69 1 30 68
M  V30 70 1 30 69
M  V30 71 1 31 70
M  V30 72 1 31 71
M  V30 73 1 31 72
M  V30 74 1 32 73
M  V30 75 1 32 74
M  V30 76 1 32 75
M  V30 END BOND
M  V30 END CTAB
M  END
>  <Structure No>
770

>  <LogS>
-4.674472917

>  <MMFF94 Energy>
78.198

$$$$
Compound 771
Actelion Java MolfileCreator 2.0

  0  0  0  0  0  0              0 V3000
M  V30 BEGIN CTAB
M  V30 COUNTS 36 37 0 0 0
M  V30 BEGIN ATOM
M  V30 1 S 2.194 -0.406 -2.0313 0
M  V30 2 O 2.4915 -1.6595 -2.8061 0
M  V30 3 O 2.4266 0.7697 -2.939 0
M  V30 4 C 0.5216 -0.4203 -1.4856 0
M  V30 5 C 3.2529 -0.3011 -0.6305 0
M  V30 6 C -0.17 0.7836 -1.3044 0
M  V30 7 C -0.1149 -1.6332 -1.1965 0
M  V30 8 C 3.6276 0.9505 -0.1227 0
M  V30 9 C 3.6977 -1.4684 0.0057 0
M  V30 10 C -1.4924 0.7759 -0.8503 0
M  V30 11 C -1.4367 -1.6423 -0.7425 0
M  V30 12 C 4.4528 1.0337 1.0031 0
M  V30 13 C 4.5227 -1.3841 1.1315 0
M  V30 14 C -2.1373 -0.4433 -0.5623 0
M  V30 15 C 4.9036 -0.1347 1.6328 0
M  V30 16 O -3.4638 -0.516 -0.1048 0
M  V30 17 O 5.7258 -0.065 2.7551 0
M  V30 18 C -4.2929 0.5971 0.2374 0
M  V30 19 C -5.7447 0.1255 0.2961 0
M  V30 20 C -3.8699 1.1777 1.5908 0
M  V30 21 H 0.3146 1.7294 -1.5113 0
M  V30 22 H 0.4115 -2.5713 -1.3178 0
M  V30 23 H 3.2787 1.8603 -0.5944 0
M  V30 24 H 3.4032 -2.4415 -0.3658 0
M  V30 25 H -1.9972 1.7232 -0.7286 0
M  V30 26 H -1.9191 -2.5866 -0.5242 0
M  V30 27 H 4.7383 2.005 1.3865 0
M  V30 28 H 4.864 -2.2897 1.6165 0
M  V30 29 H 6.0184 0.8244 3.1425 0
M  V30 30 H -4.2286 1.3808 -0.548 0
M  V30 31 H -6.0444 -0.2872 -0.6902 0
M  V30 32 H -5.8657 -0.6676 1.0648 0
M  V30 33 H -6.4176 0.9753 0.5404 0
M  V30 34 H -3.9431 0.4026 2.3834 0
M  V30 35 H -4.522 2.0356 1.8611 0
M  V30 36 H -2.8224 1.5395 1.5501 0
M  V30 END ATOM
M  V30 BEGIN BOND
M  V30 1 2 1 2
M  V30 2 2 1 3
M  V30 3 1 1 4
M  V30 4 1 1 5
M  V30 5 2 4 6
M  V30 6 1 4 7
M  V30 7 2 5 8
M  V30 8 1 5 9
M  V30 9 1 6 10
M  V30 10 2 7 11
M  V30 11 1 8 12
M  V30 12 2 9 13
M  V30 13 2 10 14
M  V30 14 2 12 15
M  V30 15 1 14 16
M  V30 16 1 15 17
M  V30 17 1 16 18
M  V30 18 1 18 19
M  V30 19 1 18 20
M  V30 20 1 11 14
M  V30 21 1 13 15
M  V30 22 1 6 21
M  V30 23 1 7 22
M  V30 24 1 8 23
M  V30 25 1 9 24
M  V30 26 1 10 25
M  V30 27 1 11 26
M  V30 28 1 12 27
M  V30 29 1 13 28
M  V30 30 1 17 29
M  V30 31 1 18 30
M  V30 32 1 19 31
M  V30 33 1 19 32
M  V30 34 1 19 33
M  V30 35 1 20 34
M  V30 36 1 20 35
M  V30 37 1 20 36
M  V30 END BOND
M  V30 END CTAB
M  END
>  <Structure No>
771

>  <LogS>
-4.171445785

>  <MMFF94 Energy>
81.234

$$$$
Compound 772
Actelion Java MolfileCreator 2.0

  0  0  0  0  0  0              0 V3000
M  V30 BEGIN CTAB
M  V30 COUNTS 62 70 0 0 0
M  V30 BEGIN ATOM
M  V30 1 Cl 1.4199 4.0969 -1.0021 0
M  V30 2 C 0.69 2.7047 -0.2069 0
M  V30 3 C 1.4513 1.6047 0.2463 0
M  V30 4 C -0.7031 2.6899 -0.0797 0
M  V30 5 C 2.9313 1.5779 0.1505 0
M  V30 6 C 0.785 0.5124 0.8265 0
M  V30 7 C -1.3666 1.5901 0.4825 0
M  V30 8 N 3.7061 2.6863 0.2651 0
M  V30 9 N 3.6487 0.4388 -0.0222 0
M  V30 10 C -0.6079 0.4993 0.9533 0
M  V30 11 C -2.842 1.6202 0.5722 0
M  V30 12 C 4.9527 2.1987 0.1483 0
M  V30 13 C 4.9309 0.844 -0.0246 0
M  V30 14 Cl -1.3432 -0.8593 1.7991 0
M  V30 15 N -3.5313 2.739 0.9107 0
M  V30 16 N -3.6397 0.5677 0.2636 0
M  V30 17 C 6.1363 2.9212 0.1901 0
M  V30 18 C 6.1155 0.0915 -0.1726 0
M  V30 19 C -4.8118 2.3404 0.8235 0
M  V30 20 C -4.8897 1.0328 0.4343 0
M  V30 21 C 7.3398 2.2174 0.0455 0
M  V30 22 C 6.133 -1.3839 -0.3561 0
M  V30 23 C 7.343 0.8087 -0.1362 0
M  V30 24 C -5.9413 3.1092 1.0642 0
M  V30 25 C -6.1277 0.3806 0.2521 0
M  V30 26 O 5.0579 -2.0392 -0.3776 0
M  V30 27 C 7.4221 -2.0992 -0.5127 0
M  V30 28 C 8.6266 0.0849 -0.2877 0
M  V30 29 C -7.195 2.5043 0.897 0
M  V30 30 C -6.252 -1.0423 -0.16 0
M  V30 31 C -7.3013 1.1472 0.4923 0
M  V30 32 C 8.6375 -1.383 -0.4795 0
M  V30 33 C 7.4478 -3.4949 -0.6936 0
M  V30 34 O 9.7152 0.7218 -0.2533 0
M  V30 35 O -5.225 -1.7472 -0.3477 0
M  V30 36 C -7.592 -1.6483 -0.3455 0
M  V30 37 C -8.6364 0.5291 0.3182 0
M  V30 38 C 9.8535 -2.0754 -0.6287 0
M  V30 39 C 8.6619 -4.1683 -0.8384 0
M  V30 40 C -8.7543 -0.8823 -0.1119 0
M  V30 41 C -7.7188 -2.9895 -0.7531 0
M  V30 42 O -9.6775 1.2084 0.5369 0
M  V30 43 C 9.8622 -3.46 -0.8062 0
M  V30 44 C -10.0198 -1.4714 -0.291 0
M  V30 45 C -8.9811 -3.5601 -0.9272 0
M  V30 46 C -10.129 -2.8028 -0.6967 0
M  V30 47 H -1.2747 3.5342 -0.4467 0
M  V30 48 H 1.3505 -0.324 1.2178 0
M  V30 49 H 3.2653 -0.5217 -0.1455 0
M  V30 50 H -3.3293 -0.3647 -0.0814 0
M  V30 51 H 6.1312 3.9946 0.3294 0
M  V30 52 H 8.2688 2.7724 0.076 0
M  V30 53 H -5.8586 4.1448 1.3682 0
M  V30 54 H -8.0823 3.0962 1.082 0
M  V30 55 H 6.5295 -4.0673 -0.7231 0
M  V30 56 H 10.7982 -1.5473 -0.6077 0
M  V30 57 H 8.672 -5.2417 -0.9755 0
M  V30 58 H -6.8431 -3.5985 -0.9384 0
M  V30 59 H 10.8019 -3.9849 -0.9188 0
M  V30 60 H -10.9254 -0.9037 -0.1182 0
M  V30 61 H -9.0688 -4.592 -1.2416 0
M  V30 62 H -11.1062 -3.2481 -0.8325 0
M  V30 END ATOM
M  V30 BEGIN BOND
M  V30 1 1 1 2
M  V30 2 2 2 3
M  V30 3 1 2 4
M  V30 4 1 3 5
M  V30 5 1 3 6
M  V30 6 2 4 7
M  V30 7 2 5 8
M  V30 8 1 5 9
M  V30 9 2 6 10
M  V30 10 1 7 11
M  V30 11 1 8 12
M  V30 12 1 9 13
M  V30 13 1 10 14
M  V30 14 2 11 15
M  V30 15 1 11 16
M  V30 16 1 12 17
M  V30 17 1 13 18
M  V30 18 1 15 19
M  V30 19 1 16 20
M  V30 20 2 17 21
M  V30 21 1 18 22
M  V30 22 2 18 23
M  V30 23 1 19 24
M  V30 24 1 20 25
M  V30 25 2 22 26
M  V30 26 1 22 27
M  V30 27 1 23 28
M  V30 28 2 24 29
M  V30 29 1 25 30
M  V30 30 2 25 31
M  V30 31 2 27 32
M  V30 32 1 27 33
M  V30 33 2 28 34
M  V30 34 2 30 35
M  V30 35 1 30 36
M  V30 36 1 31 37
M  V30 37 1 32 38
M  V30 38 2 33 39
M  V30 39 2 36 40
M  V30 40 1 36 41
M  V30 41 2 37 42
M  V30 42 2 38 43
M  V30 43 1 40 44
M  V30 44 2 41 45
M  V30 45 2 44 46
M  V30 46 1 7 10
M  V30 47 2 12 13
M  V30 48 2 19 20
M  V30 49 1 21 23
M  V30 50 1 28 32
M  V30 51 1 29 31
M  V30 52 1 37 40
M  V30 53 1 39 43
M  V30 54 1 45 46
M  V30 55 1 4 47
M  V30 56 1 6 48
M  V30 57 1 9 49
M  V30 58 1 16 50
M  V30 59 1 17 51
M  V30 60 1 21 52
M  V30 61 1 24 53
M  V30 62 1 29 54
M  V30 63 1 33 55
M  V30 64 1 38 56
M  V30 65 1 39 57
M  V30 66 1 41 58
M  V30 67 1 43 59
M  V30 68 1 44 60
M  V30 69 1 45 61
M  V30 70 1 46 62
M  V30 END BOND
M  V30 END CTAB
M  END
>  <Structure No>
772

>  <LogS>
-4.524775941

>  <MMFF94 Energy>
123.75

$$$$
Compound 773
Actelion Java MolfileCreator 2.0

  0  0  0  0  0  0              0 V3000
M  V30 BEGIN CTAB
M  V30 COUNTS 35 34 0 0 0
M  V30 BEGIN ATOM
M  V30 1 O 4.1378 -1.3257 0.7017 0
M  V30 2 C 4.4818 -0.2611 0.1197 0
M  V30 3 O 3.6387 0.3505 -0.8146 0
M  V30 4 C 5.7861 0.3759 0.4594 0
M  V30 5 C 2.3462 -0.1505 -1.1509 0
M  V30 6 C 1.3387 0.1779 -0.0377 0
M  V30 7 C -0.1136 -0.2372 -0.3945 0 CFG=2
M  V30 8 C -1.1123 0.5773 0.4824 0
M  V30 9 C -0.2905 -1.7572 -0.2235 0
M  V30 10 C -2.648 0.4614 0.1845 0
M  V30 11 C -3.3482 1.6924 0.8069 0
M  V30 12 C -2.9447 0.4587 -1.3295 0
M  V30 13 C -3.2622 -0.7967 0.8398 0
M  V30 14 H 6.5632 -0.4029 0.6079 0
M  V30 15 H 5.6765 0.9675 1.3921 0
M  V30 16 H 6.1057 1.049 -0.3633 0
M  V30 17 H 2.021 0.3415 -2.0921 0
M  V30 18 H 2.4082 -1.2418 -1.3421 0
M  V30 19 H 1.3911 1.2763 0.1282 0
M  V30 20 H 1.6474 -0.3103 0.9122 0
M  V30 21 H -0.2848 0.0239 -1.461 0
M  V30 22 H -0.9255 0.3452 1.5548 0
M  V30 23 H -0.835 1.648 0.3566 0
M  V30 24 H -1.1373 -2.118 -0.8389 0
M  V30 25 H 0.5972 -2.317 -0.5773 0
M  V30 26 H -0.4552 -2.02 0.8432 0
M  V30 27 H -2.9825 2.6339 0.3423 0
M  V30 28 H -4.4487 1.6463 0.6557 0
M  V30 29 H -3.1504 1.7434 1.8999 0
M  V30 30 H -4.0397 0.5095 -1.5139 0
M  V30 31 H -2.5724 -0.4678 -1.8123 0
M  V30 32 H -2.4674 1.3337 -1.821 0
M  V30 33 H -2.9459 -1.7296 0.3408 0
M  V30 34 H -4.3717 -0.7678 0.7748 0
M  V30 35 H -2.9841 -0.8576 1.9139 0
M  V30 END ATOM
M  V30 BEGIN BOND
M  V30 1 2 1 2
M  V30 2 1 2 3
M  V30 3 1 2 4
M  V30 4 1 3 5
M  V30 5 1 5 6
M  V30 6 1 6 7
M  V30 7 1 7 8
M  V30 8 1 7 9
M  V30 9 1 8 10
M  V30 10 1 10 11
M  V30 11 1 10 12
M  V30 12 1 10 13
M  V30 13 1 4 14
M  V30 14 1 4 15
M  V30 15 1 4 16
M  V30 16 1 5 17
M  V30 17 1 5 18
M  V30 18 1 6 19
M  V30 19 1 6 20
M  V30 20 1 7 21
M  V30 21 1 8 22
M  V30 22 1 8 23
M  V30 23 1 9 24
M  V30 24 1 9 25
M  V30 25 1 9 26
M  V30 26 1 11 27
M  V30 27 1 11 28
M  V30 28 1 11 29
M  V30 29 1 12 30
M  V30 30 1 12 31
M  V30 31 1 12 32
M  V30 32 1 13 33
M  V30 33 1 13 34
M  V30 34 1 13 35
M  V30 END BOND
M  V30 BEGIN COLLECTION
M  V30 MDLV30/STEABS ATOMS=(1 7)
M  V30 END COLLECTION
M  V30 END CTAB
M  END
>  <Structure No>
773

>  <LogS>
-3.989167832

>  <MMFF94 Energy>
12.605

$$$$
Compound 774
Actelion Java MolfileCreator 2.0

  0  0  0  0  0  0              0 V3000
M  V30 BEGIN CTAB
M  V30 COUNTS 16 16 0 0 0
M  V30 BEGIN ATOM
M  V30 1 Cl 3.2326 -2.3811 -0.7649 0
M  V30 2 C 2.7506 -0.7228 -0.4345 0
M  V30 3 O 3.6524 0.156 -0.3915 0
M  V30 4 C 1.3321 -0.3487 -0.2103 0
M  V30 5 C 0.9856 0.9883 0.0512 0
M  V30 6 C 0.3112 -1.3141 -0.2539 0
M  V30 7 C -0.3472 1.3508 0.2637 0
M  V30 8 C -1.0222 -0.9515 -0.0414 0
M  V30 9 C -1.3684 0.3857 0.2201 0
M  V30 10 C -2.7804 0.7814 0.4471 0
M  V30 11 Cl -4.0916 -0.3891 0.4025 0
M  V30 12 O -3.0722 1.9847 0.6804 0
M  V30 13 H 1.7455 1.7586 0.0925 0
M  V30 14 H 0.5345 -2.3537 -0.452 0
M  V30 15 H -0.5769 2.3902 0.4625 0
M  V30 16 H -1.777 -1.725 -0.0836 0
M  V30 END ATOM
M  V30 BEGIN BOND
M  V30 1 1 1 2
M  V30 2 2 2 3
M  V30 3 1 2 4
M  V30 4 2 4 5
M  V30 5 1 4 6
M  V30 6 1 5 7
M  V30 7 2 6 8
M  V30 8 2 7 9
M  V30 9 1 9 10
M  V30 10 1 10 11
M  V30 11 2 10 12
M  V30 12 1 8 9
M  V30 13 1 5 13
M  V30 14 1 6 14
M  V30 15 1 7 15
M  V30 16 1 8 16
M  V30 END BOND
M  V30 END CTAB
M  END
>  <Structure No>
774

>  <LogS>
-4.028793779

>  <MMFF94 Energy>
68.636

$$$$
Compound 775
Actelion Java MolfileCreator 2.0

  0  0  0  0  0  0              0 V3000
M  V30 BEGIN CTAB
M  V30 COUNTS 26 26 0 0 0
M  V30 BEGIN ATOM
M  V30 1 O 1.0257 0.2366 -1.4994 0
M  V30 2 C 1.5518 -0.3279 -0.5008 0
M  V30 3 O 0.7883 -1.177 0.3119 0
M  V30 4 C 2.982 -0.0992 -0.1985 0
M  V30 5 C -0.6124 -1.3898 0.1406 0
M  V30 6 C 3.5761 -0.7497 0.8079 0
M  V30 7 C 3.7909 0.8169 -1.0764 0
M  V30 8 C -1.4209 -0.2944 0.854 0 CFG=1
M  V30 9 O -1.1198 0.9661 0.2932 0
M  V30 10 C -2.9212 -0.5421 0.7412 0
M  V30 11 C -2.2943 1.4728 -0.2985 0
M  V30 12 C -3.3372 0.3783 -0.3617 0
M  V30 13 H -0.8649 -2.3733 0.5915 0
M  V30 14 H -0.8722 -1.4369 -0.94 0
M  V30 15 H 3.027 -1.4342 1.4418 0
M  V30 16 H 4.6297 -0.6105 1.0166 0
M  V30 17 H 3.2009 1.7223 -1.332 0
M  V30 18 H 4.0631 0.2858 -2.0123 0
M  V30 19 H 4.7214 1.1534 -0.5701 0
M  V30 20 H -1.1311 -0.2883 1.9279 0
M  V30 21 H -3.1831 -1.5991 0.5137 0
M  V30 22 H -3.4233 -0.2396 1.6874 0
M  V30 23 H -2.0667 1.8502 -1.3182 0
M  V30 24 H -2.6703 2.3187 0.3171 0
M  V30 25 H -4.3645 0.7744 -0.2067 0
M  V30 26 H -3.2766 -0.1486 -1.3397 0
M  V30 END ATOM
M  V30 BEGIN BOND
M  V30 1 2 1 2
M  V30 2 1 2 3
M  V30 3 1 2 4
M  V30 4 1 3 5
M  V30 5 2 4 6
M  V30 6 1 4 7
M  V30 7 1 5 8
M  V30 8 1 8 9
M  V30 9 1 8 10
M  V30 10 1 9 11
M  V30 11 1 10 12
M  V30 12 1 11 12
M  V30 13 1 5 13
M  V30 14 1 5 14
M  V30 15 1 6 15
M  V30 16 1 6 16
M  V30 17 1 7 17
M  V30 18 1 7 18
M  V30 19 1 7 19
M  V30 20 1 8 20
M  V30 21 1 10 21
M  V30 22 1 10 22
M  V30 23 1 11 23
M  V30 24 1 11 24
M  V30 25 1 12 25
M  V30 26 1 12 26
M  V30 END BOND
M  V30 BEGIN COLLECTION
M  V30 MDLV30/STEABS ATOMS=(1 8)
M  V30 END COLLECTION
M  V30 END CTAB
M  END
>  <Structure No>
775

>  <LogS>
-0.952455004

>  <MMFF94 Energy>
22.864

$$$$
Compound 776
Actelion Java MolfileCreator 2.0

  0  0  0  0  0  0              0 V3000
M  V30 BEGIN CTAB
M  V30 COUNTS 44 47 0 0 0
M  V30 BEGIN ATOM
M  V30 1 O 5.8628 -0.7314 1.0566 0
M  V30 2 C 4.695 -0.6167 0.5989 0
M  V30 3 C 3.7713 0.3603 1.1907 0
M  V30 4 C 4.2788 -1.4167 -0.5933 0
M  V30 5 C 2.4969 0.4714 0.7753 0
M  V30 6 C 2.7734 -1.6796 -0.5544 0
M  V30 7 C 1.9655 -0.3656 -0.392 0 CFG=1
M  V30 8 C 1.6721 1.6287 1.2896 0
M  V30 9 C 0.4462 -0.661 -0.2089 0 CFG=1
M  V30 10 C 0.193 1.2632 1.4139 0
M  V30 11 C -0.3289 0.6614 0.0999 0 CFG=2
M  V30 12 C -0.1565 -1.4395 -1.426 0
M  V30 13 C -1.8266 0.3232 0.192 0 CFG=2
M  V30 14 C -1.7013 -1.5806 -1.3902 0
M  V30 15 C -2.3676 -0.2158 -1.138 0 CFG=1
M  V30 16 C -2.8418 1.3761 0.6418 0
M  V30 17 C -3.8264 -0.2377 -0.8229 0
M  V30 18 C -2.1818 0.7289 -2.3581 0
M  V30 19 C -4.1921 0.7606 0.2335 0
M  V30 20 O -4.6418 -0.9402 -1.4002 0
M  V30 21 H 4.1491 1.01 1.9721 0
M  V30 22 H 4.5381 -0.8529 -1.5153 0
M  V30 23 H 4.8215 -2.3867 -0.6078 0
M  V30 24 H 2.5 -2.1855 -1.5039 0
M  V30 25 H 2.5462 -2.371 0.2876 0
M  V30 26 H 2.0972 0.2376 -1.318 0
M  V30 27 H 2.0305 1.9631 2.2884 0
M  V30 28 H 1.7835 2.4827 0.5867 0
M  V30 29 H 0.3394 -1.3306 0.6761 0
M  V30 30 H 0.056 0.543 2.2512 0
M  V30 31 H -0.3735 2.1871 1.6602 0
M  V30 32 H -0.156 1.4083 -0.7038 0
M  V30 33 H 0.2564 -2.4698 -1.444 0
M  V30 34 H 0.155 -0.9557 -2.3752 0
M  V30 35 H -1.9103 -0.4849 0.9627 0
M  V30 36 H -1.9824 -2.2972 -0.5864 0
M  V30 37 H -2.0561 -2.0081 -2.3531 0
M  V30 38 H -2.7971 1.5443 1.7399 0
M  V30 39 H -2.6699 2.3386 0.1132 0
M  V30 40 H -2.7 0.3032 -3.2445 0
M  V30 41 H -1.121 0.8712 -2.6384 0
M  V30 42 H -2.6149 1.7333 -2.1658 0
M  V30 43 H -4.6608 0.2383 1.0953 0
M  V30 44 H -4.879 1.5339 -0.1715 0
M  V30 END ATOM
M  V30 BEGIN BOND
M  V30 1 2 1 2
M  V30 2 1 2 3
M  V30 3 1 2 4
M  V30 4 2 3 5
M  V30 5 1 4 6
M  V30 6 1 5 7
M  V30 7 1 5 8
M  V30 8 1 7 9
M  V30 9 1 8 10
M  V30 10 1 9 11
M  V30 11 1 9 12
M  V30 12 1 11 13
M  V30 13 1 12 14
M  V30 14 1 13 15
M  V30 15 1 13 16
M  V30 16 1 15 17
M  V30 17 1 15 18
M  V30 18 1 16 19
M  V30 19 2 17 20
M  V30 20 1 6 7
M  V30 21 1 10 11
M  V30 22 1 14 15
M  V30 23 1 17 19
M  V30 24 1 3 21
M  V30 25 1 4 22
M  V30 26 1 4 23
M  V30 27 1 6 24
M  V30 28 1 6 25
M  V30 29 1 7 26
M  V30 30 1 8 27
M  V30 31 1 8 28
M  V30 32 1 9 29
M  V30 33 1 10 30
M  V30 34 1 10 31
M  V30 35 1 11 32
M  V30 36 1 12 33
M  V30 37 1 12 34
M  V30 38 1 13 35
M  V30 39 1 14 36
M  V30 40 1 14 37
M  V30 41 1 16 38
M  V30 42 1 16 39
M  V30 43 1 18 40
M  V30 44 1 18 41
M  V30 45 1 18 42
M  V30 46 1 19 43
M  V30 47 1 19 44
M  V30 END BOND
M  V30 BEGIN COLLECTION
M  V30 MDLV30/STEABS ATOMS=(5 7 9 11 13 15)
M  V30 END COLLECTION
M  V30 END CTAB
M  END
>  <Structure No>
776

>  <LogS>
-3.156500662

>  <MMFF94 Energy>
54.616

$$$$
Compound 777
Actelion Java MolfileCreator 2.0

  0  0  0  0  0  0              0 V3000
M  V30 BEGIN CTAB
M  V30 COUNTS 25 25 0 0 0
M  V30 BEGIN ATOM
M  V30 1 O -0.9438 -0.6291 1.7309 0
M  V30 2 C -1.4335 -0.687 0.5693 0
M  V30 3 O -0.6894 -1.2419 -0.4802 0
M  V30 4 C -2.7965 -0.168 0.3204 0
M  V30 5 C 0.6491 -1.7104 -0.3312 0
M  V30 6 C -3.2971 -0.142 -0.9196 0
M  V30 7 C -3.5932 0.4091 1.459 0
M  V30 8 C 1.5951 -0.5518 -0.171 0
M  V30 9 C 2.25 -0.3245 1.0511 0
M  V30 10 C 1.8094 0.3306 -1.242 0
M  V30 11 C 3.113 0.7665 1.1945 0
M  V30 12 C 2.6732 1.4205 -1.0946 0
M  V30 13 C 3.325 1.638 0.1225 0
M  V30 14 H 0.929 -2.2797 -1.2425 0
M  V30 15 H 0.7114 -2.4136 0.5283 0
M  V30 16 H -2.737 -0.523 -1.764 0
M  V30 17 H -4.281 0.2663 -1.1148 0
M  V30 18 H -3.467 -0.213 2.3702 0
M  V30 19 H -4.6787 0.4433 1.2227 0
M  V30 20 H -3.2391 1.4393 1.6722 0
M  V30 21 H 2.0918 -0.9882 1.8922 0
M  V30 22 H 1.306 0.1748 -2.1883 0
M  V30 23 H 3.6161 0.9377 2.1375 0
M  V30 24 H 2.8358 2.0974 -1.9232 0
M  V30 25 H 3.9926 2.4823 0.2354 0
M  V30 END ATOM
M  V30 BEGIN BOND
M  V30 1 2 1 2
M  V30 2 1 2 3
M  V30 3 1 2 4
M  V30 4 1 3 5
M  V30 5 2 4 6
M  V30 6 1 4 7
M  V30 7 1 5 8
M  V30 8 2 8 9
M  V30 9 1 8 10
M  V30 10 1 9 11
M  V30 11 2 10 12
M  V30 12 2 11 13
M  V30 13 1 12 13
M  V30 14 1 5 14
M  V30 15 1 5 15
M  V30 16 1 6 16
M  V30 17 1 6 17
M  V30 18 1 7 18
M  V30 19 1 7 19
M  V30 20 1 7 20
M  V30 21 1 9 21
M  V30 22 1 10 22
M  V30 23 1 11 23
M  V30 24 1 12 24
M  V30 25 1 13 25
M  V30 END BOND
M  V30 END CTAB
M  END
>  <Structure No>
777

>  <LogS>
-2.968204541

>  <MMFF94 Energy>
20.164

$$$$
Compound 778
Actelion Java MolfileCreator 2.0

  0  0  0  0  0  0              0 V3000
M  V30 BEGIN CTAB
M  V30 COUNTS 18 17 0 0 0
M  V30 BEGIN ATOM
M  V30 1 O -0.3872 0.2323 -1.5495 0
M  V30 2 C -0.0708 0.3736 -0.3355 0
M  V30 3 O -0.9902 0.8871 0.5848 0
M  V30 4 O 1.2071 0.0259 0.1081 0
M  V30 5 C -2.3325 1.2316 0.2462 0
M  V30 6 C 2.204 -0.5025 -0.7604 0
M  V30 7 C -3.1894 -0.0205 0.0994 0
M  V30 8 C 3.4745 -0.7763 0.0284 0
M  V30 9 H -2.3552 1.8277 -0.6919 0
M  V30 10 H -2.753 1.8573 1.0616 0
M  V30 11 H 2.424 0.2285 -1.5685 0
M  V30 12 H 1.8422 -1.4507 -1.2143 0
M  V30 13 H -3.1579 -0.6132 1.038 0
M  V30 14 H -2.8205 -0.6466 -0.7393 0
M  V30 15 H -4.2411 0.2692 -0.108 0
M  V30 16 H 3.8506 0.1657 0.4808 0
M  V30 17 H 3.2693 -1.512 0.8347 0
M  V30 18 H 4.2537 -1.1886 -0.6467 0
M  V30 END ATOM
M  V30 BEGIN BOND
M  V30 1 2 1 2
M  V30 2 1 2 3
M  V30 3 1 2 4
M  V30 4 1 3 5
M  V30 5 1 4 6
M  V30 6 1 5 7
M  V30 7 1 6 8
M  V30 8 1 5 9
M  V30 9 1 5 10
M  V30 10 1 6 11
M  V30 11 1 6 12
M  V30 12 1 7 13
M  V30 13 1 7 14
M  V30 14 1 7 15
M  V30 15 1 8 16
M  V30 16 1 8 17
M  V30 17 1 8 18
M  V30 END BOND
M  V30 END CTAB
M  END
>  <Structure No>
778

>  <LogS>
-0.798209708

>  <MMFF94 Energy>
-35.188

$$$$
Compound 779
Actelion Java MolfileCreator 2.0

  0  0  0  0  0  0              0 V3000
M  V30 BEGIN CTAB
M  V30 COUNTS 32 32 0 0 0
M  V30 BEGIN ATOM
M  V30 1 O 0.9447 0.4722 2.2054 0
M  V30 2 C 0.84 0.2726 0.9649 0
M  V30 3 C -0.3394 -0.4544 0.4458 0
M  V30 4 C 1.8747 0.7553 0.0316 0
M  V30 5 C -0.2261 -1.7552 0.0704 0
M  V30 6 C -1.6347 0.3203 0.1579 0
M  V30 7 C 2.9581 1.4179 0.4459 0
M  V30 8 C -1.3724 -2.4483 -0.5625 0
M  V30 9 C 1.0659 -2.5171 0.2214 0
M  V30 10 C -2.8524 -0.6432 0.2079 0
M  V30 11 C -1.8652 1.4371 1.2007 0
M  V30 12 C -1.5324 0.9626 -1.2415 0
M  V30 13 C 3.9864 1.8914 -0.5298 0
M  V30 14 C -2.5914 -1.9093 -0.553 0
M  V30 15 H 1.7432 0.5606 -1.0267 0
M  V30 16 H 3.1101 1.6237 1.4988 0
M  V30 17 H -1.2213 -3.3999 -1.0568 0
M  V30 18 H 1.8011 -2.1607 -0.53 0
M  V30 19 H 0.9074 -3.6058 0.0701 0
M  V30 20 H 1.482 -2.3774 1.2417 0
M  V30 21 H -3.0624 -0.928 1.2626 0
M  V30 22 H -3.7657 -0.1513 -0.193 0
M  V30 23 H -2.8412 1.9395 1.025 0
M  V30 24 H -1.8703 1.0157 2.2291 0
M  V30 25 H -1.071 2.2123 1.1412 0
M  V30 26 H -1.3637 0.1898 -2.0217 0
M  V30 27 H -2.466 1.5119 -1.4909 0
M  V30 28 H -0.6869 1.6827 -1.2813 0
M  V30 29 H 3.5254 2.5951 -1.2549 0
M  V30 30 H 4.8023 2.416 0.01 0
M  V30 31 H 4.4167 1.0259 -1.0768 0
M  V30 32 H -3.4112 -2.4192 -1.0431 0
M  V30 END ATOM
M  V30 BEGIN BOND
M  V30 1 2 1 2
M  V30 2 1 2 3
M  V30 3 1 2 4
M  V30 4 2 3 5
M  V30 5 1 3 6
M  V30 6 2 4 7
M  V30 7 1 5 8
M  V30 8 1 5 9
M  V30 9 1 6 10
M  V30 10 1 6 11
M  V30 11 1 6 12
M  V30 12 1 7 13
M  V30 13 2 8 14
M  V30 14 1 10 14
M  V30 15 1 4 15
M  V30 16 1 7 16
M  V30 17 1 8 17
M  V30 18 1 9 18
M  V30 19 1 9 19
M  V30 20 1 9 20
M  V30 21 1 10 21
M  V30 22 1 10 22
M  V30 23 1 11 23
M  V30 24 1 11 24
M  V30 25 1 11 25
M  V30 26 1 12 26
M  V30 27 1 12 27
M  V30 28 1 12 28
M  V30 29 1 13 29
M  V30 30 1 13 30
M  V30 31 1 13 31
M  V30 32 1 14 32
M  V30 END BOND
M  V30 END CTAB
M  END
>  <Structure No>
779

>  <LogS>
-3.005248988

>  <MMFF94 Energy>
46.397

$$$$
Compound 780
Actelion Java MolfileCreator 2.0

  0  0  0  0  0  0              0 V3000
M  V30 BEGIN CTAB
M  V30 COUNTS 14 14 0 0 0
M  V30 BEGIN ATOM
M  V30 1 Cl -1.0311 2.7515 -0.1718 0
M  V30 2 C -0.1997 1.2019 -0.08 0
M  V30 3 C -0.8887 -0.0225 0.1038 0
M  V30 4 C 1.1909 1.2021 -0.2491 0
M  V30 5 N -2.3154 -0.0747 0.2945 0 CHG=1
M  V30 6 C -0.1537 -1.2222 0.0914 0
M  V30 7 C 1.906 0.0023 -0.245 0
M  V30 8 O -2.9234 0.8626 0.8506 0
M  V30 9 O -3.0083 -1.2268 6.0E-4 0 CHG=-1
M  V30 10 C 1.2324 -1.2086 -0.0781 0
M  V30 11 Cl 3.647 0.0163 -0.4595 0
M  V30 12 H 1.7168 2.1379 -0.3939 0
M  V30 13 H -0.6523 -2.1731 0.2289 0
M  V30 14 H 1.7821 -2.1412 -0.0776 0
M  V30 END ATOM
M  V30 BEGIN BOND
M  V30 1 1 1 2
M  V30 2 2 2 3
M  V30 3 1 2 4
M  V30 4 1 3 5
M  V30 5 1 3 6
M  V30 6 2 4 7
M  V30 7 2 5 8
M  V30 8 1 5 9
M  V30 9 2 6 10
M  V30 10 1 7 11
M  V30 11 1 7 10
M  V30 12 1 4 12
M  V30 13 1 6 13
M  V30 14 1 10 14
M  V30 END BOND
M  V30 END CTAB
M  END
>  <Structure No>
780

>  <LogS>
-3.009145641

>  <MMFF94 Energy>
31.295

$$$$
Compound 781
Actelion Java MolfileCreator 2.0

  0  0  0  0  0  0              0 V3000
M  V30 BEGIN CTAB
M  V30 COUNTS 25 25 0 0 0
M  V30 BEGIN ATOM
M  V30 1 O 2.3672 -0.7886 -1.9724 0
M  V30 2 C 1.6243 -0.5215 -0.9896 0
M  V30 3 C 2.2206 -0.1929 0.3294 0
M  V30 4 C 0.1312 -0.5836 -1.1616 0
M  V30 5 C 1.4268 0.1286 1.3654 0
M  V30 6 C 3.7145 -0.0971 0.4733 0
M  V30 7 C -0.5696 0.3374 -0.1453 0 CFG=2
M  V30 8 C -0.0736 0.0337 1.2815 0
M  V30 9 C -2.0859 0.2353 -0.2472 0
M  V30 10 C -2.7271 -0.9202 -0.0019 0
M  V30 11 C -2.9007 1.4444 -0.6286 0
M  V30 12 H -0.1388 -0.2673 -2.1929 0
M  V30 13 H -0.1886 -1.6382 -1.0237 0
M  V30 14 H 1.8632 0.4203 2.3136 0
M  V30 15 H 4.2114 -0.8927 -0.1205 0
M  V30 16 H 4.0274 -0.2225 1.5324 0
M  V30 17 H 4.0575 0.8941 0.1104 0
M  V30 18 H -0.2633 1.3813 -0.3829 0
M  V30 19 H -0.3723 -0.9909 1.5891 0
M  V30 20 H -0.5241 0.7562 1.9961 0
M  V30 21 H -3.809 -0.9813 -0.0774 0
M  V30 22 H -2.1876 -1.8191 0.2763 0
M  V30 23 H -3.6152 1.6876 0.1862 0
M  V30 24 H -3.4691 1.2351 -1.5595 0
M  V30 25 H -2.261 2.3337 -0.8057 0
M  V30 END ATOM
M  V30 BEGIN BOND
M  V30 1 2 1 2
M  V30 2 1 2 3
M  V30 3 1 2 4
M  V30 4 2 3 5
M  V30 5 1 3 6
M  V30 6 1 4 7
M  V30 7 1 5 8
M  V30 8 1 7 9
M  V30 9 2 9 10
M  V30 10 1 9 11
M  V30 11 1 7 8
M  V30 12 1 4 12
M  V30 13 1 4 13
M  V30 14 1 5 14
M  V30 15 1 6 15
M  V30 16 1 6 16
M  V30 17 1 6 17
M  V30 18 1 7 18
M  V30 19 1 8 19
M  V30 20 1 8 20
M  V30 21 1 10 21
M  V30 22 1 10 22
M  V30 23 1 11 23
M  V30 24 1 11 24
M  V30 25 1 11 25
M  V30 END BOND
M  V30 BEGIN COLLECTION
M  V30 MDLV30/STEABS ATOMS=(1 7)
M  V30 END COLLECTION
M  V30 END CTAB
M  END
>  <Structure No>
781

>  <LogS>
-1.90265366

>  <MMFF94 Energy>
27.846

$$$$
Compound 782
Actelion Java MolfileCreator 2.0

  0  0  0  0  0  0              0 V3000
M  V30 BEGIN CTAB
M  V30 COUNTS 48 51 0 0 0
M  V30 BEGIN ATOM
M  V30 1 O 4.9608 0.2435 1.8683 0
M  V30 2 C 3.9723 0.1389 1.0948 0
M  V30 3 C 3.2504 -1.1342 1.0019 0
M  V30 4 C 3.4816 1.3325 0.3452 0
M  V30 5 C 2.2394 -1.3176 0.134 0
M  V30 6 C 2.891 0.8928 -0.9948 0
M  V30 7 C 1.8186 -0.2511 -0.8893 0 CFG=2
M  V30 8 C 1.3622 -2.5461 0.2824 0
M  V30 9 C 0.3242 0.2266 -0.5706 0 CFG=1
M  V30 10 C 1.8228 -0.931 -2.2888 0
M  V30 11 C -0.135 -2.201 0.1326 0
M  V30 12 C -0.408 -0.7136 0.4374 0 CFG=2
M  V30 13 C 0.1408 1.6725 -0.0557 0
M  V30 14 C -1.9224 -0.3968 0.5837 0 CFG=1
M  V30 15 C -1.3462 2.0503 -0.0533 0
M  V30 16 C -2.2242 1.1076 0.8177 0 CFG=1
M  V30 17 C -2.8319 -0.8279 -0.5865 0 CFG=1
M  V30 18 C -3.6393 1.209 0.3384 0
M  V30 19 C -2.1247 1.4738 2.3133 0
M  V30 20 O -3.1545 -2.1908 -0.4909 0
M  V30 21 C -4.0904 0.0362 -0.4557 0
M  V30 22 O -4.3525 2.18 0.5433 0
M  V30 23 H 3.5136 -1.9173 1.7033 0
M  V30 24 H 2.7395 1.8712 0.9616 0
M  V30 25 H 4.3275 2.0288 0.1565 0
M  V30 26 H 3.7586 0.5314 -1.594 0
M  V30 27 H 2.5121 1.7658 -1.5621 0
M  V30 28 H 1.654 -3.3021 -0.4772 0
M  V30 29 H 1.5102 -3.0113 1.2826 0
M  V30 30 H -0.2377 0.1881 -1.5289 0
M  V30 31 H 2.8039 -1.4123 -2.495 0
M  V30 32 H 1.6309 -0.1795 -3.0855 0
M  V30 33 H 1.0447 -1.7131 -2.3833 0
M  V30 34 H -0.7198 -2.8398 0.8303 0
M  V30 35 H -0.4802 -2.4446 -0.8935 0
M  V30 36 H 0.0308 -0.5256 1.4453 0
M  V30 37 H 0.5408 1.7796 0.9726 0
M  V30 38 H 0.6478 2.4042 -0.7128 0
M  V30 39 H -2.2796 -0.9631 1.4769 0
M  V30 40 H -1.7014 2.0375 -1.1093 0
M  V30 41 H -1.4526 3.1006 0.2973 0
M  V30 42 H -2.3381 -0.6146 -1.561 0
M  V30 43 H -1.0961 1.2999 2.6919 0
M  V30 44 H -2.3803 2.5433 2.4726 0
M  V30 45 H -2.8271 0.8595 2.9174 0
M  V30 46 H -3.5789 -2.4409 -1.3526 0
M  V30 47 H -4.4582 0.3539 -1.4551 0
M  V30 48 H -4.8943 -0.4953 0.0984 0
M  V30 END ATOM
M  V30 BEGIN BOND
M  V30 1 2 1 2
M  V30 2 1 2 3
M  V30 3 1 2 4
M  V30 4 2 3 5
M  V30 5 1 4 6
M  V30 6 1 5 7
M  V30 7 1 5 8
M  V30 8 1 7 9
M  V30 9 1 7 10
M  V30 10 1 8 11
M  V30 11 1 9 12
M  V30 12 1 9 13
M  V30 13 1 12 14
M  V30 14 1 13 15
M  V30 15 1 14 16
M  V30 16 1 14 17
M  V30 17 1 16 18
M  V30 18 1 16 19
M  V30 19 1 17 20
M  V30 20 1 17 21
M  V30 21 2 18 22
M  V30 22 1 6 7
M  V30 23 1 11 12
M  V30 24 1 15 16
M  V30 25 1 18 21
M  V30 26 1 3 23
M  V30 27 1 4 24
M  V30 28 1 4 25
M  V30 29 1 6 26
M  V30 30 1 6 27
M  V30 31 1 8 28
M  V30 32 1 8 29
M  V30 33 1 9 30
M  V30 34 1 10 31
M  V30 35 1 10 32
M  V30 36 1 10 33
M  V30 37 1 11 34
M  V30 38 1 11 35
M  V30 39 1 12 36
M  V30 40 1 13 37
M  V30 41 1 13 38
M  V30 42 1 14 39
M  V30 43 1 15 40
M  V30 44 1 15 41
M  V30 45 1 17 42
M  V30 46 1 19 43
M  V30 47 1 19 44
M  V30 48 1 19 45
M  V30 49 1 20 46
M  V30 50 1 21 47
M  V30 51 1 21 48
M  V30 END BOND
M  V30 BEGIN COLLECTION
M  V30 MDLV30/STEABS ATOMS=(6 7 9 12 14 16 17)
M  V30 END COLLECTION
M  V30 END CTAB
M  END
>  <Structure No>
782

>  <LogS>
-2.213096942

>  <MMFF94 Energy>
70.263

$$$$
Compound 783
Actelion Java MolfileCreator 2.0

  0  0  0  0  0  0              0 V3000
M  V30 BEGIN CTAB
M  V30 COUNTS 22 22 0 0 0
M  V30 BEGIN ATOM
M  V30 1 Cl 0.8008 3.2866 0.4804 0
M  V30 2 C 0.4101 1.5898 0.242 0
M  V30 3 C 1.3827 0.6023 0.4485 0
M  V30 4 C -0.8826 1.2371 -0.156 0
M  V30 5 O 2.67 0.9958 0.8482 0
M  V30 6 C 1.0408 -0.748 0.2499 0
M  V30 7 C -1.2277 -0.1127 -0.3556 0
M  V30 8 C 3.7488 0.0993 1.0922 0
M  V30 9 C -0.2545 -1.1078 -0.1495 0
M  V30 10 O -2.5184 -0.4962 -0.7554 0
M  V30 11 N -0.5736 -2.4909 -0.3439 0
M  V30 12 C -3.592 0.4073 -0.9972 0
M  V30 13 H -1.6109 2.0223 -0.3073 0
M  V30 14 H 1.7749 -1.5273 0.4033 0
M  V30 15 H 4.6432 0.6823 1.3929 0
M  V30 16 H 3.4865 -0.5987 1.915 0
M  V30 17 H 3.9889 -0.469 0.1691 0
M  V30 18 H 0.1474 -3.2307 -0.1914 0
M  V30 19 H -1.5275 -2.7939 -0.6409 0
M  V30 20 H -4.4901 -0.1695 -1.2985 0
M  V30 21 H -3.3261 1.1053 -1.819 0
M  V30 22 H -3.8287 0.9757 -0.0729 0
M  V30 END ATOM
M  V30 BEGIN BOND
M  V30 1 1 1 2
M  V30 2 2 2 3
M  V30 3 1 2 4
M  V30 4 1 3 5
M  V30 5 1 3 6
M  V30 6 2 4 7
M  V30 7 1 5 8
M  V30 8 2 6 9
M  V30 9 1 7 10
M  V30 10 1 9 11
M  V30 11 1 10 12
M  V30 12 1 7 9
M  V30 13 1 4 13
M  V30 14 1 6 14
M  V30 15 1 8 15
M  V30 16 1 8 16
M  V30 17 1 8 17
M  V30 18 1 11 18
M  V30 19 1 11 19
M  V30 20 1 12 20
M  V30 21 1 12 21
M  V30 22 1 12 22
M  V30 END BOND
M  V30 END CTAB
M  END
>  <Structure No>
783

>  <LogS>
-3.006121292

>  <MMFF94 Energy>
42.304

$$$$
Compound 784
Actelion Java MolfileCreator 2.0

  0  0  0  0  0  0              0 V3000
M  V30 BEGIN CTAB
M  V30 COUNTS 29 28 0 0 0
M  V30 BEGIN ATOM
M  V30 1 O 1.3984 -0.3882 -1.8649 0
M  V30 2 C 1.5495 0.2486 -0.7865 0
M  V30 3 O 0.4675 0.4681 0.0705 0
M  V30 4 C 2.9084 0.7335 -0.3936 0
M  V30 5 C -0.8488 0.0109 -0.2217 0
M  V30 6 C 3.6104 -0.3026 0.4877 0
M  V30 7 C -1.7876 0.4149 0.9207 0
M  V30 8 C 4.9971 0.1779 0.9049 0
M  V30 9 C -3.2593 -0.0233 0.7334 0
M  V30 10 C -3.9145 0.6291 -0.4913 0
M  V30 11 C -3.4161 -1.5494 0.6905 0
M  V30 12 H 3.5125 0.9256 -1.3073 0
M  V30 13 H 2.8033 1.6912 0.1609 0
M  V30 14 H -0.8306 -1.0939 -0.3298 0
M  V30 15 H -1.1862 0.4693 -1.1752 0
M  V30 16 H 3.7134 -1.2598 -0.0688 0
M  V30 17 H 3.0045 -0.4899 1.4015 0
M  V30 18 H -1.4011 -0.0193 1.8688 0
M  V30 19 H -1.7537 1.5207 1.0347 0
M  V30 20 H 5.6318 0.3488 0.0094 0
M  V30 21 H 4.9197 1.1218 1.4856 0
M  V30 22 H 5.4812 -0.5919 1.5417 0
M  V30 23 H -3.8141 0.3354 1.6289 0
M  V30 24 H -3.4946 0.2229 -1.4353 0
M  V30 25 H -5.0076 0.4307 -0.4843 0
M  V30 26 H -3.7631 1.7293 -0.4697 0
M  V30 27 H -2.9063 -2.0143 1.5609 0
M  V30 28 H -4.4929 -1.8188 0.7364 0
M  V30 29 H -2.9931 -1.9701 -0.2456 0
M  V30 END ATOM
M  V30 BEGIN BOND
M  V30 1 2 1 2
M  V30 2 1 2 3
M  V30 3 1 2 4
M  V30 4 1 3 5
M  V30 5 1 4 6
M  V30 6 1 5 7
M  V30 7 1 6 8
M  V30 8 1 7 9
M  V30 9 1 9 10
M  V30 10 1 9 11
M  V30 11 1 4 12
M  V30 12 1 4 13
M  V30 13 1 5 14
M  V30 14 1 5 15
M  V30 15 1 6 16
M  V30 16 1 6 17
M  V30 17 1 7 18
M  V30 18 1 7 19
M  V30 19 1 8 20
M  V30 20 1 8 21
M  V30 21 1 8 22
M  V30 22 1 9 23
M  V30 23 1 10 24
M  V30 24 1 10 25
M  V30 25 1 10 26
M  V30 26 1 11 27
M  V30 27 1 11 28
M  V30 28 1 11 29
M  V30 END BOND
M  V30 END CTAB
M  END
>  <Structure No>
784

>  <LogS>
-2.932852123

>  <MMFF94 Energy>
-7.2816

$$$$
Compound 785
Actelion Java MolfileCreator 2.0

  0  0  0  0  0  0              0 V3000
M  V30 BEGIN CTAB
M  V30 COUNTS 33 33 0 0 0
M  V30 BEGIN ATOM
M  V30 1 S 4.4591 0.6476 -0.8906 0
M  V30 2 O 4.5624 -0.073 -2.2052 0
M  V30 3 O 5.4704 0.0863 0.0687 0
M  V30 4 O 4.7689 2.2811 -1.1287 0 CHG=-1
M  V30 5 C 2.8158 0.4543 -0.2215 0
M  V30 6 C 2.483 -1.0264 -0.0107 0
M  V30 7 C 1.1115 -1.2328 0.6597 0
M  V30 8 N -0.0211 -0.8189 -0.204 0 CHG=1
M  V30 9 C -0.6423 0.4579 0.2335 0
M  V30 10 C -1.3938 1.1502 -0.9269 0
M  V30 11 C -1.5907 0.2682 1.4476 0
M  V30 12 C -2.6844 0.4111 -1.2988 0
M  V30 13 C -2.9169 -0.4163 1.0771 0
M  V30 14 C -3.6129 0.2974 -0.0861 0
M  V30 15 H 2.761 0.9977 0.7459 0
M  V30 16 H 2.0968 0.9123 -0.9325 0
M  V30 17 H 2.5079 -1.5628 -0.9843 0
M  V30 18 H 3.2586 -1.4805 0.6438 0
M  V30 19 H 1.0165 -2.3178 0.8905 0
M  V30 20 H 1.1064 -0.7112 1.6425 0
M  V30 21 H 0.3017 -0.7376 -1.1964 0
M  V30 22 H -0.7361 -1.5811 -0.2036 0
M  V30 23 H 0.1574 1.166 0.5468 0
M  V30 24 H -1.6485 2.191 -0.6262 0
M  V30 25 H -0.7375 1.2248 -1.8208 0
M  V30 26 H -1.8188 1.2676 1.88 0
M  V30 27 H -1.0919 -0.3212 2.2449 0
M  V30 28 H -3.2057 0.9715 -2.1045 0
M  V30 29 H -2.4457 -0.6014 -1.6902 0
M  V30 30 H -3.5893 -0.4022 1.9621 0
M  V30 31 H -2.7451 -1.4817 0.8154 0
M  V30 32 H -4.5233 -0.2713 -0.3732 0
M  V30 33 H -3.932 1.313 0.2368 0
M  V30 END ATOM
M  V30 BEGIN BOND
M  V30 1 2 1 2
M  V30 2 2 1 3
M  V30 3 1 1 4
M  V30 4 1 1 5
M  V30 5 1 5 6
M  V30 6 1 6 7
M  V30 7 1 7 8
M  V30 8 1 8 9
M  V30 9 1 9 10
M  V30 10 1 9 11
M  V30 11 1 10 12
M  V30 12 1 11 13
M  V30 13 1 12 14
M  V30 14 1 13 14
M  V30 15 1 5 15
M  V30 16 1 5 16
M  V30 17 1 6 17
M  V30 18 1 6 18
M  V30 19 1 7 19
M  V30 20 1 7 20
M  V30 21 1 8 21
M  V30 22 1 8 22
M  V30 23 1 9 23
M  V30 24 1 10 24
M  V30 25 1 10 25
M  V30 26 1 11 26
M  V30 27 1 11 27
M  V30 28 1 12 28
M  V30 29 1 12 29
M  V30 30 1 13 30
M  V30 31 1 13 31
M  V30 32 1 14 32
M  V30 33 1 14 33
M  V30 END BOND
M  V30 END CTAB
M  END
>  <Structure No>
785

>  <LogS>
-3.080206763

>  <MMFF94 Energy>
-70.589

$$$$
Compound 786
Actelion Java MolfileCreator 2.0

  0  0  0  0  0  0              0 V3000
M  V30 BEGIN CTAB
M  V30 COUNTS 33 33 0 0 0
M  V30 BEGIN ATOM
M  V30 1 O 0.0 -2.1985 -1.8056 0
M  V30 2 C 0.634 -1.4011 -1.0654 0
M  V30 3 C 0.2535 -1.2183 0.3565 0
M  V30 4 C 0.989 -0.4684 1.2027 0
M  V30 5 C -1.0557 -1.796 0.8531 0
M  V30 6 C 2.306 0.1245 0.8877 0
M  V30 7 C -2.1841 -0.753 0.8712 0
M  V30 8 C 2.5466 1.4697 1.2075 0
M  V30 9 C 3.3525 -0.6557 0.364 0
M  V30 10 C -2.593 -0.3069 -0.5398 0
M  V30 11 C 3.7993 2.0402 0.9601 0
M  V30 12 C 4.6037 -0.0817 0.1183 0
M  V30 13 C -3.7849 0.6555 -0.4875 0
M  V30 14 C 4.8255 1.2664 0.4117 0
M  V30 15 C -4.1879 1.11 -1.8872 0
M  V30 16 H 1.4485 -0.8394 -1.5006 0
M  V30 17 H 0.5907 -0.2544 2.1883 0
M  V30 18 H -1.364 -2.6703 0.2405 0
M  V30 19 H -0.9151 -2.1829 1.8866 0
M  V30 20 H -3.0648 -1.2066 1.3766 0
M  V30 21 H -1.8703 0.1305 1.4695 0
M  V30 22 H 1.7615 2.0788 1.639 0
M  V30 23 H 3.204 -1.7083 0.1571 0
M  V30 24 H -2.8671 -1.1993 -1.1445 0
M  V30 25 H -1.7368 0.2053 -1.0295 0
M  V30 26 H 3.9753 3.0815 1.1974 0
M  V30 27 H 5.4036 -0.6843 -0.2918 0
M  V30 28 H -4.6534 0.1522 -0.0093 0
M  V30 29 H -3.5185 1.5493 0.1178 0
M  V30 30 H 5.7951 1.7088 0.2229 0
M  V30 31 H -4.4824 0.2362 -2.5068 0
M  V30 32 H -5.0522 1.8038 -1.8184 0
M  V30 33 H -3.3447 1.6408 -2.3784 0
M  V30 END ATOM
M  V30 BEGIN BOND
M  V30 1 2 1 2
M  V30 2 1 2 3
M  V30 3 2 3 4
M  V30 4 1 3 5
M  V30 5 1 4 6
M  V30 6 1 5 7
M  V30 7 2 6 8
M  V30 8 1 6 9
M  V30 9 1 7 10
M  V30 10 1 8 11
M  V30 11 2 9 12
M  V30 12 1 10 13
M  V30 13 2 11 14
M  V30 14 1 13 15
M  V30 15 1 12 14
M  V30 16 1 2 16
M  V30 17 1 4 17
M  V30 18 1 5 18
M  V30 19 1 5 19
M  V30 20 1 7 20
M  V30 21 1 7 21
M  V30 22 1 8 22
M  V30 23 1 9 23
M  V30 24 1 10 24
M  V30 25 1 10 25
M  V30 26 1 11 26
M  V30 27 1 12 27
M  V30 28 1 13 28
M  V30 29 1 13 29
M  V30 30 1 14 30
M  V30 31 1 15 31
M  V30 32 1 15 32
M  V30 33 1 15 33
M  V30 END BOND
M  V30 END CTAB
M  END
>  <Structure No>
786

>  <LogS>
-3.046658418

>  <MMFF94 Energy>
23.483

$$$$
Compound 787
Actelion Java MolfileCreator 2.0

  0  0  0  0  0  0              0 V3000
M  V30 BEGIN CTAB
M  V30 COUNTS 10 9 0 0 0
M  V30 BEGIN ATOM
M  V30 1 Cl 0.2668 -0.1779 2.3146 0
M  V30 2 C 0.7781 -0.1962 0.6043 0
M  V30 3 Cl 1.4689 -1.7993 0.2346 0
M  V30 4 Cl 2.0671 1.0175 0.383 0
M  V30 5 C -0.4126 0.1056 -0.3257 0
M  V30 6 O -1.4222 -0.8543 -0.1457 0
M  V30 7 O -0.9499 1.3691 -0.0285 0
M  V30 8 H -0.0614 0.0871 -1.3887 0
M  V30 9 H -1.2215 -1.6114 -0.7557 0
M  V30 10 H -0.4466 2.0371 -0.5634 0
M  V30 END ATOM
M  V30 BEGIN BOND
M  V30 1 1 1 2
M  V30 2 1 2 3
M  V30 3 1 2 4
M  V30 4 1 2 5
M  V30 5 1 5 6
M  V30 6 1 5 7
M  V30 7 1 5 8
M  V30 8 1 6 9
M  V30 9 1 7 10
M  V30 END BOND
M  V30 END CTAB
M  END
>  <Structure No>
787

>  <LogS>
1.037167298

>  <MMFF94 Energy>
54.921

$$$$
Compound 788
Actelion Java MolfileCreator 2.0

  0  0  0  0  0  0              0 V3000
M  V30 BEGIN CTAB
M  V30 COUNTS 44 46 0 0 0
M  V30 BEGIN ATOM
M  V30 1 S -5.4912 1.0964 1.1808 0
M  V30 2 O -5.0871 1.0798 2.6287 0
M  V30 3 O -6.6762 0.1911 0.9968 0
M  V30 4 O -5.9105 2.67 0.7678 0 CHG=-1
M  V30 5 C -4.1539 0.5395 0.1603 0
M  V30 6 C -4.2092 0.6264 -1.2486 0
M  V30 7 C -3.0213 -0.0173 0.772 0
M  V30 8 C -3.1101 0.1951 -2.0065 0
M  V30 9 C -5.3984 1.2151 -1.9622 0
M  V30 10 C -1.9283 -0.4691 0.0091 0
M  V30 11 C -1.967 -0.3371 -1.3958 0
M  V30 12 O -0.81 -1.063 0.6168 0
M  V30 13 N -0.8656 -0.7387 -2.2357 0
M  V30 14 C -0.6169 -1.1955 2.021 0
M  V30 15 N 0.4348 -0.9499 -1.7466 0
M  V30 16 C 1.2118 -0.0162 -1.2669 0
M  V30 17 C 0.8596 1.4286 -1.2969 0
M  V30 18 C 2.5075 -0.3949 -0.6468 0
M  V30 19 O -0.1357 1.8538 -1.9408 0
M  V30 20 C 1.7208 2.3957 -0.5985 0
M  V30 21 C 3.2986 0.5983 -0.0268 0
M  V30 22 C 2.951 -1.7302 -0.638 0
M  V30 23 C 2.8539 2.0103 -0.006 0
M  V30 24 C 4.5128 0.2457 0.5807 0
M  V30 25 C 4.1621 -2.0699 -0.031 0
M  V30 26 C 4.9501 -1.0845 0.5742 0
M  V30 27 S 6.4684 -1.5194 1.3519 0
M  V30 28 O 7.4417 -0.3792 1.2436 0
M  V30 29 O 7.0609 -2.7253 0.6786 0
M  V30 30 O 6.1877 -1.8643 2.9715 0 CHG=-1
M  V30 31 H -2.9981 -0.1057 1.8485 0
M  V30 32 H -3.133 0.2864 -3.0861 0
M  V30 33 H -5.3606 1.0103 -3.0534 0
M  V30 34 H -6.341 0.7743 -1.5781 0
M  V30 35 H -5.414 2.3151 -1.8172 0
M  V30 36 H -1.0641 -1.0113 -3.2244 0
M  V30 37 H -1.4114 -1.8365 2.4577 0
M  V30 38 H 0.3668 -1.6736 2.2059 0
M  V30 39 H -0.6206 -0.1947 2.5027 0
M  V30 40 H 1.4384 3.4412 -0.5773 0
M  V30 41 H 2.3622 -2.5143 -1.097 0
M  V30 42 H 3.4636 2.7562 0.4902 0
M  V30 43 H 5.1164 1.0063 1.0615 0
M  V30 44 H 4.4825 -3.104 -0.0307 0
M  V30 END ATOM
M  V30 BEGIN BOND
M  V30 1 2 1 2
M  V30 2 2 1 3
M  V30 3 1 1 4
M  V30 4 1 1 5
M  V30 5 2 5 6
M  V30 6 1 5 7
M  V30 7 1 6 8
M  V30 8 1 6 9
M  V30 9 2 7 10
M  V30 10 2 8 11
M  V30 11 1 10 12
M  V30 12 1 11 13
M  V30 13 1 12 14
M  V30 14 1 13 15
M  V30 15 2 15 16
M  V30 16 1 16 17
M  V30 17 1 16 18
M  V30 18 2 17 19
M  V30 19 1 17 20
M  V30 20 2 18 21
M  V30 21 1 18 22
M  V30 22 2 20 23
M  V30 23 1 21 24
M  V30 24 2 22 25
M  V30 25 2 24 26
M  V30 26 1 26 27
M  V30 27 2 27 28
M  V30 28 2 27 29
M  V30 29 1 27 30
M  V30 30 1 10 11
M  V30 31 1 21 23
M  V30 32 1 25 26
M  V30 33 1 7 31
M  V30 34 1 8 32
M  V30 35 1 9 33
M  V30 36 1 9 34
M  V30 37 1 9 35
M  V30 38 1 13 36
M  V30 39 1 14 37
M  V30 40 1 14 38
M  V30 41 1 14 39
M  V30 42 1 20 40
M  V30 43 1 22 41
M  V30 44 1 23 42
M  V30 45 1 24 43
M  V30 46 1 25 44
M  V30 END BOND
M  V30 END CTAB
M  END
>  <Structure No>
788

>  <LogS>
-0.440585514

>  <MMFF94 Energy>
193.64

$$$$
Compound 789
Actelion Java MolfileCreator 2.0

  0  0  0  0  0  0              0 V3000
M  V30 BEGIN CTAB
M  V30 COUNTS 17 17 0 0 0
M  V30 BEGIN ATOM
M  V30 1 O 3.5358 -0.2463 -0.9858 0
M  V30 2 C 2.5121 -0.9635 -0.828 0
M  V30 3 O 2.6017 -2.3283 -1.0769 0 CHG=-1
M  V30 4 C 1.2335 -0.3635 -0.385 0
M  V30 5 C 1.141 1.0159 -0.133 0
M  V30 6 C 0.0941 -1.169 -0.2106 0
M  V30 7 C -0.066 1.5819 0.2852 0
M  V30 8 C -1.1256 -0.6096 0.2098 0
M  V30 9 O -0.1327 2.9521 0.5287 0
M  V30 10 C -1.1955 0.7723 0.4561 0
M  V30 11 C -2.3183 -1.4674 0.3898 0
M  V30 12 O -3.4137 -0.9715 0.7665 0
M  V30 13 O -2.2472 -2.8341 0.1457 0 CHG=-1
M  V30 14 H 2.0039 1.6581 -0.2596 0
M  V30 15 H 0.1567 -2.2328 -0.4026 0
M  V30 16 H -0.9916 3.3955 0.833 0
M  V30 17 H -2.1243 1.2252 0.7809 0
M  V30 END ATOM
M  V30 BEGIN BOND
M  V30 1 2 1 2
M  V30 2 1 2 3
M  V30 3 1 2 4
M  V30 4 2 4 5
M  V30 5 1 4 6
M  V30 6 1 5 7
M  V30 7 2 6 8
M  V30 8 1 7 9
M  V30 9 2 7 10
M  V30 10 1 8 11
M  V30 11 2 11 12
M  V30 12 1 11 13
M  V30 13 1 8 10
M  V30 14 1 5 14
M  V30 15 1 6 15
M  V30 16 1 9 16
M  V30 17 1 10 17
M  V30 END BOND
M  V30 END CTAB
M  END
>  <Structure No>
789

>  <LogS>
-2.005111367

>  <MMFF94 Energy>
86.863

$$$$
Compound 790
Actelion Java MolfileCreator 2.0

  0  0  0  0  0  0              0 V3000
M  V30 BEGIN CTAB
M  V30 COUNTS 100 107 0 0 0
M  V30 BEGIN ATOM
M  V30 1 S 1.7264 -2.3847 -2.5493 0
M  V30 2 O 0.4541 -1.599 -2.6806 0
M  V30 3 O 1.6083 -3.6829 -3.2913 0
M  V30 4 O 2.9762 -1.4931 -3.2267 0 CHG=-1
M  V30 5 C 2.0719 -2.6976 -0.8365 0
M  V30 6 C 1.3455 -3.6567 -0.0918 0
M  V30 7 C 3.129 -2.0033 -0.2189 0
M  V30 8 C 1.7012 -3.9125 1.2376 0
M  V30 9 C 0.2938 -4.5026 -0.6901 0
M  V30 10 C 3.4674 -2.25 1.1236 0
M  V30 11 C 2.7314 -3.1996 1.8452 0
M  V30 12 C -0.9587 -4.1172 -0.9676 0
M  V30 13 N 4.5921 -1.6216 1.7685 0
M  V30 14 C -1.5495 -2.7701 -0.7293 0
M  V30 15 C 5.6157 -0.8822 1.0994 0
M  V30 16 C -2.5126 -2.2405 -1.6244 0
M  V30 17 C -1.2389 -2.0427 0.4368 0
M  V30 18 N 6.9144 -1.2198 1.3005 0
M  V30 19 N 5.3117 0.2112 0.3522 0
M  V30 20 S -2.9641 -3.08 -3.1174 0
M  V30 21 C -3.143 -1.0229 -1.3246 0
M  V30 22 C -1.8424 -0.8112 0.6991 0
M  V30 23 C 7.914 -0.4957 0.7363 0
M  V30 24 C 6.3035 0.947 -0.216 0
M  V30 25 O -3.7893 -4.2909 -2.7845 0
M  V30 26 O -1.7281 -3.5028 -3.8613 0
M  V30 27 O -3.8638 -2.063 -4.1116 0 CHG=-1
M  V30 28 C -2.814 -0.3076 -0.1647 0
M  V30 29 N 7.5992 0.5929 -0.0116 0
M  V30 30 N 9.292 -0.881 0.9241 0
M  V30 31 N 5.9774 2.126 -0.9659 0
M  V30 32 N -3.501 0.9106 0.1577 0
M  V30 33 C 10.3425 -0.1524 0.1933 0
M  V30 34 C 9.5895 -2.1969 1.5091 0
M  V30 35 C 6.9595 3.0638 -1.4417 0
M  V30 36 C -4.9312 0.9912 0.1726 0
M  V30 37 C 11.7386 -0.4645 0.7443 0
M  V30 38 C 11.0401 -2.2815 1.9686 0
M  V30 39 C 6.7288 4.439 -1.2827 0
M  V30 40 C 8.14 2.6333 -2.0808 0
M  V30 41 N -5.5434 2.1995 0.2457 0
M  V30 42 N -5.6813 -0.143 0.1617 0
M  V30 43 O 11.9084 -1.8511 0.9431 0
M  V30 44 C 7.6833 5.3704 -1.7075 0
M  V30 45 C 9.0907 3.5682 -2.5035 0
M  V30 46 C -6.9014 2.2803 0.2894 0
M  V30 47 C -7.0338 -0.0786 0.2199 0
M  V30 48 C 8.8684 4.9349 -2.3065 0
M  V30 49 N -7.6389 1.1372 0.2759 0
M  V30 50 N -7.554 3.5651 0.3626 0
M  V30 51 N -7.7999 -1.2915 0.1885 0
M  V30 52 C -6.76 4.8001 0.3658 0
M  V30 53 C -8.9572 3.6549 0.7874 0
M  V30 54 C -9.2146 -1.3742 0.4375 0
M  V30 55 C -7.5903 5.962 -0.1971 0
M  V30 56 C -9.6099 4.9024 0.1849 0
M  V30 57 C -9.9593 -2.3844 -0.1934 0
M  V30 58 C -9.8595 -0.5228 1.3572 0
M  V30 59 O -8.8386 6.0541 0.4616 0
M  V30 60 C -11.329 -2.5135 0.0515 0
M  V30 61 C -11.2305 -0.654 1.5961 0
M  V30 62 C -11.9663 -1.6482 0.9444 0
M  V30 63 H 3.6865 -1.2832 -0.7987 0
M  V30 64 H 1.1705 -4.6673 1.8095 0
M  V30 65 H 0.5536 -5.5343 -0.8831 0
M  V30 66 H 2.9893 -3.4234 2.8721 0
M  V30 67 H -1.5947 -4.8605 -1.4252 0
M  V30 68 H 4.7959 -1.8883 2.7567 0
M  V30 69 H -0.5743 -2.4453 1.1864 0
M  V30 70 H -3.9025 -0.6289 -1.9876 0
M  V30 71 H -1.5995 -0.2779 1.614 0
M  V30 72 H 4.9768 2.4234 -0.9763 0
M  V30 73 H -2.9558 1.7232 0.528 0
M  V30 74 H 10.2941 -0.4249 -0.8841 0
M  V30 75 H 10.176 0.9423 0.2821 0
M  V30 76 H 8.9388 -2.3891 2.3862 0
M  V30 77 H 9.4015 -2.9795 0.7471 0
M  V30 78 H 11.9235 0.1086 1.6857 0
M  V30 79 H 12.4965 -0.1201 0.0097 0
M  V30 80 H 11.1853 -1.693 2.9035 0
M  V30 81 H 11.2719 -3.34 2.2113 0
M  V30 82 H 5.815 4.7861 -0.8143 0
M  V30 83 H 8.3205 1.5806 -2.2681 0
M  V30 84 H 7.5023 6.4287 -1.5704 0
M  V30 85 H 10.003 3.2305 -2.9815 0
M  V30 86 H 9.607 5.656 -2.6333 0
M  V30 87 H -7.2996 -2.1611 -0.1024 0
M  V30 88 H -5.8443 4.6865 -0.254 0
M  V30 89 H -6.4578 5.0265 1.4075 0
M  V30 90 H -8.9901 3.724 1.895 0
M  V30 91 H -9.5393 2.764 0.4657 0
M  V30 92 H -7.7206 5.8579 -1.2984 0
M  V30 93 H -7.0348 6.908 -0.0335 0
M  V30 94 H -10.6179 5.0346 0.6321 0
M  V30 95 H -9.7561 4.7675 -0.9115 0
M  V30 96 H -9.4773 -3.0685 -0.8806 0
M  V30 97 H -9.3056 0.219 1.9194 0
M  V30 98 H -11.8977 -3.2874 -0.452 0
M  V30 99 H -11.7173 0.0029 2.3068 0
M  V30 100 H -13.0264 -1.757 1.1418 0
M  V30 END ATOM
M  V30 BEGIN BOND
M  V30 1 2 1 2
M  V30 2 2 1 3
M  V30 3 1 1 4
M  V30 4 1 1 5
M  V30 5 2 5 6
M  V30 6 1 5 7
M  V30 7 1 6 8
M  V30 8 1 6 9
M  V30 9 2 7 10
M  V30 10 2 8 11
M  V30 11 2 9 12
M  V30 12 1 10 13
M  V30 13 1 12 14
M  V30 14 1 13 15
M  V30 15 2 14 16
M  V30 16 1 14 17
M  V30 17 2 15 18
M  V30 18 1 15 19
M  V30 19 1 16 20
M  V30 20 1 16 21
M  V30 21 2 17 22
M  V30 22 1 18 23
M  V30 23 2 19 24
M  V30 24 2 20 25
M  V30 25 2 20 26
M  V30 26 1 20 27
M  V30 27 2 21 28
M  V30 28 2 23 29
M  V30 29 1 23 30
M  V30 30 1 24 31
M  V30 31 1 28 32
M  V30 32 1 30 33
M  V30 33 1 30 34
M  V30 34 1 31 35
M  V30 35 1 32 36
M  V30 36 1 33 37
M  V30 37 1 34 38
M  V30 38 2 35 39
M  V30 39 1 35 40
M  V30 40 2 36 41
M  V30 41 1 36 42
M  V30 42 1 37 43
M  V30 43 1 39 44
M  V30 44 2 40 45
M  V30 45 1 41 46
M  V30 46 2 42 47
M  V30 47 2 44 48
M  V30 48 2 46 49
M  V30 49 1 46 50
M  V30 50 1 47 51
M  V30 51 1 50 52
M  V30 52 1 50 53
M  V30 53 1 51 54
M  V30 54 1 52 55
M  V30 55 1 53 56
M  V30 56 2 54 57
M  V30 57 1 54 58
M  V30 58 1 55 59
M  V30 59 1 57 60
M  V30 60 2 58 61
M  V30 61 2 60 62
M  V30 62 1 10 11
M  V30 63 1 22 28
M  V30 64 1 24 29
M  V30 65 1 38 43
M  V30 66 1 45 48
M  V30 67 1 47 49
M  V30 68 1 56 59
M  V30 69 1 61 62
M  V30 70 1 7 63
M  V30 71 1 8 64
M  V30 72 1 9 65
M  V30 73 1 11 66
M  V30 74 1 12 67
M  V30 75 1 13 68
M  V30 76 1 17 69
M  V30 77 1 21 70
M  V30 78 1 22 71
M  V30 79 1 31 72
M  V30 80 1 32 73
M  V30 81 1 33 74
M  V30 82 1 33 75
M  V30 83 1 34 76
M  V30 84 1 34 77
M  V30 85 1 37 78
M  V30 86 1 37 79
M  V30 87 1 38 80
M  V30 88 1 38 81
M  V30 89 1 39 82
M  V30 90 1 40 83
M  V30 91 1 44 84
M  V30 92 1 45 85
M  V30 93 1 48 86
M  V30 94 1 51 87
M  V30 95 1 52 88
M  V30 96 1 52 89
M  V30 97 1 53 90
M  V30 98 1 53 91
M  V30 99 1 55 92
M  V30 100 1 55 93
M  V30 101 1 56 94
M  V30 102 1 56 95
M  V30 103 1 57 96
M  V30 104 1 58 97
M  V30 105 1 60 98
M  V30 106 1 61 99
M  V30 107 1 62 100
M  V30 END BOND
M  V30 END CTAB
M  END
>  <Structure No>
790

>  <LogS>
-2.710838239

>  <MMFF94 Energy>
-211.41

$$$$
Compound 791
Actelion Java MolfileCreator 2.0

  0  0  0  0  0  0              0 V3000
M  V30 BEGIN CTAB
M  V30 COUNTS 38 37 0 0 0
M  V30 BEGIN ATOM
M  V30 1 O 3.2131 0.9396 2.0366 0
M  V30 2 C 2.9666 0.7318 0.8171 0
M  V30 3 O 3.9222 0.1405 -0.017 0
M  V30 4 C 1.6179 1.0666 0.2647 0
M  V30 5 C 5.2409 -0.2001 0.4117 0
M  V30 6 C 0.6958 -0.1541 0.3303 0
M  V30 7 C 5.8488 -1.1792 -0.5904 0
M  V30 8 C 6.1041 1.06 0.521 0
M  V30 9 C -0.6894 0.1717 -0.24 0
M  V30 10 C -1.6115 -1.049 -0.1744 0
M  V30 11 C -2.9602 -0.7142 -0.7267 0
M  V30 12 O -3.2066 -0.9219 -1.9463 0
M  V30 13 O -3.9159 -0.1228 0.1074 0
M  V30 14 C -5.2346 0.2179 -0.3212 0
M  V30 15 C -6.0979 -1.0422 -0.4304 0
M  V30 16 C -5.8426 1.1971 0.681 0
M  V30 17 H 1.1771 1.9065 0.8455 0
M  V30 18 H 1.7326 1.3967 -0.7905 0
M  V30 19 H 5.1962 -0.7035 1.4033 0
M  V30 20 H 1.1472 -0.9878 -0.2523 0
M  V30 21 H 0.591 -0.479 1.3895 0
M  V30 22 H 5.9089 -0.7161 -1.5987 0
M  V30 23 H 6.8677 -1.4809 -0.2661 0
M  V30 24 H 5.2163 -2.0901 -0.6544 0
M  V30 25 H 6.1437 1.5876 -0.4559 0
M  V30 26 H 5.6809 1.7501 1.2805 0
M  V30 27 H 7.1366 0.7933 0.8325 0
M  V30 28 H -1.1408 1.0055 0.3427 0
M  V30 29 H -0.5846 0.4967 -1.299 0
M  V30 30 H -1.7262 -1.379 0.8808 0
M  V30 31 H -1.1707 -1.8888 -0.755 0
M  V30 32 H -5.1899 0.7214 -1.3127 0
M  V30 33 H -5.6748 -1.7322 -1.1898 0
M  V30 34 H -6.1376 -1.5697 0.5466 0
M  V30 35 H -7.1305 -0.7753 -0.7418 0
M  V30 36 H -5.9028 0.7341 1.6895 0
M  V30 37 H -6.8615 1.4988 0.3569 0
M  V30 38 H -5.2102 2.108 0.7451 0
M  V30 END ATOM
M  V30 BEGIN BOND
M  V30 1 2 1 2
M  V30 2 1 2 3
M  V30 3 1 2 4
M  V30 4 1 3 5
M  V30 5 1 4 6
M  V30 6 1 5 7
M  V30 7 1 5 8
M  V30 8 1 6 9
M  V30 9 1 9 10
M  V30 10 1 10 11
M  V30 11 2 11 12
M  V30 12 1 11 13
M  V30 13 1 13 14
M  V30 14 1 14 15
M  V30 15 1 14 16
M  V30 16 1 4 17
M  V30 17 1 4 18
M  V30 18 1 5 19
M  V30 19 1 6 20
M  V30 20 1 6 21
M  V30 21 1 7 22
M  V30 22 1 7 23
M  V30 23 1 7 24
M  V30 24 1 8 25
M  V30 25 1 8 26
M  V30 26 1 8 27
M  V30 27 1 9 28
M  V30 28 1 9 29
M  V30 29 1 10 30
M  V30 30 1 10 31
M  V30 31 1 14 32
M  V30 32 1 15 33
M  V30 33 1 15 34
M  V30 34 1 15 35
M  V30 35 1 16 36
M  V30 36 1 16 37
M  V30 37 1 16 38
M  V30 END BOND
M  V30 END CTAB
M  END
>  <Structure No>
791

>  <LogS>
-3.107028976

>  <MMFF94 Energy>
-14.165

$$$$
Compound 792
Actelion Java MolfileCreator 2.0

  0  0  0  0  0  0              0 V3000
M  V30 BEGIN CTAB
M  V30 COUNTS 38 38 0 0 0
M  V30 BEGIN ATOM
M  V30 1 O -0.7871 -1.1021 -1.3384 0
M  V30 2 C -1.1305 -0.2936 -0.4866 0
M  V30 3 C -0.8014 1.1627 -0.5742 0 CFG=1
M  V30 4 C -1.9736 -0.6674 0.6898 0
M  V30 5 C -1.5406 1.779 0.6389 0
M  V30 6 C 0.7356 1.4201 -0.5361 0
M  V30 7 C -1.3746 1.7339 -1.8882 0
M  V30 8 C -2.0201 0.6248 1.5325 0
M  V30 9 C -3.3824 -1.0619 0.2104 0
M  V30 10 C -1.3357 -1.8264 1.4775 0
M  V30 11 C 1.4897 0.8556 0.6939 0
M  V30 12 C 2.1715 -0.4998 0.4358 0
M  V30 13 C 3.4817 -0.3546 -0.3525 0
M  V30 14 C 4.1458 -1.7116 -0.5668 0
M  V30 15 H -2.4333 2.3607 0.3166 0
M  V30 16 H -0.8953 2.4777 1.2152 0
M  V30 17 H 0.8957 2.5211 -0.5544 0
M  V30 18 H 1.1932 1.034 -1.4716 0
M  V30 19 H -0.8757 1.2745 -2.7687 0
M  V30 20 H -1.2185 2.8334 -1.9318 0
M  V30 21 H -2.4653 1.5314 -1.966 0
M  V30 22 H -3.0399 0.8344 1.9251 0
M  V30 23 H -1.3489 0.5531 2.4164 0
M  V30 24 H -4.0333 -1.3032 1.0782 0
M  V30 25 H -3.3353 -1.9543 -0.4503 0
M  V30 26 H -3.8505 -0.2287 -0.3579 0
M  V30 27 H -0.3052 -1.566 1.8 0
M  V30 28 H -1.9385 -2.0528 2.3829 0
M  V30 29 H -1.2833 -2.7429 0.8513 0
M  V30 30 H 2.2622 1.5896 1.0127 0
M  V30 31 H 0.8078 0.749 1.5586 0
M  V30 32 H 2.402 -0.9636 1.42 0
M  V30 33 H 1.4831 -1.1847 -0.0993 0
M  V30 34 H 4.1837 0.3023 0.2056 0
M  V30 35 H 3.2885 0.1043 -1.3445 0
M  V30 36 H 4.3835 -2.184 0.41 0
M  V30 37 H 3.4749 -2.3818 -1.1451 0
M  V30 38 H 5.0902 -1.5777 -1.1353 0
M  V30 END ATOM
M  V30 BEGIN BOND
M  V30 1 2 1 2
M  V30 2 1 2 3
M  V30 3 1 2 4
M  V30 4 1 3 5
M  V30 5 1 3 6
M  V30 6 1 3 7
M  V30 7 1 4 8
M  V30 8 1 4 9
M  V30 9 1 4 10
M  V30 10 1 6 11
M  V30 11 1 11 12
M  V30 12 1 12 13
M  V30 13 1 13 14
M  V30 14 1 5 8
M  V30 15 1 5 15
M  V30 16 1 5 16
M  V30 17 1 6 17
M  V30 18 1 6 18
M  V30 19 1 7 19
M  V30 20 1 7 20
M  V30 21 1 7 21
M  V30 22 1 8 22
M  V30 23 1 8 23
M  V30 24 1 9 24
M  V30 25 1 9 25
M  V30 26 1 9 26
M  V30 27 1 10 27
M  V30 28 1 10 28
M  V30 29 1 10 29
M  V30 30 1 11 30
M  V30 31 1 11 31
M  V30 32 1 12 32
M  V30 33 1 12 33
M  V30 34 1 13 34
M  V30 35 1 13 35
M  V30 36 1 14 36
M  V30 37 1 14 37
M  V30 38 1 14 38
M  V30 END BOND
M  V30 BEGIN COLLECTION
M  V30 MDLV30/STEABS ATOMS=(1 3)
M  V30 END COLLECTION
M  V30 END CTAB
M  END
>  <Structure No>
792

>  <LogS>
-4.016533711

>  <MMFF94 Energy>
25.388

$$$$
Compound 793
Actelion Java MolfileCreator 2.0

  0  0  0  0  0  0              0 V3000
M  V30 BEGIN CTAB
M  V30 COUNTS 37 37 0 0 0
M  V30 BEGIN ATOM
M  V30 1 O -1.7287 -3.381 -0.2356 0
M  V30 2 C -0.8587 -2.2976 -0.4521 0
M  V30 3 C -1.3639 -1.0486 0.3159 0
M  V30 4 C 0.5934 -2.6897 -0.0788 0
M  V30 5 C -2.288 -0.1784 -0.5532 0
M  V30 6 C 1.6516 -1.7263 -0.6716 0
M  V30 7 C -2.6811 1.1446 0.1357 0
M  V30 8 C 2.3156 -0.8284 0.3941 0
M  V30 9 C -1.8129 2.3564 -0.2719 0
M  V30 10 C 2.8617 0.4976 -0.1893 0
M  V30 11 C -0.4232 2.3947 0.3966 0
M  V30 12 C 2.0325 1.7259 0.2346 0
M  V30 13 C 0.687 1.8416 -0.5129 0
M  V30 14 H -1.6506 -3.643 0.7194 0
M  V30 15 H -0.8716 -2.0964 -1.5459 0
M  V30 16 H -1.9103 -1.3599 1.2332 0
M  V30 17 H -0.5173 -0.4383 0.6651 0
M  V30 18 H 0.6949 -2.7809 1.0251 0
M  V30 19 H 0.7863 -3.7034 -0.4946 0
M  V30 20 H -1.8161 0.0322 -1.5373 0
M  V30 21 H -3.2123 -0.7631 -0.7561 0
M  V30 22 H 2.4532 -2.327 -1.1556 0
M  V30 23 H 1.2075 -1.1206 -1.4878 0
M  V30 24 H -3.7256 1.3791 -0.1664 0
M  V30 25 H -2.6989 1.0319 1.242 0
M  V30 26 H 1.6241 -0.6223 1.2371 0
M  V30 27 H 3.1598 -1.3991 0.84 0
M  V30 28 H -2.3616 3.2695 0.0483 0
M  V30 29 H -1.729 2.4211 -1.3791 0
M  V30 30 H 3.8935 0.6447 0.1989 0
M  V30 31 H 2.9491 0.4583 -1.2974 0
M  V30 32 H -0.4502 1.8444 1.3621 0
M  V30 33 H -0.1704 3.4513 0.6362 0
M  V30 34 H 2.6263 2.6432 0.0279 0
M  V30 35 H 1.8854 1.6953 1.337 0
M  V30 36 H 0.8149 2.5173 -1.3869 0
M  V30 37 H 0.3752 0.8671 -0.9219 0
M  V30 END ATOM
M  V30 BEGIN BOND
M  V30 1 1 1 2
M  V30 2 1 2 3
M  V30 3 1 2 4
M  V30 4 1 3 5
M  V30 5 1 4 6
M  V30 6 1 5 7
M  V30 7 1 6 8
M  V30 8 1 7 9
M  V30 9 1 8 10
M  V30 10 1 9 11
M  V30 11 1 10 12
M  V30 12 1 11 13
M  V30 13 1 12 13
M  V30 14 1 1 14
M  V30 15 1 2 15
M  V30 16 1 3 16
M  V30 17 1 3 17
M  V30 18 1 4 18
M  V30 19 1 4 19
M  V30 20 1 5 20
M  V30 21 1 5 21
M  V30 22 1 6 22
M  V30 23 1 6 23
M  V30 24 1 7 24
M  V30 25 1 7 25
M  V30 26 1 8 26
M  V30 27 1 8 27
M  V30 28 1 9 28
M  V30 29 1 9 29
M  V30 30 1 10 30
M  V30 31 1 10 31
M  V30 32 1 11 32
M  V30 33 1 11 33
M  V30 34 1 12 34
M  V30 35 1 12 35
M  V30 36 1 13 36
M  V30 37 1 13 37
M  V30 END BOND
M  V30 END CTAB
M  END
>  <Structure No>
793

>  <LogS>
-3.989117726

>  <MMFF94 Energy>
22.453

$$$$
Compound 794
Actelion Java MolfileCreator 2.0

  0  0  0  0  0  0              0 V3000
M  V30 BEGIN CTAB
M  V30 COUNTS 27 26 0 0 0
M  V30 BEGIN ATOM
M  V30 1 F -2.4053 1.5458 -0.7726 0
M  V30 2 C -3.1538 1.0958 0.298 0
M  V30 3 F -4.4042 1.6829 0.219 0
M  V30 4 F -2.5594 1.5012 1.4796 0
M  V30 5 C -3.3149 -0.4354 0.2638 0
M  V30 6 F -4.2489 -0.7758 1.2299 0
M  V30 7 F -3.8398 -0.8078 -0.9632 0
M  V30 8 C -2.0221 -1.2518 0.5527 0
M  V30 9 F -1.5557 -0.9171 1.8147 0
M  V30 10 F -2.4103 -2.5819 0.6208 0
M  V30 11 C -0.8785 -1.1356 -0.519 0
M  V30 12 F -0.4049 -2.4107 -0.7928 0
M  V30 13 F -1.3842 -0.6366 -1.7074 0
M  V30 14 C 0.3366 -0.2814 -0.0497 0
M  V30 15 F -0.0927 0.9712 0.3495 0
M  V30 16 F 0.9079 -0.9164 1.0413 0
M  V30 17 C 1.4184 -0.1159 -1.1534 0
M  V30 18 F 1.9681 -1.3505 -1.46 0
M  V30 19 F 0.8345 0.3885 -2.3036 0
M  V30 20 C 2.5518 0.8598 -0.7636 0
M  V30 21 C 3.4251 0.3869 0.4036 0
M  V30 22 O 4.5659 1.1954 0.486 0
M  V30 23 H 3.2064 0.9912 -1.6535 0
M  V30 24 H 2.1276 1.8589 -0.523 0
M  V30 25 H 3.7332 -0.6706 0.2466 0
M  V30 26 H 2.8573 0.4691 1.3556 0
M  V30 27 H 5.0971 0.8466 1.2485 0
M  V30 END ATOM
M  V30 BEGIN BOND
M  V30 1 1 1 2
M  V30 2 1 2 3
M  V30 3 1 2 4
M  V30 4 1 2 5
M  V30 5 1 5 6
M  V30 6 1 5 7
M  V30 7 1 5 8
M  V30 8 1 8 9
M  V30 9 1 8 10
M  V30 10 1 8 11
M  V30 11 1 11 12
M  V30 12 1 11 13
M  V30 13 1 11 14
M  V30 14 1 14 15
M  V30 15 1 14 16
M  V30 16 1 14 17
M  V30 17 1 17 18
M  V30 18 1 17 19
M  V30 19 1 17 20
M  V30 20 1 20 21
M  V30 21 1 21 22
M  V30 22 1 20 23
M  V30 23 1 20 24
M  V30 24 1 21 25
M  V30 25 1 21 26
M  V30 26 1 22 27
M  V30 END BOND
M  V30 END CTAB
M  END
>  <Structure No>
794

>  <LogS>
-4.287064023

>  <MMFF94 Energy>
55.938

$$$$
Compound 795
Actelion Java MolfileCreator 2.0

  0  0  0  0  0  0              0 V3000
M  V30 BEGIN CTAB
M  V30 COUNTS 88 89 0 0 0
M  V30 BEGIN ATOM
M  V30 1 O -3.8786 -1.107 -2.5316 0
M  V30 2 C -3.8202 -0.0492 -1.8458 0
M  V30 3 O -4.6713 0.1503 -0.7508 0
M  V30 4 C -2.8031 0.9976 -2.18 0
M  V30 5 C -5.6468 -0.7986 -0.2947 0
M  V30 6 C -1.3849 0.5582 -1.79 0
M  V30 7 C -5.6186 -0.8375 1.2766 0
M  V30 8 C -7.0744 -0.525 -0.9169 0
M  V30 9 C -1.2297 0.3822 -0.2679 0
M  V30 10 C -6.9811 -1.3158 1.832 0
M  V30 11 C -4.5381 -1.8454 1.7371 0
M  V30 12 C -5.2514 0.5364 1.899 0
M  V30 13 C -8.003 0.1899 0.0988 0
M  V30 14 C -6.984 0.3725 -2.1764 0
M  V30 15 C -7.7329 -1.8543 -1.3681 0
M  V30 16 C 0.2136 0.0222 0.1364 0
M  V30 17 N -8.1321 -0.4942 1.4027 0 CHG=1
M  V30 18 C 1.0025 1.2065 0.7217 0
M  V30 19 C 1.31 2.2924 -0.3222 0
M  V30 20 C 2.2297 3.3991 0.231 0
M  V30 21 C 3.7212 3.1616 -0.0563 0
M  V30 22 C 4.2962 2.0363 0.7431 0
M  V30 23 O 4.2821 2.092 2.0045 0
M  V30 24 O 4.8738 0.9486 0.0754 0
M  V30 25 C 5.5535 -0.1367 0.7257 0
M  V30 26 C 5.1349 -1.4705 0.011 0
M  V30 27 C 7.1157 0.1161 0.7336 0
M  V30 28 C 5.7667 -1.5679 -1.4204 0
M  V30 29 C 5.5401 -2.708 0.852 0
M  V30 30 C 3.5911 -1.517 -0.1137 0
M  V30 31 C 7.8001 -0.6013 -0.4677 0
M  V30 32 C 7.4424 1.6322 0.6516 0
M  V30 33 C 7.7372 -0.3912 2.0581 0
M  V30 34 N 6.91 -0.6604 -1.634 0 CHG=1
M  V30 35 H -2.8365 1.1938 -3.2739 0
M  V30 36 H -3.0583 1.9465 -1.6598 0
M  V30 37 H -5.3276 -1.8051 -0.6502 0
M  V30 38 H -1.1402 -0.3977 -2.3064 0
M  V30 39 H -0.6717 1.327 -2.1557 0
M  V30 40 H -1.5726 1.2992 0.261 0
M  V30 41 H -1.893 -0.4468 0.0551 0
M  V30 42 H -6.9441 -1.3319 2.9457 0
M  V30 43 H -7.147 -2.3747 1.5405 0
M  V30 44 H -3.5382 -1.5574 1.3486 0
M  V30 45 H -4.4814 -1.8841 2.8469 0
M  V30 46 H -4.7661 -2.8706 1.3736 0
M  V30 47 H -5.9087 1.353 1.5485 0
M  V30 48 H -4.2071 0.8191 1.644 0
M  V30 49 H -5.3198 0.4944 3.0082 0
M  V30 50 H -9.0184 0.306 -0.3461 0
M  V30 51 H -7.6512 1.2322 0.2546 0
M  V30 52 H -6.5476 1.3649 -1.9305 0
M  V30 53 H -7.9934 0.5508 -2.6082 0
M  V30 54 H -6.3641 -0.107 -2.9634 0
M  V30 55 H -7.847 -2.5709 -0.5342 0
M  V30 56 H -8.7446 -1.6716 -1.7938 0
M  V30 57 H -7.1175 -2.3465 -2.1529 0
M  V30 58 H 0.1671 -0.762 0.9236 0
M  V30 59 H 0.7708 -0.4241 -0.716 0
M  V30 60 H -8.3147 0.2317 2.1351 0
M  V30 61 H -8.9811 -1.1085 1.3761 0
M  V30 62 H 0.437 1.6503 1.5698 0
M  V30 63 H 1.951 0.8075 1.1325 0
M  V30 64 H 1.7534 1.8359 -1.2339 0
M  V30 65 H 0.3508 2.7678 -0.6172 0
M  V30 66 H 2.0623 3.5515 1.3201 0
M  V30 67 H 1.9517 4.3541 -0.2664 0
M  V30 68 H 3.8718 2.9662 -1.1415 0
M  V30 69 H 4.2877 4.0869 0.1917 0
M  V30 70 H 5.1867 -0.198 1.776 0
M  V30 71 H 5.0041 -1.3389 -2.1986 0
M  V30 72 H 6.0847 -2.6132 -1.6317 0
M  V30 73 H 6.6262 -2.903 0.8189 0
M  V30 74 H 5.2287 -2.5894 1.9116 0
M  V30 75 H 5.0555 -3.6264 0.4567 0
M  V30 76 H 3.211 -0.687 -0.7455 0
M  V30 77 H 3.1141 -1.4422 0.8869 0
M  V30 78 H 3.2616 -2.4667 -0.5878 0
M  V30 79 H 8.1262 -1.6294 -0.1997 0
M  V30 80 H 8.7391 -0.0739 -0.7519 0
M  V30 81 H 8.5392 1.8047 0.7062 0
M  V30 82 H 6.9785 2.1832 1.4965 0
M  V30 83 H 7.0871 2.0731 -0.3033 0
M  V30 84 H 7.2963 0.147 2.9255 0
M  V30 85 H 8.8358 -0.2142 2.0683 0
M  V30 86 H 7.5709 -1.4724 2.2172 0
M  V30 87 H 7.4595 -1.005 -2.4562 0
M  V30 88 H 6.5639 0.2987 -1.872 0
M  V30 END ATOM
M  V30 BEGIN BOND
M  V30 1 2 1 2
M  V30 2 1 2 3
M  V30 3 1 2 4
M  V30 4 1 3 5
M  V30 5 1 4 6
M  V30 6 1 5 7
M  V30 7 1 5 8
M  V30 8 1 6 9
M  V30 9 1 7 10
M  V30 10 1 7 11
M  V30 11 1 7 12
M  V30 12 1 8 13
M  V30 13 1 8 14
M  V30 14 1 8 15
M  V30 15 1 9 16
M  V30 16 1 10 17
M  V30 17 1 16 18
M  V30 18 1 18 19
M  V30 19 1 19 20
M  V30 20 1 20 21
M  V30 21 1 21 22
M  V30 22 2 22 23
M  V30 23 1 22 24
M  V30 24 1 24 25
M  V30 25 1 25 26
M  V30 26 1 25 27
M  V30 27 1 26 28
M  V30 28 1 26 29
M  V30 29 1 26 30
M  V30 30 1 27 31
M  V30 31 1 27 32
M  V30 32 1 27 33
M  V30 33 1 28 34
M  V30 34 1 13 17
M  V30 35 1 31 34
M  V30 36 1 4 35
M  V30 37 1 4 36
M  V30 38 1 5 37
M  V30 39 1 6 38
M  V30 40 1 6 39
M  V30 41 1 9 40
M  V30 42 1 9 41
M  V30 43 1 10 42
M  V30 44 1 10 43
M  V30 45 1 11 44
M  V30 46 1 11 45
M  V30 47 1 11 46
M  V30 48 1 12 47
M  V30 49 1 12 48
M  V30 50 1 12 49
M  V30 51 1 13 50
M  V30 52 1 13 51
M  V30 53 1 14 52
M  V30 54 1 14 53
M  V30 55 1 14 54
M  V30 56 1 15 55
M  V30 57 1 15 56
M  V30 58 1 15 57
M  V30 59 1 16 58
M  V30 60 1 16 59
M  V30 61 1 17 60
M  V30 62 1 17 61
M  V30 63 1 18 62
M  V30 64 1 18 63
M  V30 65 1 19 64
M  V30 66 1 19 65
M  V30 67 1 20 66
M  V30 68 1 20 67
M  V30 69 1 21 68
M  V30 70 1 21 69
M  V30 71 1 25 70
M  V30 72 1 28 71
M  V30 73 1 28 72
M  V30 74 1 29 73
M  V30 75 1 29 74
M  V30 76 1 29 75
M  V30 77 1 30 76
M  V30 78 1 30 77
M  V30 79 1 30 78
M  V30 80 1 31 79
M  V30 81 1 31 80
M  V30 82 1 32 81
M  V30 83 1 32 82
M  V30 84 1 32 83
M  V30 85 1 33 84
M  V30 86 1 33 85
M  V30 87 1 33 86
M  V30 88 1 34 87
M  V30 89 1 34 88
M  V30 END BOND
M  V30 END CTAB
M  END
>  <Structure No>
795

>  <LogS>
-4.40774699

>  <MMFF94 Energy>
51.201

$$$$
Compound 796
Actelion Java MolfileCreator 2.0

  0  0  0  0  0  0              0 V3000
M  V30 BEGIN CTAB
M  V30 COUNTS 36 35 0 0 0
M  V30 BEGIN ATOM
M  V30 1 O 3.7368 -0.7776 1.867 0
M  V30 2 C 2.7262 -0.0295 2.0834 0
M  V30 3 O 1.6528 -0.1939 1.2538 0
M  V30 4 C 2.7888 0.9427 3.1987 0
M  V30 5 C 1.5911 -1.1223 0.1975 0
M  V30 6 C 0.2511 -1.0716 -0.5095 0
M  V30 7 C 2.7262 -0.8286 -0.7695 0
M  V30 8 C 1.747 -2.5095 0.7916 0
M  V30 9 C -0.04 0.2465 -1.1261 0
M  V30 10 C -1.2813 0.3914 -1.886 0
M  V30 11 C -2.5928 0.1537 -1.1843 0 CFG=1
M  V30 12 C -2.919 0.9397 -0.1022 0
M  V30 13 C -3.6856 0.404 -2.3078 0
M  V30 14 C -3.2142 1.6506 0.8766 0
M  V30 15 H 3.8195 0.9345 3.6466 0
M  V30 16 H 2.5885 1.9742 2.9321 0
M  V30 17 H 2.1292 0.5722 4.0391 0
M  V30 18 H 0.1014 -1.8909 -1.2147 0
M  V30 19 H -0.5141 -1.2336 0.3091 0
M  V30 20 H 2.4379 -1.1043 -1.8118 0
M  V30 21 H 3.0033 0.223 -0.7319 0
M  V30 22 H 3.5877 -1.4572 -0.4944 0
M  V30 23 H 1.3161 -2.5641 1.8319 0
M  V30 24 H 2.8263 -2.7221 0.8841 0
M  V30 25 H 1.1769 -3.2675 0.2169 0
M  V30 26 H 0.0314 1.0429 -0.3219 0
M  V30 27 H 0.8314 0.5297 -1.7975 0
M  V30 28 H -1.3202 -0.2454 -2.8196 0
M  V30 29 H -1.3474 1.4351 -2.3088 0
M  V30 30 H -2.7234 -0.9627 -1.0666 0
M  V30 31 H -2.9324 -0.1798 0.7609 0
M  V30 32 H -3.6415 1.4346 -2.6425 0
M  V30 33 H -3.5479 -0.3797 -3.0639 0
M  V30 34 H -4.6594 0.2267 -1.8073 0
M  V30 35 H -3.4252 1.4156 1.8979 0
M  V30 36 H -3.2943 2.7836 0.7281 0
M  V30 END ATOM
M  V30 BEGIN BOND
M  V30 1 2 1 2
M  V30 2 1 2 3
M  V30 3 1 2 4
M  V30 4 1 3 5
M  V30 5 1 5 6
M  V30 6 1 5 7
M  V30 7 1 5 8
M  V30 8 1 6 9
M  V30 9 1 9 10
M  V30 10 1 10 11
M  V30 11 1 11 12
M  V30 12 1 11 13
M  V30 13 2 12 14
M  V30 14 1 4 15
M  V30 15 1 4 16
M  V30 16 1 4 17
M  V30 17 1 6 18
M  V30 18 1 6 19
M  V30 19 1 7 20
M  V30 20 1 7 21
M  V30 21 1 7 22
M  V30 22 1 8 23
M  V30 23 1 8 24
M  V30 24 1 8 25
M  V30 25 1 9 26
M  V30 26 1 9 27
M  V30 27 1 10 28
M  V30 28 1 10 29
M  V30 29 1 11 30
M  V30 30 1 12 31
M  V30 31 1 13 32
M  V30 32 1 13 33
M  V30 33 1 13 34
M  V30 34 1 14 35
M  V30 35 1 14 36
M  V30 END BOND
M  V30 BEGIN COLLECTION
M  V30 MDLV30/STEABS ATOMS=(1 11)
M  V30 END COLLECTION
M  V30 END CTAB
M  END
>  <Structure No>
796

>  <LogS>
-4.030164126

>  <MMFF94 Energy>
16.959

$$$$
Compound 797
Actelion Java MolfileCreator 2.0

  0  0  0  0  0  0              0 V3000
M  V30 BEGIN CTAB
M  V30 COUNTS 48 48 0 0 0
M  V30 BEGIN ATOM
M  V30 1 O 0.7919 0.3167 -1.5052 0
M  V30 2 C 0.9805 -0.055 -0.3156 0
M  V30 3 O 2.1585 0.2816 0.361 0
M  V30 4 C -0.0853 -0.8458 0.3968 0 CFG=2
M  V30 5 C 3.2273 1.0183 -0.2312 0
M  V30 6 C -0.7262 0.017 1.5234 0 CFG=1
M  V30 7 C 0.4877 -2.1909 0.9193 0
M  V30 8 C 4.0261 0.1448 -1.2163 0
M  V30 9 C -1.7378 0.9682 0.9443 0
M  V30 10 C -1.3599 -0.876 2.6047 0
M  V30 11 C 0.8967 -2.1111 2.395 0
M  V30 12 C 5.1125 0.9803 -1.9023 0
M  V30 13 C 4.652 -1.0608 -0.5026 0
M  V30 14 O -1.39 2.1492 0.6639 0
M  V30 15 O -3.0296 0.5197 0.6465 0
M  V30 16 C -0.3005 -1.7546 3.302 0
M  V30 17 C -3.989 1.3097 -0.0546 0
M  V30 18 C -3.6923 1.3145 -1.5664 0
M  V30 19 C -3.8442 -0.0934 -2.159 0
M  V30 20 C -4.6178 2.2999 -2.2871 0
M  V30 21 H -0.8721 -1.1062 -0.3469 0
M  V30 22 H 3.8994 1.3728 0.5817 0
M  V30 23 H 2.8199 1.918 -0.7462 0
M  V30 24 H 0.0622 0.6226 2.0284 0
M  V30 25 H 1.3586 -2.5181 0.3101 0
M  V30 26 H -0.2868 -2.9832 0.816 0
M  V30 27 H 3.3404 -0.2315 -2.0055 0
M  V30 28 H -2.127 -1.5331 2.1372 0
M  V30 29 H -1.871 -0.2485 3.3682 0
M  V30 30 H 1.3282 -3.0836 2.715 0
M  V30 31 H 1.6914 -1.3447 2.5111 0
M  V30 32 H 5.6666 0.3612 -2.6393 0
M  V30 33 H 5.8329 1.3761 -1.1535 0
M  V30 34 H 4.6541 1.8357 -2.4463 0
M  V30 35 H 3.8624 -1.6944 -0.0429 0
M  V30 36 H 5.2154 -1.6848 -1.2305 0
M  V30 37 H 5.3494 -0.7211 0.2926 0
M  V30 38 H -0.7884 -2.6893 3.6562 0
M  V30 39 H 0.0836 -1.2238 4.2018 0
M  V30 40 H -4.9986 0.8825 0.1248 0
M  V30 41 H -3.9901 2.3458 0.3485 0
M  V30 42 H -2.6456 1.6488 -1.7314 0
M  V30 43 H -3.6197 -0.0807 -3.2467 0
M  V30 44 H -4.8811 -0.4702 -2.0133 0
M  V30 45 H -3.1371 -0.7961 -1.6705 0
M  V30 46 H -4.413 2.2925 -3.3787 0
M  V30 47 H -5.6825 2.0302 -2.119 0
M  V30 48 H -4.4468 3.3321 -1.9069 0
M  V30 END ATOM
M  V30 BEGIN BOND
M  V30 1 2 1 2
M  V30 2 1 2 3
M  V30 3 1 2 4
M  V30 4 1 3 5
M  V30 5 1 4 6
M  V30 6 1 4 7
M  V30 7 1 5 8
M  V30 8 1 6 9
M  V30 9 1 6 10
M  V30 10 1 7 11
M  V30 11 1 8 12
M  V30 12 1 8 13
M  V30 13 2 9 14
M  V30 14 1 9 15
M  V30 15 1 10 16
M  V30 16 1 15 17
M  V30 17 1 17 18
M  V30 18 1 18 19
M  V30 19 1 18 20
M  V30 20 1 11 16
M  V30 21 1 4 21
M  V30 22 1 5 22
M  V30 23 1 5 23
M  V30 24 1 6 24
M  V30 25 1 7 25
M  V30 26 1 7 26
M  V30 27 1 8 27
M  V30 28 1 10 28
M  V30 29 1 10 29
M  V30 30 1 11 30
M  V30 31 1 11 31
M  V30 32 1 12 32
M  V30 33 1 12 33
M  V30 34 1 12 34
M  V30 35 1 13 35
M  V30 36 1 13 36
M  V30 37 1 13 37
M  V30 38 1 16 38
M  V30 39 1 16 39
M  V30 40 1 17 40
M  V30 41 1 17 41
M  V30 42 1 18 42
M  V30 43 1 19 43
M  V30 44 1 19 44
M  V30 45 1 19 45
M  V30 46 1 20 46
M  V30 47 1 20 47
M  V30 48 1 20 48
M  V30 END BOND
M  V30 BEGIN COLLECTION
M  V30 MDLV30/STEABS ATOMS=(2 4 6)
M  V30 END COLLECTION
M  V30 END CTAB
M  END
>  <Structure No>
797

>  <LogS>
-4.19123514

>  <MMFF94 Energy>
-19.059

$$$$
Compound 798
Actelion Java MolfileCreator 2.0

  0  0  0  0  0  0              0 V3000
M  V30 BEGIN CTAB
M  V30 COUNTS 34 34 0 0 0
M  V30 BEGIN ATOM
M  V30 1 O 3.0051 -0.8692 -1.3435 0
M  V30 2 C 2.7228 -0.214 -0.302 0
M  V30 3 O 1.5319 0.5165 -0.2216 0
M  V30 4 C 3.6384 -0.203 0.8487 0
M  V30 5 C 0.541 0.5302 -1.2515 0 CFG=1
M  V30 6 C 4.7882 -0.875 0.8573 0
M  V30 7 C -0.2622 -0.7858 -1.2533 0
M  V30 8 C -0.3814 1.7565 -1.0624 0
M  V30 9 C -1.0757 -1.0214 0.063 0
M  V30 10 C -1.6729 1.4556 -0.261 0 CFG=1
M  V30 11 C -1.4432 0.3258 0.7596 0
M  V30 12 C -2.3689 -1.7952 -0.2812 0
M  V30 13 C -0.2563 -1.8875 1.0459 0
M  V30 14 C -2.1921 2.7206 0.4325 0
M  V30 15 H 3.362 0.3724 1.7235 0
M  V30 16 H 1.0505 0.6411 -2.2354 0
M  V30 17 H 5.1052 -1.4654 0.007 0
M  V30 18 H 5.4279 -0.8373 1.7293 0
M  V30 19 H -0.9515 -0.7393 -2.1264 0
M  V30 20 H 0.4178 -1.6413 -1.4559 0
M  V30 21 H 0.2035 2.5656 -0.5708 0
M  V30 22 H -0.6773 2.1446 -2.0621 0
M  V30 23 H -2.4598 1.1266 -0.9756 0
M  V30 24 H -2.3487 0.1961 1.3936 0
M  V30 25 H -0.6256 0.6435 1.4458 0
M  V30 26 H -2.9471 -2.0311 0.6384 0
M  V30 27 H -3.0221 -1.2001 -0.9541 0
M  V30 28 H -2.1257 -2.7519 -0.7924 0
M  V30 29 H -0.0058 -2.8707 0.5922 0
M  V30 30 H 0.6913 -1.3865 1.3301 0
M  V30 31 H -0.8349 -2.0725 1.977 0
M  V30 32 H -1.4639 3.0792 1.1917 0
M  V30 33 H -2.3573 3.5248 -0.3159 0
M  V30 34 H -3.1601 2.5112 0.9361 0
M  V30 END ATOM
M  V30 BEGIN BOND
M  V30 1 2 1 2
M  V30 2 1 2 3
M  V30 3 1 2 4
M  V30 4 1 3 5
M  V30 5 2 4 6
M  V30 6 1 5 7
M  V30 7 1 5 8
M  V30 8 1 7 9
M  V30 9 1 8 10
M  V30 10 1 9 11
M  V30 11 1 9 12
M  V30 12 1 9 13
M  V30 13 1 10 14
M  V30 14 1 10 11
M  V30 15 1 4 15
M  V30 16 1 5 16
M  V30 17 1 6 17
M  V30 18 1 6 18
M  V30 19 1 7 19
M  V30 20 1 7 20
M  V30 21 1 8 21
M  V30 22 1 8 22
M  V30 23 1 10 23
M  V30 24 1 11 24
M  V30 25 1 11 25
M  V30 26 1 12 26
M  V30 27 1 12 27
M  V30 28 1 12 28
M  V30 29 1 13 29
M  V30 30 1 13 30
M  V30 31 1 13 31
M  V30 32 1 14 32
M  V30 33 1 14 33
M  V30 34 1 14 34
M  V30 END BOND
M  V30 BEGIN COLLECTION
M  V30 MDLV30/STEABS ATOMS=(2 5 10)
M  V30 END COLLECTION
M  V30 END CTAB
M  END
>  <Structure No>
798

>  <LogS>
-4.030447085

>  <MMFF94 Energy>
20.312

$$$$
Compound 799
Actelion Java MolfileCreator 2.0

  0  0  0  0  0  0              0 V3000
M  V30 BEGIN CTAB
M  V30 COUNTS 30 31 0 0 0
M  V30 BEGIN ATOM
M  V30 1 O 0.0 1.0367 1.5155 0
M  V30 2 C 0.3325 0.5343 0.4076 0
M  V30 3 C 1.7593 0.1623 0.1931 0
M  V30 4 C -0.7339 0.2987 -0.6496 0
M  V30 5 C 2.7533 0.7009 1.0345 0
M  V30 6 C 2.151 -0.7316 -0.8253 0
M  V30 7 C -1.3865 -1.0913 -0.4957 0
M  V30 8 C -1.799 1.4221 -0.6996 0
M  V30 9 C 4.0981 0.364 0.8555 0
M  V30 10 C 3.4979 -1.0649 -0.9983 0
M  V30 11 C -2.389 -1.1395 0.6633 0
M  V30 12 C -2.8512 1.3272 0.4185 0
M  V30 13 C 4.4703 -0.5169 -0.1604 0
M  V30 14 C -3.4708 -0.0706 0.4912 0
M  V30 15 H -0.2349 0.3272 -1.642 0
M  V30 16 H 2.4928 1.3909 1.8275 0
M  V30 17 H 1.4268 -1.1916 -1.4821 0
M  V30 18 H -0.6087 -1.8684 -0.335 0
M  V30 19 H -1.9162 -1.3484 -1.4395 0
M  V30 20 H -1.3033 2.4164 -0.6563 0
M  V30 21 H -2.3271 1.3654 -1.6774 0
M  V30 22 H 4.8525 0.7876 1.5058 0
M  V30 23 H 3.7874 -1.7534 -1.7817 0
M  V30 24 H -2.8687 -2.1416 0.688 0
M  V30 25 H -1.8612 -0.9926 1.6306 0
M  V30 26 H -3.6557 2.0678 0.2195 0
M  V30 27 H -2.4048 1.5895 1.3999 0
M  V30 28 H 5.5118 -0.7772 -0.2969 0
M  V30 29 H -4.0528 -0.271 -0.4351 0
M  V30 30 H -4.1718 -0.1162 1.3523 0
M  V30 END ATOM
M  V30 BEGIN BOND
M  V30 1 2 1 2
M  V30 2 1 2 3
M  V30 3 1 2 4
M  V30 4 2 3 5
M  V30 5 1 3 6
M  V30 6 1 4 7
M  V30 7 1 4 8
M  V30 8 1 5 9
M  V30 9 2 6 10
M  V30 10 1 7 11
M  V30 11 1 8 12
M  V30 12 2 9 13
M  V30 13 1 11 14
M  V30 14 1 10 13
M  V30 15 1 12 14
M  V30 16 1 4 15
M  V30 17 1 5 16
M  V30 18 1 6 17
M  V30 19 1 7 18
M  V30 20 1 7 19
M  V30 21 1 8 20
M  V30 22 1 8 21
M  V30 23 1 9 22
M  V30 24 1 10 23
M  V30 25 1 11 24
M  V30 26 1 11 25
M  V30 27 1 12 26
M  V30 28 1 12 27
M  V30 29 1 13 28
M  V30 30 1 14 29
M  V30 31 1 14 30
M  V30 END BOND
M  V30 END CTAB
M  END
>  <Structure No>
799

>  <LogS>
-4.014709735

>  <MMFF94 Energy>
40.614

$$$$
Compound 800
Actelion Java MolfileCreator 2.0

  0  0  0  0  0  0              0 V3000
M  V30 BEGIN CTAB
M  V30 COUNTS 12 12 0 0 0
M  V30 BEGIN ATOM
M  V30 1 Cl 1.0589 2.8255 -0.2646 0
M  V30 2 C 0.4381 1.18 -0.1373 0
M  V30 3 C 1.3228 0.0852 -0.1602 0
M  V30 4 C -0.9455 0.9523 -0.0122 0
M  V30 5 Cl 3.0597 0.3166 -0.3148 0
M  V30 6 C 0.8236 -1.2183 -0.0587 0
M  V30 7 Cl -2.0923 2.286 0.0214 0
M  V30 8 C -1.4319 -0.3562 0.0884 0
M  V30 9 C -0.5498 -1.4381 0.0651 0
M  V30 10 H 1.5003 -2.0632 -0.0758 0
M  V30 11 H -2.4953 -0.5358 0.1848 0
M  V30 12 H -0.9308 -2.4482 0.1433 0
M  V30 END ATOM
M  V30 BEGIN BOND
M  V30 1 1 1 2
M  V30 2 2 2 3
M  V30 3 1 2 4
M  V30 4 1 3 5
M  V30 5 1 3 6
M  V30 6 1 4 7
M  V30 7 2 4 8
M  V30 8 2 6 9
M  V30 9 1 8 9
M  V30 10 1 6 10
M  V30 11 1 8 11
M  V30 12 1 9 12
M  V30 END BOND
M  V30 END CTAB
M  END
>  <Structure No>
800

>  <LogS>
-4.003482074

>  <MMFF94 Energy>
28.128

$$$$
Compound 801
Actelion Java MolfileCreator 2.0

  0  0  0  0  0  0              0 V3000
M  V30 BEGIN CTAB
M  V30 COUNTS 40 41 0 0 0
M  V30 BEGIN ATOM
M  V30 1 S -6.9787 0.6631 -1.6583 0
M  V30 2 O -7.5113 2.0667 -1.7265 0
M  V30 3 O -7.9225 -0.1942 -0.8644 0
M  V30 4 O -6.8587 0.0351 -3.2121 0 CHG=-1
M  V30 5 C -5.3945 0.6701 -0.8927 0
M  V30 6 C -4.2369 0.7803 -1.6721 0
M  V30 7 C -5.2872 0.6046 0.4997 0
M  V30 8 C -2.9661 0.8098 -1.0712 0
M  V30 9 C -4.031 0.6122 1.1078 0
M  V30 10 N -1.8117 1.046 -1.8907 0 CHG=1
M  V30 11 C -2.8641 0.6858 0.3371 0
M  V30 12 O -1.7363 0.5369 -3.0277 0
M  V30 13 O -0.9085 2.0216 -1.5358 0 CHG=-1
M  V30 14 N -1.6077 0.5808 1.0177 0 CHG=-1
M  V30 15 N -0.4428 0.1094 0.3951 0
M  V30 16 C 0.7038 0.0114 1.0031 0
M  V30 17 C 1.8768 -0.4208 0.2128 0
M  V30 18 C 0.8663 0.3753 2.4339 0
M  V30 19 O 1.7877 -0.4685 -1.0449 0
M  V30 20 N 3.0891 -0.841 0.8618 0
M  V30 21 O 1.8809 1.0317 2.7927 0
M  V30 22 C -0.1448 -0.0102 3.4699 0
M  V30 23 C 4.3646 -0.9196 0.2018 0
M  V30 24 C 4.7101 -0.0337 -0.8366 0
M  V30 25 C 5.3104 -1.8614 0.639 0
M  V30 26 C 5.9668 -0.1158 -1.4447 0
M  V30 27 C 6.5657 -1.9404 0.028 0
M  V30 28 C 6.8923 -1.0707 -1.0155 0
M  V30 29 H -4.3245 0.8802 -2.7471 0
M  V30 30 H -6.1754 0.5385 1.1157 0
M  V30 31 H -3.9631 0.5313 2.1858 0
M  V30 32 H 3.0225 -1.2021 1.8405 0
M  V30 33 H -0.8591 0.8248 3.6271 0
M  V30 34 H -0.6978 -0.92 3.1541 0
M  V30 35 H 0.365 -0.2302 4.4319 0
M  V30 36 H 4.0226 0.7358 -1.1618 0
M  V30 37 H 5.0701 -2.5401 1.448 0
M  V30 38 H 6.2263 0.5673 -2.2432 0
M  V30 39 H 7.2862 -2.6745 0.3653 0
M  V30 40 H 7.8648 -1.1318 -1.4867 0
M  V30 END ATOM
M  V30 BEGIN BOND
M  V30 1 2 1 2
M  V30 2 2 1 3
M  V30 3 1 1 4
M  V30 4 1 1 5
M  V30 5 2 5 6
M  V30 6 1 5 7
M  V30 7 1 6 8
M  V30 8 2 7 9
M  V30 9 1 8 10
M  V30 10 2 8 11
M  V30 11 2 10 12
M  V30 12 1 10 13
M  V30 13 1 11 14
M  V30 14 1 14 15
M  V30 15 2 15 16
M  V30 16 1 16 17
M  V30 17 1 16 18
M  V30 18 2 17 19
M  V30 19 1 17 20
M  V30 20 2 18 21
M  V30 21 1 18 22
M  V30 22 1 20 23
M  V30 23 2 23 24
M  V30 24 1 23 25
M  V30 25 1 24 26
M  V30 26 2 25 27
M  V30 27 2 26 28
M  V30 28 1 9 11
M  V30 29 1 27 28
M  V30 30 1 6 29
M  V30 31 1 7 30
M  V30 32 1 9 31
M  V30 33 1 20 32
M  V30 34 1 22 33
M  V30 35 1 22 34
M  V30 36 1 22 35
M  V30 37 1 24 36
M  V30 38 1 25 37
M  V30 39 1 26 38
M  V30 40 1 27 39
M  V30 41 1 28 40
M  V30 END BOND
M  V30 END CTAB
M  END
>  <Structure No>
801

>  <LogS>
-4.674562122

>  <MMFF94 Energy>
178.98

$$$$
Compound 802
Actelion Java MolfileCreator 2.0

  0  0  0  0  0  0              0 V3000
M  V30 BEGIN CTAB
M  V30 COUNTS 26 26 0 0 0
M  V30 BEGIN ATOM
M  V30 1 O 2.2185 -1.505 1.1088 0
M  V30 2 C 1.8342 -0.5819 0.3386 0
M  V30 3 O 2.7464 0.0339 -0.5242 0
M  V30 4 C 0.4099 -0.1627 0.3376 0
M  V30 5 C 4.1242 -0.3167 -0.5631 0
M  V30 6 C -0.6025 -1.1435 0.4511 0
M  V30 7 C 0.0485 1.2024 0.2186 0
M  V30 8 O -0.2296 -2.4892 0.5529 0
M  V30 9 C -1.9671 -0.7669 0.4402 0
M  V30 10 C -1.3062 1.5565 0.1783 0
M  V30 11 C 1.0798 2.2993 0.1307 0
M  V30 12 C -2.3084 0.5902 0.2911 0
M  V30 13 C -3.0478 -1.8125 0.5669 0
M  V30 14 O -3.6471 0.9838 0.2554 0
M  V30 15 H 4.2367 -1.3858 -0.8422 0
M  V30 16 H 4.6381 0.3091 -1.321 0
M  V30 17 H 4.5903 -0.136 0.4287 0
M  V30 18 H -0.8911 -3.2514 0.6212 0
M  V30 19 H -1.5903 2.5964 0.0689 0
M  V30 20 H 0.6346 3.2942 0.346 0
M  V30 21 H 1.5114 2.3257 -0.8914 0
M  V30 22 H 1.8867 2.134 0.8754 0
M  V30 23 H -2.911 -2.3813 1.5106 0
M  V30 24 H -2.9971 -2.5087 -0.2964 0
M  V30 25 H -4.067 -1.3754 0.5896 0
M  V30 26 H -3.9154 1.9552 0.1491 0
M  V30 END ATOM
M  V30 BEGIN BOND
M  V30 1 2 1 2
M  V30 2 1 2 3
M  V30 3 1 2 4
M  V30 4 1 3 5
M  V30 5 2 4 6
M  V30 6 1 4 7
M  V30 7 1 6 8
M  V30 8 1 6 9
M  V30 9 2 7 10
M  V30 10 1 7 11
M  V30 11 2 9 12
M  V30 12 1 9 13
M  V30 13 1 12 14
M  V30 14 1 10 12
M  V30 15 1 5 15
M  V30 16 1 5 16
M  V30 17 1 5 17
M  V30 18 1 8 18
M  V30 19 1 10 19
M  V30 20 1 11 20
M  V30 21 1 11 21
M  V30 22 1 11 22
M  V30 23 1 13 23
M  V30 24 1 13 24
M  V30 25 1 13 25
M  V30 26 1 14 26
M  V30 END BOND
M  V30 END CTAB
M  END
>  <Structure No>
802

>  <LogS>
-4.037430925

>  <MMFF94 Energy>
29.899

$$$$
Compound 803
Actelion Java MolfileCreator 2.0

  0  0  0  0  0  0              0 V3000
M  V30 BEGIN CTAB
M  V30 COUNTS 26 27 0 0 0
M  V30 BEGIN ATOM
M  V30 1 Cl 3.6085 2.7875 0.9012 0
M  V30 2 C 2.8262 1.2761 0.4545 0
M  V30 3 C 3.5696 0.1388 0.0809 0
M  V30 4 C 1.4273 1.2187 0.4806 0
M  V30 5 N 5.002 0.1634 0.0427 0
M  V30 6 C 2.8935 -1.0405 -0.2606 0
M  V30 7 C 0.749 0.0359 0.1381 0
M  V30 8 C 1.4981 -1.0935 -0.2324 0
M  V30 9 C -0.7351 -0.0192 0.1674 0
M  V30 10 C -1.3986 -1.1517 0.6713 0
M  V30 11 C -1.4991 1.0597 -0.3083 0
M  V30 12 C -2.7974 -1.2088 0.701 0
M  V30 13 C -2.8944 1.0066 -0.2816 0
M  V30 14 Cl -3.5606 -2.6549 1.351 0
M  V30 15 C -3.5559 -0.1224 0.221 0
M  V30 16 N -4.9888 -0.1484 0.2358 0
M  V30 17 H 0.8707 2.0962 0.7865 0
M  V30 18 H 5.5394 -0.6878 -0.2356 0
M  V30 19 H 5.5467 1.0188 0.2875 0
M  V30 20 H 3.45 -1.922 -0.5535 0
M  V30 21 H 1.0043 -2.0138 -0.518 0
M  V30 22 H -0.83 -1.9876 1.0598 0
M  V30 23 H -1.0176 1.9386 -0.7184 0
M  V30 24 H -3.4627 1.8484 -0.6575 0
M  V30 25 H -5.5231 -0.9674 0.5992 0
M  V30 26 H -5.5374 0.6649 -0.1229 0
M  V30 END ATOM
M  V30 BEGIN BOND
M  V30 1 1 1 2
M  V30 2 2 2 3
M  V30 3 1 2 4
M  V30 4 1 3 5
M  V30 5 1 3 6
M  V30 6 2 4 7
M  V30 7 2 6 8
M  V30 8 1 7 9
M  V30 9 2 9 10
M  V30 10 1 9 11
M  V30 11 1 10 12
M  V30 12 2 11 13
M  V30 13 1 12 14
M  V30 14 2 12 15
M  V30 15 1 15 16
M  V30 16 1 7 8
M  V30 17 1 13 15
M  V30 18 1 4 17
M  V30 19 1 5 18
M  V30 20 1 5 19
M  V30 21 1 6 20
M  V30 22 1 8 21
M  V30 23 1 10 22
M  V30 24 1 11 23
M  V30 25 1 13 24
M  V30 26 1 16 25
M  V30 27 1 16 26
M  V30 END BOND
M  V30 END CTAB
M  END
>  <Structure No>
803

>  <LogS>
-3.26286953

>  <MMFF94 Energy>
61.201

$$$$
Compound 804
Actelion Java MolfileCreator 2.0

  0  0  0  0  0  0              0 V3000
M  V30 BEGIN CTAB
M  V30 COUNTS 29 29 0 0 0
M  V30 BEGIN ATOM
M  V30 1 O -0.3141 1.0998 1.3356 0
M  V30 2 C -0.5401 0.1469 0.3161 0 CFG=1
M  V30 3 C -2.0881 -0.122 0.2221 0
M  V30 4 C 0.0765 0.6321 -1.0281 0
M  V30 5 C 0.2148 -1.1407 0.7232 0
M  V30 6 C -2.8975 1.1446 -0.1131 0
M  V30 7 C -2.4883 -1.2494 -0.7508 0
M  V30 8 C 1.5799 0.7416 -0.9607 0
M  V30 9 C 1.7061 -0.8598 0.9634 0
M  V30 10 C 2.3301 0.0054 -0.114 0
M  V30 11 C 3.827 0.1432 -0.1564 0
M  V30 12 H -0.4604 2.0096 0.9679 0
M  V30 13 H -2.4237 -0.4465 1.2328 0
M  V30 14 H -0.1608 -0.0772 -1.8462 0
M  V30 15 H -0.3332 1.623 -1.3154 0
M  V30 16 H 0.1431 -1.9056 -0.0796 0
M  V30 17 H -0.2259 -1.5707 1.6493 0
M  V30 18 H -2.7152 1.9459 0.6318 0
M  V30 19 H -2.6516 1.5206 -1.1278 0
M  V30 20 H -3.9853 0.9196 -0.0847 0
M  V30 21 H -3.5896 -1.3958 -0.7248 0
M  V30 22 H -2.206 -1.0071 -1.7952 0
M  V30 23 H -2.0374 -2.2177 -0.4563 0
M  V30 24 H 2.0703 1.3735 -1.6966 0
M  V30 25 H 2.2466 -1.8294 1.0182 0
M  V30 26 H 1.8323 -0.3489 1.9424 0
M  V30 27 H 4.306 -0.4729 0.6337 0
M  V30 28 H 4.2066 -0.1928 -1.1443 0
M  V30 29 H 4.1142 1.2042 0.0043 0
M  V30 END ATOM
M  V30 BEGIN BOND
M  V30 1 1 1 2
M  V30 2 1 2 3
M  V30 3 1 2 4
M  V30 4 1 2 5
M  V30 5 1 3 6
M  V30 6 1 3 7
M  V30 7 1 4 8
M  V30 8 1 5 9
M  V30 9 2 8 10
M  V30 10 1 10 11
M  V30 11 1 9 10
M  V30 12 1 1 12
M  V30 13 1 3 13
M  V30 14 1 4 14
M  V30 15 1 4 15
M  V30 16 1 5 16
M  V30 17 1 5 17
M  V30 18 1 6 18
M  V30 19 1 6 19
M  V30 20 1 6 20
M  V30 21 1 7 21
M  V30 22 1 7 22
M  V30 23 1 7 23
M  V30 24 1 8 24
M  V30 25 1 9 25
M  V30 26 1 9 26
M  V30 27 1 11 27
M  V30 28 1 11 28
M  V30 29 1 11 29
M  V30 END BOND
M  V30 BEGIN COLLECTION
M  V30 MDLV30/STEABS ATOMS=(1 2)
M  V30 END COLLECTION
M  V30 END CTAB
M  END
>  <Structure No>
804

>  <LogS>
-1.94099707

>  <MMFF94 Energy>
31.666

$$$$
Compound 805
Actelion Java MolfileCreator 2.0

  0  0  0  0  0  0              0 V3000
M  V30 BEGIN CTAB
M  V30 COUNTS 25 26 0 0 0
M  V30 BEGIN ATOM
M  V30 1 Cl 3.2524 0.7311 -1.0561 0
M  V30 2 C 2.3269 -0.1518 0.2027 0
M  V30 3 N 0.8519 -0.0382 0.0513 0 CHG=1
M  V30 4 C 0.1957 -0.8083 1.1482 0
M  V30 5 C 0.4095 1.3827 0.1458 0
M  V30 6 C 0.4004 -0.6022 -1.2532 0
M  V30 7 C -1.3456 -0.7144 1.0252 0
M  V30 8 C -1.1335 1.47 0.0225 0
M  V30 9 C -1.1426 -0.5059 -1.3701 0
M  V30 10 N -1.6963 0.1133 -0.1469 0 CHG=1
M  V30 11 F -3.044 0.1948 -0.2536 0
M  V30 12 H 2.6477 0.2465 1.191 0
M  V30 13 H 2.641 -1.2184 0.1585 0
M  V30 14 H 0.5063 -0.4156 2.1438 0
M  V30 15 H 0.4996 -1.8798 1.1118 0
M  V30 16 H 0.7294 1.8286 1.1154 0
M  V30 17 H 0.8643 1.9961 -0.663 0
M  V30 18 H 0.8549 -0.0493 -2.1048 0
M  V30 19 H 0.7134 -1.6671 -1.3485 0
M  V30 20 H -1.7816 -1.7337 0.9207 0
M  V30 21 H -1.7749 -0.2707 1.9518 0
M  V30 22 H -1.5598 1.9524 0.9311 0
M  V30 23 H -1.4102 2.1109 -0.845 0
M  V30 24 H -1.4194 0.0974 -2.2642 0
M  V30 25 H -1.5757 -1.5211 -1.5171 0
M  V30 END ATOM
M  V30 BEGIN BOND
M  V30 1 1 1 2
M  V30 2 1 2 3
M  V30 3 1 3 4
M  V30 4 1 3 5
M  V30 5 1 3 6
M  V30 6 1 4 7
M  V30 7 1 5 8
M  V30 8 1 6 9
M  V30 9 1 7 10
M  V30 10 1 10 11
M  V30 11 1 8 10
M  V30 12 1 9 10
M  V30 13 1 2 12
M  V30 14 1 2 13
M  V30 15 1 4 14
M  V30 16 1 4 15
M  V30 17 1 5 16
M  V30 18 1 5 17
M  V30 19 1 6 18
M  V30 20 1 6 19
M  V30 21 1 7 20
M  V30 22 1 7 21
M  V30 23 1 8 22
M  V30 24 1 8 23
M  V30 25 1 9 24
M  V30 26 1 9 25
M  V30 END BOND
M  V30 END CTAB
M  END
>  <Structure No>
805

>  <LogS>
-0.303811902

>  <MMFF94 Energy>
220.61

$$$$
Compound 806
Actelion Java MolfileCreator 2.0

  0  0  0  0  0  0              0 V3000
M  V30 BEGIN CTAB
M  V30 COUNTS 22 22 0 0 0
M  V30 BEGIN ATOM
M  V30 1 O -1.2759 -3.3521 1.3557 0
M  V30 2 N -1.6915 -2.1906 1.1613 0 CHG=1
M  V30 3 O -3.0027 -1.9059 1.4658 0 CHG=-1
M  V30 4 C -0.7945 -1.1652 0.6835 0
M  V30 5 C -1.281 0.0766 0.2103 0
M  V30 6 C 0.594 -1.4021 0.6828 0
M  V30 7 O -2.6655 0.3118 0.1816 0
M  V30 8 C -0.3659 1.0507 -0.2352 0
M  V30 9 C 1.4958 -0.4325 0.2363 0
M  V30 10 C -3.2767 1.515 -0.2735 0
M  V30 11 C 1.0058 0.7998 -0.2222 0
M  V30 12 O 2.8661 -0.7329 0.2665 0
M  V30 13 C 3.8943 0.1568 -0.1558 0
M  V30 14 H 0.9859 -2.3458 1.0408 0
M  V30 15 H -0.7061 2.0099 -0.6004 0
M  V30 16 H -4.3779 1.419 -0.1808 0
M  V30 17 H -3.0247 1.6918 -1.3403 0
M  V30 18 H -2.9419 2.3725 0.3475 0
M  V30 19 H 1.6769 1.5714 -0.5737 0
M  V30 20 H 3.8753 1.0816 0.4585 0
M  V30 21 H 3.7643 0.4082 -1.2296 0
M  V30 22 H 4.8783 -0.3374 -0.0233 0
M  V30 END ATOM
M  V30 BEGIN BOND
M  V30 1 2 1 2
M  V30 2 1 2 3
M  V30 3 1 2 4
M  V30 4 2 4 5
M  V30 5 1 4 6
M  V30 6 1 5 7
M  V30 7 1 5 8
M  V30 8 2 6 9
M  V30 9 1 7 10
M  V30 10 2 8 11
M  V30 11 1 9 12
M  V30 12 1 12 13
M  V30 13 1 9 11
M  V30 14 1 6 14
M  V30 15 1 8 15
M  V30 16 1 10 16
M  V30 17 1 10 17
M  V30 18 1 10 18
M  V30 19 1 11 19
M  V30 20 1 13 20
M  V30 21 1 13 21
M  V30 22 1 13 22
M  V30 END BOND
M  V30 END CTAB
M  END
>  <Structure No>
806

>  <LogS>
-3.01732508

>  <MMFF94 Energy>
54.532

$$$$
Compound 807
Actelion Java MolfileCreator 2.0

  0  0  0  0  0  0              0 V3000
M  V30 BEGIN CTAB
M  V30 COUNTS 10 10 0 0 0
M  V30 BEGIN ATOM
M  V30 1 O 2.6152 -0.8984 0.735 0
M  V30 2 N 2.019 -0.0195 0.0796 0 CHG=1
M  V30 3 O 2.745 0.9367 -0.5907 0 CHG=-1
M  V30 4 C 0.5916 -0.0055 0.0251 0
M  V30 5 N -0.1128 0.9156 -0.6643 0
M  V30 6 N -0.1866 -0.9126 0.6583 0 CHG=-1
M  V30 7 N -1.3812 0.6025 -0.4766 0
M  V30 8 C -1.4136 -0.4836 0.3093 0
M  V30 9 O -2.4778 -1.0435 0.682 0
M  V30 10 H -2.1935 1.1216 -0.8781 0
M  V30 END ATOM
M  V30 BEGIN BOND
M  V30 1 2 1 2
M  V30 2 1 2 3
M  V30 3 1 2 4
M  V30 4 2 4 5
M  V30 5 1 4 6
M  V30 6 1 5 7
M  V30 7 1 6 8
M  V30 8 2 8 9
M  V30 9 1 7 8
M  V30 10 1 7 10
M  V30 END BOND
M  V30 END CTAB
M  END
>  <Structure No>
807

>  <LogS>
-0.87862532

>  <MMFF94 Energy>
92.967

$$$$
Compound 808
Actelion Java MolfileCreator 2.0

  0  0  0  0  0  0              0 V3000
M  V30 BEGIN CTAB
M  V30 COUNTS 21 22 0 0 0
M  V30 BEGIN ATOM
M  V30 1 O 4.4884 0.1572 0.1572 0
M  V30 2 C 3.23 0.1243 0.1245 0
M  V30 3 N 2.4507 1.1472 0.5492 0
M  V30 4 N 2.5284 -0.9372 -0.3384 0
M  V30 5 C 1.2017 0.6988 0.3394 0
M  V30 6 C 1.2483 -0.5549 -0.1944 0
M  V30 7 C -8.0E-4 1.3462 0.5976 0
M  V30 8 C 0.0963 -1.2642 -0.514 0
M  V30 9 C -1.2017 0.6681 0.2907 0
M  V30 10 C -1.1543 -0.6485 -0.2699 0
M  V30 11 N -2.4501 1.3237 0.5517 0
M  V30 12 C -2.4147 -1.3964 -0.6075 0
M  V30 13 H 2.7498 2.0662 0.9454 0
M  V30 14 H 2.8952 -1.8387 -0.7174 0
M  V30 15 H -0.0092 2.3422 1.0222 0
M  V30 16 H 0.1677 -2.2586 -0.9368 0
M  V30 17 H -2.4673 2.2844 0.9612 0
M  V30 18 H -3.3684 0.8738 0.3463 0
M  V30 19 H -3.0246 -1.5378 0.3093 0
M  V30 20 H -2.195 -2.3992 -1.0318 0
M  V30 21 H -2.9998 -0.8264 -1.3594 0
M  V30 END ATOM
M  V30 BEGIN BOND
M  V30 1 2 1 2
M  V30 2 1 2 3
M  V30 3 1 2 4
M  V30 4 1 3 5
M  V30 5 1 4 6
M  V30 6 1 5 7
M  V30 7 1 6 8
M  V30 8 2 7 9
M  V30 9 2 8 10
M  V30 10 1 9 11
M  V30 11 1 10 12
M  V30 12 2 5 6
M  V30 13 1 9 10
M  V30 14 1 3 13
M  V30 15 1 4 14
M  V30 16 1 7 15
M  V30 17 1 8 16
M  V30 18 1 11 17
M  V30 19 1 11 18
M  V30 20 1 12 19
M  V30 21 1 12 20
M  V30 22 1 12 21
M  V30 END BOND
M  V30 END CTAB
M  END
>  <Structure No>
808

>  <LogS>
-1.977138482

>  <MMFF94 Energy>
-33.864

$$$$
Compound 809
Actelion Java MolfileCreator 2.0

  0  0  0  0  0  0              0 V3000
M  V30 BEGIN CTAB
M  V30 COUNTS 28 27 0 0 0
M  V30 BEGIN ATOM
M  V30 1 O -0.4641 0.6962 -0.0773 0
M  V30 2 O 0.4102 -0.1008 -0.6788 0
M  V30 3 C -1.711 0.0262 -0.0325 0
M  V30 4 C 1.6886 0.1519 -0.1246 0
M  V30 5 C -1.6111 -1.2783 0.787 0
M  V30 6 C -2.7077 0.9674 0.6612 0
M  V30 7 C -2.2231 -0.2733 -1.4579 0
M  V30 8 C 2.1123 1.6161 -0.3704 0
M  V30 9 C 1.7117 -0.1668 1.3859 0
M  V30 10 C 2.6841 -0.7754 -0.8379 0
M  V30 11 H -0.9314 -2.007 0.2962 0
M  V30 12 H -1.2207 -1.0648 1.805 0
M  V30 13 H -2.61 -1.7557 0.8856 0
M  V30 14 H -2.7982 1.9194 0.0946 0
M  V30 15 H -3.7144 0.501 0.7318 0
M  V30 16 H -2.3579 1.2102 1.688 0
M  V30 17 H -1.5662 -1.0076 -1.9711 0
M  V30 18 H -3.2496 -0.6986 -1.4247 0
M  V30 19 H -2.2442 0.6588 -2.0623 0
M  V30 20 H 2.0442 1.8591 -1.4525 0
M  V30 21 H 3.1583 1.7838 -0.0336 0
M  V30 22 H 1.4577 2.3194 0.1873 0
M  V30 23 H 1.0357 0.5125 1.9478 0
M  V30 24 H 1.3843 -1.2134 1.564 0
M  V30 25 H 2.7373 -0.0436 1.7961 0
M  V30 26 H 2.3964 -1.8384 -0.6872 0
M  V30 27 H 3.7151 -0.6294 -0.4483 0
M  V30 28 H 2.6869 -0.5712 -1.9305 0
M  V30 END ATOM
M  V30 BEGIN BOND
M  V30 1 1 1 2
M  V30 2 1 1 3
M  V30 3 1 2 4
M  V30 4 1 3 5
M  V30 5 1 3 6
M  V30 6 1 3 7
M  V30 7 1 4 8
M  V30 8 1 4 9
M  V30 9 1 4 10
M  V30 10 1 5 11
M  V30 11 1 5 12
M  V30 12 1 5 13
M  V30 13 1 6 14
M  V30 14 1 6 15
M  V30 15 1 6 16
M  V30 16 1 7 17
M  V30 17 1 7 18
M  V30 18 1 7 19
M  V30 19 1 8 20
M  V30 20 1 8 21
M  V30 21 1 8 22
M  V30 22 1 9 23
M  V30 23 1 9 24
M  V30 24 1 9 25
M  V30 25 1 10 26
M  V30 26 1 10 27
M  V30 27 1 10 28
M  V30 END BOND
M  V30 END CTAB
M  END
>  <Structure No>
809

>  <LogS>
-2.93204037

>  <MMFF94 Energy>
26.251

$$$$
Compound 810
Actelion Java MolfileCreator 2.0

  0  0  0  0  0  0              0 V3000
M  V30 BEGIN CTAB
M  V30 COUNTS 25 25 0 0 0
M  V30 BEGIN ATOM
M  V30 1 O -2.2816 1.0223 -0.8649 0
M  V30 2 C -1.8925 -0.0742 -0.3757 0
M  V30 3 O -2.817 -1.0683 -0.0368 0
M  V30 4 C -0.4598 -0.3354 -0.1601 0
M  V30 5 C -4.2286 -0.9041 -0.1599 0
M  V30 6 C 0.4843 0.5751 -0.4374 0
M  V30 7 C -4.7687 -0.0268 0.9635 0
M  V30 8 C 1.935 0.3507 -0.2213 0
M  V30 9 C 2.7824 1.4688 -0.1294 0
M  V30 10 C 2.5003 -0.939 -0.1401 0
M  V30 11 C 4.1572 1.305 0.0645 0
M  V30 12 C 3.8765 -1.0964 0.0531 0
M  V30 13 C 4.7033 0.0236 0.1589 0
M  V30 14 H -0.1952 -1.2943 0.2625 0
M  V30 15 H -4.4833 -0.4654 -1.1493 0
M  V30 16 H -4.7076 -1.9034 -0.093 0
M  V30 17 H 0.1813 1.5499 -0.8022 0
M  V30 18 H -4.3414 0.9953 0.8968 0
M  V30 19 H -5.8739 0.0433 0.8838 0
M  V30 20 H -4.5061 -0.4679 1.9482 0
M  V30 21 H 2.378 2.4714 -0.1998 0
M  V30 22 H 1.895 -1.8279 -0.2484 0
M  V30 23 H 4.7995 2.1729 0.1407 0
M  V30 24 H 4.3033 -2.0892 0.1138 0
M  V30 25 H 5.768 -0.1013 0.3074 0
M  V30 END ATOM
M  V30 BEGIN BOND
M  V30 1 2 1 2
M  V30 2 1 2 3
M  V30 3 1 2 4
M  V30 4 1 3 5
M  V30 5 2 4 6
M  V30 6 1 5 7
M  V30 7 1 6 8
M  V30 8 2 8 9
M  V30 9 1 8 10
M  V30 10 1 9 11
M  V30 11 2 10 12
M  V30 12 2 11 13
M  V30 13 1 12 13
M  V30 14 1 4 14
M  V30 15 1 5 15
M  V30 16 1 5 16
M  V30 17 1 6 17
M  V30 18 1 7 18
M  V30 19 1 7 19
M  V30 20 1 7 20
M  V30 21 1 9 21
M  V30 22 1 10 22
M  V30 23 1 11 23
M  V30 24 1 12 24
M  V30 25 1 13 25
M  V30 END BOND
M  V30 END CTAB
M  END
>  <Structure No>
810

>  <LogS>
-3.013046764

>  <MMFF94 Energy>
8.092

$$$$
Compound 811
Actelion Java MolfileCreator 2.0

  0  0  0  0  0  0              0 V3000
M  V30 BEGIN CTAB
M  V30 COUNTS 43 46 0 0 0
M  V30 BEGIN ATOM
M  V30 1 S 3.3249 1.2458 2.3265 0
M  V30 2 O 2.5903 0.2992 3.2337 0
M  V30 3 O 2.611 2.5676 2.2875 0
M  V30 4 O 4.8716 1.4796 2.9411 0 CHG=-1
M  V30 5 C 3.4067 0.5671 0.6961 0
M  V30 6 C 2.259 0.0485 0.0509 0
M  V30 7 C 4.6497 0.5162 0.0457 0
M  V30 8 N 0.9606 0.1213 0.6712 0
M  V30 9 C 2.3901 -0.5146 -1.2311 0
M  V30 10 C 4.7657 -0.0341 -1.2379 0
M  V30 11 C -0.0635 -0.8656 0.4626 0
M  V30 12 C 3.6322 -0.5646 -1.8644 0
M  V30 13 C 6.1069 -0.1196 -1.9048 0
M  V30 14 C -1.4134 -0.4966 0.215 0
M  V30 15 C 0.2739 -2.2175 0.5919 0
M  V30 16 C -1.7993 0.9194 -0.0654 0
M  V30 17 C -2.4139 -1.5053 0.174 0
M  V30 18 C -0.6913 -3.2055 0.4522 0
M  V30 19 O -0.9162 1.8087 -0.2057 0
M  V30 20 C -3.2208 1.2881 -0.2517 0
M  V30 21 C -3.847 -1.0951 0.1528 0
M  V30 22 C -2.024 -2.8712 0.2179 0
M  V30 23 C -4.2203 0.3025 -0.1514 0
M  V30 24 C -3.5869 2.6194 -0.5292 0
M  V30 25 O -4.7512 -1.91 0.4808 0
M  V30 26 O -2.9139 -3.9255 -0.0014 0
M  V30 27 C -5.5702 0.6624 -0.3249 0
M  V30 28 C -4.9294 2.9628 -0.7024 0
M  V30 29 C -5.9194 1.986 -0.6004 0
M  V30 30 H 5.5333 0.904 0.5367 0
M  V30 31 H 0.7568 0.8919 1.3451 0
M  V30 32 H 1.5242 -0.9057 -1.75 0
M  V30 33 H 3.7075 -1.0105 -2.8485 0
M  V30 34 H 6.7473 0.738 -1.6073 0
M  V30 35 H 5.9982 -0.0985 -3.0102 0
M  V30 36 H 6.6068 -1.0652 -1.6082 0
M  V30 37 H 1.2967 -2.5069 0.7989 0
M  V30 38 H -0.3989 -4.2462 0.515 0
M  V30 39 H -2.8369 3.3961 -0.6112 0
M  V30 40 H -3.8097 -3.8172 -0.4562 0
M  V30 41 H -6.3558 -0.0794 -0.2518 0
M  V30 42 H -5.2024 3.9885 -0.9154 0
M  V30 43 H -6.9594 2.2544 -0.7346 0
M  V30 END ATOM
M  V30 BEGIN BOND
M  V30 1 2 1 2
M  V30 2 2 1 3
M  V30 3 1 1 4
M  V30 4 1 1 5
M  V30 5 2 5 6
M  V30 6 1 5 7
M  V30 7 1 6 8
M  V30 8 1 6 9
M  V30 9 2 7 10
M  V30 10 1 8 11
M  V30 11 2 9 12
M  V30 12 1 10 13
M  V30 13 2 11 14
M  V30 14 1 11 15
M  V30 15 1 14 16
M  V30 16 1 14 17
M  V30 17 2 15 18
M  V30 18 2 16 19
M  V30 19 1 16 20
M  V30 20 1 17 21
M  V30 21 2 17 22
M  V30 22 2 20 23
M  V30 23 1 20 24
M  V30 24 2 21 25
M  V30 25 1 22 26
M  V30 26 1 23 27
M  V30 27 2 24 28
M  V30 28 2 27 29
M  V30 29 1 10 12
M  V30 30 1 18 22
M  V30 31 1 21 23
M  V30 32 1 28 29
M  V30 33 1 7 30
M  V30 34 1 8 31
M  V30 35 1 9 32
M  V30 36 1 12 33
M  V30 37 1 13 34
M  V30 38 1 13 35
M  V30 39 1 13 36
M  V30 40 1 15 37
M  V30 41 1 18 38
M  V30 42 1 24 39
M  V30 43 1 26 40
M  V30 44 1 27 41
M  V30 45 1 28 42
M  V30 46 1 29 43
M  V30 END BOND
M  V30 END CTAB
M  END
>  <Structure No>
811

>  <LogS>
-2.402393281

>  <MMFF94 Energy>
133.12

$$$$
Compound 812
Actelion Java MolfileCreator 2.0

  0  0  0  0  0  0              0 V3000
M  V30 BEGIN CTAB
M  V30 COUNTS 15 16 0 0 0
M  V30 BEGIN ATOM
M  V30 1 S 1.5695 1.9002 0.0 0
M  V30 2 N 2.6573 0.6407 0.095 0
M  V30 3 C 0.1623 1.0052 -0.0259 0
M  V30 4 C 1.9295 -0.507 0.1079 0
M  V30 5 C 0.5318 -0.3302 0.0413 0
M  V30 6 C -1.1644 1.4158 -0.0985 0
M  V30 7 O 2.4767 -1.6396 0.1749 0
M  V30 8 C -0.4507 -1.3259 0.0374 0
M  V30 9 C -2.1567 0.4224 -0.1028 0
M  V30 10 C -1.8021 -0.9409 -0.0352 0
M  V30 11 H 3.6975 0.7179 0.1366 0
M  V30 12 H -1.424 2.4652 -0.15 0
M  V30 13 H -0.183 -2.3734 0.0892 0
M  V30 14 H -3.1999 0.705 -0.1582 0
M  V30 15 H -2.5758 -1.6976 -0.0392 0
M  V30 END ATOM
M  V30 BEGIN BOND
M  V30 1 1 1 2
M  V30 2 1 1 3
M  V30 3 1 2 4
M  V30 4 2 3 5
M  V30 5 1 3 6
M  V30 6 2 4 7
M  V30 7 1 5 8
M  V30 8 2 6 9
M  V30 9 2 8 10
M  V30 10 1 4 5
M  V30 11 1 9 10
M  V30 12 1 2 11
M  V30 13 1 6 12
M  V30 14 1 8 13
M  V30 15 1 9 14
M  V30 16 1 10 15
M  V30 END BOND
M  V30 END CTAB
M  END
>  <Structure No>
812

>  <LogS>
-1.947289546

>  <MMFF94 Energy>
17.967

$$$$
Compound 813
Actelion Java MolfileCreator 2.0

  0  0  0  0  0  0              0 V3000
M  V30 BEGIN CTAB
M  V30 COUNTS 40 41 0 0 0
M  V30 BEGIN ATOM
M  V30 1 S 5.5038 -1.859 0.0 0
M  V30 2 C 3.8835 -1.094 0.0838 0
M  V30 3 C 6.2472 -0.6981 1.1878 0
M  V30 4 C 3.5509 -0.0573 -0.7957 0
M  V30 5 C 2.9473 -1.5354 1.0259 0
M  V30 6 C 2.2872 0.5373 -0.7333 0
M  V30 7 C 1.6833 -0.9415 1.0899 0
M  V30 8 C 1.3406 0.0879 0.2008 0
M  V30 9 C 0.0079 0.7161 0.2919 0
M  V30 10 O -0.28 1.3154 1.3626 0
M  V30 11 C -1.02 0.6736 -0.8465 0
M  V30 12 N -2.3706 0.2273 -0.3607 0
M  V30 13 C -0.5863 -0.2969 -1.9776 0
M  V30 14 C -1.0858 2.0848 -1.4846 0
M  V30 15 C -2.3481 -0.9969 0.4711 0
M  V30 16 C -3.2159 1.2717 0.2722 0
M  V30 17 C -3.7828 -1.5397 0.6471 0
M  V30 18 C -4.4489 0.6579 0.9614 0
M  V30 19 O -4.7809 -0.5745 0.3587 0
M  V30 20 H 7.3158 -0.9595 1.3298 0
M  V30 21 H 6.1789 0.3398 0.8003 0
M  V30 22 H 5.7266 -0.7679 2.1658 0
M  V30 23 H 4.2729 0.2932 -1.5221 0
M  V30 24 H 3.199 -2.3349 1.711 0
M  V30 25 H 2.0531 1.3523 -1.4056 0
M  V30 26 H 0.9679 -1.2907 1.8246 0
M  V30 27 H -0.283 -1.2874 -1.582 0
M  V30 28 H 0.2717 0.101 -2.5588 0
M  V30 29 H -1.4261 -0.4509 -2.6892 0
M  V30 30 H -1.868 2.1186 -2.2733 0
M  V30 31 H -1.3065 2.8668 -0.7275 0
M  V30 32 H -0.1149 2.3569 -1.9508 0
M  V30 33 H -1.9247 -0.7722 1.4753 0
M  V30 34 H -1.7252 -1.7918 0.0144 0
M  V30 35 H -3.583 1.9641 -0.5152 0
M  V30 36 H -2.6478 1.8623 1.02 0
M  V30 37 H -3.9216 -1.9315 1.6793 0
M  V30 38 H -3.9288 -2.3946 -0.0469 0
M  V30 39 H -5.3118 1.3502 0.8621 0
M  V30 40 H -4.2633 0.5289 2.0533 0
M  V30 END ATOM
M  V30 BEGIN BOND
M  V30 1 1 1 2
M  V30 2 1 1 3
M  V30 3 2 2 4
M  V30 4 1 2 5
M  V30 5 1 4 6
M  V30 6 2 5 7
M  V30 7 2 6 8
M  V30 8 1 8 9
M  V30 9 2 9 10
M  V30 10 1 9 11
M  V30 11 1 11 12
M  V30 12 1 11 13
M  V30 13 1 11 14
M  V30 14 1 12 15
M  V30 15 1 12 16
M  V30 16 1 15 17
M  V30 17 1 16 18
M  V30 18 1 17 19
M  V30 19 1 7 8
M  V30 20 1 18 19
M  V30 21 1 3 20
M  V30 22 1 3 21
M  V30 23 1 3 22
M  V30 24 1 4 23
M  V30 25 1 5 24
M  V30 26 1 6 25
M  V30 27 1 7 26
M  V30 28 1 13 27
M  V30 29 1 13 28
M  V30 30 1 13 29
M  V30 31 1 14 30
M  V30 32 1 14 31
M  V30 33 1 14 32
M  V30 34 1 15 33
M  V30 35 1 15 34
M  V30 36 1 16 35
M  V30 37 1 16 36
M  V30 38 1 17 37
M  V30 39 1 17 38
M  V30 40 1 18 39
M  V30 41 1 18 40
M  V30 END BOND
M  V30 END CTAB
M  END
>  <Structure No>
813

>  <LogS>
-4.193381143

>  <MMFF94 Energy>
135.08

$$$$
Compound 814
Actelion Java MolfileCreator 2.0

  0  0  0  0  0  0              0 V3000
M  V30 BEGIN CTAB
M  V30 COUNTS 40 42 0 0 0
M  V30 BEGIN ATOM
M  V30 1 O 1.1289 2.824 -0.1612 0
M  V30 2 C 0.2594 1.9988 0.0684 0
M  V30 3 C 0.5933 0.5818 0.4767 0 CFG=1
M  V30 4 C -1.1796 2.4442 0.1883 0
M  V30 5 C -0.3928 -0.4089 -0.1952 0 CFG=2
M  V30 6 C 1.9978 -0.0768 0.2318 0
M  V30 7 C -2.1876 1.3813 -0.311 0
M  V30 8 C -1.8918 -0.0741 0.1709 0
M  V30 9 C 0.2035 -1.7287 0.2607 0
M  V30 10 C -0.1042 -0.4621 -1.7355 0
M  V30 11 C 1.5728 -1.4658 -0.3697 0 CFG=1
M  V30 12 C 2.9468 0.7285 -0.6928 0
M  V30 13 C 2.745 -0.3068 1.5686 0
M  V30 14 C -2.8875 -1.0371 -0.5266 0
M  V30 15 C -2.1673 -0.1851 1.6956 0
M  V30 16 C 1.1656 -1.3111 -1.8397 0
M  V30 17 H 0.4243 0.5735 1.5735 0
M  V30 18 H -1.3879 2.6815 1.2529 0
M  V30 19 H -1.3305 3.3799 -0.3929 0
M  V30 20 H -2.1842 1.4105 -1.4229 0
M  V30 21 H -3.2096 1.6847 0.0062 0
M  V30 22 H -0.3083 -2.6185 -0.1725 0
M  V30 23 H 0.2506 -1.8458 1.3656 0
M  V30 24 H -0.9003 -0.9668 -2.3148 0
M  V30 25 H 0.0556 0.547 -2.1713 0
M  V30 26 H 2.3077 -2.2846 -0.2104 0
M  V30 27 H 2.4245 1.1276 -1.5859 0
M  V30 28 H 3.7863 0.0843 -1.0313 0
M  V30 29 H 3.3846 1.5946 -0.1514 0
M  V30 30 H 3.7123 -0.8236 1.3882 0
M  V30 31 H 2.9521 0.6649 2.0663 0
M  V30 32 H 2.154 -0.9294 2.2718 0
M  V30 33 H -2.942 -0.8697 -1.6208 0
M  V30 34 H -2.6176 -2.0962 -0.3343 0
M  V30 35 H -3.9206 -0.8765 -0.1486 0
M  V30 36 H -1.9252 -1.2024 2.0677 0
M  V30 37 H -1.6043 0.5557 2.2938 0
M  V30 38 H -3.241 0.004 1.9123 0
M  V30 39 H 0.9274 -2.3112 -2.2675 0
M  V30 40 H 1.942 -0.8582 -2.488 0
M  V30 END ATOM
M  V30 BEGIN BOND
M  V30 1 2 1 2
M  V30 2 1 2 3
M  V30 3 1 2 4
M  V30 4 1 3 5
M  V30 5 1 3 6
M  V30 6 1 4 7
M  V30 7 1 5 8
M  V30 8 1 5 9
M  V30 9 1 5 10
M  V30 10 1 6 11
M  V30 11 1 6 12
M  V30 12 1 6 13
M  V30 13 1 8 14
M  V30 14 1 8 15
M  V30 15 1 10 16
M  V30 16 1 7 8
M  V30 17 1 9 11
M  V30 18 1 11 16
M  V30 19 1 3 17
M  V30 20 1 4 18
M  V30 21 1 4 19
M  V30 22 1 7 20
M  V30 23 1 7 21
M  V30 24 1 9 22
M  V30 25 1 9 23
M  V30 26 1 10 24
M  V30 27 1 10 25
M  V30 28 1 11 26
M  V30 29 1 12 27
M  V30 30 1 12 28
M  V30 31 1 12 29
M  V30 32 1 13 30
M  V30 33 1 13 31
M  V30 34 1 13 32
M  V30 35 1 14 33
M  V30 36 1 14 34
M  V30 37 1 14 35
M  V30 38 1 15 36
M  V30 39 1 15 37
M  V30 40 1 15 38
M  V30 41 1 16 39
M  V30 42 1 16 40
M  V30 END BOND
M  V30 BEGIN COLLECTION
M  V30 MDLV30/STEABS ATOMS=(3 3 5 11)
M  V30 END COLLECTION
M  V30 END CTAB
M  END
>  <Structure No>
814

>  <LogS>
-4.097612213

>  <MMFF94 Energy>
75.598

$$$$
Compound 815
Actelion Java MolfileCreator 2.0

  0  0  0  0  0  0              0 V3000
M  V30 BEGIN CTAB
M  V30 COUNTS 42 41 0 0 0
M  V30 BEGIN ATOM
M  V30 1 O -0.3904 -1.4842 2.1096 0
M  V30 2 C 0.0235 -1.0808 0.9895 0
M  V30 3 O -0.8572 -0.4828 0.0918 0
M  V30 4 C 1.4753 -1.2347 0.6211 0 CFG=2
M  V30 5 O -2.1582 -0.3297 0.3958 0
M  V30 6 C 2.1109 0.1687 0.4894 0
M  V30 7 C 1.6137 -2.0547 -0.683 0
M  V30 8 C -2.8072 0.2676 -0.7137 0
M  V30 9 C 3.6497 0.1337 0.5323 0
M  V30 10 C 1.0606 -3.4743 -0.5417 0
M  V30 11 C -4.2973 0.4235 -0.3001 0
M  V30 12 C -2.185 1.6538 -1.0104 0
M  V30 13 C -2.6877 -0.6503 -1.9543 0
M  V30 14 C 4.2744 1.5314 0.3953 0
M  V30 15 C -5.2257 1.0527 -1.3464 0
M  V30 16 C 4.0903 2.3909 1.6463 0
M  V30 17 H 1.9918 -1.7817 1.4421 0
M  V30 18 H 1.7705 0.6509 -0.4539 0
M  V30 19 H 1.7547 0.7965 1.3349 0
M  V30 20 H 2.6829 -2.1448 -0.9633 0
M  V30 21 H 1.0885 -1.541 -1.5182 0
M  V30 22 H 4.0304 -0.4813 -0.3084 0
M  V30 23 H 3.9932 -0.3396 1.4779 0
M  V30 24 H 1.5575 -4.0004 0.3008 0
M  V30 25 H 1.2531 -4.0416 -1.4766 0
M  V30 26 H -0.036 -3.4532 -0.3676 0
M  V30 27 H -4.7049 -0.5773 -0.0364 0
M  V30 28 H -4.3521 1.0412 0.6234 0
M  V30 29 H -1.1019 1.5664 -1.24 0
M  V30 30 H -2.301 2.3247 -0.1325 0
M  V30 31 H -2.6604 2.1287 -1.8931 0
M  V30 32 H -3.1638 -0.1891 -2.8441 0
M  V30 33 H -3.1672 -1.6325 -1.7555 0
M  V30 34 H -1.6242 -0.8304 -2.2186 0
M  V30 35 H 3.8468 2.0578 -0.4856 0
M  V30 36 H 5.3651 1.411 0.2166 0
M  V30 37 H -4.9118 2.0863 -1.5954 0
M  V30 38 H -6.2535 1.1072 -0.9293 0
M  V30 39 H -5.2717 0.4375 -2.2675 0
M  V30 40 H 4.6746 3.3287 1.5377 0
M  V30 41 H 3.0242 2.6656 1.7838 0
M  V30 42 H 4.454 1.8518 2.5468 0
M  V30 END ATOM
M  V30 BEGIN BOND
M  V30 1 2 1 2
M  V30 2 1 2 3
M  V30 3 1 2 4
M  V30 4 1 3 5
M  V30 5 1 4 6
M  V30 6 1 4 7
M  V30 7 1 5 8
M  V30 8 1 6 9
M  V30 9 1 7 10
M  V30 10 1 8 11
M  V30 11 1 8 12
M  V30 12 1 8 13
M  V30 13 1 9 14
M  V30 14 1 11 15
M  V30 15 1 14 16
M  V30 16 1 4 17
M  V30 17 1 6 18
M  V30 18 1 6 19
M  V30 19 1 7 20
M  V30 20 1 7 21
M  V30 21 1 9 22
M  V30 22 1 9 23
M  V30 23 1 10 24
M  V30 24 1 10 25
M  V30 25 1 10 26
M  V30 26 1 11 27
M  V30 27 1 11 28
M  V30 28 1 12 29
M  V30 29 1 12 30
M  V30 30 1 12 31
M  V30 31 1 13 32
M  V30 32 1 13 33
M  V30 33 1 13 34
M  V30 34 1 14 35
M  V30 35 1 14 36
M  V30 36 1 15 37
M  V30 37 1 15 38
M  V30 38 1 15 39
M  V30 39 1 16 40
M  V30 40 1 16 41
M  V30 41 1 16 42
M  V30 END BOND
M  V30 BEGIN COLLECTION
M  V30 MDLV30/STEABS ATOMS=(1 4)
M  V30 END COLLECTION
M  V30 END CTAB
M  END
>  <Structure No>
815

>  <LogS>
-4.116871778

>  <MMFF94 Energy>
32.512

$$$$
Compound 816
Actelion Java MolfileCreator 2.0

  0  0  0  0  0  0              0 V3000
M  V30 BEGIN CTAB
M  V30 COUNTS 44 44 0 0 0
M  V30 BEGIN ATOM
M  V30 1 O -3.3845 -0.5503 0.629 0
M  V30 2 C -2.2987 -0.2645 -0.2656 0
M  V30 3 C -2.9987 -1.0435 1.8957 0
M  V30 4 O -2.8424 0.1184 -1.5312 0
M  V30 5 C -1.4234 0.9266 0.2625 0
M  V30 6 C -1.4788 -1.5722 -0.5758 0
M  V30 7 C -3.9837 0.9502 -1.433 0
M  V30 8 C -0.5468 1.6046 -0.8171 0
M  V30 9 C -0.3052 -1.9729 0.3656 0
M  V30 10 C 0.5364 2.5265 -0.2188 0
M  V30 11 C 1.0589 -1.7643 -0.3128 0
M  V30 12 C 1.6848 1.7866 0.5016 0
M  V30 13 C 2.2363 -1.7353 0.6725 0
M  V30 14 C 2.7915 1.2916 -0.4464 0
M  V30 15 C 3.5152 -1.1741 0.0105 0
M  V30 16 C 3.7712 0.3286 0.2653 0
M  V30 17 H -2.6121 -2.0803 1.8246 0
M  V30 18 H -3.9049 -1.0929 2.5333 0
M  V30 19 H -2.2879 -0.3748 2.4198 0
M  V30 20 H -2.091 1.7045 0.6903 0
M  V30 21 H -0.8064 0.6142 1.1146 0
M  V30 22 H -2.2006 -2.4183 -0.6036 0
M  V30 23 H -1.0974 -1.5178 -1.6207 0
M  V30 24 H -4.1843 1.3887 -2.4319 0
M  V30 25 H -3.8404 1.794 -0.7265 0
M  V30 26 H -4.8768 0.3539 -1.1478 0
M  V30 27 H -1.2097 2.2331 -1.4506 0
M  V30 28 H -0.0903 0.8697 -1.5026 0
M  V30 29 H -0.3961 -3.0545 0.6077 0
M  V30 30 H -0.3443 -1.4513 1.3387 0
M  V30 31 H 0.9593 3.1617 -1.0274 0
M  V30 32 H 0.048 3.216 0.5044 0
M  V30 33 H 1.2238 -2.5734 -1.0581 0
M  V30 34 H 1.0407 -0.8233 -0.8706 0
M  V30 35 H 2.1497 2.495 1.2221 0
M  V30 36 H 1.299 0.9504 1.1069 0
M  V30 37 H 1.9893 -1.1559 1.5866 0
M  V30 38 H 2.4286 -2.7798 1.0021 0
M  V30 39 H 3.3616 2.1839 -0.7875 0
M  V30 40 H 2.3771 0.8321 -1.3657 0
M  V30 41 H 3.5228 -1.3799 -1.0826 0
M  V30 42 H 4.3821 -1.7269 0.4343 0
M  V30 43 H 3.801 0.5264 1.3597 0
M  V30 44 H 4.7934 0.5498 -0.1129 0
M  V30 END ATOM
M  V30 BEGIN BOND
M  V30 1 1 1 2
M  V30 2 1 1 3
M  V30 3 1 2 4
M  V30 4 1 2 5
M  V30 5 1 2 6
M  V30 6 1 4 7
M  V30 7 1 5 8
M  V30 8 1 6 9
M  V30 9 1 8 10
M  V30 10 1 9 11
M  V30 11 1 10 12
M  V30 12 1 11 13
M  V30 13 1 12 14
M  V30 14 1 13 15
M  V30 15 1 14 16
M  V30 16 1 15 16
M  V30 17 1 3 17
M  V30 18 1 3 18
M  V30 19 1 3 19
M  V30 20 1 5 20
M  V30 21 1 5 21
M  V30 22 1 6 22
M  V30 23 1 6 23
M  V30 24 1 7 24
M  V30 25 1 7 25
M  V30 26 1 7 26
M  V30 27 1 8 27
M  V30 28 1 8 28
M  V30 29 1 9 29
M  V30 30 1 9 30
M  V30 31 1 10 31
M  V30 32 1 10 32
M  V30 33 1 11 33
M  V30 34 1 11 34
M  V30 35 1 12 35
M  V30 36 1 12 36
M  V30 37 1 13 37
M  V30 38 1 13 38
M  V30 39 1 14 39
M  V30 40 1 14 40
M  V30 41 1 15 41
M  V30 42 1 15 42
M  V30 43 1 16 43
M  V30 44 1 16 44
M  V30 END BOND
M  V30 END CTAB
M  END
>  <Structure No>
816

>  <LogS>
-4.125654352

>  <MMFF94 Energy>
31.548

$$$$
Compound 817
Actelion Java MolfileCreator 2.0

  0  0  0  0  0  0              0 V3000
M  V30 BEGIN CTAB
M  V30 COUNTS 15 16 0 0 0
M  V30 BEGIN ATOM
M  V30 1 S -3.0078 3.0078 -0.9696 0
M  V30 2 C -2.5901 1.549 -0.3644 0
M  V30 3 S -1.1669 1.2361 0.4762 0
M  V30 4 N -3.3522 0.4401 -0.4757 0
M  V30 5 C -1.613 -0.3803 0.6595 0
M  V30 6 N -2.8137 -0.6352 0.0947 0
M  V30 7 S -0.6442 -1.6117 1.5187 0
M  V30 8 S 0.2968 -2.2745 -0.275 0
M  V30 9 C 1.7174 -1.2201 -0.023 0
M  V30 10 S 3.082 -1.6506 0.8657 0
M  V30 11 N 1.8299 0.021 -0.5436 0
M  V30 12 C 3.7796 -0.1558 0.5335 0
M  V30 13 N 2.9796 0.6159 -0.2315 0 CHG=-1
M  V30 14 S 5.2487 0.3179 1.063 0
M  V30 15 H -4.278 0.4116 -0.9579 0
M  V30 END ATOM
M  V30 BEGIN BOND
M  V30 1 2 1 2
M  V30 2 1 2 3
M  V30 3 1 2 4
M  V30 4 1 3 5
M  V30 5 1 4 6
M  V30 6 1 5 7
M  V30 7 1 7 8
M  V30 8 1 8 9
M  V30 9 1 9 10
M  V30 10 2 9 11
M  V30 11 1 10 12
M  V30 12 1 11 13
M  V30 13 2 12 14
M  V30 14 2 5 6
M  V30 15 1 12 13
M  V30 16 1 4 15
M  V30 END BOND
M  V30 END CTAB
M  END
>  <Structure No>
817

>  <LogS>
-3.252213315

>  <MMFF94 Energy>
3.9374

$$$$
Compound 818
Actelion Java MolfileCreator 2.0

  0  0  0  0  0  0              0 V3000
M  V30 BEGIN CTAB
M  V30 COUNTS 28 27 0 0 0
M  V30 BEGIN ATOM
M  V30 1 O -3.9528 1.7811 -0.4644 0
M  V30 2 C -3.7623 0.7385 0.1435 0
M  V30 3 C -2.3946 0.4303 0.688 0
M  V30 4 C -4.899 -0.2134 0.3617 0
M  V30 5 C -1.3925 0.2087 -0.45 0
M  V30 6 C 0.0 -0.1238 0.0987 0
M  V30 7 C 1.0051 -0.3332 -1.0434 0
M  V30 8 C 2.3819 -0.7974 -0.543 0
M  V30 9 C 3.1499 0.3125 0.1893 0
M  V30 10 C 4.5605 -0.1429 0.552 0
M  V30 11 H -2.0622 1.2773 1.3269 0
M  V30 12 H -2.4391 -0.4819 1.3225 0
M  V30 13 H -4.6389 -1.2066 -0.0602 0
M  V30 14 H -5.094 -0.3177 1.4496 0
M  V30 15 H -5.8218 0.1559 -0.1346 0
M  V30 16 H -1.331 1.1286 -1.0728 0
M  V30 17 H -1.7469 -0.6291 -1.0907 0
M  V30 18 H -0.0595 -1.0487 0.7135 0
M  V30 19 H 0.3386 0.7125 0.7467 0
M  V30 20 H 0.6099 -1.1139 -1.73 0
M  V30 21 H 1.1142 0.6058 -1.6294 0
M  V30 22 H 2.263 -1.6795 0.1239 0
M  V30 23 H 2.9755 -1.1212 -1.4261 0
M  V30 24 H 3.2198 1.2135 -0.458 0
M  V30 25 H 2.6207 0.5894 1.1253 0
M  V30 26 H 4.5195 -1.0342 1.2139 0
M  V30 27 H 5.0886 0.6736 1.0881 0
M  V30 28 H 5.1337 -0.3932 -0.3658 0
M  V30 END ATOM
M  V30 BEGIN BOND
M  V30 1 2 1 2
M  V30 2 1 2 3
M  V30 3 1 2 4
M  V30 4 1 3 5
M  V30 5 1 5 6
M  V30 6 1 6 7
M  V30 7 1 7 8
M  V30 8 1 8 9
M  V30 9 1 9 10
M  V30 10 1 3 11
M  V30 11 1 3 12
M  V30 12 1 4 13
M  V30 13 1 4 14
M  V30 14 1 4 15
M  V30 15 1 5 16
M  V30 16 1 5 17
M  V30 17 1 6 18
M  V30 18 1 6 19
M  V30 19 1 7 20
M  V30 20 1 7 21
M  V30 21 1 8 22
M  V30 22 1 8 23
M  V30 23 1 9 24
M  V30 24 1 9 25
M  V30 25 1 10 26
M  V30 26 1 10 27
M  V30 27 1 10 28
M  V30 END BOND
M  V30 END CTAB
M  END
>  <Structure No>
818

>  <LogS>
-2.930311379

>  <MMFF94 Energy>
0.9802

$$$$
Compound 819
Actelion Java MolfileCreator 2.0

  0  0  0  0  0  0              0 V3000
M  V30 BEGIN CTAB
M  V30 COUNTS 19 19 0 0 0
M  V30 BEGIN ATOM
M  V30 1 O -2.678 1.6224 -0.5676 0
M  V30 2 N -1.6389 1.7569 0.1106 0 CHG=1
M  V30 3 O -1.4257 2.9504 0.7614 0 CHG=-1
M  V30 4 C -0.598 0.7621 0.0708 0
M  V30 5 C -0.8867 -0.6224 -0.0384 0
M  V30 6 C 0.743 1.1781 0.1516 0
M  V30 7 C 0.1721 -1.5413 -0.1137 0
M  V30 8 C -2.2995 -1.1424 -0.0718 0
M  V30 9 C 1.7974 0.2523 0.092 0
M  V30 10 C 1.4969 -1.1107 -0.0481 0
M  V30 11 N 3.1643 0.6987 0.1665 0 CHG=1
M  V30 12 O 4.1056 -0.1197 0.109 0
M  V30 13 O 3.4577 2.0361 0.3051 0 CHG=-1
M  V30 14 H 0.9646 2.2336 0.2415 0
M  V30 15 H -0.0267 -2.6014 -0.2133 0
M  V30 16 H -2.7442 -0.9548 -1.0714 0
M  V30 17 H -2.9109 -0.6467 0.7115 0
M  V30 18 H -2.3346 -2.2352 0.1248 0
M  V30 19 H 2.2881 -1.8476 -0.1025 0
M  V30 END ATOM
M  V30 BEGIN BOND
M  V30 1 2 1 2
M  V30 2 1 2 3
M  V30 3 1 2 4
M  V30 4 2 4 5
M  V30 5 1 4 6
M  V30 6 1 5 7
M  V30 7 1 5 8
M  V30 8 2 6 9
M  V30 9 2 7 10
M  V30 10 1 9 11
M  V30 11 2 11 12
M  V30 12 1 11 13
M  V30 13 1 9 10
M  V30 14 1 6 14
M  V30 15 1 7 15
M  V30 16 1 8 16
M  V30 17 1 8 17
M  V30 18 1 8 18
M  V30 19 1 10 19
M  V30 END BOND
M  V30 END CTAB
M  END
>  <Structure No>
819

>  <LogS>
-3.040285322

>  <MMFF94 Energy>
74.935

$$$$
Compound 820
Actelion Java MolfileCreator 2.0

  0  0  0  0  0  0              0 V3000
M  V30 BEGIN CTAB
M  V30 COUNTS 27 27 0 0 0
M  V30 BEGIN ATOM
M  V30 1 O -0.8716 2.5372 -1.9024 0
M  V30 2 N -1.5947 1.5282 -2.0337 0 CHG=1
M  V30 3 O -2.3619 1.406 -3.1692 0 CHG=-1
M  V30 4 C -1.7995 0.6322 -0.9284 0
M  V30 5 C -0.7419 0.2824 -0.0494 0
M  V30 6 C -3.0883 0.1205 -0.6976 0
M  V30 7 N 0.6103 0.6987 -0.3312 0
M  V30 8 C -1.0222 -0.538 1.0616 0
M  V30 9 C -3.3463 -0.6984 0.4028 0
M  V30 10 C 1.6701 0.7884 0.6746 0
M  V30 11 C -2.3124 -1.0204 1.2851 0
M  V30 12 O -4.6356 -1.1829 0.6124 0
M  V30 13 C 2.5284 -0.4848 0.6919 0
M  V30 14 C 3.3268 -0.6853 -0.6027 0
M  V30 15 O 4.2013 0.3877 -0.8266 0
M  V30 16 H -3.9036 0.38 -1.3614 0
M  V30 17 H 0.8797 0.9116 -1.3173 0
M  V30 18 H -0.2436 -0.833 1.7499 0
M  V30 19 H 2.3089 1.6702 0.4528 0
M  V30 20 H 1.234 0.9634 1.6812 0
M  V30 21 H -2.5048 -1.6555 2.1406 0
M  V30 22 H -4.8559 -1.7783 1.4024 0
M  V30 23 H 3.2361 -0.428 1.5471 0
M  V30 24 H 1.881 -1.3723 0.8536 0
M  V30 25 H 2.6352 -0.7746 -1.4662 0
M  V30 26 H 3.8998 -1.638 -0.5403 0
M  V30 27 H 4.95 0.2829 -0.1832 0
M  V30 END ATOM
M  V30 BEGIN BOND
M  V30 1 2 1 2
M  V30 2 1 2 3
M  V30 3 1 2 4
M  V30 4 2 4 5
M  V30 5 1 4 6
M  V30 6 1 5 7
M  V30 7 1 5 8
M  V30 8 2 6 9
M  V30 9 1 7 10
M  V30 10 2 8 11
M  V30 11 1 9 12
M  V30 12 1 10 13
M  V30 13 1 13 14
M  V30 14 1 14 15
M  V30 15 1 9 11
M  V30 16 1 6 16
M  V30 17 1 7 17
M  V30 18 1 8 18
M  V30 19 1 10 19
M  V30 20 1 10 20
M  V30 21 1 11 21
M  V30 22 1 12 22
M  V30 23 1 13 23
M  V30 24 1 13 24
M  V30 25 1 14 25
M  V30 26 1 14 26
M  V30 27 1 15 27
M  V30 END BOND
M  V30 END CTAB
M  END
>  <Structure No>
820

>  <LogS>
-2.11058971

>  <MMFF94 Energy>
52.63

$$$$
Compound 821
Actelion Java MolfileCreator 2.0

  0  0  0  0  0  0              0 V3000
M  V30 BEGIN CTAB
M  V30 COUNTS 42 42 0 0 0
M  V30 BEGIN ATOM
M  V30 1 O 0.6331 -4.7564 -1.2666 0
M  V30 2 C 0.1029 -3.7142 -0.7992 0
M  V30 3 C -1.22 -3.2862 -1.2815 0
M  V30 4 C 0.7878 -2.9511 0.295 0
M  V30 5 C -1.8053 -2.1617 -0.8327 0
M  V30 6 C 0.4398 -1.4535 0.2037 0 CFG=2
M  V30 7 C -1.1121 -1.2879 0.215 0 CFG=1
M  V30 8 C -3.2306 -1.8947 -1.2446 0
M  V30 9 C 1.129 -0.8038 -1.0382 0
M  V30 10 C -1.4967 0.1674 0.1235 0
M  V30 11 C 1.6876 0.6046 -0.7608 0
M  V30 12 O -1.6556 0.7175 -1.0018 0
M  V30 13 O -1.6 0.9169 1.3006 0
M  V30 14 C 3.0148 0.5609 0.016 0
M  V30 15 C -1.9326 2.3031 1.321 0
M  V30 16 C 3.6149 1.9589 0.2304 0
M  V30 17 C -3.4211 2.5031 1.061 0
M  V30 18 C 2.8343 2.7863 1.2522 0
M  V30 19 H -1.7344 -3.916 -1.9985 0
M  V30 20 H 1.8887 -3.0985 0.2409 0
M  V30 21 H 0.4454 -3.3535 1.2728 0
M  V30 22 H 0.8328 -0.9826 1.1312 0
M  V30 23 H -1.475 -1.6503 1.2025 0
M  V30 24 H -3.8502 -2.803 -1.0853 0
M  V30 25 H -3.686 -1.0762 -0.6502 0
M  V30 26 H -3.2619 -1.6184 -2.3194 0
M  V30 27 H 0.4081 -0.7426 -1.8814 0
M  V30 28 H 1.9619 -1.4387 -1.4129 0
M  V30 29 H 0.9414 1.2067 -0.2064 0
M  V30 30 H 1.8639 1.1068 -1.7369 0
M  V30 31 H 3.748 -0.0413 -0.5633 0
M  V30 32 H 2.8786 0.0628 0.9992 0
M  V30 33 H -1.6877 2.7105 2.3244 0
M  V30 34 H -1.3301 2.8568 0.5683 0
M  V30 35 H 3.6644 2.508 -0.7348 0
M  V30 36 H 4.6556 1.8403 0.6025 0
M  V30 37 H -4.0154 1.9425 1.8132 0
M  V30 38 H -3.6892 2.1449 0.0454 0
M  V30 39 H -3.6714 3.5823 1.1357 0
M  V30 40 H 2.726 2.2268 2.2055 0
M  V30 41 H 1.8296 3.0506 0.8628 0
M  V30 42 H 3.3822 3.7299 1.4578 0
M  V30 END ATOM
M  V30 BEGIN BOND
M  V30 1 2 1 2
M  V30 2 1 2 3
M  V30 3 1 2 4
M  V30 4 2 3 5
M  V30 5 1 4 6
M  V30 6 1 5 7
M  V30 7 1 5 8
M  V30 8 1 6 9
M  V30 9 1 7 10
M  V30 10 1 9 11
M  V30 11 2 10 12
M  V30 12 1 10 13
M  V30 13 1 11 14
M  V30 14 1 13 15
M  V30 15 1 14 16
M  V30 16 1 15 17
M  V30 17 1 16 18
M  V30 18 1 6 7
M  V30 19 1 3 19
M  V30 20 1 4 20
M  V30 21 1 4 21
M  V30 22 1 6 22
M  V30 23 1 7 23
M  V30 24 1 8 24
M  V30 25 1 8 25
M  V30 26 1 8 26
M  V30 27 1 9 27
M  V30 28 1 9 28
M  V30 29 1 11 29
M  V30 30 1 11 30
M  V30 31 1 14 31
M  V30 32 1 14 32
M  V30 33 1 15 33
M  V30 34 1 15 34
M  V30 35 1 16 35
M  V30 36 1 16 36
M  V30 37 1 17 37
M  V30 38 1 17 38
M  V30 39 1 17 39
M  V30 40 1 18 40
M  V30 41 1 18 41
M  V30 42 1 18 42
M  V30 END BOND
M  V30 BEGIN COLLECTION
M  V30 MDLV30/STEABS ATOMS=(2 6 7)
M  V30 END COLLECTION
M  V30 END CTAB
M  END
>  <Structure No>
821

>  <LogS>
-3.187166345

>  <MMFF94 Energy>
26.077

$$$$
Compound 822
Actelion Java MolfileCreator 2.0

  0  0  0  0  0  0              0 V3000
M  V30 BEGIN CTAB
M  V30 COUNTS 47 49 0 0 0
M  V30 BEGIN ATOM
M  V30 1 O 7.1457 0.1601 2.0033 0
M  V30 2 N 6.8231 0.8574 1.0191 0 CHG=1
M  V30 3 O 7.6345 1.9073 0.6554 0 CHG=-1
M  V30 4 C 5.5195 0.7158 0.4315 0
M  V30 5 C 5.3114 0.9044 -0.9548 0
M  V30 6 C 4.4208 0.4148 1.2562 0
M  V30 7 N 6.4062 1.1081 -1.8574 0
M  V30 8 C 4.0099 0.8361 -1.4724 0
M  V30 9 C 3.1241 0.3293 0.7306 0
M  V30 10 C 2.9257 0.5548 -0.6403 0
M  V30 11 N 2.0234 0.0247 1.606 0
M  V30 12 N 0.7067 -0.1044 1.1326 0
M  V30 13 C 0.2547 -1.1352 0.4709 0
M  V30 14 C 1.0711 -2.3531 0.217 0
M  V30 15 C -1.1378 -1.1143 -0.0546 0
M  V30 16 O 2.2156 -2.5003 0.7218 0
M  V30 17 C 0.5185 -3.4306 -0.6169 0
M  V30 18 C -1.6004 -2.2005 -0.8232 0
M  V30 19 C -1.9964 -0.0239 0.1909 0
M  V30 20 C -0.7229 -3.3598 -1.1023 0
M  V30 21 C -2.901 -2.1855 -1.3303 0
M  V30 22 C -3.3243 0.008 -0.3171 0
M  V30 23 C -3.747 -1.1056 -1.0836 0
M  V30 24 N -4.2513 1.1348 -0.0788 0 CHG=1
M  V30 25 C -3.6592 2.2249 0.7408 0
M  V30 26 C -5.4544 0.6427 0.6369 0
M  V30 27 C -4.6567 1.7253 -1.3784 0
M  V30 28 H 4.5725 0.2647 2.3183 0
M  V30 29 H 7.3935 0.9259 -1.5753 0
M  V30 30 H 6.2289 1.3348 -2.8615 0
M  V30 31 H 3.8369 0.9836 -2.5313 0
M  V30 32 H 1.9354 0.5103 -1.0736 0
M  V30 33 H 2.1659 0.0979 2.6383 0
M  V30 34 H 1.1252 -4.3017 -0.8322 0
M  V30 35 H -1.6073 0.7892 0.782 0
M  V30 36 H -1.094 -4.1785 -1.7074 0
M  V30 37 H -3.2668 -3.0158 -1.9226 0
M  V30 38 H -4.7427 -1.1495 -1.5013 0
M  V30 39 H -2.7705 2.6691 0.2386 0
M  V30 40 H -3.3692 1.8571 1.7508 0
M  V30 41 H -4.3861 3.0542 0.8985 0
M  V30 42 H -5.1685 0.1413 1.589 0
M  V30 43 H -6.1492 1.478 0.8815 0
M  V30 44 H -6.0339 -0.083 0.0274 0
M  V30 45 H -3.7638 2.0474 -1.9601 0
M  V30 46 H -5.2313 1.0069 -2.0012 0
M  V30 47 H -5.3125 2.6135 -1.232 0
M  V30 END ATOM
M  V30 BEGIN BOND
M  V30 1 2 1 2
M  V30 2 1 2 3
M  V30 3 1 2 4
M  V30 4 2 4 5
M  V30 5 1 4 6
M  V30 6 1 5 7
M  V30 7 1 5 8
M  V30 8 2 6 9
M  V30 9 2 8 10
M  V30 10 1 9 11
M  V30 11 1 11 12
M  V30 12 2 12 13
M  V30 13 1 13 14
M  V30 14 1 13 15
M  V30 15 2 14 16
M  V30 16 1 14 17
M  V30 17 2 15 18
M  V30 18 1 15 19
M  V30 19 2 17 20
M  V30 20 1 18 21
M  V30 21 2 19 22
M  V30 22 2 21 23
M  V30 23 1 22 24
M  V30 24 1 24 25
M  V30 25 1 24 26
M  V30 26 1 24 27
M  V30 27 1 9 10
M  V30 28 1 18 20
M  V30 29 1 22 23
M  V30 30 1 6 28
M  V30 31 1 7 29
M  V30 32 1 7 30
M  V30 33 1 8 31
M  V30 34 1 10 32
M  V30 35 1 11 33
M  V30 36 1 17 34
M  V30 37 1 19 35
M  V30 38 1 20 36
M  V30 39 1 21 37
M  V30 40 1 23 38
M  V30 41 1 25 39
M  V30 42 1 25 40
M  V30 43 1 25 41
M  V30 44 1 26 42
M  V30 45 1 26 43
M  V30 46 1 26 44
M  V30 47 1 27 45
M  V30 48 1 27 46
M  V30 49 1 27 47
M  V30 END BOND
M  V30 END CTAB
M  END
>  <Structure No>
822

>  <LogS>
-1.39724242

>  <MMFF94 Energy>
147.81

$$$$
Compound 823
Actelion Java MolfileCreator 2.0

  0  0  0  0  0  0              0 V3000
M  V30 BEGIN CTAB
M  V30 COUNTS 18 18 0 0 0
M  V30 BEGIN ATOM
M  V30 1 C -0.3114 -0.7008 0.0 0
M  V30 2 C -0.1951 0.7103 0.0504 0
M  V30 3 C 0.8514 -1.4852 -0.0978 0
M  V30 4 C -1.6573 -1.3762 0.0367 0
M  V30 5 C 1.0815 1.2986 0.0137 0
M  V30 6 C -1.412 1.592 0.1551 0
M  V30 7 C 2.1111 -0.8843 -0.1366 0
M  V30 8 C 2.2259 0.5043 -0.0798 0
M  V30 9 H 0.7855 -2.5653 -0.1434 0
M  V30 10 H -1.5607 -2.4828 0.0443 0
M  V30 11 H -2.2073 -1.0759 0.9531 0
M  V30 12 H -2.2469 -1.0872 -0.8582 0
M  V30 13 H 1.1939 2.375 0.0569 0
M  V30 14 H -2.0996 1.3913 -0.6929 0
M  V30 15 H -1.9388 1.3928 1.1117 0
M  V30 16 H -1.1417 2.6691 0.1273 0
M  V30 17 H 3.0003 -1.4971 -0.2106 0
M  V30 18 H 3.2041 0.967 -0.1088 0
M  V30 END ATOM
M  V30 BEGIN BOND
M  V30 1 2 1 2
M  V30 2 1 1 3
M  V30 3 1 1 4
M  V30 4 1 2 5
M  V30 5 1 2 6
M  V30 6 2 3 7
M  V30 7 2 5 8
M  V30 8 1 7 8
M  V30 9 1 3 9
M  V30 10 1 4 10
M  V30 11 1 4 11
M  V30 12 1 4 12
M  V30 13 1 5 13
M  V30 14 1 6 14
M  V30 15 1 6 15
M  V30 16 1 6 16
M  V30 17 1 7 17
M  V30 18 1 8 18
M  V30 END BOND
M  V30 END CTAB
M  END
>  <Structure No>
823

>  <LogS>
-2.81916776

>  <MMFF94 Energy>
21.995

$$$$
Compound 824
Actelion Java MolfileCreator 2.0

  0  0  0  0  0  0              0 V3000
M  V30 BEGIN CTAB
M  V30 COUNTS 18 18 0 0 0
M  V30 BEGIN ATOM
M  V30 1 C -1.401 0.1555 -0.0777 0
M  V30 2 C -0.778 -1.0503 -0.4328 0
M  V30 3 C -0.6168 1.2323 0.3635 0
M  V30 4 C -2.8962 0.2711 -0.1061 0
M  V30 5 C 0.6136 -1.1699 -0.372 0
M  V30 6 C 0.7748 1.1127 0.4243 0
M  V30 7 C 1.3977 -0.0932 0.0693 0
M  V30 8 C 2.8928 -0.2086 0.0977 0
M  V30 9 H -1.3691 -1.8967 -0.7606 0
M  V30 10 H -1.0821 2.1655 0.6563 0
M  V30 11 H -3.3242 -0.3746 -0.9021 0
M  V30 12 H -3.2046 1.3184 -0.3113 0
M  V30 13 H -3.3092 -0.042 0.8754 0
M  V30 14 H 1.0787 -2.103 -0.6647 0
M  V30 15 H 1.3657 1.9591 0.7522 0
M  V30 16 H 3.2012 -1.2558 0.3032 0
M  V30 17 H 3.3057 0.1044 -0.8837 0
M  V30 18 H 3.3207 0.4372 0.8936 0
M  V30 END ATOM
M  V30 BEGIN BOND
M  V30 1 2 1 2
M  V30 2 1 1 3
M  V30 3 1 1 4
M  V30 4 1 2 5
M  V30 5 2 3 6
M  V30 6 2 5 7
M  V30 7 1 7 8
M  V30 8 1 6 7
M  V30 9 1 2 9
M  V30 10 1 3 10
M  V30 11 1 4 11
M  V30 12 1 4 12
M  V30 13 1 4 13
M  V30 14 1 5 14
M  V30 15 1 6 15
M  V30 16 1 8 16
M  V30 17 1 8 17
M  V30 18 1 8 18
M  V30 END BOND
M  V30 END CTAB
M  END
>  <Structure No>
824

>  <LogS>
-2.81916776

>  <MMFF94 Energy>
20.617

$$$$
Compound 825
Actelion Java MolfileCreator 2.0

  0  0  0  0  0  0              0 V3000
M  V30 BEGIN CTAB
M  V30 COUNTS 20 21 0 0 0
M  V30 BEGIN ATOM
M  V30 1 O 2.2664 -2.0233 -1.3755 0
M  V30 2 C 1.9094 -0.9128 -0.9022 0
M  V30 3 N 2.7639 0.2194 -0.8065 0
M  V30 4 C 0.5822 -0.5984 -0.3775 0
M  V30 5 C 1.9324 1.203 -0.2041 0
M  V30 6 C 0.6059 0.6544 0.0693 0
M  V30 7 C -0.5894 -1.5249 -0.2239 0
M  V30 8 O 2.3061 2.378 0.0496 0
M  V30 9 C -0.5893 1.372 0.6273 0
M  V30 10 C -1.8854 -0.7333 0.0329 0
M  V30 11 C -1.6668 0.3709 1.0842 0
M  V30 12 H 3.7601 0.3075 -1.1061 0
M  V30 13 H -0.7042 -2.1401 -1.1416 0
M  V30 14 H -0.3949 -2.2037 0.634 0
M  V30 15 H -0.2798 2.0045 1.4865 0
M  V30 16 H -1.0084 2.0311 -0.1629 0
M  V30 17 H -2.6779 -1.4286 0.3841 0
M  V30 18 H -2.2319 -0.2713 -0.9178 0
M  V30 19 H -1.3564 -0.0941 2.0459 0
M  V30 20 H -2.6216 0.9121 1.2585 0
M  V30 END ATOM
M  V30 BEGIN BOND
M  V30 1 2 1 2
M  V30 2 1 2 3
M  V30 3 1 2 4
M  V30 4 1 3 5
M  V30 5 2 4 6
M  V30 6 1 4 7
M  V30 7 2 5 8
M  V30 8 1 6 9
M  V30 9 1 7 10
M  V30 10 1 9 11
M  V30 11 1 5 6
M  V30 12 1 10 11
M  V30 13 1 3 12
M  V30 14 1 7 13
M  V30 15 1 7 14
M  V30 16 1 9 15
M  V30 17 1 9 16
M  V30 18 1 10 17
M  V30 19 1 10 18
M  V30 20 1 11 19
M  V30 21 1 11 20
M  V30 END BOND
M  V30 END CTAB
M  END
>  <Structure No>
825

>  <LogS>
-1.974517726

>  <MMFF94 Energy>
-68.141

$$$$
Compound 826
Actelion Java MolfileCreator 2.0

  0  0  0  0  0  0              0 V3000
M  V30 BEGIN CTAB
M  V30 COUNTS 30 30 0 0 0
M  V30 BEGIN ATOM
M  V30 1 O -1.7305 1.1009 1.5731 0
M  V30 2 C -2.1405 0.6346 0.475 0
M  V30 3 O -1.2474 0.3977 -0.5775 0
M  V30 4 C -3.6012 0.3343 0.2932 0
M  V30 5 C 0.1617 0.5853 -0.4678 0
M  V30 6 C -4.1814 1.1827 -0.8417 0
M  V30 7 C -3.8048 -1.1583 0.0198 0
M  V30 8 C 0.7942 -0.562 0.3229 0
M  V30 9 C 2.2866 -0.3881 0.4079 0
M  V30 10 C 2.8537 0.3651 1.4497 0
M  V30 11 C 3.1217 -0.9299 -0.5836 0
M  V30 12 C 4.2381 0.5528 1.5101 0
M  V30 13 C 4.5057 -0.7397 -0.5194 0
M  V30 14 C 5.0636 -6.0E-4 0.5275 0
M  V30 15 H -4.1456 0.5914 1.2295 0
M  V30 16 H 0.5913 0.6024 -1.4923 0
M  V30 17 H 0.3811 1.5637 0.0142 0
M  V30 18 H -4.0369 2.2626 -0.6229 0
M  V30 19 H -5.2715 0.9921 -0.9414 0
M  V30 20 H -3.687 0.9426 -1.8077 0
M  V30 21 H -4.8888 -1.3858 -0.0672 0
M  V30 22 H -3.3903 -1.7593 0.8575 0
M  V30 23 H -3.2992 -1.4603 -0.9229 0
M  V30 24 H 0.5505 -1.5279 -0.1715 0
M  V30 25 H 0.3621 -0.5991 1.3463 0
M  V30 26 H 2.2239 0.807 2.2123 0
M  V30 27 H 2.7011 -1.4969 -1.4049 0
M  V30 28 H 4.6707 1.1305 2.3169 0
M  V30 29 H 5.1454 -1.1625 -1.2833 0
M  V30 30 H 6.135 0.1465 0.575 0
M  V30 END ATOM
M  V30 BEGIN BOND
M  V30 1 2 1 2
M  V30 2 1 2 3
M  V30 3 1 2 4
M  V30 4 1 3 5
M  V30 5 1 4 6
M  V30 6 1 4 7
M  V30 7 1 5 8
M  V30 8 1 8 9
M  V30 9 2 9 10
M  V30 10 1 9 11
M  V30 11 1 10 12
M  V30 12 2 11 13
M  V30 13 2 12 14
M  V30 14 1 13 14
M  V30 15 1 4 15
M  V30 16 1 5 16
M  V30 17 1 5 17
M  V30 18 1 6 18
M  V30 19 1 6 19
M  V30 20 1 6 20
M  V30 21 1 7 21
M  V30 22 1 7 22
M  V30 23 1 7 23
M  V30 24 1 8 24
M  V30 25 1 8 25
M  V30 26 1 10 26
M  V30 27 1 11 27
M  V30 28 1 12 28
M  V30 29 1 13 29
M  V30 30 1 14 30
M  V30 END BOND
M  V30 END CTAB
M  END
>  <Structure No>
826

>  <LogS>
-3.079764438

>  <MMFF94 Energy>
17.949

$$$$
Compound 827
Actelion Java MolfileCreator 2.0

  0  0  0  0  0  0              0 V3000
M  V30 BEGIN CTAB
M  V30 COUNTS 34 34 0 0 0
M  V30 BEGIN ATOM
M  V30 1 O 3.9428 0.5512 1.1027 0
M  V30 2 C 3.5621 0.0508 0.0095 0
M  V30 3 C 2.1317 0.0086 -0.3432 0
M  V30 4 C 4.574 -0.5051 -0.9389 0
M  V30 5 C 1.1803 0.4851 0.4666 0
M  V30 6 C -0.2548 0.4019 0.0997 0
M  V30 7 C -0.7498 1.1948 -0.8915 0
M  V30 8 C -1.1055 -0.6689 0.8021 0
M  V30 9 C -2.2077 1.1637 -1.2934 0
M  V30 10 C 0.1049 2.259 -1.5384 0
M  V30 11 C -2.6228 -0.4741 0.5356 0
M  V30 12 C -0.6623 -2.0623 0.3014 0
M  V30 13 C -0.8877 -0.606 2.3313 0
M  V30 14 C -2.9019 -0.142 -0.9251 0
M  V30 15 H 1.8488 -0.4321 -1.2924 0
M  V30 16 H 4.5157 0.0362 -1.9063 0
M  V30 17 H 5.5994 -0.3931 -0.5266 0
M  V30 18 H 4.3724 -1.5832 -1.1099 0
M  V30 19 H 1.4388 0.8941 1.4353 0
M  V30 20 H -2.7287 2.0106 -0.7962 0
M  V30 21 H -2.2972 1.3076 -2.392 0
M  V30 22 H 0.5582 2.9111 -0.762 0
M  V30 23 H 0.9067 1.7883 -2.1437 0
M  V30 24 H -0.4963 2.9046 -2.213 0
M  V30 25 H -3.1915 -1.3873 0.8184 0
M  V30 26 H -3.0187 0.358 1.1614 0
M  V30 27 H -0.7304 -2.1313 -0.8042 0
M  V30 28 H -1.2936 -2.8618 0.7453 0
M  V30 29 H 0.3923 -2.2669 0.5852 0
M  V30 30 H 0.156 -0.8707 2.6046 0
M  V30 31 H -1.1005 0.416 2.713 0
M  V30 32 H -1.5609 -1.3216 2.8518 0
M  V30 33 H -2.5541 -0.9605 -1.5897 0
M  V30 34 H -3.9974 -0.0285 -1.0749 0
M  V30 END ATOM
M  V30 BEGIN BOND
M  V30 1 2 1 2
M  V30 2 1 2 3
M  V30 3 1 2 4
M  V30 4 2 3 5
M  V30 5 1 5 6
M  V30 6 2 6 7
M  V30 7 1 6 8
M  V30 8 1 7 9
M  V30 9 1 7 10
M  V30 10 1 8 11
M  V30 11 1 8 12
M  V30 12 1 8 13
M  V30 13 1 9 14
M  V30 14 1 11 14
M  V30 15 1 3 15
M  V30 16 1 4 16
M  V30 17 1 4 17
M  V30 18 1 4 18
M  V30 19 1 5 19
M  V30 20 1 9 20
M  V30 21 1 9 21
M  V30 22 1 10 22
M  V30 23 1 10 23
M  V30 24 1 10 24
M  V30 25 1 11 25
M  V30 26 1 11 26
M  V30 27 1 12 27
M  V30 28 1 12 28
M  V30 29 1 12 29
M  V30 30 1 13 30
M  V30 31 1 13 31
M  V30 32 1 13 32
M  V30 33 1 14 33
M  V30 34 1 14 34
M  V30 END BOND
M  V30 END CTAB
M  END
>  <Structure No>
827

>  <LogS>
-3.079863818

>  <MMFF94 Energy>
29.568

$$$$
Compound 828
Actelion Java MolfileCreator 2.0

  0  0  0  0  0  0              0 V3000
M  V30 BEGIN CTAB
M  V30 COUNTS 41 40 0 0 0
M  V30 BEGIN ATOM
M  V30 1 N -3.5499 0.5395 -0.077 0 CHG=1
M  V30 2 C -3.5027 -0.7402 0.6734 0
M  V30 3 C -4.9423 1.0184 -0.1443 0
M  V30 4 C -2.7017 1.5761 0.5422 0
M  V30 5 C -2.1065 -1.3966 0.723 0
M  V30 6 C -1.541 -1.7173 -0.6709 0
M  V30 7 C -0.3206 -2.6541 -0.6199 0
M  V30 8 C 0.8808 -2.1089 0.1736 0
M  V30 9 C 1.442 -0.8034 -0.4094 0
M  V30 10 C 2.7381 -0.3966 0.3013 0
M  V30 11 C 3.2861 0.9192 -0.2635 0
M  V30 12 C 4.5821 1.3254 0.4469 0
M  V30 13 C 5.1302 2.6351 -0.112 0
M  V30 14 H -3.2301 0.3853 -1.0611 0
M  V30 15 H -3.8496 -0.583 1.7202 0
M  V30 16 H -4.2023 -1.4733 0.2108 0
M  V30 17 H -5.0072 1.9484 -0.7513 0
M  V30 18 H -5.5924 0.2618 -0.6364 0
M  V30 19 H -5.3438 1.2274 0.8727 0
M  V30 20 H -1.6262 1.3339 0.4104 0
M  V30 21 H -2.924 1.6823 1.6272 0
M  V30 22 H -2.8601 2.5613 0.0505 0
M  V30 23 H -2.2026 -2.3438 1.2974 0
M  V30 24 H -1.4037 -0.7499 1.2869 0
M  V30 25 H -1.2678 -0.7824 -1.2018 0
M  V30 26 H -2.3285 -2.22 -1.2739 0
M  V30 27 H -0.6301 -3.6233 -0.1713 0
M  V30 28 H 0.004 -2.8693 -1.6613 0
M  V30 29 H 1.6775 -2.8845 0.1514 0
M  V30 30 H 0.602 -1.9602 1.2385 0
M  V30 31 H 0.6967 0.0108 -0.283 0
M  V30 32 H 1.6439 -0.9386 -1.4946 0
M  V30 33 H 3.4981 -1.198 0.1689 0
M  V30 34 H 2.538 -0.2748 1.3889 0
M  V30 35 H 2.5269 1.7215 -0.1302 0
M  V30 36 H 3.4853 0.798 -1.3512 0
M  V30 37 H 5.3476 0.5298 0.3146 0
M  V30 38 H 4.3898 1.4515 1.5349 0
M  V30 39 H 6.0668 2.9036 0.4204 0
M  V30 40 H 5.355 2.5284 -1.1945 0
M  V30 41 H 4.3932 3.4541 0.0309 0
M  V30 END ATOM
M  V30 BEGIN BOND
M  V30 1 1 1 2
M  V30 2 1 1 3
M  V30 3 1 1 4
M  V30 4 1 2 5
M  V30 5 1 5 6
M  V30 6 1 6 7
M  V30 7 1 7 8
M  V30 8 1 8 9
M  V30 9 1 9 10
M  V30 10 1 10 11
M  V30 11 1 11 12
M  V30 12 1 12 13
M  V30 13 1 1 14
M  V30 14 1 2 15
M  V30 15 1 2 16
M  V30 16 1 3 17
M  V30 17 1 3 18
M  V30 18 1 3 19
M  V30 19 1 4 20
M  V30 20 1 4 21
M  V30 21 1 4 22
M  V30 22 1 5 23
M  V30 23 1 5 24
M  V30 24 1 6 25
M  V30 25 1 6 26
M  V30 26 1 7 27
M  V30 27 1 7 28
M  V30 28 1 8 29
M  V30 29 1 8 30
M  V30 30 1 9 31
M  V30 31 1 9 32
M  V30 32 1 10 33
M  V30 33 1 10 34
M  V30 34 1 11 35
M  V30 35 1 11 36
M  V30 36 1 12 37
M  V30 37 1 12 38
M  V30 38 1 13 39
M  V30 39 1 13 40
M  V30 40 1 13 41
M  V30 END BOND
M  V30 END CTAB
M  END
>  <Structure No>
828

>  <LogS>
-4.045287835

>  <MMFF94 Energy>
8.1162

$$$$
Compound 829
Actelion Java MolfileCreator 2.0

  0  0  0  0  0  0              0 V3000
M  V30 BEGIN CTAB
M  V30 COUNTS 35 37 0 0 0
M  V30 BEGIN ATOM
M  V30 1 O 5.7252 -0.2414 -0.2414 0
M  V30 2 C 4.6366 0.3084 -0.1867 0
M  V30 3 C 3.4085 -0.3836 -0.6953 0
M  V30 4 C 2.4704 -0.7249 0.4652 0
M  V30 5 C 1.2211 -1.3971 -0.0368 0
M  V30 6 C 0.162 -0.7206 -0.5153 0
M  V30 7 C -0.0072 0.7737 -0.6242 0 CFG=2
M  V30 8 C -1.0874 -1.3566 -1.0341 0
M  V30 9 C -1.0582 1.2588 0.4096 0 CFG=1
M  V30 10 C -0.822 0.8266 -1.905 0
M  V30 11 C -1.9192 -0.1006 -1.3975 0 CFG=2
M  V30 12 C -2.3755 0.7006 -0.1442 0 CFG=1
M  V30 13 C -0.923 0.746 1.8492 0
M  V30 14 C -3.082 -0.0472 0.9916 0
M  V30 15 C -2.32 0.3007 2.2673 0
M  V30 16 H 4.5571 1.2986 0.2504 0
M  V30 17 H 2.9008 0.287 -1.4201 0
M  V30 18 H 3.6934 -1.3165 -1.2306 0
M  V30 19 H 2.2117 0.1872 1.0464 0
M  V30 20 H 2.9912 -1.4245 1.1547 0
M  V30 21 H 1.1759 -2.4818 -3.0E-4 0
M  V30 22 H 0.925 1.374 -0.6592 0
M  V30 23 H -1.5502 -2.0244 -0.2843 0
M  V30 24 H -0.8586 -1.946 -1.9488 0
M  V30 25 H -1.0937 2.3725 0.4143 0
M  V30 26 H -1.1872 1.8521 -2.1485 0
M  V30 27 H -0.2766 0.4185 -2.7891 0
M  V30 28 H -2.7308 -0.2919 -2.1314 0
M  V30 29 H -3.0248 1.5454 -0.4729 0
M  V30 30 H -0.5529 1.5526 2.5189 0
M  V30 31 H -0.2276 -0.1118 1.9388 0
M  V30 32 H -3.1154 -1.1426 0.8465 0
M  V30 33 H -4.1367 0.295 1.0777 0
M  V30 34 H -2.8325 1.1421 2.7846 0
M  V30 35 H -2.2744 -0.5691 2.9578 0
M  V30 END ATOM
M  V30 BEGIN BOND
M  V30 1 2 1 2
M  V30 2 1 2 3
M  V30 3 1 3 4
M  V30 4 1 4 5
M  V30 5 2 5 6
M  V30 6 1 6 7
M  V30 7 1 6 8
M  V30 8 1 7 9
M  V30 9 1 7 10
M  V30 10 1 8 11
M  V30 11 1 9 12
M  V30 12 1 9 13
M  V30 13 1 12 14
M  V30 14 1 13 15
M  V30 15 1 10 11
M  V30 16 1 11 12
M  V30 17 1 14 15
M  V30 18 1 2 16
M  V30 19 1 3 17
M  V30 20 1 3 18
M  V30 21 1 4 19
M  V30 22 1 4 20
M  V30 23 1 5 21
M  V30 24 1 7 22
M  V30 25 1 8 23
M  V30 26 1 8 24
M  V30 27 1 9 25
M  V30 28 1 10 26
M  V30 29 1 10 27
M  V30 30 1 11 28
M  V30 31 1 12 29
M  V30 32 1 13 30
M  V30 33 1 13 31
M  V30 34 1 14 32
M  V30 35 1 14 33
M  V30 36 1 15 34
M  V30 37 1 15 35
M  V30 END BOND
M  V30 BEGIN COLLECTION
M  V30 MDLV30/STEABS ATOMS=(4 7 9 11 12)
M  V30 END COLLECTION
M  V30 END CTAB
M  END
>  <Structure No>
829

>  <LogS>
-4.090187913

>  <MMFF94 Energy>
44.1

$$$$
Compound 830
Actelion Java MolfileCreator 2.0

  0  0  0  0  0  0              0 V3000
M  V30 BEGIN CTAB
M  V30 COUNTS 30 29 0 0 0
M  V30 BEGIN ATOM
M  V30 1 S -3.323 -0.158 -1.8187 0
M  V30 2 C -2.595 0.3983 -0.23 0
M  V30 3 C -1.0436 0.4229 -0.3163 0
M  V30 4 C -3.1042 1.8213 0.0603 0
M  V30 5 C -3.0796 -0.5412 0.8883 0
M  V30 6 C -0.3939 -0.9588 -0.5406 0
M  V30 7 C 1.097 -0.8583 -0.9008 0
M  V30 8 C 1.9579 -0.3651 0.2716 0
M  V30 9 C 3.4481 -0.4121 -0.0847 0
M  V30 10 C 4.3081 0.0881 1.0721 0
M  V30 11 H -2.7176 0.8579 -2.583 0
M  V30 12 H -0.6419 0.853 0.6267 0
M  V30 13 H -0.7411 1.1034 -1.1425 0
M  V30 14 H -2.7647 2.5282 -0.7268 0
M  V30 15 H -2.7235 2.1818 1.0404 0
M  V30 16 H -4.2151 1.8415 0.0876 0
M  V30 17 H -2.846 -1.5993 0.6476 0
M  V30 18 H -2.5986 -0.2796 1.8554 0
M  V30 19 H -4.1816 -0.4639 1.0115 0
M  V30 20 H -0.9052 -1.4829 -1.3749 0
M  V30 21 H -0.5057 -1.5854 0.3702 0
M  V30 22 H 1.4451 -1.8709 -1.2012 0
M  V30 23 H 1.228 -0.185 -1.776 0
M  V30 24 H 1.7733 -1.0054 1.1622 0
M  V30 25 H 1.6824 0.6815 0.5227 0
M  V30 26 H 3.7437 -1.4564 -0.3259 0
M  V30 27 H 3.6401 0.2232 -0.9768 0
M  V30 28 H 5.3799 0.0412 0.786 0
M  V30 29 H 4.0517 1.1411 1.3166 0
M  V30 30 H 4.1523 -0.5456 1.971 0
M  V30 END ATOM
M  V30 BEGIN BOND
M  V30 1 1 1 2
M  V30 2 1 2 3
M  V30 3 1 2 4
M  V30 4 1 2 5
M  V30 5 1 3 6
M  V30 6 1 6 7
M  V30 7 1 7 8
M  V30 8 1 8 9
M  V30 9 1 9 10
M  V30 10 1 1 11
M  V30 11 1 3 12
M  V30 12 1 3 13
M  V30 13 1 4 14
M  V30 14 1 4 15
M  V30 15 1 4 16
M  V30 16 1 5 17
M  V30 17 1 5 18
M  V30 18 1 5 19
M  V30 19 1 6 20
M  V30 20 1 6 21
M  V30 21 1 7 22
M  V30 22 1 7 23
M  V30 23 1 8 24
M  V30 24 1 8 25
M  V30 25 1 9 26
M  V30 26 1 9 27
M  V30 27 1 10 28
M  V30 28 1 10 29
M  V30 29 1 10 30
M  V30 END BOND
M  V30 END CTAB
M  END
>  <Structure No>
830

>  <LogS>
-3.990160109

>  <MMFF94 Energy>
12.681

$$$$
Compound 831
Actelion Java MolfileCreator 2.0

  0  0  0  0  0  0              0 V3000
M  V30 BEGIN CTAB
M  V30 COUNTS 33 32 0 0 0
M  V30 BEGIN ATOM
M  V30 1 O 5.5371 0.4669 0.1556 0
M  V30 2 C 5.4339 -0.5937 0.8281 0
M  V30 3 O 4.2295 -0.9453 1.446 0
M  V30 4 C 3.034 -0.1747 1.3321 0
M  V30 5 C 2.3622 -0.4225 -0.0269 0
M  V30 6 C 1.1819 0.54 -0.3085 0 CFG=2
M  V30 7 C -0.0244 0.2408 0.6195 0
M  V30 8 C 0.7854 0.4371 -1.7909 0
M  V30 9 C -1.1989 1.2299 0.4598 0
M  V30 10 C -2.2404 0.7328 -0.5157 0
M  V30 11 C -3.1781 -0.1964 -0.2208 0
M  V30 12 C -4.1743 -0.6104 -1.2727 0
M  V30 13 C -3.3261 -0.7749 1.1655 0
M  V30 14 H 6.2931 -1.2412 0.9352 0
M  V30 15 H 2.3529 -0.4902 2.1481 0
M  V30 16 H 3.2632 0.9046 1.4709 0
M  V30 17 H 2.0147 -1.4777 -0.0787 0
M  V30 18 H 3.1324 -0.2892 -0.8171 0
M  V30 19 H 1.5291 1.5812 -0.1242 0
M  V30 20 H 0.31 0.3165 1.6746 0
M  V30 21 H -0.3615 -0.8068 0.4646 0
M  V30 22 H 1.6756 0.5625 -2.4434 0
M  V30 23 H 0.0759 1.2447 -2.0617 0
M  V30 24 H 0.3209 -0.5492 -2.0056 0
M  V30 25 H -1.6733 1.417 1.4466 0
M  V30 26 H -0.8207 2.2164 0.1146 0
M  V30 27 H -2.2366 1.18 -1.5057 0
M  V30 28 H -3.8697 -0.2789 -2.2886 0
M  V30 29 H -5.1656 -0.1707 -1.0353 0
M  V30 30 H -4.2644 -1.717 -1.2881 0
M  V30 31 H -3.5363 0.0334 1.8965 0
M  V30 32 H -2.4059 -1.3162 1.4634 0
M  V30 33 H -4.1716 -1.4941 1.2043 0
M  V30 END ATOM
M  V30 BEGIN BOND
M  V30 1 2 1 2
M  V30 2 1 2 3
M  V30 3 1 3 4
M  V30 4 1 4 5
M  V30 5 1 5 6
M  V30 6 1 6 7
M  V30 7 1 6 8
M  V30 8 1 7 9
M  V30 9 1 9 10
M  V30 10 2 10 11
M  V30 11 1 11 12
M  V30 12 1 11 13
M  V30 13 1 2 14
M  V30 14 1 4 15
M  V30 15 1 4 16
M  V30 16 1 5 17
M  V30 17 1 5 18
M  V30 18 1 6 19
M  V30 19 1 7 20
M  V30 20 1 7 21
M  V30 21 1 8 22
M  V30 22 1 8 23
M  V30 23 1 8 24
M  V30 24 1 9 25
M  V30 25 1 9 26
M  V30 26 1 10 27
M  V30 27 1 12 28
M  V30 28 1 12 29
M  V30 29 1 12 30
M  V30 30 1 13 31
M  V30 31 1 13 32
M  V30 32 1 13 33
M  V30 END BOND
M  V30 BEGIN COLLECTION
M  V30 MDLV30/STEABS ATOMS=(1 6)
M  V30 END COLLECTION
M  V30 END CTAB
M  END
>  <Structure No>
831

>  <LogS>
-4.055960832

>  <MMFF94 Energy>
7.2227

$$$$
Compound 832
Actelion Java MolfileCreator 2.0

  0  0  0  0  0  0              0 V3000
M  V30 BEGIN CTAB
M  V30 COUNTS 75 76 0 0 0
M  V30 BEGIN ATOM
M  V30 1 S 2.722 -0.1599 -3.4435 0
M  V30 2 O 3.7089 -0.6307 -2.4178 0
M  V30 3 O 2.9104 1.316 -3.6574 0
M  V30 4 O 3.0933 -0.9784 -4.8641 0 CHG=-1
M  V30 5 C 1.0033 -0.4757 -3.0159 0
M  V30 6 C 0.0254 -0.443 -4.0553 0
M  V30 7 C 0.5805 -0.7628 -1.6745 0
M  V30 8 C -1.2975 -0.872 -3.7902 0
M  V30 9 C 0.316 0.0267 -5.3603 0
M  V30 10 C -0.7735 -1.1469 -1.4341 0
M  V30 11 C 1.5423 -0.6754 -0.4991 0
M  V30 12 C -1.6686 -1.2404 -2.5023 0
M  V30 13 C -2.2572 -0.9027 -4.817 0
M  V30 14 C -0.6492 -0.0024 -6.3692 0
M  V30 15 C -1.3321 -1.4203 -0.0447 0
M  V30 16 C 2.1592 -2.0497 -0.1719 0
M  V30 17 C -1.9289 -0.4781 -6.102 0
M  V30 18 C -1.8554 -0.1404 0.6366 0
M  V30 19 C 2.8936 -2.0712 1.1797 0
M  V30 20 C -3.1838 0.3964 0.0675 0
M  V30 21 C 4.1797 -1.2191 1.2011 0
M  V30 22 C -4.3967 -0.5474 0.2128 0
M  V30 23 C 3.9681 0.1378 1.8962 0
M  V30 24 C -4.6953 -1.018 1.6483 0
M  V30 25 C 5.1957 1.057 1.7877 0
M  V30 26 C -5.0277 0.1097 2.6434 0
M  V30 27 C 6.3452 0.6132 2.7094 0
M  V30 28 C -6.3802 0.8015 2.3689 0
M  V30 29 C 7.5746 1.5295 2.6043 0
M  V30 30 C -6.2163 2.1695 1.6893 0
M  V30 31 C 7.3392 2.9131 3.2107 0
M  V30 32 C -7.5685 2.8476 1.4859 0
M  V30 33 H 1.2712 0.455 -5.6185 0
M  V30 34 H 1.0188 -0.2868 0.3971 0
M  V30 35 H 2.3194 0.09 -0.6801 0
M  V30 36 H -2.6891 -1.5564 -2.3169 0
M  V30 37 H -3.2685 -1.2407 -4.6208 0
M  V30 38 H -0.4046 0.3552 -7.3611 0
M  V30 39 H -2.131 -2.1888 -0.0916 0
M  V30 40 H -0.5674 -1.8791 0.6104 0
M  V30 41 H 2.8467 -2.3802 -0.9754 0
M  V30 42 H 1.3579 -2.8161 -0.1296 0
M  V30 43 H -2.6744 -0.4972 -6.887 0
M  V30 44 H -1.095 0.6635 0.5405 0
M  V30 45 H -1.9635 -0.3248 1.7258 0
M  V30 46 H 2.1984 -1.7734 1.9958 0
M  V30 47 H 3.1766 -3.1275 1.3819 0
M  V30 48 H -3.4103 1.3602 0.5684 0
M  V30 49 H -3.051 0.6406 -1.007 0
M  V30 50 H 4.5656 -1.0673 0.1694 0
M  V30 51 H 4.9561 -1.7842 1.7603 0
M  V30 52 H -4.245 -1.4426 -0.423 0
M  V30 53 H -5.295 -0.0435 -0.1999 0
M  V30 54 H 3.7105 -0.0231 2.9669 0
M  V30 55 H 3.11 0.6638 1.4292 0
M  V30 56 H -5.5489 -1.7292 1.6147 0
M  V30 57 H -3.8331 -1.6009 2.0342 0
M  V30 58 H 5.546 1.0984 0.7325 0
M  V30 59 H 4.8731 2.0806 2.075 0
M  V30 60 H -4.196 0.8431 2.7005 0
M  V30 61 H -5.0844 -0.3569 3.6508 0
M  V30 62 H 6.6683 -0.4103 2.4253 0
M  V30 63 H 5.9947 0.5764 3.7648 0
M  V30 64 H -6.896 0.9582 3.3423 0
M  V30 65 H -7.0387 0.1504 1.7525 0
M  V30 66 H 7.8848 1.635 1.5416 0
M  V30 67 H 8.4142 1.0494 3.1528 0
M  V30 68 H -5.5805 2.8274 2.3211 0
M  V30 69 H -5.7288 2.0546 0.7009 0
M  V30 70 H 8.3013 3.4674 3.2491 0
M  V30 71 H 6.9413 2.8239 4.2441 0
M  V30 72 H 6.6299 3.4997 2.5906 0
M  V30 73 H -8.0653 3.0205 2.4657 0
M  V30 74 H -7.4229 3.8278 0.9858 0
M  V30 75 H -8.225 2.2168 0.8481 0
M  V30 END ATOM
M  V30 BEGIN BOND
M  V30 1 2 1 2
M  V30 2 2 1 3
M  V30 3 1 1 4
M  V30 4 1 1 5
M  V30 5 1 5 6
M  V30 6 2 5 7
M  V30 7 1 6 8
M  V30 8 2 6 9
M  V30 9 1 7 10
M  V30 10 1 7 11
M  V30 11 1 8 12
M  V30 12 2 8 13
M  V30 13 1 9 14
M  V30 14 1 10 15
M  V30 15 1 11 16
M  V30 16 1 13 17
M  V30 17 1 15 18
M  V30 18 1 16 19
M  V30 19 1 18 20
M  V30 20 1 19 21
M  V30 21 1 20 22
M  V30 22 1 21 23
M  V30 23 1 22 24
M  V30 24 1 23 25
M  V30 25 1 24 26
M  V30 26 1 25 27
M  V30 27 1 26 28
M  V30 28 1 27 29
M  V30 29 1 28 30
M  V30 30 1 29 31
M  V30 31 1 30 32
M  V30 32 2 10 12
M  V30 33 2 14 17
M  V30 34 1 9 33
M  V30 35 1 11 34
M  V30 36 1 11 35
M  V30 37 1 12 36
M  V30 38 1 13 37
M  V30 39 1 14 38
M  V30 40 1 15 39
M  V30 41 1 15 40
M  V30 42 1 16 41
M  V30 43 1 16 42
M  V30 44 1 17 43
M  V30 45 1 18 44
M  V30 46 1 18 45
M  V30 47 1 19 46
M  V30 48 1 19 47
M  V30 49 1 20 48
M  V30 50 1 20 49
M  V30 51 1 21 50
M  V30 52 1 21 51
M  V30 53 1 22 52
M  V30 54 1 22 53
M  V30 55 1 23 54
M  V30 56 1 23 55
M  V30 57 1 24 56
M  V30 58 1 24 57
M  V30 59 1 25 58
M  V30 60 1 25 59
M  V30 61 1 26 60
M  V30 62 1 26 61
M  V30 63 1 27 62
M  V30 64 1 27 63
M  V30 65 1 28 64
M  V30 66 1 28 65
M  V30 67 1 29 66
M  V30 68 1 29 67
M  V30 69 1 30 68
M  V30 70 1 30 69
M  V30 71 1 31 70
M  V30 72 1 31 71
M  V30 73 1 31 72
M  V30 74 1 32 73
M  V30 75 1 32 74
M  V30 76 1 32 75
M  V30 END BOND
M  V30 END CTAB
M  END
>  <Structure No>
832

>  <LogS>
-4.788424219

>  <MMFF94 Energy>
74.386

$$$$
Compound 833
Actelion Java MolfileCreator 2.0

  0  0  0  0  0  0              0 V3000
M  V30 BEGIN CTAB
M  V30 COUNTS 34 33 0 0 0
M  V30 BEGIN ATOM
M  V30 1 O -4.9006 -1.2428 1.0874 0
M  V30 2 C -3.946 -0.4827 1.1294 0
M  V30 3 C -3.358 0.0685 -0.1455 0 CFG=2
M  V30 4 C -2.0144 0.7828 0.114 0
M  V30 5 C -4.3551 1.0326 -0.7985 0
M  V30 6 C -0.9058 -0.1983 0.5277 0
M  V30 7 C 0.4297 0.5335 0.7252 0
M  V30 8 C 1.5279 -0.3701 1.3158 0
M  V30 9 C 1.927 -1.5694 0.4355 0
M  V30 10 C 2.4946 -1.2031 -0.9488 0
M  V30 11 C 3.8557 -0.478 -0.8913 0
M  V30 12 C 3.7306 1.0299 -1.107 0
M  V30 13 H -3.5254 -0.2184 2.0949 0
M  V30 14 H -3.1837 -0.775 -0.85 0
M  V30 15 H -1.6919 1.2986 -0.8177 0
M  V30 16 H -2.1461 1.5579 0.9019 0
M  V30 17 H -5.3117 0.5102 -1.0152 0
M  V30 18 H -3.9487 1.4128 -1.7598 0
M  V30 19 H -4.5607 1.8959 -0.1289 0
M  V30 20 H -1.1883 -0.7072 1.4744 0
M  V30 21 H -0.7939 -0.9647 -0.2685 0
M  V30 22 H 0.2746 1.3774 1.4329 0
M  V30 23 H 0.7627 0.9752 -0.2366 0
M  V30 24 H 2.4273 0.243 1.5326 0
M  V30 25 H 1.1761 -0.76 2.296 0
M  V30 26 H 2.6848 -2.1698 0.9848 0
M  V30 27 H 1.0498 -2.2364 0.2995 0
M  V30 28 H 2.6443 -2.1593 -1.4966 0
M  V30 29 H 1.7505 -0.6324 -1.5436 0
M  V30 30 H 4.3745 -0.6738 0.0721 0
M  V30 31 H 4.5075 -0.8793 -1.698 0
M  V30 32 H 3.1457 1.503 -0.2938 0
M  V30 33 H 4.7428 1.4862 -1.1162 0
M  V30 34 H 3.2411 1.2417 -2.0814 0
M  V30 END ATOM
M  V30 BEGIN BOND
M  V30 1 2 1 2
M  V30 2 1 2 3
M  V30 3 1 3 4
M  V30 4 1 3 5
M  V30 5 1 4 6
M  V30 6 1 6 7
M  V30 7 1 7 8
M  V30 8 1 8 9
M  V30 9 1 9 10
M  V30 10 1 10 11
M  V30 11 1 11 12
M  V30 12 1 2 13
M  V30 13 1 3 14
M  V30 14 1 4 15
M  V30 15 1 4 16
M  V30 16 1 5 17
M  V30 17 1 5 18
M  V30 18 1 5 19
M  V30 19 1 6 20
M  V30 20 1 6 21
M  V30 21 1 7 22
M  V30 22 1 7 23
M  V30 23 1 8 24
M  V30 24 1 8 25
M  V30 25 1 9 26
M  V30 26 1 9 27
M  V30 27 1 10 28
M  V30 28 1 10 29
M  V30 29 1 11 30
M  V30 30 1 11 31
M  V30 31 1 12 32
M  V30 32 1 12 33
M  V30 33 1 12 34
M  V30 END BOND
M  V30 BEGIN COLLECTION
M  V30 MDLV30/STEABS ATOMS=(1 3)
M  V30 END COLLECTION
M  V30 END CTAB
M  END
>  <Structure No>
833

>  <LogS>
-4.027084465

>  <MMFF94 Energy>
3.0767

$$$$
Compound 834
Actelion Java MolfileCreator 2.0

  0  0  0  0  0  0              0 V3000
M  V30 BEGIN CTAB
M  V30 COUNTS 28 28 0 0 0
M  V30 BEGIN ATOM
M  V30 1 O -0.8862 2.0956 1.6923 0
M  V30 2 C -0.5975 1.082 1.0733 0
M  V30 3 C -1.4822 -0.1439 1.1733 0 CFG=1
M  V30 4 C 0.6442 1.0553 0.2203 0
M  V30 5 C -2.8962 0.1969 0.7976 0
M  V30 6 C -0.9652 -1.2946 0.2862 0
M  V30 7 C 1.4321 -0.25 0.4524 0 CFG=1
M  V30 8 O -3.8408 -0.1028 1.5785 0
M  V30 9 O -3.1568 0.8229 -0.4259 0
M  V30 10 C 0.5229 -1.4625 0.4508 0
M  V30 11 C 2.5146 -0.3932 -0.5799 0
M  V30 12 C -4.4717 1.1635 -0.8476 0
M  V30 13 O 0.9955 -2.5809 0.5915 0
M  V30 14 O 2.2136 -0.6192 -1.7851 0
M  V30 15 O 3.8514 -0.2531 -0.1959 0
M  V30 16 C 4.9287 -0.3659 -1.1177 0
M  V30 17 H -1.4599 -0.4857 2.2325 0
M  V30 18 H 1.2923 1.9281 0.4565 0
M  V30 19 H 0.3322 1.1359 -0.8442 0
M  V30 20 H -1.1713 -1.0801 -0.7855 0
M  V30 21 H -1.4911 -2.2372 0.556 0
M  V30 22 H 1.9072 -0.1921 1.4569 0
M  V30 23 H -4.9308 1.8721 -0.1258 0
M  V30 24 H -5.0956 0.2477 -0.9235 0
M  V30 25 H -4.4209 1.6478 -1.8442 0
M  V30 26 H 5.8868 -0.2181 -0.5785 0
M  V30 27 H 4.9281 -1.3752 -1.5812 0
M  V30 28 H 4.8363 0.4099 -1.907 0
M  V30 END ATOM
M  V30 BEGIN BOND
M  V30 1 2 1 2
M  V30 2 1 2 3
M  V30 3 1 2 4
M  V30 4 1 3 5
M  V30 5 1 3 6
M  V30 6 1 4 7
M  V30 7 2 5 8
M  V30 8 1 5 9
M  V30 9 1 6 10
M  V30 10 1 7 11
M  V30 11 1 9 12
M  V30 12 2 10 13
M  V30 13 2 11 14
M  V30 14 1 11 15
M  V30 15 1 15 16
M  V30 16 1 7 10
M  V30 17 1 3 17
M  V30 18 1 4 18
M  V30 19 1 4 19
M  V30 20 1 6 20
M  V30 21 1 6 21
M  V30 22 1 7 22
M  V30 23 1 12 23
M  V30 24 1 12 24
M  V30 25 1 12 25
M  V30 26 1 16 26
M  V30 27 1 16 27
M  V30 28 1 16 28
M  V30 END BOND
M  V30 BEGIN COLLECTION
M  V30 MDLV30/STEABS ATOMS=(2 3 7)
M  V30 END COLLECTION
M  V30 END CTAB
M  END
>  <Structure No>
834

>  <LogS>
-4.154195657

>  <MMFF94 Energy>
-66.927

$$$$
Compound 835
Actelion Java MolfileCreator 2.0

  0  0  0  0  0  0              0 V3000
M  V30 BEGIN CTAB
M  V30 COUNTS 33 34 0 0 0
M  V30 BEGIN ATOM
M  V30 1 O 4.6879 1.5872 1.5078 0
M  V30 2 C 3.5664 0.9655 0.9637 0
M  V30 3 C 2.5047 0.6071 1.7952 0
M  V30 4 C 3.4949 0.6935 -0.4062 0
M  V30 5 C 1.3734 -0.0159 1.2633 0
M  V30 6 C 2.3652 0.0702 -0.9447 0
M  V30 7 C 1.2717 -0.2818 -0.12 0
M  V30 8 C 0.0159 -0.9966 -0.6559 0
M  V30 9 C -1.2448 -0.2785 -0.1363 0
M  V30 10 C -0.0698 -0.9957 -2.2014 0
M  V30 11 C 0.1068 -2.472 -0.1965 0
M  V30 12 C -1.3522 1.1211 -0.2926 0
M  V30 13 C -2.3372 -0.9666 0.4408 0
M  V30 14 C -2.4882 1.8088 0.1409 0
M  V30 15 C -3.4714 -0.2725 0.8728 0
M  V30 16 C -3.55 1.1132 0.7272 0
M  V30 17 O -4.6875 1.7884 1.1644 0
M  V30 18 H 5.4752 1.8585 0.9306 0
M  V30 19 H 2.557 0.8085 2.8577 0
M  V30 20 H 4.3178 0.9616 -1.0568 0
M  V30 21 H 0.5698 -0.2908 1.9351 0
M  V30 22 H 2.3646 -0.1272 -2.0062 0
M  V30 23 H -0.0057 0.0378 -2.6045 0
M  V30 24 H 0.7414 -1.6077 -2.6512 0
M  V30 25 H -1.0363 -1.4325 -2.5352 0
M  V30 26 H 1.0763 -2.9159 -0.5116 0
M  V30 27 H 0.0392 -2.5508 0.9098 0
M  V30 28 H -0.7002 -3.0866 -0.6504 0
M  V30 29 H -0.5497 1.6848 -0.7517 0
M  V30 30 H -2.3323 -2.0389 0.5669 0
M  V30 31 H -2.5427 2.8828 0.0169 0
M  V30 32 H -4.2947 -0.8159 1.3192 0
M  V30 33 H -4.7749 2.7937 1.0717 0
M  V30 END ATOM
M  V30 BEGIN BOND
M  V30 1 1 1 2
M  V30 2 2 2 3
M  V30 3 1 2 4
M  V30 4 1 3 5
M  V30 5 2 4 6
M  V30 6 2 5 7
M  V30 7 1 7 8
M  V30 8 1 8 9
M  V30 9 1 8 10
M  V30 10 1 8 11
M  V30 11 2 9 12
M  V30 12 1 9 13
M  V30 13 1 12 14
M  V30 14 2 13 15
M  V30 15 2 14 16
M  V30 16 1 16 17
M  V30 17 1 6 7
M  V30 18 1 15 16
M  V30 19 1 1 18
M  V30 20 1 3 19
M  V30 21 1 4 20
M  V30 22 1 5 21
M  V30 23 1 6 22
M  V30 24 1 10 23
M  V30 25 1 10 24
M  V30 26 1 10 25
M  V30 27 1 11 26
M  V30 28 1 11 27
M  V30 29 1 11 28
M  V30 30 1 12 29
M  V30 31 1 13 30
M  V30 32 1 14 31
M  V30 33 1 15 32
M  V30 34 1 17 33
M  V30 END BOND
M  V30 END CTAB
M  END
>  <Structure No>
835

>  <LogS>
-4.374400038

>  <MMFF94 Energy>
42.953

$$$$
Compound 836
Actelion Java MolfileCreator 2.0

  0  0  0  0  0  0              0 V3000
M  V30 BEGIN CTAB
M  V30 COUNTS 19 19 0 0 0
M  V30 BEGIN ATOM
M  V30 1 O 3.9939 -0.1595 -0.6382 0
M  V30 2 N 2.9293 -0.5256 -0.102 0 CHG=1
M  V30 3 O 2.9714 -1.5485 0.8179 0 CHG=-1
M  V30 4 N 1.8058 0.3143 -0.1834 0
M  V30 5 C 0.571 -0.0771 -0.0369 0
M  V30 6 N -0.4932 0.8856 -0.0298 0
M  V30 7 N 0.2221 -1.4614 0.0816 0
M  V30 8 C -1.8678 0.3906 0.1035 0
M  V30 9 C -0.2331 2.3051 -0.2777 0
M  V30 10 C -1.1858 -1.8209 0.2293 0
M  V30 11 O -1.9032 -0.7907 0.8834 0
M  V30 12 H 0.8876 -2.2104 -0.2096 0
M  V30 13 H -2.3097 0.2209 -0.9043 0
M  V30 14 H -2.4922 1.154 0.6142 0
M  V30 15 H 0.4043 2.7154 0.5332 0
M  V30 16 H 0.2858 2.4279 -1.2517 0
M  V30 17 H -1.1796 2.8857 -0.3119 0
M  V30 18 H -1.2571 -2.7426 0.8436 0
M  V30 19 H -1.6273 -2.0478 -0.7672 0
M  V30 END ATOM
M  V30 BEGIN BOND
M  V30 1 2 1 2
M  V30 2 1 2 3
M  V30 3 1 2 4
M  V30 4 2 4 5
M  V30 5 1 5 6
M  V30 6 1 5 7
M  V30 7 1 6 8
M  V30 8 1 6 9
M  V30 9 1 7 10
M  V30 10 1 8 11
M  V30 11 1 10 11
M  V30 12 1 7 12
M  V30 13 1 8 13
M  V30 14 1 8 14
M  V30 15 1 9 15
M  V30 16 1 9 16
M  V30 17 1 9 17
M  V30 18 1 10 18
M  V30 19 1 10 19
M  V30 END BOND
M  V30 END CTAB
M  END
>  <Structure No>
836

>  <LogS>
-1.002292328

>  <MMFF94 Energy>
-179.44

$$$$
Compound 837
Actelion Java MolfileCreator 2.0

  0  0  0  0  0  0              0 V3000
M  V30 BEGIN CTAB
M  V30 COUNTS 31 33 0 0 0
M  V30 BEGIN ATOM
M  V30 1 O 5.3857 0.7221 0.4011 0
M  V30 2 C 4.1991 0.7961 -0.0127 0
M  V30 3 N 3.9095 1.427 -1.1882 0
M  V30 4 C 3.1477 0.2411 0.7028 0
M  V30 5 C 2.6213 1.509 -1.6529 0
M  V30 6 N 3.1725 -0.4412 1.8622 0
M  V30 7 C 1.8828 0.3366 0.2303 0
M  V30 8 N 1.591 0.9566 -0.9419 0
M  V30 9 C 1.8603 -0.7465 2.058 0
M  V30 10 N 1.0429 -0.2781 1.0791 0
M  V30 11 C -0.4051 -0.479 0.9803 0 CFG=1
M  V30 12 O -1.0481 0.7277 0.65 0
M  V30 13 C -0.7493 -1.5007 -0.0921 0 CFG=1
M  V30 14 C -2.2512 0.3788 -0.003 0 CFG=2
M  V30 15 O -0.7298 -2.8102 0.4151 0
M  V30 16 C -2.1412 -1.0714 -0.5167 0 CFG=2
M  V30 17 C -2.5244 1.3676 -1.1448 0
M  V30 18 O -3.1495 -1.8876 0.0347 0
M  V30 19 O -2.58 2.6803 -0.6549 0
M  V30 20 H 2.4221 2.012 -2.59 0
M  V30 21 H 0.615 1.0133 -1.3036 0
M  V30 22 H 1.5083 -1.314 2.91 0
M  V30 23 H -0.7972 -0.8223 1.9664 0
M  V30 24 H -0.0592 -1.4115 -0.9636 0
M  V30 25 H -3.0842 0.4663 0.7306 0
M  V30 26 H 0.2261 -3.0544 0.5233 0
M  V30 27 H -2.2196 -1.1284 -1.6254 0
M  V30 28 H -1.7116 1.3067 -1.8988 0
M  V30 29 H -3.4804 1.1076 -1.6544 0
M  V30 30 H -3.0678 -1.8537 1.0245 0
M  V30 31 H -3.4581 2.7775 -0.2016 0
M  V30 END ATOM
M  V30 BEGIN BOND
M  V30 1 2 1 2
M  V30 2 1 2 3
M  V30 3 1 2 4
M  V30 4 2 3 5
M  V30 5 1 4 6
M  V30 6 2 4 7
M  V30 7 1 5 8
M  V30 8 2 6 9
M  V30 9 1 7 10
M  V30 10 1 10 11
M  V30 11 1 11 12
M  V30 12 1 11 13
M  V30 13 1 12 14
M  V30 14 1 13 15
M  V30 15 1 13 16
M  V30 16 1 14 17
M  V30 17 1 16 18
M  V30 18 1 17 19
M  V30 19 1 7 8
M  V30 20 1 9 10
M  V30 21 1 14 16
M  V30 22 1 5 20
M  V30 23 1 8 21
M  V30 24 1 9 22
M  V30 25 1 11 23
M  V30 26 1 13 24
M  V30 27 1 14 25
M  V30 28 1 15 26
M  V30 29 1 16 27
M  V30 30 1 17 28
M  V30 31 1 17 29
M  V30 32 1 18 30
M  V30 33 1 19 31
M  V30 END BOND
M  V30 BEGIN COLLECTION
M  V30 MDLV30/STEABS ATOMS=(4 11 13 14 16)
M  V30 END COLLECTION
M  V30 END CTAB
M  END
>  <Structure No>
837

>  <LogS>
-1.229848644

>  <MMFF94 Energy>
125.25

$$$$
Compound 838
Actelion Java MolfileCreator 2.0

  0  0  0  0  0  0              0 V3000
M  V30 BEGIN CTAB
M  V30 COUNTS 22 22 0 0 0
M  V30 BEGIN ATOM
M  V30 1 O 0.9389 -2.2703 0.2346 0
M  V30 2 C 0.6158 -0.9148 0.1009 0
M  V30 3 C -0.7316 -0.4694 0.0958 0
M  V30 4 C 1.6674 0.0104 -0.0301 0
M  V30 5 C -1.0021 0.9191 -0.0431 0
M  V30 6 C -1.8447 -1.4836 0.2384 0
M  V30 7 C 1.3825 1.3729 -0.1658 0
M  V30 8 C 3.0953 -0.4609 -0.0247 0
M  V30 9 C 0.0649 1.821 -0.1721 0
M  V30 10 C -2.4077 1.4642 -0.0569 0
M  V30 11 H 0.2504 -3.0045 0.3342 0
M  V30 12 H -1.7929 -2.2126 -0.5974 0
M  V30 13 H -2.8584 -1.0409 0.2232 0
M  V30 14 H -1.7365 -2.0214 1.2038 0
M  V30 15 H 2.1829 2.0954 -0.2675 0
M  V30 16 H 3.8077 0.384 -0.1367 0
M  V30 17 H 3.2588 -1.1679 -0.865 0
M  V30 18 H 3.3151 -0.977 0.9334 0
M  V30 19 H -0.1205 2.8828 -0.2789 0
M  V30 20 H -2.422 2.5688 -0.1737 0
M  V30 21 H -2.973 1.0287 -0.9074 0
M  V30 22 H -2.9166 1.2205 0.8993 0
M  V30 END ATOM
M  V30 BEGIN BOND
M  V30 1 1 1 2
M  V30 2 2 2 3
M  V30 3 1 2 4
M  V30 4 1 3 5
M  V30 5 1 3 6
M  V30 6 2 4 7
M  V30 7 1 4 8
M  V30 8 2 5 9
M  V30 9 1 5 10
M  V30 10 1 7 9
M  V30 11 1 1 11
M  V30 12 1 6 12
M  V30 13 1 6 13
M  V30 14 1 6 14
M  V30 15 1 7 15
M  V30 16 1 8 16
M  V30 17 1 8 17
M  V30 18 1 8 18
M  V30 19 1 9 19
M  V30 20 1 10 20
M  V30 21 1 10 21
M  V30 22 1 10 22
M  V30 END BOND
M  V30 END CTAB
M  END
>  <Structure No>
838

>  <LogS>
-1.935500888

>  <MMFF94 Energy>
17.951

$$$$
Compound 839
Actelion Java MolfileCreator 2.0

  0  0  0  0  0  0              0 V3000
M  V30 BEGIN CTAB
M  V30 COUNTS 18 18 0 0 0
M  V30 BEGIN ATOM
M  V30 1 C 1.2452 -0.0777 -0.0777 0
M  V30 2 C 0.0466 -0.7691 -0.3162 0
M  V30 3 C 1.1984 1.234 0.4181 0
M  V30 4 C 2.5645 -0.7625 -0.2776 0
M  V30 5 C -1.1909 -0.1408 -0.1032 0
M  V30 6 C -0.0315 1.8555 0.6482 0
M  V30 7 C -1.2227 1.1712 0.3928 0
M  V30 8 C -2.4685 -0.8932 -0.3303 0
M  V30 9 H 0.0768 -1.7937 -0.6678 0
M  V30 10 H 2.1131 1.7734 0.6306 0
M  V30 11 H 2.8542 -1.2856 0.6574 0
M  V30 12 H 2.4997 -1.5037 -1.1025 0
M  V30 13 H 3.3533 -0.0256 -0.5399 0
M  V30 14 H -0.0619 2.867 1.0322 0
M  V30 15 H -2.1685 1.6622 0.5858 0
M  V30 16 H -2.3481 -1.6295 -1.1531 0
M  V30 17 H -3.2888 -0.1981 -0.6094 0
M  V30 18 H -2.7501 -1.4311 0.5988 0
M  V30 END ATOM
M  V30 BEGIN BOND
M  V30 1 2 1 2
M  V30 2 1 1 3
M  V30 3 1 1 4
M  V30 4 1 2 5
M  V30 5 2 3 6
M  V30 6 2 5 7
M  V30 7 1 5 8
M  V30 8 1 6 7
M  V30 9 1 2 9
M  V30 10 1 3 10
M  V30 11 1 4 11
M  V30 12 1 4 12
M  V30 13 1 4 13
M  V30 14 1 6 14
M  V30 15 1 7 15
M  V30 16 1 8 16
M  V30 17 1 8 17
M  V30 18 1 8 18
M  V30 END BOND
M  V30 END CTAB
M  END
>  <Structure No>
839

>  <LogS>
-2.832869038

>  <MMFF94 Energy>
20.616

$$$$
Compound 840
Actelion Java MolfileCreator 2.0

  0  0  0  0  0  0              0 V3000
M  V30 BEGIN CTAB
M  V30 COUNTS 32 31 0 0 0
M  V30 BEGIN ATOM
M  V30 1 O 5.8247 -0.0785 -1.8075 0
M  V30 2 C 5.3139 -0.8527 -0.9554 0
M  V30 3 O 5.295 -2.2215 -1.1927 0 CHG=-1
M  V30 4 C 4.685 -0.2962 0.2825 0
M  V30 5 N 3.3002 0.0949 0.0266 0
M  V30 6 C 2.5224 0.7798 1.0165 0
M  V30 7 O 3.0041 1.0053 2.1602 0
M  V30 8 C 1.1139 1.1936 0.7119 0
M  V30 9 C 0.1495 0.0268 0.9547 0
M  V30 10 C -1.3191 0.4192 0.7289 0
M  V30 11 C -1.6613 0.5999 -0.7598 0
M  V30 12 C -3.1724 0.8158 -0.9887 0
M  V30 13 C -3.9123 -0.4468 -1.4632 0
M  V30 14 C -3.9535 -1.5493 -0.4062 0
M  V30 15 H 5.2653 0.5898 0.617 0
M  V30 16 H 4.712 -1.0614 1.0866 0
M  V30 17 H 2.8598 -0.1137 -0.899 0
M  V30 18 H 1.0602 1.5314 -0.3426 0
M  V30 19 H 0.8336 2.05 1.3623 0
M  V30 20 H 0.2573 -0.3063 2.011 0
M  V30 21 H 0.4166 -0.8344 0.3031 0
M  V30 22 H -1.5484 1.3568 1.2824 0
M  V30 23 H -1.9545 -0.3787 1.1642 0
M  V30 24 H -1.2983 -0.2702 -1.3475 0
M  V30 25 H -1.1243 1.4951 -1.1369 0
M  V30 26 H -3.2976 1.5879 -1.7787 0
M  V30 27 H -3.663 1.22 -0.0751 0
M  V30 28 H -3.4405 -0.8388 -2.3901 0
M  V30 29 H -4.9579 -0.165 -1.7141 0
M  V30 30 H -4.6277 -2.3631 -0.7483 0
M  V30 31 H -2.9426 -1.9823 -0.2577 0
M  V30 32 H -4.3408 -1.1552 0.5582 0
M  V30 END ATOM
M  V30 BEGIN BOND
M  V30 1 2 1 2
M  V30 2 1 2 3
M  V30 3 1 2 4
M  V30 4 1 4 5
M  V30 5 1 5 6
M  V30 6 2 6 7
M  V30 7 1 6 8
M  V30 8 1 8 9
M  V30 9 1 9 10
M  V30 10 1 10 11
M  V30 11 1 11 12
M  V30 12 1 12 13
M  V30 13 1 13 14
M  V30 14 1 4 15
M  V30 15 1 4 16
M  V30 16 1 5 17
M  V30 17 1 8 18
M  V30 18 1 8 19
M  V30 19 1 9 20
M  V30 20 1 9 21
M  V30 21 1 10 22
M  V30 22 1 10 23
M  V30 23 1 11 24
M  V30 24 1 11 25
M  V30 25 1 12 26
M  V30 26 1 12 27
M  V30 27 1 13 28
M  V30 28 1 13 29
M  V30 29 1 14 30
M  V30 30 1 14 31
M  V30 31 1 14 32
M  V30 END BOND
M  V30 END CTAB
M  END
>  <Structure No>
840

>  <LogS>
-2.111537593

>  <MMFF94 Energy>
23.081

$$$$
Compound 841
Actelion Java MolfileCreator 2.0

  0  0  0  0  0  0              0 V3000
M  V30 BEGIN CTAB
M  V30 COUNTS 34 35 0 0 0
M  V30 BEGIN ATOM
M  V30 1 O 2.8019 -0.1599 -1.6003 0
M  V30 2 C 2.6041 -0.8474 -0.5619 0
M  V30 3 O 1.3272 -0.9451 0.0012 0
M  V30 4 C 3.7342 -1.6017 0.0502 0
M  V30 5 C 0.1834 -0.2574 -0.5173 0 CFG=1
M  V30 6 C -1.1243 -0.9295 -0.0184 0 CFG=1
M  V30 7 C 0.0503 1.2014 0.0432 0
M  V30 8 C -1.3299 -0.2847 1.3337 0
M  V30 9 C -2.3175 -0.3622 -0.8217 0
M  V30 10 C -1.0902 -2.463 0.0132 0
M  V30 11 C -1.3282 1.1309 0.7851 0 CFG=2
M  V30 12 C 1.1611 1.5878 1.0557 0
M  V30 13 C 0.0839 2.2437 -1.1005 0
M  V30 14 C -2.5014 1.0357 -0.2125 0
M  V30 15 H 3.871 -2.5629 -0.4869 0
M  V30 16 H 4.6694 -1.0067 -0.0156 0
M  V30 17 H 3.5159 -1.8087 1.1188 0
M  V30 18 H 0.2135 -0.2919 -1.6304 0
M  V30 19 H -2.2984 -0.5665 1.8106 0
M  V30 20 H -0.5073 -0.4982 2.0501 0
M  V30 21 H -2.1038 -0.3086 -1.9114 0
M  V30 22 H -3.2372 -0.9687 -0.6635 0
M  V30 23 H -2.0589 -2.864 0.3805 0
M  V30 24 H -0.2882 -2.8241 0.6912 0
M  V30 25 H -0.9036 -2.8573 -1.0077 0
M  V30 26 H -1.4794 1.9152 1.5586 0
M  V30 27 H 2.1493 1.6547 0.5542 0
M  V30 28 H 0.9416 2.5817 1.5017 0
M  V30 29 H 1.2517 0.8572 1.8844 0
M  V30 30 H -0.2683 3.2314 -0.7331 0
M  V30 31 H 1.1185 2.3608 -1.4882 0
M  V30 32 H -0.5394 1.9364 -1.9653 0
M  V30 33 H -3.4661 1.0856 0.3408 0
M  V30 34 H -2.5176 1.8407 -0.9736 0
M  V30 END ATOM
M  V30 BEGIN BOND
M  V30 1 2 1 2
M  V30 2 1 2 3
M  V30 3 1 2 4
M  V30 4 1 3 5
M  V30 5 1 5 6
M  V30 6 1 5 7
M  V30 7 1 6 8
M  V30 8 1 6 9
M  V30 9 1 6 10
M  V30 10 1 7 11
M  V30 11 1 7 12
M  V30 12 1 7 13
M  V30 13 1 9 14
M  V30 14 1 8 11
M  V30 15 1 11 14
M  V30 16 1 4 15
M  V30 17 1 4 16
M  V30 18 1 4 17
M  V30 19 1 5 18
M  V30 20 1 8 19
M  V30 21 1 8 20
M  V30 22 1 9 21
M  V30 23 1 9 22
M  V30 24 1 10 23
M  V30 25 1 10 24
M  V30 26 1 10 25
M  V30 27 1 11 26
M  V30 28 1 12 27
M  V30 29 1 12 28
M  V30 30 1 12 29
M  V30 31 1 13 30
M  V30 32 1 13 31
M  V30 33 1 13 32
M  V30 34 1 14 33
M  V30 35 1 14 34
M  V30 END BOND
M  V30 BEGIN COLLECTION
M  V30 MDLV30/STEABS ATOMS=(3 5 6 11)
M  V30 END COLLECTION
M  V30 END CTAB
M  END
>  <Structure No>
841

>  <LogS>
-3.874596884

>  <MMFF94 Energy>
43.297

$$$$
Compound 842
Actelion Java MolfileCreator 2.0

  0  0  0  0  0  0              0 V3000
M  V30 BEGIN CTAB
M  V30 COUNTS 41 42 0 0 0
M  V30 BEGIN ATOM
M  V30 1 O -1.1231 0.8824 0.4812 0
M  V30 2 C -1.0783 -0.3702 0.3349 0
M  V30 3 O -2.0345 -1.1902 0.9438 0
M  V30 4 N -0.0466 -0.9698 -0.4572 0
M  V30 5 C -3.1214 -0.6856 1.7173 0
M  V30 6 C 1.0224 -0.184 -1.0871 0 CFG=2
M  V30 7 C -4.1391 -0.0269 0.8264 0
M  V30 8 C 1.5938 -0.9215 -2.2737 0
M  V30 9 C 2.1026 0.2112 -0.0411 0
M  V30 10 C -4.8886 -0.802 -0.0734 0
M  V30 11 C -4.3312 1.3644 0.8637 0
M  V30 12 O 1.9052 -2.1392 -2.1904 0
M  V30 13 O 1.8 -0.2474 -3.471 0 CHG=-1
M  V30 14 C 2.8362 -1.0084 0.593 0
M  V30 15 C 3.0815 1.2695 -0.6109 0
M  V30 16 C -5.8229 -0.194 -0.9178 0
M  V30 17 C -5.2665 1.9684 0.0173 0
M  V30 18 C 4.2727 -1.1643 0.0779 0
M  V30 19 C 4.3187 1.4069 0.2813 0
M  V30 20 C -6.0121 1.1899 -0.8721 0
M  V30 21 C 5.1201 0.0911 0.3602 0
M  V30 22 H -0.0552 -2.0107 -0.55 0
M  V30 23 H -2.7415 0.0145 2.4935 0
M  V30 24 H -3.6033 -1.5338 2.2478 0
M  V30 25 H 0.5703 0.7526 -1.4843 0
M  V30 26 H 1.5629 0.7158 0.7919 0
M  V30 27 H -4.7472 -1.8746 -0.1207 0
M  V30 28 H -3.7573 1.9811 1.5441 0
M  V30 29 H 2.2806 -1.9539 0.4213 0
M  V30 30 H 2.8807 -0.8711 1.6965 0
M  V30 31 H 3.4154 0.9943 -1.6345 0
M  V30 32 H 2.5667 2.2526 -0.6796 0
M  V30 33 H -6.3989 -0.7957 -1.6089 0
M  V30 34 H -5.4118 3.0404 0.0498 0
M  V30 35 H 4.2508 -1.3559 -1.0164 0
M  V30 36 H 4.747 -2.0461 0.5604 0
M  V30 37 H 4.9714 2.2166 -0.1108 0
M  V30 38 H 3.9939 1.7051 1.3028 0
M  V30 39 H -6.735 1.6591 -1.5269 0
M  V30 40 H 5.5722 0.0089 1.3727 0
M  V30 41 H 5.9561 0.124 -0.3718 0
M  V30 END ATOM
M  V30 BEGIN BOND
M  V30 1 2 1 2
M  V30 2 1 2 3
M  V30 3 1 2 4
M  V30 4 1 3 5
M  V30 5 1 4 6
M  V30 6 1 5 7
M  V30 7 1 6 8
M  V30 8 1 6 9
M  V30 9 2 7 10
M  V30 10 1 7 11
M  V30 11 2 8 12
M  V30 12 1 8 13
M  V30 13 1 9 14
M  V30 14 1 9 15
M  V30 15 1 10 16
M  V30 16 2 11 17
M  V30 17 1 14 18
M  V30 18 1 15 19
M  V30 19 2 16 20
M  V30 20 1 18 21
M  V30 21 1 17 20
M  V30 22 1 19 21
M  V30 23 1 4 22
M  V30 24 1 5 23
M  V30 25 1 5 24
M  V30 26 1 6 25
M  V30 27 1 9 26
M  V30 28 1 10 27
M  V30 29 1 11 28
M  V30 30 1 14 29
M  V30 31 1 14 30
M  V30 32 1 15 31
M  V30 33 1 15 32
M  V30 34 1 16 33
M  V30 35 1 17 34
M  V30 36 1 18 35
M  V30 37 1 18 36
M  V30 38 1 19 37
M  V30 39 1 19 38
M  V30 40 1 20 39
M  V30 41 1 21 40
M  V30 42 1 21 41
M  V30 END BOND
M  V30 BEGIN COLLECTION
M  V30 MDLV30/STEABS ATOMS=(1 6)
M  V30 END COLLECTION
M  V30 END CTAB
M  END
>  <Structure No>
842

>  <LogS>
-3.285433603

>  <MMFF94 Energy>
13.287

$$$$
Compound 843
Actelion Java MolfileCreator 2.0

  0  0  0  0  0  0              0 V3000
M  V30 BEGIN CTAB
M  V30 COUNTS 40 40 0 0 0
M  V30 BEGIN ATOM
M  V30 1 O 3.5336 -0.7844 -0.4705 0
M  V30 2 C 2.8859 -0.0631 0.5536 0 CFG=1
M  V30 3 C 1.3893 -0.3147 0.4836 0
M  V30 4 C 3.4197 -0.5563 1.8869 0
M  V30 5 C 3.1773 1.4488 0.4326 0
M  V30 6 C 0.6631 -0.0368 -0.6061 0
M  V30 7 C 4.7313 -0.6594 2.133 0
M  V30 8 C -0.8043 -0.2472 -0.6256 0
M  V30 9 C -1.3083 -1.5116 -0.6743 0
M  V30 10 C -1.6995 0.994 -0.4805 0
M  V30 11 C -2.7958 -1.7826 -0.7129 0
M  V30 12 C -0.3991 -2.7058 -0.8443 0
M  V30 13 C -3.1892 0.6756 -0.7814 0
M  V30 14 C -1.5626 1.5396 0.9592 0
M  V30 15 C -1.2475 2.0958 -1.4661 0
M  V30 16 C -3.6262 -0.6379 -0.1441 0
M  V30 17 H 3.3403 -0.3444 -1.339 0
M  V30 18 H 0.8758 -0.7245 1.3469 0
M  V30 19 H 2.7338 -0.8299 2.6845 0
M  V30 20 H 4.271 1.6396 0.4676 0
M  V30 21 H 2.6921 2.0048 1.2642 0
M  V30 22 H 2.7953 1.8556 -0.5272 0
M  V30 23 H 1.1258 0.4082 -1.4767 0
M  V30 24 H 5.0761 -1.01 3.1005 0
M  V30 25 H 5.4667 -0.3991 1.3782 0
M  V30 26 H -3.0255 -2.7017 -0.1315 0
M  V30 27 H -3.0939 -1.9648 -1.7683 0
M  V30 28 H 0.2183 -2.8477 0.0663 0
M  V30 29 H 0.263 -2.561 -1.724 0
M  V30 30 H -0.9823 -3.6365 -1.0095 0
M  V30 31 H -3.3503 0.5975 -1.8807 0
M  V30 32 H -3.8471 1.4956 -0.4182 0
M  V30 33 H -0.5235 1.8822 1.1549 0
M  V30 34 H -1.8036 0.7574 1.7089 0
M  V30 35 H -2.2404 2.4053 1.1209 0
M  V30 36 H -1.236 1.7056 -2.5068 0
M  V30 37 H -0.2294 2.4676 -1.2212 0
M  V30 38 H -1.9397 2.965 -1.4251 0
M  V30 39 H -3.5155 -0.5972 0.9602 0
M  V30 40 H -4.6998 -0.8178 -0.369 0
M  V30 END ATOM
M  V30 BEGIN BOND
M  V30 1 1 1 2
M  V30 2 1 2 3
M  V30 3 1 2 4
M  V30 4 1 2 5
M  V30 5 2 3 6
M  V30 6 2 4 7
M  V30 7 1 6 8
M  V30 8 2 8 9
M  V30 9 1 8 10
M  V30 10 1 9 11
M  V30 11 1 9 12
M  V30 12 1 10 13
M  V30 13 1 10 14
M  V30 14 1 10 15
M  V30 15 1 11 16
M  V30 16 1 13 16
M  V30 17 1 1 17
M  V30 18 1 3 18
M  V30 19 1 4 19
M  V30 20 1 5 20
M  V30 21 1 5 21
M  V30 22 1 5 22
M  V30 23 1 6 23
M  V30 24 1 7 24
M  V30 25 1 7 25
M  V30 26 1 11 26
M  V30 27 1 11 27
M  V30 28 1 12 28
M  V30 29 1 12 29
M  V30 30 1 12 30
M  V30 31 1 13 31
M  V30 32 1 13 32
M  V30 33 1 14 33
M  V30 34 1 14 34
M  V30 35 1 14 35
M  V30 36 1 15 36
M  V30 37 1 15 37
M  V30 38 1 15 38
M  V30 39 1 16 39
M  V30 40 1 16 40
M  V30 END BOND
M  V30 BEGIN COLLECTION
M  V30 MDLV30/STEABS ATOMS=(1 2)
M  V30 END COLLECTION
M  V30 END CTAB
M  END
>  <Structure No>
843

>  <LogS>
-3.164147933

>  <MMFF94 Energy>
19.358

$$$$
Compound 844
Actelion Java MolfileCreator 2.0

  0  0  0  0  0  0              0 V3000
M  V30 BEGIN CTAB
M  V30 COUNTS 25 24 0 0 0
M  V30 BEGIN ATOM
M  V30 1 O 3.9731 1.946 0.8558 0
M  V30 2 C 3.5151 0.8849 1.3583 0
M  V30 3 O 4.0761 0.3366 2.5139 0
M  V30 4 C 2.4011 0.2297 0.7352 0
M  V30 5 C 5.1804 0.9313 3.1849 0
M  V30 6 C 1.4647 -0.3205 0.2122 0
M  V30 7 C 0.325 -0.9898 -0.424 0
M  V30 8 C -0.8551 -0.0239 -0.5573 0
M  V30 9 C -2.0542 -0.7105 -1.2213 0
M  V30 10 C -3.2367 0.2557 -1.3552 0
M  V30 11 C -4.4324 -0.4242 -2.0158 0
M  V30 12 H 5.4436 0.3164 4.0699 0
M  V30 13 H 6.0577 0.9785 2.5055 0
M  V30 14 H 4.913 1.9545 3.5244 0
M  V30 15 H 0.6381 -1.3492 -1.4274 0
M  V30 16 H 0.0335 -1.8638 0.1964 0
M  V30 17 H -1.1513 0.3377 0.4527 0
M  V30 18 H -0.547 0.8521 -1.1705 0
M  V30 19 H -1.7586 -1.0721 -2.231 0
M  V30 20 H -2.3626 -1.5863 -0.6084 0
M  V30 21 H -2.937 1.1323 -1.9701 0
M  V30 22 H -3.5404 0.6186 -0.349 0
M  V30 23 H -4.7688 -1.2903 -1.4069 0
M  V30 24 H -4.1627 -0.7744 -3.0348 0
M  V30 25 H -5.2716 0.2981 -2.0993 0
M  V30 END ATOM
M  V30 BEGIN BOND
M  V30 1 2 1 2
M  V30 2 1 2 3
M  V30 3 1 2 4
M  V30 4 1 3 5
M  V30 5 3 4 6
M  V30 6 1 6 7
M  V30 7 1 7 8
M  V30 8 1 8 9
M  V30 9 1 9 10
M  V30 10 1 10 11
M  V30 11 1 5 12
M  V30 12 1 5 13
M  V30 13 1 5 14
M  V30 14 1 7 15
M  V30 15 1 7 16
M  V30 16 1 8 17
M  V30 17 1 8 18
M  V30 18 1 9 19
M  V30 19 1 9 20
M  V30 20 1 10 21
M  V30 21 1 10 22
M  V30 22 1 11 23
M  V30 23 1 11 24
M  V30 24 1 11 25
M  V30 END BOND
M  V30 END CTAB
M  END
>  <Structure No>
844

>  <LogS>
-3.009132774

>  <MMFF94 Energy>
MMFF94 error code 2

$$$$
Compound 845
Actelion Java MolfileCreator 2.0

  0  0  0  0  0  0              0 V3000
M  V30 BEGIN CTAB
M  V30 COUNTS 20 20 0 0 0
M  V30 BEGIN ATOM
M  V30 1 O 3.5802 0.1589 0.5562 0
M  V30 2 N 2.6111 -0.2742 -0.1009 0 CHG=1
M  V30 3 O 2.8508 -1.145 -1.1387 0 CHG=-1
M  V30 4 C 1.3025 0.2952 0.0816 0
M  V30 5 C 0.1245 -0.4888 -0.0474 0
M  V30 6 C 1.193 1.6627 0.3816 0
M  V30 7 C -1.1437 0.1485 0.0267 0
M  V30 8 C 0.2222 -1.981 -0.271 0
M  V30 9 C -0.055 2.2657 0.5077 0
M  V30 10 C -1.2148 1.5188 0.3232 0
M  V30 11 C -2.4296 -0.6142 -0.1654 0
M  V30 12 H 2.0814 2.2709 0.496 0
M  V30 13 H 1.1147 -2.4019 0.2365 0
M  V30 14 H 0.2779 -2.1924 -1.3591 0
M  V30 15 H -0.6465 -2.5194 0.1585 0
M  V30 16 H -0.1237 3.3221 0.7334 0
M  V30 17 H -2.1738 2.0146 0.4115 0
M  V30 18 H -2.6309 -1.239 0.7297 0
M  V30 19 H -2.3623 -1.2614 -1.0651 0
M  V30 20 H -3.2915 0.0707 -0.3142 0
M  V30 END ATOM
M  V30 BEGIN BOND
M  V30 1 2 1 2
M  V30 2 1 2 3
M  V30 3 1 2 4
M  V30 4 2 4 5
M  V30 5 1 4 6
M  V30 6 1 5 7
M  V30 7 1 5 8
M  V30 8 2 6 9
M  V30 9 2 7 10
M  V30 10 1 7 11
M  V30 11 1 9 10
M  V30 12 1 6 12
M  V30 13 1 8 13
M  V30 14 1 8 14
M  V30 15 1 8 15
M  V30 16 1 9 16
M  V30 17 1 10 17
M  V30 18 1 11 18
M  V30 19 1 11 19
M  V30 20 1 11 20
M  V30 END BOND
M  V30 END CTAB
M  END
>  <Structure No>
845

>  <LogS>
-3.003359989

>  <MMFF94 Energy>
59.023

$$$$
Compound 846
Actelion Java MolfileCreator 2.0

  0  0  0  0  0  0              0 V3000
M  V30 BEGIN CTAB
M  V30 COUNTS 26 27 0 0 0
M  V30 BEGIN ATOM
M  V30 1 O -0.0798 0.719 -1.7584 0
M  V30 2 C 0.3748 0.1757 -0.7155 0
M  V30 3 O -0.4677 -0.5614 0.1286 0
M  V30 4 C 1.8045 0.3132 -0.364 0
M  V30 5 C -1.8698 -0.5231 0.1131 0
M  V30 6 C 2.8332 0.3979 -1.3382 0
M  V30 7 C 2.1486 0.395 0.9974 0
M  V30 8 C -2.573 -1.663 0.5238 0
M  V30 9 C -2.5877 0.6304 -0.2579 0
M  V30 10 O 2.5942 0.2303 -2.7039 0
M  V30 11 C 4.1544 0.6233 -0.9314 0
M  V30 12 C 3.4741 0.5987 1.3866 0
M  V30 13 C -3.9714 -1.6674 0.5347 0
M  V30 14 C -3.9864 0.623 -0.2449 0
M  V30 15 C 4.4741 0.7228 0.4233 0
M  V30 16 C -4.6778 -0.5262 0.1467 0
M  V30 17 H 1.3854 0.3283 1.7636 0
M  V30 18 H -2.0331 -2.5507 0.8277 0
M  V30 19 H -2.0748 1.5433 -0.5269 0
M  V30 20 H 1.7178 -0.1031 -3.0805 0
M  V30 21 H 4.9415 0.6989 -1.671 0
M  V30 22 H 3.7243 0.6712 2.4373 0
M  V30 23 H -4.5069 -2.5551 0.8457 0
M  V30 24 H -4.5343 1.5119 -0.5297 0
M  V30 25 H 5.5 0.8867 0.7266 0
M  V30 26 H -5.7601 -0.5296 0.1576 0
M  V30 END ATOM
M  V30 BEGIN BOND
M  V30 1 2 1 2
M  V30 2 1 2 3
M  V30 3 1 2 4
M  V30 4 1 3 5
M  V30 5 2 4 6
M  V30 6 1 4 7
M  V30 7 2 5 8
M  V30 8 1 5 9
M  V30 9 1 6 10
M  V30 10 1 6 11
M  V30 11 2 7 12
M  V30 12 1 8 13
M  V30 13 2 9 14
M  V30 14 2 11 15
M  V30 15 2 13 16
M  V30 16 1 12 15
M  V30 17 1 14 16
M  V30 18 1 7 17
M  V30 19 1 8 18
M  V30 20 1 9 19
M  V30 21 1 10 20
M  V30 22 1 11 21
M  V30 23 1 12 22
M  V30 24 1 13 23
M  V30 25 1 14 24
M  V30 26 1 15 25
M  V30 27 1 16 26
M  V30 END BOND
M  V30 END CTAB
M  END
>  <Structure No>
846

>  <LogS>
-3.154768756

>  <MMFF94 Energy>
63.659

$$$$
Compound 847
Actelion Java MolfileCreator 2.0

  0  0  0  0  0  0              0 V3000
M  V30 BEGIN CTAB
M  V30 COUNTS 36 35 0 0 0
M  V30 BEGIN ATOM
M  V30 1 O 4.7552 -0.7004 -0.4669 0
M  V30 2 C 4.645 -0.226 0.6964 0
M  V30 3 O 3.3861 -0.0335 1.2769 0
M  V30 4 C 5.8689 0.1714 1.4492 0
M  V30 5 C 2.1602 -0.3209 0.6066 0
M  V30 6 C 1.8377 0.7838 -0.4126 0
M  V30 7 C 0.5129 0.5741 -1.1858 0 CFG=2
M  V30 8 C -0.7116 0.5733 -0.2396 0
M  V30 9 C 0.564 -0.6909 -2.0603 0
M  V30 10 C -2.0327 0.8105 -0.9869 0
M  V30 11 C -3.1906 0.8548 -0.0207 0
M  V30 12 C -3.8867 -0.2291 0.3883 0
M  V30 13 C -4.9959 -0.0344 1.3898 0
M  V30 14 C -3.5965 -1.6142 -0.1413 0
M  V30 15 H 5.6511 0.2059 2.5373 0
M  V30 16 H 6.2003 1.1755 1.1121 0
M  V30 17 H 6.6819 -0.5633 1.2694 0
M  V30 18 H 1.3583 -0.3666 1.3718 0
M  V30 19 H 2.2266 -1.3149 0.1154 0
M  V30 20 H 2.6703 0.8598 -1.1449 0
M  V30 21 H 1.7945 1.7582 0.1217 0
M  V30 22 H 0.4175 1.4451 -1.8724 0
M  V30 23 H -0.7612 -0.3882 0.3136 0
M  V30 24 H -0.5915 1.3856 0.5116 0
M  V30 25 H 1.5185 -0.732 -2.627 0
M  V30 26 H -0.2614 -0.6829 -2.8016 0
M  V30 27 H 0.4729 -1.6091 -1.4426 0
M  V30 28 H -1.9806 1.7913 -1.5071 0
M  V30 29 H -2.201 0.0375 -1.7634 0
M  V30 30 H -3.4534 1.8302 0.382 0
M  V30 31 H -4.5835 0.3966 2.3267 0
M  V30 32 H -5.7583 0.6591 0.976 0
M  V30 33 H -5.4979 -0.9922 1.6399 0
M  V30 34 H -4.252 -2.3752 0.3307 0
M  V30 35 H -3.7757 -1.6462 -1.2362 0
M  V30 36 H -2.5455 -1.8972 0.0705 0
M  V30 END ATOM
M  V30 BEGIN BOND
M  V30 1 2 1 2
M  V30 2 1 2 3
M  V30 3 1 2 4
M  V30 4 1 3 5
M  V30 5 1 5 6
M  V30 6 1 6 7
M  V30 7 1 7 8
M  V30 8 1 7 9
M  V30 9 1 8 10
M  V30 10 1 10 11
M  V30 11 2 11 12
M  V30 12 1 12 13
M  V30 13 1 12 14
M  V30 14 1 4 15
M  V30 15 1 4 16
M  V30 16 1 4 17
M  V30 17 1 5 18
M  V30 18 1 5 19
M  V30 19 1 6 20
M  V30 20 1 6 21
M  V30 21 1 7 22
M  V30 22 1 8 23
M  V30 23 1 8 24
M  V30 24 1 9 25
M  V30 25 1 9 26
M  V30 26 1 9 27
M  V30 27 1 10 28
M  V30 28 1 10 29
M  V30 29 1 11 30
M  V30 30 1 13 31
M  V30 31 1 13 32
M  V30 32 1 13 33
M  V30 33 1 14 34
M  V30 34 1 14 35
M  V30 35 1 14 36
M  V30 END BOND
M  V30 BEGIN COLLECTION
M  V30 MDLV30/STEABS ATOMS=(1 7)
M  V30 END COLLECTION
M  V30 END CTAB
M  END
>  <Structure No>
847

>  <LogS>
-4.09593873

>  <MMFF94 Energy>
6.494

$$$$
Compound 848
Actelion Java MolfileCreator 2.0

  0  0  0  0  0  0              0 V3000
M  V30 BEGIN CTAB
M  V30 COUNTS 18 17 0 0 0
M  V30 BEGIN ATOM
M  V30 1 F 3.8449 -0.0853 -0.7681 0
M  V30 2 C 2.7624 0.0331 0.0854 0
M  V30 3 F 2.7966 -1.0182 0.9843 0
M  V30 4 F 2.8775 1.2261 0.7769 0
M  V30 5 C 1.4617 0.0045 -0.7354 0
M  V30 6 F 1.512 1.0368 -1.6583 0
M  V30 7 F 1.4113 -1.1959 -1.4251 0
M  V30 8 C 0.1938 0.1536 0.1465 0
M  V30 9 F 0.2385 1.3709 0.8091 0
M  V30 10 F 0.1772 -0.8588 1.0926 0
M  V30 11 C -1.1126 0.0906 -0.6824 0
M  V30 12 F -1.2279 -1.1395 -1.3101 0
M  V30 13 F -1.0955 1.0752 -1.6561 0
M  V30 14 C -2.3263 0.3188 0.1865 0
M  V30 15 C -2.7954 -0.6139 1.0224 0
M  V30 16 H -2.8569 1.2638 0.1104 0
M  V30 17 H -3.6788 -0.4115 1.6195 0
M  V30 18 H -2.3143 -1.5826 1.112 0
M  V30 END ATOM
M  V30 BEGIN BOND
M  V30 1 1 1 2
M  V30 2 1 2 3
M  V30 3 1 2 4
M  V30 4 1 2 5
M  V30 5 1 5 6
M  V30 6 1 5 7
M  V30 7 1 5 8
M  V30 8 1 8 9
M  V30 9 1 8 10
M  V30 10 1 8 11
M  V30 11 1 11 12
M  V30 12 1 11 13
M  V30 13 1 11 14
M  V30 14 2 14 15
M  V30 15 1 14 16
M  V30 16 1 15 17
M  V30 17 1 15 18
M  V30 END BOND
M  V30 END CTAB
M  END
>  <Structure No>
848

>  <LogS>
-4.197937601

>  <MMFF94 Energy>
75.565

$$$$
Compound 849
Actelion Java MolfileCreator 2.0

  0  0  0  0  0  0              0 V3000
M  V30 BEGIN CTAB
M  V30 COUNTS 34 35 0 0 0
M  V30 BEGIN ATOM
M  V30 1 O -0.714 1.7462 -1.8257 0
M  V30 2 C -0.9839 1.9641 -0.6127 0
M  V30 3 O -0.0153 1.7839 0.381 0
M  V30 4 C -2.3675 2.3691 -0.221 0
M  V30 5 C 1.2836 1.257 0.1221 0
M  V30 6 C -3.1582 1.1551 0.18 0
M  V30 7 C 1.2121 -0.2571 -0.0879 0
M  V30 8 C -3.8999 0.4434 -0.7778 0
M  V30 9 C -3.1111 0.6844 1.5032 0
M  V30 10 C 2.5855 -0.8259 -0.3216 0
M  V30 11 C -4.6027 -0.7083 -0.4105 0
M  V30 12 C -3.8151 -0.4681 1.8661 0
M  V30 13 C 3.1173 -0.8811 -1.6209 0
M  V30 14 C 3.3695 -1.2554 0.7622 0
M  V30 15 C -4.562 -1.1627 0.9106 0
M  V30 16 C 4.406 -1.3806 -1.8334 0
M  V30 17 C 4.6578 -1.7543 0.5452 0
M  V30 18 C 5.1748 -1.8187 -0.7515 0
M  V30 19 H -2.8634 2.893 -1.0673 0
M  V30 20 H -2.3146 3.0893 0.6239 0
M  V30 21 H 1.9287 1.4735 1.0004 0
M  V30 22 H 1.73 1.7572 -0.7655 0
M  V30 23 H 0.5577 -0.4875 -0.9563 0
M  V30 24 H 0.75 -0.7312 0.8057 0
M  V30 25 H -3.9311 0.7788 -1.8071 0
M  V30 26 H -2.5274 1.2074 2.2508 0
M  V30 27 H -5.1758 -1.2511 -1.151 0
M  V30 28 H -3.7783 -0.8249 2.8874 0
M  V30 29 H 2.535 -0.5362 -2.4665 0
M  V30 30 H 2.9838 -1.2024 1.773 0
M  V30 31 H -5.105 -2.0554 1.1927 0
M  V30 32 H 4.8099 -1.4249 -2.8365 0
M  V30 33 H 5.2564 -2.0878 1.383 0
M  V30 34 H 6.1725 -2.2039 -0.9175 0
M  V30 END ATOM
M  V30 BEGIN BOND
M  V30 1 2 1 2
M  V30 2 1 2 3
M  V30 3 1 2 4
M  V30 4 1 3 5
M  V30 5 1 4 6
M  V30 6 1 5 7
M  V30 7 2 6 8
M  V30 8 1 6 9
M  V30 9 1 7 10
M  V30 10 1 8 11
M  V30 11 2 9 12
M  V30 12 2 10 13
M  V30 13 1 10 14
M  V30 14 2 11 15
M  V30 15 1 13 16
M  V30 16 2 14 17
M  V30 17 2 16 18
M  V30 18 1 12 15
M  V30 19 1 17 18
M  V30 20 1 4 19
M  V30 21 1 4 20
M  V30 22 1 5 21
M  V30 23 1 5 22
M  V30 24 1 7 23
M  V30 25 1 7 24
M  V30 26 1 8 25
M  V30 27 1 9 26
M  V30 28 1 11 27
M  V30 29 1 12 28
M  V30 30 1 13 29
M  V30 31 1 14 30
M  V30 32 1 15 31
M  V30 33 1 16 32
M  V30 34 1 17 33
M  V30 35 1 18 34
M  V30 END BOND
M  V30 END CTAB
M  END
>  <Structure No>
849

>  <LogS>
-4.188747793

>  <MMFF94 Energy>
53.123

$$$$
Compound 850
Actelion Java MolfileCreator 2.0

  0  0  0  0  0  0              0 V3000
M  V30 BEGIN CTAB
M  V30 COUNTS 67 66 0 0 0
M  V30 BEGIN ATOM
M  V30 1 O -2.0547 0.3948 -4.4295 0
M  V30 2 C -3.103 0.5513 -3.7439 0
M  V30 3 O -3.0837 0.345 -2.3632 0
M  V30 4 C -4.3673 0.9556 -4.3799 0
M  V30 5 C -1.9105 -0.0369 -1.6464 0
M  V30 6 C -4.4657 1.2121 -5.6844 0
M  V30 7 C -2.2154 -0.1256 -0.1268 0
M  V30 8 C -3.2668 -1.2502 0.0905 0
M  V30 9 C -0.9337 -0.5113 0.6666 0
M  V30 10 C -2.8244 1.2147 0.4035 0
M  V30 11 O -3.5546 -1.403 1.4783 0
M  V30 12 O 0.1901 0.2479 0.2544 0
M  V30 13 C -1.9599 2.4653 0.2048 0
M  V30 14 C -4.4332 -2.3736 1.9708 0
M  V30 15 C 1.1609 0.2773 1.2816 0
M  V30 16 O -5.0451 -3.1408 1.1785 0
M  V30 17 C -4.6469 -2.5169 3.4212 0
M  V30 18 C 2.5747 0.5934 0.7185 0
M  V30 19 C -4.0071 -1.7581 4.3075 0
M  V30 20 C 2.5404 1.9301 -0.0793 0
M  V30 21 C 3.5334 0.7722 1.9272 0
M  V30 22 C 3.0323 -0.605 -0.1775 0
M  V30 23 O 1.8018 1.7985 -1.2971 0
M  V30 24 O 3.6468 -0.445 2.6644 0
M  V30 25 C 4.4955 -0.5553 -0.6355 0
M  V30 26 C 2.3868 1.7641 -2.5715 0
M  V30 27 C 4.4166 -0.5659 3.825 0
M  V30 28 O 3.593 2.0945 -2.7371 0
M  V30 29 C 1.5735 1.3305 -3.7179 0
M  V30 30 O 5.0428 0.4278 4.2833 0
M  V30 31 C 4.4972 -1.8565 4.5284 0
M  V30 32 C 2.0653 1.2282 -4.9526 0
M  V30 33 C 3.8611 -2.9398 4.0887 0
M  V30 34 H -5.2516 1.049 -3.7585 0
M  V30 35 H -1.5489 -1.0188 -2.0257 0
M  V30 36 H -1.1093 0.707 -1.8421 0
M  V30 37 H -3.6109 1.1338 -6.3484 0
M  V30 38 H -5.4189 1.5086 -6.1045 0
M  V30 39 H -4.2093 -1.0144 -0.4511 0
M  V30 40 H -2.8815 -2.2158 -0.3087 0
M  V30 41 H -0.7042 -1.5899 0.4919 0
M  V30 42 H -1.1468 -0.3862 1.7581 0
M  V30 43 H -3.8026 1.398 -0.089 0
M  V30 44 H -3.0381 1.1214 1.4901 0
M  V30 45 H -1.0026 2.383 0.7515 0
M  V30 46 H -1.7731 2.6692 -0.8723 0
M  V30 47 H -2.4992 3.3463 0.6203 0
M  V30 48 H 0.8708 1.0555 2.0212 0
M  V30 49 H 1.2133 -0.6941 1.8326 0
M  V30 50 H -5.3426 -3.266 3.7769 0
M  V30 51 H -3.3017 -0.9992 3.9948 0
M  V30 52 H -4.1838 -1.8976 5.3673 0
M  V30 53 H 2.0481 2.7137 0.5373 0
M  V30 54 H 3.5692 2.2996 -0.2742 0
M  V30 55 H 4.5411 1.089 1.5843 0
M  V30 56 H 3.1478 1.5749 2.597 0
M  V30 57 H 2.8903 -1.5581 0.3779 0
M  V30 58 H 2.3852 -0.6732 -1.0758 0
M  V30 59 H 4.6764 -1.3589 -1.3813 0
M  V30 60 H 5.1783 -0.732 0.223 0
M  V30 61 H 4.7429 0.4166 -1.107 0
M  V30 62 H 0.5329 1.0864 -3.55 0
M  V30 63 H 5.095 -1.9306 5.4271 0
M  V30 64 H 1.4319 0.8896 -5.7606 0
M  V30 65 H 3.1035 1.4535 -5.1701 0
M  V30 66 H 3.9469 -3.8746 4.6259 0
M  V30 67 H 3.2517 -2.9149 3.1935 0
M  V30 END ATOM
M  V30 BEGIN BOND
M  V30 1 2 1 2
M  V30 2 1 2 3
M  V30 3 1 2 4
M  V30 4 1 3 5
M  V30 5 2 4 6
M  V30 6 1 5 7
M  V30 7 1 7 8
M  V30 8 1 7 9
M  V30 9 1 7 10
M  V30 10 1 8 11
M  V30 11 1 9 12
M  V30 12 1 10 13
M  V30 13 1 11 14
M  V30 14 1 12 15
M  V30 15 2 14 16
M  V30 16 1 14 17
M  V30 17 1 15 18
M  V30 18 2 17 19
M  V30 19 1 18 20
M  V30 20 1 18 21
M  V30 21 1 18 22
M  V30 22 1 20 23
M  V30 23 1 21 24
M  V30 24 1 22 25
M  V30 25 1 23 26
M  V30 26 1 24 27
M  V30 27 2 26 28
M  V30 28 1 26 29
M  V30 29 2 27 30
M  V30 30 1 27 31
M  V30 31 2 29 32
M  V30 32 2 31 33
M  V30 33 1 4 34
M  V30 34 1 5 35
M  V30 35 1 5 36
M  V30 36 1 6 37
M  V30 37 1 6 38
M  V30 38 1 8 39
M  V30 39 1 8 40
M  V30 40 1 9 41
M  V30 41 1 9 42
M  V30 42 1 10 43
M  V30 43 1 10 44
M  V30 44 1 13 45
M  V30 45 1 13 46
M  V30 46 1 13 47
M  V30 47 1 15 48
M  V30 48 1 15 49
M  V30 49 1 17 50
M  V30 50 1 19 51
M  V30 51 1 19 52
M  V30 52 1 20 53
M  V30 53 1 20 54
M  V30 54 1 21 55
M  V30 55 1 21 56
M  V30 56 1 22 57
M  V30 57 1 22 58
M  V30 58 1 25 59
M  V30 59 1 25 60
M  V30 60 1 25 61
M  V30 61 1 29 62
M  V30 62 1 31 63
M  V30 63 1 32 64
M  V30 64 1 32 65
M  V30 65 1 33 66
M  V30 66 1 33 67
M  V30 END BOND
M  V30 END CTAB
M  END
>  <Structure No>
850

>  <LogS>
-4.492785524

>  <MMFF94 Energy>
24.829

$$$$
Compound 851
Actelion Java MolfileCreator 2.0

  0  0  0  0  0  0              0 V3000
M  V30 BEGIN CTAB
M  V30 COUNTS 51 51 0 0 0
M  V30 BEGIN ATOM
M  V30 1 O 0.3969 -1.9859 -2.2244 0
M  V30 2 C 0.2144 -0.828 -1.7502 0
M  V30 3 N 1.2279 0.0908 -1.7909 0
M  V30 4 N -0.9931 -0.5057 -1.1942 0
M  V30 5 C 1.0364 1.3288 -1.2402 0
M  V30 6 C 2.5435 -0.2725 -2.3597 0
M  V30 7 C -1.1708 0.7326 -0.6399 0
M  V30 8 C -2.0707 -1.5145 -1.1266 0
M  V30 9 O 1.97 2.1808 -1.2727 0
M  V30 10 N -0.1557 1.6499 -0.6504 0
M  V30 11 C 3.4794 -0.7893 -1.2672 0
M  V30 12 O -2.28 1.0301 -0.1109 0
M  V30 13 C -1.9362 -2.3494 0.1446 0
M  V30 14 C -0.3602 2.9947 -0.0732 0
M  V30 15 O 2.9134 -1.9417 -0.6506 0
M  V30 16 O -2.9734 -3.3238 0.1872 0
M  V30 17 C -0.8935 3.9556 -1.1385 0
M  V30 18 C 3.5215 -2.6079 0.4154 0
M  V30 19 C -3.1004 -4.2433 1.2318 0
M  V30 20 O -1.1188 5.2488 -0.5807 0
M  V30 21 O 4.6366 -2.2186 0.8609 0
M  V30 22 C 2.8361 -3.766 1.0095 0
M  V30 23 O -2.2797 -4.2384 2.1912 0
M  V30 24 C -4.2044 -5.215 1.1929 0
M  V30 25 C -0.0907 6.1532 -0.2928 0
M  V30 26 C 3.3455 -4.4563 2.0281 0
M  V30 27 C -4.3941 -6.1237 2.1479 0
M  V30 28 O 1.1081 5.8703 -0.5689 0
M  V30 29 C -0.4328 7.4414 0.3299 0
M  V30 30 C 0.485 8.3568 0.6354 0
M  V30 31 H 3.0108 0.6046 -2.8585 0
M  V30 32 H 2.4391 -1.0439 -3.1536 0
M  V30 33 H -2.0416 -2.1828 -2.0151 0
M  V30 34 H -3.0719 -1.0307 -1.1494 0
M  V30 35 H 4.4599 -1.0528 -1.7193 0
M  V30 36 H 3.6376 0.0049 -0.5054 0
M  V30 37 H -2.0114 -1.6869 1.0343 0
M  V30 38 H -0.9476 -2.8584 0.1532 0
M  V30 39 H -1.0726 2.9569 0.78 0
M  V30 40 H 0.5886 3.387 0.3519 0
M  V30 41 H -1.8598 3.5675 -1.5244 0
M  V30 42 H -0.1855 4.0241 -1.9932 0
M  V30 43 H 1.8784 -4.0649 0.6015 0
M  V30 44 H -4.888 -5.1876 0.3535 0
M  V30 45 H 4.2988 -4.1941 2.4695 0
M  V30 46 H 2.8023 -5.3008 2.432 0
M  V30 47 H -5.2213 -6.8178 2.0747 0
M  V30 48 H -3.7369 -6.1895 3.0059 0
M  V30 49 H -1.4728 7.6503 0.548 0
M  V30 50 H 0.1838 9.2901 1.0934 0
M  V30 51 H 1.5365 8.1927 0.437 0
M  V30 END ATOM
M  V30 BEGIN BOND
M  V30 1 2 1 2
M  V30 2 1 2 3
M  V30 3 1 2 4
M  V30 4 1 3 5
M  V30 5 1 3 6
M  V30 6 1 4 7
M  V30 7 1 4 8
M  V30 8 2 5 9
M  V30 9 1 5 10
M  V30 10 1 6 11
M  V30 11 2 7 12
M  V30 12 1 8 13
M  V30 13 1 10 14
M  V30 14 1 11 15
M  V30 15 1 13 16
M  V30 16 1 14 17
M  V30 17 1 15 18
M  V30 18 1 16 19
M  V30 19 1 17 20
M  V30 20 2 18 21
M  V30 21 1 18 22
M  V30 22 2 19 23
M  V30 23 1 19 24
M  V30 24 1 20 25
M  V30 25 2 22 26
M  V30 26 2 24 27
M  V30 27 2 25 28
M  V30 28 1 25 29
M  V30 29 2 29 30
M  V30 30 1 7 10
M  V30 31 1 6 31
M  V30 32 1 6 32
M  V30 33 1 8 33
M  V30 34 1 8 34
M  V30 35 1 11 35
M  V30 36 1 11 36
M  V30 37 1 13 37
M  V30 38 1 13 38
M  V30 39 1 14 39
M  V30 40 1 14 40
M  V30 41 1 17 41
M  V30 42 1 17 42
M  V30 43 1 22 43
M  V30 44 1 24 44
M  V30 45 1 26 45
M  V30 46 1 26 46
M  V30 47 1 27 47
M  V30 48 1 27 48
M  V30 49 1 29 49
M  V30 50 1 30 50
M  V30 51 1 30 51
M  V30 END BOND
M  V30 END CTAB
M  END
>  <Structure No>
851

>  <LogS>
-2.451419462

>  <MMFF94 Energy>
-201.57

$$$$
Compound 852
Actelion Java MolfileCreator 2.0

  0  0  0  0  0  0              0 V3000
M  V30 BEGIN CTAB
M  V30 COUNTS 25 24 0 0 0
M  V30 BEGIN ATOM
M  V30 1 O 2.2703 -1.9569 0.7041 0
M  V30 2 C 2.6248 -0.7494 0.7531 0
M  V30 3 O 2.9224 -0.1712 1.9809 0 CHG=-1
M  V30 4 C 2.7647 0.0486 -0.5075 0
M  V30 5 C 1.4372 0.1798 -1.2771 0
M  V30 6 C 0.5667 1.3691 -0.8263 0
M  V30 7 C -0.0243 1.255 0.5919 0
M  V30 8 C -0.9183 0.0248 0.8313 0
M  V30 9 C -2.1562 0.0 -0.0765 0
M  V30 10 C -3.0996 -1.135 0.3113 0
M  V30 11 H 3.182 1.0531 -0.2783 0
M  V30 12 H 3.5032 -0.4712 -1.1553 0
M  V30 13 H 0.8614 -0.7692 -1.2558 0
M  V30 14 H 1.6904 0.3546 -2.3457 0
M  V30 15 H 1.1744 2.2987 -0.8784 0
M  V30 16 H -0.2595 1.503 -1.5563 0
M  V30 17 H -0.6222 2.1707 0.7933 0
M  V30 18 H 0.7982 1.2548 1.3353 0
M  V30 19 H -0.3354 -0.9102 0.7028 0
M  V30 20 H -1.252 0.0544 1.892 0
M  V30 21 H -1.8485 -0.1487 -1.1331 0
M  V30 22 H -2.7028 0.9648 0.003 0
M  V30 23 H -3.4593 -0.9997 1.3536 0
M  V30 24 H -3.9774 -1.1379 -0.3687 0
M  V30 25 H -2.5805 -2.1137 0.226 0
M  V30 END ATOM
M  V30 BEGIN BOND
M  V30 1 2 1 2
M  V30 2 1 2 3
M  V30 3 1 2 4
M  V30 4 1 4 5
M  V30 5 1 5 6
M  V30 6 1 6 7
M  V30 7 1 7 8
M  V30 8 1 8 9
M  V30 9 1 9 10
M  V30 10 1 4 11
M  V30 11 1 4 12
M  V30 12 1 5 13
M  V30 13 1 5 14
M  V30 14 1 6 15
M  V30 15 1 6 16
M  V30 16 1 7 17
M  V30 17 1 7 18
M  V30 18 1 8 19
M  V30 19 1 8 20
M  V30 20 1 9 21
M  V30 21 1 9 22
M  V30 22 1 10 23
M  V30 23 1 10 24
M  V30 24 1 10 25
M  V30 END BOND
M  V30 END CTAB
M  END
>  <Structure No>
852

>  <LogS>
-3.200000781

>  <MMFF94 Energy>
0.85729

$$$$
Compound 853
Actelion Java MolfileCreator 2.0

  0  0  0  0  0  0              0 V3000
M  V30 BEGIN CTAB
M  V30 COUNTS 22 22 0 0 0
M  V30 BEGIN ATOM
M  V30 1 N 5.1256 0.2361 1.3385 0
M  V30 2 C 4.0241 0.1885 0.9865 0
M  V30 3 C 2.6541 0.1293 0.5484 0
M  V30 4 C 1.6152 0.1794 1.4848 0
M  V30 5 C 2.3573 0.0217 -0.8149 0
M  V30 6 C 0.2843 0.122 1.0605 0
M  V30 7 C 1.027 -0.0358 -1.2416 0
M  V30 8 C -0.0249 0.0136 -0.3092 0
M  V30 9 C -1.4642 -0.0496 -0.7851 0
M  V30 10 C -2.1753 -1.29 -0.2312 0
M  V30 11 C -2.224 1.231 -0.4197 0
M  V30 12 H 1.8335 0.2627 2.5428 0
M  V30 13 H 3.1539 -0.0177 -1.5483 0
M  V30 14 H -0.5028 0.1622 1.8022 0
M  V30 15 H 0.8201 -0.1189 -2.3013 0
M  V30 16 H -1.4836 -0.133 -1.8949 0
M  V30 17 H -1.61 -2.2065 -0.5045 0
M  V30 18 H -3.195 -1.369 -0.6654 0
M  V30 19 H -2.2663 -1.2401 0.8746 0
M  V30 20 H -3.2446 1.2056 -0.8579 0
M  V30 21 H -2.316 1.3428 0.6814 0
M  V30 22 H -1.6934 2.1179 -0.8279 0
M  V30 END ATOM
M  V30 BEGIN BOND
M  V30 1 3 1 2
M  V30 2 1 2 3
M  V30 3 2 3 4
M  V30 4 1 3 5
M  V30 5 1 4 6
M  V30 6 2 5 7
M  V30 7 2 6 8
M  V30 8 1 8 9
M  V30 9 1 9 10
M  V30 10 1 9 11
M  V30 11 1 7 8
M  V30 12 1 4 12
M  V30 13 1 5 13
M  V30 14 1 6 14
M  V30 15 1 7 15
M  V30 16 1 9 16
M  V30 17 1 10 17
M  V30 18 1 10 18
M  V30 19 1 10 19
M  V30 20 1 11 20
M  V30 21 1 11 21
M  V30 22 1 11 22
M  V30 END BOND
M  V30 END CTAB
M  END
>  <Structure No>
853

>  <LogS>
-2.988795303

>  <MMFF94 Energy>
35.997

$$$$
Compound 854
Actelion Java MolfileCreator 2.0

  0  0  0  0  0  0              0 V3000
M  V30 BEGIN CTAB
M  V30 COUNTS 32 32 0 0 0
M  V30 BEGIN ATOM
M  V30 1 O 2.7724 -0.4748 -1.6627 0
M  V30 2 C 1.7648 -0.302 -0.9227 0
M  V30 3 O 1.426 0.9837 -0.4829 0
M  V30 4 C 0.9724 -1.47 -0.4761 0
M  V30 5 C 2.1623 2.1516 -0.8353 0
M  V30 6 C -0.4284 -1.4001 -0.2403 0
M  V30 7 C 1.6524 -2.6726 -0.2082 0
M  V30 8 C 3.4694 2.1836 -0.0941 0
M  V30 9 C -1.249 -0.2266 -0.6144 0
M  V30 10 C -1.0857 -2.5127 0.315 0
M  V30 11 C 0.9758 -3.772 0.321 0
M  V30 12 C 4.6435 2.1442 -0.7296 0
M  V30 13 O -0.9669 0.4462 -1.6438 0
M  V30 14 O -2.3735 0.0991 0.1506 0
M  V30 15 C -0.3877 -3.6883 0.593 0
M  V30 16 C -3.216 1.2059 -0.1534 0
M  V30 17 C -4.3185 1.2928 0.8576 0
M  V30 18 C -4.063 1.5422 2.1445 0
M  V30 19 H 2.3047 2.1931 -1.9379 0
M  V30 20 H 1.5724 3.0434 -0.5388 0
M  V30 21 H 2.7192 -2.7519 -0.3787 0
M  V30 22 H 3.4545 2.2247 0.9907 0
M  V30 23 H -2.1517 -2.4841 0.5061 0
M  V30 24 H 1.5136 -4.687 0.5333 0
M  V30 25 H 4.6953 2.093 -1.8128 0
M  V30 26 H 5.5677 2.1609 -0.1614 0
M  V30 27 H -0.9087 -4.541 1.0091 0
M  V30 28 H -3.6581 1.069 -1.1637 0
M  V30 29 H -2.6255 2.148 -0.1435 0
M  V30 30 H -5.3466 1.1564 0.5356 0
M  V30 31 H -4.8781 1.6035 2.8582 0
M  V30 32 H -3.0448 1.6864 2.4936 0
M  V30 END ATOM
M  V30 BEGIN BOND
M  V30 1 2 1 2
M  V30 2 1 2 3
M  V30 3 1 2 4
M  V30 4 1 3 5
M  V30 5 2 4 6
M  V30 6 1 4 7
M  V30 7 1 5 8
M  V30 8 1 6 9
M  V30 9 1 6 10
M  V30 10 2 7 11
M  V30 11 2 8 12
M  V30 12 2 9 13
M  V30 13 1 9 14
M  V30 14 2 10 15
M  V30 15 1 14 16
M  V30 16 1 16 17
M  V30 17 2 17 18
M  V30 18 1 11 15
M  V30 19 1 5 19
M  V30 20 1 5 20
M  V30 21 1 7 21
M  V30 22 1 8 22
M  V30 23 1 10 23
M  V30 24 1 11 24
M  V30 25 1 12 25
M  V30 26 1 12 26
M  V30 27 1 15 27
M  V30 28 1 16 28
M  V30 29 1 16 29
M  V30 30 1 17 30
M  V30 31 1 18 31
M  V30 32 1 18 32
M  V30 END BOND
M  V30 END CTAB
M  END
>  <Structure No>
854

>  <LogS>
-3.221135687

>  <MMFF94 Energy>
25.232

$$$$
Compound 855
Actelion Java MolfileCreator 2.0

  0  0  0  0  0  0              0 V3000
M  V30 BEGIN CTAB
M  V30 COUNTS 30 31 0 0 0
M  V30 BEGIN ATOM
M  V30 1 N -0.0783 -1.1757 -0.235 0 CHG=1
M  V30 2 C 0.0118 0.1054 -0.024 0
M  V30 3 N -1.1145 0.9679 -0.2542 0
M  V30 4 N 1.2397 0.6871 0.4441 0
M  V30 5 C -2.4888 0.5807 -0.0836 0
M  V30 6 C 2.5518 0.1909 0.1279 0
M  V30 7 C -3.4824 1.2095 -0.8499 0
M  V30 8 C -2.8675 -0.3682 0.8844 0
M  V30 9 C 3.6045 0.4003 1.0325 0
M  V30 10 C 2.8191 -0.4418 -1.1004 0
M  V30 11 C -4.8281 0.8691 -0.6802 0
M  V30 12 C -4.2143 -0.7057 1.0515 0
M  V30 13 C 4.8944 -0.0483 0.7327 0
M  V30 14 C 4.1104 -0.8889 -1.3968 0
M  V30 15 C -5.1935 -0.0906 0.2671 0
M  V30 16 C 5.1465 -0.6959 -0.4792 0
M  V30 17 H 0.7152 -1.8186 -0.02 0
M  V30 18 H -0.9472 -1.6017 -0.6262 0
M  V30 19 H -0.9138 1.9513 -0.5459 0
M  V30 20 H 1.1686 1.5436 1.0388 0
M  V30 21 H -3.2115 1.9572 -1.5848 0
M  V30 22 H -2.1266 -0.8342 1.5207 0
M  V30 23 H 3.4215 0.9039 1.9735 0
M  V30 24 H 2.0358 -0.5747 -1.8353 0
M  V30 25 H -5.588 1.3515 -1.2815 0
M  V30 26 H -4.4996 -1.4389 1.7949 0
M  V30 27 H 5.6992 0.1083 1.4395 0
M  V30 28 H 4.3095 -1.3781 -2.3414 0
M  V30 29 H -6.2356 -0.3518 0.3988 0
M  V30 30 H 6.1457 -1.0412 -0.7109 0
M  V30 END ATOM
M  V30 BEGIN BOND
M  V30 1 2 1 2
M  V30 2 1 2 3
M  V30 3 1 2 4
M  V30 4 1 3 5
M  V30 5 1 4 6
M  V30 6 2 5 7
M  V30 7 1 5 8
M  V30 8 2 6 9
M  V30 9 1 6 10
M  V30 10 1 7 11
M  V30 11 2 8 12
M  V30 12 1 9 13
M  V30 13 2 10 14
M  V30 14 2 11 15
M  V30 15 2 13 16
M  V30 16 1 12 15
M  V30 17 1 14 16
M  V30 18 1 1 17
M  V30 19 1 1 18
M  V30 20 1 3 19
M  V30 21 1 4 20
M  V30 22 1 7 21
M  V30 23 1 8 22
M  V30 24 1 9 23
M  V30 25 1 10 24
M  V30 26 1 11 25
M  V30 27 1 12 26
M  V30 28 1 13 27
M  V30 29 1 14 28
M  V30 30 1 15 29
M  V30 31 1 16 30
M  V30 END BOND
M  V30 END CTAB
M  END
>  <Structure No>
855

>  <LogS>
-2.157516386

>  <MMFF94 Energy>
-118.13

$$$$
Compound 856
Actelion Java MolfileCreator 2.0

  0  0  0  0  0  0              0 V3000
M  V30 BEGIN CTAB
M  V30 COUNTS 15 14 0 0 0
M  V30 BEGIN ATOM
M  V30 1 S -0.5578 1.9137 -0.3187 0
M  V30 2 C -0.0936 0.162 -0.0647 0
M  V30 3 C -0.1303 -0.1602 1.4373 0
M  V30 4 C -1.1022 -0.7229 -0.8112 0
M  V30 5 C 1.3187 -0.0746 -0.6215 0
M  V30 6 H 0.505 2.4254 0.4506 0
M  V30 7 H -1.1436 0.032 1.8508 0
M  V30 8 H 0.1259 -1.2271 1.6145 0
M  V30 9 H 0.5978 0.4703 1.9912 0
M  V30 10 H -0.8531 -1.7981 -0.6803 0
M  V30 11 H -1.0942 -0.4896 -1.8978 0
M  V30 12 H -2.1303 -0.5507 -0.4255 0
M  V30 13 H 1.3571 0.1796 -1.7025 0
M  V30 14 H 1.6136 -1.1393 -0.4993 0
M  V30 15 H 2.061 0.5566 -0.0879 0
M  V30 END ATOM
M  V30 BEGIN BOND
M  V30 1 1 1 2
M  V30 2 1 2 3
M  V30 3 1 2 4
M  V30 4 1 2 5
M  V30 5 1 1 6
M  V30 6 1 3 7
M  V30 7 1 3 8
M  V30 8 1 3 9
M  V30 9 1 4 10
M  V30 10 1 4 11
M  V30 11 1 4 12
M  V30 12 1 5 13
M  V30 13 1 5 14
M  V30 14 1 5 15
M  V30 END BOND
M  V30 END CTAB
M  END
>  <Structure No>
856

>  <LogS>
-1.787845868

>  <MMFF94 Energy>
10.245

$$$$
Compound 857
Actelion Java MolfileCreator 2.0

  0  0  0  0  0  0              0 V3000
M  V30 BEGIN CTAB
M  V30 COUNTS 28 28 0 0 0
M  V30 BEGIN ATOM
M  V30 1 O 1.1002 2.044 0.9429 0
M  V30 2 C 1.0324 1.5293 -0.3613 0 CFG=2
M  V30 3 C -0.4355 1.3814 -0.8046 0
M  V30 4 C 1.7811 0.1904 -0.4617 0
M  V30 5 C -1.2072 0.2206 -0.1104 0
M  V30 6 C 1.0694 -0.9216 0.3274 0 CFG=1
M  V30 7 C -0.3801 -1.0929 -0.1715 0
M  V30 8 C -1.5613 0.5787 1.3527 0
M  V30 9 C -2.535 -0.0013 -0.8678 0
M  V30 10 C 1.838 -2.2419 0.1964 0
M  V30 11 H 2.0284 2.3697 1.0768 0
M  V30 12 H 1.5184 2.2518 -1.0581 0
M  V30 13 H -0.9655 2.3455 -0.6397 0
M  V30 14 H -0.4312 1.2075 -1.9042 0
M  V30 15 H 1.8576 -0.1004 -1.5332 0
M  V30 16 H 2.8161 0.3211 -0.0765 0
M  V30 17 H 1.0637 -0.6537 1.4055 0
M  V30 18 H -0.3482 -1.4569 -1.2236 0
M  V30 19 H -0.8861 -1.8806 0.4302 0
M  V30 20 H -0.6646 0.6969 1.9892 0
M  V30 21 H -2.1375 1.5282 1.3931 0
M  V30 22 H -2.1841 -0.221 1.8086 0
M  V30 23 H -3.1173 -0.829 -0.4077 0
M  V30 24 H -3.1581 0.919 -0.8452 0
M  V30 25 H -2.3475 -0.2642 -1.9313 0
M  V30 26 H 2.872 -2.1227 0.5847 0
M  V30 27 H 1.3363 -3.0364 0.7889 0
M  V30 28 H 1.8892 -2.5649 -0.8655 0
M  V30 END ATOM
M  V30 BEGIN BOND
M  V30 1 1 1 2
M  V30 2 1 2 3
M  V30 3 1 2 4
M  V30 4 1 3 5
M  V30 5 1 4 6
M  V30 6 1 5 7
M  V30 7 1 5 8
M  V30 8 1 5 9
M  V30 9 1 6 10
M  V30 10 1 6 7
M  V30 11 1 1 11
M  V30 12 1 2 12
M  V30 13 1 3 13
M  V30 14 1 3 14
M  V30 15 1 4 15
M  V30 16 1 4 16
M  V30 17 1 6 17
M  V30 18 1 7 18
M  V30 19 1 7 19
M  V30 20 1 8 20
M  V30 21 1 8 21
M  V30 22 1 8 22
M  V30 23 1 9 23
M  V30 24 1 9 24
M  V30 25 1 9 25
M  V30 26 1 10 26
M  V30 27 1 10 27
M  V30 28 1 10 28
M  V30 END BOND
M  V30 BEGIN COLLECTION
M  V30 MDLV30/STEABS ATOMS=(2 2 6)
M  V30 END COLLECTION
M  V30 END CTAB
M  END
>  <Structure No>
857

>  <LogS>
-1.991659848

>  <MMFF94 Energy>
22.769

$$$$
Compound 858
Actelion Java MolfileCreator 2.0

  0  0  0  0  0  0              0 V3000
M  V30 BEGIN CTAB
M  V30 COUNTS 20 20 0 0 0
M  V30 BEGIN ATOM
M  V30 1 N -1.3219 0.1554 -0.3886 0
M  V30 2 C 0.0678 -0.0223 -0.0073 0
M  V30 3 C -1.7015 1.1775 -1.372 0
M  V30 4 C -2.3717 -0.6835 0.2028 0
M  V30 5 C 0.4119 -0.677 1.1957 0
M  V30 6 C 1.1123 0.4546 -0.8295 0
M  V30 7 C 1.7511 -0.8461 1.5594 0
M  V30 8 C 2.4491 0.2813 -0.459 0
M  V30 9 C 2.7683 -0.3678 0.7335 0
M  V30 10 H -2.8012 1.3294 -1.4017 0
M  V30 11 H -1.2381 2.1505 -1.1036 0
M  V30 12 H -1.367 0.8694 -2.3846 0
M  V30 13 H -3.3374 -0.571 -0.3338 0
M  V30 14 H -2.0793 -1.7532 0.1418 0
M  V30 15 H -2.53 -0.3978 1.2638 0
M  V30 16 H -0.3481 -1.0521 1.8665 0
M  V30 17 H 0.9048 0.9537 -1.7657 0
M  V30 18 H 2.0 -1.3478 2.4857 0
M  V30 19 H 3.2393 0.6501 -1.1002 0
M  V30 20 H 3.8041 -0.5004 1.0177 0
M  V30 END ATOM
M  V30 BEGIN BOND
M  V30 1 1 1 2
M  V30 2 1 1 3
M  V30 3 1 1 4
M  V30 4 2 2 5
M  V30 5 1 2 6
M  V30 6 1 5 7
M  V30 7 2 6 8
M  V30 8 2 7 9
M  V30 9 1 8 9
M  V30 10 1 3 10
M  V30 11 1 3 11
M  V30 12 1 3 12
M  V30 13 1 4 13
M  V30 14 1 4 14
M  V30 15 1 4 15
M  V30 16 1 5 16
M  V30 17 1 6 17
M  V30 18 1 7 18
M  V30 19 1 8 19
M  V30 20 1 9 20
M  V30 END BOND
M  V30 END CTAB
M  END
>  <Structure No>
858

>  <LogS>
-1.922073697

>  <MMFF94 Energy>
19.727

$$$$
Compound 859
Actelion Java MolfileCreator 2.0

  0  0  0  0  0  0              0 V3000
M  V30 BEGIN CTAB
M  V30 COUNTS 22 22 0 0 0
M  V30 BEGIN ATOM
M  V30 1 Cl 1.4704 3.1061 -0.3266 0
M  V30 2 C 0.7365 1.5273 -0.085 0
M  V30 3 C 1.5296 0.3755 -0.0509 0
M  V30 4 C -0.6477 1.4363 0.0701 0
M  V30 5 O 2.9183 0.5088 -0.2129 0
M  V30 6 C 0.9152 -0.8744 0.1447 0
M  V30 7 C -1.2716 0.1888 0.2638 0
M  V30 8 C 3.8418 -0.5747 -0.2 0
M  V30 9 C -0.4788 -0.9832 0.3077 0
M  V30 10 O -2.6661 0.0872 0.4046 0
M  V30 11 N -1.0666 -2.2867 0.5112 0 CHG=1
M  V30 12 C -3.5696 1.1878 0.3757 0
M  V30 13 O -2.2531 -2.4123 0.8775 0
M  V30 14 O -0.3094 -3.4239 0.3449 0 CHG=-1
M  V30 15 H -1.2305 2.3465 0.0347 0
M  V30 16 H 1.5215 -1.7682 0.179 0
M  V30 17 H 3.8044 -1.097 0.7791 0
M  V30 18 H 4.8667 -0.1788 -0.3519 0
M  V30 19 H 3.6097 -1.2841 -1.0223 0
M  V30 20 H -4.6038 0.8108 0.5122 0
M  V30 21 H -3.508 1.7074 -0.6037 0
M  V30 22 H -3.338 1.8942 1.2007 0
M  V30 END ATOM
M  V30 BEGIN BOND
M  V30 1 1 1 2
M  V30 2 2 2 3
M  V30 3 1 2 4
M  V30 4 1 3 5
M  V30 5 1 3 6
M  V30 6 2 4 7
M  V30 7 1 5 8
M  V30 8 2 6 9
M  V30 9 1 7 10
M  V30 10 1 9 11
M  V30 11 1 10 12
M  V30 12 2 11 13
M  V30 13 1 11 14
M  V30 14 1 7 9
M  V30 15 1 4 15
M  V30 16 1 6 16
M  V30 17 1 8 17
M  V30 18 1 8 18
M  V30 19 1 8 19
M  V30 20 1 12 20
M  V30 21 1 12 21
M  V30 22 1 12 22
M  V30 END BOND
M  V30 END CTAB
M  END
>  <Structure No>
859

>  <LogS>
-3.179312365

>  <MMFF94 Energy>
65.41

$$$$
Compound 860
Actelion Java MolfileCreator 2.0

  0  0  0  0  0  0              0 V3000
M  V30 BEGIN CTAB
M  V30 COUNTS 104 105 0 0 0
M  V30 BEGIN ATOM
M  V30 1 N -8.2325 -1.0164 -1.9553 0 CHG=1
M  V30 2 C -7.0495 -1.0821 -1.3897 0
M  V30 3 C -9.4743 -0.5876 -1.3 0
M  V30 4 C -5.9575 -1.5531 -2.1344 0
M  V30 5 C -6.8243 -0.7142 -0.0473 0
M  V30 6 C -9.5467 0.9458 -1.2182 0
M  V30 7 C -4.6926 -1.6405 -1.552 0
M  V30 8 C -5.5404 -0.8098 0.4966 0
M  V30 9 C -10.904 1.4427 -0.695 0
M  V30 10 N -4.4933 -1.2603 -0.2552 0
M  V30 11 C -11.1056 1.148 0.7991 0
M  V30 12 C -3.1505 -1.3465 0.3416 0
M  V30 13 C -12.4329 1.7337 1.2986 0
M  V30 14 C -2.5433 0.0443 0.6015 0
M  V30 15 C -12.6665 1.3852 2.7742 0
M  V30 16 C -2.4997 0.9657 -0.6322 0
M  V30 17 C -14.0126 1.9324 3.2651 0
M  V30 18 C -1.6769 0.4279 -1.8156 0
M  V30 19 C -14.2653 1.5504 4.7215 0
M  V30 20 C -0.1729 0.3411 -1.5189 0
M  V30 21 C 0.5838 -0.1688 -2.7546 0
M  V30 22 C 2.1044 -0.2765 -2.5218 0
M  V30 23 C 2.5941 -1.7235 -2.3178 0
M  V30 24 C 2.1923 -2.3522 -0.9714 0
M  V30 25 C 2.8665 -1.7032 0.2506 0
M  V30 26 N 4.3308 -1.8127 0.1721 0
M  V30 27 C 4.9318 -3.0058 0.4531 0
M  V30 28 C 5.0767 -0.7464 -0.2446 0
M  V30 29 C 6.3079 -3.1663 0.2856 0
M  V30 30 C 6.4543 -0.8701 -0.4399 0
M  V30 31 C 7.092 -2.1023 -0.19 0
M  V30 32 N 8.3729 -2.2945 -0.4054 0 CHG=1
M  V30 33 C 9.3012 -1.315 -0.9822 0
M  V30 34 C 9.8109 -0.3451 0.0891 0
M  V30 35 C 10.7647 0.6897 -0.5263 0
M  V30 36 C 11.2776 1.7092 0.5017 0
M  V30 37 C 12.2996 1.098 1.4768 0
M  V30 38 C 12.9751 2.167 2.3615 0
M  V30 39 C 14.3865 2.5574 1.8901 0
M  V30 40 C 14.3859 3.3 0.5552 0
M  V30 41 H -8.3379 -1.3259 -2.9486 0
M  V30 42 H -10.3345 -0.9473 -1.9077 0
M  V30 43 H -9.5684 -1.0646 -0.3025 0
M  V30 44 H -6.0821 -1.8603 -3.1639 0
M  V30 45 H -7.6177 -0.3582 0.5938 0
M  V30 46 H -8.7303 1.3468 -0.5804 0
M  V30 47 H -9.4016 1.3566 -2.2411 0
M  V30 48 H -3.8751 -2.0238 -2.149 0
M  V30 49 H -5.3881 -0.5233 1.5303 0
M  V30 50 H -10.9546 2.5431 -0.8563 0
M  V30 51 H -11.7253 0.9799 -1.2864 0
M  V30 52 H -10.2669 1.592 1.381 0
M  V30 53 H -11.1119 0.0487 0.9683 0
M  V30 54 H -2.4629 -1.9422 -0.2964 0
M  V30 55 H -3.2129 -1.8912 1.3103 0
M  V30 56 H -13.2673 1.3247 0.6884 0
M  V30 57 H -12.4176 2.8399 1.1784 0
M  V30 58 H -3.1407 0.5509 1.3893 0
M  V30 59 H -1.5235 -0.0768 1.0212 0
M  V30 60 H -11.8454 1.8188 3.3884 0
M  V30 61 H -12.6536 0.2794 2.8987 0
M  V30 62 H -3.5388 1.1546 -0.9785 0
M  V30 63 H -2.0832 1.9483 -0.3235 0
M  V30 64 H -14.0239 3.04 3.1744 0
M  V30 65 H -14.8347 1.523 2.6374 0
M  V30 66 H -2.0562 -0.564 -2.1326 0
M  V30 67 H -1.8289 1.1201 -2.6733 0
M  V30 68 H -13.4744 1.9822 5.3737 0
M  V30 69 H -15.2528 1.9487 5.0437 0
M  V30 70 H -14.273 0.4446 4.8369 0
M  V30 71 H 0.2078 1.3496 -1.2424 0
M  V30 72 H 0.002 -0.3457 -0.6679 0
M  V30 73 H 0.4054 0.5447 -3.5896 0
M  V30 74 H 0.1641 -1.1474 -3.0738 0
M  V30 75 H 2.4366 0.3806 -1.6925 0
M  V30 76 H 2.6135 0.111 -3.4308 0
M  V30 77 H 3.6989 -1.7478 -2.4222 0
M  V30 78 H 2.1994 -2.3586 -3.1398 0
M  V30 79 H 2.4717 -3.427 -0.9953 0
M  V30 80 H 1.0903 -2.3231 -0.8522 0
M  V30 81 H 2.5485 -0.6436 0.3538 0
M  V30 82 H 2.5055 -2.2158 1.169 0
M  V30 83 H 4.3427 -3.8517 0.7865 0
M  V30 84 H 4.6045 0.2035 -0.4598 0
M  V30 85 H 6.7523 -4.1313 0.4972 0
M  V30 86 H 6.994 -0.0039 -0.7932 0
M  V30 87 H 8.7819 -3.2385 -0.2135 0
M  V30 88 H 8.8274 -0.7768 -1.8311 0
M  V30 89 H 10.1734 -1.8603 -1.406 0
M  V30 90 H 8.9537 0.1794 0.5625 0
M  V30 91 H 10.3381 -0.9306 0.8726 0
M  V30 92 H 11.6269 0.1757 -1.0082 0
M  V30 93 H 10.2196 1.2464 -1.3205 0
M  V30 94 H 11.7489 2.545 -0.0555 0
M  V30 95 H 10.4228 2.1357 1.0725 0
M  V30 96 H 11.7663 0.3839 2.1422 0
M  V30 97 H 13.0662 0.5154 0.9188 0
M  V30 98 H 13.0736 1.7537 3.3891 0
M  V30 99 H 12.34 3.0752 2.4503 0
M  V30 100 H 14.8406 3.2198 2.6587 0
M  V30 101 H 15.0267 1.6509 1.8126 0
M  V30 102 H 15.4055 3.684 0.3445 0
M  V30 103 H 13.6834 4.1602 0.5876 0
M  V30 104 H 14.103 2.6128 -0.2695 0
M  V30 END ATOM
M  V30 BEGIN BOND
M  V30 1 2 1 2
M  V30 2 1 1 3
M  V30 3 1 2 4
M  V30 4 1 2 5
M  V30 5 1 3 6
M  V30 6 2 4 7
M  V30 7 2 5 8
M  V30 8 1 6 9
M  V30 9 1 7 10
M  V30 10 1 9 11
M  V30 11 1 10 12
M  V30 12 1 11 13
M  V30 13 1 12 14
M  V30 14 1 13 15
M  V30 15 1 14 16
M  V30 16 1 15 17
M  V30 17 1 16 18
M  V30 18 1 17 19
M  V30 19 1 18 20
M  V30 20 1 20 21
M  V30 21 1 21 22
M  V30 22 1 22 23
M  V30 23 1 23 24
M  V30 24 1 24 25
M  V30 25 1 25 26
M  V30 26 1 26 27
M  V30 27 1 26 28
M  V30 28 2 27 29
M  V30 29 2 28 30
M  V30 30 1 29 31
M  V30 31 2 31 32
M  V30 32 1 32 33
M  V30 33 1 33 34
M  V30 34 1 34 35
M  V30 35 1 35 36
M  V30 36 1 36 37
M  V30 37 1 37 38
M  V30 38 1 38 39
M  V30 39 1 39 40
M  V30 40 1 8 10
M  V30 41 1 30 31
M  V30 42 1 1 41
M  V30 43 1 3 42
M  V30 44 1 3 43
M  V30 45 1 4 44
M  V30 46 1 5 45
M  V30 47 1 6 46
M  V30 48 1 6 47
M  V30 49 1 7 48
M  V30 50 1 8 49
M  V30 51 1 9 50
M  V30 52 1 9 51
M  V30 53 1 11 52
M  V30 54 1 11 53
M  V30 55 1 12 54
M  V30 56 1 12 55
M  V30 57 1 13 56
M  V30 58 1 13 57
M  V30 59 1 14 58
M  V30 60 1 14 59
M  V30 61 1 15 60
M  V30 62 1 15 61
M  V30 63 1 16 62
M  V30 64 1 16 63
M  V30 65 1 17 64
M  V30 66 1 17 65
M  V30 67 1 18 66
M  V30 68 1 18 67
M  V30 69 1 19 68
M  V30 70 1 19 69
M  V30 71 1 19 70
M  V30 72 1 20 71
M  V30 73 1 20 72
M  V30 74 1 21 73
M  V30 75 1 21 74
M  V30 76 1 22 75
M  V30 77 1 22 76
M  V30 78 1 23 77
M  V30 79 1 23 78
M  V30 80 1 24 79
M  V30 81 1 24 80
M  V30 82 1 25 81
M  V30 83 1 25 82
M  V30 84 1 27 83
M  V30 85 1 28 84
M  V30 86 1 29 85
M  V30 87 1 30 86
M  V30 88 1 32 87
M  V30 89 1 33 88
M  V30 90 1 33 89
M  V30 91 1 34 90
M  V30 92 1 34 91
M  V30 93 1 35 92
M  V30 94 1 35 93
M  V30 95 1 36 94
M  V30 96 1 36 95
M  V30 97 1 37 96
M  V30 98 1 37 97
M  V30 99 1 38 98
M  V30 100 1 38 99
M  V30 101 1 39 100
M  V30 102 1 39 101
M  V30 103 1 40 102
M  V30 104 1 40 103
M  V30 105 1 40 104
M  V30 END BOND
M  V30 END CTAB
M  END
>  <Structure No>
860

>  <LogS>
-1.642786266

>  <MMFF94 Energy>
65.573

$$$$
Compound 861
Actelion Java MolfileCreator 2.0

  0  0  0  0  0  0              0 V3000
M  V30 BEGIN CTAB
M  V30 COUNTS 18 18 0 0 0
M  V30 BEGIN ATOM
M  V30 1 O 4.0912 -0.2356 1.1788 0
M  V30 2 C 3.6186 -0.9499 0.2546 0
M  V30 3 C 2.1985 -0.8773 -0.1251 0
M  V30 4 C 1.3362 -0.0522 0.4881 0
M  V30 5 C -0.1086 0.0688 0.1528 0
M  V30 6 C -0.8862 0.9821 0.8889 0
M  V30 7 C -0.7353 -0.685 -0.864 0
M  V30 8 C -2.2488 1.14 0.6198 0
M  V30 9 C -2.0993 -0.5218 -1.1278 0
M  V30 10 C -2.855 0.3887 -0.3876 0
M  V30 11 H 4.2718 -1.6325 -0.2722 0
M  V30 12 H 1.8843 -1.5259 -0.9272 0
M  V30 13 H 1.7087 0.5773 1.2885 0
M  V30 14 H -0.4382 1.5768 1.6761 0
M  V30 15 H -0.1935 -1.4005 -1.4624 0
M  V30 16 H -2.8351 1.8461 1.1937 0
M  V30 17 H -2.5714 -1.1036 -1.909 0
M  V30 18 H -3.9101 0.512 -0.5948 0
M  V30 END ATOM
M  V30 BEGIN BOND
M  V30 1 2 1 2
M  V30 2 1 2 3
M  V30 3 2 3 4
M  V30 4 1 4 5
M  V30 5 2 5 6
M  V30 6 1 5 7
M  V30 7 1 6 8
M  V30 8 2 7 9
M  V30 9 2 8 10
M  V30 10 1 9 10
M  V30 11 1 2 11
M  V30 12 1 3 12
M  V30 13 1 4 13
M  V30 14 1 6 14
M  V30 15 1 7 15
M  V30 16 1 8 16
M  V30 17 1 9 17
M  V30 18 1 10 18
M  V30 END BOND
M  V30 END CTAB
M  END
>  <Structure No>
861

>  <LogS>
-1.968818258

>  <MMFF94 Energy>
21.529

$$$$
Compound 862
Actelion Java MolfileCreator 2.0

  0  0  0  0  0  0              0 V3000
M  V30 BEGIN CTAB
M  V30 COUNTS 29 28 0 0 0
M  V30 BEGIN ATOM
M  V30 1 S -0.2565 -0.342 -1.6257 0
M  V30 2 O -0.1389 -1.4022 -2.6857 0
M  V30 3 O -0.7703 0.9187 -2.2649 0
M  V30 4 N -1.3589 -0.8697 -0.3693 0
M  V30 5 C 1.3726 -0.0047 -0.9508 0
M  V30 6 C -2.7678 -0.7329 -0.8015 0
M  V30 7 C -1.0533 -2.2562 0.0095 0
M  V30 8 F 1.9807 -1.2144 -0.6687 0
M  V30 9 F 2.1116 0.6454 -1.9236 0
M  V30 10 C 1.2878 0.8641 0.3288 0
M  V30 11 C -3.4292 0.4229 -0.0548 0
M  V30 12 F 0.4318 1.9288 0.0945 0
M  V30 13 F 0.7459 0.1099 1.3569 0
M  V30 14 C 2.6421 1.459 0.7982 0
M  V30 15 O -2.799 1.6315 -0.374 0
M  V30 16 F 2.4068 2.1753 1.961 0
M  V30 17 F 3.1107 2.3512 -0.1523 0
M  V30 18 C 3.7431 0.423 1.0915 0
M  V30 19 F 4.7799 1.0388 1.7698 0
M  V30 20 F 4.2521 -0.0969 -0.0845 0
M  V30 21 F 3.2565 -0.6065 1.8772 0
M  V30 22 H -2.8611 -0.5709 -1.8981 0
M  V30 23 H -3.3623 -1.6487 -0.5786 0
M  V30 24 H -1.2187 -2.9517 -0.8424 0
M  V30 25 H -1.6977 -2.5661 0.86 0
M  V30 26 H -0.0036 -2.3418 0.3549 0
M  V30 27 H -3.3633 0.2387 1.0411 0
M  V30 28 H -4.5026 0.4745 -0.344 0
M  V30 29 H -3.264 2.3321 0.153 0
M  V30 END ATOM
M  V30 BEGIN BOND
M  V30 1 2 1 2
M  V30 2 2 1 3
M  V30 3 1 1 4
M  V30 4 1 1 5
M  V30 5 1 4 6
M  V30 6 1 4 7
M  V30 7 1 5 8
M  V30 8 1 5 9
M  V30 9 1 5 10
M  V30 10 1 6 11
M  V30 11 1 10 12
M  V30 12 1 10 13
M  V30 13 1 10 14
M  V30 14 1 11 15
M  V30 15 1 14 16
M  V30 16 1 14 17
M  V30 17 1 14 18
M  V30 18 1 18 19
M  V30 19 1 18 20
M  V30 20 1 18 21
M  V30 21 1 6 22
M  V30 22 1 6 23
M  V30 23 1 7 24
M  V30 24 1 7 25
M  V30 25 1 7 26
M  V30 26 1 11 27
M  V30 27 1 11 28
M  V30 28 1 15 29
M  V30 END BOND
M  V30 END CTAB
M  END
>  <Structure No>
862

>  <LogS>
-3.403685043

>  <MMFF94 Energy>
50.736

$$$$
Compound 863
Actelion Java MolfileCreator 2.0

  0  0  0  0  0  0              0 V3000
M  V30 BEGIN CTAB
M  V30 COUNTS 29 30 0 0 0
M  V30 BEGIN ATOM
M  V30 1 O -0.0799 2.4811 -1.8403 0
M  V30 2 N -0.8514 1.5001 -1.2643 0
M  V30 3 C -0.4268 0.7348 -0.301 0
M  V30 4 C 0.982 0.5896 0.1779 0 CFG=2
M  V30 5 C -1.147 -0.4878 0.1357 0 CFG=1
M  V30 6 C 1.6529 -0.461 -0.7509 0
M  V30 7 C 0.767 0.0068 1.5942 0
M  V30 8 C 1.7944 1.8958 0.242 0
M  V30 9 C -0.667 -1.6357 -0.7977 0
M  V30 10 C -0.6103 -0.6837 1.5676 0
M  V30 11 C -2.6765 -0.3338 0.1074 0
M  V30 12 C 0.8774 -1.8074 -0.7876 0
M  V30 13 H -0.4582 3.0487 -2.5877 0
M  V30 14 H 2.696 -0.6523 -0.4168 0
M  V30 15 H 1.7063 -0.0544 -1.7855 0
M  V30 16 H 1.5716 -0.7073 1.8758 0
M  V30 17 H 0.7489 0.8162 2.3587 0
M  V30 18 H 1.1986 2.7044 0.7176 0
M  V30 19 H 2.1147 2.223 -0.7686 0
M  V30 20 H 2.7158 1.7379 0.8425 0
M  V30 21 H -1.1405 -2.5947 -0.4936 0
M  V30 22 H -0.9931 -1.4229 -1.8402 0
M  V30 23 H -0.5287 -1.7596 1.8369 0
M  V30 24 H -1.277 -0.1946 2.313 0
M  V30 25 H -2.9923 0.5446 0.7105 0
M  V30 26 H -3.1579 -1.2432 0.5257 0
M  V30 27 H -3.036 -0.1927 -0.9343 0
M  V30 28 H 1.1654 -2.4121 0.0992 0
M  V30 29 H 1.1889 -2.3872 -1.6828 0
M  V30 END ATOM
M  V30 BEGIN BOND
M  V30 1 1 1 2
M  V30 2 2 2 3
M  V30 3 1 3 4
M  V30 4 1 3 5
M  V30 5 1 4 6
M  V30 6 1 4 7
M  V30 7 1 4 8
M  V30 8 1 5 9
M  V30 9 1 5 10
M  V30 10 1 5 11
M  V30 11 1 6 12
M  V30 12 1 7 10
M  V30 13 1 9 12
M  V30 14 1 1 13
M  V30 15 1 6 14
M  V30 16 1 6 15
M  V30 17 1 7 16
M  V30 18 1 7 17
M  V30 19 1 8 18
M  V30 20 1 8 19
M  V30 21 1 8 20
M  V30 22 1 9 21
M  V30 23 1 9 22
M  V30 24 1 10 23
M  V30 25 1 10 24
M  V30 26 1 11 25
M  V30 27 1 11 26
M  V30 28 1 11 27
M  V30 29 1 12 28
M  V30 30 1 12 29
M  V30 END BOND
M  V30 BEGIN COLLECTION
M  V30 MDLV30/STEABS ATOMS=(2 4 5)
M  V30 END COLLECTION
M  V30 END CTAB
M  END
>  <Structure No>
863

>  <LogS>
-3.074152207

>  <MMFF94 Energy>
54.989

$$$$
Compound 864
Actelion Java MolfileCreator 2.0

  0  0  0  0  0  0              0 V3000
M  V30 BEGIN CTAB
M  V30 COUNTS 20 20 0 0 0
M  V30 BEGIN ATOM
M  V30 1 O 1.8875 1.8875 -0.2357 0
M  V30 2 C 2.313 0.702 -0.182 0
M  V30 3 N 1.4232 -0.383 0.1231 0
M  V30 4 C 3.7754 0.4417 -0.3406 0
M  V30 5 C -0.0111 -0.2777 0.1159 0
M  V30 6 C -0.6832 0.5522 -0.8007 0
M  V30 7 C -0.7629 -1.0642 1.0027 0
M  V30 8 C -2.0802 0.6173 -0.8012 0
M  V30 9 C -2.1595 -0.9967 1.0009 0
M  V30 10 C -2.8218 -0.1526 0.1 0
M  V30 11 O -4.2128 -0.0761 0.0889 0
M  V30 12 H 1.8483 -1.2807 0.4493 0
M  V30 13 H 4.2535 1.2615 -0.9179 0
M  V30 14 H 3.9329 -0.5138 -0.8834 0
M  V30 15 H 4.2497 0.376 0.6606 0
M  V30 16 H -0.1345 1.1296 -1.5324 0
M  V30 17 H -0.2642 -1.7228 1.7029 0
M  V30 18 H -2.5876 1.2603 -1.5093 0
M  V30 19 H -2.7253 -1.6019 1.6979 0
M  V30 20 H -4.7783 -0.6226 0.7281 0
M  V30 END ATOM
M  V30 BEGIN BOND
M  V30 1 2 1 2
M  V30 2 1 2 3
M  V30 3 1 2 4
M  V30 4 1 3 5
M  V30 5 2 5 6
M  V30 6 1 5 7
M  V30 7 1 6 8
M  V30 8 2 7 9
M  V30 9 2 8 10
M  V30 10 1 10 11
M  V30 11 1 9 10
M  V30 12 1 3 12
M  V30 13 1 4 13
M  V30 14 1 4 14
M  V30 15 1 4 15
M  V30 16 1 6 16
M  V30 17 1 7 17
M  V30 18 1 8 18
M  V30 19 1 9 19
M  V30 20 1 11 20
M  V30 END BOND
M  V30 END CTAB
M  END
>  <Structure No>
864

>  <LogS>
-1.033323213

>  <MMFF94 Energy>
-12.32

$$$$
Compound 865
Actelion Java MolfileCreator 2.0

  0  0  0  0  0  0              0 V3000
M  V30 BEGIN CTAB
M  V30 COUNTS 10 9 0 0 0
M  V30 BEGIN ATOM
M  V30 1 O 2.5322 0.3264 0.9796 0
M  V30 2 C 1.2865 0.3937 0.8136 0
M  V30 3 O 0.5986 1.5041 1.2878 0 CHG=-1
M  V30 4 C 0.576 -0.7488 0.2122 0
M  V30 5 C -0.6159 -0.6927 -0.3997 0
M  V30 6 C -1.3254 0.5399 -0.7859 0
M  V30 7 O -2.5711 0.5047 -0.9611 0
M  V30 8 O -0.6366 1.7168 -1.0528 0 CHG=-1
M  V30 9 H 1.0398 -1.7222 0.3176 0
M  V30 10 H -1.0807 -1.6309 -0.6782 0
M  V30 END ATOM
M  V30 BEGIN BOND
M  V30 1 2 1 2
M  V30 2 1 2 3
M  V30 3 1 2 4
M  V30 4 2 4 5
M  V30 5 1 5 6
M  V30 6 2 6 7
M  V30 7 1 6 8
M  V30 8 1 4 9
M  V30 9 1 5 10
M  V30 END BOND
M  V30 END CTAB
M  END
>  <Structure No>
865

>  <LogS>
-2.084067899

>  <MMFF94 Energy>
66.6

$$$$
Compound 866
Actelion Java MolfileCreator 2.0

  0  0  0  0  0  0              0 V3000
M  V30 BEGIN CTAB
M  V30 COUNTS 34 34 0 0 0
M  V30 BEGIN ATOM
M  V30 1 O 1.0248 -0.867 -1.4191 0
M  V30 2 C 1.0384 -0.3088 -0.2866 0
M  V30 3 C 2.2901 0.2791 0.2339 0
M  V30 4 C -0.2383 -0.2201 0.5278 0 CFG=2
M  V30 5 C 3.4377 0.2373 -0.4491 0
M  V30 6 C -0.907 -1.5875 0.54 0
M  V30 7 C -1.2051 0.9121 0.0408 0
M  V30 8 C 4.6835 0.8484 0.1065 0
M  V30 9 C -1.9463 -1.8806 -0.2695 0
M  V30 10 C -0.3236 -2.6811 1.3959 0
M  V30 11 C -1.9067 0.4665 -1.2659 0
M  V30 12 C -2.2588 1.2048 1.1391 0
M  V30 13 C -0.4385 2.2298 -0.2244 0
M  V30 14 C -2.6725 -0.8545 -1.1035 0
M  V30 15 H 2.2704 0.7659 1.2023 0
M  V30 16 H 0.0454 0.0138 1.5789 0
M  V30 17 H 3.4853 -0.2403 -1.4204 0
M  V30 18 H 4.5308 1.936 0.2726 0
M  V30 19 H 5.5209 0.7091 -0.6086 0
M  V30 20 H 4.9485 0.3609 1.0685 0
M  V30 21 H -2.3665 -2.8827 -0.2487 0
M  V30 22 H 0.001 -3.529 0.7563 0
M  V30 23 H 0.557 -2.3165 1.9657 0
M  V30 24 H -1.0871 -3.0387 2.1186 0
M  V30 25 H -1.1555 0.3433 -2.0757 0
M  V30 26 H -2.6165 1.252 -1.6079 0
M  V30 27 H -2.8027 0.2861 1.4426 0
M  V30 28 H -3.0052 1.9462 0.7803 0
M  V30 29 H -1.7702 1.6183 2.0479 0
M  V30 30 H 0.264 2.1252 -1.0784 0
M  V30 31 H -1.1451 3.0508 -0.4745 0
M  V30 32 H 0.1423 2.5307 0.6742 0
M  V30 33 H -3.6572 -0.654 -0.6301 0
M  V30 34 H -2.8711 -1.2839 -2.1086 0
M  V30 END ATOM
M  V30 BEGIN BOND
M  V30 1 2 1 2
M  V30 2 1 2 3
M  V30 3 1 2 4
M  V30 4 2 3 5
M  V30 5 1 4 6
M  V30 6 1 4 7
M  V30 7 1 5 8
M  V30 8 2 6 9
M  V30 9 1 6 10
M  V30 10 1 7 11
M  V30 11 1 7 12
M  V30 12 1 7 13
M  V30 13 1 9 14
M  V30 14 1 11 14
M  V30 15 1 3 15
M  V30 16 1 4 16
M  V30 17 1 5 17
M  V30 18 1 8 18
M  V30 19 1 8 19
M  V30 20 1 8 20
M  V30 21 1 9 21
M  V30 22 1 10 22
M  V30 23 1 10 23
M  V30 24 1 10 24
M  V30 25 1 11 25
M  V30 26 1 11 26
M  V30 27 1 12 27
M  V30 28 1 12 28
M  V30 29 1 12 29
M  V30 30 1 13 30
M  V30 31 1 13 31
M  V30 32 1 13 32
M  V30 33 1 14 33
M  V30 34 1 14 34
M  V30 END BOND
M  V30 BEGIN COLLECTION
M  V30 MDLV30/STEABS ATOMS=(1 4)
M  V30 END COLLECTION
M  V30 END CTAB
M  END
>  <Structure No>
866

>  <LogS>
-3.137855765

>  <MMFF94 Energy>
53.689

$$$$
Compound 867
Actelion Java MolfileCreator 2.0

  0  0  0  0  0  0              0 V3000
M  V30 BEGIN CTAB
M  V30 COUNTS 19 19 0 0 0
M  V30 BEGIN ATOM
M  V30 1 O 4.0494 -0.1585 0.4757 0
M  V30 2 N 3.1002 -0.6961 -0.132 0 CHG=1
M  V30 3 O 3.3678 -1.7449 -0.982 0 CHG=-1
M  V30 4 C 1.7509 -0.2283 0.0521 0
M  V30 5 C 0.6869 -0.8372 -0.6346 0
M  V30 6 C 1.4767 0.8417 0.919 0
M  V30 7 C -0.6357 -0.3901 -0.4639 0
M  V30 8 C 0.1681 1.2931 1.0958 0
M  V30 9 C -0.8962 0.6886 0.4128 0
M  V30 10 C -1.7471 -1.0696 -1.2181 0
M  V30 11 N -2.2267 1.1828 0.6223 0
M  V30 12 H 0.8871 -1.6631 -1.3055 0
M  V30 13 H 2.275 1.3311 1.462 0
M  V30 14 H -0.0176 2.1202 1.7699 0
M  V30 15 H -2.2599 -0.3352 -1.8742 0
M  V30 16 H -1.3668 -1.8935 -1.8588 0
M  V30 17 H -2.4774 -1.5024 -0.5024 0
M  V30 18 H -3.0559 0.7716 0.1411 0
M  V30 19 H -2.3985 1.9809 1.2742 0
M  V30 END ATOM
M  V30 BEGIN BOND
M  V30 1 2 1 2
M  V30 2 1 2 3
M  V30 3 1 2 4
M  V30 4 2 4 5
M  V30 5 1 4 6
M  V30 6 1 5 7
M  V30 7 2 6 8
M  V30 8 2 7 9
M  V30 9 1 7 10
M  V30 10 1 9 11
M  V30 11 1 8 9
M  V30 12 1 5 12
M  V30 13 1 6 13
M  V30 14 1 8 14
M  V30 15 1 10 15
M  V30 16 1 10 16
M  V30 17 1 10 17
M  V30 18 1 11 18
M  V30 19 1 11 19
M  V30 END BOND
M  V30 END CTAB
M  END
>  <Structure No>
867

>  <LogS>
-3.036152484

>  <MMFF94 Energy>
43.878

$$$$
Compound 868
Actelion Java MolfileCreator 2.0

  0  0  0  0  0  0              0 V3000
M  V30 BEGIN CTAB
M  V30 COUNTS 30 29 0 0 0
M  V30 BEGIN ATOM
M  V30 1 O -5.8752 0.3085 -0.4628 0
M  V30 2 C -4.7879 -0.1742 0.2783 0
M  V30 3 C -3.4711 0.2244 -0.3931 0
M  V30 4 C -2.2672 -0.3221 0.3831 0
M  V30 5 C -0.9497 0.079 -0.2908 0
M  V30 6 C 0.2546 -0.4671 0.4853 0
M  V30 7 C 1.5726 -0.0669 -0.1889 0
M  V30 8 C 2.7776 -0.6065 0.5958 0
M  V30 9 C 4.1136 -0.332 -0.1115 0
M  V30 10 C 4.5026 1.1459 -0.0879 0
M  V30 11 H -5.9422 1.2801 -0.269 0
M  V30 12 H -4.8265 0.2189 1.3202 0
M  V30 13 H -4.8596 -1.2819 0.3259 0
M  V30 14 H -3.4085 1.3338 -0.4418 0
M  V30 15 H -3.4579 -0.1755 -1.4308 0
M  V30 16 H -2.2865 0.0781 1.4209 0
M  V30 17 H -2.3331 -1.4316 0.4307 0
M  V30 18 H -0.8841 1.1886 -0.3384 0
M  V30 19 H -0.9307 -0.321 -1.3286 0
M  V30 20 H 0.2363 -0.0663 1.523 0
M  V30 21 H 0.1877 -1.5765 0.5336 0
M  V30 22 H 1.6269 1.0415 -0.2412 0
M  V30 23 H 1.5929 -0.4734 -1.224 0
M  V30 24 H 2.7941 -0.1644 1.6164 0
M  V30 25 H 2.6694 -1.7078 0.7075 0
M  V30 26 H 4.9097 -0.9092 0.4069 0
M  V30 27 H 4.0707 -0.6895 -1.1632 0
M  V30 28 H 3.8059 1.7463 -0.7088 0
M  V30 29 H 5.525 1.2646 -0.5045 0
M  V30 30 H 4.4988 1.5329 0.9533 0
M  V30 END ATOM
M  V30 BEGIN BOND
M  V30 1 1 1 2
M  V30 2 1 2 3
M  V30 3 1 3 4
M  V30 4 1 4 5
M  V30 5 1 5 6
M  V30 6 1 6 7
M  V30 7 1 7 8
M  V30 8 1 8 9
M  V30 9 1 9 10
M  V30 10 1 1 11
M  V30 11 1 2 12
M  V30 12 1 2 13
M  V30 13 1 3 14
M  V30 14 1 3 15
M  V30 15 1 4 16
M  V30 16 1 4 17
M  V30 17 1 5 18
M  V30 18 1 5 19
M  V30 19 1 6 20
M  V30 20 1 6 21
M  V30 21 1 7 22
M  V30 22 1 7 23
M  V30 23 1 8 24
M  V30 24 1 8 25
M  V30 25 1 9 26
M  V30 26 1 9 27
M  V30 27 1 10 28
M  V30 28 1 10 29
M  V30 29 1 10 30
M  V30 END BOND
M  V30 END CTAB
M  END
>  <Structure No>
868

>  <LogS>
-3.013011871

>  <MMFF94 Energy>
-1.0735

$$$$
Compound 869
Actelion Java MolfileCreator 2.0

  0  0  0  0  0  0              0 V3000
M  V30 BEGIN CTAB
M  V30 COUNTS 42 42 0 0 0
M  V30 BEGIN ATOM
M  V30 1 O -1.9825 -1.6651 1.6651 0
M  V30 2 C -1.6149 -0.6829 0.9626 0
M  V30 3 O -1.9094 0.6264 1.3584 0
M  V30 4 C -0.8217 -0.9085 -0.2958 0 CFG=1
M  V30 5 C -2.7074 0.9426 2.4981 0
M  V30 6 C 0.614 -1.4106 0.0329 0 CFG=2
M  V30 7 C -1.5476 -1.8902 -1.2321 0
M  V30 8 C -4.191 0.6653 2.2311 0
M  V30 9 C 1.4819 -0.2552 0.4563 0
M  V30 10 C 1.2661 -2.1845 -1.1445 0
M  V30 11 C -0.8234 -2.0207 -2.5883 0
M  V30 12 C -4.7241 1.4994 1.0684 0
M  V30 13 O 1.8645 -0.1668 1.6553 0
M  V30 14 O 1.8359 0.7245 -0.4791 0
M  V30 15 C 0.6946 -1.7642 -2.5036 0
M  V30 16 C 2.7017 1.8173 -0.1822 0
M  V30 17 C 4.1571 1.3458 -0.1269 0
M  V30 18 C 5.1055 2.5114 0.1366 0
M  V30 19 H -0.761 0.0653 -0.834 0
M  V30 20 H -2.5729 2.0185 2.7399 0
M  V30 21 H -2.3643 0.3557 3.3778 0
M  V30 22 H 0.5583 -2.1271 0.8848 0
M  V30 23 H -2.5914 -1.5483 -1.4088 0
M  V30 24 H -1.5981 -2.8914 -0.7485 0
M  V30 25 H -4.3418 -0.4124 2.0093 0
M  V30 26 H -4.7726 0.91 3.146 0
M  V30 27 H 1.0802 -3.2736 -1.0122 0
M  V30 28 H 2.3707 -2.05 -1.1488 0
M  V30 29 H -1.0026 -3.0417 -2.9902 0
M  V30 30 H -1.2635 -1.3001 -3.3117 0
M  V30 31 H -4.1959 1.2361 0.1275 0
M  V30 32 H -5.8074 1.2966 0.9329 0
M  V30 33 H -4.5889 2.5823 1.2757 0
M  V30 34 H 0.8991 -0.6832 -2.6655 0
M  V30 35 H 1.2098 -2.3251 -3.313 0
M  V30 36 H 2.5934 2.5747 -0.9875 0
M  V30 37 H 2.4043 2.291 0.7792 0
M  V30 38 H 4.4261 0.8684 -1.0939 0
M  V30 39 H 4.2788 0.5928 0.6806 0
M  V30 40 H 5.0248 3.266 -0.6746 0
M  V30 41 H 6.1509 2.1389 0.1721 0
M  V30 42 H 4.8657 2.991 1.1095 0
M  V30 END ATOM
M  V30 BEGIN BOND
M  V30 1 2 1 2
M  V30 2 1 2 3
M  V30 3 1 2 4
M  V30 4 1 3 5
M  V30 5 1 4 6
M  V30 6 1 4 7
M  V30 7 1 5 8
M  V30 8 1 6 9
M  V30 9 1 6 10
M  V30 10 1 7 11
M  V30 11 1 8 12
M  V30 12 2 9 13
M  V30 13 1 9 14
M  V30 14 1 10 15
M  V30 15 1 14 16
M  V30 16 1 16 17
M  V30 17 1 17 18
M  V30 18 1 11 15
M  V30 19 1 4 19
M  V30 20 1 5 20
M  V30 21 1 5 21
M  V30 22 1 6 22
M  V30 23 1 7 23
M  V30 24 1 7 24
M  V30 25 1 8 25
M  V30 26 1 8 26
M  V30 27 1 10 27
M  V30 28 1 10 28
M  V30 29 1 11 29
M  V30 30 1 11 30
M  V30 31 1 12 31
M  V30 32 1 12 32
M  V30 33 1 12 33
M  V30 34 1 15 34
M  V30 35 1 15 35
M  V30 36 1 16 36
M  V30 37 1 16 37
M  V30 38 1 17 38
M  V30 39 1 17 39
M  V30 40 1 18 40
M  V30 41 1 18 41
M  V30 42 1 18 42
M  V30 END BOND
M  V30 BEGIN COLLECTION
M  V30 MDLV30/STEABS ATOMS=(2 4 6)
M  V30 END COLLECTION
M  V30 END CTAB
M  END
>  <Structure No>
869

>  <LogS>
-3.262691733

>  <MMFF94 Energy>
-29.206

$$$$
Compound 870
Actelion Java MolfileCreator 2.0

  0  0  0  0  0  0              0 V3000
M  V30 BEGIN CTAB
M  V30 COUNTS 32 34 0 0 0
M  V30 BEGIN ATOM
M  V30 1 S -3.5345 -1.5978 -1.4295 0
M  V30 2 O -2.4155 -2.0071 -2.3441 0
M  V30 3 O -4.6495 -1.0527 -2.2767 0
M  V30 4 O -4.0765 -2.9503 -0.5941 0 CHG=-1
M  V30 5 C -3.0019 -0.3663 -0.262 0
M  V30 6 C -3.9395 0.4041 0.484 0
M  V30 7 C -1.636 -0.1359 -0.0144 0
M  V30 8 C -3.4791 1.393 1.385 0
M  V30 9 C -5.4257 0.2207 0.3216 0
M  V30 10 S -0.2755 -0.8909 -0.6571 0
M  V30 11 C -1.1978 0.8254 0.8871 0
M  V30 12 C -2.1105 1.6044 1.5888 0
M  V30 13 C 0.8087 0.0511 0.239 0
M  V30 14 N 0.1492 0.9338 1.0285 0
M  V30 15 C 2.2854 -0.0529 0.1915 0
M  V30 16 C 2.9189 -0.9887 -0.6466 0
M  V30 17 C 3.0788 0.7899 0.9905 0
M  V30 18 C 4.3136 -1.078 -0.6831 0
M  V30 19 C 4.4734 0.6986 0.952 0
M  V30 20 C 5.0972 -0.2352 0.1153 0
M  V30 21 N 6.5237 -0.3277 0.0767 0
M  V30 22 H -4.1845 1.9993 1.94 0
M  V30 23 H -5.7573 0.6834 -0.6307 0
M  V30 24 H -5.9862 0.6992 1.1531 0
M  V30 25 H -5.6888 -0.857 0.328 0
M  V30 26 H -1.7709 2.3575 2.2886 0
M  V30 27 H 2.3414 -1.6536 -1.2753 0
M  V30 28 H 2.6227 1.5209 1.6464 0
M  V30 29 H 4.7835 -1.8043 -1.3343 0
M  V30 30 H 5.0672 1.3562 1.5744 0
M  V30 31 H 6.9977 -1.0211 -0.5439 0
M  V30 32 H 7.1161 0.2963 0.6686 0
M  V30 END ATOM
M  V30 BEGIN BOND
M  V30 1 2 1 2
M  V30 2 2 1 3
M  V30 3 1 1 4
M  V30 4 1 1 5
M  V30 5 2 5 6
M  V30 6 1 5 7
M  V30 7 1 6 8
M  V30 8 1 6 9
M  V30 9 1 7 10
M  V30 10 2 7 11
M  V30 11 2 8 12
M  V30 12 1 10 13
M  V30 13 1 11 14
M  V30 14 1 13 15
M  V30 15 2 15 16
M  V30 16 1 15 17
M  V30 17 1 16 18
M  V30 18 2 17 19
M  V30 19 2 18 20
M  V30 20 1 20 21
M  V30 21 1 11 12
M  V30 22 2 13 14
M  V30 23 1 19 20
M  V30 24 1 8 22
M  V30 25 1 9 23
M  V30 26 1 9 24
M  V30 27 1 9 25
M  V30 28 1 12 26
M  V30 29 1 16 27
M  V30 30 1 17 28
M  V30 31 1 18 29
M  V30 32 1 19 30
M  V30 33 1 21 31
M  V30 34 1 21 32
M  V30 END BOND
M  V30 END CTAB
M  END
>  <Structure No>
870

>  <LogS>
-4.332499462

>  <MMFF94 Energy>
55.89

$$$$
Compound 871
Actelion Java MolfileCreator 2.0

  0  0  0  0  0  0              0 V3000
M  V30 BEGIN CTAB
M  V30 COUNTS 45 45 0 0 0
M  V30 BEGIN ATOM
M  V30 1 O 4.2835 1.5848 -2.2193 0
M  V30 2 C 3.5288 1.3703 -1.2344 0
M  V30 3 O 2.4614 2.25 -0.996 0
M  V30 4 C 3.7515 0.1386 -0.3957 0
M  V30 5 C 1.6096 2.1756 0.1473 0
M  V30 6 C 2.7898 -0.988 -0.8182 0
M  V30 7 C 0.4556 3.1626 0.0117 0
M  V30 8 C 2.3702 -1.8603 0.3802 0
M  V30 9 O -0.3738 2.7925 -1.0925 0
M  V30 10 C 1.1971 -2.8066 0.0613 0
M  V30 11 C -1.7477 2.5005 -1.0397 0
M  V30 12 C -0.0589 -2.0386 -0.3884 0
M  V30 13 O -2.3517 2.2898 -2.1243 0
M  V30 14 C -2.5313 2.4113 0.2471 0
M  V30 15 C -1.3654 -2.7768 -0.067 0
M  V30 16 C -2.1678 1.1681 1.0828 0
M  V30 17 C -2.5947 -2.1618 -0.7753 0
M  V30 18 C -2.9762 -0.0945 0.7283 0
M  V30 19 C -2.6993 -0.624 -0.6945 0
M  V30 20 H 4.8005 -0.212 -0.5085 0
M  V30 21 H 3.621 0.4093 0.6734 0
M  V30 22 H 2.1955 2.422 1.0587 0
M  V30 23 H 1.1938 1.1533 0.2543 0
M  V30 24 H 1.8907 -0.542 -1.2913 0
M  V30 25 H 3.2777 -1.6247 -1.588 0
M  V30 26 H -0.1024 3.1932 0.9682 0
M  V30 27 H 0.8616 4.18 -0.1701 0
M  V30 28 H 3.2427 -2.4645 0.7106 0
M  V30 29 H 2.0687 -1.2136 1.2337 0
M  V30 30 H 0.9729 -3.3883 0.9822 0
M  V30 31 H 1.4976 -3.528 -0.7293 0
M  V30 32 H -0.0847 -1.0572 0.1294 0
M  V30 33 H 0.0011 -1.8643 -1.4851 0
M  V30 34 H -2.3457 3.3297 0.8427 0
M  V30 35 H -3.6215 2.4098 0.0266 0
M  V30 36 H -1.5233 -2.7807 1.0326 0
M  V30 37 H -1.2762 -3.8371 -0.3898 0
M  V30 38 H -1.0832 0.9479 1.0203 0
M  V30 39 H -2.3773 1.4052 2.1487 0
M  V30 40 H -2.5518 -2.4446 -1.8498 0
M  V30 41 H -3.5191 -2.616 -0.3567 0
M  V30 42 H -2.7303 -0.8663 1.4867 0
M  V30 43 H -4.0625 0.1155 0.8402 0
M  V30 44 H -3.533 -0.2983 -1.3541 0
M  V30 45 H -1.7835 -0.1757 -1.1275 0
M  V30 END ATOM
M  V30 BEGIN BOND
M  V30 1 2 1 2
M  V30 2 1 2 3
M  V30 3 1 2 4
M  V30 4 1 3 5
M  V30 5 1 4 6
M  V30 6 1 5 7
M  V30 7 1 6 8
M  V30 8 1 7 9
M  V30 9 1 8 10
M  V30 10 1 9 11
M  V30 11 1 10 12
M  V30 12 2 11 13
M  V30 13 1 11 14
M  V30 14 1 12 15
M  V30 15 1 14 16
M  V30 16 1 15 17
M  V30 17 1 16 18
M  V30 18 1 17 19
M  V30 19 1 18 19
M  V30 20 1 4 20
M  V30 21 1 4 21
M  V30 22 1 5 22
M  V30 23 1 5 23
M  V30 24 1 6 24
M  V30 25 1 6 25
M  V30 26 1 7 26
M  V30 27 1 7 27
M  V30 28 1 8 28
M  V30 29 1 8 29
M  V30 30 1 10 30
M  V30 31 1 10 31
M  V30 32 1 12 32
M  V30 33 1 12 33
M  V30 34 1 14 34
M  V30 35 1 14 35
M  V30 36 1 15 36
M  V30 37 1 15 37
M  V30 38 1 16 38
M  V30 39 1 16 39
M  V30 40 1 17 40
M  V30 41 1 17 41
M  V30 42 1 18 42
M  V30 43 1 18 43
M  V30 44 1 19 44
M  V30 45 1 19 45
M  V30 END BOND
M  V30 END CTAB
M  END
>  <Structure No>
871

>  <LogS>
-4.261695179

>  <MMFF94 Energy>
-3.5503

$$$$
Compound 872
Actelion Java MolfileCreator 2.0

  0  0  0  0  0  0              0 V3000
M  V30 BEGIN CTAB
M  V30 COUNTS 24 25 0 0 0
M  V30 BEGIN ATOM
M  V30 1 Cl 5.3077 1.2421 0.7451 0
M  V30 2 C 3.7022 0.7453 0.2426 0
M  V30 3 C 3.5181 -0.484 -0.3971 0
M  V30 4 C 2.6071 1.5821 0.4731 0
M  V30 5 C 2.2398 -0.8863 -0.8016 0
M  V30 6 C 1.328 1.1886 0.0716 0
M  V30 7 O 2.0903 -2.1163 -1.4415 0
M  V30 8 C 1.1304 -0.0559 -0.555 0
M  V30 9 O -0.142 -0.465 -0.9834 0
M  V30 10 C -1.3544 -0.1461 -0.3541 0
M  V30 11 C -1.4439 0.0466 1.0371 0
M  V30 12 C -2.5155 -0.0657 -1.1328 0
M  V30 13 C -2.675 0.3467 1.6284 0
M  V30 14 C -3.7459 0.2347 -0.5401 0
M  V30 15 C -3.8263 0.445 0.8403 0
M  V30 16 Cl -5.3703 0.8199 1.5834 0
M  V30 17 H 4.3682 -1.1286 -0.5824 0
M  V30 18 H 2.7466 2.5408 0.9562 0
M  V30 19 H 0.497 1.8629 0.2322 0
M  V30 20 H 1.1878 -2.4567 -1.7509 0
M  V30 21 H -0.569 -0.0537 1.6658 0
M  V30 22 H -2.4618 -0.2294 -2.2016 0
M  V30 23 H -2.7341 0.4956 2.6992 0
M  V30 24 H -4.6352 0.3022 -1.1539 0
M  V30 END ATOM
M  V30 BEGIN BOND
M  V30 1 1 1 2
M  V30 2 2 2 3
M  V30 3 1 2 4
M  V30 4 1 3 5
M  V30 5 2 4 6
M  V30 6 1 5 7
M  V30 7 2 5 8
M  V30 8 1 8 9
M  V30 9 1 9 10
M  V30 10 2 10 11
M  V30 11 1 10 12
M  V30 12 1 11 13
M  V30 13 2 12 14
M  V30 14 2 13 15
M  V30 15 1 15 16
M  V30 16 1 6 8
M  V30 17 1 14 15
M  V30 18 1 3 17
M  V30 19 1 4 18
M  V30 20 1 6 19
M  V30 21 1 7 20
M  V30 22 1 11 21
M  V30 23 1 12 22
M  V30 24 1 13 23
M  V30 25 1 14 24
M  V30 END BOND
M  V30 END CTAB
M  END
>  <Structure No>
872

>  <LogS>
-4.239393124

>  <MMFF94 Energy>
40.224

$$$$
Compound 873
Actelion Java MolfileCreator 2.0

  0  0  0  0  0  0              0 V3000
M  V30 BEGIN CTAB
M  V30 COUNTS 26 25 0 0 0
M  V30 BEGIN ATOM
M  V30 1 C 1.7663 -0.307 -0.5373 0
M  V30 2 C 2.1024 0.9261 0.228 0
M  V30 3 C 0.6845 -0.3675 -1.3414 0
M  V30 4 C 2.6287 -1.5372 -0.3946 0
M  V30 5 C 2.9516 0.9389 1.256 0
M  V30 6 C -0.2977 0.755 -1.5528 0
M  V30 7 C -1.0861 1.0546 -0.3003 0
M  V30 8 C -2.0395 0.2463 0.2134 0
M  V30 9 C -2.7481 0.6796 1.4708 0
M  V30 10 C -2.4148 -1.0625 -0.4403 0
M  V30 11 H 1.6423 1.8676 -0.0396 0
M  V30 12 H 0.4809 -1.2845 -1.8827 0
M  V30 13 H 3.7022 -1.2562 -0.4332 0
M  V30 14 H 2.4122 -2.0312 0.5756 0
M  V30 15 H 2.4502 -2.2696 -1.2113 0
M  V30 16 H 3.1539 1.8677 1.7738 0
M  V30 17 H 3.4423 0.042 1.6082 0
M  V30 18 H 0.2452 1.6656 -1.8835 0
M  V30 19 H -0.9951 0.4911 -2.3758 0
M  V30 20 H -0.8716 1.9952 0.2012 0
M  V30 21 H -3.2668 1.6461 1.2956 0
M  V30 22 H -3.5031 -0.0661 1.7959 0
M  V30 23 H -2.0108 0.807 2.2916 0
M  V30 24 H -2.743 -0.8877 -1.4861 0
M  V30 25 H -3.2494 -1.5597 0.0963 0
M  V30 26 H -1.5485 -1.7552 -0.4316 0
M  V30 END ATOM
M  V30 BEGIN BOND
M  V30 1 1 1 2
M  V30 2 2 1 3
M  V30 3 1 1 4
M  V30 4 2 2 5
M  V30 5 1 3 6
M  V30 6 1 6 7
M  V30 7 2 7 8
M  V30 8 1 8 9
M  V30 9 1 8 10
M  V30 10 1 2 11
M  V30 11 1 3 12
M  V30 12 1 4 13
M  V30 13 1 4 14
M  V30 14 1 4 15
M  V30 15 1 5 16
M  V30 16 1 5 17
M  V30 17 1 6 18
M  V30 18 1 6 19
M  V30 19 1 7 20
M  V30 20 1 9 21
M  V30 21 1 9 22
M  V30 22 1 9 23
M  V30 23 1 10 24
M  V30 24 1 10 25
M  V30 25 1 10 26
M  V30 END BOND
M  V30 END CTAB
M  END
>  <Structure No>
873

>  <LogS>
-3.972930257

>  <MMFF94 Energy>
18.472

$$$$
Compound 874
Actelion Java MolfileCreator 2.0

  0  0  0  0  0  0              0 V3000
M  V30 BEGIN CTAB
M  V30 COUNTS 42 41 0 0 0
M  V30 BEGIN ATOM
M  V30 1 O -1.1728 0.3126 -2.3467 0
M  V30 2 C -1.1604 -0.3145 -1.2533 0
M  V30 3 O -2.2676 -0.2786 -0.4103 0
M  V30 4 C 0.0674 -1.0612 -0.8303 0
M  V30 5 O -3.364 0.4271 -0.739 0
M  V30 6 C 1.1066 -0.1357 -0.157 0 CFG=2
M  V30 7 C -4.2668 0.3575 0.3483 0
M  V30 8 C 2.4291 -0.9157 0.1281 0
M  V30 9 C 0.5398 0.4683 1.1424 0
M  V30 10 C -3.6413 0.9704 1.6205 0
M  V30 11 C -5.5081 1.1775 -0.0354 0
M  V30 12 C -4.6973 -1.1015 0.6101 0
M  V30 13 C 3.7509 -0.1861 -0.2678 0
M  V30 14 C 3.8686 1.1871 0.4254 0
M  V30 15 C 3.8428 -0.0063 -1.7996 0
M  V30 16 C 4.9399 -1.0609 0.186 0
M  V30 17 H 0.5154 -1.5286 -1.7347 0
M  V30 18 H -0.2198 -1.8807 -0.1356 0
M  V30 19 H 1.297 0.7039 -0.8554 0
M  V30 20 H 2.4155 -1.8936 -0.4037 0
M  V30 21 H 2.473 -1.187 1.2073 0
M  V30 22 H 1.3073 1.0795 1.6593 0
M  V30 23 H -0.3203 1.1346 0.9209 0
M  V30 24 H 0.2029 -0.334 1.8333 0
M  V30 25 H -4.3889 1.0166 2.4419 0
M  V30 26 H -3.2778 1.9996 1.4122 0
M  V30 27 H -2.7822 0.3625 1.976 0
M  V30 28 H -6.2633 1.1638 0.7805 0
M  V30 29 H -5.9748 0.7637 -0.9553 0
M  V30 30 H -5.2258 2.2334 -0.2374 0
M  V30 31 H -5.0996 -1.5562 -0.3205 0
M  V30 32 H -5.4836 -1.1434 1.3948 0
M  V30 33 H -3.838 -1.7152 0.9553 0
M  V30 34 H 3.783 1.0757 1.5278 0
M  V30 35 H 3.0812 1.8868 0.0763 0
M  V30 36 H 4.8519 1.6541 0.2005 0
M  V30 37 H 3.0764 0.6985 -2.1803 0
M  V30 38 H 3.7092 -0.981 -2.3166 0
M  V30 39 H 4.8362 0.4031 -2.0847 0
M  V30 40 H 4.9232 -1.2072 1.2879 0
M  V30 41 H 5.9081 -0.5852 -0.083 0
M  V30 42 H 4.8999 -2.0606 -0.2983 0
M  V30 END ATOM
M  V30 BEGIN BOND
M  V30 1 2 1 2
M  V30 2 1 2 3
M  V30 3 1 2 4
M  V30 4 1 3 5
M  V30 5 1 4 6
M  V30 6 1 5 7
M  V30 7 1 6 8
M  V30 8 1 6 9
M  V30 9 1 7 10
M  V30 10 1 7 11
M  V30 11 1 7 12
M  V30 12 1 8 13
M  V30 13 1 13 14
M  V30 14 1 13 15
M  V30 15 1 13 16
M  V30 16 1 4 17
M  V30 17 1 4 18
M  V30 18 1 6 19
M  V30 19 1 8 20
M  V30 20 1 8 21
M  V30 21 1 9 22
M  V30 22 1 9 23
M  V30 23 1 9 24
M  V30 24 1 10 25
M  V30 25 1 10 26
M  V30 26 1 10 27
M  V30 27 1 11 28
M  V30 28 1 11 29
M  V30 29 1 11 30
M  V30 30 1 12 31
M  V30 31 1 12 32
M  V30 32 1 12 33
M  V30 33 1 14 34
M  V30 34 1 14 35
M  V30 35 1 14 36
M  V30 36 1 15 37
M  V30 37 1 15 38
M  V30 38 1 15 39
M  V30 39 1 16 40
M  V30 40 1 16 41
M  V30 41 1 16 42
M  V30 END BOND
M  V30 BEGIN COLLECTION
M  V30 MDLV30/STEABS ATOMS=(1 6)
M  V30 END COLLECTION
M  V30 END CTAB
M  END
>  <Structure No>
874

>  <LogS>
-4.210096102

>  <MMFF94 Energy>
48.333

$$$$
Compound 875
Actelion Java MolfileCreator 2.0

  0  0  0  0  0  0              0 V3000
M  V30 BEGIN CTAB
M  V30 COUNTS 27 28 0 0 0
M  V30 BEGIN ATOM
M  V30 1 N 3.7106 0.4731 0.3153 0 CHG=1
M  V30 2 C 3.6936 -0.8802 0.179 0
M  V30 3 C 2.5439 1.1721 0.2961 0
M  V30 4 N 2.5109 -1.5286 0.0241 0
M  V30 5 N 4.9124 -1.6231 0.1979 0
M  V30 6 N 1.3665 0.5153 0.1408 0
M  V30 7 N 2.5497 2.5925 0.4382 0
M  V30 8 C 1.345 -0.8357 0.0044 0
M  V30 9 N 0.1112 -1.5452 -0.1604 0 CHG=-1
M  V30 10 C -1.1991 -0.9674 -0.2027 0
M  V30 11 N -1.3808 0.3733 -0.0827 0
M  V30 12 N -2.2756 -1.7764 -0.3655 0
M  V30 13 C -2.6291 0.9045 -0.1249 0
M  V30 14 C -3.528 -1.254 -0.4089 0
M  V30 15 N -3.7056 0.0893 -0.2884 0 CHG=1
M  V30 16 N -2.8035 2.3155 0.0025 0
M  V30 17 N -4.6511 -2.1182 -0.5807 0
M  V30 18 H 4.619 0.9754 0.4348 0
M  V30 19 H 5.8302 -1.1397 0.3162 0
M  V30 20 H 4.8979 -2.6618 0.0933 0
M  V30 21 H 1.6527 3.1269 0.4233 0
M  V30 22 H 3.4466 3.1132 0.5586 0
M  V30 23 H -4.6682 0.4947 -0.3213 0
M  V30 24 H -1.9756 2.9393 0.128 0
M  V30 25 H -3.7568 2.7404 -0.0277 0
M  V30 26 H -4.5136 -3.149 -0.6731 0
M  V30 27 H -5.6209 -1.7326 -0.6162 0
M  V30 END ATOM
M  V30 BEGIN BOND
M  V30 1 2 1 2
M  V30 2 1 1 3
M  V30 3 1 2 4
M  V30 4 1 2 5
M  V30 5 2 3 6
M  V30 6 1 3 7
M  V30 7 2 4 8
M  V30 8 1 8 9
M  V30 9 1 9 10
M  V30 10 2 10 11
M  V30 11 1 10 12
M  V30 12 1 11 13
M  V30 13 2 12 14
M  V30 14 2 13 15
M  V30 15 1 13 16
M  V30 16 1 14 17
M  V30 17 1 6 8
M  V30 18 1 14 15
M  V30 19 1 1 18
M  V30 20 1 5 19
M  V30 21 1 5 20
M  V30 22 1 7 21
M  V30 23 1 7 22
M  V30 24 1 15 23
M  V30 25 1 16 24
M  V30 26 1 16 25
M  V30 27 1 17 26
M  V30 28 1 17 27
M  V30 END BOND
M  V30 END CTAB
M  END
>  <Structure No>
875

>  <LogS>
-4.225336978

>  <MMFF94 Energy>
-420.15

$$$$
Compound 876
Actelion Java MolfileCreator 2.0

  0  0  0  0  0  0              0 V3000
M  V30 BEGIN CTAB
M  V30 COUNTS 43 42 0 0 0
M  V30 BEGIN ATOM
M  V30 1 S -0.1616 -0.0808 0.6466 0
M  V30 2 C 0.1336 -1.4915 -0.4736 0
M  V30 3 C 1.4208 0.7652 0.3113 0
M  V30 4 S -1.3841 -2.5006 -0.595 0
M  V30 5 C 2.5529 0.0369 0.9575 0
M  V30 6 C -2.0883 -1.6743 -2.0663 0
M  V30 7 O 2.7357 0.1446 2.2008 0
M  V30 8 O 3.3754 -0.7847 0.1784 0
M  V30 9 C -2.5242 -0.2836 -1.7389 0
M  V30 10 C 4.5039 -1.4934 0.6902 0
M  V30 11 O -1.9854 0.6966 -2.3218 0
M  V30 12 O -3.5172 -0.0832 -0.7763 0
M  V30 13 C 5.7968 -0.6989 0.4785 0
M  V30 14 C -3.9436 1.2141 -0.3716 0
M  V30 15 C 5.8557 0.5665 1.3429 0
M  V30 16 C -5.0225 1.0988 0.7047 0
M  V30 17 C 7.1987 1.2743 1.1906 0
M  V30 18 C -6.2979 0.4442 0.1592 0
M  V30 19 C -7.3733 0.3514 1.2378 0
M  V30 20 H 0.9345 -2.1282 -0.0452 0
M  V30 21 H 0.4618 -1.1425 -1.4749 0
M  V30 22 H 1.5914 0.8519 -0.7824 0
M  V30 23 H 1.3651 1.7936 0.7263 0
M  V30 24 H -2.9744 -2.2529 -2.4007 0
M  V30 25 H -1.3505 -1.6741 -2.897 0
M  V30 26 H 4.5909 -2.447 0.1281 0
M  V30 27 H 4.3672 -1.7567 1.762 0
M  V30 28 H 5.8844 -0.4243 -0.5951 0
M  V30 29 H 6.655 -1.357 0.7367 0
M  V30 30 H -3.077 1.7721 0.0455 0
M  V30 31 H -4.3384 1.7746 -1.2471 0
M  V30 32 H 5.0525 1.2702 1.0372 0
M  V30 33 H 5.709 0.3002 2.4125 0
M  V30 34 H -4.6254 0.5021 1.555 0
M  V30 35 H -5.2619 2.1187 1.0776 0
M  V30 36 H 7.3583 1.5734 0.1326 0
M  V30 37 H 8.0266 0.6073 1.5127 0
M  V30 38 H 7.2118 2.1868 1.8234 0
M  V30 39 H -6.0701 -0.58 -0.2074 0
M  V30 40 H -6.6922 1.0429 -0.6905 0
M  V30 41 H -7.6386 1.3648 1.6073 0
M  V30 42 H -8.2844 -0.1212 0.8145 0
M  V30 43 H -7.0145 -0.2669 2.0878 0
M  V30 END ATOM
M  V30 BEGIN BOND
M  V30 1 1 1 2
M  V30 2 1 1 3
M  V30 3 1 2 4
M  V30 4 1 3 5
M  V30 5 1 4 6
M  V30 6 2 5 7
M  V30 7 1 5 8
M  V30 8 1 6 9
M  V30 9 1 8 10
M  V30 10 2 9 11
M  V30 11 1 9 12
M  V30 12 1 10 13
M  V30 13 1 12 14
M  V30 14 1 13 15
M  V30 15 1 14 16
M  V30 16 1 15 17
M  V30 17 1 16 18
M  V30 18 1 18 19
M  V30 19 1 2 20
M  V30 20 1 2 21
M  V30 21 1 3 22
M  V30 22 1 3 23
M  V30 23 1 6 24
M  V30 24 1 6 25
M  V30 25 1 10 26
M  V30 26 1 10 27
M  V30 27 1 13 28
M  V30 28 1 13 29
M  V30 29 1 14 30
M  V30 30 1 14 31
M  V30 31 1 15 32
M  V30 32 1 15 33
M  V30 33 1 16 34
M  V30 34 1 16 35
M  V30 35 1 17 36
M  V30 36 1 17 37
M  V30 37 1 17 38
M  V30 38 1 18 39
M  V30 39 1 18 40
M  V30 40 1 19 41
M  V30 41 1 19 42
M  V30 42 1 19 43
M  V30 END BOND
M  V30 END CTAB
M  END
>  <Structure No>
876

>  <LogS>
-4.343077858

>  <MMFF94 Energy>
15.792

$$$$
Compound 877
Actelion Java MolfileCreator 2.0

  0  0  0  0  0  0              0 V3000
M  V30 BEGIN CTAB
M  V30 COUNTS 38 39 0 0 0
M  V30 BEGIN ATOM
M  V30 1 O 2.2433 -1.6821 0.6405 0
M  V30 2 C 2.178 -1.0924 -0.4735 0
M  V30 3 O 3.2519 -1.1515 -1.3666 0
M  V30 4 C 0.96 -0.2786 -0.8443 0 CFG=2
M  V30 5 C 4.4494 -1.8622 -1.0785 0
M  V30 6 C 0.9772 1.168 -0.2452 0 CFG=1
M  V30 7 C -0.3801 -0.9974 -0.4554 0
M  V30 8 C -0.2891 1.8531 -0.7453 0
M  V30 9 C 0.8343 1.0705 1.2993 0
M  V30 10 C 2.2267 1.9663 -0.6501 0
M  V30 11 C -1.3001 -0.0467 0.384 0 CFG=2
M  V30 12 C -1.4434 1.24 -0.4263 0
M  V30 13 C -0.4843 0.3255 1.6695 0
M  V30 14 C -2.6748 -0.7229 0.7377 0
M  V30 15 C -3.58 0.1625 1.6187 0
M  V30 16 C -3.4653 -1.1786 -0.5058 0
M  V30 17 H 0.9739 -0.1784 -1.9542 0
M  V30 18 H 4.2244 -2.9382 -0.9207 0
M  V30 19 H 4.9313 -1.4419 -0.1705 0
M  V30 20 H 5.1472 -1.7624 -1.9348 0
M  V30 21 H -0.886 -1.2866 -1.4002 0
M  V30 22 H -0.2022 -1.9378 0.1106 0
M  V30 23 H -0.2762 2.7741 -1.3204 0
M  V30 24 H 0.8123 2.0953 1.7336 0
M  V30 25 H 1.7075 0.5537 1.75 0
M  V30 26 H 3.1426 1.5024 -0.227 0
M  V30 27 H 2.1595 3.0084 -0.2702 0
M  V30 28 H 2.3223 1.9988 -1.7565 0
M  V30 29 H -2.3983 1.6501 -0.7365 0
M  V30 30 H -1.0724 0.9966 2.3286 0
M  V30 31 H -0.2482 -0.5928 2.2505 0
M  V30 32 H -2.4565 -1.6403 1.3287 0
M  V30 33 H -3.7458 1.1578 1.1578 0
M  V30 34 H -4.5697 -0.3196 1.7678 0
M  V30 35 H -3.1469 0.2925 2.6306 0
M  V30 36 H -3.6166 -0.3416 -1.218 0
M  V30 37 H -4.4628 -1.5691 -0.2115 0
M  V30 38 H -2.9485 -2.0128 -1.0213 0
M  V30 END ATOM
M  V30 BEGIN BOND
M  V30 1 2 1 2
M  V30 2 1 2 3
M  V30 3 1 2 4
M  V30 4 1 3 5
M  V30 5 1 4 6
M  V30 6 1 4 7
M  V30 7 1 6 8
M  V30 8 1 6 9
M  V30 9 1 6 10
M  V30 10 1 7 11
M  V30 11 2 8 12
M  V30 12 1 9 13
M  V30 13 1 11 14
M  V30 14 1 14 15
M  V30 15 1 14 16
M  V30 16 1 11 12
M  V30 17 1 11 13
M  V30 18 1 4 17
M  V30 19 1 5 18
M  V30 20 1 5 19
M  V30 21 1 5 20
M  V30 22 1 7 21
M  V30 23 1 7 22
M  V30 24 1 8 23
M  V30 25 1 9 24
M  V30 26 1 9 25
M  V30 27 1 10 26
M  V30 28 1 10 27
M  V30 29 1 10 28
M  V30 30 1 12 29
M  V30 31 1 13 30
M  V30 32 1 13 31
M  V30 33 1 14 32
M  V30 34 1 15 33
M  V30 35 1 15 34
M  V30 36 1 15 35
M  V30 37 1 16 36
M  V30 38 1 16 37
M  V30 39 1 16 38
M  V30 END BOND
M  V30 BEGIN COLLECTION
M  V30 MDLV30/STEABS ATOMS=(3 4 6 11)
M  V30 END COLLECTION
M  V30 END CTAB
M  END
>  <Structure No>
877

>  <LogS>
-4.200866126

>  <MMFF94 Energy>
43.062

$$$$
Compound 878
Actelion Java MolfileCreator 2.0

  0  0  0  0  0  0              0 V3000
M  V30 BEGIN CTAB
M  V30 COUNTS 21 21 0 0 0
M  V30 BEGIN ATOM
M  V30 1 C 0.8629 0.2352 0.4706 0
M  V30 2 C -0.0208 1.3283 -0.1832 0
M  V30 3 C 0.5386 -1.1552 -0.1041 0
M  V30 4 C 2.3511 0.5623 0.3044 0
M  V30 5 C -1.4171 0.8214 -0.6012 0
M  V30 6 C -0.9282 -1.5539 0.1623 0
M  V30 7 C -1.8843 -0.3488 0.2696 0
M  V30 8 H 0.6459 0.2137 1.5628 0
M  V30 9 H 0.4775 1.7434 -1.0872 0
M  V30 10 H -0.1377 2.1662 0.5388 0
M  V30 11 H 1.2087 -1.9211 0.3442 0
M  V30 12 H 0.7227 -1.1484 -1.2017 0
M  V30 13 H 2.6363 0.5584 -0.7695 0
M  V30 14 H 2.9699 -0.1876 0.8418 0
M  V30 15 H 2.5704 1.5642 0.7317 0
M  V30 16 H -2.1509 1.6534 -0.5312 0
M  V30 17 H -1.3883 0.4887 -1.6624 0
M  V30 18 H -1.2694 -2.2228 -0.6576 0
M  V30 19 H -0.9861 -2.1361 1.1078 0
M  V30 20 H -1.9404 -0.0109 1.328 0
M  V30 21 H -2.9065 -0.6577 -0.0383 0
M  V30 END ATOM
M  V30 BEGIN BOND
M  V30 1 1 1 2
M  V30 2 1 1 3
M  V30 3 1 1 4
M  V30 4 1 2 5
M  V30 5 1 3 6
M  V30 6 1 5 7
M  V30 7 1 6 7
M  V30 8 1 1 8
M  V30 9 1 2 9
M  V30 10 1 2 10
M  V30 11 1 3 11
M  V30 12 1 3 12
M  V30 13 1 4 13
M  V30 14 1 4 14
M  V30 15 1 4 15
M  V30 16 1 5 16
M  V30 17 1 5 17
M  V30 18 1 6 18
M  V30 19 1 6 19
M  V30 20 1 7 20
M  V30 21 1 7 21
M  V30 END BOND
M  V30 END CTAB
M  END
>  <Structure No>
878

>  <LogS>
-3.845934801

>  <MMFF94 Energy>
0.69824

$$$$
Compound 879
Actelion Java MolfileCreator 2.0

  0  0  0  0  0  0              0 V3000
M  V30 BEGIN CTAB
M  V30 COUNTS 23 23 0 0 0
M  V30 BEGIN ATOM
M  V30 1 O -1.5691 -1.4121 0.392 0
M  V30 2 O -2.8919 -1.4032 0.4059 0
M  V30 3 C -1.1069 -0.1109 0.0537 0
M  V30 4 C 0.4285 -0.1186 0.0312 0
M  V30 5 C -1.6248 0.2856 -1.3497 0
M  V30 6 C -1.589 0.9062 1.116 0
M  V30 7 C 1.1636 -1.2974 0.2957 0
M  V30 8 C 1.1502 1.061 -0.2626 0
M  V30 9 C 2.5614 -1.2899 0.2695 0
M  V30 10 C 2.5476 1.0597 -0.2868 0
M  V30 11 C 3.2524 -0.1137 -0.0207 0
M  V30 12 H -3.1564 -1.9912 -0.3471 0
M  V30 13 H -1.2958 -0.4632 -2.1019 0
M  V30 14 H -1.2483 1.2837 -1.6562 0
M  V30 15 H -2.734 0.3377 -1.3687 0
M  V30 16 H -2.6981 0.9488 1.1565 0
M  V30 17 H -1.2136 0.6141 2.1203 0
M  V30 18 H -1.2333 1.9329 0.8897 0
M  V30 19 H 0.6687 -2.2317 0.5239 0
M  V30 20 H 0.6371 1.9888 -0.476 0
M  V30 21 H 3.1101 -2.2002 0.4747 0
M  V30 22 H 3.0848 1.9718 -0.5131 0
M  V30 23 H 4.3347 -0.1119 -0.0403 0
M  V30 END ATOM
M  V30 BEGIN BOND
M  V30 1 1 1 2
M  V30 2 1 1 3
M  V30 3 1 3 4
M  V30 4 1 3 5
M  V30 5 1 3 6
M  V30 6 2 4 7
M  V30 7 1 4 8
M  V30 8 1 7 9
M  V30 9 2 8 10
M  V30 10 2 9 11
M  V30 11 1 10 11
M  V30 12 1 2 12
M  V30 13 1 5 13
M  V30 14 1 5 14
M  V30 15 1 5 15
M  V30 16 1 6 16
M  V30 17 1 6 17
M  V30 18 1 6 18
M  V30 19 1 7 19
M  V30 20 1 8 20
M  V30 21 1 9 21
M  V30 22 1 10 22
M  V30 23 1 11 23
M  V30 END BOND
M  V30 END CTAB
M  END
>  <Structure No>
879

>  <LogS>
-1.039379878

>  <MMFF94 Energy>
54.112

$$$$
Compound 880
Actelion Java MolfileCreator 2.0

  0  0  0  0  0  0              0 V3000
M  V30 BEGIN CTAB
M  V30 COUNTS 38 41 0 0 0
M  V30 BEGIN ATOM
M  V30 1 O -0.1627 1.0581 1.7911 0
M  V30 2 C -0.7702 0.8306 0.7093 0
M  V30 3 O -0.1168 0.9692 -0.5222 0
M  V30 4 C -2.2107 0.4038 0.7417 0 CFG=1
M  V30 5 C 1.2664 1.2954 -0.659 0
M  V30 6 C -3.0982 1.4677 0.0725 0
M  V30 7 C -2.3826 -0.9458 0.0366 0
M  V30 8 C 2.0962 0.0484 -1.0311 0 CFG=2
M  V30 9 C -4.5506 1.0198 -0.1588 0 CFG=2
M  V30 10 C -3.808 -1.4704 0.2239 0
M  V30 11 C 2.0468 -1.0279 0.0798 0
M  V30 12 C 3.5567 0.4561 -1.4096 0
M  V30 13 O -5.116 0.4204 0.9806 0
M  V30 14 C -4.8855 -0.4321 -0.1241 0 CFG=1
M  V30 15 C 2.9487 -0.6422 1.2585 0 CFG=1
M  V30 16 C 4.6437 -0.2812 -0.611 0
M  V30 17 O 4.0421 -1.5194 1.4137 0
M  V30 18 C 4.3295 -0.2419 0.8892 0 CFG=2
M  V30 19 H -2.5237 0.2941 1.8054 0
M  V30 20 H 1.352 2.0379 -1.4811 0
M  V30 21 H 1.666 1.7775 0.2601 0
M  V30 22 H -2.676 1.7411 -0.9189 0
M  V30 23 H -3.1059 2.3859 0.6987 0
M  V30 24 H -2.1649 -0.8428 -1.05 0
M  V30 25 H -1.6715 -1.6886 0.4606 0
M  V30 26 H 1.6225 -0.3963 -1.935 0
M  V30 27 H -5.2681 1.7033 -0.6588 0
M  V30 28 H -3.9463 -1.8107 1.2738 0
M  V30 29 H -3.9473 -2.3567 -0.4305 0
M  V30 30 H 2.3756 -2.0012 -0.3481 0
M  V30 31 H 1.012 -1.1891 0.4425 0
M  V30 32 H 3.7234 0.2618 -2.4914 0
M  V30 33 H 3.7143 1.5478 -1.2613 0
M  V30 34 H -5.8513 -0.7679 -0.5561 0
M  V30 35 H 2.5426 -0.2703 2.2224 0
M  V30 36 H 5.6271 0.2038 -0.7888 0
M  V30 37 H 4.7204 -1.3318 -0.9692 0
M  V30 38 H 4.8882 0.4056 1.5968 0
M  V30 END ATOM
M  V30 BEGIN BOND
M  V30 1 2 1 2
M  V30 2 1 2 3
M  V30 3 1 2 4
M  V30 4 1 3 5
M  V30 5 1 4 6
M  V30 6 1 4 7
M  V30 7 1 5 8
M  V30 8 1 6 9
M  V30 9 1 7 10
M  V30 10 1 8 11
M  V30 11 1 8 12
M  V30 12 1 9 13
M  V30 13 1 9 14
M  V30 14 1 11 15
M  V30 15 1 12 16
M  V30 16 1 15 17
M  V30 17 1 15 18
M  V30 18 1 10 14
M  V30 19 1 13 14
M  V30 20 1 16 18
M  V30 21 1 17 18
M  V30 22 1 4 19
M  V30 23 1 5 20
M  V30 24 1 5 21
M  V30 25 1 6 22
M  V30 26 1 6 23
M  V30 27 1 7 24
M  V30 28 1 7 25
M  V30 29 1 8 26
M  V30 30 1 9 27
M  V30 31 1 10 28
M  V30 32 1 10 29
M  V30 33 1 11 30
M  V30 34 1 11 31
M  V30 35 1 12 32
M  V30 36 1 12 33
M  V30 37 1 14 34
M  V30 38 1 15 35
M  V30 39 1 16 36
M  V30 40 1 16 37
M  V30 41 1 18 38
M  V30 END BOND
M  V30 BEGIN COLLECTION
M  V30 MDLV30/STEABS ATOMS=(6 4 8 9 14 15 18)
M  V30 END COLLECTION
M  V30 END CTAB
M  END
>  <Structure No>
880

>  <LogS>
-1.26048469

>  <MMFF94 Energy>
16.472

$$$$
Compound 881
Actelion Java MolfileCreator 2.0

  0  0  0  0  0  0              0 V3000
M  V30 BEGIN CTAB
M  V30 COUNTS 12 11 0 0 0
M  V30 BEGIN ATOM
M  V30 1 O 0.0 0.8479 0.9251 0
M  V30 2 C -0.0093 -0.0133 0.0018 0
M  V30 3 O -1.218 -0.4786 -0.5214 0
M  V30 4 O 1.1888 -0.5152 -0.5114 0
M  V30 5 C -2.482 -0.0201 -0.0562 0
M  V30 6 C 2.4621 -0.0955 -0.0355 0
M  V30 7 H -3.2867 -0.5328 -0.6221 0
M  V30 8 H -2.597 -0.2529 1.0237 0
M  V30 9 H -2.5716 1.0753 -0.2158 0
M  V30 10 H 2.5864 0.9967 -0.1941 0
M  V30 11 H 3.2555 -0.6325 -0.5946 0
M  V30 12 H 2.561 -0.3315 1.0453 0
M  V30 END ATOM
M  V30 BEGIN BOND
M  V30 1 2 1 2
M  V30 2 1 2 3
M  V30 3 1 2 4
M  V30 4 1 3 5
M  V30 5 1 4 6
M  V30 6 1 5 7
M  V30 7 1 5 8
M  V30 8 1 5 9
M  V30 9 1 6 10
M  V30 10 1 6 11
M  V30 11 1 6 12
M  V30 END BOND
M  V30 END CTAB
M  END
>  <Structure No>
881

>  <LogS>
0.185260351

>  <MMFF94 Energy>
-30.721

$$$$
Compound 882
Actelion Java MolfileCreator 2.0

  0  0  0  0  0  0              0 V3000
M  V30 BEGIN CTAB
M  V30 COUNTS 28 28 0 0 0
M  V30 BEGIN ATOM
M  V30 1 O -1.6598 -0.553 1.818 0
M  V30 2 C -1.8815 -0.1051 0.6593 0
M  V30 3 O -0.8227 0.3693 -0.1266 0
M  V30 4 C -3.2655 -0.0732 0.1369 0
M  V30 5 C 0.5459 0.3272 0.2795 0
M  V30 6 C -3.5284 0.4707 -1.0564 0
M  V30 7 C -4.3946 -0.589 0.9876 0
M  V30 8 C 1.094 -1.1054 0.1659 0
M  V30 9 C 1.3631 1.3011 -0.5987 0
M  V30 10 C 2.5555 -1.1968 0.6516 0
M  V30 11 C 2.8486 0.9083 -0.7423 0
M  V30 12 C 3.3475 0.1131 0.4678 0
M  V30 13 H 0.6253 0.6617 1.3393 0
M  V30 14 H -2.7409 0.8737 -1.6806 0
M  V30 15 H -4.5426 0.5257 -1.4325 0
M  V30 16 H -4.0915 -1.5264 1.4999 0
M  V30 17 H -5.2964 -0.8146 0.3783 0
M  V30 18 H -4.6585 0.1721 1.7515 0
M  V30 19 H 0.4695 -1.8049 0.7617 0
M  V30 20 H 1.0363 -1.4302 -0.8965 0
M  V30 21 H 0.9171 1.3557 -1.6162 0
M  V30 22 H 1.2935 2.3191 -0.1564 0
M  V30 23 H 3.0635 -2.0156 0.0968 0
M  V30 24 H 2.5695 -1.4706 1.7293 0
M  V30 25 H 2.9816 0.2897 -1.6572 0
M  V30 26 H 3.4653 1.8249 -0.8654 0
M  V30 27 H 3.2439 0.7417 1.3799 0
M  V30 28 H 4.4268 -0.1199 0.3417 0
M  V30 END ATOM
M  V30 BEGIN BOND
M  V30 1 2 1 2
M  V30 2 1 2 3
M  V30 3 1 2 4
M  V30 4 1 3 5
M  V30 5 2 4 6
M  V30 6 1 4 7
M  V30 7 1 5 8
M  V30 8 1 5 9
M  V30 9 1 8 10
M  V30 10 1 9 11
M  V30 11 1 10 12
M  V30 12 1 11 12
M  V30 13 1 5 13
M  V30 14 1 6 14
M  V30 15 1 6 15
M  V30 16 1 7 16
M  V30 17 1 7 17
M  V30 18 1 7 18
M  V30 19 1 8 19
M  V30 20 1 8 20
M  V30 21 1 9 21
M  V30 22 1 9 22
M  V30 23 1 10 23
M  V30 24 1 10 24
M  V30 25 1 11 25
M  V30 26 1 11 26
M  V30 27 1 12 27
M  V30 28 1 12 28
M  V30 END BOND
M  V30 END CTAB
M  END
>  <Structure No>
882

>  <LogS>
-3.088564823

>  <MMFF94 Energy>
3.8886

$$$$
Compound 883
Actelion Java MolfileCreator 2.0

  0  0  0  0  0  0              0 V3000
M  V30 BEGIN CTAB
M  V30 COUNTS 27 27 0 0 0
M  V30 BEGIN ATOM
M  V30 1 O 1.9664 0.1572 -2.8326 0
M  V30 2 C 1.7798 -0.3752 -1.7044 0
M  V30 3 O 1.0393 0.2821 -0.7187 0
M  V30 4 C 2.3932 -1.7036 -1.3976 0
M  V30 5 C 0.4329 1.5536 -0.9308 0
M  V30 6 C 3.7327 -1.5246 -0.6936 0
M  V30 7 C -0.3105 1.9945 0.3289 0
M  V30 8 C -1.4367 1.0487 0.6544 0
M  V30 9 C -2.6953 1.2124 0.0516 0
M  V30 10 C -1.2246 -0.037 1.5209 0
M  V30 11 C -3.731 0.3143 0.3285 0
M  V30 12 C -2.2628 -0.9329 1.7945 0
M  V30 13 C -3.5154 -0.7563 1.2003 0
M  V30 14 H 2.542 -2.278 -2.3375 0
M  V30 15 H 1.7067 -2.282 -0.7427 0
M  V30 16 H 1.2192 2.3029 -1.1677 0
M  V30 17 H -0.2748 1.4972 -1.7869 0
M  V30 18 H 3.5959 -0.9746 0.2621 0
M  V30 19 H 4.4375 -0.9625 -1.3431 0
M  V30 20 H 4.1712 -2.52 -0.471 0
M  V30 21 H -0.7138 3.019 0.1732 0
M  V30 22 H 0.4042 2.0508 1.179 0
M  V30 23 H -2.8725 2.033 -0.6326 0
M  V30 24 H -0.2562 -0.1907 1.9808 0
M  V30 25 H -4.6997 0.4467 -0.1357 0
M  V30 26 H -2.0952 -1.7662 2.4646 0
M  V30 27 H -4.3176 -1.4513 1.4122 0
M  V30 END ATOM
M  V30 BEGIN BOND
M  V30 1 2 1 2
M  V30 2 1 2 3
M  V30 3 1 2 4
M  V30 4 1 3 5
M  V30 5 1 4 6
M  V30 6 1 5 7
M  V30 7 1 7 8
M  V30 8 2 8 9
M  V30 9 1 8 10
M  V30 10 1 9 11
M  V30 11 2 10 12
M  V30 12 2 11 13
M  V30 13 1 12 13
M  V30 14 1 4 14
M  V30 15 1 4 15
M  V30 16 1 5 16
M  V30 17 1 5 17
M  V30 18 1 6 18
M  V30 19 1 6 19
M  V30 20 1 6 20
M  V30 21 1 7 21
M  V30 22 1 7 22
M  V30 23 1 9 23
M  V30 24 1 10 24
M  V30 25 1 11 25
M  V30 26 1 12 26
M  V30 27 1 13 27
M  V30 END BOND
M  V30 END CTAB
M  END
>  <Structure No>
883

>  <LogS>
-3.117444335

>  <MMFF94 Energy>
14.41

$$$$
Compound 884
Actelion Java MolfileCreator 2.0

  0  0  0  0  0  0              0 V3000
M  V30 BEGIN CTAB
M  V30 COUNTS 27 27 0 0 0
M  V30 BEGIN ATOM
M  V30 1 O 1.7303 0.9435 2.0451 0
M  V30 2 C 1.4488 0.0824 1.1673 0
M  V30 3 O 0.193 0.0725 0.5541 0
M  V30 4 C 2.4828 -0.9094 0.7398 0
M  V30 5 C -0.8309 1.0036 0.8856 0
M  V30 6 C 3.2394 -0.3954 -0.4877 0
M  V30 7 C -2.042 0.7265 0.0444 0
M  V30 8 C 4.2946 -1.3983 -0.9441 0
M  V30 9 C -2.1701 1.3128 -1.2256 0
M  V30 10 C -3.0238 -0.1737 0.4902 0
M  V30 11 C -3.2808 1.0241 -2.0251 0
M  V30 12 C -4.133 -0.4595 -0.3123 0
M  V30 13 C -4.2626 0.1407 -1.5677 0
M  V30 14 H 3.194 -1.0886 1.5759 0
M  V30 15 H 1.9811 -1.8715 0.4981 0
M  V30 16 H -1.0846 0.9136 1.9648 0
M  V30 17 H -0.4692 2.0396 0.7036 0
M  V30 18 H 2.5252 -0.2197 -1.3222 0
M  V30 19 H 3.7396 0.5675 -0.2436 0
M  V30 20 H 3.8169 -2.3631 -1.2184 0
M  V30 21 H 5.0364 -1.5727 -0.1356 0
M  V30 22 H 4.8261 -0.9997 -1.8338 0
M  V30 23 H -1.4114 1.9911 -1.5957 0
M  V30 24 H -2.9304 -0.6532 1.4567 0
M  V30 25 H -3.3783 1.4825 -3.0008 0
M  V30 26 H -4.8899 -1.1495 0.0375 0
M  V30 27 H -5.1209 -0.0826 -2.1883 0
M  V30 END ATOM
M  V30 BEGIN BOND
M  V30 1 2 1 2
M  V30 2 1 2 3
M  V30 3 1 2 4
M  V30 4 1 3 5
M  V30 5 1 4 6
M  V30 6 1 5 7
M  V30 7 1 6 8
M  V30 8 2 7 9
M  V30 9 1 7 10
M  V30 10 1 9 11
M  V30 11 2 10 12
M  V30 12 2 11 13
M  V30 13 1 12 13
M  V30 14 1 4 14
M  V30 15 1 4 15
M  V30 16 1 5 16
M  V30 17 1 5 17
M  V30 18 1 6 18
M  V30 19 1 6 19
M  V30 20 1 8 20
M  V30 21 1 8 21
M  V30 22 1 8 22
M  V30 23 1 9 23
M  V30 24 1 10 24
M  V30 25 1 11 25
M  V30 26 1 12 26
M  V30 27 1 13 27
M  V30 END BOND
M  V30 END CTAB
M  END
>  <Structure No>
884

>  <LogS>
-3.117444335

>  <MMFF94 Energy>
6.8201

$$$$
Compound 885
Actelion Java MolfileCreator 2.0

  0  0  0  0  0  0              0 V3000
M  V30 BEGIN CTAB
M  V30 COUNTS 24 24 0 0 0
M  V30 BEGIN ATOM
M  V30 1 S 2.5576 1.732 -0.742 0
M  V30 2 O 3.276 2.3376 0.4307 0
M  V30 3 O 1.6895 2.7844 -1.3735 0
M  V30 4 O 3.6729 1.2035 -1.8818 0 CHG=-1
M  V30 5 C 1.5765 0.3647 -0.1949 0
M  V30 6 C 2.162 -0.7808 0.3955 0
M  V30 7 C 0.1821 0.4172 -0.3625 0
M  V30 8 N 3.5779 -0.8899 0.5987 0
M  V30 9 C 1.3401 -1.8464 0.7904 0
M  V30 10 C -0.6358 -0.6443 0.0598 0
M  V30 11 C -0.0426 -1.7821 0.6174 0
M  V30 12 N -2.0618 -0.6126 -0.1246 0
M  V30 13 C -2.8597 0.5775 -0.029 0
M  V30 14 O -2.3823 1.6343 0.4658 0
M  V30 15 C -4.2991 0.5415 -0.4273 0
M  V30 16 H -0.2651 1.274 -0.8466 0
M  V30 17 H 3.9848 -1.751 1.0276 0
M  V30 18 H 4.2429 -0.1298 0.3417 0
M  V30 19 H 1.7742 -2.7331 1.2355 0
M  V30 20 H -0.6561 -2.6179 0.9301 0
M  V30 21 H -2.5616 -1.522 -0.2517 0
M  V30 22 H -4.4245 -0.0839 -1.3359 0
M  V30 23 H -4.6648 1.5668 -0.6484 0
M  V30 24 H -4.9006 0.1101 0.3994 0
M  V30 END ATOM
M  V30 BEGIN BOND
M  V30 1 2 1 2
M  V30 2 2 1 3
M  V30 3 1 1 4
M  V30 4 1 1 5
M  V30 5 2 5 6
M  V30 6 1 5 7
M  V30 7 1 6 8
M  V30 8 1 6 9
M  V30 9 2 7 10
M  V30 10 2 9 11
M  V30 11 1 10 12
M  V30 12 1 12 13
M  V30 13 2 13 14
M  V30 14 1 13 15
M  V30 15 1 10 11
M  V30 16 1 7 16
M  V30 17 1 8 17
M  V30 18 1 8 18
M  V30 19 1 9 19
M  V30 20 1 11 20
M  V30 21 1 12 21
M  V30 22 1 15 22
M  V30 23 1 15 23
M  V30 24 1 15 24
M  V30 END BOND
M  V30 END CTAB
M  END
>  <Structure No>
885

>  <LogS>
-1.231856439

>  <MMFF94 Energy>
38.538

$$$$
Compound 886
Actelion Java MolfileCreator 2.0

  0  0  0  0  0  0              0 V3000
M  V30 BEGIN CTAB
M  V30 COUNTS 8 7 0 0 0
M  V30 BEGIN ATOM
M  V30 1 S 0.8789 -0.0878 0.2636 0
M  V30 2 O 0.4251 -0.4168 1.6584 0
M  V30 3 O 0.9467 -1.3455 -0.5568 0
M  V30 4 O -0.1826 1.0271 -0.4536 0
M  V30 5 O 2.4109 0.5958 0.3378 0 CHG=-1
M  V30 6 N -1.4214 0.4586 -0.5071 0
M  V30 7 H -1.7565 0.2403 0.4599 0
M  V30 8 H -1.3914 -0.4095 -1.0904 0
M  V30 END ATOM
M  V30 BEGIN BOND
M  V30 1 2 1 2
M  V30 2 2 1 3
M  V30 3 1 1 4
M  V30 4 1 1 5
M  V30 5 1 4 6
M  V30 6 1 6 7
M  V30 7 1 6 8
M  V30 END BOND
M  V30 END CTAB
M  END
>  <Structure No>
886

>  <LogS>
0.07528272

>  <MMFF94 Energy>
82.736

$$$$
Compound 887
Actelion Java MolfileCreator 2.0

  0  0  0  0  0  0              0 V3000
M  V30 BEGIN CTAB
M  V30 COUNTS 25 24 0 0 0
M  V30 BEGIN ATOM
M  V30 1 O 3.0318 -1.2429 0.3882 0
M  V30 2 C 2.7914 -0.0132 0.2326 0
M  V30 3 O 1.5161 0.4971 0.485 0
M  V30 4 O 3.7965 0.8571 -0.1947 0
M  V30 5 C 0.4334 -0.3199 0.9219 0
M  V30 6 C 5.121 0.42 -0.4744 0
M  V30 7 C -0.821 0.5322 1.1093 0
M  V30 8 C -1.267 1.1438 -0.1953 0
M  V30 9 C -2.0647 0.5352 -1.0925 0
M  V30 10 C -2.7077 -0.8131 -0.8915 0
M  V30 11 C -4.0432 -0.6757 -0.1673 0
M  V30 12 H 0.246 -1.1236 0.1778 0
M  V30 13 H 0.6962 -0.7916 1.8936 0
M  V30 14 H 5.7316 1.2889 -0.795 0
M  V30 15 H 5.5758 -0.0226 0.4368 0
M  V30 16 H 5.1087 -0.3321 -1.2913 0
M  V30 17 H -1.6292 -0.0765 1.5646 0
M  V30 18 H -0.5909 1.3511 1.8244 0
M  V30 19 H -0.8893 2.1332 -0.4372 0
M  V30 20 H -2.294 1.065 -2.0126 0
M  V30 21 H -2.8931 -1.2671 -1.8884 0
M  V30 22 H -2.0415 -1.5042 -0.3356 0
M  V30 23 H -4.5024 -1.6787 -0.0422 0
M  V30 24 H -4.7362 -0.0394 -0.7584 0
M  V30 25 H -3.9026 -0.2228 0.8362 0
M  V30 END ATOM
M  V30 BEGIN BOND
M  V30 1 2 1 2
M  V30 2 1 2 3
M  V30 3 1 2 4
M  V30 4 1 3 5
M  V30 5 1 4 6
M  V30 6 1 5 7
M  V30 7 1 7 8
M  V30 8 2 8 9
M  V30 9 1 9 10
M  V30 10 1 10 11
M  V30 11 1 5 12
M  V30 12 1 5 13
M  V30 13 1 6 14
M  V30 14 1 6 15
M  V30 15 1 6 16
M  V30 16 1 7 17
M  V30 17 1 7 18
M  V30 18 1 8 19
M  V30 19 1 9 20
M  V30 20 1 10 21
M  V30 21 1 10 22
M  V30 22 1 11 23
M  V30 23 1 11 24
M  V30 24 1 11 25
M  V30 END BOND
M  V30 END CTAB
M  END
>  <Structure No>
887

>  <LogS>
-3.069830648

>  <MMFF94 Energy>
-18.597

$$$$
Compound 888
Actelion Java MolfileCreator 2.0

  0  0  0  0  0  0              0 V3000
M  V30 BEGIN CTAB
M  V30 COUNTS 17 18 0 0 0
M  V30 BEGIN ATOM
M  V30 1 C 1.2831 -0.5612 0.8017 0
M  V30 2 C 1.5471 0.4347 -0.0453 0
M  V30 3 C -0.0968 -1.0659 0.467 0 CFG=2
M  V30 4 C 0.3403 0.5831 -0.9358 0 CFG=1
M  V30 5 C -0.0863 -0.8686 -1.0363 0
M  V30 6 C -1.1023 0.0181 0.907 0
M  V30 7 C -0.796 1.1731 -0.0757 0
M  V30 8 H 1.9759 -0.9777 1.525 0
M  V30 9 H 2.4907 0.9636 -0.1266 0
M  V30 10 H -0.3199 -2.0954 0.8185 0
M  V30 11 H 0.5274 1.1005 -1.9004 0
M  V30 12 H 0.6649 -1.5097 -1.5557 0
M  V30 13 H -1.0874 -1.0048 -1.5085 0
M  V30 14 H -2.1463 -0.3433 0.7777 0
M  V30 15 H -0.941 0.3231 1.9647 0
M  V30 16 H -1.6838 1.4006 -0.706 0
M  V30 17 H -0.4716 2.0935 0.4584 0
M  V30 END ATOM
M  V30 BEGIN BOND
M  V30 1 2 1 2
M  V30 2 1 1 3
M  V30 3 1 2 4
M  V30 4 1 3 5
M  V30 5 1 3 6
M  V30 6 1 4 7
M  V30 7 1 4 5
M  V30 8 1 6 7
M  V30 9 1 1 8
M  V30 10 1 2 9
M  V30 11 1 3 10
M  V30 12 1 4 11
M  V30 13 1 5 12
M  V30 14 1 5 13
M  V30 15 1 6 14
M  V30 16 1 6 15
M  V30 17 1 7 16
M  V30 18 1 7 17
M  V30 END BOND
M  V30 BEGIN COLLECTION
M  V30 MDLV30/STEABS ATOMS=(2 3 4)
M  V30 END COLLECTION
M  V30 END CTAB
M  END
>  <Structure No>
888

>  <LogS>
-2.847721205

>  <MMFF94 Energy>
34.104

$$$$
Compound 889
Actelion Java MolfileCreator 2.0

  0  0  0  0  0  0              0 V3000
M  V30 BEGIN CTAB
M  V30 COUNTS 20 20 0 0 0
M  V30 BEGIN ATOM
M  V30 1 O -3.2596 0.1588 1.1916 0
M  V30 2 N -2.527 0.9829 0.607 0 CHG=1
M  V30 3 O -3.0093 2.2522 0.3837 0 CHG=-1
M  V30 4 C -1.1458 0.6794 0.3345 0
M  V30 5 C -0.7142 -0.6305 -0.0023 0
M  V30 6 C -0.1983 1.7159 0.391 0
M  V30 7 C 0.6545 -0.8728 -0.2159 0
M  V30 8 C -1.6823 -1.7747 -0.1478 0
M  V30 9 C 1.1541 1.4627 0.1611 0
M  V30 10 C 1.5916 0.1644 -0.1209 0
M  V30 11 C 3.0422 -0.1002 -0.3977 0
M  V30 12 H -0.5052 2.7258 0.6317 0
M  V30 13 H 0.9935 -1.8713 -0.4665 0
M  V30 14 H -2.5668 -1.4576 -0.7395 0
M  V30 15 H -1.2201 -2.6328 -0.6808 0
M  V30 16 H -2.0051 -2.1222 0.8556 0
M  V30 17 H 1.8622 2.2808 0.2115 0
M  V30 18 H 3.2371 0.013 -1.4845 0
M  V30 19 H 3.3188 -1.1296 -0.085 0
M  V30 20 H 3.6854 0.6119 0.1618 0
M  V30 END ATOM
M  V30 BEGIN BOND
M  V30 1 2 1 2
M  V30 2 1 2 3
M  V30 3 1 2 4
M  V30 4 2 4 5
M  V30 5 1 4 6
M  V30 6 1 5 7
M  V30 7 1 5 8
M  V30 8 2 6 9
M  V30 9 2 7 10
M  V30 10 1 10 11
M  V30 11 1 9 10
M  V30 12 1 6 12
M  V30 13 1 7 13
M  V30 14 1 8 14
M  V30 15 1 8 15
M  V30 16 1 8 16
M  V30 17 1 9 17
M  V30 18 1 11 18
M  V30 19 1 11 19
M  V30 20 1 11 20
M  V30 END BOND
M  V30 END CTAB
M  END
>  <Structure No>
889

>  <LogS>
-3.055599607

>  <MMFF94 Energy>
57.025

$$$$
Compound 890
Actelion Java MolfileCreator 2.0

  0  0  0  0  0  0              0 V3000
M  V30 BEGIN CTAB
M  V30 COUNTS 20 21 0 0 0
M  V30 BEGIN ATOM
M  V30 1 S -0.0856 1.9718 0.0 0
M  V30 2 C 0.6668 0.9564 -1.1257 0
M  V30 3 C -1.1894 0.782 0.4286 0
M  V30 4 S 2.0642 1.4388 -2.1363 0
M  V30 5 N 0.0943 -0.2696 -1.1879 0
M  V30 6 C -0.9411 -0.3611 -0.3155 0
M  V30 7 C -2.2175 0.8454 1.3659 0
M  V30 8 C 3.317 0.9249 -0.9132 0
M  V30 9 C -1.7288 -1.5003 -0.1422 0
M  V30 10 C -3.0164 -0.2946 1.5487 0
M  V30 11 C 3.4361 -0.5643 -0.8811 0
M  V30 12 C -2.7731 -1.4625 0.798 0
M  V30 13 O 2.9353 -1.2206 0.0696 0
M  V30 14 O 4.0743 -1.2324 -1.9181 0 CHG=-1
M  V30 15 H -2.3964 1.7467 1.9378 0
M  V30 16 H 3.0614 1.321 0.0934 0
M  V30 17 H 4.2954 1.3565 -1.2101 0
M  V30 18 H -1.5407 -2.3967 -0.7193 0
M  V30 19 H -3.8231 -0.2764 2.27 0
M  V30 20 H -3.3945 -2.3361 0.9464 0
M  V30 END ATOM
M  V30 BEGIN BOND
M  V30 1 1 1 2
M  V30 2 1 1 3
M  V30 3 1 2 4
M  V30 4 2 2 5
M  V30 5 2 3 6
M  V30 6 1 3 7
M  V30 7 1 4 8
M  V30 8 1 6 9
M  V30 9 2 7 10
M  V30 10 1 8 11
M  V30 11 2 9 12
M  V30 12 2 11 13
M  V30 13 1 11 14
M  V30 14 1 5 6
M  V30 15 1 10 12
M  V30 16 1 7 15
M  V30 17 1 8 16
M  V30 18 1 8 17
M  V30 19 1 9 18
M  V30 20 1 10 19
M  V30 21 1 12 20
M  V30 END BOND
M  V30 END CTAB
M  END
>  <Structure No>
890

>  <LogS>
-3.228897985

>  <MMFF94 Energy>
42.462

$$$$
Compound 891
Actelion Java MolfileCreator 2.0

  0  0  0  0  0  0              0 V3000
M  V30 BEGIN CTAB
M  V30 COUNTS 32 32 0 0 0
M  V30 BEGIN ATOM
M  V30 1 O 6.1425 0.1571 1.4935 0
M  V30 2 C 5.4158 0.2916 0.5224 0
M  V30 3 C 3.9302 0.1499 0.6745 0
M  V30 4 C 3.2124 0.3565 -0.6626 0
M  V30 5 C 1.7235 0.211 -0.4918 0
M  V30 6 C 0.9386 1.3193 -0.153 0
M  V30 7 C 1.1166 -1.0446 -0.6135 0
M  V30 8 C -0.438 1.1795 0.0377 0
M  V30 9 C -0.2605 -1.1894 -0.4235 0
M  V30 10 C -1.0712 -0.0766 -0.0957 0
M  V30 11 C -2.5943 -0.189 0.1242 0
M  V30 12 C -3.1304 -1.6285 -0.066 0
M  V30 13 C -3.3291 0.7211 -0.884 0
M  V30 14 C -2.9407 0.2542 1.5621 0
M  V30 15 H 5.8586 0.5135 -0.4439 0
M  V30 16 H 3.7049 -0.8661 1.0658 0
M  V30 17 H 3.5715 0.9023 1.4106 0
M  V30 18 H 3.5801 -0.3867 -1.4043 0
M  V30 19 H 3.4479 1.368 -1.0621 0
M  V30 20 H 1.3933 2.2953 -0.0342 0
M  V30 21 H 1.7121 -1.9167 -0.855 0
M  V30 22 H -1.0063 2.0629 0.2947 0
M  V30 23 H -0.6695 -2.1822 -0.5352 0
M  V30 24 H -4.2298 -1.6645 0.0965 0
M  V30 25 H -2.9341 -1.991 -1.0982 0
M  V30 26 H -2.6638 -2.325 0.6639 0
M  V30 27 H -4.4311 0.6235 -0.7733 0
M  V30 28 H -3.0565 0.4432 -1.9251 0
M  V30 29 H -3.0745 1.7906 -0.7306 0
M  V30 30 H -2.387 -0.3644 2.3011 0
M  V30 31 H -2.6807 1.3195 1.7351 0
M  V30 32 H -4.0293 0.1418 1.7582 0
M  V30 END ATOM
M  V30 BEGIN BOND
M  V30 1 2 1 2
M  V30 2 1 2 3
M  V30 3 1 3 4
M  V30 4 1 4 5
M  V30 5 2 5 6
M  V30 6 1 5 7
M  V30 7 1 6 8
M  V30 8 2 7 9
M  V30 9 2 8 10
M  V30 10 1 10 11
M  V30 11 1 11 12
M  V30 12 1 11 13
M  V30 13 1 11 14
M  V30 14 1 9 10
M  V30 15 1 2 15
M  V30 16 1 3 16
M  V30 17 1 3 17
M  V30 18 1 4 18
M  V30 19 1 4 19
M  V30 20 1 6 20
M  V30 21 1 7 21
M  V30 22 1 8 22
M  V30 23 1 9 23
M  V30 24 1 12 24
M  V30 25 1 12 25
M  V30 26 1 12 26
M  V30 27 1 13 27
M  V30 28 1 13 28
M  V30 29 1 13 29
M  V30 30 1 14 30
M  V30 31 1 14 31
M  V30 32 1 14 32
M  V30 END BOND
M  V30 END CTAB
M  END
>  <Structure No>
891

>  <LogS>
-3.158832906

>  <MMFF94 Energy>
34.276

$$$$
Compound 892
Actelion Java MolfileCreator 2.0

  0  0  0  0  0  0              0 V3000
M  V30 BEGIN CTAB
M  V30 COUNTS 18 18 0 0 0
M  V30 BEGIN ATOM
M  V30 1 O 3.5787 0.5819 -0.2493 0
M  V30 2 N 2.7824 -0.3745 -0.3483 0 CHG=1
M  V30 3 O 3.2816 -1.6227 -0.6426 0 CHG=-1
M  V30 4 C 1.3685 -0.1771 -0.1582 0
M  V30 5 C 0.4803 -1.2594 -0.2716 0
M  V30 6 C 0.8577 1.0977 0.1425 0
M  V30 7 C -0.9011 -1.082 -0.0888 0
M  V30 8 C -0.5197 1.2961 0.3287 0
M  V30 9 N -1.7995 -2.2013 -0.2082 0 CHG=1
M  V30 10 C -1.3917 0.2007 0.2112 0
M  V30 11 C -1.0428 2.6447 0.6452 0
M  V30 12 O -3.0287 -2.0521 -0.0474 0
M  V30 13 O -1.3186 -3.4566 -0.5021 0 CHG=-1
M  V30 14 O -2.2775 2.8304 0.8137 0
M  V30 15 O -0.1781 3.7271 0.7611 0 CHG=-1
M  V30 16 H 0.8655 -2.2434 -0.5028 0
M  V30 17 H 1.5361 1.9366 0.2314 0
M  V30 18 H -2.4553 0.3455 0.3534 0
M  V30 END ATOM
M  V30 BEGIN BOND
M  V30 1 2 1 2
M  V30 2 1 2 3
M  V30 3 1 2 4
M  V30 4 2 4 5
M  V30 5 1 4 6
M  V30 6 1 5 7
M  V30 7 2 6 8
M  V30 8 1 7 9
M  V30 9 2 7 10
M  V30 10 1 8 11
M  V30 11 2 9 12
M  V30 12 1 9 13
M  V30 13 2 11 14
M  V30 14 1 11 15
M  V30 15 1 8 10
M  V30 16 1 5 16
M  V30 17 1 6 17
M  V30 18 1 10 18
M  V30 END BOND
M  V30 END CTAB
M  END
>  <Structure No>
892

>  <LogS>
-2.207649723

>  <MMFF94 Energy>
70.802

$$$$
Compound 893
Actelion Java MolfileCreator 2.0

  0  0  0  0  0  0              0 V3000
M  V30 BEGIN CTAB
M  V30 COUNTS 84 85 0 0 0
M  V30 BEGIN ATOM
M  V30 1 O -0.8673 -3.1569 0.3153 0
M  V30 2 C -1.9361 -2.7741 -0.2309 0
M  V30 3 N -2.5659 -1.5338 0.1495 0
M  V30 4 C -3.9909 -1.35 -0.205 0
M  V30 5 C -1.8892 -0.6424 1.1133 0
M  V30 6 C -4.8882 -1.5707 1.0165 0
M  V30 7 C -4.271 0.0192 -0.8567 0
M  V30 8 C -0.5931 -0.0383 0.5415 0
M  V30 9 C -6.3915 -1.5984 0.6104 0
M  V30 10 C -5.7793 0.4398 -0.8056 0
M  V30 11 C -0.8479 0.8855 -0.6593 0
M  V30 12 N -6.6725 -0.7364 -0.5855 0 CHG=1
M  V30 13 C -7.2611 -1.1699 1.8194 0
M  V30 14 C -6.788 -3.0621 0.2806 0
M  V30 15 C -6.1535 1.0911 -2.1608 0
M  V30 16 C -5.9975 1.5225 0.2821 0
M  V30 17 C 0.4514 1.3511 -1.3332 0
M  V30 18 C 1.2743 2.3044 -0.451 0
M  V30 19 C 2.489 2.8742 -1.1967 0
M  V30 20 N 3.4219 1.8068 -1.5973 0
M  V30 21 C 3.4467 1.3398 -2.9631 0
M  V30 22 C 4.2875 1.1902 -0.5704 0
M  V30 23 O 2.6968 1.8488 -3.8387 0
M  V30 24 C 3.9441 -0.295 -0.3804 0
M  V30 25 C 5.7716 1.3584 -0.9271 0
M  V30 26 C 4.8607 -0.9947 0.6581 0
M  V30 27 C 6.7171 0.6821 0.1016 0
M  V30 28 N 6.3027 -0.7281 0.3717 0 CHG=1
M  V30 29 C 4.6174 -2.5223 0.5436 0
M  V30 30 C 4.4691 -0.5977 2.1076 0
M  V30 31 C 6.8192 1.5208 1.4039 0
M  V30 32 C 8.1408 0.6611 -0.5132 0
M  V30 33 H -2.3915 -3.4109 -0.9783 0
M  V30 34 H -4.2739 -2.114 -0.9637 0
M  V30 35 H -2.5575 0.1789 1.447 0
M  V30 36 H -1.6375 -1.2242 2.0265 0
M  V30 37 H -4.6951 -0.7726 1.7626 0
M  V30 38 H -4.5995 -2.5221 1.5166 0
M  V30 39 H -3.9137 -0.047 -1.9088 0
M  V30 40 H -3.6587 0.8155 -0.3917 0
M  V30 41 H 0.111 -0.8454 0.2505 0
M  V30 42 H -0.1088 0.5438 1.3536 0
M  V30 43 H -1.436 0.3329 -1.4226 0
M  V30 44 H -1.4403 1.7695 -0.3375 0
M  V30 45 H -7.6687 -0.412 -0.5605 0
M  V30 46 H -6.6043 -1.3277 -1.4485 0
M  V30 47 H -7.0496 -0.1356 2.1448 0
M  V30 48 H -8.3418 -1.2335 1.568 0
M  V30 49 H -7.072 -1.8354 2.6892 0
M  V30 50 H -7.8516 -3.1115 -0.039 0
M  V30 51 H -6.1649 -3.4697 -0.5433 0
M  V30 52 H -6.6596 -3.723 1.1662 0
M  V30 53 H -7.2095 1.4384 -2.1503 0
M  V30 54 H -6.0404 0.3631 -2.9927 0
M  V30 55 H -5.4996 1.9644 -2.3757 0
M  V30 56 H -5.5246 2.4819 -0.0191 0
M  V30 57 H -5.5327 1.2436 1.2458 0
M  V30 58 H -7.0809 1.7111 0.4394 0
M  V30 59 H 0.1802 1.878 -2.2735 0
M  V30 60 H 1.0585 0.4628 -1.6097 0
M  V30 61 H 0.6326 3.153 -0.1282 0
M  V30 62 H 1.626 1.7775 0.4601 0
M  V30 63 H 2.1469 3.4635 -2.0752 0
M  V30 64 H 3.0151 3.5931 -0.5312 0
M  V30 65 H 4.1098 0.5385 -3.258 0
M  V30 66 H 4.1076 1.7114 0.3902 0
M  V30 67 H 2.8812 -0.3892 -0.067 0
M  V30 68 H 4.0445 -0.8156 -1.3575 0
M  V30 69 H 5.9553 0.9116 -1.9272 0
M  V30 70 H 6.0072 2.4429 -1.005 0
M  V30 71 H 6.889 -1.1205 1.146 0
M  V30 72 H 6.553 -1.2874 -0.4789 0
M  V30 73 H 5.2369 -3.0714 1.2855 0
M  V30 74 H 4.8842 -2.8949 -0.4685 0
M  V30 75 H 3.549 -2.7726 0.723 0
M  V30 76 H 4.2661 0.4784 2.2278 0
M  V30 77 H 5.2597 -0.8981 2.827 0
M  V30 78 H 3.5262 -1.1006 2.4126 0
M  V30 79 H 7.3938 2.4558 1.2229 0
M  V30 80 H 7.3425 0.9492 2.2001 0
M  V30 81 H 5.8419 1.8516 1.7891 0
M  V30 82 H 8.486 1.6892 -0.7577 0
M  V30 83 H 8.1635 0.0665 -1.4515 0
M  V30 84 H 8.8648 0.2072 0.1975 0
M  V30 END ATOM
M  V30 BEGIN BOND
M  V30 1 2 1 2
M  V30 2 1 2 3
M  V30 3 1 3 4
M  V30 4 1 3 5
M  V30 5 1 4 6
M  V30 6 1 4 7
M  V30 7 1 5 8
M  V30 8 1 6 9
M  V30 9 1 7 10
M  V30 10 1 8 11
M  V30 11 1 9 12
M  V30 12 1 9 13
M  V30 13 1 9 14
M  V30 14 1 10 15
M  V30 15 1 10 16
M  V30 16 1 11 17
M  V30 17 1 17 18
M  V30 18 1 18 19
M  V30 19 1 19 20
M  V30 20 1 20 21
M  V30 21 1 20 22
M  V30 22 2 21 23
M  V30 23 1 22 24
M  V30 24 1 22 25
M  V30 25 1 24 26
M  V30 26 1 25 27
M  V30 27 1 26 28
M  V30 28 1 26 29
M  V30 29 1 26 30
M  V30 30 1 27 31
M  V30 31 1 27 32
M  V30 32 1 10 12
M  V30 33 1 27 28
M  V30 34 1 2 33
M  V30 35 1 4 34
M  V30 36 1 5 35
M  V30 37 1 5 36
M  V30 38 1 6 37
M  V30 39 1 6 38
M  V30 40 1 7 39
M  V30 41 1 7 40
M  V30 42 1 8 41
M  V30 43 1 8 42
M  V30 44 1 11 43
M  V30 45 1 11 44
M  V30 46 1 12 45
M  V30 47 1 12 46
M  V30 48 1 13 47
M  V30 49 1 13 48
M  V30 50 1 13 49
M  V30 51 1 14 50
M  V30 52 1 14 51
M  V30 53 1 14 52
M  V30 54 1 15 53
M  V30 55 1 15 54
M  V30 56 1 15 55
M  V30 57 1 16 56
M  V30 58 1 16 57
M  V30 59 1 16 58
M  V30 60 1 17 59
M  V30 61 1 17 60
M  V30 62 1 18 61
M  V30 63 1 18 62
M  V30 64 1 19 63
M  V30 65 1 19 64
M  V30 66 1 21 65
M  V30 67 1 22 66
M  V30 68 1 24 67
M  V30 69 1 24 68
M  V30 70 1 25 69
M  V30 71 1 25 70
M  V30 72 1 28 71
M  V30 73 1 28 72
M  V30 74 1 29 73
M  V30 75 1 29 74
M  V30 76 1 29 75
M  V30 77 1 30 76
M  V30 78 1 30 77
M  V30 79 1 30 78
M  V30 80 1 31 79
M  V30 81 1 31 80
M  V30 82 1 31 81
M  V30 83 1 32 82
M  V30 84 1 32 83
M  V30 85 1 32 84
M  V30 END BOND
M  V30 END CTAB
M  END
>  <Structure No>
893

>  <LogS>
-1.539955769

>  <MMFF94 Energy>
37.126

$$$$
Compound 894
Actelion Java MolfileCreator 2.0

  0  0  0  0  0  0              0 V3000
M  V30 BEGIN CTAB
M  V30 COUNTS 10 9 0 0 0
M  V30 BEGIN ATOM
M  V30 1 S 1.7788 1.2372 1.3145 0
M  V30 2 C 0.7266 0.2681 0.518 0
M  V30 3 N -0.5216 0.8039 0.0612 0
M  V30 4 N 1.0623 -1.104 0.2961 0
M  V30 5 N -1.4415 0.0086 -0.6404 0
M  V30 6 H -0.7635 1.7972 0.284 0
M  V30 7 H 1.9755 -1.4865 0.6284 0
M  V30 8 H 0.4039 -1.7503 -0.1911 0
M  V30 9 H -1.0341 -0.1717 -1.5861 0
M  V30 10 H -2.304 0.5796 -0.7932 0
M  V30 END ATOM
M  V30 BEGIN BOND
M  V30 1 2 1 2
M  V30 2 1 2 3
M  V30 3 1 2 4
M  V30 4 1 3 5
M  V30 5 1 3 6
M  V30 6 1 4 7
M  V30 7 1 4 8
M  V30 8 1 5 9
M  V30 9 1 5 10
M  V30 END BOND
M  V30 END CTAB
M  END
>  <Structure No>
894

>  <LogS>
-0.845760907

>  <MMFF94 Energy>
-15.357

$$$$
Compound 895
Actelion Java MolfileCreator 2.0

  0  0  0  0  0  0              0 V3000
M  V30 BEGIN CTAB
M  V30 COUNTS 32 32 0 0 0
M  V30 BEGIN ATOM
M  V30 1 O -2.2737 -1.2539 -0.5484 0
M  V30 2 C -2.0267 0.0027 0.0425 0
M  V30 3 C -2.1273 -2.1908 0.4727 0
M  V30 4 O -1.5825 -0.1351 1.3721 0
M  V30 5 C -1.0137 0.8107 -0.8054 0 CFG=2
M  V30 6 C -1.9667 -1.4173 1.7475 0
M  V30 7 C 0.2857 0.0221 -1.1379 0
M  V30 8 C -0.7647 2.2053 -0.1784 0
M  V30 9 C 1.2379 -0.2099 0.0484 0
M  V30 10 C 0.073 3.1238 -1.0687 0
M  V30 11 C 2.492 -0.9685 -0.4016 0
M  V30 12 C 3.4403 -1.2114 0.7691 0
M  V30 13 H -2.9884 0.5639 0.0586 0
M  V30 14 H -3.0205 -2.85 0.5159 0
M  V30 15 H -1.2223 -2.8053 0.2747 0
M  V30 16 H -1.518 0.9882 -1.7824 0
M  V30 17 H -1.1885 -1.8731 2.3961 0
M  V30 18 H -2.9296 -1.3673 2.3024 0
M  V30 19 H 0.0122 -0.9614 -1.5775 0
M  V30 20 H 0.8353 0.5649 -1.937 0
M  V30 21 H -1.746 2.7023 -0.0133 0
M  V30 22 H -0.2789 2.1127 0.8157 0
M  V30 23 H 1.5498 0.7628 0.4827 0
M  V30 24 H 0.7304 -0.8071 0.8317 0
M  V30 25 H 1.1207 2.7633 -1.13 0
M  V30 26 H -0.3616 3.1795 -2.0891 0
M  V30 27 H 0.0872 4.1459 -0.6346 0
M  V30 28 H 3.0264 -0.3818 -1.1805 0
M  V30 29 H 2.2011 -1.9494 -0.837 0
M  V30 30 H 3.767 -0.2446 1.2081 0
M  V30 31 H 4.3371 -1.7609 0.4132 0
M  V30 32 H 2.9388 -1.8193 1.5521 0
M  V30 END ATOM
M  V30 BEGIN BOND
M  V30 1 1 1 2
M  V30 2 1 1 3
M  V30 3 1 2 4
M  V30 4 1 2 5
M  V30 5 1 3 6
M  V30 6 1 5 7
M  V30 7 1 5 8
M  V30 8 1 7 9
M  V30 9 1 8 10
M  V30 10 1 9 11
M  V30 11 1 11 12
M  V30 12 1 4 6
M  V30 13 1 2 13
M  V30 14 1 3 14
M  V30 15 1 3 15
M  V30 16 1 5 16
M  V30 17 1 6 17
M  V30 18 1 6 18
M  V30 19 1 7 19
M  V30 20 1 7 20
M  V30 21 1 8 21
M  V30 22 1 8 22
M  V30 23 1 9 23
M  V30 24 1 9 24
M  V30 25 1 10 25
M  V30 26 1 10 26
M  V30 27 1 10 27
M  V30 28 1 11 28
M  V30 29 1 11 29
M  V30 30 1 12 30
M  V30 31 1 12 31
M  V30 32 1 12 32
M  V30 END BOND
M  V30 BEGIN COLLECTION
M  V30 MDLV30/STEABS ATOMS=(1 5)
M  V30 END COLLECTION
M  V30 END CTAB
M  END
>  <Structure No>
895

>  <LogS>
-3.119596868

>  <MMFF94 Energy>
18.42

$$$$
Compound 896
Actelion Java MolfileCreator 2.0

  0  0  0  0  0  0              0 V3000
M  V30 BEGIN CTAB
M  V30 COUNTS 34 33 0 0 0
M  V30 BEGIN ATOM
M  V30 1 O 0.3103 0.2327 0.4655 0
M  V30 2 O -0.5249 -0.7868 0.305 0
M  V30 3 C 1.6363 -0.2359 0.2806 0
M  V30 4 C -1.7514 -0.2795 -0.1923 0
M  V30 5 C 2.5519 1.0054 0.4705 0
M  V30 6 C 1.9686 -1.3139 1.34 0
M  V30 7 C 1.8095 -0.8147 -1.1446 0
M  V30 8 C -2.381 0.6881 0.8582 0
M  V30 9 C -1.5282 0.4224 -1.5532 0
M  V30 10 C -2.6635 -1.4996 -0.4141 0
M  V30 11 C 4.0584 0.7627 0.3164 0
M  V30 12 C -3.785 1.2003 0.5176 0
M  V30 13 H 2.3742 1.4331 1.4822 0
M  V30 14 H 2.2532 1.7883 -0.2612 0
M  V30 15 H 2.9936 -1.7148 1.2002 0
M  V30 16 H 1.2742 -2.1771 1.2627 0
M  V30 17 H 1.8828 -0.8894 2.3632 0
M  V30 18 H 1.6204 -0.029 -1.9066 0
M  V30 19 H 1.1047 -1.6537 -1.3247 0
M  V30 20 H 2.8315 -1.2203 -1.2927 0
M  V30 21 H -1.7241 1.5753 0.99 0
M  V30 22 H -2.4282 0.1724 1.8425 0
M  V30 23 H -0.9574 1.3668 -1.4252 0
M  V30 24 H -0.9582 -0.2422 -2.2363 0
M  V30 25 H -2.4929 0.6649 -2.046 0
M  V30 26 H -3.6075 -1.2189 -0.9271 0
M  V30 27 H -2.9106 -1.9806 0.5567 0
M  V30 28 H -2.1456 -2.2514 -1.0483 0
M  V30 29 H 4.4303 0.0405 1.0707 0
M  V30 30 H 4.5959 1.721 0.4776 0
M  V30 31 H 4.3075 0.4081 -0.7038 0
M  V30 32 H -4.5189 0.3691 0.4951 0
M  V30 33 H -4.1109 1.9152 1.3025 0
M  V30 34 H -3.7913 1.7358 -0.4533 0
M  V30 END ATOM
M  V30 BEGIN BOND
M  V30 1 1 1 2
M  V30 2 1 1 3
M  V30 3 1 2 4
M  V30 4 1 3 5
M  V30 5 1 3 6
M  V30 6 1 3 7
M  V30 7 1 4 8
M  V30 8 1 4 9
M  V30 9 1 4 10
M  V30 10 1 5 11
M  V30 11 1 8 12
M  V30 12 1 5 13
M  V30 13 1 5 14
M  V30 14 1 6 15
M  V30 15 1 6 16
M  V30 16 1 6 17
M  V30 17 1 7 18
M  V30 18 1 7 19
M  V30 19 1 7 20
M  V30 20 1 8 21
M  V30 21 1 8 22
M  V30 22 1 9 23
M  V30 23 1 9 24
M  V30 24 1 9 25
M  V30 25 1 10 26
M  V30 26 1 10 27
M  V30 27 1 10 28
M  V30 28 1 11 29
M  V30 29 1 11 30
M  V30 30 1 11 31
M  V30 31 1 12 32
M  V30 32 1 12 33
M  V30 33 1 12 34
M  V30 END BOND
M  V30 END CTAB
M  END
>  <Structure No>
896

>  <LogS>
-4.100435339

>  <MMFF94 Energy>
27.788

$$$$
Compound 897
Actelion Java MolfileCreator 2.0

  0  0  0  0  0  0              0 V3000
M  V30 BEGIN CTAB
M  V30 COUNTS 37 37 0 0 0
M  V30 BEGIN ATOM
M  V30 1 O 3.7831 -0.551 0.0787 0
M  V30 2 C 3.0693 0.0778 -0.7496 0
M  V30 3 C 1.6053 0.1449 -0.5813 0
M  V30 4 C 3.718 0.727 -1.9351 0
M  V30 5 C 0.9731 -0.4476 0.4365 0
M  V30 6 C 3.5605 -0.1398 -3.1795 0
M  V30 7 C -0.5003 -0.358 0.5827 0
M  V30 8 C -1.3098 -1.0418 -0.2738 0
M  V30 9 C -1.0507 0.5971 1.6543 0
M  V30 10 C -2.8173 -1.0048 -0.1569 0
M  V30 11 C -0.7358 -1.9956 -1.2954 0
M  V30 12 C -2.5724 0.3948 1.8883 0
M  V30 13 C -0.3344 0.3563 3.0029 0
M  V30 14 C -0.7803 2.0523 1.2089 0
M  V30 15 C -3.3302 0.2288 0.576 0
M  V30 16 H 1.0278 0.6941 -1.316 0
M  V30 17 H 3.2573 1.7222 -2.1164 0
M  V30 18 H 4.8002 0.8837 -1.7333 0
M  V30 19 H 1.5329 -0.9754 1.1991 0
M  V30 20 H 2.4852 -0.2697 -3.4275 0
M  V30 21 H 4.0646 0.3503 -4.0388 0
M  V30 22 H 4.0224 -1.1379 -3.0186 0
M  V30 23 H -3.2727 -1.0209 -1.171 0
M  V30 24 H -3.1521 -1.9181 0.3807 0
M  V30 25 H -0.0562 -2.7224 -0.8014 0
M  V30 26 H -1.5368 -2.5733 -1.8031 0
M  V30 27 H -0.1779 -1.4327 -2.072 0
M  V30 28 H -3.0003 1.2527 2.4523 0
M  V30 29 H -2.748 -0.5154 2.5057 0
M  V30 30 H 0.7442 0.615 2.9426 0
M  V30 31 H -0.7842 0.9847 3.8016 0
M  V30 32 H -0.4212 -0.7099 3.305 0
M  V30 33 H -1.215 2.2517 0.2072 0
M  V30 34 H -1.2143 2.7753 1.9329 0
M  V30 35 H 0.3115 2.2496 1.1457 0
M  V30 36 H -4.4141 0.1035 0.7889 0
M  V30 37 H -3.2124 1.1293 -0.0631 0
M  V30 END ATOM
M  V30 BEGIN BOND
M  V30 1 2 1 2
M  V30 2 1 2 3
M  V30 3 1 2 4
M  V30 4 2 3 5
M  V30 5 1 4 6
M  V30 6 1 5 7
M  V30 7 2 7 8
M  V30 8 1 7 9
M  V30 9 1 8 10
M  V30 10 1 8 11
M  V30 11 1 9 12
M  V30 12 1 9 13
M  V30 13 1 9 14
M  V30 14 1 10 15
M  V30 15 1 12 15
M  V30 16 1 3 16
M  V30 17 1 4 17
M  V30 18 1 4 18
M  V30 19 1 5 19
M  V30 20 1 6 20
M  V30 21 1 6 21
M  V30 22 1 6 22
M  V30 23 1 10 23
M  V30 24 1 10 24
M  V30 25 1 11 25
M  V30 26 1 11 26
M  V30 27 1 11 27
M  V30 28 1 12 28
M  V30 29 1 12 29
M  V30 30 1 13 30
M  V30 31 1 13 31
M  V30 32 1 13 32
M  V30 33 1 14 33
M  V30 34 1 14 34
M  V30 35 1 14 35
M  V30 36 1 15 36
M  V30 37 1 15 37
M  V30 END BOND
M  V30 END CTAB
M  END
>  <Structure No>
897

>  <LogS>
-4.187455475

>  <MMFF94 Energy>
29.689

$$$$
Compound 898
Actelion Java MolfileCreator 2.0

  0  0  0  0  0  0              0 V3000
M  V30 BEGIN CTAB
M  V30 COUNTS 50 49 0 0 0
M  V30 BEGIN ATOM
M  V30 1 O -3.5364 -1.6491 1.1777 0
M  V30 2 C -3.2867 -0.429 0.9683 0
M  V30 3 O -2.061 -0.0344 0.4174 0
M  V30 4 C -4.2916 0.6221 1.3457 0
M  V30 5 C -1.0403 -0.9461 -0.0077 0 CFG=2
M  V30 6 C -5.6523 0.3294 0.703 0
M  V30 7 C -4.4122 0.7185 2.87 0
M  V30 8 C 0.3687 -0.2513 0.1786 0
M  V30 9 C -1.4488 -1.5446 -1.4003 0
M  V30 10 C 1.5217 -1.1313 -0.3788 0
M  V30 11 C 0.4154 1.1597 -0.4639 0
M  V30 12 C 0.5882 -0.0693 1.7048 0
M  V30 13 C -1.2923 -0.5947 -2.5914 0
M  V30 14 C -0.8359 -2.9238 -1.7001 0
M  V30 15 O 2.8052 -0.685 0.066 0
M  V30 16 C 3.6042 0.2256 -0.6346 0
M  V30 17 O 3.2555 0.6479 -1.7721 0
M  V30 18 C 4.8629 0.7368 0.0075 0
M  V30 19 C 6.035 0.7207 -0.9796 0
M  V30 20 C 4.634 2.1439 0.5644 0
M  V30 21 H -3.9348 1.6051 0.9638 0
M  V30 22 H -1.0488 -1.8051 0.7021 0
M  V30 23 H -6.0771 -0.6233 1.0891 0
M  V30 24 H -6.3634 1.1528 0.9271 0
M  V30 25 H -5.545 0.2538 -0.4023 0
M  V30 26 H -3.4228 0.9624 3.3167 0
M  V30 27 H -5.1263 1.5239 3.1467 0
M  V30 28 H -4.7717 -0.242 3.3004 0
M  V30 29 H -2.5419 -1.7426 -1.3308 0
M  V30 30 H 1.5046 -1.1589 -1.4863 0
M  V30 31 H 1.3893 -2.1719 -0.0124 0
M  V30 32 H -0.4821 1.7573 -0.2019 0
M  V30 33 H 1.2975 1.729 -0.1007 0
M  V30 34 H 0.503 1.1163 -1.5641 0
M  V30 35 H 1.5388 0.4647 1.9205 0
M  V30 36 H -0.2345 0.5259 2.1562 0
M  V30 37 H 0.6274 -1.0544 2.2188 0
M  V30 38 H -1.694 0.4096 -2.343 0
M  V30 39 H -0.2333 -0.5159 -2.9092 0
M  V30 40 H -1.8689 -0.9839 -3.4575 0
M  V30 41 H -0.8594 -3.5724 -0.7992 0
M  V30 42 H -1.4292 -3.4285 -2.4921 0
M  V30 43 H 0.2035 -2.8537 -2.0711 0
M  V30 44 H 5.1229 0.0664 0.8561 0
M  V30 45 H 5.8464 1.4103 -1.8312 0
M  V30 46 H 6.1872 -0.3051 -1.3761 0
M  V30 47 H 6.969 1.0364 -0.4676 0
M  V30 48 H 3.8164 2.1254 1.3166 0
M  V30 49 H 5.5552 2.5139 1.0633 0
M  V30 50 H 4.3566 2.8496 -0.2472 0
M  V30 END ATOM
M  V30 BEGIN BOND
M  V30 1 2 1 2
M  V30 2 1 2 3
M  V30 3 1 2 4
M  V30 4 1 3 5
M  V30 5 1 4 6
M  V30 6 1 4 7
M  V30 7 1 5 8
M  V30 8 1 5 9
M  V30 9 1 8 10
M  V30 10 1 8 11
M  V30 11 1 8 12
M  V30 12 1 9 13
M  V30 13 1 9 14
M  V30 14 1 10 15
M  V30 15 1 15 16
M  V30 16 2 16 17
M  V30 17 1 16 18
M  V30 18 1 18 19
M  V30 19 1 18 20
M  V30 20 1 4 21
M  V30 21 1 5 22
M  V30 22 1 6 23
M  V30 23 1 6 24
M  V30 24 1 6 25
M  V30 25 1 7 26
M  V30 26 1 7 27
M  V30 27 1 7 28
M  V30 28 1 9 29
M  V30 29 1 10 30
M  V30 30 1 10 31
M  V30 31 1 11 32
M  V30 32 1 11 33
M  V30 33 1 11 34
M  V30 34 1 12 35
M  V30 35 1 12 36
M  V30 36 1 12 37
M  V30 37 1 13 38
M  V30 38 1 13 39
M  V30 39 1 13 40
M  V30 40 1 14 41
M  V30 41 1 14 42
M  V30 42 1 14 43
M  V30 43 1 18 44
M  V30 44 1 19 45
M  V30 45 1 19 46
M  V30 46 1 19 47
M  V30 47 1 20 48
M  V30 48 1 20 49
M  V30 49 1 20 50
M  V30 END BOND
M  V30 BEGIN COLLECTION
M  V30 MDLV30/STEABS ATOMS=(1 5)
M  V30 END COLLECTION
M  V30 END CTAB
M  END
>  <Structure No>
898

>  <LogS>
-4.333139569

>  <MMFF94 Energy>
11.879

$$$$
Compound 899
Actelion Java MolfileCreator 2.0

  0  0  0  0  0  0              0 V3000
M  V30 BEGIN CTAB
M  V30 COUNTS 36 36 0 0 0
M  V30 BEGIN ATOM
M  V30 1 O 3.0818 0.7895 -2.1328 0
M  V30 2 C 3.245 0.325 -0.9715 0
M  V30 3 O 2.1967 0.3285 -0.0443 0
M  V30 4 C 4.5868 -0.1887 -0.559 0
M  V30 5 C 0.8795 0.7919 -0.3462 0 CFG=1
M  V30 6 C 5.3942 0.9099 0.1214 0
M  V30 7 C 0.177 -0.2 -1.3066 0
M  V30 8 C 0.1047 0.9993 0.9728 0
M  V30 9 C -1.332 -0.2764 -1.0539 0
M  V30 10 C -0.603 -0.2838 1.4278 0
M  V30 11 C -1.627 -0.8048 0.3762 0 CFG=1
M  V30 12 C -3.107 -0.5968 0.826 0
M  V30 13 C -3.507 0.8779 1.0069 0
M  V30 14 C -4.0939 -1.2993 -0.1185 0
M  V30 15 H 4.4544 -1.0386 0.1441 0
M  V30 16 H 5.1401 -0.5582 -1.4495 0
M  V30 17 H 0.9535 1.7859 -0.8425 0
M  V30 18 H 6.3848 0.5097 0.4239 0
M  V30 19 H 5.552 1.7606 -0.5755 0
M  V30 20 H 4.8648 1.2723 1.0288 0
M  V30 21 H 0.3576 0.1113 -2.3581 0
M  V30 22 H 0.6084 -1.2181 -1.1823 0
M  V30 23 H -0.6501 1.8028 0.8324 0
M  V30 24 H 0.7996 1.3431 1.7699 0
M  V30 25 H -1.7856 -0.9576 -1.8057 0
M  V30 26 H -1.7628 0.7335 -1.2104 0
M  V30 27 H 0.174 -1.062 1.5982 0
M  V30 28 H -1.0863 -0.109 2.4131 0
M  V30 29 H -1.4745 -1.9078 0.3336 0
M  V30 30 H -3.2203 -1.087 1.819 0
M  V30 31 H -3.4912 1.4277 0.0442 0
M  V30 32 H -2.8381 1.3865 1.7298 0
M  V30 33 H -4.5383 0.938 1.4157 0
M  V30 34 H -5.118 -1.2702 0.3112 0
M  V30 35 H -4.1175 -0.802 -1.1111 0
M  V30 36 H -3.8091 -2.3643 -0.2538 0
M  V30 END ATOM
M  V30 BEGIN BOND
M  V30 1 2 1 2
M  V30 2 1 2 3
M  V30 3 1 2 4
M  V30 4 1 3 5
M  V30 5 1 4 6
M  V30 6 1 5 7
M  V30 7 1 5 8
M  V30 8 1 7 9
M  V30 9 1 8 10
M  V30 10 1 9 11
M  V30 11 1 11 12
M  V30 12 1 12 13
M  V30 13 1 12 14
M  V30 14 1 10 11
M  V30 15 1 4 15
M  V30 16 1 4 16
M  V30 17 1 5 17
M  V30 18 1 6 18
M  V30 19 1 6 19
M  V30 20 1 6 20
M  V30 21 1 7 21
M  V30 22 1 7 22
M  V30 23 1 8 23
M  V30 24 1 8 24
M  V30 25 1 9 25
M  V30 26 1 9 26
M  V30 27 1 10 27
M  V30 28 1 10 28
M  V30 29 1 11 29
M  V30 30 1 12 30
M  V30 31 1 13 31
M  V30 32 1 13 32
M  V30 33 1 13 33
M  V30 34 1 14 34
M  V30 35 1 14 35
M  V30 36 1 14 36
M  V30 END BOND
M  V30 BEGIN COLLECTION
M  V30 MDLV30/STEABS ATOMS=(2 5 11)
M  V30 END COLLECTION
M  V30 END CTAB
M  END
>  <Structure No>
899

>  <LogS>
-4.173484214

>  <MMFF94 Energy>
2.6047

$$$$
Compound 900
Actelion Java MolfileCreator 2.0

  0  0  0  0  0  0              0 V3000
M  V30 BEGIN CTAB
M  V30 COUNTS 42 42 0 0 0
M  V30 BEGIN ATOM
M  V30 1 O 1.185 0.3948 -0.5528 0
M  V30 2 O 0.7389 1.5064 0.0179 0
M  V30 3 C 1.7583 -0.4155 0.4607 0 CFG=1
M  V30 4 C -0.6392 1.646 -0.2672 0 CFG=1
M  V30 5 O 0.7238 -0.9314 1.2884 0
M  V30 6 C 2.5804 -1.5527 -0.2269 0
M  V30 7 C 2.7075 0.3992 1.3762 0
M  V30 8 O -1.378 0.6178 0.3753 0
M  V30 9 C -1.1107 2.9651 0.3894 0
M  V30 10 C -0.9016 1.7184 -1.8009 0
M  V30 11 O 0.1312 -1.9339 0.6523 0
M  V30 12 C 3.7639 -1.0472 -1.0581 0
M  V30 13 O -1.3492 -0.4719 -0.3773 0
M  V30 14 C -0.3287 4.2101 -0.044 0
M  V30 15 C -1.2324 -1.614 0.4596 0 CFG=1
M  V30 16 C -1.8385 -2.8047 -0.318 0
M  V30 17 C -1.9609 -1.4796 1.8302 0
M  V30 18 C -3.3033 -2.6091 -0.7226 0
M  V30 19 H 2.9551 -2.2643 0.5409 0
M  V30 20 H 1.9253 -2.1228 -0.9212 0
M  V30 21 H 3.3157 -0.2786 2.0126 0
M  V30 22 H 2.1258 1.0582 2.0563 0
M  V30 23 H 3.3847 1.0418 0.7749 0
M  V30 24 H -2.1908 3.127 0.1786 0
M  V30 25 H -1.0059 2.8675 1.4928 0
M  V30 26 H -0.6197 0.7752 -2.3139 0
M  V30 27 H -0.2944 2.5202 -2.2681 0
M  V30 28 H -1.977 1.9129 -2.0002 0
M  V30 29 H 4.5619 -0.6403 -0.403 0
M  V30 30 H 4.1966 -1.892 -1.6345 0
M  V30 31 H 3.4351 -0.2654 -1.7748 0
M  V30 32 H -0.6365 5.0719 0.585 0
M  V30 33 H -0.5482 4.4692 -1.0998 0
M  V30 34 H 0.7634 4.0599 0.0848 0
M  V30 35 H -1.7519 -3.7365 0.2831 0
M  V30 36 H -1.2457 -2.9607 -1.2465 0
M  V30 37 H -1.9729 -2.4549 2.3619 0
M  V30 38 H -1.4519 -0.7462 2.4907 0
M  V30 39 H -3.0054 -1.1318 1.6893 0
M  V30 40 H -3.9632 -2.6073 0.169 0
M  V30 41 H -3.6177 -3.4496 -1.3763 0
M  V30 42 H -3.4366 -1.6617 -1.286 0
M  V30 END ATOM
M  V30 BEGIN BOND
M  V30 1 1 1 2
M  V30 2 1 1 3
M  V30 3 1 2 4
M  V30 4 1 3 5
M  V30 5 1 3 6
M  V30 6 1 3 7
M  V30 7 1 4 8
M  V30 8 1 4 9
M  V30 9 1 4 10
M  V30 10 1 5 11
M  V30 11 1 6 12
M  V30 12 1 8 13
M  V30 13 1 9 14
M  V30 14 1 11 15
M  V30 15 1 15 16
M  V30 16 1 15 17
M  V30 17 1 16 18
M  V30 18 1 13 15
M  V30 19 1 6 19
M  V30 20 1 6 20
M  V30 21 1 7 21
M  V30 22 1 7 22
M  V30 23 1 7 23
M  V30 24 1 9 24
M  V30 25 1 9 25
M  V30 26 1 10 26
M  V30 27 1 10 27
M  V30 28 1 10 28
M  V30 29 1 12 29
M  V30 30 1 12 30
M  V30 31 1 12 31
M  V30 32 1 14 32
M  V30 33 1 14 33
M  V30 34 1 14 34
M  V30 35 1 16 35
M  V30 36 1 16 36
M  V30 37 1 17 37
M  V30 38 1 17 38
M  V30 39 1 17 39
M  V30 40 1 18 40
M  V30 41 1 18 41
M  V30 42 1 18 42
M  V30 END BOND
M  V30 BEGIN COLLECTION
M  V30 MDLV30/STEABS ATOMS=(3 3 4 15)
M  V30 END COLLECTION
M  V30 END CTAB
M  END
>  <Structure No>
900

>  <LogS>
-4.304855444

>  <MMFF94 Energy>
83.532

$$$$
Compound 901
Actelion Java MolfileCreator 2.0

  0  0  0  0  0  0              0 V3000
M  V30 BEGIN CTAB
M  V30 COUNTS 46 50 0 0 0
M  V30 BEGIN ATOM
M  V30 1 O 1.055 -0.7303 0.6491 0
M  V30 2 C 2.1285 -0.6079 1.5964 0 CFG=2
M  V30 3 C 0.8861 0.5048 -0.0019 0 CFG=2
M  V30 4 O 1.9657 0.4804 2.5237 0
M  V30 5 C 3.5017 -0.6195 0.9394 0
M  V30 6 C 0.4636 1.5532 0.9808 0 CFG=1
M  V30 7 C -0.1893 0.613 -1.0406 0 CFG=1
M  V30 8 C 1.6669 1.7251 1.8984 0
M  V30 9 C 4.6011 0.0131 1.5511 0
M  V30 10 C 3.7136 -1.3537 -0.2427 0
M  V30 11 O 0.1367 2.6714 0.195 0
M  V30 12 O -0.677 1.1873 1.7367 0
M  V30 13 O -1.3362 -0.1256 -0.6747 0
M  V30 14 C -0.4765 2.1263 -0.9731 0 CFG=2
M  V30 15 C 5.8676 -0.0404 0.9612 0
M  V30 16 C 4.9818 -1.4045 -0.8283 0
M  V30 17 C -2.3607 0.1127 -1.6307 0 CFG=2
M  V30 18 C -1.9921 2.3529 -0.943 0
M  V30 19 C 6.0567 -0.7438 -0.2298 0
M  V30 20 O -2.6525 1.4955 -1.8547 0
M  V30 21 C -3.6068 -0.624 -1.2031 0
M  V30 22 C -3.8432 -1.9288 -1.6732 0
M  V30 23 C -4.5042 -0.0608 -0.2765 0
M  V30 24 C -4.9711 -2.6399 -1.2525 0
M  V30 25 C -5.631 -0.7759 0.1409 0
M  V30 26 C -5.8659 -2.0628 -0.3485 0
M  V30 27 H 2.0977 -1.5329 2.209 0
M  V30 28 H 1.8335 0.8039 -0.5179 0
M  V30 29 H 0.1976 0.2944 -2.0372 0
M  V30 30 H 2.5533 2.1072 1.3442 0
M  V30 31 H 1.4221 2.4703 2.6842 0
M  V30 32 H 4.484 0.5489 2.4841 0
M  V30 33 H 2.8975 -1.8859 -0.7148 0
M  V30 34 H -0.4991 0.3403 2.2208 0
M  V30 35 H -0.046 2.6219 -1.8708 0
M  V30 36 H 6.7045 0.4594 1.4316 0
M  V30 37 H 5.1325 -1.9615 -1.7437 0
M  V30 38 H -2.039 -0.3102 -2.6103 0
M  V30 39 H -2.3941 2.2015 0.0816 0
M  V30 40 H -2.206 3.4058 -1.223 0
M  V30 41 H 7.0383 -0.7856 -0.6837 0
M  V30 42 H -3.1541 -2.3975 -2.3652 0
M  V30 43 H -4.3412 0.9299 0.1233 0
M  V30 44 H -5.1495 -3.6402 -1.6255 0
M  V30 45 H -6.3216 -0.3324 0.8469 0
M  V30 46 H -6.7383 -2.6148 -0.0237 0
M  V30 END ATOM
M  V30 BEGIN BOND
M  V30 1 1 1 2
M  V30 2 1 1 3
M  V30 3 1 2 4
M  V30 4 1 2 5
M  V30 5 1 3 6
M  V30 6 1 3 7
M  V30 7 1 4 8
M  V30 8 2 5 9
M  V30 9 1 5 10
M  V30 10 1 6 11
M  V30 11 1 6 12
M  V30 12 1 7 13
M  V30 13 1 7 14
M  V30 14 1 9 15
M  V30 15 2 10 16
M  V30 16 1 13 17
M  V30 17 1 14 18
M  V30 18 2 15 19
M  V30 19 1 17 20
M  V30 20 1 17 21
M  V30 21 2 21 22
M  V30 22 1 21 23
M  V30 23 1 22 24
M  V30 24 2 23 25
M  V30 25 2 24 26
M  V30 26 1 6 8
M  V30 27 1 11 14
M  V30 28 1 16 19
M  V30 29 1 18 20
M  V30 30 1 25 26
M  V30 31 1 2 27
M  V30 32 1 3 28
M  V30 33 1 7 29
M  V30 34 1 8 30
M  V30 35 1 8 31
M  V30 36 1 9 32
M  V30 37 1 10 33
M  V30 38 1 12 34
M  V30 39 1 14 35
M  V30 40 1 15 36
M  V30 41 1 16 37
M  V30 42 1 17 38
M  V30 43 1 18 39
M  V30 44 1 18 40
M  V30 45 1 19 41
M  V30 46 1 22 42
M  V30 47 1 23 43
M  V30 48 1 24 44
M  V30 49 1 25 45
M  V30 50 1 26 46
M  V30 END BOND
M  V30 BEGIN COLLECTION
M  V30 MDLV30/STEABS ATOMS=(6 2 3 6 7 14 17)
M  V30 END COLLECTION
M  V30 END CTAB
M  END
>  <Structure No>
901

>  <LogS>
-4.437962659

>  <MMFF94 Energy>
111

$$$$
Compound 902
Actelion Java MolfileCreator 2.0

  0  0  0  0  0  0              0 V3000
M  V30 BEGIN CTAB
M  V30 COUNTS 28 29 0 0 0
M  V30 BEGIN ATOM
M  V30 1 O -1.5162 3.274 -0.3988 0
M  V30 2 C -0.6554 2.3755 -0.2032 0
M  V30 3 N -0.924 1.0556 -0.1107 0
M  V30 4 C 0.6989 2.5912 -0.0999 0
M  V30 5 N 0.2203 0.4033 0.0338 0 CHG=-1
M  V30 6 C -2.205 0.4003 -0.1848 0
M  V30 7 C 1.2156 1.315 0.0478 0
M  V30 8 C -2.2923 -0.9073 -0.6945 0
M  V30 9 C -3.3762 1.0305 0.278 0
M  V30 10 C 2.6332 0.9679 0.1895 0
M  V30 11 C -3.5266 -1.5606 -0.7637 0
M  V30 12 C -4.6081 0.3722 0.2078 0
M  V30 13 O 3.5082 1.8767 0.1897 0
M  V30 14 O 3.0011 -0.3736 0.3236 0
M  V30 15 C -4.684 -0.9203 -0.3156 0
M  V30 16 C 4.3557 -0.7879 0.465 0
M  V30 17 C 4.415 -2.3019 0.5872 0
M  V30 18 H 1.232 3.5321 -0.1448 0
M  V30 19 H -1.4058 -1.4169 -1.0498 0
M  V30 20 H -3.3405 2.0169 0.7187 0
M  V30 21 H -3.5852 -2.5642 -1.1645 0
M  V30 22 H -5.5039 0.8623 0.5671 0
M  V30 23 H -5.6384 -1.428 -0.3679 0
M  V30 24 H 4.7957 -0.3283 1.3766 0
M  V30 25 H 4.941 -0.468 -0.4243 0
M  V30 26 H 3.9846 -2.773 -0.3216 0
M  V30 27 H 5.4705 -2.6282 0.6976 0
M  V30 28 H 3.8396 -2.6335 1.4774 0
M  V30 END ATOM
M  V30 BEGIN BOND
M  V30 1 2 1 2
M  V30 2 1 2 3
M  V30 3 1 2 4
M  V30 4 1 3 5
M  V30 5 1 3 6
M  V30 6 2 4 7
M  V30 7 2 6 8
M  V30 8 1 6 9
M  V30 9 1 7 10
M  V30 10 1 8 11
M  V30 11 2 9 12
M  V30 12 2 10 13
M  V30 13 1 10 14
M  V30 14 2 11 15
M  V30 15 1 14 16
M  V30 16 1 16 17
M  V30 17 1 5 7
M  V30 18 1 12 15
M  V30 19 1 4 18
M  V30 20 1 8 19
M  V30 21 1 9 20
M  V30 22 1 11 21
M  V30 23 1 12 22
M  V30 24 1 15 23
M  V30 25 1 16 24
M  V30 26 1 16 25
M  V30 27 1 17 26
M  V30 28 1 17 27
M  V30 29 1 17 28
M  V30 END BOND
M  V30 END CTAB
M  END
>  <Structure No>
902

>  <LogS>
-3.255345443

>  <MMFF94 Energy>
46.879

$$$$
Compound 903
Actelion Java MolfileCreator 2.0

  0  0  0  0  0  0              0 V3000
M  V30 BEGIN CTAB
M  V30 COUNTS 23 22 0 0 0
M  V30 BEGIN ATOM
M  V30 1 O -3.4779 -0.4631 -2.0855 0
M  V30 2 C -3.503 -0.5304 -0.8668 0
M  V30 3 C -2.8602 0.5382 -0.0316 0
M  V30 4 C -1.339 0.591 -0.2318 0
M  V30 5 C -0.6374 -0.6527 0.3406 0
M  V30 6 C 0.8747 -0.6555 0.0665 0
M  V30 7 C 1.6292 0.3921 0.8992 0
M  V30 8 C 3.1172 0.2454 0.7361 0
M  V30 9 C 3.7342 0.5627 -0.4059 0
M  V30 10 H -4.0052 -1.3638 -0.3864 0
M  V30 11 H -3.0916 0.3587 1.0407 0
M  V30 12 H -3.2992 1.5201 -0.3115 0
M  V30 13 H -1.107 0.6973 -1.3144 0
M  V30 14 H -0.9617 1.4975 0.2867 0
M  V30 15 H -0.8225 -0.7223 1.435 0
M  V30 16 H -1.0685 -1.5624 -0.1307 0
M  V30 17 H 1.2679 -1.6644 0.3221 0
M  V30 18 H 1.0583 -0.488 -1.0173 0
M  V30 19 H 1.3787 0.2585 1.9739 0
M  V30 20 H 1.3323 1.4196 0.5996 0
M  V30 21 H 3.7089 -0.0992 1.5792 0
M  V30 22 H 3.1741 0.9298 -1.2607 0
M  V30 23 H 4.8112 0.459 -0.488 0
M  V30 END ATOM
M  V30 BEGIN BOND
M  V30 1 2 1 2
M  V30 2 1 2 3
M  V30 3 1 3 4
M  V30 4 1 4 5
M  V30 5 1 5 6
M  V30 6 1 6 7
M  V30 7 1 7 8
M  V30 8 2 8 9
M  V30 9 1 2 10
M  V30 10 1 3 11
M  V30 11 1 3 12
M  V30 12 1 4 13
M  V30 13 1 4 14
M  V30 14 1 5 15
M  V30 15 1 5 16
M  V30 16 1 6 17
M  V30 17 1 6 18
M  V30 18 1 7 19
M  V30 19 1 7 20
M  V30 20 1 8 21
M  V30 21 1 9 22
M  V30 22 1 9 23
M  V30 END BOND
M  V30 END CTAB
M  END
>  <Structure No>
903

>  <LogS>
-1.997252193

>  <MMFF94 Energy>
9.3072

$$$$
Compound 904
Actelion Java MolfileCreator 2.0

  0  0  0  0  0  0              0 V3000
M  V30 BEGIN CTAB
M  V30 COUNTS 27 28 0 0 0
M  V30 BEGIN ATOM
M  V30 1 O 0.4012 -2.2486 -2.0074 0
M  V30 2 C 0.1406 -2.4345 -0.7884 0
M  V30 3 O -0.2931 -3.6862 -0.37 0 CHG=-1
M  V30 4 C 0.2375 -1.3088 0.2121 0
M  V30 5 C 1.2965 -0.2888 -0.171 0
M  V30 6 C -1.1011 -0.6401 0.4761 0
M  V30 7 C 2.5076 -0.2311 0.544 0
M  V30 8 C 1.1007 0.599 -1.2478 0
M  V30 9 C -1.3601 -0.1053 1.7519 0
M  V30 10 C -2.0688 -0.4752 -0.5369 0
M  V30 11 C 3.492 0.6992 0.1975 0
M  V30 12 C 2.0886 1.527 -1.5897 0
M  V30 13 C -2.5662 0.5499 2.0167 0
M  V30 14 C -3.2732 0.1811 -0.2661 0
M  V30 15 C 3.2824 1.5781 -0.8671 0
M  V30 16 C -3.5229 0.6906 1.0096 0
M  V30 17 H 0.5488 -1.7943 1.1644 0
M  V30 18 H 2.692 -0.9048 1.3713 0
M  V30 19 H 0.1875 0.5723 -1.8267 0
M  V30 20 H -0.6251 -0.1939 2.5424 0
M  V30 21 H -1.8955 -0.8478 -1.5376 0
M  V30 22 H 4.419 0.7377 0.7548 0
M  V30 23 H 1.929 2.2059 -2.4174 0
M  V30 24 H -2.7572 0.9529 3.0029 0
M  V30 25 H -4.012 0.299 -1.0484 0
M  V30 26 H 4.0461 2.2972 -1.1338 0
M  V30 27 H -4.4555 1.2 1.2161 0
M  V30 END ATOM
M  V30 BEGIN BOND
M  V30 1 2 1 2
M  V30 2 1 2 3
M  V30 3 1 2 4
M  V30 4 1 4 5
M  V30 5 1 4 6
M  V30 6 2 5 7
M  V30 7 1 5 8
M  V30 8 2 6 9
M  V30 9 1 6 10
M  V30 10 1 7 11
M  V30 11 2 8 12
M  V30 12 1 9 13
M  V30 13 2 10 14
M  V30 14 2 11 15
M  V30 15 2 13 16
M  V30 16 1 12 15
M  V30 17 1 14 16
M  V30 18 1 4 17
M  V30 19 1 7 18
M  V30 20 1 8 19
M  V30 21 1 9 20
M  V30 22 1 10 21
M  V30 23 1 11 22
M  V30 24 1 12 23
M  V30 25 1 13 24
M  V30 26 1 14 25
M  V30 27 1 15 26
M  V30 28 1 16 27
M  V30 END BOND
M  V30 END CTAB
M  END
>  <Structure No>
904

>  <LogS>
-3.223039886

>  <MMFF94 Energy>
106.36

$$$$
Compound 905
Actelion Java MolfileCreator 2.0

  0  0  0  0  0  0              0 V3000
M  V30 BEGIN CTAB
M  V30 COUNTS 14 13 0 0 0
M  V30 BEGIN ATOM
M  V30 1 Cl 3.3708 -0.9622 1.4435 0
M  V30 2 C 2.1524 -0.5684 0.2509 0
M  V30 3 O 2.3903 -0.7723 -0.9694 0
M  V30 4 O 0.934 -0.0237 0.6687 0
M  V30 5 C -0.1363 0.2895 -0.223 0
M  V30 6 C -0.853 -0.9909 -0.6608 0
M  V30 7 C -1.1096 1.2309 0.4836 0
M  V30 8 H 0.2618 0.8141 -1.12 0
M  V30 9 H -0.1527 -1.6536 -1.2106 0
M  V30 10 H -1.7001 -0.7459 -1.3364 0
M  V30 11 H -1.2407 -1.5393 0.2242 0
M  V30 12 H -1.5302 0.7462 1.3907 0
M  V30 13 H -1.9405 1.5108 -0.1985 0
M  V30 14 H -0.579 2.1575 0.7891 0
M  V30 END ATOM
M  V30 BEGIN BOND
M  V30 1 1 1 2
M  V30 2 2 2 3
M  V30 3 1 2 4
M  V30 4 1 4 5
M  V30 5 1 5 6
M  V30 6 1 5 7
M  V30 7 1 5 8
M  V30 8 1 6 9
M  V30 9 1 6 10
M  V30 10 1 6 11
M  V30 11 1 7 12
M  V30 12 1 7 13
M  V30 13 1 7 14
M  V30 END BOND
M  V30 END CTAB
M  END
>  <Structure No>
905

>  <LogS>
-0.988291129

>  <MMFF94 Energy>
-3.9988

$$$$
Compound 906
Actelion Java MolfileCreator 2.0

  0  0  0  0  0  0              0 V3000
M  V30 BEGIN CTAB
M  V30 COUNTS 15 15 0 0 0
M  V30 BEGIN ATOM
M  V30 1 O 2.7353 -1.7693 0.4019 0
M  V30 2 C 2.2901 -0.5956 0.2922 0
M  V30 3 O 3.1889 0.4632 0.3384 0 CHG=-1
M  V30 4 C 0.8335 -0.3589 0.1178 0
M  V30 5 C 0.3016 0.9462 -0.0082 0
M  V30 6 C -0.0481 -1.4576 0.0756 0
M  V30 7 O 1.1351 2.0639 0.0275 0
M  V30 8 C -1.0808 1.1258 -0.1715 0
M  V30 9 C -1.4219 -1.2641 -0.0873 0
M  V30 10 C -1.9375 0.0251 -0.2107 0
M  V30 11 H 0.323 -2.4705 0.1689 0
M  V30 12 H 0.7693 3.0048 -0.0612 0
M  V30 13 H -1.4928 2.1223 -0.2683 0
M  V30 14 H -2.088 -2.1168 -0.118 0
M  V30 15 H -3.0024 0.1723 -0.337 0
M  V30 END ATOM
M  V30 BEGIN BOND
M  V30 1 2 1 2
M  V30 2 1 2 3
M  V30 3 1 2 4
M  V30 4 2 4 5
M  V30 5 1 4 6
M  V30 6 1 5 7
M  V30 7 1 5 8
M  V30 8 2 6 9
M  V30 9 2 8 10
M  V30 10 1 9 10
M  V30 11 1 6 11
M  V30 12 1 7 12
M  V30 13 1 8 13
M  V30 14 1 9 14
M  V30 15 1 10 15
M  V30 END BOND
M  V30 END CTAB
M  END
>  <Structure No>
906

>  <LogS>
-0.107492169

>  <MMFF94 Energy>
12.803

$$$$
Compound 907
Actelion Java MolfileCreator 2.0

  0  0  0  0  0  0              0 V3000
M  V30 BEGIN CTAB
M  V30 COUNTS 22 22 0 0 0
M  V30 BEGIN ATOM
M  V30 1 O 1.4952 1.4952 0.0 0
M  V30 2 C 2.1249 0.5238 -0.4997 0
M  V30 3 O 1.8175 -0.7955 -0.1442 0
M  V30 4 C 3.279 0.7854 -1.4058 0
M  V30 5 C 0.653 -1.1951 0.5293 0
M  V30 6 C -0.6237 -0.4492 0.3878 0
M  V30 7 C 0.7074 -2.3045 1.2671 0
M  V30 8 C -1.4418 -0.1946 1.5045 0
M  V30 9 C -1.0329 0.0063 -0.8773 0
M  V30 10 C -2.642 0.5071 1.3548 0
M  V30 11 C -2.2339 0.7073 -1.0218 0
M  V30 12 C -3.0378 0.9577 0.093 0
M  V30 13 H 3.4395 -0.0861 -2.0741 0
M  V30 14 H 3.0796 1.6825 -2.029 0
M  V30 15 H 4.1934 0.9546 -0.8005 0
M  V30 16 H 1.6351 -2.8554 1.3541 0
M  V30 17 H -0.1666 -2.6862 1.7798 0
M  V30 18 H -1.1452 -0.5249 2.4921 0
M  V30 19 H -0.4262 -0.1881 -1.7532 0
M  V30 20 H -3.2645 0.7036 2.2181 0
M  V30 21 H -2.5428 1.0545 -1.9994 0
M  V30 22 H -3.967 1.5007 -0.0207 0
M  V30 END ATOM
M  V30 BEGIN BOND
M  V30 1 2 1 2
M  V30 2 1 2 3
M  V30 3 1 2 4
M  V30 4 1 3 5
M  V30 5 1 5 6
M  V30 6 2 5 7
M  V30 7 2 6 8
M  V30 8 1 6 9
M  V30 9 1 8 10
M  V30 10 2 9 11
M  V30 11 2 10 12
M  V30 12 1 11 12
M  V30 13 1 4 13
M  V30 14 1 4 14
M  V30 15 1 4 15
M  V30 16 1 7 16
M  V30 17 1 7 17
M  V30 18 1 8 18
M  V30 19 1 9 19
M  V30 20 1 10 20
M  V30 21 1 11 21
M  V30 22 1 12 22
M  V30 END BOND
M  V30 END CTAB
M  END
>  <Structure No>
907

>  <LogS>
-2.113595388

>  <MMFF94 Energy>
32.373

$$$$
Compound 908
Actelion Java MolfileCreator 2.0

  0  0  0  0  0  0              0 V3000
M  V30 BEGIN CTAB
M  V30 COUNTS 29 29 0 0 0
M  V30 BEGIN ATOM
M  V30 1 O 0.9469 0.0788 2.3686 0
M  V30 2 C 1.0696 0.514 1.1909 0
M  V30 3 O 1.7968 -0.2037 0.2377 0
M  V30 4 C 0.3903 1.7888 0.7926 0
M  V30 5 C 2.4296 -1.4445 0.5305 0
M  V30 6 C -0.9797 1.5229 0.1384 0 CFG=1
M  V30 7 C 3.1029 -1.9798 -0.7228 0
M  V30 8 O -0.7981 0.7491 -1.0299 0
M  V30 9 O -1.8229 0.8649 1.063 0
M  V30 10 C -1.6291 2.8562 -0.2515 0
M  V30 11 C -1.746 -0.2681 -0.9576 0 CFG=2
M  V30 12 C -2.1349 -0.3671 0.4929 0
M  V30 13 C -1.1649 -1.5729 -1.4999 0
M  V30 14 H 0.2618 2.4312 1.6918 0
M  V30 15 H 1.0483 2.3328 0.0805 0
M  V30 16 H 3.1928 -1.2983 1.3254 0
M  V30 17 H 1.6723 -2.1788 0.8817 0
M  V30 18 H 3.5951 -2.9495 -0.4989 0
M  V30 19 H 2.3479 -2.134 -1.5227 0
M  V30 20 H 3.8692 -1.2591 -1.0787 0
M  V30 21 H -2.6197 2.6728 -0.7198 0
M  V30 22 H -0.9912 3.4012 -0.9799 0
M  V30 23 H -1.7783 3.4938 0.6463 0
M  V30 24 H -2.631 0.0203 -1.5682 0
M  V30 25 H -3.2226 -0.5676 0.5974 0
M  V30 26 H -1.5657 -1.1608 1.0254 0
M  V30 27 H -0.257 -1.8641 -0.9309 0
M  V30 28 H -0.8888 -1.4442 -2.5676 0
M  V30 29 H -1.9184 -2.3855 -1.4232 0
M  V30 END ATOM
M  V30 BEGIN BOND
M  V30 1 2 1 2
M  V30 2 1 2 3
M  V30 3 1 2 4
M  V30 4 1 3 5
M  V30 5 1 4 6
M  V30 6 1 5 7
M  V30 7 1 6 8
M  V30 8 1 6 9
M  V30 9 1 6 10
M  V30 10 1 8 11
M  V30 11 1 9 12
M  V30 12 1 11 13
M  V30 13 1 11 12
M  V30 14 1 4 14
M  V30 15 1 4 15
M  V30 16 1 5 16
M  V30 17 1 5 17
M  V30 18 1 7 18
M  V30 19 1 7 19
M  V30 20 1 7 20
M  V30 21 1 10 21
M  V30 22 1 10 22
M  V30 23 1 10 23
M  V30 24 1 11 24
M  V30 25 1 12 25
M  V30 26 1 12 26
M  V30 27 1 13 27
M  V30 28 1 13 28
M  V30 29 1 13 29
M  V30 END BOND
M  V30 BEGIN COLLECTION
M  V30 MDLV30/STEABS ATOMS=(2 6 11)
M  V30 END COLLECTION
M  V30 END CTAB
M  END
>  <Structure No>
908

>  <LogS>
-2.179887223

>  <MMFF94 Energy>
-1.4758

$$$$
Compound 909
Actelion Java MolfileCreator 2.0

  0  0  0  0  0  0              0 V3000
M  V30 BEGIN CTAB
M  V30 COUNTS 12 12 0 0 0
M  V30 BEGIN ATOM
M  V30 1 Cl 2.7084 -1.5228 0.0 0
M  V30 2 C 1.1891 -0.6465 0.0175 0
M  V30 3 C -0.0218 -1.345 0.0937 0
M  V30 4 C 1.186 0.7518 -0.0446 0
M  V30 5 C -1.2345 -0.6456 0.1077 0
M  V30 6 C -0.0255 1.4503 -0.0306 0
M  V30 7 Cl -2.7517 -1.5205 0.2032 0
M  V30 8 C -1.2352 0.7527 0.0454 0
M  V30 9 H -0.0204 -2.4266 0.1419 0
M  V30 10 H 2.1194 1.2968 -0.1035 0
M  V30 11 H -0.0268 2.5316 -0.0786 0
M  V30 12 H -2.1701 1.2986 0.0559 0
M  V30 END ATOM
M  V30 BEGIN BOND
M  V30 1 1 1 2
M  V30 2 2 2 3
M  V30 3 1 2 4
M  V30 4 1 3 5
M  V30 5 2 4 6
M  V30 6 1 5 7
M  V30 7 2 5 8
M  V30 8 1 6 8
M  V30 9 1 3 9
M  V30 10 1 4 10
M  V30 11 1 6 11
M  V30 12 1 8 12
M  V30 END BOND
M  V30 END CTAB
M  END
>  <Structure No>
909

>  <LogS>
-3.072159801

>  <MMFF94 Energy>
7.2707

$$$$
Compound 910
Actelion Java MolfileCreator 2.0

  0  0  0  0  0  0              0 V3000
M  V30 BEGIN CTAB
M  V30 COUNTS 22 22 0 0 0
M  V30 BEGIN ATOM
M  V30 1 O 3.5168 -0.078 1.0149 0
M  V30 2 C 2.1749 0.3186 0.9341 0
M  V30 3 C 1.5393 -0.2231 -0.3487 0
M  V30 4 C 0.0928 0.2059 -0.4547 0
M  V30 5 C -0.973 -0.5873 0.0455 0
M  V30 6 C -0.1939 1.4596 -1.0247 0
M  V30 7 C -2.294 -0.1188 -0.0741 0
M  V30 8 C -0.7322 -1.9383 0.6673 0
M  V30 9 C -1.5104 1.9118 -1.1255 0
M  V30 10 C -2.5584 1.1229 -0.6543 0
M  V30 11 H 3.5145 -1.0317 1.291 0
M  V30 12 H 2.1368 1.4291 0.9249 0
M  V30 13 H 1.6143 -0.0339 1.8293 0
M  V30 14 H 2.1088 0.1594 -1.2241 0
M  V30 15 H 1.6312 -1.3289 -0.3778 0
M  V30 16 H 0.6067 2.0896 -1.3927 0
M  V30 17 H -3.1245 -0.7144 0.2847 0
M  V30 18 H -0.3961 -2.6531 -0.1125 0
M  V30 19 H -1.6551 -2.3435 1.1347 0
M  V30 20 H 0.0393 -1.8663 1.4611 0
M  V30 21 H -1.7181 2.8766 -1.5701 0
M  V30 22 H -3.5788 1.4748 -0.7368 0
M  V30 END ATOM
M  V30 BEGIN BOND
M  V30 1 1 1 2
M  V30 2 1 2 3
M  V30 3 1 3 4
M  V30 4 2 4 5
M  V30 5 1 4 6
M  V30 6 1 5 7
M  V30 7 1 5 8
M  V30 8 2 6 9
M  V30 9 2 7 10
M  V30 10 1 9 10
M  V30 11 1 1 11
M  V30 12 1 2 12
M  V30 13 1 2 13
M  V30 14 1 3 14
M  V30 15 1 3 15
M  V30 16 1 6 16
M  V30 17 1 7 17
M  V30 18 1 8 18
M  V30 19 1 8 19
M  V30 20 1 8 20
M  V30 21 1 9 21
M  V30 22 1 10 22
M  V30 END BOND
M  V30 END CTAB
M  END
>  <Structure No>
910

>  <LogS>
-1.042878011

>  <MMFF94 Energy>
33.327

$$$$
Compound 911
Actelion Java MolfileCreator 2.0

  0  0  0  0  0  0              0 V3000
M  V30 BEGIN CTAB
M  V30 COUNTS 14 14 0 0 0
M  V30 BEGIN ATOM
M  V30 1 Cl -3.0141 1.0582 0.0813 0
M  V30 2 C -1.3437 0.5118 0.028 0
M  V30 3 C -1.016 -0.8579 -0.0297 0
M  V30 4 C -0.323 1.4703 0.0439 0
M  V30 5 O -1.999 -1.8479 -0.0473 0
M  V30 6 C 0.329 -1.2455 -0.0706 0
M  V30 7 C 1.0164 1.0749 0.0027 0
M  V30 8 C 1.3458 -0.2852 -0.0546 0
M  V30 9 O 2.6772 -0.6923 -0.0961 0
M  V30 10 H -0.5671 2.5243 0.0882 0
M  V30 11 H -2.9885 -1.6368 -0.0199 0
M  V30 12 H 0.5843 -2.297 -0.115 0
M  V30 13 H 1.7965 1.8254 0.0155 0
M  V30 14 H 3.4366 -0.0212 -0.0858 0
M  V30 END ATOM
M  V30 BEGIN BOND
M  V30 1 1 1 2
M  V30 2 2 2 3
M  V30 3 1 2 4
M  V30 4 1 3 5
M  V30 5 1 3 6
M  V30 6 2 4 7
M  V30 7 2 6 8
M  V30 8 1 8 9
M  V30 9 1 7 8
M  V30 10 1 4 10
M  V30 11 1 5 11
M  V30 12 1 6 12
M  V30 13 1 7 13
M  V30 14 1 9 14
M  V30 END BOND
M  V30 END CTAB
M  END
>  <Structure No>
911

>  <LogS>
-1.070567643

>  <MMFF94 Energy>
11.867

$$$$
Compound 912
Actelion Java MolfileCreator 2.0

  0  0  0  0  0  0              0 V3000
M  V30 BEGIN CTAB
M  V30 COUNTS 27 28 0 0 0
M  V30 BEGIN ATOM
M  V30 1 O 2.8022 -0.0799 1.2002 0
M  V30 2 C 1.8931 -0.0013 0.1333 0 CFG=2
M  V30 3 C 0.8981 1.1382 0.4163 0
M  V30 4 C 1.1586 -1.3905 -0.0572 0
M  V30 5 C 1.2896 2.4176 0.4342 0
M  V30 6 C -0.5595 0.7528 0.6495 0 CFG=1
M  V30 7 C -0.3689 -1.3148 0.2607 0 CFG=2
M  V30 8 C -1.0426 -0.1505 -0.5086 0
M  V30 9 C -0.5062 -0.4904 1.551 0
M  V30 10 C -2.5854 -0.2887 -0.5333 0
M  V30 11 C -0.5575 0.1709 -1.9485 0
M  V30 12 H 3.5702 -0.6222 0.8812 0
M  V30 13 H 2.4497 0.2428 -0.8012 0
M  V30 14 H 1.2968 -1.7523 -1.0984 0
M  V30 15 H 1.6164 -2.1582 0.6038 0
M  V30 16 H 2.328 2.6794 0.2571 0
M  V30 17 H 0.5768 3.2139 0.624 0
M  V30 18 H -1.2503 1.5587 0.9827 0
M  V30 19 H -0.9076 -2.2872 0.256 0
M  V30 20 H -1.4677 -0.6775 2.0769 0
M  V30 21 H 0.3467 -0.549 2.2657 0
M  V30 22 H -3.0458 0.6613 -0.8789 0
M  V30 23 H -2.8816 -1.1 -1.2318 0
M  V30 24 H -3.0155 -0.5278 0.4605 0
M  V30 25 H 0.5269 0.3415 -2.0527 0
M  V30 26 H -0.8262 -0.6671 -2.6256 0
M  V30 27 H -1.0618 1.0907 -2.3136 0
M  V30 END ATOM
M  V30 BEGIN BOND
M  V30 1 1 1 2
M  V30 2 1 2 3
M  V30 3 1 2 4
M  V30 4 2 3 5
M  V30 5 1 3 6
M  V30 6 1 4 7
M  V30 7 1 6 8
M  V30 8 1 6 9
M  V30 9 1 8 10
M  V30 10 1 8 11
M  V30 11 1 7 8
M  V30 12 1 7 9
M  V30 13 1 1 12
M  V30 14 1 2 13
M  V30 15 1 4 14
M  V30 16 1 4 15
M  V30 17 1 5 16
M  V30 18 1 5 17
M  V30 19 1 6 18
M  V30 20 1 7 19
M  V30 21 1 9 20
M  V30 22 1 9 21
M  V30 23 1 10 22
M  V30 24 1 10 23
M  V30 25 1 10 24
M  V30 26 1 11 25
M  V30 27 1 11 26
M  V30 28 1 11 27
M  V30 END BOND
M  V30 BEGIN COLLECTION
M  V30 MDLV30/STEABS ATOMS=(3 2 6 7)
M  V30 END COLLECTION
M  V30 END CTAB
M  END
>  <Structure No>
912

>  <LogS>
-2.09612479

>  <MMFF94 Energy>
35.572

$$$$
Compound 913
Actelion Java MolfileCreator 2.0

  0  0  0  0  0  0              0 V3000
M  V30 BEGIN CTAB
M  V30 COUNTS 28 28 0 0 0
M  V30 BEGIN ATOM
M  V30 1 O 3.9323 -0.2356 0.0785 0
M  V30 2 C 2.6059 -0.0756 0.5155 0 CFG=1
M  V30 3 C 1.9436 1.119 -0.1842 0
M  V30 4 C 1.795 -1.3555 0.27 0
M  V30 5 C 0.4964 1.3004 0.2893 0
M  V30 6 C 0.347 -1.1884 0.7463 0
M  V30 7 C -0.3541 0.0209 0.0735 0 CFG=1
M  V30 8 C -1.8128 0.2073 0.6108 0
M  V30 9 C -2.5236 1.4035 -0.0507 0
M  V30 10 C -2.6712 -1.0547 0.4006 0
M  V30 11 H 3.9097 -0.4135 -0.8983 0
M  V30 12 H 2.6327 0.1237 1.6098 0
M  V30 13 H 2.5193 2.0428 0.0414 0
M  V30 14 H 1.9536 0.9695 -1.2868 0
M  V30 15 H 1.7989 -1.6081 -0.8134 0
M  V30 16 H 2.2646 -2.1993 0.8205 0
M  V30 17 H 0.0729 2.1466 -0.29 0
M  V30 18 H 0.4923 1.581 1.3659 0
M  V30 19 H 0.3334 -1.0672 1.8522 0
M  V30 20 H -0.1837 -2.1299 0.4952 0
M  V30 21 H -0.4073 -0.1767 -1.021 0
M  V30 22 H -1.7697 0.4056 1.7051 0
M  V30 23 H -2.0827 2.3627 0.2891 0
M  V30 24 H -3.5958 1.4349 0.239 0
M  V30 25 H -2.4571 1.3358 -1.1576 0
M  V30 26 H -2.3371 -1.8755 1.0675 0
M  V30 27 H -2.6208 -1.3914 -0.6568 0
M  V30 28 H -3.7333 -0.8571 0.66 0
M  V30 END ATOM
M  V30 BEGIN BOND
M  V30 1 1 1 2
M  V30 2 1 2 3
M  V30 3 1 2 4
M  V30 4 1 3 5
M  V30 5 1 4 6
M  V30 6 1 5 7
M  V30 7 1 7 8
M  V30 8 1 8 9
M  V30 9 1 8 10
M  V30 10 1 6 7
M  V30 11 1 1 11
M  V30 12 1 2 12
M  V30 13 1 3 13
M  V30 14 1 3 14
M  V30 15 1 4 15
M  V30 16 1 4 16
M  V30 17 1 5 17
M  V30 18 1 5 18
M  V30 19 1 6 19
M  V30 20 1 6 20
M  V30 21 1 7 21
M  V30 22 1 8 22
M  V30 23 1 9 23
M  V30 24 1 9 24
M  V30 25 1 9 25
M  V30 26 1 10 26
M  V30 27 1 10 27
M  V30 28 1 10 28
M  V30 END BOND
M  V30 BEGIN COLLECTION
M  V30 MDLV30/STEABS ATOMS=(2 2 7)
M  V30 END COLLECTION
M  V30 END CTAB
M  END
>  <Structure No>
913

>  <LogS>
-2.068094275

>  <MMFF94 Energy>
19.121

$$$$
Compound 914
Actelion Java MolfileCreator 2.0

  0  0  0  0  0  0              0 V3000
M  V30 BEGIN CTAB
M  V30 COUNTS 14 14 0 0 0
M  V30 BEGIN ATOM
M  V30 1 Cl -1.633 2.9236 -0.3436 0
M  V30 2 C -0.9799 1.3012 -0.158 0
M  V30 3 C -1.8256 0.1872 -0.0327 0
M  V30 4 C 0.4091 1.1282 -0.136 0
M  V30 5 Cl -3.5754 0.3616 -0.0553 0
M  V30 6 C -1.2739 -1.0891 0.1133 0
M  V30 7 C 0.97 -0.1542 0.0107 0
M  V30 8 C 0.1126 -1.2608 0.1351 0
M  V30 9 N 2.3981 -0.3337 0.0335 0 CHG=1
M  V30 10 O 3.1652 0.6453 -0.0763 0
M  V30 11 O 2.9427 -1.5893 0.1772 0 CHG=-1
M  V30 12 H 1.0488 1.9962 -0.2335 0
M  V30 13 H -1.9202 -1.9522 0.2104 0
M  V30 14 H 0.5129 -2.2597 0.2494 0
M  V30 END ATOM
M  V30 BEGIN BOND
M  V30 1 1 1 2
M  V30 2 2 2 3
M  V30 3 1 2 4
M  V30 4 1 3 5
M  V30 5 1 3 6
M  V30 6 2 4 7
M  V30 7 2 6 8
M  V30 8 1 7 9
M  V30 9 2 9 10
M  V30 10 1 9 11
M  V30 11 1 7 8
M  V30 12 1 4 12
M  V30 13 1 6 13
M  V30 14 1 8 14
M  V30 END BOND
M  V30 END CTAB
M  END
>  <Structure No>
914

>  <LogS>
-3.20051812

>  <MMFF94 Energy>
47.245

$$$$
Compound 915
Actelion Java MolfileCreator 2.0

  0  0  0  0  0  0              0 V3000
M  V30 BEGIN CTAB
M  V30 COUNTS 41 43 0 0 0
M  V30 BEGIN ATOM
M  V30 1 Cl -5.5591 -1.7349 -2.6031 0
M  V30 2 C -5.0011 -0.5913 -1.3861 0
M  V30 3 C -5.8568 0.379 -0.8305 0
M  V30 4 C -3.669 -0.6694 -0.9663 0
M  V30 5 S -7.5444 0.5064 -1.3394 0
M  V30 6 C -5.3576 1.2575 0.1417 0
M  V30 7 C -3.1675 0.2091 0.0068 0
M  V30 8 O -8.2214 1.649 -0.6352 0
M  V30 9 O -8.2675 -0.7676 -1.0059 0
M  V30 10 O -7.6117 0.779 -2.9957 0 CHG=-1
M  V30 11 C -4.0256 1.1788 0.5623 0
M  V30 12 N -1.8004 0.0969 0.4367 0
M  V30 13 Cl -3.4545 2.3534 1.7416 0
M  V30 14 N -1.3891 0.1383 1.7698 0
M  V30 15 C -0.6701 -0.241 -0.3486 0
M  V30 16 C -0.1252 -0.141 1.8543 0
M  V30 17 O -0.6744 -0.3208 -1.6059 0
M  V30 18 C 0.5202 -0.4194 0.5206 0 CFG=1
M  V30 19 C 0.6095 -0.1236 3.154 0
M  V30 20 N 0.9809 -1.8079 0.4535 0
M  V30 21 N 2.1639 -2.189 0.1536 0
M  V30 22 C 3.2774 -1.3195 -0.0924 0
M  V30 23 C 3.7323 -0.4326 0.8954 0
M  V30 24 C 3.9847 -1.4333 -1.2947 0
M  V30 25 C 4.8487 0.3742 0.6567 0
M  V30 26 C 5.1017 -0.6269 -1.5345 0
M  V30 27 C 5.5315 0.2888 -0.5642 0
M  V30 28 S 6.9455 1.2942 -0.86 0
M  V30 29 O 6.8104 2.5952 -0.1198 0
M  V30 30 O 7.0664 1.5852 -2.3295 0
M  V30 31 O 8.3229 0.4907 -0.3331 0 CHG=-1
M  V30 32 H -3.0293 -1.4352 -1.3854 0
M  V30 33 H -6.0007 2.0137 0.5732 0
M  V30 34 H 1.2939 0.3339 0.272 0
M  V30 35 H 1.3347 0.7162 3.1574 0
M  V30 36 H 1.1545 -1.081 3.288 0
M  V30 37 H -0.098 0.0075 4.0001 0
M  V30 38 H 3.2295 -0.3748 1.8508 0
M  V30 39 H 3.6639 -2.1413 -2.0484 0
M  V30 40 H 5.185 1.0566 1.4269 0
M  V30 41 H 5.6328 -0.7213 -2.473 0
M  V30 END ATOM
M  V30 BEGIN BOND
M  V30 1 1 1 2
M  V30 2 2 2 3
M  V30 3 1 2 4
M  V30 4 1 3 5
M  V30 5 1 3 6
M  V30 6 2 4 7
M  V30 7 2 5 8
M  V30 8 2 5 9
M  V30 9 1 5 10
M  V30 10 2 6 11
M  V30 11 1 7 12
M  V30 12 1 11 13
M  V30 13 1 12 14
M  V30 14 1 12 15
M  V30 15 2 14 16
M  V30 16 2 15 17
M  V30 17 1 15 18
M  V30 18 1 16 19
M  V30 19 1 18 20
M  V30 20 2 20 21
M  V30 21 1 21 22
M  V30 22 2 22 23
M  V30 23 1 22 24
M  V30 24 1 23 25
M  V30 25 2 24 26
M  V30 26 2 25 27
M  V30 27 1 27 28
M  V30 28 2 28 29
M  V30 29 2 28 30
M  V30 30 1 28 31
M  V30 31 1 7 11
M  V30 32 1 16 18
M  V30 33 1 26 27
M  V30 34 1 4 32
M  V30 35 1 6 33
M  V30 36 1 18 34
M  V30 37 1 19 35
M  V30 38 1 19 36
M  V30 39 1 19 37
M  V30 40 1 23 38
M  V30 41 1 24 39
M  V30 42 1 25 40
M  V30 43 1 26 41
M  V30 END BOND
M  V30 BEGIN COLLECTION
M  V30 MDLV30/STEABS ATOMS=(1 18)
M  V30 END COLLECTION
M  V30 END CTAB
M  END
>  <Structure No>
915

>  <LogS>
-0.66054277

>  <MMFF94 Energy>
156.15

$$$$
Compound 916
Actelion Java MolfileCreator 2.0

  0  0  0  0  0  0              0 V3000
M  V30 BEGIN CTAB
M  V30 COUNTS 18 17 0 0 0
M  V30 BEGIN ATOM
M  V30 1 O 0.4122 -2.393 -0.8247 0
M  V30 2 C 0.405 -1.7802 0.2765 0
M  V30 3 O 0.7546 -2.4645 1.4349 0 CHG=-1
M  V30 4 C -0.0487 -0.3334 0.3478 0
M  V30 5 O 0.2647 0.211 1.6111 0
M  V30 6 C -1.5886 -0.3218 0.1875 0
M  V30 7 C 0.6136 0.5141 -0.7776 0
M  V30 8 C -2.1834 1.0469 0.3489 0
M  V30 9 C 2.1144 0.4863 -0.7338 0
M  V30 10 O -2.3935 1.5161 1.4984 0
M  V30 11 O -2.4814 1.8132 -0.7709 0 CHG=-1
M  V30 12 O 2.7509 -0.4142 -1.3412 0
M  V30 13 O 2.8073 1.4427 -0.0023 0 CHG=-1
M  V30 14 H 1.2402 0.1092 1.7638 0
M  V30 15 H -1.8719 -0.7205 -0.8115 0
M  V30 16 H -2.0475 -0.9918 0.9485 0
M  V30 17 H 0.2764 0.1545 -1.7748 0
M  V30 18 H 0.2906 1.5732 -0.6879 0
M  V30 END ATOM
M  V30 BEGIN BOND
M  V30 1 2 1 2
M  V30 2 1 2 3
M  V30 3 1 2 4
M  V30 4 1 4 5
M  V30 5 1 4 6
M  V30 6 1 4 7
M  V30 7 1 6 8
M  V30 8 1 7 9
M  V30 9 2 8 10
M  V30 10 1 8 11
M  V30 11 2 9 12
M  V30 12 1 9 13
M  V30 13 1 5 14
M  V30 14 1 6 15
M  V30 15 1 6 16
M  V30 16 1 7 17
M  V30 17 1 7 18
M  V30 END BOND
M  V30 END CTAB
M  END
>  <Structure No>
916

>  <LogS>
0.660921397

>  <MMFF94 Energy>
246.94

$$$$
Compound 917
Actelion Java MolfileCreator 2.0

  0  0  0  0  0  0              0 V3000
M  V30 BEGIN CTAB
M  V30 COUNTS 32 33 0 0 0
M  V30 BEGIN ATOM
M  V30 1 S -4.9478 0.937 1.7894 0
M  V30 2 O -4.1948 1.8445 2.7215 0
M  V30 3 O -5.6899 -0.0849 2.6038 0
M  V30 4 O -6.0378 1.8616 0.9065 0 CHG=-1
M  V30 5 C -3.8331 0.1202 0.685 0
M  V30 6 C -4.2951 -0.7647 -0.3188 0
M  V30 7 C -2.4544 0.3599 0.8098 0
M  V30 8 N -5.6896 -1.0527 -0.4927 0
M  V30 9 C -3.3674 -1.3827 -1.1707 0
M  V30 10 C -1.5363 -0.2607 -0.0428 0
M  V30 11 C -2.0008 -1.1351 -1.0366 0
M  V30 12 N -0.1402 0.0152 0.123 0
M  V30 13 N 0.7484 -0.5148 -0.6177 0
M  V30 14 C 2.1439 -0.2382 -0.4511 0
M  V30 15 C 2.6097 0.6372 0.5468 0
M  V30 16 C 3.0644 -0.8593 -1.3035 0
M  V30 17 C 3.9791 0.8847 0.682 0
M  V30 18 C 4.4335 -0.6111 -1.1675 0
M  V30 19 C 4.8963 0.2667 -0.1782 0
M  V30 20 S 6.6212 0.5687 0.0013 0
M  V30 21 O 6.8437 1.9573 0.5317 0
M  V30 22 O 7.3024 0.4465 -1.3325 0
M  V30 23 O 7.276 -0.5498 1.0691 0 CHG=-1
M  V30 24 H -2.0845 1.0328 1.5728 0
M  V30 25 H -6.004 -1.7055 -1.245 0
M  V30 26 H -6.4292 -0.6377 0.1131 0
M  V30 27 H -3.7061 -2.0617 -1.9433 0
M  V30 28 H -1.3098 -1.6274 -1.7087 0
M  V30 29 H 1.9185 1.1268 1.2208 0
M  V30 30 H 2.7187 -1.538 -2.0732 0
M  V30 31 H 4.3228 1.5564 1.4585 0
M  V30 32 H 5.1308 -1.1049 -1.8322 0
M  V30 END ATOM
M  V30 BEGIN BOND
M  V30 1 2 1 2
M  V30 2 2 1 3
M  V30 3 1 1 4
M  V30 4 1 1 5
M  V30 5 2 5 6
M  V30 6 1 5 7
M  V30 7 1 6 8
M  V30 8 1 6 9
M  V30 9 2 7 10
M  V30 10 2 9 11
M  V30 11 1 10 12
M  V30 12 2 12 13
M  V30 13 1 13 14
M  V30 14 2 14 15
M  V30 15 1 14 16
M  V30 16 1 15 17
M  V30 17 2 16 18
M  V30 18 2 17 19
M  V30 19 1 19 20
M  V30 20 2 20 21
M  V30 21 2 20 22
M  V30 22 1 20 23
M  V30 23 1 10 11
M  V30 24 1 18 19
M  V30 25 1 7 24
M  V30 26 1 8 25
M  V30 27 1 8 26
M  V30 28 1 9 27
M  V30 29 1 11 28
M  V30 30 1 15 29
M  V30 31 1 16 30
M  V30 32 1 17 31
M  V30 33 1 18 32
M  V30 END BOND
M  V30 END CTAB
M  END
>  <Structure No>
917

>  <LogS>
-0.524323625

>  <MMFF94 Energy>
124.11

$$$$
Compound 918
Actelion Java MolfileCreator 2.0

  0  0  0  0  0  0              0 V3000
M  V30 BEGIN CTAB
M  V30 COUNTS 62 61 0 0 0
M  V30 BEGIN ATOM
M  V30 1 O 1.8884 4.884 0.6291 0
M  V30 2 C 1.6124 3.847 1.2948 0
M  V30 3 O 0.3498 3.2578 1.1953 0
M  V30 4 C 2.6146 3.2353 2.1814 0
M  V30 5 C -0.678 3.7799 0.36 0
M  V30 6 C 3.8684 3.6774 2.2585 0
M  V30 7 C -1.9314 2.9065 0.4533 0
M  V30 8 C -1.7416 1.5397 -0.2066 0
M  V30 9 O -0.7817 0.7898 0.5077 0
M  V30 10 C -0.5754 -0.4779 -0.0953 0
M  V30 11 C 0.8636 -0.5501 -0.6159 0
M  V30 12 C -0.8169 -1.5697 0.9586 0
M  V30 13 O 1.035 0.4044 -1.6446 0
M  V30 14 O -2.1247 -1.4634 1.4924 0
M  V30 15 C 2.4052 0.5503 -1.9665 0
M  V30 16 C -3.0449 -2.2615 0.7708 0
M  V30 17 C 2.9961 1.7399 -1.2016 0
M  V30 18 C -3.2076 -3.6243 1.4533 0
M  V30 19 C 4.4657 1.97 -1.5497 0
M  V30 20 C -4.121 -4.5728 0.6683 0
M  V30 21 O 5.2485 0.8694 -1.1024 0
M  V30 22 O -5.4764 -4.1266 0.6979 0
M  V30 23 C 6.6337 0.8035 -1.2802 0
M  V30 24 C -6.0519 -3.3209 -0.291 0
M  V30 25 O 7.2467 1.7318 -1.8714 0
M  V30 26 C 7.3937 -0.3497 -0.7777 0
M  V30 27 O -5.3938 -2.9944 -1.3171 0
M  V30 28 C -7.4393 -2.8633 -0.116 0
M  V30 29 C 6.8093 -1.3575 -0.1342 0
M  V30 30 C -8.066 -2.1137 -1.0214 0
M  V30 31 H 2.3237 2.3806 2.7802 0
M  V30 32 H -0.3254 3.828 -0.6934 0
M  V30 33 H -0.932 4.8081 0.6946 0
M  V30 34 H 4.5723 3.1872 2.9199 0
M  V30 35 H 4.2097 4.5184 1.669 0
M  V30 36 H -2.2173 2.7722 1.5203 0
M  V30 37 H -2.7671 3.4312 -0.0594 0
M  V30 38 H -2.7241 1.0141 -0.1926 0
M  V30 39 H -1.4237 1.6877 -1.2647 0
M  V30 40 H -1.2532 -0.686 -0.9593 0
M  V30 41 H 1.5588 -0.3638 0.2349 0
M  V30 42 H 1.0533 -1.5689 -1.022 0
M  V30 43 H -0.1011 -1.4234 1.7956 0
M  V30 44 H -0.6002 -2.5798 0.5386 0
M  V30 45 H 2.4776 0.7591 -3.0552 0
M  V30 46 H 3.0029 -0.375 -1.7816 0
M  V30 47 H -4.0228 -1.7361 0.7877 0
M  V30 48 H -2.7712 -2.3884 -0.3028 0
M  V30 49 H 2.417 2.6563 -1.4508 0
M  V30 50 H 2.91 1.5607 -0.1098 0
M  V30 51 H -2.2103 -4.1038 1.5524 0
M  V30 52 H -3.6181 -3.4774 2.4756 0
M  V30 53 H 4.8111 2.8966 -1.0441 0
M  V30 54 H 4.5836 2.0981 -2.6466 0
M  V30 55 H -3.76 -4.7055 -0.3749 0
M  V30 56 H -4.0798 -5.5694 1.1552 0
M  V30 57 H 8.4651 -0.3786 -0.9337 0
M  V30 58 H -7.9689 -3.148 0.7842 0
M  V30 59 H 5.7416 -1.3718 0.0465 0
M  V30 60 H 7.4062 -2.1863 0.2234 0
M  V30 61 H -7.5781 -1.8122 -1.9384 0
M  V30 62 H -9.0848 -1.7951 -0.8474 0
M  V30 END ATOM
M  V30 BEGIN BOND
M  V30 1 2 1 2
M  V30 2 1 2 3
M  V30 3 1 2 4
M  V30 4 1 3 5
M  V30 5 2 4 6
M  V30 6 1 5 7
M  V30 7 1 7 8
M  V30 8 1 8 9
M  V30 9 1 9 10
M  V30 10 1 10 11
M  V30 11 1 10 12
M  V30 12 1 11 13
M  V30 13 1 12 14
M  V30 14 1 13 15
M  V30 15 1 14 16
M  V30 16 1 15 17
M  V30 17 1 16 18
M  V30 18 1 17 19
M  V30 19 1 18 20
M  V30 20 1 19 21
M  V30 21 1 20 22
M  V30 22 1 21 23
M  V30 23 1 22 24
M  V30 24 2 23 25
M  V30 25 1 23 26
M  V30 26 2 24 27
M  V30 27 1 24 28
M  V30 28 2 26 29
M  V30 29 2 28 30
M  V30 30 1 4 31
M  V30 31 1 5 32
M  V30 32 1 5 33
M  V30 33 1 6 34
M  V30 34 1 6 35
M  V30 35 1 7 36
M  V30 36 1 7 37
M  V30 37 1 8 38
M  V30 38 1 8 39
M  V30 39 1 10 40
M  V30 40 1 11 41
M  V30 41 1 11 42
M  V30 42 1 12 43
M  V30 43 1 12 44
M  V30 44 1 15 45
M  V30 45 1 15 46
M  V30 46 1 16 47
M  V30 47 1 16 48
M  V30 48 1 17 49
M  V30 49 1 17 50
M  V30 50 1 18 51
M  V30 51 1 18 52
M  V30 52 1 19 53
M  V30 53 1 19 54
M  V30 54 1 20 55
M  V30 55 1 20 56
M  V30 56 1 26 57
M  V30 57 1 28 58
M  V30 58 1 29 59
M  V30 59 1 29 60
M  V30 60 1 30 61
M  V30 61 1 30 62
M  V30 END BOND
M  V30 END CTAB
M  END
>  <Structure No>
918

>  <LogS>
-2.552747282

>  <MMFF94 Energy>
48.233

$$$$
Compound 919
Actelion Java MolfileCreator 2.0

  0  0  0  0  0  0              0 V3000
M  V30 BEGIN CTAB
M  V30 COUNTS 29 29 0 0 0
M  V30 BEGIN ATOM
M  V30 1 S 2.6814 -0.2435 -0.3247 0
M  V30 2 O 3.0891 -1.575 0.2416 0
M  V30 3 O 3.2626 -0.1063 -1.7041 0
M  V30 4 C 0.9259 -0.1535 -0.4164 0
M  V30 5 C 3.2738 1.0766 0.7248 0
M  V30 6 C 0.311 0.6285 -1.4021 0
M  V30 7 C 0.1348 -0.8479 0.5077 0
M  V30 8 C 4.7706 0.9533 1.0112 0
M  V30 9 C -1.0826 0.7112 -1.467 0
M  V30 10 C -1.2594 -0.7652 0.4445 0
M  V30 11 O 5.5178 1.1692 -0.156 0
M  V30 12 C -1.8804 0.0304 -0.5351 0
M  V30 13 N -3.3122 0.1152 -0.6379 0
M  V30 14 C -4.2053 0.0712 0.4855 0
M  V30 15 O -3.7683 0.2034 1.6605 0
M  V30 16 C -5.6784 -0.0326 0.2603 0
M  V30 17 H 3.0617 2.0527 0.2388 0
M  V30 18 H 2.7175 1.0383 1.6854 0
M  V30 19 H 0.9092 1.1755 -2.1196 0
M  V30 20 H 0.5956 -1.4579 1.2739 0
M  V30 21 H 5.0526 1.73 1.7528 0
M  V30 22 H 5.0008 -0.0376 1.4666 0
M  V30 23 H -1.543 1.317 -2.2373 0
M  V30 24 H -1.8475 -1.3416 1.1457 0
M  V30 25 H 5.7053 0.2772 -0.5486 0
M  V30 26 H -3.7269 0.3029 -1.579 0
M  V30 27 H -6.1823 -0.4194 1.1713 0
M  V30 28 H -6.0864 0.9699 0.0158 0
M  V30 29 H -5.8842 -0.7265 -0.5813 0
M  V30 END ATOM
M  V30 BEGIN BOND
M  V30 1 2 1 2
M  V30 2 2 1 3
M  V30 3 1 1 4
M  V30 4 1 1 5
M  V30 5 2 4 6
M  V30 6 1 4 7
M  V30 7 1 5 8
M  V30 8 1 6 9
M  V30 9 2 7 10
M  V30 10 1 8 11
M  V30 11 2 9 12
M  V30 12 1 12 13
M  V30 13 1 13 14
M  V30 14 2 14 15
M  V30 15 1 14 16
M  V30 16 1 10 12
M  V30 17 1 5 17
M  V30 18 1 5 18
M  V30 19 1 6 19
M  V30 20 1 7 20
M  V30 21 1 8 21
M  V30 22 1 8 22
M  V30 23 1 9 23
M  V30 24 1 10 24
M  V30 25 1 11 25
M  V30 26 1 13 26
M  V30 27 1 16 27
M  V30 28 1 16 28
M  V30 29 1 16 29
M  V30 END BOND
M  V30 END CTAB
M  END
>  <Structure No>
919

>  <LogS>
-2.306932302

>  <MMFF94 Energy>
21.915

$$$$
Compound 920
Actelion Java MolfileCreator 2.0

  0  0  0  0  0  0              0 V3000
M  V30 BEGIN CTAB
M  V30 COUNTS 4 3 0 0 0
M  V30 BEGIN ATOM
M  V30 1 C 0.623 0.1384 -0.0692 0
M  V30 2 C -0.5699 -0.0142 0.0102 0
M  V30 3 H 1.6705 0.2725 -0.1388 0
M  V30 4 H -1.6174 -0.1482 0.0799 0
M  V30 END ATOM
M  V30 BEGIN BOND
M  V30 1 3 1 2
M  V30 2 1 1 3
M  V30 3 1 2 4
M  V30 END BOND
M  V30 END CTAB
M  END
>  <Structure No>
920

>  <LogS>
-1.336426377

>  <MMFF94 Energy>
MMFF94 error code 2

$$$$
Compound 921
Actelion Java MolfileCreator 2.0

  0  0  0  0  0  0              0 V3000
M  V30 BEGIN CTAB
M  V30 COUNTS 20 20 0 0 0
M  V30 BEGIN ATOM
M  V30 1 O 1.4163 -1.1014 -1.3376 0
M  V30 2 C 0.9793 -0.3877 -0.392 0
M  V30 3 C -0.4911 -0.2258 -0.2242 0
M  V30 4 C 1.9558 0.2658 0.5585 0
M  V30 5 C -1.3722 -0.7437 -1.1947 0
M  V30 6 C -1.0353 0.4356 0.8963 0
M  V30 7 C 3.4118 0.1285 0.1136 0
M  V30 8 C -2.7554 -0.5997 -1.0496 0
M  V30 9 C -2.4198 0.5757 1.0352 0
M  V30 10 C -3.2788 0.0595 0.0637 0
M  V30 11 H 1.7181 1.3486 0.637 0
M  V30 12 H 1.8457 -0.1949 1.5635 0
M  V30 13 H -0.9939 -1.2576 -2.0693 0
M  V30 14 H -0.4005 0.8416 1.672 0
M  V30 15 H 3.704 -0.9425 0.0714 0
M  V30 16 H 3.555 0.5915 -0.886 0
M  V30 17 H 4.0725 0.6454 0.8411 0
M  V30 18 H -3.4224 -1.0002 -1.8022 0
M  V30 19 H -2.8273 1.0847 1.8994 0
M  V30 20 H -4.3498 0.1695 0.1741 0
M  V30 END ATOM
M  V30 BEGIN BOND
M  V30 1 2 1 2
M  V30 2 1 2 3
M  V30 3 1 2 4
M  V30 4 2 3 5
M  V30 5 1 3 6
M  V30 6 1 4 7
M  V30 7 1 5 8
M  V30 8 2 6 9
M  V30 9 2 8 10
M  V30 10 1 9 10
M  V30 11 1 4 11
M  V30 12 1 4 12
M  V30 13 1 5 13
M  V30 14 1 6 14
M  V30 15 1 7 15
M  V30 16 1 7 16
M  V30 17 1 7 17
M  V30 18 1 8 18
M  V30 19 1 9 19
M  V30 20 1 10 20
M  V30 END BOND
M  V30 END CTAB
M  END
>  <Structure No>
921

>  <LogS>
-2.048500068

>  <MMFF94 Energy>
34.203

$$$$
Compound 922
Actelion Java MolfileCreator 2.0

  0  0  0  0  0  0              0 V3000
M  V30 BEGIN CTAB
M  V30 COUNTS 26 26 0 0 0
M  V30 BEGIN ATOM
M  V30 1 O 4.8903 -1.1814 0.3936 0
M  V30 2 C 4.2573 -0.1912 -0.0601 0
M  V30 3 C 2.7835 -0.1501 -0.0298 0
M  V30 4 C 2.0382 -1.2104 0.5045 0
M  V30 5 C 2.1111 0.9646 -0.5421 0
M  V30 6 C 0.6414 -1.1571 0.5263 0
M  V30 7 C 0.7154 1.0218 -0.5222 0
M  V30 8 C -0.053 -0.0365 0.0119 0
M  V30 9 C -1.5926 0.0656 0.0152 0
M  V30 10 C -2.0251 1.3003 0.8358 0
M  V30 11 C -2.1021 0.2099 -1.4353 0
M  V30 12 C -2.282 -1.1744 0.634 0
M  V30 13 H 4.8133 0.6388 -0.4774 0
M  V30 14 H 2.5348 -2.0846 0.9073 0
M  V30 15 H 2.6668 1.7956 -0.9599 0
M  V30 16 H 0.1245 -2.0045 0.9508 0
M  V30 17 H 0.2385 1.9031 -0.9291 0
M  V30 18 H -1.6299 1.2328 1.8725 0
M  V30 19 H -3.1335 1.3706 0.8882 0
M  V30 20 H -1.6543 2.2431 0.382 0
M  V30 21 H -3.2132 0.2424 -1.4618 0
M  V30 22 H -1.7629 -0.651 -2.0513 0
M  V30 23 H -1.7318 1.1437 -1.9076 0
M  V30 24 H -3.3879 -1.0603 0.6167 0
M  V30 25 H -2.0334 -2.0934 0.0603 0
M  V30 26 H -1.9779 -1.3088 1.6947 0
M  V30 END ATOM
M  V30 BEGIN BOND
M  V30 1 2 1 2
M  V30 2 1 2 3
M  V30 3 2 3 4
M  V30 4 1 3 5
M  V30 5 1 4 6
M  V30 6 2 5 7
M  V30 7 2 6 8
M  V30 8 1 8 9
M  V30 9 1 9 10
M  V30 10 1 9 11
M  V30 11 1 9 12
M  V30 12 1 7 8
M  V30 13 1 2 13
M  V30 14 1 4 14
M  V30 15 1 5 15
M  V30 16 1 6 16
M  V30 17 1 7 17
M  V30 18 1 10 18
M  V30 19 1 10 19
M  V30 20 1 10 20
M  V30 21 1 11 21
M  V30 22 1 11 22
M  V30 23 1 11 23
M  V30 24 1 12 24
M  V30 25 1 12 25
M  V30 26 1 12 26
M  V30 END BOND
M  V30 END CTAB
M  END
>  <Structure No>
922

>  <LogS>
-3.130955276

>  <MMFF94 Energy>
49.215

$$$$
Compound 923
Actelion Java MolfileCreator 2.0

  0  0  0  0  0  0              0 V3000
M  V30 BEGIN CTAB
M  V30 COUNTS 23 24 0 0 0
M  V30 BEGIN ATOM
M  V30 1 S -3.9927 -0.2492 0.083 0
M  V30 2 O -4.6105 -1.588 -0.2078 0
M  V30 3 O -4.3918 0.7121 -1.0011 0
M  V30 4 O -4.5498 0.3137 1.564 0 CHG=-1
M  V30 5 C -2.2391 -0.3966 0.1348 0
M  V30 6 C -1.4319 0.7002 -0.1968 0
M  V30 7 C -1.6459 -1.6032 0.5296 0
M  V30 8 C -0.0336 0.5906 -0.147 0
M  V30 9 C -0.2547 -1.7229 0.5826 0
M  V30 10 C 0.5607 -0.6326 0.2451 0
M  V30 11 C 0.7814 1.6822 -0.4812 0
M  V30 12 C 1.959 -0.7421 0.2952 0
M  V30 13 C 2.1728 1.5626 -0.4283 0
M  V30 14 C 2.767 0.3535 -0.0411 0
M  V30 15 N 4.1916 0.2383 0.0109 0
M  V30 16 H -1.8929 1.6361 -0.4906 0
M  V30 17 H -2.2605 -2.4526 0.7993 0
M  V30 18 H 0.1828 -2.6656 0.8886 0
M  V30 19 H 0.3435 2.6263 -0.783 0
M  V30 20 H 2.4216 -1.6754 0.5948 0
M  V30 21 H 2.7893 2.4137 -0.6893 0
M  V30 22 H 4.6456 -0.6573 0.2981 0
M  V30 23 H 4.8029 1.0479 -0.2373 0
M  V30 END ATOM
M  V30 BEGIN BOND
M  V30 1 2 1 2
M  V30 2 2 1 3
M  V30 3 1 1 4
M  V30 4 1 1 5
M  V30 5 2 5 6
M  V30 6 1 5 7
M  V30 7 1 6 8
M  V30 8 2 7 9
M  V30 9 1 8 10
M  V30 10 2 8 11
M  V30 11 2 10 12
M  V30 12 1 11 13
M  V30 13 1 12 14
M  V30 14 1 14 15
M  V30 15 1 9 10
M  V30 16 2 13 14
M  V30 17 1 6 16
M  V30 18 1 7 17
M  V30 19 1 9 18
M  V30 20 1 11 19
M  V30 21 1 12 20
M  V30 22 1 13 21
M  V30 23 1 15 22
M  V30 24 1 15 23
M  V30 END BOND
M  V30 END CTAB
M  END
>  <Structure No>
923

>  <LogS>
-3.269616058

>  <MMFF94 Energy>
47.591

$$$$
Compound 924
Actelion Java MolfileCreator 2.0

  0  0  0  0  0  0              0 V3000
M  V30 BEGIN CTAB
M  V30 COUNTS 39 39 0 0 0
M  V30 BEGIN ATOM
M  V30 1 O 2.207 -0.7877 1.8126 0
M  V30 2 C 2.4102 -0.0278 0.8772 0
M  V30 3 C 1.4899 1.1448 0.6577 0
M  V30 4 C 3.5538 -0.2983 -0.0635 0
M  V30 5 C 0.4819 0.8798 -0.4748 0
M  V30 6 C 4.893 -0.1551 0.6517 0
M  V30 7 C -0.6163 -0.171 -0.1058 0 CFG=2
M  V30 8 C -0.7933 -1.1212 -1.2849 0
M  V30 9 C -1.9939 0.4385 0.3411 0
M  V30 10 C -1.7824 -0.9609 -2.1887 0
M  V30 11 C 0.2269 -2.2057 -1.5147 0
M  V30 12 C -2.7223 1.0294 -0.8929 0
M  V30 13 C -2.8666 -0.6684 0.9897 0
M  V30 14 C -1.8186 1.5492 1.4028 0
M  V30 15 C -2.9342 -0.0035 -2.0096 0
M  V30 16 H 2.1045 2.0315 0.3908 0
M  V30 17 H 0.9645 1.3937 1.6022 0
M  V30 18 H 3.4585 -1.3276 -0.4707 0
M  V30 19 H 3.5274 0.4117 -0.9181 0
M  V30 20 H 0.0287 1.8445 -0.7758 0
M  V30 21 H 1.0599 0.555 -1.3688 0
M  V30 22 H 5.7193 -0.3427 -0.0658 0
M  V30 23 H 5.0024 0.8725 1.06 0
M  V30 24 H 4.9702 -0.8902 1.481 0
M  V30 25 H -0.2433 -0.7828 0.7449 0
M  V30 26 H -1.8373 -1.6381 -3.037 0
M  V30 27 H 0.7344 -2.0467 -2.4897 0
M  V30 28 H 0.9972 -2.2081 -0.7158 0
M  V30 29 H -0.2741 -3.1967 -1.5196 0
M  V30 30 H -2.1472 1.8832 -1.3089 0
M  V30 31 H -3.7132 1.4376 -0.5931 0
M  V30 32 H -2.3917 -1.0431 1.9222 0
M  V30 33 H -3.8732 -0.2743 1.249 0
M  V30 34 H -3.0037 -1.5382 0.3147 0
M  V30 35 H -2.8098 1.9155 1.7488 0
M  V30 36 H -1.2724 2.4269 1.0009 0
M  V30 37 H -1.2731 1.16 2.2887 0
M  V30 38 H -3.1129 0.528 -2.9686 0
M  V30 39 H -3.8459 -0.5985 -1.7879 0
M  V30 END ATOM
M  V30 BEGIN BOND
M  V30 1 2 1 2
M  V30 2 1 2 3
M  V30 3 1 2 4
M  V30 4 1 3 5
M  V30 5 1 4 6
M  V30 6 1 5 7
M  V30 7 1 7 8
M  V30 8 1 7 9
M  V30 9 2 8 10
M  V30 10 1 8 11
M  V30 11 1 9 12
M  V30 12 1 9 13
M  V30 13 1 9 14
M  V30 14 1 10 15
M  V30 15 1 12 15
M  V30 16 1 3 16
M  V30 17 1 3 17
M  V30 18 1 4 18
M  V30 19 1 4 19
M  V30 20 1 5 20
M  V30 21 1 5 21
M  V30 22 1 6 22
M  V30 23 1 6 23
M  V30 24 1 6 24
M  V30 25 1 7 25
M  V30 26 1 10 26
M  V30 27 1 11 27
M  V30 28 1 11 28
M  V30 29 1 11 29
M  V30 30 1 12 30
M  V30 31 1 12 31
M  V30 32 1 13 32
M  V30 33 1 13 33
M  V30 34 1 13 34
M  V30 35 1 14 35
M  V30 36 1 14 36
M  V30 37 1 14 37
M  V30 38 1 15 38
M  V30 39 1 15 39
M  V30 END BOND
M  V30 BEGIN COLLECTION
M  V30 MDLV30/STEABS ATOMS=(1 7)
M  V30 END COLLECTION
M  V30 END CTAB
M  END
>  <Structure No>
924

>  <LogS>
-4.321905689

>  <MMFF94 Energy>
31.06

$$$$
Compound 925
Actelion Java MolfileCreator 2.0

  0  0  0  0  0  0              0 V3000
M  V30 BEGIN CTAB
M  V30 COUNTS 29 28 0 0 0
M  V30 BEGIN ATOM
M  V30 1 O 3.6089 -2.3524 1.0972 0
M  V30 2 N 3.1473 -2.3299 -0.0628 0 CHG=1
M  V30 3 O 2.321 -1.3055 -0.4803 0
M  V30 4 O 3.4649 -3.3405 -0.9377 0 CHG=-1
M  V30 5 C 1.9539 -0.2316 0.3813 0
M  V30 6 C 1.0318 0.7562 -0.3613 0 CFG=1
M  V30 7 C -0.2631 0.0963 -0.9048 0
M  V30 8 C 0.7754 2.076 0.4189 0
M  V30 9 C -1.2894 -0.3111 0.1678 0
M  V30 10 C 0.6106 1.927 1.9363 0
M  V30 11 C -2.4148 -1.19 -0.4 0
M  V30 12 C -3.3351 -0.4302 -1.3549 0
M  V30 13 H 1.4563 -0.6403 1.2849 0
M  V30 14 H 2.8768 0.2998 0.7002 0
M  V30 15 H 1.5973 1.0593 -1.2719 0
M  V30 16 H 0.0143 -0.7966 -1.5059 0
M  V30 17 H -0.7455 0.812 -1.6053 0
M  V30 18 H 1.6348 2.7607 0.2466 0
M  V30 19 H -0.1212 2.5883 0.0073 0
M  V30 20 H -1.7381 0.5964 0.6249 0
M  V30 21 H -0.7864 -0.8918 0.9678 0
M  V30 22 H 0.3106 2.9044 2.3696 0
M  V30 23 H -0.1636 1.181 2.1971 0
M  V30 24 H 1.5722 1.6293 2.4044 0
M  V30 25 H -3.0274 -1.5668 0.4475 0
M  V30 26 H -1.985 -2.0732 -0.9206 0
M  V30 27 H -3.7328 0.4846 -0.8666 0
M  V30 28 H -2.7934 -0.1499 -2.2819 0
M  V30 29 H -4.1902 -1.0796 -1.6377 0
M  V30 END ATOM
M  V30 BEGIN BOND
M  V30 1 2 1 2
M  V30 2 1 2 3
M  V30 3 1 2 4
M  V30 4 1 3 5
M  V30 5 1 5 6
M  V30 6 1 6 7
M  V30 7 1 6 8
M  V30 8 1 7 9
M  V30 9 1 8 10
M  V30 10 1 9 11
M  V30 11 1 11 12
M  V30 12 1 5 13
M  V30 13 1 5 14
M  V30 14 1 6 15
M  V30 15 1 7 16
M  V30 16 1 7 17
M  V30 17 1 8 18
M  V30 18 1 8 19
M  V30 19 1 9 20
M  V30 20 1 9 21
M  V30 21 1 10 22
M  V30 22 1 10 23
M  V30 23 1 10 24
M  V30 24 1 11 25
M  V30 25 1 11 26
M  V30 26 1 12 27
M  V30 27 1 12 28
M  V30 28 1 12 29
M  V30 END BOND
M  V30 BEGIN COLLECTION
M  V30 MDLV30/STEABS ATOMS=(1 6)
M  V30 END COLLECTION
M  V30 END CTAB
M  END
>  <Structure No>
925

>  <LogS>
-4.146693491

>  <MMFF94 Energy>
-10.692

$$$$
Compound 926
Actelion Java MolfileCreator 2.0

  0  0  0  0  0  0              0 V3000
M  V30 BEGIN CTAB
M  V30 COUNTS 34 34 0 0 0
M  V30 BEGIN ATOM
M  V30 1 O 1.966 0.786 1.1006 0
M  V30 2 C 0.8786 0.3519 0.2989 0 CFG=1
M  V30 3 C 3.1001 -0.0462 0.9399 0
M  V30 4 C -0.0345 -0.5779 1.1186 0
M  V30 5 C 0.0948 1.5935 -0.1851 0
M  V30 6 C 4.0069 0.498 -0.1584 0
M  V30 7 C -1.212 -1.1471 0.2638 0
M  V30 8 C -1.4099 1.3192 -0.4402 0 CFG=2
M  V30 9 C -1.6452 -0.1455 -0.8549 0
M  V30 10 C -0.7799 -2.4764 -0.3929 0
M  V30 11 C -2.4104 -1.4366 1.1938 0
M  V30 12 C -1.9706 2.2828 -1.4923 0
M  V30 13 H 1.2168 -0.1938 -0.6148 0
M  V30 14 H 2.8418 -1.1116 0.7361 0
M  V30 15 H 3.6687 -0.0381 1.8935 0
M  V30 16 H -0.4265 0.0078 1.9807 0
M  V30 17 H 0.5632 -1.4066 1.5569 0
M  V30 18 H 0.5861 1.9666 -1.1112 0
M  V30 19 H 0.1739 2.4063 0.5708 0
M  V30 20 H 3.4855 0.4762 -1.138 0
M  V30 21 H 4.2985 1.5441 0.0741 0
M  V30 22 H 4.924 -0.1238 -0.2283 0
M  V30 23 H -1.9658 1.5046 0.5058 0
M  V30 24 H -1.0656 -0.3324 -1.7874 0
M  V30 25 H -2.7158 -0.2986 -1.1177 0
M  V30 26 H -0.5287 -3.2355 0.379 0
M  V30 27 H 0.1147 -2.328 -1.0342 0
M  V30 28 H -1.5982 -2.8826 -1.0261 0
M  V30 29 H -2.1119 -2.128 2.0114 0
M  V30 30 H -3.2446 -1.9066 0.6292 0
M  V30 31 H -2.7896 -0.4989 1.6531 0
M  V30 32 H -3.0647 2.1287 -1.6079 0
M  V30 33 H -1.4802 2.119 -2.4759 0
M  V30 34 H -1.7998 3.3338 -1.1753 0
M  V30 END ATOM
M  V30 BEGIN BOND
M  V30 1 1 1 2
M  V30 2 1 1 3
M  V30 3 1 2 4
M  V30 4 1 2 5
M  V30 5 1 3 6
M  V30 6 1 4 7
M  V30 7 1 5 8
M  V30 8 1 7 9
M  V30 9 1 7 10
M  V30 10 1 7 11
M  V30 11 1 8 12
M  V30 12 1 8 9
M  V30 13 1 2 13
M  V30 14 1 3 14
M  V30 15 1 3 15
M  V30 16 1 4 16
M  V30 17 1 4 17
M  V30 18 1 5 18
M  V30 19 1 5 19
M  V30 20 1 6 20
M  V30 21 1 6 21
M  V30 22 1 6 22
M  V30 23 1 8 23
M  V30 24 1 9 24
M  V30 25 1 9 25
M  V30 26 1 10 26
M  V30 27 1 10 27
M  V30 28 1 10 28
M  V30 29 1 11 29
M  V30 30 1 11 30
M  V30 31 1 11 31
M  V30 32 1 12 32
M  V30 33 1 12 33
M  V30 34 1 12 34
M  V30 END BOND
M  V30 BEGIN COLLECTION
M  V30 MDLV30/STEABS ATOMS=(2 2 8)
M  V30 END COLLECTION
M  V30 END CTAB
M  END
>  <Structure No>
926

>  <LogS>
-4.134294434

>  <MMFF94 Energy>
27.008

$$$$
Compound 927
Actelion Java MolfileCreator 2.0

  0  0  0  0  0  0              0 V3000
M  V30 BEGIN CTAB
M  V30 COUNTS 33 32 0 0 0
M  V30 BEGIN ATOM
M  V30 1 O 3.5021 -0.4664 -1.7109 0
M  V30 2 C 3.4596 0.0405 -0.5555 0
M  V30 3 O 2.5474 -0.4316 0.3914 0
M  V30 4 C 4.366 1.1375 -0.1826 0
M  V30 5 C 1.6266 -1.4831 0.115 0
M  V30 6 C 5.2626 1.6453 -1.0262 0
M  V30 7 C 0.7477 -1.7551 1.3393 0
M  V30 8 C 0.0092 -0.5092 1.8668 0
M  V30 9 C -0.91 0.185 0.8453 0
M  V30 10 C -2.0495 -0.728 0.3518 0
M  V30 11 C -3.0882 -0.025 -0.5541 0
M  V30 12 C -3.8863 1.0539 0.1908 0
M  V30 13 C -2.4599 0.5431 -1.8338 0
M  V30 14 H 4.2985 1.5464 0.8177 0
M  V30 15 H 2.1892 -2.4086 -0.1346 0
M  V30 16 H 0.9958 -1.2189 -0.7604 0
M  V30 17 H 5.3664 1.2695 -2.0362 0
M  V30 18 H 5.9076 2.453 -0.7052 0
M  V30 19 H 0.0195 -2.5583 1.0993 0
M  V30 20 H 1.3952 -2.1441 2.1548 0
M  V30 21 H -0.5955 -0.8062 2.7513 0
M  V30 22 H 0.7585 0.2292 2.2258 0
M  V30 23 H -0.3067 0.5522 -0.0101 0
M  V30 24 H -1.3412 1.0753 1.348 0
M  V30 25 H -2.5769 -1.1622 1.2297 0
M  V30 26 H -1.6162 -1.5752 -0.2211 0
M  V30 27 H -3.8159 -0.8065 -0.8678 0
M  V30 28 H -4.2946 0.6466 1.1401 0
M  V30 29 H -3.2559 1.9393 0.4164 0
M  V30 30 H -4.74 1.3896 -0.4357 0
M  V30 31 H -1.8568 -0.2362 -2.3463 0
M  V30 32 H -1.8098 1.4146 -1.608 0
M  V30 33 H -3.2586 0.8765 -2.5303 0
M  V30 END ATOM
M  V30 BEGIN BOND
M  V30 1 2 1 2
M  V30 2 1 2 3
M  V30 3 1 2 4
M  V30 4 1 3 5
M  V30 5 2 4 6
M  V30 6 1 5 7
M  V30 7 1 7 8
M  V30 8 1 8 9
M  V30 9 1 9 10
M  V30 10 1 10 11
M  V30 11 1 11 12
M  V30 12 1 11 13
M  V30 13 1 4 14
M  V30 14 1 5 15
M  V30 15 1 5 16
M  V30 16 1 6 17
M  V30 17 1 6 18
M  V30 18 1 7 19
M  V30 19 1 7 20
M  V30 20 1 8 21
M  V30 21 1 8 22
M  V30 22 1 9 23
M  V30 23 1 9 24
M  V30 24 1 10 25
M  V30 25 1 10 26
M  V30 26 1 11 27
M  V30 27 1 12 28
M  V30 28 1 12 29
M  V30 29 1 12 30
M  V30 30 1 13 31
M  V30 31 1 13 32
M  V30 32 1 13 33
M  V30 END BOND
M  V30 END CTAB
M  END
>  <Structure No>
927

>  <LogS>
-4.170655467

>  <MMFF94 Energy>
2.207

$$$$
Compound 928
Actelion Java MolfileCreator 2.0

  0  0  0  0  0  0              0 V3000
M  V30 BEGIN CTAB
M  V30 COUNTS 33 35 0 0 0
M  V30 BEGIN ATOM
M  V30 1 S -0.5762 0.9056 -1.5646 0
M  V30 2 N 0.9905 0.4894 -0.8559 0
M  V30 3 C -1.5111 0.561 -0.0255 0
M  V30 4 C 1.8668 1.3601 -0.1433 0
M  V30 5 C 1.7271 -0.7188 -1.0358 0
M  V30 6 C -2.8001 1.4145 -0.0168 0
M  V30 7 C -1.7916 -0.9557 0.1254 0
M  V30 8 O 1.5839 2.5442 0.1786 0
M  V30 9 C 3.1225 0.6725 0.1379 0
M  V30 10 O 1.3086 -1.7181 -1.6774 0
M  V30 11 C 3.037 -0.5943 -0.4051 0
M  V30 12 C -3.8758 0.7943 0.8802 0
M  V30 13 C -3.1827 -1.3389 -0.3914 0
M  V30 14 C 4.2668 1.1037 0.8062 0
M  V30 15 C 4.0919 -1.5001 -0.3117 0
M  V30 16 C -4.2974 -0.6017 0.3777 0
M  V30 17 C 5.344 0.206 0.9167 0
M  V30 18 C 5.2571 -1.089 0.3604 0
M  V30 19 H -0.891 0.8822 0.8407 0
M  V30 20 H -3.2131 1.5071 -1.0458 0
M  V30 21 H -2.5634 2.4396 0.3422 0
M  V30 22 H -1.0256 -1.5572 -0.4051 0
M  V30 23 H -1.7277 -1.233 1.2009 0
M  V30 24 H -3.4785 0.7127 1.9162 0
M  V30 25 H -4.7642 1.4615 0.913 0
M  V30 26 H -3.2471 -1.0873 -1.473 0
M  V30 27 H -3.3279 -2.4364 -0.293 0
M  V30 28 H 4.3261 2.0989 1.2274 0
M  V30 29 H 4.0181 -2.4898 -0.743 0
M  V30 30 H -4.61 -1.2144 1.2513 0
M  V30 31 H -5.1817 -0.5023 -0.2889 0
M  V30 32 H 6.2464 0.5109 1.4304 0
M  V30 33 H 6.0933 -1.7699 0.4507 0
M  V30 END ATOM
M  V30 BEGIN BOND
M  V30 1 1 1 2
M  V30 2 1 1 3
M  V30 3 1 2 4
M  V30 4 1 2 5
M  V30 5 1 3 6
M  V30 6 1 3 7
M  V30 7 2 4 8
M  V30 8 1 4 9
M  V30 9 2 5 10
M  V30 10 1 5 11
M  V30 11 1 6 12
M  V30 12 1 7 13
M  V30 13 1 9 14
M  V30 14 1 11 15
M  V30 15 1 12 16
M  V30 16 2 14 17
M  V30 17 2 15 18
M  V30 18 2 9 11
M  V30 19 1 13 16
M  V30 20 1 17 18
M  V30 21 1 3 19
M  V30 22 1 6 20
M  V30 23 1 6 21
M  V30 24 1 7 22
M  V30 25 1 7 23
M  V30 26 1 12 24
M  V30 27 1 12 25
M  V30 28 1 13 26
M  V30 29 1 13 27
M  V30 30 1 14 28
M  V30 31 1 15 29
M  V30 32 1 16 30
M  V30 33 1 16 31
M  V30 34 1 17 32
M  V30 35 1 18 33
M  V30 END BOND
M  V30 END CTAB
M  END
>  <Structure No>
928

>  <LogS>
-4.323794172

>  <MMFF94 Energy>
42.754

$$$$
Compound 929
Actelion Java MolfileCreator 2.0

  0  0  0  0  0  0              0 V3000
M  V30 BEGIN CTAB
M  V30 COUNTS 108 114 0 0 0
M  V30 BEGIN ATOM
M  V30 1 S 5.4815 0.6533 -2.697 0
M  V30 2 O 5.7801 1.7144 -3.7163 0
M  V30 3 O 4.5394 -0.3156 -3.3528 0
M  V30 4 N 6.9688 -0.1848 -2.3277 0
M  V30 5 C 4.696 1.3325 -1.2271 0
M  V30 6 C 7.9211 0.6557 -1.5864 0
M  V30 7 C 3.9683 0.4754 -0.3459 0
M  V30 8 C 4.8019 2.7172 -0.9022 0
M  V30 9 C 7.6825 0.5991 -0.0464 0
M  V30 10 C 9.3522 0.2392 -1.9797 0
M  V30 11 C 3.3497 1.0127 0.8105 0
M  V30 12 C 3.7961 -1.0011 -0.6387 0
M  V30 13 C 4.2481 3.1972 0.2906 0
M  V30 14 C 5.4359 3.7355 -1.818 0
M  V30 15 C 8.7349 -0.2358 0.6895 0
M  V30 16 C 10.3791 0.8108 -0.9975 0
M  V30 17 N 2.4776 0.2017 1.6205 0
M  V30 18 C 3.5355 2.363 1.149 0
M  V30 19 C 10.1582 0.2956 0.4404 0
M  V30 20 C 1.2418 -0.3426 1.1152 0
M  V30 21 C 2.9251 2.9357 2.4013 0
M  V30 22 C 0.6448 -1.4944 1.696 0
M  V30 23 C 0.5811 0.3244 0.0764 0
M  V30 24 C 1.3784 -2.3395 2.6862 0
M  V30 25 C -0.6586 -1.8894 1.2849 0
M  V30 26 C -0.6407 -0.1232 -0.3942 0
M  V30 27 O 2.6165 -2.1795 2.8754 0
M  V30 28 C 0.6849 -3.4318 3.4016 0
M  V30 29 C -1.3667 -2.9554 2.0564 0
M  V30 30 C -1.2792 -1.2233 0.1919 0
M  V30 31 C -0.6533 -3.7364 3.0906 0
M  V30 32 C 1.3554 -4.179 4.3886 0
M  V30 33 O -2.5987 -3.1605 1.8845 0
M  V30 34 N -2.5279 -1.6813 -0.3624 0
M  V30 35 C -1.3032 -4.7794 3.7782 0
M  V30 36 C 0.6973 -5.2043 5.0694 0
M  V30 37 C -3.4299 -0.7935 -1.0512 0
M  V30 38 C -0.6297 -5.5031 4.765 0
M  V30 39 C -4.0218 0.3009 -0.3717 0
M  V30 40 C -3.6566 -0.9782 -2.4244 0
M  V30 41 C -4.7441 1.2908 -1.1065 0
M  V30 42 C -3.8303 0.4079 1.127 0
M  V30 43 C -4.3839 -0.0248 -3.1355 0
M  V30 44 C -3.074 -2.1608 -3.1518 0
M  V30 45 S -5.4526 2.7072 -0.2547 0
M  V30 46 C -4.9032 1.117 -2.5121 0
M  V30 47 O -5.7629 3.8335 -1.1986 0
M  V30 48 O -4.4422 3.2338 0.7269 0
M  V30 49 N -6.9164 2.3137 0.6116 0
M  V30 50 C -5.5691 2.1394 -3.4012 0
M  V30 51 C -7.8594 1.501 -0.1757 0
M  V30 52 C -7.5478 -0.0231 -0.0644 0
M  V30 53 C -9.3027 1.8435 0.2653 0
M  V30 54 C -8.8147 -0.8753 -0.1826 0
M  V30 55 C -9.7796 0.9214 1.3928 0
M  V30 56 C -9.8289 -0.5494 0.9331 0
M  V30 57 H 6.7711 -1.0644 -1.8013 0
M  V30 58 H 7.8178 1.711 -1.9088 0
M  V30 59 H 7.7049 1.6326 0.3652 0
M  V30 60 H 6.6836 0.1812 0.1928 0
M  V30 61 H 9.5732 0.6076 -3.0053 0
M  V30 62 H 9.4411 -0.8696 -1.9945 0
M  V30 63 H 4.711 -1.4485 -1.0626 0
M  V30 64 H 2.9449 -1.1482 -1.3371 0
M  V30 65 H 3.6013 -1.5845 0.2831 0
M  V30 66 H 4.345 4.248 0.5424 0
M  V30 67 H 4.8419 3.8233 -2.7539 0
M  V30 68 H 5.4607 4.7494 -1.3621 0
M  V30 69 H 6.4844 3.471 -2.0484 0
M  V30 70 H 8.5218 -0.218 1.7806 0
M  V30 71 H 8.6625 -1.2923 0.3469 0
M  V30 72 H 10.3031 1.9206 -1.0083 0
M  V30 73 H 11.4036 0.5458 -1.337 0
M  V30 74 H 2.6203 0.2186 2.6553 0
M  V30 75 H 10.3722 1.1218 1.1548 0
M  V30 76 H 10.8805 -0.5205 0.6598 0
M  V30 77 H 1.8288 2.7483 2.4122 0
M  V30 78 H 3.3863 2.4606 3.2938 0
M  V30 79 H 3.0861 4.0325 2.4744 0
M  V30 80 H 1.0123 1.2056 -0.3795 0
M  V30 81 H -1.0961 0.4075 -1.2208 0
M  V30 82 H 2.3871 -3.9699 4.6379 0
M  V30 83 H -2.6648 -2.7075 -0.4821 0
M  V30 84 H -2.332 -5.0376 3.5562 0
M  V30 85 H 1.2158 -5.7699 5.8336 0
M  V30 86 H -1.1385 -6.2999 5.2915 0
M  V30 87 H -2.9604 1.062 1.3534 0
M  V30 88 H -4.7321 0.797 1.6312 0
M  V30 89 H -3.6604 -0.5879 1.587 0
M  V30 90 H -4.5209 -0.1595 -4.2018 0
M  V30 91 H -3.4925 -3.1017 -2.7343 0
M  V30 92 H -3.3074 -2.137 -4.2379 0
M  V30 93 H -1.9678 -2.1676 -3.0373 0
M  V30 94 H -6.6912 1.8627 1.5254 0
M  V30 95 H -5.6794 1.7735 -4.4452 0
M  V30 96 H -4.9476 3.0601 -3.4396 0
M  V30 97 H -6.5922 2.3746 -3.0476 0
M  V30 98 H -7.796 1.7891 -1.2443 0
M  V30 99 H -7.0521 -0.2657 0.9017 0
M  V30 100 H -6.8555 -0.325 -0.878 0
M  V30 101 H -9.3701 2.9064 0.5912 0
M  V30 102 H -9.9939 1.7314 -0.6012 0
M  V30 103 H -8.5486 -1.9543 -0.1451 0
M  V30 104 H -9.2815 -0.6835 -1.174 0
M  V30 105 H -9.084 1.0178 2.2578 0
M  V30 106 H -10.7891 1.2407 1.7346 0
M  V30 107 H -10.8514 -0.7847 0.56 0
M  V30 108 H -9.6353 -1.2044 1.8127 0
M  V30 END ATOM
M  V30 BEGIN BOND
M  V30 1 2 1 2
M  V30 2 2 1 3
M  V30 3 1 1 4
M  V30 4 1 1 5
M  V30 5 1 4 6
M  V30 6 2 5 7
M  V30 7 1 5 8
M  V30 8 1 6 9
M  V30 9 1 6 10
M  V30 10 1 7 11
M  V30 11 1 7 12
M  V30 12 2 8 13
M  V30 13 1 8 14
M  V30 14 1 9 15
M  V30 15 1 10 16
M  V30 16 1 11 17
M  V30 17 2 11 18
M  V30 18 1 15 19
M  V30 19 1 17 20
M  V30 20 1 18 21
M  V30 21 2 20 22
M  V30 22 1 20 23
M  V30 23 1 22 24
M  V30 24 1 22 25
M  V30 25 2 23 26
M  V30 26 2 24 27
M  V30 27 1 24 28
M  V30 28 1 25 29
M  V30 29 2 25 30
M  V30 30 2 28 31
M  V30 31 1 28 32
M  V30 32 2 29 33
M  V30 33 1 30 34
M  V30 34 1 31 35
M  V30 35 2 32 36
M  V30 36 1 34 37
M  V30 37 2 35 38
M  V30 38 2 37 39
M  V30 39 1 37 40
M  V30 40 1 39 41
M  V30 41 1 39 42
M  V30 42 2 40 43
M  V30 43 1 40 44
M  V30 44 1 41 45
M  V30 45 2 41 46
M  V30 46 2 45 47
M  V30 47 2 45 48
M  V30 48 1 45 49
M  V30 49 1 46 50
M  V30 50 1 49 51
M  V30 51 1 51 52
M  V30 52 1 51 53
M  V30 53 1 52 54
M  V30 54 1 53 55
M  V30 55 1 54 56
M  V30 56 1 13 18
M  V30 57 1 16 19
M  V30 58 1 26 30
M  V30 59 1 29 31
M  V30 60 1 36 38
M  V30 61 1 43 46
M  V30 62 1 55 56
M  V30 63 1 4 57
M  V30 64 1 6 58
M  V30 65 1 9 59
M  V30 66 1 9 60
M  V30 67 1 10 61
M  V30 68 1 10 62
M  V30 69 1 12 63
M  V30 70 1 12 64
M  V30 71 1 12 65
M  V30 72 1 13 66
M  V30 73 1 14 67
M  V30 74 1 14 68
M  V30 75 1 14 69
M  V30 76 1 15 70
M  V30 77 1 15 71
M  V30 78 1 16 72
M  V30 79 1 16 73
M  V30 80 1 17 74
M  V30 81 1 19 75
M  V30 82 1 19 76
M  V30 83 1 21 77
M  V30 84 1 21 78
M  V30 85 1 21 79
M  V30 86 1 23 80
M  V30 87 1 26 81
M  V30 88 1 32 82
M  V30 89 1 34 83
M  V30 90 1 35 84
M  V30 91 1 36 85
M  V30 92 1 38 86
M  V30 93 1 42 87
M  V30 94 1 42 88
M  V30 95 1 42 89
M  V30 96 1 43 90
M  V30 97 1 44 91
M  V30 98 1 44 92
M  V30 99 1 44 93
M  V30 100 1 49 94
M  V30 101 1 50 95
M  V30 102 1 50 96
M  V30 103 1 50 97
M  V30 104 1 51 98
M  V30 105 1 52 99
M  V30 106 1 52 100
M  V30 107 1 53 101
M  V30 108 1 53 102
M  V30 109 1 54 103
M  V30 110 1 54 104
M  V30 111 1 55 105
M  V30 112 1 55 106
M  V30 113 1 56 107
M  V30 114 1 56 108
M  V30 END BOND
M  V30 END CTAB
M  END
>  <Structure No>
929

>  <LogS>
-4.818703465

>  <MMFF94 Energy>
17.25

$$$$
Compound 930
Actelion Java MolfileCreator 2.0

  0  0  0  0  0  0              0 V3000
M  V30 BEGIN CTAB
M  V30 COUNTS 35 35 0 0 0
M  V30 BEGIN ATOM
M  V30 1 O 0.5528 -1.1059 2.1338 0
M  V30 2 C 0.0024 -0.5115 0.9937 0
M  V30 3 C 0.8689 0.0989 0.0473 0
M  V30 4 C -1.4038 -0.5089 0.8017 0
M  V30 5 C 0.2767 0.7567 -1.0522 0
M  V30 6 C 2.4155 0.0577 0.2234 0
M  V30 7 C -1.9697 0.2478 -0.2592 0
M  V30 8 C -2.2828 -1.2961 1.753 0
M  V30 9 C -1.1108 0.8369 -1.2157 0
M  V30 10 C 3.1814 0.7382 -0.9422 0
M  V30 11 C 2.8232 0.8001 1.5172 0
M  V30 12 C 2.9084 -1.4078 0.2785 0
M  V30 13 C -3.4756 0.41 -0.3884 0
M  V30 14 C -1.6488 1.5921 -2.409 0
M  V30 15 C -4.0408 -0.6829 -1.1876 0
M  V30 16 N -4.4861 -1.5451 -1.8179 0
M  V30 17 H 0.0143 -1.4202 2.93 0
M  V30 18 H 0.8837 1.2387 -1.8017 0
M  V30 19 H -1.8082 -2.2637 2.0169 0
M  V30 20 H -3.2527 -1.582 1.302 0
M  V30 21 H -2.4661 -0.7032 2.6734 0
M  V30 22 H 4.2807 0.6715 -0.7889 0
M  V30 23 H 2.9542 0.2414 -1.9105 0
M  V30 24 H 2.9294 1.819 -1.0087 0
M  V30 25 H 3.9298 0.8703 1.5995 0
M  V30 26 H 2.4092 1.8316 1.5155 0
M  V30 27 H 2.471 0.2857 2.4318 0
M  V30 28 H 2.5445 -1.9693 -0.6089 0
M  V30 29 H 2.5709 -1.938 1.1894 0
M  V30 30 H 4.0193 -1.4513 0.285 0
M  V30 31 H -3.9656 0.4378 0.6065 0
M  V30 32 H -3.7431 1.3765 -0.8612 0
M  V30 33 H -2.0557 2.571 -2.0794 0
M  V30 34 H -2.4461 1.0062 -2.9119 0
M  V30 35 H -0.8603 1.7833 -3.1676 0
M  V30 END ATOM
M  V30 BEGIN BOND
M  V30 1 1 1 2
M  V30 2 2 2 3
M  V30 3 1 2 4
M  V30 4 1 3 5
M  V30 5 1 3 6
M  V30 6 2 4 7
M  V30 7 1 4 8
M  V30 8 2 5 9
M  V30 9 1 6 10
M  V30 10 1 6 11
M  V30 11 1 6 12
M  V30 12 1 7 13
M  V30 13 1 9 14
M  V30 14 1 13 15
M  V30 15 3 15 16
M  V30 16 1 7 9
M  V30 17 1 1 17
M  V30 18 1 5 18
M  V30 19 1 8 19
M  V30 20 1 8 20
M  V30 21 1 8 21
M  V30 22 1 10 22
M  V30 23 1 10 23
M  V30 24 1 10 24
M  V30 25 1 11 25
M  V30 26 1 11 26
M  V30 27 1 11 27
M  V30 28 1 12 28
M  V30 29 1 12 29
M  V30 30 1 12 30
M  V30 31 1 13 31
M  V30 32 1 13 32
M  V30 33 1 14 33
M  V30 34 1 14 34
M  V30 35 1 14 35
M  V30 END BOND
M  V30 END CTAB
M  END
>  <Structure No>
930

>  <LogS>
-4.257902463

>  <MMFF94 Energy>
56.108

$$$$
Compound 931
Actelion Java MolfileCreator 2.0

  0  0  0  0  0  0              0 V3000
M  V30 BEGIN CTAB
M  V30 COUNTS 1 0 0 0 0
M  V30 BEGIN ATOM
M  V30 1 O 0.0 0.0 0.0 0
M  V30 END ATOM
M  V30 BEGIN BOND
M  V30 END BOND
M  V30 END CTAB
M  END
>  <Structure No>
931

>  <LogS>
-4.57167099

>  <MMFF94 Energy>
1.9056e-17

$$$$
Compound 932
Actelion Java MolfileCreator 2.0

  0  0  0  0  0  0              0 V3000
M  V30 BEGIN CTAB
M  V30 COUNTS 31 30 0 0 0
M  V30 BEGIN ATOM
M  V30 1 O -1.9648 2.909 0.9427 0
M  V30 2 C -2.5414 1.7901 0.9102 0
M  V30 3 O -3.3427 1.3996 1.9758 0 CHG=-1
M  V30 4 C -2.3522 0.8741 -0.2668 0
M  V30 5 C -1.1759 -0.1425 -0.1002 0
M  V30 6 C 0.1614 0.6692 0.0967 0
M  V30 7 C -1.4823 -1.0513 1.1176 0
M  V30 8 C -1.1571 -1.0087 -1.3764 0
M  V30 9 C 1.5876 0.0183 -0.0419 0
M  V30 10 C 2.6077 1.0285 0.5395 0
M  V30 11 C 1.9767 -0.2173 -1.5209 0
M  V30 12 C 1.7335 -1.2948 0.7503 0
M  V30 13 H -3.309 0.3304 -0.4305 0
M  V30 14 H -2.1892 1.4947 -1.1761 0
M  V30 15 H 0.1042 1.1272 1.1092 0
M  V30 16 H 0.1397 1.535 -0.6029 0
M  V30 17 H -1.3273 -0.5074 2.0735 0
M  V30 18 H -0.8566 -1.9626 1.1324 0
M  V30 19 H -2.5371 -1.4007 1.0877 0
M  V30 20 H -0.8448 -0.4055 -2.2554 0
M  V30 21 H -0.4907 -1.8854 -1.2668 0
M  V30 22 H -2.1692 -1.4177 -1.587 0
M  V30 23 H 2.4122 1.2126 1.6184 0
M  V30 24 H 2.5466 2.0008 0.0038 0
M  V30 25 H 3.6488 0.6498 0.4457 0
M  V30 26 H 1.4528 -1.0826 -1.9652 0
M  V30 27 H 1.7634 0.6834 -2.1353 0
M  V30 28 H 3.0621 -0.4407 -1.6085 0
M  V30 29 H 1.3663 -1.1676 1.7911 0
M  V30 30 H 2.8 -1.6044 0.7996 0
M  V30 31 H 1.1916 -2.1271 0.2617 0
M  V30 END ATOM
M  V30 BEGIN BOND
M  V30 1 2 1 2
M  V30 2 1 2 3
M  V30 3 1 2 4
M  V30 4 1 4 5
M  V30 5 1 5 6
M  V30 6 1 5 7
M  V30 7 1 5 8
M  V30 8 1 6 9
M  V30 9 1 9 10
M  V30 10 1 9 11
M  V30 11 1 9 12
M  V30 12 1 4 13
M  V30 13 1 4 14
M  V30 14 1 6 15
M  V30 15 1 6 16
M  V30 16 1 7 17
M  V30 17 1 7 18
M  V30 18 1 7 19
M  V30 19 1 8 20
M  V30 20 1 8 21
M  V30 21 1 8 22
M  V30 22 1 10 23
M  V30 23 1 10 24
M  V30 24 1 10 25
M  V30 25 1 11 26
M  V30 26 1 11 27
M  V30 27 1 11 28
M  V30 28 1 12 29
M  V30 29 1 12 30
M  V30 30 1 12 31
M  V30 END BOND
M  V30 END CTAB
M  END
>  <Structure No>
932

>  <LogS>
-3.534288097

>  <MMFF94 Energy>
39.71

$$$$
Compound 933
Actelion Java MolfileCreator 2.0

  0  0  0  0  0  0              0 V3000
M  V30 BEGIN CTAB
M  V30 COUNTS 28 27 0 0 0
M  V30 BEGIN ATOM
M  V30 1 N 3.8869 -3.4977 0.9317 0
M  V30 2 C 3.0991 -2.9031 0.3277 0
M  V30 3 C 2.0987 -2.1477 -0.4395 0
M  V30 4 C 0.9249 -1.6836 0.4529 0 CFG=1
M  V30 5 C -0.0402 -0.7526 -0.3191 0
M  V30 6 C 0.1425 -2.8919 0.9978 0
M  V30 7 C 0.569 0.6263 -0.6208 0
M  V30 8 C -0.4807 1.5688 -1.1562 0
M  V30 9 C -1.2764 2.3417 -0.382 0
M  V30 10 C -2.3151 3.2262 -1.022 0
M  V30 11 C -1.1367 2.3841 1.1197 0
M  V30 12 H 1.7242 -2.7833 -1.2703 0
M  V30 13 H 2.6207 -1.2754 -0.8804 0
M  V30 14 H 1.3318 -1.1241 1.3255 0
M  V30 15 H -0.3513 -1.2361 -1.2717 0
M  V30 16 H -0.9591 -0.6058 0.2893 0
M  V30 17 H -0.6873 -2.5505 1.653 0
M  V30 18 H -0.283 -3.4904 0.1639 0
M  V30 19 H 0.8009 -3.5442 1.6089 0
M  V30 20 H 1.0598 1.0499 0.2804 0
M  V30 21 H 1.3507 0.5211 -1.4011 0
M  V30 22 H -0.6045 1.5931 -2.2357 0
M  V30 23 H -2.0674 4.2899 -0.8231 0
M  V30 24 H -2.3746 3.0781 -2.1216 0
M  V30 25 H -3.3121 3.001 -0.5881 0
M  V30 26 H -0.1311 2.7628 1.3978 0
M  V30 27 H -1.8925 3.0642 1.5669 0
M  V30 28 H -1.2875 1.3741 1.5524 0
M  V30 END ATOM
M  V30 BEGIN BOND
M  V30 1 3 1 2
M  V30 2 1 2 3
M  V30 3 1 3 4
M  V30 4 1 4 5
M  V30 5 1 4 6
M  V30 6 1 5 7
M  V30 7 1 7 8
M  V30 8 2 8 9
M  V30 9 1 9 10
M  V30 10 1 9 11
M  V30 11 1 3 12
M  V30 12 1 3 13
M  V30 13 1 4 14
M  V30 14 1 5 15
M  V30 15 1 5 16
M  V30 16 1 6 17
M  V30 17 1 6 18
M  V30 18 1 6 19
M  V30 19 1 7 20
M  V30 20 1 7 21
M  V30 21 1 8 22
M  V30 22 1 10 23
M  V30 23 1 10 24
M  V30 24 1 10 25
M  V30 25 1 11 26
M  V30 26 1 11 27
M  V30 27 1 11 28
M  V30 END BOND
M  V30 BEGIN COLLECTION
M  V30 MDLV30/STEABS ATOMS=(1 4)
M  V30 END COLLECTION
M  V30 END CTAB
M  END
>  <Structure No>
933

>  <LogS>
-3.104157036

>  <MMFF94 Energy>
14.584

$$$$
Compound 934
Actelion Java MolfileCreator 2.0

  0  0  0  0  0  0              0 V3000
M  V30 BEGIN CTAB
M  V30 COUNTS 20 20 0 0 0
M  V30 BEGIN ATOM
M  V30 1 O -1.285 2.8126 -0.0802 0
M  V30 2 N -0.6932 1.8432 0.438 0 CHG=1
M  V30 3 O 0.2059 2.0804 1.4521 0 CHG=-1
M  V30 4 C -1.0741 0.4972 0.1039 0
M  V30 5 C -0.1645 -0.5806 0.2404 0
M  V30 6 C -2.3914 0.2296 -0.3131 0
M  V30 7 O 1.1812 -0.3839 0.5725 0
M  V30 8 C -0.6087 -1.8932 0.0359 0
M  V30 9 C -2.8105 -1.0823 -0.5458 0
M  V30 10 C 2.0426 0.4442 -0.1565 0
M  V30 11 C -1.9238 -2.143 -0.3601 0
M  V30 12 O 1.681 0.9436 -1.2568 0
M  V30 13 C 3.4293 0.6769 0.3385 0
M  V30 14 H -3.1053 1.0354 -0.429 0
M  V30 15 H 0.0781 -2.7209 0.1588 0
M  V30 16 H -3.8292 -1.2776 -0.8556 0
M  V30 17 H -2.2537 -3.1598 -0.5304 0
M  V30 18 H 3.4615 0.5595 1.442 0
M  V30 19 H 3.7603 1.7045 0.078 0
M  V30 20 H 4.1165 -0.0595 -0.127 0
M  V30 END ATOM
M  V30 BEGIN BOND
M  V30 1 2 1 2
M  V30 2 1 2 3
M  V30 3 1 2 4
M  V30 4 2 4 5
M  V30 5 1 4 6
M  V30 6 1 5 7
M  V30 7 1 5 8
M  V30 8 2 6 9
M  V30 9 1 7 10
M  V30 10 2 8 11
M  V30 11 2 10 12
M  V30 12 1 10 13
M  V30 13 1 9 11
M  V30 14 1 6 14
M  V30 15 1 8 15
M  V30 16 1 9 16
M  V30 17 1 11 17
M  V30 18 1 13 18
M  V30 19 1 13 19
M  V30 20 1 13 20
M  V30 END BOND
M  V30 END CTAB
M  END
>  <Structure No>
934

>  <LogS>
-2.185523911

>  <MMFF94 Energy>
52.778

$$$$
Compound 935
Actelion Java MolfileCreator 2.0

  0  0  0  0  0  0              0 V3000
M  V30 BEGIN CTAB
M  V30 COUNTS 42 43 0 0 0
M  V30 BEGIN ATOM
M  V30 1 O 0.9494 -1.8996 0.4746 0
M  V30 2 C 1.5038 -0.8457 0.8918 0
M  V30 3 N 0.835 0.4218 0.7487 0
M  V30 4 C 2.8442 -0.9407 1.5183 0
M  V30 5 C -0.4815 0.5635 0.1873 0
M  V30 6 C 3.7676 0.1196 1.4398 0
M  V30 7 C 3.2211 -2.1219 2.1842 0
M  V30 8 C -0.7468 1.6188 -0.7014 0
M  V30 9 C -1.5155 -0.3096 0.562 0
M  V30 10 C 5.0287 0.0046 2.0334 0
M  V30 11 C 4.4829 -2.2306 2.7768 0
M  V30 12 O 0.3052 2.4899 -1.0377 0
M  V30 13 C -2.0444 1.7694 -1.2244 0
M  V30 14 C -2.8097 -0.1683 0.0279 0
M  V30 15 C 5.3847 -1.1672 2.7039 0
M  V30 16 C 0.2501 3.5312 -2.013 0
M  V30 17 C -3.0689 0.8813 -0.8705 0
M  V30 18 O -3.8615 -1.0366 0.3728 0
M  V30 19 C 0.3078 2.9546 -3.4235 0
M  V30 20 N -4.3773 1.0575 -1.4278 0
M  V30 21 C -3.7459 -2.2179 1.1668 0
M  V30 22 C -3.0817 -3.3401 0.3761 0
M  V30 23 H 1.333 1.2966 1.0231 0
M  V30 24 H 3.5357 1.0265 0.8984 0
M  V30 25 H 2.5349 -2.9568 2.257 0
M  V30 26 H -1.3073 -1.0783 1.2907 0
M  V30 27 H 5.7338 0.8232 1.9664 0
M  V30 28 H 4.7611 -3.1403 3.2929 0
M  V30 29 H -2.2737 2.574 -1.908 0
M  V30 30 H 6.3618 -1.2537 3.1615 0
M  V30 31 H -0.6545 4.1599 -1.8739 0
M  V30 32 H 1.1333 4.1886 -1.869 0
M  V30 33 H -0.5687 2.3036 -3.6191 0
M  V30 34 H 0.3096 3.7814 -4.1643 0
M  V30 35 H 1.2356 2.3574 -3.5489 0
M  V30 36 H -5.1642 0.4151 -1.1869 0
M  V30 37 H -4.5723 1.8378 -2.0941 0
M  V30 38 H -4.768 -2.5479 1.4485 0
M  V30 39 H -3.1956 -2.012 2.109 0
M  V30 40 H -2.0452 -3.064 0.0936 0
M  V30 41 H -3.6642 -3.5474 -0.5464 0
M  V30 42 H -3.0479 -4.2619 0.9941 0
M  V30 END ATOM
M  V30 BEGIN BOND
M  V30 1 2 1 2
M  V30 2 1 2 3
M  V30 3 1 2 4
M  V30 4 1 3 5
M  V30 5 2 4 6
M  V30 6 1 4 7
M  V30 7 2 5 8
M  V30 8 1 5 9
M  V30 9 1 6 10
M  V30 10 2 7 11
M  V30 11 1 8 12
M  V30 12 1 8 13
M  V30 13 2 9 14
M  V30 14 2 10 15
M  V30 15 1 12 16
M  V30 16 2 13 17
M  V30 17 1 14 18
M  V30 18 1 16 19
M  V30 19 1 17 20
M  V30 20 1 18 21
M  V30 21 1 21 22
M  V30 22 1 11 15
M  V30 23 1 14 17
M  V30 24 1 3 23
M  V30 25 1 6 24
M  V30 26 1 7 25
M  V30 27 1 9 26
M  V30 28 1 10 27
M  V30 29 1 11 28
M  V30 30 1 13 29
M  V30 31 1 15 30
M  V30 32 1 16 31
M  V30 33 1 16 32
M  V30 34 1 19 33
M  V30 35 1 19 34
M  V30 36 1 19 35
M  V30 37 1 20 36
M  V30 38 1 20 37
M  V30 39 1 21 38
M  V30 40 1 21 39
M  V30 41 1 22 40
M  V30 42 1 22 41
M  V30 43 1 22 42
M  V30 END BOND
M  V30 END CTAB
M  END
>  <Structure No>
935

>  <LogS>
-2.405757197

>  <MMFF94 Energy>
53.078

$$$$
Compound 936
Actelion Java MolfileCreator 2.0

  0  0  0  0  0  0              0 V3000
M  V30 BEGIN CTAB
M  V30 COUNTS 14 15 0 0 0
M  V30 BEGIN ATOM
M  V30 1 S 4.3503 0.0 -0.0851 0
M  V30 2 C 2.7233 0.1221 -0.0378 0
M  V30 3 S 1.8866 1.5903 0.0476 0
M  V30 4 N 1.9006 -0.9532 -0.0632 0 CHG=-1
M  V30 5 C 0.3999 0.8093 0.0521 0
M  V30 6 C 0.6018 -0.5614 -0.0127 0
M  V30 7 C -0.8751 1.3666 0.1093 0
M  V30 8 C -0.4869 -1.435 -0.0225 0
M  V30 9 C -1.9777 0.4973 0.1 0
M  V30 10 C -1.7846 -0.8972 0.0343 0
M  V30 11 H -1.0134 2.4389 0.1595 0
M  V30 12 H -0.3375 -2.506 -0.073 0
M  V30 13 H -2.9811 0.9006 0.1434 0
M  V30 14 H -2.6412 -1.5588 0.0277 0
M  V30 END ATOM
M  V30 BEGIN BOND
M  V30 1 2 1 2
M  V30 2 1 2 3
M  V30 3 1 2 4
M  V30 4 1 3 5
M  V30 5 1 4 6
M  V30 6 1 5 7
M  V30 7 1 6 8
M  V30 8 2 7 9
M  V30 9 2 8 10
M  V30 10 2 5 6
M  V30 11 1 9 10
M  V30 12 1 7 11
M  V30 13 1 8 12
M  V30 14 1 9 13
M  V30 15 1 10 14
M  V30 END BOND
M  V30 END CTAB
M  END
>  <Structure No>
936

>  <LogS>
-3.151504892

>  <MMFF94 Energy>
17.256

$$$$
Compound 937
Actelion Java MolfileCreator 2.0

  0  0  0  0  0  0              0 V3000
M  V30 BEGIN CTAB
M  V30 COUNTS 22 23 0 0 0
M  V30 BEGIN ATOM
M  V30 1 O -3.8281 -1.2747 -1.1153 0
M  V30 2 C -2.8831 -0.6737 -0.5405 0
M  V30 3 N -1.5291 -0.8667 -0.8723 0
M  V30 4 C -3.0508 0.3201 0.5503 0
M  V30 5 N -0.7553 -0.0331 -0.0629 0
M  V30 6 C -1.5993 0.7716 0.8259 0
M  V30 7 C 0.6876 -0.0018 -0.0828 0
M  V30 8 C 1.4237 -1.0602 -0.6504 0
M  V30 9 C 1.3878 1.0815 0.4835 0
M  V30 10 C 2.8218 -1.0255 -0.6631 0
M  V30 11 C 2.7856 1.1108 0.4671 0
M  V30 12 C 3.5019 0.0595 -0.1073 0
M  V30 13 H -1.1774 -1.4484 -1.664 0
M  V30 14 H -3.6794 1.1702 0.2085 0
M  V30 15 H -3.4962 -0.1641 1.4456 0
M  V30 16 H -1.3247 0.5848 1.8867 0
M  V30 17 H -1.4863 1.8505 0.5845 0
M  V30 18 H 0.9283 -1.9259 -1.0657 0
M  V30 19 H 0.859 1.9111 0.9329 0
M  V30 20 H 3.3784 -1.8447 -1.0998 0
M  V30 21 H 3.3137 1.9503 0.9007 0
M  V30 22 H 4.584 0.0834 -0.1179 0
M  V30 END ATOM
M  V30 BEGIN BOND
M  V30 1 2 1 2
M  V30 2 1 2 3
M  V30 3 1 2 4
M  V30 4 1 3 5
M  V30 5 1 4 6
M  V30 6 1 5 7
M  V30 7 2 7 8
M  V30 8 1 7 9
M  V30 9 1 8 10
M  V30 10 2 9 11
M  V30 11 2 10 12
M  V30 12 1 5 6
M  V30 13 1 11 12
M  V30 14 1 3 13
M  V30 15 1 4 14
M  V30 16 1 4 15
M  V30 17 1 6 16
M  V30 18 1 6 17
M  V30 19 1 8 18
M  V30 20 1 9 19
M  V30 21 1 10 20
M  V30 22 1 11 21
M  V30 23 1 12 22
M  V30 END BOND
M  V30 END CTAB
M  END
>  <Structure No>
937

>  <LogS>
-1.144823301

>  <MMFF94 Energy>
31.08

$$$$
Compound 938
Actelion Java MolfileCreator 2.0

  0  0  0  0  0  0              0 V3000
M  V30 BEGIN CTAB
M  V30 COUNTS 18 18 0 0 0
M  V30 BEGIN ATOM
M  V30 1 Cl -1.926 1.6048 1.926 0
M  V30 2 C -1.5853 1.4202 0.1876 0
M  V30 3 C -0.276 0.6971 -0.0042 0
M  V30 4 C -0.1914 -0.7192 -0.0086 0
M  V30 5 C 0.9014 1.4561 -0.1265 0
M  V30 6 C 1.0622 -1.3331 -0.1795 0
M  V30 7 C -1.4168 -1.5842 0.1319 0
M  V30 8 C 2.1384 0.8291 -0.2848 0
M  V30 9 C 2.2181 -0.5621 -0.3155 0
M  V30 10 H -2.4216 0.8763 -0.2976 0
M  V30 11 H -1.546 2.4301 -0.2738 0
M  V30 12 H 0.8618 2.5384 -0.1005 0
M  V30 13 H 1.1482 -2.4124 -0.204 0
M  V30 14 H -1.1484 -2.6533 0.2687 0
M  V30 15 H -2.0422 -1.4965 -0.7809 0
M  V30 16 H -2.0084 -1.2714 1.0175 0
M  V30 17 H 3.0373 1.4241 -0.3838 0
M  V30 18 H 3.1783 -1.0454 -0.4419 0
M  V30 END ATOM
M  V30 BEGIN BOND
M  V30 1 1 1 2
M  V30 2 1 2 3
M  V30 3 2 3 4
M  V30 4 1 3 5
M  V30 5 1 4 6
M  V30 6 1 4 7
M  V30 7 2 5 8
M  V30 8 2 6 9
M  V30 9 1 8 9
M  V30 10 1 2 10
M  V30 11 1 2 11
M  V30 12 1 5 12
M  V30 13 1 6 13
M  V30 14 1 7 14
M  V30 15 1 7 15
M  V30 16 1 7 16
M  V30 17 1 8 17
M  V30 18 1 9 18
M  V30 END BOND
M  V30 END CTAB
M  END
>  <Structure No>
938

>  <LogS>
-3.081326924

>  <MMFF94 Energy>
29.733

$$$$
Compound 939
Actelion Java MolfileCreator 2.0

  0  0  0  0  0  0              0 V3000
M  V30 BEGIN CTAB
M  V30 COUNTS 19 19 0 0 0
M  V30 BEGIN ATOM
M  V30 1 C 0.0 0.0777 0.0 0
M  V30 2 C -1.4772 -0.0279 0.1463 0
M  V30 3 C 0.7778 -1.0771 -0.2084 0
M  V30 4 C 0.6478 1.3264 0.0834 0
M  V30 5 C -2.2871 0.8892 -0.3967 0
M  V30 6 C -2.083 -1.2269 0.825 0
M  V30 7 C 2.1667 -0.9827 -0.34 0
M  V30 8 C 2.0371 1.4144 -0.048 0
M  V30 9 C 2.7956 0.2615 -0.2607 0
M  V30 10 H 0.3118 -2.0513 -0.2845 0
M  V30 11 H 0.084 2.2318 0.2691 0
M  V30 12 H -1.8952 1.7348 -0.947 0
M  V30 13 H -3.3636 0.7952 -0.3207 0
M  V30 14 H -1.3882 -1.6302 1.5917 0
M  V30 15 H -2.2914 -2.0152 0.0716 0
M  V30 16 H -3.0308 -0.9568 1.3389 0
M  V30 17 H 2.7557 -1.8756 -0.5053 0
M  V30 18 H 2.5265 2.3775 0.02 0
M  V30 19 H 3.8708 0.3321 -0.3621 0
M  V30 END ATOM
M  V30 BEGIN BOND
M  V30 1 1 1 2
M  V30 2 2 1 3
M  V30 3 1 1 4
M  V30 4 2 2 5
M  V30 5 1 2 6
M  V30 6 1 3 7
M  V30 7 2 4 8
M  V30 8 2 7 9
M  V30 9 1 8 9
M  V30 10 1 3 10
M  V30 11 1 4 11
M  V30 12 1 5 12
M  V30 13 1 5 13
M  V30 14 1 6 14
M  V30 15 1 6 15
M  V30 16 1 6 16
M  V30 17 1 7 17
M  V30 18 1 8 18
M  V30 19 1 9 19
M  V30 END BOND
M  V30 END CTAB
M  END
>  <Structure No>
939

>  <LogS>
-3.008082322

>  <MMFF94 Energy>
26.7

$$$$
Compound 940
Actelion Java MolfileCreator 2.0

  0  0  0  0  0  0              0 V3000
M  V30 BEGIN CTAB
M  V30 COUNTS 24 24 0 0 0
M  V30 BEGIN ATOM
M  V30 1 O -2.7421 -0.4696 -0.313 0
M  V30 2 C -1.5699 0.25 -0.0332 0
M  V30 3 C -2.8607 -1.8853 -0.2182 0
M  V30 4 C -1.5928 1.6452 -0.1731 0
M  V30 5 C -0.3803 -0.383 0.3787 0
M  V30 6 O -2.7669 2.2776 -0.5788 0
M  V30 7 C -0.441 2.3978 0.091 0
M  V30 8 C 0.7714 0.3721 0.6528 0
M  V30 9 C 0.7351 1.7654 0.4973 0
M  V30 10 C 2.0504 -0.309 1.0619 0
M  V30 11 C 2.9595 -0.4897 -0.1212 0
M  V30 12 C 2.6963 -1.3831 -1.0793 0
M  V30 13 H -3.8927 -2.182 -0.4962 0
M  V30 14 H -2.1497 -2.3757 -0.9161 0
M  V30 15 H -2.6645 -2.2161 0.8234 0
M  V30 16 H -0.3414 -1.4587 0.4865 0
M  V30 17 H -2.8163 3.2837 -0.6902 0
M  V30 18 H -0.4561 3.4745 -0.0213 0
M  V30 19 H 1.6191 2.3609 0.6896 0
M  V30 20 H 1.8443 -1.2946 1.5339 0
M  V30 21 H 2.5695 0.3116 1.824 0
M  V30 22 H 3.8593 0.114 -0.1919 0
M  V30 23 H 1.8094 -2.0076 -1.0331 0
M  V30 24 H 3.3743 -1.4939 -1.9191 0
M  V30 END ATOM
M  V30 BEGIN BOND
M  V30 1 1 1 2
M  V30 2 1 1 3
M  V30 3 2 2 4
M  V30 4 1 2 5
M  V30 5 1 4 6
M  V30 6 1 4 7
M  V30 7 2 5 8
M  V30 8 2 7 9
M  V30 9 1 8 10
M  V30 10 1 10 11
M  V30 11 2 11 12
M  V30 12 1 8 9
M  V30 13 1 3 13
M  V30 14 1 3 14
M  V30 15 1 3 15
M  V30 16 1 5 16
M  V30 17 1 6 17
M  V30 18 1 7 18
M  V30 19 1 9 19
M  V30 20 1 10 20
M  V30 21 1 10 21
M  V30 22 1 11 22
M  V30 23 1 12 23
M  V30 24 1 12 24
M  V30 END BOND
M  V30 END CTAB
M  END
>  <Structure No>
940

>  <LogS>
-2.153177924

>  <MMFF94 Energy>
32.767

$$$$
Compound 941
Actelion Java MolfileCreator 2.0

  0  0  0  0  0  0              0 V3000
M  V30 BEGIN CTAB
M  V30 COUNTS 56 55 0 0 0
M  V30 BEGIN ATOM
M  V30 1 C 0.1553 -0.8547 -1.5544 0
M  V30 2 C 0.7044 0.1151 -2.6118 0
M  V30 3 C -1.2269 -0.4092 -1.0628 0
M  V30 4 C 2.1232 -0.2726 -3.0788 0
M  V30 5 C -1.7827 -1.3912 -0.0207 0
M  V30 6 C 3.2352 0.5834 -2.4486 0
M  V30 7 C -3.1073 -0.9128 0.5944 0
M  V30 8 C 3.3661 0.3733 -0.934 0
M  V30 9 C -4.2744 -0.9554 -0.4078 0
M  V30 10 C 4.61 1.0865 -0.3846 0
M  V30 11 C -5.6377 -0.7329 0.2657 0
M  V30 12 C 4.681 1.0653 1.1528 0
M  V30 13 C -5.8043 0.7003 0.8006 0
M  V30 14 C 4.7369 -0.3402 1.7849 0
M  V30 15 C -7.2443 0.9986 1.2456 0
M  V30 16 C 5.9011 -1.2227 1.3024 0
M  V30 17 C -7.6431 0.2318 2.5062 0
M  V30 18 C 7.2716 -0.6286 1.6244 0
M  V30 19 H 0.8494 -0.9094 -0.6899 0
M  V30 20 H 0.0757 -1.871 -1.9995 0
M  V30 21 H 0.0233 0.09 -3.4911 0
M  V30 22 H 0.6913 1.1563 -2.2204 0
M  V30 23 H -1.917 -0.3558 -1.9317 0
M  V30 24 H -1.1455 0.6034 -0.6098 0
M  V30 25 H 2.3272 -1.3509 -2.8974 0
M  V30 26 H 2.1778 -0.1246 -4.1795 0
M  V30 27 H -1.9215 -2.3939 -0.4814 0
M  V30 28 H -1.0426 -1.4989 0.8023 0
M  V30 29 H 4.1958 0.3072 -2.9364 0
M  V30 30 H 3.0463 1.6581 -2.6641 0
M  V30 31 H -3.3442 -1.577 1.4543 0
M  V30 32 H -2.9779 0.1179 0.9884 0
M  V30 33 H 3.4407 -0.7153 -0.7258 0
M  V30 34 H 2.4653 0.7804 -0.4268 0
M  V30 35 H -4.1283 -0.1903 -1.1999 0
M  V30 36 H -4.2944 -1.9525 -0.8995 0
M  V30 37 H 4.5844 2.1511 -0.7056 0
M  V30 38 H 5.5294 0.6394 -0.8182 0
M  V30 39 H -6.429 -0.9323 -0.4894 0
M  V30 40 H -5.7642 -1.4669 1.0902 0
M  V30 41 H 3.7908 1.5944 1.5579 0
M  V30 42 H 5.5672 1.6507 1.4779 0
M  V30 43 H -5.1137 0.8743 1.6533 0
M  V30 44 H -5.5388 1.4207 -0.0036 0
M  V30 45 H 3.7805 -0.8706 1.5912 0
M  V30 46 H 4.811 -0.2238 2.8882 0
M  V30 47 H -7.9558 0.7621 0.4249 0
M  V30 48 H -7.3279 2.0865 1.4585 0
M  V30 49 H 5.8215 -2.2073 1.8119 0
M  V30 50 H 5.8212 -1.4158 0.2123 0
M  V30 51 H -7.6965 -0.8576 2.3026 0
M  V30 52 H -6.9147 0.421 3.3232 0
M  V30 53 H -8.6459 0.5704 2.842 0
M  V30 54 H 7.4544 0.2843 1.0203 0
M  V30 55 H 7.3435 -0.3799 2.7045 0
M  V30 56 H 8.0618 -1.3688 1.3781 0
M  V30 END ATOM
M  V30 BEGIN BOND
M  V30 1 1 1 2
M  V30 2 1 1 3
M  V30 3 1 2 4
M  V30 4 1 3 5
M  V30 5 1 4 6
M  V30 6 1 5 7
M  V30 7 1 6 8
M  V30 8 1 7 9
M  V30 9 1 8 10
M  V30 10 1 9 11
M  V30 11 1 10 12
M  V30 12 1 11 13
M  V30 13 1 12 14
M  V30 14 1 13 15
M  V30 15 1 14 16
M  V30 16 1 15 17
M  V30 17 1 16 18
M  V30 18 1 1 19
M  V30 19 1 1 20
M  V30 20 1 2 21
M  V30 21 1 2 22
M  V30 22 1 3 23
M  V30 23 1 3 24
M  V30 24 1 4 25
M  V30 25 1 4 26
M  V30 26 1 5 27
M  V30 27 1 5 28
M  V30 28 1 6 29
M  V30 29 1 6 30
M  V30 30 1 7 31
M  V30 31 1 7 32
M  V30 32 1 8 33
M  V30 33 1 8 34
M  V30 34 1 9 35
M  V30 35 1 9 36
M  V30 36 1 10 37
M  V30 37 1 10 38
M  V30 38 1 11 39
M  V30 39 1 11 40
M  V30 40 1 12 41
M  V30 41 1 12 42
M  V30 42 1 13 43
M  V30 43 1 13 44
M  V30 44 1 14 45
M  V30 45 1 14 46
M  V30 46 1 15 47
M  V30 47 1 15 48
M  V30 48 1 16 49
M  V30 49 1 16 50
M  V30 50 1 17 51
M  V30 51 1 17 52
M  V30 52 1 17 53
M  V30 53 1 18 54
M  V30 54 1 18 55
M  V30 55 1 18 56
M  V30 END BOND
M  V30 END CTAB
M  END
>  <Structure No>
941

>  <LogS>
-3.529803064

>  <MMFF94 Energy>
-6.3078

$$$$
Compound 942
Actelion Java MolfileCreator 2.0

  0  0  0  0  0  0              0 V3000
M  V30 BEGIN CTAB
M  V30 COUNTS 12 12 0 0 0
M  V30 BEGIN ATOM
M  V30 1 F -2.0114 -1.8504 0.0 0
M  V30 2 C -1.016 -0.93 -0.0061 0
M  V30 3 C 0.3204 -1.3443 0.0063 0
M  V30 4 C -1.3248 0.4347 -0.025 0
M  V30 5 C 1.3478 -0.3943 0.0 0
M  V30 6 C -0.2977 1.3844 -0.0314 0
M  V30 7 F 2.6427 -0.7957 0.0121 0
M  V30 8 C 1.0383 0.9703 -0.0188 0
M  V30 9 H 0.5595 -2.3998 0.021 0
M  V30 10 H -2.3581 0.7568 -0.0346 0
M  V30 11 H -0.5369 2.4399 -0.0459 0
M  V30 12 H 1.8319 1.7063 -0.0237 0
M  V30 END ATOM
M  V30 BEGIN BOND
M  V30 1 1 1 2
M  V30 2 2 2 3
M  V30 3 1 2 4
M  V30 4 1 3 5
M  V30 5 2 4 6
M  V30 6 1 5 7
M  V30 7 2 5 8
M  V30 8 1 6 8
M  V30 9 1 3 9
M  V30 10 1 4 10
M  V30 11 1 6 11
M  V30 12 1 8 12
M  V30 END BOND
M  V30 END CTAB
M  END
>  <Structure No>
942

>  <LogS>
-2.000357955

>  <MMFF94 Energy>
4.157

$$$$
Compound 943
Actelion Java MolfileCreator 2.0

  0  0  0  0  0  0              0 V3000
M  V30 BEGIN CTAB
M  V30 COUNTS 5 4 0 0 0
M  V30 BEGIN ATOM
M  V30 1 O -0.3946 1.1052 -1.0262 0
M  V30 2 C -0.4016 0.0871 -0.2856 0
M  V30 3 O 0.7926 -0.5295 0.0692 0
M  V30 4 O -1.6066 -0.4217 0.1785 0 CHG=-1
M  V30 5 H 1.6806 -0.1707 -0.261 0
M  V30 END ATOM
M  V30 BEGIN BOND
M  V30 1 2 1 2
M  V30 2 1 2 3
M  V30 3 1 2 4
M  V30 4 1 3 5
M  V30 END BOND
M  V30 END CTAB
M  END
>  <Structure No>
943

>  <LogS>
-2.179682789

>  <MMFF94 Energy>
-89.96

$$$$
Compound 944
Actelion Java MolfileCreator 2.0

  0  0  0  0  0  0              0 V3000
M  V30 BEGIN CTAB
M  V30 COUNTS 30 29 0 0 0
M  V30 BEGIN ATOM
M  V30 1 O -1.631 1.1648 -0.6987 0
M  V30 2 C -2.1467 0.3775 0.1426 0
M  V30 3 O -1.3456 -0.2993 1.0695 0
M  V30 4 C -3.6337 0.1601 0.1588 0
M  V30 5 C 0.0771 -0.2054 1.0924 0
M  V30 6 C -4.3683 1.4756 0.435 0
M  V30 7 C -4.0991 -0.4627 -1.1605 0
M  V30 8 C 0.6864 -1.033 -0.0431 0
M  V30 9 C 2.1885 -1.0173 0.018 0
M  V30 10 C 2.8918 0.0855 -0.2816 0
M  V30 11 C 4.3948 0.0955 -0.244 0
M  V30 12 C 4.9142 0.0265 1.1894 0
M  V30 13 H -3.8791 -0.5494 0.9796 0
M  V30 14 H 0.4369 -0.603 2.0656 0
M  V30 15 H 0.389 0.8597 1.0199 0
M  V30 16 H -4.0289 1.9063 1.4017 0
M  V30 17 H -5.4625 1.2947 0.5013 0
M  V30 18 H -4.1767 2.2132 -0.374 0
M  V30 19 H -3.5674 -1.4223 -1.3376 0
M  V30 20 H -3.8987 0.2218 -2.0131 0
M  V30 21 H -5.1893 -0.6725 -1.1196 0
M  V30 22 H 0.3505 -0.6458 -1.0291 0
M  V30 23 H 0.3349 -2.0831 0.05 0
M  V30 24 H 2.7071 -1.9342 0.2851 0
M  V30 25 H 2.374 0.9907 -0.588 0
M  V30 26 H 4.7606 1.0352 -0.7109 0
M  V30 27 H 4.794 -0.7589 -0.8323 0
M  V30 28 H 6.0233 0.0792 1.185 0
M  V30 29 H 4.5198 0.8791 1.7831 0
M  V30 30 H 4.6083 -0.927 1.6697 0
M  V30 END ATOM
M  V30 BEGIN BOND
M  V30 1 2 1 2
M  V30 2 1 2 3
M  V30 3 1 2 4
M  V30 4 1 3 5
M  V30 5 1 4 6
M  V30 6 1 4 7
M  V30 7 1 5 8
M  V30 8 1 8 9
M  V30 9 2 9 10
M  V30 10 1 10 11
M  V30 11 1 11 12
M  V30 12 1 4 13
M  V30 13 1 5 14
M  V30 14 1 5 15
M  V30 15 1 6 16
M  V30 16 1 6 17
M  V30 17 1 6 18
M  V30 18 1 7 19
M  V30 19 1 7 20
M  V30 20 1 7 21
M  V30 21 1 8 22
M  V30 22 1 8 23
M  V30 23 1 9 24
M  V30 24 1 10 25
M  V30 25 1 11 26
M  V30 26 1 11 27
M  V30 27 1 12 28
M  V30 28 1 12 29
M  V30 29 1 12 30
M  V30 END BOND
M  V30 END CTAB
M  END
>  <Structure No>
944

>  <LogS>
-3.174187371

>  <MMFF94 Energy>
4.553

$$$$
Compound 945
Actelion Java MolfileCreator 2.0

  0  0  0  0  0  0              0 V3000
M  V30 BEGIN CTAB
M  V30 COUNTS 72 76 0 0 0
M  V30 BEGIN ATOM
M  V30 1 S -5.4796 -3.5675 1.4922 0
M  V30 2 O -4.4541 -3.8317 2.5596 0
M  V30 3 O -5.6642 -4.8483 0.7288 0
M  V30 4 O -6.9369 -3.1421 2.213 0 CHG=-1
M  V30 5 C -4.9439 -2.2342 0.4232 0
M  V30 6 C -4.209 -1.1336 0.9526 0
M  V30 7 C -5.2521 -2.2495 -0.9638 0
M  V30 8 C -3.6437 -0.1797 0.0707 0
M  V30 9 C -3.9581 -1.0033 2.4404 0
M  V30 10 C -4.6935 -1.2848 -1.8115 0
M  V30 11 C -6.1545 -3.2856 -1.5846 0
M  V30 12 N -2.8152 0.8793 0.5793 0
M  V30 13 C -3.8806 -0.2656 -1.313 0
M  V30 14 C -1.3822 0.8757 0.433 0
M  V30 15 C -3.2857 0.7403 -2.2634 0
M  V30 16 C -0.638 2.0853 0.3744 0
M  V30 17 C -0.705 -0.3499 0.4172 0
M  V30 18 C -1.311 3.4136 0.263 0
M  V30 19 C 0.7842 2.0362 0.3778 0
M  V30 20 C 0.6806 -0.3982 0.4053 0
M  V30 21 O -2.5204 3.4975 -0.0821 0
M  V30 22 C -0.5437 4.6554 0.4893 0
M  V30 23 C 1.5508 3.317 0.3073 0
M  V30 24 C 1.4404 0.7769 0.4136 0
M  V30 25 C 0.861 4.608 0.5121 0
M  V30 26 C -1.2005 5.8892 0.652 0
M  V30 27 O 2.7812 3.3189 0.0322 0
M  V30 28 N 2.8723 0.6766 0.5202 0
M  V30 29 C 1.5923 5.7958 0.6999 0
M  V30 30 C -0.4646 7.0609 0.8432 0
M  V30 31 C 3.6195 -0.3967 -0.0804 0
M  V30 32 C 0.9294 7.0144 0.8672 0
M  V30 33 C 4.3705 -1.28 0.7337 0
M  V30 34 C 3.6143 -0.5595 -1.4803 0
M  V30 35 C 5.1791 -2.2843 0.1294 0
M  V30 36 C 4.2803 -1.1471 2.2391 0
M  V30 37 C 4.2995 -1.6337 -2.0506 0
M  V30 38 C 2.8451 0.3745 -2.3782 0
M  V30 39 S 6.3047 -3.2659 1.1151 0
M  V30 40 C 5.0621 -2.5089 -1.2675 0
M  V30 41 O 6.8362 -2.465 2.2706 0
M  V30 42 O 7.4868 -3.7127 0.303 0
M  V30 43 O 5.4933 -4.6149 1.7005 0 CHG=-1
M  V30 44 C 5.7504 -3.6544 -1.966 0
M  V30 45 H -3.7789 0.0453 2.7483 0
M  V30 46 H -3.0698 -1.6065 2.7229 0
M  V30 47 H -4.843 -1.3296 3.0243 0
M  V30 48 H -4.8956 -1.3284 -2.8759 0
M  V30 49 H -6.5444 -2.9474 -2.5688 0
M  V30 50 H -7.0403 -3.4682 -0.9405 0
M  V30 51 H -5.5903 -4.2281 -1.7448 0
M  V30 52 H -3.2674 1.6046 1.1794 0
M  V30 53 H -3.5436 1.7689 -1.9357 0
M  V30 54 H -2.1813 0.6279 -2.2871 0
M  V30 55 H -3.6691 0.6078 -3.298 0
M  V30 56 H -1.2521 -1.2824 0.462 0
M  V30 57 H 1.1659 -1.3654 0.4389 0
M  V30 58 H -2.2816 5.9472 0.6361 0
M  V30 59 H 3.3606 1.2791 1.2203 0
M  V30 60 H 2.6743 5.7822 0.7191 0
M  V30 61 H -0.9767 8.0064 0.9698 0
M  V30 62 H 1.4972 7.9246 1.0122 0
M  V30 63 H 5.0947 -0.4897 2.6087 0
M  V30 64 H 3.3054 -0.7227 2.5566 0
M  V30 65 H 4.3349 -2.1388 2.7319 0
M  V30 66 H 4.247 -1.7845 -3.1233 0
M  V30 67 H 1.7696 0.1008 -2.3688 0
M  V30 68 H 2.9632 1.4263 -2.041 0
M  V30 69 H 3.2151 0.3215 -3.4245 0
M  V30 70 H 6.8101 -3.3917 -2.1614 0
M  V30 71 H 5.6888 -4.5799 -1.3565 0
M  V30 72 H 5.2665 -3.8831 -2.9393 0
M  V30 END ATOM
M  V30 BEGIN BOND
M  V30 1 2 1 2
M  V30 2 2 1 3
M  V30 3 1 1 4
M  V30 4 1 1 5
M  V30 5 2 5 6
M  V30 6 1 5 7
M  V30 7 1 6 8
M  V30 8 1 6 9
M  V30 9 2 7 10
M  V30 10 1 7 11
M  V30 11 1 8 12
M  V30 12 2 8 13
M  V30 13 1 12 14
M  V30 14 1 13 15
M  V30 15 2 14 16
M  V30 16 1 14 17
M  V30 17 1 16 18
M  V30 18 1 16 19
M  V30 19 2 17 20
M  V30 20 2 18 21
M  V30 21 1 18 22
M  V30 22 1 19 23
M  V30 23 2 19 24
M  V30 24 2 22 25
M  V30 25 1 22 26
M  V30 26 2 23 27
M  V30 27 1 24 28
M  V30 28 1 25 29
M  V30 29 2 26 30
M  V30 30 1 28 31
M  V30 31 2 29 32
M  V30 32 2 31 33
M  V30 33 1 31 34
M  V30 34 1 33 35
M  V30 35 1 33 36
M  V30 36 2 34 37
M  V30 37 1 34 38
M  V30 38 1 35 39
M  V30 39 2 35 40
M  V30 40 2 39 41
M  V30 41 2 39 42
M  V30 42 1 39 43
M  V30 43 1 40 44
M  V30 44 1 10 13
M  V30 45 1 20 24
M  V30 46 1 23 25
M  V30 47 1 30 32
M  V30 48 1 37 40
M  V30 49 1 9 45
M  V30 50 1 9 46
M  V30 51 1 9 47
M  V30 52 1 10 48
M  V30 53 1 11 49
M  V30 54 1 11 50
M  V30 55 1 11 51
M  V30 56 1 12 52
M  V30 57 1 15 53
M  V30 58 1 15 54
M  V30 59 1 15 55
M  V30 60 1 17 56
M  V30 61 1 20 57
M  V30 62 1 26 58
M  V30 63 1 28 59
M  V30 64 1 29 60
M  V30 65 1 30 61
M  V30 66 1 32 62
M  V30 67 1 36 63
M  V30 68 1 36 64
M  V30 69 1 36 65
M  V30 70 1 37 66
M  V30 71 1 38 67
M  V30 72 1 38 68
M  V30 73 1 38 69
M  V30 74 1 44 70
M  V30 75 1 44 71
M  V30 76 1 44 72
M  V30 END BOND
M  V30 END CTAB
M  END
>  <Structure No>
945

>  <LogS>
-2.820609377

>  <MMFF94 Energy>
213.21

$$$$
Compound 946
Actelion Java MolfileCreator 2.0

  0  0  0  0  0  0              0 V3000
M  V30 BEGIN CTAB
M  V30 COUNTS 37 38 0 0 0
M  V30 BEGIN ATOM
M  V30 1 O 1.196 -3.112 0.558 0
M  V30 2 C 1.5201 -1.8968 0.4932 0
M  V30 3 C 0.5013 -0.8522 0.224 0
M  V30 4 C 2.9688 -1.5139 0.622 0
M  V30 5 C 0.8424 0.4306 0.1241 0
M  V30 6 C -0.9646 -1.0907 -0.0261 0
M  V30 7 C 3.1153 -0.0557 1.0767 0
M  V30 8 C -0.3098 1.3122 -0.2673 0
M  V30 9 C 2.2844 0.8834 0.1913 0
M  V30 10 C -1.5368 0.3661 -0.0576 0 CFG=1
M  V30 11 C -1.1388 -1.8567 -1.3572 0
M  V30 12 C -1.6043 -1.8968 1.1248 0
M  V30 13 C -0.4037 2.5434 0.6582 0
M  V30 14 C -0.1201 1.7786 -1.7282 0
M  V30 15 C -2.731 0.5999 -1.0041 0
M  V30 16 H 3.4634 -1.6472 -0.3641 0
M  V30 17 H 3.4701 -2.1786 1.3583 0
M  V30 18 H 2.7769 0.038 2.1325 0
M  V30 19 H 4.1853 0.2408 1.0309 0
M  V30 20 H 2.7074 0.8932 -0.8361 0
M  V30 21 H 2.3499 1.9114 0.6028 0
M  V30 22 H -1.9432 0.5808 0.959 0
M  V30 23 H -2.2137 -2.0339 -1.5727 0
M  V30 24 H -0.69 -1.299 -2.2041 0
M  V30 25 H -0.6447 -2.8498 -1.3075 0
M  V30 26 H -1.2585 -2.9511 1.1246 0
M  V30 27 H -2.71 -1.9045 1.0153 0
M  V30 28 H -1.3517 -1.4467 2.1095 0
M  V30 29 H 0.4372 3.2463 0.4794 0
M  V30 30 H -1.3514 3.0916 0.4688 0
M  V30 31 H -0.3818 2.2371 1.7268 0
M  V30 32 H 0.8135 2.3725 -1.8287 0
M  V30 33 H -0.9626 2.4275 -2.0484 0
M  V30 34 H -0.0483 0.9152 -2.4204 0
M  V30 35 H -2.4634 0.4198 -2.0654 0
M  V30 36 H -3.5664 -0.0782 -0.7296 0
M  V30 37 H -3.0916 1.6454 -0.9032 0
M  V30 END ATOM
M  V30 BEGIN BOND
M  V30 1 2 1 2
M  V30 2 1 2 3
M  V30 3 1 2 4
M  V30 4 2 3 5
M  V30 5 1 3 6
M  V30 6 1 4 7
M  V30 7 1 5 8
M  V30 8 1 5 9
M  V30 9 1 6 10
M  V30 10 1 6 11
M  V30 11 1 6 12
M  V30 12 1 8 13
M  V30 13 1 8 14
M  V30 14 1 10 15
M  V30 15 1 7 9
M  V30 16 1 8 10
M  V30 17 1 4 16
M  V30 18 1 4 17
M  V30 19 1 7 18
M  V30 20 1 7 19
M  V30 21 1 9 20
M  V30 22 1 9 21
M  V30 23 1 10 22
M  V30 24 1 11 23
M  V30 25 1 11 24
M  V30 26 1 11 25
M  V30 27 1 12 26
M  V30 28 1 12 27
M  V30 29 1 12 28
M  V30 30 1 13 29
M  V30 31 1 13 30
M  V30 32 1 13 31
M  V30 33 1 14 32
M  V30 34 1 14 33
M  V30 35 1 14 34
M  V30 36 1 15 35
M  V30 37 1 15 36
M  V30 38 1 15 37
M  V30 END BOND
M  V30 BEGIN COLLECTION
M  V30 MDLV30/STEABS ATOMS=(1 10)
M  V30 END COLLECTION
M  V30 END CTAB
M  END
>  <Structure No>
946

>  <LogS>
-3.265342251

>  <MMFF94 Energy>
46.325

$$$$
Compound 947
Actelion Java MolfileCreator 2.0

  0  0  0  0  0  0              0 V3000
M  V30 BEGIN CTAB
M  V30 COUNTS 47 48 0 0 0
M  V30 BEGIN ATOM
M  V30 1 O -4.5949 1.5034 -0.1581 0
M  V30 2 C -3.4946 0.6876 0.1443 0
M  V30 3 C -5.8107 1.035 -0.736 0
M  V30 4 C -2.3642 1.2807 0.71 0
M  V30 5 C -3.492 -0.6965 -0.097 0
M  V30 6 C -6.7689 2.2069 -0.9216 0
M  V30 7 C -1.2421 0.5128 1.0279 0
M  V30 8 C -2.3707 -1.4692 0.2194 0
M  V30 9 O -7.9588 1.7727 -1.5219 0
M  V30 10 C -1.2144 -0.875 0.7732 0
M  V30 11 C 0.0363 -1.685 1.1666 0
M  V30 12 C 1.2936 -0.9938 0.6036 0
M  V30 13 C 0.0263 -3.1278 0.6059 0
M  V30 14 C 0.0396 -1.7869 2.7113 0
M  V30 15 C 1.3288 -0.6379 -0.7614 0
M  V30 16 C 2.4484 -0.7501 1.3809 0
M  V30 17 C 2.4567 -0.032 -1.3187 0
M  V30 18 C 3.5756 -0.1434 0.8188 0
M  V30 19 C 3.5858 0.2228 -0.5377 0
M  V30 20 O 4.6921 0.8349 -1.1449 0
M  V30 21 C 5.9091 1.1503 -0.4724 0
M  V30 22 C 6.8819 1.8091 -1.4453 0
M  V30 23 O 7.2478 0.9111 -2.4581 0
M  V30 24 H -5.6014 0.573 -1.7254 0
M  V30 25 H -6.2773 0.2812 -0.0649 0
M  V30 26 H -2.3557 2.3452 0.9083 0
M  V30 27 H -4.3543 -1.1883 -0.5265 0
M  V30 28 H -6.9811 2.687 0.0609 0
M  V30 29 H -6.2951 2.9656 -1.58 0
M  V30 30 H -0.3872 1.0055 1.4739 0
M  V30 31 H -2.4265 -2.5295 0.0233 0
M  V30 32 H -8.4844 1.3165 -0.8135 0
M  V30 33 H -0.7831 -3.7345 1.0664 0
M  V30 34 H 0.9889 -3.6368 0.8312 0
M  V30 35 H -0.1087 -3.1269 -0.4971 0
M  V30 36 H 0.1789 -0.7877 3.1774 0
M  V30 37 H 0.8435 -2.4656 3.0695 0
M  V30 38 H -0.9269 -2.2005 3.0736 0
M  V30 39 H 0.4751 -0.8285 -1.3999 0
M  V30 40 H 2.4983 -1.0208 2.425 0
M  V30 41 H 2.4541 0.2383 -2.3672 0
M  V30 42 H 4.4363 0.0328 1.4495 0
M  V30 43 H 5.7017 1.8549 0.3621 0
M  V30 44 H 6.3678 0.223 -0.0647 0
M  V30 45 H 6.4276 2.7298 -1.8783 0
M  V30 46 H 7.7964 2.1097 -0.8916 0
M  V30 47 H 6.511 0.9153 -3.1235 0
M  V30 END ATOM
M  V30 BEGIN BOND
M  V30 1 1 1 2
M  V30 2 1 1 3
M  V30 3 2 2 4
M  V30 4 1 2 5
M  V30 5 1 3 6
M  V30 6 1 4 7
M  V30 7 2 5 8
M  V30 8 1 6 9
M  V30 9 2 7 10
M  V30 10 1 10 11
M  V30 11 1 11 12
M  V30 12 1 11 13
M  V30 13 1 11 14
M  V30 14 2 12 15
M  V30 15 1 12 16
M  V30 16 1 15 17
M  V30 17 2 16 18
M  V30 18 2 17 19
M  V30 19 1 19 20
M  V30 20 1 20 21
M  V30 21 1 21 22
M  V30 22 1 22 23
M  V30 23 1 8 10
M  V30 24 1 18 19
M  V30 25 1 3 24
M  V30 26 1 3 25
M  V30 27 1 4 26
M  V30 28 1 5 27
M  V30 29 1 6 28
M  V30 30 1 6 29
M  V30 31 1 7 30
M  V30 32 1 8 31
M  V30 33 1 9 32
M  V30 34 1 13 33
M  V30 35 1 13 34
M  V30 36 1 13 35
M  V30 37 1 14 36
M  V30 38 1 14 37
M  V30 39 1 14 38
M  V30 40 1 15 39
M  V30 41 1 16 40
M  V30 42 1 17 41
M  V30 43 1 18 42
M  V30 44 1 21 43
M  V30 45 1 21 44
M  V30 46 1 22 45
M  V30 47 1 22 46
M  V30 48 1 23 47
M  V30 END BOND
M  V30 END CTAB
M  END
>  <Structure No>
947

>  <LogS>
-3.451790553

>  <MMFF94 Energy>
105.76

$$$$
Compound 948
Actelion Java MolfileCreator 2.0

  0  0  0  0  0  0              0 V3000
M  V30 BEGIN CTAB
M  V30 COUNTS 23 22 0 0 0
M  V30 BEGIN ATOM
M  V30 1 N -0.076 -0.6087 -0.1521 0 CHG=1
M  V30 2 C -1.1586 0.4171 -0.1554 0
M  V30 3 C 1.2737 -0.0346 -0.3659 0
M  V30 4 C -2.3024 0.0173 -1.1026 0
M  V30 5 C -1.7226 0.639 1.2592 0
M  V30 6 C 1.7276 0.8226 0.8288 0
M  V30 7 C 2.2961 -1.1569 -0.6073 0
M  V30 8 H -0.0806 -1.1589 0.7397 0
M  V30 9 H -0.248 -1.3041 -0.9167 0
M  V30 10 H -0.7805 1.3989 -0.521 0
M  V30 11 H 1.2689 0.6046 -1.2782 0
M  V30 12 H -1.9195 -0.076 -2.1414 0
M  V30 13 H -3.0985 0.7927 -1.0982 0
M  V30 14 H -2.7436 -0.9543 -0.7926 0
M  V30 15 H -2.4815 1.4506 1.2474 0
M  V30 16 H -0.9157 0.9334 1.9607 0
M  V30 17 H -2.199 -0.2902 1.6391 0
M  V30 18 H 2.7737 1.1664 0.6811 0
M  V30 19 H 1.674 0.239 1.7726 0
M  V30 20 H 1.0958 1.7292 0.9248 0
M  V30 21 H 2.3453 -1.8348 0.2717 0
M  V30 22 H 3.305 -0.7288 -0.7897 0
M  V30 23 H 2.0107 -1.7503 -1.5018 0
M  V30 END ATOM
M  V30 BEGIN BOND
M  V30 1 1 1 2
M  V30 2 1 1 3
M  V30 3 1 2 4
M  V30 4 1 2 5
M  V30 5 1 3 6
M  V30 6 1 3 7
M  V30 7 1 1 8
M  V30 8 1 1 9
M  V30 9 1 2 10
M  V30 10 1 3 11
M  V30 11 1 4 12
M  V30 12 1 4 13
M  V30 13 1 4 14
M  V30 14 1 5 15
M  V30 15 1 5 16
M  V30 16 1 5 17
M  V30 17 1 6 18
M  V30 18 1 6 19
M  V30 19 1 6 20
M  V30 20 1 7 21
M  V30 21 1 7 22
M  V30 22 1 7 23
M  V30 END BOND
M  V30 END CTAB
M  END
>  <Structure No>
948

>  <LogS>
0.036242214

>  <MMFF94 Energy>
6.8729

$$$$
Compound 949
Actelion Java MolfileCreator 2.0

  0  0  0  0  0  0              0 V3000
M  V30 BEGIN CTAB
M  V30 COUNTS 73 77 0 0 0
M  V30 BEGIN ATOM
M  V30 1 O 2.6699 -4.0475 -1.8603 0
M  V30 2 C 3.1648 -3.0116 -1.3355 0
M  V30 3 C 2.3472 -2.1208 -0.4709 0
M  V30 4 C 4.6238 -2.7034 -1.5382 0
M  V30 5 C 2.9367 -0.926 -0.0177 0
M  V30 6 C 1.0305 -2.4356 -0.0751 0
M  V30 7 C 4.8302 -1.1759 -1.5832 0 CFG=1
M  V30 8 O 4.2255 -0.5752 -0.4375 0
M  V30 9 C 2.2411 -0.0798 0.8488 0
M  V30 10 O 0.4125 -3.6029 -0.5245 0
M  V30 11 C 0.3321 -1.5659 0.7758 0
M  V30 12 C 6.2705 -0.7108 -1.6907 0
M  V30 13 C 0.9328 -0.3777 1.238 0
M  V30 14 C 7.3791 -1.5818 -1.6 0
M  V30 15 C 6.5054 0.6646 -1.8761 0
M  V30 16 O 0.2739 0.5379 2.0771 0
M  V30 17 C 8.6825 -1.0792 -1.6842 0
M  V30 18 C 7.8096 1.16 -1.9618 0
M  V30 19 C -1.1281 0.5456 2.3708 0 CFG=1
M  V30 20 C 8.8999 0.293 -1.8637 0
M  V30 21 O -1.4022 1.4199 3.4556 0
M  V30 22 C -1.9749 0.9147 1.1303 0 CFG=1
M  V30 23 O 10.1942 0.8054 -1.9416 0
M  V30 24 C -1.0569 2.7629 3.1499 0 CFG=1
M  V30 25 O -3.3449 0.7336 1.4561 0
M  V30 26 C -1.7354 2.3854 0.7326 0 CFG=1
M  V30 27 C -1.9084 3.2928 1.9648 0 CFG=2
M  V30 28 C -1.264 3.616 4.4104 0
M  V30 29 C -4.0681 0.175 0.3733 0 CFG=1
M  V30 30 O -0.4463 2.5396 0.1911 0
M  V30 31 O -1.601 4.63 1.6469 0
M  V30 32 O -2.6113 3.6103 4.8023 0
M  V30 33 O -3.8721 -1.2305 0.3549 0
M  V30 34 C -5.5791 0.4943 0.544 0 CFG=2
M  V30 35 C -4.3851 -1.8281 -0.8329 0 CFG=1
M  V30 36 O -5.9468 0.5846 1.9022 0
M  V30 37 C -6.4747 -0.5269 -0.2208 0 CFG=1
M  V30 38 C -5.6883 -1.1606 -1.3846 0 CFG=1
M  V30 39 C -3.2742 -1.9631 -1.8814 0
M  V30 40 O -6.9198 -1.5591 0.6274 0
M  V30 41 O -5.3817 -0.1778 -2.3463 0
M  V30 42 H 5.1779 -3.1396 -0.6792 0
M  V30 43 H 4.9799 -3.1612 -2.4881 0
M  V30 44 H 4.3015 -0.7989 -2.4869 0
M  V30 45 H 2.709 0.8325 1.202 0
M  V30 46 H -0.5281 -3.856 -0.2413 0
M  V30 47 H -0.6733 -1.8327 1.0672 0
M  V30 48 H 7.2561 -2.6472 -1.4626 0
M  V30 49 H 5.6721 1.3555 -1.9514 0
M  V30 50 H 9.5246 -1.7566 -1.6064 0
M  V30 51 H 7.9724 2.2213 -2.101 0
M  V30 52 H -1.4211 -0.4702 2.7029 0
M  V30 53 H -1.6487 0.2601 0.287 0
M  V30 54 H 11.0058 0.2086 -1.8488 0
M  V30 55 H 0.0255 2.8341 2.8927 0
M  V30 56 H -2.4901 2.6867 -0.0321 0
M  V30 57 H -2.9801 3.2586 2.259 0
M  V30 58 H -0.6129 3.2361 5.234 0
M  V30 59 H -0.9517 4.6636 4.2095 0
M  V30 60 H -3.7331 0.6335 -0.5917 0
M  V30 61 H -0.4707 2.1582 -0.7262 0
M  V30 62 H -0.6202 4.696 1.5016 0
M  V30 63 H -2.7373 2.824 5.3925 0
M  V30 64 H -5.7484 1.4997 0.0912 0
M  V30 65 H -4.6644 -2.8703 -0.5534 0
M  V30 66 H -5.626 -0.2394 2.3559 0
M  V30 67 H -7.3619 0.0098 -0.6423 0
M  V30 68 H -6.3165 -1.9543 -1.8586 0
M  V30 69 H -3.6609 -2.4594 -2.7968 0
M  V30 70 H -2.4454 -2.5778 -1.4705 0
M  V30 71 H -2.8656 -0.9687 -2.1541 0
M  V30 72 H -7.6733 -1.1928 1.163 0
M  V30 73 H -6.213 -0.0144 -2.8676 0
M  V30 END ATOM
M  V30 BEGIN BOND
M  V30 1 2 1 2
M  V30 2 1 2 3
M  V30 3 1 2 4
M  V30 4 2 3 5
M  V30 5 1 3 6
M  V30 6 1 4 7
M  V30 7 1 5 8
M  V30 8 1 5 9
M  V30 9 1 6 10
M  V30 10 2 6 11
M  V30 11 1 7 12
M  V30 12 2 9 13
M  V30 13 2 12 14
M  V30 14 1 12 15
M  V30 15 1 13 16
M  V30 16 1 14 17
M  V30 17 2 15 18
M  V30 18 1 16 19
M  V30 19 2 17 20
M  V30 20 1 19 21
M  V30 21 1 19 22
M  V30 22 1 20 23
M  V30 23 1 21 24
M  V30 24 1 22 25
M  V30 25 1 22 26
M  V30 26 1 24 27
M  V30 27 1 24 28
M  V30 28 1 25 29
M  V30 29 1 26 30
M  V30 30 1 27 31
M  V30 31 1 28 32
M  V30 32 1 29 33
M  V30 33 1 29 34
M  V30 34 1 33 35
M  V30 35 1 34 36
M  V30 36 1 34 37
M  V30 37 1 35 38
M  V30 38 1 35 39
M  V30 39 1 37 40
M  V30 40 1 38 41
M  V30 41 1 7 8
M  V30 42 1 11 13
M  V30 43 1 18 20
M  V30 44 1 26 27
M  V30 45 1 37 38
M  V30 46 1 4 42
M  V30 47 1 4 43
M  V30 48 1 7 44
M  V30 49 1 9 45
M  V30 50 1 10 46
M  V30 51 1 11 47
M  V30 52 1 14 48
M  V30 53 1 15 49
M  V30 54 1 17 50
M  V30 55 1 18 51
M  V30 56 1 19 52
M  V30 57 1 22 53
M  V30 58 1 23 54
M  V30 59 1 24 55
M  V30 60 1 26 56
M  V30 61 1 27 57
M  V30 62 1 28 58
M  V30 63 1 28 59
M  V30 64 1 29 60
M  V30 65 1 30 61
M  V30 66 1 31 62
M  V30 67 1 32 63
M  V30 68 1 34 64
M  V30 69 1 35 65
M  V30 70 1 36 66
M  V30 71 1 37 67
M  V30 72 1 38 68
M  V30 73 1 39 69
M  V30 74 1 39 70
M  V30 75 1 39 71
M  V30 76 1 40 72
M  V30 77 1 41 73
M  V30 END BOND
M  V30 BEGIN COLLECTION
M  V30 MDLV30/STEABS ATOMS=(11 7 19 22 24 26 27 29 34 35 37 38)
M  V30 END COLLECTION
M  V30 END CTAB
M  END
>  <Structure No>
949

>  <LogS>
-2.722438715

>  <MMFF94 Energy>
227.67

$$$$
Compound 950
Actelion Java MolfileCreator 2.0

  0  0  0  0  0  0              0 V3000
M  V30 BEGIN CTAB
M  V30 COUNTS 6 5 0 0 0
M  V30 BEGIN ATOM
M  V30 1 O 1.3529 1.0991 0.2535 0
M  V30 2 C 0.7363 0.0224 0.0413 0
M  V30 3 O 1.4491 -1.1626 -0.0915 0 CHG=-1
M  V30 4 C -0.7248 0.0196 -0.0648 0
M  V30 5 O -1.3415 -1.057 -0.2771 0
M  V30 6 O -1.4378 1.2048 0.068 0 CHG=-1
M  V30 END ATOM
M  V30 BEGIN BOND
M  V30 1 2 1 2
M  V30 2 1 2 3
M  V30 3 1 2 4
M  V30 4 2 4 5
M  V30 5 1 4 6
M  V30 END BOND
M  V30 END CTAB
M  END
>  <Structure No>
950

>  <LogS>
-2.274008719

>  <MMFF94 Energy>
278.93

$$$$
Compound 951
Actelion Java MolfileCreator 2.0

  0  0  0  0  0  0              0 V3000
M  V30 BEGIN CTAB
M  V30 COUNTS 5 4 0 0 0
M  V30 BEGIN ATOM
M  V30 1 O -0.5524 1.2631 -0.1578 0
M  V30 2 C -0.4539 0.0168 -0.0101 0
M  V30 3 O 0.7977 -0.5857 0.0417 0
M  V30 4 O -1.5995 -0.7588 0.1014 0 CHG=-1
M  V30 5 H 1.6435 -0.0338 -0.038 0
M  V30 END ATOM
M  V30 BEGIN BOND
M  V30 1 2 1 2
M  V30 2 1 2 3
M  V30 3 1 2 4
M  V30 4 1 3 5
M  V30 END BOND
M  V30 END CTAB
M  END
>  <Structure No>
951

>  <LogS>
-2.884501857

>  <MMFF94 Energy>
-89.96

$$$$
Compound 952
Actelion Java MolfileCreator 2.0

  0  0  0  0  0  0              0 V3000
M  V30 BEGIN CTAB
M  V30 COUNTS 42 42 0 0 0
M  V30 BEGIN ATOM
M  V30 1 O 1.1066 1.1066 -2.5308 0
M  V30 2 C 0.9395 1.3237 -1.2986 0
M  V30 3 O 1.2682 0.338 -0.3629 0
M  V30 4 C 0.4493 2.6454 -0.8441 0
M  V30 5 C 1.7726 -0.9411 -0.7352 0
M  V30 6 C -0.3365 2.8111 0.3299 0
M  V30 7 C 0.8418 3.7852 -1.5711 0
M  V30 8 C 1.9496 -1.8188 0.5125 0
M  V30 9 C -0.9079 1.6676 1.0781 0
M  V30 10 C -0.6488 4.1125 0.7665 0
M  V30 11 C 0.5027 5.065 -1.1309 0
M  V30 12 C 2.3505 -3.2431 0.1132 0
M  V30 13 C 2.9895 -1.2176 1.4666 0
M  V30 14 O -1.0789 1.7567 2.3255 0
M  V30 15 O -1.3072 0.5133 0.3972 0
M  V30 16 C -0.2311 5.2287 0.0412 0
M  V30 17 C -1.8908 -0.6072 1.0554 0
M  V30 18 C -2.1347 -1.7395 0.0469 0
M  V30 19 C -2.6237 -3.0013 0.7663 0
M  V30 20 C -3.1414 -1.3125 -1.0286 0
M  V30 21 H 1.0534 -1.426 -1.4312 0
M  V30 22 H 2.7457 -0.8197 -1.2604 0
M  V30 23 H 1.441 3.6873 -2.4682 0
M  V30 24 H 0.9768 -1.874 1.0476 0
M  V30 25 H -1.2464 4.2667 1.6569 0
M  V30 26 H 0.8213 5.9327 -1.6942 0
M  V30 27 H 2.4491 -3.8812 1.0172 0
M  V30 28 H 3.3187 -3.2397 -0.4321 0
M  V30 29 H 1.5711 -3.6908 -0.5399 0
M  V30 30 H 3.9788 -1.1347 0.9671 0
M  V30 31 H 2.6693 -0.2076 1.8 0
M  V30 32 H 3.0958 -1.8571 2.3687 0
M  V30 33 H -0.4884 6.2231 0.383 0
M  V30 34 H -2.8497 -0.3029 1.5303 0
M  V30 35 H -1.1991 -0.961 1.8512 0
M  V30 36 H -1.172 -1.9817 -0.4531 0
M  V30 37 H -1.8701 -3.3328 1.5124 0
M  V30 38 H -2.7704 -3.8261 0.0367 0
M  V30 39 H -3.5856 -2.8076 1.2883 0
M  V30 40 H -2.7591 -0.4319 -1.5874 0
M  V30 41 H -4.1189 -1.0503 -0.5693 0
M  V30 42 H -3.297 -2.1375 -1.7561 0
M  V30 END ATOM
M  V30 BEGIN BOND
M  V30 1 2 1 2
M  V30 2 1 2 3
M  V30 3 1 2 4
M  V30 4 1 3 5
M  V30 5 2 4 6
M  V30 6 1 4 7
M  V30 7 1 5 8
M  V30 8 1 6 9
M  V30 9 1 6 10
M  V30 10 2 7 11
M  V30 11 1 8 12
M  V30 12 1 8 13
M  V30 13 2 9 14
M  V30 14 1 9 15
M  V30 15 2 10 16
M  V30 16 1 15 17
M  V30 17 1 17 18
M  V30 18 1 18 19
M  V30 19 1 18 20
M  V30 20 1 11 16
M  V30 21 1 5 21
M  V30 22 1 5 22
M  V30 23 1 7 23
M  V30 24 1 8 24
M  V30 25 1 10 25
M  V30 26 1 11 26
M  V30 27 1 12 27
M  V30 28 1 12 28
M  V30 29 1 12 29
M  V30 30 1 13 30
M  V30 31 1 13 31
M  V30 32 1 13 32
M  V30 33 1 16 33
M  V30 34 1 17 34
M  V30 35 1 17 35
M  V30 36 1 18 36
M  V30 37 1 19 37
M  V30 38 1 19 38
M  V30 39 1 19 39
M  V30 40 1 20 40
M  V30 41 1 20 41
M  V30 42 1 20 42
M  V30 END BOND
M  V30 END CTAB
M  END
>  <Structure No>
952

>  <LogS>
-4.383890265

>  <MMFF94 Energy>
26.234

$$$$
Compound 953
Actelion Java MolfileCreator 2.0

  0  0  0  0  0  0              0 V3000
M  V30 BEGIN CTAB
M  V30 COUNTS 71 70 0 0 0
M  V30 BEGIN ATOM
M  V30 1 O 4.9716 1.1819 1.5762 0
M  V30 2 C 4.728 1.828 0.5196 0
M  V30 3 O 5.7693 2.2241 -0.3262 0
M  V30 4 N 3.3803 2.1625 0.168 0
M  V30 5 C 7.1361 1.8833 -0.1029 0
M  V30 6 C 2.2154 1.7643 0.9642 0
M  V30 7 C 7.3885 0.4161 -0.4539 0
M  V30 8 C 1.4587 0.5515 0.3402 0
M  V30 9 O 8.7807 0.1166 -0.3744 0
M  V30 10 C 0.2878 0.0806 1.2841 0
M  V30 11 C 0.9708 0.9021 -1.0795 0
M  V30 12 C 2.4463 -0.6357 0.2187 0
M  V30 13 C 9.4682 -0.0472 0.8355 0
M  V30 14 C -1.0961 0.811 1.319 0 CFG=2
M  V30 15 O 8.8436 0.003 1.9312 0
M  V30 16 C 10.9285 -0.2836 0.8329 0
M  V30 17 C -2.0361 0.5821 0.1065 0
M  V30 18 C -0.997 2.3044 1.6475 0
M  V30 19 C 11.6191 -0.2523 -0.3117 0
M  V30 20 C 11.6515 -0.4846 2.1371 0
M  V30 21 C -2.3031 -0.8987 -0.2018 0
M  V30 22 N -3.2878 -1.0269 -1.2746 0
M  V30 23 C -4.6905 -0.8202 -1.0743 0
M  V30 24 O -5.1345 -0.5207 0.069 0
M  V30 25 O -5.5595 -0.9541 -2.1628 0
M  V30 26 C -6.9762 -0.828 -2.0581 0
M  V30 27 C -7.5799 -2.0785 -1.4171 0
M  V30 28 O -9.0042 -2.03 -1.472 0
M  V30 29 C -9.7833 -1.2181 -0.6376 0
M  V30 30 O -9.2357 -0.5302 0.2667 0
M  V30 31 C -11.2523 -1.1687 -0.8107 0
M  V30 32 C -11.858 -1.9678 -1.6961 0
M  V30 33 C -12.0802 -0.2746 0.0723 0
M  V30 34 H 3.2217 2.6959 -0.7158 0
M  V30 35 H 7.768 2.5214 -0.7564 0
M  V30 36 H 7.4151 2.0915 0.9524 0
M  V30 37 H 2.5267 1.5269 2.0048 0
M  V30 38 H 1.5541 2.6456 1.0344 0
M  V30 39 H 6.8121 -0.2564 0.2174 0
M  V30 40 H 7.049 0.2335 -1.4955 0
M  V30 41 H 0.0833 -0.995 1.1053 0
M  V30 42 H 0.6782 0.0874 2.3263 0
M  V30 43 H 1.8286 1.0253 -1.7738 0
M  V30 44 H 0.337 0.0893 -1.4897 0
M  V30 45 H 0.4149 1.8605 -1.0854 0
M  V30 46 H 2.8555 -0.9093 1.2151 0
M  V30 47 H 3.2969 -0.3942 -0.4531 0
M  V30 48 H 1.9375 -1.5278 -0.2062 0
M  V30 49 H -1.6298 0.3619 2.1878 0
M  V30 50 H -1.6677 1.0911 -0.8028 0
M  V30 51 H -3.0106 1.0633 0.3411 0
M  V30 52 H -0.3038 2.4705 2.4992 0
M  V30 53 H -0.6669 2.8878 0.7644 0
M  V30 54 H -1.995 2.6905 1.9478 0
M  V30 55 H 12.6929 -0.3929 -0.3196 0
M  V30 56 H 11.1299 -0.0813 -1.2621 0
M  V30 57 H 11.7821 0.4959 2.6406 0
M  V30 58 H 12.6507 -0.9466 1.9857 0
M  V30 59 H 11.0658 -1.1565 2.7991 0
M  V30 60 H -1.365 -1.3868 -0.5366 0
M  V30 61 H -2.6639 -1.4292 0.7059 0
M  V30 62 H -2.9625 -1.3384 -2.2174 0
M  V30 63 H -7.2388 0.0815 -1.476 0
M  V30 64 H -7.3931 -0.7131 -3.0813 0
M  V30 65 H -7.2403 -2.1864 -0.3643 0
M  V30 66 H -7.2382 -2.9714 -1.982 0
M  V30 67 H -12.9357 -1.9627 -1.8049 0
M  V30 68 H -11.2949 -2.6429 -2.3277 0
M  V30 69 H -12.2589 -0.7779 1.0456 0
M  V30 70 H -11.5523 0.6854 0.2532 0
M  V30 71 H -13.0603 -0.036 -0.3944 0
M  V30 END ATOM
M  V30 BEGIN BOND
M  V30 1 2 1 2
M  V30 2 1 2 3
M  V30 3 1 2 4
M  V30 4 1 3 5
M  V30 5 1 4 6
M  V30 6 1 5 7
M  V30 7 1 6 8
M  V30 8 1 7 9
M  V30 9 1 8 10
M  V30 10 1 8 11
M  V30 11 1 8 12
M  V30 12 1 9 13
M  V30 13 1 10 14
M  V30 14 2 13 15
M  V30 15 1 13 16
M  V30 16 1 14 17
M  V30 17 1 14 18
M  V30 18 2 16 19
M  V30 19 1 16 20
M  V30 20 1 17 21
M  V30 21 1 21 22
M  V30 22 1 22 23
M  V30 23 2 23 24
M  V30 24 1 23 25
M  V30 25 1 25 26
M  V30 26 1 26 27
M  V30 27 1 27 28
M  V30 28 1 28 29
M  V30 29 2 29 30
M  V30 30 1 29 31
M  V30 31 2 31 32
M  V30 32 1 31 33
M  V30 33 1 4 34
M  V30 34 1 5 35
M  V30 35 1 5 36
M  V30 36 1 6 37
M  V30 37 1 6 38
M  V30 38 1 7 39
M  V30 39 1 7 40
M  V30 40 1 10 41
M  V30 41 1 10 42
M  V30 42 1 11 43
M  V30 43 1 11 44
M  V30 44 1 11 45
M  V30 45 1 12 46
M  V30 46 1 12 47
M  V30 47 1 12 48
M  V30 48 1 14 49
M  V30 49 1 17 50
M  V30 50 1 17 51
M  V30 51 1 18 52
M  V30 52 1 18 53
M  V30 53 1 18 54
M  V30 54 1 19 55
M  V30 55 1 19 56
M  V30 56 1 20 57
M  V30 57 1 20 58
M  V30 58 1 20 59
M  V30 59 1 21 60
M  V30 60 1 21 61
M  V30 61 1 22 62
M  V30 62 1 26 63
M  V30 63 1 26 64
M  V30 64 1 27 65
M  V30 65 1 27 66
M  V30 66 1 32 67
M  V30 67 1 32 68
M  V30 68 1 33 69
M  V30 69 1 33 70
M  V30 70 1 33 71
M  V30 END BOND
M  V30 BEGIN COLLECTION
M  V30 MDLV30/STEABS ATOMS=(1 14)
M  V30 END COLLECTION
M  V30 END CTAB
M  END
>  <Structure No>
953

>  <LogS>
-4.619923834

>  <MMFF94 Energy>
-93.987

$$$$
Compound 954
Actelion Java MolfileCreator 2.0

  0  0  0  0  0  0              0 V3000
M  V30 BEGIN CTAB
M  V30 COUNTS 38 38 0 0 0
M  V30 BEGIN ATOM
M  V30 1 O 1.0332 0.5562 2.6245 0
M  V30 2 C 1.1156 -0.1934 1.6145 0
M  V30 3 O 1.2454 -1.564 1.8108 0 CHG=-1
M  V30 4 C 1.0002 0.397 0.2136 0
M  V30 5 C 1.8486 1.699 0.1385 0
M  V30 6 C 1.5152 -0.5972 -0.8889 0
M  V30 7 C -0.4903 0.7722 -0.0578 0
M  V30 8 C 3.3514 1.4565 0.3977 0
M  V30 9 C 3.012 -0.4517 -1.2413 0
M  V30 10 C -1.4991 -0.4197 0.0098 0
M  V30 11 C 3.8358 0.0702 -0.0637 0
M  V30 12 C -2.2548 -0.4362 1.3646 0
M  V30 13 C -2.4505 -0.4236 -1.2161 0
M  V30 14 C -3.1306 -1.676 1.55 0
M  V30 15 C -3.4372 0.7473 -1.2515 0
M  V30 16 H 1.4752 2.4584 0.861 0
M  V30 17 H 1.7361 2.1457 -0.8749 0
M  V30 18 H 1.3182 -1.652 -0.6047 0
M  V30 19 H 0.948 -0.4417 -1.8332 0
M  V30 20 H -0.5362 1.2526 -1.0606 0
M  V30 21 H -0.8072 1.5691 0.6522 0
M  V30 22 H 3.5625 1.5644 1.4839 0
M  V30 23 H 3.9335 2.2442 -0.1285 0
M  V30 24 H 3.1252 0.2527 -2.095 0
M  V30 25 H 3.4144 -1.435 -1.5675 0
M  V30 26 H -0.9318 -1.3722 -0.0503 0
M  V30 27 H 3.7676 -0.6533 0.7773 0
M  V30 28 H 4.9054 0.1324 -0.359 0
M  V30 29 H -2.878 0.4758 1.4793 0
M  V30 30 H -1.519 -0.4254 2.1947 0
M  V30 31 H -3.0219 -1.3752 -1.2493 0
M  V30 32 H -1.8404 -0.4014 -2.1455 0
M  V30 33 H -3.5202 -1.7004 2.5896 0
M  V30 34 H -2.5401 -2.5997 1.373 0
M  V30 35 H -3.9993 -1.6516 0.8603 0
M  V30 36 H -4.1949 0.6463 -0.4472 0
M  V30 37 H -3.972 0.7467 -2.2245 0
M  V30 38 H -2.9111 1.7183 -1.1429 0
M  V30 END ATOM
M  V30 BEGIN BOND
M  V30 1 2 1 2
M  V30 2 1 2 3
M  V30 3 1 2 4
M  V30 4 1 4 5
M  V30 5 1 4 6
M  V30 6 1 4 7
M  V30 7 1 5 8
M  V30 8 1 6 9
M  V30 9 1 7 10
M  V30 10 1 8 11
M  V30 11 1 10 12
M  V30 12 1 10 13
M  V30 13 1 12 14
M  V30 14 1 13 15
M  V30 15 1 9 11
M  V30 16 1 5 16
M  V30 17 1 5 17
M  V30 18 1 6 18
M  V30 19 1 6 19
M  V30 20 1 7 20
M  V30 21 1 7 21
M  V30 22 1 8 22
M  V30 23 1 8 23
M  V30 24 1 9 24
M  V30 25 1 9 25
M  V30 26 1 10 26
M  V30 27 1 11 27
M  V30 28 1 11 28
M  V30 29 1 12 29
M  V30 30 1 12 30
M  V30 31 1 13 31
M  V30 32 1 13 32
M  V30 33 1 14 33
M  V30 34 1 14 34
M  V30 35 1 14 35
M  V30 36 1 15 36
M  V30 37 1 15 37
M  V30 38 1 15 38
M  V30 END BOND
M  V30 END CTAB
M  END
>  <Structure No>
954

>  <LogS>
-4.281694517

>  <MMFF94 Energy>
31.081

$$$$
Compound 955
Actelion Java MolfileCreator 2.0

  0  0  0  0  0  0              0 V3000
M  V30 BEGIN CTAB
M  V30 COUNTS 36 35 0 0 0
M  V30 BEGIN ATOM
M  V30 1 O -1.5656 1.5656 -1.0174 0
M  V30 2 C -1.2432 0.4131 -0.6209 0
M  V30 3 O -2.1372 -0.658 -0.7471 0
M  V30 4 C 0.0878 0.2068 -0.0309 0
M  V30 5 C -3.4612 -0.521 -1.2594 0
M  V30 6 C 0.4894 -0.9898 0.4098 0
M  V30 7 C -4.3801 0.1096 -0.2093 0
M  V30 8 C 1.8214 -1.1959 0.9974 0
M  V30 9 C -5.8184 0.2154 -0.7278 0
M  V30 10 O 2.1516 -2.3513 1.3784 0
M  V30 11 O 2.7081 -0.1206 1.1369 0
M  V30 12 C -6.736 0.8441 0.3166 0
M  V30 13 C 4.0441 -0.2589 1.6182 0
M  V30 14 C 4.9567 -0.8981 0.5615 0
M  V30 15 C 4.9434 -0.1596 -0.7871 0
M  V30 16 C 5.5642 1.2341 -0.7053 0
M  V30 17 H 0.7493 1.062 0.0403 0
M  V30 18 H -3.8406 -1.5331 -1.5154 0
M  V30 19 H -3.4503 0.0883 -2.1897 0
M  V30 20 H -0.171 -1.8457 0.3364 0
M  V30 21 H -4.0062 1.124 0.0484 0
M  V30 22 H -4.3607 -0.5158 0.7099 0
M  V30 23 H -6.202 -0.7972 -0.98 0
M  V30 24 H -5.84 0.8395 -1.6477 0
M  V30 25 H -6.3896 1.8693 0.5677 0
M  V30 26 H -6.7514 0.2256 1.2392 0
M  V30 27 H -7.769 0.9073 -0.0855 0
M  V30 28 H 4.0526 -0.8743 2.544 0
M  V30 29 H 4.4322 0.744 1.8907 0
M  V30 30 H 4.631 -1.9465 0.3918 0
M  V30 31 H 5.9957 -0.9383 0.9546 0
M  V30 32 H 5.5278 -0.7589 -1.5184 0
M  V30 33 H 3.905 -0.0824 -1.1756 0
M  V30 34 H 5.6423 1.6634 -1.7262 0
M  V30 35 H 4.9306 1.9103 -0.0946 0
M  V30 36 H 6.5827 1.1813 -0.2652 0
M  V30 END ATOM
M  V30 BEGIN BOND
M  V30 1 2 1 2
M  V30 2 1 2 3
M  V30 3 1 2 4
M  V30 4 1 3 5
M  V30 5 2 4 6
M  V30 6 1 5 7
M  V30 7 1 6 8
M  V30 8 1 7 9
M  V30 9 2 8 10
M  V30 10 1 8 11
M  V30 11 1 9 12
M  V30 12 1 11 13
M  V30 13 1 13 14
M  V30 14 1 14 15
M  V30 15 1 15 16
M  V30 16 1 4 17
M  V30 17 1 5 18
M  V30 18 1 5 19
M  V30 19 1 6 20
M  V30 20 1 7 21
M  V30 21 1 7 22
M  V30 22 1 9 23
M  V30 23 1 9 24
M  V30 24 1 12 25
M  V30 25 1 12 26
M  V30 26 1 12 27
M  V30 27 1 13 28
M  V30 28 1 13 29
M  V30 29 1 14 30
M  V30 30 1 14 31
M  V30 31 1 15 32
M  V30 32 1 15 33
M  V30 33 1 16 34
M  V30 34 1 16 35
M  V30 35 1 16 36
M  V30 END BOND
M  V30 END CTAB
M  END
>  <Structure No>
955

>  <LogS>
-4.313551537

>  <MMFF94 Energy>
-37.645

$$$$
Compound 956
Actelion Java MolfileCreator 2.0

  0  0  0  0  0  0              0 V3000
M  V30 BEGIN CTAB
M  V30 COUNTS 28 27 0 0 0
M  V30 BEGIN ATOM
M  V30 1 O -0.7824 -1.252 -2.5053 0
M  V30 2 C -1.7649 -1.1173 -1.7241 0
M  V30 3 O -1.6739 -0.2604 -0.62 0
M  V30 4 C -3.0246 -1.8545 -1.9698 0
M  V30 5 C -0.4871 0.4478 -0.2683 0
M  V30 6 C -3.1759 -2.6142 -3.0612 0
M  V30 7 C -4.1713 -1.6857 -1.0119 0
M  V30 8 C 0.5221 -0.4908 0.3944 0
M  V30 9 O 1.7088 0.2175 0.7464 0
M  V30 10 C 1.7999 1.0737 1.851 0
M  V30 11 O 0.8164 1.2096 2.6311 0
M  V30 12 C 3.0593 1.8109 2.0973 0
M  V30 13 C 3.1564 2.6922 3.1 0
M  V30 14 C 4.2174 1.6166 1.1583 0
M  V30 15 H -0.0405 0.9236 -1.1685 0
M  V30 16 H -0.7612 1.2537 0.4435 0
M  V30 17 H -4.1078 -3.1303 -3.2563 0
M  V30 18 H -2.3768 -2.7347 -3.7814 0
M  V30 19 H -3.8009 -1.7055 0.0346 0
M  V30 20 H -4.9201 -2.4999 -1.12 0
M  V30 21 H -4.6699 -0.7121 -1.201 0
M  V30 22 H 0.0753 -0.9667 1.2945 0
M  V30 23 H 0.7963 -1.2966 -0.3174 0
M  V30 24 H 4.0677 3.2543 3.2621 0
M  V30 25 H 2.3304 2.8726 3.7763 0
M  V30 26 H 4.029 2.1778 0.2193 0
M  V30 27 H 4.3379 0.5393 0.9183 0
M  V30 28 H 5.1717 1.9718 1.6037 0
M  V30 END ATOM
M  V30 BEGIN BOND
M  V30 1 2 1 2
M  V30 2 1 2 3
M  V30 3 1 2 4
M  V30 4 1 3 5
M  V30 5 2 4 6
M  V30 6 1 4 7
M  V30 7 1 5 8
M  V30 8 1 8 9
M  V30 9 1 9 10
M  V30 10 2 10 11
M  V30 11 1 10 12
M  V30 12 2 12 13
M  V30 13 1 12 14
M  V30 14 1 5 15
M  V30 15 1 5 16
M  V30 16 1 6 17
M  V30 17 1 6 18
M  V30 18 1 7 19
M  V30 19 1 7 20
M  V30 20 1 7 21
M  V30 21 1 8 22
M  V30 22 1 8 23
M  V30 23 1 13 24
M  V30 24 1 13 25
M  V30 25 1 14 26
M  V30 26 1 14 27
M  V30 27 1 14 28
M  V30 END BOND
M  V30 END CTAB
M  END
>  <Structure No>
956

>  <LogS>
-2.261313265

>  <MMFF94 Energy>
9.4805

$$$$
Compound 957
Actelion Java MolfileCreator 2.0

  0  0  0  0  0  0              0 V3000
M  V30 BEGIN CTAB
M  V30 COUNTS 8 7 0 0 0
M  V30 BEGIN ATOM
M  V30 1 N -0.7081 -0.0707 0.0 0 CHG=1
M  V30 2 C 0.7458 0.0141 0.0578 0
M  V30 3 H -1.1165 0.8865 0.1006 0
M  V30 4 H -1.0519 -0.6807 0.7766 0
M  V30 5 H -0.9963 -0.4788 -0.9183 0
M  V30 6 H 1.1896 -0.9992 -0.0481 0
M  V30 7 H 1.0623 0.447 1.0313 0
M  V30 8 H 1.1212 0.6609 -0.7642 0
M  V30 END ATOM
M  V30 BEGIN BOND
M  V30 1 1 1 2
M  V30 2 1 1 3
M  V30 3 1 1 4
M  V30 4 1 1 5
M  V30 5 1 2 6
M  V30 6 1 2 7
M  V30 7 1 2 8
M  V30 END BOND
M  V30 END CTAB
M  END
>  <Structure No>
957

>  <LogS>
-1.796002246

>  <MMFF94 Energy>
0.37104

$$$$
Compound 958
Actelion Java MolfileCreator 2.0

  0  0  0  0  0  0              0 V3000
M  V30 BEGIN CTAB
M  V30 COUNTS 21 21 0 0 0
M  V30 BEGIN ATOM
M  V30 1 C 0.0779 -0.4679 0.0 0
M  V30 2 C -1.2387 0.0636 0.064 0
M  V30 3 C 1.1833 0.4251 -0.0232 0
M  V30 4 C 0.3026 -1.965 0.0342 0
M  V30 5 C -1.429 1.4537 0.0138 0
M  V30 6 C -2.4516 -0.8267 0.1563 0
M  V30 7 C 0.956 1.8097 -0.072 0
M  V30 8 C 2.6065 -0.0719 -0.0259 0
M  V30 9 C -0.3399 2.3171 -0.0589 0
M  V30 10 H -0.5265 -2.5149 -0.455 0
M  V30 11 H 0.3907 -2.3017 1.0881 0
M  V30 12 H 1.2193 -2.2545 -0.5178 0
M  V30 13 H -2.4268 1.8747 0.0356 0
M  V30 14 H -2.3133 -1.5818 0.9586 0
M  V30 15 H -3.3673 -0.247 0.4006 0
M  V30 16 H -2.6137 -1.3394 -0.8147 0
M  V30 17 H 1.7865 2.5035 -0.1161 0
M  V30 18 H 2.8421 -0.5252 -1.0113 0
M  V30 19 H 3.3282 0.7521 0.1594 0
M  V30 20 H 2.7511 -0.826 0.776 0
M  V30 21 H -0.5008 3.3869 -0.0959 0
M  V30 END ATOM
M  V30 BEGIN BOND
M  V30 1 2 1 2
M  V30 2 1 1 3
M  V30 3 1 1 4
M  V30 4 1 2 5
M  V30 5 1 2 6
M  V30 6 2 3 7
M  V30 7 1 3 8
M  V30 8 2 5 9
M  V30 9 1 7 9
M  V30 10 1 4 10
M  V30 11 1 4 11
M  V30 12 1 4 12
M  V30 13 1 5 13
M  V30 14 1 6 14
M  V30 15 1 6 15
M  V30 16 1 6 16
M  V30 17 1 7 17
M  V30 18 1 8 18
M  V30 19 1 8 19
M  V30 20 1 8 20
M  V30 21 1 9 21
M  V30 END BOND
M  V30 END CTAB
M  END
>  <Structure No>
958

>  <LogS>
-3.51623781

>  <MMFF94 Energy>
26.573

$$$$
Compound 959
Actelion Java MolfileCreator 2.0

  0  0  0  0  0  0              0 V3000
M  V30 BEGIN CTAB
M  V30 COUNTS 29 30 0 0 0
M  V30 BEGIN ATOM
M  V30 1 O 0.3188 1.6747 0.877 0
M  V30 2 C -0.4114 1.088 0.0312 0
M  V30 3 O 0.0512 0.8845 -1.2751 0
M  V30 4 C -1.7594 0.6153 0.4158 0
M  V30 5 C 1.3571 1.255 -1.7118 0
M  V30 6 C -2.2473 0.8182 1.7202 0
M  V30 7 C -2.5727 -0.048 -0.5203 0
M  V30 8 C 2.3883 0.3331 -1.1205 0
M  V30 9 C -3.5216 0.367 2.0777 0
M  V30 10 C -3.8466 -0.4976 -0.159 0
M  V30 11 C 2.4224 -1.0173 -1.5039 0
M  V30 12 C 3.305 0.8017 -0.1642 0
M  V30 13 C -4.3241 -0.2909 1.1414 0
M  V30 14 C 3.3659 -1.8847 -0.9444 0
M  V30 15 C 4.2469 -0.069 0.3929 0
M  V30 16 O -5.5916 -0.7347 1.5121 0
M  V30 17 C 4.2779 -1.4108 0.0027 0
M  V30 18 H 1.3967 1.1757 -2.8187 0
M  V30 19 H 1.5576 2.3173 -1.4504 0
M  V30 20 H -1.6454 1.3249 2.4644 0
M  V30 21 H -2.2263 -0.2207 -1.5314 0
M  V30 22 H -3.886 0.5292 3.0843 0
M  V30 23 H -4.4613 -1.0067 -0.8904 0
M  V30 24 H 1.7173 -1.3966 -2.2334 0
M  V30 25 H 3.2898 1.8374 0.1515 0
M  V30 26 H 3.3887 -2.9245 -1.2439 0
M  V30 27 H 4.9518 0.296 1.1286 0
M  V30 28 H -6.1971 -1.2149 0.8566 0
M  V30 29 H 5.0069 -2.0834 0.4355 0
M  V30 END ATOM
M  V30 BEGIN BOND
M  V30 1 2 1 2
M  V30 2 1 2 3
M  V30 3 1 2 4
M  V30 4 1 3 5
M  V30 5 2 4 6
M  V30 6 1 4 7
M  V30 7 1 5 8
M  V30 8 1 6 9
M  V30 9 2 7 10
M  V30 10 2 8 11
M  V30 11 1 8 12
M  V30 12 2 9 13
M  V30 13 1 11 14
M  V30 14 2 12 15
M  V30 15 1 13 16
M  V30 16 2 14 17
M  V30 17 1 10 13
M  V30 18 1 15 17
M  V30 19 1 5 18
M  V30 20 1 5 19
M  V30 21 1 6 20
M  V30 22 1 7 21
M  V30 23 1 9 22
M  V30 24 1 10 23
M  V30 25 1 11 24
M  V30 26 1 12 25
M  V30 27 1 14 26
M  V30 28 1 15 27
M  V30 29 1 16 28
M  V30 30 1 17 29
M  V30 END BOND
M  V30 END CTAB
M  END
>  <Structure No>
959

>  <LogS>
-3.324981323

>  <MMFF94 Energy>
35.664

$$$$
Compound 960
Actelion Java MolfileCreator 2.0

  0  0  0  0  0  0              0 V3000
M  V30 BEGIN CTAB
M  V30 COUNTS 17 17 0 0 0
M  V30 BEGIN ATOM
M  V30 1 N 2.9933 1.417 1.3382 0
M  V30 2 C 2.4488 1.608 0.3351 0
M  V30 3 C 1.773 1.8466 -0.9153 0
M  V30 4 C 0.6746 1.1836 -1.3012 0
M  V30 5 C -0.0456 0.1805 -0.4829 0
M  V30 6 C -0.3223 0.3942 0.8809 0
M  V30 7 C -0.5332 -0.9803 -1.1045 0
M  V30 8 C -1.0334 -0.5607 1.6144 0
M  V30 9 C -1.2434 -1.9329 -0.3671 0
M  V30 10 C -1.489 -1.7257 0.9924 0
M  V30 11 H 2.2254 2.5486 -1.6039 0
M  V30 12 H 0.3193 1.3498 -2.3113 0
M  V30 13 H -0.0139 1.307 1.3734 0
M  V30 14 H -0.3542 -1.1533 -2.1588 0
M  V30 15 H -1.2403 -0.3924 2.6634 0
M  V30 16 H -1.606 -2.8306 -0.8508 0
M  V30 17 H -2.041 -2.4626 1.5613 0
M  V30 END ATOM
M  V30 BEGIN BOND
M  V30 1 3 1 2
M  V30 2 1 2 3
M  V30 3 2 3 4
M  V30 4 1 4 5
M  V30 5 2 5 6
M  V30 6 1 5 7
M  V30 7 1 6 8
M  V30 8 2 7 9
M  V30 9 2 8 10
M  V30 10 1 9 10
M  V30 11 1 3 11
M  V30 12 1 4 12
M  V30 13 1 6 13
M  V30 14 1 7 14
M  V30 15 1 8 15
M  V30 16 1 9 16
M  V30 17 1 10 17
M  V30 END BOND
M  V30 END CTAB
M  END
>  <Structure No>
960

>  <LogS>
-2.082970342

>  <MMFF94 Energy>
23.15

$$$$
Compound 961
Actelion Java MolfileCreator 2.0

  0  0  0  0  0  0              0 V3000
M  V30 BEGIN CTAB
M  V30 COUNTS 27 27 0 0 0
M  V30 BEGIN ATOM
M  V30 1 S -4.409 -1.7789 0.2539 0
M  V30 2 O -5.1583 -2.3167 1.4394 0
M  V30 3 O -5.3091 -1.8076 -0.9494 0
M  V30 4 O -3.9391 -0.1823 0.5802 0
M  V30 5 O -3.065 -2.7493 -0.0244 0 CHG=-1
M  V30 6 C -3.0348 0.2616 -0.408 0
M  V30 7 C -1.6098 0.2326 0.1427 0
M  V30 8 S -0.4426 0.8324 -1.0669 0
M  V30 9 O -0.7816 2.2469 -1.447 0
M  V30 10 O -0.4963 -0.0252 -2.3003 0
M  V30 11 C 1.1762 0.774 -0.3785 0
M  V30 12 C 1.9341 -0.4025 -0.4639 0
M  V30 13 C 1.7029 1.8915 0.2835 0
M  V30 14 C 3.2185 -0.4596 0.0968 0
M  V30 15 C 2.9824 1.8372 0.8428 0
M  V30 16 N 3.9905 -1.6598 0.006 0
M  V30 17 C 3.7398 0.6665 0.7493 0
M  V30 18 H -3.094 -0.3075 -1.3646 0
M  V30 19 H -3.2953 1.3126 -0.6547 0
M  V30 20 H -1.5471 0.8714 1.0494 0
M  V30 21 H -1.3307 -0.8039 0.4228 0
M  V30 22 H 1.5257 -1.2731 -0.9619 0
M  V30 23 H 1.124 2.802 0.3699 0
M  V30 24 H 3.3866 2.7028 1.3517 0
M  V30 25 H 4.9473 -1.7125 0.4211 0
M  V30 26 H 3.6109 -2.5044 -0.4769 0
M  V30 27 H 4.7296 0.6356 1.187 0
M  V30 END ATOM
M  V30 BEGIN BOND
M  V30 1 2 1 2
M  V30 2 2 1 3
M  V30 3 1 1 4
M  V30 4 1 1 5
M  V30 5 1 4 6
M  V30 6 1 6 7
M  V30 7 1 7 8
M  V30 8 2 8 9
M  V30 9 2 8 10
M  V30 10 1 8 11
M  V30 11 2 11 12
M  V30 12 1 11 13
M  V30 13 1 12 14
M  V30 14 2 13 15
M  V30 15 1 14 16
M  V30 16 2 14 17
M  V30 17 1 15 17
M  V30 18 1 6 18
M  V30 19 1 6 19
M  V30 20 1 7 20
M  V30 21 1 7 21
M  V30 22 1 12 22
M  V30 23 1 13 23
M  V30 24 1 15 24
M  V30 25 1 16 25
M  V30 26 1 16 26
M  V30 27 1 17 27
M  V30 END BOND
M  V30 END CTAB
M  END
>  <Structure No>
961

>  <LogS>
-1.423880849

>  <MMFF94 Energy>
-36.474

$$$$
Compound 962
Actelion Java MolfileCreator 2.0

  0  0  0  0  0  0              0 V3000
M  V30 BEGIN CTAB
M  V30 COUNTS 34 34 0 0 0
M  V30 BEGIN ATOM
M  V30 1 O 3.9469 0.1576 1.025 0
M  V30 2 C 3.3776 -0.0246 -0.0855 0
M  V30 3 C 1.9146 0.1025 -0.2139 0
M  V30 4 C 4.1966 -0.3763 -1.285 0
M  V30 5 C 1.1278 0.4183 0.8242 0
M  V30 6 C -0.3817 0.5474 0.7129 0 CFG=1
M  V30 7 C -0.8219 1.3662 -0.5048 0
M  V30 8 C -1.1116 -0.8357 0.8424 0
M  V30 9 C -1.9843 1.1142 -1.144 0
M  V30 10 C -0.069 2.6181 -0.89 0
M  V30 11 C -2.6221 -0.6166 0.5841 0
M  V30 12 C -0.5591 -1.8953 -0.1455 0
M  V30 13 C -0.9442 -1.3826 2.2788 0
M  V30 14 C -2.8875 -0.0432 -0.8116 0
M  V30 15 H 1.4735 -0.0629 -1.1891 0
M  V30 16 H 5.275 -0.4241 -1.022 0
M  V30 17 H 3.879 -1.3654 -1.6765 0
M  V30 18 H 4.054 0.3923 -2.0731 0
M  V30 19 H 1.5703 0.5941 1.7978 0
M  V30 20 H -0.6972 1.1605 1.5871 0
M  V30 21 H -2.2796 1.7434 -1.98 0
M  V30 22 H 0.3637 2.4947 -1.905 0
M  V30 23 H 0.7514 2.8408 -0.1772 0
M  V30 24 H -0.756 3.4914 -0.8915 0
M  V30 25 H -3.0323 0.0909 1.3397 0
M  V30 26 H -3.1804 -1.573 0.6921 0
M  V30 27 H -0.513 -1.4985 -1.1808 0
M  V30 28 H -1.2042 -2.8003 -0.148 0
M  V30 29 H 0.4625 -2.2195 0.1447 0
M  V30 30 H 0.127 -1.5595 2.514 0
M  V30 31 H -1.4853 -2.3466 2.3963 0
M  V30 32 H -1.3493 -0.6661 3.0259 0
M  V30 33 H -3.9431 0.2995 -0.8642 0
M  V30 34 H -2.7589 -0.8336 -1.5808 0
M  V30 END ATOM
M  V30 BEGIN BOND
M  V30 1 2 1 2
M  V30 2 1 2 3
M  V30 3 1 2 4
M  V30 4 2 3 5
M  V30 5 1 5 6
M  V30 6 1 6 7
M  V30 7 1 6 8
M  V30 8 2 7 9
M  V30 9 1 7 10
M  V30 10 1 8 11
M  V30 11 1 8 12
M  V30 12 1 8 13
M  V30 13 1 9 14
M  V30 14 1 11 14
M  V30 15 1 3 15
M  V30 16 1 4 16
M  V30 17 1 4 17
M  V30 18 1 4 18
M  V30 19 1 5 19
M  V30 20 1 6 20
M  V30 21 1 9 21
M  V30 22 1 10 22
M  V30 23 1 10 23
M  V30 24 1 10 24
M  V30 25 1 11 25
M  V30 26 1 11 26
M  V30 27 1 12 27
M  V30 28 1 12 28
M  V30 29 1 12 29
M  V30 30 1 13 30
M  V30 31 1 13 31
M  V30 32 1 13 32
M  V30 33 1 14 33
M  V30 34 1 14 34
M  V30 END BOND
M  V30 BEGIN COLLECTION
M  V30 MDLV30/STEABS ATOMS=(1 6)
M  V30 END COLLECTION
M  V30 END CTAB
M  END
>  <Structure No>
962

>  <LogS>
-3.258677936

>  <MMFF94 Energy>
34.682

$$$$
Compound 963
Actelion Java MolfileCreator 2.0

  0  0  0  0  0  0              0 V3000
M  V30 BEGIN CTAB
M  V30 COUNTS 11 10 0 0 0
M  V30 BEGIN ATOM
M  V30 1 O 1.7612 -0.0765 1.3015 0
M  V30 2 C 1.872 -0.0149 0.0478 0
M  V30 3 O 0.7988 0.383 -0.7554 0
M  V30 4 C -0.4927 0.699 -0.2392 0
M  V30 5 C -1.2507 -0.5704 0.1314 0
M  V30 6 H 2.8157 -0.2674 -0.4154 0
M  V30 7 H -1.0642 1.239 -1.0232 0
M  V30 8 H -0.4041 1.3679 0.6445 0
M  V30 9 H -2.2724 -0.3074 0.4776 0
M  V30 10 H -0.7267 -1.1108 0.947 0
M  V30 11 H -1.331 -1.2358 -0.754 0
M  V30 END ATOM
M  V30 BEGIN BOND
M  V30 1 2 1 2
M  V30 2 1 2 3
M  V30 3 1 3 4
M  V30 4 1 4 5
M  V30 5 1 2 6
M  V30 6 1 4 7
M  V30 7 1 4 8
M  V30 8 1 5 9
M  V30 9 1 5 10
M  V30 10 1 5 11
M  V30 END BOND
M  V30 END CTAB
M  END
>  <Structure No>
963

>  <LogS>
0.151494188

>  <MMFF94 Energy>
-10.518

$$$$
Compound 964
Actelion Java MolfileCreator 2.0

  0  0  0  0  0  0              0 V3000
M  V30 BEGIN CTAB
M  V30 COUNTS 19 19 0 0 0
M  V30 BEGIN ATOM
M  V30 1 S 3.0548 0.4238 0.6782 0
M  V30 2 O 3.1545 0.1827 2.1584 0
M  V30 3 O 3.6036 1.7894 0.3738 0
M  V30 4 O 3.9531 -0.7353 -0.14 0 CHG=-1
M  V30 5 C 1.3721 0.3275 0.1695 0
M  V30 6 C 0.4879 -0.5377 0.8234 0
M  V30 7 C 0.92 1.0881 -0.9122 0
M  V30 8 C -0.8519 -0.6401 0.416 0
M  V30 9 C -0.4129 1.0099 -1.3182 0
M  V30 10 N -1.6919 -1.6089 1.0583 0
M  V30 11 C -1.3203 0.166 -0.6525 0
M  V30 12 C -2.7412 0.1862 -1.0685 0
M  V30 13 O -3.0458 0.4104 -2.2702 0
M  V30 14 O -3.7581 0.024 -0.1352 0 CHG=-1
M  V30 15 H 0.8481 -1.1539 1.6381 0
M  V30 16 H 1.5967 1.7493 -1.4381 0
M  V30 17 H -0.7423 1.632 -2.1418 0
M  V30 18 H -1.3659 -2.1028 1.919 0
M  V30 19 H -2.5737 -1.9516 0.6202 0
M  V30 END ATOM
M  V30 BEGIN BOND
M  V30 1 2 1 2
M  V30 2 2 1 3
M  V30 3 1 1 4
M  V30 4 1 1 5
M  V30 5 2 5 6
M  V30 6 1 5 7
M  V30 7 1 6 8
M  V30 8 2 7 9
M  V30 9 1 8 10
M  V30 10 2 8 11
M  V30 11 1 11 12
M  V30 12 2 12 13
M  V30 13 1 12 14
M  V30 14 1 9 11
M  V30 15 1 6 15
M  V30 16 1 7 16
M  V30 17 1 9 17
M  V30 18 1 10 18
M  V30 19 1 10 19
M  V30 END BOND
M  V30 END CTAB
M  END
>  <Structure No>
964

>  <LogS>
-1.315674521

>  <MMFF94 Energy>
97.121

$$$$
Compound 965
Actelion Java MolfileCreator 2.0

  0  0  0  0  0  0              0 V3000
M  V30 BEGIN CTAB
M  V30 COUNTS 22 22 0 0 0
M  V30 BEGIN ATOM
M  V30 1 O -3.9524 -0.3869 0.8514 0
M  V30 2 C -2.6649 -0.2815 0.33 0
M  V30 3 C -2.0012 -1.4316 -0.1089 0
M  V30 4 C -2.0289 0.9643 0.243 0
M  V30 5 C -0.7087 -1.3407 -0.634 0
M  V30 6 C -0.7364 1.0579 -0.282 0
M  V30 7 C -0.0691 -0.0939 -0.7302 0
M  V30 8 C 1.3336 -0.0014 -1.2731 0
M  V30 9 C 2.3822 -0.3967 -0.2221 0
M  V30 10 N 2.4288 0.5565 0.8881 0 CHG=1
M  V30 11 H -4.4594 0.4272 1.1783 0
M  V30 12 H -2.4868 -2.3968 -0.0408 0
M  V30 13 H -2.5337 1.8592 0.5841 0
M  V30 14 H -0.2052 -2.2409 -0.9645 0
M  V30 15 H -0.2551 2.0266 -0.3352 0
M  V30 16 H 1.4298 -0.6814 -2.1473 0
M  V30 17 H 1.5431 1.0259 -1.644 0
M  V30 18 H 3.3793 -0.4309 -0.7143 0
M  V30 19 H 2.1648 -1.4164 0.1668 0
M  V30 20 H 2.5854 1.5257 0.5276 0
M  V30 21 H 1.5388 0.5196 1.4354 0
M  V30 22 H 3.2196 0.3012 1.5226 0
M  V30 END ATOM
M  V30 BEGIN BOND
M  V30 1 1 1 2
M  V30 2 2 2 3
M  V30 3 1 2 4
M  V30 4 1 3 5
M  V30 5 2 4 6
M  V30 6 2 5 7
M  V30 7 1 7 8
M  V30 8 1 8 9
M  V30 9 1 9 10
M  V30 10 1 6 7
M  V30 11 1 1 11
M  V30 12 1 3 12
M  V30 13 1 4 13
M  V30 14 1 5 14
M  V30 15 1 6 15
M  V30 16 1 8 16
M  V30 17 1 8 17
M  V30 18 1 9 18
M  V30 19 1 9 19
M  V30 20 1 10 20
M  V30 21 1 10 21
M  V30 22 1 10 22
M  V30 END BOND
M  V30 END CTAB
M  END
>  <Structure No>
965

>  <LogS>
-1.116107831

>  <MMFF94 Energy>
21.012

$$$$
Compound 966
Actelion Java MolfileCreator 2.0

  0  0  0  0  0  0              0 V3000
M  V30 BEGIN CTAB
M  V30 COUNTS 60 63 0 0 0
M  V30 BEGIN ATOM
M  V30 1 S 8.472 -0.4968 0.6625 0
M  V30 2 O 8.8491 -1.4139 1.7894 0
M  V30 3 O 8.9691 0.8892 0.9545 0
M  V30 4 O 9.1881 -1.0334 -0.7592 0 CHG=-1
M  V30 5 C 6.7224 -0.4808 0.477 0
M  V30 6 C 5.9494 0.4762 1.1413 0
M  V30 7 C 6.0981 -1.4414 -0.3278 0
M  V30 8 C 4.5547 0.494 0.9907 0
M  V30 9 C 4.705 -1.4404 -0.4842 0
M  V30 10 O 3.8053 1.4524 1.6771 0
M  V30 11 C 3.9206 -0.4588 0.1652 0
M  V30 12 C 4.0648 -2.4774 -1.3359 0
M  V30 13 C 2.4528 -0.4523 -0.0835 0
M  V30 14 C 2.7355 -2.6009 -1.4033 0
M  V30 15 N 1.7819 0.6569 0.0692 0
M  V30 16 C 1.8598 -1.6942 -0.6476 0
M  V30 17 N 0.467 0.8733 -0.3806 0
M  V30 18 N 0.6517 -2.079 -0.3706 0
M  V30 19 C -0.2997 1.9942 0.1012 0
M  V30 20 C -1.5118 2.3875 -0.5251 0
M  V30 21 C 0.1506 2.7118 1.2253 0
M  V30 22 S -2.1462 1.5468 -1.949 0
M  V30 23 C -2.2385 3.4708 -0.0054 0
M  V30 24 C -0.5836 3.7884 1.7256 0
M  V30 25 O -1.1126 1.6042 -3.0385 0
M  V30 26 O -3.3919 2.225 -2.4464 0
M  V30 27 N -2.4962 -0.1208 -1.5511 0
M  V30 28 C -1.7768 4.1647 1.1128 0
M  V30 29 C -3.4591 -0.241 -0.4252 0
M  V30 30 C -2.8695 -0.86 -2.767 0
M  V30 31 C -4.9489 -0.1772 -0.8451 0
M  V30 32 C -3.1632 -1.5269 0.392 0
M  V30 33 C -5.8682 -0.1271 0.3903 0
M  V30 34 C -4.3875 -2.0623 1.1597 0
M  V30 35 C -5.3227 -0.9288 1.5935 0
M  V30 36 H 6.4281 1.2042 1.7826 0
M  V30 37 H 6.6972 -2.1974 -0.8212 0
M  V30 38 H 4.2408 2.1327 2.2877 0
M  V30 39 H 4.6834 -3.1833 -1.8755 0
M  V30 40 H 2.3007 -3.4164 -1.9715 0
M  V30 41 H 0.1047 0.2934 -1.1664 0
M  V30 42 H 0.0087 -1.5387 0.2498 0
M  V30 43 H 1.0666 2.435 1.7315 0
M  V30 44 H -3.1721 3.7794 -0.4578 0
M  V30 45 H -0.2278 4.3304 2.5928 0
M  V30 46 H -2.3523 4.9902 1.5153 0
M  V30 47 H -3.2965 0.605 0.2792 0
M  V30 48 H -1.9979 -0.9083 -3.4525 0
M  V30 49 H -3.1509 -1.9065 -2.5245 0
M  V30 50 H -3.7137 -0.3677 -3.2958 0
M  V30 51 H -5.2111 -1.0776 -1.4441 0
M  V30 52 H -5.148 0.7173 -1.4729 0
M  V30 53 H -2.7898 -2.3364 -0.2658 0
M  V30 54 H -2.3498 -1.3053 1.1156 0
M  V30 55 H -6.0003 0.9309 0.7017 0
M  V30 56 H -6.8702 -0.5156 0.1077 0
M  V30 57 H -4.9557 -2.7646 0.5134 0
M  V30 58 H -4.0472 -2.6301 2.0545 0
M  V30 59 H -4.7663 -0.248 2.2701 0
M  V30 60 H -6.1721 -1.3493 2.1716 0
M  V30 END ATOM
M  V30 BEGIN BOND
M  V30 1 2 1 2
M  V30 2 2 1 3
M  V30 3 1 1 4
M  V30 4 1 1 5
M  V30 5 2 5 6
M  V30 6 1 5 7
M  V30 7 1 6 8
M  V30 8 2 7 9
M  V30 9 1 8 10
M  V30 10 2 8 11
M  V30 11 1 9 12
M  V30 12 1 11 13
M  V30 13 2 12 14
M  V30 14 2 13 15
M  V30 15 1 13 16
M  V30 16 1 15 17
M  V30 17 2 16 18
M  V30 18 1 17 19
M  V30 19 2 19 20
M  V30 20 1 19 21
M  V30 21 1 20 22
M  V30 22 1 20 23
M  V30 23 2 21 24
M  V30 24 2 22 25
M  V30 25 2 22 26
M  V30 26 1 22 27
M  V30 27 2 23 28
M  V30 28 1 27 29
M  V30 29 1 27 30
M  V30 30 1 29 31
M  V30 31 1 29 32
M  V30 32 1 31 33
M  V30 33 1 32 34
M  V30 34 1 33 35
M  V30 35 1 9 11
M  V30 36 1 14 16
M  V30 37 1 24 28
M  V30 38 1 34 35
M  V30 39 1 6 36
M  V30 40 1 7 37
M  V30 41 1 10 38
M  V30 42 1 12 39
M  V30 43 1 14 40
M  V30 44 1 17 41
M  V30 45 1 18 42
M  V30 46 1 21 43
M  V30 47 1 23 44
M  V30 48 1 24 45
M  V30 49 1 28 46
M  V30 50 1 29 47
M  V30 51 1 30 48
M  V30 52 1 30 49
M  V30 53 1 30 50
M  V30 54 1 31 51
M  V30 55 1 31 52
M  V30 56 1 32 53
M  V30 57 1 32 54
M  V30 58 1 33 55
M  V30 59 1 33 56
M  V30 60 1 34 57
M  V30 61 1 34 58
M  V30 62 1 35 59
M  V30 63 1 35 60
M  V30 END BOND
M  V30 END CTAB
M  END
>  <Structure No>
966

>  <LogS>
-2.711685939

>  <MMFF94 Energy>
94.41

$$$$
Compound 967
Actelion Java MolfileCreator 2.0

  0  0  0  0  0  0              0 V3000
M  V30 BEGIN CTAB
M  V30 COUNTS 34 34 0 0 0
M  V30 BEGIN ATOM
M  V30 1 O -2.8343 -2.4402 0.0786 0
M  V30 2 C -2.8213 -1.1972 -0.1405 0
M  V30 3 O -1.604 -0.5108 -0.2054 0
M  V30 4 C -4.0916 -0.4625 -0.3294 0
M  V30 5 C -0.3463 -1.1555 -0.0328 0
M  V30 6 C -4.0807 0.923 -0.5739 0
M  V30 7 C -5.3271 -1.1345 -0.2679 0
M  V30 8 C 0.7725 -0.1317 -0.1619 0
M  V30 9 C -5.2802 1.6193 -0.7528 0
M  V30 10 C -6.5235 -0.433 -0.4475 0
M  V30 11 O 2.0144 -0.7804 0.0106 0
M  V30 12 C -6.5002 0.9423 -0.6897 0
M  V30 13 C 3.0595 0.1619 -0.1053 0
M  V30 14 C 4.3984 -0.5578 0.0745 0
M  V30 15 C 5.6063 0.3591 -0.173 0
M  V30 16 C 5.7894 1.4054 0.9259 0
M  V30 17 H -0.2203 -1.9416 -0.8092 0
M  V30 18 H -0.3031 -1.6261 0.9737 0
M  V30 19 H -3.1474 1.4695 -0.6272 0
M  V30 20 H -5.3699 -2.2002 -0.0813 0
M  V30 21 H 0.6236 0.6502 0.6178 0
M  V30 22 H 0.707 0.3332 -1.1723 0
M  V30 23 H -5.2636 2.6852 -0.9405 0
M  V30 24 H -7.4697 -0.9565 -0.3988 0
M  V30 25 H -7.4274 1.4833 -0.8283 0
M  V30 26 H 3.0432 0.6403 -1.1118 0
M  V30 27 H 2.9611 0.9436 0.681 0
M  V30 28 H 4.4552 -0.9937 1.0959 0
M  V30 29 H 4.4465 -1.3983 -0.652 0
M  V30 30 H 6.5218 -0.2701 -0.21 0
M  V30 31 H 5.5076 0.8659 -1.1574 0
M  V30 32 H 6.7391 1.9554 0.7564 0
M  V30 33 H 5.8368 0.9184 1.923 0
M  V30 34 H 4.9584 2.1405 0.9115 0
M  V30 END ATOM
M  V30 BEGIN BOND
M  V30 1 2 1 2
M  V30 2 1 2 3
M  V30 3 1 2 4
M  V30 4 1 3 5
M  V30 5 2 4 6
M  V30 6 1 4 7
M  V30 7 1 5 8
M  V30 8 1 6 9
M  V30 9 2 7 10
M  V30 10 1 8 11
M  V30 11 2 9 12
M  V30 12 1 11 13
M  V30 13 1 13 14
M  V30 14 1 14 15
M  V30 15 1 15 16
M  V30 16 1 10 12
M  V30 17 1 5 17
M  V30 18 1 5 18
M  V30 19 1 6 19
M  V30 20 1 7 20
M  V30 21 1 8 21
M  V30 22 1 8 22
M  V30 23 1 9 23
M  V30 24 1 10 24
M  V30 25 1 12 25
M  V30 26 1 13 26
M  V30 27 1 13 27
M  V30 28 1 14 28
M  V30 29 1 14 29
M  V30 30 1 15 30
M  V30 31 1 15 31
M  V30 32 1 16 32
M  V30 33 1 16 33
M  V30 34 1 16 34
M  V30 END BOND
M  V30 END CTAB
M  END
>  <Structure No>
967

>  <LogS>
-3.322422536

>  <MMFF94 Energy>
45.426

$$$$
Compound 968
Actelion Java MolfileCreator 2.0

  0  0  0  0  0  0              0 V3000
M  V30 BEGIN CTAB
M  V30 COUNTS 20 20 0 0 0
M  V30 BEGIN ATOM
M  V30 1 O -2.4644 -2.7032 0.0794 0
M  V30 2 N -2.6858 -1.5345 -0.3009 0 CHG=1
M  V30 3 O -3.9546 -1.2035 -0.7184 0 CHG=-1
M  V30 4 C -1.6347 -0.5502 -0.3034 0
M  V30 5 C -0.336 -0.8843 0.1225 0
M  V30 6 C -1.8935 0.7606 -0.7329 0
M  V30 7 C 0.6948 0.0773 0.1209 0
M  V30 8 C -0.8783 1.718 -0.7373 0
M  V30 9 O 1.9987 -0.2327 0.5417 0
M  V30 10 C 0.4149 1.3865 -0.3133 0
M  V30 11 C 2.4176 -1.5128 1.0038 0
M  V30 12 N 1.4397 2.3873 -0.3272 0
M  V30 13 H -0.1331 -1.893 0.4539 0
M  V30 14 H -2.8824 1.0476 -1.0663 0
M  V30 15 H -1.1007 2.7235 -1.0727 0
M  V30 16 H 2.2794 -2.2715 0.2048 0
M  V30 17 H 1.8418 -1.7996 1.9091 0
M  V30 18 H 3.494 -1.468 1.2679 0
M  V30 19 H 2.4139 2.1743 -0.0179 0
M  V30 20 H 1.2312 3.3587 -0.6497 0
M  V30 END ATOM
M  V30 BEGIN BOND
M  V30 1 2 1 2
M  V30 2 1 2 3
M  V30 3 1 2 4
M  V30 4 2 4 5
M  V30 5 1 4 6
M  V30 6 1 5 7
M  V30 7 2 6 8
M  V30 8 1 7 9
M  V30 9 2 7 10
M  V30 10 1 9 11
M  V30 11 1 10 12
M  V30 12 1 8 10
M  V30 13 1 5 13
M  V30 14 1 6 14
M  V30 15 1 8 15
M  V30 16 1 11 16
M  V30 17 1 11 17
M  V30 18 1 11 18
M  V30 19 1 12 19
M  V30 20 1 12 20
M  V30 END BOND
M  V30 END CTAB
M  END
>  <Structure No>
968

>  <LogS>
-3.204512738

>  <MMFF94 Energy>
53.981

$$$$
Compound 969
Actelion Java MolfileCreator 2.0

  0  0  0  0  0  0              0 V3000
M  V30 BEGIN CTAB
M  V30 COUNTS 35 34 0 0 0
M  V30 BEGIN ATOM
M  V30 1 O 3.5735 -2.1105 -2.0292 0
M  V30 2 C 4.1462 -1.3025 -1.2517 0
M  V30 3 O 5.2528 -0.5901 -1.6965 0 CHG=-1
M  V30 4 C 3.633 -1.1011 0.149 0
M  V30 5 N 2.5085 -0.1373 0.2328 0
M  V30 6 C 2.9046 1.2386 -0.1442 0
M  V30 7 C 1.3179 -0.5952 -0.5179 0
M  V30 8 C 3.7719 1.8468 0.9128 0
M  V30 9 C 0.0361 -0.1717 0.2107 0
M  V30 10 O 3.2927 2.1162 2.0456 0
M  V30 11 O 5.1132 2.0995 0.6544 0 CHG=-1
M  V30 12 C -1.2147 -0.6549 -0.537 0
M  V30 13 N -2.4377 -0.2472 0.1918 0
M  V30 14 C -3.5418 -1.1957 -0.081 0
M  V30 15 C -2.8222 1.1478 -0.1423 0
M  V30 16 C -4.6938 -0.968 0.8493 0
M  V30 17 C -3.3008 1.8509 1.088 0
M  V30 18 O -5.7956 -0.5499 0.4058 0
M  V30 19 O -4.5447 -1.2056 2.2098 0 CHG=-1
M  V30 20 O -4.4381 2.3907 1.1103 0
M  V30 21 O -2.4815 1.9256 2.2074 0 CHG=-1
M  V30 22 H 3.3133 -2.0815 0.5651 0
M  V30 23 H 4.4703 -0.7627 0.7962 0
M  V30 24 H 2.0112 1.8906 -0.2491 0
M  V30 25 H 3.4254 1.2572 -1.1255 0
M  V30 26 H 1.3217 -0.1921 -1.5567 0
M  V30 27 H 1.3023 -1.7062 -0.5947 0
M  V30 28 H 0.0384 -0.6096 1.233 0
M  V30 29 H 0.0104 0.9316 0.3146 0
M  V30 30 H -1.2224 -0.2637 -1.5804 0
M  V30 31 H -1.1431 -1.7639 -0.6081 0
M  V30 32 H -3.2039 -2.2408 0.0928 0
M  V30 33 H -3.8741 -1.1249 -1.1419 0
M  V30 34 H -1.9637 1.7367 -0.5318 0
M  V30 35 H -3.6032 1.1838 -0.9356 0
M  V30 END ATOM
M  V30 BEGIN BOND
M  V30 1 2 1 2
M  V30 2 1 2 3
M  V30 3 1 2 4
M  V30 4 1 4 5
M  V30 5 1 5 6
M  V30 6 1 5 7
M  V30 7 1 6 8
M  V30 8 1 7 9
M  V30 9 2 8 10
M  V30 10 1 8 11
M  V30 11 1 9 12
M  V30 12 1 12 13
M  V30 13 1 13 14
M  V30 14 1 13 15
M  V30 15 1 14 16
M  V30 16 1 15 17
M  V30 17 2 16 18
M  V30 18 1 16 19
M  V30 19 2 17 20
M  V30 20 1 17 21
M  V30 21 1 4 22
M  V30 22 1 4 23
M  V30 23 1 6 24
M  V30 24 1 6 25
M  V30 25 1 7 26
M  V30 26 1 7 27
M  V30 27 1 9 28
M  V30 28 1 9 29
M  V30 29 1 12 30
M  V30 30 1 12 31
M  V30 31 1 14 32
M  V30 32 1 14 33
M  V30 33 1 15 34
M  V30 34 1 15 35
M  V30 END BOND
M  V30 END CTAB
M  END
>  <Structure No>
969

>  <LogS>
-1.469072537

>  <MMFF94 Energy>
559.67

$$$$
Compound 970
Actelion Java MolfileCreator 2.0

  0  0  0  0  0  0              0 V3000
M  V30 BEGIN CTAB
M  V30 COUNTS 13 13 0 0 0
M  V30 BEGIN ATOM
M  V30 1 F -2.9524 0.1638 0.0819 0
M  V30 2 C -1.5969 0.1254 0.0527 0
M  V30 3 C -0.8706 1.2795 -0.2627 0
M  V30 4 C -0.9239 -1.0678 0.3384 0
M  V30 5 F -1.5201 2.4373 -0.5398 0
M  V30 6 C 0.5275 1.24 -0.2928 0
M  V30 7 F -1.6254 -2.1874 0.6445 0
M  V30 8 C 0.4741 -1.1074 0.3083 0
M  V30 9 C 1.2037 0.048 -0.0076 0
M  V30 10 O 2.596 0.022 -0.041 0
M  V30 11 H 1.0866 2.1344 -0.5372 0
M  V30 12 H 0.9894 -2.0333 0.5301 0
M  V30 13 H 3.1145 -0.8249 0.1604 0
M  V30 END ATOM
M  V30 BEGIN BOND
M  V30 1 1 1 2
M  V30 2 2 2 3
M  V30 3 1 2 4
M  V30 4 1 3 5
M  V30 5 1 3 6
M  V30 6 1 4 7
M  V30 7 2 4 8
M  V30 8 2 6 9
M  V30 9 1 9 10
M  V30 10 1 8 9
M  V30 11 1 6 11
M  V30 12 1 8 12
M  V30 13 1 10 13
M  V30 END BOND
M  V30 END CTAB
M  END
>  <Structure No>
970

>  <LogS>
-0.153609692

>  <MMFF94 Energy>
6.6348

$$$$
Compound 971
Actelion Java MolfileCreator 2.0

  0  0  0  0  0  0              0 V3000
M  V30 BEGIN CTAB
M  V30 COUNTS 19 18 0 0 0
M  V30 BEGIN ATOM
M  V30 1 O 2.347 0.469 1.8772 0
M  V30 2 C 2.1639 0.7301 0.6589 0
M  V30 3 O 2.1551 2.0528 0.2342 0 CHG=-1
M  V30 4 C 1.9888 -0.3776 -0.3341 0
M  V30 5 C 0.7764 -1.272 -0.0199 0
M  V30 6 C -0.5697 -0.6857 -0.4829 0
M  V30 7 C -1.0899 0.4265 0.4384 0
M  V30 8 C -2.5116 0.8336 0.0606 0
M  V30 9 H 2.9076 -1.0021 -0.3109 0
M  V30 10 H 1.9031 0.0411 -1.3602 0
M  V30 11 H 0.7405 -1.5265 1.062 0
M  V30 12 H 0.9232 -2.2308 -0.5639 0
M  V30 13 H -1.3125 -1.5137 -0.4917 0
M  V30 14 H -0.4834 -0.3062 -1.5246 0
M  V30 15 H -0.4417 1.3222 0.3564 0
M  V30 16 H -1.0858 0.0785 1.4942 0
M  V30 17 H -2.8553 1.6498 0.7307 0
M  V30 18 H -2.5424 1.1981 -0.9882 0
M  V30 19 H -3.203 -0.0289 0.1702 0
M  V30 END ATOM
M  V30 BEGIN BOND
M  V30 1 2 1 2
M  V30 2 1 2 3
M  V30 3 1 2 4
M  V30 4 1 4 5
M  V30 5 1 5 6
M  V30 6 1 6 7
M  V30 7 1 7 8
M  V30 8 1 4 9
M  V30 9 1 4 10
M  V30 10 1 5 11
M  V30 11 1 5 12
M  V30 12 1 6 13
M  V30 13 1 6 14
M  V30 14 1 7 15
M  V30 15 1 7 16
M  V30 16 1 8 17
M  V30 17 1 8 18
M  V30 18 1 8 19
M  V30 END BOND
M  V30 END CTAB
M  END
>  <Structure No>
971

>  <LogS>
-1.052219379

>  <MMFF94 Energy>
1.2703

$$$$
Compound 972
Actelion Java MolfileCreator 2.0

  0  0  0  0  0  0              0 V3000
M  V30 BEGIN CTAB
M  V30 COUNTS 57 56 0 0 0
M  V30 BEGIN ATOM
M  V30 1 O -0.1574 0.3149 -1.1026 0
M  V30 2 C -0.0392 1.0973 -0.1179 0
M  V30 3 O 0.7957 2.216 -0.2058 0
M  V30 4 C -0.8417 0.8587 1.1515 0
M  V30 5 C 1.563 2.5139 -1.3667 0
M  V30 6 O -0.2563 1.5644 2.2241 0
M  V30 7 C -0.9112 -0.655 1.5119 0
M  V30 8 C -2.2686 1.4363 0.9736 0
M  V30 9 C 2.4356 3.7498 -1.1219 0
M  V30 10 C 0.4439 -1.2561 1.7412 0
M  V30 11 C -3.039 0.8323 -0.166 0
M  V30 12 C 3.6926 3.453 -0.286 0
M  V30 13 O 0.9411 -1.2611 2.9008 0
M  V30 14 O 1.1632 -1.7608 0.653 0
M  V30 15 O -3.0192 1.3869 -1.2994 0
M  V30 16 O -3.755 -0.3515 0.0353 0
M  V30 17 C 3.3793 3.159 1.1806 0
M  V30 18 C 2.5466 -2.0979 0.718 0
M  V30 19 C -4.4928 -0.9893 -1.0013 0
M  V30 20 C 3.3967 -0.8227 0.6932 0
M  V30 21 C -5.0506 -2.3151 -0.4825 0
M  V30 22 C 4.9011 -1.1014 0.824 0
M  V30 23 C -5.7731 -3.1217 -1.5729 0
M  V30 24 C 5.4852 -1.7956 -0.4087 0
M  V30 25 C -7.1161 -2.5073 -1.9692 0
M  V30 26 H 2.1963 1.6436 -1.6425 0
M  V30 27 H 0.8703 2.7223 -2.2108 0
M  V30 28 H 0.7003 1.3115 2.2875 0
M  V30 29 H -1.4053 -1.2288 0.6987 0
M  V30 30 H -1.5251 -0.7908 2.4292 0
M  V30 31 H -2.2018 2.5361 0.8162 0
M  V30 32 H -2.8483 1.2849 1.9107 0
M  V30 33 H 2.7686 4.1368 -2.1102 0
M  V30 34 H 1.8322 4.5523 -0.6413 0
M  V30 35 H 4.3567 4.3462 -0.3248 0
M  V30 36 H 4.2534 2.5968 -0.7267 0
M  V30 37 H 4.3296 3.086 1.7529 0
M  V30 38 H 2.7616 3.974 1.6203 0
M  V30 39 H 2.8452 2.1926 1.2772 0
M  V30 40 H 2.785 -2.7235 -0.165 0
M  V30 41 H 2.7562 -2.6928 1.6338 0
M  V30 42 H -5.3206 -0.3219 -1.3189 0
M  V30 43 H -3.8235 -1.181 -1.8674 0
M  V30 44 H 3.094 -0.1782 1.5455 0
M  V30 45 H 3.1958 -0.2581 -0.2445 0
M  V30 46 H -5.7378 -2.125 0.3706 0
M  V30 47 H -4.203 -2.9258 -0.1018 0
M  V30 48 H 5.0972 -1.7181 1.7288 0
M  V30 49 H 5.4254 -0.13 0.958 0
M  V30 50 H -5.9603 -4.1468 -1.1864 0
M  V30 51 H -5.1264 -3.2152 -2.472 0
M  V30 52 H 6.5919 -1.8343 -0.3191 0
M  V30 53 H 5.107 -2.8376 -0.4848 0
M  V30 54 H 5.2243 -1.2374 -1.3339 0
M  V30 55 H -7.7613 -2.3716 -1.0753 0
M  V30 56 H -7.637 -3.1832 -2.6804 0
M  V30 57 H -6.9672 -1.5286 -2.4692 0
M  V30 END ATOM
M  V30 BEGIN BOND
M  V30 1 2 1 2
M  V30 2 1 2 3
M  V30 3 1 2 4
M  V30 4 1 3 5
M  V30 5 1 4 6
M  V30 6 1 4 7
M  V30 7 1 4 8
M  V30 8 1 5 9
M  V30 9 1 7 10
M  V30 10 1 8 11
M  V30 11 1 9 12
M  V30 12 2 10 13
M  V30 13 1 10 14
M  V30 14 2 11 15
M  V30 15 1 11 16
M  V30 16 1 12 17
M  V30 17 1 14 18
M  V30 18 1 16 19
M  V30 19 1 18 20
M  V30 20 1 19 21
M  V30 21 1 20 22
M  V30 22 1 21 23
M  V30 23 1 22 24
M  V30 24 1 23 25
M  V30 25 1 5 26
M  V30 26 1 5 27
M  V30 27 1 6 28
M  V30 28 1 7 29
M  V30 29 1 7 30
M  V30 30 1 8 31
M  V30 31 1 8 32
M  V30 32 1 9 33
M  V30 33 1 9 34
M  V30 34 1 12 35
M  V30 35 1 12 36
M  V30 36 1 17 37
M  V30 37 1 17 38
M  V30 38 1 17 39
M  V30 39 1 18 40
M  V30 40 1 18 41
M  V30 41 1 19 42
M  V30 42 1 19 43
M  V30 43 1 20 44
M  V30 44 1 20 45
M  V30 45 1 21 46
M  V30 46 1 21 47
M  V30 47 1 22 48
M  V30 48 1 22 49
M  V30 49 1 23 50
M  V30 50 1 23 51
M  V30 51 1 24 52
M  V30 52 1 24 53
M  V30 53 1 24 54
M  V30 54 1 25 55
M  V30 55 1 25 56
M  V30 56 1 25 57
M  V30 END BOND
M  V30 END CTAB
M  END
>  <Structure No>
972

>  <LogS>
-3.545270972

>  <MMFF94 Energy>
-29.773

$$$$
Compound 973
Actelion Java MolfileCreator 2.0

  0  0  0  0  0  0              0 V3000
M  V30 BEGIN CTAB
M  V30 COUNTS 31 31 0 0 0
M  V30 BEGIN ATOM
M  V30 1 O -3.2416 -0.9479 1.185 0
M  V30 2 C -3.4369 -0.1764 0.2066 0
M  V30 3 O -2.5519 -0.1539 -0.8766 0
M  V30 4 C -4.6558 0.6809 0.1753 0
M  V30 5 C -1.3416 -0.9097 -0.9178 0
M  V30 6 C -0.255 -0.2709 -0.0235 0 CFG=1
M  V30 7 C 0.9843 -1.2231 0.0944 0 CFG=1
M  V30 8 C 0.104 1.1599 -0.5387 0
M  V30 9 C 2.2627 -0.4595 0.3697 0
M  V30 10 C 0.7742 -2.2987 1.1702 0
M  V30 11 C 1.471 1.2203 -1.2291 0
M  V30 12 C 2.5192 0.6816 -0.2894 0
M  V30 13 C 3.7887 1.4414 -0.0205 0
M  V30 14 H -5.5118 0.0927 -0.2153 0
M  V30 15 H -4.4848 1.5579 -0.4832 0
M  V30 16 H -4.8946 1.0421 1.198 0
M  V30 17 H -0.9805 -0.9389 -1.9682 0
M  V30 18 H -1.552 -1.9567 -0.6125 0
M  V30 19 H -0.688 -0.1432 0.9936 0
M  V30 20 H 1.1325 -1.7422 -0.8789 0
M  V30 21 H -0.6665 1.5531 -1.2368 0
M  V30 22 H 0.1241 1.8587 0.3276 0
M  V30 23 H 2.9783 -0.8358 1.0975 0
M  V30 24 H 0.6636 -1.8312 2.1724 0
M  V30 25 H -0.1321 -2.9007 0.9552 0
M  V30 26 H 1.6432 -2.9908 1.1933 0
M  V30 27 H 1.6929 2.2696 -1.5194 0
M  V30 28 H 1.4495 0.6022 -2.1527 0
M  V30 29 H 4.6647 0.8056 -0.2685 0
M  V30 30 H 3.8366 1.7258 1.0519 0
M  V30 31 H 3.8424 2.3653 -0.6334 0
M  V30 END ATOM
M  V30 BEGIN BOND
M  V30 1 2 1 2
M  V30 2 1 2 3
M  V30 3 1 2 4
M  V30 4 1 3 5
M  V30 5 1 5 6
M  V30 6 1 6 7
M  V30 7 1 6 8
M  V30 8 1 7 9
M  V30 9 1 7 10
M  V30 10 1 8 11
M  V30 11 2 9 12
M  V30 12 1 12 13
M  V30 13 1 11 12
M  V30 14 1 4 14
M  V30 15 1 4 15
M  V30 16 1 4 16
M  V30 17 1 5 17
M  V30 18 1 5 18
M  V30 19 1 6 19
M  V30 20 1 7 20
M  V30 21 1 8 21
M  V30 22 1 8 22
M  V30 23 1 9 23
M  V30 24 1 10 24
M  V30 25 1 10 25
M  V30 26 1 10 26
M  V30 27 1 11 27
M  V30 28 1 11 28
M  V30 29 1 13 29
M  V30 30 1 13 30
M  V30 31 1 13 31
M  V30 END BOND
M  V30 BEGIN COLLECTION
M  V30 MDLV30/STEABS ATOMS=(2 6 7)
M  V30 END COLLECTION
M  V30 END CTAB
M  END
>  <Structure No>
973

>  <LogS>
-3.250398558

>  <MMFF94 Energy>
4.1337

$$$$
Compound 974
Actelion Java MolfileCreator 2.0

  0  0  0  0  0  0              0 V3000
M  V30 BEGIN CTAB
M  V30 COUNTS 33 32 0 0 0
M  V30 BEGIN ATOM
M  V30 1 O -3.2142 -1.9589 -0.4698 0
M  V30 2 C -2.9773 -0.7482 -0.2058 0
M  V30 3 O -1.7032 -0.2106 -0.4042 0
M  V30 4 C -4.0532 0.1131 0.3661 0
M  V30 5 C -0.6143 -0.9748 -0.9143 0
M  V30 6 C -3.8961 0.1986 1.8202 0
M  V30 7 C 0.6717 -0.1246 -0.9861 0 CFG=2
M  V30 8 N -3.7715 0.2665 2.9687 0
M  V30 9 C 0.9544 0.664 0.3199 0
M  V30 10 C 0.7032 0.7945 -2.2332 0
M  V30 11 C 1.0916 -0.2067 1.5867 0
M  V30 12 C -0.4263 1.8257 -2.3092 0
M  V30 13 C 2.2101 -1.2626 1.5379 0
M  V30 14 C 3.5974 -0.6548 1.335 0
M  V30 15 H -3.984 1.1321 -0.0689 0
M  V30 16 H -5.0531 -0.3084 0.1291 0
M  V30 17 H -0.8703 -1.3646 -1.9238 0
M  V30 18 H -0.4401 -1.8511 -0.253 0
M  V30 19 H 1.5137 -0.8332 -1.1379 0
M  V30 20 H 1.8778 1.2689 0.195 0
M  V30 21 H 0.132 1.3865 0.5054 0
M  V30 22 H 0.6622 0.1641 -3.1484 0
M  V30 23 H 1.6753 1.3339 -2.2615 0
M  V30 24 H 0.1263 -0.717 1.7914 0
M  V30 25 H 1.2784 0.4661 2.4522 0
M  V30 26 H -0.2785 2.4601 -3.2085 0
M  V30 27 H -1.412 1.3266 -2.4076 0
M  V30 28 H -0.4265 2.4895 -1.4212 0
M  V30 29 H 2.2093 -1.8088 2.5061 0
M  V30 30 H 2.0081 -2.0135 0.7464 0
M  V30 31 H 3.6955 -0.237 0.3115 0
M  V30 32 H 3.785 0.1447 2.0829 0
M  V30 33 H 4.368 -1.4444 1.4599 0
M  V30 END ATOM
M  V30 BEGIN BOND
M  V30 1 2 1 2
M  V30 2 1 2 3
M  V30 3 1 2 4
M  V30 4 1 3 5
M  V30 5 1 4 6
M  V30 6 1 5 7
M  V30 7 3 6 8
M  V30 8 1 7 9
M  V30 9 1 7 10
M  V30 10 1 9 11
M  V30 11 1 10 12
M  V30 12 1 11 13
M  V30 13 1 13 14
M  V30 14 1 4 15
M  V30 15 1 4 16
M  V30 16 1 5 17
M  V30 17 1 5 18
M  V30 18 1 7 19
M  V30 19 1 9 20
M  V30 20 1 9 21
M  V30 21 1 10 22
M  V30 22 1 10 23
M  V30 23 1 11 24
M  V30 24 1 11 25
M  V30 25 1 12 26
M  V30 26 1 12 27
M  V30 27 1 12 28
M  V30 28 1 13 29
M  V30 29 1 13 30
M  V30 30 1 14 31
M  V30 31 1 14 32
M  V30 32 1 14 33
M  V30 END BOND
M  V30 BEGIN COLLECTION
M  V30 MDLV30/STEABS ATOMS=(1 7)
M  V30 END COLLECTION
M  V30 END CTAB
M  END
>  <Structure No>
974

>  <LogS>
-3.286478485

>  <MMFF94 Energy>
-9.4192

$$$$
Compound 975
Actelion Java MolfileCreator 2.0

  0  0  0  0  0  0              0 V3000
M  V30 BEGIN CTAB
M  V30 COUNTS 5 4 0 0 0
M  V30 BEGIN ATOM
M  V30 1 S 0.0 0.0 0.0 0
M  V30 2 O -0.2295 -1.0598 -1.0394 0
M  V30 3 O -0.1121 -0.6084 1.3689 0
M  V30 4 O -1.1518 1.2103 -0.1706 0 CHG=-1
M  V30 5 O 1.5338 0.655 -0.1975 0 CHG=-1
M  V30 END ATOM
M  V30 BEGIN BOND
M  V30 1 2 1 2
M  V30 2 2 1 3
M  V30 3 1 1 4
M  V30 4 1 1 5
M  V30 END BOND
M  V30 END CTAB
M  END
>  <Structure No>
975

>  <LogS>
-3.979450176

>  <MMFF94 Energy>
27.585

$$$$
Compound 976
Actelion Java MolfileCreator 2.0

  0  0  0  0  0  0              0 V3000
M  V30 BEGIN CTAB
M  V30 COUNTS 43 45 0 0 0
M  V30 BEGIN ATOM
M  V30 1 S -2.7798 0.7352 -1.1439 0
M  V30 2 C -4.208 0.1749 -0.1001 0
M  V30 3 C -1.604 -0.0862 -0.0218 0 CFG=2
M  V30 4 C -3.6915 0.0886 1.3731 0 CFG=2
M  V30 5 C -5.3458 1.1995 -0.222 0
M  V30 6 C -4.6783 -1.1853 -0.6565 0
M  V30 7 N -2.2652 -0.0754 1.2459 0 CFG=2
M  V30 8 C -0.4995 0.7155 0.4399 0 CFG=1
M  V30 9 C -4.2868 -1.0155 2.2011 0
M  V30 10 C -1.105 0.6537 1.8078 0
M  V30 11 N 0.7774 0.0043 0.3706 0
M  V30 12 O -5.3974 -0.8435 2.7692 0
M  V30 13 O -3.6405 -2.2427 2.3149 0 CHG=-1
M  V30 14 O -0.7959 1.1023 2.9431 0
M  V30 15 C 1.4769 -0.1619 -0.8682 0
M  V30 16 O 1.0109 0.3427 -1.9276 0
M  V30 17 C 2.7797 -0.9281 -0.8931 0 CFG=1
M  V30 18 N 3.248 -1.1693 -2.2645 0 CHG=1
M  V30 19 C 3.8415 -0.2022 -0.089 0
M  V30 20 C 4.539 -0.8775 0.9295 0
M  V30 21 C 4.169 1.1391 -0.3689 0
M  V30 22 C 5.5328 -0.2199 1.6614 0
M  V30 23 C 5.1626 1.7926 0.367 0
M  V30 24 C 5.8434 1.114 1.3817 0
M  V30 25 H -1.3503 -1.1235 -0.3339 0
M  V30 26 H -3.8728 1.0527 1.898 0
M  V30 27 H -4.9996 2.2059 0.0958 0
M  V30 28 H -5.694 1.2712 -1.2754 0
M  V30 29 H -6.2052 0.9006 0.4161 0
M  V30 30 H -5.5908 -1.5393 -0.1294 0
M  V30 31 H -3.8804 -1.9497 -0.542 0
M  V30 32 H -4.9225 -1.099 -1.738 0
M  V30 33 H -0.4502 1.7515 0.0388 0
M  V30 34 H 1.2188 -0.3548 1.2486 0
M  V30 35 H 2.5724 -1.9168 -0.4238 0
M  V30 36 H 3.4286 -0.2691 -2.7647 0
M  V30 37 H 2.5314 -1.7203 -2.7906 0
M  V30 38 H 4.1335 -1.7261 -2.2399 0
M  V30 39 H 4.316 -1.913 1.1567 0
M  V30 40 H 3.6538 1.6789 -1.1543 0
M  V30 41 H 6.0629 -0.746 2.4451 0
M  V30 42 H 5.4059 2.8255 0.1506 0
M  V30 43 H 6.6127 1.6208 1.9502 0
M  V30 END ATOM
M  V30 BEGIN BOND
M  V30 1 1 1 2
M  V30 2 1 1 3
M  V30 3 1 2 4
M  V30 4 1 2 5
M  V30 5 1 2 6
M  V30 6 1 3 7
M  V30 7 1 3 8
M  V30 8 1 4 9
M  V30 9 1 7 10
M  V30 10 1 8 11
M  V30 11 2 9 12
M  V30 12 1 9 13
M  V30 13 2 10 14
M  V30 14 1 11 15
M  V30 15 2 15 16
M  V30 16 1 15 17
M  V30 17 1 17 18
M  V30 18 1 17 19
M  V30 19 2 19 20
M  V30 20 1 19 21
M  V30 21 1 20 22
M  V30 22 2 21 23
M  V30 23 2 22 24
M  V30 24 1 4 7
M  V30 25 1 8 10
M  V30 26 1 23 24
M  V30 27 1 3 25
M  V30 28 1 4 26
M  V30 29 1 5 27
M  V30 30 1 5 28
M  V30 31 1 5 29
M  V30 32 1 6 30
M  V30 33 1 6 31
M  V30 34 1 6 32
M  V30 35 1 8 33
M  V30 36 1 11 34
M  V30 37 1 17 35
M  V30 38 1 18 36
M  V30 39 1 18 37
M  V30 40 1 18 38
M  V30 41 1 20 39
M  V30 42 1 21 40
M  V30 43 1 22 41
M  V30 44 1 23 42
M  V30 45 1 24 43
M  V30 END BOND
M  V30 BEGIN COLLECTION
M  V30 MDLV30/STEABS ATOMS=(5 3 4 7 8 17)
M  V30 END COLLECTION
M  V30 END CTAB
M  END
>  <Structure No>
976

>  <LogS>
-1.539016442

>  <MMFF94 Energy>
36.781

$$$$
Compound 977
Actelion Java MolfileCreator 2.0

  0  0  0  0  0  0              0 V3000
M  V30 BEGIN CTAB
M  V30 COUNTS 29 30 0 0 0
M  V30 BEGIN ATOM
M  V30 1 N 4.4905 0.5506 1.5738 0
M  V30 2 C 3.4063 0.2407 0.6946 0
M  V30 3 C 2.8971 1.2196 -0.1699 0
M  V30 4 C 2.8425 -1.0426 0.6945 0
M  V30 5 C 1.8363 0.9177 -1.029 0
M  V30 6 C 1.7817 -1.3457 -0.1639 0
M  V30 7 C 1.2779 -0.3704 -1.0394 0
M  V30 8 C 0.1112 -0.6849 -1.9359 0
M  V30 9 C -1.1828 -0.3839 -1.2299 0
M  V30 10 C -1.8048 -1.3652 -0.4415 0
M  V30 11 C -1.7501 0.8982 -1.3065 0
M  V30 12 C -2.9884 -1.0742 0.2432 0
M  V30 13 C -2.9338 1.1879 -0.6212 0
M  V30 14 C -3.5593 0.203 0.1554 0
M  V30 15 N -4.7693 0.5004 0.8571 0
M  V30 16 H 4.916 1.5043 1.5823 0
M  V30 17 H 4.8756 -0.1714 2.2228 0
M  V30 18 H 3.3196 2.2164 -0.1756 0
M  V30 19 H 3.2225 -1.806 1.3615 0
M  V30 20 H 1.449 1.688 -1.6843 0
M  V30 21 H 1.3518 -2.3396 -0.1451 0
M  V30 22 H 0.1406 -1.7542 -2.2404 0
M  V30 23 H 0.1807 -0.0932 -2.8752 0
M  V30 24 H -1.3722 -2.3543 -0.3559 0
M  V30 25 H -1.275 1.6732 -1.8951 0
M  V30 26 H -3.4583 -1.8423 0.8444 0
M  V30 27 H -3.3613 2.1802 -0.6926 0
M  V30 28 H -5.2015 1.4494 0.7993 0
M  V30 29 H -5.242 -0.2263 1.4396 0
M  V30 END ATOM
M  V30 BEGIN BOND
M  V30 1 1 1 2
M  V30 2 2 2 3
M  V30 3 1 2 4
M  V30 4 1 3 5
M  V30 5 2 4 6
M  V30 6 2 5 7
M  V30 7 1 7 8
M  V30 8 1 8 9
M  V30 9 2 9 10
M  V30 10 1 9 11
M  V30 11 1 10 12
M  V30 12 2 11 13
M  V30 13 2 12 14
M  V30 14 1 14 15
M  V30 15 1 6 7
M  V30 16 1 13 14
M  V30 17 1 1 16
M  V30 18 1 1 17
M  V30 19 1 3 18
M  V30 20 1 4 19
M  V30 21 1 5 20
M  V30 22 1 6 21
M  V30 23 1 8 22
M  V30 24 1 8 23
M  V30 25 1 10 24
M  V30 26 1 11 25
M  V30 27 1 12 26
M  V30 28 1 13 27
M  V30 29 1 15 28
M  V30 30 1 15 29
M  V30 END BOND
M  V30 END CTAB
M  END
>  <Structure No>
977

>  <LogS>
-2.292933442

>  <MMFF94 Energy>
29.965

$$$$
Compound 978
Actelion Java MolfileCreator 2.0

  0  0  0  0  0  0              0 V3000
M  V30 BEGIN CTAB
M  V30 COUNTS 35 36 0 0 0
M  V30 BEGIN ATOM
M  V30 1 O 3.4827 0.1581 0.2371 0
M  V30 2 C 2.1329 -0.2235 0.2107 0
M  V30 3 C 4.5479 -0.6768 0.6837 0
M  V30 4 C 1.1906 0.7013 -0.2542 0
M  V30 5 C 1.7011 -1.4938 0.6311 0
M  V30 6 C 5.8643 0.0747 0.5684 0
M  V30 7 C -0.1796 0.3759 -0.3033 0
M  V30 8 C 0.3458 -1.8237 0.5891 0
M  V30 9 C -0.5957 -0.8928 0.1318 0
M  V30 10 C -1.198 1.33 -0.8217 0
M  V30 11 N -1.9865 -1.235 0.0973 0
M  V30 12 C -2.5069 1.031 -0.7419 0
M  V30 13 C -0.7778 2.6391 -1.4414 0
M  V30 14 C -3.0371 -0.2219 -0.0694 0
M  V30 15 C -4.161 -0.8112 -0.9364 0
M  V30 16 C -3.5887 0.1531 1.3135 0
M  V30 17 H 4.5964 -1.5932 0.0566 0
M  V30 18 H 4.3836 -0.9615 1.7456 0
M  V30 19 H 1.5421 1.6731 -0.5736 0
M  V30 20 H 2.4036 -2.2319 0.9932 0
M  V30 21 H 6.6973 -0.5721 0.9154 0
M  V30 22 H 5.8338 0.9914 1.1951 0
M  V30 23 H 6.046 0.3615 -0.4889 0
M  V30 24 H 0.0275 -2.8047 0.9193 0
M  V30 25 H -2.2706 -2.2003 0.384 0
M  V30 26 H -3.2378 1.7489 -1.0989 0
M  V30 27 H -0.3193 3.2874 -0.6656 0
M  V30 28 H -0.0402 2.452 -2.2498 0
M  V30 29 H -1.6345 3.1876 -1.8889 0
M  V30 30 H -4.5819 -1.724 -0.4622 0
M  V30 31 H -3.7668 -1.0886 -1.938 0
M  V30 32 H -4.9849 -0.0767 -1.0709 0
M  V30 33 H -4.4005 0.9074 1.2233 0
M  V30 34 H -3.9962 -0.7451 1.8254 0
M  V30 35 H -2.7803 0.5779 1.9472 0
M  V30 END ATOM
M  V30 BEGIN BOND
M  V30 1 1 1 2
M  V30 2 1 1 3
M  V30 3 2 2 4
M  V30 4 1 2 5
M  V30 5 1 3 6
M  V30 6 1 4 7
M  V30 7 2 5 8
M  V30 8 2 7 9
M  V30 9 1 7 10
M  V30 10 1 9 11
M  V30 11 2 10 12
M  V30 12 1 10 13
M  V30 13 1 11 14
M  V30 14 1 14 15
M  V30 15 1 14 16
M  V30 16 1 8 9
M  V30 17 1 12 14
M  V30 18 1 3 17
M  V30 19 1 3 18
M  V30 20 1 4 19
M  V30 21 1 5 20
M  V30 22 1 6 21
M  V30 23 1 6 22
M  V30 24 1 6 23
M  V30 25 1 8 24
M  V30 26 1 11 25
M  V30 27 1 12 26
M  V30 28 1 13 27
M  V30 29 1 13 28
M  V30 30 1 13 29
M  V30 31 1 15 30
M  V30 32 1 15 31
M  V30 33 1 15 32
M  V30 34 1 16 33
M  V30 35 1 16 34
M  V30 36 1 16 35
M  V30 END BOND
M  V30 END CTAB
M  END
>  <Structure No>
978

>  <LogS>
-3.332762335

>  <MMFF94 Energy>
29.404

$$$$
Compound 979
Actelion Java MolfileCreator 2.0

  0  0  0  0  0  0              0 V3000
M  V30 BEGIN CTAB
M  V30 COUNTS 28 27 0 0 0
M  V30 BEGIN ATOM
M  V30 1 O -3.4107 2.4796 0.8518 0
M  V30 2 C -4.1462 1.7134 0.2505 0
M  V30 3 C -3.9953 0.2277 0.4037 0
M  V30 4 C -2.7845 -0.3186 -0.3667 0
M  V30 5 C -1.4488 0.0236 0.31 0
M  V30 6 C -0.2761 -0.6377 -0.4241 0
M  V30 7 C 1.0596 -0.2906 0.2444 0
M  V30 8 C 2.2328 -0.9466 -0.4982 0
M  V30 9 C 3.5781 -0.7241 0.2096 0
M  V30 10 C 4.0632 0.7222 0.1163 0
M  V30 11 H -4.9356 2.1137 -0.3771 0
M  V30 12 H -4.9109 -0.2542 -0.0016 0
M  V30 13 H -3.9291 -0.0383 1.481 0
M  V30 14 H -2.8842 -1.4249 -0.4211 0
M  V30 15 H -2.794 0.0724 -1.4082 0
M  V30 16 H -1.2995 1.1242 0.307 0
M  V30 17 H -1.4671 -0.3297 1.3646 0
M  V30 18 H -0.2601 -0.2891 -1.4804 0
M  V30 19 H -0.4143 -1.7416 -0.4181 0
M  V30 20 H 1.1863 0.813 0.2418 0
M  V30 21 H 1.0447 -0.6445 1.2988 0
M  V30 22 H 2.0536 -2.0427 -0.5557 0
M  V30 23 H 2.2866 -0.5591 -1.5393 0
M  V30 24 H 4.3387 -1.3774 -0.2699 0
M  V30 25 H 3.5034 -1.024 1.2775 0
M  V30 26 H 3.4025 1.3973 0.6983 0
M  V30 27 H 4.0932 1.055 -0.9428 0
M  V30 28 H 5.0877 0.795 0.538 0
M  V30 END ATOM
M  V30 BEGIN BOND
M  V30 1 2 1 2
M  V30 2 1 2 3
M  V30 3 1 3 4
M  V30 4 1 4 5
M  V30 5 1 5 6
M  V30 6 1 6 7
M  V30 7 1 7 8
M  V30 8 1 8 9
M  V30 9 1 9 10
M  V30 10 1 2 11
M  V30 11 1 3 12
M  V30 12 1 3 13
M  V30 13 1 4 14
M  V30 14 1 4 15
M  V30 15 1 5 16
M  V30 16 1 5 17
M  V30 17 1 6 18
M  V30 18 1 6 19
M  V30 19 1 7 20
M  V30 20 1 7 21
M  V30 21 1 8 22
M  V30 22 1 8 23
M  V30 23 1 9 24
M  V30 24 1 9 25
M  V30 25 1 10 26
M  V30 26 1 10 27
M  V30 27 1 10 28
M  V30 END BOND
M  V30 END CTAB
M  END
>  <Structure No>
979

>  <LogS>
-3.148706476

>  <MMFF94 Energy>
-2.7287

$$$$
Compound 980
Actelion Java MolfileCreator 2.0

  0  0  0  0  0  0              0 V3000
M  V30 BEGIN CTAB
M  V30 COUNTS 15 15 0 0 0
M  V30 BEGIN ATOM
M  V30 1 O 0.6876 0.9169 -0.9934 0
M  V30 2 C 0.1646 -0.1185 -0.3789 0
M  V30 3 C 1.9499 1.0152 -0.644 0
M  V30 4 C 1.1137 -0.7281 0.4164 0
M  V30 5 C -1.2693 -0.5334 -0.5066 0
M  V30 6 C 2.2679 0.0044 0.241 0
M  V30 7 N -2.0832 0.1022 0.5276 0 CHG=1
M  V30 8 H 2.6255 1.78 -1.0029 0
M  V30 9 H 0.9807 -1.5953 1.0497 0
M  V30 10 H -1.3469 -1.6394 -0.4185 0
M  V30 11 H -1.6458 -0.2406 -1.511 0
M  V30 12 H 3.2279 -0.1738 0.7065 0
M  V30 13 H -3.0784 -0.1972 0.4119 0
M  V30 14 H -2.0294 1.1431 0.4373 0
M  V30 15 H -1.7497 -0.1884 1.4757 0
M  V30 END ATOM
M  V30 BEGIN BOND
M  V30 1 1 1 2
M  V30 2 1 1 3
M  V30 3 2 2 4
M  V30 4 1 2 5
M  V30 5 2 3 6
M  V30 6 1 5 7
M  V30 7 1 4 6
M  V30 8 1 3 8
M  V30 9 1 4 9
M  V30 10 1 5 10
M  V30 11 1 5 11
M  V30 12 1 6 12
M  V30 13 1 7 13
M  V30 14 1 7 14
M  V30 15 1 7 15
M  V30 END BOND
M  V30 END CTAB
M  END
>  <Structure No>
980

>  <LogS>
1.012704742

>  <MMFF94 Energy>
-10.244

$$$$
Compound 981
Actelion Java MolfileCreator 2.0

  0  0  0  0  0  0              0 V3000
M  V30 BEGIN CTAB
M  V30 COUNTS 9 8 0 0 0
M  V30 BEGIN ATOM
M  V30 1 F 1.9318 0.5631 0.2413 0
M  V30 2 C 0.8729 -0.2962 0.013 0
M  V30 3 F 0.9569 -1.3605 0.8925 0
M  V30 4 F 0.948 -0.7693 -1.2845 0
M  V30 5 C -0.4431 0.4484 0.2228 0
M  V30 6 O -1.5324 -0.4169 0.048 0
M  V30 7 H -0.4725 0.8507 1.2577 0
M  V30 8 H -0.5105 1.3103 -0.4798 0
M  V30 9 H -1.6711 -0.5073 -0.9308 0
M  V30 END ATOM
M  V30 BEGIN BOND
M  V30 1 1 1 2
M  V30 2 1 2 3
M  V30 3 1 2 4
M  V30 4 1 2 5
M  V30 5 1 5 6
M  V30 6 1 5 7
M  V30 7 1 5 8
M  V30 8 1 6 9
M  V30 END BOND
M  V30 END CTAB
M  END
>  <Structure No>
981

>  <LogS>
0.999830658

>  <MMFF94 Energy>
55.022

$$$$
Compound 982
Actelion Java MolfileCreator 2.0

  0  0  0  0  0  0              0 V3000
M  V30 BEGIN CTAB
M  V30 COUNTS 28 27 0 0 0
M  V30 BEGIN ATOM
M  V30 1 O 4.3638 -1.0895 0.2333 0
M  V30 2 C 4.3996 -0.0071 -0.4127 0
M  V30 3 O 3.4502 0.9954 -0.1861 0
M  V30 4 C 5.5008 0.2323 -1.3885 0
M  V30 5 C 2.3475 0.8458 0.7062 0
M  V30 6 C 1.2644 -0.0299 0.0826 0
M  V30 7 O 0.1666 -0.1073 0.968 0
M  V30 8 C -0.9122 -0.7967 0.3645 0
M  V30 9 C -1.9229 0.2012 -0.205 0
M  V30 10 O -3.0102 -0.4852 -0.7979 0
M  V30 11 C -4.0821 -0.6418 0.1136 0
M  V30 12 C -5.0739 0.5073 -0.0301 0
M  V30 13 H 5.7543 -0.7107 -1.9167 0
M  V30 14 H 6.3972 0.604 -0.8504 0
M  V30 15 H 5.1854 0.9886 -2.1374 0
M  V30 16 H 1.9225 1.8515 0.9104 0
M  V30 17 H 2.6887 0.4139 1.6725 0
M  V30 18 H 1.6814 -1.0458 -0.097 0
M  V30 19 H 0.9646 0.424 -0.8893 0
M  V30 20 H -1.4114 -1.3985 1.1524 0
M  V30 21 H -0.5988 -1.5176 -0.4282 0
M  V30 22 H -2.2334 0.9288 0.5813 0
M  V30 23 H -1.4256 0.7956 -0.9993 0
M  V30 24 H -4.6093 -1.5865 -0.1367 0
M  V30 25 H -3.7533 -0.7366 1.1748 0
M  V30 26 H -5.4359 0.5675 -1.0782 0
M  V30 27 H -5.9423 0.338 0.6408 0
M  V30 28 H -4.5937 1.4697 0.2442 0
M  V30 END ATOM
M  V30 BEGIN BOND
M  V30 1 2 1 2
M  V30 2 1 2 3
M  V30 3 1 2 4
M  V30 4 1 3 5
M  V30 5 1 5 6
M  V30 6 1 6 7
M  V30 7 1 7 8
M  V30 8 1 8 9
M  V30 9 1 9 10
M  V30 10 1 10 11
M  V30 11 1 11 12
M  V30 12 1 4 13
M  V30 13 1 4 14
M  V30 14 1 4 15
M  V30 15 1 5 16
M  V30 16 1 5 17
M  V30 17 1 6 18
M  V30 18 1 6 19
M  V30 19 1 8 20
M  V30 20 1 8 21
M  V30 21 1 9 22
M  V30 22 1 9 23
M  V30 23 1 11 24
M  V30 24 1 11 25
M  V30 25 1 12 26
M  V30 26 1 12 27
M  V30 27 1 12 28
M  V30 END BOND
M  V30 END CTAB
M  END
>  <Structure No>
982

>  <LogS>
0.75396452

>  <MMFF94 Energy>
30.365

$$$$
Compound 983
Actelion Java MolfileCreator 2.0

  0  0  0  0  0  0              0 V3000
M  V30 BEGIN CTAB
M  V30 COUNTS 16 15 0 0 0
M  V30 BEGIN ATOM
M  V30 1 O -2.3636 0.4571 0.9144 0
M  V30 2 C -2.0374 -0.4591 -0.0958 0
M  V30 3 C -0.7035 -0.0947 -0.7561 0
M  V30 4 C 0.4631 -0.1742 0.2374 0
M  V30 5 C 1.7893 0.1633 -0.4418 0
M  V30 6 O 2.8272 0.0818 0.4944 0
M  V30 7 H -2.6651 1.2863 0.4592 0
M  V30 8 H -1.971 -1.4757 0.3472 0
M  V30 9 H -2.841 -0.4818 -0.8663 0
M  V30 10 H -0.7712 0.9323 -1.1774 0
M  V30 11 H -0.521 -0.8006 -1.5956 0
M  V30 12 H 0.523 -1.2014 0.6594 0
M  V30 13 H 0.2935 0.5405 1.0723 0
M  V30 14 H 1.7429 1.1949 -0.8583 0
M  V30 15 H 1.9775 -0.5556 -1.2707 0
M  V30 16 H 3.659 0.3092 0.0033 0
M  V30 END ATOM
M  V30 BEGIN BOND
M  V30 1 1 1 2
M  V30 2 1 2 3
M  V30 3 1 3 4
M  V30 4 1 4 5
M  V30 5 1 5 6
M  V30 6 1 1 7
M  V30 7 1 2 8
M  V30 8 1 2 9
M  V30 9 1 3 10
M  V30 10 1 3 11
M  V30 11 1 4 12
M  V30 12 1 4 13
M  V30 13 1 5 14
M  V30 14 1 5 15
M  V30 15 1 6 16
M  V30 END BOND
M  V30 END CTAB
M  END
>  <Structure No>
983

>  <LogS>
1.045169179

>  <MMFF94 Energy>
0.73339

$$$$
Compound 984
Actelion Java MolfileCreator 2.0

  0  0  0  0  0  0              0 V3000
M  V30 BEGIN CTAB
M  V30 COUNTS 14 13 0 0 0
M  V30 BEGIN ATOM
M  V30 1 O 0.3804 -1.5986 0.4565 0
M  V30 2 C 0.0536 -0.2331 0.4353 0
M  V30 3 C 1.1708 0.5406 -0.2789 0
M  V30 4 C -1.2939 -0.0394 -0.2738 0
M  V30 5 O 2.3779 0.4159 0.424 0
M  V30 6 O -1.6916 1.302 -0.1982 0
M  V30 7 H -0.1686 -2.0148 1.1717 0
M  V30 8 H -0.0279 0.1529 1.4789 0
M  V30 9 H 1.2891 0.1768 -1.326 0
M  V30 10 H 0.9088 1.6192 -0.3241 0
M  V30 11 H -2.0609 -0.6768 0.2206 0
M  V30 12 H -1.209 -0.3523 -1.339 0
M  V30 13 H 2.7741 -0.4553 0.1608 0
M  V30 14 H -2.5564 1.3604 -0.6816 0
M  V30 END ATOM
M  V30 BEGIN BOND
M  V30 1 1 1 2
M  V30 2 1 2 3
M  V30 3 1 2 4
M  V30 4 1 3 5
M  V30 5 1 4 6
M  V30 6 1 1 7
M  V30 7 1 2 8
M  V30 8 1 3 9
M  V30 9 1 3 10
M  V30 10 1 4 11
M  V30 11 1 4 12
M  V30 12 1 5 13
M  V30 13 1 6 14
M  V30 END BOND
M  V30 END CTAB
M  END
>  <Structure No>
984

>  <LogS>
1.035768664

>  <MMFF94 Energy>
40.662

$$$$
Compound 985
Actelion Java MolfileCreator 2.0

  0  0  0  0  0  0              0 V3000
M  V30 BEGIN CTAB
M  V30 COUNTS 29 28 0 0 0
M  V30 BEGIN ATOM
M  V30 1 N 0.2303 0.0767 0.0767 0 CHG=1
M  V30 2 C 0.651 -1.0697 0.9585 0
M  V30 3 C -0.5128 -0.419 -1.1404 0
M  V30 4 C -0.5666 1.057 0.8967 0
M  V30 5 C 1.487 0.7794 -0.3727 0
M  V30 6 C -0.4744 -1.9108 1.5814 0
M  V30 7 C -2.0469 -0.5465 -1.0242 0
M  V30 8 C -0.8586 2.4072 0.2109 0
M  V30 9 C 2.5214 -0.0932 -1.1122 0
M  V30 10 H 1.2711 -1.7968 0.3925 0
M  V30 11 H 1.2882 -0.6957 1.7927 0
M  V30 12 H -0.3345 0.2494 -2.0128 0
M  V30 13 H -0.1249 -1.4149 -1.4508 0
M  V30 14 H -1.5426 0.6335 1.2042 0
M  V30 15 H -0.0351 1.2841 1.8492 0
M  V30 16 H 2.0052 1.2452 0.4971 0
M  V30 17 H 1.2434 1.6106 -1.0702 0
M  V30 18 H -0.9793 -2.5266 0.8106 0
M  V30 19 H -0.0233 -2.6231 2.3043 0
M  V30 20 H -1.2052 -1.3028 2.1478 0
M  V30 21 H -2.4316 -1.086 -1.9154 0
M  V30 22 H -2.372 -1.1073 -0.1308 0
M  V30 23 H -2.5341 0.4488 -1.0143 0
M  V30 24 H 0.0292 3.0716 0.2656 0
M  V30 25 H -1.6878 2.9197 0.7431 0
M  V30 26 H -1.1512 2.2819 -0.8503 0
M  V30 27 H 3.0675 -0.7528 -0.4068 0
M  V30 28 H 3.2793 0.5671 -1.5846 0
M  V30 29 H 2.0563 -0.6983 -1.9156 0
M  V30 END ATOM
M  V30 BEGIN BOND
M  V30 1 1 1 2
M  V30 2 1 1 3
M  V30 3 1 1 4
M  V30 4 1 1 5
M  V30 5 1 2 6
M  V30 6 1 3 7
M  V30 7 1 4 8
M  V30 8 1 5 9
M  V30 9 1 2 10
M  V30 10 1 2 11
M  V30 11 1 3 12
M  V30 12 1 3 13
M  V30 13 1 4 14
M  V30 14 1 4 15
M  V30 15 1 5 16
M  V30 16 1 5 17
M  V30 17 1 6 18
M  V30 18 1 6 19
M  V30 19 1 6 20
M  V30 20 1 7 21
M  V30 21 1 7 22
M  V30 22 1 7 23
M  V30 23 1 8 24
M  V30 24 1 8 25
M  V30 25 1 8 26
M  V30 26 1 9 27
M  V30 27 1 9 28
M  V30 28 1 9 29
M  V30 END BOND
M  V30 END CTAB
M  END
>  <Structure No>
985

>  <LogS>
0.677452007

>  <MMFF94 Energy>
28.543

$$$$
Compound 986
Actelion Java MolfileCreator 2.0

  0  0  0  0  0  0              0 V3000
M  V30 BEGIN CTAB
M  V30 COUNTS 29 28 0 0 0
M  V30 BEGIN ATOM
M  V30 1 N 0.3072 0.2304 -0.2304 0 CHG=1
M  V30 2 C -0.6482 -0.7562 -0.8565 0
M  V30 3 C -0.287 1.617 -0.1332 0
M  V30 4 C 1.4717 0.3871 -1.1836 0
M  V30 5 C 0.8888 -0.2237 1.0881 0
M  V30 6 C -2.1241 -0.7043 -0.425 0
M  V30 7 C -1.1245 1.9552 1.1151 0
M  V30 8 C 2.092 -0.9165 -1.7433 0
M  V30 9 C -0.0461 -0.9681 2.0558 0
M  V30 10 H -0.6857 -0.6017 -1.9597 0
M  V30 11 H -0.2823 -1.7957 -0.7034 0
M  V30 12 H -0.8996 1.8369 -1.0366 0
M  V30 13 H 0.5188 2.389 -0.1359 0
M  V30 14 H 1.169 0.9858 -2.0753 0
M  V30 15 H 2.293 0.9653 -0.6982 0
M  V30 16 H 1.7405 -0.9162 0.9428 0
M  V30 17 H 1.3393 0.639 1.6276 0
M  V30 18 H -2.2708 -0.8868 0.6528 0
M  V30 19 H -2.6008 0.2506 -0.7261 0
M  V30 20 H -2.6733 -1.5105 -0.9561 0
M  V30 21 H -1.5148 2.9893 1.0061 0
M  V30 22 H -2.0036 1.3026 1.2458 0
M  V30 23 H -0.5054 1.948 2.0348 0
M  V30 24 H 2.3255 -1.6652 -0.9637 0
M  V30 25 H 3.042 -0.6672 -2.2616 0
M  V30 26 H 1.4268 -1.3844 -2.4979 0
M  V30 27 H -0.9029 -0.3551 2.3847 0
M  V30 28 H -0.3977 -1.9261 1.6218 0
M  V30 29 H 0.5262 -1.225 2.9723 0
M  V30 END ATOM
M  V30 BEGIN BOND
M  V30 1 1 1 2
M  V30 2 1 1 3
M  V30 3 1 1 4
M  V30 4 1 1 5
M  V30 5 1 2 6
M  V30 6 1 3 7
M  V30 7 1 4 8
M  V30 8 1 5 9
M  V30 9 1 2 10
M  V30 10 1 2 11
M  V30 11 1 3 12
M  V30 12 1 3 13
M  V30 13 1 4 14
M  V30 14 1 4 15
M  V30 15 1 5 16
M  V30 16 1 5 17
M  V30 17 1 6 18
M  V30 18 1 6 19
M  V30 19 1 6 20
M  V30 20 1 7 21
M  V30 21 1 7 22
M  V30 22 1 7 23
M  V30 23 1 8 24
M  V30 24 1 8 25
M  V30 25 1 8 26
M  V30 26 1 9 27
M  V30 27 1 9 28
M  V30 28 1 9 29
M  V30 END BOND
M  V30 END CTAB
M  END
>  <Structure No>
986

>  <LogS>
0.780656524

>  <MMFF94 Energy>
28.543

$$$$
Compound 987
Actelion Java MolfileCreator 2.0

  0  0  0  0  0  0              0 V3000
M  V30 BEGIN CTAB
M  V30 COUNTS 4 3 0 0 0
M  V30 BEGIN ATOM
M  V30 1 O -0.6188 -0.275 -0.3437 0
M  V30 2 O 0.5392 -0.2905 0.2829 0
M  V30 3 H -1.1815 0.3515 0.1795 0
M  V30 4 H 1.1246 0.3045 -0.2518 0
M  V30 END ATOM
M  V30 BEGIN BOND
M  V30 1 1 1 2
M  V30 2 1 1 3
M  V30 3 1 2 4
M  V30 END BOND
M  V30 END CTAB
M  END
>  <Structure No>
987

>  <LogS>
0.468342293

>  <MMFF94 Energy>
14.959

$$$$
Compound 988
Actelion Java MolfileCreator 2.0

  0  0  0  0  0  0              0 V3000
M  V30 BEGIN CTAB
M  V30 COUNTS 51 53 0 0 0
M  V30 BEGIN ATOM
M  V30 1 S -4.767 1.8708 0.0 0
M  V30 2 O -5.2958 2.235 -1.3583 0
M  V30 3 O -4.1002 3.0771 0.6 0
M  V30 4 O -6.0372 1.4121 0.9993 0 CHG=-1
M  V30 5 C -3.621 0.5278 -0.1528 0
M  V30 6 C -4.0653 -0.8174 -0.6165 0
M  V30 7 C -2.3337 0.7264 0.1662 0
M  V30 8 N -5.288 -1.0387 -0.9956 0
M  V30 9 C -3.0862 -1.9311 -0.6624 0
M  V30 10 C -1.3228 -0.3636 0.0729 0
M  V30 11 C -1.8001 -1.7072 -0.3549 0
M  V30 12 C -3.5209 -3.2966 -1.1277 0
M  V30 13 C -0.012 -0.1395 0.3691 0
M  V30 14 C 0.9651 -1.2493 0.4918 0
M  V30 15 C 0.5231 1.2292 0.5808 0
M  V30 16 C 2.1083 -1.271 -0.3192 0
M  V30 17 C 0.7898 -2.2454 1.461 0
M  V30 18 C 0.4271 2.1963 -0.4313 0
M  V30 19 C 1.1859 1.5458 1.7724 0
M  V30 20 C 3.0624 -2.2928 -0.1906 0
M  V30 21 C 1.7295 -3.2668 1.5975 0
M  V30 22 C 0.9537 3.4847 -0.2487 0
M  V30 23 C 1.7177 2.8212 1.9641 0
M  V30 24 S 4.4798 -2.2698 -1.2472 0
M  V30 25 C 2.8684 -3.3065 0.7791 0
M  V30 26 S 0.782 4.6655 -1.5534 0
M  V30 27 C 1.6067 3.8019 0.9669 0
M  V30 28 O 4.5093 -3.5201 -2.08 0
M  V30 29 O 5.7284 -2.1828 -0.4156 0
M  V30 30 O 4.4257 -0.9407 -2.2747 0 CHG=-1
M  V30 31 N 3.8069 -4.3769 0.9561 0
M  V30 32 O 2.1412 5.1113 -2.0137 0
M  V30 33 O -0.003 5.8494 -1.063 0
M  V30 34 O -0.0308 3.9858 -2.8583 0 CHG=-1
M  V30 35 N 2.166 5.1002 1.2117 0
M  V30 36 H -2.0343 1.6983 0.532 0
M  V30 37 H -6.039 -0.3159 -1.0063 0
M  V30 38 H -1.0945 -2.5216 -0.4582 0
M  V30 39 H -4.4661 -3.5873 -0.6177 0
M  V30 40 H -3.6922 -3.2749 -2.2265 0
M  V30 41 H -2.7595 -4.0755 -0.8991 0
M  V30 42 H 2.2465 -0.4889 -1.0548 0
M  V30 43 H -0.075 -2.228 2.1132 0
M  V30 44 H -0.061 1.9371 -1.3621 0
M  V30 45 H 1.2849 0.8061 2.5574 0
M  V30 46 H 1.5712 -4.0304 2.3488 0
M  V30 47 H 2.2197 3.0471 2.8966 0
M  V30 48 H 3.6434 -5.1073 1.6843 0
M  V30 49 H 4.667 -4.4724 0.3753 0
M  V30 50 H 2.6506 5.3049 2.1143 0
M  V30 51 H 2.1121 5.8753 0.5174 0
M  V30 END ATOM
M  V30 BEGIN BOND
M  V30 1 2 1 2
M  V30 2 2 1 3
M  V30 3 1 1 4
M  V30 4 1 1 5
M  V30 5 1 5 6
M  V30 6 2 5 7
M  V30 7 2 6 8
M  V30 8 1 6 9
M  V30 9 1 7 10
M  V30 10 2 9 11
M  V30 11 1 9 12
M  V30 12 2 10 13
M  V30 13 1 13 14
M  V30 14 1 13 15
M  V30 15 2 14 16
M  V30 16 1 14 17
M  V30 17 2 15 18
M  V30 18 1 15 19
M  V30 19 1 16 20
M  V30 20 2 17 21
M  V30 21 1 18 22
M  V30 22 2 19 23
M  V30 23 1 20 24
M  V30 24 2 20 25
M  V30 25 1 22 26
M  V30 26 2 22 27
M  V30 27 2 24 28
M  V30 28 2 24 29
M  V30 29 1 24 30
M  V30 30 1 25 31
M  V30 31 2 26 32
M  V30 32 2 26 33
M  V30 33 1 26 34
M  V30 34 1 27 35
M  V30 35 1 10 11
M  V30 36 1 21 25
M  V30 37 1 23 27
M  V30 38 1 7 36
M  V30 39 1 8 37
M  V30 40 1 11 38
M  V30 41 1 12 39
M  V30 42 1 12 40
M  V30 43 1 12 41
M  V30 44 1 16 42
M  V30 45 1 17 43
M  V30 46 1 18 44
M  V30 47 1 19 45
M  V30 48 1 21 46
M  V30 49 1 23 47
M  V30 50 1 31 48
M  V30 51 1 31 49
M  V30 52 1 35 50
M  V30 53 1 35 51
M  V30 END BOND
M  V30 END CTAB
M  END
>  <Structure No>
988

>  <LogS>
-1.767563244

>  <MMFF94 Energy>
246.1

$$$$
Compound 989
Actelion Java MolfileCreator 2.0

  0  0  0  0  0  0              0 V3000
M  V30 BEGIN CTAB
M  V30 COUNTS 18 18 0 0 0
M  V30 BEGIN ATOM
M  V30 1 O 3.4455 1.6815 0.0 0
M  V30 2 C 2.951 0.5262 0.0897 0
M  V30 3 O 3.8123 -0.5567 0.22 0 CHG=-1
M  V30 4 C 1.4777 0.3358 0.0571 0
M  V30 5 C 0.8913 -0.9474 0.1487 0
M  V30 6 C 0.6362 1.4574 -0.073 0
M  V30 7 O 1.6857 -2.0874 0.2696 0
M  V30 8 C -0.5047 -1.0844 0.1159 0
M  V30 9 C -0.752 1.3102 -0.1052 0
M  V30 10 C -1.3313 0.0411 0.0051 0
M  V30 11 C -2.8211 -0.1189 -0.069 0
M  V30 12 H 1.0509 2.4545 -0.1536 0
M  V30 13 H 1.2818 -3.0144 0.3358 0
M  V30 14 H -0.9459 -2.0719 0.1778 0
M  V30 15 H -1.3755 2.1892 -0.2154 0
M  V30 16 H -3.125 -0.2584 -1.1273 0
M  V30 17 H -3.3332 0.7781 0.3398 0
M  V30 18 H -3.1502 -1.0 0.5218 0
M  V30 END ATOM
M  V30 BEGIN BOND
M  V30 1 2 1 2
M  V30 2 1 2 3
M  V30 3 1 2 4
M  V30 4 2 4 5
M  V30 5 1 4 6
M  V30 6 1 5 7
M  V30 7 1 5 8
M  V30 8 2 6 9
M  V30 9 2 8 10
M  V30 10 1 10 11
M  V30 11 1 9 10
M  V30 12 1 6 12
M  V30 13 1 7 13
M  V30 14 1 8 14
M  V30 15 1 9 15
M  V30 16 1 11 16
M  V30 17 1 11 17
M  V30 18 1 11 18
M  V30 END BOND
M  V30 END CTAB
M  END
>  <Structure No>
989

>  <LogS>
-1.182269102

>  <MMFF94 Energy>
15.245

$$$$
Compound 990
Actelion Java MolfileCreator 2.0

  0  0  0  0  0  0              0 V3000
M  V30 BEGIN CTAB
M  V30 COUNTS 17 17 0 0 0
M  V30 BEGIN ATOM
M  V30 1 O -2.8693 -1.9668 -0.5733 0
M  V30 2 N -2.7287 -0.7416 -0.3778 0 CHG=1
M  V30 3 O -3.8484 0.0586 -0.3598 0 CHG=-1
M  V30 4 C -1.4212 -0.1751 -0.171 0
M  V30 5 C -0.2737 -0.9877 -0.1971 0
M  V30 6 C -1.2731 1.2021 0.0493 0
M  V30 7 C 1.0089 -0.4403 -0.0065 0
M  V30 8 C -0.0087 1.7528 0.2596 0
M  V30 9 C 1.1325 0.9453 0.2564 0
M  V30 10 C 2.1847 -1.3306 -0.126 0
M  V30 11 O 2.3568 1.5482 0.5526 0
M  V30 12 O 2.1067 -2.5337 0.2395 0
M  V30 13 O 3.3646 -0.8766 -0.7024 0 CHG=-1
M  V30 14 H -0.3759 -2.0481 -0.3931 0
M  V30 15 H -2.1362 1.8548 0.0694 0
M  V30 16 H 0.0833 2.8149 0.4503 0
M  V30 17 H 3.2016 1.0274 0.743 0
M  V30 END ATOM
M  V30 BEGIN BOND
M  V30 1 2 1 2
M  V30 2 1 2 3
M  V30 3 1 2 4
M  V30 4 2 4 5
M  V30 5 1 4 6
M  V30 6 1 5 7
M  V30 7 2 6 8
M  V30 8 2 7 9
M  V30 9 1 7 10
M  V30 10 1 9 11
M  V30 11 2 10 12
M  V30 12 1 10 13
M  V30 13 1 8 9
M  V30 14 1 5 14
M  V30 15 1 6 15
M  V30 16 1 8 16
M  V30 17 1 11 17
M  V30 END BOND
M  V30 END CTAB
M  END
>  <Structure No>
990

>  <LogS>
-2.262733408

>  <MMFF94 Energy>
35.495

$$$$
Compound 991
Actelion Java MolfileCreator 2.0

  0  0  0  0  0  0              0 V3000
M  V30 BEGIN CTAB
M  V30 COUNTS 20 20 0 0 0
M  V30 BEGIN ATOM
M  V30 1 O 4.1366 0.3177 -0.3971 0
M  V30 2 N 3.207 -0.5124 -0.4712 0 CHG=1
M  V30 3 O 3.508 -1.816 -0.793 0 CHG=-1
M  V30 4 C 1.8454 -0.1145 -0.2245 0
M  V30 5 C 0.8038 -1.0533 -0.3091 0
M  V30 6 C 1.537 1.2153 0.1032 0
M  V30 7 C -0.5304 -0.6776 -0.0732 0
M  V30 8 C 0.2172 1.5988 0.3447 0
M  V30 9 C -0.8262 0.6634 0.2664 0
M  V30 10 C -1.6181 -1.7157 -0.1696 0
M  V30 11 C -2.2404 1.111 0.5287 0
M  V30 12 H 1.0302 -2.0817 -0.5607 0
M  V30 13 H 2.3177 1.9614 0.1739 0
M  V30 14 H 0.0114 2.6323 0.5953 0
M  V30 15 H -1.2236 -2.6931 -0.52 0
M  V30 16 H -2.0809 -1.8673 0.8278 0
M  V30 17 H -2.3954 -1.3857 -0.89 0
M  V30 18 H -2.6921 0.4919 1.3316 0
M  V30 19 H -2.8435 1.0104 -0.3976 0
M  V30 20 H -2.281 2.1722 0.8545 0
M  V30 END ATOM
M  V30 BEGIN BOND
M  V30 1 2 1 2
M  V30 2 1 2 3
M  V30 3 1 2 4
M  V30 4 2 4 5
M  V30 5 1 4 6
M  V30 6 1 5 7
M  V30 7 2 6 8
M  V30 8 2 7 9
M  V30 9 1 7 10
M  V30 10 1 9 11
M  V30 11 1 8 9
M  V30 12 1 5 12
M  V30 13 1 6 13
M  V30 14 1 8 14
M  V30 15 1 10 15
M  V30 16 1 10 16
M  V30 17 1 10 17
M  V30 18 1 11 18
M  V30 19 1 11 19
M  V30 20 1 11 20
M  V30 END BOND
M  V30 END CTAB
M  END
>  <Structure No>
991

>  <LogS>
-3.179451248

>  <MMFF94 Energy>
54.484

$$$$
Compound 992
Actelion Java MolfileCreator 2.0

  0  0  0  0  0  0              0 V3000
M  V30 BEGIN CTAB
M  V30 COUNTS 15 15 0 0 0
M  V30 BEGIN ATOM
M  V30 1 Cl 0.9173 2.5868 -0.6671 0
M  V30 2 C 0.0403 1.116 -0.2569 0
M  V30 3 C 0.6932 -0.1313 -0.1352 0
M  V30 4 C -1.3409 1.2044 -0.042 0
M  V30 5 C -0.0569 -1.2639 0.2273 0
M  V30 6 C 2.1802 -0.2634 -0.3297 0
M  V30 7 C -2.0758 0.0679 0.3024 0
M  V30 8 C -1.4343 -1.1639 0.4395 0
M  V30 9 Cl 3.0308 0.2086 1.1621 0
M  V30 10 H -1.8464 2.157 -0.1379 0
M  V30 11 H 0.4248 -2.2267 0.3464 0
M  V30 12 H 2.4541 -1.3113 -0.5776 0
M  V30 13 H 2.5263 0.3729 -1.1704 0
M  V30 14 H -3.1428 0.1434 0.4685 0
M  V30 15 H -2.0044 -2.0423 0.7135 0
M  V30 END ATOM
M  V30 BEGIN BOND
M  V30 1 1 1 2
M  V30 2 2 2 3
M  V30 3 1 2 4
M  V30 4 1 3 5
M  V30 5 1 3 6
M  V30 6 2 4 7
M  V30 7 2 5 8
M  V30 8 1 6 9
M  V30 9 1 7 8
M  V30 10 1 4 10
M  V30 11 1 5 11
M  V30 12 1 6 12
M  V30 13 1 6 13
M  V30 14 1 7 14
M  V30 15 1 8 15
M  V30 END BOND
M  V30 END CTAB
M  END
>  <Structure No>
992

>  <LogS>
-3.20690949

>  <MMFF94 Energy>
21.367

$$$$
Compound 993
Actelion Java MolfileCreator 2.0

  0  0  0  0  0  0              0 V3000
M  V30 BEGIN CTAB
M  V30 COUNTS 16 16 0 0 0
M  V30 BEGIN ATOM
M  V30 1 N 0.4726 0.0 -3.6282 0
M  V30 2 C -0.0225 -0.4951 -2.7069 0
M  V30 3 C -0.6498 -1.1223 -1.5397 0
M  V30 4 C -0.272 -0.3771 -0.2905 0
M  V30 5 C 0.8886 -0.7266 0.4204 0
M  V30 6 C -1.0487 0.7081 0.1503 0
M  V30 7 C 1.2534 -0.0138 1.567 0
M  V30 8 C -0.6799 1.4179 1.2974 0
M  V30 9 C 0.4689 1.0562 2.0062 0
M  V30 10 H -0.3193 -2.1809 -1.4753 0
M  V30 11 H -1.7524 -1.1196 -1.6751 0
M  V30 12 H 1.5094 -1.5486 0.0866 0
M  V30 13 H -1.937 1.0037 -0.3939 0
M  V30 14 H 2.146 -0.2892 2.1134 0
M  V30 15 H -1.2833 2.2505 1.6353 0
M  V30 16 H 0.7534 1.6074 2.8931 0
M  V30 END ATOM
M  V30 BEGIN BOND
M  V30 1 3 1 2
M  V30 2 1 2 3
M  V30 3 1 3 4
M  V30 4 2 4 5
M  V30 5 1 4 6
M  V30 6 1 5 7
M  V30 7 2 6 8
M  V30 8 2 7 9
M  V30 9 1 8 9
M  V30 10 1 3 10
M  V30 11 1 3 11
M  V30 12 1 5 12
M  V30 13 1 6 13
M  V30 14 1 7 14
M  V30 15 1 8 15
M  V30 16 1 9 16
M  V30 END BOND
M  V30 END CTAB
M  END
>  <Structure No>
993

>  <LogS>
-3.068746

>  <MMFF94 Energy>
33.084

$$$$
Compound 994
Actelion Java MolfileCreator 2.0

  0  0  0  0  0  0              0 V3000
M  V30 BEGIN CTAB
M  V30 COUNTS 39 40 0 0 0
M  V30 BEGIN ATOM
M  V30 1 O 4.5933 -0.1581 -1.1863 0
M  V30 2 C 3.4699 -1.0E-4 -0.3682 0
M  V30 3 C 2.8729 1.2669 -0.1733 0
M  V30 4 C 2.9288 -1.1343 0.2669 0
M  V30 5 C 1.7436 1.3784 0.6537 0
M  V30 6 C 3.422 2.4973 -0.8426 0
M  V30 7 C 1.7979 -1.0024 1.0862 0
M  V30 8 C 3.5479 -2.4874 0.0526 0
M  V30 9 C 1.2091 0.2517 1.2926 0
M  V30 10 C -0.0289 0.377 2.1397 0
M  V30 11 C -1.2585 0.1976 1.2903 0
M  V30 12 C -1.8433 1.3004 0.6546 0
M  V30 13 C -1.789 -1.0818 1.0787 0
M  V30 14 C -2.9662 1.1368 -0.1698 0
M  V30 15 C -2.9101 -1.2673 0.2538 0
M  V30 16 C -3.503 -0.1483 -0.3755 0
M  V30 17 C -3.5808 2.3297 -0.8478 0
M  V30 18 C -3.4549 -2.6546 0.0496 0
M  V30 19 O -4.6183 -0.287 -1.2082 0
M  V30 20 H 5.0358 0.6093 -1.6753 0
M  V30 21 H 1.2739 2.3441 0.8003 0
M  V30 22 H 2.8362 3.4043 -0.581 0
M  V30 23 H 3.3862 2.3727 -1.9452 0
M  V30 24 H 4.4716 2.6634 -0.5207 0
M  V30 25 H 1.3714 -1.8768 1.5637 0
M  V30 26 H 3.0492 -3.2688 0.6648 0
M  V30 27 H 3.461 -2.7712 -1.0171 0
M  V30 28 H 4.6212 -2.4585 0.336 0
M  V30 29 H -0.0133 -0.379 2.9555 0
M  V30 30 H -0.0511 1.37 2.6409 0
M  V30 31 H -1.42 2.2871 0.8018 0
M  V30 32 H -1.3224 -1.9352 1.5568 0
M  V30 33 H -3.088 3.2764 -0.5397 0
M  V30 34 H -3.4814 2.2243 -1.9486 0
M  V30 35 H -4.6574 2.3983 -0.5842 0
M  V30 36 H -4.5079 -2.7001 0.3989 0
M  V30 37 H -2.8734 -3.4128 0.6161 0
M  V30 38 H -3.4084 -2.9216 -1.027 0
M  V30 39 H -5.0573 -1.1774 -1.4037 0
M  V30 END ATOM
M  V30 BEGIN BOND
M  V30 1 1 1 2
M  V30 2 2 2 3
M  V30 3 1 2 4
M  V30 4 1 3 5
M  V30 5 1 3 6
M  V30 6 2 4 7
M  V30 7 1 4 8
M  V30 8 2 5 9
M  V30 9 1 9 10
M  V30 10 1 10 11
M  V30 11 2 11 12
M  V30 12 1 11 13
M  V30 13 1 12 14
M  V30 14 2 13 15
M  V30 15 2 14 16
M  V30 16 1 14 17
M  V30 17 1 15 18
M  V30 18 1 16 19
M  V30 19 1 7 9
M  V30 20 1 15 16
M  V30 21 1 1 20
M  V30 22 1 5 21
M  V30 23 1 6 22
M  V30 24 1 6 23
M  V30 25 1 6 24
M  V30 26 1 7 25
M  V30 27 1 8 26
M  V30 28 1 8 27
M  V30 29 1 8 28
M  V30 30 1 10 29
M  V30 31 1 10 30
M  V30 32 1 12 31
M  V30 33 1 13 32
M  V30 34 1 17 33
M  V30 35 1 17 34
M  V30 36 1 17 35
M  V30 37 1 18 36
M  V30 38 1 18 37
M  V30 39 1 18 38
M  V30 40 1 19 39
M  V30 END BOND
M  V30 END CTAB
M  END
>  <Structure No>
994

>  <LogS>
-3.408824851

>  <MMFF94 Energy>
40.38

$$$$
Compound 995
Actelion Java MolfileCreator 2.0

  0  0  0  0  0  0              0 V3000
M  V30 BEGIN CTAB
M  V30 COUNTS 52 52 0 0 0
M  V30 BEGIN ATOM
M  V30 1 S 4.7151 0.2393 1.277 0
M  V30 2 O 4.7281 0.9147 2.6193 0
M  V30 3 O 4.0439 -1.0984 1.428 0
M  V30 4 O 3.8551 1.2094 0.1816 0
M  V30 5 C 6.3786 0.0387 0.7308 0
M  V30 6 C 3.6797 0.5244 -1.0416 0
M  V30 7 C 6.8555 -1.2189 0.331 0
M  V30 8 C 7.2304 1.1508 0.6792 0
M  V30 9 C 2.2653 -0.0577 -1.1382 0
M  V30 10 C 8.175 -1.3609 -0.1105 0
M  V30 11 C 8.5497 1.0058 0.2386 0
M  V30 12 C 1.1908 1.0401 -1.0693 0
M  V30 13 C 9.022 -0.2494 -0.1553 0
M  V30 14 C -0.2273 0.4952 -1.3043 0
M  V30 15 C -0.7701 -0.2775 -0.0893 0
M  V30 16 C -2.1709 -0.8602 -0.3371 0
M  V30 17 C -3.2676 0.2155 -0.3568 0
M  V30 18 C -4.6589 -0.4209 -0.4649 0
M  V30 19 C -5.7562 0.6536 -0.4874 0
M  V30 20 C -7.154 0.077 -0.7775 0
M  V30 21 C -7.6807 -0.9056 0.2838 0
M  V30 22 C -7.8518 -0.2635 1.6603 0
M  V30 23 H 4.426 -0.2834 -1.218 0
M  V30 24 H 3.8244 1.2523 -1.8681 0
M  V30 25 H 6.2099 -2.0871 0.3569 0
M  V30 26 H 6.8721 2.1281 0.9785 0
M  V30 27 H 2.1196 -0.7886 -0.3172 0
M  V30 28 H 2.1753 -0.6025 -2.1032 0
M  V30 29 H 8.5404 -2.3319 -0.4196 0
M  V30 30 H 9.2051 1.8665 0.2006 0
M  V30 31 H 1.4031 1.7957 -1.8575 0
M  V30 32 H 1.2352 1.5586 -0.0863 0
M  V30 33 H 10.0426 -0.3607 -0.4977 0
M  V30 34 H -0.2371 -0.1542 -2.2068 0
M  V30 35 H -0.8888 1.3636 -1.5072 0
M  V30 36 H -0.7902 0.3842 0.8042 0
M  V30 37 H -0.0925 -1.1268 0.1373 0
M  V30 38 H -2.1793 -1.4278 -1.2934 0
M  V30 39 H -2.3911 -1.5798 0.4822 0
M  V30 40 H -3.2132 0.8183 0.5762 0
M  V30 41 H -3.114 0.8902 -1.2253 0
M  V30 42 H -4.8138 -1.091 0.4071 0
M  V30 43 H -4.7137 -1.0268 -1.3959 0
M  V30 44 H -5.7611 1.2126 0.4724 0
M  V30 45 H -5.5239 1.3874 -1.2901 0
M  V30 46 H -7.8719 0.9212 -0.8712 0
M  V30 47 H -7.134 -0.4401 -1.7615 0
M  V30 48 H -8.6741 -1.2746 -0.0516 0
M  V30 49 H -7.0169 -1.7917 0.3626 0
M  V30 50 H -8.4454 0.6723 1.5828 0
M  V30 51 H -8.3876 -0.9671 2.3325 0
M  V30 52 H -6.8637 -0.0408 2.1137 0
M  V30 END ATOM
M  V30 BEGIN BOND
M  V30 1 2 1 2
M  V30 2 2 1 3
M  V30 3 1 1 4
M  V30 4 1 1 5
M  V30 5 1 4 6
M  V30 6 2 5 7
M  V30 7 1 5 8
M  V30 8 1 6 9
M  V30 9 1 7 10
M  V30 10 2 8 11
M  V30 11 1 9 12
M  V30 12 2 10 13
M  V30 13 1 12 14
M  V30 14 1 14 15
M  V30 15 1 15 16
M  V30 16 1 16 17
M  V30 17 1 17 18
M  V30 18 1 18 19
M  V30 19 1 19 20
M  V30 20 1 20 21
M  V30 21 1 21 22
M  V30 22 1 11 13
M  V30 23 1 6 23
M  V30 24 1 6 24
M  V30 25 1 7 25
M  V30 26 1 8 26
M  V30 27 1 9 27
M  V30 28 1 9 28
M  V30 29 1 10 29
M  V30 30 1 11 30
M  V30 31 1 12 31
M  V30 32 1 12 32
M  V30 33 1 13 33
M  V30 34 1 14 34
M  V30 35 1 14 35
M  V30 36 1 15 36
M  V30 37 1 15 37
M  V30 38 1 16 38
M  V30 39 1 16 39
M  V30 40 1 17 40
M  V30 41 1 17 41
M  V30 42 1 18 42
M  V30 43 1 18 43
M  V30 44 1 19 44
M  V30 45 1 19 45
M  V30 46 1 20 46
M  V30 47 1 20 47
M  V30 48 1 21 48
M  V30 49 1 21 49
M  V30 50 1 22 50
M  V30 51 1 22 51
M  V30 52 1 22 52
M  V30 END BOND
M  V30 END CTAB
M  END
>  <Structure No>
995

>  <LogS>
-3.543437239

>  <MMFF94 Energy>
15.569

$$$$
Compound 996
Actelion Java MolfileCreator 2.0

  0  0  0  0  0  0              0 V3000
M  V30 BEGIN CTAB
M  V30 COUNTS 42 41 0 0 0
M  V30 BEGIN ATOM
M  V30 1 O -7.6952 0.6976 0.6976 0
M  V30 2 C -6.8772 0.1808 -0.3163 0
M  V30 3 C -5.4396 0.03 0.1885 0
M  V30 4 C -4.5306 -0.5553 -0.9025 0
M  V30 5 C -3.1093 -0.8505 -0.3963 0
M  V30 6 C -2.2837 0.429 -0.1742 0
M  V30 7 C -0.8528 0.1327 0.3051 0
M  V30 8 C 0.0644 -0.3464 -0.8339 0
M  V30 9 C 1.49 -0.6626 -0.3519 0
M  V30 10 C 2.3164 0.6059 -0.0748 0
M  V30 11 C 3.7475 0.2883 0.3903 0
M  V30 12 C 4.6622 -0.1488 -0.7671 0
M  V30 13 C 6.0875 -0.4797 -0.2973 0
M  V30 14 C 6.8876 0.7631 0.0922 0
M  V30 15 H -7.4989 1.6694 0.7538 0
M  V30 16 H -7.273 -0.8137 -0.6132 0
M  V30 17 H -6.9058 0.8443 -1.2109 0
M  V30 18 H -5.4375 -0.6386 1.077 0
M  V30 19 H -5.0664 1.0295 0.4964 0
M  V30 20 H -4.9719 -1.512 -1.2589 0
M  V30 21 H -4.4856 0.1378 -1.771 0
M  V30 22 H -2.6095 -1.4827 -1.1593 0
M  V30 23 H -3.1602 -1.4388 0.5459 0
M  V30 24 H -2.2521 1.0315 -1.1085 0
M  V30 25 H -2.7762 1.0457 0.6066 0
M  V30 26 H -0.8768 -0.6227 1.1209 0
M  V30 27 H -0.4429 1.0724 0.7306 0
M  V30 28 H 0.1003 0.4175 -1.6413 0
M  V30 29 H -0.353 -1.2766 -1.2721 0
M  V30 30 H 1.4474 -1.2968 0.5605 0
M  V30 31 H 1.9867 -1.2551 -1.1482 0
M  V30 32 H 1.8261 1.1901 0.7315 0
M  V30 33 H 2.3483 1.2476 -0.9826 0
M  V30 34 H 4.162 1.2107 0.8491 0
M  V30 35 H 3.7234 -0.4973 1.177 0
M  V30 36 H 4.6978 0.6453 -1.5447 0
M  V30 37 H 4.2468 -1.063 -1.2394 0
M  V30 38 H 6.0542 -1.1862 0.5602 0
M  V30 39 H 6.6215 -0.988 -1.1295 0
M  V30 40 H 6.8836 1.5041 -0.735 0
M  V30 41 H 7.9392 0.4735 0.3004 0
M  V30 42 H 6.4718 1.229 1.0092 0
M  V30 END ATOM
M  V30 BEGIN BOND
M  V30 1 1 1 2
M  V30 2 1 2 3
M  V30 3 1 3 4
M  V30 4 1 4 5
M  V30 5 1 5 6
M  V30 6 1 6 7
M  V30 7 1 7 8
M  V30 8 1 8 9
M  V30 9 1 9 10
M  V30 10 1 10 11
M  V30 11 1 11 12
M  V30 12 1 12 13
M  V30 13 1 13 14
M  V30 14 1 1 15
M  V30 15 1 2 16
M  V30 16 1 2 17
M  V30 17 1 3 18
M  V30 18 1 3 19
M  V30 19 1 4 20
M  V30 20 1 4 21
M  V30 21 1 5 22
M  V30 22 1 5 23
M  V30 23 1 6 24
M  V30 24 1 6 25
M  V30 25 1 7 26
M  V30 26 1 7 27
M  V30 27 1 8 28
M  V30 28 1 8 29
M  V30 29 1 9 30
M  V30 30 1 9 31
M  V30 31 1 10 32
M  V30 32 1 10 33
M  V30 33 1 11 34
M  V30 34 1 11 35
M  V30 35 1 12 36
M  V30 36 1 12 37
M  V30 37 1 13 38
M  V30 38 1 13 39
M  V30 39 1 14 40
M  V30 40 1 14 41
M  V30 41 1 14 42
M  V30 END BOND
M  V30 END CTAB
M  END
>  <Structure No>
996

>  <LogS>
-3.301824028

>  <MMFF94 Energy>
-2.1724

$$$$
Compound 997
Actelion Java MolfileCreator 2.0

  0  0  0  0  0  0              0 V3000
M  V30 BEGIN CTAB
M  V30 COUNTS 18 17 0 0 0
M  V30 BEGIN ATOM
M  V30 1 O -0.7423 -2.5588 0.3299 0
M  V30 2 C -0.4438 -1.5133 -0.3067 0
M  V30 3 O -0.6503 -1.4769 -1.6814 0 CHG=-1
M  V30 4 C 0.052 -0.2828 0.436 0
M  V30 5 O 0.7324 -0.6699 1.6103 0
M  V30 6 C -1.1658 0.5619 0.8874 0
M  V30 7 C 1.0024 0.5777 -0.4459 0
M  V30 8 C -2.0117 1.0696 -0.2459 0
M  V30 9 C 2.2634 -0.1414 -0.83 0
M  V30 10 O -2.9437 0.3609 -0.7094 0
M  V30 11 O -1.759 2.3189 -0.7987 0 CHG=-1
M  V30 12 O 3.2928 -0.0429 -0.1114 0
M  V30 13 O 2.2941 -0.9389 -1.9669 0 CHG=-1
M  V30 14 H 1.4135 -1.3527 1.3729 0
M  V30 15 H -0.8115 1.4329 1.4813 0
M  V30 16 H -1.8052 -0.0446 1.5666 0
M  V30 17 H 1.2778 1.5044 0.1042 0
M  V30 18 H 0.4881 0.8957 -1.3779 0
M  V30 END ATOM
M  V30 BEGIN BOND
M  V30 1 2 1 2
M  V30 2 1 2 3
M  V30 3 1 2 4
M  V30 4 1 4 5
M  V30 5 1 4 6
M  V30 6 1 4 7
M  V30 7 1 6 8
M  V30 8 1 7 9
M  V30 9 2 8 10
M  V30 10 1 8 11
M  V30 11 2 9 12
M  V30 12 1 9 13
M  V30 13 1 5 14
M  V30 14 1 6 15
M  V30 15 1 6 16
M  V30 16 1 7 17
M  V30 17 1 7 18
M  V30 END BOND
M  V30 END CTAB
M  END
>  <Structure No>
997

>  <LogS>
-4.55976264

>  <MMFF94 Energy>
234.11

$$$$
Compound 998
Actelion Java MolfileCreator 2.0

  0  0  0  0  0  0              0 V3000
M  V30 BEGIN CTAB
M  V30 COUNTS 40 40 0 0 0
M  V30 BEGIN ATOM
M  V30 1 O 2.0561 -1.5022 -0.237 0
M  V30 2 C 2.2803 -0.3122 0.12 0
M  V30 3 O 1.393 0.7134 -0.2222 0
M  V30 4 O 3.4219 0.0015 0.8604 0
M  V30 5 C 0.1731 0.5005 -0.9393 0 CFG=1
M  V30 6 C 4.3749 -0.98 1.2546 0
M  V30 7 C -0.9132 -0.093 0.0212 0 CFG=2
M  V30 8 C -0.2446 1.8409 -1.5814 0
M  V30 9 C 5.4911 -0.3178 2.0461 0
M  V30 10 C -1.9832 -1.0498 -0.6673 0
M  V30 11 C -1.4477 1.0067 0.9871 0
M  V30 12 C -0.7203 2.8607 -0.5463 0
M  V30 13 C -1.3054 -2.3995 -1.0206 0
M  V30 14 C -2.5849 -0.4779 -1.9693 0
M  V30 15 C -3.1512 -1.3745 0.294 0
M  V30 16 C -1.8713 2.2977 0.2852 0
M  V30 17 H 0.3832 -0.1998 -1.7735 0
M  V30 18 H 3.8816 -1.7488 1.8882 0
M  V30 19 H 4.8041 -1.4697 0.3537 0
M  V30 20 H -0.3638 -0.7687 0.7143 0
M  V30 21 H 0.6263 2.2664 -2.1256 0
M  V30 22 H -1.04 1.6955 -2.3371 0
M  V30 23 H 5.9972 0.4476 1.4207 0
M  V30 24 H 6.2357 -1.0814 2.3551 0
M  V30 25 H 5.0755 0.1689 2.9538 0
M  V30 26 H -2.2702 0.6461 1.6339 0
M  V30 27 H -0.6289 1.269 1.6947 0
M  V30 28 H 0.124 3.1419 0.1207 0
M  V30 29 H -1.062 3.7805 -1.068 0
M  V30 30 H -2.0338 -3.1008 -1.4831 0
M  V30 31 H -0.8977 -2.8889 -0.1098 0
M  V30 32 H -0.4751 -2.2658 -1.7429 0
M  V30 33 H -3.0655 0.5031 -1.8017 0
M  V30 34 H -3.3683 -1.16 -2.3657 0
M  V30 35 H -1.8158 -0.3868 -2.7633 0
M  V30 36 H -3.7975 -2.1789 -0.1204 0
M  V30 37 H -3.8034 -0.488 0.445 0
M  V30 38 H -2.7662 -1.7196 1.2777 0
M  V30 39 H -2.7644 2.1286 -0.3468 0
M  V30 40 H -2.1554 3.0478 1.0546 0
M  V30 END ATOM
M  V30 BEGIN BOND
M  V30 1 2 1 2
M  V30 2 1 2 3
M  V30 3 1 2 4
M  V30 4 1 3 5
M  V30 5 1 4 6
M  V30 6 1 5 7
M  V30 7 1 5 8
M  V30 8 1 6 9
M  V30 9 1 7 10
M  V30 10 1 7 11
M  V30 11 1 8 12
M  V30 12 1 10 13
M  V30 13 1 10 14
M  V30 14 1 10 15
M  V30 15 1 11 16
M  V30 16 1 12 16
M  V30 17 1 5 17
M  V30 18 1 6 18
M  V30 19 1 6 19
M  V30 20 1 7 20
M  V30 21 1 8 21
M  V30 22 1 8 22
M  V30 23 1 9 23
M  V30 24 1 9 24
M  V30 25 1 9 25
M  V30 26 1 11 26
M  V30 27 1 11 27
M  V30 28 1 12 28
M  V30 29 1 12 29
M  V30 30 1 13 30
M  V30 31 1 13 31
M  V30 32 1 13 32
M  V30 33 1 14 33
M  V30 34 1 14 34
M  V30 35 1 14 35
M  V30 36 1 15 36
M  V30 37 1 15 37
M  V30 38 1 15 38
M  V30 39 1 16 39
M  V30 40 1 16 40
M  V30 END BOND
M  V30 BEGIN COLLECTION
M  V30 MDLV30/STEABS ATOMS=(2 5 7)
M  V30 END COLLECTION
M  V30 END CTAB
M  END
>  <Structure No>
998

>  <LogS>
-4.321140283

>  <MMFF94 Energy>
-6.8083

$$$$
Compound 999
Actelion Java MolfileCreator 2.0

  0  0  0  0  0  0              0 V3000
M  V30 BEGIN CTAB
M  V30 COUNTS 68 71 0 0 0
M  V30 BEGIN ATOM
M  V30 1 Cl 9.261 -1.5255 0.4815 0
M  V30 2 C 7.6526 -1.0843 -0.0603 0
M  V30 3 C 7.3667 0.2366 -0.4042 0
M  V30 4 C 6.6602 -2.0583 -0.172 0
M  V30 5 C 6.0864 0.5876 -0.8389 0
M  V30 6 C 5.3778 -1.7123 -0.6065 0
M  V30 7 C 5.0509 -0.37 -0.9127 0
M  V30 8 C 3.6607 0.0708 -1.4252 0 CFG=1
M  V30 9 O 3.8149 0.5629 -2.7359 0
M  V30 10 C 3.0984 1.2287 -0.5633 0
M  V30 11 C 2.5817 -1.0497 -1.4535 0
M  V30 12 C 2.6586 0.7486 0.8285 0
M  V30 13 C 2.0692 -1.4464 -0.0489 0
M  V30 14 N 1.6076 -0.2919 0.7595 0 CHG=1 CFG=1
M  V30 15 C 0.301 0.2641 0.313 0
M  V30 16 C -0.8979 -0.6485 0.6865 0
M  V30 17 C -2.3125 0.0188 0.5005 0
M  V30 18 C -3.4064 -1.0496 0.7621 0
M  V30 19 C -2.3374 0.5585 -0.9514 0
M  V30 20 C -2.5229 1.1249 1.5559 0
M  V30 21 C -4.5416 -1.2042 -0.0748 0
M  V30 22 C -3.357 -1.839 1.9378 0
M  V30 23 C -2.3519 -0.3535 -2.0341 0
M  V30 24 C -2.1322 1.9273 -1.2529 0
M  V30 25 O -1.7959 1.1307 2.5886 0
M  V30 26 N -3.5564 2.1324 1.445 0
M  V30 27 C -5.5356 -2.1416 0.2197 0
M  V30 28 C -4.3491 -2.7827 2.2191 0
M  V30 29 C -2.2916 0.0942 -3.3556 0
M  V30 30 C -2.0683 2.3682 -2.5779 0
M  V30 31 C -3.3577 3.4437 2.0664 0
M  V30 32 C -4.881 1.8199 0.9108 0
M  V30 33 C -5.4363 -2.9356 1.3594 0
M  V30 34 C -2.1631 1.4551 -3.6277 0
M  V30 35 H 8.138 0.9939 -0.347 0
M  V30 36 H 6.8826 -3.0896 0.0698 0
M  V30 37 H 5.9143 1.6128 -1.1353 0
M  V30 38 H 4.6664 -2.5145 -0.7091 0
M  V30 39 H 4.1585 -0.1789 -3.3003 0
M  V30 40 H 3.8381 2.0451 -0.4407 0
M  V30 41 H 2.2318 1.6923 -1.0831 0
M  V30 42 H 2.9571 -1.9469 -1.9884 0
M  V30 43 H 1.7197 -0.7033 -2.0628 0
M  V30 44 H 3.5453 0.3492 1.3719 0
M  V30 45 H 2.3051 1.6218 1.4216 0
M  V30 46 H 2.8727 -1.9725 0.5079 0
M  V30 47 H 1.2615 -2.1974 -0.1639 0
M  V30 48 H 1.4865 -0.6342 1.7421 0
M  V30 49 H 0.1366 1.255 0.7893 0
M  V30 50 H 0.3018 0.4381 -0.7813 0
M  V30 51 H -0.8612 -1.567 0.0644 0
M  V30 52 H -0.7523 -0.9773 1.7338 0
M  V30 53 H -4.6958 -0.584 -0.9445 0
M  V30 54 H -2.5692 -1.7141 2.6656 0
M  V30 55 H -2.4135 -1.4193 -1.8545 0
M  V30 56 H -1.9882 2.6638 -0.4766 0
M  V30 57 H -6.3969 -2.2381 -0.43 0
M  V30 58 H -4.2872 -3.3812 3.1199 0
M  V30 59 H -2.3314 -0.6182 -4.1695 0
M  V30 60 H -1.925 3.4195 -2.7912 0
M  V30 61 H -3.9656 3.5129 2.9903 0
M  V30 62 H -2.2921 3.6152 2.3238 0
M  V30 63 H -3.6652 4.2428 1.3612 0
M  V30 64 H -4.8189 1.6291 -0.1778 0
M  V30 65 H -5.3063 0.9455 1.4419 0
M  V30 66 H -5.5814 2.6696 1.0584 0
M  V30 67 H -6.2103 -3.658 1.5869 0
M  V30 68 H -2.108 1.8005 -4.6516 0
M  V30 END ATOM
M  V30 BEGIN BOND
M  V30 1 1 1 2
M  V30 2 2 2 3
M  V30 3 1 2 4
M  V30 4 1 3 5
M  V30 5 2 4 6
M  V30 6 2 5 7
M  V30 7 1 7 8
M  V30 8 1 8 9
M  V30 9 1 8 10
M  V30 10 1 8 11
M  V30 11 1 10 12
M  V30 12 1 11 13
M  V30 13 1 12 14
M  V30 14 1 14 15
M  V30 15 1 15 16
M  V30 16 1 16 17
M  V30 17 1 17 18
M  V30 18 1 17 19
M  V30 19 1 17 20
M  V30 20 2 18 21
M  V30 21 1 18 22
M  V30 22 2 19 23
M  V30 23 1 19 24
M  V30 24 2 20 25
M  V30 25 1 20 26
M  V30 26 1 21 27
M  V30 27 2 22 28
M  V30 28 1 23 29
M  V30 29 2 24 30
M  V30 30 1 26 31
M  V30 31 1 26 32
M  V30 32 2 27 33
M  V30 33 2 29 34
M  V30 34 1 6 7
M  V30 35 1 13 14
M  V30 36 1 28 33
M  V30 37 1 30 34
M  V30 38 1 3 35
M  V30 39 1 4 36
M  V30 40 1 5 37
M  V30 41 1 6 38
M  V30 42 1 9 39
M  V30 43 1 10 40
M  V30 44 1 10 41
M  V30 45 1 11 42
M  V30 46 1 11 43
M  V30 47 1 12 44
M  V30 48 1 12 45
M  V30 49 1 13 46
M  V30 50 1 13 47
M  V30 51 1 14 48
M  V30 52 1 15 49
M  V30 53 1 15 50
M  V30 54 1 16 51
M  V30 55 1 16 52
M  V30 56 1 21 53
M  V30 57 1 22 54
M  V30 58 1 23 55
M  V30 59 1 24 56
M  V30 60 1 27 57
M  V30 61 1 28 58
M  V30 62 1 29 59
M  V30 63 1 30 60
M  V30 64 1 31 61
M  V30 65 1 31 62
M  V30 66 1 31 63
M  V30 67 1 32 64
M  V30 68 1 32 65
M  V30 69 1 32 66
M  V30 70 1 33 67
M  V30 71 1 34 68
M  V30 END BOND
M  V30 BEGIN COLLECTION
M  V30 MDLV30/STEABS ATOMS=(2 8 14)
M  V30 END COLLECTION
M  V30 END CTAB
M  END
>  <Structure No>
999

>  <LogS>
-4.673121562

>  <MMFF94 Energy>
100.14

$$$$
Compound 1000
Actelion Java MolfileCreator 2.0

  0  0  0  0  0  0              0 V3000
M  V30 BEGIN CTAB
M  V30 COUNTS 37 36 0 0 0
M  V30 BEGIN ATOM
M  V30 1 O 0.1563 -1.3299 -2.2695 0
M  V30 2 C 0.4957 -0.5102 -1.3729 0
M  V30 3 O -0.2539 -0.3648 -0.1985 0
M  V30 4 C 1.7488 0.2892 -1.5405 0
M  V30 5 C -1.4281 -1.0703 0.0962 0
M  V30 6 C 2.9302 -0.4261 -0.8799 0
M  V30 7 O -1.9075 -1.911 -0.7122 0
M  V30 8 C -2.1418 -0.7921 1.3826 0
M  V30 9 C 4.2239 0.38 -1.0445 0
M  V30 10 C -2.9024 0.5422 1.3374 0
M  V30 11 C 5.4069 -0.3393 -0.3867 0
M  V30 12 C -3.9985 0.6156 0.2544 0
M  V30 13 C 6.6945 0.4654 -0.5368 0
M  V30 14 C -5.1154 -0.4343 0.3913 0
M  V30 15 C -5.8933 -0.3118 1.7007 0
M  V30 16 H 1.6047 1.2881 -1.0742 0
M  V30 17 H 1.9526 0.4372 -2.6236 0
M  V30 18 H 2.7176 -0.5619 0.2036 0
M  V30 19 H 3.0592 -1.4297 -1.343 0
M  V30 20 H -2.8294 -1.6269 1.6348 0
M  V30 21 H -1.3869 -0.7415 2.1965 0
M  V30 22 H 4.0955 1.3816 -0.5768 0
M  V30 23 H 4.435 0.5194 -2.1278 0
M  V30 24 H -3.3481 0.7392 2.3349 0
M  V30 25 H -2.1735 1.3615 1.1532 0
M  V30 26 H 5.201 -0.4887 0.6957 0
M  V30 27 H 5.5485 -1.3356 -0.8593 0
M  V30 28 H -3.5313 0.5084 -0.7482 0
M  V30 29 H -4.4556 1.6293 0.2845 0
M  V30 30 H 7.5328 -0.0815 -0.0566 0
M  V30 31 H 6.5895 1.4563 -0.0451 0
M  V30 32 H 6.9352 0.612 -1.6113 0
M  V30 33 H -4.7031 -1.4602 0.2936 0
M  V30 34 H -5.8281 -0.2912 -0.4499 0
M  V30 35 H -6.7747 -0.9865 1.6715 0
M  V30 36 H -5.2599 -0.6109 2.5612 0
M  V30 37 H -6.2505 0.73 1.8457 0
M  V30 END ATOM
M  V30 BEGIN BOND
M  V30 1 2 1 2
M  V30 2 1 2 3
M  V30 3 1 2 4
M  V30 4 1 3 5
M  V30 5 1 4 6
M  V30 6 2 5 7
M  V30 7 1 5 8
M  V30 8 1 6 9
M  V30 9 1 8 10
M  V30 10 1 9 11
M  V30 11 1 10 12
M  V30 12 1 11 13
M  V30 13 1 12 14
M  V30 14 1 14 15
M  V30 15 1 4 16
M  V30 16 1 4 17
M  V30 17 1 6 18
M  V30 18 1 6 19
M  V30 19 1 8 20
M  V30 20 1 8 21
M  V30 21 1 9 22
M  V30 22 1 9 23
M  V30 23 1 10 24
M  V30 24 1 10 25
M  V30 25 1 11 26
M  V30 26 1 11 27
M  V30 27 1 12 28
M  V30 28 1 12 29
M  V30 29 1 13 30
M  V30 30 1 13 31
M  V30 31 1 13 32
M  V30 32 1 14 33
M  V30 33 1 14 34
M  V30 34 1 15 35
M  V30 35 1 15 36
M  V30 36 1 15 37
M  V30 END BOND
M  V30 END CTAB
M  END
>  <Structure No>
1000

>  <LogS>
-4.296805043

>  <MMFF94 Energy>
-22.357

$$$$
Compound 1001
Actelion Java MolfileCreator 2.0

  0  0  0  0  0  0              0 V3000
M  V30 BEGIN CTAB
M  V30 COUNTS 34 33 0 0 0
M  V30 BEGIN ATOM
M  V30 1 O -4.6636 0.6984 1.708 0
M  V30 2 C -4.5036 0.1944 0.6067 0
M  V30 3 C -3.7283 0.9433 -0.4474 0
M  V30 4 C -5.0941 -1.1561 0.3289 0
M  V30 5 C -2.2487 1.0985 -0.0689 0
M  V30 6 C -1.502 -0.2466 -0.0993 0
M  V30 7 C -0.0365 -0.1211 0.3476 0
M  V30 8 C 0.854 0.5321 -0.7235 0
M  V30 9 C 2.3168 0.6684 -0.2706 0
M  V30 10 C 3.0477 -0.6845 -0.2083 0
M  V30 11 C 4.5643 -0.5253 -0.0197 0
M  V30 12 C 4.9337 0.0103 1.3632 0
M  V30 13 H -3.8072 0.437 -1.4337 0
M  V30 14 H -4.1789 1.9528 -0.5631 0
M  V30 15 H -6.1972 -1.1106 0.4453 0
M  V30 16 H -4.8574 -1.4977 -0.7003 0
M  V30 17 H -4.683 -1.8948 1.0486 0
M  V30 18 H -1.7859 1.7959 -0.798 0
M  V30 19 H -2.1663 1.5585 0.9403 0
M  V30 20 H -2.0069 -0.9547 0.5928 0
M  V30 21 H -1.55 -0.6851 -1.1202 0
M  V30 22 H 0.0206 0.4561 1.2964 0
M  V30 23 H 0.3375 -1.1459 0.554 0
M  V30 24 H 0.477 1.5531 -0.9414 0
M  V30 25 H 0.805 -0.0529 -1.6679 0
M  V30 26 H 2.8392 1.3272 -0.9986 0
M  V30 27 H 2.3495 1.1682 0.7213 0
M  V30 28 H 2.6407 -1.3047 0.6183 0
M  V30 29 H 2.8777 -1.2334 -1.1602 0
M  V30 30 H 5.0403 -1.5218 -0.1461 0
M  V30 31 H 4.9795 0.146 -0.8024 0
M  V30 32 H 6.0378 -0.0021 1.4808 0
M  V30 33 H 4.5853 1.057 1.4848 0
M  V30 34 H 4.4865 -0.6236 2.1582 0
M  V30 END ATOM
M  V30 BEGIN BOND
M  V30 1 2 1 2
M  V30 2 1 2 3
M  V30 3 1 2 4
M  V30 4 1 3 5
M  V30 5 1 5 6
M  V30 6 1 6 7
M  V30 7 1 7 8
M  V30 8 1 8 9
M  V30 9 1 9 10
M  V30 10 1 10 11
M  V30 11 1 11 12
M  V30 12 1 3 13
M  V30 13 1 3 14
M  V30 14 1 4 15
M  V30 15 1 4 16
M  V30 16 1 4 17
M  V30 17 1 5 18
M  V30 18 1 5 19
M  V30 19 1 6 20
M  V30 20 1 6 21
M  V30 21 1 7 22
M  V30 22 1 7 23
M  V30 23 1 8 24
M  V30 24 1 8 25
M  V30 25 1 9 26
M  V30 26 1 9 27
M  V30 27 1 10 28
M  V30 28 1 10 29
M  V30 29 1 11 30
M  V30 30 1 11 31
M  V30 31 1 12 32
M  V30 32 1 12 33
M  V30 33 1 12 34
M  V30 END BOND
M  V30 END CTAB
M  END
>  <Structure No>
1001

>  <LogS>
-4.20182067

>  <MMFF94 Energy>
-0.1637

$$$$
Compound 1002
Actelion Java MolfileCreator 2.0

  0  0  0  0  0  0              0 V3000
M  V30 BEGIN CTAB
M  V30 COUNTS 35 35 0 0 0
M  V30 BEGIN ATOM
M  V30 1 O 0.3919 -0.0783 -0.9409 0
M  V30 2 O 0.9784 0.0478 0.2439 0
M  V30 3 C -0.8414 -0.7453 -0.7412 0
M  V30 4 C 2.3744 0.1447 0.0335 0
M  V30 5 C -1.7663 0.077 0.169 0
M  V30 6 C -1.5165 -0.8687 -2.1146 0
M  V30 7 C -0.5679 -2.1709 -0.1993 0
M  V30 8 C 2.7146 1.3858 -0.8193 0
M  V30 9 C 2.9223 -1.1342 -0.6348 0
M  V30 10 C 3.0316 0.2997 1.4133 0
M  V30 11 C -2.7799 -0.5285 0.9442 0
M  V30 12 C -1.6863 1.4864 0.1598 0
M  V30 13 C -3.6397 0.2486 1.7262 0
M  V30 14 C -2.549 2.2571 0.9439 0
M  V30 15 C -3.5209 1.6388 1.7309 0
M  V30 16 H -0.8739 -1.4496 -2.8109 0
M  V30 17 H -1.6807 0.1379 -2.5566 0
M  V30 18 H -2.4999 -1.3802 -2.028 0
M  V30 19 H -0.2487 -2.1343 0.8643 0
M  V30 20 H 0.2406 -2.6524 -0.7895 0
M  V30 21 H -1.4655 -2.8198 -0.2794 0
M  V30 22 H 2.317 1.2816 -1.8512 0
M  V30 23 H 2.2701 2.2974 -0.3647 0
M  V30 24 H 3.8151 1.5238 -0.8898 0
M  V30 25 H 2.6491 -2.0286 -0.0348 0
M  V30 26 H 2.5075 -1.2589 -1.6576 0
M  V30 27 H 4.0296 -1.0887 -0.7179 0
M  V30 28 H 2.7932 -0.5763 2.0544 0
M  V30 29 H 2.6506 1.2118 1.9218 0
M  V30 30 H 4.1365 0.381 1.3222 0
M  V30 31 H -2.92 -1.5995 0.9493 0
M  V30 32 H -0.9568 1.9944 -0.4579 0
M  V30 33 H -4.4057 -0.2285 2.3239 0
M  V30 34 H -2.4684 3.3364 0.9349 0
M  V30 35 H -4.19 2.2376 2.3353 0
M  V30 END ATOM
M  V30 BEGIN BOND
M  V30 1 1 1 2
M  V30 2 1 1 3
M  V30 3 1 2 4
M  V30 4 1 3 5
M  V30 5 1 3 6
M  V30 6 1 3 7
M  V30 7 1 4 8
M  V30 8 1 4 9
M  V30 9 1 4 10
M  V30 10 2 5 11
M  V30 11 1 5 12
M  V30 12 1 11 13
M  V30 13 2 12 14
M  V30 14 2 13 15
M  V30 15 1 14 15
M  V30 16 1 6 16
M  V30 17 1 6 17
M  V30 18 1 6 18
M  V30 19 1 7 19
M  V30 20 1 7 20
M  V30 21 1 7 21
M  V30 22 1 8 22
M  V30 23 1 8 23
M  V30 24 1 8 24
M  V30 25 1 9 25
M  V30 26 1 9 26
M  V30 27 1 9 27
M  V30 28 1 10 28
M  V30 29 1 10 29
M  V30 30 1 10 30
M  V30 31 1 11 31
M  V30 32 1 12 32
M  V30 33 1 13 33
M  V30 34 1 14 34
M  V30 35 1 15 35
M  V30 END BOND
M  V30 END CTAB
M  END
>  <Structure No>
1002

>  <LogS>
-4.29093415

>  <MMFF94 Energy>
59.193

$$$$
Compound 1003
Actelion Java MolfileCreator 2.0

  0  0  0  0  0  0              0 V3000
M  V30 BEGIN CTAB
M  V30 COUNTS 33 32 0 0 0
M  V30 BEGIN ATOM
M  V30 1 S 5.0156 -2.4656 -0.5563 0
M  V30 2 C 5.2025 -0.9301 0.3977 0
M  V30 3 C 4.1034 0.017 0.0497 0
M  V30 4 O 4.2953 0.9042 -0.8261 0
M  V30 5 O 2.8582 -0.1168 0.6741 0
M  V30 6 C 1.7226 0.6783 0.3393 0
M  V30 7 C 1.091 0.1846 -0.9684 0
M  V30 8 C -0.0331 1.1048 -1.4772 0
M  V30 9 C -1.2412 1.2334 -0.5315 0
M  V30 10 C -1.9453 -0.1111 -0.2745 0
M  V30 11 C -3.3208 0.0565 0.4094 0
M  V30 12 C -4.0621 -1.2863 0.435 0
M  V30 13 C -3.1862 0.6052 1.8382 0
M  V30 14 H 5.2661 -1.8245 -1.7851 0
M  V30 15 H 6.1913 -0.4745 0.1771 0
M  V30 16 H 5.1568 -1.169 1.4808 0
M  V30 17 H 0.986 0.582 1.1636 0
M  V30 18 H 2.0158 1.7482 0.2586 0
M  V30 19 H 0.7153 -0.8516 -0.8356 0
M  V30 20 H 1.8748 0.1443 -1.7545 0
M  V30 21 H 0.386 2.1189 -1.6566 0
M  V30 22 H -0.385 0.7228 -2.4603 0
M  V30 23 H -1.9628 1.9361 -1.0025 0
M  V30 24 H -0.9177 1.6899 0.4264 0
M  V30 25 H -1.2989 -0.759 0.3563 0
M  V30 26 H -2.0924 -0.6229 -1.2514 0
M  V30 27 H -3.9363 0.7688 -0.1839 0
M  V30 28 H -4.2051 -1.6666 -0.5988 0
M  V30 29 H -3.4892 -2.039 1.0185 0
M  V30 30 H -5.066 -1.1636 0.8952 0
M  V30 31 H -2.5155 -0.0399 2.4454 0
M  V30 32 H -2.7818 1.6382 1.8243 0
M  V30 33 H -4.1819 0.6467 2.3294 0
M  V30 END ATOM
M  V30 BEGIN BOND
M  V30 1 1 1 2
M  V30 2 1 2 3
M  V30 3 2 3 4
M  V30 4 1 3 5
M  V30 5 1 5 6
M  V30 6 1 6 7
M  V30 7 1 7 8
M  V30 8 1 8 9
M  V30 9 1 9 10
M  V30 10 1 10 11
M  V30 11 1 11 12
M  V30 12 1 11 13
M  V30 13 1 1 14
M  V30 14 1 2 15
M  V30 15 1 2 16
M  V30 16 1 6 17
M  V30 17 1 6 18
M  V30 18 1 7 19
M  V30 19 1 7 20
M  V30 20 1 8 21
M  V30 21 1 8 22
M  V30 22 1 9 23
M  V30 23 1 9 24
M  V30 24 1 10 25
M  V30 25 1 10 26
M  V30 26 1 11 27
M  V30 27 1 12 28
M  V30 28 1 12 29
M  V30 29 1 12 30
M  V30 30 1 13 31
M  V30 31 1 13 32
M  V30 32 1 13 33
M  V30 END BOND
M  V30 END CTAB
M  END
>  <Structure No>
1003

>  <LogS>
-4.285036897

>  <MMFF94 Energy>
20.133

$$$$
Compound 1004
Actelion Java MolfileCreator 2.0

  0  0  0  0  0  0              0 V3000
M  V30 BEGIN CTAB
M  V30 COUNTS 22 21 0 0 0
M  V30 BEGIN ATOM
M  V30 1 C 2.9861 -0.2294 -0.6119 0
M  V30 2 C 3.6457 0.5602 0.2407 0
M  V30 3 C 1.5129 -0.0638 -0.8659 0
M  V30 4 C 0.6879 -0.4993 0.3546 0
M  V30 5 C -0.823 -0.5095 0.0749 0
M  V30 6 C -1.4077 0.9049 -0.0578 0
M  V30 7 C -2.9002 0.8611 -0.2395 0
M  V30 8 C -3.7223 0.5381 0.7633 0
M  V30 9 H 3.5333 -0.9916 -1.1586 0
M  V30 10 H 4.7115 0.4249 0.3922 0
M  V30 11 H 3.132 1.345 0.7876 0
M  V30 12 H 1.3069 0.9973 -1.1203 0
M  V30 13 H 1.2347 -0.6903 -1.7407 0
M  V30 14 H 0.9911 -1.5308 0.6403 0
M  V30 15 H 0.9031 0.1656 1.2196 0
M  V30 16 H -1.3214 -1.0303 0.9214 0
M  V30 17 H -1.0328 -1.0933 -0.8481 0
M  V30 18 H -0.9687 1.4073 -0.9448 0
M  V30 19 H -1.1613 1.5118 0.8407 0
M  V30 20 H -3.3224 1.1314 -1.2029 0
M  V30 21 H -3.3341 0.285 1.7452 0
M  V30 22 H -4.7956 0.5305 0.6043 0
M  V30 END ATOM
M  V30 BEGIN BOND
M  V30 1 2 1 2
M  V30 2 1 1 3
M  V30 3 1 3 4
M  V30 4 1 4 5
M  V30 5 1 5 6
M  V30 6 1 6 7
M  V30 7 2 7 8
M  V30 8 1 1 9
M  V30 9 1 2 10
M  V30 10 1 2 11
M  V30 11 1 3 12
M  V30 12 1 3 13
M  V30 13 1 4 14
M  V30 14 1 4 15
M  V30 15 1 5 16
M  V30 16 1 5 17
M  V30 17 1 6 18
M  V30 18 1 6 19
M  V30 19 1 7 20
M  V30 20 1 8 21
M  V30 21 1 8 22
M  V30 END BOND
M  V30 END CTAB
M  END
>  <Structure No>
1004

>  <LogS>
-4.02327315

>  <MMFF94 Energy>
14.746

$$$$
Compound 1005
Actelion Java MolfileCreator 2.0

  0  0  0  0  0  0              0 V3000
M  V30 BEGIN CTAB
M  V30 COUNTS 36 36 0 0 0
M  V30 BEGIN ATOM
M  V30 1 O 3.0058 1.1856 -1.3438 0
M  V30 2 C 2.4086 1.6881 -0.3533 0
M  V30 3 O 1.3515 1.0127 0.2674 0
M  V30 4 C 2.8537 3.0042 0.186 0
M  V30 5 C 0.8798 -0.2688 -0.1448 0 CFG=2
M  V30 6 C -0.5739 -0.5108 0.3806 0 CFG=1
M  V30 7 C 1.8545 -1.3343 0.3929 0
M  V30 8 C -1.6406 0.5658 -0.1069 0
M  V30 9 C -1.0016 -1.9722 0.05 0
M  V30 10 C 1.3964 -2.7446 0.0289 0
M  V30 11 C -1.6481 0.7275 -1.6449 0
M  V30 12 C -1.3579 1.9534 0.5266 0
M  V30 13 C -3.0692 0.1591 0.3392 0
M  V30 14 C -0.0018 -3.0044 0.5814 0
M  V30 15 H 2.0445 3.4581 0.7959 0
M  V30 16 H 3.7512 2.8586 0.8224 0
M  V30 17 H 3.1025 3.6928 -0.6486 0
M  V30 18 H 0.8778 -0.33 -1.2552 0
M  V30 19 H -0.5326 -0.4446 1.492 0
M  V30 20 H 2.8658 -1.1693 -0.0366 0
M  V30 21 H 1.9383 -1.2428 1.4986 0
M  V30 22 H -1.9738 -2.2141 0.5252 0
M  V30 23 H -1.1077 -2.1075 -1.0469 0
M  V30 24 H 2.105 -3.4842 0.4603 0
M  V30 25 H 1.3969 -2.8697 -1.0763 0
M  V30 26 H -1.8349 -0.2404 -2.1528 0
M  V30 27 H -0.6876 1.1441 -2.0132 0
M  V30 28 H -2.45 1.432 -1.956 0
M  V30 29 H -0.5041 2.4673 0.0431 0
M  V30 30 H -1.1596 1.8603 1.6159 0
M  V30 31 H -2.2235 2.6387 0.3956 0
M  V30 32 H -3.0867 -0.0814 1.4243 0
M  V30 33 H -3.4417 -0.7153 -0.2346 0
M  V30 34 H -3.7987 0.9779 0.1558 0
M  V30 35 H -0.3298 -4.0226 0.2792 0
M  V30 36 H 0.0201 -2.9687 1.6933 0
M  V30 END ATOM
M  V30 BEGIN BOND
M  V30 1 2 1 2
M  V30 2 1 2 3
M  V30 3 1 2 4
M  V30 4 1 3 5
M  V30 5 1 5 6
M  V30 6 1 5 7
M  V30 7 1 6 8
M  V30 8 1 6 9
M  V30 9 1 7 10
M  V30 10 1 8 11
M  V30 11 1 8 12
M  V30 12 1 8 13
M  V30 13 1 9 14
M  V30 14 1 10 14
M  V30 15 1 4 15
M  V30 16 1 4 16
M  V30 17 1 4 17
M  V30 18 1 5 18
M  V30 19 1 6 19
M  V30 20 1 7 20
M  V30 21 1 7 21
M  V30 22 1 9 22
M  V30 23 1 9 23
M  V30 24 1 10 24
M  V30 25 1 10 25
M  V30 26 1 11 26
M  V30 27 1 11 27
M  V30 28 1 11 28
M  V30 29 1 12 29
M  V30 30 1 12 30
M  V30 31 1 12 31
M  V30 32 1 13 32
M  V30 33 1 13 33
M  V30 34 1 13 34
M  V30 35 1 14 35
M  V30 36 1 14 36
M  V30 END BOND
M  V30 BEGIN COLLECTION
M  V30 MDLV30/STEABS ATOMS=(2 5 6)
M  V30 END COLLECTION
M  V30 END CTAB
M  END
>  <Structure No>
1005

>  <LogS>
-4.297335855

>  <MMFF94 Energy>
17.294

$$$$
Compound 1006
Actelion Java MolfileCreator 2.0

  0  0  0  0  0  0              0 V3000
M  V30 BEGIN CTAB
M  V30 COUNTS 24 25 0 0 0
M  V30 BEGIN ATOM
M  V30 1 Cl -0.6759 -1.5214 -2.0289 0
M  V30 2 C -1.6682 -0.5359 -0.9617 0
M  V30 3 C -1.3172 -0.3182 0.3887 0
M  V30 4 C -2.8657 -0.0095 -1.4618 0
M  V30 5 O -0.128 -0.8145 0.9393 0
M  V30 6 C -2.1943 0.3864 1.2226 0
M  V30 7 C -3.7209 0.7169 -0.627 0
M  V30 8 C 1.1526 -0.6397 0.3919 0
M  V30 9 C -3.3871 0.9088 0.7163 0
M  V30 10 Cl -5.2198 1.3714 -1.2611 0
M  V30 11 C 1.5095 0.5013 -0.3619 0
M  V30 12 C 2.1141 -1.628 0.6372 0
M  V30 13 O 0.5934 1.5321 -0.5662 0
M  V30 14 C 2.8041 0.6071 -0.892 0
M  V30 15 C 3.4027 -1.5123 0.1104 0
M  V30 16 C 3.747 -0.3982 -0.6591 0
M  V30 17 Cl 5.3648 -0.2555 -1.3219 0
M  V30 18 H -3.1381 -0.1755 -2.4966 0
M  V30 19 H -1.9414 0.5426 2.2637 0
M  V30 20 H -4.0506 1.4622 1.3689 0
M  V30 21 H 1.8554 -2.4974 1.2283 0
M  V30 22 H 0.8324 2.3586 -1.1014 0
M  V30 23 H 3.0799 1.476 -1.4764 0
M  V30 24 H 4.1317 -2.2899 0.2999 0
M  V30 END ATOM
M  V30 BEGIN BOND
M  V30 1 1 1 2
M  V30 2 2 2 3
M  V30 3 1 2 4
M  V30 4 1 3 5
M  V30 5 1 3 6
M  V30 6 2 4 7
M  V30 7 1 5 8
M  V30 8 2 6 9
M  V30 9 1 7 10
M  V30 10 2 8 11
M  V30 11 1 8 12
M  V30 12 1 11 13
M  V30 13 1 11 14
M  V30 14 2 12 15
M  V30 15 2 14 16
M  V30 16 1 16 17
M  V30 17 1 7 9
M  V30 18 1 15 16
M  V30 19 1 4 18
M  V30 20 1 6 19
M  V30 21 1 9 20
M  V30 22 1 12 21
M  V30 23 1 13 22
M  V30 24 1 14 23
M  V30 25 1 15 24
M  V30 END BOND
M  V30 END CTAB
M  END
>  <Structure No>
1006

>  <LogS>
-4.46171607

>  <MMFF94 Energy>
41.21

$$$$
Compound 1007
Actelion Java MolfileCreator 2.0

  0  0  0  0  0  0              0 V3000
M  V30 BEGIN CTAB
M  V30 COUNTS 75 74 0 0 0
M  V30 BEGIN ATOM
M  V30 1 O 5.9273 2.5703 -0.3891 0
M  V30 2 C 5.2539 1.5206 -0.1945 0
M  V30 3 N 5.6201 0.2911 -0.8362 0
M  V30 4 C 4.0343 1.5833 0.6752 0
M  V30 5 C 6.7804 0.1747 -1.7196 0
M  V30 6 C 2.8527 2.1776 -0.1036 0
M  V30 7 C 7.5216 -1.149 -1.4925 0
M  V30 8 C 1.6113 2.3928 0.7813 0
M  V30 9 C 7.914 -1.4567 -0.0224 0
M  V30 10 C 0.844 1.1024 1.1205 0
M  V30 11 N 8.9793 -0.6098 0.5855 0 CHG=1
M  V30 12 C 0.0845 0.5324 -0.0884 0
M  V30 13 C 10.118 -0.3469 -0.313 0
M  V30 14 C 8.4656 0.6427 1.1706 0
M  V30 15 C -0.8748 -0.5879 0.3398 0
M  V30 16 C -1.5241 -1.3139 -0.8541 0
M  V30 17 C -2.3665 -0.419 -1.7837 0
M  V30 18 C -3.5568 0.2892 -1.1078 0
M  V30 19 C -4.6905 -0.6677 -0.6827 0
M  V30 20 C -4.6738 -0.9736 0.8258 0
M  V30 21 C -5.85 -1.8803 1.2495 0
M  V30 22 C -6.9743 -1.1364 1.9961 0
M  V30 23 C -7.7032 -0.0611 1.1717 0
M  V30 24 C -8.5425 -0.6541 0.0259 0
M  V30 25 C -9.2553 0.4289 -0.7998 0
M  V30 26 C -10.4368 1.0569 -0.0594 0
M  V30 27 H 4.9533 -0.5117 -0.7918 0
M  V30 28 H 3.7849 0.5634 1.0352 0
M  V30 29 H 4.2587 2.2154 1.5616 0
M  V30 30 H 6.4252 0.2043 -2.7716 0
M  V30 31 H 7.477 1.0264 -1.6007 0
M  V30 32 H 2.61 1.5343 -0.9758 0
M  V30 33 H 3.157 3.1714 -0.502 0
M  V30 34 H 6.8493 -1.9675 -1.8318 0
M  V30 35 H 8.4085 -1.1974 -2.1577 0
M  V30 36 H 0.9228 3.0994 0.2669 0
M  V30 37 H 1.9186 2.8861 1.7292 0
M  V30 38 H 8.2662 -2.514 -0.0107 0
M  V30 39 H 7.0012 -1.4555 0.6142 0
M  V30 40 H 1.5327 0.335 1.5337 0
M  V30 41 H 0.1086 1.3508 1.9177 0
M  V30 42 H 9.3632 -1.1641 1.3899 0
M  V30 43 H -0.4969 1.351 -0.5652 0
M  V30 44 H 0.8077 0.1273 -0.8272 0
M  V30 45 H 10.4835 -1.2962 -0.7642 0
M  V30 46 H 10.9615 0.1014 0.2573 0
M  V30 47 H 9.8401 0.363 -1.123 0
M  V30 48 H 8.2662 1.4097 0.4004 0
M  V30 49 H 7.5376 0.4632 1.756 0
M  V30 50 H 9.2177 1.0706 1.8693 0
M  V30 51 H -0.3045 -1.3437 0.9236 0
M  V30 52 H -1.6554 -0.1792 1.0143 0
M  V30 53 H -0.7191 -1.7829 -1.4603 0
M  V30 54 H -2.1522 -2.1473 -0.4772 0
M  V30 55 H -2.7475 -1.0429 -2.6224 0
M  V30 56 H -1.7108 0.3462 -2.2503 0
M  V30 57 H -3.9763 0.9955 -1.8576 0
M  V30 58 H -3.2147 0.9229 -0.2622 0
M  V30 59 H -5.6583 -0.1889 -0.9384 0
M  V30 60 H -4.6398 -1.6167 -1.2611 0
M  V30 61 H -4.6816 -0.0247 1.4058 0
M  V30 62 H -3.7272 -1.494 1.0761 0
M  V30 63 H -5.4539 -2.6496 1.9484 0
M  V30 64 H -6.2616 -2.4444 0.3863 0
M  V30 65 H -6.5426 -0.6557 2.9007 0
M  V30 66 H -7.7181 -1.8807 2.3553 0
M  V30 67 H -6.9776 0.6818 0.7795 0
M  V30 68 H -8.3771 0.4831 1.8665 0
M  V30 69 H -9.2888 -1.3719 0.4319 0
M  V30 70 H -7.8799 -1.2173 -0.6637 0
M  V30 71 H -9.641 -0.0378 -1.7326 0
M  V30 72 H -8.5333 1.2219 -1.0951 0
M  V30 73 H -11.1508 0.2712 0.2688 0
M  V30 74 H -10.9693 1.7548 -0.7394 0
M  V30 75 H -10.0897 1.6316 0.8236 0
M  V30 END ATOM
M  V30 BEGIN BOND
M  V30 1 2 1 2
M  V30 2 1 2 3
M  V30 3 1 2 4
M  V30 4 1 3 5
M  V30 5 1 4 6
M  V30 6 1 5 7
M  V30 7 1 6 8
M  V30 8 1 7 9
M  V30 9 1 8 10
M  V30 10 1 9 11
M  V30 11 1 10 12
M  V30 12 1 11 13
M  V30 13 1 11 14
M  V30 14 1 12 15
M  V30 15 1 15 16
M  V30 16 1 16 17
M  V30 17 1 17 18
M  V30 18 1 18 19
M  V30 19 1 19 20
M  V30 20 1 20 21
M  V30 21 1 21 22
M  V30 22 1 22 23
M  V30 23 1 23 24
M  V30 24 1 24 25
M  V30 25 1 25 26
M  V30 26 1 3 27
M  V30 27 1 4 28
M  V30 28 1 4 29
M  V30 29 1 5 30
M  V30 30 1 5 31
M  V30 31 1 6 32
M  V30 32 1 6 33
M  V30 33 1 7 34
M  V30 34 1 7 35
M  V30 35 1 8 36
M  V30 36 1 8 37
M  V30 37 1 9 38
M  V30 38 1 9 39
M  V30 39 1 10 40
M  V30 40 1 10 41
M  V30 41 1 11 42
M  V30 42 1 12 43
M  V30 43 1 12 44
M  V30 44 1 13 45
M  V30 45 1 13 46
M  V30 46 1 13 47
M  V30 47 1 14 48
M  V30 48 1 14 49
M  V30 49 1 14 50
M  V30 50 1 15 51
M  V30 51 1 15 52
M  V30 52 1 16 53
M  V30 53 1 16 54
M  V30 54 1 17 55
M  V30 55 1 17 56
M  V30 56 1 18 57
M  V30 57 1 18 58
M  V30 58 1 19 59
M  V30 59 1 19 60
M  V30 60 1 20 61
M  V30 61 1 20 62
M  V30 62 1 21 63
M  V30 63 1 21 64
M  V30 64 1 22 65
M  V30 65 1 22 66
M  V30 66 1 23 67
M  V30 67 1 23 68
M  V30 68 1 24 69
M  V30 69 1 24 70
M  V30 70 1 25 71
M  V30 71 1 25 72
M  V30 72 1 26 73
M  V30 73 1 26 74
M  V30 74 1 26 75
M  V30 END BOND
M  V30 END CTAB
M  END
>  <Structure No>
1007

>  <LogS>
-4.566614238

>  <MMFF94 Energy>
-24.753

$$$$
Compound 1008
Actelion Java MolfileCreator 2.0

  0  0  0  0  0  0              0 V3000
M  V30 BEGIN CTAB
M  V30 COUNTS 46 49 0 0 0
M  V30 BEGIN ATOM
M  V30 1 S -9.8536 -0.4951 -0.6601 0
M  V30 2 O -10.3428 0.61 -1.5535 0
M  V30 3 O -10.5558 -0.4189 0.6671 0
M  V30 4 O -10.2027 -1.9771 -1.3721 0 CHG=-1
M  V30 5 C -8.1183 -0.3288 -0.4205 0
M  V30 6 C -7.2255 -1.2124 -1.0422 0
M  V30 7 C -7.6217 0.706 0.3829 0
M  V30 8 C -5.8471 -1.0647 -0.8577 0
M  V30 9 C -6.2435 0.8555 0.565 0
M  V30 10 C -5.3475 -0.025 -0.0525 0
M  V30 11 N -3.9417 0.1571 0.1544 0
M  V30 12 N -3.0749 -0.6177 -0.3633 0
M  V30 13 C -1.6691 -0.4356 -0.157 0
M  V30 14 C -0.7773 -1.3559 -0.7195 0
M  V30 15 C -1.1658 0.6422 0.5919 0
M  V30 16 C 0.6006 -1.2124 -0.5325 0
M  V30 17 C 0.2122 0.7894 0.7744 0
M  V30 18 C 1.1064 -0.1391 0.2207 0
M  V30 19 N 2.5176 0.0231 0.4237 0
M  V30 20 N 3.4152 -1.008 0.0987 0
M  V30 21 C 4.7081 -0.8789 -0.0194 0
M  V30 22 C 5.527 -2.104 -0.0186 0
M  V30 23 C 5.4355 0.4277 -0.0119 0
M  V30 24 O 5.0085 -3.2248 -0.2708 0
M  V30 25 C 6.9458 -2.0218 0.3598 0
M  V30 26 C 6.8044 0.4337 0.3515 0
M  V30 27 C 4.8561 1.6254 -0.4776 0
M  V30 28 C 7.5271 -0.839 0.5844 0
M  V30 29 C 7.5098 1.6455 0.4036 0
M  V30 30 C 5.5735 2.8237 -0.4347 0
M  V30 31 C 6.8879 2.8382 0.0312 0
M  V30 32 H -7.5921 -2.0129 -1.6721 0
M  V30 33 H -8.3019 1.3962 0.8668 0
M  V30 34 H -5.1755 -1.7592 -1.3456 0
M  V30 35 H -5.8719 1.6606 1.1873 0
M  V30 36 H -1.1526 -2.1878 -1.3027 0
M  V30 37 H -1.8349 1.3697 1.0335 0
M  V30 38 H 1.268 -1.9372 -0.9803 0
M  V30 39 H 0.5831 1.626 1.3525 0
M  V30 40 H 2.8478 0.8352 0.9924 0
M  V30 41 H 7.5197 -2.9324 0.481 0
M  V30 42 H 3.8653 1.6412 -0.9091 0
M  V30 43 H 8.5699 -0.8169 0.8768 0
M  V30 44 H 8.5507 1.6628 0.7013 0
M  V30 45 H 5.1126 3.7423 -0.7748 0
M  V30 46 H 7.4402 3.7685 0.0626 0
M  V30 END ATOM
M  V30 BEGIN BOND
M  V30 1 2 1 2
M  V30 2 2 1 3
M  V30 3 1 1 4
M  V30 4 1 1 5
M  V30 5 2 5 6
M  V30 6 1 5 7
M  V30 7 1 6 8
M  V30 8 2 7 9
M  V30 9 2 8 10
M  V30 10 1 10 11
M  V30 11 2 11 12
M  V30 12 1 12 13
M  V30 13 2 13 14
M  V30 14 1 13 15
M  V30 15 1 14 16
M  V30 16 2 15 17
M  V30 17 2 16 18
M  V30 18 1 18 19
M  V30 19 1 19 20
M  V30 20 2 20 21
M  V30 21 1 21 22
M  V30 22 1 21 23
M  V30 23 2 22 24
M  V30 24 1 22 25
M  V30 25 2 23 26
M  V30 26 1 23 27
M  V30 27 2 25 28
M  V30 28 1 26 29
M  V30 29 2 27 30
M  V30 30 2 29 31
M  V30 31 1 9 10
M  V30 32 1 17 18
M  V30 33 1 26 28
M  V30 34 1 30 31
M  V30 35 1 6 32
M  V30 36 1 7 33
M  V30 37 1 8 34
M  V30 38 1 9 35
M  V30 39 1 14 36
M  V30 40 1 15 37
M  V30 41 1 16 38
M  V30 42 1 17 39
M  V30 43 1 19 40
M  V30 44 1 25 41
M  V30 45 1 27 42
M  V30 46 1 28 43
M  V30 47 1 29 44
M  V30 48 1 30 45
M  V30 49 1 31 46
M  V30 END BOND
M  V30 END CTAB
M  END
>  <Structure No>
1008

>  <LogS>
-4.65844166

>  <MMFF94 Energy>
168.72

$$$$
Compound 1009
Actelion Java MolfileCreator 2.0

  0  0  0  0  0  0              0 V3000
M  V30 BEGIN CTAB
M  V30 COUNTS 29 30 0 0 0
M  V30 BEGIN ATOM
M  V30 1 O 0.1598 -0.7195 0.9595 0
M  V30 2 C -1.1203 -0.4611 0.3813 0 CFG=1
M  V30 3 C 1.2276 -0.03 0.2928 0
M  V30 4 C -1.1081 -0.9093 -1.1084 0
M  V30 5 C -1.412 1.0659 0.4474 0
M  V30 6 C -2.1825 -1.2405 1.1636 0
M  V30 7 C 0.7 0.8391 -0.9135 0 CFG=2
M  V30 8 C 1.9476 0.8574 1.3311 0
M  V30 9 C 2.246 -1.0822 -0.1967 0
M  V30 10 C -0.0549 -0.0906 -1.8936 0
M  V30 11 C -0.3516 1.8382 -0.3743 0
M  V30 12 H -0.859 -1.9914 -1.1707 0
M  V30 13 H -2.1124 -0.762 -1.5638 0
M  V30 14 H -1.3817 1.4064 1.5057 0
M  V30 15 H -2.4269 1.2824 0.0466 0
M  V30 16 H -1.9662 -2.3295 1.1225 0
M  V30 17 H -2.1823 -0.9248 2.2289 0
M  V30 18 H -3.1935 -1.0612 0.7386 0
M  V30 19 H 1.5234 1.3758 -1.4338 0
M  V30 20 H 1.2306 1.5097 1.8699 0
M  V30 21 H 2.7177 1.4906 0.8404 0
M  V30 22 H 2.444 0.2342 2.1058 0
M  V30 23 H 2.7257 -1.5967 0.6636 0
M  V30 24 H 1.7511 -1.8738 -0.7952 0
M  V30 25 H 3.0401 -0.6049 -0.8102 0
M  V30 26 H -0.5564 0.5135 -2.6816 0
M  V30 27 H 0.6492 -0.7632 -2.4264 0
M  V30 28 H -0.8418 2.3688 -1.2204 0
M  V30 29 H 0.1279 2.6261 0.2433 0
M  V30 END ATOM
M  V30 BEGIN BOND
M  V30 1 1 1 2
M  V30 2 1 1 3
M  V30 3 1 2 4
M  V30 4 1 2 5
M  V30 5 1 2 6
M  V30 6 1 3 7
M  V30 7 1 3 8
M  V30 8 1 3 9
M  V30 9 1 4 10
M  V30 10 1 5 11
M  V30 11 1 7 10
M  V30 12 1 7 11
M  V30 13 1 4 12
M  V30 14 1 4 13
M  V30 15 1 5 14
M  V30 16 1 5 15
M  V30 17 1 6 16
M  V30 18 1 6 17
M  V30 19 1 6 18
M  V30 20 1 7 19
M  V30 21 1 8 20
M  V30 22 1 8 21
M  V30 23 1 8 22
M  V30 24 1 9 23
M  V30 25 1 9 24
M  V30 26 1 9 25
M  V30 27 1 10 26
M  V30 28 1 10 27
M  V30 29 1 11 28
M  V30 30 1 11 29
M  V30 END BOND
M  V30 BEGIN COLLECTION
M  V30 MDLV30/STEABS ATOMS=(2 2 7)
M  V30 END COLLECTION
M  V30 END CTAB
M  END
>  <Structure No>
1009

>  <LogS>
-5.335685932

>  <MMFF94 Energy>
38.382

$$$$
Compound 1010
Actelion Java MolfileCreator 2.0

  0  0  0  0  0  0              0 V3000
M  V30 BEGIN CTAB
M  V30 COUNTS 39 38 0 0 0
M  V30 BEGIN ATOM
M  V30 1 O 5.9756 -0.542 -1.5494 0
M  V30 2 C 5.2161 0.3676 -0.8007 0
M  V30 3 C 3.8225 0.5275 -1.4197 0
M  V30 4 C 3.0064 1.6623 -0.7758 0
M  V30 5 C 2.719 1.4866 0.7291 0
M  V30 6 C 1.9984 0.1802 1.1075 0
M  V30 7 C 0.6169 0.048 0.4499 0
M  V30 8 C -0.1318 -1.1794 0.9901 0
M  V30 9 C -1.453 -1.4413 0.2499 0
M  V30 10 C -2.5271 -0.3895 0.5651 0
M  V30 11 C -3.8663 -0.7615 -0.0823 0
M  V30 12 C -4.9364 0.2933 0.2212 0
M  V30 13 C -6.2709 -0.0744 -0.4208 0
M  V30 14 H 5.6308 -1.4471 -1.3307 0
M  V30 15 H 5.1399 0.0189 0.2533 0
M  V30 16 H 5.7396 1.3473 -0.8041 0
M  V30 17 H 3.2678 -0.4322 -1.3591 0
M  V30 18 H 3.9427 0.7636 -2.4995 0
M  V30 19 H 2.0466 1.769 -1.3243 0
M  V30 20 H 3.5538 2.6198 -0.9169 0
M  V30 21 H 3.6729 1.5456 1.2952 0
M  V30 22 H 2.1008 2.346 1.0689 0
M  V30 23 H 2.6302 -0.6959 0.85 0
M  V30 24 H 1.8712 0.1742 2.2124 0
M  V30 25 H 0.7379 -0.0585 -0.6491 0
M  V30 26 H 0.0288 0.9667 0.6588 0
M  V30 27 H 0.5136 -2.0763 0.8651 0
M  V30 28 H -0.3284 -1.0552 2.0778 0
M  V30 29 H -1.2696 -1.4785 -0.8463 0
M  V30 30 H -1.8271 -2.441 0.5622 0
M  V30 31 H -2.6608 -0.3151 1.6669 0
M  V30 32 H -2.2055 0.6009 0.1785 0
M  V30 33 H -4.2025 -1.7479 0.3069 0
M  V30 34 H -3.732 -0.8431 -1.1836 0
M  V30 35 H -4.6102 1.2819 -0.1692 0
M  V30 36 H -5.078 0.3783 1.3207 0
M  V30 37 H -6.6329 -1.0482 -0.0277 0
M  V30 38 H -6.1627 -0.141 -1.5244 0
M  V30 39 H -7.0247 0.706 -0.1846 0
M  V30 END ATOM
M  V30 BEGIN BOND
M  V30 1 1 1 2
M  V30 2 1 2 3
M  V30 3 1 3 4
M  V30 4 1 4 5
M  V30 5 1 5 6
M  V30 6 1 6 7
M  V30 7 1 7 8
M  V30 8 1 8 9
M  V30 9 1 9 10
M  V30 10 1 10 11
M  V30 11 1 11 12
M  V30 12 1 12 13
M  V30 13 1 1 14
M  V30 14 1 2 15
M  V30 15 1 2 16
M  V30 16 1 3 17
M  V30 17 1 3 18
M  V30 18 1 4 19
M  V30 19 1 4 20
M  V30 20 1 5 21
M  V30 21 1 5 22
M  V30 22 1 6 23
M  V30 23 1 6 24
M  V30 24 1 7 25
M  V30 25 1 7 26
M  V30 26 1 8 27
M  V30 27 1 8 28
M  V30 28 1 9 29
M  V30 29 1 9 30
M  V30 30 1 10 31
M  V30 31 1 10 32
M  V30 32 1 11 33
M  V30 33 1 11 34
M  V30 34 1 12 35
M  V30 35 1 12 36
M  V30 36 1 13 37
M  V30 37 1 13 38
M  V30 38 1 13 39
M  V30 END BOND
M  V30 END CTAB
M  END
>  <Structure No>
1010

>  <LogS>
-4.984746452

>  <MMFF94 Energy>
-0.74322

$$$$
Compound 1011
Actelion Java MolfileCreator 2.0

  0  0  0  0  0  0              0 V3000
M  V30 BEGIN CTAB
M  V30 COUNTS 3 2 0 0 0
M  V30 BEGIN ATOM
M  V30 1 S 0 0 0 0 CHG=-1 VAL=2
M  V30 2 C 0 0 0 0
M  V30 3 N 0 0 0 0
M  V30 END ATOM
M  V30 BEGIN BOND
M  V30 1 1 1 2
M  V30 2 3 2 3
M  V30 END BOND
M  V30 END CTAB
M  END
>  <Structure No>
1011

>  <LogS>
-4.80401091

>  <MMFF94 Energy>
MMFF94 error code 2

$$$$
Compound 1012
Actelion Java MolfileCreator 2.0

  0  0  0  0  0  0              0 V3000
M  V30 BEGIN CTAB
M  V30 COUNTS 65 66 0 0 0
M  V30 BEGIN ATOM
M  V30 1 O 7.9565 1.3491 -0.1586 0
M  V30 2 C 7.5055 1.123 0.9987 0
M  V30 3 O 7.3501 -0.194 1.4486 0
M  V30 4 C 7.1399 2.2436 1.8939 0
M  V30 5 C 7.5718 -1.3392 0.6271 0
M  V30 6 C 7.3534 3.5138 1.53 0
M  V30 7 C 6.5787 1.9394 3.2557 0
M  V30 8 C 6.4319 -1.5165 -0.3717 0
M  V30 9 O 5.1913 -1.5881 0.3269 0
M  V30 10 C 3.9371 -1.6936 -0.2911 0
M  V30 11 C 2.7985 -1.7041 0.5167 0
M  V30 12 C 3.7874 -1.7881 -1.6849 0
M  V30 13 C 1.5256 -1.7939 -0.0498 0
M  V30 14 C 2.5147 -1.8789 -2.2565 0
M  V30 15 C 1.3553 -1.8633 -1.4489 0
M  V30 16 C -0.0693 -1.9756 -2.0258 0
M  V30 17 C -0.955 -0.8709 -1.4169 0
M  V30 18 C -0.5743 -3.4039 -1.708 0
M  V30 19 C -0.1187 -1.7982 -3.5628 0
M  V30 20 C -2.2315 -1.1253 -0.8673 0
M  V30 21 C -0.5046 0.4656 -1.4489 0
M  V30 22 C -3.0063 -0.0865 -0.3424 0
M  V30 23 C -1.2815 1.5002 -0.9241 0
M  V30 24 C -2.535 1.238 -0.3671 0
M  V30 25 O -3.2687 2.3182 0.1509 0
M  V30 26 C -4.5959 2.2455 0.6716 0
M  V30 27 C -5.6161 2.1402 -0.4639 0
M  V30 28 O -6.943 2.1191 0.058 0
M  V30 29 C -7.5156 0.9931 0.6635 0
M  V30 30 O -6.8757 -0.0939 0.7141 0
M  V30 31 C -8.8781 1.0882 1.2339 0
M  V30 32 C -9.4907 0.0099 1.738 0
M  V30 33 C -9.6049 2.4038 1.1785 0
M  V30 34 H 8.5426 -1.2491 0.0926 0
M  V30 35 H 7.6213 -2.2372 1.2786 0
M  V30 36 H 7.1098 4.3331 2.1953 0
M  V30 37 H 7.7757 3.7619 0.5643 0
M  V30 38 H 7.3991 1.6108 3.9276 0
M  V30 39 H 6.0812 2.8267 3.7037 0
M  V30 40 H 5.8226 1.129 3.1839 0
M  V30 41 H 6.5937 -2.4543 -0.9454 0
M  V30 42 H 6.4185 -0.6574 -1.0762 0
M  V30 43 H 2.9002 -1.64 1.5928 0
M  V30 44 H 4.6494 -1.7953 -2.3377 0
M  V30 45 H 0.6658 -1.8033 0.6082 0
M  V30 46 H 2.4572 -1.9577 -3.3319 0
M  V30 47 H 0.1462 -4.1615 -2.0866 0
M  V30 48 H -1.552 -3.604 -2.1972 0
M  V30 49 H -0.6835 -3.5554 -0.6125 0
M  V30 50 H 0.3516 -0.8395 -3.8705 0
M  V30 51 H -1.1728 -1.79 -3.9172 0
M  V30 52 H 0.3979 -2.634 -4.0822 0
M  V30 53 H -2.6465 -2.1215 -0.8316 0
M  V30 54 H 0.4585 0.7093 -1.8795 0
M  V30 55 H -3.9708 -0.3304 0.0792 0
M  V30 56 H -0.9069 2.5157 -0.9537 0
M  V30 57 H -4.6904 1.4007 1.386 0
M  V30 58 H -4.7978 3.1791 1.2382 0
M  V30 59 H -5.4356 1.2371 -1.0851 0
M  V30 60 H -5.5109 3.0294 -1.1214 0
M  V30 61 H -10.4989 0.0732 2.1289 0
M  V30 62 H -9.0018 -0.9553 1.7689 0
M  V30 63 H -10.4591 2.4311 1.8886 0
M  V30 64 H -9.9872 2.5715 0.1503 0
M  V30 65 H -8.9164 3.2318 1.4485 0
M  V30 END ATOM
M  V30 BEGIN BOND
M  V30 1 2 1 2
M  V30 2 1 2 3
M  V30 3 1 2 4
M  V30 4 1 3 5
M  V30 5 2 4 6
M  V30 6 1 4 7
M  V30 7 1 5 8
M  V30 8 1 8 9
M  V30 9 1 9 10
M  V30 10 2 10 11
M  V30 11 1 10 12
M  V30 12 1 11 13
M  V30 13 2 12 14
M  V30 14 2 13 15
M  V30 15 1 15 16
M  V30 16 1 16 17
M  V30 17 1 16 18
M  V30 18 1 16 19
M  V30 19 2 17 20
M  V30 20 1 17 21
M  V30 21 1 20 22
M  V30 22 2 21 23
M  V30 23 2 22 24
M  V30 24 1 24 25
M  V30 25 1 25 26
M  V30 26 1 26 27
M  V30 27 1 27 28
M  V30 28 1 28 29
M  V30 29 2 29 30
M  V30 30 1 29 31
M  V30 31 2 31 32
M  V30 32 1 31 33
M  V30 33 1 14 15
M  V30 34 1 23 24
M  V30 35 1 5 34
M  V30 36 1 5 35
M  V30 37 1 6 36
M  V30 38 1 6 37
M  V30 39 1 7 38
M  V30 40 1 7 39
M  V30 41 1 7 40
M  V30 42 1 8 41
M  V30 43 1 8 42
M  V30 44 1 11 43
M  V30 45 1 12 44
M  V30 46 1 13 45
M  V30 47 1 14 46
M  V30 48 1 18 47
M  V30 49 1 18 48
M  V30 50 1 18 49
M  V30 51 1 19 50
M  V30 52 1 19 51
M  V30 53 1 19 52
M  V30 54 1 20 53
M  V30 55 1 21 54
M  V30 56 1 22 55
M  V30 57 1 23 56
M  V30 58 1 26 57
M  V30 59 1 26 58
M  V30 60 1 27 59
M  V30 61 1 27 60
M  V30 62 1 32 61
M  V30 63 1 32 62
M  V30 64 1 33 63
M  V30 65 1 33 64
M  V30 66 1 33 65
M  V30 END BOND
M  V30 END CTAB
M  END
>  <Structure No>
1012

>  <LogS>
-5.379201886

>  <MMFF94 Energy>
92.652

$$$$
Compound 1013
Actelion Java MolfileCreator 2.0

  0  0  0  0  0  0              0 V3000
M  V30 BEGIN CTAB
M  V30 COUNTS 45 47 0 0 0
M  V30 BEGIN ATOM
M  V30 1 O 2.7293 1.2837 0.7219 0
M  V30 2 C 2.3008 0.656 -0.4761 0 CFG=1
M  V30 3 C 2.4669 0.4138 1.7943 0
M  V30 4 C 1.6787 -0.7345 -0.1284 0 CFG=1
M  V30 5 C 1.3323 1.6024 -1.1845 0
M  V30 6 C 3.5456 0.4832 -1.3715 0
M  V30 7 C 2.2977 -0.9741 1.2455 0
M  V30 8 C 0.0746 -0.9324 -0.291 0 CFG=2
M  V30 9 C 0.0351 1.6926 -0.4053 0
M  V30 10 C -0.7684 0.3975 -0.5887 0 CFG=2
M  V30 11 C -0.5258 -1.6807 0.9373 0
M  V30 12 C -0.1 -1.8825 -1.5183 0
M  V30 13 C -2.2092 0.4932 0.0724 0
M  V30 14 C -2.0347 -1.9664 0.8746 0
M  V30 15 C -2.8608 -0.9088 0.1313 0
M  V30 16 C -2.2013 1.1319 1.4892 0
M  V30 17 C -3.1372 1.3744 -0.808 0
M  V30 18 H 3.3087 0.4461 2.5182 0
M  V30 19 H 1.5388 0.7351 2.3148 0
M  V30 20 H 2.1707 -1.5015 -0.7713 0
M  V30 21 H 1.7843 2.6177 -1.2463 0
M  V30 22 H 1.1356 1.2634 -2.2266 0
M  V30 23 H 4.0139 1.4691 -1.582 0
M  V30 24 H 3.2725 0.0072 -2.3382 0
M  V30 25 H 4.3029 -0.1527 -0.8654 0
M  V30 26 H 3.3132 -1.4143 1.1165 0
M  V30 27 H 1.7761 -1.642 1.9529 0
M  V30 28 H -0.5348 2.5587 -0.8008 0
M  V30 29 H 0.2402 1.8929 0.6658 0
M  V30 30 H -0.9714 0.3887 -1.6851 0
M  V30 31 H -0.3318 -1.1008 1.8584 0
M  V30 32 H -0.0139 -2.6599 1.0689 0
M  V30 33 H -1.1609 -2.0597 -1.7776 0
M  V30 34 H 0.3639 -2.8743 -1.3254 0
M  V30 35 H 0.3887 -1.4453 -2.4163 0
M  V30 36 H -2.4161 -2.0593 1.9155 0
M  V30 37 H -2.2016 -2.9531 0.389 0
M  V30 38 H -3.0523 -1.2679 -0.9025 0
M  V30 39 H -3.8645 -0.8465 0.6089 0
M  V30 40 H -1.451 0.6846 2.1622 0
M  V30 41 H -3.1967 1.0263 1.9721 0
M  V30 42 H -1.9833 2.22 1.4342 0
M  V30 43 H -2.777 2.4218 -0.8657 0
M  V30 44 H -4.1663 1.4029 -0.3875 0
M  V30 45 H -3.207 0.9757 -1.8432 0
M  V30 END ATOM
M  V30 BEGIN BOND
M  V30 1 1 1 2
M  V30 2 1 1 3
M  V30 3 1 2 4
M  V30 4 1 2 5
M  V30 5 1 2 6
M  V30 6 1 3 7
M  V30 7 1 4 8
M  V30 8 1 5 9
M  V30 9 1 8 10
M  V30 10 1 8 11
M  V30 11 1 8 12
M  V30 12 1 10 13
M  V30 13 1 11 14
M  V30 14 1 13 15
M  V30 15 1 13 16
M  V30 16 1 13 17
M  V30 17 1 4 7
M  V30 18 1 9 10
M  V30 19 1 14 15
M  V30 20 1 3 18
M  V30 21 1 3 19
M  V30 22 1 4 20
M  V30 23 1 5 21
M  V30 24 1 5 22
M  V30 25 1 6 23
M  V30 26 1 6 24
M  V30 27 1 6 25
M  V30 28 1 7 26
M  V30 29 1 7 27
M  V30 30 1 9 28
M  V30 31 1 9 29
M  V30 32 1 10 30
M  V30 33 1 11 31
M  V30 34 1 11 32
M  V30 35 1 12 33
M  V30 36 1 12 34
M  V30 37 1 12 35
M  V30 38 1 14 36
M  V30 39 1 14 37
M  V30 40 1 15 38
M  V30 41 1 15 39
M  V30 42 1 16 40
M  V30 43 1 16 41
M  V30 44 1 16 42
M  V30 45 1 17 43
M  V30 46 1 17 44
M  V30 47 1 17 45
M  V30 END BOND
M  V30 BEGIN COLLECTION
M  V30 MDLV30/STEABS ATOMS=(4 2 4 8 10)
M  V30 END COLLECTION
M  V30 END CTAB
M  END
>  <Structure No>
1013

>  <LogS>
-5.099487786

>  <MMFF94 Energy>
75.812

$$$$
Compound 1014
Actelion Java MolfileCreator 2.0

  0  0  0  0  0  0              0 V3000
M  V30 BEGIN CTAB
M  V30 COUNTS 45 47 0 0 0
M  V30 BEGIN ATOM
M  V30 1 O 3.5336 -0.722 -0.1604 0
M  V30 2 C 2.1315 -0.7992 -0.0199 0 CFG=1
M  V30 3 C 3.9076 0.5812 0.2692 0
M  V30 4 C 1.6434 0.6038 -0.3285 0 CFG=2
M  V30 5 C 1.5162 -1.7179 -1.0809 0
M  V30 6 C 1.8488 -1.3329 1.4116 0
M  V30 7 C 2.6552 1.4566 0.3902 0
M  V30 8 C 0.1035 0.8973 -0.2374 0 CFG=1
M  V30 9 C -0.0184 -1.7221 -0.9741 0
M  V30 10 C -0.74 -0.3186 -0.8564 0 CFG=1
M  V30 11 C -0.3662 1.2263 1.2053 0
M  V30 12 C -0.0993 2.193 -1.0958 0
M  V30 13 C -2.2215 -0.4703 -0.2714 0
M  V30 14 C -1.874 1.5426 1.3176 0
M  V30 15 C -2.762 0.8867 0.2409 0
M  V30 16 C -3.1657 -0.9514 -1.4005 0
M  V30 17 C -2.3519 -1.4915 0.8965 0
M  V30 18 H 4.4348 0.5173 1.2455 0
M  V30 19 H 4.603 1.0183 -0.4788 0
M  V30 20 H 1.904 0.7603 -1.4066 0
M  V30 21 H 1.8141 -1.3963 -2.1037 0
M  V30 22 H 1.8996 -2.7538 -0.9488 0
M  V30 23 H 0.7845 -1.5454 1.6021 0
M  V30 24 H 2.2032 -0.6245 2.188 0
M  V30 25 H 2.3972 -2.2873 1.5603 0
M  V30 26 H 2.3965 1.6033 1.4595 0
M  V30 27 H 2.7988 2.4428 -0.1026 0
M  V30 28 H -0.4158 -2.2521 -1.8672 0
M  V30 29 H -0.2533 -2.3893 -0.1302 0
M  V30 30 H -0.8622 -0.0353 -1.9261 0
M  V30 31 H 0.186 2.1079 1.5955 0
M  V30 32 H -0.1309 0.4019 1.8965 0
M  V30 33 H 0.5277 3.0229 -0.7057 0
M  V30 34 H -1.131 2.5742 -1.1088 0
M  V30 35 H 0.1873 2.0247 -2.1564 0
M  V30 36 H -2.2262 1.2219 2.3227 0
M  V30 37 H -2.0233 2.6436 1.2686 0
M  V30 38 H -2.9189 1.5779 -0.6101 0
M  V30 39 H -3.7824 0.759 0.6675 0
M  V30 40 H -4.2067 -1.0637 -1.0257 0
M  V30 41 H -3.1827 -0.2253 -2.2419 0
M  V30 42 H -2.8369 -1.9345 -1.7988 0
M  V30 43 H -1.5672 -1.346 1.662 0
M  V30 44 H -2.3122 -2.5407 0.5348 0
M  V30 45 H -3.3355 -1.3925 1.405 0
M  V30 END ATOM
M  V30 BEGIN BOND
M  V30 1 1 1 2
M  V30 2 1 1 3
M  V30 3 1 2 4
M  V30 4 1 2 5
M  V30 5 1 2 6
M  V30 6 1 3 7
M  V30 7 1 4 8
M  V30 8 1 5 9
M  V30 9 1 8 10
M  V30 10 1 8 11
M  V30 11 1 8 12
M  V30 12 1 10 13
M  V30 13 1 11 14
M  V30 14 1 13 15
M  V30 15 1 13 16
M  V30 16 1 13 17
M  V30 17 1 4 7
M  V30 18 1 9 10
M  V30 19 1 14 15
M  V30 20 1 3 18
M  V30 21 1 3 19
M  V30 22 1 4 20
M  V30 23 1 5 21
M  V30 24 1 5 22
M  V30 25 1 6 23
M  V30 26 1 6 24
M  V30 27 1 6 25
M  V30 28 1 7 26
M  V30 29 1 7 27
M  V30 30 1 9 28
M  V30 31 1 9 29
M  V30 32 1 10 30
M  V30 33 1 11 31
M  V30 34 1 11 32
M  V30 35 1 12 33
M  V30 36 1 12 34
M  V30 37 1 12 35
M  V30 38 1 14 36
M  V30 39 1 14 37
M  V30 40 1 15 38
M  V30 41 1 15 39
M  V30 42 1 16 40
M  V30 43 1 16 41
M  V30 44 1 16 42
M  V30 45 1 17 43
M  V30 46 1 17 44
M  V30 47 1 17 45
M  V30 END BOND
M  V30 BEGIN COLLECTION
M  V30 MDLV30/STEABS ATOMS=(4 2 4 8 10)
M  V30 END COLLECTION
M  V30 END CTAB
M  END
>  <Structure No>
1014

>  <LogS>
-5.099487786

>  <MMFF94 Energy>
78.598

$$$$
Compound 1015
Actelion Java MolfileCreator 2.0

  0  0  0  0  0  0              0 V3000
M  V30 BEGIN CTAB
M  V30 COUNTS 48 48 0 0 0
M  V30 BEGIN ATOM
M  V30 1 O -1.5647 -2.4261 0.3127 0
M  V30 2 C -0.9178 -1.8947 -0.8348 0
M  V30 3 C -0.632 -3.0426 1.1754 0
M  V30 4 O -1.8543 -1.8045 -1.8915 0
M  V30 5 C -0.4165 -0.4926 -0.5445 0
M  V30 6 C -1.3532 -3.5267 2.4232 0
M  V30 7 C -2.1141 -3.0856 -2.4283 0
M  V30 8 C -1.2669 0.4019 0.0052 0
M  V30 9 C 1.0185 -0.1384 -0.891 0
M  V30 10 C -3.1991 -2.9707 -3.4875 0
M  V30 11 C -0.9191 1.7991 0.3269 0
M  V30 12 C 1.8994 -0.0388 0.3659 0
M  V30 13 C -0.6119 2.7221 -0.6862 0
M  V30 14 C -0.9681 2.2309 1.6607 0
M  V30 15 C 3.2819 0.5675 0.0664 0
M  V30 16 C -0.3014 4.046 -0.3602 0
M  V30 17 C -0.6613 3.5567 1.9829 0
M  V30 18 C 3.2684 2.0997 -0.0915 0
M  V30 19 C -0.3209 4.4618 0.9738 0
M  V30 20 C 3.126 2.8304 1.2436 0
M  V30 21 H -0.0519 -2.5282 -1.1552 0
M  V30 22 H -0.1624 -3.9221 0.6799 0
M  V30 23 H 0.1556 -2.3236 1.4892 0
M  V30 24 H -1.8215 -2.667 2.948 0
M  V30 25 H -0.6303 -4.017 3.1087 0
M  V30 26 H -2.1416 -4.2585 2.1465 0
M  V30 27 H -2.4701 -3.7888 -1.6414 0
M  V30 28 H -1.2 -3.5001 -2.9101 0
M  V30 29 H -2.2602 0.0769 0.2922 0
M  V30 30 H 1.0431 0.7974 -1.4784 0
M  V30 31 H 1.4549 -0.9112 -1.5595 0
M  V30 32 H -4.1308 -2.57 -3.0348 0
M  V30 33 H -2.8665 -2.2902 -4.2999 0
M  V30 34 H -3.41 -3.9716 -3.9197 0
M  V30 35 H 1.3931 0.5368 1.1657 0
M  V30 36 H 2.0539 -1.0658 0.7603 0
M  V30 37 H -0.6229 2.4216 -1.7263 0
M  V30 38 H -1.2282 1.5376 2.4512 0
M  V30 39 H 3.9821 0.2927 0.8854 0
M  V30 40 H 3.6865 0.1119 -0.8636 0
M  V30 41 H -0.0531 4.7513 -1.1425 0
M  V30 42 H -0.6853 3.8818 3.0149 0
M  V30 43 H 4.2316 2.4105 -0.5506 0
M  V30 44 H 2.4592 2.4245 -0.7771 0
M  V30 45 H -0.0806 5.4868 1.2247 0
M  V30 46 H 3.9378 2.5292 1.9391 0
M  V30 47 H 2.1445 2.6175 1.7118 0
M  V30 48 H 3.1956 3.9254 1.0734 0
M  V30 END ATOM
M  V30 BEGIN BOND
M  V30 1 1 1 2
M  V30 2 1 1 3
M  V30 3 1 2 4
M  V30 4 1 2 5
M  V30 5 1 3 6
M  V30 6 1 4 7
M  V30 7 2 5 8
M  V30 8 1 5 9
M  V30 9 1 7 10
M  V30 10 1 8 11
M  V30 11 1 9 12
M  V30 12 2 11 13
M  V30 13 1 11 14
M  V30 14 1 12 15
M  V30 15 1 13 16
M  V30 16 2 14 17
M  V30 17 1 15 18
M  V30 18 2 16 19
M  V30 19 1 18 20
M  V30 20 1 17 19
M  V30 21 1 2 21
M  V30 22 1 3 22
M  V30 23 1 3 23
M  V30 24 1 6 24
M  V30 25 1 6 25
M  V30 26 1 6 26
M  V30 27 1 7 27
M  V30 28 1 7 28
M  V30 29 1 8 29
M  V30 30 1 9 30
M  V30 31 1 9 31
M  V30 32 1 10 32
M  V30 33 1 10 33
M  V30 34 1 10 34
M  V30 35 1 12 35
M  V30 36 1 12 36
M  V30 37 1 13 37
M  V30 38 1 14 38
M  V30 39 1 15 39
M  V30 40 1 15 40
M  V30 41 1 16 41
M  V30 42 1 17 42
M  V30 43 1 18 43
M  V30 44 1 18 44
M  V30 45 1 19 45
M  V30 46 1 20 46
M  V30 47 1 20 47
M  V30 48 1 20 48
M  V30 END BOND
M  V30 END CTAB
M  END
>  <Structure No>
1015

>  <LogS>
-5.172056518

>  <MMFF94 Energy>
0.18925

$$$$
Compound 1016
Actelion Java MolfileCreator 2.0

  0  0  0  0  0  0              0 V3000
M  V30 BEGIN CTAB
M  V30 COUNTS 52 53 0 0 0
M  V30 BEGIN ATOM
M  V30 1 O -5.0989 -0.4771 2.308 0
M  V30 2 C -5.6998 -0.4941 1.199 0
M  V30 3 N -4.9598 -0.5438 -0.0301 0
M  V30 4 C -7.198 -0.459 1.1756 0
M  V30 5 C -3.5267 -0.4375 -0.0921 0
M  V30 6 C -7.6903 0.9509 1.356 0
M  V30 7 C -2.7787 -1.2926 -0.9315 0
M  V30 8 C -2.8622 0.553 0.6483 0
M  V30 9 O -8.2088 1.2795 2.4133 0
M  V30 10 C -7.5308 1.973 0.2685 0
M  V30 11 C -1.3833 -1.1439 -1.0067 0
M  V30 12 C -3.4552 -2.3569 -1.7526 0
M  V30 13 C -1.4752 0.6878 0.5724 0
M  V30 14 C -0.7198 -0.1592 -0.2539 0
M  V30 15 C 0.7575 -0.0177 -0.3296 0
M  V30 16 C 1.4271 -0.1426 -1.5592 0
M  V30 17 C 1.5081 0.2301 0.8304 0
M  V30 18 C 2.8248 -0.0184 -1.6364 0
M  V30 19 C 2.8971 0.3436 0.7656 0
M  V30 20 C 3.5694 0.225 -0.4613 0
M  V30 21 C 3.5077 -0.1627 -2.9695 0
M  V30 22 N 5.006 0.2882 -0.5044 0
M  V30 23 C 5.7759 1.2308 0.2584 0
M  V30 24 O 5.217 2.2216 0.8036 0
M  V30 25 C 7.2496 1.0312 0.4349 0
M  V30 26 C 7.5155 0.3066 1.7241 0
M  V30 27 O 7.8805 0.935 2.7076 0
M  V30 28 C 7.2927 -1.1727 1.8369 0
M  V30 29 H -5.484 -0.7385 -0.9125 0
M  V30 30 H -7.5816 -0.8667 0.2157 0
M  V30 31 H -7.5897 -1.1071 1.9905 0
M  V30 32 H -3.4225 1.2419 1.2685 0
M  V30 33 H -7.0184 1.5384 -0.6163 0
M  V30 34 H -8.5297 2.3414 -0.0434 0
M  V30 35 H -6.9276 2.8264 0.6454 0
M  V30 36 H -0.8105 -1.8133 -1.6368 0
M  V30 37 H -2.7213 -3.0794 -2.1684 0
M  V30 38 H -4.0011 -1.8845 -2.5957 0
M  V30 39 H -4.1713 -2.927 -1.1239 0
M  V30 40 H -0.9955 1.473 1.1434 0
M  V30 41 H 0.8584 -0.3204 -2.4637 0
M  V30 42 H 1.0232 0.3051 1.7957 0
M  V30 43 H 3.4523 0.493 1.683 0
M  V30 44 H 4.0124 -1.1498 -3.0236 0
M  V30 45 H 2.7824 -0.0898 -3.807 0
M  V30 46 H 4.2601 0.643 -3.1045 0
M  V30 47 H 5.5166 -0.3703 -1.1343 0
M  V30 48 H 7.7594 2.0196 0.4409 0
M  V30 49 H 7.6655 0.4482 -0.4141 0
M  V30 50 H 6.9581 -1.5999 0.8671 0
M  V30 51 H 6.5138 -1.3734 2.6015 0
M  V30 52 H 8.2376 -1.671 2.1391 0
M  V30 END ATOM
M  V30 BEGIN BOND
M  V30 1 2 1 2
M  V30 2 1 2 3
M  V30 3 1 2 4
M  V30 4 1 3 5
M  V30 5 1 4 6
M  V30 6 2 5 7
M  V30 7 1 5 8
M  V30 8 2 6 9
M  V30 9 1 6 10
M  V30 10 1 7 11
M  V30 11 1 7 12
M  V30 12 2 8 13
M  V30 13 2 11 14
M  V30 14 1 14 15
M  V30 15 2 15 16
M  V30 16 1 15 17
M  V30 17 1 16 18
M  V30 18 2 17 19
M  V30 19 2 18 20
M  V30 20 1 18 21
M  V30 21 1 20 22
M  V30 22 1 22 23
M  V30 23 2 23 24
M  V30 24 1 23 25
M  V30 25 1 25 26
M  V30 26 2 26 27
M  V30 27 1 26 28
M  V30 28 1 13 14
M  V30 29 1 19 20
M  V30 30 1 3 29
M  V30 31 1 4 30
M  V30 32 1 4 31
M  V30 33 1 8 32
M  V30 34 1 10 33
M  V30 35 1 10 34
M  V30 36 1 10 35
M  V30 37 1 11 36
M  V30 38 1 12 37
M  V30 39 1 12 38
M  V30 40 1 12 39
M  V30 41 1 13 40
M  V30 42 1 16 41
M  V30 43 1 17 42
M  V30 44 1 19 43
M  V30 45 1 21 44
M  V30 46 1 21 45
M  V30 47 1 21 46
M  V30 48 1 22 47
M  V30 49 1 25 48
M  V30 50 1 25 49
M  V30 51 1 28 50
M  V30 52 1 28 51
M  V30 53 1 28 52
M  V30 END BOND
M  V30 END CTAB
M  END
>  <Structure No>
1016

>  <LogS>
-5.325018234

>  <MMFF94 Energy>
-2.1994

$$$$
Compound 1017
Actelion Java MolfileCreator 2.0

  0  0  0  0  0  0              0 V3000
M  V30 BEGIN CTAB
M  V30 COUNTS 40 42 0 0 0
M  V30 BEGIN ATOM
M  V30 1 O -0.16 -0.32 1.8412 0
M  V30 2 C -0.72 -0.0642 0.7404 0
M  V30 3 N 0.0662 0.0458 -0.4606 0
M  V30 4 C -2.1937 0.0927 0.6996 0
M  V30 5 C 1.5031 0.0017 -0.4857 0
M  V30 6 C -2.8766 0.7361 1.7534 0
M  V30 7 C -2.9287 -0.4204 -0.3842 0
M  V30 8 C 2.1525 -0.6037 -1.5706 0
M  V30 9 C 2.2742 0.617 0.5155 0
M  V30 10 O -2.1673 1.259 2.8353 0
M  V30 11 C -4.272 0.8671 1.712 0
M  V30 12 C -4.3241 -0.2879 -0.429 0
M  V30 13 C 3.5484 -0.6389 -1.6317 0
M  V30 14 C 3.6706 0.5821 0.4545 0
M  V30 15 C -5.0015 0.3627 0.6281 0
M  V30 16 C -5.0571 -0.8002 -1.5117 0
M  V30 17 C 4.3202 -0.0677 -0.6096 0
M  V30 18 C -6.3988 0.4934 0.5827 0
M  V30 19 C -6.448 -0.6638 -1.5453 0
M  V30 20 N 5.7546 -0.0977 -0.7086 0
M  V30 21 C -7.1166 -0.0187 -0.5017 0
M  V30 22 C 6.6391 -0.1678 0.4205 0
M  V30 23 O 6.1984 -0.4547 1.5663 0
M  V30 24 C 8.1101 0.003 0.2239 0
M  V30 25 H -0.424 0.1121 -1.3802 0
M  V30 26 H -2.4219 -0.9491 -1.1823 0
M  V30 27 H 1.5743 -1.0575 -2.3658 0
M  V30 28 H 1.8013 1.1558 1.3257 0
M  V30 29 H -2.635 1.7295 3.6016 0
M  V30 30 H -4.784 1.3668 2.5263 0
M  V30 31 H 4.0306 -1.1196 -2.4737 0
M  V30 32 H 4.2382 1.0933 1.2205 0
M  V30 33 H -4.5559 -1.3035 -2.33 0
M  V30 34 H -6.9341 0.9891 1.3839 0
M  V30 35 H -7.009 -1.0593 -2.3823 0
M  V30 36 H 6.1804 -0.1543 -1.6617 0
M  V30 37 H -8.1937 0.0838 -0.5329 0
M  V30 38 H 8.3015 0.8014 -0.5233 0
M  V30 39 H 8.5474 -0.9501 -0.1388 0
M  V30 40 H 8.5974 0.2875 1.1807 0
M  V30 END ATOM
M  V30 BEGIN BOND
M  V30 1 2 1 2
M  V30 2 1 2 3
M  V30 3 1 2 4
M  V30 4 1 3 5
M  V30 5 1 4 6
M  V30 6 2 4 7
M  V30 7 2 5 8
M  V30 8 1 5 9
M  V30 9 1 6 10
M  V30 10 2 6 11
M  V30 11 1 7 12
M  V30 12 1 8 13
M  V30 13 2 9 14
M  V30 14 1 11 15
M  V30 15 2 12 16
M  V30 16 2 13 17
M  V30 17 2 15 18
M  V30 18 1 16 19
M  V30 19 1 17 20
M  V30 20 1 18 21
M  V30 21 1 20 22
M  V30 22 2 22 23
M  V30 23 1 22 24
M  V30 24 1 12 15
M  V30 25 1 14 17
M  V30 26 2 19 21
M  V30 27 1 3 25
M  V30 28 1 7 26
M  V30 29 1 8 27
M  V30 30 1 9 28
M  V30 31 1 10 29
M  V30 32 1 11 30
M  V30 33 1 13 31
M  V30 34 1 14 32
M  V30 35 1 16 33
M  V30 36 1 18 34
M  V30 37 1 19 35
M  V30 38 1 20 36
M  V30 39 1 21 37
M  V30 40 1 24 38
M  V30 41 1 24 39
M  V30 42 1 24 40
M  V30 END BOND
M  V30 END CTAB
M  END
>  <Structure No>
1017

>  <LogS>
-5.250349512

>  <MMFF94 Energy>
21.22

$$$$
Compound 1018
Actelion Java MolfileCreator 2.0

  0  0  0  0  0  0              0 V3000
M  V30 BEGIN CTAB
M  V30 COUNTS 36 38 0 0 0
M  V30 BEGIN ATOM
M  V30 1 Cl -4.8698 1.7835 3.6506 0
M  V30 2 C -4.5078 1.0087 2.119 0
M  V30 3 C -3.1863 0.9261 1.6725 0
M  V30 4 C -5.5419 0.4874 1.3394 0
M  V30 5 C -2.8839 0.3072 0.4465 0
M  V30 6 C -5.2586 -0.1152 0.1124 0
M  V30 7 N -1.5261 0.2602 -0.0248 0
M  V30 8 C -3.9334 -0.2151 -0.3436 0
M  V30 9 C -0.4161 -0.1408 0.797 0
M  V30 10 C -3.6524 -0.8649 -1.6712 0
M  V30 11 O -0.5979 -0.4366 2.0095 0
M  V30 12 C 0.9527 -0.2033 0.2407 0
M  V30 13 C 1.2072 -0.7677 -1.0265 0
M  V30 14 C 2.0239 0.2871 1.006 0
M  V30 15 O 0.1688 -1.3258 -1.7724 0
M  V30 16 C 2.5149 -0.7962 -1.5314 0
M  V30 17 C 3.3332 0.2539 0.5062 0
M  V30 18 C 3.5802 -0.2883 -0.7762 0
M  V30 19 C 4.402 0.7566 1.2653 0
M  V30 20 C 4.8914 -0.3189 -1.2771 0
M  V30 21 C 5.703 0.721 0.7554 0
M  V30 22 C 5.9467 0.1851 -0.5117 0
M  V30 23 H -2.3991 1.3679 2.2698 0
M  V30 24 H -6.5675 0.5551 1.6799 0
M  V30 25 H -6.076 -0.5055 -0.4812 0
M  V30 26 H -1.3494 0.5042 -1.0245 0
M  V30 27 H -3.3679 -0.0891 -2.4123 0
M  V30 28 H -2.8238 -1.5972 -1.5695 0
M  V30 29 H -4.5416 -1.4096 -2.0539 0
M  V30 30 H 1.8333 0.711 1.9861 0
M  V30 31 H 0.3299 -1.7432 -2.6815 0
M  V30 32 H 2.6985 -1.227 -2.5087 0
M  V30 33 H 4.2318 1.1763 2.2497 0
M  V30 34 H 5.0992 -0.7318 -2.257 0
M  V30 35 H 6.524 1.1097 1.3437 0
M  V30 36 H 6.9562 0.1599 -0.9014 0
M  V30 END ATOM
M  V30 BEGIN BOND
M  V30 1 1 1 2
M  V30 2 2 2 3
M  V30 3 1 2 4
M  V30 4 1 3 5
M  V30 5 2 4 6
M  V30 6 1 5 7
M  V30 7 2 5 8
M  V30 8 1 7 9
M  V30 9 1 8 10
M  V30 10 2 9 11
M  V30 11 1 9 12
M  V30 12 1 12 13
M  V30 13 2 12 14
M  V30 14 1 13 15
M  V30 15 2 13 16
M  V30 16 1 14 17
M  V30 17 1 16 18
M  V30 18 2 17 19
M  V30 19 2 18 20
M  V30 20 1 19 21
M  V30 21 1 20 22
M  V30 22 1 6 8
M  V30 23 1 17 18
M  V30 24 2 21 22
M  V30 25 1 3 23
M  V30 26 1 4 24
M  V30 27 1 6 25
M  V30 28 1 7 26
M  V30 29 1 10 27
M  V30 30 1 10 28
M  V30 31 1 10 29
M  V30 32 1 14 30
M  V30 33 1 15 31
M  V30 34 1 16 32
M  V30 35 1 19 33
M  V30 36 1 20 34
M  V30 37 1 21 35
M  V30 38 1 22 36
M  V30 END BOND
M  V30 END CTAB
M  END
>  <Structure No>
1018

>  <LogS>
-5.238559032

>  <MMFF94 Energy>
40.02

$$$$
Compound 1019
Actelion Java MolfileCreator 2.0

  0  0  0  0  0  0              0 V3000
M  V30 BEGIN CTAB
M  V30 COUNTS 29 30 0 0 0
M  V30 BEGIN ATOM
M  V30 1 S 1.4829 1.0708 0.8236 0
M  V30 2 C 0.7789 -0.4422 1.1044 0
M  V30 3 C 2.8534 0.377 0.1474 0
M  V30 4 S -0.8254 -0.6761 1.8516 0
M  V30 5 N 1.5635 -1.4679 0.6959 0
M  V30 6 C 2.7214 -1.003 0.1617 0
M  V30 7 C 3.9832 1.0066 -0.3685 0
M  V30 8 N -1.637 -0.6527 0.271 0
M  V30 9 C 3.736 -1.8138 -0.3499 0
M  V30 10 C 5.0102 0.2011 -0.8858 0
M  V30 11 C -2.7521 0.3163 0.2105 0
M  V30 12 C 4.8872 -1.2028 -0.8766 0
M  V30 13 C -2.2312 1.753 0.4262 0
M  V30 14 C -3.8452 -0.013 1.2525 0
M  V30 15 C -3.3738 0.2374 -1.1972 0
M  V30 16 H 4.0683 2.0855 -0.3712 0
M  V30 17 H -2.0073 -1.6186 0.1127 0
M  V30 18 H 3.6402 -2.892 -0.3423 0
M  V30 19 H 5.9008 0.6611 -1.2938 0
M  V30 20 H 5.6844 -1.8149 -1.2778 0
M  V30 21 H -1.4074 1.9754 -0.2854 0
M  V30 22 H -1.8498 1.8942 1.4593 0
M  V30 23 H -3.0447 2.4934 0.2661 0
M  V30 24 H -4.1898 -1.063 1.1369 0
M  V30 25 H -3.4697 0.1215 2.2885 0
M  V30 26 H -4.7214 0.6588 1.124 0
M  V30 27 H -3.7793 -0.7795 -1.3888 0
M  V30 28 H -4.2036 0.969 -1.3086 0
M  V30 29 H -2.6064 0.4551 -1.9714 0
M  V30 END ATOM
M  V30 BEGIN BOND
M  V30 1 1 1 2
M  V30 2 1 1 3
M  V30 3 1 2 4
M  V30 4 2 2 5
M  V30 5 2 3 6
M  V30 6 1 3 7
M  V30 7 1 4 8
M  V30 8 1 6 9
M  V30 9 2 7 10
M  V30 10 1 8 11
M  V30 11 2 9 12
M  V30 12 1 11 13
M  V30 13 1 11 14
M  V30 14 1 11 15
M  V30 15 1 5 6
M  V30 16 1 10 12
M  V30 17 1 7 16
M  V30 18 1 8 17
M  V30 19 1 9 18
M  V30 20 1 10 19
M  V30 21 1 12 20
M  V30 22 1 13 21
M  V30 23 1 13 22
M  V30 24 1 13 23
M  V30 25 1 14 24
M  V30 26 1 14 25
M  V30 27 1 14 26
M  V30 28 1 15 27
M  V30 29 1 15 28
M  V30 30 1 15 29
M  V30 END BOND
M  V30 END CTAB
M  END
>  <Structure No>
1019

>  <LogS>
-5.136722389

>  <MMFF94 Energy>
31.418

$$$$
Compound 1020
Actelion Java MolfileCreator 2.0

  0  0  0  0  0  0              0 V3000
M  V30 BEGIN CTAB
M  V30 COUNTS 42 41 0 0 0
M  V30 BEGIN ATOM
M  V30 1 O 3.6661 -1.4028 0.935 0
M  V30 2 C 3.5097 -0.1572 1.0609 0
M  V30 3 O 2.2896 0.3715 1.4963 0
M  V30 4 C 4.6317 0.7721 0.7149 0
M  V30 5 C 1.1322 -0.4254 1.7379 0
M  V30 6 C 4.3519 1.5327 -0.5868 0
M  V30 7 C 0.4762 -0.8266 0.4068 0
M  V30 8 C 4.3497 0.6131 -1.8076 0
M  V30 9 C -0.7533 -1.7606 0.5477 0 CFG=2
M  V30 10 C -1.8755 -1.2108 1.4668 0
M  V30 11 C -0.3357 -3.1643 1.0116 0
M  V30 12 C -2.4422 0.1543 1.039 0
M  V30 13 C -3.1723 0.0918 -0.2826 0
M  V30 14 C -3.708 1.1777 -0.8797 0
M  V30 15 C -4.4319 1.001 -2.1894 0
M  V30 16 C -3.5945 2.5539 -0.2665 0
M  V30 17 H 4.748 1.5059 1.541 0
M  V30 18 H 5.5871 0.2092 0.6303 0
M  V30 19 H 0.4223 0.1829 2.3345 0
M  V30 20 H 1.4106 -1.3174 2.3374 0
M  V30 21 H 3.3752 2.0609 -0.5186 0
M  V30 22 H 5.1433 2.3007 -0.7255 0
M  V30 23 H 0.1834 0.094 -0.1411 0
M  V30 24 H 1.2321 -1.3308 -0.2332 0
M  V30 25 H 4.2048 1.2189 -2.727 0
M  V30 26 H 5.3185 0.0772 -1.8904 0
M  V30 27 H 3.5234 -0.1266 -1.7401 0
M  V30 28 H -1.1744 -1.8861 -0.4729 0
M  V30 29 H -2.7138 -1.9418 1.4948 0
M  V30 30 H -1.4996 -1.129 2.5095 0
M  V30 31 H -1.1985 -3.86 0.935 0
M  V30 32 H 0.007 -3.1524 2.0672 0
M  V30 33 H 0.4807 -3.5603 0.3704 0
M  V30 34 H -1.6302 0.9086 0.9954 0
M  V30 35 H -3.1598 0.4875 1.8195 0
M  V30 36 H -3.2879 -0.8748 -0.7665 0
M  V30 37 H -5.2802 0.2958 -2.0574 0
M  V30 38 H -4.8362 1.9624 -2.5688 0
M  V30 39 H -3.7347 0.5916 -2.9505 0
M  V30 40 H -4.1168 3.3172 -0.8794 0
M  V30 41 H -4.0491 2.5587 0.747 0
M  V30 42 H -2.5259 2.8467 -0.1934 0
M  V30 END ATOM
M  V30 BEGIN BOND
M  V30 1 2 1 2
M  V30 2 1 2 3
M  V30 3 1 2 4
M  V30 4 1 3 5
M  V30 5 1 4 6
M  V30 6 1 5 7
M  V30 7 1 6 8
M  V30 8 1 7 9
M  V30 9 1 9 10
M  V30 10 1 9 11
M  V30 11 1 10 12
M  V30 12 1 12 13
M  V30 13 2 13 14
M  V30 14 1 14 15
M  V30 15 1 14 16
M  V30 16 1 4 17
M  V30 17 1 4 18
M  V30 18 1 5 19
M  V30 19 1 5 20
M  V30 20 1 6 21
M  V30 21 1 6 22
M  V30 22 1 7 23
M  V30 23 1 7 24
M  V30 24 1 8 25
M  V30 25 1 8 26
M  V30 26 1 8 27
M  V30 27 1 9 28
M  V30 28 1 10 29
M  V30 29 1 10 30
M  V30 30 1 11 31
M  V30 31 1 11 32
M  V30 32 1 11 33
M  V30 33 1 12 34
M  V30 34 1 12 35
M  V30 35 1 13 36
M  V30 36 1 15 37
M  V30 37 1 15 38
M  V30 38 1 15 39
M  V30 39 1 16 40
M  V30 40 1 16 41
M  V30 41 1 16 42
M  V30 END BOND
M  V30 BEGIN COLLECTION
M  V30 MDLV30/STEABS ATOMS=(1 9)
M  V30 END COLLECTION
M  V30 END CTAB
M  END
>  <Structure No>
1020

>  <LogS>
-5.142612081

>  <MMFF94 Energy>
5.0049

$$$$
Compound 1021
Actelion Java MolfileCreator 2.0

  0  0  0  0  0  0              0 V3000
M  V30 BEGIN CTAB
M  V30 COUNTS 37 39 0 0 0
M  V30 BEGIN ATOM
M  V30 1 O 0.2399 -0.0799 -2.0808 0
M  V30 2 C -0.188 0.0974 -0.9079 0
M  V30 3 N 0.7071 0.0027 0.2136 0
M  V30 4 C -1.6307 0.3361 -0.6934 0
M  V30 5 C 2.1373 -0.0856 0.0957 0
M  V30 6 C -2.3446 1.2966 -1.4487 0
M  V30 7 C -2.3149 -0.4372 0.26 0
M  V30 8 C 2.8586 -0.8398 1.032 0
M  V30 9 C 2.8369 0.618 -0.9 0
M  V30 10 O -1.7145 2.1335 -2.3726 0
M  V30 11 C -3.7231 1.4476 -1.2603 0
M  V30 12 C -3.6932 -0.2757 0.4568 0
M  V30 13 C 4.2518 -0.9244 0.9546 0
M  V30 14 C 4.2301 0.5342 -0.9765 0
M  V30 15 C -4.4045 0.6726 -0.3131 0
M  V30 16 C -4.3766 -1.0526 1.406 0
M  V30 17 C 4.949 -0.2372 -0.0567 0
M  V30 18 C -5.7861 0.8304 -0.1193 0
M  V30 19 C -5.7523 -0.8866 1.5899 0
M  V30 20 O 6.3454 -0.2905 -0.1781 0
M  V30 21 C -6.4548 0.0521 0.8297 0
M  V30 22 C 7.1994 -1.0326 0.6862 0
M  V30 23 H 0.297 -0.062 1.1725 0
M  V30 24 H -1.7784 -1.1861 0.8316 0
M  V30 25 H 2.3373 -1.3723 1.8177 0
M  V30 26 H 2.3136 1.2534 -1.6018 0
M  V30 27 H -0.7115 2.1639 -2.499 0
M  V30 28 H -4.2582 2.1846 -1.8481 0
M  V30 29 H 4.7761 -1.5236 1.6862 0
M  V30 30 H 4.7558 1.0798 -1.7499 0
M  V30 31 H -3.8486 -1.7857 2.004 0
M  V30 32 H -6.3468 1.5532 -0.6998 0
M  V30 33 H -6.2752 -1.487 2.323 0
M  V30 34 H -7.5199 0.1765 0.9763 0
M  V30 35 H 6.9473 -2.1129 0.6366 0
M  V30 36 H 8.2509 -0.8978 0.3602 0
M  V30 37 H 7.1004 -0.6642 1.7292 0
M  V30 END ATOM
M  V30 BEGIN BOND
M  V30 1 2 1 2
M  V30 2 1 2 3
M  V30 3 1 2 4
M  V30 4 1 3 5
M  V30 5 1 4 6
M  V30 6 2 4 7
M  V30 7 2 5 8
M  V30 8 1 5 9
M  V30 9 1 6 10
M  V30 10 2 6 11
M  V30 11 1 7 12
M  V30 12 1 8 13
M  V30 13 2 9 14
M  V30 14 1 11 15
M  V30 15 2 12 16
M  V30 16 2 13 17
M  V30 17 2 15 18
M  V30 18 1 16 19
M  V30 19 1 17 20
M  V30 20 1 18 21
M  V30 21 1 20 22
M  V30 22 1 12 15
M  V30 23 1 14 17
M  V30 24 2 19 21
M  V30 25 1 3 23
M  V30 26 1 7 24
M  V30 27 1 8 25
M  V30 28 1 9 26
M  V30 29 1 10 27
M  V30 30 1 11 28
M  V30 31 1 13 29
M  V30 32 1 14 30
M  V30 33 1 16 31
M  V30 34 1 18 32
M  V30 35 1 19 33
M  V30 36 1 21 34
M  V30 37 1 22 35
M  V30 38 1 22 36
M  V30 39 1 22 37
M  V30 END BOND
M  V30 END CTAB
M  END
>  <Structure No>
1021

>  <LogS>
-5.263224655

>  <MMFF94 Energy>
42.301

$$$$
Compound 1022
Actelion Java MolfileCreator 2.0

  0  0  0  0  0  0              0 V3000
M  V30 BEGIN CTAB
M  V30 COUNTS 32 33 0 0 0
M  V30 BEGIN ATOM
M  V30 1 O -2.0074 4.4205 -0.9632 0
M  V30 2 C -1.9925 5.0198 -2.196 0
M  V30 3 C -1.7857 3.0504 -0.7656 0
M  V30 4 N -1.98 5.5266 -3.2364 0
M  V30 5 C -1.8252 2.551 0.5398 0
M  V30 6 C -1.5227 2.1674 -1.829 0
M  V30 7 C -1.6112 1.1927 0.79 0
M  V30 8 C -1.3086 0.8089 -1.5808 0
M  V30 9 C -1.3653 0.2999 -0.2714 0
M  V30 10 C -1.0821 -1.1756 -0.0399 0
M  V30 11 C 0.4001 -1.409 0.1822 0
M  V30 12 C -1.9266 -1.7968 1.0839 0
M  V30 13 C 1.1433 -2.147 -0.7548 0
M  V30 14 C 1.0597 -0.8818 1.3079 0
M  V30 15 C 2.512 -2.3586 -0.5676 0
M  V30 16 C 2.4285 -1.0942 1.4936 0
M  V30 17 C 3.1664 -1.8374 0.5533 0
M  V30 18 O 4.5402 -2.0771 0.6954 0
M  V30 19 C 5.284 -1.616 1.7507 0
M  V30 20 N 5.9124 -1.2272 2.6413 0
M  V30 21 H -2.0189 3.2216 1.3677 0
M  V30 22 H -1.4773 2.5238 -2.8495 0
M  V30 23 H -1.6374 0.8501 1.8145 0
M  V30 24 H -1.0945 0.1515 -2.4147 0
M  V30 25 H -1.3962 -1.7186 -0.9604 0
M  V30 26 H -3.0025 -1.5737 0.9198 0
M  V30 27 H -1.6299 -1.4215 2.0847 0
M  V30 28 H -1.7974 -2.9003 1.0816 0
M  V30 29 H 0.6658 -2.5598 -1.6345 0
M  V30 30 H 0.5183 -0.3044 2.045 0
M  V30 31 H 3.0684 -2.9304 -1.2994 0
M  V30 32 H 2.9058 -0.6763 2.3701 0
M  V30 END ATOM
M  V30 BEGIN BOND
M  V30 1 1 1 2
M  V30 2 1 1 3
M  V30 3 3 2 4
M  V30 4 2 3 5
M  V30 5 1 3 6
M  V30 6 1 5 7
M  V30 7 2 6 8
M  V30 8 2 7 9
M  V30 9 1 9 10
M  V30 10 1 10 11
M  V30 11 1 10 12
M  V30 12 2 11 13
M  V30 13 1 11 14
M  V30 14 1 13 15
M  V30 15 2 14 16
M  V30 16 2 15 17
M  V30 17 1 17 18
M  V30 18 1 18 19
M  V30 19 3 19 20
M  V30 20 1 8 9
M  V30 21 1 16 17
M  V30 22 1 5 21
M  V30 23 1 6 22
M  V30 24 1 7 23
M  V30 25 1 8 24
M  V30 26 1 10 25
M  V30 27 1 12 26
M  V30 28 1 12 27
M  V30 29 1 12 28
M  V30 30 1 13 29
M  V30 31 1 14 30
M  V30 32 1 15 31
M  V30 33 1 16 32
M  V30 END BOND
M  V30 END CTAB
M  END
>  <Structure No>
1022

>  <LogS>
-5.217950889

>  <MMFF94 Energy>
64.979

$$$$
Compound 1023
Actelion Java MolfileCreator 2.0

  0  0  0  0  0  0              0 V3000
M  V30 BEGIN CTAB
M  V30 COUNTS 37 36 0 0 0
M  V30 BEGIN ATOM
M  V30 1 O -4.1219 2.5649 0.0776 0
M  V30 2 C -4.5377 1.7573 -0.7377 0
M  V30 3 C -4.8656 0.3535 -0.3202 0
M  V30 4 C -3.6231 -0.4104 0.1578 0
M  V30 5 C -2.6189 -0.6515 -0.9825 0
M  V30 6 C -1.4543 -1.5616 -0.5622 0
M  V30 7 C -0.4948 -0.8776 0.4231 0
M  V30 8 C 0.7346 -1.758 0.6915 0
M  V30 9 C 1.6309 -1.2116 1.8178 0
M  V30 10 C 2.2262 0.1838 1.5564 0
M  V30 11 C 3.1348 0.2254 0.3191 0
M  V30 12 C 3.8446 1.5794 0.2054 0
M  V30 13 C 4.735 1.633 -1.0325 0
M  V30 14 H -4.6809 2.0626 -1.769 0
M  V30 15 H -5.6098 0.3913 0.504 0
M  V30 16 H -5.3338 -0.1854 -1.172 0
M  V30 17 H -3.142 0.1564 0.9832 0
M  V30 18 H -3.9543 -1.3903 0.5652 0
M  V30 19 H -3.148 -1.1417 -1.8288 0
M  V30 20 H -2.2196 0.3179 -1.3521 0
M  V30 21 H -1.8518 -2.4994 -0.1154 0
M  V30 22 H -0.889 -1.839 -1.4789 0
M  V30 23 H -1.019 -0.6864 1.3835 0
M  V30 24 H -0.1683 0.0925 -0.0081 0
M  V30 25 H 1.3235 -1.8845 -0.2413 0
M  V30 26 H 0.3908 -2.7704 0.998 0
M  V30 27 H 1.0404 -1.1727 2.7592 0
M  V30 28 H 2.462 -1.9302 1.9879 0
M  V30 29 H 2.8243 0.4656 2.4506 0
M  V30 30 H 1.4153 0.9365 1.4591 0
M  V30 31 H 2.5249 0.065 -0.5956 0
M  V30 32 H 3.8947 -0.5835 0.3895 0
M  V30 33 H 4.4727 1.7512 1.1066 0
M  V30 34 H 3.0901 2.3937 0.1413 0
M  V30 35 H 5.5136 0.8424 -0.9822 0
M  V30 36 H 4.1272 1.4917 -1.9516 0
M  V30 37 H 5.2362 2.6222 -1.0873 0
M  V30 END ATOM
M  V30 BEGIN BOND
M  V30 1 2 1 2
M  V30 2 1 2 3
M  V30 3 1 3 4
M  V30 4 1 4 5
M  V30 5 1 5 6
M  V30 6 1 6 7
M  V30 7 1 7 8
M  V30 8 1 8 9
M  V30 9 1 9 10
M  V30 10 1 10 11
M  V30 11 1 11 12
M  V30 12 1 12 13
M  V30 13 1 2 14
M  V30 14 1 3 15
M  V30 15 1 3 16
M  V30 16 1 4 17
M  V30 17 1 4 18
M  V30 18 1 5 19
M  V30 19 1 5 20
M  V30 20 1 6 21
M  V30 21 1 6 22
M  V30 22 1 7 23
M  V30 23 1 7 24
M  V30 24 1 8 25
M  V30 25 1 8 26
M  V30 26 1 9 27
M  V30 27 1 9 28
M  V30 28 1 10 29
M  V30 29 1 10 30
M  V30 30 1 11 31
M  V30 31 1 11 32
M  V30 32 1 12 33
M  V30 33 1 12 34
M  V30 34 1 13 35
M  V30 35 1 13 36
M  V30 36 1 13 37
M  V30 END BOND
M  V30 END CTAB
M  END
>  <Structure No>
1023

>  <LogS>
-5.061459548

>  <MMFF94 Energy>
-3.2452

$$$$
Compound 1024
Actelion Java MolfileCreator 2.0

  0  0  0  0  0  0              0 V3000
M  V30 BEGIN CTAB
M  V30 COUNTS 32 34 0 0 0
M  V30 BEGIN ATOM
M  V30 1 N -0.7967 0.9562 -0.717 0
M  V30 2 C 0.5572 1.0767 -0.2579 0
M  V30 3 C -1.5511 -0.3018 -0.5923 0
M  V30 4 C 1.3054 -0.0753 0.0224 0
M  V30 5 C 1.1446 2.3405 -0.1033 0
M  V30 6 N -0.6312 -1.45 -0.6077 0
M  V30 7 C -2.3219 -0.3234 0.7519 0
M  V30 8 C -2.5077 -0.4348 -1.7907 0
M  V30 9 C 0.7274 -1.3402 -0.1578 0
M  V30 10 C 2.645 0.0376 0.4638 0
M  V30 11 C 2.4656 2.4543 0.3404 0
M  V30 12 C -3.2879 0.848 0.9526 0
M  V30 13 C 1.4859 -2.4917 0.0971 0
M  V30 14 C 3.2154 1.3091 0.6251 0
M  V30 15 C 3.3875 -1.1234 0.725 0
M  V30 16 C 2.8076 -2.3819 0.5397 0
M  V30 17 H -1.3037 1.8228 -1.0104 0
M  V30 18 H 0.5773 3.2366 -0.3214 0
M  V30 19 H -1.0308 -2.4051 -0.7588 0
M  V30 20 H -2.8945 -1.2731 0.8363 0
M  V30 21 H -1.5872 -0.3092 1.587 0
M  V30 22 H -3.1525 -1.3329 -1.6795 0
M  V30 23 H -3.1555 0.4606 -1.8917 0
M  V30 24 H -1.9225 -0.5368 -2.7297 0
M  V30 25 H 2.9105 3.4336 0.4617 0
M  V30 26 H -2.7511 1.818 0.9055 0
M  V30 27 H -4.0979 0.83 0.1951 0
M  V30 28 H -3.7579 0.7648 1.9552 0
M  V30 29 H 1.0514 -3.4736 -0.0416 0
M  V30 30 H 4.239 1.4168 0.9635 0
M  V30 31 H 4.4143 -1.0579 1.0648 0
M  V30 32 H 3.3851 -3.2756 0.7384 0
M  V30 END ATOM
M  V30 BEGIN BOND
M  V30 1 1 1 2
M  V30 2 1 1 3
M  V30 3 1 2 4
M  V30 4 2 2 5
M  V30 5 1 3 6
M  V30 6 1 3 7
M  V30 7 1 3 8
M  V30 8 2 4 9
M  V30 9 1 4 10
M  V30 10 1 5 11
M  V30 11 1 7 12
M  V30 12 1 9 13
M  V30 13 1 10 14
M  V30 14 2 10 15
M  V30 15 2 13 16
M  V30 16 1 6 9
M  V30 17 2 11 14
M  V30 18 1 15 16
M  V30 19 1 1 17
M  V30 20 1 5 18
M  V30 21 1 6 19
M  V30 22 1 7 20
M  V30 23 1 7 21
M  V30 24 1 8 22
M  V30 25 1 8 23
M  V30 26 1 8 24
M  V30 27 1 11 25
M  V30 28 1 12 26
M  V30 29 1 12 27
M  V30 30 1 12 28
M  V30 31 1 13 29
M  V30 32 1 14 30
M  V30 33 1 15 31
M  V30 34 1 16 32
M  V30 END BOND
M  V30 END CTAB
M  END
>  <Structure No>
1024

>  <LogS>
-3.247760565

>  <MMFF94 Energy>
4.2689

$$$$
Compound 1025
Actelion Java MolfileCreator 2.0

  0  0  0  0  0  0              0 V3000
M  V30 BEGIN CTAB
M  V30 COUNTS 70 69 0 0 0
M  V30 BEGIN ATOM
M  V30 1 O -5.1096 0.8632 -2.1985 0
M  V30 2 C -5.1457 0.6417 -0.9577 0
M  V30 3 O -3.9665 0.6313 -0.2 0
M  V30 4 C -6.464 0.3342 -0.295 0 CFG=2
M  V30 5 C -2.6678 0.7674 -0.7733 0
M  V30 6 C -6.6391 1.2506 0.9429 0
M  V30 7 C -6.5372 -1.1657 0.0747 0
M  V30 8 C -2.2016 -0.5711 -1.3515 0
M  V30 9 C -7.9992 1.1416 1.666 0
M  V30 10 C -6.4565 -2.0773 -1.1532 0
M  V30 11 O -0.976 -0.4162 -2.043 0
M  V30 12 C -9.2347 1.3728 0.7792 0
M  V30 13 C 0.1335 -0.6135 -1.186 0
M  V30 14 C -9.2638 2.7651 0.1494 0
M  V30 15 C 0.5515 -2.0916 -1.1666 0
M  V30 16 O 1.8878 -2.2457 -0.7277 0
M  V30 17 C 1.96 -2.2113 0.6844 0
M  V30 18 C 3.3874 -2.5042 1.1283 0
M  V30 19 O 4.2938 -1.6094 0.4884 0
M  V30 20 C 5.6545 -1.5604 0.807 0
M  V30 21 O 6.1046 -2.2127 1.7907 0
M  V30 22 C 6.5684 -0.6715 0.003 0 CFG=1
M  V30 23 C 6.7236 0.6801 0.7356 0
M  V30 24 C 7.9332 -1.3538 -0.2642 0
M  V30 25 C 7.4498 1.7411 -0.1142 0
M  V30 26 C 7.7942 -2.6488 -1.0681 0
M  V30 27 C 7.2766 3.164 0.4416 0
M  V30 28 C 7.9715 3.3626 1.7892 0
M  V30 29 H -7.2723 0.5627 -1.0247 0
M  V30 30 H -1.9674 1.0864 0.0275 0
M  V30 31 H -2.6686 1.5542 -1.5594 0
M  V30 32 H -6.4833 2.3104 0.6381 0
M  V30 33 H -5.8438 1.0147 1.6849 0
M  V30 34 H -5.7182 -1.4256 0.7827 0
M  V30 35 H -7.5021 -1.3845 0.5772 0
M  V30 36 H -2.9579 -0.9237 -2.0838 0
M  V30 37 H -2.1596 -1.3468 -0.5506 0
M  V30 38 H -8.015 1.8866 2.4922 0
M  V30 39 H -8.0858 0.1454 2.1489 0
M  V30 40 H -5.481 -1.9582 -1.6733 0
M  V30 41 H -6.5538 -3.1373 -0.8351 0
M  V30 42 H -7.2787 -1.8445 -1.8642 0
M  V30 43 H -9.303 0.5972 -0.012 0
M  V30 44 H -10.139 1.2622 1.4158 0
M  V30 45 H 0.9782 -0.015 -1.5902 0
M  V30 46 H -0.0504 -0.246 -0.1517 0
M  V30 47 H -10.2144 2.8925 -0.4071 0
M  V30 48 H -9.2014 3.5506 0.9341 0
M  V30 49 H -8.4287 2.8925 -0.5711 0
M  V30 50 H 0.4962 -2.4816 -2.2053 0
M  V30 51 H -0.1648 -2.6989 -0.5687 0
M  V30 52 H 1.2989 -2.9805 1.142 0
M  V30 53 H 1.6769 -1.208 1.0686 0
M  V30 54 H 3.6525 -3.5511 0.8626 0
M  V30 55 H 3.4529 -2.3846 2.2325 0
M  V30 56 H 6.0743 -0.4804 -0.9772 0
M  V30 57 H 5.7068 1.0638 0.9854 0
M  V30 58 H 7.2746 0.5267 1.691 0
M  V30 59 H 8.5844 -0.6746 -0.8516 0
M  V30 60 H 8.4515 -1.5691 0.6966 0
M  V30 61 H 7.0421 1.731 -1.1494 0
M  V30 62 H 8.5352 1.508 -0.171 0
M  V30 63 H 7.2729 -2.4481 -2.0293 0
M  V30 64 H 7.2277 -3.4131 -0.4934 0
M  V30 65 H 8.8027 -3.0591 -1.2876 0
M  V30 66 H 7.7105 3.8827 -0.2858 0
M  V30 67 H 6.1977 3.4068 0.5479 0
M  V30 68 H 7.4483 2.7892 2.5876 0
M  V30 69 H 7.9403 4.4399 2.0596 0
M  V30 70 H 9.0334 3.0413 1.7343 0
M  V30 END ATOM
M  V30 BEGIN BOND
M  V30 1 2 1 2
M  V30 2 1 2 3
M  V30 3 1 2 4
M  V30 4 1 3 5
M  V30 5 1 4 6
M  V30 6 1 4 7
M  V30 7 1 5 8
M  V30 8 1 6 9
M  V30 9 1 7 10
M  V30 10 1 8 11
M  V30 11 1 9 12
M  V30 12 1 11 13
M  V30 13 1 12 14
M  V30 14 1 13 15
M  V30 15 1 15 16
M  V30 16 1 16 17
M  V30 17 1 17 18
M  V30 18 1 18 19
M  V30 19 1 19 20
M  V30 20 2 20 21
M  V30 21 1 20 22
M  V30 22 1 22 23
M  V30 23 1 22 24
M  V30 24 1 23 25
M  V30 25 1 24 26
M  V30 26 1 25 27
M  V30 27 1 27 28
M  V30 28 1 4 29
M  V30 29 1 5 30
M  V30 30 1 5 31
M  V30 31 1 6 32
M  V30 32 1 6 33
M  V30 33 1 7 34
M  V30 34 1 7 35
M  V30 35 1 8 36
M  V30 36 1 8 37
M  V30 37 1 9 38
M  V30 38 1 9 39
M  V30 39 1 10 40
M  V30 40 1 10 41
M  V30 41 1 10 42
M  V30 42 1 12 43
M  V30 43 1 12 44
M  V30 44 1 13 45
M  V30 45 1 13 46
M  V30 46 1 14 47
M  V30 47 1 14 48
M  V30 48 1 14 49
M  V30 49 1 15 50
M  V30 50 1 15 51
M  V30 51 1 17 52
M  V30 52 1 17 53
M  V30 53 1 18 54
M  V30 54 1 18 55
M  V30 55 1 22 56
M  V30 56 1 23 57
M  V30 57 1 23 58
M  V30 58 1 24 59
M  V30 59 1 24 60
M  V30 60 1 25 61
M  V30 61 1 25 62
M  V30 62 1 26 63
M  V30 63 1 26 64
M  V30 64 1 26 65
M  V30 65 1 27 66
M  V30 66 1 27 67
M  V30 67 1 28 68
M  V30 68 1 28 69
M  V30 69 1 28 70
M  V30 END BOND
M  V30 BEGIN COLLECTION
M  V30 MDLV30/STEABS ATOMS=(2 4 22)
M  V30 END COLLECTION
M  V30 END CTAB
M  END
>  <Structure No>
1025

>  <LogS>
-5.420152134

>  <MMFF94 Energy>
36.856

$$$$
Compound 1026
Actelion Java MolfileCreator 2.0

  0  0  0  0  0  0              0 V3000
M  V30 BEGIN CTAB
M  V30 COUNTS 62 64 0 0 0
M  V30 BEGIN ATOM
M  V30 1 O -4.1572 3.2767 -0.6387 0
M  V30 2 C -4.3663 2.0983 -0.2391 0
M  V30 3 C -3.1891 1.2501 0.0604 0
M  V30 4 C -5.8118 1.6359 -0.0762 0
M  V30 5 C -3.0684 -0.0534 -0.4592 0
M  V30 6 C -2.1442 1.7766 0.8483 0
M  V30 7 O -6.5945 2.7227 0.3612 0
M  V30 8 C -5.9581 0.487 0.9459 0
M  V30 9 C -6.365 1.1924 -1.4378 0
M  V30 10 C -1.9295 -0.8113 -0.1587 0
M  V30 11 C -1.0154 1.0018 1.1434 0
M  V30 12 C -0.9285 -0.2968 0.6303 0
M  V30 13 C -1.6464 -2.213 -0.5951 0
M  V30 14 C 0.1883 -1.27 0.852 0 CFG=1
M  V30 15 C -0.2144 -2.4843 -0.0412 0
M  V30 16 C -2.6715 -3.1765 0.0312 0
M  V30 17 C -1.6775 -2.3239 -2.1312 0
M  V30 18 C 1.5279 -0.673 0.3856 0
M  V30 19 C 0.1735 -1.6792 2.3436 0
M  V30 20 C 1.5995 -0.009 -0.8567 0
M  V30 21 C 2.7222 -0.8285 1.1202 0
M  V30 22 C 2.8048 0.519 -1.3231 0
M  V30 23 C 3.9276 -0.298 0.652 0
M  V30 24 C 3.9817 0.396 -0.5684 0
M  V30 25 C 5.2519 0.9649 -1.097 0
M  V30 26 O 5.4035 1.0219 -2.3492 0
M  V30 27 C 6.389 1.4524 -0.2023 0
M  V30 28 O 5.9154 1.7968 1.0783 0
M  V30 29 C 7.0709 2.6901 -0.8227 0
M  V30 30 C 7.4293 0.3327 -0.0537 0
M  V30 31 H -3.8329 -0.4726 -1.095 0
M  V30 32 H -2.2119 2.7816 1.2466 0
M  V30 33 H -6.2417 3.0184 1.2423 0
M  V30 34 H -5.5324 -0.4632 0.5651 0
M  V30 35 H -7.0332 0.3081 1.1632 0
M  V30 36 H -5.4521 0.7493 1.9001 0
M  V30 37 H -6.2804 2.0188 -2.1763 0
M  V30 38 H -7.4393 0.9234 -1.3449 0
M  V30 39 H -5.8216 0.3114 -1.8335 0
M  V30 40 H -0.2221 1.4058 1.7591 0
M  V30 41 H 0.5096 -2.6124 -0.8773 0
M  V30 42 H -0.172 -3.4421 0.5245 0
M  V30 43 H -2.4312 -4.2262 -0.2423 0
M  V30 44 H -2.6633 -3.0911 1.1395 0
M  V30 45 H -3.6976 -2.9477 -0.3291 0
M  V30 46 H -1.3719 -3.3441 -2.4481 0
M  V30 47 H -0.9814 -1.589 -2.5907 0
M  V30 48 H -2.6991 -2.1302 -2.5219 0
M  V30 49 H -0.8467 -1.9945 2.6539 0
M  V30 50 H 0.4826 -0.8276 2.9875 0
M  V30 51 H 0.8533 -2.5382 2.5264 0
M  V30 52 H 0.7161 0.1005 -1.4729 0
M  V30 53 H 2.7442 -1.3617 2.059 0
M  V30 54 H 2.8135 1.0339 -2.276 0
M  V30 55 H 4.8166 -0.4549 1.2451 0
M  V30 56 H 5.2313 2.5091 0.9678 0
M  V30 57 H 6.3263 3.4975 -0.9929 0
M  V30 58 H 7.8552 3.0798 -0.1385 0
M  V30 59 H 7.5481 2.4404 -1.7951 0
M  V30 60 H 7.8543 0.057 -1.0432 0
M  V30 61 H 8.2591 0.6632 0.6075 0
M  V30 62 H 6.975 -0.5755 0.3933 0
M  V30 END ATOM
M  V30 BEGIN BOND
M  V30 1 2 1 2
M  V30 2 1 2 3
M  V30 3 1 2 4
M  V30 4 2 3 5
M  V30 5 1 3 6
M  V30 6 1 4 7
M  V30 7 1 4 8
M  V30 8 1 4 9
M  V30 9 1 5 10
M  V30 10 2 6 11
M  V30 11 2 10 12
M  V30 12 1 10 13
M  V30 13 1 12 14
M  V30 14 1 13 15
M  V30 15 1 13 16
M  V30 16 1 13 17
M  V30 17 1 14 18
M  V30 18 1 14 19
M  V30 19 2 18 20
M  V30 20 1 18 21
M  V30 21 1 20 22
M  V30 22 2 21 23
M  V30 23 2 22 24
M  V30 24 1 24 25
M  V30 25 2 25 26
M  V30 26 1 25 27
M  V30 27 1 27 28
M  V30 28 1 27 29
M  V30 29 1 27 30
M  V30 30 1 11 12
M  V30 31 1 14 15
M  V30 32 1 23 24
M  V30 33 1 5 31
M  V30 34 1 6 32
M  V30 35 1 7 33
M  V30 36 1 8 34
M  V30 37 1 8 35
M  V30 38 1 8 36
M  V30 39 1 9 37
M  V30 40 1 9 38
M  V30 41 1 9 39
M  V30 42 1 11 40
M  V30 43 1 15 41
M  V30 44 1 15 42
M  V30 45 1 16 43
M  V30 46 1 16 44
M  V30 47 1 16 45
M  V30 48 1 17 46
M  V30 49 1 17 47
M  V30 50 1 17 48
M  V30 51 1 19 49
M  V30 52 1 19 50
M  V30 53 1 19 51
M  V30 54 1 20 52
M  V30 55 1 21 53
M  V30 56 1 22 54
M  V30 57 1 23 55
M  V30 58 1 28 56
M  V30 59 1 29 57
M  V30 60 1 29 58
M  V30 61 1 29 59
M  V30 62 1 30 60
M  V30 63 1 30 61
M  V30 64 1 30 62
M  V30 END BOND
M  V30 BEGIN COLLECTION
M  V30 MDLV30/STEABS ATOMS=(1 14)
M  V30 END COLLECTION
M  V30 END CTAB
M  END
>  <Structure No>
1026

>  <LogS>
-5.827328879

>  <MMFF94 Energy>
178.74

$$$$
Compound 1027
Actelion Java MolfileCreator 2.0

  0  0  0  0  0  0              0 V3000
M  V30 BEGIN CTAB
M  V30 COUNTS 50 56 0 0 0
M  V30 BEGIN ATOM
M  V30 1 O 4.6275 -1.8986 1.6508 0
M  V30 2 C 4.9499 -1.2469 0.6209 0
M  V30 3 C 3.9445 -0.4015 -0.0928 0
M  V30 4 C 6.3594 -1.2815 0.1654 0
M  V30 5 C 2.5496 -0.4663 0.1944 0
M  V30 6 C 4.4109 0.5311 -1.0497 0
M  V30 7 C 6.7984 -0.3891 -0.832 0
M  V30 8 C 7.2741 -2.1884 0.7332 0
M  V30 9 N 2.0422 -1.4317 1.1249 0
M  V30 10 C 1.6561 0.435 -0.4391 0
M  V30 11 C 5.8458 0.5729 -1.4247 0
M  V30 12 C 3.5119 1.4252 -1.6465 0
M  V30 13 C 8.1428 -0.4181 -1.2472 0
M  V30 14 C 8.605 -2.2088 0.3107 0
M  V30 15 C 0.1873 0.3849 -0.2385 0
M  V30 16 C 2.159 1.3873 -1.3329 0
M  V30 17 O 6.255 1.4255 -2.2606 0
M  V30 18 C 9.0385 -1.3253 -0.6775 0
M  V30 19 O -0.602 1.4309 -0.4333 0
M  V30 20 N -0.4955 -0.7355 0.1227 0
M  V30 21 C -1.8149 1.0141 -0.1919 0
M  V30 22 C -1.7655 -0.299 0.1474 0
M  V30 23 C -3.008 1.7231 -0.2506 0
M  V30 24 C -2.9109 -1.0226 0.459 0
M  V30 25 C -4.2043 1.0324 0.0589 0
M  V30 26 C -4.1556 -0.3483 0.4158 0
M  V30 27 C -5.5073 1.7347 0.0142 0
M  V30 28 C -5.4085 -1.0686 0.7388 0
M  V30 29 O -5.5527 2.9558 -0.301 0
M  V30 30 C -6.7574 1.0074 0.3387 0
M  V30 31 O -5.368 -2.2897 1.0547 0
M  V30 32 C -6.7092 -0.3594 0.692 0
M  V30 33 C -7.9994 1.6682 0.2984 0
M  V30 34 C -7.9041 -1.0373 0.9978 0
M  V30 35 C -9.1763 0.9817 0.6044 0
M  V30 36 C -9.1287 -0.3678 0.9532 0
M  V30 37 H 6.9608 -2.8842 1.5017 0
M  V30 38 H 1.3165 -1.1687 1.8279 0
M  V30 39 H 2.3427 -2.43 1.0778 0
M  V30 40 H 3.8538 2.1565 -2.3685 0
M  V30 41 H 8.5017 0.2588 -2.0122 0
M  V30 42 H 9.3015 -2.9106 0.7511 0
M  V30 43 H 1.4929 2.084 -1.8279 0
M  V30 44 H 10.0707 -1.3426 -1.0027 0
M  V30 45 H -3.0053 2.7702 -0.5262 0
M  V30 46 H -2.8369 -2.0695 0.725 0
M  V30 47 H -8.0619 2.7155 0.0304 0
M  V30 48 H -7.8927 -2.0849 1.2713 0
M  V30 49 H -10.1273 1.4976 0.5709 0
M  V30 50 H -10.043 -0.8968 1.1898 0
M  V30 END ATOM
M  V30 BEGIN BOND
M  V30 1 2 1 2
M  V30 2 1 2 3
M  V30 3 1 2 4
M  V30 4 2 3 5
M  V30 5 1 3 6
M  V30 6 2 4 7
M  V30 7 1 4 8
M  V30 8 1 5 9
M  V30 9 1 5 10
M  V30 10 1 6 11
M  V30 11 2 6 12
M  V30 12 1 7 13
M  V30 13 2 8 14
M  V30 14 1 10 15
M  V30 15 2 10 16
M  V30 16 2 11 17
M  V30 17 2 13 18
M  V30 18 1 15 19
M  V30 19 2 15 20
M  V30 20 1 19 21
M  V30 21 1 20 22
M  V30 22 1 21 23
M  V30 23 1 22 24
M  V30 24 2 23 25
M  V30 25 2 24 26
M  V30 26 1 25 27
M  V30 27 1 26 28
M  V30 28 2 27 29
M  V30 29 1 27 30
M  V30 30 2 28 31
M  V30 31 1 28 32
M  V30 32 1 30 33
M  V30 33 1 32 34
M  V30 34 2 33 35
M  V30 35 2 34 36
M  V30 36 1 7 11
M  V30 37 1 12 16
M  V30 38 1 14 18
M  V30 39 2 21 22
M  V30 40 1 25 26
M  V30 41 2 30 32
M  V30 42 1 35 36
M  V30 43 1 8 37
M  V30 44 1 9 38
M  V30 45 1 9 39
M  V30 46 1 12 40
M  V30 47 1 13 41
M  V30 48 1 14 42
M  V30 49 1 16 43
M  V30 50 1 18 44
M  V30 51 1 23 45
M  V30 52 1 24 46
M  V30 53 1 33 47
M  V30 54 1 34 48
M  V30 55 1 35 49
M  V30 56 1 36 50
M  V30 END BOND
M  V30 END CTAB
M  END
>  <Structure No>
1027

>  <LogS>
-5.496412982

>  <MMFF94 Energy>
145.35

$$$$
Compound 1028
Actelion Java MolfileCreator 2.0

  0  0  0  0  0  0              0 V3000
M  V30 BEGIN CTAB
M  V30 COUNTS 40 42 0 0 0
M  V30 BEGIN ATOM
M  V30 1 O 0.3992 -1.9972 0.7186 0
M  V30 2 C 0.8406 -0.9276 0.2178 0
M  V30 3 N -0.0589 0.1443 -0.1141 0
M  V30 4 C 2.2982 -0.7612 0.0389 0
M  V30 5 C -1.4916 0.023 -0.1067 0
M  V30 6 C 3.0891 -1.7597 -0.5773 0
M  V30 7 C 2.9159 0.403 0.527 0
M  V30 8 C -2.2728 1.1289 0.2573 0
M  V30 9 C -2.1307 -1.1599 -0.5165 0
M  V30 10 O 2.5304 -2.9143 -1.1301 0
M  V30 11 C 4.4753 -1.5925 -0.67 0
M  V30 12 C 4.3029 0.5749 0.4217 0
M  V30 13 C -3.6684 1.0461 0.2514 0
M  V30 14 C -3.5262 -1.2422 -0.5233 0
M  V30 15 C 5.0902 -0.4338 -0.1788 0
M  V30 16 C 4.9196 1.7362 0.9144 0
M  V30 17 C -4.3062 -0.1466 -0.1375 0
M  V30 18 C 6.4801 -0.2632 -0.2793 0
M  V30 19 C 6.3042 1.8944 0.8086 0
M  V30 20 O -5.7023 -0.2814 -0.1596 0
M  V30 21 C 7.082 0.8979 0.2135 0
M  V30 22 C -6.6167 0.749 0.2049 0
M  V30 23 C -8.0412 0.2386 0.059 0
M  V30 24 H 0.3445 1.0858 -0.3201 0
M  V30 25 H 2.3191 1.1656 1.0148 0
M  V30 26 H -1.7975 2.0546 0.5569 0
M  V30 27 H -1.5567 -2.0111 -0.8569 0
M  V30 28 H 1.5333 -3.0695 -1.1986 0
M  V30 29 H 5.0696 -2.3667 -1.1414 0
M  V30 30 H -4.2404 1.9144 0.5484 0
M  V30 31 H -4.0051 -2.1604 -0.8393 0
M  V30 32 H 4.3325 2.5192 1.3796 0
M  V30 33 H 7.0987 -1.0257 -0.7375 0
M  V30 34 H 6.7757 2.7914 1.189 0
M  V30 35 H 8.1538 1.0256 0.1343 0
M  V30 36 H -6.4445 1.0491 1.2613 0
M  V30 37 H -6.4763 1.6295 -0.4587 0
M  V30 38 H -8.1995 -0.6385 0.7214 0
M  V30 39 H -8.2312 -0.0598 -0.9935 0
M  V30 40 H -8.7573 1.0387 0.3422 0
M  V30 END ATOM
M  V30 BEGIN BOND
M  V30 1 2 1 2
M  V30 2 1 2 3
M  V30 3 1 2 4
M  V30 4 1 3 5
M  V30 5 1 4 6
M  V30 6 2 4 7
M  V30 7 2 5 8
M  V30 8 1 5 9
M  V30 9 1 6 10
M  V30 10 2 6 11
M  V30 11 1 7 12
M  V30 12 1 8 13
M  V30 13 2 9 14
M  V30 14 1 11 15
M  V30 15 2 12 16
M  V30 16 2 13 17
M  V30 17 2 15 18
M  V30 18 1 16 19
M  V30 19 1 17 20
M  V30 20 1 18 21
M  V30 21 1 20 22
M  V30 22 1 22 23
M  V30 23 1 12 15
M  V30 24 1 14 17
M  V30 25 2 19 21
M  V30 26 1 3 24
M  V30 27 1 7 25
M  V30 28 1 8 26
M  V30 29 1 9 27
M  V30 30 1 10 28
M  V30 31 1 11 29
M  V30 32 1 13 30
M  V30 33 1 14 31
M  V30 34 1 16 32
M  V30 35 1 18 33
M  V30 36 1 19 34
M  V30 37 1 21 35
M  V30 38 1 22 36
M  V30 39 1 22 37
M  V30 40 1 23 38
M  V30 41 1 23 39
M  V30 42 1 23 40
M  V30 END BOND
M  V30 END CTAB
M  END
>  <Structure No>
1028

>  <LogS>
-5.311540545

>  <MMFF94 Energy>
42.186

$$$$
Compound 1029
Actelion Java MolfileCreator 2.0

  0  0  0  0  0  0              0 V3000
M  V30 BEGIN CTAB
M  V30 COUNTS 41 43 0 0 0
M  V30 BEGIN ATOM
M  V30 1 Cl 1.8624 5.1078 -1.7004 0
M  V30 2 C 1.9626 3.3535 -1.6644 0
M  V30 3 C 2.9856 2.6867 -2.351 0
M  V30 4 C 1.0029 2.6309 -0.9515 0
M  V30 5 O 3.9325 3.4486 -3.0546 0
M  V30 6 C 3.0306 1.28 -2.3186 0
M  V30 7 C 1.056 1.2288 -0.8995 0
M  V30 8 C 5.0204 2.9038 -3.7941 0
M  V30 9 C 2.0664 0.5459 -1.5998 0
M  V30 10 N 0.0529 0.4819 -0.189 0
M  V30 11 O 2.087 -0.8578 -1.5502 0
M  V30 12 C -0.4543 0.859 1.1044 0
M  V30 13 C 3.0492 -1.6774 -2.2057 0
M  V30 14 O 0.0309 1.8551 1.707 0
M  V30 15 C -1.5295 0.0731 1.7556 0
M  V30 16 C -2.524 0.7143 2.5242 0
M  V30 17 C -1.5537 -1.3276 1.63 0
M  V30 18 O -2.5241 2.1034 2.6568 0
M  V30 19 C -3.5279 -0.0405 3.1473 0
M  V30 20 C -2.5585 -2.084 2.25 0
M  V30 21 C -3.5551 -1.4344 3.0147 0
M  V30 22 C -2.5821 -3.4824 2.1236 0
M  V30 23 C -4.5596 -2.1933 3.6362 0
M  V30 24 C -3.5875 -4.2269 2.7472 0
M  V30 25 C -4.5734 -3.5844 3.5007 0
M  V30 26 H 0.2007 3.1654 -0.4591 0
M  V30 27 H 3.8123 0.7588 -2.8503 0
M  V30 28 H 5.687 2.3237 -3.1213 0
M  V30 29 H 5.6044 3.733 -4.2431 0
M  V30 30 H 4.6402 2.2543 -4.6105 0
M  V30 31 H -0.2883 -0.4023 -0.6268 0
M  V30 32 H 2.8206 -2.7423 -1.9957 0
M  V30 33 H 4.0673 -1.4509 -1.8244 0
M  V30 34 H 3.0054 -1.5145 -3.3033 0
M  V30 35 H -0.776 -1.836 1.073 0
M  V30 36 H -3.2304 2.5868 3.1995 0
M  V30 37 H -4.2881 0.4646 3.7321 0
M  V30 38 H -1.826 -3.9979 1.5434 0
M  V30 39 H -5.3312 -1.712 4.2256 0
M  V30 40 H -3.6024 -5.3044 2.6463 0
M  V30 41 H -5.3494 -4.1658 3.9816 0
M  V30 END ATOM
M  V30 BEGIN BOND
M  V30 1 1 1 2
M  V30 2 2 2 3
M  V30 3 1 2 4
M  V30 4 1 3 5
M  V30 5 1 3 6
M  V30 6 2 4 7
M  V30 7 1 5 8
M  V30 8 2 6 9
M  V30 9 1 7 10
M  V30 10 1 9 11
M  V30 11 1 10 12
M  V30 12 1 11 13
M  V30 13 2 12 14
M  V30 14 1 12 15
M  V30 15 1 15 16
M  V30 16 2 15 17
M  V30 17 1 16 18
M  V30 18 2 16 19
M  V30 19 1 17 20
M  V30 20 1 19 21
M  V30 21 2 20 22
M  V30 22 2 21 23
M  V30 23 1 22 24
M  V30 24 1 23 25
M  V30 25 1 7 9
M  V30 26 1 20 21
M  V30 27 2 24 25
M  V30 28 1 4 26
M  V30 29 1 6 27
M  V30 30 1 8 28
M  V30 31 1 8 29
M  V30 32 1 8 30
M  V30 33 1 10 31
M  V30 34 1 13 32
M  V30 35 1 13 33
M  V30 36 1 13 34
M  V30 37 1 17 35
M  V30 38 1 18 36
M  V30 39 1 19 37
M  V30 40 1 22 38
M  V30 41 1 23 39
M  V30 42 1 24 40
M  V30 43 1 25 41
M  V30 END BOND
M  V30 END CTAB
M  END
>  <Structure No>
1029

>  <LogS>
-5.377540581

>  <MMFF94 Energy>
69.348

$$$$
Compound 1030
Actelion Java MolfileCreator 2.0

  0  0  0  0  0  0              0 V3000
M  V30 BEGIN CTAB
M  V30 COUNTS 74 82 0 0 0
M  V30 BEGIN ATOM
M  V30 1 O 4.5757 1.0608 0.5711 0
M  V30 2 C 3.9128 -0.0126 0.5296 0
M  V30 3 C 4.5773 -1.2644 0.5293 0
M  V30 4 C 2.5053 0.0571 0.4658 0
M  V30 5 C 5.9978 -1.3756 0.6178 0
M  V30 6 C 3.803 -2.4518 0.4095 0
M  V30 7 C 1.7299 -1.1391 0.3736 0
M  V30 8 C 1.8576 1.3232 0.49 0
M  V30 9 N 6.8351 -0.229 0.8351 0
M  V30 10 C 6.604 -2.6382 0.5662 0
M  V30 11 C 2.3948 -2.3862 0.3364 0
M  V30 12 C 4.4532 -3.7025 0.3606 0
M  V30 13 C 0.316 -0.9925 0.3158 0
M  V30 14 C 0.4658 1.426 0.4293 0
M  V30 15 C 7.9158 0.1153 -0.0487 0
M  V30 16 C 5.8386 -3.7892 0.4326 0
M  V30 17 O 1.7387 -3.4574 0.2352 0
M  V30 18 N -0.6434 -1.9517 0.2336 0
M  V30 19 C -0.2699 0.254 0.3438 0
M  V30 20 O 8.1782 -0.6286 -1.0336 0
M  V30 21 C 8.7325 1.3321 0.1756 0
M  V30 22 C -1.8373 -1.2992 0.2104 0
M  V30 23 C -1.6278 0.0583 0.2738 0
M  V30 24 C 10.0502 1.3931 -0.3157 0
M  V30 25 C 8.207 2.4496 0.8528 0
M  V30 26 C -3.1521 -1.8352 0.1323 0
M  V30 27 C -2.6614 0.9762 0.2779 0
M  V30 28 C 10.8295 2.5369 -0.1165 0
M  V30 29 C 8.9907 3.5914 1.048 0
M  V30 30 C -3.4197 -3.2268 0.0764 0
M  V30 31 C -4.2468 -0.9035 0.1098 0
M  V30 32 C -3.9806 0.5068 0.1997 0
M  V30 33 C 10.3009 3.6339 0.5669 0
M  V30 34 O -2.48 -4.0645 0.1191 0
M  V30 35 C -4.7417 -3.6991 -0.0238 0
M  V30 36 C -5.5706 -1.4003 -0.0267 0
M  V30 37 N -5.0405 1.4712 0.2931 0
M  V30 38 C -5.8182 -2.7845 -0.0813 0
M  V30 39 C -5.0115 -5.0844 -0.0768 0
M  V30 40 O -6.547 -0.6057 -0.1191 0
M  V30 41 C -5.1737 2.5622 -0.6337 0
M  V30 42 C -7.1367 -3.2777 -0.1951 0
M  V30 43 C -6.3215 -5.5511 -0.1868 0
M  V30 44 O -4.3245 2.7052 -1.5556 0
M  V30 45 C -6.2941 3.527 -0.526 0
M  V30 46 C -7.3814 -4.6502 -0.2465 0
M  V30 47 C -7.5225 3.1575 0.0552 0
M  V30 48 C -6.1475 4.8321 -1.0322 0
M  V30 49 C -8.5694 4.0804 0.1442 0
M  V30 50 C -7.1973 5.751 -0.9391 0
M  V30 51 C -8.4061 5.3765 -0.3492 0
M  V30 52 H 2.4286 2.2411 0.5581 0
M  V30 53 H 6.6749 0.3276 1.7037 0
M  V30 54 H 7.6794 -2.73 0.6528 0
M  V30 55 H 3.8918 -4.624 0.2653 0
M  V30 56 H -0.0172 2.3943 0.4494 0
M  V30 57 H 6.3218 -4.7571 0.3977 0
M  V30 58 H -0.4911 -2.9756 0.1954 0
M  V30 59 H 10.4813 0.5519 -0.8444 0
M  V30 60 H 7.1859 2.4592 1.2097 0
M  V30 61 H -2.4552 2.0356 0.3645 0
M  V30 62 H 11.844 2.5724 -0.4922 0
M  V30 63 H 8.579 4.4472 1.5674 0
M  V30 64 H 10.9047 4.5192 0.719 0
M  V30 65 H -5.6881 1.3974 1.1084 0
M  V30 66 H -4.2113 -5.813 -0.0354 0
M  V30 67 H -7.9844 -2.6051 -0.2421 0
M  V30 68 H -6.5147 -6.6155 -0.2268 0
M  V30 69 H -8.3968 -5.0156 -0.3325 0
M  V30 70 H -7.6898 2.1527 0.4181 0
M  V30 71 H -5.2167 5.145 -1.4887 0
M  V30 72 H -9.5109 3.7884 0.5911 0
M  V30 73 H -7.0728 6.7547 -1.3244 0
M  V30 74 H -9.2181 6.0887 -0.2792 0
M  V30 END ATOM
M  V30 BEGIN BOND
M  V30 1 2 1 2
M  V30 2 1 2 3
M  V30 3 1 2 4
M  V30 4 2 3 5
M  V30 5 1 3 6
M  V30 6 2 4 7
M  V30 7 1 4 8
M  V30 8 1 5 9
M  V30 9 1 5 10
M  V30 10 1 6 11
M  V30 11 2 6 12
M  V30 12 1 7 13
M  V30 13 2 8 14
M  V30 14 1 9 15
M  V30 15 2 10 16
M  V30 16 2 11 17
M  V30 17 1 13 18
M  V30 18 2 13 19
M  V30 19 2 15 20
M  V30 20 1 15 21
M  V30 21 1 18 22
M  V30 22 1 19 23
M  V30 23 2 21 24
M  V30 24 1 21 25
M  V30 25 1 22 26
M  V30 26 1 23 27
M  V30 27 1 24 28
M  V30 28 2 25 29
M  V30 29 1 26 30
M  V30 30 2 26 31
M  V30 31 2 27 32
M  V30 32 2 28 33
M  V30 33 2 30 34
M  V30 34 1 30 35
M  V30 35 1 31 36
M  V30 36 1 32 37
M  V30 37 2 35 38
M  V30 38 1 35 39
M  V30 39 2 36 40
M  V30 40 1 37 41
M  V30 41 1 38 42
M  V30 42 2 39 43
M  V30 43 2 41 44
M  V30 44 1 41 45
M  V30 45 2 42 46
M  V30 46 2 45 47
M  V30 47 1 45 48
M  V30 48 1 47 49
M  V30 49 2 48 50
M  V30 50 2 49 51
M  V30 51 1 7 11
M  V30 52 1 12 16
M  V30 53 1 14 19
M  V30 54 2 22 23
M  V30 55 1 29 33
M  V30 56 1 31 32
M  V30 57 1 36 38
M  V30 58 1 43 46
M  V30 59 1 50 51
M  V30 60 1 8 52
M  V30 61 1 9 53
M  V30 62 1 10 54
M  V30 63 1 12 55
M  V30 64 1 14 56
M  V30 65 1 16 57
M  V30 66 1 18 58
M  V30 67 1 24 59
M  V30 68 1 25 60
M  V30 69 1 27 61
M  V30 70 1 28 62
M  V30 71 1 29 63
M  V30 72 1 33 64
M  V30 73 1 37 65
M  V30 74 1 39 66
M  V30 75 1 42 67
M  V30 76 1 43 68
M  V30 77 1 46 69
M  V30 78 1 47 70
M  V30 79 1 48 71
M  V30 80 1 49 72
M  V30 81 1 50 73
M  V30 82 1 51 74
M  V30 END BOND
M  V30 END CTAB
M  END
>  <Structure No>
1030

>  <LogS>
-5.647161854

>  <MMFF94 Energy>
148.85

$$$$
Compound 1031
Actelion Java MolfileCreator 2.0

  0  0  0  0  0  0              0 V3000
M  V30 BEGIN CTAB
M  V30 COUNTS 36 37 0 0 0
M  V30 BEGIN ATOM
M  V30 1 S -1.6182 -0.8088 3.6439 0
M  V30 2 C -1.8122 -0.7595 1.8541 0
M  V30 3 C -0.0495 0.1284 3.6719 0
M  V30 4 C -2.3294 0.3828 1.2317 0
M  V30 5 C -1.4298 -1.8599 1.0788 0
M  V30 6 C 1.0666 -0.6781 3.0655 0
M  V30 7 C -2.4364 0.4449 -0.1618 0
M  V30 8 C -1.531 -1.8055 -0.3125 0
M  V30 9 O 1.6031 -1.5726 3.7686 0
M  V30 10 C 1.4881 -0.5265 1.6495 0
M  V30 11 O -2.942 1.6195 -0.7352 0
M  V30 12 C -2.0426 -0.6642 -0.9341 0
M  V30 13 C 1.9587 -1.6476 0.9436 0
M  V30 14 C 1.4356 0.7145 0.9876 0
M  V30 15 C -3.1384 1.8161 -2.1322 0
M  V30 16 C 2.3434 -1.5371 -0.3949 0
M  V30 17 C 1.8301 0.8242 -0.3469 0
M  V30 18 C 2.2788 -0.3069 -1.0523 0
M  V30 19 O 2.6555 -0.2508 -2.3992 0
M  V30 20 C 2.6866 0.9431 -3.1709 0
M  V30 21 H -0.1977 1.1037 3.1743 0
M  V30 22 H 0.2027 0.3461 4.7285 0
M  V30 23 H -2.6201 1.2391 1.8286 0
M  V30 24 H -0.9969 -2.7364 1.5485 0
M  V30 25 H -1.2096 -2.6513 -0.909 0
M  V30 26 H -2.1115 -0.6491 -2.0122 0
M  V30 27 H 2.0049 -2.6182 1.4169 0
M  V30 28 H 1.1147 1.6094 1.4994 0
M  V30 29 H -2.1694 1.7443 -2.6831 0
M  V30 30 H -3.8636 1.0693 -2.5267 0
M  V30 31 H -3.5553 2.8357 -2.2988 0
M  V30 32 H 2.6822 -2.4163 -0.928 0
M  V30 33 H 1.7653 1.7917 -0.8249 0
M  V30 34 H 3.364 1.6809 -2.697 0
M  V30 35 H 1.6652 1.3663 -3.2612 0
M  V30 36 H 3.0834 0.7074 -4.1787 0
M  V30 END ATOM
M  V30 BEGIN BOND
M  V30 1 1 1 2
M  V30 2 1 1 3
M  V30 3 2 2 4
M  V30 4 1 2 5
M  V30 5 1 3 6
M  V30 6 1 4 7
M  V30 7 2 5 8
M  V30 8 2 6 9
M  V30 9 1 6 10
M  V30 10 1 7 11
M  V30 11 2 7 12
M  V30 12 2 10 13
M  V30 13 1 10 14
M  V30 14 1 11 15
M  V30 15 1 13 16
M  V30 16 2 14 17
M  V30 17 2 16 18
M  V30 18 1 18 19
M  V30 19 1 19 20
M  V30 20 1 8 12
M  V30 21 1 17 18
M  V30 22 1 3 21
M  V30 23 1 3 22
M  V30 24 1 4 23
M  V30 25 1 5 24
M  V30 26 1 8 25
M  V30 27 1 12 26
M  V30 28 1 13 27
M  V30 29 1 14 28
M  V30 30 1 15 29
M  V30 31 1 15 30
M  V30 32 1 15 31
M  V30 33 1 16 32
M  V30 34 1 17 33
M  V30 35 1 20 34
M  V30 36 1 20 35
M  V30 37 1 20 36
M  V30 END BOND
M  V30 END CTAB
M  END
>  <Structure No>
1031

>  <LogS>
-5.284725265

>  <MMFF94 Energy>
71.284

$$$$
Compound 1032
Actelion Java MolfileCreator 2.0

  0  0  0  0  0  0              0 V3000
M  V30 BEGIN CTAB
M  V30 COUNTS 49 56 0 0 0
M  V30 BEGIN ATOM
M  V30 1 O 5.4796 -0.9946 -2.9861 0
M  V30 2 C 4.9531 -0.5778 -1.9174 0
M  V30 3 C 3.4799 -0.5584 -1.7564 0
M  V30 4 C 5.7968 -0.1036 -0.8129 0
M  V30 5 C 2.8867 -0.0889 -0.5527 0
M  V30 6 C 2.6745 -1.0094 -2.8069 0
M  V30 7 C 5.1726 0.3525 0.3604 0
M  V30 8 C 7.1993 -0.0999 -0.9115 0
M  V30 9 C 3.6866 0.3499 0.4684 0
M  V30 10 C 1.4583 -0.0937 -0.4547 0
M  V30 11 C 1.291 -1.0099 -2.7018 0
M  V30 12 C 5.9687 0.81 1.4278 0
M  V30 13 C 7.9764 0.3567 0.1549 0
M  V30 14 O 3.1379 0.8166 1.6617 0 CHG=-1
M  V30 15 N 0.8494 0.3464 0.678 0
M  V30 16 C 0.6498 -0.5558 -1.5325 0
M  V30 17 C 7.3621 0.8109 1.3225 0
M  V30 18 C -0.4919 0.373 0.8468 0
M  V30 19 C -0.7735 -0.5417 -1.388 0
M  V30 20 C -1.3418 -0.0684 -0.177 0
M  V30 21 C -1.0196 0.8423 2.045 0
M  V30 22 C -1.6547 -0.9798 -2.401 0
M  V30 23 C -2.7513 -0.0341 0.0159 0
M  V30 24 C -2.3967 0.8804 2.2447 0
M  V30 25 C -3.0345 -0.9485 -2.2174 0
M  V30 26 C -3.5937 -0.481 -1.0217 0
M  V30 27 C -3.2932 0.4463 1.2429 0
M  V30 28 C -5.0595 -0.4577 -0.8516 0
M  V30 29 C -4.7862 0.4829 1.4479 0
M  V30 30 O -5.8133 -0.8582 -1.7816 0
M  V30 31 C -5.6392 0.0358 0.4107 0
M  V30 32 C -5.3805 0.9499 2.6456 0
M  V30 33 C -7.0358 0.0616 0.5816 0
M  V30 34 C -6.7684 0.9686 2.7986 0
M  V30 35 C -7.5939 0.5259 1.7701 0
M  V30 36 H 3.1187 -1.3685 -3.7273 0
M  V30 37 H 7.6933 -0.4485 -1.8097 0
M  V30 38 H 0.7535 -1.3746 -3.5602 0
M  V30 39 H 5.5182 1.1678 2.3449 0
M  V30 40 H 9.0559 0.3585 0.0759 0
M  V30 41 H 7.9664 1.1645 2.148 0
M  V30 42 H -0.3577 1.1823 2.8328 0
M  V30 43 H -1.314 -1.3543 -3.3511 0
M  V30 44 H -2.7297 1.2559 3.1969 0
M  V30 45 H -3.6694 -1.295 -3.0237 0
M  V30 46 H -4.8017 1.3063 3.4803 0
M  V30 47 H -7.6984 -0.2777 -0.2046 0
M  V30 48 H -7.2054 1.329 3.7213 0
M  V30 49 H -8.6692 0.5426 1.8939 0
M  V30 END ATOM
M  V30 BEGIN BOND
M  V30 1 2 1 2
M  V30 2 1 2 3
M  V30 3 1 2 4
M  V30 4 1 3 5
M  V30 5 2 3 6
M  V30 6 2 4 7
M  V30 7 1 4 8
M  V30 8 2 5 9
M  V30 9 1 5 10
M  V30 10 1 6 11
M  V30 11 1 7 12
M  V30 12 2 8 13
M  V30 13 1 9 14
M  V30 14 2 10 15
M  V30 15 1 10 16
M  V30 16 2 12 17
M  V30 17 1 15 18
M  V30 18 1 16 19
M  V30 19 1 18 20
M  V30 20 2 18 21
M  V30 21 1 19 22
M  V30 22 1 20 23
M  V30 23 1 21 24
M  V30 24 2 22 25
M  V30 25 2 23 26
M  V30 26 1 23 27
M  V30 27 1 26 28
M  V30 28 1 27 29
M  V30 29 2 28 30
M  V30 30 1 28 31
M  V30 31 1 29 32
M  V30 32 1 31 33
M  V30 33 2 32 34
M  V30 34 2 33 35
M  V30 35 1 7 9
M  V30 36 2 11 16
M  V30 37 1 13 17
M  V30 38 2 19 20
M  V30 39 2 24 27
M  V30 40 1 25 26
M  V30 41 2 29 31
M  V30 42 1 34 35
M  V30 43 1 6 36
M  V30 44 1 8 37
M  V30 45 1 11 38
M  V30 46 1 12 39
M  V30 47 1 13 40
M  V30 48 1 17 41
M  V30 49 1 21 42
M  V30 50 1 22 43
M  V30 51 1 24 44
M  V30 52 1 25 45
M  V30 53 1 32 46
M  V30 54 1 33 47
M  V30 55 1 34 48
M  V30 56 1 35 49
M  V30 END BOND
M  V30 END CTAB
M  END
>  <Structure No>
1032

>  <LogS>
-5.506567843

>  <MMFF94 Energy>
186.26

$$$$
Compound 1033
Actelion Java MolfileCreator 2.0

  0  0  0  0  0  0              0 V3000
M  V30 BEGIN CTAB
M  V30 COUNTS 28 28 0 0 0
M  V30 BEGIN ATOM
M  V30 1 C -2.3552 -0.3922 -0.0784 0
M  V30 2 C -1.5972 -1.2242 0.6509 0
M  V30 3 C -1.7082 0.3724 -1.207 0
M  V30 4 C -3.8172 -0.2314 0.2333 0
M  V30 5 C -0.1196 -1.3071 0.3856 0
M  V30 6 C -0.3428 0.9665 -0.7958 0
M  V30 7 C 0.466 0.1202 0.2461 0 CFG=2
M  V30 8 C 1.9932 0.1159 -0.0841 0
M  V30 9 C 2.5739 1.5417 -0.0343 0
M  V30 10 C 2.8023 -0.7797 0.8713 0
M  V30 11 H -2.026 -1.7776 1.4823 0
M  V30 12 H -2.371 1.1859 -1.5729 0
M  V30 13 H -1.5517 -0.3337 -2.0515 0
M  V30 14 H -4.3287 -1.2137 0.1512 0
M  V30 15 H -4.3029 0.4759 -0.4708 0
M  V30 16 H -3.9397 0.1582 1.266 0
M  V30 17 H 0.3472 -1.8482 1.2347 0
M  V30 18 H 0.0563 -1.8841 -0.5482 0
M  V30 19 H -0.5111 1.9807 -0.3713 0
M  V30 20 H 0.2418 1.105 -1.7312 0
M  V30 21 H 0.3401 0.6075 1.2408 0
M  V30 22 H 2.1361 -0.2786 -1.1146 0
M  V30 23 H 2.0847 2.2031 -0.7781 0
M  V30 24 H 3.6584 1.5258 -0.2752 0
M  V30 25 H 2.4405 1.9819 0.9772 0
M  V30 26 H 2.5742 -1.8509 0.6921 0
M  V30 27 H 3.8924 -0.6534 0.6968 0
M  V30 28 H 2.5798 -0.5253 1.93 0
M  V30 END ATOM
M  V30 BEGIN BOND
M  V30 1 2 1 2
M  V30 2 1 1 3
M  V30 3 1 1 4
M  V30 4 1 2 5
M  V30 5 1 3 6
M  V30 6 1 5 7
M  V30 7 1 7 8
M  V30 8 1 8 9
M  V30 9 1 8 10
M  V30 10 1 6 7
M  V30 11 1 2 11
M  V30 12 1 3 12
M  V30 13 1 3 13
M  V30 14 1 4 14
M  V30 15 1 4 15
M  V30 16 1 4 16
M  V30 17 1 5 17
M  V30 18 1 5 18
M  V30 19 1 6 19
M  V30 20 1 6 20
M  V30 21 1 7 21
M  V30 22 1 8 22
M  V30 23 1 9 23
M  V30 24 1 9 24
M  V30 25 1 9 25
M  V30 26 1 10 26
M  V30 27 1 10 27
M  V30 28 1 10 28
M  V30 END BOND
M  V30 BEGIN COLLECTION
M  V30 MDLV30/STEABS ATOMS=(1 7)
M  V30 END COLLECTION
M  V30 END CTAB
M  END
>  <Structure No>
1033

>  <LogS>
-5.010343937

>  <MMFF94 Energy>
14.873

$$$$
Compound 1034
Actelion Java MolfileCreator 2.0

  0  0  0  0  0  0              0 V3000
M  V30 BEGIN CTAB
M  V30 COUNTS 67 67 0 0 0
M  V30 BEGIN ATOM
M  V30 1 O 9.0975 1.1934 -1.5914 0
M  V30 2 C 8.2526 0.2682 -1.7163 0
M  V30 3 O 7.3781 0.2757 -2.7961 0 CHG=-1
M  V30 4 C 8.1663 -0.8166 -0.6876 0
M  V30 5 C 7.4592 -0.3387 0.5877 0
M  V30 6 C 5.9667 -0.0596 0.3564 0
M  V30 7 C 5.2783 0.3561 1.6644 0
M  V30 8 C 3.7908 0.6694 1.456 0
M  V30 9 N 3.0161 -0.5419 1.18 0
M  V30 10 C 1.6086 -0.4858 0.9109 0
M  V30 11 N 0.9113 -1.6313 0.6782 0 CHG=1
M  V30 12 N 0.963 0.7098 0.8868 0
M  V30 13 C -0.4254 -1.58 0.4281 0
M  V30 14 C -0.3683 0.7682 0.6346 0
M  V30 15 N -1.0589 -0.3781 0.4076 0
M  V30 16 N -1.1599 -2.7878 0.1866 0
M  V30 17 N -1.0306 2.0368 0.6019 0
M  V30 18 C -2.6079 -2.7729 -0.0232 0
M  V30 19 C -2.4588 2.1498 0.303 0
M  V30 20 C -3.1355 -4.1897 -0.2867 0
M  V30 21 C -2.9051 3.6172 0.1716 0
M  V30 22 C -4.6454 -4.2159 -0.5729 0
M  V30 23 C -2.7233 4.1928 -1.2465 0
M  V30 24 C -5.4888 -4.0146 0.6981 0
M  V30 25 C -1.2599 4.3646 -1.6975 0
M  V30 26 C -6.9948 -4.0945 0.4138 0
M  V30 27 C -0.4853 5.4444 -0.9241 0
M  V30 28 C -7.4195 -5.4798 0.0335 0
M  V30 29 C -1.0533 6.8116 -1.1523 0
M  V30 30 O -7.4823 -6.3855 0.9062 0
M  V30 31 O -7.7217 -5.7768 -1.2895 0 CHG=-1
M  V30 32 O -0.8217 7.4223 -2.2291 0
M  V30 33 O -1.8693 7.3958 -0.192 0 CHG=-1
M  V30 34 H 7.6336 -1.6953 -1.1114 0
M  V30 35 H 9.1959 -1.1442 -0.4272 0
M  V30 36 H 7.5629 -1.1321 1.3604 0
M  V30 37 H 7.9614 0.5766 0.9725 0
M  V30 38 H 5.8537 0.7573 -0.3887 0
M  V30 39 H 5.4824 -0.9741 -0.0488 0
M  V30 40 H 5.385 -0.4473 2.4259 0
M  V30 41 H 5.7756 1.2688 2.0598 0
M  V30 42 H 3.6728 1.3899 0.6173 0
M  V30 43 H 3.3946 1.1466 2.3786 0
M  V30 44 H 3.4834 -1.4768 1.1981 0
M  V30 45 H 1.403 -2.5533 0.6954 0
M  V30 46 H -0.641 -3.6957 0.1756 0
M  V30 47 H -0.4645 2.891 0.8055 0
M  V30 48 H -3.0938 -2.3476 0.8797 0
M  V30 49 H -2.8426 -2.1244 -0.8953 0
M  V30 50 H -2.6947 1.5944 -0.6308 0
M  V30 51 H -3.0285 1.6745 1.1308 0
M  V30 52 H -2.9015 -4.8473 0.5786 0
M  V30 53 H -2.6071 -4.6005 -1.1746 0
M  V30 54 H -2.409 4.255 0.9328 0
M  V30 55 H -3.9926 3.6572 0.4003 0
M  V30 56 H -4.8891 -5.2058 -1.0148 0
M  V30 57 H -4.9018 -3.44 -1.3267 0
M  V30 58 H -3.2428 5.1733 -1.3025 0
M  V30 59 H -3.2393 3.5265 -1.9715 0
M  V30 60 H -5.2132 -4.7744 1.4622 0
M  V30 61 H -5.2794 -3.0121 1.1261 0
M  V30 62 H -0.7227 3.3972 -1.6183 0
M  V30 63 H -1.256 4.632 -2.7769 0
M  V30 64 H -7.5506 -3.7911 1.3272 0
M  V30 65 H -7.2664 -3.3813 -0.394 0
M  V30 66 H 0.5715 5.4383 -1.268 0
M  V30 67 H -0.472 5.222 0.1619 0
M  V30 END ATOM
M  V30 BEGIN BOND
M  V30 1 2 1 2
M  V30 2 1 2 3
M  V30 3 1 2 4
M  V30 4 1 4 5
M  V30 5 1 5 6
M  V30 6 1 6 7
M  V30 7 1 7 8
M  V30 8 1 8 9
M  V30 9 1 9 10
M  V30 10 2 10 11
M  V30 11 1 10 12
M  V30 12 1 11 13
M  V30 13 2 12 14
M  V30 14 2 13 15
M  V30 15 1 13 16
M  V30 16 1 14 17
M  V30 17 1 16 18
M  V30 18 1 17 19
M  V30 19 1 18 20
M  V30 20 1 19 21
M  V30 21 1 20 22
M  V30 22 1 21 23
M  V30 23 1 22 24
M  V30 24 1 23 25
M  V30 25 1 24 26
M  V30 26 1 25 27
M  V30 27 1 26 28
M  V30 28 1 27 29
M  V30 29 2 28 30
M  V30 30 1 28 31
M  V30 31 2 29 32
M  V30 32 1 29 33
M  V30 33 1 14 15
M  V30 34 1 4 34
M  V30 35 1 4 35
M  V30 36 1 5 36
M  V30 37 1 5 37
M  V30 38 1 6 38
M  V30 39 1 6 39
M  V30 40 1 7 40
M  V30 41 1 7 41
M  V30 42 1 8 42
M  V30 43 1 8 43
M  V30 44 1 9 44
M  V30 45 1 11 45
M  V30 46 1 16 46
M  V30 47 1 17 47
M  V30 48 1 18 48
M  V30 49 1 18 49
M  V30 50 1 19 50
M  V30 51 1 19 51
M  V30 52 1 20 52
M  V30 53 1 20 53
M  V30 54 1 21 54
M  V30 55 1 21 55
M  V30 56 1 22 56
M  V30 57 1 22 57
M  V30 58 1 23 58
M  V30 59 1 23 59
M  V30 60 1 24 60
M  V30 61 1 24 61
M  V30 62 1 25 62
M  V30 63 1 25 63
M  V30 64 1 26 64
M  V30 65 1 26 65
M  V30 66 1 27 66
M  V30 67 1 27 67
M  V30 END BOND
M  V30 END CTAB
M  END
>  <Structure No>
1034

>  <LogS>
-2.542361308

>  <MMFF94 Energy>
-296.97

$$$$
Compound 1035
Actelion Java MolfileCreator 2.0

  0  0  0  0  0  0              0 V3000
M  V30 BEGIN CTAB
M  V30 COUNTS 39 38 0 0 0
M  V30 BEGIN ATOM
M  V30 1 O 5.3802 -0.5447 -1.5571 0
M  V30 2 C 5.0894 0.6095 -1.1416 0
M  V30 3 O 3.7514 1.009 -1.0283 0
M  V30 4 C 6.1741 1.5349 -0.7843 0
M  V30 5 C 2.6478 0.1501 -1.3084 0
M  V30 6 C 5.9376 2.766 -0.3372 0
M  V30 7 C 2.423 -0.8289 -0.1494 0
M  V30 8 C 1.3608 -1.8978 -0.4629 0
M  V30 9 C -0.0495 -1.3491 -0.7455 0
M  V30 10 C -0.6517 -0.5998 0.4524 0
M  V30 11 C -2.1176 -0.2321 0.1911 0
M  V30 12 C -2.7114 0.5349 1.3861 0
M  V30 13 C -4.1917 0.9498 1.2132 0
M  V30 14 C -4.3955 1.9266 0.0472 0
M  V30 15 C -5.1295 -0.2582 1.0858 0
M  V30 16 H 7.2 1.2033 -0.8871 0
M  V30 17 H 2.8218 -0.3966 -2.261 0
M  V30 18 H 1.747 0.7857 -1.4332 0
M  V30 19 H 4.9291 3.1412 -0.2169 0
M  V30 20 H 6.7651 3.416 -0.0845 0
M  V30 21 H 3.3766 -1.3561 0.0664 0
M  V30 22 H 2.1521 -0.2676 0.7692 0
M  V30 23 H 1.6943 -2.4859 -1.3455 0
M  V30 24 H 1.3063 -2.6041 0.3938 0
M  V30 25 H -0.0348 -0.6896 -1.6388 0
M  V30 26 H -0.7022 -2.215 -0.9921 0
M  V30 27 H -0.5893 -1.2403 1.3595 0
M  V30 28 H -0.0771 0.3334 0.6336 0
M  V30 29 H -2.6946 -1.1651 0.0189 0
M  V30 30 H -2.1696 0.3955 -0.7234 0
M  V30 31 H -2.106 1.4508 1.5655 0
M  V30 32 H -2.6244 -0.0943 2.2993 0
M  V30 33 H -4.4809 1.4889 2.1429 0
M  V30 34 H -5.4279 2.3361 0.0751 0
M  V30 35 H -4.25 1.4213 -0.9303 0
M  V30 36 H -3.6847 2.7764 0.1268 0
M  V30 37 H -4.9882 -0.7757 0.114 0
M  V30 38 H -6.1867 0.0773 1.149 0
M  V30 39 H -4.9459 -0.9782 1.9114 0
M  V30 END ATOM
M  V30 BEGIN BOND
M  V30 1 2 1 2
M  V30 2 1 2 3
M  V30 3 1 2 4
M  V30 4 1 3 5
M  V30 5 2 4 6
M  V30 6 1 5 7
M  V30 7 1 7 8
M  V30 8 1 8 9
M  V30 9 1 9 10
M  V30 10 1 10 11
M  V30 11 1 11 12
M  V30 12 1 12 13
M  V30 13 1 13 14
M  V30 14 1 13 15
M  V30 15 1 4 16
M  V30 16 1 5 17
M  V30 17 1 5 18
M  V30 18 1 6 19
M  V30 19 1 6 20
M  V30 20 1 7 21
M  V30 21 1 7 22
M  V30 22 1 8 23
M  V30 23 1 8 24
M  V30 24 1 9 25
M  V30 25 1 9 26
M  V30 26 1 10 27
M  V30 27 1 10 28
M  V30 28 1 11 29
M  V30 29 1 11 30
M  V30 30 1 12 31
M  V30 31 1 12 32
M  V30 32 1 13 33
M  V30 33 1 14 34
M  V30 34 1 14 35
M  V30 35 1 14 36
M  V30 36 1 15 37
M  V30 37 1 15 38
M  V30 38 1 15 39
M  V30 END BOND
M  V30 END CTAB
M  END
>  <Structure No>
1035

>  <LogS>
-5.199912698

>  <MMFF94 Energy>
1.2795

$$$$
Compound 1036
Actelion Java MolfileCreator 2.0

  0  0  0  0  0  0              0 V3000
M  V30 BEGIN CTAB
M  V30 COUNTS 37 36 0 0 0
M  V30 BEGIN ATOM
M  V30 1 O 3.189 0.3107 -2.7218 0
M  V30 2 C 3.9554 0.4165 -1.7775 0
M  V30 3 C 4.0892 -0.7043 -0.7782 0 CFG=2
M  V30 4 C 2.7591 -0.9718 -0.0366 0
M  V30 5 C 5.2538 -0.4428 0.1864 0
M  V30 6 C 2.2384 0.2339 0.7713 0
M  V30 7 C 0.9164 -0.0691 1.4953 0
M  V30 8 C -0.2851 -0.1246 0.5393 0
M  V30 9 C -1.5989 -0.2812 1.3204 0
M  V30 10 C -2.8149 -0.4922 0.4037 0
M  V30 11 C -3.2235 0.7906 -0.3406 0
M  V30 12 C -4.4481 0.5809 -1.2451 0
M  V30 13 C -5.7497 0.4342 -0.4569 0
M  V30 14 H 4.5441 1.3233 -1.6744 0
M  V30 15 H 4.3416 -1.6268 -1.3465 0
M  V30 16 H 2.8963 -1.8378 0.6475 0
M  V30 17 H 2.0007 -1.271 -0.7905 0
M  V30 18 H 5.14 0.5338 0.7021 0
M  V30 19 H 6.2114 -0.427 -0.3766 0
M  V30 20 H 5.3138 -1.2504 0.9468 0
M  V30 21 H 2.9869 0.5016 1.5463 0
M  V30 22 H 2.1067 1.1176 0.1103 0
M  V30 23 H 0.7413 0.7384 2.2401 0
M  V30 24 H 1.0029 -1.0271 2.0535 0
M  V30 25 H -0.3145 0.8117 -0.0567 0
M  V30 26 H -0.173 -0.9852 -0.1531 0
M  V30 27 H -1.5142 -1.1687 1.9856 0
M  V30 28 H -1.7647 0.6083 1.967 0
M  V30 29 H -2.6011 -1.3041 -0.3253 0
M  V30 30 H -3.659 -0.8273 1.0424 0
M  V30 31 H -2.3844 1.1201 -0.9883 0
M  V30 32 H -3.4285 1.6057 0.3875 0
M  V30 33 H -4.2999 -0.3117 -1.8907 0
M  V30 34 H -4.5462 1.4645 -1.9126 0
M  V30 35 H -5.886 1.2938 0.2333 0
M  V30 36 H -6.6066 0.4105 -1.1627 0
M  V30 37 H -5.7562 -0.5112 0.1229 0
M  V30 END ATOM
M  V30 BEGIN BOND
M  V30 1 2 1 2
M  V30 2 1 2 3
M  V30 3 1 3 4
M  V30 4 1 3 5
M  V30 5 1 4 6
M  V30 6 1 6 7
M  V30 7 1 7 8
M  V30 8 1 8 9
M  V30 9 1 9 10
M  V30 10 1 10 11
M  V30 11 1 11 12
M  V30 12 1 12 13
M  V30 13 1 2 14
M  V30 14 1 3 15
M  V30 15 1 4 16
M  V30 16 1 4 17
M  V30 17 1 5 18
M  V30 18 1 5 19
M  V30 19 1 5 20
M  V30 20 1 6 21
M  V30 21 1 6 22
M  V30 22 1 7 23
M  V30 23 1 7 24
M  V30 24 1 8 25
M  V30 25 1 8 26
M  V30 26 1 9 27
M  V30 27 1 9 28
M  V30 28 1 10 29
M  V30 29 1 10 30
M  V30 30 1 11 31
M  V30 31 1 11 32
M  V30 32 1 12 33
M  V30 33 1 12 34
M  V30 34 1 13 35
M  V30 35 1 13 36
M  V30 36 1 13 37
M  V30 END BOND
M  V30 BEGIN COLLECTION
M  V30 MDLV30/STEABS ATOMS=(1 3)
M  V30 END COLLECTION
M  V30 END CTAB
M  END
>  <Structure No>
1036

>  <LogS>
-5.151636178

>  <MMFF94 Energy>
2.4779

$$$$
Compound 1037
Actelion Java MolfileCreator 2.0

  0  0  0  0  0  0              0 V3000
M  V30 BEGIN CTAB
M  V30 COUNTS 59 61 0 0 0
M  V30 BEGIN ATOM
M  V30 1 N -3.2423 -4.4306 0.4739 0
M  V30 2 C -2.3998 -3.321 0.0642 0
M  V30 3 C -3.0869 -5.0348 1.8031 0
M  V30 4 C -4.2631 -4.9683 -0.434 0
M  V30 5 C -1.7263 -2.5321 1.0188 0
M  V30 6 C -2.2329 -3.0029 -1.2989 0
M  V30 7 C -0.9155 -1.4657 0.6236 0
M  V30 8 C -1.421 -1.9362 -1.6922 0
M  V30 9 C -0.7486 -1.1584 -0.7372 0
M  V30 10 C 0.1165 0.0123 -1.1797 0
M  V30 11 C -0.5427 1.3084 -0.7296 0
M  V30 12 C 1.5865 -0.0972 -0.7672 0
M  V30 13 C -1.4539 1.9531 -1.5796 0
M  V30 14 C -0.3205 1.8426 0.5516 0
M  V30 15 C 2.4313 1.019 -0.9095 0
M  V30 16 C 2.1657 -1.3212 -0.3783 0
M  V30 17 C -2.1054 3.1205 -1.1736 0
M  V30 18 C -0.9702 3.0099 0.9593 0
M  V30 19 C 3.789 0.9393 -0.5919 0
M  V30 20 C 3.5235 -1.402 -0.0591 0
M  V30 21 C -1.8734 3.6714 0.1028 0
M  V30 22 C 4.3572 -0.271 -0.1511 0
M  V30 23 N -2.5501 4.8844 0.5258 0
M  V30 24 N 5.7669 -0.3552 0.1844 0
M  V30 25 C -3.1173 5.807 -0.4653 0
M  V30 26 C -2.6787 5.2091 1.9518 0
M  V30 27 C 6.2613 -1.4227 1.0625 0
M  V30 28 C 6.7203 0.628 -0.3438 0
M  V30 29 H -3.4674 -4.3397 2.5804 0
M  V30 30 H -3.648 -5.9894 1.8874 0
M  V30 31 H -2.0159 -5.2599 1.9926 0
M  V30 32 H -3.7761 -5.524 -1.2622 0
M  V30 33 H -4.9533 -5.6625 0.0902 0
M  V30 34 H -4.8755 -4.139 -0.8474 0
M  V30 35 H -1.8277 -2.7268 2.0771 0
M  V30 36 H -2.7208 -3.5806 -2.0714 0
M  V30 37 H -0.4073 -0.888 1.3832 0
M  V30 38 H -1.3185 -1.7195 -2.7482 0
M  V30 39 H 0.147 0.0229 -2.2924 0
M  V30 40 H -1.6666 1.5478 -2.5611 0
M  V30 41 H 0.3662 1.3629 1.2368 0
M  V30 42 H 2.038 1.9628 -1.2663 0
M  V30 43 H 1.5792 -2.2281 -0.3264 0
M  V30 44 H -2.8024 3.5783 -1.8612 0
M  V30 45 H -0.7528 3.3937 1.9461 0
M  V30 46 H 4.3875 1.834 -0.6909 0
M  V30 47 H 3.9189 -2.3625 0.2401 0
M  V30 48 H -4.0239 5.3587 -0.9226 0
M  V30 49 H -3.4041 6.7763 -0.0055 0
M  V30 50 H -2.366 6.0219 -1.2546 0
M  V30 51 H -1.6921 5.5125 2.3603 0
M  V30 52 H -3.3943 6.0419 2.1192 0
M  V30 53 H -3.0592 4.3259 2.5074 0
M  V30 54 H 6.253 -2.3914 0.5207 0
M  V30 55 H 7.2996 -1.2239 1.4026 0
M  V30 56 H 5.6215 -1.4938 1.9678 0
M  V30 57 H 7.7709 0.3086 -0.1782 0
M  V30 58 H 6.5755 0.7437 -1.4388 0
M  V30 59 H 6.5716 1.6061 0.1593 0
M  V30 END ATOM
M  V30 BEGIN BOND
M  V30 1 1 1 2
M  V30 2 1 1 3
M  V30 3 1 1 4
M  V30 4 2 2 5
M  V30 5 1 2 6
M  V30 6 1 5 7
M  V30 7 2 6 8
M  V30 8 2 7 9
M  V30 9 1 9 10
M  V30 10 1 10 11
M  V30 11 1 10 12
M  V30 12 2 11 13
M  V30 13 1 11 14
M  V30 14 2 12 15
M  V30 15 1 12 16
M  V30 16 1 13 17
M  V30 17 2 14 18
M  V30 18 1 15 19
M  V30 19 2 16 20
M  V30 20 2 17 21
M  V30 21 2 19 22
M  V30 22 1 21 23
M  V30 23 1 22 24
M  V30 24 1 23 25
M  V30 25 1 23 26
M  V30 26 1 24 27
M  V30 27 1 24 28
M  V30 28 1 8 9
M  V30 29 1 18 21
M  V30 30 1 20 22
M  V30 31 1 3 29
M  V30 32 1 3 30
M  V30 33 1 3 31
M  V30 34 1 4 32
M  V30 35 1 4 33
M  V30 36 1 4 34
M  V30 37 1 5 35
M  V30 38 1 6 36
M  V30 39 1 7 37
M  V30 40 1 8 38
M  V30 41 1 10 39
M  V30 42 1 13 40
M  V30 43 1 14 41
M  V30 44 1 15 42
M  V30 45 1 16 43
M  V30 46 1 17 44
M  V30 47 1 18 45
M  V30 48 1 19 46
M  V30 49 1 20 47
M  V30 50 1 25 48
M  V30 51 1 25 49
M  V30 52 1 25 50
M  V30 53 1 26 51
M  V30 54 1 26 52
M  V30 55 1 26 53
M  V30 56 1 27 54
M  V30 57 1 27 55
M  V30 58 1 27 56
M  V30 59 1 28 57
M  V30 60 1 28 58
M  V30 61 1 28 59
M  V30 END BOND
M  V30 END CTAB
M  END
>  <Structure No>
1037

>  <LogS>
-5.458398413

>  <MMFF94 Energy>
96.033

$$$$
Compound 1038
Actelion Java MolfileCreator 2.0

  0  0  0  0  0  0              0 V3000
M  V30 BEGIN CTAB
M  V30 COUNTS 46 50 0 0 0
M  V30 BEGIN ATOM
M  V30 1 S -1.6666 2.2504 0.6664 0
M  V30 2 C -1.7682 1.0353 -0.6638 0
M  V30 3 C -3.1384 1.639 1.4975 0
M  V30 4 C -0.9531 -0.1323 -0.7261 0
M  V30 5 C -2.6829 1.3008 -1.6913 0
M  V30 6 C -3.0433 0.6351 2.4713 0
M  V30 7 C -4.3912 2.1836 1.1836 0
M  V30 8 C 0.0889 -0.4507 0.2952 0
M  V30 9 C -1.1226 -1.023 -1.8135 0
M  V30 10 C -2.8429 0.4125 -2.7487 0
M  V30 11 C -4.1956 0.1665 3.1107 0
M  V30 12 C -5.542 1.7135 1.824 0
M  V30 13 O 0.0827 0.1421 1.4043 0
M  V30 14 C 1.1012 -1.5161 0.0391 0
M  V30 15 C -0.2868 -2.2394 -1.9185 0
M  V30 16 C -2.0758 -0.7457 -2.8082 0
M  V30 17 C -5.4447 0.7037 2.7857 0
M  V30 18 C 2.277 -1.6641 0.8275 0
M  V30 19 C 0.8721 -2.425 -1.0192 0
M  V30 20 O -0.5497 -3.1099 -2.7939 0
M  V30 21 S 2.7681 -0.4861 2.101 0
M  V30 22 C 3.1418 -2.7401 0.5948 0
M  V30 23 C 1.761 -3.4926 -1.2327 0
M  V30 24 C 3.6943 0.5254 0.9443 0
M  V30 25 C 2.8811 -3.6525 -0.4223 0
M  V30 26 C 5.0446 0.2472 0.6958 0
M  V30 27 C 3.0725 1.5975 0.29 0
M  V30 28 C 5.7656 1.0296 -0.2117 0
M  V30 29 C 3.7951 2.3783 -0.6175 0
M  V30 30 C 5.1408 2.0939 -0.8693 0
M  V30 31 H -3.2856 2.1998 -1.666 0
M  V30 32 H -2.0837 0.2175 2.7392 0
M  V30 33 H -4.4751 2.9692 0.4439 0
M  V30 34 H -3.5632 0.6248 -3.5284 0
M  V30 35 H -4.12 -0.6109 3.8599 0
M  V30 36 H -6.5086 2.133 1.5762 0
M  V30 37 H -2.2158 -1.4169 -3.6462 0
M  V30 38 H -6.3358 0.3405 3.2815 0
M  V30 39 H 4.0335 -2.862 1.1969 0
M  V30 40 H 1.5955 -4.2016 -2.0342 0
M  V30 41 H 3.5612 -4.4763 -0.5962 0
M  V30 42 H 5.5338 -0.5761 1.2004 0
M  V30 43 H 2.0328 1.8277 0.4815 0
M  V30 44 H 6.8077 0.8109 -0.4057 0
M  V30 45 H 3.3125 3.2039 -1.1245 0
M  V30 46 H 5.6992 2.6988 -1.5718 0
M  V30 END ATOM
M  V30 BEGIN BOND
M  V30 1 1 1 2
M  V30 2 1 1 3
M  V30 3 2 2 4
M  V30 4 1 2 5
M  V30 5 2 3 6
M  V30 6 1 3 7
M  V30 7 1 4 8
M  V30 8 1 4 9
M  V30 9 2 5 10
M  V30 10 1 6 11
M  V30 11 2 7 12
M  V30 12 2 8 13
M  V30 13 1 8 14
M  V30 14 1 9 15
M  V30 15 2 9 16
M  V30 16 2 11 17
M  V30 17 2 14 18
M  V30 18 1 14 19
M  V30 19 2 15 20
M  V30 20 1 18 21
M  V30 21 1 18 22
M  V30 22 2 19 23
M  V30 23 1 21 24
M  V30 24 2 22 25
M  V30 25 2 24 26
M  V30 26 1 24 27
M  V30 27 1 26 28
M  V30 28 2 27 29
M  V30 29 2 28 30
M  V30 30 1 10 16
M  V30 31 1 12 17
M  V30 32 1 15 19
M  V30 33 1 23 25
M  V30 34 1 29 30
M  V30 35 1 5 31
M  V30 36 1 6 32
M  V30 37 1 7 33
M  V30 38 1 10 34
M  V30 39 1 11 35
M  V30 40 1 12 36
M  V30 41 1 16 37
M  V30 42 1 17 38
M  V30 43 1 22 39
M  V30 44 1 23 40
M  V30 45 1 25 41
M  V30 46 1 26 42
M  V30 47 1 27 43
M  V30 48 1 28 44
M  V30 49 1 29 45
M  V30 50 1 30 46
M  V30 END BOND
M  V30 END CTAB
M  END
>  <Structure No>
1038

>  <LogS>
-5.517335043

>  <MMFF94 Energy>
106.18

$$$$
Compound 1039
Actelion Java MolfileCreator 2.0

  0  0  0  0  0  0              0 V3000
M  V30 BEGIN CTAB
M  V30 COUNTS 46 48 0 0 0
M  V30 BEGIN ATOM
M  V30 1 O -4.2417 -2.2392 -2.1591 0
M  V30 2 C -3.2078 -1.4895 -1.5979 0
M  V30 3 C -3.3394 -0.9621 -0.3044 0
M  V30 4 C -2.0282 -1.2776 -2.315 0
M  V30 5 C -2.2814 -0.2277 0.2574 0
M  V30 6 C -4.5722 -1.2476 0.5076 0
M  V30 7 C -0.9872 -0.533 -1.7602 0
M  V30 8 C -1.1095 0.0635 -0.4842 0
M  V30 9 C 0.0903 0.8316 0.1248 0
M  V30 10 C 1.1499 -0.2498 0.4538 0
M  V30 11 C -0.3152 1.6187 1.4413 0
M  V30 12 C 0.6368 1.9025 -0.9104 0
M  V30 13 C 2.2824 -0.4793 -0.3666 0
M  V30 14 C 0.9125 -1.1705 1.5001 0
M  V30 15 C 0.5535 2.8571 1.6928 0
M  V30 16 C -0.0339 3.274 -0.7667 0
M  V30 17 C 3.2076 -1.4941 -0.0695 0
M  V30 18 C 1.8197 -2.1904 1.7878 0
M  V30 19 C 0.3238 3.9105 0.5909 0
M  V30 20 C 2.9709 -2.3533 1.014 0
M  V30 21 C 4.4026 -1.7065 -0.9568 0
M  V30 22 O 3.8702 -3.3789 1.3065 0
M  V30 23 H -4.1669 -2.6349 -3.089 0
M  V30 24 H -1.9067 -1.7104 -3.2999 0
M  V30 25 H -2.3815 0.0821 1.287 0
M  V30 26 H -4.6454 -0.57 1.385 0
M  V30 27 H -4.543 -2.2972 0.8678 0
M  V30 28 H -5.4826 -1.0994 -0.111 0
M  V30 29 H -0.069 -0.4609 -2.326 0
M  V30 30 H -0.2965 0.9933 2.3539 0
M  V30 31 H -1.3545 2.0046 1.3557 0
M  V30 32 H 1.7195 2.0885 -0.7381 0
M  V30 33 H 0.5464 1.5833 -1.9659 0
M  V30 34 H 2.4501 0.1016 -1.2612 0
M  V30 35 H 0.0025 -1.1335 2.0825 0
M  V30 36 H 1.6239 2.5564 1.719 0
M  V30 37 H 0.3028 3.2987 2.6819 0
M  V30 38 H 0.301 3.9451 -1.5873 0
M  V30 39 H -1.1362 3.1556 -0.8563 0
M  V30 40 H 1.6136 -2.8711 2.6043 0
M  V30 41 H -0.4997 4.5935 0.8935 0
M  V30 42 H 1.2455 4.5231 0.4845 0
M  V30 43 H 4.2269 -2.5873 -1.6093 0
M  V30 44 H 5.3108 -1.8829 -0.3423 0
M  V30 45 H 4.5945 -0.8192 -1.5972 0
M  V30 46 H 3.7169 -4.0152 2.0802 0
M  V30 END ATOM
M  V30 BEGIN BOND
M  V30 1 1 1 2
M  V30 2 2 2 3
M  V30 3 1 2 4
M  V30 4 1 3 5
M  V30 5 1 3 6
M  V30 6 2 4 7
M  V30 7 2 5 8
M  V30 8 1 8 9
M  V30 9 1 9 10
M  V30 10 1 9 11
M  V30 11 1 9 12
M  V30 12 2 10 13
M  V30 13 1 10 14
M  V30 14 1 11 15
M  V30 15 1 12 16
M  V30 16 1 13 17
M  V30 17 2 14 18
M  V30 18 1 15 19
M  V30 19 2 17 20
M  V30 20 1 17 21
M  V30 21 1 20 22
M  V30 22 1 7 8
M  V30 23 1 16 19
M  V30 24 1 18 20
M  V30 25 1 1 23
M  V30 26 1 4 24
M  V30 27 1 5 25
M  V30 28 1 6 26
M  V30 29 1 6 27
M  V30 30 1 6 28
M  V30 31 1 7 29
M  V30 32 1 11 30
M  V30 33 1 11 31
M  V30 34 1 12 32
M  V30 35 1 12 33
M  V30 36 1 13 34
M  V30 37 1 14 35
M  V30 38 1 15 36
M  V30 39 1 15 37
M  V30 40 1 16 38
M  V30 41 1 16 39
M  V30 42 1 18 40
M  V30 43 1 19 41
M  V30 44 1 19 42
M  V30 45 1 21 43
M  V30 46 1 21 44
M  V30 47 1 21 45
M  V30 48 1 22 46
M  V30 END BOND
M  V30 END CTAB
M  END
>  <Structure No>
1039

>  <LogS>
-5.371522306

>  <MMFF94 Energy>
53.534

$$$$
Compound 1040
Actelion Java MolfileCreator 2.0

  0  0  0  0  0  0              0 V3000
M  V30 BEGIN CTAB
M  V30 COUNTS 39 41 0 0 0
M  V30 BEGIN ATOM
M  V30 1 S 0.4156 2.9119 1.4967 0
M  V30 2 O -0.4286 2.091 2.4304 0
M  V30 3 O -0.3689 3.2315 0.2559 0
M  V30 4 O 0.8292 4.3483 2.265 0 CHG=-1
M  V30 5 C 1.8668 2.0052 1.0599 0
M  V30 6 C 1.7655 0.7235 0.4843 0
M  V30 7 C 3.1318 2.5717 1.2792 0
M  V30 8 N 0.4713 0.1519 0.2508 0
M  V30 9 C 2.9376 0.0272 0.1383 0
M  V30 10 C 4.297 1.8671 0.9454 0
M  V30 11 N 0.3184 -0.9895 -0.289 0
M  V30 12 C 4.1921 0.598 0.3621 0
M  V30 13 C 5.6429 2.4987 1.1469 0
M  V30 14 C -0.9807 -1.5528 -0.5248 0
M  V30 15 C -1.1837 -2.9118 -0.2021 0
M  V30 16 C -2.0532 -0.7845 -1.0506 0
M  V30 17 O -0.1156 -3.6863 0.2616 0
M  V30 18 C -2.4647 -3.4949 -0.3286 0
M  V30 19 C -3.3392 -1.3722 -1.1531 0
M  V30 20 C -1.8783 0.5367 -1.5198 0
M  V30 21 C -2.719 -4.9186 0.0196 0
M  V30 22 C -3.5321 -2.7081 -0.7856 0
M  V30 23 C -4.4207 -0.6208 -1.6435 0
M  V30 24 C -2.9627 1.2695 -2.0079 0
M  V30 25 O -1.8063 -5.6474 0.49 0
M  V30 26 O -3.9808 -5.4721 -0.1673 0 CHG=-1
M  V30 27 C -4.2319 0.6965 -2.0596 0
M  V30 28 H 3.2147 3.5618 1.7099 0
M  V30 29 H 2.8852 -0.9573 -0.3075 0
M  V30 30 H 5.0818 0.0489 0.0797 0
M  V30 31 H 5.6459 3.125 2.0652 0
M  V30 32 H 5.8856 3.1373 0.2718 0
M  V30 33 H 6.4311 1.7236 1.2587 0
M  V30 34 H 0.8245 -3.3253 0.3664 0
M  V30 35 H -0.9081 1.0086 -1.5497 0
M  V30 36 H -4.5218 -3.1414 -0.8753 0
M  V30 37 H -5.4103 -1.0564 -1.7145 0
M  V30 38 H -2.8152 2.2832 -2.3578 0
M  V30 39 H -5.068 1.2687 -2.4408 0
M  V30 END ATOM
M  V30 BEGIN BOND
M  V30 1 2 1 2
M  V30 2 2 1 3
M  V30 3 1 1 4
M  V30 4 1 1 5
M  V30 5 2 5 6
M  V30 6 1 5 7
M  V30 7 1 6 8
M  V30 8 1 6 9
M  V30 9 2 7 10
M  V30 10 2 8 11
M  V30 11 2 9 12
M  V30 12 1 10 13
M  V30 13 1 11 14
M  V30 14 2 14 15
M  V30 15 1 14 16
M  V30 16 1 15 17
M  V30 17 1 15 18
M  V30 18 1 16 19
M  V30 19 2 16 20
M  V30 20 1 18 21
M  V30 21 2 18 22
M  V30 22 2 19 23
M  V30 23 1 20 24
M  V30 24 2 21 25
M  V30 25 1 21 26
M  V30 26 1 23 27
M  V30 27 1 10 12
M  V30 28 1 19 22
M  V30 29 2 24 27
M  V30 30 1 7 28
M  V30 31 1 9 29
M  V30 32 1 12 30
M  V30 33 1 13 31
M  V30 34 1 13 32
M  V30 35 1 13 33
M  V30 36 1 17 34
M  V30 37 1 20 35
M  V30 38 1 22 36
M  V30 39 1 23 37
M  V30 40 1 24 38
M  V30 41 1 27 39
M  V30 END BOND
M  V30 END CTAB
M  END
>  <Structure No>
1040

>  <LogS>
-5.548642222

>  <MMFF94 Energy>
142.68

$$$$
Compound 1041
Actelion Java MolfileCreator 2.0

  0  0  0  0  0  0              0 V3000
M  V30 BEGIN CTAB
M  V30 COUNTS 60 59 0 0 0
M  V30 BEGIN ATOM
M  V30 1 O 0.4702 -0.7053 -0.7053 0
M  V30 2 C 1.2496 -1.4747 -0.0794 0
M  V30 3 O 2.5988 -1.5595 -0.4372 0
M  V30 4 C 0.744 -2.363 0.9822 0
M  V30 5 C 3.214 -0.7071 -1.4032 0
M  V30 6 C -0.3342 -2.1337 1.7482 0
M  V30 7 C 3.4178 0.7169 -0.838 0 CFG=1
M  V30 8 C -1.0885 -0.8693 1.8159 0
M  V30 9 C 4.2065 0.7692 0.5015 0
M  V30 10 C 3.9444 1.7051 -1.909 0
M  V30 11 O -0.5282 0.2331 1.5658 0
M  V30 12 O -2.42 -0.9051 2.2429 0
M  V30 13 C 5.3778 -0.2256 0.6229 0
M  V30 14 C 5.3962 1.4915 -2.3372 0
M  V30 15 C -3.2609 0.2474 2.2964 0
M  V30 16 C 6.2011 0.05 1.8867 0
M  V30 17 C -3.7046 0.6786 0.8808 0 CFG=1
M  V30 18 C 7.3423 -0.9522 2.0324 0
M  V30 19 C -4.5641 -0.4266 0.2184 0
M  V30 20 C -4.3846 2.0725 0.9071 0
M  V30 21 C -4.9329 -0.1045 -1.2411 0
M  V30 22 C -5.7426 2.109 1.614 0
M  V30 23 C -5.5404 -1.3097 -1.9752 0
M  V30 24 C -6.9268 -1.682 -1.4501 0
M  V30 25 H 1.2742 -3.2962 1.1273 0
M  V30 26 H 4.1879 -1.1521 -1.6911 0
M  V30 27 H 2.5873 -0.6724 -2.3213 0
M  V30 28 H -0.6634 -2.9306 2.4036 0
M  V30 29 H 2.4003 1.0972 -0.5962 0
M  V30 30 H 4.5762 1.8054 0.6658 0
M  V30 31 H 3.4966 0.5542 1.3314 0
M  V30 32 H 3.2977 1.6387 -2.8113 0
M  V30 33 H 3.8451 2.7436 -1.5234 0
M  V30 34 H 6.0424 -0.1628 -0.2608 0
M  V30 35 H 4.9777 -1.2608 0.68 0
M  V30 36 H 6.0877 1.7582 -1.5116 0
M  V30 37 H 5.5709 0.4457 -2.6616 0
M  V30 38 H 5.6249 2.1596 -3.1942 0
M  V30 39 H -2.7237 1.0746 2.8104 0
M  V30 40 H -4.1513 -0.0052 2.9094 0
M  V30 41 H 5.5464 -0.0173 2.7831 0
M  V30 42 H 6.6285 1.0755 1.839 0
M  V30 43 H -2.7835 0.7948 0.2682 0
M  V30 44 H 6.9411 -1.9853 2.1099 0
M  V30 45 H 7.9205 -0.726 2.9531 0
M  V30 46 H 8.0258 -0.8883 1.1589 0
M  V30 47 H -3.9844 -1.3755 0.2287 0
M  V30 48 H -5.4843 -0.5987 0.8152 0
M  V30 49 H -3.7073 2.7961 1.4111 0
M  V30 50 H -4.5127 2.4453 -0.1311 0
M  V30 51 H -4.0144 0.2024 -1.7874 0
M  V30 52 H -5.6504 0.7428 -1.2786 0
M  V30 53 H -5.6552 1.7646 2.6644 0
M  V30 54 H -6.4871 1.4866 1.0765 0
M  V30 55 H -6.1191 3.1537 1.6256 0
M  V30 56 H -4.8637 -2.188 -1.8962 0
M  V30 57 H -5.633 -1.0537 -3.053 0
M  V30 58 H -7.6021 -0.8003 -1.4751 0
M  V30 59 H -7.362 -2.4784 -2.0899 0
M  V30 60 H -6.8624 -2.0694 -0.4122 0
M  V30 END ATOM
M  V30 BEGIN BOND
M  V30 1 2 1 2
M  V30 2 1 2 3
M  V30 3 1 2 4
M  V30 4 1 3 5
M  V30 5 2 4 6
M  V30 6 1 5 7
M  V30 7 1 6 8
M  V30 8 1 7 9
M  V30 9 1 7 10
M  V30 10 2 8 11
M  V30 11 1 8 12
M  V30 12 1 9 13
M  V30 13 1 10 14
M  V30 14 1 12 15
M  V30 15 1 13 16
M  V30 16 1 15 17
M  V30 17 1 16 18
M  V30 18 1 17 19
M  V30 19 1 17 20
M  V30 20 1 19 21
M  V30 21 1 20 22
M  V30 22 1 21 23
M  V30 23 1 23 24
M  V30 24 1 4 25
M  V30 25 1 5 26
M  V30 26 1 5 27
M  V30 27 1 6 28
M  V30 28 1 7 29
M  V30 29 1 9 30
M  V30 30 1 9 31
M  V30 31 1 10 32
M  V30 32 1 10 33
M  V30 33 1 13 34
M  V30 34 1 13 35
M  V30 35 1 14 36
M  V30 36 1 14 37
M  V30 37 1 14 38
M  V30 38 1 15 39
M  V30 39 1 15 40
M  V30 40 1 16 41
M  V30 41 1 16 42
M  V30 42 1 17 43
M  V30 43 1 18 44
M  V30 44 1 18 45
M  V30 45 1 18 46
M  V30 46 1 19 47
M  V30 47 1 19 48
M  V30 48 1 20 49
M  V30 49 1 20 50
M  V30 50 1 21 51
M  V30 51 1 21 52
M  V30 52 1 22 53
M  V30 53 1 22 54
M  V30 54 1 22 55
M  V30 55 1 23 56
M  V30 56 1 23 57
M  V30 57 1 24 58
M  V30 58 1 24 59
M  V30 59 1 24 60
M  V30 END BOND
M  V30 BEGIN COLLECTION
M  V30 MDLV30/STEABS ATOMS=(2 7 17)
M  V30 END COLLECTION
M  V30 END CTAB
M  END
>  <Structure No>
1041

>  <LogS>
-5.456575257

>  <MMFF94 Energy>
-16.854

$$$$
Compound 1042
Actelion Java MolfileCreator 2.0

  0  0  0  0  0  0              0 V3000
M  V30 BEGIN CTAB
M  V30 COUNTS 43 44 0 0 0
M  V30 BEGIN ATOM
M  V30 1 O -2.2317 -0.4779 -2.2317 0
M  V30 2 C -2.6955 -0.168 -1.0994 0
M  V30 3 O -1.9231 -0.3609 0.0502 0
M  V30 4 C -4.0559 0.3999 -0.9822 0
M  V30 5 C -0.6045 -0.9017 0.0155 0
M  V30 6 C -4.5736 0.7457 0.2795 0
M  V30 7 C -4.8518 0.6032 -2.1252 0
M  V30 8 C -0.0131 -0.99 1.4429 0
M  V30 9 C -5.8596 1.283 0.3933 0
M  V30 10 C -6.1372 1.1409 -2.0053 0
M  V30 11 C 1.4035 -1.6073 1.3803 0
M  V30 12 C -0.9073 -1.8896 2.3212 0
M  V30 13 C 0.0616 0.4177 2.0712 0
M  V30 14 C -6.6406 1.4804 -0.7474 0
M  V30 15 O 2.2683 -0.8022 0.5825 0
M  V30 16 C 3.6089 -1.125 0.3517 0
M  V30 17 O 4.1052 -2.167 0.8623 0
M  V30 18 C 4.4411 -0.2407 -0.4926 0
M  V30 19 C 3.8873 0.9192 -1.0649 0
M  V30 20 C 5.7938 -0.5433 -0.7369 0
M  V30 21 C 4.6714 1.757 -1.8639 0
M  V30 22 C 6.5731 0.2982 -1.5368 0
M  V30 23 C 6.0126 1.4471 -2.0997 0
M  V30 24 H 0.0349 -0.2539 -0.6238 0
M  V30 25 H -0.6374 -1.9149 -0.443 0
M  V30 26 H -3.9869 0.6018 1.1782 0
M  V30 27 H -4.4825 0.3476 -3.1103 0
M  V30 28 H -6.2509 1.5466 1.3675 0
M  V30 29 H -6.7434 1.2945 -2.8886 0
M  V30 30 H 1.3517 -2.6299 0.9447 0
M  V30 31 H 1.827 -1.6907 2.4061 0
M  V30 32 H -0.9924 -2.9064 1.8808 0
M  V30 33 H -0.4813 -1.9868 3.3431 0
M  V30 34 H -1.9297 -1.4641 2.4151 0
M  V30 35 H 0.5264 0.3715 3.0796 0
M  V30 36 H -0.9535 0.8568 2.1795 0
M  V30 37 H 0.667 1.1016 1.4382 0
M  V30 38 H -7.6356 1.8965 -0.6569 0
M  V30 39 H 2.8498 1.18 -0.8964 0
M  V30 40 H 6.2494 -1.4283 -0.311 0
M  V30 41 H 4.2383 2.6476 -2.3007 0
M  V30 42 H 7.6126 0.0591 -1.7203 0
M  V30 43 H 6.6177 2.0971 -2.7185 0
M  V30 END ATOM
M  V30 BEGIN BOND
M  V30 1 2 1 2
M  V30 2 1 2 3
M  V30 3 1 2 4
M  V30 4 1 3 5
M  V30 5 2 4 6
M  V30 6 1 4 7
M  V30 7 1 5 8
M  V30 8 1 6 9
M  V30 9 2 7 10
M  V30 10 1 8 11
M  V30 11 1 8 12
M  V30 12 1 8 13
M  V30 13 2 9 14
M  V30 14 1 11 15
M  V30 15 1 15 16
M  V30 16 2 16 17
M  V30 17 1 16 18
M  V30 18 2 18 19
M  V30 19 1 18 20
M  V30 20 1 19 21
M  V30 21 2 20 22
M  V30 22 2 21 23
M  V30 23 1 10 14
M  V30 24 1 22 23
M  V30 25 1 5 24
M  V30 26 1 5 25
M  V30 27 1 6 26
M  V30 28 1 7 27
M  V30 29 1 9 28
M  V30 30 1 10 29
M  V30 31 1 11 30
M  V30 32 1 11 31
M  V30 33 1 12 32
M  V30 34 1 12 33
M  V30 35 1 12 34
M  V30 36 1 13 35
M  V30 37 1 13 36
M  V30 38 1 13 37
M  V30 39 1 14 38
M  V30 40 1 19 39
M  V30 41 1 20 40
M  V30 42 1 21 41
M  V30 43 1 22 42
M  V30 44 1 23 43
M  V30 END BOND
M  V30 END CTAB
M  END
>  <Structure No>
1042

>  <LogS>
-5.422780359

>  <MMFF94 Energy>
69.304

$$$$
Compound 1043
Actelion Java MolfileCreator 2.0

  0  0  0  0  0  0              0 V3000
M  V30 BEGIN CTAB
M  V30 COUNTS 47 47 0 0 0
M  V30 BEGIN ATOM
M  V30 1 O 2.8307 0.4713 0.4713 0
M  V30 2 C 1.457 0.1291 0.3453 0
M  V30 3 C 3.3441 0.0987 1.7376 0
M  V30 4 C 0.6066 1.3755 0.7139 0
M  V30 5 C 1.2154 -0.3163 -1.1249 0
M  V30 6 O 3.5549 -1.3013 1.8024 0
M  V30 7 C -0.8106 1.0243 1.1993 0
M  V30 8 C 0.1604 -1.439 -1.2945 0
M  V30 9 C 4.7973 -1.6731 1.2327 0
M  V30 10 C -1.7946 2.1751 0.9381 0
M  V30 11 C -0.8125 -1.1758 -2.4619 0
M  V30 12 C 4.6673 -1.9179 -0.2676 0
M  V30 13 C -3.2336 1.8686 1.3903 0
M  V30 14 C -1.8574 -0.0872 -2.1494 0
M  V30 15 C -3.8491 0.5701 0.8291 0
M  V30 16 C -3.0446 -0.6283 -1.3305 0
M  V30 17 C -3.9152 0.4995 -0.7194 0
M  V30 18 H 1.1835 -0.7204 1.018 0
M  V30 19 H 4.2684 0.6839 1.9406 0
M  V30 20 H 2.6479 0.3895 2.5564 0
M  V30 21 H 1.1062 1.9401 1.5309 0
M  V30 22 H 0.5692 2.0735 -0.1507 0
M  V30 23 H 2.1701 -0.7062 -1.5403 0
M  V30 24 H 0.9796 0.562 -1.7629 0
M  V30 25 H -0.7824 0.7918 2.2863 0
M  V30 26 H -1.1685 0.125 0.6796 0
M  V30 27 H -0.404 -1.6376 -0.3639 0
M  V30 28 H 0.6987 -2.388 -1.5104 0
M  V30 29 H 5.1069 -2.6294 1.7046 0
M  V30 30 H 5.619 -0.9503 1.4392 0
M  V30 31 H -1.4435 3.075 1.4887 0
M  V30 32 H -1.7987 2.4417 -0.1384 0
M  V30 33 H -1.3326 -2.1227 -2.7257 0
M  V30 34 H -0.2277 -0.873 -3.3579 0
M  V30 35 H 3.7907 -2.5674 -0.4755 0
M  V30 36 H 4.5535 -0.9561 -0.8082 0
M  V30 37 H 5.5834 -2.4198 -0.6438 0
M  V30 38 H -3.8818 2.7248 1.1025 0
M  V30 39 H -3.2493 1.8097 2.5007 0
M  V30 40 H -2.2525 0.3111 -3.1093 0
M  V30 41 H -1.3706 0.7598 -1.6319 0
M  V30 42 H -4.8896 0.5155 1.2186 0
M  V30 43 H -3.3374 -0.3074 1.2753 0
M  V30 44 H -2.6898 -1.3325 -0.5509 0
M  V30 45 H -3.677 -1.2367 -2.0141 0
M  V30 46 H -4.972 0.2964 -1.0023 0
M  V30 47 H -3.683 1.4844 -1.1787 0
M  V30 END ATOM
M  V30 BEGIN BOND
M  V30 1 1 1 2
M  V30 2 1 1 3
M  V30 3 1 2 4
M  V30 4 1 2 5
M  V30 5 1 3 6
M  V30 6 1 4 7
M  V30 7 1 5 8
M  V30 8 1 6 9
M  V30 9 1 7 10
M  V30 10 1 8 11
M  V30 11 1 9 12
M  V30 12 1 10 13
M  V30 13 1 11 14
M  V30 14 1 13 15
M  V30 15 1 14 16
M  V30 16 1 15 17
M  V30 17 1 16 17
M  V30 18 1 2 18
M  V30 19 1 3 19
M  V30 20 1 3 20
M  V30 21 1 4 21
M  V30 22 1 4 22
M  V30 23 1 5 23
M  V30 24 1 5 24
M  V30 25 1 7 25
M  V30 26 1 7 26
M  V30 27 1 8 27
M  V30 28 1 8 28
M  V30 29 1 9 29
M  V30 30 1 9 30
M  V30 31 1 10 31
M  V30 32 1 10 32
M  V30 33 1 11 33
M  V30 34 1 11 34
M  V30 35 1 12 35
M  V30 36 1 12 36
M  V30 37 1 12 37
M  V30 38 1 13 38
M  V30 39 1 13 39
M  V30 40 1 14 40
M  V30 41 1 14 41
M  V30 42 1 15 42
M  V30 43 1 15 43
M  V30 44 1 16 44
M  V30 45 1 16 45
M  V30 46 1 17 46
M  V30 47 1 17 47
M  V30 END BOND
M  V30 END CTAB
M  END
>  <Structure No>
1043

>  <LogS>
-5.335319968

>  <MMFF94 Energy>
12.913

$$$$
Compound 1044
Actelion Java MolfileCreator 2.0

  0  0  0  0  0  0              0 V3000
M  V30 BEGIN CTAB
M  V30 COUNTS 48 48 0 0 0
M  V30 BEGIN ATOM
M  V30 1 O 3.0034 -1.7379 1.2637 0
M  V30 2 C 1.8559 -1.3684 0.8916 0
M  V30 3 O 1.5153 -0.0096 0.8901 0
M  V30 4 C 0.8848 -2.3726 0.4014 0
M  V30 5 C 2.4153 1.0418 1.2388 0
M  V30 6 C -0.52 -2.2148 0.5523 0
M  V30 7 C 1.3756 -3.4832 -0.31 0
M  V30 8 C 2.9761 1.7207 -0.0182 0
M  V30 9 C -1.1225 -1.1522 1.3859 0
M  V30 10 C -1.3845 -3.1343 -0.0678 0
M  V30 11 C 0.5003 -4.3979 -0.8967 0
M  V30 12 C 3.8899 0.8127 -0.8734 0
M  V30 13 O -0.5637 -0.7888 2.4574 0
M  V30 14 O -2.3408 -0.5856 1.0006 0
M  V30 15 C -0.8765 -4.2173 -0.7859 0
M  V30 16 C 4.1459 1.465 -2.2382 0
M  V30 17 C 5.2294 0.5318 -0.1756 0
M  V30 18 C -2.9744 0.4553 1.7368 0
M  V30 19 C -4.2499 0.9091 1.0182 0
M  V30 20 C -3.9825 1.8651 -0.168 0
M  V30 21 C -3.2125 1.1792 -1.3067 0
M  V30 22 C -5.31 2.4217 -0.6987 0
M  V30 23 H 3.222 0.6879 1.914 0
M  V30 24 H 1.8405 1.8034 1.8071 0
M  V30 25 H 2.4413 -3.626 -0.4417 0
M  V30 26 H 2.111 2.0576 -0.6312 0
M  V30 27 H 3.5363 2.6324 0.2851 0
M  V30 28 H -2.4587 -3.0317 0.0291 0
M  V30 29 H 0.8914 -5.2411 -1.4512 0
M  V30 30 H 3.3786 -0.1549 -1.0631 0
M  V30 31 H -1.553 -4.9245 -1.2481 0
M  V30 32 H 4.654 2.4458 -2.1151 0
M  V30 33 H 4.783 0.8066 -2.8666 0
M  V30 34 H 3.1859 1.623 -2.7749 0
M  V30 35 H 5.8802 -0.0852 -0.8311 0
M  V30 36 H 5.7574 1.4814 0.0575 0
M  V30 37 H 5.0763 -0.034 0.7648 0
M  V30 38 H -2.2782 1.3129 1.866 0
M  V30 39 H -3.2455 0.069 2.7434 0
M  V30 40 H -4.8813 1.4403 1.7643 0
M  V30 41 H -4.8223 0.0187 0.6762 0
M  V30 42 H -3.3782 2.7269 0.1931 0
M  V30 43 H -3.7192 0.2393 -1.6142 0
M  V30 44 H -2.1736 0.9506 -0.9919 0
M  V30 45 H -3.1449 1.8524 -2.1879 0
M  V30 46 H -5.1238 3.1444 -1.5217 0
M  V30 47 H -5.9539 1.6002 -1.0808 0
M  V30 48 H -5.8534 2.9578 0.1084 0
M  V30 END ATOM
M  V30 BEGIN BOND
M  V30 1 2 1 2
M  V30 2 1 2 3
M  V30 3 1 2 4
M  V30 4 1 3 5
M  V30 5 2 4 6
M  V30 6 1 4 7
M  V30 7 1 5 8
M  V30 8 1 6 9
M  V30 9 1 6 10
M  V30 10 2 7 11
M  V30 11 1 8 12
M  V30 12 2 9 13
M  V30 13 1 9 14
M  V30 14 2 10 15
M  V30 15 1 12 16
M  V30 16 1 12 17
M  V30 17 1 14 18
M  V30 18 1 18 19
M  V30 19 1 19 20
M  V30 20 1 20 21
M  V30 21 1 20 22
M  V30 22 1 11 15
M  V30 23 1 5 23
M  V30 24 1 5 24
M  V30 25 1 7 25
M  V30 26 1 8 26
M  V30 27 1 8 27
M  V30 28 1 10 28
M  V30 29 1 11 29
M  V30 30 1 12 30
M  V30 31 1 15 31
M  V30 32 1 16 32
M  V30 33 1 16 33
M  V30 34 1 16 34
M  V30 35 1 17 35
M  V30 36 1 17 36
M  V30 37 1 17 37
M  V30 38 1 18 38
M  V30 39 1 18 39
M  V30 40 1 19 40
M  V30 41 1 19 41
M  V30 42 1 20 42
M  V30 43 1 21 43
M  V30 44 1 21 44
M  V30 45 1 21 45
M  V30 46 1 22 46
M  V30 47 1 22 47
M  V30 48 1 22 48
M  V30 END BOND
M  V30 END CTAB
M  END
>  <Structure No>
1044

>  <LogS>
-5.444898911

>  <MMFF94 Energy>
27.007

$$$$
Compound 1045
Actelion Java MolfileCreator 2.0

  0  0  0  0  0  0              0 V3000
M  V30 BEGIN CTAB
M  V30 COUNTS 18 17 0 0 0
M  V30 BEGIN ATOM
M  V30 1 S -1.8611 -1.6992 1.5373 0
M  V30 2 C -0.7438 -1.6834 0.3372 0
M  V30 3 S 0.0406 -3.2535 -0.0938 0 CHG=-1 VAL=2
M  V30 4 N -0.3879 -0.4583 -0.3458 0
M  V30 5 C -1.3409 0.6594 -0.437 0
M  V30 6 C 0.9302 -0.3213 -0.9852 0
M  V30 7 C -1.0625 1.6964 0.646 0
M  V30 8 C 2.0416 -0.2764 0.0608 0
M  V30 9 H -2.3863 0.2938 -0.3452 0
M  V30 10 H -1.2679 1.1448 -1.4344 0
M  V30 11 H 1.1034 -1.1626 -1.6892 0
M  V30 12 H 0.9822 0.6151 -1.5824 0
M  V30 13 H -1.1054 1.228 1.6515 0
M  V30 14 H -1.8241 2.5026 0.5941 0
M  V30 15 H -0.0592 2.1469 0.4955 0
M  V30 16 H 1.8744 0.5681 0.7617 0
M  V30 17 H 2.0772 -1.2233 0.6379 0
M  V30 18 H 3.0205 -0.1332 -0.4428 0
M  V30 END ATOM
M  V30 BEGIN BOND
M  V30 1 2 1 2
M  V30 2 1 2 3
M  V30 3 1 2 4
M  V30 4 1 4 5
M  V30 5 1 4 6
M  V30 6 1 5 7
M  V30 7 1 6 8
M  V30 8 1 5 9
M  V30 9 1 5 10
M  V30 10 1 6 11
M  V30 11 1 6 12
M  V30 12 1 7 13
M  V30 13 1 7 14
M  V30 14 1 7 15
M  V30 15 1 8 16
M  V30 16 1 8 17
M  V30 17 1 8 18
M  V30 END BOND
M  V30 END CTAB
M  END
>  <Structure No>
1045

>  <LogS>
-5.533333117

>  <MMFF94 Energy>
-36.563

$$$$
Compound 1046
Actelion Java MolfileCreator 2.0

  0  0  0  0  0  0              0 V3000
M  V30 BEGIN CTAB
M  V30 COUNTS 22 24 0 0 0
M  V30 BEGIN ATOM
M  V30 1 N 0.0 1.7527 -0.0796 0
M  V30 2 C -1.0541 0.9085 -0.0334 0
M  V30 3 C 1.0859 0.9495 -0.0407 0
M  V30 4 C -0.6464 -0.4087 0.0334 0
M  V30 5 C -2.4062 1.2484 -0.0477 0
M  V30 6 C 0.7292 -0.3823 0.0287 0
M  V30 7 C 2.4237 1.3409 -0.0642 0
M  V30 8 C -1.5567 -1.4622 0.0901 0
M  V30 9 C -3.3489 0.2047 0.0085 0
M  V30 10 C 1.6794 -1.4003 0.0789 0
M  V30 11 C 3.4059 0.3339 -0.0146 0
M  V30 12 C -2.9266 -1.1423 0.0769 0
M  V30 13 C 3.036 -1.0282 0.0565 0
M  V30 14 H -0.0201 2.7958 -0.1332 0
M  V30 15 H -2.7226 2.2821 -0.1001 0
M  V30 16 H 2.6999 2.386 -0.1187 0
M  V30 17 H -1.225 -2.4911 0.1423 0
M  V30 18 H -4.4061 0.4359 -8.0E-4 0
M  V30 19 H 1.3877 -2.4411 0.1334 0
M  V30 20 H 4.4534 0.6055 -0.0311 0
M  V30 21 H -3.6629 -1.9343 0.1195 0
M  V30 22 H 3.8022 -1.7914 0.094 0
M  V30 END ATOM
M  V30 BEGIN BOND
M  V30 1 1 1 2
M  V30 2 1 1 3
M  V30 3 2 2 4
M  V30 4 1 2 5
M  V30 5 2 3 6
M  V30 6 1 3 7
M  V30 7 1 4 8
M  V30 8 2 5 9
M  V30 9 1 6 10
M  V30 10 2 7 11
M  V30 11 2 8 12
M  V30 12 2 10 13
M  V30 13 1 4 6
M  V30 14 1 9 12
M  V30 15 1 11 13
M  V30 16 1 1 14
M  V30 17 1 5 15
M  V30 18 1 7 16
M  V30 19 1 8 17
M  V30 20 1 9 18
M  V30 21 1 10 19
M  V30 22 1 11 20
M  V30 23 1 12 21
M  V30 24 1 13 22
M  V30 END BOND
M  V30 END CTAB
M  END
>  <Structure No>
1046

>  <LogS>
-5.21042762

>  <MMFF94 Energy>
29.02

$$$$
Compound 1047
Actelion Java MolfileCreator 2.0

  0  0  0  0  0  0              0 V3000
M  V30 BEGIN CTAB
M  V30 COUNTS 50 52 0 0 0
M  V30 BEGIN ATOM
M  V30 1 O 1.2055 1.0447 -2.4121 0
M  V30 2 C 0.8477 -0.0993 -2.0237 0
M  V30 3 O 1.1281 -0.5345 -0.7215 0
M  V30 4 C 0.1971 -1.018 -2.9736 0
M  V30 5 C 1.8048 0.2638 0.2528 0
M  V30 6 C -1.0489 -1.6475 -2.702 0
M  V30 7 C 0.8778 -1.3131 -4.1667 0
M  V30 8 C 1.821 -0.4846 1.5925 0
M  V30 9 C 3.2501 0.5938 -0.208 0
M  V30 10 C -1.8813 -1.2985 -1.5227 0
M  V30 11 C -1.5503 -2.5869 -3.6258 0
M  V30 12 C 0.3566 -2.2374 -5.0719 0
M  V30 13 C 2.4522 0.3675 2.712 0
M  V30 14 C 4.246 0.7771 0.9558 0
M  V30 15 O -2.7815 -2.0929 -1.1332 0
M  V30 16 O -1.707 -0.07 -0.8744 0
M  V30 17 C -0.8518 -2.878 -4.7987 0
M  V30 18 C 3.5531 1.3233 2.2085 0
M  V30 19 C -2.5218 0.3805 0.2087 0
M  V30 20 C -2.2983 -0.5007 1.4667 0
M  V30 21 C -2.2101 1.8611 0.4682 0
M  V30 22 C -2.0977 0.3042 2.7607 0
M  V30 23 C -3.0304 2.4143 1.6454 0
M  V30 24 C -3.1028 1.4564 2.8537 0
M  V30 25 H 1.238 1.212 0.3942 0
M  V30 26 H 1.8307 -0.8449 -4.3841 0
M  V30 27 H 0.79 -0.7664 1.8873 0
M  V30 28 H 2.4001 -1.4275 1.4742 0
M  V30 29 H 3.6302 -0.2156 -0.8709 0
M  V30 30 H 3.2274 1.5308 -0.8064 0
M  V30 31 H -2.501 -3.0785 -3.4561 0
M  V30 32 H 0.8951 -2.4646 -5.9824 0
M  V30 33 H 1.6597 0.9682 3.2085 0
M  V30 34 H 2.8786 -0.3145 3.4789 0
M  V30 35 H 4.7171 -0.2006 1.2021 0
M  V30 36 H 5.0577 1.4713 0.6463 0
M  V30 37 H -1.2542 -3.5947 -5.5032 0
M  V30 38 H 3.1036 2.312 1.9667 0
M  V30 39 H 4.3035 1.4835 3.0124 0
M  V30 40 H -3.591 0.3129 -0.0952 0
M  V30 41 H -3.1787 -1.1673 1.5958 0
M  V30 42 H -1.4193 -1.1632 1.3241 0
M  V30 43 H -1.1261 1.9786 0.6849 0
M  V30 44 H -2.4337 2.4549 -0.4441 0
M  V30 45 H -2.2217 -0.369 3.6366 0
M  V30 46 H -1.0643 0.7117 2.7958 0
M  V30 47 H -4.0631 2.6321 1.2977 0
M  V30 48 H -2.5823 3.38 1.9628 0
M  V30 49 H -4.1261 1.0301 2.9255 0
M  V30 50 H -2.9166 2.0249 3.7898 0
M  V30 END ATOM
M  V30 BEGIN BOND
M  V30 1 2 1 2
M  V30 2 1 2 3
M  V30 3 1 2 4
M  V30 4 1 3 5
M  V30 5 2 4 6
M  V30 6 1 4 7
M  V30 7 1 5 8
M  V30 8 1 5 9
M  V30 9 1 6 10
M  V30 10 1 6 11
M  V30 11 2 7 12
M  V30 12 1 8 13
M  V30 13 1 9 14
M  V30 14 2 10 15
M  V30 15 1 10 16
M  V30 16 2 11 17
M  V30 17 1 13 18
M  V30 18 1 16 19
M  V30 19 1 19 20
M  V30 20 1 19 21
M  V30 21 1 20 22
M  V30 22 1 21 23
M  V30 23 1 22 24
M  V30 24 1 12 17
M  V30 25 1 14 18
M  V30 26 1 23 24
M  V30 27 1 5 25
M  V30 28 1 7 26
M  V30 29 1 8 27
M  V30 30 1 8 28
M  V30 31 1 9 29
M  V30 32 1 9 30
M  V30 33 1 11 31
M  V30 34 1 12 32
M  V30 35 1 13 33
M  V30 36 1 13 34
M  V30 37 1 14 35
M  V30 38 1 14 36
M  V30 39 1 17 37
M  V30 40 1 18 38
M  V30 41 1 18 39
M  V30 42 1 19 40
M  V30 43 1 20 41
M  V30 44 1 20 42
M  V30 45 1 21 43
M  V30 46 1 21 44
M  V30 47 1 22 45
M  V30 48 1 22 46
M  V30 49 1 23 47
M  V30 50 1 23 48
M  V30 51 1 24 49
M  V30 52 1 24 50
M  V30 END BOND
M  V30 END CTAB
M  END
>  <Structure No>
1047

>  <LogS>
-5.512605542

>  <MMFF94 Energy>
24.707

$$$$
Compound 1048
Actelion Java MolfileCreator 2.0

  0  0  0  0  0  0              0 V3000
M  V30 BEGIN CTAB
M  V30 COUNTS 59 62 0 0 0
M  V30 BEGIN ATOM
M  V30 1 O -6.7467 0.811 -0.7299 0
M  V30 2 C -5.557 0.6594 -0.3457 0
M  V30 3 C -4.6938 -0.3116 -1.0376 0
M  V30 4 C -5.0471 1.4721 0.8092 0
M  V30 5 C -3.4555 -0.594 -0.5979 0
M  V30 6 C -3.5137 1.4103 0.9196 0
M  V30 7 C -2.9322 -0.0272 0.7216 0 CFG=2
M  V30 8 C -2.527 -1.4211 -1.4496 0
M  V30 9 C -1.3484 0.0649 0.6852 0 CFG=2
M  V30 10 C -3.4304 -0.9224 1.8888 0
M  V30 11 C -1.2442 -0.6383 -1.792 0
M  V30 12 C -0.8343 0.434 -0.7296 0 CFG=2
M  V30 13 C -0.5882 -1.1832 1.2282 0
M  V30 14 C 0.6904 0.8121 -0.6753 0 CFG=1
M  V30 15 C 0.8363 -1.3702 0.6613 0
M  V30 16 C 1.5801 -0.0466 0.2945 0 CFG=1
M  V30 17 C 1.3749 0.8428 -2.0566 0
M  V30 18 C 2.9265 -0.3137 -0.5037 0 CFG=1
M  V30 19 C 1.8696 0.7042 1.6287 0
M  V30 20 C 2.584 -0.0763 -1.9931 0
M  V30 21 O 4.0113 0.5573 -0.1069 0
M  V30 22 C 3.4728 -1.7357 -0.2893 0
M  V30 23 C 4.1715 1.9399 -0.2937 0
M  V30 24 O 3.1936 -2.6404 -1.0634 0
M  V30 25 C 4.3203 -2.0782 0.9058 0
M  V30 26 O 3.2324 2.6694 -0.7008 0
M  V30 27 C 5.4654 2.5708 0.0916 0
M  V30 28 H -5.0575 -0.7479 -1.9604 0
M  V30 29 H -5.5186 1.1136 1.748 0
M  V30 30 H -5.3548 2.5316 0.6734 0
M  V30 31 H -3.2129 1.812 1.9125 0
M  V30 32 H -3.0969 2.0991 0.1548 0
M  V30 33 H -3.0144 -1.747 -2.3951 0
M  V30 34 H -2.2709 -2.3507 -0.9027 0
M  V30 35 H -1.0646 0.9059 1.355 0
M  V30 36 H -2.9982 -0.5796 2.8533 0
M  V30 37 H -4.5349 -0.907 1.9783 0
M  V30 38 H -3.1715 -1.9884 1.7332 0
M  V30 39 H -1.4258 -0.1186 -2.7586 0
M  V30 40 H -0.4276 -1.365 -1.9746 0
M  V30 41 H -1.3554 1.3661 -1.0398 0
M  V30 42 H -0.5317 -1.111 2.3367 0
M  V30 43 H -1.1311 -2.1202 1.0057 0
M  V30 44 H 0.7123 1.8634 -0.3067 0
M  V30 45 H 1.4235 -1.9434 1.4119 0
M  V30 46 H 0.7718 -2.0202 -0.2347 0
M  V30 47 H 0.7229 0.5427 -2.8987 0
M  V30 48 H 1.6867 1.875 -2.3159 0
M  V30 49 H 2.6317 0.1591 2.2226 0
M  V30 50 H 2.2302 1.7366 1.4622 0
M  V30 51 H 0.9698 0.7947 2.266 0
M  V30 52 H 3.4444 0.3585 -2.5471 0
M  V30 53 H 2.2991 -1.016 -2.5126 0
M  V30 54 H 3.8357 -2.8928 1.4839 0
M  V30 55 H 4.4606 -1.2097 1.58 0
M  V30 56 H 5.3179 -2.4241 0.5633 0
M  V30 57 H 5.691 3.4243 -0.5821 0
M  V30 58 H 5.4008 2.9356 1.1378 0
M  V30 59 H 6.2861 1.8272 0.0148 0
M  V30 END ATOM
M  V30 BEGIN BOND
M  V30 1 2 1 2
M  V30 2 1 2 3
M  V30 3 1 2 4
M  V30 4 2 3 5
M  V30 5 1 4 6
M  V30 6 1 5 7
M  V30 7 1 5 8
M  V30 8 1 7 9
M  V30 9 1 7 10
M  V30 10 1 8 11
M  V30 11 1 9 12
M  V30 12 1 9 13
M  V30 13 1 12 14
M  V30 14 1 13 15
M  V30 15 1 14 16
M  V30 16 1 14 17
M  V30 17 1 16 18
M  V30 18 1 16 19
M  V30 19 1 17 20
M  V30 20 1 18 21
M  V30 21 1 18 22
M  V30 22 1 21 23
M  V30 23 2 22 24
M  V30 24 1 22 25
M  V30 25 2 23 26
M  V30 26 1 23 27
M  V30 27 1 6 7
M  V30 28 1 11 12
M  V30 29 1 15 16
M  V30 30 1 18 20
M  V30 31 1 3 28
M  V30 32 1 4 29
M  V30 33 1 4 30
M  V30 34 1 6 31
M  V30 35 1 6 32
M  V30 36 1 8 33
M  V30 37 1 8 34
M  V30 38 1 9 35
M  V30 39 1 10 36
M  V30 40 1 10 37
M  V30 41 1 10 38
M  V30 42 1 11 39
M  V30 43 1 11 40
M  V30 44 1 12 41
M  V30 45 1 13 42
M  V30 46 1 13 43
M  V30 47 1 14 44
M  V30 48 1 15 45
M  V30 49 1 15 46
M  V30 50 1 17 47
M  V30 51 1 17 48
M  V30 52 1 19 49
M  V30 53 1 19 50
M  V30 54 1 19 51
M  V30 55 1 20 52
M  V30 56 1 20 53
M  V30 57 1 25 54
M  V30 58 1 25 55
M  V30 59 1 25 56
M  V30 60 1 27 57
M  V30 61 1 27 58
M  V30 62 1 27 59
M  V30 END BOND
M  V30 BEGIN COLLECTION
M  V30 MDLV30/STEABS ATOMS=(6 7 9 12 14 16 18)
M  V30 END COLLECTION
M  V30 END CTAB
M  END
>  <Structure No>
1048

>  <LogS>
-5.566810733

>  <MMFF94 Energy>
96.788

$$$$
Compound 1049
Actelion Java MolfileCreator 2.0

  0  0  0  0  0  0              0 V3000
M  V30 BEGIN CTAB
M  V30 COUNTS 69 68 0 0 0
M  V30 BEGIN ATOM
M  V30 1 O 6.6472 1.1705 -1.7171 0
M  V30 2 C 5.9856 0.2404 -1.1777 0
M  V30 3 N 6.5758 -0.5089 -0.0898 0
M  V30 4 C 4.6164 -0.0886 -1.7227 0
M  V30 5 C 6.1829 -1.8997 0.1927 0
M  V30 6 C 7.6854 0.0838 0.6735 0
M  V30 7 C 3.8439 1.1767 -2.1312 0
M  V30 8 C 5.45 -2.0095 1.5317 0
M  V30 9 C 7.1865 1.242 1.5423 0
M  V30 10 C 2.4537 0.8597 -2.7072 0
M  V30 11 O 4.3164 -1.1872 1.5346 0
M  V30 12 O 8.2387 1.7628 2.3083 0
M  V30 13 C 1.4211 0.5331 -1.614 0
M  V30 14 C 0.0584 0.1035 -2.1881 0
M  V30 15 C -0.6508 1.164 -3.0552 0
M  V30 16 C -0.9325 2.4919 -2.3309 0
M  V30 17 C -1.7844 2.3089 -1.1031 0
M  V30 18 C -3.0768 1.9645 -1.191 0
M  V30 19 C -3.9143 1.7931 0.0469 0
M  V30 20 C -5.359 1.419 -0.3116 0
M  V30 21 C -6.297 1.4076 0.9086 0
M  V30 22 C -5.9484 0.3642 1.9856 0
M  V30 23 C -6.0236 -1.0797 1.4671 0
M  V30 24 C -5.9071 -2.0853 2.6225 0
M  V30 25 C -5.8371 -3.5407 2.135 0
M  V30 26 C -7.1633 -4.0354 1.5574 0
M  V30 27 H 4.7381 -0.7551 -2.6029 0
M  V30 28 H 4.0304 -0.6262 -0.9546 0
M  V30 29 H 7.0918 -2.539 0.2258 0
M  V30 30 H 5.5475 -2.3168 -0.6165 0
M  V30 31 H 8.1582 -0.6767 1.3333 0
M  V30 32 H 8.4728 0.4431 -0.0237 0
M  V30 33 H 4.4223 1.7109 -2.9166 0
M  V30 34 H 3.7468 1.8613 -1.2598 0
M  V30 35 H 5.1445 -3.0679 1.6884 0
M  V30 36 H 6.1331 -1.7158 2.3594 0
M  V30 37 H 6.398 0.8722 2.2311 0
M  V30 38 H 6.7397 2.0425 0.9099 0
M  V30 39 H 2.5261 0.0189 -3.4312 0
M  V30 40 H 2.1127 1.7583 -3.2636 0
M  V30 41 H 3.8976 -1.2986 2.4272 0
M  V30 42 H 8.8038 2.2953 1.6901 0
M  V30 43 H 1.2954 1.4036 -0.9359 0
M  V30 44 H 1.7922 -0.3078 -0.9924 0
M  V30 45 H 0.202 -0.8124 -2.8018 0
M  V30 46 H -0.607 -0.1806 -1.3444 0
M  V30 47 H -0.0501 1.368 -3.9664 0
M  V30 48 H -1.6138 0.7362 -3.4101 0
M  V30 49 H 0.0233 2.9798 -2.0473 0
M  V30 50 H -1.4484 3.1845 -3.0312 0
M  V30 51 H -1.3362 2.4868 -0.1287 0
M  V30 52 H -3.5232 1.8074 -2.1701 0
M  V30 53 H -3.9079 2.7441 0.6231 0
M  V30 54 H -3.4614 0.9921 0.6687 0
M  V30 55 H -5.3812 0.4352 -0.826 0
M  V30 56 H -5.7547 2.1705 -1.0299 0
M  V30 57 H -6.2906 2.416 1.3772 0
M  V30 58 H -7.3348 1.2237 0.5542 0
M  V30 59 H -4.9407 0.5655 2.4065 0
M  V30 60 H -6.6779 0.4863 2.8166 0
M  V30 61 H -6.9914 -1.227 0.9421 0
M  V30 62 H -5.1943 -1.2579 0.7499 0
M  V30 63 H -4.9772 -1.8694 3.1935 0
M  V30 64 H -6.7664 -1.964 3.3182 0
M  V30 65 H -5.0341 -3.6514 1.3741 0
M  V30 66 H -5.5716 -4.1876 2.9993 0
M  V30 67 H -7.986 -3.8882 2.2894 0
M  V30 68 H -7.4058 -3.5016 0.615 0
M  V30 69 H -7.0838 -5.1195 1.3291 0
M  V30 END ATOM
M  V30 BEGIN BOND
M  V30 1 2 1 2
M  V30 2 1 2 3
M  V30 3 1 2 4
M  V30 4 1 3 5
M  V30 5 1 3 6
M  V30 6 1 4 7
M  V30 7 1 5 8
M  V30 8 1 6 9
M  V30 9 1 7 10
M  V30 10 1 8 11
M  V30 11 1 9 12
M  V30 12 1 10 13
M  V30 13 1 13 14
M  V30 14 1 14 15
M  V30 15 1 15 16
M  V30 16 1 16 17
M  V30 17 2 17 18
M  V30 18 1 18 19
M  V30 19 1 19 20
M  V30 20 1 20 21
M  V30 21 1 21 22
M  V30 22 1 22 23
M  V30 23 1 23 24
M  V30 24 1 24 25
M  V30 25 1 25 26
M  V30 26 1 4 27
M  V30 27 1 4 28
M  V30 28 1 5 29
M  V30 29 1 5 30
M  V30 30 1 6 31
M  V30 31 1 6 32
M  V30 32 1 7 33
M  V30 33 1 7 34
M  V30 34 1 8 35
M  V30 35 1 8 36
M  V30 36 1 9 37
M  V30 37 1 9 38
M  V30 38 1 10 39
M  V30 39 1 10 40
M  V30 40 1 11 41
M  V30 41 1 12 42
M  V30 42 1 13 43
M  V30 43 1 13 44
M  V30 44 1 14 45
M  V30 45 1 14 46
M  V30 46 1 15 47
M  V30 47 1 15 48
M  V30 48 1 16 49
M  V30 49 1 16 50
M  V30 50 1 17 51
M  V30 51 1 18 52
M  V30 52 1 19 53
M  V30 53 1 19 54
M  V30 54 1 20 55
M  V30 55 1 20 56
M  V30 56 1 21 57
M  V30 57 1 21 58
M  V30 58 1 22 59
M  V30 59 1 22 60
M  V30 60 1 23 61
M  V30 61 1 23 62
M  V30 62 1 24 63
M  V30 63 1 24 64
M  V30 64 1 25 65
M  V30 65 1 25 66
M  V30 66 1 26 67
M  V30 67 1 26 68
M  V30 68 1 26 69
M  V30 END BOND
M  V30 END CTAB
M  END
>  <Structure No>
1049

>  <LogS>
-5.567720212

>  <MMFF94 Energy>
24.312

$$$$
Compound 1050
Actelion Java MolfileCreator 2.0

  0  0  0  0  0  0              0 V3000
M  V30 BEGIN CTAB
M  V30 COUNTS 56 56 0 0 0
M  V30 BEGIN ATOM
M  V30 1 O -4.1361 -3.8971 0.0794 0
M  V30 2 C -4.3148 -2.7518 -0.4218 0
M  V30 3 O -5.5539 -2.4231 -0.9822 0
M  V30 4 C -3.2174 -1.7518 -0.423 0
M  V30 5 C -6.6509 -3.33 -1.0128 0
M  V30 6 C -3.5183 -0.3728 -0.8768 0
M  V30 7 C -1.9672 -2.1306 -0.0784 0
M  V30 8 C -7.8431 -2.6637 -1.6806 0
M  V30 9 O -4.6347 0.1475 -0.6032 0
M  V30 10 O -2.58 0.3327 -1.6418 0
M  V30 11 C -0.8197 -1.2125 0.0874 0
M  V30 12 C -2.7852 1.6659 -2.1049 0
M  V30 13 C 0.4214 -1.5579 -0.4639 0
M  V30 14 C -0.9297 -0.0381 0.8516 0
M  V30 15 C -2.5668 2.6678 -0.9776 0
M  V30 16 C 1.5293 -0.7243 -0.2877 0
M  V30 17 C 0.1781 0.7952 1.0278 0
M  V30 18 C 1.4193 0.4497 0.4764 0
M  V30 19 C 2.5665 1.3677 0.6424 0
M  V30 20 C 3.8131 0.9912 0.9995 0
M  V30 21 C 4.9025 1.9999 0.9936 0
M  V30 22 C 4.1122 -0.3861 1.4638 0
M  V30 23 O 6.023 1.7232 1.5045 0
M  V30 24 O 4.6888 3.2613 0.4255 0
M  V30 25 O 5.2394 -0.8984 1.2213 0
M  V30 26 O 3.1594 -1.098 2.2048 0
M  V30 27 C 5.6912 4.272 0.3942 0
M  V30 28 C 3.3615 -2.4297 2.6735 0
M  V30 29 C 5.1403 5.5136 -0.2881 0
M  V30 30 C 3.1941 -3.4328 1.5382 0
M  V30 31 H -6.3697 -4.24 -1.5862 0
M  V30 32 H -6.9263 -3.6215 0.024 0
M  V30 33 H -1.7613 -3.1791 0.1015 0
M  V30 34 H -7.5824 -2.3746 -2.7206 0
M  V30 35 H -8.1379 -1.756 -1.1124 0
M  V30 36 H -8.7007 -3.3683 -1.7056 0
M  V30 37 H -3.8078 1.7762 -2.5273 0
M  V30 38 H -2.0552 1.8755 -2.9145 0
M  V30 39 H 0.5285 -2.4664 -1.0443 0
M  V30 40 H -1.8704 0.2308 1.3158 0
M  V30 41 H -2.7359 3.6978 -1.3563 0
M  V30 42 H -3.2715 2.4734 -0.1424 0
M  V30 43 H -1.5255 2.5923 -0.6016 0
M  V30 44 H 2.4704 -0.9933 -0.7511 0
M  V30 45 H 0.0709 1.7039 1.6077 0
M  V30 46 H 2.3615 2.4149 0.4536 0
M  V30 47 H 6.5766 3.9054 -0.1691 0
M  V30 48 H 5.9982 4.5285 1.4314 0
M  V30 49 H 4.3692 -2.5302 3.1319 0
M  V30 50 H 2.6041 -2.6481 3.4557 0
M  V30 51 H 4.2581 5.8934 0.2699 0
M  V30 52 H 4.837 5.2716 -1.3287 0
M  V30 53 H 5.9194 6.3045 -0.3135 0
M  V30 54 H 3.9338 -3.2367 0.7345 0
M  V30 55 H 2.1699 -3.3604 1.1168 0
M  V30 56 H 3.3496 -4.4621 1.9243 0
M  V30 END ATOM
M  V30 BEGIN BOND
M  V30 1 2 1 2
M  V30 2 1 2 3
M  V30 3 1 2 4
M  V30 4 1 3 5
M  V30 5 1 4 6
M  V30 6 2 4 7
M  V30 7 1 5 8
M  V30 8 2 6 9
M  V30 9 1 6 10
M  V30 10 1 7 11
M  V30 11 1 10 12
M  V30 12 2 11 13
M  V30 13 1 11 14
M  V30 14 1 12 15
M  V30 15 1 13 16
M  V30 16 2 14 17
M  V30 17 2 16 18
M  V30 18 1 18 19
M  V30 19 2 19 20
M  V30 20 1 20 21
M  V30 21 1 20 22
M  V30 22 2 21 23
M  V30 23 1 21 24
M  V30 24 2 22 25
M  V30 25 1 22 26
M  V30 26 1 24 27
M  V30 27 1 26 28
M  V30 28 1 27 29
M  V30 29 1 28 30
M  V30 30 1 17 18
M  V30 31 1 5 31
M  V30 32 1 5 32
M  V30 33 1 7 33
M  V30 34 1 8 34
M  V30 35 1 8 35
M  V30 36 1 8 36
M  V30 37 1 12 37
M  V30 38 1 12 38
M  V30 39 1 13 39
M  V30 40 1 14 40
M  V30 41 1 15 41
M  V30 42 1 15 42
M  V30 43 1 15 43
M  V30 44 1 16 44
M  V30 45 1 17 45
M  V30 46 1 19 46
M  V30 47 1 27 47
M  V30 48 1 27 48
M  V30 49 1 28 49
M  V30 50 1 28 50
M  V30 51 1 29 51
M  V30 52 1 29 52
M  V30 53 1 29 53
M  V30 54 1 30 54
M  V30 55 1 30 55
M  V30 56 1 30 56
M  V30 END BOND
M  V30 END CTAB
M  END
>  <Structure No>
1050

>  <LogS>
-5.621635269

>  <MMFF94 Energy>
-9.0236

$$$$
Compound 1051
Actelion Java MolfileCreator 2.0

  0  0  0  0  0  0              0 V3000
M  V30 BEGIN CTAB
M  V30 COUNTS 35 36 0 0 0
M  V30 BEGIN ATOM
M  V30 1 O 0.0792 -2.2216 -0.4757 0
M  V30 2 C 0.5853 -1.0673 -0.4353 0
M  V30 3 O -0.2253 0.0684 -0.5603 0
M  V30 4 C 2.0396 -0.9302 -0.2608 0
M  V30 5 C -1.6454 0.0113 -0.6772 0
M  V30 6 C 2.6394 0.2675 -0.2295 0
M  V30 7 C -2.2838 -0.2836 0.6821 0
M  V30 8 C 4.1024 0.4534 -0.066 0
M  V30 9 C -3.7845 -0.3061 0.5694 0
M  V30 10 C 4.6744 1.6733 -0.4675 0
M  V30 11 C 4.9337 -0.5307 0.5086 0
M  V30 12 C -4.4515 -1.4958 0.2323 0
M  V30 13 C -4.5271 0.8736 0.7454 0
M  V30 14 C 6.0471 1.8965 -0.3235 0
M  V30 15 C 6.306 -0.3012 0.6507 0
M  V30 16 C -5.8434 -1.5085 0.0967 0
M  V30 17 C -5.9188 0.8564 0.6089 0
M  V30 18 C 6.8626 0.9091 0.2323 0
M  V30 19 C -6.5766 -0.3338 0.2868 0
M  V30 20 H 2.6182 -1.8403 -0.1826 0
M  V30 21 H -2.0045 0.9974 -1.042 0
M  V30 22 H -1.9373 -0.7592 -1.4245 0
M  V30 23 H 2.0384 1.1587 -0.3709 0
M  V30 24 H -1.9685 0.4928 1.413 0
M  V30 25 H -1.922 -1.2618 1.0654 0
M  V30 26 H 4.0588 2.4522 -0.9012 0
M  V30 27 H 4.5322 -1.4662 0.8716 0
M  V30 28 H -3.8941 -2.4106 0.0736 0
M  V30 29 H -4.0288 1.8044 0.9865 0
M  V30 30 H 6.4783 2.8368 -0.6422 0
M  V30 31 H 6.9376 -1.0607 1.0932 0
M  V30 32 H -6.3532 -2.4283 -0.1591 0
M  V30 33 H -6.4872 1.7667 0.7495 0
M  V30 34 H 7.9248 1.084 0.3447 0
M  V30 35 H -7.6537 -0.3451 0.1803 0
M  V30 END ATOM
M  V30 BEGIN BOND
M  V30 1 2 1 2
M  V30 2 1 2 3
M  V30 3 1 2 4
M  V30 4 1 3 5
M  V30 5 2 4 6
M  V30 6 1 5 7
M  V30 7 1 6 8
M  V30 8 1 7 9
M  V30 9 2 8 10
M  V30 10 1 8 11
M  V30 11 2 9 12
M  V30 12 1 9 13
M  V30 13 1 10 14
M  V30 14 2 11 15
M  V30 15 1 12 16
M  V30 16 2 13 17
M  V30 17 2 14 18
M  V30 18 2 16 19
M  V30 19 1 15 18
M  V30 20 1 17 19
M  V30 21 1 4 20
M  V30 22 1 5 21
M  V30 23 1 5 22
M  V30 24 1 6 23
M  V30 25 1 7 24
M  V30 26 1 7 25
M  V30 27 1 10 26
M  V30 28 1 11 27
M  V30 29 1 12 28
M  V30 30 1 13 29
M  V30 31 1 14 30
M  V30 32 1 15 31
M  V30 33 1 16 32
M  V30 34 1 17 33
M  V30 35 1 18 34
M  V30 36 1 19 35
M  V30 END BOND
M  V30 END CTAB
M  END
>  <Structure No>
1051

>  <LogS>
-5.401939627

>  <MMFF94 Energy>
33.914

$$$$
Compound 1052
Actelion Java MolfileCreator 2.0

  0  0  0  0  0  0              0 V3000
M  V30 BEGIN CTAB
M  V30 COUNTS 64 63 0 0 0
M  V30 BEGIN ATOM
M  V30 1 O 7.6633 0.0779 1.0919 0
M  V30 2 C 6.905 0.792 0.3773 0
M  V30 3 N 7.4252 1.9491 -0.2939 0
M  V30 4 C 5.4613 0.4098 0.2276 0
M  V30 5 C 8.8376 2.3203 -0.2289 0
M  V30 6 C 5.3314 -0.9616 -0.4503 0
M  V30 7 C 9.6784 1.4125 -1.1309 0
M  V30 8 C 3.8761 -1.3271 -0.7835 0
M  V30 9 O 9.2748 1.5318 -2.47 0
M  V30 10 C 3.0032 -1.497 0.4708 0
M  V30 11 C 1.6599 -2.1879 0.1757 0
M  V30 12 C 0.7746 -1.4714 -0.8637 0
M  V30 13 C 0.4229 -0.0088 -0.5232 0
M  V30 14 C -0.299 0.194 0.8244 0
M  V30 15 C -1.611 -0.5952 0.9835 0
M  V30 16 C -2.6601 -0.2361 -0.0794 0
M  V30 17 C -4.0161 -0.8749 0.2458 0
M  V30 18 C -5.0364 -0.5927 -0.8672 0
M  V30 19 C -6.3724 -1.3288 -0.6562 0
M  V30 20 C -7.1706 -0.8836 0.5838 0
M  V30 21 C -7.601 0.5888 0.5226 0
M  V30 22 C -8.5873 0.9221 1.6485 0
M  V30 23 C -8.9682 2.401 1.6285 0
M  V30 24 H 6.7737 2.5718 -0.8224 0
M  V30 25 H 5.0008 0.3828 1.238 0
M  V30 26 H 4.9259 1.1749 -0.3761 0
M  V30 27 H 8.9572 3.3746 -0.5601 0
M  V30 28 H 9.1991 2.2527 0.8214 0
M  V30 29 H 5.7724 -1.7486 0.201 0
M  V30 30 H 5.9078 -0.9495 -1.4012 0
M  V30 31 H 10.7546 1.674 -1.0265 0
M  V30 32 H 9.5623 0.3547 -0.8151 0
M  V30 33 H 3.4437 -0.547 -1.4473 0
M  V30 34 H 3.8872 -2.285 -1.349 0
M  V30 35 H 9.6553 2.3857 -2.8059 0
M  V30 36 H 3.5487 -2.1218 1.2118 0
M  V30 37 H 2.8198 -0.5102 0.9463 0
M  V30 38 H 1.8611 -3.2192 -0.1895 0
M  V30 39 H 1.0973 -2.2965 1.1274 0
M  V30 40 H -0.1613 -2.0545 -0.9944 0
M  V30 41 H 1.2815 -1.4918 -1.8528 0
M  V30 42 H -0.2068 0.403 -1.3411 0
M  V30 43 H 1.3513 0.6005 -0.5231 0
M  V30 44 H 0.3859 -0.0785 1.6554 0
M  V30 45 H -0.5189 1.2782 0.9424 0
M  V30 46 H -2.0222 -0.361 1.9889 0
M  V30 47 H -1.407 -1.687 0.9604 0
M  V30 48 H -2.3188 -0.602 -1.0722 0
M  V30 49 H -2.7795 0.8693 -0.1277 0
M  V30 50 H -3.8888 -1.9747 0.3581 0
M  V30 51 H -4.385 -0.4571 1.2073 0
M  V30 52 H -4.613 -0.9422 -1.8347 0
M  V30 53 H -5.2045 0.5016 -0.963 0
M  V30 54 H -6.1746 -2.4212 -0.5787 0
M  V30 55 H -7.0037 -1.1815 -1.5598 0
M  V30 56 H -8.0796 -1.5218 0.6423 0
M  V30 57 H -6.5861 -1.0691 1.5091 0
M  V30 58 H -8.0832 0.7961 -0.4577 0
M  V30 59 H -6.7069 1.2399 0.6257 0
M  V30 60 H -9.5108 0.3133 1.5285 0
M  V30 61 H -8.1287 0.6823 2.6333 0
M  V30 62 H -9.4277 2.6685 0.6523 0
M  V30 63 H -8.0693 3.0322 1.7961 0
M  V30 64 H -9.7035 2.6069 2.4344 0
M  V30 END ATOM
M  V30 BEGIN BOND
M  V30 1 2 1 2
M  V30 2 1 2 3
M  V30 3 1 2 4
M  V30 4 1 3 5
M  V30 5 1 4 6
M  V30 6 1 5 7
M  V30 7 1 6 8
M  V30 8 1 7 9
M  V30 9 1 8 10
M  V30 10 1 10 11
M  V30 11 1 11 12
M  V30 12 1 12 13
M  V30 13 1 13 14
M  V30 14 1 14 15
M  V30 15 1 15 16
M  V30 16 1 16 17
M  V30 17 1 17 18
M  V30 18 1 18 19
M  V30 19 1 19 20
M  V30 20 1 20 21
M  V30 21 1 21 22
M  V30 22 1 22 23
M  V30 23 1 3 24
M  V30 24 1 4 25
M  V30 25 1 4 26
M  V30 26 1 5 27
M  V30 27 1 5 28
M  V30 28 1 6 29
M  V30 29 1 6 30
M  V30 30 1 7 31
M  V30 31 1 7 32
M  V30 32 1 8 33
M  V30 33 1 8 34
M  V30 34 1 9 35
M  V30 35 1 10 36
M  V30 36 1 10 37
M  V30 37 1 11 38
M  V30 38 1 11 39
M  V30 39 1 12 40
M  V30 40 1 12 41
M  V30 41 1 13 42
M  V30 42 1 13 43
M  V30 43 1 14 44
M  V30 44 1 14 45
M  V30 45 1 15 46
M  V30 46 1 15 47
M  V30 47 1 16 48
M  V30 48 1 16 49
M  V30 49 1 17 50
M  V30 50 1 17 51
M  V30 51 1 18 52
M  V30 52 1 18 53
M  V30 53 1 19 54
M  V30 54 1 19 55
M  V30 55 1 20 56
M  V30 56 1 20 57
M  V30 57 1 21 58
M  V30 58 1 21 59
M  V30 59 1 22 60
M  V30 60 1 22 61
M  V30 61 1 23 62
M  V30 62 1 23 63
M  V30 63 1 23 64
M  V30 END BOND
M  V30 END CTAB
M  END
>  <Structure No>
1052

>  <LogS>
-5.515281581

>  <MMFF94 Energy>
-15.12

$$$$
Compound 1053
Actelion Java MolfileCreator 2.0

  0  0  0  0  0  0              0 V3000
M  V30 BEGIN CTAB
M  V30 COUNTS 33 35 0 0 0
M  V30 BEGIN ATOM
M  V30 1 Cl 7.5768 -0.2437 -1.3004 0
M  V30 2 C 5.8799 -0.1217 -0.8729 0
M  V30 3 C 5.4687 0.7835 0.1101 0
M  V30 4 C 4.9378 -0.9383 -1.5061 0
M  V30 5 C 4.1166 0.8792 0.4534 0
M  V30 6 C 3.5846 -0.8438 -1.1652 0
M  V30 7 C 3.1602 0.0824 -0.1946 0
M  V30 8 N 1.7804 0.1833 0.1953 0
M  V30 9 C 0.675 0.0996 -0.7225 0
M  V30 10 O 0.8817 -0.0519 -1.9571 0
M  V30 11 C -0.719 0.1839 -0.2363 0
M  V30 12 C -1.1158 1.1636 0.6974 0
M  V30 13 C -1.6723 -0.7167 -0.7398 0
M  V30 14 O -0.2028 2.1138 1.155 0
M  V30 15 C -2.4427 1.2047 1.1495 0
M  V30 16 C -3.0011 -0.6736 -0.2945 0
M  V30 17 C -3.3886 0.2927 0.6627 0
M  V30 18 C -3.951 -1.5828 -0.7872 0
M  V30 19 C -4.7189 0.3337 1.1099 0
M  V30 20 C -5.2722 -1.5323 -0.3335 0
M  V30 21 C -5.6549 -0.5771 0.6121 0
M  V30 22 H 6.1951 1.4116 0.6102 0
M  V30 23 H 5.2536 -1.6533 -2.2549 0
M  V30 24 H 3.8104 1.5824 1.218 0
M  V30 25 H 2.8796 -1.5135 -1.6389 0
M  V30 26 H 1.5816 0.3806 1.2016 0
M  V30 27 H -1.3729 -1.4632 -1.4674 0
M  V30 28 H -0.4685 2.8314 1.8195 0
M  V30 29 H -2.7359 1.958 1.8716 0
M  V30 30 H -3.6723 -2.3303 -1.5203 0
M  V30 31 H -5.0339 1.0682 1.8418 0
M  V30 32 H -6.0013 -2.235 -0.7157 0
M  V30 33 H -6.6795 -0.5425 0.9597 0
M  V30 END ATOM
M  V30 BEGIN BOND
M  V30 1 1 1 2
M  V30 2 2 2 3
M  V30 3 1 2 4
M  V30 4 1 3 5
M  V30 5 2 4 6
M  V30 6 2 5 7
M  V30 7 1 7 8
M  V30 8 1 8 9
M  V30 9 2 9 10
M  V30 10 1 9 11
M  V30 11 1 11 12
M  V30 12 2 11 13
M  V30 13 1 12 14
M  V30 14 2 12 15
M  V30 15 1 13 16
M  V30 16 1 15 17
M  V30 17 2 16 18
M  V30 18 2 17 19
M  V30 19 1 18 20
M  V30 20 1 19 21
M  V30 21 1 6 7
M  V30 22 1 16 17
M  V30 23 2 20 21
M  V30 24 1 3 22
M  V30 25 1 4 23
M  V30 26 1 5 24
M  V30 27 1 6 25
M  V30 28 1 8 26
M  V30 29 1 13 27
M  V30 30 1 14 28
M  V30 31 1 15 29
M  V30 32 1 18 30
M  V30 33 1 19 31
M  V30 34 1 20 32
M  V30 35 1 21 33
M  V30 END BOND
M  V30 END CTAB
M  END
>  <Structure No>
1053

>  <LogS>
-5.473838643

>  <MMFF94 Energy>
37.35

$$$$
Compound 1054
Actelion Java MolfileCreator 2.0

  0  0  0  0  0  0              0 V3000
M  V30 BEGIN CTAB
M  V30 COUNTS 123 125 0 0 0
M  V30 BEGIN ATOM
M  V30 1 O -0.7135 -0.7135 1.9829 0
M  V30 2 C -0.3715 -0.4863 0.7912 0
M  V30 3 O -0.3987 0.8213 0.2915 0
M  V30 4 C 0.2409 -1.5811 -0.0727 0
M  V30 5 C -0.8273 1.9732 1.0185 0 CFG=2
M  V30 6 C 1.7521 -1.3576 -0.0264 0
M  V30 7 C -0.0667 -3.0218 0.4842 0
M  V30 8 C -0.1972 -1.4215 -1.5718 0
M  V30 9 C 0.212 2.3345 2.0739 0
M  V30 10 C -1.0193 3.1198 0.0106 0
M  V30 11 O 2.5538 -2.3228 -0.1548 0
M  V30 12 O 2.2467 -0.0482 0.0579 0
M  V30 13 C -1.484 -3.516 0.2865 0
M  V30 14 C -1.6729 -1.029 -1.8327 0
M  V30 15 C -0.156 3.6172 2.878 0
M  V30 16 C -0.6712 4.5552 0.5384 0
M  V30 17 C 3.6289 0.3007 -0.0041 0 CFG=1
M  V30 18 C -1.8008 -4.29 -0.8299 0
M  V30 19 C -2.4868 -3.1788 1.1911 0
M  V30 20 C -1.9453 -0.8574 -3.3319 0
M  V30 21 N -0.9052 4.6331 2.0283 0 CHG=1 CFG=1
M  V30 22 C 1.1651 4.1749 3.4927 0
M  V30 23 C -1.0509 3.1745 4.0749 0
M  V30 24 C -1.6084 5.5421 -0.2225 0
M  V30 25 C 0.7777 4.9331 0.1179 0
M  V30 26 C 4.1232 0.2103 -1.4486 0
M  V30 27 C 3.7642 1.742 0.4641 0
M  V30 28 C -3.1271 -4.6644 -1.1347 0
M  V30 29 C -3.8227 -3.5773 0.9997 0
M  V30 30 C -3.3834 -0.42 -3.5825 0
M  V30 31 C -0.8077 6.014 2.5694 0
M  V30 32 C 5.6013 0.6641 -1.613 0
M  V30 33 C 5.2148 2.2905 0.3845 0
M  V30 34 C -4.131 -4.3671 -0.151 0
M  V30 35 C -3.4328 -5.3417 -2.5108 0
M  V30 36 C -4.9256 -3.1675 2.0241 0
M  V30 37 N 5.8314 2.0271 -0.9792 0 CHG=1 CFG=1
M  V30 38 C 5.8484 0.7348 -3.1529 0
M  V30 39 C 6.54 -0.4518 -1.0778 0
M  V30 40 C 6.0466 1.7283 1.5711 0
M  V30 41 C 5.0842 3.8252 0.6388 0
M  V30 42 O -5.4386 -4.8439 -0.2615 0
M  V30 43 C -3.6664 -6.8553 -2.3244 0
M  V30 44 C -2.2545 -5.2082 -3.5188 0
M  V30 45 C -4.6381 -4.6673 -3.2214 0
M  V30 46 C -5.5534 -4.4252 2.6745 0
M  V30 47 C -6.0147 -2.3298 1.31 0
M  V30 48 C -4.3902 -2.2885 3.1872 0
M  V30 49 C 7.2506 2.4686 -1.0571 0
M  V30 50 H -1.803 1.7571 1.5149 0
M  V30 51 H 0.6063 -3.7593 -0.0045 0
M  V30 52 H 0.1895 -3.0758 1.5654 0
M  V30 53 H 0.0365 -2.3557 -2.1238 0
M  V30 54 H 0.4254 -0.6275 -2.0441 0
M  V30 55 H 1.1867 2.4461 1.5681 0
M  V30 56 H 0.3465 1.4756 2.7659 0
M  V30 57 H -2.0856 3.0756 -0.312 0
M  V30 58 H -0.4378 2.9076 -0.9175 0
M  V30 59 H -2.3714 -1.7862 -1.4315 0
M  V30 60 H -1.9176 -0.069 -1.3372 0
M  V30 61 H 4.2018 -0.3732 0.6677 0
M  V30 62 H -0.9837 -4.547 -1.4822 0
M  V30 63 H -2.1864 -2.6307 2.0631 0
M  V30 64 H -1.7615 -1.8149 -3.8613 0
M  V30 65 H -1.2525 -0.0911 -3.7505 0
M  V30 66 H -1.9272 4.4042 2.1309 0
M  V30 67 H 1.7472 3.3541 3.9743 0
M  V30 68 H 1.8098 4.6417 2.7204 0
M  V30 69 H 0.9675 4.9336 4.2781 0
M  V30 70 H -1.992 2.7015 3.7201 0
M  V30 71 H -1.3322 4.031 4.7168 0
M  V30 72 H -0.5244 2.4397 4.7218 0
M  V30 73 H -1.2926 6.5984 -0.0888 0
M  V30 74 H -2.6622 5.4435 0.1243 0
M  V30 75 H -1.5944 5.343 -1.3171 0
M  V30 76 H 0.8935 4.8654 -0.9847 0
M  V30 77 H 1.5497 4.2722 0.539 0
M  V30 78 H 1.0316 5.9742 0.3925 0
M  V30 79 H 3.4646 0.8516 -2.0806 0
M  V30 80 H 4.0004 -0.8312 -1.8146 0
M  V30 81 H 3.391 1.807 1.5118 0
M  V30 82 H 3.0942 2.3713 -0.1718 0
M  V30 83 H -3.5641 0.5691 -3.1046 0
M  V30 84 H -3.5604 -0.3116 -4.6707 0
M  V30 85 H -4.1003 -1.1654 -3.1697 0
M  V30 86 H 0.1881 6.4668 2.3765 0
M  V30 87 H -1.5954 6.6716 2.1537 0
M  V30 88 H -0.9903 6.0245 3.6638 0
M  V30 89 H 5.3335 2.6885 -1.6201 0
M  V30 90 H 5.4835 -0.1906 -3.6598 0
M  V30 91 H 5.3099 1.5954 -3.6074 0
M  V30 92 H 6.9251 0.8247 -3.4005 0
M  V30 93 H 6.4052 -1.3822 -1.6703 0
M  V30 94 H 6.3337 -0.7435 -0.0383 0
M  V30 95 H 7.6088 -0.1812 -1.1676 0
M  V30 96 H 5.5124 1.9059 2.5306 0
M  V30 97 H 7.0296 2.2299 1.6651 0
M  V30 98 H 6.2168 0.6458 1.5192 0
M  V30 99 H 6.0706 4.3096 0.7995 0
M  V30 100 H 4.5803 4.3317 -0.2152 0
M  V30 101 H 4.4781 4.0244 1.5505 0
M  V30 102 H -5.7292 -5.6534 -0.7847 0
M  V30 103 H -3.8422 -7.3512 -3.3043 0
M  V30 104 H -2.7657 -7.3211 -1.8558 0
M  V30 105 H -4.5322 -7.0977 -1.6828 0
M  V30 106 H -2.5421 -5.565 -4.5337 0
M  V30 107 H -1.9302 -4.1524 -3.6107 0
M  V30 108 H -1.3877 -5.8313 -3.214 0
M  V30 109 H -5.598 -4.7609 -2.6948 0
M  V30 110 H -4.8109 -5.1229 -4.2216 0
M  V30 111 H -4.4353 -3.5836 -3.369 0
M  V30 112 H -4.7591 -5.0977 3.0564 0
M  V30 113 H -6.1898 -5.0012 1.9766 0
M  V30 114 H -6.2103 -4.1472 3.5271 0
M  V30 115 H -5.5555 -1.4482 0.8072 0
M  V30 116 H -6.7701 -1.957 2.0352 0
M  V30 117 H -6.5725 -2.9072 0.5449 0
M  V30 118 H -3.9491 -1.3464 2.8018 0
M  V30 119 H -3.6317 -2.8413 3.7874 0
M  V30 120 H -5.2088 -2.0083 3.8821 0
M  V30 121 H 7.6463 2.3979 -2.087 0
M  V30 122 H 7.3587 3.5409 -0.7921 0
M  V30 123 H 7.9034 1.8758 -0.3868 0
M  V30 END ATOM
M  V30 BEGIN BOND
M  V30 1 2 1 2
M  V30 2 1 2 3
M  V30 3 1 2 4
M  V30 4 1 3 5
M  V30 5 1 4 6
M  V30 6 1 4 7
M  V30 7 1 4 8
M  V30 8 1 5 9
M  V30 9 1 5 10
M  V30 10 2 6 11
M  V30 11 1 6 12
M  V30 12 1 7 13
M  V30 13 1 8 14
M  V30 14 1 9 15
M  V30 15 1 10 16
M  V30 16 1 12 17
M  V30 17 2 13 18
M  V30 18 1 13 19
M  V30 19 1 14 20
M  V30 20 1 15 21
M  V30 21 1 15 22
M  V30 22 1 15 23
M  V30 23 1 16 24
M  V30 24 1 16 25
M  V30 25 1 17 26
M  V30 26 1 17 27
M  V30 27 1 18 28
M  V30 28 2 19 29
M  V30 29 1 20 30
M  V30 30 1 21 31
M  V30 31 1 26 32
M  V30 32 1 27 33
M  V30 33 2 28 34
M  V30 34 1 28 35
M  V30 35 1 29 36
M  V30 36 1 32 37
M  V30 37 1 32 38
M  V30 38 1 32 39
M  V30 39 1 33 40
M  V30 40 1 33 41
M  V30 41 1 34 42
M  V30 42 1 35 43
M  V30 43 1 35 44
M  V30 44 1 35 45
M  V30 45 1 36 46
M  V30 46 1 36 47
M  V30 47 1 36 48
M  V30 48 1 37 49
M  V30 49 1 16 21
M  V30 50 1 29 34
M  V30 51 1 33 37
M  V30 52 1 5 50
M  V30 53 1 7 51
M  V30 54 1 7 52
M  V30 55 1 8 53
M  V30 56 1 8 54
M  V30 57 1 9 55
M  V30 58 1 9 56
M  V30 59 1 10 57
M  V30 60 1 10 58
M  V30 61 1 14 59
M  V30 62 1 14 60
M  V30 63 1 17 61
M  V30 64 1 18 62
M  V30 65 1 19 63
M  V30 66 1 20 64
M  V30 67 1 20 65
M  V30 68 1 21 66
M  V30 69 1 22 67
M  V30 70 1 22 68
M  V30 71 1 22 69
M  V30 72 1 23 70
M  V30 73 1 23 71
M  V30 74 1 23 72
M  V30 75 1 24 73
M  V30 76 1 24 74
M  V30 77 1 24 75
M  V30 78 1 25 76
M  V30 79 1 25 77
M  V30 80 1 25 78
M  V30 81 1 26 79
M  V30 82 1 26 80
M  V30 83 1 27 81
M  V30 84 1 27 82
M  V30 85 1 30 83
M  V30 86 1 30 84
M  V30 87 1 30 85
M  V30 88 1 31 86
M  V30 89 1 31 87
M  V30 90 1 31 88
M  V30 91 1 37 89
M  V30 92 1 38 90
M  V30 93 1 38 91
M  V30 94 1 38 92
M  V30 95 1 39 93
M  V30 96 1 39 94
M  V30 97 1 39 95
M  V30 98 1 40 96
M  V30 99 1 40 97
M  V30 100 1 40 98
M  V30 101 1 41 99
M  V30 102 1 41 100
M  V30 103 1 41 101
M  V30 104 1 42 102
M  V30 105 1 43 103
M  V30 106 1 43 104
M  V30 107 1 43 105
M  V30 108 1 44 106
M  V30 109 1 44 107
M  V30 110 1 44 108
M  V30 111 1 45 109
M  V30 112 1 45 110
M  V30 113 1 45 111
M  V30 114 1 46 112
M  V30 115 1 46 113
M  V30 116 1 46 114
M  V30 117 1 47 115
M  V30 118 1 47 116
M  V30 119 1 47 117
M  V30 120 1 48 118
M  V30 121 1 48 119
M  V30 122 1 48 120
M  V30 123 1 49 121
M  V30 124 1 49 122
M  V30 125 1 49 123
M  V30 END BOND
M  V30 BEGIN COLLECTION
M  V30 MDLV30/STEABS ATOMS=(4 5 17 21 37)
M  V30 END COLLECTION
M  V30 END CTAB
M  END
>  <Structure No>
1054

>  <LogS>
-5.835720369

>  <MMFF94 Energy>
123.75

$$$$
Compound 1055
Actelion Java MolfileCreator 2.0

  0  0  0  0  0  0              0 V3000
M  V30 BEGIN CTAB
M  V30 COUNTS 47 49 0 0 0
M  V30 BEGIN ATOM
M  V30 1 O 3.8642 1.7697 0.4824 0
M  V30 2 C 3.8182 0.5117 0.4287 0
M  V30 3 O 2.7277 -0.1576 -0.1477 0
M  V30 4 C 4.9162 -0.2879 1.0416 0
M  V30 5 C 1.5733 0.4445 -0.7549 0 CFG=1
M  V30 6 C 0.5561 -0.7167 -1.1005 0 CFG=1
M  V30 7 C 0.9229 1.4998 0.2065 0
M  V30 8 C 2.0467 1.1434 -2.0561 0
M  V30 9 C -0.0104 -1.5377 0.1193 0
M  V30 10 C -0.7209 -0.1002 -1.6766 0
M  V30 11 C -0.5834 1.7646 -0.0414 0
M  V30 12 C -1.1749 -0.624 0.6426 0 CFG=1
M  V30 13 C -0.4796 -2.9314 -0.3892 0
M  V30 14 C 1.0057 -1.8316 1.2515 0
M  V30 15 C -1.3744 0.4766 -0.4232 0 CFG=2
M  V30 16 C -2.5628 -1.2387 0.8756 0
M  V30 17 C -2.9176 0.6547 -0.5742 0 CFG=1
M  V30 18 C -3.5275 -0.0983 0.6065 0
M  V30 19 C -3.435 2.0987 -0.656 0
M  V30 20 H 4.7304 -0.3958 2.1303 0
M  V30 21 H 4.9547 -1.2956 0.5775 0
M  V30 22 H 5.8919 0.2178 0.883 0
M  V30 23 H 1.0244 -1.3945 -1.8491 0
M  V30 24 H 1.4558 2.4721 0.1297 0
M  V30 25 H 1.0511 1.1845 1.2602 0
M  V30 26 H 2.9375 1.7759 -1.8681 0
M  V30 27 H 1.2748 1.8198 -2.4745 0
M  V30 28 H 2.3274 0.392 -2.8243 0
M  V30 29 H -1.3505 -0.8833 -2.1483 0
M  V30 30 H -0.5605 0.6634 -2.4622 0
M  V30 31 H -0.6758 2.514 -0.8572 0
M  V30 32 H -1.0125 2.2174 0.8785 0
M  V30 33 H -0.8898 -0.1525 1.6114 0
M  V30 34 H -1.2074 -2.8666 -1.2213 0
M  V30 35 H 0.3888 -3.5143 -0.765 0
M  V30 36 H -0.9445 -3.5175 0.4329 0
M  V30 37 H 1.3474 -0.9218 1.7767 0
M  V30 38 H 1.8916 -2.3707 0.8526 0
M  V30 39 H 0.536 -2.4736 2.0278 0
M  V30 40 H -2.807 -2.0504 0.1623 0
M  V30 41 H -2.6688 -1.6215 1.9137 0
M  V30 42 H -3.2664 0.1427 -1.4995 0
M  V30 43 H -3.5799 0.5552 1.5063 0
M  V30 44 H -4.5457 -0.4767 0.3683 0
M  V30 45 H -4.5362 2.0921 -0.8023 0
M  V30 46 H -2.9784 2.6187 -1.5241 0
M  V30 47 H -3.2156 2.6642 0.2734 0
M  V30 END ATOM
M  V30 BEGIN BOND
M  V30 1 2 1 2
M  V30 2 1 2 3
M  V30 3 1 2 4
M  V30 4 1 3 5
M  V30 5 1 5 6
M  V30 6 1 5 7
M  V30 7 1 5 8
M  V30 8 1 6 9
M  V30 9 1 6 10
M  V30 10 1 7 11
M  V30 11 1 9 12
M  V30 12 1 9 13
M  V30 13 1 9 14
M  V30 14 1 10 15
M  V30 15 1 12 16
M  V30 16 1 15 17
M  V30 17 1 16 18
M  V30 18 1 17 19
M  V30 19 1 11 15
M  V30 20 1 12 15
M  V30 21 1 17 18
M  V30 22 1 4 20
M  V30 23 1 4 21
M  V30 24 1 4 22
M  V30 25 1 6 23
M  V30 26 1 7 24
M  V30 27 1 7 25
M  V30 28 1 8 26
M  V30 29 1 8 27
M  V30 30 1 8 28
M  V30 31 1 10 29
M  V30 32 1 10 30
M  V30 33 1 11 31
M  V30 34 1 11 32
M  V30 35 1 12 33
M  V30 36 1 13 34
M  V30 37 1 13 35
M  V30 38 1 13 36
M  V30 39 1 14 37
M  V30 40 1 14 38
M  V30 41 1 14 39
M  V30 42 1 16 40
M  V30 43 1 16 41
M  V30 44 1 17 42
M  V30 45 1 18 43
M  V30 46 1 18 44
M  V30 47 1 19 45
M  V30 48 1 19 46
M  V30 49 1 19 47
M  V30 END BOND
M  V30 BEGIN COLLECTION
M  V30 MDLV30/STEABS ATOMS=(5 5 6 12 15 17)
M  V30 END COLLECTION
M  V30 END CTAB
M  END
>  <Structure No>
1055

>  <LogS>
-5.426641039

>  <MMFF94 Energy>
71.062

$$$$
Compound 1056
Actelion Java MolfileCreator 2.0

  0  0  0  0  0  0              0 V3000
M  V30 BEGIN CTAB
M  V30 COUNTS 56 55 0 0 0
M  V30 BEGIN ATOM
M  V30 1 O -9.2001 -0.7053 -2.5097 0
M  V30 2 C -8.8397 -1.1521 -1.3886 0
M  V30 3 O -9.7637 -1.7938 -0.5733 0 CHG=-1
M  V30 4 C -7.435 -0.9533 -0.9143 0
M  V30 5 C -7.3246 0.3391 -0.0949 0
M  V30 6 C -5.9231 0.5386 0.5034 0
M  V30 7 C -4.8811 0.936 -0.5571 0
M  V30 8 C -3.517 1.2884 0.0597 0
M  V30 9 C -2.7278 0.0379 0.4858 0
M  V30 10 C -1.3953 0.378 1.1729 0
M  V30 11 C -0.3471 0.9326 0.1923 0
M  V30 12 C 1.0108 1.2106 0.862 0
M  V30 13 C 1.7594 -0.0329 1.3815 0
M  V30 14 C 2.102 -1.0571 0.2756 0 CFG=2
M  V30 15 O 0.9742 -1.8634 0.0429 0
M  V30 16 C 3.2946 -1.9591 0.689 0
M  V30 17 C 4.6348 -1.5277 0.0668 0
M  V30 18 C 5.1399 -0.1793 0.6068 0
M  V30 19 C 6.578 0.1337 0.1646 0
M  V30 20 C 6.6794 0.4371 -1.3372 0
M  V30 21 C 8.0919 0.8739 -1.7165 0
M  V30 22 H -7.1408 -1.8229 -0.2886 0
M  V30 23 H -6.7596 -0.9132 -1.7946 0
M  V30 24 H -8.0531 0.2916 0.745 0
M  V30 25 H -7.5954 1.2141 -0.7261 0
M  V30 26 H -5.6132 -0.3884 1.0291 0
M  V30 27 H -5.987 1.3496 1.2612 0
M  V30 28 H -5.2532 1.831 -1.1028 0
M  V30 29 H -4.7498 0.1199 -1.2994 0
M  V30 30 H -3.6568 1.9692 0.9279 0
M  V30 31 H -2.9361 1.8385 -0.7098 0
M  V30 32 H -2.5388 -0.6098 -0.3982 0
M  V30 33 H -3.3336 -0.5498 1.207 0
M  V30 34 H -1.0139 -0.5598 1.6275 0
M  V30 35 H -1.5687 1.1065 1.9955 0
M  V30 36 H -0.2187 0.2458 -0.6707 0
M  V30 37 H -0.7113 1.8991 -0.216 0
M  V30 38 H 0.8555 1.9115 1.7119 0
M  V30 39 H 1.6627 1.7352 0.1292 0
M  V30 40 H 1.1838 -0.5254 2.1933 0
M  V30 41 H 2.6921 0.3348 1.8569 0
M  V30 42 H 2.3579 -0.5033 -0.6591 0
M  V30 43 H 1.0811 -2.2557 -0.8633 0
M  V30 44 H 3.1005 -2.9983 0.343 0
M  V30 45 H 3.3904 -2.019 1.7957 0
M  V30 46 H 4.523 -1.4811 -1.0373 0
M  V30 47 H 5.3872 -2.314 0.2957 0
M  V30 48 H 4.4683 0.6406 0.2733 0
M  V30 49 H 5.1228 -0.2087 1.7186 0
M  V30 50 H 6.9252 1.0233 0.7344 0
M  V30 51 H 7.2465 -0.7153 0.4261 0
M  V30 52 H 6.4233 -0.4679 -1.9266 0
M  V30 53 H 5.9685 1.2479 -1.6066 0
M  V30 54 H 8.8214 0.071 -1.4766 0
M  V30 55 H 8.3703 1.7995 -1.1682 0
M  V30 56 H 8.1356 1.0808 -2.8065 0
M  V30 END ATOM
M  V30 BEGIN BOND
M  V30 1 2 1 2
M  V30 2 1 2 3
M  V30 3 1 2 4
M  V30 4 1 4 5
M  V30 5 1 5 6
M  V30 6 1 6 7
M  V30 7 1 7 8
M  V30 8 1 8 9
M  V30 9 1 9 10
M  V30 10 1 10 11
M  V30 11 1 11 12
M  V30 12 1 12 13
M  V30 13 1 13 14
M  V30 14 1 14 15
M  V30 15 1 14 16
M  V30 16 1 16 17
M  V30 17 1 17 18
M  V30 18 1 18 19
M  V30 19 1 19 20
M  V30 20 1 20 21
M  V30 21 1 4 22
M  V30 22 1 4 23
M  V30 23 1 5 24
M  V30 24 1 5 25
M  V30 25 1 6 26
M  V30 26 1 6 27
M  V30 27 1 7 28
M  V30 28 1 7 29
M  V30 29 1 8 30
M  V30 30 1 8 31
M  V30 31 1 9 32
M  V30 32 1 9 33
M  V30 33 1 10 34
M  V30 34 1 10 35
M  V30 35 1 11 36
M  V30 36 1 11 37
M  V30 37 1 12 38
M  V30 38 1 12 39
M  V30 39 1 13 40
M  V30 40 1 13 41
M  V30 41 1 14 42
M  V30 42 1 15 43
M  V30 43 1 16 44
M  V30 44 1 16 45
M  V30 45 1 17 46
M  V30 46 1 17 47
M  V30 47 1 18 48
M  V30 48 1 18 49
M  V30 49 1 19 50
M  V30 50 1 19 51
M  V30 51 1 20 52
M  V30 52 1 20 53
M  V30 53 1 21 54
M  V30 54 1 21 55
M  V30 55 1 21 56
M  V30 END BOND
M  V30 BEGIN COLLECTION
M  V30 MDLV30/STEABS ATOMS=(1 14)
M  V30 END COLLECTION
M  V30 END CTAB
M  END
>  <Structure No>
1056

>  <LogS>
-5.488370089

>  <MMFF94 Energy>
6.6063

$$$$
Compound 1057
Actelion Java MolfileCreator 2.0

  0  0  0  0  0  0              0 V3000
M  V30 BEGIN CTAB
M  V30 COUNTS 44 51 0 0 0
M  V30 BEGIN ATOM
M  V30 1 O -3.6152 0.4924 2.6283 0
M  V30 2 C -2.8975 0.3055 1.6082 0
M  V30 3 N -3.4647 0.0994 0.3855 0
M  V30 4 C -1.4883 0.305 1.7053 0
M  V30 5 C -2.7494 -0.1069 -0.7464 0
M  V30 6 C -4.7492 0.046 -0.0124 0
M  V30 7 C -0.7155 0.0906 0.5316 0
M  V30 8 C -0.8341 0.5109 2.9323 0
M  V30 9 N -3.5155 -0.2904 -1.8538 0
M  V30 10 C -1.351 -0.1192 -0.7172 0
M  V30 11 C -4.768 -0.1892 -1.3629 0
M  V30 12 C -5.9285 0.1895 0.7259 0
M  V30 13 C 0.6948 0.0862 0.6066 0
M  V30 14 C 0.561 0.5065 3.0066 0
M  V30 15 C -0.5816 -0.3301 -1.8718 0
M  V30 16 C -5.9612 -0.2982 -2.0728 0
M  V30 17 C -7.1488 0.0838 0.0327 0
M  V30 18 C 1.3401 0.2961 1.8557 0
M  V30 19 C 1.4578 -0.1281 -0.5679 0
M  V30 20 C 0.8135 -0.3346 -1.7977 0
M  V30 21 C -7.1654 -0.1586 -1.3588 0
M  V30 22 C 2.7517 0.2877 1.9087 0
M  V30 23 C 2.8513 -0.1246 -0.4486 0
M  V30 24 O 3.3584 0.4705 2.9992 0
M  V30 25 N 3.4438 0.0776 0.753 0
M  V30 26 N 3.7291 -0.3134 -1.4686 0
M  V30 27 C 4.7628 0.0159 0.4933 0
M  V30 28 C 4.9232 -0.22 -0.8478 0
M  V30 29 C 5.8582 0.1522 1.3525 0
M  V30 30 C 6.1842 -0.3367 -1.4273 0
M  V30 31 C 7.1442 0.0386 0.7926 0
M  V30 32 C 7.3066 -0.2045 -0.5895 0
M  V30 33 H -1.4003 0.6765 3.8409 0
M  V30 34 H -5.9248 0.3751 1.79 0
M  V30 35 H 1.0287 0.6687 3.97 0
M  V30 36 H -1.0564 -0.4917 -2.8318 0
M  V30 37 H -5.9634 -0.484 -3.139 0
M  V30 38 H -8.0822 0.1893 0.5704 0
M  V30 39 H 1.3864 -0.4993 -2.7019 0
M  V30 40 H -8.1108 -0.2376 -1.8795 0
M  V30 41 H 5.7428 0.3381 2.4103 0
M  V30 42 H 6.298 -0.523 -2.4872 0
M  V30 43 H 8.016 0.1383 1.4261 0
M  V30 44 H 8.3013 -0.2897 -1.0072 0
M  V30 END ATOM
M  V30 BEGIN BOND
M  V30 1 2 1 2
M  V30 2 1 2 3
M  V30 3 1 2 4
M  V30 4 1 3 5
M  V30 5 1 3 6
M  V30 6 1 4 7
M  V30 7 2 4 8
M  V30 8 2 5 9
M  V30 9 1 5 10
M  V30 10 2 6 11
M  V30 11 1 6 12
M  V30 12 1 7 13
M  V30 13 1 8 14
M  V30 14 1 10 15
M  V30 15 1 11 16
M  V30 16 2 12 17
M  V30 17 1 13 18
M  V30 18 2 13 19
M  V30 19 2 15 20
M  V30 20 2 16 21
M  V30 21 1 18 22
M  V30 22 1 19 23
M  V30 23 2 22 24
M  V30 24 1 22 25
M  V30 25 2 23 26
M  V30 26 1 25 27
M  V30 27 1 26 28
M  V30 28 1 27 29
M  V30 29 1 28 30
M  V30 30 2 29 31
M  V30 31 2 30 32
M  V30 32 2 7 10
M  V30 33 1 9 11
M  V30 34 2 14 18
M  V30 35 1 17 21
M  V30 36 1 19 20
M  V30 37 1 23 25
M  V30 38 2 27 28
M  V30 39 1 31 32
M  V30 40 1 8 33
M  V30 41 1 12 34
M  V30 42 1 14 35
M  V30 43 1 15 36
M  V30 44 1 16 37
M  V30 45 1 17 38
M  V30 46 1 20 39
M  V30 47 1 21 40
M  V30 48 1 29 41
M  V30 49 1 30 42
M  V30 50 1 31 43
M  V30 51 1 32 44
M  V30 END BOND
M  V30 END CTAB
M  END
>  <Structure No>
1057

>  <LogS>
-5.633055848

>  <MMFF94 Energy>
117.9

$$$$
Compound 1058
Actelion Java MolfileCreator 2.0

  0  0  0  0  0  0              0 V3000
M  V30 BEGIN CTAB
M  V30 COUNTS 35 36 0 0 0
M  V30 BEGIN ATOM
M  V30 1 O 3.5344 1.8463 -3.2931 0
M  V30 2 C 4.0018 3.0998 -2.9931 0
M  V30 3 C 2.7204 1.0969 -2.432 0
M  V30 4 N 4.3968 4.1579 -2.7407 0
M  V30 5 C 2.3153 1.5724 -1.173 0
M  V30 6 C 2.3029 -0.1701 -2.8458 0
M  V30 7 C 1.5021 0.7885 -0.3513 0
M  V30 8 C 1.489 -0.9577 -2.0266 0
M  V30 9 C 1.0571 -0.4846 -0.7671 0
M  V30 10 C 0.1839 -1.3227 0.1872 0
M  V30 11 C -0.9911 -0.4644 0.6954 0
M  V30 12 C -0.4306 -2.5711 -0.4911 0
M  V30 13 C 1.1089 -1.82 1.3243 0
M  V30 14 C -1.3521 -0.3885 2.0595 0
M  V30 15 C -1.7867 0.2332 -0.2384 0
M  V30 16 C -2.4434 0.3831 2.47 0
M  V30 17 C -2.8758 1.0029 0.1757 0
M  V30 18 C -3.2131 1.0882 1.5282 0
M  V30 19 O -4.3142 1.8753 1.8938 0
M  V30 20 C -4.7358 2.033 3.1887 0
M  V30 21 N -5.0925 2.1668 4.2816 0
M  V30 22 H 2.6274 2.5462 -0.8195 0
M  V30 23 H 2.6149 -0.5504 -3.8104 0
M  V30 24 H 1.2151 1.1795 0.617 0
M  V30 25 H 1.2074 -1.9326 -2.3955 0
M  V30 26 H -1.0034 -2.2901 -1.401 0
M  V30 27 H 0.3547 -3.305 -0.7734 0
M  V30 28 H -1.1281 -3.0857 0.2055 0
M  V30 29 H 0.5819 -2.5386 1.9886 0
M  V30 30 H 1.4806 -0.9707 1.9371 0
M  V30 31 H 1.9917 -2.3478 0.9017 0
M  V30 32 H -0.8025 -0.9178 2.8235 0
M  V30 33 H -1.5609 0.1832 -1.2963 0
M  V30 34 H -2.6845 0.4227 3.5242 0
M  V30 35 H -3.4644 1.5347 -0.5613 0
M  V30 END ATOM
M  V30 BEGIN BOND
M  V30 1 1 1 2
M  V30 2 1 1 3
M  V30 3 3 2 4
M  V30 4 2 3 5
M  V30 5 1 3 6
M  V30 6 1 5 7
M  V30 7 2 6 8
M  V30 8 2 7 9
M  V30 9 1 9 10
M  V30 10 1 10 11
M  V30 11 1 10 12
M  V30 12 1 10 13
M  V30 13 2 11 14
M  V30 14 1 11 15
M  V30 15 1 14 16
M  V30 16 2 15 17
M  V30 17 2 16 18
M  V30 18 1 18 19
M  V30 19 1 19 20
M  V30 20 3 20 21
M  V30 21 1 8 9
M  V30 22 1 17 18
M  V30 23 1 5 22
M  V30 24 1 6 23
M  V30 25 1 7 24
M  V30 26 1 8 25
M  V30 27 1 12 26
M  V30 28 1 12 27
M  V30 29 1 12 28
M  V30 30 1 13 29
M  V30 31 1 13 30
M  V30 32 1 13 31
M  V30 33 1 14 32
M  V30 34 1 15 33
M  V30 35 1 16 34
M  V30 36 1 17 35
M  V30 END BOND
M  V30 END CTAB
M  END
>  <Structure No>
1058

>  <LogS>
-5.469558378

>  <MMFF94 Energy>
77.393

$$$$
Compound 1059
Actelion Java MolfileCreator 2.0

  0  0  0  0  0  0              0 V3000
M  V30 BEGIN CTAB
M  V30 COUNTS 36 35 0 0 0
M  V30 BEGIN ATOM
M  V30 1 N 4.4403 -0.4666 5.0647 0
M  V30 2 C 4.5864 -0.6925 3.9393 0
M  V30 3 C 4.7716 -0.9795 2.5108 0
M  V30 4 C 3.5675 -0.515 1.6826 0
M  V30 5 C 2.3214 -1.3818 1.9353 0
M  V30 6 C 1.0827 -0.8674 1.1851 0
M  V30 7 C 1.1885 -1.0637 -0.3374 0
M  V30 8 C -0.1424 -0.7991 -1.0588 0
M  V30 9 C -0.5566 0.6823 -1.0066 0
M  V30 10 C -1.7311 1.0031 -1.945 0
M  V30 11 C -3.0612 0.4102 -1.4492 0
M  V30 12 C -4.2374 0.7439 -2.3802 0
M  V30 13 C -4.6721 2.2064 -2.2857 0
M  V30 14 H 4.9388 -2.0688 2.3721 0
M  V30 15 H 5.6799 -0.4433 2.1633 0
M  V30 16 H 3.8487 -0.5822 0.6105 0
M  V30 17 H 3.3451 0.5512 1.9105 0
M  V30 18 H 2.5276 -2.4351 1.6444 0
M  V30 19 H 2.0864 -1.3744 3.0217 0
M  V30 20 H 0.9294 0.2069 1.4233 0
M  V30 21 H 0.1984 -1.427 1.5615 0
M  V30 22 H 1.971 -0.3964 -0.7572 0
M  V30 23 H 1.4892 -2.1131 -0.5484 0
M  V30 24 H -0.9339 -1.4361 -0.61 0
M  V30 25 H -0.0224 -1.1058 -2.1207 0
M  V30 26 H -0.8278 0.9682 0.0322 0
M  V30 27 H 0.3079 1.3097 -1.3153 0
M  V30 28 H -1.5073 0.6326 -2.9692 0
M  V30 29 H -1.8218 2.1083 -1.9995 0
M  V30 30 H -2.9737 -0.6956 -1.4065 0
M  V30 31 H -3.2807 0.7717 -0.4207 0
M  V30 32 H -3.9751 0.4995 -3.4324 0
M  V30 33 H -5.1025 0.1072 -2.0939 0
M  V30 34 H -4.8869 2.4816 -1.2312 0
M  V30 35 H -3.8887 2.8786 -2.6917 0
M  V30 36 H -5.596 2.3551 -2.8834 0
M  V30 END ATOM
M  V30 BEGIN BOND
M  V30 1 3 1 2
M  V30 2 1 2 3
M  V30 3 1 3 4
M  V30 4 1 4 5
M  V30 5 1 5 6
M  V30 6 1 6 7
M  V30 7 1 7 8
M  V30 8 1 8 9
M  V30 9 1 9 10
M  V30 10 1 10 11
M  V30 11 1 11 12
M  V30 12 1 12 13
M  V30 13 1 3 14
M  V30 14 1 3 15
M  V30 15 1 4 16
M  V30 16 1 4 17
M  V30 17 1 5 18
M  V30 18 1 5 19
M  V30 19 1 6 20
M  V30 20 1 6 21
M  V30 21 1 7 22
M  V30 22 1 7 23
M  V30 23 1 8 24
M  V30 24 1 8 25
M  V30 25 1 9 26
M  V30 26 1 9 27
M  V30 27 1 10 28
M  V30 28 1 10 29
M  V30 29 1 11 30
M  V30 30 1 11 31
M  V30 31 1 12 32
M  V30 32 1 12 33
M  V30 33 1 13 34
M  V30 34 1 13 35
M  V30 35 1 13 36
M  V30 END BOND
M  V30 END CTAB
M  END
>  <Structure No>
1059

>  <LogS>
-5.289969947

>  <MMFF94 Energy>
-1.1197

$$$$
Compound 1060
Actelion Java MolfileCreator 2.0

  0  0  0  0  0  0              0 V3000
M  V30 BEGIN CTAB
M  V30 COUNTS 25 26 0 0 0
M  V30 BEGIN ATOM
M  V30 1 Cl 5.1283 0.3413 1.8782 0
M  V30 2 C 3.7022 0.1726 0.8709 0
M  V30 3 C 3.1399 1.298 0.2588 0
M  V30 4 C 3.1228 -1.0866 0.6825 0
M  V30 5 C 2.0021 1.1646 -0.543 0
M  V30 6 C 1.985 -1.2216 -0.119 0
M  V30 7 C 1.4244 -0.0972 -0.7413 0
M  V30 8 S -0.0217 -0.2623 -1.7291 0
M  V30 9 O -0.0252 0.7814 -2.8112 0
M  V30 10 O -0.0423 -1.6147 -2.3855 0
M  V30 11 C -1.44 -0.0705 -0.7063 0
M  V30 12 C -2.0063 -1.1843 -0.0703 0
M  V30 13 C -1.989 1.202 -0.494 0
M  V30 14 C -3.1215 -1.0281 0.7587 0
M  V30 15 C -3.1043 1.3566 0.3353 0
M  V30 16 C -3.6725 0.2418 0.9612 0
M  V30 17 Cl -5.0702 0.4368 2.0029 0
M  V30 18 H 3.5812 2.2756 0.4057 0
M  V30 19 H 3.5507 -1.9597 1.1582 0
M  V30 20 H 1.5707 2.0438 -1.0043 0
M  V30 21 H 1.5402 -2.1997 -0.2503 0
M  V30 22 H -1.5833 -2.1705 -0.2123 0
M  V30 23 H -1.5527 2.0732 -0.9658 0
M  V30 24 H -3.5541 -1.8932 1.2449 0
M  V30 25 H -3.5235 2.3422 0.4928 0
M  V30 END ATOM
M  V30 BEGIN BOND
M  V30 1 1 1 2
M  V30 2 2 2 3
M  V30 3 1 2 4
M  V30 4 1 3 5
M  V30 5 2 4 6
M  V30 6 2 5 7
M  V30 7 1 7 8
M  V30 8 2 8 9
M  V30 9 2 8 10
M  V30 10 1 8 11
M  V30 11 2 11 12
M  V30 12 1 11 13
M  V30 13 1 12 14
M  V30 14 2 13 15
M  V30 15 2 14 16
M  V30 16 1 16 17
M  V30 17 1 6 7
M  V30 18 1 15 16
M  V30 19 1 3 18
M  V30 20 1 4 19
M  V30 21 1 5 20
M  V30 22 1 6 21
M  V30 23 1 12 22
M  V30 24 1 13 23
M  V30 25 1 14 24
M  V30 26 1 15 25
M  V30 END BOND
M  V30 END CTAB
M  END
>  <Structure No>
1060

>  <LogS>
-5.52363608

>  <MMFF94 Energy>
85.128

$$$$
Compound 1061
Actelion Java MolfileCreator 2.0

  0  0  0  0  0  0              0 V3000
M  V30 BEGIN CTAB
M  V30 COUNTS 59 59 0 0 0
M  V30 BEGIN ATOM
M  V30 1 N -2.2613 1.3251 -1.3251 0 CHG=1
M  V30 2 C -1.0559 1.2244 -0.5297 0
M  V30 3 C -3.5114 1.0953 -0.5602 0 CFG=1
M  V30 4 C -0.5323 2.3533 0.1213 0
M  V30 5 C -0.3762 3.0E-4 -0.4147 0
M  V30 6 C -3.5778 -0.3435 0.0194 0
M  V30 7 C -3.7252 2.1667 0.5253 0
M  V30 8 C 0.6322 2.2537 0.8862 0
M  V30 9 C 0.7885 -0.0985 0.3513 0
M  V30 10 C -4.9241 -0.7308 0.6692 0
M  V30 11 C 1.3133 1.0315 1.0043 0
M  V30 12 C -6.1636 -0.638 -0.2536 0
M  V30 13 N 2.5067 0.978 1.8154 0
M  V30 14 C -6.0183 -1.511 -1.5089 0
M  V30 15 C -7.4204 -1.0496 0.524 0
M  V30 16 C 3.6237 0.027 1.6917 0 CFG=2
M  V30 17 C 4.1056 -0.0961 0.2285 0
M  V30 18 C 3.2836 -1.3232 2.3432 0
M  V30 19 C 5.5006 -0.7393 0.1274 0
M  V30 20 C 5.9475 -0.9733 -1.3338 0
M  V30 21 C 6.1986 0.3471 -2.0778 0
M  V30 22 C 7.2167 -1.835 -1.3627 0
M  V30 23 H -2.215 0.6383 -2.1146 0
M  V30 24 H -2.3022 2.2713 -1.7723 0
M  V30 25 H -4.3455 1.2084 -1.2855 0
M  V30 26 H -1.0272 3.3123 0.0365 0
M  V30 27 H -0.7556 -0.8824 -0.9136 0
M  V30 28 H -2.7958 -0.4576 0.8003 0
M  V30 29 H -3.3366 -1.0764 -0.7792 0
M  V30 30 H -4.7697 2.135 0.8991 0
M  V30 31 H -3.5556 3.1803 0.1048 0
M  V30 32 H -3.0371 2.0077 1.3823 0
M  V30 33 H 1.0121 3.1385 1.3815 0
M  V30 34 H 1.2542 -1.0638 0.431 0
M  V30 35 H -4.8309 -1.7757 1.0395 0
M  V30 36 H -5.0859 -0.0959 1.5667 0
M  V30 37 H -6.3129 0.4159 -0.5696 0
M  V30 38 H 2.6715 1.7839 2.4616 0
M  V30 39 H -5.2152 -1.1187 -2.1663 0
M  V30 40 H -6.9606 -1.4996 -2.0974 0
M  V30 41 H -5.7831 -2.5607 -1.2311 0
M  V30 42 H -8.323 -0.9353 -0.114 0
M  V30 43 H -7.5493 -0.4013 1.4171 0
M  V30 44 H -7.3483 -2.1077 0.8561 0
M  V30 45 H 4.4696 0.4508 2.28 0
M  V30 46 H 3.3866 -0.6914 -0.3705 0
M  V30 47 H 4.1469 0.9259 -0.2038 0
M  V30 48 H 2.6222 -1.1724 3.2228 0
M  V30 49 H 4.2139 -1.8127 2.7017 0
M  V30 50 H 2.7957 -2.022 1.6367 0
M  V30 51 H 6.2456 -0.1002 0.6513 0
M  V30 52 H 5.4738 -1.7214 0.6469 0
M  V30 53 H 5.1495 -1.5327 -1.8706 0
M  V30 54 H 6.6036 0.1459 -3.0925 0
M  V30 55 H 6.9252 0.979 -1.5233 0
M  V30 56 H 5.2519 0.9102 -2.2091 0
M  V30 57 H 8.0509 -1.3209 -0.8381 0
M  V30 58 H 7.0302 -2.8123 -0.8686 0
M  V30 59 H 7.522 -2.0366 -2.4117 0
M  V30 END ATOM
M  V30 BEGIN BOND
M  V30 1 1 1 2
M  V30 2 1 1 3
M  V30 3 2 2 4
M  V30 4 1 2 5
M  V30 5 1 3 6
M  V30 6 1 3 7
M  V30 7 1 4 8
M  V30 8 2 5 9
M  V30 9 1 6 10
M  V30 10 2 8 11
M  V30 11 1 10 12
M  V30 12 1 11 13
M  V30 13 1 12 14
M  V30 14 1 12 15
M  V30 15 1 13 16
M  V30 16 1 16 17
M  V30 17 1 16 18
M  V30 18 1 17 19
M  V30 19 1 19 20
M  V30 20 1 20 21
M  V30 21 1 20 22
M  V30 22 1 9 11
M  V30 23 1 1 23
M  V30 24 1 1 24
M  V30 25 1 3 25
M  V30 26 1 4 26
M  V30 27 1 5 27
M  V30 28 1 6 28
M  V30 29 1 6 29
M  V30 30 1 7 30
M  V30 31 1 7 31
M  V30 32 1 7 32
M  V30 33 1 8 33
M  V30 34 1 9 34
M  V30 35 1 10 35
M  V30 36 1 10 36
M  V30 37 1 12 37
M  V30 38 1 13 38
M  V30 39 1 14 39
M  V30 40 1 14 40
M  V30 41 1 14 41
M  V30 42 1 15 42
M  V30 43 1 15 43
M  V30 44 1 15 44
M  V30 45 1 16 45
M  V30 46 1 17 46
M  V30 47 1 17 47
M  V30 48 1 18 48
M  V30 49 1 18 49
M  V30 50 1 18 50
M  V30 51 1 19 51
M  V30 52 1 19 52
M  V30 53 1 20 53
M  V30 54 1 21 54
M  V30 55 1 21 55
M  V30 56 1 21 56
M  V30 57 1 22 57
M  V30 58 1 22 58
M  V30 59 1 22 59
M  V30 END BOND
M  V30 BEGIN COLLECTION
M  V30 MDLV30/STEABS ATOMS=(2 3 16)
M  V30 END COLLECTION
M  V30 END CTAB
M  END
>  <Structure No>
1061

>  <LogS>
-5.575133655

>  <MMFF94 Energy>
14.606

$$$$
Compound 1062
Actelion Java MolfileCreator 2.0

  0  0  0  0  0  0              0 V3000
M  V30 BEGIN CTAB
M  V30 COUNTS 46 46 0 0 0
M  V30 BEGIN ATOM
M  V30 1 O 2.7535 1.258 2.1236 0
M  V30 2 C 3.5301 1.1238 0.9624 0
M  V30 3 C 3.0101 -0.0304 0.0663 0 CFG=2
M  V30 4 C 1.485 0.1038 -0.3067 0
M  V30 5 C 3.3454 -1.3677 0.755 0
M  V30 6 C 1.241 1.4185 -1.1262 0
M  V30 7 C 0.9678 -1.1485 -1.098 0
M  V30 8 C -0.2315 1.8397 -1.3436 0
M  V30 9 C 0.4531 -2.3129 -0.198 0
M  V30 10 C -0.9371 2.3373 -0.0627 0
M  V30 11 C -0.924 -2.8809 -0.6266 0
M  V30 12 C -2.4871 2.2832 -0.1688 0
M  V30 13 C -2.1232 -2.2471 0.1099 0
M  V30 14 C -3.1555 1.4097 0.9235 0
M  V30 15 C -2.1752 -0.7337 -0.0917 0
M  V30 16 C -3.4083 -0.0616 0.5225 0
M  V30 17 H 2.055 1.9351 1.9263 0
M  V30 18 H 4.5778 0.917 1.2689 0
M  V30 19 H 3.5946 2.0831 0.4046 0
M  V30 20 H 3.5988 0.0013 -0.8776 0
M  V30 21 H 0.924 0.1807 0.6435 0
M  V30 22 H 3.2561 -2.2107 0.0423 0
M  V30 23 H 2.6841 -1.5369 1.6308 0
M  V30 24 H 4.3994 -1.3787 1.106 0
M  V30 25 H 1.7279 2.2844 -0.6407 0
M  V30 26 H 1.7214 1.304 -2.1225 0
M  V30 27 H 1.778 -1.5277 -1.7583 0
M  V30 28 H 0.1714 -0.8641 -1.8069 0
M  V30 29 H -0.2386 2.6791 -2.0732 0
M  V30 30 H -0.7986 1.0381 -1.8393 0
M  V30 31 H 0.416 -2.024 0.8738 0
M  V30 32 H 1.1846 -3.1465 -0.2637 0
M  V30 33 H -0.5819 1.7862 0.8286 0
M  V30 34 H -0.6249 3.3906 0.1124 0
M  V30 35 H -0.9381 -3.9685 -0.3959 0
M  V30 36 H -1.0636 -2.7957 -1.7262 0
M  V30 37 H -2.8271 1.9572 -1.1757 0
M  V30 38 H -2.8681 3.3214 -0.0487 0
M  V30 39 H -2.0516 -2.4759 1.196 0
M  V30 40 H -3.061 -2.7021 -0.2767 0
M  V30 41 H -2.5665 1.4429 1.8658 0
M  V30 42 H -4.1443 1.8561 1.1677 0
M  V30 43 H -2.1733 -0.5267 -1.1807 0
M  V30 44 H -1.2761 -0.3154 0.3852 0
M  V30 45 H -4.2483 -0.1088 -0.2047 0
M  V30 46 H -3.7265 -0.6129 1.4345 0
M  V30 END ATOM
M  V30 BEGIN BOND
M  V30 1 1 1 2
M  V30 2 1 2 3
M  V30 3 1 3 4
M  V30 4 1 3 5
M  V30 5 1 4 6
M  V30 6 1 4 7
M  V30 7 1 6 8
M  V30 8 1 7 9
M  V30 9 1 8 10
M  V30 10 1 9 11
M  V30 11 1 10 12
M  V30 12 1 11 13
M  V30 13 1 12 14
M  V30 14 1 13 15
M  V30 15 1 14 16
M  V30 16 1 15 16
M  V30 17 1 1 17
M  V30 18 1 2 18
M  V30 19 1 2 19
M  V30 20 1 3 20
M  V30 21 1 4 21
M  V30 22 1 5 22
M  V30 23 1 5 23
M  V30 24 1 5 24
M  V30 25 1 6 25
M  V30 26 1 6 26
M  V30 27 1 7 27
M  V30 28 1 7 28
M  V30 29 1 8 29
M  V30 30 1 8 30
M  V30 31 1 9 31
M  V30 32 1 9 32
M  V30 33 1 10 33
M  V30 34 1 10 34
M  V30 35 1 11 35
M  V30 36 1 11 36
M  V30 37 1 12 37
M  V30 38 1 12 38
M  V30 39 1 13 39
M  V30 40 1 13 40
M  V30 41 1 14 41
M  V30 42 1 14 42
M  V30 43 1 15 43
M  V30 44 1 15 44
M  V30 45 1 16 45
M  V30 46 1 16 46
M  V30 END BOND
M  V30 BEGIN COLLECTION
M  V30 MDLV30/STEABS ATOMS=(1 3)
M  V30 END COLLECTION
M  V30 END CTAB
M  END
>  <Structure No>
1062

>  <LogS>
-5.451794109

>  <MMFF94 Energy>
33.308

$$$$
Compound 1063
Actelion Java MolfileCreator 2.0

  0  0  0  0  0  0              0 V3000
M  V30 BEGIN CTAB
M  V30 COUNTS 36 35 0 0 0
M  V30 BEGIN ATOM
M  V30 1 O 5.0647 -0.4666 -1.2448 0
M  V30 2 C 4.5892 -0.3887 -0.0788 0
M  V30 3 O 4.9489 0.6623 0.7695 0
M  V30 4 C 3.6016 -1.4119 0.3912 0
M  V30 5 C 5.8531 1.6877 0.3774 0
M  V30 6 C 2.1962 -1.1445 -0.1641 0
M  V30 7 C 1.562 0.1185 0.4441 0
M  V30 8 C 0.1832 0.4358 -0.1562 0
M  V30 9 C -0.9051 -0.5444 0.3066 0
M  V30 10 C -2.2852 -0.1129 -0.2043 0
M  V30 11 C -3.3739 -1.0953 0.2525 0
M  V30 12 C -4.7569 -0.7219 -0.2958 0
M  V30 13 C -5.2813 0.5388 0.3385 0
M  V30 14 C -5.3654 1.6875 -0.3387 0
M  V30 15 H 3.9387 -2.4155 0.0527 0
M  V30 16 H 3.5751 -1.4266 1.5025 0
M  V30 17 H 6.8416 1.2478 0.127 0
M  V30 18 H 5.4505 2.2327 -0.5026 0
M  V30 19 H 5.9794 2.4027 1.216 0
M  V30 20 H 1.5658 -2.0259 0.0771 0
M  V30 21 H 2.2438 -1.0522 -1.2716 0
M  V30 22 H 2.2241 0.9888 0.2452 0
M  V30 23 H 1.4766 0.007 1.5474 0
M  V30 24 H -0.1005 1.4627 0.1636 0
M  V30 25 H 0.2465 0.4355 -1.2666 0
M  V30 26 H -0.6821 -1.5614 -0.0798 0
M  V30 27 H -0.9218 -0.5815 1.4182 0
M  V30 28 H -2.2689 -0.0716 -1.3158 0
M  V30 29 H -2.5157 0.9031 0.1837 0
M  V30 30 H -3.4097 -1.1323 1.3639 0
M  V30 31 H -3.119 -2.1141 -0.1131 0
M  V30 32 H -4.7147 -0.6318 -1.404 0
M  V30 33 H -5.4662 -1.5441 -0.0609 0
M  V30 34 H -5.5612 0.5213 1.3877 0
M  V30 35 H -5.729 2.5827 0.1553 0
M  V30 36 H -5.0707 1.7472 -1.3819 0
M  V30 END ATOM
M  V30 BEGIN BOND
M  V30 1 2 1 2
M  V30 2 1 2 3
M  V30 3 1 2 4
M  V30 4 1 3 5
M  V30 5 1 4 6
M  V30 6 1 6 7
M  V30 7 1 7 8
M  V30 8 1 8 9
M  V30 9 1 9 10
M  V30 10 1 10 11
M  V30 11 1 11 12
M  V30 12 1 12 13
M  V30 13 2 13 14
M  V30 14 1 4 15
M  V30 15 1 4 16
M  V30 16 1 5 17
M  V30 17 1 5 18
M  V30 18 1 5 19
M  V30 19 1 6 20
M  V30 20 1 6 21
M  V30 21 1 7 22
M  V30 22 1 7 23
M  V30 23 1 8 24
M  V30 24 1 8 25
M  V30 25 1 9 26
M  V30 26 1 9 27
M  V30 27 1 10 28
M  V30 28 1 10 29
M  V30 29 1 11 30
M  V30 30 1 11 31
M  V30 31 1 12 32
M  V30 32 1 12 33
M  V30 33 1 13 34
M  V30 34 1 14 35
M  V30 35 1 14 36
M  V30 END BOND
M  V30 END CTAB
M  END
>  <Structure No>
1063

>  <LogS>
-5.397515352

>  <MMFF94 Energy>
-0.48903

$$$$
Compound 1064
Actelion Java MolfileCreator 2.0

  0  0  0  0  0  0              0 V3000
M  V30 BEGIN CTAB
M  V30 COUNTS 42 45 0 0 0
M  V30 BEGIN ATOM
M  V30 1 O -4.4627 0.4861 1.8644 0
M  V30 2 C -3.63 -0.1474 1.2325 0
M  V30 3 C -2.4471 0.4877 0.5741 0 CFG=2
M  V30 4 C -3.7249 -1.6126 1.0495 0
M  V30 5 C -1.7336 -0.7135 -0.1215 0 CFG=2
M  V30 6 C -1.5455 1.1542 1.6436 0
M  V30 7 C -2.9472 1.5301 -0.4513 0
M  V30 8 C -2.3981 -2.0043 0.4124 0
M  V30 9 C -0.1905 -0.7269 0.0932 0 CFG=2
M  V30 10 C -0.182 1.6135 1.0826 0
M  V30 11 C 0.3781 0.7035 -0.0475 0 CFG=1
M  V30 12 C 0.5051 -1.6752 -0.8934 0
M  V30 13 C 1.9036 0.729 -0.1098 0
M  V30 14 C 1.9884 -1.7913 -0.5437 0
M  V30 15 C 2.6499 -0.4425 -0.3998 0
M  V30 16 C 2.5848 1.9599 -0.0243 0
M  V30 17 C 4.0495 -0.3707 -0.4937 0
M  V30 18 C 3.9749 2.0178 -0.1369 0
M  V30 19 C 4.7107 0.8552 -0.3631 0
M  V30 20 O 6.0984 0.9285 -0.4631 0
M  V30 21 H -4.5748 -1.8491 0.3738 0
M  V30 22 H -3.8616 -2.1219 2.0282 0
M  V30 23 H -1.9337 -0.668 -1.2173 0
M  V30 24 H -2.0654 2.0244 2.1022 0
M  V30 25 H -1.3579 0.4265 2.4656 0
M  V30 26 H -2.1067 1.9673 -1.0263 0
M  V30 27 H -3.4799 2.3592 0.0628 0
M  V30 28 H -3.6513 1.0623 -1.1736 0
M  V30 29 H -1.7658 -2.4933 1.1861 0
M  V30 30 H -2.5604 -2.7347 -0.4101 0
M  V30 31 H 0.0323 -1.0829 1.1262 0
M  V30 32 H 0.5349 1.6556 1.9324 0
M  V30 33 H -0.2891 2.6488 0.6907 0
M  V30 34 H 0.0305 1.1077 -1.0237 0
M  V30 35 H 0.0483 -2.6871 -0.8419 0
M  V30 36 H 0.3932 -1.2975 -1.9342 0
M  V30 37 H 2.4929 -2.379 -1.3415 0
M  V30 38 H 2.1005 -2.3466 0.4128 0
M  V30 39 H 2.0417 2.8835 0.1274 0
M  V30 40 H 4.6263 -1.2692 -0.6774 0
M  V30 41 H 4.481 2.9713 -0.0532 0
M  V30 42 H 6.662 0.1029 -0.6291 0
M  V30 END ATOM
M  V30 BEGIN BOND
M  V30 1 2 1 2
M  V30 2 1 2 3
M  V30 3 1 2 4
M  V30 4 1 3 5
M  V30 5 1 3 6
M  V30 6 1 3 7
M  V30 7 1 4 8
M  V30 8 1 5 9
M  V30 9 1 6 10
M  V30 10 1 9 11
M  V30 11 1 9 12
M  V30 12 1 11 13
M  V30 13 1 12 14
M  V30 14 2 13 15
M  V30 15 1 13 16
M  V30 16 1 15 17
M  V30 17 2 16 18
M  V30 18 2 17 19
M  V30 19 1 19 20
M  V30 20 1 5 8
M  V30 21 1 10 11
M  V30 22 1 14 15
M  V30 23 1 18 19
M  V30 24 1 4 21
M  V30 25 1 4 22
M  V30 26 1 5 23
M  V30 27 1 6 24
M  V30 28 1 6 25
M  V30 29 1 7 26
M  V30 30 1 7 27
M  V30 31 1 7 28
M  V30 32 1 8 29
M  V30 33 1 8 30
M  V30 34 1 9 31
M  V30 35 1 10 32
M  V30 36 1 10 33
M  V30 37 1 11 34
M  V30 38 1 12 35
M  V30 39 1 12 36
M  V30 40 1 14 37
M  V30 41 1 14 38
M  V30 42 1 16 39
M  V30 43 1 17 40
M  V30 44 1 18 41
M  V30 45 1 20 42
M  V30 END BOND
M  V30 BEGIN COLLECTION
M  V30 MDLV30/STEABS ATOMS=(4 3 5 9 11)
M  V30 END COLLECTION
M  V30 END CTAB
M  END
>  <Structure No>
1064

>  <LogS>
-5.551148121

>  <MMFF94 Energy>
46.478

$$$$
Compound 1065
Actelion Java MolfileCreator 2.0

  0  0  0  0  0  0              0 V3000
M  V30 BEGIN CTAB
M  V30 COUNTS 40 40 0 0 0
M  V30 BEGIN ATOM
M  V30 1 O 0.0785 -1.8862 0.5498 0
M  V30 2 C 0.0231 -0.5227 0.2693 0
M  V30 3 C 1.2082 0.2811 0.2659 0
M  V30 4 C -1.2574 0.0578 0.0273 0
M  V30 5 C 1.0354 1.6824 0.3038 0
M  V30 6 C 2.649 -0.3147 0.2261 0
M  V30 7 C -1.3457 1.4668 0.0046 0
M  V30 8 C -2.5297 -0.8242 -0.1367 0
M  V30 9 C -0.2234 2.2689 0.1959 0
M  V30 10 C 3.116 -0.6521 1.6566 0
M  V30 11 C 3.6745 0.6923 -0.3712 0
M  V30 12 C 2.7246 -1.5758 -0.68 0
M  V30 13 C -2.8698 -1.5172 1.2015 0
M  V30 14 C -3.7817 -0.0091 -0.558 0
M  V30 15 C -2.3096 -1.8875 -1.241 0
M  V30 16 C -0.3565 3.7657 0.178 0
M  V30 17 H 0.7453 -2.2949 1.1852 0
M  V30 18 H 1.8768 2.349 0.4063 0
M  V30 19 H -2.2878 1.9736 -0.1354 0
M  V30 20 H 4.1493 -1.062 1.6423 0
M  V30 21 H 3.1128 0.2624 2.2885 0
M  V30 22 H 2.465 -1.3984 2.1479 0
M  V30 23 H 3.3131 1.0882 -1.3451 0
M  V30 24 H 4.6631 0.2129 -0.5412 0
M  V30 25 H 3.8782 1.5381 0.3185 0
M  V30 26 H 2.366 -2.495 -0.1842 0
M  V30 27 H 2.1477 -1.4165 -1.6164 0
M  V30 28 H 3.7724 -1.8123 -0.9653 0
M  V30 29 H -2.097 -2.2489 1.5066 0
M  V30 30 H -3.8284 -2.0747 1.1224 0
M  V30 31 H -2.9724 -0.7619 2.0106 0
M  V30 32 H -3.5912 0.5491 -1.5002 0
M  V30 33 H -4.6521 -0.6779 -0.7356 0
M  V30 34 H -4.0872 0.7009 0.2405 0
M  V30 35 H -1.96 -1.4022 -2.1778 0
M  V30 36 H -1.5742 -2.6619 -0.9516 0
M  V30 37 H -3.254 -2.43 -1.4638 0
M  V30 38 H -1.3441 4.0783 0.5796 0
M  V30 39 H 0.429 4.2387 0.8052 0
M  V30 40 H -0.257 4.1328 -0.8646 0
M  V30 END ATOM
M  V30 BEGIN BOND
M  V30 1 1 1 2
M  V30 2 2 2 3
M  V30 3 1 2 4
M  V30 4 1 3 5
M  V30 5 1 3 6
M  V30 6 2 4 7
M  V30 7 1 4 8
M  V30 8 2 5 9
M  V30 9 1 6 10
M  V30 10 1 6 11
M  V30 11 1 6 12
M  V30 12 1 8 13
M  V30 13 1 8 14
M  V30 14 1 8 15
M  V30 15 1 9 16
M  V30 16 1 7 9
M  V30 17 1 1 17
M  V30 18 1 5 18
M  V30 19 1 7 19
M  V30 20 1 10 20
M  V30 21 1 10 21
M  V30 22 1 10 22
M  V30 23 1 11 23
M  V30 24 1 11 24
M  V30 25 1 11 25
M  V30 26 1 12 26
M  V30 27 1 12 27
M  V30 28 1 12 28
M  V30 29 1 13 29
M  V30 30 1 13 30
M  V30 31 1 13 31
M  V30 32 1 14 32
M  V30 33 1 14 33
M  V30 34 1 14 34
M  V30 35 1 15 35
M  V30 36 1 15 36
M  V30 37 1 15 37
M  V30 38 1 16 38
M  V30 39 1 16 39
M  V30 40 1 16 40
M  V30 END BOND
M  V30 END CTAB
M  END
>  <Structure No>
1065

>  <LogS>
-5.462311288

>  <MMFF94 Energy>
55.861

$$$$
Compound 1066
Actelion Java MolfileCreator 2.0

  0  0  0  0  0  0              0 V3000
M  V30 BEGIN CTAB
M  V30 COUNTS 51 50 0 0 0
M  V30 BEGIN ATOM
M  V30 1 F -9.5749 -0.4338 -0.8677 0
M  V30 2 C -8.2603 -0.007 -0.8084 0
M  V30 3 F -7.6354 -0.3824 -1.9831 0
M  V30 4 F -8.2531 1.3728 -0.7089 0
M  V30 5 C -7.5744 -0.6493 0.4131 0
M  V30 6 F -8.3878 -0.44 1.5156 0
M  V30 7 F -7.4908 -2.0181 0.2153 0
M  V30 8 C -6.1686 -0.0784 0.7472 0
M  V30 9 F -6.3211 1.2598 1.0729 0
M  V30 10 F -5.7151 -0.7421 1.8757 0
M  V30 11 C -5.1214 -0.2173 -0.4013 0
M  V30 12 F -5.3264 -1.419 -1.0615 0
M  V30 13 F -5.32 0.8034 -1.3174 0
M  V30 14 C -3.6259 -0.2064 0.0351 0
M  V30 15 F -3.3874 -1.2767 0.8818 0
M  V30 16 F -2.8972 -0.4111 -1.1242 0
M  V30 17 C -3.1371 1.1131 0.7023 0
M  V30 18 F -3.2531 2.1518 -0.2075 0
M  V30 19 F -3.9444 1.4097 1.7845 0
M  V30 20 C -1.6814 1.0839 1.2567 0
M  V30 21 F -1.4478 2.3415 1.7889 0
M  V30 22 F -1.6162 0.1746 2.301 0
M  V30 23 C -0.5716 0.735 0.2189 0
M  V30 24 F -0.6672 -0.6177 -0.0563 0
M  V30 25 F -0.7814 1.4571 -0.9444 0
M  V30 26 C 0.8686 1.0106 0.7468 0
M  V30 27 F 0.9394 2.294 1.2641 0
M  V30 28 F 1.142 0.1299 1.7818 0
M  V30 29 C 2.0022 0.9102 -0.316 0
M  V30 30 F 1.8336 1.9185 -1.2515 0
M  V30 31 F 3.1812 1.1632 0.3604 0
M  V30 32 C 2.1029 -0.4556 -1.0573 0
M  V30 33 F 2.0478 -1.4984 -0.1483 0
M  V30 34 F 1.0111 -0.5771 -1.901 0
M  V30 35 C 3.3567 -0.6157 -1.9653 0
M  V30 36 F 3.2585 -1.8373 -2.6126 0
M  V30 37 F 3.326 0.3681 -2.94 0
M  V30 38 C 4.7411 -0.5553 -1.2794 0
M  V30 39 C 4.9169 -1.5393 -0.1148 0
M  V30 40 O 6.2889 -1.6162 0.2679 0
M  V30 41 C 6.9427 -0.6158 0.9957 0
M  V30 42 O 6.3127 0.4023 1.3958 0
M  V30 43 C 8.3745 -0.776 1.2928 0
M  V30 44 C 9.0703 0.1283 1.9796 0
M  V30 45 H 5.5048 -0.8014 -2.0496 0
M  V30 46 H 4.975 0.4773 -0.9527 0
M  V30 47 H 4.3057 -1.2335 0.7605 0
M  V30 48 H 4.5906 -2.5515 -0.4339 0
M  V30 49 H 8.8802 -1.6648 0.9368 0
M  V30 50 H 8.6082 1.0327 2.3552 0
M  V30 51 H 10.1226 -0.034 2.1726 0
M  V30 END ATOM
M  V30 BEGIN BOND
M  V30 1 1 1 2
M  V30 2 1 2 3
M  V30 3 1 2 4
M  V30 4 1 2 5
M  V30 5 1 5 6
M  V30 6 1 5 7
M  V30 7 1 5 8
M  V30 8 1 8 9
M  V30 9 1 8 10
M  V30 10 1 8 11
M  V30 11 1 11 12
M  V30 12 1 11 13
M  V30 13 1 11 14
M  V30 14 1 14 15
M  V30 15 1 14 16
M  V30 16 1 14 17
M  V30 17 1 17 18
M  V30 18 1 17 19
M  V30 19 1 17 20
M  V30 20 1 20 21
M  V30 21 1 20 22
M  V30 22 1 20 23
M  V30 23 1 23 24
M  V30 24 1 23 25
M  V30 25 1 23 26
M  V30 26 1 26 27
M  V30 27 1 26 28
M  V30 28 1 26 29
M  V30 29 1 29 30
M  V30 30 1 29 31
M  V30 31 1 29 32
M  V30 32 1 32 33
M  V30 33 1 32 34
M  V30 34 1 32 35
M  V30 35 1 35 36
M  V30 36 1 35 37
M  V30 37 1 35 38
M  V30 38 1 38 39
M  V30 39 1 39 40
M  V30 40 1 40 41
M  V30 41 2 41 42
M  V30 42 1 41 43
M  V30 43 2 43 44
M  V30 44 1 38 45
M  V30 45 1 38 46
M  V30 46 1 39 47
M  V30 47 1 39 48
M  V30 48 1 43 49
M  V30 49 1 44 50
M  V30 50 1 44 51
M  V30 END BOND
M  V30 END CTAB
M  END
>  <Structure No>
1066

>  <LogS>
-6.481477027

>  <MMFF94 Energy>
81.602

$$$$
Compound 1067
Actelion Java MolfileCreator 2.0

  0  0  0  0  0  0              0 V3000
M  V30 BEGIN CTAB
M  V30 COUNTS 49 49 0 0 0
M  V30 BEGIN ATOM
M  V30 1 O 0.7053 -2.9808 -0.3134 0
M  V30 2 C 0.3442 -1.6313 -0.4079 0
M  V30 3 C 1.3069 -0.6171 -0.6692 0
M  V30 4 C -1.015 -1.2873 -0.2204 0
M  V30 5 C 0.892 0.7292 -0.6427 0
M  V30 6 C 2.7793 -0.957 -0.9112 0 CFG=2
M  V30 7 C -1.3912 0.0662 -0.2286 0
M  V30 8 C -2.0715 -2.3578 0.0352 0 CFG=1
M  V30 9 C -0.4477 1.0789 -0.4273 0
M  V30 10 C 3.5642 -1.1131 0.4127 0
M  V30 11 C 3.4875 -0.0087 -1.898 0
M  V30 12 C -2.6348 -2.222 1.468 0
M  V30 13 C -3.1762 -2.294 -1.0327 0
M  V30 14 C -0.8771 2.5361 -0.3938 0 CFG=1
M  V30 15 C 3.5523 0.1291 1.3087 0
M  V30 16 C -3.4804 -3.4243 1.8896 0
M  V30 17 C -0.1899 3.2729 0.7781 0
M  V30 18 C -0.5992 3.2082 -1.7476 0
M  V30 19 C -0.8017 4.6468 1.0539 0
M  V30 20 H 1.6548 -3.3244 -0.3147 0
M  V30 21 H 1.6128 1.5214 -0.7767 0
M  V30 22 H 2.824 -1.9348 -1.4332 0
M  V30 23 H -2.4265 0.3345 -0.0605 0
M  V30 24 H -1.6157 -3.3668 -0.0508 0
M  V30 25 H 4.6195 -1.378 0.1842 0
M  V30 26 H 3.1378 -1.9594 0.9925 0
M  V30 27 H 3.6698 0.9952 -1.4668 0
M  V30 28 H 2.8793 0.1027 -2.8211 0
M  V30 29 H 4.4727 -0.4338 -2.1865 0
M  V30 30 H -1.787 -2.1354 2.1833 0
M  V30 31 H -3.2486 -1.2999 1.56 0
M  V30 32 H -2.7243 -2.2653 -2.0474 0
M  V30 33 H -3.8196 -3.1968 -0.9789 0
M  V30 34 H -3.816 -1.3962 -0.8999 0
M  V30 35 H -1.9769 2.585 -0.2274 0
M  V30 36 H 4.1504 -0.0744 2.2218 0
M  V30 37 H 2.5182 0.3765 1.6267 0
M  V30 38 H 4.0021 1.001 0.7928 0
M  V30 39 H -3.7669 -3.3174 2.9571 0
M  V30 40 H -4.4106 -3.4811 1.2873 0
M  V30 41 H -2.9041 -4.3663 1.7725 0
M  V30 42 H -0.2957 2.6625 1.7021 0
M  V30 43 H 0.8966 3.3959 0.5784 0
M  V30 44 H -1.0175 2.5916 -2.5721 0
M  V30 45 H 0.4908 3.3374 -1.9155 0
M  V30 46 H -1.0872 4.2038 -1.7942 0
M  V30 47 H -0.6088 5.3399 0.2092 0
M  V30 48 H -0.3405 5.0793 1.9668 0
M  V30 49 H -1.8964 4.5598 1.2201 0
M  V30 END ATOM
M  V30 BEGIN BOND
M  V30 1 1 1 2
M  V30 2 2 2 3
M  V30 3 1 2 4
M  V30 4 1 3 5
M  V30 5 1 3 6
M  V30 6 2 4 7
M  V30 7 1 4 8
M  V30 8 2 5 9
M  V30 9 1 6 10
M  V30 10 1 6 11
M  V30 11 1 8 12
M  V30 12 1 8 13
M  V30 13 1 9 14
M  V30 14 1 10 15
M  V30 15 1 12 16
M  V30 16 1 14 17
M  V30 17 1 14 18
M  V30 18 1 17 19
M  V30 19 1 7 9
M  V30 20 1 1 20
M  V30 21 1 5 21
M  V30 22 1 6 22
M  V30 23 1 7 23
M  V30 24 1 8 24
M  V30 25 1 10 25
M  V30 26 1 10 26
M  V30 27 1 11 27
M  V30 28 1 11 28
M  V30 29 1 11 29
M  V30 30 1 12 30
M  V30 31 1 12 31
M  V30 32 1 13 32
M  V30 33 1 13 33
M  V30 34 1 13 34
M  V30 35 1 14 35
M  V30 36 1 15 36
M  V30 37 1 15 37
M  V30 38 1 15 38
M  V30 39 1 16 39
M  V30 40 1 16 40
M  V30 41 1 16 41
M  V30 42 1 17 42
M  V30 43 1 17 43
M  V30 44 1 18 44
M  V30 45 1 18 45
M  V30 46 1 18 46
M  V30 47 1 19 47
M  V30 48 1 19 48
M  V30 49 1 19 49
M  V30 END BOND
M  V30 BEGIN COLLECTION
M  V30 MDLV30/STEABS ATOMS=(3 6 8 14)
M  V30 END COLLECTION
M  V30 END CTAB
M  END
>  <Structure No>
1067

>  <LogS>
-5.549793345

>  <MMFF94 Energy>
33.474

$$$$
Compound 1068
Actelion Java MolfileCreator 2.0

  0  0  0  0  0  0              0 V3000
M  V30 BEGIN CTAB
M  V30 COUNTS 30 32 0 0 0
M  V30 BEGIN ATOM
M  V30 1 N 1.3535 -0.0795 1.4332 0
M  V30 2 C -0.0272 -0.2547 1.0715 0
M  V30 3 C 2.4274 0.0748 0.4891 0
M  V30 4 C -0.5645 0.3604 -0.0734 0
M  V30 5 C -0.8683 -0.9994 1.9107 0
M  V30 6 C 3.5623 0.8174 0.8507 0
M  V30 7 C 2.3936 -0.558 -0.7674 0
M  V30 8 C -1.92 0.1978 -0.3971 0
M  V30 9 C -2.2197 -1.1668 1.5977 0
M  V30 10 C 4.6291 0.9583 -0.042 0
M  V30 11 C 3.4626 -0.4148 -1.6575 0
M  V30 12 C -2.7549 -0.5759 0.4446 0
M  V30 13 C -2.4587 0.7986 -1.5459 0
M  V30 14 C 4.5777 0.3459 -1.2968 0
M  V30 15 C -4.111 -0.7376 0.1203 0
M  V30 16 C -3.8108 0.6297 -1.8579 0
M  V30 17 C -4.634 -0.1361 -1.028 0
M  V30 18 H 1.5931 -0.0667 2.4508 0
M  V30 19 H 0.0674 0.9765 -0.7016 0
M  V30 20 H -0.4707 -1.4605 2.8062 0
M  V30 21 H 3.6143 1.2944 1.8214 0
M  V30 22 H 1.5511 -1.1741 -1.0533 0
M  V30 23 H -2.8457 -1.7558 2.2574 0
M  V30 24 H 5.4969 1.5406 0.2399 0
M  V30 25 H 3.4296 -0.9004 -2.6243 0
M  V30 26 H -1.8356 1.3957 -2.2012 0
M  V30 27 H 5.4048 0.4543 -1.9863 0
M  V30 28 H -4.7644 -1.3259 0.7535 0
M  V30 29 H -4.2219 1.0937 -2.7452 0
M  V30 30 H -5.6803 -0.263 -1.2746 0
M  V30 END ATOM
M  V30 BEGIN BOND
M  V30 1 1 1 2
M  V30 2 1 1 3
M  V30 3 2 2 4
M  V30 4 1 2 5
M  V30 5 2 3 6
M  V30 6 1 3 7
M  V30 7 1 4 8
M  V30 8 2 5 9
M  V30 9 1 6 10
M  V30 10 2 7 11
M  V30 11 1 8 12
M  V30 12 2 8 13
M  V30 13 2 10 14
M  V30 14 2 12 15
M  V30 15 1 13 16
M  V30 16 1 15 17
M  V30 17 1 9 12
M  V30 18 1 11 14
M  V30 19 2 16 17
M  V30 20 1 1 18
M  V30 21 1 4 19
M  V30 22 1 5 20
M  V30 23 1 6 21
M  V30 24 1 7 22
M  V30 25 1 9 23
M  V30 26 1 10 24
M  V30 27 1 11 25
M  V30 28 1 13 26
M  V30 29 1 14 27
M  V30 30 1 15 28
M  V30 31 1 16 29
M  V30 32 1 17 30
M  V30 END BOND
M  V30 END CTAB
M  END
>  <Structure No>
1068

>  <LogS>
-5.495914846

>  <MMFF94 Energy>
41.46

$$$$
Compound 1069
Actelion Java MolfileCreator 2.0

  0  0  0  0  0  0              0 V3000
M  V30 BEGIN CTAB
M  V30 COUNTS 41 40 0 0 0
M  V30 BEGIN ATOM
M  V30 1 O 4.2062 2.0234 1.5562 0
M  V30 2 C 4.1324 1.722 0.3757 0
M  V30 3 C 4.3575 0.2995 -0.0641 0 CFG=1
M  V30 4 C 3.1097 -0.2594 -0.7767 0
M  V30 5 C 5.576 0.2415 -0.9899 0
M  V30 6 C 1.9133 -0.405 0.177 0
M  V30 7 C 0.7002 -1.0081 -0.5537 0
M  V30 8 C -0.5533 -1.1983 0.3354 0 CFG=2
M  V30 9 C -1.0885 0.1552 0.8709 0
M  V30 10 C -0.2965 -2.2068 1.4686 0
M  V30 11 C -2.518 0.0839 1.437 0
M  V30 12 C -3.5344 -0.2871 0.3831 0
M  V30 13 C -4.1399 0.5933 -0.4441 0
M  V30 14 C -5.108 0.0635 -1.4704 0
M  V30 15 C -3.8937 2.0812 -0.3527 0
M  V30 16 H 3.9029 2.4886 -0.358 0
M  V30 17 H 4.5778 -0.3335 0.8251 0
M  V30 18 H 2.8324 0.4043 -1.6261 0
M  V30 19 H 3.3516 -1.2623 -1.1935 0
M  V30 20 H 6.4732 0.6371 -0.4666 0
M  V30 21 H 5.4015 0.8429 -1.9084 0
M  V30 22 H 5.7843 -0.8094 -1.2838 0
M  V30 23 H 1.6462 0.595 0.5778 0
M  V30 24 H 2.2078 -1.0618 1.0229 0
M  V30 25 H 0.9873 -1.9944 -0.9807 0
M  V30 26 H 0.4321 -0.3526 -1.4119 0
M  V30 27 H -1.3263 -1.6434 -0.3285 0
M  V30 28 H -0.4201 0.5276 1.6771 0
M  V30 29 H -1.0634 0.9091 0.0562 0
M  V30 30 H 0.3227 -1.7566 2.2728 0
M  V30 31 H -1.2569 -2.5447 1.9099 0
M  V30 32 H 0.2223 -3.1071 1.0762 0
M  V30 33 H -2.779 1.0563 1.9048 0
M  V30 34 H -2.5605 -0.665 2.2543 0
M  V30 35 H -3.7746 -1.3436 0.29 0
M  V30 36 H -5.9376 -0.4728 -0.9628 0
M  V30 37 H -5.5458 0.8784 -2.0838 0
M  V30 38 H -4.5837 -0.6402 -2.1513 0
M  V30 39 H -4.2031 2.4566 0.645 0
M  V30 40 H -4.4763 2.6369 -1.1166 0
M  V30 41 H -2.8216 2.3076 -0.5187 0
M  V30 END ATOM
M  V30 BEGIN BOND
M  V30 1 2 1 2
M  V30 2 1 2 3
M  V30 3 1 3 4
M  V30 4 1 3 5
M  V30 5 1 4 6
M  V30 6 1 6 7
M  V30 7 1 7 8
M  V30 8 1 8 9
M  V30 9 1 8 10
M  V30 10 1 9 11
M  V30 11 1 11 12
M  V30 12 2 12 13
M  V30 13 1 13 14
M  V30 14 1 13 15
M  V30 15 1 2 16
M  V30 16 1 3 17
M  V30 17 1 4 18
M  V30 18 1 4 19
M  V30 19 1 5 20
M  V30 20 1 5 21
M  V30 21 1 5 22
M  V30 22 1 6 23
M  V30 23 1 6 24
M  V30 24 1 7 25
M  V30 25 1 7 26
M  V30 26 1 8 27
M  V30 27 1 9 28
M  V30 28 1 9 29
M  V30 29 1 10 30
M  V30 30 1 10 31
M  V30 31 1 10 32
M  V30 32 1 11 33
M  V30 33 1 11 34
M  V30 34 1 12 35
M  V30 35 1 14 36
M  V30 36 1 14 37
M  V30 37 1 14 38
M  V30 38 1 15 39
M  V30 39 1 15 40
M  V30 40 1 15 41
M  V30 END BOND
M  V30 BEGIN COLLECTION
M  V30 MDLV30/STEABS ATOMS=(2 3 8)
M  V30 END COLLECTION
M  V30 END CTAB
M  END
>  <Structure No>
1069

>  <LogS>
-5.496890424

>  <MMFF94 Energy>
20.555

$$$$
Compound 1070
Actelion Java MolfileCreator 2.0

  0  0  0  0  0  0              0 V3000
M  V30 BEGIN CTAB
M  V30 COUNTS 47 48 0 0 0
M  V30 BEGIN ATOM
M  V30 1 N -3.5397 1.4933 -0.3142 0
M  V30 2 C -2.2805 1.0152 0.1893 0
M  V30 3 C -4.6664 0.6523 -0.6164 0
M  V30 4 C -1.5087 1.8429 1.0126 0
M  V30 5 C -1.7762 -0.2419 -0.1785 0
M  V30 6 C -4.9245 -0.5179 0.1214 0
M  V30 7 C -5.5652 1.0384 -1.6227 0
M  V30 8 C -0.2704 1.4085 1.4911 0
M  V30 9 C -0.5368 -0.6775 0.2994 0
M  V30 10 C -6.0425 -1.3045 -0.1728 0
M  V30 11 C -6.6821 0.2491 -1.9143 0
M  V30 12 C 0.236 0.1453 1.1411 0
M  V30 13 C -6.9184 -0.9235 -1.1925 0
M  V30 14 N 1.5243 -0.2487 1.6655 0
M  V30 15 C 2.4012 -1.3403 1.2082 0 CFG=2
M  V30 16 C 2.6926 -1.2989 -0.3102 0
M  V30 17 C 1.8903 -2.7085 1.6749 0
M  V30 18 C 3.102 0.09 -0.8431 0
M  V30 19 C 4.3471 0.7124 -0.1666 0
M  V30 20 C 5.6033 -0.1478 -0.3678 0
M  V30 21 C 4.5877 2.1229 -0.7197 0
M  V30 22 H -3.6433 2.5219 -0.4707 0
M  V30 23 H -1.8723 2.8239 1.2919 0
M  V30 24 H -2.3345 -0.8834 -0.8479 0
M  V30 25 H -4.2733 -0.8137 0.9336 0
M  V30 26 H -5.3938 1.9466 -2.1866 0
M  V30 27 H 0.3024 2.0665 2.1324 0
M  V30 28 H -0.2098 -1.6545 -9.0E-4 0
M  V30 29 H -6.2341 -2.2056 0.3952 0
M  V30 30 H -7.3656 0.5482 -2.6984 0
M  V30 31 H -7.7842 -1.5326 -1.4179 0
M  V30 32 H 1.9387 0.3715 2.3987 0
M  V30 33 H 3.3804 -1.2148 1.7216 0
M  V30 34 H 3.493 -2.0324 -0.5443 0
M  V30 35 H 1.8094 -1.6376 -0.8856 0
M  V30 36 H 1.648 -2.6709 2.7583 0
M  V30 37 H 0.9936 -3.0425 1.1228 0
M  V30 38 H 2.6822 -3.4731 1.5248 0
M  V30 39 H 2.2401 0.7822 -0.7298 0
M  V30 40 H 3.2905 -0.0022 -1.9354 0
M  V30 41 H 4.1625 0.8188 0.9235 0
M  V30 42 H 5.7757 -0.3441 -1.4476 0
M  V30 43 H 6.4944 0.3692 0.0477 0
M  V30 44 H 5.505 -1.1145 0.1672 0
M  V30 45 H 4.7921 2.0868 -1.8115 0
M  V30 46 H 3.6965 2.7622 -0.5423 0
M  V30 47 H 5.4536 2.5949 -0.2081 0
M  V30 END ATOM
M  V30 BEGIN BOND
M  V30 1 1 1 2
M  V30 2 1 1 3
M  V30 3 2 2 4
M  V30 4 1 2 5
M  V30 5 2 3 6
M  V30 6 1 3 7
M  V30 7 1 4 8
M  V30 8 2 5 9
M  V30 9 1 6 10
M  V30 10 2 7 11
M  V30 11 2 8 12
M  V30 12 2 10 13
M  V30 13 1 12 14
M  V30 14 1 14 15
M  V30 15 1 15 16
M  V30 16 1 15 17
M  V30 17 1 16 18
M  V30 18 1 18 19
M  V30 19 1 19 20
M  V30 20 1 19 21
M  V30 21 1 9 12
M  V30 22 1 11 13
M  V30 23 1 1 22
M  V30 24 1 4 23
M  V30 25 1 5 24
M  V30 26 1 6 25
M  V30 27 1 7 26
M  V30 28 1 8 27
M  V30 29 1 9 28
M  V30 30 1 10 29
M  V30 31 1 11 30
M  V30 32 1 13 31
M  V30 33 1 14 32
M  V30 34 1 15 33
M  V30 35 1 16 34
M  V30 36 1 16 35
M  V30 37 1 17 36
M  V30 38 1 17 37
M  V30 39 1 17 38
M  V30 40 1 18 39
M  V30 41 1 18 40
M  V30 42 1 19 41
M  V30 43 1 20 42
M  V30 44 1 20 43
M  V30 45 1 20 44
M  V30 46 1 21 45
M  V30 47 1 21 46
M  V30 48 1 21 47
M  V30 END BOND
M  V30 BEGIN COLLECTION
M  V30 MDLV30/STEABS ATOMS=(1 15)
M  V30 END COLLECTION
M  V30 END CTAB
M  END
>  <Structure No>
1070

>  <LogS>
-5.624837561

>  <MMFF94 Energy>
28.558

$$$$
Compound 1071
Actelion Java MolfileCreator 2.0

  0  0  0  0  0  0              0 V3000
M  V30 BEGIN CTAB
M  V30 COUNTS 45 45 0 0 0
M  V30 BEGIN ATOM
M  V30 1 O 1.6514 1.4153 -2.3598 0
M  V30 2 C 2.3365 1.5198 -1.3536 0
M  V30 3 C 3.5303 0.6136 -1.1777 0
M  V30 4 C 2.0018 2.5739 -0.3255 0
M  V30 5 C 3.3529 -0.3731 -0.0149 0
M  V30 6 C 0.6438 2.3252 0.3556 0
M  V30 7 C 2.2371 -1.3922 -0.2807 0
M  V30 8 C -0.5428 2.7669 -0.5203 0
M  V30 9 C 2.0573 -2.3148 0.9015 0
M  V30 10 C -1.888 2.7466 0.2312 0
M  V30 11 C 0.9961 -3.1263 1.0637 0
M  V30 12 C -2.3865 1.3454 0.6315 0
M  V30 13 C -0.1944 -3.1606 0.1402 0
M  V30 14 C -2.7904 0.4849 -0.5796 0
M  V30 15 C -1.1983 -2.0633 0.5142 0
M  V30 16 C -3.3618 -0.8899 -0.1623 0
M  V30 17 C -2.3986 -2.0574 -0.4398 0
M  V30 18 H 3.7229 0.0482 -2.1161 0
M  V30 19 H 4.4261 1.2419 -0.9841 0
M  V30 20 H 2.0195 3.5762 -0.8052 0
M  V30 21 H 2.789 2.5829 0.4591 0
M  V30 22 H 4.3117 -0.9173 0.1309 0
M  V30 23 H 3.1369 0.1862 0.9218 0
M  V30 24 H 0.5537 1.2511 0.6213 0
M  V30 25 H 0.6227 2.9084 1.3021 0
M  V30 26 H 2.4877 -1.9989 -1.1773 0
M  V30 27 H 1.2974 -0.8442 -0.4837 0
M  V30 28 H -0.6041 2.1451 -1.4345 0
M  V30 29 H -0.3673 3.8129 -0.8543 0
M  V30 30 H 2.8345 -2.3456 1.661 0
M  V30 31 H -2.6585 3.2335 -0.4057 0
M  V30 32 H -1.7958 3.3666 1.1497 0
M  V30 33 H 0.9756 -3.7764 1.9339 0
M  V30 34 H -3.2825 1.4811 1.2761 0
M  V30 35 H -1.6261 0.8312 1.251 0
M  V30 36 H 0.1313 -3.0554 -0.9173 0
M  V30 37 H -0.6892 -4.1508 0.2409 0
M  V30 38 H -1.9259 0.3481 -1.2616 0
M  V30 39 H -3.5706 1.0339 -1.1518 0
M  V30 40 H -1.5565 -2.2267 1.5547 0
M  V30 41 H -0.6926 -1.081 0.476 0
M  V30 42 H -4.2851 -1.0751 -0.7537 0
M  V30 43 H -3.6681 -0.8984 0.907 0
M  V30 44 H -2.0505 -2.0089 -1.4951 0
M  V30 45 H -2.9557 -3.0118 -0.3157 0
M  V30 END ATOM
M  V30 BEGIN BOND
M  V30 1 2 1 2
M  V30 2 1 2 3
M  V30 3 1 2 4
M  V30 4 1 3 5
M  V30 5 1 4 6
M  V30 6 1 5 7
M  V30 7 1 6 8
M  V30 8 1 7 9
M  V30 9 1 8 10
M  V30 10 2 9 11
M  V30 11 1 10 12
M  V30 12 1 11 13
M  V30 13 1 12 14
M  V30 14 1 13 15
M  V30 15 1 14 16
M  V30 16 1 15 17
M  V30 17 1 16 17
M  V30 18 1 3 18
M  V30 19 1 3 19
M  V30 20 1 4 20
M  V30 21 1 4 21
M  V30 22 1 5 22
M  V30 23 1 5 23
M  V30 24 1 6 24
M  V30 25 1 6 25
M  V30 26 1 7 26
M  V30 27 1 7 27
M  V30 28 1 8 28
M  V30 29 1 8 29
M  V30 30 1 9 30
M  V30 31 1 10 31
M  V30 32 1 10 32
M  V30 33 1 11 33
M  V30 34 1 12 34
M  V30 35 1 12 35
M  V30 36 1 13 36
M  V30 37 1 13 37
M  V30 38 1 14 38
M  V30 39 1 14 39
M  V30 40 1 15 40
M  V30 41 1 15 41
M  V30 42 1 16 42
M  V30 43 1 16 43
M  V30 44 1 17 44
M  V30 45 1 17 45
M  V30 END BOND
M  V30 END CTAB
M  END
>  <Structure No>
1071

>  <LogS>
-5.560732278

>  <MMFF94 Energy>
16.865

$$$$
Compound 1072
Actelion Java MolfileCreator 2.0

  0  0  0  0  0  0              0 V3000
M  V30 BEGIN CTAB
M  V30 COUNTS 50 53 0 0 0
M  V30 BEGIN ATOM
M  V30 1 O -5.2715 -1.1336 -1.8629 0
M  V30 2 C -3.8778 -1.1735 -1.6934 0
M  V30 3 C -5.9344 -0.73 -3.0577 0
M  V30 4 C -3.0202 -0.8451 -2.6779 0
M  V30 5 C -3.3445 -1.6302 -0.3591 0
M  V30 6 C -1.5329 -0.9408 -2.4725 0
M  V30 7 C -2.0068 -0.9971 -0.0377 0
M  V30 8 C -1.1529 -0.6688 -1.033 0
M  V30 9 C -1.6007 -0.7854 1.3987 0
M  V30 10 C 0.2349 -0.1572 -0.7075 0 CFG=2
M  V30 11 C -0.1561 -1.2478 1.6612 0
M  V30 12 C 0.8421 -0.9368 0.5015 0 CFG=2
M  V30 13 C 0.2331 1.3859 -0.5368 0
M  V30 14 C 2.1819 -0.2722 0.9 0 CFG=1
M  V30 15 C 1.611 1.9456 -0.1062 0
M  V30 16 C 2.1388 1.2412 1.1717 0 CFG=2
M  V30 17 C 3.0339 -0.8678 2.0131 0
M  V30 18 C 3.6426 1.497 1.5111 0 CFG=1
M  V30 19 C 1.2415 1.6332 2.3896 0
M  V30 20 C 4.0403 0.2495 2.3543 0
M  V30 21 O 4.4046 1.5291 0.3238 0
M  V30 22 C 3.8769 2.7559 2.2584 0
M  V30 23 N 4.0615 3.7387 2.8412 0
M  V30 24 H -7.0311 -0.79 -2.9015 0
M  V30 25 H -5.6679 0.3189 -3.3069 0
M  V30 26 H -5.6576 -1.4051 -3.8948 0
M  V30 27 H -3.3778 -0.5317 -3.6491 0
M  V30 28 H -3.2247 -2.7339 -0.3794 0
M  V30 29 H -4.081 -1.3731 0.4323 0
M  V30 30 H -1.0274 -0.2146 -3.1443 0
M  V30 31 H -1.198 -1.9641 -2.7442 0
M  V30 32 H -1.7084 0.2908 1.6385 0
M  V30 33 H -2.2859 -1.3346 2.0805 0
M  V30 34 H 0.8868 -0.3678 -1.5863 0
M  V30 35 H 0.1792 -0.8342 2.6309 0
M  V30 36 H -0.1805 -2.35 1.8136 0
M  V30 37 H 1.1208 -1.9362 0.0916 0
M  V30 38 H -0.5517 1.7061 0.1762 0
M  V30 39 H -0.0367 1.8487 -1.5113 0
M  V30 40 H 2.8102 -0.412 -0.0157 0
M  V30 41 H 2.3158 1.8034 -0.9538 0
M  V30 42 H 1.5274 3.0401 0.0698 0
M  V30 43 H 2.4245 -1.1191 2.9059 0
M  V30 44 H 3.5555 -1.7865 1.6656 0
M  V30 45 H 1.2691 2.731 2.5537 0
M  V30 46 H 0.1807 1.3866 2.2385 0
M  V30 47 H 1.5759 1.141 3.3261 0
M  V30 48 H 5.0773 -0.0815 2.1273 0
M  V30 49 H 3.9861 0.4665 3.4449 0
M  V30 50 H 5.3621 1.629 0.5714 0
M  V30 END ATOM
M  V30 BEGIN BOND
M  V30 1 1 1 2
M  V30 2 1 1 3
M  V30 3 2 2 4
M  V30 4 1 2 5
M  V30 5 1 4 6
M  V30 6 1 5 7
M  V30 7 1 6 8
M  V30 8 1 7 9
M  V30 9 1 8 10
M  V30 10 1 9 11
M  V30 11 1 10 12
M  V30 12 1 10 13
M  V30 13 1 12 14
M  V30 14 1 13 15
M  V30 15 1 14 16
M  V30 16 1 14 17
M  V30 17 1 16 18
M  V30 18 1 16 19
M  V30 19 1 17 20
M  V30 20 1 18 21
M  V30 21 1 18 22
M  V30 22 3 22 23
M  V30 23 2 7 8
M  V30 24 1 11 12
M  V30 25 1 15 16
M  V30 26 1 18 20
M  V30 27 1 3 24
M  V30 28 1 3 25
M  V30 29 1 3 26
M  V30 30 1 4 27
M  V30 31 1 5 28
M  V30 32 1 5 29
M  V30 33 1 6 30
M  V30 34 1 6 31
M  V30 35 1 9 32
M  V30 36 1 9 33
M  V30 37 1 10 34
M  V30 38 1 11 35
M  V30 39 1 11 36
M  V30 40 1 12 37
M  V30 41 1 13 38
M  V30 42 1 13 39
M  V30 43 1 14 40
M  V30 44 1 15 41
M  V30 45 1 15 42
M  V30 46 1 17 43
M  V30 47 1 17 44
M  V30 48 1 19 45
M  V30 49 1 19 46
M  V30 50 1 19 47
M  V30 51 1 20 48
M  V30 52 1 20 49
M  V30 53 1 21 50
M  V30 END BOND
M  V30 BEGIN COLLECTION
M  V30 MDLV30/STEABS ATOMS=(5 10 12 14 16 18)
M  V30 END COLLECTION
M  V30 END CTAB
M  END
>  <Structure No>
1072

>  <LogS>
-5.683242448

>  <MMFF94 Energy>
96.182

$$$$
Compound 1073
Actelion Java MolfileCreator 2.0

  0  0  0  0  0  0              0 V3000
M  V30 BEGIN CTAB
M  V30 COUNTS 50 53 0 0 0
M  V30 BEGIN ATOM
M  V30 1 O 2.9085 -1.1303 0.0 0
M  V30 2 C 1.7081 -0.6606 0.5357 0 CFG=1
M  V30 3 C 3.7643 -0.0302 0.1803 0 CFG=2
M  V30 4 C 1.0536 0.2491 -0.5656 0 CFG=1
M  V30 5 C 0.8239 -1.8738 0.8814 0
M  V30 6 C 2.1995 0.1116 1.7612 0
M  V30 7 O 3.4927 0.5489 1.4392 0
M  V30 8 C 3.4748 0.9942 -0.9465 0
M  V30 9 C 5.2175 -0.4995 0.1358 0
M  V30 10 C -0.4789 0.6094 -0.361 0 CFG=2
M  V30 11 C 1.9995 1.4478 -0.89 0
M  V30 12 C -0.628 -1.4875 1.1621 0
M  V30 13 C -1.2492 -0.7283 -0.0402 0 CFG=1
M  V30 14 C -1.0283 1.2211 -1.7046 0
M  V30 15 C -0.689 1.6654 0.7669 0
M  V30 16 C -2.8305 -0.6089 0.0228 0
M  V30 17 C -2.4338 0.7472 -2.1182 0
M  V30 18 C -3.3493 0.5251 -0.9151 0
M  V30 19 C -3.4576 -1.9471 -0.4519 0
M  V30 20 C -3.3584 -0.3443 1.4562 0
M  V30 21 H 1.0824 -0.3845 -1.4834 0
M  V30 22 H 0.8385 -2.5863 0.0267 0
M  V30 23 H 1.2366 -2.4224 1.7559 0
M  V30 24 H 1.5805 0.9859 2.0188 0
M  V30 25 H 2.2646 -0.5432 2.6565 0
M  V30 26 H 4.1412 1.8789 -0.8471 0
M  V30 27 H 3.6693 0.521 -1.9342 0
M  V30 28 H 5.9046 0.3611 0.2819 0
M  V30 29 H 5.3997 -1.2405 0.9428 0
M  V30 30 H 5.4395 -0.978 -0.8418 0
M  V30 31 H 1.7233 1.916 -1.8582 0
M  V30 32 H 1.9359 2.2309 -0.111 0
M  V30 33 H -1.1879 -2.428 1.3445 0
M  V30 34 H -0.6808 -0.8993 2.0995 0
M  V30 35 H -1.0405 -1.38 -0.9212 0
M  V30 36 H -1.03 2.3328 -1.6517 0
M  V30 37 H -0.3623 0.9784 -2.5606 0
M  V30 38 H -0.0307 2.5441 0.6471 0
M  V30 39 H -1.7069 2.0903 0.7445 0
M  V30 40 H -0.5472 1.2549 1.7806 0
M  V30 41 H -2.3531 -0.1979 -2.6979 0
M  V30 42 H -2.8905 1.5046 -2.7919 0
M  V30 43 H -3.4644 1.4873 -0.3756 0
M  V30 44 H -4.3708 0.2904 -1.2885 0
M  V30 45 H -4.5674 -1.9067 -0.3979 0
M  V30 46 H -3.1245 -2.7966 0.1789 0
M  V30 47 H -3.1773 -2.1684 -1.5038 0
M  V30 48 H -2.8969 0.5509 1.9122 0
M  V30 49 H -4.4582 -0.1823 1.4384 0
M  V30 50 H -3.1652 -1.2091 2.1253 0
M  V30 END ATOM
M  V30 BEGIN BOND
M  V30 1 1 1 2
M  V30 2 1 1 3
M  V30 3 1 2 4
M  V30 4 1 2 5
M  V30 5 1 2 6
M  V30 6 1 3 7
M  V30 7 1 3 8
M  V30 8 1 3 9
M  V30 9 1 4 10
M  V30 10 1 4 11
M  V30 11 1 5 12
M  V30 12 1 10 13
M  V30 13 1 10 14
M  V30 14 1 10 15
M  V30 15 1 13 16
M  V30 16 1 14 17
M  V30 17 1 16 18
M  V30 18 1 16 19
M  V30 19 1 16 20
M  V30 20 1 6 7
M  V30 21 1 8 11
M  V30 22 1 12 13
M  V30 23 1 17 18
M  V30 24 1 4 21
M  V30 25 1 5 22
M  V30 26 1 5 23
M  V30 27 1 6 24
M  V30 28 1 6 25
M  V30 29 1 8 26
M  V30 30 1 8 27
M  V30 31 1 9 28
M  V30 32 1 9 29
M  V30 33 1 9 30
M  V30 34 1 11 31
M  V30 35 1 11 32
M  V30 36 1 12 33
M  V30 37 1 12 34
M  V30 38 1 13 35
M  V30 39 1 14 36
M  V30 40 1 14 37
M  V30 41 1 15 38
M  V30 42 1 15 39
M  V30 43 1 15 40
M  V30 44 1 17 41
M  V30 45 1 17 42
M  V30 46 1 18 43
M  V30 47 1 18 44
M  V30 48 1 19 45
M  V30 49 1 19 46
M  V30 50 1 19 47
M  V30 51 1 20 48
M  V30 52 1 20 49
M  V30 53 1 20 50
M  V30 END BOND
M  V30 BEGIN COLLECTION
M  V30 MDLV30/STEABS ATOMS=(5 2 3 4 10 13)
M  V30 END COLLECTION
M  V30 END CTAB
M  END
>  <Structure No>
1073

>  <LogS>
-5.645384837

>  <MMFF94 Energy>
85.046

$$$$
Compound 1074
Actelion Java MolfileCreator 2.0

  0  0  0  0  0  0              0 V3000
M  V30 BEGIN CTAB
M  V30 COUNTS 30 30 0 0 0
M  V30 BEGIN ATOM
M  V30 1 C 0.7059 0.3921 0.1568 0 CFG=1
M  V30 2 C 2.253 0.1914 0.1932 0
M  V30 3 C 0.0418 -0.1082 -1.1472 0
M  V30 4 C 0.0157 -0.2509 1.3804 0
M  V30 5 C 2.7044 -1.2533 -0.0822 0
M  V30 6 C 2.9715 1.1559 -0.7631 0
M  V30 7 C -1.4628 0.1931 -1.1453 0
M  V30 8 C -1.4891 0.0493 1.3833 0
M  V30 9 C -2.1527 -0.4361 0.0804 0 CFG=1
M  V30 10 C -3.6491 -0.1058 0.0837 0
M  V30 11 H 0.5197 1.4885 0.2282 0
M  V30 12 H 2.6011 0.4529 1.2178 0
M  V30 13 H 0.1828 -1.2047 -1.2599 0
M  V30 14 H 0.4966 0.3923 -2.0273 0
M  V30 15 H 0.1583 -1.3524 1.3772 0
M  V30 16 H 0.4594 0.1503 2.3175 0
M  V30 17 H 2.4865 -1.5493 -1.1298 0
M  V30 18 H 3.8006 -1.34 0.0764 0
M  V30 19 H 2.2118 -1.9659 0.609 0
M  V30 20 H 4.0704 1.0915 -0.612 0
M  V30 21 H 2.7517 0.9096 -1.8228 0
M  V30 22 H 2.662 2.204 -0.5637 0
M  V30 23 H -1.6179 1.2952 -1.1473 0
M  V30 24 H -1.9113 -0.2167 -2.0766 0
M  V30 25 H -1.9551 -0.4634 2.253 0
M  V30 26 H -1.6462 1.1441 1.5076 0
M  V30 27 H -2.0487 -1.543 0.0187 0
M  V30 28 H -3.8094 0.9923 0.1443 0
M  V30 29 H -4.1267 -0.4873 -0.8438 0
M  V30 30 H -4.1452 -0.5891 0.9524 0
M  V30 END ATOM
M  V30 BEGIN BOND
M  V30 1 1 1 2
M  V30 2 1 1 3
M  V30 3 1 1 4
M  V30 4 1 2 5
M  V30 5 1 2 6
M  V30 6 1 3 7
M  V30 7 1 4 8
M  V30 8 1 7 9
M  V30 9 1 9 10
M  V30 10 1 8 9
M  V30 11 1 1 11
M  V30 12 1 2 12
M  V30 13 1 3 13
M  V30 14 1 3 14
M  V30 15 1 4 15
M  V30 16 1 4 16
M  V30 17 1 5 17
M  V30 18 1 5 18
M  V30 19 1 5 19
M  V30 20 1 6 20
M  V30 21 1 6 21
M  V30 22 1 6 22
M  V30 23 1 7 23
M  V30 24 1 7 24
M  V30 25 1 8 25
M  V30 26 1 8 26
M  V30 27 1 9 27
M  V30 28 1 10 28
M  V30 29 1 10 29
M  V30 30 1 10 30
M  V30 END BOND
M  V30 BEGIN COLLECTION
M  V30 MDLV30/STEABS ATOMS=(2 1 9)
M  V30 END COLLECTION
M  V30 END CTAB
M  END
>  <Structure No>
1074

>  <LogS>
-5.354573108

>  <MMFF94 Energy>
12.114

$$$$
Compound 1075
Actelion Java MolfileCreator 2.0

  0  0  0  0  0  0              0 V3000
M  V30 BEGIN CTAB
M  V30 COUNTS 37 39 0 0 0
M  V30 BEGIN ATOM
M  V30 1 Cl -6.3818 -0.0837 0.5027 0
M  V30 2 C -4.6267 -0.2062 0.4248 0
M  V30 3 C -3.8375 -0.1908 1.587 0
M  V30 4 C -4.0212 -0.3154 -0.8292 0
M  V30 5 C -2.4422 -0.2777 1.4707 0
M  V30 6 C -4.4714 -0.0655 2.946 0
M  V30 7 C -2.6273 -0.404 -0.9536 0
M  V30 8 C -1.8206 -0.3911 0.2118 0
M  V30 9 S -1.9317 -0.5103 -2.5782 0
M  V30 10 N -0.3843 -0.4755 0.1291 0
M  V30 11 O -1.2232 -1.8261 -2.7407 0
M  V30 12 O -0.9633 0.6194 -2.7885 0
M  V30 13 O -3.1385 -0.4018 -3.7435 0 CHG=-1
M  V30 14 N 0.4099 -0.4682 1.2888 0
M  V30 15 C 1.6816 -0.1788 1.3315 0
M  V30 16 C 2.4331 -0.5414 2.5458 0
M  V30 17 C 2.4651 0.376 0.1851 0
M  V30 18 O 1.8316 -0.7777 3.6279 0
M  V30 19 C 3.8929 -0.7045 2.4674 0
M  V30 20 C 3.8701 0.1945 0.1782 0
M  V30 21 C 1.8859 1.1851 -0.8132 0
M  V30 22 C 4.5559 -0.4109 1.3445 0
M  V30 23 C 4.6334 0.6739 -0.8974 0
M  V30 24 C 2.6574 1.6623 -1.8759 0
M  V30 25 C 4.0239 1.3869 -1.9305 0
M  V30 26 H -4.6482 -0.3247 -1.711 0
M  V30 27 H -1.8398 -0.259 2.3694 0
M  V30 28 H -4.979 0.9184 3.0317 0
M  V30 29 H -5.216 -0.8761 3.0897 0
M  V30 30 H -3.7192 -0.1422 3.7594 0
M  V30 31 H 0.0714 -0.6954 -0.782 0
M  V30 32 H 4.4342 -1.0864 3.324 0
M  V30 33 H 0.8483 1.4827 -0.765 0
M  V30 34 H 5.6294 -0.5563 1.3181 0
M  V30 35 H 5.7055 0.5217 -0.9219 0
M  V30 36 H 2.1972 2.2613 -2.6513 0
M  V30 37 H 4.6184 1.7605 -2.7536 0
M  V30 END ATOM
M  V30 BEGIN BOND
M  V30 1 1 1 2
M  V30 2 2 2 3
M  V30 3 1 2 4
M  V30 4 1 3 5
M  V30 5 1 3 6
M  V30 6 2 4 7
M  V30 7 2 5 8
M  V30 8 1 7 9
M  V30 9 1 8 10
M  V30 10 2 9 11
M  V30 11 2 9 12
M  V30 12 1 9 13
M  V30 13 1 10 14
M  V30 14 2 14 15
M  V30 15 1 15 16
M  V30 16 1 15 17
M  V30 17 2 16 18
M  V30 18 1 16 19
M  V30 19 2 17 20
M  V30 20 1 17 21
M  V30 21 2 19 22
M  V30 22 1 20 23
M  V30 23 2 21 24
M  V30 24 2 23 25
M  V30 25 1 7 8
M  V30 26 1 20 22
M  V30 27 1 24 25
M  V30 28 1 4 26
M  V30 29 1 5 27
M  V30 30 1 6 28
M  V30 31 1 6 29
M  V30 32 1 6 30
M  V30 33 1 10 31
M  V30 34 1 19 32
M  V30 35 1 21 33
M  V30 36 1 22 34
M  V30 37 1 23 35
M  V30 38 1 24 36
M  V30 39 1 25 37
M  V30 END BOND
M  V30 END CTAB
M  END
>  <Structure No>
1075

>  <LogS>
-6.156487599

>  <MMFF94 Energy>
127.25

$$$$
Compound 1076
Actelion Java MolfileCreator 2.0

  0  0  0  0  0  0              0 V3000
M  V30 BEGIN CTAB
M  V30 COUNTS 45 46 0 0 0
M  V30 BEGIN ATOM
M  V30 1 Cl 6.1108 -1.9266 1.2038 0
M  V30 2 C 4.9338 -0.714 0.7045 0
M  V30 3 C 5.1425 0.1249 -0.4098 0
M  V30 4 C 3.7591 -0.5917 1.4521 0
M  V30 5 C 4.1541 1.0792 -0.7592 0
M  V30 6 C 6.3059 0.0492 -1.1963 0
M  V30 7 C 2.7893 0.3501 1.1059 0
M  V30 8 N 4.3472 1.8915 -1.8349 0
M  V30 9 C 2.9743 1.1906 -0.0071 0
M  V30 10 C 6.4677 0.8996 -2.2906 0
M  V30 11 C 5.4688 1.8227 -2.5975 0
M  V30 12 O 2.0179 2.1462 -0.3957 0
M  V30 13 C 0.7146 2.2913 0.1678 0
M  V30 14 C -0.1517 1.1363 -0.2192 0
M  V30 15 O -0.4932 0.9913 -1.4243 0
M  V30 16 O -0.5446 0.2135 0.7568 0
M  V30 17 C -1.3281 -0.9508 0.4886 0 CFG=2
M  V30 18 C -2.8107 -0.687 0.8091 0
M  V30 19 C -0.7961 -2.0957 1.3495 0
M  V30 20 C -3.4287 0.371 -0.1191 0
M  V30 21 C -4.9487 0.5234 0.1005 0
M  V30 22 C -5.7985 -0.1805 -0.9706 0
M  V30 23 C -5.6768 -1.702 -0.9264 0
M  V30 24 H 3.5952 -1.23 2.3112 0
M  V30 25 H 7.092 -0.6601 -0.9751 0
M  V30 26 H 1.9027 0.4177 1.7186 0
M  V30 27 H 7.362 0.8434 -2.8975 0
M  V30 28 H 5.5847 2.4861 -3.444 0
M  V30 29 H 0.26 3.2237 -0.2272 0
M  V30 30 H 0.7751 2.3934 1.2722 0
M  V30 31 H -1.2234 -1.2613 -0.575 0
M  V30 32 H -2.9047 -0.3457 1.8639 0
M  V30 33 H -3.3737 -1.6388 0.7107 0
M  V30 34 H -1.3601 -3.0302 1.143 0
M  V30 35 H 0.2752 -2.2729 1.1152 0
M  V30 36 H -0.8865 -1.8456 2.4284 0
M  V30 37 H -3.21 0.1242 -1.1811 0
M  V30 38 H -2.9469 1.3489 0.0978 0
M  V30 39 H -5.2478 0.1728 1.1132 0
M  V30 40 H -5.1983 1.6064 0.0579 0
M  V30 41 H -5.5146 0.1847 -1.9815 0
M  V30 42 H -6.8641 0.0892 -0.8049 0
M  V30 43 H -5.8802 -2.0796 0.0981 0
M  V30 44 H -6.4163 -2.1515 -1.6219 0
M  V30 45 H -4.6639 -2.0204 -1.2494 0
M  V30 END ATOM
M  V30 BEGIN BOND
M  V30 1 1 1 2
M  V30 2 1 2 3
M  V30 3 2 2 4
M  V30 4 1 3 5
M  V30 5 2 3 6
M  V30 6 1 4 7
M  V30 7 2 5 8
M  V30 8 1 5 9
M  V30 9 1 6 10
M  V30 10 1 8 11
M  V30 11 1 9 12
M  V30 12 1 12 13
M  V30 13 1 13 14
M  V30 14 2 14 15
M  V30 15 1 14 16
M  V30 16 1 16 17
M  V30 17 1 17 18
M  V30 18 1 17 19
M  V30 19 1 18 20
M  V30 20 1 20 21
M  V30 21 1 21 22
M  V30 22 1 22 23
M  V30 23 2 7 9
M  V30 24 2 10 11
M  V30 25 1 4 24
M  V30 26 1 6 25
M  V30 27 1 7 26
M  V30 28 1 10 27
M  V30 29 1 11 28
M  V30 30 1 13 29
M  V30 31 1 13 30
M  V30 32 1 17 31
M  V30 33 1 18 32
M  V30 34 1 18 33
M  V30 35 1 19 34
M  V30 36 1 19 35
M  V30 37 1 19 36
M  V30 38 1 20 37
M  V30 39 1 20 38
M  V30 40 1 21 39
M  V30 41 1 21 40
M  V30 42 1 22 41
M  V30 43 1 22 42
M  V30 44 1 23 43
M  V30 45 1 23 44
M  V30 46 1 23 45
M  V30 END BOND
M  V30 BEGIN COLLECTION
M  V30 MDLV30/STEABS ATOMS=(1 17)
M  V30 END COLLECTION
M  V30 END CTAB
M  END
>  <Structure No>
1076

>  <LogS>
-5.747969532

>  <MMFF94 Energy>
80.823

$$$$
Compound 1077
Actelion Java MolfileCreator 2.0

  0  0  0  0  0  0              0 V3000
M  V30 BEGIN CTAB
M  V30 COUNTS 73 72 0 0 0
M  V30 BEGIN ATOM
M  V30 1 O -6.4686 3.8928 0.622 0
M  V30 2 C -6.9619 2.684 1.1366 0
M  V30 3 C -5.8207 1.6824 1.4348 0
M  V30 4 N -5.2975 0.912 0.2681 0 CHG=1
M  V30 5 C -6.321 0.0944 -0.4373 0
M  V30 6 C -4.5563 1.7632 -0.704 0
M  V30 7 C -7.0434 -0.9168 0.4743 0
M  V30 8 C -3.1326 2.1393 -0.2172 0
M  V30 9 O -8.1122 -0.3152 1.1512 0
M  V30 10 C -2.0109 1.3211 -0.8892 0
M  V30 11 C -2.0882 -0.1982 -0.6531 0
M  V30 12 C -1.7618 -0.5996 0.7965 0
M  V30 13 C -2.0732 -2.078 1.0791 0
M  V30 14 C -1.1839 -3.0776 0.3185 0
M  V30 15 C 0.297 -3.0425 0.7505 0
M  V30 16 C 1.1929 -2.3717 -0.3008 0
M  V30 17 C 2.6678 -2.4183 0.1165 0
M  V30 18 C 3.5568 -1.7339 -0.9328 0
M  V30 19 C 5.0578 -1.9845 -0.7014 0
M  V30 20 C 5.6032 -1.4562 0.64 0
M  V30 21 C 5.4225 0.0578 0.8686 0
M  V30 22 C 6.0258 0.9622 -0.222 0
M  V30 23 C 7.5463 0.7834 -0.3738 0
M  V30 24 C 8.1536 1.7705 -1.383 0
M  V30 25 C 8.2897 3.1842 -0.8173 0
M  V30 26 H -6.0464 4.3792 1.3797 0
M  V30 27 H -7.7098 2.2714 0.4341 0
M  V30 28 H -7.512 2.888 2.0837 0
M  V30 29 H -4.9961 2.2309 1.9375 0
M  V30 30 H -6.1805 0.9718 2.2101 0
M  V30 31 H -4.6134 0.2254 0.6622 0
M  V30 32 H -7.0518 0.7314 -0.9791 0
M  V30 33 H -5.8139 -0.5124 -1.2212 0
M  V30 34 H -5.1254 2.6848 -0.9315 0
M  V30 35 H -4.4675 1.2574 -1.6924 0
M  V30 36 H -6.3355 -1.3447 1.2147 0
M  V30 37 H -7.4231 -1.7661 -0.1397 0
M  V30 38 H -2.9564 3.2074 -0.4718 0
M  V30 39 H -3.037 2.0762 0.8845 0
M  V30 40 H -8.8384 -0.1914 0.4861 0
M  V30 41 H -1.0276 1.6944 -0.5286 0
M  V30 42 H -2.0459 1.5093 -1.9852 0
M  V30 43 H -3.086 -0.5819 -0.9506 0
M  V30 44 H -1.3483 -0.6749 -1.3302 0
M  V30 45 H -0.7004 -0.3731 1.0254 0
M  V30 46 H -2.3738 -1.0E-4 1.4997 0
M  V30 47 H -3.1328 -2.2761 0.8161 0
M  V30 48 H -1.9764 -2.2664 2.1683 0
M  V30 49 H -1.5796 -4.0935 0.5325 0
M  V30 50 H -1.2955 -2.9395 -0.777 0
M  V30 51 H 0.6474 -4.0885 0.8914 0
M  V30 52 H 0.4139 -2.5284 1.7292 0
M  V30 53 H 0.8875 -1.3141 -0.4401 0
M  V30 54 H 1.0747 -2.9026 -1.2711 0
M  V30 55 H 2.7826 -1.9006 1.0937 0
M  V30 56 H 2.9807 -3.4792 0.2335 0
M  V30 57 H 3.3048 -2.1384 -1.9375 0
M  V30 58 H 3.3464 -0.645 -0.9581 0
M  V30 59 H 5.2479 -3.0787 -0.7497 0
M  V30 60 H 5.6312 -1.5322 -1.5386 0
M  V30 61 H 6.6835 -1.7103 0.7067 0
M  V30 62 H 5.1145 -2.0016 1.4758 0
M  V30 63 H 5.8883 0.3189 1.8444 0
M  V30 64 H 4.3399 0.2885 0.9654 0
M  V30 65 H 5.521 0.781 -1.195 0
M  V30 66 H 5.8066 2.0122 0.0675 0
M  V30 67 H 7.7523 -0.2424 -0.7452 0
M  V30 68 H 8.0473 0.8937 0.6135 0
M  V30 69 H 7.5436 1.7963 -2.3125 0
M  V30 70 H 9.1681 1.4109 -1.6587 0
M  V30 71 H 7.2928 3.6342 -0.626 0
M  V30 72 H 8.8198 3.825 -1.5526 0
M  V30 73 H 8.8766 3.169 0.1265 0
M  V30 END ATOM
M  V30 BEGIN BOND
M  V30 1 1 1 2
M  V30 2 1 2 3
M  V30 3 1 3 4
M  V30 4 1 4 5
M  V30 5 1 4 6
M  V30 6 1 5 7
M  V30 7 1 6 8
M  V30 8 1 7 9
M  V30 9 1 8 10
M  V30 10 1 10 11
M  V30 11 1 11 12
M  V30 12 1 12 13
M  V30 13 1 13 14
M  V30 14 1 14 15
M  V30 15 1 15 16
M  V30 16 1 16 17
M  V30 17 1 17 18
M  V30 18 1 18 19
M  V30 19 1 19 20
M  V30 20 1 20 21
M  V30 21 1 21 22
M  V30 22 1 22 23
M  V30 23 1 23 24
M  V30 24 1 24 25
M  V30 25 1 1 26
M  V30 26 1 2 27
M  V30 27 1 2 28
M  V30 28 1 3 29
M  V30 29 1 3 30
M  V30 30 1 4 31
M  V30 31 1 5 32
M  V30 32 1 5 33
M  V30 33 1 6 34
M  V30 34 1 6 35
M  V30 35 1 7 36
M  V30 36 1 7 37
M  V30 37 1 8 38
M  V30 38 1 8 39
M  V30 39 1 9 40
M  V30 40 1 10 41
M  V30 41 1 10 42
M  V30 42 1 11 43
M  V30 43 1 11 44
M  V30 44 1 12 45
M  V30 45 1 12 46
M  V30 46 1 13 47
M  V30 47 1 13 48
M  V30 48 1 14 49
M  V30 49 1 14 50
M  V30 50 1 15 51
M  V30 51 1 15 52
M  V30 52 1 16 53
M  V30 53 1 16 54
M  V30 54 1 17 55
M  V30 55 1 17 56
M  V30 56 1 18 57
M  V30 57 1 18 58
M  V30 58 1 19 59
M  V30 59 1 19 60
M  V30 60 1 20 61
M  V30 61 1 20 62
M  V30 62 1 21 63
M  V30 63 1 21 64
M  V30 64 1 22 65
M  V30 65 1 22 66
M  V30 66 1 23 67
M  V30 67 1 23 68
M  V30 68 1 24 69
M  V30 69 1 24 70
M  V30 70 1 25 71
M  V30 71 1 25 72
M  V30 72 1 25 73
M  V30 END BOND
M  V30 END CTAB
M  END
>  <Structure No>
1077

>  <LogS>
-5.775274192

>  <MMFF94 Energy>
51.141

$$$$
Compound 1078
Actelion Java MolfileCreator 2.0

  0  0  0  0  0  0              0 V3000
M  V30 BEGIN CTAB
M  V30 COUNTS 46 46 0 0 0
M  V30 BEGIN ATOM
M  V30 1 O 1.8908 4.1792 -0.0787 0
M  V30 2 C 1.2606 3.1634 0.3186 0
M  V30 3 O -0.0978 3.0492 -0.0144 0
M  V30 4 C 1.9688 2.1565 1.197 0
M  V30 5 C -0.934 1.9764 0.41 0
M  V30 6 C 3.3893 1.8135 0.7112 0
M  V30 7 C -2.3552 2.1713 -0.1193 0
M  V30 8 C 3.4778 1.2931 -0.7388 0
M  V30 9 C -3.2394 0.95 0.187 0
M  V30 10 C 2.5258 0.1348 -1.0829 0
M  V30 11 C -3.0992 -0.1583 -0.8758 0
M  V30 12 C 2.7536 -1.1203 -0.2212 0
M  V30 13 C -3.638 -1.5079 -0.3705 0
M  V30 14 C 1.8382 -2.2847 -0.6398 0
M  V30 15 C -2.6003 -2.2897 0.4605 0
M  V30 16 C 0.396 -2.1054 -0.139 0
M  V30 17 C -1.8246 -3.266 -0.3957 0
M  V30 18 C -0.5045 -3.2005 -0.6498 0
M  V30 19 H 2.0409 2.5856 2.219 0
M  V30 20 H 1.3914 1.2169 1.2928 0
M  V30 21 H -0.9559 1.9385 1.5212 0
M  V30 22 H -0.53 1.0243 0.0221 0
M  V30 23 H 4.0277 2.7199 0.7971 0
M  V30 24 H 3.8268 1.0575 1.3979 0
M  V30 25 H -2.332 2.3656 -1.2141 0
M  V30 26 H -2.792 3.0671 0.3735 0
M  V30 27 H 4.5234 0.9699 -0.934 0
M  V30 28 H 3.2686 2.1339 -1.4351 0
M  V30 29 H -2.9999 0.56 1.2007 0
M  V30 30 H -4.3022 1.2763 0.2108 0
M  V30 31 H 2.6897 -0.1315 -2.1499 0
M  V30 32 H 1.4811 0.4871 -1.0009 0
M  V30 33 H -3.6823 0.146 -1.7724 0
M  V30 34 H -2.0469 -0.2748 -1.2056 0
M  V30 35 H 2.5908 -0.8952 0.8538 0
M  V30 36 H 3.8102 -1.4442 -0.3416 0
M  V30 37 H -3.9684 -2.1174 -1.2407 0
M  V30 38 H -4.547 -1.3329 0.2467 0
M  V30 39 H 1.8494 -2.3906 -1.7472 0
M  V30 40 H 2.2463 -3.2251 -0.2086 0
M  V30 41 H -1.9383 -1.5986 1.0223 0
M  V30 42 H -3.1428 -2.8875 1.2239 0
M  V30 43 H 0.3913 -2.1091 0.9724 0
M  V30 44 H -0.0013 -1.141 -0.5004 0
M  V30 45 H -2.3835 -4.086 -0.8378 0
M  V30 46 H -0.0756 -3.9766 -1.2786 0
M  V30 END ATOM
M  V30 BEGIN BOND
M  V30 1 2 1 2
M  V30 2 1 2 3
M  V30 3 1 2 4
M  V30 4 1 3 5
M  V30 5 1 4 6
M  V30 6 1 5 7
M  V30 7 1 6 8
M  V30 8 1 7 9
M  V30 9 1 8 10
M  V30 10 1 9 11
M  V30 11 1 10 12
M  V30 12 1 11 13
M  V30 13 1 12 14
M  V30 14 1 13 15
M  V30 15 1 14 16
M  V30 16 1 15 17
M  V30 17 1 16 18
M  V30 18 2 17 18
M  V30 19 1 4 19
M  V30 20 1 4 20
M  V30 21 1 5 21
M  V30 22 1 5 22
M  V30 23 1 6 23
M  V30 24 1 6 24
M  V30 25 1 7 25
M  V30 26 1 7 26
M  V30 27 1 8 27
M  V30 28 1 8 28
M  V30 29 1 9 29
M  V30 30 1 9 30
M  V30 31 1 10 31
M  V30 32 1 10 32
M  V30 33 1 11 33
M  V30 34 1 11 34
M  V30 35 1 12 35
M  V30 36 1 12 36
M  V30 37 1 13 37
M  V30 38 1 13 38
M  V30 39 1 14 39
M  V30 40 1 14 40
M  V30 41 1 15 41
M  V30 42 1 15 42
M  V30 43 1 16 43
M  V30 44 1 16 44
M  V30 45 1 17 45
M  V30 46 1 18 46
M  V30 END BOND
M  V30 END CTAB
M  END
>  <Structure No>
1078

>  <LogS>
-5.629397555

>  <MMFF94 Energy>
18.507

$$$$
Compound 1079
Actelion Java MolfileCreator 2.0

  0  0  0  0  0  0              0 V3000
M  V30 BEGIN CTAB
M  V30 COUNTS 34 35 0 0 0
M  V30 BEGIN ATOM
M  V30 1 Cl 4.3544 0.9025 -2.9561 0
M  V30 2 C 4.5993 0.9313 -1.2117 0
M  V30 3 C 3.5477 0.6978 -0.2922 0
M  V30 4 C 5.9012 1.1472 -0.7424 0
M  V30 5 C 2.1473 0.4826 -0.7317 0
M  V30 6 C 3.8396 0.6834 1.0847 0
M  V30 7 C 6.1723 1.1336 0.6264 0
M  V30 8 O 1.7115 1.0746 -1.756 0
M  V30 9 N 1.2903 -0.4114 -0.0016 0
M  V30 10 C 5.1435 0.9005 1.5401 0
M  V30 11 C -0.1412 -0.441 -0.1372 0
M  V30 12 Cl 5.486 0.8862 3.2607 0
M  V30 13 C -0.8243 -1.6507 0.0414 0
M  V30 14 C -0.8767 0.7292 -0.3747 0
M  V30 15 C -2.2238 -1.7143 -0.053 0
M  V30 16 C -2.2668 0.6787 -0.4869 0
M  V30 17 N -2.8727 -2.9643 0.2187 0
M  V30 18 C -2.9569 -0.5378 -0.3535 0
M  V30 19 C -4.4221 -0.5384 -0.5657 0
M  V30 20 O -4.9918 -1.5364 -1.086 0
M  V30 21 O -5.1655 0.6007 -0.2383 0
M  V30 22 C -6.5717 0.6829 -0.4372 0
M  V30 23 H 6.7094 1.3191 -1.442 0
M  V30 24 H 3.0517 0.5231 1.8106 0
M  V30 25 H 7.1833 1.3014 0.9753 0
M  V30 26 H 1.7422 -1.1485 0.5858 0
M  V30 27 H -0.2622 -2.5486 0.268 0
M  V30 28 H -0.3811 1.687 -0.46 0
M  V30 29 H -2.8038 1.5955 -0.6985 0
M  V30 30 H -3.885 -3.0214 0.4618 0
M  V30 31 H -2.3117 -3.8398 0.3175 0
M  V30 32 H -7.086 -0.1043 0.1537 0
M  V30 33 H -6.93 1.6773 -0.1001 0
M  V30 34 H -6.811 0.5605 -1.5148 0
M  V30 END ATOM
M  V30 BEGIN BOND
M  V30 1 1 1 2
M  V30 2 2 2 3
M  V30 3 1 2 4
M  V30 4 1 3 5
M  V30 5 1 3 6
M  V30 6 2 4 7
M  V30 7 2 5 8
M  V30 8 1 5 9
M  V30 9 2 6 10
M  V30 10 1 9 11
M  V30 11 1 10 12
M  V30 12 2 11 13
M  V30 13 1 11 14
M  V30 14 1 13 15
M  V30 15 2 14 16
M  V30 16 1 15 17
M  V30 17 2 15 18
M  V30 18 1 18 19
M  V30 19 2 19 20
M  V30 20 1 19 21
M  V30 21 1 21 22
M  V30 22 1 7 10
M  V30 23 1 16 18
M  V30 24 1 4 23
M  V30 25 1 6 24
M  V30 26 1 7 25
M  V30 27 1 9 26
M  V30 28 1 13 27
M  V30 29 1 14 28
M  V30 30 1 16 29
M  V30 31 1 17 30
M  V30 32 1 17 31
M  V30 33 1 22 32
M  V30 34 1 22 33
M  V30 35 1 22 34
M  V30 END BOND
M  V30 END CTAB
M  END
>  <Structure No>
1079

>  <LogS>
-5.790064986

>  <MMFF94 Energy>
49.078

$$$$
Compound 1080
Actelion Java MolfileCreator 2.0

  0  0  0  0  0  0              0 V3000
M  V30 BEGIN CTAB
M  V30 COUNTS 33 35 0 0 0
M  V30 BEGIN ATOM
M  V30 1 O 0.0 1.357 0.1595 0
M  V30 2 C -0.0546 -0.0353 0.0405 0
M  V30 3 C 1.1238 -0.8211 0.059 0
M  V30 4 C -1.3125 -0.6624 -0.1044 0
M  V30 5 C 2.4597 -0.2216 0.2664 0
M  V30 6 C 1.0283 -2.2127 -0.0955 0
M  V30 7 C -2.5663 0.1284 -0.1326 0
M  V30 8 C -1.3789 -2.0592 -0.2326 0
M  V30 9 C 3.4675 -0.3907 -0.6975 0
M  V30 10 C 2.7485 0.4806 1.4489 0
M  V30 11 C -0.2151 -2.826 -0.2365 0
M  V30 12 C -2.707 1.2183 -1.0106 0
M  V30 13 C -3.6423 -0.2201 0.7032 0
M  V30 14 C 4.7382 0.1551 -0.4907 0
M  V30 15 C 4.0204 1.0251 1.6517 0
M  V30 16 C -3.8965 1.953 -1.0395 0
M  V30 17 C -4.8298 0.5177 0.671 0
M  V30 18 C 5.0139 0.8641 0.6819 0
M  V30 19 C -4.9563 1.6042 -0.1983 0
M  V30 20 H 0.8662 1.8792 0.1723 0
M  V30 21 H 1.9202 -2.8278 -0.0849 0
M  V30 22 H -2.3348 -2.5551 -0.3509 0
M  V30 23 H 3.2664 -0.9384 -1.6101 0
M  V30 24 H 1.9903 0.6024 2.213 0
M  V30 25 H -0.2775 -3.901 -0.3457 0
M  V30 26 H -1.9031 1.4907 -1.6832 0
M  V30 27 H -3.5581 -1.0556 1.3873 0
M  V30 28 H 5.5096 0.0275 -1.239 0
M  V30 29 H 4.237 1.5686 2.5623 0
M  V30 30 H -3.9984 2.7903 -1.7177 0
M  V30 31 H -5.6521 0.2474 1.321 0
M  V30 32 H 5.9982 1.2854 0.8407 0
M  V30 33 H -5.8765 2.1737 -0.2225 0
M  V30 END ATOM
M  V30 BEGIN BOND
M  V30 1 1 1 2
M  V30 2 2 2 3
M  V30 3 1 2 4
M  V30 4 1 3 5
M  V30 5 1 3 6
M  V30 6 1 4 7
M  V30 7 2 4 8
M  V30 8 2 5 9
M  V30 9 1 5 10
M  V30 10 2 6 11
M  V30 11 2 7 12
M  V30 12 1 7 13
M  V30 13 1 9 14
M  V30 14 2 10 15
M  V30 15 1 12 16
M  V30 16 2 13 17
M  V30 17 2 14 18
M  V30 18 2 16 19
M  V30 19 1 8 11
M  V30 20 1 15 18
M  V30 21 1 17 19
M  V30 22 1 1 20
M  V30 23 1 6 21
M  V30 24 1 8 22
M  V30 25 1 9 23
M  V30 26 1 10 24
M  V30 27 1 11 25
M  V30 28 1 12 26
M  V30 29 1 13 27
M  V30 30 1 14 28
M  V30 31 1 15 29
M  V30 32 1 16 30
M  V30 33 1 17 31
M  V30 34 1 18 32
M  V30 35 1 19 33
M  V30 END BOND
M  V30 END CTAB
M  END
>  <Structure No>
1080

>  <LogS>
-5.683910105

>  <MMFF94 Energy>
71.113

$$$$
Compound 1081
Actelion Java MolfileCreator 2.0

  0  0  0  0  0  0              0 V3000
M  V30 BEGIN CTAB
M  V30 COUNTS 31 32 0 0 0
M  V30 BEGIN ATOM
M  V30 1 Cl 5.5063 2.6693 1.0509 0
M  V30 2 C 4.2184 1.5533 0.6356 0
M  V30 3 C 4.2122 0.2607 1.1703 0
M  V30 4 C 3.2025 1.9509 -0.2397 0
M  V30 5 C 3.1869 -0.6305 0.8386 0
M  V30 6 C 2.1764 1.0614 -0.5728 0
M  V30 7 C 2.1483 -0.2276 -0.0136 0
M  V30 8 C 1.1044 -1.198 -0.3934 0
M  V30 9 C -0.2169 -0.9754 -0.3 0
M  V30 10 C -0.8912 0.1764 0.2814 0
M  V30 11 C -1.2325 -1.9438 -0.7947 0
M  V30 12 O -0.3129 1.1287 0.8716 0
M  V30 13 C -2.3712 0.0791 0.1275 0
M  V30 14 C -2.5909 -1.3877 -0.3326 0
M  V30 15 C -3.0847 0.3597 1.4623 0
M  V30 16 C -2.8427 1.0707 -0.9505 0
M  V30 17 H 5.0025 -0.0553 1.8392 0
M  V30 18 H 3.2107 2.9451 -0.6679 0
M  V30 19 H 3.1977 -1.6311 1.2532 0
M  V30 20 H 1.4091 1.3742 -1.2704 0
M  V30 21 H 1.4393 -2.1613 -0.7598 0
M  V30 22 H -1.1923 -1.9874 -1.9047 0
M  V30 23 H -1.0542 -2.9564 -0.3711 0
M  V30 24 H -3.3421 -1.465 -1.1493 0
M  V30 25 H -2.9565 -2.0158 0.5104 0
M  V30 26 H -2.7057 -0.3159 2.2596 0
M  V30 27 H -2.9143 1.4097 1.7848 0
M  V30 28 H -4.1789 0.1986 1.3542 0
M  V30 29 H -2.6145 2.1153 -0.6469 0
M  V30 30 H -3.9397 0.9817 -1.1044 0
M  V30 31 H -2.3349 0.8678 -1.9187 0
M  V30 END ATOM
M  V30 BEGIN BOND
M  V30 1 1 1 2
M  V30 2 2 2 3
M  V30 3 1 2 4
M  V30 4 1 3 5
M  V30 5 2 4 6
M  V30 6 2 5 7
M  V30 7 1 7 8
M  V30 8 2 8 9
M  V30 9 1 9 10
M  V30 10 1 9 11
M  V30 11 2 10 12
M  V30 12 1 10 13
M  V30 13 1 11 14
M  V30 14 1 13 15
M  V30 15 1 13 16
M  V30 16 1 6 7
M  V30 17 1 13 14
M  V30 18 1 3 17
M  V30 19 1 4 18
M  V30 20 1 5 19
M  V30 21 1 6 20
M  V30 22 1 8 21
M  V30 23 1 11 22
M  V30 24 1 11 23
M  V30 25 1 14 24
M  V30 26 1 14 25
M  V30 27 1 15 26
M  V30 28 1 15 27
M  V30 29 1 15 28
M  V30 30 1 16 29
M  V30 31 1 16 30
M  V30 32 1 16 31
M  V30 END BOND
M  V30 END CTAB
M  END
>  <Structure No>
1081

>  <LogS>
-5.671591194

>  <MMFF94 Energy>
42.873

$$$$
Compound 1082
Actelion Java MolfileCreator 2.0

  0  0  0  0  0  0              0 V3000
M  V30 BEGIN CTAB
M  V30 COUNTS 124 127 0 0 0
M  V30 BEGIN ATOM
M  V30 1 O -2.0726 1.275 2.4716 0
M  V30 2 C -1.7222 0.7445 1.383 0
M  V30 3 O -0.4979 1.0826 0.7912 0
M  V30 4 C -2.6323 -0.2402 0.6947 0
M  V30 5 C 0.3789 2.0772 1.3208 0
M  V30 6 C -3.7828 0.4264 -0.1307 0
M  V30 7 C 1.089 1.5766 2.5808 0
M  V30 8 C -4.5174 -0.7087 -0.881 0
M  V30 9 C -4.8086 1.2096 0.7365 0
M  V30 10 C -3.1164 1.4253 -1.1286 0
M  V30 11 O 1.9812 0.5105 2.2634 0
M  V30 12 C -5.5318 -1.4536 -0.2375 0
M  V30 13 C -4.1183 -1.1208 -2.1656 0
M  V30 14 C -5.7201 2.0978 0.1183 0
M  V30 15 C -4.9682 0.9718 2.1154 0
M  V30 16 C 3.2974 0.7133 1.8334 0
M  V30 17 C -6.216 -2.52 -0.8755 0
M  V30 18 C -4.7607 -2.1717 -2.8089 0
M  V30 19 C -6.6969 2.8231 0.8509 0
M  V30 20 C -5.9206 1.6611 2.8561 0
M  V30 21 O 3.7876 1.8762 1.7968 0
M  V30 22 C 4.1402 -0.4808 1.4696 0
M  V30 23 C -5.802 -2.868 -2.1878 0
M  V30 24 C -7.3668 -3.286 -0.1659 0
M  V30 25 C -6.7743 2.5859 2.2484 0
M  V30 26 C -7.6611 3.822 0.1535 0
M  V30 27 C 4.7427 -0.4335 0.0238 0
M  V30 28 O -6.4085 -3.9124 -2.884 0
M  V30 29 C -8.6726 -3.1574 -0.9852 0
M  V30 30 C -7.6763 -2.745 1.255 0
M  V30 31 C -6.994 -4.778 -0.008 0
M  V30 32 O -7.7039 3.2538 3.0441 0
M  V30 33 C -7.4115 3.9465 -1.3719 0
M  V30 34 C -7.4796 5.2369 0.7524 0
M  V30 35 C -9.1242 3.3584 0.3336 0
M  V30 36 C 5.659 0.8067 -0.0933 0
M  V30 37 C 5.5985 -1.6765 -0.3166 0
M  V30 38 C 3.552 -0.4265 -0.973 0
M  V30 39 C 5.4218 1.8651 -0.9986 0
M  V30 40 C 6.7982 0.8785 0.7253 0
M  V30 41 C 5.6963 -2.8114 0.5222 0
M  V30 42 C 6.307 -1.691 -1.5305 0
M  V30 43 C 6.2884 2.9877 -1.0907 0
M  V30 44 C 7.6579 1.966 0.6601 0
M  V30 45 C 6.4857 -3.9412 0.1769 0
M  V30 46 C 7.0902 -2.7792 -1.889 0
M  V30 47 C 7.4213 3.0142 -0.2325 0
M  V30 48 C 6.0237 4.1374 -2.1023 0
M  V30 49 C 7.1905 -3.8962 -1.0564 0
M  V30 50 C 6.5778 -5.1839 1.1055 0
M  V30 51 O 8.326 4.0748 -0.2624 0
M  V30 52 C 5.8909 5.4866 -1.3558 0
M  V30 53 C 7.182 4.2137 -3.1232 0
M  V30 54 C 4.7165 3.9476 -2.9159 0
M  V30 55 O 7.9941 -4.9578 -1.469 0
M  V30 56 C 8.0398 -5.3971 1.5601 0
M  V30 57 C 6.0703 -6.441 0.3598 0
M  V30 58 C 5.7237 -5.0517 2.3932 0
M  V30 59 H -3.0311 -0.9706 1.429 0
M  V30 60 H -2.0039 -0.8478 0.0069 0
M  V30 61 H 1.1379 2.3302 0.5513 0
M  V30 62 H -0.1935 3.003 1.5495 0
M  V30 63 H 1.6355 2.4148 3.067 0
M  V30 64 H 0.3435 1.2065 3.3137 0
M  V30 65 H -2.1816 1.0079 -1.5616 0
M  V30 66 H -2.8451 2.3726 -0.6144 0
M  V30 67 H -3.7846 1.6728 -1.9804 0
M  V30 68 H -5.7729 -1.1932 0.7767 0
M  V30 69 H -3.3017 -0.6432 -2.6835 0
M  V30 70 H -5.6654 2.2016 -0.9507 0
M  V30 71 H -4.3816 0.2381 2.6417 0
M  V30 72 H -4.4376 -2.4543 -3.8041 0
M  V30 73 H -6.0053 1.465 3.918 0
M  V30 74 H 4.9428 -0.5814 2.2307 0
M  V30 75 H 3.4848 -1.373 1.5662 0
M  V30 76 H -6.1152 -4.1761 -3.8175 0
M  V30 77 H -8.6089 -3.6676 -1.9666 0
M  V30 78 H -8.9123 -2.0879 -1.1609 0
M  V30 79 H -9.5266 -3.6199 -0.4428 0
M  V30 80 H -6.7974 -2.8584 1.9245 0
M  V30 81 H -7.9788 -1.6758 1.2152 0
M  V30 82 H -8.5146 -3.3072 1.7205 0
M  V30 83 H -7.7603 -5.3154 0.5926 0
M  V30 84 H -6.0152 -4.8772 0.5104 0
M  V30 85 H -6.9283 -5.3012 -0.982 0
M  V30 86 H -7.7705 3.0907 4.0428 0
M  V30 87 H -6.3775 4.3016 -1.5777 0
M  V30 88 H -8.1092 4.6802 -1.829 0
M  V30 89 H -7.58 2.9749 -1.8833 0
M  V30 90 H -7.814 5.2993 1.8053 0
M  V30 91 H -8.0775 5.9845 0.1878 0
M  V30 92 H -6.4122 5.5421 0.7055 0
M  V30 93 H -9.2432 2.3146 -0.0264 0
M  V30 94 H -9.8186 4.008 -0.2435 0
M  V30 95 H -9.4528 3.4023 1.3904 0
M  V30 96 H 2.9394 -1.3444 -0.8435 0
M  V30 97 H 3.8988 -0.4015 -2.0276 0
M  V30 98 H 2.8843 0.4468 -0.8053 0
M  V30 99 H 4.5584 1.8067 -1.6329 0
M  V30 100 H 7.0291 0.0812 1.4205 0
M  V30 101 H 5.1589 -2.8079 1.4497 0
M  V30 102 H 6.2607 -0.8457 -2.2057 0
M  V30 103 H 8.5255 1.9903 1.3067 0
M  V30 104 H 7.6288 -2.7535 -2.8276 0
M  V30 105 H 9.1325 4.1095 0.3499 0
M  V30 106 H 6.8483 5.8241 -0.9131 0
M  V30 107 H 5.5675 6.2936 -2.05 0
M  V30 108 H 5.1368 5.4048 -0.5448 0
M  V30 109 H 6.9878 5.0036 -3.881 0
M  V30 110 H 7.2912 3.2436 -3.653 0
M  V30 111 H 8.1502 4.4552 -2.6445 0
M  V30 112 H 3.8326 3.9063 -2.2429 0
M  V30 113 H 4.7597 3.0241 -3.5335 0
M  V30 114 H 4.5582 4.798 -3.6162 0
M  V30 115 H 8.4987 -4.9409 -2.3483 0
M  V30 116 H 8.7138 -5.6474 0.7174 0
M  V30 117 H 8.1084 -6.2403 2.282 0
M  V30 118 H 8.4269 -4.4828 2.0569 0
M  V30 119 H 6.0159 -7.3143 1.0465 0
M  V30 120 H 6.7363 -6.7366 -0.4728 0
M  V30 121 H 5.0548 -6.259 -0.0518 0
M  V30 122 H 4.6472 -4.9282 2.1449 0
M  V30 123 H 6.064 -4.1932 3.012 0
M  V30 124 H 5.8117 -5.9624 3.0251 0
M  V30 END ATOM
M  V30 BEGIN BOND
M  V30 1 2 1 2
M  V30 2 1 2 3
M  V30 3 1 2 4
M  V30 4 1 3 5
M  V30 5 1 4 6
M  V30 6 1 5 7
M  V30 7 1 6 8
M  V30 8 1 6 9
M  V30 9 1 6 10
M  V30 10 1 7 11
M  V30 11 2 8 12
M  V30 12 1 8 13
M  V30 13 2 9 14
M  V30 14 1 9 15
M  V30 15 1 11 16
M  V30 16 1 12 17
M  V30 17 2 13 18
M  V30 18 1 14 19
M  V30 19 2 15 20
M  V30 20 2 16 21
M  V30 21 1 16 22
M  V30 22 2 17 23
M  V30 23 1 17 24
M  V30 24 2 19 25
M  V30 25 1 19 26
M  V30 26 1 22 27
M  V30 27 1 23 28
M  V30 28 1 24 29
M  V30 29 1 24 30
M  V30 30 1 24 31
M  V30 31 1 25 32
M  V30 32 1 26 33
M  V30 33 1 26 34
M  V30 34 1 26 35
M  V30 35 1 27 36
M  V30 36 1 27 37
M  V30 37 1 27 38
M  V30 38 2 36 39
M  V30 39 1 36 40
M  V30 40 2 37 41
M  V30 41 1 37 42
M  V30 42 1 39 43
M  V30 43 2 40 44
M  V30 44 1 41 45
M  V30 45 2 42 46
M  V30 46 2 43 47
M  V30 47 1 43 48
M  V30 48 2 45 49
M  V30 49 1 45 50
M  V30 50 1 47 51
M  V30 51 1 48 52
M  V30 52 1 48 53
M  V30 53 1 48 54
M  V30 54 1 49 55
M  V30 55 1 50 56
M  V30 56 1 50 57
M  V30 57 1 50 58
M  V30 58 1 18 23
M  V30 59 1 20 25
M  V30 60 1 44 47
M  V30 61 1 46 49
M  V30 62 1 4 59
M  V30 63 1 4 60
M  V30 64 1 5 61
M  V30 65 1 5 62
M  V30 66 1 7 63
M  V30 67 1 7 64
M  V30 68 1 10 65
M  V30 69 1 10 66
M  V30 70 1 10 67
M  V30 71 1 12 68
M  V30 72 1 13 69
M  V30 73 1 14 70
M  V30 74 1 15 71
M  V30 75 1 18 72
M  V30 76 1 20 73
M  V30 77 1 22 74
M  V30 78 1 22 75
M  V30 79 1 28 76
M  V30 80 1 29 77
M  V30 81 1 29 78
M  V30 82 1 29 79
M  V30 83 1 30 80
M  V30 84 1 30 81
M  V30 85 1 30 82
M  V30 86 1 31 83
M  V30 87 1 31 84
M  V30 88 1 31 85
M  V30 89 1 32 86
M  V30 90 1 33 87
M  V30 91 1 33 88
M  V30 92 1 33 89
M  V30 93 1 34 90
M  V30 94 1 34 91
M  V30 95 1 34 92
M  V30 96 1 35 93
M  V30 97 1 35 94
M  V30 98 1 35 95
M  V30 99 1 38 96
M  V30 100 1 38 97
M  V30 101 1 38 98
M  V30 102 1 39 99
M  V30 103 1 40 100
M  V30 104 1 41 101
M  V30 105 1 42 102
M  V30 106 1 44 103
M  V30 107 1 46 104
M  V30 108 1 51 105
M  V30 109 1 52 106
M  V30 110 1 52 107
M  V30 111 1 52 108
M  V30 112 1 53 109
M  V30 113 1 53 110
M  V30 114 1 53 111
M  V30 115 1 54 112
M  V30 116 1 54 113
M  V30 117 1 54 114
M  V30 118 1 55 115
M  V30 119 1 56 116
M  V30 120 1 56 117
M  V30 121 1 56 118
M  V30 122 1 57 119
M  V30 123 1 57 120
M  V30 124 1 57 121
M  V30 125 1 58 122
M  V30 126 1 58 123
M  V30 127 1 58 124
M  V30 END BOND
M  V30 END CTAB
M  END
>  <Structure No>
1082

>  <LogS>
-6.201435362

>  <MMFF94 Energy>
150.62

$$$$
Compound 1083
Actelion Java MolfileCreator 2.0

  0  0  0  0  0  0              0 V3000
M  V30 BEGIN CTAB
M  V30 COUNTS 31 32 0 0 0
M  V30 BEGIN ATOM
M  V30 1 C 0.9475 -0.1578 0.0789 0
M  V30 2 C 2.4323 -0.1279 0.1096 0
M  V30 3 C 0.2247 0.8712 -0.5491 0
M  V30 4 C 0.2412 -1.2156 0.6774 0
M  V30 5 C 3.1764 -1.307 -0.0868 0
M  V30 6 C 3.1196 1.08 0.336 0
M  V30 7 C -1.1722 0.8427 -0.5784 0
M  V30 8 C -1.1558 -1.2435 0.6491 0
M  V30 9 C 4.574 -1.2757 -0.0578 0
M  V30 10 C 4.5173 1.1051 0.3649 0
M  V30 11 C -1.8786 -0.2155 0.0212 0
M  V30 12 C 5.2438 -0.0711 0.1681 0
M  V30 13 C -3.3952 -0.259 -0.0027 0
M  V30 14 C -3.9945 0.9432 0.7369 0
M  V30 15 C -3.9231 -0.3415 -1.4399 0
M  V30 16 H 0.74 1.6906 -1.0342 0
M  V30 17 H 0.7687 -2.0139 1.1842 0
M  V30 18 H 2.6786 -2.2487 -0.2805 0
M  V30 19 H 2.5766 2.001 0.5082 0
M  V30 20 H -1.7004 1.6474 -1.0732 0
M  V30 21 H -1.6725 -2.0692 1.1224 0
M  V30 22 H 5.1382 -2.1861 -0.2139 0
M  V30 23 H 5.0375 2.0374 0.5437 0
M  V30 24 H 6.3257 -0.0493 0.1905 0
M  V30 25 H -3.7477 -1.1731 0.5254 0
M  V30 26 H -5.0998 0.8439 0.7905 0
M  V30 27 H -3.7509 1.8951 0.2189 0
M  V30 28 H -3.5994 0.9871 1.7745 0
M  V30 29 H -3.4771 -1.2167 -1.9592 0
M  V30 30 H -3.6776 0.5787 -2.0111 0
M  V30 31 H -5.0269 -0.468 -1.4327 0
M  V30 END ATOM
M  V30 BEGIN BOND
M  V30 1 1 1 2
M  V30 2 2 1 3
M  V30 3 1 1 4
M  V30 4 2 2 5
M  V30 5 1 2 6
M  V30 6 1 3 7
M  V30 7 2 4 8
M  V30 8 1 5 9
M  V30 9 2 6 10
M  V30 10 2 7 11
M  V30 11 2 9 12
M  V30 12 1 11 13
M  V30 13 1 13 14
M  V30 14 1 13 15
M  V30 15 1 8 11
M  V30 16 1 10 12
M  V30 17 1 3 16
M  V30 18 1 4 17
M  V30 19 1 5 18
M  V30 20 1 6 19
M  V30 21 1 7 20
M  V30 22 1 8 21
M  V30 23 1 9 22
M  V30 24 1 10 23
M  V30 25 1 12 24
M  V30 26 1 13 25
M  V30 27 1 14 26
M  V30 28 1 14 27
M  V30 29 1 14 28
M  V30 30 1 15 29
M  V30 31 1 15 30
M  V30 32 1 15 31
M  V30 END BOND
M  V30 END CTAB
M  END
>  <Structure No>
1083

>  <LogS>
-5.609857774

>  <MMFF94 Energy>
45.931

$$$$
Compound 1084
Actelion Java MolfileCreator 2.0

  0  0  0  0  0  0              0 V3000
M  V30 BEGIN CTAB
M  V30 COUNTS 53 54 0 0 0
M  V30 BEGIN ATOM
M  V30 1 N -4.17 -1.3361 1.8079 0
M  V30 2 C -3.2021 -0.4238 1.258 0
M  V30 3 C -3.124 -0.2182 -0.1454 0
M  V30 4 C -2.3098 0.2776 2.1125 0
M  V30 5 C -2.1626 0.6623 -0.6648 0
M  V30 6 C -4.0229 -0.942 -1.1228 0
M  V30 7 C -1.3833 1.1762 1.5611 0
M  V30 8 C -2.3228 0.1048 3.6151 0
M  V30 9 C -1.3059 1.3731 0.1797 0
M  V30 10 C -3.4341 -2.2978 -1.5015 0
M  V30 11 C -3.3296 1.0503 4.2641 0
M  V30 12 C -0.2533 2.2798 -0.3989 0
M  V30 13 C 1.0039 1.4984 -0.6709 0
M  V30 14 C 1.1654 0.8282 -1.8864 0
M  V30 15 C 1.9834 1.374 0.3181 0
M  V30 16 C 2.3127 0.0622 -2.1429 0
M  V30 17 C 3.1275 0.5887 0.1079 0
M  V30 18 C 3.3084 -0.0694 -1.1379 0
M  V30 19 C 2.4204 -0.6239 -3.4864 0
M  V30 20 C 4.1356 0.4891 1.2312 0
M  V30 21 N 4.4838 -0.8649 -1.3768 0
M  V30 22 C 1.8672 -2.0445 -3.4175 0
M  V30 23 C 5.2246 1.5476 1.0821 0
M  V30 24 H -4.6426 -2.0612 1.2277 0
M  V30 25 H -4.4503 -1.3076 2.8112 0
M  V30 26 H -2.0818 0.7982 -1.737 0
M  V30 27 H -5.0456 -1.0662 -0.7111 0
M  V30 28 H -4.1453 -0.3392 -2.0492 0
M  V30 29 H -0.7049 1.7163 2.2115 0
M  V30 30 H -1.3154 0.3198 4.0344 0
M  V30 31 H -2.5443 -0.9456 3.8953 0
M  V30 32 H -4.1125 -2.8113 -2.215 0
M  V30 33 H -2.4435 -2.1631 -1.9866 0
M  V30 34 H -3.313 -2.9385 -0.6026 0
M  V30 35 H -3.0515 2.1057 4.0571 0
M  V30 36 H -4.3526 0.8628 3.8757 0
M  V30 37 H -3.3324 0.8931 5.3631 0
M  V30 38 H -0.0418 3.1185 0.3004 0
M  V30 39 H -0.6239 2.7472 -1.3378 0
M  V30 40 H 0.3913 0.9064 -2.6408 0
M  V30 41 H 1.8459 1.8816 1.2661 0
M  V30 42 H 1.846 -0.0587 -4.253 0
M  V30 43 H 3.4692 -0.6345 -3.848 0
M  V30 44 H 4.5859 -0.5239 1.2763 0
M  V30 45 H 3.6325 0.6357 2.2121 0
M  V30 46 H 5.3437 -0.7725 -0.7958 0
M  V30 47 H 4.5312 -1.5696 -2.1431 0
M  V30 48 H 1.9731 -2.5333 -4.4087 0
M  V30 49 H 0.7901 -2.0232 -3.1451 0
M  V30 50 H 2.419 -2.6454 -2.6647 0
M  V30 51 H 5.7603 1.4277 0.1173 0
M  V30 52 H 5.9572 1.4464 1.9104 0
M  V30 53 H 4.7784 2.5644 1.1244 0
M  V30 END ATOM
M  V30 BEGIN BOND
M  V30 1 1 1 2
M  V30 2 2 2 3
M  V30 3 1 2 4
M  V30 4 1 3 5
M  V30 5 1 3 6
M  V30 6 2 4 7
M  V30 7 1 4 8
M  V30 8 2 5 9
M  V30 9 1 6 10
M  V30 10 1 8 11
M  V30 11 1 9 12
M  V30 12 1 12 13
M  V30 13 2 13 14
M  V30 14 1 13 15
M  V30 15 1 14 16
M  V30 16 2 15 17
M  V30 17 2 16 18
M  V30 18 1 16 19
M  V30 19 1 17 20
M  V30 20 1 18 21
M  V30 21 1 19 22
M  V30 22 1 20 23
M  V30 23 1 7 9
M  V30 24 1 17 18
M  V30 25 1 1 24
M  V30 26 1 1 25
M  V30 27 1 5 26
M  V30 28 1 6 27
M  V30 29 1 6 28
M  V30 30 1 7 29
M  V30 31 1 8 30
M  V30 32 1 8 31
M  V30 33 1 10 32
M  V30 34 1 10 33
M  V30 35 1 10 34
M  V30 36 1 11 35
M  V30 37 1 11 36
M  V30 38 1 11 37
M  V30 39 1 12 38
M  V30 40 1 12 39
M  V30 41 1 14 40
M  V30 42 1 15 41
M  V30 43 1 19 42
M  V30 44 1 19 43
M  V30 45 1 20 44
M  V30 46 1 20 45
M  V30 47 1 21 46
M  V30 48 1 21 47
M  V30 49 1 22 48
M  V30 50 1 22 49
M  V30 51 1 22 50
M  V30 52 1 23 51
M  V30 53 1 23 52
M  V30 54 1 23 53
M  V30 END BOND
M  V30 END CTAB
M  END
>  <Structure No>
1084

>  <LogS>
-5.848587947

>  <MMFF94 Energy>
50.073

$$$$
Compound 1085
Actelion Java MolfileCreator 2.0

  0  0  0  0  0  0              0 V3000
M  V30 BEGIN CTAB
M  V30 COUNTS 59 60 0 0 0
M  V30 BEGIN ATOM
M  V30 1 O 7.0855 -0.8736 0.6353 0
M  V30 2 C 7.7053 -0.3821 1.619 0
M  V30 3 O 7.1075 0.5986 2.418 0
M  V30 4 C 9.0709 -0.8239 1.9413 0
M  V30 5 C 5.7742 1.0649 2.221 0
M  V30 6 C 9.7116 -1.7502 1.2307 0
M  V30 7 C 4.7641 0.0375 2.7362 0
M  V30 8 O 3.4307 0.5273 2.5942 0
M  V30 9 C 2.711 0.5969 1.3897 0
M  V30 10 C 3.2003 0.0795 0.1775 0
M  V30 11 C 1.4539 1.2047 1.4081 0
M  V30 12 C 2.4408 0.1741 -0.9922 0
M  V30 13 C 0.6921 1.3011 0.2419 0
M  V30 14 C 1.1614 0.7732 -0.9791 0
M  V30 15 C 0.2976 0.9299 -2.2458 0
M  V30 16 C -1.1381 0.4542 -1.9499 0
M  V30 17 C 0.3706 2.4197 -2.6593 0
M  V30 18 C 0.8132 0.0907 -3.44 0
M  V30 19 C -2.283 1.2069 -2.2962 0
M  V30 20 C -1.3341 -0.8125 -1.3597 0
M  V30 21 C -3.5669 0.7229 -2.0284 0
M  V30 22 C -2.6183 -1.2922 -1.0943 0
M  V30 23 C -3.7429 -0.5317 -1.4209 0
M  V30 24 O -5.0102 -1.0569 -1.1292 0
M  V30 25 C -6.2407 -0.3861 -1.3909 0
M  V30 26 C -7.4067 -1.2522 -0.923 0
M  V30 27 O -7.2857 -1.5605 0.465 0
M  V30 28 C -7.5506 -0.641 1.4856 0
M  V30 29 O -7.9766 0.5155 1.2127 0
M  V30 30 C -7.3303 -1.0486 2.8818 0
M  V30 31 C -7.5572 -0.2347 3.9112 0
M  V30 32 H 9.5721 -0.377 2.7908 0
M  V30 33 H 5.6044 1.2922 1.1471 0
M  V30 34 H 5.6442 2.009 2.7911 0
M  V30 35 H 9.2512 -2.2255 0.3738 0
M  V30 36 H 10.7161 -2.0426 1.5075 0
M  V30 37 H 4.8781 -0.9406 2.2238 0
M  V30 38 H 4.9574 -0.1329 3.8163 0
M  V30 39 H 4.1679 -0.3978 0.1219 0
M  V30 40 H 1.0656 1.6116 2.3333 0
M  V30 41 H 2.8703 -0.2287 -1.8971 0
M  V30 42 H -0.2728 1.7902 0.2931 0
M  V30 43 H -0.1059 3.0705 -1.8947 0
M  V30 44 H 1.4301 2.7397 -2.7664 0
M  V30 45 H -0.1265 2.5919 -3.6381 0
M  V30 46 H 0.1046 0.1581 -4.2943 0
M  V30 47 H 1.7979 0.4607 -3.7983 0
M  V30 48 H 0.9116 -0.9807 -3.1624 0
M  V30 49 H -2.2055 2.1723 -2.7735 0
M  V30 50 H -0.4858 -1.4331 -1.0997 0
M  V30 51 H -4.4169 1.3327 -2.3023 0
M  V30 52 H -2.7401 -2.2638 -0.6325 0
M  V30 53 H -6.3425 -0.2036 -2.4825 0
M  V30 54 H -6.2603 0.5878 -0.8568 0
M  V30 55 H -7.402 -2.2021 -1.4982 0
M  V30 56 H -8.372 -0.7373 -1.1209 0
M  V30 57 H -6.968 -2.0502 3.0769 0
M  V30 58 H -7.9189 0.7753 3.7658 0
M  V30 59 H -7.3794 -0.5805 4.9212 0
M  V30 END ATOM
M  V30 BEGIN BOND
M  V30 1 2 1 2
M  V30 2 1 2 3
M  V30 3 1 2 4
M  V30 4 1 3 5
M  V30 5 2 4 6
M  V30 6 1 5 7
M  V30 7 1 7 8
M  V30 8 1 8 9
M  V30 9 2 9 10
M  V30 10 1 9 11
M  V30 11 1 10 12
M  V30 12 2 11 13
M  V30 13 2 12 14
M  V30 14 1 14 15
M  V30 15 1 15 16
M  V30 16 1 15 17
M  V30 17 1 15 18
M  V30 18 2 16 19
M  V30 19 1 16 20
M  V30 20 1 19 21
M  V30 21 2 20 22
M  V30 22 2 21 23
M  V30 23 1 23 24
M  V30 24 1 24 25
M  V30 25 1 25 26
M  V30 26 1 26 27
M  V30 27 1 27 28
M  V30 28 2 28 29
M  V30 29 1 28 30
M  V30 30 2 30 31
M  V30 31 1 13 14
M  V30 32 1 22 23
M  V30 33 1 4 32
M  V30 34 1 5 33
M  V30 35 1 5 34
M  V30 36 1 6 35
M  V30 37 1 6 36
M  V30 38 1 7 37
M  V30 39 1 7 38
M  V30 40 1 10 39
M  V30 41 1 11 40
M  V30 42 1 12 41
M  V30 43 1 13 42
M  V30 44 1 17 43
M  V30 45 1 17 44
M  V30 46 1 17 45
M  V30 47 1 18 46
M  V30 48 1 18 47
M  V30 49 1 18 48
M  V30 50 1 19 49
M  V30 51 1 20 50
M  V30 52 1 21 51
M  V30 53 1 22 52
M  V30 54 1 25 53
M  V30 55 1 25 54
M  V30 56 1 26 55
M  V30 57 1 26 56
M  V30 58 1 30 57
M  V30 59 1 31 58
M  V30 60 1 31 59
M  V30 END BOND
M  V30 END CTAB
M  END
>  <Structure No>
1085

>  <LogS>
-5.999481603

>  <MMFF94 Energy>
86.511

$$$$
Compound 1086
Actelion Java MolfileCreator 2.0

  0  0  0  0  0  0              0 V3000
M  V30 BEGIN CTAB
M  V30 COUNTS 56 59 0 0 0
M  V30 BEGIN ATOM
M  V30 1 N 0.159 -2.3085 -0.9547 0
M  V30 2 C -1.2137 -1.9986 -0.6591 0
M  V30 3 C 1.2869 -1.7046 -0.2977 0
M  V30 4 C -1.6214 -1.655 0.6402 0
M  V30 5 C -2.1756 -2.0962 -1.6722 0
M  V30 6 C 1.2421 -0.3764 0.157 0
M  V30 7 C 2.4793 -2.4283 -0.1715 0
M  V30 8 C -2.9642 -1.3791 0.9115 0
M  V30 9 C -3.5187 -1.8201 -1.4035 0
M  V30 10 C 2.3584 0.201 0.768 0
M  V30 11 C 3.5964 -1.8529 0.4392 0
M  V30 12 C -3.9336 -1.4687 -0.1067 0
M  V30 13 C 3.5457 -0.5384 0.9354 0
M  V30 14 C -5.3954 -1.1277 0.1341 0 CFG=2
M  V30 15 C 4.7959 0.066 1.5537 0 CFG=1
M  V30 16 C -5.6432 0.3528 -0.0837 0
M  V30 17 C -5.9197 -1.5927 1.5021 0
M  V30 18 C 5.6458 0.7414 0.4944 0
M  V30 19 C 4.5063 1.009 2.7323 0
M  V30 20 C -5.0519 1.3218 0.7508 0
M  V30 21 C -6.4607 0.78 -1.1468 0
M  V30 22 C 6.9155 0.2243 0.1767 0
M  V30 23 C 5.1805 1.8755 -0.2002 0
M  V30 24 C -5.2803 2.6829 0.528 0
M  V30 25 C -6.6857 2.1427 -1.3646 0
M  V30 26 C 7.7024 0.8312 -0.8066 0
M  V30 27 C 5.9717 2.4783 -1.1825 0
M  V30 28 C -6.0967 3.093 -0.528 0
M  V30 29 C 7.2314 1.9573 -1.4851 0
M  V30 30 H 0.3497 -3.0178 -1.6988 0
M  V30 31 H -0.9034 -1.6102 1.4488 0
M  V30 32 H -1.8806 -2.3714 -2.677 0
M  V30 33 H 0.3506 0.2221 0.0214 0
M  V30 34 H 2.5408 -3.4435 -0.5431 0
M  V30 35 H -3.2363 -1.1003 1.9195 0
M  V30 36 H -4.2376 -1.8788 -2.2115 0
M  V30 37 H 2.2878 1.2275 1.0982 0
M  V30 38 H 4.5065 -2.4345 0.5212 0
M  V30 39 H -5.9944 -1.7039 -0.6072 0
M  V30 40 H 5.379 -0.7713 2.0003 0
M  V30 41 H -7.0235 -1.4698 1.5403 0
M  V30 42 H -5.4832 -1.0074 2.3371 0
M  V30 43 H -5.6854 -2.668 1.6544 0
M  V30 44 H 4.0218 1.9513 2.4036 0
M  V30 45 H 5.4579 1.2745 3.2407 0
M  V30 46 H 3.8479 0.5043 3.4713 0
M  V30 47 H -4.4137 1.0286 1.5731 0
M  V30 48 H -6.9241 0.0602 -1.8097 0
M  V30 49 H 7.2983 -0.6501 0.6879 0
M  V30 50 H 4.2073 2.2953 0.0145 0
M  V30 51 H -4.8226 3.4205 1.1746 0
M  V30 52 H -7.3165 2.4619 -2.1843 0
M  V30 53 H 8.678 0.427 -1.0435 0
M  V30 54 H 5.6067 3.3498 -1.7106 0
M  V30 55 H -6.2718 4.1473 -0.6989 0
M  V30 56 H 7.842 2.4253 -2.2464 0
M  V30 END ATOM
M  V30 BEGIN BOND
M  V30 1 1 1 2
M  V30 2 1 1 3
M  V30 3 2 2 4
M  V30 4 1 2 5
M  V30 5 2 3 6
M  V30 6 1 3 7
M  V30 7 1 4 8
M  V30 8 2 5 9
M  V30 9 1 6 10
M  V30 10 2 7 11
M  V30 11 2 8 12
M  V30 12 2 10 13
M  V30 13 1 12 14
M  V30 14 1 13 15
M  V30 15 1 14 16
M  V30 16 1 14 17
M  V30 17 1 15 18
M  V30 18 1 15 19
M  V30 19 2 16 20
M  V30 20 1 16 21
M  V30 21 2 18 22
M  V30 22 1 18 23
M  V30 23 1 20 24
M  V30 24 2 21 25
M  V30 25 1 22 26
M  V30 26 2 23 27
M  V30 27 2 24 28
M  V30 28 2 26 29
M  V30 29 1 9 12
M  V30 30 1 11 13
M  V30 31 1 25 28
M  V30 32 1 27 29
M  V30 33 1 1 30
M  V30 34 1 4 31
M  V30 35 1 5 32
M  V30 36 1 6 33
M  V30 37 1 7 34
M  V30 38 1 8 35
M  V30 39 1 9 36
M  V30 40 1 10 37
M  V30 41 1 11 38
M  V30 42 1 14 39
M  V30 43 1 15 40
M  V30 44 1 17 41
M  V30 45 1 17 42
M  V30 46 1 17 43
M  V30 47 1 19 44
M  V30 48 1 19 45
M  V30 49 1 19 46
M  V30 50 1 20 47
M  V30 51 1 21 48
M  V30 52 1 22 49
M  V30 53 1 23 50
M  V30 54 1 24 51
M  V30 55 1 25 52
M  V30 56 1 26 53
M  V30 57 1 27 54
M  V30 58 1 28 55
M  V30 59 1 29 56
M  V30 END BOND
M  V30 BEGIN COLLECTION
M  V30 MDLV30/STEABS ATOMS=(2 14 15)
M  V30 END COLLECTION
M  V30 END CTAB
M  END
>  <Structure No>
1086

>  <LogS>
-5.964168762

>  <MMFF94 Energy>
99.054

$$$$
Compound 1087
Actelion Java MolfileCreator 2.0

  0  0  0  0  0  0              0 V3000
M  V30 BEGIN CTAB
M  V30 COUNTS 74 73 0 0 0
M  V30 BEGIN ATOM
M  V30 1 C 0 0 0 0
M  V30 2 C 0 0 0 0
M  V30 3 C 0 0 0 0
M  V30 4 C 0 0 0 0
M  V30 5 C 0 0 0 0
M  V30 6 C 0 0 0 0
M  V30 7 C 0 0 0 0
M  V30 8 C 0 0 0 0
M  V30 9 C 0 0 0 0
M  V30 10 C 0 0 0 0
M  V30 11 C 0 0 0 0
M  V30 12 C 0 0 0 0
M  V30 13 C 0 0 0 0
M  V30 14 C 0 0 0 0
M  V30 15 C 0 0 0 0
M  V30 16 C 0 0 0 0
M  V30 17 C 0 0 0 0
M  V30 18 C 0 0 0 0
M  V30 19 C 0 0 0 0
M  V30 20 C 0 0 0 0
M  V30 21 C 0 0 0 0
M  V30 22 C 0 0 0 0
M  V30 23 C 0 0 0 0
M  V30 24 C 0 0 0 0
M  V30 25 C 0 0 0 0
M  V30 26 C 0 0 0 0
M  V30 27 C 0 0 0 0
M  V30 28 C 0 0 0 0
M  V30 29 C 0 0 0 0
M  V30 30 C 0 0 0 0
M  V30 31 C 0 0 0 0
M  V30 32 C 0 0 0 0
M  V30 33 C 0 0 0 0
M  V30 34 C 0 0 0 0
M  V30 35 C 0 0 0 0
M  V30 36 C 0 0 0 0
M  V30 37 C 0 0 0 0
M  V30 38 C 0 0 0 0
M  V30 39 C 0 0 0 0
M  V30 40 C 0 0 0 0
M  V30 41 C 0 0 0 0
M  V30 42 C 0 0 0 0
M  V30 43 C 0 0 0 0
M  V30 44 C 0 0 0 0
M  V30 45 C 0 0 0 0
M  V30 46 C 0 0 0 0
M  V30 47 C 0 0 0 0
M  V30 48 C 0 0 0 0
M  V30 49 C 0 0 0 0
M  V30 50 C 0 0 0 0
M  V30 51 C 0 0 0 0
M  V30 52 C 0 0 0 0
M  V30 53 C 0 0 0 0
M  V30 54 C 0 0 0 0
M  V30 55 C 0 0 0 0
M  V30 56 C 0 0 0 0
M  V30 57 C 0 0 0 0
M  V30 58 C 0 0 0 0
M  V30 59 C 0 0 0 0
M  V30 60 C 0 0 0 0
M  V30 61 C 0 0 0 0
M  V30 62 C 0 0 0 0
M  V30 63 C 0 0 0 0
M  V30 64 C 0 0 0 0
M  V30 65 C 0 0 0 0
M  V30 66 C 0 0 0 0
M  V30 67 C 0 0 0 0
M  V30 68 C 0 0 0 0
M  V30 69 C 0 0 0 0
M  V30 70 C 0 0 0 0
M  V30 71 C 0 0 0 0
M  V30 72 C 0 0 0 0
M  V30 73 C 0 0 0 0
M  V30 74 C 0 0 0 0
M  V30 END ATOM
M  V30 BEGIN BOND
M  V30 1 1 1 2
M  V30 2 1 1 3
M  V30 3 1 2 4
M  V30 4 1 3 5
M  V30 5 1 4 6
M  V30 6 1 5 7
M  V30 7 1 6 8
M  V30 8 1 7 9
M  V30 9 1 8 10
M  V30 10 1 9 11
M  V30 11 1 10 12
M  V30 12 1 11 13
M  V30 13 1 12 14
M  V30 14 1 13 15
M  V30 15 1 14 16
M  V30 16 1 15 17
M  V30 17 1 16 18
M  V30 18 1 17 19
M  V30 19 1 18 20
M  V30 20 1 19 21
M  V30 21 1 20 22
M  V30 22 1 21 23
M  V30 23 1 22 24
M  V30 24 1 23 25
M  V30 25 1 24 26
M  V30 26 1 25 27
M  V30 27 1 26 28
M  V30 28 1 27 29
M  V30 29 1 28 30
M  V30 30 1 29 31
M  V30 31 1 30 32
M  V30 32 1 31 33
M  V30 33 1 32 34
M  V30 34 1 33 35
M  V30 35 1 34 36
M  V30 36 1 35 37
M  V30 37 1 36 38
M  V30 38 1 37 39
M  V30 39 1 38 40
M  V30 40 1 39 41
M  V30 41 1 40 42
M  V30 42 1 41 43
M  V30 43 1 42 44
M  V30 44 1 43 45
M  V30 45 1 44 46
M  V30 46 1 45 47
M  V30 47 1 46 48
M  V30 48 1 47 49
M  V30 49 1 48 50
M  V30 50 1 49 51
M  V30 51 1 50 52
M  V30 52 1 51 53
M  V30 53 1 52 54
M  V30 54 1 53 55
M  V30 55 1 54 56
M  V30 56 1 55 57
M  V30 57 1 56 58
M  V30 58 1 57 59
M  V30 59 1 58 60
M  V30 60 1 59 61
M  V30 61 1 60 62
M  V30 62 1 61 63
M  V30 63 1 62 64
M  V30 64 1 63 65
M  V30 65 1 64 66
M  V30 66 1 65 67
M  V30 67 1 66 68
M  V30 68 1 67 69
M  V30 69 1 68 70
M  V30 70 1 69 71
M  V30 71 1 70 72
M  V30 72 1 71 73
M  V30 73 1 72 74
M  V30 END BOND
M  V30 END CTAB
M  END
>  <Structure No>
1087

>  <LogS>
-6.806302611

>  <MMFF94 Energy>
-8.0695

$$$$
Compound 1088
Actelion Java MolfileCreator 2.0

  0  0  0  0  0  0              0 V3000
M  V30 BEGIN CTAB
M  V30 COUNTS 80 79 0 0 0
M  V30 BEGIN ATOM
M  V30 1 C 0.702 -0.9361 1.4044 0
M  V30 2 C -0.7307 -0.3468 1.703 0
M  V30 3 C 1.7897 0.2028 1.3227 0
M  V30 4 C 1.0993 -1.8187 2.648 0
M  V30 5 C 0.6659 -1.8222 0.112 0
M  V30 6 C -1.2586 0.8791 0.9192 0
M  V30 7 C 2.0286 0.8759 -0.0503 0
M  V30 8 C 0.1577 -2.9972 2.9751 0
M  V30 9 C 1.9392 -2.6567 -0.143 0
M  V30 10 C -1.6929 0.6565 -0.5443 0
M  V30 11 C 3.0668 2.0099 0.0295 0
M  V30 12 C 0.6861 -3.8019 4.1607 0
M  V30 13 C 1.9398 -3.2417 -1.5524 0
M  V30 14 C -2.7708 -0.4285 -0.7113 0
M  V30 15 C 4.5088 1.4832 0.1011 0
M  V30 16 C -3.2218 -0.6067 -2.1729 0
M  V30 17 C 5.5185 2.6393 0.0738 0
M  V30 18 C -3.8587 0.6368 -2.8268 0
M  V30 19 C 6.9747 2.1699 0.2534 0
M  V30 20 C -5.0652 1.2259 -2.0743 0
M  V30 21 C 7.4935 1.2267 -0.8482 0
M  V30 22 C -6.2629 0.2611 -2.0193 0
M  V30 23 C 7.4725 1.859 -2.2393 0
M  V30 24 C -7.5173 0.9229 -1.4078 0
M  V30 25 C -7.7904 0.5028 0.0453 0
M  V30 26 C -6.7301 1.007 1.0211 0
M  V30 27 H -1.4918 -1.1504 1.6497 0
M  V30 28 H -0.7428 -0.0229 2.7681 0
M  V30 29 H 2.7693 -0.2133 1.6375 0
M  V30 30 H 1.546 0.9871 2.0732 0
M  V30 31 H 1.1541 -1.1662 3.5485 0
M  V30 32 H 2.1262 -2.2235 2.5149 0
M  V30 33 H 0.4872 -1.1918 -0.7744 0
M  V30 34 H -0.1981 -2.5185 0.1548 0
M  V30 35 H -2.1587 1.2443 1.4627 0
M  V30 36 H -0.5393 1.7192 0.9835 0
M  V30 37 H 2.3697 0.135 -0.8029 0
M  V30 38 H 1.094 1.3181 -0.4337 0
M  V30 39 H -0.8541 -2.6255 3.2412 0
M  V30 40 H 0.0676 -3.6817 2.1065 0
M  V30 41 H 2.8522 -2.0376 -0.0166 0
M  V30 42 H 1.9924 -3.4997 0.5783 0
M  V30 43 H -2.1057 1.6257 -0.8941 0
M  V30 44 H -0.8321 0.4399 -1.2002 0
M  V30 45 H 2.8531 2.6642 0.903 0
M  V30 46 H 2.9649 2.6331 -0.8863 0
M  V30 47 H 0.7774 -3.1534 5.0577 0
M  V30 48 H 1.6795 -4.2365 3.92 0
M  V30 49 H -0.0164 -4.6296 4.3922 0
M  V30 50 H 1.9854 -2.4264 -2.305 0
M  V30 51 H 2.8276 -3.8948 -1.6837 0
M  V30 52 H 1.0251 -3.8478 -1.7204 0
M  V30 53 H -3.6419 -0.2089 -0.0609 0
M  V30 54 H -2.3599 -1.4063 -0.3881 0
M  V30 55 H 4.6852 0.816 -0.7685 0
M  V30 56 H 4.655 0.9007 1.0354 0
M  V30 57 H -2.3405 -0.9062 -2.7819 0
M  V30 58 H -3.9379 -1.4547 -2.2239 0
M  V30 59 H 5.414 3.2166 -0.8702 0
M  V30 60 H 5.2844 3.3359 0.9097 0
M  V30 61 H -4.1774 0.3644 -3.8566 0
M  V30 62 H -3.0875 1.4268 -2.9447 0
M  V30 63 H 7.6303 3.0661 0.294 0
M  V30 64 H 7.0692 1.6555 1.2343 0
M  V30 65 H -5.3762 2.146 -2.6162 0
M  V30 66 H -4.7672 1.5419 -1.0541 0
M  V30 67 H 6.9155 0.2795 -0.8583 0
M  V30 68 H 8.5444 0.9593 -0.6042 0
M  V30 69 H -6.5031 -0.0567 -3.0581 0
M  V30 70 H -5.9932 -0.6541 -1.4508 0
M  V30 71 H 8.0018 2.8355 -2.2289 0
M  V30 72 H 7.9842 1.186 -2.9604 0
M  V30 73 H 6.4271 2.0064 -2.5888 0
M  V30 74 H -7.4663 2.0318 -1.4744 0
M  V30 75 H -8.3991 0.6144 -2.0105 0
M  V30 76 H -7.8635 -0.604 0.1141 0
M  V30 77 H -8.7736 0.9205 0.3516 0
M  V30 78 H -5.7717 0.4735 0.8617 0
M  V30 79 H -6.5733 2.0997 0.9002 0
M  V30 80 H -7.0632 0.8098 2.0615 0
M  V30 END ATOM
M  V30 BEGIN BOND
M  V30 1 1 1 2
M  V30 2 1 1 3
M  V30 3 1 1 4
M  V30 4 1 1 5
M  V30 5 1 2 6
M  V30 6 1 3 7
M  V30 7 1 4 8
M  V30 8 1 5 9
M  V30 9 1 6 10
M  V30 10 1 7 11
M  V30 11 1 8 12
M  V30 12 1 9 13
M  V30 13 1 10 14
M  V30 14 1 11 15
M  V30 15 1 14 16
M  V30 16 1 15 17
M  V30 17 1 16 18
M  V30 18 1 17 19
M  V30 19 1 18 20
M  V30 20 1 19 21
M  V30 21 1 20 22
M  V30 22 1 21 23
M  V30 23 1 22 24
M  V30 24 1 24 25
M  V30 25 1 25 26
M  V30 26 1 2 27
M  V30 27 1 2 28
M  V30 28 1 3 29
M  V30 29 1 3 30
M  V30 30 1 4 31
M  V30 31 1 4 32
M  V30 32 1 5 33
M  V30 33 1 5 34
M  V30 34 1 6 35
M  V30 35 1 6 36
M  V30 36 1 7 37
M  V30 37 1 7 38
M  V30 38 1 8 39
M  V30 39 1 8 40
M  V30 40 1 9 41
M  V30 41 1 9 42
M  V30 42 1 10 43
M  V30 43 1 10 44
M  V30 44 1 11 45
M  V30 45 1 11 46
M  V30 46 1 12 47
M  V30 47 1 12 48
M  V30 48 1 12 49
M  V30 49 1 13 50
M  V30 50 1 13 51
M  V30 51 1 13 52
M  V30 52 1 14 53
M  V30 53 1 14 54
M  V30 54 1 15 55
M  V30 55 1 15 56
M  V30 56 1 16 57
M  V30 57 1 16 58
M  V30 58 1 17 59
M  V30 59 1 17 60
M  V30 60 1 18 61
M  V30 61 1 18 62
M  V30 62 1 19 63
M  V30 63 1 19 64
M  V30 64 1 20 65
M  V30 65 1 20 66
M  V30 66 1 21 67
M  V30 67 1 21 68
M  V30 68 1 22 69
M  V30 69 1 22 70
M  V30 70 1 23 71
M  V30 71 1 23 72
M  V30 72 1 23 73
M  V30 73 1 24 74
M  V30 74 1 24 75
M  V30 75 1 25 76
M  V30 76 1 25 77
M  V30 77 1 26 78
M  V30 78 1 26 79
M  V30 79 1 26 80
M  V30 END BOND
M  V30 END CTAB
M  END
>  <Structure No>
1088

>  <LogS>
-6.364408865

>  <MMFF94 Energy>
12.474

$$$$
Compound 1089
Actelion Java MolfileCreator 2.0

  0  0  0  0  0  0              0 V3000
M  V30 BEGIN CTAB
M  V30 COUNTS 39 39 0 0 0
M  V30 BEGIN ATOM
M  V30 1 O 1.7303 -1.1795 -2.1239 0
M  V30 2 C 2.0724 -0.5068 -1.112 0
M  V30 3 O 1.0985 -0.0086 -0.2405 0
M  V30 4 C 3.5025 -0.2409 -0.844 0
M  V30 5 C -0.2976 -0.2023 -0.4485 0
M  V30 6 C 4.5007 -0.7456 -1.6987 0
M  V30 7 C 3.8842 0.5251 0.2728 0
M  V30 8 C -1.1058 0.484 0.6725 0 CFG=2
M  V30 9 C 5.8505 -0.4883 -1.4387 0
M  V30 10 C 5.2355 0.7792 0.5277 0
M  V30 11 C -2.6318 0.3726 0.4303 0
M  V30 12 C -0.6764 1.9581 0.8913 0
M  V30 13 C 6.2175 0.2731 -0.3267 0
M  V30 14 C -3.1654 -1.0527 0.6465 0
M  V30 15 C -0.8671 2.8614 -0.3302 0
M  V30 16 C -4.693 -1.0922 0.5178 0
M  V30 17 C -5.2276 -2.5072 0.7202 0
M  V30 18 H -0.5052 -1.2931 -0.4469 0
M  V30 19 H -0.5883 0.205 -1.4409 0
M  V30 20 H 4.2396 -1.3381 -2.5666 0
M  V30 21 H 3.1409 0.929 0.9489 0
M  V30 22 H -0.8707 -0.0479 1.6217 0
M  V30 23 H 6.6124 -0.8798 -2.1002 0
M  V30 24 H 5.5213 1.3696 1.3889 0
M  V30 25 H -3.1608 1.0502 1.1368 0
M  V30 26 H -2.8789 0.7017 -0.6025 0
M  V30 27 H 0.3926 1.9927 1.1937 0
M  V30 28 H -1.2551 2.3845 1.7397 0
M  V30 29 H 7.2628 0.471 -0.1274 0
M  V30 30 H -2.8752 -1.4079 1.6598 0
M  V30 31 H -2.7262 -1.7373 -0.1094 0
M  V30 32 H -0.5654 3.8976 -0.0686 0
M  V30 33 H -1.9302 2.8828 -0.6467 0
M  V30 34 H -0.2319 2.5239 -1.1749 0
M  V30 35 H -5.1517 -0.4235 1.2785 0
M  V30 36 H -4.9933 -0.7353 -0.4915 0
M  V30 37 H -6.3337 -2.504 0.623 0
M  V30 38 H -4.9611 -2.8791 1.7325 0
M  V30 39 H -4.8058 -3.1923 -0.0456 0
M  V30 END ATOM
M  V30 BEGIN BOND
M  V30 1 2 1 2
M  V30 2 1 2 3
M  V30 3 1 2 4
M  V30 4 1 3 5
M  V30 5 2 4 6
M  V30 6 1 4 7
M  V30 7 1 5 8
M  V30 8 1 6 9
M  V30 9 2 7 10
M  V30 10 1 8 11
M  V30 11 1 8 12
M  V30 12 2 9 13
M  V30 13 1 11 14
M  V30 14 1 12 15
M  V30 15 1 14 16
M  V30 16 1 16 17
M  V30 17 1 10 13
M  V30 18 1 5 18
M  V30 19 1 5 19
M  V30 20 1 6 20
M  V30 21 1 7 21
M  V30 22 1 8 22
M  V30 23 1 9 23
M  V30 24 1 10 24
M  V30 25 1 11 25
M  V30 26 1 11 26
M  V30 27 1 12 27
M  V30 28 1 12 28
M  V30 29 1 13 29
M  V30 30 1 14 30
M  V30 31 1 14 31
M  V30 32 1 15 32
M  V30 33 1 15 33
M  V30 34 1 15 34
M  V30 35 1 16 35
M  V30 36 1 16 36
M  V30 37 1 17 37
M  V30 38 1 17 38
M  V30 39 1 17 39
M  V30 END BOND
M  V30 BEGIN COLLECTION
M  V30 MDLV30/STEABS ATOMS=(1 8)
M  V30 END COLLECTION
M  V30 END CTAB
M  END
>  <Structure No>
1089

>  <LogS>
-5.767784581

>  <MMFF94 Energy>
33.597

$$$$
Compound 1090
Actelion Java MolfileCreator 2.0

  0  0  0  0  0  0              0 V3000
M  V30 BEGIN CTAB
M  V30 COUNTS 41 42 0 0 0
M  V30 BEGIN ATOM
M  V30 1 O 1.435 -0.5578 2.233 0
M  V30 2 C 1.9052 -0.2054 1.1171 0
M  V30 3 O 1.0469 0.1994 0.0871 0
M  V30 4 C 3.36 -0.273 0.862 0
M  V30 5 C -0.3756 0.2201 0.2083 0 CFG=1
M  V30 6 C 4.3296 -0.0327 1.87 0
M  V30 7 C 3.7935 -0.6204 -0.4304 0
M  V30 8 C -0.9639 1.0344 -0.9525 0
M  V30 9 C -0.9342 -1.2242 0.2171 0
M  V30 10 O 3.9918 0.4083 3.1515 0
M  V30 11 C 5.6887 -0.2059 1.5781 0
M  V30 12 C 5.1535 -0.7688 -0.7099 0
M  V30 13 C -2.5153 1.1852 -0.8421 0
M  V30 14 C -2.3567 -1.3411 -0.3859 0 CFG=2
M  V30 15 C 6.0993 -0.5713 0.2953 0
M  V30 16 C -3.1643 -0.0524 -0.142 0
M  V30 17 C -2.8574 2.4558 -0.0335 0
M  V30 18 C -3.103 1.3453 -2.2613 0
M  V30 19 C -3.0906 -2.5629 0.1784 0
M  V30 20 H -0.6501 0.7287 1.1599 0
M  V30 21 H 3.0762 -0.8045 -1.2213 0
M  V30 22 H -0.6886 0.518 -1.8999 0
M  V30 23 H -0.4748 2.0332 -0.9892 0
M  V30 24 H -0.2556 -1.8911 -0.3593 0
M  V30 25 H -0.9314 -1.586 1.269 0
M  V30 26 H 3.0656 0.7215 3.4079 0
M  V30 27 H 6.4321 -0.0337 2.3462 0
M  V30 28 H 5.4737 -1.0475 -1.7055 0
M  V30 29 H -2.2623 -1.4909 -1.4845 0
M  V30 30 H 7.1527 -0.6924 0.0783 0
M  V30 31 H -4.2125 -0.1887 -0.4905 0
M  V30 32 H -3.2204 0.1106 0.9584 0
M  V30 33 H -2.4655 3.3644 -0.5399 0
M  V30 34 H -3.9585 2.5656 0.0733 0
M  V30 35 H -2.4131 2.4089 0.9835 0
M  V30 36 H -2.6322 2.2061 -2.784 0
M  V30 37 H -2.9258 0.4314 -2.8674 0
M  V30 38 H -4.1995 1.5234 -2.2177 0
M  V30 39 H -3.2519 -2.4538 1.2726 0
M  V30 40 H -4.0773 -2.6797 -0.3186 0
M  V30 41 H -2.4969 -3.4831 -0.0079 0
M  V30 END ATOM
M  V30 BEGIN BOND
M  V30 1 2 1 2
M  V30 2 1 2 3
M  V30 3 1 2 4
M  V30 4 1 3 5
M  V30 5 2 4 6
M  V30 6 1 4 7
M  V30 7 1 5 8
M  V30 8 1 5 9
M  V30 9 1 6 10
M  V30 10 1 6 11
M  V30 11 2 7 12
M  V30 12 1 8 13
M  V30 13 1 9 14
M  V30 14 2 11 15
M  V30 15 1 13 16
M  V30 16 1 13 17
M  V30 17 1 13 18
M  V30 18 1 14 19
M  V30 19 1 12 15
M  V30 20 1 14 16
M  V30 21 1 5 20
M  V30 22 1 7 21
M  V30 23 1 8 22
M  V30 24 1 8 23
M  V30 25 1 9 24
M  V30 26 1 9 25
M  V30 27 1 10 26
M  V30 28 1 11 27
M  V30 29 1 12 28
M  V30 30 1 14 29
M  V30 31 1 15 30
M  V30 32 1 16 31
M  V30 33 1 16 32
M  V30 34 1 17 33
M  V30 35 1 17 34
M  V30 36 1 17 35
M  V30 37 1 18 36
M  V30 38 1 18 37
M  V30 39 1 18 38
M  V30 40 1 19 39
M  V30 41 1 19 40
M  V30 42 1 19 41
M  V30 END BOND
M  V30 BEGIN COLLECTION
M  V30 MDLV30/STEABS ATOMS=(2 5 14)
M  V30 END COLLECTION
M  V30 END CTAB
M  END
>  <Structure No>
1090

>  <LogS>
-5.816819422

>  <MMFF94 Energy>
47.808

$$$$
Compound 1091
Actelion Java MolfileCreator 2.0

  0  0  0  0  0  0              0 V3000
M  V30 BEGIN CTAB
M  V30 COUNTS 62 61 0 0 0
M  V30 BEGIN ATOM
M  V30 1 C 0.9331 0.0 1.6335 0
M  V30 2 C -0.3884 -0.6892 1.2586 0
M  V30 3 C 1.8742 0.1703 0.4314 0
M  V30 4 C -1.3027 0.2058 0.4088 0
M  V30 5 C 3.2375 0.7197 0.8766 0
M  V30 6 C -2.6611 -0.4649 0.17 0
M  V30 7 C 4.1561 1.0703 -0.3075 0
M  V30 8 C -3.5735 0.4299 -0.6828 0
M  V30 9 C 4.5355 -0.1205 -1.2105 0
M  V30 10 C -4.899 -0.2548 -1.0535 0
M  V30 11 C 5.2126 -1.3019 -0.4872 0
M  V30 12 C -5.879 -0.3237 0.1301 0
M  V30 13 C 6.4902 -0.938 0.29 0
M  V30 14 C -7.1822 -1.0669 -0.2154 0
M  V30 15 C 7.6024 -0.3873 -0.6188 0
M  V30 16 C -8.0296 -0.4242 -1.3326 0
M  V30 17 C 8.9486 -0.2597 0.1103 0
M  V30 18 C -8.4317 1.0399 -1.0832 0
M  V30 19 C 8.9451 0.847 1.1648 0
M  V30 20 C -9.2864 1.2175 0.171 0
M  V30 21 H 0.7234 0.9903 2.0942 0
M  V30 22 H 1.4405 -0.6268 2.3995 0
M  V30 23 H -0.9172 -0.9497 2.2019 0
M  V30 24 H -0.1784 -1.6381 0.718 0
M  V30 25 H 1.4232 0.8742 -0.2996 0
M  V30 26 H 2.014 -0.8163 -0.059 0
M  V30 27 H -0.823 0.4037 -0.5731 0
M  V30 28 H -1.46 1.1758 0.9301 0
M  V30 29 H 3.7386 -0.0053 1.5519 0
M  V30 30 H 3.0745 1.6505 1.4631 0
M  V30 31 H -3.1402 -0.6633 1.1519 0
M  V30 32 H -2.503 -1.4352 -0.3502 0
M  V30 33 H 5.0802 1.5464 0.0832 0
M  V30 34 H 3.6527 1.838 -0.9348 0
M  V30 35 H -3.7777 1.3839 -0.1485 0
M  V30 36 H -3.043 0.6813 -1.6275 0
M  V30 37 H 5.2053 0.2472 -2.0164 0
M  V30 38 H 3.6252 -0.4951 -1.7245 0
M  V30 39 H -4.701 -1.2759 -1.4468 0
M  V30 40 H -5.3609 0.3388 -1.8703 0
M  V30 41 H 4.488 -1.7711 0.2114 0
M  V30 42 H 5.4627 -2.0778 -1.243 0
M  V30 43 H -6.1049 0.6983 0.5003 0
M  V30 44 H -5.4037 -0.8731 0.9688 0
M  V30 45 H 6.2487 -0.209 1.0905 0
M  V30 46 H 6.8559 -1.862 0.7885 0
M  V30 47 H -7.7976 -1.1547 0.7052 0
M  V30 48 H -6.9294 -2.1052 -0.5225 0
M  V30 49 H 7.3111 0.6054 -1.0236 0
M  V30 50 H 7.7412 -1.078 -1.4791 0
M  V30 51 H -7.4816 -0.4869 -2.2963 0
M  V30 52 H -8.9532 -1.0298 -1.4608 0
M  V30 53 H 9.7333 -0.023 -0.6404 0
M  V30 54 H 9.2205 -1.2269 0.5862 0
M  V30 55 H -7.5327 1.6882 -1.0216 0
M  V30 56 H -9.0223 1.3893 -1.9576 0
M  V30 57 H 9.9698 0.9691 1.5746 0
M  V30 58 H 8.6271 1.8117 0.715 0
M  V30 59 H 8.2664 0.5884 2.0037 0
M  V30 60 H -8.6875 1.0202 1.0843 0
M  V30 61 H -9.6567 2.2631 0.2203 0
M  V30 62 H -10.1608 0.533 0.1452 0
M  V30 END ATOM
M  V30 BEGIN BOND
M  V30 1 1 1 2
M  V30 2 1 1 3
M  V30 3 1 2 4
M  V30 4 1 3 5
M  V30 5 1 4 6
M  V30 6 1 5 7
M  V30 7 1 6 8
M  V30 8 1 7 9
M  V30 9 1 8 10
M  V30 10 1 9 11
M  V30 11 1 10 12
M  V30 12 1 11 13
M  V30 13 1 12 14
M  V30 14 1 13 15
M  V30 15 1 14 16
M  V30 16 1 15 17
M  V30 17 1 16 18
M  V30 18 1 17 19
M  V30 19 1 18 20
M  V30 20 1 1 21
M  V30 21 1 1 22
M  V30 22 1 2 23
M  V30 23 1 2 24
M  V30 24 1 3 25
M  V30 25 1 3 26
M  V30 26 1 4 27
M  V30 27 1 4 28
M  V30 28 1 5 29
M  V30 29 1 5 30
M  V30 30 1 6 31
M  V30 31 1 6 32
M  V30 32 1 7 33
M  V30 33 1 7 34
M  V30 34 1 8 35
M  V30 35 1 8 36
M  V30 36 1 9 37
M  V30 37 1 9 38
M  V30 38 1 10 39
M  V30 39 1 10 40
M  V30 40 1 11 41
M  V30 41 1 11 42
M  V30 42 1 12 43
M  V30 43 1 12 44
M  V30 44 1 13 45
M  V30 45 1 13 46
M  V30 46 1 14 47
M  V30 47 1 14 48
M  V30 48 1 15 49
M  V30 49 1 15 50
M  V30 50 1 16 51
M  V30 51 1 16 52
M  V30 52 1 17 53
M  V30 53 1 17 54
M  V30 54 1 18 55
M  V30 55 1 18 56
M  V30 56 1 19 57
M  V30 57 1 19 58
M  V30 58 1 19 59
M  V30 59 1 20 60
M  V30 60 1 20 61
M  V30 61 1 20 62
M  V30 END BOND
M  V30 END CTAB
M  END
>  <Structure No>
1091

>  <LogS>
-6.269131018

>  <MMFF94 Energy>
-6.6847

$$$$
Compound 1092
Actelion Java MolfileCreator 2.0

  0  0  0  0  0  0              0 V3000
M  V30 BEGIN CTAB
M  V30 COUNTS 34 35 0 0 0
M  V30 BEGIN ATOM
M  V30 1 Cl -4.1555 -0.0829 -2.658 0
M  V30 2 C -4.6403 0.2242 -0.9951 0
M  V30 3 C -3.6839 0.3571 0.0313 0
M  V30 4 C -6.0054 0.3074 -0.6959 0
M  V30 5 N -2.2805 0.3016 -0.2765 0
M  V30 6 C -4.1192 0.6042 1.3461 0
M  V30 7 C -6.4268 0.5353 0.6159 0
M  V30 8 C -1.3225 -0.4163 0.5231 0
M  V30 9 C -5.4848 0.6869 1.6368 0
M  V30 10 O -1.7078 -1.0632 1.5355 0
M  V30 11 C 0.1189 -0.4175 0.1754 0
M  V30 12 Cl -6.0153 0.9936 3.2808 0
M  V30 13 C 1.0813 -0.5685 1.1867 0
M  V30 14 C 0.5459 -0.3099 -1.1562 0
M  V30 15 C 2.4549 -0.5884 0.8874 0
M  V30 16 C 1.9064 -0.3102 -1.4658 0
M  V30 17 N 3.3955 -0.8371 1.945 0 CHG=1
M  V30 18 C 2.8762 -0.4256 -0.4555 0
M  V30 19 O 3.185 -0.3864 3.09 0
M  V30 20 O 4.4028 -1.7576 1.7676 0 CHG=-1
M  V30 21 C 4.3058 -0.3094 -0.8243 0
M  V30 22 O 4.6898 -0.6708 -1.9711 0
M  V30 23 O 5.2205 0.2434 0.0782 0
M  V30 24 C 6.6032 0.3885 -0.2215 0
M  V30 25 H -6.7422 0.1947 -1.4811 0
M  V30 26 H -1.9594 0.7938 -1.1385 0
M  V30 27 H -3.4001 0.7568 2.1406 0
M  V30 28 H -7.4848 0.5993 0.8367 0
M  V30 29 H 0.7623 -0.6884 2.2154 0
M  V30 30 H -0.1657 -0.2422 -1.9679 0
M  V30 31 H 2.2019 -0.1965 -2.5018 0
M  V30 32 H 6.7337 1.0482 -1.1052 0
M  V30 33 H 7.0541 -0.6058 -0.4247 0
M  V30 34 H 7.1184 0.8459 0.648 0
M  V30 END ATOM
M  V30 BEGIN BOND
M  V30 1 1 1 2
M  V30 2 2 2 3
M  V30 3 1 2 4
M  V30 4 1 3 5
M  V30 5 1 3 6
M  V30 6 2 4 7
M  V30 7 1 5 8
M  V30 8 2 6 9
M  V30 9 2 8 10
M  V30 10 1 8 11
M  V30 11 1 9 12
M  V30 12 2 11 13
M  V30 13 1 11 14
M  V30 14 1 13 15
M  V30 15 2 14 16
M  V30 16 1 15 17
M  V30 17 2 15 18
M  V30 18 2 17 19
M  V30 19 1 17 20
M  V30 20 1 18 21
M  V30 21 2 21 22
M  V30 22 1 21 23
M  V30 23 1 23 24
M  V30 24 1 7 9
M  V30 25 1 16 18
M  V30 26 1 4 25
M  V30 27 1 5 26
M  V30 28 1 6 27
M  V30 29 1 7 28
M  V30 30 1 13 29
M  V30 31 1 14 30
M  V30 32 1 16 31
M  V30 33 1 24 32
M  V30 34 1 24 33
M  V30 35 1 24 34
M  V30 END BOND
M  V30 END CTAB
M  END
>  <Structure No>
1092

>  <LogS>
-5.965154646

>  <MMFF94 Energy>
42.805

$$$$
Compound 1093
Actelion Java MolfileCreator 2.0

  0  0  0  0  0  0              0 V3000
M  V30 BEGIN CTAB
M  V30 COUNTS 43 42 0 0 0
M  V30 BEGIN ATOM
M  V30 1 O 3.2748 -0.4673 -1.8703 0
M  V30 2 C 3.444 -0.2715 -0.6343 0
M  V30 3 O 2.3887 -0.498 0.2555 0
M  V30 4 C 4.7554 0.1996 -0.1208 0
M  V30 5 C 1.1058 -0.9477 -0.1678 0
M  V30 6 C 5.7496 0.4967 -0.9819 0
M  V30 7 C 4.9451 0.3819 1.3663 0
M  V30 8 C 0.1922 -1.0917 1.0514 0
M  V30 9 C 7.0928 1.0061 -0.5499 0
M  V30 10 C -1.1699 -1.7413 0.7126 0 CFG=2
M  V30 11 C -2.0131 -0.9475 -0.3182 0
M  V30 12 C -1.9655 -2.0107 1.9993 0
M  V30 13 C -2.2826 0.5169 0.0693 0
M  V30 14 C -3.2389 1.1563 -0.906 0
M  V30 15 C -4.5849 1.1158 -0.7919 0
M  V30 16 C -5.4171 1.7673 -1.8659 0
M  V30 17 C -5.2689 0.4558 0.3828 0
M  V30 18 H 0.6799 -0.2079 -0.8784 0
M  V30 19 H 1.2097 -1.93 -0.6781 0
M  V30 20 H 5.5956 0.3793 -2.048 0
M  V30 21 H 5.0449 1.4624 1.6015 0
M  V30 22 H 4.0913 -0.0208 1.9482 0
M  V30 23 H 5.8552 -0.1542 1.7072 0
M  V30 24 H 0.7156 -1.7333 1.7943 0
M  V30 25 H 0.0452 -0.098 1.5263 0
M  V30 26 H 7.6064 0.2487 0.0781 0
M  V30 27 H 7.7213 1.205 -1.443 0
M  V30 28 H 6.9796 1.953 0.0186 0
M  V30 29 H -0.9625 -2.7363 0.2587 0
M  V30 30 H -2.978 -1.4784 -0.4667 0
M  V30 31 H -1.5016 -0.9697 -1.3044 0
M  V30 32 H -2.9558 -2.453 1.7594 0
M  V30 33 H -1.4157 -2.7327 2.6399 0
M  V30 34 H -2.1177 -1.0781 2.5813 0
M  V30 35 H -2.6685 0.601 1.1047 0
M  V30 36 H -1.3306 1.0861 0.0281 0
M  V30 37 H -2.7991 1.6587 -1.7643 0
M  V30 38 H -6.5033 1.6772 -1.6567 0
M  V30 39 H -5.1651 2.8468 -1.9332 0
M  V30 40 H -5.2104 1.2846 -2.8444 0
M  V30 41 H -4.9955 0.9792 1.3227 0
M  V30 42 H -4.9734 -0.6105 0.4541 0
M  V30 43 H -6.3735 0.4939 0.2836 0
M  V30 END ATOM
M  V30 BEGIN BOND
M  V30 1 2 1 2
M  V30 2 1 2 3
M  V30 3 1 2 4
M  V30 4 1 3 5
M  V30 5 2 4 6
M  V30 6 1 4 7
M  V30 7 1 5 8
M  V30 8 1 6 9
M  V30 9 1 8 10
M  V30 10 1 10 11
M  V30 11 1 10 12
M  V30 12 1 11 13
M  V30 13 1 13 14
M  V30 14 2 14 15
M  V30 15 1 15 16
M  V30 16 1 15 17
M  V30 17 1 5 18
M  V30 18 1 5 19
M  V30 19 1 6 20
M  V30 20 1 7 21
M  V30 21 1 7 22
M  V30 22 1 7 23
M  V30 23 1 8 24
M  V30 24 1 8 25
M  V30 25 1 9 26
M  V30 26 1 9 27
M  V30 27 1 9 28
M  V30 28 1 10 29
M  V30 29 1 11 30
M  V30 30 1 11 31
M  V30 31 1 12 32
M  V30 32 1 12 33
M  V30 33 1 12 34
M  V30 34 1 13 35
M  V30 35 1 13 36
M  V30 36 1 14 37
M  V30 37 1 16 38
M  V30 38 1 16 39
M  V30 39 1 16 40
M  V30 40 1 17 41
M  V30 41 1 17 42
M  V30 42 1 17 43
M  V30 END BOND
M  V30 BEGIN COLLECTION
M  V30 MDLV30/STEABS ATOMS=(1 10)
M  V30 END COLLECTION
M  V30 END CTAB
M  END
>  <Structure No>
1093

>  <LogS>
-5.791792689

>  <MMFF94 Energy>
17.34

$$$$
Compound 1094
Actelion Java MolfileCreator 2.0

  0  0  0  0  0  0              0 V3000
M  V30 BEGIN CTAB
M  V30 COUNTS 36 35 0 0 0
M  V30 BEGIN ATOM
M  V30 1 F 7.3521 0.1685 0.6744 0
M  V30 2 C 6.0377 0.0924 0.2489 0
M  V30 3 F 5.5866 1.381 0.0274 0
M  V30 4 F 6.0027 -0.6187 -0.9372 0
M  V30 5 C 5.1927 -0.6026 1.3329 0
M  V30 6 F 5.8805 -1.7301 1.7524 0
M  V30 7 F 5.0818 0.2452 2.423 0
M  V30 8 C 3.7771 -1.0559 0.882 0
M  V30 9 F 3.9069 -2.0334 -0.0918 0
M  V30 10 F 3.1749 -1.6432 1.9831 0
M  V30 11 C 2.87 0.0866 0.3386 0
M  V30 12 F 2.9241 1.1714 1.1988 0
M  V30 13 F 3.3518 0.4772 -0.8996 0
M  V30 14 C 1.3869 -0.3539 0.1788 0
M  V30 15 F 1.329 -1.4546 -0.6612 0
M  V30 16 F 0.8958 -0.7193 1.4213 0
M  V30 17 C 0.4863 0.775 -0.396 0
M  V30 18 F 0.3944 1.8105 0.5203 0
M  V30 19 F 1.0528 1.2809 -1.5542 0
M  V30 20 C -0.9366 0.2998 -0.7634 0
M  V30 21 C -1.7786 -0.1611 0.4353 0
M  V30 22 O -3.1413 -0.3316 0.0497 0
M  V30 23 C -4.0346 0.733 -0.1243 0
M  V30 24 O -3.6637 1.9169 0.1107 0
M  V30 25 C -5.415 0.4564 -0.5806 0
M  V30 26 C -6.2713 1.455 -0.828 0
M  V30 27 C -5.8302 -0.9653 -0.8387 0
M  V30 28 H -0.8826 -0.5223 -1.5093 0
M  V30 29 H -1.4572 1.148 -1.2578 0
M  V30 30 H -1.7112 0.5611 1.2777 0
M  V30 31 H -1.4057 -1.1439 0.7885 0
M  V30 32 H -5.9921 2.49 -0.6764 0
M  V30 33 H -7.2718 1.2546 -1.1909 0
M  V30 34 H -5.4033 -1.3044 -1.8055 0
M  V30 35 H -6.936 -1.0699 -0.8779 0
M  V30 36 H -5.4578 -1.6253 -0.0271 0
M  V30 END ATOM
M  V30 BEGIN BOND
M  V30 1 1 1 2
M  V30 2 1 2 3
M  V30 3 1 2 4
M  V30 4 1 2 5
M  V30 5 1 5 6
M  V30 6 1 5 7
M  V30 7 1 5 8
M  V30 8 1 8 9
M  V30 9 1 8 10
M  V30 10 1 8 11
M  V30 11 1 11 12
M  V30 12 1 11 13
M  V30 13 1 11 14
M  V30 14 1 14 15
M  V30 15 1 14 16
M  V30 16 1 14 17
M  V30 17 1 17 18
M  V30 18 1 17 19
M  V30 19 1 17 20
M  V30 20 1 20 21
M  V30 21 1 21 22
M  V30 22 1 22 23
M  V30 23 2 23 24
M  V30 24 1 23 25
M  V30 25 2 25 26
M  V30 26 1 25 27
M  V30 27 1 20 28
M  V30 28 1 20 29
M  V30 29 1 21 30
M  V30 30 1 21 31
M  V30 31 1 26 32
M  V30 32 1 26 33
M  V30 33 1 27 34
M  V30 34 1 27 35
M  V30 35 1 27 36
M  V30 END BOND
M  V30 END CTAB
M  END
>  <Structure No>
1094

>  <LogS>
-6.058168846

>  <MMFF94 Energy>
57.331

$$$$
Compound 1095
Actelion Java MolfileCreator 2.0

  0  0  0  0  0  0              0 V3000
M  V30 BEGIN CTAB
M  V30 COUNTS 41 44 0 0 0
M  V30 BEGIN ATOM
M  V30 1 O -4.2287 -1.0559 2.682 0
M  V30 2 C -4.9533 -1.2364 1.668 0
M  V30 3 N -4.6336 -0.7759 0.3586 0
M  V30 4 C -6.2036 -1.9925 1.659 0
M  V30 5 C -3.4971 -0.0039 -0.0684 0
M  V30 6 C -5.7141 -1.2739 -0.4245 0
M  V30 7 C -6.6566 -2.0172 0.4084 0
M  V30 8 C -2.9527 0.9843 0.7681 0
M  V30 9 C -2.9139 -0.2315 -1.3256 0
M  V30 10 O -5.8572 -1.0588 -1.6571 0
M  V30 11 C -1.8477 1.7334 0.3536 0
M  V30 12 C -1.808 0.5162 -1.7395 0
M  V30 13 C -1.2737 1.5115 -0.9071 0
M  V30 14 C -0.0588 2.2887 -1.3358 0
M  V30 15 C 1.193 1.5789 -0.8966 0
M  V30 16 C 1.7878 0.6146 -1.7241 0
M  V30 17 C 1.7434 1.8315 0.369 0
M  V30 18 C 2.9294 -0.0718 -1.3006 0
M  V30 19 C 2.884 1.1439 0.7931 0
M  V30 20 C 3.4886 0.187 -0.0385 0
M  V30 21 N 4.6619 -0.5217 0.3984 0
M  V30 22 C 4.9952 -0.9644 1.7106 0
M  V30 23 C 5.7744 -0.9599 -0.3755 0
M  V30 24 O 4.2532 -0.8237 2.7185 0
M  V30 25 C 6.2848 -1.6511 1.7123 0
M  V30 26 O 5.916 -0.737 -1.6067 0
M  V30 27 C 6.7489 -1.6508 0.4656 0
M  V30 28 H -6.6823 -2.4588 2.5098 0
M  V30 29 H -7.5668 -2.5009 0.0794 0
M  V30 30 H -3.3925 1.1907 1.7346 0
M  V30 31 H -3.2969 -1.0051 -1.9778 0
M  V30 32 H -1.4406 2.488 1.0155 0
M  V30 33 H -1.3642 0.3151 -2.7067 0
M  V30 34 H -0.0886 3.3135 -0.9042 0
M  V30 35 H -0.0576 2.4176 -2.4406 0
M  V30 36 H 1.3638 0.3897 -2.695 0
M  V30 37 H 1.2901 2.5626 1.0272 0
M  V30 38 H 3.3595 -0.8231 -1.9494 0
M  V30 39 H 3.3036 1.3738 1.7634 0
M  V30 40 H 6.7809 -2.0909 2.5673 0
M  V30 41 H 7.6869 -2.084 0.1445 0
M  V30 END ATOM
M  V30 BEGIN BOND
M  V30 1 2 1 2
M  V30 2 1 2 3
M  V30 3 1 2 4
M  V30 4 1 3 5
M  V30 5 1 3 6
M  V30 6 2 4 7
M  V30 7 2 5 8
M  V30 8 1 5 9
M  V30 9 2 6 10
M  V30 10 1 8 11
M  V30 11 2 9 12
M  V30 12 2 11 13
M  V30 13 1 13 14
M  V30 14 1 14 15
M  V30 15 2 15 16
M  V30 16 1 15 17
M  V30 17 1 16 18
M  V30 18 2 17 19
M  V30 19 2 18 20
M  V30 20 1 20 21
M  V30 21 1 21 22
M  V30 22 1 21 23
M  V30 23 2 22 24
M  V30 24 1 22 25
M  V30 25 2 23 26
M  V30 26 1 23 27
M  V30 27 1 6 7
M  V30 28 1 12 13
M  V30 29 1 19 20
M  V30 30 2 25 27
M  V30 31 1 4 28
M  V30 32 1 7 29
M  V30 33 1 8 30
M  V30 34 1 9 31
M  V30 35 1 11 32
M  V30 36 1 12 33
M  V30 37 1 14 34
M  V30 38 1 14 35
M  V30 39 1 16 36
M  V30 40 1 17 37
M  V30 41 1 18 38
M  V30 42 1 19 39
M  V30 43 1 25 40
M  V30 44 1 27 41
M  V30 END BOND
M  V30 END CTAB
M  END
>  <Structure No>
1095

>  <LogS>
-5.998008544

>  <MMFF94 Energy>
-0.30031

$$$$
Compound 1096
Actelion Java MolfileCreator 2.0

  0  0  0  0  0  0              0 V3000
M  V30 BEGIN CTAB
M  V30 COUNTS 45 44 0 0 0
M  V30 BEGIN ATOM
M  V30 1 O 6.8426 2.4839 -1.0085 0
M  V30 2 C 6.539 1.1197 -1.1141 0
M  V30 3 C 5.1266 0.8493 -0.5886 0
M  V30 4 C 4.7911 -0.648 -0.6527 0
M  V30 5 C 3.3363 -0.9449 -0.2561 0
M  V30 6 C 3.0722 -0.7096 1.2418 0
M  V30 7 C 1.7105 -1.2598 1.6956 0
M  V30 8 C 0.5298 -0.4576 1.1278 0
M  V30 9 C -0.8031 -0.9655 1.6986 0
M  V30 10 C -2.0039 -0.116 1.2509 0
M  V30 11 C -2.3833 -0.3578 -0.2205 0
M  V30 12 C -3.5857 0.4898 -0.6669 0
M  V30 13 C -4.9169 -0.0175 -0.0917 0
M  V30 14 C -6.0986 0.771 -0.6682 0
M  V30 15 C -7.4238 0.2785 -0.0934 0
M  V30 16 H 6.3589 2.9406 -1.7458 0
M  V30 17 H 7.275 0.5481 -0.5093 0
M  V30 18 H 6.6297 0.7859 -2.1733 0
M  V30 19 H 5.0662 1.2056 0.4618 0
M  V30 20 H 4.3956 1.4222 -1.2003 0
M  V30 21 H 4.9416 -1.0054 -1.6951 0
M  V30 22 H 5.4846 -1.2201 0.0021 0
M  V30 23 H 3.1267 -2.0097 -0.4983 0
M  V30 24 H 2.6548 -0.3174 -0.8694 0
M  V30 25 H 3.125 0.3753 1.4752 0
M  V30 26 H 3.8617 -1.2224 1.8337 0
M  V30 27 H 1.6766 -1.2132 2.8064 0
M  V30 28 H 1.6184 -2.3284 1.4015 0
M  V30 29 H 0.6562 0.6168 1.3859 0
M  V30 30 H 0.5189 -0.5604 0.0239 0
M  V30 31 H -0.9613 -2.027 1.4062 0
M  V30 32 H -0.7537 -0.9273 2.8092 0
M  V30 33 H -2.8635 -0.3883 1.8984 0
M  V30 34 H -1.786 0.9619 1.4164 0
M  V30 35 H -1.5249 -0.0836 -0.8685 0
M  V30 36 H -2.5998 -1.4359 -0.3864 0
M  V30 37 H -3.4272 1.552 -0.3771 0
M  V30 38 H -3.6389 0.4494 -1.7772 0
M  V30 39 H -4.9168 0.0956 1.0131 0
M  V30 40 H -5.0405 -1.0949 -0.3388 0
M  V30 41 H -6.123 0.6568 -1.774 0
M  V30 42 H -5.9816 1.8505 -0.4282 0
M  V30 43 H -7.5768 -0.7936 -0.3402 0
M  V30 44 H -8.2594 0.8659 -0.5295 0
M  V30 45 H -7.4377 0.407 1.0099 0
M  V30 END ATOM
M  V30 BEGIN BOND
M  V30 1 1 1 2
M  V30 2 1 2 3
M  V30 3 1 3 4
M  V30 4 1 4 5
M  V30 5 1 5 6
M  V30 6 1 6 7
M  V30 7 1 7 8
M  V30 8 1 8 9
M  V30 9 1 9 10
M  V30 10 1 10 11
M  V30 11 1 11 12
M  V30 12 1 12 13
M  V30 13 1 13 14
M  V30 14 1 14 15
M  V30 15 1 1 16
M  V30 16 1 2 17
M  V30 17 1 2 18
M  V30 18 1 3 19
M  V30 19 1 3 20
M  V30 20 1 4 21
M  V30 21 1 4 22
M  V30 22 1 5 23
M  V30 23 1 5 24
M  V30 24 1 6 25
M  V30 25 1 6 26
M  V30 26 1 7 27
M  V30 27 1 7 28
M  V30 28 1 8 29
M  V30 29 1 8 30
M  V30 30 1 9 31
M  V30 31 1 9 32
M  V30 32 1 10 33
M  V30 33 1 10 34
M  V30 34 1 11 35
M  V30 35 1 11 36
M  V30 36 1 12 37
M  V30 37 1 12 38
M  V30 38 1 13 39
M  V30 39 1 13 40
M  V30 40 1 14 41
M  V30 41 1 14 42
M  V30 42 1 15 43
M  V30 43 1 15 44
M  V30 44 1 15 45
M  V30 END BOND
M  V30 END CTAB
M  END
>  <Structure No>
1096

>  <LogS>
-5.787142557

>  <MMFF94 Energy>
-2.8247

$$$$
Compound 1097
Actelion Java MolfileCreator 2.0

  0  0  0  0  0  0              0 V3000
M  V30 BEGIN CTAB
M  V30 COUNTS 33 35 0 0 0
M  V30 BEGIN ATOM
M  V30 1 S 2.2377 -0.4969 0.5797 0
M  V30 2 C 1.4212 0.9841 0.6435 0
M  V30 3 C 3.6464 0.2327 0.0322 0
M  V30 4 S -0.2796 1.1673 1.1544 0
M  V30 5 N 2.1959 2.0256 0.2572 0
M  V30 6 C 3.4384 1.5989 -0.083 0
M  V30 7 C 4.8678 -0.3581 -0.2802 0
M  V30 8 N -0.8689 0.9497 -0.5066 0
M  V30 9 C 4.4665 2.434 -0.5236 0
M  V30 10 C 5.9092 0.4721 -0.7243 0
M  V30 11 C -2.0172 0.0302 -0.58 0
M  V30 12 C 5.7096 1.8622 -0.8454 0
M  V30 13 C -1.5991 -1.4317 -0.2764 0
M  V30 14 C -3.2087 0.481 0.2937 0
M  V30 15 C -2.7668 -2.3012 0.2329 0
M  V30 16 C -4.4516 -0.3971 0.0414 0
M  V30 17 C -4.1105 -1.8503 -0.3511 0
M  V30 18 H 5.0114 -1.4264 -0.184 0
M  V30 19 H -1.1719 1.8903 -0.8499 0
M  V30 20 H 4.3118 3.5014 -0.6164 0
M  V30 21 H 6.8702 0.0423 -0.9749 0
M  V30 22 H -2.3756 0.0484 -1.6349 0
M  V30 23 H 6.5187 2.4936 -1.1888 0
M  V30 24 H -0.7896 -1.4691 0.4819 0
M  V30 25 H -1.1874 -1.8817 -1.2062 0
M  V30 26 H -2.9384 0.4065 1.3692 0
M  V30 27 H -3.46 1.5425 0.0792 0
M  V30 28 H -2.8185 -2.2398 1.3425 0
M  V30 29 H -2.582 -3.3638 -0.0355 0
M  V30 30 H -5.063 0.0552 -0.7695 0
M  V30 31 H -5.0768 -0.4007 0.9611 0
M  V30 32 H -4.0665 -1.9348 -1.4593 0
M  V30 33 H -4.9161 -2.5288 0.0036 0
M  V30 END ATOM
M  V30 BEGIN BOND
M  V30 1 1 1 2
M  V30 2 1 1 3
M  V30 3 1 2 4
M  V30 4 2 2 5
M  V30 5 2 3 6
M  V30 6 1 3 7
M  V30 7 1 4 8
M  V30 8 1 6 9
M  V30 9 2 7 10
M  V30 10 1 8 11
M  V30 11 2 9 12
M  V30 12 1 11 13
M  V30 13 1 11 14
M  V30 14 1 13 15
M  V30 15 1 14 16
M  V30 16 1 15 17
M  V30 17 1 5 6
M  V30 18 1 10 12
M  V30 19 1 16 17
M  V30 20 1 7 18
M  V30 21 1 8 19
M  V30 22 1 9 20
M  V30 23 1 10 21
M  V30 24 1 11 22
M  V30 25 1 12 23
M  V30 26 1 13 24
M  V30 27 1 13 25
M  V30 28 1 14 26
M  V30 29 1 14 27
M  V30 30 1 15 28
M  V30 31 1 15 29
M  V30 32 1 16 30
M  V30 33 1 16 31
M  V30 34 1 17 32
M  V30 35 1 17 33
M  V30 END BOND
M  V30 END CTAB
M  END
>  <Structure No>
1097

>  <LogS>
-5.91714268

>  <MMFF94 Energy>
27.789

$$$$
Compound 1098
Actelion Java MolfileCreator 2.0

  0  0  0  0  0  0              0 V3000
M  V30 BEGIN CTAB
M  V30 COUNTS 58 58 0 0 0
M  V30 BEGIN ATOM
M  V30 1 O -8.952 1.7227 1.4876 0
M  V30 2 C -8.407 0.8807 0.5209 0
M  V30 3 C -7.0178 0.7951 0.3493 0
M  V30 4 C -9.2552 0.1133 -0.2837 0
M  V30 5 C -6.4752 -0.0491 -0.6339 0
M  V30 6 C -8.7207 -0.7387 -1.2545 0
M  V30 7 C -7.3362 -0.824 -1.4275 0
M  V30 8 C -4.9832 -0.1626 -0.7987 0
M  V30 9 C -4.424 -1.286 0.0846 0
M  V30 10 C -2.9318 -1.5676 -0.1714 0
M  V30 11 C -1.9993 -0.4225 0.278 0
M  V30 12 C -1.5376 0.4518 -0.9009 0
M  V30 13 C -0.83 1.7404 -0.445 0
M  V30 14 C 0.5189 1.5172 0.2628 0
M  V30 15 C 1.5922 0.9424 -0.6737 0
M  V30 16 C 2.9706 0.9349 6.0E-4 0
M  V30 17 C 4.0389 0.366 -0.9464 0
M  V30 18 C 5.4616 0.4783 -0.3772 0
M  V30 19 C 5.7271 -0.5282 0.7549 0
M  V30 20 C 7.152 -0.4154 1.322 0
M  V30 21 C 8.2157 -0.9757 0.3665 0
M  V30 22 C 9.5955 -0.9729 1.0175 0
M  V30 23 H -8.3626 2.2886 2.0875 0
M  V30 24 H -6.3641 1.3852 0.9792 0
M  V30 25 H -10.328 0.1747 -0.1546 0
M  V30 26 H -9.3796 -1.3354 -1.8712 0
M  V30 27 H -6.9353 -1.4941 -2.1787 0
M  V30 28 H -4.512 0.8041 -0.5193 0
M  V30 29 H -4.7394 -0.3643 -1.8657 0
M  V30 30 H -4.9874 -2.2223 -0.1246 0
M  V30 31 H -4.5804 -1.033 1.1572 0
M  V30 32 H -2.7683 -1.8239 -1.2422 0
M  V30 33 H -2.6658 -2.4766 0.4116 0
M  V30 34 H -2.4966 0.203 1.0516 0
M  V30 35 H -1.1001 -0.8751 0.7487 0
M  V30 36 H -2.4155 0.7516 -1.5083 0
M  V30 37 H -0.88 -0.138 -1.5726 0
M  V30 38 H -1.5045 2.2989 0.2404 0
M  V30 39 H -0.6683 2.3903 -1.3323 0
M  V30 40 H 0.3913 0.8578 1.1467 0
M  V30 41 H 0.8646 2.5046 0.6406 0
M  V30 42 H 1.6406 1.5572 -1.5994 0
M  V30 43 H 1.3263 -0.0996 -0.9516 0
M  V30 44 H 3.2453 1.9747 0.2861 0
M  V30 45 H 2.9148 0.3166 0.9216 0
M  V30 46 H 4.0092 0.9359 -1.9008 0
M  V30 47 H 3.8086 -0.6956 -1.1824 0
M  V30 48 H 5.6435 1.5138 -0.0173 0
M  V30 49 H 6.1674 0.2839 -1.2106 0
M  V30 50 H 5.546 -1.5642 0.3937 0
M  V30 51 H 5.02 -0.3337 1.5888 0
M  V30 52 H 7.1887 -0.9906 2.2732 0
M  V30 53 H 7.3791 0.6463 1.5635 0
M  V30 54 H 7.9564 -2.0188 0.0834 0
M  V30 55 H 8.265 -0.3604 -0.5557 0
M  V30 56 H 9.5974 -1.6161 1.9232 0
M  V30 57 H 10.3448 -1.3686 0.3004 0
M  V30 58 H 9.8863 0.0606 1.3 0
M  V30 END ATOM
M  V30 BEGIN BOND
M  V30 1 1 1 2
M  V30 2 2 2 3
M  V30 3 1 2 4
M  V30 4 1 3 5
M  V30 5 2 4 6
M  V30 6 2 5 7
M  V30 7 1 5 8
M  V30 8 1 8 9
M  V30 9 1 9 10
M  V30 10 1 10 11
M  V30 11 1 11 12
M  V30 12 1 12 13
M  V30 13 1 13 14
M  V30 14 1 14 15
M  V30 15 1 15 16
M  V30 16 1 16 17
M  V30 17 1 17 18
M  V30 18 1 18 19
M  V30 19 1 19 20
M  V30 20 1 20 21
M  V30 21 1 21 22
M  V30 22 1 6 7
M  V30 23 1 1 23
M  V30 24 1 3 24
M  V30 25 1 4 25
M  V30 26 1 6 26
M  V30 27 1 7 27
M  V30 28 1 8 28
M  V30 29 1 8 29
M  V30 30 1 9 30
M  V30 31 1 9 31
M  V30 32 1 10 32
M  V30 33 1 10 33
M  V30 34 1 11 34
M  V30 35 1 11 35
M  V30 36 1 12 36
M  V30 37 1 12 37
M  V30 38 1 13 38
M  V30 39 1 13 39
M  V30 40 1 14 40
M  V30 41 1 14 41
M  V30 42 1 15 42
M  V30 43 1 15 43
M  V30 44 1 16 44
M  V30 45 1 16 45
M  V30 46 1 17 46
M  V30 47 1 17 47
M  V30 48 1 18 48
M  V30 49 1 18 49
M  V30 50 1 19 50
M  V30 51 1 19 51
M  V30 52 1 20 52
M  V30 53 1 20 53
M  V30 54 1 21 54
M  V30 55 1 21 55
M  V30 56 1 22 56
M  V30 57 1 22 57
M  V30 58 1 22 58
M  V30 END BOND
M  V30 END CTAB
M  END
>  <Structure No>
1098

>  <LogS>
-6.597038826

>  <MMFF94 Energy>
7.045

$$$$
Compound 1099
Actelion Java MolfileCreator 2.0

  0  0  0  0  0  0              0 V3000
M  V30 BEGIN CTAB
M  V30 COUNTS 43 44 0 0 0
M  V30 BEGIN ATOM
M  V30 1 O 0.2379 1.3488 -0.7932 0
M  V30 2 C 0.3254 0.1434 -0.4335 0
M  V30 3 N 1.6067 -0.5083 -0.3999 0
M  V30 4 C -0.8901 -0.5779 -0.0096 0
M  V30 5 C 2.7944 0.0388 -1.0009 0
M  V30 6 O -0.803 -1.7845 0.3466 0
M  V30 7 N -2.1707 0.075 -0.0342 0
M  V30 8 C 4.0433 -0.1388 -0.3707 0
M  V30 9 C 2.7297 0.7048 -2.2386 0
M  V30 10 C -3.359 -0.5026 0.5361 0
M  V30 11 O 4.0839 -0.8246 0.8565 0
M  V30 12 C 5.2051 0.3739 -0.9841 0
M  V30 13 C 3.8873 1.2118 -2.8309 0
M  V30 14 C -4.6028 -0.4232 -0.139 0
M  V30 15 C -3.3026 -1.1112 1.8034 0
M  V30 16 C 5.2355 -0.9888 1.6844 0
M  V30 17 C 5.1217 1.0489 -2.2036 0
M  V30 18 C -5.7538 -0.9518 0.4725 0
M  V30 19 C -4.7361 0.2297 -1.4946 0
M  V30 20 C -4.4531 -1.6415 2.3896 0
M  V30 21 C 5.5553 0.3035 2.428 0
M  V30 22 C -5.6765 -1.5616 1.7258 0
M  V30 23 C -5.1013 1.7047 -1.3548 0
M  V30 24 H 1.6983 -1.3879 0.1566 0
M  V30 25 H -2.2516 0.9911 -0.5285 0
M  V30 26 H 1.7872 0.812 -2.7594 0
M  V30 27 H 6.1792 0.2559 -0.5325 0
M  V30 28 H 3.8282 1.7231 -3.7831 0
M  V30 29 H -2.3696 -1.154 2.3506 0
M  V30 30 H 6.107 -1.3348 1.0898 0
M  V30 31 H 5.0142 -1.7768 2.4347 0
M  V30 32 H 6.0182 1.4392 -2.6678 0
M  V30 33 H -6.7144 -0.8923 -0.0244 0
M  V30 34 H -5.5279 -0.2818 -2.0844 0
M  V30 35 H -3.7971 0.1285 -2.0789 0
M  V30 36 H -4.3977 -2.1057 3.366 0
M  V30 37 H 4.6817 0.6124 3.0404 0
M  V30 38 H 6.4251 0.142 3.0989 0
M  V30 39 H 5.8017 1.1173 1.7156 0
M  V30 40 H -6.5684 -1.9676 2.1856 0
M  V30 41 H -6.0785 1.8112 -0.8369 0
M  V30 42 H -5.1819 2.1646 -2.3622 0
M  V30 43 H -4.3235 2.2475 -0.7777 0
M  V30 END ATOM
M  V30 BEGIN BOND
M  V30 1 2 1 2
M  V30 2 1 2 3
M  V30 3 1 2 4
M  V30 4 1 3 5
M  V30 5 2 4 6
M  V30 6 1 4 7
M  V30 7 2 5 8
M  V30 8 1 5 9
M  V30 9 1 7 10
M  V30 10 1 8 11
M  V30 11 1 8 12
M  V30 12 2 9 13
M  V30 13 2 10 14
M  V30 14 1 10 15
M  V30 15 1 11 16
M  V30 16 2 12 17
M  V30 17 1 14 18
M  V30 18 1 14 19
M  V30 19 2 15 20
M  V30 20 1 16 21
M  V30 21 2 18 22
M  V30 22 1 19 23
M  V30 23 1 13 17
M  V30 24 1 20 22
M  V30 25 1 3 24
M  V30 26 1 7 25
M  V30 27 1 9 26
M  V30 28 1 12 27
M  V30 29 1 13 28
M  V30 30 1 15 29
M  V30 31 1 16 30
M  V30 32 1 16 31
M  V30 33 1 17 32
M  V30 34 1 18 33
M  V30 35 1 19 34
M  V30 36 1 19 35
M  V30 37 1 20 36
M  V30 38 1 21 37
M  V30 39 1 21 38
M  V30 40 1 21 39
M  V30 41 1 22 40
M  V30 42 1 23 41
M  V30 43 1 23 42
M  V30 44 1 23 43
M  V30 END BOND
M  V30 END CTAB
M  END
>  <Structure No>
1099

>  <LogS>
-6.017546673

>  <MMFF94 Energy>
67.457

$$$$
Compound 1100
Actelion Java MolfileCreator 2.0

  0  0  0  0  0  0              0 V3000
M  V30 BEGIN CTAB
M  V30 COUNTS 45 45 0 0 0
M  V30 BEGIN ATOM
M  V30 1 O 1.1031 3.3123 2.365 0
M  V30 2 C 0.8647 3.2007 1.1334 0
M  V30 3 O -0.3332 3.7452 0.6418 0
M  V30 4 C 1.8875 2.5046 0.2708 0
M  V30 5 C -0.81 3.6759 -0.7036 0
M  V30 6 C 1.9546 1.0071 0.6012 0
M  V30 7 C -1.3437 2.2803 -1.0481 0
M  V30 8 C 3.0704 0.3142 -0.1928 0
M  V30 9 C -2.4367 1.8257 -0.0644 0
M  V30 10 C 3.1628 -1.1964 0.0963 0
M  V30 11 C -2.9382 0.4 -0.3501 0
M  V30 12 C 2.0562 -2.0253 -0.5927 0
M  V30 13 C -1.9199 -0.6664 0.0789 0
M  V30 14 C 0.953 -2.4653 0.3818 0
M  V30 15 C -2.4775 -2.0856 -0.0931 0
M  V30 16 C -0.1753 -3.2172 -0.3522 0
M  V30 17 C -1.512 -3.1731 0.4181 0
M  V30 18 H 1.6746 2.638 -0.8076 0
M  V30 19 H 2.8783 2.9691 0.4672 0
M  V30 20 H -1.6395 4.4066 -0.8135 0
M  V30 21 H -0.0176 3.9832 -1.4177 0
M  V30 22 H 2.1448 0.8704 1.6886 0
M  V30 23 H 0.9794 0.5472 0.3565 0
M  V30 24 H -0.5011 1.5664 -1.0593 0
M  V30 25 H -1.7667 2.3068 -2.0758 0
M  V30 26 H 4.0411 0.7788 0.0883 0
M  V30 27 H 2.9273 0.4838 -1.2827 0
M  V30 28 H -2.064 1.8802 0.9816 0
M  V30 29 H -3.2984 2.5238 -0.1477 0
M  V30 30 H 3.1834 -1.3778 1.1937 0
M  V30 31 H 4.1433 -1.5457 -0.2954 0
M  V30 32 H -3.1738 0.2894 -1.4314 0
M  V30 33 H -3.8806 0.2457 0.2198 0
M  V30 34 H 2.5135 -2.9402 -1.0302 0
M  V30 35 H 1.6095 -1.4511 -1.434 0
M  V30 36 H -1.0131 -0.5651 -0.5494 0
M  V30 37 H -1.6459 -0.5079 1.1452 0
M  V30 38 H 0.5531 -1.5819 0.9141 0
M  V30 39 H 1.3886 -3.1356 1.155 0
M  V30 40 H -2.7069 -2.2686 -1.166 0
M  V30 41 H -3.4294 -2.1741 0.4748 0
M  V30 42 H -0.3215 -2.8159 -1.3793 0
M  V30 43 H 0.1393 -4.2773 -0.4715 0
M  V30 44 H -1.34 -3.0476 1.5101 0
M  V30 45 H -2.02 -4.1537 0.2891 0
M  V30 END ATOM
M  V30 BEGIN BOND
M  V30 1 2 1 2
M  V30 2 1 2 3
M  V30 3 1 2 4
M  V30 4 1 3 5
M  V30 5 1 4 6
M  V30 6 1 5 7
M  V30 7 1 6 8
M  V30 8 1 7 9
M  V30 9 1 8 10
M  V30 10 1 9 11
M  V30 11 1 10 12
M  V30 12 1 11 13
M  V30 13 1 12 14
M  V30 14 1 13 15
M  V30 15 1 14 16
M  V30 16 1 15 17
M  V30 17 1 16 17
M  V30 18 1 4 18
M  V30 19 1 4 19
M  V30 20 1 5 20
M  V30 21 1 5 21
M  V30 22 1 6 22
M  V30 23 1 6 23
M  V30 24 1 7 24
M  V30 25 1 7 25
M  V30 26 1 8 26
M  V30 27 1 8 27
M  V30 28 1 9 28
M  V30 29 1 9 29
M  V30 30 1 10 30
M  V30 31 1 10 31
M  V30 32 1 11 32
M  V30 33 1 11 33
M  V30 34 1 12 34
M  V30 35 1 12 35
M  V30 36 1 13 36
M  V30 37 1 13 37
M  V30 38 1 14 38
M  V30 39 1 14 39
M  V30 40 1 15 40
M  V30 41 1 15 41
M  V30 42 1 16 42
M  V30 43 1 16 43
M  V30 44 1 17 44
M  V30 45 1 17 45
M  V30 END BOND
M  V30 END CTAB
M  END
>  <Structure No>
1100

>  <LogS>
-5.903789723

>  <MMFF94 Energy>
2.8326

$$$$
Compound 1101
Actelion Java MolfileCreator 2.0

  0  0  0  0  0  0              0 V3000
M  V30 BEGIN CTAB
M  V30 COUNTS 36 39 0 0 0
M  V30 BEGIN ATOM
M  V30 1 O -2.4883 -1.1231 1.2837 0
M  V30 2 C -3.7384 -0.8009 1.091 0
M  V30 3 C -1.7883 -0.3404 0.4786 0
M  V30 4 C -3.7971 0.1878 0.1582 0
M  V30 5 C -4.8782 -1.3215 1.6943 0
M  V30 6 N -2.5596 0.5079 -0.2554 0
M  V30 7 C -0.3207 -0.3949 0.3982 0
M  V30 8 C -5.0067 0.7412 -0.2533 0
M  V30 9 C -6.1216 -0.7885 1.3051 0
M  V30 10 C 0.3762 0.4012 -0.4191 0
M  V30 11 C -6.1941 0.2333 0.3218 0
M  V30 12 C 1.8438 0.3468 -0.4996 0
M  V30 13 C -7.5213 0.8201 -0.055 0
M  V30 14 O 2.5437 1.1294 -1.3047 0
M  V30 15 N 2.615 -0.5015 0.2345 0
M  V30 16 C 3.7938 0.8074 -1.1119 0
M  V30 17 C 3.8525 -0.1812 -0.1791 0
M  V30 18 C 4.9334 1.3282 -1.7151 0
M  V30 19 C 5.062 -0.7345 0.2326 0
M  V30 20 C 6.1768 0.7953 -1.3258 0
M  V30 21 C 6.2493 -0.2264 -0.3425 0
M  V30 22 C 7.5764 -0.8133 0.0344 0
M  V30 23 H -4.8108 -2.1037 2.4391 0
M  V30 24 H 0.192 -1.11 1.0298 0
M  V30 25 H -5.0288 1.5343 -0.9904 0
M  V30 26 H -7.0255 -1.1675 1.7657 0
M  V30 27 H -0.1366 1.1164 -1.0507 0
M  V30 28 H -8.3228 0.0548 0.0218 0
M  V30 29 H -7.7587 1.6635 0.6265 0
M  V30 30 H -7.5019 1.1938 -1.101 0
M  V30 31 H 4.866 2.1104 -2.4598 0
M  V30 32 H 5.084 -1.5275 0.9697 0
M  V30 33 H 7.0805 1.1743 -1.7863 0
M  V30 34 H 8.3778 -0.0478 -0.0422 0
M  V30 35 H 7.8139 -1.6564 -0.6471 0
M  V30 36 H 7.5569 -1.1869 1.0804 0
M  V30 END ATOM
M  V30 BEGIN BOND
M  V30 1 1 1 2
M  V30 2 1 1 3
M  V30 3 2 2 4
M  V30 4 1 2 5
M  V30 5 2 3 6
M  V30 6 1 3 7
M  V30 7 1 4 8
M  V30 8 2 5 9
M  V30 9 2 7 10
M  V30 10 2 8 11
M  V30 11 1 10 12
M  V30 12 1 11 13
M  V30 13 1 12 14
M  V30 14 2 12 15
M  V30 15 1 14 16
M  V30 16 1 15 17
M  V30 17 1 16 18
M  V30 18 1 17 19
M  V30 19 2 18 20
M  V30 20 2 19 21
M  V30 21 1 21 22
M  V30 22 1 4 6
M  V30 23 1 9 11
M  V30 24 2 16 17
M  V30 25 1 20 21
M  V30 26 1 5 23
M  V30 27 1 7 24
M  V30 28 1 8 25
M  V30 29 1 9 26
M  V30 30 1 10 27
M  V30 31 1 13 28
M  V30 32 1 13 29
M  V30 33 1 13 30
M  V30 34 1 18 31
M  V30 35 1 19 32
M  V30 36 1 20 33
M  V30 37 1 22 34
M  V30 38 1 22 35
M  V30 39 1 22 36
M  V30 END BOND
M  V30 END CTAB
M  END
>  <Structure No>
1101

>  <LogS>
-6.000481949

>  <MMFF94 Energy>
24.405

$$$$
Compound 1102
Actelion Java MolfileCreator 2.0

  0  0  0  0  0  0              0 V3000
M  V30 BEGIN CTAB
M  V30 COUNTS 16 16 0 0 0
M  V30 BEGIN ATOM
M  V30 1 O 3.4867 -1.4252 1.4252 0
M  V30 2 N 2.2876 -1.3152 1.0976 0
M  V30 3 N 1.8192 -0.1496 0.4709 0
M  V30 4 O 2.689 0.8594 0.2124 0
M  V30 5 C 0.4362 -0.0334 0.0819 0
M  V30 6 C -0.4797 -1.0676 0.3571 0
M  V30 7 C -0.0222 1.1207 -0.5808 0
M  V30 8 C -1.8201 -0.9466 -0.0232 0
M  V30 9 C -1.3637 1.236 -0.9587 0
M  V30 10 C -2.2617 0.2036 -0.6802 0
M  V30 11 H 2.6614 1.4333 1.0204 0
M  V30 12 H -0.1636 -1.9687 0.8659 0
M  V30 13 H 0.6547 1.9339 -0.808 0
M  V30 14 H -2.5172 -1.7462 0.1924 0
M  V30 15 H -1.707 2.1272 -1.4681 0
M  V30 16 H -3.2996 0.2949 -0.9736 0
M  V30 END ATOM
M  V30 BEGIN BOND
M  V30 1 2 1 2
M  V30 2 1 2 3
M  V30 3 1 3 4
M  V30 4 1 3 5
M  V30 5 2 5 6
M  V30 6 1 5 7
M  V30 7 1 6 8
M  V30 8 2 7 9
M  V30 9 2 8 10
M  V30 10 1 9 10
M  V30 11 1 4 11
M  V30 12 1 6 12
M  V30 13 1 7 13
M  V30 14 1 8 14
M  V30 15 1 9 15
M  V30 16 1 10 16
M  V30 END BOND
M  V30 END CTAB
M  END
>  <Structure No>
1102

>  <LogS>
-6.194649109

>  <MMFF94 Energy>
32.078

$$$$
Compound 1103
Actelion Java MolfileCreator 2.0

  0  0  0  0  0  0              0 V3000
M  V30 BEGIN CTAB
M  V30 COUNTS 38 39 0 0 0
M  V30 BEGIN ATOM
M  V30 1 N 2.2121 0.0789 0.7106 0
M  V30 2 N 3.0887 -0.1477 -0.1837 0
M  V30 3 C 0.8085 0.0652 0.4241 0
M  V30 4 C 4.4919 -0.1338 0.1033 0
M  V30 5 C -0.0956 0.3228 1.4562 0
M  V30 6 C 0.3206 -0.1997 -0.864 0
M  V30 7 C 4.9795 0.1325 1.3969 0
M  V30 8 C 5.3988 -0.3925 -0.9329 0
M  V30 9 C -1.4718 0.3179 1.2133 0
M  V30 10 C -1.0549 -0.2061 -1.1112 0
M  V30 11 C 6.3566 0.1378 1.641 0
M  V30 12 C 6.7751 -0.3862 -0.6848 0
M  V30 13 C -1.9816 0.053 -0.0771 0
M  V30 14 C 7.2537 -0.1212 0.6012 0
M  V30 15 N -3.4165 0.047 -0.333 0
M  V30 16 C -3.9825 -0.6338 -1.5103 0
M  V30 17 C -4.3602 0.7217 0.575 0
M  V30 18 C -4.1384 0.3374 -2.6788 0
M  V30 19 C -4.9026 -0.2524 1.6191 0
M  V30 20 H 0.2683 0.5269 2.4556 0
M  V30 21 H 1.0012 -0.4004 -1.6815 0
M  V30 22 H 4.3 0.3354 2.2147 0
M  V30 23 H 5.037 -0.5988 -1.9324 0
M  V30 24 H -2.1259 0.5147 2.0492 0
M  V30 25 H -1.3782 -0.4068 -2.1213 0
M  V30 26 H 6.7284 0.343 2.6367 0
M  V30 27 H 7.4704 -0.5869 -1.4896 0
M  V30 28 H 8.3191 -0.1167 0.7918 0
M  V30 29 H -3.3546 -1.5009 -1.8057 0
M  V30 30 H -4.9831 -1.0516 -1.2655 0
M  V30 31 H -3.8802 1.5935 1.0683 0
M  V30 32 H -5.2178 1.1318 -0.0011 0
M  V30 33 H -4.8801 1.1241 -2.4272 0
M  V30 34 H -4.4971 -0.2128 -3.5739 0
M  V30 35 H -3.1729 0.8253 -2.923 0
M  V30 36 H -5.5531 0.2936 2.3342 0
M  V30 37 H -4.0772 -0.7327 2.1829 0
M  V30 38 H -5.5052 -1.0445 1.1278 0
M  V30 END ATOM
M  V30 BEGIN BOND
M  V30 1 2 1 2
M  V30 2 1 1 3
M  V30 3 1 2 4
M  V30 4 2 3 5
M  V30 5 1 3 6
M  V30 6 2 4 7
M  V30 7 1 4 8
M  V30 8 1 5 9
M  V30 9 2 6 10
M  V30 10 1 7 11
M  V30 11 2 8 12
M  V30 12 2 9 13
M  V30 13 2 11 14
M  V30 14 1 13 15
M  V30 15 1 15 16
M  V30 16 1 15 17
M  V30 17 1 16 18
M  V30 18 1 17 19
M  V30 19 1 10 13
M  V30 20 1 12 14
M  V30 21 1 5 20
M  V30 22 1 6 21
M  V30 23 1 7 22
M  V30 24 1 8 23
M  V30 25 1 9 24
M  V30 26 1 10 25
M  V30 27 1 11 26
M  V30 28 1 12 27
M  V30 29 1 14 28
M  V30 30 1 16 29
M  V30 31 1 16 30
M  V30 32 1 17 31
M  V30 33 1 17 32
M  V30 34 1 18 33
M  V30 35 1 18 34
M  V30 36 1 18 35
M  V30 37 1 19 36
M  V30 38 1 19 37
M  V30 39 1 19 38
M  V30 END BOND
M  V30 END CTAB
M  END
>  <Structure No>
1103

>  <LogS>
-5.982115268

>  <MMFF94 Energy>
39.892

$$$$
Compound 1104
Actelion Java MolfileCreator 2.0

  0  0  0  0  0  0              0 V3000
M  V30 BEGIN CTAB
M  V30 COUNTS 30 32 0 0 0
M  V30 BEGIN ATOM
M  V30 1 O 0.7289 -2.5123 -0.2429 0
M  V30 2 C 0.9509 -1.2757 -0.1241 0
M  V30 3 C -0.1679 -0.3091 -0.2314 0
M  V30 4 C 2.3301 -0.7929 0.122 0
M  V30 5 C 0.0809 1.0732 -0.0964 0
M  V30 6 C -1.4808 -0.7577 -0.4641 0
M  V30 7 C 2.579 0.5904 0.2554 0
M  V30 8 C 3.3995 -1.7016 0.2247 0
M  V30 9 C 1.4603 1.5565 0.1494 0
M  V30 10 C -0.9879 1.9811 -0.1926 0
M  V30 11 C -2.5403 0.1552 -0.5725 0
M  V30 12 C 3.8923 1.0382 0.4888 0
M  V30 13 C 4.6976 -1.2423 0.4567 0
M  V30 14 O 1.6825 2.7929 0.2687 0
M  V30 15 C -2.2867 1.5251 -0.4234 0
M  V30 16 C -3.947 -0.336 -0.788 0
M  V30 17 C 4.9435 0.1243 0.5884 0
M  V30 18 C -4.6314 -0.6157 0.5457 0
M  V30 19 H -1.6847 -1.8173 -0.5604 0
M  V30 20 H 3.2331 -2.7669 0.1261 0
M  V30 21 H -0.8214 3.0457 -0.086 0
M  V30 22 H 4.1076 2.0941 0.5945 0
M  V30 23 H 5.5147 -1.9477 0.5344 0
M  V30 24 H -3.0967 2.2415 -0.4851 0
M  V30 25 H -3.9382 -1.2656 -1.3978 0
M  V30 26 H -4.5356 0.4214 -1.3502 0
M  V30 27 H 5.9509 0.4769 0.7681 0
M  V30 28 H -4.6793 0.3113 1.1562 0
M  V30 29 H -4.0759 -1.3965 1.1078 0
M  V30 30 H -5.6659 -0.976 0.3646 0
M  V30 END ATOM
M  V30 BEGIN BOND
M  V30 1 2 1 2
M  V30 2 1 2 3
M  V30 3 1 2 4
M  V30 4 2 3 5
M  V30 5 1 3 6
M  V30 6 2 4 7
M  V30 7 1 4 8
M  V30 8 1 5 9
M  V30 9 1 5 10
M  V30 10 2 6 11
M  V30 11 1 7 12
M  V30 12 2 8 13
M  V30 13 2 9 14
M  V30 14 2 10 15
M  V30 15 1 11 16
M  V30 16 2 12 17
M  V30 17 1 16 18
M  V30 18 1 7 9
M  V30 19 1 11 15
M  V30 20 1 13 17
M  V30 21 1 6 19
M  V30 22 1 8 20
M  V30 23 1 10 21
M  V30 24 1 12 22
M  V30 25 1 13 23
M  V30 26 1 15 24
M  V30 27 1 16 25
M  V30 28 1 16 26
M  V30 29 1 17 27
M  V30 30 1 18 28
M  V30 31 1 18 29
M  V30 32 1 18 30
M  V30 END BOND
M  V30 END CTAB
M  END
>  <Structure No>
1104

>  <LogS>
-5.984242497

>  <MMFF94 Energy>
65.067

$$$$
Compound 1105
Actelion Java MolfileCreator 2.0

  0  0  0  0  0  0              0 V3000
M  V30 BEGIN CTAB
M  V30 COUNTS 38 39 0 0 0
M  V30 BEGIN ATOM
M  V30 1 C -2.529 -0.5528 0.0 0
M  V30 2 C -1.2391 -1.227 -0.3658 0
M  V30 3 C -3.737 -1.2847 0.0603 0
M  V30 4 C -2.5668 0.8156 0.3383 0
M  V30 5 C -1.2482 -2.2972 -1.1752 0
M  V30 6 C 0.0734 -0.8075 0.2873 0
M  V30 7 C -4.9377 -0.6588 0.4081 0
M  V30 8 C -3.771 1.4359 0.6846 0
M  V30 9 C 1.1529 -0.1506 -0.6476 0
M  V30 10 C -4.956 0.7014 0.7145 0
M  V30 11 C 2.3127 0.358 0.241 0
M  V30 12 C 0.5161 0.9858 -1.4879 0
M  V30 13 C 1.7396 -1.1783 -1.6458 0
M  V30 14 C 3.0345 -0.5637 1.0361 0
M  V30 15 C 2.7024 1.7198 0.3001 0
M  V30 16 C 4.0863 -0.1441 1.8545 0
M  V30 17 C 3.7563 2.1301 1.1223 0
M  V30 18 C 4.4459 1.201 1.8989 0
M  V30 19 H -3.7579 -2.3487 -0.1333 0
M  V30 20 H -1.6745 1.4169 0.3414 0
M  V30 21 H -0.3561 -2.8822 -1.3462 0
M  V30 22 H -2.146 -2.6245 -1.6813 0
M  V30 23 H 0.4994 -1.7105 0.7748 0
M  V30 24 H -0.1396 -0.1129 1.128 0
M  V30 25 H -5.8545 -1.2329 0.4488 0
M  V30 26 H -3.7835 2.4891 0.9349 0
M  V30 27 H -5.8862 1.1837 0.9855 0
M  V30 28 H 1.263 1.4184 -2.1888 0
M  V30 29 H 0.135 1.8013 -0.8433 0
M  V30 30 H -0.3289 0.6084 -2.1018 0
M  V30 31 H 2.6553 -0.7698 -2.1267 0
M  V30 32 H 2.0109 -2.129 -1.1406 0
M  V30 33 H 1.0239 -1.4081 -2.4627 0
M  V30 34 H 2.7898 -1.6168 1.0255 0
M  V30 35 H 2.2119 2.4845 -0.2822 0
M  V30 36 H 4.6243 -0.8662 2.4552 0
M  V30 37 H 4.0397 3.1744 1.1553 0
M  V30 38 H 5.2614 1.5235 2.5334 0
M  V30 END ATOM
M  V30 BEGIN BOND
M  V30 1 1 1 2
M  V30 2 2 1 3
M  V30 3 1 1 4
M  V30 4 2 2 5
M  V30 5 1 2 6
M  V30 6 1 3 7
M  V30 7 2 4 8
M  V30 8 1 6 9
M  V30 9 2 7 10
M  V30 10 1 9 11
M  V30 11 1 9 12
M  V30 12 1 9 13
M  V30 13 2 11 14
M  V30 14 1 11 15
M  V30 15 1 14 16
M  V30 16 2 15 17
M  V30 17 2 16 18
M  V30 18 1 8 10
M  V30 19 1 17 18
M  V30 20 1 3 19
M  V30 21 1 4 20
M  V30 22 1 5 21
M  V30 23 1 5 22
M  V30 24 1 6 23
M  V30 25 1 6 24
M  V30 26 1 7 25
M  V30 27 1 8 26
M  V30 28 1 10 27
M  V30 29 1 12 28
M  V30 30 1 12 29
M  V30 31 1 12 30
M  V30 32 1 13 31
M  V30 33 1 13 32
M  V30 34 1 13 33
M  V30 35 1 14 34
M  V30 36 1 15 35
M  V30 37 1 16 36
M  V30 38 1 17 37
M  V30 39 1 18 38
M  V30 END BOND
M  V30 END CTAB
M  END
>  <Structure No>
1105

>  <LogS>
-6.01184247

>  <MMFF94 Energy>
69.065

$$$$
Compound 1106
Actelion Java MolfileCreator 2.0

  0  0  0  0  0  0              0 V3000
M  V30 BEGIN CTAB
M  V30 COUNTS 86 92 0 0 0
M  V30 BEGIN ATOM
M  V30 1 Cl 8.9803 -1.9365 1.8558 0
M  V30 2 C 7.6208 -1.5634 0.8106 0
M  V30 3 N 7.6842 -0.6729 -0.1964 0
M  V30 4 C 6.3575 -2.1155 0.8681 0
M  V30 5 C 6.4501 -0.7008 -0.7459 0
M  V30 6 N 5.6116 -1.5601 -0.1123 0
M  V30 7 C 5.8868 -3.1662 1.8343 0
M  V30 8 C 6.0862 0.1637 -1.9224 0
M  V30 9 C 4.2097 -1.8619 -0.4366 0
M  V30 10 O 5.5649 -4.3365 1.1356 0
M  V30 11 C 5.3159 1.4118 -1.4687 0
M  V30 12 C 3.2782 -1.4816 0.6889 0
M  V30 13 C 5.124 2.4322 -2.6004 0
M  V30 14 C 3.4539 -0.2823 1.4024 0
M  V30 15 C 2.1684 -2.2926 0.9787 0
M  V30 16 C 4.1143 1.9633 -3.6476 0
M  V30 17 C 2.5392 0.0946 2.389 0
M  V30 18 C 1.2532 -1.9145 1.9649 0
M  V30 19 C 1.4245 -0.7092 2.661 0
M  V30 20 C 0.4268 -0.2758 3.6582 0
M  V30 21 C -0.8797 0.1518 3.2932 0
M  V30 22 C 0.7928 -0.3123 5.0137 0
M  V30 23 C -1.3253 0.2723 1.8797 0
M  V30 24 C -1.7865 0.4995 4.3126 0
M  V30 25 C -0.12 0.047 6.0049 0
M  V30 26 N -0.5136 0.2479 0.8043 0
M  V30 27 N -2.6087 0.4374 1.5045 0
M  V30 28 C -1.4079 0.447 5.6552 0
M  V30 29 N -1.3139 0.387 -0.2381 0
M  V30 30 N -2.5632 0.5119 0.1816 0
M  V30 31 C -3.7546 0.6189 -0.6992 0
M  V30 32 C -4.8402 1.4359 0.0444 0
M  V30 33 C -4.2744 -0.8058 -1.0137 0
M  V30 34 C -3.3318 1.3196 -2.0191 0
M  V30 35 C -6.2175 1.1153 -0.0179 0
M  V30 36 C -4.4684 2.6 0.7573 0
M  V30 37 C -4.9837 -1.0732 -2.2114 0
M  V30 38 C -4.1487 -1.8581 -0.0761 0
M  V30 39 C -3.8303 2.5831 -2.4213 0
M  V30 40 C -2.4261 0.6666 -2.8894 0
M  V30 41 C -7.1667 1.9003 0.6436 0
M  V30 42 C -5.4231 3.3801 1.4138 0
M  V30 43 C -5.4864 -2.3496 -2.4796 0
M  V30 44 C -4.6559 -3.1314 -0.3519 0
M  V30 45 C -3.4149 3.1696 -3.6202 0
M  V30 46 C -2.0152 1.261 -4.0847 0
M  V30 47 C -6.7703 3.0279 1.3622 0
M  V30 48 C -5.3184 -3.3784 -1.5535 0
M  V30 49 C -2.5061 2.5129 -4.448 0
M  V30 50 H 6.6798 -3.3854 2.5812 0
M  V30 51 H 4.9962 -2.7899 2.3847 0
M  V30 52 H 5.4935 -0.4234 -2.6528 0
M  V30 53 H 7.0224 0.4741 -2.4356 0
M  V30 54 H 3.8841 -1.3188 -1.3457 0
M  V30 55 H 4.1226 -2.9459 -0.6657 0
M  V30 56 H 5.2293 -4.9783 1.8143 0
M  V30 57 H 5.8834 1.9083 -0.6511 0
M  V30 58 H 4.3238 1.1222 -1.0629 0
M  V30 59 H 6.0978 2.6515 -3.0903 0
M  V30 60 H 4.7494 3.381 -2.1578 0
M  V30 61 H 4.298 0.3625 1.1991 0
M  V30 62 H 2.0018 -3.2114 0.4315 0
M  V30 63 H 3.9447 2.7756 -4.3854 0
M  V30 64 H 4.4956 1.0738 -4.1911 0
M  V30 65 H 3.1432 1.7158 -3.1677 0
M  V30 66 H 2.6835 1.0272 2.9214 0
M  V30 67 H 0.3968 -2.5458 2.1689 0
M  V30 68 H 1.786 -0.6341 5.3036 0
M  V30 69 H -2.7896 0.8288 4.0715 0
M  V30 70 H 0.1697 0.0077 7.0472 0
M  V30 71 H -2.1148 0.722 6.4268 0
M  V30 72 H -6.5782 0.2625 -0.5722 0
M  V30 73 H -3.4341 2.9184 0.7875 0
M  V30 74 H -5.1655 -0.2906 -2.9371 0
M  V30 75 H -3.666 -1.7114 0.877 0
M  V30 76 H -4.5492 3.13 -1.8307 0
M  V30 77 H -2.0406 -0.315 -2.6454 0
M  V30 78 H -8.2149 1.6358 0.5919 0
M  V30 79 H -5.1174 4.2648 1.9568 0
M  V30 80 H -6.0178 -2.5381 -3.4034 0
M  V30 81 H -4.5406 -3.9274 0.3741 0
M  V30 82 H -3.8045 4.1368 -3.9096 0
M  V30 83 H -1.3199 0.7449 -4.7336 0
M  V30 84 H -7.5089 3.6352 1.8696 0
M  V30 85 H -5.7148 -4.3643 -1.7606 0
M  V30 86 H -2.189 2.9722 -5.3755 0
M  V30 END ATOM
M  V30 BEGIN BOND
M  V30 1 1 1 2
M  V30 2 1 2 3
M  V30 3 2 2 4
M  V30 4 2 3 5
M  V30 5 1 4 6
M  V30 6 1 4 7
M  V30 7 1 5 8
M  V30 8 1 6 9
M  V30 9 1 7 10
M  V30 10 1 8 11
M  V30 11 1 9 12
M  V30 12 1 11 13
M  V30 13 2 12 14
M  V30 14 1 12 15
M  V30 15 1 13 16
M  V30 16 1 14 17
M  V30 17 2 15 18
M  V30 18 2 17 19
M  V30 19 1 19 20
M  V30 20 2 20 21
M  V30 21 1 20 22
M  V30 22 1 21 23
M  V30 23 1 21 24
M  V30 24 2 22 25
M  V30 25 1 23 26
M  V30 26 2 23 27
M  V30 27 2 24 28
M  V30 28 2 26 29
M  V30 29 1 27 30
M  V30 30 1 30 31
M  V30 31 1 31 32
M  V30 32 1 31 33
M  V30 33 1 31 34
M  V30 34 2 32 35
M  V30 35 1 32 36
M  V30 36 2 33 37
M  V30 37 1 33 38
M  V30 38 2 34 39
M  V30 39 1 34 40
M  V30 40 1 35 41
M  V30 41 2 36 42
M  V30 42 1 37 43
M  V30 43 2 38 44
M  V30 44 1 39 45
M  V30 45 2 40 46
M  V30 46 2 41 47
M  V30 47 2 43 48
M  V30 48 2 45 49
M  V30 49 1 5 6
M  V30 50 1 18 19
M  V30 51 1 25 28
M  V30 52 1 29 30
M  V30 53 1 42 47
M  V30 54 1 44 48
M  V30 55 1 46 49
M  V30 56 1 7 50
M  V30 57 1 7 51
M  V30 58 1 8 52
M  V30 59 1 8 53
M  V30 60 1 9 54
M  V30 61 1 9 55
M  V30 62 1 10 56
M  V30 63 1 11 57
M  V30 64 1 11 58
M  V30 65 1 13 59
M  V30 66 1 13 60
M  V30 67 1 14 61
M  V30 68 1 15 62
M  V30 69 1 16 63
M  V30 70 1 16 64
M  V30 71 1 16 65
M  V30 72 1 17 66
M  V30 73 1 18 67
M  V30 74 1 22 68
M  V30 75 1 24 69
M  V30 76 1 25 70
M  V30 77 1 28 71
M  V30 78 1 35 72
M  V30 79 1 36 73
M  V30 80 1 37 74
M  V30 81 1 38 75
M  V30 82 1 39 76
M  V30 83 1 40 77
M  V30 84 1 41 78
M  V30 85 1 42 79
M  V30 86 1 43 80
M  V30 87 1 44 81
M  V30 88 1 45 82
M  V30 89 1 46 83
M  V30 90 1 47 84
M  V30 91 1 48 85
M  V30 92 1 49 86
M  V30 END BOND
M  V30 END CTAB
M  END
>  <Structure No>
1106

>  <LogS>
-6.461251172

>  <MMFF94 Energy>
236.31

$$$$
Compound 1107
Actelion Java MolfileCreator 2.0

  0  0  0  0  0  0              0 V3000
M  V30 BEGIN CTAB
M  V30 COUNTS 47 47 0 0 0
M  V30 BEGIN ATOM
M  V30 1 O -0.1572 -2.5179 2.6754 0
M  V30 2 C 0.2425 -1.8266 1.6995 0
M  V30 3 O -0.6277 -1.5145 0.6499 0
M  V30 4 C 1.6341 -1.3502 1.6798 0
M  V30 5 C -1.9919 -1.9244 0.6291 0
M  V30 6 C 2.1158 -0.6167 0.667 0
M  V30 7 C -2.6824 -1.4253 -0.6565 0 CFG=2
M  V30 8 C 3.5129 -0.1214 0.5979 0
M  V30 9 C -2.5099 0.1051 -0.8689 0
M  V30 10 C -4.1577 -1.8892 -0.6901 0
M  V30 11 C 4.325 0.0212 1.7402 0
M  V30 12 C 4.0319 0.2531 -0.6518 0
M  V30 13 C -3.1897 1.0076 0.1891 0
M  V30 14 C -4.7896 -1.7569 -2.077 0
M  V30 15 C 5.6319 0.5037 1.6232 0
M  V30 16 C 5.3392 0.7346 -0.7664 0
M  V30 17 C -4.4553 1.6901 -0.3497 0
M  V30 18 C 6.1515 0.8612 0.375 0
M  V30 19 C -5.0799 2.6036 0.7012 0
M  V30 20 O 7.4692 1.3381 0.3127 0
M  V30 21 C 8.1234 1.7379 -0.8871 0
M  V30 22 H 2.2684 -1.6345 2.508 0
M  V30 23 H -2.0311 -3.0357 0.6567 0
M  V30 24 H -2.5112 -1.5449 1.5339 0
M  V30 25 H 1.4696 -0.3983 -0.1757 0
M  V30 26 H -2.1567 -1.9262 -1.5006 0
M  V30 27 H -1.4218 0.3343 -0.8723 0
M  V30 28 H -2.8503 0.3765 -1.891 0
M  V30 29 H -4.2087 -2.9637 -0.4076 0
M  V30 30 H -4.7641 -1.331 0.0535 0
M  V30 31 H 3.9546 -0.2131 2.7282 0
M  V30 32 H 3.4257 0.1649 -1.5454 0
M  V30 33 H -3.4434 0.4418 1.1079 0
M  V30 34 H -2.4686 1.8 0.4891 0
M  V30 35 H -4.1975 -2.3227 -2.827 0
M  V30 36 H -5.8186 -2.1738 -2.0541 0
M  V30 37 H -4.8554 -0.6953 -2.3889 0
M  V30 38 H 6.2435 0.6076 2.5108 0
M  V30 39 H 5.7072 1.0063 -1.7463 0
M  V30 40 H -4.2011 2.2979 -1.2453 0
M  V30 41 H -5.2052 0.9276 -0.6444 0
M  V30 42 H -4.363 3.3989 0.9972 0
M  V30 43 H -5.9897 3.0837 0.2833 0
M  V30 44 H -5.3689 2.0169 1.5993 0
M  V30 45 H 8.181 0.883 -1.5935 0
M  V30 46 H 9.154 2.0692 -0.6452 0
M  V30 47 H 7.5783 2.5849 -1.3552 0
M  V30 END ATOM
M  V30 BEGIN BOND
M  V30 1 2 1 2
M  V30 2 1 2 3
M  V30 3 1 2 4
M  V30 4 1 3 5
M  V30 5 2 4 6
M  V30 6 1 5 7
M  V30 7 1 6 8
M  V30 8 1 7 9
M  V30 9 1 7 10
M  V30 10 2 8 11
M  V30 11 1 8 12
M  V30 12 1 9 13
M  V30 13 1 10 14
M  V30 14 1 11 15
M  V30 15 2 12 16
M  V30 16 1 13 17
M  V30 17 2 15 18
M  V30 18 1 17 19
M  V30 19 1 18 20
M  V30 20 1 20 21
M  V30 21 1 16 18
M  V30 22 1 4 22
M  V30 23 1 5 23
M  V30 24 1 5 24
M  V30 25 1 6 25
M  V30 26 1 7 26
M  V30 27 1 9 27
M  V30 28 1 9 28
M  V30 29 1 10 29
M  V30 30 1 10 30
M  V30 31 1 11 31
M  V30 32 1 12 32
M  V30 33 1 13 33
M  V30 34 1 13 34
M  V30 35 1 14 35
M  V30 36 1 14 36
M  V30 37 1 14 37
M  V30 38 1 15 38
M  V30 39 1 16 39
M  V30 40 1 17 40
M  V30 41 1 17 41
M  V30 42 1 19 42
M  V30 43 1 19 43
M  V30 44 1 19 44
M  V30 45 1 21 45
M  V30 46 1 21 46
M  V30 47 1 21 47
M  V30 END BOND
M  V30 BEGIN COLLECTION
M  V30 MDLV30/STEABS ATOMS=(1 7)
M  V30 END COLLECTION
M  V30 END CTAB
M  END
>  <Structure No>
1107

>  <LogS>
-6.421608413

>  <MMFF94 Energy>
18.533

$$$$
Compound 1108
Actelion Java MolfileCreator 2.0

  0  0  0  0  0  0              0 V3000
M  V30 BEGIN CTAB
M  V30 COUNTS 51 53 0 0 0
M  V30 BEGIN ATOM
M  V30 1 O 7.5843 4.513 1.3684 0
M  V30 2 C 6.9853 3.4127 1.2396 0
M  V30 3 N 5.6355 3.3023 1.2153 0
M  V30 4 N 7.6303 2.2284 1.1132 0
M  V30 5 C 5.4301 1.983 1.0639 0
M  V30 6 C 6.6315 1.3364 1.004 0
M  V30 7 C 4.2185 1.3019 0.9812 0
M  V30 8 C 6.7187 -0.0444 0.8643 0
M  V30 9 C 4.2603 -0.1041 0.8167 0
M  V30 10 C 5.5145 -0.768 0.7786 0
M  V30 11 N 3.0535 -0.882 0.7458 0
M  V30 12 C 1.8567 -0.4422 0.0758 0
M  V30 13 O 1.8777 0.6051 -0.627 0
M  V30 14 C 0.5905 -1.2014 0.1848 0
M  V30 15 N -0.5094 -0.6245 -0.202 0
M  V30 16 C 0.586 -2.5898 0.6991 0
M  V30 17 N -1.7517 -1.2767 -0.2083 0 CHG=-1
M  V30 18 O 1.3607 -3.4437 0.1907 0
M  V30 19 C -0.3291 -3.0048 1.8086 0
M  V30 20 C -2.9681 -0.6093 -0.5696 0
M  V30 21 C -4.1782 -1.3356 -0.6702 0
M  V30 22 C -2.971 0.7809 -0.787 0
M  V30 23 C -4.2285 -2.8087 -0.4866 0
M  V30 24 C -5.3653 -0.6426 -0.9676 0
M  V30 25 C -4.1605 1.4623 -1.0937 0
M  V30 26 O -5.3323 -3.3746 -0.2529 0
M  V30 27 O -3.065 -3.577 -0.5976 0
M  V30 28 C -5.3565 0.7366 -1.1782 0
M  V30 29 C -4.1588 2.9258 -1.3188 0
M  V30 30 C -3.0592 -4.9914 -0.4459 0
M  V30 31 O -3.0823 3.5797 -1.2325 0
M  V30 32 O -5.3539 3.5854 -1.6274 0
M  V30 33 C -5.4199 4.9869 -1.8613 0
M  V30 34 H 4.9235 4.0626 1.2949 0
M  V30 35 H 8.6594 2.051 1.1062 0
M  V30 36 H 3.2842 1.8407 1.0672 0
M  V30 37 H 7.677 -0.5454 0.8263 0
M  V30 38 H 5.5529 -1.8447 0.6725 0
M  V30 39 H 3.0878 -1.8453 1.1453 0
M  V30 40 H 0.2314 -3.6168 2.546 0
M  V30 41 H -1.1632 -3.6098 1.4 0
M  V30 42 H -0.7425 -2.1165 2.3315 0
M  V30 43 H -2.0452 1.336 -0.7058 0
M  V30 44 H -6.3066 -1.1712 -1.0536 0
M  V30 45 H -6.2902 1.2331 -1.4112 0
M  V30 46 H -2.0241 -5.3674 -0.5795 0
M  V30 47 H -3.7141 -5.4586 -1.2113 0
M  V30 48 H -3.4125 -5.2656 0.5704 0
M  V30 49 H -6.4687 5.2701 -2.0859 0
M  V30 50 H -5.0838 5.5392 -0.9587 0
M  V30 51 H -4.7803 5.2581 -2.7278 0
M  V30 END ATOM
M  V30 BEGIN BOND
M  V30 1 2 1 2
M  V30 2 1 2 3
M  V30 3 1 2 4
M  V30 4 1 3 5
M  V30 5 1 4 6
M  V30 6 1 5 7
M  V30 7 1 6 8
M  V30 8 2 7 9
M  V30 9 2 8 10
M  V30 10 1 9 11
M  V30 11 1 11 12
M  V30 12 2 12 13
M  V30 13 1 12 14
M  V30 14 2 14 15
M  V30 15 1 14 16
M  V30 16 1 15 17
M  V30 17 2 16 18
M  V30 18 1 16 19
M  V30 19 1 17 20
M  V30 20 2 20 21
M  V30 21 1 20 22
M  V30 22 1 21 23
M  V30 23 1 21 24
M  V30 24 2 22 25
M  V30 25 2 23 26
M  V30 26 1 23 27
M  V30 27 2 24 28
M  V30 28 1 25 29
M  V30 29 1 27 30
M  V30 30 2 29 31
M  V30 31 1 29 32
M  V30 32 1 32 33
M  V30 33 2 5 6
M  V30 34 1 9 10
M  V30 35 1 25 28
M  V30 36 1 3 34
M  V30 37 1 4 35
M  V30 38 1 7 36
M  V30 39 1 8 37
M  V30 40 1 10 38
M  V30 41 1 11 39
M  V30 42 1 19 40
M  V30 43 1 19 41
M  V30 44 1 19 42
M  V30 45 1 22 43
M  V30 46 1 24 44
M  V30 47 1 28 45
M  V30 48 1 30 46
M  V30 49 1 30 47
M  V30 50 1 30 48
M  V30 51 1 33 49
M  V30 52 1 33 50
M  V30 53 1 33 51
M  V30 END BOND
M  V30 END CTAB
M  END
>  <Structure No>
1108

>  <LogS>
-6.314069371

>  <MMFF94 Energy>
65.158

$$$$
Compound 1109
Actelion Java MolfileCreator 2.0

  0  0  0  0  0  0              0 V3000
M  V30 BEGIN CTAB
M  V30 COUNTS 37 37 0 0 0
M  V30 BEGIN ATOM
M  V30 1 O -5.8038 1.096 -0.0782 0
M  V30 2 C -5.1412 -0.0673 0.3574 0 CFG=1
M  V30 3 C -6.5139 -0.1171 -0.194 0
M  V30 4 C -4.0107 -0.4792 -0.5944 0
M  V30 5 C -2.6973 0.2448 -0.2666 0
M  V30 6 C -2.0243 -0.3107 1.0006 0
M  V30 7 C -0.7557 0.4675 1.3855 0
M  V30 8 C 0.4128 0.2139 0.421 0
M  V30 9 C 1.6975 0.8861 0.9295 0
M  V30 10 C 2.8574 0.7894 -0.0747 0
M  V30 11 C 3.445 -0.6295 -0.1637 0
M  V30 12 C 4.6135 -0.7207 -1.1577 0
M  V30 13 C 5.8876 -0.0544 -0.6385 0
M  V30 14 H -5.039 -0.1179 1.4612 0
M  V30 15 H -7.3378 -0.1706 0.5477 0
M  V30 16 H -6.6391 -0.4098 -1.2578 0
M  V30 17 H -4.2831 -0.2424 -1.6475 0
M  V30 18 H -3.8653 -1.5788 -0.5303 0
M  V30 19 H -2.0131 0.1086 -1.1304 0
M  V30 20 H -2.8894 1.3345 -0.1531 0
M  V30 21 H -2.7321 -0.2407 1.8532 0
M  V30 22 H -1.7775 -1.3857 0.8581 0
M  V30 23 H -0.9815 1.5556 1.4303 0
M  V30 24 H -0.4533 0.1449 2.4062 0
M  V30 25 H 0.5742 -0.8809 0.3308 0
M  V30 26 H 0.1642 0.6229 -0.581 0
M  V30 27 H 2.0018 0.438 1.9009 0
M  V30 28 H 1.4888 1.9642 1.108 0
M  V30 29 H 2.5159 1.1242 -1.0786 0
M  V30 30 H 3.6491 1.4911 0.2625 0
M  V30 31 H 3.7786 -0.9682 0.8416 0
M  V30 32 H 2.6571 -1.33 -0.5114 0
M  V30 33 H 4.835 -1.7947 -1.3404 0
M  V30 34 H 4.3252 -0.2678 -2.1312 0
M  V30 35 H 6.7227 -0.2598 -1.3408 0
M  V30 36 H 6.1593 -0.4585 0.3597 0
M  V30 37 H 5.7588 1.0453 -0.5703 0
M  V30 END ATOM
M  V30 BEGIN BOND
M  V30 1 1 1 2
M  V30 2 1 1 3
M  V30 3 1 2 4
M  V30 4 1 4 5
M  V30 5 1 5 6
M  V30 6 1 6 7
M  V30 7 1 7 8
M  V30 8 1 8 9
M  V30 9 1 9 10
M  V30 10 1 10 11
M  V30 11 1 11 12
M  V30 12 1 12 13
M  V30 13 1 2 3
M  V30 14 1 2 14
M  V30 15 1 3 15
M  V30 16 1 3 16
M  V30 17 1 4 17
M  V30 18 1 4 18
M  V30 19 1 5 19
M  V30 20 1 5 20
M  V30 21 1 6 21
M  V30 22 1 6 22
M  V30 23 1 7 23
M  V30 24 1 7 24
M  V30 25 1 8 25
M  V30 26 1 8 26
M  V30 27 1 9 27
M  V30 28 1 9 28
M  V30 29 1 10 29
M  V30 30 1 10 30
M  V30 31 1 11 31
M  V30 32 1 11 32
M  V30 33 1 12 33
M  V30 34 1 12 34
M  V30 35 1 13 35
M  V30 36 1 13 36
M  V30 37 1 13 37
M  V30 END BOND
M  V30 BEGIN COLLECTION
M  V30 MDLV30/STEABS ATOMS=(1 2)
M  V30 END COLLECTION
M  V30 END CTAB
M  END
>  <Structure No>
1109

>  <LogS>
-5.92315685

>  <MMFF94 Energy>
3.7184

$$$$
Compound 1110
Actelion Java MolfileCreator 2.0

  0  0  0  0  0  0              0 V3000
M  V30 BEGIN CTAB
M  V30 COUNTS 43 43 0 0 0
M  V30 BEGIN ATOM
M  V30 1 O -5.7259 1.8796 2.0364 0
M  V30 2 C -5.3028 0.9064 1.1106 0 CFG=1
M  V30 3 C -5.1867 2.3551 0.8245 0
M  V30 4 C -4.0446 0.184 1.6039 0
M  V30 5 C -3.409 -0.6634 0.4948 0
M  V30 6 C -2.7558 0.2031 -0.5947 0
M  V30 7 C -2.2068 -0.6247 -1.7709 0
M  V30 8 C -1.0911 -1.6201 -1.4038 0
M  V30 9 C 0.1512 -0.9377 -0.8121 0
M  V30 10 C 1.3046 -1.9398 -0.6542 0
M  V30 11 C 2.5149 -1.3377 0.0771 0
M  V30 12 C 3.236 -0.2647 -0.7574 0
M  V30 13 C 4.5869 0.1457 -0.1504 0
M  V30 14 C 4.4303 0.9362 1.1568 0
M  V30 15 C 5.7807 1.4371 1.6611 0
M  V30 16 H -6.1617 0.3444 0.6869 0
M  V30 17 H -4.1992 2.8377 0.9823 0
M  V30 18 H -5.9755 2.7871 0.1746 0
M  V30 19 H -3.2925 0.8939 2.0151 0
M  V30 20 H -4.345 -0.4921 2.4328 0
M  V30 21 H -2.6349 -1.3048 0.9664 0
M  V30 22 H -4.1788 -1.328 0.044 0
M  V30 23 H -3.5159 0.8991 -1.0095 0
M  V30 24 H -1.9511 0.8284 -0.1538 0
M  V30 25 H -3.0452 -1.1888 -2.2349 0
M  V30 26 H -1.8215 0.0748 -2.5445 0
M  V30 27 H -0.7983 -2.153 -2.335 0
M  V30 28 H -1.4759 -2.3879 -0.6997 0
M  V30 29 H -0.0974 -0.5165 0.1853 0
M  V30 30 H 0.4648 -0.1108 -1.4844 0
M  V30 31 H 0.9454 -2.8107 -0.0628 0
M  V30 32 H 1.6179 -2.3173 -1.6522 0
M  V30 33 H 3.2256 -2.1637 0.2982 0
M  V30 34 H 2.181 -0.9097 1.0465 0
M  V30 35 H 3.427 -0.6662 -1.7766 0
M  V30 36 H 2.5936 0.6357 -0.8626 0
M  V30 37 H 5.2113 -0.7576 0.0255 0
M  V30 38 H 5.1172 0.7813 -0.8932 0
M  V30 39 H 3.7626 1.8097 0.9922 0
M  V30 40 H 3.9814 0.2905 1.941 0
M  V30 41 H 5.6394 1.9958 2.6103 0
M  V30 42 H 6.2436 2.1177 0.915 0
M  V30 43 H 6.4631 0.5813 1.8506 0
M  V30 END ATOM
M  V30 BEGIN BOND
M  V30 1 1 1 2
M  V30 2 1 1 3
M  V30 3 1 2 4
M  V30 4 1 4 5
M  V30 5 1 5 6
M  V30 6 1 6 7
M  V30 7 1 7 8
M  V30 8 1 8 9
M  V30 9 1 9 10
M  V30 10 1 10 11
M  V30 11 1 11 12
M  V30 12 1 12 13
M  V30 13 1 13 14
M  V30 14 1 14 15
M  V30 15 1 2 3
M  V30 16 1 2 16
M  V30 17 1 3 17
M  V30 18 1 3 18
M  V30 19 1 4 19
M  V30 20 1 4 20
M  V30 21 1 5 21
M  V30 22 1 5 22
M  V30 23 1 6 23
M  V30 24 1 6 24
M  V30 25 1 7 25
M  V30 26 1 7 26
M  V30 27 1 8 27
M  V30 28 1 8 28
M  V30 29 1 9 29
M  V30 30 1 9 30
M  V30 31 1 10 31
M  V30 32 1 10 32
M  V30 33 1 11 33
M  V30 34 1 11 34
M  V30 35 1 12 35
M  V30 36 1 12 36
M  V30 37 1 13 37
M  V30 38 1 13 38
M  V30 39 1 14 39
M  V30 40 1 14 40
M  V30 41 1 15 41
M  V30 42 1 15 42
M  V30 43 1 15 43
M  V30 END BOND
M  V30 BEGIN COLLECTION
M  V30 MDLV30/STEABS ATOMS=(1 2)
M  V30 END COLLECTION
M  V30 END CTAB
M  END
>  <Structure No>
1110

>  <LogS>
-5.984684801

>  <MMFF94 Energy>
4.9879

$$$$
Compound 1111
Actelion Java MolfileCreator 2.0

  0  0  0  0  0  0              0 V3000
M  V30 BEGIN CTAB
M  V30 COUNTS 34 37 0 0 0
M  V30 BEGIN ATOM
M  V30 1 O 2.4366 0.8929 0.5681 0
M  V30 2 C 1.3892 0.3213 -0.193 0 CFG=1
M  V30 3 C 3.4239 -0.0968 0.7596 0
M  V30 4 C 0.2056 -0.0203 0.7666 0 CFG=2
M  V30 5 C 0.7585 1.4082 -1.1021 0
M  V30 6 C 2.0038 -0.8469 -0.9708 0
M  V30 7 C 3.0656 -1.3365 -0.0376 0
M  V30 8 C -0.9702 -0.7058 0.0098 0 CFG=2
M  V30 9 C -0.3574 1.373 0.9931 0
M  V30 10 C -0.6349 1.6275 -0.4742 0 CFG=2
M  V30 11 C -1.5312 0.4271 -0.8579 0 CFG=2
M  V30 12 C -2.1105 -1.1755 0.9228 0
M  V30 13 C -3.0057 0.6008 -0.4735 0
M  V30 14 C -3.3908 -0.6607 0.2836 0
M  V30 15 H 4.4016 0.3037 0.4158 0
M  V30 16 H 3.5026 -0.3396 1.8411 0
M  V30 17 H 0.5155 -0.5438 1.697 0
M  V30 18 H 0.6799 1.0926 -2.166 0
M  V30 19 H 1.345 2.3527 -1.0624 0
M  V30 20 H 1.3211 -1.6647 -1.2593 0
M  V30 21 H 2.4939 -0.4663 -1.8948 0
M  V30 22 H 2.6477 -2.1171 0.6363 0
M  V30 23 H 3.9414 -1.7438 -0.5883 0
M  V30 24 H -0.6662 -1.5643 -0.6168 0
M  V30 25 H -1.2709 1.3944 1.6262 0
M  V30 26 H 0.3773 2.0912 1.4252 0
M  V30 27 H -1.0757 2.6225 -0.6998 0
M  V30 28 H -1.4537 0.1789 -1.9407 0
M  V30 29 H -2.016 -0.7639 1.9511 0
M  V30 30 H -2.1293 -2.2846 0.9982 0
M  V30 31 H -3.6397 0.7242 -1.3781 0
M  V30 32 H -3.1579 1.4866 0.1815 0
M  V30 33 H -4.1702 -0.4526 1.0483 0
M  V30 34 H -3.7767 -1.4189 -0.4333 0
M  V30 END ATOM
M  V30 BEGIN BOND
M  V30 1 1 1 2
M  V30 2 1 1 3
M  V30 3 1 2 4
M  V30 4 1 2 5
M  V30 5 1 2 6
M  V30 6 1 3 7
M  V30 7 1 4 8
M  V30 8 1 4 9
M  V30 9 1 5 10
M  V30 10 1 8 11
M  V30 11 1 8 12
M  V30 12 1 11 13
M  V30 13 1 12 14
M  V30 14 1 6 7
M  V30 15 1 9 10
M  V30 16 1 10 11
M  V30 17 1 13 14
M  V30 18 1 3 15
M  V30 19 1 3 16
M  V30 20 1 4 17
M  V30 21 1 5 18
M  V30 22 1 5 19
M  V30 23 1 6 20
M  V30 24 1 6 21
M  V30 25 1 7 22
M  V30 26 1 7 23
M  V30 27 1 8 24
M  V30 28 1 9 25
M  V30 29 1 9 26
M  V30 30 1 10 27
M  V30 31 1 11 28
M  V30 32 1 12 29
M  V30 33 1 12 30
M  V30 34 1 13 31
M  V30 35 1 13 32
M  V30 36 1 14 33
M  V30 37 1 14 34
M  V30 END BOND
M  V30 BEGIN COLLECTION
M  V30 MDLV30/STEABS ATOMS=(5 2 4 8 10 11)
M  V30 END COLLECTION
M  V30 END CTAB
M  END
>  <Structure No>
1111

>  <LogS>
-5.94156112

>  <MMFF94 Energy>
54.407

$$$$
Compound 1112
Actelion Java MolfileCreator 2.0

  0  0  0  0  0  0              0 V3000
M  V30 BEGIN CTAB
M  V30 COUNTS 48 49 0 0 0
M  V30 BEGIN ATOM
M  V30 1 O 2.4519 -1.2649 2.0561 0
M  V30 2 C 2.4503 -0.3501 0.9975 0
M  V30 3 C 1.284 -0.212 0.2093 0
M  V30 4 C 3.5971 0.4249 0.7057 0
M  V30 5 C 1.2994 0.673 -0.8854 0
M  V30 6 C 0.0501 -1.066 0.4909 0
M  V30 7 C 3.5737 1.3154 -0.3779 0
M  V30 8 C 4.8504 0.3022 1.5295 0
M  V30 9 C 2.4271 1.4508 -1.1669 0
M  V30 10 C -1.2443 -0.2426 0.3863 0
M  V30 11 C 0.1112 -2.4572 -0.2296 0
M  V30 12 C 2.4331 2.365 -2.357 0
M  V30 13 C -1.6335 0.5742 1.478 0
M  V30 14 C -2.0074 -0.1913 -0.7962 0
M  V30 15 C -1.1902 -3.264 -0.0947 0
M  V30 16 C 0.6153 -2.4356 -1.6861 0
M  V30 17 O -0.8412 0.588 2.6317 0
M  V30 18 C -2.7989 1.3715 1.3929 0
M  V30 19 C -3.1675 0.586 -0.8781 0
M  V30 20 C -3.5526 1.3706 0.2118 0
M  V30 21 C -3.2363 2.2386 2.5427 0
M  V30 22 C -3.9489 0.6396 -2.1587 0
M  V30 23 H 3.2507 -1.4214 2.6569 0
M  V30 24 H 0.4352 0.7555 -1.5307 0
M  V30 25 H 0.0928 -1.3558 1.5634 0
M  V30 26 H 4.4534 1.9024 -0.615 0
M  V30 27 H 5.2434 -0.734 1.4631 0
M  V30 28 H 5.6452 0.9935 1.1764 0
M  V30 29 H 4.63 0.5499 2.5892 0
M  V30 30 H 0.8785 -3.0481 0.3221 0
M  V30 31 H 3.1145 3.2261 -2.1883 0
M  V30 32 H 2.7737 1.8034 -3.2517 0
M  V30 33 H 1.415 2.767 -2.5473 0
M  V30 34 H -1.7142 -0.7477 -1.6666 0
M  V30 35 H -1.5642 -3.2223 0.9505 0
M  V30 36 H -1.9788 -2.8895 -0.7769 0
M  V30 37 H -1.0013 -4.3291 -0.3482 0
M  V30 38 H 1.6661 -2.079 -1.7242 0
M  V30 39 H 0.0072 -1.7939 -2.3463 0
M  V30 40 H 0.6068 -3.4647 -2.1046 0
M  V30 41 H -1.048 1.1532 3.4451 0
M  V30 42 H -4.4386 1.9901 0.1343 0
M  V30 43 H -2.4565 2.9992 2.7572 0
M  V30 44 H -3.4042 1.6123 3.4441 0
M  V30 45 H -4.1844 2.7728 2.3192 0
M  V30 46 H -3.9018 -0.3366 -2.6868 0
M  V30 47 H -5.0177 0.8686 -1.9597 0
M  V30 48 H -3.5262 1.4279 -2.816 0
M  V30 END ATOM
M  V30 BEGIN BOND
M  V30 1 1 1 2
M  V30 2 2 2 3
M  V30 3 1 2 4
M  V30 4 1 3 5
M  V30 5 1 3 6
M  V30 6 2 4 7
M  V30 7 1 4 8
M  V30 8 2 5 9
M  V30 9 1 6 10
M  V30 10 1 6 11
M  V30 11 1 9 12
M  V30 12 2 10 13
M  V30 13 1 10 14
M  V30 14 1 11 15
M  V30 15 1 11 16
M  V30 16 1 13 17
M  V30 17 1 13 18
M  V30 18 2 14 19
M  V30 19 2 18 20
M  V30 20 1 18 21
M  V30 21 1 19 22
M  V30 22 1 7 9
M  V30 23 1 19 20
M  V30 24 1 1 23
M  V30 25 1 5 24
M  V30 26 1 6 25
M  V30 27 1 7 26
M  V30 28 1 8 27
M  V30 29 1 8 28
M  V30 30 1 8 29
M  V30 31 1 11 30
M  V30 32 1 12 31
M  V30 33 1 12 32
M  V30 34 1 12 33
M  V30 35 1 14 34
M  V30 36 1 15 35
M  V30 37 1 15 36
M  V30 38 1 15 37
M  V30 39 1 16 38
M  V30 40 1 16 39
M  V30 41 1 16 40
M  V30 42 1 17 41
M  V30 43 1 20 42
M  V30 44 1 21 43
M  V30 45 1 21 44
M  V30 46 1 21 45
M  V30 47 1 22 46
M  V30 48 1 22 47
M  V30 49 1 22 48
M  V30 END BOND
M  V30 END CTAB
M  END
>  <Structure No>
1112

>  <LogS>
-6.16734062

>  <MMFF94 Energy>
52.143

$$$$
Compound 1113
Actelion Java MolfileCreator 2.0

  0  0  0  0  0  0              0 V3000
M  V30 BEGIN CTAB
M  V30 COUNTS 51 53 0 0 0
M  V30 BEGIN ATOM
M  V30 1 O 9.3678 0.3219 1.6909 0
M  V30 2 C 8.1309 0.5295 1.5805 0
M  V30 3 N 7.4241 0.2181 0.4678 0
M  V30 4 N 7.3807 1.0759 2.5669 0
M  V30 5 C 6.1702 0.5896 0.7778 0
M  V30 6 C 6.1439 1.1057 2.0423 0
M  V30 7 C 5.0187 0.471 0.0042 0
M  V30 8 C 4.9642 1.5428 2.6362 0
M  V30 9 C 3.7956 0.9244 0.5608 0
M  V30 10 C 3.7795 1.4445 1.883 0
M  V30 11 N 2.5546 0.8057 -0.1578 0
M  V30 12 C 2.4397 0.8454 -1.5928 0
M  V30 13 O 3.392 1.2915 -2.2875 0
M  V30 14 C 1.1836 0.4235 -2.2575 0
M  V30 15 N 0.1203 0.2675 -1.5248 0
M  V30 16 C 1.1436 0.1948 -3.7269 0
M  V30 17 N -1.1137 -0.1604 -2.037 0 CHG=-1
M  V30 18 O 0.1157 0.5125 -4.3844 0
M  V30 19 C 2.3234 -0.3603 -4.465 0
M  V30 20 C -2.2705 -0.304 -1.2056 0
M  V30 21 C -2.23 0.0107 0.1624 0
M  V30 22 C -3.4596 -0.7704 -1.7745 0
M  V30 23 C -3.3751 -0.1375 0.9632 0
M  V30 24 C -4.6154 -0.9291 -0.9896 0
M  V30 25 C -3.3345 0.1984 2.4052 0
M  V30 26 C -4.5632 -0.6101 0.3784 0
M  V30 27 C -5.8726 -1.4265 -1.5934 0
M  V30 28 O -2.2694 0.6333 2.9252 0
M  V30 29 O -4.4807 0.0372 3.1919 0
M  V30 30 O -5.9199 -1.6978 -2.8256 0
M  V30 31 O -7.0098 -1.5991 -0.7949 0
M  V30 32 C -4.5123 0.355 4.5786 0
M  V30 33 C -8.2518 -2.0546 -1.3177 0
M  V30 34 H 7.7708 -0.2162 -0.4186 0
M  V30 35 H 7.6871 1.3885 3.5167 0
M  V30 36 H 5.0709 0.0109 -0.9733 0
M  V30 37 H 4.9551 1.9348 3.6444 0
M  V30 38 H 2.8469 1.7705 2.3245 0
M  V30 39 H 1.6783 0.7432 0.4086 0
M  V30 40 H 1.978 -0.9745 -5.3233 0
M  V30 41 H 2.9505 0.4725 -4.8476 0
M  V30 42 H 2.933 -1.0077 -3.7989 0
M  V30 43 H -1.3085 0.3725 0.6014 0
M  V30 44 H -3.4759 -1.0127 -2.8315 0
M  V30 45 H -5.4484 -0.7323 0.9899 0
M  V30 46 H -4.278 1.4308 4.728 0
M  V30 47 H -3.7772 -0.2698 5.1291 0
M  V30 48 H -5.5276 0.1504 4.9756 0
M  V30 49 H -8.9865 -2.136 -0.4912 0
M  V30 50 H -8.1253 -3.0542 -1.7861 0
M  V30 51 H -8.6328 -1.3336 -2.07 0
M  V30 END ATOM
M  V30 BEGIN BOND
M  V30 1 2 1 2
M  V30 2 1 2 3
M  V30 3 1 2 4
M  V30 4 1 3 5
M  V30 5 1 4 6
M  V30 6 1 5 7
M  V30 7 1 6 8
M  V30 8 2 7 9
M  V30 9 2 8 10
M  V30 10 1 9 11
M  V30 11 1 11 12
M  V30 12 2 12 13
M  V30 13 1 12 14
M  V30 14 2 14 15
M  V30 15 1 14 16
M  V30 16 1 15 17
M  V30 17 2 16 18
M  V30 18 1 16 19
M  V30 19 1 17 20
M  V30 20 2 20 21
M  V30 21 1 20 22
M  V30 22 1 21 23
M  V30 23 2 22 24
M  V30 24 1 23 25
M  V30 25 2 23 26
M  V30 26 1 24 27
M  V30 27 2 25 28
M  V30 28 1 25 29
M  V30 29 2 27 30
M  V30 30 1 27 31
M  V30 31 1 29 32
M  V30 32 1 31 33
M  V30 33 2 5 6
M  V30 34 1 9 10
M  V30 35 1 24 26
M  V30 36 1 3 34
M  V30 37 1 4 35
M  V30 38 1 7 36
M  V30 39 1 8 37
M  V30 40 1 10 38
M  V30 41 1 11 39
M  V30 42 1 19 40
M  V30 43 1 19 41
M  V30 44 1 19 42
M  V30 45 1 21 43
M  V30 46 1 22 44
M  V30 47 1 26 45
M  V30 48 1 32 46
M  V30 49 1 32 47
M  V30 50 1 32 48
M  V30 51 1 33 49
M  V30 52 1 33 50
M  V30 53 1 33 51
M  V30 END BOND
M  V30 END CTAB
M  END
>  <Structure No>
1113

>  <LogS>
-6.377738451

>  <MMFF94 Energy>
29.789

$$$$
Compound 1114
Actelion Java MolfileCreator 2.0

  0  0  0  0  0  0              0 V3000
M  V30 BEGIN CTAB
M  V30 COUNTS 33 35 0 0 0
M  V30 BEGIN ATOM
M  V30 1 O -3.16 0.5666 2.8355 0
M  V30 2 C -2.5652 0.3833 1.7421 0
M  V30 3 C -3.2672 0.1313 0.5393 0
M  V30 4 C -1.1699 0.3959 1.7412 0
M  V30 5 C -2.4848 -0.1787 -0.6053 0
M  V30 6 C -4.689 0.1334 0.4122 0
M  V30 7 C -0.4748 0.1276 0.554 0
M  V30 8 O -1.1574 -0.1598 -0.5494 0
M  V30 9 C -3.0985 -0.5179 -1.8135 0
M  V30 10 O -5.5643 0.5188 1.4321 0
M  V30 11 C -5.2732 -0.2438 -0.8034 0
M  V30 12 C 1.0089 0.1291 0.4969 0
M  V30 13 C -4.4869 -0.5637 -1.909 0
M  V30 14 C 1.7819 0.9241 1.3636 0
M  V30 15 C 1.6643 -0.6569 -0.4649 0
M  V30 16 O -5.0888 -0.92 -3.1096 0 CHG=-1
M  V30 17 C 3.1818 0.9152 1.283 0
M  V30 18 C 3.0589 -0.6685 -0.5456 0
M  V30 19 O 3.9395 1.7044 2.1472 0
M  V30 20 C 3.8293 0.1169 0.3309 0
M  V30 21 O 5.232 0.1331 0.2847 0
M  V30 22 C 6.0165 -0.6257 -0.6296 0
M  V30 23 H -0.6418 0.5729 2.6697 0
M  V30 24 H -2.4925 -0.7585 -2.6784 0
M  V30 25 H -5.3016 1.0519 2.2468 0
M  V30 26 H -6.3523 -0.2606 -0.8965 0
M  V30 27 H 1.3079 1.573 2.0879 0
M  V30 28 H 1.0971 -1.2752 -1.1498 0
M  V30 29 H 3.5278 -1.2926 -1.2939 0
M  V30 30 H 3.5044 2.2942 2.8472 0
M  V30 31 H 5.8298 -1.7107 -0.4836 0
M  V30 32 H 7.0904 -0.4217 -0.4417 0
M  V30 33 H 5.7761 -0.3329 -1.6733 0
M  V30 END ATOM
M  V30 BEGIN BOND
M  V30 1 2 1 2
M  V30 2 1 2 3
M  V30 3 1 2 4
M  V30 4 2 3 5
M  V30 5 1 3 6
M  V30 6 2 4 7
M  V30 7 1 5 8
M  V30 8 1 5 9
M  V30 9 1 6 10
M  V30 10 2 6 11
M  V30 11 1 7 12
M  V30 12 2 9 13
M  V30 13 2 12 14
M  V30 14 1 12 15
M  V30 15 1 13 16
M  V30 16 1 14 17
M  V30 17 2 15 18
M  V30 18 1 17 19
M  V30 19 2 17 20
M  V30 20 1 20 21
M  V30 21 1 21 22
M  V30 22 1 7 8
M  V30 23 1 11 13
M  V30 24 1 18 20
M  V30 25 1 4 23
M  V30 26 1 9 24
M  V30 27 1 10 25
M  V30 28 1 11 26
M  V30 29 1 14 27
M  V30 30 1 15 28
M  V30 31 1 18 29
M  V30 32 1 19 30
M  V30 33 1 22 31
M  V30 34 1 22 32
M  V30 35 1 22 33
M  V30 END BOND
M  V30 END CTAB
M  END
>  <Structure No>
1114

>  <LogS>
-6.198752558

>  <MMFF94 Energy>
41.422

$$$$
Compound 1115
Actelion Java MolfileCreator 2.0

  0  0  0  0  0  0              0 V3000
M  V30 BEGIN CTAB
M  V30 COUNTS 67 67 0 0 0
M  V30 BEGIN ATOM
M  V30 1 O -4.1414 -7.0162 -1.1136 0
M  V30 2 C -4.4064 -5.8886 -0.6191 0
M  V30 3 O -5.2536 -5.0216 -1.2974 0 CHG=-1
M  V30 4 C -3.7773 -5.4639 0.6713 0
M  V30 5 C -2.3609 -4.9021 0.4633 0
M  V30 6 C -2.2971 -3.6441 -0.4257 0
M  V30 7 C -3.088 -2.4325 0.103 0
M  V30 8 C -2.6318 -1.9396 1.4851 0
M  V30 9 N -1.1996 -1.6449 1.5023 0
M  V30 10 C -0.6292 -0.5156 0.8239 0
M  V30 11 N 0.7225 -0.3794 0.75 0 CHG=1
M  V30 12 N -1.432 0.4174 0.2473 0
M  V30 13 C 1.2689 0.6826 0.0908 0
M  V30 14 C -0.8959 1.4763 -0.4081 0
M  V30 15 N 0.4533 1.6029 -0.4854 0
M  V30 16 N 2.6913 0.8483 -0.0157 0
M  V30 17 N -1.7553 2.4445 -1.0183 0
M  V30 18 C 3.6513 -0.1051 0.5414 0
M  V30 19 C -1.2238 3.5605 -1.8024 0
M  V30 20 C 5.0891 0.3206 0.2139 0
M  V30 21 C -2.3387 4.5058 -2.2813 0
M  V30 22 C 6.1434 -0.5871 0.8635 0
M  V30 23 C -2.7191 5.5782 -1.2476 0
M  V30 24 C 6.1543 -2.0016 0.2663 0
M  V30 25 C -3.4324 5.0015 -0.0141 0
M  V30 26 C 7.3628 -2.8013 0.7656 0
M  V30 27 C -3.9714 6.1027 0.9088 0
M  V30 28 C 7.323 -4.202 0.2407 0
M  V30 29 C -2.8638 6.862 1.572 0
M  V30 30 O 7.5749 -4.4331 -0.971 0
M  V30 31 O 6.9764 -5.2502 1.0821 0 CHG=-1
M  V30 32 O -2.2574 6.3647 2.5572 0
M  V30 33 O -2.4778 8.1024 1.0811 0 CHG=-1
M  V30 34 H -4.4247 -4.718 1.1778 0
M  V30 35 H -3.7177 -6.3461 1.3447 0
M  V30 36 H -1.9068 -4.6822 1.4523 0
M  V30 37 H -1.7286 -5.6906 -9.0E-4 0
M  V30 38 H -2.6686 -3.8939 -1.4419 0
M  V30 39 H -1.2319 -3.3533 -0.5479 0
M  V30 40 H -2.9764 -1.6044 -0.6287 0
M  V30 41 H -4.1709 -2.6695 0.1414 0
M  V30 42 H -3.2036 -1.0275 1.7593 0
M  V30 43 H -2.8629 -2.7081 2.2531 0
M  V30 44 H -0.5716 -2.2829 2.0418 0
M  V30 45 H 1.3279 -1.1033 1.1972 0
M  V30 46 H 3.0425 1.6827 -0.5396 0
M  V30 47 H -2.7853 2.3133 -0.9242 0
M  V30 48 H 3.5209 -0.1527 1.6452 0
M  V30 49 H 3.4523 -1.1074 0.1059 0
M  V30 50 H -0.7005 3.1478 -2.6917 0
M  V30 51 H -0.4775 4.1247 -1.2019 0
M  V30 52 H 5.2341 0.3349 -0.8882 0
M  V30 53 H 5.2476 1.355 0.5903 0
M  V30 54 H -3.237 3.9315 -2.5927 0
M  V30 55 H -1.9713 5.0345 -3.1865 0
M  V30 56 H 5.9679 -0.6412 1.9599 0
M  V30 57 H 7.1391 -0.1191 0.7004 0
M  V30 58 H -3.3978 6.3027 -1.7479 0
M  V30 59 H -1.8081 6.1327 -0.9352 0
M  V30 60 H 5.2232 -2.5333 0.5593 0
M  V30 61 H 6.1938 -1.9355 -0.8435 0
M  V30 62 H -2.7386 4.3528 0.5624 0
M  V30 63 H -4.2904 4.3789 -0.3478 0
M  V30 64 H 7.3628 -2.8268 1.8766 0
M  V30 65 H 8.3042 -2.3145 0.4299 0
M  V30 66 H -4.6175 6.8015 0.3346 0
M  V30 67 H -4.6024 5.6353 1.6947 0
M  V30 END ATOM
M  V30 BEGIN BOND
M  V30 1 2 1 2
M  V30 2 1 2 3
M  V30 3 1 2 4
M  V30 4 1 4 5
M  V30 5 1 5 6
M  V30 6 1 6 7
M  V30 7 1 7 8
M  V30 8 1 8 9
M  V30 9 1 9 10
M  V30 10 2 10 11
M  V30 11 1 10 12
M  V30 12 1 11 13
M  V30 13 2 12 14
M  V30 14 2 13 15
M  V30 15 1 13 16
M  V30 16 1 14 17
M  V30 17 1 16 18
M  V30 18 1 17 19
M  V30 19 1 18 20
M  V30 20 1 19 21
M  V30 21 1 20 22
M  V30 22 1 21 23
M  V30 23 1 22 24
M  V30 24 1 23 25
M  V30 25 1 24 26
M  V30 26 1 25 27
M  V30 27 1 26 28
M  V30 28 1 27 29
M  V30 29 2 28 30
M  V30 30 1 28 31
M  V30 31 2 29 32
M  V30 32 1 29 33
M  V30 33 1 14 15
M  V30 34 1 4 34
M  V30 35 1 4 35
M  V30 36 1 5 36
M  V30 37 1 5 37
M  V30 38 1 6 38
M  V30 39 1 6 39
M  V30 40 1 7 40
M  V30 41 1 7 41
M  V30 42 1 8 42
M  V30 43 1 8 43
M  V30 44 1 9 44
M  V30 45 1 11 45
M  V30 46 1 16 46
M  V30 47 1 17 47
M  V30 48 1 18 48
M  V30 49 1 18 49
M  V30 50 1 19 50
M  V30 51 1 19 51
M  V30 52 1 20 52
M  V30 53 1 20 53
M  V30 54 1 21 54
M  V30 55 1 21 55
M  V30 56 1 22 56
M  V30 57 1 22 57
M  V30 58 1 23 58
M  V30 59 1 23 59
M  V30 60 1 24 60
M  V30 61 1 24 61
M  V30 62 1 25 62
M  V30 63 1 25 63
M  V30 64 1 26 64
M  V30 65 1 26 65
M  V30 66 1 27 66
M  V30 67 1 27 67
M  V30 END BOND
M  V30 END CTAB
M  END
>  <Structure No>
1115

>  <LogS>
-6.683201134

>  <MMFF94 Energy>
-299.3

$$$$
Compound 1116
Actelion Java MolfileCreator 2.0

  0  0  0  0  0  0              0 V3000
M  V30 BEGIN CTAB
M  V30 COUNTS 33 32 0 0 0
M  V30 BEGIN ATOM
M  V30 1 F -4.4177 3.397 1.1031 0
M  V30 2 C -3.4121 2.4492 1.0331 0
M  V30 3 F -2.4468 2.9001 0.1503 0
M  V30 4 F -2.8575 2.3219 2.2937 0
M  V30 5 C -4.009 1.1102 0.5592 0
M  V30 6 F -4.826 0.6056 1.5582 0
M  V30 7 F -4.811 1.3663 -0.5416 0
M  V30 8 C -2.9659 0.0366 0.1437 0
M  V30 9 F -3.6753 -1.0917 -0.2353 0
M  V30 10 F -2.2858 0.501 -0.9693 0
M  V30 11 C -1.9469 -0.3435 1.2598 0
M  V30 12 F -1.0222 0.6748 1.412 0
M  V30 13 F -2.6233 -0.4701 2.4631 0
M  V30 14 C -1.193 -1.6859 1.0272 0
M  V30 15 F -0.3396 -1.8887 2.0994 0
M  V30 16 F -2.1162 -2.7192 1.0621 0
M  V30 17 C -0.3795 -1.8234 -0.2911 0
M  V30 18 F 0.2777 -3.0432 -0.262 0
M  V30 19 F -1.2513 -1.8679 -1.3652 0
M  V30 20 C 0.667 -0.7188 -0.5617 0
M  V30 21 C 1.7969 -0.6584 0.4771 0
M  V30 22 O 2.8101 0.2539 0.0573 0
M  V30 23 C 3.7644 -0.0491 -0.9199 0
M  V30 24 O 3.7976 -1.1941 -1.4506 0
M  V30 25 C 4.7319 0.9874 -1.3121 0
M  V30 26 C 5.6713 0.7805 -2.2331 0
M  V30 27 H 0.1863 0.2759 -0.6453 0
M  V30 28 H 1.1173 -0.9265 -1.5561 0
M  V30 29 H 1.3951 -0.2914 1.4427 0
M  V30 30 H 2.2395 -1.664 0.6471 0
M  V30 31 H 4.6747 1.9564 -0.8316 0
M  V30 32 H 5.7669 -0.1711 -2.7408 0
M  V30 33 H 6.3605 1.575 -2.4881 0
M  V30 END ATOM
M  V30 BEGIN BOND
M  V30 1 1 1 2
M  V30 2 1 2 3
M  V30 3 1 2 4
M  V30 4 1 2 5
M  V30 5 1 5 6
M  V30 6 1 5 7
M  V30 7 1 5 8
M  V30 8 1 8 9
M  V30 9 1 8 10
M  V30 10 1 8 11
M  V30 11 1 11 12
M  V30 12 1 11 13
M  V30 13 1 11 14
M  V30 14 1 14 15
M  V30 15 1 14 16
M  V30 16 1 14 17
M  V30 17 1 17 18
M  V30 18 1 17 19
M  V30 19 1 17 20
M  V30 20 1 20 21
M  V30 21 1 21 22
M  V30 22 1 22 23
M  V30 23 2 23 24
M  V30 24 1 23 25
M  V30 25 2 25 26
M  V30 26 1 20 27
M  V30 27 1 20 28
M  V30 28 1 21 29
M  V30 29 1 21 30
M  V30 30 1 25 31
M  V30 31 1 26 32
M  V30 32 1 26 33
M  V30 END BOND
M  V30 END CTAB
M  END
>  <Structure No>
1116

>  <LogS>
-6.354159334

>  <MMFF94 Energy>
52.891

$$$$
Compound 1117
Actelion Java MolfileCreator 2.0

  0  0  0  0  0  0              0 V3000
M  V30 BEGIN CTAB
M  V30 COUNTS 27 29 0 0 0
M  V30 BEGIN ATOM
M  V30 1 O -0.325 2.6025 -0.2437 0
M  V30 2 C -0.4784 1.3529 -0.1581 0
M  V30 3 C 0.7015 0.4724 0.0141 0
M  V30 4 C -1.8385 0.7688 -0.2303 0
M  V30 5 C 0.5287 -0.9245 0.1118 0
M  V30 6 C 1.9968 1.0174 0.0844 0
M  V30 7 C -2.0108 -0.6291 -0.1342 0
M  V30 8 C -2.9655 1.5954 -0.3946 0
M  V30 9 C -0.8313 -1.5091 0.0394 0
M  V30 10 C 1.6534 -1.7501 0.2833 0
M  V30 11 C 3.1148 0.1854 0.2369 0
M  V30 12 C -3.3066 -1.1734 -0.2043 0
M  V30 13 C -4.2452 1.0408 -0.4624 0
M  V30 14 O -0.9853 -2.7586 0.1256 0
M  V30 15 C 2.9337 -1.1983 0.3518 0
M  V30 16 C 4.4881 0.7791 0.35 0
M  V30 17 C -4.4154 -0.3403 -0.3675 0
M  V30 18 H 2.14 2.0896 0.0202 0
M  V30 19 H -2.8583 2.6702 -0.4707 0
M  V30 20 H 1.5441 -2.8239 0.3687 0
M  V30 21 H -3.4635 -2.2423 -0.1329 0
M  V30 22 H -5.1069 1.6836 -0.5889 0
M  V30 23 H 3.7854 -1.8523 0.4936 0
M  V30 24 H 5.2561 0.0662 -0.0184 0
M  V30 25 H 4.564 1.7074 -0.2552 0
M  V30 26 H 4.699 1.0212 1.4126 0
M  V30 27 H -5.4088 -0.7668 -0.4205 0
M  V30 END ATOM
M  V30 BEGIN BOND
M  V30 1 2 1 2
M  V30 2 1 2 3
M  V30 3 1 2 4
M  V30 4 2 3 5
M  V30 5 1 3 6
M  V30 6 2 4 7
M  V30 7 1 4 8
M  V30 8 1 5 9
M  V30 9 1 5 10
M  V30 10 2 6 11
M  V30 11 1 7 12
M  V30 12 2 8 13
M  V30 13 2 9 14
M  V30 14 2 10 15
M  V30 15 1 11 16
M  V30 16 2 12 17
M  V30 17 1 7 9
M  V30 18 1 11 15
M  V30 19 1 13 17
M  V30 20 1 6 18
M  V30 21 1 8 19
M  V30 22 1 10 20
M  V30 23 1 12 21
M  V30 24 1 13 22
M  V30 25 1 15 23
M  V30 26 1 16 24
M  V30 27 1 16 25
M  V30 28 1 16 26
M  V30 29 1 17 27
M  V30 END BOND
M  V30 END CTAB
M  END
>  <Structure No>
1117

>  <LogS>
-6.117146249

>  <MMFF94 Energy>
65.472

$$$$
Compound 1118
Actelion Java MolfileCreator 2.0

  0  0  0  0  0  0              0 V3000
M  V30 BEGIN CTAB
M  V30 COUNTS 36 38 0 0 0
M  V30 BEGIN ATOM
M  V30 1 N 2.6193 -1.2693 0.3965 0
M  V30 2 C 1.2875 -0.8812 0.0173 0
M  V30 3 C 3.7719 -0.4144 0.3042 0
M  V30 4 C 1.0612 0.0111 -1.0447 0
M  V30 5 C 0.1892 -1.4594 0.6687 0
M  V30 6 C 3.6676 0.9771 0.4878 0
M  V30 7 C 5.0374 -0.9831 0.0927 0
M  V30 8 C -0.2426 0.3529 -1.4144 0
M  V30 9 C -1.1146 -1.1171 0.2995 0
M  V30 10 C 4.8075 1.7842 0.4215 0
M  V30 11 C 6.175 -0.1727 0.0268 0
M  V30 12 C -1.3404 -0.1884 -0.7311 0
M  V30 13 C 6.0596 1.2105 0.1871 0
M  V30 14 N -2.6728 0.1571 -1.1472 0
M  V30 15 C -3.8103 0.2092 -0.2688 0
M  V30 16 C -5.0899 -0.0567 -0.7807 0
M  V30 17 C -3.6766 0.5868 1.0803 0
M  V30 18 C -6.2128 0.0148 0.0495 0
M  V30 19 C -4.8019 0.6576 1.9074 0
M  V30 20 C -6.0685 0.3679 1.3937 0
M  V30 21 H 2.7587 -2.2375 0.7654 0
M  V30 22 H 1.8907 0.4294 -1.5997 0
M  V30 23 H 0.345 -2.175 1.4663 0
M  V30 24 H 2.7106 1.4362 0.6987 0
M  V30 25 H 5.1393 -2.054 -0.03 0
M  V30 26 H -0.3989 1.0434 -2.2336 0
M  V30 27 H -1.9451 -1.5911 0.8063 0
M  V30 28 H 4.7209 2.8543 0.5596 0
M  V30 29 H 7.1464 -0.6174 -0.1462 0
M  V30 30 H 6.941 1.8365 0.1376 0
M  V30 31 H -2.8246 0.3872 -2.1557 0
M  V30 32 H -5.2143 -0.3285 -1.8213 0
M  V30 33 H -2.7077 0.8426 1.4889 0
M  V30 34 H -7.1953 -0.201 -0.3498 0
M  V30 35 H -4.6928 0.9447 2.9453 0
M  V30 36 H -6.9387 0.4248 2.0348 0
M  V30 END ATOM
M  V30 BEGIN BOND
M  V30 1 1 1 2
M  V30 2 1 1 3
M  V30 3 2 2 4
M  V30 4 1 2 5
M  V30 5 2 3 6
M  V30 6 1 3 7
M  V30 7 1 4 8
M  V30 8 2 5 9
M  V30 9 1 6 10
M  V30 10 2 7 11
M  V30 11 2 8 12
M  V30 12 2 10 13
M  V30 13 1 12 14
M  V30 14 1 14 15
M  V30 15 2 15 16
M  V30 16 1 15 17
M  V30 17 1 16 18
M  V30 18 2 17 19
M  V30 19 2 18 20
M  V30 20 1 9 12
M  V30 21 1 11 13
M  V30 22 1 19 20
M  V30 23 1 1 21
M  V30 24 1 4 22
M  V30 25 1 5 23
M  V30 26 1 6 24
M  V30 27 1 7 25
M  V30 28 1 8 26
M  V30 29 1 9 27
M  V30 30 1 10 28
M  V30 31 1 11 29
M  V30 32 1 13 30
M  V30 33 1 14 31
M  V30 34 1 16 32
M  V30 35 1 17 33
M  V30 36 1 18 34
M  V30 37 1 19 35
M  V30 38 1 20 36
M  V30 END BOND
M  V30 END CTAB
M  END
>  <Structure No>
1118

>  <LogS>
-6.239449641

>  <MMFF94 Energy>
38.238

$$$$
Compound 1119
Actelion Java MolfileCreator 2.0

  0  0  0  0  0  0              0 V3000
M  V30 BEGIN CTAB
M  V30 COUNTS 30 31 0 0 0
M  V30 BEGIN ATOM
M  V30 1 O 4.7349 -1.2021 1.2823 0
M  V30 2 C 4.0181 -0.4333 0.5832 0
M  V30 3 O 4.6176 0.5472 -0.2149 0
M  V30 4 C 2.5441 -0.5667 0.606 0
M  V30 5 C 6.0269 0.7275 -0.2815 0
M  V30 6 C 1.7428 0.288 -0.1715 0
M  V30 7 C 1.9264 -1.547 1.403 0
M  V30 8 C 0.3445 0.1666 -0.1543 0
M  V30 9 C 0.5352 -1.6737 1.4252 0
M  V30 10 C -0.2647 -0.8224 0.6507 0
M  V30 11 C -0.4554 1.0179 -0.9287 0
M  V30 12 C -1.6629 -0.9436 0.6677 0
M  V30 13 C -1.8467 0.8913 -0.9067 0
M  V30 14 C -2.4643 -0.0881 -0.1103 0
M  V30 15 C -3.9392 -0.2136 -0.0944 0
M  V30 16 O -4.4929 -1.0936 0.6211 0
M  V30 17 O -4.7204 0.6459 -0.8748 0
M  V30 18 C -6.1411 0.5781 -0.9046 0
M  V30 19 H 6.5113 -0.1983 -0.6575 0
M  V30 20 H 6.2553 1.5608 -0.9771 0
M  V30 21 H 6.426 0.9786 0.724 0
M  V30 22 H 2.2042 1.0486 -0.7908 0
M  V30 23 H 2.5191 -2.2184 2.0117 0
M  V30 24 H 0.0853 -2.4377 2.0483 0
M  V30 25 H -0.0056 1.7819 -1.5518 0
M  V30 26 H -2.1251 -1.704 1.2871 0
M  V30 27 H -2.4389 1.5631 -1.5154 0
M  V30 28 H -6.4665 -0.4187 -1.2701 0
M  V30 29 H -6.5517 0.7582 0.1115 0
M  V30 30 H -6.5288 1.3574 -1.5922 0
M  V30 END ATOM
M  V30 BEGIN BOND
M  V30 1 2 1 2
M  V30 2 1 2 3
M  V30 3 1 2 4
M  V30 4 1 3 5
M  V30 5 2 4 6
M  V30 6 1 4 7
M  V30 7 1 6 8
M  V30 8 2 7 9
M  V30 9 1 8 10
M  V30 10 2 8 11
M  V30 11 2 10 12
M  V30 12 1 11 13
M  V30 13 1 12 14
M  V30 14 1 14 15
M  V30 15 2 15 16
M  V30 16 1 15 17
M  V30 17 1 17 18
M  V30 18 1 9 10
M  V30 19 2 13 14
M  V30 20 1 5 19
M  V30 21 1 5 20
M  V30 22 1 5 21
M  V30 23 1 6 22
M  V30 24 1 7 23
M  V30 25 1 9 24
M  V30 26 1 11 25
M  V30 27 1 12 26
M  V30 28 1 13 27
M  V30 29 1 18 28
M  V30 30 1 18 29
M  V30 31 1 18 30
M  V30 END BOND
M  V30 END CTAB
M  END
>  <Structure No>
1119

>  <LogS>
-6.211736201

>  <MMFF94 Energy>
49.653

$$$$
Compound 1120
Actelion Java MolfileCreator 2.0

  0  0  0  0  0  0              0 V3000
M  V30 BEGIN CTAB
M  V30 COUNTS 26 28 0 0 0
M  V30 BEGIN ATOM
M  V30 1 O 0.0 2.7008 0.0817 0
M  V30 2 C 0.1124 1.4444 0.0613 0
M  V30 3 C -1.1014 0.5797 0.0555 0
M  V30 4 C 1.4642 0.8413 0.0434 0
M  V30 5 C -0.9547 -0.8316 0.0325 0
M  V30 6 C -2.4006 1.1435 0.0726 0
M  V30 7 C 1.6097 -0.5596 0.0205 0
M  V30 8 C 2.6121 1.6569 0.0489 0
M  V30 9 C 0.4109 -1.428 0.0146 0
M  V30 10 C -2.11 -1.6506 0.027 0
M  V30 11 O -2.5814 2.527 0.0955 0
M  V30 12 C -3.5251 0.313 0.0668 0
M  V30 13 C 2.9008 -1.1214 0.0035 0
M  V30 14 C 3.8861 1.0861 0.032 0
M  V30 15 O 0.5592 -2.6806 -0.0059 0
M  V30 16 O -2.0025 -3.0418 0.0046 0
M  V30 17 C -3.3814 -1.0693 0.0442 0
M  V30 18 C 4.0303 -0.3005 0.0093 0
M  V30 19 H 2.5263 2.7363 0.0664 0
M  V30 20 H -3.5046 2.9452 0.1079 0
M  V30 21 H -4.5192 0.7423 0.0798 0
M  V30 22 H 3.0389 -2.1952 -0.014 0
M  V30 23 H 4.7633 1.7205 0.0363 0
M  V30 24 H -2.82 -3.6409 4.0E-4 0
M  V30 25 H -4.266 -1.6939 0.04 0
M  V30 26 H 5.019 -0.7407 -0.0037 0
M  V30 END ATOM
M  V30 BEGIN BOND
M  V30 1 2 1 2
M  V30 2 1 2 3
M  V30 3 1 2 4
M  V30 4 2 3 5
M  V30 5 1 3 6
M  V30 6 2 4 7
M  V30 7 1 4 8
M  V30 8 1 5 9
M  V30 9 1 5 10
M  V30 10 1 6 11
M  V30 11 2 6 12
M  V30 12 1 7 13
M  V30 13 2 8 14
M  V30 14 2 9 15
M  V30 15 1 10 16
M  V30 16 2 10 17
M  V30 17 2 13 18
M  V30 18 1 7 9
M  V30 19 1 12 17
M  V30 20 1 14 18
M  V30 21 1 8 19
M  V30 22 1 11 20
M  V30 23 1 12 21
M  V30 24 1 13 22
M  V30 25 1 14 23
M  V30 26 1 16 24
M  V30 27 1 17 25
M  V30 28 1 18 26
M  V30 END BOND
M  V30 END CTAB
M  END
>  <Structure No>
1120

>  <LogS>
-6.253493517

>  <MMFF94 Energy>
70.306

$$$$
Compound 1121
Actelion Java MolfileCreator 2.0

  0  0  0  0  0  0              0 V3000
M  V30 BEGIN CTAB
M  V30 COUNTS 36 37 0 0 0
M  V30 BEGIN ATOM
M  V30 1 C 1.3426 -0.4737 0.3157 0
M  V30 2 C 1.5208 -1.7918 0.8188 0
M  V30 3 C 0.0168 0.006 0.0255 0
M  V30 4 C 2.509 0.3037 0.1099 0
M  V30 5 C 0.4257 -2.6313 0.9882 0
M  V30 6 C 2.8011 -2.2684 1.1468 0
M  V30 7 C -1.0765 -0.9298 0.0977 0
M  V30 8 C -0.2433 1.4903 -0.2902 0
M  V30 9 C 3.7758 -0.1864 0.4338 0
M  V30 10 C -0.8403 -2.2154 0.6181 0
M  V30 11 C 3.9212 -1.4651 0.9589 0
M  V30 12 C -2.5232 -0.6605 -0.3494 0
M  V30 13 C 0.1496 2.4226 0.8685 0
M  V30 14 C 0.3199 1.9399 -1.6532 0
M  V30 15 C -3.337 0.0945 0.7116 0
M  V30 16 C -2.6583 -0.067 -1.7665 0
M  V30 17 H 2.4817 1.2842 -0.322 0
M  V30 18 H 0.5526 -3.6343 1.3795 0
M  V30 19 H 2.9362 -3.2689 1.5411 0
M  V30 20 H -1.3195 1.6644 -0.3628 0
M  V30 21 H 4.6509 0.4293 0.2697 0
M  V30 22 H -1.6517 -2.9236 0.7359 0
M  V30 23 H 4.9055 -1.8397 1.2086 0
M  V30 24 H -3.0362 -1.6458 -0.4369 0
M  V30 25 H -0.3391 2.0821 1.8064 0
M  V30 26 H 1.2399 2.4683 1.0437 0
M  V30 27 H -0.2007 3.4554 0.6548 0
M  V30 28 H 0.5744 1.0662 -2.2904 0
M  V30 29 H 1.2156 2.5852 -1.5447 0
M  V30 30 H -0.4385 2.543 -2.1978 0
M  V30 31 H -3.3439 -0.486 1.6588 0
M  V30 32 H -4.3885 0.2077 0.3714 0
M  V30 33 H -2.9333 1.1 0.9332 0
M  V30 34 H -3.554 -0.4928 -2.2685 0
M  V30 35 H -2.8071 1.0312 -1.7601 0
M  V30 36 H -1.7733 -0.3198 -2.388 0
M  V30 END ATOM
M  V30 BEGIN BOND
M  V30 1 1 1 2
M  V30 2 1 1 3
M  V30 3 2 1 4
M  V30 4 1 2 5
M  V30 5 2 2 6
M  V30 6 2 3 7
M  V30 7 1 3 8
M  V30 8 1 4 9
M  V30 9 2 5 10
M  V30 10 1 6 11
M  V30 11 1 7 12
M  V30 12 1 8 13
M  V30 13 1 8 14
M  V30 14 1 12 15
M  V30 15 1 12 16
M  V30 16 1 7 10
M  V30 17 2 9 11
M  V30 18 1 4 17
M  V30 19 1 5 18
M  V30 20 1 6 19
M  V30 21 1 8 20
M  V30 22 1 9 21
M  V30 23 1 10 22
M  V30 24 1 11 23
M  V30 25 1 12 24
M  V30 26 1 13 25
M  V30 27 1 13 26
M  V30 28 1 13 27
M  V30 29 1 14 28
M  V30 30 1 14 29
M  V30 31 1 14 30
M  V30 32 1 15 31
M  V30 33 1 15 32
M  V30 34 1 15 33
M  V30 35 1 16 34
M  V30 36 1 16 35
M  V30 37 1 16 36
M  V30 END BOND
M  V30 END CTAB
M  END
>  <Structure No>
1121

>  <LogS>
-6.230113619

>  <MMFF94 Energy>
58.962

$$$$
Compound 1122
Actelion Java MolfileCreator 2.0

  0  0  0  0  0  0              0 V3000
M  V30 BEGIN CTAB
M  V30 COUNTS 47 50 0 0 0
M  V30 BEGIN ATOM
M  V30 1 O -6.8103 1.8393 -0.5595 0
M  V30 2 C -6.7901 0.7344 -1.1648 0
M  V30 3 N -5.7425 -0.1133 -1.1812 0
M  V30 4 N -7.8344 0.2404 -1.8458 0
M  V30 5 C -4.4432 0.0253 -0.5729 0
M  V30 6 C -6.2106 -1.1563 -1.9033 0
M  V30 7 N -7.4807 -0.9463 -2.3133 0
M  V30 8 C -3.753 -1.1039 -0.1135 0
M  V30 9 C -3.8376 1.2829 -0.4491 0
M  V30 10 C -2.4914 -0.9797 0.4737 0
M  V30 11 C -2.5751 1.4127 0.1357 0
M  V30 12 C -1.8715 0.2844 0.6207 0
M  V30 13 N -0.5499 0.4162 1.2362 0
M  V30 14 C 0.1692 1.7107 1.1022 0
M  V30 15 C 0.0784 -0.7936 1.8226 0
M  V30 16 C 1.5427 1.7809 1.7853 0
M  V30 17 C 1.3754 -0.5288 2.5794 0
M  V30 18 N 2.1519 0.4617 1.853 0
M  V30 19 C 3.2463 0.0754 0.9983 0
M  V30 20 C 4.2897 -0.715 1.5048 0
M  V30 21 C 3.287 0.4789 -0.347 0
M  V30 22 C 5.3531 -1.0964 0.6819 0
M  V30 23 C 4.3502 0.0963 -1.1701 0
M  V30 24 C 5.3942 -0.697 -0.6584 0
M  V30 25 O 6.4825 -1.1067 -1.4431 0
M  V30 26 C 6.6524 -0.7747 -2.8173 0
M  V30 27 H -8.7686 0.6853 -1.9856 0
M  V30 28 H -5.6418 -2.0456 -2.1418 0
M  V30 29 H -4.1972 -2.0875 -0.1954 0
M  V30 30 H -4.3276 2.1694 -0.8286 0
M  V30 31 H -2.0124 -1.8906 0.8009 0
M  V30 32 H -2.1644 2.4091 0.1909 0
M  V30 33 H -0.4435 2.5219 1.55 0
M  V30 34 H 0.301 1.9329 0.0211 0
M  V30 35 H -0.6271 -1.2723 2.5365 0
M  V30 36 H 0.2991 -1.513 1.0038 0
M  V30 37 H 1.4176 2.1699 2.8202 0
M  V30 38 H 2.2031 2.5004 1.2535 0
M  V30 39 H 1.9372 -1.4802 2.699 0
M  V30 40 H 1.1435 -0.1468 3.5982 0
M  V30 41 H 4.2879 -1.0236 2.5425 0
M  V30 42 H 2.4891 1.0769 -0.7663 0
M  V30 43 H 6.1517 -1.7037 1.0889 0
M  V30 44 H 4.3491 0.42 -2.2019 0
M  V30 45 H 7.5955 -1.2278 -3.1857 0
M  V30 46 H 6.716 0.3273 -2.9388 0
M  V30 47 H 5.8072 -1.1771 -3.4148 0
M  V30 END ATOM
M  V30 BEGIN BOND
M  V30 1 2 1 2
M  V30 2 1 2 3
M  V30 3 1 2 4
M  V30 4 1 3 5
M  V30 5 1 3 6
M  V30 6 1 4 7
M  V30 7 2 5 8
M  V30 8 1 5 9
M  V30 9 1 8 10
M  V30 10 2 9 11
M  V30 11 2 10 12
M  V30 12 1 12 13
M  V30 13 1 13 14
M  V30 14 1 13 15
M  V30 15 1 14 16
M  V30 16 1 15 17
M  V30 17 1 16 18
M  V30 18 1 18 19
M  V30 19 2 19 20
M  V30 20 1 19 21
M  V30 21 1 20 22
M  V30 22 2 21 23
M  V30 23 2 22 24
M  V30 24 1 24 25
M  V30 25 1 25 26
M  V30 26 2 6 7
M  V30 27 1 11 12
M  V30 28 1 17 18
M  V30 29 1 23 24
M  V30 30 1 4 27
M  V30 31 1 6 28
M  V30 32 1 8 29
M  V30 33 1 9 30
M  V30 34 1 10 31
M  V30 35 1 11 32
M  V30 36 1 14 33
M  V30 37 1 14 34
M  V30 38 1 15 35
M  V30 39 1 15 36
M  V30 40 1 16 37
M  V30 41 1 16 38
M  V30 42 1 17 39
M  V30 43 1 17 40
M  V30 44 1 20 41
M  V30 45 1 21 42
M  V30 46 1 22 43
M  V30 47 1 23 44
M  V30 48 1 26 45
M  V30 49 1 26 46
M  V30 50 1 26 47
M  V30 END BOND
M  V30 END CTAB
M  END
>  <Structure No>
1122

>  <LogS>
-6.488909265

>  <MMFF94 Energy>
131.26

$$$$
Compound 1123
Actelion Java MolfileCreator 2.0

  0  0  0  0  0  0              0 V3000
M  V30 BEGIN CTAB
M  V30 COUNTS 28 29 0 0 0
M  V30 BEGIN ATOM
M  V30 1 Cl -4.0997 3.0946 -1.4209 0
M  V30 2 C -3.9517 1.4626 -0.7824 0
M  V30 3 C -5.0788 0.7485 -0.3424 0
M  V30 4 C -2.6845 0.8694 -0.7253 0
M  V30 5 Cl -6.6874 1.4571 -0.3974 0
M  V30 6 C -4.9286 -0.5551 0.1412 0
M  V30 7 C -2.5282 -0.4331 -0.2173 0
M  V30 8 C -3.6633 -1.1451 0.1963 0
M  V30 9 N -1.2402 -1.0711 -0.1705 0
M  V30 10 C -0.0076 -0.3797 0.0833 0
M  V30 11 O -0.0219 0.7974 0.5362 0
M  V30 12 N 1.2393 -1.0671 -0.1025 0
M  V30 13 C 2.526 -0.4252 -0.0794 0
M  V30 14 C 2.7055 0.8805 -0.5733 0
M  V30 15 C 3.6412 -1.1366 0.3903 0
M  V30 16 C 3.9728 1.4717 -0.5608 0
M  V30 17 C 4.9071 -0.5427 0.4024 0
M  V30 18 C 5.0733 0.7631 -0.0689 0
M  V30 19 Cl 6.6623 1.5062 -0.0563 0
M  V30 20 H -1.831 1.4176 -1.1017 0
M  V30 21 H -5.7938 -1.1146 0.4741 0
M  V30 22 H -3.5646 -2.156 0.572 0
M  V30 23 H -1.2049 -2.1125 -0.2512 0
M  V30 24 H 1.2114 -2.1085 -0.1854 0
M  V30 25 H 1.8759 1.4345 -0.9921 0
M  V30 26 H 3.5263 -2.1492 0.7565 0
M  V30 27 H 4.0994 2.4772 -0.942 0
M  V30 28 H 5.7573 -1.0989 0.7764 0
M  V30 END ATOM
M  V30 BEGIN BOND
M  V30 1 1 1 2
M  V30 2 2 2 3
M  V30 3 1 2 4
M  V30 4 1 3 5
M  V30 5 1 3 6
M  V30 6 2 4 7
M  V30 7 2 6 8
M  V30 8 1 7 9
M  V30 9 1 9 10
M  V30 10 2 10 11
M  V30 11 1 10 12
M  V30 12 1 12 13
M  V30 13 2 13 14
M  V30 14 1 13 15
M  V30 15 1 14 16
M  V30 16 2 15 17
M  V30 17 2 16 18
M  V30 18 1 18 19
M  V30 19 1 7 8
M  V30 20 1 17 18
M  V30 21 1 4 20
M  V30 22 1 6 21
M  V30 23 1 8 22
M  V30 24 1 9 23
M  V30 25 1 12 24
M  V30 26 1 14 25
M  V30 27 1 15 26
M  V30 28 1 16 27
M  V30 29 1 17 28
M  V30 END BOND
M  V30 END CTAB
M  END
>  <Structure No>
1123

>  <LogS>
-6.45772642

>  <MMFF94 Energy>
-25.094

$$$$
Compound 1124
Actelion Java MolfileCreator 2.0

  0  0  0  0  0  0              0 V3000
M  V30 BEGIN CTAB
M  V30 COUNTS 55 55 0 0 0
M  V30 BEGIN ATOM
M  V30 1 O 1.1815 0.0787 -0.1574 0
M  V30 2 O 1.6462 -0.6605 0.8415 0
M  V30 3 C -0.2065 0.2383 0.0357 0
M  V30 4 C 2.6257 -1.5365 0.3149 0
M  V30 5 O -0.7714 -1.0503 0.2463 0
M  V30 6 C -0.4777 1.1671 1.2555 0
M  V30 7 C -0.7894 0.874 -1.2513 0
M  V30 8 C 3.8061 -0.7387 -0.2789 0
M  V30 9 C 2.0181 -2.4722 -0.7534 0
M  V30 10 C 3.144 -2.3917 1.4808 0
M  V30 11 O -2.085 -0.9236 0.3831 0
M  V30 12 C 0.0221 2.6314 1.0876 0
M  V30 13 C -0.3126 2.318 -1.5156 0 CFG=1
M  V30 14 C -2.6915 -2.1008 -0.1177 0
M  V30 15 C -0.4509 3.2295 -0.2711 0
M  V30 16 C -0.5994 3.4784 2.2249 0
M  V30 17 C 1.5573 2.737 1.252 0
M  V30 18 C 1.0618 2.3941 -2.2021 0
M  V30 19 C -2.3492 -2.3146 -1.6088 0
M  V30 20 C -2.2615 -3.3288 0.7126 0
M  V30 21 C -4.2112 -1.9214 0.017 0
M  V30 22 H -1.5758 1.1987 1.4301 0
M  V30 23 H -0.0356 0.7194 2.1727 0
M  V30 24 H -0.5448 0.2302 -2.1247 0
M  V30 25 H -1.8988 0.9066 -1.1812 0
M  V30 26 H 4.6264 -1.4224 -0.5873 0
M  V30 27 H 3.4874 -0.163 -1.1739 0
M  V30 28 H 4.2027 -0.0229 0.4728 0
M  V30 29 H 2.7728 -3.2098 -1.1018 0
M  V30 30 H 1.6693 -1.8969 -1.6375 0
M  V30 31 H 1.1518 -3.0258 -0.3333 0
M  V30 32 H 3.5839 -1.7433 2.2692 0
M  V30 33 H 2.3102 -2.969 1.9356 0
M  V30 34 H 3.9223 -3.1066 1.136 0
M  V30 35 H -1.0161 2.7361 -2.2719 0
M  V30 36 H -1.5352 3.4693 -0.1847 0
M  V30 37 H 0.0547 4.203 -0.4563 0
M  V30 38 H -1.7102 3.4524 2.1851 0
M  V30 39 H -0.2806 4.5407 2.1452 0
M  V30 40 H -0.2856 3.0936 3.2199 0
M  V30 41 H 1.8707 2.3303 2.2377 0
M  V30 42 H 2.1188 2.1908 0.4806 0
M  V30 43 H 1.8815 3.7989 1.2002 0
M  V30 44 H 1.0009 1.9213 -3.2056 0
M  V30 45 H 1.3614 3.4538 -2.3465 0
M  V30 46 H 1.8587 1.8759 -1.6451 0
M  V30 47 H -2.6328 -1.419 -2.2018 0
M  V30 48 H -1.2623 -2.4976 -1.7479 0
M  V30 49 H -2.8971 -3.1929 -2.0135 0
M  V30 50 H -2.4653 -3.1539 1.7909 0
M  V30 51 H -2.8168 -4.2355 0.3884 0
M  V30 52 H -1.1764 -3.5313 0.5918 0
M  V30 53 H -4.4881 -1.7619 1.0815 0
M  V30 54 H -4.5471 -1.0344 -0.5624 0
M  V30 55 H -4.7536 -2.8159 -0.3591 0
M  V30 END ATOM
M  V30 BEGIN BOND
M  V30 1 1 1 2
M  V30 2 1 1 3
M  V30 3 1 2 4
M  V30 4 1 3 5
M  V30 5 1 3 6
M  V30 6 1 3 7
M  V30 7 1 4 8
M  V30 8 1 4 9
M  V30 9 1 4 10
M  V30 10 1 5 11
M  V30 11 1 6 12
M  V30 12 1 7 13
M  V30 13 1 11 14
M  V30 14 1 12 15
M  V30 15 1 12 16
M  V30 16 1 12 17
M  V30 17 1 13 18
M  V30 18 1 14 19
M  V30 19 1 14 20
M  V30 20 1 14 21
M  V30 21 1 13 15
M  V30 22 1 6 22
M  V30 23 1 6 23
M  V30 24 1 7 24
M  V30 25 1 7 25
M  V30 26 1 8 26
M  V30 27 1 8 27
M  V30 28 1 8 28
M  V30 29 1 9 29
M  V30 30 1 9 30
M  V30 31 1 9 31
M  V30 32 1 10 32
M  V30 33 1 10 33
M  V30 34 1 10 34
M  V30 35 1 13 35
M  V30 36 1 15 36
M  V30 37 1 15 37
M  V30 38 1 16 38
M  V30 39 1 16 39
M  V30 40 1 16 40
M  V30 41 1 17 41
M  V30 42 1 17 42
M  V30 43 1 17 43
M  V30 44 1 18 44
M  V30 45 1 18 45
M  V30 46 1 18 46
M  V30 47 1 19 47
M  V30 48 1 19 48
M  V30 49 1 19 49
M  V30 50 1 20 50
M  V30 51 1 20 51
M  V30 52 1 20 52
M  V30 53 1 21 53
M  V30 54 1 21 54
M  V30 55 1 21 55
M  V30 END BOND
M  V30 BEGIN COLLECTION
M  V30 MDLV30/STEABS ATOMS=(1 13)
M  V30 END COLLECTION
M  V30 END CTAB
M  END
>  <Structure No>
1124

>  <LogS>
-6.480660768

>  <MMFF94 Energy>
76.217

$$$$
Compound 1125
Actelion Java MolfileCreator 2.0

  0  0  0  0  0  0              0 V3000
M  V30 BEGIN CTAB
M  V30 COUNTS 39 40 0 0 0
M  V30 BEGIN ATOM
M  V30 1 C 0.0792 1.9827 0.2377 0
M  V30 2 C 0.4507 2.5712 1.3897 0
M  V30 3 C 0.6971 0.679 -0.2454 0 CFG=2
M  V30 4 C -1.0672 2.5676 -0.5537 0
M  V30 5 C 0.5601 -0.4881 0.7405 0 CFG=2
M  V30 6 C 2.2253 0.5681 -0.185 0
M  V30 7 C -2.3697 1.7856 -0.3187 0
M  V30 8 C 2.0966 -0.699 0.6822 0
M  V30 9 C -0.3452 -1.6345 0.2458 0
M  V30 10 C -2.5214 0.6476 -1.301 0
M  V30 11 C 2.7799 -0.5742 2.0555 0
M  V30 12 C 2.5845 -1.9593 -0.0631 0
M  V30 13 C -1.836 -1.2427 0.2627 0
M  V30 14 C -2.2901 -0.6667 -1.0684 0
M  V30 15 C -2.4708 -1.6217 -2.2219 0
M  V30 16 H -0.0361 3.4773 1.7375 0
M  V30 17 H 1.2363 2.1629 2.01 0
M  V30 18 H 0.3451 0.4097 -1.2667 0
M  V30 19 H -0.8062 2.5847 -1.6348 0
M  V30 20 H -1.2325 3.6291 -0.263 0
M  V30 21 H 0.2346 -0.1552 1.7529 0
M  V30 22 H 2.7186 1.4167 0.3366 0
M  V30 23 H 2.6697 0.388 -1.1888 0
M  V30 24 H -2.4678 1.4766 0.7399 0
M  V30 25 H -3.2192 2.4785 -0.5011 0
M  V30 26 H -0.2041 -2.4934 0.9371 0
M  V30 27 H -0.0547 -1.978 -0.769 0
M  V30 28 H -2.8128 0.9431 -2.3067 0
M  V30 29 H 3.8822 -0.5231 1.9301 0
M  V30 30 H 2.4528 0.3344 2.5989 0
M  V30 31 H 2.532 -1.4585 2.6803 0
M  V30 32 H 2.1903 -2.0011 -1.1003 0
M  V30 33 H 2.2704 -2.8741 0.4822 0
M  V30 34 H 3.6933 -1.954 -0.1292 0
M  V30 35 H -2.4313 -2.1636 0.4462 0
M  V30 36 H -2.0634 -0.5886 1.1256 0
M  V30 37 H -3.5177 -1.5749 -2.59 0
M  V30 38 H -1.7801 -1.3488 -3.0479 0
M  V30 39 H -2.255 -2.6683 -1.9195 0
M  V30 END ATOM
M  V30 BEGIN BOND
M  V30 1 2 1 2
M  V30 2 1 1 3
M  V30 3 1 1 4
M  V30 4 1 3 5
M  V30 5 1 3 6
M  V30 6 1 4 7
M  V30 7 1 5 8
M  V30 8 1 5 9
M  V30 9 1 7 10
M  V30 10 1 8 11
M  V30 11 1 8 12
M  V30 12 1 9 13
M  V30 13 2 10 14
M  V30 14 1 14 15
M  V30 15 1 6 8
M  V30 16 1 13 14
M  V30 17 1 2 16
M  V30 18 1 2 17
M  V30 19 1 3 18
M  V30 20 1 4 19
M  V30 21 1 4 20
M  V30 22 1 5 21
M  V30 23 1 6 22
M  V30 24 1 6 23
M  V30 25 1 7 24
M  V30 26 1 7 25
M  V30 27 1 9 26
M  V30 28 1 9 27
M  V30 29 1 10 28
M  V30 30 1 11 29
M  V30 31 1 11 30
M  V30 32 1 11 31
M  V30 33 1 12 32
M  V30 34 1 12 33
M  V30 35 1 12 34
M  V30 36 1 13 35
M  V30 37 1 13 36
M  V30 38 1 15 37
M  V30 39 1 15 38
M  V30 40 1 15 39
M  V30 END BOND
M  V30 BEGIN COLLECTION
M  V30 MDLV30/STEABS ATOMS=(2 3 5)
M  V30 END COLLECTION
M  V30 END CTAB
M  END
>  <Structure No>
1125

>  <LogS>
-6.337261665

>  <MMFF94 Energy>
50.103

$$$$
Compound 1126
Actelion Java MolfileCreator 2.0

  0  0  0  0  0  0              0 V3000
M  V30 BEGIN CTAB
M  V30 COUNTS 40 41 0 0 0
M  V30 BEGIN ATOM
M  V30 1 C -1.5045 0.1582 0.0 0
M  V30 2 C -2.3767 0.5662 -1.0405 0
M  V30 3 C -1.3694 1.0305 1.1097 0
M  V30 4 C -0.6853 -1.1623 -0.0905 0
M  V30 5 C -3.0894 1.7657 -0.9594 0
M  V30 6 C -2.0847 2.2285 1.1815 0
M  V30 7 C 0.7597 -0.9035 -0.7434 0
M  V30 8 C -0.5651 -1.7779 1.3392 0
M  V30 9 C -1.4907 -2.2259 -0.9002 0
M  V30 10 C -2.9464 2.5939 0.1508 0
M  V30 11 C 1.575 0.1281 0.0898 0
M  V30 12 C 0.6397 -0.382 -2.2101 0
M  V30 13 C 1.5689 -2.2317 -0.8729 0
M  V30 14 C 1.4363 1.5221 -0.1299 0
M  V30 15 C 2.4473 -0.2785 1.1309 0
M  V30 16 C 2.148 2.4508 0.6335 0
M  V30 17 C 3.1564 0.6576 1.8885 0
M  V30 18 C 3.0098 2.0196 1.6384 0
M  V30 19 H -2.509 -0.0233 -1.9343 0
M  V30 20 H -0.6934 0.8115 1.9221 0
M  V30 21 H -3.7503 2.0564 -1.7658 0
M  V30 22 H -1.9626 2.8795 2.0377 0
M  V30 23 H 0.1351 -1.2247 1.9912 0
M  V30 24 H -0.2172 -2.8313 1.3165 0
M  V30 25 H -1.5584 -1.7848 1.8392 0
M  V30 26 H -1.5509 -1.9974 -1.9804 0
M  V30 27 H -2.5294 -2.3015 -0.5106 0
M  V30 28 H -1.0386 -3.2365 -0.8152 0
M  V30 29 H -3.4971 3.5239 0.2083 0
M  V30 30 H 1.6324 -0.0441 -2.58 0
M  V30 31 H -0.063 0.4649 -2.3122 0
M  V30 32 H 0.2945 -1.1703 -2.9105 0
M  V30 33 H 1.1195 -2.9156 -1.6233 0
M  V30 34 H 2.6073 -2.0189 -1.2086 0
M  V30 35 H 1.6296 -2.7991 0.0741 0
M  V30 36 H 0.7599 1.9125 -0.8749 0
M  V30 37 H 2.5821 -1.3182 1.3848 0
M  V30 38 H 2.0232 3.5101 0.449 0
M  V30 39 H 3.8173 0.3237 2.678 0
M  V30 40 H 3.5578 2.7417 2.2298 0
M  V30 END ATOM
M  V30 BEGIN BOND
M  V30 1 2 1 2
M  V30 2 1 1 3
M  V30 3 1 1 4
M  V30 4 1 2 5
M  V30 5 2 3 6
M  V30 6 1 4 7
M  V30 7 1 4 8
M  V30 8 1 4 9
M  V30 9 2 5 10
M  V30 10 1 7 11
M  V30 11 1 7 12
M  V30 12 1 7 13
M  V30 13 2 11 14
M  V30 14 1 11 15
M  V30 15 1 14 16
M  V30 16 2 15 17
M  V30 17 2 16 18
M  V30 18 1 6 10
M  V30 19 1 17 18
M  V30 20 1 2 19
M  V30 21 1 3 20
M  V30 22 1 5 21
M  V30 23 1 6 22
M  V30 24 1 8 23
M  V30 25 1 8 24
M  V30 26 1 8 25
M  V30 27 1 9 26
M  V30 28 1 9 27
M  V30 29 1 9 28
M  V30 30 1 10 29
M  V30 31 1 12 30
M  V30 32 1 12 31
M  V30 33 1 12 32
M  V30 34 1 13 33
M  V30 35 1 13 34
M  V30 36 1 13 35
M  V30 37 1 14 36
M  V30 38 1 15 37
M  V30 39 1 16 38
M  V30 40 1 17 39
M  V30 41 1 18 40
M  V30 END BOND
M  V30 END CTAB
M  END
>  <Structure No>
1126

>  <LogS>
-6.474168897

>  <MMFF94 Energy>
85.485

$$$$
Compound 1127
Actelion Java MolfileCreator 2.0

  0  0  0  0  0  0              0 V3000
M  V30 BEGIN CTAB
M  V30 COUNTS 32 34 0 0 0
M  V30 BEGIN ATOM
M  V30 1 O -0.7976 -0.4785 0.0 0
M  V30 2 C 0.6004 -0.5353 0.1003 0
M  V30 3 C -1.5522 0.7264 -0.0969 0
M  V30 4 C 1.4045 0.6212 0.1146 0
M  V30 5 C 1.206 -1.7939 0.1889 0
M  V30 6 C -3.0112 0.3875 -0.187 0
M  V30 7 C 2.8003 0.5125 0.2166 0
M  V30 8 C 2.5944 -1.913 0.2908 0
M  V30 9 C -3.6073 0.1499 -1.4366 0
M  V30 10 C -3.7771 0.2383 0.9811 0
M  V30 11 C 3.4007 -0.7666 0.3056 0
M  V30 12 C 3.6087 1.6606 0.2314 0
M  V30 13 C -4.9583 -0.2027 -1.5164 0
M  V30 14 C -5.1278 -0.1145 0.8971 0
M  V30 15 C 4.7965 -0.8739 0.4075 0
M  V30 16 C 4.9977 1.5399 0.3334 0
M  V30 17 C -5.7186 -0.3324 -0.3507 0
M  V30 18 C 5.5895 0.2771 0.4213 0
M  V30 19 H -1.239 1.2948 -1.0 0
M  V30 20 H -1.3652 1.3605 0.7973 0
M  V30 21 H 0.9528 1.6026 0.047 0
M  V30 22 H 0.5945 -2.6874 0.1786 0
M  V30 23 H 3.0366 -2.8999 0.358 0
M  V30 24 H -3.0268 0.2373 -2.3469 0
M  V30 25 H -3.3289 0.3945 1.9548 0
M  V30 26 H 3.1677 2.6481 0.1644 0
M  V30 27 H -5.4149 -0.3794 -2.4818 0
M  V30 28 H -5.7156 -0.2227 1.7996 0
M  V30 29 H 5.2725 -1.845 0.4766 0
M  V30 30 H 5.617 2.4276 0.3445 0
M  V30 31 H -6.7637 -0.6068 -0.414 0
M  V30 32 H 6.6655 0.1901 0.5001 0
M  V30 END ATOM
M  V30 BEGIN BOND
M  V30 1 1 1 2
M  V30 2 1 1 3
M  V30 3 2 2 4
M  V30 4 1 2 5
M  V30 5 1 3 6
M  V30 6 1 4 7
M  V30 7 2 5 8
M  V30 8 2 6 9
M  V30 9 1 6 10
M  V30 10 1 7 11
M  V30 11 2 7 12
M  V30 12 1 9 13
M  V30 13 2 10 14
M  V30 14 2 11 15
M  V30 15 1 12 16
M  V30 16 2 13 17
M  V30 17 1 15 18
M  V30 18 1 8 11
M  V30 19 1 14 17
M  V30 20 2 16 18
M  V30 21 1 3 19
M  V30 22 1 3 20
M  V30 23 1 4 21
M  V30 24 1 5 22
M  V30 25 1 8 23
M  V30 26 1 9 24
M  V30 27 1 10 25
M  V30 28 1 12 26
M  V30 29 1 13 27
M  V30 30 1 14 28
M  V30 31 1 15 29
M  V30 32 1 16 30
M  V30 33 1 17 31
M  V30 34 1 18 32
M  V30 END BOND
M  V30 END CTAB
M  END
>  <Structure No>
1127

>  <LogS>
-6.477673979

>  <MMFF94 Energy>
58.862

$$$$
Compound 1128
Actelion Java MolfileCreator 2.0

  0  0  0  0  0  0              0 V3000
M  V30 BEGIN CTAB
M  V30 COUNTS 35 37 0 0 0
M  V30 BEGIN ATOM
M  V30 1 O 7.2073 -1.2119 -1.2119 0
M  V30 2 N 5.9747 -1.373 -1.3289 0 CHG=1
M  V30 3 O 5.51 -2.2784 -2.2552 0 CHG=-1
M  V30 4 C 5.0556 -0.6257 -0.5112 0
M  V30 5 C 3.668 -0.8125 -0.6472 0
M  V30 6 C 5.528 0.2997 0.4367 0
M  V30 7 C 2.7627 -0.0786 0.1346 0
M  V30 8 C 4.632 1.0134 1.2354 0
M  V30 9 N 1.3528 -0.3148 -0.0155 0
M  V30 10 C 3.2564 0.8224 1.0929 0
M  V30 11 C 0.3519 0.7173 0.0464 0
M  V30 12 O 0.6864 1.9197 0.2271 0
M  V30 13 C -1.0828 0.3882 -0.0941 0
M  V30 14 C -1.543 -0.4836 -1.1023 0
M  V30 15 C -2.0075 0.9815 0.7812 0
M  V30 16 O -0.6513 -1.0261 -2.0276 0
M  V30 17 C -2.9087 -0.7869 -1.1971 0
M  V30 18 C -3.3743 0.6851 0.6845 0
M  V30 19 C -3.8284 -0.211 -0.3106 0
M  V30 20 C -4.2971 1.2673 1.5682 0
M  V30 21 C -5.1969 -0.5092 -0.4051 0
M  V30 22 C -5.6571 0.9618 1.4642 0
M  V30 23 C -6.1055 0.0764 0.4809 0
M  V30 24 H 3.2833 -1.5213 -1.3694 0
M  V30 25 H 6.5897 0.4646 0.5669 0
M  V30 26 H 5.0057 1.7103 1.9746 0
M  V30 27 H 1.0524 -1.2908 -0.2343 0
M  V30 28 H 2.5846 1.3571 1.7505 0
M  V30 29 H -1.6579 1.6623 1.5496 0
M  V30 30 H -0.9616 -1.6481 -2.7649 0
M  V30 31 H -3.2513 -1.4627 -1.9719 0
M  V30 32 H -3.9676 1.9558 2.3372 0
M  V30 33 H -5.5629 -1.1925 -1.1621 0
M  V30 34 H -6.3652 1.4126 2.1476 0
M  V30 35 H -7.1599 -0.1561 0.405 0
M  V30 END ATOM
M  V30 BEGIN BOND
M  V30 1 2 1 2
M  V30 2 1 2 3
M  V30 3 1 2 4
M  V30 4 2 4 5
M  V30 5 1 4 6
M  V30 6 1 5 7
M  V30 7 2 6 8
M  V30 8 1 7 9
M  V30 9 2 7 10
M  V30 10 1 9 11
M  V30 11 2 11 12
M  V30 12 1 11 13
M  V30 13 1 13 14
M  V30 14 2 13 15
M  V30 15 1 14 16
M  V30 16 2 14 17
M  V30 17 1 15 18
M  V30 18 1 17 19
M  V30 19 2 18 20
M  V30 20 2 19 21
M  V30 21 1 20 22
M  V30 22 1 21 23
M  V30 23 1 8 10
M  V30 24 1 18 19
M  V30 25 2 22 23
M  V30 26 1 5 24
M  V30 27 1 6 25
M  V30 28 1 8 26
M  V30 29 1 9 27
M  V30 30 1 10 28
M  V30 31 1 15 29
M  V30 32 1 16 30
M  V30 33 1 17 31
M  V30 34 1 20 32
M  V30 35 1 21 33
M  V30 36 1 22 34
M  V30 37 1 23 35
M  V30 END BOND
M  V30 END CTAB
M  END
>  <Structure No>
1128

>  <LogS>
-6.643865624

>  <MMFF94 Energy>
65.19

$$$$
Compound 1129
Actelion Java MolfileCreator 2.0

  0  0  0  0  0  0              0 V3000
M  V30 BEGIN CTAB
M  V30 COUNTS 30 31 0 0 0
M  V30 BEGIN ATOM
M  V30 1 Cl 3.7508 1.8306 2.7031 0
M  V30 2 C 3.7673 0.71 1.3495 0
M  V30 3 C 2.5669 0.2466 0.7962 0
M  V30 4 C 4.9919 0.2883 0.8269 0
M  V30 5 O 1.3524 0.6787 1.353 0
M  V30 6 C 2.6105 -0.6674 -0.272 0
M  V30 7 C 5.0389 -0.6039 -0.2493 0
M  V30 8 C 0.146 0.8109 0.6555 0
M  V30 9 C 3.8384 -1.0891 -0.8152 0
M  V30 10 Cl 6.6229 -1.1442 -0.7945 0
M  V30 11 O 0.137 0.8846 -0.6043 0
M  V30 12 O -1.0368 0.9705 1.3869 0
M  V30 13 N 3.8453 -2.0097 -1.9222 0 CHG=1
M  V30 14 C -2.3346 0.8479 0.8652 0
M  V30 15 O 2.8913 -2.7977 -2.0895 0
M  V30 16 O 4.8139 -1.9312 -2.8957 0 CHG=-1
M  V30 17 C -3.3732 1.5789 1.4561 0
M  V30 18 C -2.6263 -0.0191 -0.2033 0
M  V30 19 Cl -3.0499 2.6535 2.8085 0
M  V30 20 C -4.6755 1.4768 0.9611 0
M  V30 21 C -3.937 -0.1408 -0.7007 0
M  V30 22 C -4.9652 0.6314 -0.1149 0
M  V30 23 N -4.2012 -1.0487 -1.7864 0 CHG=1
M  V30 24 Cl -6.6149 0.6243 -0.7293 0
M  V30 25 O -3.2969 -1.3359 -2.5981 0
M  V30 26 O -5.3937 -1.7305 -1.8592 0 CHG=-1
M  V30 27 H 5.9135 0.6487 1.2672 0
M  V30 28 H 1.6895 -1.0653 -0.676 0
M  V30 29 H -1.8435 -0.6365 -0.6226 0
M  V30 30 H -5.4657 2.0661 1.4099 0
M  V30 END ATOM
M  V30 BEGIN BOND
M  V30 1 1 1 2
M  V30 2 2 2 3
M  V30 3 1 2 4
M  V30 4 1 3 5
M  V30 5 1 3 6
M  V30 6 2 4 7
M  V30 7 1 5 8
M  V30 8 2 6 9
M  V30 9 1 7 10
M  V30 10 2 8 11
M  V30 11 1 8 12
M  V30 12 1 9 13
M  V30 13 1 12 14
M  V30 14 2 13 15
M  V30 15 1 13 16
M  V30 16 2 14 17
M  V30 17 1 14 18
M  V30 18 1 17 19
M  V30 19 1 17 20
M  V30 20 2 18 21
M  V30 21 2 20 22
M  V30 22 1 21 23
M  V30 23 1 22 24
M  V30 24 2 23 25
M  V30 25 1 23 26
M  V30 26 1 7 9
M  V30 27 1 21 22
M  V30 28 1 4 27
M  V30 29 1 6 28
M  V30 30 1 18 29
M  V30 31 1 20 30
M  V30 END BOND
M  V30 END CTAB
M  END
>  <Structure No>
1129

>  <LogS>
-6.812907461

>  <MMFF94 Energy>
71.51

$$$$
Compound 1130
Actelion Java MolfileCreator 2.0

  0  0  0  0  0  0              0 V3000
M  V30 BEGIN CTAB
M  V30 COUNTS 40 42 0 0 0
M  V30 BEGIN ATOM
M  V30 1 C 1.1981 -0.6388 0.5589 0
M  V30 2 C 0.0416 -0.6838 1.3542 0
M  V30 3 C 1.0553 -0.4899 -0.8328 0
M  V30 4 C 2.5631 -0.6716 1.2259 0 CFG=1
M  V30 5 C -1.2272 -0.6137 0.7736 0
M  V30 6 C -0.2132 -0.4202 -1.4134 0
M  V30 7 C 3.5621 -1.4709 0.4125 0
M  V30 8 C 3.0619 0.7537 1.5485 0
M  V30 9 C -1.3722 -0.4965 -0.622 0
M  V30 10 C 4.5825 -0.9049 -0.2542 0
M  V30 11 C 3.7427 1.4028 0.3409 0
M  V30 12 C -2.7344 -0.3725 -1.2955 0 CFG=1
M  V30 13 C 4.9321 0.5554 -0.121 0
M  V30 14 C -3.8502 -1.2144 -0.6309 0
M  V30 15 C -3.1649 1.0979 -1.4377 0
M  V30 16 C -4.5832 -0.5015 0.482 0
M  V30 17 C -3.5566 1.7061 -0.0871 0
M  V30 18 C -4.5098 0.8252 0.6762 0
M  V30 19 H 0.1214 -0.7665 2.4313 0
M  V30 20 H 1.9236 -0.4249 -1.4752 0
M  V30 21 H 2.4608 -1.207 2.1961 0
M  V30 22 H -2.0881 -0.6459 1.4246 0
M  V30 23 H -0.291 -0.2994 -2.4869 0
M  V30 24 H 3.3957 -2.5384 0.3012 0
M  V30 25 H 3.7941 0.702 2.3849 0
M  V30 26 H 2.2192 1.3936 1.8911 0
M  V30 27 H 5.2434 -1.5404 -0.8356 0
M  V30 28 H 4.1026 2.4162 0.6216 0
M  V30 29 H 3.0155 1.523 -0.4896 0
M  V30 30 H -2.6255 -0.7754 -2.328 0
M  V30 31 H 5.7615 0.6528 0.6121 0
M  V30 32 H 5.293 0.935 -1.1005 0
M  V30 33 H -3.4344 -2.1707 -0.2469 0
M  V30 34 H -4.605 -1.4779 -1.4033 0
M  V30 35 H -2.3458 1.6969 -1.8922 0
M  V30 36 H -4.0388 1.1546 -2.1241 0
M  V30 37 H -5.2675 -1.0804 1.0947 0
M  V30 38 H -4.0341 2.6943 -0.258 0
M  V30 39 H -2.6479 1.8722 0.5295 0
M  V30 40 H -5.0869 1.269 1.4818 0
M  V30 END ATOM
M  V30 BEGIN BOND
M  V30 1 2 1 2
M  V30 2 1 1 3
M  V30 3 1 1 4
M  V30 4 1 2 5
M  V30 5 2 3 6
M  V30 6 1 4 7
M  V30 7 1 4 8
M  V30 8 2 5 9
M  V30 9 2 7 10
M  V30 10 1 8 11
M  V30 11 1 9 12
M  V30 12 1 10 13
M  V30 13 1 12 14
M  V30 14 1 12 15
M  V30 15 1 14 16
M  V30 16 1 15 17
M  V30 17 2 16 18
M  V30 18 1 6 9
M  V30 19 1 11 13
M  V30 20 1 17 18
M  V30 21 1 2 19
M  V30 22 1 3 20
M  V30 23 1 4 21
M  V30 24 1 5 22
M  V30 25 1 6 23
M  V30 26 1 7 24
M  V30 27 1 8 25
M  V30 28 1 8 26
M  V30 29 1 10 27
M  V30 30 1 11 28
M  V30 31 1 11 29
M  V30 32 1 12 30
M  V30 33 1 13 31
M  V30 34 1 13 32
M  V30 35 1 14 33
M  V30 36 1 14 34
M  V30 37 1 15 35
M  V30 38 1 15 36
M  V30 39 1 16 37
M  V30 40 1 17 38
M  V30 41 1 17 39
M  V30 42 1 18 40
M  V30 END BOND
M  V30 BEGIN COLLECTION
M  V30 MDLV30/STEABS ATOMS=(2 4 12)
M  V30 END COLLECTION
M  V30 END CTAB
M  END
>  <Structure No>
1130

>  <LogS>
-6.591929049

>  <MMFF94 Energy>
49.004

$$$$
Compound 1131
Actelion Java MolfileCreator 2.0

  0  0  0  0  0  0              0 V3000
M  V30 BEGIN CTAB
M  V30 COUNTS 55 54 0 0 0
M  V30 BEGIN ATOM
M  V30 1 O 8.4948 0.5438 -0.3884 0
M  V30 2 C 7.475 0.8821 0.5119 0
M  V30 3 C 6.2135 1.3009 -0.2524 0
M  V30 4 C 5.1016 1.8305 0.6707 0
M  V30 5 C 4.5593 0.8064 1.6878 0
M  V30 6 C 4.0082 -0.4971 1.0758 0
M  V30 7 C 2.895 -0.3055 0.0302 0
M  V30 8 C 1.6357 0.3569 0.6147 0
M  V30 9 C 0.4938 0.4309 -0.4099 0
M  V30 10 C -0.039 -0.9286 -0.7753 0
M  V30 11 C -0.7396 -1.6667 0.0989 0
M  V30 12 C -1.2851 -3.0204 -0.2658 0
M  V30 13 C -2.3915 -2.9553 -1.3349 0
M  V30 14 C -3.7587 -2.4966 -0.7942 0
M  V30 15 C -3.8363 -0.9805 -0.5582 0
M  V30 16 C -5.274 -0.5434 -0.2519 0
M  V30 17 C -5.3467 0.9657 0.0096 0
M  V30 18 C -6.7842 1.4029 0.3141 0
M  V30 19 C -6.8601 2.9043 0.5756 0
M  V30 20 H 8.87 1.3983 -0.7276 0
M  V30 21 H 7.8123 1.7026 1.186 0
M  V30 22 H 7.2572 -0.0094 1.1355 0
M  V30 23 H 5.8426 0.4507 -0.8623 0
M  V30 24 H 6.4829 2.1146 -0.9606 0
M  V30 25 H 5.4911 2.7078 1.2321 0
M  V30 26 H 4.265 2.2087 0.0458 0
M  V30 27 H 5.3629 0.5457 2.4086 0
M  V30 28 H 3.7632 1.2935 2.2899 0
M  V30 29 H 4.8413 -1.067 0.6126 0
M  V30 30 H 3.6176 -1.1325 1.9004 0
M  V30 31 H 3.2713 0.2853 -0.8312 0
M  V30 32 H 2.629 -1.3121 -0.3588 0
M  V30 33 H 1.8775 1.396 0.9229 0
M  V30 34 H 1.2987 -0.1956 1.5186 0
M  V30 35 H -0.3344 1.0461 0.0048 0
M  V30 36 H 0.8563 0.94 -1.3292 0
M  V30 37 H 0.1312 -1.2979 -1.7827 0
M  V30 38 H -0.9048 -1.2975 1.1075 0
M  V30 39 H -1.6747 -3.5183 0.6482 0
M  V30 40 H -0.4488 -3.6461 -0.647 0
M  V30 41 H -2.0799 -2.3207 -2.1928 0
M  V30 42 H -2.522 -3.9838 -1.7367 0
M  V30 43 H -4.0003 -3.0393 0.1457 0
M  V30 44 H -4.5281 -2.7778 -1.5469 0
M  V30 45 H -3.4751 -0.4422 -1.4621 0
M  V30 46 H -3.194 -0.704 0.3029 0
M  V30 47 H -5.9286 -0.7981 -1.1147 0
M  V30 48 H -5.6414 -1.0907 0.6444 0
M  V30 49 H -4.694 1.2216 0.8735 0
M  V30 50 H -4.9778 1.5127 -0.8862 0
M  V30 51 H -7.1586 0.8624 1.2108 0
M  V30 52 H -7.4422 1.1544 -0.5471 0
M  V30 53 H -7.9109 3.1913 0.7927 0
M  V30 54 H -6.2302 3.1763 1.4494 0
M  V30 55 H -6.5147 3.4695 -0.3161 0
M  V30 END ATOM
M  V30 BEGIN BOND
M  V30 1 1 1 2
M  V30 2 1 2 3
M  V30 3 1 3 4
M  V30 4 1 4 5
M  V30 5 1 5 6
M  V30 6 1 6 7
M  V30 7 1 7 8
M  V30 8 1 8 9
M  V30 9 1 9 10
M  V30 10 2 10 11
M  V30 11 1 11 12
M  V30 12 1 12 13
M  V30 13 1 13 14
M  V30 14 1 14 15
M  V30 15 1 15 16
M  V30 16 1 16 17
M  V30 17 1 17 18
M  V30 18 1 18 19
M  V30 19 1 1 20
M  V30 20 1 2 21
M  V30 21 1 2 22
M  V30 22 1 3 23
M  V30 23 1 3 24
M  V30 24 1 4 25
M  V30 25 1 4 26
M  V30 26 1 5 27
M  V30 27 1 5 28
M  V30 28 1 6 29
M  V30 29 1 6 30
M  V30 30 1 7 31
M  V30 31 1 7 32
M  V30 32 1 8 33
M  V30 33 1 8 34
M  V30 34 1 9 35
M  V30 35 1 9 36
M  V30 36 1 10 37
M  V30 37 1 11 38
M  V30 38 1 12 39
M  V30 39 1 12 40
M  V30 40 1 13 41
M  V30 41 1 13 42
M  V30 42 1 14 43
M  V30 43 1 14 44
M  V30 44 1 15 45
M  V30 45 1 15 46
M  V30 46 1 16 47
M  V30 47 1 16 48
M  V30 48 1 17 49
M  V30 49 1 17 50
M  V30 50 1 18 51
M  V30 51 1 18 52
M  V30 52 1 19 53
M  V30 53 1 19 54
M  V30 54 1 19 55
M  V30 END BOND
M  V30 END CTAB
M  END
>  <Structure No>
1131

>  <LogS>
-6.785897843

>  <MMFF94 Energy>
4.3774

$$$$
Compound 1132
Actelion Java MolfileCreator 2.0

  0  0  0  0  0  0              0 V3000
M  V30 BEGIN CTAB
M  V30 COUNTS 25 25 0 0 0
M  V30 BEGIN ATOM
M  V30 1 O 4.3937 0.0 -0.2349 0
M  V30 2 C 3.0034 0.0041 -0.1475 0
M  V30 3 C 2.3313 1.2001 0.1048 0
M  V30 4 C 2.2743 -1.1768 -0.3098 0
M  V30 5 C 0.9363 1.2233 0.1959 0
M  V30 6 C 0.8801 -1.1613 -0.22 0
M  V30 7 C 0.1773 0.0386 0.0348 0
M  V30 8 C -1.3625 0.0149 0.1267 0
M  V30 9 C -1.9752 1.4078 0.41 0
M  V30 10 C -1.7956 -0.9287 1.2697 0
M  V30 11 C -1.9501 -0.4927 -1.2077 0
M  V30 12 H 4.9103 -0.8524 -0.4171 0
M  V30 13 H 2.892 2.1177 0.2312 0
M  V30 14 H 2.7868 -2.11 -0.5058 0
M  V30 15 H 0.4726 2.1781 0.3927 0
M  V30 16 H 0.3529 -2.0962 -0.3515 0
M  V30 17 H -3.0838 1.3464 0.4684 0
M  V30 18 H -1.7239 2.1239 -0.4021 0
M  V30 19 H -1.6127 1.8103 1.3806 0
M  V30 20 H -1.346 -0.6013 2.2322 0
M  V30 21 H -1.4815 -1.9755 1.0765 0
M  V30 22 H -2.9015 -0.9292 1.3832 0
M  V30 23 H -3.0614 -0.4782 -1.1804 0
M  V30 24 H -1.6129 0.1516 -2.0483 0
M  V30 25 H -1.6373 -1.5361 -1.4212 0
M  V30 END ATOM
M  V30 BEGIN BOND
M  V30 1 1 1 2
M  V30 2 2 2 3
M  V30 3 1 2 4
M  V30 4 1 3 5
M  V30 5 2 4 6
M  V30 6 2 5 7
M  V30 7 1 7 8
M  V30 8 1 8 9
M  V30 9 1 8 10
M  V30 10 1 8 11
M  V30 11 1 6 7
M  V30 12 1 1 12
M  V30 13 1 3 13
M  V30 14 1 4 14
M  V30 15 1 5 15
M  V30 16 1 6 16
M  V30 17 1 9 17
M  V30 18 1 9 18
M  V30 19 1 9 19
M  V30 20 1 10 20
M  V30 21 1 10 21
M  V30 22 1 10 22
M  V30 23 1 11 23
M  V30 24 1 11 24
M  V30 25 1 11 25
M  V30 END BOND
M  V30 END CTAB
M  END
>  <Structure No>
1132

>  <LogS>
-6.493940207

>  <MMFF94 Energy>
23.849

$$$$
Compound 1133
Actelion Java MolfileCreator 2.0

  0  0  0  0  0  0              0 V3000
M  V30 BEGIN CTAB
M  V30 COUNTS 37 39 0 0 0
M  V30 BEGIN ATOM
M  V30 1 O 0.0 -1.4422 -1.4422 0
M  V30 2 C -1.067 -0.8325 -1.1669 0
M  V30 3 C -1.5486 -0.6926 0.234 0
M  V30 4 C -1.8783 -0.2874 -2.2666 0
M  V30 5 N -0.8414 -1.0537 1.2704 0
M  V30 6 C -2.9071 -0.1277 0.4401 0
M  V30 7 C -3.0749 0.2598 -2.038 0
M  V30 8 N 0.4899 -1.5016 1.2168 0
M  V30 9 C -3.6422 0.3406 -0.6733 0
M  V30 10 C -3.4735 -0.0332 1.726 0
M  V30 11 C 1.5786 -0.6251 0.8605 0
M  V30 12 C -4.92 0.8889 -0.4851 0
M  V30 13 C -4.7476 0.5135 1.8988 0
M  V30 14 C 2.8579 -1.1495 0.5579 0
M  V30 15 C 1.3798 0.7668 0.8101 0
M  V30 16 C -5.4689 0.9735 0.7961 0
M  V30 17 C 3.908 -0.273 0.2341 0
M  V30 18 C 3.1161 -2.6321 0.5769 0
M  V30 19 C 2.4282 1.6249 0.4767 0
M  V30 20 C 3.7017 1.1128 0.2045 0
M  V30 21 C 4.8186 2.0347 -0.1867 0
M  V30 22 H -1.5052 -0.345 -3.2817 0
M  V30 23 H -3.6441 0.641 -2.8773 0
M  V30 24 H 0.7058 -2.4103 1.682 0
M  V30 25 H -2.9346 -0.381 2.5982 0
M  V30 26 H -5.4925 1.2511 -1.3302 0
M  V30 27 H -5.1763 0.5816 2.8903 0
M  V30 28 H 0.4135 1.1966 1.0387 0
M  V30 29 H -6.4554 1.3971 0.9347 0
M  V30 30 H 4.8894 -0.6687 0.0 0
M  V30 31 H 4.1075 -2.8805 0.1418 0
M  V30 32 H 3.0916 -3.0016 1.6234 0
M  V30 33 H 2.3437 -3.1603 -0.0208 0
M  V30 34 H 2.2471 2.6922 0.4377 0
M  V30 35 H 4.6904 3.0311 0.2875 0
M  V30 36 H 5.7978 1.624 0.1394 0
M  V30 37 H 4.8265 2.1573 -1.2897 0
M  V30 END ATOM
M  V30 BEGIN BOND
M  V30 1 2 1 2
M  V30 2 1 2 3
M  V30 3 1 2 4
M  V30 4 2 3 5
M  V30 5 1 3 6
M  V30 6 2 4 7
M  V30 7 1 5 8
M  V30 8 2 6 9
M  V30 9 1 6 10
M  V30 10 1 8 11
M  V30 11 1 9 12
M  V30 12 2 10 13
M  V30 13 2 11 14
M  V30 14 1 11 15
M  V30 15 2 12 16
M  V30 16 1 14 17
M  V30 17 1 14 18
M  V30 18 2 15 19
M  V30 19 2 17 20
M  V30 20 1 20 21
M  V30 21 1 7 9
M  V30 22 1 13 16
M  V30 23 1 19 20
M  V30 24 1 4 22
M  V30 25 1 7 23
M  V30 26 1 8 24
M  V30 27 1 10 25
M  V30 28 1 12 26
M  V30 29 1 13 27
M  V30 30 1 15 28
M  V30 31 1 16 29
M  V30 32 1 17 30
M  V30 33 1 18 31
M  V30 34 1 18 32
M  V30 35 1 18 33
M  V30 36 1 19 34
M  V30 37 1 21 35
M  V30 38 1 21 36
M  V30 39 1 21 37
M  V30 END BOND
M  V30 END CTAB
M  END
>  <Structure No>
1133

>  <LogS>
-6.705444298

>  <MMFF94 Energy>
111.11

$$$$
Compound 1134
Actelion Java MolfileCreator 2.0

  0  0  0  0  0  0              0 V3000
M  V30 BEGIN CTAB
M  V30 COUNTS 47 46 0 0 0
M  V30 BEGIN ATOM
M  V30 1 O -6.876 -0.7015 -1.7155 0
M  V30 2 C -6.4777 -0.1012 -0.6799 0
M  V30 3 O -6.9218 1.1917 -0.389 0
M  V30 4 C -5.4825 -0.7579 0.2232 0
M  V30 5 C -7.8454 1.8884 -1.2166 0
M  V30 6 C -4.0561 -0.3829 -0.1894 0
M  V30 7 C -3.0251 -1.038 0.7419 0
M  V30 8 C -1.5763 -0.7983 0.287 0
M  V30 9 C -1.1071 0.644 0.5457 0
M  V30 10 C 0.3413 0.8839 0.0902 0
M  V30 11 C 1.3729 0.2295 1.0218 0
M  V30 12 C 2.8012 0.6015 0.6056 0
M  V30 13 C 3.8354 -0.055 1.5324 0
M  V30 14 C 5.2854 0.2871 1.1275 0
M  V30 15 C 6.0232 -0.8717 0.4305 0
M  V30 16 C 5.4497 -1.2665 -0.9403 0
M  V30 17 C 5.6336 -0.1773 -1.9968 0
M  V30 18 H -5.671 -0.4294 1.2684 0
M  V30 19 H -5.6135 -1.8614 0.1772 0
M  V30 20 H -8.8013 1.3258 -1.277 0
M  V30 21 H -7.421 2.0178 -2.2347 0
M  V30 22 H -8.0439 2.8886 -0.7798 0
M  V30 23 H -3.9512 0.7223 -0.1486 0
M  V30 24 H -3.8776 -0.7186 -1.2349 0
M  V30 25 H -3.2025 -2.1361 0.7534 0
M  V30 26 H -3.1611 -0.6653 1.7811 0
M  V30 27 H -1.4746 -1.0447 -0.7925 0
M  V30 28 H -0.9296 -1.4995 0.8545 0
M  V30 29 H -1.7542 1.3454 -0.0214 0
M  V30 30 H -1.2085 0.8904 1.6254 0
M  V30 31 H 0.5185 1.9819 0.0778 0
M  V30 32 H 0.477 0.5104 -0.9486 0
M  V30 33 H 1.1957 0.5678 2.0665 0
M  V30 34 H 1.2663 -0.8751 0.9832 0
M  V30 35 H 2.9691 0.2767 -0.4419 0
M  V30 36 H 2.9208 1.7066 0.6516 0
M  V30 37 H 3.6815 -1.1562 1.5548 0
M  V30 38 H 3.6597 0.3176 2.566 0
M  V30 39 H 5.8531 0.5207 2.0549 0
M  V30 40 H 5.3304 1.2079 0.5076 0
M  V30 41 H 7.092 -0.5909 0.3072 0
M  V30 42 H 6.0018 -1.763 1.095 0
M  V30 43 H 5.9847 -2.1764 -1.2885 0
M  V30 44 H 4.377 -1.5366 -0.854 0
M  V30 45 H 5.025 0.7176 -1.7549 0
M  V30 46 H 6.7028 0.1134 -2.0719 0
M  V30 47 H 5.3024 -0.5624 -2.9842 0
M  V30 END ATOM
M  V30 BEGIN BOND
M  V30 1 2 1 2
M  V30 2 1 2 3
M  V30 3 1 2 4
M  V30 4 1 3 5
M  V30 5 1 4 6
M  V30 6 1 6 7
M  V30 7 1 7 8
M  V30 8 1 8 9
M  V30 9 1 9 10
M  V30 10 1 10 11
M  V30 11 1 11 12
M  V30 12 1 12 13
M  V30 13 1 13 14
M  V30 14 1 14 15
M  V30 15 1 15 16
M  V30 16 1 16 17
M  V30 17 1 4 18
M  V30 18 1 4 19
M  V30 19 1 5 20
M  V30 20 1 5 21
M  V30 21 1 5 22
M  V30 22 1 6 23
M  V30 23 1 6 24
M  V30 24 1 7 25
M  V30 25 1 7 26
M  V30 26 1 8 27
M  V30 27 1 8 28
M  V30 28 1 9 29
M  V30 29 1 9 30
M  V30 30 1 10 31
M  V30 31 1 10 32
M  V30 32 1 11 33
M  V30 33 1 11 34
M  V30 34 1 12 35
M  V30 35 1 12 36
M  V30 36 1 13 37
M  V30 37 1 13 38
M  V30 38 1 14 39
M  V30 39 1 14 40
M  V30 40 1 15 41
M  V30 41 1 15 42
M  V30 42 1 16 43
M  V30 43 1 16 44
M  V30 44 1 17 45
M  V30 45 1 17 46
M  V30 46 1 17 47
M  V30 END BOND
M  V30 END CTAB
M  END
>  <Structure No>
1134

>  <LogS>
-6.649738161

>  <MMFF94 Energy>
-9.9491

$$$$
Compound 1135
Actelion Java MolfileCreator 2.0

  0  0  0  0  0  0              0 V3000
M  V30 BEGIN CTAB
M  V30 COUNTS 70 74 0 0 0
M  V30 BEGIN ATOM
M  V30 1 O -0.9565 0.6376 -2.9515 0
M  V30 2 C -0.742 0.2403 -1.6137 0
M  V30 3 C 0.7919 0.306 -1.3569 0
M  V30 4 C -1.5142 1.1933 -0.691 0
M  V30 5 C -1.3662 -1.1497 -1.3732 0
M  V30 6 C 1.5166 1.543 -1.3863 0
M  V30 7 C 1.5319 -0.8823 -1.1703 0
M  V30 8 C -2.7475 1.7326 -1.1077 0
M  V30 9 C -1.0815 1.458 0.6252 0
M  V30 10 C -1.2692 -1.7644 -0.1079 0
M  V30 11 C -2.135 -1.7961 -2.3619 0
M  V30 12 C 2.9055 1.5606 -1.0521 0
M  V30 13 C 0.9051 2.7666 -1.754 0
M  V30 14 C 2.8865 -0.8557 -0.8626 0
M  V30 15 C -3.5036 2.5378 -0.252 0
M  V30 16 C -1.8414 2.2577 1.481 0
M  V30 17 C -1.8767 -2.9954 0.1449 0
M  V30 18 C -2.7462 -3.0267 -2.1079 0
M  V30 19 C 3.5757 0.3523 -0.7645 0
M  V30 20 C 3.5948 2.7908 -1.0075 0
M  V30 21 C 1.6156 3.9664 -1.7236 0
M  V30 22 C -3.0628 2.8053 1.0539 0
M  V30 23 C -2.6241 -3.6524 -0.8517 0
M  V30 24 N 4.9815 0.3316 -0.4619 0
M  V30 25 C 2.9511 3.9801 -1.339 0
M  V30 26 N -3.8584 3.6167 1.9457 0
M  V30 27 N -3.2572 -4.935 -0.5903 0
M  V30 28 C 5.5426 -0.3648 0.6641 0
M  V30 29 C -4.4979 4.8382 1.4467 0
M  V30 30 C -3.8781 3.3401 3.3838 0
M  V30 31 C -3.7382 -5.7718 -1.6966 0
M  V30 32 C -3.4457 -5.4076 0.7884 0
M  V30 33 C 6.916 -0.6559 0.6809 0
M  V30 34 C 4.754 -0.7275 1.7728 0
M  V30 35 C 7.4868 -1.3215 1.7702 0
M  V30 36 C 5.3293 -1.3908 2.8613 0
M  V30 37 C 6.6933 -1.6918 2.8586 0
M  V30 38 H -0.3891 0.0687 -3.5367 0
M  V30 39 H 1.0759 -1.8559 -1.2662 0
M  V30 40 H -3.1369 1.5193 -2.0953 0
M  V30 41 H -0.156 1.041 1.0005 0
M  V30 42 H -0.7027 -1.298 0.6872 0
M  V30 43 H -2.282 -1.3544 -3.337 0
M  V30 44 H -0.1193 2.8209 -2.0849 0
M  V30 45 H 3.4117 -1.7906 -0.7096 0
M  V30 46 H -4.4499 2.9261 -0.6041 0
M  V30 47 H -1.4698 2.4519 2.4781 0
M  V30 48 H -1.7508 -3.4277 1.1273 0
M  V30 49 H -3.3284 -3.4752 -2.9008 0
M  V30 50 H 4.6357 2.8469 -0.719 0
M  V30 51 H 1.1257 4.8919 -2.0003 0
M  V30 52 H 5.6313 0.8153 -1.1224 0
M  V30 53 H 3.4959 4.9153 -1.3101 0
M  V30 54 H -5.3492 4.5773 0.7797 0
M  V30 55 H -4.884 5.461 2.2835 0
M  V30 56 H -3.7578 5.4498 0.885 0
M  V30 57 H -3.7758 2.2479 3.5683 0
M  V30 58 H -4.8423 3.6671 3.8322 0
M  V30 59 H -3.0438 3.8838 3.8784 0
M  V30 60 H -4.0183 -6.7889 -1.3506 0
M  V30 61 H -4.6302 -5.3038 -2.1606 0
M  V30 62 H -2.9378 -5.8906 -2.456 0
M  V30 63 H -4.0865 -6.3124 0.8294 0
M  V30 64 H -3.9473 -4.6198 1.3925 0
M  V30 65 H -2.4618 -5.6612 1.2398 0
M  V30 66 H 7.5435 -0.3713 -0.1533 0
M  V30 67 H 3.6994 -0.4895 1.8055 0
M  V30 68 H 8.5453 -1.5465 1.772 0
M  V30 69 H 4.7161 -1.6685 3.7084 0
M  V30 70 H 7.1347 -2.2058 3.7009 0
M  V30 END ATOM
M  V30 BEGIN BOND
M  V30 1 1 1 2
M  V30 2 1 2 3
M  V30 3 1 2 4
M  V30 4 1 2 5
M  V30 5 1 3 6
M  V30 6 2 3 7
M  V30 7 2 4 8
M  V30 8 1 4 9
M  V30 9 2 5 10
M  V30 10 1 5 11
M  V30 11 1 6 12
M  V30 12 2 6 13
M  V30 13 1 7 14
M  V30 14 1 8 15
M  V30 15 2 9 16
M  V30 16 1 10 17
M  V30 17 2 11 18
M  V30 18 1 12 19
M  V30 19 2 12 20
M  V30 20 1 13 21
M  V30 21 2 15 22
M  V30 22 2 17 23
M  V30 23 1 19 24
M  V30 24 1 20 25
M  V30 25 1 22 26
M  V30 26 1 23 27
M  V30 27 1 24 28
M  V30 28 1 26 29
M  V30 29 1 26 30
M  V30 30 1 27 31
M  V30 31 1 27 32
M  V30 32 2 28 33
M  V30 33 1 28 34
M  V30 34 1 33 35
M  V30 35 2 34 36
M  V30 36 2 35 37
M  V30 37 2 14 19
M  V30 38 1 16 22
M  V30 39 1 18 23
M  V30 40 2 21 25
M  V30 41 1 36 37
M  V30 42 1 1 38
M  V30 43 1 7 39
M  V30 44 1 8 40
M  V30 45 1 9 41
M  V30 46 1 10 42
M  V30 47 1 11 43
M  V30 48 1 13 44
M  V30 49 1 14 45
M  V30 50 1 15 46
M  V30 51 1 16 47
M  V30 52 1 17 48
M  V30 53 1 18 49
M  V30 54 1 20 50
M  V30 55 1 21 51
M  V30 56 1 24 52
M  V30 57 1 25 53
M  V30 58 1 29 54
M  V30 59 1 29 55
M  V30 60 1 29 56
M  V30 61 1 30 57
M  V30 62 1 30 58
M  V30 63 1 30 59
M  V30 64 1 31 60
M  V30 65 1 31 61
M  V30 66 1 31 62
M  V30 67 1 32 63
M  V30 68 1 32 64
M  V30 69 1 32 65
M  V30 70 1 33 66
M  V30 71 1 34 67
M  V30 72 1 35 68
M  V30 73 1 36 69
M  V30 74 1 37 70
M  V30 END BOND
M  V30 END CTAB
M  END
>  <Structure No>
1135

>  <LogS>
-6.989135552

>  <MMFF94 Energy>
139.55

$$$$
Compound 1136
Actelion Java MolfileCreator 2.0

  0  0  0  0  0  0              0 V3000
M  V30 BEGIN CTAB
M  V30 COUNTS 52 55 0 0 0
M  V30 BEGIN ATOM
M  V30 1 S -0.8204 -1.2308 1.8877 0
M  V30 2 S -0.984 -2.8729 0.5327 0
M  V30 3 C 0.7713 -1.7628 2.5359 0
M  V30 4 C -0.2609 -1.9733 -0.8457 0
M  V30 5 C 1.9834 -1.1822 2.0966 0
M  V30 6 C 0.7882 -2.7599 3.5201 0
M  V30 7 C -0.9831 -0.9735 -1.5291 0
M  V30 8 C 1.0369 -2.2988 -1.2575 0
M  V30 9 N 1.9738 -0.1158 1.1265 0
M  V30 10 C 3.1916 -1.6071 2.6831 0
M  V30 11 C 1.9964 -3.1921 4.0669 0
M  V30 12 N -2.3191 -0.6403 -1.1232 0
M  V30 13 C -0.3925 -0.3242 -2.6264 0
M  V30 14 C 1.613 -1.649 -2.3517 0
M  V30 15 C 3.0022 0.0871 0.1405 0
M  V30 16 C 3.1961 -2.6123 3.6539 0
M  V30 17 C -2.732 0.7072 -0.8373 0
M  V30 18 C 0.8996 -0.6621 -3.0342 0
M  V30 19 O 3.885 -0.797 -0.0355 0
M  V30 20 C 2.991 1.2815 -0.7396 0
M  V30 21 O -1.9838 1.674 -1.1518 0
M  V30 22 C -4.0282 0.9878 -0.1726 0
M  V30 23 C 3.6528 1.2448 -1.9803 0
M  V30 24 C 2.3238 2.4636 -0.3615 0
M  V30 25 C -4.6567 2.2358 -0.3566 0
M  V30 26 C -4.6393 0.0369 0.6666 0
M  V30 27 C 3.621 2.3507 -2.8328 0
M  V30 28 C 2.2974 3.5673 -1.2179 0
M  V30 29 C -5.8724 2.5164 0.2729 0
M  V30 30 C -5.8573 0.324 1.2923 0
M  V30 31 C 2.9411 3.51 -2.4539 0
M  V30 32 C -6.4735 1.5614 1.0947 0
M  V30 33 H -0.1382 -3.2075 3.8575 0
M  V30 34 H 1.5969 -3.064 -0.737 0
M  V30 35 H 1.1175 0.4772 1.0606 0
M  V30 36 H 4.1324 -1.1408 2.4178 0
M  V30 37 H 2.0023 -3.9675 4.823 0
M  V30 38 H -2.9755 -1.4298 -0.9358 0
M  V30 39 H -0.9414 0.4268 -3.1803 0
M  V30 40 H 2.614 -1.9077 -2.6685 0
M  V30 41 H 4.1313 -2.9364 4.0932 0
M  V30 42 H 1.3471 -0.1596 -3.8817 0
M  V30 43 H 4.1776 0.3533 -2.301 0
M  V30 44 H 1.8377 2.5481 0.6005 0
M  V30 45 H -4.2096 2.9927 -0.9918 0
M  V30 46 H -4.166 -0.9122 0.8751 0
M  V30 47 H 4.122 2.3085 -3.7899 0
M  V30 48 H 1.781 4.471 -0.9218 0
M  V30 49 H -6.3483 3.4789 0.1239 0
M  V30 50 H -6.3171 -0.4091 1.9436 0
M  V30 51 H 2.9163 4.3652 -3.1172 0
M  V30 52 H -7.4136 1.7862 1.5858 0
M  V30 END ATOM
M  V30 BEGIN BOND
M  V30 1 1 1 2
M  V30 2 1 1 3
M  V30 3 1 2 4
M  V30 4 2 3 5
M  V30 5 1 3 6
M  V30 6 2 4 7
M  V30 7 1 4 8
M  V30 8 1 5 9
M  V30 9 1 5 10
M  V30 10 2 6 11
M  V30 11 1 7 12
M  V30 12 1 7 13
M  V30 13 2 8 14
M  V30 14 1 9 15
M  V30 15 2 10 16
M  V30 16 1 12 17
M  V30 17 2 13 18
M  V30 18 2 15 19
M  V30 19 1 15 20
M  V30 20 2 17 21
M  V30 21 1 17 22
M  V30 22 2 20 23
M  V30 23 1 20 24
M  V30 24 2 22 25
M  V30 25 1 22 26
M  V30 26 1 23 27
M  V30 27 2 24 28
M  V30 28 1 25 29
M  V30 29 2 26 30
M  V30 30 2 27 31
M  V30 31 2 29 32
M  V30 32 1 11 16
M  V30 33 1 14 18
M  V30 34 1 28 31
M  V30 35 1 30 32
M  V30 36 1 6 33
M  V30 37 1 8 34
M  V30 38 1 9 35
M  V30 39 1 10 36
M  V30 40 1 11 37
M  V30 41 1 12 38
M  V30 42 1 13 39
M  V30 43 1 14 40
M  V30 44 1 16 41
M  V30 45 1 18 42
M  V30 46 1 23 43
M  V30 47 1 24 44
M  V30 48 1 25 45
M  V30 49 1 26 46
M  V30 50 1 27 47
M  V30 51 1 28 48
M  V30 52 1 29 49
M  V30 53 1 30 50
M  V30 54 1 31 51
M  V30 55 1 32 52
M  V30 END BOND
M  V30 END CTAB
M  END
>  <Structure No>
1136

>  <LogS>
-6.978287061

>  <MMFF94 Energy>
82.773

$$$$
Compound 1137
Actelion Java MolfileCreator 2.0

  0  0  0  0  0  0              0 V3000
M  V30 BEGIN CTAB
M  V30 COUNTS 63 62 0 0 0
M  V30 BEGIN ATOM
M  V30 1 O -1.7157 -1.4036 0.3897 0
M  V30 2 C -2.02 -0.1916 0.5712 0
M  V30 3 N -3.4025 0.1636 0.8149 0
M  V30 4 C -0.9175 0.8379 0.5272 0
M  V30 5 C -4.2446 -0.7821 1.5665 0
M  V30 6 C -3.9423 1.4973 0.4846 0
M  V30 7 C 0.2826 0.4055 1.3848 0
M  V30 8 C -4.873 -1.8294 0.6337 0
M  V30 9 C -3.7558 1.8686 -0.9995 0
M  V30 10 C 1.3422 1.5126 1.5328 0
M  V30 11 C -5.8001 -2.8006 1.3832 0
M  V30 12 C -4.4325 0.8974 -1.9788 0
M  V30 13 C 1.9551 2.0067 0.2072 0
M  V30 14 C -5.033 -3.793 2.2575 0
M  V30 15 C -5.9559 1.0288 -1.98 0
M  V30 16 C 2.61 0.9117 -0.6577 0
M  V30 17 C 3.7518 0.1419 0.0299 0
M  V30 18 C 4.9309 1.0509 0.4209 0
M  V30 19 C 6.1743 0.2441 0.8503 0
M  V30 20 C 7.2608 0.1623 -0.2364 0
M  V30 21 C 6.8224 -0.6494 -1.4615 0
M  V30 22 C 7.9769 -0.8324 -2.4418 0
M  V30 23 H -1.2769 1.8185 0.898 0
M  V30 24 H -0.5979 0.9551 -0.5296 0
M  V30 25 H -5.0554 -0.2399 2.1048 0
M  V30 26 H -3.6275 -1.278 2.3474 0
M  V30 27 H -3.4519 2.2634 1.1195 0
M  V30 28 H -5.0241 1.5562 0.7292 0
M  V30 29 H -0.0807 0.1445 2.4034 0
M  V30 30 H 0.7475 -0.5097 0.9605 0
M  V30 31 H -4.0834 -2.3994 0.098 0
M  V30 32 H -5.483 -1.3048 -0.1302 0
M  V30 33 H -2.6755 1.9147 -1.2425 0
M  V30 34 H -4.1548 2.8937 -1.1635 0
M  V30 35 H 0.8792 2.3831 2.047 0
M  V30 36 H 2.1502 1.1484 2.2019 0
M  V30 37 H -6.3849 -3.3785 0.634 0
M  V30 38 H -6.525 -2.234 2.0099 0
M  V30 39 H -4.0684 1.1272 -3.0033 0
M  V30 40 H -4.1375 -0.149 -1.7553 0
M  V30 41 H 1.1677 2.5091 -0.3935 0
M  V30 42 H 2.7057 2.7928 0.4337 0
M  V30 43 H -4.2759 -4.3372 1.6545 0
M  V30 44 H -4.5311 -3.2741 3.0992 0
M  V30 45 H -5.7423 -4.5315 2.6848 0
M  V30 46 H -6.383 0.7443 -0.9955 0
M  V30 47 H -6.3826 0.3556 -2.754 0
M  V30 48 H -6.2546 2.0734 -2.2183 0
M  V30 49 H 3.0072 1.3878 -1.5808 0
M  V30 50 H 1.8362 0.1877 -0.9901 0
M  V30 51 H 4.1008 -0.639 -0.6773 0
M  V30 52 H 3.3728 -0.3893 0.9287 0
M  V30 53 H 4.6133 1.6804 1.281 0
M  V30 54 H 5.1813 1.7392 -0.4158 0
M  V30 55 H 5.8955 -0.7782 1.1918 0
M  V30 56 H 6.6295 0.7535 1.7288 0
M  V30 57 H 8.1569 -0.3182 0.2127 0
M  V30 58 H 7.5531 1.1885 -0.549 0
M  V30 59 H 5.9984 -0.1229 -1.9878 0
M  V30 60 H 6.4619 -1.6505 -1.141 0
M  V30 61 H 7.6326 -1.4289 -3.3132 0
M  V30 62 H 8.3348 0.1544 -2.8051 0
M  V30 63 H 8.8178 -1.3707 -1.9533 0
M  V30 END ATOM
M  V30 BEGIN BOND
M  V30 1 2 1 2
M  V30 2 1 2 3
M  V30 3 1 2 4
M  V30 4 1 3 5
M  V30 5 1 3 6
M  V30 6 1 4 7
M  V30 7 1 5 8
M  V30 8 1 6 9
M  V30 9 1 7 10
M  V30 10 1 8 11
M  V30 11 1 9 12
M  V30 12 1 10 13
M  V30 13 1 11 14
M  V30 14 1 12 15
M  V30 15 1 13 16
M  V30 16 1 16 17
M  V30 17 1 17 18
M  V30 18 1 18 19
M  V30 19 1 19 20
M  V30 20 1 20 21
M  V30 21 1 21 22
M  V30 22 1 4 23
M  V30 23 1 4 24
M  V30 24 1 5 25
M  V30 25 1 5 26
M  V30 26 1 6 27
M  V30 27 1 6 28
M  V30 28 1 7 29
M  V30 29 1 7 30
M  V30 30 1 8 31
M  V30 31 1 8 32
M  V30 32 1 9 33
M  V30 33 1 9 34
M  V30 34 1 10 35
M  V30 35 1 10 36
M  V30 36 1 11 37
M  V30 37 1 11 38
M  V30 38 1 12 39
M  V30 39 1 12 40
M  V30 40 1 13 41
M  V30 41 1 13 42
M  V30 42 1 14 43
M  V30 43 1 14 44
M  V30 44 1 14 45
M  V30 45 1 15 46
M  V30 46 1 15 47
M  V30 47 1 15 48
M  V30 48 1 16 49
M  V30 49 1 16 50
M  V30 50 1 17 51
M  V30 51 1 17 52
M  V30 52 1 18 53
M  V30 53 1 18 54
M  V30 54 1 19 55
M  V30 55 1 19 56
M  V30 56 1 20 57
M  V30 57 1 20 58
M  V30 58 1 21 59
M  V30 59 1 21 60
M  V30 60 1 22 61
M  V30 61 1 22 62
M  V30 62 1 22 63
M  V30 END BOND
M  V30 END CTAB
M  END
>  <Structure No>
1137

>  <LogS>
-7.016412077

>  <MMFF94 Energy>
-19.031

$$$$
Compound 1138
Actelion Java MolfileCreator 2.0

  0  0  0  0  0  0              0 V3000
M  V30 BEGIN CTAB
M  V30 COUNTS 24 24 0 0 0
M  V30 BEGIN ATOM
M  V30 1 O 4.0134 -2.2459 -0.7215 0
M  V30 2 N 2.7728 -2.3393 -0.615 0 CHG=1
M  V30 3 O 2.1868 -3.5755 -0.7644 0 CHG=-1
M  V30 4 C 1.969 -1.1754 -0.3457 0
M  V30 5 C 0.5747 -1.2886 -0.2142 0
M  V30 6 C 2.5648 0.0882 -0.202 0
M  V30 7 C -0.2189 -0.1553 0.0453 0
M  V30 8 C 1.7857 1.2124 0.0765 0
M  V30 9 O -1.6123 -0.2448 0.1902 0
M  V30 10 C 0.3897 1.0979 0.2073 0
M  V30 11 C -2.4348 -1.1786 -0.4527 0
M  V30 12 O -0.4259 2.2047 0.4912 0
M  V30 13 O -2.033 -1.8097 -1.4675 0
M  V30 14 C -3.8457 -1.3407 4.0E-4 0
M  V30 15 C 0.0526 3.5327 0.678 0
M  V30 16 H 0.1118 -2.2628 -0.2829 0
M  V30 17 H 3.6365 0.2069 -0.2971 0
M  V30 18 H 2.28 2.1676 0.1891 0
M  V30 19 H -4.5003 -0.654 -0.5752 0
M  V30 20 H -4.1808 -2.3873 -0.1588 0
M  V30 21 H -3.9254 -1.0999 1.0811 0
M  V30 22 H -0.8067 4.2011 0.8901 0
M  V30 23 H 0.7519 3.5688 1.5397 0
M  V30 24 H 0.5607 3.8885 -0.2429 0
M  V30 END ATOM
M  V30 BEGIN BOND
M  V30 1 2 1 2
M  V30 2 1 2 3
M  V30 3 1 2 4
M  V30 4 2 4 5
M  V30 5 1 4 6
M  V30 6 1 5 7
M  V30 7 2 6 8
M  V30 8 1 7 9
M  V30 9 2 7 10
M  V30 10 1 9 11
M  V30 11 1 10 12
M  V30 12 2 11 13
M  V30 13 1 11 14
M  V30 14 1 12 15
M  V30 15 1 8 10
M  V30 16 1 5 16
M  V30 17 1 6 17
M  V30 18 1 8 18
M  V30 19 1 14 19
M  V30 20 1 14 20
M  V30 21 1 14 21
M  V30 22 1 15 22
M  V30 23 1 15 23
M  V30 24 1 15 24
M  V30 END BOND
M  V30 END CTAB
M  END
>  <Structure No>
1138

>  <LogS>
-2.946604067

>  <MMFF94 Energy>
61.213

$$$$
Compound 1139
Actelion Java MolfileCreator 2.0

  0  0  0  0  0  0              0 V3000
M  V30 BEGIN CTAB
M  V30 COUNTS 8 7 0 0 0
M  V30 BEGIN ATOM
M  V30 1 S 0.8744 0.0 0.0 0
M  V30 2 O 1.3246 -0.805 -1.1858 0
M  V30 3 O 1.4416 -0.5991 1.2556 0
M  V30 4 O 1.4176 1.5812 -0.1593 0 CHG=-1
M  V30 5 C -0.9014 -0.0103 0.086 0
M  V30 6 H -1.3201 0.433 -0.8407 0
M  V30 7 H -1.2628 -1.054 0.1914 0
M  V30 8 H -1.2338 0.5851 0.9613 0
M  V30 END ATOM
M  V30 BEGIN BOND
M  V30 1 2 1 2
M  V30 2 2 1 3
M  V30 3 1 1 4
M  V30 4 1 1 5
M  V30 5 1 5 6
M  V30 6 1 5 7
M  V30 7 1 5 8
M  V30 END BOND
M  V30 END CTAB
M  END
>  <Structure No>
1139

>  <LogS>
0.732330182

>  <MMFF94 Energy>
8.5303

$$$$
Compound 1140
Actelion Java MolfileCreator 2.0

  0  0  0  0  0  0              0 V3000
M  V30 BEGIN CTAB
M  V30 COUNTS 34 35 0 0 0
M  V30 BEGIN ATOM
M  V30 1 O -0.8003 1.4409 -0.16 0
M  V30 2 C -1.43 0.4016 0.1783 0
M  V30 3 O -0.7492 -0.6613 0.7842 0
M  V30 4 C -2.8936 0.3218 -0.022 0
M  V30 5 O 0.6161 -0.7725 0.8003 0
M  V30 6 C -3.6024 -0.826 0.3727 0
M  V30 7 C -3.598 1.3898 -0.6066 0
M  V30 8 C 1.4263 -0.495 -0.3073 0
M  V30 9 C -4.9853 -0.9057 0.1833 0
M  V30 10 C -4.9808 1.3084 -0.7951 0
M  V30 11 O 0.9086 -0.3747 -1.4512 0
M  V30 12 C 2.8925 -0.3886 -0.1407 0
M  V30 13 C -5.6807 0.1542 -0.4156 0
M  V30 14 C 3.4755 -0.5427 1.129 0
M  V30 15 C 3.7244 -0.1344 -1.2459 0
M  V30 16 C -7.1696 0.0838 -0.5821 0
M  V30 17 C 4.8603 -0.441 1.2906 0
M  V30 18 C 5.1091 -0.0332 -1.0825 0
M  V30 19 C 5.6841 -0.1704 0.1888 0
M  V30 20 C 7.1729 -0.1009 0.3568 0
M  V30 21 H -3.0904 -1.6626 0.8311 0
M  V30 22 H -3.0818 2.2902 -0.9156 0
M  V30 23 H -5.5136 -1.7954 0.5034 0
M  V30 24 H -5.5056 2.1459 -1.2384 0
M  V30 25 H 2.8631 -0.7449 1.9987 0
M  V30 26 H 3.3065 -0.0169 -2.2379 0
M  V30 27 H -7.6623 0.4866 0.3273 0
M  V30 28 H -7.4941 0.6775 -1.4631 0
M  V30 29 H -7.4974 -0.9662 -0.7367 0
M  V30 30 H 5.2899 -0.5726 2.2762 0
M  V30 31 H 5.7326 0.1534 -1.9481 0
M  V30 32 H 7.6064 -1.1145 0.2283 0
M  V30 33 H 7.4359 0.2804 1.3665 0
M  V30 34 H 7.6206 0.5829 -0.3952 0
M  V30 END ATOM
M  V30 BEGIN BOND
M  V30 1 2 1 2
M  V30 2 1 2 3
M  V30 3 1 2 4
M  V30 4 1 3 5
M  V30 5 2 4 6
M  V30 6 1 4 7
M  V30 7 1 5 8
M  V30 8 1 6 9
M  V30 9 2 7 10
M  V30 10 2 8 11
M  V30 11 1 8 12
M  V30 12 2 9 13
M  V30 13 2 12 14
M  V30 14 1 12 15
M  V30 15 1 13 16
M  V30 16 1 14 17
M  V30 17 2 15 18
M  V30 18 2 17 19
M  V30 19 1 19 20
M  V30 20 1 10 13
M  V30 21 1 18 19
M  V30 22 1 6 21
M  V30 23 1 7 22
M  V30 24 1 9 23
M  V30 25 1 10 24
M  V30 26 1 14 25
M  V30 27 1 15 26
M  V30 28 1 16 27
M  V30 29 1 16 28
M  V30 30 1 16 29
M  V30 31 1 17 30
M  V30 32 1 18 31
M  V30 33 1 20 32
M  V30 34 1 20 33
M  V30 35 1 20 34
M  V30 END BOND
M  V30 END CTAB
M  END
>  <Structure No>
1140

>  <LogS>
-6.798351882

>  <MMFF94 Energy>
92.234

$$$$
Compound 1141
Actelion Java MolfileCreator 2.0

  0  0  0  0  0  0              0 V3000
M  V30 BEGIN CTAB
M  V30 COUNTS 65 68 0 0 0
M  V30 BEGIN ATOM
M  V30 1 O -3.0405 -0.5595 1.5994 0
M  V30 2 C -2.5783 0.1946 0.5165 0
M  V30 3 C -3.4967 0.5254 -0.5101 0
M  V30 4 C -1.2326 0.644 0.433 0
M  V30 5 C -3.075 1.339 -1.5753 0
M  V30 6 C -4.955 0.0793 -0.4642 0
M  V30 7 C -0.8611 1.4908 -0.6266 0
M  V30 8 C -0.1674 0.2832 1.4578 0
M  V30 9 C -1.7635 1.8155 -1.641 0
M  V30 10 C -5.1123 -1.4681 -0.3961 0
M  V30 11 C -5.7233 0.8227 0.649 0
M  V30 12 C 1.1138 -0.2451 0.8295 0
M  V30 13 C -1.3449 2.7265 -2.7578 0
M  V30 14 C -5.9071 -1.9439 0.8294 0
M  V30 15 C -7.1656 0.31 0.7488 0
M  V30 16 C 2.3915 0.0599 1.3654 0
M  V30 17 C 1.0296 -1.118 -0.268 0
M  V30 18 C -7.2566 -1.2194 0.9502 0
M  V30 19 O 2.5267 0.7455 2.5785 0
M  V30 20 C 3.568 -0.3547 0.6911 0
M  V30 21 C 2.1807 -1.6138 -0.8811 0
M  V30 22 C 3.4383 -1.2115 -0.4208 0
M  V30 23 C 4.9333 0.0949 1.2336 0
M  V30 24 C 2.0639 -2.5148 -2.0759 0
M  V30 25 C 6.1817 -0.6593 0.6964 0
M  V30 26 C 5.1281 1.6275 1.116 0
M  V30 27 C 6.6923 -0.1499 -0.668 0
M  V30 28 C 5.5493 2.053 -0.2915 0
M  V30 29 C 6.858 1.3695 -0.6831 0
M  V30 30 H -2.5426 -0.6945 2.4658 0
M  V30 31 H -3.7746 1.6169 -2.3545 0
M  V30 32 H -5.4432 0.3902 -1.4157 0
M  V30 33 H 0.1487 1.8824 -0.6724 0
M  V30 34 H -0.4935 -0.4882 2.1759 0
M  V30 35 H 0.0199 1.2155 2.0251 0
M  V30 36 H -5.6447 -1.8198 -1.3077 0
M  V30 37 H -4.1247 -1.9781 -0.4022 0
M  V30 38 H -5.7386 1.9118 0.4234 0
M  V30 39 H -5.2284 0.6967 1.6352 0
M  V30 40 H -1.9165 2.5018 -3.683 0
M  V30 41 H -1.5293 3.781 -2.4637 0
M  V30 42 H -0.2655 2.5966 -2.9859 0
M  V30 43 H -5.3145 -1.7679 1.7522 0
M  V30 44 H -6.083 -3.0389 0.7536 0
M  V30 45 H -7.7082 0.5891 -0.1816 0
M  V30 46 H -7.6738 0.8267 1.5918 0
M  V30 47 H 0.0605 -1.4179 -0.6483 0
M  V30 48 H -7.6814 -1.4349 1.9554 0
M  V30 49 H -7.9625 -1.6437 0.2014 0
M  V30 50 H 1.7649 0.919 3.2189 0
M  V30 51 H 4.3006 -1.6146 -0.9216 0
M  V30 52 H 4.9087 -0.1359 2.3225 0
M  V30 53 H 1.1572 -3.1525 -1.9985 0
M  V30 54 H 1.9938 -1.8971 -2.9955 0
M  V30 55 H 2.9465 -3.1842 -2.1549 0
M  V30 56 H 7.0071 -0.5222 1.43 0
M  V30 57 H 5.9893 -1.7522 0.6507 0
M  V30 58 H 4.2037 2.1758 1.3911 0
M  V30 59 H 5.9116 1.9485 1.8376 0
M  V30 60 H 6.0127 -0.4392 -1.4936 0
M  V30 61 H 7.6764 -0.6197 -0.8808 0
M  V30 62 H 4.7496 1.7967 -1.0216 0
M  V30 63 H 5.6935 3.1552 -0.3123 0
M  V30 64 H 7.6678 1.6681 0.0185 0
M  V30 65 H 7.1503 1.697 -1.7039 0
M  V30 END ATOM
M  V30 BEGIN BOND
M  V30 1 1 1 2
M  V30 2 2 2 3
M  V30 3 1 2 4
M  V30 4 1 3 5
M  V30 5 1 3 6
M  V30 6 2 4 7
M  V30 7 1 4 8
M  V30 8 2 5 9
M  V30 9 1 6 10
M  V30 10 1 6 11
M  V30 11 1 8 12
M  V30 12 1 9 13
M  V30 13 1 10 14
M  V30 14 1 11 15
M  V30 15 2 12 16
M  V30 16 1 12 17
M  V30 17 1 14 18
M  V30 18 1 16 19
M  V30 19 1 16 20
M  V30 20 2 17 21
M  V30 21 2 20 22
M  V30 22 1 20 23
M  V30 23 1 21 24
M  V30 24 1 23 25
M  V30 25 1 23 26
M  V30 26 1 25 27
M  V30 27 1 26 28
M  V30 28 1 27 29
M  V30 29 1 7 9
M  V30 30 1 15 18
M  V30 31 1 21 22
M  V30 32 1 28 29
M  V30 33 1 1 30
M  V30 34 1 5 31
M  V30 35 1 6 32
M  V30 36 1 7 33
M  V30 37 1 8 34
M  V30 38 1 8 35
M  V30 39 1 10 36
M  V30 40 1 10 37
M  V30 41 1 11 38
M  V30 42 1 11 39
M  V30 43 1 13 40
M  V30 44 1 13 41
M  V30 45 1 13 42
M  V30 46 1 14 43
M  V30 47 1 14 44
M  V30 48 1 15 45
M  V30 49 1 15 46
M  V30 50 1 17 47
M  V30 51 1 18 48
M  V30 52 1 18 49
M  V30 53 1 19 50
M  V30 54 1 22 51
M  V30 55 1 23 52
M  V30 56 1 24 53
M  V30 57 1 24 54
M  V30 58 1 24 55
M  V30 59 1 25 56
M  V30 60 1 25 57
M  V30 61 1 26 58
M  V30 62 1 26 59
M  V30 63 1 27 60
M  V30 64 1 27 61
M  V30 65 1 28 62
M  V30 66 1 28 63
M  V30 67 1 29 64
M  V30 68 1 29 65
M  V30 END BOND
M  V30 END CTAB
M  END
>  <Structure No>
1141

>  <LogS>
-6.979034273

>  <MMFF94 Energy>
55.453

$$$$
Compound 1142
Actelion Java MolfileCreator 2.0

  0  0  0  0  0  0              0 V3000
M  V30 BEGIN CTAB
M  V30 COUNTS 66 66 0 0 0
M  V30 BEGIN ATOM
M  V30 1 O 0.867 -1.0248 1.8136 0
M  V30 2 C 1.3757 0.0117 1.3051 0
M  V30 3 O 2.7324 0.0339 0.9676 0
M  V30 4 C 0.5588 1.2321 1.1179 0
M  V30 5 C 3.5811 -1.1015 1.1122 0
M  V30 6 C -0.8316 1.1954 0.8167 0
M  V30 7 C 1.1847 2.477 1.31 0
M  V30 8 C 5.0151 -0.7592 0.6563 0 CFG=2
M  V30 9 C -1.5475 -0.0524 0.4665 0
M  V30 10 C -1.557 2.4005 0.7888 0
M  V30 11 C 0.4498 3.6615 1.2536 0
M  V30 12 C 5.007 -0.3378 -0.837 0
M  V30 13 C 5.9722 -1.9568 0.8895 0
M  V30 14 O -0.9567 -0.9716 -0.1644 0
M  V30 15 O -2.9013 -0.1834 0.7909 0
M  V30 16 C -0.9202 3.6224 1.0063 0
M  V30 17 C 6.3131 0.3425 -1.2811 0
M  V30 18 C 6.1504 -2.3134 2.3674 0
M  V30 19 C -3.6535 -1.3582 0.5022 0
M  V30 20 C 6.1772 0.9225 -2.6941 0
M  V30 21 C -5.124 -1.1656 0.9298 0 CFG=1
M  V30 22 C 7.4788 1.5753 -3.1505 0
M  V30 23 C -5.9292 -0.3116 -0.0825 0
M  V30 24 C -5.8185 -2.5235 1.1982 0
M  V30 25 C -5.453 1.151 -0.1473 0
M  V30 26 C -5.9023 -3.4429 -0.0234 0
M  V30 27 C -6.4462 2.0639 -0.8819 0
M  V30 28 C -6.5415 1.7519 -2.3748 0
M  V30 29 H 3.1826 -1.9448 0.5055 0
M  V30 30 H 3.5781 -1.3987 2.1816 0
M  V30 31 H 2.2425 2.533 1.5368 0
M  V30 32 H 5.367 0.1036 1.2655 0
M  V30 33 H -2.6167 2.402 0.5673 0
M  V30 34 H 0.9421 4.6117 1.4158 0
M  V30 35 H 4.1782 0.3834 -1.0103 0
M  V30 36 H 4.8124 -1.2259 -1.4783 0
M  V30 37 H 5.6072 -2.8515 0.3387 0
M  V30 38 H 6.9807 -1.7115 0.4995 0
M  V30 39 H -1.4889 4.5426 0.9691 0
M  V30 40 H 6.5651 1.1623 -0.5728 0
M  V30 41 H 7.1429 -0.3946 -1.283 0
M  V30 42 H 6.3657 -1.4036 2.9674 0
M  V30 43 H 5.2461 -2.8188 2.7653 0
M  V30 44 H 7.0032 -3.0161 2.4768 0
M  V30 45 H -3.5941 -1.5855 -0.5847 0
M  V30 46 H -3.2023 -2.2066 1.0625 0
M  V30 47 H 5.9121 0.112 -3.4075 0
M  V30 48 H 5.3689 1.6856 -2.7111 0
M  V30 49 H -5.1237 -0.6297 1.9057 0
M  V30 50 H 7.3447 2.002 -4.167 0
M  V30 51 H 7.7637 2.395 -2.4568 0
M  V30 52 H 8.2959 0.8236 -3.1856 0
M  V30 53 H -7.0004 -0.3227 0.2173 0
M  V30 54 H -5.8537 -0.7606 -1.0955 0
M  V30 55 H -6.8478 -2.3416 1.5765 0
M  V30 56 H -5.2723 -3.0583 2.0058 0
M  V30 57 H -4.4682 1.2057 -0.6576 0
M  V30 58 H -5.3276 1.5438 0.8851 0
M  V30 59 H -4.8912 -3.6674 -0.4213 0
M  V30 60 H -6.5241 -2.9867 -0.8208 0
M  V30 61 H -6.3762 -4.4019 0.2734 0
M  V30 62 H -6.1073 3.116 -0.7661 0
M  V30 63 H -7.454 1.9836 -0.4196 0
M  V30 64 H -7.1853 2.5092 -2.8694 0
M  V30 65 H -5.535 1.7827 -2.8435 0
M  V30 66 H -6.9959 0.7525 -2.5378 0
M  V30 END ATOM
M  V30 BEGIN BOND
M  V30 1 2 1 2
M  V30 2 1 2 3
M  V30 3 1 2 4
M  V30 4 1 3 5
M  V30 5 2 4 6
M  V30 6 1 4 7
M  V30 7 1 5 8
M  V30 8 1 6 9
M  V30 9 1 6 10
M  V30 10 2 7 11
M  V30 11 1 8 12
M  V30 12 1 8 13
M  V30 13 2 9 14
M  V30 14 1 9 15
M  V30 15 2 10 16
M  V30 16 1 12 17
M  V30 17 1 13 18
M  V30 18 1 15 19
M  V30 19 1 17 20
M  V30 20 1 19 21
M  V30 21 1 20 22
M  V30 22 1 21 23
M  V30 23 1 21 24
M  V30 24 1 23 25
M  V30 25 1 24 26
M  V30 26 1 25 27
M  V30 27 1 27 28
M  V30 28 1 11 16
M  V30 29 1 5 29
M  V30 30 1 5 30
M  V30 31 1 7 31
M  V30 32 1 8 32
M  V30 33 1 10 33
M  V30 34 1 11 34
M  V30 35 1 12 35
M  V30 36 1 12 36
M  V30 37 1 13 37
M  V30 38 1 13 38
M  V30 39 1 16 39
M  V30 40 1 17 40
M  V30 41 1 17 41
M  V30 42 1 18 42
M  V30 43 1 18 43
M  V30 44 1 18 44
M  V30 45 1 19 45
M  V30 46 1 19 46
M  V30 47 1 20 47
M  V30 48 1 20 48
M  V30 49 1 21 49
M  V30 50 1 22 50
M  V30 51 1 22 51
M  V30 52 1 22 52
M  V30 53 1 23 53
M  V30 54 1 23 54
M  V30 55 1 24 55
M  V30 56 1 24 56
M  V30 57 1 25 57
M  V30 58 1 25 58
M  V30 59 1 26 59
M  V30 60 1 26 60
M  V30 61 1 26 61
M  V30 62 1 27 62
M  V30 63 1 27 63
M  V30 64 1 28 64
M  V30 65 1 28 65
M  V30 66 1 28 66
M  V30 END BOND
M  V30 BEGIN COLLECTION
M  V30 MDLV30/STEABS ATOMS=(2 8 21)
M  V30 END COLLECTION
M  V30 END CTAB
M  END
>  <Structure No>
1142

>  <LogS>
-6.978908353

>  <MMFF94 Energy>
31.072

$$$$
Compound 1143
Actelion Java MolfileCreator 2.0

  0  0  0  0  0  0              0 V3000
M  V30 BEGIN CTAB
M  V30 COUNTS 30 30 0 0 0
M  V30 BEGIN ATOM
M  V30 1 C 0.625 0.4687 -0.1562 0
M  V30 2 C -0.7519 0.8311 0.0231 0
M  V30 3 C 1.5629 1.4905 -0.4282 0
M  V30 4 C 1.1522 -0.9599 -0.0548 0
M  V30 5 C -1.1124 2.1899 -0.1214 0
M  V30 6 C -1.8885 -0.1429 0.3553 0
M  V30 7 C 1.1716 2.8203 -0.5521 0
M  V30 8 C 1.8463 -1.3991 -1.3522 0
M  V30 9 C 2.0859 -1.1193 1.1515 0
M  V30 10 C -0.1633 3.1683 -0.4048 0
M  V30 11 C -2.258 -1.0436 -0.8312 0
M  V30 12 C -1.6835 -0.9185 1.6699 0
M  V30 13 H 2.6134 1.261 -0.5472 0
M  V30 14 H 0.339 -1.6785 0.0911 0
M  V30 15 H -2.1423 2.5062 -0.0106 0
M  V30 16 H -2.8085 0.4571 0.5401 0
M  V30 17 H 1.9086 3.5839 -0.7653 0
M  V30 18 H 2.7866 -0.8353 -1.5246 0
M  V30 19 H 1.1678 -1.2424 -2.2179 0
M  V30 20 H 2.0966 -2.4803 -1.3006 0
M  V30 21 H 3.0055 -0.5084 1.0333 0
M  V30 22 H 2.3836 -2.1835 1.2645 0
M  V30 23 H 1.5638 -0.8054 2.0805 0
M  V30 24 H -0.466 4.2027 -0.5061 0
M  V30 25 H -2.531 -0.4153 -1.7059 0
M  V30 26 H -1.4346 -1.7151 -1.1362 0
M  V30 27 H -3.1379 -1.6694 -0.5697 0
M  V30 28 H -1.2228 -1.9134 1.5175 0
M  V30 29 H -1.0672 -0.33 2.3827 0
M  V30 30 H -2.6683 -1.1055 2.1498 0
M  V30 END ATOM
M  V30 BEGIN BOND
M  V30 1 2 1 2
M  V30 2 1 1 3
M  V30 3 1 1 4
M  V30 4 1 2 5
M  V30 5 1 2 6
M  V30 6 2 3 7
M  V30 7 1 4 8
M  V30 8 1 4 9
M  V30 9 2 5 10
M  V30 10 1 6 11
M  V30 11 1 6 12
M  V30 12 1 7 10
M  V30 13 1 3 13
M  V30 14 1 4 14
M  V30 15 1 5 15
M  V30 16 1 6 16
M  V30 17 1 7 17
M  V30 18 1 8 18
M  V30 19 1 8 19
M  V30 20 1 8 20
M  V30 21 1 9 21
M  V30 22 1 9 22
M  V30 23 1 9 23
M  V30 24 1 10 24
M  V30 25 1 11 25
M  V30 26 1 11 26
M  V30 27 1 11 27
M  V30 28 1 12 28
M  V30 29 1 12 29
M  V30 30 1 12 30
M  V30 END BOND
M  V30 END CTAB
M  END
>  <Structure No>
1143

>  <LogS>
-6.602799271

>  <MMFF94 Energy>
34.163

$$$$
Compound 1144
Actelion Java MolfileCreator 2.0

  0  0  0  0  0  0              0 V3000
M  V30 BEGIN CTAB
M  V30 COUNTS 30 30 0 0 0
M  V30 BEGIN ATOM
M  V30 1 C 1.0153 -0.5466 0.7028 0
M  V30 2 C -0.034 0.0436 -0.0276 0
M  V30 3 C 0.9001 -1.8905 1.0951 0
M  V30 4 C 2.2571 0.2455 1.0677 0
M  V30 5 C -1.1847 -0.6952 -0.3638 0
M  V30 6 C -0.2377 -2.6286 0.765 0
M  V30 7 C 3.0056 0.7091 -0.1876 0
M  V30 8 C 1.9088 1.4334 1.9729 0
M  V30 9 C -1.2743 -2.0375 0.0406 0
M  V30 10 C -2.3181 -0.0636 -1.1508 0
M  V30 11 C -2.9423 1.1055 -0.3794 0
M  V30 12 C -1.8455 0.3811 -2.5401 0
M  V30 13 H 0.0447 1.0781 -0.3343 0
M  V30 14 H 1.6912 -2.3705 1.6576 0
M  V30 15 H 2.9559 -0.4045 1.6404 0
M  V30 16 H -0.3167 -3.6636 1.072 0
M  V30 17 H 3.959 1.2021 0.0988 0
M  V30 18 H 3.2462 -0.164 -0.8311 0
M  V30 19 H 2.3981 1.4309 -0.774 0
M  V30 20 H 1.2747 2.1729 1.4392 0
M  V30 21 H 1.3652 1.0782 2.8746 0
M  V30 22 H 2.8384 1.9422 2.3064 0
M  V30 23 H -2.1472 -2.6299 -0.2037 0
M  V30 24 H -3.1239 -0.8155 -1.3077 0
M  V30 25 H -3.2756 0.7645 0.6241 0
M  V30 26 H -2.2166 1.9369 -0.2537 0
M  V30 27 H -3.8289 1.4916 -0.9266 0
M  V30 28 H -2.7082 0.7514 -3.1342 0
M  V30 29 H -1.0931 1.1949 -2.4669 0
M  V30 30 H -1.3944 -0.4778 -3.0815 0
M  V30 END ATOM
M  V30 BEGIN BOND
M  V30 1 2 1 2
M  V30 2 1 1 3
M  V30 3 1 1 4
M  V30 4 1 2 5
M  V30 5 2 3 6
M  V30 6 1 4 7
M  V30 7 1 4 8
M  V30 8 2 5 9
M  V30 9 1 5 10
M  V30 10 1 10 11
M  V30 11 1 10 12
M  V30 12 1 6 9
M  V30 13 1 2 13
M  V30 14 1 3 14
M  V30 15 1 4 15
M  V30 16 1 6 16
M  V30 17 1 7 17
M  V30 18 1 7 18
M  V30 19 1 7 19
M  V30 20 1 8 20
M  V30 21 1 8 21
M  V30 22 1 8 22
M  V30 23 1 9 23
M  V30 24 1 10 24
M  V30 25 1 11 25
M  V30 26 1 11 26
M  V30 27 1 11 27
M  V30 28 1 12 28
M  V30 29 1 12 29
M  V30 30 1 12 30
M  V30 END BOND
M  V30 END CTAB
M  END
>  <Structure No>
1144

>  <LogS>
-6.602799271

>  <MMFF94 Energy>
29.546

$$$$
Compound 1145
Actelion Java MolfileCreator 2.0

  0  0  0  0  0  0              0 V3000
M  V30 BEGIN CTAB
M  V30 COUNTS 111 110 0 0 0
M  V30 BEGIN ATOM
M  V30 1 O 0.8598 0.938 -3.2079 0
M  V30 2 C 0.9107 -0.246 -2.7746 0
M  V30 3 N -0.0477 -1.2241 -3.2104 0
M  V30 4 C 2.0117 -0.6342 -1.8339 0
M  V30 5 C -0.9591 -1.0033 -4.3395 0 CFG=2
M  V30 6 C 3.3293 -0.8045 -2.5983 0
M  V30 7 C -2.4284 -1.1617 -3.8745 0 CFG=2
M  V30 8 C -0.599 -1.9978 -5.4607 0
M  V30 9 C 4.4563 -1.2727 -1.6659 0
M  V30 10 O -3.2823 -0.9582 -4.9712 0
M  V30 11 C -2.7657 -0.1458 -2.7589 0
M  V30 12 O -1.2598 -1.679 -6.657 0
M  V30 13 C 5.7943 -1.44 -2.4046 0
M  V30 14 C -4.2354 -0.2081 -2.2924 0
M  V30 15 C 6.5041 -0.0992 -2.6423 0
M  V30 16 C -5.1515 0.7188 -3.1126 0
M  V30 17 C 7.8233 -0.3027 -3.4023 0
M  V30 18 C -6.5647 0.8342 -2.5223 0
M  V30 19 C 8.585 1.0165 -3.6014 0
M  V30 20 C -7.3465 -0.4897 -2.5826 0
M  V30 21 C 9.0949 1.5743 -2.2997 0
M  V30 22 C -8.8667 -0.2937 -2.4307 0
M  V30 23 C 10.0901 0.9791 -1.6252 0
M  V30 24 C -9.307 0.3713 -1.1133 0
M  V30 25 C 10.5841 1.5194 -0.3122 0
M  V30 26 C -9.0773 -0.5252 0.1148 0
M  V30 27 C 9.5563 1.2776 0.8036 0
M  V30 28 C -9.4937 0.1543 1.4306 0
M  V30 29 C 9.9575 1.9231 2.1427 0
M  V30 30 C -11.0215 0.229 1.6023 0
M  V30 31 C 11.2666 1.3973 2.7608 0
M  V30 32 C -11.4374 0.9037 2.9198 0
M  V30 33 C 11.1957 -0.0918 3.1407 0
M  V30 34 C -11.1636 0.0256 4.1536 0
M  V30 35 C 12.4965 -0.6107 3.782 0
M  V30 36 C -11.7651 0.6268 5.4427 0
M  V30 37 C 12.8623 0.0313 5.1324 0
M  V30 38 C -13.0656 -0.0593 5.8923 0
M  V30 39 C 11.7997 -0.1893 6.2075 0
M  V30 40 C -14.2292 0.1748 4.9318 0
M  V30 41 H -0.0435 -2.166 -2.7574 0
M  V30 42 H 2.1266 0.1558 -1.0609 0
M  V30 43 H 1.749 -1.5818 -1.3171 0
M  V30 44 H -0.8291 0.025 -4.7437 0
M  V30 45 H 3.1885 -1.5533 -3.4096 0
M  V30 46 H 3.5991 0.1677 -3.0623 0
M  V30 47 H -2.5537 -2.1921 -3.4597 0
M  V30 48 H -0.8821 -3.0293 -5.1582 0
M  V30 49 H 0.5027 -1.9936 -5.6292 0
M  V30 50 H 4.5758 -0.56 -0.8207 0
M  V30 51 H 4.1717 -2.258 -1.2366 0
M  V30 52 H -3.9588 -1.6855 -4.9602 0
M  V30 53 H -2.1264 -0.3682 -1.8765 0
M  V30 54 H -2.507 0.8846 -3.089 0
M  V30 55 H -0.7894 -0.8918 -7.0398 0
M  V30 56 H 5.6305 -1.9647 -3.3709 0
M  V30 57 H 6.456 -2.0819 -1.7831 0
M  V30 58 H -4.2742 0.113 -1.2272 0
M  V30 59 H -4.6048 -1.2552 -2.3365 0
M  V30 60 H 5.853 0.5788 -3.2333 0
M  V30 61 H 6.709 0.3787 -1.6591 0
M  V30 62 H -5.2242 0.3688 -4.1625 0
M  V30 63 H -4.7102 1.7391 -3.1314 0
M  V30 64 H 7.5989 -0.7318 -4.403 0
M  V30 65 H 8.4662 -1.0305 -2.861 0
M  V30 66 H -7.1111 1.6091 -3.103 0
M  V30 67 H -6.4963 1.1857 -1.4704 0
M  V30 68 H 7.914 1.7615 -4.0817 0
M  V30 69 H 9.4428 0.8482 -4.2889 0
M  V30 70 H -7.1706 -0.9757 -3.567 0
M  V30 71 H -6.9725 -1.188 -1.8061 0
M  V30 72 H 8.6405 2.4816 -1.9091 0
M  V30 73 H -9.2298 0.3291 -3.2783 0
M  V30 74 H -9.3675 -1.2828 -2.5239 0
M  V30 75 H 10.5691 0.0929 -2.0353 0
M  V30 76 H -8.7921 1.3453 -0.9802 0
M  V30 77 H -10.3911 0.5888 -1.2065 0
M  V30 78 H 10.801 2.6054 -0.412 0
M  V30 79 H 11.5314 0.9968 -0.0646 0
M  V30 80 H -9.627 -1.4838 -0.0053 0
M  V30 81 H -7.996 -0.7649 0.1923 0
M  V30 82 H 8.5823 1.7215 0.5008 0
M  V30 83 H 9.3856 0.188 0.9329 0
M  V30 84 H -9.0513 1.1738 1.4819 0
M  V30 85 H -9.0625 -0.4415 2.262 0
M  V30 86 H 9.1314 1.7689 2.8713 0
M  V30 87 H 10.0556 3.0206 1.9936 0
M  V30 88 H -11.4621 -0.7905 1.5453 0
M  V30 89 H -11.4541 0.8289 0.7745 0
M  V30 90 H 11.4511 1.9963 3.6768 0
M  V30 91 H 12.1207 1.5774 2.0751 0
M  V30 92 H -10.9081 1.8752 3.0266 0
M  V30 93 H -12.5227 1.1254 2.859 0
M  V30 94 H 10.3326 -0.276 3.8145 0
M  V30 95 H 11.0279 -0.6926 2.2227 0
M  V30 96 H -11.5481 -1.0042 3.9865 0
M  V30 97 H -10.0646 -0.0548 4.2928 0
M  V30 98 H 12.4037 -1.7099 3.9243 0
M  V30 99 H 13.3362 -0.4471 3.0723 0
M  V30 100 H -11.9309 1.7214 5.3387 0
M  V30 101 H -11.0262 0.499 6.2644 0
M  V30 102 H 13.8115 -0.4278 5.4848 0
M  V30 103 H 13.0567 1.1175 5.0137 0
M  V30 104 H -12.897 -1.151 6.0128 0
M  V30 105 H -13.3486 0.345 6.8881 0
M  V30 106 H 12.1883 0.1576 7.188 0
M  V30 107 H 11.5468 -1.2678 6.289 0
M  V30 108 H 10.8832 0.3924 5.9769 0
M  V30 109 H -14.0496 -0.344 3.9679 0
M  V30 110 H -14.3715 1.2613 4.7523 0
M  V30 111 H -15.1614 -0.2364 5.3741 0
M  V30 END ATOM
M  V30 BEGIN BOND
M  V30 1 2 1 2
M  V30 2 1 2 3
M  V30 3 1 2 4
M  V30 4 1 3 5
M  V30 5 1 4 6
M  V30 6 1 5 7
M  V30 7 1 5 8
M  V30 8 1 6 9
M  V30 9 1 7 10
M  V30 10 1 7 11
M  V30 11 1 8 12
M  V30 12 1 9 13
M  V30 13 1 11 14
M  V30 14 1 13 15
M  V30 15 1 14 16
M  V30 16 1 15 17
M  V30 17 1 16 18
M  V30 18 1 17 19
M  V30 19 1 18 20
M  V30 20 1 19 21
M  V30 21 1 20 22
M  V30 22 2 21 23
M  V30 23 1 22 24
M  V30 24 1 23 25
M  V30 25 1 24 26
M  V30 26 1 25 27
M  V30 27 1 26 28
M  V30 28 1 27 29
M  V30 29 1 28 30
M  V30 30 1 29 31
M  V30 31 1 30 32
M  V30 32 1 31 33
M  V30 33 1 32 34
M  V30 34 1 33 35
M  V30 35 1 34 36
M  V30 36 1 35 37
M  V30 37 1 36 38
M  V30 38 1 37 39
M  V30 39 1 38 40
M  V30 40 1 3 41
M  V30 41 1 4 42
M  V30 42 1 4 43
M  V30 43 1 5 44
M  V30 44 1 6 45
M  V30 45 1 6 46
M  V30 46 1 7 47
M  V30 47 1 8 48
M  V30 48 1 8 49
M  V30 49 1 9 50
M  V30 50 1 9 51
M  V30 51 1 10 52
M  V30 52 1 11 53
M  V30 53 1 11 54
M  V30 54 1 12 55
M  V30 55 1 13 56
M  V30 56 1 13 57
M  V30 57 1 14 58
M  V30 58 1 14 59
M  V30 59 1 15 60
M  V30 60 1 15 61
M  V30 61 1 16 62
M  V30 62 1 16 63
M  V30 63 1 17 64
M  V30 64 1 17 65
M  V30 65 1 18 66
M  V30 66 1 18 67
M  V30 67 1 19 68
M  V30 68 1 19 69
M  V30 69 1 20 70
M  V30 70 1 20 71
M  V30 71 1 21 72
M  V30 72 1 22 73
M  V30 73 1 22 74
M  V30 74 1 23 75
M  V30 75 1 24 76
M  V30 76 1 24 77
M  V30 77 1 25 78
M  V30 78 1 25 79
M  V30 79 1 26 80
M  V30 80 1 26 81
M  V30 81 1 27 82
M  V30 82 1 27 83
M  V30 83 1 28 84
M  V30 84 1 28 85
M  V30 85 1 29 86
M  V30 86 1 29 87
M  V30 87 1 30 88
M  V30 88 1 30 89
M  V30 89 1 31 90
M  V30 90 1 31 91
M  V30 91 1 32 92
M  V30 92 1 32 93
M  V30 93 1 33 94
M  V30 94 1 33 95
M  V30 95 1 34 96
M  V30 96 1 34 97
M  V30 97 1 35 98
M  V30 98 1 35 99
M  V30 99 1 36 100
M  V30 100 1 36 101
M  V30 101 1 37 102
M  V30 102 1 37 103
M  V30 103 1 38 104
M  V30 104 1 38 105
M  V30 105 1 39 106
M  V30 106 1 39 107
M  V30 107 1 39 108
M  V30 108 1 40 109
M  V30 109 1 40 110
M  V30 110 1 40 111
M  V30 END BOND
M  V30 BEGIN COLLECTION
M  V30 MDLV30/STEABS ATOMS=(2 5 7)
M  V30 END COLLECTION
M  V30 END CTAB
M  END
>  <Structure No>
1145

>  <LogS>
-6.451761881

>  <MMFF94 Energy>
15.212

$$$$
Compound 1146
Actelion Java MolfileCreator 2.0

  0  0  0  0  0  0              0 V3000
M  V30 BEGIN CTAB
M  V30 COUNTS 49 48 0 0 0
M  V30 BEGIN ATOM
M  V30 1 O -7.6927 1.5662 0.2348 0
M  V30 2 C -7.0701 1.6567 -0.8557 0
M  V30 3 O -6.5328 2.8779 -1.2419 0 CHG=-1
M  V30 4 C -6.8764 0.4465 -1.7171 0
M  V30 5 C -5.4647 -0.1354 -1.5683 0
M  V30 6 C -5.2328 -0.7454 -0.1749 0
M  V30 7 C -3.8969 -1.4982 -0.074 0
M  V30 8 C -2.6835 -0.5562 -0.0948 0
M  V30 9 C -1.3825 -1.3343 0.154 0
M  V30 10 C -0.127 -0.4611 -0.0036 0
M  V30 11 C 0.0548 0.5274 1.1614 0
M  V30 12 C 1.3171 1.392 1.0105 0
M  V30 13 C 2.6084 0.613 1.3042 0
M  V30 14 C 3.8328 1.5385 1.2461 0
M  V30 15 C 5.1308 0.8478 1.7027 0
M  V30 16 C 5.5569 -0.3638 0.8542 0
M  V30 17 C 5.8353 -3.0E-4 -0.6111 0
M  V30 18 C 6.4271 -1.1854 -1.3685 0
M  V30 19 H -7.6372 -0.326 -1.4702 0
M  V30 20 H -7.0333 0.7408 -2.7769 0
M  V30 21 H -5.3338 -0.9264 -2.3385 0
M  V30 22 H -4.7189 0.6631 -1.7689 0
M  V30 23 H -6.0497 -1.4682 0.0415 0
M  V30 24 H -5.2719 0.0488 0.6019 0
M  V30 25 H -3.8945 -2.0642 0.8832 0
M  V30 26 H -3.8179 -2.2369 -0.9014 0
M  V30 27 H -2.8141 0.2161 0.6922 0
M  V30 28 H -2.6202 -0.0529 -1.0827 0
M  V30 29 H -1.3169 -2.1638 -0.584 0
M  V30 30 H -1.3999 -1.7888 1.1689 0
M  V30 31 H -0.1703 0.0904 -0.9681 0
M  V30 32 H 0.7476 -1.1427 -0.0452 0
M  V30 33 H -0.8163 1.2147 1.1946 0
M  V30 34 H 0.0873 -0.0222 2.1274 0
M  V30 35 H 1.3591 1.8246 -0.0131 0
M  V30 36 H 1.2394 2.2374 1.7291 0
M  V30 37 H 2.5412 0.1526 2.3142 0
M  V30 38 H 2.7278 -0.191 0.5504 0
M  V30 39 H 3.9532 1.946 0.2201 0
M  V30 40 H 3.6611 2.4056 1.921 0
M  V30 41 H 5.9515 1.5978 1.6941 0
M  V30 42 H 5.0085 0.5155 2.7568 0
M  V30 43 H 4.7879 -1.1631 0.909 0
M  V30 44 H 6.486 -0.7773 1.3041 0
M  V30 45 H 4.8911 0.2971 -1.1145 0
M  V30 46 H 6.5489 0.8506 -0.6602 0
M  V30 47 H 6.6059 -0.8988 -2.4262 0
M  V30 48 H 7.3945 -1.4897 -0.9154 0
M  V30 49 H 5.7247 -2.0458 -1.3473 0
M  V30 END ATOM
M  V30 BEGIN BOND
M  V30 1 2 1 2
M  V30 2 1 2 3
M  V30 3 1 2 4
M  V30 4 1 4 5
M  V30 5 1 5 6
M  V30 6 1 6 7
M  V30 7 1 7 8
M  V30 8 1 8 9
M  V30 9 1 9 10
M  V30 10 1 10 11
M  V30 11 1 11 12
M  V30 12 1 12 13
M  V30 13 1 13 14
M  V30 14 1 14 15
M  V30 15 1 15 16
M  V30 16 1 16 17
M  V30 17 1 17 18
M  V30 18 1 4 19
M  V30 19 1 4 20
M  V30 20 1 5 21
M  V30 21 1 5 22
M  V30 22 1 6 23
M  V30 23 1 6 24
M  V30 24 1 7 25
M  V30 25 1 7 26
M  V30 26 1 8 27
M  V30 27 1 8 28
M  V30 28 1 9 29
M  V30 29 1 9 30
M  V30 30 1 10 31
M  V30 31 1 10 32
M  V30 32 1 11 33
M  V30 33 1 11 34
M  V30 34 1 12 35
M  V30 35 1 12 36
M  V30 36 1 13 37
M  V30 37 1 13 38
M  V30 38 1 14 39
M  V30 39 1 14 40
M  V30 40 1 15 41
M  V30 41 1 15 42
M  V30 42 1 16 43
M  V30 43 1 16 44
M  V30 44 1 17 45
M  V30 45 1 17 46
M  V30 46 1 18 47
M  V30 47 1 18 48
M  V30 48 1 18 49
M  V30 END BOND
M  V30 END CTAB
M  END
>  <Structure No>
1146

>  <LogS>
-6.806908841

>  <MMFF94 Energy>
0.93138

$$$$
Compound 1147
Actelion Java MolfileCreator 2.0

  0  0  0  0  0  0              0 V3000
M  V30 BEGIN CTAB
M  V30 COUNTS 30 32 0 0 0
M  V30 BEGIN ATOM
M  V30 1 O 3.2415 -0.8096 1.4577 0
M  V30 2 C 3.2101 -0.9535 0.2057 0
M  V30 3 O 2.1041 -0.5345 -0.5448 0
M  V30 4 C 4.3172 -1.6829 -0.4755 0
M  V30 5 C 1.1038 0.342 -0.0992 0
M  V30 6 C 1.2434 1.2444 0.8612 0
M  V30 7 C -0.2472 0.3795 -0.7237 0 CFG=2
M  V30 8 C 0.0015 2.0311 1.0841 0
M  V30 9 C -1.0008 1.4731 0.0547 0 CFG=2
M  V30 10 C -1.0846 -0.889 -0.4362 0 CFG=1
M  V30 11 C -2.1802 0.6871 0.6835 0 CFG=2
M  V30 12 C -1.5636 -0.6626 0.9824 0
M  V30 13 C -2.405 -0.7709 -1.2196 0
M  V30 14 C -3.1649 0.3216 -0.4436 0
M  V30 15 H 4.1208 -2.7743 -0.435 0
M  V30 16 H 5.2841 -1.4648 0.0252 0
M  V30 17 H 4.3835 -1.3632 -1.5364 0
M  V30 18 H 2.1589 1.4233 1.4073 0
M  V30 19 H -0.1654 0.6094 -1.8089 0
M  V30 20 H -0.3483 1.9042 2.131 0
M  V30 21 H 0.2037 3.1059 0.8882 0
M  V30 22 H -1.3556 2.2864 -0.6175 0
M  V30 23 H -0.5465 -1.8475 -0.6001 0
M  V30 24 H -2.6594 1.1856 1.5533 0
M  V30 25 H -0.7376 -0.6178 1.7264 0
M  V30 26 H -2.3111 -1.4194 1.3166 0
M  V30 27 H -2.2388 -0.4838 -2.2809 0
M  V30 28 H -2.9618 -1.7332 -1.1846 0
M  V30 29 H -4.1065 -0.0874 -0.0153 0
M  V30 30 H -3.4072 1.194 -1.089 0
M  V30 END ATOM
M  V30 BEGIN BOND
M  V30 1 2 1 2
M  V30 2 1 2 3
M  V30 3 1 2 4
M  V30 4 1 3 5
M  V30 5 2 5 6
M  V30 6 1 5 7
M  V30 7 1 6 8
M  V30 8 1 7 9
M  V30 9 1 7 10
M  V30 10 1 9 11
M  V30 11 1 10 12
M  V30 12 1 10 13
M  V30 13 1 11 14
M  V30 14 1 8 9
M  V30 15 1 11 12
M  V30 16 1 13 14
M  V30 17 1 4 15
M  V30 18 1 4 16
M  V30 19 1 4 17
M  V30 20 1 6 18
M  V30 21 1 7 19
M  V30 22 1 8 20
M  V30 23 1 8 21
M  V30 24 1 9 22
M  V30 25 1 10 23
M  V30 26 1 11 24
M  V30 27 1 12 25
M  V30 28 1 12 26
M  V30 29 1 13 27
M  V30 30 1 13 28
M  V30 31 1 14 29
M  V30 32 1 14 30
M  V30 END BOND
M  V30 BEGIN COLLECTION
M  V30 MDLV30/STEABS ATOMS=(4 7 9 10 11)
M  V30 END COLLECTION
M  V30 END CTAB
M  END
>  <Structure No>
1147

>  <LogS>
-3.009726571

>  <MMFF94 Energy>
47.402

$$$$
Compound 1148
Actelion Java MolfileCreator 2.0

  0  0  0  0  0  0              0 V3000
M  V30 BEGIN CTAB
M  V30 COUNTS 59 58 0 0 0
M  V30 BEGIN ATOM
M  V30 1 O -1.6464 0.9405 -2.6667 0
M  V30 2 C -2.2291 0.7441 -1.5638 0
M  V30 3 O -1.5184 0.8012 -0.3594 0
M  V30 4 C -3.6953 0.4349 -1.5384 0
M  V30 5 C -0.1229 1.0727 -0.2992 0
M  V30 6 C -3.9351 -0.9666 -0.9589 0
M  V30 7 C 0.3539 0.9335 1.1472 0
M  V30 8 C -5.3915 -1.4379 -1.1071 0
M  V30 9 C 1.8511 1.2356 1.2948 0
M  V30 10 C -6.4004 -0.5973 -0.2932 0
M  V30 11 O 2.6419 0.3972 0.4527 0
M  V30 12 C -7.1771 0.3911 -1.184 0
M  V30 13 C 2.8369 -0.97 0.6811 0
M  V30 14 C -8.0455 1.3651 -0.3737 0
M  V30 15 O 2.315 -1.5389 1.6805 0
M  V30 16 C 3.6257 -1.7693 -0.3126 0
M  V30 17 C -9.2189 0.6762 0.3237 0
M  V30 18 C 4.594 -2.7651 0.3456 0
M  V30 19 C 5.6546 -2.1167 1.2563 0
M  V30 20 C 6.6763 -1.2404 0.4981 0
M  V30 21 C 6.4112 0.2628 0.686 0
M  V30 22 C 7.4727 1.1029 -0.036 0
M  V30 23 C 7.2549 2.5937 0.2027 0
M  V30 24 H -4.1956 1.1975 -0.9018 0
M  V30 25 H -4.1137 0.5016 -2.5685 0
M  V30 26 H 0.0682 2.105 -0.6641 0
M  V30 27 H 0.4211 0.3492 -0.9455 0
M  V30 28 H -3.2813 -1.696 -1.4876 0
M  V30 29 H -3.6495 -0.9794 0.1174 0
M  V30 30 H -0.2182 1.6402 1.7882 0
M  V30 31 H 0.1409 -0.0965 1.5064 0
M  V30 32 H -5.4361 -2.4875 -0.7398 0
M  V30 33 H -5.6703 -1.4733 -2.1829 0
M  V30 34 H 2.0377 2.2949 1.0159 0
M  V30 35 H 2.1605 1.1054 2.3551 0
M  V30 36 H -5.8873 -0.0503 0.5315 0
M  V30 37 H -7.1274 -1.2946 0.1788 0
M  V30 38 H -6.4619 0.9938 -1.7827 0
M  V30 39 H -7.8165 -0.1735 -1.8984 0
M  V30 40 H -8.4564 2.1267 -1.0686 0
M  V30 41 H -7.424 1.8978 0.3764 0
M  V30 42 H 2.9117 -2.3382 -0.9413 0
M  V30 43 H 4.1828 -1.0889 -0.9866 0
M  V30 44 H -9.8762 1.444 0.7857 0
M  V30 45 H -9.8197 0.0952 -0.4098 0
M  V30 46 H -8.857 -6.0E-4 1.1273 0
M  V30 47 H 5.1041 -3.3477 -0.4516 0
M  V30 48 H 4.0091 -3.4949 0.9491 0
M  V30 49 H 5.1637 -1.5505 2.0772 0
M  V30 50 H 6.2112 -2.9458 1.7478 0
M  V30 51 H 7.6942 -1.4662 0.8938 0
M  V30 52 H 6.6848 -1.4891 -0.5858 0
M  V30 53 H 6.4345 0.5053 1.7728 0
M  V30 54 H 5.4071 0.5238 0.2898 0
M  V30 55 H 7.432 0.9041 -1.1291 0
M  V30 56 H 8.4846 0.8262 0.3344 0
M  V30 57 H 7.2987 2.8204 1.2903 0
M  V30 58 H 6.2685 2.9088 -0.1988 0
M  V30 59 H 8.0518 3.172 -0.3121 0
M  V30 END ATOM
M  V30 BEGIN BOND
M  V30 1 2 1 2
M  V30 2 1 2 3
M  V30 3 1 2 4
M  V30 4 1 3 5
M  V30 5 1 4 6
M  V30 6 1 5 7
M  V30 7 1 6 8
M  V30 8 1 7 9
M  V30 9 1 8 10
M  V30 10 1 9 11
M  V30 11 1 10 12
M  V30 12 1 11 13
M  V30 13 1 12 14
M  V30 14 2 13 15
M  V30 15 1 13 16
M  V30 16 1 14 17
M  V30 17 1 16 18
M  V30 18 1 18 19
M  V30 19 1 19 20
M  V30 20 1 20 21
M  V30 21 1 21 22
M  V30 22 1 22 23
M  V30 23 1 4 24
M  V30 24 1 4 25
M  V30 25 1 5 26
M  V30 26 1 5 27
M  V30 27 1 6 28
M  V30 28 1 6 29
M  V30 29 1 7 30
M  V30 30 1 7 31
M  V30 31 1 8 32
M  V30 32 1 8 33
M  V30 33 1 9 34
M  V30 34 1 9 35
M  V30 35 1 10 36
M  V30 36 1 10 37
M  V30 37 1 12 38
M  V30 38 1 12 39
M  V30 39 1 14 40
M  V30 40 1 14 41
M  V30 41 1 16 42
M  V30 42 1 16 43
M  V30 43 1 17 44
M  V30 44 1 17 45
M  V30 45 1 17 46
M  V30 46 1 18 47
M  V30 47 1 18 48
M  V30 48 1 19 49
M  V30 49 1 19 50
M  V30 50 1 20 51
M  V30 51 1 20 52
M  V30 52 1 21 53
M  V30 53 1 21 54
M  V30 54 1 22 55
M  V30 55 1 22 56
M  V30 56 1 23 57
M  V30 57 1 23 58
M  V30 58 1 23 59
M  V30 END BOND
M  V30 END CTAB
M  END
>  <Structure No>
1148

>  <LogS>
-7.516526119

>  <MMFF94 Energy>
-24.942

$$$$
Compound 1149
Actelion Java MolfileCreator 2.0

  0  0  0  0  0  0              0 V3000
M  V30 BEGIN CTAB
M  V30 COUNTS 36 36 0 0 0
M  V30 BEGIN ATOM
M  V30 1 O 1.4978 -1.8134 -1.5767 0
M  V30 2 C 1.4062 -1.413 -0.4249 0
M  V30 3 C 0.0761 -0.9118 0.0951 0 CFG=1
M  V30 4 C 2.6295 -1.4219 0.4569 0
M  V30 5 C -0.4547 0.2445 -0.7731 0
M  V30 6 C -0.9575 -2.0613 0.1745 0
M  V30 7 C 3.6312 -0.3335 0.048 0
M  V30 8 C -1.7358 0.8932 -0.1563 0
M  V30 9 C -2.4192 -1.5698 0.1163 0
M  V30 10 C 3.0553 1.0529 0.1751 0
M  V30 11 C -2.566 -0.145 0.666 0
M  V30 12 C -1.3291 2.0581 0.7728 0
M  V30 13 C -2.6059 1.4665 -1.2958 0
M  V30 14 C 2.7408 1.5825 1.3609 0
M  V30 15 H 0.2252 -0.5161 1.1239 0
M  V30 16 H 2.3482 -1.2906 1.5235 0
M  V30 17 H 3.1205 -2.4155 0.3758 0
M  V30 18 H -0.6777 -0.1619 -1.7857 0
M  V30 19 H 0.3384 1.0114 -0.9135 0
M  V30 20 H -0.8065 -2.7849 -0.6566 0
M  V30 21 H -0.7954 -2.6165 1.1245 0
M  V30 22 H 4.5391 -0.4121 0.6844 0
M  V30 23 H 3.9461 -0.5004 -1.0047 0
M  V30 24 H -2.7768 -1.5918 -0.9359 0
M  V30 25 H -3.0648 -2.261 0.7001 0
M  V30 26 H 2.9066 1.6442 -0.7233 0
M  V30 27 H -2.2322 -0.16 1.7279 0
M  V30 28 H -3.6429 0.1329 0.6827 0
M  V30 29 H -0.6582 1.7019 1.5834 0
M  V30 30 H -2.2273 2.5161 1.2408 0
M  V30 31 H -0.7922 2.8483 0.2044 0
M  V30 32 H -3.4941 1.9953 -0.8872 0
M  V30 33 H -2.9643 0.6551 -1.9644 0
M  V30 34 H -2.0222 2.1887 -1.9067 0
M  V30 35 H 2.3289 2.5849 1.415 0
M  V30 36 H 2.8896 1.025 2.2802 0
M  V30 END ATOM
M  V30 BEGIN BOND
M  V30 1 2 1 2
M  V30 2 1 2 3
M  V30 3 1 2 4
M  V30 4 1 3 5
M  V30 5 1 3 6
M  V30 6 1 4 7
M  V30 7 1 5 8
M  V30 8 1 6 9
M  V30 9 1 7 10
M  V30 10 1 8 11
M  V30 11 1 8 12
M  V30 12 1 8 13
M  V30 13 2 10 14
M  V30 14 1 9 11
M  V30 15 1 3 15
M  V30 16 1 4 16
M  V30 17 1 4 17
M  V30 18 1 5 18
M  V30 19 1 5 19
M  V30 20 1 6 20
M  V30 21 1 6 21
M  V30 22 1 7 22
M  V30 23 1 7 23
M  V30 24 1 9 24
M  V30 25 1 9 25
M  V30 26 1 10 26
M  V30 27 1 11 27
M  V30 28 1 11 28
M  V30 29 1 12 29
M  V30 30 1 12 30
M  V30 31 1 12 31
M  V30 32 1 13 32
M  V30 33 1 13 33
M  V30 34 1 13 34
M  V30 35 1 14 35
M  V30 36 1 14 36
M  V30 END BOND
M  V30 BEGIN COLLECTION
M  V30 MDLV30/STEABS ATOMS=(1 3)
M  V30 END COLLECTION
M  V30 END CTAB
M  END
>  <Structure No>
1149

>  <LogS>
-4.77931051

>  <MMFF94 Energy>
28.224

$$$$
Compound 1150
Actelion Java MolfileCreator 2.0

  0  0  0  0  0  0              0 V3000
M  V30 BEGIN CTAB
M  V30 COUNTS 28 30 0 0 0
M  V30 BEGIN ATOM
M  V30 1 N -0.3968 0.7143 0.3968 0
M  V30 2 C -0.9298 -0.5231 0.2295 0
M  V30 3 C 0.9425 0.5433 0.2553 0
M  V30 4 C -1.1183 1.9764 0.5859 0
M  V30 5 C 0.0573 -1.4643 0.01 0
M  V30 6 C -2.2804 -0.888 0.2388 0
M  V30 7 C 1.2532 -0.7833 0.0265 0
M  V30 8 C 1.9448 1.5184 0.297 0
M  V30 9 C -1.4549 2.6 -0.7626 0
M  V30 10 C -0.2343 -2.8106 -0.2018 0
M  V30 11 C -2.6022 -2.2418 0.0307 0
M  V30 12 C 2.564 -1.2168 -0.163 0
M  V30 13 C 3.2775 1.1069 0.1118 0
M  V30 14 C -1.5857 -3.1973 -0.1865 0
M  V30 15 C 3.5853 -0.2521 -0.115 0
M  V30 16 H -2.0528 1.8025 1.1599 0
M  V30 17 H -0.5041 2.6846 1.1811 0
M  V30 18 H -3.0647 -0.1599 0.3952 0
M  V30 19 H 1.7153 2.5624 0.4612 0
M  V30 20 H -2.0006 3.5545 -0.6075 0
M  V30 21 H -0.5231 2.8067 -1.3304 0
M  V30 22 H -2.0965 1.9109 -1.3518 0
M  V30 23 H 0.5495 -3.536 -0.3768 0
M  V30 24 H -3.6388 -2.5529 0.0339 0
M  V30 25 H 2.7917 -2.2589 -0.3458 0
M  V30 26 H 4.0736 1.8396 0.1405 0
M  V30 27 H -1.8488 -4.2346 -0.3476 0
M  V30 28 H 4.6149 -0.553 -0.2582 0
M  V30 END ATOM
M  V30 BEGIN BOND
M  V30 1 1 1 2
M  V30 2 1 1 3
M  V30 3 1 1 4
M  V30 4 2 2 5
M  V30 5 1 2 6
M  V30 6 2 3 7
M  V30 7 1 3 8
M  V30 8 1 4 9
M  V30 9 1 5 10
M  V30 10 2 6 11
M  V30 11 1 7 12
M  V30 12 2 8 13
M  V30 13 2 10 14
M  V30 14 2 12 15
M  V30 15 1 5 7
M  V30 16 1 11 14
M  V30 17 1 13 15
M  V30 18 1 4 16
M  V30 19 1 4 17
M  V30 20 1 6 18
M  V30 21 1 8 19
M  V30 22 1 9 20
M  V30 23 1 9 21
M  V30 24 1 9 22
M  V30 25 1 10 23
M  V30 26 1 11 24
M  V30 27 1 12 25
M  V30 28 1 13 26
M  V30 29 1 14 27
M  V30 30 1 15 28
M  V30 END BOND
M  V30 END CTAB
M  END
>  <Structure No>
1150

>  <LogS>
-6.813503151

>  <MMFF94 Energy>
32.036

$$$$
Compound 1151
Actelion Java MolfileCreator 2.0

  0  0  0  0  0  0              0 V3000
M  V30 BEGIN CTAB
M  V30 COUNTS 58 59 0 0 0
M  V30 BEGIN ATOM
M  V30 1 O -5.0548 0.7096 0.0788 0
M  V30 2 C -4.3714 1.1197 1.246 0 CFG=2
M  V30 3 C -4.2369 0.9039 -1.0594 0
M  V30 4 O -3.4352 0.1174 1.6106 0
M  V30 5 C -5.3945 1.2628 2.3688 0
M  V30 6 C -4.9013 0.289 -2.3023 0
M  V30 7 C -2.2112 0.6939 2.0138 0
M  V30 8 C -5.0628 -1.2293 -2.1496 0
M  V30 9 C -6.2536 0.9523 -2.5981 0
M  V30 10 C -1.2522 -0.4222 2.4307 0
M  V30 11 N 0.1068 0.1021 2.6479 0
M  V30 12 C 1.1133 0.0314 1.5993 0
M  V30 13 C 0.4156 0.6921 3.9616 0
M  V30 14 C 0.7429 -0.0185 0.238 0
M  V30 15 C 2.4892 0.006 1.9137 0
M  V30 16 C 0.7855 -0.3896 4.975 0
M  V30 17 C 1.711 -0.0924 -0.7666 0
M  V30 18 C 3.4546 -0.0723 0.906 0
M  V30 19 C 3.0688 -0.1232 -0.4429 0
M  V30 20 N 4.0323 -0.2167 -1.4987 0
M  V30 21 N 5.2841 -0.2773 -1.2721 0
M  V30 22 C 6.2457 -0.3785 -2.329 0
M  V30 23 C 5.8547 -0.4247 -3.6809 0
M  V30 24 C 7.6072 -0.4456 -2.0049 0
M  V30 25 C 6.8196 -0.5368 -4.687 0
M  V30 26 C 8.5693 -0.5574 -3.0138 0
M  V30 27 C 8.1755 -0.6044 -4.3537 0
M  V30 28 H -3.9213 2.136 1.0947 0
M  V30 29 H -4.0842 1.9921 -1.2401 0
M  V30 30 H -3.2371 0.4284 -0.9269 0
M  V30 31 H -6.1619 2.0158 2.0895 0
M  V30 32 H -4.894 1.5954 3.302 0
M  V30 33 H -5.8965 0.2905 2.5566 0
M  V30 34 H -4.2331 0.4751 -3.1731 0
M  V30 35 H -2.3691 1.3757 2.8798 0
M  V30 36 H -1.7624 1.2729 1.1763 0
M  V30 37 H -5.4868 -1.6639 -3.08 0
M  V30 38 H -4.0738 -1.7027 -1.9661 0
M  V30 39 H -5.7401 -1.4732 -1.3021 0
M  V30 40 H -6.1193 2.0466 -2.7367 0
M  V30 41 H -6.9706 0.7784 -1.7673 0
M  V30 42 H -6.6864 0.5369 -3.5336 0
M  V30 43 H -1.2401 -1.2281 1.6651 0
M  V30 44 H -1.6355 -0.8908 3.3632 0
M  V30 45 H 1.2386 1.433 3.876 0
M  V30 46 H -0.4644 1.2515 4.3448 0
M  V30 47 H -0.2936 0.0039 -0.0642 0
M  V30 48 H 2.8321 0.0326 2.9375 0
M  V30 49 H 1.5975 -1.0371 4.5857 0
M  V30 50 H -0.0971 -1.024 5.2036 0
M  V30 51 H 1.1278 0.0873 5.9172 0
M  V30 52 H 1.4012 -0.1302 -1.8038 0
M  V30 53 H 4.5014 -0.0973 1.1833 0
M  V30 54 H 4.8084 -0.3775 -3.9586 0
M  V30 55 H 7.9213 -0.4124 -0.969 0
M  V30 56 H 6.5157 -0.5737 -5.7252 0
M  V30 57 H 9.6195 -0.6098 -2.7567 0
M  V30 58 H 8.9208 -0.692 -5.1336 0
M  V30 END ATOM
M  V30 BEGIN BOND
M  V30 1 1 1 2
M  V30 2 1 1 3
M  V30 3 1 2 4
M  V30 4 1 2 5
M  V30 5 1 3 6
M  V30 6 1 4 7
M  V30 7 1 6 8
M  V30 8 1 6 9
M  V30 9 1 7 10
M  V30 10 1 10 11
M  V30 11 1 11 12
M  V30 12 1 11 13
M  V30 13 2 12 14
M  V30 14 1 12 15
M  V30 15 1 13 16
M  V30 16 1 14 17
M  V30 17 2 15 18
M  V30 18 2 17 19
M  V30 19 1 19 20
M  V30 20 2 20 21
M  V30 21 1 21 22
M  V30 22 2 22 23
M  V30 23 1 22 24
M  V30 24 1 23 25
M  V30 25 2 24 26
M  V30 26 2 25 27
M  V30 27 1 18 19
M  V30 28 1 26 27
M  V30 29 1 2 28
M  V30 30 1 3 29
M  V30 31 1 3 30
M  V30 32 1 5 31
M  V30 33 1 5 32
M  V30 34 1 5 33
M  V30 35 1 6 34
M  V30 36 1 7 35
M  V30 37 1 7 36
M  V30 38 1 8 37
M  V30 39 1 8 38
M  V30 40 1 8 39
M  V30 41 1 9 40
M  V30 42 1 9 41
M  V30 43 1 9 42
M  V30 44 1 10 43
M  V30 45 1 10 44
M  V30 46 1 13 45
M  V30 47 1 13 46
M  V30 48 1 14 47
M  V30 49 1 15 48
M  V30 50 1 16 49
M  V30 51 1 16 50
M  V30 52 1 16 51
M  V30 53 1 17 52
M  V30 54 1 18 53
M  V30 55 1 23 54
M  V30 56 1 24 55
M  V30 57 1 25 56
M  V30 58 1 26 57
M  V30 59 1 27 58
M  V30 END BOND
M  V30 BEGIN COLLECTION
M  V30 MDLV30/STEABS ATOMS=(1 2)
M  V30 END COLLECTION
M  V30 END CTAB
M  END
>  <Structure No>
1151

>  <LogS>
-7.090503766

>  <MMFF94 Energy>
56.041

$$$$
Compound 1152
Actelion Java MolfileCreator 2.0

  0  0  0  0  0  0              0 V3000
M  V30 BEGIN CTAB
M  V30 COUNTS 68 73 0 0 0
M  V30 BEGIN ATOM
M  V30 1 S 1.3121 2.1328 -2.7077 0
M  V30 2 C 2.5929 1.8735 -1.4847 0
M  V30 3 C 0.4094 0.5932 -2.316 0
M  V30 4 N 2.5099 2.483 -0.2775 0
M  V30 5 N 3.6077 1.0117 -1.7298 0
M  V30 6 C -0.1608 0.6323 -0.9264 0
M  V30 7 N 3.4292 2.2635 0.6622 0
M  V30 8 C 4.5497 0.7461 -0.7871 0
M  V30 9 C 0.445 0.0115 0.0968 0
M  V30 10 C 4.4724 1.4175 0.4557 0
M  V30 11 C 5.5614 -0.292 -1.0882 0
M  V30 12 C -0.1098 0.0641 1.4923 0
M  V30 13 C 5.4864 1.2746 1.5258 0
M  V30 14 C 5.8036 -1.3454 -0.1873 0
M  V30 15 C 6.2526 -0.2632 -2.3113 0
M  V30 16 S -0.762 -1.5715 1.9658 0
M  V30 17 C 5.0736 1.1013 2.8578 0
M  V30 18 C 6.8625 1.3492 1.2381 0
M  V30 19 C 6.7523 -2.3272 -0.4886 0
M  V30 20 C 7.1991 -1.2488 -2.6095 0
M  V30 21 C -2.2342 -1.4211 0.9584 0
M  V30 22 C 6.0203 0.963 3.8774 0
M  V30 23 C 7.8055 1.2091 2.2597 0
M  V30 24 C 7.4524 -2.2776 -1.6969 0
M  V30 25 N -2.2413 -1.8847 -0.3152 0
M  V30 26 N -3.3418 -0.8261 1.4609 0
M  V30 27 C 7.3849 1.0111 3.5777 0
M  V30 28 N -3.3186 -1.7401 -1.086 0
M  V30 29 C -4.4633 -0.6757 0.7093 0
M  V30 30 C -4.4464 -1.1311 -0.6301 0
M  V30 31 C -5.6525 -0.0703 1.3468 0
M  V30 32 C -5.5709 -0.9366 -1.5736 0
M  V30 33 C -5.5191 1.1261 2.0698 0
M  V30 34 C -6.9106 -0.6969 1.2816 0
M  V30 35 C -6.2022 0.3146 -1.7043 0
M  V30 36 C -5.9908 -2.0034 -2.3863 0
M  V30 37 C -6.6334 1.7078 2.6825 0
M  V30 38 C -8.0214 -0.1136 1.8978 0
M  V30 39 C -7.2657 0.4776 -2.5975 0
M  V30 40 C -7.0504 -1.8333 -3.283 0
M  V30 41 C -7.8847 1.092 2.5921 0
M  V30 42 C -7.6931 -0.5955 -3.3817 0
M  V30 43 H 1.0773 -0.2834 -2.4575 0
M  V30 44 H -0.4285 0.4904 -3.0338 0
M  V30 45 H -1.0701 1.2058 -0.7574 0
M  V30 46 H 1.3528 -0.5622 -0.0729 0
M  V30 47 H -0.9015 0.8423 1.5903 0
M  V30 48 H 0.7116 0.328 2.1926 0
M  V30 49 H 5.2563 -1.4094 0.7448 0
M  V30 50 H 6.0674 0.5276 -3.0277 0
M  V30 51 H 4.0196 1.0551 3.1039 0
M  V30 52 H 7.2072 1.5203 0.2255 0
M  V30 53 H 6.9421 -3.1296 0.2127 0
M  V30 54 H 7.7353 -1.2153 -3.5487 0
M  V30 55 H 5.6955 0.8155 4.9005 0
M  V30 56 H 8.8629 1.2582 2.0299 0
M  V30 57 H 8.1865 -3.0391 -1.9281 0
M  V30 58 H 8.1158 0.9017 4.3672 0
M  V30 59 H -4.5571 1.6181 2.1461 0
M  V30 60 H -7.0298 -1.6364 0.7569 0
M  V30 61 H -5.8739 1.1641 -1.1175 0
M  V30 62 H -5.5081 -2.9706 -2.3147 0
M  V30 63 H -6.5251 2.6381 3.2269 0
M  V30 64 H -8.9877 -0.5963 1.8365 0
M  V30 65 H -7.7601 1.4387 -2.6796 0
M  V30 66 H -7.3791 -2.6618 -3.8951 0
M  V30 67 H -8.7456 1.5453 3.0652 0
M  V30 68 H -8.5177 -0.4676 -4.0708 0
M  V30 END ATOM
M  V30 BEGIN BOND
M  V30 1 1 1 2
M  V30 2 1 1 3
M  V30 3 2 2 4
M  V30 4 1 2 5
M  V30 5 1 3 6
M  V30 6 1 4 7
M  V30 7 2 5 8
M  V30 8 2 6 9
M  V30 9 2 7 10
M  V30 10 1 8 11
M  V30 11 1 9 12
M  V30 12 1 10 13
M  V30 13 2 11 14
M  V30 14 1 11 15
M  V30 15 1 12 16
M  V30 16 2 13 17
M  V30 17 1 13 18
M  V30 18 1 14 19
M  V30 19 2 15 20
M  V30 20 1 16 21
M  V30 21 1 17 22
M  V30 22 2 18 23
M  V30 23 2 19 24
M  V30 24 2 21 25
M  V30 25 1 21 26
M  V30 26 2 22 27
M  V30 27 1 25 28
M  V30 28 2 26 29
M  V30 29 2 28 30
M  V30 30 1 29 31
M  V30 31 1 30 32
M  V30 32 2 31 33
M  V30 33 1 31 34
M  V30 34 2 32 35
M  V30 35 1 32 36
M  V30 36 1 33 37
M  V30 37 2 34 38
M  V30 38 1 35 39
M  V30 39 2 36 40
M  V30 40 2 37 41
M  V30 41 2 39 42
M  V30 42 1 8 10
M  V30 43 1 20 24
M  V30 44 1 23 27
M  V30 45 1 29 30
M  V30 46 1 38 41
M  V30 47 1 40 42
M  V30 48 1 3 43
M  V30 49 1 3 44
M  V30 50 1 6 45
M  V30 51 1 9 46
M  V30 52 1 12 47
M  V30 53 1 12 48
M  V30 54 1 14 49
M  V30 55 1 15 50
M  V30 56 1 17 51
M  V30 57 1 18 52
M  V30 58 1 19 53
M  V30 59 1 20 54
M  V30 60 1 22 55
M  V30 61 1 23 56
M  V30 62 1 24 57
M  V30 63 1 27 58
M  V30 64 1 33 59
M  V30 65 1 34 60
M  V30 66 1 35 61
M  V30 67 1 36 62
M  V30 68 1 37 63
M  V30 69 1 38 64
M  V30 70 1 39 65
M  V30 71 1 40 66
M  V30 72 1 41 67
M  V30 73 1 42 68
M  V30 END BOND
M  V30 END CTAB
M  END
>  <Structure No>
1152

>  <LogS>
-7.025125555

>  <MMFF94 Energy>
184.97

$$$$
Compound 1153
Actelion Java MolfileCreator 2.0

  0  0  0  0  0  0              0 V3000
M  V30 BEGIN CTAB
M  V30 COUNTS 44 45 0 0 0
M  V30 BEGIN ATOM
M  V30 1 O 2.9508 2.2324 2.7113 0
M  V30 2 C 2.6244 1.512 1.7302 0
M  V30 3 C 3.689 0.8615 0.9275 0
M  V30 4 C 1.1881 1.3967 1.4022 0
M  V30 5 C 4.9011 0.4931 1.5344 0
M  V30 6 C 3.5248 0.6446 -0.4517 0
M  V30 7 C 0.6045 0.248 1.0172 0
M  V30 8 C 5.9182 -0.1044 0.784 0
M  V30 9 C 4.5422 0.0472 -1.2005 0
M  V30 10 O 1.3631 -0.9156 0.9159 0 CHG=-1
M  V30 11 C -0.8425 0.1731 0.6925 0
M  V30 12 C 5.7433 -0.3339 -0.5932 0
M  V30 13 C -1.7932 0.9796 1.34 0
M  V30 14 C -1.2847 -0.7529 -0.2619 0
M  V30 15 O 6.7324 -0.931 -1.3885 0
M  V30 16 C -3.1489 0.877 1.0197 0
M  V30 17 C -2.6402 -0.8568 -0.5855 0
M  V30 18 C 7.9985 -1.3665 -0.9042 0
M  V30 19 C -3.6047 -0.0387 0.0468 0
M  V30 20 C -5.1109 -0.1197 -0.2775 0
M  V30 21 C -5.6051 1.2553 -0.7777 0
M  V30 22 C -5.8911 -0.5126 0.9957 0
M  V30 23 C -5.4409 -1.163 -1.3721 0
M  V30 24 H 0.5931 2.2915 1.528 0
M  V30 25 H 5.0577 0.6577 2.5935 0
M  V30 26 H 2.614 0.946 -0.9538 0
M  V30 27 H 6.8355 -0.3831 1.2844 0
M  V30 28 H 4.3983 -0.1162 -2.261 0
M  V30 29 H -1.4998 1.6749 2.1152 0
M  V30 30 H -0.5759 -1.3932 -0.7729 0
M  V30 31 H -3.8435 1.5174 1.5461 0
M  V30 32 H -2.9111 -1.585 -1.335 0
M  V30 33 H 8.5785 -1.7998 -1.7444 0
M  V30 34 H 8.5643 -0.5066 -0.4875 0
M  V30 35 H 7.8616 -2.1473 -0.1264 0
M  V30 36 H -5.023 1.5739 -1.6693 0
M  V30 37 H -6.6794 1.2097 -1.0599 0
M  V30 38 H -5.5012 2.0365 0.0039 0
M  V30 39 H -6.976 -0.618 0.7767 0
M  V30 40 H -5.5191 -1.4818 1.393 0
M  V30 41 H -5.7859 0.2536 1.7918 0
M  V30 42 H -5.144 -2.1841 -1.0488 0
M  V30 43 H -4.9254 -0.9139 -2.3247 0
M  V30 44 H -6.533 -1.1847 -1.5796 0
M  V30 END ATOM
M  V30 BEGIN BOND
M  V30 1 2 1 2
M  V30 2 1 2 3
M  V30 3 1 2 4
M  V30 4 2 3 5
M  V30 5 1 3 6
M  V30 6 2 4 7
M  V30 7 1 5 8
M  V30 8 2 6 9
M  V30 9 1 7 10
M  V30 10 1 7 11
M  V30 11 2 8 12
M  V30 12 2 11 13
M  V30 13 1 11 14
M  V30 14 1 12 15
M  V30 15 1 13 16
M  V30 16 2 14 17
M  V30 17 1 15 18
M  V30 18 2 16 19
M  V30 19 1 19 20
M  V30 20 1 20 21
M  V30 21 1 20 22
M  V30 22 1 20 23
M  V30 23 1 9 12
M  V30 24 1 17 19
M  V30 25 1 4 24
M  V30 26 1 5 25
M  V30 27 1 6 26
M  V30 28 1 8 27
M  V30 29 1 9 28
M  V30 30 1 13 29
M  V30 31 1 14 30
M  V30 32 1 16 31
M  V30 33 1 17 32
M  V30 34 1 18 33
M  V30 35 1 18 34
M  V30 36 1 18 35
M  V30 37 1 21 36
M  V30 38 1 21 37
M  V30 39 1 21 38
M  V30 40 1 22 39
M  V30 41 1 22 40
M  V30 42 1 22 41
M  V30 43 1 23 42
M  V30 44 1 23 43
M  V30 45 1 23 44
M  V30 END BOND
M  V30 END CTAB
M  END
>  <Structure No>
1153

>  <LogS>
-7.060548154

>  <MMFF94 Energy>
86.88

$$$$
Compound 1154
Actelion Java MolfileCreator 2.0

  0  0  0  0  0  0              0 V3000
M  V30 BEGIN CTAB
M  V30 COUNTS 75 79 0 0 0
M  V30 BEGIN ATOM
M  V30 1 O 5.2489 0.0805 4.6018 0
M  V30 2 C 4.9041 0.0 3.3951 0
M  V30 3 C 3.5773 0.2575 2.9767 0
M  V30 4 C 5.8641 -0.3865 2.4598 0
M  V30 5 C 3.2865 0.0524 1.6023 0
M  V30 6 C 2.5208 0.6655 3.8404 0
M  V30 7 C 5.4944 -0.5508 1.1189 0
M  V30 8 O 4.2383 -0.3201 0.7535 0
M  V30 9 C 1.9871 0.2198 1.1162 0
M  V30 10 O 2.6997 0.9954 5.1869 0
M  V30 11 C 1.2196 0.7703 3.3369 0
M  V30 12 C 6.4667 -0.9944 0.0917 0
M  V30 13 C 0.9407 0.5618 1.9851 0
M  V30 14 C 6.3029 -0.5845 -1.2413 0
M  V30 15 C 7.5205 -1.8696 0.4099 0
M  V30 16 O -0.3909 0.7022 1.5578 0
M  V30 17 C 7.1845 -1.0259 -2.2385 0
M  V30 18 C 8.3986 -2.315 -0.5823 0
M  V30 19 C -0.8386 0.7678 0.2002 0 CFG=1
M  V30 20 O 7.0166 -0.6078 -3.5585 0
M  V30 21 C 8.2357 -1.8953 -1.9164 0
M  V30 22 O -2.2432 0.5544 0.1601 0
M  V30 23 C -0.4146 2.1021 -0.4649 0 CFG=1
M  V30 24 O 9.09 -2.3238 -2.9453 0
M  V30 25 C -3.0572 1.6945 0.4436 0 CFG=2
M  V30 26 O -0.6584 2.0638 -1.8501 0
M  V30 27 C -1.088 3.3205 0.2241 0 CFG=2
M  V30 28 C 10.1631 -3.2429 -2.7682 0
M  V30 29 C -2.3097 2.9024 1.081 0 CFG=1
M  V30 30 C -4.2171 1.241 1.3517 0
M  V30 31 O -1.4002 4.3332 -0.7036 0
M  V30 32 O -3.1655 3.9982 1.3153 0
M  V30 33 O -4.9407 0.1681 0.776 0
M  V30 34 C -5.8076 0.6032 -0.2641 0 CFG=1
M  V30 35 O -5.2646 0.2449 -1.5263 0
M  V30 36 C -7.2234 0.0322 -0.0505 0 CFG=1
M  V30 37 C -5.413 -1.1246 -1.9037 0 CFG=1
M  V30 38 O -8.0857 0.5228 -1.0473 0
M  V30 39 C -7.1994 -1.5131 -0.0588 0 CFG=2
M  V30 40 C -5.9645 -2.0847 -0.8068 0 CFG=1
M  V30 41 C -6.2047 -1.1876 -3.2148 0
M  V30 42 O -8.4137 -2.0506 -0.5287 0
M  V30 43 O -6.2363 -3.3544 -1.346 0
M  V30 44 H 6.8848 -0.554 2.7831 0
M  V30 45 H 1.8056 0.0562 0.0637 0
M  V30 46 H 3.5776 1.2672 5.6001 0
M  V30 47 H 0.4141 1.0542 4.0027 0
M  V30 48 H 5.4906 0.0799 -1.5107 0
M  V30 49 H 7.6492 -2.238 1.4179 0
M  V30 50 H 9.1961 -2.9906 -0.3053 0
M  V30 51 H -0.3797 -0.0686 -0.3684 0
M  V30 52 H 6.2702 0.0237 -3.8234 0
M  V30 53 H 0.6835 2.2174 -0.3457 0
M  V30 54 H -3.4935 2.0415 -0.5167 0
M  V30 55 H -1.6216 1.8764 -1.9898 0
M  V30 56 H -0.3448 3.7558 0.931 0
M  V30 57 H 9.7784 -4.2119 -2.3883 0
M  V30 58 H 10.9087 -2.8253 -2.0602 0
M  V30 59 H 10.656 -3.4159 -3.7477 0
M  V30 60 H -1.9334 2.5815 2.0763 0
M  V30 61 H -4.888 2.0888 1.6225 0
M  V30 62 H -3.7856 0.877 2.3088 0
M  V30 63 H -2.1595 4.0177 -1.2585 0
M  V30 64 H -3.7008 4.1556 0.4945 0
M  V30 65 H -5.9324 1.7115 -0.2812 0
M  V30 66 H -7.596 0.3647 0.9485 0
M  V30 67 H -4.3945 -1.4954 -2.1504 0
M  V30 68 H -8.3182 1.4545 -0.7978 0
M  V30 69 H -7.1054 -1.8436 0.9993 0
M  V30 70 H -5.1423 -2.2014 -0.0619 0
M  V30 71 H -7.2269 -0.7833 -3.0882 0
M  V30 72 H -5.6918 -0.5723 -3.9848 0
M  V30 73 H -6.2618 -2.2273 -3.5974 0
M  V30 74 H -8.4548 -1.9048 -1.5091 0
M  V30 75 H -6.3689 -3.9711 -0.5784 0
M  V30 END ATOM
M  V30 BEGIN BOND
M  V30 1 2 1 2
M  V30 2 1 2 3
M  V30 3 1 2 4
M  V30 4 2 3 5
M  V30 5 1 3 6
M  V30 6 2 4 7
M  V30 7 1 5 8
M  V30 8 1 5 9
M  V30 9 1 6 10
M  V30 10 2 6 11
M  V30 11 1 7 12
M  V30 12 2 9 13
M  V30 13 2 12 14
M  V30 14 1 12 15
M  V30 15 1 13 16
M  V30 16 1 14 17
M  V30 17 2 15 18
M  V30 18 1 16 19
M  V30 19 1 17 20
M  V30 20 2 17 21
M  V30 21 1 19 22
M  V30 22 1 19 23
M  V30 23 1 21 24
M  V30 24 1 22 25
M  V30 25 1 23 26
M  V30 26 1 23 27
M  V30 27 1 24 28
M  V30 28 1 25 29
M  V30 29 1 25 30
M  V30 30 1 27 31
M  V30 31 1 29 32
M  V30 32 1 30 33
M  V30 33 1 33 34
M  V30 34 1 34 35
M  V30 35 1 34 36
M  V30 36 1 35 37
M  V30 37 1 36 38
M  V30 38 1 36 39
M  V30 39 1 37 40
M  V30 40 1 37 41
M  V30 41 1 39 42
M  V30 42 1 40 43
M  V30 43 1 7 8
M  V30 44 1 11 13
M  V30 45 1 18 21
M  V30 46 1 27 29
M  V30 47 1 39 40
M  V30 48 1 4 44
M  V30 49 1 9 45
M  V30 50 1 10 46
M  V30 51 1 11 47
M  V30 52 1 14 48
M  V30 53 1 15 49
M  V30 54 1 18 50
M  V30 55 1 19 51
M  V30 56 1 20 52
M  V30 57 1 23 53
M  V30 58 1 25 54
M  V30 59 1 26 55
M  V30 60 1 27 56
M  V30 61 1 28 57
M  V30 62 1 28 58
M  V30 63 1 28 59
M  V30 64 1 29 60
M  V30 65 1 30 61
M  V30 66 1 30 62
M  V30 67 1 31 63
M  V30 68 1 32 64
M  V30 69 1 34 65
M  V30 70 1 36 66
M  V30 71 1 37 67
M  V30 72 1 38 68
M  V30 73 1 39 69
M  V30 74 1 40 70
M  V30 75 1 41 71
M  V30 76 1 41 72
M  V30 77 1 41 73
M  V30 78 1 42 74
M  V30 79 1 43 75
M  V30 END BOND
M  V30 BEGIN COLLECTION
M  V30 MDLV30/STEABS ATOMS=(10 19 23 25 27 29 34 36 37 39 40)
M  V30 END COLLECTION
M  V30 END CTAB
M  END
>  <Structure No>
1154

>  <LogS>
-7.505541952

>  <MMFF94 Energy>
252.21

$$$$
Compound 1155
Actelion Java MolfileCreator 2.0

  0  0  0  0  0  0              0 V3000
M  V30 BEGIN CTAB
M  V30 COUNTS 36 39 0 0 0
M  V30 BEGIN ATOM
M  V30 1 O 1.0542 -2.5152 0.4053 0
M  V30 2 C 0.5876 -1.3531 0.5793 0
M  V30 3 N 1.4309 -0.2756 0.5756 0
M  V30 4 N -0.7577 -1.181 0.7589 0
M  V30 5 C 0.9141 0.9843 0.7071 0
M  V30 6 C 2.8786 -0.4666 0.3569 0
M  V30 7 C -1.2634 0.0836 0.8896 0
M  V30 8 C -1.6658 -2.3451 0.7378 0
M  V30 9 O 1.6824 1.987 0.6516 0
M  V30 10 N -0.4296 1.1684 0.8874 0
M  V30 11 C 3.1816 -0.4859 -1.1431 0 CFG=1
M  V30 12 O -2.5115 0.2515 1.0029 0
M  V30 13 C -2.1683 -2.589 -0.6871 0 CFG=1
M  V30 14 C -0.9834 2.5324 1.0042 0
M  V30 15 O 3.4647 0.7996 -1.6416 0
M  V30 16 C 4.5509 -0.0947 -1.5442 0
M  V30 17 O -1.3298 -3.4664 -1.4002 0
M  V30 18 C -2.5881 -3.9703 -1.0107 0
M  V30 19 C -1.2713 3.0997 -0.3877 0 CFG=1
M  V30 20 O -2.5792 2.8063 -0.8179 0
M  V30 21 C -2.313 4.147 -0.4705 0
M  V30 22 H 3.4633 0.3222 0.8817 0
M  V30 23 H 3.2194 -1.4265 0.8013 0
M  V30 24 H -2.542 -2.1718 1.3992 0
M  V30 25 H -1.1604 -3.2462 1.1526 0
M  V30 26 H 2.5867 -1.0992 -1.8522 0
M  V30 27 H -2.5615 -1.7642 -1.3181 0
M  V30 28 H -0.265 3.2048 1.5208 0
M  V30 29 H -1.8956 2.5336 1.6424 0
M  V30 30 H 5.2576 0.2158 -0.7458 0
M  V30 31 H 4.8818 -0.4339 -2.5475 0
M  V30 32 H -2.485 -4.7435 -0.2203 0
M  V30 33 H -3.2622 -4.0841 -1.8848 0
M  V30 34 H -0.5266 3.0403 -1.2093 0
M  V30 35 H -2.2836 4.7958 -1.3702 0
M  V30 36 H -2.8389 4.4325 0.4652 0
M  V30 END ATOM
M  V30 BEGIN BOND
M  V30 1 2 1 2
M  V30 2 1 2 3
M  V30 3 1 2 4
M  V30 4 1 3 5
M  V30 5 1 3 6
M  V30 6 1 4 7
M  V30 7 1 4 8
M  V30 8 2 5 9
M  V30 9 1 5 10
M  V30 10 1 6 11
M  V30 11 2 7 12
M  V30 12 1 8 13
M  V30 13 1 10 14
M  V30 14 1 11 15
M  V30 15 1 11 16
M  V30 16 1 13 17
M  V30 17 1 13 18
M  V30 18 1 14 19
M  V30 19 1 19 20
M  V30 20 1 19 21
M  V30 21 1 7 10
M  V30 22 1 15 16
M  V30 23 1 17 18
M  V30 24 1 20 21
M  V30 25 1 6 22
M  V30 26 1 6 23
M  V30 27 1 8 24
M  V30 28 1 8 25
M  V30 29 1 11 26
M  V30 30 1 13 27
M  V30 31 1 14 28
M  V30 32 1 14 29
M  V30 33 1 16 30
M  V30 34 1 16 31
M  V30 35 1 18 32
M  V30 36 1 18 33
M  V30 37 1 19 34
M  V30 38 1 21 35
M  V30 39 1 21 36
M  V30 END BOND
M  V30 BEGIN COLLECTION
M  V30 MDLV30/STEABS ATOMS=(3 11 13 19)
M  V30 END COLLECTION
M  V30 END CTAB
M  END
>  <Structure No>
1155

>  <LogS>
-2.468825327

>  <MMFF94 Energy>
-188.57

$$$$
Compound 1156
Actelion Java MolfileCreator 2.0

  0  0  0  0  0  0              0 V3000
M  V30 BEGIN CTAB
M  V30 COUNTS 45 48 0 0 0
M  V30 BEGIN ATOM
M  V30 1 O -3.5459 0.3219 2.4972 0
M  V30 2 C -3.5177 0.0973 1.2561 0
M  V30 3 C -2.2886 0.1333 0.5419 0
M  V30 4 C -4.7315 -0.1579 0.5927 0
M  V30 5 C -2.3091 -0.0233 -0.8925 0
M  V30 6 C -1.041 0.3657 1.2101 0
M  V30 7 C -4.7514 -0.3111 -0.8106 0
M  V30 8 C -5.9438 -0.2425 1.3129 0
M  V30 9 C -3.5576 -0.2088 -1.5473 0
M  V30 10 C -1.0814 0.0553 -1.6299 0
M  V30 11 N -0.9296 0.4124 2.6394 0
M  V30 12 C 0.1107 0.5023 0.4316 0
M  V30 13 C -5.9834 -0.5455 -1.4611 0
M  V30 14 C -7.1494 -0.4795 0.6524 0
M  V30 15 O -3.6215 -0.2572 -2.8064 0
M  V30 16 N -1.0104 -0.2078 -3.0379 0
M  V30 17 C 0.0913 0.3533 -0.9318 0
M  V30 18 C 1.4403 0.6862 0.7883 0
M  V30 19 C -7.1691 -0.6307 -0.7312 0
M  V30 20 C 1.4099 0.4519 -1.3568 0
M  V30 21 O 1.8794 0.8119 1.9628 0
M  V30 22 N 2.2301 0.6784 -0.3076 0
M  V30 23 O 1.8154 0.3196 -2.5426 0
M  V30 24 C 3.6917 0.7556 -0.3365 0
M  V30 25 C 4.2969 -0.6441 -0.1867 0
M  V30 26 C 5.825 -0.6108 -0.2336 0
M  V30 27 O 6.3197 0.0985 0.8832 0
M  V30 28 C 7.7272 0.1435 0.8217 0
M  V30 29 H -5.9654 -0.1281 2.3898 0
M  V30 30 H -0.2803 1.0817 3.1065 0
M  V30 31 H -1.3756 -0.3208 3.2332 0
M  V30 32 H -6.0355 -0.6663 -2.5362 0
M  V30 33 H -8.0714 -0.5445 1.2158 0
M  V30 34 H -0.3764 0.3429 -3.6566 0
M  V30 35 H -1.4706 -1.0506 -3.4466 0
M  V30 36 H -8.1064 -0.8129 -1.2412 0
M  V30 37 H 4.0453 1.4141 0.4868 0
M  V30 38 H 4.0225 1.2101 -1.2959 0
M  V30 39 H 3.9683 -1.0922 0.7765 0
M  V30 40 H 3.927 -1.2907 -1.0122 0
M  V30 41 H 6.1454 -0.1329 -1.1883 0
M  V30 42 H 6.1899 -1.6633 -0.2167 0
M  V30 43 H 8.0732 0.6906 -0.0833 0
M  V30 44 H 8.1022 0.6935 1.7092 0
M  V30 45 H 8.1656 -0.8788 0.8501 0
M  V30 END ATOM
M  V30 BEGIN BOND
M  V30 1 2 1 2
M  V30 2 1 2 3
M  V30 3 1 2 4
M  V30 4 2 3 5
M  V30 5 1 3 6
M  V30 6 2 4 7
M  V30 7 1 4 8
M  V30 8 1 5 9
M  V30 9 1 5 10
M  V30 10 1 6 11
M  V30 11 2 6 12
M  V30 12 1 7 13
M  V30 13 2 8 14
M  V30 14 2 9 15
M  V30 15 1 10 16
M  V30 16 2 10 17
M  V30 17 1 12 18
M  V30 18 2 13 19
M  V30 19 1 17 20
M  V30 20 2 18 21
M  V30 21 1 18 22
M  V30 22 2 20 23
M  V30 23 1 22 24
M  V30 24 1 24 25
M  V30 25 1 25 26
M  V30 26 1 26 27
M  V30 27 1 27 28
M  V30 28 1 7 9
M  V30 29 1 12 17
M  V30 30 1 14 19
M  V30 31 1 20 22
M  V30 32 1 8 29
M  V30 33 1 11 30
M  V30 34 1 11 31
M  V30 35 1 13 32
M  V30 36 1 14 33
M  V30 37 1 16 34
M  V30 38 1 16 35
M  V30 39 1 19 36
M  V30 40 1 24 37
M  V30 41 1 24 38
M  V30 42 1 25 39
M  V30 43 1 25 40
M  V30 44 1 26 41
M  V30 45 1 26 42
M  V30 46 1 28 43
M  V30 47 1 28 44
M  V30 48 1 28 45
M  V30 END BOND
M  V30 END CTAB
M  END
>  <Structure No>
1156

>  <LogS>
-7.323792769

>  <MMFF94 Energy>
78.084

$$$$
Compound 1157
Actelion Java MolfileCreator 2.0

  0  0  0  0  0  0              0 V3000
M  V30 BEGIN CTAB
M  V30 COUNTS 67 66 0 0 0
M  V30 BEGIN ATOM
M  V30 1 O -10.0627 2.2729 2.2729 0
M  V30 2 C -9.7644 1.625 1.2336 0
M  V30 3 O -10.7217 1.4295 0.2463 0 CHG=-1
M  V30 4 C -8.381 1.0811 1.0542 0
M  V30 5 C -8.3993 -0.4545 1.0454 0
M  V30 6 C -6.9874 -1.0626 1.0508 0
M  V30 7 C -6.2106 -0.7699 -0.2458 0
M  V30 8 C -4.9133 -1.5871 -0.3613 0
M  V30 9 C -3.8458 -1.1482 0.6557 0
M  V30 10 C -2.5402 -1.9546 0.5374 0
M  V30 11 C -1.75 -1.7317 -0.7653 0
M  V30 12 C -1.3193 -0.2711 -0.9625 0
M  V30 13 C -0.2786 -0.1469 -2.0861 0
M  V30 14 C 0.1446 1.3087 -2.3488 0
M  V30 15 C 0.9127 1.983 -1.1943 0
M  V30 16 C 2.2823 1.3384 -0.8904 0
M  V30 17 C 2.2407 0.4339 0.3544 0
M  V30 18 C 3.5772 -0.28 0.6124 0
M  V30 19 C 4.6729 0.678 1.1098 0
M  V30 20 C 5.9127 -0.0628 1.6418 0
M  V30 21 C 6.6698 -0.8972 0.5877 0
M  V30 22 C 7.1935 -0.1013 -0.6251 0
M  V30 23 C 8.1155 1.0815 -0.279 0
M  V30 24 C 9.3666 0.661 0.4902 0
M  V30 25 H -7.7279 1.4463 1.8776 0
M  V30 26 H -7.9798 1.4644 0.0923 0
M  V30 27 H -8.9318 -0.814 1.9541 0
M  V30 28 H -8.9622 -0.8227 0.1588 0
M  V30 29 H -7.0891 -2.1624 1.1754 0
M  V30 30 H -6.4288 -0.6732 1.9287 0
M  V30 31 H -5.9667 0.3123 -0.3093 0
M  V30 32 H -6.8516 -1.0233 -1.1189 0
M  V30 33 H -5.1379 -2.6686 -0.2355 0
M  V30 34 H -4.5204 -1.4395 -1.3888 0
M  V30 35 H -3.6423 -0.0611 0.5554 0
M  V30 36 H -4.2327 -1.3146 1.6828 0
M  V30 37 H -1.8869 -1.6903 1.3988 0
M  V30 38 H -2.7752 -3.0376 0.6292 0
M  V30 39 H -0.8418 -2.3711 -0.7156 0
M  V30 40 H -2.3381 -2.0775 -1.6402 0
M  V30 41 H -2.2055 0.3411 -1.2267 0
M  V30 42 H -0.8995 0.111 -0.011 0
M  V30 43 H 0.6136 -0.7683 -1.8652 0
M  V30 44 H -0.7225 -0.5477 -3.024 0
M  V30 45 H 0.7779 1.3338 -3.2626 0
M  V30 46 H -0.7614 1.9133 -2.5715 0
M  V30 47 H 1.0931 3.036 -1.504 0
M  V30 48 H 0.2813 2.0458 -0.2828 0
M  V30 49 H 2.6475 0.7623 -1.7683 0
M  V30 50 H 3.0134 2.1543 -0.7086 0
M  V30 51 H 1.9534 1.0286 1.2501 0
M  V30 52 H 1.4635 -0.3458 0.2184 0
M  V30 53 H 3.4018 -1.0601 1.3848 0
M  V30 54 H 3.907 -0.7906 -0.3162 0
M  V30 55 H 4.9692 1.3819 0.3051 0
M  V30 56 H 4.2654 1.2906 1.9446 0
M  V30 57 H 6.6045 0.6772 2.0948 0
M  V30 58 H 5.5996 -0.7391 2.4675 0
M  V30 59 H 7.5228 -1.4063 1.0851 0
M  V30 60 H 6.011 -1.7104 0.2157 0
M  V30 61 H 7.7478 -0.8026 -1.2867 0
M  V30 62 H 6.3351 0.2738 -1.2208 0
M  V30 63 H 7.5628 1.8535 0.2942 0
M  V30 64 H 8.4385 1.5523 -1.2304 0
M  V30 65 H 10.0508 1.5327 0.5878 0
M  V30 66 H 9.9011 -0.1508 -0.0491 0
M  V30 67 H 9.1016 0.3178 1.5117 0
M  V30 END ATOM
M  V30 BEGIN BOND
M  V30 1 2 1 2
M  V30 2 1 2 3
M  V30 3 1 2 4
M  V30 4 1 4 5
M  V30 5 1 5 6
M  V30 6 1 6 7
M  V30 7 1 7 8
M  V30 8 1 8 9
M  V30 9 1 9 10
M  V30 10 1 10 11
M  V30 11 1 11 12
M  V30 12 1 12 13
M  V30 13 1 13 14
M  V30 14 1 14 15
M  V30 15 1 15 16
M  V30 16 1 16 17
M  V30 17 1 17 18
M  V30 18 1 18 19
M  V30 19 1 19 20
M  V30 20 1 20 21
M  V30 21 1 21 22
M  V30 22 1 22 23
M  V30 23 1 23 24
M  V30 24 1 4 25
M  V30 25 1 4 26
M  V30 26 1 5 27
M  V30 27 1 5 28
M  V30 28 1 6 29
M  V30 29 1 6 30
M  V30 30 1 7 31
M  V30 31 1 7 32
M  V30 32 1 8 33
M  V30 33 1 8 34
M  V30 34 1 9 35
M  V30 35 1 9 36
M  V30 36 1 10 37
M  V30 37 1 10 38
M  V30 38 1 11 39
M  V30 39 1 11 40
M  V30 40 1 12 41
M  V30 41 1 12 42
M  V30 42 1 13 43
M  V30 43 1 13 44
M  V30 44 1 14 45
M  V30 45 1 14 46
M  V30 46 1 15 47
M  V30 47 1 15 48
M  V30 48 1 16 49
M  V30 49 1 16 50
M  V30 50 1 17 51
M  V30 51 1 17 52
M  V30 52 1 18 53
M  V30 53 1 18 54
M  V30 54 1 19 55
M  V30 55 1 19 56
M  V30 56 1 20 57
M  V30 57 1 20 58
M  V30 58 1 21 59
M  V30 59 1 21 60
M  V30 60 1 22 61
M  V30 61 1 22 62
M  V30 62 1 23 63
M  V30 63 1 23 64
M  V30 64 1 24 65
M  V30 65 1 24 66
M  V30 66 1 24 67
M  V30 END BOND
M  V30 END CTAB
M  END
>  <Structure No>
1157

>  <LogS>
-7.32811446

>  <MMFF94 Energy>
0.70849

$$$$
Compound 1158
Actelion Java MolfileCreator 2.0

  0  0  0  0  0  0              0 V3000
M  V30 BEGIN CTAB
M  V30 COUNTS 34 35 0 0 0
M  V30 BEGIN ATOM
M  V30 1 O 1.6676 -0.3968 1.906 0
M  V30 2 C 2.1482 -0.4996 0.7435 0
M  V30 3 O 1.4873 -1.2659 -0.225 0
M  V30 4 C 3.4153 0.1831 0.4021 0
M  V30 5 C 0.2333 -1.9073 -3.0E-4 0
M  V30 6 C 3.9545 0.0734 -0.8926 0
M  V30 7 C 4.0991 0.9526 1.3626 0
M  V30 8 C -0.906 -0.8852 -0.0402 0
M  V30 9 C 5.1516 0.7191 -1.2176 0
M  V30 10 C 5.2958 1.596 1.032 0
M  V30 11 C -2.265 -1.5659 0.1511 0
M  V30 12 C 5.8216 1.4796 -0.2564 0
M  V30 13 C -3.3749 -0.5498 0.1136 0
M  V30 14 C -3.7816 0.0997 1.2914 0
M  V30 15 C -3.9749 -0.1998 -1.1076 0
M  V30 16 C -4.7901 1.0676 1.2495 0
M  V30 17 C -4.9831 0.7685 -1.145 0
M  V30 18 C -5.3918 1.4002 0.0327 0
M  V30 19 H 0.0783 -2.6579 -0.8043 0
M  V30 20 H 0.2471 -2.4436 0.9739 0
M  V30 21 H 3.453 -0.5097 -1.6546 0
M  V30 22 H 3.7104 1.0575 2.3679 0
M  V30 23 H -0.8873 -0.361 -1.0209 0
M  V30 24 H -0.7559 -0.1315 0.7628 0
M  V30 25 H 5.5599 0.6299 -2.2159 0
M  V30 26 H 5.8158 2.1857 1.7759 0
M  V30 27 H -2.2812 -2.1037 1.1248 0
M  V30 28 H -2.422 -2.3233 -0.6481 0
M  V30 29 H 6.7479 1.9785 -0.5103 0
M  V30 30 H -3.3168 -0.142 2.2392 0
M  V30 31 H -3.6608 -0.6752 -2.0287 0
M  V30 32 H -5.1029 1.5623 2.16 0
M  V30 33 H -5.4451 1.0317 -2.0877 0
M  V30 34 H -6.1714 2.1504 0.0018 0
M  V30 END ATOM
M  V30 BEGIN BOND
M  V30 1 2 1 2
M  V30 2 1 2 3
M  V30 3 1 2 4
M  V30 4 1 3 5
M  V30 5 2 4 6
M  V30 6 1 4 7
M  V30 7 1 5 8
M  V30 8 1 6 9
M  V30 9 2 7 10
M  V30 10 1 8 11
M  V30 11 2 9 12
M  V30 12 1 11 13
M  V30 13 2 13 14
M  V30 14 1 13 15
M  V30 15 1 14 16
M  V30 16 2 15 17
M  V30 17 2 16 18
M  V30 18 1 10 12
M  V30 19 1 17 18
M  V30 20 1 5 19
M  V30 21 1 5 20
M  V30 22 1 6 21
M  V30 23 1 7 22
M  V30 24 1 8 23
M  V30 25 1 8 24
M  V30 26 1 9 25
M  V30 27 1 10 26
M  V30 28 1 11 27
M  V30 29 1 11 28
M  V30 30 1 12 29
M  V30 31 1 14 30
M  V30 32 1 15 31
M  V30 33 1 16 32
M  V30 34 1 17 33
M  V30 35 1 18 34
M  V30 END BOND
M  V30 END CTAB
M  END
>  <Structure No>
1158

>  <LogS>
-4.800973789

>  <MMFF94 Energy>
47.788

$$$$
Compound 1159
Actelion Java MolfileCreator 2.0

  0  0  0  0  0  0              0 V3000
M  V30 BEGIN CTAB
M  V30 COUNTS 27 26 0 0 0
M  V30 BEGIN ATOM
M  V30 1 O -2.7001 -1.5422 0.6166 0
M  V30 2 C -2.2409 -0.3022 1.0877 0
M  V30 3 C -1.7071 0.5764 -0.0635 0 CFG=1
M  V30 4 C -0.6489 -0.1429 -0.9377 0
M  V30 5 C -2.8627 1.0717 -0.9448 0
M  V30 6 C 0.5886 -0.659 -0.1794 0
M  V30 7 C 1.4073 0.4691 0.4709 0
M  V30 8 C 2.6945 -0.0457 1.1344 0
M  V30 9 C 3.7774 -0.4154 0.1206 0
M  V30 10 H -3.6471 -1.4155 0.3483 0
M  V30 11 H -3.0485 0.2335 1.6389 0
M  V30 12 H -1.4333 -0.48 1.8275 0
M  V30 13 H -1.2453 1.4817 0.3856 0
M  V30 14 H -0.3041 0.5524 -1.7348 0
M  V30 15 H -1.1246 -1.0072 -1.4511 0
M  V30 16 H -3.6162 1.6079 -0.3289 0
M  V30 17 H -2.4817 1.7797 -1.7114 0
M  V30 18 H -3.3591 0.2235 -1.4625 0
M  V30 19 H 1.2231 -1.1922 -0.9177 0
M  V30 20 H 0.2896 -1.4052 0.5864 0
M  V30 21 H 0.7963 0.9486 1.2644 0
M  V30 22 H 1.6559 1.2471 -0.2837 0
M  V30 23 H 2.47 -0.9234 1.7787 0
M  V30 24 H 3.0963 0.757 1.7903 0
M  V30 25 H 3.4773 -1.3025 -0.4738 0
M  V30 26 H 4.7159 -0.6641 0.6592 0
M  V30 27 H 3.9788 0.4372 -0.562 0
M  V30 END ATOM
M  V30 BEGIN BOND
M  V30 1 1 1 2
M  V30 2 1 2 3
M  V30 3 1 3 4
M  V30 4 1 3 5
M  V30 5 1 4 6
M  V30 6 1 6 7
M  V30 7 1 7 8
M  V30 8 1 8 9
M  V30 9 1 1 10
M  V30 10 1 2 11
M  V30 11 1 2 12
M  V30 12 1 3 13
M  V30 13 1 4 14
M  V30 14 1 4 15
M  V30 15 1 5 16
M  V30 16 1 5 17
M  V30 17 1 5 18
M  V30 18 1 6 19
M  V30 19 1 6 20
M  V30 20 1 7 21
M  V30 21 1 7 22
M  V30 22 1 8 23
M  V30 23 1 8 24
M  V30 24 1 9 25
M  V30 25 1 9 26
M  V30 26 1 9 27
M  V30 END BOND
M  V30 BEGIN COLLECTION
M  V30 MDLV30/STEABS ATOMS=(1 3)
M  V30 END COLLECTION
M  V30 END CTAB
M  END
>  <Structure No>
1159

>  <LogS>
-2.528127071

>  <MMFF94 Energy>
3.291

$$$$
Compound 1160
Actelion Java MolfileCreator 2.0

  0  0  0  0  0  0              0 V3000
M  V30 BEGIN CTAB
M  V30 COUNTS 15 14 0 0 0
M  V30 BEGIN ATOM
M  V30 1 O -1.2314 -1.8476 -0.3077 0
M  V30 2 C -1.3461 -0.6095 -0.0995 0
M  V30 3 C -0.1575 0.2615 0.024 0
M  V30 4 C -2.7106 -0.0115 0.0246 0
M  V30 5 C 1.1083 -0.1726 -0.071 0
M  V30 6 O 1.3867 -1.5204 -0.3003 0
M  V30 7 C 2.2386 0.8044 0.0712 0
M  V30 8 H -0.3327 1.3169 0.2029 0
M  V30 9 H -2.8544 0.758 -0.7624 0
M  V30 10 H -2.8222 0.4608 1.0231 0
M  V30 11 H -3.4924 -0.7923 -0.0911 0
M  V30 12 H 2.3376 -1.8612 -0.3742 0
M  V30 13 H 2.1969 1.2872 1.0707 0
M  V30 14 H 3.2177 0.2919 -0.0316 0
M  V30 15 H 2.1646 1.5845 -0.7158 0
M  V30 END ATOM
M  V30 BEGIN BOND
M  V30 1 2 1 2
M  V30 2 1 2 3
M  V30 3 1 2 4
M  V30 4 2 3 5
M  V30 5 1 5 6
M  V30 6 1 5 7
M  V30 7 1 3 8
M  V30 8 1 4 9
M  V30 9 1 4 10
M  V30 10 1 4 11
M  V30 11 1 6 12
M  V30 12 1 7 13
M  V30 13 1 7 14
M  V30 14 1 7 15
M  V30 END BOND
M  V30 END CTAB
M  END
>  <Structure No>
1160

>  <LogS>
-7.438461097

>  <MMFF94 Energy>
5.2379

$$$$
Compound 1161
Actelion Java MolfileCreator 2.0

  0  0  0  0  0  0              0 V3000
M  V30 BEGIN CTAB
M  V30 COUNTS 40 46 0 0 0
M  V30 BEGIN ATOM
M  V30 1 O 5.4197 2.332 1.5819 0
M  V30 2 C 4.8718 1.3368 1.0355 0
M  V30 3 N 5.6821 0.2675 0.5516 0
M  V30 4 C 3.3984 1.2633 0.8896 0
M  V30 5 C 5.0715 -0.8624 -0.068 0
M  V30 6 C 2.7936 0.1437 0.2757 0
M  V30 7 C 2.6008 2.3035 1.3597 0
M  V30 8 O 5.7952 -1.8032 -0.4929 0
M  V30 9 C 3.5962 -0.9155 -0.2037 0
M  V30 10 C 1.3708 0.0827 0.1398 0
M  V30 11 C 1.2198 2.2539 1.2327 0
M  V30 12 C 2.9931 -2.0156 -0.8076 0
M  V30 13 C 0.5678 1.153 0.6248 0
M  V30 14 C 0.7678 -1.0477 -0.4795 0
M  V30 15 C 1.6139 -2.0844 -0.9442 0
M  V30 16 C -0.8511 1.0921 0.4894 0
M  V30 17 C -0.6511 -1.1086 -0.6149 0
M  V30 18 C -1.4541 -0.0383 -0.1299 0
M  V30 19 C -1.6972 2.1289 0.9542 0
M  V30 20 C -1.3031 -2.2096 -1.2229 0
M  V30 21 C -2.8768 -0.0992 -0.2658 0
M  V30 22 C -3.0764 2.0602 0.8175 0
M  V30 23 C -2.6841 -2.2591 -1.3499 0
M  V30 24 C -3.6797 0.9599 0.2137 0
M  V30 25 C -3.4817 -1.2189 -0.8797 0
M  V30 26 C -5.1549 0.9069 0.078 0
M  V30 27 C -4.9551 -1.2923 -1.0256 0
M  V30 28 O -5.8787 1.8477 0.503 0
M  V30 29 N -5.7655 -0.2231 -0.5416 0
M  V30 30 O -5.5029 -2.2875 -1.5721 0
M  V30 31 H 6.7213 0.3122 0.6509 0
M  V30 32 H 3.0471 3.1697 1.8331 0
M  V30 33 H 0.6985 3.1068 1.628 0
M  V30 34 H 3.5928 -2.8368 -1.181 0
M  V30 35 H 1.251 -2.9751 -1.4238 0
M  V30 36 H -1.3344 3.0197 1.434 0
M  V30 37 H -0.7819 -3.0623 -1.6181 0
M  V30 38 H -3.6762 2.8814 1.1911 0
M  V30 39 H -3.1305 -3.1252 -1.8232 0
M  V30 40 H -6.8048 -0.2677 -0.6408 0
M  V30 END ATOM
M  V30 BEGIN BOND
M  V30 1 2 1 2
M  V30 2 1 2 3
M  V30 3 1 2 4
M  V30 4 1 3 5
M  V30 5 1 4 6
M  V30 6 2 4 7
M  V30 7 2 5 8
M  V30 8 1 5 9
M  V30 9 1 6 10
M  V30 10 1 7 11
M  V30 11 1 9 12
M  V30 12 1 10 13
M  V30 13 2 10 14
M  V30 14 2 12 15
M  V30 15 1 13 16
M  V30 16 1 14 17
M  V30 17 1 16 18
M  V30 18 2 16 19
M  V30 19 1 17 20
M  V30 20 1 18 21
M  V30 21 1 19 22
M  V30 22 2 20 23
M  V30 23 1 21 24
M  V30 24 2 21 25
M  V30 25 1 24 26
M  V30 26 1 25 27
M  V30 27 2 26 28
M  V30 28 1 26 29
M  V30 29 2 27 30
M  V30 30 2 6 9
M  V30 31 2 11 13
M  V30 32 1 14 15
M  V30 33 2 17 18
M  V30 34 2 22 24
M  V30 35 1 23 25
M  V30 36 1 27 29
M  V30 37 1 3 31
M  V30 38 1 7 32
M  V30 39 1 11 33
M  V30 40 1 12 34
M  V30 41 1 15 35
M  V30 42 1 19 36
M  V30 43 1 20 37
M  V30 44 1 22 38
M  V30 45 1 23 39
M  V30 46 1 29 40
M  V30 END BOND
M  V30 END CTAB
M  END
>  <Structure No>
1161

>  <LogS>
-7.591458634

>  <MMFF94 Energy>
25.227

$$$$
Compound 1162
Actelion Java MolfileCreator 2.0

  0  0  0  0  0  0              0 V3000
M  V30 BEGIN CTAB
M  V30 COUNTS 40 43 0 0 0
M  V30 BEGIN ATOM
M  V30 1 O -4.4617 -1.3774 -1.2964 0
M  V30 2 C -3.5769 -0.7046 -0.6997 0
M  V30 3 C -2.2127 -1.2688 -0.4917 0
M  V30 4 C -3.9128 0.6484 -0.2042 0
M  V30 5 C -1.2168 -0.4803 0.1442 0
M  V30 6 C -1.8975 -2.5828 -0.9133 0
M  V30 7 C -2.9164 1.4455 0.3905 0
M  V30 8 C -5.2216 1.1529 -0.3278 0
M  V30 9 C -1.5348 0.9304 0.5145 0
M  V30 10 C 0.0683 -1.0392 0.3776 0
M  V30 11 O -2.8502 -3.3801 -1.5488 0
M  V30 12 C -0.6194 -3.1014 -0.6938 0
M  V30 13 C -3.2439 2.7352 0.8511 0
M  V30 14 C -5.5334 2.4327 0.1355 0
M  V30 15 O -0.6241 1.7126 0.9009 0
M  V30 16 N 1.0725 -0.3274 1.1192 0
M  V30 17 C 0.3478 -2.3431 -0.0473 0
M  V30 18 C -4.5463 3.2225 0.724 0
M  V30 19 C 2.4284 -0.1603 0.6672 0
M  V30 20 C 3.4268 0.1814 1.5917 0
M  V30 21 C 2.7691 -0.286 -0.692 0
M  V30 22 C 4.7481 0.3649 1.1737 0
M  V30 23 C 4.0905 -0.1022 -1.1095 0
M  V30 24 C 5.0913 0.2063 -0.1768 0
M  V30 25 C 6.501 0.4429 -0.6312 0
M  V30 26 H -6.0051 0.559 -0.7815 0
M  V30 27 H -2.6397 -4.3228 -1.8556 0
M  V30 28 H -0.3782 -4.1079 -1.0116 0
M  V30 29 H -2.4949 3.3668 1.3122 0
M  V30 30 H -6.5421 2.8127 0.0374 0
M  V30 31 H 0.8153 0.0221 2.0702 0
M  V30 32 H 1.32 -2.7808 0.1422 0
M  V30 33 H -4.7901 4.2144 1.0821 0
M  V30 34 H 3.1809 0.3028 2.6392 0
M  V30 35 H 2.0136 -0.5096 -1.4338 0
M  V30 36 H 5.5029 0.6313 1.9035 0
M  V30 37 H 4.3319 -0.1961 -2.1611 0
M  V30 38 H 6.7336 -0.1754 -1.5242 0
M  V30 39 H 6.6308 1.5147 -0.8889 0
M  V30 40 H 7.2215 0.1729 0.17 0
M  V30 END ATOM
M  V30 BEGIN BOND
M  V30 1 2 1 2
M  V30 2 1 2 3
M  V30 3 1 2 4
M  V30 4 2 3 5
M  V30 5 1 3 6
M  V30 6 2 4 7
M  V30 7 1 4 8
M  V30 8 1 5 9
M  V30 9 1 5 10
M  V30 10 1 6 11
M  V30 11 2 6 12
M  V30 12 1 7 13
M  V30 13 2 8 14
M  V30 14 2 9 15
M  V30 15 1 10 16
M  V30 16 2 10 17
M  V30 17 2 13 18
M  V30 18 1 16 19
M  V30 19 2 19 20
M  V30 20 1 19 21
M  V30 21 1 20 22
M  V30 22 2 21 23
M  V30 23 2 22 24
M  V30 24 1 24 25
M  V30 25 1 7 9
M  V30 26 1 12 17
M  V30 27 1 14 18
M  V30 28 1 23 24
M  V30 29 1 8 26
M  V30 30 1 11 27
M  V30 31 1 12 28
M  V30 32 1 13 29
M  V30 33 1 14 30
M  V30 34 1 16 31
M  V30 35 1 17 32
M  V30 36 1 18 33
M  V30 37 1 20 34
M  V30 38 1 21 35
M  V30 39 1 22 36
M  V30 40 1 23 37
M  V30 41 1 25 38
M  V30 42 1 25 39
M  V30 43 1 25 40
M  V30 END BOND
M  V30 END CTAB
M  END
>  <Structure No>
1162

>  <LogS>
-7.549181312

>  <MMFF94 Energy>
85.68

$$$$
Compound 1163
Actelion Java MolfileCreator 2.0

  0  0  0  0  0  0              0 V3000
M  V30 BEGIN CTAB
M  V30 COUNTS 47 49 0 0 0
M  V30 BEGIN ATOM
M  V30 1 O -1.765 1.765 -0.5613 0
M  V30 2 C -2.7572 1.0519 -0.5858 0
M  V30 3 C -2.9305 -0.1453 0.3046 0
M  V30 4 C -3.9144 1.3401 -1.4831 0
M  V30 5 C -4.3111 -0.5781 -0.1004 0
M  V30 6 C -1.9052 -1.2564 -0.0535 0
M  V30 7 C -2.8897 0.3115 1.7927 0
M  V30 8 C -4.9526 0.2722 -1.1465 0
M  V30 9 O -4.8599 -1.5734 0.3474 0
M  V30 10 C -0.4799 -0.8717 0.2769 0
M  V30 11 C -3.057 -0.8115 2.8213 0
M  V30 12 C 0.4596 -0.5069 -0.6266 0
M  V30 13 C 1.8435 -0.1273 -0.1825 0
M  V30 14 C 0.1721 -0.6194 -2.1167 0
M  V30 15 C 2.912 -0.2037 -1.1048 0
M  V30 16 C 2.111 0.3541 1.1169 0
M  V30 17 C 1.309 -0.085 -2.9933 0
M  V30 18 C 4.2196 0.1014 -0.6969 0
M  V30 19 C 2.6563 -0.6313 -2.5247 0
M  V30 20 C 3.4133 0.6746 1.5069 0
M  V30 21 C 4.4802 0.5383 0.6039 0
M  V30 22 O 5.8059 0.8345 0.9547 0
M  V30 23 C 6.2153 1.2899 2.2404 0
M  V30 24 H -4.3133 2.3567 -1.2768 0
M  V30 25 H -3.5973 1.2643 -2.5456 0
M  V30 26 H -2.1458 -2.1802 0.5137 0
M  V30 27 H -2.0219 -1.5437 -1.1191 0
M  V30 28 H -1.9242 0.8229 1.9992 0
M  V30 29 H -3.6917 1.063 1.9691 0
M  V30 30 H -5.1916 -0.3406 -2.0423 0
M  V30 31 H -5.8799 0.7337 -0.7437 0
M  V30 32 H -0.2357 -0.9026 1.3282 0
M  V30 33 H -3.0333 -0.3747 3.842 0
M  V30 34 H -4.0287 -1.3292 2.6974 0
M  V30 35 H -2.2294 -1.5461 2.7503 0
M  V30 36 H 0.0102 -1.6904 -2.3687 0
M  V30 37 H -0.749 -0.055 -2.3741 0
M  V30 38 H 1.32 0.5134 1.8358 0
M  V30 39 H 1.1334 -0.3859 -4.0487 0
M  V30 40 H 1.3217 1.027 -2.9515 0
M  V30 41 H 5.0413 0.0124 -1.3972 0
M  V30 42 H 3.45 -0.2436 -3.2002 0
M  V30 43 H 2.6602 -1.7413 -2.5823 0
M  V30 44 H 3.5782 1.0335 2.5138 0
M  V30 45 H 7.3144 1.4394 2.239 0
M  V30 46 H 5.96 0.5335 3.0125 0
M  V30 47 H 5.7251 2.2581 2.4765 0
M  V30 END ATOM
M  V30 BEGIN BOND
M  V30 1 2 1 2
M  V30 2 1 2 3
M  V30 3 1 2 4
M  V30 4 1 3 5
M  V30 5 1 3 6
M  V30 6 1 3 7
M  V30 7 1 4 8
M  V30 8 2 5 9
M  V30 9 1 6 10
M  V30 10 1 7 11
M  V30 11 2 10 12
M  V30 12 1 12 13
M  V30 13 1 12 14
M  V30 14 2 13 15
M  V30 15 1 13 16
M  V30 16 1 14 17
M  V30 17 1 15 18
M  V30 18 1 15 19
M  V30 19 2 16 20
M  V30 20 2 18 21
M  V30 21 1 21 22
M  V30 22 1 22 23
M  V30 23 1 5 8
M  V30 24 1 17 19
M  V30 25 1 20 21
M  V30 26 1 4 24
M  V30 27 1 4 25
M  V30 28 1 6 26
M  V30 29 1 6 27
M  V30 30 1 7 28
M  V30 31 1 7 29
M  V30 32 1 8 30
M  V30 33 1 8 31
M  V30 34 1 10 32
M  V30 35 1 11 33
M  V30 36 1 11 34
M  V30 37 1 11 35
M  V30 38 1 14 36
M  V30 39 1 14 37
M  V30 40 1 16 38
M  V30 41 1 17 39
M  V30 42 1 17 40
M  V30 43 1 18 41
M  V30 44 1 19 42
M  V30 45 1 19 43
M  V30 46 1 20 44
M  V30 47 1 23 45
M  V30 48 1 23 46
M  V30 49 1 23 47
M  V30 END BOND
M  V30 END CTAB
M  END
>  <Structure No>
1163

>  <LogS>
-4.172504242

>  <MMFF94 Energy>
25.587

$$$$
Compound 1164
Actelion Java MolfileCreator 2.0

  0  0  0  0  0  0              0 V3000
M  V30 BEGIN CTAB
M  V30 COUNTS 56 55 0 0 0
M  V30 BEGIN ATOM
M  V30 1 C -0.7772 1.166 -0.544 0
M  V30 2 C -0.1342 1.7964 0.7099 0
M  V30 3 C -1.2688 -0.2698 -0.2897 0
M  V30 4 C 1.4032 1.8158 0.6699 0
M  V30 5 C -1.9349 -0.8864 -1.5394 0
M  V30 6 C 2.0189 0.4085 0.729 0
M  V30 7 C -3.4647 -0.9957 -1.4272 0
M  V30 8 C 3.5345 0.436 0.9806 0
M  V30 9 C -4.1611 0.3755 -1.4281 0
M  V30 10 C 4.3205 1.0227 -0.2047 0
M  V30 11 C -5.6993 0.2478 -1.4029 0
M  V30 12 C 5.8467 0.8781 -0.0218 0
M  V30 13 C -6.3169 0.5098 -0.0186 0
M  V30 14 C 6.473 -0.2175 -0.9052 0
M  V30 15 C -5.9303 -0.5528 1.0187 0
M  V30 16 C 6.033 -1.6494 -0.5585 0
M  V30 17 C -6.7052 -0.36 2.319 0
M  V30 18 C 6.5604 -2.1197 0.7967 0
M  V30 19 H -1.6427 1.7922 -0.8471 0
M  V30 20 H -0.0629 1.1742 -1.3964 0
M  V30 21 H -0.4827 1.2959 1.6402 0
M  V30 22 H -0.4745 2.853 0.779 0
M  V30 23 H -0.4029 -0.9023 -0.0041 0
M  V30 24 H -1.9694 -0.28 0.5741 0
M  V30 25 H 1.7597 2.4058 1.5424 0
M  V30 26 H 1.7373 2.34 -0.2509 0
M  V30 27 H -1.6648 -0.328 -2.4629 0
M  V30 28 H -1.5383 -1.9168 -1.6718 0
M  V30 29 H 1.5444 -0.161 1.5579 0
M  V30 30 H 1.8176 -0.1337 -0.2194 0
M  V30 31 H -3.8286 -1.5811 -2.2998 0
M  V30 32 H -3.7278 -1.568 -0.5134 0
M  V30 33 H 3.865 -0.6062 1.1668 0
M  V30 34 H 3.752 1.0211 1.901 0
M  V30 35 H -3.8648 0.9159 -2.3541 0
M  V30 36 H -3.8156 0.9841 -0.5664 0
M  V30 37 H 4.0821 2.1055 -0.2819 0
M  V30 38 H 3.9909 0.5483 -1.155 0
M  V30 39 H -6.0309 -0.7438 -1.7817 0
M  V30 40 H -6.1205 1.0051 -2.0998 0
M  V30 41 H 6.32 1.8406 -0.3168 0
M  V30 42 H 6.1173 0.724 1.0446 0
M  V30 43 H -7.4233 0.5171 -0.1348 0
M  V30 44 H -6.0115 1.5163 0.3431 0
M  V30 45 H 6.2155 -0.0134 -1.9675 0
M  V30 46 H 7.5803 -0.1501 -0.8269 0
M  V30 47 H -6.1454 -1.5676 0.6192 0
M  V30 48 H -4.8458 -0.4788 1.2462 0
M  V30 49 H 4.9273 -1.7391 -0.5892 0
M  V30 50 H 6.4344 -2.3318 -1.3386 0
M  V30 51 H -7.7965 -0.4608 2.1376 0
M  V30 52 H -6.4951 0.6429 2.7481 0
M  V30 53 H -6.3957 -1.1328 3.0539 0
M  V30 54 H 7.6656 -2.0172 0.8391 0
M  V30 55 H 6.1055 -1.538 1.6241 0
M  V30 56 H 6.2993 -3.1889 0.9424 0
M  V30 END ATOM
M  V30 BEGIN BOND
M  V30 1 1 1 2
M  V30 2 1 1 3
M  V30 3 1 2 4
M  V30 4 1 3 5
M  V30 5 1 4 6
M  V30 6 1 5 7
M  V30 7 1 6 8
M  V30 8 1 7 9
M  V30 9 1 8 10
M  V30 10 1 9 11
M  V30 11 1 10 12
M  V30 12 1 11 13
M  V30 13 1 12 14
M  V30 14 1 13 15
M  V30 15 1 14 16
M  V30 16 1 15 17
M  V30 17 1 16 18
M  V30 18 1 1 19
M  V30 19 1 1 20
M  V30 20 1 2 21
M  V30 21 1 2 22
M  V30 22 1 3 23
M  V30 23 1 3 24
M  V30 24 1 4 25
M  V30 25 1 4 26
M  V30 26 1 5 27
M  V30 27 1 5 28
M  V30 28 1 6 29
M  V30 29 1 6 30
M  V30 30 1 7 31
M  V30 31 1 7 32
M  V30 32 1 8 33
M  V30 33 1 8 34
M  V30 34 1 9 35
M  V30 35 1 9 36
M  V30 36 1 10 37
M  V30 37 1 10 38
M  V30 38 1 11 39
M  V30 39 1 11 40
M  V30 40 1 12 41
M  V30 41 1 12 42
M  V30 42 1 13 43
M  V30 43 1 13 44
M  V30 44 1 14 45
M  V30 45 1 14 46
M  V30 46 1 15 47
M  V30 47 1 15 48
M  V30 48 1 16 49
M  V30 49 1 16 50
M  V30 50 1 17 51
M  V30 51 1 17 52
M  V30 52 1 17 53
M  V30 53 1 18 54
M  V30 54 1 18 55
M  V30 55 1 18 56
M  V30 END BOND
M  V30 END CTAB
M  END
>  <Structure No>
1164

>  <LogS>
-7.627539949

>  <MMFF94 Energy>
-7.1311

$$$$
Compound 1165
Actelion Java MolfileCreator 2.0

  0  0  0  0  0  0              0 V3000
M  V30 BEGIN CTAB
M  V30 COUNTS 39 40 0 0 0
M  V30 BEGIN ATOM
M  V30 1 O 0.3973 0.6358 -0.6358 0
M  V30 2 C 1.5179 -0.0629 -0.0945 0
M  V30 3 C -0.7992 0.2842 0.0411 0 CFG=2
M  V30 4 O 1.2314 -1.4169 0.2555 0
M  V30 5 C 2.6787 -0.0215 -1.0874 0
M  V30 6 C 2.0697 0.6691 1.1313 0
M  V30 7 C -1.1352 -1.2202 -0.2872 0
M  V30 8 C -1.8915 1.3516 -0.2975 0
M  V30 9 C 0.2121 -1.9387 -0.5707 0
M  V30 10 C 3.9466 -0.0855 -0.2494 0
M  V30 11 C 3.5753 0.4278 1.1382 0
M  V30 12 C -1.8034 -1.9109 0.9249 0
M  V30 13 C -2.0297 -1.3914 -1.5363 0
M  V30 14 C -3.152 1.215 0.5757 0
M  V30 15 C -1.3251 2.773 -0.1164 0
M  V30 16 H -0.629 0.3783 1.1403 0
M  V30 17 H 2.6411 -0.8567 -1.8192 0
M  V30 18 H 2.6616 0.9407 -1.6472 0
M  V30 19 H 1.6041 0.3035 2.0728 0
M  V30 20 H 1.8738 1.7612 1.0394 0
M  V30 21 H -2.1889 1.2638 -1.364 0
M  V30 22 H 0.1277 -3.0313 -0.3843 0
M  V30 23 H 0.5043 -1.8434 -1.6423 0
M  V30 24 H 4.2958 -1.1395 -0.1801 0
M  V30 25 H 4.7523 0.5312 -0.7043 0
M  V30 26 H 3.8373 -0.3318 1.9072 0
M  V30 27 H 4.1182 1.3708 1.3679 0
M  V30 28 H -2.7693 -1.4434 1.1894 0
M  V30 29 H -2.0046 -2.9815 0.7036 0
M  V30 30 H -1.141 -1.864 1.8163 0
M  V30 31 H -3.0599 -1.025 -1.3617 0
M  V30 32 H -1.599 -0.845 -2.403 0
M  V30 33 H -2.1074 -2.4657 -1.8115 0
M  V30 34 H -2.8825 1.1404 1.651 0
M  V30 35 H -3.8168 2.0953 0.4425 0
M  V30 36 H -3.7524 0.3343 0.2829 0
M  V30 37 H -2.1031 3.5348 -0.3383 0
M  V30 38 H -0.483 2.9552 -0.8168 0
M  V30 39 H -0.9661 2.9212 0.925 0
M  V30 END ATOM
M  V30 BEGIN BOND
M  V30 1 1 1 2
M  V30 2 1 1 3
M  V30 3 1 2 4
M  V30 4 1 2 5
M  V30 5 1 2 6
M  V30 6 1 3 7
M  V30 7 1 3 8
M  V30 8 1 4 9
M  V30 9 1 5 10
M  V30 10 1 6 11
M  V30 11 1 7 12
M  V30 12 1 7 13
M  V30 13 1 8 14
M  V30 14 1 8 15
M  V30 15 1 7 9
M  V30 16 1 10 11
M  V30 17 1 3 16
M  V30 18 1 5 17
M  V30 19 1 5 18
M  V30 20 1 6 19
M  V30 21 1 6 20
M  V30 22 1 8 21
M  V30 23 1 9 22
M  V30 24 1 9 23
M  V30 25 1 10 24
M  V30 26 1 10 25
M  V30 27 1 11 26
M  V30 28 1 11 27
M  V30 29 1 12 28
M  V30 30 1 12 29
M  V30 31 1 12 30
M  V30 32 1 13 31
M  V30 33 1 13 32
M  V30 34 1 13 33
M  V30 35 1 14 34
M  V30 36 1 14 35
M  V30 37 1 14 36
M  V30 38 1 15 37
M  V30 39 1 15 38
M  V30 40 1 15 39
M  V30 END BOND
M  V30 BEGIN COLLECTION
M  V30 MDLV30/STEABS ATOMS=(1 3)
M  V30 END COLLECTION
M  V30 END CTAB
M  END
>  <Structure No>
1165

>  <LogS>
-3.524243771

>  <MMFF94 Energy>
20.437

$$$$
Compound 1166
Actelion Java MolfileCreator 2.0

  0  0  0  0  0  0              0 V3000
M  V30 BEGIN CTAB
M  V30 COUNTS 60 63 0 0 0
M  V30 BEGIN ATOM
M  V30 1 O 0 0 0 0
M  V30 2 C 0 0 0 0
M  V30 3 O 0 0 0 0
M  V30 4 C 0 0 0 0
M  V30 5 C 0 0 0 0
M  V30 6 C 0 0 0 0
M  V30 7 C 0 0 0 0
M  V30 8 C 0 0 0 0
M  V30 9 C 0 0 0 0
M  V30 10 C 0 0 0 0
M  V30 11 C 0 0 0 0
M  V30 12 C 0 0 0 0
M  V30 13 C 0 0 0 0
M  V30 14 C 0 0 0 0
M  V30 15 C 0 0 0 0
M  V30 16 N 0 0 0 0
M  V30 17 C 0 0 0 0
M  V30 18 C 0 0 0 0
M  V30 19 C 0 0 0 0
M  V30 20 N 0 0 0 0
M  V30 21 N 0 0 0 0
M  V30 22 C 0 0 0 0
M  V30 23 C 0 0 0 0
M  V30 24 N 0 0 0 0
M  V30 25 N 0 0 0 0
M  V30 26 N 0 0 0 0
M  V30 27 C 0 0 0 0
M  V30 28 C 0 0 0 0
M  V30 29 C 0 0 0 0
M  V30 30 C 0 0 0 0
M  V30 31 C 0 0 0 0
M  V30 32 C 0 0 0 0
M  V30 33 C 0 0 0 0
M  V30 34 C 0 0 0 0
M  V30 35 C 0 0 0 0
M  V30 36 C 0 0 0 0
M  V30 37 C 0 0 0 0
M  V30 38 C 0 0 0 0
M  V30 39 C 0 0 0 0
M  V30 40 C 0 0 0 0
M  V30 41 O 0 0 0 0
M  V30 42 O 0 0 0 0
M  V30 43 O 0 0 0 0
M  V30 44 O 0 0 0 0
M  V30 45 C 0 0 0 0
M  V30 46 C 0 0 0 0
M  V30 47 C 0 0 0 0
M  V30 48 C 0 0 0 0
M  V30 49 C 0 0 0 0
M  V30 50 C 0 0 0 0
M  V30 51 C 0 0 0 0
M  V30 52 C 0 0 0 0
M  V30 53 C 0 0 0 0
M  V30 54 C 0 0 0 0
M  V30 55 C 0 0 0 0
M  V30 56 C 0 0 0 0
M  V30 57 C 0 0 0 0
M  V30 58 C 0 0 0 0
M  V30 59 C 0 0 0 0
M  V30 60 C 0 0 0 0
M  V30 END ATOM
M  V30 BEGIN BOND
M  V30 1 2 1 2
M  V30 2 1 2 3
M  V30 3 1 2 4
M  V30 4 1 3 5
M  V30 5 2 4 6
M  V30 6 1 4 7
M  V30 7 1 5 8
M  V30 8 1 6 9
M  V30 9 2 7 10
M  V30 10 1 8 11
M  V30 11 1 8 12
M  V30 12 2 9 13
M  V30 13 1 11 14
M  V30 14 1 12 15
M  V30 15 1 13 16
M  V30 16 1 14 17
M  V30 17 1 16 18
M  V30 18 1 17 19
M  V30 19 2 18 20
M  V30 20 1 18 21
M  V30 21 1 20 22
M  V30 22 2 21 23
M  V30 23 2 22 24
M  V30 24 1 22 25
M  V30 25 1 23 26
M  V30 26 1 25 27
M  V30 27 1 26 28
M  V30 28 2 27 29
M  V30 29 1 27 30
M  V30 30 2 28 31
M  V30 31 1 28 32
M  V30 32 1 29 33
M  V30 33 2 30 34
M  V30 34 1 31 35
M  V30 35 2 32 36
M  V30 36 2 33 37
M  V30 37 2 35 38
M  V30 38 1 37 39
M  V30 39 1 38 40
M  V30 40 2 39 41
M  V30 41 1 39 42
M  V30 42 2 40 43
M  V30 43 1 40 44
M  V30 44 1 42 45
M  V30 45 1 44 46
M  V30 46 1 45 47
M  V30 47 1 46 48
M  V30 48 1 47 49
M  V30 49 1 47 50
M  V30 50 1 48 51
M  V30 51 1 48 52
M  V30 52 1 49 53
M  V30 53 1 50 54
M  V30 54 1 51 55
M  V30 55 1 52 56
M  V30 56 1 53 57
M  V30 57 1 55 58
M  V30 58 1 57 59
M  V30 59 1 58 60
M  V30 60 1 10 13
M  V30 61 1 23 24
M  V30 62 1 34 37
M  V30 63 1 36 38
M  V30 END BOND
M  V30 END CTAB
M  END
>  <Structure No>
1166

>  <LogS>
-8.216478376

>  <MMFF94 Energy>
-132.6

$$$$
Compound 1167
Actelion Java MolfileCreator 2.0

  0  0  0  0  0  0              0 V3000
M  V30 BEGIN CTAB
M  V30 COUNTS 53 52 0 0 0
M  V30 BEGIN ATOM
M  V30 1 O 6.0956 1.1699 2.2629 0
M  V30 2 C 6.1547 1.2415 1.0049 0
M  V30 3 O 7.2575 1.8245 0.3744 0
M  V30 4 C 5.0578 0.6541 0.1748 0
M  V30 5 C 8.3483 2.3798 1.0988 0
M  V30 6 C 5.3587 -0.816 -0.1438 0
M  V30 7 C 4.339 -1.4323 -1.1146 0
M  V30 8 C 2.9659 -1.6596 -0.4646 0
M  V30 9 C 2.01 -2.3697 -1.4347 0
M  V30 10 C 0.6791 -2.779 -0.7772 0
M  V30 11 C -0.1563 -1.6168 -0.2091 0
M  V30 12 C -0.5876 -0.6061 -1.2856 0
M  V30 13 C -1.4992 0.4981 -0.7262 0
M  V30 14 C -2.9323 0.0092 -0.4658 0
M  V30 15 C -3.8354 1.1679 -0.0255 0
M  V30 16 C -5.265 0.6823 0.2427 0
M  V30 17 C -6.1649 1.8432 0.6915 0
M  V30 18 C -7.6337 1.4229 0.8543 0
M  V30 19 C -7.8587 0.5151 2.0633 0
M  V30 20 H 4.1001 0.7416 0.7303 0
M  V30 21 H 4.9684 1.2359 -0.7678 0
M  V30 22 H 9.0947 2.7813 0.3831 0
M  V30 23 H 8.8307 1.5955 1.7198 0
M  V30 24 H 7.9916 3.2067 1.7488 0
M  V30 25 H 6.3638 -0.8812 -0.6164 0
M  V30 26 H 5.3902 -1.409 0.7968 0
M  V30 27 H 4.231 -0.7824 -2.0108 0
M  V30 28 H 4.7413 -2.4114 -1.4555 0
M  V30 29 H 3.0878 -2.2767 0.4524 0
M  V30 30 H 2.5318 -0.6786 -0.1831 0
M  V30 31 H 1.8215 -1.7283 -2.3213 0
M  V30 32 H 2.4977 -3.2978 -1.8055 0
M  V30 33 H 0.068 -3.3256 -1.5283 0
M  V30 34 H 0.8932 -3.4942 0.0467 0
M  V30 35 H 0.4032 -1.0989 0.5981 0
M  V30 36 H -1.058 -2.0631 0.2589 0
M  V30 37 H -1.0976 -1.1314 -2.1225 0
M  V30 38 H 0.3168 -0.1105 -1.6968 0
M  V30 39 H -1.0622 0.9112 0.2095 0
M  V30 40 H -1.5353 1.3226 -1.4719 0
M  V30 41 H -3.3437 -0.442 -1.3955 0
M  V30 42 H -2.9281 -0.7636 0.3311 0
M  V30 43 H -3.8542 1.9431 -0.8231 0
M  V30 44 H -3.4222 1.6243 0.901 0
M  V30 45 H -5.2371 -0.0962 1.0348 0
M  V30 46 H -5.6791 0.2306 -0.6854 0
M  V30 47 H -6.1222 2.6479 -0.0748 0
M  V30 48 H -5.787 2.2683 1.6475 0
M  V30 49 H -7.9904 0.9125 -0.0665 0
M  V30 50 H -8.2479 2.3396 0.9891 0
M  V30 51 H -8.9475 0.3437 2.1978 0
M  V30 52 H -7.371 -0.4698 1.9121 0
M  V30 53 H -7.4596 0.989 2.9854 0
M  V30 END ATOM
M  V30 BEGIN BOND
M  V30 1 2 1 2
M  V30 2 1 2 3
M  V30 3 1 2 4
M  V30 4 1 3 5
M  V30 5 1 4 6
M  V30 6 1 6 7
M  V30 7 1 7 8
M  V30 8 1 8 9
M  V30 9 1 9 10
M  V30 10 1 10 11
M  V30 11 1 11 12
M  V30 12 1 12 13
M  V30 13 1 13 14
M  V30 14 1 14 15
M  V30 15 1 15 16
M  V30 16 1 16 17
M  V30 17 1 17 18
M  V30 18 1 18 19
M  V30 19 1 4 20
M  V30 20 1 4 21
M  V30 21 1 5 22
M  V30 22 1 5 23
M  V30 23 1 5 24
M  V30 24 1 6 25
M  V30 25 1 6 26
M  V30 26 1 7 27
M  V30 27 1 7 28
M  V30 28 1 8 29
M  V30 29 1 8 30
M  V30 30 1 9 31
M  V30 31 1 9 32
M  V30 32 1 10 33
M  V30 33 1 10 34
M  V30 34 1 11 35
M  V30 35 1 11 36
M  V30 36 1 12 37
M  V30 37 1 12 38
M  V30 38 1 13 39
M  V30 39 1 13 40
M  V30 40 1 14 41
M  V30 41 1 14 42
M  V30 42 1 15 43
M  V30 43 1 15 44
M  V30 44 1 16 45
M  V30 45 1 16 46
M  V30 46 1 17 47
M  V30 47 1 17 48
M  V30 48 1 18 49
M  V30 49 1 18 50
M  V30 50 1 19 51
M  V30 51 1 19 52
M  V30 52 1 19 53
M  V30 END BOND
M  V30 END CTAB
M  END
>  <Structure No>
1167

>  <LogS>
-7.830038235

>  <MMFF94 Energy>
-12.03

$$$$
Compound 1168
Actelion Java MolfileCreator 2.0

  0  0  0  0  0  0              0 V3000
M  V30 BEGIN CTAB
M  V30 COUNTS 29 31 0 0 0
M  V30 BEGIN ATOM
M  V30 1 N -1.2767 1.117 0.0 0
M  V30 2 C 0.1472 1.2466 0.1194 0
M  V30 3 C -1.9438 -0.1907 -0.0841 0
M  V30 4 C 0.9746 0.1364 -0.1014 0
M  V30 5 C 0.7201 2.4842 0.4469 0
M  V30 6 N -1.0177 -1.2252 -0.5683 0
M  V30 7 C -2.4461 -0.5846 1.3105 0
M  V30 8 C -3.1264 -0.0851 -1.0578 0
M  V30 9 C 0.4066 -1.0973 -0.4492 0
M  V30 10 C 2.3799 0.2649 0.0102 0
M  V30 11 C 2.1075 2.6112 0.563 0
M  V30 12 C 1.2383 -2.2005 -0.6898 0
M  V30 13 C 2.937 1.5072 0.3472 0
M  V30 14 C 3.1978 -0.8501 -0.2248 0
M  V30 15 C 2.6261 -2.0765 -0.5744 0
M  V30 16 H -1.869 1.9661 0.1513 0
M  V30 17 H 0.0913 3.3492 0.6161 0
M  V30 18 H -1.4135 -2.1522 -0.8479 0
M  V30 19 H -1.5904 -0.661 2.0153 0
M  V30 20 H -2.962 -1.5683 1.2757 0
M  V30 21 H -3.1551 0.1775 1.6994 0
M  V30 22 H -2.7614 0.2002 -2.0676 0
M  V30 23 H -3.8503 0.6848 -0.7136 0
M  V30 24 H -3.6574 -1.0583 -1.1367 0
M  V30 25 H 2.5412 3.5692 0.8194 0
M  V30 26 H 0.8111 -3.1571 -0.9628 0
M  V30 27 H 4.0102 1.6254 0.4385 0
M  V30 28 H 4.2754 -0.772 -0.1433 0
M  V30 29 H 3.2606 -2.9338 -0.7586 0
M  V30 END ATOM
M  V30 BEGIN BOND
M  V30 1 1 1 2
M  V30 2 1 1 3
M  V30 3 1 2 4
M  V30 4 2 2 5
M  V30 5 1 3 6
M  V30 6 1 3 7
M  V30 7 1 3 8
M  V30 8 2 4 9
M  V30 9 1 4 10
M  V30 10 1 5 11
M  V30 11 1 9 12
M  V30 12 1 10 13
M  V30 13 2 10 14
M  V30 14 2 12 15
M  V30 15 1 6 9
M  V30 16 2 11 13
M  V30 17 1 14 15
M  V30 18 1 1 16
M  V30 19 1 5 17
M  V30 20 1 6 18
M  V30 21 1 7 19
M  V30 22 1 7 20
M  V30 23 1 7 21
M  V30 24 1 8 22
M  V30 25 1 8 23
M  V30 26 1 8 24
M  V30 27 1 11 25
M  V30 28 1 12 26
M  V30 29 1 13 27
M  V30 30 1 14 28
M  V30 31 1 15 29
M  V30 END BOND
M  V30 END CTAB
M  END
>  <Structure No>
1168

>  <LogS>
-2.929898895

>  <MMFF94 Energy>
5.0309

$$$$
Compound 1169
Actelion Java MolfileCreator 2.0

  0  0  0  0  0  0              0 V3000
M  V30 BEGIN CTAB
M  V30 COUNTS 55 54 0 0 0
M  V30 BEGIN ATOM
M  V30 1 O -8.6438 1.0185 1.0969 0
M  V30 2 C -7.4502 0.6582 1.2735 0
M  V30 3 O -7.182 -0.5347 1.9323 0 CHG=-1
M  V30 4 C -6.3248 1.4903 0.7395 0
M  V30 5 C -6.1164 1.2799 -0.7691 0
M  V30 6 C -5.7636 -0.1655 -1.1663 0
M  V30 7 C -4.4042 -0.6199 -0.6158 0
M  V30 8 C -4.0231 -2.0008 -1.1669 0
M  V30 9 C -2.7597 -2.5809 -0.5081 0
M  V30 10 C -1.4728 -1.7976 -0.8438 0
M  V30 11 C -1.0322 -0.8816 0.3122 0
M  V30 12 C 0.1156 0.0621 -0.081 0
M  V30 13 C 1.4514 -0.6787 -0.2664 0
M  V30 14 C 2.6082 0.2681 -0.6262 0
M  V30 15 C 3.1355 1.0464 0.592 0
M  V30 16 C 4.2551 2.0392 0.2286 0
M  V30 17 C 5.5241 1.4093 -0.3839 0
M  V30 18 C 6.1906 0.3054 0.4723 0
M  V30 19 C 7.3933 -0.2804 -0.2787 0
M  V30 20 C 6.6388 0.8319 1.8438 0
M  V30 21 H -5.3916 1.2674 1.2979 0
M  V30 22 H -6.5586 2.5621 0.9198 0
M  V30 23 H -5.31 1.9617 -1.1176 0
M  V30 24 H -7.0458 1.5768 -1.3034 0
M  V30 25 H -6.5614 -0.8603 -0.826 0
M  V30 26 H -5.7351 -0.2144 -2.2769 0
M  V30 27 H -3.6307 0.1213 -0.9103 0
M  V30 28 H -4.4514 -0.6767 0.4922 0
M  V30 29 H -4.8609 -2.708 -0.9788 0
M  V30 30 H -3.8766 -1.9402 -2.2679 0
M  V30 31 H -2.641 -3.6208 -0.8846 0
M  V30 32 H -2.9075 -2.6619 0.5917 0
M  V30 33 H -0.6634 -2.5333 -1.0377 0
M  V30 34 H -1.6071 -1.2053 -1.7753 0
M  V30 35 H -1.8893 -0.2563 0.6386 0
M  V30 36 H -0.7273 -1.5004 1.1847 0
M  V30 37 H 0.2198 0.8145 0.7284 0
M  V30 38 H -0.1495 0.6073 -1.0133 0
M  V30 39 H 1.7035 -1.2508 0.6535 0
M  V30 40 H 1.3465 -1.4073 -1.0977 0
M  V30 41 H 2.2871 0.9747 -1.423 0
M  V30 42 H 3.4299 -0.3555 -1.0377 0
M  V30 43 H 2.3085 1.6376 1.0376 0
M  V30 44 H 3.4851 0.3416 1.3757 0
M  V30 45 H 4.5323 2.6131 1.1382 0
M  V30 46 H 3.8508 2.7805 -0.495 0
M  V30 47 H 5.2729 0.9999 -1.3859 0
M  V30 48 H 6.2599 2.2256 -0.5575 0
M  V30 49 H 5.4711 -0.526 0.6301 0
M  V30 50 H 7.8506 -1.1045 0.3096 0
M  V30 51 H 8.1624 0.5011 -0.4593 0
M  V30 52 H 7.0693 -0.6979 -1.2561 0
M  V30 53 H 7.3 1.7172 1.7281 0
M  V30 54 H 5.7603 1.1116 2.4611 0
M  V30 55 H 7.192 0.043 2.3967 0
M  V30 END ATOM
M  V30 BEGIN BOND
M  V30 1 2 1 2
M  V30 2 1 2 3
M  V30 3 1 2 4
M  V30 4 1 4 5
M  V30 5 1 5 6
M  V30 6 1 6 7
M  V30 7 1 7 8
M  V30 8 1 8 9
M  V30 9 1 9 10
M  V30 10 1 10 11
M  V30 11 1 11 12
M  V30 12 1 12 13
M  V30 13 1 13 14
M  V30 14 1 14 15
M  V30 15 1 15 16
M  V30 16 1 16 17
M  V30 17 1 17 18
M  V30 18 1 18 19
M  V30 19 1 18 20
M  V30 20 1 4 21
M  V30 21 1 4 22
M  V30 22 1 5 23
M  V30 23 1 5 24
M  V30 24 1 6 25
M  V30 25 1 6 26
M  V30 26 1 7 27
M  V30 27 1 7 28
M  V30 28 1 8 29
M  V30 29 1 8 30
M  V30 30 1 9 31
M  V30 31 1 9 32
M  V30 32 1 10 33
M  V30 33 1 10 34
M  V30 34 1 11 35
M  V30 35 1 11 36
M  V30 36 1 12 37
M  V30 37 1 12 38
M  V30 38 1 13 39
M  V30 39 1 13 40
M  V30 40 1 14 41
M  V30 41 1 14 42
M  V30 42 1 15 43
M  V30 43 1 15 44
M  V30 44 1 16 45
M  V30 45 1 16 46
M  V30 46 1 17 47
M  V30 47 1 17 48
M  V30 48 1 18 49
M  V30 49 1 19 50
M  V30 50 1 19 51
M  V30 51 1 19 52
M  V30 52 1 20 53
M  V30 53 1 20 54
M  V30 54 1 20 55
M  V30 END BOND
M  V30 END CTAB
M  END
>  <Structure No>
1169

>  <LogS>
-8.146901524

>  <MMFF94 Energy>
6.0628

$$$$
Compound 1170
Actelion Java MolfileCreator 2.0

  0  0  0  0  0  0              0 V3000
M  V30 BEGIN CTAB
M  V30 COUNTS 62 64 0 0 0
M  V30 BEGIN ATOM
M  V30 1 O -0.2391 1.9146 -0.3986 0
M  V30 2 C -1.5856 1.5493 -0.2339 0
M  V30 3 C 0.7629 1.1193 -1.0317 0
M  V30 4 C -2.4235 2.4206 0.4696 0
M  V30 5 C -2.1217 0.3545 -0.7514 0
M  V30 6 C 1.2349 1.0E-4 -0.0955 0
M  V30 7 C -3.7743 2.1155 0.6574 0
M  V30 8 C -3.4717 0.0464 -0.562 0
M  V30 9 N 2.2559 -0.8348 -0.7467 0
M  V30 10 C -4.3157 0.9272 0.1389 0
M  V30 11 C 3.6406 -0.7568 -0.3313 0
M  V30 12 C 1.844 -1.7485 -1.8258 0
M  V30 13 C -5.7837 0.604 0.3524 0
M  V30 14 C 4.2393 0.4887 -0.0719 0
M  V30 15 C 4.4168 -1.9203 -0.201 0
M  V30 16 C 2.525 -1.3789 -3.1409 0
M  V30 17 C -6.5195 0.3841 -0.9834 0
M  V30 18 C -5.9633 -0.6075 1.3029 0
M  V30 19 C 5.5928 0.5819 0.2939 0
M  V30 20 C 5.7567 -1.8415 0.1808 0
M  V30 21 C -8.0383 0.2135 -0.7704 0
M  V30 22 C -7.2987 -1.3524 1.0965 0
M  V30 23 C 6.3501 -0.6026 0.4513 0
M  V30 24 C 6.1889 1.9459 0.5295 0
M  V30 25 C -8.4022 -0.4183 0.589 0
M  V30 26 C 7.774 -0.5827 0.8504 0
M  V30 27 C 8.1904 -0.2507 2.0811 0
M  V30 28 C 9.5968 -0.269 2.386 0
M  V30 29 C 7.2679 0.0822 3.1397 0
M  V30 30 N 10.7281 -0.283 2.6311 0
M  V30 31 N 6.5281 0.3479 3.9896 0
M  V30 32 H 1.6233 1.776 -1.2725 0
M  V30 33 H 0.3854 0.7182 -1.9952 0
M  V30 34 H -2.0253 3.3432 0.8733 0
M  V30 35 H -1.5099 -0.345 -1.3023 0
M  V30 36 H 1.6317 0.4491 0.8412 0
M  V30 37 H 0.3765 -0.6387 0.2012 0
M  V30 38 H -4.396 2.8102 1.2085 0
M  V30 39 H -3.8554 -0.8833 -0.9622 0
M  V30 40 H 0.7425 -1.7046 -1.9766 0
M  V30 41 H 2.0809 -2.7979 -1.558 0
M  V30 42 H -6.2725 1.4795 0.8384 0
M  V30 43 H 3.6597 1.3952 -0.1796 0
M  V30 44 H 3.988 -2.8969 -0.3751 0
M  V30 45 H 2.3142 -0.3191 -3.3963 0
M  V30 46 H 2.1404 -2.0272 -3.9559 0
M  V30 47 H 3.6227 -1.5237 -3.0622 0
M  V30 48 H -6.3404 1.2455 -1.6633 0
M  V30 49 H -6.1258 -0.5272 -1.4826 0
M  V30 50 H -5.9075 -0.2434 2.3526 0
M  V30 51 H -5.1395 -1.342 1.1734 0
M  V30 52 H 6.3311 -2.7548 0.2819 0
M  V30 53 H -8.4436 -0.418 -1.5907 0
M  V30 54 H -8.534 1.2059 -0.8434 0
M  V30 55 H -7.6168 -1.8168 2.055 0
M  V30 56 H -7.1556 -2.1722 0.3591 0
M  V30 57 H 7.263 1.9675 0.2519 0
M  V30 58 H 6.079 2.2223 1.5978 0
M  V30 59 H 5.6754 2.7118 -0.0889 0
M  V30 60 H -8.5673 0.3854 1.3398 0
M  V30 61 H -9.3533 -0.9854 0.4919 0
M  V30 62 H 8.4995 -0.9066 0.1118 0
M  V30 END ATOM
M  V30 BEGIN BOND
M  V30 1 1 1 2
M  V30 2 1 1 3
M  V30 3 2 2 4
M  V30 4 1 2 5
M  V30 5 1 3 6
M  V30 6 1 4 7
M  V30 7 2 5 8
M  V30 8 1 6 9
M  V30 9 2 7 10
M  V30 10 1 9 11
M  V30 11 1 9 12
M  V30 12 1 10 13
M  V30 13 2 11 14
M  V30 14 1 11 15
M  V30 15 1 12 16
M  V30 16 1 13 17
M  V30 17 1 13 18
M  V30 18 1 14 19
M  V30 19 2 15 20
M  V30 20 1 17 21
M  V30 21 1 18 22
M  V30 22 2 19 23
M  V30 23 1 19 24
M  V30 24 1 21 25
M  V30 25 1 23 26
M  V30 26 2 26 27
M  V30 27 1 27 28
M  V30 28 1 27 29
M  V30 29 3 28 30
M  V30 30 3 29 31
M  V30 31 1 8 10
M  V30 32 1 20 23
M  V30 33 1 22 25
M  V30 34 1 3 32
M  V30 35 1 3 33
M  V30 36 1 4 34
M  V30 37 1 5 35
M  V30 38 1 6 36
M  V30 39 1 6 37
M  V30 40 1 7 38
M  V30 41 1 8 39
M  V30 42 1 12 40
M  V30 43 1 12 41
M  V30 44 1 13 42
M  V30 45 1 14 43
M  V30 46 1 15 44
M  V30 47 1 16 45
M  V30 48 1 16 46
M  V30 49 1 16 47
M  V30 50 1 17 48
M  V30 51 1 17 49
M  V30 52 1 18 50
M  V30 53 1 18 51
M  V30 54 1 20 52
M  V30 55 1 21 53
M  V30 56 1 21 54
M  V30 57 1 22 55
M  V30 58 1 22 56
M  V30 59 1 24 57
M  V30 60 1 24 58
M  V30 61 1 24 59
M  V30 62 1 25 60
M  V30 63 1 25 61
M  V30 64 1 26 62
M  V30 END BOND
M  V30 END CTAB
M  END
>  <Structure No>
1170

>  <LogS>
-8.386094856

>  <MMFF94 Energy>
70.728

$$$$
Compound 1171
Actelion Java MolfileCreator 2.0

  0  0  0  0  0  0              0 V3000
M  V30 BEGIN CTAB
M  V30 COUNTS 72 73 0 0 0
M  V30 BEGIN ATOM
M  V30 1 O 0.6323 -1.4231 2.0561 0
M  V30 2 C 1.392 -0.7519 1.094 0
M  V30 3 C 0.7458 0.0211 0.1076 0
M  V30 4 C 2.8104 -0.8413 1.1192 0
M  V30 5 C -0.7298 0.0923 0.0298 0
M  V30 6 C 1.4933 0.7194 -0.843 0
M  V30 7 C 3.5321 -0.1127 0.1407 0
M  V30 8 C 3.5424 -1.702 2.1887 0
M  V30 9 C -1.4312 1.2585 0.397 0
M  V30 10 C -1.4211 -1.0231 -0.4431 0
M  V30 11 C 2.8983 0.6745 -0.8422 0
M  V30 12 C 3.1002 -3.1797 2.0753 0
M  V30 13 C 3.2311 -1.1663 3.6054 0
M  V30 14 C 5.086 -1.6863 2.034 0
M  V30 15 O -0.7299 2.359 0.8976 0
M  V30 16 C -2.8467 1.3139 0.2709 0
M  V30 17 C -2.8195 -1.0236 -0.5613 0
M  V30 18 C 3.7546 1.4439 -1.8738 0
M  V30 19 C -3.5124 0.1547 -0.2056 0
M  V30 20 C -3.6354 2.6001 0.654 0
M  V30 21 C -3.5313 -2.2958 -1.076 0
M  V30 22 C 4.6024 0.4434 -2.6896 0
M  V30 23 C 4.689 2.4293 -1.1373 0
M  V30 24 C 2.9091 2.2665 -2.8769 0
M  V30 25 C -3.154 3.7947 -0.2029 0
M  V30 26 C -5.1643 2.4747 0.4208 0
M  V30 27 C -3.439 2.9156 2.1549 0
M  V30 28 C -3.2083 -3.4813 -0.139 0
M  V30 29 C -5.0724 -2.1583 -1.1366 0
M  V30 30 C -3.0364 -2.6204 -2.5023 0
M  V30 31 H -0.3759 -1.3609 2.1183 0
M  V30 32 H 0.9493 1.2934 -1.579 0
M  V30 33 H 4.6066 -0.1444 0.1256 0
M  V30 34 H -0.8505 -1.9002 -0.7196 0
M  V30 35 H 3.6964 -3.824 2.7577 0
M  V30 36 H 3.2462 -3.546 1.0361 0
M  V30 37 H 2.0386 -3.3287 2.3514 0
M  V30 38 H 3.4798 -0.085 3.6709 0
M  V30 39 H 2.168 -1.2965 3.8848 0
M  V30 40 H 3.8284 -1.7071 4.3714 0
M  V30 41 H 5.4889 -0.6575 2.1576 0
M  V30 42 H 5.3909 -2.0902 1.0441 0
M  V30 43 H 5.5699 -2.3198 2.8094 0
M  V30 44 H 0.2698 2.3628 1.054 0
M  V30 45 H -4.5797 0.1643 -0.3016 0
M  V30 46 H 5.19 0.9707 -3.4723 0
M  V30 47 H 3.9456 -0.3018 -3.1884 0
M  V30 48 H 5.3241 -0.103 -2.0476 0
M  V30 49 H 5.2769 3.0328 -1.8628 0
M  V30 50 H 5.4147 1.9 -0.4857 0
M  V30 51 H 4.0953 3.1247 -0.5051 0
M  V30 52 H 3.5638 2.8079 -3.5943 0
M  V30 53 H 2.296 3.0279 -2.3475 0
M  V30 54 H 2.243 1.6043 -3.4713 0
M  V30 55 H -2.1137 4.0937 0.0284 0
M  V30 56 H -3.7858 4.6915 -0.0219 0
M  V30 57 H -3.2132 3.5413 -1.2835 0
M  V30 58 H -5.3886 2.2753 -0.6495 0
M  V30 59 H -5.5996 1.6686 1.0508 0
M  V30 60 H -5.6873 3.4173 0.6944 0
M  V30 61 H -3.7177 2.0344 2.7725 0
M  V30 62 H -4.0762 3.7725 2.4646 0
M  V30 63 H -2.3955 3.1942 2.3975 0
M  V30 64 H -3.7487 -4.3979 -0.4608 0
M  V30 65 H -2.1249 -3.7212 -0.1384 0
M  V30 66 H -3.5138 -3.2437 0.9029 0
M  V30 67 H -5.3718 -1.3474 -1.8355 0
M  V30 68 H -5.4921 -1.9518 -0.1282 0
M  V30 69 H -5.5382 -3.0989 -1.5036 0
M  V30 70 H -1.95 -2.8464 -2.5178 0
M  V30 71 H -3.5657 -3.5085 -2.911 0
M  V30 72 H -3.2233 -1.7597 -3.1805 0
M  V30 END ATOM
M  V30 BEGIN BOND
M  V30 1 1 1 2
M  V30 2 2 2 3
M  V30 3 1 2 4
M  V30 4 1 3 5
M  V30 5 1 3 6
M  V30 6 2 4 7
M  V30 7 1 4 8
M  V30 8 2 5 9
M  V30 9 1 5 10
M  V30 10 2 6 11
M  V30 11 1 8 12
M  V30 12 1 8 13
M  V30 13 1 8 14
M  V30 14 1 9 15
M  V30 15 1 9 16
M  V30 16 2 10 17
M  V30 17 1 11 18
M  V30 18 2 16 19
M  V30 19 1 16 20
M  V30 20 1 17 21
M  V30 21 1 18 22
M  V30 22 1 18 23
M  V30 23 1 18 24
M  V30 24 1 20 25
M  V30 25 1 20 26
M  V30 26 1 20 27
M  V30 27 1 21 28
M  V30 28 1 21 29
M  V30 29 1 21 30
M  V30 30 1 7 11
M  V30 31 1 17 19
M  V30 32 1 1 31
M  V30 33 1 6 32
M  V30 34 1 7 33
M  V30 35 1 10 34
M  V30 36 1 12 35
M  V30 37 1 12 36
M  V30 38 1 12 37
M  V30 39 1 13 38
M  V30 40 1 13 39
M  V30 41 1 13 40
M  V30 42 1 14 41
M  V30 43 1 14 42
M  V30 44 1 14 43
M  V30 45 1 15 44
M  V30 46 1 19 45
M  V30 47 1 22 46
M  V30 48 1 22 47
M  V30 49 1 22 48
M  V30 50 1 23 49
M  V30 51 1 23 50
M  V30 52 1 23 51
M  V30 53 1 24 52
M  V30 54 1 24 53
M  V30 55 1 24 54
M  V30 56 1 25 55
M  V30 57 1 25 56
M  V30 58 1 25 57
M  V30 59 1 26 58
M  V30 60 1 26 59
M  V30 61 1 26 60
M  V30 62 1 27 61
M  V30 63 1 27 62
M  V30 64 1 27 63
M  V30 65 1 28 64
M  V30 66 1 28 65
M  V30 67 1 28 66
M  V30 68 1 29 67
M  V30 69 1 29 68
M  V30 70 1 29 69
M  V30 71 1 30 70
M  V30 72 1 30 71
M  V30 73 1 30 72
M  V30 END BOND
M  V30 END CTAB
M  END
>  <Structure No>
1171

>  <LogS>
-6.889187497

>  <MMFF94 Energy>
114.1

$$$$
Compound 1172
Actelion Java MolfileCreator 2.0

  0  0  0  0  0  0              0 V3000
M  V30 BEGIN CTAB
M  V30 COUNTS 35 37 0 0 0
M  V30 BEGIN ATOM
M  V30 1 O 0.5621 2.2499 -1.5263 0
M  V30 2 C 1.5556 1.5156 -1.2843 0
M  V30 3 C 1.4624 0.3379 -0.378 0
M  V30 4 C 2.8609 1.882 -1.8567 0
M  V30 5 N 0.3336 -0.1583 0.052 0
M  V30 6 C 2.7379 -0.2798 0.0697 0
M  V30 7 C 3.9793 1.2535 -1.487 0
M  V30 8 N -0.9515 0.2256 -0.3708 0
M  V30 9 C 3.9604 0.1667 -0.4831 0
M  V30 10 C 2.7538 -1.3167 1.0231 0
M  V30 11 C -2.1112 -0.1087 0.4121 0
M  V30 12 C 5.1667 -0.4247 -0.0786 0
M  V30 13 C 3.9625 -1.8947 1.4187 0
M  V30 14 C -3.4053 0.1693 -0.0798 0
M  V30 15 C -1.9675 -0.7058 1.679 0
M  V30 16 C 5.1657 -1.4503 0.8689 0
M  V30 17 O -3.539 0.7729 -1.3411 0
M  V30 18 C -4.5294 -0.1628 0.7036 0
M  V30 19 C -3.0905 -1.0284 2.4428 0
M  V30 20 C -4.7817 1.1065 -1.9511 0
M  V30 21 C -4.3683 -0.7582 1.9558 0
M  V30 22 H 2.9187 2.6923 -2.5731 0
M  V30 23 H 4.9218 1.5639 -1.922 0
M  V30 24 H -1.0889 0.6059 -1.3321 0
M  V30 25 H 1.8347 -1.6808 1.4646 0
M  V30 26 H 6.109 -0.091 -0.4957 0
M  V30 27 H 3.9661 -2.6901 2.1527 0
M  V30 28 H -0.987 -0.9231 2.0822 0
M  V30 29 H 6.0998 -1.9016 1.1775 0
M  V30 30 H -5.5331 0.0359 0.3542 0
M  V30 31 H -2.9692 -1.4881 3.4152 0
M  V30 32 H -4.5868 1.5696 -2.9399 0
M  V30 33 H -5.3914 0.1908 -2.1016 0
M  V30 34 H -5.3334 1.8352 -1.3203 0
M  V30 35 H -5.237 -1.0096 2.5508 0
M  V30 END ATOM
M  V30 BEGIN BOND
M  V30 1 2 1 2
M  V30 2 1 2 3
M  V30 3 1 2 4
M  V30 4 2 3 5
M  V30 5 1 3 6
M  V30 6 2 4 7
M  V30 7 1 5 8
M  V30 8 2 6 9
M  V30 9 1 6 10
M  V30 10 1 8 11
M  V30 11 1 9 12
M  V30 12 2 10 13
M  V30 13 2 11 14
M  V30 14 1 11 15
M  V30 15 2 12 16
M  V30 16 1 14 17
M  V30 17 1 14 18
M  V30 18 2 15 19
M  V30 19 1 17 20
M  V30 20 2 18 21
M  V30 21 1 7 9
M  V30 22 1 13 16
M  V30 23 1 19 21
M  V30 24 1 4 22
M  V30 25 1 7 23
M  V30 26 1 8 24
M  V30 27 1 10 25
M  V30 28 1 12 26
M  V30 29 1 13 27
M  V30 30 1 15 28
M  V30 31 1 16 29
M  V30 32 1 18 30
M  V30 33 1 19 31
M  V30 34 1 20 32
M  V30 35 1 20 33
M  V30 36 1 20 34
M  V30 37 1 21 35
M  V30 END BOND
M  V30 END CTAB
M  END
>  <Structure No>
1172

>  <LogS>
-8.926016432

>  <MMFF94 Energy>
124.3

$$$$
Compound 1173
Actelion Java MolfileCreator 2.0

  0  0  0  0  0  0              0 V3000
M  V30 BEGIN CTAB
M  V30 COUNTS 59 58 0 0 0
M  V30 BEGIN ATOM
M  V30 1 O 9.0036 0.3121 0.234 0
M  V30 2 C 8.0734 0.8542 0.8928 0
M  V30 3 O 8.2775 1.2593 2.2151 0
M  V30 4 C 6.7223 1.0187 0.2722 0
M  V30 5 C 9.5267 1.1073 2.8778 0
M  V30 6 C 5.9219 -0.2857 0.3825 0
M  V30 7 C 4.4656 -0.1327 -0.0844 0
M  V30 8 C 4.3505 0.0871 -1.6028 0
M  V30 9 C 2.8895 0.1085 -2.0814 0
M  V30 10 C 2.2745 -1.3002 -2.1564 0
M  V30 11 C 0.9037 -1.3172 -2.857 0
M  V30 12 C -0.1987 -0.5061 -2.1512 0
M  V30 13 C -0.5402 -1.0512 -0.7535 0
M  V30 14 C -1.719 -0.3099 -0.1017 0
M  V30 15 C -3.0754 -0.7008 -0.7089 0
M  V30 16 C -4.2302 -0.0464 0.0595 0
M  V30 17 C -5.5848 -0.4175 -0.5623 0
M  V30 18 C -6.7615 0.3092 0.1082 0
M  V30 19 C -7.0466 -0.2119 1.528 0
M  V30 20 C -8.3587 0.3426 2.1049 0
M  V30 21 C -8.2746 1.8331 2.4349 0
M  V30 22 H 6.8512 1.3037 -0.7934 0
M  V30 23 H 6.1825 1.8403 0.7911 0
M  V30 24 H 10.3118 1.6876 2.3473 0
M  V30 25 H 9.4373 1.4866 3.9165 0
M  V30 26 H 9.811 0.0337 2.9106 0
M  V30 27 H 5.9069 -0.6092 1.4472 0
M  V30 28 H 6.422 -1.0872 -0.2051 0
M  V30 29 H 3.9851 0.7118 0.4565 0
M  V30 30 H 3.9259 -1.0609 0.197 0
M  V30 31 H 4.8024 1.0687 -1.859 0
M  V30 32 H 4.9178 -0.6971 -2.1498 0
M  V30 33 H 2.2915 0.7562 -1.405 0
M  V30 34 H 2.8655 0.5631 -3.0964 0
M  V30 35 H 2.1873 -1.7446 -1.1443 0
M  V30 36 H 2.9549 -1.9579 -2.7405 0
M  V30 37 H 0.5674 -2.3728 -2.9513 0
M  V30 38 H 1.0247 -0.9249 -3.8905 0
M  V30 39 H 0.0916 0.5632 -2.0829 0
M  V30 40 H -1.1005 -0.5555 -2.7956 0
M  V30 41 H -0.7622 -2.1393 -0.8093 0
M  V30 42 H 0.3406 -0.9183 -0.0903 0
M  V30 43 H -1.5676 0.7888 -0.1858 0
M  V30 44 H -1.7269 -0.5657 0.9808 0
M  V30 45 H -3.1202 -0.3744 -1.7693 0
M  V30 46 H -3.1934 -1.8063 -0.6726 0
M  V30 47 H -4.1044 1.0587 0.0393 0
M  V30 48 H -4.1981 -0.3881 1.1161 0
M  V30 49 H -5.7391 -1.5176 -0.507 0
M  V30 50 H -5.5754 -0.1334 -1.6376 0
M  V30 51 H -7.6641 0.1522 -0.5214 0
M  V30 52 H -6.5531 1.4003 0.1338 0
M  V30 53 H -7.1281 -1.3211 1.4972 0
M  V30 54 H -6.2082 0.0475 2.21 0
M  V30 55 H -9.1956 0.1649 1.395 0
M  V30 56 H -8.5918 -0.2087 3.042 0
M  V30 57 H -8.1615 2.4348 1.5093 0
M  V30 58 H -7.4185 2.0332 3.114 0
M  V30 59 H -9.2097 2.152 2.9423 0
M  V30 END ATOM
M  V30 BEGIN BOND
M  V30 1 2 1 2
M  V30 2 1 2 3
M  V30 3 1 2 4
M  V30 4 1 3 5
M  V30 5 1 4 6
M  V30 6 1 6 7
M  V30 7 1 7 8
M  V30 8 1 8 9
M  V30 9 1 9 10
M  V30 10 1 10 11
M  V30 11 1 11 12
M  V30 12 1 12 13
M  V30 13 1 13 14
M  V30 14 1 14 15
M  V30 15 1 15 16
M  V30 16 1 16 17
M  V30 17 1 17 18
M  V30 18 1 18 19
M  V30 19 1 19 20
M  V30 20 1 20 21
M  V30 21 1 4 22
M  V30 22 1 4 23
M  V30 23 1 5 24
M  V30 24 1 5 25
M  V30 25 1 5 26
M  V30 26 1 6 27
M  V30 27 1 6 28
M  V30 28 1 7 29
M  V30 29 1 7 30
M  V30 30 1 8 31
M  V30 31 1 8 32
M  V30 32 1 9 33
M  V30 33 1 9 34
M  V30 34 1 10 35
M  V30 35 1 10 36
M  V30 36 1 11 37
M  V30 37 1 11 38
M  V30 38 1 12 39
M  V30 39 1 12 40
M  V30 40 1 13 41
M  V30 41 1 13 42
M  V30 42 1 14 43
M  V30 43 1 14 44
M  V30 44 1 15 45
M  V30 45 1 15 46
M  V30 46 1 16 47
M  V30 47 1 16 48
M  V30 48 1 17 49
M  V30 49 1 17 50
M  V30 50 1 18 51
M  V30 51 1 18 52
M  V30 52 1 19 53
M  V30 53 1 19 54
M  V30 54 1 20 55
M  V30 55 1 20 56
M  V30 56 1 21 57
M  V30 57 1 21 58
M  V30 58 1 21 59
M  V30 END BOND
M  V30 END CTAB
M  END
>  <Structure No>
1173

>  <LogS>
-8.997839085

>  <MMFF94 Energy>
-10.747

$$$$
Compound 1174
Actelion Java MolfileCreator 2.0

  0  0  0  0  0  0              0 V3000
M  V30 BEGIN CTAB
M  V30 COUNTS 78 78 0 0 0
M  V30 BEGIN ATOM
M  V30 1 O -3.074 -1.1026 -1.7331 0
M  V30 2 C -1.8885 -0.873 -1.3625 0
M  V30 3 O -1.6405 -0.0989 -0.2223 0
M  V30 4 C -0.763 -1.4807 -2.1036 0
M  V30 5 C -2.6749 0.4984 0.5576 0
M  V30 6 C 0.4605 -0.7955 -2.3464 0
M  V30 7 C -0.9014 -2.8136 -2.531 0
M  V30 8 C -3.366 -0.5574 1.4312 0
M  V30 9 C 0.6619 0.6426 -2.04 0
M  V30 10 C 1.5205 -1.4928 -2.9575 0
M  V30 11 C 0.157 -3.4775 -3.1504 0
M  V30 12 C -4.477 0.034 2.3135 0
M  V30 13 O -0.3191 1.4339 -1.9929 0
M  V30 14 O 1.9594 1.1319 -1.8621 0
M  V30 15 C 1.3675 -2.8216 -3.3555 0
M  V30 16 C -5.7102 0.4568 1.5 0
M  V30 17 C 2.2357 2.4827 -1.5048 0
M  V30 18 C -6.8784 0.8378 2.4212 0
M  V30 19 C 3.7409 2.7423 -1.5551 0
M  V30 20 C -8.0715 1.4395 1.655 0
M  V30 21 C 4.5118 1.8427 -0.5787 0
M  V30 22 C -8.6771 0.531 0.5636 0
M  V30 23 C 6.0137 2.1493 -0.6258 0
M  V30 24 C -9.1433 -0.8613 1.0535 0
M  V30 25 C 6.8004 1.2284 0.3151 0
M  V30 26 C -10.2668 -0.7577 2.0943 0
M  V30 27 C -9.6153 -1.7039 -0.1389 0
M  V30 28 C 8.2998 1.56 0.2804 0
M  V30 29 C 9.1104 0.7866 1.3373 0
M  V30 30 C 9.1395 -0.7505 1.148 0
M  V30 31 C 9.7715 -1.1564 -0.1932 0
M  V30 32 C 9.9124 -1.4001 2.3043 0
M  V30 33 H -2.2172 1.2699 1.2132 0
M  V30 34 H -3.3995 1.0047 -0.1156 0
M  V30 35 H -1.8236 -3.353 -2.356 0
M  V30 36 H -3.7869 -1.3669 0.7961 0
M  V30 37 H -2.6008 -1.02 2.0922 0
M  V30 38 H 2.4666 -1.0031 -3.1532 0
M  V30 39 H 0.0409 -4.5073 -3.4626 0
M  V30 40 H -4.7793 -0.747 3.045 0
M  V30 41 H -4.0838 0.9019 2.8862 0
M  V30 42 H 2.1878 -3.3413 -3.8321 0
M  V30 43 H -6.0164 -0.3872 0.8449 0
M  V30 44 H -5.4563 1.3301 0.8623 0
M  V30 45 H 1.7336 3.1672 -2.2221 0
M  V30 46 H 1.8468 2.6882 -0.4839 0
M  V30 47 H -7.2045 -0.0456 3.0085 0
M  V30 48 H -6.5279 1.5979 3.1526 0
M  V30 49 H 3.9245 3.8089 -1.298 0
M  V30 50 H 4.1037 2.5682 -2.5926 0
M  V30 51 H -7.7415 2.3861 1.1728 0
M  V30 52 H -8.8612 1.7225 2.3836 0
M  V30 53 H 4.1329 2.0101 0.4544 0
M  V30 54 H 4.3473 0.7762 -0.848 0
M  V30 55 H -7.9303 0.4066 -0.2505 0
M  V30 56 H -9.5437 1.0651 0.1129 0
M  V30 57 H 6.3856 2.0128 -1.6657 0
M  V30 58 H 6.1782 3.2081 -0.3288 0
M  V30 59 H -8.2877 -1.4011 1.5121 0
M  V30 60 H 6.4188 1.3483 1.3533 0
M  V30 61 H 6.6432 0.1767 -0.0049 0
M  V30 62 H -11.1253 -0.1803 1.6858 0
M  V30 63 H -10.6224 -1.7716 2.3793 0
M  V30 64 H -9.9013 -0.2612 3.0188 0
M  V30 65 H -8.7942 -1.8178 -0.8776 0
M  V30 66 H -9.9099 -2.7191 0.2027 0
M  V30 67 H -10.4845 -1.2233 -0.6406 0
M  V30 68 H 8.4282 2.6448 0.4906 0
M  V30 69 H 8.71 1.3787 -0.736 0
M  V30 70 H 8.6915 1.0242 2.341 0
M  V30 71 H 10.1533 1.1742 1.3205 0
M  V30 72 H 8.1023 -1.1481 1.1835 0
M  V30 73 H 9.1156 -0.8577 -1.038 0
M  V30 74 H 10.7686 -0.6791 -0.3204 0
M  V30 75 H 9.8939 -2.2602 -0.2445 0
M  V30 76 H 9.4309 -1.1519 3.2737 0
M  V30 77 H 9.914 -2.5051 2.1963 0
M  V30 78 H 10.9637 -1.0416 2.3255 0
M  V30 END ATOM
M  V30 BEGIN BOND
M  V30 1 2 1 2
M  V30 2 1 2 3
M  V30 3 1 2 4
M  V30 4 1 3 5
M  V30 5 2 4 6
M  V30 6 1 4 7
M  V30 7 1 5 8
M  V30 8 1 6 9
M  V30 9 1 6 10
M  V30 10 2 7 11
M  V30 11 1 8 12
M  V30 12 2 9 13
M  V30 13 1 9 14
M  V30 14 2 10 15
M  V30 15 1 12 16
M  V30 16 1 14 17
M  V30 17 1 16 18
M  V30 18 1 17 19
M  V30 19 1 18 20
M  V30 20 1 19 21
M  V30 21 1 20 22
M  V30 22 1 21 23
M  V30 23 1 22 24
M  V30 24 1 23 25
M  V30 25 1 24 26
M  V30 26 1 24 27
M  V30 27 1 25 28
M  V30 28 1 28 29
M  V30 29 1 29 30
M  V30 30 1 30 31
M  V30 31 1 30 32
M  V30 32 1 11 15
M  V30 33 1 5 33
M  V30 34 1 5 34
M  V30 35 1 7 35
M  V30 36 1 8 36
M  V30 37 1 8 37
M  V30 38 1 10 38
M  V30 39 1 11 39
M  V30 40 1 12 40
M  V30 41 1 12 41
M  V30 42 1 15 42
M  V30 43 1 16 43
M  V30 44 1 16 44
M  V30 45 1 17 45
M  V30 46 1 17 46
M  V30 47 1 18 47
M  V30 48 1 18 48
M  V30 49 1 19 49
M  V30 50 1 19 50
M  V30 51 1 20 51
M  V30 52 1 20 52
M  V30 53 1 21 53
M  V30 54 1 21 54
M  V30 55 1 22 55
M  V30 56 1 22 56
M  V30 57 1 23 57
M  V30 58 1 23 58
M  V30 59 1 24 59
M  V30 60 1 25 60
M  V30 61 1 25 61
M  V30 62 1 26 62
M  V30 63 1 26 63
M  V30 64 1 26 64
M  V30 65 1 27 65
M  V30 66 1 27 66
M  V30 67 1 27 67
M  V30 68 1 28 68
M  V30 69 1 28 69
M  V30 70 1 29 70
M  V30 71 1 29 71
M  V30 72 1 30 72
M  V30 73 1 31 73
M  V30 74 1 31 74
M  V30 75 1 31 75
M  V30 76 1 32 76
M  V30 77 1 32 77
M  V30 78 1 32 78
M  V30 END BOND
M  V30 END CTAB
M  END
>  <Structure No>
1174

>  <LogS>
-9.419539808

>  <MMFF94 Energy>
27.198

$$$$
Compound 1175
Actelion Java MolfileCreator 2.0

  0  0  0  0  0  0              0 V3000
M  V30 BEGIN CTAB
M  V30 COUNTS 62 61 0 0 0
M  V30 BEGIN ATOM
M  V30 1 O 6.5516 0.5512 -0.5512 0
M  V30 2 C 6.4536 0.8126 0.6819 0
M  V30 3 O 5.1994 1.0009 1.2683 0
M  V30 4 C 7.6551 0.9265 1.5227 0
M  V30 5 C 3.9895 0.9776 0.5184 0
M  V30 6 C 8.8861 0.7487 1.0419 0
M  V30 7 C 2.8027 1.1843 1.4559 0
M  V30 8 O 1.6068 1.303 0.7095 0
M  V30 9 C 0.9385 0.0574 0.629 0
M  V30 10 C -0.2354 0.1355 -0.3884 0
M  V30 11 C -0.9478 -1.2462 -0.4037 0
M  V30 12 C -1.2277 1.2305 0.0993 0
M  V30 13 C 0.3649 0.4926 -1.79 0
M  V30 14 O -0.0761 -2.2437 -0.9022 0
M  V30 15 O -2.4227 1.2115 -0.657 0
M  V30 16 C -0.6174 0.4958 -2.9672 0
M  V30 17 C -0.6195 -3.5328 -0.6921 0
M  V30 18 C -3.2686 2.2829 -0.2859 0
M  V30 19 C -0.0444 -4.1412 0.589 0
M  V30 20 C -3.0329 3.49 -1.1974 0
M  V30 21 O -0.4905 -5.4861 0.7543 0
M  V30 22 O -4.0219 4.4911 -0.9684 0
M  V30 23 C -1.7873 -5.8247 1.1653 0
M  V30 24 C -4.0293 5.3284 0.1562 0
M  V30 25 O -2.6269 -4.9249 1.442 0
M  V30 26 C -2.1841 -7.2359 1.2815 0
M  V30 27 O -3.0978 5.2715 1.0032 0
M  V30 28 C -5.1265 6.2863 0.3611 0
M  V30 29 C -1.3487 -8.2345 1.009 0
M  V30 30 C -6.1291 6.4123 -0.5056 0
M  V30 31 H 7.5317 1.1699 2.5709 0
M  V30 32 H 4.0085 1.7898 -0.241 0
M  V30 33 H 3.8923 -3.0E-4 0.0 0
M  V30 34 H 9.7405 0.8514 1.6971 0
M  V30 35 H 9.0586 0.5014 0.0012 0
M  V30 36 H 2.9549 2.1368 2.0082 0
M  V30 37 H 2.7716 0.3741 2.2235 0
M  V30 38 H 1.6405 -0.7484 0.3127 0
M  V30 39 H 0.5415 -0.2141 1.6344 0
M  V30 40 H -1.8606 -1.2041 -1.0372 0
M  V30 41 H -1.2792 -1.485 0.6343 0
M  V30 42 H -1.471 1.0398 1.1695 0
M  V30 43 H -0.7327 2.2255 0.0303 0
M  V30 44 H 1.1773 -0.2262 -2.0368 0
M  V30 45 H 0.8386 1.4983 -1.7459 0
M  V30 46 H -1.1265 -0.4829 -3.0759 0
M  V30 47 H -1.3642 1.307 -2.8645 0
M  V30 48 H -0.0536 0.6846 -3.9055 0
M  V30 49 H -0.3174 -4.1733 -1.5479 0
M  V30 50 H -1.7347 -3.5459 -0.6706 0
M  V30 51 H -3.1691 2.5732 0.7863 0
M  V30 52 H -4.3188 1.9469 -0.4219 0
M  V30 53 H 1.0641 -4.1461 0.5149 0
M  V30 54 H -0.3257 -3.5342 1.476 0
M  V30 55 H -3.1083 3.1614 -2.2558 0
M  V30 56 H -2.0166 3.9142 -1.0413 0
M  V30 57 H -3.1918 -7.4701 1.6045 0
M  V30 58 H -5.1204 6.9082 1.2491 0
M  V30 59 H -0.3331 -8.0495 0.68 0
M  V30 60 H -1.6809 -9.2595 1.1101 0
M  V30 61 H -6.9201 7.1267 -0.3154 0
M  V30 62 H -6.177 5.8157 -1.4078 0
M  V30 END ATOM
M  V30 BEGIN BOND
M  V30 1 2 1 2
M  V30 2 1 2 3
M  V30 3 1 2 4
M  V30 4 1 3 5
M  V30 5 2 4 6
M  V30 6 1 5 7
M  V30 7 1 7 8
M  V30 8 1 8 9
M  V30 9 1 9 10
M  V30 10 1 10 11
M  V30 11 1 10 12
M  V30 12 1 10 13
M  V30 13 1 11 14
M  V30 14 1 12 15
M  V30 15 1 13 16
M  V30 16 1 14 17
M  V30 17 1 15 18
M  V30 18 1 17 19
M  V30 19 1 18 20
M  V30 20 1 19 21
M  V30 21 1 20 22
M  V30 22 1 21 23
M  V30 23 1 22 24
M  V30 24 2 23 25
M  V30 25 1 23 26
M  V30 26 2 24 27
M  V30 27 1 24 28
M  V30 28 2 26 29
M  V30 29 2 28 30
M  V30 30 1 4 31
M  V30 31 1 5 32
M  V30 32 1 5 33
M  V30 33 1 6 34
M  V30 34 1 6 35
M  V30 35 1 7 36
M  V30 36 1 7 37
M  V30 37 1 9 38
M  V30 38 1 9 39
M  V30 39 1 11 40
M  V30 40 1 11 41
M  V30 41 1 12 42
M  V30 42 1 12 43
M  V30 43 1 13 44
M  V30 44 1 13 45
M  V30 45 1 16 46
M  V30 46 1 16 47
M  V30 47 1 16 48
M  V30 48 1 17 49
M  V30 49 1 17 50
M  V30 50 1 18 51
M  V30 51 1 18 52
M  V30 52 1 19 53
M  V30 53 1 19 54
M  V30 54 1 20 55
M  V30 55 1 20 56
M  V30 56 1 26 57
M  V30 57 1 28 58
M  V30 58 1 29 59
M  V30 59 1 29 60
M  V30 60 1 30 61
M  V30 61 1 30 62
M  V30 END BOND
M  V30 END CTAB
M  END
>  <Structure No>
1175

>  <LogS>
-2.687445856

>  <MMFF94 Energy>
66.927

$$$$
Compound 1176
Actelion Java MolfileCreator 2.0

  0  0  0  0  0  0              0 V3000
M  V30 BEGIN CTAB
M  V30 COUNTS 36 38 0 0 0
M  V30 BEGIN ATOM
M  V30 1 O 4.9663 -1.4399 1.5999 0
M  V30 2 C 3.7551 -1.081 1.0125 0
M  V30 3 C 3.02 0.0073 1.4987 0
M  V30 4 C 3.2681 -1.8175 -0.0703 0
M  V30 5 C 1.806 0.3591 0.9017 0
M  V30 6 C 2.0545 -1.469 -0.67 0
M  V30 7 C 1.3144 -0.3681 -0.2019 0
M  V30 8 C -0.0196 -0.0401 -0.8544 0
M  V30 9 C -0.3312 1.4433 -0.8335 0
M  V30 10 C -1.144 -0.8727 -0.259 0
M  V30 11 N -1.1813 1.9632 0.0983 0
M  V30 12 C 0.3042 2.3075 -1.7398 0
M  V30 13 C -2.0201 -1.5754 -1.1063 0
M  V30 14 C -1.3549 -0.9302 1.1331 0
M  V30 15 C -1.4519 3.2939 0.166 0
M  V30 16 C 0.0393 3.6773 -1.6856 0
M  V30 17 C -3.0685 -2.3319 -0.5744 0
M  V30 18 C -2.4045 -1.6875 1.6611 0
M  V30 19 C -0.8454 4.1768 -0.7289 0
M  V30 20 C -3.2623 -2.3908 0.8112 0
M  V30 21 O -4.3036 -3.1416 1.3521 0
M  V30 22 H 5.3454 -0.9266 2.3872 0
M  V30 23 H 3.386 0.5787 2.3423 0
M  V30 24 H 3.8287 -2.6642 -0.4455 0
M  V30 25 H 1.2522 1.1955 1.3073 0
M  V30 26 H 1.6896 -2.0603 -1.5008 0
M  V30 27 H 0.0738 -0.3161 -1.9297 0
M  V30 28 H 0.9996 1.9236 -2.4759 0
M  V30 29 H -1.8937 -1.5395 -2.1812 0
M  V30 30 H -0.7137 -0.3849 1.8122 0
M  V30 31 H -2.1353 3.6664 0.9174 0
M  V30 32 H 0.522 4.3509 -2.3815 0
M  V30 33 H -3.7311 -2.87 -1.2405 0
M  V30 34 H -2.5536 -1.7247 2.7328 0
M  V30 35 H -1.0556 5.2373 -0.6787 0
M  V30 36 H -4.9429 -3.6619 0.7626 0
M  V30 END ATOM
M  V30 BEGIN BOND
M  V30 1 1 1 2
M  V30 2 2 2 3
M  V30 3 1 2 4
M  V30 4 1 3 5
M  V30 5 2 4 6
M  V30 6 2 5 7
M  V30 7 1 7 8
M  V30 8 1 8 9
M  V30 9 1 8 10
M  V30 10 2 9 11
M  V30 11 1 9 12
M  V30 12 2 10 13
M  V30 13 1 10 14
M  V30 14 1 11 15
M  V30 15 2 12 16
M  V30 16 1 13 17
M  V30 17 2 14 18
M  V30 18 2 15 19
M  V30 19 2 17 20
M  V30 20 1 20 21
M  V30 21 1 6 7
M  V30 22 1 16 19
M  V30 23 1 18 20
M  V30 24 1 1 22
M  V30 25 1 3 23
M  V30 26 1 4 24
M  V30 27 1 5 25
M  V30 28 1 6 26
M  V30 29 1 8 27
M  V30 30 1 12 28
M  V30 31 1 13 29
M  V30 32 1 14 30
M  V30 33 1 15 31
M  V30 34 1 16 32
M  V30 35 1 17 33
M  V30 36 1 18 34
M  V30 37 1 19 35
M  V30 38 1 21 36
M  V30 END BOND
M  V30 END CTAB
M  END
>  <Structure No>
1176

>  <LogS>
-4.523907797

>  <MMFF94 Energy>
76.919

$$$$
Compound 1177
Actelion Java MolfileCreator 2.0

  0  0  0  0  0  0              0 V3000
M  V30 BEGIN CTAB
M  V30 COUNTS 5 4 0 0 0
M  V30 BEGIN ATOM
M  V30 1 O -0.3946 1.2631 -0.4735 0
M  V30 2 C -0.4095 0.0375 -0.1863 0
M  V30 3 O 0.7107 -0.5641 0.3754 0
M  V30 4 O -1.5489 -0.7161 -0.4313 0 CHG=-1
M  V30 5 H 1.5502 -0.0281 0.5606 0
M  V30 END ATOM
M  V30 BEGIN BOND
M  V30 1 2 1 2
M  V30 2 1 2 3
M  V30 3 1 2 4
M  V30 4 1 3 5
M  V30 END BOND
M  V30 END CTAB
M  END
>  <Structure No>
1177

>  <LogS>
-3.452021679

>  <MMFF94 Energy>
-89.96

$$$$
Compound 1178
Actelion Java MolfileCreator 2.0

  0  0  0  0  0  0              0 V3000
M  V30 BEGIN CTAB
M  V30 COUNTS 36 38 0 0 0
M  V30 BEGIN ATOM
M  V30 1 O -2.9953 -1.8611 -1.7802 0
M  V30 2 C -3.0179 -1.3764 -0.6175 0
M  V30 3 O -2.5398 -2.1438 0.4379 0 CHG=-1
M  V30 4 C -3.5902 -0.0274 -0.3814 0
M  V30 5 C -3.2229 0.7745 0.7335 0
M  V30 6 C -4.5656 0.4562 -1.2746 0
M  V30 7 C -2.1369 0.3981 1.6661 0
M  V30 8 C -3.8792 1.9978 0.9511 0
M  V30 9 C -5.1909 1.6845 -1.0529 0
M  V30 10 O -2.4013 0.3263 2.8973 0
M  V30 11 C -0.7489 0.1456 1.1984 0
M  V30 12 C -4.8554 2.4491 0.0626 0
M  V30 13 C 0.1599 -0.5369 2.0247 0
M  V30 14 C -0.3145 0.5921 -0.0626 0
M  V30 15 C 1.4669 -0.7821 1.5948 0
M  V30 16 C 0.9918 0.3458 -0.4927 0
M  V30 17 C 1.897 -0.3456 0.3301 0
M  V30 18 C 3.2853 -0.6086 -0.1282 0
M  V30 19 C 3.5392 -0.9879 -1.4602 0
M  V30 20 C 4.3693 -0.4831 0.7616 0
M  V30 21 C 4.8469 -1.2355 -1.8891 0
M  V30 22 C 5.6749 -0.7309 0.3269 0
M  V30 23 C 5.9135 -1.1069 -0.9967 0
M  V30 24 H -4.8652 -0.1294 -2.1351 0
M  V30 25 H -3.6148 2.6178 1.7996 0
M  V30 26 H -5.9458 2.0391 -1.7429 0
M  V30 27 H -5.3461 3.3984 0.2346 0
M  V30 28 H -0.1438 -0.8956 3.0005 0
M  V30 29 H -0.9791 1.1432 -0.7156 0
M  V30 30 H 2.1356 -1.3313 2.2457 0
M  V30 31 H 1.3 0.7154 -1.4627 0
M  V30 32 H 2.7259 -1.11 -2.1647 0
M  V30 33 H 4.2094 -0.1761 1.7877 0
M  V30 34 H 5.0326 -1.5306 -2.9138 0
M  V30 35 H 6.5028 -0.628 1.0165 0
M  V30 36 H 6.9249 -1.2987 -1.3309 0
M  V30 END ATOM
M  V30 BEGIN BOND
M  V30 1 2 1 2
M  V30 2 1 2 3
M  V30 3 1 2 4
M  V30 4 2 4 5
M  V30 5 1 4 6
M  V30 6 1 5 7
M  V30 7 1 5 8
M  V30 8 2 6 9
M  V30 9 2 7 10
M  V30 10 1 7 11
M  V30 11 2 8 12
M  V30 12 2 11 13
M  V30 13 1 11 14
M  V30 14 1 13 15
M  V30 15 2 14 16
M  V30 16 2 15 17
M  V30 17 1 17 18
M  V30 18 2 18 19
M  V30 19 1 18 20
M  V30 20 1 19 21
M  V30 21 2 20 22
M  V30 22 2 21 23
M  V30 23 1 9 12
M  V30 24 1 16 17
M  V30 25 1 22 23
M  V30 26 1 6 24
M  V30 27 1 8 25
M  V30 28 1 9 26
M  V30 29 1 12 27
M  V30 30 1 13 28
M  V30 31 1 14 29
M  V30 32 1 15 30
M  V30 33 1 16 31
M  V30 34 1 19 32
M  V30 35 1 20 33
M  V30 36 1 21 34
M  V30 37 1 22 35
M  V30 38 1 23 36
M  V30 END BOND
M  V30 END CTAB
M  END
>  <Structure No>
1178

>  <LogS>
-4.828233467

>  <MMFF94 Energy>
97.991

$$$$
Compound 1179
Actelion Java MolfileCreator 2.0

  0  0  0  0  0  0              0 V3000
M  V30 BEGIN CTAB
M  V30 COUNTS 28 28 0 0 0
M  V30 BEGIN ATOM
M  V30 1 O 1.4793 -3.3719 0.7394 0
M  V30 2 N 0.8598 -2.9119 -0.2419 0 CHG=1
M  V30 3 O 0.7785 -3.6715 -1.3868 0 CHG=-1
M  V30 4 N 0.2293 -1.6494 -0.1727 0
M  V30 5 C 0.5955 -0.6992 0.8912 0
M  V30 6 C -0.5789 -1.1931 -1.3144 0
M  V30 7 N 1.4986 0.3375 0.3612 0
M  V30 8 N -1.6077 -0.2366 -0.8876 0
M  V30 9 N 2.8911 0.1019 0.3469 0 CHG=1
M  V30 10 C 0.991 1.5344 -0.3354 0
M  V30 11 N -2.7127 -0.6918 -0.1361 0 CHG=1
M  V30 12 C -1.3939 1.1967 -1.1249 0
M  V30 13 O 3.3684 -0.9412 0.8396 0
M  V30 14 O 3.7472 1.0199 -0.2174 0 CHG=-1
M  V30 15 N -0.4524 1.7329 -0.1339 0
M  V30 16 O -3.5973 0.1021 0.2455 0
M  V30 17 O -2.8406 -2.0267 0.1732 0 CHG=-1
M  V30 18 N -0.9262 2.3236 1.0583 0 CHG=1
M  V30 19 O -0.1284 2.6695 1.9544 0
M  V30 20 O -2.2724 2.5294 1.2542 0 CHG=-1
M  V30 21 H -0.3147 -0.2542 1.3386 0
M  V30 22 H 1.0767 -1.2188 1.7451 0
M  V30 23 H 0.0946 -0.7388 -2.0724 0
M  V30 24 H -1.0806 -2.055 -1.8033 0
M  V30 25 H 1.5337 2.4331 0.0279 0
M  V30 26 H 1.2206 1.4434 -1.4188 0
M  V30 27 H -0.9981 1.3542 -2.1516 0
M  V30 28 H -2.3539 1.7522 -1.097 0
M  V30 END ATOM
M  V30 BEGIN BOND
M  V30 1 2 1 2
M  V30 2 1 2 3
M  V30 3 1 2 4
M  V30 4 1 4 5
M  V30 5 1 4 6
M  V30 6 1 5 7
M  V30 7 1 6 8
M  V30 8 1 7 9
M  V30 9 1 7 10
M  V30 10 1 8 11
M  V30 11 1 8 12
M  V30 12 2 9 13
M  V30 13 1 9 14
M  V30 14 1 10 15
M  V30 15 2 11 16
M  V30 16 1 11 17
M  V30 17 1 15 18
M  V30 18 2 18 19
M  V30 19 1 18 20
M  V30 20 1 12 15
M  V30 21 1 5 21
M  V30 22 1 5 22
M  V30 23 1 6 23
M  V30 24 1 6 24
M  V30 25 1 10 25
M  V30 26 1 10 26
M  V30 27 1 12 27
M  V30 28 1 12 28
M  V30 END BOND
M  V30 END CTAB
M  END
>  <Structure No>
1179

>  <LogS>
-4.82511681

>  <MMFF94 Energy>
-264.04

$$$$
Compound 1180
Actelion Java MolfileCreator 2.0

  0  0  0  0  0  0              0 V3000
M  V30 BEGIN CTAB
M  V30 COUNTS 44 44 0 0 0
M  V30 BEGIN ATOM
M  V30 1 O -1.5736 2.6763 1.2587 0
M  V30 2 C -2.2074 1.6323 1.2955 0
M  V30 3 C -1.9483 0.5247 0.2861 0 CFG=1
M  V30 4 C -3.2691 1.4806 2.3463 0
M  V30 5 C -1.1465 1.0105 -0.9316 0
M  V30 6 C -1.4018 -0.7565 0.9689 0
M  V30 7 C 0.1561 1.4035 -0.9195 0
M  V30 8 C -1.8805 1.1459 -2.2491 0
M  V30 9 C -1.2502 -1.98 0.0451 0
M  V30 10 C 1.0406 1.6145 0.2887 0
M  V30 11 C -0.0429 -1.9224 -0.8762 0
M  V30 12 C 2.4528 1.1127 0.0283 0
M  V30 13 C 1.2375 -1.9818 -0.4422 0
M  V30 14 C -0.266 -1.9116 -2.3678 0
M  V30 15 C 3.0024 0.0247 0.6227 0
M  V30 16 C 3.3081 1.8787 -0.9501 0
M  V30 17 C 1.695 -2.1522 0.9899 0
M  V30 18 C 2.3197 -0.8862 1.6176 0
M  V30 19 H -2.9597 0.2395 -0.0759 0
M  V30 20 H -3.8372 0.5363 2.2146 0
M  V30 21 H -3.9828 2.3283 2.2784 0
M  V30 22 H -2.7986 1.4811 3.3516 0
M  V30 23 H -0.473 -0.5663 1.5138 0
M  V30 24 H -2.1266 -1.0547 1.7568 0
M  V30 25 H 0.5834 1.7365 -1.8626 0
M  V30 26 H -2.8792 0.6633 -2.2295 0
M  V30 27 H -1.3006 0.6838 -3.0738 0
M  V30 28 H -2.0196 2.2227 -2.4815 0
M  V30 29 H -1.1749 -2.8978 0.6664 0
M  V30 30 H -2.1867 -2.0955 -0.5412 0
M  V30 31 H 0.6077 1.2265 1.2161 0
M  V30 32 H 1.102 2.7101 0.4601 0
M  V30 33 H 2.0324 -1.9377 -1.1837 0
M  V30 34 H -1.3403 -1.8071 -2.6247 0
M  V30 35 H 0.104 -2.8624 -2.8057 0
M  V30 36 H 0.2914 -1.069 -2.8282 0
M  V30 37 H 4.0187 -0.2523 0.3528 0
M  V30 38 H 2.7766 2.7715 -1.3417 0
M  V30 39 H 3.5746 1.2249 -1.8072 0
M  V30 40 H 4.238 2.2233 -0.4501 0
M  V30 41 H 2.468 -2.9508 0.9826 0
M  V30 42 H 0.8842 -2.5291 1.6454 0
M  V30 43 H 1.5972 -0.3464 2.2542 0
M  V30 44 H 3.0967 -1.2218 2.338 0
M  V30 END ATOM
M  V30 BEGIN BOND
M  V30 1 2 1 2
M  V30 2 1 2 3
M  V30 3 1 2 4
M  V30 4 1 3 5
M  V30 5 1 3 6
M  V30 6 2 5 7
M  V30 7 1 5 8
M  V30 8 1 6 9
M  V30 9 1 7 10
M  V30 10 1 9 11
M  V30 11 1 10 12
M  V30 12 2 11 13
M  V30 13 1 11 14
M  V30 14 2 12 15
M  V30 15 1 12 16
M  V30 16 1 13 17
M  V30 17 1 15 18
M  V30 18 1 17 18
M  V30 19 1 3 19
M  V30 20 1 4 20
M  V30 21 1 4 21
M  V30 22 1 4 22
M  V30 23 1 6 23
M  V30 24 1 6 24
M  V30 25 1 7 25
M  V30 26 1 8 26
M  V30 27 1 8 27
M  V30 28 1 8 28
M  V30 29 1 9 29
M  V30 30 1 9 30
M  V30 31 1 10 31
M  V30 32 1 10 32
M  V30 33 1 13 33
M  V30 34 1 14 34
M  V30 35 1 14 35
M  V30 36 1 14 36
M  V30 37 1 15 37
M  V30 38 1 16 38
M  V30 39 1 16 39
M  V30 40 1 16 40
M  V30 41 1 17 41
M  V30 42 1 17 42
M  V30 43 1 18 43
M  V30 44 1 18 44
M  V30 END BOND
M  V30 BEGIN COLLECTION
M  V30 MDLV30/STEABS ATOMS=(1 3)
M  V30 END COLLECTION
M  V30 END CTAB
M  END
>  <Structure No>
1180

>  <LogS>
-5.449126022

>  <MMFF94 Energy>
68.65

$$$$
Compound 1181
Actelion Java MolfileCreator 2.0

  0  0  0  0  0  0              0 V3000
M  V30 BEGIN CTAB
M  V30 COUNTS 30 29 0 0 0
M  V30 BEGIN ATOM
M  V30 1 N 2.0435 -2.8303 -1.8075 0
M  V30 2 C 1.902 -1.8835 -1.1571 0
M  V30 3 C 1.7208 -0.6754 -0.3274 0 CFG=1
M  V30 4 N 0.3189 -0.5369 0.013 0
M  V30 5 C 2.5467 -0.8544 0.9697 0
M  V30 6 C 2.1944 0.5525 -1.1283 0
M  V30 7 N -0.5611 -0.4237 -0.8662 0
M  V30 8 C 2.393 0.2943 1.9715 0
M  V30 9 C -1.9655 -0.2683 -0.534 0 CFG=1
M  V30 10 C -2.356 -1.2331 0.5175 0
M  V30 11 C -2.2709 1.1856 -0.0845 0
M  V30 12 C -2.7843 -0.5826 -1.7933 0
M  V30 13 N -2.6608 -1.9877 1.3404 0
M  V30 14 C -1.487 1.653 1.1462 0
M  V30 15 H 2.2305 -1.7926 1.4785 0
M  V30 16 H 3.6257 -0.9623 0.7197 0
M  V30 17 H 3.2928 0.515 -1.2935 0
M  V30 18 H 1.9436 1.4927 -0.5938 0
M  V30 19 H 1.6935 0.5898 -2.1201 0
M  V30 20 H 2.8032 1.2384 1.5583 0
M  V30 21 H 2.9588 0.0522 2.8955 0
M  V30 22 H 1.3275 0.4392 2.2467 0
M  V30 23 H -3.3566 1.2794 0.1413 0
M  V30 24 H -2.0478 1.8862 -0.9192 0
M  V30 25 H -2.5835 -1.6201 -2.1396 0
M  V30 26 H -3.8737 -0.4825 -1.5938 0
M  V30 27 H -2.5123 0.1129 -2.6165 0
M  V30 28 H -0.415 1.7917 0.897 0
M  V30 29 H -1.8841 2.6336 1.483 0
M  V30 30 H -1.5869 0.9314 1.9836 0
M  V30 END ATOM
M  V30 BEGIN BOND
M  V30 1 3 1 2
M  V30 2 1 2 3
M  V30 3 1 3 4
M  V30 4 1 3 5
M  V30 5 1 3 6
M  V30 6 2 4 7
M  V30 7 1 5 8
M  V30 8 1 7 9
M  V30 9 1 9 10
M  V30 10 1 9 11
M  V30 11 1 9 12
M  V30 12 3 10 13
M  V30 13 1 11 14
M  V30 14 1 5 15
M  V30 15 1 5 16
M  V30 16 1 6 17
M  V30 17 1 6 18
M  V30 18 1 6 19
M  V30 19 1 8 20
M  V30 20 1 8 21
M  V30 21 1 8 22
M  V30 22 1 11 23
M  V30 23 1 11 24
M  V30 24 1 12 25
M  V30 25 1 12 26
M  V30 26 1 12 27
M  V30 27 1 14 28
M  V30 28 1 14 29
M  V30 29 1 14 30
M  V30 END BOND
M  V30 BEGIN COLLECTION
M  V30 MDLV30/STEABS ATOMS=(2 3 9)
M  V30 END COLLECTION
M  V30 END CTAB
M  END
>  <Structure No>
1181

>  <LogS>
-2.696191526

>  <MMFF94 Energy>
54.698

$$$$
Compound 1182
Actelion Java MolfileCreator 2.0

  0  0  0  0  0  0              0 V3000
M  V30 BEGIN CTAB
M  V30 COUNTS 18 17 0 0 0
M  V30 BEGIN ATOM
M  V30 1 O -0.7136 2.3007 0.7136 0
M  V30 2 C -1.3836 1.249 0.8935 0
M  V30 3 O -2.2733 1.1821 1.9583 0 CHG=-1
M  V30 4 C -1.1961 0.0468 0.0018 0 CFG=1
M  V30 5 N -0.8183 0.4367 -1.3634 0 CHG=1
M  V30 6 C -0.2107 -0.9753 0.6192 0
M  V30 7 C 1.236 -0.4761 0.8078 0
M  V30 8 C 2.0416 -0.5381 -0.4548 0
M  V30 9 O 2.1991 -1.6334 -1.056 0
M  V30 10 O 2.6517 0.6085 -0.9475 0 CHG=-1
M  V30 11 H -2.1838 -0.4643 -0.0567 0
M  V30 12 H 0.0427 1.0278 -1.3662 0
M  V30 13 H -0.6558 -0.4159 -1.9466 0
M  V30 14 H -1.5975 0.9843 -1.7962 0
M  V30 15 H -0.6035 -1.2647 1.6191 0
M  V30 16 H -0.2149 -1.9057 0.01 0
M  V30 17 H 1.2479 0.5557 1.2163 0
M  V30 18 H 1.7377 -1.1245 1.558 0
M  V30 END ATOM
M  V30 BEGIN BOND
M  V30 1 2 1 2
M  V30 2 1 2 3
M  V30 3 1 2 4
M  V30 4 1 4 5
M  V30 5 1 4 6
M  V30 6 1 6 7
M  V30 7 1 7 8
M  V30 8 2 8 9
M  V30 9 1 8 10
M  V30 10 1 4 11
M  V30 11 1 5 12
M  V30 12 1 5 13
M  V30 13 1 5 14
M  V30 14 1 6 15
M  V30 15 1 6 16
M  V30 16 1 7 17
M  V30 17 1 7 18
M  V30 END BOND
M  V30 BEGIN COLLECTION
M  V30 MDLV30/STEABS ATOMS=(1 4)
M  V30 END COLLECTION
M  V30 END CTAB
M  END
>  <Structure No>
1182

>  <LogS>
0.111437809

>  <MMFF94 Energy>
-46.719

$$$$
Compound 1183
Actelion Java MolfileCreator 2.0

  0  0  0  0  0  0              0 V3000
M  V30 BEGIN CTAB
M  V30 COUNTS 51 54 0 0 0
M  V30 BEGIN ATOM
M  V30 1 S 2.0665 -1.1568 2.1492 0
M  V30 2 O 2.8395 -1.2388 3.435 0
M  V30 3 O 1.9582 -2.5292 1.5443 0
M  V30 4 O 0.4872 -0.5921 2.4999 0
M  V30 5 C 2.9104 -0.0571 1.0403 0
M  V30 6 C -0.5629 -0.5156 1.5726 0
M  V30 7 C 4.1622 -0.3791 0.4476 0
M  V30 8 C 2.3126 1.1789 0.7517 0
M  V30 9 C -1.8082 -0.0652 2.0222 0
M  V30 10 C -0.4103 -0.8631 0.218 0
M  V30 11 C 4.7577 0.5348 -0.4674 0
M  V30 12 C 4.841 -1.58 0.7379 0
M  V30 13 C 2.9039 2.0679 -0.1416 0
M  V30 14 C -2.8901 0.0347 1.1432 0
M  V30 15 C -1.4912 -0.7644 -0.6625 0
M  V30 16 C 5.99 0.2212 -1.0776 0
M  V30 17 C 4.1103 1.7477 -0.7571 0
M  V30 18 C 6.0639 -1.8729 0.135 0
M  V30 19 C -2.7467 -0.3238 -0.2093 0
M  V30 20 O 6.5415 1.0789 -2.0267 0 CHG=-1
M  V30 21 C 6.6562 -0.9719 -0.7499 0
M  V30 22 C -3.8855 -0.2149 -1.1574 0
M  V30 23 N 7.905 -1.3244 -1.3632 0
M  V30 24 O -3.6596 -0.1895 -2.3978 0
M  V30 25 C -5.2895 -0.172 -0.6914 0
M  V30 26 N 8.945 -0.5856 -1.3415 0
M  V30 27 C -6.1857 0.835 -1.1215 0
M  V30 28 C -5.7523 -1.1857 0.1623 0
M  V30 29 N 8.9816 0.6326 -0.6462 0
M  V30 30 O -5.7643 1.8885 -1.9375 0
M  V30 31 C -7.531 0.798 -0.7044 0
M  V30 32 C -7.0823 -1.2086 0.5805 0
M  V30 33 N 10.0326 1.3465 -0.6483 0
M  V30 34 O -8.4331 1.7768 -1.1251 0
M  V30 35 C -7.9753 -0.2267 0.1483 0
M  V30 36 O -9.3011 -0.2842 0.5772 0
M  V30 37 H 1.3783 1.463 1.2162 0
M  V30 38 H -1.9372 0.2146 3.0604 0
M  V30 39 H 0.5377 -1.2025 -0.1717 0
M  V30 40 H 4.4498 -2.3011 1.4393 0
M  V30 41 H 2.4218 3.0122 -0.3599 0
M  V30 42 H -3.8335 0.405 1.523 0
M  V30 43 H -1.3447 -1.04 -1.6996 0
M  V30 44 H 4.5415 2.4609 -1.4486 0
M  V30 45 H 6.5644 -2.8037 0.3725 0
M  V30 46 H -5.0832 -1.9704 0.4944 0
M  V30 47 H -4.7991 2.0314 -2.204 0
M  V30 48 H -7.4239 -1.999 1.2371 0
M  V30 49 H 10.8887 1.0446 -1.1655 0
M  V30 50 H -8.1628 2.5353 -1.7394 0
M  V30 51 H -9.9898 0.4026 0.2937 0
M  V30 END ATOM
M  V30 BEGIN BOND
M  V30 1 2 1 2
M  V30 2 2 1 3
M  V30 3 1 1 4
M  V30 4 1 1 5
M  V30 5 1 4 6
M  V30 6 1 5 7
M  V30 7 2 5 8
M  V30 8 2 6 9
M  V30 9 1 6 10
M  V30 10 1 7 11
M  V30 11 2 7 12
M  V30 12 1 8 13
M  V30 13 1 9 14
M  V30 14 2 10 15
M  V30 15 2 11 16
M  V30 16 1 11 17
M  V30 17 1 12 18
M  V30 18 2 14 19
M  V30 19 1 16 20
M  V30 20 1 16 21
M  V30 21 1 19 22
M  V30 22 1 21 23
M  V30 23 2 22 24
M  V30 24 1 22 25
M  V30 25 2 23 26
M  V30 26 2 25 27
M  V30 27 1 25 28
M  V30 28 1 26 29
M  V30 29 1 27 30
M  V30 30 1 27 31
M  V30 31 2 28 32
M  V30 32 2 29 33
M  V30 33 1 31 34
M  V30 34 2 31 35
M  V30 35 1 35 36
M  V30 36 2 13 17
M  V30 37 1 15 19
M  V30 38 2 18 21
M  V30 39 1 32 35
M  V30 40 1 8 37
M  V30 41 1 9 38
M  V30 42 1 10 39
M  V30 43 1 12 40
M  V30 44 1 13 41
M  V30 45 1 14 42
M  V30 46 1 15 43
M  V30 47 1 17 44
M  V30 48 1 18 45
M  V30 49 1 28 46
M  V30 50 1 30 47
M  V30 51 1 32 48
M  V30 52 1 33 49
M  V30 53 1 34 50
M  V30 54 1 36 51
M  V30 END BOND
M  V30 END CTAB
M  END
>  <Structure No>
1183

>  <LogS>
-5.105290731

>  <MMFF94 Energy>
127.34

$$$$
Compound 1184
Actelion Java MolfileCreator 2.0

  0  0  0  0  0  0              0 V3000
M  V30 BEGIN CTAB
M  V30 COUNTS 10 9 0 0 0
M  V30 BEGIN ATOM
M  V30 1 Cl 0.1572 2.0451 0.7075 0
M  V30 2 C 0.5393 0.4016 0.2002 0
M  V30 3 C -0.5081 -0.5222 -0.2868 0
M  V30 4 C 1.8067 -0.002 0.2631 0
M  V30 5 C -1.7924 -0.1802 -0.3737 0
M  V30 6 H -0.227 -1.5246 -0.5885 0
M  V30 7 H 2.5796 0.6675 0.6184 0
M  V30 8 H 2.0925 -1.0026 -0.0371 0
M  V30 9 H -2.516 -0.898 -0.7376 0
M  V30 10 H -2.1447 0.8023 -0.0901 0
M  V30 END ATOM
M  V30 BEGIN BOND
M  V30 1 1 1 2
M  V30 2 1 2 3
M  V30 3 2 2 4
M  V30 4 2 3 5
M  V30 5 1 3 6
M  V30 6 1 4 7
M  V30 7 1 4 8
M  V30 8 1 5 9
M  V30 9 1 5 10
M  V30 END BOND
M  V30 END CTAB
M  END
>  <Structure No>
1184

>  <LogS>
-2.550925455

>  <MMFF94 Energy>
4.6765

$$$$
Compound 1185
Actelion Java MolfileCreator 2.0

  0  0  0  0  0  0              0 V3000
M  V30 BEGIN CTAB
M  V30 COUNTS 19 18 0 0 0
M  V30 BEGIN ATOM
M  V30 1 S 1.3616 0.5955 1.2764 0
M  V30 2 O 0.7229 0.5685 2.6365 0
M  V30 3 O 2.3588 1.7187 1.2332 0
M  V30 4 C 2.1959 -0.9282 1.0037 0
M  V30 5 C 0.108 0.8656 0.0329 0
M  V30 6 C 2.9276 -1.1214 -0.0937 0
M  V30 7 S -1.1452 -0.406 0.0846 0
M  V30 8 O -1.785 -0.4603 1.4437 0
M  V30 9 O -0.5272 -1.7409 -0.2216 0
M  V30 10 C -2.3743 -0.0635 -1.1242 0
M  V30 11 C -3.1652 1.0041 -1.0138 0
M  V30 12 H 2.1057 -1.722 1.7382 0
M  V30 13 H 0.5818 0.871 -0.9703 0
M  V30 14 H -0.3677 1.8527 0.2078 0
M  V30 15 H 3.0261 -0.3409 -0.8415 0
M  V30 16 H 3.4329 -2.0687 -0.2497 0
M  V30 17 H -2.4858 -0.7313 -1.9723 0
M  V30 18 H -3.068 1.6847 -0.1737 0
M  V30 19 H -3.9181 1.203 -1.7695 0
M  V30 END ATOM
M  V30 BEGIN BOND
M  V30 1 2 1 2
M  V30 2 2 1 3
M  V30 3 1 1 4
M  V30 4 1 1 5
M  V30 5 2 4 6
M  V30 6 1 5 7
M  V30 7 2 7 8
M  V30 8 2 7 9
M  V30 9 1 7 10
M  V30 10 2 10 11
M  V30 11 1 4 12
M  V30 12 1 5 13
M  V30 13 1 5 14
M  V30 14 1 6 15
M  V30 15 1 6 16
M  V30 16 1 10 17
M  V30 17 1 11 18
M  V30 18 1 11 19
M  V30 END BOND
M  V30 END CTAB
M  END
>  <Structure No>
1185

>  <LogS>
-3.91989545

>  <MMFF94 Energy>
-33.542

$$$$
Compound 1186
Actelion Java MolfileCreator 2.0

  0  0  0  0  0  0              0 V3000
M  V30 BEGIN CTAB
M  V30 COUNTS 5 4 0 0 0
M  V30 BEGIN ATOM
M  V30 1 F -0.8637 -0.5182 -0.9501 0
M  V30 2 C -0.0068 -0.0074 0.0057 0
M  V30 3 F -0.3132 1.3198 0.2368 0
M  V30 4 F -0.1465 -0.7233 1.179 0
M  V30 5 F 1.2959 -0.1079 -0.4428 0
M  V30 END ATOM
M  V30 BEGIN BOND
M  V30 1 1 1 2
M  V30 2 1 2 3
M  V30 3 1 2 4
M  V30 4 1 2 5
M  V30 END BOND
M  V30 END CTAB
M  END
>  <Structure No>
1186

>  <LogS>
-3.670339628

>  <MMFF94 Energy>
1.9165

$$$$
Compound 1187
Actelion Java MolfileCreator 2.0

  0  0  0  0  0  0              0 V3000
M  V30 BEGIN CTAB
M  V30 COUNTS 32 33 0 0 0
M  V30 BEGIN ATOM
M  V30 1 O 4.9198 1.03 0.6337 0
M  V30 2 C 3.6136 0.5487 0.5805 0
M  V30 3 C 2.5456 1.3307 1.0308 0
M  V30 4 C 3.3693 -0.7294 0.0757 0
M  V30 5 C 1.24 0.8377 0.9715 0
M  V30 6 C 2.0648 -1.2285 0.0137 0
M  V30 7 C 0.9696 -0.4449 0.4458 0
M  V30 8 C -0.484 -0.9566 0.4272 0
M  V30 9 C -1.395 0.1078 -0.215 0
M  V30 10 C -0.6597 -2.2557 -0.3958 0
M  V30 11 C -0.8671 -1.2791 1.8918 0
M  V30 12 C -1.0341 0.6576 -1.4656 0
M  V30 13 C -2.6182 0.5214 0.363 0
M  V30 14 C -1.8442 1.6062 -2.0946 0
M  V30 15 C -3.4234 1.4712 -0.2731 0
M  V30 16 C -3.0361 2.0151 -1.4976 0
M  V30 17 H 5.1295 1.953 0.9958 0
M  V30 18 H 2.7256 2.3205 1.4308 0
M  V30 19 H 4.1942 -1.3411 -0.2666 0
M  V30 20 H 0.4337 1.4619 1.3363 0
M  V30 21 H 1.9323 -2.2269 -0.3749 0
M  V30 22 H -0.2765 -2.1275 -1.431 0
M  V30 23 H -0.1311 -3.1096 0.0799 0
M  V30 24 H -1.7355 -2.529 -0.4618 0
M  V30 25 H -0.8891 -0.3569 2.5115 0
M  V30 26 H -0.125 -1.9745 2.3414 0
M  V30 27 H -1.8603 -1.7744 1.9499 0
M  V30 28 H -0.1186 0.3513 -1.9559 0
M  V30 29 H -2.9674 0.1231 1.3039 0
M  V30 30 H -1.5481 2.0221 -3.0489 0
M  V30 31 H -4.3535 1.7837 0.1842 0
M  V30 32 H -3.6632 2.7492 -1.9869 0
M  V30 END ATOM
M  V30 BEGIN BOND
M  V30 1 1 1 2
M  V30 2 2 2 3
M  V30 3 1 2 4
M  V30 4 1 3 5
M  V30 5 2 4 6
M  V30 6 2 5 7
M  V30 7 1 7 8
M  V30 8 1 8 9
M  V30 9 1 8 10
M  V30 10 1 8 11
M  V30 11 2 9 12
M  V30 12 1 9 13
M  V30 13 1 12 14
M  V30 14 2 13 15
M  V30 15 2 14 16
M  V30 16 1 6 7
M  V30 17 1 15 16
M  V30 18 1 1 17
M  V30 19 1 3 18
M  V30 20 1 4 19
M  V30 21 1 5 20
M  V30 22 1 6 21
M  V30 23 1 10 22
M  V30 24 1 10 23
M  V30 25 1 10 24
M  V30 26 1 11 25
M  V30 27 1 11 26
M  V30 28 1 11 27
M  V30 29 1 12 28
M  V30 30 1 13 29
M  V30 31 1 14 30
M  V30 32 1 15 31
M  V30 33 1 16 32
M  V30 END BOND
M  V30 END CTAB
M  END
>  <Structure No>
1187

>  <LogS>
-4.096484707

>  <MMFF94 Energy>
53.404

$$$$
Compound 1188
Actelion Java MolfileCreator 2.0

  0  0  0  0  0  0              0 V3000
M  V30 BEGIN CTAB
M  V30 COUNTS 22 22 0 0 0
M  V30 BEGIN ATOM
M  V30 1 Cl 2.5821 1.0322 -3.2714 0
M  V30 2 C 2.0697 0.1954 -1.8141 0
M  V30 3 N 0.9238 -0.5311 -1.8613 0
M  V30 4 C 2.782 0.3036 -0.6046 0
M  V30 5 C 0.4461 -1.1648 -0.7614 0
M  V30 6 N 3.9957 1.0679 -0.525 0 CHG=1
M  V30 7 C 2.2657 -0.3667 0.5215 0
M  V30 8 S -1.0652 -2.1196 -0.8655 0
M  V30 9 N 1.1188 -1.0848 0.4134 0
M  V30 10 O 4.1881 1.8529 0.4261 0
M  V30 11 O 4.9616 0.9439 -1.4963 0 CHG=-1
M  V30 12 Cl 3.0954 -0.357 2.0704 0
M  V30 13 C -2.1715 -0.7034 -0.5349 0
M  V30 14 C -2.2549 -0.4149 0.9656 0
M  V30 15 C -3.2348 0.7183 1.2546 0
M  V30 16 H -1.8231 0.1968 -1.0862 0
M  V30 17 H -3.1814 -0.9682 -0.9143 0
M  V30 18 H -2.5904 -1.3287 1.5021 0
M  V30 19 H -1.2546 -0.1269 1.3518 0
M  V30 20 H -2.9082 1.6496 0.7445 0
M  V30 21 H -4.2537 0.4464 0.9056 0
M  V30 22 H -3.2728 0.907 2.3482 0
M  V30 END ATOM
M  V30 BEGIN BOND
M  V30 1 1 1 2
M  V30 2 2 2 3
M  V30 3 1 2 4
M  V30 4 1 3 5
M  V30 5 1 4 6
M  V30 6 2 4 7
M  V30 7 1 5 8
M  V30 8 2 5 9
M  V30 9 2 6 10
M  V30 10 1 6 11
M  V30 11 1 7 12
M  V30 12 1 8 13
M  V30 13 1 13 14
M  V30 14 1 14 15
M  V30 15 1 7 9
M  V30 16 1 13 16
M  V30 17 1 13 17
M  V30 18 1 14 18
M  V30 19 1 14 19
M  V30 20 1 15 20
M  V30 21 1 15 21
M  V30 22 1 15 22
M  V30 END BOND
M  V30 END CTAB
M  END
>  <Structure No>
1188

>  <LogS>
-4.386944624

>  <MMFF94 Energy>
-94.749

$$$$
Compound 1189
Actelion Java MolfileCreator 2.0

  0  0  0  0  0  0              0 V3000
M  V30 BEGIN CTAB
M  V30 COUNTS 12 11 0 0 0
M  V30 BEGIN ATOM
M  V30 1 S -0.5787 0.8269 0.248 0
M  V30 2 O -1.5406 1.6346 1.0725 0
M  V30 3 O -0.1708 1.6401 -0.9495 0
M  V30 4 O 0.772 0.4617 1.2061 0
M  V30 5 C -1.4067 -0.6579 -0.286 0
M  V30 6 C 1.7298 -0.1859 0.4077 0
M  V30 7 H -0.8037 -1.1685 -1.0645 0
M  V30 8 H -2.3977 -0.3966 -0.7114 0
M  V30 9 H -1.546 -1.3368 0.5802 0
M  V30 10 H 2.0559 0.4577 -0.4376 0
M  V30 11 H 1.3496 -1.1616 0.0375 0
M  V30 12 H 2.624 -0.3936 1.0303 0
M  V30 END ATOM
M  V30 BEGIN BOND
M  V30 1 2 1 2
M  V30 2 2 1 3
M  V30 3 1 1 4
M  V30 4 1 1 5
M  V30 5 1 4 6
M  V30 6 1 5 7
M  V30 7 1 5 8
M  V30 8 1 5 9
M  V30 9 1 6 10
M  V30 10 1 6 11
M  V30 11 1 6 12
M  V30 END BOND
M  V30 END CTAB
M  END
>  <Structure No>
1189

>  <LogS>
-0.041921413

>  <MMFF94 Energy>
-22.709

$$$$
Compound 1190
Actelion Java MolfileCreator 2.0

  0  0  0  0  0  0              0 V3000
M  V30 BEGIN CTAB
M  V30 COUNTS 64 65 0 0 0
M  V30 BEGIN ATOM
M  V30 1 O 7.8211 -1.1819 0.2363 0
M  V30 2 C 7.5914 -1.5277 -1.1101 0 CFG=1
M  V30 3 C 8.6043 -2.2307 -0.2879 0
M  V30 4 C 6.2769 -2.2872 -1.3475 0
M  V30 5 O 5.6257 -2.6658 -0.132 0
M  V30 6 C 4.9268 -1.7972 0.7231 0
M  V30 7 C 4.7823 -0.4209 0.4566 0
M  V30 8 C 4.3612 -2.3303 1.887 0
M  V30 9 C 4.0959 0.4102 1.3577 0
M  V30 10 C 3.667 -1.5095 2.7794 0
M  V30 11 C 3.5333 -0.1447 2.5166 0
M  V30 12 C 3.9424 1.8831 1.0744 0
M  V30 13 C 2.5443 2.2229 0.5376 0
M  V30 14 C 2.298 1.6414 -0.8634 0
M  V30 15 C 1.0204 2.1893 -1.5212 0
M  V30 16 C -0.2794 1.7084 -0.8431 0
M  V30 17 C -0.8799 2.7725 0.0939 0
M  V30 18 C -2.1271 2.2581 0.8265 0
M  V30 19 C -3.3281 2.1776 -0.0795 0
M  V30 20 C -4.4945 1.6988 0.375 0
M  V30 21 C -5.7135 1.614 -0.5025 0
M  V30 22 C -5.5541 0.5977 -1.6467 0
M  V30 23 C -5.2952 -0.8428 -1.1746 0
M  V30 24 C -6.5205 -1.4727 -0.4949 0
M  V30 25 C -6.2777 -2.9555 -0.1887 0
M  V30 26 C -7.5025 -3.5915 0.4667 0
M  V30 27 H 7.9742 -0.7824 -1.8387 0
M  V30 28 H 8.3207 -3.2087 0.1519 0
M  V30 29 H 9.6578 -1.9112 -0.4271 0
M  V30 30 H 5.5923 -1.6773 -1.9739 0
M  V30 31 H 6.5074 -3.2073 -1.9246 0
M  V30 32 H 5.2053 0.0135 -0.4383 0
M  V30 33 H 4.4641 -3.3863 2.1021 0
M  V30 34 H 3.2326 -1.9312 3.677 0
M  V30 35 H 2.9923 0.4813 3.2155 0
M  V30 36 H 4.7197 2.2284 0.3564 0
M  V30 37 H 4.1093 2.4505 2.016 0
M  V30 38 H 1.7803 1.8397 1.2466 0
M  V30 39 H 2.4508 3.3294 0.4936 0
M  V30 40 H 2.2439 0.5323 -0.8093 0
M  V30 41 H 3.1564 1.9031 -1.5189 0
M  V30 42 H 1.0609 3.3001 -1.5722 0
M  V30 43 H 1.0136 1.8297 -2.5744 0
M  V30 44 H -0.0996 0.7648 -0.2841 0
M  V30 45 H -1.0245 1.4799 -1.6358 0
M  V30 46 H -1.1352 3.6856 -0.4855 0
M  V30 47 H -0.1315 3.0681 0.8556 0
M  V30 48 H -2.3602 2.9531 1.6648 0
M  V30 49 H -1.9225 1.2546 1.2644 0
M  V30 50 H -3.2524 2.5143 -1.1095 0
M  V30 51 H -4.5771 1.3777 1.4092 0
M  V30 52 H -6.593 1.3508 0.12 0
M  V30 53 H -5.9151 2.6156 -0.9375 0
M  V30 54 H -6.4687 0.6192 -2.2785 0
M  V30 55 H -4.7122 0.9145 -2.298 0
M  V30 56 H -5.032 -1.4465 -2.0714 0
M  V30 57 H -4.4245 -0.8715 -0.4849 0
M  V30 58 H -6.7362 -0.9399 0.4566 0
M  V30 59 H -7.4034 -1.3773 -1.1653 0
M  V30 60 H -5.4066 -3.0606 0.4947 0
M  V30 61 H -6.0518 -3.501 -1.1324 0
M  V30 62 H -7.3005 -4.6653 0.6648 0
M  V30 63 H -8.386 -3.5131 -0.205 0
M  V30 64 H -7.7294 -3.0889 1.4342 0
M  V30 END ATOM
M  V30 BEGIN BOND
M  V30 1 1 1 2
M  V30 2 1 1 3
M  V30 3 1 2 4
M  V30 4 1 4 5
M  V30 5 1 5 6
M  V30 6 2 6 7
M  V30 7 1 6 8
M  V30 8 1 7 9
M  V30 9 2 8 10
M  V30 10 2 9 11
M  V30 11 1 9 12
M  V30 12 1 12 13
M  V30 13 1 13 14
M  V30 14 1 14 15
M  V30 15 1 15 16
M  V30 16 1 16 17
M  V30 17 1 17 18
M  V30 18 1 18 19
M  V30 19 2 19 20
M  V30 20 1 20 21
M  V30 21 1 21 22
M  V30 22 1 22 23
M  V30 23 1 23 24
M  V30 24 1 24 25
M  V30 25 1 25 26
M  V30 26 1 2 3
M  V30 27 1 10 11
M  V30 28 1 2 27
M  V30 29 1 3 28
M  V30 30 1 3 29
M  V30 31 1 4 30
M  V30 32 1 4 31
M  V30 33 1 7 32
M  V30 34 1 8 33
M  V30 35 1 10 34
M  V30 36 1 11 35
M  V30 37 1 12 36
M  V30 38 1 12 37
M  V30 39 1 13 38
M  V30 40 1 13 39
M  V30 41 1 14 40
M  V30 42 1 14 41
M  V30 43 1 15 42
M  V30 44 1 15 43
M  V30 45 1 16 44
M  V30 46 1 16 45
M  V30 47 1 17 46
M  V30 48 1 17 47
M  V30 49 1 18 48
M  V30 50 1 18 49
M  V30 51 1 19 50
M  V30 52 1 20 51
M  V30 53 1 21 52
M  V30 54 1 21 53
M  V30 55 1 22 54
M  V30 56 1 22 55
M  V30 57 1 23 56
M  V30 58 1 23 57
M  V30 59 1 24 58
M  V30 60 1 24 59
M  V30 61 1 25 60
M  V30 62 1 25 61
M  V30 63 1 26 62
M  V30 64 1 26 63
M  V30 65 1 26 64
M  V30 END BOND
M  V30 BEGIN COLLECTION
M  V30 MDLV30/STEABS ATOMS=(1 2)
M  V30 END COLLECTION
M  V30 END CTAB
M  END
>  <Structure No>
1190

>  <LogS>
-6.079851689

>  <MMFF94 Energy>
40.43

$$$$
Compound 1191
Actelion Java MolfileCreator 2.0

  0  0  0  0  0  0              0 V3000
M  V30 BEGIN CTAB
M  V30 COUNTS 24 25 0 0 0
M  V30 BEGIN ATOM
M  V30 1 N 0.0 -1.1836 -0.3944 0
M  V30 2 C -1.2846 -0.5577 -0.2333 0
M  V30 3 C 1.2584 -0.5289 -0.1584 0
M  V30 4 C -1.5005 0.4277 0.748 0
M  V30 5 C -2.3633 -0.9832 -1.0239 0
M  V30 6 C 1.426 0.8459 -0.4076 0
M  V30 7 C 2.3612 -1.2865 0.2654 0
M  V30 8 C -2.7663 1.0013 0.9046 0
M  V30 9 C -3.6276 -0.4072 -0.8646 0
M  V30 10 C 2.6675 1.4541 -0.1977 0
M  V30 11 C 3.6011 -0.6747 0.4745 0
M  V30 12 C -3.8281 0.587 0.0963 0
M  V30 13 C 3.7531 0.6954 0.2469 0
M  V30 14 H 0.0203 -2.1819 -0.7039 0
M  V30 15 H -0.6976 0.7408 1.4025 0
M  V30 16 H -2.2206 -1.7549 -1.7697 0
M  V30 17 H 0.6044 1.444 -0.7795 0
M  V30 18 H 2.2558 -2.3494 0.4423 0
M  V30 19 H -2.9258 1.7615 1.6583 0
M  V30 20 H -4.4525 -0.7336 -1.4846 0
M  V30 21 H 2.7898 2.5127 -0.3872 0
M  V30 22 H 4.4446 -1.2635 0.8106 0
M  V30 23 H -4.8075 1.0308 0.2199 0
M  V30 24 H 4.7138 1.1673 0.4073 0
M  V30 END ATOM
M  V30 BEGIN BOND
M  V30 1 1 1 2
M  V30 2 1 1 3
M  V30 3 2 2 4
M  V30 4 1 2 5
M  V30 5 2 3 6
M  V30 6 1 3 7
M  V30 7 1 4 8
M  V30 8 2 5 9
M  V30 9 1 6 10
M  V30 10 2 7 11
M  V30 11 2 8 12
M  V30 12 2 10 13
M  V30 13 1 9 12
M  V30 14 1 11 13
M  V30 15 1 1 14
M  V30 16 1 4 15
M  V30 17 1 5 16
M  V30 18 1 6 17
M  V30 19 1 7 18
M  V30 20 1 8 19
M  V30 21 1 9 20
M  V30 22 1 10 21
M  V30 23 1 11 22
M  V30 24 1 12 23
M  V30 25 1 13 24
M  V30 END BOND
M  V30 END CTAB
M  END
>  <Structure No>
1191

>  <LogS>
-5.969586401

>  <MMFF94 Energy>
28.088

$$$$
Compound 1192
Actelion Java MolfileCreator 2.0

  0  0  0  0  0  0              0 V3000
M  V30 BEGIN CTAB
M  V30 COUNTS 73 73 0 0 0
M  V30 BEGIN ATOM
M  V30 1 Cl 4.0833 -0.2398 -1.1196 0
M  V30 2 C 5.5936 0.2627 -0.3707 0
M  V30 3 C 5.8065 0.1276 1.0157 0
M  V30 4 C 6.5698 0.8656 -1.1724 0
M  V30 5 O 4.8572 -0.482 1.8461 0
M  V30 6 C 6.9802 0.6405 1.5858 0
M  V30 7 C 7.7599 1.3534 -0.6079 0
M  V30 8 C 4.4054 -1.7933 1.6677 0
M  V30 9 Cl 7.2612 0.5092 3.3161 0
M  V30 10 C 7.9515 1.2423 0.7798 0
M  V30 11 C 8.7892 1.9838 -1.4649 0
M  V30 12 O 4.9696 -2.5604 0.8377 0
M  V30 13 O 3.3378 -2.2507 2.4421 0
M  V30 14 O 9.8408 2.4531 -0.9493 0
M  V30 15 O 8.5911 2.0628 -2.8493 0
M  V30 16 C 2.791 -3.5585 2.302 0
M  V30 17 C 9.5506 2.6091 -3.7521 0
M  V30 18 C 1.6323 -3.7575 3.2844 0
M  V30 19 C 10.6912 1.6249 -3.985 0
M  V30 20 C 0.3249 -3.0834 2.8347 0
M  V30 21 C 0.3806 -1.5501 2.9127 0
M  V30 22 C -1.0007 -0.938 2.6513 0
M  V30 23 C -0.9425 0.5951 2.6857 0
M  V30 24 C -2.3335 1.2504 2.6237 0
M  V30 25 C -3.061 1.0356 1.2796 0
M  V30 26 C -4.1209 -0.078 1.3615 0
M  V30 27 C -4.7242 -0.4207 -0.0103 0
M  V30 28 C -5.6859 0.6639 -0.518 0
M  V30 29 C -6.3488 0.2336 -1.8348 0
M  V30 30 C -7.2428 1.3303 -2.4424 0
M  V30 31 C -8.4396 1.7595 -1.5671 0
M  V30 32 C -9.3907 0.6184 -1.1622 0
M  V30 33 C -10.0463 -0.0633 -2.3634 0
M  V30 34 H 6.389 0.9624 -2.2357 0
M  V30 35 H 8.8562 1.6186 1.2416 0
M  V30 36 H 3.5821 -4.3068 2.527 0
M  V30 37 H 2.4435 -3.7182 1.2577 0
M  V30 38 H 9.9437 3.5735 -3.3626 0
M  V30 39 H 9.0494 2.8097 -4.7226 0
M  V30 40 H 1.4386 -4.8491 3.3691 0
M  V30 41 H 1.9252 -3.3973 4.2946 0
M  V30 42 H 11.4077 2.053 -4.7167 0
M  V30 43 H 11.2289 1.4202 -3.0366 0
M  V30 44 H 10.29 0.6713 -4.3872 0
M  V30 45 H 0.0751 -3.3988 1.798 0
M  V30 46 H -0.4886 -3.4477 3.5002 0
M  V30 47 H 0.7342 -1.241 3.9213 0
M  V30 48 H 1.0886 -1.164 2.1484 0
M  V30 49 H -1.7139 -1.2978 3.4252 0
M  V30 50 H -1.353 -1.2705 1.6513 0
M  V30 51 H -0.4569 0.9163 3.6335 0
M  V30 52 H -0.3154 0.9677 1.8463 0
M  V30 53 H -2.1873 2.3434 2.766 0
M  V30 54 H -2.9554 0.905 3.479 0
M  V30 55 H -2.3296 0.8137 0.4718 0
M  V30 56 H -3.5714 1.9848 1.0084 0
M  V30 57 H -3.6639 -1.0017 1.7714 0
M  V30 58 H -4.9291 0.2248 2.064 0
M  V30 59 H -5.2868 -1.3754 0.0904 0
M  V30 60 H -3.911 -0.5885 -0.7503 0
M  V30 61 H -5.1302 1.6107 -0.6862 0
M  V30 62 H -6.4668 0.8372 0.2536 0
M  V30 63 H -5.5519 5.0E-4 -2.5754 0
M  V30 64 H -6.9324 -0.6992 -1.6842 0
M  V30 65 H -7.6167 0.978 -3.4272 0
M  V30 66 H -6.6186 2.2285 -2.6453 0
M  V30 67 H -8.066 2.2589 -0.6477 0
M  V30 68 H -9.0209 2.5276 -2.1231 0
M  V30 69 H -8.8589 -0.1361 -0.5446 0
M  V30 70 H -10.1954 1.0491 -0.5251 0
M  V30 71 H -9.2976 -0.6451 -2.9396 0
M  V30 72 H -10.5218 0.69 -3.0263 0
M  V30 73 H -10.8288 -0.7652 -2.007 0
M  V30 END ATOM
M  V30 BEGIN BOND
M  V30 1 1 1 2
M  V30 2 2 2 3
M  V30 3 1 2 4
M  V30 4 1 3 5
M  V30 5 1 3 6
M  V30 6 2 4 7
M  V30 7 1 5 8
M  V30 8 1 6 9
M  V30 9 2 6 10
M  V30 10 1 7 11
M  V30 11 2 8 12
M  V30 12 1 8 13
M  V30 13 2 11 14
M  V30 14 1 11 15
M  V30 15 1 13 16
M  V30 16 1 15 17
M  V30 17 1 16 18
M  V30 18 1 17 19
M  V30 19 1 18 20
M  V30 20 1 20 21
M  V30 21 1 21 22
M  V30 22 1 22 23
M  V30 23 1 23 24
M  V30 24 1 24 25
M  V30 25 1 25 26
M  V30 26 1 26 27
M  V30 27 1 27 28
M  V30 28 1 28 29
M  V30 29 1 29 30
M  V30 30 1 30 31
M  V30 31 1 31 32
M  V30 32 1 32 33
M  V30 33 1 7 10
M  V30 34 1 4 34
M  V30 35 1 10 35
M  V30 36 1 16 36
M  V30 37 1 16 37
M  V30 38 1 17 38
M  V30 39 1 17 39
M  V30 40 1 18 40
M  V30 41 1 18 41
M  V30 42 1 19 42
M  V30 43 1 19 43
M  V30 44 1 19 44
M  V30 45 1 20 45
M  V30 46 1 20 46
M  V30 47 1 21 47
M  V30 48 1 21 48
M  V30 49 1 22 49
M  V30 50 1 22 50
M  V30 51 1 23 51
M  V30 52 1 23 52
M  V30 53 1 24 53
M  V30 54 1 24 54
M  V30 55 1 25 55
M  V30 56 1 25 56
M  V30 57 1 26 57
M  V30 58 1 26 58
M  V30 59 1 27 59
M  V30 60 1 27 60
M  V30 61 1 28 61
M  V30 62 1 28 62
M  V30 63 1 29 63
M  V30 64 1 29 64
M  V30 65 1 30 65
M  V30 66 1 30 66
M  V30 67 1 31 67
M  V30 68 1 31 68
M  V30 69 1 32 69
M  V30 70 1 32 70
M  V30 71 1 33 71
M  V30 72 1 33 72
M  V30 73 1 33 73
M  V30 END BOND
M  V30 END CTAB
M  END
>  <Structure No>
1192

>  <LogS>
-7.133803789

>  <MMFF94 Energy>
-1.1937

$$$$
Compound 1193
Actelion Java MolfileCreator 2.0

  0  0  0  0  0  0              0 V3000
M  V30 BEGIN CTAB
M  V30 COUNTS 53 52 0 0 0
M  V30 BEGIN ATOM
M  V30 1 O 6.5153 0.4698 -0.8615 0
M  V30 2 C 6.1795 1.6825 -0.8163 0
M  V30 3 O 6.9828 2.5955 -0.1408 0 CHG=-1
M  V30 4 C 4.9111 2.1399 -1.4703 0
M  V30 5 C 3.7764 2.3237 -0.4533 0
M  V30 6 C 3.3218 0.9887 0.1556 0
M  V30 7 C 2.0858 1.1845 1.0467 0
M  V30 8 C 1.6926 -0.0897 1.8132 0
M  V30 9 C 1.2532 -1.2334 0.8807 0
M  V30 10 C 0.6417 -2.4139 1.649 0
M  V30 11 C -0.7793 -2.1224 2.0688 0
M  V30 12 C -1.882 -2.6538 1.505 0
M  V30 13 C -1.8912 -3.6823 0.4 0
M  V30 14 C -1.5275 -3.1143 -0.984 0
M  V30 15 C -2.5259 -2.06 -1.5033 0
M  V30 16 C -2.0966 -0.6283 -1.1543 0
M  V30 17 C -3.1093 0.3983 -1.6834 0
M  V30 18 C -2.653 1.8521 -1.4504 0
M  V30 19 C -2.5485 2.2692 0.0322 0
M  V30 20 C -3.8917 2.2145 0.7657 0
M  V30 21 H 5.1043 3.1122 -1.9743 0
M  V30 22 H 4.6046 1.4144 -2.2553 0
M  V30 23 H 4.1019 3.018 0.3534 0
M  V30 24 H 2.9182 2.7951 -0.9782 0
M  V30 25 H 3.0785 0.284 -0.6697 0
M  V30 26 H 4.1479 0.556 0.7613 0
M  V30 27 H 2.3006 1.9808 1.793 0
M  V30 28 H 1.2261 1.5249 0.4277 0
M  V30 29 H 2.546 -0.4267 2.4421 0
M  V30 30 H 0.8552 0.1764 2.4921 0
M  V30 31 H 2.1405 -1.6102 0.3274 0
M  V30 32 H 0.527 -0.8507 0.1338 0
M  V30 33 H 0.7021 -3.322 1.0179 0
M  V30 34 H 1.2451 -2.6271 2.5567 0
M  V30 35 H -0.9235 -1.3999 2.8667 0
M  V30 36 H -2.8469 -2.3512 1.9031 0
M  V30 37 H -1.2081 -4.5195 0.6574 0
M  V30 38 H -2.9099 -4.1241 0.3426 0
M  V30 39 H -0.4915 -2.7187 -0.9921 0
M  V30 40 H -1.5341 -3.9687 -1.696 0
M  V30 41 H -3.5451 -2.2609 -1.1055 0
M  V30 42 H -2.5817 -2.1462 -2.6116 0
M  V30 43 H -2.017 -0.5289 -0.0536 0
M  V30 44 H -1.1003 -0.4233 -1.6061 0
M  V30 45 H -3.2285 0.2508 -2.7827 0
M  V30 46 H -4.1084 0.2273 -1.2208 0
M  V30 47 H -3.3704 2.53 -1.9649 0
M  V30 48 H -1.6597 2.0039 -1.9331 0
M  V30 49 H -2.1805 3.3176 0.0682 0
M  V30 50 H -1.7984 1.651 0.5691 0
M  V30 51 H -4.222 1.1641 0.9072 0
M  V30 52 H -3.7853 2.6785 1.7723 0
M  V30 53 H -4.6686 2.7738 0.1992 0
M  V30 END ATOM
M  V30 BEGIN BOND
M  V30 1 2 1 2
M  V30 2 1 2 3
M  V30 3 1 2 4
M  V30 4 1 4 5
M  V30 5 1 5 6
M  V30 6 1 6 7
M  V30 7 1 7 8
M  V30 8 1 8 9
M  V30 9 1 9 10
M  V30 10 1 10 11
M  V30 11 2 11 12
M  V30 12 1 12 13
M  V30 13 1 13 14
M  V30 14 1 14 15
M  V30 15 1 15 16
M  V30 16 1 16 17
M  V30 17 1 17 18
M  V30 18 1 18 19
M  V30 19 1 19 20
M  V30 20 1 4 21
M  V30 21 1 4 22
M  V30 22 1 5 23
M  V30 23 1 5 24
M  V30 24 1 6 25
M  V30 25 1 6 26
M  V30 26 1 7 27
M  V30 27 1 7 28
M  V30 28 1 8 29
M  V30 29 1 8 30
M  V30 30 1 9 31
M  V30 31 1 9 32
M  V30 32 1 10 33
M  V30 33 1 10 34
M  V30 34 1 11 35
M  V30 35 1 12 36
M  V30 36 1 13 37
M  V30 37 1 13 38
M  V30 38 1 14 39
M  V30 39 1 14 40
M  V30 40 1 15 41
M  V30 41 1 15 42
M  V30 42 1 16 43
M  V30 43 1 16 44
M  V30 44 1 17 45
M  V30 45 1 17 46
M  V30 46 1 18 47
M  V30 47 1 18 48
M  V30 48 1 19 49
M  V30 49 1 19 50
M  V30 50 1 20 51
M  V30 51 1 20 52
M  V30 52 1 20 53
M  V30 END BOND
M  V30 END CTAB
M  END
>  <Structure No>
1193

>  <LogS>
-11.99893786

>  <MMFF94 Energy>
9.3864

$$$$
Compound 1194
Actelion Java MolfileCreator 2.0

  0  0  0  0  0  0              0 V3000
M  V30 BEGIN CTAB
M  V30 COUNTS 33 34 0 0 0
M  V30 BEGIN ATOM
M  V30 1 O 4.8826 -1.119 -1.5988 0
M  V30 2 C 3.9541 -1.2177 -0.754 0
M  V30 3 O 3.8099 -2.396 -0.0303 0 CHG=-1
M  V30 4 C 3.0072 -0.0659 -0.5335 0 CFG=2
M  V30 5 N 3.0238 0.4089 0.8601 0 CHG=1
M  V30 6 C 1.5703 -0.4423 -0.867 0
M  V30 7 C 1.6289 0.6431 1.2591 0
M  V30 8 C 0.747 0.4776 0.0181 0 CFG=2
M  V30 9 C -0.674 -0.0695 0.3336 0
M  V30 10 C -1.4391 0.897 1.2687 0
M  V30 11 C -1.4852 -0.2869 -0.9657 0
M  V30 12 C -2.856 0.3894 1.5624 0
M  V30 13 C -2.9029 -0.7891 -0.665 0
M  V30 14 C -3.6427 0.1753 0.2663 0
M  V30 15 H 3.3035 0.7738 -1.2063 0
M  V30 16 H 3.5669 1.3023 0.9236 0
M  V30 17 H 3.4582 -0.289 1.5097 0
M  V30 18 H 1.3688 -1.5056 -0.6047 0
M  V30 19 H 1.3515 -0.2769 -1.9448 0
M  V30 20 H 1.5064 1.6643 1.6855 0
M  V30 21 H 1.3378 -0.0941 2.0425 0
M  V30 22 H 0.6592 1.4666 -0.4881 0
M  V30 23 H -0.5724 -1.0511 0.8504 0
M  V30 24 H -1.4989 1.9066 0.8047 0
M  V30 25 H -0.9032 0.9985 2.2364 0
M  V30 26 H -1.5452 0.6643 -1.5399 0
M  V30 27 H -0.984 -1.0424 -1.6073 0
M  V30 28 H -3.3882 1.1325 2.1948 0
M  V30 29 H -2.801 -0.5657 2.1296 0
M  V30 30 H -3.468 -0.8839 -1.6171 0
M  V30 31 H -2.8509 -1.7964 -0.196 0
M  V30 32 H -4.6432 -0.2431 0.5089 0
M  V30 33 H -3.7935 1.1507 -0.2465 0
M  V30 END ATOM
M  V30 BEGIN BOND
M  V30 1 2 1 2
M  V30 2 1 2 3
M  V30 3 1 2 4
M  V30 4 1 4 5
M  V30 5 1 4 6
M  V30 6 1 5 7
M  V30 7 1 6 8
M  V30 8 1 8 9
M  V30 9 1 9 10
M  V30 10 1 9 11
M  V30 11 1 10 12
M  V30 12 1 11 13
M  V30 13 1 12 14
M  V30 14 1 7 8
M  V30 15 1 13 14
M  V30 16 1 4 15
M  V30 17 1 5 16
M  V30 18 1 5 17
M  V30 19 1 6 18
M  V30 20 1 6 19
M  V30 21 1 7 20
M  V30 22 1 7 21
M  V30 23 1 8 22
M  V30 24 1 9 23
M  V30 25 1 10 24
M  V30 26 1 10 25
M  V30 27 1 11 26
M  V30 28 1 11 27
M  V30 29 1 12 28
M  V30 30 1 12 29
M  V30 31 1 13 30
M  V30 32 1 13 31
M  V30 33 1 14 32
M  V30 34 1 14 33
M  V30 END BOND
M  V30 BEGIN COLLECTION
M  V30 MDLV30/STEABS ATOMS=(2 4 8)
M  V30 END COLLECTION
M  V30 END CTAB
M  END
>  <Structure No>
1194

>  <LogS>
0.631268384

>  <MMFF94 Energy>
12.145

$$$$
Compound 1195
Actelion Java MolfileCreator 2.0

  0  0  0  0  0  0              0 V3000
M  V30 BEGIN CTAB
M  V30 COUNTS 15 16 0 0 0
M  V30 BEGIN ATOM
M  V30 1 O 2.2693 -1.3773 0.4049 0
M  V30 2 C 1.2718 -0.6341 0.2112 0
M  V30 3 N 1.1947 0.7372 0.5898 0
M  V30 4 C -0.0078 -1.0064 -0.4652 0 CFG=1
M  V30 5 C -0.1211 1.1416 0.0779 0 CFG=1
M  V30 6 C -1.0769 -0.8711 0.593 0
M  V30 7 C -0.2413 0.3094 -1.1981 0
M  V30 8 C -1.1604 0.4297 0.914 0
M  V30 9 H 2.0012 1.3622 0.8107 0
M  V30 10 H -0.0082 -1.9329 -1.0768 0
M  V30 11 H -0.2496 2.239 -0.0318 0
M  V30 12 H -1.7196 -1.6574 0.9744 0
M  V30 13 H -1.2452 0.3773 -1.6819 0
M  V30 14 H 0.5533 0.5467 -1.9439 0
M  V30 15 H -1.8716 0.8731 1.6027 0
M  V30 END ATOM
M  V30 BEGIN BOND
M  V30 1 2 1 2
M  V30 2 1 2 3
M  V30 3 1 2 4
M  V30 4 1 3 5
M  V30 5 1 4 6
M  V30 6 1 4 7
M  V30 7 1 5 8
M  V30 8 1 5 7
M  V30 9 2 6 8
M  V30 10 1 3 9
M  V30 11 1 4 10
M  V30 12 1 5 11
M  V30 13 1 6 12
M  V30 14 1 7 13
M  V30 15 1 7 14
M  V30 16 1 8 15
M  V30 END BOND
M  V30 BEGIN COLLECTION
M  V30 MDLV30/STEABS ATOMS=(2 4 5)
M  V30 END COLLECTION
M  V30 END CTAB
M  END
>  <Structure No>
1195

>  <LogS>
0.936160808

>  <MMFF94 Energy>
19.51

$$$$
Compound 1196
Actelion Java MolfileCreator 2.0

  0  0  0  0  0  0              0 V3000
M  V30 BEGIN CTAB
M  V30 COUNTS 28 29 0 0 0
M  V30 BEGIN ATOM
M  V30 1 C -1.0311 -0.3171 -0.3964 0
M  V30 2 C -2.1119 -0.8194 -1.1509 0
M  V30 3 C -1.3071 0.2856 0.8474 0
M  V30 4 C 0.3864 -0.4431 -0.9488 0
M  V30 5 C -3.4229 -0.721 -0.6759 0
M  V30 6 C -2.6207 0.3811 1.3176 0
M  V30 7 C 1.0433 0.9189 -1.2801 0
M  V30 8 C 1.2945 -1.3766 -0.1118 0
M  V30 9 C -3.6773 -0.1211 0.5574 0
M  V30 10 C 1.7888 1.5632 -0.1038 0
M  V30 11 C 2.0337 -0.6757 1.0355 0
M  V30 12 C 2.7607 0.5793 0.5497 0
M  V30 13 H -1.9445 -1.29 -2.1117 0
M  V30 14 H -0.525 0.6862 1.4662 0
M  V30 15 H 0.2967 -0.9545 -1.9344 0
M  V30 16 H -4.2424 -1.1108 -1.2659 0
M  V30 17 H -2.8193 0.8465 2.2746 0
M  V30 18 H 1.7779 0.7645 -2.1018 0
M  V30 19 H 0.278 1.6283 -1.664 0
M  V30 20 H 2.0606 -1.8196 -0.7867 0
M  V30 21 H 0.6992 -2.2227 0.2957 0
M  V30 22 H -4.6929 -0.0455 0.9242 0
M  V30 23 H 2.3653 2.4349 -0.4823 0
M  V30 24 H 1.076 1.9578 0.6466 0
M  V30 25 H 2.7827 -1.3795 1.4589 0
M  V30 26 H 1.3365 -0.4237 1.8587 0
M  V30 27 H 3.2549 1.0732 1.4138 0
M  V30 28 H 3.5511 0.2947 -0.1794 0
M  V30 END ATOM
M  V30 BEGIN BOND
M  V30 1 2 1 2
M  V30 2 1 1 3
M  V30 3 1 1 4
M  V30 4 1 2 5
M  V30 5 2 3 6
M  V30 6 1 4 7
M  V30 7 1 4 8
M  V30 8 2 5 9
M  V30 9 1 7 10
M  V30 10 1 8 11
M  V30 11 1 10 12
M  V30 12 1 6 9
M  V30 13 1 11 12
M  V30 14 1 2 13
M  V30 15 1 3 14
M  V30 16 1 4 15
M  V30 17 1 5 16
M  V30 18 1 6 17
M  V30 19 1 7 18
M  V30 20 1 7 19
M  V30 21 1 8 20
M  V30 22 1 8 21
M  V30 23 1 9 22
M  V30 24 1 10 23
M  V30 25 1 10 24
M  V30 26 1 11 25
M  V30 27 1 11 26
M  V30 28 1 12 27
M  V30 29 1 12 28
M  V30 END BOND
M  V30 END CTAB
M  END
>  <Structure No>
1196

>  <LogS>
-4.341502278

>  <MMFF94 Energy>
24.041

$$$$
Compound 1197
Actelion Java MolfileCreator 2.0

  0  0  0  0  0  0              0 V3000
M  V30 BEGIN CTAB
M  V30 COUNTS 72 74 0 0 0
M  V30 BEGIN ATOM
M  V30 1 S -9.6723 0.8686 -0.0868 0
M  V30 2 O -8.5361 1.757 0.3378 0
M  V30 3 O -10.3477 1.4521 -1.2967 0
M  V30 4 O -9.1038 -0.6923 -0.4201 0
M  V30 5 O -10.7882 0.7795 1.1644 0 CHG=-1
M  V30 6 C -8.2452 -0.6277 -1.5347 0
M  V30 7 C -7.5831 -1.986 -1.759 0
M  V30 8 S -6.6094 -2.4974 -0.3467 0
M  V30 9 O -5.7483 -3.6667 -0.7346 0
M  V30 10 O -7.5255 -2.9285 0.7651 0
M  V30 11 C -5.5842 -1.1741 0.2021 0
M  V30 12 C -6.003 -0.3459 1.2512 0
M  V30 13 C -4.3778 -0.9062 -0.4524 0
M  V30 14 C -5.2167 0.7429 1.6568 0
M  V30 15 C -3.5886 0.1744 -0.0553 0
M  V30 16 S -5.7622 1.7755 2.9801 0
M  V30 17 C -3.9895 0.9944 1.0136 0
M  V30 18 O -7.0334 1.2401 3.5767 0
M  V30 19 O -6.0109 3.1641 2.4632 0
M  V30 20 O -4.5813 1.8185 4.1744 0 CHG=-1
M  V30 21 N -3.2089 2.1437 1.3849 0
M  V30 22 N -1.9409 2.1647 1.548 0
M  V30 23 C -1.0723 1.0176 1.553 0
M  V30 24 C 0.1676 1.0781 0.8944 0
M  V30 25 C -1.4124 -0.1216 2.2906 0
M  V30 26 N 0.5201 2.2529 0.1445 0
M  V30 27 C 1.0468 -0.0259 0.9388 0
M  V30 28 C -0.548 -1.2168 2.367 0
M  V30 29 N 2.2571 0.0515 0.1647 0
M  V30 30 C 0.7018 -1.1719 1.7072 0
M  V30 31 S -1.038 -2.6106 3.3416 0
M  V30 32 N 2.9454 -0.9615 -0.1786 0
M  V30 33 N 1.6379 -2.2455 1.8811 0
M  V30 34 O 0.0253 -2.9213 4.3579 0
M  V30 35 O -1.249 -3.7996 2.4465 0
M  V30 36 O -2.4731 -2.2848 4.1547 0 CHG=-1
M  V30 37 C 4.1403 -0.8369 -0.9584 0
M  V30 38 C 4.9121 -1.9778 -1.2062 0
M  V30 39 C 4.547 0.3994 -1.4916 0
M  V30 40 C 6.0844 -1.8872 -1.9639 0
M  V30 41 C 5.7136 0.487 -2.2565 0
M  V30 42 C 6.4945 -0.6532 -2.4871 0
M  V30 43 S 7.9653 -0.5341 -3.4525 0
M  V30 44 O 8.7976 -1.7733 -3.274 0
M  V30 45 O 7.5904 -0.4016 -4.9019 0
M  V30 46 C 8.9432 0.8816 -2.9627 0
M  V30 47 C 9.3079 0.8181 -1.4817 0
M  V30 48 O 10.0706 1.9525 -1.1505 0
M  V30 49 S 10.5404 1.8249 0.4717 0
M  V30 50 O 11.528 0.7038 0.6347 0
M  V30 51 O 11.1906 3.1122 0.8907 0
M  V30 52 O 9.2032 1.5469 1.452 0 CHG=-1
M  V30 53 H -7.4475 0.1368 -1.3936 0
M  V30 54 H -8.8278 -0.3741 -2.4481 0
M  V30 55 H -6.918 -1.9225 -2.646 0
M  V30 56 H -8.3614 -2.7537 -1.9598 0
M  V30 57 H -6.9484 -0.5423 1.7396 0
M  V30 58 H -4.0572 -1.5221 -1.2829 0
M  V30 59 H -2.6747 0.3847 -0.596 0
M  V30 60 H -2.3467 -0.1372 2.8355 0
M  V30 61 H 1.432 2.3316 -0.3594 0
M  V30 62 H -0.1271 3.0692 0.072 0
M  V30 63 H 2.6581 -2.0543 1.9872 0
M  V30 64 H 1.3223 -3.2276 2.0333 0
M  V30 65 H 4.6045 -2.9379 -0.8093 0
M  V30 66 H 3.9618 1.2936 -1.3239 0
M  V30 67 H 6.6657 -2.7811 -2.1437 0
M  V30 68 H 6.0073 1.4444 -2.6678 0
M  V30 69 H 9.8712 0.9019 -3.5731 0
M  V30 70 H 8.3705 1.8108 -3.1686 0
M  V30 71 H 9.8887 -0.1138 -1.2987 0
M  V30 72 H 8.3701 0.7992 -0.884 0
M  V30 END ATOM
M  V30 BEGIN BOND
M  V30 1 2 1 2
M  V30 2 2 1 3
M  V30 3 1 1 4
M  V30 4 1 1 5
M  V30 5 1 4 6
M  V30 6 1 6 7
M  V30 7 1 7 8
M  V30 8 2 8 9
M  V30 9 2 8 10
M  V30 10 1 8 11
M  V30 11 2 11 12
M  V30 12 1 11 13
M  V30 13 1 12 14
M  V30 14 2 13 15
M  V30 15 1 14 16
M  V30 16 2 14 17
M  V30 17 2 16 18
M  V30 18 2 16 19
M  V30 19 1 16 20
M  V30 20 1 17 21
M  V30 21 2 21 22
M  V30 22 1 22 23
M  V30 23 2 23 24
M  V30 24 1 23 25
M  V30 25 1 24 26
M  V30 26 1 24 27
M  V30 27 2 25 28
M  V30 28 1 27 29
M  V30 29 2 27 30
M  V30 30 1 28 31
M  V30 31 2 29 32
M  V30 32 1 30 33
M  V30 33 2 31 34
M  V30 34 2 31 35
M  V30 35 1 31 36
M  V30 36 1 32 37
M  V30 37 2 37 38
M  V30 38 1 37 39
M  V30 39 1 38 40
M  V30 40 2 39 41
M  V30 41 2 40 42
M  V30 42 1 42 43
M  V30 43 2 43 44
M  V30 44 2 43 45
M  V30 45 1 43 46
M  V30 46 1 46 47
M  V30 47 1 47 48
M  V30 48 1 48 49
M  V30 49 2 49 50
M  V30 50 2 49 51
M  V30 51 1 49 52
M  V30 52 1 15 17
M  V30 53 1 28 30
M  V30 54 1 41 42
M  V30 55 1 6 53
M  V30 56 1 6 54
M  V30 57 1 7 55
M  V30 58 1 7 56
M  V30 59 1 12 57
M  V30 60 1 13 58
M  V30 61 1 15 59
M  V30 62 1 25 60
M  V30 63 1 26 61
M  V30 64 1 26 62
M  V30 65 1 33 63
M  V30 66 1 33 64
M  V30 67 1 38 65
M  V30 68 1 39 66
M  V30 69 1 40 67
M  V30 70 1 41 68
M  V30 71 1 46 69
M  V30 72 1 46 70
M  V30 73 1 47 71
M  V30 74 1 47 72
M  V30 END BOND
M  V30 END CTAB
M  END
>  <Structure No>
1197

>  <LogS>
-0.289144621

>  <MMFF94 Energy>
195.53

$$$$
Compound 1198
Actelion Java MolfileCreator 2.0

  0  0  0  0  0  0              0 V3000
M  V30 BEGIN CTAB
M  V30 COUNTS 26 27 0 0 0
M  V30 BEGIN ATOM
M  V30 1 N -4.8275 1.1063 -0.474 0
M  V30 2 N -4.5305 0.8685 0.8035 0
M  V30 3 N -3.8173 0.777 -1.2737 0
M  V30 4 C -3.2822 0.369 0.7965 0
M  V30 5 C -2.8408 0.3121 -0.4857 0
M  V30 6 C -2.4956 -0.037 1.8684 0
M  V30 7 C -1.5755 -0.1568 -0.8224 0
M  V30 8 C -1.2043 -0.5206 1.5774 0
M  V30 9 C -0.7414 -0.5935 0.2339 0
M  V30 10 C 0.6525 -1.0778 -0.0586 0
M  V30 11 C 1.6444 0.0896 -0.0318 0
M  V30 12 C 3.0689 -0.3917 -0.3288 0
M  V30 13 C 4.0593 0.7687 -0.303 0
M  V30 14 H -3.8122 0.8737 -2.3131 0
M  V30 15 H -2.8579 0.0206 2.8866 0
M  V30 16 H -1.2478 -0.1808 -1.8541 0
M  V30 17 H -0.5636 -0.8352 2.3917 0
M  V30 18 H 0.9498 -1.8408 0.6941 0
M  V30 19 H 0.6771 -1.5689 -1.0564 0
M  V30 20 H 1.6196 0.5702 0.9714 0
M  V30 21 H 1.3445 0.8443 -0.7925 0
M  V30 22 H 3.1015 -0.87 -1.3321 0
M  V30 23 H 3.3764 -1.1438 0.4302 0
M  V30 24 H 5.0804 0.3908 -0.5211 0
M  V30 25 H 3.7886 1.5242 -1.0712 0
M  V30 26 H 4.0648 1.2493 0.6986 0
M  V30 END ATOM
M  V30 BEGIN BOND
M  V30 1 2 1 2
M  V30 2 1 1 3
M  V30 3 1 2 4
M  V30 4 1 3 5
M  V30 5 1 4 6
M  V30 6 1 5 7
M  V30 7 2 6 8
M  V30 8 2 7 9
M  V30 9 1 9 10
M  V30 10 1 10 11
M  V30 11 1 11 12
M  V30 12 1 12 13
M  V30 13 2 4 5
M  V30 14 1 8 9
M  V30 15 1 3 14
M  V30 16 1 6 15
M  V30 17 1 7 16
M  V30 18 1 8 17
M  V30 19 1 10 18
M  V30 20 1 10 19
M  V30 21 1 11 20
M  V30 22 1 11 21
M  V30 23 1 12 22
M  V30 24 1 12 23
M  V30 25 1 13 24
M  V30 26 1 13 25
M  V30 27 1 13 26
M  V30 END BOND
M  V30 END CTAB
M  END
>  <Structure No>
1198

>  <LogS>
0.404025656

>  <MMFF94 Energy>
20.513

$$$$
Compound 1199
Actelion Java MolfileCreator 2.0

  0  0  0  0  0  0              0 V3000
M  V30 BEGIN CTAB
M  V30 COUNTS 26 27 0 0 0
M  V30 BEGIN ATOM
M  V30 1 C 1.4402 -0.3199 -0.1599 0
M  V30 2 C 1.5681 1.013 -0.4255 0
M  V30 3 C 0.1794 -0.7549 0.6013 0 CFG=2
M  V30 4 C 2.4912 -1.3039 -0.5765 0
M  V30 5 C 0.436 1.9672 0.0054 0
M  V30 6 C -1.0672 -0.1074 -0.0574 0
M  V30 7 C 0.0421 0.2563 1.7565 0
M  V30 8 C -0.6888 1.166 0.7482 0 CFG=1
M  V30 9 C -1.1206 -0.0188 -1.6087 0
M  V30 10 C -2.391 -0.7424 0.4387 0
M  V30 11 H 2.4357 1.3989 -0.9518 0
M  V30 12 H 0.1029 -1.8277 0.8822 0
M  V30 13 H 2.6053 -1.2834 -1.6807 0
M  V30 14 H 2.2096 -2.332 -0.2669 0
M  V30 15 H 3.46 -1.041 -0.1021 0
M  V30 16 H 0.851 2.741 0.6856 0
M  V30 17 H 0.0144 2.4813 -0.8837 0
M  V30 18 H 0.9956 0.6561 2.1745 0
M  V30 19 H -0.62 -0.1059 2.5725 0
M  V30 20 H -1.5276 1.7679 1.16 0
M  V30 21 H -1.9695 0.6295 -1.9127 0
M  V30 22 H -1.2864 -1.0321 -2.0321 0
M  V30 23 H -0.2137 0.3831 -2.0944 0
M  V30 24 H -3.2529 -0.121 0.1144 0
M  V30 25 H -2.4443 -0.8379 1.5418 0
M  V30 26 H -2.5071 -1.7599 0.0083 0
M  V30 END ATOM
M  V30 BEGIN BOND
M  V30 1 2 1 2
M  V30 2 1 1 3
M  V30 3 1 1 4
M  V30 4 1 2 5
M  V30 5 1 3 6
M  V30 6 1 3 7
M  V30 7 1 5 8
M  V30 8 1 6 9
M  V30 9 1 6 10
M  V30 10 1 6 8
M  V30 11 1 7 8
M  V30 12 1 2 11
M  V30 13 1 3 12
M  V30 14 1 4 13
M  V30 15 1 4 14
M  V30 16 1 4 15
M  V30 17 1 5 16
M  V30 18 1 5 17
M  V30 19 1 7 18
M  V30 20 1 7 19
M  V30 21 1 8 20
M  V30 22 1 9 21
M  V30 23 1 9 22
M  V30 24 1 9 23
M  V30 25 1 10 24
M  V30 26 1 10 25
M  V30 27 1 10 26
M  V30 END BOND
M  V30 BEGIN COLLECTION
M  V30 MDLV30/STEABS ATOMS=(2 3 8)
M  V30 END COLLECTION
M  V30 END CTAB
M  END
>  <Structure No>
1199

>  <LogS>
-3.772570424

>  <MMFF94 Energy>
36.806

$$$$
Compound 1200
Actelion Java MolfileCreator 2.0

  0  0  0  0  0  0              0 V3000
M  V30 BEGIN CTAB
M  V30 COUNTS 49 52 0 0 0
M  V30 BEGIN ATOM
M  V30 1 O 7.2422 -1.4452 1.2845 0
M  V30 2 C 6.2023 -0.554 1.6101 0 CFG=2
M  V30 3 C 7.5257 -0.4732 2.2665 0
M  V30 4 C 5.0891 -1.2386 2.4075 0
M  V30 5 O 4.1014 -1.7691 1.5248 0
M  V30 6 C 3.1658 -1.0124 0.7998 0
M  V30 7 C 3.0556 0.3836 0.9232 0
M  V30 8 C 2.3115 -1.6843 -0.0768 0
M  V30 9 C 2.1049 1.0889 0.1794 0
M  V30 10 C 1.3603 -0.9839 -0.8213 0
M  V30 11 C 1.2249 0.4149 -0.6966 0
M  V30 12 C 0.1795 1.1477 -1.5601 0
M  V30 13 C -1.185 0.445 -1.4206 0
M  V30 14 C -0.0286 2.623 -1.1401 0
M  V30 15 C 0.7159 1.1493 -3.012 0
M  V30 16 C -1.9899 0.1048 -2.5306 0
M  V30 17 C -1.6916 0.1779 -0.1309 0
M  V30 18 C -3.2334 -0.5072 -2.3508 0
M  V30 19 C -2.9347 -0.4343 0.0442 0
M  V30 20 C -3.7175 -0.7824 -1.0697 0
M  V30 21 O -4.9734 -1.4009 -0.9537 0
M  V30 22 C -5.6447 -1.6871 0.2727 0
M  V30 23 C -6.1766 -0.3964 0.9015 0 CFG=1
M  V30 24 O -7.4822 -0.0981 0.4676 0
M  V30 25 C -7.3428 -0.5358 1.8012 0
M  V30 26 H 5.9865 0.1652 0.7925 0
M  V30 27 H 8.2184 0.3009 1.8762 0
M  V30 28 H 7.6364 -0.9348 3.2705 0
M  V30 29 H 5.4985 -2.0787 3.0094 0
M  V30 30 H 4.6287 -0.5211 3.1189 0
M  V30 31 H 3.7014 0.9392 1.5882 0
M  V30 32 H 2.388 -2.7588 -0.1861 0
M  V30 33 H 2.0722 2.1609 0.3038 0
M  V30 34 H 0.7226 -1.5381 -1.4987 0
M  V30 35 H -0.2886 2.6988 -0.0624 0
M  V30 36 H -0.8585 3.0778 -1.724 0
M  V30 37 H 0.8819 3.2302 -1.3334 0
M  V30 38 H 1.7419 1.5769 -3.0447 0
M  V30 39 H 0.0783 1.7706 -3.6774 0
M  V30 40 H 0.7636 0.1174 -3.4215 0
M  V30 41 H -1.6751 0.3031 -3.544 0
M  V30 42 H -1.1176 0.4435 0.7482 0
M  V30 43 H -3.8293 -0.7657 -3.2172 0
M  V30 44 H -3.2749 -0.6272 1.0516 0
M  V30 45 H -4.9611 -2.2049 0.9779 0
M  V30 46 H -6.4791 -2.3879 0.052 0
M  V30 47 H -5.5465 0.5109 1.0095 0
M  V30 48 H -7.7736 -1.55 1.9396 0
M  V30 49 H -7.5108 0.2962 2.5161 0
M  V30 END ATOM
M  V30 BEGIN BOND
M  V30 1 1 1 2
M  V30 2 1 1 3
M  V30 3 1 2 4
M  V30 4 1 4 5
M  V30 5 1 5 6
M  V30 6 2 6 7
M  V30 7 1 6 8
M  V30 8 1 7 9
M  V30 9 2 8 10
M  V30 10 2 9 11
M  V30 11 1 11 12
M  V30 12 1 12 13
M  V30 13 1 12 14
M  V30 14 1 12 15
M  V30 15 2 13 16
M  V30 16 1 13 17
M  V30 17 1 16 18
M  V30 18 2 17 19
M  V30 19 2 18 20
M  V30 20 1 20 21
M  V30 21 1 21 22
M  V30 22 1 22 23
M  V30 23 1 23 24
M  V30 24 1 23 25
M  V30 25 1 2 3
M  V30 26 1 10 11
M  V30 27 1 19 20
M  V30 28 1 24 25
M  V30 29 1 2 26
M  V30 30 1 3 27
M  V30 31 1 3 28
M  V30 32 1 4 29
M  V30 33 1 4 30
M  V30 34 1 7 31
M  V30 35 1 8 32
M  V30 36 1 9 33
M  V30 37 1 10 34
M  V30 38 1 14 35
M  V30 39 1 14 36
M  V30 40 1 14 37
M  V30 41 1 15 38
M  V30 42 1 15 39
M  V30 43 1 15 40
M  V30 44 1 16 41
M  V30 45 1 17 42
M  V30 46 1 18 43
M  V30 47 1 19 44
M  V30 48 1 22 45
M  V30 49 1 22 46
M  V30 50 1 23 47
M  V30 51 1 25 48
M  V30 52 1 25 49
M  V30 END BOND
M  V30 BEGIN COLLECTION
M  V30 MDLV30/STEABS ATOMS=(2 2 23)
M  V30 END COLLECTION
M  V30 END CTAB
M  END
>  <Structure No>
1200

>  <LogS>
-4.799620032

>  <MMFF94 Energy>
95.636

$$$$
Compound 1201
Actelion Java MolfileCreator 2.0

  0  0  0  0  0  0              0 V3000
M  V30 BEGIN CTAB
M  V30 COUNTS 59 58 0 0 0
M  V30 BEGIN ATOM
M  V30 1 N -7.1487 -1.0852 -0.8526 0 CHG=1
M  V30 2 C -5.7589 -0.7029 -0.5042 0
M  V30 3 C -8.1283 -0.4925 0.0777 0
M  V30 4 C -7.4545 -0.6545 -2.2286 0
M  V30 5 C -5.2927 -1.3222 0.8301 0
M  V30 6 C -3.7724 -1.2202 1.0306 0
M  V30 7 C -3.2946 0.2343 1.1854 0
M  V30 8 C -1.8423 0.3334 1.6783 0
M  V30 9 C -0.8251 -0.1114 0.6138 0
M  V30 10 C 0.6269 -0.0205 1.1097 0
M  V30 11 C 1.1203 1.431 1.2455 0
M  V30 12 C 2.6343 1.5079 1.5338 0
M  V30 13 C 3.4802 1.8634 0.2998 0
M  V30 14 C 3.4677 0.763 -0.774 0
M  V30 15 C 4.492 1.0334 -1.8967 0
M  V30 16 C 5.769 0.1829 -1.7788 0
M  V30 17 C 6.6136 0.5438 -0.5449 0
M  V30 18 C 7.9986 -0.122 -0.5635 0
M  V30 19 C 7.9271 -1.6379 -0.3864 0
M  V30 20 H -7.2411 -2.1283 -0.8169 0
M  V30 21 H -5.6656 0.4051 -0.4527 0
M  V30 22 H -5.0684 -1.0569 -1.3027 0
M  V30 23 H -8.0207 -0.9276 1.0935 0
M  V30 24 H -8.0076 0.612 0.1397 0
M  V30 25 H -9.1671 -0.7167 -0.2519 0
M  V30 26 H -8.4797 -0.9745 -2.5189 0
M  V30 27 H -7.3845 0.4529 -2.3244 0
M  V30 28 H -6.7492 -1.1209 -2.9522 0
M  V30 29 H -5.8018 -0.8243 1.6827 0
M  V30 30 H -5.5697 -2.3988 0.85 0
M  V30 31 H -3.2588 -1.7039 0.1735 0
M  V30 32 H -3.5095 -1.7901 1.9477 0
M  V30 33 H -3.9414 0.7506 1.9277 0
M  V30 34 H -3.3935 0.7734 0.2193 0
M  V30 35 H -1.7169 -0.2722 2.6023 0
M  V30 36 H -1.6528 1.3948 1.9432 0
M  V30 37 H -1.0188 -1.1709 0.3447 0
M  V30 38 H -0.9468 0.4981 -0.3078 0
M  V30 39 H 0.7237 -0.5418 2.0873 0
M  V30 40 H 1.2666 -0.564 0.3841 0
M  V30 41 H 0.5851 1.9057 2.095 0
M  V30 42 H 0.8657 2.0128 0.3329 0
M  V30 43 H 3.0065 0.5659 1.9916 0
M  V30 44 H 2.8022 2.3082 2.2872 0
M  V30 45 H 4.5213 2.0391 0.6421 0
M  V30 46 H 3.1158 2.8173 -0.1401 0
M  V30 47 H 3.651 -0.2306 -0.3085 0
M  V30 48 H 2.4543 0.734 -1.2299 0
M  V30 49 H 4.0159 0.7795 -2.8693 0
M  V30 50 H 4.757 2.1126 -1.9496 0
M  V30 51 H 6.3759 0.3492 -2.6962 0
M  V30 52 H 5.4894 -0.8924 -1.7484 0
M  V30 53 H 6.7634 1.6457 -0.5183 0
M  V30 54 H 6.0786 0.2459 0.3829 0
M  V30 55 H 8.6015 0.2987 0.2704 0
M  V30 56 H 8.5251 0.1174 -1.5124 0
M  V30 57 H 8.955 -2.0482 -0.2928 0
M  V30 58 H 7.4447 -2.1124 -1.2657 0
M  V30 59 H 7.3585 -1.8953 0.5322 0
M  V30 END ATOM
M  V30 BEGIN BOND
M  V30 1 1 1 2
M  V30 2 1 1 3
M  V30 3 1 1 4
M  V30 4 1 2 5
M  V30 5 1 5 6
M  V30 6 1 6 7
M  V30 7 1 7 8
M  V30 8 1 8 9
M  V30 9 1 9 10
M  V30 10 1 10 11
M  V30 11 1 11 12
M  V30 12 1 12 13
M  V30 13 1 13 14
M  V30 14 1 14 15
M  V30 15 1 15 16
M  V30 16 1 16 17
M  V30 17 1 17 18
M  V30 18 1 18 19
M  V30 19 1 1 20
M  V30 20 1 2 21
M  V30 21 1 2 22
M  V30 22 1 3 23
M  V30 23 1 3 24
M  V30 24 1 3 25
M  V30 25 1 4 26
M  V30 26 1 4 27
M  V30 27 1 4 28
M  V30 28 1 5 29
M  V30 29 1 5 30
M  V30 30 1 6 31
M  V30 31 1 6 32
M  V30 32 1 7 33
M  V30 33 1 7 34
M  V30 34 1 8 35
M  V30 35 1 8 36
M  V30 36 1 9 37
M  V30 37 1 9 38
M  V30 38 1 10 39
M  V30 39 1 10 40
M  V30 40 1 11 41
M  V30 41 1 11 42
M  V30 42 1 12 43
M  V30 43 1 12 44
M  V30 44 1 13 45
M  V30 45 1 13 46
M  V30 46 1 14 47
M  V30 47 1 14 48
M  V30 48 1 15 49
M  V30 49 1 15 50
M  V30 50 1 16 51
M  V30 51 1 16 52
M  V30 52 1 17 53
M  V30 53 1 17 54
M  V30 54 1 18 55
M  V30 55 1 18 56
M  V30 56 1 19 57
M  V30 57 1 19 58
M  V30 58 1 19 59
M  V30 END BOND
M  V30 END CTAB
M  END
>  <Structure No>
1201

>  <LogS>
-4.652434914

>  <MMFF94 Energy>
5.2993

$$$$
Compound 1202
Actelion Java MolfileCreator 2.0

  0  0  0  0  0  0              0 V3000
M  V30 BEGIN CTAB
M  V30 COUNTS 14 15 0 0 0
M  V30 BEGIN ATOM
M  V30 1 O 0 0 0 0
M  V30 2 C 0 0 0 0
M  V30 3 C 0 0 0 0
M  V30 4 C 0 0 0 0
M  V30 5 C 0 0 0 0
M  V30 6 C 0 0 0 0
M  V30 7 C 0 0 0 0
M  V30 8 C 0 0 0 0
M  V30 9 C 0 0 0 0
M  V30 10 C 0 0 0 0
M  V30 11 C 0 0 0 0
M  V30 12 C 0 0 0 0
M  V30 13 C 0 0 0 0
M  V30 14 C 0 0 0 0
M  V30 END ATOM
M  V30 BEGIN BOND
M  V30 1 2 1 2
M  V30 2 1 2 3
M  V30 3 1 3 4
M  V30 4 1 3 5
M  V30 5 1 4 6
M  V30 6 1 4 7
M  V30 7 1 5 8
M  V30 8 1 6 9
M  V30 9 1 6 10
M  V30 10 1 7 11
M  V30 11 1 9 12
M  V30 12 1 9 13
M  V30 13 1 11 14
M  V30 14 1 8 10
M  V30 15 2 8 11
M  V30 END BOND
M  V30 END CTAB
M  END
>  <Structure No>
1202

>  <LogS>
-3.850854284

>  <MMFF94 Energy>
83.575

$$$$
Compound 1203
Actelion Java MolfileCreator 2.0

  0  0  0  0  0  0              0 V3000
M  V30 BEGIN CTAB
M  V30 COUNTS 47 46 0 0 0
M  V30 BEGIN ATOM
M  V30 1 N -4.7976 -0.0772 -0.2317 0 CHG=1
M  V30 2 C -4.2053 1.2672 -0.0218 0
M  V30 3 C -5.5467 -0.4784 0.9724 0
M  V30 4 C -5.6949 -0.1066 -1.4023 0
M  V30 5 C -3.2942 1.752 -1.1738 0
M  V30 6 C -2.1397 0.8043 -1.545 0
M  V30 7 C -1.1832 0.5399 -0.3729 0
M  V30 8 C 0.0318 -0.2762 -0.8291 0
M  V30 9 C 0.9789 -0.5562 0.3436 0
M  V30 10 C 2.2037 -1.3587 -0.1183 0
M  V30 11 C 3.1055 -1.7987 1.0486 0
M  V30 12 C 3.7109 -0.6477 1.8777 0
M  V30 13 C 4.5257 0.3789 1.0711 0
M  V30 14 C 5.7419 -0.2432 0.3708 0
M  V30 15 C 6.606 0.8292 -0.2856 0
M  V30 16 H -4.0386 -0.7835 -0.3693 0
M  V30 17 H -3.6085 1.2776 0.9171 0
M  V30 18 H -5.0131 2.0215 0.117 0
M  V30 19 H -6.3876 0.2226 1.1737 0
M  V30 20 H -4.8769 -0.4972 1.8605 0
M  V30 21 H -5.9587 -1.5048 0.853 0
M  V30 22 H -6.2153 -1.0872 -1.4743 0
M  V30 23 H -5.1174 0.0098 -2.3431 0
M  V30 24 H -6.4613 0.6976 -1.3416 0
M  V30 25 H -2.863 2.7345 -0.8818 0
M  V30 26 H -3.907 1.9451 -2.0793 0
M  V30 27 H -2.5372 -0.1542 -1.9395 0
M  V30 28 H -1.569 1.2799 -2.3726 0
M  V30 29 H -0.8381 1.5097 0.0484 0
M  V30 30 H -1.7151 -0.0249 0.4223 0
M  V30 31 H -0.3156 -1.2408 -1.2606 0
M  V30 32 H 0.5796 0.2868 -1.6165 0
M  V30 33 H 0.4355 -1.1288 1.1271 0
M  V30 34 H 1.3095 0.4128 0.7751 0
M  V30 35 H 1.855 -2.2777 -0.6384 0
M  V30 36 H 2.7889 -0.7716 -0.8574 0
M  V30 37 H 3.9239 -2.4339 0.6482 0
M  V30 38 H 2.5136 -2.4465 1.7315 0
M  V30 39 H 4.3672 -1.0888 2.6593 0
M  V30 40 H 2.8987 -0.1158 2.4173 0
M  V30 41 H 4.8804 1.1585 1.7805 0
M  V30 42 H 3.8763 0.8892 0.3286 0
M  V30 43 H 5.4063 -0.9509 -0.4164 0
M  V30 44 H 6.3585 -0.7997 1.1096 0
M  V30 45 H 6.0158 1.3907 -1.041 0
M  V30 46 H 6.9914 1.5369 0.479 0
M  V30 47 H 7.4701 0.3513 -0.7933 0
M  V30 END ATOM
M  V30 BEGIN BOND
M  V30 1 1 1 2
M  V30 2 1 1 3
M  V30 3 1 1 4
M  V30 4 1 2 5
M  V30 5 1 5 6
M  V30 6 1 6 7
M  V30 7 1 7 8
M  V30 8 1 8 9
M  V30 9 1 9 10
M  V30 10 1 10 11
M  V30 11 1 11 12
M  V30 12 1 12 13
M  V30 13 1 13 14
M  V30 14 1 14 15
M  V30 15 1 1 16
M  V30 16 1 2 17
M  V30 17 1 2 18
M  V30 18 1 3 19
M  V30 19 1 3 20
M  V30 20 1 3 21
M  V30 21 1 4 22
M  V30 22 1 4 23
M  V30 23 1 4 24
M  V30 24 1 5 25
M  V30 25 1 5 26
M  V30 26 1 6 27
M  V30 27 1 6 28
M  V30 28 1 7 29
M  V30 29 1 7 30
M  V30 30 1 8 31
M  V30 31 1 8 32
M  V30 32 1 9 33
M  V30 33 1 9 34
M  V30 34 1 10 35
M  V30 35 1 10 36
M  V30 36 1 11 37
M  V30 37 1 11 38
M  V30 38 1 12 39
M  V30 39 1 12 40
M  V30 40 1 13 41
M  V30 41 1 13 42
M  V30 42 1 14 43
M  V30 43 1 14 44
M  V30 44 1 15 45
M  V30 45 1 15 46
M  V30 46 1 15 47
M  V30 END BOND
M  V30 END CTAB
M  END
>  <Structure No>
1203

>  <LogS>
-4.426122744

>  <MMFF94 Energy>
6.0966

$$$$
Compound 1204
Actelion Java MolfileCreator 2.0

  0  0  0  0  0  0              0 V3000
M  V30 BEGIN CTAB
M  V30 COUNTS 76 81 0 0 0
M  V30 BEGIN ATOM
M  V30 1 Cl 2.0605 -3.0919 -3.7799 0
M  V30 2 C 2.6591 -2.0348 -2.5216 0
M  V30 3 N 3.2731 -0.871 -2.8486 0
M  V30 4 N 2.4977 -2.3718 -1.2192 0
M  V30 5 C 3.7341 -0.0395 -1.8764 0
M  V30 6 C 2.9553 -1.5488 -0.2403 0
M  V30 7 N 3.5698 -0.3852 -0.5723 0
M  V30 8 N 4.3843 1.1996 -2.2269 0
M  V30 9 N 2.7457 -1.8714 1.1386 0
M  V30 10 C 4.206 1.7592 -3.5427 0
M  V30 11 C 5.0888 1.9848 -1.2018 0
M  V30 12 C 2.163 -3.1137 1.5454 0
M  V30 13 C 2.9146 1.946 -4.0658 0
M  V30 14 C 5.3198 2.1314 -4.3131 0
M  V30 15 C 4.1291 2.9563 -0.5195 0
M  V30 16 C 0.7908 -3.21 1.8822 0
M  V30 17 C 2.989 -4.2396 1.6436 0
M  V30 18 C 2.7422 2.4922 -5.3415 0
M  V30 19 C 5.1427 2.6804 -5.5877 0
M  V30 20 C -0.1532 -2.0737 1.7144 0
M  V30 21 C 0.2839 -4.4406 2.3517 0
M  V30 22 C 2.4748 -5.4634 2.0816 0
M  V30 23 C 3.8553 2.8594 -6.1023 0
M  V30 24 O 0.1925 -1.0596 1.0533 0
M  V30 25 C -1.5432 -2.2073 2.2317 0
M  V30 26 C -1.1394 -4.5771 2.7324 0
M  V30 27 C 1.1284 -5.556 2.4492 0
M  V30 28 S 3.5221 -6.8749 2.1887 0
M  V30 29 N -2.4075 -1.2283 2.2458 0
M  V30 30 C -1.9954 -3.546 2.6851 0
M  V30 31 O 4.586 -6.7997 1.13 0
M  V30 32 O 2.7158 -8.1249 1.9746 0
M  V30 33 O 4.2424 -6.9261 3.7049 0 CHG=-1
M  V30 34 N -2.1472 0.1169 1.9284 0
M  V30 35 S -3.6808 -3.7843 3.1713 0
M  V30 36 C -3.2131 0.9764 1.4887 0
M  V30 37 O -3.9825 -2.9306 4.3715 0
M  V30 38 O -3.9386 -5.2237 3.5206 0
M  V30 39 O -4.6904 -3.3477 1.9017 0 CHG=-1
M  V30 40 C -3.1426 2.3838 1.6427 0
M  V30 41 C -4.3087 0.409 0.827 0
M  V30 42 S -1.9513 3.0927 2.7703 0
M  V30 43 C -4.0865 3.2028 0.9552 0
M  V30 44 C -5.3022 1.2037 0.271 0
M  V30 45 O -1.5726 2.1045 3.8388 0
M  V30 46 O -2.5323 4.2937 3.4656 0
M  V30 47 O -0.5775 3.5458 1.9157 0 CHG=-1
M  V30 48 C -5.2005 2.6043 0.2936 0
M  V30 49 C -3.932 4.603 0.8774 0
M  V30 50 C -6.1735 3.4263 -0.3395 0
M  V30 51 C -4.8846 5.3943 0.2448 0
M  V30 52 S -7.6106 2.7652 -1.1404 0
M  V30 53 C -6.0021 4.8153 -0.3437 0
M  V30 54 O -8.4199 1.9723 -0.152 0
M  V30 55 O -7.1929 1.882 -2.2836 0
M  V30 56 O -8.572 4.0043 -1.7467 0 CHG=-1
M  V30 57 H 2.9956 -1.1731 1.8729 0
M  V30 58 H 5.5423 1.3127 -0.441 0
M  V30 59 H 5.9221 2.5641 -1.6557 0
M  V30 60 H 2.0446 1.6757 -3.4798 0
M  V30 61 H 6.3239 1.9817 -3.9326 0
M  V30 62 H 4.6689 3.522 0.2694 0
M  V30 63 H 3.7203 3.6771 -1.2611 0
M  V30 64 H 3.2866 2.4039 -0.0542 0
M  V30 65 H 4.0376 -4.1532 1.3849 0
M  V30 66 H 1.7445 2.6287 -5.7384 0
M  V30 67 H 6.004 2.959 -6.1806 0
M  V30 68 H 3.7214 3.2798 -7.091 0
M  V30 69 H -1.4859 -5.5458 3.0697 0
M  V30 70 H 0.7346 -6.5007 2.8052 0
M  V30 71 H -1.1912 0.5115 2.0496 0
M  V30 72 H -4.3888 -0.6647 0.7185 0
M  V30 73 H -6.1226 0.6983 -0.2167 0
M  V30 74 H -3.0573 5.1044 1.2622 0
M  V30 75 H -4.75 6.4676 0.2029 0
M  V30 76 H -6.7276 5.4624 -0.8187 0
M  V30 END ATOM
M  V30 BEGIN BOND
M  V30 1 1 1 2
M  V30 2 2 2 3
M  V30 3 1 2 4
M  V30 4 1 3 5
M  V30 5 2 4 6
M  V30 6 2 5 7
M  V30 7 1 5 8
M  V30 8 1 6 9
M  V30 9 1 8 10
M  V30 10 1 8 11
M  V30 11 1 9 12
M  V30 12 2 10 13
M  V30 13 1 10 14
M  V30 14 1 11 15
M  V30 15 2 12 16
M  V30 16 1 12 17
M  V30 17 1 13 18
M  V30 18 2 14 19
M  V30 19 1 16 20
M  V30 20 1 16 21
M  V30 21 2 17 22
M  V30 22 2 18 23
M  V30 23 2 20 24
M  V30 24 1 20 25
M  V30 25 1 21 26
M  V30 26 2 21 27
M  V30 27 1 22 28
M  V30 28 2 25 29
M  V30 29 1 25 30
M  V30 30 2 28 31
M  V30 31 2 28 32
M  V30 32 1 28 33
M  V30 33 1 29 34
M  V30 34 1 30 35
M  V30 35 1 34 36
M  V30 36 2 35 37
M  V30 37 2 35 38
M  V30 38 1 35 39
M  V30 39 2 36 40
M  V30 40 1 36 41
M  V30 41 1 40 42
M  V30 42 1 40 43
M  V30 43 2 41 44
M  V30 44 2 42 45
M  V30 45 2 42 46
M  V30 46 1 42 47
M  V30 47 1 43 48
M  V30 48 2 43 49
M  V30 49 2 48 50
M  V30 50 1 49 51
M  V30 51 1 50 52
M  V30 52 1 50 53
M  V30 53 2 52 54
M  V30 54 2 52 55
M  V30 55 1 52 56
M  V30 56 1 6 7
M  V30 57 1 19 23
M  V30 58 1 22 27
M  V30 59 2 26 30
M  V30 60 1 44 48
M  V30 61 2 51 53
M  V30 62 1 9 57
M  V30 63 1 11 58
M  V30 64 1 11 59
M  V30 65 1 13 60
M  V30 66 1 14 61
M  V30 67 1 15 62
M  V30 68 1 15 63
M  V30 69 1 15 64
M  V30 70 1 17 65
M  V30 71 1 18 66
M  V30 72 1 19 67
M  V30 73 1 23 68
M  V30 74 1 26 69
M  V30 75 1 27 70
M  V30 76 1 34 71
M  V30 77 1 41 72
M  V30 78 1 44 73
M  V30 79 1 49 74
M  V30 80 1 51 75
M  V30 81 1 53 76
M  V30 END BOND
M  V30 END CTAB
M  END
>  <Structure No>
1204

>  <LogS>
-0.50252635

>  <MMFF94 Energy>
212.72

$$$$
Compound 1205
Actelion Java MolfileCreator 2.0

  0  0  0  0  0  0              0 V3000
M  V30 BEGIN CTAB
M  V30 COUNTS 23 24 0 0 0
M  V30 BEGIN ATOM
M  V30 1 Cl -2.9823 2.8994 0.6621 0
M  V30 2 C -2.7033 1.1946 0.3573 0
M  V30 3 C -1.4679 0.7658 -0.1414 0
M  V30 4 C -3.7184 0.2645 0.6045 0
M  V30 5 C -1.2377 -0.6014 -0.3831 0
M  V30 6 C -3.5013 -1.0914 0.3465 0
M  V30 7 O -0.0192 -1.0694 -0.8967 0
M  V30 8 C -2.2676 -1.5215 -0.1514 0
M  V30 9 C 1.238 -0.4948 -0.6582 0
M  V30 10 C 1.5428 0.154 0.5529 0
M  V30 11 C 2.2299 -0.6158 -1.6391 0
M  V30 12 C 2.8137 0.6998 0.7585 0
M  V30 13 C 3.5004 -0.0693 -1.4322 0
M  V30 14 C 3.7923 0.5922 -0.2349 0
M  V30 15 Cl 5.3866 1.2758 0.0248 0
M  V30 16 H -0.7002 1.4976 -0.3567 0
M  V30 17 H -4.676 0.5917 0.9891 0
M  V30 18 H -4.2899 -1.8096 0.5309 0
M  V30 19 H -2.1079 -2.5735 -0.3506 0
M  V30 20 H 0.8073 0.2214 1.3437 0
M  V30 21 H 2.0121 -1.1282 -2.5676 0
M  V30 22 H 3.0387 1.1994 1.6924 0
M  V30 23 H 4.2562 -0.1621 -2.2016 0
M  V30 END ATOM
M  V30 BEGIN BOND
M  V30 1 1 1 2
M  V30 2 2 2 3
M  V30 3 1 2 4
M  V30 4 1 3 5
M  V30 5 2 4 6
M  V30 6 1 5 7
M  V30 7 2 5 8
M  V30 8 1 7 9
M  V30 9 2 9 10
M  V30 10 1 9 11
M  V30 11 1 10 12
M  V30 12 2 11 13
M  V30 13 2 12 14
M  V30 14 1 14 15
M  V30 15 1 6 8
M  V30 16 1 13 14
M  V30 17 1 3 16
M  V30 18 1 4 17
M  V30 19 1 6 18
M  V30 20 1 8 19
M  V30 21 1 10 20
M  V30 22 1 11 21
M  V30 23 1 12 22
M  V30 24 1 13 23
M  V30 END BOND
M  V30 END CTAB
M  END
>  <Structure No>
1205

>  <LogS>
-5.387355317

>  <MMFF94 Energy>
34.381

$$$$
Compound 1206
Actelion Java MolfileCreator 2.0

  0  0  0  0  0  0              0 V3000
M  V30 BEGIN CTAB
M  V30 COUNTS 74 73 0 0 0
M  V30 BEGIN ATOM
M  V30 1 O 0 0 0 0
M  V30 2 C 0 0 0 0
M  V30 3 O 0 0 0 0
M  V30 4 C 0 0 0 0
M  V30 5 C 0 0 0 0
M  V30 6 C 0 0 0 0
M  V30 7 C 0 0 0 0
M  V30 8 C 0 0 0 0
M  V30 9 C 0 0 0 0
M  V30 10 C 0 0 0 0
M  V30 11 C 0 0 0 0
M  V30 12 C 0 0 0 0
M  V30 13 C 0 0 0 0
M  V30 14 C 0 0 0 0
M  V30 15 O 0 0 0 0
M  V30 16 O 0 0 0 0
M  V30 17 O 0 0 0 0
M  V30 18 C 0 0 0 0
M  V30 19 C 0 0 0 0
M  V30 20 C 0 0 0 0
M  V30 21 C 0 0 0 0
M  V30 22 O 0 0 0 0
M  V30 23 C 0 0 0 0
M  V30 24 O 0 0 0 0
M  V30 25 C 0 0 0 0
M  V30 26 C 0 0 0 0
M  V30 27 C 0 0 0 0
M  V30 28 C 0 0 0 0
M  V30 29 C 0 0 0 0
M  V30 30 C 0 0 0 0
M  V30 31 C 0 0 0 0
M  V30 32 C 0 0 0 0
M  V30 33 C 0 0 0 0
M  V30 34 C 0 0 0 0
M  V30 35 C 0 0 0 0
M  V30 36 O 0 0 0 0
M  V30 37 O 0 0 0 0
M  V30 38 O 0 0 0 0
M  V30 39 C 0 0 0 0
M  V30 40 C 0 0 0 0
M  V30 41 C 0 0 0 0
M  V30 42 C 0 0 0 0
M  V30 43 C 0 0 0 0
M  V30 44 C 0 0 0 0
M  V30 45 C 0 0 0 0
M  V30 46 O 0 0 0 0
M  V30 47 C 0 0 0 0
M  V30 48 O 0 0 0 0
M  V30 49 C 0 0 0 0
M  V30 50 O 0 0 0 0
M  V30 51 C 0 0 0 0
M  V30 52 C 0 0 0 0
M  V30 53 C 0 0 0 0
M  V30 54 C 0 0 0 0
M  V30 55 C 0 0 0 0
M  V30 56 C 0 0 0 0
M  V30 57 C 0 0 0 0
M  V30 58 C 0 0 0 0
M  V30 59 C 0 0 0 0
M  V30 60 C 0 0 0 0
M  V30 61 C 0 0 0 0
M  V30 62 C 0 0 0 0
M  V30 63 C 0 0 0 0
M  V30 64 C 0 0 0 0
M  V30 65 C 0 0 0 0
M  V30 66 C 0 0 0 0
M  V30 67 C 0 0 0 0
M  V30 68 C 0 0 0 0
M  V30 69 C 0 0 0 0
M  V30 70 C 0 0 0 0
M  V30 71 C 0 0 0 0
M  V30 72 C 0 0 0 0
M  V30 73 C 0 0 0 0
M  V30 74 C 0 0 0 0
M  V30 END ATOM
M  V30 BEGIN BOND
M  V30 1 2 1 2
M  V30 2 1 2 3
M  V30 3 1 2 4
M  V30 4 1 3 5
M  V30 5 1 4 6
M  V30 6 1 4 7
M  V30 7 1 5 8
M  V30 8 1 6 9
M  V30 9 1 7 10
M  V30 10 1 8 11
M  V30 11 1 8 12
M  V30 12 1 8 13
M  V30 13 1 9 14
M  V30 14 1 11 15
M  V30 15 1 12 16
M  V30 16 1 13 17
M  V30 17 1 14 18
M  V30 18 1 15 19
M  V30 19 1 16 20
M  V30 20 1 17 21
M  V30 21 2 19 22
M  V30 22 1 19 23
M  V30 23 2 20 24
M  V30 24 1 20 25
M  V30 25 1 21 26
M  V30 26 1 23 27
M  V30 27 1 23 28
M  V30 28 1 25 29
M  V30 29 1 26 30
M  V30 30 1 26 31
M  V30 31 1 26 32
M  V30 32 1 27 33
M  V30 33 1 28 34
M  V30 34 1 29 35
M  V30 35 1 30 36
M  V30 36 1 31 37
M  V30 37 1 32 38
M  V30 38 1 33 39
M  V30 39 1 35 40
M  V30 40 1 36 41
M  V30 41 1 37 42
M  V30 42 1 38 43
M  V30 43 1 39 44
M  V30 44 1 40 45
M  V30 45 2 41 46
M  V30 46 1 41 47
M  V30 47 2 42 48
M  V30 48 1 42 49
M  V30 49 2 43 50
M  V30 50 1 43 51
M  V30 51 1 45 52
M  V30 52 1 47 53
M  V30 53 1 47 54
M  V30 54 1 49 55
M  V30 55 1 51 56
M  V30 56 1 52 57
M  V30 57 1 52 58
M  V30 58 1 53 59
M  V30 59 1 54 60
M  V30 60 1 55 61
M  V30 61 1 56 62
M  V30 62 1 59 63
M  V30 63 1 61 64
M  V30 64 1 62 65
M  V30 65 1 63 66
M  V30 66 1 64 67
M  V30 67 1 65 68
M  V30 68 1 67 69
M  V30 69 1 68 70
M  V30 70 1 69 71
M  V30 71 1 69 72
M  V30 72 1 70 73
M  V30 73 1 70 74
M  V30 END BOND
M  V30 END CTAB
M  END
>  <Structure No>
1206

>  <LogS>
-7.323686796

>  <MMFF94 Energy>
-37.573

$$$$
Compound 1207
Actelion Java MolfileCreator 2.0

  0  0  0  0  0  0              0 V3000
M  V30 BEGIN CTAB
M  V30 COUNTS 105 113 0 0 0
M  V30 BEGIN ATOM
M  V30 1 S 0 0 0 0
M  V30 2 O 0 0 0 0
M  V30 3 O 0 0 0 0
M  V30 4 O 0 0 0 0 CHG=-1
M  V30 5 C 0 0 0 0
M  V30 6 C 0 0 0 0
M  V30 7 C 0 0 0 0
M  V30 8 N 0 0 0 0
M  V30 9 C 0 0 0 0
M  V30 10 C 0 0 0 0
M  V30 11 N 0 0 0 0
M  V30 12 O 0 0 0 0
M  V30 13 C 0 0 0 0
M  V30 14 C 0 0 0 0
M  V30 15 C 0 0 0 0
M  V30 16 C 0 0 0 0
M  V30 17 C 0 0 0 0
M  V30 18 C 0 0 0 0
M  V30 19 C 0 0 0 0
M  V30 20 N 0 0 0 0
M  V30 21 C 0 0 0 0
M  V30 22 S 0 0 0 0
M  V30 23 C 0 0 0 0
M  V30 24 C 0 0 0 0
M  V30 25 C 0 0 0 0
M  V30 26 O 0 0 0 0
M  V30 27 O 0 0 0 0
M  V30 28 O 0 0 0 0 CHG=-1
M  V30 29 C 0 0 0 0
M  V30 30 N 0 0 0 0
M  V30 31 N 0 0 0 0
M  V30 32 N 0 0 0 0
M  V30 33 C 0 0 0 0
M  V30 34 C 0 0 0 0
M  V30 35 C 0 0 0 0
M  V30 36 N 0 0 0 0
M  V30 37 N 0 0 0 0
M  V30 38 N 0 0 0 0
M  V30 39 N 0 0 0 0
M  V30 40 N 0 0 0 0
M  V30 41 C 0 0 0 0
M  V30 42 C 0 0 0 0
M  V30 43 C 0 0 0 0
M  V30 44 C 0 0 0 0
M  V30 45 C 0 0 0 0
M  V30 46 C 0 0 0 0
M  V30 47 N 0 0 0 0
M  V30 48 N 0 0 0 0
M  V30 49 N 0 0 0 0
M  V30 50 N 0 0 0 0 CHG=1
M  V30 51 C 0 0 0 0
M  V30 52 N 0 0 0 0 CHG=1
M  V30 53 C 0 0 0 0
M  V30 54 C 0 0 0 0
M  V30 55 C 0 0 0 0
M  V30 56 C 0 0 0 0
M  V30 57 C 0 0 0 0
M  V30 58 C 0 0 0 0
M  V30 59 C 0 0 0 0
M  V30 60 C 0 0 0 0
M  V30 61 C 0 0 0 0
M  V30 62 C 0 0 0 0
M  V30 63 N 0 0 0 0 CHG=1
M  V30 64 N 0 0 0 0
M  V30 65 C 0 0 0 0
M  V30 66 C 0 0 0 0
M  V30 67 N 0 0 0 0
M  V30 68 C 0 0 0 0
M  V30 69 C 0 0 0 0
M  V30 70 C 0 0 0 0
M  V30 71 C 0 0 0 0
M  V30 72 C 0 0 0 0
M  V30 73 O 0 0 0 0
M  V30 74 C 0 0 0 0
M  V30 75 S 0 0 0 0
M  V30 76 C 0 0 0 0
M  V30 77 C 0 0 0 0
M  V30 78 C 0 0 0 0
M  V30 79 O 0 0 0 0
M  V30 80 O 0 0 0 0
M  V30 81 O 0 0 0 0 CHG=-1
M  V30 82 N 0 0 0 0
M  V30 83 C 0 0 0 0
M  V30 84 C 0 0 0 0
M  V30 85 C 0 0 0 0
M  V30 86 C 0 0 0 0
M  V30 87 N 0 0 0 0
M  V30 88 N 0 0 0 0
M  V30 89 S 0 0 0 0
M  V30 90 C 0 0 0 0
M  V30 91 C 0 0 0 0
M  V30 92 O 0 0 0 0
M  V30 93 O 0 0 0 0
M  V30 94 O 0 0 0 0 CHG=-1
M  V30 95 N 0 0 0 0
M  V30 96 N 0 0 0 0
M  V30 97 N 0 0 0 0
M  V30 98 C 0 0 0 0
M  V30 99 C 0 0 0 0
M  V30 100 C 0 0 0 0
M  V30 101 C 0 0 0 0
M  V30 102 N 0 0 0 0 CHG=1
M  V30 103 C 0 0 0 0
M  V30 104 N 0 0 0 0 CHG=1
M  V30 105 C 0 0 0 0
M  V30 END ATOM
M  V30 BEGIN BOND
M  V30 1 2 1 2
M  V30 2 2 1 3
M  V30 3 1 1 4
M  V30 4 1 1 5
M  V30 5 1 5 6
M  V30 6 2 5 7
M  V30 7 1 6 8
M  V30 8 2 6 9
M  V30 9 1 7 10
M  V30 10 2 8 11
M  V30 11 1 9 12
M  V30 12 1 9 13
M  V30 13 2 10 14
M  V30 14 1 11 15
M  V30 15 2 13 16
M  V30 16 1 14 17
M  V30 17 2 15 18
M  V30 18 1 15 19
M  V30 19 1 16 20
M  V30 20 1 16 21
M  V30 21 1 17 22
M  V30 22 1 18 23
M  V30 23 2 19 24
M  V30 24 1 20 25
M  V30 25 2 22 26
M  V30 26 2 22 27
M  V30 27 1 22 28
M  V30 28 2 23 29
M  V30 29 2 25 30
M  V30 30 1 25 31
M  V30 31 1 29 32
M  V30 32 1 30 33
M  V30 33 2 31 34
M  V30 34 1 32 35
M  V30 35 2 33 36
M  V30 36 1 33 37
M  V30 37 1 34 38
M  V30 38 2 35 39
M  V30 39 1 35 40
M  V30 40 1 37 41
M  V30 41 1 38 42
M  V30 42 1 39 43
M  V30 43 2 40 44
M  V30 44 1 41 45
M  V30 45 1 42 46
M  V30 46 2 43 47
M  V30 47 1 43 48
M  V30 48 1 44 49
M  V30 49 1 45 50
M  V30 50 1 45 51
M  V30 51 1 46 52
M  V30 52 1 46 53
M  V30 53 1 48 54
M  V30 54 1 49 55
M  V30 55 2 54 56
M  V30 56 1 54 57
M  V30 57 1 55 58
M  V30 58 1 56 59
M  V30 59 2 57 60
M  V30 60 1 58 61
M  V30 61 2 59 62
M  V30 62 1 61 63
M  V30 63 1 62 64
M  V30 64 1 63 65
M  V30 65 1 63 66
M  V30 66 2 64 67
M  V30 67 1 65 68
M  V30 68 1 66 69
M  V30 69 1 67 70
M  V30 70 2 70 71
M  V30 71 1 70 72
M  V30 72 1 71 73
M  V30 73 1 71 74
M  V30 74 1 72 75
M  V30 75 2 72 76
M  V30 76 2 74 77
M  V30 77 1 74 78
M  V30 78 2 75 79
M  V30 79 2 75 80
M  V30 80 1 75 81
M  V30 81 1 77 82
M  V30 82 1 77 83
M  V30 83 2 78 84
M  V30 84 1 82 85
M  V30 85 2 83 86
M  V30 86 2 85 87
M  V30 87 1 85 88
M  V30 88 1 86 89
M  V30 89 1 87 90
M  V30 90 2 88 91
M  V30 91 2 89 92
M  V30 92 2 89 93
M  V30 93 1 89 94
M  V30 94 2 90 95
M  V30 95 1 90 96
M  V30 96 1 91 97
M  V30 97 1 96 98
M  V30 98 1 97 99
M  V30 99 1 98 100
M  V30 100 1 99 101
M  V30 101 1 100 102
M  V30 102 1 100 103
M  V30 103 1 101 104
M  V30 104 1 101 105
M  V30 105 1 10 13
M  V30 106 2 17 21
M  V30 107 1 24 29
M  V30 108 1 34 36
M  V30 109 1 44 47
M  V30 110 1 60 62
M  V30 111 1 76 78
M  V30 112 1 84 86
M  V30 113 1 91 95
M  V30 END BOND
M  V30 END CTAB
M  END
>  <Structure No>
1207

>  <LogS>
-0.794219043

>  <MMFF94 Energy>
-876.6

$$$$
Compound 1208
Actelion Java MolfileCreator 2.0

  0  0  0  0  0  0              0 V3000
M  V30 BEGIN CTAB
M  V30 COUNTS 68 67 0 0 0
M  V30 BEGIN ATOM
M  V30 1 O -4.4521 2.9663 -1.5604 0
M  V30 2 C -4.3598 2.3822 -0.4454 0
M  V30 3 O -4.4726 3.1097 0.7491 0
M  V30 4 C -4.1176 0.8961 -0.4175 0 CFG=1
M  V30 5 C -4.6093 4.5288 0.7952 0
M  V30 6 N -2.8097 0.588 -1.0075 0
M  V30 7 C -4.2569 0.2977 1.0027 0
M  V30 8 C -3.2743 5.206 0.5029 0
M  V30 9 C -1.5578 1.0555 -0.4796 0
M  V30 10 C -3.9052 -1.1989 1.0879 0
M  V30 11 O -1.5351 1.8251 0.5203 0
M  V30 12 C -0.2691 0.5631 -1.076 0
M  V30 13 C -4.8794 -2.0901 0.3057 0
M  V30 14 C 0.825 1.6388 -1.059 0
M  V30 15 N -4.5504 -3.5056 0.4895 0
M  V30 16 C 2.087 1.1422 -1.7776 0
M  V30 17 C -5.2732 -4.5786 -0.1431 0
M  V30 18 C 3.202 2.2015 -1.8317 0
M  V30 19 N -6.3278 -4.3502 -0.8689 0 CHG=1
M  V30 20 N -4.8167 -5.9226 0.0332 0
M  V30 21 C 3.7617 2.6342 -0.4606 0
M  V30 22 C 4.2496 1.485 0.4407 0
M  V30 23 C 5.3733 0.6571 -0.1994 0
M  V30 24 C 5.8933 -0.4091 0.7732 0
M  V30 25 C 6.9814 -1.2683 0.1123 0
M  V30 26 C 7.601 -2.2866 1.0818 0
M  V30 27 C 6.6278 -3.3997 1.4711 0
M  V30 28 H -4.9072 0.4394 -1.0534 0
M  V30 29 H -4.9386 4.8199 1.8159 0
M  V30 30 H -5.3845 4.8676 0.073 0
M  V30 31 H -2.7946 -0.0364 -1.8462 0
M  V30 32 H -3.5912 0.841 1.7071 0
M  V30 33 H -5.2998 0.4476 1.3601 0
M  V30 34 H -2.9401 4.9732 -0.5297 0
M  V30 35 H -3.3845 6.3067 0.6036 0
M  V30 36 H -2.5057 4.8535 1.2234 0
M  V30 37 H -2.8678 -1.3693 0.7274 0
M  V30 38 H -3.9358 -1.4976 2.1587 0
M  V30 39 H -0.4505 0.2469 -2.1266 0
M  V30 40 H 0.07 -0.3247 -0.4984 0
M  V30 41 H -4.8185 -1.8496 -0.7762 0
M  V30 42 H -5.9135 -1.9037 0.6671 0
M  V30 43 H 0.451 2.5568 -1.5662 0
M  V30 44 H 1.0681 1.8815 -0.0021 0
M  V30 45 H -3.7295 -3.7624 1.0848 0
M  V30 46 H 2.4586 0.211 -1.2988 0
M  V30 47 H 1.8197 0.8829 -2.8255 0
M  V30 48 H 2.8144 3.1042 -2.3541 0
M  V30 49 H 4.0316 1.8131 -2.4596 0
M  V30 50 H -6.8428 -5.139 -1.3209 0
M  V30 51 H -6.6998 -3.3885 -1.0247 0
M  V30 52 H -3.9734 -6.1233 0.6158 0
M  V30 53 H -5.3035 -6.7211 -0.4333 0
M  V30 54 H 2.9873 3.2137 0.0861 0
M  V30 55 H 4.6084 3.3333 -0.6345 0
M  V30 56 H 3.399 0.8266 0.7173 0
M  V30 57 H 4.6287 1.9341 1.385 0
M  V30 58 H 4.9911 0.1492 -1.1099 0
M  V30 59 H 6.2077 1.3309 -0.4941 0
M  V30 60 H 5.0438 -1.0553 1.085 0
M  V30 61 H 6.3111 0.0864 1.6772 0
M  V30 62 H 6.5623 -1.7987 -0.7709 0
M  V30 63 H 7.7929 -0.6003 -0.2511 0
M  V30 64 H 8.481 -2.7519 0.5868 0
M  V30 65 H 7.9648 -1.7732 1.9983 0
M  V30 66 H 5.8227 -3.0062 2.1257 0
M  V30 67 H 7.1735 -4.1908 2.031 0
M  V30 68 H 6.1765 -3.8588 0.5646 0
M  V30 END ATOM
M  V30 BEGIN BOND
M  V30 1 2 1 2
M  V30 2 1 2 3
M  V30 3 1 2 4
M  V30 4 1 3 5
M  V30 5 1 4 6
M  V30 6 1 4 7
M  V30 7 1 5 8
M  V30 8 1 6 9
M  V30 9 1 7 10
M  V30 10 2 9 11
M  V30 11 1 9 12
M  V30 12 1 10 13
M  V30 13 1 12 14
M  V30 14 1 13 15
M  V30 15 1 14 16
M  V30 16 1 15 17
M  V30 17 1 16 18
M  V30 18 2 17 19
M  V30 19 1 17 20
M  V30 20 1 18 21
M  V30 21 1 21 22
M  V30 22 1 22 23
M  V30 23 1 23 24
M  V30 24 1 24 25
M  V30 25 1 25 26
M  V30 26 1 26 27
M  V30 27 1 4 28
M  V30 28 1 5 29
M  V30 29 1 5 30
M  V30 30 1 6 31
M  V30 31 1 7 32
M  V30 32 1 7 33
M  V30 33 1 8 34
M  V30 34 1 8 35
M  V30 35 1 8 36
M  V30 36 1 10 37
M  V30 37 1 10 38
M  V30 38 1 12 39
M  V30 39 1 12 40
M  V30 40 1 13 41
M  V30 41 1 13 42
M  V30 42 1 14 43
M  V30 43 1 14 44
M  V30 44 1 15 45
M  V30 45 1 16 46
M  V30 46 1 16 47
M  V30 47 1 18 48
M  V30 48 1 18 49
M  V30 49 1 19 50
M  V30 50 1 19 51
M  V30 51 1 20 52
M  V30 52 1 20 53
M  V30 53 1 21 54
M  V30 54 1 21 55
M  V30 55 1 22 56
M  V30 56 1 22 57
M  V30 57 1 23 58
M  V30 58 1 23 59
M  V30 59 1 24 60
M  V30 60 1 24 61
M  V30 61 1 25 62
M  V30 62 1 25 63
M  V30 63 1 26 64
M  V30 64 1 26 65
M  V30 65 1 27 66
M  V30 66 1 27 67
M  V30 67 1 27 68
M  V30 END BOND
M  V30 BEGIN COLLECTION
M  V30 MDLV30/STEABS ATOMS=(1 4)
M  V30 END COLLECTION
M  V30 END CTAB
M  END
>  <Structure No>
1208

>  <LogS>
-0.231611963

>  <MMFF94 Energy>
-197.87

$$$$
Compound 1209
Actelion Java MolfileCreator 2.0

  0  0  0  0  0  0              0 V3000
M  V30 BEGIN CTAB
M  V30 COUNTS 37 37 0 0 0
M  V30 BEGIN ATOM
M  V30 1 O 3.154 -0.7089 1.576 0
M  V30 2 C 3.003 -0.6175 0.3271 0
M  V30 3 C 1.6968 -0.2411 -0.247 0
M  V30 4 C 4.1791 -0.851 -0.5734 0
M  V30 5 C 0.6203 -0.0131 0.5139 0
M  V30 6 C 4.8671 0.4663 -0.9132 0
M  V30 7 C -0.7204 0.3557 -0.0881 0 CFG=2
M  V30 8 C -1.3303 1.5464 0.6535 0
M  V30 9 C -1.676 -0.8849 -0.1605 0
M  V30 10 C -2.664 1.6688 0.8264 0
M  V30 11 C -0.4651 2.7252 1.0347 0
M  V30 12 C -3.0863 -0.3952 -0.5686 0
M  V30 13 C -1.1798 -1.8699 -1.2434 0
M  V30 14 C -1.7488 -1.6437 1.191 0
M  V30 15 C -3.6582 0.6086 0.4365 0
M  V30 16 H 1.6176 -0.1511 -1.3239 0
M  V30 17 H 3.8453 -1.3469 -1.5103 0
M  V30 18 H 4.9066 -1.5257 -0.0724 0
M  V30 19 H 0.6863 -0.1171 1.591 0
M  V30 20 H 4.164 1.1438 -1.4434 0
M  V30 21 H 5.2272 0.9633 0.0129 0
M  V30 22 H 5.738 0.2711 -1.5736 0
M  V30 23 H -0.5571 0.7212 -1.1277 0
M  V30 24 H -3.0575 2.5507 1.3255 0
M  V30 25 H -0.8702 3.6568 0.5845 0
M  V30 26 H 0.577 2.6068 0.6733 0
M  V30 27 H -0.4493 2.833 2.1396 0
M  V30 28 H -3.0369 0.0946 -1.5672 0
M  V30 29 H -3.7881 -1.2539 -0.6571 0
M  V30 30 H -1.8786 -2.7288 -1.3404 0
M  V30 31 H -0.1781 -2.2744 -0.9867 0
M  V30 32 H -1.1088 -1.3679 -2.2324 0
M  V30 33 H -0.7952 -2.1724 1.4041 0
M  V30 34 H -2.5566 -2.4065 1.1688 0
M  V30 35 H -1.9434 -0.9486 2.0343 0
M  V30 36 H -3.9973 0.0796 1.3522 0
M  V30 37 H -4.5488 1.0989 -0.0112 0
M  V30 END ATOM
M  V30 BEGIN BOND
M  V30 1 2 1 2
M  V30 2 1 2 3
M  V30 3 1 2 4
M  V30 4 2 3 5
M  V30 5 1 4 6
M  V30 6 1 5 7
M  V30 7 1 7 8
M  V30 8 1 7 9
M  V30 9 2 8 10
M  V30 10 1 8 11
M  V30 11 1 9 12
M  V30 12 1 9 13
M  V30 13 1 9 14
M  V30 14 1 10 15
M  V30 15 1 12 15
M  V30 16 1 3 16
M  V30 17 1 4 17
M  V30 18 1 4 18
M  V30 19 1 5 19
M  V30 20 1 6 20
M  V30 21 1 6 21
M  V30 22 1 6 22
M  V30 23 1 7 23
M  V30 24 1 10 24
M  V30 25 1 11 25
M  V30 26 1 11 26
M  V30 27 1 11 27
M  V30 28 1 12 28
M  V30 29 1 12 29
M  V30 30 1 13 30
M  V30 31 1 13 31
M  V30 32 1 13 32
M  V30 33 1 14 33
M  V30 34 1 14 34
M  V30 35 1 14 35
M  V30 36 1 15 36
M  V30 37 1 15 37
M  V30 END BOND
M  V30 BEGIN COLLECTION
M  V30 MDLV30/STEABS ATOMS=(1 7)
M  V30 END COLLECTION
M  V30 END CTAB
M  END
>  <Structure No>
1209

>  <LogS>
-3.992340979

>  <MMFF94 Energy>
33.201

$$$$
Compound 1210
Actelion Java MolfileCreator 2.0

  0  0  0  0  0  0              0 V3000
M  V30 BEGIN CTAB
M  V30 COUNTS 37 37 0 0 0
M  V30 BEGIN ATOM
M  V30 1 O 3.394 -1.104 1.8143 0
M  V30 2 C 3.2685 -0.3467 0.8129 0
M  V30 3 C 1.9097 -0.0163 0.2939 0
M  V30 4 C 4.5128 0.1707 0.1555 0
M  V30 5 C 0.8642 -0.0619 1.1579 0
M  V30 6 C 1.7873 0.4499 -1.1359 0
M  V30 7 C -0.6185 0.2284 0.922 0 CFG=1
M  V30 8 C -0.8775 1.3823 -0.0361 0
M  V30 9 C -1.4949 -1.0409 0.6206 0
M  V30 10 C -1.4512 1.1947 -1.2434 0
M  V30 11 C -0.4917 2.78 0.375 0
M  V30 12 C -1.49 -1.3372 -0.8954 0
M  V30 13 C -0.9747 -2.29 1.3727 0
M  V30 14 C -2.9504 -0.7926 1.097 0
M  V30 15 C -1.9623 -0.1381 -1.7336 0
M  V30 16 H 4.3624 1.216 -0.1878 0
M  V30 17 H 4.7749 -0.4728 -0.7096 0
M  V30 18 H 5.359 0.1617 0.875 0
M  V30 19 H 1.0756 -0.367 2.1773 0
M  V30 20 H 0.8969 0.0364 -1.6312 0
M  V30 21 H 2.6454 0.1008 -1.7452 0
M  V30 22 H 1.7653 1.5576 -1.1722 0
M  V30 23 H -0.9683 0.6007 1.9119 0
M  V30 24 H -1.628 2.0545 -1.8843 0
M  V30 25 H 0.1946 3.2252 -0.375 0
M  V30 26 H 0.0193 2.7796 1.3609 0
M  V30 27 H -1.4022 3.4113 0.4506 0
M  V30 28 H -0.4716 -1.6393 -1.2155 0
M  V30 29 H -2.1502 -2.2048 -1.1174 0
M  V30 30 H -1.6588 -3.1531 1.2212 0
M  V30 31 H 0.0292 -2.5928 1.0054 0
M  V30 32 H -0.9058 -2.0879 2.4635 0
M  V30 33 H -2.9885 -0.6932 2.2035 0
M  V30 34 H -3.6115 -1.6372 0.8056 0
M  V30 35 H -3.3682 0.1404 0.6644 0
M  V30 36 H -1.6341 -0.2825 -2.7849 0
M  V30 37 H -3.0727 -0.1048 -1.7372 0
M  V30 END ATOM
M  V30 BEGIN BOND
M  V30 1 2 1 2
M  V30 2 1 2 3
M  V30 3 1 2 4
M  V30 4 2 3 5
M  V30 5 1 3 6
M  V30 6 1 5 7
M  V30 7 1 7 8
M  V30 8 1 7 9
M  V30 9 2 8 10
M  V30 10 1 8 11
M  V30 11 1 9 12
M  V30 12 1 9 13
M  V30 13 1 9 14
M  V30 14 1 10 15
M  V30 15 1 12 15
M  V30 16 1 4 16
M  V30 17 1 4 17
M  V30 18 1 4 18
M  V30 19 1 5 19
M  V30 20 1 6 20
M  V30 21 1 6 21
M  V30 22 1 6 22
M  V30 23 1 7 23
M  V30 24 1 10 24
M  V30 25 1 11 25
M  V30 26 1 11 26
M  V30 27 1 11 27
M  V30 28 1 12 28
M  V30 29 1 12 29
M  V30 30 1 13 30
M  V30 31 1 13 31
M  V30 32 1 13 32
M  V30 33 1 14 33
M  V30 34 1 14 34
M  V30 35 1 14 35
M  V30 36 1 15 36
M  V30 37 1 15 37
M  V30 END BOND
M  V30 BEGIN COLLECTION
M  V30 MDLV30/STEABS ATOMS=(1 7)
M  V30 END COLLECTION
M  V30 END CTAB
M  END
>  <Structure No>
1210

>  <LogS>
-3.992340979

>  <MMFF94 Energy>
41.915

$$$$
Compound 1211
Actelion Java MolfileCreator 2.0

  0  0  0  0  0  0              0 V3000
M  V30 BEGIN CTAB
M  V30 COUNTS 36 36 0 0 0
M  V30 BEGIN ATOM
M  V30 1 O -1.8954 -2.4487 1.8954 0
M  V30 2 C -1.5082 -2.3292 0.7014 0
M  V30 3 O -0.6357 -1.3016 0.3289 0
M  V30 4 C -1.9357 -3.3297 -0.317 0
M  V30 5 C -0.1837 -0.2825 1.2223 0 CFG=1
M  V30 6 C 1.0726 0.4228 0.6501 0 CFG=1
M  V30 7 C -1.3067 0.7473 1.4596 0
M  V30 8 C 2.3017 -0.5371 0.5199 0
M  V30 9 C 0.7245 1.1774 -0.6542 0
M  V30 10 C -1.6528 1.5126 0.1661 0 CFG=2
M  V30 11 C 2.2973 -1.4153 -0.7449 0
M  V30 12 C 3.6238 0.2436 0.5952 0
M  V30 13 C -0.3986 2.1946 -0.4135 0
M  V30 14 C -2.7515 2.5471 0.4321 0
M  V30 15 H -1.2634 -4.2113 -0.2733 0
M  V30 16 H -1.884 -2.8817 -1.3313 0
M  V30 17 H -2.9798 -3.6529 -0.1204 0
M  V30 18 H 0.0859 -0.7405 2.2004 0
M  V30 19 H 1.3517 1.1947 1.4044 0
M  V30 20 H -0.9831 1.4646 2.2466 0
M  V30 21 H -2.213 0.2279 1.839 0
M  V30 22 H 2.296 -1.2238 1.3954 0
M  V30 23 H 0.396 0.4645 -1.4411 0
M  V30 24 H 1.6171 1.7197 -1.031 0
M  V30 25 H -2.0444 0.7897 -0.5844 0
M  V30 26 H 3.1499 -2.1266 -0.7102 0
M  V30 27 H 1.3729 -2.019 -0.8197 0
M  V30 28 H 2.4056 -0.7983 -1.6616 0
M  V30 29 H 3.6777 0.8256 1.54 0
M  V30 30 H 4.485 -0.4581 0.5823 0
M  V30 31 H 3.7243 0.9407 -0.2628 0
M  V30 32 H -0.0369 2.984 0.2825 0
M  V30 33 H -0.6527 2.6823 -1.3798 0
M  V30 34 H -3.6643 2.0445 0.8174 0
M  V30 35 H -2.4128 3.2974 1.1786 0
M  V30 36 H -3.0175 3.0728 -0.5096 0
M  V30 END ATOM
M  V30 BEGIN BOND
M  V30 1 2 1 2
M  V30 2 1 2 3
M  V30 3 1 2 4
M  V30 4 1 3 5
M  V30 5 1 5 6
M  V30 6 1 5 7
M  V30 7 1 6 8
M  V30 8 1 6 9
M  V30 9 1 7 10
M  V30 10 1 8 11
M  V30 11 1 8 12
M  V30 12 1 9 13
M  V30 13 1 10 14
M  V30 14 1 10 13
M  V30 15 1 4 15
M  V30 16 1 4 16
M  V30 17 1 4 17
M  V30 18 1 5 18
M  V30 19 1 6 19
M  V30 20 1 7 20
M  V30 21 1 7 21
M  V30 22 1 8 22
M  V30 23 1 9 23
M  V30 24 1 9 24
M  V30 25 1 10 25
M  V30 26 1 11 26
M  V30 27 1 11 27
M  V30 28 1 11 28
M  V30 29 1 12 29
M  V30 30 1 12 30
M  V30 31 1 12 31
M  V30 32 1 13 32
M  V30 33 1 13 33
M  V30 34 1 14 34
M  V30 35 1 14 35
M  V30 36 1 14 36
M  V30 END BOND
M  V30 BEGIN COLLECTION
M  V30 MDLV30/STEABS ATOMS=(3 5 6 10)
M  V30 END COLLECTION
M  V30 END CTAB
M  END
>  <Structure No>
1211

>  <LogS>
-3.97511656

>  <MMFF94 Energy>
8.5386

$$$$
Compound 1212
Actelion Java MolfileCreator 2.0

  0  0  0  0  0  0              0 V3000
M  V30 BEGIN CTAB
M  V30 COUNTS 36 36 0 0 0
M  V30 BEGIN ATOM
M  V30 1 O -3.1738 -0.317 2.1414 0
M  V30 2 C -3.6316 -0.8688 1.1045 0
M  V30 3 N -2.7473 -1.4221 0.1175 0
M  V30 4 C -5.1135 -0.9436 0.9052 0
M  V30 5 C -1.3279 -1.1975 0.0926 0
M  V30 6 C -5.5634 0.1681 2.0E-4 0
M  V30 7 C -0.7748 0.0396 0.4646 0
M  V30 8 C -0.48 -2.2089 -0.3792 0
M  V30 9 O -5.7563 1.2812 0.4646 0
M  V30 10 C -5.7509 -0.0553 -1.4702 0
M  V30 11 C 0.6071 0.2426 0.4069 0
M  V30 12 C 0.9017 -2.0074 -0.4336 0
M  V30 13 C 1.4605 -0.7897 -0.0201 0
M  V30 14 N 2.8836 -0.6022 -0.1077 0
M  V30 15 C 3.6478 0.219 0.7895 0
M  V30 16 O 3.1328 0.6654 1.8502 0
M  V30 17 C 5.0762 0.5419 0.4744 0
M  V30 18 C 5.1423 1.5967 -0.5947 0
M  V30 19 O 4.9413 1.2858 -1.7586 0
M  V30 20 C 5.4378 3.0287 -0.2597 0
M  V30 21 H -3.1509 -2.0883 -0.5787 0
M  V30 22 H -5.3791 -1.9305 0.4695 0
M  V30 23 H -5.6374 -0.865 1.8829 0
M  V30 24 H -1.4108 0.8618 0.7646 0
M  V30 25 H -0.891 -3.1587 -0.697 0
M  V30 26 H -6.8074 0.1441 -1.746 0
M  V30 27 H -5.4965 -1.0983 -1.7535 0
M  V30 28 H -5.0904 0.6343 -2.0358 0
M  V30 29 H 1.0005 1.2168 0.6634 0
M  V30 30 H 1.54 -2.8044 -0.7931 0
M  V30 31 H 3.4081 -1.1582 -0.8209 0
M  V30 32 H 5.5933 0.8891 1.3952 0
M  V30 33 H 5.6019 -0.3738 0.1288 0
M  V30 34 H 4.5982 3.6692 -0.6009 0
M  V30 35 H 6.3696 3.3459 -0.7727 0
M  V30 36 H 5.5665 3.1688 0.834 0
M  V30 END ATOM
M  V30 BEGIN BOND
M  V30 1 2 1 2
M  V30 2 1 2 3
M  V30 3 1 2 4
M  V30 4 1 3 5
M  V30 5 1 4 6
M  V30 6 2 5 7
M  V30 7 1 5 8
M  V30 8 2 6 9
M  V30 9 1 6 10
M  V30 10 1 7 11
M  V30 11 2 8 12
M  V30 12 2 11 13
M  V30 13 1 13 14
M  V30 14 1 14 15
M  V30 15 2 15 16
M  V30 16 1 15 17
M  V30 17 1 17 18
M  V30 18 2 18 19
M  V30 19 1 18 20
M  V30 20 1 12 13
M  V30 21 1 3 21
M  V30 22 1 4 22
M  V30 23 1 4 23
M  V30 24 1 7 24
M  V30 25 1 8 25
M  V30 26 1 10 26
M  V30 27 1 10 27
M  V30 28 1 10 28
M  V30 29 1 11 29
M  V30 30 1 12 30
M  V30 31 1 14 31
M  V30 32 1 17 32
M  V30 33 1 17 33
M  V30 34 1 20 34
M  V30 35 1 20 35
M  V30 36 1 20 36
M  V30 END BOND
M  V30 END CTAB
M  END
>  <Structure No>
1212

>  <LogS>
-3.12750109

>  <MMFF94 Energy>
-33.378

$$$$
Compound 1213
Actelion Java MolfileCreator 2.0

  0  0  0  0  0  0              0 V3000
M  V30 BEGIN CTAB
M  V30 COUNTS 56 55 0 0 0
M  V30 BEGIN ATOM
M  V30 1 O 3.1165 -2.4926 -0.5448 0
M  V30 2 C 2.0703 -1.934 -0.1137 0
M  V30 3 O 2.1316 -0.6893 0.5246 0
M  V30 4 C 0.7483 -2.6184 -0.2554 0
M  V30 5 C 3.3286 0.0768 0.6405 0
M  V30 6 C 0.2604 -3.1299 1.1064 0
M  V30 7 C 3.6456 0.7668 -0.7043 0
M  V30 8 C -1.0449 -3.9418 1.0126 0
M  V30 9 N 4.868 1.6276 -0.7075 0 CHG=1
M  V30 10 C -2.2429 -3.179 0.4177 0
M  V30 11 C 6.0848 0.834 -0.4101 0
M  V30 12 C 4.7475 2.7403 0.266 0
M  V30 13 C 5.012 2.2103 -2.0646 0
M  V30 14 C -2.6011 -1.9114 1.2133 0
M  V30 15 C -3.9184 -1.2738 0.7463 0
M  V30 16 C -3.8252 -0.7044 -0.6819 0
M  V30 17 C -5.035 0.1867 -1.0347 0
M  V30 18 C -4.725 1.6928 -0.9754 0
M  V30 19 C -4.4278 2.1862 0.4477 0
M  V30 20 C -4.2712 3.7045 0.4821 0
M  V30 21 H 0.0278 -1.8831 -0.6707 0
M  V30 22 H 0.836 -3.4671 -0.9687 0
M  V30 23 H 3.1559 0.8382 1.4266 0
M  V30 24 H 4.1566 -0.5841 0.9698 0
M  V30 25 H 1.0413 -3.7928 1.5403 0
M  V30 26 H 0.1302 -2.2794 1.8098 0
M  V30 27 H 2.7538 1.3736 -0.9846 0
M  V30 28 H 3.7408 -0.0243 -1.4818 0
M  V30 29 H -1.3147 -4.2949 2.0319 0
M  V30 30 H -0.8609 -4.847 0.3941 0
M  V30 31 H -3.1176 -3.8659 0.4207 0
M  V30 32 H -2.0324 -2.9242 -0.6419 0
M  V30 33 H 7.0059 1.4408 -0.5638 0
M  V30 34 H 6.1032 0.4929 0.647 0
M  V30 35 H 6.1492 -0.0602 -1.0688 0
M  V30 36 H 3.7908 3.2924 0.1258 0
M  V30 37 H 5.5835 3.4662 0.1488 0
M  V30 38 H 4.7916 2.3748 1.3145 0
M  V30 39 H 5.9115 2.8632 -2.1331 0
M  V30 40 H 4.1258 2.8305 -2.3304 0
M  V30 41 H 5.116 1.4124 -2.8347 0
M  V30 42 H -1.7881 -1.1589 1.1251 0
M  V30 43 H -2.7056 -2.1761 2.2889 0
M  V30 44 H -4.1725 -0.4609 1.4591 0
M  V30 45 H -4.7388 -2.0236 0.797 0
M  V30 46 H -3.8008 -1.556 -1.3963 0
M  V30 47 H -2.8746 -0.1416 -0.8132 0
M  V30 48 H -5.3443 -0.0448 -2.0781 0
M  V30 49 H -5.9107 -0.0472 -0.3891 0
M  V30 50 H -5.6099 2.2397 -1.3698 0
M  V30 51 H -3.8642 1.924 -1.6412 0
M  V30 52 H -3.4839 1.7301 0.8166 0
M  V30 53 H -5.2572 1.8945 1.1288 0
M  V30 54 H -5.2089 4.1971 0.1452 0
M  V30 55 H -3.433 4.0216 -0.1755 0
M  V30 56 H -4.0515 4.0327 1.5209 0
M  V30 END ATOM
M  V30 BEGIN BOND
M  V30 1 2 1 2
M  V30 2 1 2 3
M  V30 3 1 2 4
M  V30 4 1 3 5
M  V30 5 1 4 6
M  V30 6 1 5 7
M  V30 7 1 6 8
M  V30 8 1 7 9
M  V30 9 1 8 10
M  V30 10 1 9 11
M  V30 11 1 9 12
M  V30 12 1 9 13
M  V30 13 1 10 14
M  V30 14 1 14 15
M  V30 15 1 15 16
M  V30 16 1 16 17
M  V30 17 1 17 18
M  V30 18 1 18 19
M  V30 19 1 19 20
M  V30 20 1 4 21
M  V30 21 1 4 22
M  V30 22 1 5 23
M  V30 23 1 5 24
M  V30 24 1 6 25
M  V30 25 1 6 26
M  V30 26 1 7 27
M  V30 27 1 7 28
M  V30 28 1 8 29
M  V30 29 1 8 30
M  V30 30 1 10 31
M  V30 31 1 10 32
M  V30 32 1 11 33
M  V30 33 1 11 34
M  V30 34 1 11 35
M  V30 35 1 12 36
M  V30 36 1 12 37
M  V30 37 1 12 38
M  V30 38 1 13 39
M  V30 39 1 13 40
M  V30 40 1 13 41
M  V30 41 1 14 42
M  V30 42 1 14 43
M  V30 43 1 15 44
M  V30 44 1 15 45
M  V30 45 1 16 46
M  V30 46 1 16 47
M  V30 47 1 17 48
M  V30 48 1 17 49
M  V30 49 1 18 50
M  V30 50 1 18 51
M  V30 51 1 19 52
M  V30 52 1 19 53
M  V30 53 1 20 54
M  V30 54 1 20 55
M  V30 55 1 20 56
M  V30 END BOND
M  V30 END CTAB
M  END
>  <Structure No>
1213

>  <LogS>
-2.211100306

>  <MMFF94 Energy>
22.529

$$$$
Compound 1214
Actelion Java MolfileCreator 2.0

  0  0  0  0  0  0              0 V3000
M  V30 BEGIN CTAB
M  V30 COUNTS 28 29 0 0 0
M  V30 BEGIN ATOM
M  V30 1 O 0.1591 -0.0795 -1.8318 0
M  V30 2 C 0.7833 0.3857 -0.8382 0
M  V30 3 O 0.2279 1.4283 -0.0851 0
M  V30 4 C 2.1044 -0.1664 -0.4669 0
M  V30 5 C -1.0635 1.9776 -0.3379 0
M  V30 6 C 2.7993 0.342 0.6457 0
M  V30 7 C 2.6847 -1.2078 -1.2161 0
M  V30 8 C -2.1359 1.0061 0.0736 0
M  V30 9 C 4.0475 -0.1799 0.9994 0
M  V30 10 C 3.9333 -1.7259 -0.8576 0
M  V30 11 C -2.3123 0.6913 1.4309 0
M  V30 12 C -2.9494 0.3855 -0.8893 0
M  V30 13 C 4.6139 -1.2127 0.2487 0
M  V30 14 C -3.2945 -0.2252 1.8194 0
M  V30 15 C -3.9304 -0.5305 -0.4966 0
M  V30 16 C -4.1034 -0.8352 0.8566 0
M  V30 17 H -1.1753 2.9091 0.2563 0
M  V30 18 H -1.1533 2.2585 -1.4103 0
M  V30 19 H 2.3801 1.1418 1.2433 0
M  V30 20 H 2.1754 -1.6216 -2.0774 0
M  V30 21 H 4.5759 0.2166 1.8569 0
M  V30 22 H 4.373 -2.5265 -1.4384 0
M  V30 23 H -1.6882 1.1543 2.1855 0
M  V30 24 H -2.8237 0.6078 -1.9417 0
M  V30 25 H 5.5802 -1.6153 0.5245 0
M  V30 26 H -3.4274 -0.4639 2.8668 0
M  V30 27 H -4.5555 -1.0058 -1.2416 0
M  V30 28 H -4.8627 -1.545 1.1586 0
M  V30 END ATOM
M  V30 BEGIN BOND
M  V30 1 2 1 2
M  V30 2 1 2 3
M  V30 3 1 2 4
M  V30 4 1 3 5
M  V30 5 2 4 6
M  V30 6 1 4 7
M  V30 7 1 5 8
M  V30 8 1 6 9
M  V30 9 2 7 10
M  V30 10 2 8 11
M  V30 11 1 8 12
M  V30 12 2 9 13
M  V30 13 1 11 14
M  V30 14 2 12 15
M  V30 15 2 14 16
M  V30 16 1 10 13
M  V30 17 1 15 16
M  V30 18 1 5 17
M  V30 19 1 5 18
M  V30 20 1 6 19
M  V30 21 1 7 20
M  V30 22 1 9 21
M  V30 23 1 10 22
M  V30 24 1 11 23
M  V30 25 1 12 24
M  V30 26 1 13 25
M  V30 27 1 14 26
M  V30 28 1 15 27
M  V30 29 1 16 28
M  V30 END BOND
M  V30 END CTAB
M  END
>  <Structure No>
1214

>  <LogS>
-4.177624494

>  <MMFF94 Energy>
47.04

$$$$
Compound 1215
Actelion Java MolfileCreator 2.0

  0  0  0  0  0  0              0 V3000
M  V30 BEGIN CTAB
M  V30 COUNTS 25 26 0 0 0
M  V30 BEGIN ATOM
M  V30 1 S -0.082 1.6426 0.082 0
M  V30 2 O -0.5668 2.4218 1.2732 0
M  V30 3 O 0.3102 2.6232 -0.9882 0
M  V30 4 C -1.363 0.5912 -0.5083 0
M  V30 5 C 1.3055 0.6597 0.5327 0
M  V30 6 C -2.303 0.0555 0.3841 0
M  V30 7 C -1.4294 0.2562 -1.8685 0
M  V30 8 C 2.2896 0.3515 -0.4176 0
M  V30 9 C 1.4161 0.1512 1.8351 0
M  V30 10 C -3.3093 -0.7957 -0.0834 0
M  V30 11 C -2.4368 -0.5953 -2.3333 0
M  V30 12 C 3.3823 -0.4461 -0.0631 0
M  V30 13 C 2.5098 -0.6462 2.1868 0
M  V30 14 C -3.3772 -1.1198 -1.4416 0
M  V30 15 C 3.4934 -0.9434 1.2387 0
M  V30 16 H -2.2549 0.2928 1.4394 0
M  V30 17 H -0.7014 0.6495 -2.5665 0
M  V30 18 H 2.2093 0.724 -1.4309 0
M  V30 19 H 0.6561 0.3678 2.5751 0
M  V30 20 H -4.0346 -1.2062 0.6072 0
M  V30 21 H -2.4867 -0.8508 -3.3839 0
M  V30 22 H 4.1413 -0.681 -0.7981 0
M  V30 23 H 2.5936 -1.0358 3.1931 0
M  V30 24 H -4.1557 -1.7796 -1.8023 0
M  V30 25 H 4.3389 -1.5615 1.5116 0
M  V30 END ATOM
M  V30 BEGIN BOND
M  V30 1 2 1 2
M  V30 2 2 1 3
M  V30 3 1 1 4
M  V30 4 1 1 5
M  V30 5 2 4 6
M  V30 6 1 4 7
M  V30 7 2 5 8
M  V30 8 1 5 9
M  V30 9 1 6 10
M  V30 10 2 7 11
M  V30 11 1 8 12
M  V30 12 2 9 13
M  V30 13 2 10 14
M  V30 14 2 12 15
M  V30 15 1 11 14
M  V30 16 1 13 15
M  V30 17 1 6 16
M  V30 18 1 7 17
M  V30 19 1 8 18
M  V30 20 1 9 19
M  V30 21 1 10 20
M  V30 22 1 11 21
M  V30 23 1 12 22
M  V30 24 1 13 23
M  V30 25 1 14 24
M  V30 26 1 15 25
M  V30 END BOND
M  V30 END CTAB
M  END
>  <Structure No>
1215

>  <LogS>
-4.192879941

>  <MMFF94 Energy>
85.437

$$$$
Compound 1216
Actelion Java MolfileCreator 2.0

  0  0  0  0  0  0              0 V3000
M  V30 BEGIN CTAB
M  V30 COUNTS 21 21 0 0 0
M  V30 BEGIN ATOM
M  V30 1 O 0.7882 -1.498 -1.9715 0
M  V30 2 C 1.0898 -0.7597 -0.9959 0
M  V30 3 N 0.0535 -0.312 -0.1009 0
M  V30 4 C 2.5022 -0.367 -0.8266 0
M  V30 5 C -1.0081 -1.2253 0.3291 0
M  V30 6 C 0.0118 1.0649 0.3998 0
M  V30 7 C 3.024 -0.0339 0.3519 0
M  V30 8 C -2.362 -0.516 0.223 0
M  V30 9 C -1.4185 1.6014 0.2854 0
M  V30 10 O -2.3369 0.7223 0.9097 0
M  V30 11 H 3.1587 -0.4195 -1.6866 0
M  V30 12 H -1.0259 -2.1474 -0.2911 0
M  V30 13 H -0.8267 -1.5197 1.3852 0
M  V30 14 H 0.3222 1.0796 1.4665 0
M  V30 15 H 0.6937 1.7216 -0.1834 0
M  V30 16 H 4.0739 0.2179 0.4239 0
M  V30 17 H 2.4325 -0.0397 1.2571 0
M  V30 18 H -3.1391 -1.1607 0.6851 0
M  V30 19 H -2.645 -0.3765 -0.8454 0
M  V30 20 H -1.4712 2.5872 0.794 0
M  V30 21 H -1.6868 1.7693 -0.7827 0
M  V30 END ATOM
M  V30 BEGIN BOND
M  V30 1 2 1 2
M  V30 2 1 2 3
M  V30 3 1 2 4
M  V30 4 1 3 5
M  V30 5 1 3 6
M  V30 6 2 4 7
M  V30 7 1 5 8
M  V30 8 1 6 9
M  V30 9 1 8 10
M  V30 10 1 9 10
M  V30 11 1 4 11
M  V30 12 1 5 12
M  V30 13 1 5 13
M  V30 14 1 6 14
M  V30 15 1 6 15
M  V30 16 1 7 16
M  V30 17 1 7 17
M  V30 18 1 8 18
M  V30 19 1 8 19
M  V30 20 1 9 20
M  V30 21 1 9 21
M  V30 END BOND
M  V30 END CTAB
M  END
>  <Structure No>
1216

>  <LogS>
0.850257585

>  <MMFF94 Energy>
33.724

$$$$
Compound 1217
Actelion Java MolfileCreator 2.0

  0  0  0  0  0  0              0 V3000
M  V30 BEGIN CTAB
M  V30 COUNTS 16 15 0 0 0
M  V30 BEGIN ATOM
M  V30 1 O 1.2208 -1.1444 -0.3813 0
M  V30 2 C 0.3062 -0.4873 0.4771 0
M  V30 3 C 2.3325 -0.3168 -0.6447 0
M  V30 4 C -0.8163 0.1758 -0.3406 0 CFG=1
M  V30 5 O -1.4408 -0.7598 -1.1838 0
M  V30 6 C -1.8481 0.8463 0.5726 0
M  V30 7 H 0.7885 0.263 1.1494 0
M  V30 8 H -0.1406 -1.2542 1.1458 0
M  V30 9 H 2.0225 0.66 -1.0773 0
M  V30 10 H 2.9339 -0.1592 0.2776 0
M  V30 11 H 2.9822 -0.8227 -1.3879 0
M  V30 12 H -0.3686 0.9666 -0.9795 0
M  V30 13 H -1.8424 -1.4624 -0.6078 0
M  V30 14 H -1.3623 1.636 1.1846 0
M  V30 15 H -2.315 0.1002 1.251 0
M  V30 16 H -2.6441 1.3176 -0.0421 0
M  V30 END ATOM
M  V30 BEGIN BOND
M  V30 1 1 1 2
M  V30 2 1 1 3
M  V30 3 1 2 4
M  V30 4 1 4 5
M  V30 5 1 4 6
M  V30 6 1 2 7
M  V30 7 1 2 8
M  V30 8 1 3 9
M  V30 9 1 3 10
M  V30 10 1 3 11
M  V30 11 1 4 12
M  V30 12 1 5 13
M  V30 13 1 6 14
M  V30 14 1 6 15
M  V30 15 1 6 16
M  V30 END BOND
M  V30 BEGIN COLLECTION
M  V30 MDLV30/STEABS ATOMS=(1 4)
M  V30 END COLLECTION
M  V30 END CTAB
M  END
>  <Structure No>
1217

>  <LogS>
1.045169179

>  <MMFF94 Energy>
22.696

$$$$
Compound 1218
Actelion Java MolfileCreator 2.0

  0  0  0  0  0  0              0 V3000
M  V30 BEGIN CTAB
M  V30 COUNTS 35 38 0 0 0
M  V30 BEGIN ATOM
M  V30 1 O 5.3447 -1.0672 -1.0672 0
M  V30 2 C 4.1391 -0.8469 -0.777 0
M  V30 3 C 3.2431 -1.9173 -0.6806 0
M  V30 4 C 3.708 0.4679 -0.5543 0
M  V30 5 C 1.9056 -1.6848 -0.3602 0
M  V30 6 C 2.3761 0.7458 -0.2303 0
M  V30 7 O 1.0544 -2.694 -0.2693 0
M  V30 8 C 1.442 -0.2982 -0.122 0
M  V30 9 C -0.2283 -2.5254 0.0316 0
M  V30 10 C 0.0846 -0.1028 0.1951 0
M  V30 11 C -0.765 -1.2324 0.2764 0
M  V30 12 C -1.0558 -3.6518 0.105 0
M  V30 13 C -0.436 1.2625 0.4528 0
M  V30 14 C -2.1363 -1.1151 0.5892 0
M  V30 15 C -2.4099 -3.5154 0.4169 0
M  V30 16 C -0.9613 2.0916 -0.5776 0
M  V30 17 C -0.3959 1.7341 1.7749 0
M  V30 18 C -2.9477 -2.2501 0.6578 0
M  V30 19 O -3.2229 -4.6398 0.4869 0 CHG=-1
M  V30 20 C -1.04 1.6673 -2.0034 0
M  V30 21 C -1.4297 3.3751 -0.2334 0
M  V30 22 C -0.8662 3.0083 2.0885 0
M  V30 23 O -0.6514 0.5285 -2.3727 0
M  V30 24 O -1.5521 2.5341 -2.9624 0 CHG=-1
M  V30 25 C -1.3819 3.8268 1.0866 0
M  V30 26 H 3.5865 -2.9298 -0.8552 0
M  V30 27 H 4.4133 1.2861 -0.6334 0
M  V30 28 H 2.0876 1.7765 -0.0687 0
M  V30 29 H -0.6449 -4.6362 -0.0814 0
M  V30 30 H -2.5906 -0.1515 0.7806 0
M  V30 31 H 0.0026 1.1097 2.5653 0
M  V30 32 H -3.998 -2.1455 0.8987 0
M  V30 33 H -1.8374 4.0379 -0.9861 0
M  V30 34 H -0.8306 3.3618 3.1109 0
M  V30 35 H -1.7464 4.8158 1.3328 0
M  V30 END ATOM
M  V30 BEGIN BOND
M  V30 1 2 1 2
M  V30 2 1 2 3
M  V30 3 1 2 4
M  V30 4 2 3 5
M  V30 5 2 4 6
M  V30 6 1 5 7
M  V30 7 1 5 8
M  V30 8 1 7 9
M  V30 9 2 8 10
M  V30 10 2 9 11
M  V30 11 1 9 12
M  V30 12 1 10 13
M  V30 13 1 11 14
M  V30 14 2 12 15
M  V30 15 2 13 16
M  V30 16 1 13 17
M  V30 17 2 14 18
M  V30 18 1 15 19
M  V30 19 1 16 20
M  V30 20 1 16 21
M  V30 21 2 17 22
M  V30 22 2 20 23
M  V30 23 1 20 24
M  V30 24 2 21 25
M  V30 25 1 6 8
M  V30 26 1 10 11
M  V30 27 1 15 18
M  V30 28 1 22 25
M  V30 29 1 3 26
M  V30 30 1 4 27
M  V30 31 1 6 28
M  V30 32 1 12 29
M  V30 33 1 14 30
M  V30 34 1 17 31
M  V30 35 1 18 32
M  V30 36 1 21 33
M  V30 37 1 22 34
M  V30 38 1 25 35
M  V30 END BOND
M  V30 END CTAB
M  END
>  <Structure No>
1218

>  <LogS>
-1.575505364

>  <MMFF94 Energy>
102.46

$$$$
Compound 1219
Actelion Java MolfileCreator 2.0

  0  0  0  0  0  0              0 V3000
M  V30 BEGIN CTAB
M  V30 COUNTS 8 7 0 0 0
M  V30 BEGIN ATOM
M  V30 1 S 1.2846 0.0 1.2846 0
M  V30 2 C 0.1154 -0.6148 0.0363 0
M  V30 3 C -0.9101 0.4291 -0.2578 0
M  V30 4 O -1.9503 0.5113 0.4467 0
M  V30 5 O -0.697 1.3451 -1.2801 0 CHG=-1
M  V30 6 H 1.8046 0.9871 0.4252 0
M  V30 7 H 0.6681 -0.874 -0.891 0
M  V30 8 H -0.3782 -1.5319 0.4214 0
M  V30 END ATOM
M  V30 BEGIN BOND
M  V30 1 1 1 2
M  V30 2 1 2 3
M  V30 3 2 3 4
M  V30 4 1 3 5
M  V30 5 1 1 6
M  V30 6 1 2 7
M  V30 7 1 2 8
M  V30 END BOND
M  V30 END CTAB
M  END
>  <Structure No>
1219

>  <LogS>
-1.964349215

>  <MMFF94 Energy>
39.221

$$$$
Compound 1220
Actelion Java MolfileCreator 2.0

  0  0  0  0  0  0              0 V3000
M  V30 BEGIN CTAB
M  V30 COUNTS 32 31 0 0 0
M  V30 BEGIN ATOM
M  V30 1 O 4.5964 2.2571 -0.4666 0
M  V30 2 C 4.0798 1.2287 -0.0612 0
M  V30 3 C 2.6356 0.9459 -0.3656 0
M  V30 4 C 2.1847 -0.4439 0.1441 0 CFG=1
M  V30 5 C 0.6491 -0.6127 0.046 0
M  V30 6 C 2.8719 -1.5634 -0.6571 0
M  V30 7 C -0.1181 0.2524 1.0637 0
M  V30 8 C -1.5859 -0.1838 1.2601 0
M  V30 9 C -2.5116 -0.0717 0.0158 0
M  V30 10 O -2.1077 -1.0197 -0.9434 0
M  V30 11 C -2.4672 1.3478 -0.59 0
M  V30 12 C -3.9557 -0.391 0.453 0
M  V30 13 H 4.6751 0.534 0.5229 0
M  V30 14 H 2.4716 1.0162 -1.4632 0
M  V30 15 H 2.0398 1.7462 0.1177 0
M  V30 16 H 2.4857 -0.5566 1.2099 0
M  V30 17 H 0.3215 -0.3592 -0.985 0
M  V30 18 H 0.3929 -1.6787 0.235 0
M  V30 19 H 2.5922 -1.5039 -1.7309 0
M  V30 20 H 2.5703 -2.5579 -0.2646 0
M  V30 21 H 3.9761 -1.4929 -0.5717 0
M  V30 22 H 0.3826 0.1719 2.0531 0
M  V30 23 H -0.0826 1.3219 0.7739 0
M  V30 24 H -2.006 0.4428 2.0781 0
M  V30 25 H -1.5973 -1.2332 1.6296 0
M  V30 26 H -2.6954 -0.9241 -1.7386 0
M  V30 27 H -2.6463 2.1146 0.194 0
M  V30 28 H -1.4847 1.5405 -1.0689 0
M  V30 29 H -3.2451 1.4618 -1.3753 0
M  V30 30 H -4.6485 -0.3427 -0.4143 0
M  V30 31 H -4.0117 -1.4148 0.8813 0
M  V30 32 H -4.3058 0.3343 1.219 0
M  V30 END ATOM
M  V30 BEGIN BOND
M  V30 1 2 1 2
M  V30 2 1 2 3
M  V30 3 1 3 4
M  V30 4 1 4 5
M  V30 5 1 4 6
M  V30 6 1 5 7
M  V30 7 1 7 8
M  V30 8 1 8 9
M  V30 9 1 9 10
M  V30 10 1 9 11
M  V30 11 1 9 12
M  V30 12 1 2 13
M  V30 13 1 3 14
M  V30 14 1 3 15
M  V30 15 1 4 16
M  V30 16 1 5 17
M  V30 17 1 5 18
M  V30 18 1 6 19
M  V30 19 1 6 20
M  V30 20 1 6 21
M  V30 21 1 7 22
M  V30 22 1 7 23
M  V30 23 1 8 24
M  V30 24 1 8 25
M  V30 25 1 10 26
M  V30 26 1 11 27
M  V30 27 1 11 28
M  V30 28 1 11 29
M  V30 29 1 12 30
M  V30 30 1 12 31
M  V30 31 1 12 32
M  V30 END BOND
M  V30 BEGIN COLLECTION
M  V30 MDLV30/STEABS ATOMS=(1 4)
M  V30 END COLLECTION
M  V30 END CTAB
M  END
>  <Structure No>
1220

>  <LogS>
-4.92245094

>  <MMFF94 Energy>
18.642

$$$$
Compound 1221
Actelion Java MolfileCreator 2.0

  0  0  0  0  0  0              0 V3000
M  V30 BEGIN CTAB
M  V30 COUNTS 120 119 0 0 0
M  V30 BEGIN ATOM
M  V30 1 O -0.7046 2.115 -0.7046 0
M  V30 2 C 0.2189 1.6873 0.0424 0
M  V30 3 O 1.1794 0.8051 -0.458 0
M  V30 4 C 0.2401 2.0486 1.4715 0
M  V30 5 C 1.3369 0.5906 -1.8547 0
M  V30 6 C -0.0582 3.2768 1.9323 0
M  V30 7 C 2.4398 -0.4377 -2.1224 0
M  V30 8 C -0.1696 4.4704 1.07 0
M  V30 9 C 3.8602 0.1031 -1.8344 0
M  V30 10 O 0.5469 4.5763 0.038 0
M  V30 11 O -1.0709 5.4845 1.4089 0
M  V30 12 C 4.1629 0.4014 -0.3495 0
M  V30 13 C -1.5118 6.4594 0.4723 0
M  V30 14 C 3.9504 -0.7785 0.6233 0
M  V30 15 C -2.3785 5.8329 -0.6477 0
M  V30 16 C 4.9029 -1.9596 0.3709 0
M  V30 17 C -3.7881 5.4623 -0.1622 0
M  V30 18 C 6.2995 -1.6974 0.9507 0
M  V30 19 C -3.8196 4.1115 0.5867 0
M  V30 20 C 7.2728 -2.8448 0.6642 0
M  V30 21 C -5.0187 4.0009 1.5294 0
M  V30 22 C 7.8337 -2.7914 -0.7631 0
M  V30 23 C -6.3625 3.9133 0.762 0
M  V30 24 C 8.9047 -3.8797 -0.9627 0
M  V30 25 C -7.1863 2.6827 1.1708 0
M  V30 26 C 9.5891 -3.7919 -2.3351 0
M  V30 27 C -6.5791 1.3567 0.6382 0
M  V30 28 C 10.4068 -2.5072 -2.5906 0
M  V30 29 C -6.6077 0.2125 1.6857 0
M  V30 30 C 11.5399 -2.2469 -1.5684 0
M  V30 31 C -7.9142 -0.587 1.7333 0
M  V30 32 C 11.1269 -1.2788 -0.444 0
M  V30 33 C -9.1781 0.2705 1.9224 0
M  V30 34 C 12.3475 -0.828 0.3639 0
M  V30 35 C -10.3974 -0.5099 2.4463 0
M  V30 36 C 11.9598 -0.113 1.6643 0
M  V30 37 C -10.6809 -1.8419 1.7314 0
M  V30 38 C 11.0773 1.1241 1.4055 0
M  V30 39 C -11.0707 -1.6701 0.2584 0
M  V30 40 C 10.8913 1.9533 2.6702 0
M  V30 41 C -11.2174 -3.0408 -0.4167 0
M  V30 42 C -11.7009 -2.9203 -1.8662 0
M  V30 43 C -11.7241 -4.2898 -2.5542 0
M  V30 44 C -12.3232 -4.1938 -3.955 0
M  V30 45 H 0.414 1.2604 2.1852 0
M  V30 46 H 1.5877 1.548 -2.3571 0
M  V30 47 H 0.3843 0.1953 -2.2739 0
M  V30 48 H -0.1887 3.4066 2.9896 0
M  V30 49 H 2.2359 -1.3787 -1.5704 0
M  V30 50 H 2.3918 -0.7128 -3.1968 0
M  V30 51 H 4.6013 -0.6171 -2.2334 0
M  V30 52 H 3.9917 1.041 -2.4117 0
M  V30 53 H 5.2135 0.751 -0.2864 0
M  V30 54 H 3.5584 1.2642 -0.008 0
M  V30 55 H -0.6299 6.9649 0.026 0
M  V30 56 H -2.1028 7.231 1.0053 0
M  V30 57 H 4.1005 -0.398 1.6554 0
M  V30 58 H 2.9012 -1.1278 0.5828 0
M  V30 59 H -2.4695 6.5699 -1.4742 0
M  V30 60 H -1.8818 4.9404 -1.0784 0
M  V30 61 H 4.4758 -2.8519 0.8736 0
M  V30 62 H 4.9602 -2.197 -0.7049 0
M  V30 63 H -4.2074 6.2789 0.4659 0
M  V30 64 H -4.4453 5.3779 -1.0532 0
M  V30 65 H 6.7128 -0.7528 0.5562 0
M  V30 66 H 6.2061 -1.582 2.0516 0
M  V30 67 H -2.9173 3.989 1.2058 0
M  V30 68 H -3.8121 3.2746 -0.1379 0
M  V30 69 H 8.1266 -2.7532 1.3818 0
M  V30 70 H 6.7838 -3.8235 0.8466 0
M  V30 71 H -5.0297 4.8735 2.222 0
M  V30 72 H -4.8639 3.0954 2.1635 0
M  V30 73 H 7.017 -2.9456 -1.4947 0
M  V30 74 H 8.2749 -1.7853 -0.9352 0
M  V30 75 H -6.2215 3.916 -0.337 0
M  V30 76 H -6.9616 4.8143 1.0151 0
M  V30 77 H 8.4137 -4.8713 -0.8911 0
M  V30 78 H 9.6666 -3.8561 -0.1556 0
M  V30 79 H -8.2202 2.7954 0.7925 0
M  V30 80 H -7.2435 2.6536 2.2708 0
M  V30 81 H 10.2441 -4.6685 -2.4544 0
M  V30 82 H 8.8144 -3.8591 -3.1294 0
M  V30 83 H -5.5134 1.5227 0.3791 0
M  V30 84 H -7.0858 1.0531 -0.2982 0
M  V30 85 H 9.7356 -1.6345 -2.6665 0
M  V30 86 H 10.878 -2.6085 -3.5872 0
M  V30 87 H -6.3652 0.5998 2.6962 0
M  V30 88 H -5.815 -0.5026 1.4219 0
M  V30 89 H 12.3894 -1.8031 -2.1183 0
M  V30 90 H 11.9027 -3.2016 -1.1287 0
M  V30 91 H -7.8341 -1.3014 2.5806 0
M  V30 92 H -8.0072 -1.1706 0.7879 0
M  V30 93 H 10.4058 -1.7635 0.2377 0
M  V30 94 H 10.6361 -0.3844 -0.8906 0
M  V30 95 H -9.4458 0.7416 0.9539 0
M  V30 96 H -8.9781 1.081 2.65 0
M  V30 97 H 12.9755 -1.7072 0.6298 0
M  V30 98 H 12.9769 -0.1461 -0.2496 0
M  V30 99 H -11.2858 0.1403 2.3654 0
M  V30 100 H -10.255 -0.7095 3.5191 0
M  V30 101 H 12.8877 0.1929 2.1957 0
M  V30 102 H 11.4118 -0.824 2.3246 0
M  V30 103 H -9.7967 -2.5124 1.8176 0
M  V30 104 H -11.5132 -2.3555 2.2646 0
M  V30 105 H 11.5505 1.764 0.6268 0
M  V30 106 H 10.0763 0.7997 1.0543 0
M  V30 107 H -10.2903 -1.0839 -0.2787 0
M  V30 108 H -12.0279 -1.1059 0.198 0
M  V30 109 H 11.864 2.3794 3.0141 0
M  V30 110 H 10.465 1.3116 3.4876 0
M  V30 111 H 10.1935 2.7861 2.4632 0
M  V30 112 H -11.945 -3.6455 0.1568 0
M  V30 113 H -10.238 -3.5691 -0.4004 0
M  V30 114 H -12.728 -2.488 -1.8755 0
M  V30 115 H -11.0265 -2.2404 -2.4343 0
M  V30 116 H -10.686 -4.685 -2.63 0
M  V30 117 H -12.3269 -5.0105 -1.955 0
M  V30 118 H -12.2759 -5.1807 -4.4547 0
M  V30 119 H -11.7563 -3.4553 -4.561 0
M  V30 120 H -13.3803 -3.886 -3.8944 0
M  V30 END ATOM
M  V30 BEGIN BOND
M  V30 1 2 1 2
M  V30 2 1 2 3
M  V30 3 1 2 4
M  V30 4 1 3 5
M  V30 5 2 4 6
M  V30 6 1 5 7
M  V30 7 1 6 8
M  V30 8 1 7 9
M  V30 9 2 8 10
M  V30 10 1 8 11
M  V30 11 1 9 12
M  V30 12 1 11 13
M  V30 13 1 12 14
M  V30 14 1 13 15
M  V30 15 1 14 16
M  V30 16 1 15 17
M  V30 17 1 16 18
M  V30 18 1 17 19
M  V30 19 1 18 20
M  V30 20 1 19 21
M  V30 21 1 20 22
M  V30 22 1 21 23
M  V30 23 1 22 24
M  V30 24 1 23 25
M  V30 25 1 24 26
M  V30 26 1 25 27
M  V30 27 1 26 28
M  V30 28 1 27 29
M  V30 29 1 28 30
M  V30 30 1 29 31
M  V30 31 1 30 32
M  V30 32 1 31 33
M  V30 33 1 32 34
M  V30 34 1 33 35
M  V30 35 1 34 36
M  V30 36 1 35 37
M  V30 37 1 36 38
M  V30 38 1 37 39
M  V30 39 1 38 40
M  V30 40 1 39 41
M  V30 41 1 41 42
M  V30 42 1 42 43
M  V30 43 1 43 44
M  V30 44 1 4 45
M  V30 45 1 5 46
M  V30 46 1 5 47
M  V30 47 1 6 48
M  V30 48 1 7 49
M  V30 49 1 7 50
M  V30 50 1 9 51
M  V30 51 1 9 52
M  V30 52 1 12 53
M  V30 53 1 12 54
M  V30 54 1 13 55
M  V30 55 1 13 56
M  V30 56 1 14 57
M  V30 57 1 14 58
M  V30 58 1 15 59
M  V30 59 1 15 60
M  V30 60 1 16 61
M  V30 61 1 16 62
M  V30 62 1 17 63
M  V30 63 1 17 64
M  V30 64 1 18 65
M  V30 65 1 18 66
M  V30 66 1 19 67
M  V30 67 1 19 68
M  V30 68 1 20 69
M  V30 69 1 20 70
M  V30 70 1 21 71
M  V30 71 1 21 72
M  V30 72 1 22 73
M  V30 73 1 22 74
M  V30 74 1 23 75
M  V30 75 1 23 76
M  V30 76 1 24 77
M  V30 77 1 24 78
M  V30 78 1 25 79
M  V30 79 1 25 80
M  V30 80 1 26 81
M  V30 81 1 26 82
M  V30 82 1 27 83
M  V30 83 1 27 84
M  V30 84 1 28 85
M  V30 85 1 28 86
M  V30 86 1 29 87
M  V30 87 1 29 88
M  V30 88 1 30 89
M  V30 89 1 30 90
M  V30 90 1 31 91
M  V30 91 1 31 92
M  V30 92 1 32 93
M  V30 93 1 32 94
M  V30 94 1 33 95
M  V30 95 1 33 96
M  V30 96 1 34 97
M  V30 97 1 34 98
M  V30 98 1 35 99
M  V30 99 1 35 100
M  V30 100 1 36 101
M  V30 101 1 36 102
M  V30 102 1 37 103
M  V30 103 1 37 104
M  V30 104 1 38 105
M  V30 105 1 38 106
M  V30 106 1 39 107
M  V30 107 1 39 108
M  V30 108 1 40 109
M  V30 109 1 40 110
M  V30 110 1 40 111
M  V30 111 1 41 112
M  V30 112 1 41 113
M  V30 113 1 42 114
M  V30 114 1 42 115
M  V30 115 1 43 116
M  V30 116 1 43 117
M  V30 117 1 44 118
M  V30 118 1 44 119
M  V30 119 1 44 120
M  V30 END BOND
M  V30 END CTAB
M  END
>  <Structure No>
1221

>  <LogS>
-7.094152366

>  <MMFF94 Energy>
-36.872

$$$$
Compound 1222
Actelion Java MolfileCreator 2.0

  0  0  0  0  0  0              0 V3000
M  V30 BEGIN CTAB
M  V30 COUNTS 4 3 0 0 0
M  V30 BEGIN ATOM
M  V30 1 O -0.3329 1.249 0.0 0
M  V30 2 N 0.0 0.0476 -0.0159 0 CHG=1
M  V30 3 O -0.9634 -0.9321 -0.0305 0 CHG=-1
M  V30 4 O 1.3303 -0.2965 -0.0189 0 CHG=-1
M  V30 END ATOM
M  V30 BEGIN BOND
M  V30 1 2 1 2
M  V30 2 1 2 3
M  V30 3 1 2 4
M  V30 END BOND
M  V30 END CTAB
M  END
>  <Structure No>
1222

>  <LogS>
-2.503579611

>  <MMFF94 Energy>
6.4146

$$$$
Compound 1223
Actelion Java MolfileCreator 2.0

  0  0  0  0  0  0              0 V3000
M  V30 BEGIN CTAB
M  V30 COUNTS 6 5 0 0 0
M  V30 BEGIN ATOM
M  V30 1 S 1.1469 0.5733 -0.5733 0
M  V30 2 C -0.5 0.0773 0.0053 0
M  V30 3 H 1.7833 -0.4379 0.1712 0
M  V30 4 H -0.7004 -0.9715 -0.296 0
M  V30 5 H -0.5471 0.1608 1.1109 0
M  V30 6 H -1.2646 0.7421 -0.4464 0
M  V30 END ATOM
M  V30 BEGIN BOND
M  V30 1 1 1 2
M  V30 2 1 1 3
M  V30 3 1 2 4
M  V30 4 1 2 5
M  V30 5 1 2 6
M  V30 END BOND
M  V30 END CTAB
M  END
>  <Structure No>
1223

>  <LogS>
-1.845668452

>  <MMFF94 Energy>
0.6064

$$$$
Compound 1224
Actelion Java MolfileCreator 2.0

  0  0  0  0  0  0              0 V3000
M  V30 BEGIN CTAB
M  V30 COUNTS 37 38 0 0 0
M  V30 BEGIN ATOM
M  V30 1 O 2.3037 1.9062 -1.191 0
M  V30 2 C 1.9939 0.6862 -1.2707 0
M  V30 3 O 2.5959 -0.2618 -0.4354 0
M  V30 4 C 0.9758 0.2443 -2.2756 0
M  V30 5 C 3.5615 0.0701 0.5598 0
M  V30 6 N 0.0383 -0.7113 -1.6831 0
M  V30 7 C 4.9202 0.3391 -0.076 0
M  V30 8 C -0.8154 -0.4694 -0.7247 0
M  V30 9 C -1.6598 -1.5827 -0.2078 0
M  V30 10 C -0.9159 0.8786 -0.1192 0
M  V30 11 C -2.7693 -1.3266 0.6246 0
M  V30 12 C -1.3678 -2.9192 -0.5491 0
M  V30 13 C -1.495 1.9387 -0.8337 0
M  V30 14 C -0.4388 1.099 1.1822 0
M  V30 15 C -3.556 -2.3783 1.1043 0
M  V30 16 C -2.1586 -3.966 -0.0656 0
M  V30 17 C -1.5823 3.209 -0.256 0
M  V30 18 C -0.5269 2.3707 1.7561 0
M  V30 19 C -3.2507 -3.6961 0.7606 0
M  V30 20 C -1.0972 3.4255 1.0373 0
M  V30 21 H 0.4245 1.1146 -2.6912 0
M  V30 22 H 1.5052 -0.2519 -3.1148 0
M  V30 23 H 3.2256 0.9538 1.1453 0
M  V30 24 H 3.6581 -0.788 1.2577 0
M  V30 25 H 5.6705 0.5388 0.7176 0
M  V30 26 H 4.8672 1.2225 -0.7458 0
M  V30 27 H 5.2447 -0.5451 -0.664 0
M  V30 28 H -3.0392 -0.3154 0.9004 0
M  V30 29 H -0.5238 -3.1591 -1.1833 0
M  V30 30 H -1.8794 1.7798 -1.8336 0
M  V30 31 H 0.008 0.2888 1.7454 0
M  V30 32 H -4.4055 -2.17 1.7419 0
M  V30 33 H -1.923 -4.9884 -0.3315 0
M  V30 34 H -2.0269 4.0256 -0.8102 0
M  V30 35 H -0.1529 2.539 2.7577 0
M  V30 36 H -3.8615 -4.5082 1.1333 0
M  V30 37 H -1.165 4.4096 1.4828 0
M  V30 END ATOM
M  V30 BEGIN BOND
M  V30 1 2 1 2
M  V30 2 1 2 3
M  V30 3 1 2 4
M  V30 4 1 3 5
M  V30 5 1 4 6
M  V30 6 1 5 7
M  V30 7 2 6 8
M  V30 8 1 8 9
M  V30 9 1 8 10
M  V30 10 2 9 11
M  V30 11 1 9 12
M  V30 12 2 10 13
M  V30 13 1 10 14
M  V30 14 1 11 15
M  V30 15 2 12 16
M  V30 16 1 13 17
M  V30 17 2 14 18
M  V30 18 2 15 19
M  V30 19 2 17 20
M  V30 20 1 16 19
M  V30 21 1 18 20
M  V30 22 1 4 21
M  V30 23 1 4 22
M  V30 24 1 5 23
M  V30 25 1 5 24
M  V30 26 1 7 25
M  V30 27 1 7 26
M  V30 28 1 7 27
M  V30 29 1 11 28
M  V30 30 1 12 29
M  V30 31 1 13 30
M  V30 32 1 14 31
M  V30 33 1 15 32
M  V30 34 1 16 33
M  V30 35 1 17 34
M  V30 36 1 18 35
M  V30 37 1 19 36
M  V30 38 1 20 37
M  V30 END BOND
M  V30 END CTAB
M  END
>  <Structure No>
1224

>  <LogS>
-3.427044449

>  <MMFF94 Energy>
105.45

$$$$
Compound 1225
Actelion Java MolfileCreator 2.0

  0  0  0  0  0  0              0 V3000
M  V30 BEGIN CTAB
M  V30 COUNTS 96 97 0 0 0
M  V30 BEGIN ATOM
M  V30 1 O -6.0446 -2.4621 0.7143 0
M  V30 2 C -6.2094 -1.2979 1.1814 0
M  V30 3 O -6.7006 -1.1144 2.4788 0
M  V30 4 C -5.9404 -0.0856 0.3227 0 CFG=1
M  V30 5 C -6.9643 -2.1858 3.3846 0
M  V30 6 N -4.7971 -0.3173 -0.6071 0 CHG=1
M  V30 7 C -7.2423 0.2737 -0.43 0
M  V30 8 C -8.2243 -2.9443 2.9828 0
M  V30 9 C -3.907 0.8735 -0.7559 0 CFG=1
M  V30 10 C -7.1369 1.5708 -1.1678 0
M  V30 11 C -2.6199 0.8027 0.1223 0 CFG=2
M  V30 12 C -3.4932 1.0938 -2.226 0
M  V30 13 O -7.1104 1.572 -2.428 0
M  V30 14 O -7.0932 2.7696 -0.4484 0
M  V30 15 C -1.6169 -0.2662 -0.3744 0
M  V30 16 C -2.9271 0.614 1.6147 0
M  V30 17 C -2.5489 -0.0045 -2.72 0
M  V30 18 C -7.0459 4.0558 -1.0684 0
M  V30 19 C -1.2622 -0.0863 -1.8683 0 CFG=2
M  V30 20 C -5.6486 4.3518 -1.6019 0
M  V30 21 C -0.3842 -1.2412 -2.4226 0
M  V30 22 C 1.0541 -1.4269 -1.8614 0 CFG=2
M  V30 23 C 1.1114 -2.3601 -0.6391 0
M  V30 24 C 1.7927 -0.1124 -1.5686 0
M  V30 25 C 2.5718 -2.6591 -0.2412 0 CFG=1
M  V30 26 C 3.2499 -0.3841 -1.1761 0
M  V30 27 C 3.3683 -1.3442 0.0413 0 CFG=2
M  V30 28 C 2.5748 -3.6178 0.9628 0
M  V30 29 N 4.7808 -1.6906 0.3442 0
M  V30 30 C 5.7424 -0.5703 0.4357 0 CFG=2
M  V30 31 C 7.1271 -1.1345 0.629 0
M  V30 32 C 5.3938 0.4074 1.5823 0
M  V30 33 O 7.3692 -1.8849 1.6151 0
M  V30 34 O 8.1364 -0.8111 -0.284 0
M  V30 35 C 6.3787 1.5365 1.662 0
M  V30 36 C 9.4833 -1.2668 -0.1645 0
M  V30 37 O 7.0782 1.6846 2.7 0
M  V30 38 O 6.5166 2.4052 0.5741 0
M  V30 39 C 9.5982 -2.731 -0.567 0
M  V30 40 C 7.4128 3.5141 0.5632 0
M  V30 41 C 6.8546 4.6666 1.3869 0
M  V30 42 H -5.7161 0.7439 1.0291 0
M  V30 43 H -6.0932 -2.8768 3.4258 0
M  V30 44 H -7.1143 -1.7574 4.3969 0
M  V30 45 H -5.1777 -0.6108 -1.5372 0
M  V30 46 H -4.2271 -1.1318 -0.2905 0
M  V30 47 H -8.0814 0.3646 0.297 0
M  V30 48 H -7.5077 -0.5429 -1.1364 0
M  V30 49 H -8.492 -3.6714 3.7792 0
M  V30 50 H -9.0709 -2.2371 2.8428 0
M  V30 51 H -8.0562 -3.5023 2.0355 0
M  V30 52 H -4.4496 1.7995 -0.4657 0
M  V30 53 H -2.1119 1.7906 0.0348 0
M  V30 54 H -4.3934 1.1295 -2.8771 0
M  V30 55 H -2.9868 2.0808 -2.3249 0
M  V30 56 H -0.6984 -0.1482 0.2317 0
M  V30 57 H -2.0086 -1.2905 -0.196 0
M  V30 58 H -3.6095 1.4141 1.9706 0
M  V30 59 H -1.9904 0.6823 2.2084 0
M  V30 60 H -3.3901 -0.3752 1.8089 0
M  V30 61 H -3.0769 -0.9835 -2.7085 0
M  V30 62 H -2.2831 0.2223 -3.7768 0
M  V30 63 H -7.7932 4.1201 -1.8909 0
M  V30 64 H -7.3076 4.8253 -0.3127 0
M  V30 65 H -0.7183 0.8739 -1.9947 0
M  V30 66 H -4.9104 4.2984 -0.7733 0
M  V30 67 H -5.6243 5.3721 -2.0414 0
M  V30 68 H -5.3699 3.6217 -2.3901 0
M  V30 69 H -0.2716 -1.0647 -3.5151 0
M  V30 70 H -0.9397 -2.1991 -2.3286 0
M  V30 71 H 1.6206 -1.9433 -2.6725 0
M  V30 72 H 0.5836 -1.9195 0.2285 0
M  V30 73 H 0.6031 -3.3153 -0.8938 0
M  V30 74 H 1.7767 0.5312 -2.4755 0
M  V30 75 H 1.3023 0.4413 -0.7398 0
M  V30 76 H 3.0572 -3.189 -1.0931 0
M  V30 77 H 3.7998 -0.8092 -2.0462 0
M  V30 78 H 3.695 0.6031 -0.9349 0
M  V30 79 H 2.9101 -0.8451 0.9241 0
M  V30 80 H 3.586 -4.0453 1.1256 0
M  V30 81 H 2.2421 -3.0936 1.8837 0
M  V30 82 H 1.8942 -4.4755 0.7758 0
M  V30 83 H 4.7938 -2.1749 1.2714 0
M  V30 84 H 5.7673 -0.0163 -0.5253 0
M  V30 85 H 4.3931 0.8544 1.4152 0
M  V30 86 H 5.3627 -0.1363 2.5514 0
M  V30 87 H 9.8504 -1.1214 0.8745 0
M  V30 88 H 10.1207 -0.6627 -0.8423 0
M  V30 89 H 9.1966 -2.8763 -1.5896 0
M  V30 90 H 9.0369 -3.3738 0.1403 0
M  V30 91 H 10.6638 -3.0362 -0.5508 0
M  V30 92 H 7.5393 3.8502 -0.4868 0
M  V30 93 H 8.408 3.2086 0.9485 0
M  V30 94 H 6.7434 4.3635 2.451 0
M  V30 95 H 7.5498 5.5346 1.3332 0
M  V30 96 H 5.8613 4.9716 0.9879 0
M  V30 END ATOM
M  V30 BEGIN BOND
M  V30 1 2 1 2
M  V30 2 1 2 3
M  V30 3 1 2 4
M  V30 4 1 3 5
M  V30 5 1 4 6
M  V30 6 1 4 7
M  V30 7 1 5 8
M  V30 8 1 6 9
M  V30 9 1 7 10
M  V30 10 1 9 11
M  V30 11 1 9 12
M  V30 12 2 10 13
M  V30 13 1 10 14
M  V30 14 1 11 15
M  V30 15 1 11 16
M  V30 16 1 12 17
M  V30 17 1 14 18
M  V30 18 1 15 19
M  V30 19 1 18 20
M  V30 20 1 19 21
M  V30 21 1 21 22
M  V30 22 1 22 23
M  V30 23 1 22 24
M  V30 24 1 23 25
M  V30 25 1 24 26
M  V30 26 1 25 27
M  V30 27 1 25 28
M  V30 28 1 27 29
M  V30 29 1 29 30
M  V30 30 1 30 31
M  V30 31 1 30 32
M  V30 32 2 31 33
M  V30 33 1 31 34
M  V30 34 1 32 35
M  V30 35 1 34 36
M  V30 36 2 35 37
M  V30 37 1 35 38
M  V30 38 1 36 39
M  V30 39 1 38 40
M  V30 40 1 40 41
M  V30 41 1 17 19
M  V30 42 1 26 27
M  V30 43 1 4 42
M  V30 44 1 5 43
M  V30 45 1 5 44
M  V30 46 1 6 45
M  V30 47 1 6 46
M  V30 48 1 7 47
M  V30 49 1 7 48
M  V30 50 1 8 49
M  V30 51 1 8 50
M  V30 52 1 8 51
M  V30 53 1 9 52
M  V30 54 1 11 53
M  V30 55 1 12 54
M  V30 56 1 12 55
M  V30 57 1 15 56
M  V30 58 1 15 57
M  V30 59 1 16 58
M  V30 60 1 16 59
M  V30 61 1 16 60
M  V30 62 1 17 61
M  V30 63 1 17 62
M  V30 64 1 18 63
M  V30 65 1 18 64
M  V30 66 1 19 65
M  V30 67 1 20 66
M  V30 68 1 20 67
M  V30 69 1 20 68
M  V30 70 1 21 69
M  V30 71 1 21 70
M  V30 72 1 22 71
M  V30 73 1 23 72
M  V30 74 1 23 73
M  V30 75 1 24 74
M  V30 76 1 24 75
M  V30 77 1 25 76
M  V30 78 1 26 77
M  V30 79 1 26 78
M  V30 80 1 27 79
M  V30 81 1 28 80
M  V30 82 1 28 81
M  V30 83 1 28 82
M  V30 84 1 29 83
M  V30 85 1 30 84
M  V30 86 1 32 85
M  V30 87 1 32 86
M  V30 88 1 36 87
M  V30 89 1 36 88
M  V30 90 1 39 89
M  V30 91 1 39 90
M  V30 92 1 39 91
M  V30 93 1 40 92
M  V30 94 1 40 93
M  V30 95 1 41 94
M  V30 96 1 41 95
M  V30 97 1 41 96
M  V30 END BOND
M  V30 BEGIN COLLECTION
M  V30 MDLV30/STEABS ATOMS=(8 4 9 11 19 22 25 27 30)
M  V30 END COLLECTION
M  V30 END CTAB
M  END
>  <Structure No>
1225

>  <LogS>
-5.06653389

>  <MMFF94 Energy>
35.265

$$$$
Compound 1226
Actelion Java MolfileCreator 2.0

  0  0  0  0  0  0              0 V3000
M  V30 BEGIN CTAB
M  V30 COUNTS 62 61 0 0 0
M  V30 BEGIN ATOM
M  V30 1 O -3.2131 0.548 -0.7829 0
M  V30 2 C -4.0962 0.5486 -1.6795 0
M  V30 3 O -3.7937 0.0471 -2.9392 0 CHG=-1
M  V30 4 C -5.4739 1.0867 -1.3915 0
M  V30 5 N -6.4413 0.0558 -0.9036 0 CHG=1
M  V30 6 C -5.9578 -0.6716 0.3135 0
M  V30 7 C -7.7385 0.7231 -0.6234 0
M  V30 8 C -6.6811 -0.9465 -1.9745 0
M  V30 9 C -5.6888 0.2184 1.5519 0
M  V30 10 C -5.1747 -0.6097 2.7367 0
M  V30 11 N -3.8536 -1.1701 2.4551 0
M  V30 12 C -2.6576 -0.3782 2.4752 0
M  V30 13 O -2.7057 0.83 2.8347 0
M  V30 14 C -1.3359 -1.0172 2.1504 0
M  V30 15 C -0.3483 -0.025 1.5212 0
M  V30 16 C 0.9622 -0.7241 1.1414 0
M  V30 17 C 1.9747 0.2748 0.5667 0
M  V30 18 C 3.2836 -0.4286 0.1879 0
M  V30 19 C 4.3215 0.5753 -0.3267 0
M  V30 20 C 5.6297 -0.1309 -0.7012 0
M  V30 21 C 6.687 0.8775 -1.1682 0
M  V30 22 C 7.9923 0.1692 -1.549 0
M  V30 23 C 9.0595 1.1792 -1.985 0
M  V30 24 C 10.3537 0.4762 -2.3839 0
M  V30 25 H -5.3831 1.9245 -0.6665 0
M  V30 26 H -5.8545 1.5564 -2.327 0
M  V30 27 H -5.0283 -1.2348 0.0757 0
M  V30 28 H -6.7067 -1.4416 0.6112 0
M  V30 29 H -8.1958 1.1188 -1.5582 0
M  V30 30 H -7.6155 1.591 0.0595 0
M  V30 31 H -8.465 0.017 -0.1622 0
M  V30 32 H -7.4879 -1.6576 -1.6854 0
M  V30 33 H -5.7701 -1.5503 -2.1788 0
M  V30 34 H -6.9875 -0.458 -2.9269 0
M  V30 35 H -6.6286 0.7089 1.8778 0
M  V30 36 H -4.9461 1.0081 1.3249 0
M  V30 37 H -5.889 -1.4345 2.9514 0
M  V30 38 H -5.124 0.028 3.6459 0
M  V30 39 H -3.7782 -2.1979 2.2831 0
M  V30 40 H -1.5059 -1.8584 1.4428 0
M  V30 41 H -0.9046 -1.431 3.0878 0
M  V30 42 H -0.8034 0.4231 0.6099 0
M  V30 43 H -0.1309 0.7892 2.2482 0
M  V30 44 H 0.7505 -1.5143 0.3859 0
M  V30 45 H 1.398 -1.2058 2.0461 0
M  V30 46 H 1.5439 0.7614 -0.3376 0
M  V30 47 H 2.1849 1.0617 1.3263 0
M  V30 48 H 3.6949 -0.951 1.0802 0
M  V30 49 H 3.0767 -1.1855 -0.6006 0
M  V30 50 H 3.9182 1.0998 -1.2208 0
M  V30 51 H 4.5229 1.3301 0.4647 0
M  V30 52 H 5.4293 -0.8632 -1.5149 0
M  V30 53 H 6.0174 -0.6845 0.1821 0
M  V30 54 H 6.8887 1.6037 -0.3493 0
M  V30 55 H 6.3014 1.4372 -2.049 0
M  V30 56 H 8.3686 -0.4057 -0.6741 0
M  V30 57 H 7.7949 -0.5397 -2.3822 0
M  V30 58 H 9.2755 1.8812 -1.1497 0
M  V30 59 H 8.6865 1.767 -2.8523 0
M  V30 60 H 11.1118 1.233 -2.6758 0
M  V30 61 H 10.7512 -0.1153 -1.5315 0
M  V30 62 H 10.1758 -0.1993 -3.2477 0
M  V30 END ATOM
M  V30 BEGIN BOND
M  V30 1 2 1 2
M  V30 2 1 2 3
M  V30 3 1 2 4
M  V30 4 1 4 5
M  V30 5 1 5 6
M  V30 6 1 5 7
M  V30 7 1 5 8
M  V30 8 1 6 9
M  V30 9 1 9 10
M  V30 10 1 10 11
M  V30 11 1 11 12
M  V30 12 2 12 13
M  V30 13 1 12 14
M  V30 14 1 14 15
M  V30 15 1 15 16
M  V30 16 1 16 17
M  V30 17 1 17 18
M  V30 18 1 18 19
M  V30 19 1 19 20
M  V30 20 1 20 21
M  V30 21 1 21 22
M  V30 22 1 22 23
M  V30 23 1 23 24
M  V30 24 1 4 25
M  V30 25 1 4 26
M  V30 26 1 6 27
M  V30 27 1 6 28
M  V30 28 1 7 29
M  V30 29 1 7 30
M  V30 30 1 7 31
M  V30 31 1 8 32
M  V30 32 1 8 33
M  V30 33 1 8 34
M  V30 34 1 9 35
M  V30 35 1 9 36
M  V30 36 1 10 37
M  V30 37 1 10 38
M  V30 38 1 11 39
M  V30 39 1 14 40
M  V30 40 1 14 41
M  V30 41 1 15 42
M  V30 42 1 15 43
M  V30 43 1 16 44
M  V30 44 1 16 45
M  V30 45 1 17 46
M  V30 46 1 17 47
M  V30 47 1 18 48
M  V30 48 1 18 49
M  V30 49 1 19 50
M  V30 50 1 19 51
M  V30 51 1 20 52
M  V30 52 1 20 53
M  V30 53 1 21 54
M  V30 54 1 21 55
M  V30 55 1 22 56
M  V30 56 1 22 57
M  V30 57 1 23 58
M  V30 58 1 23 59
M  V30 59 1 24 60
M  V30 60 1 24 61
M  V30 61 1 24 62
M  V30 END BOND
M  V30 END CTAB
M  END
>  <Structure No>
1226

>  <LogS>
-3.136750998

>  <MMFF94 Energy>
-5.705

$$$$
Compound 1227
Actelion Java MolfileCreator 2.0

  0  0  0  0  0  0              0 V3000
M  V30 BEGIN CTAB
M  V30 COUNTS 25 24 0 0 0
M  V30 BEGIN ATOM
M  V30 1 O 1.4525 0.3056 0.0 0
M  V30 2 C 2.5044 -0.6067 -0.2336 0
M  V30 3 C 0.2172 -0.3783 -0.0303 0
M  V30 4 C 3.8306 0.1409 -0.1939 0
M  V30 5 C -0.9159 0.6305 0.2065 0
M  V30 6 O 4.8821 -0.7543 -0.4248 0
M  V30 7 N -2.2601 0.0437 -0.0137 0 CHG=1
M  V30 8 C -2.614 -0.9233 1.0429 0
M  V30 9 C -3.2709 1.1157 -0.0582 0
M  V30 10 H 2.5231 -1.3969 0.5519 0
M  V30 11 H 2.3988 -1.0813 -1.2363 0
M  V30 12 H 0.1909 -1.15 0.7706 0
M  V30 13 H 0.0644 -0.862 -1.0223 0
M  V30 14 H 3.9546 0.6178 0.8044 0
M  V30 15 H 3.8308 0.9319 -0.9771 0
M  V30 16 H -0.8307 1.0453 1.2369 0
M  V30 17 H -0.7549 1.4753 -0.5021 0
M  V30 18 H 5.7147 -0.2155 -0.3876 0
M  V30 19 H -2.2789 -0.4488 -0.9383 0
M  V30 20 H -1.9653 -1.8223 0.9879 0
M  V30 21 H -2.5216 -0.4672 2.0537 0
M  V30 22 H -3.6587 -1.2827 0.9118 0
M  V30 23 H -4.2817 0.6931 -0.2517 0
M  V30 24 H -3.2967 1.6808 0.9005 0
M  V30 25 H -3.0512 1.8255 -0.886 0
M  V30 END ATOM
M  V30 BEGIN BOND
M  V30 1 1 1 2
M  V30 2 1 1 3
M  V30 3 1 2 4
M  V30 4 1 3 5
M  V30 5 1 4 6
M  V30 6 1 5 7
M  V30 7 1 7 8
M  V30 8 1 7 9
M  V30 9 1 2 10
M  V30 10 1 2 11
M  V30 11 1 3 12
M  V30 12 1 3 13
M  V30 13 1 4 14
M  V30 14 1 4 15
M  V30 15 1 5 16
M  V30 16 1 5 17
M  V30 17 1 6 18
M  V30 18 1 7 19
M  V30 19 1 8 20
M  V30 20 1 8 21
M  V30 21 1 8 22
M  V30 22 1 9 23
M  V30 23 1 9 24
M  V30 24 1 9 25
M  V30 END BOND
M  V30 END CTAB
M  END
>  <Structure No>
1227

>  <LogS>
-0.12447488

>  <MMFF94 Energy>
40.857

$$$$
Compound 1228
Actelion Java MolfileCreator 2.0

  0  0  0  0  0  0              0 V3000
M  V30 BEGIN CTAB
M  V30 COUNTS 18 18 0 0 0
M  V30 BEGIN ATOM
M  V30 1 O -2.8494 2.0573 0.4744 0
M  V30 2 N -2.3936 0.9167 0.6979 0 CHG=1
M  V30 3 O -3.1001 0.0692 1.5198 0 CHG=-1
M  V30 4 C -1.0518 0.5871 0.3035 0
M  V30 5 C -0.6997 -0.7252 -0.0936 0
M  V30 6 C -0.058 1.5806 0.3441 0
M  V30 7 N -1.6885 -1.7504 -0.2547 0
M  V30 8 C 0.6396 -1.0215 -0.3932 0
M  V30 9 C 1.2676 1.2756 0.0307 0
M  V30 10 C 1.6241 -0.0275 -0.3312 0
M  V30 11 N 2.9837 -0.3399 -0.6461 0
M  V30 12 H -0.3066 2.5908 0.6442 0
M  V30 13 H -1.4025 -2.7341 -0.4588 0
M  V30 14 H -2.7076 -1.5319 -0.2891 0
M  V30 15 H 0.913 -2.0253 -0.695 0
M  V30 16 H 2.0188 2.054 0.0785 0
M  V30 17 H 3.26 -1.3091 -0.9204 0
M  V30 18 H 3.7245 0.3953 -0.6063 0
M  V30 END ATOM
M  V30 BEGIN BOND
M  V30 1 2 1 2
M  V30 2 1 2 3
M  V30 3 1 2 4
M  V30 4 2 4 5
M  V30 5 1 4 6
M  V30 6 1 5 7
M  V30 7 1 5 8
M  V30 8 2 6 9
M  V30 9 2 8 10
M  V30 10 1 10 11
M  V30 11 1 9 10
M  V30 12 1 6 12
M  V30 13 1 7 13
M  V30 14 1 7 14
M  V30 15 1 8 15
M  V30 16 1 9 16
M  V30 17 1 11 17
M  V30 18 1 11 18
M  V30 END BOND
M  V30 END CTAB
M  END
>  <Structure No>
1228

>  <LogS>
-2.185091479

>  <MMFF94 Energy>
59.965

$$$$
Compound 1229
Actelion Java MolfileCreator 2.0

  0  0  0  0  0  0              0 V3000
M  V30 BEGIN CTAB
M  V30 COUNTS 111 111 0 0 0
M  V30 BEGIN ATOM
M  V30 1 O 0.6311 2.1313 -4.0287 0
M  V30 2 C 0.3402 0.9391 -4.3145 0
M  V30 3 O 0.3893 0.5201 -5.6378 0 CHG=-1
M  V30 4 C -0.0983 -0.0193 -3.2405 0 CFG=1
M  V30 5 N 0.7779 0.0786 -2.0792 0
M  V30 6 C -1.4939 0.3328 -2.7183 0
M  V30 7 C 2.1456 -0.3717 -2.0701 0
M  V30 8 C 0.1064 0.6444 -0.9204 0
M  V30 9 C -1.2572 1.1128 -1.4249 0 CFG=2
M  V30 10 O 2.6521 -0.8364 -3.1268 0
M  V30 11 C 2.9749 -0.2569 -0.8126 0
M  V30 12 O -2.2928 0.8531 -0.476 0
M  V30 13 C 4.409 -0.7977 -0.9369 0
M  V30 14 C -2.3698 1.4997 0.7633 0
M  V30 15 C 4.4602 -2.335 -1.0282 0
M  V30 16 O -1.4929 2.342 1.1014 0
M  V30 17 C -3.4589 1.1214 1.7219 0
M  V30 18 C 5.8643 -2.8923 -0.7424 0
M  V30 19 C -4.0545 2.3529 2.4224 0
M  V30 20 C 6.8913 -2.487 -1.8142 0
M  V30 21 C -5.1258 1.9757 3.4672 0
M  V30 22 C 8.2759 -3.1084 -1.5718 0
M  V30 23 C -6.5662 2.2644 3.0075 0
M  V30 24 C 8.956 -2.5573 -0.3077 0
M  V30 25 C -7.0713 1.3694 1.861 0
M  V30 26 C 10.4433 -2.9359 -0.2657 0
M  V30 27 C -7.1091 -0.1405 2.1732 0
M  V30 28 C 11.1098 -2.6016 1.0814 0
M  V30 29 C -7.9123 -0.5325 3.4291 0
M  V30 30 C 11.0214 -1.122 1.5087 0
M  V30 31 C -9.3796 -0.0699 3.4372 0
M  V30 32 C 11.588 -0.1123 0.4948 0
M  V30 33 C -10.2 -0.6608 2.2817 0
M  V30 34 C 13.1029 -0.2701 0.2836 0
M  V30 35 C -11.694 -0.3563 2.4635 0
M  V30 36 C 13.6781 0.7788 -0.682 0
M  V30 37 C -12.5602 -0.9474 1.3403 0
M  V30 38 C 13.7522 2.1829 -0.0621 0
M  V30 39 C -12.4255 -0.1713 0.0215 0
M  V30 40 C 14.4679 3.1569 -0.9937 0
M  V30 41 C -13.4166 -0.693 -1.0258 0
M  V30 42 C -13.2876 0.0872 -2.3391 0
M  V30 43 C -14.2779 -0.4215 -3.3826 0
M  V30 44 H -0.0931 -1.06 -3.6347 0
M  V30 45 H -2.0945 0.9229 -3.4454 0
M  V30 46 H -2.043 -0.6073 -2.4915 0
M  V30 47 H 0.6819 1.5049 -0.5166 0
M  V30 48 H -0.007 -0.139 -0.1403 0
M  V30 49 H -1.2201 2.2006 -1.6612 0
M  V30 50 H 3.0407 0.8195 -0.5471 0
M  V30 51 H 2.4536 -0.7752 0.02 0
M  V30 52 H 4.903 -0.3408 -1.8219 0
M  V30 53 H 4.9691 -0.4693 -0.0337 0
M  V30 54 H 4.1231 -2.6726 -2.0317 0
M  V30 55 H 3.7661 -2.7716 -0.2771 0
M  V30 56 H -4.2531 0.5853 1.1638 0
M  V30 57 H -3.0342 0.4267 2.4791 0
M  V30 58 H 5.7994 -4.0019 -0.7078 0
M  V30 59 H 6.1931 -2.5431 0.2593 0
M  V30 60 H -3.2338 2.8846 2.9528 0
M  V30 61 H -4.4622 3.0576 1.6639 0
M  V30 62 H 6.9963 -1.3815 -1.8501 0
M  V30 63 H 6.5248 -2.825 -2.8091 0
M  V30 64 H -5.0233 0.9211 3.7986 0
M  V30 65 H -4.9478 2.5949 4.3748 0
M  V30 66 H 8.91 -2.8788 -2.4556 0
M  V30 67 H 8.1875 -4.214 -1.4991 0
M  V30 68 H -6.6347 3.3258 2.6826 0
M  V30 69 H -7.2454 2.1674 3.8794 0
M  V30 70 H 8.4517 -2.97 0.592 0
M  V30 71 H 8.8599 -1.4508 -0.2928 0
M  V30 72 H -6.4391 1.5329 0.9637 0
M  V30 73 H -8.091 1.7058 1.5777 0
M  V30 74 H 10.9861 -2.433 -1.0941 0
M  V30 75 H 10.5399 -4.0319 -0.4279 0
M  V30 76 H -7.5263 -0.6725 1.2912 0
M  V30 77 H -6.0726 -0.5193 2.2924 0
M  V30 78 H 12.1747 -2.9129 1.0401 0
M  V30 79 H 10.6361 -3.2198 1.8753 0
M  V30 80 H -7.4049 -0.13 4.3306 0
M  V30 81 H -7.8885 -1.6394 3.5266 0
M  V30 82 H 11.5634 -1.0034 2.4726 0
M  V30 83 H 9.9604 -0.8642 1.7157 0
M  V30 84 H -9.8258 -0.3949 4.4029 0
M  V30 85 H -9.436 1.039 3.4108 0
M  V30 86 H 11.3777 0.9012 0.8953 0
M  V30 87 H 11.0555 -0.1937 -0.4752 0
M  V30 88 H -10.0511 -1.7614 2.2452 0
M  V30 89 H -9.8449 -0.2221 1.3266 0
M  V30 90 H 13.3048 -1.2713 -0.1542 0
M  V30 91 H 13.6329 -0.2133 1.2602 0
M  V30 92 H -12.0324 -0.7991 3.4264 0
M  V30 93 H -11.8532 0.7425 2.525 0
M  V30 94 H 14.7065 0.4576 -0.9591 0
M  V30 95 H 13.0726 0.8067 -1.6144 0
M  V30 96 H -13.6211 -0.9091 1.6717 0
M  V30 97 H -12.2955 -2.0159 1.1806 0
M  V30 98 H 12.729 2.5695 0.1306 0
M  V30 99 H 14.3022 2.1411 0.9043 0
M  V30 100 H -11.3939 -0.2821 -0.3749 0
M  V30 101 H -12.6217 0.9085 0.2054 0
M  V30 102 H 14.5045 4.1612 -0.5216 0
M  V30 103 H 13.9234 3.2373 -1.9593 0
M  V30 104 H 15.5088 2.8154 -1.1823 0
M  V30 105 H -13.2167 -1.7715 -1.2154 0
M  V30 106 H -14.4542 -0.5878 -0.6366 0
M  V30 107 H -12.2554 -0.0209 -2.7389 0
M  V30 108 H -13.4829 1.1669 -2.1548 0
M  V30 109 H -14.1639 0.1649 -4.3188 0
M  V30 110 H -14.0856 -1.4928 -3.6076 0
M  V30 111 H -15.32 -0.304 -3.0146 0
M  V30 END ATOM
M  V30 BEGIN BOND
M  V30 1 2 1 2
M  V30 2 1 2 3
M  V30 3 1 2 4
M  V30 4 1 4 5
M  V30 5 1 4 6
M  V30 6 1 5 7
M  V30 7 1 5 8
M  V30 8 1 6 9
M  V30 9 2 7 10
M  V30 10 1 7 11
M  V30 11 1 9 12
M  V30 12 1 11 13
M  V30 13 1 12 14
M  V30 14 1 13 15
M  V30 15 2 14 16
M  V30 16 1 14 17
M  V30 17 1 15 18
M  V30 18 1 17 19
M  V30 19 1 18 20
M  V30 20 1 19 21
M  V30 21 1 20 22
M  V30 22 1 21 23
M  V30 23 1 22 24
M  V30 24 1 23 25
M  V30 25 1 24 26
M  V30 26 1 25 27
M  V30 27 1 26 28
M  V30 28 1 27 29
M  V30 29 1 28 30
M  V30 30 1 29 31
M  V30 31 1 30 32
M  V30 32 1 31 33
M  V30 33 1 32 34
M  V30 34 1 33 35
M  V30 35 1 34 36
M  V30 36 1 35 37
M  V30 37 1 36 38
M  V30 38 1 37 39
M  V30 39 1 38 40
M  V30 40 1 39 41
M  V30 41 1 41 42
M  V30 42 1 42 43
M  V30 43 1 8 9
M  V30 44 1 4 44
M  V30 45 1 6 45
M  V30 46 1 6 46
M  V30 47 1 8 47
M  V30 48 1 8 48
M  V30 49 1 9 49
M  V30 50 1 11 50
M  V30 51 1 11 51
M  V30 52 1 13 52
M  V30 53 1 13 53
M  V30 54 1 15 54
M  V30 55 1 15 55
M  V30 56 1 17 56
M  V30 57 1 17 57
M  V30 58 1 18 58
M  V30 59 1 18 59
M  V30 60 1 19 60
M  V30 61 1 19 61
M  V30 62 1 20 62
M  V30 63 1 20 63
M  V30 64 1 21 64
M  V30 65 1 21 65
M  V30 66 1 22 66
M  V30 67 1 22 67
M  V30 68 1 23 68
M  V30 69 1 23 69
M  V30 70 1 24 70
M  V30 71 1 24 71
M  V30 72 1 25 72
M  V30 73 1 25 73
M  V30 74 1 26 74
M  V30 75 1 26 75
M  V30 76 1 27 76
M  V30 77 1 27 77
M  V30 78 1 28 78
M  V30 79 1 28 79
M  V30 80 1 29 80
M  V30 81 1 29 81
M  V30 82 1 30 82
M  V30 83 1 30 83
M  V30 84 1 31 84
M  V30 85 1 31 85
M  V30 86 1 32 86
M  V30 87 1 32 87
M  V30 88 1 33 88
M  V30 89 1 33 89
M  V30 90 1 34 90
M  V30 91 1 34 91
M  V30 92 1 35 92
M  V30 93 1 35 93
M  V30 94 1 36 94
M  V30 95 1 36 95
M  V30 96 1 37 96
M  V30 97 1 37 97
M  V30 98 1 38 98
M  V30 99 1 38 99
M  V30 100 1 39 100
M  V30 101 1 39 101
M  V30 102 1 40 102
M  V30 103 1 40 103
M  V30 104 1 40 104
M  V30 105 1 41 105
M  V30 106 1 41 106
M  V30 107 1 42 107
M  V30 108 1 42 108
M  V30 109 1 43 109
M  V30 110 1 43 110
M  V30 111 1 43 111
M  V30 END BOND
M  V30 BEGIN COLLECTION
M  V30 MDLV30/STEABS ATOMS=(2 4 9)
M  V30 END COLLECTION
M  V30 END CTAB
M  END
>  <Structure No>
1229

>  <LogS>
-5.783875721

>  <MMFF94 Energy>
36.344

$$$$
Compound 1230
Actelion Java MolfileCreator 2.0

  0  0  0  0  0  0              0 V3000
M  V30 BEGIN CTAB
M  V30 COUNTS 28 27 0 0 0
M  V30 BEGIN ATOM
M  V30 1 C 2.6189 -0.2308 0.3848 0
M  V30 2 C 1.5033 -0.8298 0.8601 0
M  V30 3 C 3.8092 -0.0376 1.2883 0
M  V30 4 C 2.7362 0.2226 -1.0494 0
M  V30 5 C 0.2463 -1.0474 0.0543 0
M  V30 6 C -0.6818 0.1725 0.1551 0
M  V30 7 C -1.9049 0.0675 -0.7837 0 CFG=2
M  V30 8 C -2.625 1.3955 -0.8758 0
M  V30 9 C -2.8763 -1.0447 -0.3594 0
M  V30 10 C -3.1966 1.9862 0.1804 0
M  V30 11 H 1.4782 -1.1615 1.8949 0
M  V30 12 H 4.663 -0.6359 0.9073 0
M  V30 13 H 3.5991 -0.3496 2.334 0
M  V30 14 H 4.0967 1.0348 1.2988 0
M  V30 15 H 2.6487 -0.6481 -1.7323 0
M  V30 16 H 1.9469 0.9645 -1.2878 0
M  V30 17 H 3.7217 0.7012 -1.2322 0
M  V30 18 H 0.4867 -1.2762 -1.0051 0
M  V30 19 H -0.2725 -1.9355 0.4723 0
M  V30 20 H -0.1071 1.0857 -0.1136 0
M  V30 21 H -1.0181 0.289 1.2091 0
M  V30 22 H -1.5403 -0.1743 -1.8068 0
M  V30 23 H -2.6788 1.8905 -1.8411 0
M  V30 24 H -3.7872 -1.0198 -0.9954 0
M  V30 25 H -3.1783 -0.9258 0.7029 0
M  V30 26 H -2.4061 -2.0414 -0.4892 0
M  V30 27 H -3.1685 1.5301 1.1647 0
M  V30 28 H -3.7004 2.9398 0.0607 0
M  V30 END ATOM
M  V30 BEGIN BOND
M  V30 1 2 1 2
M  V30 2 1 1 3
M  V30 3 1 1 4
M  V30 4 1 2 5
M  V30 5 1 5 6
M  V30 6 1 6 7
M  V30 7 1 7 8
M  V30 8 1 7 9
M  V30 9 2 8 10
M  V30 10 1 2 11
M  V30 11 1 3 12
M  V30 12 1 3 13
M  V30 13 1 3 14
M  V30 14 1 4 15
M  V30 15 1 4 16
M  V30 16 1 4 17
M  V30 17 1 5 18
M  V30 18 1 5 19
M  V30 19 1 6 20
M  V30 20 1 6 21
M  V30 21 1 7 22
M  V30 22 1 8 23
M  V30 23 1 9 24
M  V30 24 1 9 25
M  V30 25 1 9 26
M  V30 26 1 10 27
M  V30 27 1 10 28
M  V30 END BOND
M  V30 BEGIN COLLECTION
M  V30 MDLV30/STEABS ATOMS=(1 7)
M  V30 END COLLECTION
M  V30 END CTAB
M  END
>  <Structure No>
1230

>  <LogS>
-5.964586446

>  <MMFF94 Energy>
19.689

$$$$
Compound 1231
Actelion Java MolfileCreator 2.0

  0  0  0  0  0  0              0 V3000
M  V30 BEGIN CTAB
M  V30 COUNTS 31 30 0 0 0
M  V30 BEGIN ATOM
M  V30 1 O 5.5654 -0.9389 0.5476 0
M  V30 2 C 4.5721 -0.223 0.2539 0
M  V30 3 O 4.0747 0.6796 1.1853 0 CHG=-1
M  V30 4 C 3.906 -0.3689 -1.0794 0
M  V30 5 C 3.009 -1.6155 -1.1429 0
M  V30 6 C 1.8426 -1.609 -0.1378 0
M  V30 7 C 0.8041 -0.518 -0.4378 0
M  V30 8 C -0.4134 -0.6505 0.4849 0
M  V30 9 C -1.4445 0.4481 0.199 0
M  V30 10 C -2.6678 0.3062 1.1167 0
M  V30 11 C -3.6697 1.4588 0.9476 0
M  V30 12 C -4.4112 1.4066 -0.3878 0
M  V30 13 H 3.3222 0.5454 -1.3131 0
M  V30 14 H 4.6916 -0.4569 -1.8605 0
M  V30 15 H 2.603 -1.7132 -2.1732 0
M  V30 16 H 3.6337 -2.5161 -0.9547 0
M  V30 17 H 1.3451 -2.6022 -0.1916 0
M  V30 18 H 2.229 -1.4892 0.8972 0
M  V30 19 H 0.4733 -0.602 -1.4964 0
M  V30 20 H 1.26 0.4832 -0.285 0
M  V30 21 H -0.886 -1.6457 0.3312 0
M  V30 22 H -0.0807 -0.5768 1.544 0
M  V30 23 H -1.7632 0.3738 -0.8625 0
M  V30 24 H -0.9745 1.4432 0.3605 0
M  V30 25 H -2.325 0.3035 2.1747 0
M  V30 26 H -3.1752 -0.6645 0.9247 0
M  V30 27 H -4.4205 1.3935 1.7647 0
M  V30 28 H -3.1496 2.4363 1.0473 0
M  V30 29 H -3.7173 1.6024 -1.231 0
M  V30 30 H -4.8935 0.4158 -0.5266 0
M  V30 31 H -5.2 2.188 -0.4019 0
M  V30 END ATOM
M  V30 BEGIN BOND
M  V30 1 2 1 2
M  V30 2 1 2 3
M  V30 3 1 2 4
M  V30 4 1 4 5
M  V30 5 1 5 6
M  V30 6 1 6 7
M  V30 7 1 7 8
M  V30 8 1 8 9
M  V30 9 1 9 10
M  V30 10 1 10 11
M  V30 11 1 11 12
M  V30 12 1 4 13
M  V30 13 1 4 14
M  V30 14 1 5 15
M  V30 15 1 5 16
M  V30 16 1 6 17
M  V30 17 1 6 18
M  V30 18 1 7 19
M  V30 19 1 7 20
M  V30 20 1 8 21
M  V30 21 1 8 22
M  V30 22 1 9 23
M  V30 23 1 9 24
M  V30 24 1 10 25
M  V30 25 1 10 26
M  V30 26 1 11 27
M  V30 27 1 11 28
M  V30 28 1 12 29
M  V30 29 1 12 30
M  V30 30 1 12 31
M  V30 END BOND
M  V30 END CTAB
M  END
>  <Structure No>
1231

>  <LogS>
-7.53462824

>  <MMFF94 Energy>
2.1738

$$$$
Compound 1232
Actelion Java MolfileCreator 2.0

  0  0  0  0  0  0              0 V3000
M  V30 BEGIN CTAB
M  V30 COUNTS 63 62 0 0 0
M  V30 BEGIN ATOM
M  V30 1 S -0.2376 1.4267 2.6169 0
M  V30 2 C -0.0467 0.781 0.9209 0
M  V30 3 C 1.3001 2.4172 2.6176 0
M  V30 4 C -1.2816 0.0513 0.5129 0
M  V30 5 C 2.5161 1.5528 2.5097 0
M  V30 6 O -1.636 -0.9815 1.1457 0
M  V30 7 O -2.0259 0.514 -0.578 0
M  V30 8 O 2.6456 0.5499 3.2642 0
M  V30 9 O 3.5162 1.891 1.5917 0
M  V30 10 C -3.2398 -0.0949 -1.0156 0
M  V30 11 C 4.665 1.0818 1.3471 0
M  V30 12 C -4.4148 0.2836 -0.0885 0 CFG=2
M  V30 13 C 4.3278 -0.0914 0.3957 0 CFG=2
M  V30 14 C -5.6567 -0.6039 -0.3629 0
M  V30 15 C -4.6974 1.8046 -0.1628 0
M  V30 16 C 5.3347 -1.2569 0.5613 0
M  V30 17 C 4.2316 0.359 -1.085 0
M  V30 18 C -6.296 -0.4028 -1.7482 0
M  V30 19 C -5.783 2.2619 0.8119 0
M  V30 20 C 6.7788 -0.9017 0.1552 0
M  V30 21 C 2.9484 1.1281 -1.3988 0
M  V30 22 C -7.5142 -1.3182 -1.9227 0
M  V30 23 C 7.7623 -2.0525 0.4193 0
M  V30 24 C -8.1329 -1.156 -3.3087 0
M  V30 25 C 7.5828 -3.2191 -0.5527 0
M  V30 26 H 0.1383 1.6196 0.2167 0
M  V30 27 H 0.8109 0.0785 0.8854 0
M  V30 28 H 1.3518 2.9895 3.5668 0
M  V30 29 H 1.2738 3.1451 1.7793 0
M  V30 30 H -3.1081 -1.1987 -1.056 0
M  V30 31 H -3.4473 0.2551 -2.0489 0
M  V30 32 H 5.4551 1.7208 0.8983 0
M  V30 33 H 5.0637 0.7073 2.3163 0
M  V30 34 H -4.0986 0.0587 0.9543 0
M  V30 35 H 3.3397 -0.5049 0.6965 0
M  V30 36 H -5.3567 -1.67 -0.26 0
M  V30 37 H -6.4186 -0.4216 0.4244 0
M  V30 38 H -4.9762 2.1055 -1.1955 0
M  V30 39 H -3.7656 2.3541 0.0943 0
M  V30 40 H 5.3248 -1.5918 1.6217 0
M  V30 41 H 4.9786 -2.1137 -0.0485 0
M  V30 42 H 4.2511 -0.5353 -1.7461 0
M  V30 43 H 5.1041 0.992 -1.3565 0
M  V30 44 H -6.6264 0.651 -1.8647 0
M  V30 45 H -5.5545 -0.6367 -2.5414 0
M  V30 46 H -5.5678 1.8917 1.8362 0
M  V30 47 H -5.8143 3.3705 0.8369 0
M  V30 48 H -6.7802 1.8983 0.4878 0
M  V30 49 H 6.8226 -0.6233 -0.9189 0
M  V30 50 H 7.1203 -0.0251 0.7454 0
M  V30 51 H 2.0598 0.5052 -1.1675 0
M  V30 52 H 2.9242 1.376 -2.4808 0
M  V30 53 H 2.9009 2.0784 -0.8294 0
M  V30 54 H -7.211 -2.3798 -1.7869 0
M  V30 55 H -8.2801 -1.0693 -1.1551 0
M  V30 56 H 7.6554 -2.4175 1.4642 0
M  V30 57 H 8.7966 -1.6625 0.3042 0
M  V30 58 H -9.0181 -1.8204 -3.4 0
M  V30 59 H -7.398 -1.4333 -4.0944 0
M  V30 60 H -8.4589 -0.1055 -3.4651 0
M  V30 61 H 8.3971 -3.9577 -0.3967 0
M  V30 62 H 6.6153 -3.7322 -0.377 0
M  V30 63 H 7.6281 -2.8614 -1.6033 0
M  V30 END ATOM
M  V30 BEGIN BOND
M  V30 1 1 1 2
M  V30 2 1 1 3
M  V30 3 1 2 4
M  V30 4 1 3 5
M  V30 5 2 4 6
M  V30 6 1 4 7
M  V30 7 2 5 8
M  V30 8 1 5 9
M  V30 9 1 7 10
M  V30 10 1 9 11
M  V30 11 1 10 12
M  V30 12 1 11 13
M  V30 13 1 12 14
M  V30 14 1 12 15
M  V30 15 1 13 16
M  V30 16 1 13 17
M  V30 17 1 14 18
M  V30 18 1 15 19
M  V30 19 1 16 20
M  V30 20 1 17 21
M  V30 21 1 18 22
M  V30 22 1 20 23
M  V30 23 1 22 24
M  V30 24 1 23 25
M  V30 25 1 2 26
M  V30 26 1 2 27
M  V30 27 1 3 28
M  V30 28 1 3 29
M  V30 29 1 10 30
M  V30 30 1 10 31
M  V30 31 1 11 32
M  V30 32 1 11 33
M  V30 33 1 12 34
M  V30 34 1 13 35
M  V30 35 1 14 36
M  V30 36 1 14 37
M  V30 37 1 15 38
M  V30 38 1 15 39
M  V30 39 1 16 40
M  V30 40 1 16 41
M  V30 41 1 17 42
M  V30 42 1 17 43
M  V30 43 1 18 44
M  V30 44 1 18 45
M  V30 45 1 19 46
M  V30 46 1 19 47
M  V30 47 1 19 48
M  V30 48 1 20 49
M  V30 49 1 20 50
M  V30 50 1 21 51
M  V30 51 1 21 52
M  V30 52 1 21 53
M  V30 53 1 22 54
M  V30 54 1 22 55
M  V30 55 1 23 56
M  V30 56 1 23 57
M  V30 57 1 24 58
M  V30 58 1 24 59
M  V30 59 1 24 60
M  V30 60 1 25 61
M  V30 61 1 25 62
M  V30 62 1 25 63
M  V30 END BOND
M  V30 BEGIN COLLECTION
M  V30 MDLV30/STEABS ATOMS=(2 12 13)
M  V30 END COLLECTION
M  V30 END CTAB
M  END
>  <Structure No>
1232

>  <LogS>
-6.654998171

>  <MMFF94 Energy>
45.64

$$$$
Compound 1233
Actelion Java MolfileCreator 2.0

  0  0  0  0  0  0              0 V3000
M  V30 BEGIN CTAB
M  V30 COUNTS 40 42 0 0 0
M  V30 BEGIN ATOM
M  V30 1 O 1.8487 -0.9642 -2.1704 0
M  V30 2 C 2.3775 -0.4365 -1.1534 0
M  V30 3 C 1.557 -0.1657 0.0511 0
M  V30 4 C 3.818 -0.0891 -1.1658 0
M  V30 5 C 2.1485 0.4264 1.187 0
M  V30 6 C 0.1886 -0.4911 0.0723 0
M  V30 7 C 4.4101 0.5017 -0.0282 0
M  V30 8 C 4.6063 -0.3427 -2.3034 0
M  V30 9 C 3.5893 0.7737 1.1752 0
M  V30 10 C 1.3598 0.6866 2.3213 0
M  V30 11 C -0.5885 -0.2414 1.213 0
M  V30 12 C 5.7787 0.8275 -0.0506 0
M  V30 13 C 5.9633 -0.0139 -2.3107 0
M  V30 14 O 4.1183 1.3021 2.1918 0
M  V30 15 C 0.0028 0.3602 2.3312 0
M  V30 16 C -2.0597 -0.5596 1.2109 0
M  V30 17 C 6.5482 0.5697 -1.1869 0
M  V30 18 C -2.8638 0.6217 0.6594 0
M  V30 19 C -4.3342 0.2902 0.6077 0
M  V30 20 C -4.945 -0.31 -0.4377 0
M  V30 21 C -6.417 -0.6147 -0.3313 0
M  V30 22 C -4.2009 -0.6635 -1.7042 0
M  V30 23 H -0.2784 -0.9369 -0.7978 0
M  V30 24 H 4.1746 -0.7949 -3.1873 0
M  V30 25 H 1.7908 1.1466 3.2018 0
M  V30 26 H 6.2547 1.2813 0.8096 0
M  V30 27 H 6.5628 -0.2122 -3.1898 0
M  V30 28 H -0.5883 0.5785 3.2122 0
M  V30 29 H -2.2424 -1.4695 0.6001 0
M  V30 30 H -2.3993 -0.7896 2.2452 0
M  V30 31 H 7.6004 0.8234 -1.196 0
M  V30 32 H -2.4864 0.922 -0.3411 0
M  V30 33 H -2.7276 1.4942 1.3349 0
M  V30 34 H -4.9218 0.536 1.4892 0
M  V30 35 H -6.8053 -1.0969 -1.2524 0
M  V30 36 H -6.9844 0.3257 -0.1664 0
M  V30 37 H -6.5968 -1.3016 0.5227 0
M  V30 38 H -3.8148 0.2587 -2.1862 0
M  V30 39 H -3.3559 -1.3452 -1.4789 0
M  V30 40 H -4.8616 -1.1753 -2.4343 0
M  V30 END ATOM
M  V30 BEGIN BOND
M  V30 1 2 1 2
M  V30 2 1 2 3
M  V30 3 1 2 4
M  V30 4 2 3 5
M  V30 5 1 3 6
M  V30 6 2 4 7
M  V30 7 1 4 8
M  V30 8 1 5 9
M  V30 9 1 5 10
M  V30 10 2 6 11
M  V30 11 1 7 12
M  V30 12 2 8 13
M  V30 13 2 9 14
M  V30 14 2 10 15
M  V30 15 1 11 16
M  V30 16 2 12 17
M  V30 17 1 16 18
M  V30 18 1 18 19
M  V30 19 2 19 20
M  V30 20 1 20 21
M  V30 21 1 20 22
M  V30 22 1 7 9
M  V30 23 1 11 15
M  V30 24 1 13 17
M  V30 25 1 6 23
M  V30 26 1 8 24
M  V30 27 1 10 25
M  V30 28 1 12 26
M  V30 29 1 13 27
M  V30 30 1 15 28
M  V30 31 1 16 29
M  V30 32 1 16 30
M  V30 33 1 17 31
M  V30 34 1 18 32
M  V30 35 1 18 33
M  V30 36 1 19 34
M  V30 37 1 21 35
M  V30 38 1 21 36
M  V30 39 1 21 37
M  V30 40 1 22 38
M  V30 41 1 22 39
M  V30 42 1 22 40
M  V30 END BOND
M  V30 END CTAB
M  END
>  <Structure No>
1233

>  <LogS>
-7.985818524

>  <MMFF94 Energy>
80.413

$$$$
Compound 1234
Actelion Java MolfileCreator 2.0

  0  0  0  0  0  0              0 V3000
M  V30 BEGIN CTAB
M  V30 COUNTS 69 69 0 0 0
M  V30 BEGIN ATOM
M  V30 1 O 1.4971 -0.2362 -2.6015 0
M  V30 2 C 0.3694 -0.5314 -3.0812 0
M  V30 3 O -0.6264 0.4414 -3.2014 0
M  V30 4 C 0.1068 -1.8965 -3.5671 0
M  V30 5 C -0.5238 1.7513 -2.642 0
M  V30 6 C 0.3814 -3.0632 -2.7985 0
M  V30 7 C -0.4172 -2.0288 -4.864 0
M  V30 8 C -0.6309 1.72 -1.1108 0
M  V30 9 C 0.8128 -3.0179 -1.3725 0
M  V30 10 C 0.1605 -4.3244 -3.3888 0
M  V30 11 C -0.6353 -3.2881 -5.4205 0
M  V30 12 C -1.9096 1.0106 -0.6409 0
M  V30 13 O 1.2694 -4.0603 -0.8267 0
M  V30 14 O 0.6613 -1.8499 -0.6149 0
M  V30 15 C -0.3403 -4.4333 -4.6872 0
M  V30 16 C -2.0922 1.144 0.8797 0
M  V30 17 C 0.9368 -1.7655 0.7835 0
M  V30 18 C -3.1576 0.1863 1.4415 0
M  V30 19 C 2.4396 -1.8224 1.0852 0
M  V30 20 C -4.5774 0.4124 0.8924 0
M  V30 21 C 3.2215 -0.7185 0.3532 0
M  V30 22 C -5.1488 1.7906 1.273 0
M  V30 23 C 4.7192 -0.7295 0.7093 0
M  V30 24 C -6.6467 1.9161 0.9526 0
M  V30 25 C 5.042 -0.0857 2.07 0
M  V30 26 C -6.9284 1.9518 -0.5507 0
M  V30 27 C 4.9831 1.4542 2.0272 0
M  V30 28 C 5.6072 2.0973 3.2744 0
M  V30 29 C 4.7403 1.9207 4.5203 0
M  V30 30 H 0.437 2.2199 -2.9476 0
M  V30 31 H -1.3474 2.3743 -3.0503 0
M  V30 32 H -0.6357 -1.1504 -5.4589 0
M  V30 33 H 0.2584 1.2046 -0.6865 0
M  V30 34 H -0.629 2.767 -0.7373 0
M  V30 35 H 0.3468 -5.2344 -2.8339 0
M  V30 36 H -1.0293 -3.3741 -6.4253 0
M  V30 37 H -2.7858 1.4623 -1.1554 0
M  V30 38 H -1.8496 -0.0654 -0.9156 0
M  V30 39 H -0.5075 -5.4107 -5.1217 0
M  V30 40 H -2.3391 2.1953 1.1382 0
M  V30 41 H -1.1331 0.9087 1.3873 0
M  V30 42 H 0.4133 -2.5848 1.3217 0
M  V30 43 H 0.5323 -0.8063 1.1639 0
M  V30 44 H -2.8524 -0.8595 1.217 0
M  V30 45 H -3.1763 0.283 2.5497 0
M  V30 46 H 2.5687 -1.7143 2.182 0
M  V30 47 H 2.8429 -2.8161 0.7982 0
M  V30 48 H -4.5793 0.284 -0.21 0
M  V30 49 H -5.2338 -0.3784 1.3159 0
M  V30 50 H 2.7745 0.2762 0.5659 0
M  V30 51 H 3.1387 -0.8989 -0.7384 0
M  V30 52 H -4.5953 2.5979 0.7437 0
M  V30 53 H -5.0175 1.9475 2.3677 0
M  V30 54 H 5.282 -0.2008 -0.0903 0
M  V30 55 H 5.0896 -1.7792 0.7104 0
M  V30 56 H -7.2107 1.0757 1.4164 0
M  V30 57 H -7.0217 2.8629 1.4027 0
M  V30 58 H 6.0666 -0.3982 2.3603 0
M  V30 59 H 4.3509 -0.4652 2.8473 0
M  V30 60 H -8.0057 2.1604 -0.7186 0
M  V30 61 H -6.3329 2.7523 -1.0399 0
M  V30 62 H -6.6896 0.972 -1.0168 0
M  V30 63 H 5.5442 1.8174 1.14 0
M  V30 64 H 3.9317 1.7952 1.9193 0
M  V30 65 H 6.6128 1.6596 3.467 0
M  V30 66 H 5.7423 3.1862 3.0899 0
M  V30 67 H 4.6516 0.8466 4.7908 0
M  V30 68 H 5.2105 2.4548 5.3736 0
M  V30 69 H 3.727 2.3424 4.3508 0
M  V30 END ATOM
M  V30 BEGIN BOND
M  V30 1 2 1 2
M  V30 2 1 2 3
M  V30 3 1 2 4
M  V30 4 1 3 5
M  V30 5 2 4 6
M  V30 6 1 4 7
M  V30 7 1 5 8
M  V30 8 1 6 9
M  V30 9 1 6 10
M  V30 10 2 7 11
M  V30 11 1 8 12
M  V30 12 2 9 13
M  V30 13 1 9 14
M  V30 14 2 10 15
M  V30 15 1 12 16
M  V30 16 1 14 17
M  V30 17 1 16 18
M  V30 18 1 17 19
M  V30 19 1 18 20
M  V30 20 1 19 21
M  V30 21 1 20 22
M  V30 22 1 21 23
M  V30 23 1 22 24
M  V30 24 1 23 25
M  V30 25 1 24 26
M  V30 26 1 25 27
M  V30 27 1 27 28
M  V30 28 1 28 29
M  V30 29 1 11 15
M  V30 30 1 5 30
M  V30 31 1 5 31
M  V30 32 1 7 32
M  V30 33 1 8 33
M  V30 34 1 8 34
M  V30 35 1 10 35
M  V30 36 1 11 36
M  V30 37 1 12 37
M  V30 38 1 12 38
M  V30 39 1 15 39
M  V30 40 1 16 40
M  V30 41 1 16 41
M  V30 42 1 17 42
M  V30 43 1 17 43
M  V30 44 1 18 44
M  V30 45 1 18 45
M  V30 46 1 19 46
M  V30 47 1 19 47
M  V30 48 1 20 48
M  V30 49 1 20 49
M  V30 50 1 21 50
M  V30 51 1 21 51
M  V30 52 1 22 52
M  V30 53 1 22 53
M  V30 54 1 23 54
M  V30 55 1 23 55
M  V30 56 1 24 56
M  V30 57 1 24 57
M  V30 58 1 25 58
M  V30 59 1 25 59
M  V30 60 1 26 60
M  V30 61 1 26 61
M  V30 62 1 26 62
M  V30 63 1 27 63
M  V30 64 1 27 64
M  V30 65 1 28 65
M  V30 66 1 28 66
M  V30 67 1 29 67
M  V30 68 1 29 68
M  V30 69 1 29 69
M  V30 END BOND
M  V30 END CTAB
M  END
>  <Structure No>
1234

>  <LogS>
-4.780941415

>  <MMFF94 Energy>
17.078

$$$$
Compound 1235
Actelion Java MolfileCreator 2.0

  0  0  0  0  0  0              0 V3000
M  V30 BEGIN CTAB
M  V30 COUNTS 67 66 0 0 0
M  V30 BEGIN ATOM
M  V30 1 O 7.1442 -1.5667 2.8215 0
M  V30 2 C 8.2223 -1.8457 2.2329 0
M  V30 3 O 9.4315 -1.6855 2.8981 0 CHG=-1
M  V30 4 C 8.2047 -2.3054 0.8075 0
M  V30 5 C 8.5399 -1.1672 -0.17 0
M  V30 6 C 7.5566 0.0169 -0.1287 0
M  V30 7 C 6.148 -0.3607 -0.6104 0
M  V30 8 C 5.2382 0.8725 -0.6701 0
M  V30 9 C 3.8179 0.4846 -1.1055 0
M  V30 10 C 2.8953 1.702 -1.3039 0
M  V30 11 C 2.6437 2.5438 -0.0387 0
M  V30 12 C 2.0324 1.7808 1.1524 0
M  V30 13 C 0.591 1.2841 0.9092 0
M  V30 14 C 0.5343 -0.1976 0.4955 0
M  V30 15 C -0.8966 -0.7571 0.4869 0
M  V30 16 C -1.7619 -0.1539 -0.6296 0
M  V30 17 C -3.1044 -0.887 -0.7389 0
M  V30 18 C -4.0024 -0.2413 -1.8044 0
M  V30 19 C -5.2511 -1.0822 -2.126 0
M  V30 20 C -6.1862 -1.3422 -0.9308 0
M  V30 21 C -6.7636 -0.0523 -0.3285 0
M  V30 22 C -7.8291 -0.3699 0.727 0
M  V30 23 C -8.394 0.9143 1.3442 0
M  V30 24 C -9.4621 0.6002 2.3877 0
M  V30 25 H 8.9641 -3.1077 0.6889 0
M  V30 26 H 7.2207 -2.7571 0.5607 0
M  V30 27 H 8.5706 -1.5797 -1.202 0
M  V30 28 H 9.5599 -0.788 0.0588 0
M  V30 29 H 7.959 0.8147 -0.7905 0
M  V30 30 H 7.506 0.4358 0.8993 0
M  V30 31 H 6.2131 -0.8202 -1.6213 0
M  V30 32 H 5.7002 -1.0991 0.0884 0
M  V30 33 H 5.2043 1.338 0.338 0
M  V30 34 H 5.6589 1.6082 -1.3903 0
M  V30 35 H 3.8753 -0.0555 -2.0756 0
M  V30 36 H 3.3806 -0.2201 -0.3694 0
M  V30 37 H 1.9232 1.3619 -1.7176 0
M  V30 38 H 3.3437 2.3635 -2.0773 0
M  V30 39 H 3.5982 3.0084 0.2872 0
M  V30 40 H 1.9704 3.3871 -0.3073 0
M  V30 41 H 2.0005 2.495 2.0044 0
M  V30 42 H 2.7011 0.958 1.4814 0
M  V30 43 H 0.0211 1.4004 1.8576 0
M  V30 44 H 0.0908 1.9178 0.1463 0
M  V30 45 H 0.9841 -0.3411 -0.5074 0
M  V30 46 H 1.1279 -0.799 1.2191 0
M  V30 47 H -1.3774 -0.5797 1.4738 0
M  V30 48 H -0.83 -1.857 0.3386 0
M  V30 49 H -1.9527 0.9188 -0.4126 0
M  V30 50 H -1.2239 -0.2307 -1.6002 0
M  V30 51 H -3.6155 -0.8488 0.2472 0
M  V30 52 H -2.9188 -1.9507 -1.005 0
M  V30 53 H -4.2985 0.7796 -1.4828 0
M  V30 54 H -3.4222 -0.1295 -2.7468 0
M  V30 55 H -4.9254 -2.062 -2.5372 0
M  V30 56 H -5.8258 -0.5706 -2.9281 0
M  V30 57 H -7.0246 -1.9765 -1.2934 0
M  V30 58 H -5.6558 -1.9238 -0.1468 0
M  V30 59 H -7.2178 0.5632 -1.1359 0
M  V30 60 H -5.9492 0.5319 0.1506 0
M  V30 61 H -7.3779 -0.9955 1.528 0
M  V30 62 H -8.6559 -0.9442 0.2546 0
M  V30 63 H -7.5753 1.4883 1.8307 0
M  V30 64 H -8.8435 1.547 0.5481 0
M  V30 65 H -10.3147 0.0648 1.9179 0
M  V30 66 H -9.8372 1.5466 2.8324 0
M  V30 67 H -9.0352 -0.029 3.198 0
M  V30 END ATOM
M  V30 BEGIN BOND
M  V30 1 2 1 2
M  V30 2 1 2 3
M  V30 3 1 2 4
M  V30 4 1 4 5
M  V30 5 1 5 6
M  V30 6 1 6 7
M  V30 7 1 7 8
M  V30 8 1 8 9
M  V30 9 1 9 10
M  V30 10 1 10 11
M  V30 11 1 11 12
M  V30 12 1 12 13
M  V30 13 1 13 14
M  V30 14 1 14 15
M  V30 15 1 15 16
M  V30 16 1 16 17
M  V30 17 1 17 18
M  V30 18 1 18 19
M  V30 19 1 19 20
M  V30 20 1 20 21
M  V30 21 1 21 22
M  V30 22 1 22 23
M  V30 23 1 23 24
M  V30 24 1 4 25
M  V30 25 1 4 26
M  V30 26 1 5 27
M  V30 27 1 5 28
M  V30 28 1 6 29
M  V30 29 1 6 30
M  V30 30 1 7 31
M  V30 31 1 7 32
M  V30 32 1 8 33
M  V30 33 1 8 34
M  V30 34 1 9 35
M  V30 35 1 9 36
M  V30 36 1 10 37
M  V30 37 1 10 38
M  V30 38 1 11 39
M  V30 39 1 11 40
M  V30 40 1 12 41
M  V30 41 1 12 42
M  V30 42 1 13 43
M  V30 43 1 13 44
M  V30 44 1 14 45
M  V30 45 1 14 46
M  V30 46 1 15 47
M  V30 47 1 15 48
M  V30 48 1 16 49
M  V30 49 1 16 50
M  V30 50 1 17 51
M  V30 51 1 17 52
M  V30 52 1 18 53
M  V30 53 1 18 54
M  V30 54 1 19 55
M  V30 55 1 19 56
M  V30 56 1 20 57
M  V30 57 1 20 58
M  V30 58 1 21 59
M  V30 59 1 21 60
M  V30 60 1 22 61
M  V30 61 1 22 62
M  V30 62 1 23 63
M  V30 63 1 23 64
M  V30 64 1 24 65
M  V30 65 1 24 66
M  V30 66 1 24 67
M  V30 END BOND
M  V30 END CTAB
M  END
>  <Structure No>
1235

>  <LogS>
-6.876976741

>  <MMFF94 Energy>
1.8868

$$$$
Compound 1236
Actelion Java MolfileCreator 2.0

  0  0  0  0  0  0              0 V3000
M  V30 BEGIN CTAB
M  V30 COUNTS 43 42 0 0 0
M  V30 BEGIN ATOM
M  V30 1 O 7.4556 -0.5478 -0.7827 0
M  V30 2 C 6.9929 0.6169 -0.9035 0
M  V30 3 O 7.8568 1.6804 -1.1326 0 CHG=-1
M  V30 4 C 5.5254 0.8638 -0.748 0
M  V30 5 C 5.179 1.1219 0.7241 0
M  V30 6 C 3.7091 1.5243 0.9259 0
M  V30 7 C 2.7374 0.3576 0.6913 0
M  V30 8 C 1.2958 0.7691 1.028 0
M  V30 9 C 0.2998 -0.3944 0.8918 0
M  V30 10 C -0.0487 -0.7039 -0.5742 0
M  V30 11 C -0.957 -1.9381 -0.727 0
M  V30 12 C -2.335 -1.8239 -0.0494 0
M  V30 13 C -3.1796 -0.6645 -0.5986 0
M  V30 14 C -4.6072 -0.7122 -0.0409 0
M  V30 15 C -5.4396 0.4673 -0.5578 0
M  V30 16 C -6.8645 0.417 -0.0136 0
M  V30 17 H 4.9715 -0.0212 -1.1259 0
M  V30 18 H 5.2401 1.7432 -1.3649 0
M  V30 19 H 5.4094 0.2192 1.3316 0
M  V30 20 H 5.8153 1.9528 1.1011 0
M  V30 21 H 3.5945 1.8824 1.9728 0
M  V30 22 H 3.4539 2.371 0.2509 0
M  V30 23 H 3.0334 -0.5026 1.3308 0
M  V30 24 H 2.7923 0.0468 -0.3711 0
M  V30 25 H 0.98 1.6153 0.3788 0
M  V30 26 H 1.2648 1.1249 2.0813 0
M  V30 27 H -0.628 -0.1003 1.4265 0
M  V30 28 H 0.7056 -1.3017 1.3906 0
M  V30 29 H 0.8829 -0.9138 -1.1391 0
M  V30 30 H -0.521 0.182 -1.0488 0
M  V30 31 H -0.4308 -2.8246 -0.3101 0
M  V30 32 H -1.1074 -2.1325 -1.8117 0
M  V30 33 H -2.2169 -1.7206 1.05 0
M  V30 34 H -2.8756 -2.7791 -0.2277 0
M  V30 35 H -2.7152 0.3023 -0.3081 0
M  V30 36 H -3.2166 -0.7248 -1.7087 0
M  V30 37 H -4.5698 -0.6763 1.0706 0
M  V30 38 H -5.0906 -1.6659 -0.348 0
M  V30 39 H -4.9687 1.4247 -0.2437 0
M  V30 40 H -5.4779 0.4417 -1.6692 0
M  V30 41 H -6.8557 0.4615 1.0966 0
M  V30 42 H -7.3691 -0.5176 -0.3395 0
M  V30 43 H -7.4406 1.2848 -0.3993 0
M  V30 END ATOM
M  V30 BEGIN BOND
M  V30 1 2 1 2
M  V30 2 1 2 3
M  V30 3 1 2 4
M  V30 4 1 4 5
M  V30 5 1 5 6
M  V30 6 1 6 7
M  V30 7 1 7 8
M  V30 8 1 8 9
M  V30 9 1 9 10
M  V30 10 1 10 11
M  V30 11 1 11 12
M  V30 12 1 12 13
M  V30 13 1 13 14
M  V30 14 1 14 15
M  V30 15 1 15 16
M  V30 16 1 4 17
M  V30 17 1 4 18
M  V30 18 1 5 19
M  V30 19 1 5 20
M  V30 20 1 6 21
M  V30 21 1 6 22
M  V30 22 1 7 23
M  V30 23 1 7 24
M  V30 24 1 8 25
M  V30 25 1 8 26
M  V30 26 1 9 27
M  V30 27 1 9 28
M  V30 28 1 10 29
M  V30 29 1 10 30
M  V30 30 1 11 31
M  V30 31 1 11 32
M  V30 32 1 12 33
M  V30 33 1 12 34
M  V30 34 1 13 35
M  V30 35 1 13 36
M  V30 36 1 14 37
M  V30 37 1 14 38
M  V30 38 1 15 39
M  V30 39 1 15 40
M  V30 40 1 16 41
M  V30 41 1 16 42
M  V30 42 1 16 43
M  V30 END BOND
M  V30 END CTAB
M  END
>  <Structure No>
1236

>  <LogS>
-6.707031139

>  <MMFF94 Energy>
1.2603

$$$$
Compound 1237
Actelion Java MolfileCreator 2.0

  0  0  0  0  0  0              0 V3000
M  V30 BEGIN CTAB
M  V30 COUNTS 53 52 0 0 0
M  V30 BEGIN ATOM
M  V30 1 O -6.1176 -0.9392 2.4278 0
M  V30 2 C -5.9076 -0.5885 1.2369 0
M  V30 3 O -5.7888 0.7606 0.9274 0 CHG=-1
M  V30 4 C -5.7477 -1.6216 0.1644 0
M  V30 5 C -4.3543 -2.2697 0.1915 0
M  V30 6 C -3.196 -1.2865 -0.0574 0
M  V30 7 C -3.2155 -0.6933 -1.4775 0
M  V30 8 C -1.9229 0.0655 -1.816 0
M  V30 9 C -1.8017 1.3931 -1.0536 0
M  V30 10 C -0.5338 2.147 -1.472 0
M  V30 11 C -0.3488 3.3983 -0.6517 0
M  V30 12 C 0.239 3.4409 0.5594 0
M  V30 13 C 0.8551 2.2555 1.2602 0
M  V30 14 C 2.3065 2.0405 0.8081 0
M  V30 15 C 3.0349 0.9634 1.6322 0
M  V30 16 C 2.403 -0.4424 1.5752 0
M  V30 17 C 2.2202 -1.0247 0.1595 0
M  V30 18 C 3.5085 -1.1104 -0.6774 0
M  V30 19 C 4.5565 -2.0479 -0.0613 0
M  V30 20 C 5.7494 -2.228 -0.9956 0
M  V30 21 H -6.5114 -2.4142 0.3178 0
M  V30 22 H -5.9485 -1.1693 -0.829 0
M  V30 23 H -4.2025 -2.7533 1.1816 0
M  V30 24 H -4.3192 -3.0774 -0.5714 0
M  V30 25 H -2.2438 -1.8415 0.0902 0
M  V30 26 H -3.2276 -0.4754 0.6995 0
M  V30 27 H -4.0831 -0.0096 -1.5972 0
M  V30 28 H -3.3301 -1.5198 -2.2126 0
M  V30 29 H -1.9236 0.2791 -2.9075 0
M  V30 30 H -1.0419 -0.5782 -1.6004 0
M  V30 31 H -2.6896 2.0279 -1.2683 0
M  V30 32 H -1.7757 1.195 0.0368 0
M  V30 33 H -0.6306 2.442 -2.5393 0
M  V30 34 H 0.3561 1.4916 -1.3961 0
M  V30 35 H -0.7305 4.3272 -1.0656 0
M  V30 36 H 0.2919 4.4008 1.0653 0
M  V30 37 H 0.2503 1.3438 1.0887 0
M  V30 38 H 0.8448 2.4586 2.3529 0
M  V30 39 H 2.347 1.785 -0.2701 0
M  V30 40 H 2.8637 2.995 0.9328 0
M  V30 41 H 3.0658 1.2883 2.6951 0
M  V30 42 H 4.0911 0.9061 1.2933 0
M  V30 43 H 3.0276 -1.1349 2.1781 0
M  V30 44 H 1.4126 -0.4191 2.0775 0
M  V30 45 H 1.4725 -0.4199 -0.3935 0
M  V30 46 H 1.7858 -2.0437 0.2535 0
M  V30 47 H 3.9424 -0.0988 -0.8242 0
M  V30 48 H 3.2308 -1.4944 -1.6836 0
M  V30 49 H 4.1022 -3.0429 0.1378 0
M  V30 50 H 4.9253 -1.6274 0.8981 0
M  V30 51 H 6.2315 -1.2479 -1.1983 0
M  V30 52 H 5.4233 -2.6824 -1.9555 0
M  V30 53 H 6.4953 -2.8997 -0.521 0
M  V30 END ATOM
M  V30 BEGIN BOND
M  V30 1 2 1 2
M  V30 2 1 2 3
M  V30 3 1 2 4
M  V30 4 1 4 5
M  V30 5 1 5 6
M  V30 6 1 6 7
M  V30 7 1 7 8
M  V30 8 1 8 9
M  V30 9 1 9 10
M  V30 10 1 10 11
M  V30 11 2 11 12
M  V30 12 1 12 13
M  V30 13 1 13 14
M  V30 14 1 14 15
M  V30 15 1 15 16
M  V30 16 1 16 17
M  V30 17 1 17 18
M  V30 18 1 18 19
M  V30 19 1 19 20
M  V30 20 1 4 21
M  V30 21 1 4 22
M  V30 22 1 5 23
M  V30 23 1 5 24
M  V30 24 1 6 25
M  V30 25 1 6 26
M  V30 26 1 7 27
M  V30 27 1 7 28
M  V30 28 1 8 29
M  V30 29 1 8 30
M  V30 30 1 9 31
M  V30 31 1 9 32
M  V30 32 1 10 33
M  V30 33 1 10 34
M  V30 34 1 11 35
M  V30 35 1 12 36
M  V30 36 1 13 37
M  V30 37 1 13 38
M  V30 38 1 14 39
M  V30 39 1 14 40
M  V30 40 1 15 41
M  V30 41 1 15 42
M  V30 42 1 16 43
M  V30 43 1 16 44
M  V30 44 1 17 45
M  V30 45 1 17 46
M  V30 46 1 18 47
M  V30 47 1 18 48
M  V30 48 1 19 49
M  V30 49 1 19 50
M  V30 50 1 20 51
M  V30 51 1 20 52
M  V30 52 1 20 53
M  V30 END BOND
M  V30 END CTAB
M  END
>  <Structure No>
1237

>  <LogS>
-6.79723893

>  <MMFF94 Energy>
9.6954

$$$$
Compound 1238
Actelion Java MolfileCreator 2.0

  0  0  0  0  0  0              0 V3000
M  V30 BEGIN CTAB
M  V30 COUNTS 56 55 0 0 0
M  V30 BEGIN ATOM
M  V30 1 O 9.2791 1.4111 -0.235 0
M  V30 2 C 8.1183 1.5451 -0.7052 0
M  V30 3 O 7.6467 2.8128 -1.0205 0 CHG=-1
M  V30 4 C 7.2335 0.3492 -0.8821 0
M  V30 5 C 6.5714 -0.075 0.4386 0
M  V30 6 C 5.6433 0.9907 1.0561 0
M  V30 7 C 4.4633 1.4289 0.1645 0
M  V30 8 C 3.5378 0.2912 -0.3034 0
M  V30 9 C 2.8138 -0.4038 0.8619 0
M  V30 10 C 1.8607 -1.5139 0.3906 0
M  V30 11 C 0.6025 -0.9666 -0.3017 0
M  V30 12 C -0.4124 -2.0917 -0.5613 0
M  V30 13 C -1.6027 -1.6355 -1.4275 0
M  V30 14 C -2.6085 -0.715 -0.6967 0 CFG=1
M  V30 15 O -3.3879 -0.05 -1.6576 0
M  V30 16 C -3.5452 -1.5201 0.2327 0
M  V30 17 C -4.1927 -0.6672 1.3421 0
M  V30 18 C -5.121 0.4553 0.8463 0
M  V30 19 C -6.3474 -0.078 0.0851 0
M  V30 20 C -7.3847 1.0192 -0.1991 0
M  V30 21 C -6.9056 2.0259 -1.2456 0
M  V30 22 H 7.8483 -0.4963 -1.2586 0
M  V30 23 H 6.4654 0.5571 -1.6559 0
M  V30 24 H 6.0063 -1.017 0.2767 0
M  V30 25 H 7.3684 -0.3136 1.1767 0
M  V30 26 H 6.2435 1.8912 1.3086 0
M  V30 27 H 5.2532 0.6062 2.0221 0
M  V30 28 H 3.8577 2.1723 0.7274 0
M  V30 29 H 4.8549 1.9611 -0.7275 0
M  V30 30 H 4.1082 -0.4512 -0.8994 0
M  V30 31 H 2.7855 0.743 -0.983 0
M  V30 32 H 3.5667 -0.8763 1.527 0
M  V30 33 H 2.2526 0.3446 1.4629 0
M  V30 34 H 1.5514 -2.0985 1.2852 0
M  V30 35 H 2.3987 -2.2061 -0.2936 0
M  V30 36 H 0.8847 -0.5019 -1.2702 0
M  V30 37 H 0.1433 -0.1905 0.346 0
M  V30 38 H -0.7636 -2.5079 0.4051 0
M  V30 39 H 0.103 -2.9137 -1.1045 0
M  V30 40 H -2.1397 -2.5348 -1.8018 0
M  V30 41 H -1.2047 -1.1129 -2.3251 0
M  V30 42 H -2.0562 0.0356 -0.088 0
M  V30 43 H -2.8425 0.7055 -2.002 0
M  V30 44 H -4.3252 -2.0367 -0.3657 0
M  V30 45 H -2.9742 -2.3215 0.744 0
M  V30 46 H -3.3878 -0.2131 1.9605 0
M  V30 47 H -4.7709 -1.3394 2.0136 0
M  V30 48 H -4.5486 1.1675 0.2179 0
M  V30 49 H -5.4709 1.0195 1.7386 0
M  V30 50 H -6.0352 -0.5417 -0.8746 0
M  V30 51 H -6.8381 -0.865 0.6989 0
M  V30 52 H -8.3119 0.537 -0.5786 0
M  V30 53 H -7.6459 1.5536 0.7403 0
M  V30 54 H -6.609 1.5034 -2.18 0
M  V30 55 H -7.7288 2.7326 -1.4821 0
M  V30 56 H -6.0462 2.6133 -0.8616 0
M  V30 END ATOM
M  V30 BEGIN BOND
M  V30 1 2 1 2
M  V30 2 1 2 3
M  V30 3 1 2 4
M  V30 4 1 4 5
M  V30 5 1 5 6
M  V30 6 1 6 7
M  V30 7 1 7 8
M  V30 8 1 8 9
M  V30 9 1 9 10
M  V30 10 1 10 11
M  V30 11 1 11 12
M  V30 12 1 12 13
M  V30 13 1 13 14
M  V30 14 1 14 15
M  V30 15 1 14 16
M  V30 16 1 16 17
M  V30 17 1 17 18
M  V30 18 1 18 19
M  V30 19 1 19 20
M  V30 20 1 20 21
M  V30 21 1 4 22
M  V30 22 1 4 23
M  V30 23 1 5 24
M  V30 24 1 5 25
M  V30 25 1 6 26
M  V30 26 1 6 27
M  V30 27 1 7 28
M  V30 28 1 7 29
M  V30 29 1 8 30
M  V30 30 1 8 31
M  V30 31 1 9 32
M  V30 32 1 9 33
M  V30 33 1 10 34
M  V30 34 1 10 35
M  V30 35 1 11 36
M  V30 36 1 11 37
M  V30 37 1 12 38
M  V30 38 1 12 39
M  V30 39 1 13 40
M  V30 40 1 13 41
M  V30 41 1 14 42
M  V30 42 1 15 43
M  V30 43 1 16 44
M  V30 44 1 16 45
M  V30 45 1 17 46
M  V30 46 1 17 47
M  V30 47 1 18 48
M  V30 48 1 18 49
M  V30 49 1 19 50
M  V30 50 1 19 51
M  V30 51 1 20 52
M  V30 52 1 20 53
M  V30 53 1 21 54
M  V30 54 1 21 55
M  V30 55 1 21 56
M  V30 END BOND
M  V30 BEGIN COLLECTION
M  V30 MDLV30/STEABS ATOMS=(1 14)
M  V30 END COLLECTION
M  V30 END CTAB
M  END
>  <Structure No>
1238

>  <LogS>
-6.823553607

>  <MMFF94 Energy>
6.0113

$$$$
Compound 1239
Actelion Java MolfileCreator 2.0

  0  0  0  0  0  0              0 V3000
M  V30 BEGIN CTAB
M  V30 COUNTS 55 54 0 0 0
M  V30 BEGIN ATOM
M  V30 1 O 1.2447 1.556 -2.4127 0
M  V30 2 C 2.5871 1.2217 -2.1092 0
M  V30 3 C 0.3651 1.1617 -1.375 0
M  V30 4 C 2.9346 -0.1539 -2.6938 0
M  V30 5 C 0.1777 2.311 -0.3741 0
M  V30 6 C 4.4383 -0.4714 -2.6178 0
M  V30 7 C -0.928 2.0269 0.6541 0
M  V30 8 N 4.8833 -0.7059 -1.2336 0 CHG=1
M  V30 9 C -0.5335 0.9282 1.6566 0
M  V30 10 C 6.2936 -1.1298 -1.2103 0
M  V30 11 C -1.5032 0.8305 2.8488 0
M  V30 12 C 6.7989 -1.3364 0.2249 0
M  V30 13 C -2.9591 0.5033 2.4692 0
M  V30 14 C 6.178 -2.5137 0.846 0
M  V30 15 C -3.1001 -0.855 1.7609 0
M  V30 16 N 5.6899 -3.4429 1.3327 0
M  V30 17 C -4.5643 -1.3164 1.636 0
M  V30 18 C -5.4741 -0.3848 0.7979 0
M  V30 19 C -4.9805 -0.2394 -0.6497 0
M  V30 20 C -6.9117 -0.9206 0.8064 0
M  V30 21 H 3.2374 1.9862 -2.5843 0
M  V30 22 H 2.8052 1.2574 -1.0176 0
M  V30 23 H -0.6178 0.9307 -1.8389 0
M  V30 24 H 0.6963 0.2316 -0.8587 0
M  V30 25 H 2.3572 -0.9461 -2.1705 0
M  V30 26 H 2.6298 -0.1685 -3.7628 0
M  V30 27 H -0.1005 3.2276 -0.9391 0
M  V30 28 H 1.1346 2.5215 0.1508 0
M  V30 29 H 5.018 0.3629 -3.0742 0
M  V30 30 H 4.6208 -1.3839 -3.23 0
M  V30 31 H -1.858 1.7411 0.1183 0
M  V30 32 H -1.1311 2.9682 1.2097 0
M  V30 33 H 4.7899 0.1783 -0.6826 0
M  V30 34 H 4.2884 -1.4511 -0.8016 0
M  V30 35 H 0.4767 1.1531 2.0623 0
M  V30 36 H -0.4684 -0.0546 1.1463 0
M  V30 37 H 6.4252 -2.0743 -1.787 0
M  V30 38 H 6.9277 -0.3484 -1.6887 0
M  V30 39 H -1.4898 1.7948 3.4034 0
M  V30 40 H -1.1287 0.0507 3.548 0
M  V30 41 H 7.8985 -1.4907 0.2047 0
M  V30 42 H 6.5866 -0.4379 0.8429 0
M  V30 43 H -3.3687 1.3154 1.8339 0
M  V30 44 H -3.5576 0.4859 3.4062 0
M  V30 45 H -2.5526 -1.6245 2.3485 0
M  V30 46 H -2.6317 -0.8191 0.7563 0
M  V30 47 H -4.9878 -1.4152 2.6602 0
M  V30 48 H -4.569 -2.3333 1.1844 0
M  V30 49 H -5.4997 0.6234 1.2638 0
M  V30 50 H -4.0194 0.3138 -0.6817 0
M  V30 51 H -5.712 0.3432 -1.2498 0
M  V30 52 H -4.8459 -1.2368 -1.1211 0
M  V30 53 H -7.2926 -0.9796 1.8487 0
M  V30 54 H -6.9555 -1.9335 0.3515 0
M  V30 55 H -7.5809 -0.2414 0.2363 0
M  V30 END ATOM
M  V30 BEGIN BOND
M  V30 1 1 1 2
M  V30 2 1 1 3
M  V30 3 1 2 4
M  V30 4 1 3 5
M  V30 5 1 4 6
M  V30 6 1 5 7
M  V30 7 1 6 8
M  V30 8 1 7 9
M  V30 9 1 8 10
M  V30 10 1 9 11
M  V30 11 1 10 12
M  V30 12 1 11 13
M  V30 13 1 12 14
M  V30 14 1 13 15
M  V30 15 3 14 16
M  V30 16 1 15 17
M  V30 17 1 17 18
M  V30 18 1 18 19
M  V30 19 1 18 20
M  V30 20 1 2 21
M  V30 21 1 2 22
M  V30 22 1 3 23
M  V30 23 1 3 24
M  V30 24 1 4 25
M  V30 25 1 4 26
M  V30 26 1 5 27
M  V30 27 1 5 28
M  V30 28 1 6 29
M  V30 29 1 6 30
M  V30 30 1 7 31
M  V30 31 1 7 32
M  V30 32 1 8 33
M  V30 33 1 8 34
M  V30 34 1 9 35
M  V30 35 1 9 36
M  V30 36 1 10 37
M  V30 37 1 10 38
M  V30 38 1 11 39
M  V30 39 1 11 40
M  V30 40 1 12 41
M  V30 41 1 12 42
M  V30 42 1 13 43
M  V30 43 1 13 44
M  V30 44 1 15 45
M  V30 45 1 15 46
M  V30 46 1 17 47
M  V30 47 1 17 48
M  V30 48 1 18 49
M  V30 49 1 19 50
M  V30 50 1 19 51
M  V30 51 1 19 52
M  V30 52 1 20 53
M  V30 53 1 20 54
M  V30 54 1 20 55
M  V30 END BOND
M  V30 END CTAB
M  END
>  <Structure No>
1239

>  <LogS>
-3.618466492

>  <MMFF94 Energy>
11.337

$$$$
Compound 1240
Actelion Java MolfileCreator 2.0

  0  0  0  0  0  0              0 V3000
M  V30 BEGIN CTAB
M  V30 COUNTS 41 41 0 0 0
M  V30 BEGIN ATOM
M  V30 1 O 4.2582 1.6543 0.1574 0
M  V30 2 C 4.3476 0.608 0.8557 0
M  V30 3 O 4.0604 -0.6468 0.3077 0
M  V30 4 C 4.8198 0.701 2.2664 0
M  V30 5 C 3.556 -0.8305 -1.0148 0
M  V30 6 C 2.0719 -0.4289 -1.1035 0 CFG=2
M  V30 7 C 1.2132 -1.2576 -0.1289 0
M  V30 8 C 1.5471 -0.6178 -2.5342 0
M  V30 9 C -0.2734 -1.0461 -0.3334 0
M  V30 10 C 0.103 -0.1181 -2.6394 0
M  V30 11 C -0.7693 -0.6174 -1.515 0
M  V30 12 C -1.2197 -1.4542 0.774 0
M  V30 13 C -1.6164 -0.2593 1.6532 0
M  V30 14 C -2.4339 0.7609 0.8974 0
M  V30 15 C -3.7732 0.6994 0.7303 0
M  V30 16 C -4.443 1.7702 -0.0915 0
M  V30 17 C -4.61 -0.3917 1.3558 0
M  V30 18 H 4.4369 1.6313 2.7368 0
M  V30 19 H 5.9292 0.7097 2.2854 0
M  V30 20 H 4.4515 -0.1708 2.8468 0
M  V30 21 H 3.6694 -1.9016 -1.2881 0
M  V30 22 H 4.1623 -0.2356 -1.7329 0
M  V30 23 H 1.9798 0.6471 -0.8339 0
M  V30 24 H 1.4286 -2.3404 -0.2611 0
M  V30 25 H 1.4787 -0.9803 0.9145 0
M  V30 26 H 1.5885 -1.6935 -2.8166 0
M  V30 27 H 2.1774 -0.0477 -3.2513 0
M  V30 28 H -0.3279 -0.4466 -3.609 0
M  V30 29 H 0.0956 0.993 -2.6201 0
M  V30 30 H -1.8442 -0.5159 -1.6389 0
M  V30 31 H -0.7195 -2.2065 1.4219 0
M  V30 32 H -2.118 -1.9522 0.3515 0
M  V30 33 H -2.1657 -0.6178 2.5489 0
M  V30 34 H -0.6929 0.234 2.0272 0
M  V30 35 H -1.8864 1.5844 0.4451 0
M  V30 36 H -4.0329 1.7606 -1.1238 0
M  V30 37 H -4.2559 2.7658 0.3641 0
M  V30 38 H -5.5406 1.617 -0.1525 0
M  V30 39 H -4.2844 -1.3864 0.9909 0
M  V30 40 H -5.6842 -0.2755 1.102 0
M  V30 41 H -4.5189 -0.353 2.4615 0
M  V30 END ATOM
M  V30 BEGIN BOND
M  V30 1 2 1 2
M  V30 2 1 2 3
M  V30 3 1 2 4
M  V30 4 1 3 5
M  V30 5 1 5 6
M  V30 6 1 6 7
M  V30 7 1 6 8
M  V30 8 1 7 9
M  V30 9 1 8 10
M  V30 10 2 9 11
M  V30 11 1 9 12
M  V30 12 1 12 13
M  V30 13 1 13 14
M  V30 14 2 14 15
M  V30 15 1 15 16
M  V30 16 1 15 17
M  V30 17 1 10 11
M  V30 18 1 4 18
M  V30 19 1 4 19
M  V30 20 1 4 20
M  V30 21 1 5 21
M  V30 22 1 5 22
M  V30 23 1 6 23
M  V30 24 1 7 24
M  V30 25 1 7 25
M  V30 26 1 8 26
M  V30 27 1 8 27
M  V30 28 1 10 28
M  V30 29 1 10 29
M  V30 30 1 11 30
M  V30 31 1 12 31
M  V30 32 1 12 32
M  V30 33 1 13 33
M  V30 34 1 13 34
M  V30 35 1 14 35
M  V30 36 1 16 36
M  V30 37 1 16 37
M  V30 38 1 16 38
M  V30 39 1 17 39
M  V30 40 1 17 40
M  V30 41 1 17 41
M  V30 END BOND
M  V30 BEGIN COLLECTION
M  V30 MDLV30/STEABS ATOMS=(1 6)
M  V30 END COLLECTION
M  V30 END CTAB
M  END
>  <Structure No>
1240

>  <LogS>
-4.975624785

>  <MMFF94 Energy>
14.651

$$$$
Compound 1241
Actelion Java MolfileCreator 2.0

  0  0  0  0  0  0              0 V3000
M  V30 BEGIN CTAB
M  V30 COUNTS 81 88 0 0 0
M  V30 BEGIN ATOM
M  V30 1 O -6.9604 1.8798 -1.3891 0
M  V30 2 C -5.7858 2.0821 -0.9798 0
M  V30 3 C -5.0857 1.0722 -0.1286 0
M  V30 4 C -5.0756 3.3014 -1.4177 0
M  V30 5 C -5.7956 0.0466 0.557 0
M  V30 6 C -3.6693 1.1208 -0.0479 0
M  V30 7 C -3.6756 3.3608 -1.3134 0
M  V30 8 C -5.7791 4.3898 -1.966 0
M  V30 9 N -7.2314 0.0192 0.5475 0
M  V30 10 C -5.0839 -0.9533 1.2606 0
M  V30 11 C -2.9373 2.2025 -0.771 0
M  V30 12 C -2.9783 0.1267 0.6834 0
M  V30 13 C -2.9941 4.5094 -1.7542 0
M  V30 14 C -5.0933 5.5296 -2.3931 0
M  V30 15 C -5.779 -2.0191 2.0262 0
M  V30 16 C -3.6871 -0.9024 1.3031 0
M  V30 17 O -1.6929 2.1238 -0.9632 0
M  V30 18 N -1.5552 0.1836 0.8583 0
M  V30 19 C -3.7033 5.5893 -2.2859 0
M  V30 20 O -6.8047 -1.7419 2.7048 0
M  V30 21 C -5.2348 -3.4138 2.082 0
M  V30 22 C -0.6822 -0.8331 0.3531 0
M  V30 23 N 0.6482 -0.5898 0.266 0
M  V30 24 N -1.1773 -2.0195 -0.0848 0
M  V30 25 C 1.4836 -1.5186 -0.2664 0
M  V30 26 C -0.3502 -2.9693 -0.5952 0
M  V30 27 N 0.982 -2.7096 -0.6852 0
M  V30 28 N 2.887 -1.25 -0.3975 0
M  V30 29 C -0.8982 -4.2719 -1.0468 0
M  V30 30 C 3.4673 0.0494 -0.1763 0
M  V30 31 C -2.2881 -4.504 -1.039 0
M  V30 32 C -0.0402 -5.3013 -1.482 0
M  V30 33 C 4.6796 0.2045 0.5395 0
M  V30 34 C 2.8646 1.1657 -0.7637 0
M  V30 35 C -2.8035 -5.7361 -1.4511 0
M  V30 36 C -0.5622 -6.5313 -1.8946 0
M  V30 37 C 5.3341 -0.9516 1.2222 0
M  V30 38 C 5.2754 1.4911 0.6418 0
M  V30 39 C 3.4398 2.4362 -0.6838 0
M  V30 40 C -1.9419 -6.7494 -1.8787 0
M  V30 41 O 4.705 -2.0275 1.4165 0
M  V30 42 C 6.7178 -0.8293 1.7242 0
M  V30 43 C 6.517 1.6388 1.4622 0
M  V30 44 C 4.6632 2.6056 0.0032 0
M  V30 45 C 2.7745 3.558 -1.3933 0
M  V30 46 C 7.2991 0.4442 1.8438 0
M  V30 47 C 7.4502 -1.9678 2.1073 0
M  V30 48 O 6.8821 2.7691 1.8875 0
M  V30 49 N 5.2817 3.9017 0.0358 0
M  V30 50 O 3.4587 4.3726 -2.0702 0
M  V30 51 C 1.2834 3.7003 -1.3856 0
M  V30 52 C 8.6055 0.5667 2.3522 0
M  V30 53 C 8.7516 -1.8359 2.5995 0
M  V30 54 C 9.328 -0.5705 2.7226 0
M  V30 55 H -6.858 4.3618 -2.0596 0
M  V30 56 H -7.7863 0.8979 0.64 0
M  V30 57 H -7.7538 -0.8838 0.5416 0
M  V30 58 H -1.9153 4.5733 -1.6852 0
M  V30 59 H -5.6403 6.3652 -2.813 0
M  V30 60 H -3.1362 -1.6394 1.8739 0
M  V30 61 H -1.1322 1.068 1.2215 0
M  V30 62 H -3.1736 6.4706 -2.622 0
M  V30 63 H -4.4785 -3.487 2.893 0
M  V30 64 H -6.0533 -4.1373 2.2872 0
M  V30 65 H -4.7627 -3.6813 1.1133 0
M  V30 66 H 3.5056 -2.0261 -0.7241 0
M  V30 67 H -2.9787 -3.7344 -0.7167 0
M  V30 68 H 1.0334 -5.16 -1.4999 0
M  V30 69 H 1.9635 1.0295 -1.3475 0
M  V30 70 H -3.8731 -5.9059 -1.4382 0
M  V30 71 H 0.104 -7.3173 -2.2249 0
M  V30 72 H -2.3429 -7.703 -2.1968 0
M  V30 73 H 7.0197 -2.9577 2.0226 0
M  V30 74 H 4.7077 4.7726 0.0594 0
M  V30 75 H 6.3139 4.0089 -0.0785 0
M  V30 76 H 0.8636 3.3001 -0.4378 0
M  V30 77 H 1.0025 4.7726 -1.4661 0
M  V30 78 H 0.8502 3.1457 -2.2445 0
M  V30 79 H 9.0697 1.5394 2.4526 0
M  V30 80 H 9.3138 -2.715 2.8871 0
M  V30 81 H 10.3359 -0.4703 3.1054 0
M  V30 END ATOM
M  V30 BEGIN BOND
M  V30 1 2 1 2
M  V30 2 1 2 3
M  V30 3 1 2 4
M  V30 4 2 3 5
M  V30 5 1 3 6
M  V30 6 2 4 7
M  V30 7 1 4 8
M  V30 8 1 5 9
M  V30 9 1 5 10
M  V30 10 1 6 11
M  V30 11 2 6 12
M  V30 12 1 7 13
M  V30 13 2 8 14
M  V30 14 1 10 15
M  V30 15 2 10 16
M  V30 16 2 11 17
M  V30 17 1 12 18
M  V30 18 2 13 19
M  V30 19 2 15 20
M  V30 20 1 15 21
M  V30 21 1 18 22
M  V30 22 2 22 23
M  V30 23 1 22 24
M  V30 24 1 23 25
M  V30 25 2 24 26
M  V30 26 2 25 27
M  V30 27 1 25 28
M  V30 28 1 26 29
M  V30 29 1 28 30
M  V30 30 2 29 31
M  V30 31 1 29 32
M  V30 32 2 30 33
M  V30 33 1 30 34
M  V30 34 1 31 35
M  V30 35 2 32 36
M  V30 36 1 33 37
M  V30 37 1 33 38
M  V30 38 2 34 39
M  V30 39 2 35 40
M  V30 40 2 37 41
M  V30 41 1 37 42
M  V30 42 1 38 43
M  V30 43 2 38 44
M  V30 44 1 39 45
M  V30 45 2 42 46
M  V30 46 1 42 47
M  V30 47 2 43 48
M  V30 48 1 44 49
M  V30 49 2 45 50
M  V30 50 1 45 51
M  V30 51 1 46 52
M  V30 52 2 47 53
M  V30 53 2 52 54
M  V30 54 1 7 11
M  V30 55 1 12 16
M  V30 56 1 14 19
M  V30 57 1 26 27
M  V30 58 1 36 40
M  V30 59 1 39 44
M  V30 60 1 43 46
M  V30 61 1 53 54
M  V30 62 1 8 55
M  V30 63 1 9 56
M  V30 64 1 9 57
M  V30 65 1 13 58
M  V30 66 1 14 59
M  V30 67 1 16 60
M  V30 68 1 18 61
M  V30 69 1 19 62
M  V30 70 1 21 63
M  V30 71 1 21 64
M  V30 72 1 21 65
M  V30 73 1 28 66
M  V30 74 1 31 67
M  V30 75 1 32 68
M  V30 76 1 34 69
M  V30 77 1 35 70
M  V30 78 1 36 71
M  V30 79 1 40 72
M  V30 80 1 47 73
M  V30 81 1 49 74
M  V30 82 1 49 75
M  V30 83 1 51 76
M  V30 84 1 51 77
M  V30 85 1 51 78
M  V30 86 1 52 79
M  V30 87 1 53 80
M  V30 88 1 54 81
M  V30 END BOND
M  V30 END CTAB
M  END
>  <Structure No>
1241

>  <LogS>
-4.950431795

>  <MMFF94 Energy>
59.72

$$$$
Compound 1242
Actelion Java MolfileCreator 2.0

  0  0  0  0  0  0              0 V3000
M  V30 BEGIN CTAB
M  V30 COUNTS 61 60 0 0 0
M  V30 BEGIN ATOM
M  V30 1 O -6.1854 2.7367 -0.0781 0
M  V30 2 C -5.6703 1.5922 0.0513 0
M  V30 3 O -6.4566 0.4942 0.4142 0
M  V30 4 C -4.1966 1.4138 -0.1468 0
M  V30 5 C -7.8601 0.5908 0.6346 0
M  V30 6 C -3.9095 0.234 -1.0862 0
M  V30 7 C -8.4352 -0.8029 0.9206 0 CFG=2
M  V30 8 C -2.4231 0.1165 -1.4565 0
M  V30 9 O -8.2211 -1.6407 -0.1861 0
M  V30 10 C -9.9417 -0.7353 1.2011 0
M  V30 11 C -1.5389 -0.2494 -0.2544 0
M  V30 12 O -10.1906 -0.0766 2.4155 0
M  V30 13 C -0.106 -0.5641 -0.7014 0
M  V30 14 C 0.7993 -0.8428 0.5081 0
M  V30 15 C 2.1867 -1.3767 0.1092 0
M  V30 16 C 3.0151 -0.4312 -0.7784 0
M  V30 17 C 3.3032 0.9241 -0.1093 0
M  V30 18 C 4.3269 1.7587 -0.9087 0
M  V30 19 C 5.7371 1.7572 -0.295 0
M  V30 20 C 6.4043 0.3753 -0.3315 0
M  V30 21 C 7.8569 0.4543 0.1596 0
M  V30 22 C 8.5814 -0.8976 0.0778 0
M  V30 23 C 8.0795 -1.9013 1.1157 0
M  V30 24 H -3.7621 2.3452 -0.572 0
M  V30 25 H -3.736 1.2328 0.8465 0
M  V30 26 H -8.043 1.2632 1.501 0
M  V30 27 H -8.3504 1.0205 -0.2671 0
M  V30 28 H -4.4872 0.3728 -2.0267 0
M  V30 29 H -4.2512 -0.7155 -0.6181 0
M  V30 30 H -7.9327 -1.2287 1.8212 0
M  V30 31 H -2.3269 -0.6745 -2.2323 0
M  V30 32 H -2.0727 1.072 -1.9048 0
M  V30 33 H -7.2772 -1.9461 -0.14 0
M  V30 34 H -10.4757 -0.2419 0.354 0
M  V30 35 H -10.3387 -1.7703 1.2827 0
M  V30 36 H -1.9632 -1.1369 0.2647 0
M  V30 37 H -1.5146 0.6022 0.4596 0
M  V30 38 H -10.3744 0.8742 2.197 0
M  V30 39 H 0.2916 0.3048 -1.2694 0
M  V30 40 H -0.117 -1.4535 -1.3696 0
M  V30 41 H 0.9049 0.0766 1.1233 0
M  V30 42 H 0.3162 -1.6119 1.1502 0
M  V30 43 H 2.7621 -1.5945 1.035 0
M  V30 44 H 2.0584 -2.3421 -0.4261 0
M  V30 45 H 2.5011 -0.269 -1.7494 0
M  V30 46 H 3.9724 -0.943 -1.009 0
M  V30 47 H 2.3531 1.4989 -0.0588 0
M  V30 48 H 3.6499 0.7717 0.9366 0
M  V30 49 H 4.3755 1.4289 -1.9703 0
M  V30 50 H 3.9772 2.8143 -0.9254 0
M  V30 51 H 6.3594 2.4764 -0.8715 0
M  V30 52 H 5.687 2.1227 0.7546 0
M  V30 53 H 6.3876 -0.0175 -1.3722 0
M  V30 54 H 5.8365 -0.3152 0.3255 0
M  V30 55 H 8.4111 1.1791 -0.4758 0
M  V30 56 H 7.8838 0.8329 1.2048 0
M  V30 57 H 8.4731 -1.3295 -0.9408 0
M  V30 58 H 9.6654 -0.7249 0.2565 0
M  V30 59 H 8.1125 -1.4583 2.133 0
M  V30 60 H 7.043 -2.221 0.8842 0
M  V30 61 H 8.7284 -2.8019 1.1028 0
M  V30 END ATOM
M  V30 BEGIN BOND
M  V30 1 2 1 2
M  V30 2 1 2 3
M  V30 3 1 2 4
M  V30 4 1 3 5
M  V30 5 1 4 6
M  V30 6 1 5 7
M  V30 7 1 6 8
M  V30 8 1 7 9
M  V30 9 1 7 10
M  V30 10 1 8 11
M  V30 11 1 10 12
M  V30 12 1 11 13
M  V30 13 1 13 14
M  V30 14 1 14 15
M  V30 15 1 15 16
M  V30 16 1 16 17
M  V30 17 1 17 18
M  V30 18 1 18 19
M  V30 19 1 19 20
M  V30 20 1 20 21
M  V30 21 1 21 22
M  V30 22 1 22 23
M  V30 23 1 4 24
M  V30 24 1 4 25
M  V30 25 1 5 26
M  V30 26 1 5 27
M  V30 27 1 6 28
M  V30 28 1 6 29
M  V30 29 1 7 30
M  V30 30 1 8 31
M  V30 31 1 8 32
M  V30 32 1 9 33
M  V30 33 1 10 34
M  V30 34 1 10 35
M  V30 35 1 11 36
M  V30 36 1 11 37
M  V30 37 1 12 38
M  V30 38 1 13 39
M  V30 39 1 13 40
M  V30 40 1 14 41
M  V30 41 1 14 42
M  V30 42 1 15 43
M  V30 43 1 15 44
M  V30 44 1 16 45
M  V30 45 1 16 46
M  V30 46 1 17 47
M  V30 47 1 17 48
M  V30 48 1 18 49
M  V30 49 1 18 50
M  V30 50 1 19 51
M  V30 51 1 19 52
M  V30 52 1 20 53
M  V30 53 1 20 54
M  V30 54 1 21 55
M  V30 55 1 21 56
M  V30 56 1 22 57
M  V30 57 1 22 58
M  V30 58 1 23 59
M  V30 59 1 23 60
M  V30 60 1 23 61
M  V30 END BOND
M  V30 BEGIN COLLECTION
M  V30 MDLV30/STEABS ATOMS=(1 7)
M  V30 END COLLECTION
M  V30 END CTAB
M  END
>  <Structure No>
1242

>  <LogS>
-4.726791601

>  <MMFF94 Energy>
21.946

$$$$
Compound 1243
Actelion Java MolfileCreator 2.0

  0  0  0  0  0  0              0 V3000
M  V30 BEGIN CTAB
M  V30 COUNTS 88 89 0 0 0
M  V30 BEGIN ATOM
M  V30 1 O 5.6979 -3.0041 1.264 0
M  V30 2 C 4.4567 -2.866 1.0872 0
M  V30 3 O 3.9562 -1.799 0.3296 0
M  V30 4 C 3.5068 -3.8203 1.741 0
M  V30 5 C 4.7683 -0.7123 -0.1142 0
M  V30 6 C 3.192 -3.3952 3.1818 0
M  V30 7 C 4.0127 0.0606 -1.1945 0
M  V30 8 C 5.0771 0.217 1.068 0
M  V30 9 C 2.3969 -2.0817 3.2849 0
M  V30 10 C 4.769 1.3315 -1.6658 0
M  V30 11 C 5.8553 1.4901 0.6467 0
M  V30 12 C 0.9357 -2.2037 2.7998 0
M  V30 13 N 5.1872 2.1723 -0.5034 0 CHG=1
M  V30 14 C 3.7922 2.1569 -2.5427 0
M  V30 15 C 5.9676 0.9633 -2.5797 0
M  V30 16 C 7.3444 1.1585 0.3466 0
M  V30 17 C 5.8558 2.4601 1.8564 0
M  V30 18 C 0.6989 -1.5466 1.4234 0
M  V30 19 C -0.7965 -1.3664 1.1057 0
M  V30 20 C -1.5292 -2.7066 0.9103 0
M  V30 21 C -3.0368 -2.5208 0.7024 0
M  V30 22 C -3.3531 -1.8929 -0.6183 0
M  V30 23 O -3.2334 -2.5632 -1.6794 0
M  V30 24 O -3.7951 -0.5669 -0.6535 0
M  V30 25 C -4.2882 0.0726 -1.8311 0
M  V30 26 C -5.7029 -0.4334 -2.1698 0
M  V30 27 C -4.3006 1.5884 -1.6321 0
M  V30 28 C -6.8483 0.295 -1.3838 0
M  V30 29 C -5.2159 2.0254 -0.4486 0
M  V30 30 N -6.325 1.0485 -0.2039 0 CHG=1
M  V30 31 C -7.8518 -0.7718 -0.8751 0
M  V30 32 C -7.6342 1.2303 -2.3373 0
M  V30 33 C -5.7741 3.4473 -0.724 0
M  V30 34 C -4.3558 2.1453 0.84 0
M  V30 35 H 2.577 -3.907 1.1434 0
M  V30 36 H 3.9735 -4.8286 1.762 0
M  V30 37 H 5.7037 -1.1255 -0.5448 0
M  V30 38 H 4.1473 -3.2745 3.7388 0
M  V30 39 H 2.6267 -4.208 3.6884 0
M  V30 40 H 3.8283 -0.6136 -2.0595 0
M  V30 41 H 3.0163 0.3495 -0.7825 0
M  V30 42 H 4.1106 0.516 1.5338 0
M  V30 43 H 5.6545 -0.339 1.8406 0
M  V30 44 H 2.3809 -1.7944 4.3582 0
M  V30 45 H 2.9359 -1.2632 2.7662 0
M  V30 46 H 0.2813 -1.7069 3.5463 0
M  V30 47 H 0.6349 -3.2699 2.7641 0
M  V30 48 H 4.3184 2.6249 -0.1301 0
M  V30 49 H 5.7909 2.9603 -0.8381 0
M  V30 50 H 4.2861 3.085 -2.9073 0
M  V30 51 H 3.4544 1.5705 -3.4256 0
M  V30 52 H 2.8891 2.4537 -1.9657 0
M  V30 53 H 6.6182 0.1854 -2.1554 0
M  V30 54 H 5.6051 0.5538 -3.5481 0
M  V30 55 H 6.5816 1.8589 -2.8028 0
M  V30 56 H 7.9259 1.0447 1.2848 0
M  V30 57 H 7.4747 0.2036 -0.1889 0
M  V30 58 H 7.8179 1.966 -0.2446 0
M  V30 59 H 6.4337 3.3796 1.6166 0
M  V30 60 H 6.3077 1.9828 2.7545 0
M  V30 61 H 4.8188 2.7619 2.1243 0
M  V30 62 H 1.1695 -0.5364 1.4112 0
M  V30 63 H 1.1763 -2.1482 0.619 0
M  V30 64 H -0.8836 -0.7693 0.1711 0
M  V30 65 H -1.2808 -0.7872 1.9232 0
M  V30 66 H -1.0904 -3.2601 0.0497 0
M  V30 67 H -1.4029 -3.3359 1.8144 0
M  V30 68 H -3.4588 -1.9023 1.5264 0
M  V30 69 H -3.5315 -3.5142 0.746 0
M  V30 70 H -3.6029 -0.1536 -2.6791 0
M  V30 71 H -5.8538 -0.3175 -3.268 0
M  V30 72 H -5.7319 -1.5317 -1.9942 0
M  V30 73 H -4.6371 2.0557 -2.5827 0
M  V30 74 H -3.2586 1.9433 -1.4781 0
M  V30 75 H -7.118 1.5344 0.2776 0
M  V30 76 H -5.989 0.3335 0.4847 0
M  V30 77 H -8.2656 -1.3653 -1.7229 0
M  V30 78 H -8.6964 -0.2874 -0.3387 0
M  V30 79 H -7.3544 -1.4786 -0.1753 0
M  V30 80 H -6.955 1.8352 -2.9677 0
M  V30 81 H -8.3036 1.9069 -1.7653 0
M  V30 82 H -8.2645 0.6435 -3.038 0
M  V30 83 H -6.4209 3.7856 0.1139 0
M  V30 84 H -4.9411 4.176 -0.8313 0
M  V30 85 H -6.3688 3.4993 -1.6537 0
M  V30 86 H -3.5477 2.8976 0.7108 0
M  V30 87 H -3.8763 1.1804 1.1073 0
M  V30 88 H -4.9898 2.461 1.6979 0
M  V30 END ATOM
M  V30 BEGIN BOND
M  V30 1 2 1 2
M  V30 2 1 2 3
M  V30 3 1 2 4
M  V30 4 1 3 5
M  V30 5 1 4 6
M  V30 6 1 5 7
M  V30 7 1 5 8
M  V30 8 1 6 9
M  V30 9 1 7 10
M  V30 10 1 8 11
M  V30 11 1 9 12
M  V30 12 1 10 13
M  V30 13 1 10 14
M  V30 14 1 10 15
M  V30 15 1 11 16
M  V30 16 1 11 17
M  V30 17 1 12 18
M  V30 18 1 18 19
M  V30 19 1 19 20
M  V30 20 1 20 21
M  V30 21 1 21 22
M  V30 22 2 22 23
M  V30 23 1 22 24
M  V30 24 1 24 25
M  V30 25 1 25 26
M  V30 26 1 25 27
M  V30 27 1 26 28
M  V30 28 1 27 29
M  V30 29 1 28 30
M  V30 30 1 28 31
M  V30 31 1 28 32
M  V30 32 1 29 33
M  V30 33 1 29 34
M  V30 34 1 11 13
M  V30 35 1 29 30
M  V30 36 1 4 35
M  V30 37 1 4 36
M  V30 38 1 5 37
M  V30 39 1 6 38
M  V30 40 1 6 39
M  V30 41 1 7 40
M  V30 42 1 7 41
M  V30 43 1 8 42
M  V30 44 1 8 43
M  V30 45 1 9 44
M  V30 46 1 9 45
M  V30 47 1 12 46
M  V30 48 1 12 47
M  V30 49 1 13 48
M  V30 50 1 13 49
M  V30 51 1 14 50
M  V30 52 1 14 51
M  V30 53 1 14 52
M  V30 54 1 15 53
M  V30 55 1 15 54
M  V30 56 1 15 55
M  V30 57 1 16 56
M  V30 58 1 16 57
M  V30 59 1 16 58
M  V30 60 1 17 59
M  V30 61 1 17 60
M  V30 62 1 17 61
M  V30 63 1 18 62
M  V30 64 1 18 63
M  V30 65 1 19 64
M  V30 66 1 19 65
M  V30 67 1 20 66
M  V30 68 1 20 67
M  V30 69 1 21 68
M  V30 70 1 21 69
M  V30 71 1 25 70
M  V30 72 1 26 71
M  V30 73 1 26 72
M  V30 74 1 27 73
M  V30 75 1 27 74
M  V30 76 1 30 75
M  V30 77 1 30 76
M  V30 78 1 31 77
M  V30 79 1 31 78
M  V30 80 1 31 79
M  V30 81 1 32 80
M  V30 82 1 32 81
M  V30 83 1 32 82
M  V30 84 1 33 83
M  V30 85 1 33 84
M  V30 86 1 33 85
M  V30 87 1 34 86
M  V30 88 1 34 87
M  V30 89 1 34 88
M  V30 END BOND
M  V30 END CTAB
M  END
>  <Structure No>
1243

>  <LogS>
-5.05759511

>  <MMFF94 Energy>
34.708

$$$$
Compound 1244
Actelion Java MolfileCreator 2.0

  0  0  0  0  0  0              0 V3000
M  V30 BEGIN CTAB
M  V30 COUNTS 68 68 0 0 0
M  V30 BEGIN ATOM
M  V30 1 O -9.8762 -1.9535 0.8591 0
M  V30 2 C -9.3703 -0.6491 0.7713 0
M  V30 3 C -8.2633 -0.5797 -0.2824 0
M  V30 4 N -7.6419 0.7478 -0.2996 0
M  V30 5 C -6.265 1.0183 -0.5391 0
M  V30 6 C -8.3741 1.9856 -0.5313 0
M  V30 7 N -6.0419 2.2566 -0.8336 0 CHG=1
M  V30 8 C -5.1973 -0.0533 -0.4789 0
M  V30 9 C -7.2814 3.0185 -0.8371 0
M  V30 10 C -3.7563 0.4723 -0.5978 0
M  V30 11 C -2.7071 -0.6513 -0.5614 0
M  V30 12 C -2.522 -1.2486 0.8444 0
M  V30 13 C -1.4767 -2.3785 0.8809 0
M  V30 14 C -0.0318 -1.9404 0.5796 0
M  V30 15 C 0.5031 -0.9111 1.5868 0
M  V30 16 C 1.9835 -0.7083 1.4188 0
M  V30 17 C 2.4905 -0.0726 0.3503 0
M  V30 18 C 3.9699 0.152 0.1995 0
M  V30 19 C 4.7037 -1.1644 -0.1003 0
M  V30 20 C 6.2306 -0.9949 -0.1164 0
M  V30 21 C 6.7245 -0.2056 -1.3405 0
M  V30 22 C 8.2552 -0.2445 -1.4973 0
M  V30 23 C 9.0414 0.3862 -0.3333 0
M  V30 24 C 8.744 1.882 -0.1507 0
M  V30 25 C 9.6792 2.5072 0.8812 0
M  V30 26 H -10.4529 -2.0881 0.0628 0
M  V30 27 H -8.9516 -0.3646 1.7602 0
M  V30 28 H -10.1896 0.0634 0.5234 0
M  V30 29 H -7.5089 -1.3584 -0.0456 0
M  V30 30 H -8.6847 -0.7996 -1.2863 0
M  V30 31 H -8.9502 2.2692 0.3754 0
M  V30 32 H -9.0545 1.8689 -1.4026 0
M  V30 33 H -5.112 2.6801 -1.0432 0
M  V30 34 H -5.3142 -0.5795 0.4897 0
M  V30 35 H -5.3873 -0.7808 -1.2966 0
M  V30 36 H -7.4392 3.4836 -1.8337 0
M  V30 37 H -7.2436 3.8024 -0.0507 0
M  V30 38 H -3.6476 0.9928 -1.5742 0
M  V30 39 H -3.5491 1.2046 0.2133 0
M  V30 40 H -2.9858 -1.4512 -1.2817 0
M  V30 41 H -1.7448 -0.2115 -0.8975 0
M  V30 42 H -3.4829 -1.687 1.1845 0
M  V30 43 H -2.2559 -0.4513 1.5695 0
M  V30 44 H -1.7701 -3.1647 0.1512 0
M  V30 45 H -1.502 -2.8486 1.8882 0
M  V30 46 H 0.0434 -1.5419 -0.4535 0
M  V30 47 H 0.6091 -2.8488 0.6224 0
M  V30 48 H 0.3131 -1.2709 2.6211 0
M  V30 49 H -0.0121 0.0643 1.4577 0
M  V30 50 H 2.6479 -1.0624 2.2028 0
M  V30 51 H 1.8236 0.319 -0.4139 0
M  V30 52 H 4.1284 0.865 -0.6365 0
M  V30 53 H 4.3683 0.6155 1.1285 0
M  V30 54 H 4.3564 -1.5788 -1.0719 0
M  V30 55 H 4.4547 -1.909 0.6866 0
M  V30 56 H 6.6891 -2.008 -0.1315 0
M  V30 57 H 6.5503 -0.4906 0.8205 0
M  V30 58 H 6.3778 0.8468 -1.2893 0
M  V30 59 H 6.2815 -0.6513 -2.2581 0
M  V30 60 H 8.5788 -1.3019 -1.6113 0
M  V30 61 H 8.5276 0.2786 -2.4395 0
M  V30 62 H 10.1239 0.2585 -0.5528 0
M  V30 63 H 8.8364 -0.1598 0.6113 0
M  V30 64 H 8.8696 2.4143 -1.119 0
M  V30 65 H 7.6989 2.0214 0.1979 0
M  V30 66 H 9.5589 2.0047 1.8647 0
M  V30 67 H 9.4346 3.584 0.9997 0
M  V30 68 H 10.7363 2.4188 0.5502 0
M  V30 END ATOM
M  V30 BEGIN BOND
M  V30 1 1 1 2
M  V30 2 1 2 3
M  V30 3 1 3 4
M  V30 4 1 4 5
M  V30 5 1 4 6
M  V30 6 2 5 7
M  V30 7 1 5 8
M  V30 8 1 6 9
M  V30 9 1 8 10
M  V30 10 1 10 11
M  V30 11 1 11 12
M  V30 12 1 12 13
M  V30 13 1 13 14
M  V30 14 1 14 15
M  V30 15 1 15 16
M  V30 16 2 16 17
M  V30 17 1 17 18
M  V30 18 1 18 19
M  V30 19 1 19 20
M  V30 20 1 20 21
M  V30 21 1 21 22
M  V30 22 1 22 23
M  V30 23 1 23 24
M  V30 24 1 24 25
M  V30 25 1 7 9
M  V30 26 1 1 26
M  V30 27 1 2 27
M  V30 28 1 2 28
M  V30 29 1 3 29
M  V30 30 1 3 30
M  V30 31 1 6 31
M  V30 32 1 6 32
M  V30 33 1 7 33
M  V30 34 1 8 34
M  V30 35 1 8 35
M  V30 36 1 9 36
M  V30 37 1 9 37
M  V30 38 1 10 38
M  V30 39 1 10 39
M  V30 40 1 11 40
M  V30 41 1 11 41
M  V30 42 1 12 42
M  V30 43 1 12 43
M  V30 44 1 13 44
M  V30 45 1 13 45
M  V30 46 1 14 46
M  V30 47 1 14 47
M  V30 48 1 15 48
M  V30 49 1 15 49
M  V30 50 1 16 50
M  V30 51 1 17 51
M  V30 52 1 18 52
M  V30 53 1 18 53
M  V30 54 1 19 54
M  V30 55 1 19 55
M  V30 56 1 20 56
M  V30 57 1 20 57
M  V30 58 1 21 58
M  V30 59 1 21 59
M  V30 60 1 22 60
M  V30 61 1 22 61
M  V30 62 1 23 62
M  V30 63 1 23 63
M  V30 64 1 24 64
M  V30 65 1 24 65
M  V30 66 1 25 66
M  V30 67 1 25 67
M  V30 68 1 25 68
M  V30 END BOND
M  V30 END CTAB
M  END
>  <Structure No>
1244

>  <LogS>
-3.845830759

>  <MMFF94 Energy>
47.824

$$$$
Compound 1245
Actelion Java MolfileCreator 2.0

  0  0  0  0  0  0              0 V3000
M  V30 BEGIN CTAB
M  V30 COUNTS 39 39 0 0 0
M  V30 BEGIN ATOM
M  V30 1 O -0.6353 3.8962 -2.1454 0
M  V30 2 C 0.2292 3.4567 -1.3415 0
M  V30 3 O 1.2006 4.3232 -0.854 0 CHG=-1
M  V30 4 C 0.1631 2.0552 -0.8696 0
M  V30 5 C 1.3254 1.2916 -0.6196 0
M  V30 6 C -1.0967 1.4973 -0.6321 0
M  V30 7 O 2.5802 1.7875 -0.9822 0
M  V30 8 C 1.2249 -0.0011 -0.0338 0
M  V30 9 C -1.2447 0.2033 -0.1084 0
M  V30 10 C -0.0734 -0.5207 0.1998 0
M  V30 11 C 2.4992 -0.8306 0.304 0
M  V30 12 C -2.6666 -0.3549 0.1354 0
M  V30 13 C 3.4162 -0.0348 1.2637 0
M  V30 14 C 2.1857 -2.1761 1.0106 0
M  V30 15 C 3.2663 -1.1745 -0.9928 0
M  V30 16 C -3.3971 0.5329 1.1664 0
M  V30 17 C -2.675 -1.8053 0.6781 0
M  V30 18 C -3.4569 -0.3549 -1.1925 0
M  V30 19 H -1.9741 2.0965 -0.8371 0
M  V30 20 H 2.716 2.5953 -1.5747 0
M  V30 21 H -0.1789 -1.5009 0.6197 0
M  V30 22 H 3.8632 0.858 0.7867 0
M  V30 23 H 2.8437 0.2946 2.1577 0
M  V30 24 H 4.2674 -0.6613 1.6089 0
M  V30 25 H 1.6313 -2.0067 1.9594 0
M  V30 26 H 3.1217 -2.7185 1.2679 0
M  V30 27 H 1.5978 -2.8489 0.3491 0
M  V30 28 H 4.1236 -1.8484 -0.7763 0
M  V30 29 H 2.5933 -1.6884 -1.7127 0
M  V30 30 H 3.6846 -0.2774 -1.4885 0
M  V30 31 H -2.8201 0.5768 2.1155 0
M  V30 32 H -3.531 1.5694 0.7925 0
M  V30 33 H -4.4078 0.1277 1.3903 0
M  V30 34 H -2.1743 -1.8626 1.6688 0
M  V30 35 H -3.7168 -2.1689 0.8157 0
M  V30 36 H -2.1721 -2.4967 -0.032 0
M  V30 37 H -2.9179 -0.9487 -1.9619 0
M  V30 38 H -3.6037 0.6728 -1.5845 0
M  V30 39 H -4.4661 -0.7996 -1.0519 0
M  V30 END ATOM
M  V30 BEGIN BOND
M  V30 1 2 1 2
M  V30 2 1 2 3
M  V30 3 1 2 4
M  V30 4 2 4 5
M  V30 5 1 4 6
M  V30 6 1 5 7
M  V30 7 1 5 8
M  V30 8 2 6 9
M  V30 9 2 8 10
M  V30 10 1 8 11
M  V30 11 1 9 12
M  V30 12 1 11 13
M  V30 13 1 11 14
M  V30 14 1 11 15
M  V30 15 1 12 16
M  V30 16 1 12 17
M  V30 17 1 12 18
M  V30 18 1 9 10
M  V30 19 1 6 19
M  V30 20 1 7 20
M  V30 21 1 10 21
M  V30 22 1 13 22
M  V30 23 1 13 23
M  V30 24 1 13 24
M  V30 25 1 14 25
M  V30 26 1 14 26
M  V30 27 1 14 27
M  V30 28 1 15 28
M  V30 29 1 15 29
M  V30 30 1 15 30
M  V30 31 1 16 31
M  V30 32 1 16 32
M  V30 33 1 16 33
M  V30 34 1 17 34
M  V30 35 1 17 35
M  V30 36 1 17 36
M  V30 37 1 18 37
M  V30 38 1 18 38
M  V30 39 1 18 39
M  V30 END BOND
M  V30 END CTAB
M  END
>  <Structure No>
1245

>  <LogS>
-4.869471103

>  <MMFF94 Energy>
53.966

$$$$
Compound 1246
Actelion Java MolfileCreator 2.0

  0  0  0  0  0  0              0 V3000
M  V30 BEGIN CTAB
M  V30 COUNTS 25 24 0 0 0
M  V30 BEGIN ATOM
M  V30 1 O 1.5662 3.2127 0.7045 0
M  V30 2 C 1.5324 2.2366 -0.0902 0
M  V30 3 O 1.6058 2.4706 -1.4589 0 CHG=-1
M  V30 4 C 1.3605 0.838 0.4453 0 CFG=1
M  V30 5 C -0.1398 0.5043 0.6349 0
M  V30 6 C 2.1354 -0.1827 -0.4208 0
M  V30 7 C -0.9275 0.3585 -0.682 0
M  V30 8 C 2.1278 -1.593 0.1697 0
M  V30 9 C -2.4415 0.2366 -0.4499 0
M  V30 10 C -2.8351 -1.0908 0.1973 0
M  V30 11 H 1.8242 0.8222 1.4576 0
M  V30 12 H -0.2256 -0.4324 1.2236 0
M  V30 13 H -0.6036 1.3066 1.2508 0
M  V30 14 H 3.1951 0.1472 -0.4956 0
M  V30 15 H 1.7302 -0.2162 -1.4544 0
M  V30 16 H -0.7553 1.2537 -1.3157 0
M  V30 17 H -0.5739 -0.5305 -1.246 0
M  V30 18 H 2.812 -2.242 -0.416 0
M  V30 19 H 2.4745 -1.5753 1.2247 0
M  V30 20 H 1.1105 -2.0338 0.1206 0
M  V30 21 H -2.8023 1.0794 0.1788 0
M  V30 22 H -2.9541 0.3093 -1.4335 0
M  V30 23 H -3.9421 -1.1722 0.2276 0
M  V30 24 H -2.4344 -1.9441 -0.3898 0
M  V30 25 H -2.4569 -1.1478 1.2388 0
M  V30 END ATOM
M  V30 BEGIN BOND
M  V30 1 2 1 2
M  V30 2 1 2 3
M  V30 3 1 2 4
M  V30 4 1 4 5
M  V30 5 1 4 6
M  V30 6 1 5 7
M  V30 7 1 6 8
M  V30 8 1 7 9
M  V30 9 1 9 10
M  V30 10 1 4 11
M  V30 11 1 5 12
M  V30 12 1 5 13
M  V30 13 1 6 14
M  V30 14 1 6 15
M  V30 15 1 7 16
M  V30 16 1 7 17
M  V30 17 1 8 18
M  V30 18 1 8 19
M  V30 19 1 8 20
M  V30 20 1 9 21
M  V30 21 1 9 22
M  V30 22 1 10 23
M  V30 23 1 10 24
M  V30 24 1 10 25
M  V30 END BOND
M  V30 BEGIN COLLECTION
M  V30 MDLV30/STEABS ATOMS=(1 4)
M  V30 END COLLECTION
M  V30 END CTAB
M  END
>  <Structure No>
1246

>  <LogS>
-3.019941271

>  <MMFF94 Energy>
10.395

$$$$
Compound 1247
Actelion Java MolfileCreator 2.0

  0  0  0  0  0  0              0 V3000
M  V30 BEGIN CTAB
M  V30 COUNTS 51 54 0 0 0
M  V30 BEGIN ATOM
M  V30 1 O 2.8378 1.7831 -0.0809 0
M  V30 2 C 2.3533 0.7484 0.4551 0
M  V30 3 O 0.9748 0.6489 0.6754 0
M  V30 4 C 3.2384 -0.3644 0.8634 0
M  V30 5 C 0.0217 1.6234 0.248 0 CFG=2
M  V30 6 C 2.6935 -1.5262 1.4362 0
M  V30 7 C 4.6298 -0.2798 0.684 0
M  V30 8 C -1.3091 1.4103 0.9971 0 CFG=1
M  V30 9 C -0.1788 1.5465 -1.2765 0
M  V30 10 C 3.5225 -2.5869 1.8257 0
M  V30 11 C 5.4632 -1.338 1.0721 0
M  V30 12 O -2.313 2.2985 0.4987 0
M  V30 13 C -1.7741 -0.0368 0.9578 0
M  V30 14 C -1.3419 2.3925 -1.7453 0
M  V30 15 O 2.969 -3.7341 2.3929 0
M  V30 16 C 4.9121 -2.4922 1.6433 0
M  V30 17 O 6.8427 -1.2494 0.8929 0
M  V30 18 C -2.3595 2.74 -0.8299 0
M  V30 19 C -2.6125 -0.5212 -0.0622 0
M  V30 20 C -1.3029 -0.9348 1.9305 0
M  V30 21 C -1.4677 2.7911 -3.098 0
M  V30 22 O 5.7578 -3.5349 2.0233 0
M  V30 23 C -3.4352 3.532 -1.24 0
M  V30 24 C -2.9814 -1.8696 -0.1045 0
M  V30 25 C -1.661 -2.2885 1.8914 0
M  V30 26 O -0.5497 2.4058 -4.0777 0
M  V30 27 C -2.5497 3.5884 -3.4889 0
M  V30 28 C -3.5304 3.9631 -2.5638 0
M  V30 29 O -3.8186 -2.3078 -1.1304 0
M  V30 30 C -2.5064 -2.7595 0.8735 0
M  V30 31 O -1.1748 -3.1675 2.8583 0
M  V30 32 O -4.6083 4.7555 -2.9527 0
M  V30 33 O -2.877 -4.104 0.821 0
M  V30 34 H 0.3941 2.6403 0.5089 0
M  V30 35 H 1.6243 -1.616 1.5815 0
M  V30 36 H 5.0722 0.6055 0.2442 0
M  V30 37 H -1.141 1.6853 2.0618 0
M  V30 38 H 0.7579 1.9018 -1.7535 0
M  V30 39 H -0.3503 0.4928 -1.5847 0
M  V30 40 H 1.9698 -3.8276 2.5351 0
M  V30 41 H 7.2731 -0.4286 0.483 0
M  V30 42 H -2.9827 0.1375 -0.8345 0
M  V30 43 H -0.643 -0.5843 2.7151 0
M  V30 44 H 5.4068 -4.3888 2.4401 0
M  V30 45 H -4.2037 3.8062 -0.528 0
M  V30 46 H 0.2128 1.7644 -3.9048 0
M  V30 47 H -2.6344 3.905 -4.521 0
M  V30 48 H -4.115 -3.2732 -1.2092 0
M  V30 49 H -0.5569 -2.8546 3.5982 0
M  V30 50 H -4.7085 5.0825 -3.9067 0
M  V30 51 H -2.5567 -4.7793 1.5048 0
M  V30 END ATOM
M  V30 BEGIN BOND
M  V30 1 2 1 2
M  V30 2 1 2 3
M  V30 3 1 2 4
M  V30 4 1 3 5
M  V30 5 2 4 6
M  V30 6 1 4 7
M  V30 7 1 5 8
M  V30 8 1 5 9
M  V30 9 1 6 10
M  V30 10 2 7 11
M  V30 11 1 8 12
M  V30 12 1 8 13
M  V30 13 1 9 14
M  V30 14 1 10 15
M  V30 15 2 10 16
M  V30 16 1 11 17
M  V30 17 1 12 18
M  V30 18 2 13 19
M  V30 19 1 13 20
M  V30 20 1 14 21
M  V30 21 1 16 22
M  V30 22 1 18 23
M  V30 23 1 19 24
M  V30 24 2 20 25
M  V30 25 1 21 26
M  V30 26 2 21 27
M  V30 27 2 23 28
M  V30 28 1 24 29
M  V30 29 2 24 30
M  V30 30 1 25 31
M  V30 31 1 28 32
M  V30 32 1 30 33
M  V30 33 1 11 16
M  V30 34 2 14 18
M  V30 35 1 25 30
M  V30 36 1 27 28
M  V30 37 1 5 34
M  V30 38 1 6 35
M  V30 39 1 7 36
M  V30 40 1 8 37
M  V30 41 1 9 38
M  V30 42 1 9 39
M  V30 43 1 15 40
M  V30 44 1 17 41
M  V30 45 1 19 42
M  V30 46 1 20 43
M  V30 47 1 22 44
M  V30 48 1 23 45
M  V30 49 1 26 46
M  V30 50 1 27 47
M  V30 51 1 29 48
M  V30 52 1 31 49
M  V30 53 1 32 50
M  V30 54 1 33 51
M  V30 END BOND
M  V30 BEGIN COLLECTION
M  V30 MDLV30/STEABS ATOMS=(2 5 8)
M  V30 END COLLECTION
M  V30 END CTAB
M  END
>  <Structure No>
1247

>  <LogS>
-1.059160932

>  <MMFF94 Energy>
32.997

$$$$
Compound 1248
Actelion Java MolfileCreator 2.0

  0  0  0  0  0  0              0 V3000
M  V30 BEGIN CTAB
M  V30 COUNTS 61 60 0 0 0
M  V30 BEGIN ATOM
M  V30 1 O -4.2062 -1.9456 -0.8557 0
M  V30 2 C -3.2011 -2.2258 -1.8157 0
M  V30 3 C -3.8197 -2.4064 0.4248 0
M  V30 4 C -2.2411 -1.0385 -1.9612 0
M  V30 5 C -4.7496 -1.8041 1.4687 0
M  V30 6 C -2.9786 0.231 -2.4231 0
M  V30 7 C -2.0705 1.4749 -2.4642 0
M  V30 8 C -1.5596 1.9536 -1.091 0
M  V30 9 C -2.6917 2.3887 -0.141 0
M  V30 10 C -2.159 2.9771 1.1821 0
M  V30 11 C -2.2583 2.0089 2.3784 0
M  V30 12 C -1.4119 0.7313 2.2497 0
M  V30 13 C 0.0974 1.0169 2.2312 0
M  V30 14 C 0.9038 -0.29 2.2093 0
M  V30 15 C 2.4169 -0.0396 2.1076 0
M  V30 16 C 2.863 0.2549 0.6643 0
M  V30 17 C 4.3596 0.5944 0.5743 0
M  V30 18 C 5.2345 -0.585 0.9237 0
M  V30 19 C 5.5888 -1.5575 0.0645 0
M  V30 20 C 5.2333 -1.5764 -1.3995 0
M  V30 21 C 6.2675 -0.8128 -2.2214 0
M  V30 22 H -3.6961 -2.4042 -2.7947 0
M  V30 23 H -2.6269 -3.1557 -1.5866 0
M  V30 24 H -2.7763 -2.1053 0.6802 0
M  V30 25 H -3.9016 -3.5162 0.4695 0
M  V30 26 H -1.7385 -0.8705 -0.989 0
M  V30 27 H -1.4583 -1.2967 -2.7086 0
M  V30 28 H -5.8008 -2.0954 1.2578 0
M  V30 29 H -4.471 -2.173 2.4784 0
M  V30 30 H -4.6677 -0.6946 1.4551 0
M  V30 31 H -3.3654 0.0549 -3.4508 0
M  V30 32 H -3.8651 0.4247 -1.7853 0
M  V30 33 H -1.194 1.259 -3.1133 0
M  V30 34 H -2.6319 2.3066 -2.9447 0
M  V30 35 H -0.9323 1.1714 -0.6238 0
M  V30 36 H -0.8934 2.8258 -1.272 0
M  V30 37 H -3.3697 1.5376 0.0779 0
M  V30 38 H -3.2964 3.1686 -0.6561 0
M  V30 39 H -2.7829 3.863 1.4346 0
M  V30 40 H -1.1226 3.3608 1.0712 0
M  V30 41 H -1.9558 2.5499 3.3012 0
M  V30 42 H -3.323 1.7162 2.5146 0
M  V30 43 H -1.643 0.0833 3.1243 0
M  V30 44 H -1.7099 0.1654 1.3436 0
M  V30 45 H 0.3745 1.6034 3.1343 0
M  V30 46 H 0.3503 1.6207 1.3383 0
M  V30 47 H 0.5716 -0.9352 1.3658 0
M  V30 48 H 0.7034 -0.8427 3.1535 0
M  V30 49 H 2.7059 0.8008 2.7773 0
M  V30 50 H 2.9392 -0.954 2.4637 0
M  V30 51 H 2.2941 1.1211 0.2664 0
M  V30 52 H 2.63 -0.6187 0.0204 0
M  V30 53 H 4.5875 1.4263 1.2754 0
M  V30 54 H 4.5981 0.9709 -0.4408 0
M  V30 55 H 5.5868 -0.658 1.9476 0
M  V30 56 H 6.2065 -2.3696 0.4358 0
M  V30 57 H 4.221 -1.1617 -1.5792 0
M  V30 58 H 5.2169 -2.6318 -1.7469 0
M  V30 59 H 7.2588 -1.3168 -2.1536 0
M  V30 60 H 5.9495 -0.8027 -3.2876 0
M  V30 61 H 6.3598 0.2382 -1.8663 0
M  V30 END ATOM
M  V30 BEGIN BOND
M  V30 1 1 1 2
M  V30 2 1 1 3
M  V30 3 1 2 4
M  V30 4 1 3 5
M  V30 5 1 4 6
M  V30 6 1 6 7
M  V30 7 1 7 8
M  V30 8 1 8 9
M  V30 9 1 9 10
M  V30 10 1 10 11
M  V30 11 1 11 12
M  V30 12 1 12 13
M  V30 13 1 13 14
M  V30 14 1 14 15
M  V30 15 1 15 16
M  V30 16 1 16 17
M  V30 17 1 17 18
M  V30 18 2 18 19
M  V30 19 1 19 20
M  V30 20 1 20 21
M  V30 21 1 2 22
M  V30 22 1 2 23
M  V30 23 1 3 24
M  V30 24 1 3 25
M  V30 25 1 4 26
M  V30 26 1 4 27
M  V30 27 1 5 28
M  V30 28 1 5 29
M  V30 29 1 5 30
M  V30 30 1 6 31
M  V30 31 1 6 32
M  V30 32 1 7 33
M  V30 33 1 7 34
M  V30 34 1 8 35
M  V30 35 1 8 36
M  V30 36 1 9 37
M  V30 37 1 9 38
M  V30 38 1 10 39
M  V30 39 1 10 40
M  V30 40 1 11 41
M  V30 41 1 11 42
M  V30 42 1 12 43
M  V30 43 1 12 44
M  V30 44 1 13 45
M  V30 45 1 13 46
M  V30 46 1 14 47
M  V30 47 1 14 48
M  V30 48 1 15 49
M  V30 49 1 15 50
M  V30 50 1 16 51
M  V30 51 1 16 52
M  V30 52 1 17 53
M  V30 53 1 17 54
M  V30 54 1 18 55
M  V30 55 1 19 56
M  V30 56 1 20 57
M  V30 57 1 20 58
M  V30 58 1 21 59
M  V30 59 1 21 60
M  V30 60 1 21 61
M  V30 END BOND
M  V30 END CTAB
M  END
>  <Structure No>
1248

>  <LogS>
-4.799983961

>  <MMFF94 Energy>
10.312

$$$$
Compound 1249
Actelion Java MolfileCreator 2.0

  0  0  0  0  0  0              0 V3000
M  V30 BEGIN CTAB
M  V30 COUNTS 16 16 0 0 0
M  V30 BEGIN ATOM
M  V30 1 Cl 3.8823 0.1649 -0.9076 0
M  V30 2 C 2.1622 0.1391 -0.5642 0
M  V30 3 C 1.3552 -0.866 -1.1063 0
M  V30 4 C 1.5976 1.1204 0.2562 0
M  V30 5 C -0.0166 -0.8906 -0.8334 0
M  V30 6 C 0.2272 1.1007 0.5322 0
M  V30 7 F -0.7794 -1.8826 -1.359 0
M  V30 8 C -0.5937 0.1021 -0.0191 0
M  V30 9 C -2.0622 0.0713 0.3059 0
M  V30 10 C -2.301 -0.7895 1.4684 0
M  V30 11 N -2.4893 -1.4692 2.3859 0
M  V30 12 H 1.7912 -1.6307 -1.7363 0
M  V30 13 H 2.2196 1.897 0.683 0
M  V30 14 H -0.1936 1.8632 1.176 0
M  V30 15 H -2.6449 -0.3126 -0.558 0
M  V30 16 H -2.434 1.0937 0.5316 0
M  V30 END ATOM
M  V30 BEGIN BOND
M  V30 1 1 1 2
M  V30 2 2 2 3
M  V30 3 1 2 4
M  V30 4 1 3 5
M  V30 5 2 4 6
M  V30 6 1 5 7
M  V30 7 2 5 8
M  V30 8 1 8 9
M  V30 9 1 9 10
M  V30 10 3 10 11
M  V30 11 1 6 8
M  V30 12 1 3 12
M  V30 13 1 4 13
M  V30 14 1 6 14
M  V30 15 1 9 15
M  V30 16 1 9 16
M  V30 END BOND
M  V30 END CTAB
M  END
>  <Structure No>
1249

>  <LogS>
-2.59390625

>  <MMFF94 Energy>
15.286

$$$$
Compound 1250
Actelion Java MolfileCreator 2.0

  0  0  0  0  0  0              0 V3000
M  V30 BEGIN CTAB
M  V30 COUNTS 31 31 0 0 0
M  V30 BEGIN ATOM
M  V30 1 N -0.3936 -2.6 -0.3936 0
M  V30 2 C -1.042 -1.6412 -0.3791 0
M  V30 3 C -1.8736 -0.4216 -0.3625 0
M  V30 4 C -1.2676 0.6491 0.5972 0
M  V30 5 C -2.0142 0.1108 -1.8017 0
M  V30 6 C -3.2689 -0.8161 0.1585 0
M  V30 7 C 0.0665 1.3105 0.153 0 CFG=2
M  V30 8 C 1.2193 0.3252 0.0825 0
M  V30 9 C 0.426 2.4723 1.0904 0
M  V30 10 C 1.8769 0.0988 -1.1404 0
M  V30 11 C 1.6516 -0.3725 1.2278 0
M  V30 12 C 2.9347 -0.8117 -1.2176 0
M  V30 13 C 2.7103 -1.2814 1.1446 0
M  V30 14 C 3.3504 -1.5018 -0.0768 0
M  V30 15 H -2.0181 1.4634 0.7126 0
M  V30 16 H -1.1412 0.2051 1.6096 0
M  V30 17 H -2.5845 -0.606 -2.4318 0
M  V30 18 H -2.5524 1.083 -1.8059 0
M  V30 19 H -1.0218 0.2494 -2.2798 0
M  V30 20 H -3.7226 -1.607 -0.4783 0
M  V30 21 H -3.9507 0.0617 0.1557 0
M  V30 22 H -3.2052 -1.2038 1.1989 0
M  V30 23 H -0.0899 1.7744 -0.8442 0
M  V30 24 H 0.5196 2.1255 2.1413 0
M  V30 25 H -0.3608 3.2555 1.0476 0
M  V30 26 H 1.3872 2.9341 0.7772 0
M  V30 27 H 1.5698 0.623 -2.0366 0
M  V30 28 H 1.1677 -0.2193 2.1835 0
M  V30 29 H 3.4325 -0.9826 -2.1634 0
M  V30 30 H 3.0339 -1.8163 2.0281 0
M  V30 31 H 4.1692 -2.2066 -0.139 0
M  V30 END ATOM
M  V30 BEGIN BOND
M  V30 1 3 1 2
M  V30 2 1 2 3
M  V30 3 1 3 4
M  V30 4 1 3 5
M  V30 5 1 3 6
M  V30 6 1 4 7
M  V30 7 1 7 8
M  V30 8 1 7 9
M  V30 9 2 8 10
M  V30 10 1 8 11
M  V30 11 1 10 12
M  V30 12 2 11 13
M  V30 13 2 12 14
M  V30 14 1 13 14
M  V30 15 1 4 15
M  V30 16 1 4 16
M  V30 17 1 5 17
M  V30 18 1 5 18
M  V30 19 1 5 19
M  V30 20 1 6 20
M  V30 21 1 6 21
M  V30 22 1 6 22
M  V30 23 1 7 23
M  V30 24 1 9 24
M  V30 25 1 9 25
M  V30 26 1 9 26
M  V30 27 1 10 27
M  V30 28 1 11 28
M  V30 29 1 12 29
M  V30 30 1 13 30
M  V30 31 1 14 31
M  V30 END BOND
M  V30 BEGIN COLLECTION
M  V30 MDLV30/STEABS ATOMS=(1 7)
M  V30 END COLLECTION
M  V30 END CTAB
M  END
>  <Structure No>
1250

>  <LogS>
-3.235078816

>  <MMFF94 Energy>
37.369

$$$$
Compound 1251
Actelion Java MolfileCreator 2.0

  0  0  0  0  0  0              0 V3000
M  V30 BEGIN CTAB
M  V30 COUNTS 36 36 0 0 0
M  V30 BEGIN ATOM
M  V30 1 O 4.1923 1.3432 0.2369 0
M  V30 2 C 4.28 0.1154 -0.0369 0
M  V30 3 O 3.1447 -0.7028 -0.0361 0
M  V30 4 C 5.6168 -0.4859 -0.3074 0
M  V30 5 C 1.8211 -0.2145 0.1848 0 CFG=1
M  V30 6 C 1.3117 0.519 -1.0652 0
M  V30 7 C 0.9043 -1.399 0.5084 0
M  V30 8 C -0.1373 0.9882 -0.8804 0
M  V30 9 C -0.5468 -0.9416 0.7045 0
M  V30 10 C -1.0827 -0.1984 -0.5492 0 CFG=1
M  V30 11 C -2.6061 0.2145 -0.4398 0
M  V30 12 C -3.0815 0.8615 -1.7642 0
M  V30 13 C -3.4846 -1.0387 -0.2032 0
M  V30 14 C -2.8675 1.2147 0.7103 0
M  V30 15 H 6.1112 -0.7355 0.6542 0
M  V30 16 H 5.5009 -1.4115 -0.9089 0
M  V30 17 H 6.2505 0.2308 -0.871 0
M  V30 18 H 1.8229 0.4807 1.0552 0
M  V30 19 H 1.9514 1.405 -1.2658 0
M  V30 20 H 1.3764 -0.1533 -1.9492 0
M  V30 21 H 1.2588 -1.8921 1.4397 0
M  V30 22 H 0.9511 -2.1486 -0.3125 0
M  V30 23 H -0.1624 1.7456 -0.0686 0
M  V30 24 H -0.4419 1.481 -1.8255 0
M  V30 25 H -1.1484 -1.8498 0.91 0
M  V30 26 H -0.5927 -0.2838 1.5981 0
M  V30 27 H -1.0067 -0.9136 -1.4004 0
M  V30 28 H -2.6339 1.8662 -1.9116 0
M  V30 29 H -4.1838 1.0065 -1.7636 0
M  V30 30 H -2.8188 0.2195 -2.6324 0
M  V30 31 H -3.3381 -1.4538 0.8153 0
M  V30 32 H -4.5649 -0.7899 -0.288 0
M  V30 33 H -3.2533 -1.8282 -0.9503 0
M  V30 34 H -2.3036 2.1586 0.5646 0
M  V30 35 H -2.5953 0.7827 1.6948 0
M  V30 36 H -3.9467 1.4786 0.753 0
M  V30 END ATOM
M  V30 BEGIN BOND
M  V30 1 2 1 2
M  V30 2 1 2 3
M  V30 3 1 2 4
M  V30 4 1 3 5
M  V30 5 1 5 6
M  V30 6 1 5 7
M  V30 7 1 6 8
M  V30 8 1 7 9
M  V30 9 1 8 10
M  V30 10 1 10 11
M  V30 11 1 11 12
M  V30 12 1 11 13
M  V30 13 1 11 14
M  V30 14 1 9 10
M  V30 15 1 4 15
M  V30 16 1 4 16
M  V30 17 1 4 17
M  V30 18 1 5 18
M  V30 19 1 6 19
M  V30 20 1 6 20
M  V30 21 1 7 21
M  V30 22 1 7 22
M  V30 23 1 8 23
M  V30 24 1 8 24
M  V30 25 1 9 25
M  V30 26 1 9 26
M  V30 27 1 10 27
M  V30 28 1 12 28
M  V30 29 1 12 29
M  V30 30 1 12 30
M  V30 31 1 13 31
M  V30 32 1 13 32
M  V30 33 1 13 33
M  V30 34 1 14 34
M  V30 35 1 14 35
M  V30 36 1 14 36
M  V30 END BOND
M  V30 BEGIN COLLECTION
M  V30 MDLV30/STEABS ATOMS=(2 5 10)
M  V30 END COLLECTION
M  V30 END CTAB
M  END
>  <Structure No>
1251

>  <LogS>
-3.699640669

>  <MMFF94 Energy>
14.968

$$$$
Compound 1252
Actelion Java MolfileCreator 2.0

  0  0  0  0  0  0              0 V3000
M  V30 BEGIN CTAB
M  V30 COUNTS 51 54 0 0 0
M  V30 BEGIN ATOM
M  V30 1 O -5.7538 -0.4852 -1.0516 0
M  V30 2 C -4.6859 -0.0482 -0.6501 0
M  V30 3 C -4.0257 -0.6583 0.5514 0
M  V30 4 C -4.0781 1.1622 -1.2939 0
M  V30 5 C -2.5038 -0.8065 0.3283 0 CFG=1
M  V30 6 C -2.5727 0.9535 -1.5063 0
M  V30 7 C -1.8116 0.4881 -0.2208 0 CFG=2
M  V30 8 C -1.8222 -1.3357 1.6137 0
M  V30 9 C -0.3199 0.1127 -0.6286 0 CFG=2
M  V30 10 C -1.8778 1.6339 0.8381 0
M  V30 11 C -0.2884 -1.1765 1.6207 0
M  V30 12 C 0.3067 -1.0634 0.2044 0 CFG=2
M  V30 13 C 0.6347 1.3247 -0.806 0
M  V30 14 C 1.8657 -1.0629 0.2424 0 CFG=2
M  V30 15 C 1.5775 1.5091 0.3879 0
M  V30 16 C 2.5493 0.3069 0.5641 0 CFG=2
M  V30 17 C 2.4733 -1.5473 -1.0781 0
M  V30 18 C 3.7279 0.4108 -0.4621 0 CFG=2
M  V30 19 C 3.065 0.3047 2.0258 0
M  V30 20 C 3.8713 -0.9671 -1.1066 0
M  V30 21 O 4.9362 0.8824 0.0907 0
M  V30 22 H -4.243 -0.027 1.4384 0
M  V30 23 H -4.4633 -1.6624 0.7467 0
M  V30 24 H -4.5593 1.3507 -2.2786 0
M  V30 25 H -4.2629 2.0524 -0.6572 0
M  V30 26 H -2.3863 -1.5968 -0.4496 0
M  V30 27 H -2.134 1.8988 -1.8927 0
M  V30 28 H -2.4585 0.1929 -2.3108 0
M  V30 29 H -2.2294 -0.8153 2.5087 0
M  V30 30 H -2.0759 -2.4132 1.7253 0
M  V30 31 H -0.3867 -0.3196 -1.6533 0
M  V30 32 H -1.2572 1.4296 1.7261 0
M  V30 33 H -2.9086 1.7888 1.2105 0
M  V30 34 H -1.5605 2.6076 0.4148 0
M  V30 35 H -0.0019 -0.2969 2.2272 0
M  V30 36 H 0.1474 -2.0591 2.1383 0
M  V30 37 H 0.0137 -2.0158 -0.2973 0
M  V30 38 H 0.081 2.2646 -0.9959 0
M  V30 39 H 1.2416 1.1773 -1.7242 0
M  V30 40 H 2.1846 -1.8201 0.9963 0
M  V30 41 H 2.1601 2.4466 0.2504 0
M  V30 42 H 0.9717 1.6619 1.3034 0
M  V30 43 H 1.9015 -1.1628 -1.9503 0
M  V30 44 H 2.5005 -2.6578 -1.1309 0
M  V30 45 H 3.4628 1.1129 -1.2819 0
M  V30 46 H 3.5651 1.2676 2.2665 0
M  V30 47 H 2.2282 0.1686 2.7414 0
M  V30 48 H 3.7861 -0.5236 2.1937 0
M  V30 49 H 4.2572 -0.894 -2.1467 0
M  V30 50 H 4.5453 -1.6218 -0.511 0
M  V30 51 H 5.3591 0.1489 0.6071 0
M  V30 END ATOM
M  V30 BEGIN BOND
M  V30 1 2 1 2
M  V30 2 1 2 3
M  V30 3 1 2 4
M  V30 4 1 3 5
M  V30 5 1 4 6
M  V30 6 1 5 7
M  V30 7 1 5 8
M  V30 8 1 7 9
M  V30 9 1 7 10
M  V30 10 1 8 11
M  V30 11 1 9 12
M  V30 12 1 9 13
M  V30 13 1 12 14
M  V30 14 1 13 15
M  V30 15 1 14 16
M  V30 16 1 14 17
M  V30 17 1 16 18
M  V30 18 1 16 19
M  V30 19 1 17 20
M  V30 20 1 18 21
M  V30 21 1 6 7
M  V30 22 1 11 12
M  V30 23 1 15 16
M  V30 24 1 18 20
M  V30 25 1 3 22
M  V30 26 1 3 23
M  V30 27 1 4 24
M  V30 28 1 4 25
M  V30 29 1 5 26
M  V30 30 1 6 27
M  V30 31 1 6 28
M  V30 32 1 8 29
M  V30 33 1 8 30
M  V30 34 1 9 31
M  V30 35 1 10 32
M  V30 36 1 10 33
M  V30 37 1 10 34
M  V30 38 1 11 35
M  V30 39 1 11 36
M  V30 40 1 12 37
M  V30 41 1 13 38
M  V30 42 1 13 39
M  V30 43 1 14 40
M  V30 44 1 15 41
M  V30 45 1 15 42
M  V30 46 1 17 43
M  V30 47 1 17 44
M  V30 48 1 18 45
M  V30 49 1 19 46
M  V30 50 1 19 47
M  V30 51 1 19 48
M  V30 52 1 20 49
M  V30 53 1 20 50
M  V30 54 1 21 51
M  V30 END BOND
M  V30 BEGIN COLLECTION
M  V30 MDLV30/STEABS ATOMS=(7 5 7 9 12 14 16 18)
M  V30 END COLLECTION
M  V30 END CTAB
M  END
>  <Structure No>
1252

>  <LogS>
-4.918998851

>  <MMFF94 Energy>
79.224

$$$$
Compound 1253
Actelion Java MolfileCreator 2.0

  0  0  0  0  0  0              0 V3000
M  V30 BEGIN CTAB
M  V30 COUNTS 69 72 0 0 0
M  V30 BEGIN ATOM
M  V30 1 O 5.8372 -1.0376 -0.9577 0
M  V30 2 C 5.5991 -0.0047 -0.2742 0
M  V30 3 N 4.4712 0.8273 -0.5855 0
M  V30 4 N 6.4746 0.3625 0.8006 0
M  V30 5 C 3.3824 0.4356 -1.4406 0
M  V30 6 C 7.6272 -0.4569 1.1903 0
M  V30 7 C 2.6844 1.4195 -2.1572 0
M  V30 8 C 2.9521 -0.9014 -1.5193 0
M  V30 9 C 8.7767 -0.2664 0.1828 0
M  V30 10 C 8.0947 -0.0794 2.6095 0
M  V30 11 C 1.5976 1.0731 -2.9651 0
M  V30 12 C 1.8681 -1.2484 -2.3305 0
M  V30 13 C 10.009 -1.0823 0.594 0
M  V30 14 C 9.326 -0.8968 3.0204 0
M  V30 15 C 1.1892 -0.2655 -3.0671 0
M  V30 16 C 10.4662 -0.7158 2.0109 0
M  V30 17 C -0.0196 -0.6327 -3.8844 0
M  V30 18 C -1.239 -0.6862 -3.004 0
M  V30 19 C -1.6478 -1.9002 -2.4311 0
M  V30 20 C -1.9278 0.4924 -2.6795 0
M  V30 21 C -2.7427 -1.9372 -1.5631 0
M  V30 22 C -3.02 0.4559 -1.8077 0
M  V30 23 C -3.4485 -0.7646 -1.2546 0
M  V30 24 N -4.5428 -0.8268 -0.3231 0
M  V30 25 C -5.6762 0.054 -0.3419 0
M  V30 26 O -5.9123 0.7673 -1.3554 0
M  V30 27 N -6.5625 0.0893 0.7851 0
M  V30 28 C -7.7547 0.9421 0.8308 0
M  V30 29 C -8.9887 0.1513 0.33 0
M  V30 30 C -7.9386 1.5108 2.2602 0
M  V30 31 C -9.7699 -0.4797 1.4881 0
M  V30 32 C -9.4062 1.8454 2.5453 0
M  V30 33 C -10.2997 0.59 2.4656 0
M  V30 34 H 4.4756 1.8049 -0.2144 0
M  V30 35 H 6.2399 1.2191 1.3532 0
M  V30 36 H 7.321 -1.5275 1.2015 0
M  V30 37 H 2.9851 2.458 -2.089 0
M  V30 38 H 3.4278 -1.6741 -0.9308 0
M  V30 39 H 8.4538 -0.5954 -0.8277 0
M  V30 40 H 9.0482 0.8107 0.1201 0
M  V30 41 H 7.2735 -0.2728 3.3337 0
M  V30 42 H 8.3422 1.0046 2.6522 0
M  V30 43 H 1.0692 1.8501 -3.5039 0
M  V30 44 H 1.5463 -2.2817 -2.3708 0
M  V30 45 H 9.7714 -2.1675 0.5476 0
M  V30 46 H 10.8349 -0.8819 -0.1215 0
M  V30 47 H 9.6681 -0.5644 4.0241 0
M  V30 48 H 9.0544 -1.973 3.0893 0
M  V30 49 H 10.8162 0.3398 2.0288 0
M  V30 50 H 11.3203 -1.3655 2.3006 0
M  V30 51 H -0.1753 0.1064 -4.7011 0
M  V30 52 H 0.1439 -1.6151 -4.3798 0
M  V30 53 H -1.113 -2.8164 -2.6483 0
M  V30 54 H -1.6065 1.4433 -3.0871 0
M  V30 55 H -3.0417 -2.8823 -1.1275 0
M  V30 56 H -3.5025 1.387 -1.5416 0
M  V30 57 H -4.5426 -1.5985 0.3819 0
M  V30 58 H -6.427 -0.6245 1.5377 0
M  V30 59 H -7.6134 1.8108 0.1496 0
M  V30 60 H -8.6803 -0.6395 -0.3895 0
M  V30 61 H -9.6687 0.8415 -0.219 0
M  V30 62 H -7.5941 0.7774 3.023 0
M  V30 63 H -7.3199 2.4273 2.3761 0
M  V30 64 H -9.1029 -1.1841 2.0328 0
M  V30 65 H -10.6214 -1.0692 1.0846 0
M  V30 66 H -9.4965 2.3027 3.555 0
M  V30 67 H -9.755 2.5983 1.8041 0
M  V30 68 H -11.3207 0.9018 2.1548 0
M  V30 69 H -10.3871 0.1343 3.4759 0
M  V30 END ATOM
M  V30 BEGIN BOND
M  V30 1 2 1 2
M  V30 2 1 2 3
M  V30 3 1 2 4
M  V30 4 1 3 5
M  V30 5 1 4 6
M  V30 6 2 5 7
M  V30 7 1 5 8
M  V30 8 1 6 9
M  V30 9 1 6 10
M  V30 10 1 7 11
M  V30 11 2 8 12
M  V30 12 1 9 13
M  V30 13 1 10 14
M  V30 14 2 11 15
M  V30 15 1 13 16
M  V30 16 1 15 17
M  V30 17 1 17 18
M  V30 18 2 18 19
M  V30 19 1 18 20
M  V30 20 1 19 21
M  V30 21 2 20 22
M  V30 22 2 21 23
M  V30 23 1 23 24
M  V30 24 1 24 25
M  V30 25 2 25 26
M  V30 26 1 25 27
M  V30 27 1 27 28
M  V30 28 1 28 29
M  V30 29 1 28 30
M  V30 30 1 29 31
M  V30 31 1 30 32
M  V30 32 1 31 33
M  V30 33 1 12 15
M  V30 34 1 14 16
M  V30 35 1 22 23
M  V30 36 1 32 33
M  V30 37 1 3 34
M  V30 38 1 4 35
M  V30 39 1 6 36
M  V30 40 1 7 37
M  V30 41 1 8 38
M  V30 42 1 9 39
M  V30 43 1 9 40
M  V30 44 1 10 41
M  V30 45 1 10 42
M  V30 46 1 11 43
M  V30 47 1 12 44
M  V30 48 1 13 45
M  V30 49 1 13 46
M  V30 50 1 14 47
M  V30 51 1 14 48
M  V30 52 1 16 49
M  V30 53 1 16 50
M  V30 54 1 17 51
M  V30 55 1 17 52
M  V30 56 1 19 53
M  V30 57 1 20 54
M  V30 58 1 21 55
M  V30 59 1 22 56
M  V30 60 1 24 57
M  V30 61 1 27 58
M  V30 62 1 28 59
M  V30 63 1 29 60
M  V30 64 1 29 61
M  V30 65 1 30 62
M  V30 66 1 30 63
M  V30 67 1 31 64
M  V30 68 1 31 65
M  V30 69 1 32 66
M  V30 70 1 32 67
M  V30 71 1 33 68
M  V30 72 1 33 69
M  V30 END BOND
M  V30 END CTAB
M  END
>  <Structure No>
1253

>  <LogS>
-5.142667396

>  <MMFF94 Energy>
-104.33

$$$$
Compound 1254
Actelion Java MolfileCreator 2.0

  0  0  0  0  0  0              0 V3000
M  V30 BEGIN CTAB
M  V30 COUNTS 38 40 0 0 0
M  V30 BEGIN ATOM
M  V30 1 O 5.1286 -3.7427 0.1625 0
M  V30 2 C 5.3927 -2.5352 0.2211 0
M  V30 3 N 5.6646 -1.2925 0.2815 0
M  V30 4 C 4.6772 -0.2464 0.2391 0
M  V30 5 C 5.0958 1.0979 0.3139 0
M  V30 6 C 3.3009 -0.5348 0.1244 0
M  V30 7 C 4.141 2.1259 0.2735 0
M  V30 8 C 6.5561 1.4371 0.4367 0
M  V30 9 C 2.3524 0.4974 0.0846 0
M  V30 10 C 2.7824 1.828 0.1598 0
M  V30 11 N 0.9551 0.1942 -0.0319 0
M  V30 12 C 0.1848 -1.0021 -0.1289 0
M  V30 13 C -0.2431 0.9645 -0.0993 0
M  V30 14 O 0.4523 -2.2321 -0.1474 0
M  V30 15 N -1.0134 -0.2318 -0.1962 0
M  V30 16 O -0.5106 2.1945 -0.0807 0
M  V30 17 C -2.4106 -0.535 -0.3128 0
M  V30 18 C -3.3591 0.4971 -0.3528 0
M  V30 19 C -2.8407 -1.8656 -0.388 0
M  V30 20 C -4.7354 0.2087 -0.4675 0
M  V30 21 C -4.1993 -2.1636 -0.5016 0
M  V30 22 N -5.7228 1.2548 -0.51 0
M  V30 23 C -5.1541 -1.1356 -0.5421 0
M  V30 24 C -5.451 2.4975 -0.4498 0
M  V30 25 C -6.6145 -1.4746 -0.6648 0
M  V30 26 O -5.1868 3.705 -0.3912 0
M  V30 27 H 2.9668 -1.5613 0.0662 0
M  V30 28 H 4.4468 3.1634 0.3299 0
M  V30 29 H 6.969 0.9831 1.3621 0
M  V30 30 H 7.1074 1.0403 -0.4414 0
M  V30 31 H 6.7204 2.5347 0.4842 0
M  V30 32 H 2.068 2.6395 0.131 0
M  V30 33 H -3.0251 1.5236 -0.2946 0
M  V30 34 H -2.1265 -2.6771 -0.3588 0
M  V30 35 H -4.5053 -3.201 -0.5578 0
M  V30 36 H -7.0275 -1.0207 -1.5901 0
M  V30 37 H -6.7789 -2.5721 -0.712 0
M  V30 38 H -7.1659 -1.0777 0.2134 0
M  V30 END ATOM
M  V30 BEGIN BOND
M  V30 1 2 1 2
M  V30 2 2 2 3
M  V30 3 1 3 4
M  V30 4 2 4 5
M  V30 5 1 4 6
M  V30 6 1 5 7
M  V30 7 1 5 8
M  V30 8 2 6 9
M  V30 9 2 7 10
M  V30 10 1 9 11
M  V30 11 1 11 12
M  V30 12 1 11 13
M  V30 13 2 12 14
M  V30 14 1 12 15
M  V30 15 2 13 16
M  V30 16 1 15 17
M  V30 17 2 17 18
M  V30 18 1 17 19
M  V30 19 1 18 20
M  V30 20 2 19 21
M  V30 21 1 20 22
M  V30 22 2 20 23
M  V30 23 2 22 24
M  V30 24 1 23 25
M  V30 25 2 24 26
M  V30 26 1 9 10
M  V30 27 1 13 15
M  V30 28 1 21 23
M  V30 29 1 6 27
M  V30 30 1 7 28
M  V30 31 1 8 29
M  V30 32 1 8 30
M  V30 33 1 8 31
M  V30 34 1 10 32
M  V30 35 1 18 33
M  V30 36 1 19 34
M  V30 37 1 21 35
M  V30 38 1 25 36
M  V30 39 1 25 37
M  V30 40 1 25 38
M  V30 END BOND
M  V30 END CTAB
M  END
>  <Structure No>
1254

>  <LogS>
-5.03682594

>  <MMFF94 Energy>
-1.0604

$$$$
Compound 1255
Actelion Java MolfileCreator 2.0

  0  0  0  0  0  0              0 V3000
M  V30 BEGIN CTAB
M  V30 COUNTS 58 58 0 0 0
M  V30 BEGIN ATOM
M  V30 1 O -2.0494 1.5762 1.7339 0
M  V30 2 C -1.4423 0.577 1.2606 0
M  V30 3 O -2.1207 -0.6191 1.0003 0
M  V30 4 C 0.0121 0.6797 0.9311 0
M  V30 5 C -3.534 -0.7697 1.1273 0
M  V30 6 C 0.1951 1.0619 -0.5432 0
M  V30 7 C -4.2456 -0.2742 -0.1419 0 CFG=2
M  V30 8 C 1.6804 1.2053 -0.9374 0
M  V30 9 O -4.0844 1.1162 -0.2659 0
M  V30 10 C -5.7458 -0.6496 -0.1409 0 CFG=2
M  V30 11 C 2.2341 -0.0021 -1.7176 0
M  V30 12 O -6.3274 -0.2815 -1.3766 0
M  V30 13 C -6.5429 0.0043 0.9979 0 CFG=2
M  V30 14 C 2.3243 -1.313 -0.9134 0
M  V30 15 C -7.5243 0.4182 -1.1123 0
M  V30 16 O -6.637 -0.8149 2.1395 0
M  V30 17 C -7.8858 0.2508 0.3552 0 CFG=2
M  V30 18 C 3.2479 -1.2592 0.3181 0
M  V30 19 O -8.5469 1.3745 0.8856 0
M  V30 20 C 4.7168 -0.9976 -0.046 0
M  V30 21 C 5.6184 -1.1072 1.1928 0
M  V30 22 C 7.1172 -1.013 0.854 0
M  V30 23 C 7.5572 0.3229 0.228 0
M  V30 24 C 7.3175 1.5216 1.1454 0
M  V30 25 H 0.4869 1.4461 1.5825 0
M  V30 26 H 0.4908 -0.2969 1.1439 0
M  V30 27 H -3.7494 -1.8509 1.2648 0
M  V30 28 H -3.9009 -0.2352 2.0308 0
M  V30 29 H -0.3082 2.0404 -0.7106 0
M  V30 30 H -0.3158 0.3186 -1.1946 0
M  V30 31 H -3.7641 -0.7845 -1.0095 0
M  V30 32 H 2.3183 1.4355 -0.0581 0
M  V30 33 H 1.7683 2.0876 -1.6087 0
M  V30 34 H -4.2231 1.3401 -1.2231 0
M  V30 35 H -5.8244 -1.7573 -0.0641 0
M  V30 36 H 3.2362 0.257 -2.1187 0
M  V30 37 H 1.5882 -0.1802 -2.6049 0
M  V30 38 H -6.0808 0.9725 1.2916 0
M  V30 39 H 2.6879 -2.1138 -1.5935 0
M  V30 40 H 1.3065 -1.6188 -0.5928 0
M  V30 41 H -8.3378 0.0217 -1.7567 0
M  V30 42 H -7.3685 1.4892 -1.3677 0
M  V30 43 H -7.0421 -1.681 1.8718 0
M  V30 44 H -8.5428 -0.6407 0.464 0
M  V30 45 H 3.1748 -2.2422 0.8328 0
M  V30 46 H 2.8972 -0.4907 1.0375 0
M  V30 47 H -7.9668 2.1699 0.7545 0
M  V30 48 H 5.0465 -1.7342 -0.8111 0
M  V30 49 H 4.8068 0.0251 -0.4657 0
M  V30 50 H 5.4465 -2.0935 1.6772 0
M  V30 51 H 5.3414 -0.3281 1.9346 0
M  V30 52 H 7.3807 -1.8359 0.1542 0
M  V30 53 H 7.701 -1.1816 1.7855 0
M  V30 54 H 7.0484 0.4867 -0.7448 0
M  V30 55 H 8.6466 0.2608 0.0165 0
M  V30 56 H 7.7992 2.4221 0.7093 0
M  V30 57 H 7.755 1.3372 2.1498 0
M  V30 58 H 6.2313 1.7275 1.2444 0
M  V30 END ATOM
M  V30 BEGIN BOND
M  V30 1 2 1 2
M  V30 2 1 2 3
M  V30 3 1 2 4
M  V30 4 1 3 5
M  V30 5 1 4 6
M  V30 6 1 5 7
M  V30 7 1 6 8
M  V30 8 1 7 9
M  V30 9 1 7 10
M  V30 10 1 8 11
M  V30 11 1 10 12
M  V30 12 1 10 13
M  V30 13 1 11 14
M  V30 14 1 12 15
M  V30 15 1 13 16
M  V30 16 1 13 17
M  V30 17 1 14 18
M  V30 18 1 17 19
M  V30 19 1 18 20
M  V30 20 1 20 21
M  V30 21 1 21 22
M  V30 22 1 22 23
M  V30 23 1 23 24
M  V30 24 1 15 17
M  V30 25 1 4 25
M  V30 26 1 4 26
M  V30 27 1 5 27
M  V30 28 1 5 28
M  V30 29 1 6 29
M  V30 30 1 6 30
M  V30 31 1 7 31
M  V30 32 1 8 32
M  V30 33 1 8 33
M  V30 34 1 9 34
M  V30 35 1 10 35
M  V30 36 1 11 36
M  V30 37 1 11 37
M  V30 38 1 13 38
M  V30 39 1 14 39
M  V30 40 1 14 40
M  V30 41 1 15 41
M  V30 42 1 15 42
M  V30 43 1 16 43
M  V30 44 1 17 44
M  V30 45 1 18 45
M  V30 46 1 18 46
M  V30 47 1 19 47
M  V30 48 1 20 48
M  V30 49 1 20 49
M  V30 50 1 21 50
M  V30 51 1 21 51
M  V30 52 1 22 52
M  V30 53 1 22 53
M  V30 54 1 23 54
M  V30 55 1 23 55
M  V30 56 1 24 56
M  V30 57 1 24 57
M  V30 58 1 24 58
M  V30 END BOND
M  V30 BEGIN COLLECTION
M  V30 MDLV30/STEABS ATOMS=(4 7 10 13 17)
M  V30 END COLLECTION
M  V30 END CTAB
M  END
>  <Structure No>
1255

>  <LogS>
-5.06253686

>  <MMFF94 Energy>
80.769

$$$$
Compound 1256
Actelion Java MolfileCreator 2.0

  0  0  0  0  0  0              0 V3000
M  V30 BEGIN CTAB
M  V30 COUNTS 54 55 0 0 0
M  V30 BEGIN ATOM
M  V30 1 O 4.4313 3.7051 -1.207 0
M  V30 2 N 5.0719 2.7756 -0.674 0 CHG=1
M  V30 3 O 6.2633 3.0655 -0.0491 0 CHG=-1
M  V30 4 C 4.5712 1.4259 -0.7053 0
M  V30 5 C 5.275 0.3911 -0.066 0
M  V30 6 C 3.3793 1.1197 -1.3846 0
M  V30 7 C 4.7886 -0.9232 -0.0875 0
M  V30 8 C 2.8932 -0.189 -1.4093 0
M  V30 9 C 5.5277 -1.9597 0.5908 0
M  V30 10 C 3.5738 -1.2149 -0.7323 0
M  V30 11 N 6.1189 -2.7912 1.1369 0
M  V30 12 N 3.0815 -2.5679 -0.7455 0
M  V30 13 N 1.8626 -2.9238 -0.5862 0
M  V30 14 C 0.7763 -2.0508 -0.236 0
M  V30 15 C 0.823 -1.2221 0.9102 0
M  V30 16 C -0.3663 -2.0526 -1.0455 0
M  V30 17 N 1.9353 -1.2944 1.8199 0
M  V30 18 C -0.2711 -0.3864 1.1964 0
M  V30 19 C -1.4396 -1.2083 -0.7585 0
M  V30 20 C 2.5056 -0.1444 2.4643 0
M  V30 21 C -1.3934 -0.3699 0.3602 0
M  V30 22 O 2.1804 1.0194 2.105 0
M  V30 23 C 3.5675 -0.3202 3.4999 0
M  V30 24 N -2.4991 0.4925 0.6623 0
M  V30 25 C -3.598 -0.0122 1.4918 0
M  V30 26 C -2.4796 1.8775 0.1803 0
M  V30 27 C -4.4907 -0.8919 0.678 0
M  V30 28 C -2.705 1.9067 -1.2973 0
M  V30 29 O -4.3437 -2.144 0.7189 0
M  V30 30 O -5.4473 -0.3109 -0.1605 0
M  V30 31 O -1.723 2.0256 -2.0807 0
M  V30 32 O -4.001 1.7524 -1.7956 0
M  V30 33 C -6.2656 -1.0771 -1.0347 0
M  V30 34 C -4.2841 1.6706 -3.1873 0
M  V30 35 H 6.1998 0.6055 0.4559 0
M  V30 36 H 2.8258 1.8918 -1.9035 0
M  V30 37 H 1.9905 -0.4006 -1.9667 0
M  V30 38 H -0.4129 -2.6952 -1.9157 0
M  V30 39 H 2.4031 -2.2175 1.9619 0
M  V30 40 H -0.2709 0.2303 2.0862 0
M  V30 41 H -2.3079 -1.2056 -1.4059 0
M  V30 42 H 3.6267 0.5788 4.1473 0
M  V30 43 H 4.5477 -0.4721 3.0031 0
M  V30 44 H 3.3399 -1.2036 4.1318 0
M  V30 45 H -3.1884 -0.5737 2.3598 0
M  V30 46 H -4.2029 0.8245 1.9016 0
M  V30 47 H -1.5046 2.3495 0.4326 0
M  V30 48 H -3.2739 2.4805 0.6695 0
M  V30 49 H -6.9298 -0.3935 -1.6038 0
M  V30 50 H -6.8918 -1.7825 -0.4492 0
M  V30 51 H -5.6306 -1.6407 -1.7508 0
M  V30 52 H -3.9643 2.6043 -3.697 0
M  V30 53 H -3.757 0.8 -3.6306 0
M  V30 54 H -5.3765 1.5381 -3.3285 0
M  V30 END ATOM
M  V30 BEGIN BOND
M  V30 1 2 1 2
M  V30 2 1 2 3
M  V30 3 1 2 4
M  V30 4 2 4 5
M  V30 5 1 4 6
M  V30 6 1 5 7
M  V30 7 2 6 8
M  V30 8 1 7 9
M  V30 9 2 7 10
M  V30 10 3 9 11
M  V30 11 1 10 12
M  V30 12 2 12 13
M  V30 13 1 13 14
M  V30 14 2 14 15
M  V30 15 1 14 16
M  V30 16 1 15 17
M  V30 17 1 15 18
M  V30 18 2 16 19
M  V30 19 1 17 20
M  V30 20 2 18 21
M  V30 21 2 20 22
M  V30 22 1 20 23
M  V30 23 1 21 24
M  V30 24 1 24 25
M  V30 25 1 24 26
M  V30 26 1 25 27
M  V30 27 1 26 28
M  V30 28 2 27 29
M  V30 29 1 27 30
M  V30 30 2 28 31
M  V30 31 1 28 32
M  V30 32 1 30 33
M  V30 33 1 32 34
M  V30 34 1 8 10
M  V30 35 1 19 21
M  V30 36 1 5 35
M  V30 37 1 6 36
M  V30 38 1 8 37
M  V30 39 1 16 38
M  V30 40 1 17 39
M  V30 41 1 18 40
M  V30 42 1 19 41
M  V30 43 1 23 42
M  V30 44 1 23 43
M  V30 45 1 23 44
M  V30 46 1 25 45
M  V30 47 1 25 46
M  V30 48 1 26 47
M  V30 49 1 26 48
M  V30 50 1 33 49
M  V30 51 1 33 50
M  V30 52 1 33 51
M  V30 53 1 34 52
M  V30 54 1 34 53
M  V30 55 1 34 54
M  V30 END BOND
M  V30 END CTAB
M  END
>  <Structure No>
1256

>  <LogS>
-5.193519738

>  <MMFF94 Energy>
162.1

$$$$
Compound 1257
Actelion Java MolfileCreator 2.0

  0  0  0  0  0  0              0 V3000
M  V30 BEGIN CTAB
M  V30 COUNTS 44 46 0 0 0
M  V30 BEGIN ATOM
M  V30 1 N 4.0559 -0.397 -1.8276 0
M  V30 2 N 2.874 -0.7682 -2.1474 0
M  V30 3 C 4.4729 0.0528 -0.5268 0
M  V30 4 C 1.7797 -0.9625 -1.2368 0
M  V30 5 C 5.705 -0.3783 0.0039 0
M  V30 6 C 3.7069 0.9935 0.1833 0
M  V30 7 C 0.5015 -0.5244 -1.6051 0
M  V30 8 C 1.9489 -1.6616 -0.0297 0
M  V30 9 N 6.5281 -1.3087 -0.7097 0
M  V30 10 C 6.1245 0.0937 1.2572 0
M  V30 11 C 4.1315 1.4562 1.4305 0
M  V30 12 C -0.5937 -0.7253 -0.7556 0
M  V30 13 C 0.8607 -1.8648 0.8221 0
M  V30 14 C 5.3392 1.0051 1.9755 0
M  V30 15 N -1.8808 -0.2423 -1.158 0
M  V30 16 C -0.4062 -1.3948 0.4672 0
M  V30 17 N 5.7739 1.48 3.2523 0
M  V30 18 N -2.9163 -0.3906 -0.4328 0
M  V30 19 C -4.2074 0.0914 -0.8303 0
M  V30 20 C -5.316 -0.1031 0.0186 0
M  V30 21 C -4.3858 0.7585 -2.0566 0
M  V30 22 N -5.1711 -0.7765 1.2754 0
M  V30 23 C -6.58 0.3675 -0.369 0
M  V30 24 C -5.6482 1.2231 -2.4325 0
M  V30 25 C -6.7505 1.0297 -1.5918 0
M  V30 26 N -8.0423 1.5063 -1.9783 0
M  V30 27 H 2.7856 1.379 -0.2338 0
M  V30 28 H 0.3613 -0.0136 -2.55 0
M  V30 29 H 2.917 -2.0585 0.2464 0
M  V30 30 H 6.2408 -1.6941 -1.6364 0
M  V30 31 H 7.4379 -1.6295 -0.3099 0
M  V30 32 H 7.0646 -0.2475 1.6733 0
M  V30 33 H 3.5233 2.173 1.968 0
M  V30 34 H 0.9978 -2.3956 1.7554 0
M  V30 35 H -1.2371 -1.5639 1.1401 0
M  V30 36 H 5.1954 2.159 3.7954 0
M  V30 37 H 6.6766 1.1548 3.6652 0
M  V30 38 H -3.5498 0.9217 -2.7247 0
M  V30 39 H -4.2477 -1.1412 1.5978 0
M  V30 40 H -5.9957 -0.919 1.9006 0
M  V30 41 H -7.4329 0.2171 0.2818 0
M  V30 42 H -5.767 1.735 -3.3793 0
M  V30 43 H -8.8698 1.3731 -1.3554 0
M  V30 44 H -8.1797 2.001 -2.8878 0
M  V30 END ATOM
M  V30 BEGIN BOND
M  V30 1 2 1 2
M  V30 2 1 1 3
M  V30 3 1 2 4
M  V30 4 2 3 5
M  V30 5 1 3 6
M  V30 6 2 4 7
M  V30 7 1 4 8
M  V30 8 1 5 9
M  V30 9 1 5 10
M  V30 10 2 6 11
M  V30 11 1 7 12
M  V30 12 2 8 13
M  V30 13 2 10 14
M  V30 14 1 12 15
M  V30 15 2 12 16
M  V30 16 1 14 17
M  V30 17 2 15 18
M  V30 18 1 18 19
M  V30 19 2 19 20
M  V30 20 1 19 21
M  V30 21 1 20 22
M  V30 22 1 20 23
M  V30 23 2 21 24
M  V30 24 2 23 25
M  V30 25 1 25 26
M  V30 26 1 11 14
M  V30 27 1 13 16
M  V30 28 1 24 25
M  V30 29 1 6 27
M  V30 30 1 7 28
M  V30 31 1 8 29
M  V30 32 1 9 30
M  V30 33 1 9 31
M  V30 34 1 10 32
M  V30 35 1 11 33
M  V30 36 1 13 34
M  V30 37 1 16 35
M  V30 38 1 17 36
M  V30 39 1 17 37
M  V30 40 1 21 38
M  V30 41 1 22 39
M  V30 42 1 22 40
M  V30 43 1 23 41
M  V30 44 1 24 42
M  V30 45 1 26 43
M  V30 46 1 26 44
M  V30 END BOND
M  V30 END CTAB
M  END
>  <Structure No>
1257

>  <LogS>
-4.197152695

>  <MMFF94 Energy>
79.545

$$$$
Compound 1258
Actelion Java MolfileCreator 2.0

  0  0  0  0  0  0              0 V3000
M  V30 BEGIN CTAB
M  V30 COUNTS 23 22 0 0 0
M  V30 BEGIN ATOM
M  V30 1 C -0.5373 0.3838 -0.4605 0 CFG=1
M  V30 2 C 0.8336 0.9755 -0.0501 0
M  V30 3 C -0.9485 -0.7837 0.4695 0
M  V30 4 C -1.5955 1.5009 -0.4559 0
M  V30 5 C 2.0175 0.0037 -0.254 0
M  V30 6 C -2.2502 -1.4646 0.0424 0
M  V30 7 C 2.5739 -0.5184 1.0705 0
M  V30 8 H -0.4548 0.0022 -1.5028 0
M  V30 9 H 0.7877 1.3377 1.0014 0
M  V30 10 H 1.0303 1.8723 -0.679 0
M  V30 11 H -1.0504 -0.4225 1.5164 0
M  V30 12 H -0.1591 -1.5631 0.4541 0
M  V30 13 H -2.548 1.143 -0.8981 0
M  V30 14 H -1.7843 1.8579 0.5793 0
M  V30 15 H -1.2561 2.3603 -1.0728 0
M  V30 16 H 1.7302 -0.8548 -0.8987 0
M  V30 17 H 2.8396 0.5372 -0.7799 0
M  V30 18 H -2.2127 -1.7366 -1.0337 0
M  V30 19 H -2.3935 -2.3921 0.636 0
M  V30 20 H -3.1212 -0.8034 0.2305 0
M  V30 21 H 2.9717 0.3233 1.6764 0
M  V30 22 H 3.4014 -1.2311 0.8707 0
M  V30 23 H 1.7882 -1.0423 1.6528 0
M  V30 END ATOM
M  V30 BEGIN BOND
M  V30 1 1 1 2
M  V30 2 1 1 3
M  V30 3 1 1 4
M  V30 4 1 2 5
M  V30 5 1 3 6
M  V30 6 1 5 7
M  V30 7 1 1 8
M  V30 8 1 2 9
M  V30 9 1 2 10
M  V30 10 1 3 11
M  V30 11 1 3 12
M  V30 12 1 4 13
M  V30 13 1 4 14
M  V30 14 1 4 15
M  V30 15 1 5 16
M  V30 16 1 5 17
M  V30 17 1 6 18
M  V30 18 1 6 19
M  V30 19 1 6 20
M  V30 20 1 7 21
M  V30 21 1 7 22
M  V30 22 1 7 23
M  V30 END BOND
M  V30 BEGIN COLLECTION
M  V30 MDLV30/STEABS ATOMS=(1 1)
M  V30 END COLLECTION
M  V30 END CTAB
M  END
>  <Structure No>
1258

>  <LogS>
-3.270406298

>  <MMFF94 Energy>
1.3218

$$$$
Compound 1259
Actelion Java MolfileCreator 2.0

  0  0  0  0  0  0              0 V3000
M  V30 BEGIN CTAB
M  V30 COUNTS 15 14 0 0 0
M  V30 BEGIN ATOM
M  V30 1 C 0.1511 -0.1511 -0.6803 0
M  V30 2 C 0.9354 -0.43 0.3704 0
M  V30 3 C -1.342 -0.3177 -0.6153 0
M  V30 4 C 2.4219 -0.2741 0.2848 0
M  V30 5 C -1.9819 0.7446 0.2741 0
M  V30 6 H 0.5977 0.1757 -1.6157 0
M  V30 7 H 0.4969 -0.777 1.3021 0
M  V30 8 H -1.7598 -0.223 -1.6405 0
M  V30 9 H -1.5935 -1.3311 -0.234 0
M  V30 10 H 2.827 -0.9344 -0.5107 0
M  V30 11 H 2.8845 -0.5546 1.2542 0
M  V30 12 H 2.6795 0.7816 0.0562 0
M  V30 13 H -3.0853 0.6199 0.2657 0
M  V30 14 H -1.6239 0.6445 1.3208 0
M  V30 15 H -1.7359 1.7607 -0.102 0
M  V30 END ATOM
M  V30 BEGIN BOND
M  V30 1 2 1 2
M  V30 2 1 1 3
M  V30 3 1 2 4
M  V30 4 1 3 5
M  V30 5 1 1 6
M  V30 6 1 2 7
M  V30 7 1 3 8
M  V30 8 1 3 9
M  V30 9 1 4 10
M  V30 10 1 4 11
M  V30 11 1 4 12
M  V30 12 1 5 13
M  V30 13 1 5 14
M  V30 14 1 5 15
M  V30 END BOND
M  V30 END CTAB
M  END
>  <Structure No>
1259

>  <LogS>
-2.544904806

>  <MMFF94 Energy>
3.7629

$$$$
Compound 1260
Actelion Java MolfileCreator 2.0

  0  0  0  0  0  0              0 V3000
M  V30 BEGIN CTAB
M  V30 COUNTS 1 0 0 0 0
M  V30 BEGIN ATOM
M  V30 1 S 0.0 0.0 0.0 0 CHG=-1 VAL=2
M  V30 END ATOM
M  V30 BEGIN BOND
M  V30 END BOND
M  V30 END CTAB
M  END
>  <Structure No>
1260

>  <LogS>
-5.532537815

>  <MMFF94 Energy>
6.798e-13

$$$$
Compound 1261
Actelion Java MolfileCreator 2.0

  0  0  0  0  0  0              0 V3000
M  V30 BEGIN CTAB
M  V30 COUNTS 49 51 0 0 0
M  V30 BEGIN ATOM
M  V30 1 S 4.9839 1.0605 -1.2238 0
M  V30 2 C 4.3851 -0.0803 -0.1202 0
M  V30 3 C 6.5652 0.5503 -0.981 0
M  V30 4 N 5.3618 -0.8405 0.4284 0
M  V30 5 N 3.008 -0.245 0.2145 0
M  V30 6 C 6.5774 -0.482 -0.0576 0
M  V30 7 C 7.7309 1.0313 -1.57 0
M  V30 8 N 2.1104 0.4835 -0.3157 0
M  V30 9 C 7.7806 -1.0789 0.3141 0
M  V30 10 C 8.9623 0.4426 -1.2091 0
M  V30 11 C 0.7216 0.3374 0.0038 0
M  V30 12 C 8.9742 -0.6146 -0.2634 0
M  V30 13 N 10.1888 0.9129 -1.7964 0 CHG=1
M  V30 14 C -0.2088 1.1741 -0.6211 0
M  V30 15 C 0.2734 -0.6202 0.9297 0
M  V30 16 O 11.2828 0.3996 -1.4831 0
M  V30 17 O 10.1758 1.9381 -2.7142 0 CHG=-1
M  V30 18 C -1.5714 1.0574 -0.3334 0
M  V30 19 C -1.0893 -0.7381 1.2176 0
M  V30 20 C -2.0267 0.0942 0.5819 0
M  V30 21 N -3.4361 -0.0306 0.8677 0
M  V30 22 C -4.1986 1.1565 1.2861 0
M  V30 23 C -4.0933 -1.3494 0.8355 0
M  V30 24 C -5.1591 1.63 0.1868 0
M  V30 25 C -4.2485 -1.8635 -0.6013 0
M  V30 26 O -6.2443 0.7208 0.0146 0
M  V30 27 C -2.9734 -2.3458 -1.1455 0
M  V30 28 C -7.3144 0.6173 0.9096 0
M  V30 29 N -1.9682 -2.7256 -1.575 0
M  V30 30 O -7.4216 1.4104 1.8841 0
M  V30 31 C -8.3666 -0.4117 0.6752 0
M  V30 32 H 7.6793 1.8399 -2.2873 0
M  V30 33 H 7.7974 -1.886 1.0352 0
M  V30 34 H 9.9066 -1.0804 0.0277 0
M  V30 35 H 0.1239 1.9176 -1.3346 0
M  V30 36 H 0.9743 -1.2737 1.433 0
M  V30 37 H -2.2702 1.7109 -0.8363 0
M  V30 38 H -1.4057 -1.4685 1.9493 0
M  V30 39 H -3.5044 1.9906 1.5302 0
M  V30 40 H -4.7596 0.9335 2.2187 0
M  V30 41 H -3.5377 -2.0842 1.4548 0
M  V30 42 H -5.1059 -1.2812 1.2877 0
M  V30 43 H -5.5507 2.6399 0.4375 0
M  V30 44 H -4.6138 1.7144 -0.7748 0
M  V30 45 H -4.9708 -2.7069 -0.61 0
M  V30 46 H -4.6445 -1.0609 -1.2578 0
M  V30 47 H -8.7642 -0.7796 1.6445 0
M  V30 48 H -9.1936 0.0327 0.0836 0
M  V30 49 H -7.9371 -1.2693 0.1161 0
M  V30 END ATOM
M  V30 BEGIN BOND
M  V30 1 1 1 2
M  V30 2 1 1 3
M  V30 3 2 2 4
M  V30 4 1 2 5
M  V30 5 2 3 6
M  V30 6 1 3 7
M  V30 7 2 5 8
M  V30 8 1 6 9
M  V30 9 2 7 10
M  V30 10 1 8 11
M  V30 11 2 9 12
M  V30 12 1 10 13
M  V30 13 2 11 14
M  V30 14 1 11 15
M  V30 15 2 13 16
M  V30 16 1 13 17
M  V30 17 1 14 18
M  V30 18 2 15 19
M  V30 19 2 18 20
M  V30 20 1 20 21
M  V30 21 1 21 22
M  V30 22 1 21 23
M  V30 23 1 22 24
M  V30 24 1 23 25
M  V30 25 1 24 26
M  V30 26 1 25 27
M  V30 27 1 26 28
M  V30 28 3 27 29
M  V30 29 2 28 30
M  V30 30 1 28 31
M  V30 31 1 4 6
M  V30 32 1 10 12
M  V30 33 1 19 20
M  V30 34 1 7 32
M  V30 35 1 9 33
M  V30 36 1 12 34
M  V30 37 1 14 35
M  V30 38 1 15 36
M  V30 39 1 18 37
M  V30 40 1 19 38
M  V30 41 1 22 39
M  V30 42 1 22 40
M  V30 43 1 23 41
M  V30 44 1 23 42
M  V30 45 1 24 43
M  V30 46 1 24 44
M  V30 47 1 25 45
M  V30 48 1 25 46
M  V30 49 1 31 47
M  V30 50 1 31 48
M  V30 51 1 31 49
M  V30 END BOND
M  V30 END CTAB
M  END
>  <Structure No>
1261

>  <LogS>
-4.340908898

>  <MMFF94 Energy>
80.357

$$$$
Compound 1262
Actelion Java MolfileCreator 2.0

  0  0  0  0  0  0              0 V3000
M  V30 BEGIN CTAB
M  V30 COUNTS 42 44 0 0 0
M  V30 BEGIN ATOM
M  V30 1 N 4.4927 2.0839 2.8061 0
M  V30 2 C 4.86 0.99 2.717 0
M  V30 3 C 5.3196 -0.3741 2.606 0
M  V30 4 C 4.6522 -1.327 1.7951 0
M  V30 5 C 6.4994 -0.7342 3.2735 0
M  V30 6 C 5.215 -2.6047 1.6407 0
M  V30 7 C 3.4024 -1.0281 1.0585 0
M  V30 8 C 7.0284 -2.0185 3.1308 0
M  V30 9 C 6.3911 -2.9498 2.3108 0
M  V30 10 C 2.3482 -0.4414 1.6438 0
M  V30 11 C 1.074 -0.1398 0.9458 0
M  V30 12 C 0.2205 0.8273 1.4985 0
M  V30 13 C 0.67 -0.8108 -0.2244 0
M  V30 14 C -0.9935 1.1425 0.8826 0
M  V30 15 C -0.5449 -0.4952 -0.8404 0
M  V30 16 C -1.3831 0.4989 -0.3012 0
M  V30 17 C -2.6859 0.8578 -0.9123 0
M  V30 18 C -2.9865 0.6394 -2.2001 0
M  V30 19 C -4.28 1.0521 -2.7937 0
M  V30 20 C -5.5322 0.7843 -2.1838 0
M  V30 21 C -4.2534 1.702 -4.0389 0
M  V30 22 C -5.6402 0.0223 -0.9622 0
M  V30 23 C -6.7144 1.2095 -2.8078 0
M  V30 24 C -5.4384 2.1194 -4.6495 0
M  V30 25 N -5.728 -0.589 0.0166 0
M  V30 26 C -6.6661 1.8793 -4.0319 0
M  V30 27 H 7.0198 -0.0149 3.8952 0
M  V30 28 H 4.7328 -3.3426 1.0106 0
M  V30 29 H 3.3466 -1.3619 0.0319 0
M  V30 30 H 7.9407 -2.288 3.6473 0
M  V30 31 H 6.8088 -3.9414 2.1935 0
M  V30 32 H 2.4253 -0.1477 2.6841 0
M  V30 33 H 0.4978 1.3481 2.4072 0
M  V30 34 H 1.2676 -1.6017 -0.6548 0
M  V30 35 H -1.6277 1.899 1.3296 0
M  V30 36 H -0.8337 -1.0549 -1.7195 0
M  V30 37 H -3.4027 1.3813 -0.2902 0
M  V30 38 H -2.2315 0.2586 -2.8751 0
M  V30 39 H -3.3096 1.9009 -4.5328 0
M  V30 40 H -7.6776 1.0099 -2.3529 0
M  V30 41 H -5.4044 2.6297 -5.6034 0
M  V30 42 H -7.583 2.2021 -4.5083 0
M  V30 END ATOM
M  V30 BEGIN BOND
M  V30 1 3 1 2
M  V30 2 1 2 3
M  V30 3 2 3 4
M  V30 4 1 3 5
M  V30 5 1 4 6
M  V30 6 1 4 7
M  V30 7 2 5 8
M  V30 8 2 6 9
M  V30 9 2 7 10
M  V30 10 1 10 11
M  V30 11 2 11 12
M  V30 12 1 11 13
M  V30 13 1 12 14
M  V30 14 2 13 15
M  V30 15 2 14 16
M  V30 16 1 16 17
M  V30 17 2 17 18
M  V30 18 1 18 19
M  V30 19 2 19 20
M  V30 20 1 19 21
M  V30 21 1 20 22
M  V30 22 1 20 23
M  V30 23 2 21 24
M  V30 24 3 22 25
M  V30 25 2 23 26
M  V30 26 1 8 9
M  V30 27 1 15 16
M  V30 28 1 24 26
M  V30 29 1 5 27
M  V30 30 1 6 28
M  V30 31 1 7 29
M  V30 32 1 8 30
M  V30 33 1 9 31
M  V30 34 1 10 32
M  V30 35 1 12 33
M  V30 36 1 13 34
M  V30 37 1 14 35
M  V30 38 1 15 36
M  V30 39 1 17 37
M  V30 40 1 18 38
M  V30 41 1 21 39
M  V30 42 1 23 40
M  V30 43 1 24 41
M  V30 44 1 26 42
M  V30 END BOND
M  V30 END CTAB
M  END
>  <Structure No>
1262

>  <LogS>
-4.220638859

>  <MMFF94 Energy>
93.19

$$$$
Compound 1263
Actelion Java MolfileCreator 2.0

  0  0  0  0  0  0              0 V3000
M  V30 BEGIN CTAB
M  V30 COUNTS 42 43 0 0 0
M  V30 BEGIN ATOM
M  V30 1 Cl 4.3187 -3.0134 1.3022 0
M  V30 2 C 5.0655 -1.64 0.4966 0
M  V30 3 C 4.2914 -0.5447 0.0824 0
M  V30 4 C 6.4469 -1.6515 0.272 0
M  V30 5 N 2.8776 -0.5507 0.3211 0
M  V30 6 C 4.9193 0.5372 -0.5588 0
M  V30 7 C 7.0779 -0.5715 -0.3686 0
M  V30 8 N 2.1242 0.4127 -0.0311 0
M  V30 9 C 6.2984 0.5234 -0.7817 0
M  V30 10 N 8.499 -0.5892 -0.5969 0 CHG=1
M  V30 11 C 0.7121 0.4024 0.2093 0
M  V30 12 O 9.0649 0.3677 -1.1653 0
M  V30 13 O 9.2591 -1.6627 -0.192 0 CHG=-1
M  V30 14 C 0.0805 -0.6744 0.8521 0
M  V30 15 C -0.0537 1.4953 -0.2053 0
M  V30 16 C -1.2996 -0.6545 1.0716 0
M  V30 17 C -1.4339 1.5179 0.0129 0
M  V30 18 C -2.0803 0.441 0.6511 0
M  V30 19 N -3.5153 0.4625 0.8699 0
M  V30 20 C -4.3129 -0.774 0.7865 0
M  V30 21 C -4.1964 1.7255 1.206 0
M  V30 22 C -4.2526 -1.3639 -0.6253 0
M  V30 23 C -4.8868 2.3423 -0.02 0
M  V30 24 C -5.1096 -2.5503 -0.7233 0
M  V30 25 C -6.1758 1.6985 -0.2995 0
M  V30 26 N -5.7859 -3.4861 -0.8008 0
M  V30 27 N -7.1922 1.1913 -0.521 0
M  V30 28 H 7.0251 -2.5061 0.5994 0
M  V30 29 H 4.345 1.3938 -0.888 0
M  V30 30 H 6.7553 1.3701 -1.2779 0
M  V30 31 H 0.6527 -1.5298 1.1883 0
M  V30 32 H 0.4215 2.3325 -0.7015 0
M  V30 33 H -1.7445 -1.494 1.5851 0
M  V30 34 H -1.9916 2.3777 -0.3288 0
M  V30 35 H -3.9561 -1.5137 1.5325 0
M  V30 36 H -5.3747 -0.5688 1.0462 0
M  V30 37 H -4.9324 1.5577 2.0238 0
M  V30 38 H -3.4625 2.4555 1.612 0
M  V30 39 H -3.2119 -1.6577 -0.8753 0
M  V30 40 H -4.5974 -0.6105 -1.3643 0
M  V30 41 H -5.0748 3.4197 0.1728 0
M  V30 42 H -4.2423 2.2587 -0.9191 0
M  V30 END ATOM
M  V30 BEGIN BOND
M  V30 1 1 1 2
M  V30 2 2 2 3
M  V30 3 1 2 4
M  V30 4 1 3 5
M  V30 5 1 3 6
M  V30 6 2 4 7
M  V30 7 2 5 8
M  V30 8 2 6 9
M  V30 9 1 7 10
M  V30 10 1 8 11
M  V30 11 2 10 12
M  V30 12 1 10 13
M  V30 13 2 11 14
M  V30 14 1 11 15
M  V30 15 1 14 16
M  V30 16 2 15 17
M  V30 17 2 16 18
M  V30 18 1 18 19
M  V30 19 1 19 20
M  V30 20 1 19 21
M  V30 21 1 20 22
M  V30 22 1 21 23
M  V30 23 1 22 24
M  V30 24 1 23 25
M  V30 25 3 24 26
M  V30 26 3 25 27
M  V30 27 1 7 9
M  V30 28 1 17 18
M  V30 29 1 4 28
M  V30 30 1 6 29
M  V30 31 1 9 30
M  V30 32 1 14 31
M  V30 33 1 15 32
M  V30 34 1 16 33
M  V30 35 1 17 34
M  V30 36 1 20 35
M  V30 37 1 20 36
M  V30 38 1 21 37
M  V30 39 1 21 38
M  V30 40 1 22 39
M  V30 41 1 22 40
M  V30 42 1 23 41
M  V30 43 1 23 42
M  V30 END BOND
M  V30 END CTAB
M  END
>  <Structure No>
1263

>  <LogS>
-4.281954413

>  <MMFF94 Energy>
83.099

$$$$
Compound 1264
Actelion Java MolfileCreator 2.0

  0  0  0  0  0  0              0 V3000
M  V30 BEGIN CTAB
M  V30 COUNTS 47 48 0 0 0
M  V30 BEGIN ATOM
M  V30 1 O 4.336 2.3268 -4.8186 0
M  V30 2 N 4.0228 2.3113 -3.6099 0 CHG=1
M  V30 3 O 3.6147 3.4839 -3.0158 0 CHG=-1
M  V30 4 C 4.0811 1.0892 -2.8518 0
M  V30 5 C 4.4966 -0.1119 -3.4557 0
M  V30 6 C 3.7323 1.0795 -1.4899 0
M  V30 7 C 4.5478 -1.297 -2.7158 0
M  V30 8 C 3.7858 -0.1064 -0.7524 0
M  V30 9 C 4.1646 -1.3092 -1.3707 0
M  V30 10 N 4.2577 -2.5358 -0.6282 0
M  V30 11 N 3.3967 -2.9683 0.214 0
M  V30 12 C 2.1008 -2.398 0.4583 0
M  V30 13 C 1.2562 -2.0216 -0.5997 0
M  V30 14 C 1.6378 -2.2975 1.7752 0
M  V30 15 C -0.0102 -1.4935 -0.3358 0
M  V30 16 C 0.3701 -1.7711 2.0404 0
M  V30 17 C -0.461 -1.3588 0.9871 0
M  V30 18 N -1.7659 -0.8137 1.2616 0
M  V30 19 C -2.1678 0.4502 0.6192 0
M  V30 20 C -2.7336 -1.6209 2.0276 0
M  V30 21 C -2.7243 1.4466 1.6353 0
M  V30 22 C -3.8524 -2.1702 1.1358 0
M  V30 23 O -2.8955 2.7149 1.0107 0
M  V30 24 C -3.3131 -3.0288 0.0736 0
M  V30 25 C -3.3806 3.8326 1.6957 0
M  V30 26 N -2.8872 -3.7047 -0.7634 0
M  V30 27 O -3.7106 3.7513 2.9102 0
M  V30 28 C -3.5529 5.1228 0.9689 0
M  V30 29 H 4.7834 -0.1349 -4.4991 0
M  V30 30 H 3.4255 1.9902 -0.9919 0
M  V30 31 H 4.8732 -2.2119 -3.1948 0
M  V30 32 H 3.5419 -0.083 0.3018 0
M  V30 33 H 1.5718 -2.1472 -1.6272 0
M  V30 34 H 2.2683 -2.6118 2.5974 0
M  V30 35 H -0.6485 -1.2071 -1.1621 0
M  V30 36 H 0.0392 -1.6743 3.0667 0
M  V30 37 H -2.9222 0.252 -0.171 0
M  V30 38 H -1.2897 0.924 0.1267 0
M  V30 39 H -3.1776 -1.009 2.84 0
M  V30 40 H -2.227 -2.4765 2.5266 0
M  V30 41 H -3.7077 1.0929 2.0125 0
M  V30 42 H -2.0147 1.5447 2.4859 0
M  V30 43 H -4.4328 -1.3407 0.6819 0
M  V30 44 H -4.5488 -2.7723 1.7568 0
M  V30 45 H -4.6136 5.2362 0.6627 0
M  V30 46 H -2.9091 5.1384 0.0645 0
M  V30 47 H -3.2678 5.971 1.6266 0
M  V30 END ATOM
M  V30 BEGIN BOND
M  V30 1 2 1 2
M  V30 2 1 2 3
M  V30 3 1 2 4
M  V30 4 2 4 5
M  V30 5 1 4 6
M  V30 6 1 5 7
M  V30 7 2 6 8
M  V30 8 2 7 9
M  V30 9 1 9 10
M  V30 10 2 10 11
M  V30 11 1 11 12
M  V30 12 2 12 13
M  V30 13 1 12 14
M  V30 14 1 13 15
M  V30 15 2 14 16
M  V30 16 2 15 17
M  V30 17 1 17 18
M  V30 18 1 18 19
M  V30 19 1 18 20
M  V30 20 1 19 21
M  V30 21 1 20 22
M  V30 22 1 21 23
M  V30 23 1 22 24
M  V30 24 1 23 25
M  V30 25 3 24 26
M  V30 26 2 25 27
M  V30 27 1 25 28
M  V30 28 1 8 9
M  V30 29 1 16 17
M  V30 30 1 5 29
M  V30 31 1 6 30
M  V30 32 1 7 31
M  V30 33 1 8 32
M  V30 34 1 13 33
M  V30 35 1 14 34
M  V30 36 1 15 35
M  V30 37 1 16 36
M  V30 38 1 19 37
M  V30 39 1 19 38
M  V30 40 1 20 39
M  V30 41 1 20 40
M  V30 42 1 21 41
M  V30 43 1 21 42
M  V30 44 1 22 43
M  V30 45 1 22 44
M  V30 46 1 28 45
M  V30 47 1 28 46
M  V30 48 1 28 47
M  V30 END BOND
M  V30 END CTAB
M  END
>  <Structure No>
1264

>  <LogS>
-4.280341584

>  <MMFF94 Energy>
83.553

$$$$
Compound 1265
Actelion Java MolfileCreator 2.0

  0  0  0  0  0  0              0 V3000
M  V30 BEGIN CTAB
M  V30 COUNTS 41 42 0 0 0
M  V30 BEGIN ATOM
M  V30 1 Cl 3.8926 1.7826 2.4315 0
M  V30 2 C 4.6609 1.2616 0.9378 0
M  V30 3 C 3.9075 0.6668 -0.0859 0
M  V30 4 C 6.0393 1.4481 0.781 0
M  V30 5 N 2.4972 0.481 0.0943 0
M  V30 6 C 4.5518 0.2646 -1.2686 0
M  V30 7 C 6.6866 1.047 -0.4015 0
M  V30 8 N 1.7617 -0.0499 -0.7981 0
M  V30 9 C 5.9275 0.4537 -1.4238 0
M  V30 10 N 8.1035 1.241 -0.5658 0 CHG=1
M  V30 11 C 0.3532 -0.2343 -0.613 0
M  V30 12 O 8.7798 1.7881 0.3297 0
M  V30 13 O 8.7377 0.8248 -1.7138 0 CHG=-1
M  V30 14 C -0.2962 0.1739 0.5663 0
M  V30 15 C -0.3919 -0.8346 -1.6349 0
M  V30 16 C -1.6723 -0.0211 0.7148 0
M  V30 17 C -1.7678 -1.0318 -1.4843 0
M  V30 18 C -2.4128 -0.6285 -0.3079 0
M  V30 19 N -3.8267 -0.8268 -0.1571 0
M  V30 20 C -4.7513 0.0788 -0.856 0
M  V30 21 C -4.311 -2.0699 0.4587 0
M  V30 22 C -4.7147 1.4894 -0.2592 0
M  V30 23 C -4.057 -2.0728 1.9624 0
M  V30 24 C -5.1802 1.4919 1.1327 0
M  V30 25 N -5.5464 1.4969 2.2301 0
M  V30 26 H 6.6029 1.9059 1.5844 0
M  V30 27 H 3.9938 -0.1976 -2.0723 0
M  V30 28 H 6.3969 0.1342 -2.3452 0
M  V30 29 H 0.2571 0.6417 1.3702 0
M  V30 30 H 0.0961 -1.152 -2.5477 0
M  V30 31 H -2.1643 0.3043 1.6225 0
M  V30 32 H -2.3329 -1.4989 -2.281 0
M  V30 33 H -4.4676 0.1349 -1.9292 0
M  V30 34 H -5.7955 -0.3022 -0.8193 0
M  V30 35 H -5.401 -2.2003 0.2881 0
M  V30 36 H -3.7973 -2.9404 -0.0036 0
M  V30 37 H -5.3767 2.1537 -0.8536 0
M  V30 38 H -3.6846 1.9012 -0.3026 0
M  V30 39 H -2.9672 -2.1028 2.1709 0
M  V30 40 H -4.5257 -2.971 2.4175 0
M  V30 41 H -4.4972 -1.1666 2.4279 0
M  V30 END ATOM
M  V30 BEGIN BOND
M  V30 1 1 1 2
M  V30 2 2 2 3
M  V30 3 1 2 4
M  V30 4 1 3 5
M  V30 5 1 3 6
M  V30 6 2 4 7
M  V30 7 2 5 8
M  V30 8 2 6 9
M  V30 9 1 7 10
M  V30 10 1 8 11
M  V30 11 2 10 12
M  V30 12 1 10 13
M  V30 13 2 11 14
M  V30 14 1 11 15
M  V30 15 1 14 16
M  V30 16 2 15 17
M  V30 17 2 16 18
M  V30 18 1 18 19
M  V30 19 1 19 20
M  V30 20 1 19 21
M  V30 21 1 20 22
M  V30 22 1 21 23
M  V30 23 1 22 24
M  V30 24 3 24 25
M  V30 25 1 7 9
M  V30 26 1 17 18
M  V30 27 1 4 26
M  V30 28 1 6 27
M  V30 29 1 9 28
M  V30 30 1 14 29
M  V30 31 1 15 30
M  V30 32 1 16 31
M  V30 33 1 17 32
M  V30 34 1 20 33
M  V30 35 1 20 34
M  V30 36 1 21 35
M  V30 37 1 21 36
M  V30 38 1 22 37
M  V30 39 1 22 38
M  V30 40 1 23 39
M  V30 41 1 23 40
M  V30 42 1 23 41
M  V30 END BOND
M  V30 END CTAB
M  END
>  <Structure No>
1265

>  <LogS>
-4.252611554

>  <MMFF94 Energy>
76.224

$$$$
Compound 1266
Actelion Java MolfileCreator 2.0

  0  0  0  0  0  0              0 V3000
M  V30 BEGIN CTAB
M  V30 COUNTS 55 56 0 0 0
M  V30 BEGIN ATOM
M  V30 1 Cl 3.8038 0.1616 -3.0746 0
M  V30 2 C 4.7034 0.1974 -1.5589 0
M  V30 3 C 4.0821 0.0758 -0.2901 0
M  V30 4 C 6.0941 0.2978 -1.6525 0
M  V30 5 N 2.6534 0.0141 -0.1481 0
M  V30 6 C 4.89 0.0162 0.8725 0
M  V30 7 C 6.8977 0.2718 -0.5067 0
M  V30 8 N 1.8472 0.5151 -0.9944 0
M  V30 9 N 4.3103 -0.1293 2.1869 0 CHG=1
M  V30 10 C 6.2872 0.1268 0.7477 0
M  V30 11 N 8.3294 0.3789 -0.6201 0 CHG=1
M  V30 12 C 0.422 0.4299 -0.8542 0
M  V30 13 O 4.9666 0.1809 3.2027 0
M  V30 14 O 3.0669 -0.6918 2.3592 0 CHG=-1
M  V30 15 O 9.0529 0.362 0.3977 0
M  V30 16 O 8.9257 0.5119 -1.8534 0 CHG=-1
M  V30 17 C -0.216 -0.6029 -0.1262 0
M  V30 18 C -0.3519 1.4268 -1.4608 0
M  V30 19 N 0.5294 -1.7191 0.3884 0
M  V30 20 C -1.614 -0.5881 -0.0012 0
M  V30 21 C -1.7519 1.4413 -1.3252 0
M  V30 22 C 0.2873 -2.2986 1.6787 0
M  V30 23 C -2.3782 0.4322 -0.5782 0
M  V30 24 O -2.5479 2.4305 -1.9245 0
M  V30 25 O -0.4393 -1.7049 2.5212 0
M  V30 26 C 0.9609 -3.5763 2.0596 0
M  V30 27 N -3.8065 0.4262 -0.4138 0
M  V30 28 C -2.0441 3.515 -2.6973 0
M  V30 29 C -4.4532 1.427 0.4465 0
M  V30 30 C -4.6128 -0.551 -1.152 0
M  V30 31 C -3.8504 1.4298 1.8253 0
M  V30 32 C -5.0287 -1.6794 -0.251 0
M  V30 33 C -3.979 0.3898 2.6531 0
M  V30 34 C -6.2358 -1.7152 0.3211 0
M  V30 35 H 6.5482 0.3886 -2.6311 0
M  V30 36 H 6.9046 0.0878 1.6357 0
M  V30 37 H 0.1523 2.1997 -2.0254 0
M  V30 38 H 1.2815 -2.1349 -0.2061 0
M  V30 39 H -2.1171 -1.3836 0.5327 0
M  V30 40 H 0.4469 -4.0418 2.9274 0
M  V30 41 H 2.0179 -3.3722 2.3289 0
M  V30 42 H 0.932 -4.2858 1.2062 0
M  V30 43 H -2.8935 4.141 -3.0397 0
M  V30 44 H -1.3671 4.1419 -2.0793 0
M  V30 45 H -1.5041 3.1306 -3.5882 0
M  V30 46 H -5.5459 1.2374 0.5242 0
M  V30 47 H -4.3247 2.4339 -0.0022 0
M  V30 48 H -5.4988 -0.0484 -1.5996 0
M  V30 49 H -4.0257 -0.973 -1.9971 0
M  V30 50 H -3.2954 2.3032 2.155 0
M  V30 51 H -4.3137 -2.4659 -0.0285 0
M  V30 52 H -4.5267 -0.4976 2.3567 0
M  V30 53 H -3.5288 0.4236 3.6399 0
M  V30 54 H -6.4967 -2.5335 0.9844 0
M  V30 55 H -6.9674 -0.9336 0.1386 0
M  V30 END ATOM
M  V30 BEGIN BOND
M  V30 1 1 1 2
M  V30 2 2 2 3
M  V30 3 1 2 4
M  V30 4 1 3 5
M  V30 5 1 3 6
M  V30 6 2 4 7
M  V30 7 2 5 8
M  V30 8 1 6 9
M  V30 9 2 6 10
M  V30 10 1 7 11
M  V30 11 1 8 12
M  V30 12 2 9 13
M  V30 13 1 9 14
M  V30 14 2 11 15
M  V30 15 1 11 16
M  V30 16 2 12 17
M  V30 17 1 12 18
M  V30 18 1 17 19
M  V30 19 1 17 20
M  V30 20 2 18 21
M  V30 21 1 19 22
M  V30 22 2 20 23
M  V30 23 1 21 24
M  V30 24 2 22 25
M  V30 25 1 22 26
M  V30 26 1 23 27
M  V30 27 1 24 28
M  V30 28 1 27 29
M  V30 29 1 27 30
M  V30 30 1 29 31
M  V30 31 1 30 32
M  V30 32 2 31 33
M  V30 33 2 32 34
M  V30 34 1 7 10
M  V30 35 1 21 23
M  V30 36 1 4 35
M  V30 37 1 10 36
M  V30 38 1 18 37
M  V30 39 1 19 38
M  V30 40 1 20 39
M  V30 41 1 26 40
M  V30 42 1 26 41
M  V30 43 1 26 42
M  V30 44 1 28 43
M  V30 45 1 28 44
M  V30 46 1 28 45
M  V30 47 1 29 46
M  V30 48 1 29 47
M  V30 49 1 30 48
M  V30 50 1 30 49
M  V30 51 1 31 50
M  V30 52 1 32 51
M  V30 53 1 33 52
M  V30 54 1 33 53
M  V30 55 1 34 54
M  V30 56 1 34 55
M  V30 END BOND
M  V30 END CTAB
M  END
>  <Structure No>
1266

>  <LogS>
-4.388179382

>  <MMFF94 Energy>
93.867

$$$$
Compound 1267
Actelion Java MolfileCreator 2.0

  0  0  0  0  0  0              0 V3000
M  V30 BEGIN CTAB
M  V30 COUNTS 46 47 0 0 0
M  V30 BEGIN ATOM
M  V30 1 Cl 3.4575 -0.0822 2.4687 0
M  V30 2 C 4.6643 -0.4561 1.2452 0
M  V30 3 C 4.3077 -1.0576 0.0225 0
M  V30 4 C 6.01 -0.1901 1.5249 0
M  V30 5 O 2.9739 -1.3371 -0.2999 0
M  V30 6 C 5.3075 -1.413 -0.8876 0
M  V30 7 C 7.0161 -0.5472 0.6104 0
M  V30 8 C 1.9537 -0.3765 -0.3722 0
M  V30 9 C 6.6495 -1.1461 -0.6063 0
M  V30 10 C 8.4599 -0.2145 0.8915 0
M  V30 11 C 0.6252 -0.81 -0.3622 0
M  V30 12 C 2.2284 0.9946 -0.4877 0
M  V30 13 F 8.7439 1.0404 0.3866 0
M  V30 14 F 8.7086 -0.2193 2.2532 0
M  V30 15 F 9.2986 -1.1404 0.296 0
M  V30 16 C -0.4404 0.1059 -0.4434 0
M  V30 17 C 1.1848 1.9176 -0.551 0
M  V30 18 C -0.1527 1.4939 -0.5066 0
M  V30 19 C -1.8235 -0.4187 -0.5317 0
M  V30 20 N -1.1908 2.4857 -0.4734 0 CHG=1
M  V30 21 O -2.1026 -1.5404 -0.0243 0
M  V30 22 O -2.8064 0.3023 -1.2212 0
M  V30 23 O -2.1064 2.4042 0.3709 0
M  V30 24 O -1.0453 3.6544 -1.185 0 CHG=-1
M  V30 25 C -4.1494 -0.1542 -1.3837 0 CFG=1
M  V30 26 C -4.8753 -0.1384 -0.0698 0
M  V30 27 C -4.8667 0.7423 -2.3882 0
M  V30 28 O -4.7833 0.8658 0.6885 0
M  V30 29 O -5.6672 -1.235 0.2885 0
M  V30 30 C -6.4425 -1.2855 1.4843 0
M  V30 31 C -7.6979 -0.4318 1.3477 0
M  V30 32 H 6.269 0.2873 2.4619 0
M  V30 33 H 5.0406 -1.8803 -1.827 0
M  V30 34 H 7.4009 -1.4056 -1.3415 0
M  V30 35 H 0.4282 -1.8743 -0.3135 0
M  V30 36 H 3.2484 1.3538 -0.5255 0
M  V30 37 H 1.4212 2.9727 -0.6064 0
M  V30 38 H -4.1384 -1.1905 -1.7885 0
M  V30 39 H -4.3397 0.7059 -3.3651 0
M  V30 40 H -5.9115 0.3942 -2.5376 0
M  V30 41 H -4.8802 1.7945 -2.0306 0
M  V30 42 H -6.7454 -2.3384 1.6645 0
M  V30 43 H -5.8374 -0.9476 2.3536 0
M  V30 44 H -7.4282 0.6358 1.2107 0
M  V30 45 H -8.3163 -0.5278 2.2649 0
M  V30 46 H -8.294 -0.7721 0.4745 0
M  V30 END ATOM
M  V30 BEGIN BOND
M  V30 1 1 1 2
M  V30 2 2 2 3
M  V30 3 1 2 4
M  V30 4 1 3 5
M  V30 5 1 3 6
M  V30 6 2 4 7
M  V30 7 1 5 8
M  V30 8 2 6 9
M  V30 9 1 7 10
M  V30 10 2 8 11
M  V30 11 1 8 12
M  V30 12 1 10 13
M  V30 13 1 10 14
M  V30 14 1 10 15
M  V30 15 1 11 16
M  V30 16 2 12 17
M  V30 17 2 16 18
M  V30 18 1 16 19
M  V30 19 1 18 20
M  V30 20 2 19 21
M  V30 21 1 19 22
M  V30 22 2 20 23
M  V30 23 1 20 24
M  V30 24 1 22 25
M  V30 25 1 25 26
M  V30 26 1 25 27
M  V30 27 2 26 28
M  V30 28 1 26 29
M  V30 29 1 29 30
M  V30 30 1 30 31
M  V30 31 1 7 9
M  V30 32 1 17 18
M  V30 33 1 4 32
M  V30 34 1 6 33
M  V30 35 1 9 34
M  V30 36 1 11 35
M  V30 37 1 12 36
M  V30 38 1 17 37
M  V30 39 1 25 38
M  V30 40 1 27 39
M  V30 41 1 27 40
M  V30 42 1 27 41
M  V30 43 1 30 42
M  V30 44 1 30 43
M  V30 45 1 31 44
M  V30 46 1 31 45
M  V30 47 1 31 46
M  V30 END BOND
M  V30 BEGIN COLLECTION
M  V30 MDLV30/STEABS ATOMS=(1 25)
M  V30 END COLLECTION
M  V30 END CTAB
M  END
>  <Structure No>
1267

>  <LogS>
-6.623038672

>  <MMFF94 Energy>
87.039

$$$$
Compound 1268
Actelion Java MolfileCreator 2.0

  0  0  0  0  0  0              0 V3000
M  V30 BEGIN CTAB
M  V30 COUNTS 59 62 0 0 0
M  V30 BEGIN ATOM
M  V30 1 O -6.0745 -0.3232 -0.6466 0
M  V30 2 C -4.8956 -0.4158 -0.3402 0
M  V30 3 C -4.5088 -0.4002 1.1082 0
M  V30 4 C -3.862 -0.5998 -1.41 0
M  V30 5 C -2.9772 -0.3398 1.3142 0 CFG=2
M  V30 6 C -2.6167 0.3083 -1.2101 0 CFG=2
M  V30 7 C -2.2623 0.6534 0.313 0 CFG=2
M  V30 8 C -2.3697 -1.7593 1.3317 0
M  V30 9 C -2.7572 1.5396 -2.1383 0
M  V30 10 C -0.6983 0.5908 0.5911 0 CFG=1
M  V30 11 C -2.7686 2.0825 0.6961 0
M  V30 12 C -0.8827 -1.7158 1.6528 0
M  V30 13 C -0.1362 -0.8739 0.6097 0 CFG=2
M  V30 14 C 0.1634 1.5197 -0.3265 0
M  V30 15 C 1.3701 -0.8159 0.9474 0 CFG=2
M  V30 16 C 1.6807 1.4416 -0.0353 0
M  V30 17 C 2.1822 -0.0174 -0.0782 0 CFG=1
M  V30 18 C 2.1448 -2.1151 1.1226 0
M  V30 19 C 3.6107 -0.2322 0.4695 0 CFG=1
M  V30 20 C 2.0937 -0.5786 -1.5345 0
M  V30 21 C 3.6159 -1.695 0.9624 0
M  V30 22 O 4.6266 -0.0346 -0.517 0
M  V30 23 C 5.1392 1.2213 -0.8575 0
M  V30 24 O 4.8203 2.2503 -0.2022 0
M  V30 25 C 6.1262 1.3314 -1.9685 0
M  V30 26 H -4.9419 -1.292 1.611 0
M  V30 27 H -4.9769 0.4863 1.5877 0
M  V30 28 H -4.3279 -0.4285 -2.4063 0
M  V30 29 H -3.5606 -1.6658 -1.4277 0
M  V30 30 H -2.8267 0.0468 2.3492 0
M  V30 31 H -1.7731 -0.272 -1.637 0
M  V30 32 H -2.515 -2.2861 0.3707 0
M  V30 33 H -2.8721 -2.3668 2.1162 0
M  V30 34 H -2.7919 1.2121 -3.1996 0
M  V30 35 H -1.9048 2.2382 -2.0465 0
M  V30 36 H -3.6959 2.0922 -1.9207 0
M  V30 37 H -0.5512 0.9875 1.623 0
M  V30 38 H -2.5916 2.294 1.7726 0
M  V30 39 H -2.2679 2.8879 0.1282 0
M  V30 40 H -3.8551 2.1916 0.5015 0
M  V30 41 H -0.4962 -2.7579 1.6468 0
M  V30 42 H -0.7303 -1.2989 2.6733 0
M  V30 43 H -0.2774 -1.3668 -0.3722 0
M  V30 44 H -0.1313 2.5784 -0.1872 0
M  V30 45 H 6.0E-4 1.2737 -1.3918 0
M  V30 46 H 1.447 -0.296 1.9354 0
M  V30 47 H 1.8785 1.8883 0.9643 0
M  V30 48 H 2.2242 2.0548 -0.7855 0
M  V30 49 H 1.9648 -2.5592 2.126 0
M  V30 50 H 1.8584 -2.8511 0.34 0
M  V30 51 H 3.7983 0.4298 1.3467 0
M  V30 52 H 1.0626 -0.6042 -1.9323 0
M  V30 53 H 2.4983 -1.6094 -1.6039 0
M  V30 54 H 2.6856 0.0595 -2.2244 0
M  V30 55 H 4.1523 -1.7701 1.9334 0
M  V30 56 H 4.1183 -2.3616 0.2274 0
M  V30 57 H 7.1548 1.277 -1.5559 0
M  V30 58 H 5.9946 2.2964 -2.5024 0
M  V30 59 H 5.9774 0.5003 -2.6893 0
M  V30 END ATOM
M  V30 BEGIN BOND
M  V30 1 2 1 2
M  V30 2 1 2 3
M  V30 3 1 2 4
M  V30 4 1 3 5
M  V30 5 1 4 6
M  V30 6 1 5 7
M  V30 7 1 5 8
M  V30 8 1 6 9
M  V30 9 1 7 10
M  V30 10 1 7 11
M  V30 11 1 8 12
M  V30 12 1 10 13
M  V30 13 1 10 14
M  V30 14 1 13 15
M  V30 15 1 14 16
M  V30 16 1 15 17
M  V30 17 1 15 18
M  V30 18 1 17 19
M  V30 19 1 17 20
M  V30 20 1 18 21
M  V30 21 1 19 22
M  V30 22 1 22 23
M  V30 23 2 23 24
M  V30 24 1 23 25
M  V30 25 1 6 7
M  V30 26 1 12 13
M  V30 27 1 16 17
M  V30 28 1 19 21
M  V30 29 1 3 26
M  V30 30 1 3 27
M  V30 31 1 4 28
M  V30 32 1 4 29
M  V30 33 1 5 30
M  V30 34 1 6 31
M  V30 35 1 8 32
M  V30 36 1 8 33
M  V30 37 1 9 34
M  V30 38 1 9 35
M  V30 39 1 9 36
M  V30 40 1 10 37
M  V30 41 1 11 38
M  V30 42 1 11 39
M  V30 43 1 11 40
M  V30 44 1 12 41
M  V30 45 1 12 42
M  V30 46 1 13 43
M  V30 47 1 14 44
M  V30 48 1 14 45
M  V30 49 1 15 46
M  V30 50 1 16 47
M  V30 51 1 16 48
M  V30 52 1 18 49
M  V30 53 1 18 50
M  V30 54 1 19 51
M  V30 55 1 20 52
M  V30 56 1 20 53
M  V30 57 1 20 54
M  V30 58 1 21 55
M  V30 59 1 21 56
M  V30 60 1 25 57
M  V30 61 1 25 58
M  V30 62 1 25 59
M  V30 END BOND
M  V30 BEGIN COLLECTION
M  V30 MDLV30/STEABS ATOMS=(8 5 6 7 10 13 15 17 19)
M  V30 END COLLECTION
M  V30 END CTAB
M  END
>  <Structure No>
1268

>  <LogS>
-5.092558995

>  <MMFF94 Energy>
74.545

$$$$
Compound 1269
Actelion Java MolfileCreator 2.0

  0  0  0  0  0  0              0 V3000
M  V30 BEGIN CTAB
M  V30 COUNTS 79 78 0 0 0
M  V30 BEGIN ATOM
M  V30 1 O -7.7642 1.1733 -2.1128 0
M  V30 2 C -7.2217 0.6908 -1.0815 0
M  V30 3 O -7.2407 -0.6908 -0.8489 0
M  V30 4 C -6.5105 1.6124 -0.1345 0
M  V30 5 C -7.8799 -1.6283 -1.7149 0
M  V30 6 C -6.1394 0.9258 1.1862 0
M  V30 7 C -9.4119 -1.568 -1.5891 0 CFG=1
M  V30 8 C -5.4315 1.9083 2.131 0
M  V30 9 O -9.9694 -2.4467 -2.5319 0
M  V30 10 C -9.8853 -1.9649 -0.1767 0
M  V30 11 C -5.0198 1.262 3.4648 0
M  V30 12 O -9.4807 -1.0217 0.781 0
M  V30 13 C -3.8925 0.2159 3.3585 0
M  V30 14 C -2.5498 0.7939 2.8595 0
M  V30 15 C -2.2762 0.4364 1.3874 0
M  V30 16 C -1.0518 1.1652 0.8128 0
M  V30 17 C 0.2734 0.6279 1.3767 0
M  V30 18 C 1.501 1.305 0.7479 0
M  V30 19 C 1.6773 0.9561 -0.742 0
M  V30 20 C 3.0891 1.2945 -1.2645 0
M  V30 21 C 4.0052 0.0647 -1.3856 0
M  V30 22 C 4.3838 -0.533 -0.0206 0
M  V30 23 C 5.4381 -1.6532 -0.1454 0
M  V30 24 C 6.8613 -1.2101 0.2373 0
M  V30 25 C 7.4531 -0.1916 -0.7504 0
M  V30 26 C 8.9028 0.2026 -0.4144 0
M  V30 27 C 9.934 -0.9422 -0.4863 0
M  V30 28 C 9.9686 -1.7057 -1.8215 0
M  V30 29 C 10.3184 -0.8122 -3.0109 0
M  V30 30 H -5.5866 1.9796 -0.6317 0
M  V30 31 H -7.1658 2.4855 0.0758 0
M  V30 32 H -7.5772 -1.4321 -2.7681 0
M  V30 33 H -7.5286 -2.6489 -1.4503 0
M  V30 34 H -5.4739 0.0657 0.9644 0
M  V30 35 H -7.0614 0.5437 1.6787 0
M  V30 36 H -9.7506 -0.5296 -1.8102 0
M  V30 37 H -6.1326 2.7414 2.3583 0
M  V30 38 H -4.5473 2.3605 1.6351 0
M  V30 39 H -10.9172 -2.1767 -2.6547 0
M  V30 40 H -9.4667 -2.9571 0.0982 0
M  V30 41 H -10.9962 -2.0594 -0.1638 0
M  V30 42 H -5.9113 0.7815 3.9238 0
M  V30 43 H -4.6944 2.065 4.1617 0
M  V30 44 H -10.0427 -0.2139 0.6372 0
M  V30 45 H -3.7326 -0.1903 4.3818 0
M  V30 46 H -4.2169 -0.6479 2.7406 0
M  V30 47 H -1.7366 0.3642 3.482 0
M  V30 48 H -2.521 1.8967 3.0006 0
M  V30 49 H -2.1409 -0.6625 1.2874 0
M  V30 50 H -3.1533 0.7145 0.7681 0
M  V30 51 H -1.0688 1.019 -0.2877 0
M  V30 52 H -1.1328 2.2574 1.0087 0
M  V30 53 H 0.3378 -0.4704 1.2232 0
M  V30 54 H 0.3065 0.8205 2.4687 0
M  V30 55 H 1.4181 2.4075 0.8609 0
M  V30 56 H 2.3951 0.9845 1.3191 0
M  V30 57 H 1.4435 -0.1169 -0.9202 0
M  V30 58 H 0.9418 1.5507 -1.3265 0
M  V30 59 H 2.9866 1.7313 -2.2823 0
M  V30 60 H 3.576 2.0736 -0.6372 0
M  V30 61 H 4.9214 0.376 -1.9264 0
M  V30 62 H 3.508 -0.7105 -2.0087 0
M  V30 63 H 4.7413 0.2662 0.6636 0
M  V30 64 H 3.4682 -0.9694 0.4317 0
M  V30 65 H 5.1527 -2.4743 0.5476 0
M  V30 66 H 5.4404 -2.0932 -1.167 0
M  V30 67 H 7.4936 -2.1216 0.253 0
M  V30 68 H 6.8596 -0.7821 1.2644 0
M  V30 69 H 6.848 0.7379 -0.7059 0
M  V30 70 H 7.3868 -0.5792 -1.7887 0
M  V30 71 H 9.2163 1.017 -1.1021 0
M  V30 72 H 8.927 0.6304 0.6108 0
M  V30 73 H 9.7463 -1.6651 0.3363 0
M  V30 74 H 10.9428 -0.5145 -0.295 0
M  V30 75 H 9.0 -2.2165 -2.005 0
M  V30 76 H 10.7432 -2.4992 -1.7442 0
M  V30 77 H 10.4481 -1.4405 -3.9158 0
M  V30 78 H 11.2669 -0.2661 -2.8207 0
M  V30 79 H 9.5055 -0.0836 -3.21 0
M  V30 END ATOM
M  V30 BEGIN BOND
M  V30 1 2 1 2
M  V30 2 1 2 3
M  V30 3 1 2 4
M  V30 4 1 3 5
M  V30 5 1 4 6
M  V30 6 1 5 7
M  V30 7 1 6 8
M  V30 8 1 7 9
M  V30 9 1 7 10
M  V30 10 1 8 11
M  V30 11 1 10 12
M  V30 12 1 11 13
M  V30 13 1 13 14
M  V30 14 1 14 15
M  V30 15 1 15 16
M  V30 16 1 16 17
M  V30 17 1 17 18
M  V30 18 1 18 19
M  V30 19 1 19 20
M  V30 20 1 20 21
M  V30 21 1 21 22
M  V30 22 1 22 23
M  V30 23 1 23 24
M  V30 24 1 24 25
M  V30 25 1 25 26
M  V30 26 1 26 27
M  V30 27 1 27 28
M  V30 28 1 28 29
M  V30 29 1 4 30
M  V30 30 1 4 31
M  V30 31 1 5 32
M  V30 32 1 5 33
M  V30 33 1 6 34
M  V30 34 1 6 35
M  V30 35 1 7 36
M  V30 36 1 8 37
M  V30 37 1 8 38
M  V30 38 1 9 39
M  V30 39 1 10 40
M  V30 40 1 10 41
M  V30 41 1 11 42
M  V30 42 1 11 43
M  V30 43 1 12 44
M  V30 44 1 13 45
M  V30 45 1 13 46
M  V30 46 1 14 47
M  V30 47 1 14 48
M  V30 48 1 15 49
M  V30 49 1 15 50
M  V30 50 1 16 51
M  V30 51 1 16 52
M  V30 52 1 17 53
M  V30 53 1 17 54
M  V30 54 1 18 55
M  V30 55 1 18 56
M  V30 56 1 19 57
M  V30 57 1 19 58
M  V30 58 1 20 59
M  V30 59 1 20 60
M  V30 60 1 21 61
M  V30 61 1 21 62
M  V30 62 1 22 63
M  V30 63 1 22 64
M  V30 64 1 23 65
M  V30 65 1 23 66
M  V30 66 1 24 67
M  V30 67 1 24 68
M  V30 68 1 25 69
M  V30 69 1 25 70
M  V30 70 1 26 71
M  V30 71 1 26 72
M  V30 72 1 27 73
M  V30 73 1 27 74
M  V30 74 1 28 75
M  V30 75 1 28 76
M  V30 76 1 29 77
M  V30 77 1 29 78
M  V30 78 1 29 79
M  V30 END BOND
M  V30 BEGIN COLLECTION
M  V30 MDLV30/STEABS ATOMS=(1 7)
M  V30 END COLLECTION
M  V30 END CTAB
M  END
>  <Structure No>
1269

>  <LogS>
-6.91873366

>  <MMFF94 Energy>
22.149

$$$$
Compound 1270
Actelion Java MolfileCreator 2.0

  0  0  0  0  0  0              0 V3000
M  V30 BEGIN CTAB
M  V30 COUNTS 13 12 0 0 0
M  V30 BEGIN ATOM
M  V30 1 C 0.0759 0.0759 0.4559 0 RAD=2
M  V30 2 C 0.0351 1.4474 -0.2212 0
M  V30 3 C 1.2126 -0.7849 -0.0985 0
M  V30 4 C -1.2711 -0.6407 0.343 0
M  V30 5 H -0.7619 2.0716 0.235 0
M  V30 6 H -0.1645 1.3417 -1.3093 0
M  V30 7 H 1.0051 1.969 -0.0791 0
M  V30 8 H 2.1843 -0.2666 0.0437 0
M  V30 9 H 1.255 -1.7522 0.4452 0
M  V30 10 H 1.0619 -0.9832 -1.1815 0
M  V30 11 H -1.2324 -1.6078 0.8874 0
M  V30 12 H -1.5249 -0.833 -0.7216 0
M  V30 13 H -2.0702 -0.0196 0.8 0
M  V30 END ATOM
M  V30 BEGIN BOND
M  V30 1 1 1 2
M  V30 2 1 1 3
M  V30 3 1 1 4
M  V30 4 1 2 5
M  V30 5 1 2 6
M  V30 6 1 2 7
M  V30 7 1 3 8
M  V30 8 1 3 9
M  V30 9 1 3 10
M  V30 10 1 4 11
M  V30 11 1 4 12
M  V30 12 1 4 13
M  V30 END BOND
M  V30 END CTAB
M  END
>  <Structure No>
1270

>  <LogS>
-4.376546543

>  <MMFF94 Energy>
2.3633

$$$$
Compound 1271
Actelion Java MolfileCreator 2.0

  0  0  0  0  0  0              0 V3000
M  V30 BEGIN CTAB
M  V30 COUNTS 12 11 0 0 0
M  V30 BEGIN ATOM
M  V30 1 C -0.5239 -0.2245 -0.2993 0
M  V30 2 C 0.5382 0.2882 0.3346 0
M  V30 3 C -1.89 0.3581 -0.1094 0
M  V30 4 C 1.9043 -0.2944 0.1447 0
M  V30 5 H -0.4031 -1.0762 -0.9636 0
M  V30 6 H 0.4174 1.14 0.9989 0
M  V30 7 H -1.8971 1.4206 -0.4321 0
M  V30 8 H -2.184 0.2943 0.9596 0
M  V30 9 H -2.6263 -0.2069 -0.7183 0
M  V30 10 H 1.9113 -1.3568 0.4676 0
M  V30 11 H 2.1982 -0.2305 -0.9242 0
M  V30 12 H 2.6405 0.2707 0.7537 0
M  V30 END ATOM
M  V30 BEGIN BOND
M  V30 1 2 1 2
M  V30 2 1 1 3
M  V30 3 1 2 4
M  V30 4 1 1 5
M  V30 5 1 2 6
M  V30 6 1 3 7
M  V30 7 1 3 8
M  V30 8 1 3 9
M  V30 9 1 4 10
M  V30 10 1 4 11
M  V30 11 1 4 12
M  V30 END BOND
M  V30 END CTAB
M  END
>  <Structure No>
1271

>  <LogS>
-4.669843542

>  <MMFF94 Energy>
4.8468

$$$$
Compound 1272
Actelion Java MolfileCreator 2.0

  0  0  0  0  0  0              0 V3000
M  V30 BEGIN CTAB
M  V30 COUNTS 28 27 0 0 0
M  V30 BEGIN ATOM
M  V30 1 O 4.8569 1.1733 1.0168 0
M  V30 2 C 4.476 0.0077 1.3025 0
M  V30 3 O 4.7911 -0.5352 2.5416 0 CHG=-1
M  V30 4 C 3.6422 -0.7703 0.3341 0
M  V30 5 C 2.1529 -0.5045 0.5734 0
M  V30 6 C 1.2876 -1.2938 -0.4202 0
M  V30 7 C -0.2161 -1.1629 -0.131 0
M  V30 8 C -0.764 0.233 -0.4636 0
M  V30 9 C -2.2869 0.2806 -0.2903 0
M  V30 10 C -2.8343 1.6763 -0.6107 0
M  V30 11 C -4.3498 1.7269 -0.4403 0
M  V30 12 H 3.8579 -1.8534 0.461 0
M  V30 13 H 3.9159 -0.4809 -0.7041 0
M  V30 14 H 1.9599 0.5834 0.4562 0
M  V30 15 H 1.8897 -0.8027 1.6126 0
M  V30 16 H 1.5022 -0.9588 -1.4588 0
M  V30 17 H 1.556 -2.371 -0.3522 0
M  V30 18 H -0.4172 -1.4046 0.9358 0
M  V30 19 H -0.7501 -1.915 -0.7523 0
M  V30 20 H -0.5067 0.4912 -1.5145 0
M  V30 21 H -0.3033 0.9862 0.2104 0
M  V30 22 H -2.7587 -0.4634 -0.9696 0
M  V30 23 H -2.5459 0.0157 0.7588 0
M  V30 24 H -2.3713 2.4258 0.0676 0
M  V30 25 H -2.5812 1.9467 -1.6592 0
M  V30 26 H -4.8397 1.004 -1.1269 0
M  V30 27 H -4.7169 2.7475 -0.6784 0
M  V30 28 H -4.6287 1.4847 0.6074 0
M  V30 END ATOM
M  V30 BEGIN BOND
M  V30 1 2 1 2
M  V30 2 1 2 3
M  V30 3 1 2 4
M  V30 4 1 4 5
M  V30 5 1 5 6
M  V30 6 1 6 7
M  V30 7 1 7 8
M  V30 8 1 8 9
M  V30 9 1 9 10
M  V30 10 1 10 11
M  V30 11 1 4 12
M  V30 12 1 4 13
M  V30 13 1 5 14
M  V30 14 1 5 15
M  V30 15 1 6 16
M  V30 16 1 6 17
M  V30 17 1 7 18
M  V30 18 1 7 19
M  V30 19 1 8 20
M  V30 20 1 8 21
M  V30 21 1 9 22
M  V30 22 1 9 23
M  V30 23 1 10 24
M  V30 24 1 10 25
M  V30 25 1 11 26
M  V30 26 1 11 27
M  V30 27 1 11 28
M  V30 END BOND
M  V30 END CTAB
M  END
>  <Structure No>
1272

>  <LogS>
-5.418373857

>  <MMFF94 Energy>
1.474

$$$$
Compound 1273
Actelion Java MolfileCreator 2.0

  0  0  0  0  0  0              0 V3000
M  V30 BEGIN CTAB
M  V30 COUNTS 26 26 0 0 0
M  V30 BEGIN ATOM
M  V30 1 O 0.0 1.8079 -1.6506 0
M  V30 2 C 0.7971 1.0176 -0.8243 0
M  V30 3 C 0.2235 0.0299 0.0271 0
M  V30 4 C 2.185 1.2167 -0.8491 0
M  V30 5 C 1.1116 -0.7285 0.8344 0
M  V30 6 C -1.3106 -0.2048 0.0683 0
M  V30 7 C 3.0268 0.4558 -0.0449 0
M  V30 8 C 2.4954 -0.5159 0.7966 0
M  V30 9 C -1.8191 -0.6301 -1.3279 0
M  V30 10 C -1.726 -1.3227 1.0591 0
M  V30 11 C -2.0322 1.0858 0.519 0
M  V30 12 O 3.3523 -1.2699 1.596 0
M  V30 13 H 0.3947 2.514 -2.261 0
M  V30 14 H 2.6148 1.9691 -1.4984 0
M  V30 15 H 0.7571 -1.4949 1.5056 0
M  V30 16 H 4.0963 0.6221 -0.076 0
M  V30 17 H -1.7163 0.177 -2.0787 0
M  V30 18 H -2.8981 -0.8955 -1.2907 0
M  V30 19 H -1.2555 -1.5173 -1.6891 0
M  V30 20 H -1.2733 -2.2966 0.7726 0
M  V30 21 H -1.4263 -1.065 2.0981 0
M  V30 22 H -2.8293 -1.4619 1.0612 0
M  V30 23 H -1.6223 1.437 1.4906 0
M  V30 24 H -1.9311 1.9057 -0.2181 0
M  V30 25 H -3.1217 0.9045 0.6467 0
M  V30 26 H 3.0026 -1.9865 2.2215 0
M  V30 END ATOM
M  V30 BEGIN BOND
M  V30 1 1 1 2
M  V30 2 2 2 3
M  V30 3 1 2 4
M  V30 4 1 3 5
M  V30 5 1 3 6
M  V30 6 2 4 7
M  V30 7 2 5 8
M  V30 8 1 6 9
M  V30 9 1 6 10
M  V30 10 1 6 11
M  V30 11 1 8 12
M  V30 12 1 7 8
M  V30 13 1 1 13
M  V30 14 1 4 14
M  V30 15 1 5 15
M  V30 16 1 7 16
M  V30 17 1 9 17
M  V30 18 1 9 18
M  V30 19 1 9 19
M  V30 20 1 10 20
M  V30 21 1 10 21
M  V30 22 1 10 22
M  V30 23 1 11 23
M  V30 24 1 11 24
M  V30 25 1 11 25
M  V30 26 1 12 26
M  V30 END BOND
M  V30 END CTAB
M  END
>  <Structure No>
1273

>  <LogS>
-1.220683278

>  <MMFF94 Energy>
15.867

$$$$
Compound 1274
Actelion Java MolfileCreator 2.0

  0  0  0  0  0  0              0 V3000
M  V30 BEGIN CTAB
M  V30 COUNTS 20 20 0 0 0
M  V30 BEGIN ATOM
M  V30 1 O 2.5434 2.1457 1.6685 0
M  V30 2 N 2.5608 1.3081 0.743 0 CHG=1
M  V30 3 O 3.6462 1.2754 -0.1016 0 CHG=-1
M  V30 4 C 1.3746 0.5628 0.423 0
M  V30 5 C 1.4458 -0.7622 -0.0671 0
M  V30 6 C 0.1164 1.1739 0.5688 0
M  V30 7 N 2.6896 -1.471 -0.1369 0
M  V30 8 C 0.2669 -1.4231 -0.4417 0
M  V30 9 C -1.0577 0.5065 0.2057 0
M  V30 10 C -0.9739 -0.798 -0.3089 0
M  V30 11 O -2.2809 1.1744 0.3672 0
M  V30 12 C -3.5502 0.6188 0.0386 0
M  V30 13 H 0.048 2.1875 0.9447 0
M  V30 14 H 3.5464 -1.1287 0.3494 0
M  V30 15 H 2.7371 -2.4136 -0.5843 0
M  V30 16 H 0.3083 -2.4371 -0.8198 0
M  V30 17 H -1.8621 -1.3415 -0.601 0
M  V30 18 H -3.5923 0.3768 -1.0442 0
M  V30 19 H -3.7351 -0.2946 0.6425 0
M  V30 20 H -4.3415 1.3619 0.2675 0
M  V30 END ATOM
M  V30 BEGIN BOND
M  V30 1 2 1 2
M  V30 2 1 2 3
M  V30 3 1 2 4
M  V30 4 2 4 5
M  V30 5 1 4 6
M  V30 6 1 5 7
M  V30 7 1 5 8
M  V30 8 2 6 9
M  V30 9 2 8 10
M  V30 10 1 9 11
M  V30 11 1 11 12
M  V30 12 1 9 10
M  V30 13 1 6 13
M  V30 14 1 7 14
M  V30 15 1 7 15
M  V30 16 1 8 16
M  V30 17 1 10 17
M  V30 18 1 12 18
M  V30 19 1 12 19
M  V30 20 1 12 20
M  V30 END BOND
M  V30 END CTAB
M  END
>  <Structure No>
1274

>  <LogS>
-1.225702037

>  <MMFF94 Energy>
60.925

$$$$
Compound 1275
Actelion Java MolfileCreator 2.0

  0  0  0  0  0  0              0 V3000
M  V30 BEGIN CTAB
M  V30 COUNTS 42 41 0 0 0
M  V30 BEGIN ATOM
M  V30 1 O -1.8623 0.2326 -1.086 0
M  V30 2 C -2.091 0.4506 0.3032 0
M  V30 3 C -2.4852 1.2207 -1.8881 0
M  V30 4 O -3.1684 -0.3427 0.7843 0
M  V30 5 C -0.8287 0.1597 1.0883 0
M  V30 6 C -3.9853 0.9724 -2.031 0
M  V30 7 C -3.1008 -1.6799 0.321 0
M  V30 8 C 0.3247 0.853 0.954 0
M  V30 9 C -4.0438 -2.5401 1.1474 0
M  V30 10 C 1.5193 0.4683 1.8038 0
M  V30 11 C 0.4529 2.006 -0.0133 0
M  V30 12 C 2.1725 -0.8329 1.3159 0
M  V30 13 C 2.6806 -0.708 -0.1013 0
M  V30 14 C 3.8952 -0.2241 -0.4417 0
M  V30 15 C 4.2391 -0.1152 -1.9047 0
M  V30 16 C 4.9132 0.1881 0.5953 0
M  V30 17 H -2.3517 1.5086 0.5369 0
M  V30 18 H -2.0344 1.1645 -2.9012 0
M  V30 19 H -2.2889 2.2544 -1.5231 0
M  V30 20 H -0.8678 -0.6373 1.8269 0
M  V30 21 H -4.1678 -0.0511 -2.4199 0
M  V30 22 H -4.4962 1.0932 -1.0531 0
M  V30 23 H -4.4166 1.7063 -2.7439 0
M  V30 24 H -2.0772 -2.1074 0.4089 0
M  V30 25 H -3.4244 -1.7333 -0.7406 0
M  V30 26 H -4.0069 -3.5904 0.7889 0
M  V30 27 H -5.0842 -2.1629 1.0518 0
M  V30 28 H -3.7433 -2.513 2.2164 0
M  V30 29 H 2.2725 1.2828 1.8108 0
M  V30 30 H 1.1938 0.3386 2.8591 0
M  V30 31 H 1.4566 2.4752 0.0474 0
M  V30 32 H 0.3187 1.6456 -1.0532 0
M  V30 33 H -0.303 2.7855 0.2157 0
M  V30 34 H 2.9903 -1.1248 2.0073 0
M  V30 35 H 1.4235 -1.6532 1.3517 0
M  V30 36 H 1.9951 -1.0068 -0.8909 0
M  V30 37 H 4.1843 -1.1178 -2.3792 0
M  V30 38 H 5.2621 0.2862 -2.0587 0
M  V30 39 H 3.5198 0.5647 -2.4083 0
M  V30 40 H 4.5101 1.0031 1.2293 0
M  V30 41 H 5.8462 0.5594 0.123 0
M  V30 42 H 5.1804 -0.6811 1.2317 0
M  V30 END ATOM
M  V30 BEGIN BOND
M  V30 1 1 1 2
M  V30 2 1 1 3
M  V30 3 1 2 4
M  V30 4 1 2 5
M  V30 5 1 3 6
M  V30 6 1 4 7
M  V30 7 2 5 8
M  V30 8 1 7 9
M  V30 9 1 8 10
M  V30 10 1 8 11
M  V30 11 1 10 12
M  V30 12 1 12 13
M  V30 13 2 13 14
M  V30 14 1 14 15
M  V30 15 1 14 16
M  V30 16 1 2 17
M  V30 17 1 3 18
M  V30 18 1 3 19
M  V30 19 1 5 20
M  V30 20 1 6 21
M  V30 21 1 6 22
M  V30 22 1 6 23
M  V30 23 1 7 24
M  V30 24 1 7 25
M  V30 25 1 9 26
M  V30 26 1 9 27
M  V30 27 1 9 28
M  V30 28 1 10 29
M  V30 29 1 10 30
M  V30 30 1 11 31
M  V30 31 1 11 32
M  V30 32 1 11 33
M  V30 33 1 12 34
M  V30 34 1 12 35
M  V30 35 1 13 36
M  V30 36 1 15 37
M  V30 37 1 15 38
M  V30 38 1 15 39
M  V30 39 1 16 40
M  V30 40 1 16 41
M  V30 41 1 16 42
M  V30 END BOND
M  V30 END CTAB
M  END
>  <Structure No>
1275

>  <LogS>
-2.354799685

>  <MMFF94 Energy>
3.5031

$$$$
Compound 1276
Actelion Java MolfileCreator 2.0

  0  0  0  0  0  0              0 V3000
M  V30 BEGIN CTAB
M  V30 COUNTS 16 17 0 0 0
M  V30 BEGIN ATOM
M  V30 1 S 3.9394 -0.2408 -0.3211 0
M  V30 2 C 2.3144 -0.1259 -0.1761 0
M  V30 3 N 1.4602 -1.1007 -0.5735 0
M  V30 4 N 1.6881 0.9537 0.3532 0
M  V30 5 C 0.2479 -0.6039 -0.2774 0
M  V30 6 C 0.3854 0.6348 0.2815 0
M  V30 7 C -0.9998 -1.1907 -0.4748 0
M  V30 8 C -0.7138 1.3877 0.6883 0
M  V30 9 C -2.1341 -0.4578 -0.0751 0
M  V30 10 C -1.9917 0.8254 0.5037 0
M  V30 11 H 1.6888 -2.0225 -1.0082 0
M  V30 12 H 2.1161 1.8292 0.7295 0
M  V30 13 H -1.0952 -2.173 -0.9186 0
M  V30 14 H -0.5914 2.3682 1.1298 0
M  V30 15 H -3.1214 -0.8793 -0.2117 0
M  V30 16 H -2.8709 1.3789 0.8069 0
M  V30 END ATOM
M  V30 BEGIN BOND
M  V30 1 2 1 2
M  V30 2 1 2 3
M  V30 3 1 2 4
M  V30 4 1 3 5
M  V30 5 1 4 6
M  V30 6 1 5 7
M  V30 7 1 6 8
M  V30 8 2 7 9
M  V30 9 2 8 10
M  V30 10 2 5 6
M  V30 11 1 9 10
M  V30 12 1 3 11
M  V30 13 1 4 12
M  V30 14 1 7 13
M  V30 15 1 8 14
M  V30 16 1 9 15
M  V30 17 1 10 16
M  V30 END BOND
M  V30 END CTAB
M  END
>  <Structure No>
1276

>  <LogS>
-2.176687281

>  <MMFF94 Energy>
-12.98

$$$$
Compound 1277
Actelion Java MolfileCreator 2.0

  0  0  0  0  0  0              0 V3000
M  V30 BEGIN CTAB
M  V30 COUNTS 39 38 0 0 0
M  V30 BEGIN ATOM
M  V30 1 O -0.6193 -1.1616 -0.3096 0
M  V30 2 C 0.6575 -1.0068 -0.8927 0
M  V30 3 C -1.5716 -1.5418 -1.2864 0
M  V30 4 C 1.6166 -0.4444 0.1553 0
M  V30 5 C -2.2878 -0.3158 -1.8755 0
M  V30 6 C 3.0248 -0.2589 -0.4221 0
M  V30 7 C -2.8653 0.6354 -0.8135 0
M  V30 8 C 3.9822 0.3062 0.6336 0
M  V30 9 C -4.0092 0.0016 -0.0084 0
M  V30 10 C 5.3899 0.492 0.0562 0
M  V30 11 C -4.6505 1.0273 0.9334 0
M  V30 12 C 6.3458 1.0544 1.1042 0
M  V30 13 C -5.7795 0.3998 1.7462 0
M  V30 14 H 0.621 -0.302 -1.7545 0
M  V30 15 H 1.0408 -1.9945 -1.2366 0
M  V30 16 H -2.3215 -2.1998 -0.8005 0
M  V30 17 H -1.1347 -2.1514 -2.1125 0
M  V30 18 H 1.6579 -1.1422 1.0204 0
M  V30 19 H 1.2283 0.5353 0.5115 0
M  V30 20 H -1.5694 0.2535 -2.5029 0
M  V30 21 H -3.1031 -0.6603 -2.5484 0
M  V30 22 H 3.4084 -1.2402 -0.7789 0
M  V30 23 H 2.9788 0.4386 -1.2874 0
M  V30 24 H -2.0591 0.9718 -0.1256 0
M  V30 25 H -3.2513 1.5365 -1.3386 0
M  V30 26 H 3.5986 1.2876 0.9906 0
M  V30 27 H 4.0287 -0.3912 1.4991 0
M  V30 28 H -3.6156 -0.843 0.5966 0
M  V30 29 H -4.7818 -0.3889 -0.7068 0
M  V30 30 H 5.3518 1.1913 -0.8074 0
M  V30 31 H 5.7816 -0.4858 -0.2993 0
M  V30 32 H -5.0621 1.8745 0.3424 0
M  V30 33 H -3.8827 1.4256 1.6323 0
M  V30 34 H 6.422 0.3611 1.9689 0
M  V30 35 H 5.9903 2.0455 1.4587 0
M  V30 36 H 7.3553 1.1781 0.6585 0
M  V30 37 H -6.5729 0.0144 1.0709 0
M  V30 38 H -5.39 -0.4337 2.3685 0
M  V30 39 H -6.2248 1.1651 2.4164 0
M  V30 END ATOM
M  V30 BEGIN BOND
M  V30 1 1 1 2
M  V30 2 1 1 3
M  V30 3 1 2 4
M  V30 4 1 3 5
M  V30 5 1 4 6
M  V30 6 1 5 7
M  V30 7 1 6 8
M  V30 8 1 7 9
M  V30 9 1 8 10
M  V30 10 1 9 11
M  V30 11 1 10 12
M  V30 12 1 11 13
M  V30 13 1 2 14
M  V30 14 1 2 15
M  V30 15 1 3 16
M  V30 16 1 3 17
M  V30 17 1 4 18
M  V30 18 1 4 19
M  V30 19 1 5 20
M  V30 20 1 5 21
M  V30 21 1 6 22
M  V30 22 1 6 23
M  V30 23 1 7 24
M  V30 24 1 7 25
M  V30 25 1 8 26
M  V30 26 1 8 27
M  V30 27 1 9 28
M  V30 28 1 9 29
M  V30 29 1 10 30
M  V30 30 1 10 31
M  V30 31 1 11 32
M  V30 32 1 11 33
M  V30 33 1 12 34
M  V30 34 1 12 35
M  V30 35 1 12 36
M  V30 36 1 13 37
M  V30 37 1 13 38
M  V30 38 1 13 39
M  V30 END BOND
M  V30 END CTAB
M  END
>  <Structure No>
1277

>  <LogS>
-4.270303761

>  <MMFF94 Energy>
-0.048477

$$$$
Compound 1278
Actelion Java MolfileCreator 2.0

  0  0  0  0  0  0              0 V3000
M  V30 BEGIN CTAB
M  V30 COUNTS 49 50 0 0 0
M  V30 BEGIN ATOM
M  V30 1 O -6.8245 5.4568 -3.4479 0
M  V30 2 N -7.0942 4.3331 -2.974 0 CHG=1
M  V30 3 O -8.4129 3.9493 -2.8873 0 CHG=-1
M  V30 4 C -6.0465 3.4578 -2.5181 0
M  V30 5 C -6.3591 2.2192 -1.9315 0
M  V30 6 C -4.695 3.8252 -2.6508 0
M  V30 7 C -5.3432 1.3686 -1.4858 0
M  V30 8 C -3.6803 2.9725 -2.2062 0
M  V30 9 C -4.0006 1.7363 -1.6196 0
M  V30 10 N -2.986 0.8392 -1.1527 0
M  V30 11 N -1.7465 1.1125 -1.2422 0
M  V30 12 C -0.7327 0.2145 -0.7759 0
M  V30 13 C 0.6109 0.5824 -0.9073 0
M  V30 14 C -1.0543 -1.0234 -0.1925 0
M  V30 15 C 1.6253 -0.2706 -0.4635 0
M  V30 16 C -0.0402 -1.8767 0.251 0
M  V30 17 C 1.3071 -1.5072 0.1198 0
M  V30 18 N 2.3484 -2.3925 0.5746 0
M  V30 19 C 2.3921 -2.8049 1.9841 0
M  V30 20 C 3.4215 -2.8049 -0.3416 0
M  V30 21 C 3.1915 -1.8005 2.8109 0
M  V30 22 C 2.8602 -3.6994 -1.4482 0
M  V30 23 O 2.528 -0.5541 2.807 0
M  V30 24 C 3.9337 -4.1485 -2.3413 0
M  V30 25 C 3.2847 0.3859 3.5406 0
M  V30 26 N 4.7799 -4.5032 -3.0465 0
M  V30 27 C 2.5576 1.7286 3.5554 0
M  V30 28 C 2.4628 2.2926 2.2031 0
M  V30 29 N 2.3883 2.7396 1.1384 0
M  V30 30 H -7.3891 1.9087 -1.8131 0
M  V30 31 H -4.4219 4.7712 -3.1001 0
M  V30 32 H -5.6023 0.4184 -1.0354 0
M  V30 33 H -2.6486 3.2795 -2.3208 0
M  V30 34 H 0.8712 1.5353 -1.3507 0
M  V30 35 H -2.0858 -1.333 -0.0833 0
M  V30 36 H 2.6562 0.0438 -0.557 0
M  V30 37 H -0.3047 -2.8339 0.6816 0
M  V30 38 H 1.3664 -2.8936 2.4016 0
M  V30 39 H 2.8615 -3.8087 2.0727 0
M  V30 40 H 4.2091 -3.3626 0.2119 0
M  V30 41 H 3.9084 -1.91 -0.7843 0
M  V30 42 H 4.2125 -1.7131 2.3727 0
M  V30 43 H 3.2729 -2.1945 3.8495 0
M  V30 44 H 2.3694 -4.5891 -0.9993 0
M  V30 45 H 2.1107 -3.14 -2.0472 0
M  V30 46 H 4.2949 0.526 3.0895 0
M  V30 47 H 3.4034 0.0517 4.5966 0
M  V30 48 H 1.535 1.5999 3.9694 0
M  V30 49 H 3.1113 2.4421 4.2014 0
M  V30 END ATOM
M  V30 BEGIN BOND
M  V30 1 2 1 2
M  V30 2 1 2 3
M  V30 3 1 2 4
M  V30 4 2 4 5
M  V30 5 1 4 6
M  V30 6 1 5 7
M  V30 7 2 6 8
M  V30 8 2 7 9
M  V30 9 1 9 10
M  V30 10 2 10 11
M  V30 11 1 11 12
M  V30 12 2 12 13
M  V30 13 1 12 14
M  V30 14 1 13 15
M  V30 15 2 14 16
M  V30 16 2 15 17
M  V30 17 1 17 18
M  V30 18 1 18 19
M  V30 19 1 18 20
M  V30 20 1 19 21
M  V30 21 1 20 22
M  V30 22 1 21 23
M  V30 23 1 22 24
M  V30 24 1 23 25
M  V30 25 3 24 26
M  V30 26 1 25 27
M  V30 27 1 27 28
M  V30 28 3 28 29
M  V30 29 1 8 9
M  V30 30 1 16 17
M  V30 31 1 5 30
M  V30 32 1 6 31
M  V30 33 1 7 32
M  V30 34 1 8 33
M  V30 35 1 13 34
M  V30 36 1 14 35
M  V30 37 1 15 36
M  V30 38 1 16 37
M  V30 39 1 19 38
M  V30 40 1 19 39
M  V30 41 1 20 40
M  V30 42 1 20 41
M  V30 43 1 21 42
M  V30 44 1 21 43
M  V30 45 1 22 44
M  V30 46 1 22 45
M  V30 47 1 25 46
M  V30 48 1 25 47
M  V30 49 1 27 48
M  V30 50 1 27 49
M  V30 END BOND
M  V30 END CTAB
M  END
>  <Structure No>
1278

>  <LogS>
-4.593750027

>  <MMFF94 Energy>
103.53

$$$$
Compound 1279
Actelion Java MolfileCreator 2.0

  0  0  0  0  0  0              0 V3000
M  V30 BEGIN CTAB
M  V30 COUNTS 164 175 0 0 0
M  V30 BEGIN ATOM
M  V30 1 N 0 0 0 0 CHG=1
M  V30 2 C 0 0 0 0
M  V30 3 C 0 0 0 0
M  V30 4 N 0 0 0 0 CHG=1
M  V30 5 N 0 0 0 0
M  V30 6 N 0 0 0 0
M  V30 7 N 0 0 0 0
M  V30 8 C 0 0 0 0
M  V30 9 C 0 0 0 0
M  V30 10 C 0 0 0 0
M  V30 11 C 0 0 0 0
M  V30 12 C 0 0 0 0
M  V30 13 N 0 0 0 0
M  V30 14 C 0 0 0 0
M  V30 15 C 0 0 0 0
M  V30 16 C 0 0 0 0
M  V30 17 C 0 0 0 0
M  V30 18 C 0 0 0 0
M  V30 19 C 0 0 0 0
M  V30 20 C 0 0 0 0
M  V30 21 N 0 0 0 0
M  V30 22 C 0 0 0 0
M  V30 23 C 0 0 0 0
M  V30 24 C 0 0 0 0
M  V30 25 C 0 0 0 0
M  V30 26 C 0 0 0 0
M  V30 27 C 0 0 0 0
M  V30 28 C 0 0 0 0
M  V30 29 C 0 0 0 0
M  V30 30 C 0 0 0 0
M  V30 31 N 0 0 0 0
M  V30 32 N 0 0 0 0 CHG=1
M  V30 33 C 0 0 0 0
M  V30 34 C 0 0 0 0
M  V30 35 C 0 0 0 0
M  V30 36 C 0 0 0 0
M  V30 37 C 0 0 0 0
M  V30 38 C 0 0 0 0
M  V30 39 C 0 0 0 0
M  V30 40 C 0 0 0 0
M  V30 41 N 0 0 0 0 CHG=1
M  V30 42 N 0 0 0 0
M  V30 43 C 0 0 0 0
M  V30 44 C 0 0 0 0
M  V30 45 C 0 0 0 0
M  V30 46 N 0 0 0 0 CHG=1
M  V30 47 C 0 0 0 0
M  V30 48 C 0 0 0 0
M  V30 49 C 0 0 0 0
M  V30 50 C 0 0 0 0
M  V30 51 C 0 0 0 0
M  V30 52 C 0 0 0 0
M  V30 53 C 0 0 0 0
M  V30 54 C 0 0 0 0
M  V30 55 N 0 0 0 0 CHG=1
M  V30 56 N 0 0 0 0
M  V30 57 C 0 0 0 0
M  V30 58 N 0 0 0 0
M  V30 59 N 0 0 0 0
M  V30 60 N 0 0 0 0
M  V30 61 N 0 0 0 0
M  V30 62 C 0 0 0 0
M  V30 63 C 0 0 0 0
M  V30 64 C 0 0 0 0
M  V30 65 C 0 0 0 0
M  V30 66 C 0 0 0 0
M  V30 67 C 0 0 0 0
M  V30 68 C 0 0 0 0
M  V30 69 N 0 0 0 0
M  V30 70 N 0 0 0 0
M  V30 71 N 0 0 0 0
M  V30 72 C 0 0 0 0
M  V30 73 C 0 0 0 0
M  V30 74 C 0 0 0 0
M  V30 75 C 0 0 0 0
M  V30 76 C 0 0 0 0
M  V30 77 C 0 0 0 0
M  V30 78 N 0 0 0 0 CHG=1
M  V30 79 N 0 0 0 0
M  V30 80 C 0 0 0 0
M  V30 81 C 0 0 0 0
M  V30 82 C 0 0 0 0
M  V30 83 C 0 0 0 0
M  V30 84 C 0 0 0 0
M  V30 85 C 0 0 0 0
M  V30 86 C 0 0 0 0
M  V30 87 C 0 0 0 0
M  V30 88 C 0 0 0 0
M  V30 89 C 0 0 0 0
M  V30 90 C 0 0 0 0
M  V30 91 C 0 0 0 0
M  V30 92 C 0 0 0 0
M  V30 93 C 0 0 0 0
M  V30 94 C 0 0 0 0
M  V30 95 C 0 0 0 0
M  V30 96 C 0 0 0 0
M  V30 97 C 0 0 0 0
M  V30 98 N 0 0 0 0 CHG=1
M  V30 99 C 0 0 0 0
M  V30 100 C 0 0 0 0
M  V30 101 C 0 0 0 0
M  V30 102 C 0 0 0 0
M  V30 103 C 0 0 0 0
M  V30 104 N 0 0 0 0 CHG=1
M  V30 105 C 0 0 0 0
M  V30 106 C 0 0 0 0
M  V30 107 C 0 0 0 0
M  V30 108 C 0 0 0 0
M  V30 109 C 0 0 0 0
M  V30 110 N 0 0 0 0
M  V30 111 N 0 0 0 0
M  V30 112 N 0 0 0 0
M  V30 113 C 0 0 0 0
M  V30 114 C 0 0 0 0
M  V30 115 C 0 0 0 0
M  V30 116 C 0 0 0 0
M  V30 117 C 0 0 0 0
M  V30 118 C 0 0 0 0
M  V30 119 C 0 0 0 0
M  V30 120 C 0 0 0 0
M  V30 121 C 0 0 0 0
M  V30 122 C 0 0 0 0
M  V30 123 C 0 0 0 0
M  V30 124 C 0 0 0 0
M  V30 125 N 0 0 0 0 CHG=1
M  V30 126 C 0 0 0 0
M  V30 127 C 0 0 0 0
M  V30 128 C 0 0 0 0
M  V30 129 C 0 0 0 0
M  V30 130 C 0 0 0 0
M  V30 131 N 0 0 0 0 CHG=1
M  V30 132 C 0 0 0 0
M  V30 133 C 0 0 0 0
M  V30 134 C 0 0 0 0
M  V30 135 C 0 0 0 0
M  V30 136 C 0 0 0 0
M  V30 137 C 0 0 0 0
M  V30 138 C 0 0 0 0
M  V30 139 C 0 0 0 0
M  V30 140 C 0 0 0 0
M  V30 141 C 0 0 0 0
M  V30 142 C 0 0 0 0
M  V30 143 C 0 0 0 0
M  V30 144 C 0 0 0 0
M  V30 145 C 0 0 0 0
M  V30 146 C 0 0 0 0
M  V30 147 C 0 0 0 0
M  V30 148 C 0 0 0 0
M  V30 149 C 0 0 0 0
M  V30 150 C 0 0 0 0
M  V30 151 N 0 0 0 0 CHG=1
M  V30 152 C 0 0 0 0
M  V30 153 C 0 0 0 0
M  V30 154 C 0 0 0 0
M  V30 155 C 0 0 0 0
M  V30 156 C 0 0 0 0
M  V30 157 N 0 0 0 0 CHG=1
M  V30 158 C 0 0 0 0
M  V30 159 C 0 0 0 0
M  V30 160 C 0 0 0 0
M  V30 161 C 0 0 0 0
M  V30 162 C 0 0 0 0
M  V30 163 C 0 0 0 0
M  V30 164 C 0 0 0 0
M  V30 END ATOM
M  V30 BEGIN BOND
M  V30 1 2 1 2
M  V30 2 1 1 3
M  V30 3 1 2 4
M  V30 4 1 2 5
M  V30 5 2 3 6
M  V30 6 1 3 7
M  V30 7 2 4 8
M  V30 8 1 5 9
M  V30 9 1 5 10
M  V30 10 1 7 11
M  V30 11 1 7 12
M  V30 12 1 8 13
M  V30 13 1 9 14
M  V30 14 1 10 15
M  V30 15 1 11 16
M  V30 16 1 11 17
M  V30 17 1 12 18
M  V30 18 1 13 19
M  V30 19 1 13 20
M  V30 20 1 14 21
M  V30 21 1 15 22
M  V30 22 1 16 23
M  V30 23 1 17 24
M  V30 24 1 18 25
M  V30 25 1 19 26
M  V30 26 1 19 27
M  V30 27 1 20 28
M  V30 28 1 21 29
M  V30 29 1 21 30
M  V30 30 1 22 31
M  V30 31 1 23 32
M  V30 32 1 23 33
M  V30 33 1 23 34
M  V30 34 1 24 35
M  V30 35 1 24 36
M  V30 36 1 25 37
M  V30 37 1 26 38
M  V30 38 1 27 39
M  V30 39 1 28 40
M  V30 40 2 29 41
M  V30 41 1 29 42
M  V30 42 1 30 43
M  V30 43 1 31 44
M  V30 44 1 32 45
M  V30 45 1 38 46
M  V30 46 1 38 47
M  V30 47 1 38 48
M  V30 48 1 39 49
M  V30 49 1 39 50
M  V30 50 1 40 51
M  V30 51 1 41 52
M  V30 52 2 42 53
M  V30 53 1 43 54
M  V30 54 2 44 55
M  V30 55 1 44 56
M  V30 56 1 46 57
M  V30 57 2 52 58
M  V30 58 1 52 59
M  V30 59 1 53 60
M  V30 60 1 54 61
M  V30 61 1 55 62
M  V30 62 2 56 63
M  V30 63 1 59 64
M  V30 64 1 59 65
M  V30 65 1 60 66
M  V30 66 1 60 67
M  V30 67 1 61 68
M  V30 68 2 62 69
M  V30 69 1 62 70
M  V30 70 1 63 71
M  V30 71 1 64 72
M  V30 72 1 64 73
M  V30 73 1 65 74
M  V30 74 1 66 75
M  V30 75 1 66 76
M  V30 76 1 67 77
M  V30 77 2 68 78
M  V30 78 1 68 79
M  V30 79 1 70 80
M  V30 80 1 70 81
M  V30 81 1 71 82
M  V30 82 1 71 83
M  V30 83 1 72 84
M  V30 84 1 73 85
M  V30 85 1 74 86
M  V30 86 1 75 87
M  V30 87 1 76 88
M  V30 88 1 77 89
M  V30 89 1 78 90
M  V30 90 2 79 91
M  V30 91 1 80 92
M  V30 92 1 80 93
M  V30 93 1 81 94
M  V30 94 1 82 95
M  V30 95 1 82 96
M  V30 96 1 83 97
M  V30 97 1 84 98
M  V30 98 1 84 99
M  V30 99 1 84 100
M  V30 100 1 85 101
M  V30 101 1 85 102
M  V30 102 1 86 103
M  V30 103 1 87 104
M  V30 104 1 87 105
M  V30 105 1 87 106
M  V30 106 1 88 107
M  V30 107 1 88 108
M  V30 108 1 89 109
M  V30 109 2 90 110
M  V30 110 1 90 111
M  V30 111 1 91 112
M  V30 112 1 92 113
M  V30 113 1 93 114
M  V30 114 1 94 115
M  V30 115 1 95 116
M  V30 116 1 96 117
M  V30 117 1 97 118
M  V30 118 1 98 119
M  V30 119 1 104 120
M  V30 120 1 111 121
M  V30 121 1 111 122
M  V30 122 1 112 123
M  V30 123 1 112 124
M  V30 124 1 113 125
M  V30 125 1 113 126
M  V30 126 1 113 127
M  V30 127 1 114 128
M  V30 128 1 114 129
M  V30 129 1 115 130
M  V30 130 1 116 131
M  V30 131 1 116 132
M  V30 132 1 116 133
M  V30 133 1 117 134
M  V30 134 1 117 135
M  V30 135 1 118 136
M  V30 136 1 121 137
M  V30 137 1 121 138
M  V30 138 1 122 139
M  V30 139 1 123 140
M  V30 140 1 123 141
M  V30 141 1 124 142
M  V30 142 1 125 143
M  V30 143 1 131 144
M  V30 144 1 137 145
M  V30 145 1 138 146
M  V30 146 1 139 147
M  V30 147 1 140 148
M  V30 148 1 141 149
M  V30 149 1 142 150
M  V30 150 1 145 151
M  V30 151 1 145 152
M  V30 152 1 145 153
M  V30 153 1 146 154
M  V30 154 1 146 155
M  V30 155 1 147 156
M  V30 156 1 148 157
M  V30 157 1 148 158
M  V30 158 1 148 159
M  V30 159 1 149 160
M  V30 160 1 149 161
M  V30 161 1 150 162
M  V30 162 1 151 163
M  V30 163 1 157 164
M  V30 164 1 6 8
M  V30 165 1 24 32
M  V30 166 1 39 46
M  V30 167 1 53 58
M  V30 168 1 63 69
M  V30 169 1 85 98
M  V30 170 1 88 104
M  V30 171 1 91 110
M  V30 172 1 114 125
M  V30 173 1 117 131
M  V30 174 1 146 151
M  V30 175 1 149 157
M  V30 END BOND
M  V30 END CTAB
M  END
>  <Structure No>
1279

>  <LogS>
-5.359014668

>  <MMFF94 Energy>
1575.7

$$$$
Compound 1280
Actelion Java MolfileCreator 2.0

  0  0  0  0  0  0              0 V3000
M  V30 BEGIN CTAB
M  V30 COUNTS 53 54 0 0 0
M  V30 BEGIN ATOM
M  V30 1 Cl 3.2415 -1.5387 2.9981 0
M  V30 2 C 4.2839 -0.9913 1.686 0
M  V30 3 C 3.7962 -0.3903 0.4955 0
M  V30 4 C 5.656 -1.2061 1.8497 0
M  V30 5 N 2.3939 -0.1928 0.2428 0
M  V30 6 C 4.7155 -0.0182 -0.5138 0
M  V30 7 C 6.5685 -0.8479 0.85 0
M  V30 8 N 1.4862 -0.3101 1.1248 0
M  V30 9 N 4.2697 0.6124 -1.7308 0 CHG=1
M  V30 10 C 6.0875 -0.2594 -0.3284 0
M  V30 11 N 7.9778 -1.0818 1.0331 0 CHG=1
M  V30 12 C 0.093 -0.1175 0.838 0
M  V30 13 O 4.9481 0.5168 -2.7747 0
M  V30 14 O 3.1649 1.4329 -1.7354 0 CHG=-1
M  V30 15 O 8.7969 -0.7697 0.1438 0
M  V30 16 O 8.4471 -1.6555 2.1928 0 CHG=-1
M  V30 17 C -0.442 -0.2033 -0.4704 0
M  V30 18 C -0.753 0.193 1.9098 0
M  V30 19 N 0.3606 -0.6511 -1.5752 0
M  V30 20 C -1.8077 0.0512 -0.6698 0
M  V30 21 C -2.1198 0.4546 1.7032 0
M  V30 22 C 0.3446 -0.0187 -2.8629 0
M  V30 23 C -2.6431 0.3798 0.4035 0
M  V30 24 O -2.9796 0.802 2.7579 0
M  V30 25 O -0.2565 1.0769 -3.0311 0
M  V30 26 C 1.109 -0.62 -3.9968 0
M  V30 27 N -4.0384 0.628 0.1661 0
M  V30 28 C -2.5834 0.9112 4.121 0
M  V30 29 C -5.0396 -0.364 0.5794 0
M  V30 30 C -4.4518 1.8945 -0.4486 0
M  V30 31 C -4.9111 -1.6388 -0.2488 0
M  V30 32 C -4.9427 1.6733 -1.8758 0
M  V30 33 H 6.0089 -1.6673 2.7635 0
M  V30 34 H 6.7859 0.0311 -1.1027 0
M  V30 35 H -0.3275 0.2521 2.9028 0
M  V30 36 H 0.989 -1.4743 -1.4352 0
M  V30 37 H -2.2352 -0.0507 -1.6586 0
M  V30 38 H 0.7532 -0.2088 -4.9654 0
M  V30 39 H 0.968 -1.721 -4.0043 0
M  V30 40 H 2.1881 -0.3906 -3.8781 0
M  V30 41 H -3.4649 1.1928 4.7328 0
M  V30 42 H -1.8082 1.6986 4.2314 0
M  V30 43 H -2.1949 -0.0632 4.485 0
M  V30 44 H -6.0663 0.0428 0.4507 0
M  V30 45 H -4.9109 -0.608 1.6553 0
M  V30 46 H -5.2621 2.3564 0.1559 0
M  V30 47 H -3.6013 2.6115 -0.4679 0
M  V30 48 H -5.0082 -1.4048 -1.3299 0
M  V30 49 H -5.7127 -2.3518 0.0375 0
M  V30 50 H -3.9271 -2.1199 -0.0661 0
M  V30 51 H -4.143 1.2123 -2.4917 0
M  V30 52 H -5.8354 1.0137 -1.8813 0
M  V30 53 H -5.2216 2.6484 -2.3277 0
M  V30 END ATOM
M  V30 BEGIN BOND
M  V30 1 1 1 2
M  V30 2 2 2 3
M  V30 3 1 2 4
M  V30 4 1 3 5
M  V30 5 1 3 6
M  V30 6 2 4 7
M  V30 7 2 5 8
M  V30 8 1 6 9
M  V30 9 2 6 10
M  V30 10 1 7 11
M  V30 11 1 8 12
M  V30 12 2 9 13
M  V30 13 1 9 14
M  V30 14 2 11 15
M  V30 15 1 11 16
M  V30 16 2 12 17
M  V30 17 1 12 18
M  V30 18 1 17 19
M  V30 19 1 17 20
M  V30 20 2 18 21
M  V30 21 1 19 22
M  V30 22 2 20 23
M  V30 23 1 21 24
M  V30 24 2 22 25
M  V30 25 1 22 26
M  V30 26 1 23 27
M  V30 27 1 24 28
M  V30 28 1 27 29
M  V30 29 1 27 30
M  V30 30 1 29 31
M  V30 31 1 30 32
M  V30 32 1 7 10
M  V30 33 1 21 23
M  V30 34 1 4 33
M  V30 35 1 10 34
M  V30 36 1 18 35
M  V30 37 1 19 36
M  V30 38 1 20 37
M  V30 39 1 26 38
M  V30 40 1 26 39
M  V30 41 1 26 40
M  V30 42 1 28 41
M  V30 43 1 28 42
M  V30 44 1 28 43
M  V30 45 1 29 44
M  V30 46 1 29 45
M  V30 47 1 30 46
M  V30 48 1 30 47
M  V30 49 1 31 48
M  V30 50 1 31 49
M  V30 51 1 31 50
M  V30 52 1 32 51
M  V30 53 1 32 52
M  V30 54 1 32 53
M  V30 END BOND
M  V30 END CTAB
M  END
>  <Structure No>
1280

>  <LogS>
-4.667327783

>  <MMFF94 Energy>
86.547

$$$$
Compound 1281
Actelion Java MolfileCreator 2.0

  0  0  0  0  0  0              0 V3000
M  V30 BEGIN CTAB
M  V30 COUNTS 28 29 0 0 0
M  V30 BEGIN ATOM
M  V30 1 C -0.0796 0.7166 -0.7963 0 CFG=1
M  V30 2 C 0.0107 -0.8297 -0.7063 0 CFG=1
M  V30 3 C -0.8524 1.3217 0.3963 0
M  V30 4 C 1.3209 1.3475 -0.9558 0
M  V30 5 C 1.0164 -1.2889 0.3722 0
M  V30 6 C -1.3847 -1.4574 -0.4983 0
M  V30 7 C -2.244 0.6936 0.5219 0
M  V30 8 C 2.3152 0.8612 0.1081 0
M  V30 9 C 2.3964 -0.6681 0.1332 0
M  V30 10 C -2.1499 -0.8275 0.6745 0
M  V30 11 H -0.6518 0.9684 -1.7181 0
M  V30 12 H 0.3878 -1.2033 -1.6854 0
M  V30 13 H -0.9694 2.4168 0.2449 0
M  V30 14 H -0.3004 1.1715 1.3478 0
M  V30 15 H 1.7195 1.0869 -1.9611 0
M  V30 16 H 1.2466 2.4558 -0.9114 0
M  V30 17 H 1.1145 -2.3957 0.3398 0
M  V30 18 H 0.6663 -1.0124 1.3888 0
M  V30 19 H -1.2889 -2.5519 -0.33 0
M  V30 20 H -1.982 -1.3208 -1.4268 0
M  V30 21 H -2.8503 0.9429 -0.3765 0
M  V30 22 H -2.7594 1.1191 1.4099 0
M  V30 23 H 2.0223 1.2402 1.1105 0
M  V30 24 H 3.3213 1.2733 -0.1216 0
M  V30 25 H 3.086 -0.9844 0.9451 0
M  V30 26 H 2.8114 -1.0367 -0.8304 0
M  V30 27 H -3.1762 -1.2523 0.7069 0
M  V30 28 H -1.6555 -1.0805 1.6366 0
M  V30 END ATOM
M  V30 BEGIN BOND
M  V30 1 1 1 2
M  V30 2 1 1 3
M  V30 3 1 1 4
M  V30 4 1 2 5
M  V30 5 1 2 6
M  V30 6 1 3 7
M  V30 7 1 4 8
M  V30 8 1 5 9
M  V30 9 1 6 10
M  V30 10 1 7 10
M  V30 11 1 8 9
M  V30 12 1 1 11
M  V30 13 1 2 12
M  V30 14 1 3 13
M  V30 15 1 3 14
M  V30 16 1 4 15
M  V30 17 1 4 16
M  V30 18 1 5 17
M  V30 19 1 5 18
M  V30 20 1 6 19
M  V30 21 1 6 20
M  V30 22 1 7 21
M  V30 23 1 7 22
M  V30 24 1 8 23
M  V30 25 1 8 24
M  V30 26 1 9 25
M  V30 27 1 9 26
M  V30 28 1 10 27
M  V30 29 1 10 28
M  V30 END BOND
M  V30 BEGIN COLLECTION
M  V30 MDLV30/STEABS ATOMS=(2 1 2)
M  V30 END COLLECTION
M  V30 END CTAB
M  END
>  <Structure No>
1281

>  <LogS>
-4.140677705

>  <MMFF94 Energy>
8.1779

$$$$
Compound 1282
Actelion Java MolfileCreator 2.0

  0  0  0  0  0  0              0 V3000
M  V30 BEGIN CTAB
M  V30 COUNTS 115 114 0 0 0
M  V30 BEGIN ATOM
M  V30 1 O 2.0378 -1.0969 1.5672 0
M  V30 2 C 2.3725 -0.0213 0.9993 0
M  V30 3 O 1.4096 0.9357 0.6596 0
M  V30 4 C 3.798 0.1904 0.5993 0
M  V30 5 C 0.0114 0.6476 0.6185 0 CFG=2
M  V30 6 C 4.0338 -0.3874 -0.7996 0
M  V30 7 C -0.2992 -0.1624 -0.6513 0
M  V30 8 C -0.7697 1.9609 0.6359 0
M  V30 9 C 5.5116 -0.3102 -1.2004 0
M  V30 10 O -1.6698 -0.5532 -0.707 0
M  V30 11 C 5.7257 -0.9112 -2.5971 0
M  V30 12 C -2.1894 -1.6333 0.0155 0
M  V30 13 C 7.2043 -1.1765 -2.9234 0
M  V30 14 O -1.5011 -2.2126 0.8989 0
M  V30 15 C -3.5716 -2.1207 -0.2901 0
M  V30 16 C 8.0453 0.1045 -3.1248 0
M  V30 17 C -4.5636 -1.8281 0.8463 0
M  V30 18 C 8.8583 0.5217 -1.8866 0
M  V30 19 C -4.7974 -0.3299 1.1251 0
M  V30 20 C 9.8684 -0.5232 -1.4804 0
M  V30 21 C -5.2807 0.5038 -0.0802 0
M  V30 22 C 11.0908 -0.6725 -2.0246 0
M  V30 23 C -6.4991 -0.0655 -0.8296 0
M  V30 24 C 11.693 0.2354 -3.0678 0
M  V30 25 C -7.7574 -0.1774 0.0491 0
M  V30 26 C 12.3633 1.4788 -2.4596 0
M  V30 27 C -8.9494 -0.733 -0.7447 0
M  V30 28 C 13.5358 1.1484 -1.512 0
M  V30 29 C -9.4641 0.261 -1.7557 0
M  V30 30 C 13.1062 1.1543 -0.0365 0
M  V30 31 C -10.2667 1.3051 -1.4737 0
M  V30 32 C 14.2865 0.8333 0.8876 0
M  V30 33 C -10.8456 1.6183 -0.1131 0
M  V30 34 C 13.8611 0.9011 2.3625 0
M  V30 35 C -12.3827 1.5845 -0.1423 0
M  V30 36 C 15.0358 0.6767 3.327 0
M  V30 37 C -12.9707 0.1812 -0.3957 0
M  V30 38 C 15.5057 -0.7777 3.3559 0
M  V30 39 C -12.8789 -0.7798 0.8075 0
M  V30 40 C -13.7535 -0.3961 2.0156 0
M  V30 41 C -15.256 -0.3608 1.6835 0
M  V30 42 C -16.1381 -0.3611 2.9414 0
M  V30 43 C -16.0101 0.9274 3.7533 0
M  V30 44 H 4.0257 1.2785 0.6024 0
M  V30 45 H 4.4639 -0.3094 1.3362 0
M  V30 46 H -0.2769 0.0683 1.5226 0
M  V30 47 H 3.7062 -1.4514 -0.8164 0
M  V30 48 H 3.4219 0.1768 -1.5374 0
M  V30 49 H -0.0697 0.4563 -1.5454 0
M  V30 50 H 0.3489 -1.0658 -0.702 0
M  V30 51 H -0.5175 2.5329 1.5554 0
M  V30 52 H -1.8638 1.7621 0.6377 0
M  V30 53 H -0.5119 2.5806 -0.2503 0
M  V30 54 H 6.1204 -0.8705 -0.456 0
M  V30 55 H 5.8324 0.7542 -1.2042 0
M  V30 56 H 5.2815 -0.2438 -3.3668 0
M  V30 57 H 5.1935 -1.8864 -2.6592 0
M  V30 58 H 7.6448 -1.8427 -2.1527 0
M  V30 59 H 7.2279 -1.7513 -3.8748 0
M  V30 60 H -3.9252 -1.6773 -1.2441 0
M  V30 61 H -3.5275 -3.2199 -0.4471 0
M  V30 62 H 7.39 0.9491 -3.4271 0
M  V30 63 H 8.7427 -0.0642 -3.9722 0
M  V30 64 H -4.1928 -2.3056 1.78 0
M  V30 65 H -5.533 -2.3169 0.6105 0
M  V30 66 H 9.3623 1.4895 -2.0833 0
M  V30 67 H 8.172 0.6929 -1.0335 0
M  V30 68 H -3.8524 0.1179 1.5042 0
M  V30 69 H -5.5366 -0.2378 1.9506 0
M  V30 70 H 9.5782 -1.2141 -0.6943 0
M  V30 71 H -4.4415 0.6174 -0.8007 0
M  V30 72 H -5.5278 1.5275 0.2791 0
M  V30 73 H 11.7078 -1.4919 -1.6633 0
M  V30 74 H -6.2508 -1.0572 -1.2631 0
M  V30 75 H -6.716 0.6164 -1.6811 0
M  V30 76 H 12.4557 -0.3413 -3.6347 0
M  V30 77 H 10.9285 0.5526 -3.8065 0
M  V30 78 H -7.5608 -0.8725 0.8922 0
M  V30 79 H -8.0099 0.8154 0.48 0
M  V30 80 H 11.61 2.1162 -1.9501 0
M  V30 81 H 12.7622 2.0798 -3.3048 0
M  V30 82 H -8.6315 -1.654 -1.2783 0
M  V30 83 H -9.7616 -1.0468 -0.0586 0
M  V30 84 H 14.3265 1.9195 -1.6482 0
M  V30 85 H 13.9862 0.1667 -1.7735 0
M  V30 86 H -9.1592 0.1197 -2.7892 0
M  V30 87 H 12.3023 0.4061 0.1291 0
M  V30 88 H 12.703 2.16 0.2176 0
M  V30 89 H -10.5497 1.9573 -2.2955 0
M  V30 90 H 14.6581 -0.1847 0.6484 0
M  V30 91 H 15.1046 1.5642 0.7056 0
M  V30 92 H -10.5275 2.648 0.1527 0
M  V30 93 H -10.461 0.9591 0.6894 0
M  V30 94 H 13.06 0.1558 2.562 0
M  V30 95 H 13.4408 1.9098 2.5679 0
M  V30 96 H -12.7762 2.0034 0.8062 0
M  V30 97 H -12.7369 2.2628 -0.9502 0
M  V30 98 H 15.8884 1.3409 3.0573 0
M  V30 99 H 14.7041 0.9526 4.3516 0
M  V30 100 H -14.03 0.2856 -0.7075 0
M  V30 101 H -12.4507 -0.2879 -1.2582 0
M  V30 102 H 16.2755 -0.898 4.1475 0
M  V30 103 H 14.656 -1.4569 3.5862 0
M  V30 104 H 15.9605 -1.065 2.3853 0
M  V30 105 H -13.1776 -1.7958 0.4668 0
M  V30 106 H -11.8264 -0.86 1.1464 0
M  V30 107 H -13.5764 -1.156 2.8072 0
M  V30 108 H -13.4298 0.5805 2.4294 0
M  V30 109 H -15.4907 0.5395 1.0757 0
M  V30 110 H -15.5192 -1.258 1.0824 0
M  V30 111 H -17.198 -0.4725 2.6274 0
M  V30 112 H -15.8877 -1.2323 3.5845 0
M  V30 113 H -16.7463 0.9163 4.5844 0
M  V30 114 H -16.2127 1.8119 3.1128 0
M  V30 115 H -14.9937 1.0142 4.1906 0
M  V30 END ATOM
M  V30 BEGIN BOND
M  V30 1 2 1 2
M  V30 2 1 2 3
M  V30 3 1 2 4
M  V30 4 1 3 5
M  V30 5 1 4 6
M  V30 6 1 5 7
M  V30 7 1 5 8
M  V30 8 1 6 9
M  V30 9 1 7 10
M  V30 10 1 9 11
M  V30 11 1 10 12
M  V30 12 1 11 13
M  V30 13 2 12 14
M  V30 14 1 12 15
M  V30 15 1 13 16
M  V30 16 1 15 17
M  V30 17 1 16 18
M  V30 18 1 17 19
M  V30 19 1 18 20
M  V30 20 1 19 21
M  V30 21 2 20 22
M  V30 22 1 21 23
M  V30 23 1 22 24
M  V30 24 1 23 25
M  V30 25 1 24 26
M  V30 26 1 25 27
M  V30 27 1 26 28
M  V30 28 1 27 29
M  V30 29 1 28 30
M  V30 30 2 29 31
M  V30 31 1 30 32
M  V30 32 1 31 33
M  V30 33 1 32 34
M  V30 34 1 33 35
M  V30 35 1 34 36
M  V30 36 1 35 37
M  V30 37 1 36 38
M  V30 38 1 37 39
M  V30 39 1 39 40
M  V30 40 1 40 41
M  V30 41 1 41 42
M  V30 42 1 42 43
M  V30 43 1 4 44
M  V30 44 1 4 45
M  V30 45 1 5 46
M  V30 46 1 6 47
M  V30 47 1 6 48
M  V30 48 1 7 49
M  V30 49 1 7 50
M  V30 50 1 8 51
M  V30 51 1 8 52
M  V30 52 1 8 53
M  V30 53 1 9 54
M  V30 54 1 9 55
M  V30 55 1 11 56
M  V30 56 1 11 57
M  V30 57 1 13 58
M  V30 58 1 13 59
M  V30 59 1 15 60
M  V30 60 1 15 61
M  V30 61 1 16 62
M  V30 62 1 16 63
M  V30 63 1 17 64
M  V30 64 1 17 65
M  V30 65 1 18 66
M  V30 66 1 18 67
M  V30 67 1 19 68
M  V30 68 1 19 69
M  V30 69 1 20 70
M  V30 70 1 21 71
M  V30 71 1 21 72
M  V30 72 1 22 73
M  V30 73 1 23 74
M  V30 74 1 23 75
M  V30 75 1 24 76
M  V30 76 1 24 77
M  V30 77 1 25 78
M  V30 78 1 25 79
M  V30 79 1 26 80
M  V30 80 1 26 81
M  V30 81 1 27 82
M  V30 82 1 27 83
M  V30 83 1 28 84
M  V30 84 1 28 85
M  V30 85 1 29 86
M  V30 86 1 30 87
M  V30 87 1 30 88
M  V30 88 1 31 89
M  V30 89 1 32 90
M  V30 90 1 32 91
M  V30 91 1 33 92
M  V30 92 1 33 93
M  V30 93 1 34 94
M  V30 94 1 34 95
M  V30 95 1 35 96
M  V30 96 1 35 97
M  V30 97 1 36 98
M  V30 98 1 36 99
M  V30 99 1 37 100
M  V30 100 1 37 101
M  V30 101 1 38 102
M  V30 102 1 38 103
M  V30 103 1 38 104
M  V30 104 1 39 105
M  V30 105 1 39 106
M  V30 106 1 40 107
M  V30 107 1 40 108
M  V30 108 1 41 109
M  V30 109 1 41 110
M  V30 110 1 42 111
M  V30 111 1 42 112
M  V30 112 1 43 113
M  V30 113 1 43 114
M  V30 114 1 43 115
M  V30 END BOND
M  V30 BEGIN COLLECTION
M  V30 MDLV30/STEABS ATOMS=(1 5)
M  V30 END COLLECTION
M  V30 END CTAB
M  END
>  <Structure No>
1282

>  <LogS>
-4.781756093

>  <MMFF94 Energy>
2.6066

$$$$
Compound 1283
Actelion Java MolfileCreator 2.0

  0  0  0  0  0  0              0 V3000
M  V30 BEGIN CTAB
M  V30 COUNTS 96 105 0 0 0
M  V30 BEGIN ATOM
M  V30 1 O -9.9992 0.8985 0.5717 0
M  V30 2 C -10.9042 1.5341 -0.0397 0
M  V30 3 C -10.8168 1.7433 -1.5159 0
M  V30 4 C -12.039 2.0937 0.734 0
M  V30 5 C -9.7524 1.2078 -2.2915 0
M  V30 6 C -11.8095 2.5217 -2.1558 0
M  V30 7 C -13.0287 2.8559 0.0829 0
M  V30 8 C -12.1372 1.8791 2.1235 0
M  V30 9 N -8.7554 0.3553 -1.7133 0
M  V30 10 C -9.694 1.4616 -3.6664 0
M  V30 11 C -12.9314 3.0954 -1.3737 0
M  V30 12 C -11.718 2.7702 -3.539 0
M  V30 13 C -14.0983 3.3921 0.829 0
M  V30 14 C -13.2033 2.4109 2.8534 0
M  V30 15 C -7.3739 0.7453 -1.6373 0
M  V30 16 C -10.6655 2.2448 -4.2836 0
M  V30 17 O -13.8147 3.7831 -1.9524 0
M  V30 18 C -14.1789 3.1734 2.2078 0
M  V30 19 O -7.002 1.8332 -2.159 0
M  V30 20 C -6.3712 -0.0982 -0.939 0
M  V30 21 C -5.0024 0.0569 -1.2198 0
M  V30 22 C -6.7551 -1.0294 0.042 0
M  V30 23 C -4.0385 -0.6844 -0.5287 0
M  V30 24 C -5.7939 -1.7828 0.7249 0
M  V30 25 C -4.4253 -1.61 0.4549 0
M  V30 26 C -3.4044 -2.3593 1.2286 0
M  V30 27 C -2.2655 -1.7023 1.7269 0
M  V30 28 C -3.5914 -3.7189 1.5272 0
M  V30 29 C -1.347 -2.3863 2.5318 0
M  V30 30 C -2.672 -4.3995 2.331 0
M  V30 31 C -1.5412 -3.7448 2.8294 0
M  V30 32 N -0.7051 -4.4347 3.7726 0
M  V30 33 N 0.5659 -4.3466 3.8744 0
M  V30 34 C 1.4495 -3.6883 2.9545 0
M  V30 35 C 2.5202 -2.9451 3.4593 0
M  V30 36 C 1.3634 -3.9224 1.5718 0
M  V30 37 C 3.4886 -2.4209 2.597 0
M  V30 38 C 2.3406 -3.4116 0.708 0
M  V30 39 C 3.4201 -2.6661 1.215 0
M  V30 40 C 4.531 -2.2357 0.3302 0
M  V30 41 C 5.0785 -0.9452 0.4473 0
M  V30 42 C 5.1113 -3.1415 -0.5722 0
M  V30 43 C 6.1968 -0.5776 -0.3095 0
M  V30 44 C 6.2384 -2.7743 -1.3187 0
M  V30 45 C 6.7982 -1.4953 -1.1907 0
M  V30 46 C 8.0438 -1.1627 -1.9233 0
M  V30 47 O 8.7863 -2.0981 -2.3256 0
M  V30 48 N 8.4453 0.2032 -2.137 0
M  V30 49 C 9.7689 0.5388 -2.5737 0
M  V30 50 C 10.6968 1.1824 -1.7094 0
M  V30 51 C 10.1364 0.2386 -3.8908 0
M  V30 52 C 10.3666 1.5074 -0.2908 0
M  V30 53 C 11.9842 1.5022 -2.2042 0
M  V30 54 C 11.3997 0.5699 -4.3705 0
M  V30 55 O 9.2236 1.2511 0.175 0
M  V30 56 C 11.3786 2.131 0.5918 0
M  V30 57 C 12.9872 2.1436 -1.3206 0
M  V30 58 C 12.3172 1.1971 -3.5348 0
M  V30 59 C 12.6577 2.4398 0.0894 0
M  V30 60 C 11.0796 2.4104 1.939 0
M  V30 61 O 14.1306 2.436 -1.7699 0
M  V30 62 C 13.6129 3.0271 0.937 0
M  V30 63 C 12.0435 2.9797 2.7778 0
M  V30 64 C 13.3059 3.2934 2.2742 0
M  V30 65 H -11.3919 1.2919 2.6467 0
M  V30 66 H -9.0501 -0.6045 -1.4249 0
M  V30 67 H -8.9003 1.0299 -4.2627 0
M  V30 68 H -12.4652 3.368 -4.0425 0
M  V30 69 H -14.8712 3.9808 0.3502 0
M  V30 70 H -13.2688 2.2464 3.9224 0
M  V30 71 H -10.6081 2.4313 -5.3451 0
M  V30 72 H -15.0004 3.5933 2.7776 0
M  V30 73 H -4.6713 0.754 -1.9789 0
M  V30 74 H -7.7942 -1.1559 0.3183 0
M  V30 75 H -2.9925 -0.5409 -0.7697 0
M  V30 76 H -6.1176 -2.4712 1.4944 0
M  V30 77 H -2.111 -0.6485 1.5386 0
M  V30 78 H -4.4598 -4.2487 1.1617 0
M  V30 79 H -0.5187 -1.8396 2.9629 0
M  V30 80 H -2.8475 -5.4398 2.5737 0
M  V30 81 H 2.6143 -2.7947 4.5262 0
M  V30 82 H 0.5705 -4.5404 1.1649 0
M  V30 83 H 4.321 -1.8709 3.0183 0
M  V30 84 H 2.2646 -3.6105 -0.3535 0
M  V30 85 H 4.6577 -0.2318 1.1453 0
M  V30 86 H 4.7214 -4.1457 -0.6658 0
M  V30 87 H 6.6154 0.4072 -0.1588 0
M  V30 88 H 6.688 -3.512 -1.971 0
M  V30 89 H 7.7605 0.9785 -2.0013 0
M  V30 90 H 9.4336 -0.2437 -4.555 0
M  V30 91 H 11.6705 0.3416 -5.3939 0
M  V30 92 H 13.2933 1.4447 -3.9278 0
M  V30 93 H 10.1063 2.178 2.3489 0
M  V30 94 H 14.6022 3.2743 0.5726 0
M  V30 95 H 11.8008 3.1855 3.8127 0
M  V30 96 H 14.0496 3.7375 2.9236 0
M  V30 END ATOM
M  V30 BEGIN BOND
M  V30 1 2 1 2
M  V30 2 1 2 3
M  V30 3 1 2 4
M  V30 4 2 3 5
M  V30 5 1 3 6
M  V30 6 2 4 7
M  V30 7 1 4 8
M  V30 8 1 5 9
M  V30 9 1 5 10
M  V30 10 1 6 11
M  V30 11 2 6 12
M  V30 12 1 7 13
M  V30 13 2 8 14
M  V30 14 1 9 15
M  V30 15 2 10 16
M  V30 16 2 11 17
M  V30 17 2 13 18
M  V30 18 2 15 19
M  V30 19 1 15 20
M  V30 20 2 20 21
M  V30 21 1 20 22
M  V30 22 1 21 23
M  V30 23 2 22 24
M  V30 24 2 23 25
M  V30 25 1 25 26
M  V30 26 2 26 27
M  V30 27 1 26 28
M  V30 28 1 27 29
M  V30 29 2 28 30
M  V30 30 2 29 31
M  V30 31 1 31 32
M  V30 32 2 32 33
M  V30 33 1 33 34
M  V30 34 2 34 35
M  V30 35 1 34 36
M  V30 36 1 35 37
M  V30 37 2 36 38
M  V30 38 2 37 39
M  V30 39 1 39 40
M  V30 40 2 40 41
M  V30 41 1 40 42
M  V30 42 1 41 43
M  V30 43 2 42 44
M  V30 44 2 43 45
M  V30 45 1 45 46
M  V30 46 2 46 47
M  V30 47 1 46 48
M  V30 48 1 48 49
M  V30 49 2 49 50
M  V30 50 1 49 51
M  V30 51 1 50 52
M  V30 52 1 50 53
M  V30 53 2 51 54
M  V30 54 2 52 55
M  V30 55 1 52 56
M  V30 56 1 53 57
M  V30 57 2 53 58
M  V30 58 2 56 59
M  V30 59 1 56 60
M  V30 60 2 57 61
M  V30 61 1 59 62
M  V30 62 2 60 63
M  V30 63 2 62 64
M  V30 64 1 7 11
M  V30 65 1 12 16
M  V30 66 1 14 18
M  V30 67 1 24 25
M  V30 68 1 30 31
M  V30 69 1 38 39
M  V30 70 1 44 45
M  V30 71 1 54 58
M  V30 72 1 57 59
M  V30 73 1 63 64
M  V30 74 1 8 65
M  V30 75 1 9 66
M  V30 76 1 10 67
M  V30 77 1 12 68
M  V30 78 1 13 69
M  V30 79 1 14 70
M  V30 80 1 16 71
M  V30 81 1 18 72
M  V30 82 1 21 73
M  V30 83 1 22 74
M  V30 84 1 23 75
M  V30 85 1 24 76
M  V30 86 1 27 77
M  V30 87 1 28 78
M  V30 88 1 29 79
M  V30 89 1 30 80
M  V30 90 1 35 81
M  V30 91 1 36 82
M  V30 92 1 37 83
M  V30 93 1 38 84
M  V30 94 1 41 85
M  V30 95 1 42 86
M  V30 96 1 43 87
M  V30 97 1 44 88
M  V30 98 1 48 89
M  V30 99 1 51 90
M  V30 100 1 54 91
M  V30 101 1 58 92
M  V30 102 1 60 93
M  V30 103 1 62 94
M  V30 104 1 63 95
M  V30 105 1 64 96
M  V30 END BOND
M  V30 END CTAB
M  END
>  <Structure No>
1283

>  <LogS>
-5.716458279

>  <MMFF94 Energy>
219.39

$$$$
Compound 1284
Actelion Java MolfileCreator 2.0

  0  0  0  0  0  0              0 V3000
M  V30 BEGIN CTAB
M  V30 COUNTS 16 18 0 0 0
M  V30 BEGIN ATOM
M  V30 1 C 0 0 0 0
M  V30 2 C 0 0 0 0
M  V30 3 C 0 0 0 0
M  V30 4 C 0 0 0 0
M  V30 5 C 0 0 0 0
M  V30 6 C 0 0 0 0
M  V30 7 C 0 0 0 0
M  V30 8 C 0 0 0 0
M  V30 9 C 0 0 0 0
M  V30 10 C 0 0 0 0
M  V30 11 C 0 0 0 0
M  V30 12 C 0 0 0 0
M  V30 13 C 0 0 0 0
M  V30 14 C 0 0 0 0
M  V30 15 C 0 0 0 0
M  V30 16 C 0 0 0 0
M  V30 END ATOM
M  V30 BEGIN BOND
M  V30 1 2 1 2
M  V30 2 1 1 3
M  V30 3 1 1 4
M  V30 4 1 2 5
M  V30 5 2 3 6
M  V30 6 1 4 7
M  V30 7 2 5 8
M  V30 8 1 7 9
M  V30 9 1 8 10
M  V30 10 2 9 11
M  V30 11 1 9 12
M  V30 12 1 10 13
M  V30 13 1 11 14
M  V30 14 2 12 15
M  V30 15 1 13 16
M  V30 16 1 6 8
M  V30 17 2 14 16
M  V30 18 1 15 16
M  V30 END BOND
M  V30 END CTAB
M  END
>  <Structure No>
1284

>  <LogS>
-5.169478497

>  <MMFF94 Energy>
104.98

$$$$
Compound 1285
Actelion Java MolfileCreator 2.0

  0  0  0  0  0  0              0 V3000
M  V30 BEGIN CTAB
M  V30 COUNTS 52 60 0 0 0
M  V30 BEGIN ATOM
M  V30 1 O -5.8854 -2.0694 0.5791 0
M  V30 2 C -5.1549 -1.0652 0.3505 0
M  V30 3 C -3.6854 -1.2058 0.316 0
M  V30 4 C -5.7657 0.252 0.1171 0
M  V30 5 C -2.8581 -0.0907 0.0616 0
M  V30 6 C -3.1134 -2.4565 0.5382 0
M  V30 7 C -4.9383 1.3688 -0.1377 0
M  V30 8 C -7.1655 0.3958 0.1481 0
M  V30 9 C -1.4333 -0.2593 0.0345 0
M  V30 10 C -3.4398 1.1866 -0.1652 0
M  V30 11 C -1.7394 -2.6259 0.5134 0
M  V30 12 C -5.5631 2.6222 -0.3579 0
M  V30 13 C -7.753 1.6388 -0.0716 0
M  V30 14 C -0.8632 -1.5437 0.2633 0
M  V30 15 C -0.5924 0.8561 -0.2205 0
M  V30 16 C -2.5822 2.2665 -0.4141 0
M  V30 17 C -6.9535 2.7486 -0.3239 0
M  V30 18 C 0.5544 -1.7093 0.2361 0
M  V30 19 C 0.8258 0.6905 -0.2479 0
M  V30 20 C -1.2055 2.1089 -0.4412 0
M  V30 21 C 1.396 -0.5898 -0.0199 0
M  V30 22 C 1.1665 -2.9654 0.4575 0
M  V30 23 C 1.7021 1.7693 -0.4974 0
M  V30 24 C 2.8213 -0.7541 -0.0477 0
M  V30 25 C 2.5425 -3.1172 0.4292 0
M  V30 26 C 3.078 1.6052 -0.5232 0
M  V30 27 C 3.3784 -2.0308 0.18 0
M  V30 28 C 3.6725 0.3558 -0.3023 0
M  V30 29 C 4.841 -2.2327 0.1579 0
M  V30 30 C 5.1726 0.1878 -0.3326 0
M  V30 31 O 5.3286 -3.3791 0.363 0
M  V30 32 C 5.7295 -1.0907 -0.1044 0
M  V30 33 C 6.0604 1.2643 -0.5821 0
M  V30 34 C 7.1248 -1.2734 -0.1275 0
M  V30 35 C 7.4427 1.0669 -0.6017 0
M  V30 36 C 7.9739 -0.1983 -0.375 0
M  V30 37 H -3.735 -3.322 0.735 0
M  V30 38 H -7.8079 -0.454 0.3427 0
M  V30 39 H -1.4064 -3.631 0.6973 0
M  V30 40 H -5.0092 3.5228 -0.5586 0
M  V30 41 H -8.8302 1.7418 -0.0462 0
M  V30 42 H -2.9468 3.2629 -0.5948 0
M  V30 43 H -7.4127 3.7142 -0.4945 0
M  V30 44 H -0.6549 3.01 -0.642 0
M  V30 45 H 0.618 -3.8674 0.6584 0
M  V30 46 H 1.3665 2.7738 -0.6808 0
M  V30 47 H 2.9548 -4.1034 0.606 0
M  V30 48 H 3.6552 2.4917 -0.7221 0
M  V30 49 H 5.7217 2.2692 -0.7656 0
M  V30 50 H 7.5608 -2.2493 0.0462 0
M  V30 51 H 8.1052 1.9014 -0.7939 0
M  V30 52 H 9.046 -0.3464 -0.3911 0
M  V30 END ATOM
M  V30 BEGIN BOND
M  V30 1 2 1 2
M  V30 2 1 2 3
M  V30 3 1 2 4
M  V30 4 1 3 5
M  V30 5 2 3 6
M  V30 6 2 4 7
M  V30 7 1 4 8
M  V30 8 1 5 9
M  V30 9 2 5 10
M  V30 10 1 6 11
M  V30 11 1 7 12
M  V30 12 2 8 13
M  V30 13 1 9 14
M  V30 14 2 9 15
M  V30 15 1 10 16
M  V30 16 2 12 17
M  V30 17 1 14 18
M  V30 18 1 15 19
M  V30 19 1 15 20
M  V30 20 1 18 21
M  V30 21 2 18 22
M  V30 22 1 19 23
M  V30 23 1 21 24
M  V30 24 1 22 25
M  V30 25 2 23 26
M  V30 26 1 24 27
M  V30 27 2 24 28
M  V30 28 1 27 29
M  V30 29 1 28 30
M  V30 30 2 29 31
M  V30 31 1 29 32
M  V30 32 1 30 33
M  V30 33 1 32 34
M  V30 34 2 33 35
M  V30 35 2 34 36
M  V30 36 1 7 10
M  V30 37 2 11 14
M  V30 38 1 13 17
M  V30 39 2 16 20
M  V30 40 2 19 21
M  V30 41 2 25 27
M  V30 42 1 26 28
M  V30 43 2 30 32
M  V30 44 1 35 36
M  V30 45 1 6 37
M  V30 46 1 8 38
M  V30 47 1 11 39
M  V30 48 1 12 40
M  V30 49 1 13 41
M  V30 50 1 16 42
M  V30 51 1 17 43
M  V30 52 1 20 44
M  V30 53 1 22 45
M  V30 54 1 23 46
M  V30 55 1 25 47
M  V30 56 1 26 48
M  V30 57 1 33 49
M  V30 58 1 34 50
M  V30 59 1 35 51
M  V30 60 1 36 52
M  V30 END BOND
M  V30 END CTAB
M  END
>  <Structure No>
1285

>  <LogS>
-5.513312746

>  <MMFF94 Energy>
178.49

$$$$
Compound 1286
Actelion Java MolfileCreator 2.0

  0  0  0  0  0  0              0 V3000
M  V30 BEGIN CTAB
M  V30 COUNTS 60 68 0 0 0
M  V30 BEGIN ATOM
M  V30 1 O -5.2801 3.9581 0.247 0
M  V30 2 C -4.7605 2.8102 0.3211 0
M  V30 3 C -3.3047 2.6375 0.1379 0
M  V30 4 C -5.6009 1.6338 0.6036 0
M  V30 5 C -2.733 1.3472 0.1404 0
M  V30 6 C -2.4897 3.7564 -0.0532 0
M  V30 7 C -5.0116 0.35 0.6352 0
M  V30 8 C -6.973 1.7889 0.8726 0
M  V30 9 C -1.3296 1.2005 -0.0576 0
M  V30 10 C -3.5492 0.2017 0.3155 0
M  V30 11 C -1.126 3.6144 -0.2748 0
M  V30 12 C -5.8196 -0.7496 1.0093 0
M  V30 13 C -7.7571 0.6845 1.2002 0
M  V30 14 C -0.7445 -0.0876 -0.0186 0
M  V30 15 C -0.5205 2.3397 -0.3135 0
M  V30 16 C -2.975 -1.0618 0.1008 0
M  V30 17 C -7.1794 -0.5795 1.2788 0
M  V30 18 C 0.6739 -0.2026 0.0165 0
M  V30 19 C -1.5977 -1.2136 -0.1181 0
M  V30 20 C 0.8617 2.165 -0.6059 0
M  V30 21 C 1.4638 0.8951 -0.4008 0
M  V30 22 C 1.3328 -1.3377 0.5487 0
M  V30 23 O -1.0652 -2.4538 -0.5172 0
M  V30 24 C 1.6669 3.2187 -1.0901 0
M  V30 25 C 2.8654 0.7259 -0.5946 0
M  V30 26 O 0.6161 -2.2395 1.3575 0
M  V30 27 C 2.7088 -1.5054 0.3329 0
M  V30 28 C -1.8033 -3.6653 -0.6416 0
M  V30 29 C 3.0278 3.0432 -1.3054 0
M  V30 30 C 3.4759 -0.5212 -0.3115 0
M  V30 31 C 3.6412 1.8145 -1.0472 0
M  V30 32 C 1.1482 -3.4251 1.9401 0
M  V30 33 C 4.9323 -0.7431 -0.6169 0
M  V30 34 C 5.0992 1.6662 -1.235 0
M  V30 35 C 5.7254 0.3471 -1.0394 0
M  V30 36 C 5.5362 -2.0199 -0.5357 0
M  V30 37 O 5.8026 2.6591 -1.5705 0
M  V30 38 C 7.0951 0.1651 -1.3029 0
M  V30 39 C 6.8962 -2.1865 -0.8053 0
M  V30 40 C 7.6762 -1.0951 -1.1775 0
M  V30 41 H -2.9094 4.755 -0.0365 0
M  V30 42 H -7.4379 2.7666 0.843 0
M  V30 43 H -0.5638 4.528 -0.3818 0
M  V30 44 H -5.4186 -1.7439 1.1251 0
M  V30 45 H -8.8112 0.8118 1.4114 0
M  V30 46 H -3.6007 -1.9352 0.0482 0
M  V30 47 H -7.7855 -1.4319 1.5583 0
M  V30 48 H 1.2663 4.1869 -1.3432 0
M  V30 49 H 3.1833 -2.3888 0.7218 0
M  V30 50 H -2.5907 -3.5561 -1.417 0
M  V30 51 H -2.257 -3.9378 0.3346 0
M  V30 52 H -1.1137 -4.4776 -0.9492 0
M  V30 53 H 3.6052 3.8826 -1.6735 0
M  V30 54 H 1.5197 -4.1069 1.1462 0
M  V30 55 H 1.9668 -3.1709 2.646 0
M  V30 56 H 0.3442 -3.9429 2.5021 0
M  V30 57 H 4.9737 -2.9071 -0.2914 0
M  V30 58 H 7.7151 0.9948 -1.6189 0
M  V30 59 H 7.3448 -3.1691 -0.7332 0
M  V30 60 H 8.7297 -1.2293 -1.387 0
M  V30 END ATOM
M  V30 BEGIN BOND
M  V30 1 2 1 2
M  V30 2 1 2 3
M  V30 3 1 2 4
M  V30 4 1 3 5
M  V30 5 2 3 6
M  V30 6 2 4 7
M  V30 7 1 4 8
M  V30 8 1 5 9
M  V30 9 2 5 10
M  V30 10 1 6 11
M  V30 11 1 7 12
M  V30 12 2 8 13
M  V30 13 2 9 14
M  V30 14 1 9 15
M  V30 15 1 10 16
M  V30 16 2 12 17
M  V30 17 1 14 18
M  V30 18 1 14 19
M  V30 19 1 15 20
M  V30 20 1 18 21
M  V30 21 2 18 22
M  V30 22 1 19 23
M  V30 23 1 20 24
M  V30 24 1 21 25
M  V30 25 1 22 26
M  V30 26 1 22 27
M  V30 27 1 23 28
M  V30 28 2 24 29
M  V30 29 1 25 30
M  V30 30 2 25 31
M  V30 31 1 26 32
M  V30 32 1 30 33
M  V30 33 1 31 34
M  V30 34 2 33 35
M  V30 35 1 33 36
M  V30 36 2 34 37
M  V30 37 1 35 38
M  V30 38 2 36 39
M  V30 39 2 38 40
M  V30 40 1 7 10
M  V30 41 2 11 15
M  V30 42 1 13 17
M  V30 43 2 16 19
M  V30 44 2 20 21
M  V30 45 2 27 30
M  V30 46 1 29 31
M  V30 47 1 34 35
M  V30 48 1 39 40
M  V30 49 1 6 41
M  V30 50 1 8 42
M  V30 51 1 11 43
M  V30 52 1 12 44
M  V30 53 1 13 45
M  V30 54 1 16 46
M  V30 55 1 17 47
M  V30 56 1 24 48
M  V30 57 1 27 49
M  V30 58 1 28 50
M  V30 59 1 28 51
M  V30 60 1 28 52
M  V30 61 1 29 53
M  V30 62 1 32 54
M  V30 63 1 32 55
M  V30 64 1 32 56
M  V30 65 1 36 57
M  V30 66 1 38 58
M  V30 67 1 39 59
M  V30 68 1 40 60
M  V30 END BOND
M  V30 END CTAB
M  END
>  <Structure No>
1286

>  <LogS>
-5.599170695

>  <MMFF94 Energy>
207.72

$$$$
Compound 1287
Actelion Java MolfileCreator 2.0

  0  0  0  0  0  0              0 V3000
M  V30 BEGIN CTAB
M  V30 COUNTS 39 38 0 0 0
M  V30 BEGIN ATOM
M  V30 1 O -1.4732 -3.4143 2.4046 0
M  V30 2 C -1.9553 -2.7138 1.2921 0
M  V30 3 C -1.2195 -1.3799 1.1729 0
M  V30 4 C -1.7227 -0.5705 -0.0338 0
M  V30 5 C -0.9521 0.7742 -0.2118 0 CFG=1
M  V30 6 C 0.0579 0.7059 -1.3921 0
M  V30 7 C -1.9715 1.9286 -0.4176 0
M  V30 8 C 1.1668 -0.3513 -1.238 0
M  V30 9 C -1.3753 3.3475 -0.5078 0
M  V30 10 C 2.1688 -1.0E-4 -0.1234 0
M  V30 11 C -0.5389 3.732 0.7122 0
M  V30 12 C 3.3478 -0.983 -0.0644 0
M  V30 13 C 2.9469 -2.3505 0.4892 0
M  V30 14 H -1.9795 -4.2675 2.4327 0
M  V30 15 H -3.0466 -2.5291 1.4118 0
M  V30 16 H -1.7861 -3.3155 0.371 0
M  V30 17 H -1.3833 -0.792 2.1028 0
M  V30 18 H -0.1335 -1.5814 1.0783 0
M  V30 19 H -2.809 -0.3865 0.1228 0
M  V30 20 H -1.6538 -1.1879 -0.9562 0
M  V30 21 H -0.398 0.9972 0.7232 0
M  V30 22 H -0.4995 0.4965 -2.3313 0
M  V30 23 H 0.558 1.6864 -1.5275 0
M  V30 24 H -2.5556 1.7373 -1.3447 0
M  V30 25 H -2.6939 1.9251 0.4289 0
M  V30 26 H 1.7186 -0.4025 -2.202 0
M  V30 27 H 0.7228 -1.3524 -1.0727 0
M  V30 28 H -2.2193 4.0667 -0.587 0
M  V30 29 H -0.7737 3.4684 -1.432 0
M  V30 30 H 1.6667 0.0266 0.8657 0
M  V30 31 H 2.5772 1.0158 -0.3172 0
M  V30 32 H 0.419 3.1718 0.7219 0
M  V30 33 H -1.1002 3.5288 1.6489 0
M  V30 34 H -0.301 4.8158 0.6699 0
M  V30 35 H 3.7975 -1.1058 -1.0735 0
M  V30 36 H 4.1288 -0.555 0.6007 0
M  V30 37 H 2.4627 -2.2411 1.483 0
M  V30 38 H 2.2534 -2.8696 -0.204 0
M  V30 39 H 3.8534 -2.9805 0.6066 0
M  V30 END ATOM
M  V30 BEGIN BOND
M  V30 1 1 1 2
M  V30 2 1 2 3
M  V30 3 1 3 4
M  V30 4 1 4 5
M  V30 5 1 5 6
M  V30 6 1 5 7
M  V30 7 1 6 8
M  V30 8 1 7 9
M  V30 9 1 8 10
M  V30 10 1 9 11
M  V30 11 1 10 12
M  V30 12 1 12 13
M  V30 13 1 1 14
M  V30 14 1 2 15
M  V30 15 1 2 16
M  V30 16 1 3 17
M  V30 17 1 3 18
M  V30 18 1 4 19
M  V30 19 1 4 20
M  V30 20 1 5 21
M  V30 21 1 6 22
M  V30 22 1 6 23
M  V30 23 1 7 24
M  V30 24 1 7 25
M  V30 25 1 8 26
M  V30 26 1 8 27
M  V30 27 1 9 28
M  V30 28 1 9 29
M  V30 29 1 10 30
M  V30 30 1 10 31
M  V30 31 1 11 32
M  V30 32 1 11 33
M  V30 33 1 11 34
M  V30 34 1 12 35
M  V30 35 1 12 36
M  V30 36 1 13 37
M  V30 37 1 13 38
M  V30 38 1 13 39
M  V30 END BOND
M  V30 BEGIN COLLECTION
M  V30 MDLV30/STEABS ATOMS=(1 5)
M  V30 END COLLECTION
M  V30 END CTAB
M  END
>  <Structure No>
1287

>  <LogS>
-5.156360408

>  <MMFF94 Energy>
5.7922

$$$$
Compound 1288
Actelion Java MolfileCreator 2.0

  0  0  0  0  0  0              0 V3000
M  V30 BEGIN CTAB
M  V30 COUNTS 46 46 0 0 0
M  V30 BEGIN ATOM
M  V30 1 O -1.0239 -0.63 0.5512 0
M  V30 2 O -2.0622 0.1871 0.4747 0
M  V30 3 C 0.1731 0.131 0.5984 0
M  V30 4 C -3.1167 -0.5014 -0.1716 0
M  V30 5 O 1.2024 -0.8403 0.7119 0
M  V30 6 C 0.3639 0.9451 -0.7282 0
M  V30 7 C 0.1957 1.045 1.8711 0
M  V30 8 C -2.7182 -0.903 -1.6081 0
M  V30 9 C -3.5342 -1.7477 0.6383 0
M  V30 10 C -4.311 0.4622 -0.2431 0
M  V30 11 O 2.3804 -0.2283 0.7299 0
M  V30 12 C -0.4205 2.2649 -0.7868 0
M  V30 13 C -0.5731 2.3688 1.7257 0
M  V30 14 C 3.3375 -1.1056 0.1647 0
M  V30 15 C -0.1654 3.1167 0.4565 0
M  V30 16 C 3.4657 -2.3896 1.0117 0
M  V30 17 C 2.9773 -1.4603 -1.2951 0
M  V30 18 C 4.6871 -0.3718 0.1736 0
M  V30 19 H 1.431 1.2153 -0.8722 0
M  V30 20 H 0.081 0.3108 -1.5953 0
M  V30 21 H -0.2162 0.4805 2.7355 0
M  V30 22 H 1.2402 1.3121 2.1391 0
M  V30 23 H -2.3976 -0.0091 -2.1842 0
M  V30 24 H -1.8816 -1.6337 -1.6008 0
M  V30 25 H -3.5769 -1.3722 -2.1352 0
M  V30 26 H -3.7687 -1.4634 1.6867 0
M  V30 27 H -4.4327 -2.2243 0.1897 0
M  V30 28 H -2.7199 -2.5032 0.6551 0
M  V30 29 H -4.0374 1.3749 -0.8153 0
M  V30 30 H -5.1821 -0.0178 -0.7397 0
M  V30 31 H -4.615 0.776 0.7789 0
M  V30 32 H -0.092 2.8354 -1.6826 0
M  V30 33 H -1.5074 2.0848 -0.911 0
M  V30 34 H -0.3467 3.0106 2.6048 0
M  V30 35 H -1.6698 2.2003 1.7347 0
M  V30 36 H 0.9115 3.3899 0.5109 0
M  V30 37 H -0.7536 4.0568 0.382 0
M  V30 38 H 3.6754 -2.1311 2.0719 0
M  V30 39 H 4.2914 -3.0295 0.632 0
M  V30 40 H 2.5283 -2.9848 0.9763 0
M  V30 41 H 3.7724 -2.0884 -1.7517 0
M  V30 42 H 2.0237 -2.0279 -1.3454 0
M  V30 43 H 2.8674 -0.5369 -1.9025 0
M  V30 44 H 4.9722 -0.1005 1.2131 0
M  V30 45 H 5.4898 -1.0077 -0.2588 0
M  V30 46 H 4.6197 0.5654 -0.4201 0
M  V30 END ATOM
M  V30 BEGIN BOND
M  V30 1 1 1 2
M  V30 2 1 1 3
M  V30 3 1 2 4
M  V30 4 1 3 5
M  V30 5 1 3 6
M  V30 6 1 3 7
M  V30 7 1 4 8
M  V30 8 1 4 9
M  V30 9 1 4 10
M  V30 10 1 5 11
M  V30 11 1 6 12
M  V30 12 1 7 13
M  V30 13 1 11 14
M  V30 14 1 12 15
M  V30 15 1 14 16
M  V30 16 1 14 17
M  V30 17 1 14 18
M  V30 18 1 13 15
M  V30 19 1 6 19
M  V30 20 1 6 20
M  V30 21 1 7 21
M  V30 22 1 7 22
M  V30 23 1 8 23
M  V30 24 1 8 24
M  V30 25 1 8 25
M  V30 26 1 9 26
M  V30 27 1 9 27
M  V30 28 1 9 28
M  V30 29 1 10 29
M  V30 30 1 10 30
M  V30 31 1 10 31
M  V30 32 1 12 32
M  V30 33 1 12 33
M  V30 34 1 13 34
M  V30 35 1 13 35
M  V30 36 1 15 36
M  V30 37 1 15 37
M  V30 38 1 16 38
M  V30 39 1 16 39
M  V30 40 1 16 40
M  V30 41 1 17 41
M  V30 42 1 17 42
M  V30 43 1 17 43
M  V30 44 1 18 44
M  V30 45 1 18 45
M  V30 46 1 18 46
M  V30 END BOND
M  V30 END CTAB
M  END
>  <Structure No>
1288

>  <LogS>
-5.386213837

>  <MMFF94 Energy>
56.09

$$$$
Compound 1289
Actelion Java MolfileCreator 2.0

  0  0  0  0  0  0              0 V3000
M  V30 BEGIN CTAB
M  V30 COUNTS 98 98 0 0 0
M  V30 BEGIN ATOM
M  V30 1 O 0.4713 3.3818 -2.5158 0
M  V30 2 C 0.4628 2.3084 -1.8583 0
M  V30 3 O -0.6745 1.4998 -1.8314 0
M  V30 4 C 1.6697 1.8956 -1.0848 0
M  V30 5 C -1.9544 1.9558 -2.2585 0
M  V30 6 C 2.6164 1.0617 -1.9575 0
M  V30 7 C -3.0076 0.9374 -1.9189 0
M  V30 8 C 3.8802 0.6212 -1.1966 0
M  V30 9 C -3.2735 0.5069 -0.6643 0
M  V30 10 C 3.576 -0.438 -0.1226 0
M  V30 11 C -4.3628 -0.4832 -0.4835 0
M  V30 12 C -2.3728 0.8601 0.4986 0
M  V30 13 C 4.8438 -1.083 0.4532 0
M  V30 14 C -5.3588 -0.3853 0.4131 0
M  V30 15 C 5.674 -0.1198 1.3304 0
M  V30 16 C -5.553 0.7499 1.3422 0
M  V30 17 C 6.9173 0.4538 0.6291 0
M  V30 18 C -6.6305 0.8792 2.143 0
M  V30 19 C 8.0223 -0.6012 0.4218 0
M  V30 20 C -7.9778 0.2937 1.8593 0
M  V30 21 C -6.5503 1.8655 3.2775 0
M  V30 22 C 9.3453 0.0346 -0.0312 0
M  V30 23 C -8.437 -0.0098 0.6373 0
M  V30 24 C 10.1898 0.5309 1.1587 0
M  V30 25 C -9.7861 -0.6096 0.3244 0
M  V30 26 C 11.3713 1.423 0.7357 0
M  V30 27 C -10.3503 -0.3287 -0.8954 0
M  V30 28 C -10.5382 -1.5074 1.3515 0
M  V30 29 C 12.3387 0.7806 -0.2729 0
M  V30 30 C -11.5979 -1.0205 -1.4162 0
M  V30 31 C -9.6731 0.584 -1.8921 0
M  V30 32 C -11.5317 -2.4542 0.6219 0
M  V30 33 C -9.5738 -2.4401 2.1337 0
M  V30 34 C -11.3334 -0.6225 2.3457 0
M  V30 35 C 13.0558 -0.4534 0.2919 0
M  V30 36 C -12.436 -1.6933 -0.338 0
M  V30 37 C 14.0623 -0.9967 -0.7309 0
M  V30 38 C 14.7967 -2.2157 -0.1826 0
M  V30 39 H 1.3299 1.3079 -0.2093 0
M  V30 40 H 2.1965 2.8032 -0.7078 0
M  V30 41 H -2.2 2.923 -1.7624 0
M  V30 42 H -1.9451 2.1149 -3.3593 0
M  V30 43 H 2.928 1.6826 -2.8261 0
M  V30 44 H 2.0854 0.1673 -2.3559 0
M  V30 45 H -3.6329 0.5924 -2.7337 0
M  V30 46 H 4.5947 0.191 -1.936 0
M  V30 47 H 4.3577 1.5132 -0.7323 0
M  V30 48 H 2.9559 -1.2433 -0.5744 0
M  V30 49 H 2.992 0.0142 0.7075 0
M  V30 50 H -4.3822 -1.3196 -1.1679 0
M  V30 51 H -2.3317 1.9682 0.6382 0
M  V30 52 H -1.3496 0.4705 0.3323 0
M  V30 53 H -2.7197 0.3855 1.4334 0
M  V30 54 H 5.4505 -1.5232 -0.3686 0
M  V30 55 H 4.5152 -1.9295 1.092 0
M  V30 56 H -6.0677 -1.2042 0.4433 0
M  V30 57 H 5.0459 0.7297 1.6739 0
M  V30 58 H 5.9918 -0.6494 2.2529 0
M  V30 59 H -4.7316 1.4318 1.4996 0
M  V30 60 H 6.6352 0.8946 -0.3496 0
M  V30 61 H 7.3053 1.2773 1.2668 0
M  V30 62 H 8.1865 -1.188 1.3556 0
M  V30 63 H 7.7011 -1.3134 -0.371 0
M  V30 64 H -8.626 0.2158 2.7121 0
M  V30 65 H -7.3334 1.6511 4.0352 0
M  V30 66 H -5.5618 1.8241 3.7876 0
M  V30 67 H -6.7143 2.8898 2.8764 0
M  V30 68 H 9.1462 0.8668 -0.7443 0
M  V30 69 H 9.9272 -0.7398 -0.576 0
M  V30 70 H -7.7969 0.2374 -0.1955 0
M  V30 71 H 9.5559 1.1251 1.8516 0
M  V30 72 H 10.557 -0.344 1.7347 0
M  V30 73 H 10.9662 2.3574 0.2893 0
M  V30 74 H 11.9378 1.7148 1.6474 0
M  V30 75 H 11.7984 0.5151 -1.2096 0
M  V30 76 H 13.1038 1.5426 -0.546 0
M  V30 77 H -12.2463 -0.2758 -1.9476 0
M  V30 78 H -11.2854 -1.7941 -2.1534 0
M  V30 79 H -8.7166 0.1393 -2.2416 0
M  V30 80 H -9.4877 1.5778 -1.4333 0
M  V30 81 H -10.3011 0.7479 -2.796 0
M  V30 82 H -12.1695 -2.9923 1.3603 0
M  V30 83 H -10.9693 -3.2293 0.0487 0
M  V30 84 H -9.0068 -1.9189 2.9258 0
M  V30 85 H -8.865 -2.9379 1.4386 0
M  V30 86 H -10.1484 -3.2363 2.65 0
M  V30 87 H -12.0442 -1.2415 2.9392 0
M  V30 88 H -10.6868 -0.0994 3.0679 0
M  V30 89 H -11.9113 0.1594 1.8065 0
M  V30 90 H 12.3149 -1.2499 0.5116 0
M  V30 91 H 13.5851 -0.1779 1.2334 0
M  V30 92 H -13.0515 -0.9337 0.2007 0
M  V30 93 H -13.1434 -2.4061 -0.8132 0
M  V30 94 H 14.8098 -0.2111 -0.9851 0
M  V30 95 H 13.5232 -1.2931 -1.6622 0
M  V30 96 H 15.5013 -2.5962 -0.9498 0
M  V30 97 H 14.0797 -3.0252 0.0673 0
M  V30 98 H 15.3778 -1.9436 0.7224 0
M  V30 END ATOM
M  V30 BEGIN BOND
M  V30 1 2 1 2
M  V30 2 1 2 3
M  V30 3 1 2 4
M  V30 4 1 3 5
M  V30 5 1 4 6
M  V30 6 1 5 7
M  V30 7 1 6 8
M  V30 8 2 7 9
M  V30 9 1 8 10
M  V30 10 1 9 11
M  V30 11 1 9 12
M  V30 12 1 10 13
M  V30 13 2 11 14
M  V30 14 1 13 15
M  V30 15 1 14 16
M  V30 16 1 15 17
M  V30 17 2 16 18
M  V30 18 1 17 19
M  V30 19 1 18 20
M  V30 20 1 18 21
M  V30 21 1 19 22
M  V30 22 2 20 23
M  V30 23 1 22 24
M  V30 24 1 23 25
M  V30 25 1 24 26
M  V30 26 2 25 27
M  V30 27 1 25 28
M  V30 28 1 26 29
M  V30 29 1 27 30
M  V30 30 1 27 31
M  V30 31 1 28 32
M  V30 32 1 28 33
M  V30 33 1 28 34
M  V30 34 1 29 35
M  V30 35 1 30 36
M  V30 36 1 35 37
M  V30 37 1 37 38
M  V30 38 1 32 36
M  V30 39 1 4 39
M  V30 40 1 4 40
M  V30 41 1 5 41
M  V30 42 1 5 42
M  V30 43 1 6 43
M  V30 44 1 6 44
M  V30 45 1 7 45
M  V30 46 1 8 46
M  V30 47 1 8 47
M  V30 48 1 10 48
M  V30 49 1 10 49
M  V30 50 1 11 50
M  V30 51 1 12 51
M  V30 52 1 12 52
M  V30 53 1 12 53
M  V30 54 1 13 54
M  V30 55 1 13 55
M  V30 56 1 14 56
M  V30 57 1 15 57
M  V30 58 1 15 58
M  V30 59 1 16 59
M  V30 60 1 17 60
M  V30 61 1 17 61
M  V30 62 1 19 62
M  V30 63 1 19 63
M  V30 64 1 20 64
M  V30 65 1 21 65
M  V30 66 1 21 66
M  V30 67 1 21 67
M  V30 68 1 22 68
M  V30 69 1 22 69
M  V30 70 1 23 70
M  V30 71 1 24 71
M  V30 72 1 24 72
M  V30 73 1 26 73
M  V30 74 1 26 74
M  V30 75 1 29 75
M  V30 76 1 29 76
M  V30 77 1 30 77
M  V30 78 1 30 78
M  V30 79 1 31 79
M  V30 80 1 31 80
M  V30 81 1 31 81
M  V30 82 1 32 82
M  V30 83 1 32 83
M  V30 84 1 33 84
M  V30 85 1 33 85
M  V30 86 1 33 86
M  V30 87 1 34 87
M  V30 88 1 34 88
M  V30 89 1 34 89
M  V30 90 1 35 90
M  V30 91 1 35 91
M  V30 92 1 36 92
M  V30 93 1 36 93
M  V30 94 1 37 94
M  V30 95 1 37 95
M  V30 96 1 38 96
M  V30 97 1 38 97
M  V30 98 1 38 98
M  V30 END BOND
M  V30 END CTAB
M  END
>  <Structure No>
1289

>  <LogS>
-5.72005506

>  <MMFF94 Energy>
32.595

$$$$
Compound 1290
Actelion Java MolfileCreator 2.0

  0  0  0  0  0  0              0 V3000
M  V30 BEGIN CTAB
M  V30 COUNTS 34 35 0 0 0
M  V30 BEGIN ATOM
M  V30 1 F 6.55 -0.245 2.207 0
M  V30 2 C 6.4001 0.2519 0.9258 0
M  V30 3 F 7.4021 -0.2635 0.1219 0
M  V30 4 F 6.5355 1.6291 0.9572 0
M  V30 5 C 5.0425 -0.1368 0.3983 0
M  V30 6 C 3.9206 0.6742 0.6351 0
M  V30 7 C 4.8526 -1.3606 -0.2625 0
M  V30 8 N 2.6923 0.2907 0.1964 0
M  V30 9 C 3.5809 -1.7294 -0.7045 0
M  V30 10 C 2.4949 -0.8862 -0.4599 0
M  V30 11 O 1.2258 -1.2526 -0.927 0
M  V30 12 C 0.012 -0.6973 -0.4955 0
M  V30 13 C -1.0545 -0.6384 -1.398 0
M  V30 14 C -0.1779 -0.2404 0.8199 0
M  V30 15 C -2.2868 -0.1033 -1.0103 0
M  V30 16 C -1.4096 0.2938 1.2085 0
M  V30 17 C -2.4757 0.3685 0.3039 0
M  V30 18 O -3.6856 0.922 0.7645 0
M  V30 19 C -4.9443 0.971 0.0792 0 CFG=1
M  V30 20 C -4.8575 1.7665 -1.196 0
M  V30 21 C -5.5216 -0.4362 -0.117 0
M  V30 22 O -4.144 2.8032 -1.2411 0
M  V30 23 O -5.6098 1.4093 -2.3094 0 CHG=-1
M  V30 24 H 4.0188 1.6111 1.168 0
M  V30 25 H 5.6855 -2.03 -0.4369 0
M  V30 26 H 3.4384 -2.6674 -1.2259 0
M  V30 27 H -0.9238 -0.9988 -2.4106 0
M  V30 28 H 0.6108 -0.3214 1.5554 0
M  V30 29 H -3.072 -0.0581 -1.7481 0
M  V30 30 H -1.5411 0.6426 2.225 0
M  V30 31 H -5.6513 1.5152 0.7414 0
M  V30 32 H -6.5681 -0.3706 -0.4845 0
M  V30 33 H -5.5293 -0.9742 0.8545 0
M  V30 34 H -4.9296 -1.0282 -0.8425 0
M  V30 END ATOM
M  V30 BEGIN BOND
M  V30 1 1 1 2
M  V30 2 1 2 3
M  V30 3 1 2 4
M  V30 4 1 2 5
M  V30 5 2 5 6
M  V30 6 1 5 7
M  V30 7 1 6 8
M  V30 8 2 7 9
M  V30 9 2 8 10
M  V30 10 1 10 11
M  V30 11 1 11 12
M  V30 12 2 12 13
M  V30 13 1 12 14
M  V30 14 1 13 15
M  V30 15 2 14 16
M  V30 16 2 15 17
M  V30 17 1 17 18
M  V30 18 1 18 19
M  V30 19 1 19 20
M  V30 20 1 19 21
M  V30 21 2 20 22
M  V30 22 1 20 23
M  V30 23 1 9 10
M  V30 24 1 16 17
M  V30 25 1 6 24
M  V30 26 1 7 25
M  V30 27 1 9 26
M  V30 28 1 13 27
M  V30 29 1 14 28
M  V30 30 1 15 29
M  V30 31 1 16 30
M  V30 32 1 19 31
M  V30 33 1 21 32
M  V30 34 1 21 33
M  V30 35 1 21 34
M  V30 END BOND
M  V30 BEGIN COLLECTION
M  V30 MDLV30/STEABS ATOMS=(1 19)
M  V30 END COLLECTION
M  V30 END CTAB
M  END
>  <Structure No>
1290

>  <LogS>
-2.622795669

>  <MMFF94 Energy>
104.49

$$$$
Compound 1291
Actelion Java MolfileCreator 2.0

  0  0  0  0  0  0              0 V3000
M  V30 BEGIN CTAB
M  V30 COUNTS 52 52 0 0 0
M  V30 BEGIN ATOM
M  V30 1 O -1.1815 0.7875 -1.1027 0
M  V30 2 O -1.3975 -0.4359 -0.6412 0
M  V30 3 C 0.0918 1.2166 -0.65 0
M  V30 4 C -2.7965 -0.6254 -0.5251 0
M  V30 5 O 1.106 0.3468 -1.135 0
M  V30 6 C 0.1249 1.3507 0.9171 0
M  V30 7 C 0.3403 2.5988 -1.3182 0
M  V30 8 C -3.0352 -2.0428 0.0574 0
M  V30 9 C -3.4387 0.4421 0.3949 0
M  V30 10 C -3.4555 -0.5638 -1.9207 0
M  V30 11 O 1.1336 -0.7387 -0.3726 0
M  V30 12 C -0.3732 2.7192 1.3907 0
M  V30 13 C 1.2204 3.5171 -0.4632 0
M  V30 14 C -2.3219 -2.2924 1.3902 0
M  V30 15 C 2.4211 -1.3186 -0.4759 0
M  V30 16 C 0.5391 3.851 0.8785 0
M  V30 17 C 2.4638 -2.5432 0.4742 0
M  V30 18 C 2.6563 -1.8207 -1.917 0
M  V30 19 C 3.5314 -0.3086 -0.0929 0
M  V30 20 C 2.1626 -2.2014 1.9371 0
M  V30 21 H -0.4741 0.5542 1.4049 0
M  V30 22 H 1.1666 1.226 1.2837 0
M  V30 23 H 0.812 2.4638 -2.3164 0
M  V30 24 H -0.6285 3.119 -1.4943 0
M  V30 25 H -4.1242 -2.2223 0.1969 0
M  V30 26 H -2.6659 -2.8016 -0.6675 0
M  V30 27 H -2.8988 0.5124 1.3608 0
M  V30 28 H -4.5024 0.1941 0.5991 0
M  V30 29 H -3.4098 1.4458 -0.0802 0
M  V30 30 H -2.9685 -1.2871 -2.6093 0
M  V30 31 H -4.5376 -0.8095 -1.8544 0
M  V30 32 H -3.3613 0.4508 -2.3629 0
M  V30 33 H -1.41 2.876 1.0205 0
M  V30 34 H -0.4051 2.7421 2.5015 0
M  V30 35 H 1.4283 4.4579 -1.0172 0
M  V30 36 H 2.1948 3.0143 -0.2754 0
M  V30 37 H -2.4677 -3.351 1.6912 0
M  V30 38 H -2.7411 -1.6495 2.1911 0
M  V30 39 H -1.2317 -2.1061 1.2959 0
M  V30 40 H -0.0688 4.7749 0.7653 0
M  V30 41 H 1.3269 4.0622 1.634 0
M  V30 42 H 3.46 -3.0355 0.4223 0
M  V30 43 H 1.7084 -3.2886 0.1396 0
M  V30 44 H 3.6245 -2.3615 -1.9908 0
M  V30 45 H 2.6808 -0.974 -2.6357 0
M  V30 46 H 1.84 -2.5097 -2.2231 0
M  V30 47 H 3.6178 0.4961 -0.854 0
M  V30 48 H 4.5164 -0.818 -0.0236 0
M  V30 49 H 3.3103 0.1734 0.881 0
M  V30 50 H 1.2015 -1.6533 2.028 0
M  V30 51 H 2.085 -3.1402 2.5248 0
M  V30 52 H 2.9791 -1.5917 2.3756 0
M  V30 END ATOM
M  V30 BEGIN BOND
M  V30 1 1 1 2
M  V30 2 1 1 3
M  V30 3 1 2 4
M  V30 4 1 3 5
M  V30 5 1 3 6
M  V30 6 1 3 7
M  V30 7 1 4 8
M  V30 8 1 4 9
M  V30 9 1 4 10
M  V30 10 1 5 11
M  V30 11 1 6 12
M  V30 12 1 7 13
M  V30 13 1 8 14
M  V30 14 1 11 15
M  V30 15 1 12 16
M  V30 16 1 15 17
M  V30 17 1 15 18
M  V30 18 1 15 19
M  V30 19 1 17 20
M  V30 20 1 13 16
M  V30 21 1 6 21
M  V30 22 1 6 22
M  V30 23 1 7 23
M  V30 24 1 7 24
M  V30 25 1 8 25
M  V30 26 1 8 26
M  V30 27 1 9 27
M  V30 28 1 9 28
M  V30 29 1 9 29
M  V30 30 1 10 30
M  V30 31 1 10 31
M  V30 32 1 10 32
M  V30 33 1 12 33
M  V30 34 1 12 34
M  V30 35 1 13 35
M  V30 36 1 13 36
M  V30 37 1 14 37
M  V30 38 1 14 38
M  V30 39 1 14 39
M  V30 40 1 16 40
M  V30 41 1 16 41
M  V30 42 1 17 42
M  V30 43 1 17 43
M  V30 44 1 18 44
M  V30 45 1 18 45
M  V30 46 1 18 46
M  V30 47 1 19 47
M  V30 48 1 19 48
M  V30 49 1 19 49
M  V30 50 1 20 50
M  V30 51 1 20 51
M  V30 52 1 20 52
M  V30 END BOND
M  V30 END CTAB
M  END
>  <Structure No>
1291

>  <LogS>
-5.460037419

>  <MMFF94 Energy>
56.577

$$$$
Compound 1292
Actelion Java MolfileCreator 2.0

  0  0  0  0  0  0              0 V3000
M  V30 BEGIN CTAB
M  V30 COUNTS 28 29 0 0 0
M  V30 BEGIN ATOM
M  V30 1 N -0.712 1.1869 0.5537 0
M  V30 2 C 0.6893 1.0215 0.3077 0
M  V30 3 C -1.7023 0.1834 0.1408 0
M  V30 4 C 1.1886 -0.2414 -0.056 0
M  V30 5 C 1.5603 2.1132 0.4385 0
M  V30 6 C -1.0771 -1.1898 -0.0213 0
M  V30 7 C -2.8024 0.1031 1.211 0
M  V30 8 C -2.3122 0.6119 -1.2013 0
M  V30 9 C 0.2468 -1.3897 -0.1483 0
M  V30 10 C 2.5687 -0.386 -0.3033 0
M  V30 11 C 2.9255 1.956 0.1936 0
M  V30 12 C 0.7621 -2.7869 -0.3842 0
M  V30 13 C 3.4281 0.709 -0.1794 0
M  V30 14 H -1.057 2.1239 0.8659 0
M  V30 15 H 1.1796 3.0857 0.7245 0
M  V30 16 H -1.7524 -2.0332 -0.1183 0
M  V30 17 H -2.3663 -0.2025 2.1866 0
M  V30 18 H -3.2917 1.0922 1.3427 0
M  V30 19 H -3.5817 -0.6359 0.924 0
M  V30 20 H -1.5215 0.6746 -1.9799 0
M  V30 21 H -3.0811 -0.1178 -1.5363 0
M  V30 22 H -2.7897 1.6111 -1.1093 0
M  V30 23 H 2.9905 -1.3386 -0.593 0
M  V30 24 H 3.5938 2.8016 0.2917 0
M  V30 25 H 1.5318 -3.0362 0.3761 0
M  V30 26 H 1.2099 -2.8516 -1.3978 0
M  V30 27 H -0.0418 -3.5505 -0.3113 0
M  V30 28 H 4.4866 0.5895 -0.3708 0
M  V30 END ATOM
M  V30 BEGIN BOND
M  V30 1 1 1 2
M  V30 2 1 1 3
M  V30 3 2 2 4
M  V30 4 1 2 5
M  V30 5 1 3 6
M  V30 6 1 3 7
M  V30 7 1 3 8
M  V30 8 1 4 9
M  V30 9 1 4 10
M  V30 10 2 5 11
M  V30 11 1 9 12
M  V30 12 2 10 13
M  V30 13 2 6 9
M  V30 14 1 11 13
M  V30 15 1 1 14
M  V30 16 1 5 15
M  V30 17 1 6 16
M  V30 18 1 7 17
M  V30 19 1 7 18
M  V30 20 1 7 19
M  V30 21 1 8 20
M  V30 22 1 8 21
M  V30 23 1 8 22
M  V30 24 1 10 23
M  V30 25 1 11 24
M  V30 26 1 12 25
M  V30 27 1 12 26
M  V30 28 1 12 27
M  V30 29 1 13 28
M  V30 END BOND
M  V30 END CTAB
M  END
>  <Structure No>
1292

>  <LogS>
-5.238695804

>  <MMFF94 Energy>
30.372

$$$$
Compound 1293
Actelion Java MolfileCreator 2.0

  0  0  0  0  0  0              0 V3000
M  V30 BEGIN CTAB
M  V30 COUNTS 26 25 0 0 0
M  V30 BEGIN ATOM
M  V30 1 Cl -5.5092 0.6284 -0.5498 0
M  V30 2 C -3.766 0.7875 -0.8812 0
M  V30 3 C -2.9567 0.2069 0.2773 0
M  V30 4 C -1.4511 0.333 0.0163 0
M  V30 5 C -0.6405 -0.2614 1.1778 0
M  V30 6 C 0.8718 -0.0393 1.0177 0
M  V30 7 C 1.4732 -0.8695 -0.1298 0
M  V30 8 C 3.0095 -0.8508 -0.1269 0
M  V30 9 C 3.5837 0.5164 -0.4972 0
M  V30 10 H -3.5264 1.8642 -1.0143 0
M  V30 11 H -3.5324 0.2447 -1.8218 0
M  V30 12 H -3.2187 0.7506 1.2116 0
M  V30 13 H -3.2222 -0.8655 0.4054 0
M  V30 14 H -1.189 1.407 -0.1067 0
M  V30 15 H -1.204 -0.2034 -0.9245 0
M  V30 16 H -0.8541 -1.3488 1.2712 0
M  V30 17 H -0.9595 0.2262 2.1252 0
M  V30 18 H 1.3626 -0.3318 1.9718 0
M  V30 19 H 1.0689 1.0417 0.8533 0
M  V30 20 H 1.1049 -0.495 -1.1088 0
M  V30 21 H 1.1438 -1.9263 -0.0247 0
M  V30 22 H 3.371 -1.5937 -0.8705 0
M  V30 23 H 3.3947 -1.1591 0.8694 0
M  V30 24 H 3.1716 0.8608 -1.4696 0
M  V30 25 H 3.353 1.2652 0.2887 0
M  V30 26 H 4.6877 0.4404 -0.5885 0
M  V30 END ATOM
M  V30 BEGIN BOND
M  V30 1 1 1 2
M  V30 2 1 2 3
M  V30 3 1 3 4
M  V30 4 1 4 5
M  V30 5 1 5 6
M  V30 6 1 6 7
M  V30 7 1 7 8
M  V30 8 1 8 9
M  V30 9 1 2 10
M  V30 10 1 2 11
M  V30 11 1 3 12
M  V30 12 1 3 13
M  V30 13 1 4 14
M  V30 14 1 4 15
M  V30 15 1 5 16
M  V30 16 1 5 17
M  V30 17 1 6 18
M  V30 18 1 6 19
M  V30 19 1 7 20
M  V30 20 1 7 21
M  V30 21 1 8 22
M  V30 22 1 8 23
M  V30 23 1 9 24
M  V30 24 1 9 25
M  V30 25 1 9 26
M  V30 END BOND
M  V30 END CTAB
M  END
>  <Structure No>
1293

>  <LogS>
-5.172243789

>  <MMFF94 Energy>
-3.4069

$$$$
Compound 1294
Actelion Java MolfileCreator 2.0

  0  0  0  0  0  0              0 V3000
M  V30 BEGIN CTAB
M  V30 COUNTS 55 54 0 0 0
M  V30 BEGIN ATOM
M  V30 1 S 2.3195 -3.1489 1.8222 0
M  V30 2 O 3.4128 -1.86 1.4696 0
M  V30 3 C 3.1048 -1.3966 0.1774 0
M  V30 4 C 4.0199 -0.2043 -0.2072 0
M  V30 5 C 5.5019 -0.6639 -0.1783 0
M  V30 6 C 3.6648 0.2732 -1.6429 0
M  V30 7 C 3.821 0.9484 0.8009 0
M  V30 8 O 6.3515 0.3929 -0.552 0
M  V30 9 O 2.2715 0.5632 -1.7808 0
M  V30 10 S 7.9631 -0.2224 -0.5434 0
M  V30 11 C 1.7193 1.846 -1.68 0
M  V30 12 O 2.4551 2.8563 -1.5078 0
M  V30 13 C 0.2399 2.0134 -1.8579 0
M  V30 14 C -0.3937 2.9683 -0.8302 0
M  V30 15 C -0.1828 2.5509 0.635 0
M  V30 16 C -0.6759 1.1637 0.9141 0
M  V30 17 O 0.0461 0.361 1.5666 0
M  V30 18 O -1.9456 0.7826 0.473 0
M  V30 19 C -2.4664 -0.5307 0.6594 0
M  V30 20 C -3.868 -0.6568 0.0104 0
M  V30 21 C -4.4013 -2.0925 0.2517 0
M  V30 22 C -4.8374 0.3891 0.6239 0
M  V30 23 C -3.7449 -0.4061 -1.5101 0
M  V30 24 O -5.6847 -2.2429 -0.3079 0
M  V30 25 O -4.9613 0.1892 2.0116 0
M  V30 26 S -6.1959 -3.8577 0.0216 0
M  V30 27 S -6.0513 1.3902 2.6049 0
M  V30 28 H 3.2146 -4.1178 1.3291 0
M  V30 29 H 2.0406 -1.0709 0.1395 0
M  V30 30 H 3.2465 -2.217 -0.5627 0
M  V30 31 H 5.6285 -1.5218 -0.8791 0
M  V30 32 H 5.7651 -1.0092 0.848 0
M  V30 33 H 3.9101 -0.5367 -2.3629 0
M  V30 34 H 4.2783 1.1521 -1.9384 0
M  V30 35 H 4.3772 1.8551 0.4811 0
M  V30 36 H 4.1835 0.6585 1.8113 0
M  V30 37 H 2.7478 1.2086 0.8901 0
M  V30 38 H 7.904 -0.5517 -1.9105 0
M  V30 39 H -0.2541 1.0194 -1.7998 0
M  V30 40 H 0.0539 2.4118 -2.8777 0
M  V30 41 H -1.4847 3.0322 -1.0351 0
M  V30 42 H 0.0222 3.9891 -0.9739 0
M  V30 43 H -0.7377 3.2555 1.2897 0
M  V30 44 H 0.8915 2.6383 0.8973 0
M  V30 45 H -1.7697 -1.2686 0.2005 0
M  V30 46 H -2.5232 -0.7491 1.7494 0
M  V30 47 H -4.4379 -2.2905 1.349 0
M  V30 48 H -3.698 -2.825 -0.2107 0
M  V30 49 H -5.8352 0.2984 0.1346 0
M  V30 50 H -4.4499 1.4142 0.4212 0
M  V30 51 H -3.344 0.61 -1.714 0
M  V30 52 H -3.0612 -1.1484 -1.9757 0
M  V30 53 H -4.7352 -0.4857 -2.0071 0
M  V30 54 H -6.8302 -3.4727 1.2201 0
M  V30 55 H -7.1611 0.5372 2.4559 0
M  V30 END ATOM
M  V30 BEGIN BOND
M  V30 1 1 1 2
M  V30 2 1 2 3
M  V30 3 1 3 4
M  V30 4 1 4 5
M  V30 5 1 4 6
M  V30 6 1 4 7
M  V30 7 1 5 8
M  V30 8 1 6 9
M  V30 9 1 8 10
M  V30 10 1 9 11
M  V30 11 2 11 12
M  V30 12 1 11 13
M  V30 13 1 13 14
M  V30 14 1 14 15
M  V30 15 1 15 16
M  V30 16 2 16 17
M  V30 17 1 16 18
M  V30 18 1 18 19
M  V30 19 1 19 20
M  V30 20 1 20 21
M  V30 21 1 20 22
M  V30 22 1 20 23
M  V30 23 1 21 24
M  V30 24 1 22 25
M  V30 25 1 24 26
M  V30 26 1 25 27
M  V30 27 1 1 28
M  V30 28 1 3 29
M  V30 29 1 3 30
M  V30 30 1 5 31
M  V30 31 1 5 32
M  V30 32 1 6 33
M  V30 33 1 6 34
M  V30 34 1 7 35
M  V30 35 1 7 36
M  V30 36 1 7 37
M  V30 37 1 10 38
M  V30 38 1 13 39
M  V30 39 1 13 40
M  V30 40 1 14 41
M  V30 41 1 14 42
M  V30 42 1 15 43
M  V30 43 1 15 44
M  V30 44 1 19 45
M  V30 45 1 19 46
M  V30 46 1 21 47
M  V30 47 1 21 48
M  V30 48 1 22 49
M  V30 49 1 22 50
M  V30 50 1 23 51
M  V30 51 1 23 52
M  V30 52 1 23 53
M  V30 53 1 26 54
M  V30 54 1 27 55
M  V30 END BOND
M  V30 END CTAB
M  END
>  <Structure No>
1294

>  <LogS>
-5.84194731

>  <MMFF94 Energy>
1.1272

$$$$
Compound 1295
Actelion Java MolfileCreator 2.0

  0  0  0  0  0  0              0 V3000
M  V30 BEGIN CTAB
M  V30 COUNTS 49 51 0 0 0
M  V30 BEGIN ATOM
M  V30 1 O 2.8667 -2.8667 1.9104 0
M  V30 2 C 1.7435 -2.0644 1.7112 0
M  V30 3 C 1.8057 -0.9247 0.8824 0
M  V30 4 C 0.5412 -2.402 2.3391 0
M  V30 5 N 3.0218 -0.5558 0.195 0
M  V30 6 C 0.6486 -0.1387 0.7199 0
M  V30 7 C -0.5979 -1.6167 2.1691 0
M  V30 8 N 3.1364 0.542 -0.554 0
M  V30 9 N 4.1492 -1.2669 0.2323 0
M  V30 10 C -0.5628 -0.4432 1.3833 0
M  V30 11 C 4.3967 0.5228 -1.0107 0
M  V30 12 C 5.0172 -0.5853 -0.5287 0
M  V30 13 C -1.8243 0.4248 1.1313 0
M  V30 14 C 5.0429 1.4361 -1.838 0
M  V30 15 C 6.3424 -0.8848 -0.8289 0
M  V30 16 C -2.3418 0.0445 -0.3046 0
M  V30 17 C -2.8938 0.1739 2.2224 0
M  V30 18 C -1.4149 1.9228 1.221 0
M  V30 19 C 6.3874 1.1705 -2.1668 0
M  V30 20 C 7.0344 0.015 -1.6643 0
M  V30 21 C -3.7304 0.5228 -0.8716 0
M  V30 22 C -3.7229 0.238 -2.3937 0
M  V30 23 C -3.976 2.0324 -0.6829 0
M  V30 24 C -4.9103 -0.2746 -0.266 0
M  V30 25 H 2.8367 -3.6893 2.5017 0
M  V30 26 H 0.4853 -3.2868 2.9611 0
M  V30 27 H 0.6931 0.7122 0.0563 0
M  V30 28 H -1.4998 -1.9486 2.6608 0
M  V30 29 H 4.5344 2.3147 -2.2135 0
M  V30 30 H 6.8227 -1.7717 -0.4366 0
M  V30 31 H -1.5555 0.3768 -1.0193 0
M  V30 32 H -2.3322 -1.0669 -0.3801 0
M  V30 33 H -3.6923 0.9416 2.2014 0
M  V30 34 H -2.4356 0.2328 3.2336 0
M  V30 35 H -3.367 -0.8231 2.1001 0
M  V30 36 H -0.92 2.2726 0.2913 0
M  V30 37 H -2.2758 2.5935 1.4065 0
M  V30 38 H -0.7156 2.0817 2.0708 0
M  V30 39 H 6.9289 1.8545 -2.8071 0
M  V30 40 H 8.0671 -0.1786 -1.9234 0
M  V30 41 H -2.9216 0.8182 -2.9012 0
M  V30 42 H -3.5486 -0.8424 -2.5899 0
M  V30 43 H -4.6913 0.52 -2.8619 0
M  V30 44 H -4.2132 2.2758 0.3706 0
M  V30 45 H -4.8519 2.3632 -1.2824 0
M  V30 46 H -3.0936 2.6193 -1.0156 0
M  V30 47 H -5.8393 -0.1051 -0.853 0
M  V30 48 H -5.1449 0.0375 0.7681 0
M  V30 49 H -4.6973 -1.365 -0.2719 0
M  V30 END ATOM
M  V30 BEGIN BOND
M  V30 1 1 1 2
M  V30 2 2 2 3
M  V30 3 1 2 4
M  V30 4 1 3 5
M  V30 5 1 3 6
M  V30 6 2 4 7
M  V30 7 1 5 8
M  V30 8 1 5 9
M  V30 9 2 6 10
M  V30 10 2 8 11
M  V30 11 2 9 12
M  V30 12 1 10 13
M  V30 13 1 11 14
M  V30 14 1 12 15
M  V30 15 1 13 16
M  V30 16 1 13 17
M  V30 17 1 13 18
M  V30 18 2 14 19
M  V30 19 2 15 20
M  V30 20 1 16 21
M  V30 21 1 21 22
M  V30 22 1 21 23
M  V30 23 1 21 24
M  V30 24 1 7 10
M  V30 25 1 11 12
M  V30 26 1 19 20
M  V30 27 1 1 25
M  V30 28 1 4 26
M  V30 29 1 6 27
M  V30 30 1 7 28
M  V30 31 1 14 29
M  V30 32 1 15 30
M  V30 33 1 16 31
M  V30 34 1 16 32
M  V30 35 1 17 33
M  V30 36 1 17 34
M  V30 37 1 17 35
M  V30 38 1 18 36
M  V30 39 1 18 37
M  V30 40 1 18 38
M  V30 41 1 19 39
M  V30 42 1 20 40
M  V30 43 1 22 41
M  V30 44 1 22 42
M  V30 45 1 22 43
M  V30 46 1 23 44
M  V30 47 1 23 45
M  V30 48 1 23 46
M  V30 49 1 24 47
M  V30 50 1 24 48
M  V30 51 1 24 49
M  V30 END BOND
M  V30 END CTAB
M  END
>  <Structure No>
1295

>  <LogS>
-5.509793728

>  <MMFF94 Energy>
100.31

$$$$
Compound 1296
Actelion Java MolfileCreator 2.0

  0  0  0  0  0  0              0 V3000
M  V30 BEGIN CTAB
M  V30 COUNTS 28 30 0 0 0
M  V30 BEGIN ATOM
M  V30 1 O -0.8002 -2.7227 -1.1204 0
M  V30 2 C -1.5778 -1.6455 -0.6919 0
M  V30 3 C -1.0111 -0.4024 -0.3215 0
M  V30 4 C -2.9678 -1.806 -0.6709 0
M  V30 5 N 0.4104 -0.2108 -0.2471 0
M  V30 6 C -1.8617 0.6675 0.0063 0
M  V30 7 C -3.8018 -0.7419 -0.3235 0
M  V30 8 N 1.2527 -1.1063 0.2674 0
M  V30 9 N 1.0128 0.9244 -0.6007 0
M  V30 10 C -3.2538 0.4995 0.023 0
M  V30 11 C 2.4554 -0.5156 0.2143 0
M  V30 12 C 2.3085 0.7274 -0.317 0
M  V30 13 C -4.1508 1.6569 0.3503 0
M  V30 14 C 3.6912 -1.0081 0.6216 0
M  V30 15 C 3.384 1.5931 -0.4896 0
M  V30 16 C 4.8078 -0.1634 0.4609 0
M  V30 17 C 4.655 1.1314 -0.0923 0
M  V30 18 H 0.1879 -2.6476 -1.3194 0
M  V30 19 H -3.4054 -2.756 -0.951 0
M  V30 20 H -1.4362 1.6268 0.2759 0
M  V30 21 H -4.8755 -0.8843 -0.3333 0
M  V30 22 H -5.1034 1.3018 0.7983 0
M  V30 23 H -3.6619 2.3371 1.08 0
M  V30 24 H -4.3762 2.2229 -0.5775 0
M  V30 25 H 3.7913 -1.9988 1.0455 0
M  V30 26 H 3.2506 2.581 -0.9111 0
M  V30 27 H 5.7886 -0.5063 0.7637 0
M  V30 28 H 5.5196 1.7717 -0.2093 0
M  V30 END ATOM
M  V30 BEGIN BOND
M  V30 1 1 1 2
M  V30 2 2 2 3
M  V30 3 1 2 4
M  V30 4 1 3 5
M  V30 5 1 3 6
M  V30 6 2 4 7
M  V30 7 1 5 8
M  V30 8 1 5 9
M  V30 9 2 6 10
M  V30 10 2 8 11
M  V30 11 2 9 12
M  V30 12 1 10 13
M  V30 13 1 11 14
M  V30 14 1 12 15
M  V30 15 2 14 16
M  V30 16 2 15 17
M  V30 17 1 7 10
M  V30 18 1 11 12
M  V30 19 1 16 17
M  V30 20 1 1 18
M  V30 21 1 4 19
M  V30 22 1 6 20
M  V30 23 1 7 21
M  V30 24 1 13 22
M  V30 25 1 13 23
M  V30 26 1 13 24
M  V30 27 1 14 25
M  V30 28 1 15 26
M  V30 29 1 16 27
M  V30 30 1 17 28
M  V30 END BOND
M  V30 END CTAB
M  END
>  <Structure No>
1296

>  <LogS>
-5.352666728

>  <MMFF94 Energy>
63.002

$$$$
Compound 1297
Actelion Java MolfileCreator 2.0

  0  0  0  0  0  0              0 V3000
M  V30 BEGIN CTAB
M  V30 COUNTS 103 104 0 0 0
M  V30 BEGIN ATOM
M  V30 1 S 0.7178 -1.1168 -0.0797 0
M  V30 2 C -0.4871 -0.0239 -0.929 0
M  V30 3 C 1.6851 0.1531 0.818 0
M  V30 4 C -1.452 0.6737 0.0363 0
M  V30 5 C 2.3936 1.1267 -0.1303 0
M  V30 6 O -2.0282 -0.2453 0.9638 0
M  V30 7 O 3.5262 1.7198 0.5016 0
M  V30 8 C -2.9987 -1.1902 0.612 0
M  V30 9 C 3.4419 2.5946 1.5906 0
M  V30 10 O -3.4025 -1.2886 -0.5794 0
M  V30 11 C -3.6078 -2.0501 1.6761 0
M  V30 12 O 2.3203 2.9607 2.0343 0
M  V30 13 C 4.6975 3.1233 2.2193 0
M  V30 14 C -4.7356 -1.317 2.4138 0
M  V30 15 C 5.6191 1.9937 2.7085 0
M  V30 16 C -5.906 -1.0311 1.5007 0
M  V30 17 C 6.36 1.3273 1.5701 0
M  V30 18 C -6.8564 -2.0176 1.2598 0
M  V30 19 C -5.9957 0.1922 0.8419 0
M  V30 20 C 5.9748 0.0691 1.1155 0
M  V30 21 C 7.4124 1.9913 0.952 0
M  V30 22 C -7.9385 -1.8063 0.3789 0
M  V30 23 C -7.0408 0.48 -0.0666 0
M  V30 24 C 6.6129 -0.5668 0.0231 0
M  V30 25 C 8.1068 1.4306 -0.1387 0
M  V30 26 C -8.0325 -0.5402 -0.2769 0
M  V30 27 C -8.9951 -2.9279 0.1359 0
M  V30 28 C -7.0554 1.8435 -0.8269 0
M  V30 29 C 7.7038 0.1391 -0.6013 0
M  V30 30 C 6.1082 -1.9666 -0.4515 0
M  V30 31 C 9.2728 2.2131 -0.8205 0
M  V30 32 O -9.1264 -0.3391 -1.122 0
M  V30 33 C -8.7025 -4.2255 0.9373 0
M  V30 34 C -9.0162 -3.3286 -1.3585 0
M  V30 35 C -10.3995 -2.4444 0.5724 0
M  V30 36 C -8.3895 2.6105 -0.5691 0
M  V30 37 C -5.9037 2.798 -0.3993 0
M  V30 38 C -6.8407 1.5843 -2.339 0
M  V30 39 O 8.4175 -0.3875 -1.682 0
M  V30 40 C 7.2124 -3.0372 -0.2592 0
M  V30 41 C 5.6048 -1.8974 -1.9181 0
M  V30 42 C 4.8893 -2.4943 0.3601 0
M  V30 43 C 8.9278 2.5012 -2.301 0
M  V30 44 C 9.5562 3.5885 -0.1568 0
M  V30 45 C 10.5903 1.4049 -0.7316 0
M  V30 46 H 0.0384 0.7289 -1.5488 0
M  V30 47 H -1.0734 -0.6566 -1.628 0
M  V30 48 H 2.4472 -0.3832 1.4201 0
M  V30 49 H 1.0355 0.697 1.5326 0
M  V30 50 H -0.9123 1.4612 0.6005 0
M  V30 51 H -2.2572 1.1818 -0.5388 0
M  V30 52 H 1.6951 1.9243 -0.462 0
M  V30 53 H 2.7523 0.5765 -1.0263 0
M  V30 54 H -3.9936 -2.9915 1.2282 0
M  V30 55 H -2.8178 -2.3255 2.4074 0
M  V30 56 H 4.427 3.7565 3.0928 0
M  V30 57 H 5.2275 3.7739 1.49 0
M  V30 58 H -4.3443 -0.3744 2.8572 0
M  V30 59 H -5.0772 -1.9465 3.2637 0
M  V30 60 H 6.3663 2.4242 3.4108 0
M  V30 61 H 5.029 1.2535 3.2936 0
M  V30 62 H -6.7205 -2.9522 1.781 0
M  V30 63 H -5.2145 0.9039 1.0566 0
M  V30 64 H 5.1516 -0.3868 1.6388 0
M  V30 65 H 7.6628 2.9628 1.3467 0
M  V30 66 H -9.368 0.5119 -1.5962 0
M  V30 67 H -9.4709 -5.0031 0.7311 0
M  V30 68 H -7.7197 -4.6583 0.6479 0
M  V30 69 H -8.7178 -4.0282 2.0325 0
M  V30 70 H -9.3991 -2.5227 -2.0128 0
M  V30 71 H -7.9933 -3.597 -1.6993 0
M  V30 72 H -9.6794 -4.2052 -1.5226 0
M  V30 73 H -11.1291 -3.2825 0.5597 0
M  V30 74 H -10.8112 -1.6668 -0.0989 0
M  V30 75 H -10.3614 -2.0343 1.6044 0
M  V30 76 H -9.0212 2.6642 -1.4804 0
M  V30 77 H -8.2279 3.6665 -0.264 0
M  V30 78 H -8.978 2.1409 0.2471 0
M  V30 79 H -4.9059 2.3553 -0.6123 0
M  V30 80 H -5.9533 3.7544 -0.9653 0
M  V30 81 H -5.9779 3.0484 0.6809 0
M  V30 82 H -5.8456 1.1176 -2.5101 0
M  V30 83 H -7.5963 0.9065 -2.7774 0
M  V30 84 H -6.8783 2.539 -2.9077 0
M  V30 85 H 8.3119 -1.2875 -2.1121 0
M  V30 86 H 7.4207 -3.1756 0.8237 0
M  V30 87 H 6.8829 -4.0167 -0.6682 0
M  V30 88 H 8.1834 -2.8002 -0.7196 0
M  V30 89 H 4.7295 -1.2161 -1.9844 0
M  V30 90 H 5.2833 -2.9026 -2.2679 0
M  V30 91 H 6.3356 -1.5237 -2.648 0
M  V30 92 H 4.5644 -3.4913 -0.0145 0
M  V30 93 H 4.0174 -1.8125 0.2643 0
M  V30 94 H 5.142 -2.6238 1.4359 0
M  V30 95 H 7.9433 3.0135 -2.3712 0
M  V30 96 H 9.6954 3.1599 -2.7627 0
M  V30 97 H 8.8896 1.5832 -2.9194 0
M  V30 98 H 8.6677 4.2538 -0.2231 0
M  V30 99 H 10.392 4.1141 -0.6691 0
M  V30 100 H 9.8531 3.4629 0.908 0
M  V30 101 H 11.4531 2.0146 -1.0779 0
M  V30 102 H 10.5853 0.4989 -1.3667 0
M  V30 103 H 10.7842 1.0966 0.3182 0
M  V30 END ATOM
M  V30 BEGIN BOND
M  V30 1 1 1 2
M  V30 2 1 1 3
M  V30 3 1 2 4
M  V30 4 1 3 5
M  V30 5 1 4 6
M  V30 6 1 5 7
M  V30 7 1 6 8
M  V30 8 1 7 9
M  V30 9 2 8 10
M  V30 10 1 8 11
M  V30 11 2 9 12
M  V30 12 1 9 13
M  V30 13 1 11 14
M  V30 14 1 13 15
M  V30 15 1 14 16
M  V30 16 1 15 17
M  V30 17 2 16 18
M  V30 18 1 16 19
M  V30 19 2 17 20
M  V30 20 1 17 21
M  V30 21 1 18 22
M  V30 22 2 19 23
M  V30 23 1 20 24
M  V30 24 2 21 25
M  V30 25 2 22 26
M  V30 26 1 22 27
M  V30 27 1 23 28
M  V30 28 2 24 29
M  V30 29 1 24 30
M  V30 30 1 25 31
M  V30 31 1 26 32
M  V30 32 1 27 33
M  V30 33 1 27 34
M  V30 34 1 27 35
M  V30 35 1 28 36
M  V30 36 1 28 37
M  V30 37 1 28 38
M  V30 38 1 29 39
M  V30 39 1 30 40
M  V30 40 1 30 41
M  V30 41 1 30 42
M  V30 42 1 31 43
M  V30 43 1 31 44
M  V30 44 1 31 45
M  V30 45 1 23 26
M  V30 46 1 25 29
M  V30 47 1 2 46
M  V30 48 1 2 47
M  V30 49 1 3 48
M  V30 50 1 3 49
M  V30 51 1 4 50
M  V30 52 1 4 51
M  V30 53 1 5 52
M  V30 54 1 5 53
M  V30 55 1 11 54
M  V30 56 1 11 55
M  V30 57 1 13 56
M  V30 58 1 13 57
M  V30 59 1 14 58
M  V30 60 1 14 59
M  V30 61 1 15 60
M  V30 62 1 15 61
M  V30 63 1 18 62
M  V30 64 1 19 63
M  V30 65 1 20 64
M  V30 66 1 21 65
M  V30 67 1 32 66
M  V30 68 1 33 67
M  V30 69 1 33 68
M  V30 70 1 33 69
M  V30 71 1 34 70
M  V30 72 1 34 71
M  V30 73 1 34 72
M  V30 74 1 35 73
M  V30 75 1 35 74
M  V30 76 1 35 75
M  V30 77 1 36 76
M  V30 78 1 36 77
M  V30 79 1 36 78
M  V30 80 1 37 79
M  V30 81 1 37 80
M  V30 82 1 37 81
M  V30 83 1 38 82
M  V30 84 1 38 83
M  V30 85 1 38 84
M  V30 86 1 39 85
M  V30 87 1 40 86
M  V30 88 1 40 87
M  V30 89 1 40 88
M  V30 90 1 41 89
M  V30 91 1 41 90
M  V30 92 1 41 91
M  V30 93 1 42 92
M  V30 94 1 42 93
M  V30 95 1 42 94
M  V30 96 1 43 95
M  V30 97 1 43 96
M  V30 98 1 43 97
M  V30 99 1 44 98
M  V30 100 1 44 99
M  V30 101 1 44 100
M  V30 102 1 45 101
M  V30 103 1 45 102
M  V30 104 1 45 103
M  V30 END BOND
M  V30 END CTAB
M  END
>  <Structure No>
1297

>  <LogS>
-5.808172472

>  <MMFF94 Energy>
109.39

$$$$
Compound 1298
Actelion Java MolfileCreator 2.0

  0  0  0  0  0  0              0 V3000
M  V30 BEGIN CTAB
M  V30 COUNTS 92 93 0 0 0
M  V30 BEGIN ATOM
M  V30 1 O 3.7296 0.4755 0.2377 0
M  V30 2 C 3.5375 -0.1 1.3439 0
M  V30 3 O 2.8694 0.5579 2.3823 0
M  V30 4 C 4.0279 -1.5006 1.5593 0
M  V30 5 C 2.45 1.9179 2.3 0
M  V30 6 C 5.5543 -1.5586 1.7158 0
M  V30 7 C 1.5335 2.2497 3.4749 0
M  V30 8 C 6.2573 -1.4402 0.3844 0
M  V30 9 O 0.2801 1.6163 3.3062 0
M  V30 10 C 6.7111 -0.1958 -0.0714 0
M  V30 11 C 6.4053 -2.568 -0.4245 0
M  V30 12 C 0.1851 0.4503 4.1011 0
M  V30 13 C 7.306 -0.0429 -1.3499 0
M  V30 14 C 7.0097 -2.4707 -1.6818 0
M  V30 15 C -0.9405 -0.4288 3.5674 0
M  V30 16 C 7.452 -1.2108 -2.1562 0
M  V30 17 C 7.7574 1.3517 -1.8662 0
M  V30 18 C 7.1416 -3.7149 -2.5208 0
M  V30 19 O -0.7197 -0.6806 2.1942 0
M  V30 20 O 8.0293 -1.1069 -3.4273 0
M  V30 21 C 9.2818 1.3527 -2.1298 0
M  V30 22 C 7.4782 2.4936 -0.8561 0
M  V30 23 C 6.9946 1.708 -3.1666 0
M  V30 24 C -1.5679 -1.7109 1.7177 0
M  V30 25 C -3.0321 -1.2582 1.5819 0
M  V30 26 O -3.1265 0.1001 1.1583 0
M  V30 27 C -2.8189 0.5395 -0.1318 0
M  V30 28 O -2.4082 -0.2655 -1.0135 0
M  V30 29 C -3.0016 1.9875 -0.4677 0
M  V30 30 C -4.1161 2.2024 -1.5031 0
M  V30 31 C -5.449 1.669 -1.0285 0
M  V30 32 C -5.931 0.4443 -1.5044 0
M  V30 33 C -6.1926 2.3804 -0.0881 0
M  V30 34 C -7.1724 -0.0906 -1.0702 0
M  V30 35 C -7.4203 1.8936 0.3731 0
M  V30 36 C -7.9161 0.6584 -0.1114 0
M  V30 37 C -7.7126 -1.4326 -1.6413 0
M  V30 38 C -8.185 2.6983 1.3925 0
M  V30 39 O -9.1433 0.1709 0.3511 0
M  V30 40 C -6.7482 -2.0909 -2.6647 0
M  V30 41 C -7.9203 -2.4567 -0.4999 0
M  V30 42 C -9.0475 -1.1898 -2.3828 0
M  V30 43 H 3.6968 -2.144 0.7157 0
M  V30 44 H 3.5603 -1.9063 2.4841 0
M  V30 45 H 3.3434 2.5791 2.3343 0
M  V30 46 H 1.9026 2.0948 1.3482 0
M  V30 47 H 5.8276 -2.5307 2.1827 0
M  V30 48 H 5.9016 -0.7636 2.4159 0
M  V30 49 H 2.037 2.0109 4.4419 0
M  V30 50 H 1.3605 3.3459 3.475 0
M  V30 51 H 6.5742 0.6429 0.5899 0
M  V30 52 H 6.0374 -3.5241 -0.0711 0
M  V30 53 H 1.1246 -0.151 4.0912 0
M  V30 54 H -0.043 0.7358 5.1517 0
M  V30 55 H -1.9028 0.1117 3.7091 0
M  V30 56 H -0.9553 -1.368 4.1673 0
M  V30 57 H 8.2051 -3.8735 -2.8024 0
M  V30 58 H 6.8003 -4.6204 -1.9739 0
M  V30 59 H 6.5227 -3.6142 -3.4394 0
M  V30 60 H 8.1474 -1.8871 -4.0599 0
M  V30 61 H 9.5764 0.6601 -2.9431 0
M  V30 62 H 9.6265 2.365 -2.4365 0
M  V30 63 H 9.83 1.0613 -1.207 0
M  V30 64 H 7.8195 3.4709 -1.2588 0
M  V30 65 H 6.3886 2.5825 -0.6504 0
M  V30 66 H 8.0294 2.3278 0.096 0
M  V30 67 H 7.1629 2.7708 -3.4457 0
M  V30 68 H 7.3305 1.1022 -4.033 0
M  V30 69 H 5.9007 1.5532 -3.0301 0
M  V30 70 H -1.5031 -2.6271 2.3478 0
M  V30 71 H -1.2034 -2.0062 0.7105 0
M  V30 72 H -3.5348 -1.3478 2.5678 0
M  V30 73 H -3.5719 -1.9188 0.8723 0
M  V30 74 H -2.0433 2.3872 -0.868 0
M  V30 75 H -3.2426 2.5549 0.4594 0
M  V30 76 H -4.2111 3.2917 -1.7017 0
M  V30 77 H -3.8196 1.7291 -2.4653 0
M  V30 78 H -5.3132 -0.0715 -2.2229 0
M  V30 79 H -5.8098 3.3221 0.2839 0
M  V30 80 H -9.2041 2.9203 1.0152 0
M  V30 81 H -8.254 2.1313 2.3448 0
M  V30 82 H -7.689 3.6681 1.6073 0
M  V30 83 H -9.7066 0.6389 1.0457 0
M  V30 84 H -7.166 -3.0491 -3.0493 0
M  V30 85 H -6.5866 -1.4277 -3.5432 0
M  V30 86 H -5.769 -2.3276 -2.1916 0
M  V30 87 H -8.7411 -2.1681 0.1877 0
M  V30 88 H -8.1846 -3.4549 -0.9116 0
M  V30 89 H -6.9849 -2.5646 0.0949 0
M  V30 90 H -8.913 -0.3999 -3.1544 0
M  V30 91 H -9.861 -0.8721 -1.7011 0
M  V30 92 H -9.3948 -2.1182 -2.8895 0
M  V30 END ATOM
M  V30 BEGIN BOND
M  V30 1 2 1 2
M  V30 2 1 2 3
M  V30 3 1 2 4
M  V30 4 1 3 5
M  V30 5 1 4 6
M  V30 6 1 5 7
M  V30 7 1 6 8
M  V30 8 1 7 9
M  V30 9 2 8 10
M  V30 10 1 8 11
M  V30 11 1 9 12
M  V30 12 1 10 13
M  V30 13 2 11 14
M  V30 14 1 12 15
M  V30 15 2 13 16
M  V30 16 1 13 17
M  V30 17 1 14 18
M  V30 18 1 15 19
M  V30 19 1 16 20
M  V30 20 1 17 21
M  V30 21 1 17 22
M  V30 22 1 17 23
M  V30 23 1 19 24
M  V30 24 1 24 25
M  V30 25 1 25 26
M  V30 26 1 26 27
M  V30 27 2 27 28
M  V30 28 1 27 29
M  V30 29 1 29 30
M  V30 30 1 30 31
M  V30 31 2 31 32
M  V30 32 1 31 33
M  V30 33 1 32 34
M  V30 34 2 33 35
M  V30 35 2 34 36
M  V30 36 1 34 37
M  V30 37 1 35 38
M  V30 38 1 36 39
M  V30 39 1 37 40
M  V30 40 1 37 41
M  V30 41 1 37 42
M  V30 42 1 14 16
M  V30 43 1 35 36
M  V30 44 1 4 43
M  V30 45 1 4 44
M  V30 46 1 5 45
M  V30 47 1 5 46
M  V30 48 1 6 47
M  V30 49 1 6 48
M  V30 50 1 7 49
M  V30 51 1 7 50
M  V30 52 1 10 51
M  V30 53 1 11 52
M  V30 54 1 12 53
M  V30 55 1 12 54
M  V30 56 1 15 55
M  V30 57 1 15 56
M  V30 58 1 18 57
M  V30 59 1 18 58
M  V30 60 1 18 59
M  V30 61 1 20 60
M  V30 62 1 21 61
M  V30 63 1 21 62
M  V30 64 1 21 63
M  V30 65 1 22 64
M  V30 66 1 22 65
M  V30 67 1 22 66
M  V30 68 1 23 67
M  V30 69 1 23 68
M  V30 70 1 23 69
M  V30 71 1 24 70
M  V30 72 1 24 71
M  V30 73 1 25 72
M  V30 74 1 25 73
M  V30 75 1 29 74
M  V30 76 1 29 75
M  V30 77 1 30 76
M  V30 78 1 30 77
M  V30 79 1 32 78
M  V30 80 1 33 79
M  V30 81 1 38 80
M  V30 82 1 38 81
M  V30 83 1 38 82
M  V30 84 1 39 83
M  V30 85 1 40 84
M  V30 86 1 40 85
M  V30 87 1 40 86
M  V30 88 1 41 87
M  V30 89 1 41 88
M  V30 90 1 41 89
M  V30 91 1 42 90
M  V30 92 1 42 91
M  V30 93 1 42 92
M  V30 END BOND
M  V30 END CTAB
M  END
>  <Structure No>
1298

>  <LogS>
-5.768464941

>  <MMFF94 Energy>
93.026

$$$$
Compound 1299
Actelion Java MolfileCreator 2.0

  0  0  0  0  0  0              0 V3000
M  V30 BEGIN CTAB
M  V30 COUNTS 50 51 0 0 0
M  V30 BEGIN ATOM
M  V30 1 O -5.7913 -0.0791 1.0294 0
M  V30 2 C -4.971 0.0682 0.0827 0
M  V30 3 C -3.5303 -0.1784 0.3381 0
M  V30 4 C -5.4754 0.4969 -1.2458 0
M  V30 5 C -3.114 -1.2472 1.1574 0
M  V30 6 C -2.5623 0.6819 -0.2073 0
M  V30 7 C -6.6598 1.2507 -1.3398 0
M  V30 8 C -4.8064 0.1299 -2.4294 0
M  V30 9 O -4.0547 -2.1164 1.7112 0
M  V30 10 C -1.7482 -1.4485 1.4075 0
M  V30 11 C -1.2047 0.4735 0.0431 0
M  V30 12 C -7.1492 1.6484 -2.5879 0
M  V30 13 C -5.3003 0.5302 -3.6748 0
M  V30 14 C -0.7853 -0.5885 0.8484 0
M  V30 15 C -6.4688 1.291 -3.754 0
M  V30 16 O 0.5897 -0.7526 1.0685 0
M  V30 17 C 1.163 -1.7824 1.8717 0
M  V30 18 C 2.6855 -1.6496 1.8769 0
M  V30 19 C 3.14 -0.3586 2.5777 0
M  V30 20 C 4.6693 -0.1657 2.5063 0
M  V30 21 C 5.1107 0.8637 1.4516 0
M  V30 22 C 4.8155 0.4123 0.0145 0
M  V30 23 C 5.4169 1.3893 -1.0021 0
M  V30 24 C 5.1023 0.9598 -2.4321 0
M  V30 25 H -2.8578 1.5261 -0.8183 0
M  V30 26 H -7.2006 1.5418 -0.4478 0
M  V30 27 H -3.9113 -0.478 -2.3943 0
M  V30 28 H -3.7795 -2.8936 2.3004 0
M  V30 29 H -1.4483 -2.2771 2.0346 0
M  V30 30 H -0.473 1.1462 -0.3866 0
M  V30 31 H -8.0572 2.2344 -2.6506 0
M  V30 32 H -4.7792 0.2449 -4.5796 0
M  V30 33 H -6.8498 1.5991 -4.7191 0
M  V30 34 H 0.8925 -2.7744 1.4486 0
M  V30 35 H 0.7757 -1.7146 2.9123 0
M  V30 36 H 3.1166 -2.5244 2.4111 0
M  V30 37 H 3.0514 -1.6773 0.8294 0
M  V30 38 H 2.8392 -0.422 3.647 0
M  V30 39 H 2.6154 0.522 2.1461 0
M  V30 40 H 5.1913 -1.1327 2.3331 0
M  V30 41 H 5.0177 0.206 3.4951 0
M  V30 42 H 4.6119 1.8382 1.6496 0
M  V30 43 H 6.2064 1.0188 1.5643 0
M  V30 44 H 5.2435 -0.6008 -0.1516 0
M  V30 45 H 3.7157 0.3693 -0.1403 0
M  V30 46 H 6.5207 1.4321 -0.8743 0
M  V30 47 H 5.0029 2.4073 -0.8332 0
M  V30 48 H 4.0035 0.9344 -2.595 0
M  V30 49 H 5.5502 1.6842 -3.1444 0
M  V30 50 H 5.5268 -0.0461 -2.6353 0
M  V30 END ATOM
M  V30 BEGIN BOND
M  V30 1 2 1 2
M  V30 2 1 2 3
M  V30 3 1 2 4
M  V30 4 2 3 5
M  V30 5 1 3 6
M  V30 6 2 4 7
M  V30 7 1 4 8
M  V30 8 1 5 9
M  V30 9 1 5 10
M  V30 10 2 6 11
M  V30 11 1 7 12
M  V30 12 2 8 13
M  V30 13 2 10 14
M  V30 14 2 12 15
M  V30 15 1 14 16
M  V30 16 1 16 17
M  V30 17 1 17 18
M  V30 18 1 18 19
M  V30 19 1 19 20
M  V30 20 1 20 21
M  V30 21 1 21 22
M  V30 22 1 22 23
M  V30 23 1 23 24
M  V30 24 1 11 14
M  V30 25 1 13 15
M  V30 26 1 6 25
M  V30 27 1 7 26
M  V30 28 1 8 27
M  V30 29 1 9 28
M  V30 30 1 10 29
M  V30 31 1 11 30
M  V30 32 1 12 31
M  V30 33 1 13 32
M  V30 34 1 15 33
M  V30 35 1 17 34
M  V30 36 1 17 35
M  V30 37 1 18 36
M  V30 38 1 18 37
M  V30 39 1 19 38
M  V30 40 1 19 39
M  V30 41 1 20 40
M  V30 42 1 20 41
M  V30 43 1 21 42
M  V30 44 1 21 43
M  V30 45 1 22 44
M  V30 46 1 22 45
M  V30 47 1 23 46
M  V30 48 1 23 47
M  V30 49 1 24 48
M  V30 50 1 24 49
M  V30 51 1 24 50
M  V30 END BOND
M  V30 END CTAB
M  END
>  <Structure No>
1299

>  <LogS>
-5.513798048

>  <MMFF94 Energy>
64.442

$$$$
Compound 1300
Actelion Java MolfileCreator 2.0

  0  0  0  0  0  0              0 V3000
M  V30 BEGIN CTAB
M  V30 COUNTS 39 38 0 0 0
M  V30 BEGIN ATOM
M  V30 1 O -1.7058 -2.6372 1.6282 0
M  V30 2 C -0.9374 -1.47 1.7499 0
M  V30 3 C -0.5057 -0.9356 0.3645 0 CFG=2
M  V30 4 C 0.2387 0.4208 0.4753 0
M  V30 5 C -1.688 -0.8469 -0.6361 0
M  V30 6 C 1.5873 0.3689 1.2243 0
M  V30 7 C -2.8269 0.0937 -0.2026 0
M  V30 8 C 2.6345 -0.5978 0.6368 0
M  V30 9 C -3.9458 0.1137 -1.251 0
M  V30 10 C 2.9556 -0.3845 -0.8559 0
M  V30 11 C -5.0802 1.0441 -0.8305 0
M  V30 12 C 3.4762 1.02 -1.2089 0
M  V30 13 C 4.8044 1.3508 -0.5295 0
M  V30 14 H -1.082 -3.3607 1.3577 0
M  V30 15 H -0.0427 -1.6864 2.3745 0
M  V30 16 H -1.5339 -0.7043 2.2891 0
M  V30 17 H 0.1916 -1.6802 -0.0733 0
M  V30 18 H -0.4066 1.1503 1.0099 0
M  V30 19 H 0.4092 0.8378 -0.5399 0
M  V30 20 H -1.2956 -0.509 -1.6209 0
M  V30 21 H -2.1025 -1.8664 -0.7966 0
M  V30 22 H 1.4105 0.0973 2.2861 0
M  V30 23 H 2.0153 1.3937 1.2471 0
M  V30 24 H -3.2515 -0.2484 0.7647 0
M  V30 25 H -2.4378 1.1263 -0.078 0
M  V30 26 H 3.5696 -0.5067 1.229 0
M  V30 27 H 2.2928 -1.644 0.7826 0
M  V30 28 H -3.5399 0.4604 -2.2264 0
M  V30 29 H -4.3538 -0.9122 -1.384 0
M  V30 30 H 3.7171 -1.1349 -1.1608 0
M  V30 31 H 2.0501 -0.5948 -1.4635 0
M  V30 32 H -4.7046 2.0832 -0.7154 0
M  V30 33 H -5.8736 1.0375 -1.6074 0
M  V30 34 H -5.5217 0.7048 0.1308 0
M  V30 35 H 2.7227 1.7942 -0.9542 0
M  V30 36 H 3.6287 1.0649 -2.309 0
M  V30 37 H 5.551 0.5519 -0.7247 0
M  V30 38 H 5.1968 2.308 -0.9331 0
M  V30 39 H 4.6655 1.4703 0.565 0
M  V30 END ATOM
M  V30 BEGIN BOND
M  V30 1 1 1 2
M  V30 2 1 2 3
M  V30 3 1 3 4
M  V30 4 1 3 5
M  V30 5 1 4 6
M  V30 6 1 5 7
M  V30 7 1 6 8
M  V30 8 1 7 9
M  V30 9 1 8 10
M  V30 10 1 9 11
M  V30 11 1 10 12
M  V30 12 1 12 13
M  V30 13 1 1 14
M  V30 14 1 2 15
M  V30 15 1 2 16
M  V30 16 1 3 17
M  V30 17 1 4 18
M  V30 18 1 4 19
M  V30 19 1 5 20
M  V30 20 1 5 21
M  V30 21 1 6 22
M  V30 22 1 6 23
M  V30 23 1 7 24
M  V30 24 1 7 25
M  V30 25 1 8 26
M  V30 26 1 8 27
M  V30 27 1 9 28
M  V30 28 1 9 29
M  V30 29 1 10 30
M  V30 30 1 10 31
M  V30 31 1 11 32
M  V30 32 1 11 33
M  V30 33 1 11 34
M  V30 34 1 12 35
M  V30 35 1 12 36
M  V30 36 1 13 37
M  V30 37 1 13 38
M  V30 38 1 13 39
M  V30 END BOND
M  V30 BEGIN COLLECTION
M  V30 MDLV30/STEABS ATOMS=(1 3)
M  V30 END COLLECTION
M  V30 END CTAB
M  END
>  <Structure No>
1300

>  <LogS>
-5.270303761

>  <MMFF94 Energy>
5.4784

$$$$
Compound 1301
Actelion Java MolfileCreator 2.0

  0  0  0  0  0  0              0 V3000
M  V30 BEGIN CTAB
M  V30 COUNTS 75 74 0 0 0
M  V30 BEGIN ATOM
M  V30 1 O -1.7155 1.1694 -1.8716 0
M  V30 2 C -0.9697 0.0674 -2.3227 0
M  V30 3 C -0.6982 -0.9354 -1.1765 0 CFG=1
M  V30 4 C 0.1994 -0.314 -0.0771 0
M  V30 5 C -2.0129 -1.4649 -0.5465 0
M  V30 6 C 1.6581 -0.0735 -0.5374 0
M  V30 7 C -2.876 -2.3062 -1.5163 0
M  V30 8 C 2.1113 1.3861 -0.3482 0
M  V30 9 C -4.06 -1.5212 -2.1207 0
M  V30 10 C 2.3064 1.7845 1.1294 0
M  V30 11 C -5.3878 -1.7301 -1.3715 0
M  V30 12 C 3.6091 1.2538 1.7552 0
M  V30 13 C -5.3629 -1.1624 0.0582 0
M  V30 14 C 4.8407 2.0779 1.3352 0
M  V30 15 C -6.7071 -1.3352 0.7888 0
M  V30 16 C 6.1407 1.5648 1.9819 0
M  V30 17 C -7.8224 -0.3809 0.321 0
M  V30 18 C 6.7003 0.2901 1.3228 0
M  V30 19 C -7.5728 1.0775 0.7424 0
M  V30 20 C 7.4631 0.5856 0.0195 0
M  V30 21 C -8.762 1.9952 0.4159 0
M  V30 22 C 7.7986 -0.6882 -0.7749 0
M  V30 23 C -9.9229 1.829 1.3973 0
M  V30 24 C 8.7003 -1.693 -0.0361 0
M  V30 25 C 10.0891 -1.136 0.2684 0
M  V30 26 H -1.0678 1.885 -1.6425 0
M  V30 27 H -0.0168 0.4005 -2.7926 0
M  V30 28 H -1.5395 -0.4361 -3.1317 0
M  V30 29 H -0.154 -1.8084 -1.6017 0
M  V30 30 H -0.2732 0.6208 0.295 0
M  V30 31 H 0.2369 -1.0045 0.7955 0
M  V30 32 H -1.7482 -2.125 0.3098 0
M  V30 33 H -2.5913 -0.6181 -0.1187 0
M  V30 34 H 2.3356 -0.7577 0.0136 0
M  V30 35 H 1.7885 -0.339 -1.6084 0
M  V30 36 H -2.2438 -2.7019 -2.3401 0
M  V30 37 H -3.259 -3.2031 -0.9814 0
M  V30 38 H 1.3507 2.0572 -0.8011 0
M  V30 39 H 3.049 1.5493 -0.9156 0
M  V30 40 H -3.8377 -0.4358 -2.1895 0
M  V30 41 H -4.2114 -1.8769 -3.1635 0
M  V30 42 H 1.4482 1.4173 1.7315 0
M  V30 43 H 2.2902 2.8931 1.2083 0
M  V30 44 H -6.1831 -1.2238 -1.9579 0
M  V30 45 H -5.6327 -2.8152 -1.3424 0
M  V30 46 H 3.5019 1.3223 2.8618 0
M  V30 47 H 3.7463 0.1827 1.5066 0
M  V30 48 H -5.059 -0.0961 0.0416 0
M  V30 49 H -4.6009 -1.7167 0.6463 0
M  V30 50 H 4.9408 2.0984 0.2325 0
M  V30 51 H 4.6875 3.1274 1.6705 0
M  V30 52 H -6.5415 -1.1874 1.8784 0
M  V30 53 H -7.0567 -2.3838 0.6617 0
M  V30 54 H 6.9096 2.366 1.9372 0
M  V30 55 H 5.9547 1.3617 3.0604 0
M  V30 56 H -8.7683 -0.736 0.7796 0
M  V30 57 H -7.9553 -0.4412 -0.7787 0
M  V30 58 H 5.8882 -0.4413 1.1363 0
M  V30 59 H 7.4053 -0.1758 2.0435 0
M  V30 60 H -7.3429 1.131 1.8293 0
M  V30 61 H -6.6911 1.4676 0.1936 0
M  V30 62 H 8.3894 1.1533 0.2466 0
M  V30 63 H 6.844 1.2304 -0.6377 0
M  V30 64 H -9.1191 1.8109 -0.6212 0
M  V30 65 H -8.4174 3.0504 0.4692 0
M  V30 66 H 8.2909 -0.3952 -1.7266 0
M  V30 67 H 6.8501 -1.1994 -1.0472 0
M  V30 68 H -9.5742 1.9884 2.4407 0
M  V30 69 H -10.3755 0.8204 1.3087 0
M  V30 70 H -10.7079 2.5808 1.1704 0
M  V30 71 H 8.22 -2.0403 0.9025 0
M  V30 72 H 8.8209 -2.5877 -0.6848 0
M  V30 73 H 10.7256 -1.9424 0.6882 0
M  V30 74 H 10.0317 -0.3201 1.0171 0
M  V30 75 H 10.5652 -0.7558 -0.6581 0
M  V30 END ATOM
M  V30 BEGIN BOND
M  V30 1 1 1 2
M  V30 2 1 2 3
M  V30 3 1 3 4
M  V30 4 1 3 5
M  V30 5 1 4 6
M  V30 6 1 5 7
M  V30 7 1 6 8
M  V30 8 1 7 9
M  V30 9 1 8 10
M  V30 10 1 9 11
M  V30 11 1 10 12
M  V30 12 1 11 13
M  V30 13 1 12 14
M  V30 14 1 13 15
M  V30 15 1 14 16
M  V30 16 1 15 17
M  V30 17 1 16 18
M  V30 18 1 17 19
M  V30 19 1 18 20
M  V30 20 1 19 21
M  V30 21 1 20 22
M  V30 22 1 21 23
M  V30 23 1 22 24
M  V30 24 1 24 25
M  V30 25 1 1 26
M  V30 26 1 2 27
M  V30 27 1 2 28
M  V30 28 1 3 29
M  V30 29 1 4 30
M  V30 30 1 4 31
M  V30 31 1 5 32
M  V30 32 1 5 33
M  V30 33 1 6 34
M  V30 34 1 6 35
M  V30 35 1 7 36
M  V30 36 1 7 37
M  V30 37 1 8 38
M  V30 38 1 8 39
M  V30 39 1 9 40
M  V30 40 1 9 41
M  V30 41 1 10 42
M  V30 42 1 10 43
M  V30 43 1 11 44
M  V30 44 1 11 45
M  V30 45 1 12 46
M  V30 46 1 12 47
M  V30 47 1 13 48
M  V30 48 1 13 49
M  V30 49 1 14 50
M  V30 50 1 14 51
M  V30 51 1 15 52
M  V30 52 1 15 53
M  V30 53 1 16 54
M  V30 54 1 16 55
M  V30 55 1 17 56
M  V30 56 1 17 57
M  V30 57 1 18 58
M  V30 58 1 18 59
M  V30 59 1 19 60
M  V30 60 1 19 61
M  V30 61 1 20 62
M  V30 62 1 20 63
M  V30 63 1 21 64
M  V30 64 1 21 65
M  V30 65 1 22 66
M  V30 66 1 22 67
M  V30 67 1 23 68
M  V30 68 1 23 69
M  V30 69 1 23 70
M  V30 70 1 24 71
M  V30 71 1 24 72
M  V30 72 1 25 73
M  V30 73 1 25 74
M  V30 74 1 25 75
M  V30 END BOND
M  V30 BEGIN COLLECTION
M  V30 MDLV30/STEABS ATOMS=(1 3)
M  V30 END COLLECTION
M  V30 END CTAB
M  END
>  <Structure No>
1301

>  <LogS>
-5.549815883

>  <MMFF94 Energy>
6.9482

$$$$
Compound 1302
Actelion Java MolfileCreator 2.0

  0  0  0  0  0  0              0 V3000
M  V30 BEGIN CTAB
M  V30 COUNTS 87 86 0 0 0
M  V30 BEGIN ATOM
M  V30 1 O -0.2338 1.4819 -2.7313 0
M  V30 2 C -1.2625 0.8245 -2.0401 0
M  V30 3 C -0.7014 0.0576 -0.8229 0 CFG=1
M  V30 4 C -0.1119 1.0469 0.217 0
M  V30 5 C -1.7566 -0.9167 -0.2362 0
M  V30 6 C 0.5282 0.3907 1.4579 0
M  V30 7 C -2.9678 -0.2287 0.4181 0
M  V30 8 C 1.6677 -0.5995 1.1568 0
M  V30 9 C -3.9876 -1.2645 0.907 0
M  V30 10 C 2.8413 0.0485 0.4071 0
M  V30 11 C -5.1838 -0.5825 1.5821 0
M  V30 12 C 4.0268 -0.9221 0.2981 0
M  V30 13 C -6.2292 -1.6156 2.0267 0
M  V30 14 C 5.1574 -0.3803 -0.5913 0
M  V30 15 C -7.352 -1.0036 2.8844 0
M  V30 16 C 5.9542 0.7475 0.0869 0
M  V30 17 C -8.1739 0.0986 2.1915 0
M  V30 18 C 7.0593 1.3162 -0.8176 0
M  V30 19 C -8.909 -0.3993 0.9386 0
M  V30 20 C 8.2345 0.3448 -1.0052 0
M  V30 21 C -9.8397 0.6844 0.3806 0
M  V30 22 C 9.3828 1.0168 -1.7724 0
M  V30 23 C -10.5707 0.1885 -0.8758 0
M  V30 24 C 10.508 0.0357 -2.1471 0
M  V30 25 C -11.4123 1.2879 -1.5418 0
M  V30 26 C 11.2046 -0.646 -0.9522 0
M  V30 27 C -12.6444 1.669 -0.7214 0
M  V30 28 C 11.8173 0.3179 0.0787 0
M  V30 29 C 12.9059 1.2113 -0.5144 0
M  V30 30 H 0.2574 0.7859 -3.241 0
M  V30 31 H -1.9988 1.586 -1.7079 0
M  V30 32 H -1.7906 0.1275 -2.7305 0
M  V30 33 H 0.1295 -0.572 -1.208 0
M  V30 34 H 0.6495 1.6878 -0.2755 0
M  V30 35 H -0.9068 1.7422 0.5614 0
M  V30 36 H -2.1161 -1.5812 -1.0526 0
M  V30 37 H -1.2691 -1.5814 0.5082 0
M  V30 38 H -0.2538 -0.1307 2.0487 0
M  V30 39 H 0.9246 1.1981 2.1118 0
M  V30 40 H -2.6332 0.377 1.2865 0
M  V30 41 H -3.4639 0.4415 -0.3149 0
M  V30 42 H 2.0365 -0.9932 2.1295 0
M  V30 43 H 1.2818 -1.4678 0.5823 0
M  V30 44 H -3.4975 -1.9502 1.6329 0
M  V30 45 H -4.3467 -1.8638 0.0414 0
M  V30 46 H 3.1544 0.964 0.9513 0
M  V30 47 H 2.5144 0.333 -0.6156 0
M  V30 48 H -5.6457 0.1241 0.8601 0
M  V30 49 H -4.8283 -0.0091 2.4665 0
M  V30 50 H 3.6671 -1.8751 -0.1485 0
M  V30 51 H 4.4221 -1.154 1.3113 0
M  V30 52 H -6.6585 -2.1276 1.1397 0
M  V30 53 H -5.7267 -2.3954 2.6396 0
M  V30 54 H 5.8413 -1.2265 -0.8118 0
M  V30 55 H 4.7388 -0.0244 -1.5581 0
M  V30 56 H -6.9047 -0.5801 3.8099 0
M  V30 57 H -8.039 -1.8186 3.2012 0
M  V30 58 H 5.2674 1.5833 0.3362 0
M  V30 59 H 6.3975 0.3805 1.0384 0
M  V30 60 H -8.9242 0.4682 2.9248 0
M  V30 61 H -7.5223 0.9603 1.9338 0
M  V30 62 H 7.4391 2.2498 -0.347 0
M  V30 63 H 6.6315 1.5889 -1.8073 0
M  V30 64 H -9.5065 -1.3022 1.1935 0
M  V30 65 H -8.168 -0.6699 0.1564 0
M  V30 66 H 7.8961 -0.5474 -1.573 0
M  V30 67 H 8.5964 0.0192 -0.0067 0
M  V30 68 H -9.2404 1.5869 0.1283 0
M  V30 69 H -10.5826 0.9576 1.1603 0
M  V30 70 H 9.792 1.8643 -1.1828 0
M  V30 71 H 8.9811 1.4438 -2.7175 0
M  V30 72 H -9.8173 -0.1603 -1.6157 0
M  V30 73 H -11.2185 -0.6785 -0.6199 0
M  V30 74 H 11.2648 0.5754 -2.755 0
M  V30 75 H 10.0864 -0.7563 -2.8034 0
M  V30 76 H -10.7895 2.1914 -1.7206 0
M  V30 77 H -11.7551 0.9154 -2.5316 0
M  V30 78 H 12.0091 -1.3044 -1.3465 0
M  V30 79 H 10.4822 -1.3124 -0.4347 0
M  V30 80 H -13.2512 0.7681 -0.4894 0
M  V30 81 H -13.2712 2.3757 -1.305 0
M  V30 82 H -12.3487 2.17 0.2233 0
M  V30 83 H 12.2715 -0.2893 0.8914 0
M  V30 84 H 11.0291 0.9447 0.5461 0
M  V30 85 H 13.401 1.7804 0.3005 0
M  V30 86 H 13.6719 0.5973 -1.0339 0
M  V30 87 H 12.4686 1.9403 -1.2277 0
M  V30 END ATOM
M  V30 BEGIN BOND
M  V30 1 1 1 2
M  V30 2 1 2 3
M  V30 3 1 3 4
M  V30 4 1 3 5
M  V30 5 1 4 6
M  V30 6 1 5 7
M  V30 7 1 6 8
M  V30 8 1 7 9
M  V30 9 1 8 10
M  V30 10 1 9 11
M  V30 11 1 10 12
M  V30 12 1 11 13
M  V30 13 1 12 14
M  V30 14 1 13 15
M  V30 15 1 14 16
M  V30 16 1 15 17
M  V30 17 1 16 18
M  V30 18 1 17 19
M  V30 19 1 18 20
M  V30 20 1 19 21
M  V30 21 1 20 22
M  V30 22 1 21 23
M  V30 23 1 22 24
M  V30 24 1 23 25
M  V30 25 1 24 26
M  V30 26 1 25 27
M  V30 27 1 26 28
M  V30 28 1 28 29
M  V30 29 1 1 30
M  V30 30 1 2 31
M  V30 31 1 2 32
M  V30 32 1 3 33
M  V30 33 1 4 34
M  V30 34 1 4 35
M  V30 35 1 5 36
M  V30 36 1 5 37
M  V30 37 1 6 38
M  V30 38 1 6 39
M  V30 39 1 7 40
M  V30 40 1 7 41
M  V30 41 1 8 42
M  V30 42 1 8 43
M  V30 43 1 9 44
M  V30 44 1 9 45
M  V30 45 1 10 46
M  V30 46 1 10 47
M  V30 47 1 11 48
M  V30 48 1 11 49
M  V30 49 1 12 50
M  V30 50 1 12 51
M  V30 51 1 13 52
M  V30 52 1 13 53
M  V30 53 1 14 54
M  V30 54 1 14 55
M  V30 55 1 15 56
M  V30 56 1 15 57
M  V30 57 1 16 58
M  V30 58 1 16 59
M  V30 59 1 17 60
M  V30 60 1 17 61
M  V30 61 1 18 62
M  V30 62 1 18 63
M  V30 63 1 19 64
M  V30 64 1 19 65
M  V30 65 1 20 66
M  V30 66 1 20 67
M  V30 67 1 21 68
M  V30 68 1 21 69
M  V30 69 1 22 70
M  V30 70 1 22 71
M  V30 71 1 23 72
M  V30 72 1 23 73
M  V30 73 1 24 74
M  V30 74 1 24 75
M  V30 75 1 25 76
M  V30 76 1 25 77
M  V30 77 1 26 78
M  V30 78 1 26 79
M  V30 79 1 27 80
M  V30 80 1 27 81
M  V30 81 1 27 82
M  V30 82 1 28 83
M  V30 83 1 28 84
M  V30 84 1 29 85
M  V30 85 1 29 86
M  V30 86 1 29 87
M  V30 END BOND
M  V30 BEGIN COLLECTION
M  V30 MDLV30/STEABS ATOMS=(1 3)
M  V30 END COLLECTION
M  V30 END CTAB
M  END
>  <Structure No>
1302

>  <LogS>
-5.613599775

>  <MMFF94 Energy>
4.4675

$$$$
Compound 1303
Actelion Java MolfileCreator 2.0

  0  0  0  0  0  0              0 V3000
M  V30 BEGIN CTAB
M  V30 COUNTS 55 54 0 0 0
M  V30 BEGIN ATOM
M  V30 1 O -1.635 0.5447 0.934 0
M  V30 2 C -0.3381 0.7672 1.4444 0
M  V30 3 C -1.8101 1.2581 -0.275 0
M  V30 4 O 0.5801 -0.0604 0.7593 0
M  V30 5 C -3.0886 0.7952 -1.0038 0 CFG=2
M  V30 6 C 1.9001 0.2727 1.1369 0
M  V30 7 C -4.3186 0.8396 -0.0636 0
M  V30 8 C -2.8906 -0.5595 -1.7345 0
M  V30 9 C 2.8869 -0.6966 0.4575 0 CFG=2
M  V30 10 C -5.6449 0.5882 -0.8033 0
M  V30 11 C -2.7402 -1.777 -0.8199 0
M  V30 12 C 4.3081 -0.5857 1.0716 0
M  V30 13 C 2.8534 -0.5205 -1.0815 0
M  V30 14 C -6.8725 0.8965 0.0666 0
M  V30 15 C 5.0333 0.7416 0.772 0
M  V30 16 C 3.7178 -1.5416 -1.8218 0
M  V30 17 C -7.0512 -0.1047 1.2079 0
M  V30 18 C 6.3785 0.8527 1.5072 0
M  V30 19 C 7.4395 -0.0949 0.9455 0
M  V30 20 H -0.0601 1.8495 1.3887 0
M  V30 21 H -0.3523 0.4871 2.521 0
M  V30 22 H -0.9402 1.1337 -0.9622 0
M  V30 23 H -1.9114 2.3434 -0.047 0
M  V30 24 H -3.2665 1.5489 -1.8042 0
M  V30 25 H 2.0168 0.1894 2.2426 0
M  V30 26 H 2.134 1.3155 0.8242 0
M  V30 27 H -4.1992 0.1021 0.7561 0
M  V30 28 H -4.3621 1.8479 0.4048 0
M  V30 29 H -1.9887 -0.4945 -2.3822 0
M  V30 30 H -3.7468 -0.7371 -2.4195 0
M  V30 31 H 2.5271 -1.7262 0.6827 0
M  V30 32 H -5.6882 1.2407 -1.7022 0
M  V30 33 H -5.6981 -0.4667 -1.1494 0
M  V30 34 H -1.8463 -1.6817 -0.1717 0
M  V30 35 H -3.647 -1.924 -0.1983 0
M  V30 36 H -2.6064 -2.6834 -1.446 0
M  V30 37 H 4.9201 -1.435 0.7034 0
M  V30 38 H 4.2309 -0.7154 2.1737 0
M  V30 39 H 3.1662 0.5064 -1.3674 0
M  V30 40 H 1.8079 -0.6504 -1.4374 0
M  V30 41 H -6.8011 1.9253 0.4813 0
M  V30 42 H -7.7776 0.8557 -0.577 0
M  V30 43 H 4.4009 1.5917 1.1033 0
M  V30 44 H 5.2066 0.8519 -0.3195 0
M  V30 45 H 4.7956 -1.3488 -1.6442 0
M  V30 46 H 3.466 -2.5726 -1.4962 0
M  V30 47 H 3.5316 -1.4602 -2.9125 0
M  V30 48 H -7.0699 -1.1434 0.8137 0
M  V30 49 H -8.0134 0.0939 1.7262 0
M  V30 50 H -6.2314 -0.0057 1.9498 0
M  V30 51 H 6.2417 0.6569 2.5938 0
M  V30 52 H 6.7506 1.8953 1.3992 0
M  V30 53 H 7.184 -1.1504 1.172 0
M  V30 54 H 8.4198 0.1297 1.4158 0
M  V30 55 H 7.5366 0.0355 -0.1539 0
M  V30 END ATOM
M  V30 BEGIN BOND
M  V30 1 1 1 2
M  V30 2 1 1 3
M  V30 3 1 2 4
M  V30 4 1 3 5
M  V30 5 1 4 6
M  V30 6 1 5 7
M  V30 7 1 5 8
M  V30 8 1 6 9
M  V30 9 1 7 10
M  V30 10 1 8 11
M  V30 11 1 9 12
M  V30 12 1 9 13
M  V30 13 1 10 14
M  V30 14 1 12 15
M  V30 15 1 13 16
M  V30 16 1 14 17
M  V30 17 1 15 18
M  V30 18 1 18 19
M  V30 19 1 2 20
M  V30 20 1 2 21
M  V30 21 1 3 22
M  V30 22 1 3 23
M  V30 23 1 5 24
M  V30 24 1 6 25
M  V30 25 1 6 26
M  V30 26 1 7 27
M  V30 27 1 7 28
M  V30 28 1 8 29
M  V30 29 1 8 30
M  V30 30 1 9 31
M  V30 31 1 10 32
M  V30 32 1 10 33
M  V30 33 1 11 34
M  V30 34 1 11 35
M  V30 35 1 11 36
M  V30 36 1 12 37
M  V30 37 1 12 38
M  V30 38 1 13 39
M  V30 39 1 13 40
M  V30 40 1 14 41
M  V30 41 1 14 42
M  V30 42 1 15 43
M  V30 43 1 15 44
M  V30 44 1 16 45
M  V30 45 1 16 46
M  V30 46 1 16 47
M  V30 47 1 17 48
M  V30 48 1 17 49
M  V30 49 1 17 50
M  V30 50 1 18 51
M  V30 51 1 18 52
M  V30 52 1 19 53
M  V30 53 1 19 54
M  V30 54 1 19 55
M  V30 END BOND
M  V30 BEGIN COLLECTION
M  V30 MDLV30/STEABS ATOMS=(2 5 9)
M  V30 END COLLECTION
M  V30 END CTAB
M  END
>  <Structure No>
1303

>  <LogS>
-5.435323474

>  <MMFF94 Energy>
0.55361

$$$$
Compound 1304
Actelion Java MolfileCreator 2.0

  0  0  0  0  0  0              0 V3000
M  V30 BEGIN CTAB
M  V30 COUNTS 51 50 0 0 0
M  V30 BEGIN ATOM
M  V30 1 O -1.3994 -1.2438 -3.5793 0
M  V30 2 C -1.4183 0.055 -3.0483 0
M  V30 3 C -1.638 0.0262 -1.5188 0 CFG=1
M  V30 4 C -0.5974 -0.8616 -0.7796 0
M  V30 5 C -1.7167 1.4707 -0.9643 0
M  V30 6 C 0.8729 -0.3878 -0.8754 0
M  V30 7 C -2.2603 1.5793 0.4749 0
M  V30 8 C 1.3752 0.2286 0.4413 0
M  V30 9 C -3.7509 1.1956 0.6036 0
M  V30 10 C 2.7954 0.8047 0.3243 0
M  V30 11 C -3.942 -0.1589 1.3077 0
M  V30 12 C 3.869 -0.2849 0.1827 0
M  V30 13 C -5.4026 -0.6346 1.2881 0
M  V30 14 C 5.2777 0.3256 0.2287 0
M  V30 15 C -6.3137 0.2142 2.1743 0
M  V30 16 C 6.3794 -0.7092 -0.0463 0
M  V30 17 C 6.5477 -1.7113 1.0953 0
M  V30 18 H -0.4482 -1.525 -3.6189 0
M  V30 19 H -0.4958 0.6147 -3.3218 0
M  V30 20 H -2.2643 0.5986 -3.5211 0
M  V30 21 H -2.6312 -0.4488 -1.3718 0
M  V30 22 H -0.6616 -1.8894 -1.1982 0
M  V30 23 H -0.8973 -0.9832 0.2824 0
M  V30 24 H -2.3714 2.0847 -1.6218 0
M  V30 25 H -0.7126 1.9426 -1.007 0
M  V30 26 H 1.0148 0.3398 -1.6989 0
M  V30 27 H 1.501 -1.2722 -1.1145 0
M  V30 28 H -1.6323 0.9995 1.1822 0
M  V30 29 H -2.1517 2.6426 0.7823 0
M  V30 30 H 0.701 1.0584 0.7365 0
M  V30 31 H 1.3439 -0.5326 1.2514 0
M  V30 32 H -4.2428 1.1796 -0.3935 0
M  V30 33 H -4.2606 1.9794 1.2042 0
M  V30 34 H 2.8478 1.5033 -0.5393 0
M  V30 35 H 3.002 1.3934 1.2453 0
M  V30 36 H -3.3277 -0.931 0.8003 0
M  V30 37 H -3.5841 -0.0891 2.3585 0
M  V30 38 H 3.7533 -1.0167 1.0103 0
M  V30 39 H 3.7373 -0.8141 -0.7846 0
M  V30 40 H -5.4352 -1.6823 1.6582 0
M  V30 41 H -5.7906 -0.6348 0.2463 0
M  V30 42 H 5.3507 1.1184 -0.5479 0
M  V30 43 H 5.4513 0.8052 1.217 0
M  V30 44 H -5.9097 0.2697 3.2075 0
M  V30 45 H -6.419 1.2391 1.7618 0
M  V30 46 H -7.323 -0.2467 2.2141 0
M  V30 47 H 7.3419 -0.1694 -0.1799 0
M  V30 48 H 6.1663 -1.2536 -0.9918 0
M  V30 49 H 6.7084 -1.1811 2.0581 0
M  V30 50 H 5.6565 -2.367 1.1777 0
M  V30 51 H 7.431 -2.3535 0.8946 0
M  V30 END ATOM
M  V30 BEGIN BOND
M  V30 1 1 1 2
M  V30 2 1 2 3
M  V30 3 1 3 4
M  V30 4 1 3 5
M  V30 5 1 4 6
M  V30 6 1 5 7
M  V30 7 1 6 8
M  V30 8 1 7 9
M  V30 9 1 8 10
M  V30 10 1 9 11
M  V30 11 1 10 12
M  V30 12 1 11 13
M  V30 13 1 12 14
M  V30 14 1 13 15
M  V30 15 1 14 16
M  V30 16 1 16 17
M  V30 17 1 1 18
M  V30 18 1 2 19
M  V30 19 1 2 20
M  V30 20 1 3 21
M  V30 21 1 4 22
M  V30 22 1 4 23
M  V30 23 1 5 24
M  V30 24 1 5 25
M  V30 25 1 6 26
M  V30 26 1 6 27
M  V30 27 1 7 28
M  V30 28 1 7 29
M  V30 29 1 8 30
M  V30 30 1 8 31
M  V30 31 1 9 32
M  V30 32 1 9 33
M  V30 33 1 10 34
M  V30 34 1 10 35
M  V30 35 1 11 36
M  V30 36 1 11 37
M  V30 37 1 12 38
M  V30 38 1 12 39
M  V30 39 1 13 40
M  V30 40 1 13 41
M  V30 41 1 14 42
M  V30 42 1 14 43
M  V30 43 1 15 44
M  V30 44 1 15 45
M  V30 45 1 15 46
M  V30 46 1 16 47
M  V30 47 1 16 48
M  V30 48 1 17 49
M  V30 49 1 17 50
M  V30 50 1 17 51
M  V30 END BOND
M  V30 BEGIN COLLECTION
M  V30 MDLV30/STEABS ATOMS=(1 3)
M  V30 END COLLECTION
M  V30 END CTAB
M  END
>  <Structure No>
1304

>  <LogS>
-5.384616815

>  <MMFF94 Energy>
3.2026

$$$$
Compound 1305
Actelion Java MolfileCreator 2.0

  0  0  0  0  0  0              0 V3000
M  V30 BEGIN CTAB
M  V30 COUNTS 40 42 0 0 0
M  V30 BEGIN ATOM
M  V30 1 Cl 7.0367 -2.988 -1.1298 0
M  V30 2 C 5.8198 -1.9249 -0.4486 0
M  V30 3 C 4.4988 -1.9661 -0.9406 0
M  V30 4 C 6.169 -1.0276 0.5916 0
M  V30 5 C 3.5751 -1.1014 -0.3625 0
M  V30 6 C 5.2021 -0.1661 1.1474 0
M  V30 7 N 2.2759 -0.9392 -0.6522 0
M  V30 8 C 3.911 -0.2412 0.6353 0
M  V30 9 N 1.8554 0.0047 0.1895 0
M  V30 10 N 2.8248 0.4662 0.9789 0
M  V30 11 C 0.5249 0.5453 0.1792 0
M  V30 12 C -0.6138 -0.2893 0.0769 0
M  V30 13 C 0.3651 1.9318 0.2459 0
M  V30 14 O -0.4654 -1.6764 0.1338 0
M  V30 15 C -1.9168 0.2774 -0.0423 0
M  V30 16 C -0.9004 2.5079 0.1527 0
M  V30 17 C -2.0263 1.6894 0.0165 0
M  V30 18 C -3.1763 -0.6215 -0.1948 0
M  V30 19 C -1.0592 3.9979 0.2537 0
M  V30 20 C -4.4846 0.1919 -0.377 0
M  V30 21 C -3.0397 -1.5245 -1.4434 0
M  V30 22 C -3.3611 -1.4935 1.0676 0
M  V30 23 H 4.212 -2.6415 -1.7364 0
M  V30 24 H 7.1848 -0.9994 0.9641 0
M  V30 25 H 5.4545 0.5261 1.9399 0
M  V30 26 H 1.2377 2.5667 0.344 0
M  V30 27 H 0.3953 -2.1367 0.3965 0
M  V30 28 H -2.9832 2.1854 -0.0365 0
M  V30 29 H -0.1392 4.5193 -0.0861 0
M  V30 30 H -1.9016 4.3448 -0.3818 0
M  V30 31 H -1.2631 4.2763 1.3087 0
M  V30 32 H -5.357 -0.4833 -0.5162 0
M  V30 33 H -4.4244 0.8441 -1.2752 0
M  V30 34 H -4.698 0.8126 0.5202 0
M  V30 35 H -2.2399 -2.2819 -1.3363 0
M  V30 36 H -3.9804 -2.087 -1.6296 0
M  V30 37 H -2.8206 -0.9079 -2.3419 0
M  V30 38 H -3.3939 -0.8536 1.9759 0
M  V30 39 H -2.5474 -2.2334 1.1933 0
M  V30 40 H -4.3109 -2.0686 1.0132 0
M  V30 END ATOM
M  V30 BEGIN BOND
M  V30 1 1 1 2
M  V30 2 2 2 3
M  V30 3 1 2 4
M  V30 4 1 3 5
M  V30 5 2 4 6
M  V30 6 2 5 7
M  V30 7 1 5 8
M  V30 8 1 7 9
M  V30 9 2 8 10
M  V30 10 1 9 11
M  V30 11 2 11 12
M  V30 12 1 11 13
M  V30 13 1 12 14
M  V30 14 1 12 15
M  V30 15 2 13 16
M  V30 16 2 15 17
M  V30 17 1 15 18
M  V30 18 1 16 19
M  V30 19 1 18 20
M  V30 20 1 18 21
M  V30 21 1 18 22
M  V30 22 1 6 8
M  V30 23 1 9 10
M  V30 24 1 16 17
M  V30 25 1 3 23
M  V30 26 1 4 24
M  V30 27 1 6 25
M  V30 28 1 13 26
M  V30 29 1 14 27
M  V30 30 1 17 28
M  V30 31 1 19 29
M  V30 32 1 19 30
M  V30 33 1 19 31
M  V30 34 1 20 32
M  V30 35 1 20 33
M  V30 36 1 20 34
M  V30 37 1 21 35
M  V30 38 1 21 36
M  V30 39 1 21 37
M  V30 40 1 22 38
M  V30 41 1 22 39
M  V30 42 1 22 40
M  V30 END BOND
M  V30 END CTAB
M  END
>  <Structure No>
1305

>  <LogS>
-5.499417627

>  <MMFF94 Energy>
65.256

$$$$
Compound 1306
Actelion Java MolfileCreator 2.0

  0  0  0  0  0  0              0 V3000
M  V30 BEGIN CTAB
M  V30 COUNTS 63 64 0 0 0
M  V30 BEGIN ATOM
M  V30 1 O 2.451 1.5808 -2.451 0
M  V30 2 C 2.2978 0.932 -1.2222 0
M  V30 3 C 3.4163 0.2599 -0.6464 0
M  V30 4 C 1.0471 0.9642 -0.5498 0
M  V30 5 C 3.2573 -0.2923 0.6472 0
M  V30 6 C 4.7744 0.1622 -1.3988 0
M  V30 7 C 0.9601 0.4408 0.751 0
M  V30 8 C -0.1699 1.6124 -1.1975 0
M  V30 9 C 2.0468 -0.2019 1.34 0
M  V30 10 C 5.8369 -0.6678 -0.6309 0
M  V30 11 C 4.5775 -0.5319 -2.7677 0
M  V30 12 C 5.3706 1.5735 -1.6043 0
M  V30 13 C -1.4956 1.1144 -0.6551 0
M  V30 14 C 1.9292 -0.7504 2.7392 0
M  V30 15 C -1.9609 -0.2017 -0.9072 0
M  V30 16 C -2.2488 1.9722 0.1542 0
M  V30 17 C 2.305 0.3112 3.7679 0
M  V30 18 O -1.207 -1.0701 -1.7018 0
M  V30 19 C -3.1912 -0.6534 -0.3454 0
M  V30 20 C -3.462 1.5562 0.6998 0
M  V30 21 C -3.9195 0.2563 0.4606 0
M  V30 22 C -3.7061 -2.1002 -0.5913 0
M  V30 23 C -4.2388 2.4798 1.6024 0
M  V30 24 C -5.0606 -2.3906 0.1074 0
M  V30 25 C -3.9258 -2.3385 -2.1033 0
M  V30 26 C -2.6899 -3.126 -0.0376 0
M  V30 27 C -3.8142 2.2954 3.0557 0
M  V30 28 H 1.7684 2.2095 -2.8525 0
M  V30 29 H 4.0693 -0.7907 1.1535 0
M  V30 30 H 0.0404 0.5211 1.3171 0
M  V30 31 H -0.0803 2.7135 -1.0733 0
M  V30 32 H -0.1824 1.4227 -2.2902 0
M  V30 33 H 6.0944 -0.1889 0.3386 0
M  V30 34 H 5.477 -1.7038 -0.4507 0
M  V30 35 H 6.7809 -0.7425 -1.2135 0
M  V30 36 H 3.9835 0.0781 -3.4746 0
M  V30 37 H 4.0657 -1.5095 -2.6329 0
M  V30 38 H 5.556 -0.7179 -3.2617 0
M  V30 39 H 6.3862 1.5102 -2.0532 0
M  V30 40 H 5.454 2.1019 -0.6293 0
M  V30 41 H 4.7599 2.1964 -2.286 0
M  V30 42 H 2.5933 -1.6334 2.8642 0
M  V30 43 H 0.8887 -1.0941 2.9312 0
M  V30 44 H -1.8851 2.9701 0.3706 0
M  V30 45 H 1.6284 1.1882 3.6815 0
M  V30 46 H 2.21 -0.111 4.7905 0
M  V30 47 H 3.3548 0.642 3.6143 0
M  V30 48 H -0.319 -0.8315 -2.1214 0
M  V30 49 H -4.8516 -0.0221 0.927 0
M  V30 50 H -4.0735 3.5384 1.3041 0
M  V30 51 H -5.3287 2.2797 1.5104 0
M  V30 52 H -5.3985 -3.4304 -0.0959 0
M  V30 53 H -5.8557 -1.709 -0.2661 0
M  V30 54 H -4.97 -2.2879 1.2108 0
M  V30 55 H -2.9794 -2.3335 -2.6773 0
M  V30 56 H -4.3978 -3.3292 -2.2823 0
M  V30 57 H -4.5938 -1.5552 -2.5229 0
M  V30 58 H -2.4685 -2.91 1.0302 0
M  V30 59 H -3.0944 -4.1595 -0.1068 0
M  V30 60 H -1.7348 -3.123 -0.5978 0
M  V30 61 H -4.3954 2.9855 3.7036 0
M  V30 62 H -4.0075 1.2514 3.3838 0
M  V30 63 H -2.7327 2.5225 3.1727 0
M  V30 END ATOM
M  V30 BEGIN BOND
M  V30 1 1 1 2
M  V30 2 2 2 3
M  V30 3 1 2 4
M  V30 4 1 3 5
M  V30 5 1 3 6
M  V30 6 2 4 7
M  V30 7 1 4 8
M  V30 8 2 5 9
M  V30 9 1 6 10
M  V30 10 1 6 11
M  V30 11 1 6 12
M  V30 12 1 8 13
M  V30 13 1 9 14
M  V30 14 2 13 15
M  V30 15 1 13 16
M  V30 16 1 14 17
M  V30 17 1 15 18
M  V30 18 1 15 19
M  V30 19 2 16 20
M  V30 20 2 19 21
M  V30 21 1 19 22
M  V30 22 1 20 23
M  V30 23 1 22 24
M  V30 24 1 22 25
M  V30 25 1 22 26
M  V30 26 1 23 27
M  V30 27 1 7 9
M  V30 28 1 20 21
M  V30 29 1 1 28
M  V30 30 1 5 29
M  V30 31 1 7 30
M  V30 32 1 8 31
M  V30 33 1 8 32
M  V30 34 1 10 33
M  V30 35 1 10 34
M  V30 36 1 10 35
M  V30 37 1 11 36
M  V30 38 1 11 37
M  V30 39 1 11 38
M  V30 40 1 12 39
M  V30 41 1 12 40
M  V30 42 1 12 41
M  V30 43 1 14 42
M  V30 44 1 14 43
M  V30 45 1 16 44
M  V30 46 1 17 45
M  V30 47 1 17 46
M  V30 48 1 17 47
M  V30 49 1 18 48
M  V30 50 1 21 49
M  V30 51 1 23 50
M  V30 52 1 23 51
M  V30 53 1 24 52
M  V30 54 1 24 53
M  V30 55 1 24 54
M  V30 56 1 25 55
M  V30 57 1 25 56
M  V30 58 1 25 57
M  V30 59 1 26 58
M  V30 60 1 26 59
M  V30 61 1 26 60
M  V30 62 1 27 61
M  V30 63 1 27 62
M  V30 64 1 27 63
M  V30 END BOND
M  V30 END CTAB
M  END
>  <Structure No>
1306

>  <LogS>
-5.566509378

>  <MMFF94 Energy>
79.302

$$$$
Compound 1307
Actelion Java MolfileCreator 2.0

  0  0  0  0  0  0              0 V3000
M  V30 BEGIN CTAB
M  V30 COUNTS 99 98 0 0 0
M  V30 BEGIN ATOM
M  V30 1 O 1.3272 1.4835 0.156 0
M  V30 2 C 0.9887 0.1273 0.2629 0
M  V30 3 C 0.8829 -0.5318 -1.1323 0 CFG=2
M  V30 4 C 0.5064 -2.0387 -1.0234 0
M  V30 5 C 2.1726 -0.3257 -1.9687 0
M  V30 6 C -0.989 -2.3262 -1.246 0
M  V30 7 C 3.4426 -0.9062 -1.315 0
M  V30 8 C -1.8849 -1.7778 -0.1237 0
M  V30 9 C 4.6338 -0.9682 -2.2868 0
M  V30 10 C -3.3024 -2.3748 -0.1525 0
M  V30 11 C 5.1036 0.3981 -2.8229 0
M  V30 12 C -4.1047 -2.0686 -1.4331 0
M  V30 13 C 5.5037 1.4258 -1.7447 0
M  V30 14 C -4.305 -0.5704 -1.7372 0
M  V30 15 C 6.5714 0.9377 -0.7492 0
M  V30 16 C -4.9554 0.2429 -0.603 0
M  V30 17 C 7.894 0.5498 -1.4336 0
M  V30 18 C -6.3606 -0.2572 -0.2358 0
M  V30 19 C 9.0244 0.2839 -0.4262 0
M  V30 20 C -7.022 0.6708 0.7937 0
M  V30 21 C 8.7765 -0.9779 0.421 0
M  V30 22 C -8.3317 0.0945 1.3612 0
M  V30 23 C 10.0027 -1.3829 1.2712 0
M  V30 24 C -9.4552 -0.1009 0.324 0
M  V30 25 C 9.8738 -1.0181 2.7621 0
M  V30 26 C -9.8821 1.1761 -0.4255 0
M  V30 27 C 10.0516 0.4788 3.0747 0
M  V30 28 C -10.318 2.3499 0.4747 0
M  V30 29 C 11.5086 0.9717 2.9285 0
M  V30 30 C -11.483 2.0372 1.4308 0
M  V30 31 C 11.72 1.8326 1.6844 0
M  V30 32 C -12.7909 1.7215 0.6903 0
M  V30 33 C -13.9487 1.5507 1.669 0
M  V30 34 H 0.5134 1.9553 -0.1615 0
M  V30 35 H 1.7618 -0.3859 0.8719 0
M  V30 36 H 0.0324 0.0271 0.8198 0
M  V30 37 H 0.0738 -0.0042 -1.6863 0
M  V30 38 H 0.8283 -2.459 -0.0446 0
M  V30 39 H 1.0497 -2.6208 -1.7993 0
M  V30 40 H 2.3173 0.762 -2.1407 0
M  V30 41 H 2.024 -0.7892 -2.9683 0
M  V30 42 H -1.3036 -1.9027 -2.2244 0
M  V30 43 H -1.1161 -3.4289 -1.3027 0
M  V30 44 H 3.7202 -0.3121 -0.4201 0
M  V30 45 H 3.2443 -1.9415 -0.9673 0
M  V30 46 H -1.4345 -2.0319 0.8604 0
M  V30 47 H -1.9431 -0.6721 -0.1901 0
M  V30 48 H 5.4814 -1.4812 -1.7835 0
M  V30 49 H 4.3556 -1.6068 -3.1536 0
M  V30 50 H -3.8628 -2.0116 0.7347 0
M  V30 51 H -3.2285 -3.478 -0.0413 0
M  V30 52 H 4.301 0.8387 -3.4514 0
M  V30 53 H 5.9646 0.231 -3.504 0
M  V30 54 H -3.6008 -2.5424 -2.3027 0
M  V30 55 H -5.097 -2.5614 -1.3538 0
M  V30 56 H 4.5999 1.7369 -1.1778 0
M  V30 57 H 5.882 2.3378 -2.2556 0
M  V30 58 H -4.9373 -0.4816 -2.648 0
M  V30 59 H -3.3254 -0.1125 -1.991 0
M  V30 60 H 6.7653 1.7618 -0.0293 0
M  V30 61 H 6.1722 0.083 -0.1661 0
M  V30 62 H -4.3015 0.2367 0.2951 0
M  V30 63 H -5.0306 1.2992 -0.9438 0
M  V30 64 H 7.7498 -0.3541 -2.0627 0
M  V30 65 H 8.2126 1.381 -2.1003 0
M  V30 66 H -6.2914 -1.279 0.1934 0
M  V30 67 H -6.9823 -0.295 -1.1557 0
M  V30 68 H 9.1465 1.1713 0.2259 0
M  V30 69 H 9.9673 0.1542 -1.0011 0
M  V30 70 H -7.201 1.6703 0.3452 0
M  V30 71 H -6.3238 0.8181 1.6462 0
M  V30 72 H 7.8872 -0.8339 1.0712 0
M  V30 73 H 8.5414 -1.8178 -0.2697 0
M  V30 74 H -8.6911 0.7581 2.1763 0
M  V30 75 H -8.1152 -0.8883 1.8337 0
M  V30 76 H 10.0933 -2.4906 1.2218 0
M  V30 77 H 10.9503 -0.9901 0.8486 0
M  V30 78 H -10.3391 -0.5376 0.8351 0
M  V30 79 H -9.1365 -0.859 -0.4217 0
M  V30 80 H 10.6295 -1.597 3.3384 0
M  V30 81 H 8.8795 -1.3487 3.1358 0
M  V30 82 H -10.7092 0.9186 -1.1186 0
M  V30 83 H -9.0463 1.5165 -1.072 0
M  V30 84 H 9.3432 1.0906 2.4798 0
M  V30 85 H 9.7508 0.6238 4.1354 0
M  V30 86 H -10.6091 3.2023 -0.1767 0
M  V30 87 H -9.4491 2.6985 1.0711 0
M  V30 88 H 11.7686 1.5906 3.8149 0
M  V30 89 H 12.2232 0.1195 2.9087 0
M  V30 90 H -11.641 2.9309 2.0739 0
M  V30 91 H -11.2153 1.1968 2.1055 0
M  V30 92 H 12.7646 2.2096 1.6703 0
M  V30 93 H 11.0309 2.7042 1.6926 0
M  V30 94 H 11.5574 1.2422 0.7627 0
M  V30 95 H -12.6833 0.7816 0.1097 0
M  V30 96 H -13.0341 2.5489 -0.0127 0
M  V30 97 H -14.8769 1.3063 1.1092 0
M  V30 98 H -14.1174 2.4905 2.2382 0
M  V30 99 H -13.7323 0.7246 2.3802 0
M  V30 END ATOM
M  V30 BEGIN BOND
M  V30 1 1 1 2
M  V30 2 1 2 3
M  V30 3 1 3 4
M  V30 4 1 3 5
M  V30 5 1 4 6
M  V30 6 1 5 7
M  V30 7 1 6 8
M  V30 8 1 7 9
M  V30 9 1 8 10
M  V30 10 1 9 11
M  V30 11 1 10 12
M  V30 12 1 11 13
M  V30 13 1 12 14
M  V30 14 1 13 15
M  V30 15 1 14 16
M  V30 16 1 15 17
M  V30 17 1 16 18
M  V30 18 1 17 19
M  V30 19 1 18 20
M  V30 20 1 19 21
M  V30 21 1 20 22
M  V30 22 1 21 23
M  V30 23 1 22 24
M  V30 24 1 23 25
M  V30 25 1 24 26
M  V30 26 1 25 27
M  V30 27 1 26 28
M  V30 28 1 27 29
M  V30 29 1 28 30
M  V30 30 1 29 31
M  V30 31 1 30 32
M  V30 32 1 32 33
M  V30 33 1 1 34
M  V30 34 1 2 35
M  V30 35 1 2 36
M  V30 36 1 3 37
M  V30 37 1 4 38
M  V30 38 1 4 39
M  V30 39 1 5 40
M  V30 40 1 5 41
M  V30 41 1 6 42
M  V30 42 1 6 43
M  V30 43 1 7 44
M  V30 44 1 7 45
M  V30 45 1 8 46
M  V30 46 1 8 47
M  V30 47 1 9 48
M  V30 48 1 9 49
M  V30 49 1 10 50
M  V30 50 1 10 51
M  V30 51 1 11 52
M  V30 52 1 11 53
M  V30 53 1 12 54
M  V30 54 1 12 55
M  V30 55 1 13 56
M  V30 56 1 13 57
M  V30 57 1 14 58
M  V30 58 1 14 59
M  V30 59 1 15 60
M  V30 60 1 15 61
M  V30 61 1 16 62
M  V30 62 1 16 63
M  V30 63 1 17 64
M  V30 64 1 17 65
M  V30 65 1 18 66
M  V30 66 1 18 67
M  V30 67 1 19 68
M  V30 68 1 19 69
M  V30 69 1 20 70
M  V30 70 1 20 71
M  V30 71 1 21 72
M  V30 72 1 21 73
M  V30 73 1 22 74
M  V30 74 1 22 75
M  V30 75 1 23 76
M  V30 76 1 23 77
M  V30 77 1 24 78
M  V30 78 1 24 79
M  V30 79 1 25 80
M  V30 80 1 25 81
M  V30 81 1 26 82
M  V30 82 1 26 83
M  V30 83 1 27 84
M  V30 84 1 27 85
M  V30 85 1 28 86
M  V30 86 1 28 87
M  V30 87 1 29 88
M  V30 88 1 29 89
M  V30 89 1 30 90
M  V30 90 1 30 91
M  V30 91 1 31 92
M  V30 92 1 31 93
M  V30 93 1 31 94
M  V30 94 1 32 95
M  V30 95 1 32 96
M  V30 96 1 33 97
M  V30 97 1 33 98
M  V30 98 1 33 99
M  V30 END BOND
M  V30 BEGIN COLLECTION
M  V30 MDLV30/STEABS ATOMS=(1 3)
M  V30 END COLLECTION
M  V30 END CTAB
M  END
>  <Structure No>
1307

>  <LogS>
-5.66920434

>  <MMFF94 Energy>
1.7621

$$$$
Compound 1308
Actelion Java MolfileCreator 2.0

  0  0  0  0  0  0              0 V3000
M  V30 BEGIN CTAB
M  V30 COUNTS 131 130 0 0 0
M  V30 BEGIN ATOM
M  V30 1 O 2.2682 2.1899 -0.0781 0
M  V30 2 C 2.3196 1.2321 0.7418 0
M  V30 3 N 1.5862 1.2952 1.9733 0
M  V30 4 N 3.1176 0.0765 0.4514 0
M  V30 5 C 0.7725 2.4491 2.3558 0
M  V30 6 C 3.959 -0.0295 -0.7398 0
M  V30 7 C -0.5604 2.4718 1.5964 0
M  V30 8 C 5.2162 0.836 -0.5846 0
M  V30 9 C -1.405 1.2243 1.8849 0
M  V30 10 C 6.1222 0.8078 -1.8285 0
M  V30 11 N -2.7463 1.3782 1.3251 0
M  V30 12 C 6.7521 -0.5614 -2.1417 0
M  V30 13 C -3.7649 2.1505 1.9748 0
M  V30 14 C 7.6555 -1.0784 -1.0117 0
M  V30 15 O -3.5211 2.7273 3.0695 0
M  V30 16 N -5.065 2.2593 1.3796 0
M  V30 17 C 8.4455 -2.3177 -1.4586 0
M  V30 18 C -6.1926 2.9009 2.0574 0
M  V30 19 C 9.2072 -2.9966 -0.3044 0
M  V30 20 C -6.7088 2.0455 3.2235 0
M  V30 21 C 10.2171 -2.0979 0.4328 0
M  V30 22 C -7.0552 0.5929 2.8422 0
M  V30 23 C 11.3328 -1.5727 -0.4857 0
M  V30 24 C -8.3093 0.4564 1.955 0
M  V30 25 C 12.3534 -0.6944 0.2588 0
M  V30 26 C -7.9762 0.3607 0.4552 0
M  V30 27 C 13.1696 -1.4158 1.352 0
M  V30 28 C -9.1684 -0.1075 -0.4 0
M  V30 29 C 13.9252 -2.6732 0.8842 0
M  V30 30 C -10.4555 0.7237 -0.2446 0
M  V30 31 C 14.9173 -2.4508 -0.2744 0
M  V30 32 C -10.3128 2.1691 -0.7461 0
M  V30 33 C 16.1726 -1.6415 0.1155 0
M  V30 34 C -11.5221 3.0513 -0.3826 0
M  V30 35 C 16.0683 -0.156 -0.2744 0
M  V30 36 C -12.8364 2.6439 -1.0831 0
M  V30 37 C 17.3286 0.6486 0.0946 0
M  V30 38 C -13.7385 1.7781 -0.1839 0
M  V30 39 C 18.5643 0.3427 -0.7706 0
M  V30 40 C -15.126 1.5146 -0.7952 0
M  V30 41 C 18.39 0.7681 -2.2286 0
M  V30 42 C -15.1194 0.7861 -2.1539 0
M  V30 43 C -14.3489 -0.5459 -2.1782 0
M  V30 44 C -14.9057 -1.5822 -1.1913 0
M  V30 45 C -14.2074 -2.9358 -1.3687 0
M  V30 46 C -14.7276 -3.9603 -0.354 0
M  V30 47 C -14.0637 -5.3188 -0.5531 0
M  V30 48 H 1.6891 0.5149 2.6595 0
M  V30 49 H 3.0727 -0.7413 1.0999 0
M  V30 50 H 1.3327 3.3883 2.1577 0
M  V30 51 H 0.5689 2.4108 3.448 0
M  V30 52 H 3.3809 0.2788 -1.6383 0
M  V30 53 H 4.2535 -1.0924 -0.8676 0
M  V30 54 H -0.3738 2.5455 0.5043 0
M  V30 55 H -1.1198 3.3812 1.9059 0
M  V30 56 H 4.9067 1.8895 -0.4183 0
M  V30 57 H 5.7823 0.5234 0.3176 0
M  V30 58 H -0.9161 0.3385 1.4231 0
M  V30 59 H -1.4761 1.0403 2.9812 0
M  V30 60 H 5.5332 1.1407 -2.7124 0
M  V30 61 H 6.9378 1.5507 -1.6877 0
M  V30 62 H -2.9882 0.8518 0.4562 0
M  V30 63 H 7.3623 -0.4456 -3.0654 0
M  V30 64 H 5.9625 -1.3081 -2.3689 0
M  V30 65 H 7.0322 -1.3495 -0.1327 0
M  V30 66 H 8.3636 -0.2739 -0.7195 0
M  V30 67 H -5.2074 1.8929 0.4118 0
M  V30 68 H 9.1471 -2.0477 -2.2754 0
M  V30 69 H 7.7357 -3.0651 -1.8757 0
M  V30 70 H -7.0143 3.0854 1.3358 0
M  V30 71 H -5.876 3.896 2.4386 0
M  V30 72 H 9.7443 -3.8825 -0.7088 0
M  V30 73 H 8.4698 -3.3751 0.4361 0
M  V30 74 H -7.6028 2.5366 3.6652 0
M  V30 75 H -5.9329 2.0242 4.0184 0
M  V30 76 H 9.693 -1.2493 0.9197 0
M  V30 77 H 10.6677 -2.7129 1.2402 0
M  V30 78 H -6.1769 0.0877 2.3859 0
M  V30 79 H -7.2569 0.0517 3.7935 0
M  V30 80 H 10.8823 -0.9398 -1.2785 0
M  V30 81 H 11.845 -2.4168 -0.9936 0
M  V30 82 H -8.9996 1.3071 2.1406 0
M  V30 83 H -8.8413 -0.4739 2.2524 0
M  V30 84 H 11.8147 0.1572 0.7293 0
M  V30 85 H 13.0423 -0.2501 -0.4883 0
M  V30 86 H -7.1561 -0.3752 0.3089 0
M  V30 87 H -7.6072 1.3293 0.072 0
M  V30 88 H 12.4912 -1.7003 2.184 0
M  V30 89 H 13.8915 -0.6998 1.7942 0
M  V30 90 H -9.4016 -1.1608 -0.1295 0
M  V30 91 H -8.8628 -0.1079 -1.4691 0
M  V30 92 H 14.4728 -3.1004 1.7523 0
M  V30 93 H 13.1888 -3.4477 0.5819 0
M  V30 94 H -10.7951 0.7104 0.8127 0
M  V30 95 H -11.2367 0.22 -0.8487 0
M  V30 96 H 14.4091 -2.0127 -1.1589 0
M  V30 97 H 15.2565 -3.4591 -0.5973 0
M  V30 98 H -9.4199 2.6395 -0.2833 0
M  V30 99 H -10.1601 2.1723 -1.8482 0
M  V30 100 H 16.3791 -1.7372 1.204 0
M  V30 101 H 17.0362 -2.0875 -0.4229 0
M  V30 102 H -11.2758 4.0896 -0.6969 0
M  V30 103 H -11.6479 3.0835 0.7222 0
M  V30 104 H 15.2202 0.3042 0.2674 0
M  V30 105 H 15.8471 -0.0574 -1.3574 0
M  V30 106 H -13.3955 3.5703 -1.3412 0
M  V30 107 H -12.6125 2.1181 -2.0359 0
M  V30 108 H 17.0948 1.733 0.0111 0
M  V30 109 H 17.5831 0.4584 1.1606 0
M  V30 110 H -13.897 2.3101 0.7799 0
M  V30 111 H -13.2503 0.8158 0.0614 0
M  V30 112 H 18.8283 -0.7337 -0.7231 0
M  V30 113 H 19.425 0.9058 -0.3505 0
M  V30 114 H -15.6507 2.4869 -0.9216 0
M  V30 115 H -15.7276 0.9282 -0.0688 0
M  V30 116 H 19.3606 0.677 -2.7603 0
M  V30 117 H 18.0543 1.8252 -2.2887 0
M  V30 118 H 17.6554 0.1152 -2.7443 0
M  V30 119 H -16.1735 0.5926 -2.4504 0
M  V30 120 H -14.6968 1.4596 -2.9294 0
M  V30 121 H -14.4178 -0.9577 -3.2094 0
M  V30 122 H -13.2741 -0.3676 -1.9746 0
M  V30 123 H -15.9978 -1.7045 -1.3607 0
M  V30 124 H -14.7454 -1.2279 -0.1505 0
M  V30 125 H -13.1116 -2.8043 -1.2274 0
M  V30 126 H -14.3888 -3.3108 -2.4 0
M  V30 127 H -14.5145 -3.6038 0.6777 0
M  V30 128 H -15.8275 -4.0768 -0.4663 0
M  V30 129 H -14.4391 -6.0299 0.2114 0
M  V30 130 H -12.9628 -5.2303 -0.446 0
M  V30 131 H -14.303 -5.7204 -1.5599 0
M  V30 END ATOM
M  V30 BEGIN BOND
M  V30 1 2 1 2
M  V30 2 1 2 3
M  V30 3 1 2 4
M  V30 4 1 3 5
M  V30 5 1 4 6
M  V30 6 1 5 7
M  V30 7 1 6 8
M  V30 8 1 7 9
M  V30 9 1 8 10
M  V30 10 1 9 11
M  V30 11 1 10 12
M  V30 12 1 11 13
M  V30 13 1 12 14
M  V30 14 2 13 15
M  V30 15 1 13 16
M  V30 16 1 14 17
M  V30 17 1 16 18
M  V30 18 1 17 19
M  V30 19 1 18 20
M  V30 20 1 19 21
M  V30 21 1 20 22
M  V30 22 1 21 23
M  V30 23 1 22 24
M  V30 24 1 23 25
M  V30 25 1 24 26
M  V30 26 1 25 27
M  V30 27 1 26 28
M  V30 28 1 27 29
M  V30 29 1 28 30
M  V30 30 1 29 31
M  V30 31 1 30 32
M  V30 32 1 31 33
M  V30 33 1 32 34
M  V30 34 1 33 35
M  V30 35 1 34 36
M  V30 36 1 35 37
M  V30 37 1 36 38
M  V30 38 1 37 39
M  V30 39 1 38 40
M  V30 40 1 39 41
M  V30 41 1 40 42
M  V30 42 1 42 43
M  V30 43 1 43 44
M  V30 44 1 44 45
M  V30 45 1 45 46
M  V30 46 1 46 47
M  V30 47 1 3 48
M  V30 48 1 4 49
M  V30 49 1 5 50
M  V30 50 1 5 51
M  V30 51 1 6 52
M  V30 52 1 6 53
M  V30 53 1 7 54
M  V30 54 1 7 55
M  V30 55 1 8 56
M  V30 56 1 8 57
M  V30 57 1 9 58
M  V30 58 1 9 59
M  V30 59 1 10 60
M  V30 60 1 10 61
M  V30 61 1 11 62
M  V30 62 1 12 63
M  V30 63 1 12 64
M  V30 64 1 14 65
M  V30 65 1 14 66
M  V30 66 1 16 67
M  V30 67 1 17 68
M  V30 68 1 17 69
M  V30 69 1 18 70
M  V30 70 1 18 71
M  V30 71 1 19 72
M  V30 72 1 19 73
M  V30 73 1 20 74
M  V30 74 1 20 75
M  V30 75 1 21 76
M  V30 76 1 21 77
M  V30 77 1 22 78
M  V30 78 1 22 79
M  V30 79 1 23 80
M  V30 80 1 23 81
M  V30 81 1 24 82
M  V30 82 1 24 83
M  V30 83 1 25 84
M  V30 84 1 25 85
M  V30 85 1 26 86
M  V30 86 1 26 87
M  V30 87 1 27 88
M  V30 88 1 27 89
M  V30 89 1 28 90
M  V30 90 1 28 91
M  V30 91 1 29 92
M  V30 92 1 29 93
M  V30 93 1 30 94
M  V30 94 1 30 95
M  V30 95 1 31 96
M  V30 96 1 31 97
M  V30 97 1 32 98
M  V30 98 1 32 99
M  V30 99 1 33 100
M  V30 100 1 33 101
M  V30 101 1 34 102
M  V30 102 1 34 103
M  V30 103 1 35 104
M  V30 104 1 35 105
M  V30 105 1 36 106
M  V30 106 1 36 107
M  V30 107 1 37 108
M  V30 108 1 37 109
M  V30 109 1 38 110
M  V30 110 1 38 111
M  V30 111 1 39 112
M  V30 112 1 39 113
M  V30 113 1 40 114
M  V30 114 1 40 115
M  V30 115 1 41 116
M  V30 116 1 41 117
M  V30 117 1 41 118
M  V30 118 1 42 119
M  V30 119 1 42 120
M  V30 120 1 43 121
M  V30 121 1 43 122
M  V30 122 1 44 123
M  V30 123 1 44 124
M  V30 124 1 45 125
M  V30 125 1 45 126
M  V30 126 1 46 127
M  V30 127 1 46 128
M  V30 128 1 47 129
M  V30 129 1 47 130
M  V30 130 1 47 131
M  V30 END BOND
M  V30 END CTAB
M  END
>  <Structure No>
1308

>  <LogS>
-5.822918943

>  <MMFF94 Energy>
-206.99

$$$$
Compound 1309
Actelion Java MolfileCreator 2.0

  0  0  0  0  0  0              0 V3000
M  V30 BEGIN CTAB
M  V30 COUNTS 43 43 0 0 0
M  V30 BEGIN ATOM
M  V30 1 S -2.1579 0.3993 2.5579 0
M  V30 2 O -2.652 -0.5466 3.616 0
M  V30 3 O -2.2173 1.7979 3.1069 0
M  V30 4 N -0.5156 -3.0E-4 2.1537 0
M  V30 5 C -3.1892 0.264 1.1351 0
M  V30 6 C -0.0607 0.834 1.0353 0
M  V30 7 C -3.6205 -0.9968 0.7027 0
M  V30 8 C -3.5507 1.4066 0.4075 0
M  V30 9 C 1.4746 0.745 0.869 0 CFG=1
M  V30 10 C -4.417 -1.1143 -0.4401 0
M  V30 11 C -4.3467 1.2894 -0.7357 0
M  V30 12 C 1.8997 -0.6385 0.3101 0
M  V30 13 C 2.0105 1.941 0.0366 0
M  V30 14 C -4.785 0.0284 -1.1645 0
M  V30 15 C 3.4234 -0.8019 0.1888 0
M  V30 16 C 1.5609 1.9455 -1.427 0
M  V30 17 N -5.598 -0.0916 -2.3346 0
M  V30 18 C 3.7952 -2.2462 -0.1677 0
M  V30 19 C 5.3058 -2.4076 -0.3107 0
M  V30 20 H -0.5332 -0.9962 1.8365 0
M  V30 21 H -0.5664 0.5202 0.0948 0
M  V30 22 H -0.334 1.8945 1.2335 0
M  V30 23 H -3.3363 -1.8882 1.2474 0
M  V30 24 H -3.2119 2.3863 0.719 0
M  V30 25 H 1.9197 0.8471 1.8845 0
M  V30 26 H -4.7446 -2.0946 -0.7628 0
M  V30 27 H -4.6192 2.1795 -1.2888 0
M  V30 28 H 1.4243 -0.8186 -0.6779 0
M  V30 29 H 1.5312 -1.4274 0.9995 0
M  V30 30 H 1.6767 2.8911 0.5082 0
M  V30 31 H 3.1199 1.9612 0.0737 0
M  V30 32 H 3.8095 -0.131 -0.6077 0
M  V30 33 H 3.9037 -0.5267 1.1535 0
M  V30 34 H 1.9611 1.0639 -1.9679 0
M  V30 35 H 0.4542 1.959 -1.5024 0
M  V30 36 H 1.9511 2.8576 -1.9256 0
M  V30 37 H -5.876 0.7536 -2.8814 0
M  V30 38 H -5.9281 -1.0265 -2.6625 0
M  V30 39 H 3.4352 -2.9346 0.6276 0
M  V30 40 H 3.3103 -2.5316 -1.1267 0
M  V30 41 H 5.6893 -1.7506 -1.1202 0
M  V30 42 H 5.8133 -2.1495 0.6431 0
M  V30 43 H 5.5443 -3.4616 -0.566 0
M  V30 END ATOM
M  V30 BEGIN BOND
M  V30 1 2 1 2
M  V30 2 2 1 3
M  V30 3 1 1 4
M  V30 4 1 1 5
M  V30 5 1 4 6
M  V30 6 2 5 7
M  V30 7 1 5 8
M  V30 8 1 6 9
M  V30 9 1 7 10
M  V30 10 2 8 11
M  V30 11 1 9 12
M  V30 12 1 9 13
M  V30 13 2 10 14
M  V30 14 1 12 15
M  V30 15 1 13 16
M  V30 16 1 14 17
M  V30 17 1 15 18
M  V30 18 1 18 19
M  V30 19 1 11 14
M  V30 20 1 4 20
M  V30 21 1 6 21
M  V30 22 1 6 22
M  V30 23 1 7 23
M  V30 24 1 8 24
M  V30 25 1 9 25
M  V30 26 1 10 26
M  V30 27 1 11 27
M  V30 28 1 12 28
M  V30 29 1 12 29
M  V30 30 1 13 30
M  V30 31 1 13 31
M  V30 32 1 15 32
M  V30 33 1 15 33
M  V30 34 1 16 34
M  V30 35 1 16 35
M  V30 36 1 16 36
M  V30 37 1 17 37
M  V30 38 1 17 38
M  V30 39 1 18 39
M  V30 40 1 18 40
M  V30 41 1 19 41
M  V30 42 1 19 42
M  V30 43 1 19 43
M  V30 END BOND
M  V30 BEGIN COLLECTION
M  V30 MDLV30/STEABS ATOMS=(1 9)
M  V30 END COLLECTION
M  V30 END CTAB
M  END
>  <Structure No>
1309

>  <LogS>
-5.453967767

>  <MMFF94 Energy>
-43.444

$$$$
Compound 1310
Actelion Java MolfileCreator 2.0

  0  0  0  0  0  0              0 V3000
M  V30 BEGIN CTAB
M  V30 COUNTS 57 61 0 0 0
M  V30 BEGIN ATOM
M  V30 1 S 0.1617 0.0 0.0 0
M  V30 2 C 1.2198 -1.1336 -0.6542 0
M  V30 3 C -1.2448 -0.7968 -0.4655 0
M  V30 4 C 2.6831 -1.0556 -0.6052 0
M  V30 5 C 0.4816 -2.1517 -1.2462 0
M  V30 6 C -2.6075 -0.3266 -0.1964 0
M  V30 7 C -0.9014 -1.963 -1.1405 0
M  V30 8 O 3.478 -1.9717 -1.134 0
M  V30 9 N 3.355 -0.0337 -0.0113 0
M  V30 10 O -2.872 0.795 0.453 0
M  V30 11 N -3.7216 -0.9997 -0.5895 0
M  V30 12 C 4.6936 -1.562 -0.8935 0
M  V30 13 C 4.635 -0.389 -0.2139 0
M  V30 14 C -4.1739 0.8766 0.4968 0
M  V30 15 C -4.703 -0.2042 -0.131 0
M  V30 16 C 5.8974 -2.1586 -1.2361 0
M  V30 17 C 5.7816 0.2903 0.1828 0
M  V30 18 C -4.9657 1.8621 1.066 0
M  V30 19 C -6.0769 -0.3937 -0.2445 0
M  V30 20 C 7.0837 -1.5055 -0.8546 0
M  V30 21 C 7.0513 -0.2668 -0.1369 0
M  V30 22 C -6.3607 1.7112 0.9748 0
M  V30 23 C -6.9473 0.5839 0.3199 0
M  V30 24 C 8.3314 0.4755 0.2966 0
M  V30 25 C -8.4827 0.4651 0.2469 0
M  V30 26 C 8.3488 0.6157 1.8341 0
M  V30 27 C 9.6285 -0.2557 -0.1239 0
M  V30 28 C 8.3543 1.8792 -0.3463 0
M  V30 29 C -9.0642 0.4214 1.6766 0
M  V30 30 C -8.9567 -0.8087 -0.4928 0
M  V30 31 C -9.0582 1.6854 -0.5038 0
M  V30 32 H 0.9259 -3.0059 -1.7401 0
M  V30 33 H -1.6253 -2.6583 -1.5452 0
M  V30 34 H 5.9223 -3.0947 -1.7785 0
M  V30 35 H 5.6849 1.2225 0.7227 0
M  V30 36 H -4.5252 2.7168 1.5627 0
M  V30 37 H -6.4342 -1.2748 -0.7562 0
M  V30 38 H 8.0128 -1.9818 -1.1283 0
M  V30 39 H -6.981 2.478 1.4177 0
M  V30 40 H 8.2899 -0.3851 2.314 0
M  V30 41 H 7.497 1.2274 2.1981 0
M  V30 42 H 9.2836 1.1119 2.1744 0
M  V30 43 H 10.5256 0.3114 0.2071 0
M  V30 44 H 9.6867 -0.3549 -1.2293 0
M  V30 45 H 9.6827 -1.2643 0.3399 0
M  V30 46 H 7.5025 2.501 0.0 0
M  V30 47 H 9.2893 2.4192 -0.0814 0
M  V30 48 H 8.2995 1.798 -1.4534 0
M  V30 49 H -10.1681 0.2924 1.6497 0
M  V30 50 H -8.627 -0.4274 2.2456 0
M  V30 51 H -8.8533 1.3588 2.2324 0
M  V30 52 H -8.598 -1.7242 0.0253 0
M  V30 53 H -8.5937 -0.8147 -1.5434 0
M  V30 54 H -10.067 -0.8566 -0.5236 0
M  V30 55 H -10.1619 1.6005 -0.6069 0
M  V30 56 H -8.8475 2.6331 0.0343 0
M  V30 57 H -8.6168 1.7563 -1.5214 0
M  V30 END ATOM
M  V30 BEGIN BOND
M  V30 1 1 1 2
M  V30 2 1 1 3
M  V30 3 1 2 4
M  V30 4 2 2 5
M  V30 5 1 3 6
M  V30 6 2 3 7
M  V30 7 1 4 8
M  V30 8 2 4 9
M  V30 9 1 6 10
M  V30 10 2 6 11
M  V30 11 1 8 12
M  V30 12 1 9 13
M  V30 13 1 10 14
M  V30 14 1 11 15
M  V30 15 1 12 16
M  V30 16 1 13 17
M  V30 17 1 14 18
M  V30 18 1 15 19
M  V30 19 2 16 20
M  V30 20 2 17 21
M  V30 21 2 18 22
M  V30 22 2 19 23
M  V30 23 1 21 24
M  V30 24 1 23 25
M  V30 25 1 24 26
M  V30 26 1 24 27
M  V30 27 1 24 28
M  V30 28 1 25 29
M  V30 29 1 25 30
M  V30 30 1 25 31
M  V30 31 1 5 7
M  V30 32 2 12 13
M  V30 33 2 14 15
M  V30 34 1 20 21
M  V30 35 1 22 23
M  V30 36 1 5 32
M  V30 37 1 7 33
M  V30 38 1 16 34
M  V30 39 1 17 35
M  V30 40 1 18 36
M  V30 41 1 19 37
M  V30 42 1 20 38
M  V30 43 1 22 39
M  V30 44 1 26 40
M  V30 45 1 26 41
M  V30 46 1 26 42
M  V30 47 1 27 43
M  V30 48 1 27 44
M  V30 49 1 27 45
M  V30 50 1 28 46
M  V30 51 1 28 47
M  V30 52 1 28 48
M  V30 53 1 29 49
M  V30 54 1 29 50
M  V30 55 1 29 51
M  V30 56 1 30 52
M  V30 57 1 30 53
M  V30 58 1 30 54
M  V30 59 1 31 55
M  V30 60 1 31 56
M  V30 61 1 31 57
M  V30 END BOND
M  V30 END CTAB
M  END
>  <Structure No>
1310

>  <LogS>
-5.634046793

>  <MMFF94 Energy>
90.068

$$$$
Compound 1311
Actelion Java MolfileCreator 2.0

  0  0  0  0  0  0              0 V3000
M  V30 BEGIN CTAB
M  V30 COUNTS 31 30 0 0 0
M  V30 BEGIN ATOM
M  V30 1 O -5.0936 -0.9388 -1.2519 0
M  V30 2 C -5.0963 -0.585 -0.0434 0
M  V30 3 O -5.5789 -1.454 0.9269 0 CHG=-1
M  V30 4 C -4.55 0.7523 0.3529 0
M  V30 5 C -3.1447 0.6355 0.957 0
M  V30 6 C -2.0954 0.2257 -0.0868 0
M  V30 7 C -0.6937 0.1774 0.5324 0
M  V30 8 C 0.354 -0.2357 -0.5078 0
M  V30 9 C 1.756 -0.2848 0.1116 0
M  V30 10 C 2.8051 -0.6892 -0.9345 0
M  V30 11 C 4.205 -0.869 -0.3275 0
M  V30 12 C 4.841 0.455 0.0949 0
M  V30 13 H -4.5332 1.4356 -0.5242 0
M  V30 14 H -5.2298 1.1988 1.1099 0
M  V30 15 H -3.1561 -0.099 1.7924 0
M  V30 16 H -2.8659 1.6255 1.3802 0
M  V30 17 H -2.1026 0.9586 -0.9235 0
M  V30 18 H -2.3477 -0.7777 -0.4935 0
M  V30 19 H -0.6875 -0.5531 1.3713 0
M  V30 20 H -0.4352 1.1814 0.936 0
M  V30 21 H 0.3482 0.495 -1.3464 0
M  V30 22 H 0.0946 -1.2392 -0.9115 0
M  V30 23 H 2.0033 0.7182 0.5202 0
M  V30 24 H 1.7626 -1.0203 0.9459 0
M  V30 25 H 2.503 -1.6575 -1.3904 0
M  V30 26 H 2.8418 0.0689 -1.7473 0
M  V30 27 H 4.8603 -1.3409 -1.0914 0
M  V30 28 H 4.1589 -1.5556 0.5454 0
M  V30 29 H 5.8897 0.2755 0.4123 0
M  V30 30 H 4.2931 0.8991 0.9516 0
M  V30 31 H 4.8469 1.1721 -0.7532 0
M  V30 END ATOM
M  V30 BEGIN BOND
M  V30 1 2 1 2
M  V30 2 1 2 3
M  V30 3 1 2 4
M  V30 4 1 4 5
M  V30 5 1 5 6
M  V30 6 1 6 7
M  V30 7 1 7 8
M  V30 8 1 8 9
M  V30 9 1 9 10
M  V30 10 1 10 11
M  V30 11 1 11 12
M  V30 12 1 4 13
M  V30 13 1 4 14
M  V30 14 1 5 15
M  V30 15 1 5 16
M  V30 16 1 6 17
M  V30 17 1 6 18
M  V30 18 1 7 19
M  V30 19 1 7 20
M  V30 20 1 8 21
M  V30 21 1 8 22
M  V30 22 1 9 23
M  V30 23 1 9 24
M  V30 24 1 10 25
M  V30 25 1 10 26
M  V30 26 1 11 27
M  V30 27 1 11 28
M  V30 28 1 12 29
M  V30 29 1 12 30
M  V30 30 1 12 31
M  V30 END BOND
M  V30 END CTAB
M  END
>  <Structure No>
1311

>  <LogS>
-5.853064556

>  <MMFF94 Energy>
1.3172

$$$$
Compound 1312
Actelion Java MolfileCreator 2.0

  0  0  0  0  0  0              0 V3000
M  V30 BEGIN CTAB
M  V30 COUNTS 38 44 0 0 0
M  V30 BEGIN ATOM
M  V30 1 O 5.5436 2.517 -0.6707 0
M  V30 2 C 4.9579 1.4317 -0.4133 0
M  V30 3 O 5.7172 0.287 -0.1787 0
M  V30 4 C 3.4789 1.3573 -0.357 0
M  V30 5 C 5.1066 -0.9319 0.109 0
M  V30 6 C 2.8459 0.131 -0.067 0
M  V30 7 C 2.707 2.4928 -0.5892 0
M  V30 8 O 5.8244 -1.9464 0.3157 0
M  V30 9 C 3.6284 -1.0183 0.168 0
M  V30 10 C 1.4205 0.0535 -0.0114 0
M  V30 11 C 1.3205 2.4303 -0.538 0
M  V30 12 C 3.0042 -2.2294 0.4544 0
M  V30 13 C 0.6408 1.2202 -0.2503 0
M  V30 14 C 0.7925 -1.1893 0.2821 0
M  V30 15 C 1.6193 -2.3176 0.5112 0
M  V30 16 C -0.7822 1.1428 -0.1948 0
M  V30 17 C -0.6305 -1.2667 0.3376 0
M  V30 18 C -1.4101 -0.1 0.0987 0
M  V30 19 C -1.6091 2.2711 -0.4239 0
M  V30 20 C -1.3101 -2.4768 0.6252 0
M  V30 21 C -2.8355 -0.1775 0.1541 0
M  V30 22 C -2.994 2.1829 -0.3672 0
M  V30 23 C -2.6966 -2.5393 0.6764 0
M  V30 24 C -3.6181 0.9719 -0.0806 0
M  V30 25 C -3.4686 -1.4038 0.4443 0
M  V30 26 C -5.0964 0.8855 -0.0217 0
M  V30 27 C -4.9476 -1.4782 0.5005 0
M  V30 28 O -5.8143 1.9 -0.2284 0
M  V30 29 O -5.7069 -0.3334 0.2661 0
M  V30 30 O -5.5333 -2.5636 0.758 0
M  V30 31 H 3.1776 3.4424 -0.8132 0
M  V30 32 H 0.8169 3.3601 -0.7316 0
M  V30 33 H 3.5908 -3.1216 0.6374 0
M  V30 34 H 1.2358 -3.2956 0.7394 0
M  V30 35 H -1.2258 3.2492 -0.652 0
M  V30 36 H -0.8067 -3.4066 0.8189 0
M  V30 37 H -3.5807 3.0752 -0.55 0
M  V30 38 H -3.1674 -3.4888 0.9005 0
M  V30 END ATOM
M  V30 BEGIN BOND
M  V30 1 2 1 2
M  V30 2 1 2 3
M  V30 3 1 2 4
M  V30 4 1 3 5
M  V30 5 1 4 6
M  V30 6 2 4 7
M  V30 7 2 5 8
M  V30 8 1 5 9
M  V30 9 1 6 10
M  V30 10 1 7 11
M  V30 11 1 9 12
M  V30 12 1 10 13
M  V30 13 2 10 14
M  V30 14 2 12 15
M  V30 15 1 13 16
M  V30 16 1 14 17
M  V30 17 1 16 18
M  V30 18 2 16 19
M  V30 19 1 17 20
M  V30 20 1 18 21
M  V30 21 1 19 22
M  V30 22 2 20 23
M  V30 23 1 21 24
M  V30 24 2 21 25
M  V30 25 1 24 26
M  V30 26 1 25 27
M  V30 27 2 26 28
M  V30 28 1 26 29
M  V30 29 2 27 30
M  V30 30 2 6 9
M  V30 31 2 11 13
M  V30 32 1 14 15
M  V30 33 2 17 18
M  V30 34 2 22 24
M  V30 35 1 23 25
M  V30 36 1 27 29
M  V30 37 1 7 31
M  V30 38 1 11 32
M  V30 39 1 12 33
M  V30 40 1 15 34
M  V30 41 1 19 35
M  V30 42 1 20 36
M  V30 43 1 22 37
M  V30 44 1 23 38
M  V30 END BOND
M  V30 END CTAB
M  END
>  <Structure No>
1312

>  <LogS>
-5.593642663

>  <MMFF94 Energy>
111.12

$$$$
Compound 1313
Actelion Java MolfileCreator 2.0

  0  0  0  0  0  0              0 V3000
M  V30 BEGIN CTAB
M  V30 COUNTS 39 41 0 0 0
M  V30 BEGIN ATOM
M  V30 1 Cl 2.1895 -2.4424 -1.5997 0
M  V30 2 C 2.3527 -0.9502 -0.6798 0
M  V30 3 C 3.3767 -0.7794 0.2701 0
M  V30 4 C 1.4394 0.0808 -0.9144 0
M  V30 5 C 3.4776 0.439 0.9603 0
M  V30 6 C 4.3695 -1.8769 0.5366 0
M  V30 7 C 1.5118 1.2826 -0.191 0
M  V30 8 C 2.5593 1.4731 0.7289 0
M  V30 9 N 0.5696 2.3436 -0.4329 0
M  V30 10 S 2.7112 2.9922 1.6159 0
M  V30 11 N -0.6956 2.2002 -0.5574 0
M  V30 12 O 1.4762 3.2191 2.441 0
M  V30 13 O 2.8838 4.125 0.644 0
M  V30 14 O 4.0449 2.9467 2.6371 0 CHG=-1
M  V30 15 C -1.4163 0.973 -0.3414 0
M  V30 16 C -1.3028 0.2936 0.8888 0
M  V30 17 C -2.2884 0.4872 -1.3373 0
M  V30 18 O -0.5632 0.896 1.9109 0
M  V30 19 C -1.9676 -0.9414 1.0803 0
M  V30 20 C -2.998 -0.7174 -1.1175 0
M  V30 21 C -2.4594 1.169 -2.5589 0
M  V30 22 C -1.7685 -1.7713 2.2889 0
M  V30 23 C -2.825 -1.4212 0.0795 0
M  V30 24 C -3.8606 -1.2124 -2.1091 0
M  V30 25 C -3.3221 0.6654 -3.5355 0
M  V30 26 O -0.6493 -1.8141 2.8644 0
M  V30 27 O -2.802 -2.5711 2.7628 0 CHG=-1
M  V30 28 C -4.0213 -0.5209 -3.3111 0
M  V30 29 H 0.6781 -0.0526 -1.6718 0
M  V30 30 H 4.273 0.5805 1.6806 0
M  V30 31 H 4.9443 -2.0938 -0.388 0
M  V30 32 H 3.836 -2.7953 0.8604 0
M  V30 33 H 5.0879 -1.5957 1.3357 0
M  V30 34 H -0.5679 0.576 2.8695 0
M  V30 35 H -1.9295 2.0902 -2.7658 0
M  V30 36 H -3.3458 -2.3615 0.2242 0
M  V30 37 H -4.4087 -2.1346 -1.9553 0
M  V30 38 H -3.4479 1.1965 -4.4701 0
M  V30 39 H -4.6875 -0.907 -4.0716 0
M  V30 END ATOM
M  V30 BEGIN BOND
M  V30 1 1 1 2
M  V30 2 2 2 3
M  V30 3 1 2 4
M  V30 4 1 3 5
M  V30 5 1 3 6
M  V30 6 2 4 7
M  V30 7 2 5 8
M  V30 8 1 7 9
M  V30 9 1 8 10
M  V30 10 2 9 11
M  V30 11 2 10 12
M  V30 12 2 10 13
M  V30 13 1 10 14
M  V30 14 1 11 15
M  V30 15 2 15 16
M  V30 16 1 15 17
M  V30 17 1 16 18
M  V30 18 1 16 19
M  V30 19 1 17 20
M  V30 20 2 17 21
M  V30 21 1 19 22
M  V30 22 2 19 23
M  V30 23 2 20 24
M  V30 24 1 21 25
M  V30 25 2 22 26
M  V30 26 1 22 27
M  V30 27 1 24 28
M  V30 28 1 7 8
M  V30 29 1 20 23
M  V30 30 2 25 28
M  V30 31 1 4 29
M  V30 32 1 5 30
M  V30 33 1 6 31
M  V30 34 1 6 32
M  V30 35 1 6 33
M  V30 36 1 18 34
M  V30 37 1 21 35
M  V30 38 1 23 36
M  V30 39 1 24 37
M  V30 40 1 25 38
M  V30 41 1 28 39
M  V30 END BOND
M  V30 END CTAB
M  END
>  <Structure No>
1313

>  <LogS>
-5.745185694

>  <MMFF94 Energy>
133

$$$$
Compound 1314
Actelion Java MolfileCreator 2.0

  0  0  0  0  0  0              0 V3000
M  V30 BEGIN CTAB
M  V30 COUNTS 40 43 0 0 0
M  V30 BEGIN ATOM
M  V30 1 S 1.2444 -2.3239 0.6635 0
M  V30 2 O 2.0718 -3.5309 0.3205 0
M  V30 3 O -0.112 -2.5392 0.0572 0
M  V30 4 O 1.0969 -2.1992 2.3318 0 CHG=-1
M  V30 5 C 2.0041 -0.8392 0.0204 0
M  V30 6 C 1.1984 0.2281 -0.4695 0
M  V30 7 C 3.4227 -0.7339 -0.081 0
M  V30 8 N -0.2063 0.3234 -0.1533 0
M  V30 9 C 1.7982 1.2505 -1.2256 0
M  V30 10 C 3.9932 0.3156 -0.8491 0
M  V30 11 C 4.2991 -1.6194 0.5875 0
M  V30 12 N -0.9635 1.425 -0.5941 0
M  V30 13 C 3.1705 1.2757 -1.4393 0
M  V30 14 C 5.3862 0.4053 -1.0039 0
M  V30 15 C 5.6832 -1.5113 0.4321 0
M  V30 16 C -2.261 1.5427 -0.5163 0
M  V30 17 C 6.2245 -0.5115 -0.3724 0
M  V30 18 C -2.8457 2.8831 -0.6955 0
M  V30 19 C -3.1891 0.4473 -0.1075 0
M  V30 20 O -2.199 3.7943 -1.2783 0
M  V30 21 C -4.1653 3.1765 -0.1137 0
M  V30 22 C -4.4493 0.7965 0.4357 0
M  V30 23 C -2.9211 -0.9081 -0.373 0
M  V30 24 C -4.889 2.2119 0.4639 0
M  V30 25 C -5.3314 -0.2091 0.8591 0
M  V30 26 C -3.8103 -1.902 0.0435 0
M  V30 27 C -5.0014 -1.554 0.6817 0
M  V30 28 H -0.5827 -0.2448 0.6356 0
M  V30 29 H 1.205 2.0529 -1.6444 0
M  V30 30 H 3.9384 -2.3705 1.2729 0
M  V30 31 H 3.5952 2.0813 -2.0271 0
M  V30 32 H 5.827 1.1944 -1.6019 0
M  V30 33 H 6.3394 -2.1997 0.9492 0
M  V30 34 H 7.2977 -0.4325 -0.4883 0
M  V30 35 H -4.5439 4.191 -0.1319 0
M  V30 36 H -2.0497 -1.2013 -0.9386 0
M  V30 37 H -5.8493 2.4661 0.8964 0
M  V30 38 H -6.2896 0.0474 1.2944 0
M  V30 39 H -3.584 -2.9433 -0.1464 0
M  V30 40 H -5.6905 -2.3262 0.9984 0
M  V30 END ATOM
M  V30 BEGIN BOND
M  V30 1 2 1 2
M  V30 2 2 1 3
M  V30 3 1 1 4
M  V30 4 1 1 5
M  V30 5 2 5 6
M  V30 6 1 5 7
M  V30 7 1 6 8
M  V30 8 1 6 9
M  V30 9 1 7 10
M  V30 10 2 7 11
M  V30 11 1 8 12
M  V30 12 2 9 13
M  V30 13 2 10 14
M  V30 14 1 11 15
M  V30 15 2 12 16
M  V30 16 1 14 17
M  V30 17 1 16 18
M  V30 18 1 16 19
M  V30 19 2 18 20
M  V30 20 1 18 21
M  V30 21 2 19 22
M  V30 22 1 19 23
M  V30 23 2 21 24
M  V30 24 1 22 25
M  V30 25 2 23 26
M  V30 26 2 25 27
M  V30 27 1 10 13
M  V30 28 2 15 17
M  V30 29 1 22 24
M  V30 30 1 26 27
M  V30 31 1 8 28
M  V30 32 1 9 29
M  V30 33 1 11 30
M  V30 34 1 13 31
M  V30 35 1 14 32
M  V30 36 1 15 33
M  V30 37 1 17 34
M  V30 38 1 21 35
M  V30 39 1 23 36
M  V30 40 1 24 37
M  V30 41 1 25 38
M  V30 42 1 26 39
M  V30 43 1 27 40
M  V30 END BOND
M  V30 END CTAB
M  END
>  <Structure No>
1314

>  <LogS>
-5.950428144

>  <MMFF94 Energy>
152.36

$$$$
Compound 1315
Actelion Java MolfileCreator 2.0

  0  0  0  0  0  0              0 V3000
M  V30 BEGIN CTAB
M  V30 COUNTS 96 96 0 0 0
M  V30 BEGIN ATOM
M  V30 1 O -1.1017 -1.023 0.1573 0
M  V30 2 C -1.9605 -0.441 0.8732 0
M  V30 3 O -3.1609 0.0047 0.3038 0
M  V30 4 C -1.7435 -0.2796 2.3342 0
M  V30 5 C -3.4738 -0.1031 -1.0844 0
M  V30 6 C -0.4582 -0.3344 2.9439 0
M  V30 7 C -2.8779 -0.135 3.1558 0
M  V30 8 C -3.6798 -1.5621 -1.521 0
M  V30 9 C 0.7946 -0.4058 2.1645 0
M  V30 10 C -0.36 -0.2972 4.3463 0
M  V30 11 C -2.7545 -0.0804 4.5443 0
M  V30 12 C -4.6218 -2.3597 -0.6047 0
M  V30 13 O 1.709 -1.1946 2.532 0
M  V30 14 O 0.9759 0.4185 1.0478 0
M  V30 15 C -1.4995 -0.1686 5.1387 0
M  V30 16 C -6.0601 -1.8236 -0.6196 0
M  V30 17 C 2.0561 0.2604 0.1308 0
M  V30 18 C -7.014 -2.8025 0.0851 0
M  V30 19 C 3.3581 0.8403 0.7021 0
M  V30 20 C -8.4298 -2.2316 0.2622 0
M  V30 21 C 4.5627 0.5535 -0.2108 0
M  V30 22 C -9.1568 -2.0268 -1.0782 0
M  V30 23 C 5.1293 -0.8613 0.0112 0
M  V30 24 C -10.6439 -1.6791 -0.9005 0
M  V30 25 C 6.1884 -1.2539 -1.0385 0
M  V30 26 C -10.9014 -0.3032 -0.2568 0
M  V30 27 C 7.64 -1.083 -0.5595 0
M  V30 28 C -10.4272 0.8874 -1.1239 0
M  V30 29 C 8.0776 0.3868 -0.4822 0
M  V30 30 C -9.1297 1.5525 -0.6033 0
M  V30 31 C 9.6002 0.4978 -0.3256 0
M  V30 32 C -8.505 2.4303 -1.6957 0
M  V30 33 C -9.3926 2.3963 0.6541 0
M  V30 34 C 10.0503 1.9664 -0.3086 0
M  V30 35 C 11.5631 2.1253 -0.0764 0
M  V30 36 C 12.4254 1.6006 -1.2582 0
M  V30 37 C 13.5049 2.6195 -1.652 0
M  V30 38 C 13.0819 0.2549 -0.9167 0
M  V30 39 H -4.4021 0.472 -1.2817 0
M  V30 40 H -2.6645 0.359 -1.6895 0
M  V30 41 H -3.8709 -0.0953 2.7261 0
M  V30 42 H -2.6973 -2.0775 -1.5458 0
M  V30 43 H -4.0725 -1.5757 -2.5612 0
M  V30 44 H 0.6072 -0.3463 4.8307 0
M  V30 45 H -3.6387 0.0161 5.1611 0
M  V30 46 H -4.625 -3.4137 -0.9597 0
M  V30 47 H -4.231 -2.3609 0.4362 0
M  V30 48 H -1.4091 -0.1332 6.2163 0
M  V30 49 H -6.3843 -1.6845 -1.6727 0
M  V30 50 H -6.0925 -0.8392 -0.1039 0
M  V30 51 H 2.1664 -0.8141 -0.1279 0
M  V30 52 H 1.8025 0.8071 -0.8015 0
M  V30 53 H -6.6104 -3.0367 1.0955 0
M  V30 54 H -7.0642 -3.755 -0.4885 0
M  V30 55 H 3.2345 1.9402 0.8004 0
M  V30 56 H 3.5535 0.4394 1.7191 0
M  V30 57 H -9.0129 -2.9465 0.8823 0
M  V30 58 H -8.3674 -1.2774 0.8241 0
M  V30 59 H 4.2637 0.6861 -1.2732 0
M  V30 60 H 5.3515 1.3014 0.0074 0
M  V30 61 H -9.0962 -2.9682 -1.6649 0
M  V30 62 H -8.6577 -1.237 -1.6747 0
M  V30 63 H 5.5428 -0.9442 1.0395 0
M  V30 64 H 4.3003 -1.5961 -0.0587 0
M  V30 65 H -11.1284 -2.4642 -0.2799 0
M  V30 66 H -11.1394 -1.7098 -1.8949 0
M  V30 67 H 6.0319 -0.7098 -1.9957 0
M  V30 68 H 6.0497 -2.3326 -1.2731 0
M  V30 69 H -10.4659 -0.2793 0.7622 0
M  V30 70 H -11.9995 -0.2078 -0.1173 0
M  V30 71 H 8.2943 -1.6178 -1.2832 0
M  V30 72 H 7.7755 -1.5697 0.4311 0
M  V30 73 H -10.28 0.5482 -2.172 0
M  V30 74 H -11.2328 1.6532 -1.1641 0
M  V30 75 H 7.7661 0.9185 -1.4084 0
M  V30 76 H 7.5883 0.8718 0.3888 0
M  V30 77 H -8.3861 0.77 -0.3472 0
M  V30 78 H 9.9111 0.0024 0.6216 0
M  V30 79 H 10.0833 -0.0233 -1.1804 0
M  V30 80 H -7.5768 2.9121 -1.3184 0
M  V30 81 H -8.2336 1.8082 -2.5756 0
M  V30 82 H -9.2157 3.221 -2.0157 0
M  V30 83 H -10.1283 3.202 0.4403 0
M  V30 84 H -9.7847 1.7692 1.481 0
M  V30 85 H -8.4453 2.8626 1.0057 0
M  V30 86 H 9.7707 2.4573 -1.2676 0
M  V30 87 H 9.515 2.4971 0.5099 0
M  V30 88 H 11.7495 3.2109 0.0804 0
M  V30 89 H 11.8475 1.6305 0.8778 0
M  V30 90 H 11.7859 1.4507 -2.1569 0
M  V30 91 H 13.0321 3.5745 -1.9654 0
M  V30 92 H 14.1005 2.2379 -2.5066 0
M  V30 93 H 14.1868 2.8185 -0.7978 0
M  V30 94 H 13.8339 0.3782 -0.1083 0
M  V30 95 H 13.5892 -0.1571 -1.8147 0
M  V30 96 H 12.3233 -0.4807 -0.582 0
M  V30 END ATOM
M  V30 BEGIN BOND
M  V30 1 2 1 2
M  V30 2 1 2 3
M  V30 3 1 2 4
M  V30 4 1 3 5
M  V30 5 2 4 6
M  V30 6 1 4 7
M  V30 7 1 5 8
M  V30 8 1 6 9
M  V30 9 1 6 10
M  V30 10 2 7 11
M  V30 11 1 8 12
M  V30 12 2 9 13
M  V30 13 1 9 14
M  V30 14 2 10 15
M  V30 15 1 12 16
M  V30 16 1 14 17
M  V30 17 1 16 18
M  V30 18 1 17 19
M  V30 19 1 18 20
M  V30 20 1 19 21
M  V30 21 1 20 22
M  V30 22 1 21 23
M  V30 23 1 22 24
M  V30 24 1 23 25
M  V30 25 1 24 26
M  V30 26 1 25 27
M  V30 27 1 26 28
M  V30 28 1 27 29
M  V30 29 1 28 30
M  V30 30 1 29 31
M  V30 31 1 30 32
M  V30 32 1 30 33
M  V30 33 1 31 34
M  V30 34 1 34 35
M  V30 35 1 35 36
M  V30 36 1 36 37
M  V30 37 1 36 38
M  V30 38 1 11 15
M  V30 39 1 5 39
M  V30 40 1 5 40
M  V30 41 1 7 41
M  V30 42 1 8 42
M  V30 43 1 8 43
M  V30 44 1 10 44
M  V30 45 1 11 45
M  V30 46 1 12 46
M  V30 47 1 12 47
M  V30 48 1 15 48
M  V30 49 1 16 49
M  V30 50 1 16 50
M  V30 51 1 17 51
M  V30 52 1 17 52
M  V30 53 1 18 53
M  V30 54 1 18 54
M  V30 55 1 19 55
M  V30 56 1 19 56
M  V30 57 1 20 57
M  V30 58 1 20 58
M  V30 59 1 21 59
M  V30 60 1 21 60
M  V30 61 1 22 61
M  V30 62 1 22 62
M  V30 63 1 23 63
M  V30 64 1 23 64
M  V30 65 1 24 65
M  V30 66 1 24 66
M  V30 67 1 25 67
M  V30 68 1 25 68
M  V30 69 1 26 69
M  V30 70 1 26 70
M  V30 71 1 27 71
M  V30 72 1 27 72
M  V30 73 1 28 73
M  V30 74 1 28 74
M  V30 75 1 29 75
M  V30 76 1 29 76
M  V30 77 1 30 77
M  V30 78 1 31 78
M  V30 79 1 31 79
M  V30 80 1 32 80
M  V30 81 1 32 81
M  V30 82 1 32 82
M  V30 83 1 33 83
M  V30 84 1 33 84
M  V30 85 1 33 85
M  V30 86 1 34 86
M  V30 87 1 34 87
M  V30 88 1 35 88
M  V30 89 1 35 89
M  V30 90 1 36 90
M  V30 91 1 37 91
M  V30 92 1 37 92
M  V30 93 1 37 93
M  V30 94 1 38 94
M  V30 95 1 38 95
M  V30 96 1 38 96
M  V30 END BOND
M  V30 END CTAB
M  END
>  <Structure No>
1315

>  <LogS>
-5.724958732

>  <MMFF94 Energy>
25.301

$$$$
Compound 1316
Actelion Java MolfileCreator 2.0

  0  0  0  0  0  0              0 V3000
M  V30 BEGIN CTAB
M  V30 COUNTS 40 43 0 0 0
M  V30 BEGIN ATOM
M  V30 1 S -1.4931 0.3316 -2.4064 0
M  V30 2 O -2.5953 -0.0631 -3.3491 0
M  V30 3 O -0.36 -0.632 -2.6204 0
M  V30 4 O -0.9743 1.8877 -2.7665 0 CHG=-1
M  V30 5 C -2.0758 0.2761 -0.7188 0
M  V30 6 C -1.2359 -0.233 0.306 0
M  V30 7 C -3.4092 0.6567 -0.3902 0
M  V30 8 N 0.1742 -0.4034 0.1039 0
M  V30 9 C -1.769 -0.5079 1.5725 0
M  V30 10 C -3.9207 0.3657 0.9034 0
M  V30 11 C -4.2454 1.3457 -1.2976 0
M  V30 12 N 0.858 -1.4599 0.729 0
M  V30 13 C -3.1013 -0.2375 1.8607 0
M  V30 14 C -5.2454 0.6962 1.232 0
M  V30 15 C -5.5587 1.6747 -0.9525 0
M  V30 16 C 2.1463 -1.5172 0.9277 0
M  V30 17 C -6.0608 1.3409 0.3033 0
M  V30 18 C 2.733 -2.8214 1.2817 0
M  V30 19 C 3.0947 -0.3848 0.6934 0
M  V30 20 O 2.0111 -3.7488 1.7364 0
M  V30 21 C 4.1611 -3.0624 1.0256 0
M  V30 22 C 4.4599 -0.6867 0.4658 0
M  V30 23 C 2.7166 0.9667 0.8261 0
M  V30 24 C 4.9548 -2.078 0.5928 0
M  V30 25 C 5.3732 0.3474 0.2121 0
M  V30 26 C 3.6378 1.9881 0.5814 0
M  V30 27 C 4.957 1.6789 0.251 0
M  V30 28 H 0.6706 0.204 -0.5838 0
M  V30 29 H -1.1382 -0.9091 2.3558 0
M  V30 30 H -3.8916 1.6753 -2.2623 0
M  V30 31 H -3.4797 -0.4596 2.8518 0
M  V30 32 H -5.6465 0.4659 2.2121 0
M  V30 33 H -6.1867 2.2008 -1.66 0
M  V30 34 H -7.079 1.5992 0.5645 0
M  V30 35 H 4.5691 -4.0555 1.1671 0
M  V30 36 H 1.7249 1.2448 1.1534 0
M  V30 37 H 5.9985 -2.2948 0.3997 0
M  V30 38 H 6.4153 0.125 0.018 0
M  V30 39 H 3.3317 3.0231 0.6654 0
M  V30 40 H 5.6684 2.4735 0.0668 0
M  V30 END ATOM
M  V30 BEGIN BOND
M  V30 1 2 1 2
M  V30 2 2 1 3
M  V30 3 1 1 4
M  V30 4 1 1 5
M  V30 5 2 5 6
M  V30 6 1 5 7
M  V30 7 1 6 8
M  V30 8 1 6 9
M  V30 9 1 7 10
M  V30 10 2 7 11
M  V30 11 1 8 12
M  V30 12 2 9 13
M  V30 13 2 10 14
M  V30 14 1 11 15
M  V30 15 2 12 16
M  V30 16 1 14 17
M  V30 17 1 16 18
M  V30 18 1 16 19
M  V30 19 2 18 20
M  V30 20 1 18 21
M  V30 21 2 19 22
M  V30 22 1 19 23
M  V30 23 2 21 24
M  V30 24 1 22 25
M  V30 25 2 23 26
M  V30 26 2 25 27
M  V30 27 1 10 13
M  V30 28 2 15 17
M  V30 29 1 22 24
M  V30 30 1 26 27
M  V30 31 1 8 28
M  V30 32 1 9 29
M  V30 33 1 11 30
M  V30 34 1 13 31
M  V30 35 1 14 32
M  V30 36 1 15 33
M  V30 37 1 17 34
M  V30 38 1 21 35
M  V30 39 1 23 36
M  V30 40 1 24 37
M  V30 41 1 25 38
M  V30 42 1 26 39
M  V30 43 1 27 40
M  V30 END BOND
M  V30 END CTAB
M  END
>  <Structure No>
1316

>  <LogS>
-5.90030157

>  <MMFF94 Energy>
152.36

$$$$
Compound 1317
Actelion Java MolfileCreator 2.0

  0  0  0  0  0  0              0 V3000
M  V30 BEGIN CTAB
M  V30 COUNTS 98 97 0 0 0
M  V30 BEGIN ATOM
M  V30 1 O 2.5097 2.3527 0.0783 0
M  V30 2 C 2.1132 1.4804 -0.7423 0
M  V30 3 O 2.8074 0.2751 -0.8974 0
M  V30 4 C 0.8592 1.7153 -1.5264 0
M  V30 5 C 4.0059 -0.0363 -0.1887 0
M  V30 6 C -0.3619 1.0691 -0.859 0
M  V30 7 C 5.1985 0.7234 -0.7861 0
M  V30 8 C -0.6983 1.7189 0.4944 0
M  V30 9 C 6.4943 0.5165 0.0151 0
M  V30 10 C -1.9984 1.1673 1.0949 0
M  V30 11 C 7.1399 -0.8544 -0.2495 0
M  V30 12 C -3.2033 1.6315 0.3365 0
M  V30 13 C 8.3545 -1.1338 0.656 0
M  V30 14 O -3.5284 2.85 0.3659 0
M  V30 15 O -3.9463 0.7101 -0.4098 0
M  V30 16 C 9.499 -0.1073 0.5648 0
M  V30 17 C -5.1283 1.0559 -1.1315 0
M  V30 18 C 10.1384 -0.04 -0.8324 0
M  V30 19 C -6.313 1.297 -0.1842 0
M  V30 20 C 11.2334 1.0377 -0.941 0
M  V30 21 C -6.6468 0.0842 0.7051 0
M  V30 22 C 12.4419 0.8511 -0.0046 0
M  V30 23 C -7.2396 -1.1205 -0.0484 0
M  V30 24 C 13.2131 -0.4535 -0.2719 0
M  V30 25 C -8.6274 -0.8266 -0.6384 0
M  V30 26 C 14.4799 -0.5906 0.6046 0
M  V30 27 C -9.292 -2.1099 -1.1576 0
M  V30 28 C 15.0134 -2.0281 0.5356 0
M  V30 29 C 15.5834 0.392 0.18 0
M  V30 30 C -10.6111 -1.8435 -1.9074 0
M  V30 31 C -11.6987 -1.1364 -1.0775 0
M  V30 32 C -12.1181 -1.9394 0.1663 0
M  V30 33 C -13.3667 -1.3618 0.8602 0
M  V30 34 C -13.201 0.0744 1.4156 0
M  V30 35 C -14.5272 0.5525 2.0222 0
M  V30 36 C -12.0849 0.1673 2.4677 0
M  V30 37 H 0.9877 1.2779 -2.5394 0
M  V30 38 H 0.6892 2.8064 -1.6548 0
M  V30 39 H 3.8823 0.2083 0.8893 0
M  V30 40 H 4.1778 -1.1284 -0.2746 0
M  V30 41 H -1.2269 1.1818 -1.5479 0
M  V30 42 H -0.1791 -0.0193 -0.7188 0
M  V30 43 H 5.3484 0.4162 -1.8442 0
M  V30 44 H 4.9657 1.8099 -0.7856 0
M  V30 45 H -0.7762 2.8228 0.3805 0
M  V30 46 H 0.1252 1.511 1.211 0
M  V30 47 H 6.2934 0.6442 1.1014 0
M  V30 48 H 7.205 1.3119 -0.2945 0
M  V30 49 H -1.9672 0.0566 1.1142 0
M  V30 50 H -2.0868 1.5177 2.1455 0
M  V30 51 H 6.3976 -1.6556 -0.0538 0
M  V30 52 H 7.4274 -0.9385 -1.3187 0
M  V30 53 H 8.7554 -2.1408 0.4075 0
M  V30 54 H 8.007 -1.1758 1.7118 0
M  V30 55 H 10.2709 -0.4198 1.2997 0
M  V30 56 H 9.1417 0.8973 0.8745 0
M  V30 57 H -4.944 1.9685 -1.7393 0
M  V30 58 H -5.3692 0.2388 -1.8413 0
M  V30 59 H 9.3598 0.2224 -1.5783 0
M  V30 60 H 10.5408 -1.0346 -1.1181 0
M  V30 61 H -6.0704 2.1549 0.4782 0
M  V30 62 H -7.2003 1.6032 -0.7753 0
M  V30 63 H 11.5975 1.0647 -1.9912 0
M  V30 64 H 10.7773 2.0309 -0.7329 0
M  V30 65 H -5.729 -0.2438 1.2392 0
M  V30 66 H -7.3683 0.4069 1.4873 0
M  V30 67 H 13.1131 1.7182 -0.1733 0
M  V30 68 H 12.1199 0.8946 1.057 0
M  V30 69 H -7.331 -1.9565 0.6795 0
M  V30 70 H -6.5492 -1.4599 -0.8482 0
M  V30 71 H 12.54 -1.3075 -0.0446 0
M  V30 72 H 13.4899 -0.5147 -1.3474 0
M  V30 73 H -8.5323 -0.1064 -1.4781 0
M  V30 74 H -9.2629 -0.377 0.1533 0
M  V30 75 H 14.2113 -0.3832 1.6646 0
M  V30 76 H -8.5967 -2.613 -1.8646 0
M  V30 77 H -9.4665 -2.8148 -0.3169 0
M  V30 78 H 15.2925 -2.2917 -0.5071 0
M  V30 79 H 14.2421 -2.7439 0.8926 0
M  V30 80 H 15.9075 -2.1397 1.1858 0
M  V30 81 H 15.8108 0.2848 -0.9033 0
M  V30 82 H 15.2819 1.439 0.388 0
M  V30 83 H 16.5131 0.1995 0.7586 0
M  V30 84 H -11.0113 -2.8135 -2.2745 0
M  V30 85 H -10.3942 -1.2239 -2.8044 0
M  V30 86 H -12.5873 -0.9957 -1.7313 0
M  V30 87 H -11.3432 -0.1262 -0.7875 0
M  V30 88 H -11.2813 -1.9992 0.892 0
M  V30 89 H -12.3547 -2.9808 -0.1436 0
M  V30 90 H -13.6454 -2.0436 1.6937 0
M  V30 91 H -14.2092 -1.3765 0.1335 0
M  V30 92 H -12.9572 0.7666 0.5823 0
M  V30 93 H -15.3344 0.5202 1.2588 0
M  V30 94 H -14.4328 1.6019 2.3753 0
M  V30 95 H -14.8194 -0.0893 2.8815 0
M  V30 96 H -11.0922 -0.0038 2.0034 0
M  V30 97 H -12.2452 -0.578 3.2753 0
M  V30 98 H -12.0643 1.1822 2.9192 0
M  V30 END ATOM
M  V30 BEGIN BOND
M  V30 1 2 1 2
M  V30 2 1 2 3
M  V30 3 1 2 4
M  V30 4 1 3 5
M  V30 5 1 4 6
M  V30 6 1 5 7
M  V30 7 1 6 8
M  V30 8 1 7 9
M  V30 9 1 8 10
M  V30 10 1 9 11
M  V30 11 1 10 12
M  V30 12 1 11 13
M  V30 13 2 12 14
M  V30 14 1 12 15
M  V30 15 1 13 16
M  V30 16 1 15 17
M  V30 17 1 16 18
M  V30 18 1 17 19
M  V30 19 1 18 20
M  V30 20 1 19 21
M  V30 21 1 20 22
M  V30 22 1 21 23
M  V30 23 1 22 24
M  V30 24 1 23 25
M  V30 25 1 24 26
M  V30 26 1 25 27
M  V30 27 1 26 28
M  V30 28 1 26 29
M  V30 29 1 27 30
M  V30 30 1 30 31
M  V30 31 1 31 32
M  V30 32 1 32 33
M  V30 33 1 33 34
M  V30 34 1 34 35
M  V30 35 1 34 36
M  V30 36 1 4 37
M  V30 37 1 4 38
M  V30 38 1 5 39
M  V30 39 1 5 40
M  V30 40 1 6 41
M  V30 41 1 6 42
M  V30 42 1 7 43
M  V30 43 1 7 44
M  V30 44 1 8 45
M  V30 45 1 8 46
M  V30 46 1 9 47
M  V30 47 1 9 48
M  V30 48 1 10 49
M  V30 49 1 10 50
M  V30 50 1 11 51
M  V30 51 1 11 52
M  V30 52 1 13 53
M  V30 53 1 13 54
M  V30 54 1 16 55
M  V30 55 1 16 56
M  V30 56 1 17 57
M  V30 57 1 17 58
M  V30 58 1 18 59
M  V30 59 1 18 60
M  V30 60 1 19 61
M  V30 61 1 19 62
M  V30 62 1 20 63
M  V30 63 1 20 64
M  V30 64 1 21 65
M  V30 65 1 21 66
M  V30 66 1 22 67
M  V30 67 1 22 68
M  V30 68 1 23 69
M  V30 69 1 23 70
M  V30 70 1 24 71
M  V30 71 1 24 72
M  V30 72 1 25 73
M  V30 73 1 25 74
M  V30 74 1 26 75
M  V30 75 1 27 76
M  V30 76 1 27 77
M  V30 77 1 28 78
M  V30 78 1 28 79
M  V30 79 1 28 80
M  V30 80 1 29 81
M  V30 81 1 29 82
M  V30 82 1 29 83
M  V30 83 1 30 84
M  V30 84 1 30 85
M  V30 85 1 31 86
M  V30 86 1 31 87
M  V30 87 1 32 88
M  V30 88 1 32 89
M  V30 89 1 33 90
M  V30 90 1 33 91
M  V30 91 1 34 92
M  V30 92 1 35 93
M  V30 93 1 35 94
M  V30 94 1 35 95
M  V30 95 1 36 96
M  V30 96 1 36 97
M  V30 97 1 36 98
M  V30 END BOND
M  V30 END CTAB
M  END
>  <Structure No>
1317

>  <LogS>
-5.708288297

>  <MMFF94 Energy>
-13.302

$$$$
Compound 1318
Actelion Java MolfileCreator 2.0

  0  0  0  0  0  0              0 V3000
M  V30 BEGIN CTAB
M  V30 COUNTS 69 68 0 0 0
M  V30 BEGIN ATOM
M  V30 1 O 10.5514 2.1033 -0.7007 0
M  V30 2 C 9.4249 1.3917 -0.2701 0
M  V30 3 C 9.4682 -0.0247 -0.8487 0
M  V30 4 C 8.3548 -0.9288 -0.2959 0
M  V30 5 C 6.9642 -0.5451 -0.8237 0
M  V30 6 C 5.899 -1.5378 -0.3351 0
M  V30 7 C 4.5147 -1.2873 -0.9602 0
M  V30 8 C 3.8903 0.0842 -0.6332 0
M  V30 9 C 3.7247 0.384 0.8695 0
M  V30 10 C 2.8993 -0.6541 1.656 0
M  V30 11 C 1.4779 -0.9026 1.119 0
M  V30 12 C 0.584 0.3471 1.1929 0
M  V30 13 C -0.8477 0.0766 0.7029 0
M  V30 14 C -1.663 -0.7752 1.692 0
M  V30 15 C -3.1559 -0.829 1.3305 0
M  V30 16 C -3.4185 -1.5998 0.0245 0
M  V30 17 C -4.9097 -1.8989 -0.196 0
M  V30 18 C -5.7279 -0.6345 -0.4985 0
M  V30 19 C -7.1844 -0.9905 -0.8323 0
M  V30 20 C -8.0126 0.2357 -1.2478 0
M  V30 21 C -8.2843 1.1921 -0.0731 0
M  V30 22 C -9.3207 2.2717 -0.4216 0
M  V30 23 C -8.7931 3.2921 -1.4298 0
M  V30 24 H 10.4768 3.0073 -0.2974 0
M  V30 25 H 9.4195 1.3426 0.842 0
M  V30 26 H 8.507 1.9151 -0.6167 0
M  V30 27 H 10.4475 -0.4817 -0.5866 0
M  V30 28 H 9.4055 0.0213 -1.9579 0
M  V30 29 H 8.5802 -1.9735 -0.6031 0
M  V30 30 H 8.3599 -0.8964 0.8157 0
M  V30 31 H 6.7061 0.4708 -0.4609 0
M  V30 32 H 6.9795 -0.5369 -1.9356 0
M  V30 33 H 5.8334 -1.5099 0.773 0
M  V30 34 H 6.2116 -2.5674 -0.6157 0
M  V30 35 H 3.8247 -2.0936 -0.6333 0
M  V30 36 H 4.6003 -1.378 -2.065 0
M  V30 37 H 2.9 0.1509 -1.1313 0
M  V30 38 H 4.5077 0.8869 -1.0888 0
M  V30 39 H 3.2596 1.386 0.982 0
M  V30 40 H 4.7278 0.4676 1.3386 0
M  V30 41 H 2.8277 -0.316 2.7128 0
M  V30 42 H 3.4469 -1.62 1.6741 0
M  V30 43 H 1.5193 -1.2816 0.0764 0
M  V30 44 H 1.0321 -1.7079 1.7392 0
M  V30 45 H 0.5606 0.7396 2.2332 0
M  V30 46 H 1.012 1.1382 0.542 0
M  V30 47 H -0.8085 -0.42 -0.2902 0
M  V30 48 H -1.3546 1.0577 0.5705 0
M  V30 49 H -1.5733 -0.3361 2.7097 0
M  V30 50 H -1.261 -1.8096 1.7336 0
M  V30 51 H -3.5509 0.2064 1.251 0
M  V30 52 H -3.6917 -1.3329 2.1645 0
M  V30 53 H -2.8777 -2.5707 0.0614 0
M  V30 54 H -3.0269 -1.0267 -0.8432 0
M  V30 55 H -5.3269 -2.4149 0.6966 0
M  V30 56 H -4.9939 -2.5973 -1.0575 0
M  V30 57 H -5.7098 0.0312 0.3885 0
M  V30 58 H -5.2727 -0.097 -1.3592 0
M  V30 59 H -7.1933 -1.7115 -1.679 0
M  V30 60 H -7.6615 -1.4901 0.0393 0
M  V30 61 H -8.9834 -0.1284 -1.6493 0
M  V30 62 H -7.488 0.7732 -2.0666 0
M  V30 63 H -8.6762 0.6076 0.7877 0
M  V30 64 H -7.3411 1.6819 0.2504 0
M  V30 65 H -9.5925 2.8123 0.511 0
M  V30 66 H -10.2467 1.8008 -0.8176 0
M  V30 67 H -8.6207 2.8157 -2.417 0
M  V30 68 H -7.8461 3.7442 -1.0657 0
M  V30 69 H -9.5423 4.1009 -1.5624 0
M  V30 END ATOM
M  V30 BEGIN BOND
M  V30 1 1 1 2
M  V30 2 1 2 3
M  V30 3 1 3 4
M  V30 4 1 4 5
M  V30 5 1 5 6
M  V30 6 1 6 7
M  V30 7 1 7 8
M  V30 8 1 8 9
M  V30 9 1 9 10
M  V30 10 1 10 11
M  V30 11 1 11 12
M  V30 12 1 12 13
M  V30 13 1 13 14
M  V30 14 1 14 15
M  V30 15 1 15 16
M  V30 16 1 16 17
M  V30 17 1 17 18
M  V30 18 1 18 19
M  V30 19 1 19 20
M  V30 20 1 20 21
M  V30 21 1 21 22
M  V30 22 1 22 23
M  V30 23 1 1 24
M  V30 24 1 2 25
M  V30 25 1 2 26
M  V30 26 1 3 27
M  V30 27 1 3 28
M  V30 28 1 4 29
M  V30 29 1 4 30
M  V30 30 1 5 31
M  V30 31 1 5 32
M  V30 32 1 6 33
M  V30 33 1 6 34
M  V30 34 1 7 35
M  V30 35 1 7 36
M  V30 36 1 8 37
M  V30 37 1 8 38
M  V30 38 1 9 39
M  V30 39 1 9 40
M  V30 40 1 10 41
M  V30 41 1 10 42
M  V30 42 1 11 43
M  V30 43 1 11 44
M  V30 44 1 12 45
M  V30 45 1 12 46
M  V30 46 1 13 47
M  V30 47 1 13 48
M  V30 48 1 14 49
M  V30 49 1 14 50
M  V30 50 1 15 51
M  V30 51 1 15 52
M  V30 52 1 16 53
M  V30 53 1 16 54
M  V30 54 1 17 55
M  V30 55 1 17 56
M  V30 56 1 18 57
M  V30 57 1 18 58
M  V30 58 1 19 59
M  V30 59 1 19 60
M  V30 60 1 20 61
M  V30 61 1 20 62
M  V30 62 1 21 63
M  V30 63 1 21 64
M  V30 64 1 22 65
M  V30 65 1 22 66
M  V30 66 1 23 67
M  V30 67 1 23 68
M  V30 68 1 23 69
M  V30 END BOND
M  V30 END CTAB
M  END
>  <Structure No>
1318

>  <LogS>
-5.514028148

>  <MMFF94 Energy>
-3.7485

$$$$
Compound 1319
Actelion Java MolfileCreator 2.0

  0  0  0  0  0  0              0 V3000
M  V30 BEGIN CTAB
M  V30 COUNTS 93 92 0 0 0
M  V30 BEGIN ATOM
M  V30 1 S -0.2367 2.0532 -0.1578 0
M  V30 2 C -1.8155 2.4269 0.6968 0
M  V30 3 C -0.3163 0.2252 -0.0465 0
M  V30 4 C -2.9 2.8468 -0.2975 0
M  V30 5 C 0.0613 -0.3012 1.3453 0
M  V30 6 C -3.4022 1.6807 -1.0907 0
M  V30 7 C 1.5285 -0.1842 1.6453 0
M  V30 8 O -3.339 1.7007 -2.3506 0
M  V30 9 O -3.9499 0.5837 -0.4196 0
M  V30 10 O 2.0955 -1.095 2.3066 0
M  V30 11 O 2.2332 0.969 1.279 0
M  V30 12 C -4.5139 -0.5344 -1.0957 0
M  V30 13 C 3.5761 1.2355 1.6803 0
M  V30 14 C -4.8993 -1.617 -0.0858 0
M  V30 15 C 4.5707 0.396 0.8729 0
M  V30 16 C -5.8039 -1.1124 1.0534 0
M  V30 17 C 6.0081 0.6578 1.3466 0
M  V30 18 C -7.2111 -0.6863 0.5878 0
M  V30 19 C 7.0423 -0.2252 0.6311 0
M  V30 20 C -7.3538 0.843 0.4839 0
M  V30 21 C 7.3236 0.2441 -0.8071 0
M  V30 22 C -8.7453 1.274 -0.0082 0
M  V30 23 C 8.3884 -0.6148 -1.5111 0
M  V30 24 C -9.8386 1.06 1.0538 0
M  V30 25 C 9.8098 -0.3394 -0.9953 0
M  V30 26 C -11.2067 1.6106 0.6194 0
M  V30 27 C 10.8489 -1.154 -1.7814 0
M  V30 28 C -11.8516 0.8729 -0.5701 0
M  V30 29 C 12.2942 -0.8297 -1.3681 0
M  V30 30 C -12.1869 -0.6057 -0.2809 0
M  V30 31 C 12.6198 -1.2924 0.0631 0
M  V30 32 C -11.1741 -1.5698 -0.9169 0
M  V30 33 C 14.1235 -1.238 0.3727 0
M  V30 34 C -11.5254 -3.0217 -0.608 0
M  V30 35 C 14.661 0.1905 0.4371 0
M  V30 36 H -2.17 1.5818 1.323 0
M  V30 37 H -1.6241 3.2805 1.3813 0
M  V30 38 H -1.3376 -0.1212 -0.3058 0
M  V30 39 H 0.3739 -0.2048 -0.8027 0
M  V30 40 H -2.5074 3.6383 -0.9724 0
M  V30 41 H -3.7561 3.2761 0.2659 0
M  V30 42 H -0.5073 0.2308 2.1355 0
M  V30 43 H -0.2302 -1.3738 1.3955 0
M  V30 44 H -5.4034 -0.2177 -1.6795 0
M  V30 45 H -3.7651 -0.9577 -1.8008 0
M  V30 46 H 3.7845 2.3114 1.4986 0
M  V30 47 H 3.6892 1.0446 2.7693 0
M  V30 48 H -5.3989 -2.4539 -0.6176 0
M  V30 49 H -3.9659 -2.0208 0.3646 0
M  V30 50 H 4.465 0.661 -0.2006 0
M  V30 51 H 4.336 -0.6833 0.9955 0
M  V30 52 H -5.2994 -0.2958 1.6161 0
M  V30 53 H -5.9189 -1.9547 1.7721 0
M  V30 54 H 6.066 0.4351 2.4344 0
M  V30 55 H 6.2668 1.73 1.2099 0
M  V30 56 H -7.4659 -1.1599 -0.3854 0
M  V30 57 H -7.9411 -1.0612 1.3356 0
M  V30 58 H 7.9799 -0.1767 1.223 0
M  V30 59 H 6.6998 -1.283 0.6285 0
M  V30 60 H -7.1437 1.3113 1.4706 0
M  V30 61 H -6.6019 1.2338 -0.2314 0
M  V30 62 H 7.6423 1.3095 -0.807 0
M  V30 63 H 6.3878 0.1733 -1.4008 0
M  V30 64 H -8.7011 2.3551 -0.2592 0
M  V30 65 H -8.9872 0.7255 -0.9405 0
M  V30 66 H 8.3522 -0.3824 -2.5975 0
M  V30 67 H 8.1426 -1.6929 -1.3906 0
M  V30 68 H -9.5388 1.5941 1.9808 0
M  V30 69 H -9.9388 -0.0094 1.3165 0
M  V30 70 H 9.8689 -0.6179 0.0757 0
M  V30 71 H 10.0359 0.7452 -1.0966 0
M  V30 72 H -11.0996 2.686 0.3566 0
M  V30 73 H -11.9005 1.5614 1.4872 0
M  V30 74 H 10.6561 -2.241 -1.647 0
M  V30 75 H 10.7446 -0.924 -2.8648 0
M  V30 76 H -11.226 0.9777 -1.4813 0
M  V30 77 H -12.8039 1.4002 -0.7975 0
M  V30 78 H 12.9755 -1.3455 -2.079 0
M  V30 79 H 12.468 0.2635 -1.4628 0
M  V30 80 H -13.1894 -0.829 -0.7102 0
M  V30 81 H -12.2538 -0.7861 0.8147 0
M  V30 82 H 12.0724 -0.6688 0.8025 0
M  V30 83 H 12.2822 -2.3433 0.1907 0
M  V30 84 H -10.1524 -1.3681 -0.5374 0
M  V30 85 H -11.1673 -1.4318 -2.0207 0
M  V30 86 H 14.6915 -1.8159 -0.3879 0
M  V30 87 H 14.297 -1.7213 1.3591 0
M  V30 88 H -11.5214 -3.1962 0.4893 0
M  V30 89 H -10.7785 -3.6943 -1.0784 0
M  V30 90 H -12.5307 -3.2684 -1.0121 0
M  V30 91 H 15.7165 0.1722 0.7845 0
M  V30 92 H 14.0622 0.8007 1.1486 0
M  V30 93 H 14.6371 0.6637 -0.5673 0
M  V30 END ATOM
M  V30 BEGIN BOND
M  V30 1 1 1 2
M  V30 2 1 1 3
M  V30 3 1 2 4
M  V30 4 1 3 5
M  V30 5 1 4 6
M  V30 6 1 5 7
M  V30 7 2 6 8
M  V30 8 1 6 9
M  V30 9 2 7 10
M  V30 10 1 7 11
M  V30 11 1 9 12
M  V30 12 1 11 13
M  V30 13 1 12 14
M  V30 14 1 13 15
M  V30 15 1 14 16
M  V30 16 1 15 17
M  V30 17 1 16 18
M  V30 18 1 17 19
M  V30 19 1 18 20
M  V30 20 1 19 21
M  V30 21 1 20 22
M  V30 22 1 21 23
M  V30 23 1 22 24
M  V30 24 1 23 25
M  V30 25 1 24 26
M  V30 26 1 25 27
M  V30 27 1 26 28
M  V30 28 1 27 29
M  V30 29 1 28 30
M  V30 30 1 29 31
M  V30 31 1 30 32
M  V30 32 1 31 33
M  V30 33 1 32 34
M  V30 34 1 33 35
M  V30 35 1 2 36
M  V30 36 1 2 37
M  V30 37 1 3 38
M  V30 38 1 3 39
M  V30 39 1 4 40
M  V30 40 1 4 41
M  V30 41 1 5 42
M  V30 42 1 5 43
M  V30 43 1 12 44
M  V30 44 1 12 45
M  V30 45 1 13 46
M  V30 46 1 13 47
M  V30 47 1 14 48
M  V30 48 1 14 49
M  V30 49 1 15 50
M  V30 50 1 15 51
M  V30 51 1 16 52
M  V30 52 1 16 53
M  V30 53 1 17 54
M  V30 54 1 17 55
M  V30 55 1 18 56
M  V30 56 1 18 57
M  V30 57 1 19 58
M  V30 58 1 19 59
M  V30 59 1 20 60
M  V30 60 1 20 61
M  V30 61 1 21 62
M  V30 62 1 21 63
M  V30 63 1 22 64
M  V30 64 1 22 65
M  V30 65 1 23 66
M  V30 66 1 23 67
M  V30 67 1 24 68
M  V30 68 1 24 69
M  V30 69 1 25 70
M  V30 70 1 25 71
M  V30 71 1 26 72
M  V30 72 1 26 73
M  V30 73 1 27 74
M  V30 74 1 27 75
M  V30 75 1 28 76
M  V30 76 1 28 77
M  V30 77 1 29 78
M  V30 78 1 29 79
M  V30 79 1 30 80
M  V30 80 1 30 81
M  V30 81 1 31 82
M  V30 82 1 31 83
M  V30 83 1 32 84
M  V30 84 1 32 85
M  V30 85 1 33 86
M  V30 86 1 33 87
M  V30 87 1 34 88
M  V30 88 1 34 89
M  V30 89 1 34 90
M  V30 90 1 35 91
M  V30 91 1 35 92
M  V30 92 1 35 93
M  V30 END BOND
M  V30 END CTAB
M  END
>  <Structure No>
1319

>  <LogS>
-5.711686622

>  <MMFF94 Energy>
-26.926

$$$$
Compound 1320
Actelion Java MolfileCreator 2.0

  0  0  0  0  0  0              0 V3000
M  V30 BEGIN CTAB
M  V30 COUNTS 39 40 0 0 0
M  V30 BEGIN ATOM
M  V30 1 O 5.0017 0.9512 -0.0792 0
M  V30 2 C 3.9875 0.22 -0.2531 0
M  V30 3 O 4.1194 -1.1746 -0.2585 0
M  V30 4 C 2.657 0.8338 -0.4581 0
M  V30 5 C 5.3516 -1.8498 -0.0145 0
M  V30 6 C 2.5037 2.2317 -0.4659 0
M  V30 7 C 1.5255 0.0245 -0.6576 0
M  V30 8 C 5.6905 -1.8302 1.4715 0
M  V30 9 C 1.2434 2.8054 -0.6574 0
M  V30 10 C 0.2663 0.6005 -0.8488 0
M  V30 11 C 0.1132 1.9977 -0.8223 0
M  V30 12 N -1.1605 2.6249 -1.0428 0
M  V30 13 C -2.3195 2.2187 -0.6087 0
M  V30 14 N -2.4643 1.1165 0.3046 0
M  V30 15 C -3.417 0.0699 3.0E-4 0
M  V30 16 C -1.8655 1.2257 1.6398 0
M  V30 17 C -4.095 -0.6244 1.0245 0
M  V30 18 C -3.6724 -0.2891 -1.3389 0
M  V30 19 C -5.0045 -1.6399 0.7131 0
M  V30 20 C -4.5821 -1.3058 -1.6431 0
M  V30 21 C -5.2481 -1.9799 -0.6185 0
M  V30 22 H 6.1718 -1.3859 -0.6044 0
M  V30 23 H 5.2465 -2.9055 -0.342 0
M  V30 24 H 3.3573 2.8833 -0.3262 0
M  V30 25 H 1.6126 -1.0545 -0.6753 0
M  V30 26 H 6.6217 -2.4079 1.6496 0
M  V30 27 H 4.8644 -2.2899 2.0543 0
M  V30 28 H 5.8457 -0.7878 1.8201 0
M  V30 29 H 1.1438 3.8837 -0.664 0
M  V30 30 H -0.5796 -0.0458 -1.0378 0
M  V30 31 H -3.2078 2.7421 -0.9374 0
M  V30 32 H -1.0062 1.9281 1.6426 0
M  V30 33 H -1.4972 0.2326 1.9741 0
M  V30 34 H -2.6201 1.6075 2.3591 0
M  V30 35 H -3.9364 -0.3802 2.0658 0
M  V30 36 H -3.1571 0.2078 -2.1507 0
M  V30 37 H -5.5222 -2.1633 1.5066 0
M  V30 38 H -4.7679 -1.5735 -2.6753 0
M  V30 39 H -5.952 -2.7669 -0.8563 0
M  V30 END ATOM
M  V30 BEGIN BOND
M  V30 1 2 1 2
M  V30 2 1 2 3
M  V30 3 1 2 4
M  V30 4 1 3 5
M  V30 5 2 4 6
M  V30 6 1 4 7
M  V30 7 1 5 8
M  V30 8 1 6 9
M  V30 9 2 7 10
M  V30 10 2 9 11
M  V30 11 1 11 12
M  V30 12 2 12 13
M  V30 13 1 13 14
M  V30 14 1 14 15
M  V30 15 1 14 16
M  V30 16 2 15 17
M  V30 17 1 15 18
M  V30 18 1 17 19
M  V30 19 2 18 20
M  V30 20 2 19 21
M  V30 21 1 10 11
M  V30 22 1 20 21
M  V30 23 1 5 22
M  V30 24 1 5 23
M  V30 25 1 6 24
M  V30 26 1 7 25
M  V30 27 1 8 26
M  V30 28 1 8 27
M  V30 29 1 8 28
M  V30 30 1 9 29
M  V30 31 1 10 30
M  V30 32 1 13 31
M  V30 33 1 16 32
M  V30 34 1 16 33
M  V30 35 1 16 34
M  V30 36 1 17 35
M  V30 37 1 18 36
M  V30 38 1 19 37
M  V30 39 1 20 38
M  V30 40 1 21 39
M  V30 END BOND
M  V30 END CTAB
M  END
>  <Structure No>
1320

>  <LogS>
-5.450777025

>  <MMFF94 Energy>
36.771

$$$$
Compound 1321
Actelion Java MolfileCreator 2.0

  0  0  0  0  0  0              0 V3000
M  V30 BEGIN CTAB
M  V30 COUNTS 106 105 0 0 0
M  V30 BEGIN ATOM
M  V30 1 O 0.0 0.549 2.5906 0
M  V30 2 C 0.5419 -0.5454 2.2768 0
M  V30 3 O -0.0306 -1.3524 1.298 0
M  V30 4 O 1.7215 -0.9614 2.897 0
M  V30 5 O -1.1458 -0.9537 0.6233 0
M  V30 6 C 2.4029 -0.1749 3.8706 0
M  V30 7 C -1.6988 -1.7652 -0.3642 0
M  V30 8 C 3.6877 -0.8779 4.3096 0
M  V30 9 O -1.1958 -2.8964 -0.6029 0
M  V30 10 O -2.7935 -1.3033 -1.0991 0
M  V30 11 C 4.6938 -0.9931 3.1513 0
M  V30 12 C -3.3638 -2.0523 -2.1685 0
M  V30 13 C 5.9502 -1.8014 3.5198 0
M  V30 14 C -4.4887 -1.2613 -2.8362 0
M  V30 15 C 6.8128 -1.1893 4.6404 0
M  V30 16 C -3.9741 0.0428 -3.4662 0
M  V30 17 C 7.313 0.2447 4.3757 0
M  V30 18 C -5.0593 0.7668 -4.2909 0
M  V30 19 C 8.1303 0.4229 3.0847 0
M  V30 20 C -5.7107 1.9539 -3.5613 0
M  V30 21 C 9.4291 -0.4006 3.0834 0
M  V30 22 C -6.5077 1.5314 -2.3197 0
M  V30 23 C 10.3248 -0.0992 1.8713 0
M  V30 24 C -7.3406 2.7005 -1.7715 0
M  V30 25 C 10.9357 1.3133 1.9209 0
M  V30 26 C -7.9221 2.4158 -0.375 0
M  V30 27 C 12.1616 1.4651 1.0057 0
M  V30 28 C -8.8747 1.2096 -0.3051 0
M  V30 29 C 11.8171 1.2958 -0.4828 0
M  V30 30 C -10.1448 1.3969 -1.1484 0
M  V30 31 C 13.03 1.6234 -1.3665 0
M  V30 32 C -11.1273 0.242 -0.9128 0
M  V30 33 C 12.7087 1.5791 -2.872 0
M  V30 34 C -12.3874 0.3945 -1.7779 0
M  V30 35 C 12.3469 0.1855 -3.4141 0
M  V30 36 C -13.3825 -0.7574 -1.5494 0
M  V30 37 C 13.4922 -0.8183 -3.2947 0
M  V30 38 C -14.2695 -0.5236 -0.3124 0
M  V30 39 C -15.092 -1.7701 0.0581 0
M  V30 40 C -14.2721 -2.777 0.8678 0
M  V30 41 H 2.6484 0.8221 3.4467 0
M  V30 42 H 1.7449 -0.0329 4.7552 0
M  V30 43 H 3.4356 -1.8882 4.6965 0
M  V30 44 H 4.1344 -0.2898 5.1389 0
M  V30 45 H 4.98 0.0169 2.7924 0
M  V30 46 H 4.2048 -1.5114 2.2985 0
M  V30 47 H -3.779 -3.0046 -1.7721 0
M  V30 48 H -2.5804 -2.2974 -2.9181 0
M  V30 49 H 6.5702 -1.9364 2.6084 0
M  V30 50 H 5.6381 -2.8204 3.8348 0
M  V30 51 H -5.2753 -1.0474 -2.0863 0
M  V30 52 H -4.933 -1.9007 -3.6273 0
M  V30 53 H 7.6839 -1.8547 4.8172 0
M  V30 54 H 6.2362 -1.192 5.5893 0
M  V30 55 H -3.1302 -0.2065 -4.1436 0
M  V30 56 H -3.5679 0.7104 -2.6795 0
M  V30 57 H 7.9401 0.5595 5.2379 0
M  V30 58 H 6.4469 0.9404 4.3523 0
M  V30 59 H -4.583 1.1691 -5.2103 0
M  V30 60 H -5.8436 0.0589 -4.635 0
M  V30 61 H 7.5159 0.1643 2.1978 0
M  V30 62 H 8.3785 1.501 3.0027 0
M  V30 63 H -4.9288 2.6908 -3.2717 0
M  V30 64 H -6.3967 2.4591 -4.2768 0
M  V30 65 H 9.1722 -1.4798 3.0491 0
M  V30 66 H 9.9986 -0.2223 4.0209 0
M  V30 67 H -5.8007 1.191 -1.5342 0
M  V30 68 H -7.1839 0.6931 -2.5915 0
M  V30 69 H 9.7364 -0.2234 0.9366 0
M  V30 70 H 11.1427 -0.8534 1.8589 0
M  V30 71 H -6.6907 3.6001 -1.6848 0
M  V30 72 H -8.1551 2.9563 -2.4826 0
M  V30 73 H 11.2606 1.5408 2.9578 0
M  V30 74 H 10.1724 2.0668 1.6335 0
M  V30 75 H -7.0827 2.2428 0.3315 0
M  V30 76 H -8.458 3.3218 -0.0213 0
M  V30 77 H 12.9428 0.7296 1.2991 0
M  V30 78 H 12.5813 2.4817 1.169 0
M  V30 79 H -8.3464 0.282 -0.614 0
M  V30 80 H -9.1681 1.0768 0.7596 0
M  V30 81 H 11.506 0.2457 -0.6584 0
M  V30 82 H 10.9741 1.9703 -0.75 0
M  V30 83 H -9.8753 1.4263 -2.2262 0
M  V30 84 H -10.6335 2.3579 -0.8754 0
M  V30 85 H 13.3753 2.6536 -1.1292 0
M  V30 86 H 13.8709 0.9396 -1.1278 0
M  V30 87 H -11.4073 0.2172 0.1613 0
M  V30 88 H -10.6252 -0.7183 -1.1662 0
M  V30 89 H 11.8647 2.2718 -3.0831 0
M  V30 90 H 13.5887 1.9635 -3.4332 0
M  V30 91 H -12.084 0.3885 -2.848 0
M  V30 92 H -12.8786 1.3726 -1.5718 0
M  V30 93 H 12.0928 0.2925 -4.4909 0
M  V30 94 H 11.4438 -0.2137 -2.9074 0
M  V30 95 H -12.8306 -1.7182 -1.4689 0
M  V30 96 H -14.0434 -0.8349 -2.4418 0
M  V30 97 H 14.4243 -0.3994 -3.7303 0
M  V30 98 H 13.2295 -1.7444 -3.8481 0
M  V30 99 H 13.6667 -1.0884 -2.2327 0
M  V30 100 H -13.6615 -0.2069 0.5608 0
M  V30 101 H -14.9739 0.3077 -0.5394 0
M  V30 102 H -15.9624 -1.4546 0.6751 0
M  V30 103 H -15.4902 -2.2638 -0.8545 0
M  V30 104 H -14.9139 -3.6391 1.1517 0
M  V30 105 H -13.4163 -3.1573 0.2748 0
M  V30 106 H -13.8909 -2.3004 1.7971 0
M  V30 END ATOM
M  V30 BEGIN BOND
M  V30 1 2 1 2
M  V30 2 1 2 3
M  V30 3 1 2 4
M  V30 4 1 3 5
M  V30 5 1 4 6
M  V30 6 1 5 7
M  V30 7 1 6 8
M  V30 8 2 7 9
M  V30 9 1 7 10
M  V30 10 1 8 11
M  V30 11 1 10 12
M  V30 12 1 11 13
M  V30 13 1 12 14
M  V30 14 1 13 15
M  V30 15 1 14 16
M  V30 16 1 15 17
M  V30 17 1 16 18
M  V30 18 1 17 19
M  V30 19 1 18 20
M  V30 20 1 19 21
M  V30 21 1 20 22
M  V30 22 1 21 23
M  V30 23 1 22 24
M  V30 24 1 23 25
M  V30 25 1 24 26
M  V30 26 1 25 27
M  V30 27 1 26 28
M  V30 28 1 27 29
M  V30 29 1 28 30
M  V30 30 1 29 31
M  V30 31 1 30 32
M  V30 32 1 31 33
M  V30 33 1 32 34
M  V30 34 1 33 35
M  V30 35 1 34 36
M  V30 36 1 35 37
M  V30 37 1 36 38
M  V30 38 1 38 39
M  V30 39 1 39 40
M  V30 40 1 6 41
M  V30 41 1 6 42
M  V30 42 1 8 43
M  V30 43 1 8 44
M  V30 44 1 11 45
M  V30 45 1 11 46
M  V30 46 1 12 47
M  V30 47 1 12 48
M  V30 48 1 13 49
M  V30 49 1 13 50
M  V30 50 1 14 51
M  V30 51 1 14 52
M  V30 52 1 15 53
M  V30 53 1 15 54
M  V30 54 1 16 55
M  V30 55 1 16 56
M  V30 56 1 17 57
M  V30 57 1 17 58
M  V30 58 1 18 59
M  V30 59 1 18 60
M  V30 60 1 19 61
M  V30 61 1 19 62
M  V30 62 1 20 63
M  V30 63 1 20 64
M  V30 64 1 21 65
M  V30 65 1 21 66
M  V30 66 1 22 67
M  V30 67 1 22 68
M  V30 68 1 23 69
M  V30 69 1 23 70
M  V30 70 1 24 71
M  V30 71 1 24 72
M  V30 72 1 25 73
M  V30 73 1 25 74
M  V30 74 1 26 75
M  V30 75 1 26 76
M  V30 76 1 27 77
M  V30 77 1 27 78
M  V30 78 1 28 79
M  V30 79 1 28 80
M  V30 80 1 29 81
M  V30 81 1 29 82
M  V30 82 1 30 83
M  V30 83 1 30 84
M  V30 84 1 31 85
M  V30 85 1 31 86
M  V30 86 1 32 87
M  V30 87 1 32 88
M  V30 88 1 33 89
M  V30 89 1 33 90
M  V30 90 1 34 91
M  V30 91 1 34 92
M  V30 92 1 35 93
M  V30 93 1 35 94
M  V30 94 1 36 95
M  V30 95 1 36 96
M  V30 96 1 37 97
M  V30 97 1 37 98
M  V30 98 1 37 99
M  V30 99 1 38 100
M  V30 100 1 38 101
M  V30 101 1 39 102
M  V30 102 1 39 103
M  V30 103 1 40 104
M  V30 104 1 40 105
M  V30 105 1 40 106
M  V30 END BOND
M  V30 END CTAB
M  END
>  <Structure No>
1321

>  <LogS>
-5.756557

>  <MMFF94 Energy>
-25.343

$$$$
Compound 1322
Actelion Java MolfileCreator 2.0

  0  0  0  0  0  0              0 V3000
M  V30 BEGIN CTAB
M  V30 COUNTS 19 18 0 0 0
M  V30 BEGIN ATOM
M  V30 1 O 3.4678 0.3078 1.3859 0
M  V30 2 C 3.1321 -0.4298 0.4731 0
M  V30 3 C 1.6808 -0.6793 0.1919 0
M  V30 4 C 0.9851 0.6081 -0.2719 0
M  V30 5 C -0.4657 0.3682 -0.7183 0
M  V30 6 C -1.4002 0.0488 0.4576 0
M  V30 7 C -2.8503 -0.0558 -0.006 0
M  V30 8 H 3.8923 -0.9174 -0.1282 0
M  V30 9 H 1.5995 -1.4544 -0.6004 0
M  V30 10 H 1.2035 -1.0682 1.1157 0
M  V30 11 H 1.5458 1.0256 -1.1372 0
M  V30 12 H 1.007 1.3668 0.5412 0
M  V30 13 H -0.4992 -0.4562 -1.4639 0
M  V30 14 H -0.8261 1.292 -1.2219 0
M  V30 15 H -1.3267 0.8487 1.2261 0
M  V30 16 H -1.1112 -0.9169 0.9231 0
M  V30 17 H -3.1863 0.9076 -0.4451 0
M  V30 18 H -3.5015 -0.2962 0.8607 0
M  V30 19 H -2.9557 -0.8611 -0.7637 0
M  V30 END ATOM
M  V30 BEGIN BOND
M  V30 1 2 1 2
M  V30 2 1 2 3
M  V30 3 1 3 4
M  V30 4 1 4 5
M  V30 5 1 5 6
M  V30 6 1 6 7
M  V30 7 1 2 8
M  V30 8 1 3 9
M  V30 9 1 3 10
M  V30 10 1 4 11
M  V30 11 1 4 12
M  V30 12 1 5 13
M  V30 13 1 5 14
M  V30 14 1 6 15
M  V30 15 1 6 16
M  V30 16 1 7 17
M  V30 17 1 7 18
M  V30 18 1 7 19
M  V30 END BOND
M  V30 END CTAB
M  END
>  <Structure No>
1322

>  <LogS>
-5.412221914

>  <MMFF94 Energy>
-2.1099

$$$$
Compound 1323
Actelion Java MolfileCreator 2.0

  0  0  0  0  0  0              0 V3000
M  V30 BEGIN CTAB
M  V30 COUNTS 63 62 0 0 0
M  V30 BEGIN ATOM
M  V30 1 O -9.0548 0.778 1.946 0
M  V30 2 C -9.7901 0.3393 0.8355 0
M  V30 3 C -9.0333 0.6167 -0.468 0
M  V30 4 C -7.7156 -0.1662 -0.5388 0
M  V30 5 C -6.9784 0.1188 -1.856 0
M  V30 6 C -5.7216 -0.7482 -2.0323 0
M  V30 7 C -4.5992 -0.3724 -1.0531 0
M  V30 8 C -3.3059 -1.1343 -1.3822 0
M  V30 9 C -2.2069 -0.9245 -0.3274 0
M  V30 10 C -1.573 0.4749 -0.4041 0
M  V30 11 C -0.5345 0.7249 0.705 0
M  V30 12 C 0.694 -0.2026 0.6769 0
M  V30 13 C 1.5175 -0.0679 -0.615 0
M  V30 14 C 2.8073 -0.904 -0.5825 0
M  V30 15 C 3.8997 -0.2771 0.2977 0
M  V30 16 C 5.2124 -1.0676 0.1855 0
M  V30 17 C 6.2923 -0.5721 1.1611 0
M  V30 18 C 6.9034 0.7732 0.7325 0
M  V30 19 C 7.9478 1.3027 1.7328 0
M  V30 20 C 9.2067 0.4285 1.8828 0
M  V30 21 C 9.9913 0.2785 0.5795 0
M  V30 22 H -9.117 1.7689 1.9545 0
M  V30 23 H -10.7801 0.8485 0.8074 0
M  V30 24 H -9.9781 -0.751 0.9353 0
M  V30 25 H -9.683 0.3229 -1.3213 0
M  V30 26 H -8.8292 1.7073 -0.5487 0
M  V30 27 H -7.9311 -1.2547 -0.4623 0
M  V30 28 H -7.074 0.1308 0.3177 0
M  V30 29 H -7.6631 -0.0961 -2.7056 0
M  V30 30 H -6.703 1.1952 -1.9098 0
M  V30 31 H -5.3533 -0.6071 -3.072 0
M  V30 32 H -5.9859 -1.8215 -1.911 0
M  V30 33 H -4.417 0.7207 -1.1175 0
M  V30 34 H -4.9123 -0.6223 -0.0172 0
M  V30 35 H -3.5344 -2.2222 -1.4263 0
M  V30 36 H -2.9302 -0.83 -2.3838 0
M  V30 37 H -2.6197 -1.102 0.6897 0
M  V30 38 H -1.4219 -1.6873 -0.513 0
M  V30 39 H -2.3649 1.2429 -0.2841 0
M  V30 40 H -1.1178 0.6344 -1.4039 0
M  V30 41 H -1.0338 0.6192 1.693 0
M  V30 42 H -0.1875 1.7787 0.6316 0
M  V30 43 H 0.3848 -1.2586 0.824 0
M  V30 44 H 1.3264 0.0711 1.5465 0
M  V30 45 H 1.7624 1.0 -0.8042 0
M  V30 46 H 0.9084 -0.4328 -1.4688 0
M  V30 47 H 2.5799 -1.9347 -0.2316 0
M  V30 48 H 3.1915 -0.9812 -1.6237 0
M  V30 49 H 3.5706 -0.2731 1.358 0
M  V30 50 H 4.066 0.7713 -0.0274 0
M  V30 51 H 5.5968 -1.0195 -0.857 0
M  V30 52 H 5.0052 -2.1354 0.4183 0
M  V30 53 H 7.0917 -1.342 1.1853 0
M  V30 54 H 5.8683 -0.4907 2.186 0
M  V30 55 H 6.1 1.5361 0.6691 0
M  V30 56 H 7.3496 0.6859 -0.2801 0
M  V30 57 H 7.4692 1.41 2.7313 0
M  V30 58 H 8.2572 2.3222 1.4121 0
M  V30 59 H 8.945 -0.5739 2.2813 0
M  V30 60 H 9.8713 0.9098 2.6329 0
M  V30 61 H 10.9645 -0.2135 0.7883 0
M  V30 62 H 9.4344 -0.3554 -0.1403 0
M  V30 63 H 10.1883 1.2737 0.1267 0
M  V30 END ATOM
M  V30 BEGIN BOND
M  V30 1 1 1 2
M  V30 2 1 2 3
M  V30 3 1 3 4
M  V30 4 1 4 5
M  V30 5 1 5 6
M  V30 6 1 6 7
M  V30 7 1 7 8
M  V30 8 1 8 9
M  V30 9 1 9 10
M  V30 10 1 10 11
M  V30 11 1 11 12
M  V30 12 1 12 13
M  V30 13 1 13 14
M  V30 14 1 14 15
M  V30 15 1 15 16
M  V30 16 1 16 17
M  V30 17 1 17 18
M  V30 18 1 18 19
M  V30 19 1 19 20
M  V30 20 1 20 21
M  V30 21 1 1 22
M  V30 22 1 2 23
M  V30 23 1 2 24
M  V30 24 1 3 25
M  V30 25 1 3 26
M  V30 26 1 4 27
M  V30 27 1 4 28
M  V30 28 1 5 29
M  V30 29 1 5 30
M  V30 30 1 6 31
M  V30 31 1 6 32
M  V30 32 1 7 33
M  V30 33 1 7 34
M  V30 34 1 8 35
M  V30 35 1 8 36
M  V30 36 1 9 37
M  V30 37 1 9 38
M  V30 38 1 10 39
M  V30 39 1 10 40
M  V30 40 1 11 41
M  V30 41 1 11 42
M  V30 42 1 12 43
M  V30 43 1 12 44
M  V30 44 1 13 45
M  V30 45 1 13 46
M  V30 46 1 14 47
M  V30 47 1 14 48
M  V30 48 1 15 49
M  V30 49 1 15 50
M  V30 50 1 16 51
M  V30 51 1 16 52
M  V30 52 1 17 53
M  V30 53 1 17 54
M  V30 54 1 18 55
M  V30 55 1 18 56
M  V30 56 1 19 57
M  V30 57 1 19 58
M  V30 58 1 20 59
M  V30 59 1 20 60
M  V30 60 1 21 61
M  V30 61 1 21 62
M  V30 62 1 21 63
M  V30 END BOND
M  V30 END CTAB
M  END
>  <Structure No>
1323

>  <LogS>
-5.475024349

>  <MMFF94 Energy>
-4.1235

$$$$
Compound 1324
Actelion Java MolfileCreator 2.0

  0  0  0  0  0  0              0 V3000
M  V30 BEGIN CTAB
M  V30 COUNTS 57 56 0 0 0
M  V30 BEGIN ATOM
M  V30 1 O 8.0341 0.8556 -2.1011 0
M  V30 2 C 7.9749 1.5397 -0.8782 0
M  V30 3 C 6.5263 1.8923 -0.5102 0
M  V30 4 C 5.594 0.671 -0.4298 0
M  V30 5 C 5.8591 -0.1948 0.8124 0
M  V30 6 C 4.9646 -1.4454 0.87 0
M  V30 7 C 3.4688 -1.127 1.0808 0
M  V30 8 C 2.6554 -1.2824 -0.2163 0
M  V30 9 C 1.2202 -0.75 -0.0817 0
M  V30 10 C 0.3639 -1.5951 0.8776 0
M  V30 11 C -1.125 -1.2187 0.8242 0
M  V30 12 C -1.3977 0.1885 1.3803 0
M  V30 13 C -2.8946 0.4619 1.6054 0
M  V30 14 C -3.715 0.5259 0.2992 0
M  V30 15 C -4.5185 -0.7632 0.0502 0
M  V30 16 C -5.3529 -0.6896 -1.2466 0
M  V30 17 C -6.8515 -0.4425 -1.0029 0
M  V30 18 C -7.1402 0.9476 -0.4205 0
M  V30 19 C -8.6408 1.2185 -0.3606 0
M  V30 20 H 7.8605 1.5276 -2.8111 0
M  V30 21 H 8.5775 2.4744 -0.9353 0
M  V30 22 H 8.4325 0.91 -0.0883 0
M  V30 23 H 6.1291 2.5888 -1.2805 0
M  V30 24 H 6.5165 2.4362 0.4595 0
M  V30 25 H 5.6866 0.0568 -1.3515 0
M  V30 26 H 4.5529 1.0551 -0.3822 0
M  V30 27 H 6.9132 -0.5416 0.8031 0
M  V30 28 H 5.7123 0.411 1.7334 0
M  V30 29 H 5.1219 -2.0648 -0.0406 0
M  V30 30 H 5.3125 -2.0601 1.7292 0
M  V30 31 H 3.0653 -1.8372 1.8345 0
M  V30 32 H 3.3399 -0.1033 1.4963 0
M  V30 33 H 2.632 -2.353 -0.5162 0
M  V30 34 H 3.1504 -0.7227 -1.0372 0
M  V30 35 H 0.7538 -0.7626 -1.0911 0
M  V30 36 H 1.2529 0.3058 0.2628 0
M  V30 37 H 0.7328 -1.4837 1.9199 0
M  V30 38 H 0.4567 -2.6673 0.5979 0
M  V30 39 H -1.6884 -1.9637 1.4276 0
M  V30 40 H -1.4815 -1.2871 -0.2256 0
M  V30 41 H -0.8803 0.3001 2.3584 0
M  V30 42 H -0.9854 0.957 0.6917 0
M  V30 43 H -3.3144 -0.2873 2.3121 0
M  V30 44 H -2.976 1.448 2.1132 0
M  V30 45 H -4.4203 1.3804 0.3701 0
M  V30 46 H -3.0516 0.7305 -0.5697 0
M  V30 47 H -3.8126 -1.6154 -0.035 0
M  V30 48 H -5.1727 -0.9758 0.9244 0
M  V30 49 H -5.2617 -1.6653 -1.7727 0
M  V30 50 H -4.9523 0.0789 -1.9439 0
M  V30 51 H -7.3762 -0.5416 -1.9787 0
M  V30 52 H -7.2547 -1.2262 -0.3243 0
M  V30 53 H -6.6589 1.7285 -1.0486 0
M  V30 54 H -6.7331 1.0154 0.6104 0
M  V30 55 H -8.8202 2.2232 0.0774 0
M  V30 56 H -9.1448 0.4588 0.2742 0
M  V30 57 H -9.0793 1.1937 -1.3809 0
M  V30 END ATOM
M  V30 BEGIN BOND
M  V30 1 1 1 2
M  V30 2 1 2 3
M  V30 3 1 3 4
M  V30 4 1 4 5
M  V30 5 1 5 6
M  V30 6 1 6 7
M  V30 7 1 7 8
M  V30 8 1 8 9
M  V30 9 1 9 10
M  V30 10 1 10 11
M  V30 11 1 11 12
M  V30 12 1 12 13
M  V30 13 1 13 14
M  V30 14 1 14 15
M  V30 15 1 15 16
M  V30 16 1 16 17
M  V30 17 1 17 18
M  V30 18 1 18 19
M  V30 19 1 1 20
M  V30 20 1 2 21
M  V30 21 1 2 22
M  V30 22 1 3 23
M  V30 23 1 3 24
M  V30 24 1 4 25
M  V30 25 1 4 26
M  V30 26 1 5 27
M  V30 27 1 5 28
M  V30 28 1 6 29
M  V30 29 1 6 30
M  V30 30 1 7 31
M  V30 31 1 7 32
M  V30 32 1 8 33
M  V30 33 1 8 34
M  V30 34 1 9 35
M  V30 35 1 9 36
M  V30 36 1 10 37
M  V30 37 1 10 38
M  V30 38 1 11 39
M  V30 39 1 11 40
M  V30 40 1 12 41
M  V30 41 1 12 42
M  V30 42 1 13 43
M  V30 43 1 13 44
M  V30 44 1 14 45
M  V30 45 1 14 46
M  V30 46 1 15 47
M  V30 47 1 15 48
M  V30 48 1 16 49
M  V30 49 1 16 50
M  V30 50 1 17 51
M  V30 51 1 17 52
M  V30 52 1 18 53
M  V30 53 1 18 54
M  V30 54 1 19 55
M  V30 55 1 19 56
M  V30 56 1 19 57
M  V30 END BOND
M  V30 END CTAB
M  END
>  <Structure No>
1324

>  <LogS>
-5.432168875

>  <MMFF94 Energy>
-1.1643

$$$$
Compound 1325
Actelion Java MolfileCreator 2.0

  0  0  0  0  0  0              0 V3000
M  V30 BEGIN CTAB
M  V30 COUNTS 47 46 0 0 0
M  V30 BEGIN ATOM
M  V30 1 O -3.3548 1.4813 -0.7014 0
M  V30 2 C -3.6222 0.5869 0.1468 0
M  V30 3 O -4.8105 -0.1472 0.0644 0
M  V30 4 C -2.6408 0.2756 1.2336 0
M  V30 5 C -5.8115 0.0814 -0.9271 0
M  V30 6 C -1.9402 -1.0721 1.0026 0
M  V30 7 C -6.7311 -1.136 -0.9907 0
M  V30 8 C -6.613 1.3416 -0.589 0
M  V30 9 C -1.1411 -1.1601 -0.3136 0
M  V30 10 C -0.0258 -0.1108 -0.4693 0
M  V30 11 C 1.0537 -0.2194 0.6171 0
M  V30 12 C 2.2261 0.7238 0.3226 0
M  V30 13 C 3.294 0.6377 1.4235 0
M  V30 14 C 4.5129 1.5361 1.1254 0
M  V30 15 C 5.7355 0.7623 0.6037 0
M  V30 16 C 5.5062 0.1481 -0.7834 0
M  V30 17 C 6.7936 -0.4544 -1.3378 0
M  V30 18 H -1.8944 1.0921 1.3306 0
M  V30 19 H -3.1918 0.2275 2.1971 0
M  V30 20 H -5.3327 0.2053 -1.924 0
M  V30 21 H -2.7082 -1.8764 0.998 0
M  V30 22 H -1.2711 -1.2847 1.8627 0
M  V30 23 H -7.5057 -0.9944 -1.7743 0
M  V30 24 H -6.1376 -2.0403 -1.2426 0
M  V30 25 H -7.2291 -1.2987 -0.0108 0
M  V30 26 H -7.0828 1.2442 0.413 0
M  V30 27 H -5.9476 2.2297 -0.5844 0
M  V30 28 H -7.4071 1.5077 -1.3481 0
M  V30 29 H -1.8404 -1.0643 -1.172 0
M  V30 30 H -0.6905 -2.1741 -0.383 0
M  V30 31 H -0.4574 0.9122 -0.4769 0
M  V30 32 H 0.4473 -0.2701 -1.4629 0
M  V30 33 H 1.4272 -1.2658 0.6645 0
M  V30 34 H 0.6179 0.0497 1.6029 0
M  V30 35 H 2.6701 0.459 -0.6594 0
M  V30 36 H 1.8489 1.7686 0.2625 0
M  V30 37 H 3.6102 -0.4187 1.5673 0
M  V30 38 H 2.8333 0.9721 2.3794 0
M  V30 39 H 4.8171 2.032 2.0731 0
M  V30 40 H 4.2506 2.3518 0.4159 0
M  V30 41 H 6.01 -0.0358 1.3279 0
M  V30 42 H 6.5896 1.4725 0.5481 0
M  V30 43 H 4.745 -0.6577 -0.7166 0
M  V30 44 H 5.1425 0.9281 -1.4872 0
M  V30 45 H 7.57 0.3315 -1.4533 0
M  V30 46 H 7.172 -1.2474 -0.6581 0
M  V30 47 H 6.5946 -0.9046 -2.3331 0
M  V30 END ATOM
M  V30 BEGIN BOND
M  V30 1 2 1 2
M  V30 2 1 2 3
M  V30 3 1 2 4
M  V30 4 1 3 5
M  V30 5 1 4 6
M  V30 6 1 5 7
M  V30 7 1 5 8
M  V30 8 1 6 9
M  V30 9 1 9 10
M  V30 10 1 10 11
M  V30 11 1 11 12
M  V30 12 1 12 13
M  V30 13 1 13 14
M  V30 14 1 14 15
M  V30 15 1 15 16
M  V30 16 1 16 17
M  V30 17 1 4 18
M  V30 18 1 4 19
M  V30 19 1 5 20
M  V30 20 1 6 21
M  V30 21 1 6 22
M  V30 22 1 7 23
M  V30 23 1 7 24
M  V30 24 1 7 25
M  V30 25 1 8 26
M  V30 26 1 8 27
M  V30 27 1 8 28
M  V30 28 1 9 29
M  V30 29 1 9 30
M  V30 30 1 10 31
M  V30 31 1 10 32
M  V30 32 1 11 33
M  V30 33 1 11 34
M  V30 34 1 12 35
M  V30 35 1 12 36
M  V30 36 1 13 37
M  V30 37 1 13 38
M  V30 38 1 14 39
M  V30 39 1 14 40
M  V30 40 1 15 41
M  V30 41 1 15 42
M  V30 42 1 16 43
M  V30 43 1 16 44
M  V30 44 1 17 45
M  V30 45 1 17 46
M  V30 46 1 17 47
M  V30 END BOND
M  V30 END CTAB
M  END
>  <Structure No>
1325

>  <LogS>
-5.38453799

>  <MMFF94 Energy>
-10.572

$$$$
Compound 1326
Actelion Java MolfileCreator 2.0

  0  0  0  0  0  0              0 V3000
M  V30 BEGIN CTAB
M  V30 COUNTS 75 74 0 0 0
M  V30 BEGIN ATOM
M  V30 1 O -11.1112 0.3896 2.7297 0
M  V30 2 C -10.0713 -0.0922 1.9232 0
M  V30 3 C -10.569 -0.2971 0.4873 0
M  V30 4 C -9.5158 -0.9502 -0.4236 0
M  V30 5 C -8.3216 -0.026 -0.7454 0
M  V30 6 C -7.068 -0.3897 0.0706 0
M  V30 7 C -5.9194 0.612 -0.1302 0
M  V30 8 C -5.2873 0.5173 -1.5306 0
M  V30 9 C -4.0324 1.4072 -1.6621 0
M  V30 10 C -2.7099 0.6223 -1.6284 0
M  V30 11 C -2.4322 -0.0175 -0.2589 0
M  V30 12 C -1.0923 -0.7748 -0.2026 0
M  V30 13 C 0.1661 0.0759 -0.4599 0
M  V30 14 C 0.3381 1.2255 0.5458 0
M  V30 15 C 1.5877 2.0787 0.2674 0
M  V30 16 C 2.9181 1.3457 0.5447 0
M  V30 17 C 3.619 0.9 -0.7474 0
M  V30 18 C 4.9598 0.2188 -0.4401 0
M  V30 19 C 5.5979 -0.3526 -1.716 0
M  V30 20 C 7.1132 -0.5991 -1.5898 0
M  V30 21 C 7.499 -1.8615 -0.7879 0
M  V30 22 C 7.5673 -1.698 0.7451 0
M  V30 23 C 8.4901 -0.577 1.258 0
M  V30 24 C 9.9421 -0.7335 0.7844 0
M  V30 25 C 10.8539 0.2827 1.4662 0
M  V30 26 H -11.6944 -0.3875 2.9378 0
M  V30 27 H -9.2542 0.6594 1.9323 0
M  V30 28 H -9.6734 -1.0479 2.3369 0
M  V30 29 H -11.462 -0.96 0.5119 0
M  V30 30 H -10.8887 0.6792 0.0603 0
M  V30 31 H -9.1756 -1.9129 0.0175 0
M  V30 32 H -10.0227 -1.2089 -1.3792 0
M  V30 33 H -8.0852 -0.1365 -1.8257 0
M  V30 34 H -8.591 1.0399 -0.5779 0
M  V30 35 H -7.3214 -0.4059 1.1513 0
M  V30 36 H -6.7251 -1.4118 -0.2018 0
M  V30 37 H -5.1462 0.4037 0.6391 0
M  V30 38 H -6.2873 1.647 0.0465 0
M  V30 39 H -5.0455 -0.5408 -1.7722 0
M  V30 40 H -6.0349 0.859 -2.2785 0
M  V30 41 H -4.0783 1.9301 -2.6423 0
M  V30 42 H -4.019 2.2043 -0.8858 0
M  V30 43 H -1.8996 1.3399 -1.8724 0
M  V30 44 H -2.717 -0.1615 -2.4169 0
M  V30 45 H -2.4784 0.7494 0.5419 0
M  V30 46 H -3.2295 -0.7598 -0.0436 0
M  V30 47 H -1.1183 -1.5987 -0.9486 0
M  V30 48 H -1.0003 -1.2493 0.7981 0
M  V30 49 H 0.1607 0.4695 -1.4972 0
M  V30 50 H 1.0358 -0.6071 -0.3737 0
M  V30 51 H -0.5374 1.9051 0.48 0
M  V30 52 H 0.3781 0.8226 1.5816 0
M  V30 53 H 1.5368 2.9641 0.9392 0
M  V30 54 H 1.5498 2.4749 -0.7714 0
M  V30 55 H 3.5985 2.0412 1.0857 0
M  V30 56 H 2.754 0.4686 1.2093 0
M  V30 57 H 3.8052 1.7898 -1.3882 0
M  V30 58 H 2.9687 0.1978 -1.3094 0
M  V30 59 H 4.7753 -0.6079 0.2756 0
M  V30 60 H 5.6414 0.9622 0.0303 0
M  V30 61 H 5.0784 -1.2931 -2.0058 0
M  V30 62 H 5.4517 0.373 -2.548 0
M  V30 63 H 7.4955 -0.7481 -2.624 0
M  V30 64 H 7.6282 0.3089 -1.2171 0
M  V30 65 H 6.7871 -2.6817 -1.0248 0
M  V30 66 H 8.4917 -2.212 -1.1432 0
M  V30 67 H 6.5533 -1.5405 1.1575 0
M  V30 68 H 7.9202 -2.6618 1.1754 0
M  V30 69 H 8.0945 0.4182 0.9646 0
M  V30 70 H 8.4708 -0.6125 2.3696 0
M  V30 71 H 10.3056 -1.7584 1.0159 0
M  V30 72 H 10.0006 -0.5735 -0.3122 0
M  V30 73 H 11.8952 0.1439 1.1084 0
M  V30 74 H 10.8342 0.1447 2.5696 0
M  V30 75 H 10.5268 1.3171 1.2204 0
M  V30 END ATOM
M  V30 BEGIN BOND
M  V30 1 1 1 2
M  V30 2 1 2 3
M  V30 3 1 3 4
M  V30 4 1 4 5
M  V30 5 1 5 6
M  V30 6 1 6 7
M  V30 7 1 7 8
M  V30 8 1 8 9
M  V30 9 1 9 10
M  V30 10 1 10 11
M  V30 11 1 11 12
M  V30 12 1 12 13
M  V30 13 1 13 14
M  V30 14 1 14 15
M  V30 15 1 15 16
M  V30 16 1 16 17
M  V30 17 1 17 18
M  V30 18 1 18 19
M  V30 19 1 19 20
M  V30 20 1 20 21
M  V30 21 1 21 22
M  V30 22 1 22 23
M  V30 23 1 23 24
M  V30 24 1 24 25
M  V30 25 1 1 26
M  V30 26 1 2 27
M  V30 27 1 2 28
M  V30 28 1 3 29
M  V30 29 1 3 30
M  V30 30 1 4 31
M  V30 31 1 4 32
M  V30 32 1 5 33
M  V30 33 1 5 34
M  V30 34 1 6 35
M  V30 35 1 6 36
M  V30 36 1 7 37
M  V30 37 1 7 38
M  V30 38 1 8 39
M  V30 39 1 8 40
M  V30 40 1 9 41
M  V30 41 1 9 42
M  V30 42 1 10 43
M  V30 43 1 10 44
M  V30 44 1 11 45
M  V30 45 1 11 46
M  V30 46 1 12 47
M  V30 47 1 12 48
M  V30 48 1 13 49
M  V30 49 1 13 50
M  V30 50 1 14 51
M  V30 51 1 14 52
M  V30 52 1 15 53
M  V30 53 1 15 54
M  V30 54 1 16 55
M  V30 55 1 16 56
M  V30 56 1 17 57
M  V30 57 1 17 58
M  V30 58 1 18 59
M  V30 59 1 18 60
M  V30 60 1 19 61
M  V30 61 1 19 62
M  V30 62 1 20 63
M  V30 63 1 20 64
M  V30 64 1 21 65
M  V30 65 1 21 66
M  V30 66 1 22 67
M  V30 67 1 22 68
M  V30 68 1 23 69
M  V30 69 1 23 70
M  V30 70 1 24 71
M  V30 71 1 24 72
M  V30 72 1 25 73
M  V30 73 1 25 74
M  V30 74 1 25 75
M  V30 END BOND
M  V30 END CTAB
M  END
>  <Structure No>
1326

>  <LogS>
-5.549815883

>  <MMFF94 Energy>
-5.2786

$$$$
Compound 1327
Actelion Java MolfileCreator 2.0

  0  0  0  0  0  0              0 V3000
M  V30 BEGIN CTAB
M  V30 COUNTS 33 32 0 0 0
M  V30 BEGIN ATOM
M  V30 1 C -2.0068 0.8486 0.9258 0
M  V30 2 C -2.8085 -0.1031 1.4389 0
M  V30 3 C -1.7577 1.0582 -0.5479 0
M  V30 4 C -3.6533 -1.0454 0.6198 0
M  V30 5 C -0.6507 0.1356 -1.0794 0
M  V30 6 C -5.0138 -0.4274 0.3142 0
M  V30 7 C 0.7297 0.5021 -0.5143 0
M  V30 8 C 1.8194 -0.4133 -1.0917 0
M  V30 9 C 3.233 -0.0034 -0.649 0
M  V30 10 C 3.4983 -0.302 0.8339 0
M  V30 11 C 4.9501 -0.0094 1.2017 0
M  V30 12 H -1.4813 1.5 1.6183 0
M  V30 13 H -2.8903 -0.1721 2.5199 0
M  V30 14 H -1.4621 2.1168 -0.7132 0
M  V30 15 H -2.6894 0.8981 -1.1288 0
M  V30 16 H -3.8124 -1.9759 1.2057 0
M  V30 17 H -3.1467 -1.3349 -0.3233 0
M  V30 18 H -0.8852 -0.9223 -0.8339 0
M  V30 19 H -0.6249 0.2283 -2.1872 0
M  V30 20 H -4.8983 0.508 -0.2722 0
M  V30 21 H -5.5527 -0.1992 1.2588 0
M  V30 22 H -5.6225 -1.1434 -0.2771 0
M  V30 23 H 0.7074 0.3994 0.5908 0
M  V30 24 H 0.962 1.5595 -0.7689 0
M  V30 25 H 1.6234 -1.4678 -0.7973 0
M  V30 26 H 1.7803 -0.3612 -2.2019 0
M  V30 27 H 3.3929 1.0783 -0.8523 0
M  V30 28 H 3.9628 -0.573 -1.2654 0
M  V30 29 H 2.8427 0.326 1.4733 0
M  V30 30 H 3.283 -1.3714 1.048 0
M  V30 31 H 5.6361 -0.649 0.6065 0
M  V30 32 H 5.1879 1.0592 1.0127 0
M  V30 33 H 5.1113 -0.2238 2.2793 0
M  V30 END ATOM
M  V30 BEGIN BOND
M  V30 1 2 1 2
M  V30 2 1 1 3
M  V30 3 1 2 4
M  V30 4 1 3 5
M  V30 5 1 4 6
M  V30 6 1 5 7
M  V30 7 1 7 8
M  V30 8 1 8 9
M  V30 9 1 9 10
M  V30 10 1 10 11
M  V30 11 1 1 12
M  V30 12 1 2 13
M  V30 13 1 3 14
M  V30 14 1 3 15
M  V30 15 1 4 16
M  V30 16 1 4 17
M  V30 17 1 5 18
M  V30 18 1 5 19
M  V30 19 1 6 20
M  V30 20 1 6 21
M  V30 21 1 6 22
M  V30 22 1 7 23
M  V30 23 1 7 24
M  V30 24 1 8 25
M  V30 25 1 8 26
M  V30 26 1 9 27
M  V30 27 1 9 28
M  V30 28 1 10 29
M  V30 29 1 10 30
M  V30 30 1 11 31
M  V30 31 1 11 32
M  V30 32 1 11 33
M  V30 END BOND
M  V30 END CTAB
M  END
>  <Structure No>
1327

>  <LogS>
-5.188357482

>  <MMFF94 Energy>
3.6545

$$$$
Compound 1328
Actelion Java MolfileCreator 2.0

  0  0  0  0  0  0              0 V3000
M  V30 BEGIN CTAB
M  V30 COUNTS 42 41 0 0 0
M  V30 BEGIN ATOM
M  V30 1 O 5.3814 -0.3891 -2.259 0
M  V30 2 C 4.2774 -0.0411 -2.761 0
M  V30 3 O 4.1469 1.1777 -3.4339 0
M  V30 4 C 3.0797 -0.9269 -2.6049 0
M  V30 5 C 5.2043 2.0747 -3.5968 0
M  V30 6 C 2.4477 -0.7908 -1.2131 0
M  V30 7 C 5.0079 3.2168 -4.2421 0
M  V30 8 C 1.7643 0.5734 -1.0159 0
M  V30 9 C 1.2443 0.7835 0.4181 0
M  V30 10 C 0.176 -0.2235 0.8828 0
M  V30 11 C -1.1069 -0.1702 0.0356 0
M  V30 12 C -2.2052 -1.1048 0.5688 0
M  V30 13 C -2.8893 -0.5581 1.8314 0
M  V30 14 C -4.0662 -1.4536 2.2471 0
M  V30 15 C -4.6973 -1.0203 3.5795 0
M  V30 16 C -5.465 0.2968 3.4698 0
M  V30 17 H 3.3939 -1.9822 -2.757 0
M  V30 18 H 2.329 -0.6866 -3.3888 0
M  V30 19 H 6.188 1.8514 -3.2013 0
M  V30 20 H 1.6906 -1.5966 -1.1096 0
M  V30 21 H 3.224 -0.9464 -0.4316 0
M  V30 22 H 5.8235 3.9164 -4.3712 0
M  V30 23 H 4.0327 3.4599 -4.6444 0
M  V30 24 H 0.9392 0.6963 -1.7486 0
M  V30 25 H 2.4992 1.3816 -1.2201 0
M  V30 26 H 0.8249 1.8106 0.4945 0
M  V30 27 H 2.1049 0.7337 1.1205 0
M  V30 28 H -0.0682 0.0255 1.9363 0
M  V30 29 H 0.5909 -1.2534 0.8828 0
M  V30 30 H -1.489 0.8728 -0.0168 0
M  V30 31 H -0.8688 -0.4966 -0.9987 0
M  V30 32 H -2.9724 -1.2212 -0.2282 0
M  V30 33 H -1.7778 -2.1112 0.7727 0
M  V30 34 H -2.1585 -0.5139 2.666 0
M  V30 35 H -3.2591 0.4691 1.6262 0
M  V30 36 H -4.8407 -1.4576 1.4487 0
M  V30 37 H -3.6991 -2.4968 2.3654 0
M  V30 38 H -5.4081 -1.8109 3.9043 0
M  V30 39 H -3.914 -0.9309 4.3633 0
M  V30 40 H -4.7715 1.1417 3.2791 0
M  V30 41 H -6.2167 0.2423 2.6538 0
M  V30 42 H -5.9952 0.495 4.4252 0
M  V30 END ATOM
M  V30 BEGIN BOND
M  V30 1 2 1 2
M  V30 2 1 2 3
M  V30 3 1 2 4
M  V30 4 1 3 5
M  V30 5 1 4 6
M  V30 6 2 5 7
M  V30 7 1 6 8
M  V30 8 1 8 9
M  V30 9 1 9 10
M  V30 10 1 10 11
M  V30 11 1 11 12
M  V30 12 1 12 13
M  V30 13 1 13 14
M  V30 14 1 14 15
M  V30 15 1 15 16
M  V30 16 1 4 17
M  V30 17 1 4 18
M  V30 18 1 5 19
M  V30 19 1 6 20
M  V30 20 1 6 21
M  V30 21 1 7 22
M  V30 22 1 7 23
M  V30 23 1 8 24
M  V30 24 1 8 25
M  V30 25 1 9 26
M  V30 26 1 9 27
M  V30 27 1 10 28
M  V30 28 1 10 29
M  V30 29 1 11 30
M  V30 30 1 11 31
M  V30 31 1 12 32
M  V30 32 1 12 33
M  V30 33 1 13 34
M  V30 34 1 13 35
M  V30 35 1 14 36
M  V30 36 1 14 37
M  V30 37 1 15 38
M  V30 38 1 15 39
M  V30 39 1 16 40
M  V30 40 1 16 41
M  V30 41 1 16 42
M  V30 END BOND
M  V30 END CTAB
M  END
>  <Structure No>
1328

>  <LogS>
-5.354799685

>  <MMFF94 Energy>
16.714

$$$$
Compound 1329
Actelion Java MolfileCreator 2.0

  0  0  0  0  0  0              0 V3000
M  V30 BEGIN CTAB
M  V30 COUNTS 30 29 0 0 0
M  V30 BEGIN ATOM
M  V30 1 S -1.7566 3.0356 1.6767 0
M  V30 2 C -0.3411 2.3491 1.2144 0
M  V30 3 S 1.092 2.583 2.2902 0 CHG=-1 VAL=2
M  V30 4 N -0.2313 1.6168 -0.0285 0
M  V30 5 C 1.0651 1.5217 -0.7149 0
M  V30 6 C -1.4019 0.9483 -0.6219 0
M  V30 7 C 1.7616 0.2013 -0.3705 0
M  V30 8 C -1.863 -0.2239 0.2542 0
M  V30 9 C 3.1575 0.1342 -0.9989 0
M  V30 10 C -3.0555 -0.9488 -0.379 0
M  V30 11 C 3.8479 -1.1851 -0.6666 0
M  V30 12 C -3.5177 -2.1138 0.4911 0
M  V30 13 H 0.9159 1.5877 -1.8149 0
M  V30 14 H 1.7128 2.3817 -0.438 0
M  V30 15 H -1.1524 0.5575 -1.633 0
M  V30 16 H -2.2275 1.68 -0.7551 0
M  V30 17 H 1.8479 0.105 0.7334 0
M  V30 18 H 1.1477 -0.6438 -0.7503 0
M  V30 19 H -2.1554 0.1504 1.2584 0
M  V30 20 H -1.0218 -0.939 0.3817 0
M  V30 21 H 3.781 0.9719 -0.6173 0
M  V30 22 H 3.0763 0.2297 -2.1036 0
M  V30 23 H -3.9009 -0.2378 -0.5069 0
M  V30 24 H -2.769 -1.3395 -1.3796 0
M  V30 25 H 3.9634 -1.2938 0.4329 0
M  V30 26 H 4.8552 -1.2053 -1.1331 0
M  V30 27 H 3.2569 -2.0396 -1.0597 0
M  V30 28 H -2.6968 -2.852 0.6151 0
M  V30 29 H -4.3801 -2.6194 0.0079 0
M  V30 30 H -3.8354 -1.7469 1.4904 0
M  V30 END ATOM
M  V30 BEGIN BOND
M  V30 1 2 1 2
M  V30 2 1 2 3
M  V30 3 1 2 4
M  V30 4 1 4 5
M  V30 5 1 4 6
M  V30 6 1 5 7
M  V30 7 1 6 8
M  V30 8 1 7 9
M  V30 9 1 8 10
M  V30 10 1 9 11
M  V30 11 1 10 12
M  V30 12 1 5 13
M  V30 13 1 5 14
M  V30 14 1 6 15
M  V30 15 1 6 16
M  V30 16 1 7 17
M  V30 17 1 7 18
M  V30 18 1 8 19
M  V30 19 1 8 20
M  V30 20 1 9 21
M  V30 21 1 9 22
M  V30 22 1 10 23
M  V30 23 1 10 24
M  V30 24 1 11 25
M  V30 25 1 11 26
M  V30 26 1 11 27
M  V30 27 1 12 28
M  V30 28 1 12 29
M  V30 29 1 12 30
M  V30 END BOND
M  V30 END CTAB
M  END
>  <Structure No>
1329

>  <LogS>
-5.675923082

>  <MMFF94 Energy>
-37.216

$$$$
Compound 1330
Actelion Java MolfileCreator 2.0

  0  0  0  0  0  0              0 V3000
M  V30 BEGIN CTAB
M  V30 COUNTS 40 41 0 0 0
M  V30 BEGIN ATOM
M  V30 1 O 0.0 -1.7643 1.5236 0
M  V30 2 C 0.6015 -0.656 1.5748 0
M  V30 3 O 0.0 0.4411 2.2048 0
M  V30 4 C 1.9447 -0.5121 0.972 0
M  V30 5 C -1.3149 0.4059 2.7556 0
M  V30 6 C 2.5704 -1.6025 0.3437 0
M  V30 7 C 2.6137 0.7221 1.0173 0
M  V30 8 C -2.3422 0.373 1.6572 0
M  V30 9 C 3.8387 -1.4609 -0.2265 0
M  V30 10 C 3.8821 0.8637 0.4469 0
M  V30 11 C -2.505 1.4843 0.8182 0
M  V30 12 C -3.1239 -0.7714 1.4418 0
M  V30 13 C 4.5081 -0.2257 -0.1807 0
M  V30 14 C -3.4424 1.4563 -0.218 0
M  V30 15 C -4.0618 -0.8012 0.4057 0
M  V30 16 C 5.8507 -0.0707 -0.783 0
M  V30 17 C -4.2315 0.3124 -0.4349 0
M  V30 18 O 6.4097 -1.0523 -1.3463 0
M  V30 19 O 6.501 1.167 -0.7276 0
M  V30 20 C -5.2248 0.2763 -1.5312 0
M  V30 21 C 7.7911 1.3826 -1.2865 0
M  V30 22 O -5.3738 1.2783 -2.2844 0
M  V30 23 O -5.9996 -0.8711 -1.7323 0
M  V30 24 C -6.9706 -0.9706 -2.7671 0
M  V30 25 H -1.4689 1.3218 3.3645 0
M  V30 26 H -1.4165 -0.4649 3.4399 0
M  V30 27 H 2.0803 -2.5667 0.2917 0
M  V30 28 H 2.1579 1.5815 1.4929 0
M  V30 29 H 4.2944 -2.3197 -0.7033 0
M  V30 30 H 4.3712 1.8284 0.4986 0
M  V30 31 H -1.903 2.3726 0.9662 0
M  V30 32 H -3.0067 -1.6432 2.0736 0
M  V30 33 H -3.5474 2.3294 -0.8499 0
M  V30 34 H -4.6519 -1.6978 0.263 0
M  V30 35 H 7.7695 1.1864 -2.3794 0
M  V30 36 H 8.5327 0.7147 -0.7995 0
M  V30 37 H 8.0906 2.437 -1.1163 0
M  V30 38 H -6.484 -0.8488 -3.7579 0
M  V30 39 H -7.7503 -0.1911 -2.633 0
M  V30 40 H -7.4499 -1.9699 -2.7222 0
M  V30 END ATOM
M  V30 BEGIN BOND
M  V30 1 2 1 2
M  V30 2 1 2 3
M  V30 3 1 2 4
M  V30 4 1 3 5
M  V30 5 2 4 6
M  V30 6 1 4 7
M  V30 7 1 5 8
M  V30 8 1 6 9
M  V30 9 2 7 10
M  V30 10 2 8 11
M  V30 11 1 8 12
M  V30 12 2 9 13
M  V30 13 1 11 14
M  V30 14 2 12 15
M  V30 15 1 13 16
M  V30 16 2 14 17
M  V30 17 2 16 18
M  V30 18 1 16 19
M  V30 19 1 17 20
M  V30 20 1 19 21
M  V30 21 2 20 22
M  V30 22 1 20 23
M  V30 23 1 23 24
M  V30 24 1 10 13
M  V30 25 1 15 17
M  V30 26 1 5 25
M  V30 27 1 5 26
M  V30 28 1 6 27
M  V30 29 1 7 28
M  V30 30 1 9 29
M  V30 31 1 10 30
M  V30 32 1 11 31
M  V30 33 1 12 32
M  V30 34 1 14 33
M  V30 35 1 15 34
M  V30 36 1 21 35
M  V30 37 1 21 36
M  V30 38 1 21 37
M  V30 39 1 24 38
M  V30 40 1 24 39
M  V30 41 1 24 40
M  V30 END BOND
M  V30 END CTAB
M  END
>  <Structure No>
1330

>  <LogS>
-6.731677773

>  <MMFF94 Energy>
75.214

$$$$
Compound 1331
Actelion Java MolfileCreator 2.0

  0  0  0  0  0  0              0 V3000
M  V30 BEGIN CTAB
M  V30 COUNTS 104 105 0 0 0
M  V30 BEGIN ATOM
M  V30 1 O -4.5083 -0.1579 3.162 0
M  V30 2 C -4.1567 0.9516 2.6722 0
M  V30 3 O -5.0154 2.0561 2.716 0
M  V30 4 N -2.8715 1.0957 2.0615 0
M  V30 5 C -6.3476 2.0043 3.2257 0
M  V30 6 C -1.9925 -0.0542 1.8402 0
M  V30 7 C -7.2832 1.1937 2.3158 0
M  V30 8 C -0.6797 0.3596 1.1597 0
M  V30 9 N -7.4714 1.8561 1.0002 0
M  V30 10 C -0.8932 0.7776 -0.3063 0
M  V30 11 O -6.259 1.8646 0.3579 0
M  V30 12 C -8.4042 1.1794 0.08 0 CFG=2
M  V30 13 C 0.389 1.3301 -0.9481 0
M  V30 14 C -6.1905 0.7005 -0.4462 0
M  V30 15 C -9.8071 0.7628 0.6637 0 CFG=2
M  V30 16 C -7.5696 0.0835 -0.526 0
M  V30 17 C 1.3596 0.2217 -1.3803 0
M  V30 18 C -10.5288 -0.2151 -0.3117 0
M  V30 19 C -10.7102 2.012 0.9022 0
M  V30 20 C 2.6613 0.8225 -1.9248 0
M  V30 21 C -11.8585 -0.7762 0.2334 0
M  V30 22 C -10.2047 2.9895 1.9623 0
M  V30 23 N 3.4852 -0.2064 -2.5556 0
M  V30 24 C -12.3523 -1.9986 -0.5585 0
M  V30 25 C 4.1971 -1.2035 -1.8154 0
M  V30 26 C -11.6208 -3.2863 -0.1779 0
M  V30 27 O 4.0688 -1.2802 -0.5625 0
M  V30 28 O 5.0376 -2.0855 -2.5027 0
M  V30 29 C 5.8173 -3.1001 -1.8695 0
M  V30 30 C 6.9562 -2.4967 -1.0408 0
M  V30 31 N 7.6438 -1.4459 -1.8045 0
M  V30 32 O 8.4248 -1.9941 -2.7786 0
M  V30 33 C 8.4763 -0.4996 -1.0453 0 CFG=1
M  V30 34 C 9.2468 -0.944 -3.2337 0
M  V30 35 C 9.3294 -1.1322 0.1246 0 CFG=2
M  V30 36 C 9.3031 0.1215 -2.1507 0
M  V30 37 C 9.7142 -0.0908 1.2178 0
M  V30 38 C 10.5067 -2.0293 -0.354 0
M  V30 39 C 10.7866 0.9578 0.8442 0
M  V30 40 C 11.1893 -2.7877 0.7857 0
M  V30 41 C 10.1898 2.3079 0.4032 0
M  V30 42 C 9.7539 3.1683 1.5918 0
M  V30 43 H -2.5779 2.0532 1.7621 0
M  V30 44 H -6.7361 3.0405 3.31 0
M  V30 45 H -6.3386 1.5626 4.2455 0
M  V30 46 H -1.7525 -0.5187 2.8213 0
M  V30 47 H -2.5164 -0.812 1.2172 0
M  V30 48 H -8.2388 1.1339 2.8632 0
M  V30 49 H -6.9042 0.1557 2.198 0
M  V30 50 H -0.2198 1.1934 1.7356 0
M  V30 51 H 0.0175 -0.5045 1.1982 0
M  V30 52 H -1.2767 -0.0845 -0.8944 0
M  V30 53 H -1.6633 1.5774 -0.3501 0
M  V30 54 H -8.616 1.896 -0.748 0
M  V30 55 H 0.8949 2.0285 -0.2453 0
M  V30 56 H 0.102 1.9143 -1.8507 0
M  V30 57 H -5.4627 -0.0177 -0.0086 0
M  V30 58 H -5.8384 0.9851 -1.4605 0
M  V30 59 H -9.6877 0.2059 1.6133 0
M  V30 60 H -7.6111 -0.8401 0.0928 0
M  V30 61 H -7.8618 -0.1359 -1.578 0
M  V30 62 H 0.8805 -0.3966 -2.1721 0
M  V30 63 H 1.597 -0.4341 -0.5165 0
M  V30 64 H -9.8652 -1.0775 -0.5121 0
M  V30 65 H -10.7149 0.2931 -1.2838 0
M  V30 66 H -10.8545 2.5632 -0.0538 0
M  V30 67 H -11.7123 1.6908 1.2517 0
M  V30 68 H 3.2324 1.3121 -1.1048 0
M  V30 69 H 2.4208 1.599 -2.6848 0
M  V30 70 H -11.7607 -1.0409 1.3082 0
M  V30 71 H -12.6422 0.0045 0.1471 0
M  V30 72 H -10.9625 3.7893 2.1076 0
M  V30 73 H -9.2665 3.4844 1.6417 0
M  V30 74 H -10.0673 2.4749 2.9359 0
M  V30 75 H 3.6267 -0.1641 -3.5905 0
M  V30 76 H -13.4343 -2.1422 -0.3447 0
M  V30 77 H -12.2486 -1.816 -1.6502 0
M  V30 78 H -11.6775 -3.459 0.918 0
M  V30 79 H -12.0983 -4.146 -0.6929 0
M  V30 80 H -10.5564 -3.2492 -0.489 0
M  V30 81 H 5.1696 -3.7333 -1.2261 0
M  V30 82 H 6.2515 -3.7481 -2.6602 0
M  V30 83 H 7.6629 -3.3099 -0.7607 0
M  V30 84 H 6.5198 -2.0643 -0.1136 0
M  V30 85 H 7.8005 0.2729 -0.6153 0
M  V30 86 H 8.8337 -0.5249 -4.1788 0
M  V30 87 H 10.2657 -1.3418 -3.4341 0
M  V30 88 H 8.6566 -1.8113 0.6847 0
M  V30 89 H 10.3445 0.3701 -1.876 0
M  V30 90 H 8.8084 1.0477 -2.5175 0
M  V30 91 H 10.0762 -0.6414 2.1133 0
M  V30 92 H 8.7868 0.4133 1.5664 0
M  V30 93 H 11.2774 -1.4472 -0.8979 0
M  V30 94 H 10.1161 -2.7923 -1.0609 0
M  V30 95 H 11.4404 1.1325 1.7278 0
M  V30 96 H 11.466 0.5762 0.0572 0
M  V30 97 H 10.4398 -3.3337 1.3962 0
M  V30 98 H 11.7627 -2.0906 1.4316 0
M  V30 99 H 11.9032 -3.5253 0.3631 0
M  V30 100 H 9.3225 2.1571 -0.2691 0
M  V30 101 H 10.9612 2.8719 -0.1655 0
M  V30 102 H 8.9926 2.6441 2.2054 0
M  V30 103 H 10.6298 3.4168 2.2283 0
M  V30 104 H 9.3133 4.1162 1.2182 0
M  V30 END ATOM
M  V30 BEGIN BOND
M  V30 1 2 1 2
M  V30 2 1 2 3
M  V30 3 1 2 4
M  V30 4 1 3 5
M  V30 5 1 4 6
M  V30 6 1 5 7
M  V30 7 1 6 8
M  V30 8 1 7 9
M  V30 9 1 8 10
M  V30 10 1 9 11
M  V30 11 1 9 12
M  V30 12 1 10 13
M  V30 13 1 11 14
M  V30 14 1 12 15
M  V30 15 1 12 16
M  V30 16 1 13 17
M  V30 17 1 15 18
M  V30 18 1 15 19
M  V30 19 1 17 20
M  V30 20 1 18 21
M  V30 21 1 19 22
M  V30 22 1 20 23
M  V30 23 1 21 24
M  V30 24 1 23 25
M  V30 25 1 24 26
M  V30 26 2 25 27
M  V30 27 1 25 28
M  V30 28 1 28 29
M  V30 29 1 29 30
M  V30 30 1 30 31
M  V30 31 1 31 32
M  V30 32 1 31 33
M  V30 33 1 32 34
M  V30 34 1 33 35
M  V30 35 1 33 36
M  V30 36 1 35 37
M  V30 37 1 35 38
M  V30 38 1 37 39
M  V30 39 1 38 40
M  V30 40 1 39 41
M  V30 41 1 41 42
M  V30 42 1 14 16
M  V30 43 1 34 36
M  V30 44 1 4 43
M  V30 45 1 5 44
M  V30 46 1 5 45
M  V30 47 1 6 46
M  V30 48 1 6 47
M  V30 49 1 7 48
M  V30 50 1 7 49
M  V30 51 1 8 50
M  V30 52 1 8 51
M  V30 53 1 10 52
M  V30 54 1 10 53
M  V30 55 1 12 54
M  V30 56 1 13 55
M  V30 57 1 13 56
M  V30 58 1 14 57
M  V30 59 1 14 58
M  V30 60 1 15 59
M  V30 61 1 16 60
M  V30 62 1 16 61
M  V30 63 1 17 62
M  V30 64 1 17 63
M  V30 65 1 18 64
M  V30 66 1 18 65
M  V30 67 1 19 66
M  V30 68 1 19 67
M  V30 69 1 20 68
M  V30 70 1 20 69
M  V30 71 1 21 70
M  V30 72 1 21 71
M  V30 73 1 22 72
M  V30 74 1 22 73
M  V30 75 1 22 74
M  V30 76 1 23 75
M  V30 77 1 24 76
M  V30 78 1 24 77
M  V30 79 1 26 78
M  V30 80 1 26 79
M  V30 81 1 26 80
M  V30 82 1 29 81
M  V30 83 1 29 82
M  V30 84 1 30 83
M  V30 85 1 30 84
M  V30 86 1 33 85
M  V30 87 1 34 86
M  V30 88 1 34 87
M  V30 89 1 35 88
M  V30 90 1 36 89
M  V30 91 1 36 90
M  V30 92 1 37 91
M  V30 93 1 37 92
M  V30 94 1 38 93
M  V30 95 1 38 94
M  V30 96 1 39 95
M  V30 97 1 39 96
M  V30 98 1 40 97
M  V30 99 1 40 98
M  V30 100 1 40 99
M  V30 101 1 41 100
M  V30 102 1 41 101
M  V30 103 1 42 102
M  V30 104 1 42 103
M  V30 105 1 42 104
M  V30 END BOND
M  V30 BEGIN COLLECTION
M  V30 MDLV30/STEABS ATOMS=(4 12 15 33 35)
M  V30 END COLLECTION
M  V30 END CTAB
M  END
>  <Structure No>
1331

>  <LogS>
-5.790560824

>  <MMFF94 Energy>
-72.658

$$$$
Compound 1332
Actelion Java MolfileCreator 2.0

  0  0  0  0  0  0              0 V3000
M  V30 BEGIN CTAB
M  V30 COUNTS 49 51 0 0 0
M  V30 BEGIN ATOM
M  V30 1 O 5.5961 -1.5964 0.2393 0
M  V30 2 C 4.5158 -2.1061 -0.1671 0
M  V30 3 O 4.4166 -3.4815 -0.3952 0
M  V30 4 C 3.313 -1.2395 -0.3633 0
M  V30 5 C 5.512 -4.3693 -0.2093 0
M  V30 6 C 2.5129 -1.1318 0.9369 0
M  V30 7 C 1.2889 -0.2761 0.7353 0
M  V30 8 C 0.0892 -0.8593 0.3286 0
M  V30 9 C 1.3685 1.1137 0.8802 0
M  V30 10 C -1.043 -0.0751 0.0957 0
M  V30 11 C 0.243 1.9493 0.6704 0
M  V30 12 N -2.2339 -0.7135 -0.3902 0
M  V30 13 C -0.986 1.3231 0.3092 0
M  V30 14 C 0.3387 3.4899 0.8572 0
M  V30 15 N -2.9622 -0.2455 -1.4036 0
M  V30 16 N -2.6697 -1.888 0.0644 0
M  V30 17 O -2.1477 2.0899 0.1999 0
M  V30 18 C -0.5624 3.9381 2.0301 0
M  V30 19 C -0.0892 4.2128 -0.4417 0
M  V30 20 C 1.7761 3.974 1.1819 0
M  V30 21 C -3.9246 -1.1612 -1.5841 0
M  V30 22 C -3.7458 -2.1664 -0.6855 0
M  V30 23 C -4.9605 -1.1707 -2.5126 0
M  V30 24 C -4.5863 -3.2736 -0.6329 0
M  V30 25 C -5.8372 -2.2739 -2.4906 0
M  V30 26 C -5.6504 -3.321 -1.5556 0
M  V30 27 H 2.6763 -1.6787 -1.1619 0
M  V30 28 H 3.6358 -0.2279 -0.6942 0
M  V30 29 H 5.857 -4.3321 0.8455 0
M  V30 30 H 6.3461 -4.0911 -0.8877 0
M  V30 31 H 5.1867 -5.4031 -0.4447 0
M  V30 32 H 2.2119 -2.1475 1.2776 0
M  V30 33 H 3.1515 -0.6933 1.7354 0
M  V30 34 H 0.042 -1.9297 0.1653 0
M  V30 35 H 2.3284 1.5178 1.1627 0
M  V30 36 H -3.0745 1.6926 0.1223 0
M  V30 37 H -0.3073 3.3695 2.9499 0
M  V30 38 H -1.6388 3.7899 1.8174 0
M  V30 39 H -0.4249 5.0207 2.2417 0
M  V30 40 H -1.1648 4.0827 -0.6673 0
M  V30 41 H 0.0835 5.3079 -0.3599 0
M  V30 42 H 0.4983 3.8321 -1.3047 0
M  V30 43 H 2.4821 3.6934 0.3706 0
M  V30 44 H 2.1312 3.5527 2.1471 0
M  V30 45 H 1.81 5.081 1.2814 0
M  V30 46 H -5.0882 -0.3644 -3.2226 0
M  V30 47 H -4.4289 -4.0676 0.0855 0
M  V30 48 H -6.6572 -2.322 -3.1952 0
M  V30 49 H -6.3283 -4.1641 -1.5505 0
M  V30 END ATOM
M  V30 BEGIN BOND
M  V30 1 2 1 2
M  V30 2 1 2 3
M  V30 3 1 2 4
M  V30 4 1 3 5
M  V30 5 1 4 6
M  V30 6 1 6 7
M  V30 7 2 7 8
M  V30 8 1 7 9
M  V30 9 1 8 10
M  V30 10 2 9 11
M  V30 11 1 10 12
M  V30 12 2 10 13
M  V30 13 1 11 14
M  V30 14 1 12 15
M  V30 15 1 12 16
M  V30 16 1 13 17
M  V30 17 1 14 18
M  V30 18 1 14 19
M  V30 19 1 14 20
M  V30 20 2 15 21
M  V30 21 2 16 22
M  V30 22 1 21 23
M  V30 23 1 22 24
M  V30 24 2 23 25
M  V30 25 2 24 26
M  V30 26 1 11 13
M  V30 27 1 21 22
M  V30 28 1 25 26
M  V30 29 1 4 27
M  V30 30 1 4 28
M  V30 31 1 5 29
M  V30 32 1 5 30
M  V30 33 1 5 31
M  V30 34 1 6 32
M  V30 35 1 6 33
M  V30 36 1 8 34
M  V30 37 1 9 35
M  V30 38 1 17 36
M  V30 39 1 18 37
M  V30 40 1 18 38
M  V30 41 1 18 39
M  V30 42 1 19 40
M  V30 43 1 19 41
M  V30 44 1 19 42
M  V30 45 1 20 43
M  V30 46 1 20 44
M  V30 47 1 20 45
M  V30 48 1 23 46
M  V30 49 1 24 47
M  V30 50 1 25 48
M  V30 51 1 26 49
M  V30 END BOND
M  V30 END CTAB
M  END
>  <Structure No>
1332

>  <LogS>
-6.849323576

>  <MMFF94 Energy>
63.213

$$$$
Compound 1333
Actelion Java MolfileCreator 2.0

  0  0  0  0  0  0              0 V3000
M  V30 BEGIN CTAB
M  V30 COUNTS 145 146 0 0 0
M  V30 BEGIN ATOM
M  V30 1 O 4.408 -0.2357 -0.6288 0
M  V30 2 C 4.5733 -0.3037 0.6142 0
M  V30 3 N 3.6873 0.3847 1.5175 0
M  V30 4 N 5.6565 -1.079 1.1517 0
M  V30 5 C 2.6833 1.3584 1.1619 0
M  V30 6 C 6.5871 -1.8343 0.3091 0
M  V30 7 C 2.0548 1.3828 -0.1013 0
M  V30 8 C 2.2763 2.2899 2.1304 0
M  V30 9 C 7.5385 -0.9037 -0.4585 0
M  V30 10 C 1.1001 2.3607 -0.3989 0
M  V30 11 C 1.3063 3.2533 1.8402 0
M  V30 12 C 8.4856 -0.1316 0.4777 0
M  V30 13 C 0.7264 3.3084 0.5649 0
M  V30 14 C 9.2545 0.9931 -0.2443 0
M  V30 15 C -0.3285 4.3353 0.2483 0
M  V30 16 C 10.1194 0.5351 -1.4373 0
M  V30 17 C -1.695 3.7023 0.2562 0
M  V30 18 C 11.2535 -0.4398 -1.07 0
M  V30 19 C -2.277 3.2561 -0.9408 0
M  V30 20 C -2.3809 3.5163 1.4658 0
M  V30 21 C 12.3718 0.2305 -0.257 0
M  V30 22 C -3.5349 2.6459 -0.9307 0
M  V30 23 C -3.6415 2.9078 1.4754 0
M  V30 24 C 13.5423 -0.7367 -0.0323 0
M  V30 25 C -4.2228 2.4529 0.2811 0
M  V30 26 C 14.7316 -0.0311 0.6338 0
M  V30 27 N -5.5372 1.8707 0.3199 0
M  V30 28 C 15.9087 -1.0026 0.8216 0
M  V30 29 C -6.0127 0.8793 -0.6063 0
M  V30 30 C 17.1357 -0.362 1.5047 0
M  V30 31 O -5.1972 0.2302 -1.3186 0
M  V30 32 N -7.4171 0.614 -0.6953 0
M  V30 33 C 17.7748 0.8211 0.7468 0
M  V30 34 C -7.9605 -0.333 -1.6692 0
M  V30 35 C 18.3883 0.4386 -0.6138 0
M  V30 36 C -9.4911 -0.2636 -1.6922 0
M  V30 37 C 19.7877 -0.2093 -0.48 0
M  V30 38 C -10.0886 -1.2258 -2.7307 0
M  V30 39 C 19.9584 -1.462 -1.3617 0
M  V30 40 C -11.6325 -1.2598 -2.7013 0
M  V30 41 C 19.2916 -2.7222 -0.7771 0
M  V30 42 C -12.2825 0.074 -3.1286 0
M  V30 43 C 20.0742 -3.3058 0.4117 0
M  V30 44 C -12.7009 0.9314 -1.9211 0
M  V30 45 C 19.4308 -4.5962 0.9152 0
M  V30 46 C -12.9416 2.3941 -2.3275 0
M  V30 47 C -13.1318 3.3089 -1.1044 0
M  V30 48 C -14.5416 3.2019 -0.4756 0
M  V30 49 C -14.4988 2.9577 1.0481 0
M  V30 50 C -14.1779 1.5002 1.4341 0
M  V30 51 C -15.3616 0.5532 1.1752 0
M  V30 52 C -15.0495 -0.8769 1.6451 0
M  V30 53 C -16.1216 -1.8884 1.2023 0
M  V30 54 C -17.4415 -1.7343 1.981 0
M  V30 55 C -18.5627 -2.6348 1.4324 0
M  V30 56 C -18.3809 -4.1101 1.815 0
M  V30 57 C -19.5412 -4.9574 1.2989 0
M  V30 58 H 3.8858 0.2646 2.5368 0
M  V30 59 H 5.7539 -1.1653 2.1875 0
M  V30 60 H 6.014 -2.4537 -0.4146 0
M  V30 61 H 7.1833 -2.526 0.9429 0
M  V30 62 H 2.2617 0.6435 -0.8577 0
M  V30 63 H 2.7178 2.2756 3.1188 0
M  V30 64 H 6.9512 -0.1886 -1.074 0
M  V30 65 H 8.1405 -1.5294 -1.1509 0
M  V30 66 H 0.6386 2.371 -1.3796 0
M  V30 67 H 1.0085 3.9557 2.6113 0
M  V30 68 H 7.8921 0.3437 1.289 0
M  V30 69 H 9.194 -0.8334 0.9669 0
M  V30 70 H 9.8892 1.5286 0.4925 0
M  V30 71 H 8.5161 1.7363 -0.6191 0
M  V30 72 H -0.1168 4.7858 -0.7468 0
M  V30 73 H -0.2987 5.1712 0.9808 0
M  V30 74 H 10.5588 1.4364 -1.9187 0
M  V30 75 H 9.4711 0.0648 -2.2053 0
M  V30 76 H 11.684 -0.8225 -2.0223 0
M  V30 77 H 10.854 -1.3168 -0.5203 0
M  V30 78 H -1.7631 3.3919 -1.8839 0
M  V30 79 H -1.9429 3.8472 2.4015 0
M  V30 80 H 11.9816 0.5521 0.7306 0
M  V30 81 H 12.7352 1.1274 -0.8059 0
M  V30 82 H -3.9799 2.356 -1.8726 0
M  V30 83 H -4.1586 2.7823 2.4191 0
M  V30 84 H 13.8741 -1.1472 -1.0125 0
M  V30 85 H 13.2029 -1.581 0.6063 0
M  V30 86 H 14.4221 0.3757 1.6225 0
M  V30 87 H 15.0425 0.8099 -0.0201 0
M  V30 88 H -6.1734 2.1457 1.1029 0
M  V30 89 H 16.1902 -1.4388 -0.1564 0
M  V30 90 H 15.5719 -1.8483 1.4599 0
M  V30 91 H 16.8308 -0.0061 2.5139 0
M  V30 92 H 17.9045 -1.1487 1.6624 0
M  V30 93 H -8.0638 1.1585 -0.0788 0
M  V30 94 H 17.0234 1.6223 0.5953 0
M  V30 95 H 18.5655 1.2697 1.3906 0
M  V30 96 H -7.6315 -1.3603 -1.4021 0
M  V30 97 H -7.5706 -0.0842 -2.6797 0
M  V30 98 H 17.6929 -0.2039 -1.191 0
M  V30 99 H 18.4971 1.3656 -1.2159 0
M  V30 100 H -9.7829 0.7782 -1.9515 0
M  V30 101 H -9.8856 -0.5151 -0.6827 0
M  V30 102 H 20.0381 -0.4461 0.5768 0
M  V30 103 H 20.5471 0.539 -0.8034 0
M  V30 104 H -9.7186 -2.2544 -2.5253 0
M  V30 105 H -9.7452 -0.9421 -3.7494 0
M  V30 106 H 21.0444 -1.6587 -1.5114 0
M  V30 107 H 19.5328 -1.2599 -2.3691 0
M  V30 108 H -11.99 -1.5777 -1.6952 0
M  V30 109 H -11.9592 -2.046 -3.4178 0
M  V30 110 H 18.2513 -2.4959 -0.4684 0
M  V30 111 H 19.2433 -3.488 -1.5808 0
M  V30 112 H -13.1958 -0.1434 -3.7261 0
M  V30 113 H -11.5908 0.6354 -3.7958 0
M  V30 114 H 20.0994 -2.5835 1.2537 0
M  V30 115 H 21.121 -3.5229 0.1037 0
M  V30 116 H -13.6288 0.5055 -1.4814 0
M  V30 117 H -11.9146 0.9037 -1.1382 0
M  V30 118 H 18.3908 -4.4036 1.2548 0
M  V30 119 H 20.0145 -4.9917 1.7737 0
M  V30 120 H 19.4191 -5.3639 0.1136 0
M  V30 121 H -12.0547 2.7677 -2.8841 0
M  V30 122 H -13.8183 2.4699 -3.0067 0
M  V30 123 H -12.9739 4.3624 -1.4286 0
M  V30 124 H -12.3307 3.1032 -0.359 0
M  V30 125 H -15.1555 2.4274 -0.9769 0
M  V30 126 H -15.0732 4.1629 -0.6492 0
M  V30 127 H -13.7407 3.6314 1.507 0
M  V30 128 H -15.4794 3.2431 1.489 0
M  V30 129 H -13.277 1.1496 0.8903 0
M  V30 130 H -13.9403 1.4782 2.52 0
M  V30 131 H -15.595 0.5286 0.0913 0
M  V30 132 H -16.2522 0.9399 1.7178 0
M  V30 133 H -14.0793 -1.1946 1.2061 0
M  V30 134 H -14.9415 -0.8973 2.7512 0
M  V30 135 H -15.7193 -2.9087 1.375 0
M  V30 136 H -16.3072 -1.7795 0.1118 0
M  V30 137 H -17.2726 -1.9483 3.0607 0
M  V30 138 H -17.7987 -0.6853 1.9006 0
M  V30 139 H -18.6228 -2.5309 0.3284 0
M  V30 140 H -19.5267 -2.2777 1.8558 0
M  V30 141 H -18.327 -4.2088 2.9225 0
M  V30 142 H -17.4375 -4.5047 1.3806 0
M  V30 143 H -19.5836 -4.9187 0.1899 0
M  V30 144 H -19.4007 -6.0133 1.6151 0
M  V30 145 H -20.5043 -4.5885 1.7154 0
M  V30 END ATOM
M  V30 BEGIN BOND
M  V30 1 2 1 2
M  V30 2 1 2 3
M  V30 3 1 2 4
M  V30 4 1 3 5
M  V30 5 1 4 6
M  V30 6 2 5 7
M  V30 7 1 5 8
M  V30 8 1 6 9
M  V30 9 1 7 10
M  V30 10 2 8 11
M  V30 11 1 9 12
M  V30 12 2 10 13
M  V30 13 1 12 14
M  V30 14 1 13 15
M  V30 15 1 14 16
M  V30 16 1 15 17
M  V30 17 1 16 18
M  V30 18 2 17 19
M  V30 19 1 17 20
M  V30 20 1 18 21
M  V30 21 1 19 22
M  V30 22 2 20 23
M  V30 23 1 21 24
M  V30 24 2 22 25
M  V30 25 1 24 26
M  V30 26 1 25 27
M  V30 27 1 26 28
M  V30 28 1 27 29
M  V30 29 1 28 30
M  V30 30 2 29 31
M  V30 31 1 29 32
M  V30 32 1 30 33
M  V30 33 1 32 34
M  V30 34 1 33 35
M  V30 35 1 34 36
M  V30 36 1 35 37
M  V30 37 1 36 38
M  V30 38 1 37 39
M  V30 39 1 38 40
M  V30 40 1 39 41
M  V30 41 1 40 42
M  V30 42 1 41 43
M  V30 43 1 42 44
M  V30 44 1 43 45
M  V30 45 1 44 46
M  V30 46 1 46 47
M  V30 47 1 47 48
M  V30 48 1 48 49
M  V30 49 1 49 50
M  V30 50 1 50 51
M  V30 51 1 51 52
M  V30 52 1 52 53
M  V30 53 1 53 54
M  V30 54 1 54 55
M  V30 55 1 55 56
M  V30 56 1 56 57
M  V30 57 1 11 13
M  V30 58 1 23 25
M  V30 59 1 3 58
M  V30 60 1 4 59
M  V30 61 1 6 60
M  V30 62 1 6 61
M  V30 63 1 7 62
M  V30 64 1 8 63
M  V30 65 1 9 64
M  V30 66 1 9 65
M  V30 67 1 10 66
M  V30 68 1 11 67
M  V30 69 1 12 68
M  V30 70 1 12 69
M  V30 71 1 14 70
M  V30 72 1 14 71
M  V30 73 1 15 72
M  V30 74 1 15 73
M  V30 75 1 16 74
M  V30 76 1 16 75
M  V30 77 1 18 76
M  V30 78 1 18 77
M  V30 79 1 19 78
M  V30 80 1 20 79
M  V30 81 1 21 80
M  V30 82 1 21 81
M  V30 83 1 22 82
M  V30 84 1 23 83
M  V30 85 1 24 84
M  V30 86 1 24 85
M  V30 87 1 26 86
M  V30 88 1 26 87
M  V30 89 1 27 88
M  V30 90 1 28 89
M  V30 91 1 28 90
M  V30 92 1 30 91
M  V30 93 1 30 92
M  V30 94 1 32 93
M  V30 95 1 33 94
M  V30 96 1 33 95
M  V30 97 1 34 96
M  V30 98 1 34 97
M  V30 99 1 35 98
M  V30 100 1 35 99
M  V30 101 1 36 100
M  V30 102 1 36 101
M  V30 103 1 37 102
M  V30 104 1 37 103
M  V30 105 1 38 104
M  V30 106 1 38 105
M  V30 107 1 39 106
M  V30 108 1 39 107
M  V30 109 1 40 108
M  V30 110 1 40 109
M  V30 111 1 41 110
M  V30 112 1 41 111
M  V30 113 1 42 112
M  V30 114 1 42 113
M  V30 115 1 43 114
M  V30 116 1 43 115
M  V30 117 1 44 116
M  V30 118 1 44 117
M  V30 119 1 45 118
M  V30 120 1 45 119
M  V30 121 1 45 120
M  V30 122 1 46 121
M  V30 123 1 46 122
M  V30 124 1 47 123
M  V30 125 1 47 124
M  V30 126 1 48 125
M  V30 127 1 48 126
M  V30 128 1 49 127
M  V30 129 1 49 128
M  V30 130 1 50 129
M  V30 131 1 50 130
M  V30 132 1 51 131
M  V30 133 1 51 132
M  V30 134 1 52 133
M  V30 135 1 52 134
M  V30 136 1 53 135
M  V30 137 1 53 136
M  V30 138 1 54 137
M  V30 139 1 54 138
M  V30 140 1 55 139
M  V30 141 1 55 140
M  V30 142 1 56 141
M  V30 143 1 56 142
M  V30 144 1 57 143
M  V30 145 1 57 144
M  V30 146 1 57 145
M  V30 END BOND
M  V30 END CTAB
M  END
>  <Structure No>
1333

>  <LogS>
-5.942994641

>  <MMFF94 Energy>
-115.93

$$$$
Compound 1334
Actelion Java MolfileCreator 2.0

  0  0  0  0  0  0              0 V3000
M  V30 BEGIN CTAB
M  V30 COUNTS 86 87 0 0 0
M  V30 BEGIN ATOM
M  V30 1 O -8.0056 0.237 -3.4815 0
M  V30 2 C -8.9625 0.6057 -2.7472 0
M  V30 3 O -8.8572 0.5517 -1.3528 0
M  V30 4 C -10.2456 1.0411 -3.3688 0
M  V30 5 C -7.6646 0.2335 -0.6873 0
M  V30 6 C -6.5424 1.088 -0.7724 0
M  V30 7 C -7.6083 -0.9447 0.0828 0
M  V30 8 C -5.3195 0.693 -0.1805 0
M  V30 9 C -6.6522 2.4097 -1.5005 0
M  V30 10 C -6.3871 -1.3312 0.6854 0
M  V30 11 C -8.8343 -1.8255 0.1819 0
M  V30 12 C -5.26 -0.4945 0.574 0
M  V30 13 C -4.0838 1.5624 -0.2955 0
M  V30 14 C -6.2917 -2.6143 1.4812 0
M  V30 15 O -4.0651 -0.866 1.2091 0
M  V30 16 C -2.7884 0.8088 0.0316 0
M  V30 17 C -2.917 -0.022 1.332 0 CFG=2
M  V30 18 C -1.6911 -0.9675 1.5229 0
M  V30 19 C -3.1233 0.8857 2.5629 0
M  V30 20 C -0.4081 -0.3849 2.159 0
M  V30 21 C 0.3341 0.6275 1.2673 0
M  V30 22 C 1.8138 0.8135 1.6874 0 CFG=1
M  V30 23 C 2.7005 -0.331 1.1323 0
M  V30 24 C 2.3268 2.1805 1.2013 0
M  V30 25 C 4.0777 -0.3962 1.819 0
M  V30 26 C 4.8453 -1.6915 1.4934 0
M  V30 27 C 5.2074 -1.8808 -0.0024 0 CFG=1
M  V30 28 C 6.0046 -0.7071 -0.6284 0
M  V30 29 C 5.9337 -3.2201 -0.2013 0
M  V30 30 C 7.3372 -0.3918 0.079 0
M  V30 31 C 8.0399 0.8519 -0.4956 0
M  V30 32 C 8.4834 0.7378 -1.9744 0
M  V30 33 C 9.1445 2.0495 -2.4171 0
M  V30 34 C 9.449 -0.4353 -2.2036 0
M  V30 35 H -10.7687 1.7541 -2.6968 0
M  V30 36 H -10.8942 0.1561 -3.5359 0
M  V30 37 H -10.0494 1.5427 -4.3405 0
M  V30 38 H -6.1084 3.2078 -0.9557 0
M  V30 39 H -6.2305 2.3106 -2.5214 0
M  V30 40 H -7.702 2.7556 -1.5746 0
M  V30 41 H -8.9272 -2.2659 1.1972 0
M  V30 42 H -8.7667 -2.6419 -0.5679 0
M  V30 43 H -9.7701 -1.2546 0.0047 0
M  V30 44 H -3.9895 1.9535 -1.3319 0
M  V30 45 H -4.1893 2.433 0.3869 0
M  V30 46 H -6.801 -2.4837 2.4584 0
M  V30 47 H -5.2426 -2.9197 1.6715 0
M  V30 48 H -6.7672 -3.45 0.9261 0
M  V30 49 H -1.9718 1.5517 0.0985 0
M  V30 50 H -2.5577 0.1295 -0.8194 0
M  V30 51 H -2.0128 -1.7993 2.1893 0
M  V30 52 H -1.4308 -1.4505 0.5561 0
M  V30 53 H -3.0952 0.2825 3.4953 0
M  V30 54 H -2.3435 1.6734 2.6142 0
M  V30 55 H -4.1147 1.3838 2.5248 0
M  V30 56 H 0.2567 -1.2473 2.3738 0
M  V30 57 H -0.628 0.0746 3.1464 0
M  V30 58 H -0.1873 1.6012 1.3726 0
M  V30 59 H 0.2838 0.3206 0.199 0
M  V30 60 H 1.863 0.815 2.7994 0
M  V30 61 H 2.1947 -1.3073 1.2819 0
M  V30 62 H 2.8307 -0.1971 0.0365 0
M  V30 63 H 3.3584 2.3685 1.5664 0
M  V30 64 H 1.6839 2.9979 1.5961 0
M  V30 65 H 2.3209 2.2292 0.091 0
M  V30 66 H 3.9322 -0.364 2.9212 0
M  V30 67 H 4.6917 0.4857 1.5482 0
M  V30 68 H 4.2257 -2.5545 1.8238 0
M  V30 69 H 5.7673 -1.7224 2.1129 0
M  V30 70 H 4.2569 -1.9621 -0.5736 0
M  V30 71 H 6.2067 -0.9627 -1.69 0
M  V30 72 H 5.3688 0.2035 -0.6437 0
M  V30 73 H 6.1979 -3.3654 -1.2708 0
M  V30 74 H 5.2726 -4.0595 0.1043 0
M  V30 75 H 6.8601 -3.2686 0.4089 0
M  V30 76 H 8.0194 -1.2642 0.0363 0
M  V30 77 H 7.1443 -0.1829 1.1517 0
M  V30 78 H 7.3538 1.7218 -0.3884 0
M  V30 79 H 8.9321 1.064 0.1345 0
M  V30 80 H 7.5899 0.5907 -2.6184 0
M  V30 81 H 9.4148 2.0014 -3.4938 0
M  V30 82 H 10.0652 2.2439 -1.8262 0
M  V30 83 H 8.4431 2.8998 -2.2777 0
M  V30 84 H 9.8491 -0.4091 -3.2392 0
M  V30 85 H 10.2997 -0.3903 -1.4908 0
M  V30 86 H 8.9202 -1.4023 -2.0823 0
M  V30 END ATOM
M  V30 BEGIN BOND
M  V30 1 2 1 2
M  V30 2 1 2 3
M  V30 3 1 2 4
M  V30 4 1 3 5
M  V30 5 2 5 6
M  V30 6 1 5 7
M  V30 7 1 6 8
M  V30 8 1 6 9
M  V30 9 2 7 10
M  V30 10 1 7 11
M  V30 11 2 8 12
M  V30 12 1 8 13
M  V30 13 1 10 14
M  V30 14 1 12 15
M  V30 15 1 13 16
M  V30 16 1 15 17
M  V30 17 1 17 18
M  V30 18 1 17 19
M  V30 19 1 18 20
M  V30 20 1 20 21
M  V30 21 1 21 22
M  V30 22 1 22 23
M  V30 23 1 22 24
M  V30 24 1 23 25
M  V30 25 1 25 26
M  V30 26 1 26 27
M  V30 27 1 27 28
M  V30 28 1 27 29
M  V30 29 1 28 30
M  V30 30 1 30 31
M  V30 31 1 31 32
M  V30 32 1 32 33
M  V30 33 1 32 34
M  V30 34 1 10 12
M  V30 35 1 16 17
M  V30 36 1 4 35
M  V30 37 1 4 36
M  V30 38 1 4 37
M  V30 39 1 9 38
M  V30 40 1 9 39
M  V30 41 1 9 40
M  V30 42 1 11 41
M  V30 43 1 11 42
M  V30 44 1 11 43
M  V30 45 1 13 44
M  V30 46 1 13 45
M  V30 47 1 14 46
M  V30 48 1 14 47
M  V30 49 1 14 48
M  V30 50 1 16 49
M  V30 51 1 16 50
M  V30 52 1 18 51
M  V30 53 1 18 52
M  V30 54 1 19 53
M  V30 55 1 19 54
M  V30 56 1 19 55
M  V30 57 1 20 56
M  V30 58 1 20 57
M  V30 59 1 21 58
M  V30 60 1 21 59
M  V30 61 1 22 60
M  V30 62 1 23 61
M  V30 63 1 23 62
M  V30 64 1 24 63
M  V30 65 1 24 64
M  V30 66 1 24 65
M  V30 67 1 25 66
M  V30 68 1 25 67
M  V30 69 1 26 68
M  V30 70 1 26 69
M  V30 71 1 27 70
M  V30 72 1 28 71
M  V30 73 1 28 72
M  V30 74 1 29 73
M  V30 75 1 29 74
M  V30 76 1 29 75
M  V30 77 1 30 76
M  V30 78 1 30 77
M  V30 79 1 31 78
M  V30 80 1 31 79
M  V30 81 1 32 80
M  V30 82 1 33 81
M  V30 83 1 33 82
M  V30 84 1 33 83
M  V30 85 1 34 84
M  V30 86 1 34 85
M  V30 87 1 34 86
M  V30 END BOND
M  V30 BEGIN COLLECTION
M  V30 MDLV30/STEABS ATOMS=(3 17 22 27)
M  V30 END COLLECTION
M  V30 END CTAB
M  END
>  <Structure No>
1334

>  <LogS>
-5.771545225

>  <MMFF94 Energy>
66.111

$$$$
Compound 1335
Actelion Java MolfileCreator 2.0

  0  0  0  0  0  0              0 V3000
M  V30 BEGIN CTAB
M  V30 COUNTS 58 58 0 0 0
M  V30 BEGIN ATOM
M  V30 1 O 3.2239 0.3141 -1.0999 0
M  V30 2 O 3.1253 -0.2908 0.076 0
M  V30 3 C 2.7324 1.6331 -0.9426 0
M  V30 4 C 4.0877 -1.3255 0.1234 0
M  V30 5 C 1.2433 1.5905 -0.5606 0
M  V30 6 C 3.6178 2.4003 0.0743 0
M  V30 7 C 2.8664 2.3383 -2.3017 0
M  V30 8 C 4.0304 -1.9275 1.5344 0
M  V30 9 C 5.5142 -0.7871 -0.1252 0
M  V30 10 C 3.7393 -2.4227 -0.8993 0
M  V30 11 C 0.679 2.4356 0.4179 0
M  V30 12 C 0.388 0.7145 -1.2505 0
M  V30 13 C -0.681 2.3583 0.7299 0
M  V30 14 C -0.9745 0.6527 -0.9515 0
M  V30 15 C -1.5259 1.4442 0.0752 0
M  V30 16 C -3.0293 1.3897 0.3898 0
M  V30 17 O -3.628 0.2298 -0.1588 0
M  V30 18 C -3.706 2.5961 -0.2776 0
M  V30 19 C -3.3084 1.4499 1.9148 0
M  V30 20 O -3.124 -0.8229 0.4722 0
M  V30 21 C -3.9666 -1.9295 0.2144 0
M  V30 22 C -3.9935 -2.255 -1.294 0
M  V30 23 C -5.397 -1.6675 0.7332 0
M  V30 24 C -3.3787 -3.1317 0.9661 0
M  V30 25 H 4.6907 2.2844 -0.19 0
M  V30 26 H 3.4739 2.0077 1.1041 0
M  V30 27 H 3.3844 3.4877 0.0707 0
M  V30 28 H 2.4676 3.3749 -2.2491 0
M  V30 29 H 3.9328 2.3851 -2.6102 0
M  V30 30 H 2.3107 1.7853 -3.0888 0
M  V30 31 H 3.0146 -2.3258 1.7443 0
M  V30 32 H 4.7651 -2.7554 1.6446 0
M  V30 33 H 4.2593 -1.1503 2.2923 0
M  V30 34 H 5.7397 0.0471 0.5724 0
M  V30 35 H 6.2685 -1.5891 0.0261 0
M  V30 36 H 5.625 -0.413 -1.1643 0
M  V30 37 H 4.4203 -3.2937 -0.7886 0
M  V30 38 H 2.6937 -2.7669 -0.75 0
M  V30 39 H 3.8341 -2.0423 -1.9385 0
M  V30 40 H 1.2763 3.1572 0.9502 0
M  V30 41 H 0.7773 0.074 -2.0317 0
M  V30 42 H -1.0707 3.0333 1.4786 0
M  V30 43 H -1.593 -0.0224 -1.5264 0
M  V30 44 H -3.2964 3.5503 0.1158 0
M  V30 45 H -4.8022 2.5797 -0.0888 0
M  V30 46 H -3.5437 2.5686 -1.3765 0
M  V30 47 H -3.1067 2.4568 2.3318 0
M  V30 48 H -2.679 0.7164 2.4601 0
M  V30 49 H -4.3741 1.2134 2.1163 0
M  V30 50 H -4.5875 -3.1763 -1.4849 0
M  V30 51 H -4.4482 -1.4234 -1.8745 0
M  V30 52 H -2.9588 -2.4156 -1.6699 0
M  V30 53 H -6.0262 -2.5765 0.6201 0
M  V30 54 H -5.3714 -1.3831 1.8056 0
M  V30 55 H -5.883 -0.8454 0.1691 0
M  V30 56 H -3.9791 -4.049 0.7878 0
M  V30 57 H -2.3389 -3.3212 0.6273 0
M  V30 58 H -3.3535 -2.9314 2.0584 0
M  V30 END ATOM
M  V30 BEGIN BOND
M  V30 1 1 1 2
M  V30 2 1 1 3
M  V30 3 1 2 4
M  V30 4 1 3 5
M  V30 5 1 3 6
M  V30 6 1 3 7
M  V30 7 1 4 8
M  V30 8 1 4 9
M  V30 9 1 4 10
M  V30 10 2 5 11
M  V30 11 1 5 12
M  V30 12 1 11 13
M  V30 13 2 12 14
M  V30 14 2 13 15
M  V30 15 1 15 16
M  V30 16 1 16 17
M  V30 17 1 16 18
M  V30 18 1 16 19
M  V30 19 1 17 20
M  V30 20 1 20 21
M  V30 21 1 21 22
M  V30 22 1 21 23
M  V30 23 1 21 24
M  V30 24 1 14 15
M  V30 25 1 6 25
M  V30 26 1 6 26
M  V30 27 1 6 27
M  V30 28 1 7 28
M  V30 29 1 7 29
M  V30 30 1 7 30
M  V30 31 1 8 31
M  V30 32 1 8 32
M  V30 33 1 8 33
M  V30 34 1 9 34
M  V30 35 1 9 35
M  V30 36 1 9 36
M  V30 37 1 10 37
M  V30 38 1 10 38
M  V30 39 1 10 39
M  V30 40 1 11 40
M  V30 41 1 12 41
M  V30 42 1 13 42
M  V30 43 1 14 43
M  V30 44 1 18 44
M  V30 45 1 18 45
M  V30 46 1 18 46
M  V30 47 1 19 47
M  V30 48 1 19 48
M  V30 49 1 19 49
M  V30 50 1 22 50
M  V30 51 1 22 51
M  V30 52 1 22 52
M  V30 53 1 23 53
M  V30 54 1 23 54
M  V30 55 1 23 55
M  V30 56 1 24 56
M  V30 57 1 24 57
M  V30 58 1 24 58
M  V30 END BOND
M  V30 END CTAB
M  END
>  <Structure No>
1335

>  <LogS>
-5.737151587

>  <MMFF94 Energy>
102.06

$$$$
Compound 1336
Actelion Java MolfileCreator 2.0

  0  0  0  0  0  0              0 V3000
M  V30 BEGIN CTAB
M  V30 COUNTS 1 0 0 0 0
M  V30 BEGIN ATOM
M  V30 1 O 0.0 0.0 0.0 0
M  V30 END ATOM
M  V30 BEGIN BOND
M  V30 END BOND
M  V30 END CTAB
M  END
>  <Structure No>
1336

>  <LogS>
-5.025247952

>  <MMFF94 Energy>
3.4552e-10

$$$$
Compound 1337
Actelion Java MolfileCreator 2.0

  0  0  0  0  0  0              0 V3000
M  V30 BEGIN CTAB
M  V30 COUNTS 112 111 0 0 0
M  V30 BEGIN ATOM
M  V30 1 S 1.1068 -0.158 -0.6323 0
M  V30 2 S -0.1873 -0.9772 0.86 0
M  V30 3 C 0.9288 1.5698 -0.0585 0
M  V30 4 C -1.5898 -1.3151 -0.2694 0
M  V30 5 C 1.7456 1.8486 1.2132 0
M  V30 6 C -2.618 -0.1718 -0.2648 0
M  V30 7 C 3.195 2.2947 0.9453 0
M  V30 8 C -2.4491 0.7785 -1.4626 0
M  V30 9 C 4.129 1.1527 0.4919 0
M  V30 10 C -3.0378 2.1801 -1.2178 0
M  V30 11 C 4.4506 1.223 -1.0115 0
M  V30 12 C -4.577 2.24 -1.2814 0
M  V30 13 C 5.3593 0.0597 -1.4631 0
M  V30 14 C -5.2516 1.9426 0.0701 0
M  V30 15 C 6.8337 0.4585 -1.6557 0
M  V30 16 C -6.7239 2.3807 0.1096 0
M  V30 17 C 7.5205 0.8778 -0.3475 0
M  V30 18 C -7.5997 1.609 -0.8921 0
M  V30 19 C 9.0356 1.0192 -0.5402 0
M  V30 20 C -9.0894 1.9862 -0.7925 0
M  V30 21 C 9.7127 1.523 0.7445 0
M  V30 22 C -9.7938 1.5377 0.5057 0
M  V30 23 C 11.2201 1.7874 0.5634 0
M  V30 24 C -9.7218 0.0264 0.8037 0
M  V30 25 C 12.0641 0.5388 0.2447 0
M  V30 26 C -10.2276 -0.8881 -0.3286 0
M  V30 27 C 11.9831 -0.5335 1.3454 0
M  V30 28 C -11.685 -0.6424 -0.7584 0
M  V30 29 C 13.0598 -1.6208 1.198 0
M  V30 30 C -12.7001 -0.9696 0.347 0
M  V30 31 C 12.8773 -2.4612 -0.0783 0
M  V30 32 C -14.1373 -0.8513 -0.1838 0
M  V30 33 C 13.763 -3.7256 -0.0922 0
M  V30 34 C -15.1955 -1.131 0.8953 0
M  V30 35 C 15.0888 -3.5533 -0.8521 0
M  V30 36 C -15.2773 -2.6189 1.2677 0
M  V30 37 C 16.0842 -2.639 -0.1366 0
M  V30 38 C -16.4509 -2.8881 2.2042 0
M  V30 39 H -0.1417 1.7735 0.1513 0
M  V30 40 H 1.2356 2.2563 -0.8779 0
M  V30 41 H -1.2378 -1.5517 -1.2976 0
M  V30 42 H -2.0857 -2.2321 0.1132 0
M  V30 43 H 1.7315 0.9707 1.896 0
M  V30 44 H 1.244 2.6797 1.7575 0
M  V30 45 H -3.631 -0.6236 -0.329 0
M  V30 46 H -2.5602 0.385 0.6964 0
M  V30 47 H 3.5928 2.6982 1.9028 0
M  V30 48 H 3.2086 3.1424 0.2259 0
M  V30 49 H -1.3732 0.9052 -1.6911 0
M  V30 50 H -2.9066 0.3243 -2.3683 0
M  V30 51 H 5.0768 1.2251 1.0643 0
M  V30 52 H 3.6865 0.1653 0.7427 0
M  V30 53 H -2.6575 2.6002 -0.2603 0
M  V30 54 H -2.6452 2.8408 -2.0224 0
M  V30 55 H 3.4982 1.1742 -1.5843 0
M  V30 56 H 4.9168 2.2028 -1.2546 0
M  V30 57 H -4.8602 3.2682 -1.5964 0
M  V30 58 H -4.9511 1.5412 -2.0592 0
M  V30 59 H 4.9854 -0.3056 -2.4455 0
M  V30 60 H 5.2916 -0.8025 -0.7625 0
M  V30 61 H -4.7179 2.486 0.8797 0
M  V30 62 H -5.1987 0.8614 0.2999 0
M  V30 63 H 7.3678 -0.4203 -2.0793 0
M  V30 64 H 6.9039 1.2853 -2.3971 0
M  V30 65 H -7.0959 2.2042 1.1399 0
M  V30 66 H -6.7964 3.4705 -0.0915 0
M  V30 67 H 7.1058 1.8531 -0.0157 0
M  V30 68 H 7.3225 0.1179 0.441 0
M  V30 69 H -7.4622 0.5146 -0.7642 0
M  V30 70 H -7.2689 1.8592 -1.9234 0
M  V30 71 H 9.2403 1.7359 -1.3679 0
M  V30 72 H 9.4499 0.0264 -0.8171 0
M  V30 73 H -9.1856 3.0906 -0.8775 0
M  V30 74 H -9.6236 1.5575 -1.6663 0
M  V30 75 H 9.542 0.8038 1.5741 0
M  V30 76 H 9.2359 2.483 1.0432 0
M  V30 77 H -9.3651 2.0896 1.3688 0
M  V30 78 H -10.8592 1.8451 0.4522 0
M  V30 79 H 11.3619 2.5322 -0.252 0
M  V30 80 H 11.6098 2.2552 1.4941 0
M  V30 81 H -10.3007 -0.1803 1.7282 0
M  V30 82 H -8.6724 -0.2488 1.0418 0
M  V30 83 H 13.1213 0.8685 0.1369 0
M  V30 84 H 11.7533 0.1119 -0.7314 0
M  V30 85 H -10.1225 -1.9455 -2.0E-4 0
M  V30 86 H -9.5703 -0.7726 -1.2157 0
M  V30 87 H 10.9784 -1.0115 1.3371 0
M  V30 88 H 12.1241 -0.0477 2.3358 0
M  V30 89 H -11.8179 0.4059 -1.1015 0
M  V30 90 H -11.8899 -1.2986 -1.6325 0
M  V30 91 H 14.061 -1.1472 1.2151 0
M  V30 92 H 12.9881 -2.2851 2.0863 0
M  V30 93 H -12.5169 -2.0024 0.7116 0
M  V30 94 H -12.5718 -0.262 1.1934 0
M  V30 95 H 13.0764 -1.8431 -0.9792 0
M  V30 96 H 11.8135 -2.7877 -0.1325 0
M  V30 97 H -14.2943 0.1847 -0.5575 0
M  V30 98 H -14.286 -1.5446 -1.0402 0
M  V30 99 H 13.9564 -4.0981 0.9376 0
M  V30 100 H 13.1988 -4.5295 -0.6136 0
M  V30 101 H -14.9803 -0.5256 1.8028 0
M  V30 102 H -16.1831 -0.8067 0.4988 0
M  V30 103 H 14.8994 -3.165 -1.8773 0
M  V30 104 H 15.5581 -4.5586 -0.958 0
M  V30 105 H -14.3433 -2.9361 1.7766 0
M  V30 106 H -15.4061 -3.2314 0.3481 0
M  V30 107 H 16.1625 -2.907 0.9395 0
M  V30 108 H 17.0858 -2.7519 -0.6052 0
M  V30 109 H 15.778 -1.5759 -0.24 0
M  V30 110 H -16.351 -2.2865 3.133 0
M  V30 111 H -17.4082 -2.6358 1.7017 0
M  V30 112 H -16.4685 -3.9643 2.4769 0
M  V30 END ATOM
M  V30 BEGIN BOND
M  V30 1 1 1 2
M  V30 2 1 1 3
M  V30 3 1 2 4
M  V30 4 1 3 5
M  V30 5 1 4 6
M  V30 6 1 5 7
M  V30 7 1 6 8
M  V30 8 1 7 9
M  V30 9 1 8 10
M  V30 10 1 9 11
M  V30 11 1 10 12
M  V30 12 1 11 13
M  V30 13 1 12 14
M  V30 14 1 13 15
M  V30 15 1 14 16
M  V30 16 1 15 17
M  V30 17 1 16 18
M  V30 18 1 17 19
M  V30 19 1 18 20
M  V30 20 1 19 21
M  V30 21 1 20 22
M  V30 22 1 21 23
M  V30 23 1 22 24
M  V30 24 1 23 25
M  V30 25 1 24 26
M  V30 26 1 25 27
M  V30 27 1 26 28
M  V30 28 1 27 29
M  V30 29 1 28 30
M  V30 30 1 29 31
M  V30 31 1 30 32
M  V30 32 1 31 33
M  V30 33 1 32 34
M  V30 34 1 33 35
M  V30 35 1 34 36
M  V30 36 1 35 37
M  V30 37 1 36 38
M  V30 38 1 3 39
M  V30 39 1 3 40
M  V30 40 1 4 41
M  V30 41 1 4 42
M  V30 42 1 5 43
M  V30 43 1 5 44
M  V30 44 1 6 45
M  V30 45 1 6 46
M  V30 46 1 7 47
M  V30 47 1 7 48
M  V30 48 1 8 49
M  V30 49 1 8 50
M  V30 50 1 9 51
M  V30 51 1 9 52
M  V30 52 1 10 53
M  V30 53 1 10 54
M  V30 54 1 11 55
M  V30 55 1 11 56
M  V30 56 1 12 57
M  V30 57 1 12 58
M  V30 58 1 13 59
M  V30 59 1 13 60
M  V30 60 1 14 61
M  V30 61 1 14 62
M  V30 62 1 15 63
M  V30 63 1 15 64
M  V30 64 1 16 65
M  V30 65 1 16 66
M  V30 66 1 17 67
M  V30 67 1 17 68
M  V30 68 1 18 69
M  V30 69 1 18 70
M  V30 70 1 19 71
M  V30 71 1 19 72
M  V30 72 1 20 73
M  V30 73 1 20 74
M  V30 74 1 21 75
M  V30 75 1 21 76
M  V30 76 1 22 77
M  V30 77 1 22 78
M  V30 78 1 23 79
M  V30 79 1 23 80
M  V30 80 1 24 81
M  V30 81 1 24 82
M  V30 82 1 25 83
M  V30 83 1 25 84
M  V30 84 1 26 85
M  V30 85 1 26 86
M  V30 86 1 27 87
M  V30 87 1 27 88
M  V30 88 1 28 89
M  V30 89 1 28 90
M  V30 90 1 29 91
M  V30 91 1 29 92
M  V30 92 1 30 93
M  V30 93 1 30 94
M  V30 94 1 31 95
M  V30 95 1 31 96
M  V30 96 1 32 97
M  V30 97 1 32 98
M  V30 98 1 33 99
M  V30 99 1 33 100
M  V30 100 1 34 101
M  V30 101 1 34 102
M  V30 102 1 35 103
M  V30 103 1 35 104
M  V30 104 1 36 105
M  V30 105 1 36 106
M  V30 106 1 37 107
M  V30 107 1 37 108
M  V30 108 1 37 109
M  V30 109 1 38 110
M  V30 110 1 38 111
M  V30 111 1 38 112
M  V30 END BOND
M  V30 END CTAB
M  END
>  <Structure No>
1337

>  <LogS>
-6.057758885

>  <MMFF94 Energy>
-7.8796

$$$$
Compound 1338
Actelion Java MolfileCreator 2.0

  0  0  0  0  0  0              0 V3000
M  V30 BEGIN CTAB
M  V30 COUNTS 73 72 0 0 0
M  V30 BEGIN ATOM
M  V30 1 O 1.3323 1.9598 0.235 0
M  V30 2 C 1.3209 1.1822 1.226 0
M  V30 3 O 1.6323 1.6792 2.4855 0 CHG=-1
M  V30 4 C 1.0325 -0.2885 1.0555 0 CFG=1
M  V30 5 C -0.051 -0.5632 -0.0172 0
M  V30 6 C 2.3342 -1.08 0.7947 0
M  V30 7 C -1.4469 -0.0338 0.3637 0
M  V30 8 C 3.0316 -0.7341 -0.5356 0
M  V30 9 C -2.1569 -0.9228 1.4 0
M  V30 10 C 4.3136 -1.555 -0.7638 0
M  V30 11 C -3.5785 -0.4199 1.7329 0
M  V30 12 C 5.4405 -1.3142 0.2617 0
M  V30 13 C -4.6993 -1.2301 1.0537 0
M  V30 14 C 5.842 0.1604 0.4746 0
M  V30 15 C -4.7864 -1.0628 -0.4743 0
M  V30 16 C 6.3151 0.8893 -0.7981 0
M  V30 17 C -5.0594 0.3756 -0.9628 0
M  V30 18 C 7.691 0.4065 -1.3119 0
M  V30 19 C -6.3277 1.0325 -0.3895 0
M  V30 20 C 8.8224 1.4268 -1.0862 0
M  V30 21 C -7.6136 0.2834 -0.769 0
M  V30 22 C 9.1679 1.6727 0.3916 0
M  V30 23 C -8.8557 1.0523 -0.2949 0
M  V30 24 C 9.8148 0.4599 1.0595 0
M  V30 25 C -10.1677 0.3939 -0.7487 0
M  V30 26 C -10.4502 -0.9221 -0.0253 0
M  V30 27 H 0.6494 -0.6587 2.0294 0
M  V30 28 H -0.1179 -1.6555 -0.2133 0
M  V30 29 H 0.2452 -0.0832 -0.9743 0
M  V30 30 H 2.1017 -2.1675 0.8085 0
M  V30 31 H 3.0271 -0.8836 1.6403 0
M  V30 32 H -2.0545 -0.0011 -0.5627 0
M  V30 33 H -1.3731 1.0078 0.7444 0
M  V30 34 H 2.345 -0.9634 -1.3774 0
M  V30 35 H 3.2611 0.3494 -0.5898 0
M  V30 36 H -2.1863 -1.9748 1.0413 0
M  V30 37 H -1.5652 -0.9164 2.3393 0
M  V30 38 H 4.6966 -1.3452 -1.785 0
M  V30 39 H 4.0523 -2.6355 -0.7482 0
M  V30 40 H -3.7272 -0.5265 2.8303 0
M  V30 41 H -3.6893 0.6644 1.5204 0
M  V30 42 H 6.328 -1.8999 -0.0544 0
M  V30 43 H 5.1358 -1.7391 1.2414 0
M  V30 44 H -5.6727 -0.9552 1.5112 0
M  V30 45 H -4.552 -2.3083 1.2817 0
M  V30 46 H 4.984 0.7149 0.9101 0
M  V30 47 H 6.6467 0.1971 1.2382 0
M  V30 48 H -5.5856 -1.7329 -0.8565 0
M  V30 49 H -3.8455 -1.4272 -0.9363 0
M  V30 50 H 6.3465 1.9795 -0.5833 0
M  V30 51 H 5.5576 0.7761 -1.6013 0
M  V30 52 H -4.1908 1.0227 -0.723 0
M  V30 53 H -5.1367 0.3582 -2.072 0
M  V30 54 H 7.9774 -0.5747 -0.8839 0
M  V30 55 H 7.6083 0.2452 -2.4091 0
M  V30 56 H -6.381 2.0664 -0.7966 0
M  V30 57 H -6.2494 1.1244 0.7145 0
M  V30 58 H 9.7329 1.0755 -1.6178 0
M  V30 59 H 8.534 2.3946 -1.5515 0
M  V30 60 H -7.6553 0.1583 -1.8731 0
M  V30 61 H -7.6049 -0.7188 -0.2935 0
M  V30 62 H 9.8873 2.5181 0.4411 0
M  V30 63 H 8.2658 1.979 0.9607 0
M  V30 64 H -8.8436 1.1434 0.8137 0
M  V30 65 H -8.8264 2.0799 -0.718 0
M  V30 66 H 10.1497 0.7374 2.0812 0
M  V30 67 H 9.0907 -0.3757 1.151 0
M  V30 68 H 10.6987 0.1217 0.4789 0
M  V30 69 H -11.0037 1.0944 -0.5342 0
M  V30 70 H -10.1495 0.2193 -1.8465 0
M  V30 71 H -10.4098 -0.7782 1.0757 0
M  V30 72 H -9.7177 -1.7005 -0.324 0
M  V30 73 H -11.4656 -1.2819 -0.2974 0
M  V30 END ATOM
M  V30 BEGIN BOND
M  V30 1 2 1 2
M  V30 2 1 2 3
M  V30 3 1 2 4
M  V30 4 1 4 5
M  V30 5 1 4 6
M  V30 6 1 5 7
M  V30 7 1 6 8
M  V30 8 1 7 9
M  V30 9 1 8 10
M  V30 10 1 9 11
M  V30 11 1 10 12
M  V30 12 1 11 13
M  V30 13 1 12 14
M  V30 14 1 13 15
M  V30 15 1 14 16
M  V30 16 1 15 17
M  V30 17 1 16 18
M  V30 18 1 17 19
M  V30 19 1 18 20
M  V30 20 1 19 21
M  V30 21 1 20 22
M  V30 22 1 21 23
M  V30 23 1 22 24
M  V30 24 1 23 25
M  V30 25 1 25 26
M  V30 26 1 4 27
M  V30 27 1 5 28
M  V30 28 1 5 29
M  V30 29 1 6 30
M  V30 30 1 6 31
M  V30 31 1 7 32
M  V30 32 1 7 33
M  V30 33 1 8 34
M  V30 34 1 8 35
M  V30 35 1 9 36
M  V30 36 1 9 37
M  V30 37 1 10 38
M  V30 38 1 10 39
M  V30 39 1 11 40
M  V30 40 1 11 41
M  V30 41 1 12 42
M  V30 42 1 12 43
M  V30 43 1 13 44
M  V30 44 1 13 45
M  V30 45 1 14 46
M  V30 46 1 14 47
M  V30 47 1 15 48
M  V30 48 1 15 49
M  V30 49 1 16 50
M  V30 50 1 16 51
M  V30 51 1 17 52
M  V30 52 1 17 53
M  V30 53 1 18 54
M  V30 54 1 18 55
M  V30 55 1 19 56
M  V30 56 1 19 57
M  V30 57 1 20 58
M  V30 58 1 20 59
M  V30 59 1 21 60
M  V30 60 1 21 61
M  V30 61 1 22 62
M  V30 62 1 22 63
M  V30 63 1 23 64
M  V30 64 1 23 65
M  V30 65 1 24 66
M  V30 66 1 24 67
M  V30 67 1 24 68
M  V30 68 1 25 69
M  V30 69 1 25 70
M  V30 70 1 26 71
M  V30 71 1 26 72
M  V30 72 1 26 73
M  V30 END BOND
M  V30 BEGIN COLLECTION
M  V30 MDLV30/STEABS ATOMS=(1 4)
M  V30 END COLLECTION
M  V30 END CTAB
M  END
>  <Structure No>
1338

>  <LogS>
-5.867639522

>  <MMFF94 Energy>
6.8789

$$$$
Compound 1339
Actelion Java MolfileCreator 2.0

  0  0  0  0  0  0              0 V3000
M  V30 BEGIN CTAB
M  V30 COUNTS 73 74 0 0 0
M  V30 BEGIN ATOM
M  V30 1 O 4.2691 -0.4736 -2.37 0
M  V30 2 C 4.6221 -0.4036 -1.1609 0
M  V30 3 N 5.8541 0.2475 -0.8013 0
M  V30 4 C 3.7773 -1.0256 -0.1226 0
M  V30 5 C 6.6618 1.0023 -1.7239 0
M  V30 6 O 4.1714 -1.028 1.0752 0
M  V30 7 N 2.535 -1.6588 -0.4776 0
M  V30 8 C 8.0676 0.9651 -1.6133 0
M  V30 9 C 6.064 1.8221 -2.6997 0
M  V30 10 C 1.5432 -2.0833 0.4746 0
M  V30 11 O 8.6417 0.1616 -0.6101 0
M  V30 12 C 8.8511 1.718 -2.5128 0
M  V30 13 C 6.8526 2.5635 -3.5809 0
M  V30 14 C 0.7337 -3.1903 0.1784 0
M  V30 15 C 1.3305 -1.3852 1.6777 0
M  V30 16 C 10.0331 0.0779 -0.3023 0
M  V30 17 C 8.2427 2.5068 -3.4917 0
M  V30 18 C -0.2399 -3.6208 1.0835 0
M  V30 19 C 0.3658 -1.8245 2.5892 0
M  V30 20 C 10.4932 1.3113 0.468 0
M  V30 21 C -0.4188 -2.9519 2.3036 0
M  V30 22 C -1.4746 -3.4147 3.2754 0
M  V30 23 C -2.8512 -2.8111 2.9578 0
M  V30 24 C -2.9143 -1.3077 3.2764 0
M  V30 25 C -4.3388 -0.7349 3.1746 0
M  V30 26 C -4.9591 -0.787 1.7665 0
M  V30 27 C -4.1592 0.0236 0.7319 0
M  V30 28 C -4.896 0.1567 -0.6113 0
M  V30 29 C -6.0119 1.213 -0.5685 0
M  V30 30 C -6.6631 1.3808 -1.9531 0
M  V30 31 C -7.8322 2.395 -1.9949 0
M  V30 32 C -9.0228 1.9566 -1.1296 0
M  V30 33 C -7.3881 3.8193 -1.6326 0
M  V30 34 H 6.2294 0.0937 0.1617 0
M  V30 35 H 2.383 -1.9133 -1.4795 0
M  V30 36 H 4.9878 1.9104 -2.7641 0
M  V30 37 H 9.9307 1.7035 -2.4677 0
M  V30 38 H 6.3839 3.1911 -4.3276 0
M  V30 39 H 0.8638 -3.727 -0.7528 0
M  V30 40 H 1.8913 -0.4896 1.9081 0
M  V30 41 H 10.6366 -0.0665 -1.2235 0
M  V30 42 H 10.1929 -0.8133 0.3402 0
M  V30 43 H 8.8513 3.083 -4.1763 0
M  V30 44 H -0.8519 -4.479 0.8347 0
M  V30 45 H 0.2211 -1.2773 3.5127 0
M  V30 46 H 10.336 2.2314 -0.1301 0
M  V30 47 H 11.5735 1.2217 0.703 0
M  V30 48 H 9.9266 1.3965 1.4182 0
M  V30 49 H -1.1791 -3.1665 4.3193 0
M  V30 50 H -1.5532 -4.5236 3.2263 0
M  V30 51 H -3.089 -2.9884 1.8869 0
M  V30 52 H -3.612 -3.3429 3.5696 0
M  V30 53 H -2.2291 -0.7433 2.6108 0
M  V30 54 H -2.563 -1.1459 4.3194 0
M  V30 55 H -5.0006 -1.2873 3.8771 0
M  V30 56 H -4.3192 0.3229 3.5169 0
M  V30 57 H -5.0587 -1.8395 1.4271 0
M  V30 58 H -5.9866 -0.3767 1.8487 0
M  V30 59 H -3.1988 -0.4994 0.5366 0
M  V30 60 H -3.9194 1.0329 1.1322 0
M  V30 61 H -4.1537 0.4585 -1.3826 0
M  V30 62 H -5.3135 -0.8285 -0.9129 0
M  V30 63 H -5.5751 2.1805 -0.2438 0
M  V30 64 H -6.7816 0.9046 0.1658 0
M  V30 65 H -5.8856 1.7048 -2.6804 0
M  V30 66 H -7.0383 0.3925 -2.3 0
M  V30 67 H -8.1894 2.4244 -3.0485 0
M  V30 68 H -8.7839 2.0291 -0.0485 0
M  V30 69 H -9.8982 2.6096 -1.3331 0
M  V30 70 H -9.3083 0.9104 -1.3682 0
M  V30 71 H -7.1215 3.8945 -0.5579 0
M  V30 72 H -8.2133 4.5345 -1.8365 0
M  V30 73 H -6.5112 4.118 -2.2455 0
M  V30 END ATOM
M  V30 BEGIN BOND
M  V30 1 2 1 2
M  V30 2 1 2 3
M  V30 3 1 2 4
M  V30 4 1 3 5
M  V30 5 2 4 6
M  V30 6 1 4 7
M  V30 7 2 5 8
M  V30 8 1 5 9
M  V30 9 1 7 10
M  V30 10 1 8 11
M  V30 11 1 8 12
M  V30 12 2 9 13
M  V30 13 2 10 14
M  V30 14 1 10 15
M  V30 15 1 11 16
M  V30 16 2 12 17
M  V30 17 1 14 18
M  V30 18 2 15 19
M  V30 19 1 16 20
M  V30 20 2 18 21
M  V30 21 1 21 22
M  V30 22 1 22 23
M  V30 23 1 23 24
M  V30 24 1 24 25
M  V30 25 1 25 26
M  V30 26 1 26 27
M  V30 27 1 27 28
M  V30 28 1 28 29
M  V30 29 1 29 30
M  V30 30 1 30 31
M  V30 31 1 31 32
M  V30 32 1 31 33
M  V30 33 1 13 17
M  V30 34 1 19 21
M  V30 35 1 3 34
M  V30 36 1 7 35
M  V30 37 1 9 36
M  V30 38 1 12 37
M  V30 39 1 13 38
M  V30 40 1 14 39
M  V30 41 1 15 40
M  V30 42 1 16 41
M  V30 43 1 16 42
M  V30 44 1 17 43
M  V30 45 1 18 44
M  V30 46 1 19 45
M  V30 47 1 20 46
M  V30 48 1 20 47
M  V30 49 1 20 48
M  V30 50 1 22 49
M  V30 51 1 22 50
M  V30 52 1 23 51
M  V30 53 1 23 52
M  V30 54 1 24 53
M  V30 55 1 24 54
M  V30 56 1 25 55
M  V30 57 1 25 56
M  V30 58 1 26 57
M  V30 59 1 26 58
M  V30 60 1 27 59
M  V30 61 1 27 60
M  V30 62 1 28 61
M  V30 63 1 28 62
M  V30 64 1 29 63
M  V30 65 1 29 64
M  V30 66 1 30 65
M  V30 67 1 30 66
M  V30 68 1 31 67
M  V30 69 1 32 68
M  V30 70 1 32 69
M  V30 71 1 32 70
M  V30 72 1 33 71
M  V30 73 1 33 72
M  V30 74 1 33 73
M  V30 END BOND
M  V30 END CTAB
M  END
>  <Structure No>
1339

>  <LogS>
-6.09944947

>  <MMFF94 Energy>
73.906

$$$$
Compound 1340
Actelion Java MolfileCreator 2.0

  0  0  0  0  0  0              0 V3000
M  V30 BEGIN CTAB
M  V30 COUNTS 53 52 0 0 0
M  V30 BEGIN ATOM
M  V30 1 O 1.4072 -1.7983 1.4854 0
M  V30 2 C 0.3468 -1.6395 0.8191 0
M  V30 3 O 0.3567 -1.7302 -0.5804 0
M  V30 4 C -0.9533 -1.4232 1.5401 0
M  V30 5 C 1.5199 -2.0324 -1.3533 0
M  V30 6 C -1.7858 -0.2619 0.9392 0 CFG=1
M  V30 7 C 2.0943 -0.7638 -2.0195 0 CFG=1
M  V30 8 C -3.2352 -0.3227 1.504 0
M  V30 9 C -1.1027 1.0851 1.2234 0
M  V30 10 C 2.606 0.2764 -0.9877 0
M  V30 11 C 3.1475 -1.16 -3.0842 0
M  V30 12 C -4.324 0.6244 0.8842 0
M  V30 13 C 3.8772 -0.1426 -0.2191 0
M  V30 14 C 3.7014 0.0347 -3.8609 0
M  V30 15 C -5.7122 0.0394 1.2313 0
M  V30 16 C -4.2569 2.0475 1.4924 0
M  V30 17 C -4.2138 0.7098 -0.6558 0
M  V30 18 C 4.3431 0.9371 0.7746 0
M  V30 19 C 3.448 1.0321 2.0106 0
M  V30 20 H -0.7596 -1.2249 2.6211 0
M  V30 21 H -1.5219 -2.3793 1.4725 0
M  V30 22 H 1.2022 -2.7386 -2.1502 0
M  V30 23 H 2.2889 -2.5647 -0.7511 0
M  V30 24 H -1.8266 -0.4176 -0.1584 0
M  V30 25 H 1.249 -0.2848 -2.5639 0
M  V30 26 H -3.2011 -0.1767 2.6063 0
M  V30 27 H -3.585 -1.3696 1.3526 0
M  V30 28 H -1.3423 1.4493 2.2434 0
M  V30 29 H -1.4082 1.8378 0.4728 0
M  V30 30 H -0.0023 0.9992 1.1445 0
M  V30 31 H 1.7902 0.4873 -0.271 0
M  V30 32 H 2.8009 1.2369 -1.5083 0
M  V30 33 H 3.9859 -1.7228 -2.6179 0
M  V30 34 H 2.6705 -1.8416 -3.8231 0
M  V30 35 H 3.7169 -1.0991 0.3229 0
M  V30 36 H 4.7043 -0.3033 -0.9403 0
M  V30 37 H 4.3457 0.6614 -3.2111 0
M  V30 38 H 2.8728 0.6513 -4.2701 0
M  V30 39 H 4.3217 -0.331 -4.7064 0
M  V30 40 H -5.8537 -0.9566 0.7563 0
M  V30 41 H -6.5274 0.7055 0.8694 0
M  V30 42 H -5.8223 -0.0799 2.3298 0
M  V30 43 H -4.2862 1.998 2.603 0
M  V30 44 H -3.3507 2.5958 1.1901 0
M  V30 45 H -5.121 2.6584 1.1525 0
M  V30 46 H -4.2036 -0.3125 -1.1017 0
M  V30 47 H -5.0746 1.2711 -1.0812 0
M  V30 48 H -3.2926 1.2445 -0.9668 0
M  V30 49 H 4.3928 1.9293 0.2721 0
M  V30 50 H 5.3711 0.6807 1.1146 0
M  V30 51 H 3.9022 1.7305 2.7438 0
M  V30 52 H 2.4453 1.4239 1.7407 0
M  V30 53 H 3.3419 0.0374 2.4902 0
M  V30 END ATOM
M  V30 BEGIN BOND
M  V30 1 2 1 2
M  V30 2 1 2 3
M  V30 3 1 2 4
M  V30 4 1 3 5
M  V30 5 1 4 6
M  V30 6 1 5 7
M  V30 7 1 6 8
M  V30 8 1 6 9
M  V30 9 1 7 10
M  V30 10 1 7 11
M  V30 11 1 8 12
M  V30 12 1 10 13
M  V30 13 1 11 14
M  V30 14 1 12 15
M  V30 15 1 12 16
M  V30 16 1 12 17
M  V30 17 1 13 18
M  V30 18 1 18 19
M  V30 19 1 4 20
M  V30 20 1 4 21
M  V30 21 1 5 22
M  V30 22 1 5 23
M  V30 23 1 6 24
M  V30 24 1 7 25
M  V30 25 1 8 26
M  V30 26 1 8 27
M  V30 27 1 9 28
M  V30 28 1 9 29
M  V30 29 1 9 30
M  V30 30 1 10 31
M  V30 31 1 10 32
M  V30 32 1 11 33
M  V30 33 1 11 34
M  V30 34 1 13 35
M  V30 35 1 13 36
M  V30 36 1 14 37
M  V30 37 1 14 38
M  V30 38 1 14 39
M  V30 39 1 15 40
M  V30 40 1 15 41
M  V30 41 1 15 42
M  V30 42 1 16 43
M  V30 43 1 16 44
M  V30 44 1 16 45
M  V30 45 1 17 46
M  V30 46 1 17 47
M  V30 47 1 17 48
M  V30 48 1 18 49
M  V30 49 1 18 50
M  V30 50 1 19 51
M  V30 51 1 19 52
M  V30 52 1 19 53
M  V30 END BOND
M  V30 BEGIN COLLECTION
M  V30 MDLV30/STEABS ATOMS=(2 6 7)
M  V30 END COLLECTION
M  V30 END CTAB
M  END
>  <Structure No>
1340

>  <LogS>
-5.954976972

>  <MMFF94 Energy>
15.606

$$$$
Compound 1341
Actelion Java MolfileCreator 2.0

  0  0  0  0  0  0              0 V3000
M  V30 BEGIN CTAB
M  V30 COUNTS 1 0 0 0 0
M  V30 BEGIN ATOM
M  V30 1 O 0.0 0.0 0.0 0
M  V30 END ATOM
M  V30 BEGIN BOND
M  V30 END BOND
M  V30 END CTAB
M  END
>  <Structure No>
1341

>  <LogS>
-5.6562324

>  <MMFF94 Energy>
1.6102e-10

$$$$
Compound 1342
Actelion Java MolfileCreator 2.0

  0  0  0  0  0  0              0 V3000
M  V30 BEGIN CTAB
M  V30 COUNTS 67 69 0 0 0
M  V30 BEGIN ATOM
M  V30 1 O 2.6239 -1.4305 -2.7035 0
M  V30 2 C 1.7725 -2.1113 -2.0701 0
M  V30 3 O 1.5269 -1.8717 -0.7127 0
M  V30 4 C 0.9354 -3.12 -2.7967 0
M  V30 5 C 2.0433 -0.7451 -0.0081 0
M  V30 6 C -0.3122 -2.468 -3.4113 0
M  V30 7 C 3.5223 -0.9471 0.3388 0
M  V30 8 C -1.216 -1.8907 -2.3479 0
M  V30 9 C 4.0527 0.1033 1.3339 0
M  V30 10 C -1.0538 -0.5672 -1.9412 0
M  V30 11 C -2.152 -2.7024 -1.6993 0
M  V30 12 C 3.9272 1.5802 0.8752 0 CFG=1
M  V30 13 C -1.7786 -0.0539 -0.8629 0
M  V30 14 C -2.9309 -2.2213 -0.6173 0
M  V30 15 C 4.4719 2.5089 1.9884 0
M  V30 16 C 4.6686 1.819 -0.4541 0
M  V30 17 N -1.5627 1.3152 -0.481 0
M  V30 18 C -2.6839 -0.8913 -0.1657 0
M  V30 19 C -3.9597 -3.1395 0.1002 0
M  V30 20 C 4.0507 3.9702 1.8149 0
M  V30 21 N -2.5361 2.1505 -0.12 0
M  V30 22 N -0.3664 1.9022 -0.525 0
M  V30 23 O -3.3008 -0.4347 1.0008 0
M  V30 24 C -3.4773 -3.4479 1.5341 0
M  V30 25 C -4.1597 -4.5008 -0.6163 0
M  V30 26 C -5.349 -2.4585 0.1456 0
M  V30 27 C -1.9182 3.3212 0.1001 0
M  V30 28 C -0.5902 3.1689 -0.1494 0
M  V30 29 C -2.463 4.5365 0.5027 0
M  V30 30 C 0.3144 4.2182 -0.0282 0
M  V30 31 C -1.5784 5.6242 0.6484 0
M  V30 32 C -0.1959 5.4665 0.3814 0
M  V30 33 H 1.5386 -3.5876 -3.6045 0
M  V30 34 H 0.6318 -3.9261 -2.0941 0
M  V30 35 H 1.9049 0.1698 -0.6223 0
M  V30 36 H 1.4572 -0.6265 0.9277 0
M  V30 37 H -0.0046 -1.6754 -4.1292 0
M  V30 38 H -0.8664 -3.2336 -3.9974 0
M  V30 39 H 4.1374 -0.9501 -0.5843 0
M  V30 40 H 3.6399 -1.9492 0.8062 0
M  V30 41 H 3.5018 -0.0275 2.2923 0
M  V30 42 H 5.1212 -0.1249 1.5423 0
M  V30 43 H -0.3361 0.0633 -2.4523 0
M  V30 44 H -2.2374 -3.7194 -2.0499 0
M  V30 45 H 2.8499 1.8139 0.7312 0
M  V30 46 H 5.5819 2.4479 2.0307 0
M  V30 47 H 4.0822 2.1726 2.9741 0
M  V30 48 H 4.6249 2.8854 -0.7511 0
M  V30 49 H 4.1917 1.2431 -1.2746 0
M  V30 50 H 5.7351 1.5176 -0.3678 0
M  V30 51 H 4.5147 4.4186 0.9134 0
M  V30 52 H 4.3876 4.5563 2.6963 0
M  V30 53 H 2.9454 4.0516 1.7436 0
M  V30 54 H -3.013 0.3957 1.4991 0
M  V30 55 H -3.4471 -2.5425 2.1702 0
M  V30 56 H -4.1601 -4.1714 2.0305 0
M  V30 57 H -2.4581 -3.8899 1.5106 0
M  V30 58 H -4.4806 -4.3508 -1.67 0
M  V30 59 H -3.2282 -5.1069 -0.5934 0
M  V30 60 H -4.9466 -5.1043 -0.1127 0
M  V30 61 H -5.3721 -1.5722 0.8083 0
M  V30 62 H -5.6559 -2.1428 -0.8746 0
M  V30 63 H -6.1199 -3.1565 0.5381 0
M  V30 64 H -3.5241 4.6444 0.6933 0
M  V30 65 H 1.367 4.0811 -0.2418 0
M  V30 66 H -1.9618 6.5874 0.9601 0
M  V30 67 H 0.473 6.3094 0.4913 0
M  V30 END ATOM
M  V30 BEGIN BOND
M  V30 1 2 1 2
M  V30 2 1 2 3
M  V30 3 1 2 4
M  V30 4 1 3 5
M  V30 5 1 4 6
M  V30 6 1 5 7
M  V30 7 1 6 8
M  V30 8 1 7 9
M  V30 9 2 8 10
M  V30 10 1 8 11
M  V30 11 1 9 12
M  V30 12 1 10 13
M  V30 13 2 11 14
M  V30 14 1 12 15
M  V30 15 1 12 16
M  V30 16 1 13 17
M  V30 17 2 13 18
M  V30 18 1 14 19
M  V30 19 1 15 20
M  V30 20 1 17 21
M  V30 21 1 17 22
M  V30 22 1 18 23
M  V30 23 1 19 24
M  V30 24 1 19 25
M  V30 25 1 19 26
M  V30 26 2 21 27
M  V30 27 2 22 28
M  V30 28 1 27 29
M  V30 29 1 28 30
M  V30 30 2 29 31
M  V30 31 2 30 32
M  V30 32 1 14 18
M  V30 33 1 27 28
M  V30 34 1 31 32
M  V30 35 1 4 33
M  V30 36 1 4 34
M  V30 37 1 5 35
M  V30 38 1 5 36
M  V30 39 1 6 37
M  V30 40 1 6 38
M  V30 41 1 7 39
M  V30 42 1 7 40
M  V30 43 1 9 41
M  V30 44 1 9 42
M  V30 45 1 10 43
M  V30 46 1 11 44
M  V30 47 1 12 45
M  V30 48 1 15 46
M  V30 49 1 15 47
M  V30 50 1 16 48
M  V30 51 1 16 49
M  V30 52 1 16 50
M  V30 53 1 20 51
M  V30 54 1 20 52
M  V30 55 1 20 53
M  V30 56 1 23 54
M  V30 57 1 24 55
M  V30 58 1 24 56
M  V30 59 1 24 57
M  V30 60 1 25 58
M  V30 61 1 25 59
M  V30 62 1 25 60
M  V30 63 1 26 61
M  V30 64 1 26 62
M  V30 65 1 26 63
M  V30 66 1 29 64
M  V30 67 1 30 65
M  V30 68 1 31 66
M  V30 69 1 32 67
M  V30 END BOND
M  V30 BEGIN COLLECTION
M  V30 MDLV30/STEABS ATOMS=(1 12)
M  V30 END COLLECTION
M  V30 END CTAB
M  END
>  <Structure No>
1342

>  <LogS>
-6.163940179

>  <MMFF94 Energy>
67.077

$$$$
Compound 1343
Actelion Java MolfileCreator 2.0

  0  0  0  0  0  0              0 V3000
M  V30 BEGIN CTAB
M  V30 COUNTS 44 47 0 0 0
M  V30 BEGIN ATOM
M  V30 1 S 6.3743 -1.7354 0.2477 0
M  V30 2 O 5.6602 -2.7017 1.1505 0
M  V30 3 O 7.6865 -2.3366 -0.1686 0
M  V30 4 O 5.4376 -1.4354 -1.1535 0
M  V30 5 C 6.6944 -0.2123 1.1134 0
M  V30 6 C 4.1249 -0.942 -1.1604 0
M  V30 7 C 3.5461 -0.6309 -2.3959 0
M  V30 8 C 3.3699 -0.7586 0.0128 0
M  V30 9 C 2.2425 -0.1326 -2.4669 0
M  V30 10 C 2.0657 -0.2597 -0.0571 0
M  V30 11 C 1.495 0.0711 -1.2987 0
M  V30 12 N 0.1492 0.5709 -1.3967 0
M  V30 13 C -0.5545 1.182 -0.3032 0
M  V30 14 C -1.8739 0.7858 0.0439 0
M  V30 15 C 0.0538 2.2451 0.3742 0
M  V30 16 C -2.5328 -0.388 -0.6009 0
M  V30 17 C -2.5703 1.4986 1.0563 0
M  V30 18 C -0.6194 2.9218 1.3827 0
M  V30 19 O -1.8779 -1.1542 -1.3586 0
M  V30 20 C -3.9536 -0.6959 -0.3253 0
M  V30 21 C -3.9711 1.1172 1.3948 0
M  V30 22 C -1.9259 2.5667 1.7257 0
M  V30 23 C -4.6551 0.0371 0.6505 0
M  V30 24 C -4.6109 -1.7277 -1.0221 0
M  V30 25 O -4.5906 1.7154 2.3167 0
M  V30 26 O -2.5787 3.2812 2.731 0
M  V30 27 C -6.0034 -0.2721 0.9132 0
M  V30 28 C -5.9488 -2.0228 -0.753 0
M  V30 29 C -6.6438 -1.2962 0.213 0
M  V30 30 H 5.7446 0.2376 1.4648 0
M  V30 31 H 7.3474 -0.4136 1.9875 0
M  V30 32 H 7.2039 0.4987 0.4313 0
M  V30 33 H 4.112 -0.7747 -3.3076 0
M  V30 34 H 3.7685 -1.0077 0.984 0
M  V30 35 H 1.8167 0.1019 -3.4343 0
M  V30 36 H 1.5003 -0.1478 0.8587 0
M  V30 37 H -0.3225 0.5586 -2.3295 0
M  V30 38 H 1.053 2.5627 0.1034 0
M  V30 39 H -0.1269 3.7413 1.8907 0
M  V30 40 H -4.0925 -2.3053 -1.7771 0
M  V30 41 H -2.1308 4.0486 3.2185 0
M  V30 42 H -6.5641 0.2775 1.6588 0
M  V30 43 H -6.4471 -2.8165 -1.2943 0
M  V30 44 H -7.6808 -1.527 0.4203 0
M  V30 END ATOM
M  V30 BEGIN BOND
M  V30 1 2 1 2
M  V30 2 2 1 3
M  V30 3 1 1 4
M  V30 4 1 1 5
M  V30 5 1 4 6
M  V30 6 2 6 7
M  V30 7 1 6 8
M  V30 8 1 7 9
M  V30 9 2 8 10
M  V30 10 2 9 11
M  V30 11 1 11 12
M  V30 12 1 12 13
M  V30 13 2 13 14
M  V30 14 1 13 15
M  V30 15 1 14 16
M  V30 16 1 14 17
M  V30 17 2 15 18
M  V30 18 2 16 19
M  V30 19 1 16 20
M  V30 20 1 17 21
M  V30 21 2 17 22
M  V30 22 2 20 23
M  V30 23 1 20 24
M  V30 24 2 21 25
M  V30 25 1 22 26
M  V30 26 1 23 27
M  V30 27 2 24 28
M  V30 28 2 27 29
M  V30 29 1 10 11
M  V30 30 1 18 22
M  V30 31 1 21 23
M  V30 32 1 28 29
M  V30 33 1 5 30
M  V30 34 1 5 31
M  V30 35 1 5 32
M  V30 36 1 7 33
M  V30 37 1 8 34
M  V30 38 1 9 35
M  V30 39 1 10 36
M  V30 40 1 12 37
M  V30 41 1 15 38
M  V30 42 1 18 39
M  V30 43 1 24 40
M  V30 44 1 26 41
M  V30 45 1 27 42
M  V30 46 1 28 43
M  V30 47 1 29 44
M  V30 END BOND
M  V30 END CTAB
M  END
>  <Structure No>
1343

>  <LogS>
-6.214227985

>  <MMFF94 Energy>
88.211

$$$$
Compound 1344
Actelion Java MolfileCreator 2.0

  0  0  0  0  0  0              0 V3000
M  V30 BEGIN CTAB
M  V30 COUNTS 52 54 0 0 0
M  V30 BEGIN ATOM
M  V30 1 O 8.2825 -1.1118 2.0657 0
M  V30 2 C 7.0619 -0.9605 1.4117 0
M  V30 3 C 7.0142 -0.5459 0.0746 0
M  V30 4 C 5.8732 -1.2247 2.098 0
M  V30 5 C 5.7836 -0.3973 -0.572 0
M  V30 6 C 4.6409 -1.0773 1.4549 0
M  V30 7 C 4.5825 -0.6628 0.1101 0
M  V30 8 C 3.2512 -0.4938 -0.5993 0 CFG=2
M  V30 9 C 2.415 0.6148 0.076 0
M  V30 10 C 2.4974 -1.8316 -0.6568 0
M  V30 11 C 1.2054 0.9876 -0.7438 0
M  V30 12 C -0.0561 0.4528 -0.4345 0
M  V30 13 C 1.338 1.8459 -1.8464 0
M  V30 14 C -1.1783 0.7765 -1.2144 0
M  V30 15 C 0.2227 2.1769 -2.6195 0
M  V30 16 C -1.0314 1.6484 -2.305 0
M  V30 17 C -2.5335 0.2176 -0.8593 0
M  V30 18 C -3.1823 0.9797 0.3165 0 CFG=2
M  V30 19 C -4.4093 0.2399 0.8178 0
M  V30 20 C -3.5407 2.4255 -0.0605 0
M  V30 21 C -4.4382 -0.2706 2.1282 0
M  V30 22 C -5.5293 0.0444 -0.0135 0
M  V30 23 C -5.562 -0.9576 2.5969 0
M  V30 24 C -6.6512 -0.6429 0.4589 0
M  V30 25 C -6.6717 -1.1452 1.7632 0
M  V30 26 O -7.7966 -1.828 2.22 0
M  V30 27 H 9.1613 -0.9279 1.5958 0
M  V30 28 H 7.9298 -0.3382 -0.4642 0
M  V30 29 H 5.9044 -1.5445 3.1319 0
M  V30 30 H 5.7706 -0.0743 -1.6055 0
M  V30 31 H 3.734 -1.2862 2.0075 0
M  V30 32 H 3.4415 -0.1836 -1.6517 0
M  V30 33 H 2.1018 0.2957 1.0944 0
M  V30 34 H 3.046 1.5219 0.2078 0
M  V30 35 H 3.1563 -2.6234 -1.0733 0
M  V30 36 H 1.6107 -1.746 -1.3195 0
M  V30 37 H 2.1562 -2.1427 0.3532 0
M  V30 38 H -0.1654 -0.2175 0.4099 0
M  V30 39 H 2.3053 2.2586 -2.1055 0
M  V30 40 H 0.3306 2.8445 -3.4645 0
M  V30 41 H -1.8877 1.92 -2.9099 0
M  V30 42 H -3.2011 0.24 -1.7485 0
M  V30 43 H -2.4113 -0.8526 -0.5806 0
M  V30 44 H -2.4353 1.0358 1.1405 0
M  V30 45 H -2.619 3.0094 -0.2667 0
M  V30 46 H -4.1881 2.4552 -0.9624 0
M  V30 47 H -4.0732 2.9186 0.7807 0
M  V30 48 H -3.5911 -0.1388 2.7898 0
M  V30 49 H -5.5361 0.4226 -1.0274 0
M  V30 50 H -5.569 -1.3441 3.6083 0
M  V30 51 H -7.5059 -0.7859 -0.19 0
M  V30 52 H -7.8422 -2.2042 3.1599 0
M  V30 END ATOM
M  V30 BEGIN BOND
M  V30 1 1 1 2
M  V30 2 2 2 3
M  V30 3 1 2 4
M  V30 4 1 3 5
M  V30 5 2 4 6
M  V30 6 2 5 7
M  V30 7 1 7 8
M  V30 8 1 8 9
M  V30 9 1 8 10
M  V30 10 1 9 11
M  V30 11 2 11 12
M  V30 12 1 11 13
M  V30 13 1 12 14
M  V30 14 2 13 15
M  V30 15 2 14 16
M  V30 16 1 14 17
M  V30 17 1 17 18
M  V30 18 1 18 19
M  V30 19 1 18 20
M  V30 20 2 19 21
M  V30 21 1 19 22
M  V30 22 1 21 23
M  V30 23 2 22 24
M  V30 24 2 23 25
M  V30 25 1 25 26
M  V30 26 1 6 7
M  V30 27 1 15 16
M  V30 28 1 24 25
M  V30 29 1 1 27
M  V30 30 1 3 28
M  V30 31 1 4 29
M  V30 32 1 5 30
M  V30 33 1 6 31
M  V30 34 1 8 32
M  V30 35 1 9 33
M  V30 36 1 9 34
M  V30 37 1 10 35
M  V30 38 1 10 36
M  V30 39 1 10 37
M  V30 40 1 12 38
M  V30 41 1 13 39
M  V30 42 1 15 40
M  V30 43 1 16 41
M  V30 44 1 17 42
M  V30 45 1 17 43
M  V30 46 1 18 44
M  V30 47 1 20 45
M  V30 48 1 20 46
M  V30 49 1 20 47
M  V30 50 1 21 48
M  V30 51 1 22 49
M  V30 52 1 23 50
M  V30 53 1 24 51
M  V30 54 1 26 52
M  V30 END BOND
M  V30 BEGIN COLLECTION
M  V30 MDLV30/STEABS ATOMS=(2 8 18)
M  V30 END COLLECTION
M  V30 END CTAB
M  END
>  <Structure No>
1344

>  <LogS>
-6.23863564

>  <MMFF94 Energy>
59.555

$$$$
Compound 1345
Actelion Java MolfileCreator 2.0

  0  0  0  0  0  0              0 V3000
M  V30 BEGIN CTAB
M  V30 COUNTS 72 77 0 0 0
M  V30 BEGIN ATOM
M  V30 1 N -4.9634 0.5594 -0.3196 0
M  V30 2 C -5.7893 -0.6117 -0.1426 0
M  V30 3 C -3.5284 0.4265 -0.302 0
M  V30 4 C -5.5624 1.8597 -0.514 0
M  V30 5 C -5.4583 -1.5743 0.8286 0
M  V30 6 C -6.9262 -0.8101 -0.9451 0
M  V30 7 C -2.7478 1.2726 0.4983 0
M  V30 8 C -2.8988 -0.5491 -1.0876 0
M  V30 9 C -6.7072 2.2372 0.2159 0
M  V30 10 C -5.0034 2.7735 -1.4275 0
M  V30 11 C -6.2444 -2.7259 0.9902 0
M  V30 12 C -7.7174 -1.9492 -0.778 0
M  V30 13 C -1.3565 1.1435 0.5155 0
M  V30 14 C -1.507 -0.6699 -1.0842 0
M  V30 15 C -7.2782 3.502 0.0347 0
M  V30 16 C -5.578 4.0355 -1.6073 0
M  V30 17 C -7.3781 -2.9059 0.1817 0
M  V30 18 C -5.9153 -3.7232 2.0611 0
M  V30 19 C -0.7175 0.1744 -0.281 0
M  V30 20 C -6.7111 4.4027 -0.871 0
M  V30 21 C 0.7656 0.0478 -0.2798 0
M  V30 22 C 1.3791 -1.2154 -0.3768 0
M  V30 23 C 1.5829 1.1901 -0.1942 0
M  V30 24 C 2.7714 -1.3307 -0.4044 0
M  V30 25 C 2.9754 1.0712 -0.2103 0
M  V30 26 C 3.5807 -0.1883 -0.326 0
M  V30 27 N 5.0176 -0.305 -0.3779 0
M  V30 28 C 5.8256 0.4262 0.5677 0
M  V30 29 C 5.6454 -1.1353 -1.3817 0
M  V30 30 C 5.514 0.3987 1.9388 0
M  V30 31 C 6.9356 1.1668 0.1289 0
M  V30 32 C 6.7954 -1.8856 -1.0699 0
M  V30 33 C 5.1136 -1.2129 -2.6833 0
M  V30 34 C 6.3141 1.0864 2.8649 0
M  V30 35 C 7.7154 1.8758 1.0454 0
M  V30 36 C 7.4062 -2.678 -2.0448 0
M  V30 37 C 5.7246 -2.0157 -3.6521 0
M  V30 38 C 7.4045 1.8413 2.4078 0
M  V30 39 C 5.9689 1.0648 4.3261 0
M  V30 40 C 6.8732 -2.7407 -3.3348 0
M  V30 41 H -4.5945 -1.4175 1.4654 0
M  V30 42 H -7.1936 -0.0867 -1.7059 0
M  V30 43 H -3.219 2.0244 1.1189 0
M  V30 44 H -3.4887 -1.2016 -1.719 0
M  V30 45 H -7.1502 1.5575 0.9307 0
M  V30 46 H -4.1268 2.5074 -2.0048 0
M  V30 47 H -8.5948 -2.0913 -1.3953 0
M  V30 48 H -0.7831 1.7935 1.1639 0
M  V30 49 H -1.0486 -1.4114 -1.7261 0
M  V30 50 H -8.1601 3.7835 0.5968 0
M  V30 51 H -5.1434 4.7341 -2.3099 0
M  V30 52 H -8.0073 -3.7784 0.3071 0
M  V30 53 H -6.1701 -4.7507 1.7264 0
M  V30 54 H -4.8313 -3.7017 2.3034 0
M  V30 55 H -6.4993 -3.4819 2.9737 0
M  V30 56 H -7.1537 5.3797 -1.0136 0
M  V30 57 H 0.7834 -2.1191 -0.4141 0
M  V30 58 H 1.1479 2.1805 -0.1393 0
M  V30 59 H 3.2209 -2.3123 -0.4788 0
M  V30 60 H 3.5839 1.9647 -0.1576 0
M  V30 61 H 4.6609 -0.1753 2.2844 0
M  V30 62 H 7.1843 1.2054 -0.9247 0
M  V30 63 H 7.2151 -1.8634 -0.0717 0
M  V30 64 H 4.2384 -0.6347 -2.9553 0
M  V30 65 H 8.5595 2.4577 0.698 0
M  V30 66 H 8.2889 -3.255 -1.7982 0
M  V30 67 H 5.3186 -2.0545 -4.6568 0
M  V30 68 H 8.0173 2.3948 3.108 0
M  V30 69 H 5.2835 1.9069 4.5591 0
M  V30 70 H 5.4756 0.1066 4.5992 0
M  V30 71 H 6.8839 1.166 4.9442 0
M  V30 72 H 7.3484 -3.3613 -4.0857 0
M  V30 END ATOM
M  V30 BEGIN BOND
M  V30 1 1 1 2
M  V30 2 1 1 3
M  V30 3 1 1 4
M  V30 4 2 2 5
M  V30 5 1 2 6
M  V30 6 2 3 7
M  V30 7 1 3 8
M  V30 8 2 4 9
M  V30 9 1 4 10
M  V30 10 1 5 11
M  V30 11 2 6 12
M  V30 12 1 7 13
M  V30 13 2 8 14
M  V30 14 1 9 15
M  V30 15 2 10 16
M  V30 16 2 11 17
M  V30 17 1 11 18
M  V30 18 2 13 19
M  V30 19 2 15 20
M  V30 20 1 19 21
M  V30 21 2 21 22
M  V30 22 1 21 23
M  V30 23 1 22 24
M  V30 24 2 23 25
M  V30 25 2 24 26
M  V30 26 1 26 27
M  V30 27 1 27 28
M  V30 28 1 27 29
M  V30 29 2 28 30
M  V30 30 1 28 31
M  V30 31 2 29 32
M  V30 32 1 29 33
M  V30 33 1 30 34
M  V30 34 2 31 35
M  V30 35 1 32 36
M  V30 36 2 33 37
M  V30 37 2 34 38
M  V30 38 1 34 39
M  V30 39 2 36 40
M  V30 40 1 12 17
M  V30 41 1 14 19
M  V30 42 1 16 20
M  V30 43 1 25 26
M  V30 44 1 35 38
M  V30 45 1 37 40
M  V30 46 1 5 41
M  V30 47 1 6 42
M  V30 48 1 7 43
M  V30 49 1 8 44
M  V30 50 1 9 45
M  V30 51 1 10 46
M  V30 52 1 12 47
M  V30 53 1 13 48
M  V30 54 1 14 49
M  V30 55 1 15 50
M  V30 56 1 16 51
M  V30 57 1 17 52
M  V30 58 1 18 53
M  V30 59 1 18 54
M  V30 60 1 18 55
M  V30 61 1 20 56
M  V30 62 1 22 57
M  V30 63 1 23 58
M  V30 64 1 24 59
M  V30 65 1 25 60
M  V30 66 1 30 61
M  V30 67 1 31 62
M  V30 68 1 32 63
M  V30 69 1 33 64
M  V30 70 1 35 65
M  V30 71 1 36 66
M  V30 72 1 37 67
M  V30 73 1 38 68
M  V30 74 1 39 69
M  V30 75 1 39 70
M  V30 76 1 39 71
M  V30 77 1 40 72
M  V30 END BOND
M  V30 END CTAB
M  END
>  <Structure No>
1345

>  <LogS>
-6.41219838

>  <MMFF94 Energy>
144.05

$$$$
Compound 1346
Actelion Java MolfileCreator 2.0

  0  0  0  0  0  0              0 V3000
M  V30 BEGIN CTAB
M  V30 COUNTS 38 39 0 0 0
M  V30 BEGIN ATOM
M  V30 1 S 1.0837 0.9169 1.0003 0
M  V30 2 C 1.4673 0.3095 -0.4758 0
M  V30 3 S 0.1644 0.2542 -1.7124 0
M  V30 4 N 2.8128 -0.1249 -0.7874 0
M  V30 5 S -0.3366 -1.7778 -1.2955 0
M  V30 6 C 3.8779 5.0E-4 0.172 0
M  V30 7 C 3.0938 -0.8088 -2.0527 0
M  V30 8 C -1.7127 -1.3231 -0.2362 0
M  V30 9 C 4.32 1.2697 0.5783 0
M  V30 10 C 4.5029 -1.1458 0.6875 0
M  V30 11 S -1.5227 -1.4746 1.3854 0
M  V30 12 N -2.9917 -0.9591 -0.7956 0
M  V30 13 C 5.3637 1.3889 1.5011 0
M  V30 14 C 5.5465 -1.0231 1.6103 0
M  V30 15 C -3.8595 -0.0467 -0.0964 0
M  V30 16 C -3.3233 -1.3503 -2.1681 0
M  V30 17 C 5.9756 0.2432 2.0178 0
M  V30 18 C -3.3636 1.1773 0.3846 0
M  V30 19 C -5.2108 -0.37 0.111 0
M  V30 20 C -4.2073 2.0619 1.0634 0
M  V30 21 C -6.0513 0.5174 0.7903 0
M  V30 22 C -5.5502 1.7324 1.266 0
M  V30 23 H 4.1877 -0.9375 -2.2017 0
M  V30 24 H 2.7098 -0.2111 -2.9056 0
M  V30 25 H 2.6169 -1.8109 -2.0523 0
M  V30 26 H 3.8572 2.1622 0.176 0
M  V30 27 H 4.1751 -2.1304 0.3787 0
M  V30 28 H 5.6997 2.3691 1.8137 0
M  V30 29 H 6.0225 -1.9094 2.0091 0
M  V30 30 H -3.0823 -2.4227 -2.3266 0
M  V30 31 H -2.7415 -0.7315 -2.8831 0
M  V30 32 H -4.4036 -1.2069 -2.3804 0
M  V30 33 H 6.7837 0.3368 2.7317 0
M  V30 34 H -2.3268 1.4463 0.2272 0
M  V30 35 H -5.6075 -1.3135 -0.2415 0
M  V30 36 H -3.8203 3.0035 1.4308 0
M  V30 37 H -7.0909 0.2619 0.9505 0
M  V30 38 H -6.2023 2.4179 1.7919 0
M  V30 END ATOM
M  V30 BEGIN BOND
M  V30 1 2 1 2
M  V30 2 1 2 3
M  V30 3 1 2 4
M  V30 4 1 3 5
M  V30 5 1 4 6
M  V30 6 1 4 7
M  V30 7 1 5 8
M  V30 8 2 6 9
M  V30 9 1 6 10
M  V30 10 2 8 11
M  V30 11 1 8 12
M  V30 12 1 9 13
M  V30 13 2 10 14
M  V30 14 1 12 15
M  V30 15 1 12 16
M  V30 16 2 13 17
M  V30 17 2 15 18
M  V30 18 1 15 19
M  V30 19 1 18 20
M  V30 20 2 19 21
M  V30 21 2 20 22
M  V30 22 1 14 17
M  V30 23 1 21 22
M  V30 24 1 7 23
M  V30 25 1 7 24
M  V30 26 1 7 25
M  V30 27 1 9 26
M  V30 28 1 10 27
M  V30 29 1 13 28
M  V30 30 1 14 29
M  V30 31 1 16 30
M  V30 32 1 16 31
M  V30 33 1 16 32
M  V30 34 1 17 33
M  V30 35 1 18 34
M  V30 36 1 19 35
M  V30 37 1 20 36
M  V30 38 1 21 37
M  V30 39 1 22 38
M  V30 END BOND
M  V30 END CTAB
M  END
>  <Structure No>
1346

>  <LogS>
-6.260769992

>  <MMFF94 Energy>
39.104

$$$$
Compound 1347
Actelion Java MolfileCreator 2.0

  0  0  0  0  0  0              0 V3000
M  V30 BEGIN CTAB
M  V30 COUNTS 50 51 0 0 0
M  V30 BEGIN ATOM
M  V30 1 O 5.0027 2.9025 -0.9667 0
M  V30 2 N 4.2801 1.923 -1.2462 0 CHG=1
M  V30 3 O 4.0832 1.6205 -2.5735 0 CHG=-1
M  V30 4 C 3.6659 1.1469 -0.1915 0
M  V30 5 C 3.0576 -0.109 -0.4431 0
M  V30 6 C 3.6594 1.657 1.1211 0
M  V30 7 N 3.0194 -0.6291 -1.7849 0
M  V30 8 C 2.5735 -0.8745 0.6422 0
M  V30 9 C 3.096 0.9334 2.1834 0
M  V30 10 N 1.9721 -1.0339 -2.3995 0
M  V30 11 C 2.1581 -2.2457 0.4718 0
M  V30 12 C 2.5732 -0.3412 1.9343 0
M  V30 13 N 3.0787 1.4784 3.5165 0 CHG=1
M  V30 14 C 0.6241 -0.9646 -1.9019 0
M  V30 15 N 1.8304 -3.3479 0.3422 0
M  V30 16 O 3.5446 2.6135 3.7476 0
M  V30 17 O 2.532 0.7635 4.5576 0 CHG=-1
M  V30 18 C 0.0484 0.2402 -1.4383 0
M  V30 19 C -0.1443 -2.1333 -1.9193 0
M  V30 20 N 0.7444 1.4894 -1.5896 0
M  V30 21 C -1.2652 0.223 -0.9348 0
M  V30 22 C -1.4381 -2.143 -1.3999 0
M  V30 23 C 0.6584 2.5663 -0.6431 0
M  V30 24 C -2.0078 -0.9688 -0.8842 0
M  V30 25 O 0.1941 2.368 0.5123 0
M  V30 26 C 1.2076 3.9117 -0.9886 0
M  V30 27 N -3.3378 -0.9845 -0.3152 0
M  V30 28 C -4.4206 -1.7282 -0.976 0
M  V30 29 C -3.6239 -0.2661 0.9384 0
M  V30 30 C -4.7693 -2.9957 -0.1988 0
M  V30 31 C -2.7878 -0.8235 2.0876 0
M  V30 32 H 4.0871 2.6317 1.315 0
M  V30 33 H 2.1814 -0.9338 2.7526 0
M  V30 34 H 0.2804 -3.0533 -2.301 0
M  V30 35 H 1.367 1.6128 -2.4191 0
M  V30 36 H -1.7278 1.1503 -0.63 0
M  V30 37 H -1.9856 -3.0749 -1.3876 0
M  V30 38 H 2.2822 3.955 -0.7194 0
M  V30 39 H 1.0947 4.102 -2.0761 0
M  V30 40 H 0.6612 4.702 -0.4318 0
M  V30 41 H -4.1325 -2.0016 -2.0144 0
M  V30 42 H -5.3234 -1.0837 -1.0517 0
M  V30 43 H -3.424 0.8183 0.8189 0
M  V30 44 H -4.6982 -0.3627 1.2077 0
M  V30 45 H -5.179 -2.7383 0.7997 0
M  V30 46 H -3.8705 -3.6319 -0.0653 0
M  V30 47 H -5.5362 -3.5742 -0.7552 0
M  V30 48 H -2.974 -1.9124 2.2017 0
M  V30 49 H -3.0649 -0.3107 3.0328 0
M  V30 50 H -1.7067 -0.6551 1.8986 0
M  V30 END ATOM
M  V30 BEGIN BOND
M  V30 1 2 1 2
M  V30 2 1 2 3
M  V30 3 1 2 4
M  V30 4 2 4 5
M  V30 5 1 4 6
M  V30 6 1 5 7
M  V30 7 1 5 8
M  V30 8 2 6 9
M  V30 9 2 7 10
M  V30 10 1 8 11
M  V30 11 2 8 12
M  V30 12 1 9 13
M  V30 13 1 10 14
M  V30 14 3 11 15
M  V30 15 2 13 16
M  V30 16 1 13 17
M  V30 17 2 14 18
M  V30 18 1 14 19
M  V30 19 1 18 20
M  V30 20 1 18 21
M  V30 21 2 19 22
M  V30 22 1 20 23
M  V30 23 2 21 24
M  V30 24 2 23 25
M  V30 25 1 23 26
M  V30 26 1 24 27
M  V30 27 1 27 28
M  V30 28 1 27 29
M  V30 29 1 28 30
M  V30 30 1 29 31
M  V30 31 1 9 12
M  V30 32 1 22 24
M  V30 33 1 6 32
M  V30 34 1 12 33
M  V30 35 1 19 34
M  V30 36 1 20 35
M  V30 37 1 21 36
M  V30 38 1 22 37
M  V30 39 1 26 38
M  V30 40 1 26 39
M  V30 41 1 26 40
M  V30 42 1 28 41
M  V30 43 1 28 42
M  V30 44 1 29 43
M  V30 45 1 29 44
M  V30 46 1 30 45
M  V30 47 1 30 46
M  V30 48 1 30 47
M  V30 49 1 31 48
M  V30 50 1 31 49
M  V30 51 1 31 50
M  V30 END BOND
M  V30 END CTAB
M  END
>  <Structure No>
1347

>  <LogS>
-6.327772594

>  <MMFF94 Energy>
81.91

$$$$
Compound 1348
Actelion Java MolfileCreator 2.0

  0  0  0  0  0  0              0 V3000
M  V30 BEGIN CTAB
M  V30 COUNTS 22 24 0 0 0
M  V30 BEGIN ATOM
M  V30 1 C 1.541 1.2976 0.0 0
M  V30 2 C 2.3181 0.2934 -0.3768 0
M  V30 3 C 0.308 0.8262 0.695 0 CFG=1
M  V30 4 C 1.7496 -1.0398 -0.027 0
M  V30 5 C -0.9921 1.0853 -0.108 0 CFG=2
M  V30 6 C 0.4162 -0.7171 0.6734 0 CFG=2
M  V30 7 C -2.1272 0.5605 0.7343 0
M  V30 8 C -0.9499 -0.0083 -1.1625 0
M  V30 9 C -0.8463 -1.1232 -0.1357 0 CFG=2
M  V30 10 C -2.0394 -0.7725 0.718 0
M  V30 11 H 1.7804 2.3406 -0.1784 0
M  V30 12 H 3.2616 0.4324 -0.8939 0
M  V30 13 H 0.2602 1.2354 1.7287 0
M  V30 14 H 1.608 -1.6493 -0.9451 0
M  V30 15 H 2.4385 -1.5667 0.667 0
M  V30 16 H -1.13 2.1204 -0.4863 0
M  V30 17 H 0.3986 -1.146 1.7012 0
M  V30 18 H -2.9243 1.1367 1.192 0
M  V30 19 H -1.8825 -0.0622 -1.7736 0
M  V30 20 H -0.0751 0.0586 -1.8462 0
M  V30 21 H -0.8514 -2.1578 -0.5393 0
M  V30 22 H -2.7531 -1.4592 1.1601 0
M  V30 END ATOM
M  V30 BEGIN BOND
M  V30 1 2 1 2
M  V30 2 1 1 3
M  V30 3 1 2 4
M  V30 4 1 3 5
M  V30 5 1 3 6
M  V30 6 1 5 7
M  V30 7 1 5 8
M  V30 8 1 6 9
M  V30 9 2 7 10
M  V30 10 1 4 6
M  V30 11 1 8 9
M  V30 12 1 9 10
M  V30 13 1 1 11
M  V30 14 1 2 12
M  V30 15 1 3 13
M  V30 16 1 4 14
M  V30 17 1 4 15
M  V30 18 1 5 16
M  V30 19 1 6 17
M  V30 20 1 7 18
M  V30 21 1 8 19
M  V30 22 1 8 20
M  V30 23 1 9 21
M  V30 24 1 10 22
M  V30 END BOND
M  V30 BEGIN COLLECTION
M  V30 MDLV30/STEABS ATOMS=(4 3 5 6 9)
M  V30 END COLLECTION
M  V30 END CTAB
M  END
>  <Structure No>
1348

>  <LogS>
-6.170927319

>  <MMFF94 Energy>
55.369

$$$$
Compound 1349
Actelion Java MolfileCreator 2.0

  0  0  0  0  0  0              0 V3000
M  V30 BEGIN CTAB
M  V30 COUNTS 86 86 0 0 0
M  V30 BEGIN ATOM
M  V30 1 O -0.2362 -2.6006 0.6299 0
M  V30 2 C 0.7358 -3.0039 -0.0644 0
M  V30 3 O 0.8275 -2.6764 -1.4229 0
M  V30 4 C 1.7715 -3.8877 0.5613 0
M  V30 5 C -0.1174 -1.848 -2.0974 0
M  V30 6 C 3.2085 -3.4694 0.2044 0
M  V30 7 C 0.0912 -0.3791 -1.7401 0
M  V30 8 C 3.7128 -2.24 0.9831 0
M  V30 9 O -0.8757 0.3942 -2.4242 0
M  V30 10 C 3.1146 -0.9149 0.4759 0
M  V30 11 C -1.1974 1.5712 -1.7057 0
M  V30 12 C 3.8616 0.313 1.0361 0
M  V30 13 C -2.3396 1.3194 -0.6994 0 CFG=1
M  V30 14 C 4.8081 0.9744 0.0194 0
M  V30 15 O -2.6753 2.5469 -0.0696 0
M  V30 16 C -3.599 0.7581 -1.4063 0 CFG=2
M  V30 17 C 5.9886 0.0736 -0.3758 0
M  V30 18 C -2.12 2.6217 1.2268 0
M  V30 19 O -4.2051 1.7663 -2.1904 0
M  V30 20 C -4.6291 0.2001 -0.4059 0 CFG=2
M  V30 21 C 6.9693 0.7622 -1.3445 0
M  V30 22 C -2.4104 3.9966 1.8186 0
M  V30 23 C -5.4375 2.0748 -1.5889 0
M  V30 24 O -4.7545 -1.2079 -0.5254 0
M  V30 25 C -5.9215 0.8532 -0.8429 0 CFG=2
M  V30 26 C 7.7156 1.9833 -0.7685 0
M  V30 27 O -3.7915 4.2342 1.8611 0
M  V30 28 C -3.8442 -1.8639 0.3308 0
M  V30 29 O -6.7201 1.2425 0.2598 0
M  V30 30 C 8.4964 1.718 0.5305 0
M  V30 31 C -3.9992 -3.3686 0.1635 0
M  V30 32 C -7.4858 0.1582 0.7523 0
M  V30 33 C 9.5787 0.6515 0.3675 0
M  V30 34 O -3.1137 -4.0304 1.0238 0
M  V30 35 C -8.9615 0.3783 0.4397 0
M  V30 36 O -9.162 0.3709 -0.9455 0
M  V30 37 H 1.6002 -4.9203 0.1894 0
M  V30 38 H 1.6459 -3.9074 1.6664 0
M  V30 39 H 0.02 -1.9749 -3.1916 0
M  V30 40 H -1.1527 -2.1639 -1.8425 0
M  V30 41 H 3.3157 -3.3097 -0.8919 0
M  V30 42 H 3.8739 -4.3223 0.4637 0
M  V30 43 H 0.0315 -0.276 -0.6334 0
M  V30 44 H 1.1063 -0.0646 -2.0664 0
M  V30 45 H 4.8181 -2.2082 0.876 0
M  V30 46 H 3.4919 -2.3596 2.0678 0
M  V30 47 H 2.059 -0.8545 0.8146 0
M  V30 48 H 3.1065 -0.894 -0.6358 0
M  V30 49 H -0.3097 2.0073 -1.1898 0
M  V30 50 H -1.5314 2.3378 -2.4378 0
M  V30 51 H 3.104 1.0753 1.3251 0
M  V30 52 H 4.4196 0.0576 1.9646 0
M  V30 53 H -1.9922 0.5442 0.0234 0
M  V30 54 H 4.236 1.265 -0.8886 0
M  V30 55 H 5.1937 1.9034 0.4884 0
M  V30 56 H -3.3006 -0.0653 -2.0923 0
M  V30 57 H 6.5232 -0.2816 0.5287 0
M  V30 58 H 5.5932 -0.8246 -0.8957 0
M  V30 59 H -2.571 1.8477 1.8872 0
M  V30 60 H -1.0158 2.4821 1.1954 0
M  V30 61 H -4.4063 0.5289 0.639 0
M  V30 62 H 7.713 0.0138 -1.691 0
M  V30 63 H 6.411 1.0869 -2.2494 0
M  V30 64 H -1.933 4.7739 1.187 0
M  V30 65 H -1.9706 4.0728 2.8398 0
M  V30 66 H -5.2964 2.9315 -0.893 0
M  V30 67 H -6.1722 2.3722 -2.367 0
M  V30 68 H -6.4785 0.212 -1.5686 0
M  V30 69 H 8.426 2.3536 -1.5397 0
M  V30 70 H 6.9945 2.8079 -0.59 0
M  V30 71 H -4.1464 3.7046 2.6241 0
M  V30 72 H -4.0477 -1.6064 1.3954 0
M  V30 73 H -2.7983 -1.5951 0.0721 0
M  V30 74 H 7.8052 1.4331 1.3514 0
M  V30 75 H 8.9866 2.6667 0.8385 0
M  V30 76 H -5.0456 -3.6601 0.4074 0
M  V30 77 H -3.7778 -3.6462 -0.892 0
M  V30 78 H -7.1725 -0.8435 0.375 0
M  V30 79 H -7.3653 0.1296 1.8553 0
M  V30 80 H 9.1222 -0.3481 0.2095 0
M  V30 81 H 10.2384 0.8975 -0.4921 0
M  V30 82 H 10.1969 0.6081 1.2889 0
M  V30 83 H -3.2414 -5.0002 0.8529 0
M  V30 84 H -9.2855 1.3555 0.8635 0
M  V30 85 H -9.5596 -0.4342 0.9111 0
M  V30 86 H -10.1381 0.4819 -1.084 0
M  V30 END ATOM
M  V30 BEGIN BOND
M  V30 1 2 1 2
M  V30 2 1 2 3
M  V30 3 1 2 4
M  V30 4 1 3 5
M  V30 5 1 4 6
M  V30 6 1 5 7
M  V30 7 1 6 8
M  V30 8 1 7 9
M  V30 9 1 8 10
M  V30 10 1 9 11
M  V30 11 1 10 12
M  V30 12 1 11 13
M  V30 13 1 12 14
M  V30 14 1 13 15
M  V30 15 1 13 16
M  V30 16 1 14 17
M  V30 17 1 15 18
M  V30 18 1 16 19
M  V30 19 1 16 20
M  V30 20 1 17 21
M  V30 21 1 18 22
M  V30 22 1 19 23
M  V30 23 1 20 24
M  V30 24 1 20 25
M  V30 25 1 21 26
M  V30 26 1 22 27
M  V30 27 1 24 28
M  V30 28 1 25 29
M  V30 29 1 26 30
M  V30 30 1 28 31
M  V30 31 1 29 32
M  V30 32 1 30 33
M  V30 33 1 31 34
M  V30 34 1 32 35
M  V30 35 1 35 36
M  V30 36 1 23 25
M  V30 37 1 4 37
M  V30 38 1 4 38
M  V30 39 1 5 39
M  V30 40 1 5 40
M  V30 41 1 6 41
M  V30 42 1 6 42
M  V30 43 1 7 43
M  V30 44 1 7 44
M  V30 45 1 8 45
M  V30 46 1 8 46
M  V30 47 1 10 47
M  V30 48 1 10 48
M  V30 49 1 11 49
M  V30 50 1 11 50
M  V30 51 1 12 51
M  V30 52 1 12 52
M  V30 53 1 13 53
M  V30 54 1 14 54
M  V30 55 1 14 55
M  V30 56 1 16 56
M  V30 57 1 17 57
M  V30 58 1 17 58
M  V30 59 1 18 59
M  V30 60 1 18 60
M  V30 61 1 20 61
M  V30 62 1 21 62
M  V30 63 1 21 63
M  V30 64 1 22 64
M  V30 65 1 22 65
M  V30 66 1 23 66
M  V30 67 1 23 67
M  V30 68 1 25 68
M  V30 69 1 26 69
M  V30 70 1 26 70
M  V30 71 1 27 71
M  V30 72 1 28 72
M  V30 73 1 28 73
M  V30 74 1 30 74
M  V30 75 1 30 75
M  V30 76 1 31 76
M  V30 77 1 31 77
M  V30 78 1 32 78
M  V30 79 1 32 79
M  V30 80 1 33 80
M  V30 81 1 33 81
M  V30 82 1 33 82
M  V30 83 1 34 83
M  V30 84 1 35 84
M  V30 85 1 35 85
M  V30 86 1 36 86
M  V30 END BOND
M  V30 BEGIN COLLECTION
M  V30 MDLV30/STEABS ATOMS=(4 13 16 20 25)
M  V30 END COLLECTION
M  V30 END CTAB
M  END
>  <Structure No>
1349

>  <LogS>
-6.417202563

>  <MMFF94 Energy>
161.3

$$$$
Compound 1350
Actelion Java MolfileCreator 2.0

  0  0  0  0  0  0              0 V3000
M  V30 BEGIN CTAB
M  V30 COUNTS 57 56 0 0 0
M  V30 BEGIN ATOM
M  V30 1 O 8.5819 1.7896 -1.8675 0
M  V30 2 C 8.8167 0.4225 -1.6651 0
M  V30 3 C 8.1521 -0.0707 -0.371 0
M  V30 4 C 6.6358 -0.2953 -0.5032 0
M  V30 5 C 5.8418 1.0186 -0.5946 0
M  V30 6 C 4.3221 0.7881 -0.6311 0
M  V30 7 C 3.7551 0.3485 0.7311 0
M  V30 8 C 2.2199 0.4088 0.7814 0
M  V30 9 C 1.558 -0.6817 -0.0782 0
M  V30 10 C 0.023 -0.6214 -0.0263 0
M  V30 11 C -0.5439 -1.091 1.3252 0
M  V30 12 C -2.0689 -1.2787 1.2898 0
M  V30 13 C -2.8232 0.054 1.1418 0
M  V30 14 C -4.3371 -0.0973 1.357 0
M  V30 15 C -5.0158 -0.9088 0.2392 0
M  V30 16 C -6.5561 -0.872 0.3454 0
M  V30 17 C -7.2253 0.0798 -0.6735 0
M  V30 18 C -8.7498 -0.0862 -0.6249 0
M  V30 19 C -6.8529 1.5483 -0.4253 0
M  V30 20 H 9.1563 2.2758 -1.2202 0
M  V30 21 H 9.9133 0.2345 -1.6111 0
M  V30 22 H 8.4289 -0.146 -2.5369 0
M  V30 23 H 8.6156 -1.045 -0.1026 0
M  V30 24 H 8.3667 0.6311 0.464 0
M  V30 25 H 6.3073 -0.8588 0.3949 0
M  V30 26 H 6.4236 -0.929 -1.3918 0
M  V30 27 H 6.1183 1.5426 -1.533 0
M  V30 28 H 6.1027 1.6853 0.2563 0
M  V30 29 H 4.0854 0.0316 -1.4093 0
M  V30 30 H 3.84 1.7444 -0.9308 0
M  V30 31 H 4.0877 -0.6831 0.973 0
M  V30 32 H 4.1476 1.0244 1.5219 0
M  V30 33 H 1.9154 0.2738 1.8405 0
M  V30 34 H 1.8716 1.4136 0.4564 0
M  V30 35 H 1.8609 -0.5444 -1.1376 0
M  V30 36 H 1.9078 -1.6865 0.2448 0
M  V30 37 H -0.3717 -1.2795 -0.8307 0
M  V30 38 H -0.3114 0.4154 -0.2436 0
M  V30 39 H -0.0855 -2.0684 1.5913 0
M  V30 40 H -0.2836 -0.3664 2.1256 0
M  V30 41 H -2.3348 -1.9644 0.4573 0
M  V30 42 H -2.3764 -1.7657 2.241 0
M  V30 43 H -2.6387 0.4897 0.1367 0
M  V30 44 H -2.4404 0.7735 1.8981 0
M  V30 45 H -4.7779 0.9203 1.4002 0
M  V30 46 H -4.5302 -0.5807 2.3398 0
M  V30 47 H -4.6824 -0.5458 -0.7574 0
M  V30 48 H -4.6869 -1.9668 0.3264 0
M  V30 49 H -6.9311 -1.9013 0.1505 0
M  V30 50 H -6.8776 -0.6126 1.3788 0
M  V30 51 H -6.8903 -0.1976 -1.6976 0
M  V30 52 H -9.0299 -1.1374 -0.85 0
M  V30 53 H -9.1413 0.1823 0.3799 0
M  V30 54 H -9.2329 0.5654 -1.3841 0
M  V30 55 H -7.4122 2.2102 -1.1203 0
M  V30 56 H -5.7717 1.7121 -0.6137 0
M  V30 57 H -7.0931 1.8432 0.6187 0
M  V30 END ATOM
M  V30 BEGIN BOND
M  V30 1 1 1 2
M  V30 2 1 2 3
M  V30 3 1 3 4
M  V30 4 1 4 5
M  V30 5 1 5 6
M  V30 6 1 6 7
M  V30 7 1 7 8
M  V30 8 1 8 9
M  V30 9 1 9 10
M  V30 10 1 10 11
M  V30 11 1 11 12
M  V30 12 1 12 13
M  V30 13 1 13 14
M  V30 14 1 14 15
M  V30 15 1 15 16
M  V30 16 1 16 17
M  V30 17 1 17 18
M  V30 18 1 17 19
M  V30 19 1 1 20
M  V30 20 1 2 21
M  V30 21 1 2 22
M  V30 22 1 3 23
M  V30 23 1 3 24
M  V30 24 1 4 25
M  V30 25 1 4 26
M  V30 26 1 5 27
M  V30 27 1 5 28
M  V30 28 1 6 29
M  V30 29 1 6 30
M  V30 30 1 7 31
M  V30 31 1 7 32
M  V30 32 1 8 33
M  V30 33 1 8 34
M  V30 34 1 9 35
M  V30 35 1 9 36
M  V30 36 1 10 37
M  V30 37 1 10 38
M  V30 38 1 11 39
M  V30 39 1 11 40
M  V30 40 1 12 41
M  V30 41 1 12 42
M  V30 42 1 13 43
M  V30 43 1 13 44
M  V30 44 1 14 45
M  V30 45 1 14 46
M  V30 46 1 15 47
M  V30 47 1 15 48
M  V30 48 1 16 49
M  V30 49 1 16 50
M  V30 50 1 17 51
M  V30 51 1 18 52
M  V30 52 1 18 53
M  V30 53 1 18 54
M  V30 54 1 19 55
M  V30 55 1 19 56
M  V30 56 1 19 57
M  V30 END BOND
M  V30 END CTAB
M  END
>  <Structure No>
1350

>  <LogS>
-6.256077616

>  <MMFF94 Energy>
4.4956

$$$$
Compound 1351
Actelion Java MolfileCreator 2.0

  0  0  0  0  0  0              0 V3000
M  V30 BEGIN CTAB
M  V30 COUNTS 59 58 0 0 0
M  V30 BEGIN ATOM
M  V30 1 O -2.4391 0.8649 2.4391 0
M  V30 2 C -2.3416 0.1051 1.437 0
M  V30 3 O -3.3341 0.0896 0.4537 0
M  V30 4 C -1.1326 -0.7587 1.2727 0
M  V30 5 C -4.5145 0.8822 0.5401 0
M  V30 6 C -0.0799 -0.0475 0.4182 0
M  V30 7 C -5.4238 0.6116 -0.6673 0 CFG=2
M  V30 8 C 1.1589 -0.9297 0.2257 0
M  V30 9 O -6.609 1.4043 -0.5767 0
M  V30 10 C -5.8234 -0.8677 -0.7778 0
M  V30 11 C 2.2169 -0.2163 -0.6243 0
M  V30 12 C -6.6432 2.7797 -0.8335 0
M  V30 13 O -6.6452 -1.267 0.3202 0
M  V30 14 C 3.4592 -1.0995 -0.8099 0
M  V30 15 O -5.6169 3.3872 -1.243 0
M  V30 16 C -7.9263 3.5222 -0.677 0
M  V30 17 C -6.1602 -1.915 1.4623 0
M  V30 18 C 4.4872 -0.4886 -1.7789 0
M  V30 19 O -4.943 -2.2288 1.563 0
M  V30 20 C -7.0885 -2.1963 2.5939 0
M  V30 21 C 5.0885 0.8571 -1.3263 0
M  V30 22 C 5.7671 0.84 0.058 0
M  V30 23 C 6.8909 -0.1992 0.2171 0
M  V30 24 C 8.0667 0.0442 -0.7396 0
M  V30 25 C 9.223 -0.906 -0.4421 0
M  V30 26 H -0.7097 -0.9998 2.2727 0
M  V30 27 H -1.4348 -1.7107 0.7849 0
M  V30 28 H -4.2278 1.9555 0.5545 0
M  V30 29 H -5.0558 0.6573 1.4843 0
M  V30 30 H 0.2169 0.9021 0.9166 0
M  V30 31 H -0.5159 0.1962 -0.5761 0
M  V30 32 H -4.8715 0.8785 -1.5963 0
M  V30 33 H 0.8602 -1.8768 -0.2757 0
M  V30 34 H 1.5927 -1.1774 1.2198 0
M  V30 35 H -6.4131 -0.996 -1.7103 0
M  V30 36 H -4.9282 -1.5202 -0.8733 0
M  V30 37 H 2.504 0.7295 -0.1171 0
M  V30 38 H 1.7851 0.0291 -1.6195 0
M  V30 39 H 3.9308 -1.3052 0.1741 0
M  V30 40 H 3.1428 -2.0794 -1.2296 0
M  V30 41 H -7.7292 4.5549 -0.3191 0
M  V30 42 H -8.5749 3.0055 0.061 0
M  V30 43 H -8.4497 3.5662 -1.6546 0
M  V30 44 H 4.0013 -0.3394 -2.7677 0
M  V30 45 H 5.3057 -1.221 -1.9425 0
M  V30 46 H -6.8128 -3.1528 3.0863 0
M  V30 47 H -7.0275 -1.372 3.3339 0
M  V30 48 H -8.1305 -2.2736 2.219 0
M  V30 49 H 5.8229 1.1904 -2.0896 0
M  V30 50 H 4.2915 1.6305 -1.3194 0
M  V30 51 H 6.1854 1.8511 0.2549 0
M  V30 52 H 5.0006 0.6633 0.8422 0
M  V30 53 H 6.4911 -1.2255 0.0755 0
M  V30 54 H 7.2615 -0.1364 1.2638 0
M  V30 55 H 7.7427 -0.1185 -1.7893 0
M  V30 56 H 8.4263 1.0912 -0.6368 0
M  V30 57 H 9.5997 -0.7452 0.5904 0
M  V30 58 H 8.8928 -1.961 -0.5526 0
M  V30 59 H 10.0527 -0.7168 -1.1554 0
M  V30 END ATOM
M  V30 BEGIN BOND
M  V30 1 2 1 2
M  V30 2 1 2 3
M  V30 3 1 2 4
M  V30 4 1 3 5
M  V30 5 1 4 6
M  V30 6 1 5 7
M  V30 7 1 6 8
M  V30 8 1 7 9
M  V30 9 1 7 10
M  V30 10 1 8 11
M  V30 11 1 9 12
M  V30 12 1 10 13
M  V30 13 1 11 14
M  V30 14 2 12 15
M  V30 15 1 12 16
M  V30 16 1 13 17
M  V30 17 1 14 18
M  V30 18 2 17 19
M  V30 19 1 17 20
M  V30 20 1 18 21
M  V30 21 1 21 22
M  V30 22 1 22 23
M  V30 23 1 23 24
M  V30 24 1 24 25
M  V30 25 1 4 26
M  V30 26 1 4 27
M  V30 27 1 5 28
M  V30 28 1 5 29
M  V30 29 1 6 30
M  V30 30 1 6 31
M  V30 31 1 7 32
M  V30 32 1 8 33
M  V30 33 1 8 34
M  V30 34 1 10 35
M  V30 35 1 10 36
M  V30 36 1 11 37
M  V30 37 1 11 38
M  V30 38 1 14 39
M  V30 39 1 14 40
M  V30 40 1 16 41
M  V30 41 1 16 42
M  V30 42 1 16 43
M  V30 43 1 18 44
M  V30 44 1 18 45
M  V30 45 1 20 46
M  V30 46 1 20 47
M  V30 47 1 20 48
M  V30 48 1 21 49
M  V30 49 1 21 50
M  V30 50 1 22 51
M  V30 51 1 22 52
M  V30 52 1 23 53
M  V30 53 1 23 54
M  V30 54 1 24 55
M  V30 55 1 24 56
M  V30 56 1 25 57
M  V30 57 1 25 58
M  V30 58 1 25 59
M  V30 END BOND
M  V30 BEGIN COLLECTION
M  V30 MDLV30/STEABS ATOMS=(1 7)
M  V30 END COLLECTION
M  V30 END CTAB
M  END
>  <Structure No>
1351

>  <LogS>
-6.378367614

>  <MMFF94 Energy>
-14.789

$$$$
Compound 1352
Actelion Java MolfileCreator 2.0

  0  0  0  0  0  0              0 V3000
M  V30 BEGIN CTAB
M  V30 COUNTS 102 101 0 0 0
M  V30 BEGIN ATOM
M  V30 1 O 0.6266 -1.1751 -3.4501 0
M  V30 2 C 0.8247 0.0693 -3.4572 0
M  V30 3 O 1.2312 0.7248 -2.2923 0
M  V30 4 C 0.7069 0.8027 -4.727 0
M  V30 5 C 1.259 0.0834 -1.021 0
M  V30 6 C 0.2304 2.0483 -4.8705 0
M  V30 7 C 1.7665 1.0467 0.0574 0
M  V30 8 C -0.4316 2.8523 -3.8256 0
M  V30 9 C 3.2879 1.2724 0.0 0
M  V30 10 O -0.6747 4.0661 -4.0623 0
M  V30 11 O -0.8351 2.2757 -2.6172 0
M  V30 12 C 3.6982 2.2995 -1.0698 0
M  V30 13 C -1.603 2.9545 -1.6234 0
M  V30 14 C 5.2127 2.5702 -1.0596 0
M  V30 15 C -3.073 2.5366 -1.7072 0
M  V30 16 C 6.0052 1.4515 -1.7581 0
M  V30 17 C -3.7483 3.0314 -2.9943 0
M  V30 18 C 7.5135 1.7484 -1.8349 0
M  V30 19 C -5.2752 2.8336 -2.9831 0
M  V30 20 C 8.2396 1.7627 -0.4769 0
M  V30 21 C -5.7124 1.3533 -3.0216 0
M  V30 22 C 8.1599 0.4165 0.2594 0
M  V30 23 C -6.067 0.8079 -1.6285 0
M  V30 24 C 9.1181 0.3823 1.4563 0
M  V30 25 C -6.505 -0.6634 -1.7005 0
M  V30 26 C 9.0048 -0.9478 2.2116 0
M  V30 27 C -6.4981 -1.3565 -0.3279 0
M  V30 28 C 10.0482 -1.0369 3.3351 0
M  V30 29 C -7.5213 -0.7571 0.6504 0
M  V30 30 C 9.851 -2.2622 4.2465 0
M  V30 31 C -7.4939 -1.445 2.0277 0
M  V30 32 C 9.9039 -3.6225 3.529 0
M  V30 33 C -7.9886 -2.9059 2.0342 0
M  V30 34 C 11.2265 -3.8695 2.8077 0
M  V30 35 C -9.4245 -3.1154 1.5117 0
M  V30 36 C -10.5002 -2.262 2.2071 0
M  V30 37 C -10.6243 -2.5679 3.7063 0
M  V30 38 C -11.7853 -1.8003 4.3312 0
M  V30 39 H 1.0339 0.2848 -5.6186 0
M  V30 40 H 1.9006 -0.8235 -1.0626 0
M  V30 41 H 0.2265 -0.2318 -0.7561 0
M  V30 42 H 0.2707 2.4828 -5.8619 0
M  V30 43 H 1.2235 2.0148 -0.0074 0
M  V30 44 H 1.5256 0.6019 1.0479 0
M  V30 45 H 3.6139 1.653 0.9931 0
M  V30 46 H 3.8057 0.3036 -0.1664 0
M  V30 47 H 3.1729 3.2572 -0.8611 0
M  V30 48 H 3.3879 1.9614 -2.0803 0
M  V30 49 H -1.4937 4.0597 -1.6964 0
M  V30 50 H -1.2165 2.653 -0.6271 0
M  V30 51 H 5.5593 2.7002 -0.0124 0
M  V30 52 H 5.3995 3.526 -1.5966 0
M  V30 53 H -3.1183 1.4277 -1.6641 0
M  V30 54 H -3.6073 2.9512 -0.8239 0
M  V30 55 H 5.8365 0.4769 -1.2583 0
M  V30 56 H 5.6289 1.35 -2.8 0
M  V30 57 H -3.3144 2.508 -3.874 0
M  V30 58 H -3.5464 4.1191 -3.1129 0
M  V30 59 H 7.6664 2.7315 -2.3325 0
M  V30 60 H 7.9902 0.9811 -2.484 0
M  V30 61 H -5.7207 3.3618 -2.112 0
M  V30 62 H -5.6769 3.334 -3.8915 0
M  V30 63 H 7.8393 2.5716 0.1695 0
M  V30 64 H 9.3073 2.005 -0.6732 0
M  V30 65 H -6.6185 1.2703 -3.6628 0
M  V30 66 H -4.9192 0.7271 -3.487 0
M  V30 67 H 8.4221 -0.406 -0.442 0
M  V30 68 H 7.124 0.2558 0.6278 0
M  V30 69 H -6.8953 1.4153 -1.2066 0
M  V30 70 H -5.1969 0.8992 -0.9507 0
M  V30 71 H 10.1618 0.513 1.0934 0
M  V30 72 H 8.8747 1.2181 2.1493 0
M  V30 73 H -7.5197 -0.7296 -2.1501 0
M  V30 74 H -5.8069 -1.2243 -2.3614 0
M  V30 75 H 7.9841 -1.0395 2.643 0
M  V30 76 H 9.1636 -1.7814 1.4955 0
M  V30 77 H -6.7352 -2.427 -0.4966 0
M  V30 78 H -5.4782 -1.2985 0.1107 0
M  V30 79 H 11.0712 -1.0457 2.9018 0
M  V30 80 H 9.9701 -0.1276 3.9702 0
M  V30 81 H -8.5394 -0.7947 0.2109 0
M  V30 82 H -7.2773 0.3121 0.8183 0
M  V30 83 H 8.8692 -2.1727 4.7595 0
M  V30 84 H 10.633 -2.2437 5.036 0
M  V30 85 H -6.4533 -1.4255 2.419 0
M  V30 86 H -8.1006 -0.8479 2.7413 0
M  V30 87 H 9.0621 -3.7152 2.8131 0
M  V30 88 H 9.7674 -4.4208 4.2882 0
M  V30 89 H -7.9202 -3.2945 3.0725 0
M  V30 90 H -7.298 -3.5338 1.4323 0
M  V30 91 H 11.2551 -4.9152 2.4357 0
M  V30 92 H 11.3284 -3.1941 1.9343 0
M  V30 93 H 12.0819 -3.7139 3.4975 0
M  V30 94 H -9.6865 -4.1896 1.6304 0
M  V30 95 H -9.4524 -2.9084 0.4212 0
M  V30 96 H -11.473 -2.4814 1.7174 0
M  V30 97 H -10.2983 -1.1811 2.0516 0
M  V30 98 H -9.6914 -2.2767 4.2318 0
M  V30 99 H -10.7909 -3.6561 3.856 0
M  V30 100 H -12.7426 -2.0825 3.8461 0
M  V30 101 H -11.852 -2.0438 5.4114 0
M  V30 102 H -11.6282 -0.7059 4.2223 0
M  V30 END ATOM
M  V30 BEGIN BOND
M  V30 1 2 1 2
M  V30 2 1 2 3
M  V30 3 1 2 4
M  V30 4 1 3 5
M  V30 5 2 4 6
M  V30 6 1 5 7
M  V30 7 1 6 8
M  V30 8 1 7 9
M  V30 9 2 8 10
M  V30 10 1 8 11
M  V30 11 1 9 12
M  V30 12 1 11 13
M  V30 13 1 12 14
M  V30 14 1 13 15
M  V30 15 1 14 16
M  V30 16 1 15 17
M  V30 17 1 16 18
M  V30 18 1 17 19
M  V30 19 1 18 20
M  V30 20 1 19 21
M  V30 21 1 20 22
M  V30 22 1 21 23
M  V30 23 1 22 24
M  V30 24 1 23 25
M  V30 25 1 24 26
M  V30 26 1 25 27
M  V30 27 1 26 28
M  V30 28 1 27 29
M  V30 29 1 28 30
M  V30 30 1 29 31
M  V30 31 1 30 32
M  V30 32 1 31 33
M  V30 33 1 32 34
M  V30 34 1 33 35
M  V30 35 1 35 36
M  V30 36 1 36 37
M  V30 37 1 37 38
M  V30 38 1 4 39
M  V30 39 1 5 40
M  V30 40 1 5 41
M  V30 41 1 6 42
M  V30 42 1 7 43
M  V30 43 1 7 44
M  V30 44 1 9 45
M  V30 45 1 9 46
M  V30 46 1 12 47
M  V30 47 1 12 48
M  V30 48 1 13 49
M  V30 49 1 13 50
M  V30 50 1 14 51
M  V30 51 1 14 52
M  V30 52 1 15 53
M  V30 53 1 15 54
M  V30 54 1 16 55
M  V30 55 1 16 56
M  V30 56 1 17 57
M  V30 57 1 17 58
M  V30 58 1 18 59
M  V30 59 1 18 60
M  V30 60 1 19 61
M  V30 61 1 19 62
M  V30 62 1 20 63
M  V30 63 1 20 64
M  V30 64 1 21 65
M  V30 65 1 21 66
M  V30 66 1 22 67
M  V30 67 1 22 68
M  V30 68 1 23 69
M  V30 69 1 23 70
M  V30 70 1 24 71
M  V30 71 1 24 72
M  V30 72 1 25 73
M  V30 73 1 25 74
M  V30 74 1 26 75
M  V30 75 1 26 76
M  V30 76 1 27 77
M  V30 77 1 27 78
M  V30 78 1 28 79
M  V30 79 1 28 80
M  V30 80 1 29 81
M  V30 81 1 29 82
M  V30 82 1 30 83
M  V30 83 1 30 84
M  V30 84 1 31 85
M  V30 85 1 31 86
M  V30 86 1 32 87
M  V30 87 1 32 88
M  V30 88 1 33 89
M  V30 89 1 33 90
M  V30 90 1 34 91
M  V30 91 1 34 92
M  V30 92 1 34 93
M  V30 93 1 35 94
M  V30 94 1 35 95
M  V30 95 1 36 96
M  V30 96 1 36 97
M  V30 97 1 37 98
M  V30 98 1 37 99
M  V30 99 1 38 100
M  V30 100 1 38 101
M  V30 101 1 38 102
M  V30 END BOND
M  V30 END CTAB
M  END
>  <Structure No>
1352

>  <LogS>
-6.553787585

>  <MMFF94 Energy>
-36.276

$$$$
Compound 1353
Actelion Java MolfileCreator 2.0

  0  0  0  0  0  0              0 V3000
M  V30 BEGIN CTAB
M  V30 COUNTS 60 59 0 0 0
M  V30 BEGIN ATOM
M  V30 1 O -0.7829 -0.7046 -0.548 0
M  V30 2 C -1.1719 0.4784 -0.3473 0
M  V30 3 O -2.5328 0.7549 -0.1913 0
M  V30 4 C -0.2197 1.604 -0.3586 0
M  V30 5 C -3.5292 -0.2623 -0.1956 0
M  V30 6 C 1.0943 1.531 -0.0933 0
M  V30 7 C -4.9044 0.3722 4.0E-4 0
M  V30 8 C 1.8051 0.3641 0.4606 0
M  V30 9 C -6.0091 -0.6909 0.0043 0
M  V30 10 O 1.2022 -0.4893 1.1671 0
M  V30 11 O 3.1835 0.2626 0.2574 0
M  V30 12 C -7.3887 -0.051 0.2001 0
M  V30 13 C 3.9618 -0.8087 0.7826 0
M  V30 14 C -8.4946 -1.1169 0.1945 0
M  V30 15 C 5.4275 -0.6388 0.3834 0
M  V30 16 C -9.88 -0.5346 0.5161 0
M  V30 17 C 6.0502 0.6075 1.033 0
M  V30 18 C -10.4394 0.3253 -0.6265 0
M  V30 19 C 7.4906 0.8604 0.561 0
M  V30 20 C -11.8671 0.774 -0.3279 0
M  V30 21 C 8.4792 -0.1946 1.0866 0
M  V30 22 C 9.9498 0.2055 0.8703 0
M  V30 23 C 10.3599 0.3778 -0.6029 0
M  V30 24 C 10.2253 -0.9095 -1.4151 0
M  V30 25 H -0.6182 2.5691 -0.6463 0
M  V30 26 H -3.5014 -0.803 -1.1671 0
M  V30 27 H -3.327 -0.9811 0.6286 0
M  V30 28 H 1.6884 2.4205 -0.2634 0
M  V30 29 H -5.0884 1.0981 -0.8217 0
M  V30 30 H -4.9144 0.9234 0.9663 0
M  V30 31 H -5.8185 -1.415 0.8271 0
M  V30 32 H -5.9933 -1.2415 -0.962 0
M  V30 33 H -7.566 0.6763 -0.6204 0
M  V30 34 H -7.4056 0.4948 1.1691 0
M  V30 35 H 3.8719 -0.8355 1.8909 0
M  V30 36 H 3.5858 -1.7713 0.3727 0
M  V30 37 H -8.5213 -1.6301 -0.7916 0
M  V30 38 H -8.2581 -1.8827 0.9656 0
M  V30 39 H 5.9807 -1.5456 0.7072 0
M  V30 40 H 5.4961 -0.5643 -0.7238 0
M  V30 41 H -9.8295 0.0646 1.4517 0
M  V30 42 H -10.5743 -1.3843 0.6979 0
M  V30 43 H 6.0284 0.5086 2.1405 0
M  V30 44 H 5.4427 1.4988 0.7639 0
M  V30 45 H -10.4378 -0.2575 -1.5731 0
M  V30 46 H -9.8109 1.2298 -0.7667 0
M  V30 47 H 7.5112 0.8846 -0.5494 0
M  V30 48 H 7.8011 1.8626 0.9293 0
M  V30 49 H -12.5344 -0.1071 -0.2185 0
M  V30 50 H -11.8953 1.3741 0.6064 0
M  V30 51 H -12.2424 1.4009 -1.1641 0
M  V30 52 H 8.2849 -1.1772 0.6101 0
M  V30 53 H 8.3236 -0.3236 2.1799 0
M  V30 54 H 10.5993 -0.5669 1.3364 0
M  V30 55 H 10.1467 1.1592 1.4067 0
M  V30 56 H 9.7691 1.1866 -1.0816 0
M  V30 57 H 11.4249 0.6947 -0.6291 0
M  V30 58 H 9.1565 -1.1707 -1.5605 0
M  V30 59 H 10.7478 -1.7472 -0.9065 0
M  V30 60 H 10.6823 -0.7633 -2.4164 0
M  V30 END ATOM
M  V30 BEGIN BOND
M  V30 1 2 1 2
M  V30 2 1 2 3
M  V30 3 1 2 4
M  V30 4 1 3 5
M  V30 5 2 4 6
M  V30 6 1 5 7
M  V30 7 1 6 8
M  V30 8 1 7 9
M  V30 9 2 8 10
M  V30 10 1 8 11
M  V30 11 1 9 12
M  V30 12 1 11 13
M  V30 13 1 12 14
M  V30 14 1 13 15
M  V30 15 1 14 16
M  V30 16 1 15 17
M  V30 17 1 16 18
M  V30 18 1 17 19
M  V30 19 1 18 20
M  V30 20 1 19 21
M  V30 21 1 21 22
M  V30 22 1 22 23
M  V30 23 1 23 24
M  V30 24 1 4 25
M  V30 25 1 5 26
M  V30 26 1 5 27
M  V30 27 1 6 28
M  V30 28 1 7 29
M  V30 29 1 7 30
M  V30 30 1 9 31
M  V30 31 1 9 32
M  V30 32 1 12 33
M  V30 33 1 12 34
M  V30 34 1 13 35
M  V30 35 1 13 36
M  V30 36 1 14 37
M  V30 37 1 14 38
M  V30 38 1 15 39
M  V30 39 1 15 40
M  V30 40 1 16 41
M  V30 41 1 16 42
M  V30 42 1 17 43
M  V30 43 1 17 44
M  V30 44 1 18 45
M  V30 45 1 18 46
M  V30 46 1 19 47
M  V30 47 1 19 48
M  V30 48 1 20 49
M  V30 49 1 20 50
M  V30 50 1 20 51
M  V30 51 1 21 52
M  V30 52 1 21 53
M  V30 53 1 22 54
M  V30 54 1 22 55
M  V30 55 1 23 56
M  V30 56 1 23 57
M  V30 57 1 24 58
M  V30 58 1 24 59
M  V30 59 1 24 60
M  V30 END BOND
M  V30 END CTAB
M  END
>  <Structure No>
1353

>  <LogS>
-6.356030959

>  <MMFF94 Energy>
-31.805

$$$$
Compound 1354
Actelion Java MolfileCreator 2.0

  0  0  0  0  0  0              0 V3000
M  V30 BEGIN CTAB
M  V30 COUNTS 72 71 0 0 0
M  V30 BEGIN ATOM
M  V30 1 O -3.6874 3.3732 2.3524 0
M  V30 2 C -2.7304 2.6823 1.9106 0
M  V30 3 O -2.2213 2.9332 0.6318 0
M  V30 4 C -2.1267 1.6707 2.8029 0
M  V30 5 C -2.7476 3.9277 -0.2483 0
M  V30 6 C -1.1738 0.7802 2.4827 0
M  V30 7 C -4.1105 3.5095 -0.8158 0
M  V30 8 C -0.6547 0.5022 1.1338 0
M  V30 9 C -3.9972 2.2706 -1.7196 0
M  V30 10 O -1.4196 0.5113 0.132 0
M  V30 11 O 0.684 0.1308 0.9937 0
M  V30 12 C -5.3737 1.7487 -2.1707 0
M  V30 13 C 1.2882 -0.1094 -0.2725 0
M  V30 14 C -6.0905 0.9033 -1.1 0
M  V30 15 C 2.7368 -0.5625 -0.0887 0
M  V30 16 C -5.5193 -0.5229 -0.9933 0
M  V30 17 C 3.5861 0.5083 0.6176 0
M  V30 18 C -6.3406 -1.4069 -0.0275 0
M  V30 19 C 5.0183 0.0263 0.9006 0
M  V30 20 C -7.2641 -2.4185 -0.7478 0
M  V30 21 C 5.8874 -0.0139 -0.3692 0
M  V30 22 C -7.896 -3.3733 0.2735 0
M  V30 23 C -8.3651 -1.7206 -1.5576 0
M  V30 24 C 7.361 -0.3279 -0.0613 0
M  V30 25 C 7.5822 -1.8148 0.2789 0
M  V30 26 C 9.0531 -2.1933 0.5712 0
M  V30 27 C 9.9758 -1.9478 -0.631 0
M  V30 28 C 9.5963 -1.5017 1.8293 0
M  V30 29 H -2.4391 1.7011 3.8401 0
M  V30 30 H -2.8454 4.8944 0.2926 0
M  V30 31 H -2.0307 4.082 -1.0832 0
M  V30 32 H -0.733 0.2108 3.2908 0
M  V30 33 H -4.8135 3.3222 0.0207 0
M  V30 34 H -4.5178 4.3552 -1.4111 0
M  V30 35 H -3.4142 2.5504 -2.6243 0
M  V30 36 H -3.4368 1.4673 -1.2048 0
M  V30 37 H -5.2489 1.1425 -3.0944 0
M  V30 38 H -6.0199 2.6106 -2.4453 0
M  V30 39 H 0.7287 -0.909 -0.8031 0
M  V30 40 H 1.2554 0.8162 -0.8865 0
M  V30 41 H -7.1657 0.8558 -1.363 0
M  V30 42 H -6.0231 1.3945 -0.109 0
M  V30 43 H 3.1603 -0.7797 -1.092 0
M  V30 44 H 2.7455 -1.5045 0.5036 0
M  V30 45 H -4.4796 -0.4618 -0.6062 0
M  V30 46 H -5.4584 -0.993 -1.9998 0
M  V30 47 H 3.1146 0.7568 1.5941 0
M  V30 48 H 3.6092 1.44 0.0094 0
M  V30 49 H -5.621 -1.9832 0.5961 0
M  V30 50 H -6.9347 -0.7825 0.6778 0
M  V30 51 H 5.4804 0.7289 1.6286 0
M  V30 52 H 4.9808 -0.9751 1.3797 0
M  V30 53 H -6.6519 -3.0319 -1.446 0
M  V30 54 H 5.845 0.9819 -0.863 0
M  V30 55 H 5.491 -0.763 -1.0866 0
M  V30 56 H -7.1045 -3.9302 0.8203 0
M  V30 57 H -8.51 -2.8087 1.0086 0
M  V30 58 H -8.5451 -4.116 -0.2397 0
M  V30 59 H -9.0439 -2.4732 -2.01 0
M  V30 60 H -7.9226 -1.1387 -2.3913 0
M  V30 61 H -8.959 -1.0381 -0.9114 0
M  V30 62 H 7.9536 -0.0706 -0.9648 0
M  V30 63 H 7.7106 0.3187 0.7706 0
M  V30 64 H 6.9734 -2.0884 1.166 0
M  V30 65 H 7.2192 -2.437 -0.5684 0
M  V30 66 H 9.0643 -3.2881 0.7719 0
M  V30 67 H 10.1506 -0.8607 -0.7879 0
M  V30 68 H 9.5323 -2.3823 -1.5545 0
M  V30 69 H 10.9596 -2.4359 -0.4546 0
M  V30 70 H 10.5765 -1.9457 2.1088 0
M  V30 71 H 8.8986 -1.6474 2.6817 0
M  V30 72 H 9.744 -0.4121 1.6612 0
M  V30 END ATOM
M  V30 BEGIN BOND
M  V30 1 2 1 2
M  V30 2 1 2 3
M  V30 3 1 2 4
M  V30 4 1 3 5
M  V30 5 2 4 6
M  V30 6 1 5 7
M  V30 7 1 6 8
M  V30 8 1 7 9
M  V30 9 2 8 10
M  V30 10 1 8 11
M  V30 11 1 9 12
M  V30 12 1 11 13
M  V30 13 1 12 14
M  V30 14 1 13 15
M  V30 15 1 14 16
M  V30 16 1 15 17
M  V30 17 1 16 18
M  V30 18 1 17 19
M  V30 19 1 18 20
M  V30 20 1 19 21
M  V30 21 1 20 22
M  V30 22 1 20 23
M  V30 23 1 21 24
M  V30 24 1 24 25
M  V30 25 1 25 26
M  V30 26 1 26 27
M  V30 27 1 26 28
M  V30 28 1 4 29
M  V30 29 1 5 30
M  V30 30 1 5 31
M  V30 31 1 6 32
M  V30 32 1 7 33
M  V30 33 1 7 34
M  V30 34 1 9 35
M  V30 35 1 9 36
M  V30 36 1 12 37
M  V30 37 1 12 38
M  V30 38 1 13 39
M  V30 39 1 13 40
M  V30 40 1 14 41
M  V30 41 1 14 42
M  V30 42 1 15 43
M  V30 43 1 15 44
M  V30 44 1 16 45
M  V30 45 1 16 46
M  V30 46 1 17 47
M  V30 47 1 17 48
M  V30 48 1 18 49
M  V30 49 1 18 50
M  V30 50 1 19 51
M  V30 51 1 19 52
M  V30 52 1 20 53
M  V30 53 1 21 54
M  V30 54 1 21 55
M  V30 55 1 22 56
M  V30 56 1 22 57
M  V30 57 1 22 58
M  V30 58 1 23 59
M  V30 59 1 23 60
M  V30 60 1 23 61
M  V30 61 1 24 62
M  V30 62 1 24 63
M  V30 63 1 25 64
M  V30 64 1 25 65
M  V30 65 1 26 66
M  V30 66 1 27 67
M  V30 67 1 27 68
M  V30 68 1 27 69
M  V30 69 1 28 70
M  V30 70 1 28 71
M  V30 71 1 28 72
M  V30 END BOND
M  V30 END CTAB
M  END
>  <Structure No>
1354

>  <LogS>
-6.422274591

>  <MMFF94 Energy>
-21.235

$$$$
Compound 1355
Actelion Java MolfileCreator 2.0

  0  0  0  0  0  0              0 V3000
M  V30 BEGIN CTAB
M  V30 COUNTS 84 83 0 0 0
M  V30 BEGIN ATOM
M  V30 1 O 2.038 -0.3133 -5.0226 0
M  V30 2 C 1.1601 -1.116 -4.6015 0
M  V30 3 O 0.7196 -1.0249 -3.279 0
M  V30 4 C 0.6191 -2.1116 -5.5512 0
M  V30 5 C 1.3015 -0.1469 -2.3159 0
M  V30 6 C -0.1129 -3.2088 -5.2888 0
M  V30 7 C 2.6034 -0.7372 -1.7635 0
M  V30 8 C -0.628 -3.6775 -3.9893 0
M  V30 9 C 2.3333 -1.9855 -0.9068 0
M  V30 10 O -0.7644 -4.9185 -3.8168 0
M  V30 11 O -1.0444 -2.7869 -2.996 0
M  V30 12 C 3.6275 -2.7183 -0.4957 0
M  V30 13 C -1.7064 -3.2189 -1.8098 0
M  V30 14 C 4.0931 -2.4153 0.9419 0
M  V30 15 C -1.8739 -2.0389 -0.8562 0
M  V30 16 C 4.5731 -0.9751 1.1888 0
M  V30 17 C -2.7894 -2.4089 0.3205 0
M  V30 18 C 5.8104 -0.6051 0.3515 0
M  V30 19 C -2.7584 -1.3694 1.454 0
M  V30 20 C 6.3771 0.7771 0.7147 0
M  V30 21 C -3.1759 0.0571 1.0434 0
M  V30 22 C 7.1242 0.7757 2.0621 0
M  V30 23 C -4.5687 0.1787 0.3964 0
M  V30 24 C 7.9584 2.05 2.2767 0
M  V30 25 C -5.7057 -0.2467 1.3405 0
M  V30 26 C 7.0869 3.2951 2.5036 0
M  V30 27 C -7.1003 -0.107 0.701 0
M  V30 28 C 7.9434 4.5118 2.844 0
M  V30 29 C -7.5335 1.3361 0.3821 0
M  V30 30 C -7.6398 2.2228 1.6323 0
M  V30 31 C -8.2517 3.5858 1.2897 0
M  V30 32 C -8.3848 4.4593 2.5356 0
M  V30 33 H 0.9218 -1.9776 -6.5837 0
M  V30 34 H 1.498 0.8478 -2.7722 0
M  V30 35 H 0.5802 0.011 -1.4861 0
M  V30 36 H -0.3066 -3.8682 -6.128 0
M  V30 37 H 3.2738 -0.9962 -2.6111 0
M  V30 38 H 3.1107 0.0397 -1.1589 0
M  V30 39 H 1.7142 -2.692 -1.5041 0
M  V30 40 H 1.735 -1.7076 -0.0106 0
M  V30 41 H 3.4216 -3.8106 -0.5364 0
M  V30 42 H 4.4454 -2.5441 -1.2262 0
M  V30 43 H -2.7029 -3.638 -2.0798 0
M  V30 44 H -1.1038 -4.0067 -1.3067 0
M  V30 45 H 3.2606 -2.6385 1.6463 0
M  V30 46 H 4.9216 -3.1126 1.1973 0
M  V30 47 H -0.8731 -1.7431 -0.4766 0
M  V30 48 H -2.3111 -1.1848 -1.415 0
M  V30 49 H 4.8264 -0.898 2.2672 0
M  V30 50 H 3.7486 -0.2578 0.9995 0
M  V30 51 H -3.8311 -2.5549 -0.0409 0
M  V30 52 H -2.4569 -3.3805 0.7493 0
M  V30 53 H 6.5999 -1.3787 0.4699 0
M  V30 54 H 5.527 -0.5769 -0.721 0
M  V30 55 H -3.4084 -1.7223 2.2812 0
M  V30 56 H -1.7259 -1.3259 1.8655 0
M  V30 57 H 7.084 1.0773 -0.09 0
M  V30 58 H 5.5511 1.5203 0.7336 0
M  V30 59 H -2.4205 0.4656 0.3385 0
M  V30 60 H -3.1452 0.7046 1.9465 0
M  V30 61 H 7.8193 -0.0909 2.0918 0
M  V30 62 H 6.4059 0.6622 2.9026 0
M  V30 63 H -4.6131 -0.4113 -0.5438 0
M  V30 64 H -4.701 1.2472 0.1188 0
M  V30 65 H 8.633 2.2112 1.4051 0
M  V30 66 H 8.6004 1.8925 3.1733 0
M  V30 67 H -5.6521 0.3283 2.2882 0
M  V30 68 H -5.578 -1.319 1.6004 0
M  V30 69 H 6.5028 3.5235 1.5877 0
M  V30 70 H 6.3781 3.1105 3.3404 0
M  V30 71 H -7.1248 -0.7004 -0.2393 0
M  V30 72 H -7.8499 -0.5592 1.3872 0
M  V30 73 H 7.2879 5.3939 3.0077 0
M  V30 74 H 8.5246 4.3262 3.7714 0
M  V30 75 H 8.6441 4.7356 2.0112 0
M  V30 76 H -8.5331 1.2832 -0.1042 0
M  V30 77 H -6.8418 1.7962 -0.3532 0
M  V30 78 H -6.6287 2.3886 2.059 0
M  V30 79 H -8.2711 1.717 2.3951 0
M  V30 80 H -9.2596 3.446 0.8416 0
M  V30 81 H -7.6065 4.1082 0.5492 0
M  V30 82 H -7.3882 4.6358 2.9905 0
M  V30 83 H -8.8275 5.4392 2.2582 0
M  V30 84 H -9.0475 3.9691 3.2813 0
M  V30 END ATOM
M  V30 BEGIN BOND
M  V30 1 2 1 2
M  V30 2 1 2 3
M  V30 3 1 2 4
M  V30 4 1 3 5
M  V30 5 2 4 6
M  V30 6 1 5 7
M  V30 7 1 6 8
M  V30 8 1 7 9
M  V30 9 2 8 10
M  V30 10 1 8 11
M  V30 11 1 9 12
M  V30 12 1 11 13
M  V30 13 1 12 14
M  V30 14 1 13 15
M  V30 15 1 14 16
M  V30 16 1 15 17
M  V30 17 1 16 18
M  V30 18 1 17 19
M  V30 19 1 18 20
M  V30 20 1 19 21
M  V30 21 1 20 22
M  V30 22 1 21 23
M  V30 23 1 22 24
M  V30 24 1 23 25
M  V30 25 1 24 26
M  V30 26 1 25 27
M  V30 27 1 26 28
M  V30 28 1 27 29
M  V30 29 1 29 30
M  V30 30 1 30 31
M  V30 31 1 31 32
M  V30 32 1 4 33
M  V30 33 1 5 34
M  V30 34 1 5 35
M  V30 35 1 6 36
M  V30 36 1 7 37
M  V30 37 1 7 38
M  V30 38 1 9 39
M  V30 39 1 9 40
M  V30 40 1 12 41
M  V30 41 1 12 42
M  V30 42 1 13 43
M  V30 43 1 13 44
M  V30 44 1 14 45
M  V30 45 1 14 46
M  V30 46 1 15 47
M  V30 47 1 15 48
M  V30 48 1 16 49
M  V30 49 1 16 50
M  V30 50 1 17 51
M  V30 51 1 17 52
M  V30 52 1 18 53
M  V30 53 1 18 54
M  V30 54 1 19 55
M  V30 55 1 19 56
M  V30 56 1 20 57
M  V30 57 1 20 58
M  V30 58 1 21 59
M  V30 59 1 21 60
M  V30 60 1 22 61
M  V30 61 1 22 62
M  V30 62 1 23 63
M  V30 63 1 23 64
M  V30 64 1 24 65
M  V30 65 1 24 66
M  V30 66 1 25 67
M  V30 67 1 25 68
M  V30 68 1 26 69
M  V30 69 1 26 70
M  V30 70 1 27 71
M  V30 71 1 27 72
M  V30 72 1 28 73
M  V30 73 1 28 74
M  V30 74 1 28 75
M  V30 75 1 29 76
M  V30 76 1 29 77
M  V30 77 1 30 78
M  V30 78 1 30 79
M  V30 79 1 31 80
M  V30 80 1 31 81
M  V30 81 1 32 82
M  V30 82 1 32 83
M  V30 83 1 32 84
M  V30 END BOND
M  V30 END CTAB
M  END
>  <Structure No>
1355

>  <LogS>
-6.479738422

>  <MMFF94 Energy>
-33.617

$$$$
Compound 1356
Actelion Java MolfileCreator 2.0

  0  0  0  0  0  0              0 V3000
M  V30 BEGIN CTAB
M  V30 COUNTS 63 62 0 0 0
M  V30 BEGIN ATOM
M  V30 1 O -7.6677 -0.3901 -1.9517 0
M  V30 2 C -7.2892 -0.2178 -0.7595 0
M  V30 3 O -8.0071 0.6112 0.1089 0
M  V30 4 C -6.0323 -0.8696 -0.2807 0
M  V30 5 C -9.2507 1.2241 -0.2342 0
M  V30 6 C -4.8047 -0.0909 -0.7644 0
M  V30 7 C -10.3766 0.1861 -0.2052 0
M  V30 8 C -9.5376 2.3533 0.7521 0
M  V30 9 C -3.5119 -0.7139 -0.2254 0
M  V30 10 C -2.2771 0.0074 -0.7851 0
M  V30 11 C -0.9667 -0.4608 -0.133 0
M  V30 12 C -0.665 -1.9476 -0.3983 0
M  V30 13 C 0.77 -2.3205 -0.0011 0
M  V30 14 C 1.7822 -1.8066 -0.9908 0
M  V30 15 C 3.0932 -1.9843 -0.7847 0
M  V30 16 C 4.1198 -1.502 -1.7748 0
M  V30 17 C 4.2202 0.033 -1.823 0
M  V30 18 C 4.6109 0.6799 -0.4811 0
M  V30 19 C 6.0462 0.3396 -0.0529 0
M  V30 20 C 6.4505 1.141 1.1939 0
M  V30 21 C 7.7986 0.6884 1.7845 0
M  V30 22 C 9.0113 0.8883 0.8555 0
M  V30 23 C 9.2608 2.356 0.5068 0
M  V30 24 H -5.9928 -1.9115 -0.6658 0
M  V30 25 H -6.0434 -0.9107 0.8298 0
M  V30 26 H -9.1851 1.666 -1.2537 0
M  V30 27 H -4.7823 -0.0999 -1.8778 0
M  V30 28 H -4.8745 0.9659 -0.4206 0
M  V30 29 H -10.4404 -0.2894 0.7971 0
M  V30 30 H -10.1881 -0.6036 -0.9625 0
M  V30 31 H -11.3505 0.6677 -0.441 0
M  V30 32 H -8.7143 3.0954 0.7172 0
M  V30 33 H -9.6162 1.9558 1.7865 0
M  V30 34 H -10.4844 2.8694 0.4876 0
M  V30 35 H -3.5097 -0.6512 0.8838 0
M  V30 36 H -3.478 -1.7835 -0.5227 0
M  V30 37 H -2.2203 -0.1455 -1.8859 0
M  V30 38 H -2.3791 1.1007 -0.6009 0
M  V30 39 H -1.0103 -0.2807 0.9637 0
M  V30 40 H -0.1451 0.1655 -0.5416 0
M  V30 41 H -0.8345 -2.1946 -1.4709 0
M  V30 42 H -1.3598 -2.5682 0.2088 0
M  V30 43 H 0.8512 -3.4284 0.0429 0
M  V30 44 H 0.9946 -1.9203 1.0119 0
M  V30 45 H 1.4468 -1.2856 -1.8847 0
M  V30 46 H 3.435 -2.5171 0.0992 0
M  V30 47 H 5.1079 -1.938 -1.5212 0
M  V30 48 H 3.8538 -1.8797 -2.7859 0
M  V30 49 H 3.2414 0.452 -2.1448 0
M  V30 50 H 4.9632 0.3161 -2.6001 0
M  V30 51 H 4.5213 1.7831 -0.5951 0
M  V30 52 H 3.8953 0.3727 0.3119 0
M  V30 53 H 6.1216 -0.7451 0.1746 0
M  V30 54 H 6.7382 0.5813 -0.8885 0
M  V30 55 H 5.6737 0.9995 1.9801 0
M  V30 56 H 6.4811 2.2267 0.9537 0
M  V30 57 H 7.7303 -0.3883 2.0538 0
M  V30 58 H 7.9754 1.2459 2.7301 0
M  V30 59 H 8.8951 0.2969 -0.0768 0
M  V30 60 H 9.9122 0.4972 1.3771 0
M  V30 61 H 8.472 2.7366 -0.1752 0
M  V30 62 H 9.2844 2.9758 1.4269 0
M  V30 63 H 10.2384 2.4513 -0.0113 0
M  V30 END ATOM
M  V30 BEGIN BOND
M  V30 1 2 1 2
M  V30 2 1 2 3
M  V30 3 1 2 4
M  V30 4 1 3 5
M  V30 5 1 4 6
M  V30 6 1 5 7
M  V30 7 1 5 8
M  V30 8 1 6 9
M  V30 9 1 9 10
M  V30 10 1 10 11
M  V30 11 1 11 12
M  V30 12 1 12 13
M  V30 13 1 13 14
M  V30 14 2 14 15
M  V30 15 1 15 16
M  V30 16 1 16 17
M  V30 17 1 17 18
M  V30 18 1 18 19
M  V30 19 1 19 20
M  V30 20 1 20 21
M  V30 21 1 21 22
M  V30 22 1 22 23
M  V30 23 1 4 24
M  V30 24 1 4 25
M  V30 25 1 5 26
M  V30 26 1 6 27
M  V30 27 1 6 28
M  V30 28 1 7 29
M  V30 29 1 7 30
M  V30 30 1 7 31
M  V30 31 1 8 32
M  V30 32 1 8 33
M  V30 33 1 8 34
M  V30 34 1 9 35
M  V30 35 1 9 36
M  V30 36 1 10 37
M  V30 37 1 10 38
M  V30 38 1 11 39
M  V30 39 1 11 40
M  V30 40 1 12 41
M  V30 41 1 12 42
M  V30 42 1 13 43
M  V30 43 1 13 44
M  V30 44 1 14 45
M  V30 45 1 15 46
M  V30 46 1 16 47
M  V30 47 1 16 48
M  V30 48 1 17 49
M  V30 49 1 17 50
M  V30 50 1 18 51
M  V30 51 1 18 52
M  V30 52 1 19 53
M  V30 53 1 19 54
M  V30 54 1 20 55
M  V30 55 1 20 56
M  V30 56 1 21 57
M  V30 57 1 21 58
M  V30 58 1 22 59
M  V30 59 1 22 60
M  V30 60 1 23 61
M  V30 61 1 23 62
M  V30 62 1 23 63
M  V30 END BOND
M  V30 END CTAB
M  END
>  <Structure No>
1356

>  <LogS>
-6.335189016

>  <MMFF94 Energy>
-5.0005

$$$$
Compound 1357
Actelion Java MolfileCreator 2.0

  0  0  0  0  0  0              0 V3000
M  V30 BEGIN CTAB
M  V30 COUNTS 31 30 0 0 0
M  V30 BEGIN ATOM
M  V30 1 O 5.2525 -1.4873 -0.9391 0
M  V30 2 C 4.4097 -0.7704 -1.5404 0
M  V30 3 O 4.7942 -0.0537 -2.6664 0 CHG=-1
M  V30 4 C 3.0142 -0.6481 -1.0154 0
M  V30 5 C 2.9087 0.5372 -0.0471 0
M  V30 6 C 1.5276 0.6325 0.62 0
M  V30 7 C 0.4225 1.0477 -0.3665 0
M  V30 8 C -0.9022 1.3946 0.3361 0
M  V30 9 C -1.5374 0.2361 1.1312 0
M  V30 10 C -1.8103 -1.0449 0.318 0
M  V30 11 C -2.7112 -0.8487 -0.9137 0
M  V30 12 C -4.1154 -0.3659 -0.5529 0
M  V30 13 H 2.732 -1.5899 -0.4961 0
M  V30 14 H 2.3258 -0.5044 -1.8744 0
M  V30 15 H 3.1355 1.4857 -0.5823 0
M  V30 16 H 3.6691 0.414 0.7556 0
M  V30 17 H 1.5897 1.3897 1.432 0
M  V30 18 H 1.2788 -0.3449 1.0859 0
M  V30 19 H 0.7553 1.9511 -0.9225 0
M  V30 20 H 0.2513 0.248 -1.1155 0
M  V30 21 H -0.7258 2.242 1.0338 0
M  V30 22 H -1.6257 1.7622 -0.422 0
M  V30 23 H -0.8796 -0.0228 1.9879 0
M  V30 24 H -2.4885 0.5948 1.5789 0
M  V30 25 H -2.2841 -1.792 0.9915 0
M  V30 26 H -0.8461 -1.4889 -0.0083 0
M  V30 27 H -2.8034 -1.827 -1.4331 0
M  V30 28 H -2.2451 -0.1431 -1.6325 0
M  V30 29 H -4.5719 -1.0322 0.2095 0
M  V30 30 H -4.7543 -0.3776 -1.461 0
M  V30 31 H -4.085 0.6739 -0.1667 0
M  V30 END ATOM
M  V30 BEGIN BOND
M  V30 1 2 1 2
M  V30 2 1 2 3
M  V30 3 1 2 4
M  V30 4 1 4 5
M  V30 5 1 5 6
M  V30 6 1 6 7
M  V30 7 1 7 8
M  V30 8 1 8 9
M  V30 9 1 9 10
M  V30 10 1 10 11
M  V30 11 1 11 12
M  V30 12 1 4 13
M  V30 13 1 4 14
M  V30 14 1 5 15
M  V30 15 1 5 16
M  V30 16 1 6 17
M  V30 17 1 6 18
M  V30 18 1 7 19
M  V30 19 1 7 20
M  V30 20 1 8 21
M  V30 21 1 8 22
M  V30 22 1 9 23
M  V30 23 1 9 24
M  V30 24 1 10 25
M  V30 25 1 10 26
M  V30 26 1 11 27
M  V30 27 1 11 28
M  V30 28 1 12 29
M  V30 29 1 12 30
M  V30 30 1 12 31
M  V30 END BOND
M  V30 END CTAB
M  END
>  <Structure No>
1357

>  <LogS>
-6.61940343

>  <MMFF94 Energy>
0.44369

$$$$
Compound 1358
Actelion Java MolfileCreator 2.0

  0  0  0  0  0  0              0 V3000
M  V30 BEGIN CTAB
M  V30 COUNTS 90 97 0 0 0
M  V30 BEGIN ATOM
M  V30 1 S -1.43 1.8509 1.5984 0
M  V30 2 O -2.8121 1.7626 1.0154 0
M  V30 3 O -1.2147 0.7206 2.5644 0
M  V30 4 O -0.2481 1.7679 0.3598 0
M  V30 5 C -1.2535 3.3909 2.4494 0
M  V30 6 C 0.1387 0.6486 -0.3967 0
M  V30 7 C -1.2069 4.6336 1.7637 0
M  V30 8 C -1.1318 3.3674 3.8476 0
M  V30 9 C 1.313 0.7704 -1.1771 0
M  V30 10 C -0.5975 -0.5622 -0.4252 0
M  V30 11 C -0.9935 5.8205 2.4949 0
M  V30 12 C -1.3756 4.7177 0.2925 0
M  V30 13 C -0.955 4.5489 4.5641 0
M  V30 14 O 2.1242 1.9176 -1.0921 0
M  V30 15 C 1.6834 -0.2719 -2.058 0
M  V30 16 O -1.7884 -0.6795 0.2927 0
M  V30 17 C -0.1489 -1.6225 -1.217 0
M  V30 18 C -0.8905 7.1167 1.7854 0
M  V30 19 C -0.8803 5.7673 3.8961 0
M  V30 20 C -1.2603 5.8728 -0.3722 0
M  V30 21 S 2.7092 2.5471 0.3943 0
M  V30 22 C 2.8469 -0.1329 -2.9746 0
M  V30 23 C 0.9651 -1.4752 -2.0328 0
M  V30 24 S -2.3541 -2.1058 1.0556 0
M  V30 25 O -0.7368 8.1858 2.4434 0
M  V30 26 C -0.9343 7.189 0.2825 0 CFG=1
M  V30 27 O 3.9161 3.4054 0.1511 0
M  V30 28 O 1.6688 3.4159 1.0317 0
M  V30 29 C 3.1196 1.1777 1.4495 0
M  V30 30 O 3.8554 0.5134 -2.5887 0
M  V30 31 C 2.8705 -0.7253 -4.3338 0
M  V30 32 O -1.2111 -3.05 1.3085 0
M  V30 33 O -2.953 -1.6851 2.3686 0
M  V30 34 C -3.6018 -2.9027 0.0796 0
M  V30 35 N -1.8963 8.1463 -0.1078 0 CHG=1
M  V30 36 C 4.1935 0.2883 1.1664 0
M  V30 37 C 2.2571 0.8913 2.5192 0
M  V30 38 C 1.6879 -0.8813 -5.0786 0
M  V30 39 C 4.0975 -1.0829 -4.9188 0
M  V30 40 C -4.5263 -3.8205 0.6442 0
M  V30 41 C -3.7147 -2.5623 -1.2791 0
M  V30 42 N -2.6549 8.9102 -0.4154 0
M  V30 43 C 4.3419 -0.8866 1.9384 0
M  V30 44 C 5.178 0.5662 0.091 0
M  V30 45 C 2.4163 -0.2658 3.2775 0
M  V30 46 C 1.7319 -1.4117 -6.3736 0
M  V30 47 C 4.1348 -1.6084 -6.2138 0
M  V30 48 C -5.5706 -4.3408 -0.1532 0
M  V30 49 C -4.4236 -4.2731 2.0553 0
M  V30 50 C -4.7214 -3.1177 -2.0707 0
M  V30 51 C 5.4303 -1.8406 1.6209 0
M  V30 52 C 3.4463 -1.1547 2.9862 0
M  V30 53 C 6.2011 -0.2476 -0.1742 0
M  V30 54 C 2.9556 -1.7745 -6.9409 0
M  V30 55 C -6.6021 -5.1925 0.4764 0
M  V30 56 C -5.651 -3.999 -1.5111 0
M  V30 57 C -5.4127 -4.9488 2.6514 0
M  V30 58 O 5.51 -2.9397 2.2411 0
M  V30 59 C 6.4745 -1.5182 0.5821 0 CFG=2
M  V30 60 O -7.4283 -5.8319 -0.2303 0
M  V30 61 C -6.7322 -5.1951 1.9781 0 CFG=2
M  V30 62 N 6.5753 -2.5863 -0.3392 0 CHG=1
M  V30 63 N -7.267 -6.4228 2.4291 0 CHG=1
M  V30 64 N 6.6598 -3.433 -1.0697 0
M  V30 65 N -7.7008 -7.3905 2.8 0
M  V30 66 H -1.1848 2.4388 4.3997 0
M  V30 67 H -1.6112 3.8349 -0.2838 0
M  V30 68 H -0.8678 4.5155 5.6406 0
M  V30 69 H -0.6889 -2.5563 -1.2465 0
M  V30 70 H -0.7265 6.6672 4.4764 0
M  V30 71 H -1.3756 5.861 -1.4494 0
M  V30 72 H 1.2635 -2.3107 -2.6536 0
M  V30 73 H 0.0636 7.5188 -0.082 0
M  V30 74 H 1.431 1.549 2.745 0
M  V30 75 H 0.7334 -0.5816 -4.6659 0
M  V30 76 H 5.0244 -0.967 -4.3699 0
M  V30 77 H -3.0291 -1.8587 -1.7253 0
M  V30 78 H 5.1013 1.4507 -0.5184 0
M  V30 79 H 1.7227 -0.4814 4.0819 0
M  V30 80 H 0.8167 -1.5241 -6.9406 0
M  V30 81 H 5.0818 -1.8803 -6.6571 0
M  V30 82 H -3.5208 -4.1073 2.6222 0
M  V30 83 H -4.7889 -2.8542 -3.116 0
M  V30 84 H 3.5437 -2.0543 3.5805 0
M  V30 85 H 6.89 0.0285 -0.9648 0
M  V30 86 H 2.9903 -2.1742 -7.9458 0
M  V30 87 H -6.4464 -4.3926 -2.1299 0
M  V30 88 H -5.2931 -5.2452 3.686 0
M  V30 89 H 7.4453 -1.4111 1.1043 0
M  V30 90 H -7.4235 -4.375 2.2713 0
M  V30 END ATOM
M  V30 BEGIN BOND
M  V30 1 2 1 2
M  V30 2 2 1 3
M  V30 3 1 1 4
M  V30 4 1 1 5
M  V30 5 1 4 6
M  V30 6 2 5 7
M  V30 7 1 5 8
M  V30 8 2 6 9
M  V30 9 1 6 10
M  V30 10 1 7 11
M  V30 11 1 7 12
M  V30 12 2 8 13
M  V30 13 1 9 14
M  V30 14 1 9 15
M  V30 15 1 10 16
M  V30 16 2 10 17
M  V30 17 1 11 18
M  V30 18 2 11 19
M  V30 19 2 12 20
M  V30 20 1 14 21
M  V30 21 1 15 22
M  V30 22 2 15 23
M  V30 23 1 16 24
M  V30 24 2 18 25
M  V30 25 1 18 26
M  V30 26 2 21 27
M  V30 27 2 21 28
M  V30 28 1 21 29
M  V30 29 2 22 30
M  V30 30 1 22 31
M  V30 31 2 24 32
M  V30 32 2 24 33
M  V30 33 1 24 34
M  V30 34 1 26 35
M  V30 35 2 29 36
M  V30 36 1 29 37
M  V30 37 2 31 38
M  V30 38 1 31 39
M  V30 39 2 34 40
M  V30 40 1 34 41
M  V30 41 3 35 42
M  V30 42 1 36 43
M  V30 43 1 36 44
M  V30 44 2 37 45
M  V30 45 1 38 46
M  V30 46 2 39 47
M  V30 47 1 40 48
M  V30 48 1 40 49
M  V30 49 2 41 50
M  V30 50 1 43 51
M  V30 51 2 43 52
M  V30 52 2 44 53
M  V30 53 2 46 54
M  V30 54 1 48 55
M  V30 55 2 48 56
M  V30 56 2 49 57
M  V30 57 2 51 58
M  V30 58 1 51 59
M  V30 59 2 55 60
M  V30 60 1 55 61
M  V30 61 1 59 62
M  V30 62 1 61 63
M  V30 63 3 62 64
M  V30 64 3 63 65
M  V30 65 1 13 19
M  V30 66 1 17 23
M  V30 67 1 20 26
M  V30 68 1 45 52
M  V30 69 1 47 54
M  V30 70 1 50 56
M  V30 71 1 53 59
M  V30 72 1 57 61
M  V30 73 1 8 66
M  V30 74 1 12 67
M  V30 75 1 13 68
M  V30 76 1 17 69
M  V30 77 1 19 70
M  V30 78 1 20 71
M  V30 79 1 23 72
M  V30 80 1 26 73
M  V30 81 1 37 74
M  V30 82 1 38 75
M  V30 83 1 39 76
M  V30 84 1 41 77
M  V30 85 1 44 78
M  V30 86 1 45 79
M  V30 87 1 46 80
M  V30 88 1 47 81
M  V30 89 1 49 82
M  V30 90 1 50 83
M  V30 91 1 52 84
M  V30 92 1 53 85
M  V30 93 1 54 86
M  V30 94 1 56 87
M  V30 95 1 57 88
M  V30 96 1 59 89
M  V30 97 1 61 90
M  V30 END BOND
M  V30 BEGIN COLLECTION
M  V30 MDLV30/STEABS ATOMS=(3 26 59 61)
M  V30 END COLLECTION
M  V30 END CTAB
M  END
>  <Structure No>
1358

>  <LogS>
-6.820895007

>  <MMFF94 Energy>
265.45

$$$$
Compound 1359
Actelion Java MolfileCreator 2.0

  0  0  0  0  0  0              0 V3000
M  V30 BEGIN CTAB
M  V30 COUNTS 120 119 0 0 0
M  V30 BEGIN ATOM
M  V30 1 O -2.6646 -2.6646 -4.5488 0
M  V30 2 C -2.6545 -3.6779 -3.797 0
M  V30 3 N -1.5429 -4.5862 -3.827 0
M  V30 4 C -3.7767 -3.8991 -2.8199 0
M  V30 5 C -0.4151 -4.4226 -4.7437 0
M  V30 6 C -5.1318 -3.4387 -3.3857 0
M  V30 7 C 0.4828 -3.2596 -4.3103 0
M  V30 8 C -6.3005 -3.72 -2.4196 0
M  V30 9 N 1.1001 -3.5182 -3.0095 0
M  V30 10 C -6.7673 -2.4826 -1.6306 0
M  V30 11 C 1.867 -2.5105 -2.3394 0
M  V30 12 C -5.8105 -2.0685 -0.4921 0
M  V30 13 O 1.9176 -1.3395 -2.8044 0
M  V30 14 C 2.644 -2.8472 -1.0995 0
M  V30 15 C -4.887 -0.8806 -0.8349 0
M  V30 16 C 4.0252 -3.4403 -1.423 0
M  V30 17 C -5.5973 0.4682 -1.0674 0
M  V30 18 C 4.9209 -2.555 -2.3174 0
M  V30 19 C -6.4829 0.9017 0.1113 0
M  V30 20 C 5.1633 -1.1275 -1.794 0
M  V30 21 C -6.9378 2.3601 -0.0519 0
M  V30 22 C 6.0143 -1.0923 -0.5123 0
M  V30 23 C -7.8196 2.8513 1.1127 0
M  V30 24 C 6.0983 0.3232 0.089 0
M  V30 25 C -9.2921 2.404 0.9956 0 CFG=1
M  V30 26 C 7.0076 1.287 -0.7032 0
M  V30 27 O -9.3865 1.031 1.2777 0
M  V30 28 C -10.1749 3.1988 1.9818 0
M  V30 29 C 8.3861 1.5194 -0.058 0
M  V30 30 C -11.6788 2.8929 1.8294 0
M  V30 31 C 9.3836 0.3599 -0.2667 0
M  V30 32 C -12.1474 1.7594 2.7589 0
M  V30 33 C 9.4628 -0.647 0.9002 0
M  V30 34 C -13.5822 1.299 2.4544 0
M  V30 35 C 10.1773 -0.1736 2.1905 0 CFG=2
M  V30 36 C -14.6319 2.3627 2.8089 0
M  V30 37 O 9.3677 0.7295 2.8979 0
M  V30 38 C 11.6063 0.3851 1.9593 0
M  V30 39 C -16.0465 1.8181 2.6335 0
M  V30 40 C 11.6821 1.9163 1.7558 0
M  V30 41 C 11.9701 2.6667 3.0699 0
M  V30 42 C 11.9856 4.1987 2.8814 0
M  V30 43 C 13.3996 4.7983 2.7946 0
M  V30 44 C 14.1482 4.3892 1.5279 0
M  V30 45 H -1.5604 -5.4297 -3.2096 0
M  V30 46 H -3.8383 -4.9833 -2.5784 0
M  V30 47 H -3.5383 -3.3537 -1.8851 0
M  V30 48 H 0.1853 -5.3581 -4.7621 0
M  V30 49 H -0.7933 -4.2433 -5.7724 0
M  V30 50 H -5.3156 -3.9941 -4.3333 0
M  V30 51 H -5.0941 -2.3598 -3.6454 0
M  V30 52 H 1.2832 -3.1178 -5.0685 0
M  V30 53 H -0.1122 -2.3235 -4.2621 0
M  V30 54 H -7.1671 -4.0659 -3.0273 0
M  V30 55 H -6.0616 -4.5532 -1.723 0
M  V30 56 H 1.0008 -4.4568 -2.5597 0
M  V30 57 H -6.974 -1.6476 -2.3293 0
M  V30 58 H -7.7455 -2.741 -1.1679 0
M  V30 59 H -6.4027 -1.8213 0.4143 0
M  V30 60 H -5.1792 -2.9321 -0.1926 0
M  V30 61 H 2.7498 -1.9467 -0.4583 0
M  V30 62 H 2.07 -3.5898 -0.5046 0
M  V30 63 H -4.2882 -1.1195 -1.7371 0
M  V30 64 H -4.1662 -0.7546 0.0015 0
M  V30 65 H 4.5504 -3.6653 -0.4703 0
M  V30 66 H 3.8788 -4.4163 -1.9367 0
M  V30 67 H -6.2052 0.4331 -1.9981 0
M  V30 68 H -4.8064 1.2334 -1.2277 0
M  V30 69 H 5.9018 -3.0621 -2.4484 0
M  V30 70 H 4.4632 -2.4871 -3.3282 0
M  V30 71 H -5.9177 0.796 1.0651 0
M  V30 72 H -7.3721 0.2394 0.1431 0
M  V30 73 H 5.6913 -0.5671 -2.5948 0
M  V30 74 H 4.1972 -0.6087 -1.6306 0
M  V30 75 H -7.4751 2.4879 -1.018 0
M  V30 76 H -6.0305 3.0048 -0.0874 0
M  V30 77 H 5.5521 -1.7472 0.2559 0
M  V30 78 H 7.0299 -1.4858 -0.729 0
M  V30 79 H -7.3951 2.5219 2.0865 0
M  V30 80 H -7.7827 3.9633 1.1024 0
M  V30 81 H 6.4374 0.252 1.1451 0
M  V30 82 H 5.0727 0.749 0.1358 0
M  V30 83 H -9.6407 2.626 -0.0426 0
M  V30 84 H 7.1368 0.9667 -1.757 0
M  V30 85 H 6.496 2.2723 -0.7454 0
M  V30 86 H -10.0284 0.6395 0.6285 0
M  V30 87 H -10.0309 4.2837 1.7822 0
M  V30 88 H -9.8424 3.0114 3.0279 0
M  V30 89 H 8.8218 2.4202 -0.5443 0
M  V30 90 H 8.2645 1.7823 1.0088 0
M  V30 91 H -12.2427 3.8144 2.0918 0
M  V30 92 H -11.9172 2.6496 0.7715 0
M  V30 93 H 9.1165 -0.1973 -1.1901 0
M  V30 94 H 10.3941 0.7719 -0.4699 0
M  V30 95 H -11.4816 0.8802 2.6447 0
M  V30 96 H -12.076 2.0914 3.8185 0
M  V30 97 H 8.4455 -0.9997 1.1667 0
M  V30 98 H 10.0081 -1.542 0.5251 0
M  V30 99 H -13.7813 0.3828 3.0528 0
M  V30 100 H -13.6697 1.0257 1.3785 0
M  V30 101 H 10.2939 -1.0985 2.8043 0
M  V30 102 H -14.5132 3.2496 2.1501 0
M  V30 103 H -14.501 2.6848 3.8654 0
M  V30 104 H 9.5945 0.6327 3.86 0
M  V30 105 H 12.0553 -0.1211 1.0755 0
M  V30 106 H 12.2474 0.0953 2.8221 0
M  V30 107 H -16.2142 0.9522 3.3087 0
M  V30 108 H -16.211 1.5021 1.5823 0
M  V30 109 H -16.7834 2.6109 2.8835 0
M  V30 110 H 10.7418 2.3024 1.3103 0
M  V30 111 H 12.4946 2.131 1.0313 0
M  V30 112 H 11.1752 2.417 3.8043 0
M  V30 113 H 12.9324 2.3153 3.5038 0
M  V30 114 H 11.4902 4.6597 3.7631 0
M  V30 115 H 11.3899 4.5036 1.9929 0
M  V30 116 H 13.3101 5.906 2.8034 0
M  V30 117 H 13.9942 4.5049 3.6875 0
M  V30 118 H 14.4422 3.3197 1.5806 0
M  V30 119 H 15.0728 4.9956 1.4343 0
M  V30 120 H 13.5187 4.5638 0.629 0
M  V30 END ATOM
M  V30 BEGIN BOND
M  V30 1 2 1 2
M  V30 2 1 2 3
M  V30 3 1 2 4
M  V30 4 1 3 5
M  V30 5 1 4 6
M  V30 6 1 5 7
M  V30 7 1 6 8
M  V30 8 1 7 9
M  V30 9 1 8 10
M  V30 10 1 9 11
M  V30 11 1 10 12
M  V30 12 2 11 13
M  V30 13 1 11 14
M  V30 14 1 12 15
M  V30 15 1 14 16
M  V30 16 1 15 17
M  V30 17 1 16 18
M  V30 18 1 17 19
M  V30 19 1 18 20
M  V30 20 1 19 21
M  V30 21 1 20 22
M  V30 22 1 21 23
M  V30 23 1 22 24
M  V30 24 1 23 25
M  V30 25 1 24 26
M  V30 26 1 25 27
M  V30 27 1 25 28
M  V30 28 1 26 29
M  V30 29 1 28 30
M  V30 30 1 29 31
M  V30 31 1 30 32
M  V30 32 1 31 33
M  V30 33 1 32 34
M  V30 34 1 33 35
M  V30 35 1 34 36
M  V30 36 1 35 37
M  V30 37 1 35 38
M  V30 38 1 36 39
M  V30 39 1 38 40
M  V30 40 1 40 41
M  V30 41 1 41 42
M  V30 42 1 42 43
M  V30 43 1 43 44
M  V30 44 1 3 45
M  V30 45 1 4 46
M  V30 46 1 4 47
M  V30 47 1 5 48
M  V30 48 1 5 49
M  V30 49 1 6 50
M  V30 50 1 6 51
M  V30 51 1 7 52
M  V30 52 1 7 53
M  V30 53 1 8 54
M  V30 54 1 8 55
M  V30 55 1 9 56
M  V30 56 1 10 57
M  V30 57 1 10 58
M  V30 58 1 12 59
M  V30 59 1 12 60
M  V30 60 1 14 61
M  V30 61 1 14 62
M  V30 62 1 15 63
M  V30 63 1 15 64
M  V30 64 1 16 65
M  V30 65 1 16 66
M  V30 66 1 17 67
M  V30 67 1 17 68
M  V30 68 1 18 69
M  V30 69 1 18 70
M  V30 70 1 19 71
M  V30 71 1 19 72
M  V30 72 1 20 73
M  V30 73 1 20 74
M  V30 74 1 21 75
M  V30 75 1 21 76
M  V30 76 1 22 77
M  V30 77 1 22 78
M  V30 78 1 23 79
M  V30 79 1 23 80
M  V30 80 1 24 81
M  V30 81 1 24 82
M  V30 82 1 25 83
M  V30 83 1 26 84
M  V30 84 1 26 85
M  V30 85 1 27 86
M  V30 86 1 28 87
M  V30 87 1 28 88
M  V30 88 1 29 89
M  V30 89 1 29 90
M  V30 90 1 30 91
M  V30 91 1 30 92
M  V30 92 1 31 93
M  V30 93 1 31 94
M  V30 94 1 32 95
M  V30 95 1 32 96
M  V30 96 1 33 97
M  V30 97 1 33 98
M  V30 98 1 34 99
M  V30 99 1 34 100
M  V30 100 1 35 101
M  V30 101 1 36 102
M  V30 102 1 36 103
M  V30 103 1 37 104
M  V30 104 1 38 105
M  V30 105 1 38 106
M  V30 106 1 39 107
M  V30 107 1 39 108
M  V30 108 1 39 109
M  V30 109 1 40 110
M  V30 110 1 40 111
M  V30 111 1 41 112
M  V30 112 1 41 113
M  V30 113 1 42 114
M  V30 114 1 42 115
M  V30 115 1 43 116
M  V30 116 1 43 117
M  V30 117 1 44 118
M  V30 118 1 44 119
M  V30 119 1 44 120
M  V30 END BOND
M  V30 BEGIN COLLECTION
M  V30 MDLV30/STEABS ATOMS=(2 25 35)
M  V30 END COLLECTION
M  V30 END CTAB
M  END
>  <Structure No>
1359

>  <LogS>
-6.735207192

>  <MMFF94 Energy>
-29.213

$$$$
Compound 1360
Actelion Java MolfileCreator 2.0

  0  0  0  0  0  0              0 V3000
M  V30 BEGIN CTAB
M  V30 COUNTS 40 44 0 0 0
M  V30 BEGIN ATOM
M  V30 1 O -5.1351 2.9319 -0.244 0
M  V30 2 C -4.6979 1.7503 -0.2174 0
M  V30 3 O -3.387 1.5454 -0.145 0
M  V30 4 C -5.5765 0.6574 -0.2629 0
M  V30 5 C -2.8525 0.3261 -0.1129 0
M  V30 6 C -5.0097 -0.63 -0.229 0
M  V30 7 C -6.9731 0.802 -0.3397 0
M  V30 8 N -3.6626 -0.7666 -0.1548 0
M  V30 9 C -1.3817 0.1652 -0.0319 0
M  V30 10 C -5.8334 -1.7606 -0.2715 0
M  V30 11 C -7.7899 -0.3329 -0.3818 0
M  V30 12 C -0.5466 1.2943 0.0112 0
M  V30 13 C -0.7968 -1.1127 0.0029 0
M  V30 14 C -7.2217 -1.6105 -0.3478 0
M  V30 15 C 0.8414 1.15 0.0876 0
M  V30 16 C 0.5912 -1.2571 0.0794 0
M  V30 17 C 1.4264 -0.128 0.1226 0
M  V30 18 C 2.8971 -0.2888 0.2036 0
M  V30 19 O 3.4317 -1.5082 0.2357 0
M  V30 20 N 3.7072 0.804 0.2457 0
M  V30 21 C 4.7425 -1.713 0.3081 0
M  V30 22 C 5.0542 0.6674 0.3199 0
M  V30 23 O 5.1798 -2.8946 0.3347 0
M  V30 24 C 5.6211 -0.62 0.3538 0
M  V30 25 C 5.8779 1.7981 0.3625 0
M  V30 26 C 7.0175 -0.7645 0.4307 0
M  V30 27 C 7.2661 1.6481 0.4389 0
M  V30 28 C 7.8343 0.3704 0.473 0
M  V30 29 H -7.4314 1.783 -0.367 0
M  V30 30 H -5.4012 -2.7532 -0.2455 0
M  V30 31 H -8.865 -0.2221 -0.441 0
M  V30 32 H -0.9648 2.293 -0.0138 0
M  V30 33 H -1.41 -2.0045 -0.0285 0
M  V30 34 H -7.8582 -2.4853 -0.3807 0
M  V30 35 H 1.4546 2.0418 0.1193 0
M  V30 36 H 1.0093 -2.2556 0.1045 0
M  V30 37 H 5.4456 2.7908 0.3366 0
M  V30 38 H 7.4758 -1.7455 0.458 0
M  V30 39 H 7.9025 2.5229 0.472 0
M  V30 40 H 8.9093 0.2598 0.5322 0
M  V30 END ATOM
M  V30 BEGIN BOND
M  V30 1 2 1 2
M  V30 2 1 2 3
M  V30 3 1 2 4
M  V30 4 1 3 5
M  V30 5 2 4 6
M  V30 6 1 4 7
M  V30 7 2 5 8
M  V30 8 1 5 9
M  V30 9 1 6 10
M  V30 10 2 7 11
M  V30 11 2 9 12
M  V30 12 1 9 13
M  V30 13 2 10 14
M  V30 14 1 12 15
M  V30 15 2 13 16
M  V30 16 2 15 17
M  V30 17 1 17 18
M  V30 18 1 18 19
M  V30 19 2 18 20
M  V30 20 1 19 21
M  V30 21 1 20 22
M  V30 22 2 21 23
M  V30 23 1 21 24
M  V30 24 1 22 25
M  V30 25 1 24 26
M  V30 26 2 25 27
M  V30 27 2 26 28
M  V30 28 1 6 8
M  V30 29 1 11 14
M  V30 30 1 16 17
M  V30 31 2 22 24
M  V30 32 1 27 28
M  V30 33 1 7 29
M  V30 34 1 10 30
M  V30 35 1 11 31
M  V30 36 1 12 32
M  V30 37 1 13 33
M  V30 38 1 14 34
M  V30 39 1 15 35
M  V30 40 1 16 36
M  V30 41 1 25 37
M  V30 42 1 26 38
M  V30 43 1 27 39
M  V30 44 1 28 40
M  V30 END BOND
M  V30 END CTAB
M  END
>  <Structure No>
1360

>  <LogS>
-6.517040294

>  <MMFF94 Energy>
69.553

$$$$
Compound 1361
Actelion Java MolfileCreator 2.0

  0  0  0  0  0  0              0 V3000
M  V30 BEGIN CTAB
M  V30 COUNTS 67 66 0 0 0
M  V30 BEGIN ATOM
M  V30 1 O -9.7008 1.2475 -0.4677 0
M  V30 2 C -8.5963 1.5577 0.0557 0
M  V30 3 N -7.6489 2.3231 -0.6911 0
M  V30 4 C -8.2737 1.0917 1.4467 0
M  V30 5 C -7.9988 -0.4195 1.5012 0
M  V30 6 C -6.8161 -0.8797 0.6306 0
M  V30 7 C -5.467 -0.3177 1.1146 0
M  V30 8 C -4.2682 -0.9718 0.4082 0
M  V30 9 C -4.1064 -0.4943 -1.0456 0
M  V30 10 C -3.0101 -1.2587 -1.8103 0
M  V30 11 C -1.5837 -1.0921 -1.2557 0
M  V30 12 C -1.0478 0.3401 -1.4038 0
M  V30 13 C 0.3781 0.5025 -0.8489 0
M  V30 14 C 1.4611 -0.1789 -1.7086 0
M  V30 15 C 1.7327 -1.6 -1.2813 0
M  V30 16 C 2.426 -1.954 -0.1838 0
M  V30 17 C 3.0817 -0.9925 0.7822 0
M  V30 18 C 4.6148 -1.0988 0.7233 0
M  V30 19 C 5.222 -0.5442 -0.5814 0
M  V30 20 C 5.2474 0.9953 -0.6671 0
M  V30 21 C 6.2202 1.6846 0.3088 0
M  V30 22 C 7.7056 1.3502 0.0478 0
M  V30 23 C 8.29 0.3353 1.0465 0
M  V30 24 C 8.5748 0.9582 2.4126 0
M  V30 25 H -7.8657 2.6154 -1.6698 0
M  V30 26 H -6.7344 2.603 -0.2694 0
M  V30 27 H -9.1411 1.3178 2.1039 0
M  V30 28 H -7.4098 1.6564 1.8559 0
M  V30 29 H -7.8126 -0.7118 2.5571 0
M  V30 30 H -8.9117 -0.9611 1.171 0
M  V30 31 H -6.78 -1.9907 0.6694 0
M  V30 32 H -7.0015 -0.5913 -0.4245 0
M  V30 33 H -5.369 -0.5097 2.2065 0
M  V30 34 H -5.4276 0.7815 0.9593 0
M  V30 35 H -3.3569 -0.6968 0.9801 0
M  V30 36 H -4.3697 -2.0786 0.4415 0
M  V30 37 H -3.909 0.5971 -1.0675 0
M  V30 38 H -5.0563 -0.66 -1.5947 0
M  V30 39 H -3.2654 -2.3409 -1.8094 0
M  V30 40 H -3.0222 -0.9275 -2.8717 0
M  V30 41 H -0.9339 -1.7785 -1.8351 0
M  V30 42 H -1.5348 -1.414 -0.1952 0
M  V30 43 H -1.6991 1.0346 -0.8345 0
M  V30 44 H -1.0766 0.6497 -2.472 0
M  V30 45 H 0.4136 0.1472 0.2041 0
M  V30 46 H 0.6021 1.5913 -0.8243 0
M  V30 47 H 2.4032 0.4043 -1.6604 0
M  V30 48 H 1.1557 -0.1749 -2.7771 0
M  V30 49 H 1.382 -2.3942 -1.9333 0
M  V30 50 H 2.5732 -3.0147 -4.0E-4 0
M  V30 51 H 2.7557 -1.2764 1.8064 0
M  V30 52 H 2.7601 0.0561 0.6344 0
M  V30 53 H 4.903 -2.169 0.821 0
M  V30 54 H 5.05 -0.5816 1.6032 0
M  V30 55 H 6.2521 -0.9386 -0.7004 0
M  V30 56 H 4.6484 -0.937 -1.4479 0
M  V30 57 H 4.2304 1.4013 -0.4916 0
M  V30 58 H 5.5251 1.2839 -1.7049 0
M  V30 59 H 5.9278 1.4787 1.3578 0
M  V30 60 H 6.0914 2.7802 0.1718 0
M  V30 61 H 8.3055 2.2862 0.0956 0
M  V30 62 H 7.8373 0.9597 -0.9849 0
M  V30 63 H 7.6111 -0.5339 1.1732 0
M  V30 64 H 9.2493 -0.0476 0.6351 0
M  V30 65 H 7.636 1.2863 2.9029 0
M  V30 66 H 9.2555 1.8287 2.3063 0
M  V30 67 H 9.0655 0.2083 3.0669 0
M  V30 END ATOM
M  V30 BEGIN BOND
M  V30 1 2 1 2
M  V30 2 1 2 3
M  V30 3 1 2 4
M  V30 4 1 4 5
M  V30 5 1 5 6
M  V30 6 1 6 7
M  V30 7 1 7 8
M  V30 8 1 8 9
M  V30 9 1 9 10
M  V30 10 1 10 11
M  V30 11 1 11 12
M  V30 12 1 12 13
M  V30 13 1 13 14
M  V30 14 1 14 15
M  V30 15 2 15 16
M  V30 16 1 16 17
M  V30 17 1 17 18
M  V30 18 1 18 19
M  V30 19 1 19 20
M  V30 20 1 20 21
M  V30 21 1 21 22
M  V30 22 1 22 23
M  V30 23 1 23 24
M  V30 24 1 3 25
M  V30 25 1 3 26
M  V30 26 1 4 27
M  V30 27 1 4 28
M  V30 28 1 5 29
M  V30 29 1 5 30
M  V30 30 1 6 31
M  V30 31 1 6 32
M  V30 32 1 7 33
M  V30 33 1 7 34
M  V30 34 1 8 35
M  V30 35 1 8 36
M  V30 36 1 9 37
M  V30 37 1 9 38
M  V30 38 1 10 39
M  V30 39 1 10 40
M  V30 40 1 11 41
M  V30 41 1 11 42
M  V30 42 1 12 43
M  V30 43 1 12 44
M  V30 44 1 13 45
M  V30 45 1 13 46
M  V30 46 1 14 47
M  V30 47 1 14 48
M  V30 48 1 15 49
M  V30 49 1 16 50
M  V30 50 1 17 51
M  V30 51 1 17 52
M  V30 52 1 18 53
M  V30 53 1 18 54
M  V30 54 1 19 55
M  V30 55 1 19 56
M  V30 56 1 20 57
M  V30 57 1 20 58
M  V30 58 1 21 59
M  V30 59 1 21 60
M  V30 60 1 22 61
M  V30 61 1 22 62
M  V30 62 1 23 63
M  V30 63 1 23 64
M  V30 64 1 24 65
M  V30 65 1 24 66
M  V30 66 1 24 67
M  V30 END BOND
M  V30 END CTAB
M  END
>  <Structure No>
1361

>  <LogS>
-6.528392147

>  <MMFF94 Energy>
-24.341

$$$$
Compound 1362
Actelion Java MolfileCreator 2.0

  0  0  0  0  0  0              0 V3000
M  V30 BEGIN CTAB
M  V30 COUNTS 41 43 0 0 0
M  V30 BEGIN ATOM
M  V30 1 O -0.4053 6.7444 2.3526 0
M  V30 2 C -0.8141 6.1191 1.3661 0
M  V30 3 N -1.2347 5.4756 0.3508 0
M  V30 4 C -0.9211 4.0988 0.0887 0
M  V30 5 C -0.1134 3.3349 0.9524 0
M  V30 6 C -1.4445 3.4994 -1.0617 0
M  V30 7 C 0.1658 1.9972 0.6595 0
M  V30 8 C -1.1661 2.162 -1.3556 0
M  V30 9 C -0.3458 1.3971 -0.5082 0
M  V30 10 C -0.0942 -0.0671 -0.8422 0
M  V30 11 C -1.2115 -0.982 -0.3585 0
M  V30 12 C 1.2857 -0.5416 -0.4069 0
M  V30 13 C -1.5159 -2.14 -1.095 0
M  V30 14 C -1.9107 -0.7405 0.8409 0
M  V30 15 C 2.3903 -0.2917 -1.2396 0
M  V30 16 C 1.5043 -1.1687 0.8359 0
M  V30 17 C -2.5126 -3.0193 -0.6629 0
M  V30 18 C -2.9071 -1.6205 1.2718 0
M  V30 19 C 3.6759 -0.6836 -0.8568 0
M  V30 20 C 2.7903 -1.5602 1.2176 0
M  V30 21 C -3.2199 -2.7626 0.527 0
M  V30 22 C 3.8848 -1.3259 0.3785 0
M  V30 23 N -4.2507 -3.6383 1.0101 0
M  V30 24 N 5.1878 -1.745 0.8137 0
M  V30 25 C -4.6146 -4.7034 0.4143 0
M  V30 26 C 6.251 -1.581 0.1322 0
M  V30 27 O -4.9685 -5.7384 -0.1645 0
M  V30 28 O 7.2843 -1.4216 -0.5299 0
M  V30 29 H 0.2976 3.7671 1.8556 0
M  V30 30 H -2.0746 4.0714 -1.7315 0
M  V30 31 H 0.774 1.4342 1.3539 0
M  V30 32 H -1.5943 1.7208 -2.2473 0
M  V30 33 H -0.1042 -0.1335 -1.9548 0
M  V30 34 H -0.9777 -2.3648 -2.0076 0
M  V30 35 H -1.6848 0.1212 1.4535 0
M  V30 36 H 2.2562 0.2112 -2.1895 0
M  V30 37 H 0.6868 -1.3499 1.5198 0
M  V30 38 H -2.7251 -3.8987 -1.2569 0
M  V30 39 H -3.4356 -1.4149 2.1947 0
M  V30 40 H 4.5032 -0.4803 -1.5244 0
M  V30 41 H 2.9367 -2.044 2.1754 0
M  V30 END ATOM
M  V30 BEGIN BOND
M  V30 1 2 1 2
M  V30 2 2 2 3
M  V30 3 1 3 4
M  V30 4 2 4 5
M  V30 5 1 4 6
M  V30 6 1 5 7
M  V30 7 2 6 8
M  V30 8 2 7 9
M  V30 9 1 9 10
M  V30 10 1 10 11
M  V30 11 1 10 12
M  V30 12 2 11 13
M  V30 13 1 11 14
M  V30 14 2 12 15
M  V30 15 1 12 16
M  V30 16 1 13 17
M  V30 17 2 14 18
M  V30 18 1 15 19
M  V30 19 2 16 20
M  V30 20 2 17 21
M  V30 21 2 19 22
M  V30 22 1 21 23
M  V30 23 1 22 24
M  V30 24 2 23 25
M  V30 25 2 24 26
M  V30 26 2 25 27
M  V30 27 2 26 28
M  V30 28 1 8 9
M  V30 29 1 18 21
M  V30 30 1 20 22
M  V30 31 1 5 29
M  V30 32 1 6 30
M  V30 33 1 7 31
M  V30 34 1 8 32
M  V30 35 1 10 33
M  V30 36 1 13 34
M  V30 37 1 14 35
M  V30 38 1 15 36
M  V30 39 1 16 37
M  V30 40 1 17 38
M  V30 41 1 18 39
M  V30 42 1 19 40
M  V30 43 1 20 41
M  V30 END BOND
M  V30 END CTAB
M  END
>  <Structure No>
1362

>  <LogS>
-6.565096595

>  <MMFF94 Energy>
68.185

$$$$
Compound 1363
Actelion Java MolfileCreator 2.0

  0  0  0  0  0  0              0 V3000
M  V30 BEGIN CTAB
M  V30 COUNTS 72 72 0 0 0
M  V30 BEGIN ATOM
M  V30 1 O -1.1818 -2.3647 -1.8914 0
M  V30 2 C -1.6503 -1.4137 -1.2072 0
M  V30 3 O -2.8208 -0.7665 -1.6122 0
M  V30 4 C -1.0079 -1.0166 0.0654 0
M  V30 5 C -3.5343 -1.1196 -2.7931 0
M  V30 6 C 0.3973 -1.0835 0.281 0
M  V30 7 C -1.844 -0.6132 1.1226 0
M  V30 8 C -4.7873 -0.2531 -2.9164 0
M  V30 9 C 1.3681 -1.3689 -0.8003 0
M  V30 10 C 0.9061 -0.8076 1.564 0
M  V30 11 C -1.3152 -0.3243 2.3809 0
M  V30 12 C -5.7715 -0.5224 -1.7698 0
M  V30 13 O 1.1329 -1.001 -1.9844 0
M  V30 14 O 2.5803 -1.993 -0.4877 0
M  V30 15 C 0.0551 -0.4316 2.6036 0
M  V30 16 C -6.9701 0.4353 -1.8351 0
M  V30 17 C 3.5665 -2.2984 -1.4686 0
M  V30 18 C -8.0659 0.0947 -0.8082 0
M  V30 19 C 4.808 -2.894 -0.7986 0
M  V30 20 C -7.6044 0.0784 0.6643 0
M  V30 21 C 5.451 -1.9565 0.2385 0
M  V30 22 C -6.9411 1.3865 1.1612 0
M  V30 23 C 6.1179 -0.7316 -0.4056 0
M  V30 24 C -7.9024 2.5821 1.0836 0
M  V30 25 C -6.4489 1.2038 2.6032 0
M  V30 26 C 6.8636 0.1056 0.6414 0
M  V30 27 C 7.5295 1.3294 -0.0131 0
M  V30 28 C 8.3223 2.23 0.9631 0
M  V30 29 C 7.4253 2.8711 2.0308 0
M  V30 30 C 9.5056 1.4967 1.6096 0
M  V30 31 H -2.8865 -0.95 -3.6799 0
M  V30 32 H -3.8194 -2.194 -2.758 0
M  V30 33 H -2.9171 -0.551 0.9838 0
M  V30 34 H -4.4862 0.8177 -2.9139 0
M  V30 35 H -5.2822 -0.4724 -3.8874 0
M  V30 36 H 1.9717 -0.8519 1.7564 0
M  V30 37 H -1.9718 -0.027 3.1881 0
M  V30 38 H -5.2459 -0.3852 -0.8013 0
M  V30 39 H -6.1297 -1.5734 -1.8324 0
M  V30 40 H 0.4611 -0.2103 3.582 0
M  V30 41 H -7.4256 0.3751 -2.848 0
M  V30 42 H -6.6279 1.4835 -1.6948 0
M  V30 43 H 3.1521 -3.041 -2.1847 0
M  V30 44 H 3.8353 -1.3846 -2.0394 0
M  V30 45 H -8.4808 -0.908 -1.0524 0
M  V30 46 H -8.9031 0.8159 -0.9251 0
M  V30 47 H 4.5124 -3.8359 -0.2874 0
M  V30 48 H 5.5542 -3.1591 -1.5784 0
M  V30 49 H -6.9018 -0.7707 0.8089 0
M  V30 50 H -8.4925 -0.141 1.2978 0
M  V30 51 H 6.2238 -2.5367 0.7891 0
M  V30 52 H 4.69 -1.6277 0.9803 0
M  V30 53 H -6.047 1.611 0.5406 0
M  V30 54 H 6.8365 -1.0707 -1.1847 0
M  V30 55 H 5.3454 -0.0951 -0.8881 0
M  V30 56 H -8.8492 2.3595 1.6228 0
M  V30 57 H -7.436 3.4833 1.539 0
M  V30 58 H -8.1345 2.8278 0.0256 0
M  V30 59 H -5.7172 0.3687 2.6558 0
M  V30 60 H -5.9402 2.1268 2.9576 0
M  V30 61 H -7.3002 0.9792 3.2828 0
M  V30 62 H 6.139 0.4394 1.4147 0
M  V30 63 H 7.6359 -0.5299 1.1251 0
M  V30 64 H 6.7471 1.9457 -0.5084 0
M  V30 65 H 8.2205 0.9806 -0.8123 0
M  V30 66 H 8.7472 3.0598 0.3546 0
M  V30 67 H 7.0622 2.1145 2.758 0
M  V30 68 H 7.9974 3.6425 2.5893 0
M  V30 69 H 6.5523 3.3659 1.555 0
M  V30 70 H 9.1582 0.746 2.352 0
M  V30 71 H 10.1578 2.2276 2.1359 0
M  V30 72 H 10.1142 0.9862 0.8324 0
M  V30 END ATOM
M  V30 BEGIN BOND
M  V30 1 2 1 2
M  V30 2 1 2 3
M  V30 3 1 2 4
M  V30 4 1 3 5
M  V30 5 2 4 6
M  V30 6 1 4 7
M  V30 7 1 5 8
M  V30 8 1 6 9
M  V30 9 1 6 10
M  V30 10 2 7 11
M  V30 11 1 8 12
M  V30 12 2 9 13
M  V30 13 1 9 14
M  V30 14 2 10 15
M  V30 15 1 12 16
M  V30 16 1 14 17
M  V30 17 1 16 18
M  V30 18 1 17 19
M  V30 19 1 18 20
M  V30 20 1 19 21
M  V30 21 1 20 22
M  V30 22 1 21 23
M  V30 23 1 22 24
M  V30 24 1 22 25
M  V30 25 1 23 26
M  V30 26 1 26 27
M  V30 27 1 27 28
M  V30 28 1 28 29
M  V30 29 1 28 30
M  V30 30 1 11 15
M  V30 31 1 5 31
M  V30 32 1 5 32
M  V30 33 1 7 33
M  V30 34 1 8 34
M  V30 35 1 8 35
M  V30 36 1 10 36
M  V30 37 1 11 37
M  V30 38 1 12 38
M  V30 39 1 12 39
M  V30 40 1 15 40
M  V30 41 1 16 41
M  V30 42 1 16 42
M  V30 43 1 17 43
M  V30 44 1 17 44
M  V30 45 1 18 45
M  V30 46 1 18 46
M  V30 47 1 19 47
M  V30 48 1 19 48
M  V30 49 1 20 49
M  V30 50 1 20 50
M  V30 51 1 21 51
M  V30 52 1 21 52
M  V30 53 1 22 53
M  V30 54 1 23 54
M  V30 55 1 23 55
M  V30 56 1 24 56
M  V30 57 1 24 57
M  V30 58 1 24 58
M  V30 59 1 25 59
M  V30 60 1 25 60
M  V30 61 1 25 61
M  V30 62 1 26 62
M  V30 63 1 26 63
M  V30 64 1 27 64
M  V30 65 1 27 65
M  V30 66 1 28 66
M  V30 67 1 29 67
M  V30 68 1 29 68
M  V30 69 1 29 69
M  V30 70 1 30 70
M  V30 71 1 30 71
M  V30 72 1 30 72
M  V30 END BOND
M  V30 END CTAB
M  END
>  <Structure No>
1363

>  <LogS>
-6.621817899

>  <MMFF94 Energy>
27.645

$$$$
Compound 1364
Actelion Java MolfileCreator 2.0

  0  0  0  0  0  0              0 V3000
M  V30 BEGIN CTAB
M  V30 COUNTS 68 67 0 0 0
M  V30 BEGIN ATOM
M  V30 1 O -2.2745 -2.039 -2.039 0
M  V30 2 C -2.6045 -2.4055 -0.878 0
M  V30 3 O -3.7901 -1.9498 -0.2963 0
M  V30 4 C -1.6997 -3.3059 -0.0959 0
M  V30 5 C -4.6451 -1.0049 -0.9344 0
M  V30 6 C -0.887 -2.521 0.9419 0
M  V30 7 C -5.8943 -0.7415 -0.0679 0 CFG=1
M  V30 8 C 0.1431 -1.5905 0.2859 0
M  V30 9 C -6.8057 0.3416 -0.7103 0
M  V30 10 C -6.6793 -2.0635 0.136 0
M  V30 11 C 0.9701 -0.8517 1.3409 0
M  V30 12 C -6.172 1.7378 -0.8694 0
M  V30 13 C -7.7286 -1.9755 1.2469 0
M  V30 14 C 1.9614 0.0509 0.6791 0
M  V30 15 C -5.7581 2.3649 0.4702 0
M  V30 16 O 1.6653 1.2578 0.4625 0
M  V30 17 O 3.1879 -0.4697 0.2589 0
M  V30 18 C -5.3228 3.8159 0.2869 0
M  V30 19 C 4.151 0.305 -0.4497 0
M  V30 20 C 5.4033 -0.5471 -0.7475 0 CFG=1
M  V30 21 C 6.5086 0.1423 -1.6176 0
M  V30 22 C 5.9789 -1.2388 0.5159 0
M  V30 23 C 6.4088 1.6679 -1.8596 0
M  V30 24 C 6.5149 -0.2848 1.5825 0
M  V30 25 C 6.8954 2.5413 -0.6906 0
M  V30 26 C 8.4191 2.5671 -0.5673 0
M  V30 27 H -1.0167 -3.8552 -0.7805 0
M  V30 28 H -2.3229 -4.0603 0.4303 0
M  V30 29 H -4.0676 -0.0674 -1.0736 0
M  V30 30 H -4.9514 -1.3891 -1.9328 0
M  V30 31 H -1.5753 -1.9307 1.5868 0
M  V30 32 H -0.3547 -3.2504 1.5908 0
M  V30 33 H -5.5507 -0.3926 0.9291 0
M  V30 34 H 0.8219 -2.1904 -0.3601 0
M  V30 35 H -0.3811 -0.8436 -0.3496 0
M  V30 36 H -7.1288 -0.0074 -1.7155 0
M  V30 37 H -7.726 0.4684 -0.1022 0
M  V30 38 H -7.1723 -2.3685 -0.8134 0
M  V30 39 H -5.9792 -2.8786 0.4196 0
M  V30 40 H 0.3009 -0.2528 1.9965 0
M  V30 41 H 1.5154 -1.5837 1.9748 0
M  V30 42 H -5.3054 1.7034 -1.5623 0
M  V30 43 H -6.9315 2.3935 -1.3491 0
M  V30 44 H -7.277 -1.5792 2.1812 0
M  V30 45 H -8.1306 -2.9901 1.4549 0
M  V30 46 H -8.5787 -1.332 0.9437 0
M  V30 47 H -6.6118 2.3322 1.182 0
M  V30 48 H -4.9079 1.8014 0.909 0
M  V30 49 H -6.1545 4.4211 -0.1339 0
M  V30 50 H -5.0363 4.2445 1.2707 0
M  V30 51 H -4.4457 3.8725 -0.3937 0
M  V30 52 H 3.6929 0.6324 -1.4078 0
M  V30 53 H 4.4096 1.2021 0.1471 0
M  V30 54 H 5.0225 -1.3907 -1.3683 0
M  V30 55 H 6.4725 -0.329 -2.6246 0
M  V30 56 H 7.5206 -0.1079 -1.2379 0
M  V30 57 H 5.1945 -1.8755 0.9798 0
M  V30 58 H 6.7988 -1.9263 0.2127 0
M  V30 59 H 7.0188 1.9171 -2.7557 0
M  V30 60 H 5.3735 1.9561 -2.1302 0
M  V30 61 H 5.7276 0.4188 1.9219 0
M  V30 62 H 6.8486 -0.8738 2.4623 0
M  V30 63 H 7.3903 0.2752 1.2008 0
M  V30 64 H 6.4486 2.2161 0.2675 0
M  V30 65 H 6.5512 3.583 -0.8699 0
M  V30 66 H 8.7105 3.2605 0.2495 0
M  V30 67 H 8.8782 2.9253 -1.5132 0
M  V30 68 H 8.8186 1.5619 -0.3259 0
M  V30 END ATOM
M  V30 BEGIN BOND
M  V30 1 2 1 2
M  V30 2 1 2 3
M  V30 3 1 2 4
M  V30 4 1 3 5
M  V30 5 1 4 6
M  V30 6 1 5 7
M  V30 7 1 6 8
M  V30 8 1 7 9
M  V30 9 1 7 10
M  V30 10 1 8 11
M  V30 11 1 9 12
M  V30 12 1 10 13
M  V30 13 1 11 14
M  V30 14 1 12 15
M  V30 15 2 14 16
M  V30 16 1 14 17
M  V30 17 1 15 18
M  V30 18 1 17 19
M  V30 19 1 19 20
M  V30 20 1 20 21
M  V30 21 1 20 22
M  V30 22 1 21 23
M  V30 23 1 22 24
M  V30 24 1 23 25
M  V30 25 1 25 26
M  V30 26 1 4 27
M  V30 27 1 4 28
M  V30 28 1 5 29
M  V30 29 1 5 30
M  V30 30 1 6 31
M  V30 31 1 6 32
M  V30 32 1 7 33
M  V30 33 1 8 34
M  V30 34 1 8 35
M  V30 35 1 9 36
M  V30 36 1 9 37
M  V30 37 1 10 38
M  V30 38 1 10 39
M  V30 39 1 11 40
M  V30 40 1 11 41
M  V30 41 1 12 42
M  V30 42 1 12 43
M  V30 43 1 13 44
M  V30 44 1 13 45
M  V30 45 1 13 46
M  V30 46 1 15 47
M  V30 47 1 15 48
M  V30 48 1 18 49
M  V30 49 1 18 50
M  V30 50 1 18 51
M  V30 51 1 19 52
M  V30 52 1 19 53
M  V30 53 1 20 54
M  V30 54 1 21 55
M  V30 55 1 21 56
M  V30 56 1 22 57
M  V30 57 1 22 58
M  V30 58 1 23 59
M  V30 59 1 23 60
M  V30 60 1 24 61
M  V30 61 1 24 62
M  V30 62 1 24 63
M  V30 63 1 25 64
M  V30 64 1 25 65
M  V30 65 1 26 66
M  V30 66 1 26 67
M  V30 67 1 26 68
M  V30 END BOND
M  V30 BEGIN COLLECTION
M  V30 MDLV30/STEABS ATOMS=(2 7 20)
M  V30 END COLLECTION
M  V30 END CTAB
M  END
>  <Structure No>
1364

>  <LogS>
-6.568874945

>  <MMFF94 Energy>
-7.3909

$$$$
Compound 1365
Actelion Java MolfileCreator 2.0

  0  0  0  0  0  0              0 V3000
M  V30 BEGIN CTAB
M  V30 COUNTS 80 79 0 0 0
M  V30 BEGIN ATOM
M  V30 1 O -1.6464 1.9603 0.1567 0
M  V30 2 C -1.362 1.6914 1.3556 0
M  V30 3 O -2.0373 0.6749 2.0399 0
M  V30 4 C -0.2659 2.4431 2.045 0
M  V30 5 C -3.1158 -0.0652 1.4725 0
M  V30 6 C 0.9855 1.5763 2.2483 0
M  V30 7 C -4.4075 0.7616 1.5079 0
M  V30 8 C 1.6018 1.0328 0.9429 0
M  V30 9 C -5.5479 0.1132 0.7095 0
M  V30 10 C 2.0573 2.1182 -0.0458 0
M  V30 11 C -6.0425 -1.1999 1.3405 0
M  V30 12 C 3.0713 3.0453 0.5513 0
M  V30 13 C -7.351 -1.698 0.7066 0
M  V30 14 O 2.9039 4.2926 0.4714 0
M  V30 15 O 4.2091 2.5152 1.1677 0
M  V30 16 C -7.1674 -2.1409 -0.7549 0
M  V30 17 C 5.291 3.3133 1.6451 0
M  V30 18 C -8.4016 -2.867 -1.3221 0
M  V30 19 C 6.1421 3.8597 0.4877 0
M  V30 20 C -9.7002 -2.0246 -1.353 0
M  V30 21 C 6.5081 2.7994 -0.5653 0
M  V30 22 C -9.5468 -0.7515 -2.1989 0
M  V30 23 C -10.8569 -2.8734 -1.8966 0
M  V30 24 C 7.3094 1.6278 0.0262 0
M  V30 25 C 7.9071 0.7013 -1.0494 0
M  V30 26 C 6.8649 -0.0474 -1.9041 0
M  V30 27 C 6.0958 -1.1445 -1.1305 0
M  V30 28 C 6.539 -2.5797 -1.4952 0
M  V30 29 C 7.9792 -2.8628 -1.0439 0
M  V30 30 C 5.5837 -3.6013 -0.8653 0
M  V30 31 H -0.6377 2.7703 3.0397 0
M  V30 32 H -0.0111 3.3633 1.4775 0
M  V30 33 H -2.8635 -0.3665 0.4319 0
M  V30 34 H -3.2539 -0.9883 2.0733 0
M  V30 35 H 0.7232 0.7137 2.899 0
M  V30 36 H 1.747 2.1701 2.7983 0
M  V30 37 H -4.21 1.764 1.0701 0
M  V30 38 H -4.7221 0.9155 2.5635 0
M  V30 39 H 0.868 0.3714 0.4338 0
M  V30 40 H 2.4752 0.396 1.2049 0
M  V30 41 H -5.2054 -0.0682 -0.3312 0
M  V30 42 H -6.3903 0.8374 0.6673 0
M  V30 43 H 1.1806 2.6904 -0.4173 0
M  V30 44 H 2.5198 1.623 -0.9267 0
M  V30 45 H -6.2278 -1.0358 2.4242 0
M  V30 46 H -5.2639 -1.9867 1.2457 0
M  V30 47 H -8.113 -0.8924 0.7708 0
M  V30 48 H -7.7176 -2.5616 1.3031 0
M  V30 49 H -6.3078 -2.8438 -0.8118 0
M  V30 50 H -6.9165 -1.2713 -1.3962 0
M  V30 51 H 4.904 4.1541 2.2607 0
M  V30 52 H 5.9264 2.6886 2.3062 0
M  V30 53 H -8.5765 -3.7836 -0.7165 0
M  V30 54 H -8.1604 -3.2018 -2.3551 0
M  V30 55 H 5.5808 4.675 -0.0171 0
M  V30 56 H 7.0713 4.3085 0.9014 0
M  V30 57 H -9.9729 -1.7293 -0.317 0
M  V30 58 H 7.1108 3.2937 -1.3577 0
M  V30 59 H 5.5751 2.4263 -1.0362 0
M  V30 60 H -9.1768 -0.9977 -3.2174 0
M  V30 61 H -8.8422 -0.044 -1.7152 0
M  V30 62 H -10.5237 -0.2305 -2.2907 0
M  V30 63 H -10.995 -3.7814 -1.2715 0
M  V30 64 H -10.6559 -3.1864 -2.9436 0
M  V30 65 H -11.8047 -2.2938 -1.8716 0
M  V30 66 H 6.6687 1.0453 0.7178 0
M  V30 67 H 8.1525 2.0372 0.6248 0
M  V30 68 H 8.5727 -0.0351 -0.5523 0
M  V30 69 H 8.5487 1.3084 -1.7243 0
M  V30 70 H 7.3871 -0.49 -2.7794 0
M  V30 71 H 6.1444 0.6761 -2.3375 0
M  V30 72 H 5.0174 -1.0379 -1.3815 0
M  V30 73 H 6.1753 -1.0057 -0.0323 0
M  V30 74 H 6.4841 -2.7062 -2.599 0
M  V30 75 H 8.6944 -2.2225 -1.5999 0
M  V30 76 H 8.093 -2.6741 0.0453 0
M  V30 77 H 8.2478 -3.9206 -1.2533 0
M  V30 78 H 5.8798 -4.6339 -1.151 0
M  V30 79 H 5.5965 -3.5183 0.2428 0
M  V30 80 H 4.5467 -3.4309 -1.2252 0
M  V30 END ATOM
M  V30 BEGIN BOND
M  V30 1 2 1 2
M  V30 2 1 2 3
M  V30 3 1 2 4
M  V30 4 1 3 5
M  V30 5 1 4 6
M  V30 6 1 5 7
M  V30 7 1 6 8
M  V30 8 1 7 9
M  V30 9 1 8 10
M  V30 10 1 9 11
M  V30 11 1 10 12
M  V30 12 1 11 13
M  V30 13 2 12 14
M  V30 14 1 12 15
M  V30 15 1 13 16
M  V30 16 1 15 17
M  V30 17 1 16 18
M  V30 18 1 17 19
M  V30 19 1 18 20
M  V30 20 1 19 21
M  V30 21 1 20 22
M  V30 22 1 20 23
M  V30 23 1 21 24
M  V30 24 1 24 25
M  V30 25 1 25 26
M  V30 26 1 26 27
M  V30 27 1 27 28
M  V30 28 1 28 29
M  V30 29 1 28 30
M  V30 30 1 4 31
M  V30 31 1 4 32
M  V30 32 1 5 33
M  V30 33 1 5 34
M  V30 34 1 6 35
M  V30 35 1 6 36
M  V30 36 1 7 37
M  V30 37 1 7 38
M  V30 38 1 8 39
M  V30 39 1 8 40
M  V30 40 1 9 41
M  V30 41 1 9 42
M  V30 42 1 10 43
M  V30 43 1 10 44
M  V30 44 1 11 45
M  V30 45 1 11 46
M  V30 46 1 13 47
M  V30 47 1 13 48
M  V30 48 1 16 49
M  V30 49 1 16 50
M  V30 50 1 17 51
M  V30 51 1 17 52
M  V30 52 1 18 53
M  V30 53 1 18 54
M  V30 54 1 19 55
M  V30 55 1 19 56
M  V30 56 1 20 57
M  V30 57 1 21 58
M  V30 58 1 21 59
M  V30 59 1 22 60
M  V30 60 1 22 61
M  V30 61 1 22 62
M  V30 62 1 23 63
M  V30 63 1 23 64
M  V30 64 1 23 65
M  V30 65 1 24 66
M  V30 66 1 24 67
M  V30 67 1 25 68
M  V30 68 1 25 69
M  V30 69 1 26 70
M  V30 70 1 26 71
M  V30 71 1 27 72
M  V30 72 1 27 73
M  V30 73 1 28 74
M  V30 74 1 29 75
M  V30 75 1 29 76
M  V30 76 1 29 77
M  V30 77 1 30 78
M  V30 78 1 30 79
M  V30 79 1 30 80
M  V30 END BOND
M  V30 END CTAB
M  END
>  <Structure No>
1365

>  <LogS>
-6.630104322

>  <MMFF94 Energy>
-13.155

$$$$
Compound 1366
Actelion Java MolfileCreator 2.0

  0  0  0  0  0  0              0 V3000
M  V30 BEGIN CTAB
M  V30 COUNTS 74 73 0 0 0
M  V30 BEGIN ATOM
M  V30 1 O -3.0601 1.1761 -0.7839 0
M  V30 2 C -2.7856 0.1275 -0.1345 0
M  V30 3 O -3.8072 -0.6529 0.4166 0
M  V30 4 C -1.3567 -0.2491 0.127 0
M  V30 5 C -5.1946 -0.3978 0.1989 0
M  V30 6 C -0.4245 0.1757 -1.0188 0
M  V30 7 C -5.6294 -0.9579 -1.1599 0
M  V30 8 C 1.0051 -0.364 -0.8554 0
M  V30 9 C -7.0534 -0.5335 -1.5496 0
M  V30 10 C 1.6983 0.1706 0.4065 0
M  V30 11 C -8.1296 -1.167 -0.6482 0
M  V30 12 C 3.1623 -0.1392 0.3899 0
M  V30 13 C -9.555 -0.8805 -1.1543 0
M  V30 14 O 3.5506 -1.3374 0.3441 0
M  V30 15 O 4.0846 0.9114 0.4512 0
M  V30 16 C -10.0257 0.566 -0.8708 0
M  V30 17 C 5.4985 0.7267 0.4541 0
M  V30 18 C -11.0468 0.6635 0.2872 0
M  V30 19 C 5.9674 0.151 1.7981 0
M  V30 20 C -10.4057 0.3176 1.6399 0
M  V30 21 C -11.6504 2.074 0.3408 0
M  V30 22 C 7.4931 0.2542 2.007 0
M  V30 23 C 8.2816 -1.0011 1.5793 0
M  V30 24 C 8.3383 -1.2681 0.0637 0
M  V30 25 C 8.866 -0.098 -0.7948 0
M  V30 26 C 10.279 0.4085 -0.4157 0
M  V30 27 C 11.3508 -0.6746 -0.6154 0
M  V30 28 C 10.63 1.6458 -1.2536 0
M  V30 29 H -1.2985 -1.3511 0.2639 0
M  V30 30 H -1.0432 0.2419 1.0719 0
M  V30 31 H -5.7684 -0.9003 1.0042 0
M  V30 32 H -5.3985 0.693 0.2615 0
M  V30 33 H -0.3919 1.2859 -1.0857 0
M  V30 34 H -0.832 -0.2095 -1.98 0
M  V30 35 H -4.9317 -0.5855 -1.9425 0
M  V30 36 H -5.554 -2.0671 -1.1441 0
M  V30 37 H 1.5889 -0.0563 -1.7518 0
M  V30 38 H 0.9835 -1.4756 -0.8321 0
M  V30 39 H -7.1261 0.5743 -1.5252 0
M  V30 40 H -7.226 -0.8556 -2.6 0
M  V30 41 H 1.2545 -0.2911 1.3141 0
M  V30 42 H 1.562 1.2722 0.4715 0
M  V30 43 H -7.9832 -2.269 -0.635 0
M  V30 44 H -8.0233 -0.7981 0.3916 0
M  V30 45 H -9.5963 -1.0753 -2.2485 0
M  V30 46 H -10.2528 -1.6126 -0.6925 0
M  V30 47 H -10.509 0.9473 -1.798 0
M  V30 48 H -9.1657 1.2416 -0.6685 0
M  V30 49 H 5.783 0.0685 -0.3907 0
M  V30 50 H 5.9694 1.7198 0.2901 0
M  V30 51 H -11.8777 -0.0493 0.096 0
M  V30 52 H 5.6309 -0.9016 1.9038 0
M  V30 53 H 5.4709 0.7342 2.6034 0
M  V30 54 H -10.102 -0.7504 1.6636 0
M  V30 55 H -11.1344 0.4738 2.4635 0
M  V30 56 H -9.5149 0.9541 1.8268 0
M  V30 57 H -12.4245 2.1283 1.1354 0
M  V30 58 H -10.8624 2.8272 0.5523 0
M  V30 59 H -12.1365 2.3261 -0.6259 0
M  V30 60 H 7.6686 0.3785 3.0991 0
M  V30 61 H 7.9074 1.17 1.5353 0
M  V30 62 H 9.3184 -0.9178 1.9688 0
M  V30 63 H 7.8397 -1.8922 2.0787 0
M  V30 64 H 8.9717 -2.1636 -0.1125 0
M  V30 65 H 7.3268 -1.5533 -0.2918 0
M  V30 66 H 8.1462 0.7456 -0.7369 0
M  V30 67 H 8.8714 -0.4265 -1.857 0
M  V30 68 H 10.2881 0.724 0.6498 0
M  V30 69 H 12.3609 -0.2571 -0.4131 0
M  V30 70 H 11.3271 -1.0611 -1.6566 0
M  V30 71 H 11.1942 -1.516 0.0907 0
M  V30 72 H 9.8739 2.4448 -1.0995 0
M  V30 73 H 11.619 2.0499 -0.9492 0
M  V30 74 H 10.6665 1.3882 -2.3329 0
M  V30 END ATOM
M  V30 BEGIN BOND
M  V30 1 2 1 2
M  V30 2 1 2 3
M  V30 3 1 2 4
M  V30 4 1 3 5
M  V30 5 1 4 6
M  V30 6 1 5 7
M  V30 7 1 6 8
M  V30 8 1 7 9
M  V30 9 1 8 10
M  V30 10 1 9 11
M  V30 11 1 10 12
M  V30 12 1 11 13
M  V30 13 2 12 14
M  V30 14 1 12 15
M  V30 15 1 13 16
M  V30 16 1 15 17
M  V30 17 1 16 18
M  V30 18 1 17 19
M  V30 19 1 18 20
M  V30 20 1 18 21
M  V30 21 1 19 22
M  V30 22 1 22 23
M  V30 23 1 23 24
M  V30 24 1 24 25
M  V30 25 1 25 26
M  V30 26 1 26 27
M  V30 27 1 26 28
M  V30 28 1 4 29
M  V30 29 1 4 30
M  V30 30 1 5 31
M  V30 31 1 5 32
M  V30 32 1 6 33
M  V30 33 1 6 34
M  V30 34 1 7 35
M  V30 35 1 7 36
M  V30 36 1 8 37
M  V30 37 1 8 38
M  V30 38 1 9 39
M  V30 39 1 9 40
M  V30 40 1 10 41
M  V30 41 1 10 42
M  V30 42 1 11 43
M  V30 43 1 11 44
M  V30 44 1 13 45
M  V30 45 1 13 46
M  V30 46 1 16 47
M  V30 47 1 16 48
M  V30 48 1 17 49
M  V30 49 1 17 50
M  V30 50 1 18 51
M  V30 51 1 19 52
M  V30 52 1 19 53
M  V30 53 1 20 54
M  V30 54 1 20 55
M  V30 55 1 20 56
M  V30 56 1 21 57
M  V30 57 1 21 58
M  V30 58 1 21 59
M  V30 59 1 22 60
M  V30 60 1 22 61
M  V30 61 1 23 62
M  V30 62 1 23 63
M  V30 63 1 24 64
M  V30 64 1 24 65
M  V30 65 1 25 66
M  V30 66 1 25 67
M  V30 67 1 26 68
M  V30 68 1 27 69
M  V30 69 1 27 70
M  V30 70 1 27 71
M  V30 71 1 28 72
M  V30 72 1 28 73
M  V30 73 1 28 74
M  V30 END BOND
M  V30 END CTAB
M  END
>  <Structure No>
1366

>  <LogS>
-6.600567801

>  <MMFF94 Energy>
-10.377

$$$$
Compound 1367
Actelion Java MolfileCreator 2.0

  0  0  0  0  0  0              0 V3000
M  V30 BEGIN CTAB
M  V30 COUNTS 51 50 0 0 0
M  V30 BEGIN ATOM
M  V30 1 O -0.6991 0.3106 2.1762 0
M  V30 2 C -1.143 1.3258 1.2971 0
M  V30 3 C -0.0682 -0.7393 1.4663 0
M  V30 4 C -2.1718 2.2122 2.0065 0
M  V30 5 C 1.3843 -0.3878 1.0876 0
M  V30 6 C -3.3736 1.4356 2.5805 0
M  V30 7 C 1.5282 -0.0668 -0.4101 0
M  V30 8 C -4.1581 0.6025 1.5511 0
M  V30 9 C 2.9211 0.474 -0.769 0
M  V30 10 C -4.7556 1.4587 0.4217 0
M  V30 11 C 4.0178 -0.5961 -0.6639 0
M  V30 12 C -5.7546 0.6799 -0.4527 0
M  V30 13 C 5.3629 -0.054 -1.162 0
M  V30 14 C -5.156 -0.5292 -1.1939 0
M  V30 15 C 6.4615 -1.1169 -1.046 0
M  V30 16 C -4.0435 -0.144 -2.1686 0
M  V30 17 C 7.8015 -0.5812 -1.542 0
M  V30 18 H -0.2827 1.9689 1.0111 0
M  V30 19 H -1.6008 0.9239 0.3653 0
M  V30 20 H -0.665 -1.0834 0.5898 0
M  V30 21 H -0.0375 -1.6144 2.1501 0
M  V30 22 H -2.5273 2.9968 1.305 0
M  V30 23 H -1.6656 2.7375 2.8456 0
M  V30 24 H 2.03 -1.2594 1.3285 0
M  V30 25 H 1.7381 0.4698 1.701 0
M  V30 26 H -3.015 0.7563 3.3841 0
M  V30 27 H -4.0662 2.1614 3.06 0
M  V30 28 H 1.3126 -0.9778 -1.0106 0
M  V30 29 H 0.7815 0.7023 -0.6986 0
M  V30 30 H -3.4986 -0.1854 1.1325 0
M  V30 31 H -4.9838 0.0878 2.0894 0
M  V30 32 H 3.1697 1.3371 -0.1129 0
M  V30 33 H 2.8831 0.8478 -1.8159 0
M  V30 34 H -3.9488 1.8755 -0.2157 0
M  V30 35 H -5.2975 2.3197 0.8709 0
M  V30 36 H 3.731 -1.4815 -1.2731 0
M  V30 37 H 4.1294 -0.9135 0.3948 0
M  V30 38 H -6.5927 0.3249 0.1858 0
M  V30 39 H -6.1908 1.3789 -1.1994 0
M  V30 40 H 5.647 0.8361 -0.558 0
M  V30 41 H 5.2639 0.257 -2.2255 0
M  V30 42 H -4.7771 -1.2825 -0.4717 0
M  V30 43 H -5.9709 -1.0161 -1.7723 0
M  V30 44 H 6.1853 -2.009 -1.6496 0
M  V30 45 H 6.5704 -1.4299 0.0154 0
M  V30 46 H -3.1373 0.1844 -1.6186 0
M  V30 47 H -4.3831 0.6681 -2.846 0
M  V30 48 H -3.7699 -1.0269 -2.7836 0
M  V30 49 H 7.7271 -0.2847 -2.6101 0
M  V30 50 H 8.1133 0.2975 -0.9381 0
M  V30 51 H 8.5762 -1.3709 -1.4459 0
M  V30 END ATOM
M  V30 BEGIN BOND
M  V30 1 1 1 2
M  V30 2 1 1 3
M  V30 3 1 2 4
M  V30 4 1 3 5
M  V30 5 1 4 6
M  V30 6 1 5 7
M  V30 7 1 6 8
M  V30 8 1 7 9
M  V30 9 1 8 10
M  V30 10 1 9 11
M  V30 11 1 10 12
M  V30 12 1 11 13
M  V30 13 1 12 14
M  V30 14 1 13 15
M  V30 15 1 14 16
M  V30 16 1 15 17
M  V30 17 1 2 18
M  V30 18 1 2 19
M  V30 19 1 3 20
M  V30 20 1 3 21
M  V30 21 1 4 22
M  V30 22 1 4 23
M  V30 23 1 5 24
M  V30 24 1 5 25
M  V30 25 1 6 26
M  V30 26 1 6 27
M  V30 27 1 7 28
M  V30 28 1 7 29
M  V30 29 1 8 30
M  V30 30 1 8 31
M  V30 31 1 9 32
M  V30 32 1 9 33
M  V30 33 1 10 34
M  V30 34 1 10 35
M  V30 35 1 11 36
M  V30 36 1 11 37
M  V30 37 1 12 38
M  V30 38 1 12 39
M  V30 39 1 13 40
M  V30 40 1 13 41
M  V30 41 1 14 42
M  V30 42 1 14 43
M  V30 43 1 15 44
M  V30 44 1 15 45
M  V30 45 1 16 46
M  V30 46 1 16 47
M  V30 47 1 16 48
M  V30 48 1 17 49
M  V30 49 1 17 50
M  V30 50 1 17 51
M  V30 END BOND
M  V30 END CTAB
M  END
>  <Structure No>
1367

>  <LogS>
-6.384616815

>  <MMFF94 Energy>
0.9101

$$$$
Compound 1368
Actelion Java MolfileCreator 2.0

  0  0  0  0  0  0              0 V3000
M  V30 BEGIN CTAB
M  V30 COUNTS 61 60 0 0 0
M  V30 BEGIN ATOM
M  V30 1 O -7.5647 0.6221 1.6339 0
M  V30 2 C -7.4691 1.8257 0.934 0
M  V30 3 C -6.5484 -0.3738 1.569 0
M  V30 4 C -8.4482 2.7172 1.0109 0
M  V30 5 C -6.5723 -1.0749 0.2052 0
M  V30 6 C -5.661 -2.3141 0.149 0
M  V30 7 C -4.1653 -2.0323 0.3831 0
M  V30 8 C -3.5542 -1.1142 -0.6899 0
M  V30 9 C -2.0368 -0.9348 -0.5164 0
M  V30 10 C -1.2363 -2.1347 -1.0533 0
M  V30 11 C 0.2745 -1.9953 -0.8066 0
M  V30 12 C 0.9279 -0.9334 -1.7042 0
M  V30 13 C 2.4507 -0.9092 -1.5056 0
M  V30 14 C 3.1722 0.0163 -2.5033 0
M  V30 15 C 2.7952 1.5064 -2.4004 0
M  V30 16 C 3.0985 2.1651 -1.0411 0
M  V30 17 C 4.6055 2.2777 -0.7257 0
M  V30 18 C 5.083 1.2041 0.2637 0
M  V30 19 C 6.5691 1.3916 0.6029 0
M  V30 20 C 7.1209 0.2613 1.4854 0
M  V30 21 C 6.569 0.2999 2.91 0
M  V30 22 H -6.5974 2.0393 0.3265 0
M  V30 23 H -5.5588 0.0967 1.7533 0
M  V30 24 H -6.738 -1.1182 2.3712 0
M  V30 25 H -9.3253 2.5193 1.6136 0
M  V30 26 H -8.3769 3.6516 0.4697 0
M  V30 27 H -6.3011 -0.3585 -0.5974 0
M  V30 28 H -7.6134 -1.4077 0.0019 0
M  V30 29 H -5.7841 -2.7991 -0.8439 0
M  V30 30 H -6.006 -3.0468 0.9109 0
M  V30 31 H -4.0098 -1.5943 1.3917 0
M  V30 32 H -3.6433 -3.0112 0.3738 0
M  V30 33 H -4.0192 -0.1088 -0.6069 0
M  V30 34 H -3.7767 -1.5081 -1.7059 0
M  V30 35 H -1.7966 -0.7603 0.5555 0
M  V30 36 H -1.7411 -0.0245 -1.0796 0
M  V30 37 H -1.4295 -2.2629 -2.141 0
M  V30 38 H -1.5728 -3.0613 -0.5434 0
M  V30 39 H 0.7462 -2.9806 -1.0158 0
M  V30 40 H 0.4614 -1.754 0.2631 0
M  V30 41 H 0.6967 -1.1559 -2.769 0
M  V30 42 H 0.5153 0.063 -1.4467 0
M  V30 43 H 2.6878 -0.6198 -0.461 0
M  V30 44 H 2.8496 -1.9363 -1.6556 0
M  V30 45 H 4.2693 -0.0951 -2.377 0
M  V30 46 H 2.9432 -0.3292 -3.5347 0
M  V30 47 H 3.3401 2.0609 -3.1954 0
M  V30 48 H 1.7158 1.6317 -2.6277 0
M  V30 49 H 2.5441 1.6582 -0.2234 0
M  V30 50 H 2.6848 3.1965 -1.0864 0
M  V30 51 H 4.7935 3.275 -0.2696 0
M  V30 52 H 5.2075 2.2286 -1.6593 0
M  V30 53 H 4.4788 1.2783 1.1931 0
M  V30 54 H 4.9366 0.1954 -0.1722 0
M  V30 55 H 7.1545 1.4043 -0.3424 0
M  V30 56 H 6.7221 2.3709 1.1073 0
M  V30 57 H 6.8978 -0.7261 1.0264 0
M  V30 58 H 8.2261 0.365 1.5374 0
M  V30 59 H 5.4852 0.0607 2.9183 0
M  V30 60 H 7.0942 -0.4577 3.5289 0
M  V30 61 H 6.7315 1.3008 3.3638 0
M  V30 END ATOM
M  V30 BEGIN BOND
M  V30 1 1 1 2
M  V30 2 1 1 3
M  V30 3 2 2 4
M  V30 4 1 3 5
M  V30 5 1 5 6
M  V30 6 1 6 7
M  V30 7 1 7 8
M  V30 8 1 8 9
M  V30 9 1 9 10
M  V30 10 1 10 11
M  V30 11 1 11 12
M  V30 12 1 12 13
M  V30 13 1 13 14
M  V30 14 1 14 15
M  V30 15 1 15 16
M  V30 16 1 16 17
M  V30 17 1 17 18
M  V30 18 1 18 19
M  V30 19 1 19 20
M  V30 20 1 20 21
M  V30 21 1 2 22
M  V30 22 1 3 23
M  V30 23 1 3 24
M  V30 24 1 4 25
M  V30 25 1 4 26
M  V30 26 1 5 27
M  V30 27 1 5 28
M  V30 28 1 6 29
M  V30 29 1 6 30
M  V30 30 1 7 31
M  V30 31 1 7 32
M  V30 32 1 8 33
M  V30 33 1 8 34
M  V30 34 1 9 35
M  V30 35 1 9 36
M  V30 36 1 10 37
M  V30 37 1 10 38
M  V30 38 1 11 39
M  V30 39 1 11 40
M  V30 40 1 12 41
M  V30 41 1 12 42
M  V30 42 1 13 43
M  V30 43 1 13 44
M  V30 44 1 14 45
M  V30 45 1 14 46
M  V30 46 1 15 47
M  V30 47 1 15 48
M  V30 48 1 16 49
M  V30 49 1 16 50
M  V30 50 1 17 51
M  V30 51 1 17 52
M  V30 52 1 18 53
M  V30 53 1 18 54
M  V30 54 1 19 55
M  V30 55 1 19 56
M  V30 56 1 20 57
M  V30 57 1 20 58
M  V30 58 1 21 59
M  V30 59 1 21 60
M  V30 60 1 21 61
M  V30 END BOND
M  V30 END CTAB
M  END
>  <Structure No>
1368

>  <LogS>
-6.472081819

>  <MMFF94 Energy>
2.6659

$$$$
Compound 1369
Actelion Java MolfileCreator 2.0

  0  0  0  0  0  0              0 V3000
M  V30 BEGIN CTAB
M  V30 COUNTS 55 54 0 0 0
M  V30 BEGIN ATOM
M  V30 1 O -7.9344 1.9594 0.0783 0
M  V30 2 C -7.9956 0.8299 0.6319 0
M  V30 3 O -8.1035 0.7464 2.0148 0 CHG=-1
M  V30 4 C -7.9124 -0.4192 -0.1917 0
M  V30 5 C -6.4639 -0.7522 -0.5745 0
M  V30 6 C -5.6157 -1.1445 0.6483 0
M  V30 7 C -4.2339 -1.706 0.2665 0
M  V30 8 C -3.3365 -0.7468 -0.5374 0
M  V30 9 C -2.9939 0.5415 0.2311 0
M  V30 10 C -2.0558 1.4756 -0.5565 0
M  V30 11 C -0.6111 0.9661 -0.7202 0
M  V30 12 C 0.1635 0.9266 0.6085 0
M  V30 13 C 1.6247 0.4842 0.4273 0
M  V30 14 C 2.488 1.5513 -0.2707 0
M  V30 15 C 3.992 1.2545 -0.1618 0
M  V30 16 C 4.4265 0.0704 -1.0437 0
M  V30 17 C 5.9337 -0.2359 -0.9064 0
M  V30 18 C 6.2384 -1.4621 -0.0132 0
M  V30 19 C 7.7334 -1.8004 -0.0765 0
M  V30 20 C 5.8146 -1.2376 1.445 0
M  V30 21 H -8.507 -0.2762 -1.1202 0
M  V30 22 H -8.3647 -1.2679 0.3655 0
M  V30 23 H -6.4799 -1.5999 -1.2946 0
M  V30 24 H -6.0149 0.1257 -1.0874 0
M  V30 25 H -6.1517 -1.934 1.2195 0
M  V30 26 H -5.4996 -0.2766 1.3311 0
M  V30 27 H -4.3781 -2.6347 -0.3285 0
M  V30 28 H -3.7022 -1.9991 1.1984 0
M  V30 29 H -2.4025 -1.299 -0.7674 0
M  V30 30 H -3.8138 -0.4962 -1.5086 0
M  V30 31 H -3.9304 1.1089 0.4135 0
M  V30 32 H -2.5645 0.2946 1.2238 0
M  V30 33 H -2.0294 2.4641 -0.0477 0
M  V30 34 H -2.4884 1.6492 -1.5663 0
M  V30 35 H -0.0997 1.6646 -1.415 0
M  V30 36 H -0.5975 -0.0337 -1.2003 0
M  V30 37 H 0.1299 1.9234 1.1006 0
M  V30 38 H -0.318 0.1964 1.2913 0
M  V30 39 H 1.6503 -0.4673 -0.1452 0
M  V30 40 H 2.045 0.2817 1.437 0
M  V30 41 H 2.3007 2.5382 0.2059 0
M  V30 42 H 2.2073 1.634 -1.3423 0
M  V30 43 H 4.2611 1.077 0.9003 0
M  V30 44 H 4.5462 2.1604 -0.4925 0
M  V30 45 H 4.2121 0.3338 -2.103 0
M  V30 46 H 3.8288 -0.8352 -0.81 0
M  V30 47 H 6.4899 0.6545 -0.5366 0
M  V30 48 H 6.3253 -0.4497 -1.9261 0
M  V30 49 H 5.6799 -2.3398 -0.4077 0
M  V30 50 H 7.9472 -2.7095 0.5248 0
M  V30 51 H 8.3428 -0.9585 0.316 0
M  V30 52 H 8.0366 -2.0073 -1.1251 0
M  V30 53 H 4.7112 -1.151 1.5187 0
M  V30 54 H 6.2847 -0.3182 1.8551 0
M  V30 55 H 6.1163 -2.1036 2.0706 0
M  V30 END ATOM
M  V30 BEGIN BOND
M  V30 1 2 1 2
M  V30 2 1 2 3
M  V30 3 1 2 4
M  V30 4 1 4 5
M  V30 5 1 5 6
M  V30 6 1 6 7
M  V30 7 1 7 8
M  V30 8 1 8 9
M  V30 9 1 9 10
M  V30 10 1 10 11
M  V30 11 1 11 12
M  V30 12 1 12 13
M  V30 13 1 13 14
M  V30 14 1 14 15
M  V30 15 1 15 16
M  V30 16 1 16 17
M  V30 17 1 17 18
M  V30 18 1 18 19
M  V30 19 1 18 20
M  V30 20 1 4 21
M  V30 21 1 4 22
M  V30 22 1 5 23
M  V30 23 1 5 24
M  V30 24 1 6 25
M  V30 25 1 6 26
M  V30 26 1 7 27
M  V30 27 1 7 28
M  V30 28 1 8 29
M  V30 29 1 8 30
M  V30 30 1 9 31
M  V30 31 1 9 32
M  V30 32 1 10 33
M  V30 33 1 10 34
M  V30 34 1 11 35
M  V30 35 1 11 36
M  V30 36 1 12 37
M  V30 37 1 12 38
M  V30 38 1 13 39
M  V30 39 1 13 40
M  V30 40 1 14 41
M  V30 41 1 14 42
M  V30 42 1 15 43
M  V30 43 1 15 44
M  V30 44 1 16 45
M  V30 45 1 16 46
M  V30 46 1 17 47
M  V30 47 1 17 48
M  V30 48 1 18 49
M  V30 49 1 19 50
M  V30 50 1 19 51
M  V30 51 1 19 52
M  V30 52 1 20 53
M  V30 53 1 20 54
M  V30 54 1 20 55
M  V30 END BOND
M  V30 END CTAB
M  END
>  <Structure No>
1369

>  <LogS>
-6.655742376

>  <MMFF94 Energy>
6.2973

$$$$
Compound 1370
Actelion Java MolfileCreator 2.0

  0  0  0  0  0  0              0 V3000
M  V30 BEGIN CTAB
M  V30 COUNTS 54 55 0 0 0
M  V30 BEGIN ATOM
M  V30 1 O -0.5555 0.7143 -1.6674 0
M  V30 2 C -0.808 1.2576 -0.5576 0
M  V30 3 O 0.1519 2.0556 0.0754 0
M  V30 4 C -2.1433 1.1043 0.0642 0
M  V30 5 C 1.4435 2.3403 -0.4622 0
M  V30 6 C -2.6035 2.2101 0.8759 0
M  V30 7 C -2.9164 -0.0024 -0.1033 0
M  V30 8 C 2.5157 1.3717 0.0905 0 CFG=2
M  V30 9 N -2.9715 3.0953 1.5246 0
M  V30 10 C -2.3799 -1.2519 -0.7016 0
M  V30 11 C -4.3322 -0.0292 0.3483 0
M  V30 12 C 3.9291 1.9872 -0.1008 0
M  V30 13 C 2.38 -0.065 -0.4834 0
M  V30 14 C -1.2323 -1.8643 -0.1656 0
M  V30 15 C -3.0533 -1.871 -1.7688 0
M  V30 16 C -4.78 -1.0394 1.2171 0
M  V30 17 C -5.2506 0.9239 -0.1293 0
M  V30 18 C 5.0996 1.1369 0.4276 0
M  V30 19 C 2.7009 -0.1996 -1.9775 0
M  V30 20 C -0.7433 -3.052 -0.7173 0
M  V30 21 C -2.5648 -3.0647 -2.3117 0
M  V30 22 C -6.1198 -1.0794 1.6192 0
M  V30 23 C -6.5896 0.8763 0.2722 0
M  V30 24 C 5.0036 0.8459 1.934 0
M  V30 25 C -1.4095 -3.6513 -1.789 0
M  V30 26 C -7.023 -0.122 1.1493 0
M  V30 27 C 6.2872 0.2009 2.4488 0
M  V30 28 H 1.4254 2.3617 -1.5727 0
M  V30 29 H 1.6987 3.374 -0.145 0
M  V30 30 H 2.3327 1.3015 1.1852 0
M  V30 31 H 4.1003 2.1944 -1.1803 0
M  V30 32 H 3.9669 2.9731 0.4165 0
M  V30 33 H 3.0419 -0.7543 0.0811 0
M  V30 34 H 1.353 -0.4404 -0.3053 0
M  V30 35 H -0.7215 -1.4239 0.6814 0
M  V30 36 H -3.9512 -1.4273 -2.182 0
M  V30 37 H -4.0905 -1.7894 1.5882 0
M  V30 38 H -4.9323 1.6935 -0.8222 0
M  V30 39 H 6.0367 1.7064 0.2303 0
M  V30 40 H 5.1739 0.1841 -0.1408 0
M  V30 41 H 2.5612 -1.26 -2.2864 0
M  V30 42 H 2.0274 0.4261 -2.5985 0
M  V30 43 H 3.755 0.0776 -2.1843 0
M  V30 44 H 0.1445 -3.5116 -0.3059 0
M  V30 45 H -3.0846 -3.5366 -3.1353 0
M  V30 46 H -6.4587 -1.8563 2.2928 0
M  V30 47 H -7.2919 1.6099 -0.0999 0
M  V30 48 H 4.8268 1.7896 2.4948 0
M  V30 49 H 4.1589 0.1509 2.1342 0
M  V30 50 H -1.0318 -4.5715 -2.2157 0
M  V30 51 H -8.0612 -0.1574 1.4575 0
M  V30 52 H 6.4925 -0.7401 1.897 0
M  V30 53 H 6.176 -0.036 3.5278 0
M  V30 54 H 7.1445 0.8978 2.3235 0
M  V30 END ATOM
M  V30 BEGIN BOND
M  V30 1 2 1 2
M  V30 2 1 2 3
M  V30 3 1 2 4
M  V30 4 1 3 5
M  V30 5 1 4 6
M  V30 6 2 4 7
M  V30 7 1 5 8
M  V30 8 3 6 9
M  V30 9 1 7 10
M  V30 10 1 7 11
M  V30 11 1 8 12
M  V30 12 1 8 13
M  V30 13 2 10 14
M  V30 14 1 10 15
M  V30 15 2 11 16
M  V30 16 1 11 17
M  V30 17 1 12 18
M  V30 18 1 13 19
M  V30 19 1 14 20
M  V30 20 2 15 21
M  V30 21 1 16 22
M  V30 22 2 17 23
M  V30 23 1 18 24
M  V30 24 2 20 25
M  V30 25 2 22 26
M  V30 26 1 24 27
M  V30 27 1 21 25
M  V30 28 1 23 26
M  V30 29 1 5 28
M  V30 30 1 5 29
M  V30 31 1 8 30
M  V30 32 1 12 31
M  V30 33 1 12 32
M  V30 34 1 13 33
M  V30 35 1 13 34
M  V30 36 1 14 35
M  V30 37 1 15 36
M  V30 38 1 16 37
M  V30 39 1 17 38
M  V30 40 1 18 39
M  V30 41 1 18 40
M  V30 42 1 19 41
M  V30 43 1 19 42
M  V30 44 1 19 43
M  V30 45 1 20 44
M  V30 46 1 21 45
M  V30 47 1 22 46
M  V30 48 1 23 47
M  V30 49 1 24 48
M  V30 50 1 24 49
M  V30 51 1 25 50
M  V30 52 1 26 51
M  V30 53 1 27 52
M  V30 54 1 27 53
M  V30 55 1 27 54
M  V30 END BOND
M  V30 BEGIN COLLECTION
M  V30 MDLV30/STEABS ATOMS=(1 8)
M  V30 END COLLECTION
M  V30 END CTAB
M  END
>  <Structure No>
1370

>  <LogS>
-6.558090281

>  <MMFF94 Energy>
41.784

$$$$
Compound 1371
Actelion Java MolfileCreator 2.0

  0  0  0  0  0  0              0 V3000
M  V30 BEGIN CTAB
M  V30 COUNTS 63 66 0 0 0
M  V30 BEGIN ATOM
M  V30 1 F 11.0498 -0.4855 -1.3762 0
M  V30 2 C 9.7212 -0.3672 -1.1294 0
M  V30 3 C 8.888 0.2515 -2.0666 0
M  V30 4 C 9.1836 -0.8662 0.0609 0
M  V30 5 F 9.4063 0.7288 -3.2253 0
M  V30 6 C 7.5179 0.3748 -1.8135 0
M  V30 7 F 9.9901 -1.4666 0.9711 0
M  V30 8 C 7.8139 -0.7457 0.3163 0
M  V30 9 C 6.9679 -0.1186 -0.6164 0
M  V30 10 C 5.5149 0.0041 -0.3458 0
M  V30 11 C 4.8412 1.2251 -0.5396 0
M  V30 12 C 4.7905 -1.1074 0.1159 0
M  V30 13 F 5.513 2.3328 -0.9447 0
M  V30 14 C 3.4709 1.3232 -0.2804 0
M  V30 15 C 3.4206 -1.0072 0.3721 0
M  V30 16 C 2.7453 0.2087 0.1778 0
M  V30 17 C 1.2582 0.3104 0.4663 0 CFG=1
M  V30 18 C 0.9789 1.3375 1.579 0
M  V30 19 C 0.4453 0.6107 -0.8209 0
M  V30 20 C -0.5126 1.3391 1.9603 0
M  V30 21 C -0.7393 1.5635 -0.5802 0
M  V30 22 C -1.4928 1.2618 0.7419 0 CFG=1
M  V30 23 C -2.2909 -0.0873 0.723 0 CFG=1
M  V30 24 C -3.0751 -0.3009 -0.6025 0
M  V30 25 C -3.2351 -0.2106 1.9622 0
M  V30 26 C -4.1734 -1.3596 -0.4489 0
M  V30 27 C -4.7004 0.0782 1.6173 0
M  V30 28 C -5.2521 -0.9397 0.5895 0 CFG=2
M  V30 29 C -6.5219 -0.3712 -0.0872 0
M  V30 30 C -7.4086 -1.473 -0.689 0
M  V30 31 C -8.6437 -0.8788 -1.3603 0
M  V30 32 H 6.8845 0.8395 -2.5591 0
M  V30 33 H 7.4152 -1.1287 1.2478 0
M  V30 34 H 5.2834 -2.0605 0.2648 0
M  V30 35 H 2.9745 2.2727 -0.4368 0
M  V30 36 H 2.8885 -1.8828 0.7226 0
M  V30 37 H 0.9051 -0.6722 0.8542 0
M  V30 38 H 1.5833 1.0916 2.48 0
M  V30 39 H 1.2731 2.3573 1.2483 0
M  V30 40 H 0.0665 -0.3471 -1.2382 0
M  V30 41 H 1.0859 1.0632 -1.6087 0
M  V30 42 H -0.7215 2.2643 2.5409 0
M  V30 43 H -0.6719 0.4885 2.6575 0
M  V30 44 H -1.417 1.5513 -1.458 0
M  V30 45 H -0.35 2.6046 -0.5296 0
M  V30 46 H -2.2441 2.0751 0.8621 0
M  V30 47 H -1.5508 -0.9153 0.7933 0
M  V30 48 H -2.3785 -0.6324 -1.4022 0
M  V30 49 H -3.548 0.6507 -0.9317 0
M  V30 50 H -2.9379 0.4754 2.7826 0
M  V30 51 H -3.1673 -1.2428 2.3721 0
M  V30 52 H -3.7007 -2.3115 -0.1199 0
M  V30 53 H -4.6201 -1.5552 -1.4462 0
M  V30 54 H -5.3118 0.0339 2.5453 0
M  V30 55 H -4.7726 1.1151 1.2189 0
M  V30 56 H -5.5421 -1.8509 1.1605 0
M  V30 57 H -6.2313 0.3576 -0.876 0
M  V30 58 H -7.1279 0.1762 0.6691 0
M  V30 59 H -7.7382 -2.1656 0.1158 0
M  V30 60 H -6.8456 -2.0604 -1.4436 0
M  V30 61 H -9.2732 -1.6962 -1.771 0
M  V30 62 H -8.3438 -0.2088 -2.194 0
M  V30 63 H -9.2454 -0.3031 -0.6249 0
M  V30 END ATOM
M  V30 BEGIN BOND
M  V30 1 1 1 2
M  V30 2 2 2 3
M  V30 3 1 2 4
M  V30 4 1 3 5
M  V30 5 1 3 6
M  V30 6 1 4 7
M  V30 7 2 4 8
M  V30 8 2 6 9
M  V30 9 1 9 10
M  V30 10 2 10 11
M  V30 11 1 10 12
M  V30 12 1 11 13
M  V30 13 1 11 14
M  V30 14 2 12 15
M  V30 15 2 14 16
M  V30 16 1 16 17
M  V30 17 1 17 18
M  V30 18 1 17 19
M  V30 19 1 18 20
M  V30 20 1 19 21
M  V30 21 1 20 22
M  V30 22 1 22 23
M  V30 23 1 23 24
M  V30 24 1 23 25
M  V30 25 1 24 26
M  V30 26 1 25 27
M  V30 27 1 26 28
M  V30 28 1 28 29
M  V30 29 1 29 30
M  V30 30 1 30 31
M  V30 31 1 8 9
M  V30 32 1 15 16
M  V30 33 1 21 22
M  V30 34 1 27 28
M  V30 35 1 6 32
M  V30 36 1 8 33
M  V30 37 1 12 34
M  V30 38 1 14 35
M  V30 39 1 15 36
M  V30 40 1 17 37
M  V30 41 1 18 38
M  V30 42 1 18 39
M  V30 43 1 19 40
M  V30 44 1 19 41
M  V30 45 1 20 42
M  V30 46 1 20 43
M  V30 47 1 21 44
M  V30 48 1 21 45
M  V30 49 1 22 46
M  V30 50 1 23 47
M  V30 51 1 24 48
M  V30 52 1 24 49
M  V30 53 1 25 50
M  V30 54 1 25 51
M  V30 55 1 26 52
M  V30 56 1 26 53
M  V30 57 1 27 54
M  V30 58 1 27 55
M  V30 59 1 28 56
M  V30 60 1 29 57
M  V30 61 1 29 58
M  V30 62 1 30 59
M  V30 63 1 30 60
M  V30 64 1 31 61
M  V30 65 1 31 62
M  V30 66 1 31 63
M  V30 END BOND
M  V30 BEGIN COLLECTION
M  V30 MDLV30/STEABS ATOMS=(4 17 22 23 28)
M  V30 END COLLECTION
M  V30 END CTAB
M  END
>  <Structure No>
1371

>  <LogS>
-6.636031296

>  <MMFF94 Energy>
69.412

$$$$
Compound 1372
Actelion Java MolfileCreator 2.0

  0  0  0  0  0  0              0 V3000
M  V30 BEGIN CTAB
M  V30 COUNTS 63 62 0 0 0
M  V30 BEGIN ATOM
M  V30 1 O -2.1028 -3.5066 1.7131 0
M  V30 2 C -1.0935 -2.5383 1.8249 0
M  V30 3 C -1.5767 -1.1741 1.2882 0 CFG=1
M  V30 4 C -0.6152 -0.017 1.6914 0
M  V30 5 C -1.9076 -1.2649 -0.2272 0
M  V30 6 C 0.899 -0.2424 1.4921 0
M  V30 7 C -2.4369 0.026 -0.8808 0
M  V30 8 C 1.3327 -0.3243 0.0197 0
M  V30 9 C -3.7121 0.5612 -0.2126 0
M  V30 10 C 2.8311 -0.0396 -0.1698 0
M  V30 11 C -4.3034 1.7319 -1.0129 0
M  V30 12 C 3.7192 -1.1244 0.4643 0
M  V30 13 C -5.5984 2.2796 -0.3766 0
M  V30 14 C 5.2008 -0.9652 0.089 0
M  V30 15 C -6.8798 1.8181 -1.0912 0
M  V30 16 C 5.8433 0.2733 0.7382 0
M  V30 17 C -7.133 0.3114 -0.9486 0
M  V30 18 C 7.3697 0.3051 0.565 0
M  V30 19 C -8.4998 -0.0721 -1.5079 0
M  V30 20 C 7.7928 0.5759 -0.8859 0
M  V30 21 C 9.3068 0.7279 -0.9975 0
M  V30 22 H -2.755 -3.3236 2.4392 0
M  V30 23 H -0.2132 -2.8848 1.2431 0
M  V30 24 H -0.7801 -2.4447 2.8903 0
M  V30 25 H -2.5366 -0.965 1.8097 0
M  V30 26 H -0.7629 0.1579 2.7802 0
M  V30 27 H -0.9136 0.9363 1.2114 0
M  V30 28 H -1.0251 -1.6093 -0.7979 0
M  V30 29 H -2.6815 -2.0508 -0.371 0
M  V30 30 H 1.4169 0.6185 1.9692 0
M  V30 31 H 1.2303 -1.1505 2.0375 0
M  V30 32 H -1.6525 0.8103 -0.8928 0
M  V30 33 H -2.6636 -0.2095 -1.9439 0
M  V30 34 H 0.7655 0.4214 -0.5775 0
M  V30 35 H 1.1155 -1.3354 -0.3797 0
M  V30 36 H -3.471 0.9199 0.8107 0
M  V30 37 H -4.4556 -0.2583 -0.1303 0
M  V30 38 H 3.0363 0.0051 -1.2618 0
M  V30 39 H 3.0728 0.956 0.2601 0
M  V30 40 H -4.4842 1.4233 -2.0659 0
M  V30 41 H -3.5489 2.5491 -1.0386 0
M  V30 42 H 3.381 -2.1221 0.1081 0
M  V30 43 H 3.614 -1.1078 1.5707 0
M  V30 44 H -5.5699 3.39 -0.4367 0
M  V30 45 H -5.6566 2.0267 0.7054 0
M  V30 46 H 5.7404 -1.8747 0.4321 0
M  V30 47 H 5.2953 -0.913 -1.0164 0
M  V30 48 H -6.8274 2.0906 -2.1682 0
M  V30 49 H -7.7357 2.3723 -0.6468 0
M  V30 50 H 5.6229 0.2655 1.828 0
M  V30 51 H 5.4065 1.2014 0.3118 0
M  V30 52 H -7.0889 0.0198 0.1234 0
M  V30 53 H -6.3572 -0.2543 -1.5069 0
M  V30 54 H 7.7711 1.1151 1.2132 0
M  V30 55 H 7.8092 -0.6542 0.9152 0
M  V30 56 H -8.6486 -1.1678 -1.4066 0
M  V30 57 H -8.566 0.1976 -2.5837 0
M  V30 58 H -9.3065 0.4484 -0.9485 0
M  V30 59 H 7.4764 -0.2649 -1.5383 0
M  V30 60 H 7.3111 1.5087 -1.2512 0
M  V30 61 H 9.8135 -0.2001 -0.6572 0
M  V30 62 H 9.5846 0.9164 -2.0558 0
M  V30 63 H 9.6556 1.5842 -0.3816 0
M  V30 END ATOM
M  V30 BEGIN BOND
M  V30 1 1 1 2
M  V30 2 1 2 3
M  V30 3 1 3 4
M  V30 4 1 3 5
M  V30 5 1 4 6
M  V30 6 1 5 7
M  V30 7 1 6 8
M  V30 8 1 7 9
M  V30 9 1 8 10
M  V30 10 1 9 11
M  V30 11 1 10 12
M  V30 12 1 11 13
M  V30 13 1 12 14
M  V30 14 1 13 15
M  V30 15 1 14 16
M  V30 16 1 15 17
M  V30 17 1 16 18
M  V30 18 1 17 19
M  V30 19 1 18 20
M  V30 20 1 20 21
M  V30 21 1 1 22
M  V30 22 1 2 23
M  V30 23 1 2 24
M  V30 24 1 3 25
M  V30 25 1 4 26
M  V30 26 1 4 27
M  V30 27 1 5 28
M  V30 28 1 5 29
M  V30 29 1 6 30
M  V30 30 1 6 31
M  V30 31 1 7 32
M  V30 32 1 7 33
M  V30 33 1 8 34
M  V30 34 1 8 35
M  V30 35 1 9 36
M  V30 36 1 9 37
M  V30 37 1 10 38
M  V30 38 1 10 39
M  V30 39 1 11 40
M  V30 40 1 11 41
M  V30 41 1 12 42
M  V30 42 1 12 43
M  V30 43 1 13 44
M  V30 44 1 13 45
M  V30 45 1 14 46
M  V30 46 1 14 47
M  V30 47 1 15 48
M  V30 48 1 15 49
M  V30 49 1 16 50
M  V30 50 1 16 51
M  V30 51 1 17 52
M  V30 52 1 17 53
M  V30 53 1 18 54
M  V30 54 1 18 55
M  V30 55 1 19 56
M  V30 56 1 19 57
M  V30 57 1 19 58
M  V30 58 1 20 59
M  V30 59 1 20 60
M  V30 60 1 21 61
M  V30 61 1 21 62
M  V30 62 1 21 63
M  V30 END BOND
M  V30 BEGIN COLLECTION
M  V30 MDLV30/STEABS ATOMS=(1 3)
M  V30 END COLLECTION
M  V30 END CTAB
M  END
>  <Structure No>
1372

>  <LogS>
-6.475024349

>  <MMFF94 Energy>
5.4005

$$$$
Compound 1373
Actelion Java MolfileCreator 2.0

  0  0  0  0  0  0              0 V3000
M  V30 BEGIN CTAB
M  V30 COUNTS 21 23 0 0 0
M  V30 BEGIN ATOM
M  V30 1 O -1.1499 3.6173 -0.1642 0
M  V30 2 C -0.3629 2.6336 -0.1603 0
M  V30 3 O 1.0118 2.8562 -0.2631 0
M  V30 4 C -0.8765 1.2498 -0.0484 0
M  V30 5 C 1.9207 1.796 -0.2629 0
M  V30 6 C 0.0371 0.1727 -0.0477 0
M  V30 7 C -2.2537 0.9928 0.0564 0
M  V30 8 O 3.1532 2.0389 -0.3576 0
M  V30 9 C 1.4264 0.4051 -0.152 0
M  V30 10 C -0.4454 -1.1557 0.0588 0
M  V30 11 C -2.7209 -0.3191 0.1612 0
M  V30 12 C 2.3148 -0.6829 -0.1489 0
M  V30 13 C -1.8245 -1.3896 0.1626 0
M  V30 14 C 0.4592 -2.2273 0.0599 0
M  V30 15 C 1.831 -1.9889 -0.0435 0
M  V30 16 H -2.9692 1.8056 0.0576 0
M  V30 17 H -3.7839 -0.5071 0.2416 0
M  V30 18 H 3.383 -0.5245 -0.228 0
M  V30 19 H -2.2089 -2.3994 0.2448 0
M  V30 20 H 0.1058 -3.2485 0.1407 0
M  V30 21 H 2.5234 -2.8209 -0.042 0
M  V30 END ATOM
M  V30 BEGIN BOND
M  V30 1 2 1 2
M  V30 2 1 2 3
M  V30 3 1 2 4
M  V30 4 1 3 5
M  V30 5 1 4 6
M  V30 6 2 4 7
M  V30 7 2 5 8
M  V30 8 1 5 9
M  V30 9 1 6 10
M  V30 10 1 7 11
M  V30 11 1 9 12
M  V30 12 1 10 13
M  V30 13 2 10 14
M  V30 14 2 12 15
M  V30 15 2 6 9
M  V30 16 2 11 13
M  V30 17 1 14 15
M  V30 18 1 7 16
M  V30 19 1 11 17
M  V30 20 1 12 18
M  V30 21 1 13 19
M  V30 22 1 14 20
M  V30 23 1 15 21
M  V30 END BOND
M  V30 END CTAB
M  END
>  <Structure No>
1373

>  <LogS>
-6.29705325

>  <MMFF94 Energy>
45.193

$$$$
Compound 1374
Actelion Java MolfileCreator 2.0

  0  0  0  0  0  0              0 V3000
M  V30 BEGIN CTAB
M  V30 COUNTS 85 88 0 0 0
M  V30 BEGIN ATOM
M  V30 1 O 0 0 0 0
M  V30 2 C 0 0 0 0
M  V30 3 O 0 0 0 0
M  V30 4 C 0 0 0 0
M  V30 5 C 0 0 0 0
M  V30 6 C 0 0 0 0
M  V30 7 C 0 0 0 0
M  V30 8 C 0 0 0 0
M  V30 9 C 0 0 0 0
M  V30 10 C 0 0 0 0
M  V30 11 C 0 0 0 0
M  V30 12 C 0 0 0 0
M  V30 13 C 0 0 0 0
M  V30 14 O 0 0 0 0
M  V30 15 O 0 0 0 0
M  V30 16 O 0 0 0 0
M  V30 17 C 0 0 0 0
M  V30 18 C 0 0 0 0
M  V30 19 C 0 0 0 0
M  V30 20 C 0 0 0 0
M  V30 21 C 0 0 0 0
M  V30 22 C 0 0 0 0
M  V30 23 C 0 0 0 0
M  V30 24 C 0 0 0 0
M  V30 25 O 0 0 0 0
M  V30 26 C 0 0 0 0
M  V30 27 O 0 0 0 0
M  V30 28 C 0 0 0 0
M  V30 29 O 0 0 0 0
M  V30 30 C 0 0 0 0
M  V30 31 O 0 0 0 0
M  V30 32 C 0 0 0 0
M  V30 33 C 0 0 0 0
M  V30 34 C 0 0 0 0
M  V30 35 C 0 0 0 0
M  V30 36 C 0 0 0 0
M  V30 37 C 0 0 0 0
M  V30 38 C 0 0 0 0
M  V30 39 C 0 0 0 0
M  V30 40 C 0 0 0 0
M  V30 41 C 0 0 0 0
M  V30 42 C 0 0 0 0
M  V30 43 C 0 0 0 0
M  V30 44 C 0 0 0 0
M  V30 45 C 0 0 0 0
M  V30 46 C 0 0 0 0
M  V30 47 C 0 0 0 0
M  V30 48 C 0 0 0 0
M  V30 49 C 0 0 0 0
M  V30 50 C 0 0 0 0
M  V30 51 C 0 0 0 0
M  V30 52 C 0 0 0 0
M  V30 53 C 0 0 0 0
M  V30 54 C 0 0 0 0
M  V30 55 C 0 0 0 0
M  V30 56 C 0 0 0 0
M  V30 57 C 0 0 0 0
M  V30 58 C 0 0 0 0
M  V30 59 C 0 0 0 0
M  V30 60 C 0 0 0 0
M  V30 61 C 0 0 0 0
M  V30 62 C 0 0 0 0
M  V30 63 C 0 0 0 0
M  V30 64 C 0 0 0 0
M  V30 65 O 0 0 0 0
M  V30 66 C 0 0 0 0
M  V30 67 C 0 0 0 0
M  V30 68 C 0 0 0 0
M  V30 69 C 0 0 0 0
M  V30 70 C 0 0 0 0
M  V30 71 C 0 0 0 0
M  V30 72 O 0 0 0 0
M  V30 73 C 0 0 0 0
M  V30 74 C 0 0 0 0
M  V30 75 C 0 0 0 0
M  V30 76 C 0 0 0 0
M  V30 77 C 0 0 0 0
M  V30 78 C 0 0 0 0
M  V30 79 O 0 0 0 0
M  V30 80 C 0 0 0 0
M  V30 81 C 0 0 0 0
M  V30 82 C 0 0 0 0
M  V30 83 C 0 0 0 0
M  V30 84 C 0 0 0 0
M  V30 85 C 0 0 0 0
M  V30 END ATOM
M  V30 BEGIN BOND
M  V30 1 2 1 2
M  V30 2 1 2 3
M  V30 3 1 2 4
M  V30 4 1 3 5
M  V30 5 1 4 6
M  V30 6 1 5 7
M  V30 7 1 6 8
M  V30 8 1 7 9
M  V30 9 1 7 10
M  V30 10 1 7 11
M  V30 11 2 8 12
M  V30 12 1 8 13
M  V30 13 1 9 14
M  V30 14 1 10 15
M  V30 15 1 11 16
M  V30 16 1 12 17
M  V30 17 2 13 18
M  V30 18 1 14 19
M  V30 19 1 15 20
M  V30 20 1 16 21
M  V30 21 2 17 22
M  V30 22 1 17 23
M  V30 23 1 18 24
M  V30 24 2 19 25
M  V30 25 1 19 26
M  V30 26 2 20 27
M  V30 27 1 20 28
M  V30 28 2 21 29
M  V30 29 1 21 30
M  V30 30 1 22 31
M  V30 31 1 23 32
M  V30 32 1 23 33
M  V30 33 1 23 34
M  V30 34 1 24 35
M  V30 35 1 24 36
M  V30 36 1 24 37
M  V30 37 1 26 38
M  V30 38 1 28 39
M  V30 39 1 30 40
M  V30 40 1 38 41
M  V30 41 1 39 42
M  V30 42 1 40 43
M  V30 43 2 41 44
M  V30 44 1 41 45
M  V30 45 2 42 46
M  V30 46 1 42 47
M  V30 47 2 43 48
M  V30 48 1 43 49
M  V30 49 1 44 50
M  V30 50 2 45 51
M  V30 51 1 46 52
M  V30 52 2 47 53
M  V30 53 1 48 54
M  V30 54 2 49 55
M  V30 55 2 50 56
M  V30 56 1 50 57
M  V30 57 1 51 58
M  V30 58 2 52 59
M  V30 59 1 52 60
M  V30 60 1 53 61
M  V30 61 2 54 62
M  V30 62 1 54 63
M  V30 63 1 55 64
M  V30 64 1 56 65
M  V30 65 1 57 66
M  V30 66 1 57 67
M  V30 67 1 57 68
M  V30 68 1 58 69
M  V30 69 1 58 70
M  V30 70 1 58 71
M  V30 71 1 59 72
M  V30 72 1 60 73
M  V30 73 1 60 74
M  V30 74 1 60 75
M  V30 75 1 61 76
M  V30 76 1 61 77
M  V30 77 1 61 78
M  V30 78 1 62 79
M  V30 79 1 63 80
M  V30 80 1 63 81
M  V30 81 1 63 82
M  V30 82 1 64 83
M  V30 83 1 64 84
M  V30 84 1 64 85
M  V30 85 1 18 22
M  V30 86 1 51 56
M  V30 87 1 53 59
M  V30 88 1 55 62
M  V30 END BOND
M  V30 END CTAB
M  END
>  <Structure No>
1374

>  <LogS>
-7.07101808

>  <MMFF94 Energy>
168.66

$$$$
Compound 1375
Actelion Java MolfileCreator 2.0

  0  0  0  0  0  0              0 V3000
M  V30 BEGIN CTAB
M  V30 COUNTS 72 73 0 0 0
M  V30 BEGIN ATOM
M  V30 1 N 0.0 -1.8932 -1.1829 0
M  V30 2 C 1.2686 -1.2394 -1.0055 0
M  V30 3 C -1.2347 -1.4432 -0.5978 0
M  V30 4 C 2.2204 -1.2926 -2.0283 0
M  V30 5 C 1.6029 -0.6128 0.2028 0
M  V30 6 C -1.4715 -0.0844 -0.3458 0
M  V30 7 C -2.2573 -2.3651 -0.3532 0
M  V30 8 C 3.4675 -0.6812 -1.8735 0
M  V30 9 C 2.847 0.0024 0.3614 0
M  V30 10 C -2.6919 0.3365 0.1895 0
M  V30 11 C -3.4791 -1.9486 0.1805 0
M  V30 12 C 3.7956 0.02 -0.6876 0
M  V30 13 C -3.7143 -0.5913 0.5022 0
M  V30 14 C 5.1865 0.67 -0.4658 0
M  V30 15 C -5.1051 -0.1383 1.0175 0
M  V30 16 C 6.0019 -0.3291 0.435 0
M  V30 17 C 5.8879 0.9439 -1.8189 0
M  V30 18 C 4.9795 2.0428 0.2347 0
M  V30 19 C -6.0359 -0.0615 -0.2483 0
M  V30 20 C -5.6207 -1.1832 2.0496 0
M  V30 21 C -4.9968 1.2205 1.752 0
M  V30 22 C 7.5432 -0.1708 0.7157 0
M  V30 23 C -7.4746 0.576 -0.2188 0
M  V30 24 C 7.9414 1.2567 1.1401 0
M  V30 25 C 8.3998 -0.6106 -0.4958 0
M  V30 26 C 7.8913 -1.1212 1.8886 0
M  V30 27 C -8.1822 0.164 -1.5334 0
M  V30 28 C -7.4204 2.1221 -0.1942 0
M  V30 29 C -8.3397 0.0709 0.952 0
M  V30 30 H -0.0304 -2.7385 -1.7966 0
M  V30 31 H 1.9937 -1.8085 -2.9528 0
M  V30 32 H 0.9102 -0.6166 1.0343 0
M  V30 33 H -0.7233 0.6586 -0.5898 0
M  V30 34 H -2.1082 -3.4128 -0.5817 0
M  V30 35 H 4.1643 -0.7714 -2.6931 0
M  V30 36 H 3.0674 0.4503 1.3206 0
M  V30 37 H -2.8226 1.3976 0.3375 0
M  V30 38 H -4.2453 -2.6976 0.3234 0
M  V30 39 H 5.8583 -1.3516 0.0152 0
M  V30 40 H 5.4814 -0.3583 1.4195 0
M  V30 41 H 6.7621 1.6147 -1.7004 0
M  V30 42 H 5.1933 1.4608 -2.5161 0
M  V30 43 H 6.2355 6.0E-4 -2.2914 0
M  V30 44 H 4.7874 1.9266 1.3218 0
M  V30 45 H 5.8504 2.7166 0.1257 0
M  V30 46 H 4.1179 2.5807 -0.217 0
M  V30 47 H -6.1368 -1.1048 -0.6246 0
M  V30 48 H -5.4706 0.4672 -1.0501 0
M  V30 49 H -6.0411 -2.0832 1.5526 0
M  V30 50 H -4.7925 -1.5063 2.7195 0
M  V30 51 H -6.4076 -0.7789 2.714 0
M  V30 52 H -4.1552 1.1994 2.4786 0
M  V30 53 H -5.9097 1.4454 2.3391 0
M  V30 54 H -4.832 2.0551 1.0389 0
M  V30 55 H 7.266 1.6357 1.9373 0
M  V30 56 H 8.979 1.2678 1.5381 0
M  V30 57 H 7.9305 1.9524 0.2791 0
M  V30 58 H 9.4651 -0.7264 -0.1989 0
M  V30 59 H 8.0494 -1.5865 -0.8961 0
M  V30 60 H 8.3917 0.1346 -1.3123 0
M  V30 61 H 8.9789 -1.102 2.1138 0
M  V30 62 H 7.6096 -2.1675 1.6418 0
M  V30 63 H 7.3504 -0.8238 2.8138 0
M  V30 64 H -7.5987 0.5045 -2.4169 0
M  V30 65 H -8.2944 -0.9406 -1.5937 0
M  V30 66 H -9.1988 0.611 -1.6031 0
M  V30 67 H -8.4184 2.5536 -0.4302 0
M  V30 68 H -6.6959 2.5067 -0.9438 0
M  V30 69 H -7.1456 2.5179 0.801 0
M  V30 70 H -8.0193 0.5192 1.9119 0
M  V30 71 H -9.402 0.3681 0.8094 0
M  V30 72 H -8.3026 -1.0368 1.0222 0
M  V30 END ATOM
M  V30 BEGIN BOND
M  V30 1 1 1 2
M  V30 2 1 1 3
M  V30 3 2 2 4
M  V30 4 1 2 5
M  V30 5 2 3 6
M  V30 6 1 3 7
M  V30 7 1 4 8
M  V30 8 2 5 9
M  V30 9 1 6 10
M  V30 10 2 7 11
M  V30 11 2 8 12
M  V30 12 2 10 13
M  V30 13 1 12 14
M  V30 14 1 13 15
M  V30 15 1 14 16
M  V30 16 1 14 17
M  V30 17 1 14 18
M  V30 18 1 15 19
M  V30 19 1 15 20
M  V30 20 1 15 21
M  V30 21 1 16 22
M  V30 22 1 19 23
M  V30 23 1 22 24
M  V30 24 1 22 25
M  V30 25 1 22 26
M  V30 26 1 23 27
M  V30 27 1 23 28
M  V30 28 1 23 29
M  V30 29 1 9 12
M  V30 30 1 11 13
M  V30 31 1 1 30
M  V30 32 1 4 31
M  V30 33 1 5 32
M  V30 34 1 6 33
M  V30 35 1 7 34
M  V30 36 1 8 35
M  V30 37 1 9 36
M  V30 38 1 10 37
M  V30 39 1 11 38
M  V30 40 1 16 39
M  V30 41 1 16 40
M  V30 42 1 17 41
M  V30 43 1 17 42
M  V30 44 1 17 43
M  V30 45 1 18 44
M  V30 46 1 18 45
M  V30 47 1 18 46
M  V30 48 1 19 47
M  V30 49 1 19 48
M  V30 50 1 20 49
M  V30 51 1 20 50
M  V30 52 1 20 51
M  V30 53 1 21 52
M  V30 54 1 21 53
M  V30 55 1 21 54
M  V30 56 1 24 55
M  V30 57 1 24 56
M  V30 58 1 24 57
M  V30 59 1 25 58
M  V30 60 1 25 59
M  V30 61 1 25 60
M  V30 62 1 26 61
M  V30 63 1 26 62
M  V30 64 1 26 63
M  V30 65 1 27 64
M  V30 66 1 27 65
M  V30 67 1 27 66
M  V30 68 1 28 67
M  V30 69 1 28 68
M  V30 70 1 28 69
M  V30 71 1 29 70
M  V30 72 1 29 71
M  V30 73 1 29 72
M  V30 END BOND
M  V30 END CTAB
M  END
>  <Structure No>
1375

>  <LogS>
-6.595120185

>  <MMFF94 Energy>
107.07

$$$$
Compound 1376
Actelion Java MolfileCreator 2.0

  0  0  0  0  0  0              0 V3000
M  V30 BEGIN CTAB
M  V30 COUNTS 62 61 0 0 0
M  V30 BEGIN ATOM
M  V30 1 C 1.0899 -1.0899 -0.7784 0 CFG=1
M  V30 2 C 0.1355 -0.03 -0.1144 0 CFG=2
M  V30 3 C 2.6105 -0.8268 -0.5435 0
M  V30 4 C 0.7243 -2.5803 -0.514 0
M  V30 5 C -1.3645 -0.4053 -0.2797 0
M  V30 6 C 0.3992 1.3722 -0.71 0
M  V30 7 C 3.001 -0.3932 0.8878 0
M  V30 8 C 0.7803 -3.0173 0.9502 0
M  V30 9 C -2.3318 0.6325 0.3241 0
M  V30 10 C 4.5087 -0.5267 1.1531 0
M  V30 11 C -3.7525 0.08 0.5284 0
M  V30 12 C 5.3395 0.4894 0.3551 0
M  V30 13 C -4.4706 -0.2137 -0.7997 0
M  V30 14 C 6.8306 0.3733 0.7049 0
M  V30 15 C -5.869 -0.8259 -0.6002 0
M  V30 16 C 7.6833 1.4573 0.0291 0
M  V30 17 C -6.893 0.0961 0.0873 0
M  V30 18 C 7.7905 1.2702 -1.4845 0
M  V30 19 C -7.2086 1.3552 -0.7315 0
M  V30 20 C -8.3511 2.1489 -0.1032 0
M  V30 21 H 0.9435 -0.9754 -1.8771 0
M  V30 22 H 0.3432 0.0158 0.9755 0
M  V30 23 H 2.9426 -0.0367 -1.2499 0
M  V30 24 H 3.1862 -1.7355 -0.8252 0
M  V30 25 H 1.4103 -3.2345 -1.0954 0
M  V30 26 H -0.2851 -2.8001 -0.9199 0
M  V30 27 H -1.5907 -0.539 -1.3594 0
M  V30 28 H -1.5548 -1.3668 0.2394 0
M  V30 29 H 1.471 1.6465 -0.6672 0
M  V30 30 H 0.071 1.4132 -1.7713 0
M  V30 31 H -0.1399 2.1521 -0.1333 0
M  V30 32 H 2.4726 -1.0093 1.639 0
M  V30 33 H 2.6955 0.6591 1.0666 0
M  V30 34 H 1.8335 -3.1391 1.2761 0
M  V30 35 H 0.2844 -4.0046 1.0555 0
M  V30 36 H 0.2586 -2.2961 1.6109 0
M  V30 37 H -1.9459 0.9538 1.3168 0
M  V30 38 H -2.3849 1.5298 -0.3298 0
M  V30 39 H 4.6836 -0.36 2.239 0
M  V30 40 H 4.8418 -1.5613 0.9145 0
M  V30 41 H -3.7129 -0.8394 1.1518 0
M  V30 42 H -4.3246 0.8461 1.0921 0
M  V30 43 H 4.9829 1.5179 0.5856 0
M  V30 44 H 5.2056 0.2996 -0.73 0
M  V30 45 H -4.5334 0.7085 -1.4138 0
M  V30 46 H -3.8755 -0.9501 -1.3795 0
M  V30 47 H 7.2069 -0.6337 0.4206 0
M  V30 48 H 6.9534 0.4787 1.8047 0
M  V30 49 H -6.2687 -1.1247 -1.5938 0
M  V30 50 H -5.7709 -1.7568 -7.0E-4 0
M  V30 51 H 8.7077 1.4163 0.4572 0
M  V30 52 H 7.2677 2.4642 0.2512 0
M  V30 53 H -7.8304 -0.4868 0.2205 0
M  V30 54 H -6.5436 0.3798 1.102 0
M  V30 55 H 6.8102 1.4466 -1.9738 0
M  V30 56 H 8.1476 0.2462 -1.7261 0
M  V30 57 H 8.516 2.0032 -1.895 0
M  V30 58 H -7.4966 1.0697 -1.7658 0
M  V30 59 H -6.3156 2.0122 -0.7787 0
M  V30 60 H -9.2784 1.5378 -0.0781 0
M  V30 61 H -8.544 3.0614 -0.7057 0
M  V30 62 H -8.0857 2.4563 0.9306 0
M  V30 END ATOM
M  V30 BEGIN BOND
M  V30 1 1 1 2
M  V30 2 1 1 3
M  V30 3 1 1 4
M  V30 4 1 2 5
M  V30 5 1 2 6
M  V30 6 1 3 7
M  V30 7 1 4 8
M  V30 8 1 5 9
M  V30 9 1 7 10
M  V30 10 1 9 11
M  V30 11 1 10 12
M  V30 12 1 11 13
M  V30 13 1 12 14
M  V30 14 1 13 15
M  V30 15 1 14 16
M  V30 16 1 15 17
M  V30 17 1 16 18
M  V30 18 1 17 19
M  V30 19 1 19 20
M  V30 20 1 1 21
M  V30 21 1 2 22
M  V30 22 1 3 23
M  V30 23 1 3 24
M  V30 24 1 4 25
M  V30 25 1 4 26
M  V30 26 1 5 27
M  V30 27 1 5 28
M  V30 28 1 6 29
M  V30 29 1 6 30
M  V30 30 1 6 31
M  V30 31 1 7 32
M  V30 32 1 7 33
M  V30 33 1 8 34
M  V30 34 1 8 35
M  V30 35 1 8 36
M  V30 36 1 9 37
M  V30 37 1 9 38
M  V30 38 1 10 39
M  V30 39 1 10 40
M  V30 40 1 11 41
M  V30 41 1 11 42
M  V30 42 1 12 43
M  V30 43 1 12 44
M  V30 44 1 13 45
M  V30 45 1 13 46
M  V30 46 1 14 47
M  V30 47 1 14 48
M  V30 48 1 15 49
M  V30 49 1 15 50
M  V30 50 1 16 51
M  V30 51 1 16 52
M  V30 52 1 17 53
M  V30 53 1 17 54
M  V30 54 1 18 55
M  V30 55 1 18 56
M  V30 56 1 18 57
M  V30 57 1 19 58
M  V30 58 1 19 59
M  V30 59 1 20 60
M  V30 60 1 20 61
M  V30 61 1 20 62
M  V30 END BOND
M  V30 BEGIN COLLECTION
M  V30 MDLV30/STEABS ATOMS=(2 1 2)
M  V30 END COLLECTION
M  V30 END CTAB
M  END
>  <Structure No>
1376

>  <LogS>
-6.75213453

>  <MMFF94 Energy>
9.3375

$$$$
Compound 1377
Actelion Java MolfileCreator 2.0

  0  0  0  0  0  0              0 V3000
M  V30 BEGIN CTAB
M  V30 COUNTS 127 126 0 0 0
M  V30 BEGIN ATOM
M  V30 1 O 4.1459 -0.703 -3.8325 0
M  V30 2 C 4.5928 -1.3871 -2.8705 0
M  V30 3 N 3.6918 -1.9186 -1.8874 0
M  V30 4 C 6.0574 -1.7221 -2.8122 0
M  V30 5 C 2.2398 -1.8381 -2.0253 0
M  V30 6 C 6.9738 -0.5085 -3.0618 0
M  V30 7 C 1.7388 -2.9548 -2.9464 0
M  V30 8 C 7.3447 0.2602 -1.782 0
M  V30 9 N 0.2726 -2.8901 -3.0969 0 CHG=1
M  V30 10 C 6.201 1.1371 -1.2234 0
M  V30 11 C -0.2444 -4.018 -3.8982 0
M  V30 12 C 5.5483 0.5322 0.03 0
M  V30 13 C -0.5379 -5.2592 -3.0419 0
M  V30 14 C 6.48 0.5606 1.2628 0
M  V30 15 N -1.7006 -5.0366 -2.1822 0
M  V30 16 C 6.5472 -0.8132 1.9496 0
M  V30 17 C -3.0464 -5.1304 -2.6698 0
M  V30 18 C 7.495 -0.8397 3.1645 0
M  V30 19 O -3.2622 -5.4536 -3.8703 0
M  V30 20 C -4.1898 -4.8828 -1.7187 0
M  V30 21 C 8.9824 -0.9932 2.7814 0
M  V30 22 C -5.581 -4.9408 -2.3787 0
M  V30 23 C 9.7146 0.3537 2.5912 0
M  V30 24 C -5.8833 -3.7216 -3.2748 0
M  V30 25 C 10.4545 0.4175 1.2434 0
M  V30 26 C -6.3621 -2.4795 -2.5007 0
M  V30 27 C 11.0615 1.8036 0.9677 0
M  V30 28 C -7.8175 -2.6068 -2.0232 0
M  V30 29 C 12.3081 2.0804 1.8227 0
M  V30 30 C -8.3411 -1.2714 -1.4792 0
M  V30 31 C 12.925 3.4392 1.464 0
M  V30 32 C -9.7731 -1.4168 -0.9389 0
M  V30 33 C 14.126 3.7977 2.3538 0
M  V30 34 C -10.4299 -0.063 -0.6295 0
M  V30 35 C 15.3839 2.9988 1.9887 0
M  V30 36 C -9.7303 0.6838 0.5179 0
M  V30 37 C 16.5758 3.4296 2.8377 0
M  V30 38 C -10.5415 1.8897 1.0197 0
M  V30 39 C -10.6739 2.9973 -0.0361 0
M  V30 40 C -11.2485 4.3057 0.5334 0
M  V30 41 C -12.7082 4.1767 1.0177 0
M  V30 42 C -12.7967 4.0645 2.5485 0
M  V30 43 C -14.2395 3.8074 3.0014 0
M  V30 44 C -14.333 3.7422 4.5314 0
M  V30 45 C -15.7507 3.4078 4.9847 0
M  V30 46 H 4.0763 -2.4282 -1.0618 0
M  V30 47 H 6.2521 -2.4792 -3.6011 0
M  V30 48 H 6.3101 -2.2008 -1.8424 0
M  V30 49 H 1.9518 -0.8437 -2.4278 0
M  V30 50 H 1.7739 -1.9526 -1.022 0
M  V30 51 H 6.5431 0.1843 -3.8175 0
M  V30 52 H 7.9231 -0.8925 -3.4966 0
M  V30 53 H 2.2245 -2.845 -3.9437 0
M  V30 54 H 2.0418 -3.9328 -2.5099 0
M  V30 55 H 7.7306 -0.4497 -1.0193 0
M  V30 56 H 8.1935 0.9315 -2.0338 0
M  V30 57 H 0.0342 -1.9998 -3.5939 0
M  V30 58 H -0.1867 -2.8697 -2.1564 0
M  V30 59 H 6.6005 2.1429 -0.9643 0
M  V30 60 H 5.418 1.3023 -1.9986 0
M  V30 61 H -1.1807 -3.7101 -4.412 0
M  V30 62 H 0.4733 -4.296 -4.704 0
M  V30 63 H 4.6277 1.1104 0.262 0
M  V30 64 H 5.2175 -0.5003 -0.1981 0
M  V30 65 H -0.7213 -6.1328 -3.6989 0
M  V30 66 H 0.3437 -5.5041 -2.4126 0
M  V30 67 H 6.1 1.3133 1.992 0
M  V30 68 H 7.5006 0.8758 0.9732 0
M  V30 69 H -1.541 -4.8577 -1.1634 0
M  V30 70 H 5.5244 -1.0692 2.3038 0
M  V30 71 H 6.8526 -1.5902 1.2145 0
M  V30 72 H 7.3322 0.0445 3.8178 0
M  V30 73 H 7.2151 -1.7288 3.7708 0
M  V30 74 H -4.0421 -3.9014 -1.2214 0
M  V30 75 H -4.1478 -5.6643 -0.9283 0
M  V30 76 H 9.078 -1.643 1.8847 0
M  V30 77 H 9.4949 -1.546 3.5986 0
M  V30 78 H -5.6601 -5.8677 -2.9863 0
M  V30 79 H -6.3505 -5.033 -1.5862 0
M  V30 80 H 10.4517 0.4696 3.4141 0
M  V30 81 H 9.0137 1.2105 2.6725 0
M  V30 82 H -4.9764 -3.4495 -3.856 0
M  V30 83 H -6.6567 -4.0086 -4.0194 0
M  V30 84 H 9.7356 0.1921 0.4271 0
M  V30 85 H 11.2464 -0.3602 1.2126 0
M  V30 86 H -5.7017 -2.2819 -1.6298 0
M  V30 87 H -6.2852 -1.6048 -3.1817 0
M  V30 88 H 11.3487 1.8443 -0.1054 0
M  V30 89 H 10.2948 2.5904 1.137 0
M  V30 90 H -8.4582 -2.9226 -2.8738 0
M  V30 91 H -7.8856 -3.3744 -1.2219 0
M  V30 92 H 13.0495 1.2733 1.6464 0
M  V30 93 H 12.031 2.0824 2.8978 0
M  V30 94 H -7.6699 -0.9235 -0.6643 0
M  V30 95 H -8.327 -0.5159 -2.2985 0
M  V30 96 H 13.23 3.4477 0.3953 0
M  V30 97 H 12.1525 4.2285 1.5972 0
M  V30 98 H -10.3985 -1.9309 -1.7032 0
M  V30 99 H -9.7674 -2.0497 -0.0243 0
M  V30 100 H 14.3437 4.8795 2.2218 0
M  V30 101 H 13.8675 3.6338 3.4234 0
M  V30 102 H -10.4283 0.5618 -1.5496 0
M  V30 103 H -11.4902 -0.2497 -0.349 0
M  V30 104 H 15.6301 3.1514 0.9144 0
M  V30 105 H 15.2107 1.913 2.1588 0
M  V30 106 H -8.7276 1.0295 0.1937 0
M  V30 107 H -9.5904 -0.0135 1.3722 0
M  V30 108 H 17.4715 2.8437 2.5426 0
M  V30 109 H 16.7906 4.5117 2.6876 0
M  V30 110 H 16.366 3.2426 3.9128 0
M  V30 111 H -10.0272 2.2996 1.9155 0
M  V30 112 H -11.5494 1.5431 1.3337 0
M  V30 113 H -9.6683 3.2169 -0.4572 0
M  V30 114 H -11.3217 2.6506 -0.8689 0
M  V30 115 H -11.2206 5.0622 -0.2832 0
M  V30 116 H -10.5879 4.6924 1.34 0
M  V30 117 H -13.2063 3.3045 0.5358 0
M  V30 118 H -13.2726 5.0824 0.7029 0
M  V30 119 H -12.1507 3.2356 2.9121 0
M  V30 120 H -12.4305 5.0129 3.0039 0
M  V30 121 H -14.5909 2.8436 2.5696 0
M  V30 122 H -14.8968 4.6257 2.6306 0
M  V30 123 H -14.04 4.7232 4.9637 0
M  V30 124 H -13.639 2.9668 4.9219 0
M  V30 125 H -16.0489 2.405 4.6158 0
M  V30 126 H -15.795 3.4048 6.0937 0
M  V30 127 H -16.4655 4.1644 4.6052 0
M  V30 END ATOM
M  V30 BEGIN BOND
M  V30 1 2 1 2
M  V30 2 1 2 3
M  V30 3 1 2 4
M  V30 4 1 3 5
M  V30 5 1 4 6
M  V30 6 1 5 7
M  V30 7 1 6 8
M  V30 8 1 7 9
M  V30 9 1 8 10
M  V30 10 1 9 11
M  V30 11 1 10 12
M  V30 12 1 11 13
M  V30 13 1 12 14
M  V30 14 1 13 15
M  V30 15 1 14 16
M  V30 16 1 15 17
M  V30 17 1 16 18
M  V30 18 2 17 19
M  V30 19 1 17 20
M  V30 20 1 18 21
M  V30 21 1 20 22
M  V30 22 1 21 23
M  V30 23 1 22 24
M  V30 24 1 23 25
M  V30 25 1 24 26
M  V30 26 1 25 27
M  V30 27 1 26 28
M  V30 28 1 27 29
M  V30 29 1 28 30
M  V30 30 1 29 31
M  V30 31 1 30 32
M  V30 32 1 31 33
M  V30 33 1 32 34
M  V30 34 1 33 35
M  V30 35 1 34 36
M  V30 36 1 35 37
M  V30 37 1 36 38
M  V30 38 1 38 39
M  V30 39 1 39 40
M  V30 40 1 40 41
M  V30 41 1 41 42
M  V30 42 1 42 43
M  V30 43 1 43 44
M  V30 44 1 44 45
M  V30 45 1 3 46
M  V30 46 1 4 47
M  V30 47 1 4 48
M  V30 48 1 5 49
M  V30 49 1 5 50
M  V30 50 1 6 51
M  V30 51 1 6 52
M  V30 52 1 7 53
M  V30 53 1 7 54
M  V30 54 1 8 55
M  V30 55 1 8 56
M  V30 56 1 9 57
M  V30 57 1 9 58
M  V30 58 1 10 59
M  V30 59 1 10 60
M  V30 60 1 11 61
M  V30 61 1 11 62
M  V30 62 1 12 63
M  V30 63 1 12 64
M  V30 64 1 13 65
M  V30 65 1 13 66
M  V30 66 1 14 67
M  V30 67 1 14 68
M  V30 68 1 15 69
M  V30 69 1 16 70
M  V30 70 1 16 71
M  V30 71 1 18 72
M  V30 72 1 18 73
M  V30 73 1 20 74
M  V30 74 1 20 75
M  V30 75 1 21 76
M  V30 76 1 21 77
M  V30 77 1 22 78
M  V30 78 1 22 79
M  V30 79 1 23 80
M  V30 80 1 23 81
M  V30 81 1 24 82
M  V30 82 1 24 83
M  V30 83 1 25 84
M  V30 84 1 25 85
M  V30 85 1 26 86
M  V30 86 1 26 87
M  V30 87 1 27 88
M  V30 88 1 27 89
M  V30 89 1 28 90
M  V30 90 1 28 91
M  V30 91 1 29 92
M  V30 92 1 29 93
M  V30 93 1 30 94
M  V30 94 1 30 95
M  V30 95 1 31 96
M  V30 96 1 31 97
M  V30 97 1 32 98
M  V30 98 1 32 99
M  V30 99 1 33 100
M  V30 100 1 33 101
M  V30 101 1 34 102
M  V30 102 1 34 103
M  V30 103 1 35 104
M  V30 104 1 35 105
M  V30 105 1 36 106
M  V30 106 1 36 107
M  V30 107 1 37 108
M  V30 108 1 37 109
M  V30 109 1 37 110
M  V30 110 1 38 111
M  V30 111 1 38 112
M  V30 112 1 39 113
M  V30 113 1 39 114
M  V30 114 1 40 115
M  V30 115 1 40 116
M  V30 116 1 41 117
M  V30 117 1 41 118
M  V30 118 1 42 119
M  V30 119 1 42 120
M  V30 120 1 43 121
M  V30 121 1 43 122
M  V30 122 1 44 123
M  V30 123 1 44 124
M  V30 124 1 45 125
M  V30 125 1 45 126
M  V30 126 1 45 127
M  V30 END BOND
M  V30 END CTAB
M  END
>  <Structure No>
1377

>  <LogS>
-7.138082495

>  <MMFF94 Energy>
-44.609

$$$$
Compound 1378
Actelion Java MolfileCreator 2.0

  0  0  0  0  0  0              0 V3000
M  V30 BEGIN CTAB
M  V30 COUNTS 87 86 0 0 0
M  V30 BEGIN ATOM
M  V30 1 O -6.6372 3.3533 -0.6232 0
M  V30 2 C -6.3066 2.1384 -0.7129 0
M  V30 3 N -7.1399 1.2177 -1.4303 0
M  V30 4 C -4.9992 1.6638 -0.1432 0
M  V30 5 C -8.4552 1.5858 -1.9531 0
M  V30 6 C -4.5515 2.4959 1.0725 0
M  V30 7 C -9.4902 1.7478 -0.8302 0
M  V30 8 C -3.3652 1.8608 1.8152 0
M  V30 9 C -9.5544 0.5904 0.2009 0
M  V30 10 C -2.0768 1.8529 0.9752 0
M  V30 11 N -10.09 -0.714 -0.278 0 CHG=1
M  V30 12 C -0.8502 1.361 1.7627 0
M  V30 13 C -11.2693 -0.5904 -1.1525 0
M  V30 14 C -9.0608 -1.5721 -0.8935 0
M  V30 15 C -0.9574 -0.0771 2.311 0
M  V30 16 C -1.294 -1.1557 1.265 0
M  V30 17 C -0.2577 -1.3106 0.1374 0
M  V30 18 C 1.086 -1.9064 0.606 0
M  V30 19 C 2.1875 -0.8403 0.7192 0
M  V30 20 C 3.5267 -1.4108 1.22 0
M  V30 21 C 4.1814 -2.4544 0.2905 0
M  V30 22 C 4.4025 -1.9901 -1.1626 0
M  V30 23 C 5.2074 -0.6849 -1.3196 0
M  V30 24 C 6.6294 -0.7226 -0.7337 0
M  V30 25 C 7.5761 -1.6368 -1.5277 0
M  V30 26 C 8.9851 -1.7169 -0.9143 0
M  V30 27 C 9.7568 -0.3807 -0.9563 0
M  V30 28 C 9.7682 0.3282 0.4101 0
M  V30 29 C 10.2633 1.7796 0.3185 0
M  V30 30 C 11.7454 1.8785 -0.0369 0
M  V30 31 H -6.7732 0.2608 -1.6329 0
M  V30 32 H -5.1099 0.5993 0.1609 0
M  V30 33 H -4.234 1.7224 -0.9458 0
M  V30 34 H -8.8009 0.8279 -2.6829 0
M  V30 35 H -8.3733 2.5406 -2.5165 0
M  V30 36 H -5.3998 2.5764 1.7892 0
M  V30 37 H -4.2823 3.5258 0.7472 0
M  V30 38 H -10.4892 1.939 -1.2749 0
M  V30 39 H -9.2356 2.6739 -0.2696 0
M  V30 40 H -3.1836 2.4429 2.7444 0
M  V30 41 H -3.6394 0.8264 2.1111 0
M  V30 42 H -8.5551 0.4549 0.6703 0
M  V30 43 H -10.2072 0.9488 1.0292 0
M  V30 44 H -2.2047 1.2311 0.068 0
M  V30 45 H -1.8677 2.8886 0.6327 0
M  V30 46 H -10.4134 -1.2269 0.5776 0
M  V30 47 H -0.6782 2.0481 2.6186 0
M  V30 48 H 0.0435 1.4449 1.1102 0
M  V30 49 H -10.9898 -0.2087 -2.1595 0
M  V30 50 H -11.7494 -1.5845 -1.2883 0
M  V30 51 H -12.0254 0.0878 -0.6964 0
M  V30 52 H -8.1531 -1.6256 -0.2536 0
M  V30 53 H -9.4482 -2.6091 -1.0018 0
M  V30 54 H -8.7736 -1.2218 -1.9031 0
M  V30 55 H -1.7342 -0.1026 3.1034 0
M  V30 56 H -0.0056 -0.3411 2.8172 0
M  V30 57 H -2.2851 -0.9408 0.8149 0
M  V30 58 H -1.4043 -2.1305 1.7866 0
M  V30 59 H -0.6978 -2.0074 -0.6101 0
M  V30 60 H -0.1126 -0.349 -0.4003 0
M  V30 61 H 1.401 -2.662 -0.1439 0
M  V30 62 H 0.9697 -2.4351 1.5772 0
M  V30 63 H 1.8701 -0.0595 1.4376 0
M  V30 64 H 2.3269 -0.3378 -0.2593 0
M  V30 65 H 3.3695 -1.8779 2.2165 0
M  V30 66 H 4.2358 -0.5701 1.379 0
M  V30 67 H 5.1551 -2.7594 0.7281 0
M  V30 68 H 3.5599 -3.3741 0.2763 0
M  V30 69 H 3.4148 -1.8575 -1.6547 0
M  V30 70 H 4.9051 -2.8068 -1.7226 0
M  V30 71 H 4.6501 0.1504 -0.8449 0
M  V30 72 H 5.272 -0.4385 -2.4026 0
M  V30 73 H 7.0205 0.3152 -0.7726 0
M  V30 74 H 6.6041 -1.0258 0.3325 0
M  V30 75 H 7.166 -2.6686 -1.549 0
M  V30 76 H 7.6475 -1.2782 -2.5785 0
M  V30 77 H 9.5584 -2.4665 -1.5047 0
M  V30 78 H 8.9238 -2.1149 0.1236 0
M  V30 79 H 9.3339 0.2889 -1.7367 0
M  V30 80 H 10.8083 -0.5931 -1.246 0
M  V30 81 H 10.4045 -0.2441 1.1203 0
M  V30 82 H 8.7427 0.3475 0.8338 0
M  V30 83 H 10.1081 2.2671 1.3051 0
M  V30 84 H 9.6606 2.337 -0.4302 0
M  V30 85 H 12.3576 1.2958 0.6837 0
M  V30 86 H 12.0624 2.9414 0.0048 0
M  V30 87 H 11.9264 1.5043 -1.0658 0
M  V30 END ATOM
M  V30 BEGIN BOND
M  V30 1 2 1 2
M  V30 2 1 2 3
M  V30 3 1 2 4
M  V30 4 1 3 5
M  V30 5 1 4 6
M  V30 6 1 5 7
M  V30 7 1 6 8
M  V30 8 1 7 9
M  V30 9 1 8 10
M  V30 10 1 9 11
M  V30 11 1 10 12
M  V30 12 1 11 13
M  V30 13 1 11 14
M  V30 14 1 12 15
M  V30 15 1 15 16
M  V30 16 1 16 17
M  V30 17 1 17 18
M  V30 18 1 18 19
M  V30 19 1 19 20
M  V30 20 1 20 21
M  V30 21 1 21 22
M  V30 22 1 22 23
M  V30 23 1 23 24
M  V30 24 1 24 25
M  V30 25 1 25 26
M  V30 26 1 26 27
M  V30 27 1 27 28
M  V30 28 1 28 29
M  V30 29 1 29 30
M  V30 30 1 3 31
M  V30 31 1 4 32
M  V30 32 1 4 33
M  V30 33 1 5 34
M  V30 34 1 5 35
M  V30 35 1 6 36
M  V30 36 1 6 37
M  V30 37 1 7 38
M  V30 38 1 7 39
M  V30 39 1 8 40
M  V30 40 1 8 41
M  V30 41 1 9 42
M  V30 42 1 9 43
M  V30 43 1 10 44
M  V30 44 1 10 45
M  V30 45 1 11 46
M  V30 46 1 12 47
M  V30 47 1 12 48
M  V30 48 1 13 49
M  V30 49 1 13 50
M  V30 50 1 13 51
M  V30 51 1 14 52
M  V30 52 1 14 53
M  V30 53 1 14 54
M  V30 54 1 15 55
M  V30 55 1 15 56
M  V30 56 1 16 57
M  V30 57 1 16 58
M  V30 58 1 17 59
M  V30 59 1 17 60
M  V30 60 1 18 61
M  V30 61 1 18 62
M  V30 62 1 19 63
M  V30 63 1 19 64
M  V30 64 1 20 65
M  V30 65 1 20 66
M  V30 66 1 21 67
M  V30 67 1 21 68
M  V30 68 1 22 69
M  V30 69 1 22 70
M  V30 70 1 23 71
M  V30 71 1 23 72
M  V30 72 1 24 73
M  V30 73 1 24 74
M  V30 74 1 25 75
M  V30 75 1 25 76
M  V30 76 1 26 77
M  V30 77 1 26 78
M  V30 78 1 27 79
M  V30 79 1 27 80
M  V30 80 1 28 81
M  V30 81 1 28 82
M  V30 82 1 29 83
M  V30 83 1 29 84
M  V30 84 1 30 85
M  V30 85 1 30 86
M  V30 86 1 30 87
M  V30 END BOND
M  V30 END CTAB
M  END
>  <Structure No>
1378

>  <LogS>
-6.628141567

>  <MMFF94 Energy>
-27.109

$$$$
Compound 1379
Actelion Java MolfileCreator 2.0

  0  0  0  0  0  0              0 V3000
M  V30 BEGIN CTAB
M  V30 COUNTS 63 62 0 0 0
M  V30 BEGIN ATOM
M  V30 1 O -7.7507 2.1091 -0.9369 0
M  V30 2 C -9.1382 1.8564 -0.809 0
M  V30 3 C -7.0058 1.1881 -0.1672 0
M  V30 4 C -9.7566 2.781 0.2371 0
M  V30 5 C -5.5346 1.5996 -0.1853 0
M  V30 6 O -9.5547 4.1141 -0.121 0 RAD=2
M  V30 7 C -4.6714 0.6168 0.6155 0
M  V30 8 C -3.2011 1.0582 0.6199 0
M  V30 9 C -2.3094 0.1498 1.4857 0
M  V30 10 C -2.0556 -1.2514 0.9002 0
M  V30 11 C -1.1794 -1.2134 -0.3635 0
M  V30 12 C -0.7841 -2.6134 -0.8687 0
M  V30 13 C 0.071 -3.455 0.1022 0
M  V30 14 C 1.3089 -2.7435 0.6761 0
M  V30 15 C 2.3091 -2.3083 -0.4049 0
M  V30 16 C 3.5382 -1.6483 0.2309 0
M  V30 17 C 4.5266 -1.1645 -0.8366 0
M  V30 18 C 5.7087 -0.4303 -0.192 0
M  V30 19 C 6.6874 0.0858 -1.2574 0
M  V30 20 C 7.9167 0.7767 -0.6455 0
M  V30 21 C 7.5816 2.1435 -0.0288 0
M  V30 22 C 8.844 2.8565 0.4476 0
M  V30 23 H -9.618 2.0643 -1.7887 0
M  V30 24 H -9.381 0.7946 -0.5626 0
M  V30 25 H -7.3574 1.1748 0.89 0
M  V30 26 H -7.0997 0.1673 -0.6024 0
M  V30 27 H -10.8471 2.5856 0.3057 0
M  V30 28 H -9.3016 2.5967 1.2325 0
M  V30 29 H -5.1791 1.6323 -1.2383 0
M  V30 30 H -5.4407 2.6192 0.2486 0
M  V30 31 H -4.7626 -0.3914 0.1624 0
M  V30 32 H -5.0426 0.5711 1.6621 0
M  V30 33 H -3.1434 2.0853 1.0424 0
M  V30 34 H -2.8154 1.1157 -0.4189 0
M  V30 35 H -1.3313 0.6554 1.6414 0
M  V30 36 H -2.7723 0.0405 2.4906 0
M  V30 37 H -3.013 -1.7677 0.6827 0
M  V30 38 H -1.5389 -1.8385 1.6876 0
M  V30 39 H -1.7464 -0.7215 -1.181 0
M  V30 40 H -0.271 -0.6004 -0.1866 0
M  V30 41 H -1.7092 -3.1833 -1.1043 0
M  V30 42 H -0.2335 -2.4992 -1.8268 0
M  V30 43 H 0.4016 -4.3734 -0.4298 0
M  V30 44 H -0.5643 -3.7972 0.9465 0
M  V30 45 H 1.8167 -3.4508 1.3679 0
M  V30 46 H 0.997 -1.8685 1.2845 0
M  V30 47 H 1.8268 -1.5775 -1.0895 0
M  V30 48 H 2.6269 -3.1951 -0.9971 0
M  V30 49 H 3.2073 -0.7807 0.8439 0
M  V30 50 H 4.0468 -2.3786 0.8982 0
M  V30 51 H 4.9019 -2.0379 -1.4137 0
M  V30 52 H 4.0056 -0.4749 -1.5371 0
M  V30 53 H 6.2414 -1.1244 0.4953 0
M  V30 54 H 5.3164 0.4231 0.4011 0
M  V30 55 H 7.0428 -0.777 -1.8622 0
M  V30 56 H 6.1663 0.7868 -1.9455 0
M  V30 57 H 8.3763 0.1165 0.1218 0
M  V30 58 H 8.666 0.9233 -1.4547 0
M  V30 59 H 6.9046 2.0149 0.8418 0
M  V30 60 H 7.0718 2.7836 -0.7807 0
M  V30 61 H 9.3659 2.245 1.2134 0
M  V30 62 H 9.5304 3.0405 -0.4059 0
M  V30 63 H 8.571 3.8336 0.899 0
M  V30 END ATOM
M  V30 BEGIN BOND
M  V30 1 1 1 2
M  V30 2 1 1 3
M  V30 3 1 2 4
M  V30 4 1 3 5
M  V30 5 1 4 6
M  V30 6 1 5 7
M  V30 7 1 7 8
M  V30 8 1 8 9
M  V30 9 1 9 10
M  V30 10 1 10 11
M  V30 11 1 11 12
M  V30 12 1 12 13
M  V30 13 1 13 14
M  V30 14 1 14 15
M  V30 15 1 15 16
M  V30 16 1 16 17
M  V30 17 1 17 18
M  V30 18 1 18 19
M  V30 19 1 19 20
M  V30 20 1 20 21
M  V30 21 1 21 22
M  V30 22 1 2 23
M  V30 23 1 2 24
M  V30 24 1 3 25
M  V30 25 1 3 26
M  V30 26 1 4 27
M  V30 27 1 4 28
M  V30 28 1 5 29
M  V30 29 1 5 30
M  V30 30 1 7 31
M  V30 31 1 7 32
M  V30 32 1 8 33
M  V30 33 1 8 34
M  V30 34 1 9 35
M  V30 35 1 9 36
M  V30 36 1 10 37
M  V30 37 1 10 38
M  V30 38 1 11 39
M  V30 39 1 11 40
M  V30 40 1 12 41
M  V30 41 1 12 42
M  V30 42 1 13 43
M  V30 43 1 13 44
M  V30 44 1 14 45
M  V30 45 1 14 46
M  V30 46 1 15 47
M  V30 47 1 15 48
M  V30 48 1 16 49
M  V30 49 1 16 50
M  V30 50 1 17 51
M  V30 51 1 17 52
M  V30 52 1 18 53
M  V30 53 1 18 54
M  V30 54 1 19 55
M  V30 55 1 19 56
M  V30 56 1 20 57
M  V30 57 1 20 58
M  V30 58 1 21 59
M  V30 59 1 21 60
M  V30 60 1 22 61
M  V30 61 1 22 62
M  V30 62 1 22 63
M  V30 END BOND
M  V30 END CTAB
M  END
>  <Structure No>
1379

>  <LogS>
-6.496301265

>  <MMFF94 Energy>
26.272

$$$$
Compound 1380
Actelion Java MolfileCreator 2.0

  0  0  0  0  0  0              0 V3000
M  V30 BEGIN CTAB
M  V30 COUNTS 74 73 0 0 0
M  V30 BEGIN ATOM
M  V30 1 O 0.7054 -0.4702 -2.5885 0
M  V30 2 C 1.6067 -0.9505 -1.8506 0
M  V30 3 O 1.3056 -1.4073 -0.5629 0
M  V30 4 C 3.0274 -0.9584 -2.3229 0
M  V30 5 O 0.0264 -1.6022 -0.1132 0
M  V30 6 C 3.719 0.3932 -2.0871 0
M  V30 7 C -0.9744 -2.2073 -0.8797 0
M  V30 8 C 3.8066 0.8198 -0.6076 0
M  V30 9 O -0.6851 -2.8374 -1.9326 0
M  V30 10 C -2.4001 -2.1056 -0.4406 0
M  V30 11 C 4.5466 -0.1667 0.3133 0
M  V30 12 C -3.1056 -0.9654 -1.1856 0
M  V30 13 C 6.0032 -0.4047 -0.1105 0
M  V30 14 C -4.5846 -0.8312 -0.7898 0
M  V30 15 C 6.7524 -1.2344 0.942 0
M  V30 16 C -4.7641 -0.2013 0.6029 0
M  V30 17 C 8.153 -1.6726 0.4763 0
M  V30 18 C -6.2321 0.1341 0.9097 0
M  V30 19 C 9.1179 -0.5205 0.1432 0
M  V30 20 C -7.0887 -1.1222 1.1338 0
M  V30 21 C 9.3959 0.395 1.344 0
M  V30 22 C -8.4798 -0.801 1.7075 0
M  V30 23 C 10.4945 1.4121 1.0152 0
M  V30 24 C -9.3984 -0.052 0.7193 0
M  V30 25 C 10.7489 2.3489 2.1929 0
M  V30 26 C -9.4695 1.4542 1.013 0
M  V30 27 C -10.3729 2.1684 0.0013 0
M  V30 28 C -10.4145 3.6712 0.2628 0
M  V30 29 H 3.0409 -1.1774 -3.4117 0
M  V30 30 H 3.5873 -1.7774 -1.8263 0
M  V30 31 H 4.7384 0.3593 -2.5261 0
M  V30 32 H 3.1639 1.1798 -2.6439 0
M  V30 33 H 4.3175 1.8057 -0.5574 0
M  V30 34 H 2.7803 0.9747 -0.2105 0
M  V30 35 H -2.4235 -1.9236 0.6536 0
M  V30 36 H -2.9166 -3.0685 -0.6442 0
M  V30 37 H 4.5372 0.2614 1.3397 0
M  V30 38 H 4.0009 -1.1326 0.3596 0
M  V30 39 H -3.057 -1.1694 -2.2777 0
M  V30 40 H -2.5756 -0.005 -1.0025 0
M  V30 41 H 6.0244 -0.9492 -1.0787 0
M  V30 42 H 6.5059 0.5782 -0.236 0
M  V30 43 H -5.0711 -1.8297 -0.8274 0
M  V30 44 H -5.084 -0.1839 -1.5441 0
M  V30 45 H 6.824 -0.667 1.8938 0
M  V30 46 H 6.1671 -2.1555 1.1553 0
M  V30 47 H -4.368 -0.8788 1.3891 0
M  V30 48 H -4.1819 0.7449 0.6494 0
M  V30 49 H 8.0461 -2.3148 -0.4243 0
M  V30 50 H 8.6082 -2.3033 1.2705 0
M  V30 51 H -6.2564 0.7581 1.8301 0
M  V30 52 H -6.6512 0.7359 0.0753 0
M  V30 53 H 8.725 0.0768 -0.7065 0
M  V30 54 H 10.0764 -0.9727 -0.1933 0
M  V30 55 H -7.2042 -1.6809 0.1805 0
M  V30 56 H -6.5702 -1.7912 1.8547 0
M  V30 57 H 8.469 0.9455 1.6135 0
M  V30 58 H 9.7132 -0.2201 2.2147 0
M  V30 59 H -8.3789 -0.2456 2.6661 0
M  V30 60 H -8.9631 -1.7706 1.9584 0
M  V30 61 H 10.1928 2.0171 0.1324 0
M  V30 62 H 11.4387 0.8787 0.7701 0
M  V30 63 H -9.066 -0.2208 -0.3283 0
M  V30 64 H -10.4254 -0.4695 0.8068 0
M  V30 65 H 9.8271 2.9171 2.4408 0
M  V30 66 H 11.0736 1.77 3.0833 0
M  V30 67 H 11.55 3.07 1.9273 0
M  V30 68 H -9.8752 1.6086 2.037 0
M  V30 69 H -8.4539 1.8986 0.9729 0
M  V30 70 H -11.4057 1.762 0.0705 0
M  V30 71 H -9.9956 1.9944 -1.0302 0
M  V30 72 H -9.3995 4.1108 0.1509 0
M  V30 73 H -11.0925 4.1567 -0.4706 0
M  V30 74 H -10.7931 3.8763 1.288 0
M  V30 END ATOM
M  V30 BEGIN BOND
M  V30 1 2 1 2
M  V30 2 1 2 3
M  V30 3 1 2 4
M  V30 4 1 3 5
M  V30 5 1 4 6
M  V30 6 1 5 7
M  V30 7 1 6 8
M  V30 8 2 7 9
M  V30 9 1 7 10
M  V30 10 1 8 11
M  V30 11 1 10 12
M  V30 12 1 11 13
M  V30 13 1 12 14
M  V30 14 1 13 15
M  V30 15 1 14 16
M  V30 16 1 15 17
M  V30 17 1 16 18
M  V30 18 1 17 19
M  V30 19 1 18 20
M  V30 20 1 19 21
M  V30 21 1 20 22
M  V30 22 1 21 23
M  V30 23 1 22 24
M  V30 24 1 23 25
M  V30 25 1 24 26
M  V30 26 1 26 27
M  V30 27 1 27 28
M  V30 28 1 4 29
M  V30 29 1 4 30
M  V30 30 1 6 31
M  V30 31 1 6 32
M  V30 32 1 8 33
M  V30 33 1 8 34
M  V30 34 1 10 35
M  V30 35 1 10 36
M  V30 36 1 11 37
M  V30 37 1 11 38
M  V30 38 1 12 39
M  V30 39 1 12 40
M  V30 40 1 13 41
M  V30 41 1 13 42
M  V30 42 1 14 43
M  V30 43 1 14 44
M  V30 44 1 15 45
M  V30 45 1 15 46
M  V30 46 1 16 47
M  V30 47 1 16 48
M  V30 48 1 17 49
M  V30 49 1 17 50
M  V30 50 1 18 51
M  V30 51 1 18 52
M  V30 52 1 19 53
M  V30 53 1 19 54
M  V30 54 1 20 55
M  V30 55 1 20 56
M  V30 56 1 21 57
M  V30 57 1 21 58
M  V30 58 1 22 59
M  V30 59 1 22 60
M  V30 60 1 23 61
M  V30 61 1 23 62
M  V30 62 1 24 63
M  V30 63 1 24 64
M  V30 64 1 25 65
M  V30 65 1 25 66
M  V30 66 1 25 67
M  V30 67 1 26 68
M  V30 68 1 26 69
M  V30 69 1 27 70
M  V30 70 1 27 71
M  V30 71 1 28 72
M  V30 72 1 28 73
M  V30 73 1 28 74
M  V30 END BOND
M  V30 END CTAB
M  END
>  <Structure No>
1380

>  <LogS>
-6.600567801

>  <MMFF94 Energy>
15.42

$$$$
Compound 1381
Actelion Java MolfileCreator 2.0

  0  0  0  0  0  0              0 V3000
M  V30 BEGIN CTAB
M  V30 COUNTS 49 49 0 0 0
M  V30 BEGIN ATOM
M  V30 1 Cl -8.5301 2.4656 2.2268 0
M  V30 2 C -7.0425 1.7165 1.6766 0
M  V30 3 C -6.8483 1.4636 0.3165 0
M  V30 4 C -6.0515 1.3737 2.598 0
M  V30 5 C -5.6598 0.8637 -0.1318 0
M  V30 6 C -4.8658 0.7762 2.1648 0
M  V30 7 C -4.6585 0.5112 0.7956 0
M  V30 8 C -5.4597 0.5929 -1.5966 0
M  V30 9 O -3.4793 -0.087 0.3153 0
M  V30 10 C -2.4166 -0.6127 1.1138 0 CFG=2
M  V30 11 C -1.2122 -0.8177 0.2472 0
M  V30 12 C -2.8286 -1.9459 1.7429 0
M  V30 13 O -1.3446 -1.3029 -0.9102 0
M  V30 14 O 0.0566 -0.5121 0.7525 0
M  V30 15 C 1.2567 -0.646 -0.0061 0
M  V30 16 C 1.3958 0.5141 -0.9983 0
M  V30 17 C 2.5769 0.337 -1.9671 0
M  V30 18 C 3.957 0.3914 -1.2779 0
M  V30 19 C 4.5633 -1.0078 -1.0803 0
M  V30 20 C 5.9808 -0.9644 -0.486 0
M  V30 21 C 6.02 -0.4717 0.9762 0
M  V30 22 C 6.5606 0.953 1.0938 0
M  V30 23 H -7.6242 1.7348 -0.3889 0
M  V30 24 H -6.1986 1.5704 3.6524 0
M  V30 25 H -4.1202 0.5295 2.9061 0
M  V30 26 H -5.3266 -0.4972 -1.7599 0
M  V30 27 H -4.5548 1.1273 -1.9554 0
M  V30 28 H -6.3283 0.9335 -2.1996 0
M  V30 29 H -2.1418 0.1133 1.9087 0
M  V30 30 H -1.9916 -2.3598 2.3452 0
M  V30 31 H -3.7017 -1.8079 2.4127 0
M  V30 32 H -3.1041 -2.6775 0.9531 0
M  V30 33 H 2.11 -0.6244 0.7027 0
M  V30 34 H 1.2659 -1.624 -0.5354 0
M  V30 35 H 1.5049 1.469 -0.4393 0
M  V30 36 H 0.4663 0.5886 -1.6025 0
M  V30 37 H 2.5256 1.1688 -2.7035 0
M  V30 38 H 2.4496 -0.6027 -2.5482 0
M  V30 39 H 3.8758 0.9169 -0.3033 0
M  V30 40 H 4.6488 0.9838 -1.9162 0
M  V30 41 H 3.9106 -1.6296 -0.4329 0
M  V30 42 H 4.6253 -1.5126 -2.0691 0
M  V30 43 H 6.3824 -2.0011 -0.5127 0
M  V30 44 H 6.6452 -0.3554 -1.1382 0
M  V30 45 H 6.6878 -1.1381 1.5647 0
M  V30 46 H 5.0136 -0.5252 1.4463 0
M  V30 47 H 6.5478 1.268 2.1586 0
M  V30 48 H 5.9425 1.6631 0.5078 0
M  V30 49 H 7.6077 0.9964 0.7259 0
M  V30 END ATOM
M  V30 BEGIN BOND
M  V30 1 1 1 2
M  V30 2 2 2 3
M  V30 3 1 2 4
M  V30 4 1 3 5
M  V30 5 2 4 6
M  V30 6 2 5 7
M  V30 7 1 5 8
M  V30 8 1 7 9
M  V30 9 1 9 10
M  V30 10 1 10 11
M  V30 11 1 10 12
M  V30 12 2 11 13
M  V30 13 1 11 14
M  V30 14 1 14 15
M  V30 15 1 15 16
M  V30 16 1 16 17
M  V30 17 1 17 18
M  V30 18 1 18 19
M  V30 19 1 19 20
M  V30 20 1 20 21
M  V30 21 1 21 22
M  V30 22 1 6 7
M  V30 23 1 3 23
M  V30 24 1 4 24
M  V30 25 1 6 25
M  V30 26 1 8 26
M  V30 27 1 8 27
M  V30 28 1 8 28
M  V30 29 1 10 29
M  V30 30 1 12 30
M  V30 31 1 12 31
M  V30 32 1 12 32
M  V30 33 1 15 33
M  V30 34 1 15 34
M  V30 35 1 16 35
M  V30 36 1 16 36
M  V30 37 1 17 37
M  V30 38 1 17 38
M  V30 39 1 18 39
M  V30 40 1 18 40
M  V30 41 1 19 41
M  V30 42 1 19 42
M  V30 43 1 20 43
M  V30 44 1 20 44
M  V30 45 1 21 45
M  V30 46 1 21 46
M  V30 47 1 22 47
M  V30 48 1 22 48
M  V30 49 1 22 49
M  V30 END BOND
M  V30 BEGIN COLLECTION
M  V30 MDLV30/STEABS ATOMS=(1 10)
M  V30 END COLLECTION
M  V30 END CTAB
M  END
>  <Structure No>
1381

>  <LogS>
-6.514367091

>  <MMFF94 Energy>
40.104

$$$$
Compound 1382
Actelion Java MolfileCreator 2.0

  0  0  0  0  0  0              0 V3000
M  V30 BEGIN CTAB
M  V30 COUNTS 2 1 0 0 0
M  V30 BEGIN ATOM
M  V30 1 N 0 0 0 0
M  V30 2 C 0 0 0 0
M  V30 END ATOM
M  V30 BEGIN BOND
M  V30 1 3 1 2
M  V30 END BOND
M  V30 END CTAB
M  END
>  <Structure No>
1382

>  <LogS>
-6.126735167

>  <MMFF94 Energy>
MMFF94 error code 2

$$$$
Compound 1383
Actelion Java MolfileCreator 2.0

  0  0  0  0  0  0              0 V3000
M  V30 BEGIN CTAB
M  V30 COUNTS 39 38 0 0 0
M  V30 BEGIN ATOM
M  V30 1 O 0 0 0 0
M  V30 2 C 0 0 0 0
M  V30 3 O 0 0 0 0
M  V30 4 C 0 0 0 0
M  V30 5 C 0 0 0 0
M  V30 6 C 0 0 0 0
M  V30 7 C 0 0 0 0
M  V30 8 C 0 0 0 0
M  V30 9 C 0 0 0 0
M  V30 10 C 0 0 0 0
M  V30 11 C 0 0 0 0
M  V30 12 C 0 0 0 0
M  V30 13 O 0 0 0 0
M  V30 14 O 0 0 0 0
M  V30 15 C 0 0 0 0
M  V30 16 C 0 0 0 0
M  V30 17 C 0 0 0 0
M  V30 18 C 0 0 0 0
M  V30 19 C 0 0 0 0
M  V30 20 O 0 0 0 0
M  V30 21 C 0 0 0 0
M  V30 22 O 0 0 0 0
M  V30 23 C 0 0 0 0
M  V30 24 C 0 0 0 0
M  V30 25 C 0 0 0 0
M  V30 26 C 0 0 0 0
M  V30 27 C 0 0 0 0
M  V30 28 C 0 0 0 0
M  V30 29 C 0 0 0 0
M  V30 30 C 0 0 0 0
M  V30 31 C 0 0 0 0
M  V30 32 C 0 0 0 0
M  V30 33 C 0 0 0 0
M  V30 34 C 0 0 0 0
M  V30 35 C 0 0 0 0
M  V30 36 C 0 0 0 0
M  V30 37 C 0 0 0 0
M  V30 38 C 0 0 0 0
M  V30 39 C 0 0 0 0
M  V30 END ATOM
M  V30 BEGIN BOND
M  V30 1 2 1 2
M  V30 2 1 2 3
M  V30 3 1 2 4
M  V30 4 1 3 5
M  V30 5 1 4 6
M  V30 6 1 5 7
M  V30 7 1 6 8
M  V30 8 1 7 9
M  V30 9 1 7 10
M  V30 10 1 7 11
M  V30 11 1 8 12
M  V30 12 1 9 13
M  V30 13 1 10 14
M  V30 14 1 11 15
M  V30 15 1 12 16
M  V30 16 1 13 17
M  V30 17 1 14 18
M  V30 18 1 16 19
M  V30 19 2 17 20
M  V30 20 1 17 21
M  V30 21 2 18 22
M  V30 22 1 18 23
M  V30 23 1 19 24
M  V30 24 1 21 25
M  V30 25 1 23 26
M  V30 26 1 24 27
M  V30 27 1 25 28
M  V30 28 1 26 29
M  V30 29 1 28 30
M  V30 30 1 29 31
M  V30 31 1 30 32
M  V30 32 1 31 33
M  V30 33 1 32 34
M  V30 34 1 33 35
M  V30 35 1 34 36
M  V30 36 1 35 37
M  V30 37 1 36 38
M  V30 38 1 37 39
M  V30 END BOND
M  V30 END CTAB
M  END
>  <Structure No>
1383

>  <LogS>
-6.841087952

>  <MMFF94 Energy>
-25.713

$$$$
Compound 1384
Actelion Java MolfileCreator 2.0

  0  0  0  0  0  0              0 V3000
M  V30 BEGIN CTAB
M  V30 COUNTS 44 44 0 0 0
M  V30 BEGIN ATOM
M  V30 1 O -1.1018 -0.6295 2.5199 0
M  V30 2 C -0.5249 -0.4196 1.2674 0
M  V30 3 C -1.3062 -0.0071 0.1558 0
M  V30 4 C 0.8526 -0.6303 1.1359 0
M  V30 5 C -0.6246 0.1513 -1.0742 0
M  V30 6 C -2.8429 0.2461 0.2819 0
M  V30 7 C 1.5362 -0.441 -0.0818 0
M  V30 8 C 0.7555 -0.0636 -1.2062 0
M  V30 9 C -3.4779 0.7064 -1.0807 0
M  V30 10 C -3.5397 -1.066 0.7234 0
M  V30 11 C -3.0916 1.3593 1.332 0
M  V30 12 C 3.0721 -0.6945 -0.1013 0
M  V30 13 O 1.3193 0.1007 -2.4703 0
M  V30 14 C -4.9844 1.0083 -1.0778 0
M  V30 15 C 3.788 0.1384 1.0124 0
M  V30 16 C 3.3158 -2.1952 0.183 0
M  V30 17 C 3.7696 -0.3827 -1.4504 0
M  V30 18 C 3.5237 1.6472 0.9398 0
M  V30 19 H -0.5579 -0.9236 3.3229 0
M  V30 20 H 1.3918 -0.9531 2.015 0
M  V30 21 H -1.1436 0.4431 -1.972 0
M  V30 22 H -3.316 -0.0839 -1.8467 0
M  V30 23 H -2.9711 1.6344 -1.4269 0
M  V30 24 H -3.4353 -1.8416 -0.0654 0
M  V30 25 H -3.1246 -1.4797 1.6602 0
M  V30 26 H -4.6185 -0.9053 0.9232 0
M  V30 27 H -4.1746 1.4955 1.5291 0
M  V30 28 H -2.6406 1.1354 2.3152 0
M  V30 29 H -2.6698 2.3244 0.9774 0
M  V30 30 H 0.7701 0.3684 -3.279 0
M  V30 31 H -5.5817 0.1156 -0.8056 0
M  V30 32 H -5.2308 1.854 -0.4052 0
M  V30 33 H -5.2908 1.3067 -2.1027 0
M  V30 34 H 3.4906 -0.2132 2.0225 0
M  V30 35 H 4.8876 -0.0224 0.9568 0
M  V30 36 H 2.9444 -2.4885 1.1874 0
M  V30 37 H 2.7959 -2.8228 -0.5731 0
M  V30 38 H 4.4012 -2.4343 0.148 0
M  V30 39 H 4.8697 -0.5181 -1.3644 0
M  V30 40 H 3.5936 0.6647 -1.7707 0
M  V30 41 H 3.43 -1.0783 -2.2478 0
M  V30 42 H 2.4376 1.8663 1.0033 0
M  V30 43 H 3.9341 2.0793 0.0047 0
M  V30 44 H 4.0258 2.1477 1.7946 0
M  V30 END ATOM
M  V30 BEGIN BOND
M  V30 1 1 1 2
M  V30 2 2 2 3
M  V30 3 1 2 4
M  V30 4 1 3 5
M  V30 5 1 3 6
M  V30 6 2 4 7
M  V30 7 2 5 8
M  V30 8 1 6 9
M  V30 9 1 6 10
M  V30 10 1 6 11
M  V30 11 1 7 12
M  V30 12 1 8 13
M  V30 13 1 9 14
M  V30 14 1 12 15
M  V30 15 1 12 16
M  V30 16 1 12 17
M  V30 17 1 15 18
M  V30 18 1 7 8
M  V30 19 1 1 19
M  V30 20 1 4 20
M  V30 21 1 5 21
M  V30 22 1 9 22
M  V30 23 1 9 23
M  V30 24 1 10 24
M  V30 25 1 10 25
M  V30 26 1 10 26
M  V30 27 1 11 27
M  V30 28 1 11 28
M  V30 29 1 11 29
M  V30 30 1 13 30
M  V30 31 1 14 31
M  V30 32 1 14 32
M  V30 33 1 14 33
M  V30 34 1 15 34
M  V30 35 1 15 35
M  V30 36 1 16 36
M  V30 37 1 16 37
M  V30 38 1 16 38
M  V30 39 1 17 39
M  V30 40 1 17 40
M  V30 41 1 17 41
M  V30 42 1 18 42
M  V30 43 1 18 43
M  V30 44 1 18 44
M  V30 END BOND
M  V30 END CTAB
M  END
>  <Structure No>
1384

>  <LogS>
-6.495513117

>  <MMFF94 Energy>
42.35

$$$$
Compound 1385
Actelion Java MolfileCreator 2.0

  0  0  0  0  0  0              0 V3000
M  V30 BEGIN CTAB
M  V30 COUNTS 65 70 0 0 0
M  V30 BEGIN ATOM
M  V30 1 O 5.9341 -1.136 0.4867 0
M  V30 2 C 5.0071 -0.2054 -0.0373 0
M  V30 3 C 7.1988 -0.6749 0.1286 0
M  V30 4 O 5.676 0.8197 -0.7432 0
M  V30 5 C 4.0431 -0.9593 -1.0087 0
M  V30 6 C 4.254 0.438 1.1578 0
M  V30 7 C 6.9832 0.3761 -0.9125 0
M  V30 8 C 2.5988 -0.6832 -0.6626 0
M  V30 9 C 3.0512 1.3277 0.7417 0
M  V30 10 C 1.8721 -1.6591 -0.0876 0
M  V30 11 C 2.2147 0.7781 -0.4709 0 CFG=2
M  V30 12 C 0.6647 -1.3662 0.7049 0
M  V30 13 C 0.6719 0.9149 -0.1824 0 CFG=2
M  V30 14 C 2.5804 1.6072 -1.735 0
M  V30 15 C 0.1888 -0.1117 0.8089 0
M  V30 16 C -0.2626 0.8364 -1.4332 0
M  V30 17 C -1.1763 0.2352 1.3731 0 CFG=1
M  V30 18 C -1.6095 0.0948 -1.1988 0
M  V30 19 C -2.2412 0.2936 0.2275 0 CFG=1
M  V30 20 C -1.7352 -0.6495 2.5042 0
M  V30 21 C -3.2021 -0.8886 0.5796 0 CFG=1
M  V30 22 C -2.9416 1.6747 0.2718 0
M  V30 23 C -3.1604 -1.0004 2.1048 0
M  V30 24 C -4.6527 -0.8683 -0.008 0
M  V30 25 O -5.4237 0.1408 0.6067 0
M  V30 26 O -4.589 -0.6548 -1.4 0
M  V30 27 C -5.3362 -2.2301 0.24 0
M  V30 28 C -6.2376 0.6583 -0.4 0
M  V30 29 C -5.6646 0.1804 -1.7073 0
M  V30 30 H 7.8133 -1.5122 -0.2689 0
M  V30 31 H 7.6965 -0.2412 1.0248 0
M  V30 32 H 4.2272 -0.6402 -2.057 0
M  V30 33 H 4.2543 -2.0521 -0.9911 0
M  V30 34 H 3.8773 -0.3751 1.8181 0
M  V30 35 H 4.9632 1.0419 1.7656 0
M  V30 36 H 7.0972 -0.0526 -1.9332 0
M  V30 37 H 7.6928 1.2211 -0.7809 0
M  V30 38 H 2.408 1.4379 1.6428 0
M  V30 39 H 3.4269 2.3534 0.5279 0
M  V30 40 H 2.2229 -2.6837 -0.1047 0
M  V30 41 H 0.1738 -2.2067 1.1679 0
M  V30 42 H 0.5149 1.9257 0.2604 0
M  V30 43 H 2.266 1.0975 -2.6687 0
M  V30 44 H 3.6716 1.7756 -1.8189 0
M  V30 45 H 2.0994 2.6082 -1.6948 0
M  V30 46 H -0.4728 1.8674 -1.7938 0
M  V30 47 H 0.243 0.2974 -2.2608 0
M  V30 48 H -1.055 1.2451 1.83 0
M  V30 49 H -1.411 -0.9859 -1.3688 0
M  V30 50 H -2.3253 0.3992 -1.9922 0
M  V30 51 H -1.1586 -1.5763 2.6817 0
M  V30 52 H -1.744 -0.0929 3.4686 0
M  V30 53 H -2.7228 -1.824 0.2078 0
M  V30 54 H -3.4707 1.8252 1.2369 0
M  V30 55 H -2.1929 2.4887 0.1609 0
M  V30 56 H -3.6631 1.7918 -0.5588 0
M  V30 57 H -3.8624 -0.2746 2.5707 0
M  V30 58 H -3.4194 -2.0254 2.4493 0
M  V30 59 H -6.3375 -2.252 -0.2408 0
M  V30 60 H -4.7305 -3.0568 -0.1904 0
M  V30 61 H -5.4787 -2.409 1.3265 0
M  V30 62 H -6.2351 1.7684 -0.3473 0
M  V30 63 H -7.2772 0.2874 -0.2643 0
M  V30 64 H -5.3041 1.0373 -2.3169 0
M  V30 65 H -6.4238 -0.3875 -2.2883 0
M  V30 END ATOM
M  V30 BEGIN BOND
M  V30 1 1 1 2
M  V30 2 1 1 3
M  V30 3 1 2 4
M  V30 4 1 2 5
M  V30 5 1 2 6
M  V30 6 1 3 7
M  V30 7 1 5 8
M  V30 8 1 6 9
M  V30 9 2 8 10
M  V30 10 1 8 11
M  V30 11 1 10 12
M  V30 12 1 11 13
M  V30 13 1 11 14
M  V30 14 2 12 15
M  V30 15 1 13 16
M  V30 16 1 15 17
M  V30 17 1 16 18
M  V30 18 1 17 19
M  V30 19 1 17 20
M  V30 20 1 19 21
M  V30 21 1 19 22
M  V30 22 1 20 23
M  V30 23 1 21 24
M  V30 24 1 24 25
M  V30 25 1 24 26
M  V30 26 1 24 27
M  V30 27 1 25 28
M  V30 28 1 26 29
M  V30 29 1 4 7
M  V30 30 1 9 11
M  V30 31 1 13 15
M  V30 32 1 18 19
M  V30 33 1 21 23
M  V30 34 1 28 29
M  V30 35 1 3 30
M  V30 36 1 3 31
M  V30 37 1 5 32
M  V30 38 1 5 33
M  V30 39 1 6 34
M  V30 40 1 6 35
M  V30 41 1 7 36
M  V30 42 1 7 37
M  V30 43 1 9 38
M  V30 44 1 9 39
M  V30 45 1 10 40
M  V30 46 1 12 41
M  V30 47 1 13 42
M  V30 48 1 14 43
M  V30 49 1 14 44
M  V30 50 1 14 45
M  V30 51 1 16 46
M  V30 52 1 16 47
M  V30 53 1 17 48
M  V30 54 1 18 49
M  V30 55 1 18 50
M  V30 56 1 20 51
M  V30 57 1 20 52
M  V30 58 1 21 53
M  V30 59 1 22 54
M  V30 60 1 22 55
M  V30 61 1 22 56
M  V30 62 1 23 57
M  V30 63 1 23 58
M  V30 64 1 27 59
M  V30 65 1 27 60
M  V30 66 1 27 61
M  V30 67 1 28 62
M  V30 68 1 28 63
M  V30 69 1 29 64
M  V30 70 1 29 65
M  V30 END BOND
M  V30 BEGIN COLLECTION
M  V30 MDLV30/STEABS ATOMS=(5 11 13 17 19 21)
M  V30 END COLLECTION
M  V30 END CTAB
M  END
>  <Structure No>
1385

>  <LogS>
-6.700119715

>  <MMFF94 Energy>
128.34

$$$$
Compound 1386
Actelion Java MolfileCreator 2.0

  0  0  0  0  0  0              0 V3000
M  V30 BEGIN CTAB
M  V30 COUNTS 36 36 0 0 0
M  V30 BEGIN ATOM
M  V30 1 O -0.2369 3.2416 1.264 0
M  V30 2 C -0.7903 3.0571 0.1461 0
M  V30 3 O -0.7089 1.8187 -0.4999 0
M  V30 4 C -1.5087 4.1831 -0.5152 0
M  V30 5 C 0.0046 0.6974 0.0259 0 CFG=1
M  V30 6 C -0.4797 -0.5961 -0.6901 0 CFG=2
M  V30 7 C 1.5153 0.8901 -0.184 0
M  V30 8 C -1.8991 -1.0283 -0.199 0
M  V30 9 C 0.5828 -1.7367 -0.655 0
M  V30 10 C 2.3297 -0.2485 0.4794 0 CFG=1
M  V30 11 C -2.6003 -1.9341 -1.224 0
M  V30 12 C -1.906 -1.6961 1.1877 0
M  V30 13 C 1.56 -1.5944 0.5191 0
M  V30 14 C 3.6897 -0.4058 -0.213 0
M  V30 15 H -0.7761 4.834 -1.0358 0
M  V30 16 H -2.0588 4.7813 0.2415 0
M  V30 17 H -2.2348 3.787 -1.2556 0
M  V30 18 H -0.1888 0.6227 1.1175 0
M  V30 19 H -0.5879 -0.3197 -1.7643 0
M  V30 20 H 1.8397 1.8625 0.245 0
M  V30 21 H 1.7157 0.9298 -1.2783 0
M  V30 22 H -2.5245 -0.1109 -0.12 0
M  V30 23 H 1.1729 -1.7117 -1.5976 0
M  V30 24 H 0.1118 -2.7397 -0.6182 0
M  V30 25 H 2.532 0.047 1.5334 0
M  V30 26 H -2.0727 -2.9036 -1.3356 0
M  V30 27 H -2.6459 -1.434 -2.2147 0
M  V30 28 H -3.6433 -2.139 -0.9003 0
M  V30 29 H -1.3719 -2.6683 1.1731 0
M  V30 30 H -1.4427 -1.0416 1.9523 0
M  V30 31 H -2.953 -1.8861 1.5071 0
M  V30 32 H 2.2637 -2.4553 0.5199 0
M  V30 33 H 0.9873 -1.6569 1.4693 0
M  V30 34 H 3.5581 -0.7516 -1.2605 0
M  V30 35 H 4.3148 -1.1441 0.3327 0
M  V30 36 H 4.2296 0.5651 -0.2195 0
M  V30 END ATOM
M  V30 BEGIN BOND
M  V30 1 2 1 2
M  V30 2 1 2 3
M  V30 3 1 2 4
M  V30 4 1 3 5
M  V30 5 1 5 6
M  V30 6 1 5 7
M  V30 7 1 6 8
M  V30 8 1 6 9
M  V30 9 1 7 10
M  V30 10 1 8 11
M  V30 11 1 8 12
M  V30 12 1 9 13
M  V30 13 1 10 14
M  V30 14 1 10 13
M  V30 15 1 4 15
M  V30 16 1 4 16
M  V30 17 1 4 17
M  V30 18 1 5 18
M  V30 19 1 6 19
M  V30 20 1 7 20
M  V30 21 1 7 21
M  V30 22 1 8 22
M  V30 23 1 9 23
M  V30 24 1 9 24
M  V30 25 1 10 25
M  V30 26 1 11 26
M  V30 27 1 11 27
M  V30 28 1 11 28
M  V30 29 1 12 29
M  V30 30 1 12 30
M  V30 31 1 12 31
M  V30 32 1 13 32
M  V30 33 1 13 33
M  V30 34 1 14 34
M  V30 35 1 14 35
M  V30 36 1 14 36
M  V30 END BOND
M  V30 BEGIN COLLECTION
M  V30 MDLV30/STEABS ATOMS=(3 5 6 10)
M  V30 END COLLECTION
M  V30 END CTAB
M  END
>  <Structure No>
1386

>  <LogS>
-4.066886933

>  <MMFF94 Energy>
10.749

$$$$
Compound 1387
Actelion Java MolfileCreator 2.0

  0  0  0  0  0  0              0 V3000
M  V30 BEGIN CTAB
M  V30 COUNTS 58 66 0 0 0
M  V30 BEGIN ATOM
M  V30 1 N 2.3643 2.3643 -0.1629 0
M  V30 2 C 1.0839 2.7823 -0.3372 0
M  V30 3 C 2.7694 1.0923 0.086 0
M  V30 4 N -0.0116 1.9929 -0.2173 0
M  V30 5 C 0.6936 4.1575 -0.6117 0
M  V30 6 N 1.9501 0.013 0.1289 0
M  V30 7 C 4.1548 0.6885 0.2758 0
M  V30 8 C -1.0939 2.7871 -0.4248 0
M  V30 9 C -0.6751 4.1613 -0.6621 0
M  V30 10 C 1.4386 5.3223 -0.7844 0
M  V30 11 C 2.7369 -1.0694 0.3616 0
M  V30 12 C 4.1349 -0.6706 0.4445 0
M  V30 13 C 5.3452 1.4128 0.2838 0
M  V30 14 N -2.3855 2.3969 -0.2561 0
M  V30 15 C -1.3986 5.331 -0.8867 0
M  V30 16 C 0.7374 6.5199 -1.0191 0
M  V30 17 N 2.3071 -2.3592 0.3393 0
M  V30 18 C 5.3045 -1.4047 0.6311 0
M  V30 19 C 6.544 0.7009 0.4761 0
M  V30 20 C -2.8247 1.127 -0.0493 0
M  V30 21 C -0.6751 6.5243 -1.0696 0
M  V30 22 C 1.0152 -2.7786 0.2799 0
M  V30 23 C 6.5236 -0.7018 0.6486 0
M  V30 24 N -2.0795 0.0084 -0.2025 0
M  V30 25 C -4.0932 0.7883 0.3785 0
M  V30 26 N -0.0703 -1.9922 0.462 0
M  V30 27 C 0.6146 -4.0688 -0.006 0
M  V30 28 C -2.8458 -1.0305 0.2103 0
M  V30 29 C -4.1079 -0.5779 0.5383 0
M  V30 30 C -5.21 1.5724 0.6651 0
M  V30 31 C -1.1568 -2.7613 0.2067 0
M  V30 32 C -0.7602 -4.0588 -0.0475 0
M  V30 33 C 1.3477 -5.2272 -0.2597 0
M  V30 34 N -2.4461 -2.33 0.2464 0
M  V30 35 C -5.2414 -1.2521 0.99 0
M  V30 36 C -6.3714 0.9176 1.1162 0
M  V30 37 C -1.4944 -5.2072 -0.3403 0
M  V30 38 C 0.6325 -6.4039 -0.5511 0
M  V30 39 C -6.3874 -0.4867 1.2771 0
M  V30 40 C -0.7805 -6.3941 -0.5905 0
M  V30 41 H 2.5197 5.3078 -0.7372 0
M  V30 42 H 5.3488 2.4861 0.1445 0
M  V30 43 H -2.4804 5.3229 -0.9194 0
M  V30 44 H 1.2835 7.4438 -1.1585 0
M  V30 45 H 5.277 -2.4791 0.758 0
M  V30 46 H 7.4874 1.2308 0.4889 0
M  V30 47 H -1.2042 7.4515 -1.2478 0
M  V30 48 H 7.4517 -1.2394 0.793 0
M  V30 49 H -1.1653 -0.057 -0.6955 0
M  V30 50 H -0.0741 -1.038 0.8776 0
M  V30 51 H -5.1872 2.6481 0.546 0
M  V30 52 H 2.4298 -5.2243 -0.2345 0
M  V30 53 H -5.2418 -2.3267 1.1202 0
M  V30 54 H -7.258 1.4946 1.3452 0
M  V30 55 H -2.576 -5.1886 -0.3784 0
M  V30 56 H 1.1691 -7.3224 -0.7503 0
M  V30 57 H -7.2859 -0.9769 1.6287 0
M  V30 58 H -1.3179 -7.3051 -0.8199 0
M  V30 END ATOM
M  V30 BEGIN BOND
M  V30 1 1 1 2
M  V30 2 2 1 3
M  V30 3 2 2 4
M  V30 4 1 2 5
M  V30 5 1 3 6
M  V30 6 1 3 7
M  V30 7 1 4 8
M  V30 8 2 5 9
M  V30 9 1 5 10
M  V30 10 2 6 11
M  V30 11 2 7 12
M  V30 12 1 7 13
M  V30 13 2 8 14
M  V30 14 1 9 15
M  V30 15 2 10 16
M  V30 16 1 11 17
M  V30 17 1 12 18
M  V30 18 2 13 19
M  V30 19 1 14 20
M  V30 20 2 15 21
M  V30 21 2 17 22
M  V30 22 2 18 23
M  V30 23 1 20 24
M  V30 24 2 20 25
M  V30 25 1 22 26
M  V30 26 1 22 27
M  V30 27 1 24 28
M  V30 28 1 25 29
M  V30 29 1 25 30
M  V30 30 1 26 31
M  V30 31 2 27 32
M  V30 32 1 27 33
M  V30 33 1 28 34
M  V30 34 1 29 35
M  V30 35 2 30 36
M  V30 36 1 32 37
M  V30 37 2 33 38
M  V30 38 2 35 39
M  V30 39 2 37 40
M  V30 40 1 8 9
M  V30 41 1 11 12
M  V30 42 1 16 21
M  V30 43 1 19 23
M  V30 44 2 28 29
M  V30 45 1 31 32
M  V30 46 2 31 34
M  V30 47 1 36 39
M  V30 48 1 38 40
M  V30 49 1 10 41
M  V30 50 1 13 42
M  V30 51 1 15 43
M  V30 52 1 16 44
M  V30 53 1 18 45
M  V30 54 1 19 46
M  V30 55 1 21 47
M  V30 56 1 23 48
M  V30 57 1 24 49
M  V30 58 1 26 50
M  V30 59 1 30 51
M  V30 60 1 33 52
M  V30 61 1 35 53
M  V30 62 1 36 54
M  V30 63 1 37 55
M  V30 64 1 38 56
M  V30 65 1 39 57
M  V30 66 1 40 58
M  V30 END BOND
M  V30 END CTAB
M  END
>  <Structure No>
1387

>  <LogS>
-6.983720983

>  <MMFF94 Energy>
67.294

$$$$
Compound 1388
Actelion Java MolfileCreator 2.0

  0  0  0  0  0  0              0 V3000
M  V30 BEGIN CTAB
M  V30 COUNTS 59 60 0 0 0
M  V30 BEGIN ATOM
M  V30 1 Cl 4.9299 -1.2105 0.1613 0
M  V30 2 C 5.5439 0.3109 -0.4714 0
M  V30 3 C 4.7133 1.2847 -1.0812 0
M  V30 4 C 6.9284 0.5166 -0.4124 0
M  V30 5 N 3.2886 1.1468 -1.1873 0
M  V30 6 C 5.299 2.4296 -1.6306 0
M  V30 7 C 7.509 1.6815 -0.9502 0
M  V30 8 N 2.6045 0.4087 -0.4125 0
M  V30 9 C 6.6786 2.6356 -1.5614 0
M  V30 10 N 8.9319 1.8848 -0.8765 0 CHG=1
M  V30 11 C 1.1851 0.2602 -0.5459 0
M  V30 12 O 9.4398 2.9707 -1.2319 0
M  V30 13 O 9.759 0.8888 -0.413 0 CHG=-1
M  V30 14 C 0.4719 -0.4636 0.428 0
M  V30 15 C 0.5013 0.7942 -1.6513 0
M  V30 16 N 1.1577 -0.9859 1.5804 0
M  V30 17 C -0.9204 -0.6087 0.3011 0
M  V30 18 C -0.8792 0.6326 -1.7758 0
M  V30 19 C 0.8462 -2.2474 2.1866 0
M  V30 20 C -1.6049 -0.0612 -0.7949 0
M  V30 21 O 0.1198 -3.0835 1.5869 0
M  V30 22 C 1.4502 -2.6045 3.505 0
M  V30 23 N -3.0401 -0.1763 -0.8847 0
M  V30 24 C -3.6847 -1.4853 -0.7135 0
M  V30 25 C -3.8689 1.0088 -1.1611 0
M  V30 26 C -4.4864 -1.5353 0.5911 0
M  V30 27 C -3.7716 2.02 -0.0167 0
M  V30 28 O -4.9585 -2.8564 0.8368 0
M  V30 29 O -2.4979 2.6653 -0.0494 0
M  V30 30 C -6.0147 -3.4381 0.1299 0
M  V30 31 C -1.6698 2.8264 1.0667 0
M  V30 32 O -6.6615 -2.7819 -0.7284 0
M  V30 33 C -6.4123 -4.8388 0.4353 0
M  V30 34 O -2.0325 2.4319 2.2094 0
M  V30 35 C -0.3296 3.4566 0.898 0
M  V30 36 H 7.5543 -0.2363 0.0452 0
M  V30 37 H 4.6784 3.1817 -2.1093 0
M  V30 38 H 7.0963 3.539 -1.9903 0
M  V30 39 H 1.0349 1.335 -2.4223 0
M  V30 40 H 1.9665 -0.4496 1.9665 0
M  V30 41 H -1.4783 -1.1093 1.0803 0
M  V30 42 H -1.3787 1.0497 -2.6402 0
M  V30 43 H 0.9786 -3.5206 3.9141 0
M  V30 44 H 2.5391 -2.7796 3.3784 0
M  V30 45 H 1.2945 -1.7716 4.2226 0
M  V30 46 H -4.3559 -1.6786 -1.5747 0
M  V30 47 H -2.9222 -2.2949 -0.706 0
M  V30 48 H -3.5636 1.4795 -2.1177 0
M  V30 49 H -4.9347 0.7158 -1.2775 0
M  V30 50 H -3.8357 -1.235 1.4343 0
M  V30 51 H -5.343 -0.8329 0.5557 0
M  V30 52 H -4.5593 2.7917 -0.1424 0
M  V30 53 H -3.9482 1.4971 0.951 0
M  V30 54 H -6.7872 -5.3394 -0.481 0
M  V30 55 H -7.2108 -4.8382 1.2048 0
M  V30 56 H -5.5355 -5.4007 0.8193 0
M  V30 57 H -0.1435 3.6768 -0.1741 0
M  V30 58 H 0.4587 2.7661 1.2666 0
M  V30 59 H -0.289 4.4039 1.4742 0
M  V30 END ATOM
M  V30 BEGIN BOND
M  V30 1 1 1 2
M  V30 2 2 2 3
M  V30 3 1 2 4
M  V30 4 1 3 5
M  V30 5 1 3 6
M  V30 6 2 4 7
M  V30 7 2 5 8
M  V30 8 2 6 9
M  V30 9 1 7 10
M  V30 10 1 8 11
M  V30 11 2 10 12
M  V30 12 1 10 13
M  V30 13 2 11 14
M  V30 14 1 11 15
M  V30 15 1 14 16
M  V30 16 1 14 17
M  V30 17 2 15 18
M  V30 18 1 16 19
M  V30 19 2 17 20
M  V30 20 2 19 21
M  V30 21 1 19 22
M  V30 22 1 20 23
M  V30 23 1 23 24
M  V30 24 1 23 25
M  V30 25 1 24 26
M  V30 26 1 25 27
M  V30 27 1 26 28
M  V30 28 1 27 29
M  V30 29 1 28 30
M  V30 30 1 29 31
M  V30 31 2 30 32
M  V30 32 1 30 33
M  V30 33 2 31 34
M  V30 34 1 31 35
M  V30 35 1 7 9
M  V30 36 1 18 20
M  V30 37 1 4 36
M  V30 38 1 6 37
M  V30 39 1 9 38
M  V30 40 1 15 39
M  V30 41 1 16 40
M  V30 42 1 17 41
M  V30 43 1 18 42
M  V30 44 1 22 43
M  V30 45 1 22 44
M  V30 46 1 22 45
M  V30 47 1 24 46
M  V30 48 1 24 47
M  V30 49 1 25 48
M  V30 50 1 25 49
M  V30 51 1 26 50
M  V30 52 1 26 51
M  V30 53 1 27 52
M  V30 54 1 27 53
M  V30 55 1 33 54
M  V30 56 1 33 55
M  V30 57 1 33 56
M  V30 58 1 35 57
M  V30 59 1 35 58
M  V30 60 1 35 59
M  V30 END BOND
M  V30 END CTAB
M  END
>  <Structure No>
1388

>  <LogS>
-6.963714867

>  <MMFF94 Energy>
85.497

$$$$
Compound 1389
Actelion Java MolfileCreator 2.0

  0  0  0  0  0  0              0 V3000
M  V30 BEGIN CTAB
M  V30 COUNTS 68 68 0 0 0
M  V30 BEGIN ATOM
M  V30 1 O 0 0 0 0
M  V30 2 C 0 0 0 0
M  V30 3 O 0 0 0 0
M  V30 4 C 0 0 0 0
M  V30 5 C 0 0 0 0
M  V30 6 C 0 0 0 0
M  V30 7 C 0 0 0 0
M  V30 8 C 0 0 0 0
M  V30 9 C 0 0 0 0
M  V30 10 O 0 0 0 0
M  V30 11 C 0 0 0 0
M  V30 12 O 0 0 0 0
M  V30 13 C 0 0 0 0
M  V30 14 C 0 0 0 0
M  V30 15 O 0 0 0 0
M  V30 16 C 0 0 0 0
M  V30 17 C 0 0 0 0
M  V30 18 C 0 0 0 0
M  V30 19 O 0 0 0 0
M  V30 20 C 0 0 0 0
M  V30 21 O 0 0 0 0
M  V30 22 C 0 0 0 0
M  V30 23 C 0 0 0 0
M  V30 24 C 0 0 0 0
M  V30 25 C 0 0 0 0
M  V30 26 O 0 0 0 0
M  V30 27 C 0 0 0 0
M  V30 28 C 0 0 0 0
M  V30 29 C 0 0 0 0
M  V30 30 C 0 0 0 0
M  V30 31 C 0 0 0 0
M  V30 32 C 0 0 0 0
M  V30 33 C 0 0 0 0
M  V30 34 C 0 0 0 0
M  V30 35 C 0 0 0 0
M  V30 36 C 0 0 0 0
M  V30 37 C 0 0 0 0
M  V30 38 C 0 0 0 0
M  V30 39 C 0 0 0 0
M  V30 40 C 0 0 0 0
M  V30 41 C 0 0 0 0
M  V30 42 C 0 0 0 0
M  V30 43 C 0 0 0 0
M  V30 44 C 0 0 0 0
M  V30 45 C 0 0 0 0
M  V30 46 C 0 0 0 0
M  V30 47 C 0 0 0 0
M  V30 48 C 0 0 0 0
M  V30 49 C 0 0 0 0
M  V30 50 C 0 0 0 0
M  V30 51 C 0 0 0 0
M  V30 52 C 0 0 0 0
M  V30 53 C 0 0 0 0
M  V30 54 C 0 0 0 0
M  V30 55 C 0 0 0 0
M  V30 56 C 0 0 0 0
M  V30 57 C 0 0 0 0
M  V30 58 C 0 0 0 0
M  V30 59 C 0 0 0 0
M  V30 60 C 0 0 0 0
M  V30 61 C 0 0 0 0
M  V30 62 C 0 0 0 0
M  V30 63 C 0 0 0 0
M  V30 64 C 0 0 0 0
M  V30 65 C 0 0 0 0
M  V30 66 C 0 0 0 0
M  V30 67 C 0 0 0 0
M  V30 68 C 0 0 0 0
M  V30 END ATOM
M  V30 BEGIN BOND
M  V30 1 2 1 2
M  V30 2 1 2 3
M  V30 3 1 2 4
M  V30 4 1 3 5
M  V30 5 1 4 6
M  V30 6 1 5 7
M  V30 7 1 5 8
M  V30 8 1 6 9
M  V30 9 1 7 10
M  V30 10 1 7 11
M  V30 11 1 8 12
M  V30 12 1 8 13
M  V30 13 1 9 14
M  V30 14 1 11 15
M  V30 15 1 11 16
M  V30 16 1 14 17
M  V30 17 1 15 18
M  V30 18 1 16 19
M  V30 19 1 17 20
M  V30 20 2 18 21
M  V30 21 1 18 22
M  V30 22 1 19 23
M  V30 23 1 20 24
M  V30 24 1 22 25
M  V30 25 2 23 26
M  V30 26 1 23 27
M  V30 27 1 24 28
M  V30 28 1 25 29
M  V30 29 1 27 30
M  V30 30 1 28 31
M  V30 31 1 29 32
M  V30 32 1 30 33
M  V30 33 1 31 34
M  V30 34 1 32 35
M  V30 35 1 33 36
M  V30 36 1 34 37
M  V30 37 1 35 38
M  V30 38 1 36 39
M  V30 39 1 37 40
M  V30 40 1 38 41
M  V30 41 1 39 42
M  V30 42 1 40 43
M  V30 43 1 41 44
M  V30 44 1 42 45
M  V30 45 1 43 46
M  V30 46 1 44 47
M  V30 47 1 45 48
M  V30 48 1 46 49
M  V30 49 1 47 50
M  V30 50 1 48 51
M  V30 51 1 49 52
M  V30 52 1 50 53
M  V30 53 1 51 54
M  V30 54 1 52 55
M  V30 55 1 53 56
M  V30 56 1 54 57
M  V30 57 1 56 58
M  V30 58 1 57 59
M  V30 59 1 58 60
M  V30 60 1 59 61
M  V30 61 1 60 62
M  V30 62 1 61 63
M  V30 63 1 62 64
M  V30 64 1 63 65
M  V30 65 1 64 66
M  V30 66 1 65 67
M  V30 67 1 67 68
M  V30 68 1 10 13
M  V30 END BOND
M  V30 END CTAB
M  END
>  <Structure No>
1389

>  <LogS>
-7.284910561

>  <MMFF94 Energy>
28.043

$$$$
Compound 1390
Actelion Java MolfileCreator 2.0

  0  0  0  0  0  0              0 V3000
M  V30 BEGIN CTAB
M  V30 COUNTS 70 70 0 0 0
M  V30 BEGIN ATOM
M  V30 1 O 3.3881 -0.9446 -2.7571 0
M  V30 2 C 3.3397 -1.7835 -1.8164 0
M  V30 3 O 3.6976 -1.4221 -0.5127 0
M  V30 4 C 2.8446 -3.1716 -2.083 0
M  V30 5 C 4.2034 -0.136 -0.1567 0
M  V30 6 C 1.4334 -3.3826 -1.5202 0
M  V30 7 C 5.7245 -0.0706 -0.3738 0 CFG=1
M  V30 8 C 0.3827 -2.5372 -2.2603 0
M  V30 9 O 5.998 -0.2602 -1.7389 0
M  V30 10 C 6.3064 1.2888 0.0793 0 CFG=2
M  V30 11 C -1.0602 -2.8631 -1.8343 0
M  V30 12 O 7.6744 1.3619 -0.2772 0
M  V30 13 C 6.1778 1.5227 1.5934 0 CFG=2
M  V30 14 C -1.3683 -2.6453 -0.3412 0
M  V30 15 C 8.4153 1.7204 0.868 0
M  V30 16 O 5.0397 2.2782 1.9345 0
M  V30 17 C 7.4617 2.2401 1.9301 0 CFG=2
M  V30 18 C -1.173 -1.1867 0.1063 0
M  V30 19 O 7.905 1.977 3.24 0
M  V30 20 C -1.5232 -0.9638 1.5888 0
M  V30 21 C -2.9953 -1.2281 1.9672 0
M  V30 22 C -4.0372 -0.4627 1.1318 0
M  V30 23 C -3.9043 1.0639 1.266 0
M  V30 24 C -4.9751 1.8215 0.4651 0
M  V30 25 C -6.3788 1.6971 1.0833 0
M  V30 26 C -7.3871 2.6899 0.4774 0
M  V30 27 C -7.6356 2.5142 -1.0313 0
M  V30 28 C -8.2283 1.1504 -1.3846 0
M  V30 29 H 3.537 -3.8909 -1.596 0
M  V30 30 H 2.8561 -3.3827 -3.1747 0
M  V30 31 H 3.6858 0.661 -0.7333 0
M  V30 32 H 3.9749 0.0249 0.9164 0
M  V30 33 H 1.173 -4.4585 -1.6222 0
M  V30 34 H 1.437 -3.1312 -0.4378 0
M  V30 35 H 6.1939 -0.8892 0.2228 0
M  V30 36 H 0.4651 -2.7379 -3.3508 0
M  V30 37 H 0.5859 -1.4554 -2.1168 0
M  V30 38 H 6.9072 -0.6536 -1.803 0
M  V30 39 H 5.7792 2.0977 -0.4748 0
M  V30 40 H -1.2761 -3.9241 -2.0874 0
M  V30 41 H -1.7551 -2.239 -2.4376 0
M  V30 42 H 6.1373 0.5503 2.1331 0
M  V30 43 H -0.7491 -3.3226 0.2836 0
M  V30 44 H -2.4281 -2.9364 -0.1856 0
M  V30 45 H 8.9659 0.823 1.2251 0
M  V30 46 H 9.1583 2.5017 0.6019 0
M  V30 47 H 5.0754 3.1388 1.4406 0
M  V30 48 H 7.3443 3.339 1.8006 0
M  V30 49 H -0.1048 -0.9101 -0.0152 0
M  V30 50 H -1.7629 -0.5028 -0.5391 0
M  V30 51 H 8.0602 0.9992 3.3276 0
M  V30 52 H -0.8792 -1.6235 2.2103 0
M  V30 53 H -1.2566 0.0784 1.8648 0
M  V30 54 H -3.2052 -2.316 1.8913 0
M  V30 55 H -3.1325 -0.961 3.0378 0
M  V30 56 H -3.9711 -0.7625 0.0648 0
M  V30 57 H -5.039 -0.7751 1.494 0
M  V30 58 H -3.9535 1.3585 2.3369 0
M  V30 59 H -2.9143 1.3783 0.8741 0
M  V30 60 H -4.9831 1.4458 -0.5805 0
M  V30 61 H -4.6869 2.8953 0.4385 0
M  V30 62 H -6.7613 0.6621 0.9706 0
M  V30 63 H -6.3152 1.9068 2.1734 0
M  V30 64 H -8.3545 2.5858 1.0158 0
M  V30 65 H -7.027 3.7262 0.6589 0
M  V30 66 H -6.6976 2.6748 -1.6033 0
M  V30 67 H -8.3527 3.2991 -1.3559 0
M  V30 68 H -7.476 0.3474 -1.2392 0
M  V30 69 H -8.5329 1.1465 -2.4523 0
M  V30 70 H -9.1226 0.9407 -0.7601 0
M  V30 END ATOM
M  V30 BEGIN BOND
M  V30 1 2 1 2
M  V30 2 1 2 3
M  V30 3 1 2 4
M  V30 4 1 3 5
M  V30 5 1 4 6
M  V30 6 1 5 7
M  V30 7 1 6 8
M  V30 8 1 7 9
M  V30 9 1 7 10
M  V30 10 1 8 11
M  V30 11 1 10 12
M  V30 12 1 10 13
M  V30 13 1 11 14
M  V30 14 1 12 15
M  V30 15 1 13 16
M  V30 16 1 13 17
M  V30 17 1 14 18
M  V30 18 1 17 19
M  V30 19 1 18 20
M  V30 20 1 20 21
M  V30 21 1 21 22
M  V30 22 1 22 23
M  V30 23 1 23 24
M  V30 24 1 24 25
M  V30 25 1 25 26
M  V30 26 1 26 27
M  V30 27 1 27 28
M  V30 28 1 15 17
M  V30 29 1 4 29
M  V30 30 1 4 30
M  V30 31 1 5 31
M  V30 32 1 5 32
M  V30 33 1 6 33
M  V30 34 1 6 34
M  V30 35 1 7 35
M  V30 36 1 8 36
M  V30 37 1 8 37
M  V30 38 1 9 38
M  V30 39 1 10 39
M  V30 40 1 11 40
M  V30 41 1 11 41
M  V30 42 1 13 42
M  V30 43 1 14 43
M  V30 44 1 14 44
M  V30 45 1 15 45
M  V30 46 1 15 46
M  V30 47 1 16 47
M  V30 48 1 17 48
M  V30 49 1 18 49
M  V30 50 1 18 50
M  V30 51 1 19 51
M  V30 52 1 20 52
M  V30 53 1 20 53
M  V30 54 1 21 54
M  V30 55 1 21 55
M  V30 56 1 22 56
M  V30 57 1 22 57
M  V30 58 1 23 58
M  V30 59 1 23 59
M  V30 60 1 24 60
M  V30 61 1 24 61
M  V30 62 1 25 62
M  V30 63 1 25 63
M  V30 64 1 26 64
M  V30 65 1 26 65
M  V30 66 1 27 66
M  V30 67 1 27 67
M  V30 68 1 28 68
M  V30 69 1 28 69
M  V30 70 1 28 70
M  V30 END BOND
M  V30 BEGIN COLLECTION
M  V30 MDLV30/STEABS ATOMS=(4 7 10 13 17)
M  V30 END COLLECTION
M  V30 END CTAB
M  END
>  <Structure No>
1390

>  <LogS>
-6.905873561

>  <MMFF94 Energy>
78.64

$$$$
Compound 1391
Actelion Java MolfileCreator 2.0

  0  0  0  0  0  0              0 V3000
M  V30 BEGIN CTAB
M  V30 COUNTS 54 54 0 0 0
M  V30 BEGIN ATOM
M  V30 1 O 0 0 0 0
M  V30 2 C 0 0 0 0
M  V30 3 O 0 0 0 0
M  V30 4 C 0 0 0 0
M  V30 5 C 0 0 0 0
M  V30 6 C 0 0 0 0
M  V30 7 C 0 0 0 0
M  V30 8 C 0 0 0 0
M  V30 9 C 0 0 0 0
M  V30 10 C 0 0 0 0
M  V30 11 C 0 0 0 0
M  V30 12 C 0 0 0 0
M  V30 13 O 0 0 0 0
M  V30 14 O 0 0 0 0
M  V30 15 C 0 0 0 0
M  V30 16 C 0 0 0 0
M  V30 17 C 0 0 0 0
M  V30 18 C 0 0 0 0
M  V30 19 O 0 0 0 0
M  V30 20 O 0 0 0 0
M  V30 21 C 0 0 0 0
M  V30 22 C 0 0 0 0
M  V30 23 C 0 0 0 0
M  V30 24 C 0 0 0 0
M  V30 25 C 0 0 0 0
M  V30 26 C 0 0 0 0
M  V30 27 C 0 0 0 0
M  V30 28 C 0 0 0 0
M  V30 29 C 0 0 0 0
M  V30 30 C 0 0 0 0
M  V30 31 C 0 0 0 0
M  V30 32 C 0 0 0 0
M  V30 33 C 0 0 0 0
M  V30 34 C 0 0 0 0
M  V30 35 C 0 0 0 0
M  V30 36 C 0 0 0 0
M  V30 37 C 0 0 0 0
M  V30 38 C 0 0 0 0
M  V30 39 C 0 0 0 0
M  V30 40 C 0 0 0 0
M  V30 41 C 0 0 0 0
M  V30 42 C 0 0 0 0
M  V30 43 C 0 0 0 0
M  V30 44 C 0 0 0 0
M  V30 45 C 0 0 0 0
M  V30 46 C 0 0 0 0
M  V30 47 C 0 0 0 0
M  V30 48 C 0 0 0 0
M  V30 49 C 0 0 0 0
M  V30 50 C 0 0 0 0
M  V30 51 C 0 0 0 0
M  V30 52 C 0 0 0 0
M  V30 53 C 0 0 0 0
M  V30 54 C 0 0 0 0
M  V30 END ATOM
M  V30 BEGIN BOND
M  V30 1 2 1 2
M  V30 2 1 2 3
M  V30 3 1 2 4
M  V30 4 1 3 5
M  V30 5 2 4 6
M  V30 6 1 4 7
M  V30 7 1 5 8
M  V30 8 1 6 9
M  V30 9 1 6 10
M  V30 10 2 7 11
M  V30 11 1 8 12
M  V30 12 2 9 13
M  V30 13 1 9 14
M  V30 14 2 10 15
M  V30 15 1 11 16
M  V30 16 1 12 17
M  V30 17 1 14 18
M  V30 18 2 16 19
M  V30 19 1 16 20
M  V30 20 1 17 21
M  V30 21 1 18 22
M  V30 22 1 20 23
M  V30 23 1 21 24
M  V30 24 1 22 25
M  V30 25 1 23 26
M  V30 26 1 24 27
M  V30 27 1 25 28
M  V30 28 1 26 29
M  V30 29 1 27 30
M  V30 30 1 28 31
M  V30 31 1 29 32
M  V30 32 1 30 33
M  V30 33 1 31 34
M  V30 34 1 32 35
M  V30 35 1 33 36
M  V30 36 1 34 37
M  V30 37 1 35 38
M  V30 38 1 36 39
M  V30 39 1 37 40
M  V30 40 1 38 41
M  V30 41 1 39 42
M  V30 42 1 39 43
M  V30 43 1 40 44
M  V30 44 1 41 45
M  V30 45 1 44 46
M  V30 46 1 45 47
M  V30 47 1 46 48
M  V30 48 1 47 49
M  V30 49 1 48 50
M  V30 50 1 48 51
M  V30 51 1 49 52
M  V30 52 1 52 53
M  V30 53 1 52 54
M  V30 54 1 11 15
M  V30 END BOND
M  V30 END CTAB
M  END
>  <Structure No>
1391

>  <LogS>
-7.18023716

>  <MMFF94 Energy>
29.874

$$$$
Compound 1392
Actelion Java MolfileCreator 2.0

  0  0  0  0  0  0              0 V3000
M  V30 BEGIN CTAB
M  V30 COUNTS 74 73 0 0 0
M  V30 BEGIN ATOM
M  V30 1 O -1.6508 3.1463 -1.1789 0
M  V30 2 C -1.1097 3.0894 -0.0419 0
M  V30 3 O -1.1655 1.917 0.7215 0
M  V30 4 C -0.4038 4.2902 0.5037 0
M  V30 5 C -1.7392 0.6941 0.2551 0
M  V30 6 C -1.4166 5.3471 0.9672 0
M  V30 7 C -0.8241 0.0538 -0.7993 0
M  V30 8 C -1.9678 -0.228 1.4615 0
M  V30 9 C -0.7481 6.5624 1.6298 0
M  V30 10 O 0.4639 -0.2014 -0.2462 0
M  V30 11 O -2.6722 -1.4095 1.0804 0
M  V30 12 C 0.1258 7.3681 0.6516 0
M  V30 13 C 1.5283 -0.6865 -1.0086 0
M  V30 14 C -2.0525 -2.6314 0.7983 0
M  V30 15 C 0.5381 8.7354 1.2178 0
M  V30 16 O 1.386 -0.9004 -2.2442 0
M  V30 17 C 2.8645 -0.883 -0.3608 0
M  V30 18 O -0.8055 -2.767 0.9195 0
M  V30 19 C -2.8815 -3.7799 0.3197 0
M  V30 20 C 1.5167 8.6193 2.3865 0
M  V30 21 C 3.4871 -2.2315 -0.753 0
M  V30 22 C -3.3663 -3.5281 -1.1152 0
M  V30 23 C 4.7742 -2.5397 0.0298 0
M  V30 24 C -4.1116 -4.7333 -1.711 0
M  V30 25 C 5.9236 -1.5818 -0.3194 0
M  V30 26 C -5.4409 -5.0205 -0.9887 0
M  V30 27 C 7.2289 -2.0171 0.3571 0
M  V30 28 C -6.3151 -6.0373 -1.7392 0
M  V30 29 C 8.3567 -1.0293 0.0696 0
M  V30 30 C -5.6851 -7.4285 -1.7942 0
M  V30 31 H 0.2399 3.9822 1.3569 0
M  V30 32 H 0.2498 4.7037 -0.294 0
M  V30 33 H -2.7295 0.9056 -0.2069 0
M  V30 34 H -2.0328 5.6848 0.1054 0
M  V30 35 H -2.1019 4.8842 1.7107 0
M  V30 36 H -1.269 -0.8901 -1.1789 0
M  V30 37 H -0.7235 0.7427 -1.6651 0
M  V30 38 H -2.5941 0.3174 2.1989 0
M  V30 39 H -1.0089 -0.4709 1.971 0
M  V30 40 H -1.5559 7.2213 2.0222 0
M  V30 41 H -0.1411 6.2206 2.4963 0
M  V30 42 H 1.0394 6.7913 0.3921 0
M  V30 43 H -0.4449 7.545 -0.286 0
M  V30 44 H -0.3626 9.3047 1.539 0
M  V30 45 H 1.03 9.3168 0.4067 0
M  V30 46 H 2.7426 -0.8374 0.7434 0
M  V30 47 H 3.5243 -0.0487 -0.6778 0
M  V30 48 H -3.7489 -3.8871 1.0047 0
M  V30 49 H -2.2841 -4.718 0.3603 0
M  V30 50 H 1.8528 9.6336 2.6883 0
M  V30 51 H 2.407 8.0245 2.0901 0
M  V30 52 H 1.0288 8.1428 3.2608 0
M  V30 53 H 3.7051 -2.247 -1.8438 0
M  V30 54 H 2.7538 -3.0405 -0.5434 0
M  V30 55 H -4.0257 -2.6321 -1.1403 0
M  V30 56 H -2.4838 -3.3176 -1.7598 0
M  V30 57 H 4.5688 -2.5012 1.1236 0
M  V30 58 H 5.0841 -3.5792 -0.2216 0
M  V30 59 H -4.3225 -4.511 -2.7804 0
M  V30 60 H -3.4515 -5.6271 -1.6725 0
M  V30 61 H 5.6702 -0.5553 0.0205 0
M  V30 62 H 6.0703 -1.5667 -1.4224 0
M  V30 63 H -5.246 -5.3984 0.0378 0
M  V30 64 H -6.0191 -4.0753 -0.8981 0
M  V30 65 H 7.0801 -2.0796 1.4568 0
M  V30 66 H 7.5264 -3.0204 -0.0162 0
M  V30 67 H -6.5196 -5.6804 -2.7731 0
M  V30 68 H -7.2923 -6.1151 -1.2116 0
M  V30 69 H 8.097 -0.0232 0.4655 0
M  V30 70 H 8.5375 -0.9562 -1.0236 0
M  V30 71 H 9.2894 -1.3749 0.5621 0
M  V30 72 H -6.4281 -8.1548 -2.1889 0
M  V30 73 H -4.8043 -7.4326 -2.4714 0
M  V30 74 H -5.3746 -7.757 -0.7798 0
M  V30 END ATOM
M  V30 BEGIN BOND
M  V30 1 2 1 2
M  V30 2 1 2 3
M  V30 3 1 2 4
M  V30 4 1 3 5
M  V30 5 1 4 6
M  V30 6 1 5 7
M  V30 7 1 5 8
M  V30 8 1 6 9
M  V30 9 1 7 10
M  V30 10 1 8 11
M  V30 11 1 9 12
M  V30 12 1 10 13
M  V30 13 1 11 14
M  V30 14 1 12 15
M  V30 15 2 13 16
M  V30 16 1 13 17
M  V30 17 2 14 18
M  V30 18 1 14 19
M  V30 19 1 15 20
M  V30 20 1 17 21
M  V30 21 1 19 22
M  V30 22 1 21 23
M  V30 23 1 22 24
M  V30 24 1 23 25
M  V30 25 1 24 26
M  V30 26 1 25 27
M  V30 27 1 26 28
M  V30 28 1 27 29
M  V30 29 1 28 30
M  V30 30 1 4 31
M  V30 31 1 4 32
M  V30 32 1 5 33
M  V30 33 1 6 34
M  V30 34 1 6 35
M  V30 35 1 7 36
M  V30 36 1 7 37
M  V30 37 1 8 38
M  V30 38 1 8 39
M  V30 39 1 9 40
M  V30 40 1 9 41
M  V30 41 1 12 42
M  V30 42 1 12 43
M  V30 43 1 15 44
M  V30 44 1 15 45
M  V30 45 1 17 46
M  V30 46 1 17 47
M  V30 47 1 19 48
M  V30 48 1 19 49
M  V30 49 1 20 50
M  V30 50 1 20 51
M  V30 51 1 20 52
M  V30 52 1 21 53
M  V30 53 1 21 54
M  V30 54 1 22 55
M  V30 55 1 22 56
M  V30 56 1 23 57
M  V30 57 1 23 58
M  V30 58 1 24 59
M  V30 59 1 24 60
M  V30 60 1 25 61
M  V30 61 1 25 62
M  V30 62 1 26 63
M  V30 63 1 26 64
M  V30 64 1 27 65
M  V30 65 1 27 66
M  V30 66 1 28 67
M  V30 67 1 28 68
M  V30 68 1 29 69
M  V30 69 1 29 70
M  V30 70 1 29 71
M  V30 71 1 30 72
M  V30 72 1 30 73
M  V30 73 1 30 74
M  V30 END BOND
M  V30 END CTAB
M  END
>  <Structure No>
1392

>  <LogS>
-6.933092295

>  <MMFF94 Energy>
-21.049

$$$$
Compound 1393
Actelion Java MolfileCreator 2.0

  0  0  0  0  0  0              0 V3000
M  V30 BEGIN CTAB
M  V30 COUNTS 66 65 0 0 0
M  V30 BEGIN ATOM
M  V30 1 O 0 0 0 0
M  V30 2 C 0 0 0 0
M  V30 3 O 0 0 0 0
M  V30 4 C 0 0 0 0
M  V30 5 C 0 0 0 0
M  V30 6 C 0 0 0 0
M  V30 7 C 0 0 0 0
M  V30 8 C 0 0 0 0
M  V30 9 C 0 0 0 0
M  V30 10 O 0 0 0 0
M  V30 11 O 0 0 0 0
M  V30 12 C 0 0 0 0
M  V30 13 C 0 0 0 0
M  V30 14 C 0 0 0 0
M  V30 15 C 0 0 0 0
M  V30 16 O 0 0 0 0
M  V30 17 C 0 0 0 0
M  V30 18 O 0 0 0 0
M  V30 19 C 0 0 0 0
M  V30 20 C 0 0 0 0
M  V30 21 C 0 0 0 0
M  V30 22 C 0 0 0 0
M  V30 23 C 0 0 0 0
M  V30 24 C 0 0 0 0
M  V30 25 C 0 0 0 0
M  V30 26 C 0 0 0 0
M  V30 27 C 0 0 0 0
M  V30 28 C 0 0 0 0
M  V30 29 C 0 0 0 0
M  V30 30 C 0 0 0 0
M  V30 31 C 0 0 0 0
M  V30 32 C 0 0 0 0
M  V30 33 C 0 0 0 0
M  V30 34 C 0 0 0 0
M  V30 35 C 0 0 0 0
M  V30 36 C 0 0 0 0
M  V30 37 C 0 0 0 0
M  V30 38 O 0 0 0 0
M  V30 39 C 0 0 0 0
M  V30 40 C 0 0 0 0
M  V30 41 C 0 0 0 0
M  V30 42 C 0 0 0 0
M  V30 43 C 0 0 0 0
M  V30 44 C 0 0 0 0
M  V30 45 C 0 0 0 0
M  V30 46 C 0 0 0 0
M  V30 47 C 0 0 0 0
M  V30 48 C 0 0 0 0
M  V30 49 C 0 0 0 0
M  V30 50 C 0 0 0 0
M  V30 51 C 0 0 0 0
M  V30 52 O 0 0 0 0
M  V30 53 C 0 0 0 0
M  V30 54 O 0 0 0 0
M  V30 55 C 0 0 0 0
M  V30 56 C 0 0 0 0
M  V30 57 C 0 0 0 0
M  V30 58 C 0 0 0 0
M  V30 59 C 0 0 0 0
M  V30 60 C 0 0 0 0
M  V30 61 C 0 0 0 0
M  V30 62 C 0 0 0 0
M  V30 63 C 0 0 0 0
M  V30 64 C 0 0 0 0
M  V30 65 C 0 0 0 0
M  V30 66 C 0 0 0 0
M  V30 END ATOM
M  V30 BEGIN BOND
M  V30 1 2 1 2
M  V30 2 1 2 3
M  V30 3 1 2 4
M  V30 4 1 3 5
M  V30 5 1 4 6
M  V30 6 1 5 7
M  V30 7 1 5 8
M  V30 8 1 6 9
M  V30 9 1 7 10
M  V30 10 1 8 11
M  V30 11 1 9 12
M  V30 12 1 10 13
M  V30 13 1 11 14
M  V30 14 1 12 15
M  V30 15 2 13 16
M  V30 16 1 13 17
M  V30 17 2 14 18
M  V30 18 1 14 19
M  V30 19 1 15 20
M  V30 20 1 17 21
M  V30 21 1 19 22
M  V30 22 1 20 23
M  V30 23 1 21 24
M  V30 24 1 22 25
M  V30 25 1 23 26
M  V30 26 1 24 27
M  V30 27 1 25 28
M  V30 28 1 26 29
M  V30 29 1 27 30
M  V30 30 1 28 31
M  V30 31 1 29 32
M  V30 32 1 30 33
M  V30 33 1 31 34
M  V30 34 1 32 35
M  V30 35 1 33 36
M  V30 36 1 34 37
M  V30 37 1 35 38
M  V30 38 1 35 39
M  V30 39 1 36 40
M  V30 40 1 37 41
M  V30 41 1 39 42
M  V30 42 1 40 43
M  V30 43 1 41 44
M  V30 44 1 42 45
M  V30 45 1 43 46
M  V30 46 1 44 47
M  V30 47 1 45 48
M  V30 48 1 46 49
M  V30 49 1 47 50
M  V30 50 1 48 51
M  V30 51 1 49 52
M  V30 52 1 49 53
M  V30 53 1 50 54
M  V30 54 1 50 55
M  V30 55 1 51 56
M  V30 56 1 53 57
M  V30 57 1 55 58
M  V30 58 1 57 59
M  V30 59 1 58 60
M  V30 60 1 59 61
M  V30 61 1 60 62
M  V30 62 1 61 63
M  V30 63 1 62 64
M  V30 64 1 63 65
M  V30 65 1 64 66
M  V30 END BOND
M  V30 END CTAB
M  END
>  <Structure No>
1393

>  <LogS>
-7.273925856

>  <MMFF94 Energy>
-1.1049

$$$$
Compound 1394
Actelion Java MolfileCreator 2.0

  0  0  0  0  0  0              0 V3000
M  V30 BEGIN CTAB
M  V30 COUNTS 83 82 0 0 0
M  V30 BEGIN ATOM
M  V30 1 O 1.3368 3.9359 1.809 0
M  V30 2 C 1.1717 3.8542 0.5611 0
M  V30 3 O 1.1674 2.6093 -0.0772 0
M  V30 4 C 0.9211 5.1042 -0.2415 0 CFG=2
M  V30 5 C 1.2417 1.366 0.6197 0
M  V30 6 C -0.6043 5.2402 -0.4664 0
M  V30 7 C 1.6998 5.074 -1.5781 0
M  V30 8 C -0.1278 1.0345 1.2347 0
M  V30 9 C 1.7039 0.2858 -0.3643 0
M  V30 10 C -1.0609 6.56 -1.1246 0
M  V30 11 C 3.2122 4.9447 -1.376 0
M  V30 12 O -1.0812 0.8044 0.2029 0
M  V30 13 O 1.7029 -0.9904 0.2638 0
M  V30 14 C -0.6462 7.8418 -0.38 0
M  V30 15 C -2.4378 0.5761 0.4492 0
M  V30 16 C 1.9739 -2.1732 -0.428 0
M  V30 17 C -1.1674 7.8946 1.0561 0
M  V30 18 O -2.9208 0.804 1.5924 0
M  V30 19 C -3.345 0.0933 -0.6609 0 CFG=2
M  V30 20 O 2.2017 -2.1477 -1.6693 0
M  V30 21 C 1.9271 -3.4829 0.3183 0 CFG=2
M  V30 22 C -4.1539 -1.1809 -0.2886 0
M  V30 23 C -2.6295 -0.0155 -2.0322 0
M  V30 24 C 2.9084 -4.5171 -0.2913 0
M  V30 25 C 0.4668 -3.9822 0.4369 0
M  V30 26 C -3.4 -2.206 0.5867 0
M  V30 27 C -1.6619 -1.1941 -2.1613 0
M  V30 28 C 3.0052 -5.8555 0.4711 0
M  V30 29 C -0.1542 -4.4312 -0.8891 0
M  V30 30 C -4.1833 -3.521 0.6881 0
M  V30 31 C 3.5269 -5.7413 1.9161 0
M  V30 32 C -3.5489 -4.4715 1.7008 0
M  V30 33 C 4.9678 -5.2368 1.9903 0
M  V30 34 H 1.2831 5.9669 0.357 0
M  V30 35 H 1.9985 1.436 1.4333 0
M  V30 36 H -0.9523 4.3995 -1.1066 0
M  V30 37 H -1.1333 5.1285 0.506 0
M  V30 38 H 1.5226 6.0181 -2.1358 0
M  V30 39 H 1.3445 4.2318 -2.2131 0
M  V30 40 H -0.4636 1.8796 1.8748 0
M  V30 41 H -0.0461 0.1266 1.8732 0
M  V30 42 H 1.0339 0.2734 -1.2502 0
M  V30 43 H 2.7314 0.5211 -0.7103 0
M  V30 44 H -0.6806 6.6107 -2.166 0
M  V30 45 H -2.17 6.5419 -1.2017 0
M  V30 46 H 3.7202 4.9921 -2.3629 0
M  V30 47 H 3.4695 3.9752 -0.8999 0
M  V30 48 H 3.5895 5.7784 -0.7434 0
M  V30 49 H -1.0649 8.7116 -0.9324 0
M  V30 50 H 0.4587 7.9578 -0.3851 0
M  V30 51 H -0.9702 8.8996 1.485 0
M  V30 52 H -2.2617 7.707 1.0812 0
M  V30 53 H -0.6472 7.1443 1.6873 0
M  V30 54 H -4.094 0.9052 -0.7989 0
M  V30 55 H 2.2757 -3.2529 1.3465 0
M  V30 56 H -4.5146 -1.6733 -1.2182 0
M  V30 57 H -5.0637 -0.8674 0.2699 0
M  V30 58 H -3.3971 -0.1091 -2.8314 0
M  V30 59 H -2.0741 0.9269 -2.2325 0
M  V30 60 H 3.9205 -4.0635 -0.354 0
M  V30 61 H 2.6127 -4.7375 -1.3375 0
M  V30 62 H -0.1589 -3.1673 0.8662 0
M  V30 63 H 0.4151 -4.8228 1.1626 0
M  V30 64 H -2.3905 -2.4121 0.1777 0
M  V30 65 H -3.2764 -1.7864 1.6101 0
M  V30 66 H -0.9435 -1.2238 -1.3196 0
M  V30 67 H -1.0829 -1.0966 -3.104 0
M  V30 68 H -2.2223 -2.1511 -2.2052 0
M  V30 69 H 2.0122 -6.3552 0.4865 0
M  V30 70 H 3.6831 -6.53 -0.0973 0
M  V30 71 H -1.2272 -4.6701 -0.7352 0
M  V30 72 H 0.3444 -5.3479 -1.265 0
M  V30 73 H -0.0845 -3.631 -1.6527 0
M  V30 74 H -5.2323 -3.3141 0.9981 0
M  V30 75 H -4.2104 -4.0163 -0.3063 0
M  V30 76 H 2.8676 -5.0946 2.5294 0
M  V30 77 H 3.4934 -6.7517 2.3702 0
M  V30 78 H -4.1434 -5.407 1.7524 0
M  V30 79 H -3.5397 -4.0064 2.7104 0
M  V30 80 H -2.506 -4.7219 1.4077 0
M  V30 81 H 5.0264 -4.1721 1.6957 0
M  V30 82 H 5.3419 -5.3269 3.0341 0
M  V30 83 H 5.6241 -5.8368 1.3238 0
M  V30 END ATOM
M  V30 BEGIN BOND
M  V30 1 2 1 2
M  V30 2 1 2 3
M  V30 3 1 2 4
M  V30 4 1 3 5
M  V30 5 1 4 6
M  V30 6 1 4 7
M  V30 7 1 5 8
M  V30 8 1 5 9
M  V30 9 1 6 10
M  V30 10 1 7 11
M  V30 11 1 8 12
M  V30 12 1 9 13
M  V30 13 1 10 14
M  V30 14 1 12 15
M  V30 15 1 13 16
M  V30 16 1 14 17
M  V30 17 2 15 18
M  V30 18 1 15 19
M  V30 19 2 16 20
M  V30 20 1 16 21
M  V30 21 1 19 22
M  V30 22 1 19 23
M  V30 23 1 21 24
M  V30 24 1 21 25
M  V30 25 1 22 26
M  V30 26 1 23 27
M  V30 27 1 24 28
M  V30 28 1 25 29
M  V30 29 1 26 30
M  V30 30 1 28 31
M  V30 31 1 30 32
M  V30 32 1 31 33
M  V30 33 1 4 34
M  V30 34 1 5 35
M  V30 35 1 6 36
M  V30 36 1 6 37
M  V30 37 1 7 38
M  V30 38 1 7 39
M  V30 39 1 8 40
M  V30 40 1 8 41
M  V30 41 1 9 42
M  V30 42 1 9 43
M  V30 43 1 10 44
M  V30 44 1 10 45
M  V30 45 1 11 46
M  V30 46 1 11 47
M  V30 47 1 11 48
M  V30 48 1 14 49
M  V30 49 1 14 50
M  V30 50 1 17 51
M  V30 51 1 17 52
M  V30 52 1 17 53
M  V30 53 1 19 54
M  V30 54 1 21 55
M  V30 55 1 22 56
M  V30 56 1 22 57
M  V30 57 1 23 58
M  V30 58 1 23 59
M  V30 59 1 24 60
M  V30 60 1 24 61
M  V30 61 1 25 62
M  V30 62 1 25 63
M  V30 63 1 26 64
M  V30 64 1 26 65
M  V30 65 1 27 66
M  V30 66 1 27 67
M  V30 67 1 27 68
M  V30 68 1 28 69
M  V30 69 1 28 70
M  V30 70 1 29 71
M  V30 71 1 29 72
M  V30 72 1 29 73
M  V30 73 1 30 74
M  V30 74 1 30 75
M  V30 75 1 31 76
M  V30 76 1 31 77
M  V30 77 1 32 78
M  V30 78 1 32 79
M  V30 79 1 32 80
M  V30 80 1 33 81
M  V30 81 1 33 82
M  V30 82 1 33 83
M  V30 END BOND
M  V30 BEGIN COLLECTION
M  V30 MDLV30/STEABS ATOMS=(3 4 19 21)
M  V30 END COLLECTION
M  V30 END CTAB
M  END
>  <Structure No>
1394

>  <LogS>
-6.97376589

>  <MMFF94 Energy>
-7.3464

$$$$
Compound 1395
Actelion Java MolfileCreator 2.0

  0  0  0  0  0  0              0 V3000
M  V30 BEGIN CTAB
M  V30 COUNTS 63 62 0 0 0
M  V30 BEGIN ATOM
M  V30 1 O 0 0 0 0
M  V30 2 C 0 0 0 0
M  V30 3 O 0 0 0 0
M  V30 4 C 0 0 0 0
M  V30 5 C 0 0 0 0
M  V30 6 C 0 0 0 0
M  V30 7 C 0 0 0 0
M  V30 8 C 0 0 0 0
M  V30 9 C 0 0 0 0
M  V30 10 O 0 0 0 0
M  V30 11 O 0 0 0 0
M  V30 12 C 0 0 0 0
M  V30 13 C 0 0 0 0
M  V30 14 C 0 0 0 0
M  V30 15 C 0 0 0 0
M  V30 16 O 0 0 0 0
M  V30 17 C 0 0 0 0
M  V30 18 O 0 0 0 0
M  V30 19 C 0 0 0 0
M  V30 20 C 0 0 0 0
M  V30 21 C 0 0 0 0
M  V30 22 C 0 0 0 0
M  V30 23 C 0 0 0 0
M  V30 24 C 0 0 0 0
M  V30 25 C 0 0 0 0
M  V30 26 C 0 0 0 0
M  V30 27 C 0 0 0 0
M  V30 28 C 0 0 0 0
M  V30 29 C 0 0 0 0
M  V30 30 C 0 0 0 0
M  V30 31 C 0 0 0 0
M  V30 32 C 0 0 0 0
M  V30 33 C 0 0 0 0
M  V30 34 C 0 0 0 0
M  V30 35 C 0 0 0 0
M  V30 36 C 0 0 0 0
M  V30 37 C 0 0 0 0
M  V30 38 C 0 0 0 0
M  V30 39 C 0 0 0 0
M  V30 40 C 0 0 0 0
M  V30 41 C 0 0 0 0
M  V30 42 C 0 0 0 0
M  V30 43 C 0 0 0 0
M  V30 44 C 0 0 0 0
M  V30 45 C 0 0 0 0
M  V30 46 C 0 0 0 0
M  V30 47 C 0 0 0 0
M  V30 48 C 0 0 0 0
M  V30 49 C 0 0 0 0
M  V30 50 C 0 0 0 0
M  V30 51 C 0 0 0 0
M  V30 52 C 0 0 0 0
M  V30 53 C 0 0 0 0
M  V30 54 C 0 0 0 0
M  V30 55 C 0 0 0 0
M  V30 56 C 0 0 0 0
M  V30 57 C 0 0 0 0
M  V30 58 C 0 0 0 0
M  V30 59 C 0 0 0 0
M  V30 60 C 0 0 0 0
M  V30 61 C 0 0 0 0
M  V30 62 C 0 0 0 0
M  V30 63 C 0 0 0 0
M  V30 END ATOM
M  V30 BEGIN BOND
M  V30 1 2 1 2
M  V30 2 1 2 3
M  V30 3 1 2 4
M  V30 4 1 3 5
M  V30 5 1 4 6
M  V30 6 1 5 7
M  V30 7 1 5 8
M  V30 8 1 6 9
M  V30 9 1 7 10
M  V30 10 1 8 11
M  V30 11 1 9 12
M  V30 12 1 10 13
M  V30 13 1 11 14
M  V30 14 1 12 15
M  V30 15 2 13 16
M  V30 16 1 13 17
M  V30 17 2 14 18
M  V30 18 1 14 19
M  V30 19 1 15 20
M  V30 20 1 17 21
M  V30 21 1 19 22
M  V30 22 1 20 23
M  V30 23 1 21 24
M  V30 24 1 22 25
M  V30 25 1 23 26
M  V30 26 1 24 27
M  V30 27 1 25 28
M  V30 28 2 26 29
M  V30 29 1 27 30
M  V30 30 1 28 31
M  V30 31 1 29 32
M  V30 32 1 30 33
M  V30 33 1 31 34
M  V30 34 1 32 35
M  V30 35 1 33 36
M  V30 36 1 34 37
M  V30 37 1 35 38
M  V30 38 1 36 39
M  V30 39 1 37 40
M  V30 40 1 38 41
M  V30 41 2 39 42
M  V30 42 2 40 43
M  V30 43 1 41 44
M  V30 44 1 42 45
M  V30 45 1 43 46
M  V30 46 1 44 47
M  V30 47 1 45 48
M  V30 48 1 46 49
M  V30 49 1 47 50
M  V30 50 1 48 51
M  V30 51 1 49 52
M  V30 52 1 50 53
M  V30 53 1 51 54
M  V30 54 1 52 55
M  V30 55 1 54 56
M  V30 56 1 55 57
M  V30 57 1 56 58
M  V30 58 1 57 59
M  V30 59 1 58 60
M  V30 60 1 59 61
M  V30 61 1 60 62
M  V30 62 1 61 63
M  V30 END BOND
M  V30 END CTAB
M  END
>  <Structure No>
1395

>  <LogS>
-7.248195509

>  <MMFF94 Energy>
-2.8729

$$$$
Compound 1396
Actelion Java MolfileCreator 2.0

  0  0  0  0  0  0              0 V3000
M  V30 BEGIN CTAB
M  V30 COUNTS 68 67 0 0 0
M  V30 BEGIN ATOM
M  V30 1 O 3.2161 1.6462 0.9404 0
M  V30 2 C 2.8873 0.4607 1.223 0
M  V30 3 O 3.7456 -0.3638 1.9605 0
M  V30 4 C 1.5694 -0.0766 0.758 0
M  V30 5 C 5.0325 0.0498 2.4165 0
M  V30 6 C 0.4103 0.7657 1.3087 0
M  V30 7 C 6.032 0.0834 1.2556 0
M  V30 8 C -0.9659 0.1525 1.0099 0
M  V30 9 C 7.4401 0.4479 1.7515 0
M  V30 10 C -1.289 0.123 -0.4897 0
M  V30 11 C 8.4256 0.7191 0.6032 0
M  V30 12 C -2.7231 -0.242 -0.7058 0
M  V30 13 C 8.8091 -0.5573 -0.1665 0
M  V30 14 O -3.0832 -1.4482 -0.6151 0
M  V30 15 O -3.6572 0.7673 -0.9618 0
M  V30 16 C 9.8096 -0.2813 -1.3124 0
M  V30 17 C -5.0604 0.5326 -1.054 0
M  V30 18 C 11.2149 0.0403 -0.7819 0
M  V30 19 C 9.8781 -1.4896 -2.2563 0
M  V30 20 C -5.663 0.3653 0.346 0
M  V30 21 C -7.1966 0.2798 0.32 0
M  V30 22 C -7.6997 -1.056 -0.2537 0
M  V30 23 C -9.2093 -1.2697 -0.033 0
M  V30 24 C -10.1245 -0.2342 -0.7302 0
M  V30 25 C -9.9602 -0.2556 -2.2579 0
M  V30 26 C -11.589 -0.5044 -0.3595 0
M  V30 27 H 1.4631 -1.1295 1.0985 0
M  V30 28 H 1.5597 -0.064 -0.3522 0
M  V30 29 H 4.9598 1.0486 2.9017 0
M  V30 30 H 5.383 -0.6785 3.1788 0
M  V30 31 H 0.5162 0.8484 2.4127 0
M  V30 32 H 0.4573 1.7944 0.8885 0
M  V30 33 H 6.0478 -0.9179 0.7762 0
M  V30 34 H 5.6968 0.8297 0.5033 0
M  V30 35 H -1.7325 0.7657 1.5343 0
M  V30 36 H -1.0159 -0.8779 1.4263 0
M  V30 37 H 7.8335 -0.3624 2.4037 0
M  V30 38 H 7.3756 1.372 2.3672 0
M  V30 39 H -0.6461 -0.6203 -1.0065 0
M  V30 40 H -1.0991 1.1215 -0.9391 0
M  V30 41 H 9.3369 1.1676 1.0497 0
M  V30 42 H 7.99 1.4668 -0.0948 0
M  V30 43 H 9.2361 -1.3076 0.5347 0
M  V30 44 H 7.8861 -0.9922 -0.6047 0
M  V30 45 H 9.452 0.589 -1.9066 0
M  V30 46 H -5.2544 -0.3615 -1.6829 0
M  V30 47 H -5.5259 1.4109 -1.5494 0
M  V30 48 H 11.213 0.9883 -0.206 0
M  V30 49 H 11.5866 -0.7807 -0.1313 0
M  V30 50 H 11.9227 0.1725 -1.6277 0
M  V30 51 H 8.875 -1.7026 -2.6837 0
M  V30 52 H 10.236 -2.3924 -1.7145 0
M  V30 53 H 10.5699 -1.2772 -3.101 0
M  V30 54 H -5.2395 -0.537 0.8386 0
M  V30 55 H -5.374 1.2472 0.9582 0
M  V30 56 H -7.5664 0.3909 1.3632 0
M  V30 57 H -7.5994 1.128 -0.2751 0
M  V30 58 H -7.4601 -1.1272 -1.3335 0
M  V30 59 H -7.166 -1.8909 0.2508 0
M  V30 60 H -9.4074 -1.2562 1.0609 0
M  V30 61 H -9.4722 -2.2878 -0.395 0
M  V30 62 H -9.8794 0.7852 -0.364 0
M  V30 63 H -8.957 0.1209 -2.5478 0
M  V30 64 H -10.0919 -1.287 -2.6519 0
M  V30 65 H -10.7111 0.4095 -2.7367 0
M  V30 66 H -12.2528 0.2438 -0.8443 0
M  V30 67 H -11.8961 -1.5219 -0.6869 0
M  V30 68 H -11.7293 -0.4232 0.7405 0
M  V30 END ATOM
M  V30 BEGIN BOND
M  V30 1 2 1 2
M  V30 2 1 2 3
M  V30 3 1 2 4
M  V30 4 1 3 5
M  V30 5 1 4 6
M  V30 6 1 5 7
M  V30 7 1 6 8
M  V30 8 1 7 9
M  V30 9 1 8 10
M  V30 10 1 9 11
M  V30 11 1 10 12
M  V30 12 1 11 13
M  V30 13 2 12 14
M  V30 14 1 12 15
M  V30 15 1 13 16
M  V30 16 1 15 17
M  V30 17 1 16 18
M  V30 18 1 16 19
M  V30 19 1 17 20
M  V30 20 1 20 21
M  V30 21 1 21 22
M  V30 22 1 22 23
M  V30 23 1 23 24
M  V30 24 1 24 25
M  V30 25 1 24 26
M  V30 26 1 4 27
M  V30 27 1 4 28
M  V30 28 1 5 29
M  V30 29 1 5 30
M  V30 30 1 6 31
M  V30 31 1 6 32
M  V30 32 1 7 33
M  V30 33 1 7 34
M  V30 34 1 8 35
M  V30 35 1 8 36
M  V30 36 1 9 37
M  V30 37 1 9 38
M  V30 38 1 10 39
M  V30 39 1 10 40
M  V30 40 1 11 41
M  V30 41 1 11 42
M  V30 42 1 13 43
M  V30 43 1 13 44
M  V30 44 1 16 45
M  V30 45 1 17 46
M  V30 46 1 17 47
M  V30 47 1 18 48
M  V30 48 1 18 49
M  V30 49 1 18 50
M  V30 50 1 19 51
M  V30 51 1 19 52
M  V30 52 1 19 53
M  V30 53 1 20 54
M  V30 54 1 20 55
M  V30 55 1 21 56
M  V30 56 1 21 57
M  V30 57 1 22 58
M  V30 58 1 22 59
M  V30 59 1 23 60
M  V30 60 1 23 61
M  V30 61 1 24 62
M  V30 62 1 25 63
M  V30 63 1 25 64
M  V30 64 1 25 65
M  V30 65 1 26 66
M  V30 66 1 26 67
M  V30 67 1 26 68
M  V30 END BOND
M  V30 END CTAB
M  END
>  <Structure No>
1396

>  <LogS>
-6.869904941

>  <MMFF94 Energy>
-11.949

$$$$
Compound 1397
Actelion Java MolfileCreator 2.0

  0  0  0  0  0  0              0 V3000
M  V30 BEGIN CTAB
M  V30 COUNTS 111 110 0 0 0
M  V30 BEGIN ATOM
M  V30 1 O -0.7028 2.1878 2.4225 0
M  V30 2 C -1.6463 2.501 3.4291 0
M  V30 3 C 0.3393 1.3821 2.9469 0
M  V30 4 C -2.8607 3.2056 2.8165 0
M  V30 5 C 1.6954 2.0592 2.7327 0
M  V30 6 C -3.5666 2.3885 1.7192 0
M  V30 7 C 1.7799 3.4105 3.4591 0
M  V30 8 C -4.0555 1.0149 2.2183 0
M  V30 9 C 3.2218 3.9163 3.6342 0
M  V30 10 C -5.1015 0.3625 1.2871 0
M  V30 11 C 3.9453 4.2401 2.3101 0
M  V30 12 C -4.5267 -0.7276 0.3593 0
M  V30 13 C 4.8677 3.0983 1.8528 0
M  V30 14 C -3.727 -0.1948 -0.8459 0
M  V30 15 C 5.7182 3.5223 0.6465 0
M  V30 16 C -4.6071 0.4465 -1.9341 0
M  V30 17 C 6.6791 2.4134 0.1895 0
M  V30 18 C -5.3283 -0.6059 -2.8083 0
M  V30 19 C 5.9666 1.3072 -0.6054 0
M  V30 20 C -6.7441 -0.1693 -3.217 0
M  V30 21 C 6.9502 0.2902 -1.2095 0
M  V30 22 C -7.7586 -0.3972 -2.0815 0
M  V30 23 C 7.6202 -0.6175 -0.1542 0
M  V30 24 C -9.1525 0.1764 -2.3965 0
M  V30 25 C 9.0828 -0.223 0.1202 0
M  V30 26 C -9.8432 -0.4288 -3.633 0
M  V30 27 C 9.7512 -1.1582 1.1511 0
M  V30 28 C -10.1144 -1.9434 -3.5506 0
M  V30 29 C 10.7124 -2.1831 0.5256 0
M  V30 30 C -11.1812 -2.3274 -2.5039 0
M  V30 31 C 9.9979 -3.2049 -0.3756 0
M  V30 32 C -10.5705 -2.8892 -1.211 0
M  V30 33 C 10.9386 -4.335 -0.8448 0
M  V30 34 C -11.6688 -3.2798 -0.2143 0
M  V30 35 C 11.4898 -4.1299 -2.2663 0
M  V30 36 C -11.073 -3.8183 1.0827 0
M  V30 37 C 12.4551 -2.9491 -2.3752 0
M  V30 38 H -1.995 1.5876 3.9675 0
M  V30 39 H -1.1862 3.1902 4.1725 0
M  V30 40 H 0.2363 1.1261 4.0302 0
M  V30 41 H 0.3375 0.4183 2.3946 0
M  V30 42 H -2.5306 4.1747 2.3816 0
M  V30 43 H -3.5874 3.4357 3.6262 0
M  V30 44 H 1.8582 2.2106 1.6439 0
M  V30 45 H 2.4845 1.3769 3.1175 0
M  V30 46 H -4.434 2.9847 1.3653 0
M  V30 47 H -2.8744 2.2669 0.8635 0
M  V30 48 H 1.1781 4.1669 2.9086 0
M  V30 49 H 1.34 3.306 4.4759 0
M  V30 50 H -4.5269 1.1528 3.2163 0
M  V30 51 H -3.1865 0.3351 2.3592 0
M  V30 52 H 3.8011 3.1877 4.2405 0
M  V30 53 H 3.1681 4.8491 4.2363 0
M  V30 54 H -5.6708 1.1249 0.7175 0
M  V30 55 H -5.8527 -0.1422 1.9345 0
M  V30 56 H 4.5675 5.1489 2.4698 0
M  V30 57 H 3.2125 4.4809 1.509 0
M  V30 58 H -3.8711 -1.4017 0.9523 0
M  V30 59 H -5.3665 -1.3573 -0.0051 0
M  V30 60 H 5.548 2.8168 2.6855 0
M  V30 61 H 4.2584 2.2146 1.5844 0
M  V30 62 H -2.969 0.5354 -0.5039 0
M  V30 63 H -3.1537 -1.0362 -1.294 0
M  V30 64 H 6.3283 4.4067 0.9342 0
M  V30 65 H 5.0611 3.8288 -0.1955 0
M  V30 66 H -3.9518 1.0566 -2.5969 0
M  V30 67 H -5.3213 1.1648 -1.4781 0
M  V30 68 H 7.1848 1.9805 1.0771 0
M  V30 69 H 7.4594 2.8731 -0.4564 0
M  V30 70 H -5.3834 -1.596 -2.3067 0
M  V30 71 H -4.7251 -0.7639 -3.7293 0
M  V30 72 H 5.4005 1.7727 -1.4421 0
M  V30 73 H 5.2345 0.7756 0.039 0
M  V30 74 H -6.7372 0.9011 -3.5226 0
M  V30 75 H -7.0447 -0.7768 -4.0984 0
M  V30 76 H 7.7077 0.8145 -1.8354 0
M  V30 77 H 6.3691 -0.3579 -1.9024 0
M  V30 78 H -7.8293 -1.4802 -1.8525 0
M  V30 79 H -7.3957 0.0993 -1.157 0
M  V30 80 H 7.045 -0.6041 0.7982 0
M  V30 81 H 7.593 -1.6639 -0.5264 0
M  V30 82 H -9.8072 0.0517 -1.5089 0
M  V30 83 H -9.0557 1.2718 -2.5564 0
M  V30 84 H 9.1082 0.8134 0.5159 0
M  V30 85 H 9.657 -0.2155 -0.8316 0
M  V30 86 H -10.8106 0.0978 -3.7873 0
M  V30 87 H -9.2339 -0.2167 -4.5369 0
M  V30 88 H 8.9925 -1.6845 1.771 0
M  V30 89 H 10.3453 -0.5335 1.8518 0
M  V30 90 H -9.1724 -2.5101 -3.3976 0
M  V30 91 H -10.4935 -2.2558 -4.5476 0
M  V30 92 H 11.2128 -2.7261 1.3565 0
M  V30 93 H 11.5005 -1.6469 -0.041 0
M  V30 94 H -11.8367 -3.1116 -2.9455 0
M  V30 95 H -11.8313 -1.4559 -2.2679 0
M  V30 96 H 9.5481 -2.6946 -1.2544 0
M  V30 97 H 9.1657 -3.66 0.2067 0
M  V30 98 H -9.9611 -3.7869 -1.4538 0
M  V30 99 H -9.9091 -2.1315 -0.7431 0
M  V30 100 H 11.7775 -4.4886 -0.1282 0
M  V30 101 H 10.3565 -5.2839 -0.8546 0
M  V30 102 H -12.3216 -4.0606 -0.6627 0
M  V30 103 H -12.2963 -2.3926 0.0194 0
M  V30 104 H 10.6535 -3.9935 -2.9887 0
M  V30 105 H 12.0364 -5.0533 -2.5611 0
M  V30 106 H -10.4525 -4.7181 0.8787 0
M  V30 107 H -10.4473 -3.0406 1.5712 0
M  V30 108 H -11.8932 -4.1013 1.7767 0
M  V30 109 H 13.2334 -3.0093 -1.584 0
M  V30 110 H 12.9554 -2.97 -3.3678 0
M  V30 111 H 11.9028 -1.99 -2.2909 0
M  V30 END ATOM
M  V30 BEGIN BOND
M  V30 1 1 1 2
M  V30 2 1 1 3
M  V30 3 1 2 4
M  V30 4 1 3 5
M  V30 5 1 4 6
M  V30 6 1 5 7
M  V30 7 1 6 8
M  V30 8 1 7 9
M  V30 9 1 8 10
M  V30 10 1 9 11
M  V30 11 1 10 12
M  V30 12 1 11 13
M  V30 13 1 12 14
M  V30 14 1 13 15
M  V30 15 1 14 16
M  V30 16 1 15 17
M  V30 17 1 16 18
M  V30 18 1 17 19
M  V30 19 1 18 20
M  V30 20 1 19 21
M  V30 21 1 20 22
M  V30 22 1 21 23
M  V30 23 1 22 24
M  V30 24 1 23 25
M  V30 25 1 24 26
M  V30 26 1 25 27
M  V30 27 1 26 28
M  V30 28 1 27 29
M  V30 29 1 28 30
M  V30 30 1 29 31
M  V30 31 1 30 32
M  V30 32 1 31 33
M  V30 33 1 32 34
M  V30 34 1 33 35
M  V30 35 1 34 36
M  V30 36 1 35 37
M  V30 37 1 2 38
M  V30 38 1 2 39
M  V30 39 1 3 40
M  V30 40 1 3 41
M  V30 41 1 4 42
M  V30 42 1 4 43
M  V30 43 1 5 44
M  V30 44 1 5 45
M  V30 45 1 6 46
M  V30 46 1 6 47
M  V30 47 1 7 48
M  V30 48 1 7 49
M  V30 49 1 8 50
M  V30 50 1 8 51
M  V30 51 1 9 52
M  V30 52 1 9 53
M  V30 53 1 10 54
M  V30 54 1 10 55
M  V30 55 1 11 56
M  V30 56 1 11 57
M  V30 57 1 12 58
M  V30 58 1 12 59
M  V30 59 1 13 60
M  V30 60 1 13 61
M  V30 61 1 14 62
M  V30 62 1 14 63
M  V30 63 1 15 64
M  V30 64 1 15 65
M  V30 65 1 16 66
M  V30 66 1 16 67
M  V30 67 1 17 68
M  V30 68 1 17 69
M  V30 69 1 18 70
M  V30 70 1 18 71
M  V30 71 1 19 72
M  V30 72 1 19 73
M  V30 73 1 20 74
M  V30 74 1 20 75
M  V30 75 1 21 76
M  V30 76 1 21 77
M  V30 77 1 22 78
M  V30 78 1 22 79
M  V30 79 1 23 80
M  V30 80 1 23 81
M  V30 81 1 24 82
M  V30 82 1 24 83
M  V30 83 1 25 84
M  V30 84 1 25 85
M  V30 85 1 26 86
M  V30 86 1 26 87
M  V30 87 1 27 88
M  V30 88 1 27 89
M  V30 89 1 28 90
M  V30 90 1 28 91
M  V30 91 1 29 92
M  V30 92 1 29 93
M  V30 93 1 30 94
M  V30 94 1 30 95
M  V30 95 1 31 96
M  V30 96 1 31 97
M  V30 97 1 32 98
M  V30 98 1 32 99
M  V30 99 1 33 100
M  V30 100 1 33 101
M  V30 101 1 34 102
M  V30 102 1 34 103
M  V30 103 1 35 104
M  V30 104 1 35 105
M  V30 105 1 36 106
M  V30 106 1 36 107
M  V30 107 1 36 108
M  V30 108 1 37 109
M  V30 109 1 37 110
M  V30 110 1 37 111
M  V30 END BOND
M  V30 END CTAB
M  END
>  <Structure No>
1397

>  <LogS>
-7.019520889

>  <MMFF94 Energy>
2.1859

$$$$
Compound 1398
Actelion Java MolfileCreator 2.0

  0  0  0  0  0  0              0 V3000
M  V30 BEGIN CTAB
M  V30 COUNTS 83 82 0 0 0
M  V30 BEGIN ATOM
M  V30 1 O 2.9902 -2.6751 1.7303 0
M  V30 2 C 3.4003 -1.4969 1.547 0
M  V30 3 O 2.4927 -0.4363 1.4379 0
M  V30 4 C 4.8699 -1.2062 1.5303 0
M  V30 5 C 1.0804 -0.6172 1.5027 0
M  V30 6 C 5.6218 -2.1431 0.5753 0
M  V30 7 C 0.3526 0.7536 1.4799 0
M  V30 8 C 7.1119 -1.7739 0.5056 0
M  V30 9 C 0.573 1.4109 0.0852 0
M  V30 10 C -1.1626 0.524 1.7208 0
M  V30 11 C 0.9294 1.7179 2.5662 0
M  V30 12 C 7.9483 -2.7921 -0.2884 0
M  V30 13 O -0.1295 2.6528 -0.0176 0
M  V30 14 O -1.7256 -0.2502 0.6652 0
M  V30 15 C 0.8993 1.1882 4.0047 0
M  V30 16 C 7.5765 -2.8312 -1.7783 0
M  V30 17 C -1.3639 2.7982 -0.6656 0
M  V30 18 C -3.1029 -0.4064 0.4919 0
M  V30 19 C 8.5525 -3.6981 -2.5696 0
M  V30 20 O -1.7974 1.9029 -1.4418 0
M  V30 21 C -2.1726 4.0377 -0.4438 0
M  V30 22 O -3.9218 0.2054 1.2309 0
M  V30 23 C -3.6047 -1.3065 -0.5924 0
M  V30 24 C -2.1277 4.9506 -1.6751 0
M  V30 25 C -4.391 -2.502 -0.0332 0
M  V30 26 C -2.773 6.3275 -1.4302 0
M  V30 27 C -3.6006 -3.3757 0.9633 0
M  V30 28 C -4.2497 6.2884 -0.9985 0
M  V30 29 C -2.3069 -3.9997 0.4017 0
M  V30 30 C -5.1647 5.6608 -2.0594 0
M  V30 31 C -2.5049 -4.885 -0.8409 0
M  V30 32 C -6.6301 5.7599 -1.6474 0
M  V30 33 C -3.4422 -6.0669 -0.5896 0
M  V30 34 H 5.2712 -1.3156 2.5624 0
M  V30 35 H 5.0248 -0.1525 1.211 0
M  V30 36 H 0.8201 -1.1726 2.4293 0
M  V30 37 H 0.7528 -1.2423 0.6423 0
M  V30 38 H 5.5193 -3.1937 0.928 0
M  V30 39 H 5.1706 -2.0593 -0.4368 0
M  V30 40 H 7.5242 -1.7282 1.5383 0
M  V30 41 H 7.2292 -0.7648 0.0555 0
M  V30 42 H 1.6563 1.6178 -0.0579 0
M  V30 43 H 0.2803 0.7213 -0.7374 0
M  V30 44 H -1.687 1.5018 1.7901 0
M  V30 45 H -1.3313 -0.0147 2.6769 0
M  V30 46 H 0.3654 2.6778 2.5494 0
M  V30 47 H 1.9852 1.9687 2.3181 0
M  V30 48 H 7.8347 -3.8059 0.1611 0
M  V30 49 H 9.0184 -2.497 -0.1901 0
M  V30 50 H 1.3469 1.9488 4.6755 0
M  V30 51 H 1.4937 0.2595 4.1054 0
M  V30 52 H -0.1385 1.0091 4.3458 0
M  V30 53 H 7.5885 -1.8014 -2.2011 0
M  V30 54 H 6.5547 -3.2505 -1.904 0
M  V30 55 H 9.5878 -3.3048 -2.4669 0
M  V30 56 H 8.2755 -3.6765 -3.642 0
M  V30 57 H 8.515 -4.7504 -2.2164 0
M  V30 58 H -3.2199 3.7308 -0.2334 0
M  V30 59 H -1.7775 4.5783 0.4432 0
M  V30 60 H -2.7546 -1.6622 -1.2108 0
M  V30 61 H -4.2679 -0.7176 -1.2589 0
M  V30 62 H -1.0645 5.1215 -1.9556 0
M  V30 63 H -2.6156 4.4497 -2.5371 0
M  V30 64 H -5.2993 -2.1209 0.4806 0
M  V30 65 H -4.7512 -3.1264 -0.8778 0
M  V30 66 H -2.188 6.8595 -0.6471 0
M  V30 67 H -2.6865 6.9293 -2.3639 0
M  V30 68 H -3.3348 -2.7664 1.855 0
M  V30 69 H -4.27 -4.1834 1.335 0
M  V30 70 H -4.575 7.3361 -0.822 0
M  V30 71 H -4.3584 5.7501 -0.0332 0
M  V30 72 H -1.5804 -3.1926 0.157 0
M  V30 73 H -1.8383 -4.6112 1.2035 0
M  V30 74 H -4.913 4.5875 -2.1949 0
M  V30 75 H -5.027 6.1828 -3.0316 0
M  V30 76 H -1.5106 -5.2866 -1.1413 0
M  V30 77 H -2.8839 -4.2797 -1.691 0
M  V30 78 H -6.9267 6.8237 -1.535 0
M  V30 79 H -6.7973 5.2263 -0.6876 0
M  V30 80 H -7.266 5.2924 -2.4283 0
M  V30 81 H -3.1287 -6.6262 0.3188 0
M  V30 82 H -4.4892 -5.7152 -0.4678 0
M  V30 83 H -3.4074 -6.7578 -1.4589 0
M  V30 END ATOM
M  V30 BEGIN BOND
M  V30 1 2 1 2
M  V30 2 1 2 3
M  V30 3 1 2 4
M  V30 4 1 3 5
M  V30 5 1 4 6
M  V30 6 1 5 7
M  V30 7 1 6 8
M  V30 8 1 7 9
M  V30 9 1 7 10
M  V30 10 1 7 11
M  V30 11 1 8 12
M  V30 12 1 9 13
M  V30 13 1 10 14
M  V30 14 1 11 15
M  V30 15 1 12 16
M  V30 16 1 13 17
M  V30 17 1 14 18
M  V30 18 1 16 19
M  V30 19 2 17 20
M  V30 20 1 17 21
M  V30 21 2 18 22
M  V30 22 1 18 23
M  V30 23 1 21 24
M  V30 24 1 23 25
M  V30 25 1 24 26
M  V30 26 1 25 27
M  V30 27 1 26 28
M  V30 28 1 27 29
M  V30 29 1 28 30
M  V30 30 1 29 31
M  V30 31 1 30 32
M  V30 32 1 31 33
M  V30 33 1 4 34
M  V30 34 1 4 35
M  V30 35 1 5 36
M  V30 36 1 5 37
M  V30 37 1 6 38
M  V30 38 1 6 39
M  V30 39 1 8 40
M  V30 40 1 8 41
M  V30 41 1 9 42
M  V30 42 1 9 43
M  V30 43 1 10 44
M  V30 44 1 10 45
M  V30 45 1 11 46
M  V30 46 1 11 47
M  V30 47 1 12 48
M  V30 48 1 12 49
M  V30 49 1 15 50
M  V30 50 1 15 51
M  V30 51 1 15 52
M  V30 52 1 16 53
M  V30 53 1 16 54
M  V30 54 1 19 55
M  V30 55 1 19 56
M  V30 56 1 19 57
M  V30 57 1 21 58
M  V30 58 1 21 59
M  V30 59 1 23 60
M  V30 60 1 23 61
M  V30 61 1 24 62
M  V30 62 1 24 63
M  V30 63 1 25 64
M  V30 64 1 25 65
M  V30 65 1 26 66
M  V30 66 1 26 67
M  V30 67 1 27 68
M  V30 68 1 27 69
M  V30 69 1 28 70
M  V30 70 1 28 71
M  V30 71 1 29 72
M  V30 72 1 29 73
M  V30 73 1 30 74
M  V30 74 1 30 75
M  V30 75 1 31 76
M  V30 76 1 31 77
M  V30 77 1 32 78
M  V30 78 1 32 79
M  V30 79 1 32 80
M  V30 80 1 33 81
M  V30 81 1 33 82
M  V30 82 1 33 83
M  V30 END BOND
M  V30 END CTAB
M  END
>  <Structure No>
1398

>  <LogS>
-6.97376589

>  <MMFF94 Energy>
-25.922

$$$$
Compound 1399
Actelion Java MolfileCreator 2.0

  0  0  0  0  0  0              0 V3000
M  V30 BEGIN CTAB
M  V30 COUNTS 121 120 0 0 0
M  V30 BEGIN ATOM
M  V30 1 O -1.0971 -0.8619 1.9598 0
M  V30 2 C -1.5889 -1.768 1.2331 0
M  V30 3 O -1.2858 -1.8382 -0.1321 0
M  V30 4 C -2.5124 -2.7821 1.8341 0
M  V30 5 C -0.2698 -1.0573 -0.7651 0
M  V30 6 C -3.8915 -2.1891 2.1507 0
M  V30 7 C 1.0857 -1.8122 -0.8228 0
M  V30 8 C -4.6738 -1.8176 0.8814 0
M  V30 9 C 2.1112 -0.9297 -1.5761 0
M  V30 10 C 1.6026 -2.0966 0.6049 0
M  V30 11 C 0.9044 -3.147 -1.5746 0
M  V30 12 C -6.085 -1.332 1.2341 0
M  V30 13 O 3.3967 -1.5446 -1.5753 0
M  V30 14 C -6.8915 -1.0204 -0.0342 0
M  V30 15 C 4.5555 -0.8899 -1.9981 0
M  V30 16 C -8.2397 -0.3341 0.2596 0
M  V30 17 O 4.483 0.2028 -2.6212 0
M  V30 18 C 5.8964 -1.4944 -1.6994 0
M  V30 19 C -9.2288 -1.172 1.088 0
M  V30 20 C 5.9742 -2.0334 -0.2573 0
M  V30 21 C -9.6453 -2.431 0.3636 0
M  V30 22 C 5.814 -0.9395 0.8124 0
M  V30 23 C -10.8807 -2.6835 -0.1105 0
M  V30 24 C 7.1203 -0.1631 1.0579 0
M  V30 25 C -12.0713 -1.7659 0.0194 0
M  V30 26 C 6.8548 1.2064 1.7034 0
M  V30 27 C -11.9904 -0.6008 -0.9801 0
M  V30 28 C 6.4 2.2596 0.6662 0
M  V30 29 C -13.2557 0.2712 -0.9689 0
M  V30 30 C 7.4868 3.2977 0.3373 0
M  V30 31 C -13.2838 1.2463 0.2214 0
M  V30 32 C 8.7568 2.6784 -0.1813 0
M  V30 33 C -14.623 1.9915 0.348 0
M  V30 34 C 8.817 2.0746 -1.3795 0
M  V30 35 C -14.8334 3.0333 -0.7632 0
M  V30 36 C 10.1027 1.4852 -1.8901 0
M  V30 37 C -16.179 3.7663 -0.6379 0
M  V30 38 C 10.487 0.228 -1.0938 0
M  V30 39 C -16.2066 4.7663 0.5164 0
M  V30 40 C 11.7833 -0.4296 -1.5959 0
M  V30 41 C 13.0495 0.434 -1.4453 0
M  V30 42 C 13.3308 0.8433 0.01 0
M  V30 43 C 14.7225 1.4788 0.1378 0
M  V30 44 C 14.983 2.06 1.5358 0
M  V30 45 C 15.133 0.9799 2.6071 0
M  V30 46 H -2.6175 -3.6476 1.1442 0
M  V30 47 H -2.0582 -3.1659 2.7725 0
M  V30 48 H -0.6091 -0.8383 -1.8006 0
M  V30 49 H -0.1546 -0.0741 -0.2552 0
M  V30 50 H -4.4691 -2.9514 2.7181 0
M  V30 51 H -3.7771 -1.2927 2.8006 0
M  V30 52 H -4.7431 -2.707 0.2143 0
M  V30 53 H -4.1367 -1.0095 0.3396 0
M  V30 54 H 2.1848 0.0631 -1.076 0
M  V30 55 H 1.7817 -0.765 -2.626 0
M  V30 56 H 1.7105 -1.153 1.1784 0
M  V30 57 H 2.5883 -2.6076 0.5781 0
M  V30 58 H 0.9106 -2.7711 1.1505 0
M  V30 59 H 0.5151 -2.9711 -2.6017 0
M  V30 60 H 0.1846 -3.8031 -1.0387 0
M  V30 61 H 1.8696 -3.6886 -1.6534 0
M  V30 62 H -6.603 -2.1271 1.8108 0
M  V30 63 H -6.0129 -0.4199 1.868 0
M  V30 64 H -7.0545 -1.9479 -0.6195 0
M  V30 65 H -6.2989 -0.3318 -0.6721 0
M  V30 66 H -8.7133 -0.0717 -0.7102 0
M  V30 67 H -8.0485 0.6215 0.7936 0
M  V30 68 H 6.0671 -2.332 -2.4057 0
M  V30 69 H 6.6971 -0.7425 -1.8703 0
M  V30 70 H -10.0987 -0.5324 1.3377 0
M  V30 71 H -8.7764 -1.4523 2.0619 0
M  V30 72 H 6.9446 -2.5599 -0.1136 0
M  V30 73 H 5.1758 -2.7932 -0.1122 0
M  V30 74 H -8.8875 -3.1971 0.2218 0
M  V30 75 H 4.988 -0.2507 0.5325 0
M  V30 76 H 5.5124 -1.4195 1.7684 0
M  V30 77 H -11.0456 -3.6417 -0.5944 0
M  V30 78 H 7.6853 -0.0232 0.1142 0
M  V30 79 H 7.7694 -0.7635 1.7345 0
M  V30 80 H -12.9864 -2.3582 -0.2016 0
M  V30 81 H -12.1661 -1.4072 1.0653 0
M  V30 82 H 7.777 1.5469 2.2214 0
M  V30 83 H 6.0785 1.096 2.4922 0
M  V30 84 H -11.8668 -1.0199 -2.0034 0
M  V30 85 H -11.1035 0.0341 -0.7753 0
M  V30 86 H 5.5245 2.8059 1.0777 0
M  V30 87 H 6.0558 1.7813 -0.2775 0
M  V30 88 H -13.267 0.856 -1.912 0
M  V30 89 H -14.1618 -0.3747 -0.9619 0
M  V30 90 H 7.7194 3.8782 1.2551 0
M  V30 91 H 7.0956 4.0144 -0.4174 0
M  V30 92 H -13.1252 0.6839 1.1652 0
M  V30 93 H -12.4539 1.9794 0.1272 0
M  V30 94 H 9.6519 2.75 0.4307 0
M  V30 95 H -15.4592 1.2586 0.3438 0
M  V30 96 H -14.6274 2.5058 1.3318 0
M  V30 97 H 7.931 2.0213 -2.0059 0
M  V30 98 H -14.8251 2.5231 -1.7479 0
M  V30 99 H -14.0 3.7677 -0.7584 0
M  V30 100 H 9.9771 1.219 -2.9617 0
M  V30 101 H 10.8976 2.2577 -1.819 0
M  V30 102 H -17.0052 3.0321 -0.5165 0
M  V30 103 H -16.3619 4.3247 -1.5813 0
M  V30 104 H 9.6701 -0.5182 -1.1966 0
M  V30 105 H 10.5729 0.4629 -0.0118 0
M  V30 106 H -16.1542 4.2423 1.4932 0
M  V30 107 H -17.1576 5.339 0.4836 0
M  V30 108 H -15.3608 5.4829 0.4328 0
M  V30 109 H 11.661 -0.6994 -2.6674 0
M  V30 110 H 11.9319 -1.3802 -1.0393 0
M  V30 111 H 13.9091 -0.1626 -1.8225 0
M  V30 112 H 12.9776 1.3387 -2.0889 0
M  V30 113 H 12.5674 1.5814 0.3383 0
M  V30 114 H 13.2674 -0.0564 0.6612 0
M  V30 115 H 14.8068 2.3075 -0.5985 0
M  V30 116 H 15.5044 0.7269 -0.1082 0
M  V30 117 H 15.9246 2.6505 1.502 0
M  V30 118 H 14.1617 2.7528 1.82 0
M  V30 119 H 15.9204 0.2518 2.3175 0
M  V30 120 H 15.4279 1.4537 3.5665 0
M  V30 121 H 14.1729 0.4442 2.7659 0
M  V30 END ATOM
M  V30 BEGIN BOND
M  V30 1 2 1 2
M  V30 2 1 2 3
M  V30 3 1 2 4
M  V30 4 1 3 5
M  V30 5 1 4 6
M  V30 6 1 5 7
M  V30 7 1 6 8
M  V30 8 1 7 9
M  V30 9 1 7 10
M  V30 10 1 7 11
M  V30 11 1 8 12
M  V30 12 1 9 13
M  V30 13 1 12 14
M  V30 14 1 13 15
M  V30 15 1 14 16
M  V30 16 2 15 17
M  V30 17 1 15 18
M  V30 18 1 16 19
M  V30 19 1 18 20
M  V30 20 1 19 21
M  V30 21 1 20 22
M  V30 22 2 21 23
M  V30 23 1 22 24
M  V30 24 1 23 25
M  V30 25 1 24 26
M  V30 26 1 25 27
M  V30 27 1 26 28
M  V30 28 1 27 29
M  V30 29 1 28 30
M  V30 30 1 29 31
M  V30 31 1 30 32
M  V30 32 1 31 33
M  V30 33 2 32 34
M  V30 34 1 33 35
M  V30 35 1 34 36
M  V30 36 1 35 37
M  V30 37 1 36 38
M  V30 38 1 37 39
M  V30 39 1 38 40
M  V30 40 1 40 41
M  V30 41 1 41 42
M  V30 42 1 42 43
M  V30 43 1 43 44
M  V30 44 1 44 45
M  V30 45 1 4 46
M  V30 46 1 4 47
M  V30 47 1 5 48
M  V30 48 1 5 49
M  V30 49 1 6 50
M  V30 50 1 6 51
M  V30 51 1 8 52
M  V30 52 1 8 53
M  V30 53 1 9 54
M  V30 54 1 9 55
M  V30 55 1 10 56
M  V30 56 1 10 57
M  V30 57 1 10 58
M  V30 58 1 11 59
M  V30 59 1 11 60
M  V30 60 1 11 61
M  V30 61 1 12 62
M  V30 62 1 12 63
M  V30 63 1 14 64
M  V30 64 1 14 65
M  V30 65 1 16 66
M  V30 66 1 16 67
M  V30 67 1 18 68
M  V30 68 1 18 69
M  V30 69 1 19 70
M  V30 70 1 19 71
M  V30 71 1 20 72
M  V30 72 1 20 73
M  V30 73 1 21 74
M  V30 74 1 22 75
M  V30 75 1 22 76
M  V30 76 1 23 77
M  V30 77 1 24 78
M  V30 78 1 24 79
M  V30 79 1 25 80
M  V30 80 1 25 81
M  V30 81 1 26 82
M  V30 82 1 26 83
M  V30 83 1 27 84
M  V30 84 1 27 85
M  V30 85 1 28 86
M  V30 86 1 28 87
M  V30 87 1 29 88
M  V30 88 1 29 89
M  V30 89 1 30 90
M  V30 90 1 30 91
M  V30 91 1 31 92
M  V30 92 1 31 93
M  V30 93 1 32 94
M  V30 94 1 33 95
M  V30 95 1 33 96
M  V30 96 1 34 97
M  V30 97 1 35 98
M  V30 98 1 35 99
M  V30 99 1 36 100
M  V30 100 1 36 101
M  V30 101 1 37 102
M  V30 102 1 37 103
M  V30 103 1 38 104
M  V30 104 1 38 105
M  V30 105 1 39 106
M  V30 106 1 39 107
M  V30 107 1 39 108
M  V30 108 1 40 109
M  V30 109 1 40 110
M  V30 110 1 41 111
M  V30 111 1 41 112
M  V30 112 1 42 113
M  V30 113 1 42 114
M  V30 114 1 43 115
M  V30 115 1 43 116
M  V30 116 1 44 117
M  V30 117 1 44 118
M  V30 118 1 45 119
M  V30 119 1 45 120
M  V30 120 1 45 121
M  V30 END BOND
M  V30 END CTAB
M  END
>  <Structure No>
1399

>  <LogS>
-7.102471439

>  <MMFF94 Energy>
-0.40135

$$$$
Compound 1400
Actelion Java MolfileCreator 2.0

  0  0  0  0  0  0              0 V3000
M  V30 BEGIN CTAB
M  V30 COUNTS 65 64 0 0 0
M  V30 BEGIN ATOM
M  V30 1 O -0.4702 0.3134 2.1175 0
M  V30 2 C -1.1267 0.493 1.0547 0
M  V30 3 O -0.7865 -0.1832 -0.1181 0
M  V30 4 C -2.3231 1.3919 1.0609 0
M  V30 5 C 0.2795 -1.1266 -0.1813 0
M  V30 6 C -3.5538 0.6887 1.6475 0
M  V30 7 C 0.5116 -1.587 -1.6407 0
M  V30 8 C -4.0212 -0.4952 0.7812 0
M  V30 9 C 0.7762 -0.3705 -2.5645 0
M  V30 10 C -0.7318 -2.3478 -2.1466 0
M  V30 11 C 1.7258 -2.5374 -1.6806 0
M  V30 12 C -5.3176 -1.1345 1.322 0
M  V30 13 O 1.8388 0.4335 -2.0471 0
M  V30 14 C -6.5739 -0.747 0.5246 0
M  V30 15 C 1.6594 1.7049 -1.4873 0
M  V30 16 C -6.9314 0.7385 0.6614 0
M  V30 17 O 0.5664 2.321 -1.6269 0
M  V30 18 C 2.7395 2.3111 -0.6403 0
M  V30 19 C -8.2778 1.0429 0.0098 0
M  V30 20 C 4.1027 2.4024 -1.3517 0
M  V30 21 C 4.7851 1.0555 -1.6795 0
M  V30 22 C 4.874 0.057 -0.5108 0
M  V30 23 C 5.7228 0.5786 0.6568 0
M  V30 24 C 5.8112 -0.4665 1.7746 0
M  V30 25 C 6.6951 0.0197 2.9195 0
M  V30 26 H -2.54 1.737 0.0268 0
M  V30 27 H -2.0943 2.2922 1.6721 0
M  V30 28 H 1.2074 -0.6624 0.221 0
M  V30 29 H 0.0324 -1.9999 0.4621 0
M  V30 30 H -4.3694 1.436 1.7323 0
M  V30 31 H -3.318 0.3312 2.6755 0
M  V30 32 H -4.1518 -0.1682 -0.2746 0
M  V30 33 H -3.2238 -1.2701 0.7846 0
M  V30 34 H -0.1522 0.2277 -2.6965 0
M  V30 35 H 1.0687 -0.7257 -3.5766 0
M  V30 36 H -0.9451 -3.2223 -1.4962 0
M  V30 37 H -1.6284 -1.6889 -2.1477 0
M  V30 38 H -0.5728 -2.7126 -3.1831 0
M  V30 39 H 1.9009 -2.9094 -2.7134 0
M  V30 40 H 2.6456 -2.0178 -1.3411 0
M  V30 41 H 1.5582 -3.4141 -1.0194 0
M  V30 42 H -5.2138 -2.24 1.2551 0
M  V30 43 H -5.4664 -0.9015 2.3995 0
M  V30 44 H -7.4214 -1.3595 0.9047 0
M  V30 45 H -6.4288 -1.0014 -0.5483 0
M  V30 46 H -6.1545 1.3582 0.1638 0
M  V30 47 H -6.9801 1.0195 1.7367 0
M  V30 48 H 2.822 1.7482 0.3109 0
M  V30 49 H 2.4354 3.3437 -0.3607 0
M  V30 50 H -8.2484 0.7897 -1.0712 0
M  V30 51 H -9.0855 0.4611 0.502 0
M  V30 52 H -8.505 2.1245 0.1153 0
M  V30 53 H 4.7878 3.0017 -0.7142 0
M  V30 54 H 3.9769 2.973 -2.2977 0
M  V30 55 H 4.2564 0.5701 -2.5258 0
M  V30 56 H 5.8137 1.2671 -2.0454 0
M  V30 57 H 3.858 -0.2152 -0.1565 0
M  V30 58 H 5.3377 -0.8771 -0.8972 0
M  V30 59 H 5.2697 1.5053 1.0699 0
M  V30 60 H 6.7437 0.8178 0.2881 0
M  V30 61 H 4.794 -0.6757 2.1707 0
M  V30 62 H 6.2327 -1.4125 1.3724 0
M  V30 63 H 6.7234 -0.7457 3.7224 0
M  V30 64 H 7.7287 0.1918 2.5554 0
M  V30 65 H 6.294 0.9622 3.3455 0
M  V30 END ATOM
M  V30 BEGIN BOND
M  V30 1 2 1 2
M  V30 2 1 2 3
M  V30 3 1 2 4
M  V30 4 1 3 5
M  V30 5 1 4 6
M  V30 6 1 5 7
M  V30 7 1 6 8
M  V30 8 1 7 9
M  V30 9 1 7 10
M  V30 10 1 7 11
M  V30 11 1 8 12
M  V30 12 1 9 13
M  V30 13 1 12 14
M  V30 14 1 13 15
M  V30 15 1 14 16
M  V30 16 2 15 17
M  V30 17 1 15 18
M  V30 18 1 16 19
M  V30 19 1 18 20
M  V30 20 1 20 21
M  V30 21 1 21 22
M  V30 22 1 22 23
M  V30 23 1 23 24
M  V30 24 1 24 25
M  V30 25 1 4 26
M  V30 26 1 4 27
M  V30 27 1 5 28
M  V30 28 1 5 29
M  V30 29 1 6 30
M  V30 30 1 6 31
M  V30 31 1 8 32
M  V30 32 1 8 33
M  V30 33 1 9 34
M  V30 34 1 9 35
M  V30 35 1 10 36
M  V30 36 1 10 37
M  V30 37 1 10 38
M  V30 38 1 11 39
M  V30 39 1 11 40
M  V30 40 1 11 41
M  V30 41 1 12 42
M  V30 42 1 12 43
M  V30 43 1 14 44
M  V30 44 1 14 45
M  V30 45 1 16 46
M  V30 46 1 16 47
M  V30 47 1 18 48
M  V30 48 1 18 49
M  V30 49 1 19 50
M  V30 50 1 19 51
M  V30 51 1 19 52
M  V30 52 1 20 53
M  V30 53 1 20 54
M  V30 54 1 21 55
M  V30 55 1 21 56
M  V30 56 1 22 57
M  V30 57 1 22 58
M  V30 58 1 23 59
M  V30 59 1 23 60
M  V30 60 1 24 61
M  V30 61 1 24 62
M  V30 62 1 25 63
M  V30 63 1 25 64
M  V30 64 1 25 65
M  V30 END BOND
M  V30 END CTAB
M  END
>  <Structure No>
1400

>  <LogS>
-6.853146782

>  <MMFF94 Energy>
-11.561

$$$$
Compound 1401
Actelion Java MolfileCreator 2.0

  0  0  0  0  0  0              0 V3000
M  V30 BEGIN CTAB
M  V30 COUNTS 114 113 0 0 0
M  V30 BEGIN ATOM
M  V30 1 O -1.8809 0.5483 -4.1575 0
M  V30 2 C -1.7229 -0.1584 -3.1241 0
M  V30 3 O -2.6008 -0.0371 -2.042 0
M  V30 4 C -0.6069 -1.1147 -3.0728 0
M  V30 5 C -3.6482 0.9273 -2.0036 0
M  V30 6 C -0.34 -1.8323 -1.9771 0
M  V30 7 C -4.4734 0.7573 -0.7278 0
M  V30 8 C 0.7806 -2.7828 -1.9224 0
M  V30 9 C -3.6128 0.9373 0.5341 0
M  V30 10 O 1.0205 -3.3848 -0.841 0
M  V30 11 O 1.5601 -3.0229 -3.0619 0
M  V30 12 C -4.449 0.9863 1.823 0
M  V30 13 C 2.681 -3.9061 -3.0884 0
M  V30 14 C -5.1148 -0.3622 2.1535 0
M  V30 15 C 3.9948 -3.1283 -2.9701 0
M  V30 16 C -5.8549 -0.3357 3.5081 0
M  V30 17 C 4.1951 -2.528 -1.5694 0
M  V30 18 C -7.3737 -0.1251 3.3815 0
M  V30 19 C 5.5123 -1.7437 -1.4476 0
M  V30 20 C -7.7406 1.2697 2.8518 0
M  V30 21 C 6.7501 -2.657 -1.4642 0
M  V30 22 C -9.2301 1.5976 3.0348 0
M  V30 23 C 8.0452 -1.9092 -1.109 0
M  V30 24 C -10.1314 0.7969 2.0839 0
M  V30 25 C 8.4195 -0.8457 -2.1537 0
M  V30 26 C -11.5985 1.213 2.2451 0
M  V30 27 C 9.8539 -0.3434 -1.9459 0
M  V30 28 C -12.5039 0.4413 1.2778 0
M  V30 29 C 10.1866 0.7904 -2.926 0
M  V30 30 C -13.9736 0.8472 1.465 0
M  V30 31 C 11.6868 1.1264 -2.9724 0
M  V30 32 C -14.9332 0.035 0.5809 0
M  V30 33 C 12.2371 1.7157 -1.6563 0
M  V30 34 C -14.8887 0.4734 -0.8929 0
M  V30 35 C 12.9738 0.6623 -0.8078 0
M  V30 36 C -15.858 -0.3276 -1.7768 0
M  V30 37 C 13.6846 1.2735 0.4106 0
M  V30 38 C -17.3244 0.0193 -1.5177 0
M  V30 39 C 12.7031 1.6865 1.521 0
M  V30 40 C 13.4136 2.3178 2.7302 0
M  V30 41 C 14.1692 1.2861 3.5808 0
M  V30 42 C 14.7677 1.9332 4.8278 0
M  V30 43 H 0.0152 -1.2168 -3.9537 0
M  V30 44 H -3.2164 1.9512 -2.0415 0
M  V30 45 H -4.3144 0.7896 -2.8832 0
M  V30 46 H -0.9517 -1.7176 -1.0898 0
M  V30 47 H -4.9293 -0.2555 -0.7379 0
M  V30 48 H -5.2936 1.5083 -0.7329 0
M  V30 49 H -2.866 0.1153 0.6045 0
M  V30 50 H -3.0545 1.8965 0.4549 0
M  V30 51 H -3.7676 1.2623 2.6585 0
M  V30 52 H -5.2086 1.7904 1.7366 0
M  V30 53 H 2.6774 -4.4308 -4.0671 0
M  V30 54 H 2.6078 -4.6866 -2.3001 0
M  V30 55 H -5.8152 -0.6607 1.345 0
M  V30 56 H -4.3194 -1.139 2.2042 0
M  V30 57 H 4.0089 -2.3188 -3.7328 0
M  V30 58 H 4.823 -3.8321 -3.1976 0
M  V30 59 H -5.421 0.4262 4.1929 0
M  V30 60 H -5.7024 -1.3204 4.0024 0
M  V30 61 H 3.3636 -1.8227 -1.3571 0
M  V30 62 H 4.1633 -3.332 -0.8025 0
M  V30 63 H -7.7989 -0.9087 2.7194 0
M  V30 64 H -7.8193 -0.2603 4.3911 0
M  V30 65 H 5.5741 -1.0012 -2.2718 0
M  V30 66 H 5.4918 -1.1833 -0.4879 0
M  V30 67 H -7.4786 1.3463 1.7749 0
M  V30 68 H -7.1528 2.0338 3.4058 0
M  V30 69 H 6.6107 -3.4715 -0.7222 0
M  V30 70 H 6.8698 -3.1246 -2.4632 0
M  V30 71 H -9.5312 1.4126 4.0887 0
M  V30 72 H -9.3698 2.6821 2.8312 0
M  V30 73 H 8.8628 -2.6611 -1.0441 0
M  V30 74 H 7.9444 -1.4342 -0.1078 0
M  V30 75 H -10.0382 -0.2881 2.3025 0
M  V30 76 H -9.81 0.9762 1.0341 0
M  V30 77 H 7.7176 0.0129 -2.0733 0
M  V30 78 H 8.3332 -1.2784 -3.1751 0
M  V30 79 H -11.6981 2.3034 2.0462 0
M  V30 80 H -11.9201 1.0135 3.2912 0
M  V30 81 H 9.9604 0.0288 -0.9035 0
M  V30 82 H 10.559 -1.1897 -2.1016 0
M  V30 83 H -12.1832 0.6568 0.2372 0
M  V30 84 H -12.3963 -0.6494 1.4653 0
M  V30 85 H 9.6067 1.7 -2.6559 0
M  V30 86 H 9.8773 0.4891 -3.9511 0
M  V30 87 H -14.0984 1.9334 1.2598 0
M  V30 88 H -14.2571 0.6745 2.5266 0
M  V30 89 H 11.827 1.8853 -3.7733 0
M  V30 90 H 12.2646 0.2306 -3.2898 0
M  V30 91 H -14.7 -1.0481 0.6653 0
M  V30 92 H -15.9591 0.1898 0.9747 0
M  V30 93 H 11.4152 2.1815 -1.0723 0
M  V30 94 H 12.9574 2.5248 -1.9124 0
M  V30 95 H -15.1187 1.5595 -0.9739 0
M  V30 96 H -13.8645 0.3148 -1.2909 0
M  V30 97 H 13.7505 0.1766 -1.4393 0
M  V30 98 H 12.2751 -0.1317 -0.4718 0
M  V30 99 H -15.7008 -1.4177 -1.6273 0
M  V30 100 H -15.6316 -0.0981 -2.8403 0
M  V30 101 H 14.3828 0.507 0.8086 0
M  V30 102 H 14.2939 2.1487 0.0929 0
M  V30 103 H -17.4839 1.1179 -1.5763 0
M  V30 104 H -17.9601 -0.4702 -2.2856 0
M  V30 105 H -17.6466 -0.3497 -0.5219 0
M  V30 106 H 12.1087 0.8059 1.8495 0
M  V30 107 H 11.9935 2.4406 1.121 0
M  V30 108 H 14.1123 3.1123 2.3856 0
M  V30 109 H 12.6404 2.8049 3.3647 0
M  V30 110 H 13.4744 0.477 3.8954 0
M  V30 111 H 14.9935 0.8344 2.991 0
M  V30 112 H 13.9636 2.3683 5.4612 0
M  V30 113 H 15.4838 2.7329 4.5404 0
M  V30 114 H 15.3105 1.1657 5.4193 0
M  V30 END ATOM
M  V30 BEGIN BOND
M  V30 1 2 1 2
M  V30 2 1 2 3
M  V30 3 1 2 4
M  V30 4 1 3 5
M  V30 5 2 4 6
M  V30 6 1 5 7
M  V30 7 1 6 8
M  V30 8 1 7 9
M  V30 9 2 8 10
M  V30 10 1 8 11
M  V30 11 1 9 12
M  V30 12 1 11 13
M  V30 13 1 12 14
M  V30 14 1 13 15
M  V30 15 1 14 16
M  V30 16 1 15 17
M  V30 17 1 16 18
M  V30 18 1 17 19
M  V30 19 1 18 20
M  V30 20 1 19 21
M  V30 21 1 20 22
M  V30 22 1 21 23
M  V30 23 1 22 24
M  V30 24 1 23 25
M  V30 25 1 24 26
M  V30 26 1 25 27
M  V30 27 1 26 28
M  V30 28 1 27 29
M  V30 29 1 28 30
M  V30 30 1 29 31
M  V30 31 1 30 32
M  V30 32 1 31 33
M  V30 33 1 32 34
M  V30 34 1 33 35
M  V30 35 1 34 36
M  V30 36 1 35 37
M  V30 37 1 36 38
M  V30 38 1 37 39
M  V30 39 1 39 40
M  V30 40 1 40 41
M  V30 41 1 41 42
M  V30 42 1 4 43
M  V30 43 1 5 44
M  V30 44 1 5 45
M  V30 45 1 6 46
M  V30 46 1 7 47
M  V30 47 1 7 48
M  V30 48 1 9 49
M  V30 49 1 9 50
M  V30 50 1 12 51
M  V30 51 1 12 52
M  V30 52 1 13 53
M  V30 53 1 13 54
M  V30 54 1 14 55
M  V30 55 1 14 56
M  V30 56 1 15 57
M  V30 57 1 15 58
M  V30 58 1 16 59
M  V30 59 1 16 60
M  V30 60 1 17 61
M  V30 61 1 17 62
M  V30 62 1 18 63
M  V30 63 1 18 64
M  V30 64 1 19 65
M  V30 65 1 19 66
M  V30 66 1 20 67
M  V30 67 1 20 68
M  V30 68 1 21 69
M  V30 69 1 21 70
M  V30 70 1 22 71
M  V30 71 1 22 72
M  V30 72 1 23 73
M  V30 73 1 23 74
M  V30 74 1 24 75
M  V30 75 1 24 76
M  V30 76 1 25 77
M  V30 77 1 25 78
M  V30 78 1 26 79
M  V30 79 1 26 80
M  V30 80 1 27 81
M  V30 81 1 27 82
M  V30 82 1 28 83
M  V30 83 1 28 84
M  V30 84 1 29 85
M  V30 85 1 29 86
M  V30 86 1 30 87
M  V30 87 1 30 88
M  V30 88 1 31 89
M  V30 89 1 31 90
M  V30 90 1 32 91
M  V30 91 1 32 92
M  V30 92 1 33 93
M  V30 93 1 33 94
M  V30 94 1 34 95
M  V30 95 1 34 96
M  V30 96 1 35 97
M  V30 97 1 35 98
M  V30 98 1 36 99
M  V30 99 1 36 100
M  V30 100 1 37 101
M  V30 101 1 37 102
M  V30 102 1 38 103
M  V30 103 1 38 104
M  V30 104 1 38 105
M  V30 105 1 39 106
M  V30 106 1 39 107
M  V30 107 1 40 108
M  V30 108 1 40 109
M  V30 109 1 41 110
M  V30 110 1 41 111
M  V30 111 1 42 112
M  V30 112 1 42 113
M  V30 113 1 42 114
M  V30 END BOND
M  V30 END CTAB
M  END
>  <Structure No>
1401

>  <LogS>
-7.074077365

>  <MMFF94 Energy>
-37.837

$$$$
Compound 1402
Actelion Java MolfileCreator 2.0

  0  0  0  0  0  0              0 V3000
M  V30 BEGIN CTAB
M  V30 COUNTS 66 65 0 0 0
M  V30 BEGIN ATOM
M  V30 1 O 0 0 0 0
M  V30 2 C 0 0 0 0
M  V30 3 O 0 0 0 0
M  V30 4 C 0 0 0 0
M  V30 5 C 0 0 0 0
M  V30 6 C 0 0 0 0
M  V30 7 C 0 0 0 0
M  V30 8 C 0 0 0 0
M  V30 9 C 0 0 0 0
M  V30 10 C 0 0 0 0
M  V30 11 C 0 0 0 0
M  V30 12 C 0 0 0 0
M  V30 13 O 0 0 0 0
M  V30 14 O 0 0 0 0
M  V30 15 C 0 0 0 0
M  V30 16 C 0 0 0 0
M  V30 17 C 0 0 0 0
M  V30 18 C 0 0 0 0
M  V30 19 C 0 0 0 0
M  V30 20 O 0 0 0 0
M  V30 21 C 0 0 0 0
M  V30 22 O 0 0 0 0
M  V30 23 C 0 0 0 0
M  V30 24 C 0 0 0 0
M  V30 25 C 0 0 0 0
M  V30 26 C 0 0 0 0
M  V30 27 C 0 0 0 0
M  V30 28 C 0 0 0 0
M  V30 29 C 0 0 0 0
M  V30 30 C 0 0 0 0
M  V30 31 C 0 0 0 0
M  V30 32 C 0 0 0 0
M  V30 33 C 0 0 0 0
M  V30 34 C 0 0 0 0
M  V30 35 C 0 0 0 0
M  V30 36 C 0 0 0 0
M  V30 37 C 0 0 0 0
M  V30 38 C 0 0 0 0
M  V30 39 C 0 0 0 0
M  V30 40 C 0 0 0 0
M  V30 41 C 0 0 0 0
M  V30 42 C 0 0 0 0
M  V30 43 C 0 0 0 0
M  V30 44 C 0 0 0 0
M  V30 45 C 0 0 0 0
M  V30 46 C 0 0 0 0
M  V30 47 C 0 0 0 0
M  V30 48 C 0 0 0 0
M  V30 49 C 0 0 0 0
M  V30 50 C 0 0 0 0
M  V30 51 C 0 0 0 0
M  V30 52 C 0 0 0 0
M  V30 53 C 0 0 0 0
M  V30 54 C 0 0 0 0
M  V30 55 C 0 0 0 0
M  V30 56 C 0 0 0 0
M  V30 57 C 0 0 0 0
M  V30 58 C 0 0 0 0
M  V30 59 C 0 0 0 0
M  V30 60 C 0 0 0 0
M  V30 61 C 0 0 0 0
M  V30 62 C 0 0 0 0
M  V30 63 C 0 0 0 0
M  V30 64 C 0 0 0 0
M  V30 65 C 0 0 0 0
M  V30 66 C 0 0 0 0
M  V30 END ATOM
M  V30 BEGIN BOND
M  V30 1 2 1 2
M  V30 2 1 2 3
M  V30 3 1 2 4
M  V30 4 1 3 5
M  V30 5 1 4 6
M  V30 6 1 5 7
M  V30 7 1 6 8
M  V30 8 1 7 9
M  V30 9 1 7 10
M  V30 10 1 7 11
M  V30 11 1 8 12
M  V30 12 1 9 13
M  V30 13 1 10 14
M  V30 14 1 11 15
M  V30 15 1 12 16
M  V30 16 1 13 17
M  V30 17 1 14 18
M  V30 18 1 16 19
M  V30 19 2 17 20
M  V30 20 1 17 21
M  V30 21 2 18 22
M  V30 22 1 18 23
M  V30 23 1 19 24
M  V30 24 1 21 25
M  V30 25 1 23 26
M  V30 26 1 24 27
M  V30 27 1 25 28
M  V30 28 1 26 29
M  V30 29 1 27 30
M  V30 30 1 28 31
M  V30 31 1 29 32
M  V30 32 1 30 33
M  V30 33 1 31 34
M  V30 34 1 32 35
M  V30 35 1 33 36
M  V30 36 1 34 37
M  V30 37 1 35 38
M  V30 38 1 36 39
M  V30 39 1 37 40
M  V30 40 1 38 41
M  V30 41 1 39 42
M  V30 42 1 40 43
M  V30 43 1 41 44
M  V30 44 1 42 45
M  V30 45 1 43 46
M  V30 46 1 44 47
M  V30 47 1 45 48
M  V30 48 1 46 49
M  V30 49 1 47 50
M  V30 50 1 48 51
M  V30 51 1 48 52
M  V30 52 1 49 53
M  V30 53 1 50 54
M  V30 54 1 53 55
M  V30 55 1 54 56
M  V30 56 1 55 57
M  V30 57 1 56 58
M  V30 58 1 57 59
M  V30 59 1 58 60
M  V30 60 1 59 61
M  V30 61 1 60 62
M  V30 62 1 61 63
M  V30 63 1 61 64
M  V30 64 1 62 65
M  V30 65 1 62 66
M  V30 END BOND
M  V30 END CTAB
M  END
>  <Structure No>
1402

>  <LogS>
-7.271182465

>  <MMFF94 Energy>
-6.2685

$$$$
Compound 1403
Actelion Java MolfileCreator 2.0

  0  0  0  0  0  0              0 V3000
M  V30 BEGIN CTAB
M  V30 COUNTS 80 79 0 0 0
M  V30 BEGIN ATOM
M  V30 1 O 4.5383 1.1721 0.7813 0
M  V30 2 C 4.071 0.0143 0.9633 0
M  V30 3 O 4.9211 -1.0834 1.1345 0
M  V30 4 C 2.5905 -0.1968 0.9696 0
M  V30 5 C 6.3376 -1.01 0.991 0
M  V30 6 C 2.0235 -0.0775 -0.4497 0
M  V30 7 C 6.7157 -0.9437 -0.493 0
M  V30 8 C 0.5741 -0.5813 -0.5606 0
M  V30 9 C 8.2289 -1.0764 -0.7249 0
M  V30 10 C -0.4472 0.2658 0.2343 0
M  V30 11 C 8.9995 0.1877 -0.316 0
M  V30 12 C -0.8354 -0.3291 1.6039 0
M  V30 13 C 10.488 0.0574 -0.6672 0
M  V30 14 C -1.6498 -1.6361 1.5416 0
M  V30 15 C 11.3271 1.246 -0.1671 0
M  V30 16 C -3.0373 -1.4594 0.9055 0
M  V30 17 C 10.9976 2.5739 -0.8813 0
M  V30 18 C -3.8618 -2.7494 1.0331 0
M  V30 19 C 10.1541 3.508 -0.0118 0
M  V30 20 C -5.2029 -2.6718 0.2865 0
M  V30 21 C -6.2369 -1.8044 1.0197 0
M  V30 22 C -7.5778 -1.8038 0.2705 0
M  V30 23 C -8.71 -1.1382 1.0726 0
M  V30 24 C -8.4805 0.3473 1.4165 0
M  V30 25 C -8.2155 1.2626 0.207 0
M  V30 26 C -9.3734 1.268 -0.8019 0
M  V30 27 C -9.1459 2.3219 -1.8912 0
M  V30 28 C -10.2809 2.3151 -2.9121 0
M  V30 29 H 2.3723 -1.206 1.3803 0
M  V30 30 H 2.1238 0.5641 1.6293 0
M  V30 31 H 6.7282 -0.1291 1.5437 0
M  V30 32 H 6.7778 -1.9242 1.4415 0
M  V30 33 H 2.0816 0.9802 -0.7891 0
M  V30 34 H 2.6466 -0.6849 -1.1435 0
M  V30 35 H 6.2079 -1.7801 -1.0204 0
M  V30 36 H 6.3452 0.0041 -0.9381 0
M  V30 37 H 0.5376 -1.6549 -0.2832 0
M  V30 38 H 0.2919 -0.5311 -1.6365 0
M  V30 39 H 8.3943 -1.26 -1.8098 0
M  V30 40 H 8.6211 -1.9572 -0.1697 0
M  V30 41 H -0.0408 1.2878 0.399 0
M  V30 42 H -1.3612 0.4101 -0.3786 0
M  V30 43 H 8.5701 1.0592 -0.8548 0
M  V30 44 H 8.8974 0.3543 0.7776 0
M  V30 45 H -1.4279 0.4291 2.1605 0
M  V30 46 H 0.0799 -0.5162 2.2006 0
M  V30 47 H 10.6096 -0.0451 -1.7681 0
M  V30 48 H 10.889 -0.8675 -0.1971 0
M  V30 49 H -1.0877 -2.4257 1.0024 0
M  V30 50 H -1.7824 -1.995 2.5871 0
M  V30 51 H 12.3947 1.0031 -0.3622 0
M  V30 52 H 11.2248 1.3435 0.9363 0
M  V30 53 H -2.9241 -1.2144 -0.1711 0
M  V30 54 H -3.5667 -0.6243 1.4117 0
M  V30 55 H 10.4775 2.3927 -1.8481 0
M  V30 56 H 11.948 3.101 -1.1196 0
M  V30 57 H -3.2777 -3.5901 0.5991 0
M  V30 58 H -4.0389 -2.9832 2.1052 0
M  V30 59 H 10.7459 3.8368 0.8692 0
M  V30 60 H 9.2333 3.0044 0.3454 0
M  V30 61 H 9.8676 4.4062 -0.5984 0
M  V30 62 H -5.0428 -2.2856 -0.7437 0
M  V30 63 H -5.6039 -3.7055 0.199 0
M  V30 64 H -5.8596 -0.7628 1.0919 0
M  V30 65 H -6.3872 -2.2026 2.0477 0
M  V30 66 H -7.461 -1.3088 -0.7173 0
M  V30 67 H -7.8831 -2.8552 0.073 0
M  V30 68 H -9.6602 -1.2433 0.5069 0
M  V30 69 H -8.8505 -1.6984 2.023 0
M  V30 70 H -9.3765 0.722 1.9589 0
M  V30 71 H -7.6284 0.434 2.1239 0
M  V30 72 H -8.0724 2.2947 0.5953 0
M  V30 73 H -7.2693 0.9704 -0.2965 0
M  V30 74 H -10.3261 1.4883 -0.2724 0
M  V30 75 H -9.456 0.2688 -1.2823 0
M  V30 76 H -8.1867 2.1178 -2.416 0
M  V30 77 H -9.0854 3.3312 -1.4286 0
M  V30 78 H -10.0961 3.0978 -3.6772 0
M  V30 79 H -11.2502 2.5272 -2.4123 0
M  V30 80 H -10.3371 1.3269 -3.4189 0
M  V30 END ATOM
M  V30 BEGIN BOND
M  V30 1 2 1 2
M  V30 2 1 2 3
M  V30 3 1 2 4
M  V30 4 1 3 5
M  V30 5 1 4 6
M  V30 6 1 5 7
M  V30 7 1 6 8
M  V30 8 1 7 9
M  V30 9 1 8 10
M  V30 10 1 9 11
M  V30 11 1 10 12
M  V30 12 1 11 13
M  V30 13 1 12 14
M  V30 14 1 13 15
M  V30 15 1 14 16
M  V30 16 1 15 17
M  V30 17 1 16 18
M  V30 18 1 17 19
M  V30 19 1 18 20
M  V30 20 1 20 21
M  V30 21 1 21 22
M  V30 22 1 22 23
M  V30 23 1 23 24
M  V30 24 1 24 25
M  V30 25 1 25 26
M  V30 26 1 26 27
M  V30 27 1 27 28
M  V30 28 1 4 29
M  V30 29 1 4 30
M  V30 30 1 5 31
M  V30 31 1 5 32
M  V30 32 1 6 33
M  V30 33 1 6 34
M  V30 34 1 7 35
M  V30 35 1 7 36
M  V30 36 1 8 37
M  V30 37 1 8 38
M  V30 38 1 9 39
M  V30 39 1 9 40
M  V30 40 1 10 41
M  V30 41 1 10 42
M  V30 42 1 11 43
M  V30 43 1 11 44
M  V30 44 1 12 45
M  V30 45 1 12 46
M  V30 46 1 13 47
M  V30 47 1 13 48
M  V30 48 1 14 49
M  V30 49 1 14 50
M  V30 50 1 15 51
M  V30 51 1 15 52
M  V30 52 1 16 53
M  V30 53 1 16 54
M  V30 54 1 17 55
M  V30 55 1 17 56
M  V30 56 1 18 57
M  V30 57 1 18 58
M  V30 58 1 19 59
M  V30 59 1 19 60
M  V30 60 1 19 61
M  V30 61 1 20 62
M  V30 62 1 20 63
M  V30 63 1 21 64
M  V30 64 1 21 65
M  V30 65 1 22 66
M  V30 66 1 22 67
M  V30 67 1 23 68
M  V30 68 1 23 69
M  V30 69 1 24 70
M  V30 70 1 24 71
M  V30 71 1 25 72
M  V30 72 1 25 73
M  V30 73 1 26 74
M  V30 74 1 26 75
M  V30 75 1 27 76
M  V30 76 1 27 77
M  V30 77 1 28 78
M  V30 78 1 28 79
M  V30 79 1 28 80
M  V30 END BOND
M  V30 END CTAB
M  END
>  <Structure No>
1403

>  <LogS>
-6.899492196

>  <MMFF94 Energy>
-14.998

$$$$
Compound 1404
Actelion Java MolfileCreator 2.0

  0  0  0  0  0  0              0 V3000
M  V30 BEGIN CTAB
M  V30 COUNTS 49 49 0 0 0
M  V30 BEGIN ATOM
M  V30 1 O 7.5352 1.0178 -2.4284 0
M  V30 2 C 6.1454 0.805 -2.356 0 CFG=1
M  V30 3 C 7.0922 -0.3146 -2.5586 0
M  V30 4 C 5.6147 1.0134 -0.9358 0
M  V30 5 C 4.3093 0.2383 -0.7381 0
M  V30 6 C 3.7474 0.4545 0.672 0
M  V30 7 C 2.4408 -0.3233 0.8694 0
M  V30 8 C 1.8682 -0.0899 2.2754 0
M  V30 9 C 0.6627 -0.9939 2.5923 0
M  V30 10 C -0.5501 -0.8187 1.6598 0
M  V30 11 C -1.1559 0.5938 1.7235 0
M  V30 12 C -2.4135 0.7356 0.8505 0
M  V30 13 C -3.6331 0.0067 1.4429 0
M  V30 14 C -4.9439 0.3741 0.7293 0
M  V30 15 C -5.012 -0.178 -0.7021 0
M  V30 16 C -6.3831 0.0961 -1.3308 0
M  V30 17 C -6.4532 -0.4405 -2.7576 0
M  V30 18 H 5.6114 1.2118 -3.2406 0
M  V30 19 H 7.2046 -0.6754 -3.6019 0
M  V30 20 H 7.3729 -0.9224 -1.6726 0
M  V30 21 H 5.4274 2.0993 -0.7905 0
M  V30 22 H 6.3619 0.6901 -0.1764 0
M  V30 23 H 4.5003 -0.8462 -0.8966 0
M  V30 24 H 3.5625 0.5791 -1.4892 0
M  V30 25 H 3.5567 1.5392 0.83 0
M  V30 26 H 4.4956 0.1139 1.4216 0
M  V30 27 H 2.6332 -1.4089 0.7228 0
M  V30 28 H 1.7059 0.016 0.1082 0
M  V30 29 H 1.5939 0.9785 2.4026 0
M  V30 30 H 2.6583 -0.3118 3.0261 0
M  V30 31 H 0.3414 -0.8003 3.639 0
M  V30 32 H 0.9912 -2.0553 2.5469 0
M  V30 33 H -1.3137 -1.5589 1.9774 0
M  V30 34 H -0.2719 -1.0686 0.6144 0
M  V30 35 H -0.4096 1.325 1.3474 0
M  V30 36 H -1.3931 0.8619 2.7763 0
M  V30 37 H -2.6485 1.8192 0.7646 0
M  V30 38 H -2.1962 0.3549 -0.1703 0
M  V30 39 H -3.4871 -1.0931 1.3935 0
M  V30 40 H -3.7383 0.2866 2.514 0
M  V30 41 H -5.7856 -0.0513 1.3192 0
M  V30 42 H -5.0687 1.4792 0.7154 0
M  V30 43 H -4.8291 -1.2751 -0.6852 0
M  V30 44 H -4.2286 0.3035 -1.3257 0
M  V30 45 H -7.1783 -0.3908 -0.7249 0
M  V30 46 H -6.5751 1.1912 -1.3487 0
M  V30 47 H -5.6854 0.0504 -3.3928 0
M  V30 48 H -6.2881 -1.539 -2.7651 0
M  V30 49 H -7.4558 -0.2292 -3.1854 0
M  V30 END ATOM
M  V30 BEGIN BOND
M  V30 1 1 1 2
M  V30 2 1 1 3
M  V30 3 1 2 4
M  V30 4 1 4 5
M  V30 5 1 5 6
M  V30 6 1 6 7
M  V30 7 1 7 8
M  V30 8 1 8 9
M  V30 9 1 9 10
M  V30 10 1 10 11
M  V30 11 1 11 12
M  V30 12 1 12 13
M  V30 13 1 13 14
M  V30 14 1 14 15
M  V30 15 1 15 16
M  V30 16 1 16 17
M  V30 17 1 2 3
M  V30 18 1 2 18
M  V30 19 1 3 19
M  V30 20 1 3 20
M  V30 21 1 4 21
M  V30 22 1 4 22
M  V30 23 1 5 23
M  V30 24 1 5 24
M  V30 25 1 6 25
M  V30 26 1 6 26
M  V30 27 1 7 27
M  V30 28 1 7 28
M  V30 29 1 8 29
M  V30 30 1 8 30
M  V30 31 1 9 31
M  V30 32 1 9 32
M  V30 33 1 10 33
M  V30 34 1 10 34
M  V30 35 1 11 35
M  V30 36 1 11 36
M  V30 37 1 12 37
M  V30 38 1 12 38
M  V30 39 1 13 39
M  V30 40 1 13 40
M  V30 41 1 14 41
M  V30 42 1 14 42
M  V30 43 1 15 43
M  V30 44 1 15 44
M  V30 45 1 16 45
M  V30 46 1 16 46
M  V30 47 1 17 47
M  V30 48 1 17 48
M  V30 49 1 17 49
M  V30 END BOND
M  V30 BEGIN COLLECTION
M  V30 MDLV30/STEABS ATOMS=(1 2)
M  V30 END COLLECTION
M  V30 END CTAB
M  END
>  <Structure No>
1404

>  <LogS>
-6.682020458

>  <MMFF94 Energy>
3.7579

$$$$
Compound 1405
Actelion Java MolfileCreator 2.0

  0  0  0  0  0  0              0 V3000
M  V30 BEGIN CTAB
M  V30 COUNTS 92 93 0 0 0
M  V30 BEGIN ATOM
M  V30 1 O 1.6627 -3.407 1.6627 0
M  V30 2 C 1.488 -2.3392 1.0162 0
M  V30 3 N 0.1781 -1.9878 0.5534 0
M  V30 4 C 2.6409 -1.4007 0.8051 0
M  V30 5 N -0.9204 -2.8469 0.7389 0
M  V30 6 C 3.8755 -2.1359 0.2669 0
M  V30 7 C -2.2638 -2.3816 0.5654 0
M  V30 8 C 5.0104 -1.1661 0.051 0
M  V30 9 O -2.4833 -1.1518 0.4087 0
M  V30 10 C -3.4171 -3.3444 0.6642 0
M  V30 11 C 5.8226 -0.7998 1.1221 0
M  V30 12 C 5.1915 -0.5629 -1.1911 0
M  V30 13 C -4.4095 -3.2063 -0.5027 0
M  V30 14 C 6.8427 0.1656 0.986 0
M  V30 15 C 6.2474 0.3472 -1.4221 0
M  V30 16 C -5.2617 -1.9637 -0.3838 0
M  V30 17 C 7.1303 0.6288 -0.337 0
M  V30 18 C 7.5899 0.6765 2.2558 0
M  V30 19 C 6.4788 0.96 -2.8348 0
M  V30 20 C -5.0125 -0.8612 -1.1952 0
M  V30 21 C -6.2616 -1.8972 0.5832 0
M  V30 22 O 8.3003 1.3336 -0.6104 0
M  V30 23 C 6.7233 0.5108 3.5388 0
M  V30 24 C 8.8825 -0.1388 2.4666 0
M  V30 25 C 7.9142 2.1946 2.1547 0
M  V30 26 C 5.3348 0.633 -3.8312 0
M  V30 27 C 6.5528 2.504 -2.7479 0
M  V30 28 C 7.7846 0.4045 -3.4475 0
M  V30 29 C -5.7766 0.3204 -1.0922 0
M  V30 30 C -7.0273 -0.7277 0.7915 0
M  V30 31 C -6.8424 0.3457 -0.1416 0
M  V30 32 C -5.486 1.5382 -2.0193 0
M  V30 33 C -8.0003 -0.6548 2.0124 0
M  V30 34 O -7.7071 1.4371 -0.1762 0
M  V30 35 C -5.2352 2.8085 -1.1715 0
M  V30 36 C -4.2215 1.3437 -2.8998 0
M  V30 37 C -6.6725 1.771 -2.9829 0
M  V30 38 C -7.866 0.6978 2.7618 0
M  V30 39 C -9.4596 -0.8886 1.5581 0
M  V30 40 C -7.6848 -1.7447 3.0788 0
M  V30 41 H 0.035 -1.0581 0.1004 0
M  V30 42 H 2.8818 -0.9158 1.7765 0
M  V30 43 H 2.35 -0.6043 0.0849 0
M  V30 44 H -0.7617 -3.8357 1.039 0
M  V30 45 H 3.6175 -2.6484 -0.6876 0
M  V30 46 H 4.1932 -2.9232 0.9869 0
M  V30 47 H -3.9328 -3.1951 1.6372 0
M  V30 48 H -3.0274 -4.3865 0.6583 0
M  V30 49 H 5.6203 -1.2736 2.0691 0
M  V30 50 H 4.5013 -0.8434 -1.9718 0
M  V30 51 H -3.8549 -3.2256 -1.4682 0
M  V30 52 H -5.0801 -4.0935 -0.5072 0
M  V30 53 H -4.2105 -0.9551 -1.9105 0
M  V30 54 H -6.4011 -2.7793 1.1848 0
M  V30 55 H 9.165 1.1836 -0.1173 0
M  V30 56 H 6.6227 -0.5525 3.8379 0
M  V30 57 H 5.7132 0.9504 3.3912 0
M  V30 58 H 7.191 1.0151 4.411 0
M  V30 59 H 9.3911 0.1753 3.4025 0
M  V30 60 H 9.6009 -0.0124 1.6368 0
M  V30 61 H 8.6439 -1.2214 2.5464 0
M  V30 62 H 8.0771 2.6489 3.1574 0
M  V30 63 H 8.8508 2.4064 1.606 0
M  V30 64 H 7.074 2.7419 1.672 0
M  V30 65 H 5.2815 -0.4579 -4.039 0
M  V30 66 H 5.5006 1.1357 -4.8109 0
M  V30 67 H 4.3551 0.984 -3.4381 0
M  V30 68 H 7.4425 2.8639 -2.1958 0
M  V30 69 H 6.6177 2.9521 -3.7636 0
M  V30 70 H 5.6441 2.906 -2.2493 0
M  V30 71 H 8.6851 0.7396 -2.8994 0
M  V30 72 H 7.9037 0.7492 -4.4985 0
M  V30 73 H 7.7661 -0.7066 -3.4478 0
M  V30 74 H -8.6693 1.4108 0.1172 0
M  V30 75 H -6.1388 3.1492 -0.6325 0
M  V30 76 H -4.9179 3.6569 -1.8164 0
M  V30 77 H -4.4322 2.6207 -0.427 0
M  V30 78 H -4.0137 2.253 -3.5069 0
M  V30 79 H -3.3223 1.1577 -2.2707 0
M  V30 80 H -4.3567 0.5045 -3.6171 0
M  V30 81 H -7.5848 2.1142 -2.4587 0
M  V30 82 H -6.4234 2.5539 -3.7307 0
M  V30 83 H -6.9132 0.8346 -3.5304 0
M  V30 84 H -8.247 1.5674 2.2004 0
M  V30 85 H -8.4505 0.6862 3.7096 0
M  V30 86 H -6.7997 0.8887 3.0167 0
M  V30 87 H -9.5159 -1.7682 0.8859 0
M  V30 88 H -10.1177 -1.087 2.4308 0
M  V30 89 H -9.8987 -0.0241 1.0349 0
M  V30 90 H -7.9515 -2.7615 2.7167 0
M  V30 91 H -8.2823 -1.5924 4.0046 0
M  V30 92 H -6.6101 -1.7207 3.364 0
M  V30 END ATOM
M  V30 BEGIN BOND
M  V30 1 2 1 2
M  V30 2 1 2 3
M  V30 3 1 2 4
M  V30 4 1 3 5
M  V30 5 1 4 6
M  V30 6 1 5 7
M  V30 7 1 6 8
M  V30 8 2 7 9
M  V30 9 1 7 10
M  V30 10 2 8 11
M  V30 11 1 8 12
M  V30 12 1 10 13
M  V30 13 1 11 14
M  V30 14 2 12 15
M  V30 15 1 13 16
M  V30 16 2 14 17
M  V30 17 1 14 18
M  V30 18 1 15 19
M  V30 19 2 16 20
M  V30 20 1 16 21
M  V30 21 1 17 22
M  V30 22 1 18 23
M  V30 23 1 18 24
M  V30 24 1 18 25
M  V30 25 1 19 26
M  V30 26 1 19 27
M  V30 27 1 19 28
M  V30 28 1 20 29
M  V30 29 2 21 30
M  V30 30 2 29 31
M  V30 31 1 29 32
M  V30 32 1 30 33
M  V30 33 1 31 34
M  V30 34 1 32 35
M  V30 35 1 32 36
M  V30 36 1 32 37
M  V30 37 1 33 38
M  V30 38 1 33 39
M  V30 39 1 33 40
M  V30 40 1 15 17
M  V30 41 1 30 31
M  V30 42 1 3 41
M  V30 43 1 4 42
M  V30 44 1 4 43
M  V30 45 1 5 44
M  V30 46 1 6 45
M  V30 47 1 6 46
M  V30 48 1 10 47
M  V30 49 1 10 48
M  V30 50 1 11 49
M  V30 51 1 12 50
M  V30 52 1 13 51
M  V30 53 1 13 52
M  V30 54 1 20 53
M  V30 55 1 21 54
M  V30 56 1 22 55
M  V30 57 1 23 56
M  V30 58 1 23 57
M  V30 59 1 23 58
M  V30 60 1 24 59
M  V30 61 1 24 60
M  V30 62 1 24 61
M  V30 63 1 25 62
M  V30 64 1 25 63
M  V30 65 1 25 64
M  V30 66 1 26 65
M  V30 67 1 26 66
M  V30 68 1 26 67
M  V30 69 1 27 68
M  V30 70 1 27 69
M  V30 71 1 27 70
M  V30 72 1 28 71
M  V30 73 1 28 72
M  V30 74 1 28 73
M  V30 75 1 34 74
M  V30 76 1 35 75
M  V30 77 1 35 76
M  V30 78 1 35 77
M  V30 79 1 36 78
M  V30 80 1 36 79
M  V30 81 1 36 80
M  V30 82 1 37 81
M  V30 83 1 37 82
M  V30 84 1 37 83
M  V30 85 1 38 84
M  V30 86 1 38 85
M  V30 87 1 38 86
M  V30 88 1 39 87
M  V30 89 1 39 88
M  V30 90 1 39 89
M  V30 91 1 40 90
M  V30 92 1 40 91
M  V30 93 1 40 92
M  V30 END BOND
M  V30 END CTAB
M  END
>  <Structure No>
1405

>  <LogS>
-7.04359803

>  <MMFF94 Energy>
118.41

$$$$
Compound 1406
Actelion Java MolfileCreator 2.0

  0  0  0  0  0  0              0 V3000
M  V30 BEGIN CTAB
M  V30 COUNTS 41 40 0 0 0
M  V30 BEGIN ATOM
M  V30 1 O 0 0 0 0
M  V30 2 C 0 0 0 0
M  V30 3 O 0 0 0 0
M  V30 4 C 0 0 0 0
M  V30 5 C 0 0 0 0
M  V30 6 C 0 0 0 0
M  V30 7 C 0 0 0 0
M  V30 8 C 0 0 0 0
M  V30 9 C 0 0 0 0
M  V30 10 C 0 0 0 0
M  V30 11 C 0 0 0 0
M  V30 12 C 0 0 0 0
M  V30 13 O 0 0 0 0
M  V30 14 O 0 0 0 0
M  V30 15 O 0 0 0 0
M  V30 16 C 0 0 0 0
M  V30 17 C 0 0 0 0
M  V30 18 C 0 0 0 0
M  V30 19 C 0 0 0 0
M  V30 20 C 0 0 0 0
M  V30 21 O 0 0 0 0
M  V30 22 C 0 0 0 0
M  V30 23 O 0 0 0 0
M  V30 24 C 0 0 0 0
M  V30 25 O 0 0 0 0
M  V30 26 C 0 0 0 0
M  V30 27 C 0 0 0 0
M  V30 28 C 0 0 0 0
M  V30 29 C 0 0 0 0
M  V30 30 C 0 0 0 0
M  V30 31 C 0 0 0 0
M  V30 32 C 0 0 0 0
M  V30 33 C 0 0 0 0
M  V30 34 C 0 0 0 0
M  V30 35 C 0 0 0 0
M  V30 36 C 0 0 0 0
M  V30 37 C 0 0 0 0
M  V30 38 C 0 0 0 0
M  V30 39 C 0 0 0 0
M  V30 40 C 0 0 0 0
M  V30 41 C 0 0 0 0
M  V30 END ATOM
M  V30 BEGIN BOND
M  V30 1 2 1 2
M  V30 2 1 2 3
M  V30 3 1 2 4
M  V30 4 1 3 5
M  V30 5 1 4 6
M  V30 6 1 5 7
M  V30 7 1 6 8
M  V30 8 1 7 9
M  V30 9 1 7 10
M  V30 10 1 7 11
M  V30 11 1 8 12
M  V30 12 1 9 13
M  V30 13 1 10 14
M  V30 14 1 11 15
M  V30 15 1 12 16
M  V30 16 1 13 17
M  V30 17 1 14 18
M  V30 18 1 15 19
M  V30 19 1 16 20
M  V30 20 2 17 21
M  V30 21 1 17 22
M  V30 22 2 18 23
M  V30 23 1 18 24
M  V30 24 2 19 25
M  V30 25 1 19 26
M  V30 26 1 22 27
M  V30 27 1 24 28
M  V30 28 1 26 29
M  V30 29 1 27 30
M  V30 30 1 28 31
M  V30 31 1 29 32
M  V30 32 1 30 33
M  V30 33 1 31 34
M  V30 34 1 32 35
M  V30 35 1 33 36
M  V30 36 1 34 37
M  V30 37 1 35 38
M  V30 38 1 36 39
M  V30 39 1 37 40
M  V30 40 1 38 41
M  V30 END BOND
M  V30 END CTAB
M  END
>  <Structure No>
1406

>  <LogS>
-7.068063351

>  <MMFF94 Energy>
-42.012

$$$$
Compound 1407
Actelion Java MolfileCreator 2.0

  0  0  0  0  0  0              0 V3000
M  V30 BEGIN CTAB
M  V30 COUNTS 85 84 0 0 0
M  V30 BEGIN ATOM
M  V30 1 O 0 0 0 0
M  V30 2 C 0 0 0 0
M  V30 3 O 0 0 0 0
M  V30 4 C 0 0 0 0
M  V30 5 C 0 0 0 0
M  V30 6 C 0 0 0 0
M  V30 7 C 0 0 0 0
M  V30 8 C 0 0 0 0
M  V30 9 C 0 0 0 0
M  V30 10 C 0 0 0 0
M  V30 11 C 0 0 0 0
M  V30 12 C 0 0 0 0
M  V30 13 O 0 0 0 0
M  V30 14 O 0 0 0 0
M  V30 15 O 0 0 0 0
M  V30 16 C 0 0 0 0
M  V30 17 C 0 0 0 0
M  V30 18 C 0 0 0 0
M  V30 19 C 0 0 0 0
M  V30 20 C 0 0 0 0
M  V30 21 O 0 0 0 0
M  V30 22 C 0 0 0 0
M  V30 23 O 0 0 0 0
M  V30 24 C 0 0 0 0
M  V30 25 O 0 0 0 0
M  V30 26 C 0 0 0 0
M  V30 27 C 0 0 0 0
M  V30 28 C 0 0 0 0
M  V30 29 C 0 0 0 0
M  V30 30 C 0 0 0 0
M  V30 31 C 0 0 0 0
M  V30 32 C 0 0 0 0
M  V30 33 C 0 0 0 0
M  V30 34 C 0 0 0 0
M  V30 35 C 0 0 0 0
M  V30 36 C 0 0 0 0
M  V30 37 C 0 0 0 0
M  V30 38 C 0 0 0 0
M  V30 39 C 0 0 0 0
M  V30 40 C 0 0 0 0
M  V30 41 C 0 0 0 0
M  V30 42 C 0 0 0 0
M  V30 43 C 0 0 0 0
M  V30 44 C 0 0 0 0
M  V30 45 C 0 0 0 0
M  V30 46 C 0 0 0 0
M  V30 47 C 0 0 0 0
M  V30 48 C 0 0 0 0
M  V30 49 C 0 0 0 0
M  V30 50 C 0 0 0 0
M  V30 51 C 0 0 0 0
M  V30 52 C 0 0 0 0
M  V30 53 C 0 0 0 0
M  V30 54 C 0 0 0 0
M  V30 55 C 0 0 0 0
M  V30 56 C 0 0 0 0
M  V30 57 C 0 0 0 0
M  V30 58 C 0 0 0 0
M  V30 59 C 0 0 0 0
M  V30 60 C 0 0 0 0
M  V30 61 C 0 0 0 0
M  V30 62 C 0 0 0 0
M  V30 63 C 0 0 0 0
M  V30 64 C 0 0 0 0
M  V30 65 C 0 0 0 0
M  V30 66 C 0 0 0 0
M  V30 67 C 0 0 0 0
M  V30 68 C 0 0 0 0
M  V30 69 C 0 0 0 0
M  V30 70 C 0 0 0 0
M  V30 71 C 0 0 0 0
M  V30 72 C 0 0 0 0
M  V30 73 C 0 0 0 0
M  V30 74 C 0 0 0 0
M  V30 75 C 0 0 0 0
M  V30 76 C 0 0 0 0
M  V30 77 C 0 0 0 0
M  V30 78 C 0 0 0 0
M  V30 79 C 0 0 0 0
M  V30 80 C 0 0 0 0
M  V30 81 C 0 0 0 0
M  V30 82 C 0 0 0 0
M  V30 83 C 0 0 0 0
M  V30 84 C 0 0 0 0
M  V30 85 C 0 0 0 0
M  V30 END ATOM
M  V30 BEGIN BOND
M  V30 1 2 1 2
M  V30 2 1 2 3
M  V30 3 1 2 4
M  V30 4 1 3 5
M  V30 5 1 4 6
M  V30 6 1 5 7
M  V30 7 1 6 8
M  V30 8 1 7 9
M  V30 9 1 7 10
M  V30 10 1 7 11
M  V30 11 1 8 12
M  V30 12 1 9 13
M  V30 13 1 10 14
M  V30 14 1 11 15
M  V30 15 1 12 16
M  V30 16 1 13 17
M  V30 17 1 14 18
M  V30 18 1 15 19
M  V30 19 1 16 20
M  V30 20 2 17 21
M  V30 21 1 17 22
M  V30 22 2 18 23
M  V30 23 1 18 24
M  V30 24 2 19 25
M  V30 25 1 19 26
M  V30 26 1 20 27
M  V30 27 1 22 28
M  V30 28 1 24 29
M  V30 29 1 26 30
M  V30 30 1 27 31
M  V30 31 1 28 32
M  V30 32 1 29 33
M  V30 33 1 30 34
M  V30 34 2 31 35
M  V30 35 1 32 36
M  V30 36 1 33 37
M  V30 37 1 34 38
M  V30 38 1 35 39
M  V30 39 1 36 40
M  V30 40 1 37 41
M  V30 41 1 38 42
M  V30 42 1 39 43
M  V30 43 1 40 44
M  V30 44 1 41 45
M  V30 45 1 42 46
M  V30 46 1 43 47
M  V30 47 1 44 48
M  V30 48 1 45 49
M  V30 49 1 46 50
M  V30 50 1 47 51
M  V30 51 1 48 52
M  V30 52 1 49 53
M  V30 53 1 50 54
M  V30 54 1 51 55
M  V30 55 2 52 56
M  V30 56 2 53 57
M  V30 57 2 54 58
M  V30 58 1 55 59
M  V30 59 1 56 60
M  V30 60 1 57 61
M  V30 61 1 58 62
M  V30 62 1 59 63
M  V30 63 1 60 64
M  V30 64 1 61 65
M  V30 65 1 62 66
M  V30 66 1 63 67
M  V30 67 1 64 68
M  V30 68 1 65 69
M  V30 69 1 66 70
M  V30 70 1 68 71
M  V30 71 1 69 72
M  V30 72 1 70 73
M  V30 73 1 71 74
M  V30 74 1 72 75
M  V30 75 1 73 76
M  V30 76 1 74 77
M  V30 77 1 75 78
M  V30 78 1 76 79
M  V30 79 1 77 80
M  V30 80 1 78 81
M  V30 81 1 79 82
M  V30 82 1 80 83
M  V30 83 1 81 84
M  V30 84 1 82 85
M  V30 END BOND
M  V30 END CTAB
M  END
>  <Structure No>
1407

>  <LogS>
-7.378019409

>  <MMFF94 Energy>
-19.213

$$$$
Compound 1408
Actelion Java MolfileCreator 2.0

  0  0  0  0  0  0              0 V3000
M  V30 BEGIN CTAB
M  V30 COUNTS 85 84 0 0 0
M  V30 BEGIN ATOM
M  V30 1 O 0 0 0 0
M  V30 2 C 0 0 0 0
M  V30 3 O 0 0 0 0
M  V30 4 C 0 0 0 0
M  V30 5 C 0 0 0 0
M  V30 6 C 0 0 0 0
M  V30 7 C 0 0 0 0
M  V30 8 C 0 0 0 0
M  V30 9 C 0 0 0 0
M  V30 10 C 0 0 0 0
M  V30 11 C 0 0 0 0
M  V30 12 C 0 0 0 0
M  V30 13 O 0 0 0 0
M  V30 14 O 0 0 0 0
M  V30 15 O 0 0 0 0
M  V30 16 C 0 0 0 0
M  V30 17 C 0 0 0 0
M  V30 18 C 0 0 0 0
M  V30 19 C 0 0 0 0
M  V30 20 C 0 0 0 0
M  V30 21 O 0 0 0 0
M  V30 22 C 0 0 0 0
M  V30 23 O 0 0 0 0
M  V30 24 C 0 0 0 0
M  V30 25 O 0 0 0 0
M  V30 26 C 0 0 0 0
M  V30 27 C 0 0 0 0
M  V30 28 C 0 0 0 0
M  V30 29 C 0 0 0 0
M  V30 30 C 0 0 0 0
M  V30 31 C 0 0 0 0
M  V30 32 C 0 0 0 0
M  V30 33 C 0 0 0 0
M  V30 34 C 0 0 0 0
M  V30 35 C 0 0 0 0
M  V30 36 C 0 0 0 0
M  V30 37 C 0 0 0 0
M  V30 38 C 0 0 0 0
M  V30 39 C 0 0 0 0
M  V30 40 C 0 0 0 0
M  V30 41 C 0 0 0 0
M  V30 42 C 0 0 0 0
M  V30 43 C 0 0 0 0
M  V30 44 C 0 0 0 0
M  V30 45 C 0 0 0 0
M  V30 46 C 0 0 0 0
M  V30 47 C 0 0 0 0
M  V30 48 C 0 0 0 0
M  V30 49 C 0 0 0 0
M  V30 50 C 0 0 0 0
M  V30 51 C 0 0 0 0
M  V30 52 C 0 0 0 0
M  V30 53 C 0 0 0 0
M  V30 54 C 0 0 0 0
M  V30 55 C 0 0 0 0
M  V30 56 C 0 0 0 0
M  V30 57 C 0 0 0 0
M  V30 58 C 0 0 0 0
M  V30 59 C 0 0 0 0
M  V30 60 C 0 0 0 0
M  V30 61 C 0 0 0 0
M  V30 62 C 0 0 0 0
M  V30 63 C 0 0 0 0
M  V30 64 C 0 0 0 0
M  V30 65 C 0 0 0 0
M  V30 66 C 0 0 0 0
M  V30 67 C 0 0 0 0
M  V30 68 C 0 0 0 0
M  V30 69 C 0 0 0 0
M  V30 70 C 0 0 0 0
M  V30 71 C 0 0 0 0
M  V30 72 C 0 0 0 0
M  V30 73 C 0 0 0 0
M  V30 74 C 0 0 0 0
M  V30 75 C 0 0 0 0
M  V30 76 C 0 0 0 0
M  V30 77 C 0 0 0 0
M  V30 78 C 0 0 0 0
M  V30 79 C 0 0 0 0
M  V30 80 C 0 0 0 0
M  V30 81 C 0 0 0 0
M  V30 82 C 0 0 0 0
M  V30 83 C 0 0 0 0
M  V30 84 C 0 0 0 0
M  V30 85 C 0 0 0 0
M  V30 END ATOM
M  V30 BEGIN BOND
M  V30 1 2 1 2
M  V30 2 1 2 3
M  V30 3 1 2 4
M  V30 4 1 3 5
M  V30 5 1 4 6
M  V30 6 1 5 7
M  V30 7 1 6 8
M  V30 8 1 7 9
M  V30 9 1 7 10
M  V30 10 1 7 11
M  V30 11 1 8 12
M  V30 12 1 9 13
M  V30 13 1 10 14
M  V30 14 1 11 15
M  V30 15 1 12 16
M  V30 16 1 13 17
M  V30 17 1 14 18
M  V30 18 1 15 19
M  V30 19 1 16 20
M  V30 20 2 17 21
M  V30 21 1 17 22
M  V30 22 2 18 23
M  V30 23 1 18 24
M  V30 24 2 19 25
M  V30 25 1 19 26
M  V30 26 1 20 27
M  V30 27 1 22 28
M  V30 28 1 24 29
M  V30 29 1 26 30
M  V30 30 1 27 31
M  V30 31 1 28 32
M  V30 32 1 29 33
M  V30 33 1 30 34
M  V30 34 1 31 35
M  V30 35 1 32 36
M  V30 36 1 33 37
M  V30 37 1 34 38
M  V30 38 1 35 39
M  V30 39 1 36 40
M  V30 40 1 37 41
M  V30 41 1 38 42
M  V30 42 1 39 43
M  V30 43 1 40 44
M  V30 44 1 41 45
M  V30 45 1 42 46
M  V30 46 1 43 47
M  V30 47 1 44 48
M  V30 48 1 45 49
M  V30 49 1 46 50
M  V30 50 1 47 51
M  V30 51 1 48 52
M  V30 52 1 49 53
M  V30 53 1 50 54
M  V30 54 1 51 55
M  V30 55 1 52 56
M  V30 56 1 53 57
M  V30 57 1 54 58
M  V30 58 1 55 59
M  V30 59 1 56 60
M  V30 60 1 57 61
M  V30 61 1 58 62
M  V30 62 1 59 63
M  V30 63 1 59 64
M  V30 64 1 60 65
M  V30 65 1 61 66
M  V30 66 1 62 67
M  V30 67 1 65 68
M  V30 68 1 66 69
M  V30 69 1 67 70
M  V30 70 1 68 71
M  V30 71 1 69 72
M  V30 72 1 70 73
M  V30 73 1 71 74
M  V30 74 1 72 75
M  V30 75 1 73 76
M  V30 76 1 74 77
M  V30 77 1 75 78
M  V30 78 1 76 79
M  V30 79 1 77 80
M  V30 80 1 77 81
M  V30 81 1 78 82
M  V30 82 1 78 83
M  V30 83 1 79 84
M  V30 84 1 79 85
M  V30 END BOND
M  V30 END CTAB
M  END
>  <Structure No>
1408

>  <LogS>
-7.380942773

>  <MMFF94 Energy>
-24.994

$$$$
Compound 1409
Actelion Java MolfileCreator 2.0

  0  0  0  0  0  0              0 V3000
M  V30 BEGIN CTAB
M  V30 COUNTS 22 21 0 0 0
M  V30 BEGIN ATOM
M  V30 1 O -4.384 -1.0164 0.7817 0
M  V30 2 C -3.7777 0.0118 0.3813 0
M  V30 3 O -4.4045 0.8796 -0.504 0 CHG=-1
M  V30 4 C -2.3696 0.2718 0.814 0
M  V30 5 C -1.381 -0.3761 -0.1595 0
M  V30 6 C 0.0672 -0.1142 0.2706 0
M  V30 7 C 1.0572 -0.7563 -0.7124 0
M  V30 8 C 2.5169 -0.6219 -0.2524 0
M  V30 9 C 3.0376 0.8118 -0.349 0
M  V30 10 H -2.2167 -0.1367 1.8369 0
M  V30 11 H -2.1991 1.3697 0.8497 0
M  V30 12 H -1.5427 0.0392 -1.179 0
M  V30 13 H -1.5634 -1.4732 -0.1916 0
M  V30 14 H 0.2295 -0.5353 1.2872 0
M  V30 15 H 0.2376 0.9828 0.309 0
M  V30 16 H 0.8245 -1.8403 -0.7998 0
M  V30 17 H 0.9372 -0.3036 -1.7212 0
M  V30 18 H 3.1494 -1.2657 -0.901 0
M  V30 19 H 2.6249 -0.9881 0.7915 0
M  V30 20 H 2.5227 1.4677 0.3827 0
M  V30 21 H 2.8888 1.2116 -1.3745 0
M  V30 22 H 4.1238 0.8254 -0.1193 0
M  V30 END ATOM
M  V30 BEGIN BOND
M  V30 1 2 1 2
M  V30 2 1 2 3
M  V30 3 1 2 4
M  V30 4 1 4 5
M  V30 5 1 5 6
M  V30 6 1 6 7
M  V30 7 1 7 8
M  V30 8 1 8 9
M  V30 9 1 4 10
M  V30 10 1 4 11
M  V30 11 1 5 12
M  V30 12 1 5 13
M  V30 13 1 6 14
M  V30 14 1 6 15
M  V30 15 1 7 16
M  V30 16 1 7 17
M  V30 17 1 8 18
M  V30 18 1 8 19
M  V30 19 1 9 20
M  V30 20 1 9 21
M  V30 21 1 9 22
M  V30 END BOND
M  V30 END CTAB
M  END
>  <Structure No>
1409

>  <LogS>
-6.670869008

>  <MMFF94 Energy>
1.9342

$$$$
Compound 1410
Actelion Java MolfileCreator 2.0

  0  0  0  0  0  0              0 V3000
M  V30 BEGIN CTAB
M  V30 COUNTS 123 122 0 0 0
M  V30 BEGIN ATOM
M  V30 1 O -2.5906 -2.1192 -2.2763 0
M  V30 2 C -2.6957 -2.0271 -1.0238 0
M  V30 3 O -1.6447 -1.5163 -0.2518 0
M  V30 4 C -3.9752 -2.4418 -0.3545 0
M  V30 5 C -0.4304 -0.995 -0.7959 0
M  V30 6 C -3.7035 -3.1224 0.9974 0
M  V30 7 C -0.3514 0.5447 -0.6158 0
M  V30 8 C -5.0032 -3.5411 1.7207 0
M  V30 9 C 0.9348 1.0818 -1.3107 0
M  V30 10 C -1.5945 1.221 -1.2594 0
M  V30 11 C -0.3263 0.8775 0.9056 0
M  V30 12 C -5.3999 -2.6027 2.8766 0
M  V30 13 O 2.117 0.7158 -0.5987 0
M  V30 14 O -1.7278 0.8655 -2.611 0
M  V30 15 O -0.2325 2.2628 1.127 0
M  V30 16 C -5.7975 -1.1775 2.457 0
M  V30 17 C 2.8797 -0.4299 -0.8711 0
M  V30 18 C -7.1395 -1.1291 1.7025 0
M  V30 19 O 2.6123 -1.154 -1.8695 0
M  V30 20 C 4.0637 -0.7735 -0.0172 0
M  V30 21 C -7.5393 0.3086 1.3343 0
M  V30 22 C 3.8937 -0.3519 1.4546 0
M  V30 23 C -6.7794 0.7832 0.1168 0
M  V30 24 C 4.2287 1.1272 1.7332 0
M  V30 25 C -7.3271 1.0632 -1.0791 0
M  V30 26 C 5.7464 1.3922 1.7644 0
M  V30 27 C -8.8037 1.0301 -1.3941 0
M  V30 28 C 6.0424 2.8423 2.1887 0
M  V30 29 C -9.394 -0.4 -1.3888 0
M  V30 30 C 7.5449 3.1859 2.1806 0
M  V30 31 C -10.2223 -0.7369 -2.6414 0
M  V30 32 C 8.2681 2.8358 3.4954 0
M  V30 33 C -11.4232 0.1889 -2.9131 0
M  V30 34 C 8.5169 1.3563 3.6419 0
M  V30 35 C -12.4911 0.159 -1.809 0
M  V30 36 C 9.5136 0.6792 3.037 0
M  V30 37 C -13.729 0.9583 -2.2394 0
M  V30 38 C 10.5982 1.306 2.1866 0
M  V30 39 C -14.7682 1.0444 -1.1104 0
M  V30 40 C 10.9242 0.4698 0.9397 0
M  V30 41 C -15.9608 1.9061 -1.5232 0
M  V30 42 C 11.626 -0.8594 1.2692 0
M  V30 43 C 12.0156 -1.6437 0.0085 0
M  V30 44 C 13.2554 -1.0618 -0.6885 0
M  V30 45 C 13.8171 -1.9881 -1.7827 0
M  V30 46 C 12.8355 -2.3019 -2.9235 0
M  V30 47 C 12.4051 -1.0576 -3.6972 0
M  V30 48 H -4.6118 -1.5411 -0.2253 0
M  V30 49 H -4.5207 -3.153 -1.0169 0
M  V30 50 H 0.4092 -1.4765 -0.2534 0
M  V30 51 H -0.3155 -1.2734 -1.8662 0
M  V30 52 H -3.0946 -4.0344 0.8034 0
M  V30 53 H -3.0935 -2.4637 1.652 0
M  V30 54 H -4.8278 -4.548 2.1692 0
M  V30 55 H -5.8495 -3.6736 1.0081 0
M  V30 56 H 0.9024 2.1898 -1.3422 0
M  V30 57 H 0.9964 0.737 -2.3658 0
M  V30 58 H -2.516 0.9044 -0.7271 0
M  V30 59 H -1.5415 2.3333 -1.1585 0
M  V30 60 H -1.2587 0.5109 1.3893 0
M  V30 61 H 0.515 0.3519 1.4124 0
M  V30 62 H -6.2407 -3.0576 3.4421 0
M  V30 63 H -4.5483 -2.5335 3.5834 0
M  V30 64 H -1.2188 1.5327 -3.1425 0
M  V30 65 H 0.7279 2.5048 1.0934 0
M  V30 66 H -4.981 -0.7231 1.8575 0
M  V30 67 H -5.8926 -0.5687 3.3832 0
M  V30 68 H -7.9371 -1.5565 2.354 0
M  V30 69 H -7.0996 -1.7486 0.7778 0
M  V30 70 H 4.2035 -1.8815 -0.0473 0
M  V30 71 H 4.9772 -0.3221 -0.4604 0
M  V30 72 H -8.6321 0.3518 1.1721 0
M  V30 73 H -7.3292 0.9964 2.1858 0
M  V30 74 H 2.8516 -0.5627 1.7801 0
M  V30 75 H 4.5421 -0.9947 2.0885 0
M  V30 76 H -5.7047 0.8811 0.2064 0
M  V30 77 H 3.8065 1.3864 2.7307 0
M  V30 78 H 3.7443 1.7848 0.9822 0
M  V30 79 H -6.6579 1.4079 -1.8675 0
M  V30 80 H 6.2184 0.6917 2.4841 0
M  V30 81 H 6.177 1.2085 0.7591 0
M  V30 82 H -9.3601 1.6779 -0.6834 0
M  V30 83 H -8.918 1.4892 -2.3974 0
M  V30 84 H 5.6081 3.0442 3.1922 0
M  V30 85 H 5.5355 3.5224 1.464 0
M  V30 86 H -10.0205 -0.5434 -0.4843 0
M  V30 87 H -8.5731 -1.147 -1.3216 0
M  V30 88 H 8.0476 2.7152 1.3088 0
M  V30 89 H 7.6369 4.2847 2.0467 0
M  V30 90 H -9.5496 -0.702 -3.5247 0
M  V30 91 H -10.5865 -1.7823 -2.5538 0
M  V30 92 H 9.2297 3.3869 3.5586 0
M  V30 93 H 7.6579 3.1839 4.3573 0
M  V30 94 H -11.8879 -0.1435 -3.8697 0
M  V30 95 H -11.0782 1.232 -3.0676 0
M  V30 96 H 7.8523 0.8025 4.3014 0
M  V30 97 H -12.7904 -0.8932 -1.5992 0
M  V30 98 H -12.0724 0.6061 -0.8796 0
M  V30 99 H 9.6075 -0.373 3.2839 0
M  V30 100 H -14.1958 0.4739 -3.1261 0
M  V30 101 H -13.4164 1.9911 -2.5249 0
M  V30 102 H 11.5138 1.4323 2.803 0
M  V30 103 H 10.2985 2.3106 1.8377 0
M  V30 104 H -15.1341 0.0234 -0.8653 0
M  V30 105 H -14.3078 1.49 -0.2004 0
M  V30 106 H 11.5937 1.0778 0.3014 0
M  V30 107 H 9.9912 0.2788 0.3662 0
M  V30 108 H -16.695 1.9474 -0.6886 0
M  V30 109 H -16.4665 1.4781 -2.4178 0
M  V30 110 H -15.625 2.9424 -1.749 0
M  V30 111 H 10.9378 -1.4993 1.8591 0
M  V30 112 H 12.5255 -0.669 1.8908 0
M  V30 113 H 11.1518 -1.6621 -0.6892 0
M  V30 114 H 12.2339 -2.6916 0.3071 0
M  V30 115 H 14.0555 -0.9083 0.0669 0
M  V30 116 H 13.0253 -0.0677 -1.1178 0
M  V30 117 H 14.7272 -1.5169 -2.2127 0
M  V30 118 H 14.1386 -2.9463 -1.3119 0
M  V30 119 H 13.335 -2.9946 -3.6289 0
M  V30 120 H 11.9417 -2.8322 -2.5347 0
M  V30 121 H 13.294 -0.505 -4.0668 0
M  V30 122 H 11.7877 -1.361 -4.5659 0
M  V30 123 H 11.7904 -0.3938 -3.0548 0
M  V30 END ATOM
M  V30 BEGIN BOND
M  V30 1 2 1 2
M  V30 2 1 2 3
M  V30 3 1 2 4
M  V30 4 1 3 5
M  V30 5 1 4 6
M  V30 6 1 5 7
M  V30 7 1 6 8
M  V30 8 1 7 9
M  V30 9 1 7 10
M  V30 10 1 7 11
M  V30 11 1 8 12
M  V30 12 1 9 13
M  V30 13 1 10 14
M  V30 14 1 11 15
M  V30 15 1 12 16
M  V30 16 1 13 17
M  V30 17 1 16 18
M  V30 18 2 17 19
M  V30 19 1 17 20
M  V30 20 1 18 21
M  V30 21 1 20 22
M  V30 22 1 21 23
M  V30 23 1 22 24
M  V30 24 2 23 25
M  V30 25 1 24 26
M  V30 26 1 25 27
M  V30 27 1 26 28
M  V30 28 1 27 29
M  V30 29 1 28 30
M  V30 30 1 29 31
M  V30 31 1 30 32
M  V30 32 1 31 33
M  V30 33 1 32 34
M  V30 34 1 33 35
M  V30 35 2 34 36
M  V30 36 1 35 37
M  V30 37 1 36 38
M  V30 38 1 37 39
M  V30 39 1 38 40
M  V30 40 1 39 41
M  V30 41 1 40 42
M  V30 42 1 42 43
M  V30 43 1 43 44
M  V30 44 1 44 45
M  V30 45 1 45 46
M  V30 46 1 46 47
M  V30 47 1 4 48
M  V30 48 1 4 49
M  V30 49 1 5 50
M  V30 50 1 5 51
M  V30 51 1 6 52
M  V30 52 1 6 53
M  V30 53 1 8 54
M  V30 54 1 8 55
M  V30 55 1 9 56
M  V30 56 1 9 57
M  V30 57 1 10 58
M  V30 58 1 10 59
M  V30 59 1 11 60
M  V30 60 1 11 61
M  V30 61 1 12 62
M  V30 62 1 12 63
M  V30 63 1 14 64
M  V30 64 1 15 65
M  V30 65 1 16 66
M  V30 66 1 16 67
M  V30 67 1 18 68
M  V30 68 1 18 69
M  V30 69 1 20 70
M  V30 70 1 20 71
M  V30 71 1 21 72
M  V30 72 1 21 73
M  V30 73 1 22 74
M  V30 74 1 22 75
M  V30 75 1 23 76
M  V30 76 1 24 77
M  V30 77 1 24 78
M  V30 78 1 25 79
M  V30 79 1 26 80
M  V30 80 1 26 81
M  V30 81 1 27 82
M  V30 82 1 27 83
M  V30 83 1 28 84
M  V30 84 1 28 85
M  V30 85 1 29 86
M  V30 86 1 29 87
M  V30 87 1 30 88
M  V30 88 1 30 89
M  V30 89 1 31 90
M  V30 90 1 31 91
M  V30 91 1 32 92
M  V30 92 1 32 93
M  V30 93 1 33 94
M  V30 94 1 33 95
M  V30 95 1 34 96
M  V30 96 1 35 97
M  V30 97 1 35 98
M  V30 98 1 36 99
M  V30 99 1 37 100
M  V30 100 1 37 101
M  V30 101 1 38 102
M  V30 102 1 38 103
M  V30 103 1 39 104
M  V30 104 1 39 105
M  V30 105 1 40 106
M  V30 106 1 40 107
M  V30 107 1 41 108
M  V30 108 1 41 109
M  V30 109 1 41 110
M  V30 110 1 42 111
M  V30 111 1 42 112
M  V30 112 1 43 113
M  V30 113 1 43 114
M  V30 114 1 44 115
M  V30 115 1 44 116
M  V30 116 1 45 117
M  V30 117 1 45 118
M  V30 118 1 46 119
M  V30 119 1 46 120
M  V30 120 1 47 121
M  V30 121 1 47 122
M  V30 122 1 47 123
M  V30 END BOND
M  V30 END CTAB
M  END
>  <Structure No>
1410

>  <LogS>
-7.123886253

>  <MMFF94 Energy>
8.2439

$$$$
Compound 1411
Actelion Java MolfileCreator 2.0

  0  0  0  0  0  0              0 V3000
M  V30 BEGIN CTAB
M  V30 COUNTS 53 52 0 0 0
M  V30 BEGIN ATOM
M  V30 1 O 3.5917 -0.936 -2.185 0
M  V30 2 C 3.2594 0.2088 -1.7727 0
M  V30 3 O 4.225 1.1196 -1.3313 0
M  V30 4 C 1.8133 0.5846 -1.7104 0
M  V30 5 C 5.6151 0.8121 -1.2516 0
M  V30 6 C 1.2334 0.2364 -0.3334 0
M  V30 7 C 5.9029 -0.0411 -0.0091 0
M  V30 8 C -0.1999 0.7562 -0.1417 0
M  V30 9 C 7.3631 -0.5423 0.0486 0
M  V30 10 C -1.2206 0.0226 -1.0297 0
M  V30 11 C 8.3578 0.6096 0.2589 0
M  V30 12 C 7.5184 -1.5769 1.1708 0
M  V30 13 C -2.6678 0.4555 -0.7399 0
M  V30 14 C -3.2514 -0.2442 0.5003 0
M  V30 15 C -4.6563 0.2638 0.8635 0
M  V30 16 C -5.7323 -0.2026 -0.1321 0
M  V30 17 C -7.1437 0.2561 0.2694 0
M  V30 18 C -7.7214 -0.559 1.4358 0
M  V30 19 C -9.1622 -0.1508 1.7299 0
M  V30 20 H 1.2645 0.0414 -2.5087 0
M  V30 21 H 1.7165 1.6757 -1.8987 0
M  V30 22 H 6.1704 1.7694 -1.1801 0
M  V30 23 H 5.9436 0.2896 -2.1762 0
M  V30 24 H 1.2576 -0.8644 -0.18 0
M  V30 25 H 1.8711 0.6988 0.4519 0
M  V30 26 H 5.2233 -0.9202 -0.0243 0
M  V30 27 H 5.6651 0.5484 0.9032 0
M  V30 28 H -0.466 0.6152 0.9266 0
M  V30 29 H -0.2333 1.848 -0.3526 0
M  V30 30 H 7.6095 -1.0484 -0.9111 0
M  V30 31 H -1.1217 -1.0783 -0.9037 0
M  V30 32 H -1.0049 0.2606 -2.0933 0
M  V30 33 H 9.3877 0.2114 0.3805 0
M  V30 34 H 8.3677 1.2833 -0.6223 0
M  V30 35 H 8.0937 1.1979 1.1643 0
M  V30 36 H 8.5605 -1.9601 1.2013 0
M  V30 37 H 6.8436 -2.4407 0.9926 0
M  V30 38 H 7.2719 -1.1267 2.1562 0
M  V30 39 H -3.2817 0.1882 -1.6257 0
M  V30 40 H -2.7157 1.5599 -0.6174 0
M  V30 41 H -3.2814 -1.3433 0.3348 0
M  V30 42 H -2.5928 -0.0574 1.3737 0
M  V30 43 H -4.6506 1.3738 0.9238 0
M  V30 44 H -4.8991 -0.1252 1.8737 0
M  V30 45 H -5.5135 0.2294 -1.1312 0
M  V30 46 H -5.7091 -1.3103 -0.2309 0
M  V30 47 H -7.1306 1.3374 0.5304 0
M  V30 48 H -7.8084 0.1322 -0.6138 0
M  V30 49 H -7.1186 -0.3981 2.3536 0
M  V30 50 H -7.7005 -1.6416 1.1849 0
M  V30 51 H -9.8046 -0.3321 0.8422 0
M  V30 52 H -9.5528 -0.7512 2.5782 0
M  V30 53 H -9.2103 0.9244 2.0043 0
M  V30 END ATOM
M  V30 BEGIN BOND
M  V30 1 2 1 2
M  V30 2 1 2 3
M  V30 3 1 2 4
M  V30 4 1 3 5
M  V30 5 1 4 6
M  V30 6 1 5 7
M  V30 7 1 6 8
M  V30 8 1 7 9
M  V30 9 1 8 10
M  V30 10 1 9 11
M  V30 11 1 9 12
M  V30 12 1 10 13
M  V30 13 1 13 14
M  V30 14 1 14 15
M  V30 15 1 15 16
M  V30 16 1 16 17
M  V30 17 1 17 18
M  V30 18 1 18 19
M  V30 19 1 4 20
M  V30 20 1 4 21
M  V30 21 1 5 22
M  V30 22 1 5 23
M  V30 23 1 6 24
M  V30 24 1 6 25
M  V30 25 1 7 26
M  V30 26 1 7 27
M  V30 27 1 8 28
M  V30 28 1 8 29
M  V30 29 1 9 30
M  V30 30 1 10 31
M  V30 31 1 10 32
M  V30 32 1 11 33
M  V30 33 1 11 34
M  V30 34 1 11 35
M  V30 35 1 12 36
M  V30 36 1 12 37
M  V30 37 1 12 38
M  V30 38 1 13 39
M  V30 39 1 13 40
M  V30 40 1 14 41
M  V30 41 1 14 42
M  V30 42 1 15 43
M  V30 43 1 15 44
M  V30 44 1 16 45
M  V30 45 1 16 46
M  V30 46 1 17 47
M  V30 47 1 17 48
M  V30 48 1 18 49
M  V30 49 1 18 50
M  V30 50 1 19 51
M  V30 51 1 19 52
M  V30 52 1 19 53
M  V30 END BOND
M  V30 END CTAB
M  END
>  <Structure No>
1411

>  <LogS>
-6.733128222

>  <MMFF94 Energy>
-7.6713

$$$$
Compound 1412
Actelion Java MolfileCreator 2.0

  0  0  0  0  0  0              0 V3000
M  V30 BEGIN CTAB
M  V30 COUNTS 31 30 0 0 0
M  V30 BEGIN ATOM
M  V30 1 O -3.7599 2.1136 -1.4086 0
M  V30 2 C -4.0427 1.6661 -0.2661 0
M  V30 3 O -4.7353 2.4658 0.6343 0 CHG=-1
M  V30 4 C -3.5895 0.2998 0.1405 0
M  V30 5 C -2.2046 0.3656 0.791 0
M  V30 6 C -1.7221 -1.0339 1.1994 0
M  V30 7 C -0.4196 -1.0048 2.0197 0
M  V30 8 C 0.794 -0.4044 1.2871 0
M  V30 9 C 1.1665 -1.1813 0.0126 0
M  V30 10 C 2.5311 -0.7624 -0.5562 0
M  V30 11 C 2.5136 0.656 -1.1445 0
M  V30 12 C 3.8431 0.9889 -1.8152 0
M  V30 13 H -4.3242 -0.1256 0.858 0
M  V30 14 H -3.556 -0.3594 -0.7542 0
M  V30 15 H -2.2511 1.0192 1.6902 0
M  V30 16 H -1.4903 0.8082 0.0635 0
M  V30 17 H -1.5948 -1.6701 0.298 0
M  V30 18 H -2.5035 -1.5142 1.8283 0
M  V30 19 H -0.1739 -2.0437 2.3298 0
M  V30 20 H -0.5942 -0.4228 2.9509 0
M  V30 21 H 1.6553 -0.4274 1.9898 0
M  V30 22 H 0.5974 0.6607 1.0473 0
M  V30 23 H 1.2119 -2.2665 0.2507 0
M  V30 24 H 0.3872 -1.0359 -0.7659 0
M  V30 25 H 2.8024 -1.4815 -1.3599 0
M  V30 26 H 3.3083 -0.8346 0.2358 0
M  V30 27 H 1.7004 0.7422 -1.8978 0
M  V30 28 H 2.331 1.3997 -0.3403 0
M  V30 29 H 4.6725 0.927 -1.0787 0
M  V30 30 H 3.8059 2.0213 -2.2222 0
M  V30 31 H 4.0411 0.2851 -2.6514 0
M  V30 END ATOM
M  V30 BEGIN BOND
M  V30 1 2 1 2
M  V30 2 1 2 3
M  V30 3 1 2 4
M  V30 4 1 4 5
M  V30 5 1 5 6
M  V30 6 1 6 7
M  V30 7 1 7 8
M  V30 8 1 8 9
M  V30 9 1 9 10
M  V30 10 1 10 11
M  V30 11 1 11 12
M  V30 12 1 4 13
M  V30 13 1 4 14
M  V30 14 1 5 15
M  V30 15 1 5 16
M  V30 16 1 6 17
M  V30 17 1 6 18
M  V30 18 1 7 19
M  V30 19 1 7 20
M  V30 20 1 8 21
M  V30 21 1 8 22
M  V30 22 1 9 23
M  V30 23 1 9 24
M  V30 24 1 10 25
M  V30 25 1 10 26
M  V30 26 1 11 27
M  V30 27 1 11 28
M  V30 28 1 12 29
M  V30 29 1 12 30
M  V30 30 1 12 31
M  V30 END BOND
M  V30 END CTAB
M  END
>  <Structure No>
1412

>  <LogS>
-6.894954848

>  <MMFF94 Energy>
1.3093

$$$$
Compound 1413
Actelion Java MolfileCreator 2.0

  0  0  0  0  0  0              0 V3000
M  V30 BEGIN CTAB
M  V30 COUNTS 31 30 0 0 0
M  V30 BEGIN ATOM
M  V30 1 O -3.9948 1.6434 -0.6258 0
M  V30 2 C -4.5867 0.7848 0.0799 0
M  V30 3 O -5.624 1.1779 0.9162 0 CHG=-1
M  V30 4 C -4.1534 -0.6482 0.0457 0
M  V30 5 C -3.3284 -1.0293 1.2852 0
M  V30 6 C -2.01 -0.2479 1.4336 0
M  V30 7 C -0.9962 -0.5754 0.3273 0
M  V30 8 C 0.3533 0.0981 0.6029 0
M  V30 9 C 1.3624 -0.2144 -0.5082 0
M  V30 10 C 2.712 0.4584 -0.232 0
M  V30 11 C 3.7202 0.1457 -1.3435 0
M  V30 12 C 5.0648 0.8138 -1.0721 0
M  V30 13 H -3.5838 -0.8574 -0.884 0
M  V30 14 H -5.0621 -1.2867 0.0163 0
M  V30 15 H -3.1057 -2.1178 1.2472 0
M  V30 16 H -3.9464 -0.8571 2.1938 0
M  V30 17 H -1.5669 -0.5172 2.4174 0
M  V30 18 H -2.2118 0.8448 1.4506 0
M  V30 19 H -0.8521 -1.6768 0.2708 0
M  V30 20 H -1.3818 -0.2155 -0.6501 0
M  V30 21 H 0.2076 1.1992 0.6686 0
M  V30 22 H 0.7542 -0.2639 1.5754 0
M  V30 23 H 1.5069 -1.3155 -0.5744 0
M  V30 24 H 0.9628 0.1487 -1.4809 0
M  V30 25 H 3.1122 0.0951 0.7404 0
M  V30 26 H 2.5675 1.5595 -0.1656 0
M  V30 27 H 3.8724 -0.9534 -1.4132 0
M  V30 28 H 3.3283 0.5095 -2.3184 0
M  V30 29 H 5.7731 0.5701 -1.8918 0
M  V30 30 H 5.4912 0.4478 -0.1138 0
M  V30 31 H 4.9447 1.9172 -1.0228 0
M  V30 END ATOM
M  V30 BEGIN BOND
M  V30 1 2 1 2
M  V30 2 1 2 3
M  V30 3 1 2 4
M  V30 4 1 4 5
M  V30 5 1 5 6
M  V30 6 1 6 7
M  V30 7 1 7 8
M  V30 8 1 8 9
M  V30 9 1 9 10
M  V30 10 1 10 11
M  V30 11 1 11 12
M  V30 12 1 4 13
M  V30 13 1 4 14
M  V30 14 1 5 15
M  V30 15 1 5 16
M  V30 16 1 6 17
M  V30 17 1 6 18
M  V30 18 1 7 19
M  V30 19 1 7 20
M  V30 20 1 8 21
M  V30 21 1 8 22
M  V30 22 1 9 23
M  V30 23 1 9 24
M  V30 24 1 10 25
M  V30 25 1 10 26
M  V30 26 1 11 27
M  V30 27 1 11 28
M  V30 28 1 12 29
M  V30 29 1 12 30
M  V30 30 1 12 31
M  V30 END BOND
M  V30 END CTAB
M  END
>  <Structure No>
1413

>  <LogS>
-6.956772372

>  <MMFF94 Energy>
1.3059

$$$$
Compound 1414
Actelion Java MolfileCreator 2.0

  0  0  0  0  0  0              0 V3000
M  V30 BEGIN CTAB
M  V30 COUNTS 53 52 0 0 0
M  V30 BEGIN ATOM
M  V30 1 O 4.0054 -2.119 1.8833 0
M  V30 2 C 3.5 -1.55 0.8778 0
M  V30 3 O 2.2326 -0.9657 0.9521 0
M  V30 4 C 4.254 -1.5122 -0.4149 0
M  V30 5 C 1.4483 -0.9686 2.1426 0
M  V30 6 C 4.4403 -0.0682 -0.8923 0
M  V30 7 C 0.1378 -0.1568 1.9571 0
M  V30 8 C 5.2556 -0.019 -2.1894 0
M  V30 9 C -0.6818 -0.7618 0.7839 0
M  V30 10 C -0.6689 -0.2727 3.2816 0
M  V30 11 C 0.4772 1.3385 1.6889 0
M  V30 12 C 5.4168 1.4148 -2.6849 0
M  V30 13 O -1.8234 0.0291 0.5193 0
M  V30 14 O -1.886 0.4251 3.2189 0
M  V30 15 O 1.2071 1.5043 0.501 0
M  V30 16 C -2.5648 -0.5324 -0.5448 0
M  V30 17 C -3.7569 0.3854 -0.938 0
M  V30 18 C -3.2451 1.7824 -1.393 0
M  V30 19 C -4.4985 -0.2492 -2.1487 0
M  V30 20 C -4.7642 0.5257 0.238 0
M  V30 21 O -2.5603 2.4476 -0.3658 0
M  V30 22 O -5.0335 -1.5086 -1.8284 0
M  V30 23 O -4.1767 1.1426 1.3509 0
M  V30 24 H 5.2483 -1.9927 -0.2824 0
M  V30 25 H 3.6843 -2.0889 -1.1751 0
M  V30 26 H 1.2082 -2.0221 2.4093 0
M  V30 27 H 2.0459 -0.5326 2.9745 0
M  V30 28 H 4.9659 0.5163 -0.1047 0
M  V30 29 H 3.4433 0.3929 -1.0693 0
M  V30 30 H 4.7467 -0.617 -2.9759 0
M  V30 31 H 6.2636 -0.4535 -2.014 0
M  V30 32 H -0.9817 -1.8019 1.0502 0
M  V30 33 H -0.039 -0.8127 -0.1244 0
M  V30 34 H -0.0564 0.0898 4.1413 0
M  V30 35 H -0.8987 -1.3407 3.487 0
M  V30 36 H -0.4485 1.9579 1.6538 0
M  V30 37 H 1.0885 1.7354 2.528 0
M  V30 38 H 6.0188 1.4208 -3.6176 0
M  V30 39 H 4.4235 1.8631 -2.9001 0
M  V30 40 H 5.9393 2.0301 -1.9217 0
M  V30 41 H -1.7241 1.3306 3.5911 0
M  V30 42 H 0.547 1.5999 -0.2342 0
M  V30 43 H -2.9559 -1.5288 -0.2369 0
M  V30 44 H -1.9175 -0.6711 -1.4424 0
M  V30 45 H -4.107 2.4091 -1.7176 0
M  V30 46 H -2.5634 1.663 -2.2662 0
M  V30 47 H -5.3388 0.4089 -2.4601 0
M  V30 48 H -3.8159 -0.3262 -3.0285 0
M  V30 49 H -5.6402 1.1294 -0.0912 0
M  V30 50 H -5.1364 -0.4796 0.5378 0
M  V30 51 H -2.2515 3.3092 -0.7501 0
M  V30 52 H -4.3659 -2.1884 -2.1062 0
M  V30 53 H -4.8809 1.1881 2.0479 0
M  V30 END ATOM
M  V30 BEGIN BOND
M  V30 1 2 1 2
M  V30 2 1 2 3
M  V30 3 1 2 4
M  V30 4 1 3 5
M  V30 5 1 4 6
M  V30 6 1 5 7
M  V30 7 1 6 8
M  V30 8 1 7 9
M  V30 9 1 7 10
M  V30 10 1 7 11
M  V30 11 1 8 12
M  V30 12 1 9 13
M  V30 13 1 10 14
M  V30 14 1 11 15
M  V30 15 1 13 16
M  V30 16 1 16 17
M  V30 17 1 17 18
M  V30 18 1 17 19
M  V30 19 1 17 20
M  V30 20 1 18 21
M  V30 21 1 19 22
M  V30 22 1 20 23
M  V30 23 1 4 24
M  V30 24 1 4 25
M  V30 25 1 5 26
M  V30 26 1 5 27
M  V30 27 1 6 28
M  V30 28 1 6 29
M  V30 29 1 8 30
M  V30 30 1 8 31
M  V30 31 1 9 32
M  V30 32 1 9 33
M  V30 33 1 10 34
M  V30 34 1 10 35
M  V30 35 1 11 36
M  V30 36 1 11 37
M  V30 37 1 12 38
M  V30 38 1 12 39
M  V30 39 1 12 40
M  V30 40 1 14 41
M  V30 41 1 15 42
M  V30 42 1 16 43
M  V30 43 1 16 44
M  V30 44 1 18 45
M  V30 45 1 18 46
M  V30 46 1 19 47
M  V30 47 1 19 48
M  V30 48 1 20 49
M  V30 49 1 20 50
M  V30 50 1 21 51
M  V30 51 1 22 52
M  V30 52 1 23 53
M  V30 END BOND
M  V30 END CTAB
M  END
>  <Structure No>
1414

>  <LogS>
-6.8304565

>  <MMFF94 Energy>
17.833

$$$$
Compound 1415
Actelion Java MolfileCreator 2.0

  0  0  0  0  0  0              0 V3000
M  V30 BEGIN CTAB
M  V30 COUNTS 61 62 0 0 0
M  V30 BEGIN ATOM
M  V30 1 N -0.7888 -0.7099 1.7361 0
M  V30 2 C 0.3865 -0.2643 1.5466 0 CFG=1
M  V30 3 C -1.853 -0.3699 0.8416 0
M  V30 4 N 1.561 0.1813 1.3525 0
M  V30 5 C -2.7669 0.6553 1.2 0
M  V30 6 C -2.005 -1.0632 -0.3891 0
M  V30 7 C 2.124 0.2047 0.037 0
M  V30 8 C -3.8209 0.9682 0.3233 0
M  V30 9 C -2.6383 1.4103 2.519 0
M  V30 10 C -3.0641 -0.7043 -1.2444 0
M  V30 11 C -1.0568 -2.1822 -0.8049 0
M  V30 12 C 2.982 -0.8456 -0.3791 0
M  V30 13 C 1.8278 1.279 -0.8466 0
M  V30 14 C -3.9591 0.3012 -0.8897 0
M  V30 15 C -2.5685 2.9303 2.3 0
M  V30 16 C -3.786 1.0458 3.4707 0
M  V30 17 C -1.8005 -3.516 -0.9366 0
M  V30 18 C -0.3217 -1.8315 -2.1058 0
M  V30 19 C 3.5188 -0.8114 -1.6793 0
M  V30 20 C 3.3494 -1.9932 0.5568 0
M  V30 21 C 2.3672 1.2593 -2.1462 0
M  V30 22 C 0.9305 2.4401 -0.4249 0
M  V30 23 C 3.2058 0.2254 -2.5532 0
M  V30 24 C 2.9873 -3.3565 -0.0463 0
M  V30 25 C 4.8347 -1.937 0.9301 0
M  V30 26 C 1.6572 3.7834 -0.5466 0
M  V30 27 C -0.37 2.45 -1.2326 0
M  V30 28 H -4.5425 1.7345 0.5771 0
M  V30 29 H -1.693 1.1369 3.0325 0
M  V30 30 H -3.2044 -1.2078 -2.1914 0
M  V30 31 H -0.2775 -2.3406 -0.0328 0
M  V30 32 H -4.7696 0.5601 -1.5574 0
M  V30 33 H -2.3067 3.4365 3.253 0
M  V30 34 H -3.5408 3.3362 1.9501 0
M  V30 35 H -1.7856 3.1755 1.5524 0
M  V30 36 H -3.6288 1.5279 4.4596 0
M  V30 37 H -3.8219 -0.0539 3.6226 0
M  V30 38 H -4.7602 1.3838 3.0631 0
M  V30 39 H -2.5516 -3.4802 -1.7544 0
M  V30 40 H -1.0789 -4.3311 -1.1574 0
M  V30 41 H -2.3154 -3.7586 0.0177 0
M  V30 42 H -1.0203 -1.792 -2.9698 0
M  V30 43 H 0.1769 -0.8455 -2.0077 0
M  V30 44 H 0.4567 -2.5939 -2.3213 0
M  V30 45 H 4.1847 -1.5916 -2.0235 0
M  V30 46 H 2.7799 -1.9183 1.5058 0
M  V30 47 H 2.1435 2.0505 -2.8519 0
M  V30 48 H 0.646 2.342 0.6429 0
M  V30 49 H 3.6189 0.2306 -3.5543 0
M  V30 50 H 3.6183 -3.5929 -0.9256 0
M  V30 51 H 3.1357 -4.1542 0.7121 0
M  V30 52 H 1.9205 -3.3692 -0.3533 0
M  V30 53 H 5.4797 -2.0784 0.034 0
M  V30 54 H 5.0751 -2.7381 1.6677 0
M  V30 55 H 5.0693 -0.9545 1.3936 0
M  V30 56 H 1.031 4.5937 -0.1136 0
M  V30 57 H 2.6177 3.7484 0.014 0
M  V30 58 H 1.869 4.0377 -1.6067 0
M  V30 59 H -0.8789 1.4745 -1.146 0
M  V30 60 H -1.0555 3.2298 -0.8467 0
M  V30 61 H -0.1753 2.6502 -2.3039 0
M  V30 END ATOM
M  V30 BEGIN BOND
M  V30 1 2 1 2
M  V30 2 1 1 3
M  V30 3 2 2 4
M  V30 4 2 3 5
M  V30 5 1 3 6
M  V30 6 1 4 7
M  V30 7 1 5 8
M  V30 8 1 5 9
M  V30 9 2 6 10
M  V30 10 1 6 11
M  V30 11 2 7 12
M  V30 12 1 7 13
M  V30 13 2 8 14
M  V30 14 1 9 15
M  V30 15 1 9 16
M  V30 16 1 11 17
M  V30 17 1 11 18
M  V30 18 1 12 19
M  V30 19 1 12 20
M  V30 20 2 13 21
M  V30 21 1 13 22
M  V30 22 2 19 23
M  V30 23 1 20 24
M  V30 24 1 20 25
M  V30 25 1 22 26
M  V30 26 1 22 27
M  V30 27 1 10 14
M  V30 28 1 21 23
M  V30 29 1 8 28
M  V30 30 1 9 29
M  V30 31 1 10 30
M  V30 32 1 11 31
M  V30 33 1 14 32
M  V30 34 1 15 33
M  V30 35 1 15 34
M  V30 36 1 15 35
M  V30 37 1 16 36
M  V30 38 1 16 37
M  V30 39 1 16 38
M  V30 40 1 17 39
M  V30 41 1 17 40
M  V30 42 1 17 41
M  V30 43 1 18 42
M  V30 44 1 18 43
M  V30 45 1 18 44
M  V30 46 1 19 45
M  V30 47 1 20 46
M  V30 48 1 21 47
M  V30 49 1 22 48
M  V30 50 1 23 49
M  V30 51 1 24 50
M  V30 52 1 24 51
M  V30 53 1 24 52
M  V30 54 1 25 53
M  V30 55 1 25 54
M  V30 56 1 25 55
M  V30 57 1 26 56
M  V30 58 1 26 57
M  V30 59 1 26 58
M  V30 60 1 27 59
M  V30 61 1 27 60
M  V30 62 1 27 61
M  V30 END BOND
M  V30 BEGIN COLLECTION
M  V30 MDLV30/STEABS ATOMS=(1 2)
M  V30 END COLLECTION
M  V30 END CTAB
M  END
>  <Structure No>
1415

>  <LogS>
-6.860411082

>  <MMFF94 Energy>
56.539

$$$$
Compound 1416
Actelion Java MolfileCreator 2.0

  0  0  0  0  0  0              0 V3000
M  V30 BEGIN CTAB
M  V30 COUNTS 68 67 0 0 0
M  V30 BEGIN ATOM
M  V30 1 O 6.1818 -1.8748 -1.7185 0
M  V30 2 C 5.1552 -2.1016 -1.0215 0
M  V30 3 O 5.0842 -1.6787 0.3106 0
M  V30 4 C 3.9779 -2.7942 -1.6335 0
M  V30 5 C 6.07 -0.851 0.9232 0
M  V30 6 C 3.201 -1.8771 -2.5942 0
M  V30 7 C 5.911 0.5992 0.4499 0
M  V30 8 C 2.7482 -0.5371 -1.9824 0
M  V30 9 C 6.8503 1.5682 1.1828 0
M  V30 10 C 1.7126 -0.7097 -0.8592 0
M  V30 11 C 8.3132 1.3886 0.7785 0
M  V30 12 C 1.3524 0.6205 -0.1739 0
M  V30 13 C 0.6945 1.6711 -1.0905 0
M  V30 14 C -0.5936 1.207 -1.7989 0
M  V30 15 C -1.7014 0.7005 -0.8584 0
M  V30 16 C -2.1671 1.7715 0.1441 0
M  V30 17 C -3.4549 1.3681 0.8782 0
M  V30 18 C -3.2272 0.2355 1.8949 0
M  V30 19 C -4.5206 -0.1423 2.6475 0
M  V30 20 C -5.1733 -1.4449 2.1453 0
M  V30 21 C -5.6763 -1.3962 0.6928 0
M  V30 22 C -6.8454 -0.4133 0.5023 0
M  V30 23 C -7.4582 -0.4966 -0.9041 0
M  V30 24 C -6.5305 0.0609 -1.9846 0
M  V30 25 H 3.3072 -3.175 -0.8355 0
M  V30 26 H 4.3386 -3.6805 -2.1982 0
M  V30 27 H 7.0845 -1.2396 0.6938 0
M  V30 28 H 5.9233 -0.8941 2.023 0
M  V30 29 H 2.3111 -2.4257 -2.9727 0
M  V30 30 H 3.8464 -1.6585 -3.4731 0
M  V30 31 H 4.8632 0.9173 0.6458 0
M  V30 32 H 6.081 0.6654 -0.647 0
M  V30 33 H 3.6278 0.0283 -1.6077 0
M  V30 34 H 2.2958 0.0609 -2.8013 0
M  V30 35 H 6.7485 1.4439 2.2829 0
M  V30 36 H 6.5452 2.6077 0.9343 0
M  V30 37 H 2.1279 -1.373 -0.0729 0
M  V30 38 H 0.7999 -1.2026 -1.2552 0
M  V30 39 H 8.6984 0.4074 1.1232 0
M  V30 40 H 8.9257 2.1857 1.25 0
M  V30 41 H 8.4247 1.4643 -0.324 0
M  V30 42 H 0.682 0.4101 0.6862 0
M  V30 43 H 2.2781 1.0625 0.255 0
M  V30 44 H 0.4721 2.5757 -0.4854 0
M  V30 45 H 1.4252 1.9975 -1.8601 0
M  V30 46 H -0.3464 0.4055 -2.527 0
M  V30 47 H -0.9915 2.0573 -2.3948 0
M  V30 48 H -1.3497 -0.2048 -0.3231 0
M  V30 49 H -2.5645 0.3937 -1.4892 0
M  V30 50 H -1.368 1.9749 0.889 0
M  V30 51 H -2.3675 2.7172 -0.4057 0
M  V30 52 H -3.8341 2.2606 1.4217 0
M  V30 53 H -4.2257 1.0837 0.1345 0
M  V30 54 H -2.475 0.583 2.6371 0
M  V30 55 H -2.7994 -0.6592 1.3969 0
M  V30 56 H -5.2551 0.691 2.641 0
M  V30 57 H -4.2586 -0.3046 3.7158 0
M  V30 58 H -6.0247 -1.6987 2.814 0
M  V30 59 H -4.4368 -2.2728 2.2376 0
M  V30 60 H -4.8358 -1.1487 0.0142 0
M  V30 61 H -6.0227 -2.4171 0.4216 0
M  V30 62 H -7.6422 -0.6541 1.2405 0
M  V30 63 H -6.5162 0.6296 0.6945 0
M  V30 64 H -7.7225 -1.5491 -1.1465 0
M  V30 65 H -8.3982 0.0959 -0.9115 0
M  V30 66 H -5.6347 -0.5829 -2.1051 0
M  V30 67 H -7.0693 0.0867 -2.9554 0
M  V30 68 H -6.2113 1.0946 -1.7294 0
M  V30 END ATOM
M  V30 BEGIN BOND
M  V30 1 2 1 2
M  V30 2 1 2 3
M  V30 3 1 2 4
M  V30 4 1 3 5
M  V30 5 1 4 6
M  V30 6 1 5 7
M  V30 7 1 6 8
M  V30 8 1 7 9
M  V30 9 1 8 10
M  V30 10 1 9 11
M  V30 11 1 10 12
M  V30 12 1 12 13
M  V30 13 1 13 14
M  V30 14 1 14 15
M  V30 15 1 15 16
M  V30 16 1 16 17
M  V30 17 1 17 18
M  V30 18 1 18 19
M  V30 19 1 19 20
M  V30 20 1 20 21
M  V30 21 1 21 22
M  V30 22 1 22 23
M  V30 23 1 23 24
M  V30 24 1 4 25
M  V30 25 1 4 26
M  V30 26 1 5 27
M  V30 27 1 5 28
M  V30 28 1 6 29
M  V30 29 1 6 30
M  V30 30 1 7 31
M  V30 31 1 7 32
M  V30 32 1 8 33
M  V30 33 1 8 34
M  V30 34 1 9 35
M  V30 35 1 9 36
M  V30 36 1 10 37
M  V30 37 1 10 38
M  V30 38 1 11 39
M  V30 39 1 11 40
M  V30 40 1 11 41
M  V30 41 1 12 42
M  V30 42 1 12 43
M  V30 43 1 13 44
M  V30 44 1 13 45
M  V30 45 1 14 46
M  V30 46 1 14 47
M  V30 47 1 15 48
M  V30 48 1 15 49
M  V30 49 1 16 50
M  V30 50 1 16 51
M  V30 51 1 17 52
M  V30 52 1 17 53
M  V30 53 1 18 54
M  V30 54 1 18 55
M  V30 55 1 19 56
M  V30 56 1 19 57
M  V30 57 1 20 58
M  V30 58 1 20 59
M  V30 59 1 21 60
M  V30 60 1 21 61
M  V30 61 1 22 62
M  V30 62 1 22 63
M  V30 63 1 23 64
M  V30 64 1 23 65
M  V30 65 1 24 66
M  V30 66 1 24 67
M  V30 67 1 24 68
M  V30 END BOND
M  V30 END CTAB
M  END
>  <Structure No>
1416

>  <LogS>
-7.116029628

>  <MMFF94 Energy>
-15.272

$$$$
Compound 1417
Actelion Java MolfileCreator 2.0

  0  0  0  0  0  0              0 V3000
M  V30 BEGIN CTAB
M  V30 COUNTS 89 88 0 0 0
M  V30 BEGIN ATOM
M  V30 1 O -4.1609 2.1965 0.4703 0
M  V30 2 C -3.8944 1.1394 -0.1659 0
M  V30 3 O -4.2949 0.9878 -1.4988 0
M  V30 4 C -3.2006 0.0012 0.5237 0
M  V30 5 C -5.0428 1.9696 -2.2168 0
M  V30 6 C -2.0593 0.4617 1.4438 0
M  V30 7 C -6.4846 2.0869 -1.6932 0
M  V30 8 C -0.928 1.1634 0.6698 0
M  V30 9 C -7.2176 0.7391 -1.589 0
M  V30 10 C 0.2275 1.5928 1.5948 0
M  V30 11 C -7.5935 0.1626 -2.9626 0
M  V30 12 C 1.2019 0.4514 1.9409 0
M  V30 13 C -8.2602 -1.2216 -2.8658 0
M  V30 14 C 2.1739 0.1525 0.7856 0
M  V30 15 C -9.6164 -1.2036 -2.1271 0
M  V30 16 C 3.2013 -0.9291 1.153 0
M  V30 17 C -9.4918 -1.7166 -0.6776 0
M  V30 18 C 4.1784 -0.4998 2.2095 0
M  V30 19 C -10.7198 -1.4286 0.2165 0
M  V30 20 O 4.4718 0.7194 2.3555 0
M  V30 21 O 4.8196 -1.4845 2.9703 0
M  V30 22 C -10.8667 0.065 0.5439 0
M  V30 23 C -12.0202 -1.9912 -0.3713 0
M  V30 24 C 5.8337 -1.2137 3.937 0
M  V30 25 C 7.2367 -1.4107 3.3457 0
M  V30 26 C 7.681 -0.2662 2.4113 0
M  V30 27 C 7.4266 -0.5445 0.9156 0
M  V30 28 C 8.3714 -1.5837 0.2752 0
M  V30 29 C 9.8745 -1.2453 0.3397 0
M  V30 30 C 10.2608 0.1491 -0.1944 0
M  V30 31 C 9.8641 0.4157 -1.6672 0
M  V30 32 C 10.1933 1.8679 -2.0369 0
M  V30 33 C 10.5735 -0.5422 -2.6366 0
M  V30 34 H -3.9508 -0.5454 1.1332 0
M  V30 35 H -2.8045 -0.7081 -0.2342 0
M  V30 36 H -5.0566 1.691 -3.2922 0
M  V30 37 H -4.5373 2.9572 -2.139 0
M  V30 38 H -2.462 1.1468 2.2223 0
M  V30 39 H -1.6579 -0.433 1.9647 0
M  V30 40 H -6.4615 2.5526 -0.6835 0
M  V30 41 H -7.0575 2.7758 -2.3533 0
M  V30 42 H -1.3368 2.0811 0.1932 0
M  V30 43 H -0.5608 0.5055 -0.1457 0
M  V30 44 H -8.1467 0.9156 -1.0072 0
M  V30 45 H -6.6005 0.0093 -1.0235 0
M  V30 46 H -0.1898 2.0118 2.5374 0
M  V30 47 H 0.7921 2.4201 1.1113 0
M  V30 48 H -6.6771 0.0517 -3.5816 0
M  V30 49 H -8.2747 0.8658 -3.4885 0
M  V30 50 H 0.6472 -0.4698 2.2184 0
M  V30 51 H 1.7866 0.7643 2.8323 0
M  V30 52 H -7.5584 -1.9465 -2.3984 0
M  V30 53 H -8.4325 -1.5766 -3.9053 0
M  V30 54 H 1.6016 -0.2101 -0.0938 0
M  V30 55 H 2.7026 1.0814 0.4763 0
M  V30 56 H -10.3188 -1.8729 -2.6684 0
M  V30 57 H -10.0556 -0.1868 -2.1591 0
M  V30 58 H 2.6694 -1.8434 1.495 0
M  V30 59 H 3.778 -1.1974 0.2417 0
M  V30 60 H -8.5923 -1.2869 -0.191 0
M  V30 61 H -9.3277 -2.815 -0.7096 0
M  V30 62 H -10.5405 -1.9529 1.1821 0
M  V30 63 H -11.6407 0.2043 1.3279 0
M  V30 64 H -9.9092 0.4748 0.9302 0
M  V30 65 H -11.1749 0.6462 -0.3515 0
M  V30 66 H -12.8431 -1.9003 0.3705 0
M  V30 67 H -11.8952 -3.0675 -0.6178 0
M  V30 68 H -12.3137 -1.4404 -1.2902 0
M  V30 69 H 5.7169 -0.2016 4.3786 0
M  V30 70 H 5.7079 -1.9404 4.7666 0
M  V30 71 H 7.2871 -2.3965 2.8416 0
M  V30 72 H 7.9513 -1.4514 4.1958 0
M  V30 73 H 8.7574 -0.0573 2.5752 0
M  V30 74 H 7.1589 0.6738 2.6903 0
M  V30 75 H 7.4988 0.413 0.3575 0
M  V30 76 H 6.3871 -0.9023 0.7763 0
M  V30 77 H 8.215 -2.5723 0.7554 0
M  V30 78 H 8.0765 -1.7152 -0.7879 0
M  V30 79 H 10.2215 -1.3277 1.3913 0
M  V30 80 H 10.4358 -2.0245 -0.2191 0
M  V30 81 H 11.3633 0.2631 -0.0903 0
M  V30 82 H 9.8055 0.9244 0.46 0
M  V30 83 H 8.7657 0.2891 -1.7877 0
M  V30 84 H 11.2862 2.0557 -1.9485 0
M  V30 85 H 9.8761 2.0828 -3.0818 0
M  V30 86 H 9.6532 2.5685 -1.3645 0
M  V30 87 H 10.2215 -1.5823 -2.4863 0
M  V30 88 H 10.3475 -0.2679 -3.6909 0
M  V30 89 H 11.674 -0.5088 -2.4885 0
M  V30 END ATOM
M  V30 BEGIN BOND
M  V30 1 2 1 2
M  V30 2 1 2 3
M  V30 3 1 2 4
M  V30 4 1 3 5
M  V30 5 1 4 6
M  V30 6 1 5 7
M  V30 7 1 6 8
M  V30 8 1 7 9
M  V30 9 1 8 10
M  V30 10 1 9 11
M  V30 11 1 10 12
M  V30 12 1 11 13
M  V30 13 1 12 14
M  V30 14 1 13 15
M  V30 15 1 14 16
M  V30 16 1 15 17
M  V30 17 1 16 18
M  V30 18 1 17 19
M  V30 19 2 18 20
M  V30 20 1 18 21
M  V30 21 1 19 22
M  V30 22 1 19 23
M  V30 23 1 21 24
M  V30 24 1 24 25
M  V30 25 1 25 26
M  V30 26 1 26 27
M  V30 27 1 27 28
M  V30 28 1 28 29
M  V30 29 1 29 30
M  V30 30 1 30 31
M  V30 31 1 31 32
M  V30 32 1 31 33
M  V30 33 1 4 34
M  V30 34 1 4 35
M  V30 35 1 5 36
M  V30 36 1 5 37
M  V30 37 1 6 38
M  V30 38 1 6 39
M  V30 39 1 7 40
M  V30 40 1 7 41
M  V30 41 1 8 42
M  V30 42 1 8 43
M  V30 43 1 9 44
M  V30 44 1 9 45
M  V30 45 1 10 46
M  V30 46 1 10 47
M  V30 47 1 11 48
M  V30 48 1 11 49
M  V30 49 1 12 50
M  V30 50 1 12 51
M  V30 51 1 13 52
M  V30 52 1 13 53
M  V30 53 1 14 54
M  V30 54 1 14 55
M  V30 55 1 15 56
M  V30 56 1 15 57
M  V30 57 1 16 58
M  V30 58 1 16 59
M  V30 59 1 17 60
M  V30 60 1 17 61
M  V30 61 1 19 62
M  V30 62 1 22 63
M  V30 63 1 22 64
M  V30 64 1 22 65
M  V30 65 1 23 66
M  V30 66 1 23 67
M  V30 67 1 23 68
M  V30 68 1 24 69
M  V30 69 1 24 70
M  V30 70 1 25 71
M  V30 71 1 25 72
M  V30 72 1 26 73
M  V30 73 1 26 74
M  V30 74 1 27 75
M  V30 75 1 27 76
M  V30 76 1 28 77
M  V30 77 1 28 78
M  V30 78 1 29 79
M  V30 79 1 29 80
M  V30 80 1 30 81
M  V30 81 1 30 82
M  V30 82 1 31 83
M  V30 83 1 32 84
M  V30 84 1 32 85
M  V30 85 1 32 86
M  V30 86 1 33 87
M  V30 87 1 33 88
M  V30 88 1 33 89
M  V30 END BOND
M  V30 END CTAB
M  END
>  <Structure No>
1417

>  <LogS>
-6.971983321

>  <MMFF94 Energy>
-10.542

$$$$
Compound 1418
Actelion Java MolfileCreator 2.0

  0  0  0  0  0  0              0 V3000
M  V30 BEGIN CTAB
M  V30 COUNTS 96 95 0 0 0
M  V30 BEGIN ATOM
M  V30 1 O 2.1163 -1.332 1.9594 0
M  V30 2 C 3.0761 -0.5225 2.079 0
M  V30 3 O 4.3932 -0.9551 1.8924 0
M  V30 4 C 2.8492 0.8726 2.4995 0
M  V30 5 C 4.7357 -2.2627 1.4393 0
M  V30 6 C 1.7032 1.5605 2.3772 0
M  V30 7 C 4.4478 -2.438 -0.0595 0
M  V30 8 C 0.5097 1.1297 1.6276 0
M  V30 9 C 5.3384 -1.5568 -0.9554 0
M  V30 10 O 0.6125 0.3694 0.6266 0
M  V30 11 O -0.7347 1.6514 1.9961 0
M  V30 12 C 4.7634 -0.1427 -1.1554 0
M  V30 13 C -1.9634 1.2691 1.381 0
M  V30 14 C 5.5927 0.6918 -2.145 0
M  V30 15 C -2.3933 -0.122 1.8639 0
M  V30 16 C 6.89 1.2222 -1.5167 0
M  V30 17 C -3.7032 -0.5953 1.2139 0
M  V30 18 C 7.6815 2.0751 -2.5197 0
M  V30 19 C -4.9296 0.1756 1.7342 0
M  V30 20 C 9.0035 2.6028 -1.9239 0
M  V30 21 C -6.26 -0.4604 1.3009 0
M  V30 22 C 10.2528 1.8237 -2.3819 0
M  V30 23 C -6.5189 -0.3163 -0.2086 0
M  V30 24 C 10.2786 0.3356 -1.9922 0
M  V30 25 C -7.8944 -0.8644 -0.6242 0
M  V30 26 C 10.4112 0.1167 -0.475 0
M  V30 27 C -9.0445 0.0873 -0.2603 0
M  V30 28 C 10.2675 -1.3616 -0.072 0
M  V30 29 C -10.3895 -0.4566 -0.7666 0
M  V30 30 C 11.3536 -2.2946 -0.6354 0
M  V30 31 C -11.5533 0.5187 -0.5231 0
M  V30 32 C 12.7566 -1.9427 -0.1428 0
M  V30 33 C -11.9944 0.5574 0.9505 0
M  V30 34 C -13.1042 1.5909 1.2165 0
M  V30 35 C -14.4379 1.3117 0.5006 0
M  V30 36 C -15.0738 -0.0146 0.9146 0
M  V30 37 H 3.6795 1.3692 2.9867 0
M  V30 38 H 4.1708 -3.0234 2.0216 0
M  V30 39 H 5.8155 -2.4358 1.632 0
M  V30 40 H 1.6521 2.5351 2.8473 0
M  V30 41 H 3.3722 -2.2558 -0.2714 0
M  V30 42 H 4.6494 -3.502 -0.3136 0
M  V30 43 H 6.3648 -1.5082 -0.5339 0
M  V30 44 H 5.4135 -2.0468 -1.9507 0
M  V30 45 H 3.7314 -0.2323 -1.5612 0
M  V30 46 H 4.6969 0.3959 -0.1882 0
M  V30 47 H -1.8582 1.2877 0.2743 0
M  V30 48 H -2.7316 2.0159 1.6665 0
M  V30 49 H 4.9766 1.5575 -2.4698 0
M  V30 50 H 5.8253 0.0881 -3.0491 0
M  V30 51 H -1.5967 -0.8528 1.6079 0
M  V30 52 H -2.4964 -0.1177 2.9706 0
M  V30 53 H 6.6402 1.8426 -0.6279 0
M  V30 54 H 7.5106 0.3715 -1.1778 0
M  V30 55 H -3.6224 -0.493 0.1108 0
M  V30 56 H -3.8291 -1.6751 1.4459 0
M  V30 57 H 7.8744 1.4953 -3.4486 0
M  V30 58 H 7.0506 2.9455 -2.805 0
M  V30 59 H -4.8984 1.2293 1.384 0
M  V30 60 H -4.9046 0.187 2.8462 0
M  V30 61 H 8.957 2.6583 -0.8161 0
M  V30 62 H 9.1362 3.6521 -2.2675 0
M  V30 63 H -6.2742 -1.5349 1.586 0
M  V30 64 H -7.0694 0.0465 1.866 0
M  V30 65 H 10.3295 1.8986 -3.4885 0
M  V30 66 H 11.1556 2.3206 -1.9648 0
M  V30 67 H -6.4277 0.7486 -0.5153 0
M  V30 68 H -5.7471 -0.8924 -0.7611 0
M  V30 69 H 11.1597 -0.1173 -2.4935 0
M  V30 70 H 9.3814 -0.1825 -2.3895 0
M  V30 71 H -7.8872 -1.0083 -1.7271 0
M  V30 72 H -8.0616 -1.8598 -0.157 0
M  V30 73 H 11.3799 0.5244 -0.1163 0
M  V30 74 H 9.6119 0.6738 0.0546 0
M  V30 75 H -8.8561 1.0837 -0.7172 0
M  V30 76 H -9.0872 0.2058 0.8406 0
M  V30 77 H 10.2778 -1.4287 1.0374 0
M  V30 78 H 9.2734 -1.7305 -0.407 0
M  V30 79 H -10.3133 -0.6317 -1.8626 0
M  V30 80 H -10.6096 -1.4345 -0.2843 0
M  V30 81 H 11.334 -2.2951 -1.7452 0
M  V30 82 H 11.1209 -3.3309 -0.3072 0
M  V30 83 H -12.4069 0.1779 -1.1459 0
M  V30 84 H -11.2702 1.5384 -0.865 0
M  V30 85 H 12.772 -1.8644 0.965 0
M  V30 86 H 13.1007 -0.9866 -0.5886 0
M  V30 87 H 13.4662 -2.7395 -0.4504 0
M  V30 88 H -11.13 0.8399 1.5862 0
M  V30 89 H -12.3214 -0.4521 1.2775 0
M  V30 90 H -12.7413 2.5965 0.9111 0
M  V30 91 H -13.2903 1.6347 2.3119 0
M  V30 92 H -15.1443 2.1299 0.7593 0
M  V30 93 H -14.3059 1.3376 -0.601 0
M  V30 94 H -14.4882 -0.8697 0.5178 0
M  V30 95 H -16.1007 -0.078 0.4968 0
M  V30 96 H -15.1372 -0.0869 2.0212 0
M  V30 END ATOM
M  V30 BEGIN BOND
M  V30 1 2 1 2
M  V30 2 1 2 3
M  V30 3 1 2 4
M  V30 4 1 3 5
M  V30 5 2 4 6
M  V30 6 1 5 7
M  V30 7 1 6 8
M  V30 8 1 7 9
M  V30 9 2 8 10
M  V30 10 1 8 11
M  V30 11 1 9 12
M  V30 12 1 11 13
M  V30 13 1 12 14
M  V30 14 1 13 15
M  V30 15 1 14 16
M  V30 16 1 15 17
M  V30 17 1 16 18
M  V30 18 1 17 19
M  V30 19 1 18 20
M  V30 20 1 19 21
M  V30 21 1 20 22
M  V30 22 1 21 23
M  V30 23 1 22 24
M  V30 24 1 23 25
M  V30 25 1 24 26
M  V30 26 1 25 27
M  V30 27 1 26 28
M  V30 28 1 27 29
M  V30 29 1 28 30
M  V30 30 1 29 31
M  V30 31 1 30 32
M  V30 32 1 31 33
M  V30 33 1 33 34
M  V30 34 1 34 35
M  V30 35 1 35 36
M  V30 36 1 4 37
M  V30 37 1 5 38
M  V30 38 1 5 39
M  V30 39 1 6 40
M  V30 40 1 7 41
M  V30 41 1 7 42
M  V30 42 1 9 43
M  V30 43 1 9 44
M  V30 44 1 12 45
M  V30 45 1 12 46
M  V30 46 1 13 47
M  V30 47 1 13 48
M  V30 48 1 14 49
M  V30 49 1 14 50
M  V30 50 1 15 51
M  V30 51 1 15 52
M  V30 52 1 16 53
M  V30 53 1 16 54
M  V30 54 1 17 55
M  V30 55 1 17 56
M  V30 56 1 18 57
M  V30 57 1 18 58
M  V30 58 1 19 59
M  V30 59 1 19 60
M  V30 60 1 20 61
M  V30 61 1 20 62
M  V30 62 1 21 63
M  V30 63 1 21 64
M  V30 64 1 22 65
M  V30 65 1 22 66
M  V30 66 1 23 67
M  V30 67 1 23 68
M  V30 68 1 24 69
M  V30 69 1 24 70
M  V30 70 1 25 71
M  V30 71 1 25 72
M  V30 72 1 26 73
M  V30 73 1 26 74
M  V30 74 1 27 75
M  V30 75 1 27 76
M  V30 76 1 28 77
M  V30 77 1 28 78
M  V30 78 1 29 79
M  V30 79 1 29 80
M  V30 80 1 30 81
M  V30 81 1 30 82
M  V30 82 1 31 83
M  V30 83 1 31 84
M  V30 84 1 32 85
M  V30 85 1 32 86
M  V30 86 1 32 87
M  V30 87 1 33 88
M  V30 88 1 33 89
M  V30 89 1 34 90
M  V30 90 1 34 91
M  V30 91 1 35 92
M  V30 92 1 35 93
M  V30 93 1 36 94
M  V30 94 1 36 95
M  V30 95 1 36 96
M  V30 END BOND
M  V30 END CTAB
M  END
>  <Structure No>
1418

>  <LogS>
-7.007600998

>  <MMFF94 Energy>
-31.682

$$$$
Compound 1419
Actelion Java MolfileCreator 2.0

  0  0  0  0  0  0              0 V3000
M  V30 BEGIN CTAB
M  V30 COUNTS 69 68 0 0 0
M  V30 BEGIN ATOM
M  V30 1 O -9.39 2.341 2.4972 0
M  V30 2 C -9.6121 1.681 1.4472 0
M  V30 3 N -9.7751 2.3638 0.2046 0
M  V30 4 C -9.6562 0.1815 1.505 0
M  V30 5 C -8.2519 -0.4336 1.4283 0
M  V30 6 C -7.5926 -0.2074 0.0565 0
M  V30 7 C -6.2986 -1.0158 -0.125 0
M  V30 8 C -5.1531 -0.5086 0.7682 0
M  V30 9 C -3.8285 -1.2531 0.5157 0
M  V30 10 C -3.1333 -0.8986 -0.8125 0
M  V30 11 C -2.5902 0.5413 -0.8381 0
M  V30 12 C -1.7342 0.8214 -2.0917 0
M  V30 13 C -0.2193 0.7755 -1.8278 0
M  V30 14 C 0.2859 -0.6371 -1.4915 0
M  V30 15 C 1.8181 -0.7474 -1.5452 0
M  V30 16 C 2.5046 -0.0122 -0.3805 0
M  V30 17 C 4.0374 -0.1207 -0.4373 0
M  V30 18 C 4.552 -1.4869 0.0447 0
M  V30 19 C 6.0728 -1.645 -0.1234 0
M  V30 20 C 6.8983 -0.7199 0.7957 0
M  V30 21 C 7.4727 0.4894 0.0372 0
M  V30 22 C 8.1115 1.5329 0.9713 0
M  V30 23 C 9.336 1.0302 1.7567 0
M  V30 24 C 10.5006 0.626 0.8533 0
M  V30 25 H -9.939 1.8316 -0.6786 0
M  V30 26 H -9.7292 3.4061 0.1654 0
M  V30 27 H -10.1303 -0.1263 2.4623 0
M  V30 28 H -10.2918 -0.2137 0.6833 0
M  V30 29 H -7.6207 -3.0E-4 2.234 0
M  V30 30 H -8.3427 -1.5261 1.6144 0
M  V30 31 H -7.3756 0.873 -0.0885 0
M  V30 32 H -8.3037 -0.5182 -0.7403 0
M  V30 33 H -6.0065 -0.9289 -1.1912 0
M  V30 34 H -6.4934 -2.0905 0.0836 0
M  V30 35 H -5.0191 0.5851 0.6403 0
M  V30 36 H -5.4286 -0.6795 1.8304 0
M  V30 37 H -3.1313 -1.0349 1.3537 0
M  V30 38 H -4.0198 -2.3483 0.5389 0
M  V30 39 H -3.8202 -1.055 -1.6687 0
M  V30 40 H -2.2938 -1.6101 -0.9485 0
M  V30 41 H -2.0104 0.7507 0.0873 0
M  V30 42 H -3.4513 1.2424 -0.8524 0
M  V30 43 H -1.9981 0.1309 -2.923 0
M  V30 44 H -1.9728 1.8468 -2.451 0
M  V30 45 H 0.0285 1.4773 -1.0028 0
M  V30 46 H 0.2953 1.138 -2.7442 0
M  V30 47 H -0.0694 -0.9371 -0.4821 0
M  V30 48 H -0.1322 -1.355 -2.2307 0
M  V30 49 H 2.0755 -1.8258 -1.5032 0
M  V30 50 H 2.1892 -0.352 -2.516 0
M  V30 51 H 2.2436 1.0659 -0.4304 0
M  V30 52 H 2.1328 -0.404 0.5916 0
M  V30 53 H 4.3926 0.0812 -1.4715 0
M  V30 54 H 4.4526 0.6676 0.2258 0
M  V30 55 H 4.2762 -1.6377 1.1117 0
M  V30 56 H 4.0692 -2.2954 -0.5421 0
M  V30 57 H 6.3514 -1.5073 -1.1917 0
M  V30 58 H 6.3233 -2.6986 0.1311 0
M  V30 59 H 7.7455 -1.3103 1.2062 0
M  V30 60 H 6.2877 -0.3775 1.6598 0
M  V30 61 H 8.2115 0.1447 -0.7164 0
M  V30 62 H 6.6604 0.9958 -0.5238 0
M  V30 63 H 8.4112 2.4161 0.365 0
M  V30 64 H 7.3449 1.8849 1.6962 0
M  V30 65 H 9.6816 1.8529 2.4201 0
M  V30 66 H 9.0581 0.1799 2.4143 0
M  V30 67 H 10.2623 -0.3064 0.3012 0
M  V30 68 H 11.4007 0.436 1.4749 0
M  V30 69 H 10.7343 1.4369 0.1313 0
M  V30 END ATOM
M  V30 BEGIN BOND
M  V30 1 2 1 2
M  V30 2 1 2 3
M  V30 3 1 2 4
M  V30 4 1 4 5
M  V30 5 1 5 6
M  V30 6 1 6 7
M  V30 7 1 7 8
M  V30 8 1 8 9
M  V30 9 1 9 10
M  V30 10 1 10 11
M  V30 11 1 11 12
M  V30 12 1 12 13
M  V30 13 1 13 14
M  V30 14 1 14 15
M  V30 15 1 15 16
M  V30 16 1 16 17
M  V30 17 1 17 18
M  V30 18 1 18 19
M  V30 19 1 19 20
M  V30 20 1 20 21
M  V30 21 1 21 22
M  V30 22 1 22 23
M  V30 23 1 23 24
M  V30 24 1 3 25
M  V30 25 1 3 26
M  V30 26 1 4 27
M  V30 27 1 4 28
M  V30 28 1 5 29
M  V30 29 1 5 30
M  V30 30 1 6 31
M  V30 31 1 6 32
M  V30 32 1 7 33
M  V30 33 1 7 34
M  V30 34 1 8 35
M  V30 35 1 8 36
M  V30 36 1 9 37
M  V30 37 1 9 38
M  V30 38 1 10 39
M  V30 39 1 10 40
M  V30 40 1 11 41
M  V30 41 1 11 42
M  V30 42 1 12 43
M  V30 43 1 12 44
M  V30 44 1 13 45
M  V30 45 1 13 46
M  V30 46 1 14 47
M  V30 47 1 14 48
M  V30 48 1 15 49
M  V30 49 1 15 50
M  V30 50 1 16 51
M  V30 51 1 16 52
M  V30 52 1 17 53
M  V30 53 1 17 54
M  V30 54 1 18 55
M  V30 55 1 18 56
M  V30 56 1 19 57
M  V30 57 1 19 58
M  V30 58 1 20 59
M  V30 59 1 20 60
M  V30 60 1 21 61
M  V30 61 1 21 62
M  V30 62 1 22 63
M  V30 63 1 22 64
M  V30 64 1 23 65
M  V30 65 1 23 66
M  V30 66 1 24 67
M  V30 67 1 24 68
M  V30 68 1 24 69
M  V30 END BOND
M  V30 END CTAB
M  END
>  <Structure No>
1419

>  <LogS>
-6.832007908

>  <MMFF94 Energy>
-30.108

$$$$
Compound 1420
Actelion Java MolfileCreator 2.0

  0  0  0  0  0  0              0 V3000
M  V30 BEGIN CTAB
M  V30 COUNTS 134 133 0 0 0
M  V30 BEGIN ATOM
M  V30 1 O 0.1564 0.2346 1.6434 0
M  V30 2 C -0.7258 0.1315 0.749 0
M  V30 3 O -0.9921 1.1956 -0.1217 0
M  V30 4 C -1.4847 -1.1539 0.6094 0
M  V30 5 C -0.278 2.4316 -0.1141 0
M  V30 6 C -3.0054 -0.9297 0.6567 0
M  V30 7 C 0.4336 2.648 -1.4543 0
M  V30 8 C -3.6031 -0.6818 -0.7394 0
M  V30 9 C 1.3595 1.4884 -1.8569 0
M  V30 10 C -5.0412 -0.1407 -0.6844 0
M  V30 11 C 2.5652 1.34 -0.9208 0
M  V30 12 C -6.0189 -1.1074 3.0E-4 0
M  V30 13 C 3.5092 0.2397 -1.4208 0
M  V30 14 C -7.4699 -0.6263 -0.1551 0
M  V30 15 C 4.6757 0.0329 -0.4446 0
M  V30 16 C -8.4723 -1.5311 0.5805 0
M  V30 17 C 5.5952 -1.1359 -0.8458 0
M  V30 18 C -8.5158 -1.2347 2.0923 0
M  V30 19 C 6.257 -1.0258 -2.2388 0
M  V30 20 C -9.5195 -2.1237 2.8511 0
M  V30 21 C 7.0661 0.2625 -2.5068 0
M  V30 22 C -11.0028 -1.7798 2.591 0
M  V30 23 C 8.5326 0.2107 -2.042 0
M  V30 24 C -11.6357 -0.8559 3.6527 0
M  V30 25 C 8.6893 0.1987 -0.5125 0
M  V30 26 C -11.0909 0.5829 3.6866 0
M  V30 27 C 10.0747 0.6757 -0.0536 0
M  V30 28 C -11.2521 1.3797 2.3756 0
M  V30 29 C 11.2021 -0.2603 -0.5231 0
M  V30 30 C -12.7149 1.7393 2.0366 0
M  V30 31 C 12.5349 0.0166 0.1891 0
M  V30 32 C -13.3815 0.775 1.0399 0
M  V30 33 C 13.1878 1.3323 -0.2634 0
M  V30 34 C -12.913 1.0037 -0.4082 0
M  V30 35 C 14.4706 1.6621 0.52 0
M  V30 36 C -13.3908 -0.0975 -1.3736 0
M  V30 37 C 15.6204 0.661 0.2799 0
M  V30 38 C -14.9148 -0.3159 -1.4212 0
M  V30 39 C 15.7866 -0.3213 1.4514 0
M  V30 40 C -15.6771 0.8904 -1.9924 0
M  V30 41 C 16.773 -1.4601 1.1428 0
M  V30 42 C -17.2019 0.7314 -1.8838 0
M  V30 43 C 18.2302 -0.9835 0.9685 0
M  V30 44 C -17.75 -0.4161 -2.7335 0
M  V30 45 C 18.648 -0.921 -0.5084 0
M  V30 46 C 20.0839 -0.4229 -0.6535 0
M  V30 47 H -1.1864 -1.6577 -0.3349 0
M  V30 48 H -1.2016 -1.8315 1.4451 0
M  V30 49 H -1.0071 3.2549 0.0349 0
M  V30 50 H 0.4479 2.4933 0.7242 0
M  V30 51 H -3.2473 -0.0835 1.3395 0
M  V30 52 H -3.475 -1.8422 1.0792 0
M  V30 53 H -0.3394 2.7682 -2.2451 0
M  V30 54 H 1.016 3.5929 -1.4118 0
M  V30 55 H -3.5828 -1.6272 -1.3248 0
M  V30 56 H -2.983 0.0596 -1.2859 0
M  V30 57 H 0.7847 0.5374 -1.8859 0
M  V30 58 H 1.7264 1.6837 -2.8884 0
M  V30 59 H -5.0494 0.8359 -0.1539 0
M  V30 60 H -5.3773 0.0425 -1.7275 0
M  V30 61 H 2.2159 1.0765 0.0993 0
M  V30 62 H 3.1172 2.3054 -0.8707 0
M  V30 63 H -5.7631 -1.1707 1.0775 0
M  V30 64 H -5.9208 -2.1192 -0.4494 0
M  V30 65 H 3.9019 0.5339 -2.4186 0
M  V30 66 H 2.9435 -0.7137 -1.5218 0
M  V30 67 H -7.5678 0.4191 0.2103 0
M  V30 68 H -7.7283 -0.6261 -1.2376 0
M  V30 69 H 4.2609 -0.1986 0.5603 0
M  V30 70 H 5.2585 0.9703 -0.3346 0
M  V30 71 H -9.473 -1.3496 0.136 0
M  V30 72 H -8.22 -2.6002 0.4065 0
M  V30 73 H 6.3663 -1.2593 -0.0626 0
M  V30 74 H 4.9934 -2.0711 -0.8284 0
M  V30 75 H -8.7369 -0.1631 2.2602 0
M  V30 76 H -7.513 -1.4322 2.5263 0
M  V30 77 H 5.4605 -1.1099 -3.0091 0
M  V30 78 H 6.9119 -1.9097 -2.3902 0
M  V30 79 H -9.3373 -3.1847 2.5618 0
M  V30 80 H -9.3029 -2.0579 3.9407 0
M  V30 81 H 7.0889 0.4073 -3.6106 0
M  V30 82 H 6.5662 1.1652 -2.1049 0
M  V30 83 H -11.5728 -2.7344 2.6227 0
M  V30 84 H -11.1605 -1.3792 1.5742 0
M  V30 85 H 9.0419 1.11 -2.4543 0
M  V30 86 H 9.0339 -0.6796 -2.4789 0
M  V30 87 H -12.7345 -0.8251 3.4986 0
M  V30 88 H -11.485 -1.3081 4.6563 0
M  V30 89 H 7.9287 0.8656 -0.0506 0
M  V30 90 H 8.5295 -0.8306 -0.1314 0
M  V30 91 H -10.0184 0.559 3.9741 0
M  V30 92 H -11.6084 1.1322 4.5023 0
M  V30 93 H 10.0697 0.7189 1.0577 0
M  V30 94 H 10.25 1.7059 -0.4311 0
M  V30 95 H -10.7496 0.8638 1.5347 0
M  V30 96 H -10.6993 2.3341 2.5138 0
M  V30 97 H 11.3416 -0.1657 -1.621 0
M  V30 98 H 10.9138 -1.3122 -0.309 0
M  V30 99 H -12.7453 2.7664 1.6095 0
M  V30 100 H -13.3239 1.7742 2.9659 0
M  V30 101 H 13.2186 -0.8253 -0.0471 0
M  V30 102 H 12.3764 0.0251 1.2892 0
M  V30 103 H -13.2094 -0.2786 1.3335 0
M  V30 104 H -14.4773 0.957 1.089 0
M  V30 105 H 13.4182 1.282 -1.3492 0
M  V30 106 H 12.4798 2.1726 -0.107 0
M  V30 107 H -11.803 1.0162 -0.4511 0
M  V30 108 H -13.2516 2.0005 -0.7597 0
M  V30 109 H 14.8111 2.6667 0.1844 0
M  V30 110 H 14.2371 1.7566 1.6037 0
M  V30 111 H -13.0267 0.1425 -2.3964 0
M  V30 112 H -12.9117 -1.0562 -1.0793 0
M  V30 113 H 15.462 0.106 -0.67 0
M  V30 114 H 16.5652 1.2372 0.172 0
M  V30 115 H -15.297 -0.5768 -0.4142 0
M  V30 116 H -15.1016 -1.1953 -2.0716 0
M  V30 117 H 14.8056 -0.7798 1.6967 0
M  V30 118 H 16.1253 0.2323 2.3551 0
M  V30 119 H -15.3882 1.0477 -3.0543 0
M  V30 120 H -15.4048 1.8074 -1.4309 0
M  V30 121 H 16.7407 -2.1671 1.9994 0
M  V30 122 H 16.4238 -2.0321 0.255 0
M  V30 123 H -17.6766 1.6762 -2.2254 0
M  V30 124 H -17.492 0.5776 -0.8216 0
M  V30 125 H 18.3834 0.0066 1.4519 0
M  V30 126 H 18.8991 -1.7031 1.4886 0
M  V30 127 H -17.4382 -1.3948 -2.3118 0
M  V30 128 H -18.8595 -0.3758 -2.7329 0
M  V30 129 H -17.3931 -0.3318 -3.7815 0
M  V30 130 H 17.976 -0.2393 -1.0702 0
M  V30 131 H 18.5741 -1.9356 -0.9586 0
M  V30 132 H 20.1747 0.6064 -0.2491 0
M  V30 133 H 20.7831 -1.0936 -0.1121 0
M  V30 134 H 20.3647 -0.4075 -1.7264 0
M  V30 END ATOM
M  V30 BEGIN BOND
M  V30 1 2 1 2
M  V30 2 1 2 3
M  V30 3 1 2 4
M  V30 4 1 3 5
M  V30 5 1 4 6
M  V30 6 1 5 7
M  V30 7 1 6 8
M  V30 8 1 7 9
M  V30 9 1 8 10
M  V30 10 1 9 11
M  V30 11 1 10 12
M  V30 12 1 11 13
M  V30 13 1 12 14
M  V30 14 1 13 15
M  V30 15 1 14 16
M  V30 16 1 15 17
M  V30 17 1 16 18
M  V30 18 1 17 19
M  V30 19 1 18 20
M  V30 20 1 19 21
M  V30 21 1 20 22
M  V30 22 1 21 23
M  V30 23 1 22 24
M  V30 24 1 23 25
M  V30 25 1 24 26
M  V30 26 1 25 27
M  V30 27 1 26 28
M  V30 28 1 27 29
M  V30 29 1 28 30
M  V30 30 1 29 31
M  V30 31 1 30 32
M  V30 32 1 31 33
M  V30 33 1 32 34
M  V30 34 1 33 35
M  V30 35 1 34 36
M  V30 36 1 35 37
M  V30 37 1 36 38
M  V30 38 1 37 39
M  V30 39 1 38 40
M  V30 40 1 39 41
M  V30 41 1 40 42
M  V30 42 1 41 43
M  V30 43 1 42 44
M  V30 44 1 43 45
M  V30 45 1 45 46
M  V30 46 1 4 47
M  V30 47 1 4 48
M  V30 48 1 5 49
M  V30 49 1 5 50
M  V30 50 1 6 51
M  V30 51 1 6 52
M  V30 52 1 7 53
M  V30 53 1 7 54
M  V30 54 1 8 55
M  V30 55 1 8 56
M  V30 56 1 9 57
M  V30 57 1 9 58
M  V30 58 1 10 59
M  V30 59 1 10 60
M  V30 60 1 11 61
M  V30 61 1 11 62
M  V30 62 1 12 63
M  V30 63 1 12 64
M  V30 64 1 13 65
M  V30 65 1 13 66
M  V30 66 1 14 67
M  V30 67 1 14 68
M  V30 68 1 15 69
M  V30 69 1 15 70
M  V30 70 1 16 71
M  V30 71 1 16 72
M  V30 72 1 17 73
M  V30 73 1 17 74
M  V30 74 1 18 75
M  V30 75 1 18 76
M  V30 76 1 19 77
M  V30 77 1 19 78
M  V30 78 1 20 79
M  V30 79 1 20 80
M  V30 80 1 21 81
M  V30 81 1 21 82
M  V30 82 1 22 83
M  V30 83 1 22 84
M  V30 84 1 23 85
M  V30 85 1 23 86
M  V30 86 1 24 87
M  V30 87 1 24 88
M  V30 88 1 25 89
M  V30 89 1 25 90
M  V30 90 1 26 91
M  V30 91 1 26 92
M  V30 92 1 27 93
M  V30 93 1 27 94
M  V30 94 1 28 95
M  V30 95 1 28 96
M  V30 96 1 29 97
M  V30 97 1 29 98
M  V30 98 1 30 99
M  V30 99 1 30 100
M  V30 100 1 31 101
M  V30 101 1 31 102
M  V30 102 1 32 103
M  V30 103 1 32 104
M  V30 104 1 33 105
M  V30 105 1 33 106
M  V30 106 1 34 107
M  V30 107 1 34 108
M  V30 108 1 35 109
M  V30 109 1 35 110
M  V30 110 1 36 111
M  V30 111 1 36 112
M  V30 112 1 37 113
M  V30 113 1 37 114
M  V30 114 1 38 115
M  V30 115 1 38 116
M  V30 116 1 39 117
M  V30 117 1 39 118
M  V30 118 1 40 119
M  V30 119 1 40 120
M  V30 120 1 41 121
M  V30 121 1 41 122
M  V30 122 1 42 123
M  V30 123 1 42 124
M  V30 124 1 43 125
M  V30 125 1 43 126
M  V30 126 1 44 127
M  V30 127 1 44 128
M  V30 128 1 44 129
M  V30 129 1 45 130
M  V30 130 1 45 131
M  V30 131 1 46 132
M  V30 132 1 46 133
M  V30 133 1 46 134
M  V30 END BOND
M  V30 END CTAB
M  END
>  <Structure No>
1420

>  <LogS>
-7.113399141

>  <MMFF94 Energy>
-12.984

$$$$
Compound 1421
Actelion Java MolfileCreator 2.0

  0  0  0  0  0  0              0 V3000
M  V30 BEGIN CTAB
M  V30 COUNTS 90 89 0 0 0
M  V30 BEGIN ATOM
M  V30 1 O -2.0329 -1.7199 -3.0505 0
M  V30 2 C -1.9191 -0.5515 -2.5868 0
M  V30 3 O -2.0965 -0.3071 -1.2233 0
M  V30 4 C -1.6181 0.588 -3.5086 0
M  V30 5 C -2.37 -1.3385 -0.2817 0
M  V30 6 C -0.4538 1.4602 -3.0073 0
M  V30 7 C -2.5116 -0.7441 1.1223 0
M  V30 8 C 0.9322 0.8119 -3.1814 0
M  V30 9 C -3.8628 -0.0465 1.3543 0
M  V30 10 C 1.2547 -0.225 -2.0936 0
M  V30 11 C -4.0126 1.259 0.555 0
M  V30 12 C 2.7262 -0.6589 -2.1674 0
M  V30 13 C -5.2267 2.0962 0.997 0
M  V30 14 C 3.0527 -1.8181 -1.2076 0
M  V30 15 C -6.5827 1.4266 0.6867 0
M  V30 16 C 2.8771 -1.4783 0.2845 0
M  V30 17 C -7.2057 0.7651 1.9284 0
M  V30 18 C 3.5893 -0.2152 0.7084 0
M  V30 19 C -8.4007 -0.1356 1.5814 0
M  V30 20 C 4.9188 -0.0805 0.8636 0
M  V30 21 C -9.5971 0.654 1.0221 0
M  V30 22 C 5.9416 -1.161 0.606 0
M  V30 23 C -10.8751 -0.195 0.9393 0
M  V30 24 C 6.7413 -0.8998 -0.682 0
M  V30 25 C -10.7885 -1.2894 -0.1334 0
M  V30 26 C 7.6065 0.3736 -0.6543 0
M  V30 27 C -12.1191 -2.0215 -0.2843 0
M  V30 28 C 8.6991 0.3344 0.4246 0
M  V30 29 C 9.7195 1.4627 0.2216 0
M  V30 30 C 10.6097 1.7016 1.4531 0
M  V30 31 C 11.5538 0.5291 1.7897 0
M  V30 32 C 10.9859 -0.3995 2.8661 0
M  V30 33 H -1.4038 0.2114 -4.5343 0
M  V30 34 H -2.5325 1.2188 -3.5698 0
M  V30 35 H -3.2972 -1.881 -0.5683 0
M  V30 36 H -1.5245 -2.0606 -0.2818 0
M  V30 37 H -0.617 1.7651 -1.9496 0
M  V30 38 H -0.4627 2.3952 -3.6077 0
M  V30 39 H -1.6736 -0.041 1.3206 0
M  V30 40 H -2.4261 -1.5743 1.8573 0
M  V30 41 H 1.6907 1.6236 -3.1304 0
M  V30 42 H 1.0116 0.3451 -4.1871 0
M  V30 43 H -3.9394 0.1866 2.4383 0
M  V30 44 H -4.6873 -0.7456 1.0937 0
M  V30 45 H 0.6136 -1.1204 -2.2262 0
M  V30 46 H 1.0527 0.2182 -1.0956 0
M  V30 47 H -3.1009 1.8787 0.696 0
M  V30 48 H -4.1068 1.0335 -0.5292 0
M  V30 49 H 3.3893 0.208 -1.9571 0
M  V30 50 H 2.949 -0.9998 -3.2018 0
M  V30 51 H -5.1832 3.0577 0.4393 0
M  V30 52 H -5.1419 2.3564 2.0755 0
M  V30 53 H 2.4003 -2.6836 -1.4533 0
M  V30 54 H 4.0939 -2.151 -1.3941 0
M  V30 55 H -6.4732 0.683 -0.1329 0
M  V30 56 H -7.2825 2.2105 0.3255 0
M  V30 57 H 1.7936 -1.358 0.4979 0
M  V30 58 H 3.2141 -2.3331 0.9081 0
M  V30 59 H -7.5223 1.549 2.6504 0
M  V30 60 H -6.4497 0.1373 2.4425 0
M  V30 61 H 2.9677 0.6441 0.9432 0
M  V30 62 H -8.0738 -0.9053 0.8492 0
M  V30 63 H -8.7136 -0.6608 2.5104 0
M  V30 64 H 5.2922 0.885 1.1924 0
M  V30 65 H -9.3549 1.0521 0.0146 0
M  V30 66 H -9.8042 1.5205 1.6867 0
M  V30 67 H 5.4717 -2.1609 0.5359 0
M  V30 68 H 6.6267 -1.2163 1.4768 0
M  V30 69 H -11.091 -0.6505 1.9304 0
M  V30 70 H -11.72 0.484 0.6899 0
M  V30 71 H 6.0373 -0.8213 -1.5389 0
M  V30 72 H 7.3962 -1.7754 -0.8774 0
M  V30 73 H -10.5192 -0.8369 -1.1123 0
M  V30 74 H -10.0076 -2.0295 0.1386 0
M  V30 75 H 6.9641 1.268 -0.5072 0
M  V30 76 H 8.0857 0.4738 -1.6523 0
M  V30 77 H -12.3972 -2.5204 0.6693 0
M  V30 78 H -12.031 -2.7944 -1.0779 0
M  V30 79 H -12.9207 -1.3077 -0.5745 0
M  V30 80 H 9.2272 -0.6411 0.3733 0
M  V30 81 H 8.2285 0.4439 1.4245 0
M  V30 82 H 9.1756 2.4105 0.0093 0
M  V30 83 H 10.3545 1.2359 -0.6631 0
M  V30 84 H 11.2368 2.5924 1.2299 0
M  V30 85 H 9.9802 1.9744 2.3289 0
M  V30 86 H 12.5092 0.9481 2.1791 0
M  V30 87 H 11.7991 -0.0594 0.8773 0
M  V30 88 H 11.7667 -1.1296 3.1748 0
M  V30 89 H 10.6794 0.1826 3.7633 0
M  V30 90 H 10.1122 -0.9669 2.486 0
M  V30 END ATOM
M  V30 BEGIN BOND
M  V30 1 2 1 2
M  V30 2 1 2 3
M  V30 3 1 2 4
M  V30 4 1 3 5
M  V30 5 1 4 6
M  V30 6 1 5 7
M  V30 7 1 6 8
M  V30 8 1 7 9
M  V30 9 1 8 10
M  V30 10 1 9 11
M  V30 11 1 10 12
M  V30 12 1 11 13
M  V30 13 1 12 14
M  V30 14 1 13 15
M  V30 15 1 14 16
M  V30 16 1 15 17
M  V30 17 1 16 18
M  V30 18 1 17 19
M  V30 19 2 18 20
M  V30 20 1 19 21
M  V30 21 1 20 22
M  V30 22 1 21 23
M  V30 23 1 22 24
M  V30 24 1 23 25
M  V30 25 1 24 26
M  V30 26 1 25 27
M  V30 27 1 26 28
M  V30 28 1 28 29
M  V30 29 1 29 30
M  V30 30 1 30 31
M  V30 31 1 31 32
M  V30 32 1 4 33
M  V30 33 1 4 34
M  V30 34 1 5 35
M  V30 35 1 5 36
M  V30 36 1 6 37
M  V30 37 1 6 38
M  V30 38 1 7 39
M  V30 39 1 7 40
M  V30 40 1 8 41
M  V30 41 1 8 42
M  V30 42 1 9 43
M  V30 43 1 9 44
M  V30 44 1 10 45
M  V30 45 1 10 46
M  V30 46 1 11 47
M  V30 47 1 11 48
M  V30 48 1 12 49
M  V30 49 1 12 50
M  V30 50 1 13 51
M  V30 51 1 13 52
M  V30 52 1 14 53
M  V30 53 1 14 54
M  V30 54 1 15 55
M  V30 55 1 15 56
M  V30 56 1 16 57
M  V30 57 1 16 58
M  V30 58 1 17 59
M  V30 59 1 17 60
M  V30 60 1 18 61
M  V30 61 1 19 62
M  V30 62 1 19 63
M  V30 63 1 20 64
M  V30 64 1 21 65
M  V30 65 1 21 66
M  V30 66 1 22 67
M  V30 67 1 22 68
M  V30 68 1 23 69
M  V30 69 1 23 70
M  V30 70 1 24 71
M  V30 71 1 24 72
M  V30 72 1 25 73
M  V30 73 1 25 74
M  V30 74 1 26 75
M  V30 75 1 26 76
M  V30 76 1 27 77
M  V30 77 1 27 78
M  V30 78 1 27 79
M  V30 79 1 28 80
M  V30 80 1 28 81
M  V30 81 1 29 82
M  V30 82 1 29 83
M  V30 83 1 30 84
M  V30 84 1 30 85
M  V30 85 1 31 86
M  V30 86 1 31 87
M  V30 87 1 32 88
M  V30 88 1 32 89
M  V30 89 1 32 90
M  V30 END BOND
M  V30 END CTAB
M  END
>  <Structure No>
1421

>  <LogS>
-6.955006196

>  <MMFF94 Energy>
-7.8128

$$$$
Compound 1422
Actelion Java MolfileCreator 2.0

  0  0  0  0  0  0              0 V3000
M  V30 BEGIN CTAB
M  V30 COUNTS 60 59 0 0 0
M  V30 BEGIN ATOM
M  V30 1 O 8.2919 -1.4823 0.1559 0
M  V30 2 C 7.9904 -0.3606 0.6498 0
M  V30 3 O 8.2082 0.821 -0.0708 0
M  V30 4 C 7.4186 -0.2884 2.034 0
M  V30 5 C 8.6132 0.8433 -1.4379 0
M  V30 6 C 6.1343 0.5517 2.0826 0
M  V30 7 C 7.4564 0.4392 -2.3471 0
M  V30 8 C 5.0003 -0.0697 1.2541 0
M  V30 9 C 3.7206 0.7675 1.3591 0
M  V30 10 C 2.6035 0.1775 0.4906 0
M  V30 11 C 1.322 1.0123 0.6001 0
M  V30 12 C 0.2144 0.4377 -0.2906 0
M  V30 13 C -1.0313 1.2756 -0.2155 0
M  V30 14 C -1.811 1.2785 0.8764 0
M  V30 15 C -3.0861 2.0764 0.9322 0
M  V30 16 C -4.3179 1.1963 0.679 0
M  V30 17 C -4.3614 0.6549 -0.7604 0
M  V30 18 C -5.7026 -0.0142 -1.0998 0
M  V30 19 C -5.9276 -1.3181 -0.3169 0
M  V30 20 C -7.1254 -2.1231 -0.8444 0
M  V30 21 C -8.4705 -1.4417 -0.5524 0
M  V30 22 C -9.6388 -2.3281 -0.9775 0
M  V30 23 H 7.2081 -1.3117 2.4155 0
M  V30 24 H 8.1765 0.1715 2.7031 0
M  V30 25 H 9.4837 0.1683 -1.5931 0
M  V30 26 H 8.9272 1.8772 -1.6985 0
M  V30 27 H 5.8102 0.6292 3.1433 0
M  V30 28 H 6.3472 1.5811 1.7194 0
M  V30 29 H 7.7709 0.5211 -3.4097 0
M  V30 30 H 7.15 -0.6103 -2.1432 0
M  V30 31 H 6.5868 1.1111 -2.1763 0
M  V30 32 H 5.3078 -0.1276 0.1872 0
M  V30 33 H 4.7978 -1.0999 1.6203 0
M  V30 34 H 3.3869 0.7964 2.4202 0
M  V30 35 H 3.9328 1.807 1.0246 0
M  V30 36 H 2.9385 0.1541 -0.57 0
M  V30 37 H 2.3928 -0.8643 0.8182 0
M  V30 38 H 0.9817 1.0225 1.6589 0
M  V30 39 H 1.5349 2.0593 0.2891 0
M  V30 40 H 0.5646 0.4211 -1.3453 0
M  V30 41 H -0.0206 -0.607 0.0099 0
M  V30 42 H -1.3149 1.8617 -1.0858 0
M  V30 43 H -1.5524 0.6564 1.7285 0
M  V30 44 H -3.1705 2.5183 1.9486 0
M  V30 45 H -3.063 2.9225 0.2095 0
M  V30 46 H -4.3203 0.3546 1.4052 0
M  V30 47 H -5.2251 1.8114 0.8658 0
M  V30 48 H -3.5346 -0.0705 -0.9189 0
M  V30 49 H -4.21 1.4981 -1.4686 0
M  V30 50 H -6.5293 0.6991 -0.9005 0
M  V30 51 H -5.7061 -0.238 -2.1872 0
M  V30 52 H -5.0212 -1.9544 -0.4052 0
M  V30 53 H -6.0805 -1.0968 0.7592 0
M  V30 54 H -7.1131 -3.1193 -0.3521 0
M  V30 55 H -7.0153 -2.2883 -1.9383 0
M  V30 56 H -8.5574 -1.2285 0.5357 0
M  V30 57 H -8.5408 -0.4815 -1.1073 0
M  V30 58 H -10.5972 -1.8109 -0.7613 0
M  V30 59 H -9.6201 -3.2876 -0.4193 0
M  V30 60 H -9.5884 -2.5371 -2.0664 0
M  V30 END ATOM
M  V30 BEGIN BOND
M  V30 1 2 1 2
M  V30 2 1 2 3
M  V30 3 1 2 4
M  V30 4 1 3 5
M  V30 5 1 4 6
M  V30 6 1 5 7
M  V30 7 1 6 8
M  V30 8 1 8 9
M  V30 9 1 9 10
M  V30 10 1 10 11
M  V30 11 1 11 12
M  V30 12 1 12 13
M  V30 13 2 13 14
M  V30 14 1 14 15
M  V30 15 1 15 16
M  V30 16 1 16 17
M  V30 17 1 17 18
M  V30 18 1 18 19
M  V30 19 1 19 20
M  V30 20 1 20 21
M  V30 21 1 21 22
M  V30 22 1 4 23
M  V30 23 1 4 24
M  V30 24 1 5 25
M  V30 25 1 5 26
M  V30 26 1 6 27
M  V30 27 1 6 28
M  V30 28 1 7 29
M  V30 29 1 7 30
M  V30 30 1 7 31
M  V30 31 1 8 32
M  V30 32 1 8 33
M  V30 33 1 9 34
M  V30 34 1 9 35
M  V30 35 1 10 36
M  V30 36 1 10 37
M  V30 37 1 11 38
M  V30 38 1 11 39
M  V30 39 1 12 40
M  V30 40 1 12 41
M  V30 41 1 13 42
M  V30 42 1 14 43
M  V30 43 1 15 44
M  V30 44 1 15 45
M  V30 45 1 16 46
M  V30 46 1 16 47
M  V30 47 1 17 48
M  V30 48 1 17 49
M  V30 49 1 18 50
M  V30 50 1 18 51
M  V30 51 1 19 52
M  V30 52 1 19 53
M  V30 53 1 20 54
M  V30 54 1 20 55
M  V30 55 1 21 56
M  V30 56 1 21 57
M  V30 57 1 22 58
M  V30 58 1 22 59
M  V30 59 1 22 60
M  V30 END BOND
M  V30 END CTAB
M  END
>  <Structure No>
1422

>  <LogS>
-7.355606283

>  <MMFF94 Energy>
-6.1745

$$$$
Compound 1423
Actelion Java MolfileCreator 2.0

  0  0  0  0  0  0              0 V3000
M  V30 BEGIN CTAB
M  V30 COUNTS 74 73 0 0 0
M  V30 BEGIN ATOM
M  V30 1 O -3.5193 -2.4233 1.9539 0
M  V30 2 C -4.5965 -1.8333 1.6642 0
M  V30 3 O -4.832 -0.5284 2.1126 0
M  V30 4 C -5.6319 -2.5496 0.8303 0 CFG=2
M  V30 5 C -3.8975 0.2372 2.8724 0
M  V30 6 C -5.7091 -2.0499 -0.6379 0
M  V30 7 C -7.0029 -2.654 1.5458 0
M  V30 8 C -3.0342 1.1206 1.9638 0
M  V30 9 C -5.5823 -0.5229 -0.8276 0
M  V30 10 C -7.8578 -1.3858 1.5347 0
M  V30 11 C -1.9566 0.3183 1.2173 0
M  V30 12 C -5.8627 -0.0851 -2.2736 0
M  V30 13 C -1.0953 1.1965 0.2952 0
M  V30 14 C -7.3548 -0.0812 -2.6072 0
M  V30 15 C -0.0955 2.0674 1.0749 0
M  V30 16 C 0.8074 2.9106 0.1561 0
M  V30 17 C 1.7274 2.1071 -0.7868 0
M  V30 18 C 2.5807 1.0184 -0.1106 0
M  V30 19 C 3.5729 1.586 0.9183 0
M  V30 20 C 4.3366 0.4878 1.6804 0
M  V30 21 C 5.2197 -0.4205 0.8067 0
M  V30 22 C 6.3395 0.3451 0.0874 0
M  V30 23 C 7.2963 -0.6203 -0.6222 0
M  V30 24 C 8.4116 0.1451 -1.3492 0
M  V30 25 C 9.4593 -0.7901 -1.9717 0
M  V30 26 C 8.9249 -1.5528 -3.1834 0
M  V30 27 H -5.2868 -3.6066 0.7571 0
M  V30 28 H -4.4767 0.9037 3.5461 0
M  V30 29 H -3.2692 -0.4134 3.5196 0
M  V30 30 H -6.6539 -2.4194 -1.0881 0
M  V30 31 H -4.8831 -2.5263 -1.2116 0
M  V30 32 H -7.5936 -3.4641 1.0644 0
M  V30 33 H -6.8398 -2.9632 2.6017 0
M  V30 34 H -2.5476 1.8856 2.6041 0
M  V30 35 H -3.6888 1.6471 1.2354 0
M  V30 36 H -6.2479 0.0333 -0.1383 0
M  V30 37 H -4.5408 -0.2238 -0.5868 0
M  V30 38 H -8.1693 -1.1329 0.5004 0
M  V30 39 H -8.7794 -1.5642 2.1279 0
M  V30 40 H -7.3214 -0.5312 1.9915 0
M  V30 41 H -1.3067 -0.2176 1.9439 0
M  V30 42 H -2.4494 -0.4456 0.5813 0
M  V30 43 H -5.4755 0.9479 -2.4094 0
M  V30 44 H -5.3216 -0.7433 -2.9871 0
M  V30 45 H -0.5367 0.5152 -0.38 0
M  V30 46 H -1.7477 1.8383 -0.3368 0
M  V30 47 H -7.5056 0.3584 -3.6159 0
M  V30 48 H -7.9188 0.5283 -1.8687 0
M  V30 49 H -7.7604 -1.1138 -2.6177 0
M  V30 50 H 0.5226 1.4371 1.7479 0
M  V30 51 H -0.6553 2.7753 1.7209 0
M  V30 52 H 0.1655 3.5745 -0.4632 0
M  V30 53 H 1.4279 3.5822 0.7866 0
M  V30 54 H 1.1101 1.6327 -1.5791 0
M  V30 55 H 2.4048 2.8201 -1.3054 0
M  V30 56 H 1.928 0.2544 0.3614 0
M  V30 57 H 3.1504 0.5074 -0.9147 0
M  V30 58 H 3.0193 2.177 1.6774 0
M  V30 59 H 4.283 2.2792 0.4204 0
M  V30 60 H 4.974 0.9717 2.4522 0
M  V30 61 H 3.6027 -0.1486 2.2215 0
M  V30 62 H 5.6788 -1.1813 1.4749 0
M  V30 63 H 4.5986 -0.9715 0.0699 0
M  V30 64 H 6.9084 0.9491 0.8279 0
M  V30 65 H 5.898 1.0296 -0.6683 0
M  V30 66 H 6.7182 -1.2236 -1.3539 0
M  V30 67 H 7.748 -1.307 0.1269 0
M  V30 68 H 8.931 0.8027 -0.6181 0
M  V30 69 H 7.9734 0.797 -2.1364 0
M  V30 70 H 9.8297 -1.5108 -1.2108 0
M  V30 71 H 10.3253 -0.1765 -2.3015 0
M  V30 72 H 9.7532 -2.1215 -3.6553 0
M  V30 73 H 8.1409 -2.2763 -2.879 0
M  V30 74 H 8.5086 -0.8479 -3.934 0
M  V30 END ATOM
M  V30 BEGIN BOND
M  V30 1 2 1 2
M  V30 2 1 2 3
M  V30 3 1 2 4
M  V30 4 1 3 5
M  V30 5 1 4 6
M  V30 6 1 4 7
M  V30 7 1 5 8
M  V30 8 1 6 9
M  V30 9 1 7 10
M  V30 10 1 8 11
M  V30 11 1 9 12
M  V30 12 1 11 13
M  V30 13 1 12 14
M  V30 14 1 13 15
M  V30 15 1 15 16
M  V30 16 1 16 17
M  V30 17 1 17 18
M  V30 18 1 18 19
M  V30 19 1 19 20
M  V30 20 1 20 21
M  V30 21 1 21 22
M  V30 22 1 22 23
M  V30 23 1 23 24
M  V30 24 1 24 25
M  V30 25 1 25 26
M  V30 26 1 4 27
M  V30 27 1 5 28
M  V30 28 1 5 29
M  V30 29 1 6 30
M  V30 30 1 6 31
M  V30 31 1 7 32
M  V30 32 1 7 33
M  V30 33 1 8 34
M  V30 34 1 8 35
M  V30 35 1 9 36
M  V30 36 1 9 37
M  V30 37 1 10 38
M  V30 38 1 10 39
M  V30 39 1 10 40
M  V30 40 1 11 41
M  V30 41 1 11 42
M  V30 42 1 12 43
M  V30 43 1 12 44
M  V30 44 1 13 45
M  V30 45 1 13 46
M  V30 46 1 14 47
M  V30 47 1 14 48
M  V30 48 1 14 49
M  V30 49 1 15 50
M  V30 50 1 15 51
M  V30 51 1 16 52
M  V30 52 1 16 53
M  V30 53 1 17 54
M  V30 54 1 17 55
M  V30 55 1 18 56
M  V30 56 1 18 57
M  V30 57 1 19 58
M  V30 58 1 19 59
M  V30 59 1 20 60
M  V30 60 1 20 61
M  V30 61 1 21 62
M  V30 62 1 21 63
M  V30 63 1 22 64
M  V30 64 1 22 65
M  V30 65 1 23 66
M  V30 66 1 23 67
M  V30 67 1 24 68
M  V30 68 1 24 69
M  V30 69 1 25 70
M  V30 70 1 25 71
M  V30 71 1 26 72
M  V30 72 1 26 73
M  V30 73 1 26 74
M  V30 END BOND
M  V30 BEGIN COLLECTION
M  V30 MDLV30/STEABS ATOMS=(1 4)
M  V30 END COLLECTION
M  V30 END CTAB
M  END
>  <Structure No>
1423

>  <LogS>
-6.867639522

>  <MMFF94 Energy>
-10.346

$$$$
Compound 1424
Actelion Java MolfileCreator 2.0

  0  0  0  0  0  0              0 V3000
M  V30 BEGIN CTAB
M  V30 COUNTS 56 55 0 0 0
M  V30 BEGIN ATOM
M  V30 1 O -3.4358 -2.7322 0.1559 0
M  V30 2 C -2.8554 -1.7819 -0.4367 0
M  V30 3 O -3.4408 -1.1666 -1.5489 0
M  V30 4 C -1.5027 -1.3376 0.0198 0
M  V30 5 C -4.7537 -1.4737 -2.0164 0
M  V30 6 C -0.4068 -2.0789 -0.7564 0
M  V30 7 C -5.8235 -0.8812 -1.0922 0
M  V30 8 C 1.0049 -1.758 -0.24 0
M  V30 9 C -5.7153 0.6497 -1.0108 0
M  V30 10 C 1.4769 -0.3515 -0.6484 0
M  V30 11 C -6.851 1.2799 -0.1902 0
M  V30 12 C 2.8772 -0.018 -0.108 0
M  V30 13 C -6.7143 1.004 1.3145 0
M  V30 14 C 3.9978 -0.7295 -0.886 0
M  V30 15 C -7.7785 1.7551 2.1096 0
M  V30 16 C 5.3953 -0.3986 -0.3374 0
M  V30 17 C 5.8297 1.0438 -0.6519 0
M  V30 18 C 7.3227 1.2917 -0.3711 0
M  V30 19 C 7.7412 1.1063 1.0986 0
M  V30 20 C 7.0417 2.0801 2.0469 0
M  V30 21 H -1.3982 -1.5352 1.1092 0
M  V30 22 H -1.4203 -0.243 -0.1441 0
M  V30 23 H -4.8837 -2.5753 -2.0899 0
M  V30 24 H -4.8762 -1.0534 -3.0374 0
M  V30 25 H -0.5715 -3.1738 -0.6463 0
M  V30 26 H -0.4778 -1.8358 -1.8396 0
M  V30 27 H -5.7158 -1.3275 -0.0824 0
M  V30 28 H -6.8242 -1.1614 -1.4869 0
M  V30 29 H 1.6958 -2.5136 -0.668 0
M  V30 30 H 1.0339 -1.8645 0.8663 0
M  V30 31 H -4.7343 0.9408 -0.5755 0
M  V30 32 H -5.7634 1.0667 -2.0405 0
M  V30 33 H 1.4656 -0.2523 -1.756 0
M  V30 34 H 0.7733 0.4021 -0.2368 0
M  V30 35 H -7.8331 0.9079 -0.5565 0
M  V30 36 H -6.8244 2.3792 -0.3567 0
M  V30 37 H 3.0156 1.0797 -0.1971 0
M  V30 38 H 2.9372 -0.2777 0.9714 0
M  V30 39 H -5.7103 1.3253 1.6679 0
M  V30 40 H -6.8292 -0.0816 1.5161 0
M  V30 41 H 3.9424 -0.4616 -1.9639 0
M  V30 42 H 3.8608 -1.8278 -0.8058 0
M  V30 43 H -7.6699 2.8509 1.9622 0
M  V30 44 H -7.6625 1.5299 3.1909 0
M  V30 45 H -8.7941 1.4401 1.7879 0
M  V30 46 H 5.4072 -0.5714 0.7603 0
M  V30 47 H 6.1208 -1.1027 -0.8004 0
M  V30 48 H 5.6523 1.2479 -1.7305 0
M  V30 49 H 5.2169 1.7677 -0.0766 0
M  V30 50 H 7.9273 0.6037 -1.0013 0
M  V30 51 H 7.5756 2.3268 -0.6889 0
M  V30 52 H 8.8366 1.2801 1.1694 0
M  V30 53 H 7.5565 0.0626 1.4295 0
M  V30 54 H 7.1527 3.1243 1.6841 0
M  V30 55 H 5.9642 1.8307 2.1393 0
M  V30 56 H 7.4992 2.0055 3.0562 0
M  V30 END ATOM
M  V30 BEGIN BOND
M  V30 1 2 1 2
M  V30 2 1 2 3
M  V30 3 1 2 4
M  V30 4 1 3 5
M  V30 5 1 4 6
M  V30 6 1 5 7
M  V30 7 1 6 8
M  V30 8 1 7 9
M  V30 9 1 8 10
M  V30 10 1 9 11
M  V30 11 1 10 12
M  V30 12 1 11 13
M  V30 13 1 12 14
M  V30 14 1 13 15
M  V30 15 1 14 16
M  V30 16 1 16 17
M  V30 17 1 17 18
M  V30 18 1 18 19
M  V30 19 1 19 20
M  V30 20 1 4 21
M  V30 21 1 4 22
M  V30 22 1 5 23
M  V30 23 1 5 24
M  V30 24 1 6 25
M  V30 25 1 6 26
M  V30 26 1 7 27
M  V30 27 1 7 28
M  V30 28 1 8 29
M  V30 29 1 8 30
M  V30 30 1 9 31
M  V30 31 1 9 32
M  V30 32 1 10 33
M  V30 33 1 10 34
M  V30 34 1 11 35
M  V30 35 1 11 36
M  V30 36 1 12 37
M  V30 37 1 12 38
M  V30 38 1 13 39
M  V30 39 1 13 40
M  V30 40 1 14 41
M  V30 41 1 14 42
M  V30 42 1 15 43
M  V30 43 1 15 44
M  V30 44 1 15 45
M  V30 45 1 16 46
M  V30 46 1 16 47
M  V30 47 1 17 48
M  V30 48 1 17 49
M  V30 49 1 18 50
M  V30 50 1 18 51
M  V30 51 1 19 52
M  V30 52 1 19 53
M  V30 53 1 20 54
M  V30 54 1 20 55
M  V30 55 1 20 56
M  V30 END BOND
M  V30 END CTAB
M  END
>  <Structure No>
1424

>  <LogS>
-6.755087841

>  <MMFF94 Energy>
-13.451

$$$$
Compound 1425
Actelion Java MolfileCreator 2.0

  0  0  0  0  0  0              0 V3000
M  V30 BEGIN CTAB
M  V30 COUNTS 67 66 0 0 0
M  V30 BEGIN ATOM
M  V30 1 O 7.917 0.4689 -1.7203 0
M  V30 2 C 7.3703 0.4022 -0.5855 0
M  V30 3 O 8.1244 0.1164 0.5586 0
M  V30 4 C 5.8936 0.6045 -0.4585 0
M  V30 5 C 9.5264 -0.1578 0.5344 0
M  V30 6 C 5.1959 -0.7279 -0.1554 0
M  V30 7 C 10.084 -0.0016 1.9565 0
M  V30 8 C 9.7729 -1.5782 -0.0015 0
M  V30 9 C 3.664 -0.6167 -0.1972 0
M  V30 10 O 9.7905 1.2741 2.4606 0
M  V30 11 O 11.1456 -1.811 -0.1737 0
M  V30 12 C 3.1027 0.2734 0.9259 0
M  V30 13 C 1.5767 0.1571 1.0671 0
M  V30 14 C 0.8252 0.7077 -0.1545 0
M  V30 15 C -0.6876 0.737 0.0962 0
M  V30 16 C -1.4408 1.2161 -1.1543 0
M  V30 17 C -2.9453 1.4083 -0.906 0
M  V30 18 C -3.6825 0.0816 -0.6689 0
M  V30 19 C -5.1999 0.298 -0.6152 0
M  V30 20 C -5.9331 -1.0189 -0.3172 0
M  V30 21 C -7.4609 -0.8893 -0.4324 0
M  V30 22 C -8.0651 -0.0049 0.6772 0
M  V30 23 C -9.6121 0.0118 0.713 0
M  V30 24 C -10.2241 0.5251 -0.5974 0
M  V30 25 C -10.2071 -1.3499 1.0994 0
M  V30 26 H 5.4931 1.0386 -1.4008 0
M  V30 27 H 5.71 1.3263 0.3647 0
M  V30 28 H 10.0384 0.5786 -0.1258 0
M  V30 29 H 5.5178 -1.1041 0.8408 0
M  V30 30 H 5.5049 -1.4797 -0.9155 0
M  V30 31 H 9.6178 -0.7583 2.6246 0
M  V30 32 H 11.1851 -0.1691 1.9662 0
M  V30 33 H 9.2819 -1.6903 -0.99 0
M  V30 34 H 9.3162 -2.3348 0.6783 0
M  V30 35 H 3.2435 -1.6415 -0.0954 0
M  V30 36 H 3.3557 -0.2195 -1.1884 0
M  V30 37 H 10.4203 1.9053 2.0223 0
M  V30 38 H 11.4737 -2.238 0.6601 0
M  V30 39 H 3.3718 1.3355 0.7405 0
M  V30 40 H 3.5593 -0.0293 1.8936 0
M  V30 41 H 1.2964 -0.9061 1.2344 0
M  V30 42 H 1.2718 0.7322 1.9692 0
M  V30 43 H 1.0306 0.0631 -1.0363 0
M  V30 44 H 1.1801 1.7387 -0.3763 0
M  V30 45 H -1.0267 -0.2862 0.3668 0
M  V30 46 H -0.9059 1.4209 0.9465 0
M  V30 47 H -1.2875 0.4945 -1.9867 0
M  V30 48 H -1.0203 2.1942 -1.4757 0
M  V30 49 H -3.0997 2.0868 -0.0377 0
M  V30 50 H -3.377 1.9049 -1.8029 0
M  V30 51 H -3.3493 -0.3618 0.2939 0
M  V30 52 H -3.4437 -0.628 -1.4916 0
M  V30 53 H -5.5466 0.704 -1.5911 0
M  V30 54 H -5.4277 1.0399 0.18 0
M  V30 55 H -5.6007 -1.7899 -1.0465 0
M  V30 56 H -5.6619 -1.3802 0.6992 0
M  V30 57 H -7.7184 -0.4798 -1.4327 0
M  V30 58 H -7.8851 -1.9127 -0.3645 0
M  V30 59 H -7.7157 1.041 0.5403 0
M  V30 60 H -7.6893 -0.3474 1.6664 0
M  V30 61 H -9.9038 0.7298 1.5121 0
M  V30 62 H -10.0777 -0.2067 -1.4196 0
M  V30 63 H -9.7623 1.4932 -0.887 0
M  V30 64 H -11.3152 0.6881 -0.4652 0
M  V30 65 H -10.0812 -2.0928 0.2849 0
M  V30 66 H -11.2945 -1.2416 1.3014 0
M  V30 67 H -9.7218 -1.7349 2.0211 0
M  V30 END ATOM
M  V30 BEGIN BOND
M  V30 1 2 1 2
M  V30 2 1 2 3
M  V30 3 1 2 4
M  V30 4 1 3 5
M  V30 5 1 4 6
M  V30 6 1 5 7
M  V30 7 1 5 8
M  V30 8 1 6 9
M  V30 9 1 7 10
M  V30 10 1 8 11
M  V30 11 1 9 12
M  V30 12 1 12 13
M  V30 13 1 13 14
M  V30 14 1 14 15
M  V30 15 1 15 16
M  V30 16 1 16 17
M  V30 17 1 17 18
M  V30 18 1 18 19
M  V30 19 1 19 20
M  V30 20 1 20 21
M  V30 21 1 21 22
M  V30 22 1 22 23
M  V30 23 1 23 24
M  V30 24 1 23 25
M  V30 25 1 4 26
M  V30 26 1 4 27
M  V30 27 1 5 28
M  V30 28 1 6 29
M  V30 29 1 6 30
M  V30 30 1 7 31
M  V30 31 1 7 32
M  V30 32 1 8 33
M  V30 33 1 8 34
M  V30 34 1 9 35
M  V30 35 1 9 36
M  V30 36 1 10 37
M  V30 37 1 11 38
M  V30 38 1 12 39
M  V30 39 1 12 40
M  V30 40 1 13 41
M  V30 41 1 13 42
M  V30 42 1 14 43
M  V30 43 1 14 44
M  V30 44 1 15 45
M  V30 45 1 15 46
M  V30 46 1 16 47
M  V30 47 1 16 48
M  V30 48 1 17 49
M  V30 49 1 17 50
M  V30 50 1 18 51
M  V30 51 1 18 52
M  V30 52 1 19 53
M  V30 53 1 19 54
M  V30 54 1 20 55
M  V30 55 1 20 56
M  V30 56 1 21 57
M  V30 57 1 21 58
M  V30 58 1 22 59
M  V30 59 1 22 60
M  V30 60 1 23 61
M  V30 61 1 24 62
M  V30 62 1 24 63
M  V30 63 1 24 64
M  V30 64 1 25 65
M  V30 65 1 25 66
M  V30 66 1 25 67
M  V30 END BOND
M  V30 END CTAB
M  END
>  <Structure No>
1425

>  <LogS>
-6.855595469

>  <MMFF94 Energy>
22.193

$$$$
Compound 1426
Actelion Java MolfileCreator 2.0

  0  0  0  0  0  0              0 V3000
M  V30 BEGIN CTAB
M  V30 COUNTS 118 117 0 0 0
M  V30 BEGIN ATOM
M  V30 1 O 2.1121 0.5472 -1.5642 0
M  V30 2 C 1.8718 1.261 -0.5521 0
M  V30 3 O 2.6353 2.4034 -0.2876 0
M  V30 4 C 0.7824 0.855 0.3963 0
M  V30 5 C 3.7036 2.8463 -1.1228 0
M  V30 6 C -0.0358 2.0546 0.9034 0
M  V30 7 C 4.9801 2.041 -0.8589 0
M  V30 8 C -0.779 2.8205 -0.2067 0
M  V30 9 C 5.4371 2.1629 0.603 0
M  V30 10 C -1.9855 2.0466 -0.7578 0
M  V30 11 C 6.9095 1.7701 0.8138 0
M  V30 12 C -2.7322 2.8845 -1.8059 0
M  V30 13 C 7.1933 0.2635 0.6392 0
M  V30 14 C -3.9268 2.1452 -2.4366 0
M  V30 15 C 7.6617 -0.0941 -0.7796 0
M  V30 16 C -5.0389 1.7271 -1.4547 0
M  V30 17 C 8.1662 -1.5445 -0.8436 0
M  V30 18 C -5.6639 2.9177 -0.7097 0
M  V30 19 C 8.4496 -1.9997 -2.2834 0
M  V30 20 C -6.7898 2.4965 0.2481 0
M  V30 21 C 9.5133 -1.1671 -2.9523 0
M  V30 22 C -8.0954 2.082 -0.464 0
M  V30 23 C 10.8381 -1.3036 -2.7594 0
M  V30 24 C -8.3235 0.5656 -0.4326 0
M  V30 25 C 11.487 -2.3685 -1.9085 0
M  V30 26 C -9.6748 0.2269 -1.0048 0
M  V30 27 C 12.6375 -1.7658 -1.0904 0
M  V30 28 C -10.5786 -0.4762 -0.3053 0
M  V30 29 C 13.4492 -2.827 -0.3254 0
M  V30 30 C -11.9371 -0.8065 -0.8614 0
M  V30 31 C 12.6901 -3.516 0.8257 0
M  V30 32 C -13.0283 -0.2019 0.0313 0
M  V30 33 C 12.264 -2.5853 1.9779 0
M  V30 34 C -14.4489 -0.4443 -0.5092 0
M  V30 35 C 13.4538 -1.9685 2.7447 0
M  V30 36 C -14.8621 -1.9265 -0.6268 0
M  V30 37 C 13.6918 -0.4973 2.3722 0
M  V30 38 C -14.7087 -2.7586 0.6599 0
M  V30 39 C 14.8734 0.083 3.1434 0
M  V30 40 C -15.5913 -2.2491 1.8128 0
M  V30 41 C -15.4377 -3.0953 3.0875 0
M  V30 42 C -16.12 -4.4588 2.9797 0
M  V30 43 H 1.2552 0.355 1.2677 0
M  V30 44 H 0.1117 0.1124 -0.0856 0
M  V30 45 H 3.4153 2.7617 -2.1932 0
M  V30 46 H 3.8955 3.9211 -0.9152 0
M  V30 47 H -0.7678 1.6987 1.6597 0
M  V30 48 H 0.6446 2.7593 1.4298 0
M  V30 49 H 5.775 2.4207 -1.5363 0
M  V30 50 H 4.7878 0.9758 -1.1 0
M  V30 51 H -1.1429 3.7782 0.2268 0
M  V30 52 H -0.0806 3.0767 -1.0319 0
M  V30 53 H 5.3283 3.2192 0.9349 0
M  V30 54 H 4.7818 1.5447 1.254 0
M  V30 55 H -2.6646 1.8067 0.0862 0
M  V30 56 H -1.6472 1.0993 -1.2273 0
M  V30 57 H 7.1712 2.044 1.8608 0
M  V30 58 H 7.567 2.3826 0.1583 0
M  V30 59 H -2.0231 3.1398 -2.6242 0
M  V30 60 H -3.0663 3.8463 -1.3625 0
M  V30 61 H 6.2969 -0.3392 0.9059 0
M  V30 62 H 8.0006 -0.0147 1.3529 0
M  V30 63 H -3.5511 1.235 -2.9533 0
M  V30 64 H -4.3726 2.8001 -3.2167 0
M  V30 65 H 6.8261 0.0317 -1.4961 0
M  V30 66 H 8.4866 0.589 -1.0792 0
M  V30 67 H -4.6507 0.9816 -0.7292 0
M  V30 68 H -5.8264 1.2242 -2.0522 0
M  V30 69 H 7.3938 -2.2202 -0.4164 0
M  V30 70 H 9.081 -1.6425 -0.2225 0
M  V30 71 H -6.0448 3.6675 -1.4364 0
M  V30 72 H -4.884 3.4104 -0.0924 0
M  V30 73 H 7.5121 -1.9142 -2.8743 0
M  V30 74 H 8.7322 -3.0747 -2.2999 0
M  V30 75 H -6.4251 1.698 0.9294 0
M  V30 76 H -7.0152 3.3724 0.8951 0
M  V30 77 H 9.179 -0.4023 -3.6485 0
M  V30 78 H -8.9491 2.5723 0.0554 0
M  V30 79 H -8.1088 2.4433 -1.515 0
M  V30 80 H 11.4956 -0.6528 -3.3306 0
M  V30 81 H -8.2409 0.2019 0.615 0
M  V30 82 H -7.5476 0.0505 -1.033 0
M  V30 83 H 10.7596 -2.8399 -1.222 0
M  V30 84 H 11.8817 -3.1571 -2.5829 0
M  V30 85 H -9.9046 0.5579 -2.015 0
M  V30 86 H 13.3373 -1.2499 -1.7838 0
M  V30 87 H 12.2396 -0.9967 -0.396 0
M  V30 88 H -10.3407 -0.8197 0.6988 0
M  V30 89 H 13.7826 -3.6084 -1.0432 0
M  V30 90 H 14.3752 -2.3597 0.0711 0
M  V30 91 H -12.0335 -1.9118 -0.8886 0
M  V30 92 H -12.0507 -0.4236 -1.9003 0
M  V30 93 H 11.7918 -4.0292 0.4261 0
M  V30 94 H 13.3417 -4.3158 1.241 0
M  V30 95 H -12.9406 -0.5961 1.0666 0
M  V30 96 H -12.8691 0.8978 0.0896 0
M  V30 97 H 11.5581 -1.8059 1.6163 0
M  V30 98 H 11.6833 -3.206 2.6953 0
M  V30 99 H -15.1727 0.0896 0.1422 0
M  V30 100 H -14.5317 0.0209 -1.5163 0
M  V30 101 H 14.3816 -2.5578 2.5754 0
M  V30 102 H 13.2343 -2.0162 3.8336 0
M  V30 103 H -14.2668 -2.407 -1.4331 0
M  V30 104 H -15.9247 -1.9683 -0.9542 0
M  V30 105 H 13.8979 -0.3997 1.2888 0
M  V30 106 H 12.7837 0.0972 2.6083 0
M  V30 107 H -13.6443 -2.7863 0.9758 0
M  V30 108 H -14.9998 -3.7997 0.4111 0
M  V30 109 H 15.0109 1.1495 2.8685 0
M  V30 110 H 15.805 -0.4701 2.8948 0
M  V30 111 H 14.6901 0.0204 4.2376 0
M  V30 112 H -16.6579 -2.2299 1.4967 0
M  V30 113 H -15.2923 -1.2101 2.0672 0
M  V30 114 H -15.9024 -2.544 3.9342 0
M  V30 115 H -14.3607 -3.2337 3.3292 0
M  V30 116 H -17.192 -4.3353 2.7152 0
M  V30 117 H -15.6215 -5.0933 2.2184 0
M  V30 118 H -16.0569 -4.9803 3.9588 0
M  V30 END ATOM
M  V30 BEGIN BOND
M  V30 1 2 1 2
M  V30 2 1 2 3
M  V30 3 1 2 4
M  V30 4 1 3 5
M  V30 5 1 4 6
M  V30 6 1 5 7
M  V30 7 1 6 8
M  V30 8 1 7 9
M  V30 9 1 8 10
M  V30 10 1 9 11
M  V30 11 1 10 12
M  V30 12 1 11 13
M  V30 13 1 12 14
M  V30 14 1 13 15
M  V30 15 1 14 16
M  V30 16 1 15 17
M  V30 17 1 16 18
M  V30 18 1 17 19
M  V30 19 1 18 20
M  V30 20 1 19 21
M  V30 21 1 20 22
M  V30 22 2 21 23
M  V30 23 1 22 24
M  V30 24 1 23 25
M  V30 25 1 24 26
M  V30 26 1 25 27
M  V30 27 2 26 28
M  V30 28 1 27 29
M  V30 29 1 28 30
M  V30 30 1 29 31
M  V30 31 1 30 32
M  V30 32 1 31 33
M  V30 33 1 32 34
M  V30 34 1 33 35
M  V30 35 1 34 36
M  V30 36 1 35 37
M  V30 37 1 36 38
M  V30 38 1 37 39
M  V30 39 1 38 40
M  V30 40 1 40 41
M  V30 41 1 41 42
M  V30 42 1 4 43
M  V30 43 1 4 44
M  V30 44 1 5 45
M  V30 45 1 5 46
M  V30 46 1 6 47
M  V30 47 1 6 48
M  V30 48 1 7 49
M  V30 49 1 7 50
M  V30 50 1 8 51
M  V30 51 1 8 52
M  V30 52 1 9 53
M  V30 53 1 9 54
M  V30 54 1 10 55
M  V30 55 1 10 56
M  V30 56 1 11 57
M  V30 57 1 11 58
M  V30 58 1 12 59
M  V30 59 1 12 60
M  V30 60 1 13 61
M  V30 61 1 13 62
M  V30 62 1 14 63
M  V30 63 1 14 64
M  V30 64 1 15 65
M  V30 65 1 15 66
M  V30 66 1 16 67
M  V30 67 1 16 68
M  V30 68 1 17 69
M  V30 69 1 17 70
M  V30 70 1 18 71
M  V30 71 1 18 72
M  V30 72 1 19 73
M  V30 73 1 19 74
M  V30 74 1 20 75
M  V30 75 1 20 76
M  V30 76 1 21 77
M  V30 77 1 22 78
M  V30 78 1 22 79
M  V30 79 1 23 80
M  V30 80 1 24 81
M  V30 81 1 24 82
M  V30 82 1 25 83
M  V30 83 1 25 84
M  V30 84 1 26 85
M  V30 85 1 27 86
M  V30 86 1 27 87
M  V30 87 1 28 88
M  V30 88 1 29 89
M  V30 89 1 29 90
M  V30 90 1 30 91
M  V30 91 1 30 92
M  V30 92 1 31 93
M  V30 93 1 31 94
M  V30 94 1 32 95
M  V30 95 1 32 96
M  V30 96 1 33 97
M  V30 97 1 33 98
M  V30 98 1 34 99
M  V30 99 1 34 100
M  V30 100 1 35 101
M  V30 101 1 35 102
M  V30 102 1 36 103
M  V30 103 1 36 104
M  V30 104 1 37 105
M  V30 105 1 37 106
M  V30 106 1 38 107
M  V30 107 1 38 108
M  V30 108 1 39 109
M  V30 109 1 39 110
M  V30 110 1 39 111
M  V30 111 1 40 112
M  V30 112 1 40 113
M  V30 113 1 41 114
M  V30 114 1 41 115
M  V30 115 1 42 116
M  V30 116 1 42 117
M  V30 117 1 42 118
M  V30 END BOND
M  V30 END CTAB
M  END
>  <Structure No>
1426

>  <LogS>
-7.071179207

>  <MMFF94 Energy>
1.1672

$$$$
Compound 1427
Actelion Java MolfileCreator 2.0

  0  0  0  0  0  0              0 V3000
M  V30 BEGIN CTAB
M  V30 COUNTS 106 105 0 0 0
M  V30 BEGIN ATOM
M  V30 1 O -1.1724 -2.1111 1.0942 0
M  V30 2 C -1.2046 -2.086 2.3568 0
M  V30 3 O -0.0215 -2.1731 3.1001 0
M  V30 4 C -2.517 -2.0389 3.0875 0
M  V30 5 C 1.2814 -2.189 2.5179 0
M  V30 6 C -3.6602 -1.4221 2.2642 0
M  V30 7 C 1.5373 -3.5081 1.7734 0
M  V30 8 C -3.4499 0.0795 1.9993 0
M  V30 9 C 3.0216 -3.7324 1.4428 0
M  V30 10 C -4.4708 0.6541 1.0011 0
M  V30 11 C 3.6002 -2.6344 0.5302 0
M  V30 12 C -5.9266 0.652 1.4996 0
M  V30 13 C 5.0059 -2.9787 -0.0036 0
M  V30 14 C -6.1439 1.5895 2.6974 0
M  V30 15 C 6.1538 -2.3289 0.7893 0
M  V30 16 C -7.6143 1.7793 2.9684 0
M  V30 17 C 6.35 -2.9533 2.1796 0
M  V30 18 C -8.4081 2.6355 2.3008 0
M  V30 19 C 7.6406 -2.4685 2.853 0
M  V30 20 C -7.9292 3.6075 1.2463 0
M  V30 21 C 7.5215 -1.0287 3.2971 0
M  V30 22 C -8.9842 3.8126 0.148 0
M  V30 23 C 8.5138 -0.1231 3.241 0
M  V30 24 C -9.2348 2.553 -0.7016 0
M  V30 25 C 9.8625 -0.3621 2.611 0
M  V30 26 C -8.1402 2.329 -1.7594 0
M  V30 27 C 9.8071 -0.2397 1.0814 0
M  V30 28 C -8.2723 0.9716 -2.4684 0
M  V30 29 C 9.5349 1.2052 0.6317 0
M  V30 30 C -9.443 0.9353 -3.466 0
M  V30 31 C 9.4797 1.3459 -0.8967 0
M  V30 32 C -9.6023 -0.4385 -4.1392 0
M  V30 33 C 8.1499 0.8392 -1.4823 0
M  V30 34 C -8.4891 -0.7358 -5.1547 0
M  V30 35 C 8.0799 0.9958 -3.0091 0
M  V30 36 C -8.7518 -2.0458 -5.8917 0
M  V30 37 C 7.8914 2.4563 -3.4467 0
M  V30 38 C 7.6831 2.5539 -4.9554 0
M  V30 39 H -2.7953 -3.0784 3.3597 0
M  V30 40 H -2.3898 -1.4665 4.031 0
M  V30 41 H 1.3889 -1.323 1.8291 0
M  V30 42 H 2.0257 -2.0744 3.3351 0
M  V30 43 H -4.6001 -1.5613 2.8379 0
M  V30 44 H -3.767 -1.9731 1.3046 0
M  V30 45 H 0.946 -3.5342 0.8336 0
M  V30 46 H 1.1935 -4.3509 2.4118 0
M  V30 47 H -2.4409 0.2364 1.5626 0
M  V30 48 H -3.4815 0.6434 2.9554 0
M  V30 49 H 3.5946 -3.7972 2.3885 0
M  V30 50 H 3.1092 -4.717 0.9323 0
M  V30 51 H -4.4189 0.0704 0.0561 0
M  V30 52 H -4.1778 1.698 0.7501 0
M  V30 53 H 3.6243 -1.6621 1.0681 0
M  V30 54 H 2.9189 -2.5113 -0.3415 0
M  V30 55 H -6.2482 -0.3766 1.7635 0
M  V30 56 H -6.5688 0.973 0.654 0
M  V30 57 H 5.0756 -2.5974 -1.0454 0
M  V30 58 H 5.1573 -4.0776 -0.066 0
M  V30 59 H -5.6475 2.5711 2.5416 0
M  V30 60 H -5.6874 1.1291 3.5993 0
M  V30 61 H 5.9804 -1.2352 0.8814 0
M  V30 62 H 7.0863 -2.4667 0.1998 0
M  V30 63 H -8.061 1.1793 3.7562 0
M  V30 64 H 5.4895 -2.7036 2.8338 0
M  V30 65 H 6.4018 -4.0591 2.0795 0
M  V30 66 H -9.4486 2.6976 2.6059 0
M  V30 67 H 7.8209 -3.0879 3.7574 0
M  V30 68 H 8.4937 -2.6389 2.1673 0
M  V30 69 H -6.9727 3.2923 0.7877 0
M  V30 70 H -7.7438 4.583 1.7438 0
M  V30 71 H 6.6042 -0.7337 3.799 0
M  V30 72 H -8.6667 4.6492 -0.5108 0
M  V30 73 H -9.9416 4.1244 0.6217 0
M  V30 74 H 8.3335 0.8551 3.6763 0
M  V30 75 H -9.3272 1.6607 -0.0464 0
M  V30 76 H -10.2073 2.686 -1.2189 0
M  V30 77 H 10.2534 -1.3593 2.9041 0
M  V30 78 H 10.5815 0.3853 3.0089 0
M  V30 79 H -8.1661 3.1507 -2.5077 0
M  V30 80 H -7.1435 2.3564 -1.2744 0
M  V30 81 H 10.7859 -0.5654 0.6692 0
M  V30 82 H 9.0312 -0.9208 0.6823 0
M  V30 83 H -8.388 0.1637 -1.7129 0
M  V30 84 H -7.3238 0.7876 -3.0153 0
M  V30 85 H 10.3552 1.8523 1.011 0
M  V30 86 H 8.586 1.5798 1.0736 0
M  V30 87 H -10.391 1.1549 -2.9307 0
M  V30 88 H -9.3039 1.7212 -4.2404 0
M  V30 89 H 10.3348 0.8058 -1.3586 0
M  V30 90 H 9.5934 2.4237 -1.1357 0
M  V30 91 H -9.6317 -1.2361 -3.3645 0
M  V30 92 H -10.5799 -0.4492 -4.6698 0
M  V30 93 H 8.0338 -0.2391 -1.2498 0
M  V30 94 H 7.2972 1.3758 -1.012 0
M  V30 95 H -8.4285 0.0873 -5.8995 0
M  V30 96 H -7.5106 -0.8163 -4.6366 0
M  V30 97 H 8.998 0.5755 -3.4737 0
M  V30 98 H 7.2159 0.3991 -3.3751 0
M  V30 99 H -9.7041 -1.9853 -6.4607 0
M  V30 100 H -8.8073 -2.8892 -5.1718 0
M  V30 101 H -7.9239 -2.2438 -6.6049 0
M  V30 102 H 7.0068 2.8924 -2.9334 0
M  V30 103 H 8.7856 3.056 -3.1774 0
M  V30 104 H 7.5512 3.6167 -5.2451 0
M  V30 105 H 6.7757 1.9902 -5.2577 0
M  V30 106 H 8.5662 2.1474 -5.4933 0
M  V30 END ATOM
M  V30 BEGIN BOND
M  V30 1 2 1 2
M  V30 2 1 2 3
M  V30 3 1 2 4
M  V30 4 1 3 5
M  V30 5 1 4 6
M  V30 6 1 5 7
M  V30 7 1 6 8
M  V30 8 1 7 9
M  V30 9 1 8 10
M  V30 10 1 9 11
M  V30 11 1 10 12
M  V30 12 1 11 13
M  V30 13 1 12 14
M  V30 14 1 13 15
M  V30 15 1 14 16
M  V30 16 1 15 17
M  V30 17 2 16 18
M  V30 18 1 17 19
M  V30 19 1 18 20
M  V30 20 1 19 21
M  V30 21 1 20 22
M  V30 22 2 21 23
M  V30 23 1 22 24
M  V30 24 1 23 25
M  V30 25 1 24 26
M  V30 26 1 25 27
M  V30 27 1 26 28
M  V30 28 1 27 29
M  V30 29 1 28 30
M  V30 30 1 29 31
M  V30 31 1 30 32
M  V30 32 1 31 33
M  V30 33 1 32 34
M  V30 34 1 33 35
M  V30 35 1 34 36
M  V30 36 1 35 37
M  V30 37 1 37 38
M  V30 38 1 4 39
M  V30 39 1 4 40
M  V30 40 1 5 41
M  V30 41 1 5 42
M  V30 42 1 6 43
M  V30 43 1 6 44
M  V30 44 1 7 45
M  V30 45 1 7 46
M  V30 46 1 8 47
M  V30 47 1 8 48
M  V30 48 1 9 49
M  V30 49 1 9 50
M  V30 50 1 10 51
M  V30 51 1 10 52
M  V30 52 1 11 53
M  V30 53 1 11 54
M  V30 54 1 12 55
M  V30 55 1 12 56
M  V30 56 1 13 57
M  V30 57 1 13 58
M  V30 58 1 14 59
M  V30 59 1 14 60
M  V30 60 1 15 61
M  V30 61 1 15 62
M  V30 62 1 16 63
M  V30 63 1 17 64
M  V30 64 1 17 65
M  V30 65 1 18 66
M  V30 66 1 19 67
M  V30 67 1 19 68
M  V30 68 1 20 69
M  V30 69 1 20 70
M  V30 70 1 21 71
M  V30 71 1 22 72
M  V30 72 1 22 73
M  V30 73 1 23 74
M  V30 74 1 24 75
M  V30 75 1 24 76
M  V30 76 1 25 77
M  V30 77 1 25 78
M  V30 78 1 26 79
M  V30 79 1 26 80
M  V30 80 1 27 81
M  V30 81 1 27 82
M  V30 82 1 28 83
M  V30 83 1 28 84
M  V30 84 1 29 85
M  V30 85 1 29 86
M  V30 86 1 30 87
M  V30 87 1 30 88
M  V30 88 1 31 89
M  V30 89 1 31 90
M  V30 90 1 32 91
M  V30 91 1 32 92
M  V30 92 1 33 93
M  V30 93 1 33 94
M  V30 94 1 34 95
M  V30 95 1 34 96
M  V30 96 1 35 97
M  V30 97 1 35 98
M  V30 98 1 36 99
M  V30 99 1 36 100
M  V30 100 1 36 101
M  V30 101 1 37 102
M  V30 102 1 37 103
M  V30 103 1 38 104
M  V30 104 1 38 105
M  V30 105 1 38 106
M  V30 END BOND
M  V30 END CTAB
M  END
>  <Structure No>
1427

>  <LogS>
-7.027706683

>  <MMFF94 Energy>
2.1669

$$$$
Compound 1428
Actelion Java MolfileCreator 2.0

  0  0  0  0  0  0              0 V3000
M  V30 BEGIN CTAB
M  V30 COUNTS 50 49 0 0 0
M  V30 BEGIN ATOM
M  V30 1 O 0.8576 1.4037 -2.6528 0
M  V30 2 C 0.908 1.8439 -1.4717 0
M  V30 3 O -0.1638 2.559 -0.9267 0
M  V30 4 C 2.1034 1.5537 -0.6225 0
M  V30 5 C -1.4042 2.7529 -1.6052 0
M  V30 6 C 1.9106 0.2296 0.1275 0
M  V30 7 C -2.2322 1.4626 -1.6268 0
M  V30 8 C 3.0397 -0.0567 1.1295 0
M  V30 9 C -2.6056 1.0027 -0.2078 0
M  V30 10 C 4.3774 -0.3676 0.4421 0
M  V30 11 C -3.288 -0.3736 -0.1935 0
M  V30 12 C 5.4267 -0.8276 1.4649 0
M  V30 13 C -4.6854 -0.3496 -0.8372 0
M  V30 14 C 6.7621 -1.2083 0.8063 0
M  V30 15 C -5.4477 -1.6745 -0.6235 0
M  V30 16 C 7.5523 0.0092 0.3266 0
M  V30 17 C -6.5124 -1.5981 0.4839 0
M  V30 18 C -5.9129 -1.4283 1.8775 0
M  V30 19 H 3.0027 1.5033 -1.2721 0
M  V30 20 H 2.2421 2.3846 0.1029 0
M  V30 21 H -1.976 3.5492 -1.083 0
M  V30 22 H -1.2176 3.1012 -2.6449 0
M  V30 23 H 0.9538 0.2733 0.6934 0
M  V30 24 H 1.8323 -0.608 -0.5992 0
M  V30 25 H -1.6602 0.6632 -2.1453 0
M  V30 26 H -3.1567 1.6581 -2.2106 0
M  V30 27 H 2.7359 -0.9328 1.7423 0
M  V30 28 H 3.1612 0.8088 1.8168 0
M  V30 29 H -1.6825 0.9277 0.4071 0
M  V30 30 H -3.2687 1.7562 0.2714 0
M  V30 31 H 4.2286 -1.1668 -0.3165 0
M  V30 32 H 4.7422 0.5458 -0.0702 0
M  V30 33 H -3.3692 -0.7021 0.8638 0
M  V30 34 H -2.6472 -1.1142 -0.7197 0
M  V30 35 H 5.0392 -1.7244 1.9965 0
M  V30 36 H 5.5929 -0.0316 2.2247 0
M  V30 37 H -5.2747 0.509 -0.4465 0
M  V30 38 H -4.5646 -0.1927 -1.9309 0
M  V30 39 H 6.586 -1.8999 -0.047 0
M  V30 40 H 7.3816 -1.749 1.554 0
M  V30 41 H -4.7476 -2.5152 -0.4207 0
M  V30 42 H -5.9752 -1.9273 -1.5697 0
M  V30 43 H 7.0247 0.5197 -0.5051 0
M  V30 44 H 7.7075 0.7249 1.1622 0
M  V30 45 H 8.5458 -0.3206 -0.0456 0
M  V30 46 H -7.103 -2.5396 0.4699 0
M  V30 47 H -7.2151 -0.7609 0.2782 0
M  V30 48 H -5.1568 -2.2169 2.075 0
M  V30 49 H -6.7175 -1.5122 2.6374 0
M  V30 50 H -5.4469 -0.4265 1.9803 0
M  V30 END ATOM
M  V30 BEGIN BOND
M  V30 1 2 1 2
M  V30 2 1 2 3
M  V30 3 1 2 4
M  V30 4 1 3 5
M  V30 5 1 4 6
M  V30 6 1 5 7
M  V30 7 1 6 8
M  V30 8 1 7 9
M  V30 9 1 8 10
M  V30 10 1 9 11
M  V30 11 1 10 12
M  V30 12 1 11 13
M  V30 13 1 12 14
M  V30 14 1 13 15
M  V30 15 1 14 16
M  V30 16 1 15 17
M  V30 17 1 17 18
M  V30 18 1 4 19
M  V30 19 1 4 20
M  V30 20 1 5 21
M  V30 21 1 5 22
M  V30 22 1 6 23
M  V30 23 1 6 24
M  V30 24 1 7 25
M  V30 25 1 7 26
M  V30 26 1 8 27
M  V30 27 1 8 28
M  V30 28 1 9 29
M  V30 29 1 9 30
M  V30 30 1 10 31
M  V30 31 1 10 32
M  V30 32 1 11 33
M  V30 33 1 11 34
M  V30 34 1 12 35
M  V30 35 1 12 36
M  V30 36 1 13 37
M  V30 37 1 13 38
M  V30 38 1 14 39
M  V30 39 1 14 40
M  V30 40 1 15 41
M  V30 41 1 15 42
M  V30 42 1 16 43
M  V30 43 1 16 44
M  V30 44 1 16 45
M  V30 45 1 17 46
M  V30 46 1 17 47
M  V30 47 1 18 48
M  V30 48 1 18 49
M  V30 49 1 18 50
M  V30 END BOND
M  V30 END CTAB
M  END
>  <Structure No>
1428

>  <LogS>
-6.709998828

>  <MMFF94 Energy>
-14.669

$$$$
Compound 1429
Actelion Java MolfileCreator 2.0

  0  0  0  0  0  0              0 V3000
M  V30 BEGIN CTAB
M  V30 COUNTS 96 95 0 0 0
M  V30 BEGIN ATOM
M  V30 1 O -1.2503 1.8759 -2.3453 0
M  V30 2 C -0.4464 2.7596 -1.9455 0
M  V30 3 O -0.7464 4.12 -2.0791 0
M  V30 4 C 0.8743 2.3577 -1.3766 0
M  V30 5 C -1.9924 4.6162 -2.5668 0
M  V30 6 C 1.9406 2.3244 -2.4785 0
M  V30 7 C -2.8675 5.1195 -1.4132 0
M  V30 8 C 3.3322 1.9593 -1.9236 0
M  V30 9 C -3.2884 4.0239 -0.4204 0
M  V30 10 C 4.2959 3.1583 -1.8025 0
M  V30 11 C -4.286 3.0252 -1.0266 0
M  V30 12 C 3.8477 4.2568 -0.8259 0
M  V30 13 C -4.8522 2.0917 0.0536 0
M  V30 14 C 3.8559 3.8361 0.658 0
M  V30 15 C -5.7943 1.0275 -0.5331 0
M  V30 16 C 5.2283 3.9908 1.3375 0
M  V30 17 C -5.0274 -0.187 -1.0878 0
M  V30 18 C 6.1735 2.8521 1.0657 0
M  V30 19 C -5.9674 -1.2542 -1.6877 0
M  V30 20 C 5.9629 1.6296 1.5721 0
M  V30 21 C -6.2564 -2.4344 -0.7415 0
M  V30 22 C 7.0069 0.5461 1.5075 0
M  V30 23 C -7.0975 -2.033 0.4813 0
M  V30 24 C 7.2651 0.0228 0.084 0
M  V30 25 C -7.6481 -3.2484 1.2433 0
M  V30 26 C 6.0105 -0.471 -0.6582 0
M  V30 27 C -6.5464 -4.0247 1.9829 0
M  V30 28 C 5.1667 -1.512 0.0958 0
M  V30 29 C -7.1133 -5.0985 2.9252 0
M  V30 30 C 5.9252 -2.8218 0.3521 0
M  V30 31 C -7.7396 -6.2724 2.1747 0
M  V30 32 C 5.0126 -3.8514 1.0243 0
M  V30 33 C 5.7625 -5.1578 1.3019 0
M  V30 34 C 4.8587 -6.1733 1.9955 0
M  V30 35 H 0.7845 1.3516 -0.9078 0
M  V30 36 H 1.1514 3.0799 -0.5806 0
M  V30 37 H -1.7795 5.4781 -3.2336 0
M  V30 38 H -2.5287 3.864 -3.1826 0
M  V30 39 H 1.6398 1.5537 -3.2259 0
M  V30 40 H 1.9708 3.2989 -3.0148 0
M  V30 41 H -2.3003 5.8991 -0.8568 0
M  V30 42 H -3.7741 5.6082 -1.8323 0
M  V30 43 H 3.2482 1.4218 -0.9569 0
M  V30 44 H 3.7987 1.2397 -2.6306 0
M  V30 45 H -3.7668 4.526 0.4477 0
M  V30 46 H -2.3958 3.4864 -0.0362 0
M  V30 47 H 4.4152 3.6141 -2.8095 0
M  V30 48 H 5.2984 2.7892 -1.5087 0
M  V30 49 H -3.7775 2.4263 -1.8071 0
M  V30 50 H -5.1253 3.5789 -1.5012 0
M  V30 51 H 4.503 5.1444 -0.9635 0
M  V30 52 H 2.8296 4.5982 -1.1025 0
M  V30 53 H -4.0234 1.602 0.6104 0
M  V30 54 H -5.4267 2.7062 0.7824 0
M  V30 55 H 3.1511 4.5114 1.1892 0
M  V30 56 H 3.4573 2.8125 0.7998 0
M  V30 57 H -6.4804 0.6953 0.2708 0
M  V30 58 H -6.4217 1.4794 -1.334 0
M  V30 59 H 5.7041 4.9445 1.0258 0
M  V30 60 H 5.0758 4.059 2.4373 0
M  V30 61 H -4.391 -0.6317 -0.2904 0
M  V30 62 H -4.3464 0.1617 -1.8945 0
M  V30 63 H 7.0983 3.0626 0.5359 0
M  V30 64 H -5.4739 -1.6759 -2.59 0
M  V30 65 H -6.9206 -0.8021 -2.0372 0
M  V30 66 H 5.0574 1.4318 2.137 0
M  V30 67 H -6.8093 -3.2054 -1.322 0
M  V30 68 H -5.2965 -2.8862 -0.4116 0
M  V30 69 H 7.9595 0.9427 1.9201 0
M  V30 70 H 6.7042 -0.2954 2.1674 0
M  V30 71 H -6.4881 -1.4138 1.1733 0
M  V30 72 H -7.9614 -1.4196 0.1418 0
M  V30 73 H 8.01 -0.7987 0.1359 0
M  V30 74 H 7.7307 0.8321 -0.5191 0
M  V30 75 H -8.1837 -3.9158 0.5355 0
M  V30 76 H -8.3899 -2.8805 1.9846 0
M  V30 77 H 6.3188 -0.8927 -1.6398 0
M  V30 78 H 5.3693 0.4033 -0.871 0
M  V30 79 H -5.9522 -3.3114 2.5955 0
M  V30 80 H -5.8579 -4.4998 1.2518 0
M  V30 81 H 4.7998 -1.0884 1.0548 0
M  V30 82 H 4.2689 -1.7318 -0.5244 0
M  V30 83 H -7.8661 -4.6509 3.6091 0
M  V30 84 H -6.2827 -5.4907 3.5504 0
M  V30 85 H 6.7964 -2.6281 1.0126 0
M  V30 86 H 6.2938 -3.2293 -0.6136 0
M  V30 87 H -7.0115 -6.7068 1.457 0
M  V30 88 H -8.6522 -5.9493 1.6317 0
M  V30 89 H -8.0321 -7.0618 2.8993 0
M  V30 90 H 4.6372 -3.4333 1.9827 0
M  V30 91 H 4.1399 -4.0598 0.3668 0
M  V30 92 H 6.6396 -4.9562 1.9547 0
M  V30 93 H 6.1251 -5.5908 0.3436 0
M  V30 94 H 5.4249 -7.1106 2.177 0
M  V30 95 H 4.5052 -5.7766 2.9718 0
M  V30 96 H 3.9803 -6.4086 1.357 0
M  V30 END ATOM
M  V30 BEGIN BOND
M  V30 1 2 1 2
M  V30 2 1 2 3
M  V30 3 1 2 4
M  V30 4 1 3 5
M  V30 5 1 4 6
M  V30 6 1 5 7
M  V30 7 1 6 8
M  V30 8 1 7 9
M  V30 9 1 8 10
M  V30 10 1 9 11
M  V30 11 1 10 12
M  V30 12 1 11 13
M  V30 13 1 12 14
M  V30 14 1 13 15
M  V30 15 1 14 16
M  V30 16 1 15 17
M  V30 17 1 16 18
M  V30 18 1 17 19
M  V30 19 2 18 20
M  V30 20 1 19 21
M  V30 21 1 20 22
M  V30 22 1 21 23
M  V30 23 1 22 24
M  V30 24 1 23 25
M  V30 25 1 24 26
M  V30 26 1 25 27
M  V30 27 1 26 28
M  V30 28 1 27 29
M  V30 29 1 28 30
M  V30 30 1 29 31
M  V30 31 1 30 32
M  V30 32 1 32 33
M  V30 33 1 33 34
M  V30 34 1 4 35
M  V30 35 1 4 36
M  V30 36 1 5 37
M  V30 37 1 5 38
M  V30 38 1 6 39
M  V30 39 1 6 40
M  V30 40 1 7 41
M  V30 41 1 7 42
M  V30 42 1 8 43
M  V30 43 1 8 44
M  V30 44 1 9 45
M  V30 45 1 9 46
M  V30 46 1 10 47
M  V30 47 1 10 48
M  V30 48 1 11 49
M  V30 49 1 11 50
M  V30 50 1 12 51
M  V30 51 1 12 52
M  V30 52 1 13 53
M  V30 53 1 13 54
M  V30 54 1 14 55
M  V30 55 1 14 56
M  V30 56 1 15 57
M  V30 57 1 15 58
M  V30 58 1 16 59
M  V30 59 1 16 60
M  V30 60 1 17 61
M  V30 61 1 17 62
M  V30 62 1 18 63
M  V30 63 1 19 64
M  V30 64 1 19 65
M  V30 65 1 20 66
M  V30 66 1 21 67
M  V30 67 1 21 68
M  V30 68 1 22 69
M  V30 69 1 22 70
M  V30 70 1 23 71
M  V30 71 1 23 72
M  V30 72 1 24 73
M  V30 73 1 24 74
M  V30 74 1 25 75
M  V30 75 1 25 76
M  V30 76 1 26 77
M  V30 77 1 26 78
M  V30 78 1 27 79
M  V30 79 1 27 80
M  V30 80 1 28 81
M  V30 81 1 28 82
M  V30 82 1 29 83
M  V30 83 1 29 84
M  V30 84 1 30 85
M  V30 85 1 30 86
M  V30 86 1 31 87
M  V30 87 1 31 88
M  V30 88 1 31 89
M  V30 89 1 32 90
M  V30 90 1 32 91
M  V30 91 1 33 92
M  V30 92 1 33 93
M  V30 93 1 34 94
M  V30 94 1 34 95
M  V30 95 1 34 96
M  V30 END BOND
M  V30 END CTAB
M  END
>  <Structure No>
1429

>  <LogS>
-6.98122586

>  <MMFF94 Energy>
-8.3307

$$$$
Compound 1430
Actelion Java MolfileCreator 2.0

  0  0  0  0  0  0              0 V3000
M  V30 BEGIN CTAB
M  V30 COUNTS 98 97 0 0 0
M  V30 BEGIN ATOM
M  V30 1 O 1.3398 0.5515 1.4975 0
M  V30 2 C 0.4249 0.8217 0.6726 0
M  V30 3 O -0.5633 1.7554 1.0014 0
M  V30 4 C 0.3323 0.0776 -0.648 0 CFG=2
M  V30 5 C -0.5672 2.4833 2.2246 0
M  V30 6 O -0.5272 0.7947 -1.551 0
M  V30 7 C -0.3145 -1.3094 -0.4059 0
M  V30 8 C 1.7311 -0.0781 -1.3214 0
M  V30 9 C -1.7411 3.4853 2.2441 0 CFG=2
M  V30 10 C -0.3265 2.1086 -2.0032 0
M  V30 11 C -1.7313 -1.2059 0.0766 0
M  V30 12 C 2.6458 -1.076 -0.6678 0
M  V30 13 C -1.8076 4.3504 0.9583 0
M  V30 14 C -1.7183 4.3703 3.5141 0
M  V30 15 O 0.6277 2.8099 -1.5699 0
M  V30 16 C -1.2957 2.7026 -2.9673 0
M  V30 17 O -1.963 -1.0979 1.3138 0
M  V30 18 O -2.7764 -1.2165 -0.8546 0
M  V30 19 O 2.5639 -2.2952 -0.9828 0
M  V30 20 O 3.5874 -0.6407 0.2733 0
M  V30 21 C -0.5731 5.2448 0.7273 0
M  V30 22 C -2.0822 3.5957 4.7821 0
M  V30 23 C -4.1592 -1.1643 -0.5006 0
M  V30 24 C 4.5616 -1.4919 0.8794 0
M  V30 25 C -0.6405 6.0072 -0.605 0
M  V30 26 C -4.9154 -2.3515 -1.1301 0 CFG=2
M  V30 27 C 5.9532 -1.2833 0.2419 0 CFG=1
M  V30 28 C -1.6841 7.1228 -0.5987 0
M  V30 29 C -6.4295 -2.2531 -0.8119 0
M  V30 30 C -4.2834 -3.7168 -0.7481 0
M  V30 31 C 7.0284 -2.0523 1.0561 0
M  V30 32 C 5.9656 -1.6125 -1.2745 0
M  V30 33 C -7.3034 -3.2469 -1.609 0
M  V30 34 C -4.2958 -4.0336 0.7509 0
M  V30 35 C 8.4771 -1.8843 0.5573 0
M  V30 36 C 5.8243 -3.1004 -1.6076 0
M  V30 37 C -7.7609 -4.4429 -0.7615 0
M  V30 38 C 8.9766 -0.4349 0.6403 0
M  V30 39 C -8.6701 -5.3691 -1.565 0
M  V30 40 C 10.4563 -0.3402 0.2796 0
M  V30 41 H 0.4009 3.0135 2.3501 0
M  V30 42 H -0.6752 1.7627 3.0623 0
M  V30 43 H 0.268 -1.8882 0.3425 0
M  V30 44 H -0.3111 -1.8899 -1.3545 0
M  V30 45 H 1.5872 -0.3858 -2.3808 0
M  V30 46 H 2.2551 0.9003 -1.3444 0
M  V30 47 H -2.682 2.8902 2.2599 0
M  V30 48 H -1.9477 3.6844 0.0806 0
M  V30 49 H -2.7163 4.9855 1.0157 0
M  V30 50 H -2.4537 5.1969 3.4039 0
M  V30 51 H -0.7141 4.8284 3.65 0
M  V30 52 H -2.1056 3.2147 -2.4096 0
M  V30 53 H -0.7806 3.4351 -3.6235 0
M  V30 54 H -1.7388 1.9029 -3.5968 0
M  V30 55 H -0.4606 5.9707 1.5598 0
M  V30 56 H 0.3384 4.6141 0.7007 0
M  V30 57 H -3.0612 3.0853 4.6593 0
M  V30 58 H -2.1584 4.3018 5.6359 0
M  V30 59 H -1.3007 2.8463 5.0271 0
M  V30 60 H -4.576 -0.2112 -0.8913 0
M  V30 61 H -4.3064 -1.1569 0.6011 0
M  V30 62 H 4.6186 -1.2144 1.9534 0
M  V30 63 H 4.2513 -2.5584 0.8473 0
M  V30 64 H 0.354 6.4638 -0.7991 0
M  V30 65 H -0.8541 5.3053 -1.438 0
M  V30 66 H -4.8036 -2.2448 -2.2322 0
M  V30 67 H 6.1713 -0.1969 0.3391 0
M  V30 68 H -1.518 7.8066 0.2593 0
M  V30 69 H -2.7091 6.7028 -0.5458 0
M  V30 70 H -1.6027 7.7089 -1.5368 0
M  V30 71 H -6.6088 -2.3415 0.2802 0
M  V30 72 H -6.7669 -1.2284 -1.0866 0
M  V30 73 H -4.7976 -4.5328 -1.2971 0
M  V30 74 H -3.2279 -3.7406 -1.0972 0
M  V30 75 H 6.7808 -3.1354 1.0643 0
M  V30 76 H 6.9885 -1.7178 2.116 0
M  V30 77 H 5.1507 -1.0558 -1.7817 0
M  V30 78 H 6.9065 -1.2348 -1.7291 0
M  V30 79 H -6.7673 -3.6087 -2.5131 0
M  V30 80 H -8.2091 -2.7079 -1.9644 0
M  V30 81 H -3.6812 -3.3041 1.3169 0
M  V30 82 H -5.3259 -4.037 1.1588 0
M  V30 83 H -3.8613 -5.0414 0.9128 0
M  V30 84 H 8.5763 -2.261 -0.4813 0
M  V30 85 H 9.1274 -2.5224 1.1954 0
M  V30 86 H 5.7519 -3.2214 -2.7087 0
M  V30 87 H 6.708 -3.6705 -1.2595 0
M  V30 88 H 4.9114 -3.5319 -1.1533 0
M  V30 89 H -6.8857 -5.0264 -0.4132 0
M  V30 90 H -8.3168 -4.081 0.1317 0
M  V30 91 H 8.834 -0.0463 1.6711 0
M  V30 92 H 8.406 0.2057 -0.0636 0
M  V30 93 H -9.5724 -4.8191 -1.9082 0
M  V30 94 H -8.9946 -6.2195 -0.9276 0
M  V30 95 H -8.1285 -5.7727 -2.447 0
M  V30 96 H 10.7883 0.7177 0.3473 0
M  V30 97 H 11.0657 -0.9495 0.9803 0
M  V30 98 H 10.6238 -0.6975 -0.7588 0
M  V30 END ATOM
M  V30 BEGIN BOND
M  V30 1 2 1 2
M  V30 2 1 2 3
M  V30 3 1 2 4
M  V30 4 1 3 5
M  V30 5 1 4 6
M  V30 6 1 4 7
M  V30 7 1 4 8
M  V30 8 1 5 9
M  V30 9 1 6 10
M  V30 10 1 7 11
M  V30 11 1 8 12
M  V30 12 1 9 13
M  V30 13 1 9 14
M  V30 14 2 10 15
M  V30 15 1 10 16
M  V30 16 2 11 17
M  V30 17 1 11 18
M  V30 18 2 12 19
M  V30 19 1 12 20
M  V30 20 1 13 21
M  V30 21 1 14 22
M  V30 22 1 18 23
M  V30 23 1 20 24
M  V30 24 1 21 25
M  V30 25 1 23 26
M  V30 26 1 24 27
M  V30 27 1 25 28
M  V30 28 1 26 29
M  V30 29 1 26 30
M  V30 30 1 27 31
M  V30 31 1 27 32
M  V30 32 1 29 33
M  V30 33 1 30 34
M  V30 34 1 31 35
M  V30 35 1 32 36
M  V30 36 1 33 37
M  V30 37 1 35 38
M  V30 38 1 37 39
M  V30 39 1 38 40
M  V30 40 1 5 41
M  V30 41 1 5 42
M  V30 42 1 7 43
M  V30 43 1 7 44
M  V30 44 1 8 45
M  V30 45 1 8 46
M  V30 46 1 9 47
M  V30 47 1 13 48
M  V30 48 1 13 49
M  V30 49 1 14 50
M  V30 50 1 14 51
M  V30 51 1 16 52
M  V30 52 1 16 53
M  V30 53 1 16 54
M  V30 54 1 21 55
M  V30 55 1 21 56
M  V30 56 1 22 57
M  V30 57 1 22 58
M  V30 58 1 22 59
M  V30 59 1 23 60
M  V30 60 1 23 61
M  V30 61 1 24 62
M  V30 62 1 24 63
M  V30 63 1 25 64
M  V30 64 1 25 65
M  V30 65 1 26 66
M  V30 66 1 27 67
M  V30 67 1 28 68
M  V30 68 1 28 69
M  V30 69 1 28 70
M  V30 70 1 29 71
M  V30 71 1 29 72
M  V30 72 1 30 73
M  V30 73 1 30 74
M  V30 74 1 31 75
M  V30 75 1 31 76
M  V30 76 1 32 77
M  V30 77 1 32 78
M  V30 78 1 33 79
M  V30 79 1 33 80
M  V30 80 1 34 81
M  V30 81 1 34 82
M  V30 82 1 34 83
M  V30 83 1 35 84
M  V30 84 1 35 85
M  V30 85 1 36 86
M  V30 86 1 36 87
M  V30 87 1 36 88
M  V30 88 1 37 89
M  V30 89 1 37 90
M  V30 90 1 38 91
M  V30 91 1 38 92
M  V30 92 1 39 93
M  V30 93 1 39 94
M  V30 94 1 39 95
M  V30 95 1 40 96
M  V30 96 1 40 97
M  V30 97 1 40 98
M  V30 END BOND
M  V30 BEGIN COLLECTION
M  V30 MDLV30/STEABS ATOMS=(4 4 9 26 27)
M  V30 END COLLECTION
M  V30 END CTAB
M  END
>  <Structure No>
1430

>  <LogS>
-7.057520047

>  <MMFF94 Energy>
-44.307

$$$$
Compound 1431
Actelion Java MolfileCreator 2.0

  0  0  0  0  0  0              0 V3000
M  V30 BEGIN CTAB
M  V30 COUNTS 63 67 0 0 0
M  V30 BEGIN ATOM
M  V30 1 O -2.4854 0.9615 -0.3204 0
M  V30 2 C -1.155 0.5774 -0.5136 0
M  V30 3 C -0.7643 -0.7653 -0.3264 0
M  V30 4 C -0.194 1.5603 -0.8701 0
M  V30 5 N -1.726 -1.8005 -0.0704 0
M  V30 6 C 0.5852 -1.1121 -0.4205 0
M  V30 7 C 1.1565 1.1597 -1.0012 0
M  V30 8 C -0.6399 3.0238 -1.1274 0
M  V30 9 N -2.8699 -1.9296 -0.7421 0
M  V30 10 N -1.5192 -2.7893 0.7988 0
M  V30 11 C 1.5695 -0.161 -0.7335 0
M  V30 12 C -1.4373 3.5463 0.0825 0
M  V30 13 C 0.5411 4.0075 -1.3236 0
M  V30 14 C -1.4544 3.029 -2.4462 0
M  V30 15 C -3.4287 -3.0464 -0.2537 0
M  V30 16 C -2.6019 -3.5727 0.6891 0
M  V30 17 C 3.0373 -0.6212 -0.8598 0
M  V30 18 C -0.9157 3.3639 1.383 0
M  V30 19 C -2.6456 4.2693 -0.0525 0
M  V30 20 C -4.6351 -3.6457 -0.6015 0
M  V30 21 C -2.9052 -4.747 1.3707 0
M  V30 22 C 3.4146 -1.4728 0.3686 0
M  V30 23 C 3.1529 -1.3959 -2.1944 0
M  V30 24 C 4.0451 0.5533 -0.9137 0
M  V30 25 C -1.5958 3.8461 2.504 0
M  V30 26 C -3.32 4.7488 1.0744 0
M  V30 27 C -4.9817 -4.8362 0.0684 0
M  V30 28 C -4.1206 -5.3844 1.0501 0
M  V30 29 C 3.1581 -0.9641 1.6618 0
M  V30 30 C 4.0595 -2.7276 0.2653 0
M  V30 31 C -2.7989 4.5344 2.3504 0
M  V30 32 C 3.5014 -1.6938 2.8025 0
M  V30 33 C 4.4001 -3.4515 1.4122 0
M  V30 34 C 4.119 -2.9375 2.678 0
M  V30 35 H -3.1834 0.3637 0.1007 0
M  V30 36 H 0.8685 -2.1474 -0.2737 0
M  V30 37 H 1.8943 1.878 -1.3048 0
M  V30 38 H 0.1655 5.0498 -1.4211 0
M  V30 39 H 1.1099 3.777 -2.2503 0
M  V30 40 H 1.2337 3.9804 -0.4546 0
M  V30 41 H -0.8745 2.5383 -3.2581 0
M  V30 42 H -2.4149 2.4841 -2.3368 0
M  V30 43 H -1.6763 4.0652 -2.7814 0
M  V30 44 H 0.0224 2.8436 1.5305 0
M  V30 45 H -3.0825 4.4706 -1.0191 0
M  V30 46 H -5.2811 -3.2161 -1.3561 0
M  V30 47 H -2.2353 -5.155 2.1162 0
M  V30 48 H 2.7824 -0.7716 -3.0368 0
M  V30 49 H 4.2094 -1.6588 -2.4178 0
M  V30 50 H 2.5475 -2.3275 -2.1691 0
M  V30 51 H 3.9466 1.1305 -1.8582 0
M  V30 52 H 3.9011 1.2428 -0.0539 0
M  V30 53 H 5.0882 0.17 -0.8736 0
M  V30 54 H -1.1862 3.6892 3.4934 0
M  V30 55 H -4.2486 5.2928 0.957 0
M  V30 56 H -5.9117 -5.3354 -0.1704 0
M  V30 57 H -4.3967 -6.3 1.5566 0
M  V30 58 H 2.6856 0.0023 1.7874 0
M  V30 59 H 4.3065 -3.1643 -0.6906 0
M  V30 60 H -3.3238 4.9086 3.2199 0
M  V30 61 H 3.2901 -1.2917 3.785 0
M  V30 62 H 4.887 -4.4136 1.3181 0
M  V30 63 H 4.3852 -3.5011 3.5629 0
M  V30 END ATOM
M  V30 BEGIN BOND
M  V30 1 1 1 2
M  V30 2 2 2 3
M  V30 3 1 2 4
M  V30 4 1 3 5
M  V30 5 1 3 6
M  V30 6 2 4 7
M  V30 7 1 4 8
M  V30 8 1 5 9
M  V30 9 1 5 10
M  V30 10 2 6 11
M  V30 11 1 8 12
M  V30 12 1 8 13
M  V30 13 1 8 14
M  V30 14 2 9 15
M  V30 15 2 10 16
M  V30 16 1 11 17
M  V30 17 2 12 18
M  V30 18 1 12 19
M  V30 19 1 15 20
M  V30 20 1 16 21
M  V30 21 1 17 22
M  V30 22 1 17 23
M  V30 23 1 17 24
M  V30 24 1 18 25
M  V30 25 2 19 26
M  V30 26 2 20 27
M  V30 27 2 21 28
M  V30 28 2 22 29
M  V30 29 1 22 30
M  V30 30 2 25 31
M  V30 31 1 29 32
M  V30 32 2 30 33
M  V30 33 2 32 34
M  V30 34 1 7 11
M  V30 35 1 15 16
M  V30 36 1 26 31
M  V30 37 1 27 28
M  V30 38 1 33 34
M  V30 39 1 1 35
M  V30 40 1 6 36
M  V30 41 1 7 37
M  V30 42 1 13 38
M  V30 43 1 13 39
M  V30 44 1 13 40
M  V30 45 1 14 41
M  V30 46 1 14 42
M  V30 47 1 14 43
M  V30 48 1 18 44
M  V30 49 1 19 45
M  V30 50 1 20 46
M  V30 51 1 21 47
M  V30 52 1 23 48
M  V30 53 1 23 49
M  V30 54 1 23 50
M  V30 55 1 24 51
M  V30 56 1 24 52
M  V30 57 1 24 53
M  V30 58 1 25 54
M  V30 59 1 26 55
M  V30 60 1 27 56
M  V30 61 1 28 57
M  V30 62 1 29 58
M  V30 63 1 30 59
M  V30 64 1 31 60
M  V30 65 1 32 61
M  V30 66 1 33 62
M  V30 67 1 34 63
M  V30 END BOND
M  V30 END CTAB
M  END
>  <Structure No>
1431

>  <LogS>
-7.048812621

>  <MMFF94 Energy>
149.41

$$$$
Compound 1432
Actelion Java MolfileCreator 2.0

  0  0  0  0  0  0              0 V3000
M  V30 BEGIN CTAB
M  V30 COUNTS 92 94 0 0 0
M  V30 BEGIN ATOM
M  V30 1 O -4.447 3.3338 -2.6982 0
M  V30 2 C -3.4899 2.5838 -2.0164 0
M  V30 3 C -3.2873 2.7483 -0.6257 0
M  V30 4 C -2.7345 1.6578 -2.739 0
M  V30 5 C -2.282 1.9599 -0.0208 0
M  V30 6 C -4.1359 3.7565 0.1986 0
M  V30 7 C -1.7526 0.8634 -2.1304 0
M  V30 8 C -1.4847 1.0416 -0.7398 0
M  V30 9 C -3.7698 3.7746 1.7059 0
M  V30 10 C -3.916 5.1917 -0.3321 0
M  V30 11 C -5.6343 3.3865 0.1079 0
M  V30 12 C -1.0254 -0.1131 -3.0229 0
M  V30 13 C -0.4546 0.2632 0.1082 0
M  V30 14 C -1.097 -0.9138 0.8535 0
M  V30 15 C 0.891 -0.1622 -0.5386 0
M  V30 16 C -0.7389 -1.2299 2.1895 0
M  V30 17 C -2.0255 -1.7416 0.1917 0
M  V30 18 C 1.8858 0.9597 -0.9886 0 CFG=2
M  V30 19 C -1.3224 -2.3383 2.8129 0
M  V30 20 C 0.228 -0.3894 2.9899 0
M  V30 21 C -2.62 -2.8682 0.8096 0
M  V30 22 C 3.1746 0.9448 -0.1455 0
M  V30 23 C 1.2976 2.3584 -1.257 0
M  V30 24 C -2.2419 -3.1526 2.1462 0
M  V30 25 C -3.6458 -3.7606 0.0562 0
M  V30 26 C 3.4007 1.7135 1.0281 0
M  V30 27 C 4.157 0.0056 -0.5273 0
M  V30 28 O -2.7748 -4.2454 2.8286 0
M  V30 29 C -3.1092 -5.2065 -0.0512 0
M  V30 30 C -3.9296 -3.2776 -1.3905 0
M  V30 31 C -5.0004 -3.7569 0.8017 0
M  V30 32 C 4.6115 1.5667 1.7146 0
M  V30 33 C 2.4214 2.7177 1.5782 0
M  V30 34 C 5.3788 -0.1689 0.1709 0
M  V30 35 C 5.5863 0.6522 1.3189 0
M  V30 36 C 6.4069 -1.2477 -0.2851 0
M  V30 37 O 6.7332 0.6116 2.117 0
M  V30 38 C 7.8188 -0.6174 -0.4903 0
M  V30 39 C 6.0223 -1.9308 -1.6272 0
M  V30 40 C 6.454 -2.3773 0.771 0
M  V30 41 H -4.6056 3.2284 -3.6934 0
M  V30 42 H -2.9281 1.556 -3.8001 0
M  V30 43 H -2.0961 2.042 1.0383 0
M  V30 44 H -3.9389 2.7783 2.169 0
M  V30 45 H -2.7114 4.0805 1.8551 0
M  V30 46 H -4.4014 4.5038 2.2595 0
M  V30 47 H -4.303 5.3269 -1.3607 0
M  V30 48 H -2.8329 5.4399 -0.3311 0
M  V30 49 H -4.4437 5.9328 0.3067 0
M  V30 50 H -5.789 2.3295 0.4148 0
M  V30 51 H -6.0416 3.5159 -0.913 0
M  V30 52 H -6.2423 4.0351 0.7755 0
M  V30 53 H -1.0369 -1.1359 -2.6027 0
M  V30 54 H -1.5102 -0.1988 -4.0188 0
M  V30 55 H 0.0108 0.2327 -3.2051 0
M  V30 56 H -0.14 0.9813 0.8811 0
M  V30 57 H 1.4199 -0.7982 0.2043 0
M  V30 58 H 0.7338 -0.8877 -1.3527 0
M  V30 59 H -2.2921 -1.4801 -0.8112 0
M  V30 60 H 2.2006 0.6548 -2.013 0
M  V30 61 H -1.0604 -2.5789 3.8363 0
M  V30 62 H 0.4585 -0.8494 3.9749 0
M  V30 63 H 1.1905 -0.2773 2.4509 0
M  V30 64 H -0.2122 0.6121 3.1796 0
M  V30 65 H 0.6588 2.3379 -2.1638 0
M  V30 66 H 2.1168 3.0814 -1.4572 0
M  V30 67 H 0.6757 2.7384 -0.4265 0
M  V30 68 H 3.9302 -0.602 -1.3877 0
M  V30 69 H -2.5141 -4.4633 3.7833 0
M  V30 70 H -2.1039 -5.2101 -0.5253 0
M  V30 71 H -3.0301 -5.7027 0.9354 0
M  V30 72 H -3.7867 -5.8341 -0.6699 0
M  V30 73 H -4.6656 -3.9421 -1.8938 0
M  V30 74 H -4.3605 -2.2524 -1.3914 0
M  V30 75 H -3.0029 -3.2925 -2.0045 0
M  V30 76 H -5.358 -2.7144 0.9452 0
M  V30 77 H -5.7705 -4.3116 0.2231 0
M  V30 78 H -4.9402 -4.2437 1.7941 0
M  V30 79 H 4.8089 2.1684 2.5944 0
M  V30 80 H 2.7124 3.0628 2.5937 0
M  V30 81 H 2.3894 3.6157 0.9284 0
M  V30 82 H 1.4205 2.2694 1.6888 0
M  V30 83 H 7.5226 0.0058 1.9802 0
M  V30 84 H 7.7754 0.4928 -0.4913 0
M  V30 85 H 8.2841 -0.9079 -1.4568 0
M  V30 86 H 8.5396 -0.9458 0.2876 0
M  V30 87 H 5.9347 -1.1784 -2.4409 0
M  V30 88 H 6.7989 -2.6667 -1.9304 0
M  V30 89 H 5.0702 -2.4983 -1.5399 0
M  V30 90 H 7.1979 -3.1515 0.4831 0
M  V30 91 H 6.725 -2.0119 1.7789 0
M  V30 92 H 5.4592 -2.8658 0.8578 0
M  V30 END ATOM
M  V30 BEGIN BOND
M  V30 1 1 1 2
M  V30 2 2 2 3
M  V30 3 1 2 4
M  V30 4 1 3 5
M  V30 5 1 3 6
M  V30 6 2 4 7
M  V30 7 2 5 8
M  V30 8 1 6 9
M  V30 9 1 6 10
M  V30 10 1 6 11
M  V30 11 1 7 12
M  V30 12 1 8 13
M  V30 13 1 13 14
M  V30 14 1 13 15
M  V30 15 2 14 16
M  V30 16 1 14 17
M  V30 17 1 15 18
M  V30 18 1 16 19
M  V30 19 1 16 20
M  V30 20 2 17 21
M  V30 21 1 18 22
M  V30 22 1 18 23
M  V30 23 2 19 24
M  V30 24 1 21 25
M  V30 25 2 22 26
M  V30 26 1 22 27
M  V30 27 1 24 28
M  V30 28 1 25 29
M  V30 29 1 25 30
M  V30 30 1 25 31
M  V30 31 1 26 32
M  V30 32 1 26 33
M  V30 33 2 27 34
M  V30 34 2 32 35
M  V30 35 1 34 36
M  V30 36 1 35 37
M  V30 37 1 36 38
M  V30 38 1 36 39
M  V30 39 1 36 40
M  V30 40 1 7 8
M  V30 41 1 21 24
M  V30 42 1 34 35
M  V30 43 1 1 41
M  V30 44 1 4 42
M  V30 45 1 5 43
M  V30 46 1 9 44
M  V30 47 1 9 45
M  V30 48 1 9 46
M  V30 49 1 10 47
M  V30 50 1 10 48
M  V30 51 1 10 49
M  V30 52 1 11 50
M  V30 53 1 11 51
M  V30 54 1 11 52
M  V30 55 1 12 53
M  V30 56 1 12 54
M  V30 57 1 12 55
M  V30 58 1 13 56
M  V30 59 1 15 57
M  V30 60 1 15 58
M  V30 61 1 17 59
M  V30 62 1 18 60
M  V30 63 1 19 61
M  V30 64 1 20 62
M  V30 65 1 20 63
M  V30 66 1 20 64
M  V30 67 1 23 65
M  V30 68 1 23 66
M  V30 69 1 23 67
M  V30 70 1 27 68
M  V30 71 1 28 69
M  V30 72 1 29 70
M  V30 73 1 29 71
M  V30 74 1 29 72
M  V30 75 1 30 73
M  V30 76 1 30 74
M  V30 77 1 30 75
M  V30 78 1 31 76
M  V30 79 1 31 77
M  V30 80 1 31 78
M  V30 81 1 32 79
M  V30 82 1 33 80
M  V30 83 1 33 81
M  V30 84 1 33 82
M  V30 85 1 37 83
M  V30 86 1 38 84
M  V30 87 1 38 85
M  V30 88 1 38 86
M  V30 89 1 39 87
M  V30 90 1 39 88
M  V30 91 1 39 89
M  V30 92 1 40 90
M  V30 93 1 40 91
M  V30 94 1 40 92
M  V30 END BOND
M  V30 BEGIN COLLECTION
M  V30 MDLV30/STEABS ATOMS=(1 18)
M  V30 END COLLECTION
M  V30 END CTAB
M  END
>  <Structure No>
1432

>  <LogS>
-7.134193051

>  <MMFF94 Energy>
124.22

$$$$
Compound 1433
Actelion Java MolfileCreator 2.0

  0  0  0  0  0  0              0 V3000
M  V30 BEGIN CTAB
M  V30 COUNTS 60 61 0 0 0
M  V30 BEGIN ATOM
M  V30 1 O -7.2695 1.674 2.9508 0
M  V30 2 C -6.9851 1.0371 1.8965 0
M  V30 3 N -7.5007 1.4791 0.628 0
M  V30 4 C -6.155 -0.1893 1.9845 0
M  V30 5 C -7.1065 0.7781 -0.5588 0
M  V30 6 C -8.5045 2.5452 0.5571 0
M  V30 7 C -5.7994 -0.6688 3.302 0
M  V30 8 C -5.7839 -0.8639 0.8713 0
M  V30 9 O -7.593 1.0935 -1.6799 0
M  V30 10 C -6.0874 -0.2788 -0.4744 0
M  V30 11 N -5.5178 -1.0508 4.3555 0
M  V30 12 C -5.156 -2.2375 0.9916 0
M  V30 13 N -5.4597 -0.6009 -1.5729 0
M  V30 14 N -4.3224 -1.4219 -1.6495 0
M  V30 15 C -3.0343 -0.9922 -1.1726 0
M  V30 16 C -2.8348 0.3013 -0.6626 0
M  V30 17 C -1.9485 -1.8757 -1.2293 0
M  V30 18 C -1.5699 0.702 -0.2265 0
M  V30 19 C -0.6833 -1.4776 -0.7895 0
M  V30 20 C -0.4753 -0.1765 -0.2988 0
M  V30 21 C 0.8656 0.2765 0.1462 0
M  V30 22 O 0.951 1.2226 0.9772 0
M  V30 23 N 2.0665 -0.3194 -0.3716 0
M  V30 24 C 3.3872 0.1174 0.0885 0
M  V30 25 C 4.5282 -0.6101 -0.6626 0 CFG=2
M  V30 26 C 5.8738 -0.4735 0.0998 0
M  V30 27 C 4.6014 -0.1448 -2.1403 0
M  V30 28 C 6.4489 0.956 0.1262 0
M  V30 29 C 5.6386 -0.9128 -2.9608 0
M  V30 30 C 7.751 1.0505 0.9371 0
M  V30 31 C 7.5117 0.9994 2.4466 0
M  V30 32 H -8.3721 3.274 1.388 0
M  V30 33 H -9.5241 2.102 0.6168 0
M  V30 34 H -8.4062 3.1125 -0.395 0
M  V30 35 H -5.586 -2.8043 1.8446 0
M  V30 36 H -4.0613 -2.1439 1.1441 0
M  V30 37 H -5.3682 -2.8549 0.0956 0
M  V30 38 H -4.3613 -2.2428 -2.2926 0
M  V30 39 H -3.6485 1.0115 -0.6141 0
M  V30 40 H -2.0857 -2.8807 -1.6083 0
M  V30 41 H -1.4442 1.7098 0.1493 0
M  V30 42 H 0.1199 -2.2 -0.8186 0
M  V30 43 H 1.998 -1.0451 -1.1179 0
M  V30 44 H 3.4781 1.2157 -0.0588 0
M  V30 45 H 3.4627 -0.0911 1.1781 0
M  V30 46 H 4.2808 -1.6957 -0.6609 0
M  V30 47 H 6.6229 -1.1575 -0.3509 0
M  V30 48 H 5.719 -0.8308 1.1388 0
M  V30 49 H 4.8128 0.9435 -2.2012 0
M  V30 50 H 3.6141 -0.3024 -2.6238 0
M  V30 51 H 5.7056 1.6705 0.536 0
M  V30 52 H 6.6848 1.2707 -0.9111 0
M  V30 53 H 5.5268 -0.6524 -4.0352 0
M  V30 54 H 5.493 -2.0086 -2.8462 0
M  V30 55 H 6.6675 -0.6393 -2.6483 0
M  V30 56 H 8.4501 0.2376 0.6422 0
M  V30 57 H 8.2438 2.0174 0.6981 0
M  V30 58 H 8.4668 1.1993 2.9769 0
M  V30 59 H 6.7714 1.7719 2.7503 0
M  V30 60 H 7.1488 -0.0022 2.7558 0
M  V30 END ATOM
M  V30 BEGIN BOND
M  V30 1 2 1 2
M  V30 2 1 2 3
M  V30 3 1 2 4
M  V30 4 1 3 5
M  V30 5 1 3 6
M  V30 6 1 4 7
M  V30 7 2 4 8
M  V30 8 2 5 9
M  V30 9 1 5 10
M  V30 10 3 7 11
M  V30 11 1 8 12
M  V30 12 2 10 13
M  V30 13 1 13 14
M  V30 14 1 14 15
M  V30 15 2 15 16
M  V30 16 1 15 17
M  V30 17 1 16 18
M  V30 18 2 17 19
M  V30 19 2 18 20
M  V30 20 1 20 21
M  V30 21 2 21 22
M  V30 22 1 21 23
M  V30 23 1 23 24
M  V30 24 1 24 25
M  V30 25 1 25 26
M  V30 26 1 25 27
M  V30 27 1 26 28
M  V30 28 1 27 29
M  V30 29 1 28 30
M  V30 30 1 30 31
M  V30 31 1 8 10
M  V30 32 1 19 20
M  V30 33 1 6 32
M  V30 34 1 6 33
M  V30 35 1 6 34
M  V30 36 1 12 35
M  V30 37 1 12 36
M  V30 38 1 12 37
M  V30 39 1 14 38
M  V30 40 1 16 39
M  V30 41 1 17 40
M  V30 42 1 18 41
M  V30 43 1 19 42
M  V30 44 1 23 43
M  V30 45 1 24 44
M  V30 46 1 24 45
M  V30 47 1 25 46
M  V30 48 1 26 47
M  V30 49 1 26 48
M  V30 50 1 27 49
M  V30 51 1 27 50
M  V30 52 1 28 51
M  V30 53 1 28 52
M  V30 54 1 29 53
M  V30 55 1 29 54
M  V30 56 1 29 55
M  V30 57 1 30 56
M  V30 58 1 30 57
M  V30 59 1 31 58
M  V30 60 1 31 59
M  V30 61 1 31 60
M  V30 END BOND
M  V30 BEGIN COLLECTION
M  V30 MDLV30/STEABS ATOMS=(1 25)
M  V30 END COLLECTION
M  V30 END CTAB
M  END
>  <Structure No>
1433

>  <LogS>
-7.024810856

>  <MMFF94 Energy>
36.666

$$$$
Compound 1434
Actelion Java MolfileCreator 2.0

  0  0  0  0  0  0              0 V3000
M  V30 BEGIN CTAB
M  V30 COUNTS 32 33 0 0 0
M  V30 BEGIN ATOM
M  V30 1 Cl 6.072 -2.1595 0.8301 0
M  V30 2 C 4.9304 -0.9498 0.2589 0
M  V30 3 C 5.3665 0.1973 -0.4244 0
M  V30 4 C 3.5637 -1.1432 0.4936 0
M  V30 5 Cl 7.0733 0.4782 -0.7399 0
M  V30 6 C 4.4313 1.1387 -0.8672 0
M  V30 7 C 2.6228 -0.1991 0.0541 0
M  V30 8 C 3.0675 0.9439 -0.6319 0
M  V30 9 N 1.2261 -0.4202 0.2998 0
M  V30 10 N 0.2734 0.5662 -0.0079 0
M  V30 11 C -1.012 0.3717 -0.1215 0
M  V30 12 C -1.8829 1.5578 -0.1622 0
M  V30 13 C -1.6644 -0.977 -0.1257 0
M  V30 14 O -1.3935 2.6905 -0.4262 0
M  V30 15 N -3.2763 1.4215 0.1607 0
M  V30 16 C -2.9564 -1.0866 0.2683 0
M  V30 17 C -0.9428 -2.1831 -0.6897 0
M  V30 18 C -3.77 0.1226 0.5358 0
M  V30 19 C -4.133 2.6056 0.2759 0
M  V30 20 C -3.6022 -2.3782 0.377 0
M  V30 21 O -4.9124 0.0059 1.0595 0
M  V30 22 N -4.1187 -3.4102 0.4642 0
M  V30 23 H 3.2331 -2.0304 1.0195 0
M  V30 24 H 4.7606 2.024 -1.3963 0
M  V30 25 H 2.3643 1.6854 -0.9884 0
M  V30 26 H 0.9445 -1.257 0.8571 0
M  V30 27 H -0.6142 -2.8517 0.1331 0
M  V30 28 H -1.6119 -2.7549 -1.3674 0
M  V30 29 H -0.0723 -1.8824 -1.3077 0
M  V30 30 H -4.0484 3.028 1.2991 0
M  V30 31 H -5.1934 2.344 0.074 0
M  V30 32 H -3.8376 3.3779 -0.4654 0
M  V30 END ATOM
M  V30 BEGIN BOND
M  V30 1 1 1 2
M  V30 2 2 2 3
M  V30 3 1 2 4
M  V30 4 1 3 5
M  V30 5 1 3 6
M  V30 6 2 4 7
M  V30 7 2 6 8
M  V30 8 1 7 9
M  V30 9 1 9 10
M  V30 10 2 10 11
M  V30 11 1 11 12
M  V30 12 1 11 13
M  V30 13 2 12 14
M  V30 14 1 12 15
M  V30 15 2 13 16
M  V30 16 1 13 17
M  V30 17 1 15 18
M  V30 18 1 15 19
M  V30 19 1 16 20
M  V30 20 2 18 21
M  V30 21 3 20 22
M  V30 22 1 7 8
M  V30 23 1 16 18
M  V30 24 1 4 23
M  V30 25 1 6 24
M  V30 26 1 8 25
M  V30 27 1 9 26
M  V30 28 1 17 27
M  V30 29 1 17 28
M  V30 30 1 17 29
M  V30 31 1 19 30
M  V30 32 1 19 31
M  V30 33 1 19 32
M  V30 END BOND
M  V30 END CTAB
M  END
>  <Structure No>
1434

>  <LogS>
-6.925783782

>  <MMFF94 Energy>
43.573

$$$$
Compound 1435
Actelion Java MolfileCreator 2.0

  0  0  0  0  0  0              0 V3000
M  V30 BEGIN CTAB
M  V30 COUNTS 126 129 0 0 0
M  V30 BEGIN ATOM
M  V30 1 O -0.8748 -2.6263 0.8748 0
M  V30 2 C -0.9993 -1.525 0.2645 0
M  V30 3 N -0.1298 -1.1934 -0.7421 0
M  V30 4 N -2.0141 -0.6782 0.6119 0
M  V30 5 C -0.2671 0.0081 -1.3828 0
M  V30 6 C 0.9737 -2.1028 -1.1223 0
M  V30 7 C -2.1542 0.5104 -0.0513 0
M  V30 8 C -2.9596 -1.0705 1.6833 0
M  V30 9 O 0.5534 0.3368 -2.2869 0
M  V30 10 N -1.281 0.8614 -1.0459 0
M  V30 11 C 2.2978 -1.5959 -0.5897 0
M  V30 12 O -3.0937 1.2941 0.2617 0
M  V30 13 C -3.8841 -2.1756 1.217 0
M  V30 14 C -1.4053 2.1635 -1.7398 0
M  V30 15 C 2.4484 -1.3483 0.7675 0
M  V30 16 C 3.3703 -1.39 -1.453 0
M  V30 17 C -4.6309 -2.0183 0.0517 0
M  V30 18 C -3.9746 -3.3636 1.9422 0
M  V30 19 C -0.3701 3.1535 -1.2505 0
M  V30 20 C 3.6368 -0.8041 1.2943 0
M  V30 21 C 4.6273 -0.9283 -0.995 0
M  V30 22 C -5.4628 -3.0448 -0.4473 0
M  V30 23 C -4.8255 -4.4139 1.5377 0
M  V30 24 C 0.3916 3.8788 -2.1627 0
M  V30 25 C -0.1909 3.3688 0.1144 0
M  V30 26 C 4.733 -0.5931 0.4021 0
M  V30 27 C 3.7255 -0.414 2.803 0
M  V30 28 C 5.8127 -0.7973 -2.0069 0
M  V30 29 C -5.5801 -4.242 0.3365 0
M  V30 30 C -6.2286 -2.8342 -1.7882 0
M  V30 31 C -4.923 -5.7248 2.3752 0
M  V30 32 C 1.3025 4.873 -1.7455 0
M  V30 33 C 0.7786 4.2674 0.6124 0
M  V30 34 O 5.8959 -0.0556 0.9595 0
M  V30 35 C 4.8053 -1.2661 3.5135 0
M  V30 36 C 4.0658 1.0903 2.9399 0
M  V30 37 C 2.3933 -0.6432 3.5724 0
M  V30 38 C 7.0365 -1.6284 -1.5388 0
M  V30 39 C 6.1745 0.6949 -2.2285 0
M  V30 40 C 5.4772 -1.3593 -3.421 0
M  V30 41 O -6.4397 -5.2783 -0.0362 0
M  V30 42 C -6.0095 -4.0467 -2.7487 0
M  V30 43 C -5.7657 -1.5686 -2.5662 0
M  V30 44 C -7.7316 -2.6209 -1.4813 0
M  V30 45 C -4.452 -6.9304 1.5245 0
M  V30 46 C -6.3725 -5.9536 2.8639 0
M  V30 47 C -4.029 -5.7081 3.6459 0
M  V30 48 C 1.4629 5.0884 -0.3443 0
M  V30 49 C 2.0963 5.7163 -2.7895 0
M  V30 50 C 1.0406 4.3442 2.1493 0
M  V30 51 O 2.2888 6.1397 0.0539 0
M  V30 52 C 3.6197 5.5476 -2.5642 0
M  V30 53 C 1.8166 5.2919 -4.2573 0
M  V30 54 C 1.7066 7.2123 -2.6859 0
M  V30 55 C 2.5633 4.4632 2.4734 0
M  V30 56 C 0.2642 5.5433 2.7373 0
M  V30 57 C 0.5389 3.0709 2.8948 0
M  V30 58 H 0.8071 -3.1361 -0.7438 0
M  V30 59 H 0.9885 -2.2039 -2.2318 0
M  V30 60 H -2.3823 -1.3787 2.5846 0
M  V30 61 H -3.5796 -0.2187 2.023 0
M  V30 62 H -2.4114 2.6127 -1.6031 0
M  V30 63 H -1.316 1.9976 -2.8375 0
M  V30 64 H 1.5962 -1.5608 1.3893 0
M  V30 65 H 3.1878 -1.5976 -2.4938 0
M  V30 66 H -4.5315 -1.0697 -0.4551 0
M  V30 67 H -3.3702 -3.4356 2.8343 0
M  V30 68 H 0.2198 3.6745 -3.2066 0
M  V30 69 H -0.8231 2.8094 0.7806 0
M  V30 70 H 6.7192 0.2608 0.4756 0
M  V30 71 H 4.5705 -2.3528 3.407 0
M  V30 72 H 4.8451 -1.0186 4.5955 0
M  V30 73 H 5.8217 -1.0951 3.1015 0
M  V30 74 H 3.4636 1.6865 2.2226 0
M  V30 75 H 5.1397 1.3032 2.7513 0
M  V30 76 H 3.8585 1.4662 3.9639 0
M  V30 77 H 2.1147 -1.7222 3.5832 0
M  V30 78 H 1.5668 -0.0574 3.1184 0
M  V30 79 H 2.4881 -0.3201 4.6314 0
M  V30 80 H 7.9043 -1.4603 -2.2177 0
M  V30 81 H 6.7826 -2.7117 -1.5689 0
M  V30 82 H 7.3799 -1.4334 -0.5133 0
M  V30 83 H 6.4441 1.2447 -1.3141 0
M  V30 84 H 5.2971 1.2314 -2.6661 0
M  V30 85 H 7.0296 0.7902 -2.9358 0
M  V30 86 H 6.3632 -1.3123 -4.0924 0
M  V30 87 H 5.1619 -2.4269 -3.3641 0
M  V30 88 H 4.6795 -0.761 -3.9196 0
M  V30 89 H -7.0699 -5.2849 -0.8203 0
M  V30 90 H -5.6021 -3.7423 -3.7391 0
M  V30 91 H -5.2736 -4.7814 -2.3516 0
M  V30 92 H -6.9598 -4.5874 -2.9627 0
M  V30 93 H -6.2791 -1.5009 -3.5494 0
M  V30 94 H -6.0152 -0.6305 -2.0182 0
M  V30 95 H -4.6713 -1.6031 -2.7616 0
M  V30 96 H -8.1817 -3.4412 -0.8902 0
M  V30 97 H -8.3123 -2.5243 -2.428 0
M  V30 98 H -7.8793 -1.692 -0.8974 0
M  V30 99 H -3.4302 -6.7537 1.1261 0
M  V30 100 H -4.4284 -7.8575 2.1372 0
M  V30 101 H -5.1261 -7.1407 0.6706 0
M  V30 102 H -6.4134 -6.8098 3.5774 0
M  V30 103 H -7.0704 -6.203 2.0448 0
M  V30 104 H -6.7459 -5.046 3.3881 0
M  V30 105 H -2.9505 -5.6037 3.377 0
M  V30 106 H -4.3284 -4.8817 4.3256 0
M  V30 107 H -4.1276 -6.6615 4.2113 0
M  V30 108 H 2.2907 6.5757 0.9698 0
M  V30 109 H 3.9667 6.0266 -1.6295 0
M  V30 110 H 4.195 6.0192 -3.3888 0
M  V30 111 H 3.8883 4.4684 -2.5234 0
M  V30 112 H 0.7421 5.4443 -4.5166 0
M  V30 113 H 2.0939 4.2271 -4.4324 0
M  V30 114 H 2.4122 5.9084 -4.968 0
M  V30 115 H 2.2089 7.7974 -3.488 0
M  V30 116 H 2.0069 7.6726 -1.7232 0
M  V30 117 H 0.6034 7.3374 -2.8005 0
M  V30 118 H 2.8565 3.8729 3.3719 0
M  V30 119 H 3.1861 4.0901 1.6356 0
M  V30 120 H 2.8669 5.5054 2.7182 0
M  V30 121 H 0.5234 6.4996 2.2316 0
M  V30 122 H 0.4733 5.6452 3.8214 0
M  V30 123 H -0.8335 5.3886 2.6154 0
M  V30 124 H 0.9455 2.1549 2.4192 0
M  V30 125 H 0.8461 3.072 3.9611 0
M  V30 126 H -0.5718 3.0147 2.9173 0
M  V30 END ATOM
M  V30 BEGIN BOND
M  V30 1 2 1 2
M  V30 2 1 2 3
M  V30 3 1 2 4
M  V30 4 1 3 5
M  V30 5 1 3 6
M  V30 6 1 4 7
M  V30 7 1 4 8
M  V30 8 2 5 9
M  V30 9 1 5 10
M  V30 10 1 6 11
M  V30 11 2 7 12
M  V30 12 1 8 13
M  V30 13 1 10 14
M  V30 14 2 11 15
M  V30 15 1 11 16
M  V30 16 2 13 17
M  V30 17 1 13 18
M  V30 18 1 14 19
M  V30 19 1 15 20
M  V30 20 2 16 21
M  V30 21 1 17 22
M  V30 22 2 18 23
M  V30 23 2 19 24
M  V30 24 1 19 25
M  V30 25 2 20 26
M  V30 26 1 20 27
M  V30 27 1 21 28
M  V30 28 2 22 29
M  V30 29 1 22 30
M  V30 30 1 23 31
M  V30 31 1 24 32
M  V30 32 2 25 33
M  V30 33 1 26 34
M  V30 34 1 27 35
M  V30 35 1 27 36
M  V30 36 1 27 37
M  V30 37 1 28 38
M  V30 38 1 28 39
M  V30 39 1 28 40
M  V30 40 1 29 41
M  V30 41 1 30 42
M  V30 42 1 30 43
M  V30 43 1 30 44
M  V30 44 1 31 45
M  V30 45 1 31 46
M  V30 46 1 31 47
M  V30 47 2 32 48
M  V30 48 1 32 49
M  V30 49 1 33 50
M  V30 50 1 48 51
M  V30 51 1 49 52
M  V30 52 1 49 53
M  V30 53 1 49 54
M  V30 54 1 50 55
M  V30 55 1 50 56
M  V30 56 1 50 57
M  V30 57 1 7 10
M  V30 58 1 21 26
M  V30 59 1 23 29
M  V30 60 1 33 48
M  V30 61 1 6 58
M  V30 62 1 6 59
M  V30 63 1 8 60
M  V30 64 1 8 61
M  V30 65 1 14 62
M  V30 66 1 14 63
M  V30 67 1 15 64
M  V30 68 1 16 65
M  V30 69 1 17 66
M  V30 70 1 18 67
M  V30 71 1 24 68
M  V30 72 1 25 69
M  V30 73 1 34 70
M  V30 74 1 35 71
M  V30 75 1 35 72
M  V30 76 1 35 73
M  V30 77 1 36 74
M  V30 78 1 36 75
M  V30 79 1 36 76
M  V30 80 1 37 77
M  V30 81 1 37 78
M  V30 82 1 37 79
M  V30 83 1 38 80
M  V30 84 1 38 81
M  V30 85 1 38 82
M  V30 86 1 39 83
M  V30 87 1 39 84
M  V30 88 1 39 85
M  V30 89 1 40 86
M  V30 90 1 40 87
M  V30 91 1 40 88
M  V30 92 1 41 89
M  V30 93 1 42 90
M  V30 94 1 42 91
M  V30 95 1 42 92
M  V30 96 1 43 93
M  V30 97 1 43 94
M  V30 98 1 43 95
M  V30 99 1 44 96
M  V30 100 1 44 97
M  V30 101 1 44 98
M  V30 102 1 45 99
M  V30 103 1 45 100
M  V30 104 1 45 101
M  V30 105 1 46 102
M  V30 106 1 46 103
M  V30 107 1 46 104
M  V30 108 1 47 105
M  V30 109 1 47 106
M  V30 110 1 47 107
M  V30 111 1 51 108
M  V30 112 1 52 109
M  V30 113 1 52 110
M  V30 114 1 52 111
M  V30 115 1 53 112
M  V30 116 1 53 113
M  V30 117 1 53 114
M  V30 118 1 54 115
M  V30 119 1 54 116
M  V30 120 1 54 117
M  V30 121 1 55 118
M  V30 122 1 55 119
M  V30 123 1 55 120
M  V30 124 1 56 121
M  V30 125 1 56 122
M  V30 126 1 56 123
M  V30 127 1 57 124
M  V30 128 1 57 125
M  V30 129 1 57 126
M  V30 END BOND
M  V30 END CTAB
M  END
>  <Structure No>
1435

>  <LogS>
-7.292308693

>  <MMFF94 Energy>
-49.833

$$$$
Compound 1436
Actelion Java MolfileCreator 2.0

  0  0  0  0  0  0              0 V3000
M  V30 BEGIN CTAB
M  V30 COUNTS 59 62 0 0 0
M  V30 BEGIN ATOM
M  V30 1 O -6.703 -0.0805 -2.8224 0
M  V30 2 C -6.3554 -0.3313 -1.636 0
M  V30 3 C -5.1351 0.3162 -1.0946 0
M  V30 4 C -7.1873 -1.2523 -0.8222 0
M  V30 5 C -3.9874 0.4803 -1.8961 0
M  V30 6 C -5.1266 0.8112 0.2207 0
M  V30 7 C -6.6174 -2.0286 0.2051 0
M  V30 8 C -8.5609 -1.3883 -1.0955 0
M  V30 9 O -3.9688 -0.0034 -3.2046 0
M  V30 10 C -2.8528 1.12 -1.3742 0
M  V30 11 C -3.9929 1.4443 0.7342 0
M  V30 12 C -7.411 -2.9018 0.9555 0
M  V30 13 C -9.3503 -2.2624 -0.3413 0
M  V30 14 C -2.85 1.6048 -0.0533 0
M  V30 15 C -8.7764 -3.0165 0.6846 0
M  V30 16 O -1.7394 2.2499 0.5101 0
M  V30 17 C -0.506 2.4761 -0.1697 0
M  V30 18 C 0.4837 3.2052 0.7508 0 CFG=1
M  V30 19 O -0.06 4.4328 1.1612 0
M  V30 20 C 0.8238 2.3703 1.9963 0
M  V30 21 O 1.379 1.1027 1.6404 0
M  V30 22 C 2.6745 0.8869 1.1428 0
M  V30 23 C 3.0015 -0.3969 0.6937 0
M  V30 24 C 3.6476 1.9018 1.0822 0
M  V30 25 C 4.2734 -0.6746 0.1827 0
M  V30 26 C 4.9207 1.6282 0.5758 0
M  V30 27 O 4.5444 -1.9519 -0.2972 0 CHG=-1
M  V30 28 C 5.2528 0.3372 0.137 0
M  V30 29 C 6.6095 0.079 -0.3984 0
M  V30 30 O 7.1141 0.9174 -1.1942 0
M  V30 31 C 7.399 -1.1163 -0.0117 0
M  V30 32 C 7.2028 -1.7424 1.2342 0
M  V30 33 C 8.3879 -1.6183 -0.8773 0
M  V30 34 C 7.9651 -2.8584 1.5931 0
M  V30 35 C 9.1474 -2.7347 -0.5133 0
M  V30 36 C 8.9347 -3.3555 0.7195 0
M  V30 37 H -6.0045 0.7205 0.8486 0
M  V30 38 H -5.5578 -1.9728 0.4188 0
M  V30 39 H -9.0262 -0.8099 -1.8842 0
M  V30 40 H -3.1533 0.0971 -3.7979 0
M  V30 41 H -1.9809 1.2324 -2.0038 0
M  V30 42 H -4.0048 1.8188 1.7501 0
M  V30 43 H -6.9656 -3.4939 1.7446 0
M  V30 44 H -10.4078 -2.3549 -0.553 0
M  V30 45 H -9.3891 -3.6927 1.267 0
M  V30 46 H -0.6887 3.1011 -1.071 0
M  V30 47 H -0.0714 1.5065 -0.4964 0
M  V30 48 H 1.4216 3.3895 0.1796 0
M  V30 49 H -0.0093 5.0454 0.3814 0
M  V30 50 H -0.1032 2.1919 2.5817 0
M  V30 51 H 1.5188 2.924 2.6629 0
M  V30 52 H 2.2559 -1.1817 0.7286 0
M  V30 53 H 3.4369 2.9041 1.4263 0
M  V30 54 H 5.6554 2.4238 0.5412 0
M  V30 55 H 6.4701 -1.3632 1.9352 0
M  V30 56 H 8.5666 -1.153 -1.839 0
M  V30 57 H 7.8065 -3.3354 2.5519 0
M  V30 58 H 9.9016 -3.1185 -1.1881 0
M  V30 59 H 9.5237 -4.2192 0.9996 0
M  V30 END ATOM
M  V30 BEGIN BOND
M  V30 1 2 1 2
M  V30 2 1 2 3
M  V30 3 1 2 4
M  V30 4 2 3 5
M  V30 5 1 3 6
M  V30 6 2 4 7
M  V30 7 1 4 8
M  V30 8 1 5 9
M  V30 9 1 5 10
M  V30 10 2 6 11
M  V30 11 1 7 12
M  V30 12 2 8 13
M  V30 13 2 10 14
M  V30 14 2 12 15
M  V30 15 1 14 16
M  V30 16 1 16 17
M  V30 17 1 17 18
M  V30 18 1 18 19
M  V30 19 1 18 20
M  V30 20 1 20 21
M  V30 21 1 21 22
M  V30 22 2 22 23
M  V30 23 1 22 24
M  V30 24 1 23 25
M  V30 25 2 24 26
M  V30 26 1 25 27
M  V30 27 2 25 28
M  V30 28 1 28 29
M  V30 29 2 29 30
M  V30 30 1 29 31
M  V30 31 2 31 32
M  V30 32 1 31 33
M  V30 33 1 32 34
M  V30 34 2 33 35
M  V30 35 2 34 36
M  V30 36 1 11 14
M  V30 37 1 13 15
M  V30 38 1 26 28
M  V30 39 1 35 36
M  V30 40 1 6 37
M  V30 41 1 7 38
M  V30 42 1 8 39
M  V30 43 1 9 40
M  V30 44 1 10 41
M  V30 45 1 11 42
M  V30 46 1 12 43
M  V30 47 1 13 44
M  V30 48 1 15 45
M  V30 49 1 17 46
M  V30 50 1 17 47
M  V30 51 1 18 48
M  V30 52 1 19 49
M  V30 53 1 20 50
M  V30 54 1 20 51
M  V30 55 1 23 52
M  V30 56 1 24 53
M  V30 57 1 26 54
M  V30 58 1 32 55
M  V30 59 1 33 56
M  V30 60 1 34 57
M  V30 61 1 35 58
M  V30 62 1 36 59
M  V30 END BOND
M  V30 BEGIN COLLECTION
M  V30 MDLV30/STEABS ATOMS=(1 18)
M  V30 END COLLECTION
M  V30 END CTAB
M  END
>  <Structure No>
1436

>  <LogS>
-7.138754703

>  <MMFF94 Energy>
180.77

$$$$
Compound 1437
Actelion Java MolfileCreator 2.0

  0  0  0  0  0  0              0 V3000
M  V30 BEGIN CTAB
M  V30 COUNTS 83 82 0 0 0
M  V30 BEGIN ATOM
M  V30 1 N 0.1554 0.1554 -1.0109 0 CHG=1
M  V30 2 C 1.3978 0.3102 -0.2301 0
M  V30 3 C -0.9868 -0.2419 -0.1645 0
M  V30 4 C 2.1461 -1.0269 -0.0815 0
M  V30 5 C -2.1227 -0.8787 -0.9855 0
M  V30 6 C 3.4583 -0.8586 0.6949 0
M  V30 7 C -2.7704 0.108 -1.9743 0
M  V30 8 C 4.2333 -2.1858 0.7375 0
M  V30 9 C -3.7967 -0.5693 -2.9027 0
M  V30 10 C 5.4899 -2.1276 1.6247 0
M  V30 11 C -5.0919 -1.0247 -2.2057 0
M  V30 12 C 6.5568 -1.116 1.17 0
M  V30 13 C -6.002 0.149 -1.8165 0
M  V30 14 C 7.0289 -1.3452 -0.277 0
M  V30 15 C -7.3194 -0.3533 -1.2125 0
M  V30 16 C 8.3641 -0.6492 -0.5814 0
M  V30 17 C -8.2742 0.8154 -0.9214 0
M  V30 18 C 8.2692 0.8864 -0.4997 0
M  V30 19 C -9.6068 0.3495 -0.3125 0
M  V30 20 C 9.598 1.5755 -0.8754 0
M  V30 21 C -9.4648 -0.0541 1.1657 0
M  V30 22 C 10.4264 2.0249 0.3422 0
M  V30 23 C -10.8251 -0.3747 1.8211 0
M  V30 24 C 10.9823 0.8468 1.1551 0
M  V30 25 C -11.388 0.7765 2.6733 0
M  V30 26 C 11.9773 1.3224 2.2102 0
M  V30 27 C -11.825 1.9812 1.8434 0
M  V30 28 H 0.3044 -0.534 -1.7839 0
M  V30 29 H -0.0654 1.08 -1.448 0
M  V30 30 H 1.1835 0.7408 0.7749 0
M  V30 31 H 2.0651 1.0285 -0.7574 0
M  V30 32 H -1.3775 0.6451 0.3856 0
M  V30 33 H -0.67 -0.9879 0.6003 0
M  V30 34 H 2.3732 -1.4276 -1.0932 0
M  V30 35 H 1.5036 -1.7608 0.4481 0
M  V30 36 H -1.7278 -1.7612 -1.5334 0
M  V30 37 H -2.889 -1.2412 -0.2687 0
M  V30 38 H 4.0784 -0.0832 0.1962 0
M  V30 39 H 3.2318 -0.5227 1.7312 0
M  V30 40 H -1.9807 0.5347 -2.6285 0
M  V30 41 H -3.2336 0.9562 -1.4263 0
M  V30 42 H 4.5095 -2.4958 -0.2941 0
M  V30 43 H 3.5684 -2.9773 1.148 0
M  V30 44 H -4.0555 0.136 -3.7215 0
M  V30 45 H -3.3196 -1.4513 -3.3822 0
M  V30 46 H 5.1869 -1.8819 2.6658 0
M  V30 47 H 5.95 -3.1402 1.65 0
M  V30 48 H -5.6439 -1.6768 -2.917 0
M  V30 49 H -4.8601 -1.6419 -1.3136 0
M  V30 50 H 6.1597 -0.0849 1.2833 0
M  V30 51 H 7.4261 -1.2133 1.8585 0
M  V30 52 H -5.4906 0.7902 -1.0686 0
M  V30 53 H -6.2179 0.7599 -2.7204 0
M  V30 54 H 6.255 -0.9835 -0.9885 0
M  V30 55 H 7.1685 -2.4342 -0.4526 0
M  V30 56 H -7.8116 -1.0535 -1.9231 0
M  V30 57 H -7.093 -0.9023 -0.274 0
M  V30 58 H 8.6711 -0.9322 -1.6124 0
M  V30 59 H 9.1408 -1.0343 0.1112 0
M  V30 60 H -8.4981 1.3364 -1.8786 0
M  V30 61 H -7.785 1.5522 -0.2458 0
M  V30 62 H 7.9515 1.2041 0.5167 0
M  V30 63 H 7.4827 1.2236 -1.2108 0
M  V30 64 H -10.3328 1.1836 -0.4004 0
M  V30 65 H -10.0146 -0.5028 -0.9003 0
M  V30 66 H 10.2164 0.9303 -1.5377 0
M  V30 67 H 9.356 2.489 -1.4636 0
M  V30 68 H -8.8374 -0.9684 1.2199 0
M  V30 69 H -8.9341 0.7416 1.735 0
M  V30 70 H 9.8082 2.6765 1.0004 0
M  V30 71 H 11.2751 2.6402 -0.0323 0
M  V30 72 H -11.5731 -0.691 1.0602 0
M  V30 73 H -10.6833 -1.2445 2.5014 0
M  V30 74 H 10.1505 0.324 1.676 0
M  V30 75 H 11.4934 0.1267 0.4774 0
M  V30 76 H -10.6342 1.1003 3.426 0
M  V30 77 H -12.2738 0.3963 3.2313 0
M  V30 78 H 11.4762 1.9997 2.9365 0
M  V30 79 H 12.8252 1.8561 1.7301 0
M  V30 80 H 12.3798 0.4468 2.762 0
M  V30 81 H -12.4861 1.6613 1.0108 0
M  V30 82 H -10.9405 2.5205 1.4416 0
M  V30 83 H -12.3946 2.6868 2.4868 0
M  V30 END ATOM
M  V30 BEGIN BOND
M  V30 1 1 1 2
M  V30 2 1 1 3
M  V30 3 1 2 4
M  V30 4 1 3 5
M  V30 5 1 4 6
M  V30 6 1 5 7
M  V30 7 1 6 8
M  V30 8 1 7 9
M  V30 9 1 8 10
M  V30 10 1 9 11
M  V30 11 1 10 12
M  V30 12 1 11 13
M  V30 13 1 12 14
M  V30 14 1 13 15
M  V30 15 1 14 16
M  V30 16 1 15 17
M  V30 17 1 16 18
M  V30 18 1 17 19
M  V30 19 1 18 20
M  V30 20 1 19 21
M  V30 21 1 20 22
M  V30 22 1 21 23
M  V30 23 1 22 24
M  V30 24 1 23 25
M  V30 25 1 24 26
M  V30 26 1 25 27
M  V30 27 1 1 28
M  V30 28 1 1 29
M  V30 29 1 2 30
M  V30 30 1 2 31
M  V30 31 1 3 32
M  V30 32 1 3 33
M  V30 33 1 4 34
M  V30 34 1 4 35
M  V30 35 1 5 36
M  V30 36 1 5 37
M  V30 37 1 6 38
M  V30 38 1 6 39
M  V30 39 1 7 40
M  V30 40 1 7 41
M  V30 41 1 8 42
M  V30 42 1 8 43
M  V30 43 1 9 44
M  V30 44 1 9 45
M  V30 45 1 10 46
M  V30 46 1 10 47
M  V30 47 1 11 48
M  V30 48 1 11 49
M  V30 49 1 12 50
M  V30 50 1 12 51
M  V30 51 1 13 52
M  V30 52 1 13 53
M  V30 53 1 14 54
M  V30 54 1 14 55
M  V30 55 1 15 56
M  V30 56 1 15 57
M  V30 57 1 16 58
M  V30 58 1 16 59
M  V30 59 1 17 60
M  V30 60 1 17 61
M  V30 61 1 18 62
M  V30 62 1 18 63
M  V30 63 1 19 64
M  V30 64 1 19 65
M  V30 65 1 20 66
M  V30 66 1 20 67
M  V30 67 1 21 68
M  V30 68 1 21 69
M  V30 69 1 22 70
M  V30 70 1 22 71
M  V30 71 1 23 72
M  V30 72 1 23 73
M  V30 73 1 24 74
M  V30 74 1 24 75
M  V30 75 1 25 76
M  V30 76 1 25 77
M  V30 77 1 26 78
M  V30 78 1 26 79
M  V30 79 1 26 80
M  V30 80 1 27 81
M  V30 81 1 27 82
M  V30 82 1 27 83
M  V30 END BOND
M  V30 END CTAB
M  END
>  <Structure No>
1437

>  <LogS>
-7.405668446

>  <MMFF94 Energy>
-3.8374

$$$$
Compound 1438
Actelion Java MolfileCreator 2.0

  0  0  0  0  0  0              0 V3000
M  V30 BEGIN CTAB
M  V30 COUNTS 48 49 0 0 0
M  V30 BEGIN ATOM
M  V30 1 N -1.1787 1.2573 1.7291 0 CHG=1 CFG=2
M  V30 2 C -1.4206 1.5456 0.2879 0
M  V30 3 C -0.4074 0.0133 1.9678 0
M  V30 4 C -2.431 1.2346 2.5076 0
M  V30 5 C -2.2654 0.4989 -0.4351 0
M  V30 6 C 0.9869 0.1003 1.4052 0
M  V30 7 C -3.6859 0.5716 -0.558 0
M  V30 8 C -1.5915 -0.596 -1.0093 0
M  V30 9 C 1.6027 -0.9709 0.9012 0
M  V30 10 C -4.384 -0.5052 -1.1794 0
M  V30 11 C -4.4389 1.68 -0.1041 0
M  V30 12 C -2.2898 -1.6373 -1.6175 0
M  V30 13 C 2.9463 -0.8725 0.3995 0
M  V30 14 C -3.6781 -1.603 -1.6892 0
M  V30 15 C -5.7832 -0.4686 -1.2952 0
M  V30 16 C -5.8297 1.704 -0.2384 0
M  V30 17 C 4.0748 -0.7853 -0.0176 0
M  V30 18 C -6.4997 0.6323 -0.8267 0
M  V30 19 C 5.4573 -0.6729 -0.5204 0
M  V30 20 C 5.6877 0.758 -1.0355 0
M  V30 21 C 6.4334 -0.9793 0.6274 0
M  V30 22 C 5.6611 -1.6803 -1.6633 0
M  V30 23 H -0.6159 2.0552 2.1096 0
M  V30 24 H -1.853 2.559 0.1725 0
M  V30 25 H -0.4445 1.6393 -0.2356 0
M  V30 26 H -0.9506 -0.8706 1.5689 0
M  V30 27 H -0.2937 -0.1566 3.062 0
M  V30 28 H -3.085 0.3941 2.1968 0
M  V30 29 H -2.2126 1.1175 3.5891 0
M  V30 30 H -2.9772 2.195 2.4013 0
M  V30 31 H 1.5182 1.0425 1.4753 0
M  V30 32 H -0.5114 -0.6541 -0.9744 0
M  V30 33 H 1.0997 -1.9297 0.8565 0
M  V30 34 H -3.981 2.545 0.3473 0
M  V30 35 H -1.7507 -2.4803 -2.0329 0
M  V30 36 H -4.2009 -2.429 -2.1642 0
M  V30 37 H -6.3219 -1.2886 -1.7608 0
M  V30 38 H -6.3893 2.5626 0.1109 0
M  V30 39 H -7.5779 0.6582 -0.9273 0
M  V30 40 H 5.5153 1.4988 -0.2239 0
M  V30 41 H 6.7311 0.8772 -1.4017 0
M  V30 42 H 4.9937 0.9907 -1.8734 0
M  V30 43 H 7.4851 -0.8963 0.2774 0
M  V30 44 H 6.2739 -2.0099 1.0139 0
M  V30 45 H 6.2877 -0.265 1.4674 0
M  V30 46 H 6.6997 -1.6197 -2.0546 0
M  V30 47 H 4.9599 -1.4706 -2.5 0
M  V30 48 H 5.4821 -2.7193 -1.3089 0
M  V30 END ATOM
M  V30 BEGIN BOND
M  V30 1 1 1 2
M  V30 2 1 1 3
M  V30 3 1 1 4
M  V30 4 1 2 5
M  V30 5 1 3 6
M  V30 6 1 5 7
M  V30 7 2 5 8
M  V30 8 2 6 9
M  V30 9 1 7 10
M  V30 10 2 7 11
M  V30 11 1 8 12
M  V30 12 1 9 13
M  V30 13 1 10 14
M  V30 14 2 10 15
M  V30 15 1 11 16
M  V30 16 3 13 17
M  V30 17 1 15 18
M  V30 18 1 17 19
M  V30 19 1 19 20
M  V30 20 1 19 21
M  V30 21 1 19 22
M  V30 22 2 12 14
M  V30 23 2 16 18
M  V30 24 1 1 23
M  V30 25 1 2 24
M  V30 26 1 2 25
M  V30 27 1 3 26
M  V30 28 1 3 27
M  V30 29 1 4 28
M  V30 30 1 4 29
M  V30 31 1 4 30
M  V30 32 1 6 31
M  V30 33 1 8 32
M  V30 34 1 9 33
M  V30 35 1 11 34
M  V30 36 1 12 35
M  V30 37 1 14 36
M  V30 38 1 15 37
M  V30 39 1 16 38
M  V30 40 1 18 39
M  V30 41 1 20 40
M  V30 42 1 20 41
M  V30 43 1 20 42
M  V30 44 1 21 43
M  V30 45 1 21 44
M  V30 46 1 21 45
M  V30 47 1 22 46
M  V30 48 1 22 47
M  V30 49 1 22 48
M  V30 END BOND
M  V30 BEGIN COLLECTION
M  V30 MDLV30/STEABS ATOMS=(1 1)
M  V30 END COLLECTION
M  V30 END CTAB
M  END
>  <Structure No>
1438

>  <LogS>
-4.464546178

>  <MMFF94 Energy>
17.737

$$$$
Compound 1439
Actelion Java MolfileCreator 2.0

  0  0  0  0  0  0              0 V3000
M  V30 BEGIN CTAB
M  V30 COUNTS 76 75 0 0 0
M  V30 BEGIN ATOM
M  V30 1 S -1.1121 -2.7821 -2.1457 0
M  V30 2 S -0.614 -0.7361 -1.718 0
M  V30 3 C -1.6845 -3.2837 -0.4597 0
M  V30 4 C 1.1554 -0.7392 -2.2607 0
M  V30 5 C -2.8614 -2.3969 0.0428 0
M  V30 6 C -2.1277 -4.7565 -0.5453 0
M  V30 7 C -0.5174 -3.1924 0.5411 0
M  V30 8 C 1.7929 0.6719 -2.0183 0
M  V30 9 C 1.9715 -1.8387 -1.548 0
M  V30 10 C 1.2009 -1.02 -3.778 0
M  V30 11 C -4.1141 -2.4227 -0.861 0
M  V30 12 C 1.4243 1.4377 -0.7219 0
M  V30 13 C -5.0338 -1.2157 -0.624 0
M  V30 14 C 1.9051 0.8308 0.6088 0
M  V30 15 C -5.7049 -1.244 0.7594 0
M  V30 16 C 3.4169 0.5514 0.6931 0
M  V30 17 C -6.6549 -0.0438 0.969 0
M  V30 18 C 4.2648 1.828 0.5963 0
M  V30 19 C -6.0755 1.0526 1.8859 0
M  V30 20 C 5.7567 1.5095 0.7487 0
M  V30 21 C -4.8149 1.7508 1.3469 0
M  V30 22 C 6.6022 2.7893 0.6665 0
M  V30 23 C -5.0912 2.5858 0.0875 0
M  V30 24 C 8.1097 2.5009 0.6235 0
M  V30 25 C -3.8432 3.349 -0.3503 0
M  V30 26 C 8.6406 1.9265 1.9361 0
M  V30 27 H -2.5122 -1.3501 0.1632 0
M  V30 28 H -3.1585 -2.7385 1.0587 0
M  V30 29 H -2.536 -5.1033 0.4275 0
M  V30 30 H -2.9098 -4.8917 -1.3217 0
M  V30 31 H -1.2681 -5.4065 -0.8151 0
M  V30 32 H 0.3606 -3.7635 0.1714 0
M  V30 33 H -0.8147 -3.6114 1.527 0
M  V30 34 H -0.2152 -2.1389 0.7083 0
M  V30 35 H 2.8978 0.6164 -2.1176 0
M  V30 36 H 1.4687 1.3428 -2.8454 0
M  V30 37 H 1.8745 -1.7835 -0.451 0
M  V30 38 H 1.6435 -2.8522 -1.8598 0
M  V30 39 H 3.0479 -1.7572 -1.8109 0
M  V30 40 H 2.2379 -0.915 -4.1637 0
M  V30 41 H 0.5509 -0.3058 -4.3265 0
M  V30 42 H 0.855 -2.0472 -4.0153 0
M  V30 43 H -4.6837 -3.3612 -0.6886 0
M  V30 44 H -3.8185 -2.406 -1.9296 0
M  V30 45 H 1.8403 2.4647 -0.8036 0
M  V30 46 H 0.3256 1.5858 -0.6683 0
M  V30 47 H -5.8259 -1.2265 -1.405 0
M  V30 48 H -4.4507 -0.2812 -0.7584 0
M  V30 49 H 1.6335 1.5346 1.4254 0
M  V30 50 H 1.3386 -0.0961 0.8215 0
M  V30 51 H -6.2978 -2.1826 0.8376 0
M  V30 52 H -4.9399 -1.2755 1.5644 0
M  V30 53 H 3.6169 0.0625 1.6718 0
M  V30 54 H 3.7258 -0.1641 -0.0938 0
M  V30 55 H -6.9837 0.3929 0.0023 0
M  V30 56 H -7.5798 -0.4212 1.458 0
M  V30 57 H 4.1046 2.3076 -0.3924 0
M  V30 58 H 3.9546 2.5393 1.3934 0
M  V30 59 H -5.8362 0.6016 2.8728 0
M  V30 60 H -6.8626 1.8181 2.0657 0
M  V30 61 H 5.9229 1.0167 1.7306 0
M  V30 62 H 6.0642 0.8087 -0.0586 0
M  V30 63 H -4.4391 2.4289 2.145 0
M  V30 64 H -4.0133 1.0073 1.152 0
M  V30 65 H 6.335 3.3407 -0.2614 0
M  V30 66 H 6.3701 3.4512 1.5306 0
M  V30 67 H -5.4111 1.9304 -0.7488 0
M  V30 68 H -5.9047 3.3151 0.2919 0
M  V30 69 H 8.6429 3.4545 0.4179 0
M  V30 70 H 8.3407 1.8007 -0.2085 0
M  V30 71 H -4.067 3.9335 -1.2668 0
M  V30 72 H -3.5213 4.0531 0.447 0
M  V30 73 H -3.0143 2.6416 -0.5723 0
M  V30 74 H 8.3516 2.5744 2.7907 0
M  V30 75 H 9.7479 1.8729 1.8931 0
M  V30 76 H 8.252 0.8996 2.0988 0
M  V30 END ATOM
M  V30 BEGIN BOND
M  V30 1 1 1 2
M  V30 2 1 1 3
M  V30 3 1 2 4
M  V30 4 1 3 5
M  V30 5 1 3 6
M  V30 6 1 3 7
M  V30 7 1 4 8
M  V30 8 1 4 9
M  V30 9 1 4 10
M  V30 10 1 5 11
M  V30 11 1 8 12
M  V30 12 1 11 13
M  V30 13 1 12 14
M  V30 14 1 13 15
M  V30 15 1 14 16
M  V30 16 1 15 17
M  V30 17 1 16 18
M  V30 18 1 17 19
M  V30 19 1 18 20
M  V30 20 1 19 21
M  V30 21 1 20 22
M  V30 22 1 21 23
M  V30 23 1 22 24
M  V30 24 1 23 25
M  V30 25 1 24 26
M  V30 26 1 5 27
M  V30 27 1 5 28
M  V30 28 1 6 29
M  V30 29 1 6 30
M  V30 30 1 6 31
M  V30 31 1 7 32
M  V30 32 1 7 33
M  V30 33 1 7 34
M  V30 34 1 8 35
M  V30 35 1 8 36
M  V30 36 1 9 37
M  V30 37 1 9 38
M  V30 38 1 9 39
M  V30 39 1 10 40
M  V30 40 1 10 41
M  V30 41 1 10 42
M  V30 42 1 11 43
M  V30 43 1 11 44
M  V30 44 1 12 45
M  V30 45 1 12 46
M  V30 46 1 13 47
M  V30 47 1 13 48
M  V30 48 1 14 49
M  V30 49 1 14 50
M  V30 50 1 15 51
M  V30 51 1 15 52
M  V30 52 1 16 53
M  V30 53 1 16 54
M  V30 54 1 17 55
M  V30 55 1 17 56
M  V30 56 1 18 57
M  V30 57 1 18 58
M  V30 58 1 19 59
M  V30 59 1 19 60
M  V30 60 1 20 61
M  V30 61 1 20 62
M  V30 62 1 21 63
M  V30 63 1 21 64
M  V30 64 1 22 65
M  V30 65 1 22 66
M  V30 66 1 23 67
M  V30 67 1 23 68
M  V30 68 1 24 69
M  V30 69 1 24 70
M  V30 70 1 25 71
M  V30 71 1 25 72
M  V30 72 1 25 73
M  V30 73 1 26 74
M  V30 74 1 26 75
M  V30 75 1 26 76
M  V30 END BOND
M  V30 END CTAB
M  END
>  <Structure No>
1439

>  <LogS>
-7.127966051

>  <MMFF94 Energy>
21.095

$$$$
Compound 1440
Actelion Java MolfileCreator 2.0

  0  0  0  0  0  0              0 V3000
M  V30 BEGIN CTAB
M  V30 COUNTS 54 53 0 0 0
M  V30 BEGIN ATOM
M  V30 1 O 0.3906 2.0326 1.2504 0
M  V30 2 C 0.041 1.7699 0.0662 0
M  V30 3 O 0.9885 1.4002 -0.8919 0
M  V30 4 O -1.3031 1.8165 -0.3042 0
M  V30 5 C 2.3429 1.0835 -0.5797 0
M  V30 6 C -2.3573 2.0313 0.6297 0
M  V30 7 C 2.4521 -0.2747 0.1546 0 CFG=2
M  V30 8 C -3.7218 1.7434 -0.0318 0 CFG=1
M  V30 9 C 3.8553 -0.4559 0.7858 0
M  V30 10 C 2.0762 -1.4754 -0.7533 0
M  V30 11 C -3.7259 0.4097 -0.8258 0
M  V30 12 C -4.8771 1.7871 0.9972 0
M  V30 13 C 5.0103 -0.484 -0.2354 0
M  V30 14 C 0.5653 -1.6456 -0.9335 0
M  V30 15 C -3.3893 -0.8333 0.0175 0
M  V30 16 C -5.1477 3.1978 1.5228 0
M  V30 17 C 6.3604 -0.8236 0.4151 0
M  V30 18 C -3.3834 -2.0967 -0.851 0
M  V30 19 C 6.8891 0.3016 1.3044 0
M  V30 20 C -3.0425 -3.3334 -0.0246 0
M  V30 21 H 2.776 1.8991 0.0403 0
M  V30 22 H 2.9164 1.0462 -1.5295 0
M  V30 23 H -2.2175 1.3715 1.514 0
M  V30 24 H -2.3157 3.0862 0.9745 0
M  V30 25 H 1.7448 -0.2593 1.0129 0
M  V30 26 H -3.9021 2.5475 -0.7804 0
M  V30 27 H 4.0228 0.3731 1.5065 0
M  V30 28 H 3.863 -1.3998 1.3744 0
M  V30 29 H 2.4594 -2.4151 -0.2986 0
M  V30 30 H 2.5494 -1.3723 -1.7536 0
M  V30 31 H -2.998 0.4866 -1.6633 0
M  V30 32 H -4.7261 0.2715 -1.2927 0
M  V30 33 H -4.6556 1.1208 1.8586 0
M  V30 34 H -5.8121 1.4216 0.5191 0
M  V30 35 H 4.8061 -1.2591 -1.0035 0
M  V30 36 H 5.0905 0.4951 -0.7543 0
M  V30 37 H 0.1462 -0.8403 -1.5694 0
M  V30 38 H 0.3606 -2.6137 -1.4375 0
M  V30 39 H 0.0504 -1.6495 0.0503 0
M  V30 40 H -4.1418 -0.9532 0.826 0
M  V30 41 H -2.3855 -0.7179 0.4782 0
M  V30 42 H -5.3282 3.8996 0.681 0
M  V30 43 H -4.2949 3.5614 2.1325 0
M  V30 44 H -6.0508 3.1836 2.1688 0
M  V30 45 H 7.1027 -1.0059 -0.3921 0
M  V30 46 H 6.2752 -1.7594 1.0091 0
M  V30 47 H -2.6306 -1.99 -1.6626 0
M  V30 48 H -4.3841 -2.2381 -1.3144 0
M  V30 49 H 7.9162 0.0512 1.6442 0
M  V30 50 H 6.9273 1.2581 0.7409 0
M  V30 51 H 6.2502 0.4264 2.2031 0
M  V30 52 H -3.0439 -4.2299 -0.6798 0
M  V30 53 H -3.795 -3.4796 0.7795 0
M  V30 54 H -2.0348 -3.2286 0.4306 0
M  V30 END ATOM
M  V30 BEGIN BOND
M  V30 1 2 1 2
M  V30 2 1 2 3
M  V30 3 1 2 4
M  V30 4 1 3 5
M  V30 5 1 4 6
M  V30 6 1 5 7
M  V30 7 1 6 8
M  V30 8 1 7 9
M  V30 9 1 7 10
M  V30 10 1 8 11
M  V30 11 1 8 12
M  V30 12 1 9 13
M  V30 13 1 10 14
M  V30 14 1 11 15
M  V30 15 1 12 16
M  V30 16 1 13 17
M  V30 17 1 15 18
M  V30 18 1 17 19
M  V30 19 1 18 20
M  V30 20 1 5 21
M  V30 21 1 5 22
M  V30 22 1 6 23
M  V30 23 1 6 24
M  V30 24 1 7 25
M  V30 25 1 8 26
M  V30 26 1 9 27
M  V30 27 1 9 28
M  V30 28 1 10 29
M  V30 29 1 10 30
M  V30 30 1 11 31
M  V30 31 1 11 32
M  V30 32 1 12 33
M  V30 33 1 12 34
M  V30 34 1 13 35
M  V30 35 1 13 36
M  V30 36 1 14 37
M  V30 37 1 14 38
M  V30 38 1 14 39
M  V30 39 1 15 40
M  V30 40 1 15 41
M  V30 41 1 16 42
M  V30 42 1 16 43
M  V30 43 1 16 44
M  V30 44 1 17 45
M  V30 45 1 17 46
M  V30 46 1 18 47
M  V30 47 1 18 48
M  V30 48 1 19 49
M  V30 49 1 19 50
M  V30 50 1 19 51
M  V30 51 1 20 52
M  V30 52 1 20 53
M  V30 53 1 20 54
M  V30 END BOND
M  V30 BEGIN COLLECTION
M  V30 MDLV30/STEABS ATOMS=(2 7 8)
M  V30 END COLLECTION
M  V30 END CTAB
M  END
>  <Structure No>
1440

>  <LogS>
-6.979936669

>  <MMFF94 Energy>
-20.388

$$$$
Compound 1441
Actelion Java MolfileCreator 2.0

  0  0  0  0  0  0              0 V3000
M  V30 BEGIN CTAB
M  V30 COUNTS 57 60 0 0 0
M  V30 BEGIN ATOM
M  V30 1 O -4.3079 1.1155 -1.1952 0
M  V30 2 C -5.6454 1.0119 -0.7816 0
M  V30 3 C -3.247 0.3109 -0.7439 0
M  V30 4 C -6.4677 2.1378 -0.8906 0
M  V30 5 C -6.1954 -0.1952 -0.3151 0
M  V30 6 C -3.1777 -0.1702 0.572 0
M  V30 7 C -2.2117 0.0163 -1.6293 0
M  V30 8 C -7.8179 2.0704 -0.5284 0
M  V30 9 C -7.5401 -0.26 0.0602 0
M  V30 10 C -2.1063 -0.974 0.978 0
M  V30 11 C -1.1396 -0.7827 -1.2263 0
M  V30 12 C -8.36 0.8699 -0.0499 0
M  V30 13 C -1.0568 -1.2835 0.0902 0
M  V30 14 N -9.7423 0.7987 0.3153 0
M  V30 15 C 0.1124 -2.2101 0.4717 0
M  V30 16 C 1.4344 -1.5949 -0.03 0
M  V30 17 C -0.1836 -3.5963 -0.1446 0
M  V30 18 C 0.249 -2.4099 2.0029 0
M  V30 19 C 2.2845 -2.2431 -0.9553 0
M  V30 20 C 1.8129 -0.3144 0.4356 0
M  V30 21 C 3.4599 -1.6293 -1.3972 0
M  V30 22 C 2.9976 0.2856 0.0044 0
M  V30 23 C 3.8319 -0.3735 -0.9099 0
M  V30 24 O 5.0142 0.2153 -1.3756 0
M  V30 25 C 5.8716 0.9988 -0.5916 0
M  V30 26 C 6.6023 2.0225 -1.2082 0
M  V30 27 C 6.0468 0.7588 0.7824 0
M  V30 28 C 7.4798 2.8178 -0.4621 0
M  V30 29 C 6.9303 1.5478 1.5272 0
M  V30 30 C 7.6454 2.5855 0.9108 0
M  V30 31 N 8.546 3.396 1.6747 0
M  V30 32 H -6.0593 3.0695 -1.262 0
M  V30 33 H -5.5985 -1.0923 -0.272 0
M  V30 34 H -3.9548 0.0728 1.2897 0
M  V30 35 H -2.2481 0.3911 -2.6443 0
M  V30 36 H -8.4394 2.9512 -0.6196 0
M  V30 37 H -7.949 -1.1953 0.4167 0
M  V30 38 H -2.1166 -1.3428 1.9916 0
M  V30 39 H -0.3702 -1.0145 -1.9508 0
M  V30 40 H -10.3641 1.6293 0.2287 0
M  V30 41 H -10.149 -0.0831 0.6929 0
M  V30 42 H -0.2595 -3.5377 -1.2523 0
M  V30 43 H 0.6063 -4.3291 0.1258 0
M  V30 44 H -1.1525 -3.9887 0.2317 0
M  V30 45 H 0.2751 -1.4349 2.5366 0
M  V30 46 H 1.1865 -2.9583 2.2394 0
M  V30 47 H -0.5954 -3.0045 2.4122 0
M  V30 48 H 2.0543 -3.2182 -1.3587 0
M  V30 49 H 1.18 0.2274 1.1253 0
M  V30 50 H 4.0908 -2.1383 -2.1145 0
M  V30 51 H 3.253 1.2739 0.367 0
M  V30 52 H 6.4852 2.205 -2.2684 0
M  V30 53 H 5.5155 -0.0464 1.2736 0
M  V30 54 H 8.0288 3.6165 -0.9519 0
M  V30 55 H 7.0562 1.3539 2.5832 0
M  V30 56 H 9.0516 4.198 1.2333 0
M  V30 57 H 8.7144 3.1981 2.6897 0
M  V30 END ATOM
M  V30 BEGIN BOND
M  V30 1 1 1 2
M  V30 2 1 1 3
M  V30 3 2 2 4
M  V30 4 1 2 5
M  V30 5 2 3 6
M  V30 6 1 3 7
M  V30 7 1 4 8
M  V30 8 2 5 9
M  V30 9 1 6 10
M  V30 10 2 7 11
M  V30 11 2 8 12
M  V30 12 2 10 13
M  V30 13 1 12 14
M  V30 14 1 13 15
M  V30 15 1 15 16
M  V30 16 1 15 17
M  V30 17 1 15 18
M  V30 18 2 16 19
M  V30 19 1 16 20
M  V30 20 1 19 21
M  V30 21 2 20 22
M  V30 22 2 21 23
M  V30 23 1 23 24
M  V30 24 1 24 25
M  V30 25 2 25 26
M  V30 26 1 25 27
M  V30 27 1 26 28
M  V30 28 2 27 29
M  V30 29 2 28 30
M  V30 30 1 30 31
M  V30 31 1 9 12
M  V30 32 1 11 13
M  V30 33 1 22 23
M  V30 34 1 29 30
M  V30 35 1 4 32
M  V30 36 1 5 33
M  V30 37 1 6 34
M  V30 38 1 7 35
M  V30 39 1 8 36
M  V30 40 1 9 37
M  V30 41 1 10 38
M  V30 42 1 11 39
M  V30 43 1 14 40
M  V30 44 1 14 41
M  V30 45 1 17 42
M  V30 46 1 17 43
M  V30 47 1 17 44
M  V30 48 1 18 45
M  V30 49 1 18 46
M  V30 50 1 18 47
M  V30 51 1 19 48
M  V30 52 1 20 49
M  V30 53 1 21 50
M  V30 54 1 22 51
M  V30 55 1 26 52
M  V30 56 1 27 53
M  V30 57 1 28 54
M  V30 58 1 29 55
M  V30 59 1 31 56
M  V30 60 1 31 57
M  V30 END BOND
M  V30 END CTAB
M  END
>  <Structure No>
1441

>  <LogS>
-7.19172722

>  <MMFF94 Energy>
96.686

$$$$
Compound 1442
Actelion Java MolfileCreator 2.0

  0  0  0  0  0  0              0 V3000
M  V30 BEGIN CTAB
M  V30 COUNTS 47 51 0 0 0
M  V30 BEGIN ATOM
M  V30 1 O 2.4995 -4.1147 2.2574 0
M  V30 2 C 2.1926 -2.9719 1.8214 0
M  V30 3 N 3.0463 -1.9176 1.9582 0
M  V30 4 C 0.9557 -2.7567 1.18 0
M  V30 5 C 2.768 -0.6707 1.5092 0
M  V30 6 C 4.268 -1.8124 2.5113 0
M  V30 7 C 0.0195 -3.8436 1.0122 0
M  V30 8 C 0.6372 -1.466 0.7011 0
M  V30 9 N 3.7544 0.2328 1.7476 0
M  V30 10 C 1.5566 -0.4009 0.8659 0
M  V30 11 C 4.6852 -0.5127 2.379 0
M  V30 12 C 5.0614 -2.7807 3.1342 0
M  V30 13 N -0.7308 -4.7141 0.8774 0
M  V30 14 O -0.5279 -1.2463 0.0935 0
M  V30 15 C 1.2205 0.8682 0.3832 0
M  V30 16 C 5.9217 -0.0868 2.8577 0
M  V30 17 C 6.316 -2.3766 3.6272 0
M  V30 18 C -0.8817 -0.0533 -0.377 0
M  V30 19 C -0.0128 1.0522 -0.2483 0
M  V30 20 C 6.7441 -1.0372 3.4897 0
M  V30 21 C -2.1216 0.106 -1.0039 0
M  V30 22 C -0.3964 2.3025 -0.7509 0
M  V30 23 C -2.5074 1.3589 -1.5084 0
M  V30 24 C -1.6366 2.4534 -1.3777 0
M  V30 25 N -3.7857 1.5202 -2.1533 0
M  V30 26 C -3.8501 2.0258 -3.532 0
M  V30 27 C -5.0183 1.1771 -1.4293 0
M  V30 28 C -3.2948 0.9921 -4.5056 0
M  V30 29 C -5.2657 2.1681 -0.297 0
M  V30 30 H 4.7408 -3.8065 3.2428 0
M  V30 31 H 1.9063 1.7002 0.4958 0
M  V30 32 H 6.2406 0.9415 2.7476 0
M  V30 33 H 6.9582 -3.0978 4.1154 0
M  V30 34 H 7.7113 -0.74 3.8735 0
M  V30 35 H -2.7748 -0.75 -1.1132 0
M  V30 36 H 0.2582 3.1605 -0.6562 0
M  V30 37 H -1.9256 3.4294 -1.7447 0
M  V30 38 H -3.2736 2.9701 -3.6228 0
M  V30 39 H -4.8974 2.2591 -3.821 0
M  V30 40 H -5.8961 1.1905 -2.1106 0
M  V30 41 H -4.9482 0.1494 -1.0155 0
M  V30 42 H -3.8628 0.042 -4.4156 0
M  V30 43 H -2.2221 0.7988 -4.2926 0
M  V30 44 H -3.3884 1.3699 -5.5454 0
M  V30 45 H -6.2205 1.9217 0.2133 0
M  V30 46 H -5.3306 3.2 -0.7028 0
M  V30 47 H -4.442 2.1182 0.446 0
M  V30 END ATOM
M  V30 BEGIN BOND
M  V30 1 2 1 2
M  V30 2 1 2 3
M  V30 3 1 2 4
M  V30 4 1 3 5
M  V30 5 1 3 6
M  V30 6 1 4 7
M  V30 7 2 4 8
M  V30 8 2 5 9
M  V30 9 1 5 10
M  V30 10 2 6 11
M  V30 11 1 6 12
M  V30 12 3 7 13
M  V30 13 1 8 14
M  V30 14 2 10 15
M  V30 15 1 11 16
M  V30 16 2 12 17
M  V30 17 1 14 18
M  V30 18 1 15 19
M  V30 19 2 16 20
M  V30 20 1 18 21
M  V30 21 1 19 22
M  V30 22 2 21 23
M  V30 23 2 22 24
M  V30 24 1 23 25
M  V30 25 1 25 26
M  V30 26 1 25 27
M  V30 27 1 26 28
M  V30 28 1 27 29
M  V30 29 1 8 10
M  V30 30 1 9 11
M  V30 31 1 17 20
M  V30 32 2 18 19
M  V30 33 1 23 24
M  V30 34 1 12 30
M  V30 35 1 15 31
M  V30 36 1 16 32
M  V30 37 1 17 33
M  V30 38 1 20 34
M  V30 39 1 21 35
M  V30 40 1 22 36
M  V30 41 1 24 37
M  V30 42 1 26 38
M  V30 43 1 26 39
M  V30 44 1 27 40
M  V30 45 1 27 41
M  V30 46 1 28 42
M  V30 47 1 28 43
M  V30 48 1 28 44
M  V30 49 1 29 45
M  V30 50 1 29 46
M  V30 51 1 29 47
M  V30 END BOND
M  V30 END CTAB
M  END
>  <Structure No>
1442

>  <LogS>
-7.202332762

>  <MMFF94 Energy>
41.899

$$$$
Compound 1443
Actelion Java MolfileCreator 2.0

  0  0  0  0  0  0              0 V3000
M  V30 BEGIN CTAB
M  V30 COUNTS 50 51 0 0 0
M  V30 BEGIN ATOM
M  V30 1 S -2.3566 -3.0889 -2.8448 0
M  V30 2 O -2.8304 -3.9661 -1.7214 0
M  V30 3 O -3.3876 -2.0366 -3.1429 0
M  V30 4 N -0.8536 -2.3352 -2.4155 0 CHG=-1
M  V30 5 C -2.1062 -4.0991 -4.2894 0
M  V30 6 C -0.5654 -1.707 -1.1639 0
M  V30 7 C 0.7602 -1.3409 -0.8775 0
M  V30 8 C -1.577 -1.4466 -0.2261 0
M  V30 9 N 1.7798 -1.5841 -1.8622 0
M  V30 10 C 1.0751 -0.8245 0.3894 0
M  V30 11 C -1.2679 -0.8705 1.0143 0
M  V30 12 N 2.7877 -0.8382 -2.1116 0
M  V30 13 C 0.0681 -0.5822 1.3217 0
M  V30 14 N -2.3105 -0.5895 1.9707 0
M  V30 15 C 3.0368 0.4564 -1.5348 0
M  V30 16 C -2.2146 -1.125 3.3401 0
M  V30 17 C -3.4751 0.2191 1.5764 0
M  V30 18 C 2.1117 1.515 -1.6732 0
M  V30 19 C 4.2507 0.6846 -0.8621 0
M  V30 20 C -1.9642 -0.0041 4.3532 0
M  V30 21 C -3.0523 1.6533 1.2825 0
M  V30 22 C 0.9155 1.3699 -2.4635 0
M  V30 23 C 2.3724 2.7519 -1.0704 0
M  V30 24 C 5.2372 -0.3638 -0.7575 0
M  V30 25 C 4.5041 1.9283 -0.2718 0
M  V30 26 N -0.0429 1.2553 -3.0973 0
M  V30 27 C 3.5545 2.9562 -0.3466 0
M  V30 28 N 6.0194 -1.2124 -0.6841 0
M  V30 29 C 3.8441 4.2923 0.2666 0
M  V30 30 H -3.0455 -4.6273 -4.5422 0
M  V30 31 H -1.8008 -3.4567 -5.14 0
M  V30 32 H -1.3105 -4.8449 -4.082 0
M  V30 33 H -2.6031 -1.6984 -0.4465 0
M  V30 34 H 2.1 -0.6183 0.6699 0
M  V30 35 H 0.3308 -0.1582 2.2814 0
M  V30 36 H -1.3862 -1.8707 3.4131 0
M  V30 37 H -3.1565 -1.6559 3.5971 0
M  V30 38 H -3.9629 -0.2155 0.6801 0
M  V30 39 H -4.237 0.2304 2.3873 0
M  V30 40 H -2.8423 0.6793 4.4038 0
M  V30 41 H -1.0675 0.5807 4.0708 0
M  V30 42 H -1.8019 -0.4448 5.3628 0
M  V30 43 H -3.9483 2.268 1.0648 0
M  V30 44 H -2.532 2.0841 2.161 0
M  V30 45 H -2.3726 1.6845 0.4032 0
M  V30 46 H 1.6571 3.5618 -1.1725 0
M  V30 47 H 5.4395 2.0959 0.2517 0
M  V30 48 H 2.909 4.7697 0.6315 0
M  V30 49 H 4.3183 4.9452 -0.4931 0
M  V30 50 H 4.5299 4.1826 1.1286 0
M  V30 END ATOM
M  V30 BEGIN BOND
M  V30 1 2 1 2
M  V30 2 2 1 3
M  V30 3 1 1 4
M  V30 4 1 1 5
M  V30 5 1 4 6
M  V30 6 2 6 7
M  V30 7 1 6 8
M  V30 8 1 7 9
M  V30 9 1 7 10
M  V30 10 2 8 11
M  V30 11 2 9 12
M  V30 12 2 10 13
M  V30 13 1 11 14
M  V30 14 1 12 15
M  V30 15 1 14 16
M  V30 16 1 14 17
M  V30 17 2 15 18
M  V30 18 1 15 19
M  V30 19 1 16 20
M  V30 20 1 17 21
M  V30 21 1 18 22
M  V30 22 1 18 23
M  V30 23 1 19 24
M  V30 24 2 19 25
M  V30 25 3 22 26
M  V30 26 2 23 27
M  V30 27 3 24 28
M  V30 28 1 27 29
M  V30 29 1 11 13
M  V30 30 1 25 27
M  V30 31 1 5 30
M  V30 32 1 5 31
M  V30 33 1 5 32
M  V30 34 1 8 33
M  V30 35 1 10 34
M  V30 36 1 13 35
M  V30 37 1 16 36
M  V30 38 1 16 37
M  V30 39 1 17 38
M  V30 40 1 17 39
M  V30 41 1 20 40
M  V30 42 1 20 41
M  V30 43 1 20 42
M  V30 44 1 21 43
M  V30 45 1 21 44
M  V30 46 1 21 45
M  V30 47 1 23 46
M  V30 48 1 25 47
M  V30 49 1 29 48
M  V30 50 1 29 49
M  V30 51 1 29 50
M  V30 END BOND
M  V30 END CTAB
M  END
>  <Structure No>
1443

>  <LogS>
-7.233105094

>  <MMFF94 Energy>
97.354

$$$$
Compound 1444
Actelion Java MolfileCreator 2.0

  0  0  0  0  0  0              0 V3000
M  V30 BEGIN CTAB
M  V30 COUNTS 59 58 0 0 0
M  V30 BEGIN ATOM
M  V30 1 O 8.3005 1.4057 -1.0151 0
M  V30 2 C 7.0803 1.6875 -1.1906 0
M  V30 3 O 6.5411 2.8766 -0.6838 0
M  V30 4 C 6.2019 0.7411 -1.9504 0
M  V30 5 C 7.3229 3.8229 0.0373 0
M  V30 6 C 5.0565 0.2326 -1.0683 0
M  V30 7 C 4.2051 -0.8071 -1.8182 0
M  V30 8 C 2.9091 -1.1655 -1.0724 0
M  V30 9 C 3.1694 -1.92 0.2439 0
M  V30 10 C 1.8727 -2.4602 0.8848 0
M  V30 11 C 1.3287 -1.5861 2.0323 0
M  V30 12 C 0.8395 -0.1848 1.6193 0
M  V30 13 C -0.3031 -0.1712 0.5866 0
M  V30 14 C -1.6019 -0.7927 1.1226 0
M  V30 15 C -2.7426 -0.6396 0.1079 0
M  V30 16 C -4.047 -1.2443 0.6486 0
M  V30 17 C -5.1575 -1.3237 -0.4156 0
M  V30 18 C -5.6396 0.037 -0.9515 0
M  V30 19 C -6.3415 0.8866 0.1186 0
M  V30 20 C -6.9348 2.1602 -0.4958 0
M  V30 21 C -7.6741 2.9871 0.5523 0
M  V30 22 H 6.8058 -0.1209 -2.3141 0
M  V30 23 H 5.7881 1.2725 -2.8342 0
M  V30 24 H 6.6752 4.6661 0.3558 0
M  V30 25 H 8.1377 4.2154 -0.6093 0
M  V30 26 H 7.7604 3.3462 0.9412 0
M  V30 27 H 5.4858 -0.2302 -0.1524 0
M  V30 28 H 4.4156 1.093 -0.767 0
M  V30 29 H 3.9206 -0.3949 -2.812 0
M  V30 30 H 4.8058 -1.7281 -1.9959 0
M  V30 31 H 2.3301 -0.2371 -0.8848 0
M  V30 32 H 2.2992 -1.8113 -1.7433 0
M  V30 33 H 3.8325 -2.7851 0.0214 0
M  V30 34 H 3.7091 -1.2682 0.9637 0
M  V30 35 H 1.0851 -2.6501 0.1256 0
M  V30 36 H 2.1054 -3.4544 1.326 0
M  V30 37 H 0.5029 -2.1315 2.5352 0
M  V30 38 H 2.1256 -1.4648 2.7979 0
M  V30 39 H 1.6952 0.4014 1.2257 0
M  V30 40 H 0.4975 0.3475 2.5337 0
M  V30 41 H 0.005 -0.6892 -0.345 0
M  V30 42 H -0.4999 0.8903 0.3189 0
M  V30 43 H -1.8875 -0.292 2.0744 0
M  V30 44 H -1.4433 -1.8747 1.3203 0
M  V30 45 H -2.4603 -1.1513 -0.8387 0
M  V30 46 H -2.8948 0.4411 -0.1008 0
M  V30 47 H -3.8443 -2.2808 0.9965 0
M  V30 48 H -4.395 -0.6686 1.5317 0
M  V30 49 H -6.0249 -1.8691 0.0168 0
M  V30 50 H -4.791 -1.9321 -1.2713 0
M  V30 51 H -4.7934 0.6037 -1.393 0
M  V30 52 H -6.359 -0.1637 -1.7761 0
M  V30 53 H -7.1553 0.2904 0.5887 0
M  V30 54 H -5.6114 1.1781 0.9046 0
M  V30 55 H -7.647 1.8899 -1.3051 0
M  V30 56 H -6.1202 2.7776 -0.9336 0
M  V30 57 H -8.0378 3.9336 0.092 0
M  V30 58 H -6.9966 3.2393 1.3982 0
M  V30 59 H -8.5494 2.4205 0.9377 0
M  V30 END ATOM
M  V30 BEGIN BOND
M  V30 1 2 1 2
M  V30 2 1 2 3
M  V30 3 1 2 4
M  V30 4 1 3 5
M  V30 5 1 4 6
M  V30 6 1 6 7
M  V30 7 1 7 8
M  V30 8 1 8 9
M  V30 9 1 9 10
M  V30 10 1 10 11
M  V30 11 1 11 12
M  V30 12 1 12 13
M  V30 13 1 13 14
M  V30 14 1 14 15
M  V30 15 1 15 16
M  V30 16 1 16 17
M  V30 17 1 17 18
M  V30 18 1 18 19
M  V30 19 1 19 20
M  V30 20 1 20 21
M  V30 21 1 4 22
M  V30 22 1 4 23
M  V30 23 1 5 24
M  V30 24 1 5 25
M  V30 25 1 5 26
M  V30 26 1 6 27
M  V30 27 1 6 28
M  V30 28 1 7 29
M  V30 29 1 7 30
M  V30 30 1 8 31
M  V30 31 1 8 32
M  V30 32 1 9 33
M  V30 33 1 9 34
M  V30 34 1 10 35
M  V30 35 1 10 36
M  V30 36 1 11 37
M  V30 37 1 11 38
M  V30 38 1 12 39
M  V30 39 1 12 40
M  V30 40 1 13 41
M  V30 41 1 13 42
M  V30 42 1 14 43
M  V30 43 1 14 44
M  V30 44 1 15 45
M  V30 45 1 15 46
M  V30 46 1 16 47
M  V30 47 1 16 48
M  V30 48 1 17 49
M  V30 49 1 17 50
M  V30 50 1 18 51
M  V30 51 1 18 52
M  V30 52 1 19 53
M  V30 53 1 19 54
M  V30 54 1 20 55
M  V30 55 1 20 56
M  V30 56 1 21 57
M  V30 57 1 21 58
M  V30 58 1 21 59
M  V30 END BOND
M  V30 END CTAB
M  END
>  <Structure No>
1444

>  <LogS>
-7.800359899

>  <MMFF94 Energy>
-10.408

$$$$
Compound 1445
Actelion Java MolfileCreator 2.0

  0  0  0  0  0  0              0 V3000
M  V30 BEGIN CTAB
M  V30 COUNTS 53 54 0 0 0
M  V30 BEGIN ATOM
M  V30 1 O 9.9134 -0.4015 2.0893 0
M  V30 2 N 9.2241 0.6399 2.057 0 CHG=1
M  V30 3 O 9.8046 1.8305 2.4319 0 CHG=-1
M  V30 4 C 7.8495 0.5982 1.6308 0
M  V30 5 C 7.0701 1.7681 1.6255 0
M  V30 6 C 7.2654 -0.6101 1.213 0
M  V30 7 C 5.7317 1.734 1.2102 0
M  V30 8 C 5.9324 -0.6483 0.7972 0
M  V30 9 C 4.9592 2.9528 1.2199 0
M  V30 10 C 5.1536 0.5223 0.7913 0
M  V30 11 N 4.3387 3.9297 1.2281 0
M  V30 12 N 3.7842 0.5006 0.3622 0
M  V30 13 N 3.2055 -0.5687 -0.0135 0
M  V30 14 C 1.8398 -0.583 -0.4459 0
M  V30 15 C 1.0715 0.5921 -0.5035 0
M  V30 16 C 1.2629 -1.7985 -0.8297 0
M  V30 17 C -0.2564 0.5446 -0.936 0
M  V30 18 C -0.0666 -1.848 -1.2581 0
M  V30 19 C -0.8436 -0.6767 -1.3126 0
M  V30 20 N -2.2249 -0.725 -1.7382 0
M  V30 21 C -2.7222 0.2299 -2.7424 0
M  V30 22 C -3.131 -1.7605 -1.2137 0
M  V30 23 C -3.8132 1.1376 -2.1671 0
M  V30 24 C -3.351 -1.5704 0.2899 0
M  V30 25 O -3.3433 1.7855 -0.9895 0
M  V30 26 O -4.3083 -2.5075 0.7792 0
M  V30 27 C -4.1462 2.6268 -0.2162 0
M  V30 28 C -5.6874 -2.3672 0.5847 0
M  V30 29 O -5.3451 2.8499 -0.5382 0
M  V30 30 C -3.5918 3.2242 1.032 0
M  V30 31 O -6.1592 -1.3454 0.015 0
M  V30 32 C -6.6125 -3.4106 1.1115 0
M  V30 33 H 7.5021 2.7092 1.9444 0
M  V30 34 H 7.8406 -1.5273 1.2051 0
M  V30 35 H 5.5119 -1.5938 0.4786 0
M  V30 36 H 1.4955 1.5455 -0.2143 0
M  V30 37 H 1.8482 -2.7097 -0.8005 0
M  V30 38 H -0.8251 1.4625 -0.9654 0
M  V30 39 H -0.4756 -2.8 -1.5668 0
M  V30 40 H -3.1345 -0.3313 -3.6087 0
M  V30 41 H -1.8932 0.8604 -3.1323 0
M  V30 42 H -4.1101 -1.7201 -1.7374 0
M  V30 43 H -2.7198 -2.7728 -1.4071 0
M  V30 44 H -4.7193 0.5401 -1.9295 0
M  V30 45 H -4.0883 1.9017 -2.9263 0
M  V30 46 H -2.3916 -1.7395 0.8227 0
M  V30 47 H -3.6852 -0.533 0.5088 0
M  V30 48 H -3.9077 2.6152 1.9049 0
M  V30 49 H -3.9632 4.2637 1.1542 0
M  V30 50 H -2.4826 3.2427 0.9839 0
M  V30 51 H -6.0671 -4.3675 1.2514 0
M  V30 52 H -7.0249 -3.0806 2.0877 0
M  V30 53 H -7.4462 -3.5759 0.3963 0
M  V30 END ATOM
M  V30 BEGIN BOND
M  V30 1 2 1 2
M  V30 2 1 2 3
M  V30 3 1 2 4
M  V30 4 2 4 5
M  V30 5 1 4 6
M  V30 6 1 5 7
M  V30 7 2 6 8
M  V30 8 1 7 9
M  V30 9 2 7 10
M  V30 10 3 9 11
M  V30 11 1 10 12
M  V30 12 2 12 13
M  V30 13 1 13 14
M  V30 14 2 14 15
M  V30 15 1 14 16
M  V30 16 1 15 17
M  V30 17 2 16 18
M  V30 18 2 17 19
M  V30 19 1 19 20
M  V30 20 1 20 21
M  V30 21 1 20 22
M  V30 22 1 21 23
M  V30 23 1 22 24
M  V30 24 1 23 25
M  V30 25 1 24 26
M  V30 26 1 25 27
M  V30 27 1 26 28
M  V30 28 2 27 29
M  V30 29 1 27 30
M  V30 30 2 28 31
M  V30 31 1 28 32
M  V30 32 1 8 10
M  V30 33 1 18 19
M  V30 34 1 5 33
M  V30 35 1 6 34
M  V30 36 1 8 35
M  V30 37 1 15 36
M  V30 38 1 16 37
M  V30 39 1 17 38
M  V30 40 1 18 39
M  V30 41 1 21 40
M  V30 42 1 21 41
M  V30 43 1 22 42
M  V30 44 1 22 43
M  V30 45 1 23 44
M  V30 46 1 23 45
M  V30 47 1 24 46
M  V30 48 1 24 47
M  V30 49 1 30 48
M  V30 50 1 30 49
M  V30 51 1 30 50
M  V30 52 1 32 51
M  V30 53 1 32 52
M  V30 54 1 32 53
M  V30 END BOND
M  V30 END CTAB
M  END
>  <Structure No>
1445

>  <LogS>
-7.300465045

>  <MMFF94 Energy>
86.746

$$$$
Compound 1446
Actelion Java MolfileCreator 2.0

  0  0  0  0  0  0              0 V3000
M  V30 BEGIN CTAB
M  V30 COUNTS 41 42 0 0 0
M  V30 BEGIN ATOM
M  V30 1 O -9.1472 -0.3198 0.0 0
M  V30 2 N -8.325 0.6195 0.024 0 CHG=1
M  V30 3 O -8.7965 1.9119 0.0627 0 CHG=-1
M  V30 4 C -6.9099 0.3572 0.0105 0
M  V30 5 C -5.9892 1.4193 0.0373 0
M  V30 6 C -6.4243 -0.9627 -0.0285 0
M  V30 7 C -4.6139 1.1676 0.0248 0
M  V30 8 C -5.049 -1.2125 -0.0413 0
M  V30 9 C -4.1356 -0.1533 -0.0147 0
M  V30 10 N -2.7334 -0.4461 -0.0281 0
M  V30 11 N -1.8497 0.4696 -0.0049 0
M  V30 12 C -0.4476 0.1767 -0.0183 0
M  V30 13 C 0.4664 1.2372 0.007 0
M  V30 14 C 0.0304 -1.1461 -0.0553 0
M  V30 15 C 1.8414 0.9859 -0.0055 0
M  V30 16 C 1.4059 -1.3959 -0.0681 0
M  V30 17 C 2.3157 -0.3312 -0.0462 0
M  V30 18 N 3.7262 -0.5917 -0.0513 0
M  V30 19 C 4.3896 -0.9647 1.2049 0
M  V30 20 C 4.4242 -0.7363 -1.3345 0
M  V30 21 C 5.5014 0.0246 1.5672 0
M  V30 22 C 4.6154 0.6202 -2.0044 0
M  V30 23 C 4.9566 1.3603 1.839 0
M  V30 24 N 4.5286 2.4138 2.054 0
M  V30 25 H -6.3313 2.4457 0.0683 0
M  V30 26 H -7.1075 -1.802 -0.0491 0
M  V30 27 H -3.9272 2.0042 0.0465 0
M  V30 28 H -4.6926 -2.2347 -0.0713 0
M  V30 29 H 0.1111 2.2597 0.0368 0
M  V30 30 H -0.6556 -1.9831 -0.0739 0
M  V30 31 H 2.5367 1.8148 0.0139 0
M  V30 32 H 1.7658 -2.4168 -0.0951 0
M  V30 33 H 3.6537 -1.0082 2.0396 0
M  V30 34 H 4.8237 -1.9828 1.1019 0
M  V30 35 H 3.8417 -1.4041 -2.006 0
M  V30 36 H 5.4218 -1.2038 -1.1845 0
M  V30 37 H 6.0246 -0.3341 2.4785 0
M  V30 38 H 6.2458 0.0922 0.7468 0
M  V30 39 H 5.2172 0.4968 -2.929 0
M  V30 40 H 5.1472 1.3149 -1.3206 0
M  V30 41 H 3.6327 1.0569 -2.2803 0
M  V30 END ATOM
M  V30 BEGIN BOND
M  V30 1 2 1 2
M  V30 2 1 2 3
M  V30 3 1 2 4
M  V30 4 2 4 5
M  V30 5 1 4 6
M  V30 6 1 5 7
M  V30 7 2 6 8
M  V30 8 2 7 9
M  V30 9 1 9 10
M  V30 10 2 10 11
M  V30 11 1 11 12
M  V30 12 2 12 13
M  V30 13 1 12 14
M  V30 14 1 13 15
M  V30 15 2 14 16
M  V30 16 2 15 17
M  V30 17 1 17 18
M  V30 18 1 18 19
M  V30 19 1 18 20
M  V30 20 1 19 21
M  V30 21 1 20 22
M  V30 22 1 21 23
M  V30 23 3 23 24
M  V30 24 1 8 9
M  V30 25 1 16 17
M  V30 26 1 5 25
M  V30 27 1 6 26
M  V30 28 1 7 27
M  V30 29 1 8 28
M  V30 30 1 13 29
M  V30 31 1 14 30
M  V30 32 1 15 31
M  V30 33 1 16 32
M  V30 34 1 19 33
M  V30 35 1 19 34
M  V30 36 1 20 35
M  V30 37 1 20 36
M  V30 38 1 21 37
M  V30 39 1 21 38
M  V30 40 1 22 39
M  V30 41 1 22 40
M  V30 42 1 22 41
M  V30 END BOND
M  V30 END CTAB
M  END
>  <Structure No>
1446

>  <LogS>
-7.208650928

>  <MMFF94 Energy>
76.483

$$$$
Compound 1447
Actelion Java MolfileCreator 2.0

  0  0  0  0  0  0              0 V3000
M  V30 BEGIN CTAB
M  V30 COUNTS 72 80 0 0 0
M  V30 BEGIN ATOM
M  V30 1 O 5.5757 -0.8185 2.375 0
M  V30 2 C 4.9829 -0.4114 1.3375 0
M  V30 3 N 5.7442 0.018 0.1972 0
M  V30 4 C 3.5013 -0.3989 1.2851 0
M  V30 5 C 5.0453 0.4385 -0.9856 0
M  V30 6 C 7.1837 0.0242 0.2377 0
M  V30 7 C 2.8266 3.0E-4 0.1118 0
M  V30 8 C 2.7636 -0.8032 2.3975 0
M  V30 9 O 5.6927 0.8534 -1.9868 0
M  V30 10 C 3.5637 0.4074 -1.0202 0
M  V30 11 C 7.92 -0.7168 -0.6984 0
M  V30 12 C 7.8606 0.7654 1.2178 0
M  V30 13 C 1.3975 -0.0082 0.0698 0
M  V30 14 C 1.3758 -0.7963 2.3725 0
M  V30 15 C 2.8877 0.801 -2.1747 0
M  V30 16 C 9.3217 -0.7168 -0.6624 0
M  V30 17 C 9.2621 0.7722 1.2635 0
M  V30 18 C 0.6582 -0.3781 1.2269 0
M  V30 19 C 0.7227 0.3525 -1.1284 0
M  V30 20 C 1.5009 0.7776 -2.2311 0
M  V30 21 C 9.9883 0.0125 0.3338 0
M  V30 22 C 10.0955 -1.549 -1.6417 0
M  V30 23 C 9.9723 1.5341 2.3431 0
M  V30 24 C -0.766 -0.329 1.2016 0
M  V30 25 C -0.7 0.2888 -1.1857 0
M  V30 26 C -1.4401 -0.023 -0.0122 0
M  V30 27 C -1.5469 -0.5669 2.3575 0
M  V30 28 C -1.4151 0.5179 -2.385 0
M  V30 29 C -2.8692 -0.0287 -0.0534 0
M  V30 30 C -2.9341 -0.5518 2.312 0
M  V30 31 C -2.8024 0.4922 -2.4192 0
M  V30 32 C -3.6082 -0.2957 1.1185 0
M  V30 33 C -3.5421 0.2334 -1.2657 0
M  V30 34 C -5.0905 -0.2866 1.0956 0
M  V30 35 C -5.0234 0.2159 -1.3267 0
M  V30 36 O -5.7407 -0.4762 2.1608 0
M  V30 37 N -5.7869 -0.0377 -0.1362 0
M  V30 38 O -5.6137 0.4039 -2.4266 0
M  V30 39 C -7.2265 -0.0384 -0.1762 0
M  V30 40 C -7.9218 1.1004 -0.6096 0
M  V30 41 C -7.9447 -1.1735 0.2285 0
M  V30 42 C -9.3237 1.1076 -0.6455 0
M  V30 43 C -9.3469 -1.177 0.1966 0
M  V30 44 C -10.0321 -0.0262 -0.2203 0
M  V30 45 C -10.0587 2.3478 -1.0598 0
M  V30 46 C -10.1108 -2.3752 0.6771 0
M  V30 47 H 3.2624 -1.1312 3.3015 0
M  V30 48 H 7.399 -1.3027 -1.4462 0
M  V30 49 H 7.294 1.3402 1.9408 0
M  V30 50 H 0.8978 -1.1529 3.2681 0
M  V30 51 H 3.4348 1.1351 -3.0478 0
M  V30 52 H 1.0718 1.1287 -3.1533 0
M  V30 53 H 11.0705 -0.0082 0.3831 0
M  V30 54 H 11.1412 -1.1839 -1.7372 0
M  V30 55 H 9.6219 -1.4997 -2.6461 0
M  V30 56 H 10.1103 -2.6053 -1.2986 0
M  V30 57 H 11.0218 1.7528 2.0529 0
M  V30 58 H 9.4599 2.5011 2.5329 0
M  V30 59 H 9.9737 0.9352 3.2775 0
M  V30 60 H -1.1204 -0.7442 3.3294 0
M  V30 61 H -0.9346 0.6968 -3.3309 0
M  V30 62 H -3.4833 -0.7417 3.2262 0
M  V30 63 H -3.2993 0.6763 -3.364 0
M  V30 64 H -7.3692 1.9846 -0.9042 0
M  V30 65 H -7.4091 -2.0532 0.5642 0
M  V30 66 H -11.1158 -0.0138 -0.2146 0
M  V30 67 H -9.4949 2.8894 -1.8488 0
M  V30 68 H -10.183 3.0141 -0.1812 0
M  V30 69 H -11.0604 2.0949 -1.4667 0
M  V30 70 H -10.3436 -2.2564 1.7559 0
M  V30 71 H -9.5192 -3.3044 0.5341 0
M  V30 72 H -11.0604 -2.4835 0.1115 0
M  V30 END ATOM
M  V30 BEGIN BOND
M  V30 1 2 1 2
M  V30 2 1 2 3
M  V30 3 1 2 4
M  V30 4 1 3 5
M  V30 5 1 3 6
M  V30 6 1 4 7
M  V30 7 2 4 8
M  V30 8 2 5 9
M  V30 9 1 5 10
M  V30 10 2 6 11
M  V30 11 1 6 12
M  V30 12 1 7 13
M  V30 13 1 8 14
M  V30 14 1 10 15
M  V30 15 1 11 16
M  V30 16 2 12 17
M  V30 17 1 13 18
M  V30 18 2 13 19
M  V30 19 2 15 20
M  V30 20 2 16 21
M  V30 21 1 16 22
M  V30 22 1 17 23
M  V30 23 1 18 24
M  V30 24 1 19 25
M  V30 25 1 24 26
M  V30 26 2 24 27
M  V30 27 1 25 28
M  V30 28 1 26 29
M  V30 29 1 27 30
M  V30 30 2 28 31
M  V30 31 1 29 32
M  V30 32 2 29 33
M  V30 33 1 32 34
M  V30 34 1 33 35
M  V30 35 2 34 36
M  V30 36 1 34 37
M  V30 37 2 35 38
M  V30 38 1 37 39
M  V30 39 2 39 40
M  V30 40 1 39 41
M  V30 41 1 40 42
M  V30 42 2 41 43
M  V30 43 2 42 44
M  V30 44 1 42 45
M  V30 45 1 43 46
M  V30 46 2 7 10
M  V30 47 2 14 18
M  V30 48 1 17 21
M  V30 49 1 19 20
M  V30 50 2 25 26
M  V30 51 2 30 32
M  V30 52 1 31 33
M  V30 53 1 35 37
M  V30 54 1 43 44
M  V30 55 1 8 47
M  V30 56 1 11 48
M  V30 57 1 12 49
M  V30 58 1 14 50
M  V30 59 1 15 51
M  V30 60 1 20 52
M  V30 61 1 21 53
M  V30 62 1 22 54
M  V30 63 1 22 55
M  V30 64 1 22 56
M  V30 65 1 23 57
M  V30 66 1 23 58
M  V30 67 1 23 59
M  V30 68 1 27 60
M  V30 69 1 28 61
M  V30 70 1 30 62
M  V30 71 1 31 63
M  V30 72 1 40 64
M  V30 73 1 41 65
M  V30 74 1 44 66
M  V30 75 1 45 67
M  V30 76 1 45 68
M  V30 77 1 45 69
M  V30 78 1 46 70
M  V30 79 1 46 71
M  V30 80 1 46 72
M  V30 END BOND
M  V30 END CTAB
M  END
>  <Structure No>
1447

>  <LogS>
-7.476148795

>  <MMFF94 Energy>
156.28

$$$$
Compound 1448
Actelion Java MolfileCreator 2.0

  0  0  0  0  0  0              0 V3000
M  V30 BEGIN CTAB
M  V30 COUNTS 48 50 0 0 0
M  V30 BEGIN ATOM
M  V30 1 S 2.5258 0.7328 1.0586 0
M  V30 2 N 3.1196 0.1118 2.4865 0
M  V30 3 C 3.5141 -0.0351 -0.0529 0
M  V30 4 C 4.1416 -0.6966 2.1 0
M  V30 5 N 3.654 0.2674 -1.4505 0
M  V30 6 C 4.3945 -0.7851 0.7125 0
M  V30 7 C 4.9446 -1.3871 3.0044 0
M  V30 8 N 2.7083 0.625 -2.2325 0
M  V30 9 C 5.4457 -1.5671 0.2243 0
M  V30 10 C 5.9942 -2.1804 2.5222 0
M  V30 11 C 1.3125 0.6217 -1.9015 0
M  V30 12 C 6.2505 -2.2859 1.1352 0
M  V30 13 C 0.6991 -0.5259 -1.3839 0
M  V30 14 C 0.5322 1.7399 -2.2003 0
M  V30 15 N 7.3243 -3.1134 0.6534 0 CHG=1
M  V30 16 C -0.6723 -0.5373 -1.1181 0
M  V30 17 C -0.8392 1.7389 -1.9275 0
M  V30 18 O 8.0353 -3.7625 1.4487 0
M  V30 19 O 7.5861 -3.2032 -0.6947 0 CHG=-1
M  V30 20 C -1.4738 0.6013 -1.3711 0
M  V30 21 N -2.906 0.5969 -1.0822 0
M  V30 22 C -3.626 -0.6563 -0.7821 0
M  V30 23 C -3.7124 1.8275 -1.1646 0
M  V30 24 C -3.5195 -1.0296 0.7053 0
M  V30 25 C -4.2162 2.0522 -2.5878 0
M  V30 26 C -4.3232 -0.1059 1.5653 0
M  V30 27 O -5.5784 -0.2321 1.6167 0
M  V30 28 O -3.6729 0.891 2.303 0
M  V30 29 C -4.3737 1.7948 3.1476 0
M  V30 30 H 4.7704 -1.3018 4.0727 0
M  V30 31 H 5.6244 -1.6253 -0.8418 0
M  V30 32 H 6.6099 -2.7117 3.2357 0
M  V30 33 H 1.2834 -1.4179 -1.1939 0
M  V30 34 H 0.9911 2.6207 -2.6364 0
M  V30 35 H -1.0876 -1.4508 -0.7195 0
M  V30 36 H -1.3888 2.6349 -2.1735 0
M  V30 37 H -3.2377 -1.4815 -1.4164 0
M  V30 38 H -4.7018 -0.5657 -1.0574 0
M  V30 39 H -4.5939 1.7563 -0.4917 0
M  V30 40 H -3.1362 2.7052 -0.8038 0
M  V30 41 H -2.464 -1.0128 1.045 0
M  V30 42 H -3.8984 -2.0644 0.8434 0
M  V30 43 H -3.3727 2.0794 -3.3101 0
M  V30 44 H -4.7623 3.0167 -2.6394 0
M  V30 45 H -4.9112 1.2355 -2.8798 0
M  V30 46 H -4.9283 1.2328 3.9301 0
M  V30 47 H -3.6432 2.4679 3.6456 0
M  V30 48 H -5.0807 2.4078 2.5471 0
M  V30 END ATOM
M  V30 BEGIN BOND
M  V30 1 1 1 2
M  V30 2 1 1 3
M  V30 3 2 2 4
M  V30 4 1 3 5
M  V30 5 2 3 6
M  V30 6 1 4 7
M  V30 7 2 5 8
M  V30 8 1 6 9
M  V30 9 2 7 10
M  V30 10 1 8 11
M  V30 11 2 9 12
M  V30 12 2 11 13
M  V30 13 1 11 14
M  V30 14 1 12 15
M  V30 15 1 13 16
M  V30 16 2 14 17
M  V30 17 2 15 18
M  V30 18 1 15 19
M  V30 19 2 16 20
M  V30 20 1 20 21
M  V30 21 1 21 22
M  V30 22 1 21 23
M  V30 23 1 22 24
M  V30 24 1 23 25
M  V30 25 1 24 26
M  V30 26 2 26 27
M  V30 27 1 26 28
M  V30 28 1 28 29
M  V30 29 1 4 6
M  V30 30 1 10 12
M  V30 31 1 17 20
M  V30 32 1 7 30
M  V30 33 1 9 31
M  V30 34 1 10 32
M  V30 35 1 13 33
M  V30 36 1 14 34
M  V30 37 1 16 35
M  V30 38 1 17 36
M  V30 39 1 22 37
M  V30 40 1 22 38
M  V30 41 1 23 39
M  V30 42 1 23 40
M  V30 43 1 24 41
M  V30 44 1 24 42
M  V30 45 1 25 43
M  V30 46 1 25 44
M  V30 47 1 25 45
M  V30 48 1 29 46
M  V30 49 1 29 47
M  V30 50 1 29 48
M  V30 END BOND
M  V30 END CTAB
M  END
>  <Structure No>
1448

>  <LogS>
-7.315402454

>  <MMFF94 Energy>
80.693

$$$$
Compound 1449
Actelion Java MolfileCreator 2.0

  0  0  0  0  0  0              0 V3000
M  V30 BEGIN CTAB
M  V30 COUNTS 86 85 0 0 0
M  V30 BEGIN ATOM
M  V30 1 O -1.3291 0.7816 1.0944 0
M  V30 2 C -0.5657 0.2329 0.2548 0
M  V30 3 O 0.0621 0.9819 -0.7452 0
M  V30 4 C -0.2607 -1.2281 0.3719 0
M  V30 5 C -0.059 2.3973 -0.8776 0
M  V30 6 C 0.7754 -1.5149 1.4741 0
M  V30 7 C -1.0665 2.7661 -1.9751 0
M  V30 8 C 2.103 -0.746 1.3243 0
M  V30 9 C -2.5245 2.4141 -1.6345 0
M  V30 10 C 2.9441 -1.231 0.13 0
M  V30 11 C -3.0969 3.2956 -0.5074 0
M  V30 12 C 4.1468 -0.3157 -0.1542 0
M  V30 13 C -4.6226 3.1291 -0.3294 0
M  V30 14 C 5.2623 -0.4518 0.8962 0
M  V30 15 C -5.0213 2.2141 0.8424 0
M  V30 16 C 6.4087 0.5532 0.6804 0
M  V30 17 C -4.9108 0.7204 0.5011 0
M  V30 18 C 7.161 0.4095 -0.6581 0
M  V30 19 C -5.2656 -0.1942 1.6881 0
M  V30 20 C 7.7721 -0.9824 -0.917 0
M  V30 21 C -6.6891 -0.0202 2.2559 0
M  V30 22 C 8.7461 -1.4793 0.1707 0
M  V30 23 C -7.8245 -0.1717 1.2271 0
M  V30 24 C 9.9539 -0.5602 0.4279 0
M  V30 25 C -7.8962 -1.5822 0.6226 0
M  V30 26 C 10.8673 -0.4218 -0.7989 0
M  V30 27 C -9.1248 -1.7244 -0.2858 0
M  V30 28 C 12.1371 0.3515 -0.4533 0
M  V30 29 C -9.2258 -3.1438 -0.8576 0
M  V30 30 C -10.4677 -3.2967 -1.7306 0
M  V30 31 H 0.091 -1.6188 -0.6052 0
M  V30 32 H -1.1994 -1.7723 0.6144 0
M  V30 33 H -0.304 2.8815 0.0915 0
M  V30 34 H 0.9337 2.7923 -1.1832 0
M  V30 35 H 0.3256 -1.2473 2.4557 0
M  V30 36 H 0.9828 -2.6073 1.4984 0
M  V30 37 H -0.7812 2.2319 -2.9071 0
M  V30 38 H -0.9881 3.8549 -2.1863 0
M  V30 39 H 2.6829 -0.9008 2.2594 0
M  V30 40 H 1.906 0.3443 1.2404 0
M  V30 41 H -3.1272 2.5728 -2.5556 0
M  V30 42 H -2.5979 1.3393 -1.3786 0
M  V30 43 H 3.2926 -2.2727 0.3117 0
M  V30 44 H 2.3177 -1.2411 -0.787 0
M  V30 45 H -2.5701 3.0969 0.4499 0
M  V30 46 H -2.8974 4.3602 -0.7703 0
M  V30 47 H 3.8073 0.7422 -0.2196 0
M  V30 48 H 4.5526 -0.6004 -1.1481 0
M  V30 49 H -5.1121 2.7901 -1.2694 0
M  V30 50 H -5.046 4.1357 -0.1094 0
M  V30 51 H 5.6539 -1.4901 0.9029 0
M  V30 52 H 4.8457 -0.2554 1.9053 0
M  V30 53 H -6.0793 2.4449 1.0909 0
M  V30 54 H -4.4093 2.4501 1.74 0
M  V30 55 H 5.9928 1.5841 0.7393 0
M  V30 56 H 7.1297 0.4597 1.5212 0
M  V30 57 H -3.8663 0.4886 0.2214 0
M  V30 58 H -5.5474 0.4787 -0.3755 0
M  V30 59 H 7.9641 1.1753 -0.6979 0
M  V30 60 H 6.4719 0.6557 -1.4936 0
M  V30 61 H -4.5388 -0.0058 2.5085 0
M  V30 62 H -5.1208 -1.2512 1.3785 0
M  V30 63 H 8.2929 -0.9656 -1.8971 0
M  V30 64 H 6.9526 -1.7246 -1.0231 0
M  V30 65 H -6.8375 -0.7691 3.065 0
M  V30 66 H -6.7741 0.9759 2.7389 0
M  V30 67 H 8.1939 -1.6194 1.124 0
M  V30 68 H 9.1185 -2.485 -0.1252 0
M  V30 69 H -7.7219 0.5859 0.4208 0
M  V30 70 H -8.7826 0.0416 1.7512 0
M  V30 71 H 9.6126 0.4421 0.7647 0
M  V30 72 H 10.5393 -1.0019 1.2655 0
M  V30 73 H -7.9569 -2.3331 1.4425 0
M  V30 74 H -6.9813 -1.7801 0.0227 0
M  V30 75 H 11.1505 -1.4294 -1.1748 0
M  V30 76 H 10.3362 0.1237 -1.608 0
M  V30 77 H -10.0453 -1.4989 0.2986 0
M  V30 78 H -9.0508 -0.9927 -1.1215 0
M  V30 79 H 11.8801 1.377 -0.107 0
M  V30 80 H 12.7052 -0.1726 0.3451 0
M  V30 81 H 12.7825 0.4303 -1.3549 0
M  V30 82 H -8.3241 -3.3664 -1.47 0
M  V30 83 H -9.2788 -3.8824 -0.0283 0
M  V30 84 H -10.4269 -2.5928 -2.588 0
M  V30 85 H -10.521 -4.3344 -2.1251 0
M  V30 86 H -11.3853 -3.095 -1.1361 0
M  V30 END ATOM
M  V30 BEGIN BOND
M  V30 1 2 1 2
M  V30 2 1 2 3
M  V30 3 1 2 4
M  V30 4 1 3 5
M  V30 5 1 4 6
M  V30 6 1 5 7
M  V30 7 1 6 8
M  V30 8 1 7 9
M  V30 9 1 8 10
M  V30 10 1 9 11
M  V30 11 1 10 12
M  V30 12 1 11 13
M  V30 13 1 12 14
M  V30 14 1 13 15
M  V30 15 1 14 16
M  V30 16 1 15 17
M  V30 17 1 16 18
M  V30 18 1 17 19
M  V30 19 1 18 20
M  V30 20 1 19 21
M  V30 21 1 20 22
M  V30 22 1 21 23
M  V30 23 1 22 24
M  V30 24 1 23 25
M  V30 25 1 24 26
M  V30 26 1 25 27
M  V30 27 1 26 28
M  V30 28 1 27 29
M  V30 29 1 29 30
M  V30 30 1 4 31
M  V30 31 1 4 32
M  V30 32 1 5 33
M  V30 33 1 5 34
M  V30 34 1 6 35
M  V30 35 1 6 36
M  V30 36 1 7 37
M  V30 37 1 7 38
M  V30 38 1 8 39
M  V30 39 1 8 40
M  V30 40 1 9 41
M  V30 41 1 9 42
M  V30 42 1 10 43
M  V30 43 1 10 44
M  V30 44 1 11 45
M  V30 45 1 11 46
M  V30 46 1 12 47
M  V30 47 1 12 48
M  V30 48 1 13 49
M  V30 49 1 13 50
M  V30 50 1 14 51
M  V30 51 1 14 52
M  V30 52 1 15 53
M  V30 53 1 15 54
M  V30 54 1 16 55
M  V30 55 1 16 56
M  V30 56 1 17 57
M  V30 57 1 17 58
M  V30 58 1 18 59
M  V30 59 1 18 60
M  V30 60 1 19 61
M  V30 61 1 19 62
M  V30 62 1 20 63
M  V30 63 1 20 64
M  V30 64 1 21 65
M  V30 65 1 21 66
M  V30 66 1 22 67
M  V30 67 1 22 68
M  V30 68 1 23 69
M  V30 69 1 23 70
M  V30 70 1 24 71
M  V30 71 1 24 72
M  V30 72 1 25 73
M  V30 73 1 25 74
M  V30 74 1 26 75
M  V30 75 1 26 76
M  V30 76 1 27 77
M  V30 77 1 27 78
M  V30 78 1 28 79
M  V30 79 1 28 80
M  V30 80 1 28 81
M  V30 81 1 29 82
M  V30 82 1 29 83
M  V30 83 1 30 84
M  V30 84 1 30 85
M  V30 85 1 30 86
M  V30 END BOND
M  V30 END CTAB
M  END
>  <Structure No>
1449

>  <LogS>
-7.327107482

>  <MMFF94 Energy>
-14.428

$$$$
Compound 1450
Actelion Java MolfileCreator 2.0

  0  0  0  0  0  0              0 V3000
M  V30 BEGIN CTAB
M  V30 COUNTS 53 55 0 0 0
M  V30 BEGIN ATOM
M  V30 1 C 2.384 -0.2382 -0.2382 0
M  V30 2 C 3.862 -0.209 -0.3817 0
M  V30 3 C 1.6115 -1.1472 -0.9815 0
M  V30 4 C 1.7336 0.6441 0.6414 0
M  V30 5 C 4.4601 -0.3431 -1.6476 0
M  V30 6 C 4.687 -0.042 0.7453 0
M  V30 7 C 0.2208 -1.175 -0.8464 0
M  V30 8 C 0.3431 0.617 0.7759 0
M  V30 9 C 5.8509 -0.3142 -1.7824 0
M  V30 10 C 6.0777 -0.0143 0.6092 0
M  V30 11 C -0.4294 -0.2962 0.0359 0
M  V30 12 C 6.6696 -0.1615 -0.6537 0
M  V30 13 C -1.9414 -0.3335 0.1693 0 CFG=1
M  V30 14 C 8.1658 -0.0972 -0.8035 0
M  V30 15 C -2.5889 0.9676 -0.3655 0
M  V30 16 C -2.3758 -0.6158 1.6178 0
M  V30 17 C 8.6249 1.3397 -1.0264 0
M  V30 18 C -3.9844 1.2503 0.232 0
M  V30 19 C -3.9026 -0.809 1.7267 0
M  V30 20 C -4.7131 -0.0469 0.6425 0 CFG=2
M  V30 21 C -6.1508 0.2192 1.1544 0
M  V30 22 C -7.1257 0.7986 0.1118 0
M  V30 23 C -7.3307 -0.1144 -1.0961 0
M  V30 24 H 2.0842 -1.8499 -1.6559 0
M  V30 25 H 2.2988 1.3701 1.2124 0
M  V30 26 H 3.8516 -0.4495 -2.5368 0
M  V30 27 H 4.2573 0.0524 1.7346 0
M  V30 28 H -0.347 -1.8882 -1.4307 0
M  V30 29 H -0.1293 1.3163 1.4534 0
M  V30 30 H 6.2898 -0.4064 -2.7681 0
M  V30 31 H 6.6937 0.1198 1.4899 0
M  V30 32 H -2.3314 -1.1754 -0.4476 0
M  V30 33 H 8.659 -0.5028 0.1066 0
M  V30 34 H 8.4912 -0.7235 -1.6625 0
M  V30 35 H -1.9442 1.8489 -0.1574 0
M  V30 36 H -2.675 0.886 -1.4715 0
M  V30 37 H -1.8644 -1.5276 1.9972 0
M  V30 38 H -2.0763 0.2336 2.27 0
M  V30 39 H 8.3375 1.9748 -0.1612 0
M  V30 40 H 8.1677 1.7515 -1.9514 0
M  V30 41 H 9.7296 1.3648 -1.1343 0
M  V30 42 H -4.571 1.8106 -0.5243 0
M  V30 43 H -3.8764 1.9044 1.1257 0
M  V30 44 H -4.2141 -0.4865 2.745 0
M  V30 45 H -4.1379 -1.893 1.645 0
M  V30 46 H -4.7713 -0.7068 -0.2498 0
M  V30 47 H -6.1065 0.9219 2.0154 0
M  V30 48 H -6.5804 -0.7338 1.5353 0
M  V30 49 H -8.1107 0.9387 0.608 0
M  V30 50 H -6.796 1.8021 -0.2267 0
M  V30 51 H -6.4269 -0.1204 -1.74 0
M  V30 52 H -7.5632 -1.1498 -0.7681 0
M  V30 53 H -8.1799 0.2629 -1.7038 0
M  V30 END ATOM
M  V30 BEGIN BOND
M  V30 1 1 1 2
M  V30 2 2 1 3
M  V30 3 1 1 4
M  V30 4 2 2 5
M  V30 5 1 2 6
M  V30 6 1 3 7
M  V30 7 2 4 8
M  V30 8 1 5 9
M  V30 9 2 6 10
M  V30 10 2 7 11
M  V30 11 2 9 12
M  V30 12 1 11 13
M  V30 13 1 12 14
M  V30 14 1 13 15
M  V30 15 1 13 16
M  V30 16 1 14 17
M  V30 17 1 15 18
M  V30 18 1 16 19
M  V30 19 1 18 20
M  V30 20 1 20 21
M  V30 21 1 21 22
M  V30 22 1 22 23
M  V30 23 1 8 11
M  V30 24 1 10 12
M  V30 25 1 19 20
M  V30 26 1 3 24
M  V30 27 1 4 25
M  V30 28 1 5 26
M  V30 29 1 6 27
M  V30 30 1 7 28
M  V30 31 1 8 29
M  V30 32 1 9 30
M  V30 33 1 10 31
M  V30 34 1 13 32
M  V30 35 1 14 33
M  V30 36 1 14 34
M  V30 37 1 15 35
M  V30 38 1 15 36
M  V30 39 1 16 37
M  V30 40 1 16 38
M  V30 41 1 17 39
M  V30 42 1 17 40
M  V30 43 1 17 41
M  V30 44 1 18 42
M  V30 45 1 18 43
M  V30 46 1 19 44
M  V30 47 1 19 45
M  V30 48 1 20 46
M  V30 49 1 21 47
M  V30 50 1 21 48
M  V30 51 1 22 49
M  V30 52 1 22 50
M  V30 53 1 23 51
M  V30 54 1 23 52
M  V30 55 1 23 53
M  V30 END BOND
M  V30 BEGIN COLLECTION
M  V30 MDLV30/STEABS ATOMS=(2 13 20)
M  V30 END COLLECTION
M  V30 END CTAB
M  END
>  <Structure No>
1450

>  <LogS>
-7.185390564

>  <MMFF94 Energy>
56.475

$$$$
Compound 1451
Actelion Java MolfileCreator 2.0

  0  0  0  0  0  0              0 V3000
M  V30 BEGIN CTAB
M  V30 COUNTS 96 97 0 0 0
M  V30 BEGIN ATOM
M  V30 1 C 8.7092 0.6372 -1.9126 0
M  V30 2 C 9.3839 0.338 -3.0689 0
M  V30 3 C 7.8496 1.9338 -1.9376 0
M  V30 4 C 8.9787 -0.1796 -0.6611 0
M  V30 5 C 10.3479 -0.8498 -3.1347 0
M  V30 6 C 9.3327 1.1577 -4.3644 0
M  V30 7 C 6.7041 2.3888 -1.4737 0
M  V30 8 C 10.4469 -0.6025 -0.6141 0
M  V30 9 C 8.8089 0.6667 0.6422 0
M  V30 10 C 8.0809 -1.4316 -0.6076 0
M  V30 11 C 10.8075 -1.4538 -1.8115 0
M  V30 12 C 5.694 1.9497 -0.4624 0
M  V30 13 C 5.2283 2.8946 0.4128 0
M  V30 14 C 5.355 0.5041 -0.232 0
M  V30 15 C 4.228 2.5594 1.4815 0
M  V30 16 C 3.4027 3.4738 2.111 0
M  V30 17 C 2.8123 4.7442 1.5565 0
M  V30 18 C 1.4908 4.6327 1.4374 0
M  V30 19 C 3.4088 5.4344 0.311 0
M  V30 20 C 1.0004 3.3578 0.8829 0
M  V30 21 C -0.2212 3.324 0.3993 0
M  V30 22 C -0.9161 2.0117 0.4818 0
M  V30 23 C -1.8354 1.8508 1.4143 0
M  V30 24 C -2.9523 1.0741 2.1866 0
M  V30 25 C -1.2498 0.449 0.7141 0
M  V30 26 C -3.9694 0.5683 1.5037 0
M  V30 27 C -5.0024 -0.3528 2.0436 0
M  V30 28 C -5.5132 -1.2246 1.1307 0
M  V30 29 C -6.9215 -1.6592 1.411 0
M  V30 30 C -4.7628 -1.7462 -0.0467 0
M  V30 31 C -7.6214 -2.2297 0.4384 0
M  V30 32 C -9.0841 -2.5795 0.3584 0
M  V30 33 C -9.6674 -3.03 -0.7875 0
M  V30 34 C -9.9134 -2.4661 1.6706 0
M  V30 35 C -11.0724 -3.6826 -0.7469 0
M  V30 36 C -8.978 -2.9605 -2.104 0
M  V30 37 C -11.4786 -2.8332 1.5383 0
M  V30 38 C -9.3162 -3.4722 2.7054 0
M  V30 39 C -9.8712 -1.0161 2.2642 0
M  V30 40 C -11.982 -2.8248 0.1068 0
M  V30 41 H 8.2422 2.6476 -2.6819 0
M  V30 42 H 9.9146 -1.6243 -3.7975 0
M  V30 43 H 11.278 -0.4877 -3.7163 0
M  V30 44 H 9.8033 2.1573 -4.1776 0
M  V30 45 H 9.8577 0.6271 -5.2059 0
M  V30 46 H 8.2443 1.2866 -4.6334 0
M  V30 47 H 6.3765 3.3792 -1.8662 0
M  V30 48 H 11.1183 0.2751 -0.6093 0
M  V30 49 H 10.6446 -1.1998 0.2837 0
M  V30 50 H 7.8887 1.3568 0.6175 0
M  V30 51 H 8.7213 0.0106 1.5702 0
M  V30 52 H 9.6532 1.3292 0.8153 0
M  V30 53 H 8.6044 -2.3468 -0.3972 0
M  V30 54 H 7.443 -1.5572 -1.5502 0
M  V30 55 H 7.3437 -1.4265 0.2717 0
M  V30 56 H 10.4046 -2.5228 -1.744 0
M  V30 57 H 11.9434 -1.5601 -1.8368 0
M  V30 58 H 5.4527 3.8892 0.1676 0
M  V30 59 H 4.2575 0.3806 -0.0991 0
M  V30 60 H 5.7252 -0.093 -1.0732 0
M  V30 61 H 5.8353 0.1646 0.7933 0
M  V30 62 H 4.3048 1.5696 1.964 0
M  V30 63 H 2.8525 3.191 2.9666 0
M  V30 64 H 0.8711 5.5679 1.3463 0
M  V30 65 H 4.4566 5.7509 0.5436 0
M  V30 66 H 2.8073 6.3472 0.0723 0
M  V30 67 H 3.402 4.7422 -0.612 0
M  V30 68 H 1.5837 2.3776 1.0024 0
M  V30 69 H -0.8523 4.3148 0.376 0
M  V30 70 H -1.5578 2.6195 1.2403 0
M  V30 71 H -3.0432 1.1115 3.2762 0
M  V30 72 H -1.2689 0.1275 -0.4999 0
M  V30 73 H -1.9378 -0.5004 0.7827 0
M  V30 74 H -0.4774 0.0277 1.4641 0
M  V30 75 H -3.7522 0.5108 0.389 0
M  V30 76 H -5.4913 -0.1344 2.9847 0
M  V30 77 H -7.424 -1.5451 2.4017 0
M  V30 78 H -3.6826 -1.4253 -0.1256 0
M  V30 79 H -5.1578 -1.4294 -1.0343 0
M  V30 80 H -4.6851 -2.8545 0.0293 0
M  V30 81 H -7.1078 -2.2892 -0.5582 0
M  V30 82 H -10.9697 -4.618 -0.3056 0
M  V30 83 H -11.4806 -3.7075 -1.7818 0
M  V30 84 H -9.6123 -3.3197 -2.9542 0
M  V30 85 H -8.5724 -1.9523 -2.2656 0
M  V30 86 H -8.1568 -3.7083 -2.1067 0
M  V30 87 H -11.7171 -3.8428 1.9222 0
M  V30 88 H -12.1388 -2.1762 2.1604 0
M  V30 89 H -9.6772 -3.2652 3.7864 0
M  V30 90 H -8.2106 -3.5478 2.6495 0
M  V30 91 H -9.7549 -4.5362 2.5289 0
M  V30 92 H -9.4294 -0.9848 3.3021 0
M  V30 93 H -10.8054 -0.4672 2.2946 0
M  V30 94 H -9.2052 -0.3889 1.6622 0
M  V30 95 H -13.012 -3.2485 0.0748 0
M  V30 96 H -12.0435 -1.736 -0.2793 0
M  V30 END ATOM
M  V30 BEGIN BOND
M  V30 1 2 1 2
M  V30 2 1 1 3
M  V30 3 1 1 4
M  V30 4 1 2 5
M  V30 5 1 2 6
M  V30 6 2 3 7
M  V30 7 1 4 8
M  V30 8 1 4 9
M  V30 9 1 4 10
M  V30 10 1 5 11
M  V30 11 1 7 12
M  V30 12 2 12 13
M  V30 13 1 12 14
M  V30 14 1 13 15
M  V30 15 2 15 16
M  V30 16 1 16 17
M  V30 17 2 17 18
M  V30 18 1 17 19
M  V30 19 1 18 20
M  V30 20 2 20 21
M  V30 21 1 21 22
M  V30 22 2 22 23
M  V30 23 1 23 24
M  V30 24 1 23 25
M  V30 25 2 24 26
M  V30 26 1 26 27
M  V30 27 2 27 28
M  V30 28 1 28 29
M  V30 29 1 28 30
M  V30 30 2 29 31
M  V30 31 1 31 32
M  V30 32 2 32 33
M  V30 33 1 32 34
M  V30 34 1 33 35
M  V30 35 1 33 36
M  V30 36 1 34 37
M  V30 37 1 34 38
M  V30 38 1 34 39
M  V30 39 1 35 40
M  V30 40 1 8 11
M  V30 41 1 37 40
M  V30 42 1 3 41
M  V30 43 1 5 42
M  V30 44 1 5 43
M  V30 45 1 6 44
M  V30 46 1 6 45
M  V30 47 1 6 46
M  V30 48 1 7 47
M  V30 49 1 8 48
M  V30 50 1 8 49
M  V30 51 1 9 50
M  V30 52 1 9 51
M  V30 53 1 9 52
M  V30 54 1 10 53
M  V30 55 1 10 54
M  V30 56 1 10 55
M  V30 57 1 11 56
M  V30 58 1 11 57
M  V30 59 1 13 58
M  V30 60 1 14 59
M  V30 61 1 14 60
M  V30 62 1 14 61
M  V30 63 1 15 62
M  V30 64 1 16 63
M  V30 65 1 18 64
M  V30 66 1 19 65
M  V30 67 1 19 66
M  V30 68 1 19 67
M  V30 69 1 20 68
M  V30 70 1 21 69
M  V30 71 1 22 70
M  V30 72 1 24 71
M  V30 73 1 25 72
M  V30 74 1 25 73
M  V30 75 1 25 74
M  V30 76 1 26 75
M  V30 77 1 27 76
M  V30 78 1 29 77
M  V30 79 1 30 78
M  V30 80 1 30 79
M  V30 81 1 30 80
M  V30 82 1 31 81
M  V30 83 1 35 82
M  V30 84 1 35 83
M  V30 85 1 36 84
M  V30 86 1 36 85
M  V30 87 1 36 86
M  V30 88 1 37 87
M  V30 89 1 37 88
M  V30 90 1 38 89
M  V30 91 1 38 90
M  V30 92 1 38 91
M  V30 93 1 39 92
M  V30 94 1 39 93
M  V30 95 1 39 94
M  V30 96 1 40 95
M  V30 97 1 40 96
M  V30 END BOND
M  V30 END CTAB
M  END
>  <Structure No>
1451

>  <LogS>
-7.553792438

>  <MMFF94 Energy>
103.03

$$$$
Compound 1452
Actelion Java MolfileCreator 2.0

  0  0  0  0  0  0              0 V3000
M  V30 BEGIN CTAB
M  V30 COUNTS 121 120 0 0 0
M  V30 BEGIN ATOM
M  V30 1 O 1.0159 0.7814 0.0781 0
M  V30 2 C 0.8973 -0.4038 -0.3385 0
M  V30 3 N 1.9755 -1.0274 -1.0484 0
M  V30 4 C -0.3961 -1.1501 -0.1592 0
M  V30 5 C 3.2881 -0.4016 -1.2009 0
M  V30 6 C -1.272 -0.5685 0.9636 0
M  V30 7 C 4.1022 -0.4867 0.0993 0
M  V30 8 C -2.421 -1.5063 1.377 0
M  V30 9 C 4.288 -1.9226 0.6267 0
M  V30 10 C -3.4019 -1.8732 0.2488 0
M  V30 11 C 4.9828 -2.8953 -0.3482 0
M  V30 12 C -4.2614 -0.683 -0.2099 0
M  V30 13 C 6.3821 -2.4579 -0.8178 0
M  V30 14 C -5.1917 -1.0344 -1.387 0
M  V30 15 C 7.3999 -2.3901 0.3304 0
M  V30 16 C -6.1682 -2.1999 -1.1342 0
M  V30 17 C 8.8049 -2.0627 -0.1961 0
M  V30 18 C -7.0802 -2.0467 0.0991 0
M  V30 19 C 9.8817 -2.1564 0.8963 0
M  V30 20 C -8.1819 -0.9799 -0.0607 0
M  V30 21 C 9.7271 -1.0728 1.9783 0
M  V30 22 C -7.7881 0.3877 0.5254 0
M  V30 23 C 10.9547 -0.9935 2.9071 0
M  V30 24 C -8.9896 1.3329 0.6771 0
M  V30 25 C 11.9 0.1847 2.6032 0
M  V30 26 C -9.5613 1.7591 -0.6496 0
M  V30 27 C 12.7558 0.0038 1.3309 0
M  V30 28 C -10.5049 1.0373 -1.272 0
M  V30 29 C 12.1636 0.6422 0.0569 0
M  V30 30 C -11.1214 1.4878 -2.567 0
M  V30 31 C 12.0539 2.1816 0.0748 0
M  V30 32 C -12.0249 2.7224 -2.3973 0
M  V30 33 C 13.3677 2.9361 0.3584 0
M  V30 34 C -13.3283 2.434 -1.6248 0
M  V30 35 C 14.5236 2.6097 -0.6045 0
M  V30 36 C -13.1575 2.5538 -0.0997 0
M  V30 37 C 14.2132 3.0018 -2.0562 0
M  V30 38 C -14.4943 2.4844 0.6604 0
M  V30 39 C 15.4425 2.8424 -2.9459 0
M  V30 40 C -15.2692 1.1639 0.4895 0
M  V30 41 C -14.4788 -0.0638 0.9666 0
M  V30 42 C -15.3522 -1.3154 0.9677 0
M  V30 43 H 1.8138 -1.9543 -1.5021 0
M  V30 44 H -0.9467 -1.1122 -1.1212 0
M  V30 45 H -0.1612 -2.211 0.0697 0
M  V30 46 H 3.1639 0.6624 -1.493 0
M  V30 47 H 3.8424 -0.8968 -2.0254 0
M  V30 48 H -1.673 0.4195 0.6578 0
M  V30 49 H -0.641 -0.4008 1.8639 0
M  V30 50 H 3.5869 0.1074 0.8849 0
M  V30 51 H 5.0929 -0.0096 -0.0563 0
M  V30 52 H -1.9824 -2.445 1.7791 0
M  V30 53 H -2.9858 -1.035 2.2101 0
M  V30 54 H 3.2921 -2.342 0.8849 0
M  V30 55 H 4.8565 -1.8826 1.5792 0
M  V30 56 H -4.0702 -2.6647 0.6486 0
M  V30 57 H -2.86 -2.3134 -0.6136 0
M  V30 58 H 5.0665 -3.8872 0.1472 0
M  V30 59 H 4.3374 -3.0467 -1.2392 0
M  V30 60 H -3.5991 0.1396 -0.5527 0
M  V30 61 H -4.8513 -0.2907 0.6445 0
M  V30 62 H 6.7338 -3.205 -1.5633 0
M  V30 63 H 6.3289 -1.48 -1.3411 0
M  V30 64 H -5.7628 -0.1313 -1.6853 0
M  V30 65 H -4.5613 -1.2998 -2.2637 0
M  V30 66 H 7.092 -1.5982 1.0439 0
M  V30 67 H 7.4196 -3.3671 0.8615 0
M  V30 68 H -5.5865 -3.1412 -1.0307 0
M  V30 69 H -6.8008 -2.3323 -2.0395 0
M  V30 70 H 9.0705 -2.7858 -0.9981 0
M  V30 71 H 8.8121 -1.0436 -0.6435 0
M  V30 72 H -6.4862 -1.8856 1.0228 0
M  V30 73 H -7.5869 -3.0264 0.2415 0
M  V30 74 H 10.8715 -2.0609 0.4056 0
M  V30 75 H 9.8499 -3.1619 1.3699 0
M  V30 76 H -9.087 -1.3421 0.4772 0
M  V30 77 H -8.4565 -0.8703 -1.1313 0
M  V30 78 H 8.841 -1.3271 2.5989 0
M  V30 79 H 9.5194 -0.0832 1.5199 0
M  V30 80 H -7.3512 0.24 1.5368 0
M  V30 81 H -7.0184 0.8776 -0.1052 0
M  V30 82 H 10.5827 -0.8511 3.9454 0
M  V30 83 H 11.5203 -1.9499 2.9125 0
M  V30 84 H -9.7777 0.8655 1.309 0
M  V30 85 H -8.6468 2.246 1.2112 0
M  V30 86 H 12.6001 0.2645 3.4638 0
M  V30 87 H 11.3293 1.1338 2.5935 0
M  V30 88 H -9.2282 2.6996 -1.0788 0
M  V30 89 H 12.9217 -1.0788 1.1444 0
M  V30 90 H 13.7666 0.4253 1.5113 0
M  V30 91 H -10.8413 0.0973 -0.8423 0
M  V30 92 H 12.7837 0.3341 -0.8112 0
M  V30 93 H 11.1549 0.2299 -0.135 0
M  V30 94 H -10.3095 1.725 -3.2903 0
M  V30 95 H -11.713 0.6508 -2.9989 0
M  V30 96 H 11.649 2.5123 -0.9049 0
M  V30 97 H 11.2978 2.4956 0.8243 0
M  V30 98 H -11.4635 3.5602 -1.9296 0
M  V30 99 H -12.3057 3.0636 -3.4174 0
M  V30 100 H 13.159 4.0273 0.3055 0
M  V30 101 H 13.693 2.7331 1.4013 0
M  V30 102 H -14.092 3.1738 -1.9501 0
M  V30 103 H -13.7058 1.4248 -1.8952 0
M  V30 104 H 15.4176 3.1749 -0.2616 0
M  V30 105 H 14.7809 1.5312 -0.55 0
M  V30 106 H -12.4761 1.7711 0.2855 0
M  V30 107 H -12.6884 3.5344 0.1324 0
M  V30 108 H 13.8737 4.0596 -2.097 0
M  V30 109 H 13.4059 2.3533 -2.4576 0
M  V30 110 H -15.1432 3.3233 0.3257 0
M  V30 111 H -14.2909 2.6436 1.7424 0
M  V30 112 H 15.1836 3.1182 -3.9892 0
M  V30 113 H 16.2619 3.5071 -2.5983 0
M  V30 114 H 15.7928 1.7887 -2.9331 0
M  V30 115 H -16.2038 1.2459 1.0866 0
M  V30 116 H -15.573 1.0312 -0.5708 0
M  V30 117 H -14.0959 0.1102 1.9962 0
M  V30 118 H -13.6153 -0.2447 0.2908 0
M  V30 119 H -14.7468 -2.1914 1.2841 0
M  V30 120 H -15.7509 -1.5073 -0.0512 0
M  V30 121 H -16.1992 -1.1947 1.676 0
M  V30 END ATOM
M  V30 BEGIN BOND
M  V30 1 2 1 2
M  V30 2 1 2 3
M  V30 3 1 2 4
M  V30 4 1 3 5
M  V30 5 1 4 6
M  V30 6 1 5 7
M  V30 7 1 6 8
M  V30 8 1 7 9
M  V30 9 1 8 10
M  V30 10 1 9 11
M  V30 11 1 10 12
M  V30 12 1 11 13
M  V30 13 1 12 14
M  V30 14 1 13 15
M  V30 15 1 14 16
M  V30 16 1 15 17
M  V30 17 1 16 18
M  V30 18 1 17 19
M  V30 19 1 18 20
M  V30 20 1 19 21
M  V30 21 1 20 22
M  V30 22 1 21 23
M  V30 23 1 22 24
M  V30 24 1 23 25
M  V30 25 1 24 26
M  V30 26 1 25 27
M  V30 27 2 26 28
M  V30 28 1 27 29
M  V30 29 1 28 30
M  V30 30 1 29 31
M  V30 31 1 30 32
M  V30 32 1 31 33
M  V30 33 1 32 34
M  V30 34 1 33 35
M  V30 35 1 34 36
M  V30 36 1 35 37
M  V30 37 1 36 38
M  V30 38 1 37 39
M  V30 39 1 38 40
M  V30 40 1 40 41
M  V30 41 1 41 42
M  V30 42 1 3 43
M  V30 43 1 4 44
M  V30 44 1 4 45
M  V30 45 1 5 46
M  V30 46 1 5 47
M  V30 47 1 6 48
M  V30 48 1 6 49
M  V30 49 1 7 50
M  V30 50 1 7 51
M  V30 51 1 8 52
M  V30 52 1 8 53
M  V30 53 1 9 54
M  V30 54 1 9 55
M  V30 55 1 10 56
M  V30 56 1 10 57
M  V30 57 1 11 58
M  V30 58 1 11 59
M  V30 59 1 12 60
M  V30 60 1 12 61
M  V30 61 1 13 62
M  V30 62 1 13 63
M  V30 63 1 14 64
M  V30 64 1 14 65
M  V30 65 1 15 66
M  V30 66 1 15 67
M  V30 67 1 16 68
M  V30 68 1 16 69
M  V30 69 1 17 70
M  V30 70 1 17 71
M  V30 71 1 18 72
M  V30 72 1 18 73
M  V30 73 1 19 74
M  V30 74 1 19 75
M  V30 75 1 20 76
M  V30 76 1 20 77
M  V30 77 1 21 78
M  V30 78 1 21 79
M  V30 79 1 22 80
M  V30 80 1 22 81
M  V30 81 1 23 82
M  V30 82 1 23 83
M  V30 83 1 24 84
M  V30 84 1 24 85
M  V30 85 1 25 86
M  V30 86 1 25 87
M  V30 87 1 26 88
M  V30 88 1 27 89
M  V30 89 1 27 90
M  V30 90 1 28 91
M  V30 91 1 29 92
M  V30 92 1 29 93
M  V30 93 1 30 94
M  V30 94 1 30 95
M  V30 95 1 31 96
M  V30 96 1 31 97
M  V30 97 1 32 98
M  V30 98 1 32 99
M  V30 99 1 33 100
M  V30 100 1 33 101
M  V30 101 1 34 102
M  V30 102 1 34 103
M  V30 103 1 35 104
M  V30 104 1 35 105
M  V30 105 1 36 106
M  V30 106 1 36 107
M  V30 107 1 37 108
M  V30 108 1 37 109
M  V30 109 1 38 110
M  V30 110 1 38 111
M  V30 111 1 39 112
M  V30 112 1 39 113
M  V30 113 1 39 114
M  V30 114 1 40 115
M  V30 115 1 40 116
M  V30 116 1 41 117
M  V30 117 1 41 118
M  V30 118 1 42 119
M  V30 119 1 42 120
M  V30 120 1 42 121
M  V30 END BOND
M  V30 END CTAB
M  END
>  <Structure No>
1452

>  <LogS>
-7.770909423

>  <MMFF94 Energy>
-26.354

$$$$
Compound 1453
Actelion Java MolfileCreator 2.0

  0  0  0  0  0  0              0 V3000
M  V30 BEGIN CTAB
M  V30 COUNTS 68 71 0 0 0
M  V30 BEGIN ATOM
M  V30 1 O 1.429 1.7468 -0.5555 0
M  V30 2 C 1.3478 0.5008 -0.7361 0
M  V30 3 C 2.5616 -0.3432 -0.708 0
M  V30 4 C -0.0198 -0.1389 -0.9103 0 CFG=1
M  V30 5 C 3.7992 0.0721 -1.0369 0
M  V30 6 N -0.8951 0.0879 0.2888 0 CHG=1
M  V30 7 C -0.6307 0.456 -2.2232 0
M  V30 8 N 4.0438 1.3662 -1.6044 0
M  V30 9 C 4.9728 -0.8376 -0.7861 0
M  V30 10 C -2.2039 -0.6361 0.1545 0
M  V30 11 C -0.2162 -0.3555 1.5451 0
M  V30 12 C -1.3788 -0.5258 -3.0975 0
M  V30 13 C 5.4681 -0.6644 0.624 0
M  V30 14 C -3.3765 0.2519 -0.2171 0
M  V30 15 C -0.93 0.1324 2.7879 0
M  V30 16 C -2.5883 -0.1339 -3.6991 0
M  V30 17 C -0.8064 -1.7572 -3.4696 0
M  V30 18 C 4.9237 -1.433 1.666 0
M  V30 19 C 6.4295 0.3153 0.9211 0
M  V30 20 C -4.3384 -0.2272 -1.125 0
M  V30 21 C -3.6263 1.4677 0.4508 0
M  V30 22 C -0.9243 1.5003 3.1169 0
M  V30 23 C -1.5994 -0.7723 3.6314 0
M  V30 24 C -3.2584 -0.9934 -4.5731 0
M  V30 25 C -1.4792 -2.6148 -4.3448 0
M  V30 26 C 5.3484 -1.2348 2.9834 0
M  V30 27 C 6.8505 0.5109 2.24 0
M  V30 28 C -5.4634 0.5393 -1.439 0
M  V30 29 C -4.7547 2.2309 0.1347 0
M  V30 30 C -1.6028 1.9575 4.2516 0
M  V30 31 C -2.2695 -0.3122 4.7696 0
M  V30 32 C -2.7093 -2.2373 -4.8888 0
M  V30 33 C 6.3112 -0.264 3.2702 0
M  V30 34 C -5.6662 1.7726 -0.8176 0
M  V30 35 C -2.2774 1.0522 5.0761 0
M  V30 36 H 2.4333 -1.3622 -0.3622 0
M  V30 37 H 0.1393 -1.232 -1.0261 0
M  V30 38 H -1.0404 1.1211 0.3572 0
M  V30 39 H -1.2811 1.3205 -1.965 0
M  V30 40 H 0.1706 0.8745 -2.8736 0
M  V30 41 H 5.0192 1.7371 -1.6623 0
M  V30 42 H 3.2949 1.915 -2.0781 0
M  V30 43 H 4.6934 -1.899 -0.9693 0
M  V30 44 H 5.785 -0.6047 -1.5074 0
M  V30 45 H -2.5062 -1.142 1.0956 0
M  V30 46 H -2.1175 -1.4755 -0.5711 0
M  V30 47 H -0.126 -1.4646 1.5584 0
M  V30 48 H 0.8165 0.0353 1.6219 0
M  V30 49 H -3.0171 0.837 -3.4862 0
M  V30 50 H 0.1682 -2.0501 -3.1039 0
M  V30 51 H 4.1677 -2.1805 1.4607 0
M  V30 52 H 6.8487 0.9295 0.133 0
M  V30 53 H -4.2148 -1.1927 -1.6006 0
M  V30 54 H -2.965 1.8265 1.2257 0
M  V30 55 H -0.4037 2.2114 2.4876 0
M  V30 56 H -1.6112 -1.8316 3.4036 0
M  V30 57 H -4.2013 -0.6916 -5.0114 0
M  V30 58 H -1.0397 -3.5669 -4.6132 0
M  V30 59 H 4.9246 -1.8311 3.7821 0
M  V30 60 H 7.5911 1.2673 2.4629 0
M  V30 61 H -6.1822 0.1712 -2.159 0
M  V30 62 H -4.9319 3.1717 0.639 0
M  V30 63 H -1.6074 3.0142 4.4894 0
M  V30 64 H -2.788 -1.0125 5.4113 0
M  V30 65 H -3.2281 -2.901 -5.5685 0
M  V30 66 H 6.6377 -0.11 4.2898 0
M  V30 67 H -6.5403 2.3637 -1.0588 0
M  V30 68 H -2.804 1.4069 5.9526 0
M  V30 END ATOM
M  V30 BEGIN BOND
M  V30 1 2 1 2
M  V30 2 1 2 3
M  V30 3 1 2 4
M  V30 4 2 3 5
M  V30 5 1 4 6
M  V30 6 1 4 7
M  V30 7 1 5 8
M  V30 8 1 5 9
M  V30 9 1 6 10
M  V30 10 1 6 11
M  V30 11 1 7 12
M  V30 12 1 9 13
M  V30 13 1 10 14
M  V30 14 1 11 15
M  V30 15 2 12 16
M  V30 16 1 12 17
M  V30 17 2 13 18
M  V30 18 1 13 19
M  V30 19 2 14 20
M  V30 20 1 14 21
M  V30 21 2 15 22
M  V30 22 1 15 23
M  V30 23 1 16 24
M  V30 24 2 17 25
M  V30 25 1 18 26
M  V30 26 2 19 27
M  V30 27 1 20 28
M  V30 28 2 21 29
M  V30 29 1 22 30
M  V30 30 2 23 31
M  V30 31 2 24 32
M  V30 32 2 26 33
M  V30 33 2 28 34
M  V30 34 2 30 35
M  V30 35 1 25 32
M  V30 36 1 27 33
M  V30 37 1 29 34
M  V30 38 1 31 35
M  V30 39 1 3 36
M  V30 40 1 4 37
M  V30 41 1 6 38
M  V30 42 1 7 39
M  V30 43 1 7 40
M  V30 44 1 8 41
M  V30 45 1 8 42
M  V30 46 1 9 43
M  V30 47 1 9 44
M  V30 48 1 10 45
M  V30 49 1 10 46
M  V30 50 1 11 47
M  V30 51 1 11 48
M  V30 52 1 16 49
M  V30 53 1 17 50
M  V30 54 1 18 51
M  V30 55 1 19 52
M  V30 56 1 20 53
M  V30 57 1 21 54
M  V30 58 1 22 55
M  V30 59 1 23 56
M  V30 60 1 24 57
M  V30 61 1 25 58
M  V30 62 1 26 59
M  V30 63 1 27 60
M  V30 64 1 28 61
M  V30 65 1 29 62
M  V30 66 1 30 63
M  V30 67 1 31 64
M  V30 68 1 32 65
M  V30 69 1 33 66
M  V30 70 1 34 67
M  V30 71 1 35 68
M  V30 END BOND
M  V30 BEGIN COLLECTION
M  V30 MDLV30/STEABS ATOMS=(1 4)
M  V30 END COLLECTION
M  V30 END CTAB
M  END
>  <Structure No>
1453

>  <LogS>
-7.663343734

>  <MMFF94 Energy>
120.82

$$$$
Compound 1454
Actelion Java MolfileCreator 2.0

  0  0  0  0  0  0              0 V3000
M  V30 BEGIN CTAB
M  V30 COUNTS 103 102 0 0 0
M  V30 BEGIN ATOM
M  V30 1 O -0.5466 0.1561 2.5789 0
M  V30 2 C -1.3673 1.109 2.482 0
M  V30 3 N -0.9029 2.4652 2.5282 0
M  V30 4 C -2.8448 0.8333 2.4141 0
M  V30 5 C 0.5131 2.8056 2.6533 0
M  V30 6 C -3.1567 -0.5242 1.7622 0
M  V30 7 C 1.2159 2.6597 1.2983 0
M  V30 8 C -4.6584 -0.7242 1.5037 0
M  V30 9 C 2.6765 3.1433 1.3303 0
M  V30 10 C -5.4763 -0.8097 2.8051 0
M  V30 11 C 3.6076 2.3415 2.262 0
M  V30 12 C -6.9135 -1.3019 2.571 0
M  V30 13 C 3.6992 0.8366 1.9524 0
M  V30 14 C -7.7624 -0.2926 1.7817 0
M  V30 15 C 4.2704 0.5522 0.5558 0
M  V30 16 C -9.2245 -0.7561 1.6942 0
M  V30 17 C 4.5024 -0.9521 0.3512 0
M  V30 18 C -10.1295 0.2575 0.9741 0
M  V30 19 C 5.088 -1.26 -1.0348 0
M  V30 20 C -9.817 0.3691 -0.5263 0
M  V30 21 C 6.4805 -0.7099 -1.1943 0
M  V30 22 C -10.8745 1.2161 -1.251 0
M  V30 23 C 7.5214 -1.2291 -0.5252 0
M  V30 24 C -10.5911 1.3388 -2.7617 0
M  V30 25 C 8.914 -0.6794 -0.6751 0
M  V30 26 C -11.4125 0.3739 -3.6391 0
M  V30 27 C 9.5292 -0.4103 0.7031 0
M  V30 28 C -10.9597 -1.0975 -3.5549 0
M  V30 29 C 10.8686 0.3425 0.6311 0
M  V30 30 C -11.8571 -1.9337 -2.6299 0
M  V30 31 C 11.9943 -0.4528 -0.0641 0
M  V30 32 C -11.3571 -3.3707 -2.5288 0
M  V30 33 C 12.2142 0.0067 -1.5167 0
M  V30 34 C 13.4316 -0.6621 -2.179 0
M  V30 35 C 13.2928 -2.1795 -2.399 0
M  V30 36 C 12.1524 -2.5456 -3.3485 0
M  V30 37 H -1.603 3.2405 2.5475 0
M  V30 38 H -3.2445 0.8561 3.4497 0
M  V30 39 H -3.3359 1.6424 1.8312 0
M  V30 40 H 0.9841 2.1522 3.4188 0
M  V30 41 H 0.6028 3.859 2.9991 0
M  V30 42 H -2.6283 -0.5861 0.7855 0
M  V30 43 H -2.7777 -1.3486 2.4046 0
M  V30 44 H 1.1615 1.6091 0.945 0
M  V30 45 H 0.6692 3.2793 0.5542 0
M  V30 46 H -4.7849 -1.668 0.9292 0
M  V30 47 H -5.031 0.1113 0.8732 0
M  V30 48 H 2.6937 4.2074 1.6505 0
M  V30 49 H 3.084 3.1259 0.2977 0
M  V30 50 H -4.9804 -1.5216 3.4999 0
M  V30 51 H -5.5064 0.1832 3.3026 0
M  V30 52 H 4.6271 2.7799 2.1968 0
M  V30 53 H 3.2804 2.4726 3.3148 0
M  V30 54 H -7.385 -1.4717 3.5652 0
M  V30 55 H -6.8943 -2.278 2.0361 0
M  V30 56 H 2.7061 0.3546 2.0671 0
M  V30 57 H 4.3686 0.3799 2.7138 0
M  V30 58 H -7.7206 0.701 2.2809 0
M  V30 59 H -7.3464 -0.1951 0.7573 0
M  V30 60 H 5.2322 1.0983 0.439 0
M  V30 61 H 3.5597 0.911 -0.2199 0
M  V30 62 H -9.2785 -1.74 1.1775 0
M  V30 63 H -9.6199 -0.8967 2.7251 0
M  V30 64 H 5.1803 -1.3449 1.1417 0
M  V30 65 H 3.529 -1.4825 0.4459 0
M  V30 66 H -11.1828 -0.0785 1.0995 0
M  V30 67 H -10.0359 1.2569 1.4545 0
M  V30 68 H 5.1078 -2.3597 -1.1915 0
M  V30 69 H 4.431 -0.8245 -1.8179 0
M  V30 70 H -9.7749 -0.6474 -0.9669 0
M  V30 71 H -8.8247 0.8492 -0.6638 0
M  V30 72 H 6.6308 0.1223 -1.8773 0
M  V30 73 H -10.8599 2.2365 -0.808 0
M  V30 74 H -11.8917 0.8051 -1.0763 0
M  V30 75 H 7.3704 -2.0891 0.1235 0
M  V30 76 H -9.5066 1.2272 -2.9801 0
M  V30 77 H -10.8625 2.3712 -3.0737 0
M  V30 78 H 8.907 0.2598 -1.271 0
M  V30 79 H 9.5197 -1.4366 -1.2128 0
M  V30 80 H -12.4963 0.476 -3.4115 0
M  V30 81 H -11.2859 0.7064 -4.6936 0
M  V30 82 H 8.8236 0.2095 1.2993 0
M  V30 83 H 9.6699 -1.3719 1.2443 0
M  V30 84 H -9.8974 -1.1655 -3.238 0
M  V30 85 H -11.0155 -1.54 -4.5738 0
M  V30 86 H 10.7157 1.3352 0.1514 0
M  V30 87 H 11.1857 0.5473 1.6776 0
M  V30 88 H -11.885 -1.4982 -1.6113 0
M  V30 89 H -12.8947 -1.9418 -3.0289 0
M  V30 90 H 11.7725 -1.5405 -0.0278 0
M  V30 91 H 12.9396 -0.2912 0.4998 0
M  V30 92 H -11.3397 -3.8456 -3.5326 0
M  V30 93 H -10.3361 -3.3941 -2.092 0
M  V30 94 H -12.0375 -3.9548 -1.8734 0
M  V30 95 H 12.3996 1.1032 -1.5154 0
M  V30 96 H 11.305 -0.1642 -2.1259 0
M  V30 97 H 13.6121 -0.174 -3.1627 0
M  V30 98 H 14.3332 -0.473 -1.5546 0
M  V30 99 H 13.1604 -2.7093 -1.4325 0
M  V30 100 H 14.2428 -2.5481 -2.8428 0
M  V30 101 H 12.2219 -3.6232 -3.6081 0
M  V30 102 H 11.1677 -2.3733 -2.865 0
M  V30 103 H 12.2168 -1.9508 -4.2851 0
M  V30 END ATOM
M  V30 BEGIN BOND
M  V30 1 2 1 2
M  V30 2 1 2 3
M  V30 3 1 2 4
M  V30 4 1 3 5
M  V30 5 1 4 6
M  V30 6 1 5 7
M  V30 7 1 6 8
M  V30 8 1 7 9
M  V30 9 1 8 10
M  V30 10 1 9 11
M  V30 11 1 10 12
M  V30 12 1 11 13
M  V30 13 1 12 14
M  V30 14 1 13 15
M  V30 15 1 14 16
M  V30 16 1 15 17
M  V30 17 1 16 18
M  V30 18 1 17 19
M  V30 19 1 18 20
M  V30 20 1 19 21
M  V30 21 1 20 22
M  V30 22 2 21 23
M  V30 23 1 22 24
M  V30 24 1 23 25
M  V30 25 1 24 26
M  V30 26 1 25 27
M  V30 27 1 26 28
M  V30 28 1 27 29
M  V30 29 1 28 30
M  V30 30 1 29 31
M  V30 31 1 30 32
M  V30 32 1 31 33
M  V30 33 1 33 34
M  V30 34 1 34 35
M  V30 35 1 35 36
M  V30 36 1 3 37
M  V30 37 1 4 38
M  V30 38 1 4 39
M  V30 39 1 5 40
M  V30 40 1 5 41
M  V30 41 1 6 42
M  V30 42 1 6 43
M  V30 43 1 7 44
M  V30 44 1 7 45
M  V30 45 1 8 46
M  V30 46 1 8 47
M  V30 47 1 9 48
M  V30 48 1 9 49
M  V30 49 1 10 50
M  V30 50 1 10 51
M  V30 51 1 11 52
M  V30 52 1 11 53
M  V30 53 1 12 54
M  V30 54 1 12 55
M  V30 55 1 13 56
M  V30 56 1 13 57
M  V30 57 1 14 58
M  V30 58 1 14 59
M  V30 59 1 15 60
M  V30 60 1 15 61
M  V30 61 1 16 62
M  V30 62 1 16 63
M  V30 63 1 17 64
M  V30 64 1 17 65
M  V30 65 1 18 66
M  V30 66 1 18 67
M  V30 67 1 19 68
M  V30 68 1 19 69
M  V30 69 1 20 70
M  V30 70 1 20 71
M  V30 71 1 21 72
M  V30 72 1 22 73
M  V30 73 1 22 74
M  V30 74 1 23 75
M  V30 75 1 24 76
M  V30 76 1 24 77
M  V30 77 1 25 78
M  V30 78 1 25 79
M  V30 79 1 26 80
M  V30 80 1 26 81
M  V30 81 1 27 82
M  V30 82 1 27 83
M  V30 83 1 28 84
M  V30 84 1 28 85
M  V30 85 1 29 86
M  V30 86 1 29 87
M  V30 87 1 30 88
M  V30 88 1 30 89
M  V30 89 1 31 90
M  V30 90 1 31 91
M  V30 91 1 32 92
M  V30 92 1 32 93
M  V30 93 1 32 94
M  V30 94 1 33 95
M  V30 95 1 33 96
M  V30 96 1 34 97
M  V30 97 1 34 98
M  V30 98 1 35 99
M  V30 99 1 35 100
M  V30 100 1 36 101
M  V30 101 1 36 102
M  V30 102 1 36 103
M  V30 END BOND
M  V30 END CTAB
M  END
>  <Structure No>
1454

>  <LogS>
-7.704078415

>  <MMFF94 Energy>
-22.954

$$$$
Compound 1455
Actelion Java MolfileCreator 2.0

  0  0  0  0  0  0              0 V3000
M  V30 BEGIN CTAB
M  V30 COUNTS 39 41 0 0 0
M  V30 BEGIN ATOM
M  V30 1 S -5.4002 2.0547 0.7701 0
M  V30 2 O -4.4302 3.1063 1.2311 0
M  V30 3 O -6.2394 1.6257 1.9411 0
M  V30 4 O -6.392 2.6933 -0.4253 0 CHG=-1
M  V30 5 C -4.5215 0.6725 0.1262 0
M  V30 6 C -3.2823 0.8556 -0.5013 0
M  V30 7 C -5.0729 -0.6131 0.2059 0
M  V30 8 C -2.5878 -0.2408 -1.0201 0
M  V30 9 C -4.378 -1.7097 -0.3129 0
M  V30 10 C -3.1174 -1.5375 -0.8975 0
M  V30 11 N -2.4392 -2.683 -1.4409 0
M  V30 12 N -1.1856 -2.9208 -1.3493 0
M  V30 13 C -0.2573 -2.1576 -0.566 0
M  V30 14 C 0.8943 -1.5673 -1.0198 0
M  V30 15 C -0.3163 -1.8323 0.7815 0
M  V30 16 O 1.3052 -1.5833 -2.2107 0
M  V30 17 N 1.4871 -0.9075 -0.0012 0
M  V30 18 N 0.7508 -1.0629 1.0931 0 CHG=-1
M  V30 19 C -1.2977 -2.2911 1.775 0
M  V30 20 C 2.6951 -0.1235 -0.0361 0
M  V30 21 O -1.311 -1.78 2.9254 0
M  V30 22 O -2.1903 -3.3111 1.4721 0 CHG=-1
M  V30 23 C 2.8464 0.9651 0.8394 0
M  V30 24 C 3.7503 -0.4466 -0.9087 0
M  V30 25 C 4.0153 1.7315 0.8248 0
M  V30 26 C 4.9192 0.3204 -0.9209 0
M  V30 27 C 5.053 1.418 -0.0616 0
M  V30 28 S 6.5308 2.3743 -0.0692 0
M  V30 29 O 6.2222 3.7941 0.3156 0
M  V30 30 O 7.1359 2.3679 -1.4449 0
M  V30 31 O 7.624 1.7222 1.0263 0 CHG=-1
M  V30 32 H -2.8584 1.847 -0.5992 0
M  V30 33 H -6.0408 -0.7672 0.6658 0
M  V30 34 H -1.65 -0.0728 -1.5324 0
M  V30 35 H -4.8141 -2.6984 -0.2453 0
M  V30 36 H 2.053 1.228 1.5279 0
M  V30 37 H 3.6882 -1.3065 -1.5609 0
M  V30 38 H 4.1104 2.5674 1.5064 0
M  V30 39 H 5.7229 0.0513 -1.5945 0
M  V30 END ATOM
M  V30 BEGIN BOND
M  V30 1 2 1 2
M  V30 2 2 1 3
M  V30 3 1 1 4
M  V30 4 1 1 5
M  V30 5 2 5 6
M  V30 6 1 5 7
M  V30 7 1 6 8
M  V30 8 2 7 9
M  V30 9 2 8 10
M  V30 10 1 10 11
M  V30 11 2 11 12
M  V30 12 1 12 13
M  V30 13 1 13 14
M  V30 14 2 13 15
M  V30 15 2 14 16
M  V30 16 1 14 17
M  V30 17 1 15 18
M  V30 18 1 15 19
M  V30 19 1 17 20
M  V30 20 2 19 21
M  V30 21 1 19 22
M  V30 22 2 20 23
M  V30 23 1 20 24
M  V30 24 1 23 25
M  V30 25 2 24 26
M  V30 26 2 25 27
M  V30 27 1 27 28
M  V30 28 2 28 29
M  V30 29 2 28 30
M  V30 30 1 28 31
M  V30 31 1 9 10
M  V30 32 1 17 18
M  V30 33 1 26 27
M  V30 34 1 6 32
M  V30 35 1 7 33
M  V30 36 1 8 34
M  V30 37 1 9 35
M  V30 38 1 23 36
M  V30 39 1 24 37
M  V30 40 1 25 38
M  V30 41 1 26 39
M  V30 END BOND
M  V30 END CTAB
M  END
>  <Structure No>
1455

>  <LogS>
-7.751246762

>  <MMFF94 Energy>
380.57

$$$$
Compound 1456
Actelion Java MolfileCreator 2.0

  0  0  0  0  0  0              0 V3000
M  V30 BEGIN CTAB
M  V30 COUNTS 101 101 0 0 0
M  V30 BEGIN ATOM
M  V30 1 O -2.4374 0.7857 -2.5161 0
M  V30 2 C -2.746 -0.0783 -1.6486 0
M  V30 3 N -1.7204 -0.8539 -1.0109 0
M  V30 4 C -4.1896 -0.3485 -1.3299 0
M  V30 5 C -0.2992 -0.5495 -1.1686 0
M  V30 6 C -5.0728 0.8896 -1.5372 0
M  V30 7 C 0.0898 0.6716 -0.322 0
M  V30 8 C -6.4825 0.6242 -1.0668 0
M  V30 9 C 0.1712 0.3531 1.1854 0
M  V30 10 C -7.3608 -0.0906 -1.8753 0
M  V30 11 C -6.8901 1.0449 0.195 0
M  V30 12 C 1.6032 0.1001 1.6979 0
M  V30 13 C -8.6739 -0.4078 -1.4583 0
M  V30 14 C -8.1952 0.8 0.6726 0
M  V30 15 C 2.1748 -1.2896 1.3404 0
M  V30 16 C -9.0927 0.0757 -0.1707 0
M  V30 17 C -9.6117 -1.2206 -2.4034 0
M  V30 18 C -8.6335 1.3068 2.0804 0
M  V30 19 C 2.9903 -1.3188 0.0283 0
M  V30 20 O -10.3855 -0.1472 0.3109 0
M  V30 21 C -8.883 -1.776 -3.6601 0
M  V30 22 C -10.7238 -0.285 -2.9394 0
M  V30 23 C -10.2158 -2.4551 -1.6624 0
M  V30 24 C -7.5089 2.0666 2.8348 0
M  V30 25 C -9.0341 0.1103 2.9762 0
M  V30 26 C -9.8188 2.293 1.9487 0
M  V30 27 C 4.5062 -1.1459 0.2295 0
M  V30 28 C 4.8835 0.2515 0.7534 0
M  V30 29 C 6.3702 0.6021 0.5475 0
M  V30 30 C 7.2929 0.2223 1.7244 0
M  V30 31 C 7.6505 -1.27 1.8373 0
M  V30 32 C 8.3403 -1.8839 0.6032 0
M  V30 33 C 9.7245 -1.2754 0.2878 0
M  V30 34 C 9.6665 -0.2201 -0.833 0
M  V30 35 C 11.0591 0.2673 -1.2633 0
M  V30 36 C 11.7201 1.1663 -0.2074 0
M  V30 37 C 13.0267 1.7659 -0.7411 0
M  V30 38 C 13.6976 2.6497 0.3062 0
M  V30 39 H -1.9929 -1.6789 -0.4289 0
M  V30 40 H -4.5475 -1.176 -1.9784 0
M  V30 41 H -4.2669 -0.6793 -0.2715 0
M  V30 42 H -0.0779 -0.3511 -2.2389 0
M  V30 43 H 0.3023 -1.4325 -0.8715 0
M  V30 44 H -5.0884 1.1637 -2.615 0
M  V30 45 H -4.6398 1.7542 -0.9884 0
M  V30 46 H 1.0487 1.0959 -0.6861 0
M  V30 47 H -0.6683 1.4699 -0.481 0
M  V30 48 H -0.4943 -0.4939 1.4584 0
M  V30 49 H -0.2183 1.2382 1.7356 0
M  V30 50 H -6.979 -0.3962 -2.8356 0
M  V30 51 H -6.1598 1.5722 0.788 0
M  V30 52 H 1.5655 0.1677 2.8068 0
M  V30 53 H 2.2698 0.9203 1.3656 0
M  V30 54 H 1.3435 -2.0233 1.2726 0
M  V30 55 H 2.815 -1.6424 2.1782 0
M  V30 56 H 2.6248 -0.5647 -0.6987 0
M  V30 57 H 2.8347 -2.3129 -0.4459 0
M  V30 58 H -11.125 -0.6371 -0.1614 0
M  V30 59 H -8.0267 -2.4232 -3.3674 0
M  V30 60 H -8.5227 -0.9571 -4.3205 0
M  V30 61 H -9.5751 -2.3925 -4.2747 0
M  V30 62 H -11.4117 -0.8416 -3.6126 0
M  V30 63 H -10.2743 0.5497 -3.5199 0
M  V30 64 H -11.3338 0.1731 -2.1389 0
M  V30 65 H -9.774 -2.5886 -0.6526 0
M  V30 66 H -11.3185 -2.3793 -1.5592 0
M  V30 67 H -10.0309 -3.4143 -2.1916 0
M  V30 68 H -6.6304 1.4082 3.0095 0
M  V30 69 H -7.193 2.9715 2.2718 0
M  V30 70 H -7.8602 2.4106 3.832 0
M  V30 71 H -9.2369 0.4471 4.0168 0
M  V30 72 H -9.9535 -0.3964 2.6272 0
M  V30 73 H -8.2132 -0.6386 3.0058 0
M  V30 74 H -10.0508 2.7634 2.9296 0
M  V30 75 H -9.567 3.1005 1.2275 0
M  V30 76 H -10.7509 1.8018 1.6103 0
M  V30 77 H 4.9926 -1.312 -0.7556 0
M  V30 78 H 4.8676 -1.9348 0.9181 0
M  V30 79 H 4.2948 1.0044 0.1846 0
M  V30 80 H 4.6063 0.3458 1.8263 0
M  V30 81 H 6.7415 0.1989 -0.4154 0
M  V30 82 H 6.4314 1.7085 0.4485 0
M  V30 83 H 8.2344 0.8067 1.6473 0
M  V30 84 H 6.8193 0.5441 2.6772 0
M  V30 85 H 6.7378 -1.8506 2.0732 0
M  V30 86 H 8.3204 -1.3993 2.7158 0
M  V30 87 H 7.6694 -1.8572 -0.2808 0
M  V30 88 H 8.4905 -2.9628 0.8277 0
M  V30 89 H 10.3952 -2.0978 -0.0467 0
M  V30 90 H 10.172 -0.8433 1.2079 0
M  V30 91 H 9.0592 0.6524 -0.5188 0
M  V30 92 H 9.1739 -0.6711 -1.7242 0
M  V30 93 H 10.9408 0.851 -2.2047 0
M  V30 94 H 11.7132 -0.6054 -1.4851 0
M  V30 95 H 11.943 0.5732 0.7044 0
M  V30 96 H 11.0231 1.9907 0.0643 0
M  V30 97 H 12.8203 2.3784 -1.6442 0
M  V30 98 H 13.7258 0.9474 -1.0216 0
M  V30 99 H 13.9423 2.0533 1.2122 0
M  V30 100 H 13.03 3.4922 0.5916 0
M  V30 101 H 14.6394 3.0686 -0.1086 0
M  V30 END ATOM
M  V30 BEGIN BOND
M  V30 1 2 1 2
M  V30 2 1 2 3
M  V30 3 1 2 4
M  V30 4 1 3 5
M  V30 5 1 4 6
M  V30 6 1 5 7
M  V30 7 1 6 8
M  V30 8 1 7 9
M  V30 9 2 8 10
M  V30 10 1 8 11
M  V30 11 1 9 12
M  V30 12 1 10 13
M  V30 13 2 11 14
M  V30 14 1 12 15
M  V30 15 2 13 16
M  V30 16 1 13 17
M  V30 17 1 14 18
M  V30 18 1 15 19
M  V30 19 1 16 20
M  V30 20 1 17 21
M  V30 21 1 17 22
M  V30 22 1 17 23
M  V30 23 1 18 24
M  V30 24 1 18 25
M  V30 25 1 18 26
M  V30 26 1 19 27
M  V30 27 1 27 28
M  V30 28 1 28 29
M  V30 29 1 29 30
M  V30 30 1 30 31
M  V30 31 1 31 32
M  V30 32 1 32 33
M  V30 33 1 33 34
M  V30 34 1 34 35
M  V30 35 1 35 36
M  V30 36 1 36 37
M  V30 37 1 37 38
M  V30 38 1 14 16
M  V30 39 1 3 39
M  V30 40 1 4 40
M  V30 41 1 4 41
M  V30 42 1 5 42
M  V30 43 1 5 43
M  V30 44 1 6 44
M  V30 45 1 6 45
M  V30 46 1 7 46
M  V30 47 1 7 47
M  V30 48 1 9 48
M  V30 49 1 9 49
M  V30 50 1 10 50
M  V30 51 1 11 51
M  V30 52 1 12 52
M  V30 53 1 12 53
M  V30 54 1 15 54
M  V30 55 1 15 55
M  V30 56 1 19 56
M  V30 57 1 19 57
M  V30 58 1 20 58
M  V30 59 1 21 59
M  V30 60 1 21 60
M  V30 61 1 21 61
M  V30 62 1 22 62
M  V30 63 1 22 63
M  V30 64 1 22 64
M  V30 65 1 23 65
M  V30 66 1 23 66
M  V30 67 1 23 67
M  V30 68 1 24 68
M  V30 69 1 24 69
M  V30 70 1 24 70
M  V30 71 1 25 71
M  V30 72 1 25 72
M  V30 73 1 25 73
M  V30 74 1 26 74
M  V30 75 1 26 75
M  V30 76 1 26 76
M  V30 77 1 27 77
M  V30 78 1 27 78
M  V30 79 1 28 79
M  V30 80 1 28 80
M  V30 81 1 29 81
M  V30 82 1 29 82
M  V30 83 1 30 83
M  V30 84 1 30 84
M  V30 85 1 31 85
M  V30 86 1 31 86
M  V30 87 1 32 87
M  V30 88 1 32 88
M  V30 89 1 33 89
M  V30 90 1 33 90
M  V30 91 1 34 91
M  V30 92 1 34 92
M  V30 93 1 35 93
M  V30 94 1 35 94
M  V30 95 1 36 95
M  V30 96 1 36 96
M  V30 97 1 37 97
M  V30 98 1 37 98
M  V30 99 1 38 99
M  V30 100 1 38 100
M  V30 101 1 38 101
M  V30 END BOND
M  V30 END CTAB
M  END
>  <Structure No>
1456

>  <LogS>
-7.724189002

>  <MMFF94 Energy>
24.313

$$$$
Compound 1457
Actelion Java MolfileCreator 2.0

  0  0  0  0  0  0              0 V3000
M  V30 BEGIN CTAB
M  V30 COUNTS 110 111 0 0 0
M  V30 BEGIN ATOM
M  V30 1 O 4.3533 2.2144 -0.237 0
M  V30 2 C 3.503 2.1178 -1.1624 0
M  V30 3 N 2.5046 3.1347 -1.3284 0
M  V30 4 C 3.584 0.9843 -2.1489 0
M  V30 5 C 2.3282 4.2326 -0.3782 0
M  V30 6 C 3.933 -0.3647 -1.4955 0
M  V30 7 C 1.6289 3.7521 0.8995 0
M  V30 8 C 5.4102 -0.489 -1.1916 0
M  V30 9 C 0.2111 3.2322 0.6044 0
M  V30 10 C 5.8668 -0.4665 0.1248 0
M  V30 11 C 6.3187 -0.6414 -2.2343 0
M  V30 12 C -0.6066 2.9803 1.8814 0
M  V30 13 C 7.2397 -0.5805 0.4434 0
M  V30 14 C 7.7071 -0.7345 -2.0017 0
M  V30 15 C -0.127 1.7413 2.6586 0
M  V30 16 C 8.1657 -0.6642 -0.6511 0
M  V30 17 C 7.6959 -0.6431 1.9352 0
M  V30 18 C 8.704 -0.89 -3.1904 0
M  V30 19 C -0.9625 1.5067 3.9253 0
M  V30 20 O 9.547 -0.6676 -0.4417 0
M  V30 21 C 6.5113 -0.6 2.9407 0
M  V30 22 C 8.6297 0.5577 2.2809 0
M  V30 23 C 8.4053 -1.9968 2.1975 0
M  V30 24 C 7.9969 -0.9914 -4.5677 0
M  V30 25 C 9.6447 0.3356 -3.2662 0
M  V30 26 C 9.5306 -2.1892 -3.0299 0
M  V30 27 N -2.3627 1.2433 3.5944 0
M  V30 28 C -2.7988 0.0064 3.0133 0
M  V30 29 O -2.005 -0.9711 2.9371 0
M  V30 30 C -4.2217 -0.1496 2.554 0
M  V30 31 C -4.2994 -0.8844 1.2104 0
M  V30 32 C -5.7202 -0.9318 0.7062 0
M  V30 33 C -6.1534 -0.0248 -0.2586 0
M  V30 34 C -6.605 -1.8788 1.2118 0
M  V30 35 C -7.464 -0.0632 -0.7825 0
M  V30 36 C -7.9562 -1.9195 0.8053 0
M  V30 37 C -8.3943 -0.9502 -0.1484 0
M  V30 38 C -7.8287 0.8327 -2.0082 0
M  V30 39 C -8.9409 -2.9595 1.4194 0
M  V30 40 O -9.7591 -0.8796 -0.4211 0
M  V30 41 C -6.5658 1.2636 -2.8104 0
M  V30 42 C -8.5186 2.128 -1.5292 0
M  V30 43 C -8.7316 0.071 -3.0219 0
M  V30 44 C -8.2471 -3.9658 2.3777 0
M  V30 45 C -10.0286 -2.2367 2.2459 0
M  V30 46 C -9.5985 -3.8028 0.3007 0
M  V30 47 H 1.9048 3.123 -2.1844 0
M  V30 48 H 4.317 1.2439 -2.941 0
M  V30 49 H 2.5966 0.8751 -2.6466 0
M  V30 50 H 1.7196 5.0351 -0.8515 0
M  V30 51 H 3.3165 4.6742 -0.1255 0
M  V30 52 H 3.6507 -1.1817 -2.1956 0
M  V30 53 H 3.3142 -0.5093 -0.5819 0
M  V30 54 H 2.2401 2.955 1.3745 0
M  V30 55 H 1.5717 4.6085 1.6073 0
M  V30 56 H 0.2651 2.2992 8.0E-4 0
M  V30 57 H -0.3303 3.9929 7.0E-4 0
M  V30 58 H 5.116 -0.3592 0.8898 0
M  V30 59 H 5.9068 -0.6738 -3.2311 0
M  V30 60 H -0.5702 3.8806 2.5375 0
M  V30 61 H -1.6676 2.8262 1.5784 0
M  V30 62 H 0.9287 1.8823 2.9711 0
M  V30 63 H -0.177 0.8417 2.0053 0
M  V30 64 H -0.5451 0.649 4.4976 0
M  V30 65 H -0.9013 2.4048 4.5794 0
M  V30 66 H 10.0173 -0.4616 0.4226 0
M  V30 67 H 6.8805 -0.6835 3.9863 0
M  V30 68 H 5.8104 -1.4472 2.7748 0
M  V30 69 H 5.9598 0.3616 2.8652 0
M  V30 70 H 8.6722 1.2971 1.4504 0
M  V30 71 H 9.6663 0.227 2.5109 0
M  V30 72 H 8.2908 1.1192 3.1807 0
M  V30 73 H 9.2899 -2.1647 1.558 0
M  V30 74 H 8.7514 -2.0618 3.2514 0
M  V30 75 H 7.7055 -2.84 2.0098 0
M  V30 76 H 7.3113 -1.8664 -4.6006 0
M  V30 77 H 7.4301 -0.0631 -4.7927 0
M  V30 78 H 8.7362 -1.1238 -5.3871 0
M  V30 79 H 10.3497 0.3878 -2.4138 0
M  V30 80 H 9.0498 1.273 -3.2895 0
M  V30 81 H 10.2687 0.3018 -4.1873 0
M  V30 82 H 10.2178 -2.1607 -2.1636 0
M  V30 83 H 8.8515 -3.0605 -2.9047 0
M  V30 84 H 10.1623 -2.3706 -3.9254 0
M  V30 85 H -3.0723 1.979 3.8098 0
M  V30 86 H -4.6902 0.8544 2.4488 0
M  V30 87 H -4.786 -0.7157 3.3262 0
M  V30 88 H -3.6439 -0.3776 0.4682 0
M  V30 89 H -3.9164 -1.9214 1.3266 0
M  V30 90 H -5.4316 0.6983 -0.6043 0
M  V30 91 H -6.2107 -2.5611 1.9483 0
M  V30 92 H -10.2402 -0.0349 -0.6861 0
M  V30 93 H -5.9459 0.3791 -3.0739 0
M  V30 94 H -6.8412 1.783 -3.7535 0
M  V30 95 H -5.9485 1.9967 -2.249 0
M  V30 96 H -8.771 2.7798 -2.3947 0
M  V30 97 H -9.4547 1.9352 -0.9722 0
M  V30 98 H -7.8432 2.6984 -0.855 0
M  V30 99 H -9.8053 0.0988 -2.7575 0
M  V30 100 H -8.6853 0.5231 -4.0373 0
M  V30 101 H -8.402 -0.9875 -3.115 0
M  V30 102 H -7.8178 -3.4486 3.2636 0
M  V30 103 H -8.9735 -4.7129 2.7642 0
M  V30 104 H -7.4448 -4.5249 1.8502 0
M  V30 105 H -10.7167 -1.6408 1.6163 0
M  V30 106 H -10.6608 -2.9681 2.794 0
M  V30 107 H -9.5596 -1.5574 2.9908 0
M  V30 108 H -8.8139 -4.2992 -0.3106 0
M  V30 109 H -10.2339 -3.1977 -0.3732 0
M  V30 110 H -10.2541 -4.5892 0.7344 0
M  V30 END ATOM
M  V30 BEGIN BOND
M  V30 1 2 1 2
M  V30 2 1 2 3
M  V30 3 1 2 4
M  V30 4 1 3 5
M  V30 5 1 4 6
M  V30 6 1 5 7
M  V30 7 1 6 8
M  V30 8 1 7 9
M  V30 9 2 8 10
M  V30 10 1 8 11
M  V30 11 1 9 12
M  V30 12 1 10 13
M  V30 13 2 11 14
M  V30 14 1 12 15
M  V30 15 2 13 16
M  V30 16 1 13 17
M  V30 17 1 14 18
M  V30 18 1 15 19
M  V30 19 1 16 20
M  V30 20 1 17 21
M  V30 21 1 17 22
M  V30 22 1 17 23
M  V30 23 1 18 24
M  V30 24 1 18 25
M  V30 25 1 18 26
M  V30 26 1 19 27
M  V30 27 1 27 28
M  V30 28 2 28 29
M  V30 29 1 28 30
M  V30 30 1 30 31
M  V30 31 1 31 32
M  V30 32 2 32 33
M  V30 33 1 32 34
M  V30 34 1 33 35
M  V30 35 2 34 36
M  V30 36 2 35 37
M  V30 37 1 35 38
M  V30 38 1 36 39
M  V30 39 1 37 40
M  V30 40 1 38 41
M  V30 41 1 38 42
M  V30 42 1 38 43
M  V30 43 1 39 44
M  V30 44 1 39 45
M  V30 45 1 39 46
M  V30 46 1 14 16
M  V30 47 1 36 37
M  V30 48 1 3 47
M  V30 49 1 4 48
M  V30 50 1 4 49
M  V30 51 1 5 50
M  V30 52 1 5 51
M  V30 53 1 6 52
M  V30 54 1 6 53
M  V30 55 1 7 54
M  V30 56 1 7 55
M  V30 57 1 9 56
M  V30 58 1 9 57
M  V30 59 1 10 58
M  V30 60 1 11 59
M  V30 61 1 12 60
M  V30 62 1 12 61
M  V30 63 1 15 62
M  V30 64 1 15 63
M  V30 65 1 19 64
M  V30 66 1 19 65
M  V30 67 1 20 66
M  V30 68 1 21 67
M  V30 69 1 21 68
M  V30 70 1 21 69
M  V30 71 1 22 70
M  V30 72 1 22 71
M  V30 73 1 22 72
M  V30 74 1 23 73
M  V30 75 1 23 74
M  V30 76 1 23 75
M  V30 77 1 24 76
M  V30 78 1 24 77
M  V30 79 1 24 78
M  V30 80 1 25 79
M  V30 81 1 25 80
M  V30 82 1 25 81
M  V30 83 1 26 82
M  V30 84 1 26 83
M  V30 85 1 26 84
M  V30 86 1 27 85
M  V30 87 1 30 86
M  V30 88 1 30 87
M  V30 89 1 31 88
M  V30 90 1 31 89
M  V30 91 1 33 90
M  V30 92 1 34 91
M  V30 93 1 40 92
M  V30 94 1 41 93
M  V30 95 1 41 94
M  V30 96 1 41 95
M  V30 97 1 42 96
M  V30 98 1 42 97
M  V30 99 1 42 98
M  V30 100 1 43 99
M  V30 101 1 43 100
M  V30 102 1 43 101
M  V30 103 1 44 102
M  V30 104 1 44 103
M  V30 105 1 44 104
M  V30 106 1 45 105
M  V30 107 1 45 106
M  V30 108 1 45 107
M  V30 109 1 46 108
M  V30 110 1 46 109
M  V30 111 1 46 110
M  V30 END BOND
M  V30 END CTAB
M  END
>  <Structure No>
1457

>  <LogS>
-7.804113524

>  <MMFF94 Energy>
57.886

$$$$
Compound 1458
Actelion Java MolfileCreator 2.0

  0  0  0  0  0  0              0 V3000
M  V30 BEGIN CTAB
M  V30 COUNTS 26 27 0 0 0
M  V30 BEGIN ATOM
M  V30 1 Cl 1.0738 0.2477 2.0658 0
M  V30 2 C 1.9474 0.1018 0.5432 0
M  V30 3 C 1.3957 -0.5475 -0.5869 0
M  V30 4 C 3.256 0.5988 0.4911 0
M  V30 5 C 0.0102 -1.0748 -0.5986 0
M  V30 6 C 2.1895 -0.7076 -1.7365 0
M  V30 7 C 4.024 0.4489 -0.6649 0
M  V30 8 O -0.2097 -2.1993 -1.1251 0
M  V30 9 C -1.1329 -0.2735 -0.1001 0
M  V30 10 C 3.4933 -0.2076 -1.7754 0
M  V30 11 C -2.1784 -0.8487 0.6655 0
M  V30 12 C -1.198 1.0921 -0.433 0
M  V30 13 N -2.1289 -2.2127 1.1062 0
M  V30 14 C -3.269 -0.053 1.0509 0
M  V30 15 C -2.2844 1.8728 -0.0302 0
M  V30 16 C -3.3215 1.2983 0.7055 0
M  V30 17 Cl -2.3503 3.5726 -0.4586 0
M  V30 18 H 3.6847 1.0931 1.3538 0
M  V30 19 H 1.7928 -1.2057 -2.6128 0
M  V30 20 H 5.035 0.8345 -0.6965 0
M  V30 21 H 4.0921 -0.328 -2.6689 0
M  V30 22 H -0.4113 1.5485 -1.0216 0
M  V30 23 H -2.9432 -2.6371 1.6042 0
M  V30 24 H -1.2614 -2.7869 1.0352 0
M  V30 25 H -4.0739 -0.4785 1.6372 0
M  V30 26 H -4.1663 1.8994 1.0169 0
M  V30 END ATOM
M  V30 BEGIN BOND
M  V30 1 1 1 2
M  V30 2 2 2 3
M  V30 3 1 2 4
M  V30 4 1 3 5
M  V30 5 1 3 6
M  V30 6 2 4 7
M  V30 7 2 5 8
M  V30 8 1 5 9
M  V30 9 2 6 10
M  V30 10 2 9 11
M  V30 11 1 9 12
M  V30 12 1 11 13
M  V30 13 1 11 14
M  V30 14 2 12 15
M  V30 15 2 14 16
M  V30 16 1 15 17
M  V30 17 1 7 10
M  V30 18 1 15 16
M  V30 19 1 4 18
M  V30 20 1 6 19
M  V30 21 1 7 20
M  V30 22 1 10 21
M  V30 23 1 12 22
M  V30 24 1 13 23
M  V30 25 1 13 24
M  V30 26 1 14 25
M  V30 27 1 16 26
M  V30 END BOND
M  V30 END CTAB
M  END
>  <Structure No>
1458

>  <LogS>
-7.425088938

>  <MMFF94 Energy>
68.178

$$$$
Compound 1459
Actelion Java MolfileCreator 2.0

  0  0  0  0  0  0              0 V3000
M  V30 BEGIN CTAB
M  V30 COUNTS 84 94 0 0 0
M  V30 BEGIN ATOM
M  V30 1 O -5.5121 2.383 -2.1363 0
M  V30 2 C -4.9446 1.3343 -1.7216 0
M  V30 3 N -5.7317 0.19 -1.3523 0
M  V30 4 C -3.4656 1.2737 -1.638 0
M  V30 5 C -5.0593 -1.0066 -0.9288 0
M  V30 6 C -7.1699 0.2433 -1.4007 0
M  V30 7 C -2.8158 0.0899 -1.2286 0
M  V30 8 C -2.7059 2.3956 -1.9665 0
M  V30 9 O -5.7305 -2.0145 -0.5725 0
M  V30 10 C -3.5777 -1.0466 -0.8839 0
M  V30 11 C -7.8672 1.2155 -0.6673 0
M  V30 12 C -7.8878 -0.6674 -2.1917 0
M  V30 13 C -1.3875 0.0424 -1.1623 0
M  V30 14 C -1.3198 2.3575 -1.9125 0
M  V30 15 C -2.9276 -2.2147 -0.4906 0
M  V30 16 C -9.2628 1.2693 -0.7154 0
M  V30 17 C -9.2843 -0.6143 -2.2366 0
M  V30 18 C -0.6242 1.1856 -1.5284 0
M  V30 19 C -0.7388 -1.1479 -0.7307 0
M  V30 20 C -1.5428 -2.2708 -0.4207 0
M  V30 21 C -9.9816 0.3323 -1.4774 0
M  V30 22 C 0.8002 1.1267 -1.4933 0
M  V30 23 C 0.6829 -1.181 -0.6245 0
M  V30 24 N -11.4145 0.3854 -1.5719 0
M  V30 25 C 1.4474 -0.049 -1.0217 0
M  V30 26 C 1.6089 2.2082 -1.9182 0
M  V30 27 C 1.3737 -2.3103 -0.1227 0
M  V30 28 N -12.2244 0.5654 -0.5974 0
M  V30 29 C 2.8752 -0.0924 -0.9442 0
M  V30 30 C 2.9934 2.1528 -1.847 0
M  V30 31 C 2.7589 -2.3391 -0.0438 0
M  V30 32 C -11.8734 0.5852 0.7956 0
M  V30 33 C 3.6399 1.0195 -1.3567 0
M  V30 34 C 3.5218 -1.2468 -0.4535 0
M  V30 35 C -11.0199 -0.3856 1.3499 0
M  V30 36 C -12.4683 1.5358 1.635 0
M  V30 37 C 5.1205 0.9882 -1.2854 0
M  V30 38 C 5.0003 -1.3025 -0.3574 0
M  V30 39 C -10.724 -0.3634 2.7166 0
M  V30 40 C -12.1706 1.5558 3.0013 0
M  V30 41 O 5.7954 1.9764 -1.6879 0
M  V30 42 N 5.7883 -0.1775 -0.7769 0
M  V30 43 O 5.5663 -2.3293 0.1109 0
M  V30 44 C -11.2944 0.6104 3.541 0
M  V30 45 C 7.2239 -0.2158 -0.6829 0
M  V30 46 C 7.9534 -1.1908 -1.3799 0
M  V30 47 C 7.9073 0.7274 0.0989 0
M  V30 48 C 9.348 -1.2271 -1.2887 0
M  V30 49 C 9.301 0.6887 0.1922 0
M  V30 50 C 10.0275 -0.3088 -0.4797 0
M  V30 51 N 11.4623 -0.3503 -0.4267 0
M  V30 52 N 12.1751 -0.2173 0.6275 0
M  V30 53 C 11.6802 -0.1663 1.9751 0
M  V30 54 C 10.714 -1.0791 2.435 0
M  V30 55 C 12.2392 0.7525 2.8731 0
M  V30 56 C 10.2773 -1.0314 3.7628 0
M  V30 57 C 11.7998 0.7989 4.2003 0
M  V30 58 C 10.8159 -0.0891 4.644 0
M  V30 59 H -3.1866 3.3172 -2.2722 0
M  V30 60 H -7.3278 1.9304 -0.0588 0
M  V30 61 H -7.3639 -1.4096 -2.7811 0
M  V30 62 H -0.8284 3.2796 -2.1665 0
M  V30 63 H -3.4938 -3.101 -0.2325 0
M  V30 64 H -9.7784 2.0469 -0.1672 0
M  V30 65 H -9.8266 -1.3176 -2.856 0
M  V30 66 H -1.1389 -3.224 -0.1291 0
M  V30 67 H 1.2108 3.1171 -2.3326 0
M  V30 68 H 0.878 -3.1934 0.2391 0
M  V30 69 H 3.5623 3.0112 -2.1821 0
M  V30 70 H 3.2355 -3.2299 0.3475 0
M  V30 71 H -10.5962 -1.1645 0.7299 0
M  V30 72 H -13.1528 2.268 1.227 0
M  V30 73 H -10.0599 -1.1063 3.1383 0
M  V30 74 H -12.6215 2.3028 3.6416 0
M  V30 75 H -11.0645 0.6266 4.5986 0
M  V30 76 H 7.4404 -1.913 -2.0023 0
M  V30 77 H 7.3577 1.4896 0.6368 0
M  V30 78 H 9.9 -1.9794 -1.8381 0
M  V30 79 H 9.812 1.4408 0.7793 0
M  V30 80 H 10.3096 -1.8339 1.773 0
M  V30 81 H 13.0056 1.4406 2.5395 0
M  V30 82 H 9.529 -1.7312 4.1105 0
M  V30 83 H 12.2242 1.5217 4.8851 0
M  V30 84 H 10.4785 -0.0541 5.6722 0
M  V30 END ATOM
M  V30 BEGIN BOND
M  V30 1 2 1 2
M  V30 2 1 2 3
M  V30 3 1 2 4
M  V30 4 1 3 5
M  V30 5 1 3 6
M  V30 6 1 4 7
M  V30 7 2 4 8
M  V30 8 2 5 9
M  V30 9 1 5 10
M  V30 10 2 6 11
M  V30 11 1 6 12
M  V30 12 1 7 13
M  V30 13 1 8 14
M  V30 14 1 10 15
M  V30 15 1 11 16
M  V30 16 2 12 17
M  V30 17 1 13 18
M  V30 18 2 13 19
M  V30 19 2 15 20
M  V30 20 2 16 21
M  V30 21 1 18 22
M  V30 22 1 19 23
M  V30 23 1 21 24
M  V30 24 1 22 25
M  V30 25 2 22 26
M  V30 26 1 23 27
M  V30 27 2 24 28
M  V30 28 1 25 29
M  V30 29 1 26 30
M  V30 30 2 27 31
M  V30 31 1 28 32
M  V30 32 1 29 33
M  V30 33 2 29 34
M  V30 34 2 32 35
M  V30 35 1 32 36
M  V30 36 1 33 37
M  V30 37 1 34 38
M  V30 38 1 35 39
M  V30 39 2 36 40
M  V30 40 2 37 41
M  V30 41 1 37 42
M  V30 42 2 38 43
M  V30 43 2 39 44
M  V30 44 1 42 45
M  V30 45 2 45 46
M  V30 46 1 45 47
M  V30 47 1 46 48
M  V30 48 2 47 49
M  V30 49 2 48 50
M  V30 50 1 50 51
M  V30 51 2 51 52
M  V30 52 1 52 53
M  V30 53 2 53 54
M  V30 54 1 53 55
M  V30 55 1 54 56
M  V30 56 2 55 57
M  V30 57 2 56 58
M  V30 58 2 7 10
M  V30 59 2 14 18
M  V30 60 1 17 21
M  V30 61 1 19 20
M  V30 62 2 23 25
M  V30 63 2 30 33
M  V30 64 1 31 34
M  V30 65 1 38 42
M  V30 66 1 40 44
M  V30 67 1 49 50
M  V30 68 1 57 58
M  V30 69 1 8 59
M  V30 70 1 11 60
M  V30 71 1 12 61
M  V30 72 1 14 62
M  V30 73 1 15 63
M  V30 74 1 16 64
M  V30 75 1 17 65
M  V30 76 1 20 66
M  V30 77 1 26 67
M  V30 78 1 27 68
M  V30 79 1 30 69
M  V30 80 1 31 70
M  V30 81 1 35 71
M  V30 82 1 36 72
M  V30 83 1 39 73
M  V30 84 1 40 74
M  V30 85 1 44 75
M  V30 86 1 46 76
M  V30 87 1 47 77
M  V30 88 1 48 78
M  V30 89 1 49 79
M  V30 90 1 54 80
M  V30 91 1 55 81
M  V30 92 1 56 82
M  V30 93 1 57 83
M  V30 94 1 58 84
M  V30 END BOND
M  V30 END CTAB
M  END
>  <Structure No>
1459

>  <LogS>
-7.875509224

>  <MMFF94 Energy>
207.74

$$$$
Compound 1460
Actelion Java MolfileCreator 2.0

  0  0  0  0  0  0              0 V3000
M  V30 BEGIN CTAB
M  V30 COUNTS 88 94 0 0 0
M  V30 BEGIN ATOM
M  V30 1 O 7.2073 1.3736 2.2632 0
M  V30 2 C 7.9111 1.137 1.2431 0
M  V30 3 N 7.5075 0.1074 0.3246 0
M  V30 4 C 9.1673 1.8955 1.0305 0
M  V30 5 C 6.1547 -0.3689 0.2137 0
M  V30 6 C 9.7724 2.5785 2.1025 0
M  V30 7 C 9.7619 1.9674 -0.2432 0
M  V30 8 C 5.9067 -1.7184 -0.1142 0
M  V30 9 C 5.0676 0.5097 0.384 0
M  V30 10 C 10.9519 3.303 1.906 0
M  V30 11 C 10.9394 2.6961 -0.4345 0
M  V30 12 O 6.9716 -2.6074 -0.2848 0
M  V30 13 C 4.5878 -2.1829 -0.2263 0
M  V30 14 C 3.7594 0.0379 0.2627 0
M  V30 15 C 11.5355 3.3615 0.6385 0
M  V30 16 C 7.4953 -2.9371 -1.57 0
M  V30 17 C 3.5192 -1.3047 -0.04 0
M  V30 18 O 2.6661 0.8885 0.4416 0
M  V30 19 C 6.5914 -3.928 -2.2946 0
M  V30 20 N 2.1633 -1.7557 -0.1626 0
M  V30 21 C 1.3546 0.4009 0.3293 0
M  V30 22 C 1.1424 -0.9581 -0.0011 0
M  V30 23 C 0.2677 1.2617 0.5423 0
M  V30 24 C -0.1699 -1.4519 -0.1312 0
M  V30 25 N 0.5167 2.6346 0.8867 0
M  V30 26 C -1.0445 0.7532 0.4702 0
M  V30 27 N -0.4172 -2.8281 -0.4635 0
M  V30 28 C -1.2558 -0.6025 0.1252 0
M  V30 29 C -0.0711 3.7375 0.182 0
M  V30 30 N -2.065 1.5215 0.7425 0
M  V30 31 C 0.1151 -3.4522 -1.6418 0
M  V30 32 O -2.5657 -1.0982 0.038 0
M  V30 33 O -0.7569 3.5417 -0.8585 0
M  V30 34 C 0.1895 5.1348 0.6415 0
M  V30 35 C -3.4201 1.053 0.6801 0
M  V30 36 O 0.7747 -2.7806 -2.4796 0
M  V30 37 C -0.0966 -4.9115 -1.8853 0
M  V30 38 C -3.6585 -0.2723 0.3105 0
M  V30 39 C -4.4885 1.9021 0.9751 0
M  V30 40 C -4.9639 -0.7542 0.2211 0
M  V30 41 C -5.815 1.4294 0.8879 0
M  V30 42 C -6.0519 0.0946 0.4973 0
M  V30 43 O -6.9163 2.2562 1.1644 0
M  V30 44 N -7.3993 -0.4022 0.4235 0
M  V30 45 C -6.8243 3.6201 1.5662 0
M  V30 46 C -7.8391 -1.3257 -0.5864 0
M  V30 47 C -8.222 4.1836 1.765 0
M  V30 48 O -7.1744 -1.4481 -1.6516 0
M  V30 49 C -9.0898 -2.1023 -0.4154 0
M  V30 50 C -9.7476 -2.638 -1.5384 0
M  V30 51 C -9.6274 -2.3358 0.864 0
M  V30 52 C -10.9256 -3.3751 -1.3846 0
M  V30 53 C -10.8047 -3.0756 1.0125 0
M  V30 54 C -11.454 -3.5931 -0.1107 0
M  V30 55 H 8.2528 -0.3868 -0.2146 0
M  V30 56 H 9.3384 2.545 3.0937 0
M  V30 57 H 9.3108 1.4806 -1.0975 0
M  V30 58 H 5.2314 1.5593 0.5936 0
M  V30 59 H 11.4118 3.8231 2.736 0
M  V30 60 H 11.385 2.7511 -1.4195 0
M  V30 61 H 4.3958 -3.2251 -0.4464 0
M  V30 62 H 12.4464 3.926 0.4871 0
M  V30 63 H 7.6231 -2.0182 -2.1833 0
M  V30 64 H 8.4947 -3.4008 -1.432 0
M  V30 65 H 5.6369 -3.4389 -2.5829 0
M  V30 66 H 7.0936 -4.2846 -3.2173 0
M  V30 67 H 6.3797 -4.7987 -1.6389 0
M  V30 68 H 1.2759 2.8429 1.5735 0
M  V30 69 H -1.1345 -3.3467 0.0932 0
M  V30 70 H 0.0762 5.1963 1.7453 0
M  V30 71 H 1.2239 5.4279 0.3644 0
M  V30 72 H -0.5277 5.8415 0.1706 0
M  V30 73 H -0.4159 -5.0755 -2.9357 0
M  V30 74 H -0.8813 -5.3156 -1.2125 0
M  V30 75 H 0.8515 -5.4583 -1.7012 0
M  V30 76 H -4.2761 2.9219 1.2655 0
M  V30 77 H -5.1265 -1.791 -0.0432 0
M  V30 78 H -8.1155 0.0112 1.0632 0
M  V30 79 H -6.3039 4.2113 0.7821 0
M  V30 80 H -6.2617 3.6934 2.5221 0
M  V30 81 H -8.7951 4.1201 0.8155 0
M  V30 82 H -8.1573 5.2475 2.078 0
M  V30 83 H -8.7541 3.6078 2.551 0
M  V30 84 H -9.3581 -2.4772 -2.5361 0
M  V30 85 H -9.1321 -1.967 1.7524 0
M  V30 86 H -11.4273 -3.779 -2.2544 0
M  V30 87 H -11.2106 -3.2518 2.0006 0
M  V30 88 H -12.3642 -4.1675 0.0058 0
M  V30 END ATOM
M  V30 BEGIN BOND
M  V30 1 2 1 2
M  V30 2 1 2 3
M  V30 3 1 2 4
M  V30 4 1 3 5
M  V30 5 2 4 6
M  V30 6 1 4 7
M  V30 7 2 5 8
M  V30 8 1 5 9
M  V30 9 1 6 10
M  V30 10 2 7 11
M  V30 11 1 8 12
M  V30 12 1 8 13
M  V30 13 2 9 14
M  V30 14 2 10 15
M  V30 15 1 12 16
M  V30 16 2 13 17
M  V30 17 1 14 18
M  V30 18 1 16 19
M  V30 19 1 17 20
M  V30 20 1 18 21
M  V30 21 2 20 22
M  V30 22 2 21 23
M  V30 23 1 22 24
M  V30 24 1 23 25
M  V30 25 1 23 26
M  V30 26 1 24 27
M  V30 27 2 24 28
M  V30 28 1 25 29
M  V30 29 2 26 30
M  V30 30 1 27 31
M  V30 31 1 28 32
M  V30 32 2 29 33
M  V30 33 1 29 34
M  V30 34 1 30 35
M  V30 35 2 31 36
M  V30 36 1 31 37
M  V30 37 1 32 38
M  V30 38 1 35 39
M  V30 39 1 38 40
M  V30 40 2 39 41
M  V30 41 2 40 42
M  V30 42 1 41 43
M  V30 43 1 42 44
M  V30 44 1 43 45
M  V30 45 1 44 46
M  V30 46 1 45 47
M  V30 47 2 46 48
M  V30 48 1 46 49
M  V30 49 2 49 50
M  V30 50 1 49 51
M  V30 51 1 50 52
M  V30 52 2 51 53
M  V30 53 2 52 54
M  V30 54 1 11 15
M  V30 55 1 14 17
M  V30 56 1 21 22
M  V30 57 1 26 28
M  V30 58 2 35 38
M  V30 59 1 41 42
M  V30 60 1 53 54
M  V30 61 1 3 55
M  V30 62 1 6 56
M  V30 63 1 7 57
M  V30 64 1 9 58
M  V30 65 1 10 59
M  V30 66 1 11 60
M  V30 67 1 13 61
M  V30 68 1 15 62
M  V30 69 1 16 63
M  V30 70 1 16 64
M  V30 71 1 19 65
M  V30 72 1 19 66
M  V30 73 1 19 67
M  V30 74 1 25 68
M  V30 75 1 27 69
M  V30 76 1 34 70
M  V30 77 1 34 71
M  V30 78 1 34 72
M  V30 79 1 37 73
M  V30 80 1 37 74
M  V30 81 1 37 75
M  V30 82 1 39 76
M  V30 83 1 40 77
M  V30 84 1 44 78
M  V30 85 1 45 79
M  V30 86 1 45 80
M  V30 87 1 47 81
M  V30 88 1 47 82
M  V30 89 1 47 83
M  V30 90 1 50 84
M  V30 91 1 51 85
M  V30 92 1 52 86
M  V30 93 1 53 87
M  V30 94 1 54 88
M  V30 END BOND
M  V30 END CTAB
M  END
>  <Structure No>
1460

>  <LogS>
-7.86138265

>  <MMFF94 Energy>
149.79

$$$$
Compound 1461
Actelion Java MolfileCreator 2.0

  0  0  0  0  0  0              0 V3000
M  V30 BEGIN CTAB
M  V30 COUNTS 111 110 0 0 0
M  V30 BEGIN ATOM
M  V30 1 O 1.4849 1.0939 1.7977 0
M  V30 2 C 0.541 1.8711 2.1068 0
M  V30 3 N 0.5457 2.5571 3.366 0
M  V30 4 C -0.6104 2.0479 1.1631 0
M  V30 5 C 1.7182 2.6086 4.24 0
M  V30 6 C -1.7587 1.0998 1.5307 0
M  V30 7 C 2.4511 3.9505 4.0883 0
M  V30 8 C -2.9892 1.2893 0.6236 0
M  V30 9 C 3.1743 4.0963 2.7375 0
M  V30 10 C -3.8587 2.5067 1.003 0
M  V30 11 C 4.5387 3.3872 2.735 0
M  V30 12 C -4.7461 2.2978 2.2472 0
M  V30 13 C 5.1892 3.3552 1.3399 0
M  V30 14 C -5.8811 1.2683 2.0776 0
M  V30 15 C 4.6137 2.2808 0.3922 0
M  V30 16 C -6.9235 1.6598 1.009 0
M  V30 17 C 4.9365 0.8188 0.7759 0
M  V30 18 C -6.7481 0.8604 -0.2949 0
M  V30 19 C 6.4212 0.4287 0.6366 0
M  V30 20 C -7.7141 1.328 -1.4042 0
M  V30 21 C 6.8323 0.1789 -0.8255 0
M  V30 22 C -8.9339 0.4116 -1.5899 0
M  V30 23 C 8.3568 0.0664 -1.0043 0
M  V30 24 C -9.872 0.4116 -0.3721 0
M  V30 25 C 9.0252 -1.0831 -0.224 0
M  V30 26 C -11.2384 -0.2203 -0.6771 0
M  V30 27 C 8.5217 -2.4923 -0.5828 0
M  V30 28 C -11.1368 -1.7189 -0.9976 0
M  V30 29 C 8.7262 -2.9011 -2.0536 0
M  V30 30 C -12.5294 -2.3471 -1.1229 0
M  V30 31 C 10.2094 -3.032 -2.4668 0
M  V30 32 C -12.4298 -3.8274 -1.509 0
M  V30 33 C 10.7106 -1.8183 -3.2684 0
M  V30 34 C -13.8191 -4.471 -1.5845 0
M  V30 35 C 12.0942 -2.0452 -3.9028 0
M  V30 36 C -13.7223 -5.9427 -1.9739 0
M  V30 37 C 13.2424 -2.137 -2.8764 0
M  V30 38 C 13.6914 -3.5789 -2.6331 0
M  V30 39 H -0.2633 3.1787 3.6013 0
M  V30 40 H -0.2703 1.8415 0.1243 0
M  V30 41 H -0.9457 3.1051 1.2059 0
M  V30 42 H 2.4013 1.7558 4.043 0
M  V30 43 H 1.3743 2.5111 5.2926 0
M  V30 44 H -1.3965 0.0561 1.4124 0
M  V30 45 H -2.035 1.2304 2.5962 0
M  V30 46 H 3.1831 4.0623 4.9186 0
M  V30 47 H 1.7125 4.7751 4.1946 0
M  V30 48 H -3.5976 0.3627 0.6458 0
M  V30 49 H -2.65 1.4071 -0.4296 0
M  V30 50 H 2.5296 3.7259 1.9156 0
M  V30 51 H 3.3452 5.1778 2.5475 0
M  V30 52 H -3.2082 3.388 1.1841 0
M  V30 53 H -4.4964 2.7831 0.1387 0
M  V30 54 H 4.4575 2.3648 3.1517 0
M  V30 55 H 5.2157 3.95 3.4142 0
M  V30 56 H -5.2007 3.2761 2.5186 0
M  V30 57 H -4.1193 1.9993 3.113 0
M  V30 58 H 6.2815 3.2136 1.4576 0
M  V30 59 H 5.0659 4.3516 0.8612 0
M  V30 60 H -5.4714 0.2543 1.8948 0
M  V30 61 H -6.4053 1.2027 3.0563 0
M  V30 62 H 4.9863 2.484 -0.6321 0
M  V30 63 H 3.5111 2.394 0.3358 0
M  V30 64 H -7.9355 1.4597 1.4184 0
M  V30 65 H -6.8734 2.7508 0.798 0
M  V30 66 H 4.6092 0.6184 1.815 0
M  V30 67 H 4.326 0.1457 0.1348 0
M  V30 68 H -5.7087 0.9905 -0.6629 0
M  V30 69 H -6.8801 -0.2251 -0.0904 0
M  V30 70 H 7.0763 1.1939 1.0987 0
M  V30 71 H 6.5761 -0.5113 1.2085 0
M  V30 72 H -7.1583 1.3314 -2.3664 0
M  V30 73 H -8.0514 2.3735 -1.2373 0
M  V30 74 H 6.3313 -0.7355 -1.2102 0
M  V30 75 H 6.4914 1.0227 -1.4602 0
M  V30 76 H -9.4939 0.7675 -2.4823 0
M  V30 77 H -8.585 -0.6226 -1.7995 0
M  V30 78 H 8.5781 -0.0326 -2.0863 0
M  V30 79 H 8.8227 1.0218 -0.6816 0
M  V30 80 H -9.3999 -0.1403 0.4686 0
M  V30 81 H -10.0455 1.4595 -0.0456 0
M  V30 82 H 10.1217 -1.0368 -0.3864 0
M  V30 83 H 8.8777 -0.9197 0.8644 0
M  V30 84 H -11.8867 -0.0843 0.2166 0
M  V30 85 H -11.7196 0.316 -1.5253 0
M  V30 86 H 7.4432 -2.576 -0.3307 0
M  V30 87 H 9.0469 -3.2264 0.0655 0
M  V30 88 H -10.5912 -1.8559 -1.9571 0
M  V30 89 H -10.5731 -2.2358 -0.1879 0
M  V30 90 H 8.2513 -3.8999 -2.1773 0
M  V30 91 H 8.169 -2.2195 -2.7315 0
M  V30 92 H -13.0619 -2.2545 -0.1498 0
M  V30 93 H -13.1144 -1.8047 -1.8994 0
M  V30 94 H 10.3156 -3.9374 -3.1033 0
M  V30 95 H 10.846 -3.1839 -1.5702 0
M  V30 96 H -11.8141 -4.3665 -0.7544 0
M  V30 97 H -11.9302 -3.9143 -2.4995 0
M  V30 98 H 9.9932 -1.6106 -4.0922 0
M  V30 99 H 10.7487 -0.9167 -2.6247 0
M  V30 100 H -14.3238 -4.3939 -0.5968 0
M  V30 101 H -14.4403 -3.9397 -2.3385 0
M  V30 102 H 12.2956 -1.1777 -4.5687 0
M  V30 103 H 12.0658 -2.9409 -4.5606 0
M  V30 104 H -14.7383 -6.3885 -2.0032 0
M  V30 105 H -13.261 -6.0451 -2.9794 0
M  V30 106 H -13.1121 -6.5002 -1.2316 0
M  V30 107 H 12.9571 -1.668 -1.9087 0
M  V30 108 H 14.1173 -1.5743 -3.2689 0
M  V30 109 H 14.0462 -4.0359 -3.582 0
M  V30 110 H 14.5335 -3.5876 -1.9102 0
M  V30 111 H 12.8633 -4.1907 -2.2201 0
M  V30 END ATOM
M  V30 BEGIN BOND
M  V30 1 2 1 2
M  V30 2 1 2 3
M  V30 3 1 2 4
M  V30 4 1 3 5
M  V30 5 1 4 6
M  V30 6 1 5 7
M  V30 7 1 6 8
M  V30 8 1 7 9
M  V30 9 1 8 10
M  V30 10 1 9 11
M  V30 11 1 10 12
M  V30 12 1 11 13
M  V30 13 1 12 14
M  V30 14 1 13 15
M  V30 15 1 14 16
M  V30 16 1 15 17
M  V30 17 1 16 18
M  V30 18 1 17 19
M  V30 19 1 18 20
M  V30 20 1 19 21
M  V30 21 1 20 22
M  V30 22 1 21 23
M  V30 23 1 22 24
M  V30 24 1 23 25
M  V30 25 1 24 26
M  V30 26 1 25 27
M  V30 27 1 26 28
M  V30 28 1 27 29
M  V30 29 1 28 30
M  V30 30 1 29 31
M  V30 31 1 30 32
M  V30 32 1 31 33
M  V30 33 1 32 34
M  V30 34 1 33 35
M  V30 35 1 34 36
M  V30 36 1 35 37
M  V30 37 1 37 38
M  V30 38 1 3 39
M  V30 39 1 4 40
M  V30 40 1 4 41
M  V30 41 1 5 42
M  V30 42 1 5 43
M  V30 43 1 6 44
M  V30 44 1 6 45
M  V30 45 1 7 46
M  V30 46 1 7 47
M  V30 47 1 8 48
M  V30 48 1 8 49
M  V30 49 1 9 50
M  V30 50 1 9 51
M  V30 51 1 10 52
M  V30 52 1 10 53
M  V30 53 1 11 54
M  V30 54 1 11 55
M  V30 55 1 12 56
M  V30 56 1 12 57
M  V30 57 1 13 58
M  V30 58 1 13 59
M  V30 59 1 14 60
M  V30 60 1 14 61
M  V30 61 1 15 62
M  V30 62 1 15 63
M  V30 63 1 16 64
M  V30 64 1 16 65
M  V30 65 1 17 66
M  V30 66 1 17 67
M  V30 67 1 18 68
M  V30 68 1 18 69
M  V30 69 1 19 70
M  V30 70 1 19 71
M  V30 71 1 20 72
M  V30 72 1 20 73
M  V30 73 1 21 74
M  V30 74 1 21 75
M  V30 75 1 22 76
M  V30 76 1 22 77
M  V30 77 1 23 78
M  V30 78 1 23 79
M  V30 79 1 24 80
M  V30 80 1 24 81
M  V30 81 1 25 82
M  V30 82 1 25 83
M  V30 83 1 26 84
M  V30 84 1 26 85
M  V30 85 1 27 86
M  V30 86 1 27 87
M  V30 87 1 28 88
M  V30 88 1 28 89
M  V30 89 1 29 90
M  V30 90 1 29 91
M  V30 91 1 30 92
M  V30 92 1 30 93
M  V30 93 1 31 94
M  V30 94 1 31 95
M  V30 95 1 32 96
M  V30 96 1 32 97
M  V30 97 1 33 98
M  V30 98 1 33 99
M  V30 99 1 34 100
M  V30 100 1 34 101
M  V30 101 1 35 102
M  V30 102 1 35 103
M  V30 103 1 36 104
M  V30 104 1 36 105
M  V30 105 1 36 106
M  V30 106 1 37 107
M  V30 107 1 37 108
M  V30 108 1 38 109
M  V30 109 1 38 110
M  V30 110 1 38 111
M  V30 END BOND
M  V30 END CTAB
M  END
>  <Structure No>
1461

>  <LogS>
-7.729153446

>  <MMFF94 Energy>
-34.523

$$$$
Compound 1462
Actelion Java MolfileCreator 2.0

  0  0  0  0  0  0              0 V3000
M  V30 BEGIN CTAB
M  V30 COUNTS 135 138 0 0 0
M  V30 BEGIN ATOM
M  V30 1 O -4.6901 -4.5308 -1.9057 0
M  V30 2 C -4.1515 -3.668 -0.9471 0
M  V30 3 C -4.9639 -2.7499 -0.1903 0
M  V30 4 C -2.7377 -3.7366 -0.7497 0
M  V30 5 C -4.2942 -1.9081 0.7288 0
M  V30 6 C -6.516 -2.6291 -0.3476 0
M  V30 7 C -2.1488 -2.8269 0.1501 0
M  V30 8 C -1.8514 -4.7493 -1.5406 0
M  V30 9 C -2.9081 -1.9079 0.871 0
M  V30 10 C -7.2148 -3.961 0.0321 0
M  V30 11 C -6.8842 -2.1654 -1.7802 0
M  V30 12 C -7.1504 -1.561 0.5912 0
M  V30 13 C -1.8498 -4.3829 -3.0424 0
M  V30 14 C -0.3676 -4.7548 -1.0799 0
M  V30 15 C -2.3725 -6.1966 -1.3484 0
M  V30 16 C -2.262 -0.9257 1.8335 0
M  V30 17 C -0.9346 -0.3583 1.3211 0
M  V30 18 C -0.9367 0.6562 0.3249 0
M  V30 19 C 0.2992 -0.838 1.8414 0
M  V30 20 C 0.2826 1.2869 -0.0498 0
M  V30 21 C -2.2513 1.1456 -0.2793 0
M  V30 22 C 1.5087 -0.1459 1.5462 0
M  V30 23 C 0.3079 -2.0384 2.7812 0
M  V30 24 C 1.4948 0.9333 0.612 0
M  V30 25 C 0.2582 2.4069 -1.0985 0
M  V30 26 C 2.8071 -0.5081 2.2783 0
M  V30 27 C 2.7868 1.6643 0.2607 0
M  V30 28 C -0.3495 3.6843 -0.5497 0
M  V30 29 C 3.8283 -1.1586 1.3664 0
M  V30 30 C -1.39 4.3145 -1.2339 0
M  V30 31 C 0.0866 4.2121 0.6634 0
M  V30 32 C 3.5494 -2.3762 0.742 0
M  V30 33 C 5.0885 -0.578 1.1982 0
M  V30 34 C -2.0737 5.4292 -0.6936 0
M  V30 35 C -0.4759 5.3795 1.2152 0
M  V30 36 C 4.5178 -3.0555 -0.0283 0
M  V30 37 C 6.0316 -1.1076 0.2935 0
M  V30 38 C -1.53 6.0153 0.4977 0
M  V30 39 C -3.3878 5.9356 -1.3712 0
M  V30 40 C 0.048 5.9533 2.565 0
M  V30 41 C 5.706 -2.3315 -0.3638 0
M  V30 42 C 4.2521 -4.5283 -0.4672 0
M  V30 43 C 7.3536 -0.3449 -0.0148 0
M  V30 44 O -2.0006 7.2325 0.9892 0
M  V30 45 C -3.0965 7.175 -2.2474 0
M  V30 46 C -4.022 4.8632 -2.306 0
M  V30 47 C -4.4779 6.2543 -0.3095 0
M  V30 48 C 0.6033 7.3862 2.3682 0
M  V30 49 C -1.0971 5.9687 3.6055 0
M  V30 50 C 1.1984 5.1118 3.1856 0
M  V30 51 O 6.557 -2.7811 -1.3709 0
M  V30 52 C 5.55 -5.3815 -0.4272 0
M  V30 53 C 3.6289 -4.5561 -1.8779 0
M  V30 54 C 3.2576 -5.2421 0.4961 0
M  V30 55 C 7.5312 0.9455 0.8332 0
M  V30 56 C 7.3774 0.0968 -1.4977 0
M  V30 57 C 8.5744 -1.2447 0.2883 0
M  V30 58 H -5.6517 -4.6343 -2.173 0
M  V30 59 H -4.8275 -1.1999 1.3428 0
M  V30 60 H -1.0855 -2.8068 0.2982 0
M  V30 61 H -7.0484 -4.1862 1.1088 0
M  V30 62 H -6.8721 -4.8438 -0.5255 0
M  V30 63 H -8.3116 -3.8817 -0.132 0
M  V30 64 H -6.431 -1.1686 -1.9843 0
M  V30 65 H -7.9863 -2.0668 -1.8867 0
M  V30 66 H -6.5506 -2.8314 -2.589 0
M  V30 67 H -6.9756 -1.8069 1.6626 0
M  V30 68 H -6.7547 -0.5428 0.3767 0
M  V30 69 H -8.255 -1.5119 0.4504 0
M  V30 70 H -2.8649 -4.4041 -3.4829 0
M  V30 71 H -1.4359 -3.3628 -3.1861 0
M  V30 72 H -1.2254 -5.0972 -3.6207 0
M  V30 73 H 0.1242 -3.7761 -1.2842 0
M  V30 74 H 0.2204 -5.5203 -1.6317 0
M  V30 75 H -0.2928 -4.9906 0.004 0
M  V30 76 H -3.2814 -6.4082 -1.9399 0
M  V30 77 H -2.5907 -6.3893 -0.2758 0
M  V30 78 H -1.6233 -6.9445 -1.6836 0
M  V30 79 H -2.9426 -0.07 2.0387 0
M  V30 80 H -2.1737 -1.4 2.8314 0
M  V30 81 H -2.184 1.2545 -1.3772 0
M  V30 82 H -2.5333 2.1146 0.1782 0
M  V30 83 H -3.1026 0.4641 -0.1437 0
M  V30 84 H 0.2249 -1.6939 3.8332 0
M  V30 85 H -0.5065 -2.7575 2.5668 0
M  V30 86 H 1.214 -2.6601 2.6659 0
M  V30 87 H 1.2497 2.637 -1.5284 0
M  V30 88 H -0.2885 2.0516 -1.993 0
M  V30 89 H 2.6575 -1.1653 3.1536 0
M  V30 90 H 3.2159 0.402 2.7648 0
M  V30 91 H 3.5221 1.6759 1.0758 0
M  V30 92 H 2.632 2.7429 0.0738 0
M  V30 93 H 3.2488 1.1995 -0.6338 0
M  V30 94 H -1.692 3.8753 -2.1711 0
M  V30 95 H 0.8713 3.6841 1.1711 0
M  V30 96 H 2.57 -2.7937 0.8877 0
M  V30 97 H 5.2901 0.3224 1.7551 0
M  V30 98 H -2.3549 7.975 0.4124 0
M  V30 99 H -2.5762 7.9776 -1.6956 0
M  V30 100 H -4.0429 7.5985 -2.6482 0
M  V30 101 H -2.4457 6.9023 -3.1057 0
M  V30 102 H -5.0186 5.1945 -2.6796 0
M  V30 103 H -4.1586 3.9001 -1.7658 0
M  V30 104 H -3.4084 4.693 -3.2193 0
M  V30 105 H -4.3274 7.2209 0.2007 0
M  V30 106 H -4.5213 5.4438 0.4494 0
M  V30 107 H -5.4856 6.3385 -0.7738 0
M  V30 108 H 1.2766 7.4196 1.4847 0
M  V30 109 H -0.1992 8.1404 2.2292 0
M  V30 110 H 1.185 7.7206 3.2568 0
M  V30 111 H -0.7207 6.2838 4.6038 0
M  V30 112 H -1.5399 4.9534 3.7098 0
M  V30 113 H -1.9088 6.6728 3.3335 0
M  V30 114 H 0.8624 4.0769 3.3994 0
M  V30 115 H 2.0787 5.0882 2.5073 0
M  V30 116 H 1.5383 5.5502 4.1498 0
M  V30 117 H 6.2261 -3.247 -2.201 0
M  V30 118 H 6.232 -5.1835 -1.2726 0
M  V30 119 H 6.0945 -5.211 0.5255 0
M  V30 120 H 5.3206 -6.4656 -0.4997 0
M  V30 121 H 4.3233 -4.1806 -2.6512 0
M  V30 122 H 2.7078 -3.9299 -1.9073 0
M  V30 123 H 3.3486 -5.5958 -2.1574 0
M  V30 124 H 3.5777 -5.1202 1.5554 0
M  V30 125 H 2.2211 -4.8648 0.383 0
M  V30 126 H 3.1987 -6.3314 0.2816 0
M  V30 127 H 7.5413 0.7116 1.9228 0
M  V30 128 H 8.4955 1.4474 0.599 0
M  V30 129 H 6.7228 1.6767 0.6192 0
M  V30 130 H 7.466 -0.7557 -2.1975 0
M  V30 131 H 8.2499 0.7564 -1.7001 0
M  V30 132 H 6.4521 0.6616 -1.7465 0
M  V30 133 H 8.6255 -2.1305 -0.3746 0
M  V30 134 H 9.5252 -0.6839 0.1467 0
M  V30 135 H 8.5354 -1.5974 1.3413 0
M  V30 END ATOM
M  V30 BEGIN BOND
M  V30 1 1 1 2
M  V30 2 2 2 3
M  V30 3 1 2 4
M  V30 4 1 3 5
M  V30 5 1 3 6
M  V30 6 2 4 7
M  V30 7 1 4 8
M  V30 8 2 5 9
M  V30 9 1 6 10
M  V30 10 1 6 11
M  V30 11 1 6 12
M  V30 12 1 8 13
M  V30 13 1 8 14
M  V30 14 1 8 15
M  V30 15 1 9 16
M  V30 16 1 16 17
M  V30 17 2 17 18
M  V30 18 1 17 19
M  V30 19 1 18 20
M  V30 20 1 18 21
M  V30 21 2 19 22
M  V30 22 1 19 23
M  V30 23 2 20 24
M  V30 24 1 20 25
M  V30 25 1 22 26
M  V30 26 1 24 27
M  V30 27 1 25 28
M  V30 28 1 26 29
M  V30 29 2 28 30
M  V30 30 1 28 31
M  V30 31 2 29 32
M  V30 32 1 29 33
M  V30 33 1 30 34
M  V30 34 2 31 35
M  V30 35 1 32 36
M  V30 36 2 33 37
M  V30 37 2 34 38
M  V30 38 1 34 39
M  V30 39 1 35 40
M  V30 40 2 36 41
M  V30 41 1 36 42
M  V30 42 1 37 43
M  V30 43 1 38 44
M  V30 44 1 39 45
M  V30 45 1 39 46
M  V30 46 1 39 47
M  V30 47 1 40 48
M  V30 48 1 40 49
M  V30 49 1 40 50
M  V30 50 1 41 51
M  V30 51 1 42 52
M  V30 52 1 42 53
M  V30 53 1 42 54
M  V30 54 1 43 55
M  V30 55 1 43 56
M  V30 56 1 43 57
M  V30 57 1 7 9
M  V30 58 1 22 24
M  V30 59 1 35 38
M  V30 60 1 37 41
M  V30 61 1 1 58
M  V30 62 1 5 59
M  V30 63 1 7 60
M  V30 64 1 10 61
M  V30 65 1 10 62
M  V30 66 1 10 63
M  V30 67 1 11 64
M  V30 68 1 11 65
M  V30 69 1 11 66
M  V30 70 1 12 67
M  V30 71 1 12 68
M  V30 72 1 12 69
M  V30 73 1 13 70
M  V30 74 1 13 71
M  V30 75 1 13 72
M  V30 76 1 14 73
M  V30 77 1 14 74
M  V30 78 1 14 75
M  V30 79 1 15 76
M  V30 80 1 15 77
M  V30 81 1 15 78
M  V30 82 1 16 79
M  V30 83 1 16 80
M  V30 84 1 21 81
M  V30 85 1 21 82
M  V30 86 1 21 83
M  V30 87 1 23 84
M  V30 88 1 23 85
M  V30 89 1 23 86
M  V30 90 1 25 87
M  V30 91 1 25 88
M  V30 92 1 26 89
M  V30 93 1 26 90
M  V30 94 1 27 91
M  V30 95 1 27 92
M  V30 96 1 27 93
M  V30 97 1 30 94
M  V30 98 1 31 95
M  V30 99 1 32 96
M  V30 100 1 33 97
M  V30 101 1 44 98
M  V30 102 1 45 99
M  V30 103 1 45 100
M  V30 104 1 45 101
M  V30 105 1 46 102
M  V30 106 1 46 103
M  V30 107 1 46 104
M  V30 108 1 47 105
M  V30 109 1 47 106
M  V30 110 1 47 107
M  V30 111 1 48 108
M  V30 112 1 48 109
M  V30 113 1 48 110
M  V30 114 1 49 111
M  V30 115 1 49 112
M  V30 116 1 49 113
M  V30 117 1 50 114
M  V30 118 1 50 115
M  V30 119 1 50 116
M  V30 120 1 51 117
M  V30 121 1 52 118
M  V30 122 1 52 119
M  V30 123 1 52 120
M  V30 124 1 53 121
M  V30 125 1 53 122
M  V30 126 1 53 123
M  V30 127 1 54 124
M  V30 128 1 54 125
M  V30 129 1 54 126
M  V30 130 1 55 127
M  V30 131 1 55 128
M  V30 132 1 55 129
M  V30 133 1 56 130
M  V30 134 1 56 131
M  V30 135 1 56 132
M  V30 136 1 57 133
M  V30 137 1 57 134
M  V30 138 1 57 135
M  V30 END BOND
M  V30 END CTAB
M  END
>  <Structure No>
1462

>  <LogS>
-7.981473646

>  <MMFF94 Energy>
241.69

$$$$
Compound 1463
Actelion Java MolfileCreator 2.0

  0  0  0  0  0  0              0 V3000
M  V30 BEGIN CTAB
M  V30 COUNTS 62 65 0 0 0
M  V30 BEGIN ATOM
M  V30 1 N 0.2387 -1.5923 1.1941 0
M  V30 2 C 1.3442 -0.892 0.5984 0
M  V30 3 C -1.1324 -1.1671 1.1088 0
M  V30 4 C 1.3489 0.5069 0.4903 0
M  V30 5 C 2.4646 -1.6113 0.1702 0
M  V30 6 C -2.0165 -1.4801 2.1472 0
M  V30 7 C -1.6194 -0.4961 -0.0226 0
M  V30 8 C 2.4431 1.1727 -0.0686 0
M  V30 9 C 3.5596 -0.9503 -0.3898 0
M  V30 10 C -3.3602 -1.1015 2.0781 0
M  V30 11 C -2.961 -0.1166 -0.096 0
M  V30 12 C 3.5781 0.4557 -0.5098 0
M  V30 13 C -3.8625 -0.4209 0.9462 0
M  V30 14 C 4.7966 1.137 -1.1625 0
M  V30 15 C -5.3274 0.0437 0.8297 0
M  V30 16 C 6.0888 0.6224 -0.4989 0
M  V30 17 C 4.7274 0.8272 -2.6775 0
M  V30 18 C 4.7899 2.6766 -1.0028 0
M  V30 19 C -5.8988 -0.398 -0.5314 0
M  V30 20 C -6.2449 -0.5586 1.9211 0
M  V30 21 C -5.3289 1.5802 1.0187 0
M  V30 22 C 6.1925 0.6417 0.9101 0
M  V30 23 C 7.2102 0.1823 -1.2404 0
M  V30 24 C -6.6184 0.4743 -1.3816 0
M  V30 25 C -5.7579 -1.7457 -0.9317 0
M  V30 26 C 7.355 0.2071 1.5515 0
M  V30 27 C 8.37 -0.2511 -0.5909 0
M  V30 28 C -7.1407 0.0182 -2.5957 0
M  V30 29 C -6.2826 -2.1934 -2.1465 0
M  V30 30 C 8.4415 -0.2418 0.8019 0
M  V30 31 C -6.9705 -1.3117 -2.9791 0
M  V30 32 H 0.4449 -2.4716 1.7207 0
M  V30 33 H 0.5099 1.0885 0.85 0
M  V30 34 H 2.4833 -2.6903 0.2579 0
M  V30 35 H -1.6589 -2.0091 3.0219 0
M  V30 36 H -0.966 -0.2767 -0.857 0
M  V30 37 H 2.3861 2.2485 -0.1409 0
M  V30 38 H 4.4015 -1.5404 -0.7297 0
M  V30 39 H -3.9909 -1.3521 2.918 0
M  V30 40 H -3.3016 0.4114 -0.9781 0
M  V30 41 H 3.7393 1.1287 -3.0888 0
M  V30 42 H 4.8596 -0.259 -2.8697 0
M  V30 43 H 5.5041 1.3887 -3.2402 0
M  V30 44 H 5.7314 3.111 -1.4044 0
M  V30 45 H 4.7098 2.9673 0.0667 0
M  V30 46 H 3.9482 3.1369 -1.5641 0
M  V30 47 H -5.9676 -0.187 2.9312 0
M  V30 48 H -6.1925 -1.6685 1.9195 0
M  V30 49 H -7.3028 -0.2673 1.7407 0
M  V30 50 H -4.7954 2.0861 0.1855 0
M  V30 51 H -4.8173 1.8535 1.9674 0
M  V30 52 H -6.3646 1.9793 1.0759 0
M  V30 53 H 5.3671 0.9934 1.5165 0
M  V30 54 H 7.2084 0.1657 -2.3199 0
M  V30 55 H -6.7861 1.5096 -1.1251 0
M  V30 56 H -5.2364 -2.454 -0.3001 0
M  V30 57 H 7.4139 0.222 2.6322 0
M  V30 58 H 9.2178 -0.592 -1.1709 0
M  V30 59 H -7.6829 0.6987 -3.2395 0
M  V30 60 H -6.158 -3.2275 -2.4403 0
M  V30 61 H 9.3417 -0.5772 1.3003 0
M  V30 62 H -7.3776 -1.6607 -3.9193 0
M  V30 END ATOM
M  V30 BEGIN BOND
M  V30 1 1 1 2
M  V30 2 1 1 3
M  V30 3 2 2 4
M  V30 4 1 2 5
M  V30 5 2 3 6
M  V30 6 1 3 7
M  V30 7 1 4 8
M  V30 8 2 5 9
M  V30 9 1 6 10
M  V30 10 2 7 11
M  V30 11 2 8 12
M  V30 12 2 10 13
M  V30 13 1 12 14
M  V30 14 1 13 15
M  V30 15 1 14 16
M  V30 16 1 14 17
M  V30 17 1 14 18
M  V30 18 1 15 19
M  V30 19 1 15 20
M  V30 20 1 15 21
M  V30 21 2 16 22
M  V30 22 1 16 23
M  V30 23 2 19 24
M  V30 24 1 19 25
M  V30 25 1 22 26
M  V30 26 2 23 27
M  V30 27 1 24 28
M  V30 28 2 25 29
M  V30 29 2 26 30
M  V30 30 2 28 31
M  V30 31 1 9 12
M  V30 32 1 11 13
M  V30 33 1 27 30
M  V30 34 1 29 31
M  V30 35 1 1 32
M  V30 36 1 4 33
M  V30 37 1 5 34
M  V30 38 1 6 35
M  V30 39 1 7 36
M  V30 40 1 8 37
M  V30 41 1 9 38
M  V30 42 1 10 39
M  V30 43 1 11 40
M  V30 44 1 17 41
M  V30 45 1 17 42
M  V30 46 1 17 43
M  V30 47 1 18 44
M  V30 48 1 18 45
M  V30 49 1 18 46
M  V30 50 1 20 47
M  V30 51 1 20 48
M  V30 52 1 20 49
M  V30 53 1 21 50
M  V30 54 1 21 51
M  V30 55 1 21 52
M  V30 56 1 22 53
M  V30 57 1 23 54
M  V30 58 1 24 55
M  V30 59 1 25 56
M  V30 60 1 26 57
M  V30 61 1 27 58
M  V30 62 1 28 59
M  V30 63 1 29 60
M  V30 64 1 30 61
M  V30 65 1 31 62
M  V30 END BOND
M  V30 END CTAB
M  END
>  <Structure No>
1463

>  <LogS>
-7.782007082

>  <MMFF94 Energy>
123.66

$$$$
Compound 1464
Actelion Java MolfileCreator 2.0

  0  0  0  0  0  0              0 V3000
M  V30 BEGIN CTAB
M  V30 COUNTS 48 51 0 0 0
M  V30 BEGIN ATOM
M  V30 1 S 8.4956 -0.9775 0.5701 0
M  V30 2 O 9.4693 0.129 0.8641 0
M  V30 3 O 8.7272 -1.4631 -0.8332 0
M  V30 4 N 8.7522 -2.2754 1.6827 0
M  V30 5 C 6.8445 -0.3854 0.7227 0
M  V30 6 C 5.787 -1.1076 0.129 0
M  V30 7 C 6.5716 0.8004 1.452 0
M  V30 8 C 4.4961 -0.6076 0.2788 0
M  V30 9 C 5.2518 1.2735 1.5794 0
M  V30 10 N 3.3514 -1.1181 -0.2041 0
M  V30 11 C 4.2429 0.534 0.9718 0
M  V30 12 C 2.4268 -0.222 0.2382 0
M  V30 13 O 2.959 0.7661 0.9425 0
M  V30 14 C 0.974 -0.3253 -0.0416 0
M  V30 15 C 0.4162 -1.3925 -0.7807 0
M  V30 16 C 0.1073 0.6716 0.4293 0
M  V30 17 O 1.1433 -2.3201 -1.2248 0
M  V30 18 O -0.8918 -1.4363 -1.0196 0
M  V30 19 C -1.2605 0.5917 0.1565 0
M  V30 20 C -1.7355 -0.5041 -0.5899 0
M  V30 21 C -2.1559 1.5733 0.6027 0
M  V30 22 C -3.0992 -0.6094 -0.8822 0
M  V30 23 C -3.5176 1.4642 0.3051 0
M  V30 24 C -3.9986 0.3737 -0.4379 0
M  V30 25 N -5.401 0.2676 -0.7487 0
M  V30 26 C -6.156 -0.9176 -0.3178 0
M  V30 27 C -6.0688 1.346 -1.4921 0
M  V30 28 C -6.3401 -0.9101 1.1959 0
M  V30 29 C -5.5369 1.4202 -2.9202 0
M  V30 30 H 8.0846 -3.0357 1.4236 0
M  V30 31 H 8.4649 -1.9304 2.6259 0
M  V30 32 H 5.9671 -2.0191 -0.4265 0
M  V30 33 H 7.3761 1.3537 1.9179 0
M  V30 34 H 5.0303 2.1795 2.1285 0
M  V30 35 H 0.4943 1.5074 1.0016 0
M  V30 36 H -1.8049 2.421 1.1783 0
M  V30 37 H -3.4533 -1.4452 -1.4715 0
M  V30 38 H -4.1995 2.2223 0.6676 0
M  V30 39 H -7.1584 -0.9457 -0.7971 0
M  V30 40 H -5.6259 -1.8434 -0.6245 0
M  V30 41 H -5.9065 2.3193 -0.9839 0
M  V30 42 H -7.1667 1.1803 -1.5319 0
M  V30 43 H -5.3533 -0.9528 1.7052 0
M  V30 44 H -6.939 -1.7932 1.5033 0
M  V30 45 H -6.8732 0.0131 1.5076 0
M  V30 46 H -5.6711 0.442 -3.4285 0
M  V30 47 H -4.4586 1.6843 -2.9167 0
M  V30 48 H -6.0912 2.1993 -3.4852 0
M  V30 END ATOM
M  V30 BEGIN BOND
M  V30 1 2 1 2
M  V30 2 2 1 3
M  V30 3 1 1 4
M  V30 4 1 1 5
M  V30 5 2 5 6
M  V30 6 1 5 7
M  V30 7 1 6 8
M  V30 8 2 7 9
M  V30 9 1 8 10
M  V30 10 2 8 11
M  V30 11 2 10 12
M  V30 12 1 11 13
M  V30 13 1 12 14
M  V30 14 1 14 15
M  V30 15 2 14 16
M  V30 16 2 15 17
M  V30 17 1 15 18
M  V30 18 1 16 19
M  V30 19 1 18 20
M  V30 20 1 19 21
M  V30 21 1 20 22
M  V30 22 2 21 23
M  V30 23 2 22 24
M  V30 24 1 24 25
M  V30 25 1 25 26
M  V30 26 1 25 27
M  V30 27 1 26 28
M  V30 28 1 27 29
M  V30 29 1 9 11
M  V30 30 1 12 13
M  V30 31 2 19 20
M  V30 32 1 23 24
M  V30 33 1 4 30
M  V30 34 1 4 31
M  V30 35 1 6 32
M  V30 36 1 7 33
M  V30 37 1 9 34
M  V30 38 1 16 35
M  V30 39 1 21 36
M  V30 40 1 22 37
M  V30 41 1 23 38
M  V30 42 1 26 39
M  V30 43 1 26 40
M  V30 44 1 27 41
M  V30 45 1 27 42
M  V30 46 1 28 43
M  V30 47 1 28 44
M  V30 48 1 28 45
M  V30 49 1 29 46
M  V30 50 1 29 47
M  V30 51 1 29 48
M  V30 END BOND
M  V30 END CTAB
M  END
>  <Structure No>
1464

>  <LogS>
-7.831098413

>  <MMFF94 Energy>
-29.554

$$$$
Compound 1465
Actelion Java MolfileCreator 2.0

  0  0  0  0  0  0              0 V3000
M  V30 BEGIN CTAB
M  V30 COUNTS 48 54 0 0 0
M  V30 BEGIN ATOM
M  V30 1 O 3.2755 1.9643 0.3271 0
M  V30 2 C 3.6988 0.8002 0.0919 0
M  V30 3 C 2.7931 -0.289 -0.0504 0
M  V30 4 C 5.0925 0.5877 0.0456 0
M  V30 5 C 1.3695 -0.1276 -0.1498 0
M  V30 6 C 3.3275 -1.6104 -0.0342 0
M  V30 7 C 5.6056 -0.7272 -0.0473 0
M  V30 8 C 5.9923 1.6738 0.1056 0
M  V30 9 N 0.7776 1.0644 -0.4703 0
M  V30 10 C 0.5298 -1.2561 -0.0118 0
M  V30 11 C 4.7226 -1.8198 -0.0586 0
M  V30 12 C 2.4583 -2.7135 0.0266 0
M  V30 13 C 7.0019 -0.9238 -0.0931 0
M  V30 14 C 7.3704 1.4593 0.0581 0
M  V30 15 C -0.578 1.2169 -0.4772 0
M  V30 16 N -0.8256 -1.103 -0.0158 0
M  V30 17 C 1.0836 -2.535 0.0792 0
M  V30 18 O 5.1836 -2.9963 -0.0888 0
M  V30 19 C 7.8736 0.1643 -0.0433 0
M  V30 20 C -1.4142 0.1258 -0.1492 0
M  V30 21 C -1.137 2.4393 -0.8569 0
M  V30 22 C -2.8346 0.3225 -0.0686 0
M  V30 23 C -2.5139 2.5941 -0.9252 0
M  V30 24 C -3.7275 -0.626 0.5061 0
M  V30 25 C -3.3772 1.5556 -0.5345 0
M  V30 26 O -3.2883 -1.6177 1.1491 0
M  V30 27 C -5.1234 -0.4371 0.4313 0
M  V30 28 C -4.7738 1.7499 -0.5878 0
M  V30 29 C -5.6485 0.7486 -0.1337 0
M  V30 30 C -6.0132 -1.4139 0.9285 0
M  V30 31 O -5.2437 2.8308 -1.0442 0
M  V30 32 C -7.0468 0.923 -0.2019 0
M  V30 33 C -7.3936 -1.2236 0.8512 0
M  V30 34 C -7.9089 -0.0597 0.2854 0
M  V30 35 H 5.6347 2.6935 0.1805 0
M  V30 36 H 1.3447 1.8695 -0.808 0
M  V30 37 H 2.8405 -3.7265 0.0634 0
M  V30 38 H 7.4245 -1.9185 -0.1633 0
M  V30 39 H 8.0501 2.3006 0.0998 0
M  V30 40 H -1.3989 -1.972 -0.0045 0
M  V30 41 H 0.4444 -3.406 0.1592 0
M  V30 42 H 8.9431 0.0023 -0.0791 0
M  V30 43 H -0.5016 3.2716 -1.1343 0
M  V30 44 H -2.9016 3.5485 -1.2608 0
M  V30 45 H -5.6464 -2.3319 1.3707 0
M  V30 46 H -7.4785 1.8204 -0.628 0
M  V30 47 H -8.0659 -1.9822 1.2312 0
M  V30 48 H -8.9803 0.0841 0.2283 0
M  V30 END ATOM
M  V30 BEGIN BOND
M  V30 1 2 1 2
M  V30 2 1 2 3
M  V30 3 1 2 4
M  V30 4 2 3 5
M  V30 5 1 3 6
M  V30 6 2 4 7
M  V30 7 1 4 8
M  V30 8 1 5 9
M  V30 9 1 5 10
M  V30 10 1 6 11
M  V30 11 2 6 12
M  V30 12 1 7 13
M  V30 13 2 8 14
M  V30 14 1 9 15
M  V30 15 1 10 16
M  V30 16 2 10 17
M  V30 17 2 11 18
M  V30 18 2 13 19
M  V30 19 2 15 20
M  V30 20 1 15 21
M  V30 21 1 20 22
M  V30 22 2 21 23
M  V30 23 1 22 24
M  V30 24 2 22 25
M  V30 25 2 24 26
M  V30 26 1 24 27
M  V30 27 1 25 28
M  V30 28 2 27 29
M  V30 29 1 27 30
M  V30 30 2 28 31
M  V30 31 1 29 32
M  V30 32 2 30 33
M  V30 33 2 32 34
M  V30 34 1 7 11
M  V30 35 1 12 17
M  V30 36 1 14 19
M  V30 37 1 16 20
M  V30 38 1 23 25
M  V30 39 1 28 29
M  V30 40 1 33 34
M  V30 41 1 8 35
M  V30 42 1 9 36
M  V30 43 1 12 37
M  V30 44 1 13 38
M  V30 45 1 14 39
M  V30 46 1 16 40
M  V30 47 1 17 41
M  V30 48 1 19 42
M  V30 49 1 21 43
M  V30 50 1 23 44
M  V30 51 1 30 45
M  V30 52 1 32 46
M  V30 53 1 33 47
M  V30 54 1 34 48
M  V30 END BOND
M  V30 END CTAB
M  END
>  <Structure No>
1465

>  <LogS>
-7.946874563

>  <MMFF94 Energy>
148.03

$$$$
Compound 1466
Actelion Java MolfileCreator 2.0

  0  0  0  0  0  0              0 V3000
M  V30 BEGIN CTAB
M  V30 COUNTS 98 99 0 0 0
M  V30 BEGIN ATOM
M  V30 1 O -4.0208 1.8117 2.8369 0
M  V30 2 C -4.1261 0.7866 2.1104 0
M  V30 3 N -2.9582 0.0283 1.7524 0
M  V30 4 N -5.4118 0.397 1.6101 0
M  V30 5 C -1.6339 0.364 2.2049 0
M  V30 6 C -6.6296 1.1103 2.0014 0
M  V30 7 C -0.5355 0.3909 1.3079 0
M  V30 8 C -1.418 0.6261 3.5657 0
M  V30 9 C -7.8568 0.5976 1.2374 0
M  V30 10 C 0.7682 0.6946 1.7975 0
M  V30 11 C -0.7096 0.1473 -0.0701 0
M  V30 12 C -0.1495 0.9459 4.0383 0
M  V30 13 C -7.8199 0.9983 -0.2443 0
M  V30 14 C 1.8683 0.7227 0.902 0
M  V30 15 C 0.9331 0.9909 3.1665 0
M  V30 16 C 0.3783 0.1712 -0.9383 0
M  V30 17 O -9.0384 0.6474 -0.8718 0
M  V30 18 N 3.2046 0.9757 1.3767 0
M  V30 19 C 1.6564 0.4455 -0.4576 0
M  V30 20 C -8.9289 -0.608 -1.5145 0
M  V30 21 C 4.1148 1.8836 0.7372 0
M  V30 22 C -10.334 -1.1054 -1.9141 0 CFG=2
M  V30 23 O 3.7816 2.4844 -0.3208 0
M  V30 24 N 5.399 2.1258 1.3226 0
M  V30 25 C -11.1833 -1.378 -0.6432 0
M  V30 26 C -10.2394 -2.3799 -2.7917 0
M  V30 27 C 6.4094 2.931 0.6354 0
M  V30 28 C -12.6953 -1.2741 -0.9166 0
M  V30 29 C -9.8051 -2.0821 -4.2282 0
M  V30 30 C 7.7285 2.9869 1.4236 0
M  V30 31 C -13.5448 -1.682 0.298 0
M  V30 32 C 8.4183 1.6221 1.538 0
M  V30 33 C -13.4675 -0.6696 1.4434 0
M  V30 34 O 8.6759 1.1072 0.2478 0
M  V30 35 C 9.1735 -0.211 0.3521 0
M  V30 36 C 9.4248 -0.7875 -1.0551 0 CFG=1
M  V30 37 C 10.4193 0.0781 -1.8782 0
M  V30 38 C 9.8257 -2.2792 -0.9513 0
M  V30 39 C 11.8637 0.0822 -1.3462 0
M  V30 40 C 9.982 -2.9585 -2.3112 0
M  V30 41 C 12.7705 0.9339 -2.244 0
M  V30 42 C 14.2069 0.9436 -1.7309 0
M  V30 43 H -3.0779 -0.7939 1.1197 0
M  V30 44 H -5.4669 -0.4268 0.9697 0
M  V30 45 H -6.5046 2.2006 1.8184 0
M  V30 46 H -6.8 0.9595 3.0893 0
M  V30 47 H -2.2362 0.5695 4.2694 0
M  V30 48 H -7.9226 -0.5078 1.3375 0
M  V30 49 H -8.7689 1.0351 1.7003 0
M  V30 50 H -1.6839 -0.058 -0.4915 0
M  V30 51 H -0.0025 1.1576 5.0892 0
M  V30 52 H -6.9231 0.5689 -0.75 0
M  V30 53 H -7.7162 2.1033 -0.3113 0
M  V30 54 H 1.8942 1.2653 3.5772 0
M  V30 55 H 0.2313 -0.0304 -1.9918 0
M  V30 56 H 3.5203 0.5112 2.2569 0
M  V30 57 H 2.4885 0.4221 -1.1488 0
M  V30 58 H -8.4551 -1.3709 -0.8531 0
M  V30 59 H -8.2993 -0.487 -2.4218 0
M  V30 60 H -10.823 -0.2976 -2.5041 0
M  V30 61 H 5.5981 1.7194 2.2654 0
M  V30 62 H -10.9358 -2.3839 -0.2358 0
M  V30 63 H -10.9305 -0.6351 0.1422 0
M  V30 64 H -11.2272 -2.8831 -2.8452 0
M  V30 65 H -9.5308 -3.1051 -2.3354 0
M  V30 66 H 6.5942 2.5138 -0.3774 0
M  V30 67 H 6.024 3.9661 0.5101 0
M  V30 68 H -12.9723 -1.941 -1.7584 0
M  V30 69 H -12.9499 -0.2354 -1.2215 0
M  V30 70 H -9.8496 -3.0162 -4.8271 0
M  V30 71 H -10.4823 -1.3344 -4.6919 0
M  V30 72 H -8.7625 -1.706 -4.2641 0
M  V30 73 H 7.5332 3.387 2.4423 0
M  V30 74 H 8.4171 3.6954 0.9137 0
M  V30 75 H -14.6069 -1.7584 -0.0255 0
M  V30 76 H -13.2329 -2.685 0.6647 0
M  V30 77 H 9.3751 1.7634 2.0898 0
M  V30 78 H 7.7709 0.9354 2.1308 0
M  V30 79 H -14.1884 -0.9556 2.2395 0
M  V30 80 H -12.4523 -0.6611 1.8934 0
M  V30 81 H -13.7227 0.3501 1.0807 0
M  V30 82 H 10.1159 -0.2345 0.9445 0
M  V30 83 H 8.4222 -0.8593 0.8606 0
M  V30 84 H 8.449 -0.7483 -1.5905 0
M  V30 85 H 10.0452 1.1252 -1.9095 0
M  V30 86 H 10.418 -0.2764 -2.9323 0
M  V30 87 H 9.0291 -2.8232 -0.3973 0
M  V30 88 H 10.7624 -2.3966 -0.3666 0
M  V30 89 H 11.8853 0.4999 -0.3162 0
M  V30 90 H 12.2657 -0.9526 -1.3203 0
M  V30 91 H 10.8858 -2.5839 -2.836 0
M  V30 92 H 9.0845 -2.7771 -2.9391 0
M  V30 93 H 10.0983 -4.0523 -2.165 0
M  V30 94 H 12.3939 1.9796 -2.2767 0
M  V30 95 H 12.7641 0.5261 -3.2784 0
M  V30 96 H 14.8384 1.5617 -2.4041 0
M  V30 97 H 14.2506 1.3766 -0.7078 0
M  V30 98 H 14.6177 -0.0879 -1.7091 0
M  V30 END ATOM
M  V30 BEGIN BOND
M  V30 1 2 1 2
M  V30 2 1 2 3
M  V30 3 1 2 4
M  V30 4 1 3 5
M  V30 5 1 4 6
M  V30 6 1 5 7
M  V30 7 2 5 8
M  V30 8 1 6 9
M  V30 9 1 7 10
M  V30 10 2 7 11
M  V30 11 1 8 12
M  V30 12 1 9 13
M  V30 13 2 10 14
M  V30 14 1 10 15
M  V30 15 1 11 16
M  V30 16 1 13 17
M  V30 17 1 14 18
M  V30 18 1 14 19
M  V30 19 1 17 20
M  V30 20 1 18 21
M  V30 21 1 20 22
M  V30 22 2 21 23
M  V30 23 1 21 24
M  V30 24 1 22 25
M  V30 25 1 22 26
M  V30 26 1 24 27
M  V30 27 1 25 28
M  V30 28 1 26 29
M  V30 29 1 27 30
M  V30 30 1 28 31
M  V30 31 1 30 32
M  V30 32 1 31 33
M  V30 33 1 32 34
M  V30 34 1 34 35
M  V30 35 1 35 36
M  V30 36 1 36 37
M  V30 37 1 36 38
M  V30 38 1 37 39
M  V30 39 1 38 40
M  V30 40 1 39 41
M  V30 41 1 41 42
M  V30 42 2 12 15
M  V30 43 2 16 19
M  V30 44 1 3 43
M  V30 45 1 4 44
M  V30 46 1 6 45
M  V30 47 1 6 46
M  V30 48 1 8 47
M  V30 49 1 9 48
M  V30 50 1 9 49
M  V30 51 1 11 50
M  V30 52 1 12 51
M  V30 53 1 13 52
M  V30 54 1 13 53
M  V30 55 1 15 54
M  V30 56 1 16 55
M  V30 57 1 18 56
M  V30 58 1 19 57
M  V30 59 1 20 58
M  V30 60 1 20 59
M  V30 61 1 22 60
M  V30 62 1 24 61
M  V30 63 1 25 62
M  V30 64 1 25 63
M  V30 65 1 26 64
M  V30 66 1 26 65
M  V30 67 1 27 66
M  V30 68 1 27 67
M  V30 69 1 28 68
M  V30 70 1 28 69
M  V30 71 1 29 70
M  V30 72 1 29 71
M  V30 73 1 29 72
M  V30 74 1 30 73
M  V30 75 1 30 74
M  V30 76 1 31 75
M  V30 77 1 31 76
M  V30 78 1 32 77
M  V30 79 1 32 78
M  V30 80 1 33 79
M  V30 81 1 33 80
M  V30 82 1 33 81
M  V30 83 1 35 82
M  V30 84 1 35 83
M  V30 85 1 36 84
M  V30 86 1 37 85
M  V30 87 1 37 86
M  V30 88 1 38 87
M  V30 89 1 38 88
M  V30 90 1 39 89
M  V30 91 1 39 90
M  V30 92 1 40 91
M  V30 93 1 40 92
M  V30 94 1 40 93
M  V30 95 1 41 94
M  V30 96 1 41 95
M  V30 97 1 42 96
M  V30 98 1 42 97
M  V30 99 1 42 98
M  V30 END BOND
M  V30 BEGIN COLLECTION
M  V30 MDLV30/STEABS ATOMS=(2 22 36)
M  V30 END COLLECTION
M  V30 END CTAB
M  END
>  <Structure No>
1466

>  <LogS>
-8.06807152

>  <MMFF94 Energy>
-82.069

$$$$
Compound 1467
Actelion Java MolfileCreator 2.0

  0  0  0  0  0  0              0 V3000
M  V30 BEGIN CTAB
M  V30 COUNTS 117 120 0 0 0
M  V30 BEGIN ATOM
M  V30 1 O 5.3552 1.1171 -0.4786 0
M  V30 2 C 5.7285 0.1279 0.2105 0
M  V30 3 O 4.8081 -0.5673 1.0036 0
M  V30 4 C 7.1738 -0.2723 0.2413 0
M  V30 5 C 3.4128 -0.2717 0.9765 0
M  V30 6 C 7.8627 -0.0361 -1.1089 0
M  V30 7 C 2.6461 -1.0659 2.0618 0
M  V30 8 C 9.3074 -0.4664 -1.066 0
M  V30 9 C 1.1059 -0.8493 1.9249 0 CFG=1
M  V30 10 C 3.1069 -0.594 3.4575 0
M  V30 11 C 2.9609 -2.5725 1.9247 0
M  V30 12 C 10.2544 0.3351 -0.4193 0
M  V30 13 C 9.7027 -1.6723 -1.6454 0
M  V30 14 O 0.7609 0.5314 2.0718 0
M  V30 15 O 0.6194 -1.4363 0.722 0
M  V30 16 C 11.6198 -0.0327 -0.3513 0
M  V30 17 C 11.0442 -2.0691 -1.6205 0
M  V30 18 C 0.3804 1.1263 0.8451 0
M  V30 19 C -0.7383 -1.0889 0.5578 0
M  V30 20 C 12.0083 -1.2495 -0.985 0
M  V30 21 C 12.655 0.8622 0.3866 0
M  V30 22 C 11.4353 -3.3615 -2.2874 0
M  V30 23 C -0.8502 0.4175 0.2255 0
M  V30 24 O 13.351 -1.6353 -0.9784 0
M  V30 25 C 13.359 0.0584 1.5055 0
M  V30 26 C 13.7012 1.3931 -0.6184 0
M  V30 27 C 12.0154 2.1021 1.0677 0
M  V30 28 C -0.8468 0.6464 -1.3076 0
M  V30 29 C -2.1656 1.0075 0.7857 0
M  V30 30 O -2.15 0.5505 -1.8513 0
M  V30 31 O -2.6066 2.0544 -0.051 0
M  V30 32 C -3.0506 1.5096 -1.2895 0 CFG=1
M  V30 33 C -3.3749 2.6459 -2.3107 0
M  V30 34 C -4.3829 3.6583 -1.7023 0
M  V30 35 C -2.096 3.4174 -2.7024 0
M  V30 36 C -3.9846 2.0322 -3.5911 0
M  V30 37 O -5.6607 3.064 -1.4739 0
M  V30 38 C -6.1341 2.656 -0.2235 0
M  V30 39 O -5.4362 2.8182 0.8154 0
M  V30 40 C -7.5274 2.1073 -0.1325 0
M  V30 41 C -7.6806 1.0766 0.9921 0
M  V30 42 C -9.0713 0.4929 0.9795 0
M  V30 43 C -9.3269 -0.7075 0.3056 0
M  V30 44 C -10.1221 1.1921 1.5693 0
M  V30 45 C -10.6285 -1.2704 0.2428 0
M  V30 46 C -11.4272 0.7039 1.4959 0
M  V30 47 C -11.6975 -0.5067 0.8239 0
M  V30 48 C -10.8498 -2.6481 -0.4506 0
M  V30 49 C -12.5496 1.4957 2.1138 0
M  V30 50 O -13.0419 -0.8898 0.7605 0
M  V30 51 C -11.6902 -3.5993 0.4557 0
M  V30 52 C -11.5431 -2.4274 -1.8138 0
M  V30 53 C -9.5176 -3.3928 -0.7536 0
M  V30 54 H 7.242 -1.3518 0.5063 0
M  V30 55 H 7.6815 0.3168 1.0358 0
M  V30 56 H 3.0156 -0.5194 -0.0316 0
M  V30 57 H 3.2793 0.8185 1.153 0
M  V30 58 H 7.8195 1.0434 -1.3697 0
M  V30 59 H 7.317 -0.59 -1.9022 0
M  V30 60 H 0.6302 -1.39 2.7767 0
M  V30 61 H 2.9149 0.4914 3.5965 0
M  V30 62 H 4.1954 -0.7704 3.5973 0
M  V30 63 H 2.5672 -1.147 4.2562 0
M  V30 64 H 2.3647 -3.1631 2.652 0
M  V30 65 H 2.7262 -2.9317 0.8994 0
M  V30 66 H 4.035 -2.7771 2.1171 0
M  V30 67 H 9.8931 1.2511 0.0224 0
M  V30 68 H 8.9617 -2.2955 -2.1314 0
M  V30 69 H 1.2349 1.1136 0.1371 0
M  V30 70 H 0.1591 2.2012 1.0215 0
M  V30 71 H -1.1685 -1.7039 -0.2595 0
M  V30 72 H -1.3212 -1.3557 1.4716 0
M  V30 73 H 10.5564 -3.8843 -2.7208 0
M  V30 74 H 12.1526 -3.1611 -3.1081 0
M  V30 75 H 11.8993 -4.0417 -1.5393 0
M  V30 76 H 13.6984 -2.4806 -1.411 0
M  V30 77 H 12.6066 -0.4236 2.1671 0
M  V30 78 H 14.0318 -0.7255 1.1076 0
M  V30 79 H 13.9942 0.7245 2.131 0
M  V30 80 H 13.1965 1.9527 -1.4373 0
M  V30 81 H 14.4143 2.0799 -0.1152 0
M  V30 82 H 14.3005 0.5788 -1.0707 0
M  V30 83 H 12.7842 2.7026 1.6034 0
M  V30 84 H 11.2553 1.7969 1.8193 0
M  V30 85 H 11.5473 2.7753 0.3169 0
M  V30 86 H -0.41 1.6367 -1.5513 0
M  V30 87 H -0.1931 -0.0993 -1.8106 0
M  V30 88 H -2.9588 0.2297 0.8846 0
M  V30 89 H -2.017 1.4068 1.8116 0
M  V30 90 H -4.0064 0.9717 -1.1002 0
M  V30 91 H -4.5332 4.4977 -2.4153 0
M  V30 92 H -3.9835 4.113 -0.7708 0
M  V30 93 H -1.5799 3.8107 -1.8021 0
M  V30 94 H -2.3427 4.2786 -3.36 0
M  V30 95 H -1.3987 2.7681 -3.2721 0
M  V30 96 H -4.2675 2.8279 -4.3135 0
M  V30 97 H -3.2632 1.3528 -4.0917 0
M  V30 98 H -4.8938 1.4415 -3.3559 0
M  V30 99 H -7.7838 1.6265 -1.103 0
M  V30 100 H -8.2288 2.9534 0.0331 0
M  V30 101 H -7.494 1.562 1.9744 0
M  V30 102 H -6.9229 0.2708 0.8702 0
M  V30 103 H -8.4782 -1.1844 -0.1597 0
M  V30 104 H -9.9209 2.1315 2.0716 0
M  V30 105 H -12.1805 2.4191 2.609 0
M  V30 106 H -13.0699 0.8746 2.8733 0
M  V30 107 H -13.2746 1.7943 1.3264 0
M  V30 108 H -13.4183 -1.6319 0.1964 0
M  V30 109 H -11.6269 -3.295 1.5231 0
M  V30 110 H -11.3387 -4.653 0.4058 0
M  V30 111 H -12.7559 -3.6481 0.1516 0
M  V30 112 H -11.7687 -3.4017 -2.2972 0
M  V30 113 H -10.8819 -1.8471 -2.4936 0
M  V30 114 H -12.4892 -1.8636 -1.7291 0
M  V30 115 H -8.9234 -3.5321 0.1758 0
M  V30 116 H -8.9077 -2.8527 -1.5119 0
M  V30 117 H -9.7186 -4.3989 -1.1847 0
M  V30 END ATOM
M  V30 BEGIN BOND
M  V30 1 2 1 2
M  V30 2 1 2 3
M  V30 3 1 2 4
M  V30 4 1 3 5
M  V30 5 1 4 6
M  V30 6 1 5 7
M  V30 7 1 6 8
M  V30 8 1 7 9
M  V30 9 1 7 10
M  V30 10 1 7 11
M  V30 11 2 8 12
M  V30 12 1 8 13
M  V30 13 1 9 14
M  V30 14 1 9 15
M  V30 15 1 12 16
M  V30 16 2 13 17
M  V30 17 1 14 18
M  V30 18 1 15 19
M  V30 19 2 16 20
M  V30 20 1 16 21
M  V30 21 1 17 22
M  V30 22 1 18 23
M  V30 23 1 20 24
M  V30 24 1 21 25
M  V30 25 1 21 26
M  V30 26 1 21 27
M  V30 27 1 23 28
M  V30 28 1 23 29
M  V30 29 1 28 30
M  V30 30 1 29 31
M  V30 31 1 30 32
M  V30 32 1 32 33
M  V30 33 1 33 34
M  V30 34 1 33 35
M  V30 35 1 33 36
M  V30 36 1 34 37
M  V30 37 1 37 38
M  V30 38 2 38 39
M  V30 39 1 38 40
M  V30 40 1 40 41
M  V30 41 1 41 42
M  V30 42 2 42 43
M  V30 43 1 42 44
M  V30 44 1 43 45
M  V30 45 2 44 46
M  V30 46 2 45 47
M  V30 47 1 45 48
M  V30 48 1 46 49
M  V30 49 1 47 50
M  V30 50 1 48 51
M  V30 51 1 48 52
M  V30 52 1 48 53
M  V30 53 1 17 20
M  V30 54 1 19 23
M  V30 55 1 31 32
M  V30 56 1 46 47
M  V30 57 1 4 54
M  V30 58 1 4 55
M  V30 59 1 5 56
M  V30 60 1 5 57
M  V30 61 1 6 58
M  V30 62 1 6 59
M  V30 63 1 9 60
M  V30 64 1 10 61
M  V30 65 1 10 62
M  V30 66 1 10 63
M  V30 67 1 11 64
M  V30 68 1 11 65
M  V30 69 1 11 66
M  V30 70 1 12 67
M  V30 71 1 13 68
M  V30 72 1 18 69
M  V30 73 1 18 70
M  V30 74 1 19 71
M  V30 75 1 19 72
M  V30 76 1 22 73
M  V30 77 1 22 74
M  V30 78 1 22 75
M  V30 79 1 24 76
M  V30 80 1 25 77
M  V30 81 1 25 78
M  V30 82 1 25 79
M  V30 83 1 26 80
M  V30 84 1 26 81
M  V30 85 1 26 82
M  V30 86 1 27 83
M  V30 87 1 27 84
M  V30 88 1 27 85
M  V30 89 1 28 86
M  V30 90 1 28 87
M  V30 91 1 29 88
M  V30 92 1 29 89
M  V30 93 1 32 90
M  V30 94 1 34 91
M  V30 95 1 34 92
M  V30 96 1 35 93
M  V30 97 1 35 94
M  V30 98 1 35 95
M  V30 99 1 36 96
M  V30 100 1 36 97
M  V30 101 1 36 98
M  V30 102 1 40 99
M  V30 103 1 40 100
M  V30 104 1 41 101
M  V30 105 1 41 102
M  V30 106 1 43 103
M  V30 107 1 44 104
M  V30 108 1 49 105
M  V30 109 1 49 106
M  V30 110 1 49 107
M  V30 111 1 50 108
M  V30 112 1 51 109
M  V30 113 1 51 110
M  V30 114 1 51 111
M  V30 115 1 52 112
M  V30 116 1 52 113
M  V30 117 1 52 114
M  V30 118 1 53 115
M  V30 119 1 53 116
M  V30 120 1 53 117
M  V30 END BOND
M  V30 BEGIN COLLECTION
M  V30 MDLV30/STEABS ATOMS=(2 9 32)
M  V30 END COLLECTION
M  V30 END CTAB
M  END
>  <Structure No>
1467

>  <LogS>
-8.267743564

>  <MMFF94 Energy>
36.233

$$$$
Compound 1468
Actelion Java MolfileCreator 2.0

  0  0  0  0  0  0              0 V3000
M  V30 BEGIN CTAB
M  V30 COUNTS 44 47 0 0 0
M  V30 BEGIN ATOM
M  V30 1 S -4.0805 0.9781 -2.61 0
M  V30 2 C -3.2162 -0.0299 -1.5502 0
M  V30 3 C -5.4158 -0.0353 -2.6132 0
M  V30 4 N -3.9369 -1.1273 -1.2042 0
M  V30 5 C -1.837 0.2294 -1.0589 0
M  V30 6 C -5.1578 -1.1245 -1.7973 0
M  V30 7 C -6.6224 0.1119 -3.2926 0
M  V30 8 C -1.441 1.5346 -0.698 0
M  V30 9 C -0.89 -0.8139 -0.9291 0
M  V30 10 C -6.118 -2.1239 -1.6308 0
M  V30 11 C -7.5963 -0.8866 -3.1325 0
M  V30 12 O -2.2516 2.4963 -0.77 0
M  V30 13 O -0.2127 1.7717 -0.2557 0
M  V30 14 C -1.2277 -2.1659 -1.3287 0
M  V30 15 C 0.4044 -0.5149 -0.4497 0
M  V30 16 C -7.3453 -1.9999 -2.3053 0
M  V30 17 C 0.7047 0.8236 -0.1203 0
M  V30 18 N -1.4965 -3.2454 -1.6483 0
M  V30 19 C 1.4051 -1.4944 -0.2932 0
M  V30 20 C 1.975 1.1656 0.3547 0
M  V30 21 C 2.6711 -1.1448 0.1831 0
M  V30 22 C 2.9708 0.1874 0.5148 0
M  V30 23 N 4.2789 0.5477 1.0176 0
M  V30 24 C 4.9533 -0.2866 2.0262 0
M  V30 25 C 4.9556 1.7558 0.5219 0
M  V30 26 C 4.1514 -0.3233 3.3242 0
M  V30 27 C 4.9726 2.8509 1.5863 0
M  V30 28 H -6.8051 0.9704 -3.9258 0
M  V30 29 H -5.9235 -2.9785 -0.9955 0
M  V30 30 H -8.5445 -0.801 -3.6473 0
M  V30 31 H -8.1023 -2.7646 -2.1885 0
M  V30 32 H 1.2197 -2.5322 -0.5383 0
M  V30 33 H 2.176 2.1971 0.6105 0
M  V30 34 H 3.4194 -1.9193 0.2726 0
M  V30 35 H 5.9656 0.1142 2.2515 0
M  V30 36 H 5.1001 -1.317 1.6436 0
M  V30 37 H 4.4531 2.1408 -0.392 0
M  V30 38 H 5.9997 1.5062 0.2343 0
M  V30 39 H 3.9931 0.708 3.7042 0
M  V30 40 H 3.1658 -0.8066 3.1577 0
M  V30 41 H 4.7066 -0.906 4.0891 0
M  V30 42 H 5.5799 2.5338 2.4596 0
M  V30 43 H 5.4213 3.7736 1.1623 0
M  V30 44 H 3.9423 3.0796 1.9282 0
M  V30 END ATOM
M  V30 BEGIN BOND
M  V30 1 1 1 2
M  V30 2 1 1 3
M  V30 3 2 2 4
M  V30 4 1 2 5
M  V30 5 2 3 6
M  V30 6 1 3 7
M  V30 7 1 5 8
M  V30 8 2 5 9
M  V30 9 1 6 10
M  V30 10 2 7 11
M  V30 11 2 8 12
M  V30 12 1 8 13
M  V30 13 1 9 14
M  V30 14 1 9 15
M  V30 15 2 10 16
M  V30 16 1 13 17
M  V30 17 3 14 18
M  V30 18 1 15 19
M  V30 19 1 17 20
M  V30 20 2 19 21
M  V30 21 2 20 22
M  V30 22 1 22 23
M  V30 23 1 23 24
M  V30 24 1 23 25
M  V30 25 1 24 26
M  V30 26 1 25 27
M  V30 27 1 4 6
M  V30 28 1 11 16
M  V30 29 2 15 17
M  V30 30 1 21 22
M  V30 31 1 7 28
M  V30 32 1 10 29
M  V30 33 1 11 30
M  V30 34 1 16 31
M  V30 35 1 19 32
M  V30 36 1 20 33
M  V30 37 1 21 34
M  V30 38 1 24 35
M  V30 39 1 24 36
M  V30 40 1 25 37
M  V30 41 1 25 38
M  V30 42 1 26 39
M  V30 43 1 26 40
M  V30 44 1 26 41
M  V30 45 1 27 42
M  V30 46 1 27 43
M  V30 47 1 27 44
M  V30 END BOND
M  V30 END CTAB
M  END
>  <Structure No>
1468

>  <LogS>
-8.097434324

>  <MMFF94 Energy>
40.841

$$$$
Compound 1469
Actelion Java MolfileCreator 2.0

  0  0  0  0  0  0              0 V3000
M  V30 BEGIN CTAB
M  V30 COUNTS 42 44 0 0 0
M  V30 BEGIN ATOM
M  V30 1 N -7.4678 -5.2149 0.6407 0
M  V30 2 C -7.1778 -4.0997 0.5339 0
M  V30 3 C -6.8168 -2.7122 0.4012 0
M  V30 4 C -5.4663 -2.3391 0.3564 0
M  V30 5 C -7.8152 -1.7347 0.3264 0
M  V30 6 C -5.1056 -0.9816 0.2259 0
M  V30 7 C -7.4664 -0.3876 0.2151 0
M  V30 8 C -6.1212 -0.0119 0.1707 0
M  V30 9 C -3.6924 -0.5306 0.1853 0
M  V30 10 C -2.6724 -1.3146 -0.1983 0
M  V30 11 C -1.259 -0.8637 -0.239 0
M  V30 12 C -0.898 0.4921 -0.3579 0
M  V30 13 C -0.2442 -1.832 -0.2019 0
M  V30 14 C 0.4481 0.8672 -0.4028 0
M  V30 15 C 1.101 -1.457 -0.2468 0
M  V30 16 C 1.464 -0.1043 -0.3295 0
M  V30 17 C 2.9043 0.2457 -0.3865 0
M  V30 18 C 3.3873 1.4469 -0.0332 0
M  V30 19 C 4.8296 1.7917 -0.0716 0
M  V30 20 C 5.2941 2.843 0.7367 0
M  V30 21 C 5.7421 1.1301 -0.9184 0
M  V30 22 C 6.6434 3.2088 0.7231 0
M  V30 23 C 7.0911 1.4986 -0.9306 0
M  V30 24 C 7.5451 2.5353 -0.1078 0
M  V30 25 C 8.9339 2.9136 -0.1228 0
M  V30 26 N 10.0504 3.2177 -0.1348 0
M  V30 27 H -4.7112 -3.1082 0.4506 0
M  V30 28 H -8.8617 -2.0133 0.3612 0
M  V30 29 H -8.2399 0.3677 0.1638 0
M  V30 30 H -5.8725 1.039 0.0833 0
M  V30 31 H -3.5019 0.4956 0.468 0
M  V30 32 H -2.8635 -2.3404 -0.4825 0
M  V30 33 H -1.6459 1.2672 -0.4503 0
M  V30 34 H -0.493 -2.884 -0.129 0
M  V30 35 H 0.6835 1.9154 -0.5268 0
M  V30 36 H 1.8617 -2.2272 -0.2081 0
M  V30 37 H 3.5906 -0.5432 -0.6648 0
M  V30 38 H 2.7148 2.1941 0.3675 0
M  V30 39 H 4.612 3.3771 1.3874 0
M  V30 40 H 5.4189 0.3466 -1.5897 0
M  V30 41 H 6.9824 4.0172 1.3599 0
M  V30 42 H 7.7786 0.9794 -1.5877 0
M  V30 END ATOM
M  V30 BEGIN BOND
M  V30 1 3 1 2
M  V30 2 1 2 3
M  V30 3 2 3 4
M  V30 4 1 3 5
M  V30 5 1 4 6
M  V30 6 2 5 7
M  V30 7 2 6 8
M  V30 8 1 6 9
M  V30 9 2 9 10
M  V30 10 1 10 11
M  V30 11 2 11 12
M  V30 12 1 11 13
M  V30 13 1 12 14
M  V30 14 2 13 15
M  V30 15 2 14 16
M  V30 16 1 16 17
M  V30 17 2 17 18
M  V30 18 1 18 19
M  V30 19 2 19 20
M  V30 20 1 19 21
M  V30 21 1 20 22
M  V30 22 2 21 23
M  V30 23 2 22 24
M  V30 24 1 24 25
M  V30 25 3 25 26
M  V30 26 1 7 8
M  V30 27 1 15 16
M  V30 28 1 23 24
M  V30 29 1 4 27
M  V30 30 1 5 28
M  V30 31 1 7 29
M  V30 32 1 8 30
M  V30 33 1 9 31
M  V30 34 1 10 32
M  V30 35 1 12 33
M  V30 36 1 13 34
M  V30 37 1 14 35
M  V30 38 1 15 36
M  V30 39 1 17 37
M  V30 40 1 18 38
M  V30 41 1 20 39
M  V30 42 1 21 40
M  V30 43 1 22 41
M  V30 44 1 23 42
M  V30 END BOND
M  V30 END CTAB
M  END
>  <Structure No>
1469

>  <LogS>
-8.123728846

>  <MMFF94 Energy>
82.862

$$$$
Compound 1470
Actelion Java MolfileCreator 2.0

  0  0  0  0  0  0              0 V3000
M  V30 BEGIN CTAB
M  V30 COUNTS 76 79 0 0 0
M  V30 BEGIN ATOM
M  V30 1 O 8.2992 -2.4118 0.8034 0
M  V30 2 C 7.3622 -2.0474 0.0416 0
M  V30 3 N 7.2659 -0.6781 -0.39 0
M  V30 4 C 6.3687 -3.0472 -0.4111 0
M  V30 5 C 8.3192 0.2889 -0.2324 0
M  V30 6 N 5.0931 -2.8473 -0.2547 0
M  V30 7 C 6.8131 -4.2967 -1.0641 0
M  V30 8 C 9.6722 -0.0753 -0.3671 0
M  V30 9 C 7.9906 1.6366 -0.0188 0
M  V30 10 N 4.5778 -1.7246 0.4087 0 CHG=-1
M  V30 11 O 5.9705 -5.2033 -1.309 0
M  V30 12 C 8.2468 -4.5255 -1.431 0
M  V30 13 C 10.6782 0.891 -0.2591 0
M  V30 14 C 8.9965 2.6002 0.0896 0
M  V30 15 C 3.1788 -1.4269 0.4261 0
M  V30 16 C 10.3393 2.2281 -0.0251 0
M  V30 17 C 2.7243 -0.3328 1.1759 0
M  V30 18 C 2.2691 -2.1858 -0.3241 0
M  V30 19 O 3.6591 0.401 1.9255 0
M  V30 20 C 1.3572 0.0046 1.1528 0
M  V30 21 C 0.917 -1.8382 -0.3539 0
M  V30 22 C 3.3351 1.5199 2.7475 0
M  V30 23 C 0.4475 -0.7296 0.3688 0
M  V30 24 C -0.9829 -0.3305 0.3016 0
M  V30 25 C -1.3369 1.0276 0.2413 0
M  V30 26 C -1.9999 -1.2992 0.2785 0
M  V30 27 C -2.6878 1.4235 0.1676 0
M  V30 28 C -3.3417 -0.919 0.2004 0
M  V30 29 O -3.0486 2.7783 0.126 0
M  V30 30 C -3.6974 0.433 0.1373 0
M  V30 31 C -2.1387 3.8672 0.2424 0
M  V30 32 N -5.0935 0.7575 0.0714 0 CHG=-1
M  V30 33 N -5.5763 2.0687 -0.062 0
M  V30 34 C -6.8432 2.3631 -0.0681 0
M  V30 35 C -7.8774 1.3106 0.0539 0
M  V30 36 C -7.2436 3.7849 -0.1408 0
M  V30 37 O -8.7968 1.4564 0.9032 0
M  V30 38 N -7.8182 0.1308 -0.769 0
M  V30 39 O -8.4618 4.0917 -0.2435 0
M  V30 40 C -6.216 4.8766 -0.1161 0
M  V30 41 C -8.6466 -1.028 -0.5817 0
M  V30 42 C -10.0154 -0.9219 -0.265 0
M  V30 43 C -8.0876 -2.3013 -0.7715 0
M  V30 44 C -10.7931 -2.0742 -0.1021 0
M  V30 45 C -8.8665 -3.4501 -0.6039 0
M  V30 46 C -10.2208 -3.3347 -0.2697 0
M  V30 47 H 6.377 -0.3539 -0.8264 0
M  V30 48 H 9.9537 -1.0988 -0.5827 0
M  V30 49 H 6.9536 1.9387 0.071 0
M  V30 50 H 8.8419 -4.7137 -0.5136 0
M  V30 51 H 8.646 -3.6419 -1.9685 0
M  V30 52 H 8.3371 -5.4119 -2.0958 0
M  V30 53 H 11.7189 0.6044 -0.3657 0
M  V30 54 H 8.7302 3.6344 0.2642 0
M  V30 55 H 11.1137 2.9784 0.0613 0
M  V30 56 H 2.6059 -3.0281 -0.9156 0
M  V30 57 H 0.9962 0.8406 1.7399 0
M  V30 58 H 0.2476 -2.4197 -0.9744 0
M  V30 59 H 2.6231 1.2115 3.5413 0
M  V30 60 H 2.8838 2.3285 2.137 0
M  V30 61 H 4.263 1.9066 3.22 0
M  V30 62 H -0.5572 1.7777 0.2363 0
M  V30 63 H -1.7627 -2.3527 0.3395 0
M  V30 64 H -4.1085 -1.684 0.1796 0
M  V30 65 H -2.713 4.8167 0.2407 0
M  V30 66 H -1.4377 3.8714 -0.6189 0
M  V30 67 H -1.5756 3.7888 1.1987 0
M  V30 68 H -7.0566 0.0682 -1.4791 0
M  V30 69 H -5.5633 4.8043 -1.0141 0
M  V30 70 H -6.7009 5.8747 -0.1035 0
M  V30 71 H -5.5895 4.7769 0.7964 0
M  V30 72 H -10.4927 0.043 -0.1728 0
M  V30 73 H -7.0386 -2.4075 -1.0243 0
M  V30 74 H -11.8473 -1.9925 0.1438 0
M  V30 75 H -8.4244 -4.4294 -0.7332 0
M  V30 76 H -10.8257 -4.2244 -0.1458 0
M  V30 END ATOM
M  V30 BEGIN BOND
M  V30 1 2 1 2
M  V30 2 1 2 3
M  V30 3 1 2 4
M  V30 4 1 3 5
M  V30 5 2 4 6
M  V30 6 1 4 7
M  V30 7 2 5 8
M  V30 8 1 5 9
M  V30 9 1 6 10
M  V30 10 2 7 11
M  V30 11 1 7 12
M  V30 12 1 8 13
M  V30 13 2 9 14
M  V30 14 1 10 15
M  V30 15 2 13 16
M  V30 16 2 15 17
M  V30 17 1 15 18
M  V30 18 1 17 19
M  V30 19 1 17 20
M  V30 20 2 18 21
M  V30 21 1 19 22
M  V30 22 2 20 23
M  V30 23 1 23 24
M  V30 24 2 24 25
M  V30 25 1 24 26
M  V30 26 1 25 27
M  V30 27 2 26 28
M  V30 28 1 27 29
M  V30 29 2 27 30
M  V30 30 1 29 31
M  V30 31 1 30 32
M  V30 32 1 32 33
M  V30 33 2 33 34
M  V30 34 1 34 35
M  V30 35 1 34 36
M  V30 36 2 35 37
M  V30 37 1 35 38
M  V30 38 2 36 39
M  V30 39 1 36 40
M  V30 40 1 38 41
M  V30 41 2 41 42
M  V30 42 1 41 43
M  V30 43 1 42 44
M  V30 44 2 43 45
M  V30 45 2 44 46
M  V30 46 1 14 16
M  V30 47 1 21 23
M  V30 48 1 28 30
M  V30 49 1 45 46
M  V30 50 1 3 47
M  V30 51 1 8 48
M  V30 52 1 9 49
M  V30 53 1 12 50
M  V30 54 1 12 51
M  V30 55 1 12 52
M  V30 56 1 13 53
M  V30 57 1 14 54
M  V30 58 1 16 55
M  V30 59 1 18 56
M  V30 60 1 20 57
M  V30 61 1 21 58
M  V30 62 1 22 59
M  V30 63 1 22 60
M  V30 64 1 22 61
M  V30 65 1 25 62
M  V30 66 1 26 63
M  V30 67 1 28 64
M  V30 68 1 31 65
M  V30 69 1 31 66
M  V30 70 1 31 67
M  V30 71 1 38 68
M  V30 72 1 40 69
M  V30 73 1 40 70
M  V30 74 1 40 71
M  V30 75 1 42 72
M  V30 76 1 43 73
M  V30 77 1 44 74
M  V30 78 1 45 75
M  V30 79 1 46 76
M  V30 END BOND
M  V30 END CTAB
M  END
>  <Structure No>
1470

>  <LogS>
-8.616766696

>  <MMFF94 Energy>
190.11

$$$$
Compound 1471
Actelion Java MolfileCreator 2.0

  0  0  0  0  0  0              0 V3000
M  V30 BEGIN CTAB
M  V30 COUNTS 58 61 0 0 0
M  V30 BEGIN ATOM
M  V30 1 O 3.694 -1.3639 -1.2034 0
M  V30 2 C 2.3418 -1.0393 -1.0061 0
M  V30 3 C 4.7281 -0.4433 -1.5557 0
M  V30 4 C 1.4946 -2.0287 -0.5011 0
M  V30 5 C 1.8108 0.2274 -1.3016 0
M  V30 6 C 5.1085 0.4582 -0.3712 0
M  V30 7 C 0.1375 -1.7709 -0.2783 0
M  V30 8 C 0.4572 0.4943 -1.0831 0
M  V30 9 C 5.4427 -0.3178 0.9169 0
M  V30 10 O -0.6533 -2.7945 0.2323 0 CHG=-1
M  V30 11 C -0.4029 -0.4956 -0.5681 0
M  V30 12 C 6.6094 -1.3178 0.7915 0
M  V30 13 C -1.8417 -0.1749 -0.3473 0
M  V30 14 C 7.9435 -0.7026 0.3337 0
M  V30 15 N -2.3094 1.0749 -0.6071 0
M  V30 16 N -2.7056 -1.1177 0.1123 0
M  V30 17 C 8.4799 0.3475 1.3058 0
M  V30 18 C -3.6177 1.3863 -0.413 0
M  V30 19 C -4.0176 -0.8254 0.3127 0
M  V30 20 N -4.4652 0.4296 0.0474 0
M  V30 21 C -4.1145 2.7543 -0.7005 0
M  V30 22 C -4.9507 -1.8638 0.8153 0
M  V30 23 C -5.4701 3.0821 -0.5008 0
M  V30 24 C -3.2393 3.7497 -1.1782 0
M  V30 25 C -6.3116 -1.5645 1.0243 0
M  V30 26 C -4.4927 -3.167 1.0924 0
M  V30 27 C -5.9352 4.3726 -0.7727 0
M  V30 28 C -3.7106 5.0383 -1.4482 0
M  V30 29 C -7.1888 -2.5452 1.498 0
M  V30 30 C -5.375 -4.143 1.5659 0
M  V30 31 C -5.0568 5.3494 -1.2458 0
M  V30 32 C -6.7213 -3.8327 1.7685 0
M  V30 33 H 5.619 -1.0207 -1.8779 0
M  V30 34 H 4.4227 0.1709 -2.4288 0
M  V30 35 H 1.896 -3.0087 -0.2737 0
M  V30 36 H 2.4293 1.0153 -1.7067 0
M  V30 37 H 4.2627 1.1422 -0.1495 0
M  V30 38 H 5.9639 1.1037 -0.6611 0
M  V30 39 H 0.086 1.4826 -1.3233 0
M  V30 40 H 5.6674 0.4109 1.7243 0
M  V30 41 H 4.5387 -0.8746 1.2467 0
M  V30 42 H 6.7611 -1.8032 1.7803 0
M  V30 43 H 6.3269 -2.1282 0.0863 0
M  V30 44 H 7.8444 -0.2608 -0.6798 0
M  V30 45 H 8.6925 -1.5204 0.2584 0
M  V30 46 H 9.5033 0.6477 0.9968 0
M  V30 47 H 8.5277 -0.0646 2.3361 0
M  V30 48 H 7.8381 1.253 1.2973 0
M  V30 49 H -6.1727 2.3438 -0.1347 0
M  V30 50 H -2.191 3.5354 -1.344 0
M  V30 51 H -6.7007 -0.5744 0.8228 0
M  V30 52 H -3.4543 -3.4346 0.9443 0
M  V30 53 H -6.9785 4.6151 -0.6162 0
M  V30 54 H -3.0308 5.7965 -1.8149 0
M  V30 55 H -8.2326 -2.306 1.6555 0
M  V30 56 H -5.0138 -5.1415 1.7761 0
M  V30 57 H -5.4193 6.3476 -1.4555 0
M  V30 58 H -7.4022 -4.59 2.1352 0
M  V30 END ATOM
M  V30 BEGIN BOND
M  V30 1 1 1 2
M  V30 2 1 1 3
M  V30 3 2 2 4
M  V30 4 1 2 5
M  V30 5 1 3 6
M  V30 6 1 4 7
M  V30 7 2 5 8
M  V30 8 1 6 9
M  V30 9 1 7 10
M  V30 10 2 7 11
M  V30 11 1 9 12
M  V30 12 1 11 13
M  V30 13 1 12 14
M  V30 14 2 13 15
M  V30 15 1 13 16
M  V30 16 1 14 17
M  V30 17 1 15 18
M  V30 18 2 16 19
M  V30 19 2 18 20
M  V30 20 1 18 21
M  V30 21 1 19 22
M  V30 22 2 21 23
M  V30 23 1 21 24
M  V30 24 2 22 25
M  V30 25 1 22 26
M  V30 26 1 23 27
M  V30 27 2 24 28
M  V30 28 1 25 29
M  V30 29 2 26 30
M  V30 30 2 27 31
M  V30 31 2 29 32
M  V30 32 1 8 11
M  V30 33 1 19 20
M  V30 34 1 28 31
M  V30 35 1 30 32
M  V30 36 1 3 33
M  V30 37 1 3 34
M  V30 38 1 4 35
M  V30 39 1 5 36
M  V30 40 1 6 37
M  V30 41 1 6 38
M  V30 42 1 8 39
M  V30 43 1 9 40
M  V30 44 1 9 41
M  V30 45 1 12 42
M  V30 46 1 12 43
M  V30 47 1 14 44
M  V30 48 1 14 45
M  V30 49 1 17 46
M  V30 50 1 17 47
M  V30 51 1 17 48
M  V30 52 1 23 49
M  V30 53 1 24 50
M  V30 54 1 25 51
M  V30 55 1 26 52
M  V30 56 1 27 53
M  V30 57 1 28 54
M  V30 58 1 29 55
M  V30 59 1 30 56
M  V30 60 1 31 57
M  V30 61 1 32 58
M  V30 END BOND
M  V30 END CTAB
M  END
>  <Structure No>
1471

>  <LogS>
-9.15181097

>  <MMFF94 Energy>
23.857

$$$$
Compound 1472
Actelion Java MolfileCreator 2.0

  0  0  0  0  0  0              0 V3000
M  V30 BEGIN CTAB
M  V30 COUNTS 73 72 0 0 0
M  V30 BEGIN ATOM
M  V30 1 N 0 0 0 0 CHG=1
M  V30 2 C 0 0 0 0
M  V30 3 C 0 0 0 0
M  V30 4 C 0 0 0 0
M  V30 5 C 0 0 0 0
M  V30 6 C 0 0 0 0
M  V30 7 C 0 0 0 0
M  V30 8 C 0 0 0 0
M  V30 9 C 0 0 0 0
M  V30 10 C 0 0 0 0
M  V30 11 C 0 0 0 0
M  V30 12 C 0 0 0 0
M  V30 13 C 0 0 0 0
M  V30 14 C 0 0 0 0
M  V30 15 C 0 0 0 0
M  V30 16 C 0 0 0 0
M  V30 17 C 0 0 0 0
M  V30 18 C 0 0 0 0
M  V30 19 C 0 0 0 0
M  V30 20 C 0 0 0 0
M  V30 21 C 0 0 0 0
M  V30 22 C 0 0 0 0
M  V30 23 C 0 0 0 0
M  V30 24 C 0 0 0 0
M  V30 25 C 0 0 0 0
M  V30 26 C 0 0 0 0
M  V30 27 C 0 0 0 0
M  V30 28 C 0 0 0 0
M  V30 29 C 0 0 0 0
M  V30 30 C 0 0 0 0
M  V30 31 C 0 0 0 0
M  V30 32 C 0 0 0 0
M  V30 33 C 0 0 0 0
M  V30 34 C 0 0 0 0
M  V30 35 C 0 0 0 0
M  V30 36 C 0 0 0 0
M  V30 37 C 0 0 0 0
M  V30 38 C 0 0 0 0
M  V30 39 C 0 0 0 0
M  V30 40 C 0 0 0 0
M  V30 41 C 0 0 0 0
M  V30 42 C 0 0 0 0
M  V30 43 C 0 0 0 0
M  V30 44 C 0 0 0 0
M  V30 45 C 0 0 0 0
M  V30 46 C 0 0 0 0
M  V30 47 C 0 0 0 0
M  V30 48 C 0 0 0 0
M  V30 49 C 0 0 0 0
M  V30 50 C 0 0 0 0
M  V30 51 C 0 0 0 0
M  V30 52 C 0 0 0 0
M  V30 53 C 0 0 0 0
M  V30 54 C 0 0 0 0
M  V30 55 C 0 0 0 0
M  V30 56 C 0 0 0 0
M  V30 57 C 0 0 0 0
M  V30 58 C 0 0 0 0
M  V30 59 C 0 0 0 0
M  V30 60 C 0 0 0 0
M  V30 61 C 0 0 0 0
M  V30 62 C 0 0 0 0
M  V30 63 C 0 0 0 0
M  V30 64 C 0 0 0 0
M  V30 65 C 0 0 0 0
M  V30 66 C 0 0 0 0
M  V30 67 C 0 0 0 0
M  V30 68 C 0 0 0 0
M  V30 69 C 0 0 0 0
M  V30 70 C 0 0 0 0
M  V30 71 C 0 0 0 0
M  V30 72 C 0 0 0 0
M  V30 73 C 0 0 0 0
M  V30 END ATOM
M  V30 BEGIN BOND
M  V30 1 1 1 2
M  V30 2 1 1 3
M  V30 3 1 2 4
M  V30 4 1 3 5
M  V30 5 1 4 6
M  V30 6 1 5 7
M  V30 7 1 6 8
M  V30 8 1 7 9
M  V30 9 1 8 10
M  V30 10 1 9 11
M  V30 11 1 10 12
M  V30 12 1 11 13
M  V30 13 1 12 14
M  V30 14 1 13 15
M  V30 15 1 14 16
M  V30 16 1 15 17
M  V30 17 1 16 18
M  V30 18 1 17 19
M  V30 19 1 18 20
M  V30 20 1 19 21
M  V30 21 1 20 22
M  V30 22 1 21 23
M  V30 23 1 22 24
M  V30 24 1 23 25
M  V30 25 2 24 26
M  V30 26 1 25 27
M  V30 27 1 26 28
M  V30 28 1 27 29
M  V30 29 1 28 30
M  V30 30 1 29 31
M  V30 31 2 30 32
M  V30 32 1 31 33
M  V30 33 1 32 34
M  V30 34 1 33 35
M  V30 35 1 34 36
M  V30 36 1 35 37
M  V30 37 1 36 38
M  V30 38 1 37 39
M  V30 39 1 38 40
M  V30 40 1 39 41
M  V30 41 1 40 42
M  V30 42 1 41 43
M  V30 43 1 42 44
M  V30 44 2 43 45
M  V30 45 1 44 46
M  V30 46 1 45 47
M  V30 47 1 46 48
M  V30 48 1 47 49
M  V30 49 1 48 50
M  V30 50 2 49 51
M  V30 51 1 50 52
M  V30 52 1 51 53
M  V30 53 1 52 54
M  V30 54 1 53 55
M  V30 55 1 54 56
M  V30 56 1 55 57
M  V30 57 1 56 58
M  V30 58 1 57 59
M  V30 59 1 58 60
M  V30 60 1 59 61
M  V30 61 1 60 62
M  V30 62 1 61 63
M  V30 63 1 62 64
M  V30 64 1 63 65
M  V30 65 1 64 66
M  V30 66 1 65 67
M  V30 67 1 66 68
M  V30 68 1 67 69
M  V30 69 1 68 70
M  V30 70 1 69 71
M  V30 71 1 70 72
M  V30 72 1 71 73
M  V30 END BOND
M  V30 END CTAB
M  END
>  <Structure No>
1472

>  <LogS>
-9.707106255

>  <MMFF94 Energy>
26.758

$$$$
Compound 1473
Actelion Java MolfileCreator 2.0

  0  0  0  0  0  0              0 V3000
M  V30 BEGIN CTAB
M  V30 COUNTS 78 78 0 0 0
M  V30 BEGIN ATOM
M  V30 1 O -0.3148 -1.0234 -0.3148 0
M  V30 2 C -0.7999 0.087 0.037 0
M  V30 3 O -2.1857 0.2398 0.1392 0
M  V30 4 C 0.0871 1.242 0.2977 0
M  V30 5 C -3.0628 -0.8788 0.1186 0
M  V30 6 C 1.4042 1.0786 0.8012 0
M  V30 7 C -0.3678 2.533 -0.0173 0
M  V30 8 C -4.5381 -0.425 0.194 0 CFG=2
M  V30 9 C 1.9091 -0.2329 1.225 0
M  V30 10 C 2.2407 2.1987 0.931 0
M  V30 11 C 0.4777 3.6388 0.121 0
M  V30 12 C -4.7215 0.5734 1.3706 0
M  V30 13 C -5.4915 -1.6429 0.3412 0
M  V30 14 O 1.2716 -0.9161 2.0693 0
M  V30 15 O 3.0702 -0.7523 0.651 0
M  V30 16 C 1.7823 3.4699 0.588 0
M  V30 17 C -6.1464 1.1229 1.5652 0
M  V30 18 C -5.322 -2.7443 -0.7194 0
M  V30 19 C 3.0584 -2.0395 0.0591 0
M  V30 20 C -6.671 1.8798 0.3373 0
M  V30 21 C -5.5673 -2.2412 -2.1405 0
M  V30 22 C 4.4757 -2.5272 -0.2918 0 CFG=1
M  V30 23 C -7.9805 2.6053 0.6628 0
M  V30 24 C 5.1012 -1.7792 -1.5084 0
M  V30 25 C 5.3746 -2.6342 0.9604 0
M  V30 26 C -8.5039 3.364 -0.5517 0
M  V30 27 C 6.0388 -0.5802 -1.24 0
M  V30 28 C 6.5913 -3.5383 0.7103 0
M  V30 29 C 5.3264 0.6793 -0.7288 0
M  V30 30 C 7.4623 -3.6466 1.9558 0
M  V30 31 C 6.2156 1.9174 -0.9066 0
M  V30 32 C 5.5444 3.1711 -0.3573 0
M  V30 33 H -2.8855 -1.4441 -0.8216 0
M  V30 34 H -2.8281 -1.5404 0.9838 0
M  V30 35 H -1.3706 2.685 -0.3974 0
M  V30 36 H -4.7686 0.1063 -0.7549 0
M  V30 37 H 3.2427 2.0839 1.324 0
M  V30 38 H 0.1184 4.627 -0.135 0
M  V30 39 H -4.4085 0.0779 2.3144 0
M  V30 40 H -4.0471 1.4449 1.2228 0
M  V30 41 H -6.5458 -1.2992 0.2869 0
M  V30 42 H -5.3417 -2.0997 1.3449 0
M  V30 43 H 2.4331 4.3286 0.6968 0
M  V30 44 H -6.1143 1.8188 2.4301 0
M  V30 45 H -6.8452 0.3071 1.8412 0
M  V30 46 H -4.3168 -3.2124 -0.6474 0
M  V30 47 H -6.062 -3.544 -0.5038 0
M  V30 48 H 2.4308 -2.013 -0.8579 0
M  V30 49 H 2.5925 -2.7691 0.7587 0
M  V30 50 H -6.8473 1.1665 -0.4971 0
M  V30 51 H -5.9133 2.6247 0.0078 0
M  V30 52 H -6.5434 -1.7162 -2.2041 0
M  V30 53 H -4.7564 -1.5554 -2.4588 0
M  V30 54 H -5.5839 -3.1057 -2.8374 0
M  V30 55 H 4.3091 -3.5677 -0.644 0
M  V30 56 H -8.7501 1.8678 0.987 0
M  V30 57 H -7.8114 3.3292 1.4919 0
M  V30 58 H 5.7078 -2.5237 -2.0691 0
M  V30 59 H 4.3003 -1.4667 -2.2157 0
M  V30 60 H 5.6982 -1.6262 1.3008 0
M  V30 61 H 4.7809 -3.0823 1.7896 0
M  V30 62 H -8.7372 2.6543 -1.3709 0
M  V30 63 H -7.7507 4.1003 -0.9057 0
M  V30 64 H -9.4288 3.9101 -0.2755 0
M  V30 65 H 6.8573 -0.8525 -0.5427 0
M  V30 66 H 6.5238 -0.3386 -2.2128 0
M  V30 67 H 6.2445 -4.5559 0.4276 0
M  V30 68 H 7.2079 -3.1421 -0.1241 0
M  V30 69 H 5.1074 0.5607 0.351 0
M  V30 70 H 4.3725 0.8316 -1.2835 0
M  V30 71 H 7.8597 -2.6477 2.23 0
M  V30 72 H 6.8712 -4.0512 2.8048 0
M  V30 73 H 8.3126 -4.3329 1.7575 0
M  V30 74 H 6.4292 2.0725 -1.9864 0
M  V30 75 H 7.181 1.7634 -0.3753 0
M  V30 76 H 6.1928 4.0536 -0.5441 0
M  V30 77 H 4.5669 3.3386 -0.8574 0
M  V30 78 H 5.3926 3.0741 0.7372 0
M  V30 END ATOM
M  V30 BEGIN BOND
M  V30 1 2 1 2
M  V30 2 1 2 3
M  V30 3 1 2 4
M  V30 4 1 3 5
M  V30 5 2 4 6
M  V30 6 1 4 7
M  V30 7 1 5 8
M  V30 8 1 6 9
M  V30 9 1 6 10
M  V30 10 2 7 11
M  V30 11 1 8 12
M  V30 12 1 8 13
M  V30 13 2 9 14
M  V30 14 1 9 15
M  V30 15 2 10 16
M  V30 16 1 12 17
M  V30 17 1 13 18
M  V30 18 1 15 19
M  V30 19 1 17 20
M  V30 20 1 18 21
M  V30 21 1 19 22
M  V30 22 1 20 23
M  V30 23 1 22 24
M  V30 24 1 22 25
M  V30 25 1 23 26
M  V30 26 1 24 27
M  V30 27 1 25 28
M  V30 28 1 27 29
M  V30 29 1 28 30
M  V30 30 1 29 31
M  V30 31 1 31 32
M  V30 32 1 11 16
M  V30 33 1 5 33
M  V30 34 1 5 34
M  V30 35 1 7 35
M  V30 36 1 8 36
M  V30 37 1 10 37
M  V30 38 1 11 38
M  V30 39 1 12 39
M  V30 40 1 12 40
M  V30 41 1 13 41
M  V30 42 1 13 42
M  V30 43 1 16 43
M  V30 44 1 17 44
M  V30 45 1 17 45
M  V30 46 1 18 46
M  V30 47 1 18 47
M  V30 48 1 19 48
M  V30 49 1 19 49
M  V30 50 1 20 50
M  V30 51 1 20 51
M  V30 52 1 21 52
M  V30 53 1 21 53
M  V30 54 1 21 54
M  V30 55 1 22 55
M  V30 56 1 23 56
M  V30 57 1 23 57
M  V30 58 1 24 58
M  V30 59 1 24 59
M  V30 60 1 25 60
M  V30 61 1 25 61
M  V30 62 1 26 62
M  V30 63 1 26 63
M  V30 64 1 26 64
M  V30 65 1 27 65
M  V30 66 1 27 66
M  V30 67 1 28 67
M  V30 68 1 28 68
M  V30 69 1 29 69
M  V30 70 1 29 70
M  V30 71 1 30 71
M  V30 72 1 30 72
M  V30 73 1 30 73
M  V30 74 1 31 74
M  V30 75 1 31 75
M  V30 76 1 32 76
M  V30 77 1 32 77
M  V30 78 1 32 78
M  V30 END BOND
M  V30 BEGIN COLLECTION
M  V30 MDLV30/STEABS ATOMS=(2 8 22)
M  V30 END COLLECTION
M  V30 END CTAB
M  END
>  <Structure No>
1473

>  <LogS>
-9.649988729

>  <MMFF94 Energy>
27.253

$$$$
Compound 1474
Actelion Java MolfileCreator 2.0

  0  0  0  0  0  0              0 V3000
M  V30 BEGIN CTAB
M  V30 COUNTS 27 28 0 0 0
M  V30 BEGIN ATOM
M  V30 1 Cl -2.4041 3.2341 -0.2485 0
M  V30 2 C -0.8373 2.6582 0.3683 0
M  V30 3 Cl -0.2189 3.8249 1.5662 0
M  V30 4 C -1.0029 1.3007 0.985 0
M  V30 5 O -1.5949 1.1814 2.0921 0
M  V30 6 N -0.5588 0.1241 0.2827 0
M  V30 7 C 0.8593 -0.1647 0.1706 0
M  V30 8 C -1.5284 -0.9457 -0.0531 0 CFG=2
M  V30 9 C 1.2668 -1.3361 -0.4971 0
M  V30 10 C 1.846 0.6578 0.7558 0
M  V30 11 C -1.029 -1.7459 -1.2695 0
M  V30 12 C -2.9331 -0.396 -0.3605 0
M  V30 13 O 0.312 -2.1767 -1.0692 0
M  V30 14 C 2.6211 -1.6755 -0.5771 0
M  V30 15 C 3.199 0.3189 0.6607 0
M  V30 16 C 3.5862 -0.8457 -0.004 0
M  V30 17 H -0.1219 2.6075 -0.479 0
M  V30 18 H -1.6061 -1.6374 0.8145 0
M  V30 19 H 1.5825 1.5505 1.3028 0
M  V30 20 H -1.6722 -2.6359 -1.4383 0
M  V30 21 H -1.0637 -1.1079 -2.18 0
M  V30 22 H -2.8843 0.3636 -1.1696 0
M  V30 23 H -3.6054 -1.2193 -0.6846 0
M  V30 24 H -3.385 0.061 0.5438 0
M  V30 25 H 2.9244 -2.5806 -1.0876 0
M  V30 26 H 3.9483 0.9561 1.1128 0
M  V30 27 H 4.6342 -1.108 -0.0706 0
M  V30 END ATOM
M  V30 BEGIN BOND
M  V30 1 1 1 2
M  V30 2 1 2 3
M  V30 3 1 2 4
M  V30 4 2 4 5
M  V30 5 1 4 6
M  V30 6 1 6 7
M  V30 7 1 6 8
M  V30 8 2 7 9
M  V30 9 1 7 10
M  V30 10 1 8 11
M  V30 11 1 8 12
M  V30 12 1 9 13
M  V30 13 1 9 14
M  V30 14 2 10 15
M  V30 15 2 14 16
M  V30 16 1 11 13
M  V30 17 1 15 16
M  V30 18 1 2 17
M  V30 19 1 8 18
M  V30 20 1 10 19
M  V30 21 1 11 20
M  V30 22 1 11 21
M  V30 23 1 12 22
M  V30 24 1 12 23
M  V30 25 1 12 24
M  V30 26 1 14 25
M  V30 27 1 15 26
M  V30 28 1 16 27
M  V30 END BOND
M  V30 BEGIN COLLECTION
M  V30 MDLV30/STEABS ATOMS=(1 8)
M  V30 END COLLECTION
M  V30 END CTAB
M  END
>  <Structure No>
1474

>  <LogS>
-3.835390149

>  <MMFF94 Energy>
92.43

$$$$
Compound 1475
Actelion Java MolfileCreator 2.0

  0  0  0  0  0  0              0 V3000
M  V30 BEGIN CTAB
M  V30 COUNTS 30 31 0 0 0
M  V30 BEGIN ATOM
M  V30 1 F 5.7557 -0.9575 0.3191 0
M  V30 2 C 4.4465 -0.7171 0.0611 0
M  V30 3 C 3.9691 -0.7819 -1.2487 0
M  V30 4 C 3.5738 -0.4077 1.1057 0
M  V30 5 C 2.6194 -0.5355 -1.5168 0
M  V30 6 C 2.2228 -0.1595 0.844 0
M  V30 7 C 1.7261 -0.2152 -0.475 0
M  V30 8 C 0.2914 0.0393 -0.7869 0
M  V30 9 O -0.1625 -0.3461 -1.8987 0
M  V30 10 C -0.6442 0.7169 0.2011 0
M  V30 11 C -1.6941 1.6224 -0.483 0
M  V30 12 C -1.3214 -0.3088 1.13 0
M  V30 13 C -2.8804 0.835 -1.0674 0
M  V30 14 C -2.4823 -1.0294 0.4329 0
M  V30 15 N -3.4721 -0.0666 -0.0692 0 CHG=1
M  V30 16 H 4.6447 -1.0229 -2.0592 0
M  V30 17 H 3.9425 -0.3637 2.1225 0
M  V30 18 H 2.2771 -0.5879 -2.5428 0
M  V30 19 H 1.5762 0.0584 1.6819 0
M  V30 20 H -0.0331 1.3972 0.8325 0
M  V30 21 H -2.0913 2.3378 0.2707 0
M  V30 22 H -1.2154 2.2254 -1.2851 0
M  V30 23 H -1.7147 0.2189 2.0266 0
M  V30 24 H -0.5846 -1.0604 1.4867 0
M  V30 25 H -3.6522 1.5602 -1.4075 0
M  V30 26 H -2.5676 0.2596 -1.9647 0
M  V30 27 H -2.0973 -1.6587 -0.4001 0
M  V30 28 H -2.9703 -1.7106 1.1642 0
M  V30 29 H -4.2565 -0.5949 -0.5175 0
M  V30 30 H -3.864 0.4909 0.7261 0
M  V30 END ATOM
M  V30 BEGIN BOND
M  V30 1 1 1 2
M  V30 2 2 2 3
M  V30 3 1 2 4
M  V30 4 1 3 5
M  V30 5 2 4 6
M  V30 6 2 5 7
M  V30 7 1 7 8
M  V30 8 2 8 9
M  V30 9 1 8 10
M  V30 10 1 10 11
M  V30 11 1 10 12
M  V30 12 1 11 13
M  V30 13 1 12 14
M  V30 14 1 13 15
M  V30 15 1 6 7
M  V30 16 1 14 15
M  V30 17 1 3 16
M  V30 18 1 4 17
M  V30 19 1 5 18
M  V30 20 1 6 19
M  V30 21 1 10 20
M  V30 22 1 11 21
M  V30 23 1 11 22
M  V30 24 1 12 23
M  V30 25 1 12 24
M  V30 26 1 13 25
M  V30 27 1 13 26
M  V30 28 1 14 27
M  V30 29 1 14 28
M  V30 30 1 15 29
M  V30 31 1 15 30
M  V30 END BOND
M  V30 END CTAB
M  END
>  <Structure No>
1475

>  <LogS>
0.589019569

>  <MMFF94 Energy>
23.125

$$$$
Compound 1476
Actelion Java MolfileCreator 2.0

  0  0  0  0  0  0              0 V3000
M  V30 BEGIN CTAB
M  V30 COUNTS 12 11 0 0 0
M  V30 BEGIN ATOM
M  V30 1 O -0.153 -1.9915 0.3061 0
M  V30 2 C -0.1422 -0.8195 -0.0382 0
M  V30 3 C 1.1573 -0.192 -0.4603 0
M  V30 4 C -1.4331 -0.041 -0.0024 0
M  V30 5 O 1.5319 0.7807 0.4738 0
M  V30 6 O -1.2564 1.2796 -0.4409 0
M  V30 7 H 1.037 0.2676 -1.4659 0
M  V30 8 H 1.9506 -0.9706 -0.5258 0
M  V30 9 H -2.1986 -0.5585 -0.6245 0
M  V30 10 H -1.8056 -0.0181 1.0431 0
M  V30 11 H 2.378 1.1745 0.1364 0
M  V30 12 H -1.2805 1.2562 -1.4333 0
M  V30 END ATOM
M  V30 BEGIN BOND
M  V30 1 2 1 2
M  V30 2 1 2 3
M  V30 3 1 2 4
M  V30 4 1 3 5
M  V30 5 1 4 6
M  V30 6 1 3 7
M  V30 7 1 3 8
M  V30 8 1 4 9
M  V30 9 1 4 10
M  V30 10 1 5 11
M  V30 11 1 6 12
M  V30 END BOND
M  V30 END CTAB
M  END
>  <Structure No>
1476

>  <LogS>
1.013864214

>  <MMFF94 Energy>
44.483

$$$$
Compound 1477
Actelion Java MolfileCreator 2.0

  0  0  0  0  0  0              0 V3000
M  V30 BEGIN CTAB
M  V30 COUNTS 68 72 0 0 0
M  V30 BEGIN ATOM
M  V30 1 S 7.9228 2.2104 -0.5947 0
M  V30 2 O 8.8709 1.1358 -1.0474 0
M  V30 3 O 8.6045 3.0453 0.4523 0
M  V30 4 O 7.5105 3.1817 -1.9008 0 CHG=-1
M  V30 5 C 6.4674 1.4771 0.0712 0
M  V30 6 C 5.7967 2.0818 1.1361 0
M  V30 7 C 5.9533 0.3103 -0.4955 0
M  V30 8 C 4.6234 1.5209 1.6592 0
M  V30 9 C 4.7848 -0.275 0.0126 0
M  V30 10 O 3.9655 2.1977 2.6858 0
M  V30 11 C 4.1133 0.3069 1.1238 0
M  V30 12 C 4.2728 -1.4262 -0.5997 0
M  V30 13 C 2.9347 -0.3242 1.6169 0
M  V30 14 C 3.1009 -2.0188 -0.1285 0
M  V30 15 N 2.2322 0.1826 2.7684 0
M  V30 16 C 2.4475 -1.4775 0.9786 0
M  V30 17 S 2.4363 -3.4452 -0.9175 0
M  V30 18 N 0.8441 0.0212 2.9422 0
M  V30 19 O 3.2596 -3.8159 -2.1196 0
M  V30 20 O 1.0306 -3.1568 -1.3611 0
M  V30 21 O 2.4429 -4.7287 0.1647 0 CHG=-1
M  V30 22 C -0.0764 0.3355 2.0732 0
M  V30 23 C 0.199 1.0638 0.8003 0
M  V30 24 C -1.4697 -0.0561 2.3667 0
M  V30 25 O 1.3817 1.7754 0.6267 0 CHG=-1
M  V30 26 C -0.73 1.0992 -0.1668 0
M  V30 27 C -2.3957 -0.048 1.4024 0
M  V30 28 N -0.4284 1.7614 -1.4071 0
M  V30 29 C -2.0387 0.4332 0.0488 0
M  V30 30 N -3.7468 -0.4214 1.7099 0
M  V30 31 N -1.1801 2.6076 -2.0035 0
M  V30 32 O -2.8508 0.3 -0.9056 0
M  V30 33 N -4.3606 -1.4106 1.1808 0
M  V30 34 C -2.3954 3.1704 -1.4822 0
M  V30 35 C -3.7469 -2.3922 0.3306 0
M  V30 36 C -2.4923 3.6167 -0.1531 0
M  V30 37 C -3.4808 3.3509 -2.3449 0
M  V30 38 C -4.3571 -2.7369 -0.8826 0
M  V30 39 C -2.6049 -3.0815 0.7603 0
M  V30 40 C -3.6853 4.173 0.3187 0
M  V30 41 C -4.6717 3.912 -1.8772 0
M  V30 42 O -5.5205 -2.074 -1.2624 0 CHG=-1
M  V30 43 C -3.7954 -3.742 -1.7006 0
M  V30 44 C -2.0475 -4.1031 -0.0214 0
M  V30 45 C -4.7902 4.321 -0.5367 0
M  V30 46 N -4.3837 -4.09 -2.9718 0 CHG=1
M  V30 47 C -2.6419 -4.4174 -1.2534 0
M  V30 48 N -0.8973 -4.8348 0.4426 0 CHG=1
M  V30 49 N -6.0195 4.8874 -0.0487 0 CHG=1
M  V30 50 O -3.9878 -5.0963 -3.5962 0
M  V30 51 O -5.3518 -3.3006 -3.5484 0 CHG=-1
M  V30 52 O -0.3445 -4.5355 1.5212 0
M  V30 53 O -0.3906 -5.8838 -0.2922 0 CHG=-1
M  V30 54 O -6.9727 5.102 -0.8253 0
M  V30 55 O -6.1699 5.1909 1.2842 0 CHG=-1
M  V30 56 H 6.1765 3.0067 1.5521 0
M  V30 57 H 6.4616 -0.137 -1.342 0
M  V30 58 H 4.3154 3.0705 3.0642 0
M  V30 59 H 4.7822 -1.855 -1.4535 0
M  V30 60 H 2.7964 0.3195 3.6352 0
M  V30 61 H 1.5529 -1.9627 1.3495 0
M  V30 62 H -1.7275 -0.4127 3.3578 0
M  V30 63 H -1.6449 3.5456 0.5164 0
M  V30 64 H -3.4096 3.0378 -3.3789 0
M  V30 65 H -2.176 -2.845 1.7249 0
M  V30 66 H -3.7398 4.4979 1.3501 0
M  V30 67 H -5.5017 4.0216 -2.5626 0
M  V30 68 H -2.2055 -5.1951 -1.8648 0
M  V30 END ATOM
M  V30 BEGIN BOND
M  V30 1 2 1 2
M  V30 2 2 1 3
M  V30 3 1 1 4
M  V30 4 1 1 5
M  V30 5 1 5 6
M  V30 6 2 5 7
M  V30 7 2 6 8
M  V30 8 1 7 9
M  V30 9 1 8 10
M  V30 10 1 8 11
M  V30 11 2 9 12
M  V30 12 2 11 13
M  V30 13 1 12 14
M  V30 14 1 13 15
M  V30 15 1 13 16
M  V30 16 1 14 17
M  V30 17 1 15 18
M  V30 18 2 17 19
M  V30 19 2 17 20
M  V30 20 1 17 21
M  V30 21 2 18 22
M  V30 22 1 22 23
M  V30 23 1 22 24
M  V30 24 1 23 25
M  V30 25 2 23 26
M  V30 26 2 24 27
M  V30 27 1 26 28
M  V30 28 1 26 29
M  V30 29 1 27 30
M  V30 30 2 28 31
M  V30 31 2 29 32
M  V30 32 2 30 33
M  V30 33 1 31 34
M  V30 34 1 33 35
M  V30 35 2 34 36
M  V30 36 1 34 37
M  V30 37 2 35 38
M  V30 38 1 35 39
M  V30 39 1 36 40
M  V30 40 2 37 41
M  V30 41 1 38 42
M  V30 42 1 38 43
M  V30 43 2 39 44
M  V30 44 2 40 45
M  V30 45 1 43 46
M  V30 46 2 43 47
M  V30 47 1 44 48
M  V30 48 1 45 49
M  V30 49 2 46 50
M  V30 50 1 46 51
M  V30 51 2 48 52
M  V30 52 1 48 53
M  V30 53 2 49 54
M  V30 54 1 49 55
M  V30 55 1 9 11
M  V30 56 2 14 16
M  V30 57 1 27 29
M  V30 58 1 41 45
M  V30 59 1 44 47
M  V30 60 1 6 56
M  V30 61 1 7 57
M  V30 62 1 10 58
M  V30 63 1 12 59
M  V30 64 1 15 60
M  V30 65 1 16 61
M  V30 66 1 24 62
M  V30 67 1 36 63
M  V30 68 1 37 64
M  V30 69 1 39 65
M  V30 70 1 40 66
M  V30 71 1 41 67
M  V30 72 1 47 68
M  V30 END BOND
M  V30 END CTAB
M  END
>  <Structure No>
1477

>  <LogS>
-0.967567025

>  <MMFF94 Energy>
524.69

$$$$
Compound 1478
Actelion Java MolfileCreator 2.0

  0  0  0  0  0  0              0 V3000
M  V30 BEGIN CTAB
M  V30 COUNTS 72 77 0 0 0
M  V30 BEGIN ATOM
M  V30 1 S 8.2689 -2.5004 1.583 0
M  V30 2 O 9.1203 -2.8929 0.4068 0
M  V30 3 O 7.8885 -3.7442 2.335 0
M  V30 4 O 9.145 -1.488 2.5988 0 CHG=-1
M  V30 5 C 6.8236 -1.6529 1.0126 0
M  V30 6 C 6.9547 -0.5512 0.0262 0
M  V30 7 C 5.6208 -1.9738 1.519 0
M  V30 8 N 8.1427 -0.0633 -0.2047 0
M  V30 9 C 5.7095 -0.0317 -0.5987 0
M  V30 10 C 4.3825 -1.2799 1.0959 0
M  V30 11 N 8.4416 1.0712 -0.9782 0
M  V30 12 O 5.733 0.5953 -1.6925 0
M  V30 13 C 4.4167 -0.3408 0.0469 0
M  V30 14 C 3.1677 -1.5612 1.7391 0
M  V30 15 C 9.8049 1.4425 -1.2369 0
M  V30 16 C 3.2303 0.2944 -0.3543 0
M  V30 17 C 1.9832 -0.9222 1.3424 0
M  V30 18 C 10.8748 0.6974 -0.7075 0
M  V30 19 C 10.0831 2.5734 -2.0218 0
M  V30 20 C 2.0255 0.0148 0.2952 0
M  V30 21 N 0.77 -1.1767 2.0698 0
M  V30 22 C 12.1955 1.0783 -0.9656 0
M  V30 23 C 11.4049 2.9505 -2.2779 0
M  V30 24 C -0.5442 -1.0905 1.5023 0
M  V30 25 C 12.4606 2.201 -1.7522 0
M  V30 26 O -0.7004 -1.1732 0.2542 0
M  V30 27 N -1.6825 -0.9944 2.3701 0
M  V30 28 C -3.0058 -0.6242 1.9441 0
M  V30 29 C -3.2139 0.2494 0.8619 0
M  V30 30 C -4.1121 -1.0858 2.6709 0
M  V30 31 C -4.513 0.6254 0.4866 0
M  V30 32 C -5.4073 -0.7105 2.3084 0
M  V30 33 C -5.6179 0.144 1.2139 0
M  V30 34 C -4.7103 1.5387 -0.6614 0
M  V30 35 C -6.9793 0.5645 0.8226 0
M  V30 36 C -5.9321 1.9076 -1.0801 0
M  V30 37 O -7.9665 0.2344 1.5344 0
M  V30 38 C -7.1497 1.4136 -0.3885 0
M  V30 39 S -6.0924 2.9937 -2.4666 0
M  V30 40 N -8.3193 1.7564 -0.856 0
M  V30 41 O -4.7557 3.2428 -3.1055 0
M  V30 42 O -6.6686 4.3022 -2.0078 0
M  V30 43 O -7.1118 2.2989 -3.6063 0 CHG=-1
M  V30 44 N -9.5479 1.3061 -0.3432 0
M  V30 45 C -10.0281 -0.032 -0.5672 0
M  V30 46 C -9.2936 -0.9577 -1.3327 0
M  V30 47 C -11.2574 -0.4255 -0.0143 0
M  V30 48 C -9.7815 -2.2537 -1.5305 0
M  V30 49 C -11.7413 -1.7229 -0.2147 0
M  V30 50 C -11.0024 -2.6369 -0.9701 0
M  V30 51 H 5.5455 -2.7515 2.2703 0
M  V30 52 H 7.6963 1.7396 -1.2637 0
M  V30 53 H 3.1402 -2.2743 2.5549 0
M  V30 54 H 3.2391 1.0261 -1.1521 0
M  V30 55 H 10.6934 -0.1726 -0.0922 0
M  V30 56 H 9.2768 3.1636 -2.4379 0
M  V30 57 H 1.1377 0.5601 0.0022 0
M  V30 58 H 0.8507 -1.4737 3.0683 0
M  V30 59 H 13.0147 0.5034 -0.5565 0
M  V30 60 H 11.609 3.8224 -2.8866 0
M  V30 61 H 13.4828 2.495 -1.9517 0
M  V30 62 H -1.5461 -1.2539 3.3717 0
M  V30 63 H -2.3698 0.6641 0.3261 0
M  V30 64 H -3.9698 -1.7413 3.5209 0
M  V30 65 H -6.2423 -1.0865 2.886 0
M  V30 66 H -3.8333 1.9101 -1.1752 0
M  V30 67 H -10.2102 2.0216 0.0349 0
M  V30 68 H -8.3459 -0.684 -1.7779 0
M  V30 69 H -11.8384 0.2742 0.5741 0
M  V30 70 H -9.2107 -2.9617 -2.1183 0
M  V30 71 H -12.6903 -2.0193 0.2149 0
M  V30 72 H -11.3762 -3.6415 -1.1193 0
M  V30 END ATOM
M  V30 BEGIN BOND
M  V30 1 2 1 2
M  V30 2 2 1 3
M  V30 3 1 1 4
M  V30 4 1 1 5
M  V30 5 1 5 6
M  V30 6 2 5 7
M  V30 7 2 6 8
M  V30 8 1 6 9
M  V30 9 1 7 10
M  V30 10 1 8 11
M  V30 11 2 9 12
M  V30 12 1 9 13
M  V30 13 1 10 14
M  V30 14 1 11 15
M  V30 15 1 13 16
M  V30 16 2 14 17
M  V30 17 2 15 18
M  V30 18 1 15 19
M  V30 19 2 16 20
M  V30 20 1 17 21
M  V30 21 1 18 22
M  V30 22 2 19 23
M  V30 23 1 21 24
M  V30 24 2 22 25
M  V30 25 2 24 26
M  V30 26 1 24 27
M  V30 27 1 27 28
M  V30 28 2 28 29
M  V30 29 1 28 30
M  V30 30 1 29 31
M  V30 31 2 30 32
M  V30 32 2 31 33
M  V30 33 1 31 34
M  V30 34 1 33 35
M  V30 35 2 34 36
M  V30 36 2 35 37
M  V30 37 1 35 38
M  V30 38 1 36 39
M  V30 39 2 38 40
M  V30 40 2 39 41
M  V30 41 2 39 42
M  V30 42 1 39 43
M  V30 43 1 40 44
M  V30 44 1 44 45
M  V30 45 2 45 46
M  V30 46 1 45 47
M  V30 47 1 46 48
M  V30 48 2 47 49
M  V30 49 2 48 50
M  V30 50 2 10 13
M  V30 51 1 17 20
M  V30 52 1 23 25
M  V30 53 1 32 33
M  V30 54 1 36 38
M  V30 55 1 49 50
M  V30 56 1 7 51
M  V30 57 1 11 52
M  V30 58 1 14 53
M  V30 59 1 16 54
M  V30 60 1 18 55
M  V30 61 1 19 56
M  V30 62 1 20 57
M  V30 63 1 21 58
M  V30 64 1 22 59
M  V30 65 1 23 60
M  V30 66 1 25 61
M  V30 67 1 27 62
M  V30 68 1 29 63
M  V30 69 1 30 64
M  V30 70 1 32 65
M  V30 71 1 34 66
M  V30 72 1 44 67
M  V30 73 1 46 68
M  V30 74 1 47 69
M  V30 75 1 48 70
M  V30 76 1 49 71
M  V30 77 1 50 72
M  V30 END BOND
M  V30 END CTAB
M  END
>  <Structure No>
1478

>  <LogS>
-1.887246692

>  <MMFF94 Energy>
153.04

$$$$
Compound 1479
Actelion Java MolfileCreator 2.0

  0  0  0  0  0  0              0 V3000
M  V30 BEGIN CTAB
M  V30 COUNTS 22 22 0 0 0
M  V30 BEGIN ATOM
M  V30 1 O 2.9564 -0.6218 0.4663 0
M  V30 2 C 1.7758 -0.4194 -0.2754 0 CFG=2
M  V30 3 C 2.6461 0.7096 0.1287 0
M  V30 4 C 0.5291 -0.7011 0.5875 0
M  V30 5 N -0.7324 -0.1302 0.0306 0 CHG=1
M  V30 6 C -0.6446 1.3457 -0.0686 0
M  V30 7 C -1.0303 -0.7012 -1.3048 0
M  V30 8 C -1.8454 -0.4752 0.9473 0
M  V30 9 H 1.8788 -0.8364 -1.2985 0
M  V30 10 H 3.3317 1.0982 -0.652 0
M  V30 11 H 2.3509 1.2961 1.0241 0
M  V30 12 H 0.4386 -1.8073 0.6768 0
M  V30 13 H 0.6937 -0.324 1.6242 0
M  V30 14 H 0.1222 1.6572 -0.8105 0
M  V30 15 H -0.3795 1.7962 0.9139 0
M  V30 16 H -1.6144 1.7827 -0.3969 0
M  V30 17 H -1.0366 -1.8135 -1.271 0
M  V30 18 H -0.2826 -0.3803 -2.0615 0
M  V30 19 H -2.0259 -0.3633 -1.6708 0
M  V30 20 H -2.8145 -0.0711 0.5768 0
M  V30 21 H -1.6721 -0.0554 1.9639 0
M  V30 22 H -1.9545 -1.5786 1.0465 0
M  V30 END ATOM
M  V30 BEGIN BOND
M  V30 1 1 1 2
M  V30 2 1 1 3
M  V30 3 1 2 4
M  V30 4 1 4 5
M  V30 5 1 5 6
M  V30 6 1 5 7
M  V30 7 1 5 8
M  V30 8 1 2 3
M  V30 9 1 2 9
M  V30 10 1 3 10
M  V30 11 1 3 11
M  V30 12 1 4 12
M  V30 13 1 4 13
M  V30 14 1 6 14
M  V30 15 1 6 15
M  V30 16 1 6 16
M  V30 17 1 7 17
M  V30 18 1 7 18
M  V30 19 1 7 19
M  V30 20 1 8 20
M  V30 21 1 8 21
M  V30 22 1 8 22
M  V30 END BOND
M  V30 BEGIN COLLECTION
M  V30 MDLV30/STEABS ATOMS=(1 2)
M  V30 END COLLECTION
M  V30 END CTAB
M  END
>  <Structure No>
1479

>  <LogS>
0.749634411

>  <MMFF94 Energy>
19.059

$$$$
Compound 1480
Actelion Java MolfileCreator 2.0

  0  0  0  0  0  0              0 V3000
M  V30 BEGIN CTAB
M  V30 COUNTS 24 24 0 0 0
M  V30 BEGIN ATOM
M  V30 1 S 4.0318 0.1643 0.0 0
M  V30 2 O 4.6568 -1.1985 0.1043 0
M  V30 3 O 4.4463 0.9779 1.1937 0
M  V30 4 O 4.5636 0.9182 -1.4032 0 CHG=-1
M  V30 5 C 2.2783 0.0163 -0.043 0
M  V30 6 C 1.6802 -1.1157 -0.6099 0
M  V30 7 C 1.4718 1.0406 0.4685 0
M  V30 8 C 0.2876 -1.2299 -0.6544 0
M  V30 9 C 0.0792 0.9292 0.4254 0
M  V30 10 C -0.5291 -0.2096 -0.1359 0
M  V30 11 C -2.0394 -0.3448 -0.1907 0
M  V30 12 C -2.6448 -0.3583 1.218 0
M  V30 13 C -2.6626 0.7628 -1.0483 0
M  V30 14 H 2.2907 -1.9102 -1.0199 0
M  V30 15 H 1.9197 1.9272 0.8993 0
M  V30 16 H -0.1513 -2.1157 -1.096 0
M  V30 17 H -0.5221 1.7335 0.8289 0
M  V30 18 H -2.307 -1.3142 -0.6679 0
M  V30 19 H -3.7371 -0.5532 1.1604 0
M  V30 20 H -2.18 -1.165 1.8242 0
M  V30 21 H -2.4872 0.6136 1.7319 0
M  V30 22 H -2.2112 0.7573 -2.0636 0
M  V30 23 H -2.5042 1.7621 -0.5899 0
M  V30 24 H -3.7553 0.5925 -1.1537 0
M  V30 END ATOM
M  V30 BEGIN BOND
M  V30 1 2 1 2
M  V30 2 2 1 3
M  V30 3 1 1 4
M  V30 4 1 1 5
M  V30 5 2 5 6
M  V30 6 1 5 7
M  V30 7 1 6 8
M  V30 8 2 7 9
M  V30 9 2 8 10
M  V30 10 1 10 11
M  V30 11 1 11 12
M  V30 12 1 11 13
M  V30 13 1 9 10
M  V30 14 1 6 14
M  V30 15 1 7 15
M  V30 16 1 8 16
M  V30 17 1 9 17
M  V30 18 1 11 18
M  V30 19 1 12 19
M  V30 20 1 12 20
M  V30 21 1 12 21
M  V30 22 1 13 22
M  V30 23 1 13 23
M  V30 24 1 13 24
M  V30 END BOND
M  V30 END CTAB
M  END
>  <Structure No>
1480

>  <LogS>
0.612751114

>  <MMFF94 Energy>
54.512

$$$$
Compound 1481
Actelion Java MolfileCreator 2.0

  0  0  0  0  0  0              0 V3000
M  V30 BEGIN CTAB
M  V30 COUNTS 63 66 0 0 0
M  V30 BEGIN ATOM
M  V30 1 S 8.9266 -1.5117 2.6887 0
M  V30 2 O 10.1721 -2.3391 2.5376 0
M  V30 3 O 7.7525 -2.4518 2.7241 0
M  V30 4 O 8.9935 -0.6589 4.1366 0 CHG=-1
M  V30 5 C 8.7759 -0.3642 1.3378 0
M  V30 6 C 9.9102 0.2781 0.762 0
M  V30 7 C 7.5135 -0.0368 0.8123 0
M  V30 8 C 9.7414 1.1396 -0.3491 0
M  V30 9 C 11.3063 0.0491 1.2766 0
M  V30 10 S 5.9792 -0.5316 1.2988 0
M  V30 11 C 7.3603 0.8231 -0.2674 0
M  V30 12 C 8.4681 1.4108 -0.8645 0
M  V30 13 C 5.1915 0.3633 0.0969 0
M  V30 14 N 6.0807 1.0419 -0.6696 0
M  V30 15 C 3.7279 0.42 -0.1143 0
M  V30 16 C 3.2041 1.0366 -1.2647 0
M  V30 17 C 2.84 -0.1316 0.826 0
M  V30 18 C 1.8228 1.0932 -1.4735 0
M  V30 19 C 1.4585 -0.0655 0.6204 0
M  V30 20 C 0.9421 0.5431 -0.5281 0
M  V30 21 N -0.4762 0.5908 -0.7121 0 CHG=-1
M  V30 22 N -1.062 1.14 -1.8637 0
M  V30 23 C -2.3499 1.2172 -2.0301 0
M  V30 24 C -3.283 0.7637 -0.9709 0
M  V30 25 C -2.8593 1.7999 -3.2927 0
M  V30 26 O -3.0716 1.1031 0.2265 0
M  V30 27 N -4.4317 -0.031 -1.3102 0
M  V30 28 O -2.0849 1.8913 -4.2846 0
M  V30 29 C -4.2691 2.2924 -3.4355 0
M  V30 30 C -5.4845 -0.332 -0.38 0
M  V30 31 C -6.822 -0.1679 -0.7706 0
M  V30 32 C -5.1887 -0.8305 0.8979 0
M  V30 33 O -7.0896 0.3171 -2.0626 0
M  V30 34 C -7.8511 -0.478 0.1376 0
M  V30 35 C -6.2105 -1.1228 1.8144 0
M  V30 36 C -8.3932 0.5298 -2.5941 0
M  V30 37 C -7.5597 -0.9513 1.4259 0
M  V30 38 C -5.8381 -1.6592 3.1711 0
M  V30 39 S -8.8982 -1.3108 2.5306 0
M  V30 40 O -8.7512 -2.7017 3.0781 0
M  V30 41 O -10.2128 -1.2182 1.8094 0
M  V30 42 O -8.8963 -0.2013 3.793 0 CHG=-1
M  V30 43 H 10.5988 1.6101 -0.8118 0
M  V30 44 H 11.6751 -0.9369 0.9276 0
M  V30 45 H 12.009 0.8287 0.9102 0
M  V30 46 H 11.3217 0.0932 2.3852 0
M  V30 47 H 8.3511 2.0783 -1.708 0
M  V30 48 H 3.8622 1.4685 -2.0078 0
M  V30 49 H 3.2067 -0.6057 1.7277 0
M  V30 50 H 1.4465 1.5673 -2.37 0
M  V30 51 H 0.788 -0.4867 1.3601 0
M  V30 52 H -4.5674 -0.3094 -2.3083 0
M  V30 53 H -4.9101 1.4862 -3.85 0
M  V30 54 H -4.2971 3.1575 -4.1305 0
M  V30 55 H -4.6755 2.6249 -2.4573 0
M  V30 56 H -4.1564 -1.0068 1.1727 0
M  V30 57 H -8.8832 -0.3473 -0.1537 0
M  V30 58 H -8.9383 1.2787 -1.9758 0
M  V30 59 H -8.3023 0.9219 -3.6329 0
M  V30 60 H -8.9563 -0.4315 -2.6226 0
M  V30 61 H -6.3754 -1.1068 3.9688 0
M  V30 62 H -4.7507 -1.5492 3.3702 0
M  V30 63 H -6.091 -2.7375 3.2282 0
M  V30 END ATOM
M  V30 BEGIN BOND
M  V30 1 2 1 2
M  V30 2 2 1 3
M  V30 3 1 1 4
M  V30 4 1 1 5
M  V30 5 2 5 6
M  V30 6 1 5 7
M  V30 7 1 6 8
M  V30 8 1 6 9
M  V30 9 1 7 10
M  V30 10 2 7 11
M  V30 11 2 8 12
M  V30 12 1 10 13
M  V30 13 1 11 14
M  V30 14 1 13 15
M  V30 15 2 15 16
M  V30 16 1 15 17
M  V30 17 1 16 18
M  V30 18 2 17 19
M  V30 19 2 18 20
M  V30 20 1 20 21
M  V30 21 1 21 22
M  V30 22 2 22 23
M  V30 23 1 23 24
M  V30 24 1 23 25
M  V30 25 2 24 26
M  V30 26 1 24 27
M  V30 27 2 25 28
M  V30 28 1 25 29
M  V30 29 1 27 30
M  V30 30 2 30 31
M  V30 31 1 30 32
M  V30 32 1 31 33
M  V30 33 1 31 34
M  V30 34 2 32 35
M  V30 35 1 33 36
M  V30 36 2 34 37
M  V30 37 1 35 38
M  V30 38 1 37 39
M  V30 39 2 39 40
M  V30 40 2 39 41
M  V30 41 1 39 42
M  V30 42 1 11 12
M  V30 43 2 13 14
M  V30 44 1 19 20
M  V30 45 1 35 37
M  V30 46 1 8 43
M  V30 47 1 9 44
M  V30 48 1 9 45
M  V30 49 1 9 46
M  V30 50 1 12 47
M  V30 51 1 16 48
M  V30 52 1 17 49
M  V30 53 1 18 50
M  V30 54 1 19 51
M  V30 55 1 27 52
M  V30 56 1 29 53
M  V30 57 1 29 54
M  V30 58 1 29 55
M  V30 59 1 32 56
M  V30 60 1 34 57
M  V30 61 1 36 58
M  V30 62 1 36 59
M  V30 63 1 36 60
M  V30 64 1 38 61
M  V30 65 1 38 62
M  V30 66 1 38 63
M  V30 END BOND
M  V30 END CTAB
M  END
>  <Structure No>
1481

>  <LogS>
-0.916346136

>  <MMFF94 Energy>
233.54

$$$$
Compound 1482
Actelion Java MolfileCreator 2.0

  0  0  0  0  0  0              0 V3000
M  V30 BEGIN CTAB
M  V30 COUNTS 66 71 0 0 0
M  V30 BEGIN ATOM
M  V30 1 S -1.0876 1.8411 0.1672 0
M  V30 2 O 0.2685 1.9123 0.8056 0
M  V30 3 O -2.0179 2.7391 0.9315 0
M  V30 4 O -0.9888 2.374 -1.4219 0 CHG=-1
M  V30 5 C -1.6942 0.1751 0.1903 0
M  V30 6 C -0.8465 -0.9334 -0.0441 0
M  V30 7 C -3.0664 -0.0409 0.3992 0
M  V30 8 C 0.5798 -0.7636 -0.3906 0
M  V30 9 C -1.3843 -2.2291 -0.0409 0
M  V30 10 C -3.6029 -1.3405 0.382 0
M  V30 11 C 1.6119 -0.9551 0.5577 0
M  V30 12 C 0.9042 -0.4088 -1.7068 0
M  V30 13 C -2.7478 -2.4307 0.1761 0
M  V30 14 N -5.0173 -1.5594 0.5031 0
M  V30 15 S 1.2575 -1.3925 2.236 0
M  V30 16 C 2.9482 -0.7721 0.1655 0
M  V30 17 C 2.2325 -0.2332 -2.0847 0
M  V30 18 N -5.8964 -0.4899 0.7426 0
M  V30 19 O 0.6263 -2.7553 2.2819 0
M  V30 20 O 0.3232 -0.3794 2.8344 0
M  V30 21 O 2.6704 -1.419 3.1486 0 CHG=-1
M  V30 22 C 3.2647 -0.4042 -1.1537 0
M  V30 23 C -7.0666 -0.3394 0.1811 0
M  V30 24 N 4.6252 -0.2088 -1.5665 0
M  V30 25 C -7.5601 -1.2064 -0.9267 0
M  V30 26 C -7.9186 0.8103 0.5833 0
M  V30 27 N 5.6638 -0.1185 -0.621 0
M  V30 28 O -6.8888 -2.1794 -1.3624 0
M  V30 29 C -8.8469 -0.8949 -1.5714 0
M  V30 30 C -9.1354 1.0501 -0.0991 0
M  V30 31 C -7.5462 1.661 1.6452 0
M  V30 32 C 6.9382 -0.1941 -0.8856 0
M  V30 33 C -9.5747 0.1585 -1.1955 0
M  V30 34 C -9.9434 2.1345 0.2753 0
M  V30 35 C -8.3655 2.7319 2.0138 0
M  V30 36 C 7.4783 -0.5946 -2.2151 0
M  V30 37 C 7.9237 0.1083 0.1855 0
M  V30 38 C -9.56 2.9696 1.3287 0
M  V30 39 O 6.7496 -1.1119 -3.102 0
M  V30 40 C 8.9212 -0.4661 -2.4757 0
M  V30 41 C 9.3011 0.1603 -0.1299 0
M  V30 42 C 7.51 0.3853 1.5042 0
M  V30 43 C 9.7693 -0.1142 -1.5069 0
M  V30 44 C 10.2338 0.4778 0.8689 0
M  V30 45 C 8.4502 0.6996 2.4897 0
M  V30 46 C 9.8086 0.7471 2.1721 0
M  V30 47 H -3.72 0.8092 0.5485 0
M  V30 48 H -0.75 -3.0859 -0.2362 0
M  V30 49 H 0.1233 -0.2613 -2.4443 0
M  V30 50 H -3.1426 -3.4382 0.1526 0
M  V30 51 H -5.3862 -2.5373 0.4756 0
M  V30 52 H 3.742 -0.919 0.8857 0
M  V30 53 H 2.4541 0.0436 -3.1068 0
M  V30 54 H 4.7984 0.0667 -2.5577 0
M  V30 55 H -9.2021 -1.5255 -2.3793 0
M  V30 56 H -6.6269 1.4975 2.1965 0
M  V30 57 H -10.5113 0.3568 -1.7068 0
M  V30 58 H -10.8754 2.331 -0.2422 0
M  V30 59 H -8.0735 3.3779 2.8344 0
M  V30 60 H -10.1923 3.8008 1.6157 0
M  V30 61 H 9.3068 -0.6903 -3.4637 0
M  V30 62 H 6.4625 0.3563 1.7738 0
M  V30 63 H 10.825 -0.0447 -1.7391 0
M  V30 64 H 11.2918 0.5185 0.6406 0
M  V30 65 H 8.1262 0.9058 3.5031 0
M  V30 66 H 10.5343 0.9919 2.9371 0
M  V30 END ATOM
M  V30 BEGIN BOND
M  V30 1 2 1 2
M  V30 2 2 1 3
M  V30 3 1 1 4
M  V30 4 1 1 5
M  V30 5 2 5 6
M  V30 6 1 5 7
M  V30 7 1 6 8
M  V30 8 1 6 9
M  V30 9 2 7 10
M  V30 10 2 8 11
M  V30 11 1 8 12
M  V30 12 2 9 13
M  V30 13 1 10 14
M  V30 14 1 11 15
M  V30 15 1 11 16
M  V30 16 2 12 17
M  V30 17 1 14 18
M  V30 18 2 15 19
M  V30 19 2 15 20
M  V30 20 1 15 21
M  V30 21 2 16 22
M  V30 22 2 18 23
M  V30 23 1 22 24
M  V30 24 1 23 25
M  V30 25 1 23 26
M  V30 26 1 24 27
M  V30 27 2 25 28
M  V30 28 1 25 29
M  V30 29 2 26 30
M  V30 30 1 26 31
M  V30 31 2 27 32
M  V30 32 2 29 33
M  V30 33 1 30 34
M  V30 34 2 31 35
M  V30 35 1 32 36
M  V30 36 1 32 37
M  V30 37 2 34 38
M  V30 38 2 36 39
M  V30 39 1 36 40
M  V30 40 2 37 41
M  V30 41 1 37 42
M  V30 42 2 40 43
M  V30 43 1 41 44
M  V30 44 2 42 45
M  V30 45 2 44 46
M  V30 46 1 10 13
M  V30 47 1 17 22
M  V30 48 1 30 33
M  V30 49 1 35 38
M  V30 50 1 41 43
M  V30 51 1 45 46
M  V30 52 1 7 47
M  V30 53 1 9 48
M  V30 54 1 12 49
M  V30 55 1 13 50
M  V30 56 1 14 51
M  V30 57 1 16 52
M  V30 58 1 17 53
M  V30 59 1 24 54
M  V30 60 1 29 55
M  V30 61 1 31 56
M  V30 62 1 33 57
M  V30 63 1 34 58
M  V30 64 1 35 59
M  V30 65 1 38 60
M  V30 66 1 40 61
M  V30 67 1 42 62
M  V30 68 1 43 63
M  V30 69 1 44 64
M  V30 70 1 45 65
M  V30 71 1 46 66
M  V30 END BOND
M  V30 END CTAB
M  END
>  <Structure No>
1482

>  <LogS>
-1.897313906

>  <MMFF94 Energy>
321.86

$$$$
Compound 1483
Actelion Java MolfileCreator 2.0

  0  0  0  0  0  0              0 V3000
M  V30 BEGIN CTAB
M  V30 COUNTS 15 15 0 0 0
M  V30 BEGIN ATOM
M  V30 1 N 1.4147 -1.4933 3.6185 0
M  V30 2 C 1.0131 -1.0822 2.614 0
M  V30 3 C 0.5138 -0.5707 1.3645 0
M  V30 4 C 1.1433 -0.9171 0.1621 0
M  V30 5 C -0.603 0.2748 1.3478 0
M  V30 6 C 0.6579 -0.4201 -1.0518 0
M  V30 7 C -1.0881 0.7717 0.1338 0
M  V30 8 C -0.46 0.4267 -1.0718 0
M  V30 9 N -0.9562 0.9348 -2.3131 0
M  V30 10 H 2.0076 -1.5703 0.163 0
M  V30 11 H -1.0979 0.5495 2.2719 0
M  V30 12 H 1.1521 -0.6943 -1.9754 0
M  V30 13 H -1.9521 1.4246 0.1324 0
M  V30 14 H -0.4953 0.6835 -3.216 0
M  V30 15 H -1.788 1.566 -2.3381 0
M  V30 END ATOM
M  V30 BEGIN BOND
M  V30 1 3 1 2
M  V30 2 1 2 3
M  V30 3 2 3 4
M  V30 4 1 3 5
M  V30 5 1 4 6
M  V30 6 2 5 7
M  V30 7 2 6 8
M  V30 8 1 8 9
M  V30 9 1 7 8
M  V30 10 1 4 10
M  V30 11 1 5 11
M  V30 12 1 6 12
M  V30 13 1 7 13
M  V30 14 1 9 14
M  V30 15 1 9 15
M  V30 END BOND
M  V30 END CTAB
M  END
>  <Structure No>
1483

>  <LogS>
-1.142974365

>  <MMFF94 Energy>
20.079

$$$$
Compound 1484
Actelion Java MolfileCreator 2.0

  0  0  0  0  0  0              0 V3000
M  V30 BEGIN CTAB
M  V30 COUNTS 8 7 0 0 0
M  V30 BEGIN ATOM
M  V30 1 S 1.1989 -0.428 -1.1989 0
M  V30 2 C 0.228 -0.5874 0.3293 0
M  V30 3 C -0.8995 0.3907 0.32 0
M  V30 4 O -1.9956 0.0883 -0.2205 0
M  V30 5 O -0.7267 1.6565 0.8652 0 CHG=-1
M  V30 6 H 1.6518 0.864 -0.8692 0
M  V30 7 H -0.1693 -1.6217 0.4011 0
M  V30 8 H 0.8846 -0.3996 1.2049 0
M  V30 END ATOM
M  V30 BEGIN BOND
M  V30 1 1 1 2
M  V30 2 1 2 3
M  V30 3 2 3 4
M  V30 4 1 3 5
M  V30 5 1 1 6
M  V30 6 1 2 7
M  V30 7 1 2 8
M  V30 END BOND
M  V30 END CTAB
M  END
>  <Structure No>
1484

>  <LogS>
0.780671021

>  <MMFF94 Energy>
39.221

$$$$
Compound 1485
Actelion Java MolfileCreator 2.0

  0  0  0  0  0  0              0 V3000
M  V30 BEGIN CTAB
M  V30 COUNTS 23 22 0 0 0
M  V30 BEGIN ATOM
M  V30 1 S -2.2011 1.0593 -0.3258 0
M  V30 2 O -1.7347 1.713 0.9443 0
M  V30 3 O -3.5649 1.5863 -0.6724 0
M  V30 4 O -1.1374 1.434 -1.5716 0 CHG=-1
M  V30 5 C -2.3032 -0.7143 -0.0961 0
M  V30 6 C -0.9603 -1.4423 -0.3244 0 CFG=2
M  V30 7 O -1.192 -2.8217 -0.4656 0
M  V30 8 C 0.0637 -1.203 0.8067 0
M  V30 9 O 0.5677 0.119 0.7718 0
M  V30 10 C 1.7846 0.1729 0.0573 0
M  V30 11 C 2.1811 1.6069 -0.129 0
M  V30 12 C 3.3071 1.9331 -0.7678 0
M  V30 13 H -3.0439 -1.1024 -0.8277 0
M  V30 14 H -2.6943 -0.9293 0.9214 0
M  V30 15 H -0.526 -1.0915 -1.2839 0
M  V30 16 H -1.5842 -3.1487 0.3867 0
M  V30 17 H 0.8693 -1.9749 0.7573 0
M  V30 18 H -0.4354 -1.3562 1.7874 0
M  V30 19 H 1.6842 -0.295 -0.9483 0
M  V30 20 H 2.5854 -0.3446 0.6321 0
M  V30 21 H 1.5435 2.3975 0.2573 0
M  V30 22 H 3.5768 2.9765 -0.8948 0
M  V30 23 H 3.9644 1.1662 -1.1669 0
M  V30 END ATOM
M  V30 BEGIN BOND
M  V30 1 2 1 2
M  V30 2 2 1 3
M  V30 3 1 1 4
M  V30 4 1 1 5
M  V30 5 1 5 6
M  V30 6 1 6 7
M  V30 7 1 6 8
M  V30 8 1 8 9
M  V30 9 1 9 10
M  V30 10 1 10 11
M  V30 11 2 11 12
M  V30 12 1 5 13
M  V30 13 1 5 14
M  V30 14 1 6 15
M  V30 15 1 7 16
M  V30 16 1 8 17
M  V30 17 1 8 18
M  V30 18 1 10 19
M  V30 19 1 10 20
M  V30 20 1 11 21
M  V30 21 1 12 22
M  V30 22 1 12 23
M  V30 END BOND
M  V30 BEGIN COLLECTION
M  V30 MDLV30/STEABS ATOMS=(1 6)
M  V30 END COLLECTION
M  V30 END CTAB
M  END
>  <Structure No>
1485

>  <LogS>
0.55383995

>  <MMFF94 Energy>
11.674

$$$$
Compound 1486
Actelion Java MolfileCreator 2.0

  0  0  0  0  0  0              0 V3000
M  V30 BEGIN CTAB
M  V30 COUNTS 10 10 0 0 0
M  V30 BEGIN ATOM
M  V30 1 O 2.7312 -0.0802 -0.2407 0
M  V30 2 C 1.4773 -0.0397 -0.146 0
M  V30 3 O 0.6709 -1.1512 -0.1949 0
M  V30 4 O 0.7605 1.1212 0.0181 0
M  V30 5 C -0.6825 -0.7403 -0.0572 0
M  V30 6 C -0.6217 0.7987 0.087 0
M  V30 7 H -1.2587 -1.0321 -0.9611 0
M  V30 8 H -1.1278 -1.2067 0.8473 0
M  V30 9 H -1.1669 1.2974 -0.7426 0
M  V30 10 H -1.0359 1.1227 1.0657 0
M  V30 END ATOM
M  V30 BEGIN BOND
M  V30 1 2 1 2
M  V30 2 1 2 3
M  V30 3 1 2 4
M  V30 4 1 3 5
M  V30 5 1 4 6
M  V30 6 1 5 6
M  V30 7 1 5 7
M  V30 8 1 5 8
M  V30 9 1 6 9
M  V30 10 1 6 10
M  V30 END BOND
M  V30 END CTAB
M  END
>  <Structure No>
1486

>  <LogS>
0.946191052

>  <MMFF94 Energy>
-17.279

$$$$
Compound 1487
Actelion Java MolfileCreator 2.0

  0  0  0  0  0  0              0 V3000
M  V30 BEGIN CTAB
M  V30 COUNTS 13 12 0 0 0
M  V30 BEGIN ATOM
M  V30 1 O -0.9698 2.6687 0.0807 0
M  V30 2 C -0.0772 1.7829 0.1646 0
M  V30 3 O 1.2573 2.1629 0.0877 0 CHG=-1
M  V30 4 C -0.4368 0.3562 0.3412 0
M  V30 5 C -1.7191 -0.0291 0.357 0
M  V30 6 C 0.6524 -0.6812 0.4425 0
M  V30 7 C 1.0597 -1.1389 -0.9216 0
M  V30 8 O 0.4474 -2.0865 -1.4805 0
M  V30 9 O 2.0856 -0.4893 -1.5963 0 CHG=-1
M  V30 10 H -2.5265 0.6862 0.2653 0
M  V30 11 H -1.9838 -1.0744 0.4591 0
M  V30 12 H 0.3115 -1.5542 1.0421 0
M  V30 13 H 1.5352 -0.261 0.97 0
M  V30 END ATOM
M  V30 BEGIN BOND
M  V30 1 2 1 2
M  V30 2 1 2 3
M  V30 3 1 2 4
M  V30 4 2 4 5
M  V30 5 1 4 6
M  V30 6 1 6 7
M  V30 7 2 7 8
M  V30 8 1 7 9
M  V30 9 1 5 10
M  V30 10 1 5 11
M  V30 11 1 6 12
M  V30 12 1 6 13
M  V30 END BOND
M  V30 END CTAB
M  END
>  <Structure No>
1487

>  <LogS>
-0.225028298

>  <MMFF94 Energy>
97.228

$$$$
Compound 1488
Actelion Java MolfileCreator 2.0

  0  0  0  0  0  0              0 V3000
M  V30 BEGIN CTAB
M  V30 COUNTS 27 26 0 0 0
M  V30 BEGIN ATOM
M  V30 1 O -4.3174 -0.6158 -1.3091 0
M  V30 2 C -3.7323 -0.4269 -0.2101 0
M  V30 3 O -4.4206 -0.6424 0.978 0 CHG=-1
M  V30 4 C -2.2874 -0.0037 -0.1844 0 CFG=1
M  V30 5 N -2.1196 1.1622 0.694 0 CHG=1
M  V30 6 C -1.4156 -1.1981 0.2705 0
M  V30 7 C 0.0979 -0.9194 0.295 0
M  V30 8 C 0.6742 -0.6109 -1.0941 0
M  V30 9 N 2.1363 -0.5737 -1.0455 0
M  V30 10 C 2.9156 0.4674 -0.4258 0
M  V30 11 N 2.3686 1.5708 -0.0069 0 CHG=1
M  V30 12 N 4.3279 0.2862 -0.2895 0
M  V30 13 H -2.0004 0.2842 -1.2197 0
M  V30 14 H -2.8262 1.8955 0.4535 0
M  V30 15 H -2.2364 0.8916 1.6979 0
M  V30 16 H -1.1735 1.583 0.5548 0
M  V30 17 H -1.7252 -1.5073 1.2933 0
M  V30 18 H -1.6047 -2.0644 -0.4015 0
M  V30 19 H 0.6023 -1.8295 0.6871 0
M  V30 20 H 0.326 -0.099 1.0057 0
M  V30 21 H 0.2862 0.3478 -1.4946 0
M  V30 22 H 0.3615 -1.4127 -1.7982 0
M  V30 23 H 2.65 -1.3678 -1.4897 0
M  V30 24 H 2.9508 2.3159 0.4365 0
M  V30 25 H 1.3493 1.7641 -0.1038 0
M  V30 26 H 4.7828 -0.5923 -0.6222 0
M  V30 27 H 4.9255 1.0232 0.1466 0
M  V30 END ATOM
M  V30 BEGIN BOND
M  V30 1 2 1 2
M  V30 2 1 2 3
M  V30 3 1 2 4
M  V30 4 1 4 5
M  V30 5 1 4 6
M  V30 6 1 6 7
M  V30 7 1 7 8
M  V30 8 1 8 9
M  V30 9 1 9 10
M  V30 10 2 10 11
M  V30 11 1 10 12
M  V30 12 1 4 13
M  V30 13 1 5 14
M  V30 14 1 5 15
M  V30 15 1 5 16
M  V30 16 1 6 17
M  V30 17 1 6 18
M  V30 18 1 7 19
M  V30 19 1 7 20
M  V30 20 1 8 21
M  V30 21 1 8 22
M  V30 22 1 9 23
M  V30 23 1 11 24
M  V30 24 1 11 25
M  V30 25 1 12 26
M  V30 26 1 12 27
M  V30 END BOND
M  V30 BEGIN COLLECTION
M  V30 MDLV30/STEABS ATOMS=(1 4)
M  V30 END COLLECTION
M  V30 END CTAB
M  END
>  <Structure No>
1488

>  <LogS>
0.539730472

>  <MMFF94 Energy>
-215.55

$$$$
Compound 1489
Actelion Java MolfileCreator 2.0

  0  0  0  0  0  0              0 V3000
M  V30 BEGIN CTAB
M  V30 COUNTS 57 60 0 0 0
M  V30 BEGIN ATOM
M  V30 1 S 6.0681 2.6207 -2.4567 0
M  V30 2 O 5.1371 3.8011 -2.4755 0
M  V30 3 O 6.4048 2.2462 -3.8723 0
M  V30 4 O 7.467 3.0622 -1.6376 0 CHG=-1
M  V30 5 C 5.316 1.2375 -1.6404 0
M  V30 6 C 6.0904 -0.0191 -1.3768 0
M  V30 7 C 4.0297 1.338 -1.263 0
M  V30 8 C 5.4989 -1.0722 -0.6364 0
M  V30 9 C 7.4097 -0.183 -1.8493 0
M  V30 10 C 3.323 0.2454 -0.5741 0
M  V30 11 C 4.1143 -0.9307 -0.1407 0
M  V30 12 C 6.2318 -2.2434 -0.3739 0
M  V30 13 C 8.1229 -1.3536 -1.5834 0
M  V30 14 N 2.0461 0.3904 -0.3518 0
M  V30 15 O 3.655 -1.7624 0.6879 0
M  V30 16 C 7.5367 -2.3801 -0.8458 0
M  V30 17 N 1.1897 -0.5905 0.1801 0
M  V30 18 C -0.0882 -0.2277 0.7391 0
M  V30 19 C -0.9657 -1.2113 1.2593 0
M  V30 20 C -0.4771 1.123 0.7841 0
M  V30 21 C -2.2098 -0.8227 1.7875 0
M  V30 22 C -0.5986 -2.6719 1.2555 0
M  V30 23 C -1.7131 1.4938 1.3129 0
M  V30 24 C -2.5958 0.529 1.8111 0
M  V30 25 N -3.8766 0.9487 2.3248 0
M  V30 26 C -4.9802 0.032 2.6463 0 CFG=2
M  V30 27 C -5.4232 -0.7668 1.4369 0
M  V30 28 C -6.1684 0.7882 3.2507 0
M  V30 29 O -5.8859 -1.9232 1.6366 0
M  V30 30 C -5.3265 -0.2689 0.038 0
M  V30 31 C -5.4004 1.1033 -0.2721 0
M  V30 32 C -5.1581 -1.1909 -1.0122 0
M  V30 33 C -5.2913 1.5379 -1.5963 0
M  V30 34 C -5.0488 -0.7507 -2.3345 0
M  V30 35 C -5.1135 0.6126 -2.6262 0
M  V30 36 H 3.4699 2.2395 -1.4791 0
M  V30 37 H 7.9019 0.5828 -2.4294 0
M  V30 38 H 5.7935 -3.0568 0.1912 0
M  V30 39 H 9.1345 -1.465 -1.9517 0
M  V30 40 H 8.0936 -3.2855 -0.6423 0
M  V30 41 H 1.4112 -1.5966 0.0257 0
M  V30 42 H 0.1723 1.9001 0.4033 0
M  V30 43 H -2.8706 -1.5813 2.1832 0
M  V30 44 H -0.5079 -3.0326 0.2096 0
M  V30 45 H -1.3652 -3.2919 1.7669 0
M  V30 46 H 0.3648 -2.8207 1.7872 0
M  V30 47 H -1.9889 2.5408 1.3235 0
M  V30 48 H -4.035 1.9755 2.4493 0
M  V30 49 H -4.624 -0.6749 3.4277 0
M  V30 50 H -5.8417 1.3406 4.1571 0
M  V30 51 H -6.5963 1.5127 2.5281 0
M  V30 52 H -6.9638 0.0722 3.5497 0
M  V30 53 H -5.5523 1.8449 0.4975 0
M  V30 54 H -5.0944 -2.2528 -0.8086 0
M  V30 55 H -5.3475 2.5946 -1.8243 0
M  V30 56 H -4.9119 -1.468 -3.1331 0
M  V30 57 H -5.0291 0.952 -3.6505 0
M  V30 END ATOM
M  V30 BEGIN BOND
M  V30 1 2 1 2
M  V30 2 2 1 3
M  V30 3 1 1 4
M  V30 4 1 1 5
M  V30 5 1 5 6
M  V30 6 2 5 7
M  V30 7 2 6 8
M  V30 8 1 6 9
M  V30 9 1 7 10
M  V30 10 1 8 11
M  V30 11 1 8 12
M  V30 12 2 9 13
M  V30 13 2 10 14
M  V30 14 2 11 15
M  V30 15 2 12 16
M  V30 16 1 14 17
M  V30 17 1 17 18
M  V30 18 2 18 19
M  V30 19 1 18 20
M  V30 20 1 19 21
M  V30 21 1 19 22
M  V30 22 2 20 23
M  V30 23 2 21 24
M  V30 24 1 24 25
M  V30 25 1 25 26
M  V30 26 1 26 27
M  V30 27 1 26 28
M  V30 28 2 27 29
M  V30 29 1 27 30
M  V30 30 2 30 31
M  V30 31 1 30 32
M  V30 32 1 31 33
M  V30 33 2 32 34
M  V30 34 2 33 35
M  V30 35 1 10 11
M  V30 36 1 13 16
M  V30 37 1 23 24
M  V30 38 1 34 35
M  V30 39 1 7 36
M  V30 40 1 9 37
M  V30 41 1 12 38
M  V30 42 1 13 39
M  V30 43 1 16 40
M  V30 44 1 17 41
M  V30 45 1 20 42
M  V30 46 1 21 43
M  V30 47 1 22 44
M  V30 48 1 22 45
M  V30 49 1 22 46
M  V30 50 1 23 47
M  V30 51 1 25 48
M  V30 52 1 26 49
M  V30 53 1 28 50
M  V30 54 1 28 51
M  V30 55 1 28 52
M  V30 56 1 31 53
M  V30 57 1 32 54
M  V30 58 1 33 55
M  V30 59 1 34 56
M  V30 60 1 35 57
M  V30 END BOND
M  V30 BEGIN COLLECTION
M  V30 MDLV30/STEABS ATOMS=(1 26)
M  V30 END COLLECTION
M  V30 END CTAB
M  END
>  <Structure No>
1489

>  <LogS>
-1.812900622

>  <MMFF94 Energy>
173.62

$$$$
Compound 1490
Actelion Java MolfileCreator 2.0

  0  0  0  0  0  0              0 V3000
M  V30 BEGIN CTAB
M  V30 COUNTS 10 10 0 0 0
M  V30 BEGIN ATOM
M  V30 1 Cl 1.2358 -1.0709 -1.648 0
M  V30 2 C 1.2008 0.0404 -0.2447 0
M  V30 3 C -0.1946 0.5866 0.0882 0 CFG=1
M  V30 4 O -1.1961 0.2082 -0.8272 0
M  V30 5 C -1.2212 -0.422 0.4345 0
M  V30 6 H 1.8692 0.8968 -0.4717 0
M  V30 7 H 1.6096 -0.4863 0.6429 0
M  V30 8 H -0.3359 1.6073 0.5018 0
M  V30 9 H -2.076 -0.0624 1.0443 0
M  V30 10 H -0.9435 -1.4943 0.3541 0
M  V30 END ATOM
M  V30 BEGIN BOND
M  V30 1 1 1 2
M  V30 2 1 2 3
M  V30 3 1 3 4
M  V30 4 1 3 5
M  V30 5 1 4 5
M  V30 6 1 2 6
M  V30 7 1 2 7
M  V30 8 1 3 8
M  V30 9 1 5 9
M  V30 10 1 5 10
M  V30 END BOND
M  V30 BEGIN COLLECTION
M  V30 MDLV30/STEABS ATOMS=(1 3)
M  V30 END COLLECTION
M  V30 END CTAB
M  END
>  <Structure No>
1490

>  <LogS>
-0.147373679

>  <MMFF94 Energy>
11.357

$$$$
Compound 1491
Actelion Java MolfileCreator 2.0

  0  0  0  0  0  0              0 V3000
M  V30 BEGIN CTAB
M  V30 COUNTS 19 18 0 0 0
M  V30 BEGIN ATOM
M  V30 1 O -1.8826 1.8826 -1.7188 0
M  V30 2 C -1.1078 2.0445 -0.7397 0
M  V30 3 O -0.4601 3.2612 -0.5675 0 CHG=-1
M  V30 4 C -0.8669 0.9224 0.2214 0
M  V30 5 N -0.1084 -0.1711 -0.4272 0
M  V30 6 C 1.3003 0.1952 -0.7131 0
M  V30 7 C -0.2076 -1.4311 0.3387 0
M  V30 8 C 2.1221 0.4322 0.5254 0
M  V30 9 C -1.5222 -2.0952 0.072 0
M  V30 10 O 2.2801 1.6008 0.9674 0
M  V30 11 O 2.7041 -0.6381 1.1926 0 CHG=-1
M  V30 12 O -2.3599 -2.2425 1.0004 0
M  V30 13 O -1.8254 -2.545 -1.2065 0 CHG=-1
M  V30 14 H -1.8635 0.5585 0.5542 0
M  V30 15 H -0.3443 1.298 1.1273 0
M  V30 16 H 1.7778 -0.6116 -1.3102 0
M  V30 17 H 1.3346 1.0999 -1.3576 0
M  V30 18 H 0.5843 -2.1469 0.0262 0
M  V30 19 H -0.0804 -1.2458 1.4298 0
M  V30 END ATOM
M  V30 BEGIN BOND
M  V30 1 2 1 2
M  V30 2 1 2 3
M  V30 3 1 2 4
M  V30 4 1 4 5
M  V30 5 1 5 6
M  V30 6 1 5 7
M  V30 7 1 6 8
M  V30 8 1 7 9
M  V30 9 2 8 10
M  V30 10 1 8 11
M  V30 11 2 9 12
M  V30 12 1 9 13
M  V30 13 1 4 14
M  V30 14 1 4 15
M  V30 15 1 6 16
M  V30 16 1 6 17
M  V30 17 1 7 18
M  V30 18 1 7 19
M  V30 END BOND
M  V30 END CTAB
M  END
>  <Structure No>
1491

>  <LogS>
0.396103236

>  <MMFF94 Energy>
398.76

$$$$
Compound 1492
Actelion Java MolfileCreator 2.0

  0  0  0  0  0  0              0 V3000
M  V30 BEGIN CTAB
M  V30 COUNTS 34 35 0 0 0
M  V30 BEGIN ATOM
M  V30 1 S 4.1473 -1.5744 1.6574 0
M  V30 2 O 4.8905 -0.9188 2.7869 0
M  V30 3 O 5.1162 -2.2873 0.7568 0
M  V30 4 O 3.0818 -2.7042 2.3007 0 CHG=-1
M  V30 5 C 3.2677 -0.3489 0.7335 0
M  V30 6 C 3.9328 0.7188 0.0876 0
M  V30 7 C 1.871 -0.4449 0.6431 0
M  V30 8 N 5.3586 0.8697 0.1444 0
M  V30 9 C 3.184 1.6617 -0.6311 0
M  V30 10 C 1.1247 0.5031 -0.0788 0
M  V30 11 C 1.7897 1.5633 -0.7195 0
M  V30 12 N -0.3035 0.4045 -0.1709 0
M  V30 13 N 1.0602 2.5474 -1.464 0
M  V30 14 N -0.9593 -0.5322 0.3878 0
M  V30 15 C -2.387 -0.63 0.2951 0
M  V30 16 C -3.0514 -1.6915 0.937 0
M  V30 17 C -3.1363 0.3186 -0.4275 0
M  V30 18 O -2.3494 -2.654 1.664 0
M  V30 19 C -4.4426 -1.7947 0.8522 0
M  V30 20 C -4.536 0.2156 -0.5134 0
M  V30 21 C -5.181 -0.8518 0.1346 0
M  V30 22 N -5.2943 1.1899 -1.2544 0 CHG=1
M  V30 23 O -6.5375 1.1031 -1.3341 0
M  V30 24 O -4.6616 2.2348 -1.8885 0 CHG=-1
M  V30 25 H 1.3602 -1.2607 1.1365 0
M  V30 26 H 5.825 1.6679 -0.3417 0
M  V30 27 H 5.9745 0.2061 0.6603 0
M  V30 28 H 3.6914 2.4807 -1.1268 0
M  V30 29 H 0.0206 2.5082 -1.553 0
M  V30 30 H 1.5588 3.3332 -1.9383 0
M  V30 31 H -2.6294 1.1365 -0.9225 0
M  V30 32 H -1.3415 -2.6323 1.7614 0
M  V30 33 H -4.9545 -2.6112 1.3458 0
M  V30 34 H -6.2573 -0.9582 0.0867 0
M  V30 END ATOM
M  V30 BEGIN BOND
M  V30 1 2 1 2
M  V30 2 2 1 3
M  V30 3 1 1 4
M  V30 4 1 1 5
M  V30 5 2 5 6
M  V30 6 1 5 7
M  V30 7 1 6 8
M  V30 8 1 6 9
M  V30 9 2 7 10
M  V30 10 2 9 11
M  V30 11 1 10 12
M  V30 12 1 11 13
M  V30 13 2 12 14
M  V30 14 1 14 15
M  V30 15 2 15 16
M  V30 16 1 15 17
M  V30 17 1 16 18
M  V30 18 1 16 19
M  V30 19 2 17 20
M  V30 20 2 19 21
M  V30 21 1 20 22
M  V30 22 2 22 23
M  V30 23 1 22 24
M  V30 24 1 10 11
M  V30 25 1 20 21
M  V30 26 1 7 25
M  V30 27 1 8 26
M  V30 28 1 8 27
M  V30 29 1 9 28
M  V30 30 1 13 29
M  V30 31 1 13 30
M  V30 32 1 17 31
M  V30 33 1 18 32
M  V30 34 1 19 33
M  V30 35 1 21 34
M  V30 END BOND
M  V30 END CTAB
M  END
>  <Structure No>
1492

>  <LogS>
-0.763942094

>  <MMFF94 Energy>
119.28

$$$$
Compound 1493
Actelion Java MolfileCreator 2.0

  0  0  0  0  0  0              0 V3000
M  V30 BEGIN CTAB
M  V30 COUNTS 26 27 0 0 0
M  V30 BEGIN ATOM
M  V30 1 N 0.0787 2.2057 1.0236 0 CHG=1
M  V30 2 C 0.0318 1.0255 0.4745 0
M  V30 3 C 1.285 0.2517 0.2681 0
M  V30 4 C -1.2747 0.4526 0.0542 0
M  V30 5 C 1.3061 -1.1375 0.4918 0
M  V30 6 C 2.4638 0.8918 -0.1578 0
M  V30 7 C -1.3793 -0.2668 -1.1506 0
M  V30 8 C -2.4218 0.6147 0.8535 0
M  V30 9 C 2.4818 -1.8682 0.2955 0
M  V30 10 C 3.637 0.1561 -0.3529 0
M  V30 11 C -2.6056 -0.8094 -1.5467 0
M  V30 12 C -3.6457 0.0697 0.4528 0
M  V30 13 C 3.6462 -1.222 -0.1259 0
M  V30 14 C -3.7378 -0.6409 -0.7462 0
M  V30 15 H -0.7814 2.7853 1.1463 0
M  V30 16 H 0.978 2.6156 1.3613 0
M  V30 17 H 0.4157 -1.6546 0.8281 0
M  V30 18 H 2.4737 1.9558 -0.358 0
M  V30 19 H -0.5149 -0.3997 -1.7893 0
M  V30 20 H -2.3685 1.1454 1.7959 0
M  V30 21 H 2.4902 -2.936 0.4721 0
M  V30 22 H 4.5386 0.6548 -0.6845 0
M  V30 23 H -2.6782 -1.3593 -2.4762 0
M  V30 24 H -4.5227 0.195 1.0749 0
M  V30 25 H 4.5553 -1.7895 -0.278 0
M  V30 26 H -4.6861 -1.0623 -1.0542 0
M  V30 END ATOM
M  V30 BEGIN BOND
M  V30 1 2 1 2
M  V30 2 1 2 3
M  V30 3 1 2 4
M  V30 4 2 3 5
M  V30 5 1 3 6
M  V30 6 2 4 7
M  V30 7 1 4 8
M  V30 8 1 5 9
M  V30 9 2 6 10
M  V30 10 1 7 11
M  V30 11 2 8 12
M  V30 12 2 9 13
M  V30 13 2 11 14
M  V30 14 1 10 13
M  V30 15 1 12 14
M  V30 16 1 1 15
M  V30 17 1 1 16
M  V30 18 1 5 17
M  V30 19 1 6 18
M  V30 20 1 7 19
M  V30 21 1 8 20
M  V30 22 1 9 21
M  V30 23 1 10 22
M  V30 24 1 11 23
M  V30 25 1 12 24
M  V30 26 1 13 25
M  V30 27 1 14 26
M  V30 END BOND
M  V30 END CTAB
M  END
>  <Structure No>
1493

>  <LogS>
-2.781128006

>  <MMFF94 Energy>
75.23

$$$$
Compound 1494
Actelion Java MolfileCreator 2.0

  0  0  0  0  0  0              0 V3000
M  V30 BEGIN CTAB
M  V30 COUNTS 8 7 0 0 0
M  V30 BEGIN ATOM
M  V30 1 S 1.6274 0.2568 0.6849 0
M  V30 2 C 0.1851 -0.6026 -0.0109 0
M  V30 3 C -1.0229 0.2683 0.0894 0
M  V30 4 O -1.3289 1.0388 -0.8581 0
M  V30 5 O -1.7866 0.2667 1.2496 0 CHG=-1
M  V30 6 H 1.6358 1.2312 -0.3318 0
M  V30 7 H 0.3854 -0.8629 -1.0721 0
M  V30 8 H 0.0148 -1.5411 0.5569 0
M  V30 END ATOM
M  V30 BEGIN BOND
M  V30 1 1 1 2
M  V30 2 1 2 3
M  V30 3 2 3 4
M  V30 4 1 3 5
M  V30 5 1 1 6
M  V30 6 1 2 7
M  V30 7 1 2 8
M  V30 END BOND
M  V30 END CTAB
M  END
>  <Structure No>
1494

>  <LogS>
0.727399149

>  <MMFF94 Energy>
39.221

$$$$
Compound 1495
Actelion Java MolfileCreator 2.0

  0  0  0  0  0  0              0 V3000
M  V30 BEGIN CTAB
M  V30 COUNTS 28 27 0 0 0
M  V30 BEGIN ATOM
M  V30 1 O 2.3546 2.4332 0.3137 0
M  V30 2 C 2.7614 1.2532 0.4798 0
M  V30 3 O 3.6523 0.9712 1.5076 0 CHG=-1
M  V30 4 C 2.2679 0.1515 -0.4085 0
M  V30 5 C 1.2701 -0.7867 0.3123 0 CFG=1
M  V30 6 C 0.0087 -0.0882 0.9171 0
M  V30 7 C 0.957 -2.0149 -0.5483 0
M  V30 8 C -1.2134 0.3315 0.023 0
M  V30 9 C -2.0961 1.2836 0.8648 0
M  V30 10 C -0.7929 1.0862 -1.2516 0
M  V30 11 C -2.0876 -0.8845 -0.3627 0
M  V30 12 H 3.1545 -0.4415 -0.7219 0
M  V30 13 H 1.8423 0.5752 -1.337 0
M  V30 14 H 1.8253 -1.1877 1.1915 0
M  V30 15 H 0.3647 0.8068 1.4711 0
M  V30 16 H -0.3787 -0.7593 1.7163 0
M  V30 17 H 0.2077 -2.662 -0.0451 0
M  V30 18 H 1.8793 -2.6182 -0.6895 0
M  V30 19 H 0.5975 -1.7194 -1.5541 0
M  V30 20 H -3.0014 1.5973 0.3005 0
M  V30 21 H -2.4295 0.7842 1.8007 0
M  V30 22 H -1.5346 2.2025 1.1415 0
M  V30 23 H -1.6835 1.5077 -1.7665 0
M  V30 24 H -0.1131 1.9282 -1.0023 0
M  V30 25 H -0.2998 0.4085 -1.9761 0
M  V30 26 H -1.6086 -1.5189 -1.1308 0
M  V30 27 H -2.3134 -1.5093 0.5279 0
M  V30 28 H -3.054 -0.5486 -0.7978 0
M  V30 END ATOM
M  V30 BEGIN BOND
M  V30 1 2 1 2
M  V30 2 1 2 3
M  V30 3 1 2 4
M  V30 4 1 4 5
M  V30 5 1 5 6
M  V30 6 1 5 7
M  V30 7 1 6 8
M  V30 8 1 8 9
M  V30 9 1 8 10
M  V30 10 1 8 11
M  V30 11 1 4 12
M  V30 12 1 4 13
M  V30 13 1 5 14
M  V30 14 1 6 15
M  V30 15 1 6 16
M  V30 16 1 7 17
M  V30 17 1 7 18
M  V30 18 1 7 19
M  V30 19 1 9 20
M  V30 20 1 9 21
M  V30 21 1 9 22
M  V30 22 1 10 23
M  V30 23 1 10 24
M  V30 24 1 10 25
M  V30 25 1 11 26
M  V30 26 1 11 27
M  V30 27 1 11 28
M  V30 END BOND
M  V30 BEGIN COLLECTION
M  V30 MDLV30/STEABS ATOMS=(1 5)
M  V30 END COLLECTION
M  V30 END CTAB
M  END
>  <Structure No>
1495

>  <LogS>
0.485162372

>  <MMFF94 Energy>
24.954

$$$$
Compound 1496
Actelion Java MolfileCreator 2.0

  0  0  0  0  0  0              0 V3000
M  V30 BEGIN CTAB
M  V30 COUNTS 20 20 0 0 0
M  V30 BEGIN ATOM
M  V30 1 S 2.6225 -1.0991 0.169 0
M  V30 2 O 3.3623 -0.6267 -1.0504 0
M  V30 3 O 2.6192 -2.6021 0.1813 0
M  V30 4 O 3.402 -0.5543 1.5539 0 CHG=-1
M  V30 5 C 0.9678 -0.4747 0.1373 0
M  V30 6 C 0.7023 0.914 0.1554 0
M  V30 7 C -0.1021 -1.3819 0.0943 0
M  V30 8 O 1.7322 1.8584 0.1943 0
M  V30 9 C -0.6288 1.3694 0.1329 0
M  V30 10 C -1.4312 -0.9323 0.071 0
M  V30 11 N -0.9208 2.7721 0.1515 0
M  V30 12 C -1.6829 0.4483 0.091 0
M  V30 13 N -2.5184 -1.8758 0.0273 0 CHG=1
M  V30 14 O -3.7033 -1.4823 0.0063 0
M  V30 15 O -2.2705 -3.2292 0.0076 0 CHG=-1
M  V30 16 H 0.0997 -2.4442 0.0792 0
M  V30 17 H 2.7135 1.6171 0.2064 0
M  V30 18 H -1.9086 3.1111 0.1345 0
M  V30 19 H -0.1613 3.4876 0.1827 0
M  V30 20 H -2.7021 0.8138 0.0738 0
M  V30 END ATOM
M  V30 BEGIN BOND
M  V30 1 2 1 2
M  V30 2 2 1 3
M  V30 3 1 1 4
M  V30 4 1 1 5
M  V30 5 2 5 6
M  V30 6 1 5 7
M  V30 7 1 6 8
M  V30 8 1 6 9
M  V30 9 2 7 10
M  V30 10 1 9 11
M  V30 11 2 9 12
M  V30 12 1 10 13
M  V30 13 2 13 14
M  V30 14 1 13 15
M  V30 15 1 10 12
M  V30 16 1 7 16
M  V30 17 1 8 17
M  V30 18 1 11 18
M  V30 19 1 11 19
M  V30 20 1 12 20
M  V30 END BOND
M  V30 END CTAB
M  END
>  <Structure No>
1496

>  <LogS>
-0.994056687

>  <MMFF94 Energy>
41.913

$$$$
Compound 1497
Actelion Java MolfileCreator 2.0

  0  0  0  0  0  0              0 V3000
M  V30 BEGIN CTAB
M  V30 COUNTS 68 72 0 0 0
M  V30 BEGIN ATOM
M  V30 1 S 1.4945 -1.4945 -1.993 0
M  V30 2 O 2.2842 -1.4153 -3.2708 0
M  V30 3 O 0.2878 -0.6107 -2.1397 0
M  V30 4 O 1.0121 -3.0862 -1.7557 0 CHG=-1
M  V30 5 C 2.4994 -0.9472 -0.6346 0
M  V30 6 C 1.949 -0.1542 0.5152 0
M  V30 7 C 3.8314 -1.0786 -0.7674 0
M  V30 8 N 0.7176 -0.2294 0.9384 0
M  V30 9 C 2.8761 0.7162 1.2628 0
M  V30 10 C 4.7901 -0.3722 0.1116 0
M  V30 11 N -0.2155 -1.1989 0.5388 0
M  V30 12 O 2.4291 1.5547 2.0948 0
M  V30 13 C 4.3303 0.5417 1.0775 0
M  V30 14 C 6.1686 -0.5588 -0.0695 0
M  V30 15 C -1.6222 -0.9053 0.4797 0
M  V30 16 C 5.2568 1.2433 1.8658 0
M  V30 17 C 7.0944 0.162 0.6969 0
M  V30 18 C -2.5272 -1.8876 0.0348 0
M  V30 19 C -2.0978 0.374 0.8143 0
M  V30 20 C 6.6284 1.0498 1.6807 0
M  V30 21 N 8.5003 -0.0707 0.5071 0
M  V30 22 O -2.0347 -3.1598 -0.3001 0
M  V30 23 C -3.894 -1.5706 -0.0772 0
M  V30 24 C -3.461 0.6872 0.7078 0
M  V30 25 C 9.5213 0.9358 0.6331 0
M  V30 26 C -2.8337 -4.2383 -0.7786 0
M  V30 27 C -4.3642 -0.2856 0.2428 0
M  V30 28 C -3.9414 2.0708 1.0507 0
M  V30 29 C 9.2484 2.296 0.3897 0
M  V30 30 C 10.8365 0.5467 0.9335 0
M  V30 31 N -5.7461 0.0606 0.067 0
M  V30 32 C 10.2685 3.2469 0.4857 0
M  V30 33 C 11.8538 1.5009 1.0251 0
M  V30 34 N -6.6206 -0.7859 -0.3047 0
M  V30 35 C 11.5691 2.851 0.8067 0
M  V30 36 C -7.9912 -0.4238 -0.5109 0
M  V30 37 C -8.9097 -1.4194 -0.8619 0
M  V30 38 C -8.4289 0.9074 -0.3891 0
M  V30 39 C -10.2502 -1.0952 -1.093 0
M  V30 40 C -9.7687 1.2321 -0.6246 0
M  V30 41 C -10.6842 0.2318 -0.9817 0
M  V30 42 S -12.3747 0.621 -1.2825 0
M  V30 43 O -12.7566 0.1596 -2.66 0
M  V30 44 O -12.599 2.1039 -1.1848 0
M  V30 45 O -13.3349 -0.1535 -0.143 0 CHG=-1
M  V30 46 H 4.2314 -1.6486 -1.5979 0
M  V30 47 H 0.1161 -2.1742 0.3759 0
M  V30 48 H 6.5258 -1.2519 -0.8219 0
M  V30 49 H 4.9218 1.9331 2.6307 0
M  V30 50 H -1.4043 1.135 1.1487 0
M  V30 51 H 7.3246 1.5807 2.3166 0
M  V30 52 H 8.7982 -1.0372 0.242 0
M  V30 53 H -4.5936 -2.3138 -0.4321 0
M  V30 54 H -3.325 -3.955 -1.734 0
M  V30 55 H -2.1817 -5.1154 -0.965 0
M  V30 56 H -3.5968 -4.5154 -0.0195 0
M  V30 57 H -4.8004 2.0107 1.751 0
M  V30 58 H -4.2625 2.5922 0.1252 0
M  V30 59 H -3.1441 2.6729 1.5378 0
M  V30 60 H 8.2559 2.6214 0.106 0
M  V30 61 H 11.0723 -0.4968 1.0998 0
M  V30 62 H 10.0519 4.2917 0.3014 0
M  V30 63 H 12.8644 1.1926 1.2587 0
M  V30 64 H 12.358 3.5889 0.8748 0
M  V30 65 H -8.5841 -2.4478 -0.9594 0
M  V30 66 H -7.7361 1.6946 -0.1215 0
M  V30 67 H -10.9484 -1.8778 -1.3605 0
M  V30 68 H -10.0856 2.2624 -0.5318 0
M  V30 END ATOM
M  V30 BEGIN BOND
M  V30 1 2 1 2
M  V30 2 2 1 3
M  V30 3 1 1 4
M  V30 4 1 1 5
M  V30 5 1 5 6
M  V30 6 2 5 7
M  V30 7 2 6 8
M  V30 8 1 6 9
M  V30 9 1 7 10
M  V30 10 1 8 11
M  V30 11 2 9 12
M  V30 12 1 9 13
M  V30 13 1 10 14
M  V30 14 1 11 15
M  V30 15 1 13 16
M  V30 16 2 14 17
M  V30 17 2 15 18
M  V30 18 1 15 19
M  V30 19 2 16 20
M  V30 20 1 17 21
M  V30 21 1 18 22
M  V30 22 1 18 23
M  V30 23 2 19 24
M  V30 24 1 21 25
M  V30 25 1 22 26
M  V30 26 2 23 27
M  V30 27 1 24 28
M  V30 28 2 25 29
M  V30 29 1 25 30
M  V30 30 1 27 31
M  V30 31 1 29 32
M  V30 32 2 30 33
M  V30 33 2 31 34
M  V30 34 2 32 35
M  V30 35 1 34 36
M  V30 36 2 36 37
M  V30 37 1 36 38
M  V30 38 1 37 39
M  V30 39 2 38 40
M  V30 40 2 39 41
M  V30 41 1 41 42
M  V30 42 2 42 43
M  V30 43 2 42 44
M  V30 44 1 42 45
M  V30 45 2 10 13
M  V30 46 1 17 20
M  V30 47 1 24 27
M  V30 48 1 33 35
M  V30 49 1 40 41
M  V30 50 1 7 46
M  V30 51 1 11 47
M  V30 52 1 14 48
M  V30 53 1 16 49
M  V30 54 1 19 50
M  V30 55 1 20 51
M  V30 56 1 21 52
M  V30 57 1 23 53
M  V30 58 1 26 54
M  V30 59 1 26 55
M  V30 60 1 26 56
M  V30 61 1 28 57
M  V30 62 1 28 58
M  V30 63 1 28 59
M  V30 64 1 29 60
M  V30 65 1 30 61
M  V30 66 1 32 62
M  V30 67 1 33 63
M  V30 68 1 35 64
M  V30 69 1 37 65
M  V30 70 1 38 66
M  V30 71 1 39 67
M  V30 72 1 40 68
M  V30 END BOND
M  V30 END CTAB
M  END
>  <Structure No>
1497

>  <LogS>
-2.045401474

>  <MMFF94 Energy>
190.71

$$$$
Compound 1498
Actelion Java MolfileCreator 2.0

  0  0  0  0  0  0              0 V3000
M  V30 BEGIN CTAB
M  V30 COUNTS 65 69 0 0 0
M  V30 BEGIN ATOM
M  V30 1 S 1.9168 -2.5007 -0.833 0
M  V30 2 O 2.0572 -3.9942 -0.9356 0
M  V30 3 O 2.7724 -2.0391 0.314 0
M  V30 4 O 2.4623 -1.8416 -2.2777 0 CHG=-1
M  V30 5 C 0.2172 -2.0476 -0.5512 0
M  V30 6 C -0.2517 -0.6442 -0.2552 0
M  V30 7 C -0.6856 -3.0462 -0.5614 0
M  V30 8 N 0.5156 0.4074 -0.1465 0
M  V30 9 C -1.6951 -0.4214 -0.0218 0
M  V30 10 C -2.1188 -2.8529 -0.2479 0
M  V30 11 N 1.8847 0.4803 -0.4285 0
M  V30 12 O -2.1197 0.7628 0.0831 0
M  V30 13 C -2.6294 -1.5726 0.0428 0
M  V30 14 C -2.9671 -3.9704 -0.227 0
M  V30 15 C 2.8051 1.0018 0.5447 0
M  V30 16 C -4.0088 -1.4296 0.3522 0
M  V30 17 C -4.3211 -3.8309 0.0893 0
M  V30 18 C 4.0972 1.41 0.1576 0
M  V30 19 C 2.445 1.0423 1.9043 0
M  V30 20 N -4.5666 -0.1549 0.7086 0
M  V30 21 C -4.836 -2.5642 0.3751 0
M  V30 22 S -5.375 -5.2432 0.1217 0
M  V30 23 O 4.4461 1.397 -1.203 0
M  V30 24 C 5.0062 1.8525 1.1391 0
M  V30 25 C 3.3562 1.4843 2.8665 0
M  V30 26 C -5.7223 0.3938 0.0488 0
M  V30 27 O -6.4883 -5.0268 1.1084 0
M  V30 28 O -4.5914 -6.4554 0.5396 0
M  V30 29 O -6.0227 -5.4962 -1.4074 0 CHG=-1
M  V30 30 C 5.7633 1.3452 -1.6712 0
M  V30 31 C 4.6347 1.8896 2.4845 0
M  V30 32 O -6.3315 -0.2926 -0.8183 0
M  V30 33 C -6.2173 1.756 0.3668 0
M  V30 34 C 6.5909 0.228 -1.4198 0
M  V30 35 C 6.2558 2.4212 -2.4208 0
M  V30 36 C -5.3667 2.7375 0.9129 0
M  V30 37 C -7.5541 2.0977 0.0881 0
M  V30 38 C 7.9205 0.2427 -1.8722 0
M  V30 39 C 6.0779 -0.965 -0.6627 0
M  V30 40 C 7.5754 2.417 -2.8788 0
M  V30 41 C -5.8528 4.0191 1.1912 0
M  V30 42 C -8.0352 3.3796 0.3725 0
M  V30 43 C 8.4087 1.3324 -2.5986 0
M  V30 44 C -7.1861 4.3389 0.926 0
M  V30 45 H -0.3644 -4.0563 -0.7781 0
M  V30 46 H 2.1799 0.4034 -1.4243 0
M  V30 47 H -2.5711 -4.954 -0.4507 0
M  V30 48 H 1.4628 0.717 2.2244 0
M  V30 49 H -4.1236 0.3608 1.5012 0
M  V30 50 H -5.8821 -2.4607 0.6361 0
M  V30 51 H 5.9982 2.1844 0.8619 0
M  V30 52 H 3.0709 1.5075 3.9104 0
M  V30 53 H 5.3377 2.2358 3.2324 0
M  V30 54 H 5.6187 3.2711 -2.6305 0
M  V30 55 H -4.3217 2.5334 1.1023 0
M  V30 56 H -8.2297 1.3704 -0.3426 0
M  V30 57 H 8.576 -0.5948 -1.6716 0
M  V30 58 H 6.6482 -1.8803 -0.9291 0
M  V30 59 H 5.0132 -1.1492 -0.9104 0
M  V30 60 H 6.1775 -0.7848 0.4284 0
M  V30 61 H 7.9546 3.257 -3.4471 0
M  V30 62 H -5.1929 4.7665 1.6099 0
M  V30 63 H -9.0659 3.6291 0.1597 0
M  V30 64 H 9.4326 1.333 -2.9486 0
M  V30 65 H -7.5591 5.3328 1.1424 0
M  V30 END ATOM
M  V30 BEGIN BOND
M  V30 1 2 1 2
M  V30 2 2 1 3
M  V30 3 1 1 4
M  V30 4 1 1 5
M  V30 5 1 5 6
M  V30 6 2 5 7
M  V30 7 2 6 8
M  V30 8 1 6 9
M  V30 9 1 7 10
M  V30 10 1 8 11
M  V30 11 2 9 12
M  V30 12 1 9 13
M  V30 13 1 10 14
M  V30 14 1 11 15
M  V30 15 1 13 16
M  V30 16 2 14 17
M  V30 17 2 15 18
M  V30 18 1 15 19
M  V30 19 1 16 20
M  V30 20 2 16 21
M  V30 21 1 17 22
M  V30 22 1 18 23
M  V30 23 1 18 24
M  V30 24 2 19 25
M  V30 25 1 20 26
M  V30 26 2 22 27
M  V30 27 2 22 28
M  V30 28 1 22 29
M  V30 29 1 23 30
M  V30 30 2 24 31
M  V30 31 2 26 32
M  V30 32 1 26 33
M  V30 33 2 30 34
M  V30 34 1 30 35
M  V30 35 2 33 36
M  V30 36 1 33 37
M  V30 37 1 34 38
M  V30 38 1 34 39
M  V30 39 2 35 40
M  V30 40 1 36 41
M  V30 41 2 37 42
M  V30 42 2 38 43
M  V30 43 2 41 44
M  V30 44 2 10 13
M  V30 45 1 17 21
M  V30 46 1 25 31
M  V30 47 1 40 43
M  V30 48 1 42 44
M  V30 49 1 7 45
M  V30 50 1 11 46
M  V30 51 1 14 47
M  V30 52 1 19 48
M  V30 53 1 20 49
M  V30 54 1 21 50
M  V30 55 1 24 51
M  V30 56 1 25 52
M  V30 57 1 31 53
M  V30 58 1 35 54
M  V30 59 1 36 55
M  V30 60 1 37 56
M  V30 61 1 38 57
M  V30 62 1 39 58
M  V30 63 1 39 59
M  V30 64 1 39 60
M  V30 65 1 40 61
M  V30 66 1 41 62
M  V30 67 1 42 63
M  V30 68 1 43 64
M  V30 69 1 44 65
M  V30 END BOND
M  V30 END CTAB
M  END
>  <Structure No>
1498

>  <LogS>
-2.050671467

>  <MMFF94 Energy>
194.71

$$$$
Compound 1499
Actelion Java MolfileCreator 2.0

  0  0  0  0  0  0              0 V3000
M  V30 BEGIN CTAB
M  V30 COUNTS 27 27 0 0 0
M  V30 BEGIN ATOM
M  V30 1 S 3.7793 0.8207 -0.2461 0
M  V30 2 O 3.5632 0.5335 -1.7053 0
M  V30 3 O 5.2513 0.7769 0.0515 0
M  V30 4 O 3.1962 2.3544 0.1148 0 CHG=-1
M  V30 5 C 2.9436 -0.4025 0.7593 0
M  V30 6 C 1.5539 -0.7727 0.2216 0
M  V30 7 C 0.5346 0.366 0.3742 0
M  V30 8 N -0.8009 -0.0704 -0.0894 0
M  V30 9 C -1.5856 1.0826 -0.5709 0
M  V30 10 C -1.5448 -0.7568 0.9868 0
M  V30 11 C -2.982 0.6194 -1.0051 0
M  V30 12 C -2.9394 -1.149 0.4844 0
M  V30 13 O -3.6598 -0.0055 0.0675 0
M  V30 14 H 3.5708 -1.3191 0.7748 0
M  V30 15 H 2.8655 -0.0285 1.8024 0
M  V30 16 H 1.2038 -1.6603 0.7879 0
M  V30 17 H 1.6266 -1.0702 -0.8467 0
M  V30 18 H 0.8937 1.2186 -0.2422 0
M  V30 19 H 0.5019 0.7172 1.4309 0
M  V30 20 H -1.6822 1.8552 0.2263 0
M  V30 21 H -1.0831 1.5414 -1.4507 0
M  V30 22 H -1.6531 -0.0986 1.8793 0
M  V30 23 H -1.015 -1.6823 1.2944 0
M  V30 24 H -2.9111 -0.0634 -1.8822 0
M  V30 25 H -3.5689 1.5064 -1.3241 0
M  V30 26 H -3.4954 -1.6325 1.3151 0
M  V30 27 H -2.8621 -1.8939 -0.3401 0
M  V30 END ATOM
M  V30 BEGIN BOND
M  V30 1 2 1 2
M  V30 2 2 1 3
M  V30 3 1 1 4
M  V30 4 1 1 5
M  V30 5 1 5 6
M  V30 6 1 6 7
M  V30 7 1 7 8
M  V30 8 1 8 9
M  V30 9 1 8 10
M  V30 10 1 9 11
M  V30 11 1 10 12
M  V30 12 1 11 13
M  V30 13 1 12 13
M  V30 14 1 5 14
M  V30 15 1 5 15
M  V30 16 1 6 16
M  V30 17 1 6 17
M  V30 18 1 7 18
M  V30 19 1 7 19
M  V30 20 1 9 20
M  V30 21 1 9 21
M  V30 22 1 10 22
M  V30 23 1 10 23
M  V30 24 1 11 24
M  V30 25 1 11 25
M  V30 26 1 12 26
M  V30 27 1 12 27
M  V30 END BOND
M  V30 END CTAB
M  END
>  <Structure No>
1499

>  <LogS>
0.455782507

>  <MMFF94 Energy>
53.592

$$$$
Compound 1500
Actelion Java MolfileCreator 2.0

  0  0  0  0  0  0              0 V3000
M  V30 BEGIN CTAB
M  V30 COUNTS 136 145 0 0 0
M  V30 BEGIN ATOM
M  V30 1 Cl -6.9314 -5.8027 3.7214 0
M  V30 2 C -6.1991 -4.4527 2.8818 0
M  V30 3 N -4.8603 -4.2657 2.9311 0
M  V30 4 N -6.9747 -3.5748 2.208 0
M  V30 5 C -4.2874 -3.2145 2.2914 0
M  V30 6 C -6.4231 -2.5142 1.5579 0
M  V30 7 N -5.0712 -2.3313 1.6068 0
M  V30 8 N -2.8731 -3.0119 2.4403 0
M  V30 9 N -7.2682 -1.5538 0.8998 0
M  V30 10 C -2.1353 -1.9035 1.917 0
M  V30 11 C -8.7051 -1.6423 0.9793 0
M  V30 12 C -2.2045 -1.5451 0.5589 0
M  V30 13 C -1.2121 -1.2607 2.7534 0
M  V30 14 C -9.4561 -0.5421 1.4274 0
M  V30 15 C -9.3599 -2.8507 0.7195 0
M  V30 16 C -1.3268 -0.5802 0.0309 0
M  V30 17 C -0.3697 -0.2763 2.2489 0
M  V30 18 C -10.8128 -0.6912 1.8022 0
M  V30 19 C -10.7039 -3.0067 1.0465 0
M  V30 20 S -1.377 -0.239 -1.7037 0
M  V30 21 C -0.3978 0.0593 0.8924 0
M  V30 22 N -11.5595 0.394 2.4009 0
M  V30 23 C -11.429 -1.9568 1.6198 0
M  V30 24 O 0.018 -0.17 -2.2578 0
M  V30 25 O -2.0765 1.0709 -1.9416 0
M  V30 26 O -2.2018 -1.4633 -2.5102 0 CHG=-1
M  V30 27 C 0.5793 1.0661 0.4174 0
M  V30 28 C -11.0548 1.7028 2.7225 0
M  V30 29 N -12.678 -2.2926 2.2477 0
M  V30 30 C 1.9733 0.8208 0.4338 0
M  V30 31 C 0.1068 2.3365 0.0599 0
M  V30 32 O -9.8696 1.8617 3.1267 0
M  V30 33 N -11.9118 2.8364 2.6121 0
M  V30 34 N -13.8395 -1.8503 1.9433 0
M  V30 35 S 2.6481 -0.7656 0.8258 0
M  V30 36 C 2.8622 1.8738 0.1663 0
M  V30 37 C 1.0036 3.3721 -0.2201 0
M  V30 38 C -14.1972 -0.9864 0.851 0
M  V30 39 O 2.8267 -0.8884 2.3124 0
M  V30 40 O 3.9873 -0.9216 0.1565 0
M  V30 41 O 1.6397 -1.9918 0.2717 0 CHG=-1
M  V30 42 C 2.3853 3.1553 -0.1306 0
M  V30 43 C -15.2769 -0.1027 1.024 0
M  V30 44 C -13.6131 -1.1197 -0.4168 0
M  V30 45 N 3.2825 4.2668 -0.2758 0
M  V30 46 S -16.0733 0.0519 2.5963 0
M  V30 47 C -15.7488 0.6503 -0.0531 0
M  V30 48 C -14.079 -0.3684 -1.5209 0
M  V30 49 C 4.2623 4.5335 0.7317 0
M  V30 50 O -15.0752 0.5192 3.6205 0
M  V30 51 O -16.6328 -1.2811 3.0089 0
M  V30 52 O -17.3266 1.1673 2.5177 0 CHG=-1
M  V30 53 C -15.1712 0.5159 -1.3223 0
M  V30 54 C -13.5209 -0.493 -2.8199 0
M  V30 55 N 4.1342 5.6437 1.5053 0
M  V30 56 N 5.2844 3.6643 0.9567 0
M  V30 57 C -15.6975 1.2381 -2.3992 0
M  V30 58 S -12.142 -1.5494 -3.1543 0
M  V30 59 C -14.0769 0.2363 -3.8829 0
M  V30 60 C 5.0003 5.8679 2.5223 0
M  V30 61 C 6.1636 3.8992 1.9666 0
M  V30 62 C -15.1581 1.1 -3.6772 0
M  V30 63 O -11.694 -1.3919 -4.5804 0
M  V30 64 O -12.5368 -2.9809 -2.9263 0
M  V30 65 O -10.8618 -1.1433 -2.1464 0 CHG=-1
M  V30 66 Cl 4.8074 7.2797 3.5412 0
M  V30 67 N 6.0087 4.9913 2.7557 0
M  V30 68 N 7.2545 3.0102 2.2128 0
M  V30 69 S -15.8677 1.97 -5.0329 0
M  V30 70 C 7.9024 2.2653 1.179 0
M  V30 71 O -14.8085 2.2647 -6.0621 0
M  V30 72 O -16.4474 3.2694 -4.553 0
M  V30 73 O -17.0779 1.0353 -5.7255 0 CHG=-1
M  V30 74 C 9.1496 2.6957 0.7185 0
M  V30 75 C 7.4062 1.0185 0.7654 0
M  V30 76 C 9.9382 1.866 -0.0875 0
M  V30 77 C 8.1987 0.1651 -0.0165 0
M  V30 78 N 11.2005 2.3273 -0.5888 0
M  V30 79 C 9.4916 0.5635 -0.3982 0
M  V30 80 C 12.2301 2.8581 0.2489 0
M  V30 81 N 10.4275 -0.4146 -0.861 0
M  V30 82 O 12.0705 2.929 1.5004 0
M  V30 83 N 13.464 3.2918 -0.3225 0
M  V30 84 N 11.5459 -0.4772 -0.2594 0
M  V30 85 C 12.6105 -1.3369 -0.6706 0
M  V30 86 C 13.2318 -2.1577 0.2839 0
M  V30 87 C 13.2457 -1.086 -1.8976 0
M  V30 88 S 12.4119 -2.5372 1.802 0
M  V30 89 C 14.5131 -2.6607 0.0433 0
M  V30 90 C 14.5498 -1.5636 -2.1421 0
M  V30 91 O 11.0753 -3.1568 1.4957 0
M  V30 92 O 12.2135 -1.2838 2.607 0
M  V30 93 O 13.3209 -3.6296 2.694 0 CHG=-1
M  V30 94 C 15.1954 -2.3279 -1.133 0
M  V30 95 C 15.2636 -1.2345 -3.3234 0
M  V30 96 C 16.5352 -2.7073 -1.2899 0
M  V30 97 S 14.517 -0.3553 -4.6679 0
M  V30 98 C 16.6135 -1.6012 -3.4401 0
M  V30 99 C 17.2543 -2.3092 -2.4216 0
M  V30 100 O 14.1382 1.0354 -4.2242 0
M  V30 101 O 13.288 -1.0921 -5.1327 0
M  V30 102 O 15.5893 -0.2424 -5.9596 0 CHG=-1
M  V30 103 S 18.9751 -2.6583 -2.5568 0
M  V30 104 O 19.5174 -3.1479 -1.2433 0
M  V30 105 O 19.7076 -1.4009 -2.9413 0
M  V30 106 O 19.2264 -3.8375 -3.7302 0 CHG=-1
M  V30 107 H -2.3912 -3.6075 3.1568 0
M  V30 108 H -6.8404 -0.6543 0.5896 0
M  V30 109 H -2.9015 -2.0615 -0.0872 0
M  V30 110 H -1.136 -1.5367 3.7976 0
M  V30 111 H -8.9423 0.3959 1.5479 0
M  V30 112 H -8.8152 -3.6979 0.3262 0
M  V30 113 H 0.3302 0.2105 2.9176 0
M  V30 114 H -11.1709 -3.9792 0.9206 0
M  V30 115 H -12.581 0.2716 2.5687 0
M  V30 116 H -0.9553 2.5528 0.0617 0
M  V30 117 H -11.5689 3.7876 2.8611 0
M  V30 118 H -12.8809 2.7299 2.2365 0
M  V30 119 H 3.9236 1.6846 0.1947 0
M  V30 120 H 0.6209 4.3592 -0.4549 0
M  V30 121 H -12.8387 -1.8586 -0.555 0
M  V30 122 H 2.9316 5.1011 -0.8033 0
M  V30 123 H -16.5879 1.3225 0.0865 0
M  V30 124 H -16.5458 1.8986 -2.247 0
M  V30 125 H -13.668 0.1331 -4.8823 0
M  V30 126 H 7.805 3.165 3.0857 0
M  V30 127 H 9.5266 3.6704 1.0155 0
M  V30 128 H 6.444 0.6747 1.1257 0
M  V30 129 H 7.8518 -0.8311 -0.2459 0
M  V30 130 H 11.4369 2.1062 -1.5882 0
M  V30 131 H 13.5712 3.3382 -1.3606 0
M  V30 132 H 14.254 3.6004 0.2885 0
M  V30 133 H 12.752 -0.4165 -2.5842 0
M  V30 134 H 15.0017 -3.2679 0.7941 0
M  V30 135 H 17.0333 -3.27 -0.5054 0
M  V30 136 H 17.1767 -1.3207 -4.3196 0
M  V30 END ATOM
M  V30 BEGIN BOND
M  V30 1 1 1 2
M  V30 2 2 2 3
M  V30 3 1 2 4
M  V30 4 1 3 5
M  V30 5 2 4 6
M  V30 6 2 5 7
M  V30 7 1 5 8
M  V30 8 1 6 9
M  V30 9 1 8 10
M  V30 10 1 9 11
M  V30 11 2 10 12
M  V30 12 1 10 13
M  V30 13 2 11 14
M  V30 14 1 11 15
M  V30 15 1 12 16
M  V30 16 2 13 17
M  V30 17 1 14 18
M  V30 18 2 15 19
M  V30 19 1 16 20
M  V30 20 2 16 21
M  V30 21 1 18 22
M  V30 22 2 18 23
M  V30 23 2 20 24
M  V30 24 2 20 25
M  V30 25 1 20 26
M  V30 26 1 21 27
M  V30 27 1 22 28
M  V30 28 1 23 29
M  V30 29 2 27 30
M  V30 30 1 27 31
M  V30 31 2 28 32
M  V30 32 1 28 33
M  V30 33 2 29 34
M  V30 34 1 30 35
M  V30 35 1 30 36
M  V30 36 2 31 37
M  V30 37 1 34 38
M  V30 38 2 35 39
M  V30 39 2 35 40
M  V30 40 1 35 41
M  V30 41 2 36 42
M  V30 42 1 38 43
M  V30 43 2 38 44
M  V30 44 1 42 45
M  V30 45 1 43 46
M  V30 46 2 43 47
M  V30 47 1 44 48
M  V30 48 1 45 49
M  V30 49 2 46 50
M  V30 50 2 46 51
M  V30 51 1 46 52
M  V30 52 1 47 53
M  V30 53 2 48 54
M  V30 54 2 49 55
M  V30 55 1 49 56
M  V30 56 2 53 57
M  V30 57 1 54 58
M  V30 58 1 54 59
M  V30 59 1 55 60
M  V30 60 2 56 61
M  V30 61 1 57 62
M  V30 62 2 58 63
M  V30 63 2 58 64
M  V30 64 1 58 65
M  V30 65 1 60 66
M  V30 66 2 60 67
M  V30 67 1 61 68
M  V30 68 1 62 69
M  V30 69 1 68 70
M  V30 70 2 69 71
M  V30 71 2 69 72
M  V30 72 1 69 73
M  V30 73 2 70 74
M  V30 74 1 70 75
M  V30 75 1 74 76
M  V30 76 2 75 77
M  V30 77 1 76 78
M  V30 78 2 76 79
M  V30 79 1 78 80
M  V30 80 1 79 81
M  V30 81 2 80 82
M  V30 82 1 80 83
M  V30 83 2 81 84
M  V30 84 1 84 85
M  V30 85 1 85 86
M  V30 86 2 85 87
M  V30 87 1 86 88
M  V30 88 2 86 89
M  V30 89 1 87 90
M  V30 90 2 88 91
M  V30 91 2 88 92
M  V30 92 1 88 93
M  V30 93 1 89 94
M  V30 94 2 90 95
M  V30 95 2 94 96
M  V30 96 1 95 97
M  V30 97 1 95 98
M  V30 98 1 96 99
M  V30 99 2 97 100
M  V30 100 2 97 101
M  V30 101 1 97 102
M  V30 102 1 99 103
M  V30 103 2 103 104
M  V30 104 2 103 105
M  V30 105 1 103 106
M  V30 106 1 6 7
M  V30 107 1 17 21
M  V30 108 1 19 23
M  V30 109 1 37 42
M  V30 110 1 48 53
M  V30 111 2 59 62
M  V30 112 1 61 67
M  V30 113 1 77 79
M  V30 114 1 90 94
M  V30 115 2 98 99
M  V30 116 1 8 107
M  V30 117 1 9 108
M  V30 118 1 12 109
M  V30 119 1 13 110
M  V30 120 1 14 111
M  V30 121 1 15 112
M  V30 122 1 17 113
M  V30 123 1 19 114
M  V30 124 1 22 115
M  V30 125 1 31 116
M  V30 126 1 33 117
M  V30 127 1 33 118
M  V30 128 1 36 119
M  V30 129 1 37 120
M  V30 130 1 44 121
M  V30 131 1 45 122
M  V30 132 1 47 123
M  V30 133 1 57 124
M  V30 134 1 59 125
M  V30 135 1 68 126
M  V30 136 1 74 127
M  V30 137 1 75 128
M  V30 138 1 77 129
M  V30 139 1 78 130
M  V30 140 1 83 131
M  V30 141 1 83 132
M  V30 142 1 87 133
M  V30 143 1 89 134
M  V30 144 1 96 135
M  V30 145 1 98 136
M  V30 END BOND
M  V30 END CTAB
M  END
>  <Structure No>
1500

>  <LogS>
-1.498168281

>  <MMFF94 Energy>
270.78

$$$$
Compound 1501
Actelion Java MolfileCreator 2.0

  0  0  0  0  0  0              0 V3000
M  V30 BEGIN CTAB
M  V30 COUNTS 25 25 0 0 0
M  V30 BEGIN ATOM
M  V30 1 O 2.9598 0.7004 1.1675 0
M  V30 2 C 2.8447 0.295 -0.1697 0
M  V30 3 C 1.7021 -0.7161 -0.3477 0
M  V30 4 C 0.3293 -0.2087 0.1596 0 CFG=1
M  V30 5 N -0.1729 0.907 -0.673 0 CHG=1
M  V30 6 C -0.6802 -1.3777 0.157 0
M  V30 7 C -1.4778 1.3958 -0.1979 0
M  V30 8 C -2.0609 -0.9074 0.6192 0
M  V30 9 C -2.5304 0.2817 -0.2186 0
M  V30 10 H 3.3526 -0.0648 1.6632 0
M  V30 11 H 2.6769 1.1867 -0.8071 0
M  V30 12 H 3.7993 -0.166 -0.5103 0
M  V30 13 H 1.9786 -1.6405 0.2058 0
M  V30 14 H 1.6271 -0.9861 -1.4237 0
M  V30 15 H 0.4487 0.138 1.212 0
M  V30 16 H -0.2572 0.6053 -1.6726 0
M  V30 17 H 0.4931 1.7111 -0.625 0
M  V30 18 H -0.763 -1.8053 -0.8669 0
M  V30 19 H -0.3298 -2.1823 0.8397 0
M  V30 20 H -1.8227 2.2261 -0.853 0
M  V30 21 H -1.3819 1.8029 0.8342 0
M  V30 22 H -2.7892 -1.7409 0.5198 0
M  V30 23 H -2.0164 -0.6148 1.6915 0
M  V30 24 H -3.4882 0.6684 0.1913 0
M  V30 25 H -2.7084 -0.0445 -1.2668 0
M  V30 END ATOM
M  V30 BEGIN BOND
M  V30 1 1 1 2
M  V30 2 1 2 3
M  V30 3 1 3 4
M  V30 4 1 4 5
M  V30 5 1 4 6
M  V30 6 1 5 7
M  V30 7 1 6 8
M  V30 8 1 7 9
M  V30 9 1 8 9
M  V30 10 1 1 10
M  V30 11 1 2 11
M  V30 12 1 2 12
M  V30 13 1 3 13
M  V30 14 1 3 14
M  V30 15 1 4 15
M  V30 16 1 5 16
M  V30 17 1 5 17
M  V30 18 1 6 18
M  V30 19 1 6 19
M  V30 20 1 7 20
M  V30 21 1 7 21
M  V30 22 1 8 22
M  V30 23 1 8 23
M  V30 24 1 9 24
M  V30 25 1 9 25
M  V30 END BOND
M  V30 BEGIN COLLECTION
M  V30 MDLV30/STEABS ATOMS=(1 4)
M  V30 END COLLECTION
M  V30 END CTAB
M  END
>  <Structure No>
1501

>  <LogS>
0.642748355

>  <MMFF94 Energy>
-9.2883

$$$$
Compound 1502
Actelion Java MolfileCreator 2.0

  0  0  0  0  0  0              0 V3000
M  V30 BEGIN CTAB
M  V30 COUNTS 20 19 0 0 0
M  V30 BEGIN ATOM
M  V30 1 O -1.5997 -0.6853 1.5997 0
M  V30 2 C -1.3407 -0.8483 0.2308 0
M  V30 3 C -0.0249 -0.133 -0.1755 0
M  V30 4 N 0.1887 -0.3278 -1.6231 0 CHG=1
M  V30 5 C 1.1535 -0.7597 0.6212 0
M  V30 6 C -0.1586 1.382 0.1396 0
M  V30 7 O 2.3902 -0.2337 0.213 0
M  V30 8 O 0.9423 2.0999 -0.3483 0
M  V30 9 H -2.4489 -1.1667 1.7795 0
M  V30 10 H -2.1912 -0.4334 -0.3567 0
M  V30 11 H -1.2662 -1.9346 -0.0033 0
M  V30 12 H -0.6051 0.083 -2.1673 0
M  V30 13 H 0.2514 -1.3478 -1.8485 0
M  V30 14 H 1.0736 0.1304 -1.9397 0
M  V30 15 H 1.0057 -0.6166 1.7179 0
M  V30 16 H 1.1761 -1.8565 0.4433 0
M  V30 17 H -1.0858 1.7798 -0.3324 0
M  V30 18 H -0.2406 1.5358 1.2396 0
M  V30 19 H 2.6389 0.4704 0.8671 0
M  V30 20 H 0.7857 3.0485 -0.1015 0
M  V30 END ATOM
M  V30 BEGIN BOND
M  V30 1 1 1 2
M  V30 2 1 2 3
M  V30 3 1 3 4
M  V30 4 1 3 5
M  V30 5 1 3 6
M  V30 6 1 5 7
M  V30 7 1 6 8
M  V30 8 1 1 9
M  V30 9 1 2 10
M  V30 10 1 2 11
M  V30 11 1 4 12
M  V30 12 1 4 13
M  V30 13 1 4 14
M  V30 14 1 5 15
M  V30 15 1 5 16
M  V30 16 1 6 17
M  V30 17 1 6 18
M  V30 18 1 7 19
M  V30 19 1 8 20
M  V30 END BOND
M  V30 END CTAB
M  END
>  <Structure No>
1502

>  <LogS>
0.551414915

>  <MMFF94 Energy>
61.191

$$$$
Compound 1503
Actelion Java MolfileCreator 2.0

  0  0  0  0  0  0              0 V3000
M  V30 BEGIN CTAB
M  V30 COUNTS 24 23 0 0 0
M  V30 BEGIN ATOM
M  V30 1 O 1.5533 0.9317 1.5533 0
M  V30 2 C 1.5294 0.6023 0.3353 0
M  V30 3 O 0.3157 0.3497 -0.3097 0
M  V30 4 C 2.814 0.4299 -0.4213 0 CFG=1
M  V30 5 C -0.9431 0.461 0.3484 0
M  V30 6 O 3.7236 1.4401 -0.0725 0
M  V30 7 C 3.4268 -0.9323 -0.1093 0
M  V30 8 C -2.0779 0.104 -0.6232 0
M  V30 9 C -1.9683 -1.3546 -1.0864 0
M  V30 10 C -3.4417 0.3533 0.0314 0
M  V30 11 H 2.6043 0.4737 -1.5152 0
M  V30 12 H -1.0727 1.5069 0.7044 0
M  V30 13 H -0.9667 -0.2193 1.2287 0
M  V30 14 H 3.4088 2.2725 -0.5135 0
M  V30 15 H 3.6614 -1.0156 0.9739 0
M  V30 16 H 2.7228 -1.7444 -0.3925 0
M  V30 17 H 4.3657 -1.0629 -0.6881 0
M  V30 18 H -1.9978 0.7627 -1.5162 0
M  V30 19 H -1.0029 -1.523 -1.609 0
M  V30 20 H -2.0333 -2.0476 -0.2199 0
M  V30 21 H -2.7878 -1.5928 -1.7978 0
M  V30 22 H -3.5658 -0.2828 0.9343 0
M  V30 23 H -4.2589 0.123 -0.6851 0
M  V30 24 H -3.5354 1.4198 0.3285 0
M  V30 END ATOM
M  V30 BEGIN BOND
M  V30 1 2 1 2
M  V30 2 1 2 3
M  V30 3 1 2 4
M  V30 4 1 3 5
M  V30 5 1 4 6
M  V30 6 1 4 7
M  V30 7 1 5 8
M  V30 8 1 8 9
M  V30 9 1 8 10
M  V30 10 1 4 11
M  V30 11 1 5 12
M  V30 12 1 5 13
M  V30 13 1 6 14
M  V30 14 1 7 15
M  V30 15 1 7 16
M  V30 16 1 7 17
M  V30 17 1 8 18
M  V30 18 1 9 19
M  V30 19 1 9 20
M  V30 20 1 9 21
M  V30 21 1 10 22
M  V30 22 1 10 23
M  V30 23 1 10 24
M  V30 END BOND
M  V30 BEGIN COLLECTION
M  V30 MDLV30/STEABS ATOMS=(1 4)
M  V30 END COLLECTION
M  V30 END CTAB
M  END
>  <Structure No>
1503

>  <LogS>
-0.412857335

>  <MMFF94 Energy>
27.567

$$$$
Compound 1504
Actelion Java MolfileCreator 2.0

  0  0  0  0  0  0              0 V3000
M  V30 BEGIN CTAB
M  V30 COUNTS 8 7 0 0 0
M  V30 BEGIN ATOM
M  V30 1 S 1.5417 -0.1712 0.9419 0
M  V30 2 C 0.1747 -0.5747 -0.1856 0
M  V30 3 C -0.9567 0.3753 0.0264 0
M  V30 4 O -1.0309 1.4338 -0.6513 0
M  V30 5 O -1.906 0.118 1.0073 0 CHG=-1
M  V30 6 H 1.8048 1.0589 0.3085 0
M  V30 7 H 0.5322 -0.5198 -1.236 0
M  V30 8 H -0.1673 -1.611 0.017 0
M  V30 END ATOM
M  V30 BEGIN BOND
M  V30 1 1 1 2
M  V30 2 1 2 3
M  V30 3 2 3 4
M  V30 4 1 3 5
M  V30 5 1 1 6
M  V30 6 1 2 7
M  V30 7 1 2 8
M  V30 END BOND
M  V30 END CTAB
M  END
>  <Structure No>
1504

>  <LogS>
-0.383898135

>  <MMFF94 Energy>
39.221

$$$$
Compound 1505
Actelion Java MolfileCreator 2.0

  0  0  0  0  0  0              0 V3000
M  V30 BEGIN CTAB
M  V30 COUNTS 34 34 0 0 0
M  V30 BEGIN ATOM
M  V30 1 O -0.9389 2.7405 -1.4869 0
M  V30 2 C -0.5539 1.4686 -1.0239 0 CFG=1
M  V30 3 C 0.703 1.581 -0.1511 0
M  V30 4 C -1.6992 0.8194 -0.2401 0
M  V30 5 C 1.1679 0.263 0.5584 0 CFG=1
M  V30 6 C -1.3779 -0.6298 0.1861 0
M  V30 7 C -0.0099 -0.7146 0.9516 0
M  V30 8 C 2.3068 -0.4627 -0.2419 0
M  V30 9 C 1.8559 0.7068 1.8827 0
M  V30 10 C -1.4212 -1.5801 -1.0361 0
M  V30 11 C -2.504 -1.1 1.1418 0
M  V30 12 N 1.8947 -1.0755 -1.5017 0 CHG=1
M  V30 13 H -1.197 3.2908 -0.7012 0
M  V30 14 H -0.3315 0.873 -1.9244 0
M  V30 15 H 1.5286 1.9944 -0.7706 0
M  V30 16 H 0.4867 2.3623 0.6125 0
M  V30 17 H -1.9078 1.4372 0.6627 0
M  V30 18 H -2.6196 0.8339 -0.8656 0
M  V30 19 H -0.2415 -0.5476 2.0278 0
M  V30 20 H 0.3566 -1.7642 0.9366 0
M  V30 21 H 2.7556 -1.2598 0.3944 0
M  V30 22 H 3.1274 0.2603 -0.4535 0
M  V30 23 H 2.7142 1.3846 1.6796 0
M  V30 24 H 1.1456 1.2511 2.5433 0
M  V30 25 H 2.2338 -0.1717 2.4504 0
M  V30 26 H -1.1333 -2.6122 -0.7418 0
M  V30 27 H -2.4479 -1.6234 -1.4601 0
M  V30 28 H -0.7647 -1.2563 -1.8596 0
M  V30 29 H -2.5662 -0.448 2.0402 0
M  V30 30 H -2.3172 -2.1414 1.4833 0
M  V30 31 H -3.4944 -1.0704 0.6372 0
M  V30 32 H 1.4385 -0.3794 -2.1271 0
M  V30 33 H 1.285 -1.9009 -1.3168 0
M  V30 34 H 2.7487 -1.4264 -1.9926 0
M  V30 END ATOM
M  V30 BEGIN BOND
M  V30 1 1 1 2
M  V30 2 1 2 3
M  V30 3 1 2 4
M  V30 4 1 3 5
M  V30 5 1 4 6
M  V30 6 1 5 7
M  V30 7 1 5 8
M  V30 8 1 5 9
M  V30 9 1 6 10
M  V30 10 1 6 11
M  V30 11 1 8 12
M  V30 12 1 6 7
M  V30 13 1 1 13
M  V30 14 1 2 14
M  V30 15 1 3 15
M  V30 16 1 3 16
M  V30 17 1 4 17
M  V30 18 1 4 18
M  V30 19 1 7 19
M  V30 20 1 7 20
M  V30 21 1 8 21
M  V30 22 1 8 22
M  V30 23 1 9 23
M  V30 24 1 9 24
M  V30 25 1 9 25
M  V30 26 1 10 26
M  V30 27 1 10 27
M  V30 28 1 10 28
M  V30 29 1 11 29
M  V30 30 1 11 30
M  V30 31 1 11 31
M  V30 32 1 12 32
M  V30 33 1 12 33
M  V30 34 1 12 34
M  V30 END BOND
M  V30 BEGIN COLLECTION
M  V30 MDLV30/STEABS ATOMS=(2 2 5)
M  V30 END COLLECTION
M  V30 END CTAB
M  END
>  <Structure No>
1505

>  <LogS>
0.488999371

>  <MMFF94 Energy>
37.76

$$$$
Compound 1506
Actelion Java MolfileCreator 2.0

  0  0  0  0  0  0              0 V3000
M  V30 BEGIN CTAB
M  V30 COUNTS 15 14 0 0 0
M  V30 BEGIN ATOM
M  V30 1 S 1.9889 -0.1656 -0.1656 0
M  V30 2 O 2.218 -0.986 1.0723 0
M  V30 3 O 3.1934 0.6956 -0.4193 0
M  V30 4 O 1.7524 -1.1883 -1.4771 0 CHG=-1
M  V30 5 C 0.5547 0.8746 0.0486 0
M  V30 6 C -0.6958 0.0386 0.1683 0
M  V30 7 C -0.9879 -0.5769 1.3236 0
M  V30 8 C -1.6325 -0.101 -1.0014 0
M  V30 9 H 0.6843 1.5052 0.9543 0
M  V30 10 H 0.4844 1.5569 -0.8243 0
M  V30 11 H -1.8871 -1.1781 1.4214 0
M  V30 12 H -0.3338 -0.485 2.1854 0
M  V30 13 H -2.6292 0.3112 -0.7366 0
M  V30 14 H -1.741 -1.1734 -1.2689 0
M  V30 15 H -1.2512 0.4415 -1.8914 0
M  V30 END ATOM
M  V30 BEGIN BOND
M  V30 1 2 1 2
M  V30 2 2 1 3
M  V30 3 1 1 4
M  V30 4 1 1 5
M  V30 5 1 5 6
M  V30 6 2 6 7
M  V30 7 1 6 8
M  V30 8 1 5 9
M  V30 9 1 5 10
M  V30 10 1 7 11
M  V30 11 1 7 12
M  V30 12 1 8 13
M  V30 13 1 8 14
M  V30 14 1 8 15
M  V30 END BOND
M  V30 END CTAB
M  END
>  <Structure No>
1506

>  <LogS>
0.519421508

>  <MMFF94 Energy>
65.833

$$$$
Compound 1507
Actelion Java MolfileCreator 2.0

  0  0  0  0  0  0              0 V3000
M  V30 BEGIN CTAB
M  V30 COUNTS 10 9 0 0 0
M  V30 BEGIN ATOM
M  V30 1 S -1.7582 0.3905 0.4881 0
M  V30 2 O -2.1878 1.8009 0.1974 0
M  V30 3 O -2.962 -0.5078 0.4688 0
M  V30 4 O -0.6665 -0.1235 -0.6863 0
M  V30 5 O -1.0437 0.3204 2.0076 0 CHG=-1
M  V30 6 O 0.4126 0.6096 -0.4968 0
M  V30 7 S 1.6645 -0.4957 -0.2749 0
M  V30 8 O 1.3697 -1.3759 0.9072 0
M  V30 9 O 1.8218 -1.3412 -1.5075 0
M  V30 10 O 3.0928 0.3419 0.005 0 CHG=-1
M  V30 END ATOM
M  V30 BEGIN BOND
M  V30 1 2 1 2
M  V30 2 2 1 3
M  V30 3 1 1 4
M  V30 4 1 1 5
M  V30 5 1 4 6
M  V30 6 1 6 7
M  V30 7 2 7 8
M  V30 8 2 7 9
M  V30 9 1 7 10
M  V30 END BOND
M  V30 END CTAB
M  END
>  <Structure No>
1507

>  <LogS>
-0.653730142

>  <MMFF94 Energy>
60.681

$$$$
Compound 1508
Actelion Java MolfileCreator 2.0

  0  0  0  0  0  0              0 V3000
M  V30 BEGIN CTAB
M  V30 COUNTS 27 27 0 0 0
M  V30 BEGIN ATOM
M  V30 1 S -4.663 0.4083 0.5717 0
M  V30 2 O -5.6498 1.5017 0.2748 0
M  V30 3 O -4.6437 0.1481 2.0517 0
M  V30 4 O -5.1305 -0.9891 -0.235 0 CHG=-1
M  V30 5 C -3.0399 0.9173 0.0226 0
M  V30 6 C -1.9648 -0.1209 0.3911 0 CFG=1
M  V30 7 O -2.2268 -1.3567 -0.2277 0
M  V30 8 C -0.5601 0.3865 0.0141 0
M  V30 9 N 0.4762 -0.5651 0.4236 0
M  V30 10 C 1.8805 -0.3533 0.1843 0
M  V30 11 C 2.3579 0.8062 -0.46 0
M  V30 12 C 2.8037 -1.3263 0.6035 0
M  V30 13 C 3.7286 0.98 -0.6766 0
M  V30 14 C 4.1729 -1.1474 0.3845 0
M  V30 15 C 4.6351 0.0048 -0.255 0
M  V30 16 H -2.8016 1.8896 0.5051 0
M  V30 17 H -3.0646 1.0721 -1.0774 0
M  V30 18 H -1.9887 -0.2715 1.4927 0
M  V30 19 H -2.2002 -1.2124 -1.2101 0
M  V30 20 H -0.3761 1.3593 0.5205 0
M  V30 21 H -0.5052 0.5408 -1.0857 0
M  V30 22 H 0.1895 -1.4414 0.9179 0
M  V30 23 H 1.6811 1.5793 -0.7969 0
M  V30 24 H 2.4615 -2.2253 1.1009 0
M  V30 25 H 4.0883 1.8729 -1.172 0
M  V30 26 H 4.8758 -1.9029 0.7111 0
M  V30 27 H 5.6953 0.1419 -0.4239 0
M  V30 END ATOM
M  V30 BEGIN BOND
M  V30 1 2 1 2
M  V30 2 2 1 3
M  V30 3 1 1 4
M  V30 4 1 1 5
M  V30 5 1 5 6
M  V30 6 1 6 7
M  V30 7 1 6 8
M  V30 8 1 8 9
M  V30 9 1 9 10
M  V30 10 2 10 11
M  V30 11 1 10 12
M  V30 12 1 11 13
M  V30 13 2 12 14
M  V30 14 2 13 15
M  V30 15 1 14 15
M  V30 16 1 5 16
M  V30 17 1 5 17
M  V30 18 1 6 18
M  V30 19 1 7 19
M  V30 20 1 8 20
M  V30 21 1 8 21
M  V30 22 1 9 22
M  V30 23 1 11 23
M  V30 24 1 12 24
M  V30 25 1 13 25
M  V30 26 1 14 26
M  V30 27 1 15 27
M  V30 END BOND
M  V30 BEGIN COLLECTION
M  V30 MDLV30/STEABS ATOMS=(1 6)
M  V30 END COLLECTION
M  V30 END CTAB
M  END
>  <Structure No>
1508

>  <LogS>
0.11878449

>  <MMFF94 Energy>
22.241

$$$$
Compound 1509
Actelion Java MolfileCreator 2.0

  0  0  0  0  0  0              0 V3000
M  V30 BEGIN CTAB
M  V30 COUNTS 47 47 0 0 0
M  V30 BEGIN ATOM
M  V30 1 O -4.4172 -3.3904 2.2067 0
M  V30 2 C -3.2343 -3.0151 1.9938 0
M  V30 3 O -2.4982 -2.4429 3.0236 0 CHG=-1
M  V30 4 C -2.6344 -3.1554 0.6295 0
M  V30 5 C -3.1501 -2.0821 -0.3336 0
M  V30 6 N -2.7078 -0.7472 0.0719 0
M  V30 7 C -3.4063 0.0918 0.9879 0
M  V30 8 C -1.7848 0.0989 -0.6851 0 CFG=1
M  V30 9 C -2.9851 1.3361 0.8832 0
M  V30 10 N -1.9748 1.4322 -0.1151 0
M  V30 11 C -0.3285 -0.3762 -0.5361 0
M  V30 12 C -1.5246 2.6839 -0.7206 0
M  V30 13 C 0.1531 -0.4076 0.9264 0
M  V30 14 C -0.5703 3.4194 0.2195 0
M  V30 15 C 1.5643 -0.9989 1.0755 0
M  V30 16 O -0.1702 4.6357 -0.3497 0
M  V30 17 C 2.6681 -0.1195 0.4502 0
M  V30 18 C 3.1613 -0.6787 -0.8957 0
M  V30 19 C 4.0838 0.2992 -1.6388 0
M  V30 20 C 5.4298 0.489 -0.9405 0
M  V30 21 H -2.8947 -4.1573 0.2253 0
M  V30 22 H -1.5271 -3.1012 0.6966 0
M  V30 23 H -2.7597 -2.3086 -1.3495 0
M  V30 24 H -4.2604 -2.1122 -0.3901 0
M  V30 25 H -4.2053 -0.2389 1.6384 0
M  V30 26 H -2.08 0.1075 -1.7578 0
M  V30 27 H -3.3843 2.1764 1.436 0
M  V30 28 H -0.2388 -1.3924 -0.9775 0
M  V30 29 H 0.3169 0.31 -1.1234 0
M  V30 30 H -1.0027 2.4748 -1.6795 0
M  V30 31 H -2.4065 3.324 -0.9402 0
M  V30 32 H -0.539 -1.0302 1.5303 0
M  V30 33 H 0.1339 0.614 1.3606 0
M  V30 34 H -1.0565 3.5953 1.2062 0
M  V30 35 H 0.3331 2.7969 0.3858 0
M  V30 36 H 1.5874 -2.0323 0.6642 0
M  V30 37 H 1.7694 -1.0915 2.1648 0
M  V30 38 H -0.9337 5.2623 -0.2468 0
M  V30 39 H 2.3119 0.9266 0.3249 0
M  V30 40 H 3.5281 -0.0888 1.1533 0
M  V30 41 H 2.293 -0.893 -1.553 0
M  V30 42 H 3.6923 -1.6415 -0.7279 0
M  V30 43 H 3.5815 1.2844 -1.7542 0
M  V30 44 H 4.2729 -0.102 -2.6581 0
M  V30 45 H 5.9225 -0.4921 -0.773 0
M  V30 46 H 5.2979 1.0084 0.0313 0
M  V30 47 H 6.0912 1.1124 -1.5782 0
M  V30 END ATOM
M  V30 BEGIN BOND
M  V30 1 2 1 2
M  V30 2 1 2 3
M  V30 3 1 2 4
M  V30 4 1 4 5
M  V30 5 1 5 6
M  V30 6 1 6 7
M  V30 7 1 6 8
M  V30 8 2 7 9
M  V30 9 1 8 10
M  V30 10 1 8 11
M  V30 11 1 10 12
M  V30 12 1 11 13
M  V30 13 1 12 14
M  V30 14 1 13 15
M  V30 15 1 14 16
M  V30 16 1 15 17
M  V30 17 1 17 18
M  V30 18 1 18 19
M  V30 19 1 19 20
M  V30 20 1 9 10
M  V30 21 1 4 21
M  V30 22 1 4 22
M  V30 23 1 5 23
M  V30 24 1 5 24
M  V30 25 1 7 25
M  V30 26 1 8 26
M  V30 27 1 9 27
M  V30 28 1 11 28
M  V30 29 1 11 29
M  V30 30 1 12 30
M  V30 31 1 12 31
M  V30 32 1 13 32
M  V30 33 1 13 33
M  V30 34 1 14 34
M  V30 35 1 14 35
M  V30 36 1 15 36
M  V30 37 1 15 37
M  V30 38 1 16 38
M  V30 39 1 17 39
M  V30 40 1 17 40
M  V30 41 1 18 41
M  V30 42 1 18 42
M  V30 43 1 19 43
M  V30 44 1 19 44
M  V30 45 1 20 45
M  V30 46 1 20 46
M  V30 47 1 20 47
M  V30 END BOND
M  V30 BEGIN COLLECTION
M  V30 MDLV30/STEABS ATOMS=(1 8)
M  V30 END COLLECTION
M  V30 END CTAB
M  END
>  <Structure No>
1509

>  <LogS>
0.212706758

>  <MMFF94 Energy>
22.824

$$$$
Compound 1510
Actelion Java MolfileCreator 2.0

  0  0  0  0  0  0              0 V3000
M  V30 BEGIN CTAB
M  V30 COUNTS 32 31 0 0 0
M  V30 BEGIN ATOM
M  V30 1 O 4.2381 -2.1988 0.8953 0
M  V30 2 C 3.0081 -2.1886 0.6264 0
M  V30 3 O 2.4207 -3.3045 0.0445 0 CHG=-1
M  V30 4 C 2.1831 -0.9728 0.9104 0
M  V30 5 N 1.739 -0.3411 -0.3526 0
M  V30 6 C 2.8397 0.3527 -1.0646 0
M  V30 7 C 0.5574 0.528 -0.1515 0
M  V30 8 C 3.3914 1.5324 -0.3095 0
M  V30 9 C -0.7338 -0.288 -0.3074 0
M  V30 10 O 2.8211 2.6531 -0.3743 0
M  V30 11 O 4.5317 1.3874 0.4707 0 CHG=-1
M  V30 12 N -1.9093 0.4652 0.193 0
M  V30 13 C -3.032 -0.4361 0.5296 0
M  V30 14 C -2.3349 1.5616 -0.7107 0
M  V30 15 C -2.7965 -1.0814 1.8594 0
M  V30 16 C -2.8008 1.0816 -2.0586 0
M  V30 17 O -2.8002 -0.3858 2.9089 0
M  V30 18 O -2.5556 -2.447 1.9395 0 CHG=-1
M  V30 19 O -2.0157 1.0984 -3.0429 0
M  V30 20 O -4.0973 0.611 -2.2228 0 CHG=-1
M  V30 21 H 1.3101 -1.3076 1.5106 0
M  V30 22 H 2.7465 -0.2575 1.5478 0
M  V30 23 H 3.6644 -0.3616 -1.2731 0
M  V30 24 H 2.4808 0.6924 -2.0608 0
M  V30 25 H 0.5853 1.0144 0.8502 0
M  V30 26 H 0.5345 1.3381 -0.9121 0
M  V30 27 H -0.8636 -0.5908 -1.3684 0
M  V30 28 H -0.6177 -1.23 0.2694 0
M  V30 29 H -3.9884 0.1278 0.6045 0
M  V30 30 H -3.1653 -1.2157 -0.2538 0
M  V30 31 H -1.5115 2.2941 -0.8396 0
M  V30 32 H -3.1584 2.1366 -0.2341 0
M  V30 END ATOM
M  V30 BEGIN BOND
M  V30 1 2 1 2
M  V30 2 1 2 3
M  V30 3 1 2 4
M  V30 4 1 4 5
M  V30 5 1 5 6
M  V30 6 1 5 7
M  V30 7 1 6 8
M  V30 8 1 7 9
M  V30 9 2 8 10
M  V30 10 1 8 11
M  V30 11 1 9 12
M  V30 12 1 12 13
M  V30 13 1 12 14
M  V30 14 1 13 15
M  V30 15 1 14 16
M  V30 16 2 15 17
M  V30 17 1 15 18
M  V30 18 2 16 19
M  V30 19 1 16 20
M  V30 20 1 4 21
M  V30 21 1 4 22
M  V30 22 1 6 23
M  V30 23 1 6 24
M  V30 24 1 7 25
M  V30 25 1 7 26
M  V30 26 1 9 27
M  V30 27 1 9 28
M  V30 28 1 13 29
M  V30 29 1 13 30
M  V30 30 1 14 31
M  V30 31 1 14 32
M  V30 END BOND
M  V30 END CTAB
M  END
>  <Structure No>
1510

>  <LogS>
0.118989877

>  <MMFF94 Energy>
599.58

$$$$
Compound 1511
Actelion Java MolfileCreator 2.0

  0  0  0  0  0  0              0 V3000
M  V30 BEGIN CTAB
M  V30 COUNTS 20 20 0 0 0
M  V30 BEGIN ATOM
M  V30 1 O -0.3952 0.4742 -1.7397 0
M  V30 2 C -0.7226 -0.0101 -0.6214 0
M  V30 3 O 0.0889 -0.9738 -0.008 0
M  V30 4 C -1.9697 0.4387 0.0364 0
M  V30 5 C 1.3239 -1.4254 -0.558 0
M  V30 6 C -2.3701 -0.1176 1.1849 0
M  V30 7 C -2.8311 1.4768 -0.6305 0
M  V30 8 C 2.3848 -0.3287 -0.4471 0 CFG=2
M  V30 9 O 3.6782 -0.8621 -0.291 0
M  V30 10 C 3.1097 -0.2395 0.8397 0
M  V30 11 H 1.187 -1.7036 -1.625 0
M  V30 12 H 1.6394 -2.341 -0.012 0
M  V30 13 H -3.2971 0.1839 1.657 0
M  V30 14 H -1.7853 -0.8846 1.6763 0
M  V30 15 H -3.4204 1.0012 -1.442 0
M  V30 16 H -2.198 2.279 -1.0647 0
M  V30 17 H -3.5307 1.953 0.0901 0
M  V30 18 H 2.3707 0.5666 -1.1031 0
M  V30 19 H 2.8606 -0.9823 1.6268 0
M  V30 20 H 3.6041 0.7302 1.0554 0
M  V30 END ATOM
M  V30 BEGIN BOND
M  V30 1 2 1 2
M  V30 2 1 2 3
M  V30 3 1 2 4
M  V30 4 1 3 5
M  V30 5 2 4 6
M  V30 6 1 4 7
M  V30 7 1 5 8
M  V30 8 1 8 9
M  V30 9 1 8 10
M  V30 10 1 9 10
M  V30 11 1 5 11
M  V30 12 1 5 12
M  V30 13 1 6 13
M  V30 14 1 6 14
M  V30 15 1 7 15
M  V30 16 1 7 16
M  V30 17 1 7 17
M  V30 18 1 8 18
M  V30 19 1 10 19
M  V30 20 1 10 20
M  V30 END BOND
M  V30 BEGIN COLLECTION
M  V30 MDLV30/STEABS ATOMS=(1 8)
M  V30 END COLLECTION
M  V30 END CTAB
M  END
>  <Structure No>
1511

>  <LogS>
-0.45378908

>  <MMFF94 Energy>
9.0347

$$$$
Compound 1512
Actelion Java MolfileCreator 2.0

  0  0  0  0  0  0              0 V3000
M  V30 BEGIN CTAB
M  V30 COUNTS 11 11 0 0 0
M  V30 BEGIN ATOM
M  V30 1 O 2.6346 -0.7978 -0.1595 0
M  V30 2 N 1.9704 0.2367 0.056 0 CHG=1
M  V30 3 O 2.6233 1.4157 0.3292 0 CHG=-1
M  V30 4 C 0.5415 0.2024 0.0204 0
M  V30 5 N -0.2365 1.2782 0.2428 0
M  V30 6 C -0.2348 -0.9103 -0.2405 0
M  V30 7 N -1.4924 0.8771 0.1296 0
M  V30 8 C -1.5276 -0.4367 -0.1612 0
M  V30 9 H 0.0903 -1.9192 -0.4568 0
M  V30 10 H -2.3207 1.5006 0.2512 0
M  V30 11 H -2.433 -1.0111 -0.3057 0
M  V30 END ATOM
M  V30 BEGIN BOND
M  V30 1 2 1 2
M  V30 2 1 2 3
M  V30 3 1 2 4
M  V30 4 2 4 5
M  V30 5 1 4 6
M  V30 6 1 5 7
M  V30 7 2 6 8
M  V30 8 1 7 8
M  V30 9 1 6 9
M  V30 10 1 7 10
M  V30 11 1 8 11
M  V30 END BOND
M  V30 END CTAB
M  END
>  <Structure No>
1512

>  <LogS>
-1.285472821

>  <MMFF94 Energy>
82.547

$$$$
Compound 1513
Actelion Java MolfileCreator 2.0

  0  0  0  0  0  0              0 V3000
M  V30 BEGIN CTAB
M  V30 COUNTS 41 42 0 0 0
M  V30 BEGIN ATOM
M  V30 1 S -6.2174 -0.4081 0.5714 0
M  V30 2 O -6.9513 -0.5873 1.8711 0
M  V30 3 O -6.3087 -1.6865 -0.2135 0
M  V30 4 N -6.9423 0.8793 -0.3257 0
M  V30 5 C -4.5283 -0.0243 0.8866 0
M  V30 6 C -3.5442 -0.3634 -0.0503 0
M  V30 7 C -4.1636 0.641 2.0625 0
M  V30 8 C -2.1973 -0.0551 0.1821 0
M  V30 9 C -2.8247 0.9535 2.3056 0
M  V30 10 N -1.2382 -0.4318 -0.8142 0 CHG=-1
M  V30 11 C -1.8339 0.6096 1.3744 0
M  V30 12 N 0.1325 -0.1578 -0.7072 0
M  V30 13 O -0.5029 0.9287 1.6392 0
M  V30 14 C 1.0052 -0.499 -1.6104 0
M  V30 15 C 2.4362 -0.2156 -1.352 0
M  V30 16 C 0.6073 -1.1903 -2.8656 0
M  V30 17 O 3.2967 -0.5035 -2.2281 0
M  V30 18 N 2.8443 0.43 -0.1323 0
M  V30 19 O 1.3264 -2.1238 -3.3124 0
M  V30 20 C -0.6282 -0.8119 -3.6239 0
M  V30 21 C 4.2045 0.4808 0.3318 0
M  V30 22 C 4.636 1.5882 1.0799 0
M  V30 23 C 5.0986 -0.5828 0.1054 0
M  V30 24 C 5.9472 1.6498 1.5617 0
M  V30 25 C 6.4089 -0.5175 0.5899 0
M  V30 26 C 6.8342 0.5994 1.3135 0
M  V30 27 H -6.4235 0.9515 -1.23 0
M  V30 28 H -7.9151 0.5786 -0.5585 0
M  V30 29 H -3.8241 -0.8672 -0.9676 0
M  V30 30 H -4.9143 0.9203 2.7908 0
M  V30 31 H -2.5566 1.4658 3.2211 0
M  V30 32 H -0.2278 1.4045 2.4906 0
M  V30 33 H 2.1302 0.9712 0.4055 0
M  V30 34 H -0.4565 -0.9397 -4.7135 0
M  V30 35 H -1.472 -1.4645 -3.3168 0
M  V30 36 H -0.8904 0.251 -3.438 0
M  V30 37 H 3.9574 2.4079 1.281 0
M  V30 38 H 4.7808 -1.4725 -0.4214 0
M  V30 39 H 6.2746 2.5112 2.1296 0
M  V30 40 H 7.0922 -1.3379 0.4119 0
M  V30 41 H 7.8481 0.6472 1.6891 0
M  V30 END ATOM
M  V30 BEGIN BOND
M  V30 1 2 1 2
M  V30 2 2 1 3
M  V30 3 1 1 4
M  V30 4 1 1 5
M  V30 5 2 5 6
M  V30 6 1 5 7
M  V30 7 1 6 8
M  V30 8 2 7 9
M  V30 9 1 8 10
M  V30 10 2 8 11
M  V30 11 1 10 12
M  V30 12 1 11 13
M  V30 13 2 12 14
M  V30 14 1 14 15
M  V30 15 1 14 16
M  V30 16 2 15 17
M  V30 17 1 15 18
M  V30 18 2 16 19
M  V30 19 1 16 20
M  V30 20 1 18 21
M  V30 21 2 21 22
M  V30 22 1 21 23
M  V30 23 1 22 24
M  V30 24 2 23 25
M  V30 25 2 24 26
M  V30 26 1 9 11
M  V30 27 1 25 26
M  V30 28 1 4 27
M  V30 29 1 4 28
M  V30 30 1 6 29
M  V30 31 1 7 30
M  V30 32 1 9 31
M  V30 33 1 13 32
M  V30 34 1 18 33
M  V30 35 1 20 34
M  V30 36 1 20 35
M  V30 37 1 20 36
M  V30 38 1 22 37
M  V30 39 1 23 38
M  V30 40 1 24 39
M  V30 41 1 25 40
M  V30 42 1 26 41
M  V30 END BOND
M  V30 END CTAB
M  END
>  <Structure No>
1513

>  <LogS>
-2.208470112

>  <MMFF94 Energy>
-37.896

$$$$
Compound 1514
Actelion Java MolfileCreator 2.0

  0  0  0  0  0  0              0 V3000
M  V30 BEGIN CTAB
M  V30 COUNTS 32 31 0 0 0
M  V30 BEGIN ATOM
M  V30 1 O -1.3942 0.2322 -0.7743 0
M  V30 2 C -2.6562 0.245 -0.128 0
M  V30 3 C -0.4654 1.0464 -0.0861 0
M  V30 4 C -3.7422 0.2708 -1.2138 0
M  V30 5 C -2.7757 -1.0108 0.7573 0
M  V30 6 C 0.9314 0.8428 -0.6732 0
M  V30 7 O -5.0131 0.4568 -0.648 0
M  V30 8 O -3.9282 -0.9612 1.5548 0
M  V30 9 C 1.4336 -0.5942 -0.4564 0
M  V30 10 C 2.873 -0.7933 -0.9754 0
M  V30 11 C 3.9342 -0.7907 0.1374 0
M  V30 12 C 4.0852 0.5685 0.8171 0
M  V30 13 H -2.8067 1.1538 0.5062 0
M  V30 14 H -0.7425 2.1174 -0.2106 0
M  V30 15 H -0.4356 0.8075 1.0021 0
M  V30 16 H -3.7014 -0.6574 -1.8313 0
M  V30 17 H -3.5426 1.1252 -1.8952 0
M  V30 18 H -1.876 -1.1081 1.4059 0
M  V30 19 H -2.8174 -1.9201 0.1204 0
M  V30 20 H 0.9043 1.0684 -1.7617 0
M  V30 21 H 1.6232 1.5656 -0.1932 0
M  V30 22 H -5.4384 -0.4379 -0.5878 0
M  V30 23 H -3.7439 -0.3087 2.2802 0
M  V30 24 H 0.7613 -1.2859 -1.0101 0
M  V30 25 H 1.3633 -0.8657 0.6199 0
M  V30 26 H 2.9258 -1.7842 -1.4773 0
M  V30 27 H 3.1321 -0.0365 -1.7485 0
M  V30 28 H 3.6879 -1.5613 0.9 0
M  V30 29 H 4.9128 -1.0665 -0.312 0
M  V30 30 H 4.9608 0.5445 1.4995 0
M  V30 31 H 4.2473 1.3663 0.0615 0
M  V30 32 H 3.1847 0.8022 1.4223 0
M  V30 END ATOM
M  V30 BEGIN BOND
M  V30 1 1 1 2
M  V30 2 1 1 3
M  V30 3 1 2 4
M  V30 4 1 2 5
M  V30 5 1 3 6
M  V30 6 1 4 7
M  V30 7 1 5 8
M  V30 8 1 6 9
M  V30 9 1 9 10
M  V30 10 1 10 11
M  V30 11 1 11 12
M  V30 12 1 2 13
M  V30 13 1 3 14
M  V30 14 1 3 15
M  V30 15 1 4 16
M  V30 16 1 4 17
M  V30 17 1 5 18
M  V30 18 1 5 19
M  V30 19 1 6 20
M  V30 20 1 6 21
M  V30 21 1 7 22
M  V30 22 1 8 23
M  V30 23 1 9 24
M  V30 24 1 9 25
M  V30 25 1 10 26
M  V30 26 1 10 27
M  V30 27 1 11 28
M  V30 28 1 11 29
M  V30 29 1 12 30
M  V30 30 1 12 31
M  V30 31 1 12 32
M  V30 END BOND
M  V30 END CTAB
M  END
>  <Structure No>
1514

>  <LogS>
-1.055812212

>  <MMFF94 Energy>
38.675

$$$$
Compound 1515
Actelion Java MolfileCreator 2.0

  0  0  0  0  0  0              0 V3000
M  V30 BEGIN CTAB
M  V30 COUNTS 24 24 0 0 0
M  V30 BEGIN ATOM
M  V30 1 N 0.0777 0.3887 0.0777 0 CHG=1
M  V30 2 C -1.0618 0.7631 -0.794 0
M  V30 3 C -0.5255 -0.5529 1.0508 0
M  V30 4 C 1.1358 -0.2759 -0.7515 0
M  V30 5 C 0.6085 1.5949 0.7598 0
M  V30 6 C -1.9814 -0.4459 -0.8855 0
M  V30 7 C -1.6723 -1.2743 0.3486 0
M  V30 8 C 2.4621 -0.556 -0.0205 0
M  V30 9 H -1.6542 1.5987 -0.3531 0
M  V30 10 H -0.7419 1.0971 -1.807 0
M  V30 11 H 0.1989 -1.289 1.4547 0
M  V30 12 H -0.9503 -0.0052 1.9246 0
M  V30 13 H 1.3889 0.3576 -1.6317 0
M  V30 14 H 0.7584 -1.2416 -1.1572 0
M  V30 15 H 1.3413 1.3181 1.5483 0
M  V30 16 H -0.1989 2.1655 1.2708 0
M  V30 17 H 1.101 2.2751 0.03 0
M  V30 18 H -3.0494 -0.1368 -0.9086 0
M  V30 19 H -1.7511 -1.0285 -1.8044 0
M  V30 20 H -2.5607 -1.3451 1.0141 0
M  V30 21 H -1.3585 -2.2995 0.053 0
M  V30 22 H 2.3148 -1.1071 0.928 0
M  V30 23 H 3.0061 0.3895 0.1838 0
M  V30 24 H 3.1113 -1.1751 -0.6747 0
M  V30 END ATOM
M  V30 BEGIN BOND
M  V30 1 1 1 2
M  V30 2 1 1 3
M  V30 3 1 1 4
M  V30 4 1 1 5
M  V30 5 1 2 6
M  V30 6 1 3 7
M  V30 7 1 4 8
M  V30 8 1 6 7
M  V30 9 1 2 9
M  V30 10 1 2 10
M  V30 11 1 3 11
M  V30 12 1 3 12
M  V30 13 1 4 13
M  V30 14 1 4 14
M  V30 15 1 5 15
M  V30 16 1 5 16
M  V30 17 1 5 17
M  V30 18 1 6 18
M  V30 19 1 6 19
M  V30 20 1 7 20
M  V30 21 1 7 21
M  V30 22 1 8 22
M  V30 23 1 8 23
M  V30 24 1 8 24
M  V30 END BOND
M  V30 END CTAB
M  END
>  <Structure No>
1515

>  <LogS>
1.410187143

>  <MMFF94 Energy>
21.803

$$$$
Compound 1516
Actelion Java MolfileCreator 2.0

  0  0  0  0  0  0              0 V3000
M  V30 BEGIN CTAB
M  V30 COUNTS 14 14 0 0 0
M  V30 BEGIN ATOM
M  V30 1 O 2.8074 -1.5232 -0.0801 0
M  V30 2 C 2.3439 -0.3566 0.0269 0
M  V30 3 O 3.2269 0.711 0.1428 0 CHG=-1
M  V30 4 C 0.8827 -0.1245 0.0293 0
M  V30 5 C 0.3707 1.1804 0.1489 0
M  V30 6 C -0.0157 -1.2019 -0.0877 0
M  V30 7 C -1.0104 1.401 0.1513 0
M  V30 8 C -1.3958 -0.9753 -0.0848 0
M  V30 9 C -1.8927 0.3245 0.0346 0
M  V30 10 H 1.0352 2.0304 0.2408 0
M  V30 11 H 0.3466 -2.218 -0.1813 0
M  V30 12 H -1.3968 2.408 0.2438 0
M  V30 13 H -2.0806 -1.8088 -0.1751 0
M  V30 14 H -2.9612 0.4977 0.0367 0
M  V30 END ATOM
M  V30 BEGIN BOND
M  V30 1 2 1 2
M  V30 2 1 2 3
M  V30 3 1 2 4
M  V30 4 2 4 5
M  V30 5 1 4 6
M  V30 6 1 5 7
M  V30 7 2 6 8
M  V30 8 2 7 9
M  V30 9 1 8 9
M  V30 10 1 5 10
M  V30 11 1 6 11
M  V30 12 1 7 12
M  V30 13 1 8 13
M  V30 14 1 9 14
M  V30 END BOND
M  V30 END CTAB
M  END
>  <Structure No>
1516

>  <LogS>
0.48726735

>  <MMFF94 Energy>
37.053

$$$$
Compound 1517
Actelion Java MolfileCreator 2.0

  0  0  0  0  0  0              0 V3000
M  V30 BEGIN CTAB
M  V30 COUNTS 29 30 0 0 0
M  V30 BEGIN ATOM
M  V30 1 O 2.8484 -1.1861 2.3733 0
M  V30 2 C 3.0718 -1.5178 1.1777 0
M  V30 3 N 4.1849 -2.3701 0.8954 0
M  V30 4 C 2.1911 -1.0081 0.0981 0
M  V30 5 C 1.414 0.1457 0.3042 0
M  V30 6 C 2.0876 -1.6693 -1.135 0
M  V30 7 N 0.5954 0.6267 -0.6809 0 CHG=1
M  V30 8 C 1.2408 -1.1744 -2.1244 0
M  V30 9 C 0.4968 -0.0212 -1.8799 0
M  V30 10 C -0.2253 1.8174 -0.4282 0
M  V30 11 C -1.5443 1.4176 0.1758 0
M  V30 12 C -2.6339 1.0971 -0.6506 0
M  V30 13 C -1.6792 1.3011 1.5694 0
M  V30 14 C -3.8474 0.6878 -0.0888 0
M  V30 15 C -2.8944 0.8914 2.1272 0
M  V30 16 C -3.9781 0.5868 1.2989 0
M  V30 17 H 4.5077 -2.5488 -0.0802 0
M  V30 18 H 4.7525 -2.761 1.6799 0
M  V30 19 H 1.4712 0.6646 1.2544 0
M  V30 20 H 2.634 -2.5814 -1.3316 0
M  V30 21 H 1.1534 -1.6877 -3.0734 0
M  V30 22 H -0.1653 0.3488 -2.6538 0
M  V30 23 H 0.3089 2.52 0.2499 0
M  V30 24 H -0.3935 2.3814 -1.3731 0
M  V30 25 H -2.5435 1.1629 -1.7277 0
M  V30 26 H -0.8451 1.526 2.2223 0
M  V30 27 H -4.6853 0.4457 -0.7296 0
M  V30 28 H -2.9949 0.8069 3.2015 0
M  V30 29 H -4.9175 0.2685 1.7322 0
M  V30 END ATOM
M  V30 BEGIN BOND
M  V30 1 2 1 2
M  V30 2 1 2 3
M  V30 3 1 2 4
M  V30 4 2 4 5
M  V30 5 1 4 6
M  V30 6 1 5 7
M  V30 7 2 6 8
M  V30 8 2 7 9
M  V30 9 1 7 10
M  V30 10 1 10 11
M  V30 11 2 11 12
M  V30 12 1 11 13
M  V30 13 1 12 14
M  V30 14 2 13 15
M  V30 15 2 14 16
M  V30 16 1 8 9
M  V30 17 1 15 16
M  V30 18 1 3 17
M  V30 19 1 3 18
M  V30 20 1 5 19
M  V30 21 1 6 20
M  V30 22 1 8 21
M  V30 23 1 9 22
M  V30 24 1 10 23
M  V30 25 1 10 24
M  V30 26 1 12 25
M  V30 27 1 13 26
M  V30 28 1 14 27
M  V30 29 1 15 28
M  V30 30 1 16 29
M  V30 END BOND
M  V30 END CTAB
M  END
>  <Structure No>
1517

>  <LogS>
0.293610373

>  <MMFF94 Energy>
43.886

$$$$
Compound 1518
Actelion Java MolfileCreator 2.0

  0  0  0  0  0  0              0 V3000
M  V30 BEGIN CTAB
M  V30 COUNTS 43 43 0 0 0
M  V30 BEGIN ATOM
M  V30 1 O -7.0622 1.3309 1.4876 0
M  V30 2 C -5.8362 0.818 1.0701 0
M  V30 3 C -5.5685 -0.5533 1.1579 0
M  V30 4 C -4.8659 1.6813 0.5544 0
M  V30 5 C -4.3344 -1.0564 0.7363 0
M  V30 6 C -3.6298 1.1822 0.1323 0
M  V30 7 C -3.3457 -0.1949 0.2318 0
M  V30 8 C -2.0568 -0.7773 -0.2133 0
M  V30 9 C -0.9154 -0.0766 -0.3146 0
M  V30 10 C 0.3962 -0.7085 -0.7656 0 CFG=1
M  V30 11 C 0.1915 -1.4349 -2.0911 0
M  V30 12 C 1.4653 0.418 -0.921 0
M  V30 13 C 0.85 -1.7165 0.3134 0
M  V30 14 C -0.2813 -0.8243 -3.1851 0
M  V30 15 C 2.8639 -0.0526 -1.3866 0
M  V30 16 C 3.8021 -0.2935 -0.227 0
M  V30 17 C 4.4722 0.6809 0.4274 0
M  V30 18 C 5.3616 0.2912 1.5797 0
M  V30 19 C 4.376 2.133 0.0193 0
M  V30 20 H -7.7865 0.7309 1.8646 0
M  V30 21 H -6.3159 -1.2304 1.5514 0
M  V30 22 H -5.073 2.741 0.4734 0
M  V30 23 H -4.1476 -2.1209 0.8124 0
M  V30 24 H -2.9168 1.8753 -0.2914 0
M  V30 25 H -2.0386 -1.8378 -0.4351 0
M  V30 26 H -0.9079 0.9708 -0.0429 0
M  V30 27 H 0.4349 -2.4918 -2.1634 0
M  V30 28 H 1.0958 1.1626 -1.6601 0
M  V30 29 H 1.5525 0.9707 0.0406 0
M  V30 30 H 1.7591 -2.2642 -0.0089 0
M  V30 31 H 1.0691 -1.1938 1.2696 0
M  V30 32 H 0.0655 -2.4789 0.5061 0
M  V30 33 H -0.4086 -1.384 -4.1058 0
M  V30 34 H -0.5513 0.2266 -3.1707 0
M  V30 35 H 3.3044 0.7013 -2.0726 0
M  V30 36 H 2.787 -0.9875 -1.9795 0
M  V30 37 H 3.9546 -1.3254 0.0779 0
M  V30 38 H 4.7567 -0.2049 2.3681 0
M  V30 39 H 6.1459 -0.4118 1.2277 0
M  V30 40 H 5.8626 1.173 2.0301 0
M  V30 41 H 4.9892 2.7814 0.6788 0
M  V30 42 H 3.3274 2.487 0.0821 0
M  V30 43 H 4.7478 2.2604 -1.0185 0
M  V30 END ATOM
M  V30 BEGIN BOND
M  V30 1 1 1 2
M  V30 2 2 2 3
M  V30 3 1 2 4
M  V30 4 1 3 5
M  V30 5 2 4 6
M  V30 6 2 5 7
M  V30 7 1 7 8
M  V30 8 2 8 9
M  V30 9 1 9 10
M  V30 10 1 10 11
M  V30 11 1 10 12
M  V30 12 1 10 13
M  V30 13 2 11 14
M  V30 14 1 12 15
M  V30 15 1 15 16
M  V30 16 2 16 17
M  V30 17 1 17 18
M  V30 18 1 17 19
M  V30 19 1 6 7
M  V30 20 1 1 20
M  V30 21 1 3 21
M  V30 22 1 4 22
M  V30 23 1 5 23
M  V30 24 1 6 24
M  V30 25 1 8 25
M  V30 26 1 9 26
M  V30 27 1 11 27
M  V30 28 1 12 28
M  V30 29 1 12 29
M  V30 30 1 13 30
M  V30 31 1 13 31
M  V30 32 1 13 32
M  V30 33 1 14 33
M  V30 34 1 14 34
M  V30 35 1 15 35
M  V30 36 1 15 36
M  V30 37 1 16 37
M  V30 38 1 18 38
M  V30 39 1 18 39
M  V30 40 1 18 40
M  V30 41 1 19 41
M  V30 42 1 19 42
M  V30 43 1 19 43
M  V30 END BOND
M  V30 BEGIN COLLECTION
M  V30 MDLV30/STEABS ATOMS=(1 10)
M  V30 END COLLECTION
M  V30 END CTAB
M  END
>  <Structure No>
1518

>  <LogS>
-6.337017381

>  <MMFF94 Energy>
40.342

$$$$
Compound 1519
Actelion Java MolfileCreator 2.0

  0  0  0  0  0  0              0 V3000
M  V30 BEGIN CTAB
M  V30 COUNTS 27 26 0 0 0
M  V30 BEGIN ATOM
M  V30 1 O 2.8055 0.3892 -1.324 0
M  V30 2 C 3.0406 0.0083 -0.1451 0
M  V30 3 O 2.1271 0.2584 0.8853 0
M  V30 4 C 4.333 -0.6649 0.1681 0
M  V30 5 C 0.8548 0.869 0.6764 0
M  V30 6 C -0.1199 -0.1338 0.034 0
M  V30 7 C -1.6053 0.3518 -0.0708 0
M  V30 8 O -2.3987 -0.5304 -0.8671 0
M  V30 9 C -1.6586 1.7101 -0.7983 0
M  V30 10 C -2.2427 0.5347 1.329 0
M  V30 11 C -2.3467 -1.8866 -0.4664 0
M  V30 12 H 4.6337 -1.3238 -0.6736 0
M  V30 13 H 4.2265 -1.2814 1.0851 0
M  V30 14 H 5.1187 0.1012 0.3331 0
M  V30 15 H 0.4668 1.1897 1.6644 0
M  V30 16 H 0.9789 1.7718 0.0411 0
M  V30 17 H 0.2463 -0.3835 -0.9852 0
M  V30 18 H -0.0741 -1.065 0.639 0
M  V30 19 H -1.1944 2.5222 -0.1999 0
M  V30 20 H -1.138 1.6444 -1.7779 0
M  V30 21 H -2.7149 1.9991 -0.9896 0
M  V30 22 H -2.0178 -0.323 1.9959 0
M  V30 23 H -3.3457 0.6331 1.2361 0
M  V30 24 H -1.861 1.4481 1.8324 0
M  V30 25 H -2.4751 -2.0248 0.6259 0
M  V30 26 H -1.4059 -2.3622 -0.8151 0
M  V30 27 H -3.1817 -2.4258 -0.9585 0
M  V30 END ATOM
M  V30 BEGIN BOND
M  V30 1 2 1 2
M  V30 2 1 2 3
M  V30 3 1 2 4
M  V30 4 1 3 5
M  V30 5 1 5 6
M  V30 6 1 6 7
M  V30 7 1 7 8
M  V30 8 1 7 9
M  V30 9 1 7 10
M  V30 10 1 8 11
M  V30 11 1 4 12
M  V30 12 1 4 13
M  V30 13 1 4 14
M  V30 14 1 5 15
M  V30 15 1 5 16
M  V30 16 1 6 17
M  V30 17 1 6 18
M  V30 18 1 9 19
M  V30 19 1 9 20
M  V30 20 1 9 21
M  V30 21 1 10 22
M  V30 22 1 10 23
M  V30 23 1 10 24
M  V30 24 1 11 25
M  V30 25 1 11 26
M  V30 26 1 11 27
M  V30 END BOND
M  V30 END CTAB
M  END
>  <Structure No>
1519

>  <LogS>
-0.439029198

>  <MMFF94 Energy>
7.6611

$$$$
Compound 1520
Actelion Java MolfileCreator 2.0

  0  0  0  0  0  0              0 V3000
M  V30 BEGIN CTAB
M  V30 COUNTS 127 137 0 0 0
M  V30 BEGIN ATOM
M  V30 1 Cl -3.7539 -3.5791 -1.3083 0
M  V30 2 C -3.9418 -1.8398 -1.295 0
M  V30 3 N -5.1805 -1.2951 -1.2274 0
M  V30 4 N -2.8488 -1.0389 -1.3623 0
M  V30 5 C -5.3299 0.0569 -1.2235 0
M  V30 6 C -2.9908 0.3137 -1.3376 0
M  V30 7 N -4.2334 0.8526 -1.2784 0
M  V30 8 N -6.6294 0.6523 -1.1936 0
M  V30 9 N -1.859 1.1876 -1.4381 0
M  V30 10 C -7.8314 -0.1219 -1.1813 0
M  V30 11 C -0.4807 0.7798 -1.4252 0
M  V30 12 C -8.3461 -0.5717 0.047 0
M  V30 13 C -8.5171 -0.3751 -2.3807 0
M  V30 14 C 0.4643 1.5682 -2.101 0
M  V30 15 C -0.0362 -0.3251 -0.6739 0
M  V30 16 O -7.5305 -0.4345 1.1725 0
M  V30 17 C -9.635 -1.1711 0.0965 0
M  V30 18 S -7.8709 0.1826 -3.9272 0
M  V30 19 C -9.7187 -1.087 -2.3491 0
M  V30 20 C 1.8232 1.2551 -2.04 0
M  V30 21 C 1.3257 -0.6458 -0.6317 0
M  V30 22 C -10.338 -1.4068 1.3067 0
M  V30 23 C -10.2904 -1.4698 -1.1296 0
M  V30 24 O -6.5297 -0.4496 -4.1707 0
M  V30 25 O -7.7308 1.6779 -3.9058 0
M  V30 26 O -8.9043 -0.2462 -5.1834 0 CHG=-1
M  V30 27 C 2.2636 0.1411 -1.3175 0
M  V30 28 N -9.8833 -0.8625 2.5588 0
M  V30 29 C -11.5698 -2.0811 1.2805 0
M  V30 30 C -11.5337 -2.1187 -1.1314 0
M  V30 31 N 3.6701 -0.1032 -1.1958 0
M  V30 32 N -10.5252 0.0173 3.2311 0
M  V30 33 C -12.1609 -2.4482 0.0716 0
M  V30 34 C 4.2429 -1.4069 -1.0543 0
M  V30 35 C -11.7423 0.6278 2.777 0
M  V30 36 S -13.7367 -3.2336 0.0644 0
M  V30 37 N 3.6301 -2.4992 -1.5829 0
M  V30 38 N 5.4446 -1.5425 -0.4409 0
M  V30 39 C -11.7491 1.5998 1.7539 0
M  V30 40 C -12.9438 0.1736 3.3203 0
M  V30 41 O -13.9034 -4.0527 1.3136 0
M  V30 42 O -13.8459 -4.1467 -1.1267 0
M  V30 43 O -14.9424 -2.0687 -0.0087 0 CHG=-1
M  V30 44 C 4.2256 -3.7185 -1.5025 0
M  V30 45 C 6.0387 -2.7612 -0.3457 0
M  V30 46 S -10.2349 2.4128 1.2734 0
M  V30 47 C -12.9931 1.9775 1.1705 0
M  V30 48 C -14.1645 0.59 2.8034 0
M  V30 49 Cl 3.434 -5.1218 -2.1798 0
M  V30 50 N 5.433 -3.8479 -0.8892 0
M  V30 51 N 7.2728 -2.9001 0.3675 0
M  V30 52 O -9.0748 1.9924 2.1297 0
M  V30 53 O -10.4104 3.8974 1.4289 0
M  V30 54 O -9.8836 2.0631 -0.3287 0 CHG=-1
M  V30 55 C -14.2156 1.4674 1.7039 0
M  V30 56 C -13.0499 2.8355 0.0534 0
M  V30 57 C 7.6398 -1.943 1.3689 0
M  V30 58 C -15.4538 1.8473 1.118 0
M  V30 59 C -14.268 3.1864 -0.5177 0
M  V30 60 C 8.7068 -1.0623 1.1217 0
M  V30 61 C 6.8925 -1.8325 2.5618 0
M  V30 62 S -17.0175 1.2744 1.7262 0
M  V30 63 C -15.4587 2.702 0.0104 0
M  V30 64 O 9.4421 -1.2283 -0.0445 0 CHG=-1
M  V30 65 C 9.0097 -0.0252 2.041 0
M  V30 66 S 5.6235 -2.9904 2.9803 0
M  V30 67 C 7.1744 -0.7961 3.457 0
M  V30 68 O -17.1888 1.6977 3.1568 0
M  V30 69 O -17.0774 -0.223 1.625 0
M  V30 70 O -18.2802 1.9227 0.822 0 CHG=-1
M  V30 71 C 10.0871 0.8754 1.8451 0
M  V30 72 C 8.2186 0.1009 3.2095 0
M  V30 73 O 5.9711 -4.357 2.4595 0
M  V30 74 O 4.3113 -2.5483 2.3912 0
M  V30 75 O 5.4756 -3.0909 4.651 0 CHG=-1
M  V30 76 N 10.9147 0.8042 0.682 0
M  V30 77 C 10.3529 1.8728 2.7961 0
M  V30 78 C 8.4853 1.1203 4.132 0
M  V30 79 N 12.1677 0.6171 0.8003 0
M  V30 80 C 9.5496 2.0041 3.9317 0
M  V30 81 C 13.0531 0.5867 -0.325 0
M  V30 82 S 9.8473 3.3004 5.0876 0
M  V30 83 C 14.3143 -0.0389 -0.2154 0
M  V30 84 C 12.6911 1.2252 -1.5162 0
M  V30 85 O 11.2583 3.8013 4.9531 0
M  V30 86 O 9.6461 2.786 6.485 0
M  V30 87 O 8.7811 4.5636 4.79 0 CHG=-1
M  V30 88 S 14.6848 -1.0402 1.2187 0
M  V30 89 C 15.2555 0.1064 -1.2772 0
M  V30 90 C 13.5837 1.3138 -2.5781 0
M  V30 91 O 15.2422 -2.3623 0.7761 0
M  V30 92 O 13.4506 -1.322 2.0349 0
M  V30 93 O 15.8027 -0.2432 2.1873 0 CHG=-1
M  V30 94 C 14.8834 0.7873 -2.475 0
M  V30 95 C 16.5692 -0.3999 -1.1711 0
M  V30 96 C 15.8237 0.9289 -3.5308 0
M  V30 97 C 17.4743 -0.2615 -2.2166 0
M  V30 98 S 15.4447 1.7841 -5.0376 0
M  V30 99 C 17.1072 0.3862 -3.3869 0
M  V30 100 O 14.3461 1.0595 -5.7676 0
M  V30 101 O 16.6608 1.8442 -5.9234 0
M  V30 102 O 14.9629 3.3548 -4.69 0 CHG=-1
M  V30 103 H -6.7109 1.6931 -1.2343 0
M  V30 104 H -2.057 2.1988 -1.6185 0
M  V30 105 H 0.1449 2.434 -2.6663 0
M  V30 106 H -0.7199 -0.9062 -0.0748 0
M  V30 107 H -7.5866 -1.0462 1.9716 0
M  V30 108 H -10.2331 -1.308 -3.277 0
M  V30 109 H 2.5368 1.8862 -2.5571 0
M  V30 110 H 1.6521 -1.4744 -0.0148 0
M  V30 111 H -12.0831 -2.2853 2.2121 0
M  V30 112 H -12.0267 -2.3527 -2.068 0
M  V30 113 H 4.3236 0.7137 -1.2141 0
M  V30 114 H -12.9304 -0.5507 4.127 0
M  V30 115 H -15.055 0.1865 3.2566 0
M  V30 116 H 7.9471 -3.6394 0.0797 0
M  V30 117 H -12.1615 3.237 -0.4095 0
M  V30 118 H -14.2898 3.8429 -1.3801 0
M  V30 119 H -16.3885 2.9968 -0.4572 0
M  V30 120 H 6.585 -0.7021 4.3625 0
M  V30 121 H 11.1694 2.5638 2.6289 0
M  V30 122 H 7.8719 1.2303 5.0208 0
M  V30 123 H 11.7178 1.6925 -1.6159 0
M  V30 124 H 13.2411 1.8247 -3.468 0
M  V30 125 H 16.9275 -0.8824 -0.2762 0
M  V30 126 H 18.4734 -0.6653 -2.118 0
M  V30 127 H 17.8375 0.4746 -4.1799 0
M  V30 END ATOM
M  V30 BEGIN BOND
M  V30 1 1 1 2
M  V30 2 2 2 3
M  V30 3 1 2 4
M  V30 4 1 3 5
M  V30 5 2 4 6
M  V30 6 2 5 7
M  V30 7 1 5 8
M  V30 8 1 6 9
M  V30 9 1 8 10
M  V30 10 1 9 11
M  V30 11 2 10 12
M  V30 12 1 10 13
M  V30 13 2 11 14
M  V30 14 1 11 15
M  V30 15 1 12 16
M  V30 16 1 12 17
M  V30 17 1 13 18
M  V30 18 2 13 19
M  V30 19 1 14 20
M  V30 20 2 15 21
M  V30 21 2 17 22
M  V30 22 1 17 23
M  V30 23 2 18 24
M  V30 24 2 18 25
M  V30 25 1 18 26
M  V30 26 2 20 27
M  V30 27 1 22 28
M  V30 28 1 22 29
M  V30 29 2 23 30
M  V30 30 1 27 31
M  V30 31 2 28 32
M  V30 32 2 29 33
M  V30 33 1 31 34
M  V30 34 1 32 35
M  V30 35 1 33 36
M  V30 36 2 34 37
M  V30 37 1 34 38
M  V30 38 2 35 39
M  V30 39 1 35 40
M  V30 40 2 36 41
M  V30 41 2 36 42
M  V30 42 1 36 43
M  V30 43 1 37 44
M  V30 44 2 38 45
M  V30 45 1 39 46
M  V30 46 1 39 47
M  V30 47 2 40 48
M  V30 48 1 44 49
M  V30 49 2 44 50
M  V30 50 1 45 51
M  V30 51 2 46 52
M  V30 52 2 46 53
M  V30 53 1 46 54
M  V30 54 1 47 55
M  V30 55 2 47 56
M  V30 56 1 51 57
M  V30 57 2 55 58
M  V30 58 1 56 59
M  V30 59 2 57 60
M  V30 60 1 57 61
M  V30 61 1 58 62
M  V30 62 1 58 63
M  V30 63 1 60 64
M  V30 64 1 60 65
M  V30 65 1 61 66
M  V30 66 2 61 67
M  V30 67 2 62 68
M  V30 68 2 62 69
M  V30 69 1 62 70
M  V30 70 2 65 71
M  V30 71 1 65 72
M  V30 72 2 66 73
M  V30 73 2 66 74
M  V30 74 1 66 75
M  V30 75 1 71 76
M  V30 76 1 71 77
M  V30 77 2 72 78
M  V30 78 2 76 79
M  V30 79 2 77 80
M  V30 80 1 79 81
M  V30 81 1 80 82
M  V30 82 2 81 83
M  V30 83 1 81 84
M  V30 84 2 82 85
M  V30 85 2 82 86
M  V30 86 1 82 87
M  V30 87 1 83 88
M  V30 88 1 83 89
M  V30 89 2 84 90
M  V30 90 2 88 91
M  V30 91 2 88 92
M  V30 92 1 88 93
M  V30 93 1 89 94
M  V30 94 2 89 95
M  V30 95 2 94 96
M  V30 96 1 95 97
M  V30 97 1 96 98
M  V30 98 1 96 99
M  V30 99 2 98 100
M  V30 100 2 98 101
M  V30 101 1 98 102
M  V30 102 1 6 7
M  V30 103 1 19 23
M  V30 104 1 21 27
M  V30 105 1 30 33
M  V30 106 1 45 50
M  V30 107 1 48 55
M  V30 108 2 59 63
M  V30 109 1 67 72
M  V30 110 1 78 80
M  V30 111 1 90 94
M  V30 112 2 97 99
M  V30 113 1 8 103
M  V30 114 1 9 104
M  V30 115 1 14 105
M  V30 116 1 15 106
M  V30 117 1 16 107
M  V30 118 1 19 108
M  V30 119 1 20 109
M  V30 120 1 21 110
M  V30 121 1 29 111
M  V30 122 1 30 112
M  V30 123 1 31 113
M  V30 124 1 40 114
M  V30 125 1 48 115
M  V30 126 1 51 116
M  V30 127 1 56 117
M  V30 128 1 59 118
M  V30 129 1 63 119
M  V30 130 1 67 120
M  V30 131 1 77 121
M  V30 132 1 78 122
M  V30 133 1 84 123
M  V30 134 1 90 124
M  V30 135 1 95 125
M  V30 136 1 97 126
M  V30 137 1 99 127
M  V30 END BOND
M  V30 END CTAB
M  END
>  <Structure No>
1520

>  <LogS>
-0.634868411

>  <MMFF94 Energy>
779.41

$$$$
Compound 1521
Actelion Java MolfileCreator 2.0

  0  0  0  0  0  0              0 V3000
M  V30 BEGIN CTAB
M  V30 COUNTS 66 66 0 0 0
M  V30 BEGIN ATOM
M  V30 1 N -4.614 -0.1561 1.484 0 CHG=1
M  V30 2 C -5.1186 -1.104 0.4409 0
M  V30 3 C -3.6602 -0.845 2.4249 0
M  V30 4 C -3.9696 1.0289 0.8597 0
M  V30 5 C -5.7469 0.3383 2.3145 0
M  V30 6 C -6.2481 -0.5644 -0.4199 0
M  V30 7 C -2.6084 -1.8245 1.825 0
M  V30 8 C -7.5874 -0.8366 -0.085 0
M  V30 9 C -5.9709 0.1898 -1.5742 0
M  V30 10 C -1.4438 -1.2191 1.0234 0
M  V30 11 C -8.6273 -0.3489 -0.8819 0
M  V30 12 C -7.0149 0.6756 -2.3673 0
M  V30 13 C -0.6178 -0.2024 1.8305 0
M  V30 14 C -8.342 0.4038 -2.0228 0
M  V30 15 C 0.6057 0.3189 1.0601 0
M  V30 16 C 1.6591 -0.7741 0.7975 0
M  V30 17 C 3.0463 -0.2007 0.4712 0
M  V30 18 C 3.0583 0.6304 -0.8232 0
M  V30 19 C 4.4779 1.0829 -1.2052 0
M  V30 20 C 5.2572 -0.0141 -1.9508 0
M  V30 21 C 6.6946 0.4165 -2.2887 0
M  V30 22 C 7.639 0.2975 -1.082 0
M  V30 23 C 9.0754 0.669 -1.4689 0
M  V30 24 C 10.0238 0.5062 -0.2832 0
M  V30 25 H -5.4637 -2.0472 0.9244 0
M  V30 26 H -4.2953 -1.3964 -0.2462 0
M  V30 27 H -4.2442 -1.4778 3.1338 0
M  V30 28 H -3.1496 -0.1076 3.0826 0
M  V30 29 H -3.2753 0.7493 0.0498 0
M  V30 30 H -4.7218 1.7031 0.3945 0
M  V30 31 H -3.4211 1.6381 1.6103 0
M  V30 32 H -6.4541 0.9681 1.7301 0
M  V30 33 H -5.378 0.9685 3.1549 0
M  V30 34 H -6.3261 -0.5064 2.7469 0
M  V30 35 H -2.1551 -2.3746 2.6802 0
M  V30 36 H -3.0992 -2.6143 1.2202 0
M  V30 37 H -7.8248 -1.4237 0.7939 0
M  V30 38 H -4.9478 0.4061 -1.8597 0
M  V30 39 H -0.7853 -2.0674 0.7416 0
M  V30 40 H -1.7945 -0.7839 0.0702 0
M  V30 41 H -9.6552 -0.554 -0.6148 0
M  V30 42 H -6.7948 1.2585 -3.2521 0
M  V30 43 H -0.2866 -0.6586 2.789 0
M  V30 44 H -1.2503 0.6747 2.0771 0
M  V30 45 H -9.1488 0.7817 -2.6381 0
M  V30 46 H 0.2722 0.7601 0.0956 0
M  V30 47 H 1.0641 1.1327 1.6637 0
M  V30 48 H 1.7614 -1.4139 1.701 0
M  V30 49 H 1.3276 -1.4226 -0.0422 0
M  V30 50 H 3.7497 -1.0545 0.3722 0
M  V30 51 H 3.3985 0.4245 1.3204 0
M  V30 52 H 2.4415 1.5404 -0.6683 0
M  V30 53 H 2.6027 0.0532 -1.6575 0
M  V30 54 H 4.3974 1.9687 -1.8722 0
M  V30 55 H 5.0246 1.4053 -0.2934 0
M  V30 56 H 5.2771 -0.9558 -1.3614 0
M  V30 57 H 4.7262 -0.2335 -2.9035 0
M  V30 58 H 7.0722 -0.2441 -3.0996 0
M  V30 59 H 6.7004 1.4595 -2.6763 0
M  V30 60 H 7.621 -0.7487 -0.7026 0
M  V30 61 H 7.3005 0.9719 -0.2666 0
M  V30 62 H 9.1077 1.7251 -1.8155 0
M  V30 63 H 9.4228 0.016 -2.2988 0
M  V30 64 H 10.0323 -0.5519 0.0572 0
M  V30 65 H 11.052 0.7914 -0.5874 0
M  V30 66 H 9.7086 1.1611 0.5571 0
M  V30 END ATOM
M  V30 BEGIN BOND
M  V30 1 1 1 2
M  V30 2 1 1 3
M  V30 3 1 1 4
M  V30 4 1 1 5
M  V30 5 1 2 6
M  V30 6 1 3 7
M  V30 7 2 6 8
M  V30 8 1 6 9
M  V30 9 1 7 10
M  V30 10 1 8 11
M  V30 11 2 9 12
M  V30 12 1 10 13
M  V30 13 2 11 14
M  V30 14 1 13 15
M  V30 15 1 15 16
M  V30 16 1 16 17
M  V30 17 1 17 18
M  V30 18 1 18 19
M  V30 19 1 19 20
M  V30 20 1 20 21
M  V30 21 1 21 22
M  V30 22 1 22 23
M  V30 23 1 23 24
M  V30 24 1 12 14
M  V30 25 1 2 25
M  V30 26 1 2 26
M  V30 27 1 3 27
M  V30 28 1 3 28
M  V30 29 1 4 29
M  V30 30 1 4 30
M  V30 31 1 4 31
M  V30 32 1 5 32
M  V30 33 1 5 33
M  V30 34 1 5 34
M  V30 35 1 7 35
M  V30 36 1 7 36
M  V30 37 1 8 37
M  V30 38 1 9 38
M  V30 39 1 10 39
M  V30 40 1 10 40
M  V30 41 1 11 41
M  V30 42 1 12 42
M  V30 43 1 13 43
M  V30 44 1 13 44
M  V30 45 1 14 45
M  V30 46 1 15 46
M  V30 47 1 15 47
M  V30 48 1 16 48
M  V30 49 1 16 49
M  V30 50 1 17 50
M  V30 51 1 17 51
M  V30 52 1 18 52
M  V30 53 1 18 53
M  V30 54 1 19 54
M  V30 55 1 19 55
M  V30 56 1 20 56
M  V30 57 1 20 57
M  V30 58 1 21 58
M  V30 59 1 21 59
M  V30 60 1 22 60
M  V30 61 1 22 61
M  V30 62 1 23 62
M  V30 63 1 23 63
M  V30 64 1 24 64
M  V30 65 1 24 65
M  V30 66 1 24 66
M  V30 END BOND
M  V30 END CTAB
M  END
>  <Structure No>
1521

>  <LogS>
-0.953121785

>  <MMFF94 Energy>
27.918

$$$$
Compound 1522
Actelion Java MolfileCreator 2.0

  0  0  0  0  0  0              0 V3000
M  V30 BEGIN CTAB
M  V30 COUNTS 17 17 0 0 0
M  V30 BEGIN ATOM
M  V30 1 O -3.18 1.5095 1.748 0
M  V30 2 C -2.2889 0.9731 1.0397 0
M  V30 3 N -0.9044 1.1977 1.2259 0
M  V30 4 N -2.5662 0.0839 -0.0229 0
M  V30 5 C -0.3069 0.4899 0.3194 0
M  V30 6 C -1.2654 -0.2903 -0.5572 0 CFG=1
M  V30 7 N 1.1263 0.4687 0.2175 0
M  V30 8 O -1.0632 -1.6753 -0.441 0
M  V30 9 C 1.8708 -0.1778 -0.8264 0
M  V30 10 O 1.2858 -0.7128 -1.8051 0
M  V30 11 N 3.2963 -0.204 -0.7673 0
M  V30 12 H -3.5044 -0.2306 -0.3562 0
M  V30 13 H -1.1881 0.0279 -1.618 0
M  V30 14 H 1.667 0.9739 0.9553 0
M  V30 15 H -1.2013 -1.919 0.5122 0
M  V30 16 H 3.8039 0.235 0.0322 0
M  V30 17 H 3.8475 -0.6659 -1.5245 0
M  V30 END ATOM
M  V30 BEGIN BOND
M  V30 1 2 1 2
M  V30 2 1 2 3
M  V30 3 1 2 4
M  V30 4 2 3 5
M  V30 5 1 4 6
M  V30 6 1 5 7
M  V30 7 1 6 8
M  V30 8 1 7 9
M  V30 9 2 9 10
M  V30 10 1 9 11
M  V30 11 1 5 6
M  V30 12 1 4 12
M  V30 13 1 6 13
M  V30 14 1 7 14
M  V30 15 1 8 15
M  V30 16 1 11 16
M  V30 17 1 11 17
M  V30 END BOND
M  V30 BEGIN COLLECTION
M  V30 MDLV30/STEABS ATOMS=(1 6)
M  V30 END COLLECTION
M  V30 END CTAB
M  END
>  <Structure No>
1522

>  <LogS>
-1.508782486

>  <MMFF94 Energy>
-166.97

$$$$
Compound 1523
Actelion Java MolfileCreator 2.0

  0  0  0  0  0  0              0 V3000
M  V30 BEGIN CTAB
M  V30 COUNTS 63 67 0 0 0
M  V30 BEGIN ATOM
M  V30 1 S 0.0 0.9189 1.7549 0
M  V30 2 O -1.0037 1.1558 0.6604 0
M  V30 3 O 0.5564 2.2546 2.1663 0
M  V30 4 O -0.7603 0.2192 3.082 0 CHG=-1
M  V30 5 C 1.317 -0.1203 1.1724 0
M  V30 6 C 1.1496 -1.0572 0.0126 0
M  V30 7 C 2.5486 0.133 1.6416 0
M  V30 8 N 0.0241 -1.6362 -0.3018 0
M  V30 9 C 2.3419 -1.3812 -0.7909 0
M  V30 10 C 3.7725 -0.3665 0.9691 0
M  V30 11 N -1.1202 -1.6488 0.5092 0
M  V30 12 O 2.2192 -1.93 -1.9188 0
M  V30 13 C 3.6779 -1.083 -0.2393 0
M  V30 14 C 5.0367 -0.0284 1.4789 0
M  V30 15 C -2.4383 -1.5663 -0.0539 0
M  V30 16 C 4.8496 -1.4911 -0.8988 0
M  V30 17 C 6.2042 -0.3954 0.7895 0
M  V30 18 C -3.5553 -1.6003 0.7973 0
M  V30 19 C -2.6298 -1.3694 -1.4351 0
M  V30 20 C 6.1006 -1.16 -0.3794 0
M  V30 21 N 7.5004 0.0246 1.2445 0
M  V30 22 C -4.8417 -1.4116 0.2841 0
M  V30 23 C -3.9184 -1.1939 -1.9514 0
M  V30 24 C 7.8033 1.3968 1.574 0
M  V30 25 C -5.0295 -1.1981 -1.0965 0
M  V30 26 O 6.8705 2.2393 1.6705 0
M  V30 27 C 9.201 1.8572 1.7683 0
M  V30 28 N -6.3265 -0.9246 -1.6433 0
M  V30 29 C 10.2794 1.2112 1.132 0
M  V30 30 C 9.4617 2.997 2.5544 0
M  V30 31 N -7.361 -0.8258 -0.9093 0
M  V30 32 C 11.585 1.6877 1.2961 0
M  V30 33 C 10.7689 3.4713 2.7122 0
M  V30 34 C -8.6505 -0.5052 -1.4451 0
M  V30 35 C 11.83 2.8173 2.0812 0
M  V30 36 C -8.833 -0.215 -2.8099 0
M  V30 37 C -9.7472 -0.4376 -0.5745 0
M  V30 38 C -10.0936 0.1599 -3.2858 0
M  V30 39 C -11.008 -0.0731 -1.0548 0
M  V30 40 C -11.1828 0.2421 -2.4101 0
M  V30 41 S -12.7616 0.7247 -3.0202 0
M  V30 42 O -12.6014 1.8787 -3.9709 0
M  V30 43 O -13.6472 1.1534 -1.8849 0
M  V30 44 O -13.471 -0.5693 -3.8201 0 CHG=-1
M  V30 45 H 2.6701 0.8196 2.4717 0
M  V30 46 H -1.0081 -1.7777 1.5437 0
M  V30 47 H 5.1115 0.5411 2.3975 0
M  V30 48 H 4.8 -2.0521 -1.8237 0
M  V30 49 H -3.4266 -1.7429 1.8639 0
M  V30 50 H -1.785 -1.33 -2.1109 0
M  V30 51 H 6.9925 -1.4622 -0.9135 0
M  V30 52 H 8.2774 -0.6699 1.166 0
M  V30 53 H -5.6842 -1.4176 0.9678 0
M  V30 54 H -4.053 -1.0299 -3.0171 0
M  V30 55 H 10.1206 0.3623 0.4788 0
M  V30 56 H 8.6554 3.5214 3.0519 0
M  V30 57 H 12.4064 1.1904 0.7938 0
M  V30 58 H 10.9598 4.3529 3.3145 0
M  V30 59 H 12.8412 3.1905 2.1975 0
M  V30 60 H -8.0034 -0.2631 -3.5011 0
M  V30 61 H -9.62 -0.6556 0.4822 0
M  V30 62 H -10.2184 0.3942 -4.3347 0
M  V30 63 H -11.8427 -0.0246 -0.3642 0
M  V30 END ATOM
M  V30 BEGIN BOND
M  V30 1 2 1 2
M  V30 2 2 1 3
M  V30 3 1 1 4
M  V30 4 1 1 5
M  V30 5 1 5 6
M  V30 6 2 5 7
M  V30 7 2 6 8
M  V30 8 1 6 9
M  V30 9 1 7 10
M  V30 10 1 8 11
M  V30 11 2 9 12
M  V30 12 1 9 13
M  V30 13 1 10 14
M  V30 14 1 11 15
M  V30 15 1 13 16
M  V30 16 2 14 17
M  V30 17 2 15 18
M  V30 18 1 15 19
M  V30 19 2 16 20
M  V30 20 1 17 21
M  V30 21 1 18 22
M  V30 22 2 19 23
M  V30 23 1 21 24
M  V30 24 2 22 25
M  V30 25 2 24 26
M  V30 26 1 24 27
M  V30 27 1 25 28
M  V30 28 2 27 29
M  V30 29 1 27 30
M  V30 30 2 28 31
M  V30 31 1 29 32
M  V30 32 2 30 33
M  V30 33 1 31 34
M  V30 34 2 32 35
M  V30 35 2 34 36
M  V30 36 1 34 37
M  V30 37 1 36 38
M  V30 38 2 37 39
M  V30 39 2 38 40
M  V30 40 1 40 41
M  V30 41 2 41 42
M  V30 42 2 41 43
M  V30 43 1 41 44
M  V30 44 2 10 13
M  V30 45 1 17 20
M  V30 46 1 23 25
M  V30 47 1 33 35
M  V30 48 1 39 40
M  V30 49 1 7 45
M  V30 50 1 11 46
M  V30 51 1 14 47
M  V30 52 1 16 48
M  V30 53 1 18 49
M  V30 54 1 19 50
M  V30 55 1 20 51
M  V30 56 1 21 52
M  V30 57 1 22 53
M  V30 58 1 23 54
M  V30 59 1 29 55
M  V30 60 1 30 56
M  V30 61 1 32 57
M  V30 62 1 33 58
M  V30 63 1 35 59
M  V30 64 1 36 60
M  V30 65 1 37 61
M  V30 66 1 38 62
M  V30 67 1 39 63
M  V30 END BOND
M  V30 END CTAB
M  END
>  <Structure No>
1523

>  <LogS>
-2.156676448

>  <MMFF94 Energy>
174.68

$$$$
Compound 1524
Actelion Java MolfileCreator 2.0

  0  0  0  0  0  0              0 V3000
M  V30 BEGIN CTAB
M  V30 COUNTS 48 51 0 0 0
M  V30 BEGIN ATOM
M  V30 1 S -4.3653 3.0206 -0.8384 0
M  V30 2 O -4.8348 2.8108 -2.2505 0
M  V30 3 O -3.3395 4.1192 -0.829 0
M  V30 4 O -5.6678 3.4628 0.1251 0 CHG=-1
M  V30 5 C -3.6553 1.5342 -0.2176 0
M  V30 6 C -2.6419 1.5886 0.7424 0
M  V30 7 C -4.1375 0.2942 -0.6446 0
M  V30 8 C -2.0783 0.416 1.2526 0
M  V30 9 C -3.5768 -0.8944 -0.1532 0
M  V30 10 O -1.1404 0.5319 2.2718 0 CHG=-1
M  V30 11 C -2.4955 -0.8483 0.7671 0
M  V30 12 C -4.096 -2.1276 -0.5653 0
M  V30 13 C -1.8956 -2.0696 1.1835 0
M  V30 14 C -3.5633 -3.3157 -0.0737 0
M  V30 15 N -0.6738 -2.0887 1.942 0
M  V30 16 C -2.4684 -3.2995 0.7965 0
M  V30 17 N 0.4529 -1.6527 1.5189 0
M  V30 18 N -1.9123 -4.5431 1.2428 0
M  V30 19 C 0.7143 -1.162 0.1908 0
M  V30 20 C 1.4811 0.0107 4.0E-4 0
M  V30 21 C 0.2727 -1.8827 -0.9344 0
M  V30 22 S 2.1413 0.9424 1.3531 0
M  V30 23 C 1.7091 0.4816 -1.3022 0
M  V30 24 C 0.5166 -1.4068 -2.2234 0
M  V30 25 O 1.2679 2.1419 1.5939 0
M  V30 26 O 2.1992 0.1252 2.6132 0
M  V30 27 C 3.782 1.4511 0.9621 0
M  V30 28 C 1.2246 -0.2203 -2.4067 0
M  V30 29 C 4.7993 0.4917 0.8604 0
M  V30 30 C 4.0782 2.8027 0.7288 0
M  V30 31 C 6.1024 0.8808 0.535 0
M  V30 32 C 5.3825 3.1888 0.4036 0
M  V30 33 C 6.3942 2.2289 0.3076 0
M  V30 34 H -2.2997 2.5464 1.1149 0
M  V30 35 H -4.9536 0.2563 -1.3569 0
M  V30 36 H -4.9289 -2.1732 -1.2572 0
M  V30 37 H -3.9921 -4.2579 -0.3917 0
M  V30 38 H -2.324 -5.4514 0.9325 0
M  V30 39 H -1.0947 -4.578 1.8909 0
M  V30 40 H -0.2451 -2.8243 -0.8179 0
M  V30 41 H 2.2677 1.3948 -1.4643 0
M  V30 42 H 0.1621 -1.963 -3.0814 0
M  V30 43 H 1.4106 0.1493 -3.4069 0
M  V30 44 H 4.5815 -0.5553 1.0295 0
M  V30 45 H 3.3042 3.5562 0.7933 0
M  V30 46 H 6.8853 0.1375 0.4577 0
M  V30 47 H 5.6086 4.232 0.2242 0
M  V30 48 H 7.4028 2.5291 0.055 0
M  V30 END ATOM
M  V30 BEGIN BOND
M  V30 1 2 1 2
M  V30 2 2 1 3
M  V30 3 1 1 4
M  V30 4 1 1 5
M  V30 5 1 5 6
M  V30 6 2 5 7
M  V30 7 2 6 8
M  V30 8 1 7 9
M  V30 9 1 8 10
M  V30 10 1 8 11
M  V30 11 2 9 12
M  V30 12 2 11 13
M  V30 13 1 12 14
M  V30 14 1 13 15
M  V30 15 1 13 16
M  V30 16 2 15 17
M  V30 17 1 16 18
M  V30 18 1 17 19
M  V30 19 2 19 20
M  V30 20 1 19 21
M  V30 21 1 20 22
M  V30 22 1 20 23
M  V30 23 2 21 24
M  V30 24 2 22 25
M  V30 25 2 22 26
M  V30 26 1 22 27
M  V30 27 2 23 28
M  V30 28 2 27 29
M  V30 29 1 27 30
M  V30 30 1 29 31
M  V30 31 2 30 32
M  V30 32 2 31 33
M  V30 33 1 9 11
M  V30 34 2 14 16
M  V30 35 1 24 28
M  V30 36 1 32 33
M  V30 37 1 6 34
M  V30 38 1 7 35
M  V30 39 1 12 36
M  V30 40 1 14 37
M  V30 41 1 18 38
M  V30 42 1 18 39
M  V30 43 1 21 40
M  V30 44 1 23 41
M  V30 45 1 24 42
M  V30 46 1 28 43
M  V30 47 1 29 44
M  V30 48 1 30 45
M  V30 49 1 31 46
M  V30 50 1 32 47
M  V30 51 1 33 48
M  V30 END BOND
M  V30 END CTAB
M  END
>  <Structure No>
1524

>  <LogS>
-2.088831676

>  <MMFF94 Energy>
226.34

$$$$
Compound 1525
Actelion Java MolfileCreator 2.0

  0  0  0  0  0  0              0 V3000
M  V30 BEGIN CTAB
M  V30 COUNTS 9 9 0 0 0
M  V30 BEGIN ATOM
M  V30 1 O 2.3163 -0.7982 -0.0798 0
M  V30 2 C 1.0802 -0.5627 -0.0957 0
M  V30 3 O -0.105 -1.3233 -0.43 0
M  V30 4 C 0.2247 0.612 0.2203 0
M  V30 5 C -0.9072 -0.1952 -0.1249 0
M  V30 6 H 0.4006 1.4547 -0.4825 0
M  V30 7 H 0.2678 0.8788 1.2985 0
M  V30 8 H -1.4456 0.1698 -1.0277 0
M  V30 9 H -1.5772 -0.4014 0.739 0
M  V30 END ATOM
M  V30 BEGIN BOND
M  V30 1 2 1 2
M  V30 2 1 2 3
M  V30 3 1 2 4
M  V30 4 1 3 5
M  V30 5 1 4 5
M  V30 6 1 4 6
M  V30 7 1 4 7
M  V30 8 1 5 8
M  V30 9 1 5 9
M  V30 END BOND
M  V30 END CTAB
M  END
>  <Structure No>
1525

>  <LogS>
0.710489386

>  <MMFF94 Energy>
-5.6516

$$$$
Compound 1526
Actelion Java MolfileCreator 2.0

  0  0  0  0  0  0              0 V3000
M  V30 BEGIN CTAB
M  V30 COUNTS 20 19 0 0 0
M  V30 BEGIN ATOM
M  V30 1 S 4.9516 -1.3781 -0.081 0
M  V30 2 C 3.7205 -0.328 -0.2916 0
M  V30 3 S 4.081 1.3286 -0.9173 0 CHG=-1 VAL=2
M  V30 4 O 2.4194 -0.7348 0.0166 0
M  V30 5 C 1.2839 0.1104 -0.1348 0
M  V30 6 C 0.0255 -0.6507 0.2893 0
M  V30 7 C -1.2761 0.1274 -0.0067 0
M  V30 8 C -2.4921 -0.7833 0.2067 0
M  V30 9 C -1.4056 1.3828 0.8693 0
M  V30 10 H 1.4156 1.0108 0.5019 0
M  V30 11 H 1.1943 0.4197 -1.1991 0
M  V30 12 H 0.0066 -1.6128 -0.2686 0
M  V30 13 H 0.0886 -0.8916 1.3735 0
M  V30 14 H -1.2749 0.4424 -1.0738 0
M  V30 15 H -3.4292 -0.2386 -0.0373 0
M  V30 16 H -2.43 -1.6702 -0.4591 0
M  V30 17 H -2.542 -1.129 1.2617 0
M  V30 18 H -2.3834 1.8786 0.6885 0
M  V30 19 H -0.613 2.118 0.6203 0
M  V30 20 H -1.3333 1.1199 1.9463 0
M  V30 END ATOM
M  V30 BEGIN BOND
M  V30 1 2 1 2
M  V30 2 1 2 3
M  V30 3 1 2 4
M  V30 4 1 4 5
M  V30 5 1 5 6
M  V30 6 1 6 7
M  V30 7 1 7 8
M  V30 8 1 7 9
M  V30 9 1 5 10
M  V30 10 1 5 11
M  V30 11 1 6 12
M  V30 12 1 6 13
M  V30 13 1 7 14
M  V30 14 1 8 15
M  V30 15 1 8 16
M  V30 16 1 8 17
M  V30 17 1 9 18
M  V30 18 1 9 19
M  V30 19 1 9 20
M  V30 END BOND
M  V30 END CTAB
M  END
>  <Structure No>
1526

>  <LogS>
0.237889723

>  <MMFF94 Energy>
-14.338

$$$$
Compound 1527
Actelion Java MolfileCreator 2.0

  0  0  0  0  0  0              0 V3000
M  V30 BEGIN CTAB
M  V30 COUNTS 38 39 0 0 0
M  V30 BEGIN ATOM
M  V30 1 O 2.8428 1.3416 0.4733 0
M  V30 2 C 1.603 1.4919 0.2849 0
M  V30 3 N 0.7468 0.3265 0.2668 0
M  V30 4 C 1.048 2.8889 0.1336 0
M  V30 5 C 1.362 -0.9487 0.0142 0
M  V30 6 C -0.7239 0.4326 0.3887 0
M  V30 7 C 2.0936 3.8869 -0.3622 0
M  V30 8 C 1.6067 -1.3647 -1.3025 0
M  V30 9 C 1.7701 -1.759 1.0842 0
M  V30 10 C -1.399 0.3031 -0.9865 0
M  V30 11 C -1.3001 -0.6189 1.3556 0
M  V30 12 C 2.2255 -2.5946 -1.5464 0
M  V30 13 C 2.3883 -2.9885 0.8375 0
M  V30 14 C -2.9245 0.3956 -0.8404 0
M  V30 15 C -2.8289 -0.4933 1.4247 0
M  V30 16 C 2.6132 -3.4075 -0.477 0
M  V30 17 N -3.4318 -0.6273 0.0885 0 CHG=1
M  V30 18 H 0.657 3.2313 1.1153 0
M  V30 19 H 0.2138 2.8837 -0.5981 0
M  V30 20 H -0.9919 1.4232 0.8162 0
M  V30 21 H 2.9145 3.9903 0.3789 0
M  V30 22 H 2.513 3.5533 -1.3353 0
M  V30 23 H 1.62 4.8816 -0.502 0
M  V30 24 H 1.3191 -0.7351 -2.1348 0
M  V30 25 H 1.6062 -1.4362 2.1045 0
M  V30 26 H -1.0444 1.1105 -1.6615 0
M  V30 27 H -1.1416 -0.6731 -1.4502 0
M  V30 28 H -0.8717 -0.4687 2.3701 0
M  V30 29 H -1.0469 -1.646 1.0148 0
M  V30 30 H 2.4075 -2.9159 -2.5637 0
M  V30 31 H 2.6958 -3.6146 1.6649 0
M  V30 32 H -3.3907 0.2508 -1.8396 0
M  V30 33 H -3.2078 1.4116 -0.4832 0
M  V30 34 H -3.1077 0.4864 1.8744 0
M  V30 35 H -3.2255 -1.291 2.0905 0
M  V30 36 H 3.0929 -4.3587 -0.6669 0
M  V30 37 H -4.4687 -0.516 0.176 0
M  V30 38 H -3.2357 -1.5821 -0.2945 0
M  V30 END ATOM
M  V30 BEGIN BOND
M  V30 1 2 1 2
M  V30 2 1 2 3
M  V30 3 1 2 4
M  V30 4 1 3 5
M  V30 5 1 3 6
M  V30 6 1 4 7
M  V30 7 2 5 8
M  V30 8 1 5 9
M  V30 9 1 6 10
M  V30 10 1 6 11
M  V30 11 1 8 12
M  V30 12 2 9 13
M  V30 13 1 10 14
M  V30 14 1 11 15
M  V30 15 2 12 16
M  V30 16 1 14 17
M  V30 17 1 13 16
M  V30 18 1 15 17
M  V30 19 1 4 18
M  V30 20 1 4 19
M  V30 21 1 6 20
M  V30 22 1 7 21
M  V30 23 1 7 22
M  V30 24 1 7 23
M  V30 25 1 8 24
M  V30 26 1 9 25
M  V30 27 1 10 26
M  V30 28 1 10 27
M  V30 29 1 11 28
M  V30 30 1 11 29
M  V30 31 1 12 30
M  V30 32 1 13 31
M  V30 33 1 14 32
M  V30 34 1 14 33
M  V30 35 1 15 34
M  V30 36 1 15 35
M  V30 37 1 16 36
M  V30 38 1 17 37
M  V30 39 1 17 38
M  V30 END BOND
M  V30 END CTAB
M  END
>  <Structure No>
1527

>  <LogS>
-0.835225508

>  <MMFF94 Energy>
0.54386

$$$$
Compound 1528
Actelion Java MolfileCreator 2.0

  0  0  0  0  0  0              0 V3000
M  V30 BEGIN CTAB
M  V30 COUNTS 24 24 0 0 0
M  V30 BEGIN ATOM
M  V30 1 S 3.6384 0.0825 -0.2477 0
M  V30 2 O 4.6911 -0.9824 -0.1283 0
M  V30 3 O 4.006 1.2442 0.6317 0
M  V30 4 O 3.5489 0.597 -1.8444 0 CHG=-1
M  V30 5 C 2.0625 -0.586 0.2584 0
M  V30 6 C 0.9466 0.4511 0.0805 0
M  V30 7 N -0.3364 -0.0359 0.634 0
M  V30 8 C -1.3315 1.0595 0.7414 0
M  V30 9 C -0.8569 -1.1973 -0.1276 0
M  V30 10 C -2.3384 1.035 -0.423 0
M  V30 11 C -2.386 -1.3069 -0.0051 0
M  V30 12 O -3.0788 -0.175 -0.5136 0
M  V30 13 H 1.8566 -1.4851 -0.3586 0
M  V30 14 H 2.1268 -0.8897 1.325 0
M  V30 15 H 0.836 0.717 -0.9948 0
M  V30 16 H 1.263 1.3677 0.6265 0
M  V30 17 H -1.8895 0.936 1.6945 0
M  V30 18 H -0.8548 2.0639 0.7894 0
M  V30 19 H -0.6 -1.1256 -1.2092 0
M  V30 20 H -0.4042 -2.1283 0.2754 0
M  V30 21 H -3.0542 1.8737 -0.2909 0
M  V30 22 H -1.8019 1.2071 -1.3811 0
M  V30 23 H -2.6645 -1.4568 1.0606 0
M  V30 24 H -2.7241 -2.2048 -0.5638 0
M  V30 END ATOM
M  V30 BEGIN BOND
M  V30 1 2 1 2
M  V30 2 2 1 3
M  V30 3 1 1 4
M  V30 4 1 1 5
M  V30 5 1 5 6
M  V30 6 1 6 7
M  V30 7 1 7 8
M  V30 8 1 7 9
M  V30 9 1 8 10
M  V30 10 1 9 11
M  V30 11 1 10 12
M  V30 12 1 11 12
M  V30 13 1 5 13
M  V30 14 1 5 14
M  V30 15 1 6 15
M  V30 16 1 6 16
M  V30 17 1 8 17
M  V30 18 1 8 18
M  V30 19 1 9 19
M  V30 20 1 9 20
M  V30 21 1 10 21
M  V30 22 1 10 22
M  V30 23 1 11 23
M  V30 24 1 11 24
M  V30 END BOND
M  V30 END CTAB
M  END
>  <Structure No>
1528

>  <LogS>
0.188529745

>  <MMFF94 Energy>
65.311

$$$$
Compound 1529
Actelion Java MolfileCreator 2.0

  0  0  0  0  0  0              0 V3000
M  V30 BEGIN CTAB
M  V30 COUNTS 37 36 0 0 0
M  V30 BEGIN ATOM
M  V30 1 O -2.184 -0.0779 1.5596 0
M  V30 2 C -1.7422 -0.0782 0.3782 0
M  V30 3 O -2.5429 0.3474 -0.6877 0
M  V30 4 C -0.3253 -0.4788 0.1171 0
M  V30 5 C -3.9183 0.7028 -0.5518 0
M  V30 6 C 0.5973 0.7444 0.1932 0
M  V30 7 C -4.8087 -0.5478 -0.5964 0 CFG=1
M  V30 8 C 2.0466 0.4199 -0.2031 0
M  V30 9 O -4.5781 -1.3362 0.5419 0
M  V30 10 C -6.2974 -0.1732 -0.6809 0
M  V30 11 C 2.7871 -0.3873 0.877 0
M  V30 12 O -6.7219 0.4688 0.4924 0
M  V30 13 C 4.2359 -0.7131 0.4802 0
M  V30 14 C 5.1604 0.5112 0.5534 0
M  V30 15 C 6.6108 0.1207 0.2839 0
M  V30 16 H -0.2625 -0.9389 -0.8925 0
M  V30 17 H -0.023 -1.2406 0.866 0
M  V30 18 H -4.08 1.2777 0.3864 0
M  V30 19 H -4.1828 1.366 -1.4028 0
M  V30 20 H 0.5734 1.1749 1.2188 0
M  V30 21 H 0.2168 1.5217 -0.5061 0
M  V30 22 H -4.541 -1.1224 -1.5138 0
M  V30 23 H 2.0586 -0.1325 -1.1679 0
M  V30 24 H 2.5721 1.3849 -0.3613 0
M  V30 25 H -4.9245 -2.2439 0.3376 0
M  V30 26 H -6.489 0.4618 -1.5771 0
M  V30 27 H -6.8945 -1.1012 -0.8073 0
M  V30 28 H 2.7759 0.1658 1.8416 0
M  V30 29 H 2.2609 -1.3516 1.0364 0
M  V30 30 H -6.5664 1.4404 0.3617 0
M  V30 31 H 4.6161 -1.489 1.1806 0
M  V30 32 H 4.2588 -1.1453 -0.5442 0
M  V30 33 H 5.096 0.9729 1.5627 0
M  V30 34 H 4.8566 1.2667 -0.2009 0
M  V30 35 H 6.9629 -0.6075 1.0451 0
M  V30 36 H 7.2545 1.0241 0.3335 0
M  V30 37 H 6.7071 -0.3293 -0.7271 0
M  V30 END ATOM
M  V30 BEGIN BOND
M  V30 1 2 1 2
M  V30 2 1 2 3
M  V30 3 1 2 4
M  V30 4 1 3 5
M  V30 5 1 4 6
M  V30 6 1 5 7
M  V30 7 1 6 8
M  V30 8 1 7 9
M  V30 9 1 7 10
M  V30 10 1 8 11
M  V30 11 1 10 12
M  V30 12 1 11 13
M  V30 13 1 13 14
M  V30 14 1 14 15
M  V30 15 1 4 16
M  V30 16 1 4 17
M  V30 17 1 5 18
M  V30 18 1 5 19
M  V30 19 1 6 20
M  V30 20 1 6 21
M  V30 21 1 7 22
M  V30 22 1 8 23
M  V30 23 1 8 24
M  V30 24 1 9 25
M  V30 25 1 10 26
M  V30 26 1 10 27
M  V30 27 1 11 28
M  V30 28 1 11 29
M  V30 29 1 12 30
M  V30 30 1 13 31
M  V30 31 1 13 32
M  V30 32 1 14 33
M  V30 33 1 14 34
M  V30 34 1 15 35
M  V30 35 1 15 36
M  V30 36 1 15 37
M  V30 END BOND
M  V30 BEGIN COLLECTION
M  V30 MDLV30/STEABS ATOMS=(1 7)
M  V30 END COLLECTION
M  V30 END CTAB
M  END
>  <Structure No>
1529

>  <LogS>
0.179474131

>  <MMFF94 Energy>
22.708

$$$$
Compound 1530
Actelion Java MolfileCreator 2.0

  0  0  0  0  0  0              0 V3000
M  V30 BEGIN CTAB
M  V30 COUNTS 41 42 0 0 0
M  V30 BEGIN ATOM
M  V30 1 S -4.0675 -3.0702 -1.6587 0
M  V30 2 O -3.4136 -4.1257 -0.8125 0
M  V30 3 O -3.515 -3.1285 -3.0548 0
M  V30 4 O -5.7208 -3.3672 -1.716 0 CHG=-1
M  V30 5 C -3.7484 -1.4793 -0.9656 0
M  V30 6 C -2.4273 -1.0228 -0.8207 0
M  V30 7 C -4.816 -0.6684 -0.5575 0
M  V30 8 O -1.3705 -1.8401 -1.2298 0
M  V30 9 C -2.1811 0.2468 -0.2666 0
M  V30 10 C -4.5834 0.6002 -0.0027 0
M  V30 11 N -0.832 0.7036 -0.1209 0 CHG=-1
M  V30 12 C -3.2595 1.0501 0.1392 0
M  V30 13 N -5.6878 1.4257 0.4136 0 CHG=1
M  V30 14 N -0.5119 1.9478 0.4431 0
M  V30 15 O -5.4888 2.555 0.9079 0
M  V30 16 O -6.9836 0.9836 0.2739 0 CHG=-1
M  V30 17 C 0.7141 2.3572 0.5892 0
M  V30 18 C 1.8563 1.5022 0.1917 0
M  V30 19 C 0.9459 3.7131 1.1356 0
M  V30 20 O 2.7299 1.9701 -0.5871 0
M  V30 21 N 1.954 0.1499 0.6722 0
M  V30 22 O -0.0371 4.4774 1.3355 0
M  V30 23 C 2.324 4.2141 1.4458 0
M  V30 24 C 3.0326 -0.7433 0.3503 0
M  V30 25 C 4.3655 -0.2953 0.2905 0
M  V30 26 C 2.7597 -2.1061 0.1532 0
M  V30 27 C 5.3979 -1.1927 -0.0011 0
M  V30 28 C 3.7943 -2.9999 -0.1393 0
M  V30 29 C 5.1121 -2.5427 -0.2209 0
M  V30 30 H -5.8304 -1.0261 -0.6718 0
M  V30 31 H -0.4007 -1.5598 -1.1479 0
M  V30 32 H -3.0688 2.0263 0.5655 0
M  V30 33 H 1.1602 -0.2361 1.2315 0
M  V30 34 H 2.9016 3.4366 1.9886 0
M  V30 35 H 2.8477 4.4755 0.5029 0
M  V30 36 H 2.271 5.1201 2.0865 0
M  V30 37 H 4.614 0.7372 0.4961 0
M  V30 38 H 1.7426 -2.4721 0.2167 0
M  V30 39 H 6.421 -0.8429 -0.0471 0
M  V30 40 H 3.5745 -4.0474 -0.3003 0
M  V30 41 H 5.9125 -3.2357 -0.4449 0
M  V30 END ATOM
M  V30 BEGIN BOND
M  V30 1 2 1 2
M  V30 2 2 1 3
M  V30 3 1 1 4
M  V30 4 1 1 5
M  V30 5 2 5 6
M  V30 6 1 5 7
M  V30 7 1 6 8
M  V30 8 1 6 9
M  V30 9 2 7 10
M  V30 10 1 9 11
M  V30 11 2 9 12
M  V30 12 1 10 13
M  V30 13 1 11 14
M  V30 14 2 13 15
M  V30 15 1 13 16
M  V30 16 2 14 17
M  V30 17 1 17 18
M  V30 18 1 17 19
M  V30 19 2 18 20
M  V30 20 1 18 21
M  V30 21 2 19 22
M  V30 22 1 19 23
M  V30 23 1 21 24
M  V30 24 2 24 25
M  V30 25 1 24 26
M  V30 26 1 25 27
M  V30 27 2 26 28
M  V30 28 2 27 29
M  V30 29 1 10 12
M  V30 30 1 28 29
M  V30 31 1 7 30
M  V30 32 1 8 31
M  V30 33 1 12 32
M  V30 34 1 21 33
M  V30 35 1 23 34
M  V30 36 1 23 35
M  V30 37 1 23 36
M  V30 38 1 25 37
M  V30 39 1 26 38
M  V30 40 1 27 39
M  V30 41 1 28 40
M  V30 42 1 29 41
M  V30 END BOND
M  V30 END CTAB
M  END
>  <Structure No>
1530

>  <LogS>
-0.474704027

>  <MMFF94 Energy>
154.76

$$$$
Compound 1531
Actelion Java MolfileCreator 2.0

  0  0  0  0  0  0              0 V3000
M  V30 BEGIN CTAB
M  V30 COUNTS 53 56 0 0 0
M  V30 BEGIN ATOM
M  V30 1 S 4.2225 -2.6164 1.5186 0
M  V30 2 O 3.7173 -3.5425 2.5897 0
M  V30 3 O 5.1611 -1.6317 2.1571 0
M  V30 4 O 5.0442 -3.517 0.3618 0 CHG=-1
M  V30 5 C 2.8537 -1.7702 0.7715 0
M  V30 6 C 2.891 -0.3118 0.4484 0
M  V30 7 C 1.6806 -2.4207 0.7127 0
M  V30 8 N 3.9563 0.3336 0.0637 0
M  V30 9 C 1.6178 0.4233 0.4862 0
M  V30 10 C 0.4044 -1.7312 0.3992 0
M  V30 11 N 5.1783 -0.2591 -0.2926 0
M  V30 12 O 1.6225 1.661 0.7229 0
M  V30 13 C 0.3532 -0.3279 0.2711 0
M  V30 14 C -0.7627 -2.4892 0.2784 0
M  V30 15 C 6.3855 0.5146 -0.3593 0
M  V30 16 C -0.8835 0.299 -0.0329 0
M  V30 17 C -1.9966 -1.8821 0.0252 0
M  V30 18 C 7.5602 -0.0733 -0.8553 0
M  V30 19 C 6.4176 1.8531 0.0741 0
M  V30 20 N -0.9514 1.7066 -0.3153 0
M  V30 21 C -2.066 -0.4721 -0.0988 0
M  V30 22 S -3.4033 -2.9281 -0.2329 0
M  V30 23 C 8.7446 0.6663 -0.9295 0
M  V30 24 C 7.6044 2.5894 -0.0023 0
M  V30 25 N -3.3068 0.2061 -0.3459 0
M  V30 26 O -4.2758 -2.9195 0.9901 0
M  V30 27 O -2.9587 -4.3377 -0.5053 0
M  V30 28 O -4.2793 -2.3906 -1.5624 0 CHG=-1
M  V30 29 C 8.7658 1.9973 -0.505 0
M  V30 30 N -4.3856 -0.1111 0.2486 0
M  V30 31 C -5.6239 0.5606 -0.0077 0
M  V30 32 C -5.7222 1.5894 -0.9605 0
M  V30 33 C -6.7631 0.1749 0.7063 0
M  V30 34 C -6.9484 2.2206 -1.1905 0
M  V30 35 C -7.9891 0.8068 0.4795 0
M  V30 36 C -8.0955 1.8371 -0.4727 0
M  V30 37 N -9.3554 2.4907 -0.7104 0 CHG=1
M  V30 38 O -10.3707 2.1745 -0.0551 0
M  V30 39 O -9.4631 3.4763 -1.6653 0 CHG=-1
M  V30 40 H 1.6449 -3.4747 0.9641 0
M  V30 41 H 5.1863 -1.2292 -0.6752 0
M  V30 42 H -0.7053 -3.5661 0.3796 0
M  V30 43 H 7.5562 -1.1031 -1.1898 0
M  V30 44 H 5.5302 2.33 0.4688 0
M  V30 45 H -1.853 2.2295 -0.2609 0
M  V30 46 H -0.1511 2.2097 -0.7557 0
M  V30 47 H 9.6437 0.2083 -1.3193 0
M  V30 48 H 7.6238 3.6193 0.33 0
M  V30 49 H 9.6822 2.5696 -0.5671 0
M  V30 50 H -4.855 1.9033 -1.5279 0
M  V30 51 H -6.7 -0.6181 1.4411 0
M  V30 52 H -6.9979 3.0095 -1.9297 0
M  V30 53 H -8.8543 0.4873 1.0466 0
M  V30 END ATOM
M  V30 BEGIN BOND
M  V30 1 2 1 2
M  V30 2 2 1 3
M  V30 3 1 1 4
M  V30 4 1 1 5
M  V30 5 1 5 6
M  V30 6 2 5 7
M  V30 7 2 6 8
M  V30 8 1 6 9
M  V30 9 1 7 10
M  V30 10 1 8 11
M  V30 11 2 9 12
M  V30 12 1 9 13
M  V30 13 1 10 14
M  V30 14 1 11 15
M  V30 15 1 13 16
M  V30 16 2 14 17
M  V30 17 2 15 18
M  V30 18 1 15 19
M  V30 19 1 16 20
M  V30 20 2 16 21
M  V30 21 1 17 22
M  V30 22 1 18 23
M  V30 23 2 19 24
M  V30 24 1 21 25
M  V30 25 2 22 26
M  V30 26 2 22 27
M  V30 27 1 22 28
M  V30 28 2 23 29
M  V30 29 2 25 30
M  V30 30 1 30 31
M  V30 31 2 31 32
M  V30 32 1 31 33
M  V30 33 1 32 34
M  V30 34 2 33 35
M  V30 35 2 34 36
M  V30 36 1 36 37
M  V30 37 2 37 38
M  V30 38 1 37 39
M  V30 39 2 10 13
M  V30 40 1 17 21
M  V30 41 1 24 29
M  V30 42 1 35 36
M  V30 43 1 7 40
M  V30 44 1 11 41
M  V30 45 1 14 42
M  V30 46 1 18 43
M  V30 47 1 19 44
M  V30 48 1 20 45
M  V30 49 1 20 46
M  V30 50 1 23 47
M  V30 51 1 24 48
M  V30 52 1 29 49
M  V30 53 1 32 50
M  V30 54 1 33 51
M  V30 55 1 34 52
M  V30 56 1 35 53
M  V30 END BOND
M  V30 END CTAB
M  END
>  <Structure No>
1531

>  <LogS>
-1.2800595

>  <MMFF94 Energy>
195.5

$$$$
Compound 1532
Actelion Java MolfileCreator 2.0

  0  0  0  0  0  0              0 V3000
M  V30 BEGIN CTAB
M  V30 COUNTS 14 14 0 0 0
M  V30 BEGIN ATOM
M  V30 1 O 2.8071 -1.4429 0.1602 0
M  V30 2 C 2.3035 -0.3223 -0.1185 0
M  V30 3 O 3.1423 0.7146 -0.5104 0 CHG=-1
M  V30 4 C 0.8418 -0.1113 -0.0305 0
M  V30 5 C 0.2846 1.1419 -0.3429 0
M  V30 6 C -0.0121 -1.1578 0.3659 0
M  V30 7 C -1.0968 1.3425 -0.2601 0
M  V30 8 C -1.3928 -0.9515 0.447 0
M  V30 9 C -1.9347 0.2971 0.1344 0
M  V30 10 H 0.9142 1.9671 -0.6509 0
M  V30 11 H 0.3855 -2.134 0.613 0
M  V30 12 H -1.5179 2.3097 -0.5021 0
M  V30 13 H -2.0431 -1.7609 0.7526 0
M  V30 14 H -3.0036 0.4546 0.1977 0
M  V30 END ATOM
M  V30 BEGIN BOND
M  V30 1 2 1 2
M  V30 2 1 2 3
M  V30 3 1 2 4
M  V30 4 2 4 5
M  V30 5 1 4 6
M  V30 6 1 5 7
M  V30 7 2 6 8
M  V30 8 2 7 9
M  V30 9 1 8 9
M  V30 10 1 5 10
M  V30 11 1 6 11
M  V30 12 1 7 12
M  V30 13 1 8 13
M  V30 14 1 9 14
M  V30 END BOND
M  V30 END CTAB
M  END
>  <Structure No>
1532

>  <LogS>
0.390910622

>  <MMFF94 Energy>
37.053

$$$$
Compound 1533
Actelion Java MolfileCreator 2.0

  0  0  0  0  0  0              0 V3000
M  V30 BEGIN CTAB
M  V30 COUNTS 54 54 0 0 0
M  V30 BEGIN ATOM
M  V30 1 O -3.2318 1.7331 -1.7331 0
M  V30 2 C -3.8335 1.2581 -0.73 0
M  V30 3 N -5.0967 1.83 -0.3246 0
M  V30 4 N -3.2485 0.1542 -0.0139 0
M  V30 5 C -5.6668 2.928 -1.1124 0
M  V30 6 C -5.7985 1.34 0.8658 0
M  V30 7 C -1.9228 -0.3782 -0.3542 0 CFG=1
M  V30 8 C -0.8343 0.5787 0.1678 0
M  V30 9 C -1.7426 -1.7754 0.2645 0
M  V30 10 C 0.6178 0.0884 -0.0951 0 CFG=2
M  V30 11 C -0.3483 -2.3924 -0.0109 0
M  V30 12 C 0.7816 -1.3928 0.3831 0
M  V30 13 C 1.568 0.9984 0.7486 0
M  V30 14 C 0.9802 0.2673 -1.5958 0
M  V30 15 C -0.2215 -2.8519 -1.4831 0
M  V30 16 C -0.2002 -3.657 0.8683 0
M  V30 17 N 2.9886 0.6766 0.5724 0
M  V30 18 C 4.0042 1.4033 1.2861 0
M  V30 19 O 3.6621 2.3342 2.0673 0
M  V30 20 N 5.4052 1.089 1.1266 0
M  V30 21 C 6.3986 1.8668 1.8747 0
M  V30 22 C 5.8394 0.0089 0.235 0
M  V30 23 H -3.7908 -0.3068 0.7494 0
M  V30 24 H -5.8334 2.5914 -2.1575 0
M  V30 25 H -6.6396 3.2708 -0.7019 0
M  V30 26 H -4.9674 3.7906 -1.1134 0
M  V30 27 H -5.1406 1.4339 1.7556 0
M  V30 28 H -6.0863 0.2776 0.7218 0
M  V30 29 H -6.724 1.9195 1.0661 0
M  V30 30 H -1.8672 -0.4693 -1.4569 0
M  V30 31 H -0.9725 1.5816 -0.2924 0
M  V30 32 H -0.9922 0.7054 1.2629 0
M  V30 33 H -1.8965 -1.6926 1.3646 0
M  V30 34 H -2.5364 -2.4506 -0.126 0
M  V30 35 H 1.7587 -1.8014 0.0466 0
M  V30 36 H 0.835 -1.3747 1.4954 0
M  V30 37 H 1.4079 2.0639 0.4697 0
M  V30 38 H 1.3157 0.9067 1.8285 0
M  V30 39 H 1.831 -0.3825 -1.8888 0
M  V30 40 H 0.1351 0.0501 -2.2721 0
M  V30 41 H 1.2652 1.3199 -1.8096 0
M  V30 42 H -0.4381 -2.049 -2.2055 0
M  V30 43 H -0.9413 -3.6712 -1.6975 0
M  V30 44 H 0.802 -3.2332 -1.6868 0
M  V30 45 H -0.9913 -4.4006 0.6286 0
M  V30 46 H 0.7898 -4.1351 0.7037 0
M  V30 47 H -0.2863 -3.4072 1.9481 0
M  V30 48 H 3.2693 -0.0836 -0.0813 0
M  V30 49 H 6.2148 1.7594 2.9647 0
M  V30 50 H 6.3224 2.9389 1.5952 0
M  V30 51 H 7.4345 1.5279 1.6639 0
M  V30 52 H 5.5189 0.2285 -0.8052 0
M  V30 53 H 5.3986 -0.954 0.5686 0
M  V30 54 H 6.9435 -0.1053 0.2334 0
M  V30 END ATOM
M  V30 BEGIN BOND
M  V30 1 2 1 2
M  V30 2 1 2 3
M  V30 3 1 2 4
M  V30 4 1 3 5
M  V30 5 1 3 6
M  V30 6 1 4 7
M  V30 7 1 7 8
M  V30 8 1 7 9
M  V30 9 1 8 10
M  V30 10 1 9 11
M  V30 11 1 10 12
M  V30 12 1 10 13
M  V30 13 1 10 14
M  V30 14 1 11 15
M  V30 15 1 11 16
M  V30 16 1 13 17
M  V30 17 1 17 18
M  V30 18 2 18 19
M  V30 19 1 18 20
M  V30 20 1 20 21
M  V30 21 1 20 22
M  V30 22 1 11 12
M  V30 23 1 4 23
M  V30 24 1 5 24
M  V30 25 1 5 25
M  V30 26 1 5 26
M  V30 27 1 6 27
M  V30 28 1 6 28
M  V30 29 1 6 29
M  V30 30 1 7 30
M  V30 31 1 8 31
M  V30 32 1 8 32
M  V30 33 1 9 33
M  V30 34 1 9 34
M  V30 35 1 12 35
M  V30 36 1 12 36
M  V30 37 1 13 37
M  V30 38 1 13 38
M  V30 39 1 14 39
M  V30 40 1 14 40
M  V30 41 1 14 41
M  V30 42 1 15 42
M  V30 43 1 15 43
M  V30 44 1 15 44
M  V30 45 1 16 45
M  V30 46 1 16 46
M  V30 47 1 16 47
M  V30 48 1 17 48
M  V30 49 1 21 49
M  V30 50 1 21 50
M  V30 51 1 21 51
M  V30 52 1 22 52
M  V30 53 1 22 53
M  V30 54 1 22 54
M  V30 END BOND
M  V30 BEGIN COLLECTION
M  V30 MDLV30/STEABS ATOMS=(2 7 10)
M  V30 END COLLECTION
M  V30 END CTAB
M  END
>  <Structure No>
1533

>  <LogS>
-1.893818753

>  <MMFF94 Energy>
-125.01

$$$$
Compound 1534
Actelion Java MolfileCreator 2.0

  0  0  0  0  0  0              0 V3000
M  V30 BEGIN CTAB
M  V30 COUNTS 58 62 0 0 0
M  V30 BEGIN ATOM
M  V30 1 S 4.4514 1.5941 -1.4262 0
M  V30 2 O 3.5425 2.6879 -1.9125 0
M  V30 3 O 5.0127 0.8625 -2.6136 0
M  V30 4 O 5.6956 2.3142 -0.555 0 CHG=-1
M  V30 5 C 3.5363 0.4742 -0.3951 0
M  V30 6 C 4.1208 -0.1618 0.8329 0
M  V30 7 C 2.2172 0.3623 -0.6309 0
M  V30 8 N 5.3884 -0.4211 1.0002 0
M  V30 9 C 3.1916 -0.5961 1.8929 0
M  V30 10 C 1.2928 -0.2855 0.3258 0
M  V30 11 N 6.3695 -0.3485 3.0E-4 0
M  V30 12 O 3.6274 -0.8897 3.0382 0
M  V30 13 C 1.7578 -0.733 1.5759 0
M  V30 14 C -0.0681 -0.3932 0.0134 0
M  V30 15 C 7.7458 -0.1553 0.3427 0
M  V30 16 C 0.8624 -1.3251 2.4816 0
M  V30 17 C -0.9679 -0.9629 0.9291 0
M  V30 18 C 8.1112 0.3609 1.5991 0
M  V30 19 C 8.745 -0.4551 -0.5958 0
M  V30 20 C -0.4888 -1.4496 2.1529 0
M  V30 21 N -2.3713 -1.0084 0.6426 0
M  V30 22 C 9.4581 0.5641 1.9116 0
M  V30 23 C 10.0911 -0.257 -0.277 0
M  V30 24 N -2.9381 -0.0423 -0.2071 0
M  V30 25 C 10.4476 0.2522 0.9759 0
M  V30 26 C -4.1699 -0.0234 -0.634 0
M  V30 27 C -5.1371 -1.1284 -0.4035 0
M  V30 28 C -4.6503 1.1841 -1.3526 0
M  V30 29 O -4.7475 -2.288 -0.1098 0
M  V30 30 C -6.5762 -0.8652 -0.6115 0
M  V30 31 S -3.4962 2.4404 -1.8188 0
M  V30 32 C -5.9643 1.3651 -1.5812 0
M  V30 33 C -6.9752 0.3623 -1.1767 0
M  V30 34 C -7.5492 -1.8135 -0.2531 0
M  V30 35 O -3.0171 3.1543 -0.5872 0
M  V30 36 O -4.1375 3.4331 -2.7483 0
M  V30 37 O -2.1891 1.734 -2.6067 0 CHG=-1
M  V30 38 C -8.3406 0.6324 -1.3616 0
M  V30 39 C -8.9042 -1.5363 -0.4419 0
M  V30 40 C -9.3062 -0.3122 -0.9931 0
M  V30 41 N -10.6919 -0.024 -1.1717 0
M  V30 42 H 1.7936 0.8234 -1.5157 0
M  V30 43 H 6.129 -0.6421 -0.9723 0
M  V30 44 H -0.4287 -0.0274 -0.9399 0
M  V30 45 H 1.205 -1.694 3.4408 0
M  V30 46 H 7.3588 0.6182 2.3341 0
M  V30 47 H 8.4813 -0.848 -1.5704 0
M  V30 48 H -1.1698 -1.8972 2.866 0
M  V30 49 H -2.977 -1.5716 1.275 0
M  V30 50 H 9.7347 0.9654 2.8796 0
M  V30 51 H 10.8576 -0.4951 -1.003 0
M  V30 52 H 11.4911 0.4068 1.2216 0
M  V30 53 H -6.3076 2.2756 -2.0603 0
M  V30 54 H -7.262 -2.7625 0.1824 0
M  V30 55 H -8.6528 1.5775 -1.7911 0
M  V30 56 H -9.6412 -2.2734 -0.154 0
M  V30 57 H -11.0032 0.896 -1.5558 0
M  V30 58 H -11.4209 -0.7275 -0.9168 0
M  V30 END ATOM
M  V30 BEGIN BOND
M  V30 1 2 1 2
M  V30 2 2 1 3
M  V30 3 1 1 4
M  V30 4 1 1 5
M  V30 5 1 5 6
M  V30 6 2 5 7
M  V30 7 2 6 8
M  V30 8 1 6 9
M  V30 9 1 7 10
M  V30 10 1 8 11
M  V30 11 2 9 12
M  V30 12 1 9 13
M  V30 13 1 10 14
M  V30 14 1 11 15
M  V30 15 1 13 16
M  V30 16 2 14 17
M  V30 17 2 15 18
M  V30 18 1 15 19
M  V30 19 2 16 20
M  V30 20 1 17 21
M  V30 21 1 18 22
M  V30 22 2 19 23
M  V30 23 1 21 24
M  V30 24 2 22 25
M  V30 25 2 24 26
M  V30 26 1 26 27
M  V30 27 1 26 28
M  V30 28 2 27 29
M  V30 29 1 27 30
M  V30 30 1 28 31
M  V30 31 2 28 32
M  V30 32 2 30 33
M  V30 33 1 30 34
M  V30 34 2 31 35
M  V30 35 2 31 36
M  V30 36 1 31 37
M  V30 37 1 33 38
M  V30 38 2 34 39
M  V30 39 2 38 40
M  V30 40 1 40 41
M  V30 41 2 10 13
M  V30 42 1 17 20
M  V30 43 1 23 25
M  V30 44 1 32 33
M  V30 45 1 39 40
M  V30 46 1 7 42
M  V30 47 1 11 43
M  V30 48 1 14 44
M  V30 49 1 16 45
M  V30 50 1 18 46
M  V30 51 1 19 47
M  V30 52 1 20 48
M  V30 53 1 21 49
M  V30 54 1 22 50
M  V30 55 1 23 51
M  V30 56 1 25 52
M  V30 57 1 32 53
M  V30 58 1 34 54
M  V30 59 1 38 55
M  V30 60 1 39 56
M  V30 61 1 41 57
M  V30 62 1 41 58
M  V30 END BOND
M  V30 END CTAB
M  END
>  <Structure No>
1534

>  <LogS>
-2.210130555

>  <MMFF94 Energy>
186.52

$$$$
Compound 1535
Actelion Java MolfileCreator 2.0

  0  0  0  0  0  0              0 V3000
M  V30 BEGIN CTAB
M  V30 COUNTS 21 20 0 0 0
M  V30 BEGIN ATOM
M  V30 1 O 1.6866 3.2145 -0.4816 0
M  V30 2 C 1.7857 1.9925 -0.7679 0
M  V30 3 O 2.1201 1.6132 -2.0616 0 CHG=-1
M  V30 4 C 1.5428 0.9492 0.2779 0
M  V30 5 N 0.3955 0.0972 -0.1063 0
M  V30 6 C 0.4608 -1.2071 0.5889 0
M  V30 7 C -0.8828 0.7816 0.1898 0
M  V30 8 C 1.443 -2.1082 -0.0924 0
M  V30 9 C -1.9844 0.2119 -0.6545 0
M  V30 10 O 2.4588 -2.5236 0.5247 0
M  V30 11 O 1.236 -2.488 -1.4124 0 CHG=-1
M  V30 12 O -1.9673 0.3876 -1.9019 0
M  V30 13 N -3.0432 -0.5395 -0.0605 0
M  V30 14 H 2.4766 0.3499 0.3536 0
M  V30 15 H 1.3749 1.4224 1.2728 0
M  V30 16 H 0.7279 -1.0756 1.663 0
M  V30 17 H -0.5222 -1.7254 0.557 0
M  V30 18 H -0.8196 1.8658 -0.0512 0
M  V30 19 H -1.1352 0.7068 1.2721 0
M  V30 20 H -3.0688 -0.7063 0.9698 0
M  V30 21 H -3.8036 -0.9373 -0.6552 0
M  V30 END ATOM
M  V30 BEGIN BOND
M  V30 1 2 1 2
M  V30 2 1 2 3
M  V30 3 1 2 4
M  V30 4 1 4 5
M  V30 5 1 5 6
M  V30 6 1 5 7
M  V30 7 1 6 8
M  V30 8 1 7 9
M  V30 9 2 8 10
M  V30 10 1 8 11
M  V30 11 2 9 12
M  V30 12 1 9 13
M  V30 13 1 4 14
M  V30 14 1 4 15
M  V30 15 1 6 16
M  V30 16 1 6 17
M  V30 17 1 7 18
M  V30 18 1 7 19
M  V30 19 1 13 20
M  V30 20 1 13 21
M  V30 END BOND
M  V30 END CTAB
M  END
>  <Structure No>
1535

>  <LogS>
-1.763581857

>  <MMFF94 Energy>
221.46

$$$$
Compound 1536
Actelion Java MolfileCreator 2.0

  0  0  0  0  0  0              0 V3000
M  V30 BEGIN CTAB
M  V30 COUNTS 5 4 0 0 0
M  V30 BEGIN ATOM
M  V30 1 N 1.8879 0.0725 -0.8709 0
M  V30 2 C 0.7604 0.0473 -0.6113 0
M  V30 3 N -0.6029 0.0169 -0.2974 0
M  V30 4 H -1.0764 -0.895 -0.1164 0
M  V30 5 H -1.1461 0.9062 -0.2442 0
M  V30 END ATOM
M  V30 BEGIN BOND
M  V30 1 3 1 2
M  V30 2 1 2 3
M  V30 3 1 3 4
M  V30 4 1 3 5
M  V30 END BOND
M  V30 END CTAB
M  END
>  <Structure No>
1536

>  <LogS>
-0.446096322

>  <MMFF94 Energy>
-36.231

$$$$
Compound 1537
Actelion Java MolfileCreator 2.0

  0  0  0  0  0  0              0 V3000
M  V30 BEGIN CTAB
M  V30 COUNTS 19 18 0 0 0
M  V30 BEGIN ATOM
M  V30 1 S 0.0829 1.8264 -0.4148 0
M  V30 2 C -0.8143 0.4028 -1.1372 0
M  V30 3 C 1.594 0.9285 0.0922 0
M  V30 4 C -2.0714 0.1143 -0.3192 0
M  V30 5 C 1.3439 0.1015 1.354 0
M  V30 6 C -2.8176 -1.0471 -0.8947 0
M  V30 7 C 2.6093 -0.5529 1.8091 0
M  V30 8 O -3.6955 -0.8616 -1.7781 0
M  V30 9 O -2.5091 -2.34 -0.4912 0 CHG=-1
M  V30 10 O 3.3706 0.0354 2.6215 0
M  V30 11 O 2.9733 -1.7924 1.2985 0 CHG=-1
M  V30 12 H -0.1791 -0.5068 -1.1888 0
M  V30 13 H -1.1042 0.6734 -2.1751 0
M  V30 14 H 1.9574 0.2839 -0.7367 0
M  V30 15 H 2.3789 1.6865 0.3018 0
M  V30 16 H -2.7286 1.0113 -0.3126 0
M  V30 17 H -1.793 -0.1171 0.7308 0
M  V30 18 H 0.5881 -0.6855 1.1516 0
M  V30 19 H 0.9538 0.7581 2.162 0
M  V30 END ATOM
M  V30 BEGIN BOND
M  V30 1 1 1 2
M  V30 2 1 1 3
M  V30 3 1 2 4
M  V30 4 1 3 5
M  V30 5 1 4 6
M  V30 6 1 5 7
M  V30 7 2 6 8
M  V30 8 1 6 9
M  V30 9 2 7 10
M  V30 10 1 7 11
M  V30 11 1 2 12
M  V30 12 1 2 13
M  V30 13 1 3 14
M  V30 14 1 3 15
M  V30 15 1 4 16
M  V30 16 1 4 17
M  V30 17 1 5 18
M  V30 18 1 5 19
M  V30 END BOND
M  V30 END CTAB
M  END
>  <Structure No>
1537

>  <LogS>
-0.799143198

>  <MMFF94 Energy>
28.61

$$$$
Compound 1538
Actelion Java MolfileCreator 2.0

  0  0  0  0  0  0              0 V3000
M  V30 BEGIN CTAB
M  V30 COUNTS 64 68 0 0 0
M  V30 BEGIN ATOM
M  V30 1 Cl -3.7585 -4.5285 3.3308 0
M  V30 2 C -3.7072 -3.0405 2.413 0
M  V30 3 N -2.6821 -2.8085 1.5563 0
M  V30 4 N -4.6939 -2.1208 2.5561 0
M  V30 5 C -2.6425 -1.6569 0.8355 0
M  V30 6 C -4.6556 -0.9618 1.8494 0
M  V30 7 N -3.6302 -0.7374 0.9854 0
M  V30 8 N -1.5582 -1.394 -0.0636 0
M  V30 9 N -5.7216 -0.0123 1.988 0
M  V30 10 C -0.5738 -2.3825 -0.4047 0
M  V30 11 C -5.7107 1.2928 1.3821 0
M  V30 12 C 0.8125 -2.0958 -0.3407 0
M  V30 13 C -1.0006 -3.6273 -0.8922 0
M  V30 14 C -6.8754 1.8103 0.7685 0
M  V30 15 C -4.5536 2.0891 1.4406 0
M  V30 16 C 1.3463 -0.806 0.1666 0
M  V30 17 C 1.741 -3.0676 -0.777 0
M  V30 18 C -0.0771 -4.5839 -1.3199 0
M  V30 19 C -6.8556 3.1077 0.227 0
M  V30 20 C -8.1345 0.9931 0.6864 0
M  V30 21 C -4.5444 3.3701 0.8849 0
M  V30 22 O 0.6074 0.0292 0.7537 0
M  V30 23 C 2.7663 -0.4905 -0.0561 0
M  V30 24 C 3.1987 -2.8193 -0.6772 0
M  V30 25 C 1.2899 -4.3051 -1.2528 0
M  V30 26 S -0.6347 -6.136 -1.9344 0
M  V30 27 C -5.6939 3.8789 0.2805 0
M  V30 28 N 3.1087 0.7662 -0.1094 0
M  V30 29 C 3.7005 -1.631 -0.3032 0
M  V30 30 O 0.3465 -6.6721 -2.9388 0
M  V30 31 O -1.9673 -5.9673 -2.6061 0
M  V30 32 O -0.7823 -7.2213 -0.6629 0 CHG=-1
M  V30 33 N 4.3333 1.2517 -0.5949 0
M  V30 34 S 5.4116 -1.577 0.1603 0
M  V30 35 C 4.7861 2.5693 -0.2393 0
M  V30 36 O 5.7979 -2.88 0.8033 0
M  V30 37 O 5.6502 -0.4767 1.1555 0
M  V30 38 O 6.3684 -1.3328 -1.1983 0 CHG=-1
M  V30 39 C 5.6893 3.2891 -1.0627 0
M  V30 40 C 4.3497 3.1486 0.966 0
M  V30 41 S 6.2313 2.6657 -2.6263 0
M  V30 42 C 6.1468 4.5509 -0.6473 0
M  V30 43 C 4.8096 4.4065 1.3609 0
M  V30 44 O 5.0451 2.2159 -3.4326 0
M  V30 45 O 7.1713 1.5121 -2.4155 0
M  V30 46 O 7.0316 3.87 -3.4853 0 CHG=-1
M  V30 47 C 5.7104 5.1038 0.5582 0
M  V30 48 H -1.497 -0.4497 -0.5106 0
M  V30 49 H -6.5784 -0.3192 2.5017 0
M  V30 50 H -2.0604 -3.8383 -0.9623 0
M  V30 51 H -3.6634 1.7289 1.9385 0
M  V30 52 H -7.7384 3.5215 -0.2439 0
M  V30 53 H -7.9032 -0.0273 0.3162 0
M  V30 54 H -8.5991 0.9226 1.6918 0
M  V30 55 H -8.87 1.4483 -0.0111 0
M  V30 56 H -3.6489 3.9746 0.9359 0
M  V30 57 H 3.8726 -3.6514 -0.8442 0
M  V30 58 H 2.0052 -5.0546 -1.5702 0
M  V30 59 H -5.6855 4.8744 -0.1442 0
M  V30 60 H 4.8382 0.7055 -1.3237 0
M  V30 61 H 3.666 2.6171 1.6161 0
M  V30 62 H 6.8373 5.1167 -1.2593 0
M  V30 63 H 4.4725 4.8383 2.2948 0
M  V30 64 H 6.069 6.0769 0.8689 0
M  V30 END ATOM
M  V30 BEGIN BOND
M  V30 1 1 1 2
M  V30 2 2 2 3
M  V30 3 1 2 4
M  V30 4 1 3 5
M  V30 5 2 4 6
M  V30 6 2 5 7
M  V30 7 1 5 8
M  V30 8 1 6 9
M  V30 9 1 8 10
M  V30 10 1 9 11
M  V30 11 2 10 12
M  V30 12 1 10 13
M  V30 13 2 11 14
M  V30 14 1 11 15
M  V30 15 1 12 16
M  V30 16 1 12 17
M  V30 17 2 13 18
M  V30 18 1 14 19
M  V30 19 1 14 20
M  V30 20 2 15 21
M  V30 21 2 16 22
M  V30 22 1 16 23
M  V30 23 1 17 24
M  V30 24 2 17 25
M  V30 25 1 18 26
M  V30 26 2 19 27
M  V30 27 2 23 28
M  V30 28 1 23 29
M  V30 29 2 26 30
M  V30 30 2 26 31
M  V30 31 1 26 32
M  V30 32 1 28 33
M  V30 33 1 29 34
M  V30 34 1 33 35
M  V30 35 2 34 36
M  V30 36 2 34 37
M  V30 37 1 34 38
M  V30 38 2 35 39
M  V30 39 1 35 40
M  V30 40 1 39 41
M  V30 41 1 39 42
M  V30 42 2 40 43
M  V30 43 2 41 44
M  V30 44 2 41 45
M  V30 45 1 41 46
M  V30 46 2 42 47
M  V30 47 1 6 7
M  V30 48 1 18 25
M  V30 49 1 21 27
M  V30 50 2 24 29
M  V30 51 1 43 47
M  V30 52 1 8 48
M  V30 53 1 9 49
M  V30 54 1 13 50
M  V30 55 1 15 51
M  V30 56 1 19 52
M  V30 57 1 20 53
M  V30 58 1 20 54
M  V30 59 1 20 55
M  V30 60 1 21 56
M  V30 61 1 24 57
M  V30 62 1 25 58
M  V30 63 1 27 59
M  V30 64 1 33 60
M  V30 65 1 40 61
M  V30 66 1 42 62
M  V30 67 1 43 63
M  V30 68 1 47 64
M  V30 END BOND
M  V30 END CTAB
M  END
>  <Structure No>
1538

>  <LogS>
-0.457240368

>  <MMFF94 Energy>
77.528

$$$$
Compound 1539
Actelion Java MolfileCreator 2.0

  0  0  0  0  0  0              0 V3000
M  V30 BEGIN CTAB
M  V30 COUNTS 7 6 0 0 0
M  V30 BEGIN ATOM
M  V30 1 N -0.5532 -0.0691 -0.0691 0 CHG=1
M  V30 2 N 0.8107 0.1238 -0.3503 0
M  V30 3 H -0.6875 -0.177 0.9635 0
M  V30 4 H -0.8796 -0.9285 -0.5672 0
M  V30 5 H -1.0875 0.7592 -0.4179 0
M  V30 6 H 1.1331 0.9666 0.1803 0
M  V30 7 H 1.3378 -0.6951 0.0333 0
M  V30 END ATOM
M  V30 BEGIN BOND
M  V30 1 1 1 2
M  V30 2 1 1 3
M  V30 3 1 1 4
M  V30 4 1 1 5
M  V30 5 1 2 6
M  V30 6 1 2 7
M  V30 END BOND
M  V30 END CTAB
M  END
>  <Structure No>
1539

>  <LogS>
1.595628815

>  <MMFF94 Energy>
94.29

$$$$
Compound 1540
Actelion Java MolfileCreator 2.0

  0  0  0  0  0  0              0 V3000
M  V30 BEGIN CTAB
M  V30 COUNTS 34 36 0 0 0
M  V30 BEGIN ATOM
M  V30 1 S 6.3228 0.415 0.083 0
M  V30 2 O 7.1763 -0.7979 -0.1594 0
M  V30 3 O 6.5098 0.8603 1.5062 0
M  V30 4 O 6.7936 1.6477 -0.9556 0 CHG=-1
M  V30 5 C 4.6307 0.0226 -0.2029 0
M  V30 6 C 3.6225 0.6967 0.4982 0
M  V30 7 C 4.2828 -0.9484 -1.1506 0
M  V30 8 C 2.2777 0.3936 0.2643 0
M  V30 9 C 2.9387 -1.2527 -1.3857 0
M  V30 10 C 1.9246 -0.5882 -0.6785 0
M  V30 11 N 0.5492 -0.9098 -0.9353 0
M  V30 12 N -0.4749 -0.3652 -0.1401 0
M  V30 13 C -1.7446 -0.329 -0.4435 0
M  V30 14 C -2.2893 -0.7284 -1.7705 0
M  V30 15 C -2.7145 0.1569 0.5729 0
M  V30 16 O -1.543 -0.9242 -2.765 0
M  V30 17 C -3.7469 -0.8255 -1.951 0
M  V30 18 C -4.1008 0.0858 0.3034 0
M  V30 19 C -2.2812 0.6718 1.8104 0
M  V30 20 C -4.5901 -0.4497 -0.9861 0
M  V30 21 C -5.0225 0.5258 1.2659 0
M  V30 22 C -3.2099 1.1088 2.7586 0
M  V30 23 C -4.577 1.0355 2.4874 0
M  V30 24 H 3.8757 1.4591 1.2239 0
M  V30 25 H 5.0501 -1.4685 -1.7094 0
M  V30 26 H 1.5175 0.9295 0.8177 0
M  V30 27 H 2.6875 -2.0066 -2.1212 0
M  V30 28 H 0.3417 -1.6815 -1.6065 0
M  V30 29 H -4.1433 -1.1858 -2.8923 0
M  V30 30 H -1.2268 0.7389 2.0469 0
M  V30 31 H -5.6562 -0.5239 -1.165 0
M  V30 32 H -6.0869 0.4759 1.0708 0
M  V30 33 H -2.8686 1.5042 3.7067 0
M  V30 34 H -5.2929 1.3742 3.2251 0
M  V30 END ATOM
M  V30 BEGIN BOND
M  V30 1 2 1 2
M  V30 2 2 1 3
M  V30 3 1 1 4
M  V30 4 1 1 5
M  V30 5 2 5 6
M  V30 6 1 5 7
M  V30 7 1 6 8
M  V30 8 2 7 9
M  V30 9 2 8 10
M  V30 10 1 10 11
M  V30 11 1 11 12
M  V30 12 2 12 13
M  V30 13 1 13 14
M  V30 14 1 13 15
M  V30 15 2 14 16
M  V30 16 1 14 17
M  V30 17 2 15 18
M  V30 18 1 15 19
M  V30 19 2 17 20
M  V30 20 1 18 21
M  V30 21 2 19 22
M  V30 22 2 21 23
M  V30 23 1 9 10
M  V30 24 1 18 20
M  V30 25 1 22 23
M  V30 26 1 6 24
M  V30 27 1 7 25
M  V30 28 1 8 26
M  V30 29 1 9 27
M  V30 30 1 11 28
M  V30 31 1 17 29
M  V30 32 1 19 30
M  V30 33 1 20 31
M  V30 34 1 21 32
M  V30 35 1 22 33
M  V30 36 1 23 34
M  V30 END BOND
M  V30 END CTAB
M  END
>  <Structure No>
1540

>  <LogS>
-1.115857896

>  <MMFF94 Energy>
138.04

$$$$
Compound 1541
Actelion Java MolfileCreator 2.0

  0  0  0  0  0  0              0 V3000
M  V30 BEGIN CTAB
M  V30 COUNTS 73 78 0 0 0
M  V30 BEGIN ATOM
M  V30 1 S -9.7325 -2.1474 -3.0933 0
M  V30 2 O -9.2789 -1.5909 -4.4145 0
M  V30 3 O -11.2332 -2.093 -3.035 0
M  V30 4 O -9.2506 -3.7515 -2.955 0 CHG=-1
M  V30 5 C -9.0246 -1.1985 -1.7767 0
M  V30 6 C -7.6252 -1.1269 -1.5862 0
M  V30 7 C -9.8786 -0.5009 -0.9148 0
M  V30 8 O -6.7494 -1.8002 -2.445 0
M  V30 9 C -7.0943 -0.3549 -0.5209 0
M  V30 10 C -9.3683 0.2706 0.1329 0
M  V30 11 N -5.6751 -0.2509 -0.2987 0
M  V30 12 C -7.9708 0.3516 0.3342 0
M  V30 13 C -10.2432 0.9667 0.9829 0
M  V30 14 N -4.821 -0.9908 -0.8807 0
M  V30 15 C -7.4817 1.1389 1.396 0
M  V30 16 C -9.7417 1.7409 2.0366 0
M  V30 17 C -3.4101 -0.8579 -0.6654 0
M  V30 18 C -8.3604 1.828 2.2347 0
M  V30 19 S -10.836 2.6264 3.0935 0
M  V30 20 C -2.5303 -1.8006 -1.231 0
M  V30 21 C -2.8856 0.2145 0.0762 0
M  V30 22 O -10.3285 2.572 4.5061 0
M  V30 23 O -12.2057 2.0102 3.0481 0
M  V30 24 O -10.9282 4.2262 2.591 0 CHG=-1
M  V30 25 O -3.006 -2.8866 -1.9682 0
M  V30 26 C -1.1497 -1.6602 -1.0571 0
M  V30 27 C -1.5048 0.3524 0.2414 0
M  V30 28 C -0.6218 -0.5803 -0.3279 0
M  V30 29 C 0.8469 -0.4278 -0.1693 0
M  V30 30 C 1.7103 -0.689 -1.2478 0
M  V30 31 C 1.3961 -0.0119 1.0544 0
M  V30 32 C 3.0974 -0.5492 -1.1126 0
M  V30 33 C 2.779 0.1077 1.2055 0
M  V30 34 O 3.8833 -0.7355 -2.2521 0
M  V30 35 C 3.6431 -0.1922 0.1456 0
M  V30 36 N 5.0525 -0.1341 0.3982 0
M  V30 37 N 5.881 -0.9124 -0.1729 0
M  V30 38 C 7.2913 -0.8394 0.0773 0
M  V30 39 C 7.9811 -2.0447 0.2804 0
M  V30 40 C 7.9992 0.3913 0.1263 0
M  V30 41 O 7.2955 -3.2507 0.1653 0 CHG=-1
M  V30 42 C 9.3443 -2.0434 0.6127 0
M  V30 43 C 9.3752 0.3838 0.4755 0
M  V30 44 C 7.397 1.6214 -0.2111 0
M  V30 45 S 10.1972 -3.567 0.8721 0
M  V30 46 C 10.0283 -0.8296 0.7285 0
M  V30 47 C 10.0921 1.5892 0.5435 0
M  V30 48 C 8.1253 2.8114 -0.1514 0
M  V30 49 O 11.5783 -3.3138 1.411 0
M  V30 50 O 10.3061 -4.3054 -0.4324 0
M  V30 51 O 9.3504 -4.5036 1.9816 0 CHG=-1
M  V30 52 C 9.4698 2.8027 0.2294 0
M  V30 53 S 10.3711 4.3146 0.2786 0
M  V30 54 O 10.1787 5.0519 -1.0168 0
M  V30 55 O 11.8366 4.0428 0.4682 0
M  V30 56 O 9.8167 5.2578 1.5519 0 CHG=-1
M  V30 57 H -10.9499 -0.5529 -1.0616 0
M  V30 58 H -7.0451 -2.3529 -3.2377 0
M  V30 59 H -11.314 0.9107 0.8235 0
M  V30 60 H -6.4199 1.2289 1.5838 0
M  V30 61 H -7.962 2.433 3.0403 0
M  V30 62 H -3.5424 0.9585 0.5121 0
M  V30 63 H -3.9944 -3.0483 -2.12 0
M  V30 64 H -0.4914 -2.4054 -1.486 0
M  V30 65 H -1.1279 1.2059 0.7927 0
M  V30 66 H 1.3052 -0.9632 -2.2151 0
M  V30 67 H 0.7585 0.1908 1.9055 0
M  V30 68 H 3.1831 0.4004 2.1677 0
M  V30 69 H 4.8602 -0.4758 -2.309 0
M  V30 70 H 6.3761 1.6804 -0.5584 0
M  V30 71 H 11.08 -0.8314 0.9859 0
M  V30 72 H 11.1384 1.581 0.8252 0
M  V30 73 H 7.6409 3.7424 -0.4179 0
M  V30 END ATOM
M  V30 BEGIN BOND
M  V30 1 2 1 2
M  V30 2 2 1 3
M  V30 3 1 1 4
M  V30 4 1 1 5
M  V30 5 1 5 6
M  V30 6 2 5 7
M  V30 7 1 6 8
M  V30 8 2 6 9
M  V30 9 1 7 10
M  V30 10 1 9 11
M  V30 11 1 9 12
M  V30 12 2 10 13
M  V30 13 2 11 14
M  V30 14 2 12 15
M  V30 15 1 13 16
M  V30 16 1 14 17
M  V30 17 1 15 18
M  V30 18 1 16 19
M  V30 19 2 17 20
M  V30 20 1 17 21
M  V30 21 2 19 22
M  V30 22 2 19 23
M  V30 23 1 19 24
M  V30 24 1 20 25
M  V30 25 1 20 26
M  V30 26 2 21 27
M  V30 27 2 26 28
M  V30 28 1 28 29
M  V30 29 2 29 30
M  V30 30 1 29 31
M  V30 31 1 30 32
M  V30 32 2 31 33
M  V30 33 1 32 34
M  V30 34 2 32 35
M  V30 35 1 35 36
M  V30 36 2 36 37
M  V30 37 1 37 38
M  V30 38 2 38 39
M  V30 39 1 38 40
M  V30 40 1 39 41
M  V30 41 1 39 42
M  V30 42 1 40 43
M  V30 43 2 40 44
M  V30 44 1 42 45
M  V30 45 2 42 46
M  V30 46 2 43 47
M  V30 47 1 44 48
M  V30 48 2 45 49
M  V30 49 2 45 50
M  V30 50 1 45 51
M  V30 51 1 47 52
M  V30 52 1 52 53
M  V30 53 2 53 54
M  V30 54 2 53 55
M  V30 55 1 53 56
M  V30 56 1 10 12
M  V30 57 2 16 18
M  V30 58 1 27 28
M  V30 59 1 33 35
M  V30 60 1 43 46
M  V30 61 2 48 52
M  V30 62 1 7 57
M  V30 63 1 8 58
M  V30 64 1 13 59
M  V30 65 1 15 60
M  V30 66 1 18 61
M  V30 67 1 21 62
M  V30 68 1 25 63
M  V30 69 1 26 64
M  V30 70 1 27 65
M  V30 71 1 30 66
M  V30 72 1 31 67
M  V30 73 1 33 68
M  V30 74 1 34 69
M  V30 75 1 44 70
M  V30 76 1 46 71
M  V30 77 1 47 72
M  V30 78 1 48 73
M  V30 END BOND
M  V30 END CTAB
M  END
>  <Structure No>
1541

>  <LogS>
-1.607428748

>  <MMFF94 Energy>
557.88

$$$$
Compound 1542
Actelion Java MolfileCreator 2.0

  0  0  0  0  0  0              0 V3000
M  V30 BEGIN CTAB
M  V30 COUNTS 60 60 0 0 0
M  V30 BEGIN ATOM
M  V30 1 S 1.1279 0.161 0.4833 0
M  V30 2 O 2.0681 -0.2393 1.584 0
M  V30 3 O 1.7803 -0.1172 -0.8417 0
M  V30 4 O -0.2996 -0.7375 0.6304 0
M  V30 5 O 0.8025 1.8045 0.6195 0 CHG=-1
M  V30 6 C -1.2059 -0.2809 -0.3405 0
M  V30 7 S -1.6558 -0.1579 0.716 0
M  V30 8 C -0.7154 0.3917 -0.5729 0
M  V30 9 C -3.0577 0.3522 -0.0736 0
M  V30 10 N -1.4847 0.9279 -1.5492 0 CHG=1
M  V30 11 N 0.708 0.2977 -0.6514 0
M  V30 12 N -2.7876 0.9078 -1.2749 0
M  V30 13 N -4.3925 0.1824 0.434 0
M  V30 14 C -0.9605 1.4923 -2.7872 0
M  V30 15 N 1.3894 -0.1927 0.304 0
M  V30 16 C -4.9294 1.1308 1.43 0
M  V30 17 C -5.2338 -0.9188 -0.0727 0
M  V30 18 C 2.8161 -0.3042 0.2423 0
M  V30 19 C -4.215 0.974 2.7753 0
M  V30 20 C -4.8363 2.5736 0.9194 0
M  V30 21 C -5.6033 -0.6893 -1.5415 0
M  V30 22 C -4.5385 -2.2716 0.116 0
M  V30 23 C 3.5045 -0.8128 1.3466 0
M  V30 24 C 3.5365 0.0782 -0.8993 0
M  V30 25 C 4.8958 -0.9413 1.3184 0
M  V30 26 C 4.9277 -0.0496 -0.9313 0
M  V30 27 C 5.6331 -0.5628 0.1772 0
M  V30 28 N 7.0784 -0.6997 0.1432 0
M  V30 29 C 7.8784 0.0664 -0.8198 0
M  V30 30 C 7.764 -1.6112 1.0682 0
M  V30 31 H -1.4772 0.7828 -0.1667 0
M  V30 32 H -2.1365 -0.8794 -0.2638 0
M  V30 33 H -0.8014 -0.4204 -1.3666 0
M  V30 34 H -0.3319 2.3785 -2.5578 0
M  V30 35 H -1.7934 1.8057 -3.4521 0
M  V30 36 H -0.3477 0.7335 -3.3174 0
M  V30 37 H -6.0076 0.9243 1.6103 0
M  V30 38 H -6.1855 -0.9665 0.5005 0
M  V30 39 H -3.1622 1.3191 2.7116 0
M  V30 40 H -4.7346 1.5744 3.553 0
M  V30 41 H -4.2296 -0.0909 3.0886 0
M  V30 42 H -5.3403 3.2634 1.6297 0
M  V30 43 H -5.3388 2.6576 -0.0676 0
M  V30 44 H -3.777 2.8886 0.8116 0
M  V30 45 H -4.707 -0.7447 -2.1931 0
M  V30 46 H -6.0746 0.3087 -1.6591 0
M  V30 47 H -6.3286 -1.4611 -1.8755 0
M  V30 48 H -3.6337 -2.3442 -0.5251 0
M  V30 49 H -4.2386 -2.3978 1.1784 0
M  V30 50 H -5.2318 -3.0967 -0.1539 0
M  V30 51 H 2.9598 -1.1092 2.2343 0
M  V30 52 H 3.0253 0.4705 -1.7691 0
M  V30 53 H 5.3883 -1.3289 2.1993 0
M  V30 54 H 5.4431 0.245 -1.8333 0
M  V30 55 H 7.7263 -0.3373 -1.8423 0
M  V30 56 H 8.9618 0.0147 -0.5844 0
M  V30 57 H 7.5819 1.1362 -0.7911 0
M  V30 58 H 7.7425 -1.1915 2.096 0
M  V30 59 H 8.8252 -1.7672 0.7784 0
M  V30 60 H 7.266 -2.6046 1.0573 0
M  V30 END ATOM
M  V30 BEGIN BOND
M  V30 1 2 1 2
M  V30 2 2 1 3
M  V30 3 1 1 4
M  V30 4 1 1 5
M  V30 5 1 4 6
M  V30 6 1 7 8
M  V30 7 1 7 9
M  V30 8 2 8 10
M  V30 9 1 8 11
M  V30 10 2 9 12
M  V30 11 1 9 13
M  V30 12 1 10 14
M  V30 13 2 11 15
M  V30 14 1 13 16
M  V30 15 1 13 17
M  V30 16 1 15 18
M  V30 17 1 16 19
M  V30 18 1 16 20
M  V30 19 1 17 21
M  V30 20 1 17 22
M  V30 21 2 18 23
M  V30 22 1 18 24
M  V30 23 1 23 25
M  V30 24 2 24 26
M  V30 25 2 25 27
M  V30 26 1 27 28
M  V30 27 1 28 29
M  V30 28 1 28 30
M  V30 29 1 10 12
M  V30 30 1 26 27
M  V30 31 1 6 31
M  V30 32 1 6 32
M  V30 33 1 6 33
M  V30 34 1 14 34
M  V30 35 1 14 35
M  V30 36 1 14 36
M  V30 37 1 16 37
M  V30 38 1 17 38
M  V30 39 1 19 39
M  V30 40 1 19 40
M  V30 41 1 19 41
M  V30 42 1 20 42
M  V30 43 1 20 43
M  V30 44 1 20 44
M  V30 45 1 21 45
M  V30 46 1 21 46
M  V30 47 1 21 47
M  V30 48 1 22 48
M  V30 49 1 22 49
M  V30 50 1 22 50
M  V30 51 1 23 51
M  V30 52 1 24 52
M  V30 53 1 25 53
M  V30 54 1 26 54
M  V30 55 1 29 55
M  V30 56 1 29 56
M  V30 57 1 29 57
M  V30 58 1 30 58
M  V30 59 1 30 59
M  V30 60 1 30 60
M  V30 END BOND
M  V30 END CTAB
M  END
>  <Structure No>
1542

>  <LogS>
-1.259698438

>  <MMFF94 Energy>
33.131

$$$$
Compound 1543
Actelion Java MolfileCreator 2.0

  0  0  0  0  0  0              0 V3000
M  V30 BEGIN CTAB
M  V30 COUNTS 72 78 0 0 0
M  V30 BEGIN ATOM
M  V30 1 S 7.7519 0.4988 -1.9962 0
M  V30 2 O 7.8583 1.5926 -0.9718 0
M  V30 3 O 7.9594 1.1162 -3.3501 0
M  V30 4 O 8.9525 -0.6498 -1.7469 0 CHG=-1
M  V30 5 C 6.144 -0.2564 -1.9278 0
M  V30 6 C 5.3645 -0.383 -0.7329 0
M  V30 7 C 5.5658 -0.5846 -3.1613 0
M  V30 8 C 5.9235 -0.3263 0.5766 0
M  V30 9 C 3.9531 -0.5989 -0.86 0
M  V30 10 C 4.2336 -0.9614 -3.2481 0
M  V30 11 N 7.3297 -0.5132 0.8033 0
M  V30 12 C 5.077 -0.3305 1.6928 0
M  V30 13 C 3.1186 -0.5184 0.2892 0
M  V30 14 C 3.4266 -0.9501 -2.1192 0
M  V30 15 C 8.089 0.2109 1.7879 0
M  V30 16 C 3.6994 -0.3962 1.5484 0
M  V30 17 N 1.6836 -0.5314 0.2343 0
M  V30 18 C 7.676 1.4775 2.2444 0
M  V30 19 C 9.2883 -0.3344 2.2742 0
M  V30 20 N 1.0299 -0.0088 -0.7261 0
M  V30 21 C 8.4366 2.167 3.192 0
M  V30 22 C 10.0459 0.3594 3.2219 0
M  V30 23 C -0.4034 -0.0261 -0.7781 0
M  V30 24 C 9.618 1.6067 3.6832 0
M  V30 25 C -1.0671 0.2594 -1.9893 0
M  V30 26 C -1.1571 -0.3269 0.367 0
M  V30 27 C -2.4878 0.2146 -2.0464 0
M  V30 28 C -0.3401 0.5641 -3.1571 0
M  V30 29 C -2.5492 -0.3599 0.3139 0
M  V30 30 C -3.2279 -0.0982 -0.8871 0
M  V30 31 C -3.136 0.4862 -3.2666 0
M  V30 32 C -1.0033 0.8219 -4.3553 0
M  V30 33 N -4.6607 -0.1742 -0.947 0
M  V30 34 C -2.3949 0.7836 -4.4112 0
M  V30 35 N -5.3839 -0.2618 0.096 0
M  V30 36 C -6.8144 -0.3682 0.0196 0
M  V30 37 C -7.6104 -0.0809 1.1529 0
M  V30 38 C -7.4325 -0.7667 -1.1762 0
M  V30 39 C -9.0306 -0.1721 1.0689 0
M  V30 40 C -7.015 0.3202 2.3629 0
M  V30 41 C -8.817 -0.8852 -1.2525 0
M  V30 42 C -9.8206 0.1663 2.2026 0
M  V30 43 C -9.6125 -0.5901 -0.1465 0
M  V30 44 C -7.8003 0.6354 3.4687 0
M  V30 45 S -11.5917 0.1133 2.1782 0
M  V30 46 C -9.1888 0.5634 3.3894 0
M  V30 47 O -12.0501 -1.3078 1.97 0
M  V30 48 O -12.1121 0.9853 1.0644 0
M  V30 49 O -12.2202 0.6797 3.6368 0 CHG=-1
M  V30 50 H 6.1433 -0.531 -4.0752 0
M  V30 51 H 3.8117 -1.23 -4.2067 0
M  V30 52 H 7.7763 -1.3367 0.3394 0
M  V30 53 H 5.4914 -0.3207 2.6928 0
M  V30 54 H 2.4011 -1.2665 -2.2456 0
M  V30 55 H 3.0765 -0.371 2.4335 0
M  V30 56 H 6.7743 1.9384 1.8626 0
M  V30 57 H 9.6316 -1.2995 1.9228 0
M  V30 58 H 8.1127 3.1393 3.5416 0
M  V30 59 H 10.967 -0.0667 3.596 0
M  V30 60 H 10.2034 2.1421 4.4175 0
M  V30 61 H -0.6676 -0.5345 1.3091 0
M  V30 62 H 0.7415 0.598 -3.155 0
M  V30 63 H -3.0968 -0.604 1.2144 0
M  V30 64 H -4.2163 0.4719 -3.3435 0
M  V30 65 H -0.4362 1.0515 -5.2472 0
M  V30 66 H -2.9018 0.9864 -5.3448 0
M  V30 67 H -6.8401 -1.0076 -2.0496 0
M  V30 68 H -5.9392 0.4003 2.4597 0
M  V30 69 H -9.2774 -1.2033 -2.1794 0
M  V30 70 H -10.6814 -0.6956 -0.2619 0
M  V30 71 H -7.3285 0.9422 4.3931 0
M  V30 72 H -9.7709 0.8172 4.2641 0
M  V30 END ATOM
M  V30 BEGIN BOND
M  V30 1 2 1 2
M  V30 2 2 1 3
M  V30 3 1 1 4
M  V30 4 1 1 5
M  V30 5 1 5 6
M  V30 6 2 5 7
M  V30 7 2 6 8
M  V30 8 1 6 9
M  V30 9 1 7 10
M  V30 10 1 8 11
M  V30 11 1 8 12
M  V30 12 2 9 13
M  V30 13 1 9 14
M  V30 14 1 11 15
M  V30 15 2 12 16
M  V30 16 1 13 17
M  V30 17 2 15 18
M  V30 18 1 15 19
M  V30 19 2 17 20
M  V30 20 1 18 21
M  V30 21 2 19 22
M  V30 22 1 20 23
M  V30 23 2 21 24
M  V30 24 1 23 25
M  V30 25 2 23 26
M  V30 26 1 25 27
M  V30 27 2 25 28
M  V30 28 1 26 29
M  V30 29 1 27 30
M  V30 30 2 27 31
M  V30 31 1 28 32
M  V30 32 1 30 33
M  V30 33 1 31 34
M  V30 34 2 33 35
M  V30 35 1 35 36
M  V30 36 1 36 37
M  V30 37 2 36 38
M  V30 38 1 37 39
M  V30 39 2 37 40
M  V30 40 1 38 41
M  V30 41 2 39 42
M  V30 42 1 39 43
M  V30 43 1 40 44
M  V30 44 1 42 45
M  V30 45 1 42 46
M  V30 46 2 45 47
M  V30 47 2 45 48
M  V30 48 1 45 49
M  V30 49 2 10 14
M  V30 50 1 13 16
M  V30 51 1 22 24
M  V30 52 2 29 30
M  V30 53 2 32 34
M  V30 54 2 41 43
M  V30 55 2 44 46
M  V30 56 1 7 50
M  V30 57 1 10 51
M  V30 58 1 11 52
M  V30 59 1 12 53
M  V30 60 1 14 54
M  V30 61 1 16 55
M  V30 62 1 18 56
M  V30 63 1 19 57
M  V30 64 1 21 58
M  V30 65 1 22 59
M  V30 66 1 24 60
M  V30 67 1 26 61
M  V30 68 1 28 62
M  V30 69 1 29 63
M  V30 70 1 31 64
M  V30 71 1 32 65
M  V30 72 1 34 66
M  V30 73 1 38 67
M  V30 74 1 40 68
M  V30 75 1 41 69
M  V30 76 1 43 70
M  V30 77 1 44 71
M  V30 78 1 46 72
M  V30 END BOND
M  V30 END CTAB
M  END
>  <Structure No>
1543

>  <LogS>
-1.463118539

>  <MMFF94 Energy>
217.47

$$$$
Compound 1544
Actelion Java MolfileCreator 2.0

  0  0  0  0  0  0              0 V3000
M  V30 BEGIN CTAB
M  V30 COUNTS 39 41 0 0 0
M  V30 BEGIN ATOM
M  V30 1 Cl 4.5529 2.1059 -2.7805 0
M  V30 2 C 4.434 0.798 -1.6076 0
M  V30 3 C 5.5751 0.1408 -1.1111 0
M  V30 4 C 3.1618 0.418 -1.1673 0
M  V30 5 S 7.1964 0.5961 -1.6469 0
M  V30 6 C 5.4188 -0.8889 -0.1734 0
M  V30 7 C 2.9999 -0.6191 -0.231 0
M  V30 8 O 8.2295 -0.2881 -1.007 0
M  V30 9 O 7.4707 2.0225 -1.262 0
M  V30 10 O 7.3033 0.4292 -3.3151 0 CHG=-1
M  V30 11 C 4.1473 -1.2705 0.2683 0
M  V30 12 N 1.6838 -0.9976 0.2131 0
M  V30 13 Cl 4.04 -2.5641 1.4578 0
M  V30 14 N 0.5407 -0.3747 -0.315 0
M  V30 15 C -0.6521 -0.4346 0.2024 0
M  V30 16 C -1.8398 0.1682 -0.3659 0
M  V30 17 C -1.1272 -0.988 1.4894 0
M  V30 18 N -1.8987 0.9177 -1.4199 0
M  V30 19 N -2.9169 -0.0734 0.5308 0
M  V30 20 N -2.3998 -0.7643 1.6379 0
M  V30 21 C -0.3237 -1.6597 2.5566 0
M  V30 22 C -4.2864 0.3547 0.4259 0
M  V30 23 C -5.0456 0.5596 1.5911 0
M  V30 24 C -4.8972 0.5409 -0.8279 0
M  V30 25 C -6.3805 0.9665 1.5045 0
M  V30 26 C -6.233 0.9469 -0.9096 0
M  V30 27 C -6.9731 1.163 0.2551 0
M  V30 28 H 2.2986 0.9385 -1.5619 0
M  V30 29 H 6.287 -1.4003 0.2216 0
M  V30 30 H 1.5771 -1.8289 0.8276 0
M  V30 31 H -1.0529 1.1029 -2.0038 0
M  V30 32 H 0.5745 -1.0535 2.7957 0
M  V30 33 H -0.9263 -1.759 3.4845 0
M  V30 34 H -0.0315 -2.6771 2.2245 0
M  V30 35 H -4.6012 0.4157 2.5676 0
M  V30 36 H -4.3568 0.348 -1.7437 0
M  V30 37 H -6.9559 1.1294 2.4068 0
M  V30 38 H -6.6971 1.0867 -1.8775 0
M  V30 39 H -8.0071 1.4763 0.1895 0
M  V30 END ATOM
M  V30 BEGIN BOND
M  V30 1 1 1 2
M  V30 2 2 2 3
M  V30 3 1 2 4
M  V30 4 1 3 5
M  V30 5 1 3 6
M  V30 6 2 4 7
M  V30 7 2 5 8
M  V30 8 2 5 9
M  V30 9 1 5 10
M  V30 10 2 6 11
M  V30 11 1 7 12
M  V30 12 1 11 13
M  V30 13 1 12 14
M  V30 14 2 14 15
M  V30 15 1 15 16
M  V30 16 1 15 17
M  V30 17 2 16 18
M  V30 18 1 16 19
M  V30 19 2 17 20
M  V30 20 1 17 21
M  V30 21 1 19 22
M  V30 22 2 22 23
M  V30 23 1 22 24
M  V30 24 1 23 25
M  V30 25 2 24 26
M  V30 26 2 25 27
M  V30 27 1 7 11
M  V30 28 1 19 20
M  V30 29 1 26 27
M  V30 30 1 4 28
M  V30 31 1 6 29
M  V30 32 1 12 30
M  V30 33 1 18 31
M  V30 34 1 21 32
M  V30 35 1 21 33
M  V30 36 1 21 34
M  V30 37 1 23 35
M  V30 38 1 24 36
M  V30 39 1 25 37
M  V30 40 1 26 38
M  V30 41 1 27 39
M  V30 END BOND
M  V30 END CTAB
M  END
>  <Structure No>
1544

>  <LogS>
-1.237068525

>  <MMFF94 Energy>
158.65

$$$$
Compound 1545
Actelion Java MolfileCreator 2.0

  0  0  0  0  0  0              0 V3000
M  V30 BEGIN CTAB
M  V30 COUNTS 32 32 0 0 0
M  V30 BEGIN ATOM
M  V30 1 O 0.0 -1.1014 0.0786 0
M  V30 2 C 0.0872 0.318 0.1599 0 CFG=2
M  V30 3 C -0.7737 -1.5244 -1.0254 0
M  V30 4 C -1.2153 1.0515 -0.2719 0
M  V30 5 C 1.3144 0.8584 -0.614 0
M  V30 6 C -2.2598 -1.1845 -0.8187 0
M  V30 7 C -2.4637 0.1608 -0.0713 0 CFG=2
M  V30 8 C 2.7 0.3728 -0.1171 0
M  V30 9 O -3.5912 0.8022 -0.6211 0
M  V30 10 C -2.7173 -0.0937 1.4321 0
M  V30 11 C 2.9637 0.7274 1.3525 0
M  V30 12 C 2.9428 -1.1207 -0.3744 0
M  V30 13 H 0.2271 0.5667 1.2327 0
M  V30 14 H -0.3993 -1.0747 -1.9722 0
M  V30 15 H -0.6659 -2.6242 -1.1335 0
M  V30 16 H -1.1554 1.3255 -1.3496 0
M  V30 17 H -1.3173 2.0025 0.2969 0
M  V30 18 H 1.2139 0.6116 -1.6929 0
M  V30 19 H 1.3038 1.9694 -0.5492 0
M  V30 20 H -2.738 -1.1389 -1.8223 0
M  V30 21 H -2.756 -2.0168 -0.2718 0
M  V30 22 H 3.455 0.9248 -0.7208 0
M  V30 23 H -3.7073 1.6722 -0.1553 0
M  V30 24 H -2.7875 0.868 1.9841 0
M  V30 25 H -1.9039 -0.6998 1.8837 0
M  V30 26 H -3.6748 -0.6405 1.5699 0
M  V30 27 H 4.0326 0.5484 1.5967 0
M  V30 28 H 2.7413 1.8001 1.5369 0
M  V30 29 H 2.3454 0.1049 2.033 0
M  V30 30 H 4.0223 -1.3511 -0.2476 0
M  V30 31 H 2.3759 -1.7525 0.3399 0
M  V30 32 H 2.6526 -1.3895 -1.4122 0
M  V30 END ATOM
M  V30 BEGIN BOND
M  V30 1 1 1 2
M  V30 2 1 1 3
M  V30 3 1 2 4
M  V30 4 1 2 5
M  V30 5 1 3 6
M  V30 6 1 4 7
M  V30 7 1 5 8
M  V30 8 1 7 9
M  V30 9 1 7 10
M  V30 10 1 8 11
M  V30 11 1 8 12
M  V30 12 1 6 7
M  V30 13 1 2 13
M  V30 14 1 3 14
M  V30 15 1 3 15
M  V30 16 1 4 16
M  V30 17 1 4 17
M  V30 18 1 5 18
M  V30 19 1 5 19
M  V30 20 1 6 20
M  V30 21 1 6 21
M  V30 22 1 8 22
M  V30 23 1 9 23
M  V30 24 1 10 24
M  V30 25 1 10 25
M  V30 26 1 10 26
M  V30 27 1 11 27
M  V30 28 1 11 28
M  V30 29 1 11 29
M  V30 30 1 12 30
M  V30 31 1 12 31
M  V30 32 1 12 32
M  V30 END BOND
M  V30 BEGIN COLLECTION
M  V30 MDLV30/STEABS ATOMS=(2 2 7)
M  V30 END COLLECTION
M  V30 END CTAB
M  END
>  <Structure No>
1545

>  <LogS>
2.13768162

>  <MMFF94 Energy>
22.517

$$$$
Compound 1546
Actelion Java MolfileCreator 2.0

  0  0  0  0  0  0              0 V3000
M  V30 BEGIN CTAB
M  V30 COUNTS 79 84 0 0 0
M  V30 BEGIN ATOM
M  V30 1 S -8.3238 1.6775 2.2651 0
M  V30 2 O -7.7601 2.2669 3.5289 0
M  V30 3 O -8.587 2.7674 1.2631 0
M  V30 4 O -7.21 0.559 1.6015 0
M  V30 5 C -9.8295 0.8415 2.6283 0
M  V30 6 C -5.9564 0.8927 1.0721 0
M  V30 7 C -11.0373 1.5511 2.6753 0
M  V30 8 C -9.8296 -0.542 2.8515 0
M  V30 9 C -5.4416 2.2016 1.0991 0
M  V30 10 C -5.1972 -0.126 0.4828 0
M  V30 11 C -12.238 0.8803 2.9325 0
M  V30 12 C -11.029 -1.214 3.1079 0
M  V30 13 C -4.2094 2.4864 0.5044 0
M  V30 14 C -3.9602 0.1562 -0.1056 0
M  V30 15 C -12.2401 -0.505 3.1623 0
M  V30 16 C -3.4664 1.4731 -0.1099 0
M  V30 17 C -13.532 -1.2358 3.3874 0
M  V30 18 N -2.239 1.8142 -0.7655 0
M  V30 19 N -1.487 0.9378 -1.302 0
M  V30 20 C -0.2896 1.2883 -2.0165 0
M  V30 21 C 0.5671 0.277 -2.5062 0
M  V30 22 C 0.004 2.6341 -2.2954 0
M  V30 23 C 1.704 0.6262 -3.2889 0
M  V30 24 C 0.2993 -1.0812 -2.2455 0
M  V30 25 C 1.1183 2.9756 -3.0565 0
M  V30 26 C 1.9818 1.9913 -3.5434 0
M  V30 27 C 2.5076 -0.3997 -3.8228 0
M  V30 28 C 1.1316 -2.083 -2.754 0
M  V30 29 N 3.0865 2.4114 -4.3609 0
M  V30 30 C 2.226 -1.738 -3.5507 0
M  V30 31 S 0.7653 -3.778 -2.4393 0
M  V30 32 N 4.3237 2.2242 -4.0973 0
M  V30 33 O 0.1625 -3.9244 -1.07 0
M  V30 34 O 2.024 -4.5978 -2.5043 0
M  V30 35 O -0.3259 -4.3328 -3.5901 0 CHG=-1
M  V30 36 C 4.8568 1.6596 -2.8871 0
M  V30 37 C 4.3482 1.993 -1.6192 0
M  V30 38 C 5.9806 0.8307 -2.9745 0
M  V30 39 C 4.9328 1.4644 -0.4647 0
M  V30 40 C 6.5676 0.3051 -1.8202 0
M  V30 41 C 6.0546 0.6284 -0.5536 0
M  V30 42 N 6.6446 0.0994 0.6456 0
M  V30 43 C 8.0475 -0.1959 0.7774 0
M  V30 44 C 8.4813 -1.3264 1.5036 0
M  V30 45 C 9.0027 0.6798 0.2331 0
M  V30 46 S 7.3237 -2.4703 2.1959 0
M  V30 47 C 9.8555 -1.568 1.654 0
M  V30 48 C 10.3675 0.4291 0.3845 0
M  V30 49 O 6.3724 -2.9306 1.1285 0
M  V30 50 O 6.5563 -1.8118 3.3074 0
M  V30 51 O 8.1247 -3.8136 2.8127 0 CHG=-1
M  V30 52 C 10.8093 -0.6987 1.0948 0
M  V30 53 N 12.2178 -0.955 1.2517 0 CHG=1
M  V30 54 O 12.6155 -1.978 1.8467 0
M  V30 55 O 13.1503 -0.0828 0.7332 0 CHG=-1
M  V30 56 H -11.0496 2.621 2.5026 0
M  V30 57 H -8.9038 -1.102 2.8184 0
M  V30 58 H -5.9806 3.006 1.5703 0
M  V30 59 H -5.5753 -1.142 0.4688 0
M  V30 60 H -13.164 1.4416 2.9496 0
M  V30 61 H -11.0143 -2.2871 3.2586 0
M  V30 62 H -3.8369 3.504 0.5126 0
M  V30 63 H -3.4017 -0.6455 -0.5721 0
M  V30 64 H -14.3112 -0.5532 3.7903 0
M  V30 65 H -13.3889 -2.0619 4.1172 0
M  V30 66 H -13.8843 -1.6621 2.4254 0
M  V30 67 H -0.645 3.4262 -1.944 0
M  V30 68 H -0.5606 -1.3699 -1.654 0
M  V30 69 H 1.3132 4.02 -3.2705 0
M  V30 70 H 3.3503 -0.1801 -4.4643 0
M  V30 71 H 2.8616 -2.5077 -3.9684 0
M  V30 72 H 3.5259 2.6853 -1.514 0
M  V30 73 H 6.3959 0.5822 -3.9427 0
M  V30 74 H 4.5307 1.7353 0.5027 0
M  V30 75 H 7.4167 -0.3578 -1.9179 0
M  V30 76 H 6.0306 -0.006 1.4857 0
M  V30 77 H 8.6858 1.5701 -0.2963 0
M  V30 78 H 10.1847 -2.4365 2.2077 0
M  V30 79 H 11.075 1.1252 -0.0478 0
M  V30 END ATOM
M  V30 BEGIN BOND
M  V30 1 2 1 2
M  V30 2 2 1 3
M  V30 3 1 1 4
M  V30 4 1 1 5
M  V30 5 1 4 6
M  V30 6 2 5 7
M  V30 7 1 5 8
M  V30 8 2 6 9
M  V30 9 1 6 10
M  V30 10 1 7 11
M  V30 11 2 8 12
M  V30 12 1 9 13
M  V30 13 2 10 14
M  V30 14 2 11 15
M  V30 15 2 13 16
M  V30 16 1 15 17
M  V30 17 1 16 18
M  V30 18 2 18 19
M  V30 19 1 19 20
M  V30 20 1 20 21
M  V30 21 2 20 22
M  V30 22 1 21 23
M  V30 23 2 21 24
M  V30 24 1 22 25
M  V30 25 1 23 26
M  V30 26 2 23 27
M  V30 27 1 24 28
M  V30 28 1 26 29
M  V30 29 1 27 30
M  V30 30 1 28 31
M  V30 31 2 29 32
M  V30 32 2 31 33
M  V30 33 2 31 34
M  V30 34 1 31 35
M  V30 35 1 32 36
M  V30 36 2 36 37
M  V30 37 1 36 38
M  V30 38 1 37 39
M  V30 39 2 38 40
M  V30 40 2 39 41
M  V30 41 1 41 42
M  V30 42 1 42 43
M  V30 43 2 43 44
M  V30 44 1 43 45
M  V30 45 1 44 46
M  V30 46 1 44 47
M  V30 47 2 45 48
M  V30 48 2 46 49
M  V30 49 2 46 50
M  V30 50 1 46 51
M  V30 51 2 47 52
M  V30 52 1 52 53
M  V30 53 2 53 54
M  V30 54 1 53 55
M  V30 55 1 12 15
M  V30 56 1 14 16
M  V30 57 2 25 26
M  V30 58 2 28 30
M  V30 59 1 40 41
M  V30 60 1 48 52
M  V30 61 1 7 56
M  V30 62 1 8 57
M  V30 63 1 9 58
M  V30 64 1 10 59
M  V30 65 1 11 60
M  V30 66 1 12 61
M  V30 67 1 13 62
M  V30 68 1 14 63
M  V30 69 1 17 64
M  V30 70 1 17 65
M  V30 71 1 17 66
M  V30 72 1 22 67
M  V30 73 1 24 68
M  V30 74 1 25 69
M  V30 75 1 27 70
M  V30 76 1 30 71
M  V30 77 1 37 72
M  V30 78 1 38 73
M  V30 79 1 39 74
M  V30 80 1 40 75
M  V30 81 1 42 76
M  V30 82 1 45 77
M  V30 83 1 47 78
M  V30 84 1 48 79
M  V30 END BOND
M  V30 END CTAB
M  END
>  <Structure No>
1546

>  <LogS>
-1.570984747

>  <MMFF94 Energy>
235.09

$$$$
Compound 1547
Actelion Java MolfileCreator 2.0

  0  0  0  0  0  0              0 V3000
M  V30 BEGIN CTAB
M  V30 COUNTS 25 25 0 0 0
M  V30 BEGIN ATOM
M  V30 1 N 2.7256 0.0777 0.0777 0
M  V30 2 C 1.2961 -0.077 0.0077 0
M  V30 3 C 0.4505 1.062 -0.044 0
M  V30 4 C 0.7264 -1.3701 0.0129 0
M  V30 5 C -0.9573 0.8989 0.0379 0
M  V30 6 C 1.0469 2.4442 -0.1978 0
M  V30 7 C -0.6651 -1.5154 0.0097 0
M  V30 8 C 1.5875 -2.6065 0.037 0
M  V30 9 N -1.8203 2.0466 0.1388 0
M  V30 10 C -1.5107 -0.4012 0.0429 0
M  V30 11 C -3.0008 -0.6194 0.0985 0
M  V30 12 H 3.1644 0.9622 0.4147 0
M  V30 13 H 3.3775 -0.7121 -0.1183 0
M  V30 14 H 0.3738 3.1153 -0.7693 0
M  V30 15 H 1.249 2.8804 0.8026 0
M  V30 16 H 1.9836 2.4182 -0.7908 0
M  V30 17 H -1.0958 -2.51 0.0104 0
M  V30 18 H 2.1999 -2.6552 -0.8875 0
M  V30 19 H 0.9793 -3.5343 0.0925 0
M  V30 20 H 2.2533 -2.5858 0.9253 0
M  V30 21 H -1.4681 2.9686 0.4768 0
M  V30 22 H -2.8469 1.9835 -0.0349 0
M  V30 23 H -3.4761 -0.1971 -0.8116 0
M  V30 24 H -3.4211 -0.1282 1.0013 0
M  V30 25 H -3.2602 -1.6983 0.1493 0
M  V30 END ATOM
M  V30 BEGIN BOND
M  V30 1 1 1 2
M  V30 2 2 2 3
M  V30 3 1 2 4
M  V30 4 1 3 5
M  V30 5 1 3 6
M  V30 6 2 4 7
M  V30 7 1 4 8
M  V30 8 1 5 9
M  V30 9 2 5 10
M  V30 10 1 10 11
M  V30 11 1 7 10
M  V30 12 1 1 12
M  V30 13 1 1 13
M  V30 14 1 6 14
M  V30 15 1 6 15
M  V30 16 1 6 16
M  V30 17 1 7 17
M  V30 18 1 8 18
M  V30 19 1 8 19
M  V30 20 1 8 20
M  V30 21 1 9 21
M  V30 22 1 9 22
M  V30 23 1 11 23
M  V30 24 1 11 24
M  V30 25 1 11 25
M  V30 END BOND
M  V30 END CTAB
M  END
>  <Structure No>
1547

>  <LogS>
-0.820716356

>  <MMFF94 Energy>
22.556

$$$$
Compound 1548
Actelion Java MolfileCreator 2.0

  0  0  0  0  0  0              0 V3000
M  V30 BEGIN CTAB
M  V30 COUNTS 83 88 0 0 0
M  V30 BEGIN ATOM
M  V30 1 S -4.4615 -5.2065 2.3115 0
M  V30 2 O -4.0311 -6.559 2.8069 0
M  V30 3 O -5.2236 -5.3788 1.0279 0
M  V30 4 O -5.4535 -4.497 3.4675 0 CHG=-1
M  V30 5 C -3.0599 -4.1667 2.0254 0
M  V30 6 C -3.2606 -2.7812 1.5433 0
M  V30 7 C -1.8296 -4.6265 2.2818 0
M  V30 8 N -4.4853 -2.3431 1.4371 0
M  V30 9 C -2.0614 -1.9758 1.1817 0
M  V30 10 C -0.6203 -3.8009 2.0715 0
M  V30 11 N -4.8798 -1.0263 1.1364 0
M  V30 12 O -2.1951 -0.8903 0.5597 0
M  V30 13 C -0.7022 -2.51 1.5029 0
M  V30 14 C 0.6173 -4.3309 2.4446 0
M  V30 15 C -6.2358 -0.7595 0.7524 0
M  V30 16 C 0.4981 -1.7747 1.2822 0
M  V30 17 C 1.7949 -3.6124 2.2427 0
M  V30 18 C -6.7824 0.5172 0.9477 0
M  V30 19 C -7.041 -1.7739 0.2074 0
M  V30 20 N 0.4442 -0.4478 0.744 0
M  V30 21 C 1.7536 -2.3451 1.6321 0
M  V30 22 S 3.3388 -4.3406 2.711 0
M  V30 23 C -8.1187 0.772 0.6221 0
M  V30 24 C -8.3708 -1.5133 -0.132 0
M  V30 25 N 3.0109 -1.7128 1.3286 0
M  V30 26 O 4.0843 -4.7679 1.4783 0
M  V30 27 O 3.111 -5.5396 3.5912 0
M  V30 28 O 4.2566 -3.2193 3.5649 0 CHG=-1
M  V30 29 C -8.9149 -0.2378 0.0513 0
M  V30 30 N 3.1372 -0.7025 0.568 0
M  V30 31 N -10.3118 -0.0427 -0.2314 0
M  V30 32 C 4.4192 -0.1402 0.2665 0
M  V30 33 N -10.8478 1.0101 -0.724 0
M  V30 34 C 5.6099 -0.7271 0.7337 0
M  V30 35 C 4.4876 0.9986 -0.5437 0
M  V30 36 C -10.1391 2.1613 -1.207 0
M  V30 37 C 6.8489 -0.1878 0.376 0
M  V30 38 C 5.7266 1.5434 -0.894 0
M  V30 39 C -9.2089 2.0741 -2.2683 0
M  V30 40 C -10.4274 3.4095 -0.6413 0
M  V30 41 C 6.9135 0.9494 -0.4487 0
M  V30 42 N -8.9676 0.837 -2.9501 0
M  V30 43 C -8.5409 3.2326 -2.6943 0
M  V30 44 C -9.7613 4.5567 -1.0748 0
M  V30 45 N 8.1661 1.5093 -0.8621 0
M  V30 46 C -8.8096 4.4728 -2.0984 0
M  V30 47 N 9.278 0.9632 -0.5808 0
M  V30 48 N -8.1237 5.6471 -2.541 0
M  V30 49 C 10.5383 1.511 -0.9963 0
M  V30 50 C 10.7682 2.9038 -1.1556 0
M  V30 51 C 11.5719 0.6083 -1.2818 0
M  V30 52 N 9.8091 3.8874 -0.7444 0
M  V30 53 C 12.001 3.3416 -1.6701 0
M  V30 54 C 12.7974 1.0585 -1.7755 0
M  V30 55 C 13.0116 2.4254 -1.9893 0
M  V30 56 N 14.2588 2.8831 -2.522 0
M  V30 57 H -1.7038 -5.6305 2.6675 0
M  V30 58 H -4.2824 -0.2227 1.4297 0
M  V30 59 H 0.6658 -5.32 2.8866 0
M  V30 60 H -6.1824 1.3055 1.3868 0
M  V30 61 H -6.6443 -2.7679 0.0452 0
M  V30 62 H 0.0036 -0.2646 -0.1849 0
M  V30 63 H 0.934 0.3411 1.2208 0
M  V30 64 H -8.5334 1.7441 0.8491 0
M  V30 65 H -8.9831 -2.3103 -0.5358 0
M  V30 66 H 5.5846 -1.6109 1.3586 0
M  V30 67 H 3.5787 1.4576 -0.9119 0
M  V30 68 H 7.7528 -0.6665 0.734 0
M  V30 69 H 5.7632 2.4223 -1.5272 0
M  V30 70 H -11.1582 3.4883 0.1538 0
M  V30 71 H -8.2283 0.7727 -3.6854 0
M  V30 72 H -9.5507 -0.0102 -2.7758 0
M  V30 73 H -7.8245 3.1739 -3.5037 0
M  V30 74 H -9.9837 5.5093 -0.612 0
M  V30 75 H -8.2989 6.5726 -2.083 0
M  V30 76 H -7.4159 5.5981 -3.3081 0
M  V30 77 H 11.4158 -0.4565 -1.1446 0
M  V30 78 H 9.9625 4.8987 -0.9641 0
M  V30 79 H 9.0063 3.6566 -0.1194 0
M  V30 80 H 12.182 4.4011 -1.8031 0
M  V30 81 H 13.5769 0.3424 -2.0069 0
M  V30 82 H 14.4372 3.9022 -2.6726 0
M  V30 83 H 15.0115 2.2027 -2.774 0
M  V30 END ATOM
M  V30 BEGIN BOND
M  V30 1 2 1 2
M  V30 2 2 1 3
M  V30 3 1 1 4
M  V30 4 1 1 5
M  V30 5 1 5 6
M  V30 6 2 5 7
M  V30 7 2 6 8
M  V30 8 1 6 9
M  V30 9 1 7 10
M  V30 10 1 8 11
M  V30 11 2 9 12
M  V30 12 1 9 13
M  V30 13 1 10 14
M  V30 14 1 11 15
M  V30 15 1 13 16
M  V30 16 2 14 17
M  V30 17 2 15 18
M  V30 18 1 15 19
M  V30 19 1 16 20
M  V30 20 2 16 21
M  V30 21 1 17 22
M  V30 22 1 18 23
M  V30 23 2 19 24
M  V30 24 1 21 25
M  V30 25 2 22 26
M  V30 26 2 22 27
M  V30 27 1 22 28
M  V30 28 2 23 29
M  V30 29 2 25 30
M  V30 30 1 29 31
M  V30 31 1 30 32
M  V30 32 2 31 33
M  V30 33 2 32 34
M  V30 34 1 32 35
M  V30 35 1 33 36
M  V30 36 1 34 37
M  V30 37 2 35 38
M  V30 38 2 36 39
M  V30 39 1 36 40
M  V30 40 2 37 41
M  V30 41 1 39 42
M  V30 42 1 39 43
M  V30 43 2 40 44
M  V30 44 1 41 45
M  V30 45 2 43 46
M  V30 46 2 45 47
M  V30 47 1 46 48
M  V30 48 1 47 49
M  V30 49 2 49 50
M  V30 50 1 49 51
M  V30 51 1 50 52
M  V30 52 1 50 53
M  V30 53 2 51 54
M  V30 54 2 53 55
M  V30 55 1 55 56
M  V30 56 2 10 13
M  V30 57 1 17 21
M  V30 58 1 24 29
M  V30 59 1 38 41
M  V30 60 1 44 46
M  V30 61 1 54 55
M  V30 62 1 7 57
M  V30 63 1 11 58
M  V30 64 1 14 59
M  V30 65 1 18 60
M  V30 66 1 19 61
M  V30 67 1 20 62
M  V30 68 1 20 63
M  V30 69 1 23 64
M  V30 70 1 24 65
M  V30 71 1 34 66
M  V30 72 1 35 67
M  V30 73 1 37 68
M  V30 74 1 38 69
M  V30 75 1 40 70
M  V30 76 1 42 71
M  V30 77 1 42 72
M  V30 78 1 43 73
M  V30 79 1 44 74
M  V30 80 1 48 75
M  V30 81 1 48 76
M  V30 82 1 51 77
M  V30 83 1 52 78
M  V30 84 1 52 79
M  V30 85 1 53 80
M  V30 86 1 54 81
M  V30 87 1 56 82
M  V30 88 1 56 83
M  V30 END BOND
M  V30 END CTAB
M  END
>  <Structure No>
1548

>  <LogS>
-1.568718144

>  <MMFF94 Energy>
254.67

$$$$
Compound 1549
Actelion Java MolfileCreator 2.0

  0  0  0  0  0  0              0 V3000
M  V30 BEGIN CTAB
M  V30 COUNTS 28 28 0 0 0
M  V30 BEGIN ATOM
M  V30 1 O 0.0796 2.7098 -1.7527 0
M  V30 2 C 0.152 1.7383 -1.0155 0
M  V30 3 C -0.952 1.4684 -0.037 0
M  V30 4 C 1.3734 0.8699 -1.0667 0
M  V30 5 C -1.2529 -0.0561 0.1394 0
M  V30 6 C 1.2827 -0.3355 -0.0986 0
M  V30 7 N -0.076 -0.949 -0.1535 0
M  V30 8 C -2.4762 -0.4104 -0.7566 0
M  V30 9 C -1.6965 -0.3202 1.5941 0
M  V30 10 C 1.6486 0.0804 1.3479 0
M  V30 11 C 2.3441 -1.3875 -0.5177 0
M  V30 12 O -0.2272 -1.5424 -1.37 0 RAD=2
M  V30 13 H -0.681 1.9489 0.925 0
M  V30 14 H -1.8661 2.0145 -0.3622 0
M  V30 15 H 1.4736 0.5066 -2.1132 0
M  V30 16 H 2.2727 1.4834 -0.8392 0
M  V30 17 H -2.2703 -0.161 -1.8201 0
M  V30 18 H -2.7186 -1.4929 -0.6828 0
M  V30 19 H -3.3789 0.1613 -0.4481 0
M  V30 20 H -2.5914 0.2872 1.8522 0
M  V30 21 H -1.9485 -1.394 1.7317 0
M  V30 22 H -0.9003 -0.0657 2.32 0
M  V30 23 H 1.0894 0.9634 1.7 0
M  V30 24 H 1.4619 -0.7618 2.0482 0
M  V30 25 H 2.7235 0.355 1.4195 0
M  V30 26 H 3.3717 -0.9719 -0.4307 0
M  V30 27 H 2.2714 -2.288 0.1299 0
M  V30 28 H 2.2126 -1.7098 -1.5725 0
M  V30 END ATOM
M  V30 BEGIN BOND
M  V30 1 2 1 2
M  V30 2 1 2 3
M  V30 3 1 2 4
M  V30 4 1 3 5
M  V30 5 1 4 6
M  V30 6 1 5 7
M  V30 7 1 5 8
M  V30 8 1 5 9
M  V30 9 1 6 10
M  V30 10 1 6 11
M  V30 11 1 7 12
M  V30 12 1 6 7
M  V30 13 1 3 13
M  V30 14 1 3 14
M  V30 15 1 4 15
M  V30 16 1 4 16
M  V30 17 1 8 17
M  V30 18 1 8 18
M  V30 19 1 8 19
M  V30 20 1 9 20
M  V30 21 1 9 21
M  V30 22 1 9 22
M  V30 23 1 10 23
M  V30 24 1 10 24
M  V30 25 1 10 25
M  V30 26 1 11 26
M  V30 27 1 11 27
M  V30 28 1 11 28
M  V30 END BOND
M  V30 END CTAB
M  END
>  <Structure No>
1549

>  <LogS>
0.10341255

>  <MMFF94 Energy>
18.354

$$$$
Compound 1550
Actelion Java MolfileCreator 2.0

  0  0  0  0  0  0              0 V3000
M  V30 BEGIN CTAB
M  V30 COUNTS 82 87 0 0 0
M  V30 BEGIN ATOM
M  V30 1 S -10.4646 -1.2515 -2.17 0
M  V30 2 O -10.7749 -1.5462 -3.6144 0
M  V30 3 O -11.2997 -0.0843 -1.7301 0
M  V30 4 O -10.845 -2.5995 -1.2389 0 CHG=-1
M  V30 5 C -8.75 -0.8633 -1.9596 0
M  V30 6 C -8.2684 -0.3585 -0.6544 0
M  V30 7 C -7.8929 -1.043 -2.9729 0
M  V30 8 N -9.0726 -0.4127 0.371 0
M  V30 9 C -6.8909 0.1987 -0.5914 0
M  V30 10 C -6.4481 -0.7393 -2.8459 0
M  V30 11 N -8.7177 -0.1128 1.699 0
M  V30 12 O -6.5877 1.0519 0.285 0
M  V30 13 C -5.9299 -0.1574 -1.6697 0
M  V30 14 C -5.5979 -1.0315 -3.9139 0
M  V30 15 C -9.7245 0.0661 2.7034 0
M  V30 16 C -4.5394 0.1044 -1.5692 0
M  V30 17 C -4.2308 -0.759 -3.834 0
M  V30 18 C -11.0734 0.2644 2.3551 0
M  V30 19 C -9.3676 0.0489 4.0631 0
M  V30 20 N -3.999 0.6016 -0.3399 0
M  V30 21 C -3.685 -0.1893 -2.667 0
M  V30 22 S -3.1951 -1.1277 -5.218 0
M  V30 23 C -12.0431 0.4441 3.349 0
M  V30 24 C -10.3405 0.2236 5.053 0
M  V30 25 N -2.2608 0.0279 -2.6351 0
M  V30 26 O -2.5732 0.1389 -5.7326 0
M  V30 27 O -3.9936 -1.7598 -6.3251 0
M  V30 28 O -1.9853 -2.1918 -4.7428 0 CHG=-1
M  V30 29 C -11.6773 0.4178 4.698 0
M  V30 30 N -1.6626 0.7171 -1.7507 0
M  V30 31 C -0.2446 0.9182 -1.7665 0
M  V30 32 C 0.5888 0.2821 -2.7058 0
M  V30 33 C 0.3166 1.791 -0.8263 0
M  V30 34 C 1.9705 0.5249 -2.6963 0
M  V30 35 C 1.6917 2.0454 -0.8295 0
M  V30 36 C 2.5279 1.4071 -1.7566 0
M  V30 37 N 3.9226 1.731 -1.7861 0
M  V30 38 S 5.1583 0.5081 -1.7633 0
M  V30 39 O 4.5334 -0.8525 -1.9036 0
M  V30 40 O 6.1035 0.7397 -2.9056 0
M  V30 41 C 6.0407 0.5646 -0.2375 0
M  V30 42 C 6.2058 1.7804 0.438 0
M  V30 43 C 6.5895 -0.6081 0.3076 0
M  V30 44 C 6.8762 1.8208 1.6618 0
M  V30 45 C 7.274 -0.5645 1.5287 0
M  V30 46 C 7.4281 0.6525 2.2058 0
M  V30 47 N 8.0564 0.715 3.4938 0
M  V30 48 N 9.2124 0.2575 3.7915 0
M  V30 49 C 10.2021 -0.2667 2.8863 0
M  V30 50 C 11.1239 -1.2209 3.3632 0
M  V30 51 C 10.3946 0.2968 1.6046 0
M  V30 52 N 10.9987 -1.7683 4.684 0
M  V30 53 C 12.182 -1.6425 2.5436 0
M  V30 54 C 11.432 -0.1591 0.7866 0
M  V30 55 C 12.3293 -1.1245 1.2521 0
M  V30 56 N 13.4067 -1.5674 0.4211 0
M  V30 57 H -8.2549 -1.4405 -3.912 0
M  V30 58 H -7.7211 -0.1612 2.005 0
M  V30 59 H -6.0053 -1.4755 -4.8167 0
M  V30 60 H -11.3759 0.3008 1.3174 0
M  V30 61 H -8.3395 -0.1087 4.3577 0
M  V30 62 H -4.2817 0.1735 0.5694 0
M  V30 63 H -3.4864 1.5141 -0.3222 0
M  V30 64 H -13.0793 0.5949 3.0776 0
M  V30 65 H -10.057 0.1947 6.0973 0
M  V30 66 H -12.4303 0.5474 5.4645 0
M  V30 67 H 0.1752 -0.3914 -3.4454 0
M  V30 68 H -0.3186 2.2879 -0.1023 0
M  V30 69 H 2.5938 0.0593 -3.4461 0
M  V30 70 H 2.1094 2.7356 -0.1011 0
M  V30 71 H 4.2023 2.7102 -1.5531 0
M  V30 72 H 5.8186 2.7004 0.0246 0
M  V30 73 H 6.4857 -1.5563 -0.2073 0
M  V30 74 H 6.9695 2.7691 2.1839 0
M  V30 75 H 7.6626 -1.4764 1.9543 0
M  V30 76 H 9.7775 1.1113 1.2481 0
M  V30 77 H 11.7386 -2.4046 5.0685 0
M  V30 78 H 10.1671 -1.5632 5.284 0
M  V30 79 H 12.889 -2.3808 2.9098 0
M  V30 80 H 11.5631 0.2743 -0.1989 0
M  V30 81 H 14.1248 -2.2379 0.7899 0
M  V30 82 H 13.5145 -1.2045 -0.5527 0
M  V30 END ATOM
M  V30 BEGIN BOND
M  V30 1 2 1 2
M  V30 2 2 1 3
M  V30 3 1 1 4
M  V30 4 1 1 5
M  V30 5 1 5 6
M  V30 6 2 5 7
M  V30 7 2 6 8
M  V30 8 1 6 9
M  V30 9 1 7 10
M  V30 10 1 8 11
M  V30 11 2 9 12
M  V30 12 1 9 13
M  V30 13 1 10 14
M  V30 14 1 11 15
M  V30 15 1 13 16
M  V30 16 2 14 17
M  V30 17 2 15 18
M  V30 18 1 15 19
M  V30 19 1 16 20
M  V30 20 2 16 21
M  V30 21 1 17 22
M  V30 22 1 18 23
M  V30 23 2 19 24
M  V30 24 1 21 25
M  V30 25 2 22 26
M  V30 26 2 22 27
M  V30 27 1 22 28
M  V30 28 2 23 29
M  V30 29 2 25 30
M  V30 30 1 30 31
M  V30 31 2 31 32
M  V30 32 1 31 33
M  V30 33 1 32 34
M  V30 34 2 33 35
M  V30 35 2 34 36
M  V30 36 1 36 37
M  V30 37 1 37 38
M  V30 38 2 38 39
M  V30 39 2 38 40
M  V30 40 1 38 41
M  V30 41 2 41 42
M  V30 42 1 41 43
M  V30 43 1 42 44
M  V30 44 2 43 45
M  V30 45 2 44 46
M  V30 46 1 46 47
M  V30 47 2 47 48
M  V30 48 1 48 49
M  V30 49 2 49 50
M  V30 50 1 49 51
M  V30 51 1 50 52
M  V30 52 1 50 53
M  V30 53 2 51 54
M  V30 54 2 53 55
M  V30 55 1 55 56
M  V30 56 2 10 13
M  V30 57 1 17 21
M  V30 58 1 24 29
M  V30 59 1 35 36
M  V30 60 1 45 46
M  V30 61 1 54 55
M  V30 62 1 7 57
M  V30 63 1 11 58
M  V30 64 1 14 59
M  V30 65 1 18 60
M  V30 66 1 19 61
M  V30 67 1 20 62
M  V30 68 1 20 63
M  V30 69 1 23 64
M  V30 70 1 24 65
M  V30 71 1 29 66
M  V30 72 1 32 67
M  V30 73 1 33 68
M  V30 74 1 34 69
M  V30 75 1 35 70
M  V30 76 1 37 71
M  V30 77 1 42 72
M  V30 78 1 43 73
M  V30 79 1 44 74
M  V30 80 1 45 75
M  V30 81 1 51 76
M  V30 82 1 52 77
M  V30 83 1 52 78
M  V30 84 1 53 79
M  V30 85 1 54 80
M  V30 86 1 56 81
M  V30 87 1 56 82
M  V30 END BOND
M  V30 END CTAB
M  END
>  <Structure No>
1550

>  <LogS>
-0.602981194

>  <MMFF94 Energy>
186.18

$$$$
Compound 1551
Actelion Java MolfileCreator 2.0

  0  0  0  0  0  0              0 V3000
M  V30 BEGIN CTAB
M  V30 COUNTS 16 16 0 0 0
M  V30 BEGIN ATOM
M  V30 1 O 3.2031 0.3121 0.0 0
M  V30 2 C 1.8143 0.2023 -0.0029 0
M  V30 3 C 1.0305 1.3534 -0.1354 0
M  V30 4 C 1.1958 -1.0484 0.1286 0
M  V30 5 C -0.3647 1.258 -0.1404 0
M  V30 6 C -0.1992 -1.146 0.1239 0
M  V30 7 C -0.9883 0.0055 -0.026 0
M  V30 8 C -2.4845 -0.0936 0.0084 0
M  V30 9 H 3.7982 -0.5024 0.0951 0
M  V30 10 H 1.5029 2.3228 -0.2305 0
M  V30 11 H 1.7942 -1.9438 0.2384 0
M  V30 12 H -0.9578 2.1595 -0.2339 0
M  V30 13 H -0.6635 -2.118 0.2362 0
M  V30 14 H -2.8363 -0.0025 1.0574 0
M  V30 15 H -2.8223 -1.0682 -0.4037 0
M  V30 16 H -2.9449 0.7141 -0.5995 0
M  V30 END ATOM
M  V30 BEGIN BOND
M  V30 1 1 1 2
M  V30 2 2 2 3
M  V30 3 1 2 4
M  V30 4 1 3 5
M  V30 5 2 4 6
M  V30 6 2 5 7
M  V30 7 1 7 8
M  V30 8 1 6 7
M  V30 9 1 1 9
M  V30 10 1 3 10
M  V30 11 1 4 11
M  V30 12 1 5 12
M  V30 13 1 6 13
M  V30 14 1 8 14
M  V30 15 1 8 15
M  V30 16 1 8 16
M  V30 END BOND
M  V30 END CTAB
M  END
>  <Structure No>
1551

>  <LogS>
-0.701547905

>  <MMFF94 Energy>
7.7986

$$$$
Compound 1552
Actelion Java MolfileCreator 2.0

  0  0  0  0  0  0              0 V3000
M  V30 BEGIN CTAB
M  V30 COUNTS 47 50 0 0 0
M  V30 BEGIN ATOM
M  V30 1 S -0.3307 4.6372 -0.7442 0
M  V30 2 O -1.0246 5.2784 -1.9125 0
M  V30 3 O 1.1497 4.8651 -0.8714 0
M  V30 4 O -0.8547 5.3456 0.6866 0 CHG=-1
M  V30 5 C -0.692 2.9035 -0.718 0
M  V30 6 C -1.9836 2.4216 -0.4173 0
M  V30 7 C 0.3375 2.0018 -0.9865 0
M  V30 8 N -3.0234 3.3498 -0.0711 0
M  V30 9 C -2.2281 1.0202 -0.4029 0
M  V30 10 C 0.1352 0.6215 -0.9032 0
M  V30 11 C -3.6112 0.4694 -0.2832 0
M  V30 12 C -1.1461 0.1164 -0.5663 0
M  V30 13 N 1.2255 -0.2595 -1.224 0
M  V30 14 O -4.6141 1.2107 -0.4716 0
M  V30 15 C -3.8267 -0.971 -0.0314 0
M  V30 16 C -1.3733 -1.3412 -0.3228 0
M  V30 17 C 2.5523 -0.1349 -0.6064 0
M  V30 18 C -2.7343 -1.8565 -0.056 0
M  V30 19 C -5.1193 -1.4697 0.219 0
M  V30 20 O -0.4018 -2.1443 -0.2841 0
M  V30 21 C 2.4454 -0.3057 0.9218 0
M  V30 22 C 3.5135 -1.1864 -1.1943 0
M  V30 23 C -2.95 -3.2288 0.1752 0
M  V30 24 C -5.3194 -2.8325 0.4471 0
M  V30 25 C 3.8261 -0.2318 1.5856 0
M  V30 26 C 4.8934 -1.1085 -0.5296 0
M  V30 27 C -4.2366 -3.7107 0.4253 0
M  V30 28 C 4.7804 -1.2734 0.9903 0
M  V30 29 H 1.3114 2.3776 -1.2669 0
M  V30 30 H -3.0552 4.3128 -0.4702 0
M  V30 31 H -3.7145 3.1237 0.6776 0
M  V30 32 H 1.0501 -1.0219 -1.9178 0
M  V30 33 H 2.9678 0.8713 -0.8307 0
M  V30 34 H -5.9751 -0.8065 0.2428 0
M  V30 35 H 1.9708 -1.2833 1.1604 0
M  V30 36 H 1.8045 0.4977 1.3452 0
M  V30 37 H 3.0929 -2.2067 -1.0508 0
M  V30 38 H 3.6282 -1.0127 -2.2864 0
M  V30 39 H -2.1256 -3.9307 0.1616 0
M  V30 40 H -6.316 -3.2081 0.6409 0
M  V30 41 H 4.252 0.7867 1.4491 0
M  V30 42 H 3.7187 -0.4142 2.6765 0
M  V30 43 H 5.368 -0.1306 -0.7657 0
M  V30 44 H 5.5433 -1.912 -0.9382 0
M  V30 45 H -4.3938 -4.767 0.6019 0
M  V30 46 H 4.4138 -2.2959 1.2294 0
M  V30 47 H 5.7857 -1.1539 1.4482 0
M  V30 END ATOM
M  V30 BEGIN BOND
M  V30 1 2 1 2
M  V30 2 2 1 3
M  V30 3 1 1 4
M  V30 4 1 1 5
M  V30 5 2 5 6
M  V30 6 1 5 7
M  V30 7 1 6 8
M  V30 8 1 6 9
M  V30 9 2 7 10
M  V30 10 1 9 11
M  V30 11 2 9 12
M  V30 12 1 10 13
M  V30 13 2 11 14
M  V30 14 1 11 15
M  V30 15 1 12 16
M  V30 16 1 13 17
M  V30 17 2 15 18
M  V30 18 1 15 19
M  V30 19 2 16 20
M  V30 20 1 17 21
M  V30 21 1 17 22
M  V30 22 1 18 23
M  V30 23 2 19 24
M  V30 24 1 21 25
M  V30 25 1 22 26
M  V30 26 2 23 27
M  V30 27 1 25 28
M  V30 28 1 10 12
M  V30 29 1 16 18
M  V30 30 1 24 27
M  V30 31 1 26 28
M  V30 32 1 7 29
M  V30 33 1 8 30
M  V30 34 1 8 31
M  V30 35 1 13 32
M  V30 36 1 17 33
M  V30 37 1 19 34
M  V30 38 1 21 35
M  V30 39 1 21 36
M  V30 40 1 22 37
M  V30 41 1 22 38
M  V30 42 1 23 39
M  V30 43 1 24 40
M  V30 44 1 25 41
M  V30 45 1 25 42
M  V30 46 1 26 43
M  V30 47 1 26 44
M  V30 48 1 27 45
M  V30 49 1 28 46
M  V30 50 1 28 47
M  V30 END BOND
M  V30 END CTAB
M  END
>  <Structure No>
1552

>  <LogS>
-1.296365099

>  <MMFF94 Energy>
117.02

$$$$
Compound 1553
Actelion Java MolfileCreator 2.0

  0  0  0  0  0  0              0 V3000
M  V30 BEGIN CTAB
M  V30 COUNTS 43 45 0 0 0
M  V30 BEGIN ATOM
M  V30 1 S -2.4019 -1.3246 3.3141 0
M  V30 2 O -3.5566 -0.3637 3.2713 0
M  V30 3 O -1.6315 -1.0932 4.5838 0
M  V30 4 O -2.9781 -2.9022 3.3043 0 CHG=-1
M  V30 5 C -1.3616 -1.0681 1.9082 0
M  V30 6 C -1.9041 -0.9626 0.6091 0
M  V30 7 C 0.0248 -0.947 2.0915 0
M  V30 8 N -3.3151 -1.1286 0.3855 0
M  V30 9 C -1.0433 -0.7575 -0.481 0
M  V30 10 C 0.8766 -0.7097 1.0042 0
M  V30 11 C -4.0862 -0.3125 -0.5139 0
M  V30 12 C 0.3323 -0.6317 -0.287 0
M  V30 13 N 2.2945 -0.6052 1.2255 0
M  V30 14 C -5.2858 -0.8133 -1.044 0
M  V30 15 C -3.6913 1.0002 -0.8343 0
M  V30 16 C 3.1945 0.0894 0.3458 0
M  V30 17 C -6.0615 -0.0293 -1.9036 0
M  V30 18 C -4.47 1.7809 -1.6941 0
M  V30 19 C 4.4738 -0.4383 0.0569 0
M  V30 20 C 2.843 1.356 -0.1474 0
M  V30 21 C -5.6523 1.2656 -2.2311 0
M  V30 22 N 4.8615 -1.7475 0.5137 0 CHG=1
M  V30 23 C 5.3707 0.3198 -0.7186 0
M  V30 24 C 3.736 2.0906 -0.9269 0
M  V30 25 O 6.0684 -2.0303 0.6638 0
M  V30 26 O 3.9264 -2.7477 0.6495 0 CHG=-1
M  V30 27 C 5.0101 1.5832 -1.219 0
M  V30 28 N 5.9308 2.3476 -2.0194 0 CHG=1
M  V30 29 O 7.0687 1.9047 -2.2803 0
M  V30 30 O 5.572 3.5818 -2.5113 0 CHG=-1
M  V30 31 H 0.4483 -1.0268 3.0846 0
M  V30 32 H -3.8032 -1.9073 0.8827 0
M  V30 33 H -1.4386 -0.7141 -1.488 0
M  V30 34 H 0.9717 -0.4953 -1.1494 0
M  V30 35 H 2.6909 -1.0167 2.1008 0
M  V30 36 H -5.615 -1.8147 -0.7965 0
M  V30 37 H -2.7926 1.4276 -0.4093 0
M  V30 38 H -6.9811 -0.4255 -2.3145 0
M  V30 39 H -4.16 2.7887 -1.9388 0
M  V30 40 H 1.8794 1.7872 0.0932 0
M  V30 41 H -6.2545 1.8719 -2.8953 0
M  V30 42 H 6.3472 -0.0868 -0.9484 0
M  V30 43 H 3.4321 3.0635 -1.2907 0
M  V30 END ATOM
M  V30 BEGIN BOND
M  V30 1 2 1 2
M  V30 2 2 1 3
M  V30 3 1 1 4
M  V30 4 1 1 5
M  V30 5 2 5 6
M  V30 6 1 5 7
M  V30 7 1 6 8
M  V30 8 1 6 9
M  V30 9 2 7 10
M  V30 10 1 8 11
M  V30 11 2 9 12
M  V30 12 1 10 13
M  V30 13 2 11 14
M  V30 14 1 11 15
M  V30 15 1 13 16
M  V30 16 1 14 17
M  V30 17 2 15 18
M  V30 18 2 16 19
M  V30 19 1 16 20
M  V30 20 2 17 21
M  V30 21 1 19 22
M  V30 22 1 19 23
M  V30 23 2 20 24
M  V30 24 2 22 25
M  V30 25 1 22 26
M  V30 26 2 23 27
M  V30 27 1 27 28
M  V30 28 2 28 29
M  V30 29 1 28 30
M  V30 30 1 10 12
M  V30 31 1 18 21
M  V30 32 1 24 27
M  V30 33 1 7 31
M  V30 34 1 8 32
M  V30 35 1 9 33
M  V30 36 1 12 34
M  V30 37 1 13 35
M  V30 38 1 14 36
M  V30 39 1 15 37
M  V30 40 1 17 38
M  V30 41 1 18 39
M  V30 42 1 20 40
M  V30 43 1 21 41
M  V30 44 1 23 42
M  V30 45 1 24 43
M  V30 END BOND
M  V30 END CTAB
M  END
>  <Structure No>
1553

>  <LogS>
-2.199137363

>  <MMFF94 Energy>
125.38

$$$$
Compound 1554
Actelion Java MolfileCreator 2.0

  0  0  0  0  0  0              0 V3000
M  V30 BEGIN CTAB
M  V30 COUNTS 20 20 0 0 0
M  V30 BEGIN ATOM
M  V30 1 O 1.6524 -1.8098 -0.4718 0
M  V30 2 C 1.1787 -0.6509 -0.3115 0
M  V30 3 O 2.0268 0.4611 -0.3293 0
M  V30 4 C -0.2826 -0.4692 -0.1646 0
M  V30 5 C 3.4369 0.3492 -0.4796 0
M  V30 6 C -0.8439 0.5671 0.6258 0
M  V30 7 C -1.1424 -1.3311 -0.8712 0
M  V30 8 N -0.0344 1.4066 1.4603 0
M  V30 9 C -2.2371 0.7437 0.6439 0
M  V30 10 C -2.5261 -1.1503 -0.8281 0
M  V30 11 C -3.072 -0.1089 -0.0795 0
M  V30 12 H 3.887 1.3629 -0.4589 0
M  V30 13 H 3.6786 -0.1324 -1.4506 0
M  V30 14 H 3.8612 -0.2501 0.3535 0
M  V30 15 H -0.7409 -2.1315 -1.4809 0
M  V30 16 H 0.9392 1.1457 1.727 0
M  V30 17 H -0.4522 2.2359 1.9387 0
M  V30 18 H -2.679 1.5324 1.2402 0
M  V30 19 H -3.1757 -1.8135 -1.3847 0
M  V30 20 H -4.145 0.0319 -0.051 0
M  V30 END ATOM
M  V30 BEGIN BOND
M  V30 1 2 1 2
M  V30 2 1 2 3
M  V30 3 1 2 4
M  V30 4 1 3 5
M  V30 5 2 4 6
M  V30 6 1 4 7
M  V30 7 1 6 8
M  V30 8 1 6 9
M  V30 9 2 7 10
M  V30 10 2 9 11
M  V30 11 1 10 11
M  V30 12 1 5 12
M  V30 13 1 5 13
M  V30 14 1 5 14
M  V30 15 1 7 15
M  V30 16 1 8 16
M  V30 17 1 8 17
M  V30 18 1 9 18
M  V30 19 1 10 19
M  V30 20 1 11 20
M  V30 END BOND
M  V30 END CTAB
M  END
>  <Structure No>
1554

>  <LogS>
-1.733847045

>  <MMFF94 Energy>
43.764

$$$$
Compound 1555
Actelion Java MolfileCreator 2.0

  0  0  0  0  0  0              0 V3000
M  V30 BEGIN CTAB
M  V30 COUNTS 41 44 0 0 0
M  V30 BEGIN ATOM
M  V30 1 S 0.083 4.4088 -0.2491 0
M  V30 2 O 1.5555 4.6923 -0.1465 0
M  V30 3 O -0.6451 5.2394 0.7695 0
M  V30 4 O -0.4308 4.8248 -1.7938 0 CHG=-1
M  V30 5 C -0.2402 2.6926 0.0442 0
M  V30 6 C -1.5161 2.1311 -0.1751 0
M  V30 7 C 0.8058 1.8811 0.4822 0
M  V30 8 N -2.5708 2.9524 -0.6999 0
M  V30 9 C -1.7294 0.7456 0.0704 0
M  V30 10 C 0.6361 0.5047 0.6487 0
M  V30 11 C -3.0973 0.1473 0.0383 0
M  V30 12 C -0.6307 -0.0844 0.4145 0
M  V30 13 N 1.7447 -0.268 1.1373 0
M  V30 14 O -4.1199 0.8847 0.0734 0
M  V30 15 C -3.2753 -1.3197 0.0545 0
M  V30 16 C -0.8246 -1.5654 0.4722 0
M  V30 17 C 3.0533 -0.2505 0.539 0
M  V30 18 C -2.1659 -2.1567 0.2718 0
M  V30 19 C -4.5495 -1.8895 -0.129 0
M  V30 20 O 0.1597 -2.3347 0.6439 0
M  V30 21 C 4.1573 -0.7028 1.2794 0
M  V30 22 C 3.2478 0.1744 -0.7895 0
M  V30 23 C -2.3467 -3.553 0.2977 0
M  V30 24 C -4.7149 -3.2756 -0.1019 0
M  V30 25 C 5.4356 -0.708 0.7129 0
M  V30 26 C 4.5279 0.1675 -1.3519 0
M  V30 27 C -3.6151 -4.1059 0.1111 0
M  V30 28 C 5.6212 -0.2705 -0.6008 0
M  V30 29 H 1.7753 2.3163 0.688 0
M  V30 30 H -2.6288 3.9722 -0.49 0
M  V30 31 H -3.2457 2.5733 -1.4 0
M  V30 32 H 1.6038 -0.8136 2.0179 0
M  V30 33 H -5.4177 -1.2645 -0.2976 0
M  V30 34 H 4.0273 -1.0454 2.2984 0
M  V30 35 H 2.4126 0.4991 -1.3962 0
M  V30 36 H -1.5087 -4.2184 0.4631 0
M  V30 37 H -5.6974 -3.7061 -0.246 0
M  V30 38 H 6.2822 -1.0523 1.2925 0
M  V30 39 H 4.6713 0.4974 -2.3728 0
M  V30 40 H -3.7455 -5.1803 0.1323 0
M  V30 41 H 6.611 -0.2761 -1.0382 0
M  V30 END ATOM
M  V30 BEGIN BOND
M  V30 1 2 1 2
M  V30 2 2 1 3
M  V30 3 1 1 4
M  V30 4 1 1 5
M  V30 5 2 5 6
M  V30 6 1 5 7
M  V30 7 1 6 8
M  V30 8 1 6 9
M  V30 9 2 7 10
M  V30 10 1 9 11
M  V30 11 2 9 12
M  V30 12 1 10 13
M  V30 13 2 11 14
M  V30 14 1 11 15
M  V30 15 1 12 16
M  V30 16 1 13 17
M  V30 17 2 15 18
M  V30 18 1 15 19
M  V30 19 2 16 20
M  V30 20 2 17 21
M  V30 21 1 17 22
M  V30 22 1 18 23
M  V30 23 2 19 24
M  V30 24 1 21 25
M  V30 25 2 22 26
M  V30 26 2 23 27
M  V30 27 2 25 28
M  V30 28 1 10 12
M  V30 29 1 16 18
M  V30 30 1 24 27
M  V30 31 1 26 28
M  V30 32 1 7 29
M  V30 33 1 8 30
M  V30 34 1 8 31
M  V30 35 1 13 32
M  V30 36 1 19 33
M  V30 37 1 21 34
M  V30 38 1 22 35
M  V30 39 1 23 36
M  V30 40 1 24 37
M  V30 41 1 25 38
M  V30 42 1 26 39
M  V30 43 1 27 40
M  V30 44 1 28 41
M  V30 END BOND
M  V30 END CTAB
M  END
>  <Structure No>
1555

>  <LogS>
-2.173896088

>  <MMFF94 Energy>
121.9

$$$$
Compound 1556
Actelion Java MolfileCreator 2.0

  0  0  0  0  0  0              0 V3000
M  V30 BEGIN CTAB
M  V30 COUNTS 49 52 0 0 0
M  V30 BEGIN ATOM
M  V30 1 Cl 4.9215 1.5255 -1.1015 0
M  V30 2 C 4.819 -0.1666 -0.634 0
M  V30 3 C 3.7136 -0.6672 0.0858 0
M  V30 4 C 5.8323 -1.0405 -1.0467 0
M  V30 5 O 2.6763 0.1664 0.5212 0
M  V30 6 C 3.6228 -2.0404 0.3438 0
M  V30 7 C 5.7451 -2.4054 -0.7606 0
M  V30 8 C 2.842 1.3042 1.3276 0
M  V30 9 C 4.6382 -2.9059 -0.0711 0
M  V30 10 C 1.8397 2.3045 1.3527 0
M  V30 11 C 3.9811 1.4517 2.143 0
M  V30 12 N 0.6515 2.2298 0.55 0
M  V30 13 C 2.0043 3.4256 2.1772 0
M  V30 14 C 4.1307 2.5765 2.9559 0
M  V30 15 N 0.429 1.2777 -0.2625 0
M  V30 16 C 3.1442 3.5637 2.9734 0
M  V30 17 C -0.7859 1.2366 -1.0604 0 CFG=2
M  V30 18 Cl 3.334 4.9752 3.9975 0
M  V30 19 C -1.9605 0.8651 -0.228 0
M  V30 20 C -0.7613 0.0409 -1.9755 0
M  V30 21 O -2.4218 1.5385 0.7317 0
M  V30 22 N -2.4718 -0.3887 -0.6477 0
M  V30 23 N -1.6949 -0.8234 -1.723 0
M  V30 24 C 0.2311 -0.1601 -3.0725 0
M  V30 25 C -3.664 -1.0489 -0.1913 0
M  V30 26 C -3.7076 -2.4519 -0.0509 0
M  V30 27 C -4.8133 -0.2949 0.1032 0
M  V30 28 Cl -2.2921 -3.456 -0.3404 0
M  V30 29 C -4.8865 -3.0743 0.3746 0
M  V30 30 C -5.9883 -0.9227 0.5361 0
M  V30 31 C -6.0222 -2.3157 0.6635 0
M  V30 32 S -7.4249 0.0337 0.8834 0
M  V30 33 O -7.0236 1.3805 1.4163 0
M  V30 34 O -8.2662 -0.6625 1.9159 0
M  V30 35 O -8.318 0.2319 -0.5248 0 CHG=-1
M  V30 36 H 6.6823 -0.6644 -1.6018 0
M  V30 37 H 2.7682 -2.4347 0.879 0
M  V30 38 H 6.5298 -3.0771 -1.0838 0
M  V30 39 H 4.5667 -3.9648 0.141 0
M  V30 40 H 4.7501 0.6906 2.1596 0
M  V30 41 H 1.2422 4.1951 2.1963 0
M  V30 42 H 5.0123 2.6768 3.5762 0
M  V30 43 H -0.9473 2.1823 -1.6212 0
M  V30 44 H 0.8096 -1.0887 -2.885 0
M  V30 45 H 0.9337 0.6983 -3.1191 0
M  V30 46 H -0.2986 -0.2461 -4.0439 0
M  V30 47 H -4.8019 0.7793 -0.0275 0
M  V30 48 H -4.9223 -4.1505 0.488 0
M  V30 49 H -6.9265 -2.8157 0.9864 0
M  V30 END ATOM
M  V30 BEGIN BOND
M  V30 1 1 1 2
M  V30 2 2 2 3
M  V30 3 1 2 4
M  V30 4 1 3 5
M  V30 5 1 3 6
M  V30 6 2 4 7
M  V30 7 1 5 8
M  V30 8 2 6 9
M  V30 9 2 8 10
M  V30 10 1 8 11
M  V30 11 1 10 12
M  V30 12 1 10 13
M  V30 13 2 11 14
M  V30 14 2 12 15
M  V30 15 2 13 16
M  V30 16 1 15 17
M  V30 17 1 16 18
M  V30 18 1 17 19
M  V30 19 1 17 20
M  V30 20 2 19 21
M  V30 21 1 19 22
M  V30 22 2 20 23
M  V30 23 1 20 24
M  V30 24 1 22 25
M  V30 25 2 25 26
M  V30 26 1 25 27
M  V30 27 1 26 28
M  V30 28 1 26 29
M  V30 29 2 27 30
M  V30 30 2 29 31
M  V30 31 1 30 32
M  V30 32 2 32 33
M  V30 33 2 32 34
M  V30 34 1 32 35
M  V30 35 1 7 9
M  V30 36 1 14 16
M  V30 37 1 22 23
M  V30 38 1 30 31
M  V30 39 1 4 36
M  V30 40 1 6 37
M  V30 41 1 7 38
M  V30 42 1 9 39
M  V30 43 1 11 40
M  V30 44 1 13 41
M  V30 45 1 14 42
M  V30 46 1 17 43
M  V30 47 1 24 44
M  V30 48 1 24 45
M  V30 49 1 24 46
M  V30 50 1 27 47
M  V30 51 1 29 48
M  V30 52 1 31 49
M  V30 END BOND
M  V30 BEGIN COLLECTION
M  V30 MDLV30/STEABS ATOMS=(1 17)
M  V30 END COLLECTION
M  V30 END CTAB
M  END
>  <Structure No>
1556

>  <LogS>
-2.316221585

>  <MMFF94 Energy>
153.06

$$$$
Compound 1557
Actelion Java MolfileCreator 2.0

  0  0  0  0  0  0              0 V3000
M  V30 BEGIN CTAB
M  V30 COUNTS 22 21 0 0 0
M  V30 BEGIN ATOM
M  V30 1 S 0.7055 -0.8623 2.7459 0
M  V30 2 C 0.2727 -0.7248 1.1708 0
M  V30 3 O -1.0946 -0.7884 0.8668 0
M  V30 4 N 1.2693 -0.5713 0.1402 0
M  V30 5 C -1.666 -0.5483 -0.4204 0
M  V30 6 C 2.6533 -0.1724 0.399 0
M  V30 7 C -3.1326 -0.9751 -0.3909 0
M  V30 8 C -1.5536 0.9357 -0.7871 0
M  V30 9 C 2.7264 1.308 0.7575 0
M  V30 10 H 1.0142 -0.7656 -0.8522 0
M  V30 11 H -1.1545 -1.167 -1.1884 0
M  V30 12 H 3.2605 -0.3434 -0.5163 0
M  V30 13 H 3.0907 -0.791 1.2113 0
M  V30 14 H -3.6937 -0.388 0.3676 0
M  V30 15 H -3.2041 -2.0524 -0.1305 0
M  V30 16 H -3.5997 -0.823 -1.3875 0
M  V30 17 H -0.4893 1.2423 -0.849 0
M  V30 18 H -2.0573 1.5622 -0.0201 0
M  V30 19 H -2.0244 1.1239 -1.7756 0
M  V30 20 H 3.7863 1.6033 0.9067 0
M  V30 21 H 2.2959 1.9194 -0.0639 0
M  V30 22 H 2.1661 1.5119 1.6936 0
M  V30 END ATOM
M  V30 BEGIN BOND
M  V30 1 2 1 2
M  V30 2 1 2 3
M  V30 3 1 2 4
M  V30 4 1 3 5
M  V30 5 1 4 6
M  V30 6 1 5 7
M  V30 7 1 5 8
M  V30 8 1 6 9
M  V30 9 1 4 10
M  V30 10 1 5 11
M  V30 11 1 6 12
M  V30 12 1 6 13
M  V30 13 1 7 14
M  V30 14 1 7 15
M  V30 15 1 7 16
M  V30 16 1 8 17
M  V30 17 1 8 18
M  V30 18 1 8 19
M  V30 19 1 9 20
M  V30 20 1 9 21
M  V30 21 1 9 22
M  V30 END BOND
M  V30 END CTAB
M  END
>  <Structure No>
1557

>  <LogS>
-1.744788784

>  <MMFF94 Energy>
-37.365

$$$$
Compound 1558
Actelion Java MolfileCreator 2.0

  0  0  0  0  0  0              0 V3000
M  V30 BEGIN CTAB
M  V30 COUNTS 23 23 0 0 0
M  V30 BEGIN ATOM
M  V30 1 O 1.6629 -1.5045 -0.7916 0
M  V30 2 C 1.0607 -0.4453 -0.4619 0
M  V30 3 O 1.7632 0.7635 -0.3729 0
M  V30 4 C -0.3906 -0.4756 -0.1757 0
M  V30 5 C 3.17 0.8736 -0.579 0
M  V30 6 C -1.0662 0.7009 0.1929 0
M  V30 7 C -1.1149 -1.6773 -0.2662 0
M  V30 8 C 3.9335 0.3485 0.6311 0
M  V30 9 C -2.442 0.6788 0.4664 0
M  V30 10 C -2.4851 -1.7002 0.0058 0
M  V30 11 O -3.1024 1.8511 0.8313 0
M  V30 12 C -3.1535 -0.5284 0.3719 0
M  V30 13 O -4.5214 -0.5828 0.6374 0
M  V30 14 H 3.4722 0.3226 -1.4959 0
M  V30 15 H 3.423 1.9452 -0.7222 0
M  V30 16 H -0.5299 1.6385 0.2702 0
M  V30 17 H -0.6236 -2.6004 -0.5473 0
M  V30 18 H 5.0233 0.4941 0.4767 0
M  V30 19 H 3.7355 -0.7339 0.7746 0
M  V30 20 H 3.6223 0.8998 1.5435 0
M  V30 21 H -3.0301 -2.6327 -0.0678 0
M  V30 22 H -2.613 2.7351 0.907 0
M  V30 23 H -5.0504 0.2381 0.9062 0
M  V30 END ATOM
M  V30 BEGIN BOND
M  V30 1 2 1 2
M  V30 2 1 2 3
M  V30 3 1 2 4
M  V30 4 1 3 5
M  V30 5 2 4 6
M  V30 6 1 4 7
M  V30 7 1 5 8
M  V30 8 1 6 9
M  V30 9 2 7 10
M  V30 10 1 9 11
M  V30 11 2 9 12
M  V30 12 1 12 13
M  V30 13 1 10 12
M  V30 14 1 5 14
M  V30 15 1 5 15
M  V30 16 1 6 16
M  V30 17 1 7 17
M  V30 18 1 8 18
M  V30 19 1 8 19
M  V30 20 1 8 20
M  V30 21 1 10 21
M  V30 22 1 11 22
M  V30 23 1 13 23
M  V30 END BOND
M  V30 END CTAB
M  END
>  <Structure No>
1558

>  <LogS>
-1.855655062

>  <MMFF94 Energy>
19.266

$$$$
Compound 1559
Actelion Java MolfileCreator 2.0

  0  0  0  0  0  0              0 V3000
M  V30 BEGIN CTAB
M  V30 COUNTS 18 18 0 0 0
M  V30 BEGIN ATOM
M  V30 1 O 2.7609 -2.3423 -0.7524 0
M  V30 2 C 2.6336 -1.1317 -0.4268 0
M  V30 3 O 3.7739 -0.3481 -0.2919 0 CHG=-1
M  V30 4 C 1.2916 -0.5518 -0.1911 0
M  V30 5 C 1.1585 0.7986 0.1714 0
M  V30 6 C 0.1374 -1.342 -0.3268 0
M  V30 7 C -0.1082 1.3612 0.3978 0
M  V30 8 C -1.1383 -0.7964 -0.1044 0
M  V30 9 C -0.2334 2.7865 0.7796 0
M  V30 10 C -1.2513 0.5558 0.2575 0
M  V30 11 C -2.3512 -1.6333 -0.2486 0
M  V30 12 O -1.3663 3.2985 0.9843 0
M  V30 13 O 0.8986 3.5816 0.9179 0 CHG=-1
M  V30 14 O -2.2578 -2.8472 -0.5729 0
M  V30 15 O -3.6124 -1.0914 -0.028 0 CHG=-1
M  V30 16 H 2.0435 1.4134 0.2777 0
M  V30 17 H 0.2323 -2.3842 -0.6062 0
M  V30 18 H -2.2313 0.9835 0.4306 0
M  V30 END ATOM
M  V30 BEGIN BOND
M  V30 1 2 1 2
M  V30 2 1 2 3
M  V30 3 1 2 4
M  V30 4 2 4 5
M  V30 5 1 4 6
M  V30 6 1 5 7
M  V30 7 2 6 8
M  V30 8 1 7 9
M  V30 9 2 7 10
M  V30 10 1 8 11
M  V30 11 2 9 12
M  V30 12 1 9 13
M  V30 13 2 11 14
M  V30 14 1 11 15
M  V30 15 1 8 10
M  V30 16 1 5 16
M  V30 17 1 6 17
M  V30 18 1 10 18
M  V30 END BOND
M  V30 END CTAB
M  END
>  <Structure No>
1559

>  <LogS>
-1.942299553

>  <MMFF94 Energy>
226.65

$$$$
Compound 1560
Actelion Java MolfileCreator 2.0

  0  0  0  0  0  0              0 V3000
M  V30 BEGIN CTAB
M  V30 COUNTS 27 27 0 0 0
M  V30 BEGIN ATOM
M  V30 1 O -2.449 -0.8684 0.6315 0
M  V30 2 C -1.2831 -0.2802 0.1162 0
M  V30 3 C -2.5846 -2.2505 0.9465 0
M  V30 4 C -1.2926 1.0991 -0.1451 0
M  V30 5 C -0.1181 -1.0297 -0.1401 0
M  V30 6 O -2.4678 1.8202 0.1192 0
M  V30 7 C -0.1362 1.7173 -0.6575 0
M  V30 8 C 1.0287 -0.4112 -0.6593 0
M  V30 9 C -2.621 3.2196 -0.0955 0
M  V30 10 C 1.0138 0.9675 -0.9082 0
M  V30 11 C 2.2812 -1.2165 -0.9023 0
M  V30 12 C 3.0842 -1.423 0.3869 0
M  V30 13 C 3.651 -0.1588 0.8752 0
M  V30 14 N 4.0968 0.8375 1.2598 0
M  V30 15 H -1.8509 -2.5376 1.7291 0
M  V30 16 H -3.6074 -2.4352 1.334 0
M  V30 17 H -2.4334 -2.8665 0.0349 0
M  V30 18 H -0.0933 -2.0922 0.0624 0
M  V30 19 H -0.1151 2.7787 -0.8632 0
M  V30 20 H -1.8943 3.7833 0.5266 0
M  V30 21 H -3.6477 3.5209 0.1971 0
M  V30 22 H -2.4729 3.4596 -1.1696 0
M  V30 23 H 1.8953 1.464 -1.295 0
M  V30 24 H 2.0005 -2.2117 -1.311 0
M  V30 25 H 2.9192 -0.7261 -1.6708 0
M  V30 26 H 3.9189 -2.1271 0.1862 0
M  V30 27 H 2.4399 -1.8659 1.1764 0
M  V30 END ATOM
M  V30 BEGIN BOND
M  V30 1 1 1 2
M  V30 2 1 1 3
M  V30 3 2 2 4
M  V30 4 1 2 5
M  V30 5 1 4 6
M  V30 6 1 4 7
M  V30 7 2 5 8
M  V30 8 1 6 9
M  V30 9 2 7 10
M  V30 10 1 8 11
M  V30 11 1 11 12
M  V30 12 1 12 13
M  V30 13 3 13 14
M  V30 14 1 8 10
M  V30 15 1 3 15
M  V30 16 1 3 16
M  V30 17 1 3 17
M  V30 18 1 5 18
M  V30 19 1 7 19
M  V30 20 1 9 20
M  V30 21 1 9 21
M  V30 22 1 9 22
M  V30 23 1 10 23
M  V30 24 1 11 24
M  V30 25 1 11 25
M  V30 26 1 12 26
M  V30 27 1 12 27
M  V30 END BOND
M  V30 END CTAB
M  END
>  <Structure No>
1560

>  <LogS>
-1.901344783

>  <MMFF94 Energy>
42.496

$$$$
Compound 1561
Actelion Java MolfileCreator 2.0

  0  0  0  0  0  0              0 V3000
M  V30 BEGIN CTAB
M  V30 COUNTS 59 62 0 0 0
M  V30 BEGIN ATOM
M  V30 1 Cl 8.529 1.6004 0.1683 0
M  V30 2 C 7.6805 0.076 0.4061 0
M  V30 3 C 8.2535 -0.9894 1.1279 0
M  V30 4 C 6.4005 -0.0611 -0.1412 0
M  V30 5 S 9.8683 -0.85 1.8323 0
M  V30 6 C 7.5305 -2.182 1.2807 0
M  V30 7 C 5.6712 -1.2456 0.0294 0
M  V30 8 O 10.263 -2.137 2.5017 0
M  V30 9 O 9.8775 0.2524 2.8534 0
M  V30 10 O 10.9816 -0.5096 0.6209 0 CHG=-1
M  V30 11 C 6.25 -2.3172 0.7338 0
M  V30 12 N 4.3568 -1.3507 -0.5339 0
M  V30 13 Cl 5.4328 -3.8684 0.8811 0
M  V30 14 N 4.0199 -0.8775 -1.8032 0
M  V30 15 C 3.1491 -1.5647 0.1765 0
M  V30 16 C 2.7304 -0.8351 -1.9364 0
M  V30 17 O 3.0867 -1.8868 1.393 0
M  V30 18 C 1.9856 -1.2641 -0.6951 0 CFG=2
M  V30 19 C 2.0823 -0.4131 -3.2144 0
M  V30 20 N 1.2171 -0.1614 -0.1358 0
M  V30 21 N 0.1136 0.1971 -0.657 0
M  V30 22 C -0.6583 1.2838 -0.1329 0
M  V30 23 C -1.8675 1.618 -0.7556 0
M  V30 24 C -0.2309 2.0204 0.9869 0
M  V30 25 C -2.6467 2.6784 -0.2728 0
M  V30 26 C -1.0103 3.0736 1.473 0
M  V30 27 S -4.1823 3.0597 -1.049 0
M  V30 28 C -2.2161 3.4015 0.8481 0
M  V30 29 O -3.9895 3.0675 -2.5394 0
M  V30 30 O -4.6554 4.4222 -0.6234 0
M  V30 31 N -5.3774 1.8695 -0.6324 0
M  V30 32 C -5.5352 1.8167 0.8245 0
M  V30 33 C -6.6997 0.898 1.2114 0
M  V30 34 C -6.4045 -0.5444 0.8886 0
M  V30 35 C -6.9299 -1.1363 -0.2726 0
M  V30 36 C -5.5643 -1.2984 1.7256 0
M  V30 37 C -6.6293 -2.4663 -0.5826 0
M  V30 38 C -5.2661 -2.6279 1.4114 0
M  V30 39 C -5.7994 -3.2119 0.2591 0
M  V30 40 H 5.9628 0.7644 -0.6888 0
M  V30 41 H 7.9637 -3.0165 1.8166 0
M  V30 42 H 1.3577 -2.165 -0.866 0
M  V30 43 H 2.4568 -1.043 -4.0483 0
M  V30 44 H 0.9804 -0.5273 -3.1495 0
M  V30 45 H 2.3247 0.6505 -3.4204 0
M  V30 46 H -2.2029 1.0481 -1.6137 0
M  V30 47 H 0.6999 1.7821 1.4853 0
M  V30 48 H -0.6805 3.6349 2.338 0
M  V30 49 H -2.8136 4.213 1.243 0
M  V30 50 H -4.9989 0.9497 -0.9558 0
M  V30 51 H -4.5988 1.459 1.3088 0
M  V30 52 H -5.7622 2.8331 1.215 0
M  V30 53 H -7.6253 1.2349 0.6947 0
M  V30 54 H -6.8865 0.9945 2.3033 0
M  V30 55 H -7.5669 -0.5677 -0.9387 0
M  V30 56 H -5.1395 -0.8551 2.6179 0
M  V30 57 H -7.0378 -2.918 -1.4773 0
M  V30 58 H -4.6195 -3.2048 2.0601 0
M  V30 59 H -5.5669 -4.2408 0.017 0
M  V30 END ATOM
M  V30 BEGIN BOND
M  V30 1 1 1 2
M  V30 2 2 2 3
M  V30 3 1 2 4
M  V30 4 1 3 5
M  V30 5 1 3 6
M  V30 6 2 4 7
M  V30 7 2 5 8
M  V30 8 2 5 9
M  V30 9 1 5 10
M  V30 10 2 6 11
M  V30 11 1 7 12
M  V30 12 1 11 13
M  V30 13 1 12 14
M  V30 14 1 12 15
M  V30 15 2 14 16
M  V30 16 2 15 17
M  V30 17 1 15 18
M  V30 18 1 16 19
M  V30 19 1 18 20
M  V30 20 2 20 21
M  V30 21 1 21 22
M  V30 22 2 22 23
M  V30 23 1 22 24
M  V30 24 1 23 25
M  V30 25 2 24 26
M  V30 26 1 25 27
M  V30 27 2 25 28
M  V30 28 2 27 29
M  V30 29 2 27 30
M  V30 30 1 27 31
M  V30 31 1 31 32
M  V30 32 1 32 33
M  V30 33 1 33 34
M  V30 34 2 34 35
M  V30 35 1 34 36
M  V30 36 1 35 37
M  V30 37 2 36 38
M  V30 38 2 37 39
M  V30 39 1 7 11
M  V30 40 1 16 18
M  V30 41 1 26 28
M  V30 42 1 38 39
M  V30 43 1 4 40
M  V30 44 1 6 41
M  V30 45 1 18 42
M  V30 46 1 19 43
M  V30 47 1 19 44
M  V30 48 1 19 45
M  V30 49 1 23 46
M  V30 50 1 24 47
M  V30 51 1 26 48
M  V30 52 1 28 49
M  V30 53 1 31 50
M  V30 54 1 32 51
M  V30 55 1 32 52
M  V30 56 1 33 53
M  V30 57 1 33 54
M  V30 58 1 35 55
M  V30 59 1 36 56
M  V30 60 1 37 57
M  V30 61 1 38 58
M  V30 62 1 39 59
M  V30 END BOND
M  V30 BEGIN COLLECTION
M  V30 MDLV30/STEABS ATOMS=(1 18)
M  V30 END COLLECTION
M  V30 END CTAB
M  END
>  <Structure No>
1561

>  <LogS>
-2.429980995

>  <MMFF94 Energy>
58.543

$$$$
Compound 1562
Actelion Java MolfileCreator 2.0

  0  0  0  0  0  0              0 V3000
M  V30 BEGIN CTAB
M  V30 COUNTS 83 88 0 0 0
M  V30 BEGIN ATOM
M  V30 1 S 1.0833 -4.3385 3.4196 0
M  V30 2 O 0.9427 -3.5895 4.714 0
M  V30 3 O 1.9013 -5.5776 3.6541 0
M  V30 4 O -0.4342 -4.7967 2.8659 0 CHG=-1
M  V30 5 C 1.861 -3.2982 2.2187 0
M  V30 6 C 1.1194 -2.1475 1.6474 0
M  V30 7 C 3.1287 -3.5388 1.8555 0
M  V30 8 N -0.0661 -1.8752 2.1212 0
M  V30 9 C 1.7472 -1.3948 0.5254 0
M  V30 10 C 3.846 -2.6871 0.8821 0
M  V30 11 N -0.855 -0.7663 1.7659 0
M  V30 12 O 1.0566 -0.6255 -0.1985 0
M  V30 13 C 3.1833 -1.6296 0.2184 0
M  V30 14 C 5.2028 -2.9369 0.6307 0
M  V30 15 C -2.2876 -0.8213 1.8706 0
M  V30 16 C 3.9132 -0.8227 -0.6891 0
M  V30 17 C 5.9159 -2.1378 -0.2681 0
M  V30 18 C -3.0794 0.1621 1.2476 0
M  V30 19 C -2.9122 -1.8817 2.5507 0
M  V30 20 N 3.3119 0.2978 -1.3424 0
M  V30 21 C 5.2669 -1.0916 -0.9294 0
M  V30 22 S 7.6214 -2.4451 -0.5751 0
M  V30 23 O -2.4516 1.2278 0.5801 0
M  V30 24 C -4.4829 0.0642 1.3083 0
M  V30 25 C -4.3039 -1.9614 2.6155 0
M  V30 26 S 3.6541 1.9083 -0.8089 0
M  V30 27 O 8.2231 -3.205 0.5726 0
M  V30 28 O 8.348 -1.1389 -0.7259 0
M  V30 29 O 7.783 -3.3439 -1.9838 0 CHG=-1
M  V30 30 C -3.0858 2.0185 -0.3842 0
M  V30 31 C -5.0984 -1.0002 1.9894 0
M  V30 32 O 2.7865 2.8823 -1.5599 0
M  V30 33 O 3.347 2.0256 0.6591 0
M  V30 34 C 5.3474 2.2779 -1.1081 0
M  V30 35 C -3.3557 1.5124 -1.6726 0
M  V30 36 C -3.4402 3.3346 -0.0624 0
M  V30 37 O -6.4935 -1.119 2.0819 0
M  V30 38 C 5.7553 2.696 -2.3812 0
M  V30 39 C 6.304 2.0871 -0.1 0
M  V30 40 C -4.0194 2.3276 -2.6064 0
M  V30 41 C -2.9074 0.1303 -2.0586 0
M  V30 42 C -4.0899 4.1399 -1.0016 0
M  V30 43 C -7.3945 -0.4437 1.2497 0
M  V30 44 C 7.1084 2.924 -2.6465 0
M  V30 45 C 7.6581 2.311 -0.3659 0
M  V30 46 C -4.3841 3.6347 -2.2703 0
M  V30 47 C -7.4894 -0.7433 -0.1288 0
M  V30 48 C -8.2303 0.5298 1.81 0
M  V30 49 C 8.0699 2.7144 -1.646 0
M  V30 50 C -8.3826 -0.0141 -0.9315 0
M  V30 51 C -6.6362 -1.8123 -0.7541 0
M  V30 52 C -9.1279 1.2365 1.0051 0
M  V30 53 C 9.5196 2.9818 -1.9241 0
M  V30 54 C -9.2005 0.9672 -0.3644 0
M  V30 55 H 3.6619 -4.3701 2.3 0
M  V30 56 H -0.4001 0.1314 1.4862 0
M  V30 57 H 5.7023 -3.7531 1.139 0
M  V30 58 H -2.3239 -2.6477 3.0378 0
M  V30 59 H 2.5828 0.1442 -2.0747 0
M  V30 60 H 5.8157 -0.4804 -1.6352 0
M  V30 61 H -5.0949 0.8242 0.8418 0
M  V30 62 H -4.7694 -2.7821 3.1467 0
M  V30 63 H -3.2207 3.7266 0.9223 0
M  V30 64 H 5.0273 2.8323 -3.1709 0
M  V30 65 H 6.0059 1.7483 0.8845 0
M  V30 66 H -4.2444 1.956 -3.5975 0
M  V30 67 H -1.8162 0.0227 -1.8675 0
M  V30 68 H -3.0962 -0.0739 -3.1366 0
M  V30 69 H -3.4535 -0.6237 -1.4552 0
M  V30 70 H -4.3687 5.1543 -0.746 0
M  V30 71 H 7.406 3.2557 -3.6337 0
M  V30 72 H 8.3857 2.1575 0.4214 0
M  V30 73 H -4.8876 4.2588 -2.9969 0
M  V30 74 H -8.1702 0.749 2.8688 0
M  V30 75 H -8.4537 -0.2141 -1.995 0
M  V30 76 H -7.1036 -2.2003 -1.6855 0
M  V30 77 H -6.507 -2.6705 -0.0583 0
M  V30 78 H -5.6414 -1.3918 -1.0043 0
M  V30 79 H -9.7648 1.9947 1.4419 0
M  V30 80 H 9.7542 4.0355 -1.6619 0
M  V30 81 H 10.1636 2.3051 -1.3225 0
M  V30 82 H 9.7535 2.8123 -2.9971 0
M  V30 83 H -9.8928 1.5175 -0.9883 0
M  V30 END ATOM
M  V30 BEGIN BOND
M  V30 1 2 1 2
M  V30 2 2 1 3
M  V30 3 1 1 4
M  V30 4 1 1 5
M  V30 5 1 5 6
M  V30 6 2 5 7
M  V30 7 2 6 8
M  V30 8 1 6 9
M  V30 9 1 7 10
M  V30 10 1 8 11
M  V30 11 2 9 12
M  V30 12 1 9 13
M  V30 13 1 10 14
M  V30 14 1 11 15
M  V30 15 1 13 16
M  V30 16 2 14 17
M  V30 17 2 15 18
M  V30 18 1 15 19
M  V30 19 1 16 20
M  V30 20 2 16 21
M  V30 21 1 17 22
M  V30 22 1 18 23
M  V30 23 1 18 24
M  V30 24 2 19 25
M  V30 25 1 20 26
M  V30 26 2 22 27
M  V30 27 2 22 28
M  V30 28 1 22 29
M  V30 29 1 23 30
M  V30 30 2 24 31
M  V30 31 2 26 32
M  V30 32 2 26 33
M  V30 33 1 26 34
M  V30 34 2 30 35
M  V30 35 1 30 36
M  V30 36 1 31 37
M  V30 37 2 34 38
M  V30 38 1 34 39
M  V30 39 1 35 40
M  V30 40 1 35 41
M  V30 41 2 36 42
M  V30 42 1 37 43
M  V30 43 1 38 44
M  V30 44 2 39 45
M  V30 45 2 40 46
M  V30 46 2 43 47
M  V30 47 1 43 48
M  V30 48 2 44 49
M  V30 49 1 47 50
M  V30 50 1 47 51
M  V30 51 2 48 52
M  V30 52 1 49 53
M  V30 53 2 50 54
M  V30 54 2 10 13
M  V30 55 1 17 21
M  V30 56 1 25 31
M  V30 57 1 42 46
M  V30 58 1 45 49
M  V30 59 1 52 54
M  V30 60 1 7 55
M  V30 61 1 11 56
M  V30 62 1 14 57
M  V30 63 1 19 58
M  V30 64 1 20 59
M  V30 65 1 21 60
M  V30 66 1 24 61
M  V30 67 1 25 62
M  V30 68 1 36 63
M  V30 69 1 38 64
M  V30 70 1 39 65
M  V30 71 1 40 66
M  V30 72 1 41 67
M  V30 73 1 41 68
M  V30 74 1 41 69
M  V30 75 1 42 70
M  V30 76 1 44 71
M  V30 77 1 45 72
M  V30 78 1 46 73
M  V30 79 1 48 74
M  V30 80 1 50 75
M  V30 81 1 51 76
M  V30 82 1 51 77
M  V30 83 1 51 78
M  V30 84 1 52 79
M  V30 85 1 53 80
M  V30 86 1 53 81
M  V30 87 1 53 82
M  V30 88 1 54 83
M  V30 END BOND
M  V30 END CTAB
M  END
>  <Structure No>
1562

>  <LogS>
-2.566969077

>  <MMFF94 Energy>
176.92

$$$$
Compound 1563
Actelion Java MolfileCreator 2.0

  0  0  0  0  0  0              0 V3000
M  V30 BEGIN CTAB
M  V30 COUNTS 90 95 0 0 0
M  V30 BEGIN ATOM
M  V30 1 S -13.1885 -1.5251 -1.4403 0
M  V30 2 O -14.3985 -1.2129 -0.6064 0
M  V30 3 O -13.0777 -3.0159 -1.5909 0
M  V30 4 O -13.3558 -0.8255 -2.9553 0 CHG=-1
M  V30 5 C -11.7467 -0.8898 -0.6569 0
M  V30 6 C -10.5619 -1.6328 -0.6423 0
M  V30 7 C -11.7913 0.3462 -0.0131 0
M  V30 8 C -9.4136 -1.1331 -0.0183 0
M  V30 9 C -10.6531 0.8644 0.6218 0
M  V30 10 O -8.297 -1.9591 0.0491 0 CHG=-1
M  V30 11 C -9.4224 0.1565 0.571 0
M  V30 12 C -10.7382 2.0838 1.3081 0
M  V30 13 C -8.2684 0.7593 1.1453 0
M  V30 14 C -9.6158 2.6258 1.9368 0
M  V30 15 N -6.9453 0.2443 0.959 0
M  V30 16 C -8.3901 1.9674 1.8455 0
M  V30 17 S -9.7333 4.166 2.7836 0
M  V30 18 N -6.4875 0.0028 -0.2006 0
M  V30 19 O -8.6326 4.2818 3.7996 0
M  V30 20 O -11.056 4.2583 3.493 0
M  V30 21 O -9.6054 5.4214 1.6751 0 CHG=-1
M  V30 22 C -5.154 -0.4696 -0.4527 0
M  V30 23 C -4.0891 -0.362 0.481 0
M  V30 24 C -4.9062 -1.0211 -1.7149 0
M  V30 25 C -2.8119 -0.8222 0.1162 0
M  V30 26 C -4.27 0.2436 1.8474 0
M  V30 27 C -3.6245 -1.4736 -2.0781 0
M  V30 28 C -2.5645 -1.3487 -1.1632 0
M  V30 29 O -3.3705 -2.0445 -3.3355 0
M  V30 30 N -1.2478 -1.8068 -1.5232 0
M  V30 31 C -4.3717 -2.3127 -4.3178 0
M  V30 32 C -0.0382 -1.1815 -1.0711 0
M  V30 33 O -0.0637 0.0046 -0.643 0
M  V30 34 N 1.2066 -1.895 -1.1602 0
M  V30 35 C 2.4565 -1.435 -0.6171 0
M  V30 36 C 3.6609 -1.7576 -1.266 0
M  V30 37 C 2.4915 -0.7277 0.5949 0
M  V30 38 O 3.6082 -2.5332 -2.4339 0
M  V30 39 C 4.8805 -1.3001 -0.7364 0
M  V30 40 C 3.705 -0.2772 1.1281 0
M  V30 41 C 4.7427 -3.062 -3.1016 0
M  V30 42 C 4.9071 -0.5505 0.452 0
M  V30 43 C 3.718 0.5093 2.4098 0
M  V30 44 N 6.1481 -0.1016 1.0151 0
M  V30 45 N 7.2326 -0.0647 0.3446 0
M  V30 46 C 8.4688 0.3162 0.9565 0
M  V30 47 C 9.4232 1.0946 0.2577 0
M  V30 48 C 8.7449 -0.1327 2.2585 0
M  V30 49 C 9.1837 1.6222 -1.0383 0
M  V30 50 C 10.6543 1.3978 0.899 0
M  V30 51 C 9.9675 0.1501 2.869 0
M  V30 52 O 7.9876 1.392 -1.7085 0 CHG=-1
M  V30 53 C 10.1436 2.4189 -1.6669 0
M  V30 54 C 11.6117 2.1923 0.2428 0
M  V30 55 C 10.9147 0.9215 2.194 0
M  V30 56 S 10.3003 -0.4606 4.4903 0
M  V30 57 C 11.3536 2.7146 -1.0289 0
M  V30 58 O 11.7706 -0.378 4.7898 0
M  V30 59 O 9.8713 -1.8952 4.5713 0
M  V30 60 O 9.4556 0.4469 5.6227 0 CHG=-1
M  V30 61 S 12.5306 3.7692 -1.801 0
M  V30 62 O 13.2458 4.5731 -0.7496 0
M  V30 63 O 11.8349 4.7114 -2.7437 0
M  V30 64 O 13.645 2.8392 -2.6528 0 CHG=-1
M  V30 65 H -10.5334 -2.6148 -1.1005 0
M  V30 66 H -12.7174 0.9018 8.0E-4 0
M  V30 67 H -11.6788 2.6227 1.3498 0
M  V30 68 H -7.508 2.4124 2.2911 0
M  V30 69 H -5.73 -1.0816 -2.4159 0
M  V30 70 H -2.0059 -0.7861 0.8379 0
M  V30 71 H -3.2992 0.3537 2.3789 0
M  V30 72 H -4.7128 1.2606 1.759 0
M  V30 73 H -4.9167 -0.4157 2.4665 0
M  V30 74 H -1.1585 -2.599 -2.1971 0
M  V30 75 H -3.8998 -2.8027 -5.1905 0
M  V30 76 H -4.842 -1.364 -4.6555 0
M  V30 77 H -5.1441 -2.995 -3.9009 0
M  V30 78 H 1.2167 -2.7647 -1.7389 0
M  V30 79 H 1.5761 -0.5495 1.1432 0
M  V30 80 H 5.8158 -1.5312 -1.2322 0
M  V30 81 H 4.4068 -3.705 -3.9409 0
M  V30 82 H 5.3422 -3.6756 -2.3952 0
M  V30 83 H 5.365 -2.2376 -3.5079 0
M  V30 84 H 2.6913 0.6952 2.7865 0
M  V30 85 H 4.2085 1.4925 2.2446 0
M  V30 86 H 4.2847 -0.0512 3.1865 0
M  V30 87 H 8.0108 -0.7248 2.7943 0
M  V30 88 H 9.9392 2.8262 -2.6524 0
M  V30 89 H 12.548 2.4279 0.7342 0
M  V30 90 H 11.8502 1.1659 2.684 0
M  V30 END ATOM
M  V30 BEGIN BOND
M  V30 1 2 1 2
M  V30 2 2 1 3
M  V30 3 1 1 4
M  V30 4 1 1 5
M  V30 5 1 5 6
M  V30 6 2 5 7
M  V30 7 2 6 8
M  V30 8 1 7 9
M  V30 9 1 8 10
M  V30 10 1 8 11
M  V30 11 2 9 12
M  V30 12 2 11 13
M  V30 13 1 12 14
M  V30 14 1 13 15
M  V30 15 1 13 16
M  V30 16 1 14 17
M  V30 17 2 15 18
M  V30 18 2 17 19
M  V30 19 2 17 20
M  V30 20 1 17 21
M  V30 21 1 18 22
M  V30 22 2 22 23
M  V30 23 1 22 24
M  V30 24 1 23 25
M  V30 25 1 23 26
M  V30 26 2 24 27
M  V30 27 2 25 28
M  V30 28 1 27 29
M  V30 29 1 28 30
M  V30 30 1 29 31
M  V30 31 1 30 32
M  V30 32 2 32 33
M  V30 33 1 32 34
M  V30 34 1 34 35
M  V30 35 2 35 36
M  V30 36 1 35 37
M  V30 37 1 36 38
M  V30 38 1 36 39
M  V30 39 2 37 40
M  V30 40 1 38 41
M  V30 41 2 39 42
M  V30 42 1 40 43
M  V30 43 1 42 44
M  V30 44 2 44 45
M  V30 45 1 45 46
M  V30 46 1 46 47
M  V30 47 2 46 48
M  V30 48 2 47 49
M  V30 49 1 47 50
M  V30 50 1 48 51
M  V30 51 1 49 52
M  V30 52 1 49 53
M  V30 53 2 50 54
M  V30 54 1 50 55
M  V30 55 1 51 56
M  V30 56 2 53 57
M  V30 57 2 56 58
M  V30 58 2 56 59
M  V30 59 1 56 60
M  V30 60 1 57 61
M  V30 61 2 61 62
M  V30 62 2 61 63
M  V30 63 1 61 64
M  V30 64 1 9 11
M  V30 65 2 14 16
M  V30 66 1 27 28
M  V30 67 1 40 42
M  V30 68 2 51 55
M  V30 69 1 54 57
M  V30 70 1 6 65
M  V30 71 1 7 66
M  V30 72 1 12 67
M  V30 73 1 16 68
M  V30 74 1 24 69
M  V30 75 1 25 70
M  V30 76 1 26 71
M  V30 77 1 26 72
M  V30 78 1 26 73
M  V30 79 1 30 74
M  V30 80 1 31 75
M  V30 81 1 31 76
M  V30 82 1 31 77
M  V30 83 1 34 78
M  V30 84 1 37 79
M  V30 85 1 39 80
M  V30 86 1 41 81
M  V30 87 1 41 82
M  V30 88 1 41 83
M  V30 89 1 43 84
M  V30 90 1 43 85
M  V30 91 1 43 86
M  V30 92 1 48 87
M  V30 93 1 53 88
M  V30 94 1 54 89
M  V30 95 1 55 90
M  V30 END BOND
M  V30 END CTAB
M  END
>  <Structure No>
1563

>  <LogS>
-2.690313687

>  <MMFF94 Energy>
556.79

$$$$
Compound 1564
Actelion Java MolfileCreator 2.0

  0  0  0  0  0  0              0 V3000
M  V30 BEGIN CTAB
M  V30 COUNTS 19 20 0 0 0
M  V30 BEGIN ATOM
M  V30 1 O 2.3515 -1.459 1.2968 0
M  V30 2 C 1.7504 -0.6658 0.5254 0
M  V30 3 N 2.2766 0.5958 0.1657 0
M  V30 4 C 0.4269 -0.9571 -0.1132 0 CFG=2
M  V30 5 C 1.3369 1.1703 -0.7201 0
M  V30 6 C 0.1445 0.2964 -0.9638 0 CFG=2
M  V30 7 C -0.7127 -1.0654 0.9012 0
M  V30 8 O 1.505 2.2989 -1.2527 0
M  V30 9 C -1.156 0.9028 -0.4341 0
M  V30 10 C -1.8383 -0.2109 0.3424 0
M  V30 11 H 3.1831 1.0106 0.476 0
M  V30 12 H 0.4883 -1.8655 -0.7523 0
M  V30 13 H 0.0602 0.0347 -2.0416 0
M  V30 14 H -0.4114 -0.662 1.8946 0
M  V30 15 H -1.0391 -2.1204 1.0258 0
M  V30 16 H -1.8003 1.2587 -1.267 0
M  V30 17 H -0.9557 1.7542 0.255 0
M  V30 18 H -2.4825 0.1939 1.1529 0
M  V30 19 H -2.4599 -0.8208 -0.35 0
M  V30 END ATOM
M  V30 BEGIN BOND
M  V30 1 2 1 2
M  V30 2 1 2 3
M  V30 3 1 2 4
M  V30 4 1 3 5
M  V30 5 1 4 6
M  V30 6 1 4 7
M  V30 7 2 5 8
M  V30 8 1 6 9
M  V30 9 1 7 10
M  V30 10 1 5 6
M  V30 11 1 9 10
M  V30 12 1 3 11
M  V30 13 1 4 12
M  V30 14 1 6 13
M  V30 15 1 7 14
M  V30 16 1 7 15
M  V30 17 1 9 16
M  V30 18 1 9 17
M  V30 19 1 10 18
M  V30 20 1 10 19
M  V30 END BOND
M  V30 BEGIN COLLECTION
M  V30 MDLV30/STEABS ATOMS=(2 4 6)
M  V30 END COLLECTION
M  V30 END CTAB
M  END
>  <Structure No>
1564

>  <LogS>
0.155357382

>  <MMFF94 Energy>
-47.622

$$$$
Compound 1565
Actelion Java MolfileCreator 2.0

  0  0  0  0  0  0              0 V3000
M  V30 BEGIN CTAB
M  V30 COUNTS 30 30 0 0 0
M  V30 BEGIN ATOM
M  V30 1 S 4.4752 0.3249 -0.9751 0
M  V30 2 O 5.8141 0.564 -0.3369 0
M  V30 3 O 4.269 1.3186 -2.0834 0
M  V30 4 O 4.4317 -1.2317 -1.6052 0 CHG=-1
M  V30 5 C 3.1941 0.5143 0.2532 0
M  V30 6 C 1.8119 0.2548 -0.3557 0
M  V30 7 N 0.7574 0.3955 0.6639 0 CHG=1
M  V30 8 C -0.5978 0.2469 0.0881 0
M  V30 9 C -0.852 -1.2016 -0.4241 0
M  V30 10 C -1.666 0.6463 1.1283 0
M  V30 11 C -2.3358 -1.6207 -0.3949 0
M  V30 12 C -3.0882 0.6211 0.5312 0
M  V30 13 C -3.265 -0.4204 -0.5903 0
M  V30 14 H 3.3828 -0.2047 1.0785 0
M  V30 15 H 3.2407 1.5466 0.6612 0
M  V30 16 H 1.6408 0.9803 -1.1827 0
M  V30 17 H 1.8019 -0.7735 -0.7778 0
M  V30 18 H 0.8404 1.3501 1.0876 0
M  V30 19 H 0.9024 -0.3132 1.4215 0
M  V30 20 H -0.7065 0.949 -0.7715 0
M  V30 21 H -0.4819 -1.2762 -1.47 0
M  V30 22 H -0.2768 -1.9351 0.182 0
M  V30 23 H -1.6152 -0.0564 1.9894 0
M  V30 24 H -1.4602 1.6672 1.5178 0
M  V30 25 H -2.5678 -2.1012 0.5813 0
M  V30 26 H -2.5254 -2.3722 -1.1916 0
M  V30 27 H -3.3351 1.6259 0.1239 0
M  V30 28 H -3.8121 0.4097 1.3483 0
M  V30 29 H -4.3211 -0.7663 -0.6128 0
M  V30 30 H -3.0447 0.0501 -1.574 0
M  V30 END ATOM
M  V30 BEGIN BOND
M  V30 1 2 1 2
M  V30 2 2 1 3
M  V30 3 1 1 4
M  V30 4 1 1 5
M  V30 5 1 5 6
M  V30 6 1 6 7
M  V30 7 1 7 8
M  V30 8 1 8 9
M  V30 9 1 8 10
M  V30 10 1 9 11
M  V30 11 1 10 12
M  V30 12 1 11 13
M  V30 13 1 12 13
M  V30 14 1 5 14
M  V30 15 1 5 15
M  V30 16 1 6 16
M  V30 17 1 6 17
M  V30 18 1 7 18
M  V30 19 1 7 19
M  V30 20 1 8 20
M  V30 21 1 9 21
M  V30 22 1 9 22
M  V30 23 1 10 23
M  V30 24 1 10 24
M  V30 25 1 11 25
M  V30 26 1 11 26
M  V30 27 1 12 27
M  V30 28 1 12 28
M  V30 29 1 13 29
M  V30 30 1 13 30
M  V30 END BOND
M  V30 END CTAB
M  END
>  <Structure No>
1565

>  <LogS>
-0.078418557

>  <MMFF94 Energy>
-70.024

$$$$
Compound 1566
Actelion Java MolfileCreator 2.0

  0  0  0  0  0  0              0 V3000
M  V30 BEGIN CTAB
M  V30 COUNTS 5 4 0 0 0
M  V30 BEGIN ATOM
M  V30 1 S 0.0 0.0 0.0 0
M  V30 2 O 0.0542 -0.9506 -1.1617 0
M  V30 3 O -0.3003 -0.7634 1.2583 0
M  V30 4 O -1.2054 1.1392 -0.2647 0 CHG=-1
M  V30 5 O 1.4803 0.7775 0.1568 0 CHG=-1
M  V30 END ATOM
M  V30 BEGIN BOND
M  V30 1 2 1 2
M  V30 2 2 1 3
M  V30 3 1 1 4
M  V30 4 1 1 5
M  V30 END BOND
M  V30 END CTAB
M  END
>  <Structure No>
1566

>  <LogS>
0.126333765

>  <MMFF94 Energy>
27.585

$$$$
Compound 1567
Actelion Java MolfileCreator 2.0

  0  0  0  0  0  0              0 V3000
M  V30 BEGIN CTAB
M  V30 COUNTS 46 49 0 0 0
M  V30 BEGIN ATOM
M  V30 1 O 5.8418 -0.2428 0.8098 0
M  V30 2 C 4.7823 -0.0891 0.2223 0
M  V30 3 C 4.0905 1.2509 0.2608 0
M  V30 4 C 4.1919 -1.2331 -0.5617 0
M  V30 5 C 2.585 1.0947 0.1568 0
M  V30 6 C 3.0073 -0.7606 -1.4124 0
M  V30 7 C 2.0541 0.0785 -0.5798 0
M  V30 8 C 1.722 2.0565 0.9447 0
M  V30 9 C 0.5428 -0.107 -0.7338 0 CFG=2
M  V30 10 C 0.2862 2.1167 0.4248 0
M  V30 11 C -0.272 0.6935 0.3084 0 CFG=1
M  V30 12 C 0.1238 -1.6027 -0.7113 0
M  V30 13 C -1.7699 0.6878 -0.1019 0 CFG=1
M  V30 14 C -1.2839 -1.8534 -0.1297 0
M  V30 15 C -2.3109 -0.7346 -0.474 0 CFG=1
M  V30 16 C -2.6861 1.2232 1.003 0
M  V30 17 C -3.5947 -0.9127 0.3911 0 CFG=1
M  V30 18 C -2.6455 -0.7914 -1.9877 0
M  V30 19 C -3.9974 0.488 0.8254 0
M  V30 20 O -4.639 -1.5428 -0.308 0
M  V30 21 H 4.3534 1.7785 1.2037 0
M  V30 22 H 4.4507 1.8632 -0.5924 0
M  V30 23 H 4.9677 -1.6665 -1.2289 0
M  V30 24 H 3.8535 -2.0205 0.1456 0
M  V30 25 H 2.5085 -1.6398 -1.8673 0
M  V30 26 H 3.3886 -0.1346 -2.2486 0
M  V30 27 H 2.1605 3.0766 0.8949 0
M  V30 28 H 1.718 1.7386 2.0098 0
M  V30 29 H 0.294 0.3 -1.7392 0
M  V30 30 H -0.3234 2.7161 1.1344 0
M  V30 31 H 0.2657 2.6226 -0.5659 0
M  V30 32 H -0.1627 0.202 1.303 0
M  V30 33 H 0.1568 -2.0034 -1.7478 0
M  V30 34 H 0.8465 -2.1944 -0.1067 0
M  V30 35 H -1.8857 1.3717 -0.9752 0
M  V30 36 H -1.1773 -1.9332 0.9749 0
M  V30 37 H -1.6579 -2.8403 -0.4802 0
M  V30 38 H -2.8326 2.3219 0.9163 0
M  V30 39 H -2.2758 0.9897 2.0107 0
M  V30 40 H -3.367 -1.4974 1.3141 0
M  V30 41 H -3.4412 -0.0574 -2.2395 0
M  V30 42 H -1.7547 -0.5533 -2.6044 0
M  V30 43 H -2.9982 -1.8044 -2.2773 0
M  V30 44 H -4.5961 0.9812 0.0272 0
M  V30 45 H -4.5832 0.4707 1.77 0
M  V30 46 H -5.3421 -1.7562 0.3598 0
M  V30 END ATOM
M  V30 BEGIN BOND
M  V30 1 2 1 2
M  V30 2 1 2 3
M  V30 3 1 2 4
M  V30 4 1 3 5
M  V30 5 1 4 6
M  V30 6 2 5 7
M  V30 7 1 5 8
M  V30 8 1 7 9
M  V30 9 1 8 10
M  V30 10 1 9 11
M  V30 11 1 9 12
M  V30 12 1 11 13
M  V30 13 1 12 14
M  V30 14 1 13 15
M  V30 15 1 13 16
M  V30 16 1 15 17
M  V30 17 1 15 18
M  V30 18 1 16 19
M  V30 19 1 17 20
M  V30 20 1 6 7
M  V30 21 1 10 11
M  V30 22 1 14 15
M  V30 23 1 17 19
M  V30 24 1 3 21
M  V30 25 1 3 22
M  V30 26 1 4 23
M  V30 27 1 4 24
M  V30 28 1 6 25
M  V30 29 1 6 26
M  V30 30 1 8 27
M  V30 31 1 8 28
M  V30 32 1 9 29
M  V30 33 1 10 30
M  V30 34 1 10 31
M  V30 35 1 11 32
M  V30 36 1 12 33
M  V30 37 1 12 34
M  V30 38 1 13 35
M  V30 39 1 14 36
M  V30 40 1 14 37
M  V30 41 1 16 38
M  V30 42 1 16 39
M  V30 43 1 17 40
M  V30 44 1 18 41
M  V30 45 1 18 42
M  V30 46 1 18 43
M  V30 47 1 19 44
M  V30 48 1 19 45
M  V30 49 1 20 46
M  V30 END BOND
M  V30 BEGIN COLLECTION
M  V30 MDLV30/STEABS ATOMS=(5 9 11 13 15 17)
M  V30 END COLLECTION
M  V30 END CTAB
M  END
>  <Structure No>
1567

>  <LogS>
-4.947028744

>  <MMFF94 Energy>
61.825

$$$$
Compound 1568
Actelion Java MolfileCreator 2.0

  0  0  0  0  0  0              0 V3000
M  V30 BEGIN CTAB
M  V30 COUNTS 132 142 0 0 0
M  V30 BEGIN ATOM
M  V30 1 Cl -1.7139 2.6574 -1.3709 0
M  V30 2 C -0.8566 1.8107 -0.085 0
M  V30 3 C -1.5807 1.0481 0.8424 0
M  V30 4 C 0.5417 1.8842 0.0116 0
M  V30 5 O -2.9788 0.984 0.7672 0
M  V30 6 C -0.9072 0.3337 1.8581 0
M  V30 7 N 1.2287 2.5613 -0.8666 0
M  V30 8 C 1.2062 1.2167 1.0639 0
M  V30 9 C -3.7158 0.1941 1.6573 0
M  V30 10 N -1.5807 -0.4145 2.6863 0
M  V30 11 C 0.4866 0.4323 1.9735 0
M  V30 12 C 2.6593 2.6634 -0.8097 0
M  V30 13 O 2.5952 1.34 1.1906 0
M  V30 14 C -5.1241 0.1305 1.6042 0
M  V30 15 C -3.0077 -0.5404 2.6174 0
M  V30 16 Cl 1.3456 -0.4222 3.2525 0
M  V30 17 C 3.3439 2.0604 0.2538 0
M  V30 18 C 3.3595 3.3537 -1.7957 0
M  V30 19 S -6.0168 1.0962 0.408 0
M  V30 20 C -5.8114 -0.703 2.5253 0
M  V30 21 C -3.683 -1.3645 3.5096 0
M  V30 22 C 4.7429 2.1786 0.3629 0
M  V30 23 C 4.7491 3.4478 -1.721 0
M  V30 24 O -7.0956 0.2641 -0.2209 0
M  V30 25 O -5.1092 1.5873 -0.6836 0
M  V30 26 O -6.7101 2.4192 1.1769 0 CHG=-1
M  V30 27 N -7.2517 -0.7468 2.55 0
M  V30 28 C -5.0722 -1.4504 3.4647 0
M  V30 29 S 5.5763 1.5009 1.7781 0
M  V30 30 C 5.4511 2.8759 -0.6461 0
M  V30 31 C -8.0207 -1.9572 2.848 0
M  V30 32 O 4.7968 0.3473 2.3445 0
M  V30 33 O 5.71 2.5675 2.8295 0
M  V30 34 O 7.104 0.9301 1.3715 0 CHG=-1
M  V30 35 N 6.8776 3.0182 -0.585 0
M  V30 36 C -7.8721 -2.995 1.7288 0
M  V30 37 C 7.7473 2.6429 -1.6986 0
M  V30 38 N -8.3916 -2.4793 0.4612 0
M  V30 39 C 7.6092 1.1436 -2.0007 0
M  V30 40 C -9.7772 -2.1614 0.2774 0
M  V30 41 N 8.6754 0.6834 -2.8879 0
M  V30 42 N -10.1615 -1.3633 -0.7524 0
M  V30 43 N -10.7058 -2.6203 1.1556 0
M  V30 44 C 10.0216 0.4961 -2.4324 0
M  V30 45 C -11.4658 -1.0103 -0.8869 0
M  V30 46 C -12.011 -2.2774 1.0208 0
M  V30 47 N 10.3736 0.8354 -1.1646 0
M  V30 48 N 10.954 -0.0199 -3.2734 0
M  V30 49 N -11.8705 -0.1358 -1.9417 0 CHG=1
M  V30 50 N -12.3856 -1.4589 0.004 0
M  V30 51 N -12.9634 -2.7347 1.9892 0
M  V30 52 C 11.6557 0.6966 -0.7445 0
M  V30 53 C 12.2342 -0.1893 -2.8538 0
M  V30 54 C -11.9352 1.2077 -1.7073 0
M  V30 55 C -12.2317 -0.6591 -3.1496 0
M  V30 56 C -14.3425 -2.3367 1.9825 0
M  V30 57 N 12.0296 1.0786 0.5928 0 CHG=1
M  V30 58 N 12.5834 0.1889 -1.5964 0
M  V30 59 N 13.2073 -0.7472 -3.7459 0
M  V30 60 C -12.3843 2.0875 -2.7074 0
M  V30 61 C -12.6776 0.1769 -4.1733 0
M  V30 62 C -14.9485 -1.8254 3.1525 0
M  V30 63 C -15.1097 -2.4824 0.8139 0
M  V30 64 C 13.2924 1.5513 0.8383 0
M  V30 65 C 11.123 0.9623 1.6129 0
M  V30 66 C 14.5178 -1.1555 -3.3191 0
M  V30 67 C -12.4693 3.5414 -2.4537 0
M  V30 68 C -12.7581 1.5511 -3.9495 0
M  V30 69 S -14.0184 -1.5835 4.6339 0
M  V30 70 C -16.3054 -1.4677 3.1262 0
M  V30 71 C -16.4612 -2.122 0.7965 0
M  V30 72 C 13.6815 1.9277 2.1358 0
M  V30 73 C 11.4738 1.3151 2.9185 0
M  V30 74 C 15.6572 -0.8632 -4.1017 0
M  V30 75 C 14.6727 -1.8775 -2.1224 0
M  V30 76 O -12.8844 4.3262 -3.348 0
M  V30 77 O -12.0931 4.0639 -1.2213 0 CHG=-1
M  V30 78 O -12.756 -0.8316 4.3188 0
M  V30 79 O -13.6745 -2.9163 5.2389 0
M  V30 80 O -14.9092 -0.6917 5.745 0 CHG=-1
M  V30 81 C -17.0558 -1.6116 1.9559 0
M  V30 82 S -17.3884 -2.3024 -0.6891 0
M  V30 83 C 15.0377 2.4574 2.4004 0
M  V30 84 C 12.7535 1.7977 3.1791 0
M  V30 85 S 15.5279 0.0621 -5.6027 0
M  V30 86 C 16.9226 -1.2834 -3.6657 0
M  V30 87 C 15.9392 -2.2779 -1.6842 0
M  V30 88 O -18.8456 -2.0374 -0.4337 0
M  V30 89 O -17.2326 -3.7035 -1.2117 0
M  V30 90 O -16.823 -1.2098 -1.8327 0 CHG=-1
M  V30 91 O 15.8308 2.6953 1.4478 0
M  V30 92 O 15.4496 2.7251 3.7011 0 CHG=-1
M  V30 93 O 14.6857 1.2882 -5.3702 0
M  V30 94 O 14.8947 -0.7914 -6.6644 0
M  V30 95 O 17.0478 0.55 -6.1215 0 CHG=-1
M  V30 96 C 17.0638 -1.9852 -2.4649 0
M  V30 97 S 16.0945 -3.1453 -0.1602 0
M  V30 98 O 15.3818 -2.3863 0.9224 0
M  V30 99 O 17.5415 -3.2871 0.2174 0
M  V30 100 O 15.4118 -4.6743 -0.3185 0 CHG=-1
M  V30 101 H 2.8299 3.8161 -2.6194 0
M  V30 102 H -3.1325 -1.929 4.2555 0
M  V30 103 H 5.2775 3.9962 -2.4903 0
M  V30 104 H -7.7939 0.1183 2.3274 0
M  V30 105 H -5.5638 -2.0759 4.1947 0
M  V30 106 H -9.0902 -1.6854 2.973 0
M  V30 107 H -7.7047 -2.3955 3.8157 0
M  V30 108 H 7.319 3.3183 0.3121 0
M  V30 109 H -8.4198 -3.9231 2.0028 0
M  V30 110 H -6.8009 -3.2618 1.6097 0
M  V30 111 H 7.4943 3.2355 -2.6031 0
M  V30 112 H 8.7967 2.888 -1.4269 0
M  V30 113 H -7.7248 -2.3156 -0.3272 0
M  V30 114 H 6.625 0.9564 -2.4831 0
M  V30 115 H 7.6421 0.5508 -1.0632 0
M  V30 116 H 8.4265 0.3866 -3.8569 0
M  V30 117 H -12.6015 -3.2747 2.8063 0
M  V30 118 H -11.6453 1.5987 -0.7377 0
M  V30 119 H -12.1826 -1.7296 -3.3221 0
M  V30 120 H 12.9516 -0.8388 -4.7532 0
M  V30 121 H -12.9645 -0.2394 -5.1304 0
M  V30 122 H -14.655 -2.8964 -0.0791 0
M  V30 123 H 14.0007 1.6548 0.0215 0
M  V30 124 H 10.1238 0.5888 1.427 0
M  V30 125 H -13.1157 2.1894 -4.7464 0
M  V30 126 H -16.7852 -1.0681 4.0082 0
M  V30 127 H 10.7512 1.2222 3.7201 0
M  V30 128 H 13.8011 -2.1457 -1.5354 0
M  V30 129 H -18.0981 -1.3201 1.9576 0
M  V30 130 H 13.0137 2.0773 4.1926 0
M  V30 131 H 17.808 -1.0697 -4.2513 0
M  V30 132 H 18.0519 -2.2927 -2.1435 0
M  V30 END ATOM
M  V30 BEGIN BOND
M  V30 1 1 1 2
M  V30 2 2 2 3
M  V30 3 1 2 4
M  V30 4 1 3 5
M  V30 5 1 3 6
M  V30 6 2 4 7
M  V30 7 1 4 8
M  V30 8 1 5 9
M  V30 9 2 6 10
M  V30 10 1 6 11
M  V30 11 1 7 12
M  V30 12 1 8 13
M  V30 13 2 9 14
M  V30 14 1 9 15
M  V30 15 1 11 16
M  V30 16 2 12 17
M  V30 17 1 12 18
M  V30 18 1 14 19
M  V30 19 1 14 20
M  V30 20 2 15 21
M  V30 21 1 17 22
M  V30 22 2 18 23
M  V30 23 2 19 24
M  V30 24 2 19 25
M  V30 25 1 19 26
M  V30 26 1 20 27
M  V30 27 2 20 28
M  V30 28 1 22 29
M  V30 29 2 22 30
M  V30 30 1 27 31
M  V30 31 2 29 32
M  V30 32 2 29 33
M  V30 33 1 29 34
M  V30 34 1 30 35
M  V30 35 1 31 36
M  V30 36 1 35 37
M  V30 37 1 36 38
M  V30 38 1 37 39
M  V30 39 1 38 40
M  V30 40 1 39 41
M  V30 41 2 40 42
M  V30 42 1 40 43
M  V30 43 1 41 44
M  V30 44 1 42 45
M  V30 45 2 43 46
M  V30 46 2 44 47
M  V30 47 1 44 48
M  V30 48 1 45 49
M  V30 49 2 45 50
M  V30 50 1 46 51
M  V30 51 1 47 52
M  V30 52 2 48 53
M  V30 53 2 49 54
M  V30 54 1 49 55
M  V30 55 1 51 56
M  V30 56 1 52 57
M  V30 57 2 52 58
M  V30 58 1 53 59
M  V30 59 1 54 60
M  V30 60 2 55 61
M  V30 61 2 56 62
M  V30 62 1 56 63
M  V30 63 2 57 64
M  V30 64 1 57 65
M  V30 65 1 59 66
M  V30 66 1 60 67
M  V30 67 2 60 68
M  V30 68 1 62 69
M  V30 69 1 62 70
M  V30 70 2 63 71
M  V30 71 1 64 72
M  V30 72 2 65 73
M  V30 73 2 66 74
M  V30 74 1 66 75
M  V30 75 2 67 76
M  V30 76 1 67 77
M  V30 77 2 69 78
M  V30 78 2 69 79
M  V30 79 1 69 80
M  V30 80 2 70 81
M  V30 81 1 71 82
M  V30 82 1 72 83
M  V30 83 2 72 84
M  V30 84 1 74 85
M  V30 85 1 74 86
M  V30 86 2 75 87
M  V30 87 2 82 88
M  V30 88 2 82 89
M  V30 89 1 82 90
M  V30 90 2 83 91
M  V30 91 1 83 92
M  V30 92 2 85 93
M  V30 93 2 85 94
M  V30 94 1 85 95
M  V30 95 2 86 96
M  V30 96 1 87 97
M  V30 97 2 97 98
M  V30 98 2 97 99
M  V30 99 1 97 100
M  V30 100 2 8 11
M  V30 101 1 10 15
M  V30 102 1 13 17
M  V30 103 1 21 28
M  V30 104 1 23 30
M  V30 105 1 46 50
M  V30 106 1 53 58
M  V30 107 1 61 68
M  V30 108 1 71 81
M  V30 109 1 73 84
M  V30 110 1 87 96
M  V30 111 1 18 101
M  V30 112 1 21 102
M  V30 113 1 23 103
M  V30 114 1 27 104
M  V30 115 1 28 105
M  V30 116 1 31 106
M  V30 117 1 31 107
M  V30 118 1 35 108
M  V30 119 1 36 109
M  V30 120 1 36 110
M  V30 121 1 37 111
M  V30 122 1 37 112
M  V30 123 1 38 113
M  V30 124 1 39 114
M  V30 125 1 39 115
M  V30 126 1 41 116
M  V30 127 1 51 117
M  V30 128 1 54 118
M  V30 129 1 55 119
M  V30 130 1 59 120
M  V30 131 1 61 121
M  V30 132 1 63 122
M  V30 133 1 64 123
M  V30 134 1 65 124
M  V30 135 1 68 125
M  V30 136 1 70 126
M  V30 137 1 73 127
M  V30 138 1 75 128
M  V30 139 1 81 129
M  V30 140 1 84 130
M  V30 141 1 86 131
M  V30 142 1 96 132
M  V30 END BOND
M  V30 END CTAB
M  END
>  <Structure No>
1568

>  <LogS>
-0.952204802

>  <MMFF94 Energy>
26.305

$$$$
Compound 1569
Actelion Java MolfileCreator 2.0

  0  0  0  0  0  0              0 V3000
M  V30 BEGIN CTAB
M  V30 COUNTS 36 38 0 0 0
M  V30 BEGIN ATOM
M  V30 1 S 5.7166 -1.0752 -0.5788 0
M  V30 2 O 5.5014 -2.0365 0.5559 0
M  V30 3 O 7.1762 -0.7215 -0.6411 0
M  V30 4 O 5.2803 -1.7999 -2.0303 0 CHG=-1
M  V30 5 C 4.7358 0.3778 -0.322 0
M  V30 6 C 3.3186 0.3281 -0.2391 0
M  V30 7 C 5.3909 1.6129 -0.1976 0
M  V30 8 C 2.5943 1.5274 -0.0335 0
M  V30 9 C 2.5725 -0.9554 -0.3676 0
M  V30 10 C 4.6674 2.786 0.0038 0
M  V30 11 C 1.118 1.4863 0.0567 0
M  V30 12 C 3.2784 2.7473 0.0857 0
M  V30 13 C 1.2388 -1.0214 -0.2838 0
M  V30 14 O 0.4554 2.5462 0.2296 0
M  V30 15 C 0.4208 0.1937 -0.0518 0
M  V30 16 N -0.8796 0.1766 0.0467 0
M  V30 17 N -1.697 -0.9683 -0.0022 0
M  V30 18 C -3.1279 -0.847 0.005 0
M  V30 19 C -3.7518 0.4137 0.0077 0
M  V30 20 C -3.9241 -2.0031 0.0061 0
M  V30 21 C -5.1467 0.5115 0.0131 0
M  V30 22 C -5.3186 -1.9035 0.0116 0
M  V30 23 C -5.9365 -0.6459 0.0155 0
M  V30 24 N -7.3629 -0.5443 0.021 0
M  V30 25 H 6.4695 1.6752 -0.2566 0
M  V30 26 H 3.1017 -1.8808 -0.5412 0
M  V30 27 H 5.187 3.731 0.0974 0
M  V30 28 H 2.7391 3.673 0.2434 0
M  V30 29 H 0.785 -1.992 -0.4086 0
M  V30 30 H -1.289 -1.9271 0.0114 0
M  V30 31 H -3.1652 1.3231 0.0047 0
M  V30 32 H -3.4638 -2.9832 0.0029 0
M  V30 33 H -5.6118 1.4894 0.0154 0
M  V30 34 H -5.917 -2.8059 0.0129 0
M  V30 35 H -7.8325 0.3885 0.0238 0
M  V30 36 H -7.9598 -1.4013 0.0227 0
M  V30 END ATOM
M  V30 BEGIN BOND
M  V30 1 2 1 2
M  V30 2 2 1 3
M  V30 3 1 1 4
M  V30 4 1 1 5
M  V30 5 2 5 6
M  V30 6 1 5 7
M  V30 7 1 6 8
M  V30 8 1 6 9
M  V30 9 2 7 10
M  V30 10 1 8 11
M  V30 11 2 8 12
M  V30 12 2 9 13
M  V30 13 2 11 14
M  V30 14 1 11 15
M  V30 15 2 15 16
M  V30 16 1 16 17
M  V30 17 1 17 18
M  V30 18 2 18 19
M  V30 19 1 18 20
M  V30 20 1 19 21
M  V30 21 2 20 22
M  V30 22 2 21 23
M  V30 23 1 23 24
M  V30 24 1 10 12
M  V30 25 1 13 15
M  V30 26 1 22 23
M  V30 27 1 7 25
M  V30 28 1 9 26
M  V30 29 1 10 27
M  V30 30 1 12 28
M  V30 31 1 13 29
M  V30 32 1 17 30
M  V30 33 1 19 31
M  V30 34 1 20 32
M  V30 35 1 21 33
M  V30 36 1 22 34
M  V30 37 1 24 35
M  V30 38 1 24 36
M  V30 END BOND
M  V30 END CTAB
M  END
>  <Structure No>
1569

>  <LogS>
-1.291560039

>  <MMFF94 Energy>
115.63

$$$$
Compound 1570
Actelion Java MolfileCreator 2.0

  0  0  0  0  0  0              0 V3000
M  V30 BEGIN CTAB
M  V30 COUNTS 164 171 0 0 0
M  V30 BEGIN ATOM
M  V30 1 O 9.2475 -0.7277 -3.8858 0
M  V30 2 C 10.1068 -0.9856 -2.9973 0
M  V30 3 O 9.7045 -1.0866 -1.6623 0
M  V30 4 C 11.5337 -1.1083 -3.3784 0
M  V30 5 C 8.4841 -0.5404 -1.157 0 CFG=2
M  V30 6 C 12.4706 -1.6705 -2.5893 0
M  V30 7 C 11.9631 -0.6213 -4.7395 0
M  V30 8 C 8.7021 -0.0657 0.3067 0
M  V30 9 C 7.3123 -1.5434 -1.3151 0 CFG=1
M  V30 10 C 12.2311 -2.2355 -1.2234 0
M  V30 11 C 7.4045 0.6074 0.7732 0
M  V30 12 C 9.1311 -1.203 1.2688 0
M  V30 13 C 9.8268 1.0047 0.3253 0
M  V30 14 O 7.6638 -2.7939 -0.717 0
M  V30 15 C 5.9298 -1.0203 -0.7376 0 CFG=1
M  V30 16 C 6.1425 -0.2768 0.6406 0 CFG=2
M  V30 17 C 8.3893 -3.8108 -1.3575 0
M  V30 18 C 5.2064 -0.0703 -1.7759 0 CFG=1
M  V30 19 C 5.0111 -2.2727 -0.4911 0
M  V30 20 C 4.8677 0.4693 1.0537 0
M  V30 21 O 8.7127 -3.7091 -2.5689 0
M  V30 22 C 8.8266 -4.9971 -0.5722 0
M  V30 23 O 4.7847 -0.805 -2.9081 0
M  V30 24 C 3.9448 0.6874 -1.221 0
M  V30 25 O 4.9863 -3.1195 -1.6072 0
M  V30 26 C 4.1078 -0.1596 1.9764 0
M  V30 27 C 4.206 1.4903 0.0914 0 CFG=1
M  V30 28 C 2.6298 -0.2676 1.7894 0
M  V30 29 C 2.8739 2.1446 0.7684 0 CFG=2
M  V30 30 C 5.1865 2.6689 -0.2512 0
M  V30 31 C 1.9488 1.0933 1.5695 0 CFG=1
M  V30 32 C 2.0763 3.0211 -0.2718 0
M  V30 33 C 3.3585 3.1757 1.8679 0
M  V30 34 C 0.3706 0.9714 1.2727 0 CFG=1
M  V30 35 C 0.6979 2.5406 -0.6655 0
M  V30 36 C -0.1895 2.2704 0.5716 0 CFG=1
M  V30 37 C 0.0314 -0.2631 0.3564 0
M  V30 38 C -0.2878 0.774 2.6867 0
M  V30 39 C -1.7736 2.2441 0.2528 0 CFG=2
M  V30 40 C -1.2535 -0.1542 -0.5026 0
M  V30 41 C -2.3132 0.7783 0.1045 0 CFG=2
M  V30 42 C -2.1817 3.0935 -0.9969 0
M  V30 43 C -2.5304 2.9113 1.4358 0
M  V30 44 O -3.5223 0.7327 -0.66 0
M  V30 45 O -1.7816 2.4889 -2.1956 0
M  V30 46 C -4.4569 -0.1532 -0.0654 0 CFG=1
M  V30 47 O -4.8819 0.3713 1.1737 0
M  V30 48 C -5.6851 -0.3109 -0.9567 0 CFG=2
M  V30 49 C -5.5548 -0.6145 1.9314 0 CFG=1
M  V30 50 O -6.3436 0.943 -1.0505 0
M  V30 51 C -6.6365 -1.3448 -0.3068 0 CFG=2
M  V30 52 C -5.856 0.0101 3.2637 0
M  V30 53 C -6.8609 -1.1114 1.2232 0 CFG=1
M  V30 54 C -6.8583 1.1648 -2.35 0 CFG=2
M  V30 55 O -6.1891 -2.6536 -0.5758 0
M  V30 56 O -6.4559 1.117 3.3171 0
M  V30 57 O -5.4544 -0.6088 4.4464 0 CHG=-1
M  V30 58 O -7.2646 -2.3467 1.789 0
M  V30 59 O -5.8191 1.644 -3.1838 0
M  V30 60 C -7.9857 2.2262 -2.2896 0 CFG=1
M  V30 61 C -8.1956 -2.2239 2.8508 0 CFG=1
M  V30 62 C -6.192 1.6188 -4.5597 0 CFG=1
M  V30 63 O -7.7297 3.2031 -1.3101 0
M  V30 64 C -8.2001 2.9083 -3.672 0 CFG=1
M  V30 65 O -9.5045 -2.3696 2.3196 0
M  V30 66 C -7.8819 -3.3515 3.8559 0 CFG=1
M  V30 67 C -7.6945 2.0001 -4.8054 0 CFG=1
M  V30 68 C -5.2269 2.5454 -5.3139 0
M  V30 69 O -9.5642 3.1879 -3.8667 0
M  V30 70 C -10.5189 -2.3124 3.3208 0 CFG=1
M  V30 71 O -6.5858 -3.164 4.3662 0
M  V30 72 C -8.9016 -3.3334 5.0029 0 CFG=1
M  V30 73 O -7.8723 2.6236 -6.0538 0
M  V30 74 O -3.905 2.1864 -5.0214 0
M  V30 75 C -10.3181 -3.397 4.4179 0 CFG=1
M  V30 76 C -10.7209 -0.8898 3.8885 0
M  V30 77 O -8.6699 -4.4383 5.8409 0
M  V30 78 O -11.2615 -3.255 5.4474 0
M  V30 79 O -10.7824 0.033 2.8345 0
M  V30 80 H 8.2412 0.3621 -1.7622 0
M  V30 81 H 13.4874 -1.75 -2.9597 0
M  V30 82 H 12.0091 -1.4773 -5.448 0
M  V30 83 H 12.9672 -0.146 -4.6839 0
M  V30 84 H 11.2632 0.1464 -5.1333 0
M  V30 85 H 7.1755 -1.7142 -2.4101 0
M  V30 86 H 11.9809 -1.421 -0.5131 0
M  V30 87 H 13.1573 -2.7327 -0.8592 0
M  V30 88 H 11.4205 -2.9936 -1.2515 0
M  V30 89 H 7.314 1.5057 0.1635 0
M  V30 90 H 7.5003 0.9477 1.8306 0
M  V30 91 H 10.0473 -1.7124 0.901 0
M  V30 92 H 8.3505 -1.9699 1.4223 0
M  V30 93 H 9.3577 -0.7855 2.2729 0
M  V30 94 H 9.5633 1.8728 -0.3203 0
M  V30 95 H 10.7867 0.5902 -0.0477 0
M  V30 96 H 9.9971 1.3865 1.3575 0
M  V30 97 H 6.3357 -1.0788 1.3915 0
M  V30 98 H 5.9506 0.6792 -2.1062 0
M  V30 99 H 5.3767 -2.8529 0.3873 0
M  V30 100 H 3.98 -1.9603 -0.2576 0
M  V30 101 H 9.8183 -4.7908 -0.118 0
M  V30 102 H 8.9028 -5.8906 -1.2285 0
M  V30 103 H 8.0946 -5.2095 0.2364 0
M  V30 104 H 5.3941 -0.5832 -3.6655 0
M  V30 105 H 3.5947 1.3637 -2.0289 0
M  V30 106 H 3.1204 -0.0303 -1.0656 0
M  V30 107 H 4.3546 -3.8527 -1.3869 0
M  V30 108 H 4.5559 -0.8856 2.6438 0
M  V30 109 H 2.2187 -0.781 2.6855 0
M  V30 110 H 2.4609 -0.9584 0.9495 0
M  V30 111 H 5.7572 2.9826 0.6493 0
M  V30 112 H 5.8913 2.471 -1.0734 0
M  V30 113 H 4.6639 3.5748 -0.6122 0
M  V30 114 H 1.9709 1.4617 2.6178 0
M  V30 115 H 1.9377 4.0599 0.1045 0
M  V30 116 H 2.6362 3.1635 -1.2179 0
M  V30 117 H 2.4939 3.593 2.4267 0
M  V30 118 H 3.8835 4.0649 1.455 0
M  V30 119 H 4.0294 2.6809 2.6009 0
M  V30 120 H 0.7836 1.6598 -1.3331 0
M  V30 121 H 0.2979 3.363 -1.2844 0
M  V30 122 H -0.0087 3.1261 1.2674 0
M  V30 123 H -0.0297 -1.1838 0.9799 0
M  V30 124 H 0.8529 -0.4324 -0.3709 0
M  V30 125 H -1.311 0.3971 2.7182 0
M  V30 126 H 0.2628 0.0217 3.2848 0
M  V30 127 H -0.2582 1.7224 3.2658 0
M  V30 128 H -1.6823 -1.1694 -0.6277 0
M  V30 129 H -0.9998 0.1915 -1.5302 0
M  V30 130 H -2.4902 0.3715 1.111 0
M  V30 131 H -1.7622 4.1247 -0.9155 0
M  V30 132 H -3.2882 3.2162 -1.0329 0
M  V30 133 H -2.3327 2.4289 2.4068 0
M  V30 134 H -2.2534 3.9836 1.5289 0
M  V30 135 H -3.6297 2.8612 1.2771 0
M  V30 136 H -1.9345 3.1578 -2.9095 0
M  V30 137 H -3.9647 -1.1509 0.0566 0
M  V30 138 H -5.3336 -0.6918 -1.9474 0
M  V30 139 H -4.8756 -1.4805 2.1149 0
M  V30 140 H -7.6259 -1.2497 -0.8035 0
M  V30 141 H -7.6522 -0.3246 1.308 0
M  V30 142 H -7.3 0.2196 -2.7626 0
M  V30 143 H -5.4112 -2.843 0.0106 0
M  V30 144 H -8.9259 1.6976 -2.0004 0
M  V30 145 H -8.1017 -1.2477 3.3747 0
M  V30 146 H -6.03 0.5925 -4.9494 0
M  V30 147 H -6.8441 3.6044 -1.5082 0
M  V30 148 H -7.6195 3.8585 -3.7235 0
M  V30 149 H -7.9382 -4.3269 3.3139 0
M  V30 150 H -8.2866 1.0497 -4.7841 0
M  V30 151 H -5.3915 2.4515 -6.4108 0
M  V30 152 H -5.4092 3.6016 -5.013 0
M  V30 153 H -9.782 3.9508 -3.2695 0
M  V30 154 H -11.475 -2.568 2.8132 0
M  V30 155 H -6.2853 -4.0422 4.7177 0
M  V30 156 H -8.7653 -2.3896 5.5764 0
M  V30 157 H -8.8143 2.4588 -6.3285 0
M  V30 158 H -3.3322 2.8637 -5.4645 0
M  V30 159 H -10.4479 -4.4005 3.941 0
M  V30 160 H -9.8994 -0.6068 4.581 0
M  V30 161 H -11.6737 -0.8606 4.4702 0
M  V30 162 H -9.1404 -4.245 6.6953 0
M  V30 163 H -12.1379 -3.5388 5.0732 0
M  V30 164 H -11.0645 0.8967 3.2366 0
M  V30 END ATOM
M  V30 BEGIN BOND
M  V30 1 2 1 2
M  V30 2 1 2 3
M  V30 3 1 2 4
M  V30 4 1 3 5
M  V30 5 2 4 6
M  V30 6 1 4 7
M  V30 7 1 5 8
M  V30 8 1 5 9
M  V30 9 1 6 10
M  V30 10 1 8 11
M  V30 11 1 8 12
M  V30 12 1 8 13
M  V30 13 1 9 14
M  V30 14 1 9 15
M  V30 15 1 11 16
M  V30 16 1 14 17
M  V30 17 1 15 18
M  V30 18 1 15 19
M  V30 19 1 16 20
M  V30 20 2 17 21
M  V30 21 1 17 22
M  V30 22 1 18 23
M  V30 23 1 18 24
M  V30 24 1 19 25
M  V30 25 2 20 26
M  V30 26 1 20 27
M  V30 27 1 26 28
M  V30 28 1 27 29
M  V30 29 1 27 30
M  V30 30 1 28 31
M  V30 31 1 29 32
M  V30 32 1 29 33
M  V30 33 1 31 34
M  V30 34 1 32 35
M  V30 35 1 34 36
M  V30 36 1 34 37
M  V30 37 1 34 38
M  V30 38 1 36 39
M  V30 39 1 37 40
M  V30 40 1 39 41
M  V30 41 1 39 42
M  V30 42 1 39 43
M  V30 43 1 41 44
M  V30 44 1 42 45
M  V30 45 1 44 46
M  V30 46 1 46 47
M  V30 47 1 46 48
M  V30 48 1 47 49
M  V30 49 1 48 50
M  V30 50 1 48 51
M  V30 51 1 49 52
M  V30 52 1 49 53
M  V30 53 1 50 54
M  V30 54 1 51 55
M  V30 55 2 52 56
M  V30 56 1 52 57
M  V30 57 1 53 58
M  V30 58 1 54 59
M  V30 59 1 54 60
M  V30 60 1 58 61
M  V30 61 1 59 62
M  V30 62 1 60 63
M  V30 63 1 60 64
M  V30 64 1 61 65
M  V30 65 1 61 66
M  V30 66 1 62 67
M  V30 67 1 62 68
M  V30 68 1 64 69
M  V30 69 1 65 70
M  V30 70 1 66 71
M  V30 71 1 66 72
M  V30 72 1 67 73
M  V30 73 1 68 74
M  V30 74 1 70 75
M  V30 75 1 70 76
M  V30 76 1 72 77
M  V30 77 1 75 78
M  V30 78 1 76 79
M  V30 79 1 15 16
M  V30 80 1 24 27
M  V30 81 1 29 31
M  V30 82 1 35 36
M  V30 83 1 40 41
M  V30 84 1 51 53
M  V30 85 1 64 67
M  V30 86 1 72 75
M  V30 87 1 5 80
M  V30 88 1 6 81
M  V30 89 1 7 82
M  V30 90 1 7 83
M  V30 91 1 7 84
M  V30 92 1 9 85
M  V30 93 1 10 86
M  V30 94 1 10 87
M  V30 95 1 10 88
M  V30 96 1 11 89
M  V30 97 1 11 90
M  V30 98 1 12 91
M  V30 99 1 12 92
M  V30 100 1 12 93
M  V30 101 1 13 94
M  V30 102 1 13 95
M  V30 103 1 13 96
M  V30 104 1 16 97
M  V30 105 1 18 98
M  V30 106 1 19 99
M  V30 107 1 19 100
M  V30 108 1 22 101
M  V30 109 1 22 102
M  V30 110 1 22 103
M  V30 111 1 23 104
M  V30 112 1 24 105
M  V30 113 1 24 106
M  V30 114 1 25 107
M  V30 115 1 26 108
M  V30 116 1 28 109
M  V30 117 1 28 110
M  V30 118 1 30 111
M  V30 119 1 30 112
M  V30 120 1 30 113
M  V30 121 1 31 114
M  V30 122 1 32 115
M  V30 123 1 32 116
M  V30 124 1 33 117
M  V30 125 1 33 118
M  V30 126 1 33 119
M  V30 127 1 35 120
M  V30 128 1 35 121
M  V30 129 1 36 122
M  V30 130 1 37 123
M  V30 131 1 37 124
M  V30 132 1 38 125
M  V30 133 1 38 126
M  V30 134 1 38 127
M  V30 135 1 40 128
M  V30 136 1 40 129
M  V30 137 1 41 130
M  V30 138 1 42 131
M  V30 139 1 42 132
M  V30 140 1 43 133
M  V30 141 1 43 134
M  V30 142 1 43 135
M  V30 143 1 45 136
M  V30 144 1 46 137
M  V30 145 1 48 138
M  V30 146 1 49 139
M  V30 147 1 51 140
M  V30 148 1 53 141
M  V30 149 1 54 142
M  V30 150 1 55 143
M  V30 151 1 60 144
M  V30 152 1 61 145
M  V30 153 1 62 146
M  V30 154 1 63 147
M  V30 155 1 64 148
M  V30 156 1 66 149
M  V30 157 1 67 150
M  V30 158 1 68 151
M  V30 159 1 68 152
M  V30 160 1 69 153
M  V30 161 1 70 154
M  V30 162 1 71 155
M  V30 163 1 72 156
M  V30 164 1 73 157
M  V30 165 1 74 158
M  V30 166 1 75 159
M  V30 167 1 76 160
M  V30 168 1 76 161
M  V30 169 1 77 162
M  V30 170 1 78 163
M  V30 171 1 79 164
M  V30 END BOND
M  V30 BEGIN COLLECTION
M  V30 MDLV30/STEABS ATOMS=(27 5 9 15 16 18 27 29 31 34 36 39 41 46 48 49 51 53 54 60 61 62 64 66 67 70 72 75)
M  V30 END COLLECTION
M  V30 END CTAB
M  END
>  <Structure No>
1570

>  <LogS>
-1.103103668

>  <MMFF94 Energy>
477.06

$$$$
Compound 1571
Actelion Java MolfileCreator 2.0

  0  0  0  0  0  0              0 V3000
M  V30 BEGIN CTAB
M  V30 COUNTS 104 111 0 0 0
M  V30 BEGIN ATOM
M  V30 1 S 7.4334 -2.8672 -0.7584 0
M  V30 2 O 6.5276 -4.0652 -0.8493 0
M  V30 3 O 8.8162 -3.3393 -0.3994 0
M  V30 4 O 7.477 -2.0983 -2.2479 0 CHG=-1
M  V30 5 C 6.8207 -1.7421 0.4618 0
M  V30 6 C 7.752 -0.8662 1.2311 0
M  V30 7 C 5.4962 -1.6934 0.6868 0
M  V30 8 N 9.0377 -0.9615 1.0229 0
M  V30 9 C 7.1612 0.12 2.1763 0
M  V30 10 C 4.8988 -0.8276 1.7265 0
M  V30 11 N 10.0165 -0.2873 1.7745 0
M  V30 12 O 7.8594 1.0332 2.6893 0
M  V30 13 C 5.7153 0.0532 2.4654 0
M  V30 14 C 3.5191 -0.8856 1.9921 0
M  V30 15 C 11.3413 -0.0762 1.2584 0
M  V30 16 C 5.1489 0.8497 3.4728 0
M  V30 17 C 2.9558 -0.0826 3.0006 0
M  V30 18 C 11.5758 0.4589 -0.0326 0
M  V30 19 C 12.4337 -0.3507 2.0935 0
M  V30 20 C 3.782 0.7666 3.745 0
M  V30 21 N 1.5659 -0.1678 3.349 0
M  V30 22 S 10.2531 0.9746 -1.093 0
M  V30 23 C 12.8954 0.646 -0.4692 0
M  V30 24 C 13.7405 -0.1325 1.6578 0
M  V30 25 C 0.4881 -0.0477 2.4113 0
M  V30 26 O 9.6783 -0.2247 -1.7912 0
M  V30 27 O 10.7645 1.9485 -2.1177 0
M  V30 28 O 9.0548 1.7385 -0.194 0 CHG=-1
M  V30 29 C 13.9836 0.3696 0.3777 0
M  V30 30 N 0.6484 -0.3631 1.1 0
M  V30 31 N -0.7142 0.3991 2.8484 0
M  V30 32 O 15.3144 0.5944 -0.0059 0
M  V30 33 C -0.3933 -0.2473 0.2314 0
M  V30 34 C -1.7568 0.5395 1.9923 0
M  V30 35 C 15.7121 1.1282 -1.2632 0
M  V30 36 N -1.5941 0.1893 0.6914 0
M  V30 37 N -0.2282 -0.5866 -1.1608 0
M  V30 38 N -3.014 1.0187 2.495 0
M  V30 39 C -1.4072 -0.7442 -2.0241 0
M  V30 40 C 1.0541 -1.116 -1.643 0
M  V30 41 C -4.2473 1.1152 1.755 0
M  V30 42 C -1.0356 -0.478 -3.4838 0
M  V30 43 C 1.2212 -0.8251 -3.1365 0
M  V30 44 C -4.2793 1.4338 0.3837 0
M  V30 45 C -5.4565 0.95 2.4434 0
M  V30 46 O 0.0842 -1.2516 -3.8611 0
M  V30 47 C -5.5042 1.5285 -0.2969 0
M  V30 48 C -6.6786 1.0817 1.7841 0
M  V30 49 C -6.7117 1.3698 0.4119 0
M  V30 50 C -5.5231 1.8084 -1.752 0
M  V30 51 C -7.9935 1.5331 -0.2957 0
M  V30 52 C -6.6684 1.8561 -2.4524 0
M  V30 53 O -9.0669 1.6258 0.3608 0
M  V30 54 C -7.9794 1.6715 -1.7755 0
M  V30 55 S -6.6214 2.1257 -4.1999 0
M  V30 56 N -9.0635 1.64 -2.5039 0
M  V30 57 O -5.2057 2.2922 -4.6716 0
M  V30 58 O -7.3942 3.3714 -4.5378 0
M  V30 59 O -7.3049 0.8033 -4.9799 0 CHG=-1
M  V30 60 N -10.3586 1.3538 -2.0312 0
M  V30 61 C -10.6847 0.1072 -1.3881 0
M  V30 62 C -11.8101 0.0046 -0.5377 0
M  V30 63 C -9.8656 -1.0173 -1.5831 0
M  V30 64 S -12.8611 1.3969 -0.2297 0
M  V30 65 C -12.089 -1.2178 0.0991 0
M  V30 66 C -10.1516 -2.2251 -0.9437 0
M  V30 67 O -12.0242 2.5913 0.1384 0
M  V30 68 O -13.8067 1.1061 0.903 0
M  V30 69 O -13.7499 1.7427 -1.6119 0 CHG=-1
M  V30 70 C -11.2561 -2.3378 -0.095 0
M  V30 71 O -11.491 -3.5703 0.5364 0
M  V30 72 C -12.5493 -3.8081 1.4594 0
M  V30 73 H 4.8329 -2.3373 0.1157 0
M  V30 74 H 9.8943 -0.2271 2.811 0
M  V30 75 H 2.8981 -1.5913 1.4512 0
M  V30 76 H 5.7602 1.5278 4.0573 0
M  V30 77 H 12.2691 -0.7386 3.0914 0
M  V30 78 H 3.3625 1.3788 4.5352 0
M  V30 79 H 1.3203 -0.0025 4.3507 0
M  V30 80 H 13.0712 1.0311 -1.4622 0
M  V30 81 H 14.567 -0.3478 2.3259 0
M  V30 82 H 15.2477 2.1262 -1.421 0
M  V30 83 H 16.8168 1.2481 -1.2737 0
M  V30 84 H 15.4194 0.4349 -2.0798 0
M  V30 85 H -3.0597 1.1864 3.5248 0
M  V30 86 H -1.7971 -1.7807 -1.9227 0
M  V30 87 H -2.2126 -0.0336 -1.7387 0
M  V30 88 H 1.082 -2.2126 -1.4664 0
M  V30 89 H 1.901 -0.6491 -1.097 0
M  V30 90 H -1.8933 -0.7613 -4.1283 0
M  V30 91 H -0.8511 0.6081 -3.645 0
M  V30 92 H 2.1085 -1.3797 -3.5071 0
M  V30 93 H 1.4242 0.2575 -3.3006 0
M  V30 94 H -3.3655 1.6392 -0.1567 0
M  V30 95 H -5.4495 0.7295 3.5042 0
M  V30 96 H -7.5939 0.9513 2.3459 0
M  V30 97 H -4.5757 1.9405 -2.2615 0
M  V30 98 H -11.1484 1.9366 -2.3995 0
M  V30 99 H -9.0115 -0.968 -2.2444 0
M  V30 100 H -12.9485 -1.291 0.7518 0
M  V30 101 H -9.512 -3.0827 -1.1079 0
M  V30 102 H -12.4565 -3.122 2.3302 0
M  V30 103 H -13.534 -3.6662 0.9602 0
M  V30 104 H -12.4878 -4.855 1.8232 0
M  V30 END ATOM
M  V30 BEGIN BOND
M  V30 1 2 1 2
M  V30 2 2 1 3
M  V30 3 1 1 4
M  V30 4 1 1 5
M  V30 5 1 5 6
M  V30 6 2 5 7
M  V30 7 2 6 8
M  V30 8 1 6 9
M  V30 9 1 7 10
M  V30 10 1 8 11
M  V30 11 2 9 12
M  V30 12 1 9 13
M  V30 13 1 10 14
M  V30 14 1 11 15
M  V30 15 1 13 16
M  V30 16 2 14 17
M  V30 17 2 15 18
M  V30 18 1 15 19
M  V30 19 2 16 20
M  V30 20 1 17 21
M  V30 21 1 18 22
M  V30 22 1 18 23
M  V30 23 2 19 24
M  V30 24 1 21 25
M  V30 25 2 22 26
M  V30 26 2 22 27
M  V30 27 1 22 28
M  V30 28 2 23 29
M  V30 29 2 25 30
M  V30 30 1 25 31
M  V30 31 1 29 32
M  V30 32 1 30 33
M  V30 33 2 31 34
M  V30 34 1 32 35
M  V30 35 2 33 36
M  V30 36 1 33 37
M  V30 37 1 34 38
M  V30 38 1 37 39
M  V30 39 1 37 40
M  V30 40 1 38 41
M  V30 41 1 39 42
M  V30 42 1 40 43
M  V30 43 2 41 44
M  V30 44 1 41 45
M  V30 45 1 42 46
M  V30 46 1 44 47
M  V30 47 2 45 48
M  V30 48 2 47 49
M  V30 49 1 47 50
M  V30 50 1 49 51
M  V30 51 2 50 52
M  V30 52 2 51 53
M  V30 53 1 51 54
M  V30 54 1 52 55
M  V30 55 2 54 56
M  V30 56 2 55 57
M  V30 57 2 55 58
M  V30 58 1 55 59
M  V30 59 1 56 60
M  V30 60 1 60 61
M  V30 61 2 61 62
M  V30 62 1 61 63
M  V30 63 1 62 64
M  V30 64 1 62 65
M  V30 65 2 63 66
M  V30 66 2 64 67
M  V30 67 2 64 68
M  V30 68 1 64 69
M  V30 69 2 65 70
M  V30 70 1 70 71
M  V30 71 1 71 72
M  V30 72 2 10 13
M  V30 73 1 17 20
M  V30 74 1 24 29
M  V30 75 1 34 36
M  V30 76 1 43 46
M  V30 77 1 48 49
M  V30 78 1 52 54
M  V30 79 1 66 70
M  V30 80 1 7 73
M  V30 81 1 11 74
M  V30 82 1 14 75
M  V30 83 1 16 76
M  V30 84 1 19 77
M  V30 85 1 20 78
M  V30 86 1 21 79
M  V30 87 1 23 80
M  V30 88 1 24 81
M  V30 89 1 35 82
M  V30 90 1 35 83
M  V30 91 1 35 84
M  V30 92 1 38 85
M  V30 93 1 39 86
M  V30 94 1 39 87
M  V30 95 1 40 88
M  V30 96 1 40 89
M  V30 97 1 42 90
M  V30 98 1 42 91
M  V30 99 1 43 92
M  V30 100 1 43 93
M  V30 101 1 44 94
M  V30 102 1 45 95
M  V30 103 1 48 96
M  V30 104 1 50 97
M  V30 105 1 60 98
M  V30 106 1 63 99
M  V30 107 1 65 100
M  V30 108 1 66 101
M  V30 109 1 72 102
M  V30 110 1 72 103
M  V30 111 1 72 104
M  V30 END BOND
M  V30 END CTAB
M  END
>  <Structure No>
1571

>  <LogS>
-1.825282751

>  <MMFF94 Energy>
210.23

$$$$
Compound 1572
Actelion Java MolfileCreator 2.0

  0  0  0  0  0  0              0 V3000
M  V30 BEGIN CTAB
M  V30 COUNTS 39 41 0 0 0
M  V30 BEGIN ATOM
M  V30 1 S 5.572 -1.1126 -1.4551 0
M  V30 2 O 6.9855 -0.6165 -1.5755 0
M  V30 3 O 5.1531 -1.7017 -2.7728 0
M  V30 4 O 5.4926 -2.2933 -0.2634 0 CHG=-1
M  V30 5 C 4.5041 0.2204 -1.0298 0
M  V30 6 C 4.9848 1.2946 -0.269 0
M  V30 7 C 3.1646 0.2093 -1.4407 0
M  V30 8 C 4.1325 2.3465 0.0799 0
M  V30 9 C 2.3126 1.2612 -1.0917 0
M  V30 10 C 2.7849 2.3227 -0.2999 0
M  V30 11 N 1.9404 3.4304 0.0575 0
M  V30 12 N 0.7289 3.3459 0.4594 0
M  V30 13 C 0.044 2.1218 0.7599 0
M  V30 14 C -1.1466 1.7049 0.2221 0
M  V30 15 C 0.4232 1.1002 1.6187 0
M  V30 16 O -1.8162 2.3269 -0.6451 0
M  V30 17 N -1.4576 0.4882 0.7194 0
M  V30 18 N -0.5026 0.1166 1.5643 0 CHG=-1
M  V30 19 C 1.577 1.0728 2.5289 0
M  V30 20 C -2.5978 -0.3336 0.4042 0
M  V30 21 O 1.8779 0.0071 3.1275 0
M  V30 22 O 2.3206 2.2214 2.7667 0 CHG=-1
M  V30 23 C -2.4884 -1.733 0.4667 0
M  V30 24 C -3.8389 0.2375 0.0676 0
M  V30 25 C -3.5871 -2.5455 0.1722 0
M  V30 26 C -4.937 -0.5768 -0.2253 0
M  V30 27 C -4.8136 -1.9711 -0.1837 0
M  V30 28 S -6.201 -2.9944 -0.5397 0
M  V30 29 O -5.7368 -4.296 -1.1306 0
M  V30 30 O -7.1006 -2.3085 -1.5293 0
M  V30 31 O -7.0522 -3.2944 0.8765 0 CHG=-1
M  V30 32 H 6.0175 1.3189 0.0547 0
M  V30 33 H 2.7805 -0.6087 -2.0366 0
M  V30 34 H 4.5162 3.1731 0.6649 0
M  V30 35 H 1.2931 1.2522 -1.4532 0
M  V30 36 H -1.5471 -2.1967 0.7336 0
M  V30 37 H -3.9725 1.3103 0.0579 0
M  V30 38 H -3.4803 -3.6215 0.2244 0
M  V30 39 H -5.8856 -0.1183 -0.4751 0
M  V30 END ATOM
M  V30 BEGIN BOND
M  V30 1 2 1 2
M  V30 2 2 1 3
M  V30 3 1 1 4
M  V30 4 1 1 5
M  V30 5 2 5 6
M  V30 6 1 5 7
M  V30 7 1 6 8
M  V30 8 2 7 9
M  V30 9 2 8 10
M  V30 10 1 10 11
M  V30 11 2 11 12
M  V30 12 1 12 13
M  V30 13 1 13 14
M  V30 14 2 13 15
M  V30 15 2 14 16
M  V30 16 1 14 17
M  V30 17 1 15 18
M  V30 18 1 15 19
M  V30 19 1 17 20
M  V30 20 2 19 21
M  V30 21 1 19 22
M  V30 22 2 20 23
M  V30 23 1 20 24
M  V30 24 1 23 25
M  V30 25 2 24 26
M  V30 26 2 25 27
M  V30 27 1 27 28
M  V30 28 2 28 29
M  V30 29 2 28 30
M  V30 30 1 28 31
M  V30 31 1 9 10
M  V30 32 1 17 18
M  V30 33 1 26 27
M  V30 34 1 6 32
M  V30 35 1 7 33
M  V30 36 1 8 34
M  V30 37 1 9 35
M  V30 38 1 23 36
M  V30 39 1 24 37
M  V30 40 1 25 38
M  V30 41 1 26 39
M  V30 END BOND
M  V30 END CTAB
M  END
>  <Structure No>
1572

>  <LogS>
-0.504996401

>  <MMFF94 Energy>
380.58

$$$$
Compound 1573
Actelion Java MolfileCreator 2.0

  0  0  0  0  0  0              0 V3000
M  V30 BEGIN CTAB
M  V30 COUNTS 13 12 0 0 0
M  V30 BEGIN ATOM
M  V30 1 O 2.459 -0.6911 0.4607 0
M  V30 2 C 1.4061 -0.5881 -0.2222 0
M  V30 3 O 1.3542 -1.1547 -1.4904 0 CHG=-1
M  V30 4 C 0.2089 0.1311 0.3378 0 CFG=1
M  V30 5 N -0.2038 1.2163 -0.559 0 CHG=1
M  V30 6 C -0.942 -0.8553 0.5618 0
M  V30 7 H 0.4815 0.5695 1.3251 0
M  V30 8 H -1.0007 1.7433 -0.1326 0
M  V30 9 H 0.5913 1.8818 -0.6988 0
M  V30 10 H -0.5027 0.837 -1.4873 0
M  V30 11 H -1.2627 -1.3109 -0.3996 0
M  V30 12 H -0.624 -1.6632 1.2553 0
M  V30 13 H -1.8098 -0.3299 1.0143 0
M  V30 END ATOM
M  V30 BEGIN BOND
M  V30 1 2 1 2
M  V30 2 1 2 3
M  V30 3 1 2 4
M  V30 4 1 4 5
M  V30 5 1 4 6
M  V30 6 1 4 7
M  V30 7 1 5 8
M  V30 8 1 5 9
M  V30 9 1 5 10
M  V30 10 1 6 11
M  V30 11 1 6 12
M  V30 12 1 6 13
M  V30 END BOND
M  V30 BEGIN COLLECTION
M  V30 MDLV30/STEABS ATOMS=(1 4)
M  V30 END COLLECTION
M  V30 END CTAB
M  END
>  <Structure No>
1573

>  <LogS>
0.267898616

>  <MMFF94 Energy>
-9.0775

$$$$
Compound 1574
Actelion Java MolfileCreator 2.0

  0  0  0  0  0  0              0 V3000
M  V30 BEGIN CTAB
M  V30 COUNTS 65 69 0 0 0
M  V30 BEGIN ATOM
M  V30 1 Cl -6.9931 -3.1511 -2.9805 0
M  V30 2 C -6.2944 -1.8099 -2.0892 0
M  V30 3 C -4.9214 -1.7756 -1.8267 0
M  V30 4 C -7.1163 -0.7769 -1.6443 0
M  V30 5 C -4.3562 -0.7072 -1.1065 0
M  V30 6 C -6.5641 0.3012 -0.9447 0
M  V30 7 N -2.9547 -0.7011 -0.7903 0
M  V30 8 C -5.1871 0.343 -0.6683 0
M  V30 9 N -2.1801 -1.8632 -0.9672 0
M  V30 10 O -4.6228 1.4398 -0.0024 0
M  V30 11 C -0.8899 -1.9495 -0.7952 0
M  V30 12 C -5.2025 2.1143 1.0825 0
M  V30 13 C -0.0259 -0.7838 -0.4951 0
M  V30 14 C -0.2453 -3.2864 -0.8398 0
M  V30 15 C -6.1163 1.4831 1.9496 0
M  V30 16 C -4.823 3.4396 1.3324 0
M  V30 17 O -0.331 0.3644 -0.9182 0
M  V30 18 C 1.2628 -1.0234 0.2079 0
M  V30 19 S -1.0702 -4.6589 -1.5861 0
M  V30 20 C 0.9648 -3.4752 -0.2856 0
M  V30 21 C -6.6678 2.1899 3.0232 0
M  V30 22 C -5.3731 4.1407 2.4072 0
M  V30 23 C 2.0498 0.0334 0.7234 0
M  V30 24 C 1.7257 -2.3596 0.3265 0
M  V30 25 O -1.9048 -5.3679 -0.5566 0
M  V30 26 O -0.0593 -5.6082 -2.1635 0
M  V30 27 O -2.0546 -4.1155 -2.8345 0 CHG=-1
M  V30 28 C -6.2974 3.5193 3.2506 0
M  V30 29 N 1.6287 1.3926 0.5477 0 CHG=-1
M  V30 30 C 3.2472 -0.2583 1.3922 0
M  V30 31 C 2.9438 -2.6281 0.9737 0
M  V30 32 S 2.6963 2.7502 0.3858 0
M  V30 33 C 3.697 -1.5819 1.5159 0
M  V30 34 O 2.0959 3.7225 -0.5944 0
M  V30 35 O 2.8503 3.4272 1.7241 0
M  V30 36 C 4.2632 2.2336 -0.2357 0
M  V30 37 S 5.2401 -1.9136 2.2969 0
M  V30 38 C 5.4477 2.6328 0.4024 0
M  V30 39 C 4.3288 1.4025 -1.3647 0
M  V30 40 O 5.2598 -3.3166 2.8361 0
M  V30 41 O 5.4439 -0.9516 3.4372 0
M  V30 42 O 6.4734 -1.7278 1.1756 0 CHG=-1
M  V30 43 C 6.6845 2.1991 -0.0817 0
M  V30 44 C 5.5637 0.9731 -1.8536 0
M  V30 45 C 6.7507 1.3585 -1.2046 0
M  V30 46 C 8.0885 0.9299 -1.737 0
M  V30 47 H -4.3046 -2.5881 -2.1809 0
M  V30 48 H -8.1833 -0.805 -1.8494 0
M  V30 49 H -7.2087 1.1123 -0.633 0
M  V30 50 H -2.5778 0.1039 -0.2339 0
M  V30 51 H -6.3853 0.4418 1.8082 0
M  V30 52 H -4.1044 3.9308 0.6884 0
M  V30 53 H 1.4035 -4.4696 -0.2859 0
M  V30 54 H -7.3698 1.7012 3.6894 0
M  V30 55 H -5.0735 5.1607 2.5948 0
M  V30 56 H -6.7168 4.0677 4.0865 0
M  V30 57 H 3.8349 0.5418 1.8211 0
M  V30 58 H 3.3155 -3.6474 1.0446 0
M  V30 59 H 5.4165 3.2728 1.2793 0
M  V30 60 H 3.4221 1.0776 -1.8589 0
M  V30 61 H 7.592 2.5183 0.4225 0
M  V30 62 H 5.5947 0.3423 -2.7375 0
M  V30 63 H 7.9791 0.0746 -2.4391 0
M  V30 64 H 8.5642 1.7859 -2.271 0
M  V30 65 H 8.7476 0.6075 -0.897 0
M  V30 END ATOM
M  V30 BEGIN BOND
M  V30 1 1 1 2
M  V30 2 2 2 3
M  V30 3 1 2 4
M  V30 4 1 3 5
M  V30 5 2 4 6
M  V30 6 1 5 7
M  V30 7 2 5 8
M  V30 8 1 7 9
M  V30 9 1 8 10
M  V30 10 2 9 11
M  V30 11 1 10 12
M  V30 12 1 11 13
M  V30 13 1 11 14
M  V30 14 2 12 15
M  V30 15 1 12 16
M  V30 16 2 13 17
M  V30 17 1 13 18
M  V30 18 1 14 19
M  V30 19 2 14 20
M  V30 20 1 15 21
M  V30 21 2 16 22
M  V30 22 2 18 23
M  V30 23 1 18 24
M  V30 24 2 19 25
M  V30 25 2 19 26
M  V30 26 1 19 27
M  V30 27 2 21 28
M  V30 28 1 23 29
M  V30 29 1 23 30
M  V30 30 2 24 31
M  V30 31 1 29 32
M  V30 32 2 30 33
M  V30 33 2 32 34
M  V30 34 2 32 35
M  V30 35 1 32 36
M  V30 36 1 33 37
M  V30 37 2 36 38
M  V30 38 1 36 39
M  V30 39 2 37 40
M  V30 40 2 37 41
M  V30 41 1 37 42
M  V30 42 1 38 43
M  V30 43 2 39 44
M  V30 44 2 43 45
M  V30 45 1 45 46
M  V30 46 1 6 8
M  V30 47 1 20 24
M  V30 48 1 22 28
M  V30 49 1 31 33
M  V30 50 1 44 45
M  V30 51 1 3 47
M  V30 52 1 4 48
M  V30 53 1 6 49
M  V30 54 1 7 50
M  V30 55 1 15 51
M  V30 56 1 16 52
M  V30 57 1 20 53
M  V30 58 1 21 54
M  V30 59 1 22 55
M  V30 60 1 28 56
M  V30 61 1 30 57
M  V30 62 1 31 58
M  V30 63 1 38 59
M  V30 64 1 39 60
M  V30 65 1 43 61
M  V30 66 1 44 62
M  V30 67 1 46 63
M  V30 68 1 46 64
M  V30 69 1 46 65
M  V30 END BOND
M  V30 END CTAB
M  END
>  <Structure No>
1574

>  <LogS>
-0.667930686

>  <MMFF94 Energy>
353.71

$$$$
Compound 1575
Actelion Java MolfileCreator 2.0

  0  0  0  0  0  0              0 V3000
M  V30 BEGIN CTAB
M  V30 COUNTS 50 51 0 0 0
M  V30 BEGIN ATOM
M  V30 1 O 0.6317 1.0268 -2.2126 0
M  V30 2 C 1.0253 0.0718 -1.4902 0
M  V30 3 C 2.2978 0.2078 -0.7486 0
M  V30 4 C 0.1646 -1.1688 -1.3847 0
M  V30 5 C 2.6432 1.4445 -0.1782 0
M  V30 6 C 3.1826 -0.8748 -0.6225 0
M  V30 7 N -1.1615 -0.872 -0.7689 0 CHG=1 CFG=1
M  V30 8 C 3.8484 1.6001 0.526 0
M  V30 9 C 4.3923 -0.7219 0.0582 0
M  V30 10 C -2.2101 -1.9161 -1.0942 0
M  V30 11 C -0.9804 -0.6211 0.7003 0
M  V30 12 C 4.736 0.5114 0.6268 0
M  V30 13 C 4.1938 2.9479 1.1053 0
M  V30 14 C -1.7518 -3.3582 -0.746 0
M  V30 15 C -3.5335 -1.6334 -0.3332 0
M  V30 16 C -2.5701 -1.8777 -2.6087 0
M  V30 17 C -1.7534 0.5853 1.1971 0
M  V30 18 O 5.9568 0.6564 1.2836 0
M  V30 19 O 4.6554 3.8039 0.0974 0
M  V30 20 C -1.4573 1.8699 0.7051 0
M  V30 21 C -2.7208 0.4501 2.2097 0
M  V30 22 C -2.1489 2.9884 1.1825 0
M  V30 23 C -3.4098 1.571 2.6837 0
M  V30 24 C -3.1275 2.8382 2.1672 0
M  V30 25 H 0.6837 -1.9542 -0.7968 0
M  V30 26 H 0.0684 -1.5588 -2.4126 0
M  V30 27 H 1.9685 2.2877 -0.2729 0
M  V30 28 H 2.9581 -1.8309 -1.0764 0
M  V30 29 H -1.5005 0.0147 -1.2108 0
M  V30 30 H 5.0696 -1.5634 0.1335 0
M  V30 31 H -1.2285 -1.517 1.3046 0
M  V30 32 H 0.0832 -0.4203 0.9592 0
M  V30 33 H 4.9494 2.8645 1.9167 0
M  V30 34 H 3.2868 3.3972 1.5608 0
M  V30 35 H -2.55 -4.0879 -1.0013 0
M  V30 36 H -0.844 -3.6521 -1.3147 0
M  V30 37 H -1.5355 -3.4735 0.3355 0
M  V30 38 H -3.841 -0.5741 -0.4643 0
M  V30 39 H -4.3593 -2.2785 -0.7038 0
M  V30 40 H -3.4365 -1.8563 0.7471 0
M  V30 41 H -3.459 -2.5089 -2.8236 0
M  V30 42 H -1.7607 -2.2774 -3.2507 0
M  V30 43 H -2.8051 -0.8412 -2.9334 0
M  V30 44 H 6.617 -0.1082 1.3561 0
M  V30 45 H 5.5601 3.4828 -0.1526 0
M  V30 46 H -0.6889 2.0071 -0.0443 0
M  V30 47 H -2.9385 -0.5194 2.6393 0
M  V30 48 H -1.92 3.9724 0.793 0
M  V30 49 H -4.1577 1.4573 3.4572 0
M  V30 50 H -3.6606 3.7045 2.5367 0
M  V30 END ATOM
M  V30 BEGIN BOND
M  V30 1 2 1 2
M  V30 2 1 2 3
M  V30 3 1 2 4
M  V30 4 2 3 5
M  V30 5 1 3 6
M  V30 6 1 4 7
M  V30 7 1 5 8
M  V30 8 2 6 9
M  V30 9 1 7 10
M  V30 10 1 7 11
M  V30 11 2 8 12
M  V30 12 1 8 13
M  V30 13 1 10 14
M  V30 14 1 10 15
M  V30 15 1 10 16
M  V30 16 1 11 17
M  V30 17 1 12 18
M  V30 18 1 13 19
M  V30 19 2 17 20
M  V30 20 1 17 21
M  V30 21 1 20 22
M  V30 22 2 21 23
M  V30 23 2 22 24
M  V30 24 1 9 12
M  V30 25 1 23 24
M  V30 26 1 4 25
M  V30 27 1 4 26
M  V30 28 1 5 27
M  V30 29 1 6 28
M  V30 30 1 7 29
M  V30 31 1 9 30
M  V30 32 1 11 31
M  V30 33 1 11 32
M  V30 34 1 13 33
M  V30 35 1 13 34
M  V30 36 1 14 35
M  V30 37 1 14 36
M  V30 38 1 14 37
M  V30 39 1 15 38
M  V30 40 1 15 39
M  V30 41 1 15 40
M  V30 42 1 16 41
M  V30 43 1 16 42
M  V30 44 1 16 43
M  V30 45 1 18 44
M  V30 46 1 19 45
M  V30 47 1 20 46
M  V30 48 1 21 47
M  V30 49 1 22 48
M  V30 50 1 23 49
M  V30 51 1 24 50
M  V30 END BOND
M  V30 BEGIN COLLECTION
M  V30 MDLV30/STEABS ATOMS=(1 7)
M  V30 END COLLECTION
M  V30 END CTAB
M  END
>  <Structure No>
1575

>  <LogS>
-1.348776549

>  <MMFF94 Energy>
77.236

$$$$
Compound 1576
Actelion Java MolfileCreator 2.0

  0  0  0  0  0  0              0 V3000
M  V30 BEGIN CTAB
M  V30 COUNTS 47 49 0 0 0
M  V30 BEGIN ATOM
M  V30 1 N -1.7436 0.4753 -0.8715 0 CHG=1
M  V30 2 C -3.1278 0.7849 -1.0167 0
M  V30 3 C -1.6452 -0.5168 -0.0198 0
M  V30 4 C -0.6395 1.1562 -1.556 0
M  V30 5 C -3.8954 -0.0505 -0.2453 0
M  V30 6 C -3.7165 1.7867 -1.8009 0
M  V30 7 C -0.3766 -1.1368 0.4395 0
M  V30 8 C -2.9981 -0.9996 0.4848 0
M  V30 9 C -5.2886 0.0575 -0.2133 0
M  V30 10 C -5.1156 1.9126 -1.7847 0
M  V30 11 N 0.7811 -0.6222 0.1556 0
M  V30 12 C -3.1275 -0.8181 2.0051 0
M  V30 13 C -3.2723 -2.45 0.0576 0
M  V30 14 C -5.8992 1.0508 -0.994 0
M  V30 15 N 2.0208 -1.1556 0.5689 0
M  V30 16 C 3.1885 -0.316 0.4666 0
M  V30 17 C 2.127 -2.52 1.1034 0
M  V30 18 C 4.2304 -0.4034 1.4085 0
M  V30 19 C 3.2895 0.626 -0.5716 0
M  V30 20 C 5.3507 0.4263 1.3068 0
M  V30 21 C 4.41 1.4553 -0.6722 0
M  V30 22 C 5.4411 1.3702 0.2739 0
M  V30 23 C 6.6606 2.2334 0.1391 0
M  V30 24 H -1.0076 1.8768 -2.3094 0
M  V30 25 H -0.0251 1.714 -0.8182 0
M  V30 26 H -0.0127 0.4154 -2.095 0
M  V30 27 H -3.13 2.4593 -2.4083 0
M  V30 28 H -0.4454 -2.0099 1.0732 0
M  V30 29 H -5.8843 -0.6064 0.3991 0
M  V30 30 H -5.5943 2.6778 -2.382 0
M  V30 31 H -2.9193 0.2352 2.2921 0
M  V30 32 H -2.4101 -1.4767 2.5391 0
M  V30 33 H -4.154 -1.0788 2.3399 0
M  V30 34 H -2.5646 -3.1453 0.557 0
M  V30 35 H -4.3059 -2.7466 0.3373 0
M  V30 36 H -3.1591 -2.5617 -1.0428 0
M  V30 37 H -6.9767 1.1557 -0.9865 0
M  V30 38 H 1.4751 -3.2097 0.5273 0
M  V30 39 H 3.1641 -2.9057 1.0054 0
M  V30 40 H 1.8298 -2.5277 2.1731 0
M  V30 41 H 4.1733 -1.1022 2.2325 0
M  V30 42 H 2.5082 0.7081 -1.316 0
M  V30 43 H 6.1449 0.3362 2.0377 0
M  V30 44 H 4.4747 2.1617 -1.4912 0
M  V30 45 H 7.3815 1.7483 -0.5506 0
M  V30 46 H 7.1489 2.3847 1.1252 0
M  V30 47 H 6.3873 3.2314 -0.265 0
M  V30 END ATOM
M  V30 BEGIN BOND
M  V30 1 1 1 2
M  V30 2 2 1 3
M  V30 3 1 1 4
M  V30 4 2 2 5
M  V30 5 1 2 6
M  V30 6 1 3 7
M  V30 7 1 3 8
M  V30 8 1 5 9
M  V30 9 2 6 10
M  V30 10 2 7 11
M  V30 11 1 8 12
M  V30 12 1 8 13
M  V30 13 2 9 14
M  V30 14 1 11 15
M  V30 15 1 15 16
M  V30 16 1 15 17
M  V30 17 2 16 18
M  V30 18 1 16 19
M  V30 19 1 18 20
M  V30 20 2 19 21
M  V30 21 2 20 22
M  V30 22 1 22 23
M  V30 23 1 5 8
M  V30 24 1 10 14
M  V30 25 1 21 22
M  V30 26 1 4 24
M  V30 27 1 4 25
M  V30 28 1 4 26
M  V30 29 1 6 27
M  V30 30 1 7 28
M  V30 31 1 9 29
M  V30 32 1 10 30
M  V30 33 1 12 31
M  V30 34 1 12 32
M  V30 35 1 12 33
M  V30 36 1 13 34
M  V30 37 1 13 35
M  V30 38 1 13 36
M  V30 39 1 14 37
M  V30 40 1 17 38
M  V30 41 1 17 39
M  V30 42 1 17 40
M  V30 43 1 18 41
M  V30 44 1 19 42
M  V30 45 1 20 43
M  V30 46 1 21 44
M  V30 47 1 23 45
M  V30 48 1 23 46
M  V30 49 1 23 47
M  V30 END BOND
M  V30 END CTAB
M  END
>  <Structure No>
1576

>  <LogS>
-1.329218805

>  <MMFF94 Energy>
90.933

$$$$
Compound 1577
Actelion Java MolfileCreator 2.0

  0  0  0  0  0  0              0 V3000
M  V30 BEGIN CTAB
M  V30 COUNTS 19 19 0 0 0
M  V30 BEGIN ATOM
M  V30 1 O 3.3936 -0.3941 0.2364 0
M  V30 2 N 2.4228 0.5137 -0.1405 0
M  V30 3 C 1.1421 0.2778 -0.1954 0
M  V30 4 C 0.2661 1.3258 -0.8321 0
M  V30 5 C 0.5506 -1.0839 0.1132 0
M  V30 6 C -1.1322 1.3591 -0.21 0
M  V30 7 C -0.8787 -0.9788 0.6644 0
M  V30 8 C -1.7493 -0.0404 -0.1741 0
M  V30 9 H 3.2061 -1.3755 0.3892 0
M  V30 10 H 0.1815 1.1049 -1.9181 0
M  V30 11 H 0.7295 2.3309 -0.7231 0
M  V30 12 H 1.1413 -1.6178 0.8837 0
M  V30 13 H 0.5486 -1.6921 -0.8165 0
M  V30 14 H -1.0725 1.7701 0.822 0
M  V30 15 H -1.783 2.0326 -0.8084 0
M  V30 16 H -1.3397 -1.9899 0.6798 0
M  V30 17 H -0.8438 -0.608 1.713 0
M  V30 18 H -2.7639 0.018 0.2759 0
M  V30 19 H -1.8513 -0.4389 -1.2076 0
M  V30 END ATOM
M  V30 BEGIN BOND
M  V30 1 1 1 2
M  V30 2 2 2 3
M  V30 3 1 3 4
M  V30 4 1 3 5
M  V30 5 1 4 6
M  V30 6 1 5 7
M  V30 7 1 6 8
M  V30 8 1 7 8
M  V30 9 1 1 9
M  V30 10 1 4 10
M  V30 11 1 4 11
M  V30 12 1 5 12
M  V30 13 1 5 13
M  V30 14 1 6 14
M  V30 15 1 6 15
M  V30 16 1 7 16
M  V30 17 1 7 17
M  V30 18 1 8 18
M  V30 19 1 8 19
M  V30 END BOND
M  V30 END CTAB
M  END
>  <Structure No>
1577

>  <LogS>
-0.849572956

>  <MMFF94 Energy>
19.432

$$$$
Compound 1578
Actelion Java MolfileCreator 2.0

  0  0  0  0  0  0              0 V3000
M  V30 BEGIN CTAB
M  V30 COUNTS 105 112 0 0 0
M  V30 BEGIN ATOM
M  V30 1 Cl -9.9815 -5.5462 -0.7786 0
M  V30 2 C -10.3467 -3.837 -0.7088 0
M  V30 3 N -9.5008 -2.9907 -0.0718 0
M  V30 4 N -11.4743 -3.3579 -1.2905 0
M  V30 5 C -9.7843 -1.6635 1.0E-4 0
M  V30 6 C -11.7556 -2.0303 -1.2441 0
M  V30 7 N -10.9107 -1.188 -0.5909 0
M  V30 8 N -8.8831 -0.7529 0.6467 0
M  V30 9 N -12.9651 -1.5424 -1.8427 0
M  V30 10 C -7.7456 -1.1694 1.4203 0
M  V30 11 C -13.2391 -0.1531 -2.0945 0
M  V30 12 C -6.5478 -0.4462 1.3318 0
M  V30 13 C -7.8232 -2.2642 2.2949 0
M  V30 14 C -14.5598 0.3149 -2.0076 0
M  V30 15 C -12.2231 0.7345 -2.4918 0
M  V30 16 C -5.4127 -0.8462 2.0617 0
M  V30 17 C -6.7065 -2.658 3.0341 0
M  V30 18 C -14.8584 1.659 -2.2743 0
M  V30 19 C -12.5217 2.0722 -2.7667 0
M  V30 20 N -4.1658 -0.1525 1.9251 0
M  V30 21 C -5.4961 -1.96 2.9193 0
M  V30 22 S -16.5155 2.2392 -2.1617 0
M  V30 23 C -13.8348 2.5354 -2.6541 0
M  V30 24 N -4.0559 0.9368 1.2767 0
M  V30 25 S -4.0882 -2.4839 3.8482 0
M  V30 26 O -16.525 3.6582 -1.668 0
M  V30 27 O -17.2931 1.387 -1.1991 0
M  V30 28 O -17.2348 2.1684 -3.6764 0 CHG=-1
M  V30 29 C -2.7932 1.6026 1.123 0
M  V30 30 O -4.4551 -3.6144 4.7664 0
M  V30 31 O -3.5726 -1.3376 4.6708 0
M  V30 32 O -2.8925 -3.0047 2.7916 0 CHG=-1
M  V30 33 C -1.5942 0.8723 0.929 0
M  V30 34 C -2.7577 3.0047 1.1958 0
M  V30 35 N -1.6605 -0.5511 0.769 0
M  V30 36 C -0.3517 1.5601 0.8472 0
M  V30 37 S -4.2487 3.927 1.422 0
M  V30 38 C -1.5322 3.6721 1.1426 0
M  V30 39 C 0.9459 0.8719 0.5833 0
M  V30 40 C -0.3355 2.9658 0.9809 0
M  V30 41 O -5.1958 3.6277 0.2944 0
M  V30 42 O -3.9622 5.4023 1.4393 0
M  V30 43 O -4.9562 3.4919 2.8812 0 CHG=-1
M  V30 44 O 1.028 -0.3833 0.6153 0
M  V30 45 C 2.167 1.6913 0.3594 0
M  V30 46 C 0.9387 3.7212 0.9568 0
M  V30 47 N 3.2892 1.1962 -0.0878 0
M  V30 48 C 2.1124 3.1329 0.6899 0
M  V30 49 N 3.4598 -0.1078 -0.5863 0
M  V30 50 S 3.5964 4.0937 0.6764 0
M  V30 51 C 4.7555 -0.7337 -0.5636 0
M  V30 52 O 4.631 3.429 1.5393 0
M  V30 53 O 3.3403 5.4771 1.2077 0
M  V30 54 O 4.1668 4.208 -0.8988 0 CHG=-1
M  V30 55 C 5.0677 -1.8165 -1.4215 0
M  V30 56 C 5.7186 -0.2946 0.3633 0
M  V30 57 S 3.9176 -2.4149 -2.6264 0
M  V30 58 C 6.3246 -2.4325 -1.323 0
M  V30 59 C 6.976 -0.9066 0.4496 0
M  V30 60 O 4.5569 -3.4718 -3.4833 0
M  V30 61 O 3.4754 -1.2822 -3.5096 0
M  V30 62 O 2.5866 -3.0833 -1.8491 0 CHG=-1
M  V30 63 C 7.2648 -1.991 -0.392 0
M  V30 64 N 7.9012 -0.4726 1.4623 0
M  V30 65 C 9.3275 -0.5869 1.3699 0
M  V30 66 N 10.077 -0.525 2.4996 0
M  V30 67 N 9.9415 -0.7064 0.1631 0
M  V30 68 C 11.4272 -0.6199 2.4292 0
M  V30 69 C 11.2946 -0.7873 0.0848 0
M  V30 70 Cl 12.3858 -0.5633 3.8919 0
M  V30 71 N 12.0335 -0.7606 1.2259 0
M  V30 72 N 11.9224 -0.9542 -1.1946 0
M  V30 73 C 13.3409 -0.881 -1.4188 0
M  V30 74 C 14.1509 0.0272 -0.7117 0
M  V30 75 C 13.9236 -1.6955 -2.401 0
M  V30 76 C 15.533 0.0768 -0.9451 0
M  V30 77 C 15.2985 -1.639 -2.6411 0
M  V30 78 S 16.5619 1.1801 -0.035 0
M  V30 79 C 16.1031 -0.7628 -1.9093 0
M  V30 80 O 15.7307 2.0754 0.8404 0
M  V30 81 O 17.3548 2.0294 -0.9878 0
M  V30 82 O 17.6085 0.2889 0.9301 0 CHG=-1
M  V30 83 H -8.9999 0.2671 0.4486 0
M  V30 84 H -13.7188 -2.2383 -2.0465 0
M  V30 85 H -6.4954 0.4089 0.6688 0
M  V30 86 H -8.7527 -2.8049 2.418 0
M  V30 87 H -15.3518 -0.3681 -1.7241 0
M  V30 88 H -11.2058 0.3896 -2.6224 0
M  V30 89 H -6.7923 -3.5101 3.6959 0
M  V30 90 H -11.7364 2.7502 -3.0732 0
M  V30 91 H -14.0552 3.5722 -2.8752 0
M  V30 92 H -1.072 -1.1805 1.3583 0
M  V30 93 H -2.4296 -0.9891 0.2129 0
M  V30 94 H -1.5061 4.7526 1.2268 0
M  V30 95 H 0.9083 4.7869 1.1531 0
M  V30 96 H 2.6712 -0.5612 -1.0964 0
M  V30 97 H 5.4856 0.5183 1.0386 0
M  V30 98 H 6.5772 -3.273 -1.9572 0
M  V30 99 H 8.2019 -2.524 -0.3109 0
M  V30 100 H 7.5121 -0.0323 2.3264 0
M  V30 101 H 11.3141 -1.2405 -1.9949 0
M  V30 102 H 13.7067 0.7082 0.0016 0
M  V30 103 H 13.3122 -2.3798 -2.9746 0
M  V30 104 H 15.7414 -2.2756 -3.3952 0
M  V30 105 H 17.1685 -0.7307 -2.0996 0
M  V30 END ATOM
M  V30 BEGIN BOND
M  V30 1 1 1 2
M  V30 2 2 2 3
M  V30 3 1 2 4
M  V30 4 1 3 5
M  V30 5 2 4 6
M  V30 6 2 5 7
M  V30 7 1 5 8
M  V30 8 1 6 9
M  V30 9 1 8 10
M  V30 10 1 9 11
M  V30 11 2 10 12
M  V30 12 1 10 13
M  V30 13 2 11 14
M  V30 14 1 11 15
M  V30 15 1 12 16
M  V30 16 2 13 17
M  V30 17 1 14 18
M  V30 18 2 15 19
M  V30 19 1 16 20
M  V30 20 2 16 21
M  V30 21 1 18 22
M  V30 22 2 18 23
M  V30 23 2 20 24
M  V30 24 1 21 25
M  V30 25 2 22 26
M  V30 26 2 22 27
M  V30 27 1 22 28
M  V30 28 1 24 29
M  V30 29 2 25 30
M  V30 30 2 25 31
M  V30 31 1 25 32
M  V30 32 2 29 33
M  V30 33 1 29 34
M  V30 34 1 33 35
M  V30 35 1 33 36
M  V30 36 1 34 37
M  V30 37 2 34 38
M  V30 38 1 36 39
M  V30 39 2 36 40
M  V30 40 2 37 41
M  V30 41 2 37 42
M  V30 42 1 37 43
M  V30 43 2 39 44
M  V30 44 1 39 45
M  V30 45 1 40 46
M  V30 46 2 45 47
M  V30 47 1 45 48
M  V30 48 1 47 49
M  V30 49 1 48 50
M  V30 50 1 49 51
M  V30 51 2 50 52
M  V30 52 2 50 53
M  V30 53 1 50 54
M  V30 54 2 51 55
M  V30 55 1 51 56
M  V30 56 1 55 57
M  V30 57 1 55 58
M  V30 58 2 56 59
M  V30 59 2 57 60
M  V30 60 2 57 61
M  V30 61 1 57 62
M  V30 62 2 58 63
M  V30 63 1 59 64
M  V30 64 1 64 65
M  V30 65 2 65 66
M  V30 66 1 65 67
M  V30 67 1 66 68
M  V30 68 2 67 69
M  V30 69 1 68 70
M  V30 70 2 68 71
M  V30 71 1 69 72
M  V30 72 1 72 73
M  V30 73 2 73 74
M  V30 74 1 73 75
M  V30 75 1 74 76
M  V30 76 2 75 77
M  V30 77 1 76 78
M  V30 78 2 76 79
M  V30 79 2 78 80
M  V30 80 2 78 81
M  V30 81 1 78 82
M  V30 82 1 6 7
M  V30 83 1 17 21
M  V30 84 1 19 23
M  V30 85 1 38 40
M  V30 86 2 46 48
M  V30 87 1 59 63
M  V30 88 1 69 71
M  V30 89 1 77 79
M  V30 90 1 8 83
M  V30 91 1 9 84
M  V30 92 1 12 85
M  V30 93 1 13 86
M  V30 94 1 14 87
M  V30 95 1 15 88
M  V30 96 1 17 89
M  V30 97 1 19 90
M  V30 98 1 23 91
M  V30 99 1 35 92
M  V30 100 1 35 93
M  V30 101 1 38 94
M  V30 102 1 46 95
M  V30 103 1 49 96
M  V30 104 1 56 97
M  V30 105 1 58 98
M  V30 106 1 63 99
M  V30 107 1 64 100
M  V30 108 1 72 101
M  V30 109 1 74 102
M  V30 110 1 75 103
M  V30 111 1 77 104
M  V30 112 1 79 105
M  V30 END BOND
M  V30 END CTAB
M  END
>  <Structure No>
1578

>  <LogS>
-0.957205517

>  <MMFF94 Energy>
210.81

$$$$
Compound 1579
Actelion Java MolfileCreator 2.0

  0  0  0  0  0  0              0 V3000
M  V30 BEGIN CTAB
M  V30 COUNTS 17 17 0 0 0
M  V30 BEGIN ATOM
M  V30 1 O 3.0128 0.4752 -1.0299 0
M  V30 2 C 2.1145 0.4607 -0.1476 0
M  V30 3 O 2.4296 0.8297 1.1552 0 CHG=-1
M  V30 4 C 0.7113 0.0465 -0.5066 0 CFG=2
M  V30 5 N -0.2601 1.1087 -0.2346 0 CHG=1
M  V30 6 C 0.2506 -1.1707 0.2801 0
M  V30 7 C -1.544 0.4352 -0.0175 0
M  V30 8 C -1.2575 -1.0206 0.3464 0
M  V30 9 H 0.6751 -0.2073 -1.5928 0
M  V30 10 H -0.3214 1.7683 -1.0457 0
M  V30 11 H -0.0047 1.6412 0.6312 0
M  V30 12 H 0.5455 -2.1162 -0.2254 0
M  V30 13 H 0.6646 -1.1604 1.3132 0
M  V30 14 H -2.1581 0.4751 -0.9457 0
M  V30 15 H -2.1155 0.9352 0.7966 0
M  V30 16 H -1.6325 -1.2587 1.366 0
M  V30 17 H -1.7434 -1.7013 -0.387 0
M  V30 END ATOM
M  V30 BEGIN BOND
M  V30 1 2 1 2
M  V30 2 1 2 3
M  V30 3 1 2 4
M  V30 4 1 4 5
M  V30 5 1 4 6
M  V30 6 1 5 7
M  V30 7 1 6 8
M  V30 8 1 7 8
M  V30 9 1 4 9
M  V30 10 1 5 10
M  V30 11 1 5 11
M  V30 12 1 6 12
M  V30 13 1 6 13
M  V30 14 1 7 14
M  V30 15 1 7 15
M  V30 16 1 8 16
M  V30 17 1 8 17
M  V30 END BOND
M  V30 BEGIN COLLECTION
M  V30 MDLV30/STEABS ATOMS=(1 4)
M  V30 END COLLECTION
M  V30 END CTAB
M  END
>  <Structure No>
1579

>  <LogS>
1.129135649

>  <MMFF94 Energy>
0.6393

$$$$
Compound 1580
Actelion Java MolfileCreator 2.0

  0  0  0  0  0  0              0 V3000
M  V30 BEGIN CTAB
M  V30 COUNTS 35 34 0 0 0
M  V30 BEGIN ATOM
M  V30 1 O -4.3052 -1.6229 1.217 0
M  V30 2 C -3.3507 -1.4777 0.4088 0
M  V30 3 O -2.4952 -2.5434 0.1603 0 CHG=-1
M  V30 4 C -3.1344 -0.1553 -0.2778 0
M  V30 5 N -2.1178 0.6956 0.3877 0
M  V30 6 C -2.5372 1.1372 1.7373 0
M  V30 7 C -0.7798 0.0639 0.4034 0
M  V30 8 C -3.6192 2.1667 1.6422 0
M  V30 9 C 0.314 1.1304 0.2472 0
M  V30 10 O -3.3603 3.3164 1.199 0
M  V30 11 O -4.9182 1.8503 2.0199 0 CHG=-1
M  V30 12 C 1.7195 0.5168 0.2916 0
M  V30 13 N 1.9215 -0.4185 -0.8408 0
M  V30 14 C 2.7276 -1.5982 -0.4657 0
M  V30 15 C 2.4284 0.251 -2.0616 0
M  V30 16 C 1.8915 -2.5681 0.3094 0
M  V30 17 C 3.8519 0.7262 -1.9373 0
M  V30 18 O 0.9466 -3.1796 -0.2547 0
M  V30 19 O 2.1412 -2.7824 1.6591 0 CHG=-1
M  V30 20 O 4.0974 1.9241 -1.6367 0
M  V30 21 O 4.9037 -0.155 -2.1537 0 CHG=-1
M  V30 22 H -4.1009 0.3893 -0.3437 0
M  V30 23 H -2.8276 -0.3435 -1.3294 0
M  V30 24 H -2.8764 0.2811 2.3589 0
M  V30 25 H -1.6879 1.6036 2.2807 0
M  V30 26 H -0.6236 -0.5163 1.3416 0
M  V30 27 H -0.6723 -0.6473 -0.4457 0
M  V30 28 H 0.2364 1.8744 1.0674 0
M  V30 29 H 0.1653 1.6743 -0.7095 0
M  V30 30 H 2.4733 1.3323 0.2889 0
M  V30 31 H 1.8311 0.0 1.2712 0
M  V30 32 H 3.0941 -2.1297 -1.3719 0
M  V30 33 H 3.617 -1.2969 0.1321 0
M  V30 34 H 2.3605 -0.4519 -2.9195 0
M  V30 35 H 1.7748 1.1105 -2.3235 0
M  V30 END ATOM
M  V30 BEGIN BOND
M  V30 1 2 1 2
M  V30 2 1 2 3
M  V30 3 1 2 4
M  V30 4 1 4 5
M  V30 5 1 5 6
M  V30 6 1 5 7
M  V30 7 1 6 8
M  V30 8 1 7 9
M  V30 9 2 8 10
M  V30 10 1 8 11
M  V30 11 1 9 12
M  V30 12 1 12 13
M  V30 13 1 13 14
M  V30 14 1 13 15
M  V30 15 1 14 16
M  V30 16 1 15 17
M  V30 17 2 16 18
M  V30 18 1 16 19
M  V30 19 2 17 20
M  V30 20 1 17 21
M  V30 21 1 4 22
M  V30 22 1 4 23
M  V30 23 1 6 24
M  V30 24 1 6 25
M  V30 25 1 7 26
M  V30 26 1 7 27
M  V30 27 1 9 28
M  V30 28 1 9 29
M  V30 29 1 12 30
M  V30 30 1 12 31
M  V30 31 1 14 32
M  V30 32 1 14 33
M  V30 33 1 15 34
M  V30 34 1 15 35
M  V30 END BOND
M  V30 END CTAB
M  END
>  <Structure No>
1580

>  <LogS>
0.105005622

>  <MMFF94 Energy>
566.6

$$$$
Compound 1581
Actelion Java MolfileCreator 2.0

  0  0  0  0  0  0              0 V3000
M  V30 BEGIN CTAB
M  V30 COUNTS 82 87 0 0 0
M  V30 BEGIN ATOM
M  V30 1 S -2.062 1.4843 1.4018 0
M  V30 2 O -1.0112 2.5192 1.1219 0
M  V30 3 O -1.5801 0.5453 2.4725 0
M  V30 4 O -3.4325 2.2863 1.9633 0 CHG=-1
M  V30 5 C -2.4651 0.5682 -0.0658 0
M  V30 6 C -1.5334 0.2675 -1.1008 0
M  V30 7 C -3.8063 0.1616 -0.2079 0
M  V30 8 C -2.0026 -0.3637 -2.2657 0
M  V30 9 C -0.0845 0.5997 -1.0823 0
M  V30 10 C -4.2634 -0.4857 -1.3756 0
M  V30 11 C -3.3398 -0.7321 -2.3971 0
M  V30 12 C 0.7102 0.4399 -0.0188 0
M  V30 13 N -5.6359 -0.9047 -1.588 0
M  V30 14 C 2.1906 0.5882 -0.0697 0
M  V30 15 C -6.8064 -0.6252 -0.794 0
M  V30 16 C 2.894 1.5878 -0.804 0
M  V30 17 C 2.9324 -0.3321 0.6927 0
M  V30 18 N -6.7207 -0.1316 0.4676 0
M  V30 19 N -8.0319 -0.8968 -1.3136 0
M  V30 20 S 2.1179 2.9667 -1.6084 0
M  V30 21 C 4.298 1.5472 -0.8396 0
M  V30 22 C 4.3282 -0.3217 0.6861 0
M  V30 23 C -7.8385 0.0874 1.2036 0
M  V30 24 C -9.1611 -0.668 -0.593 0
M  V30 25 O 1.7989 2.6097 -3.0336 0
M  V30 26 O 3.0508 4.1454 -1.5986 0
M  V30 27 O 0.7183 3.4258 -0.8057 0 CHG=-1
M  V30 28 C 5.0235 0.5896 -0.1198 0
M  V30 29 O -7.7159 0.6001 2.4971 0
M  V30 30 N -9.0581 -0.1913 0.6746 0
M  V30 31 N -10.44 -0.9789 -1.1659 0
M  V30 32 N 6.4622 0.6393 -0.1501 0
M  V30 33 C -8.8318 0.7798 3.3628 0
M  V30 34 C -11.7059 -0.6645 -0.5562 0
M  V30 35 C 7.3454 -0.4764 0.0307 0
M  V30 36 C -12.7929 -1.5344 -0.7458 0
M  V30 37 C -11.8987 0.5182 0.184 0
M  V30 38 N 6.8756 -1.7507 0.0868 0
M  V30 39 N 8.6813 -0.2547 0.111 0
M  V30 40 C -14.0363 -1.2515 -0.1699 0
M  V30 41 C -13.1406 0.7924 0.7642 0
M  V30 42 C 7.7303 -2.791 0.2608 0
M  V30 43 C 9.5461 -1.2878 0.2898 0
M  V30 44 C -14.2067 -0.0944 0.5934 0
M  V30 45 O 7.2226 -4.0911 0.3317 0
M  V30 46 N 9.0657 -2.5563 0.362 0
M  V30 47 N 10.9632 -1.0645 0.3498 0
M  V30 48 C 8.0501 -5.2323 0.5393 0
M  V30 49 C 11.5871 0.2332 0.3369 0
M  V30 50 C 12.8112 0.3982 -0.3318 0
M  V30 51 C 11.029 1.3303 1.0255 0
M  V30 52 C 13.4424 1.6454 -0.3561 0
M  V30 53 C 11.6641 2.5773 0.998 0
M  V30 54 C 12.8659 2.7375 0.3007 0
M  V30 55 H -4.4724 0.3744 0.6094 0
M  V30 56 H -1.3236 -0.59 -3.0829 0
M  V30 57 H 0.3728 0.8136 -2.0374 0
M  V30 58 H -3.6548 -1.2204 -3.3112 0
M  V30 59 H 0.288 0.0045 0.8768 0
M  V30 60 H -5.8338 -1.4083 -2.4834 0
M  V30 61 H 2.424 -1.0772 1.2949 0
M  V30 62 H 4.8425 2.284 -1.4188 0
M  V30 63 H 4.8525 -1.0143 1.3296 0
M  V30 64 H -10.4452 -1.5654 -2.0323 0
M  V30 65 H 6.9106 1.555 -0.3833 0
M  V30 66 H -8.4828 1.2273 4.3147 0
M  V30 67 H -9.5743 1.4597 2.892 0
M  V30 68 H -9.3028 -0.2049 3.5844 0
M  V30 69 H -12.6712 -2.4432 -1.3245 0
M  V30 70 H -11.1019 1.2398 0.2983 0
M  V30 71 H -14.8638 -1.936 -0.3066 0
M  V30 72 H -13.2785 1.6967 1.3415 0
M  V30 73 H -15.165 0.1211 1.048 0
M  V30 74 H 11.5832 -1.9044 0.2804 0
M  V30 75 H 7.4151 -6.1414 0.561 0
M  V30 76 H 8.7841 -5.3256 -0.2891 0
M  V30 77 H 8.5889 -5.138 1.5073 0
M  V30 78 H 13.2659 -0.4398 -0.8521 0
M  V30 79 H 10.1195 1.223 1.602 0
M  V30 80 H 14.3794 1.7678 -0.8839 0
M  V30 81 H 11.2276 3.4179 1.5229 0
M  V30 82 H 13.3552 3.7043 0.2767 0
M  V30 END ATOM
M  V30 BEGIN BOND
M  V30 1 2 1 2
M  V30 2 2 1 3
M  V30 3 1 1 4
M  V30 4 1 1 5
M  V30 5 2 5 6
M  V30 6 1 5 7
M  V30 7 1 6 8
M  V30 8 1 6 9
M  V30 9 2 7 10
M  V30 10 2 8 11
M  V30 11 2 9 12
M  V30 12 1 10 13
M  V30 13 1 12 14
M  V30 14 1 13 15
M  V30 15 2 14 16
M  V30 16 1 14 17
M  V30 17 2 15 18
M  V30 18 1 15 19
M  V30 19 1 16 20
M  V30 20 1 16 21
M  V30 21 2 17 22
M  V30 22 1 18 23
M  V30 23 2 19 24
M  V30 24 2 20 25
M  V30 25 2 20 26
M  V30 26 1 20 27
M  V30 27 2 21 28
M  V30 28 1 23 29
M  V30 29 2 23 30
M  V30 30 1 24 31
M  V30 31 1 28 32
M  V30 32 1 29 33
M  V30 33 1 31 34
M  V30 34 1 32 35
M  V30 35 2 34 36
M  V30 36 1 34 37
M  V30 37 2 35 38
M  V30 38 1 35 39
M  V30 39 1 36 40
M  V30 40 2 37 41
M  V30 41 1 38 42
M  V30 42 2 39 43
M  V30 43 2 40 44
M  V30 44 1 42 45
M  V30 45 2 42 46
M  V30 46 1 43 47
M  V30 47 1 45 48
M  V30 48 1 47 49
M  V30 49 2 49 50
M  V30 50 1 49 51
M  V30 51 1 50 52
M  V30 52 2 51 53
M  V30 53 2 52 54
M  V30 54 1 10 11
M  V30 55 1 22 28
M  V30 56 1 24 30
M  V30 57 1 41 44
M  V30 58 1 43 46
M  V30 59 1 53 54
M  V30 60 1 7 55
M  V30 61 1 8 56
M  V30 62 1 9 57
M  V30 63 1 11 58
M  V30 64 1 12 59
M  V30 65 1 13 60
M  V30 66 1 17 61
M  V30 67 1 21 62
M  V30 68 1 22 63
M  V30 69 1 31 64
M  V30 70 1 32 65
M  V30 71 1 33 66
M  V30 72 1 33 67
M  V30 73 1 33 68
M  V30 74 1 36 69
M  V30 75 1 37 70
M  V30 76 1 40 71
M  V30 77 1 41 72
M  V30 78 1 44 73
M  V30 79 1 47 74
M  V30 80 1 48 75
M  V30 81 1 48 76
M  V30 82 1 48 77
M  V30 83 1 50 78
M  V30 84 1 51 79
M  V30 85 1 52 80
M  V30 86 1 53 81
M  V30 87 1 54 82
M  V30 END BOND
M  V30 END CTAB
M  END
>  <Structure No>
1581

>  <LogS>
-1.761510148

>  <MMFF94 Energy>
-269.88

$$$$
Compound 1582
Actelion Java MolfileCreator 2.0

  0  0  0  0  0  0              0 V3000
M  V30 BEGIN CTAB
M  V30 COUNTS 56 59 0 0 0
M  V30 BEGIN ATOM
M  V30 1 Cl -3.7729 -2.4302 0.0837 0
M  V30 2 C -2.228 -1.6599 -0.2577 0
M  V30 3 C -2.0022 -0.8945 -1.4231 0
M  V30 4 C -1.2017 -1.8161 0.6805 0
M  V30 5 S -3.2697 -0.6197 -2.6263 0
M  V30 6 C -0.7506 -0.2869 -1.6115 0
M  V30 7 C 0.0415 -1.2157 0.4782 0
M  V30 8 O -4.066 -1.8731 -2.8571 0
M  V30 9 O -2.6496 -0.2209 -3.9363 0
M  V30 10 N -4.2963 0.665 -2.0827 0
M  V30 11 C 0.2731 -0.4441 -0.6713 0
M  V30 12 C -5.2632 0.4466 -1.0495 0
M  V30 13 N 1.5327 0.1958 -0.906 0
M  V30 14 C -5.1447 1.0972 0.1976 0
M  V30 15 C -6.3392 -0.4222 -1.279 0
M  V30 16 N 2.5026 0.103 -0.0876 0
M  V30 17 C -6.1141 0.8707 1.1894 0
M  V30 18 C -3.9891 2.0183 0.4797 0
M  V30 19 C -7.2924 -0.647 -0.2845 0
M  V30 20 C 3.768 0.7437 -0.3139 0
M  V30 21 C -7.1947 0.0093 0.9493 0
M  V30 22 C 4.9668 0.0904 0.0886 0
M  V30 23 C 3.8427 2.0076 -0.9569 0
M  V30 24 C -8.1984 -0.2625 2.0305 0
M  V30 25 C 4.9673 -1.1452 0.7885 0
M  V30 26 C 6.2186 0.6827 -0.2322 0
M  V30 27 N 2.6698 2.7847 -1.2356 0
M  V30 28 C 5.0907 2.554 -1.2732 0
M  V30 29 O 3.7858 -1.7837 1.1509 0 CHG=-1
M  V30 30 C 6.1739 -1.756 1.143 0
M  V30 31 C 7.4169 0.0512 0.1338 0
M  V30 32 C 6.265 1.899 -0.9214 0
M  V30 33 C 7.397 -1.1684 0.8137 0
M  V30 34 S 8.9068 -1.9457 1.2792 0
M  V30 35 O 9.9743 -1.633 0.2686 0
M  V30 36 O 8.7186 -3.4356 1.3369 0
M  V30 37 O 9.3822 -1.3831 2.7884 0 CHG=-1
M  V30 38 H -1.3689 -2.4024 1.5753 0
M  V30 39 H -0.5682 0.3208 -2.4888 0
M  V30 40 H 0.8169 -1.3503 1.2213 0
M  V30 41 H -3.9789 1.6401 -2.2792 0
M  V30 42 H -6.4449 -0.9188 -2.2345 0
M  V30 43 H -6.027 1.3604 2.1523 0
M  V30 44 H -4.0946 2.9438 -0.1239 0
M  V30 45 H -3.9451 2.3014 1.5528 0
M  V30 46 H -3.0322 1.518 0.2205 0
M  V30 47 H -8.1104 -1.3296 -0.4793 0
M  V30 48 H -9.1873 -0.5179 1.5936 0
M  V30 49 H -8.3301 0.6316 2.6764 0
M  V30 50 H -7.848 -1.1113 2.654 0
M  V30 51 H 2.7306 3.6352 -1.8389 0
M  V30 52 H 1.7738 2.6307 -0.7245 0
M  V30 53 H 5.1541 3.5127 -1.773 0
M  V30 54 H 6.153 -2.6948 1.6825 0
M  V30 55 H 8.3687 0.5093 -0.1091 0
M  V30 56 H 7.2149 2.356 -1.1731 0
M  V30 END ATOM
M  V30 BEGIN BOND
M  V30 1 1 1 2
M  V30 2 2 2 3
M  V30 3 1 2 4
M  V30 4 1 3 5
M  V30 5 1 3 6
M  V30 6 2 4 7
M  V30 7 2 5 8
M  V30 8 2 5 9
M  V30 9 1 5 10
M  V30 10 2 6 11
M  V30 11 1 10 12
M  V30 12 1 11 13
M  V30 13 2 12 14
M  V30 14 1 12 15
M  V30 15 2 13 16
M  V30 16 1 14 17
M  V30 17 1 14 18
M  V30 18 2 15 19
M  V30 19 1 16 20
M  V30 20 2 17 21
M  V30 21 1 20 22
M  V30 22 2 20 23
M  V30 23 1 21 24
M  V30 24 2 22 25
M  V30 25 1 22 26
M  V30 26 1 23 27
M  V30 27 1 23 28
M  V30 28 1 25 29
M  V30 29 1 25 30
M  V30 30 2 26 31
M  V30 31 1 26 32
M  V30 32 2 30 33
M  V30 33 1 33 34
M  V30 34 2 34 35
M  V30 35 2 34 36
M  V30 36 1 34 37
M  V30 37 1 7 11
M  V30 38 1 19 21
M  V30 39 2 28 32
M  V30 40 1 31 33
M  V30 41 1 4 38
M  V30 42 1 6 39
M  V30 43 1 7 40
M  V30 44 1 10 41
M  V30 45 1 15 42
M  V30 46 1 17 43
M  V30 47 1 18 44
M  V30 48 1 18 45
M  V30 49 1 18 46
M  V30 50 1 19 47
M  V30 51 1 24 48
M  V30 52 1 24 49
M  V30 53 1 24 50
M  V30 54 1 27 51
M  V30 55 1 27 52
M  V30 56 1 28 53
M  V30 57 1 30 54
M  V30 58 1 31 55
M  V30 59 1 32 56
M  V30 END BOND
M  V30 END CTAB
M  END
>  <Structure No>
1582

>  <LogS>
-0.630871318

>  <MMFF94 Energy>
114.46

$$$$
Compound 1583
Actelion Java MolfileCreator 2.0

  0  0  0  0  0  0              0 V3000
M  V30 BEGIN CTAB
M  V30 COUNTS 37 39 0 0 0
M  V30 BEGIN ATOM
M  V30 1 S -6.0481 1.1578 -0.1653 0
M  V30 2 O -6.9892 -0.0137 -0.1404 0
M  V30 3 O -6.1509 1.8308 -1.5052 0
M  V30 4 O -6.4755 2.2455 1.0408 0 CHG=-1
M  V30 5 C -4.3984 0.6042 0.1033 0
M  V30 6 C -4.1526 -0.4945 0.9334 0
M  V30 7 C -3.3266 1.2726 -0.4936 0
M  V30 8 C -2.8398 -0.943 1.1638 0
M  V30 9 C -2.0178 0.8429 -0.2719 0
M  V30 10 C -1.7526 -0.2622 0.5589 0
M  V30 11 C -2.6225 -2.1375 2.0546 0
M  V30 12 N -0.3932 -0.6882 0.7769 0
M  V30 13 N 0.6795 0.0191 0.2047 0
M  V30 14 C 1.8953 -0.4297 0.0467 0
M  V30 15 C 2.2961 -1.8395 0.3091 0
M  V30 16 C 2.9476 0.4977 -0.4453 0
M  V30 17 O 1.4465 -2.75 0.4941 0
M  V30 18 C 3.7226 -2.2001 0.2772 0
M  V30 19 C 4.2906 0.0594 -0.504 0
M  V30 20 C 2.6372 1.8143 -0.8383 0
M  V30 21 C 4.6512 -1.317 -0.098 0
M  V30 22 C 5.2918 0.9355 -0.9499 0
M  V30 23 C 3.6437 2.6753 -1.2828 0
M  V30 24 C 4.9676 2.2373 -1.3379 0
M  V30 25 H -4.9878 -1.0016 1.4011 0
M  V30 26 H -3.5019 2.1304 -1.1303 0
M  V30 27 H -1.2117 1.3829 -0.7513 0
M  V30 28 H -2.06 -2.9212 1.505 0
M  V30 29 H -3.5839 -2.5828 2.3887 0
M  V30 30 H -2.0534 -1.8331 2.9582 0
M  V30 31 H -0.1971 -1.4193 1.4924 0
M  V30 32 H 4.0225 -3.2073 0.5397 0
M  V30 33 H 1.6185 2.1799 -0.8042 0
M  V30 34 H 5.6889 -1.6274 -0.1215 0
M  V30 35 H 6.324 0.611 -0.9986 0
M  V30 36 H 3.3965 3.6852 -1.5841 0
M  V30 37 H 5.7444 2.9081 -1.6818 0
M  V30 END ATOM
M  V30 BEGIN BOND
M  V30 1 2 1 2
M  V30 2 2 1 3
M  V30 3 1 1 4
M  V30 4 1 1 5
M  V30 5 2 5 6
M  V30 6 1 5 7
M  V30 7 1 6 8
M  V30 8 2 7 9
M  V30 9 2 8 10
M  V30 10 1 8 11
M  V30 11 1 10 12
M  V30 12 1 12 13
M  V30 13 2 13 14
M  V30 14 1 14 15
M  V30 15 1 14 16
M  V30 16 2 15 17
M  V30 17 1 15 18
M  V30 18 2 16 19
M  V30 19 1 16 20
M  V30 20 2 18 21
M  V30 21 1 19 22
M  V30 22 2 20 23
M  V30 23 2 22 24
M  V30 24 1 9 10
M  V30 25 1 19 21
M  V30 26 1 23 24
M  V30 27 1 6 25
M  V30 28 1 7 26
M  V30 29 1 9 27
M  V30 30 1 11 28
M  V30 31 1 11 29
M  V30 32 1 11 30
M  V30 33 1 12 31
M  V30 34 1 18 32
M  V30 35 1 20 33
M  V30 36 1 21 34
M  V30 37 1 22 35
M  V30 38 1 23 36
M  V30 39 1 24 37
M  V30 END BOND
M  V30 END CTAB
M  END
>  <Structure No>
1583

>  <LogS>
-0.43660043

>  <MMFF94 Energy>
142.31

$$$$
Compound 1584
Actelion Java MolfileCreator 2.0

  0  0  0  0  0  0              0 V3000
M  V30 BEGIN CTAB
M  V30 COUNTS 44 46 0 0 0
M  V30 BEGIN ATOM
M  V30 1 S 1.943 -2.8732 1.0978 0
M  V30 2 O 1.3943 -3.8247 2.1244 0
M  V30 3 O 2.9932 -2.0263 1.7601 0
M  V30 4 O 2.6326 -3.7583 -0.1526 0 CHG=-1
M  V30 5 C 0.6305 -1.8554 0.4746 0
M  V30 6 C 0.7863 -0.3842 0.2625 0
M  V30 7 C -0.5932 -2.4005 0.4041 0
M  V30 8 N 1.8913 0.1871 -0.1294 0
M  V30 9 C -0.4127 0.4634 0.3952 0
M  V30 10 C -1.8178 -1.5808 0.2518 0
M  V30 11 N 3.0376 -0.4855 -0.5827 0
M  V30 12 O -0.277 1.7138 0.4782 0
M  V30 13 C -1.7576 -0.1703 0.3315 0
M  V30 14 C -3.0526 -2.2251 0.0998 0
M  V30 15 C 4.3111 0.1739 -0.6325 0
M  V30 16 C -2.963 0.5774 0.2727 0
M  V30 17 C -4.2353 -1.4861 0.0277 0
M  V30 18 C 4.4806 1.4697 -0.1106 0
M  V30 19 C 5.4138 -0.4861 -1.1984 0
M  V30 20 N -2.9687 2.0053 0.4275 0
M  V30 21 C -4.1867 -0.0926 0.116 0
M  V30 22 S -5.7792 -2.3081 -0.1764 0
M  V30 23 C 5.7322 2.0919 -0.1624 0
M  V30 24 C 6.6631 0.1397 -1.2481 0
M  V30 25 C -3.6447 2.8823 -0.4845 0
M  V30 26 O -6.8812 -1.4901 0.4365 0
M  V30 27 O -5.7378 -3.6476 0.5039 0
M  V30 28 O -6.0857 -2.5206 -1.8137 0 CHG=-1
M  V30 29 C 6.8223 1.428 -0.731 0
M  V30 30 O -4.1306 2.4363 -1.5591 0
M  V30 31 C -3.7142 4.3468 -0.1977 0
M  V30 32 H -0.7085 -3.4676 0.5552 0
M  V30 33 H 2.9397 -1.4187 -1.0385 0
M  V30 34 H -3.0934 -3.3062 0.0408 0
M  V30 35 H 3.6504 2.0002 0.3376 0
M  V30 36 H 5.3048 -1.4857 -1.6002 0
M  V30 37 H -2.4894 2.421 1.2574 0
M  V30 38 H -5.1074 0.4767 0.0824 0
M  V30 39 H 5.857 3.089 0.2398 0
M  V30 40 H 7.5085 -0.3746 -1.6866 0
M  V30 41 H 7.79 1.9111 -0.7696 0
M  V30 42 H -3.929 4.5111 0.8791 0
M  V30 43 H -4.5198 4.8214 -0.7973 0
M  V30 44 H -2.743 4.8191 -0.4531 0
M  V30 END ATOM
M  V30 BEGIN BOND
M  V30 1 2 1 2
M  V30 2 2 1 3
M  V30 3 1 1 4
M  V30 4 1 1 5
M  V30 5 1 5 6
M  V30 6 2 5 7
M  V30 7 2 6 8
M  V30 8 1 6 9
M  V30 9 1 7 10
M  V30 10 1 8 11
M  V30 11 2 9 12
M  V30 12 1 9 13
M  V30 13 1 10 14
M  V30 14 1 11 15
M  V30 15 1 13 16
M  V30 16 2 14 17
M  V30 17 2 15 18
M  V30 18 1 15 19
M  V30 19 1 16 20
M  V30 20 2 16 21
M  V30 21 1 17 22
M  V30 22 1 18 23
M  V30 23 2 19 24
M  V30 24 1 20 25
M  V30 25 2 22 26
M  V30 26 2 22 27
M  V30 27 1 22 28
M  V30 28 2 23 29
M  V30 29 2 25 30
M  V30 30 1 25 31
M  V30 31 2 10 13
M  V30 32 1 17 21
M  V30 33 1 24 29
M  V30 34 1 7 32
M  V30 35 1 11 33
M  V30 36 1 14 34
M  V30 37 1 18 35
M  V30 38 1 19 36
M  V30 39 1 20 37
M  V30 40 1 21 38
M  V30 41 1 23 39
M  V30 42 1 24 40
M  V30 43 1 29 41
M  V30 44 1 31 42
M  V30 45 1 31 43
M  V30 46 1 31 44
M  V30 END BOND
M  V30 END CTAB
M  END
>  <Structure No>
1584

>  <LogS>
-0.586608448

>  <MMFF94 Energy>
114.27

$$$$
Compound 1585
Actelion Java MolfileCreator 2.0

  0  0  0  0  0  0              0 V3000
M  V30 BEGIN CTAB
M  V30 COUNTS 27 27 0 0 0
M  V30 BEGIN ATOM
M  V30 1 N -1.7143 0.0 0.1557 0 CHG=1
M  V30 2 C -0.2717 0.088 -0.243 0
M  V30 3 C -2.3495 1.3351 0.2202 0
M  V30 4 C -2.4921 -0.8457 -0.7769 0
M  V30 5 C 0.5381 0.9811 0.7417 0
M  V30 6 C 0.3877 -1.3203 -0.3105 0
M  V30 7 C 2.0318 1.0239 0.3989 0
M  V30 8 C 1.8832 -1.2506 -0.6408 0
M  V30 9 C 2.6296 -0.3809 0.3683 0
M  V30 10 H -1.7807 -0.4312 1.1086 0
M  V30 11 H -0.1974 0.5466 -1.2565 0
M  V30 12 H -2.149 1.9202 -0.7046 0
M  V30 13 H -3.4509 1.2558 0.3553 0
M  V30 14 H -1.993 1.9013 1.106 0
M  V30 15 H -2.3104 -0.5497 -1.8337 0
M  V30 16 H -2.2427 -1.9188 -0.6404 0
M  V30 17 H -3.5839 -0.7774 -0.5741 0
M  V30 18 H 0.1786 2.0298 0.6997 0
M  V30 19 H 0.4078 0.61 1.7822 0
M  V30 20 H 0.247 -1.8496 0.6575 0
M  V30 21 H -0.0801 -1.9299 -1.1105 0
M  V30 22 H 2.1752 1.5145 -0.5891 0
M  V30 23 H 2.5657 1.6308 1.162 0
M  V30 24 H 2.0213 -0.8393 -1.6651 0
M  V30 25 H 2.3103 -2.2765 -0.6243 0
M  V30 26 H 2.5708 -0.8395 1.3801 0
M  V30 27 H 3.7007 -0.3185 0.079 0
M  V30 END ATOM
M  V30 BEGIN BOND
M  V30 1 1 1 2
M  V30 2 1 1 3
M  V30 3 1 1 4
M  V30 4 1 2 5
M  V30 5 1 2 6
M  V30 6 1 5 7
M  V30 7 1 6 8
M  V30 8 1 7 9
M  V30 9 1 8 9
M  V30 10 1 1 10
M  V30 11 1 2 11
M  V30 12 1 3 12
M  V30 13 1 3 13
M  V30 14 1 3 14
M  V30 15 1 4 15
M  V30 16 1 4 16
M  V30 17 1 4 17
M  V30 18 1 5 18
M  V30 19 1 5 19
M  V30 20 1 6 20
M  V30 21 1 6 21
M  V30 22 1 7 22
M  V30 23 1 7 23
M  V30 24 1 8 24
M  V30 25 1 8 25
M  V30 26 1 9 26
M  V30 27 1 9 27
M  V30 END BOND
M  V30 END CTAB
M  END
>  <Structure No>
1585

>  <LogS>
-0.977488142

>  <MMFF94 Energy>
13.921

$$$$
Compound 1586
Actelion Java MolfileCreator 2.0

  0  0  0  0  0  0              0 V3000
M  V30 BEGIN CTAB
M  V30 COUNTS 5 4 0 0 0
M  V30 BEGIN ATOM
M  V30 1 O -0.5524 1.2631 -0.2367 0
M  V30 2 C -0.4238 0.0295 -0.0211 0
M  V30 3 O 0.7739 -0.6119 -0.3149 0
M  V30 4 O -1.482 -0.6931 0.5122 0 CHG=-1
M  V30 5 H 1.5558 -0.0989 -0.7044 0
M  V30 END ATOM
M  V30 BEGIN BOND
M  V30 1 2 1 2
M  V30 2 1 2 3
M  V30 3 1 2 4
M  V30 4 1 3 5
M  V30 END BOND
M  V30 END CTAB
M  END
>  <Structure No>
1586

>  <LogS>
-0.754642314

>  <MMFF94 Energy>
-89.96

$$$$
Compound 1587
Actelion Java MolfileCreator 2.0

  0  0  0  0  0  0              0 V3000
M  V30 BEGIN CTAB
M  V30 COUNTS 54 56 0 0 0
M  V30 BEGIN ATOM
M  V30 1 S 6.8087 1.1891 2.3792 0
M  V30 2 O 7.9537 1.7226 1.5633 0
M  V30 3 O 5.5385 1.8996 2.0001 0
M  V30 4 O 6.6489 -0.4826 2.1418 0
M  V30 5 O 7.1196 1.4695 4.005 0 CHG=-1
M  V30 6 C 6.3143 -0.7111 0.7928 0
M  V30 7 C 6.2312 -2.215 0.543 0
M  V30 8 S 5.7959 -2.5621 -1.156 0
M  V30 9 O 5.6055 -4.0451 -1.3293 0
M  V30 10 O 6.9048 -2.1055 -2.066 0
M  V30 11 C 4.2967 -1.7301 -1.5556 0
M  V30 12 C 4.314 -0.5475 -2.3124 0
M  V30 13 C 3.0846 -2.2069 -1.043 0
M  V30 14 C 3.1271 0.155 -2.5487 0
M  V30 15 C 1.8993 -1.5059 -1.2769 0
M  V30 16 C 1.9111 -0.3151 -2.0301 0
M  V30 17 N 0.7122 0.4551 -2.2088 0
M  V30 18 N -0.5223 -0.0462 -1.776 0
M  V30 19 C -1.4533 0.6061 -1.1331 0
M  V30 20 C -2.7224 -0.1176 -0.9157 0
M  V30 21 C -1.3226 2.0034 -0.5744 0
M  V30 22 O -2.8517 -1.3002 -1.3403 0
M  V30 23 C -3.8387 0.5489 -0.2194 0
M  V30 24 S 0.2176 2.8983 -0.473 0
M  V30 25 C -2.3994 2.5871 -0.0053 0
M  V30 26 C -3.6842 1.8819 0.1997 0
M  V30 27 C -5.0436 -0.1294 0.0391 0
M  V30 28 O 0.1099 4.012 0.5346 0
M  V30 29 O 0.5546 3.5032 -1.811 0
M  V30 30 O 1.4558 1.8832 0.0461 0 CHG=-1
M  V30 31 C -4.7379 2.5264 0.8685 0
M  V30 32 C -6.0788 0.5039 0.7531 0
M  V30 33 C -5.927 1.843 1.139 0
M  V30 34 N -7.2967 -0.1859 1.0732 0
M  V30 35 C -7.354 -1.5752 1.4355 0
M  V30 36 O -6.2983 -2.2257 1.6661 0
M  V30 37 C -8.6751 -2.2609 1.5722 0
M  V30 38 H 7.0894 -0.2845 0.1153 0
M  V30 39 H 5.3231 -0.2581 0.5639 0
M  V30 40 H 5.4605 -2.6622 1.2076 0
M  V30 41 H 7.2105 -2.6883 0.7695 0
M  V30 42 H 5.2451 -0.1535 -2.6975 0
M  V30 43 H 3.0605 -3.1089 -0.4415 0
M  V30 44 H 3.1581 1.0783 -3.1178 0
M  V30 45 H 0.9789 -1.8862 -0.8524 0
M  V30 46 H 0.7297 1.2972 -2.8298 0
M  V30 47 H -2.3215 3.5946 0.3848 0
M  V30 48 H -5.1751 -1.1454 -0.3144 0
M  V30 49 H -4.6325 3.5522 1.2013 0
M  V30 50 H -6.7205 2.3484 1.6789 0
M  V30 51 H -8.1798 0.3721 1.1385 0
M  V30 52 H -9.093 -2.0725 2.5876 0
M  V30 53 H -8.5585 -3.3565 1.4276 0
M  V30 54 H -9.379 -1.8748 0.8045 0
M  V30 END ATOM
M  V30 BEGIN BOND
M  V30 1 2 1 2
M  V30 2 2 1 3
M  V30 3 1 1 4
M  V30 4 1 1 5
M  V30 5 1 4 6
M  V30 6 1 6 7
M  V30 7 1 7 8
M  V30 8 2 8 9
M  V30 9 2 8 10
M  V30 10 1 8 11
M  V30 11 2 11 12
M  V30 12 1 11 13
M  V30 13 1 12 14
M  V30 14 2 13 15
M  V30 15 2 14 16
M  V30 16 1 16 17
M  V30 17 1 17 18
M  V30 18 2 18 19
M  V30 19 1 19 20
M  V30 20 1 19 21
M  V30 21 2 20 22
M  V30 22 1 20 23
M  V30 23 1 21 24
M  V30 24 2 21 25
M  V30 25 2 23 26
M  V30 26 1 23 27
M  V30 27 2 24 28
M  V30 28 2 24 29
M  V30 29 1 24 30
M  V30 30 1 26 31
M  V30 31 2 27 32
M  V30 32 2 31 33
M  V30 33 1 32 34
M  V30 34 1 34 35
M  V30 35 2 35 36
M  V30 36 1 35 37
M  V30 37 1 15 16
M  V30 38 1 25 26
M  V30 39 1 32 33
M  V30 40 1 6 38
M  V30 41 1 6 39
M  V30 42 1 7 40
M  V30 43 1 7 41
M  V30 44 1 12 42
M  V30 45 1 13 43
M  V30 46 1 14 44
M  V30 47 1 15 45
M  V30 48 1 17 46
M  V30 49 1 25 47
M  V30 50 1 27 48
M  V30 51 1 31 49
M  V30 52 1 33 50
M  V30 53 1 34 51
M  V30 54 1 37 52
M  V30 55 1 37 53
M  V30 56 1 37 54
M  V30 END BOND
M  V30 END CTAB
M  END
>  <Structure No>
1587

>  <LogS>
-0.679407503

>  <MMFF94 Energy>
43.685

$$$$
Compound 1588
Actelion Java MolfileCreator 2.0

  0  0  0  0  0  0              0 V3000
M  V30 BEGIN CTAB
M  V30 COUNTS 96 100 0 0 0
M  V30 BEGIN ATOM
M  V30 1 S -9.5425 -5.7009 0.2438 0
M  V30 2 O -10.805 -5.3673 -0.5038 0
M  V30 3 O -9.7081 -5.2969 1.685 0
M  V30 4 O -9.2608 -7.3549 0.1613 0 CHG=-1
M  V30 5 C -8.1864 -4.8297 -0.4729 0
M  V30 6 C -7.19 -4.2679 0.343 0
M  V30 7 C -8.0893 -4.7079 -1.8659 0
M  V30 8 C -6.1021 -3.591 -0.2299 0
M  V30 9 C -7.0108 -4.0281 -2.4401 0
M  V30 10 C -6.0198 -3.4739 -1.6263 0
M  V30 11 C -5.027 -3.0022 0.6439 0
M  V30 12 N -4.9993 -1.5346 0.5342 0
M  V30 13 C -3.746 -0.864 0.2887 0
M  V30 14 C -6.2025 -0.7435 0.8345 0
M  V30 15 C -3.6473 0.1368 -0.6924 0
M  V30 16 C -2.6163 -1.1807 1.0575 0
M  V30 17 C -6.0394 0.0053 2.155 0
M  V30 18 C -2.4414 0.8113 -0.8955 0
M  V30 19 C -1.4101 -0.5084 0.8536 0
M  V30 20 C -1.3098 0.4888 -0.1293 0
M  V30 21 C -0.0387 1.232 -0.3254 0 CHG=1
M  V30 22 C 1.2664 0.5079 -0.3233 0
M  V30 23 C -0.0878 2.715 -0.3313 0
M  V30 24 C 1.3351 -0.8331 -0.7359 0
M  V30 25 C 2.4363 1.1246 0.1509 0
M  V30 26 C 0.6489 3.4566 -1.2649 0
M  V30 27 C -0.8846 3.3941 0.6071 0
M  V30 28 C 2.5196 -1.5592 -0.6105 0
M  V30 29 C 3.6336 0.4087 0.2497 0
M  V30 30 C 0.5986 4.8544 -1.2572 0
M  V30 31 C -0.9253 4.7889 0.6259 0
M  V30 32 C 3.677 -0.9509 -0.0961 0
M  V30 33 C -0.1825 5.5305 -0.3033 0
M  V30 34 N 4.8616 -1.7391 0.1592 0
M  V30 35 N -0.2155 6.9693 -0.2687 0
M  V30 36 C 5.2518 -2.7886 -0.8001 0
M  V30 37 C 5.431 -1.7367 1.5199 0
M  V30 38 C -0.7101 7.7156 -1.4335 0
M  V30 39 C 0.2226 7.6785 0.9416 0
M  V30 40 C 6.7496 -2.9207 -0.9208 0
M  V30 41 C 4.4547 -2.366 2.5154 0
M  V30 42 C -2.2125 7.5006 -1.6078 0
M  V30 43 C 1.7355 7.5649 1.1081 0
M  V30 44 C 7.4096 -4.0359 -0.3736 0
M  V30 45 C 7.4992 -1.9213 -1.559 0
M  V30 46 C 8.8066 -4.1397 -0.4432 0
M  V30 47 C 8.8909 -2.0346 -1.6448 0
M  V30 48 S 9.6151 -5.5349 0.2637 0
M  V30 49 C 9.5461 -3.1356 -1.0858 0
M  V30 50 O 8.9755 -5.8724 1.5819 0
M  V30 51 O 11.0709 -5.2331 0.4883 0
M  V30 52 O 9.4755 -6.8462 -0.7742 0 CHG=-1
M  V30 53 H -7.2612 -4.359 1.4215 0
M  V30 54 H -8.8427 -5.1475 -2.5063 0
M  V30 55 H -6.941 -3.9303 -3.5149 0
M  V30 56 H -5.1866 -2.9482 -2.079 0
M  V30 57 H -4.0537 -3.4392 0.3164 0
M  V30 58 H -5.1638 -3.2887 1.7137 0
M  V30 59 H -6.3918 -0.0225 0.0155 0
M  V30 60 H -7.1002 -1.3937 0.9129 0
M  V30 61 H -4.5022 0.394 -1.3013 0
M  V30 62 H -2.6795 -1.9282 1.8386 0
M  V30 63 H -6.9413 0.6242 2.346 0
M  V30 64 H -5.1509 0.6722 2.1325 0
M  V30 65 H -5.9209 -0.7236 2.9851 0
M  V30 66 H -2.3873 1.5835 -1.6515 0
M  V30 67 H -0.5646 -0.7459 1.4843 0
M  V30 68 H 0.4577 -1.3382 -1.1178 0
M  V30 69 H 2.4231 2.1523 0.4819 0
M  V30 70 H 1.2571 2.9525 -2.0051 0
M  V30 71 H -1.4585 2.8417 1.3401 0
M  V30 72 H 2.5178 -2.6106 -0.8727 0
M  V30 73 H 4.5182 0.9118 0.6216 0
M  V30 74 H 1.1795 5.4101 -1.9835 0
M  V30 75 H -1.547 5.2884 1.3575 0
M  V30 76 H 4.8424 -2.5591 -1.8111 0
M  V30 77 H 4.7931 -3.7485 -0.4828 0
M  V30 78 H 5.672 -0.6977 1.8338 0
M  V30 79 H 6.3827 -2.306 1.5612 0
M  V30 80 H -0.1779 7.3827 -2.349 0
M  V30 81 H -0.5128 8.8022 -1.3188 0
M  V30 82 H -0.0514 8.7544 0.8917 0
M  V30 83 H -0.2838 7.2606 1.8401 0
M  V30 84 H 3.5209 -1.7628 2.5856 0
M  V30 85 H 4.2053 -3.4009 2.1978 0
M  V30 86 H 4.9243 -2.4067 3.521 0
M  V30 87 H -2.4219 6.4373 -1.8612 0
M  V30 88 H -2.593 8.1458 -2.4284 0
M  V30 89 H -2.7457 7.7623 -0.6666 0
M  V30 90 H 2.2461 8.0099 0.2256 0
M  V30 91 H 2.0581 8.1115 2.0185 0
M  V30 92 H 2.0372 6.4999 1.2104 0
M  V30 93 H 6.8385 -4.8155 0.1214 0
M  V30 94 H 7.0076 -1.0567 -1.9905 0
M  V30 95 H 9.463 -1.2689 -2.1479 0
M  V30 96 H 10.6243 -3.2107 -1.1647 0
M  V30 END ATOM
M  V30 BEGIN BOND
M  V30 1 2 1 2
M  V30 2 2 1 3
M  V30 3 1 1 4
M  V30 4 1 1 5
M  V30 5 2 5 6
M  V30 6 1 5 7
M  V30 7 1 6 8
M  V30 8 2 7 9
M  V30 9 2 8 10
M  V30 10 1 8 11
M  V30 11 1 11 12
M  V30 12 1 12 13
M  V30 13 1 12 14
M  V30 14 2 13 15
M  V30 15 1 13 16
M  V30 16 1 14 17
M  V30 17 1 15 18
M  V30 18 2 16 19
M  V30 19 2 18 20
M  V30 20 1 20 21
M  V30 21 1 21 22
M  V30 22 1 21 23
M  V30 23 2 22 24
M  V30 24 1 22 25
M  V30 25 2 23 26
M  V30 26 1 23 27
M  V30 27 1 24 28
M  V30 28 2 25 29
M  V30 29 1 26 30
M  V30 30 2 27 31
M  V30 31 2 28 32
M  V30 32 2 30 33
M  V30 33 1 32 34
M  V30 34 1 33 35
M  V30 35 1 34 36
M  V30 36 1 34 37
M  V30 37 1 35 38
M  V30 38 1 35 39
M  V30 39 1 36 40
M  V30 40 1 37 41
M  V30 41 1 38 42
M  V30 42 1 39 43
M  V30 43 2 40 44
M  V30 44 1 40 45
M  V30 45 1 44 46
M  V30 46 2 45 47
M  V30 47 1 46 48
M  V30 48 2 46 49
M  V30 49 2 48 50
M  V30 50 2 48 51
M  V30 51 1 48 52
M  V30 52 1 9 10
M  V30 53 1 19 20
M  V30 54 1 29 32
M  V30 55 1 31 33
M  V30 56 1 47 49
M  V30 57 1 6 53
M  V30 58 1 7 54
M  V30 59 1 9 55
M  V30 60 1 10 56
M  V30 61 1 11 57
M  V30 62 1 11 58
M  V30 63 1 14 59
M  V30 64 1 14 60
M  V30 65 1 15 61
M  V30 66 1 16 62
M  V30 67 1 17 63
M  V30 68 1 17 64
M  V30 69 1 17 65
M  V30 70 1 18 66
M  V30 71 1 19 67
M  V30 72 1 24 68
M  V30 73 1 25 69
M  V30 74 1 26 70
M  V30 75 1 27 71
M  V30 76 1 28 72
M  V30 77 1 29 73
M  V30 78 1 30 74
M  V30 79 1 31 75
M  V30 80 1 36 76
M  V30 81 1 36 77
M  V30 82 1 37 78
M  V30 83 1 37 79
M  V30 84 1 38 80
M  V30 85 1 38 81
M  V30 86 1 39 82
M  V30 87 1 39 83
M  V30 88 1 41 84
M  V30 89 1 41 85
M  V30 90 1 41 86
M  V30 91 1 42 87
M  V30 92 1 42 88
M  V30 93 1 42 89
M  V30 94 1 43 90
M  V30 95 1 43 91
M  V30 96 1 43 92
M  V30 97 1 44 93
M  V30 98 1 45 94
M  V30 99 1 47 95
M  V30 100 1 49 96
M  V30 END BOND
M  V30 END CTAB
M  END
>  <Structure No>
1588

>  <LogS>
-0.77170269

>  <MMFF94 Energy>
188.91

$$$$
Compound 1589
Actelion Java MolfileCreator 2.0

  0  0  0  0  0  0              0 V3000
M  V30 BEGIN CTAB
M  V30 COUNTS 27 26 0 0 0
M  V30 BEGIN ATOM
M  V30 1 O -2.9451 -2.1694 -1.3942 0
M  V30 2 C -3.7647 -1.214 -1.4417 0
M  V30 3 O -4.6797 -1.1489 -2.4842 0 CHG=-1
M  V30 4 N -3.7679 -0.2011 -0.4293 0
M  V30 5 C -2.8333 -0.2039 0.6943 0
M  V30 6 C -1.443 0.2491 0.237 0
M  V30 7 C -0.4568 0.2707 1.414 0
M  V30 8 C 0.9156 0.8428 1.0261 0
M  V30 9 C 1.7185 -0.1051 0.123 0
M  V30 10 C 3.1307 0.44 -0.1286 0
M  V30 11 N 3.8906 -0.4573 -0.998 0 CHG=1
M  V30 12 H -4.5067 0.5368 -0.4655 0
M  V30 13 H -2.7846 -1.2213 1.1403 0
M  V30 14 H -3.2066 0.4944 1.475 0
M  V30 15 H -1.0752 -0.446 -0.5456 0
M  V30 16 H -1.5216 1.2674 -0.2029 0
M  V30 17 H -0.8768 0.9089 2.2223 0
M  V30 18 H -0.3352 -0.7554 1.8251 0
M  V30 19 H 1.49 1.0176 1.9624 0
M  V30 20 H 0.7857 1.8261 0.523 0
M  V30 21 H 1.7937 -1.1038 0.6062 0
M  V30 22 H 1.202 -0.221 -0.8531 0
M  V30 23 H 3.0627 1.4431 -0.6055 0
M  V30 24 H 3.6658 0.5513 0.8407 0
M  V30 25 H 4.846 -0.0602 -1.1479 0
M  V30 26 H 3.4135 -0.5495 -1.9242 0
M  V30 27 H 3.9816 -1.3986 -0.5511 0
M  V30 END ATOM
M  V30 BEGIN BOND
M  V30 1 2 1 2
M  V30 2 1 2 3
M  V30 3 1 2 4
M  V30 4 1 4 5
M  V30 5 1 5 6
M  V30 6 1 6 7
M  V30 7 1 7 8
M  V30 8 1 8 9
M  V30 9 1 9 10
M  V30 10 1 10 11
M  V30 11 1 4 12
M  V30 12 1 5 13
M  V30 13 1 5 14
M  V30 14 1 6 15
M  V30 15 1 6 16
M  V30 16 1 7 17
M  V30 17 1 7 18
M  V30 18 1 8 19
M  V30 19 1 8 20
M  V30 20 1 9 21
M  V30 21 1 9 22
M  V30 22 1 10 23
M  V30 23 1 10 24
M  V30 24 1 11 25
M  V30 25 1 11 26
M  V30 26 1 11 27
M  V30 END BOND
M  V30 END CTAB
M  END
>  <Structure No>
1589

>  <LogS>
-0.095298805

>  <MMFF94 Energy>
-211.09

$$$$
Compound 1590
Actelion Java MolfileCreator 2.0

  0  0  0  0  0  0              0 V3000
M  V30 BEGIN CTAB
M  V30 COUNTS 8 7 0 0 0
M  V30 BEGIN ATOM
M  V30 1 S 0.8528 0.0 0.0947 0
M  V30 2 O 1.1614 -0.5733 1.4488 0
M  V30 3 O 1.4599 1.3699 -0.0169 0
M  V30 4 O 1.501 -0.9953 -1.0929 0 CHG=-1
M  V30 5 C -0.9106 0.1092 -0.1194 0
M  V30 6 F -1.4463 0.9279 0.8567 0
M  V30 7 F -1.1931 0.6356 -1.3653 0
M  V30 8 F -1.4675 -1.1512 -0.0174 0
M  V30 END ATOM
M  V30 BEGIN BOND
M  V30 1 2 1 2
M  V30 2 2 1 3
M  V30 3 1 1 4
M  V30 4 1 1 5
M  V30 5 1 5 6
M  V30 6 1 5 7
M  V30 7 1 5 8
M  V30 END BOND
M  V30 END CTAB
M  END
>  <Structure No>
1590

>  <LogS>
0.903040198

>  <MMFF94 Energy>
195.14

$$$$
Compound 1591
Actelion Java MolfileCreator 2.0

  0  0  0  0  0  0              0 V3000
M  V30 BEGIN CTAB
M  V30 COUNTS 4 3 0 0 0
M  V30 BEGIN ATOM
M  V30 1 O -0.2497 1.249 0.0 0
M  V30 2 N -0.0147 0.0246 -0.0041 0 CHG=1
M  V30 3 O -1.054 -0.8744 -0.022 0 CHG=-1
M  V30 4 O 1.2833 -0.4259 0.009 0 CHG=-1
M  V30 END ATOM
M  V30 BEGIN BOND
M  V30 1 2 1 2
M  V30 2 1 2 3
M  V30 3 1 2 4
M  V30 END BOND
M  V30 END CTAB
M  END
>  <Structure No>
1591

>  <LogS>
0.010251263

>  <MMFF94 Energy>
6.4146

$$$$
Compound 1592
Actelion Java MolfileCreator 2.0

  0  0  0  0  0  0              0 V3000
M  V30 BEGIN CTAB
M  V30 COUNTS 29 28 0 0 0
M  V30 BEGIN ATOM
M  V30 1 O 2.6461 -0.3887 1.6337 0
M  V30 2 C 3.1485 -0.4079 0.4759 0
M  V30 3 O 2.9372 -1.4992 -0.3742 0
M  V30 4 C 3.9762 0.7111 0.0 0
M  V30 5 C 2.0835 -2.5978 -0.0556 0
M  V30 6 C 4.2227 1.7882 0.7437 0
M  V30 7 C 0.6281 -2.2667 -0.3796 0
M  V30 8 O 0.1669 -1.2507 0.4849 0
M  V30 9 C -1.1619 -0.9123 0.1513 0
M  V30 10 C -1.6513 0.1773 1.1016 0
M  V30 11 O -3.0087 0.482 0.8398 0
M  V30 12 C -3.1105 1.6311 0.0248 0
M  V30 13 C -4.5675 1.848 -0.353 0
M  V30 14 H 4.3987 0.6551 -0.9952 0
M  V30 15 H 2.3913 -3.4671 -0.6741 0
M  V30 16 H 2.1929 -2.8878 1.0123 0
M  V30 17 H 3.8208 1.8899 1.744 0
M  V30 18 H 4.8372 2.5867 0.349 0
M  V30 19 H 0.0248 -3.1932 -0.2446 0
M  V30 20 H 0.5714 -1.944 -1.4447 0
M  V30 21 H -1.2175 -0.5267 -0.8917 0
M  V30 22 H -1.8319 -1.7967 0.2555 0
M  V30 23 H -0.9727 1.0628 1.051 0
M  V30 24 H -1.5837 -0.2096 2.1408 0
M  V30 25 H -2.5209 1.5143 -0.9127 0
M  V30 26 H -2.7546 2.5297 0.5776 0
M  V30 27 H -4.6599 2.7532 -0.9898 0
M  V30 28 H -5.1813 1.9874 0.5621 0
M  V30 29 H -4.9481 0.9702 -0.9172 0
M  V30 END ATOM
M  V30 BEGIN BOND
M  V30 1 2 1 2
M  V30 2 1 2 3
M  V30 3 1 2 4
M  V30 4 1 3 5
M  V30 5 2 4 6
M  V30 6 1 5 7
M  V30 7 1 7 8
M  V30 8 1 8 9
M  V30 9 1 9 10
M  V30 10 1 10 11
M  V30 11 1 11 12
M  V30 12 1 12 13
M  V30 13 1 4 14
M  V30 14 1 5 15
M  V30 15 1 5 16
M  V30 16 1 6 17
M  V30 17 1 6 18
M  V30 18 1 7 19
M  V30 19 1 7 20
M  V30 20 1 9 21
M  V30 21 1 9 22
M  V30 22 1 10 23
M  V30 23 1 10 24
M  V30 24 1 12 25
M  V30 25 1 12 26
M  V30 26 1 13 27
M  V30 27 1 13 28
M  V30 28 1 13 29
M  V30 END BOND
M  V30 END CTAB
M  END
>  <Structure No>
1592

>  <LogS>
-0.181251006

>  <MMFF94 Energy>
36.955

$$$$
Compound 1593
Actelion Java MolfileCreator 2.0

  0  0  0  0  0  0              0 V3000
M  V30 BEGIN CTAB
M  V30 COUNTS 10 9 0 0 0
M  V30 BEGIN ATOM
M  V30 1 N -2.185 0.1559 1.6384 0
M  V30 2 C -1.4656 0.3387 0.7508 0
M  V30 3 C -0.5519 0.5709 -0.3765 0
M  V30 4 C 0.5296 -0.5099 -0.4525 0
M  V30 5 C 1.4573 -0.4227 0.684 0
M  V30 6 N 2.1878 -0.3543 1.5789 0
M  V30 7 H -0.088 1.5756 -0.2739 0
M  V30 8 H -1.1442 0.5577 -1.3157 0
M  V30 9 H 0.0661 -1.5197 -0.4732 0
M  V30 10 H 1.1103 -0.3763 -1.3894 0
M  V30 END ATOM
M  V30 BEGIN BOND
M  V30 1 3 1 2
M  V30 2 1 2 3
M  V30 3 1 3 4
M  V30 4 1 4 5
M  V30 5 3 5 6
M  V30 6 1 3 7
M  V30 7 1 3 8
M  V30 8 1 4 9
M  V30 9 1 4 10
M  V30 END BOND
M  V30 END CTAB
M  END
>  <Structure No>
1593

>  <LogS>
0.175240889

>  <MMFF94 Energy>
-16.232

$$$$
Compound 1594
Actelion Java MolfileCreator 2.0

  0  0  0  0  0  0              0 V3000
M  V30 BEGIN CTAB
M  V30 COUNTS 90 96 0 0 0
M  V30 BEGIN ATOM
M  V30 1 S -7.0653 -2.4894 -0.7463 0
M  V30 2 O -8.1684 -3.5065 -0.8376 0
M  V30 3 O -5.7499 -3.2134 -0.7134 0
M  V30 4 O -7.1389 -1.5007 -2.1022 0 CHG=-1
M  V30 5 C -7.245 -1.5135 0.7211 0
M  V30 6 C -6.3261 -0.5766 1.0655 0
M  V30 7 C -8.4147 -1.7922 1.5973 0
M  V30 8 N -5.1708 -0.3322 0.2419 0
M  V30 9 C -6.528 0.225 2.2988 0
M  V30 10 C -8.6038 -1.1541 2.761 0
M  V30 11 N -3.9062 -0.0938 0.8091 0
M  V30 12 O -5.7766 1.2039 2.5541 0
M  V30 13 C -7.6515 -0.1049 3.1958 0
M  V30 14 C -9.758 -1.49 3.6269 0
M  V30 15 C -2.7894 0.3121 0.0079 0
M  V30 16 C -7.8315 0.522 4.3708 0
M  V30 17 C -9.9294 -0.8676 4.7969 0
M  V30 18 C -2.2812 -0.5053 -1.0229 0
M  V30 19 C -2.1411 1.5094 0.3167 0
M  V30 20 C -8.9758 0.1701 5.232 0
M  V30 21 C -1.1508 -0.0847 -1.7412 0
M  V30 22 C -2.8975 -1.8365 -1.3494 0
M  V30 23 C -1.0033 1.9109 -0.3852 0
M  V30 24 O -9.138 0.7539 6.3358 0
M  V30 25 C -0.4793 1.1177 -1.4293 0
M  V30 26 C 0.8524 1.4321 -2.1555 0
M  V30 27 C 1.8205 0.2768 -1.8233 0
M  V30 28 C 1.5581 2.7576 -1.705 0
M  V30 29 C 0.5721 1.5735 -3.6826 0
M  V30 30 C 2.074 -0.0247 -0.4688 0
M  V30 31 C 2.4491 -0.5168 -2.8054 0
M  V30 32 C 1.0644 4.0454 -2.4085 0
M  V30 33 C -0.4202 2.7077 -4.0077 0
M  V30 34 C 2.8991 -1.0932 -0.0949 0
M  V30 35 C 3.2949 -1.5652 -2.4397 0
M  V30 36 C -0.3205 3.9103 -3.0498 0
M  V30 37 C 3.5622 -1.8383 -1.0944 0
M  V30 38 C 2.9778 -1.4394 1.3643 0
M  V30 39 N 4.4284 -2.9387 -0.7761 0
M  V30 40 N 5.5975 -2.8128 9.0E-4 0
M  V30 41 C 6.2053 -1.5499 0.3127 0
M  V30 42 C 6.2878 -1.1437 1.7333 0
M  V30 43 C 6.7813 -0.773 -0.6393 0
M  V30 44 O 5.8934 -1.9284 2.6396 0
M  V30 45 C 6.847 0.179 2.073 0
M  V30 46 S 6.9826 -1.2962 -2.3188 0
M  V30 47 C 7.3651 0.548 -0.2889 0
M  V30 48 C 7.3957 1.0058 0.9702 0
M  V30 49 C 6.8705 0.6395 3.3341 0
M  V30 50 O 8.3832 -0.9761 -2.7568 0
M  V30 51 O 6.0161 -0.5528 -3.1946 0
M  V30 52 O 6.7495 -2.9499 -2.5021 0 CHG=-1
M  V30 53 C 7.9925 2.327 1.2795 0
M  V30 54 C 7.4553 1.9622 3.6304 0
M  V30 55 C 8.0192 2.7773 2.5374 0
M  V30 56 O 7.4764 2.3932 4.813 0
M  V30 57 H -9.1256 -2.5499 1.294 0
M  V30 58 H -5.2715 -0.316 -0.7956 0
M  V30 59 H -3.786 -0.104 1.8477 0
M  V30 60 H -10.4679 -2.2485 3.3206 0
M  V30 61 H -7.1427 1.2934 4.6999 0
M  V30 62 H -10.7728 -1.1234 5.4267 0
M  V30 63 H -2.5163 2.1354 1.1163 0
M  V30 64 H -0.754 -0.7327 -2.5125 0
M  V30 65 H -3.741 -1.6938 -2.0577 0
M  V30 66 H -2.1569 -2.5164 -1.8184 0
M  V30 67 H -3.26 -2.3351 -0.4269 0
M  V30 68 H -0.5542 2.8462 -0.0949 0
M  V30 69 H 1.5412 2.8828 -0.6039 0
M  V30 70 H 2.644 2.6769 -1.9405 0
M  V30 71 H 0.1818 0.6303 -4.1192 0
M  V30 72 H 1.5274 1.8015 -4.2063 0
M  V30 73 H 1.5863 0.5529 0.3077 0
M  V30 74 H 2.2963 -0.3496 -3.8609 0
M  V30 75 H 1.7871 4.3242 -3.2072 0
M  V30 76 H 1.0481 4.8831 -1.6782 0
M  V30 77 H -1.4595 2.3098 -3.9718 0
M  V30 78 H -0.2372 3.0508 -5.0515 0
M  V30 79 H 3.7591 -2.1631 -3.2145 0
M  V30 80 H -0.5489 4.8429 -3.6106 0
M  V30 81 H -1.0912 3.8278 -2.2563 0
M  V30 82 H 3.5303 -0.6437 1.904 0
M  V30 83 H 1.952 -1.5022 1.7864 0
M  V30 84 H 3.4605 -2.4209 1.5402 0
M  V30 85 H 4.2029 -3.8733 -1.1849 0
M  V30 86 H 5.9985 -3.6731 0.4382 0
M  V30 87 H 7.7811 1.1561 -1.085 0
M  V30 88 H 6.4627 0.0528 4.149 0
M  V30 89 H 8.4108 2.9403 0.4881 0
M  V30 90 H 8.4587 3.7426 2.756 0
M  V30 END ATOM
M  V30 BEGIN BOND
M  V30 1 2 1 2
M  V30 2 2 1 3
M  V30 3 1 1 4
M  V30 4 1 1 5
M  V30 5 2 5 6
M  V30 6 1 5 7
M  V30 7 1 6 8
M  V30 8 1 6 9
M  V30 9 2 7 10
M  V30 10 1 8 11
M  V30 11 2 9 12
M  V30 12 1 9 13
M  V30 13 1 10 14
M  V30 14 1 11 15
M  V30 15 2 13 16
M  V30 16 2 14 17
M  V30 17 2 15 18
M  V30 18 1 15 19
M  V30 19 1 16 20
M  V30 20 1 18 21
M  V30 21 1 18 22
M  V30 22 2 19 23
M  V30 23 2 20 24
M  V30 24 2 21 25
M  V30 25 1 25 26
M  V30 26 1 26 27
M  V30 27 1 26 28
M  V30 28 1 26 29
M  V30 29 2 27 30
M  V30 30 1 27 31
M  V30 31 1 28 32
M  V30 32 1 29 33
M  V30 33 1 30 34
M  V30 34 2 31 35
M  V30 35 1 32 36
M  V30 36 2 34 37
M  V30 37 1 34 38
M  V30 38 1 37 39
M  V30 39 1 39 40
M  V30 40 1 40 41
M  V30 41 1 41 42
M  V30 42 2 41 43
M  V30 43 2 42 44
M  V30 44 1 42 45
M  V30 45 1 43 46
M  V30 46 1 43 47
M  V30 47 1 45 48
M  V30 48 2 45 49
M  V30 49 2 46 50
M  V30 50 2 46 51
M  V30 51 1 46 52
M  V30 52 1 48 53
M  V30 53 1 49 54
M  V30 54 2 53 55
M  V30 55 2 54 56
M  V30 56 1 10 13
M  V30 57 1 17 20
M  V30 58 1 23 25
M  V30 59 1 33 36
M  V30 60 1 35 37
M  V30 61 2 47 48
M  V30 62 1 54 55
M  V30 63 1 7 57
M  V30 64 1 8 58
M  V30 65 1 11 59
M  V30 66 1 14 60
M  V30 67 1 16 61
M  V30 68 1 17 62
M  V30 69 1 19 63
M  V30 70 1 21 64
M  V30 71 1 22 65
M  V30 72 1 22 66
M  V30 73 1 22 67
M  V30 74 1 23 68
M  V30 75 1 28 69
M  V30 76 1 28 70
M  V30 77 1 29 71
M  V30 78 1 29 72
M  V30 79 1 30 73
M  V30 80 1 31 74
M  V30 81 1 32 75
M  V30 82 1 32 76
M  V30 83 1 33 77
M  V30 84 1 33 78
M  V30 85 1 35 79
M  V30 86 1 36 80
M  V30 87 1 36 81
M  V30 88 1 38 82
M  V30 89 1 38 83
M  V30 90 1 38 84
M  V30 91 1 39 85
M  V30 92 1 40 86
M  V30 93 1 47 87
M  V30 94 1 49 88
M  V30 95 1 53 89
M  V30 96 1 55 90
M  V30 END BOND
M  V30 END CTAB
M  END
>  <Structure No>
1594

>  <LogS>
-0.854788461

>  <MMFF94 Energy>
229.93

$$$$
Compound 1595
Actelion Java MolfileCreator 2.0

  0  0  0  0  0  0              0 V3000
M  V30 BEGIN CTAB
M  V30 COUNTS 15 15 0 0 0
M  V30 BEGIN ATOM
M  V30 1 S 2.3652 0.1688 0.0844 0
M  V30 2 O 2.9204 -0.9433 0.929 0
M  V30 3 O 2.7624 1.4833 0.6951 0
M  V30 4 O 2.9946 0.0601 -1.4687 0 CHG=-1
M  V30 5 C 0.6105 0.0479 0.015 0
M  V30 6 C -0.0141 -1.2056 0.0917 0
M  V30 7 C -0.1709 1.2024 -0.14 0
M  V30 8 C -1.408 -1.3011 0.0259 0
M  V30 9 C -1.5645 1.1039 -0.2056 0
M  V30 10 C -2.1829 -0.1469 -0.1214 0
M  V30 11 H 0.5754 -2.1069 0.2001 0
M  V30 12 H 0.2965 2.1762 -0.2121 0
M  V30 13 H -1.8871 -2.2695 0.0871 0
M  V30 14 H -2.1649 1.9967 -0.3234 0
M  V30 15 H -3.2614 -0.222 -0.1729 0
M  V30 END ATOM
M  V30 BEGIN BOND
M  V30 1 2 1 2
M  V30 2 2 1 3
M  V30 3 1 1 4
M  V30 4 1 1 5
M  V30 5 2 5 6
M  V30 6 1 5 7
M  V30 7 1 6 8
M  V30 8 2 7 9
M  V30 9 2 8 10
M  V30 10 1 9 10
M  V30 11 1 6 11
M  V30 12 1 7 12
M  V30 13 1 8 13
M  V30 14 1 9 14
M  V30 15 1 10 15
M  V30 END BOND
M  V30 END CTAB
M  END
>  <Structure No>
1595

>  <LogS>
0.848907093

>  <MMFF94 Energy>
47.63

$$$$
Compound 1596
Actelion Java MolfileCreator 2.0

  0  0  0  0  0  0              0 V3000
M  V30 BEGIN CTAB
M  V30 COUNTS 21 21 0 0 0
M  V30 BEGIN ATOM
M  V30 1 S 2.7348 -0.414 0.1655 0
M  V30 2 O 2.7201 -1.4901 1.2142 0
M  V30 3 O 3.7683 0.6085 0.5473 0
M  V30 4 O 3.1521 -1.0751 -1.3211 0 CHG=-1
M  V30 5 C 1.1337 0.3394 0.0527 0
M  V30 6 C -0.0574 -0.4272 -0.0728 0
M  V30 7 C 1.0558 1.7393 0.0917 0
M  V30 8 C -1.3123 0.2423 -0.0727 0
M  V30 9 C 0.0017 -1.9385 -0.1334 0
M  V30 10 C -0.1754 2.3851 0.0393 0
M  V30 11 C -1.3509 1.6449 -0.0365 0
M  V30 12 C -2.617 -0.5104 -0.1358 0
M  V30 13 H 1.9521 2.3407 0.1658 0
M  V30 14 H 0.0138 -2.3507 0.8969 0
M  V30 15 H -0.8605 -2.3658 -0.6827 0
M  V30 16 H 0.8991 -2.2887 -0.6798 0
M  V30 17 H -0.2197 3.4663 0.0692 0
M  V30 18 H -2.297 2.1716 -0.0616 0
M  V30 19 H -2.6301 -1.3197 0.6242 0
M  V30 20 H -2.7492 -0.9457 -1.1483 0
M  V30 21 H -3.4835 0.1529 0.0719 0
M  V30 END ATOM
M  V30 BEGIN BOND
M  V30 1 2 1 2
M  V30 2 2 1 3
M  V30 3 1 1 4
M  V30 4 1 1 5
M  V30 5 2 5 6
M  V30 6 1 5 7
M  V30 7 1 6 8
M  V30 8 1 6 9
M  V30 9 2 7 10
M  V30 10 2 8 11
M  V30 11 1 8 12
M  V30 12 1 10 11
M  V30 13 1 7 13
M  V30 14 1 9 14
M  V30 15 1 9 15
M  V30 16 1 9 16
M  V30 17 1 10 17
M  V30 18 1 11 18
M  V30 19 1 12 19
M  V30 20 1 12 20
M  V30 21 1 12 21
M  V30 END BOND
M  V30 END CTAB
M  END
>  <Structure No>
1596

>  <LogS>
0.777998866

>  <MMFF94 Energy>
57.305

$$$$
Compound 1597
Actelion Java MolfileCreator 2.0

  0  0  0  0  0  0              0 V3000
M  V30 BEGIN CTAB
M  V30 COUNTS 27 28 0 0 0
M  V30 BEGIN ATOM
M  V30 1 S 4.2301 -0.431 -0.5173 0
M  V30 2 O 5.0194 0.7967 -0.8756 0
M  V30 3 O 4.3135 -1.4078 -1.6564 0
M  V30 4 O 4.8773 -1.1281 0.8667 0 CHG=-1
M  V30 5 C 2.549 0.0025 -0.2233 0
M  V30 6 C 2.2284 1.2603 0.2902 0
M  V30 7 C 1.5347 -0.9269 -0.4559 0
M  V30 8 C 0.8964 1.6162 0.5468 0
M  V30 9 C 0.193 -0.593 -0.2186 0
M  V30 10 O 0.6427 2.8539 1.1365 0
M  V30 11 C -0.1539 0.7076 0.2459 0
M  V30 12 C -0.8013 -1.5582 -0.4299 0
M  V30 13 C -1.5327 1.0183 0.428 0
M  V30 14 C -2.1427 -1.2589 -0.1906 0
M  V30 15 N -1.992 2.3401 0.7404 0
M  V30 16 C -2.5001 0.0199 0.2403 0
M  V30 17 S -3.3798 -2.4897 -0.4294 0
M  V30 18 O -2.9542 -3.4386 -1.5144 0
M  V30 19 O -4.674 -1.8425 -0.8355 0
M  V30 20 O -3.6043 -3.3401 1.0011 0 CHG=-1
M  V30 21 H 3.0205 1.9641 0.5138 0
M  V30 22 H 1.793 -1.9156 -0.8177 0
M  V30 23 H 1.3874 3.5018 1.3659 0
M  V30 24 H -0.5306 -2.5517 -0.7684 0
M  V30 25 H -1.5315 3.1823 0.333 0
M  V30 26 H -2.943 2.4817 1.1486 0
M  V30 27 H -3.5454 0.2544 0.4004 0
M  V30 END ATOM
M  V30 BEGIN BOND
M  V30 1 2 1 2
M  V30 2 2 1 3
M  V30 3 1 1 4
M  V30 4 1 1 5
M  V30 5 1 5 6
M  V30 6 2 5 7
M  V30 7 2 6 8
M  V30 8 1 7 9
M  V30 9 1 8 10
M  V30 10 1 8 11
M  V30 11 2 9 12
M  V30 12 2 11 13
M  V30 13 1 12 14
M  V30 14 1 13 15
M  V30 15 1 13 16
M  V30 16 1 14 17
M  V30 17 2 17 18
M  V30 18 2 17 19
M  V30 19 1 17 20
M  V30 20 1 9 11
M  V30 21 2 14 16
M  V30 22 1 6 21
M  V30 23 1 7 22
M  V30 24 1 10 23
M  V30 25 1 12 24
M  V30 26 1 15 25
M  V30 27 1 15 26
M  V30 28 1 16 27
M  V30 END BOND
M  V30 END CTAB
M  END
>  <Structure No>
1597

>  <LogS>
-1.476228892

>  <MMFF94 Energy>
106.28

$$$$
Compound 1598
Actelion Java MolfileCreator 2.0

  0  0  0  0  0  0              0 V3000
M  V30 BEGIN CTAB
M  V30 COUNTS 6 5 0 0 0
M  V30 BEGIN ATOM
M  V30 1 O -1.2683 0.93 0.6763 0
M  V30 2 C -0.7054 0.0623 -0.0412 0
M  V30 3 O -1.4746 -0.7609 -0.8541 0 CHG=-1
M  V30 4 C 0.7527 -0.0778 -0.0186 0
M  V30 5 O 1.3156 -0.9455 -0.7361 0
M  V30 6 O 1.5218 0.7455 0.7943 0 CHG=-1
M  V30 END ATOM
M  V30 BEGIN BOND
M  V30 1 2 1 2
M  V30 2 1 2 3
M  V30 3 1 2 4
M  V30 4 2 4 5
M  V30 5 1 4 6
M  V30 END BOND
M  V30 END CTAB
M  END
>  <Structure No>
1598

>  <LogS>
0.07901721

>  <MMFF94 Energy>
278.93

$$$$
Compound 1599
Actelion Java MolfileCreator 2.0

  0  0  0  0  0  0              0 V3000
M  V30 BEGIN CTAB
M  V30 COUNTS 6 5 0 0 0
M  V30 BEGIN ATOM
M  V30 1 O -1.0991 -1.3529 0.0 0
M  V30 2 C -0.7511 -0.1431 -0.0033 0
M  V30 3 O -1.7207 0.8507 0.0469 0 CHG=-1
M  V30 4 C 0.6684 0.2141 -0.06 0
M  V30 5 O 1.0164 1.4239 -0.0634 0
M  V30 6 O 1.6379 -0.7797 -0.1102 0 CHG=-1
M  V30 END ATOM
M  V30 BEGIN BOND
M  V30 1 2 1 2
M  V30 2 1 2 3
M  V30 3 1 2 4
M  V30 4 2 4 5
M  V30 5 1 4 6
M  V30 END BOND
M  V30 END CTAB
M  END
>  <Structure No>
1599

>  <LogS>
-0.307349426

>  <MMFF94 Energy>
278.93

$$$$
Compound 1600
Actelion Java MolfileCreator 2.0

  0  0  0  0  0  0              0 V3000
M  V30 BEGIN CTAB
M  V30 COUNTS 4 3 0 0 0
M  V30 BEGIN ATOM
M  V30 1 O -0.5827 -1.0824 0.0 0
M  V30 2 N 0.02 0.0087 -0.0226 0 CHG=1
M  V30 3 O 1.3939 0.0347 -0.0254 0 CHG=-1
M  V30 4 O -0.6894 1.1854 -0.0447 0 CHG=-1
M  V30 END ATOM
M  V30 BEGIN BOND
M  V30 1 2 1 2
M  V30 2 1 2 3
M  V30 3 1 2 4
M  V30 END BOND
M  V30 END CTAB
M  END
>  <Structure No>
1600

>  <LogS>
1.170097396

>  <MMFF94 Energy>
6.4146

$$$$
Compound 1601
Actelion Java MolfileCreator 2.0

  0  0  0  0  0  0              0 V3000
M  V30 BEGIN CTAB
M  V30 COUNTS 24 23 0 0 0
M  V30 BEGIN ATOM
M  V30 1 O 3.5094 1.2958 0.8383 0
M  V30 2 C 2.8797 0.6839 -0.2552 0
M  V30 3 C 2.049 -0.5289 0.1972 0
M  V30 4 N 0.9237 -0.1491 1.0766 0 CHG=1
M  V30 5 C -0.2758 0.2769 0.3273 0
M  V30 6 C -1.1525 -0.9223 -0.0853 0
M  V30 7 C -2.3143 -0.5163 -1.0051 0
M  V30 8 C -3.3823 0.305 -0.2832 0
M  V30 9 H 4.2679 0.7089 1.0949 0
M  V30 10 H 2.2319 1.4299 -0.7589 0
M  V30 11 H 3.6414 0.3542 -0.9977 0
M  V30 12 H 1.6886 -1.0747 -0.7012 0
M  V30 13 H 2.7217 -1.228 0.7424 0
M  V30 14 H 0.684 -0.9632 1.69 0
M  V30 15 H 1.2179 0.6265 1.7151 0
M  V30 16 H 0.0045 0.8677 -0.5716 0
M  V30 17 H -0.8805 0.946 0.9778 0
M  V30 18 H -1.5522 -1.4254 0.8223 0
M  V30 19 H -0.5325 -1.6649 -0.6296 0
M  V30 20 H -1.9298 0.0563 -1.8769 0
M  V30 21 H -2.792 -1.4409 -1.3958 0
M  V30 22 H -3.7378 -0.2296 0.6231 0
M  V30 23 H -4.2469 0.4629 -0.9616 0
M  V30 24 H -2.9846 1.2999 0.0051 0
M  V30 END ATOM
M  V30 BEGIN BOND
M  V30 1 1 1 2
M  V30 2 1 2 3
M  V30 3 1 3 4
M  V30 4 1 4 5
M  V30 5 1 5 6
M  V30 6 1 6 7
M  V30 7 1 7 8
M  V30 8 1 1 9
M  V30 9 1 2 10
M  V30 10 1 2 11
M  V30 11 1 3 12
M  V30 12 1 3 13
M  V30 13 1 4 14
M  V30 14 1 4 15
M  V30 15 1 5 16
M  V30 16 1 5 17
M  V30 17 1 6 18
M  V30 18 1 6 19
M  V30 19 1 7 20
M  V30 20 1 7 21
M  V30 21 1 8 22
M  V30 22 1 8 23
M  V30 23 1 8 24
M  V30 END BOND
M  V30 END CTAB
M  END
>  <Structure No>
1601

>  <LogS>
0.931102034

>  <MMFF94 Energy>
15.536

$$$$
Compound 1602
Actelion Java MolfileCreator 2.0

  0  0  0  0  0  0              0 V3000
M  V30 BEGIN CTAB
M  V30 COUNTS 15 14 0 0 0
M  V30 BEGIN ATOM
M  V30 1 O -2.1699 0.299 -1.047 0
M  V30 2 C -1.6373 -0.6681 -0.1829 0
M  V30 3 C -0.3482 -0.1623 0.4767 0
M  V30 4 N 0.6997 0.0896 -0.5241 0 CHG=1
M  V30 5 C 1.9353 0.5401 0.1215 0
M  V30 6 H -2.5828 0.9961 -0.473 0
M  V30 7 H -1.4222 -1.5902 -0.7634 0
M  V30 8 H -2.381 -0.9318 0.603 0
M  V30 9 H -0.5728 0.7699 1.0426 0
M  V30 10 H -0.0032 -0.9334 1.202 0
M  V30 11 H 0.3835 0.8318 -1.1912 0
M  V30 12 H 0.901 -0.79 -1.055 0
M  V30 13 H 2.7131 0.7287 -0.6495 0
M  V30 14 H 1.7631 1.4861 0.6804 0
M  V30 15 H 2.3189 -0.2366 0.819 0
M  V30 END ATOM
M  V30 BEGIN BOND
M  V30 1 1 1 2
M  V30 2 1 2 3
M  V30 3 1 3 4
M  V30 4 1 4 5
M  V30 5 1 1 6
M  V30 6 1 2 7
M  V30 7 1 2 8
M  V30 8 1 3 9
M  V30 9 1 3 10
M  V30 10 1 4 11
M  V30 11 1 4 12
M  V30 12 1 5 13
M  V30 13 1 5 14
M  V30 14 1 5 15
M  V30 END BOND
M  V30 END CTAB
M  END
>  <Structure No>
1602

>  <LogS>
1.124296456

>  <MMFF94 Energy>
16.662

$$$$
Compound 1603
Actelion Java MolfileCreator 2.0

  0  0  0  0  0  0              0 V3000
M  V30 BEGIN CTAB
M  V30 COUNTS 12 11 0 0 0
M  V30 BEGIN ATOM
M  V30 1 O -1.4015 1.0325 0.2949 0
M  V30 2 C -0.9966 -0.2787 0.0147 0
M  V30 3 C 0.3862 -0.2729 -0.6412 0
M  V30 4 N 1.4105 0.2348 0.2722 0 CHG=1
M  V30 5 H -2.2954 0.9592 0.72 0
M  V30 6 H -0.9652 -0.8775 0.9525 0
M  V30 7 H -1.7231 -0.7508 -0.6834 0
M  V30 8 H 0.358 0.3549 -1.5593 0
M  V30 9 H 0.6452 -1.3116 -0.9439 0
M  V30 10 H 2.3408 0.1956 -0.2032 0
M  V30 11 H 1.4475 -0.3546 1.1354 0
M  V30 12 H 1.2062 1.2278 0.5294 0
M  V30 END ATOM
M  V30 BEGIN BOND
M  V30 1 1 1 2
M  V30 2 1 2 3
M  V30 3 1 3 4
M  V30 4 1 1 5
M  V30 5 1 2 6
M  V30 6 1 2 7
M  V30 7 1 3 8
M  V30 8 1 3 9
M  V30 9 1 4 10
M  V30 10 1 4 11
M  V30 11 1 4 12
M  V30 END BOND
M  V30 END CTAB
M  END
>  <Structure No>
1603

>  <LogS>
1.214072532

>  <MMFF94 Energy>
13.27

$$$$
Compound 1604
Actelion Java MolfileCreator 2.0

  0  0  0  0  0  0              0 V3000
M  V30 BEGIN CTAB
M  V30 COUNTS 12 11 0 0 0
M  V30 BEGIN ATOM
M  V30 1 O -0.8357 2.2046 0.5318 0
M  V30 2 C 0.1772 1.4993 0.2793 0
M  V30 3 N 0.0491 0.093 0.0255 0
M  V30 4 C -1.2703 -0.5429 0.0574 0
M  V30 5 C 1.2569 -0.6808 -0.2625 0
M  V30 6 H 1.1526 1.9688 0.2558 0
M  V30 7 H -1.2057 -1.63 -0.1578 0
M  V30 8 H -1.9294 -0.0752 -0.7043 0
M  V30 9 H -1.7242 -0.4128 1.0625 0
M  V30 10 H 1.9577 -0.6126 0.5962 0
M  V30 11 H 1.7526 -0.2752 -1.1696 0
M  V30 12 H 1.0245 -1.7517 -0.44 0
M  V30 END ATOM
M  V30 BEGIN BOND
M  V30 1 2 1 2
M  V30 2 1 2 3
M  V30 3 1 3 4
M  V30 4 1 3 5
M  V30 5 1 2 6
M  V30 6 1 4 7
M  V30 7 1 4 8
M  V30 8 1 4 9
M  V30 9 1 5 10
M  V30 10 1 5 11
M  V30 11 1 5 12
M  V30 END BOND
M  V30 END CTAB
M  END
>  <Structure No>
1604

>  <LogS>
1.13611233

>  <MMFF94 Energy>
-18.457

$$$$
Compound 1605
Actelion Java MolfileCreator 2.0

  0  0  0  0  0  0              0 V3000
M  V30 BEGIN CTAB
M  V30 COUNTS 5 4 0 0 0
M  V30 BEGIN ATOM
M  V30 1 S 0.0 0.0 0.0 0
M  V30 2 O -0.2343 -1.0089 -1.0879 0
M  V30 3 O -0.008 -0.6909 1.3339 0
M  V30 4 O 1.4873 0.7432 -0.2365 0 CHG=-1
M  V30 5 O -1.2165 1.1573 -0.0382 0 CHG=-1
M  V30 END ATOM
M  V30 BEGIN BOND
M  V30 1 2 1 2
M  V30 2 2 1 3
M  V30 3 1 1 4
M  V30 4 1 1 5
M  V30 END BOND
M  V30 END CTAB
M  END
>  <Structure No>
1605

>  <LogS>
0.782342373

>  <MMFF94 Energy>
27.585

$$$$
Compound 1606
Actelion Java MolfileCreator 2.0

  0  0  0  0  0  0              0 V3000
M  V30 BEGIN CTAB
M  V30 COUNTS 1 0 0 0 0
M  V30 BEGIN ATOM
M  V30 1 S 0.0 0.0 0.0 0 CHG=-1 VAL=2
M  V30 END ATOM
M  V30 BEGIN BOND
M  V30 END BOND
M  V30 END CTAB
M  END
>  <Structure No>
1606

>  <LogS>
1.243569299

>  <MMFF94 Energy>
6.798e-13

$$$$
Compound 1607
Actelion Java MolfileCreator 2.0

  0  0  0  0  0  0              0 V3000
M  V30 BEGIN CTAB
M  V30 COUNTS 55 57 0 0 0
M  V30 BEGIN ATOM
M  V30 1 S 6.8058 -1.3253 0.9938 0
M  V30 2 O 6.3781 -2.2915 2.0627 0
M  V30 3 O 7.6731 -0.2656 1.6139 0
M  V30 4 O 7.6815 -2.173 -0.1626 0 CHG=-1
M  V30 5 C 5.3943 -0.5664 0.2333 0
M  V30 6 C 5.5392 0.2843 -0.9925 0
M  V30 7 C 4.1833 -0.7751 0.7791 0
M  V30 8 C 4.386 0.7741 -1.654 0
M  V30 9 C 6.8086 0.6163 -1.5114 0
M  V30 10 C 2.9515 -0.2113 0.2023 0
M  V30 11 C 3.0449 0.4658 -1.1128 0
M  V30 12 C 4.5218 1.5488 -2.8203 0
M  V30 13 C 6.9267 1.3907 -2.6675 0
M  V30 14 N 1.8389 -0.3773 0.8619 0
M  V30 15 O 2.0164 0.7212 -1.7957 0
M  V30 16 C 5.787 1.8512 -3.3234 0
M  V30 17 N 0.592 0.1753 0.5192 0
M  V30 18 C -0.6296 -0.3281 1.0889 0
M  V30 19 C -0.7223 -1.6362 1.6204 0
M  V30 20 C -1.7655 0.4982 1.0887 0
M  V30 21 O 0.4008 -2.4788 1.5838 0
M  V30 22 C -1.9468 -2.071 2.1643 0
M  V30 23 C -2.9819 0.0514 1.6181 0
M  V30 24 C 0.4286 -3.8186 2.0661 0
M  V30 25 C -3.0624 -1.2331 2.1655 0
M  V30 26 S -4.4035 1.1032 1.5898 0
M  V30 27 O -3.9717 2.4896 1.9828 0
M  V30 28 O -5.3944 0.6298 2.617 0
M  V30 29 N -5.1859 1.1302 0.0138 0
M  V30 30 C -5.2245 -0.2144 -0.6003 0
M  V30 31 C -4.5384 2.1174 -0.8778 0
M  V30 32 C -6.2414 -1.1173 0.0966 0
M  V30 33 C -5.2828 3.4467 -0.807 0
M  V30 34 H 4.0897 -1.3686 1.6801 0
M  V30 35 H 7.7182 0.2892 -1.0306 0
M  V30 36 H 3.6492 1.9264 -3.3398 0
M  V30 37 H 7.9075 1.6353 -3.0562 0
M  V30 38 H 5.8842 2.4506 -4.2199 0
M  V30 39 H 0.5541 1.0871 0.0132 0
M  V30 40 H -1.6944 1.4984 0.6825 0
M  V30 41 H -2.0498 -3.0613 2.5856 0
M  V30 42 H 1.4464 -4.2342 1.9183 0
M  V30 43 H 0.1906 -3.8405 3.1515 0
M  V30 44 H -0.2969 -4.4423 1.5011 0
M  V30 45 H -3.9891 -1.5927 2.5919 0
M  V30 46 H -5.5615 -0.1414 -1.6584 0
M  V30 47 H -4.2199 -0.6891 -0.6081 0
M  V30 48 H -4.5568 1.7954 -1.9427 0
M  V30 49 H -3.4701 2.2729 -0.6209 0
M  V30 50 H -6.3782 -2.0479 -0.4952 0
M  V30 51 H -5.8929 -1.4058 1.1074 0
M  V30 52 H -7.2215 -0.5996 0.1788 0
M  V30 53 H -5.2573 3.8608 0.2222 0
M  V30 54 H -6.3415 3.3033 -1.1117 0
M  V30 55 H -4.8086 4.1782 -1.4958 0
M  V30 END ATOM
M  V30 BEGIN BOND
M  V30 1 2 1 2
M  V30 2 2 1 3
M  V30 3 1 1 4
M  V30 4 1 1 5
M  V30 5 1 5 6
M  V30 6 2 5 7
M  V30 7 2 6 8
M  V30 8 1 6 9
M  V30 9 1 7 10
M  V30 10 1 8 11
M  V30 11 1 8 12
M  V30 12 2 9 13
M  V30 13 2 10 14
M  V30 14 2 11 15
M  V30 15 2 12 16
M  V30 16 1 14 17
M  V30 17 1 17 18
M  V30 18 2 18 19
M  V30 19 1 18 20
M  V30 20 1 19 21
M  V30 21 1 19 22
M  V30 22 2 20 23
M  V30 23 1 21 24
M  V30 24 2 22 25
M  V30 25 1 23 26
M  V30 26 2 26 27
M  V30 27 2 26 28
M  V30 28 1 26 29
M  V30 29 1 29 30
M  V30 30 1 29 31
M  V30 31 1 30 32
M  V30 32 1 31 33
M  V30 33 1 10 11
M  V30 34 1 13 16
M  V30 35 1 23 25
M  V30 36 1 7 34
M  V30 37 1 9 35
M  V30 38 1 12 36
M  V30 39 1 13 37
M  V30 40 1 16 38
M  V30 41 1 17 39
M  V30 42 1 20 40
M  V30 43 1 22 41
M  V30 44 1 24 42
M  V30 45 1 24 43
M  V30 46 1 24 44
M  V30 47 1 25 45
M  V30 48 1 30 46
M  V30 49 1 30 47
M  V30 50 1 31 48
M  V30 51 1 31 49
M  V30 52 1 32 50
M  V30 53 1 32 51
M  V30 54 1 32 52
M  V30 55 1 33 53
M  V30 56 1 33 54
M  V30 57 1 33 55
M  V30 END BOND
M  V30 END CTAB
M  END
>  <Structure No>
1607

>  <LogS>
-2.466753911

>  <MMFF94 Energy>
81.681

$$$$
Compound 1608
Actelion Java MolfileCreator 2.0

  0  0  0  0  0  0              0 V3000
M  V30 BEGIN CTAB
M  V30 COUNTS 29 29 0 0 0
M  V30 BEGIN ATOM
M  V30 1 O 2.0421 -1.6491 0.0784 0
M  V30 2 C 1.197 -0.7158 0.1685 0
M  V30 3 O 1.6091 0.5714 0.5372 0
M  V30 4 N -0.1976 -0.9757 -0.0873 0
M  V30 5 C 2.9744 0.9379 0.7221 0
M  V30 6 C -1.109 0.1235 -0.2951 0
M  V30 7 C -0.684 -2.3611 -0.1711 0
M  V30 8 C 3.6722 1.0991 -0.623 0
M  V30 9 C -2.3609 0.1494 0.3456 0
M  V30 10 C -0.7647 1.1778 -1.1612 0
M  V30 11 C -0.7121 -3.0147 1.2084 0
M  V30 12 C -3.2421 1.2143 0.1341 0
M  V30 13 C -1.649 2.2404 -1.3696 0
M  V30 14 C -2.8861 2.2594 -0.7215 0
M  V30 15 H 3.0097 1.9082 1.2606 0
M  V30 16 H 3.4996 0.1796 1.3425 0
M  V30 17 H -1.7056 -2.392 -0.6093 0
M  V30 18 H -0.0271 -2.9509 -0.8462 0
M  V30 19 H 3.6917 0.132 -1.1671 0
M  V30 20 H 3.1369 1.8525 -1.2388 0
M  V30 21 H 4.7166 1.4401 -0.4634 0
M  V30 22 H -2.6532 -0.6466 1.0161 0
M  V30 23 H 0.183 1.1699 -1.6843 0
M  V30 24 H -1.3474 -2.4289 1.9042 0
M  V30 25 H 0.3136 -3.082 1.6269 0
M  V30 26 H -1.1274 -4.0409 1.1249 0
M  V30 27 H -4.2017 1.2293 0.6346 0
M  V30 28 H -1.3765 3.0474 -2.0373 0
M  V30 29 H -3.5699 3.0825 -0.8842 0
M  V30 END ATOM
M  V30 BEGIN BOND
M  V30 1 2 1 2
M  V30 2 1 2 3
M  V30 3 1 2 4
M  V30 4 1 3 5
M  V30 5 1 4 6
M  V30 6 1 4 7
M  V30 7 1 5 8
M  V30 8 2 6 9
M  V30 9 1 6 10
M  V30 10 1 7 11
M  V30 11 1 9 12
M  V30 12 2 10 13
M  V30 13 2 12 14
M  V30 14 1 13 14
M  V30 15 1 5 15
M  V30 16 1 5 16
M  V30 17 1 7 17
M  V30 18 1 7 18
M  V30 19 1 8 19
M  V30 20 1 8 20
M  V30 21 1 8 21
M  V30 22 1 9 22
M  V30 23 1 10 23
M  V30 24 1 11 24
M  V30 25 1 11 25
M  V30 26 1 11 26
M  V30 27 1 12 27
M  V30 28 1 13 28
M  V30 29 1 14 29
M  V30 END BOND
M  V30 END CTAB
M  END
>  <Structure No>
1608

>  <LogS>
0.867399476

>  <MMFF94 Energy>
-16.434

$$$$
Compound 1609
Actelion Java MolfileCreator 2.0

  0  0  0  0  0  0              0 V3000
M  V30 BEGIN CTAB
M  V30 COUNTS 27 28 0 0 0
M  V30 BEGIN ATOM
M  V30 1 S 0.0 -1.4795 -1.2328 0
M  V30 2 O 0.2431 -2.9008 -0.8069 0
M  V30 3 O -0.2283 -1.4704 -2.719 0
M  V30 4 C -1.4139 -0.8389 -0.4049 0
M  V30 5 C 1.3968 -0.4867 -0.8346 0
M  V30 6 C -2.2055 0.1422 -1.0183 0
M  V30 7 C -1.7354 -1.2813 0.8859 0
M  V30 8 C 2.1811 -0.7911 0.2866 0
M  V30 9 C 1.711 0.6335 -1.6166 0
M  V30 10 C -3.3181 0.6654 -0.3517 0
M  V30 11 C -2.8482 -0.7573 1.5516 0
M  V30 12 C 3.2796 0.0098 0.6142 0
M  V30 13 C 2.8096 1.4339 -1.2881 0
M  V30 14 C -3.6436 0.2174 0.933 0
M  V30 15 C 3.598 1.1228 -0.1713 0
M  V30 16 O -4.7546 0.747 1.5857 0
M  V30 17 O 4.695 1.9122 0.166 0
M  V30 18 H -1.9603 0.5045 -2.0084 0
M  V30 19 H -1.1241 -2.027 1.3779 0
M  V30 20 H 1.9409 -1.6441 0.9085 0
M  V30 21 H 1.1047 0.8897 -2.4762 0
M  V30 22 H -3.926 1.4214 -0.8324 0
M  V30 23 H -3.0894 -1.1069 2.5474 0
M  V30 24 H 3.8821 -0.2327 1.4805 0
M  V30 25 H 3.0455 2.2958 -1.8993 0
M  V30 26 H -5.0159 0.4438 2.5167 0
M  V30 27 H 4.9509 2.7251 -0.3823 0
M  V30 END ATOM
M  V30 BEGIN BOND
M  V30 1 2 1 2
M  V30 2 2 1 3
M  V30 3 1 1 4
M  V30 4 1 1 5
M  V30 5 2 4 6
M  V30 6 1 4 7
M  V30 7 2 5 8
M  V30 8 1 5 9
M  V30 9 1 6 10
M  V30 10 2 7 11
M  V30 11 1 8 12
M  V30 12 2 9 13
M  V30 13 2 10 14
M  V30 14 2 12 15
M  V30 15 1 14 16
M  V30 16 1 15 17
M  V30 17 1 11 14
M  V30 18 1 13 15
M  V30 19 1 6 18
M  V30 20 1 7 19
M  V30 21 1 8 20
M  V30 22 1 9 21
M  V30 23 1 10 22
M  V30 24 1 11 23
M  V30 25 1 12 24
M  V30 26 1 13 25
M  V30 27 1 16 26
M  V30 28 1 17 27
M  V30 END BOND
M  V30 END CTAB
M  END
>  <Structure No>
1609

>  <LogS>
-2.357024785

>  <MMFF94 Energy>
63.989

$$$$
Compound 1610
Actelion Java MolfileCreator 2.0

  0  0  0  0  0  0              0 V3000
M  V30 BEGIN CTAB
M  V30 COUNTS 55 57 0 0 0
M  V30 BEGIN ATOM
M  V30 1 O 0.6413 0.2404 1.6038 0
M  V30 2 C 1.3343 0.3307 0.5541 0
M  V30 3 C 0.8147 1.1116 -0.597 0
M  V30 4 C 2.642 -0.4091 0.4855 0
M  V30 5 C -0.5377 0.9704 -0.9828 0
M  V30 6 C 1.6482 2.0101 -1.2989 0
M  V30 7 C 3.6362 0.1294 1.5203 0
M  V30 8 O -1.3517 0.0674 -0.273 0
M  V30 9 C -1.0272 1.7135 -2.0749 0
M  V30 10 O 2.9728 2.2017 -0.908 0
M  V30 11 C 1.1406 2.7352 -2.3834 0
M  V30 12 C 4.9706 -0.5498 1.3726 0
M  V30 13 C -2.7672 -0.0802 -0.4085 0 CFG=1
M  V30 14 C -0.1898 2.5897 -2.7719 0
M  V30 15 C 5.939 -0.0247 0.5015 0
M  V30 16 C 5.2373 -1.746 2.0582 0
M  V30 17 O -3.1603 -1.2423 0.2947 0
M  V30 18 C -3.5079 1.1516 0.1743 0 CFG=2
M  V30 19 O -0.6719 3.3224 -3.8544 0
M  V30 20 C 7.1661 -0.6743 0.3382 0
M  V30 21 C 6.4651 -2.3939 1.8929 0
M  V30 22 C -4.4832 -1.6399 -0.0548 0 CFG=2
M  V30 23 O -2.7689 1.699 1.2368 0
M  V30 24 C -4.9202 0.7571 0.6774 0 CFG=2
M  V30 25 C 7.4326 -1.8605 1.0353 0
M  V30 26 C -5.4769 -0.4271 -0.1314 0 CFG=2
M  V30 27 C -4.9203 -2.7123 0.9566 0
M  V30 28 O -5.7933 1.859 0.6364 0
M  V30 29 O 8.6517 -2.5165 0.8807 0
M  V30 30 O -6.7616 -0.754 0.3363 0
M  V30 31 O -6.0306 -3.4174 0.4733 0
M  V30 32 H 3.0748 -0.3392 -0.5357 0
M  V30 33 H 2.4491 -1.4851 0.6871 0
M  V30 34 H 3.2389 -0.0412 2.5452 0
M  V30 35 H 3.7597 1.2272 1.398 0
M  V30 36 H -2.0501 1.6128 -2.4048 0
M  V30 37 H 3.5857 2.8448 -1.3954 0
M  V30 38 H 1.781 3.4221 -2.9226 0
M  V30 39 H -3.0065 -0.2036 -1.4907 0
M  V30 40 H 5.7424 0.8857 -0.0511 0
M  V30 41 H 4.4945 -2.1765 2.7183 0
M  V30 42 H -3.598 1.9064 -0.64 0
M  V30 43 H -1.6338 3.2424 -4.1631 0
M  V30 44 H 7.9065 -0.2577 -0.3324 0
M  V30 45 H 6.6635 -3.3132 2.4289 0
M  V30 46 H -4.4481 -2.1301 -1.0546 0
M  V30 47 H -3.1235 2.6135 1.3906 0
M  V30 48 H -4.842 0.4295 1.7384 0
M  V30 49 H -5.5463 -0.1001 -1.1973 0
M  V30 50 H -4.0817 -3.4276 1.1134 0
M  V30 51 H -5.1594 -2.2369 1.9347 0
M  V30 52 H -5.9166 2.1113 -0.3158 0
M  V30 53 H 9.3729 -2.1556 0.2672 0
M  V30 54 H -7.2301 -1.2116 -0.4096 0
M  V30 55 H -6.2718 -4.0696 1.1812 0
M  V30 END ATOM
M  V30 BEGIN BOND
M  V30 1 2 1 2
M  V30 2 1 2 3
M  V30 3 1 2 4
M  V30 4 2 3 5
M  V30 5 1 3 6
M  V30 6 1 4 7
M  V30 7 1 5 8
M  V30 8 1 5 9
M  V30 9 1 6 10
M  V30 10 2 6 11
M  V30 11 1 7 12
M  V30 12 1 8 13
M  V30 13 2 9 14
M  V30 14 2 12 15
M  V30 15 1 12 16
M  V30 16 1 13 17
M  V30 17 1 13 18
M  V30 18 1 14 19
M  V30 19 1 15 20
M  V30 20 2 16 21
M  V30 21 1 17 22
M  V30 22 1 18 23
M  V30 23 1 18 24
M  V30 24 2 20 25
M  V30 25 1 22 26
M  V30 26 1 22 27
M  V30 27 1 24 28
M  V30 28 1 25 29
M  V30 29 1 26 30
M  V30 30 1 27 31
M  V30 31 1 11 14
M  V30 32 1 21 25
M  V30 33 1 24 26
M  V30 34 1 4 32
M  V30 35 1 4 33
M  V30 36 1 7 34
M  V30 37 1 7 35
M  V30 38 1 9 36
M  V30 39 1 10 37
M  V30 40 1 11 38
M  V30 41 1 13 39
M  V30 42 1 15 40
M  V30 43 1 16 41
M  V30 44 1 18 42
M  V30 45 1 19 43
M  V30 46 1 20 44
M  V30 47 1 21 45
M  V30 48 1 22 46
M  V30 49 1 23 47
M  V30 50 1 24 48
M  V30 51 1 26 49
M  V30 52 1 27 50
M  V30 53 1 27 51
M  V30 54 1 28 52
M  V30 55 1 29 53
M  V30 56 1 30 54
M  V30 57 1 31 55
M  V30 END BOND
M  V30 BEGIN COLLECTION
M  V30 MDLV30/STEABS ATOMS=(5 13 18 22 24 26)
M  V30 END COLLECTION
M  V30 END CTAB
M  END
>  <Structure No>
1610

>  <LogS>
-2.639897679

>  <MMFF94 Energy>
141.43

$$$$
Compound 1611
Actelion Java MolfileCreator 2.0

  0  0  0  0  0  0              0 V3000
M  V30 BEGIN CTAB
M  V30 COUNTS 17 17 0 0 0
M  V30 BEGIN ATOM
M  V30 1 Cl 1.2828 2.8077 -0.8016 0
M  V30 2 C 1.0004 1.1467 -0.2843 0
M  V30 3 C -0.2894 0.5581 -0.2701 0
M  V30 4 C 2.1142 0.4049 0.1231 0
M  V30 5 C -0.4261 -0.7873 0.1619 0
M  V30 6 C -1.5092 1.3361 -0.7046 0
M  V30 7 C 1.9693 -0.9141 0.5452 0
M  V30 8 N -1.7036 -1.4414 0.1998 0
M  V30 9 C 0.7087 -1.5066 0.5648 0
M  V30 10 H 3.0998 0.8533 0.1129 0
M  V30 11 H -1.2816 2.3722 -1.0199 0
M  V30 12 H -1.9892 0.8261 -1.5663 0
M  V30 13 H -2.2313 1.3976 0.1366 0
M  V30 14 H 2.8375 -1.4797 0.8586 0
M  V30 15 H -2.5866 -0.9656 -0.0853 0
M  V30 16 H -1.7806 -2.4323 0.5214 0
M  V30 17 H 0.6146 -2.5334 0.896 0
M  V30 END ATOM
M  V30 BEGIN BOND
M  V30 1 1 1 2
M  V30 2 2 2 3
M  V30 3 1 2 4
M  V30 4 1 3 5
M  V30 5 1 3 6
M  V30 6 2 4 7
M  V30 7 1 5 8
M  V30 8 2 5 9
M  V30 9 1 7 9
M  V30 10 1 4 10
M  V30 11 1 6 11
M  V30 12 1 6 12
M  V30 13 1 6 13
M  V30 14 1 7 14
M  V30 15 1 8 15
M  V30 16 1 8 16
M  V30 17 1 9 17
M  V30 END BOND
M  V30 END CTAB
M  END
>  <Structure No>
1611

>  <LogS>
-2.15106632

>  <MMFF94 Energy>
14.275

$$$$
Compound 1612
Actelion Java MolfileCreator 2.0

  0  0  0  0  0  0              0 V3000
M  V30 BEGIN CTAB
M  V30 COUNTS 24 24 0 0 0
M  V30 BEGIN ATOM
M  V30 1 O 2.9138 -1.023 -1.1017 0
M  V30 2 C 2.6169 -0.1445 -0.2472 0
M  V30 3 O 1.6586 -0.398 0.7399 0
M  V30 4 C 3.2576 1.1994 -0.3173 0
M  V30 5 C 0.9153 -1.6137 0.8209 0
M  V30 6 C -0.1625 -1.6787 -0.2662 0
M  V30 7 C -1.1211 -0.5222 -0.1541 0
M  V30 8 C -0.912 0.649 -0.9019 0
M  V30 9 C -2.2046 -0.5847 0.738 0
M  V30 10 C -1.785 1.7334 -0.7708 0
M  V30 11 C -3.0756 0.5018 0.8655 0
M  V30 12 C -2.8669 1.6593 0.1107 0
M  V30 13 H 2.6916 1.8406 -1.0245 0
M  V30 14 H 3.2539 1.6732 0.6864 0
M  V30 15 H 4.3076 1.1052 -0.6659 0
M  V30 16 H 0.4315 -1.6684 1.8194 0
M  V30 17 H 1.5988 -2.4856 0.7306 0
M  V30 18 H 0.3137 -1.6883 -1.27 0
M  V30 19 H -0.7189 -2.6359 -0.166 0
M  V30 20 H -0.0732 0.7232 -1.5828 0
M  V30 21 H -2.3721 -1.4727 1.3348 0
M  V30 22 H -1.6211 2.6325 -1.3507 0
M  V30 23 H -3.9107 0.4476 1.552 0
M  V30 24 H -3.5411 2.4999 0.2117 0
M  V30 END ATOM
M  V30 BEGIN BOND
M  V30 1 2 1 2
M  V30 2 1 2 3
M  V30 3 1 2 4
M  V30 4 1 3 5
M  V30 5 1 5 6
M  V30 6 1 6 7
M  V30 7 2 7 8
M  V30 8 1 7 9
M  V30 9 1 8 10
M  V30 10 2 9 11
M  V30 11 2 10 12
M  V30 12 1 11 12
M  V30 13 1 4 13
M  V30 14 1 4 14
M  V30 15 1 4 15
M  V30 16 1 5 16
M  V30 17 1 5 17
M  V30 18 1 6 18
M  V30 19 1 6 19
M  V30 20 1 8 20
M  V30 21 1 9 21
M  V30 22 1 10 22
M  V30 23 1 11 23
M  V30 24 1 12 24
M  V30 END BOND
M  V30 END CTAB
M  END
>  <Structure No>
1612

>  <LogS>
-2.231757445

>  <MMFF94 Energy>
15.758

$$$$
Compound 1613
Actelion Java MolfileCreator 2.0

  0  0  0  0  0  0              0 V3000
M  V30 BEGIN CTAB
M  V30 COUNTS 25 25 0 0 0
M  V30 BEGIN ATOM
M  V30 1 S -2.5202 1.0075 1.3435 0
M  V30 2 S -4.3314 0.2206 0.5338 0
M  V30 3 C -1.6518 0.7137 -0.2177 0 CFG=2
M  V30 4 C -3.517 -0.8371 -0.7151 0
M  V30 5 C -2.0005 -0.7026 -0.656 0
M  V30 6 C -0.1357 0.9696 -0.0948 0
M  V30 7 C 0.5996 0.0146 0.8671 0
M  V30 8 C 2.0282 0.4872 1.1934 0
M  V30 9 C 2.9793 0.5003 -0.0138 0
M  V30 10 C 3.1737 -0.8681 -0.5903 0
M  V30 11 O 3.9367 -1.6923 -0.0215 0
M  V30 12 O 2.4846 -1.245 -1.7361 0 CHG=-1
M  V30 13 H -2.0513 1.4301 -0.9701 0
M  V30 14 H -3.8762 -0.5202 -1.7173 0
M  V30 15 H -3.8142 -1.8955 -0.5571 0
M  V30 16 H -1.6131 -1.4411 0.0781 0
M  V30 17 H -1.557 -0.9245 -1.6508 0
M  V30 18 H 0.3111 0.8802 -1.1079 0
M  V30 19 H 0.011 2.0191 0.2423 0
M  V30 20 H 0.6386 -1.007 0.4347 0
M  V30 21 H 0.0433 -0.0513 1.8258 0
M  V30 22 H 1.9844 1.5101 1.6267 0
M  V30 23 H 2.452 -0.1781 1.9774 0
M  V30 24 H 3.9662 0.8907 0.3157 0
M  V30 25 H 2.6051 1.1916 -0.7975 0
M  V30 END ATOM
M  V30 BEGIN BOND
M  V30 1 1 1 2
M  V30 2 1 1 3
M  V30 3 1 2 4
M  V30 4 1 3 5
M  V30 5 1 3 6
M  V30 6 1 6 7
M  V30 7 1 7 8
M  V30 8 1 8 9
M  V30 9 1 9 10
M  V30 10 2 10 11
M  V30 11 1 10 12
M  V30 12 1 4 5
M  V30 13 1 3 13
M  V30 14 1 4 14
M  V30 15 1 4 15
M  V30 16 1 5 16
M  V30 17 1 5 17
M  V30 18 1 6 18
M  V30 19 1 6 19
M  V30 20 1 7 20
M  V30 21 1 7 21
M  V30 22 1 8 22
M  V30 23 1 8 23
M  V30 24 1 9 24
M  V30 25 1 9 25
M  V30 END BOND
M  V30 BEGIN COLLECTION
M  V30 MDLV30/STEABS ATOMS=(1 3)
M  V30 END COLLECTION
M  V30 END CTAB
M  END
>  <Structure No>
1613

>  <LogS>
-2.375047335

>  <MMFF94 Energy>
8.3353

$$$$
Compound 1614
Actelion Java MolfileCreator 2.0

  0  0  0  0  0  0              0 V3000
M  V30 BEGIN CTAB
M  V30 COUNTS 24 25 0 0 0
M  V30 BEGIN ATOM
M  V30 1 O 4.1385 0.7948 -0.1589 0
M  V30 2 C 3.058 -0.0362 -0.5102 0 CFG=1
M  V30 3 C 3.7627 -0.1863 0.7821 0
M  V30 4 C 1.7299 0.714 -0.4811 0
M  V30 5 O 0.6817 -0.2094 -0.203 0
M  V30 6 C -0.6795 0.1276 -0.123 0
M  V30 7 C -1.6144 -0.8855 0.171 0
M  V30 8 C -1.1338 1.4463 -0.3282 0
M  V30 9 C -2.9812 -0.5704 0.2552 0
M  V30 10 C -1.1517 -2.2981 0.3935 0
M  V30 11 C -2.4954 1.746 -0.2413 0
M  V30 12 C -3.4171 0.74 0.0497 0
M  V30 13 H 3.3112 -0.7394 -1.3312 0
M  V30 14 H 3.3002 0.2729 1.6815 0
M  V30 15 H 4.5156 -0.9997 0.8363 0
M  V30 16 H 1.5663 1.1747 -1.4787 0
M  V30 17 H 1.737 1.5168 0.2899 0
M  V30 18 H -0.4433 2.2466 -0.5559 0
M  V30 19 H -3.7111 -1.3382 0.4801 0
M  V30 20 H -2.0012 -2.9771 0.62 0
M  V30 21 H -0.6395 -2.6712 -0.5182 0
M  V30 22 H -0.4426 -2.329 1.2475 0
M  V30 23 H -2.8367 2.761 -0.4002 0
M  V30 24 H -4.4715 0.976 0.1161 0
M  V30 END ATOM
M  V30 BEGIN BOND
M  V30 1 1 1 2
M  V30 2 1 1 3
M  V30 3 1 2 4
M  V30 4 1 4 5
M  V30 5 1 5 6
M  V30 6 2 6 7
M  V30 7 1 6 8
M  V30 8 1 7 9
M  V30 9 1 7 10
M  V30 10 2 8 11
M  V30 11 2 9 12
M  V30 12 1 2 3
M  V30 13 1 11 12
M  V30 14 1 2 13
M  V30 15 1 3 14
M  V30 16 1 3 15
M  V30 17 1 4 16
M  V30 18 1 4 17
M  V30 19 1 8 18
M  V30 20 1 9 19
M  V30 21 1 10 20
M  V30 22 1 10 21
M  V30 23 1 10 22
M  V30 24 1 11 23
M  V30 25 1 12 24
M  V30 END BOND
M  V30 BEGIN COLLECTION
M  V30 MDLV30/STEABS ATOMS=(1 2)
M  V30 END COLLECTION
M  V30 END CTAB
M  END
>  <Structure No>
1614

>  <LogS>
-2.291104446

>  <MMFF94 Energy>
34.992

$$$$
Compound 1615
Actelion Java MolfileCreator 2.0

  0  0  0  0  0  0              0 V3000
M  V30 BEGIN CTAB
M  V30 COUNTS 56 55 0 0 0
M  V30 BEGIN ATOM
M  V30 1 N 5.5127 1.3953 -0.5424 0 CHG=1
M  V30 2 C 4.1099 0.8918 -0.6641 0
M  V30 3 C 6.4949 0.2897 -0.6516 0
M  V30 4 C 5.7554 2.3445 -1.6565 0
M  V30 5 C 5.7169 2.118 0.7363 0
M  V30 6 C 3.68 -0.1276 0.4166 0
M  V30 7 C 2.2251 -0.5658 0.2014 0
M  V30 8 C 1.7862 -1.5705 1.2777 0
M  V30 9 C 0.3783 -2.1316 1.0234 0
M  V30 10 C -0.7233 -1.0758 1.2211 0
M  V30 11 C -2.1324 -1.6881 1.2315 0
M  V30 12 C -2.5364 -2.2673 -0.1359 0
M  V30 13 C -4.0304 -2.6514 -0.1862 0
M  V30 14 C -4.9019 -1.6339 -0.9424 0
M  V30 15 C -4.987 -0.2757 -0.2326 0
M  V30 16 C -5.9766 0.6572 -0.9458 0
M  V30 17 C -6.1717 1.9883 -0.2036 0
M  V30 18 C -4.9398 2.8907 -0.2714 0
M  V30 19 H 3.9688 0.4111 -1.6598 0
M  V30 20 H 3.3992 1.7497 -0.6263 0
M  V30 21 H 6.4668 -0.3731 0.2394 0
M  V30 22 H 6.3012 -0.3286 -1.5563 0
M  V30 23 H 7.534 0.6831 -0.7203 0
M  V30 24 H 5.6295 1.8447 -2.6434 0
M  V30 25 H 5.0469 3.2023 -1.6137 0
M  V30 26 H 6.7879 2.7594 -1.6196 0
M  V30 27 H 4.9325 2.8928 0.8873 0
M  V30 28 H 6.708 2.6247 0.7556 0
M  V30 29 H 5.6996 1.4268 1.6056 0
M  V30 30 H 4.3241 -1.0296 0.3707 0
M  V30 31 H 3.7595 0.324 1.4268 0
M  V30 32 H 1.5706 0.3308 0.2407 0
M  V30 33 H 2.1271 -1.0336 -0.8026 0
M  V30 34 H 2.4986 -2.4243 1.2847 0
M  V30 35 H 1.8253 -1.0922 2.2809 0
M  V30 36 H 0.3295 -2.5477 -0.0057 0
M  V30 37 H 0.21 -2.9684 1.736 0
M  V30 38 H -0.5657 -0.5634 2.1953 0
M  V30 39 H -0.6666 -0.3072 0.4211 0
M  V30 40 H -2.8463 -0.8915 1.5277 0
M  V30 41 H -2.19 -2.4844 2.0057 0
M  V30 42 H -1.9355 -3.1843 -0.318 0
M  V30 43 H -2.2895 -1.5488 -0.948 0
M  V30 44 H -4.4396 -2.8158 0.8351 0
M  V30 45 H -4.1211 -3.623 -0.7196 0
M  V30 46 H -5.9249 -2.0607 -1.0312 0
M  V30 47 H -4.5057 -1.4955 -1.9723 0
M  V30 48 H -5.3152 -0.4281 0.8188 0
M  V30 49 H -3.9821 0.1942 -0.234 0
M  V30 50 H -5.631 0.8526 -1.9847 0
M  V30 51 H -6.966 0.1532 -1.0087 0
M  V30 52 H -7.024 2.5279 -0.6704 0
M  V30 53 H -6.4364 1.7988 0.8592 0
M  V30 54 H -4.1004 2.4551 0.3087 0
M  V30 55 H -4.6242 3.0403 -1.3257 0
M  V30 56 H -5.1839 3.8809 0.1678 0
M  V30 END ATOM
M  V30 BEGIN BOND
M  V30 1 1 1 2
M  V30 2 1 1 3
M  V30 3 1 1 4
M  V30 4 1 1 5
M  V30 5 1 2 6
M  V30 6 1 6 7
M  V30 7 1 7 8
M  V30 8 1 8 9
M  V30 9 1 9 10
M  V30 10 1 10 11
M  V30 11 1 11 12
M  V30 12 1 12 13
M  V30 13 1 13 14
M  V30 14 1 14 15
M  V30 15 1 15 16
M  V30 16 1 16 17
M  V30 17 1 17 18
M  V30 18 1 2 19
M  V30 19 1 2 20
M  V30 20 1 3 21
M  V30 21 1 3 22
M  V30 22 1 3 23
M  V30 23 1 4 24
M  V30 24 1 4 25
M  V30 25 1 4 26
M  V30 26 1 5 27
M  V30 27 1 5 28
M  V30 28 1 5 29
M  V30 29 1 6 30
M  V30 30 1 6 31
M  V30 31 1 7 32
M  V30 32 1 7 33
M  V30 33 1 8 34
M  V30 34 1 8 35
M  V30 35 1 9 36
M  V30 36 1 9 37
M  V30 37 1 10 38
M  V30 38 1 10 39
M  V30 39 1 11 40
M  V30 40 1 11 41
M  V30 41 1 12 42
M  V30 42 1 12 43
M  V30 43 1 13 44
M  V30 44 1 13 45
M  V30 45 1 14 46
M  V30 46 1 14 47
M  V30 47 1 15 48
M  V30 48 1 15 49
M  V30 49 1 16 50
M  V30 50 1 16 51
M  V30 51 1 17 52
M  V30 52 1 17 53
M  V30 53 1 18 54
M  V30 54 1 18 55
M  V30 55 1 18 56
M  V30 END BOND
M  V30 END CTAB
M  END
>  <Structure No>
1615

>  <LogS>
-2.898070996

>  <MMFF94 Energy>
16.214

$$$$
Compound 1616
Actelion Java MolfileCreator 2.0

  0  0  0  0  0  0              0 V3000
M  V30 BEGIN CTAB
M  V30 COUNTS 35 35 0 0 0
M  V30 BEGIN ATOM
M  V30 1 S -4.9396 -1.1705 0.9196 0
M  V30 2 O -4.4834 -2.1373 1.9756 0
M  V30 3 O -6.0604 -1.7881 0.1324 0
M  V30 4 O -5.4885 0.2384 1.6517 0 CHG=-1
M  V30 5 C -3.5851 -0.792 -0.1799 0
M  V30 6 C -2.4072 -0.1794 0.5967 0
M  V30 7 N -1.3283 0.3092 -0.2979 0 CHG=1
M  V30 8 C -0.4241 1.201 0.46 0
M  V30 9 C -0.5585 -0.8138 -0.877 0
M  V30 10 C 0.7388 1.7088 -0.4155 0
M  V30 11 C 0.5587 -0.2919 -1.7921 0
M  V30 12 N 1.4789 0.6117 -1.0754 0
M  V30 13 C 2.4005 -0.1041 -0.1635 0
M  V30 14 C 3.7598 0.5976 -0.1368 0
M  V30 15 S 4.9084 -0.2787 0.9115 0
M  V30 16 O 4.3815 -0.323 2.3182 0
M  V30 17 O 6.2323 0.4313 0.8998 0
M  V30 18 O 5.1151 -1.8458 0.3428 0 CHG=-1
M  V30 19 H -3.9463 -0.0785 -0.9505 0
M  V30 20 H -3.2793 -1.7344 -0.6773 0
M  V30 21 H -2.8118 0.6696 1.1936 0
M  V30 22 H -2.0089 -0.9274 1.3195 0
M  V30 23 H -1.7605 0.8669 -1.0738 0
M  V30 24 H -0.9864 2.0922 0.8199 0
M  V30 25 H -0.0274 0.6831 1.361 0
M  V30 26 H -0.1179 -1.448 -0.0746 0
M  V30 27 H -1.2158 -1.4581 -1.4976 0
M  V30 28 H 1.4223 2.3256 0.2062 0
M  V30 29 H 0.3297 2.3851 -1.1977 0
M  V30 30 H 1.1131 -1.1468 -2.2376 0
M  V30 31 H 0.1027 0.2582 -2.6444 0
M  V30 32 H 2.57 -1.1478 -0.5099 0
M  V30 33 H 1.9925 -0.1686 0.8671 0
M  V30 34 H 3.6537 1.6335 0.2464 0
M  V30 35 H 4.1764 0.6413 -1.1656 0
M  V30 END ATOM
M  V30 BEGIN BOND
M  V30 1 2 1 2
M  V30 2 2 1 3
M  V30 3 1 1 4
M  V30 4 1 1 5
M  V30 5 1 5 6
M  V30 6 1 6 7
M  V30 7 1 7 8
M  V30 8 1 7 9
M  V30 9 1 8 10
M  V30 10 1 9 11
M  V30 11 1 10 12
M  V30 12 1 12 13
M  V30 13 1 13 14
M  V30 14 1 14 15
M  V30 15 2 15 16
M  V30 16 2 15 17
M  V30 17 1 15 18
M  V30 18 1 11 12
M  V30 19 1 5 19
M  V30 20 1 5 20
M  V30 21 1 6 21
M  V30 22 1 6 22
M  V30 23 1 7 23
M  V30 24 1 8 24
M  V30 25 1 8 25
M  V30 26 1 9 26
M  V30 27 1 9 27
M  V30 28 1 10 28
M  V30 29 1 10 29
M  V30 30 1 11 30
M  V30 31 1 11 31
M  V30 32 1 13 32
M  V30 33 1 13 33
M  V30 34 1 14 34
M  V30 35 1 14 35
M  V30 END BOND
M  V30 END CTAB
M  END
>  <Structure No>
1616

>  <LogS>
-2.747593942

>  <MMFF94 Energy>
2.1619

$$$$
Compound 1617
Actelion Java MolfileCreator 2.0

  0  0  0  0  0  0              0 V3000
M  V30 BEGIN CTAB
M  V30 COUNTS 32 34 0 0 0
M  V30 BEGIN ATOM
M  V30 1 Cl 5.8902 0.0805 -2.3368 0
M  V30 2 C 4.2924 0.0142 -1.6172 0
M  V30 3 C 4.1524 -0.3006 -0.2526 0
M  V30 4 C 3.1518 0.2793 -2.4093 0
M  V30 5 C 2.8636 -0.3411 0.2732 0
M  V30 6 C 1.8623 0.2313 -1.8473 0
M  V30 7 N 2.4974 -0.6089 1.5367 0
M  V30 8 C 1.7539 -0.0872 -0.4891 0
M  V30 9 C 1.1486 -0.5084 1.5113 0
M  V30 10 N 0.6492 -0.1942 0.2835 0
M  V30 11 O 0.4342 -0.6821 2.5345 0
M  V30 12 C -0.7575 0.0084 -0.1052 0
M  V30 13 C -1.5974 -1.2482 0.17 0
M  V30 14 C -1.3563 1.2458 0.5996 0
M  V30 15 C -3.0582 -1.0582 -0.2979 0
M  V30 16 C -2.8882 1.1503 0.7478 0
M  V30 17 N -3.4837 0.3574 -0.3376 0 CHG=1
M  V30 18 H 5.015 -0.5034 0.369 0
M  V30 19 H 3.2667 0.5226 -3.4577 0
M  V30 20 H 0.9981 0.4388 -2.4617 0
M  V30 21 H 3.1109 -0.8342 2.3514 0
M  V30 22 H -0.8151 0.1894 -1.1991 0
M  V30 23 H -1.6004 -1.4687 1.2585 0
M  V30 24 H -1.1494 -2.1225 -0.3503 0
M  V30 25 H -0.9156 1.3825 1.6099 0
M  V30 26 H -1.0988 2.1505 0.0065 0
M  V30 27 H -3.7289 -1.6344 0.3784 0
M  V30 28 H -3.1713 -1.4976 -1.314 0
M  V30 29 H -3.3207 2.1752 0.7448 0
M  V30 30 H -3.1407 0.6889 1.7295 0
M  V30 31 H -4.5261 0.3987 -0.2514 0
M  V30 32 H -3.2242 0.7803 -1.26 0
M  V30 END ATOM
M  V30 BEGIN BOND
M  V30 1 1 1 2
M  V30 2 2 2 3
M  V30 3 1 2 4
M  V30 4 1 3 5
M  V30 5 2 4 6
M  V30 6 1 5 7
M  V30 7 2 5 8
M  V30 8 1 7 9
M  V30 9 1 8 10
M  V30 10 2 9 11
M  V30 11 1 10 12
M  V30 12 1 12 13
M  V30 13 1 12 14
M  V30 14 1 13 15
M  V30 15 1 14 16
M  V30 16 1 15 17
M  V30 17 1 6 8
M  V30 18 1 9 10
M  V30 19 1 16 17
M  V30 20 1 3 18
M  V30 21 1 4 19
M  V30 22 1 6 20
M  V30 23 1 7 21
M  V30 24 1 12 22
M  V30 25 1 13 23
M  V30 26 1 13 24
M  V30 27 1 14 25
M  V30 28 1 14 26
M  V30 29 1 15 27
M  V30 30 1 15 28
M  V30 31 1 16 29
M  V30 32 1 16 30
M  V30 33 1 17 31
M  V30 34 1 17 32
M  V30 END BOND
M  V30 END CTAB
M  END
>  <Structure No>
1617

>  <LogS>
-2.663075861

>  <MMFF94 Energy>
-33.378

$$$$
Compound 1618
Actelion Java MolfileCreator 2.0

  0  0  0  0  0  0              0 V3000
M  V30 BEGIN CTAB
M  V30 COUNTS 28 27 0 0 0
M  V30 BEGIN ATOM
M  V30 1 O 2.7983 0.9321 2.4871 0
M  V30 2 C 2.8589 1.1528 1.288 0
M  V30 3 C 1.6481 0.9695 0.4178 0
M  V30 4 C 1.1603 -0.4982 0.367 0 CFG=1
M  V30 5 C -0.0274 -0.7051 -0.6217 0
M  V30 6 C 2.3126 -1.4372 -0.0458 0
M  V30 7 C -1.4191 -0.0549 -0.2922 0
M  V30 8 C -2.5196 -0.897 -0.9806 0
M  V30 9 C -1.7171 -0.0361 1.222 0
M  V30 10 C -1.5198 1.3782 -0.8643 0
M  V30 11 H 3.7924 1.4935 0.8523 0
M  V30 12 H 0.8643 1.6173 0.8477 0
M  V30 13 H 1.8803 1.3268 -0.6087 0
M  V30 14 H 0.8457 -0.808 1.3866 0
M  V30 15 H -0.1832 -1.8055 -0.6877 0
M  V30 16 H 0.2933 -0.3957 -1.6413 0
M  V30 17 H 3.1358 -1.4091 0.6983 0
M  V30 18 H 2.7153 -1.1471 -1.0401 0
M  V30 19 H 1.9603 -2.4895 -0.0962 0
M  V30 20 H -2.3385 -0.9567 -2.0759 0
M  V30 21 H -3.5252 -0.4507 -0.8193 0
M  V30 22 H -2.5393 -1.9314 -0.5739 0
M  V30 23 H -1.6166 -1.0564 1.6508 0
M  V30 24 H -2.7531 0.319 1.4126 0
M  V30 25 H -1.0318 0.6469 1.7633 0
M  V30 26 H -0.8344 2.0855 -0.3674 0
M  V30 27 H -1.294 1.3833 -1.9523 0
M  V30 28 H -2.5473 1.7801 -0.7276 0
M  V30 END ATOM
M  V30 BEGIN BOND
M  V30 1 2 1 2
M  V30 2 1 2 3
M  V30 3 1 3 4
M  V30 4 1 4 5
M  V30 5 1 4 6
M  V30 6 1 5 7
M  V30 7 1 7 8
M  V30 8 1 7 9
M  V30 9 1 7 10
M  V30 10 1 2 11
M  V30 11 1 3 12
M  V30 12 1 3 13
M  V30 13 1 4 14
M  V30 14 1 5 15
M  V30 15 1 5 16
M  V30 16 1 6 17
M  V30 17 1 6 18
M  V30 18 1 6 19
M  V30 19 1 8 20
M  V30 20 1 8 21
M  V30 21 1 8 22
M  V30 22 1 9 23
M  V30 23 1 9 24
M  V30 24 1 9 25
M  V30 25 1 10 26
M  V30 26 1 10 27
M  V30 27 1 10 28
M  V30 END BOND
M  V30 BEGIN COLLECTION
M  V30 MDLV30/STEABS ATOMS=(1 4)
M  V30 END COLLECTION
M  V30 END CTAB
M  END
>  <Structure No>
1618

>  <LogS>
-2.675906595

>  <MMFF94 Energy>
22.336

$$$$
Compound 1619
Actelion Java MolfileCreator 2.0

  0  0  0  0  0  0              0 V3000
M  V30 BEGIN CTAB
M  V30 COUNTS 12 12 0 0 0
M  V30 BEGIN ATOM
M  V30 1 Cl 1.863 -1.7782 -1.6935 0
M  V30 2 C 0.7848 -0.7776 -0.7299 0
M  V30 3 C 1.1725 0.502 -0.2931 0
M  V30 4 C -0.4822 -1.2718 -0.3952 0
M  V30 5 Cl 2.7534 1.1615 -0.6901 0
M  V30 6 C 0.2884 1.2723 0.473 0
M  V30 7 C -1.3598 -0.4979 0.3696 0
M  V30 8 C -0.9747 0.7732 0.8036 0
M  V30 9 H -0.7879 -2.2557 -0.7275 0
M  V30 10 H 0.5794 2.2582 0.813 0
M  V30 11 H -2.3381 -0.8835 0.6262 0
M  V30 12 H -1.6549 1.3717 1.3959 0
M  V30 END ATOM
M  V30 BEGIN BOND
M  V30 1 1 1 2
M  V30 2 2 2 3
M  V30 3 1 2 4
M  V30 4 1 3 5
M  V30 5 1 3 6
M  V30 6 2 4 7
M  V30 7 2 6 8
M  V30 8 1 7 8
M  V30 9 1 4 9
M  V30 10 1 6 10
M  V30 11 1 7 11
M  V30 12 1 8 12
M  V30 END BOND
M  V30 END CTAB
M  END
>  <Structure No>
1619

>  <LogS>
-3.0533858

>  <MMFF94 Energy>
24.968

$$$$
Compound 1620
Actelion Java MolfileCreator 2.0

  0  0  0  0  0  0              0 V3000
M  V30 BEGIN CTAB
M  V30 COUNTS 23 23 0 0 0
M  V30 BEGIN ATOM
M  V30 1 O -3.3595 -0.3901 1.1709 0
M  V30 2 C -1.9954 -0.2876 0.86 0
M  V30 3 C -4.3604 -0.8341 0.2605 0
M  V30 4 C -1.4819 -0.6243 -0.4055 0
M  V30 5 C -1.1194 0.1637 1.852 0
M  V30 6 C -0.1137 -0.5034 -0.6685 0
M  V30 7 C 0.2481 0.2844 1.5918 0
M  V30 8 C 0.7666 -0.035 0.3268 0
M  V30 9 C 2.2273 0.1016 0.1035 0
M  V30 10 C 2.7944 0.1856 -1.1057 0
M  V30 11 C 4.2753 0.3361 -1.2458 0
M  V30 12 H -4.4004 -0.1602 -0.6212 0
M  V30 13 H -4.1478 -1.875 -0.0626 0
M  V30 14 H -5.3466 -0.814 0.7679 0
M  V30 15 H -2.1301 -0.987 -1.1915 0
M  V30 16 H -1.5012 0.4219 2.8318 0
M  V30 17 H 0.2454 -0.8003 -1.6437 0
M  V30 18 H 0.9026 0.6368 2.38 0
M  V30 19 H 2.8661 0.1762 0.977 0
M  V30 20 H 2.2001 0.1733 -2.0085 0
M  V30 21 H 4.6132 1.2623 -0.7345 0
M  V30 22 H 4.7891 -0.5413 -0.7991 0
M  V30 23 H 4.5463 0.4012 -2.3204 0
M  V30 END ATOM
M  V30 BEGIN BOND
M  V30 1 1 1 2
M  V30 2 1 1 3
M  V30 3 2 2 4
M  V30 4 1 2 5
M  V30 5 1 4 6
M  V30 6 2 5 7
M  V30 7 2 6 8
M  V30 8 1 8 9
M  V30 9 2 9 10
M  V30 10 1 10 11
M  V30 11 1 7 8
M  V30 12 1 3 12
M  V30 13 1 3 13
M  V30 14 1 3 14
M  V30 15 1 4 15
M  V30 16 1 5 16
M  V30 17 1 6 17
M  V30 18 1 7 18
M  V30 19 1 9 19
M  V30 20 1 10 20
M  V30 21 1 11 21
M  V30 22 1 11 22
M  V30 23 1 11 23
M  V30 END BOND
M  V30 END CTAB
M  END
>  <Structure No>
1620

>  <LogS>
-3.125539877

>  <MMFF94 Energy>
24.107

$$$$
Compound 1621
Actelion Java MolfileCreator 2.0

  0  0  0  0  0  0              0 V3000
M  V30 BEGIN CTAB
M  V30 COUNTS 35 37 0 0 0
M  V30 BEGIN ATOM
M  V30 1 O -1.2842 2.0072 -0.8025 0
M  V30 2 C -2.3398 1.4329 -0.4275 0
M  V30 3 N -3.5516 1.8362 -0.9073 0
M  V30 4 C -2.3142 0.3767 0.4788 0
M  V30 5 C -4.7162 1.2247 -0.519 0
M  V30 6 C -3.4819 -0.2213 0.8505 0
M  V30 7 C -1.2987 -0.2874 1.1437 0
M  V30 8 N -4.6837 0.1819 0.3681 0
M  V30 9 N -5.9619 1.6786 -1.0475 0
M  V30 10 N -3.2693 -1.235 1.7061 0
M  V30 11 C -1.9288 -1.2861 1.8845 0
M  V30 12 C 0.18 -0.0691 1.0249 0
M  V30 13 C 0.7314 -0.7816 -0.2126 0
M  V30 14 C 2.2098 -0.535 -0.3484 0
M  V30 15 C 3.131 -1.3923 0.2712 0
M  V30 16 C 2.678 0.5874 -1.0473 0
M  V30 17 C 4.5032 -1.1448 0.173 0
M  V30 18 C 4.0501 0.8362 -1.1462 0
M  V30 19 C 4.9773 -0.0291 -0.5383 0
M  V30 20 C 6.4304 0.23 -0.6396 0
M  V30 21 O 6.8602 1.2298 -1.2746 0
M  V30 22 O 7.3427 -0.6271 -0.0351 0 CHG=-1
M  V30 23 H -5.5625 -0.2972 0.6677 0
M  V30 24 H -5.989 2.4726 -1.725 0
M  V30 25 H -6.8584 1.2243 -0.7642 0
M  V30 26 H -3.985 -1.8639 2.1333 0
M  V30 27 H -1.4309 -2.0161 2.5093 0
M  V30 28 H 0.6822 -0.4615 1.9362 0
M  V30 29 H 0.3897 1.0204 0.9658 0
M  V30 30 H 0.536 -1.874 -0.1329 0
M  V30 31 H 0.2061 -0.4185 -1.1235 0
M  V30 32 H 2.7861 -2.2523 0.8322 0
M  V30 33 H 1.9799 1.2713 -1.5144 0
M  V30 34 H 5.1917 -1.8256 0.6576 0
M  V30 35 H 4.3839 1.7077 -1.6956 0
M  V30 END ATOM
M  V30 BEGIN BOND
M  V30 1 2 1 2
M  V30 2 1 2 3
M  V30 3 1 2 4
M  V30 4 2 3 5
M  V30 5 2 4 6
M  V30 6 1 4 7
M  V30 7 1 5 8
M  V30 8 1 5 9
M  V30 9 1 6 10
M  V30 10 2 7 11
M  V30 11 1 7 12
M  V30 12 1 12 13
M  V30 13 1 13 14
M  V30 14 2 14 15
M  V30 15 1 14 16
M  V30 16 1 15 17
M  V30 17 2 16 18
M  V30 18 2 17 19
M  V30 19 1 19 20
M  V30 20 2 20 21
M  V30 21 1 20 22
M  V30 22 1 6 8
M  V30 23 1 10 11
M  V30 24 1 18 19
M  V30 25 1 8 23
M  V30 26 1 9 24
M  V30 27 1 9 25
M  V30 28 1 10 26
M  V30 29 1 11 27
M  V30 30 1 12 28
M  V30 31 1 12 29
M  V30 32 1 13 30
M  V30 33 1 13 31
M  V30 34 1 15 32
M  V30 35 1 16 33
M  V30 36 1 17 34
M  V30 37 1 18 35
M  V30 END BOND
M  V30 END CTAB
M  END
>  <Structure No>
1621

>  <LogS>
-3.574289037

>  <MMFF94 Energy>
-19.571

$$$$
Compound 1622
Actelion Java MolfileCreator 2.0

  0  0  0  0  0  0              0 V3000
M  V30 BEGIN CTAB
M  V30 COUNTS 62 62 0 0 0
M  V30 BEGIN ATOM
M  V30 1 O -5.3976 -3.2517 -0.3961 0
M  V30 2 C -5.6702 -2.2963 0.3783 0
M  V30 3 N -5.8296 -0.9553 -0.0593 0
M  V30 4 C -5.8547 -2.4624 1.8334 0
M  V30 5 C -5.6594 -0.506 -1.4206 0
M  V30 6 C -6.1422 -0.1148 1.0946 0 CFG=2
M  V30 7 C -5.9821 -1.0206 2.3393 0
M  V30 8 O -5.5431 -1.3531 -2.3485 0
M  V30 9 C -5.6194 0.9566 -1.7788 0
M  V30 10 C -7.5453 0.4182 0.9957 0
M  V30 11 C -4.267 1.3767 -2.3803 0
M  V30 12 O -8.4771 -0.3087 0.5588 0
M  V30 13 O -7.8294 1.7042 1.4379 0 CHG=-1
M  V30 14 C -3.1627 1.6217 -1.3354 0
M  V30 15 C -2.576 0.3212 -0.7609 0
M  V30 16 C -1.309 0.5687 0.0752 0
M  V30 17 C -0.0555 0.7313 -0.7964 0
M  V30 18 C 1.1974 0.9034 0.0691 0
M  V30 19 C 2.4524 1.0426 -0.7994 0
M  V30 20 C 3.7073 1.1959 0.0679 0
M  V30 21 C 4.9643 1.3516 -0.8021 0
M  V30 22 C 6.2528 1.4224 0.0454 0
M  V30 23 C 7.0722 0.1206 0.0317 0
M  V30 24 C 6.3507 -1.0463 0.7243 0
M  V30 25 C 7.2112 -2.3181 0.783 0
M  V30 26 C 8.3387 -2.2243 1.8106 0
M  V30 27 H -6.7875 -3.0326 2.0292 0
M  V30 28 H -4.9797 -2.9757 2.2866 0
M  V30 29 H -5.418 0.7265 1.1595 0
M  V30 30 H -6.8324 -0.9288 3.0525 0
M  V30 31 H -5.05 -0.7399 2.8784 0
M  V30 32 H -5.8658 1.6084 -0.919 0
M  V30 33 H -6.4095 1.1352 -2.5385 0
M  V30 34 H -3.9249 0.6418 -3.142 0
M  V30 35 H -4.4287 2.3357 -2.9199 0
M  V30 36 H -3.5528 2.2543 -0.5086 0
M  V30 37 H -2.3566 2.1966 -1.8378 0
M  V30 38 H -3.3274 -0.1418 -0.0922 0
M  V30 39 H -2.3587 -0.4035 -1.576 0
M  V30 40 H -1.16 -0.3059 0.7466 0
M  V30 41 H -1.4458 1.4657 0.7197 0
M  V30 42 H 0.0646 -0.1708 -1.4346 0
M  V30 43 H -0.1648 1.6174 -1.4555 0
M  V30 44 H 1.3072 0.0217 0.7361 0
M  V30 45 H 1.0866 1.8107 0.7004 0
M  V30 46 H 2.5586 0.1401 -1.4415 0
M  V30 47 H 2.3475 1.9337 -1.4579 0
M  V30 48 H 3.6005 2.0945 0.715 0
M  V30 49 H 3.8057 0.3073 0.7275 0
M  V30 50 H 4.8681 2.2955 -1.3825 0
M  V30 51 H 5.0252 0.5236 -1.5408 0
M  V30 52 H 6.8993 2.225 -0.3744 0
M  V30 53 H 6.031 1.7173 1.0957 0
M  V30 54 H 7.3147 -0.1555 -1.0174 0
M  V30 55 H 8.0293 0.3255 0.5549 0
M  V30 56 H 6.0432 -0.751 1.7513 0
M  V30 57 H 5.4333 -1.2926 0.1498 0
M  V30 58 H 7.6378 -2.5415 -0.2195 0
M  V30 59 H 6.5562 -3.1698 1.0661 0
M  V30 60 H 7.9379 -1.933 2.8041 0
M  V30 61 H 8.8323 -3.2132 1.9065 0
M  V30 62 H 9.1049 -1.4895 1.4923 0
M  V30 END ATOM
M  V30 BEGIN BOND
M  V30 1 2 1 2
M  V30 2 1 2 3
M  V30 3 1 2 4
M  V30 4 1 3 5
M  V30 5 1 3 6
M  V30 6 1 4 7
M  V30 7 2 5 8
M  V30 8 1 5 9
M  V30 9 1 6 10
M  V30 10 1 9 11
M  V30 11 2 10 12
M  V30 12 1 10 13
M  V30 13 1 11 14
M  V30 14 1 14 15
M  V30 15 1 15 16
M  V30 16 1 16 17
M  V30 17 1 17 18
M  V30 18 1 18 19
M  V30 19 1 19 20
M  V30 20 1 20 21
M  V30 21 1 21 22
M  V30 22 1 22 23
M  V30 23 1 23 24
M  V30 24 1 24 25
M  V30 25 1 25 26
M  V30 26 1 6 7
M  V30 27 1 4 27
M  V30 28 1 4 28
M  V30 29 1 6 29
M  V30 30 1 7 30
M  V30 31 1 7 31
M  V30 32 1 9 32
M  V30 33 1 9 33
M  V30 34 1 11 34
M  V30 35 1 11 35
M  V30 36 1 14 36
M  V30 37 1 14 37
M  V30 38 1 15 38
M  V30 39 1 15 39
M  V30 40 1 16 40
M  V30 41 1 16 41
M  V30 42 1 17 42
M  V30 43 1 17 43
M  V30 44 1 18 44
M  V30 45 1 18 45
M  V30 46 1 19 46
M  V30 47 1 19 47
M  V30 48 1 20 48
M  V30 49 1 20 49
M  V30 50 1 21 50
M  V30 51 1 21 51
M  V30 52 1 22 52
M  V30 53 1 22 53
M  V30 54 1 23 54
M  V30 55 1 23 55
M  V30 56 1 24 56
M  V30 57 1 24 57
M  V30 58 1 25 58
M  V30 59 1 25 59
M  V30 60 1 26 60
M  V30 61 1 26 61
M  V30 62 1 26 62
M  V30 END BOND
M  V30 BEGIN COLLECTION
M  V30 MDLV30/STEABS ATOMS=(1 6)
M  V30 END COLLECTION
M  V30 END CTAB
M  END
>  <Structure No>
1622

>  <LogS>
-4.022319118

>  <MMFF94 Energy>
0.50625

$$$$
Compound 1623
Actelion Java MolfileCreator 2.0

  0  0  0  0  0  0              0 V3000
M  V30 BEGIN CTAB
M  V30 COUNTS 33 34 0 0 0
M  V30 BEGIN ATOM
M  V30 1 O 1.6656 1.9831 -0.4756 0
M  V30 2 C 0.5725 1.4461 -0.1429 0
M  V30 3 O -0.5046 2.2424 0.2614 0
M  V30 4 N 0.4287 0.0126 -0.1824 0
M  V30 5 C -0.4382 3.6636 0.3056 0
M  V30 6 C -0.8882 -0.5768 -0.1855 0
M  V30 7 C 1.5947 -0.8376 -0.2122 0
M  V30 8 C -1.7748 4.2199 0.7694 0
M  V30 9 C -1.1759 -1.6756 0.644 0
M  V30 10 C -1.8956 -0.0747 -1.0293 0
M  V30 11 C 1.6547 -1.9281 -1.0983 0
M  V30 12 C 2.6745 -0.603 0.6581 0
M  V30 13 C -2.4493 -2.253 0.6356 0
M  V30 14 C -3.1677 -0.6551 -1.0339 0
M  V30 15 C 2.7777 -2.7606 -1.1193 0
M  V30 16 C 3.7956 -1.4383 0.6337 0
M  V30 17 C -3.4446 -1.7425 -0.2016 0
M  V30 18 C 3.8478 -2.5153 -0.2547 0
M  V30 19 H -0.2074 4.0603 -0.7068 0
M  V30 20 H 0.3581 3.9807 1.0135 0
M  V30 21 H -2.0133 3.8371 1.7846 0
M  V30 22 H -2.5778 3.9129 0.0661 0
M  V30 23 H -1.7285 5.3289 0.8033 0
M  V30 24 H -0.4162 -2.0773 1.3025 0
M  V30 25 H -1.6917 0.7568 -1.6919 0
M  V30 26 H 0.8349 -2.1266 -1.7771 0
M  V30 27 H 2.641 0.2167 1.3645 0
M  V30 28 H -2.6647 -3.096 1.2795 0
M  V30 29 H -3.9378 -0.264 -1.6862 0
M  V30 30 H 2.8186 -3.5959 -1.8063 0
M  V30 31 H 4.6223 -1.253 1.3073 0
M  V30 32 H -4.4297 -2.191 -0.2069 0
M  V30 33 H 4.716 -3.1612 -0.2716 0
M  V30 END ATOM
M  V30 BEGIN BOND
M  V30 1 2 1 2
M  V30 2 1 2 3
M  V30 3 1 2 4
M  V30 4 1 3 5
M  V30 5 1 4 6
M  V30 6 1 4 7
M  V30 7 1 5 8
M  V30 8 2 6 9
M  V30 9 1 6 10
M  V30 10 2 7 11
M  V30 11 1 7 12
M  V30 12 1 9 13
M  V30 13 2 10 14
M  V30 14 1 11 15
M  V30 15 2 12 16
M  V30 16 2 13 17
M  V30 17 2 15 18
M  V30 18 1 14 17
M  V30 19 1 16 18
M  V30 20 1 5 19
M  V30 21 1 5 20
M  V30 22 1 8 21
M  V30 23 1 8 22
M  V30 24 1 8 23
M  V30 25 1 9 24
M  V30 26 1 10 25
M  V30 27 1 11 26
M  V30 28 1 12 27
M  V30 29 1 13 28
M  V30 30 1 14 29
M  V30 31 1 15 30
M  V30 32 1 16 31
M  V30 33 1 17 32
M  V30 34 1 18 33
M  V30 END BOND
M  V30 END CTAB
M  END
>  <Structure No>
1623

>  <LogS>
-3.969239559

>  <MMFF94 Energy>
29.723

$$$$
Compound 1624
Actelion Java MolfileCreator 2.0

  0  0  0  0  0  0              0 V3000
M  V30 BEGIN CTAB
M  V30 COUNTS 28 29 0 0 0
M  V30 BEGIN ATOM
M  V30 1 Cl -1.2153 1.9451 -2.3506 0
M  V30 2 C -2.0231 0.7008 -1.4086 0
M  V30 3 C -1.3035 -0.0662 -0.4787 0
M  V30 4 C -3.393 0.4826 -1.5955 0
M  V30 5 O 0.0687 0.181 -0.3183 0
M  V30 6 C -1.9782 -1.0566 0.2619 0
M  V30 7 C -4.0598 -0.5033 -0.8568 0
M  V30 8 C 0.9169 -0.5202 0.5862 0
M  V30 9 C -3.3463 -1.2712 0.072 0
M  V30 10 N -5.4595 -0.7243 -1.0496 0
M  V30 11 C 2.3109 0.023 0.4732 0
M  V30 12 C 3.2043 -0.5103 -0.4703 0
M  V30 13 C 2.7111 1.1152 1.2606 0
M  V30 14 C 4.4908 0.0231 -0.6022 0
M  V30 15 C 3.998 1.6459 1.1262 0
M  V30 16 F 5.3515 -0.5 -1.5097 0
M  V30 17 C 4.8879 1.099 0.1975 0
M  V30 18 H -3.938 1.0805 -2.3156 0
M  V30 19 H -1.4556 -1.6658 0.9863 0
M  V30 20 H 0.544 -0.3942 1.6263 0
M  V30 21 H 0.9122 -1.6051 0.3421 0
M  V30 22 H -3.8503 -2.0364 0.6492 0
M  V30 23 H -5.9654 -1.4571 -0.5035 0
M  V30 24 H -6.0005 -0.1569 -1.7399 0
M  V30 25 H 2.9038 -1.3368 -1.1025 0
M  V30 26 H 2.0277 1.5552 1.9767 0
M  V30 27 H 4.3038 2.4839 1.739 0
M  V30 28 H 5.8828 1.5129 0.0947 0
M  V30 END ATOM
M  V30 BEGIN BOND
M  V30 1 1 1 2
M  V30 2 2 2 3
M  V30 3 1 2 4
M  V30 4 1 3 5
M  V30 5 1 3 6
M  V30 6 2 4 7
M  V30 7 1 5 8
M  V30 8 2 6 9
M  V30 9 1 7 10
M  V30 10 1 8 11
M  V30 11 2 11 12
M  V30 12 1 11 13
M  V30 13 1 12 14
M  V30 14 2 13 15
M  V30 15 1 14 16
M  V30 16 2 14 17
M  V30 17 1 7 9
M  V30 18 1 15 17
M  V30 19 1 4 18
M  V30 20 1 6 19
M  V30 21 1 8 20
M  V30 22 1 8 21
M  V30 23 1 9 22
M  V30 24 1 10 23
M  V30 25 1 10 24
M  V30 26 1 12 25
M  V30 27 1 13 26
M  V30 28 1 15 27
M  V30 29 1 17 28
M  V30 END BOND
M  V30 END CTAB
M  END
>  <Structure No>
1624

>  <LogS>
-4.693292334

>  <MMFF94 Energy>
44.478

$$$$
Compound 1625
Actelion Java MolfileCreator 2.0

  0  0  0  0  0  0              0 V3000
M  V30 BEGIN CTAB
M  V30 COUNTS 92 91 0 0 0
M  V30 BEGIN ATOM
M  V30 1 C 6.8087 0.1561 0.1561 0 CFG=2
M  V30 2 C 5.3222 0.1401 -0.2814 0
M  V30 3 C 7.07 -0.82 1.332 0
M  V30 4 C 7.3044 1.5818 0.4592 0
M  V30 5 C 4.333 0.679 0.7734 0
M  V30 6 C 8.5543 -1.0009 1.7048 0
M  V30 7 C 2.88 0.7137 0.2477 0
M  V30 8 C 9.4088 -1.5537 0.5473 0
M  V30 9 C 2.4106 2.1253 -0.1911 0 CFG=2
M  V30 10 C 10.798 -2.0451 1.0116 0
M  V30 11 C 0.8747 2.1936 -0.3793 0
M  V30 12 C 3.1573 2.634 -1.4358 0
M  V30 13 C 11.5233 -2.7432 -0.146 0
M  V30 14 C 11.661 -0.8946 1.5493 0
M  V30 15 C 0.3103 1.1848 -1.4002 0
M  V30 16 C -1.1686 1.4431 -1.7307 0
M  V30 17 C -2.0889 1.2928 -0.5042 0
M  V30 18 C -3.5899 1.1869 -0.8745 0 CFG=1
M  V30 19 C -4.476 1.0657 0.3926 0
M  V30 20 C -4.0573 2.4023 -1.6937 0
M  V30 21 C -4.248 -0.1941 1.2499 0
M  V30 22 C -4.4149 -1.5538 0.5314 0
M  V30 23 C -5.836 -1.9334 0.0231 0 CFG=1
M  V30 24 C -6.9564 -1.5692 1.0303 0
M  V30 25 C -6.1147 -1.3991 -1.3917 0
M  V30 26 C -8.3097 -2.2611 0.739 0
M  V30 27 C -9.3484 -1.3489 0.0534 0
M  V30 28 C -9.9268 -0.224 0.9494 0
M  V30 29 C -10.8235 0.6944 0.1072 0
M  V30 30 C -10.7276 -0.7797 2.1389 0
M  V30 31 H 7.3746 -0.2067 -0.7281 0
M  V30 32 H 5.0374 -0.904 -0.5378 0
M  V30 33 H 5.2276 0.7271 -1.2174 0
M  V30 34 H 6.5405 -0.458 2.2397 0
M  V30 35 H 6.648 -1.8169 1.0796 0
M  V30 36 H 6.9342 1.9315 1.4448 0
M  V30 37 H 8.4146 1.6079 0.4753 0
M  V30 38 H 6.9629 2.2862 -0.329 0
M  V30 39 H 4.3624 0.0092 1.6583 0
M  V30 40 H 4.6387 1.6879 1.1201 0
M  V30 41 H 8.9693 -0.0341 2.0662 0
M  V30 42 H 8.5973 -1.7171 2.5572 0
M  V30 43 H 2.2149 0.3734 1.0739 0
M  V30 44 H 2.7513 -0.0137 -0.5847 0
M  V30 45 H 9.542 -0.7702 -0.2278 0
M  V30 46 H 8.8651 -2.4075 0.0843 0
M  V30 47 H 2.6453 2.8336 0.6351 0
M  V30 48 H 10.6636 -2.7926 1.8245 0
M  V30 49 H 0.3998 2.0107 0.6086 0
M  V30 50 H 0.5937 3.2251 -0.6869 0
M  V30 51 H 4.2216 2.814 -1.1905 0
M  V30 52 H 3.1016 1.9065 -2.2705 0
M  V30 53 H 2.7324 3.5994 -1.7728 0
M  V30 54 H 10.9248 -3.6031 -0.5162 0
M  V30 55 H 12.5043 -3.1343 0.1972 0
M  V30 56 H 11.6955 -2.034 -0.9857 0
M  V30 57 H 12.6792 -1.2612 1.7974 0
M  V30 58 H 11.2226 -0.4794 2.4817 0
M  V30 59 H 11.7449 -0.0826 0.793 0
M  V30 60 H 0.8813 1.2506 -2.3478 0
M  V30 61 H 0.4182 0.1494 -1.0125 0
M  V30 62 H -1.2673 2.4654 -2.1547 0
M  V30 63 H -1.4778 0.716 -2.5138 0
M  V30 64 H -1.9399 2.1588 0.1776 0
M  V30 65 H -1.7872 0.3701 0.0337 0
M  V30 66 H -3.7351 0.2914 -1.5118 0
M  V30 67 H -4.2889 1.9515 1.0402 0
M  V30 68 H -5.5485 1.1216 0.1181 0
M  V30 69 H -3.8515 3.3484 -1.1466 0
M  V30 70 H -5.1486 2.335 -1.8974 0
M  V30 71 H -3.5498 2.4323 -2.6802 0
M  V30 72 H -4.9249 -0.1514 2.1287 0
M  V30 73 H -3.2273 -0.154 1.6844 0
M  V30 74 H -3.6731 -1.6446 -0.289 0
M  V30 75 H -4.118 -2.3297 1.2715 0
M  V30 76 H -5.8233 -3.0439 -0.0709 0
M  V30 77 H -6.6275 -1.9012 2.0384 0
M  V30 78 H -7.0735 -0.4698 1.0788 0
M  V30 79 H -6.9964 -1.914 -1.8222 0
M  V30 80 H -5.2575 -1.6157 -2.0616 0
M  V30 81 H -6.3122 -0.3119 -1.3918 0
M  V30 82 H -8.1483 -3.1511 0.0911 0
M  V30 83 H -8.7313 -2.6644 1.6834 0
M  V30 84 H -10.1857 -1.988 -0.3052 0
M  V30 85 H -8.8845 -0.8945 -0.8476 0
M  V30 86 H -9.1032 0.403 1.3512 0
M  V30 87 H -11.7005 0.1305 -0.283 0
M  V30 88 H -10.2542 1.1122 -0.7521 0
M  V30 89 H -11.1876 1.5484 0.7206 0
M  V30 90 H -11.4943 -1.5073 1.7917 0
M  V30 91 H -11.2402 0.0461 2.6782 0
M  V30 92 H -10.0558 -1.2717 2.8715 0
M  V30 END ATOM
M  V30 BEGIN BOND
M  V30 1 1 1 2
M  V30 2 1 1 3
M  V30 3 1 1 4
M  V30 4 1 2 5
M  V30 5 1 3 6
M  V30 6 1 5 7
M  V30 7 1 6 8
M  V30 8 1 7 9
M  V30 9 1 8 10
M  V30 10 1 9 11
M  V30 11 1 9 12
M  V30 12 1 10 13
M  V30 13 1 10 14
M  V30 14 1 11 15
M  V30 15 1 15 16
M  V30 16 1 16 17
M  V30 17 1 17 18
M  V30 18 1 18 19
M  V30 19 1 18 20
M  V30 20 1 19 21
M  V30 21 1 21 22
M  V30 22 1 22 23
M  V30 23 1 23 24
M  V30 24 1 23 25
M  V30 25 1 24 26
M  V30 26 1 26 27
M  V30 27 1 27 28
M  V30 28 1 28 29
M  V30 29 1 28 30
M  V30 30 1 1 31
M  V30 31 1 2 32
M  V30 32 1 2 33
M  V30 33 1 3 34
M  V30 34 1 3 35
M  V30 35 1 4 36
M  V30 36 1 4 37
M  V30 37 1 4 38
M  V30 38 1 5 39
M  V30 39 1 5 40
M  V30 40 1 6 41
M  V30 41 1 6 42
M  V30 42 1 7 43
M  V30 43 1 7 44
M  V30 44 1 8 45
M  V30 45 1 8 46
M  V30 46 1 9 47
M  V30 47 1 10 48
M  V30 48 1 11 49
M  V30 49 1 11 50
M  V30 50 1 12 51
M  V30 51 1 12 52
M  V30 52 1 12 53
M  V30 53 1 13 54
M  V30 54 1 13 55
M  V30 55 1 13 56
M  V30 56 1 14 57
M  V30 57 1 14 58
M  V30 58 1 14 59
M  V30 59 1 15 60
M  V30 60 1 15 61
M  V30 61 1 16 62
M  V30 62 1 16 63
M  V30 63 1 17 64
M  V30 64 1 17 65
M  V30 65 1 18 66
M  V30 66 1 19 67
M  V30 67 1 19 68
M  V30 68 1 20 69
M  V30 69 1 20 70
M  V30 70 1 20 71
M  V30 71 1 21 72
M  V30 72 1 21 73
M  V30 73 1 22 74
M  V30 74 1 22 75
M  V30 75 1 23 76
M  V30 76 1 24 77
M  V30 77 1 24 78
M  V30 78 1 25 79
M  V30 79 1 25 80
M  V30 80 1 25 81
M  V30 81 1 26 82
M  V30 82 1 26 83
M  V30 83 1 27 84
M  V30 84 1 27 85
M  V30 85 1 28 86
M  V30 86 1 29 87
M  V30 87 1 29 88
M  V30 88 1 29 89
M  V30 89 1 30 90
M  V30 90 1 30 91
M  V30 91 1 30 92
M  V30 END BOND
M  V30 BEGIN COLLECTION
M  V30 MDLV30/STEABS ATOMS=(4 1 9 18 23)
M  V30 END COLLECTION
M  V30 END CTAB
M  END
>  <Structure No>
1625

>  <LogS>
-5.14904043

>  <MMFF94 Energy>
28.307

$$$$
Compound 1626
Actelion Java MolfileCreator 2.0

  0  0  0  0  0  0              0 V3000
M  V30 BEGIN CTAB
M  V30 COUNTS 64 63 0 0 0
M  V30 BEGIN ATOM
M  V30 1 O -7.4328 -1.8936 -2.7625 0
M  V30 2 C -6.7779 -1.9978 -1.6907 0
M  V30 3 O -6.7304 -3.2222 -1.0366 0 CHG=-1
M  V30 4 C -6.0839 -0.8016 -1.0917 0 CFG=2
M  V30 5 C -7.0682 0.048 -0.2547 0
M  V30 6 C -5.3367 0.0091 -2.1775 0
M  V30 7 C -8.1531 0.684 -1.0735 0
M  V30 8 C -4.5377 1.1458 -1.5958 0
M  V30 9 O -9.2432 0.0822 -1.258 0
M  V30 10 O -7.9522 1.9315 -1.649 0 CHG=-1
M  V30 11 C -3.4548 0.9288 -0.836 0
M  V30 12 C -2.6954 2.0817 -0.2353 0
M  V30 13 C -1.5937 1.6141 0.7258 0
M  V30 14 C -2.1737 1.0006 2.013 0
M  V30 15 C -1.0886 0.6543 3.057 0
M  V30 16 C -0.7624 -0.8486 3.1393 0
M  V30 17 C 0.0978 -1.3839 1.9806 0
M  V30 18 C 1.5738 -0.9287 2.0448 0
M  V30 19 C 1.9118 0.1286 0.9801 0
M  V30 20 C 3.3694 0.6094 1.0664 0
M  V30 21 C 4.3688 -0.4294 0.5362 0
M  V30 22 C 5.7967 0.1374 0.5383 0
M  V30 23 C 6.8484 -0.8957 0.0994 0
M  V30 24 C 6.7589 -1.3198 -1.3788 0
M  V30 25 C 7.0448 -0.1731 -2.3714 0
M  V30 26 C 5.7725 0.3527 -3.0363 0
M  V30 27 H -5.3202 -1.1975 -0.3864 0
M  V30 28 H -7.5308 -0.5921 0.5283 0
M  V30 29 H -6.5104 0.8453 0.2815 0
M  V30 30 H -4.6489 -0.6614 -2.7382 0
M  V30 31 H -6.0614 0.4215 -2.9121 0
M  V30 32 H -4.8557 2.164 -1.8052 0
M  V30 33 H -3.1321 -0.0911 -0.642 0
M  V30 34 H -3.3978 2.7543 0.3043 0
M  V30 35 H -2.2298 2.6646 -1.059 0
M  V30 36 H -0.972 2.4965 0.993 0
M  V30 37 H -0.9415 0.8868 0.2022 0
M  V30 38 H -2.7834 0.1046 1.7687 0
M  V30 39 H -2.8655 1.7443 2.4677 0
M  V30 40 H -1.4802 0.9499 4.0555 0
M  V30 41 H -0.1664 1.2533 2.9104 0
M  V30 42 H -1.7111 -1.4276 3.1809 0
M  V30 43 H -0.2381 -1.0496 4.0997 0
M  V30 44 H 0.0826 -2.4936 2.0566 0
M  V30 45 H -0.3687 -1.1485 1.0025 0
M  V30 46 H 1.8237 -0.5362 3.0553 0
M  V30 47 H 2.2141 -1.8204 1.8761 0
M  V30 48 H 1.2614 1.0137 1.127 0
M  V30 49 H 1.7059 -0.2745 -0.0357 0
M  V30 50 H 3.6179 0.8749 2.1174 0
M  V30 51 H 3.4618 1.5351 0.4562 0
M  V30 52 H 4.0772 -0.7132 -0.4971 0
M  V30 53 H 4.3424 -1.3375 1.1758 0
M  V30 54 H 5.8555 1.0429 -0.1018 0
M  V30 55 H 6.0482 0.4573 1.5739 0
M  V30 56 H 7.8603 -0.4754 0.2892 0
M  V30 57 H 6.754 -1.802 0.7367 0
M  V30 58 H 5.7834 -1.8078 -1.5886 0
M  V30 59 H 7.528 -2.1071 -1.536 0
M  V30 60 H 7.5783 0.6662 -1.8741 0
M  V30 61 H 7.7153 -0.5508 -3.1741 0
M  V30 62 H 5.0551 0.7355 -2.2829 0
M  V30 63 H 5.2864 -0.4555 -3.6231 0
M  V30 64 H 6.0314 1.1824 -3.7268 0
M  V30 END ATOM
M  V30 BEGIN BOND
M  V30 1 2 1 2
M  V30 2 1 2 3
M  V30 3 1 2 4
M  V30 4 1 4 5
M  V30 5 1 4 6
M  V30 6 1 5 7
M  V30 7 1 6 8
M  V30 8 2 7 9
M  V30 9 1 7 10
M  V30 10 2 8 11
M  V30 11 1 11 12
M  V30 12 1 12 13
M  V30 13 1 13 14
M  V30 14 1 14 15
M  V30 15 1 15 16
M  V30 16 1 16 17
M  V30 17 1 17 18
M  V30 18 1 18 19
M  V30 19 1 19 20
M  V30 20 1 20 21
M  V30 21 1 21 22
M  V30 22 1 22 23
M  V30 23 1 23 24
M  V30 24 1 24 25
M  V30 25 1 25 26
M  V30 26 1 4 27
M  V30 27 1 5 28
M  V30 28 1 5 29
M  V30 29 1 6 30
M  V30 30 1 6 31
M  V30 31 1 8 32
M  V30 32 1 11 33
M  V30 33 1 12 34
M  V30 34 1 12 35
M  V30 35 1 13 36
M  V30 36 1 13 37
M  V30 37 1 14 38
M  V30 38 1 14 39
M  V30 39 1 15 40
M  V30 40 1 15 41
M  V30 41 1 16 42
M  V30 42 1 16 43
M  V30 43 1 17 44
M  V30 44 1 17 45
M  V30 45 1 18 46
M  V30 46 1 18 47
M  V30 47 1 19 48
M  V30 48 1 19 49
M  V30 49 1 20 50
M  V30 50 1 20 51
M  V30 51 1 21 52
M  V30 52 1 21 53
M  V30 53 1 22 54
M  V30 54 1 22 55
M  V30 55 1 23 56
M  V30 56 1 23 57
M  V30 57 1 24 58
M  V30 58 1 24 59
M  V30 59 1 25 60
M  V30 60 1 25 61
M  V30 61 1 26 62
M  V30 62 1 26 63
M  V30 63 1 26 64
M  V30 END BOND
M  V30 BEGIN COLLECTION
M  V30 MDLV30/STEABS ATOMS=(1 4)
M  V30 END COLLECTION
M  V30 END CTAB
M  END
>  <Structure No>
1626

>  <LogS>
-6.964445851

>  <MMFF94 Energy>
66.919

$$$$
Compound 1627
Actelion Java MolfileCreator 2.0

  0  0  0  0  0  0              0 V3000
M  V30 BEGIN CTAB
M  V30 COUNTS 86 88 0 0 0
M  V30 BEGIN ATOM
M  V30 1 S 5.4353 -3.8343 1.5164 0
M  V30 2 C 5.8861 -2.435 0.7047 0
M  V30 3 C 7.0239 -4.2773 1.8472 0
M  V30 4 N 7.2283 -2.2867 0.6684 0
M  V30 5 N 4.9562 -1.5088 0.1291 0
M  V30 6 C 7.873 -3.3045 1.3051 0
M  V30 7 C 5.3404 -0.2703 -0.4923 0
M  V30 8 C 9.3554 -3.3426 1.3992 0
M  V30 9 O 6.5541 0.0623 -0.566 0
M  V30 10 C 4.2926 0.6649 -1.0227 0
M  V30 11 C 10.0127 -4.1648 2.3353 0
M  V30 12 C 10.1299 -2.5263 0.5536 0
M  V30 13 C 4.4956 0.9476 -2.4872 0
M  V30 14 C 11.4073 -4.1699 2.4163 0
M  V30 15 C 11.524 -2.5352 0.64 0
M  V30 16 O 4.7867 -0.0026 -3.2647 0
M  V30 17 C 4.3379 2.3129 -3.0414 0
M  V30 18 C 12.1627 -3.3566 1.5698 0
M  V30 19 C 3.2962 3.1693 -2.6172 0
M  V30 20 C 5.237 2.7548 -4.0278 0
M  V30 21 O 2.3539 2.6916 -1.6925 0
M  V30 22 C 3.211 4.4699 -3.1525 0
M  V30 23 C 5.1324 4.0414 -4.5575 0
M  V30 24 C 1.2075 3.4082 -1.2445 0
M  V30 25 C 4.1265 4.8994 -4.1154 0
M  V30 26 C 0.4 2.5094 -0.3114 0
M  V30 27 C -0.9066 3.1813 0.1266 0
M  V30 28 C -1.7338 2.2306 0.9993 0
M  V30 29 C -3.0784 2.8542 1.3944 0
M  V30 30 C -3.9321 1.8404 2.1729 0
M  V30 31 C -5.2645 2.4265 2.6726 0
M  V30 32 C -6.3093 2.691 1.5661 0
M  V30 33 C -7.2736 1.5163 1.311 0
M  V30 34 C -6.6176 0.3495 0.5517 0
M  V30 35 C -7.6475 -0.5954 -0.0854 0
M  V30 36 C -8.4125 -1.4216 0.9629 0
M  V30 37 C -9.3099 -2.4969 0.3188 0
M  V30 38 C -8.6939 -3.911 0.3127 0
M  V30 39 C -7.5762 -4.1088 -0.7305 0
M  V30 40 C -6.1785 -3.9935 -0.1221 0
M  V30 41 H 7.3162 -5.1745 2.3736 0
M  V30 42 H 3.9391 -1.7408 0.1964 0
M  V30 43 H 3.2784 0.235 -0.8811 0
M  V30 44 H 4.3529 1.6071 -0.4367 0
M  V30 45 H 9.4565 -4.7899 3.019 0
M  V30 46 H 9.6566 -1.8838 -0.1787 0
M  V30 47 H 11.9038 -4.8008 3.1412 0
M  V30 48 H 12.1097 -1.9018 -0.0136 0
M  V30 49 H 13.2426 -3.3602 1.6379 0
M  V30 50 H 6.034 2.1082 -4.3726 0
M  V30 51 H 2.4351 5.1534 -2.837 0
M  V30 52 H 5.8372 4.3764 -5.3072 0
M  V30 53 H 0.5833 3.6904 -2.1206 0
M  V30 54 H 1.5268 4.3244 -0.7002 0
M  V30 55 H 4.0528 5.8996 -4.5231 0
M  V30 56 H 0.1681 1.5599 -0.8429 0
M  V30 57 H 1.0165 2.2683 0.5835 0
M  V30 58 H -1.498 3.4578 -0.773 0
M  V30 59 H -0.6763 4.107 0.6995 0
M  V30 60 H -1.9183 1.2894 0.4357 0
M  V30 61 H -1.1587 1.9799 1.9179 0
M  V30 62 H -2.8972 3.7534 2.0237 0
M  V30 63 H -3.6094 3.1667 0.4715 0
M  V30 64 H -3.3552 1.5045 3.0637 0
M  V30 65 H -4.1089 0.9476 1.5447 0
M  V30 66 H -5.0474 3.3828 3.1969 0
M  V30 67 H -5.6932 1.743 3.4374 0
M  V30 68 H -6.9311 3.5515 1.8986 0
M  V30 69 H -5.8371 3.0096 0.615 0
M  V30 70 H -8.1222 1.9096 0.7082 0
M  V30 71 H -7.6917 1.1541 2.2751 0
M  V30 72 H -5.9773 0.754 -0.2629 0
M  V30 73 H -5.9748 -0.2367 1.2431 0
M  V30 74 H -7.1023 -1.2722 -0.7747 0
M  V30 75 H -8.3675 -0.0126 -0.7013 0
M  V30 76 H -9.0605 -0.728 1.5427 0
M  V30 77 H -7.7098 -1.8828 1.6886 0
M  V30 78 H -10.2472 -2.5542 0.9156 0
M  V30 79 H -9.6137 -2.2032 -0.7099 0
M  V30 80 H -9.5141 -4.6206 0.0652 0
M  V30 81 H -8.3456 -4.1867 1.3319 0
M  V30 82 H -7.6674 -5.1308 -1.1614 0
M  V30 83 H -7.6866 -3.3949 -1.5751 0
M  V30 84 H -6.0061 -4.8179 0.6015 0
M  V30 85 H -5.42 -4.0675 -0.9294 0
M  V30 86 H -6.0399 -3.0252 0.3978 0
M  V30 END ATOM
M  V30 BEGIN BOND
M  V30 1 1 1 2
M  V30 2 1 1 3
M  V30 3 2 2 4
M  V30 4 1 2 5
M  V30 5 2 3 6
M  V30 6 1 5 7
M  V30 7 1 6 8
M  V30 8 2 7 9
M  V30 9 1 7 10
M  V30 10 2 8 11
M  V30 11 1 8 12
M  V30 12 1 10 13
M  V30 13 1 11 14
M  V30 14 2 12 15
M  V30 15 2 13 16
M  V30 16 1 13 17
M  V30 17 2 14 18
M  V30 18 2 17 19
M  V30 19 1 17 20
M  V30 20 1 19 21
M  V30 21 1 19 22
M  V30 22 2 20 23
M  V30 23 1 21 24
M  V30 24 2 22 25
M  V30 25 1 24 26
M  V30 26 1 26 27
M  V30 27 1 27 28
M  V30 28 1 28 29
M  V30 29 1 29 30
M  V30 30 1 30 31
M  V30 31 1 31 32
M  V30 32 1 32 33
M  V30 33 1 33 34
M  V30 34 1 34 35
M  V30 35 1 35 36
M  V30 36 1 36 37
M  V30 37 1 37 38
M  V30 38 1 38 39
M  V30 39 1 39 40
M  V30 40 1 4 6
M  V30 41 1 15 18
M  V30 42 1 23 25
M  V30 43 1 3 41
M  V30 44 1 5 42
M  V30 45 1 10 43
M  V30 46 1 10 44
M  V30 47 1 11 45
M  V30 48 1 12 46
M  V30 49 1 14 47
M  V30 50 1 15 48
M  V30 51 1 18 49
M  V30 52 1 20 50
M  V30 53 1 22 51
M  V30 54 1 23 52
M  V30 55 1 24 53
M  V30 56 1 24 54
M  V30 57 1 25 55
M  V30 58 1 26 56
M  V30 59 1 26 57
M  V30 60 1 27 58
M  V30 61 1 27 59
M  V30 62 1 28 60
M  V30 63 1 28 61
M  V30 64 1 29 62
M  V30 65 1 29 63
M  V30 66 1 30 64
M  V30 67 1 30 65
M  V30 68 1 31 66
M  V30 69 1 31 67
M  V30 70 1 32 68
M  V30 71 1 32 69
M  V30 72 1 33 70
M  V30 73 1 33 71
M  V30 74 1 34 72
M  V30 75 1 34 73
M  V30 76 1 35 74
M  V30 77 1 35 75
M  V30 78 1 36 76
M  V30 79 1 36 77
M  V30 80 1 37 78
M  V30 81 1 37 79
M  V30 82 1 38 80
M  V30 83 1 38 81
M  V30 84 1 39 82
M  V30 85 1 39 83
M  V30 86 1 40 84
M  V30 87 1 40 85
M  V30 88 1 40 86
M  V30 END BOND
M  V30 END CTAB
M  END
>  <Structure No>
1627

>  <LogS>
-4.847279535

>  <MMFF94 Energy>
15.715

$$$$
Compound 1628
Actelion Java MolfileCreator 2.0

  0  0  0  0  0  0              0 V3000
M  V30 BEGIN CTAB
M  V30 COUNTS 24 23 0 0 0
M  V30 BEGIN ATOM
M  V30 1 O 3.4961 -0.8537 -2.0965 0
M  V30 2 C 3.5211 -0.359 -0.9366 0
M  V30 3 O 2.3348 -0.1041 -0.2429 0
M  V30 4 C 4.8275 0.0039 -0.3167 0
M  V30 5 C 1.0513 -0.4063 -0.7806 0
M  V30 6 C -0.0263 -0.0115 0.2188 0
M  V30 7 O -1.2945 -0.3214 -0.3208 0
M  V30 8 C -2.3303 0.1441 0.5276 0
M  V30 9 C -2.8548 1.4859 0.008 0
M  V30 10 C -3.4537 -0.892 0.5345 0
M  V30 11 H 4.7255 0.0424 0.788 0
M  V30 12 H 5.149 0.9992 -0.6877 0
M  V30 13 H 5.5972 -0.752 -0.5794 0
M  V30 14 H 0.9011 0.157 -1.7276 0
M  V30 15 H 0.9813 -1.4963 -0.9894 0
M  V30 16 H 0.0659 1.0796 0.423 0
M  V30 17 H 0.1398 -0.5818 1.1609 0
M  V30 18 H -2.0064 0.2767 1.5892 0
M  V30 19 H -3.6913 1.8461 0.6443 0
M  V30 20 H -2.0469 2.2468 0.0339 0
M  V30 21 H -3.2127 1.384 -1.0389 0
M  V30 22 H -3.8444 -1.0506 -0.4936 0
M  V30 23 H -4.285 -0.558 1.1918 0
M  V30 24 H -3.0677 -1.859 0.9211 0
M  V30 END ATOM
M  V30 BEGIN BOND
M  V30 1 2 1 2
M  V30 2 1 2 3
M  V30 3 1 2 4
M  V30 4 1 3 5
M  V30 5 1 5 6
M  V30 6 1 6 7
M  V30 7 1 7 8
M  V30 8 1 8 9
M  V30 9 1 8 10
M  V30 10 1 4 11
M  V30 11 1 4 12
M  V30 12 1 4 13
M  V30 13 1 5 14
M  V30 14 1 5 15
M  V30 15 1 6 16
M  V30 16 1 6 17
M  V30 17 1 8 18
M  V30 18 1 9 19
M  V30 19 1 9 20
M  V30 20 1 9 21
M  V30 21 1 10 22
M  V30 22 1 10 23
M  V30 23 1 10 24
M  V30 END BOND
M  V30 END CTAB
M  END
>  <Structure No>
1628

>  <LogS>
-0.165775242

>  <MMFF94 Energy>
9.9954

$$$$
Compound 1629
Actelion Java MolfileCreator 2.0

  0  0  0  0  0  0              0 V3000
M  V30 BEGIN CTAB
M  V30 COUNTS 27 26 0 0 0
M  V30 BEGIN ATOM
M  V30 1 O -2.7944 1.1968 -1.6759 0
M  V30 2 C -2.6834 0.4779 -0.6462 0
M  V30 3 O -3.7346 -0.3667 -0.3028 0 CHG=-1
M  V30 4 C -1.3851 0.4721 0.1488 0
M  V30 5 C -0.3362 -0.3545 -0.675 0
M  V30 6 C -0.9436 1.9425 0.3323 0
M  V30 7 C -1.6492 -0.1432 1.5412 0
M  V30 8 C 0.8746 -0.9948 0.0723 0 CFG=2
M  V30 9 C 1.931 0.0109 0.5882 0
M  V30 10 C 1.5401 -2.0522 -0.827 0
M  V30 11 C 2.5272 0.8669 -0.4913 0
M  V30 12 O 2.0618 2.0123 -0.7264 0
M  V30 13 O 3.596 0.3949 -1.2427 0 CHG=-1
M  V30 14 H -0.8879 -1.2018 -1.1437 0
M  V30 15 H 0.0333 0.254 -1.5288 0
M  V30 16 H -0.6425 2.3927 -0.6375 0
M  V30 17 H -0.1042 2.0442 1.0431 0
M  V30 18 H -1.7816 2.5472 0.7432 0
M  V30 19 H -0.7619 -0.0412 2.2006 0
M  V30 20 H -1.904 -1.2215 1.4525 0
M  V30 21 H -2.4942 0.3766 2.0435 0
M  V30 22 H 0.498 -1.5564 0.9526 0
M  V30 23 H 1.5065 0.6429 1.39 0
M  V30 24 H 2.7558 -0.5516 1.0769 0
M  V30 25 H 2.4176 -2.5038 -0.3168 0
M  V30 26 H 0.8231 -2.8709 -1.051 0
M  V30 27 H 1.8713 -1.6043 -1.7876 0
M  V30 END ATOM
M  V30 BEGIN BOND
M  V30 1 2 1 2
M  V30 2 1 2 3
M  V30 3 1 2 4
M  V30 4 1 4 5
M  V30 5 1 4 6
M  V30 6 1 4 7
M  V30 7 1 5 8
M  V30 8 1 8 9
M  V30 9 1 8 10
M  V30 10 1 9 11
M  V30 11 2 11 12
M  V30 12 1 11 13
M  V30 13 1 5 14
M  V30 14 1 5 15
M  V30 15 1 6 16
M  V30 16 1 6 17
M  V30 17 1 6 18
M  V30 18 1 7 19
M  V30 19 1 7 20
M  V30 20 1 7 21
M  V30 21 1 8 22
M  V30 22 1 9 23
M  V30 23 1 9 24
M  V30 24 1 10 25
M  V30 25 1 10 26
M  V30 26 1 10 27
M  V30 END BOND
M  V30 BEGIN COLLECTION
M  V30 MDLV30/STEABS ATOMS=(1 8)
M  V30 END COLLECTION
M  V30 END CTAB
M  END
>  <Structure No>
1629

>  <LogS>
-0.279037497

>  <MMFF94 Energy>
75.051

$$$$
Compound 1630
Actelion Java MolfileCreator 2.0

  0  0  0  0  0  0              0 V3000
M  V30 BEGIN CTAB
M  V30 COUNTS 18 18 0 0 0
M  V30 BEGIN ATOM
M  V30 1 S 2.828 -0.8563 0.5137 0
M  V30 2 O 2.8074 -2.04 1.4394 0
M  V30 3 O 3.7646 0.1771 1.0731 0
M  V30 4 O 3.3686 -1.3387 -1.0011 0 CHG=-1
M  V30 5 C 1.2074 -0.1831 0.3701 0
M  V30 6 C 0.0894 -1.0254 0.4216 0
M  V30 7 C 1.0309 1.1906 0.1811 0
M  V30 8 C -1.2144 -0.5052 0.2983 0
M  V30 9 C -0.2527 1.7217 0.0572 0
M  V30 10 C -1.3782 0.8872 0.1153 0
M  V30 11 C -2.3789 -1.4263 0.3611 0
M  V30 12 O -2.6496 1.4468 -0.0102 0
M  V30 13 O -2.2042 -2.6628 0.5279 0
M  V30 14 O -3.6787 -0.9498 0.2385 0 CHG=-1
M  V30 15 H 0.2409 -2.0892 0.5563 0
M  V30 16 H 1.886 1.8521 0.1274 0
M  V30 17 H -0.3734 2.7881 -0.0861 0
M  V30 18 H -2.7832 2.4426 -0.142 0
M  V30 END ATOM
M  V30 BEGIN BOND
M  V30 1 2 1 2
M  V30 2 2 1 3
M  V30 3 1 1 4
M  V30 4 1 1 5
M  V30 5 2 5 6
M  V30 6 1 5 7
M  V30 7 1 6 8
M  V30 8 2 7 9
M  V30 9 2 8 10
M  V30 10 1 8 11
M  V30 11 1 10 12
M  V30 12 2 11 13
M  V30 13 1 11 14
M  V30 14 1 9 10
M  V30 15 1 6 15
M  V30 16 1 7 16
M  V30 17 1 9 17
M  V30 18 1 12 18
M  V30 END BOND
M  V30 END CTAB
M  END
>  <Structure No>
1630

>  <LogS>
0.655490272

>  <MMFF94 Energy>
86.246

$$$$
Compound 1631
Actelion Java MolfileCreator 2.0

  0  0  0  0  0  0              0 V3000
M  V30 BEGIN CTAB
M  V30 COUNTS 16 16 0 0 0
M  V30 BEGIN ATOM
M  V30 1 O -0.6198 1.085 -1.085 0
M  V30 2 C 0.5457 1.3499 -0.3283 0
M  V30 3 C -1.4898 0.2498 -0.3451 0
M  V30 4 C 1.3052 0.0499 -0.0273 0
M  V30 5 C -0.8222 -1.0998 -0.0449 0
M  V30 6 N 0.4368 -0.8975 0.6842 0 CHG=1
M  V30 7 H 1.2054 2.0193 -0.9193 0
M  V30 8 H 0.2944 1.8841 0.6163 0
M  V30 9 H -2.4037 0.0688 -0.9491 0
M  V30 10 H -1.811 0.7462 0.5989 0
M  V30 11 H 2.1974 0.2804 0.5952 0
M  V30 12 H 1.6593 -0.4013 -0.9814 0
M  V30 13 H -0.6266 -1.6366 -1.0004 0
M  V30 14 H -1.5118 -1.7242 0.5646 0
M  V30 15 H 0.2319 -0.533 1.6446 0
M  V30 16 H 0.9319 -1.815 0.7748 0
M  V30 END ATOM
M  V30 BEGIN BOND
M  V30 1 1 1 2
M  V30 2 1 1 3
M  V30 3 1 2 4
M  V30 4 1 3 5
M  V30 5 1 4 6
M  V30 6 1 5 6
M  V30 7 1 2 7
M  V30 8 1 2 8
M  V30 9 1 3 9
M  V30 10 1 3 10
M  V30 11 1 4 11
M  V30 12 1 4 12
M  V30 13 1 5 13
M  V30 14 1 5 14
M  V30 15 1 6 15
M  V30 16 1 6 16
M  V30 END BOND
M  V30 END CTAB
M  END
>  <Structure No>
1631

>  <LogS>
0.727886015

>  <MMFF94 Energy>
68.373

$$$$
Compound 1632
Actelion Java MolfileCreator 2.0

  0  0  0  0  0  0              0 V3000
M  V30 BEGIN CTAB
M  V30 COUNTS 19 19 0 0 0
M  V30 BEGIN ATOM
M  V30 1 O -0.471 2.3571 0.5496 0
M  V30 2 C -0.8896 1.1775 0.41 0
M  V30 3 N -0.0955 0.0287 0.6151 0
M  V30 4 N -2.2121 0.8607 0.0473 0
M  V30 5 C -0.9407 -1.143 0.4162 0
M  V30 6 C 1.2908 0.005 1.0777 0
M  V30 7 C -2.3312 -0.5912 0.0076 0
M  V30 8 C 2.2374 0.4679 -0.0271 0
M  V30 9 O 2.1387 -0.3903 -1.1295 0
M  V30 10 H -2.972 1.5453 -0.1627 0
M  V30 11 H -1.0141 -1.7206 1.3629 0
M  V30 12 H -0.5176 -1.7838 -0.387 0
M  V30 13 H 1.3969 0.6662 1.9644 0
M  V30 14 H 1.5679 -1.0269 1.385 0
M  V30 15 H -3.1136 -0.9245 0.7226 0
M  V30 16 H -2.5964 -0.9169 -1.0208 0
M  V30 17 H 3.2792 0.4567 0.3635 0
M  V30 18 H 1.9836 1.5078 -0.3304 0
M  V30 19 H 2.769 -0.0372 -1.8098 0
M  V30 END ATOM
M  V30 BEGIN BOND
M  V30 1 2 1 2
M  V30 2 1 2 3
M  V30 3 1 2 4
M  V30 4 1 3 5
M  V30 5 1 3 6
M  V30 6 1 4 7
M  V30 7 1 6 8
M  V30 8 1 8 9
M  V30 9 1 5 7
M  V30 10 1 4 10
M  V30 11 1 5 11
M  V30 12 1 5 12
M  V30 13 1 6 13
M  V30 14 1 6 14
M  V30 15 1 7 15
M  V30 16 1 7 16
M  V30 17 1 8 17
M  V30 18 1 8 18
M  V30 19 1 9 19
M  V30 END BOND
M  V30 END CTAB
M  END
>  <Structure No>
1632

>  <LogS>
0.877677326

>  <MMFF94 Energy>
-44.233

$$$$
Compound 1633
Actelion Java MolfileCreator 2.0

  0  0  0  0  0  0              0 V3000
M  V30 BEGIN CTAB
M  V30 COUNTS 24 24 0 0 0
M  V30 BEGIN ATOM
M  V30 1 O 1.3245 0.3115 -0.0778 0
M  V30 2 C -0.0674 0.1417 -0.154 0
M  V30 3 C 2.249 -0.7186 0.2614 0
M  V30 4 C -0.8707 1.2456 -0.5014 0
M  V30 5 C -0.6803 -1.0997 0.107 0
M  V30 6 C 3.6657 -0.1552 0.2396 0
M  V30 7 N -0.2794 2.5218 -0.773 0
M  V30 8 C -2.2638 1.0982 -0.5832 0
M  V30 9 C -2.0679 -1.236 0.0228 0
M  V30 10 O 4.5948 -1.1616 0.5366 0
M  V30 11 C -2.8657 -0.1391 -0.3223 0
M  V30 12 N -4.2863 -0.2813 -0.4079 0
M  V30 13 H 2.022 -1.1037 1.2795 0
M  V30 14 H 2.1732 -1.5475 -0.4755 0
M  V30 15 H -0.0933 -1.9669 0.3762 0
M  V30 16 H 3.8848 0.2429 -0.7738 0
M  V30 17 H 3.7547 0.6841 0.9667 0
M  V30 18 H -0.8747 3.3407 -1.0305 0
M  V30 19 H 0.7532 2.6662 -0.721 0
M  V30 20 H -2.8799 1.9482 -0.8505 0
M  V30 21 H -2.5217 -2.1978 0.2269 0
M  V30 22 H 4.5528 -1.3061 1.5182 0
M  V30 23 H -4.8908 0.531 -0.6645 0
M  V30 24 H -4.7444 -1.1999 -0.215 0
M  V30 END ATOM
M  V30 BEGIN BOND
M  V30 1 1 1 2
M  V30 2 1 1 3
M  V30 3 2 2 4
M  V30 4 1 2 5
M  V30 5 1 3 6
M  V30 6 1 4 7
M  V30 7 1 4 8
M  V30 8 2 5 9
M  V30 9 1 6 10
M  V30 10 2 8 11
M  V30 11 1 11 12
M  V30 12 1 9 11
M  V30 13 1 3 13
M  V30 14 1 3 14
M  V30 15 1 5 15
M  V30 16 1 6 16
M  V30 17 1 6 17
M  V30 18 1 7 18
M  V30 19 1 7 19
M  V30 20 1 8 20
M  V30 21 1 9 21
M  V30 22 1 10 22
M  V30 23 1 12 23
M  V30 24 1 12 24
M  V30 END BOND
M  V30 END CTAB
M  END
>  <Structure No>
1633

>  <LogS>
-0.233704176

>  <MMFF94 Energy>
40.608

$$$$
Compound 1634
Actelion Java MolfileCreator 2.0

  0  0  0  0  0  0              0 V3000
M  V30 BEGIN CTAB
M  V30 COUNTS 11 10 0 0 0
M  V30 BEGIN ATOM
M  V30 1 O 1.7157 -1.5596 0.1558 0
M  V30 2 C 1.4312 -0.3344 0.2231 0
M  V30 3 O 2.4469 0.581 0.4761 0 CHG=-1
M  V30 4 C 0.0351 0.1178 0.0331 0
M  V30 5 C -0.2612 1.4221 0.0263 0
M  V30 6 C -1.0458 -0.8943 -0.233 0
M  V30 7 H 0.4991 2.1756 0.1878 0
M  V30 8 H -1.2752 1.7623 -0.1441 0
M  V30 9 H -0.8986 -1.791 0.4049 0
M  V30 10 H -1.0113 -1.1991 -1.2997 0
M  V30 11 H -2.0541 -0.4836 -0.0085 0
M  V30 END ATOM
M  V30 BEGIN BOND
M  V30 1 2 1 2
M  V30 2 1 2 3
M  V30 3 1 2 4
M  V30 4 2 4 5
M  V30 5 1 4 6
M  V30 6 1 5 7
M  V30 7 1 5 8
M  V30 8 1 6 9
M  V30 9 1 6 10
M  V30 10 1 6 11
M  V30 END BOND
M  V30 END CTAB
M  END
>  <Structure No>
1634

>  <LogS>
0.056273368

>  <MMFF94 Energy>
8.0129

$$$$
Compound 1635
Actelion Java MolfileCreator 2.0

  0  0  0  0  0  0              0 V3000
M  V30 BEGIN CTAB
M  V30 COUNTS 21 20 0 0 0
M  V30 BEGIN ATOM
M  V30 1 O 1.2491 1.796 -1.5616 0
M  V30 2 C 1.211 0.8177 -0.7647 0
M  V30 3 O -0.0159 0.2755 -0.3561 0
M  V30 4 C 2.4663 0.2261 -0.2491 0
M  V30 5 C -1.2787 0.7324 -0.7599 0
M  V30 6 C 3.6588 0.6612 -0.6739 0
M  V30 7 C 2.3908 -0.9288 0.7112 0
M  V30 8 O -1.3867 1.7059 -1.5565 0
M  V30 9 C -2.4886 0.0565 -0.2396 0
M  V30 10 C -3.7097 0.4088 -0.6598 0
M  V30 11 C -2.3306 -1.0905 0.7202 0
M  V30 12 H 4.5763 0.2083 -0.319 0
M  V30 13 H 3.7441 1.4741 -1.3841 0
M  V30 14 H 1.6054 -0.7411 1.4738 0
M  V30 15 H 2.1395 -1.8557 0.1543 0
M  V30 16 H 3.3523 -1.0812 1.2474 0
M  V30 17 H -3.8532 1.2138 -1.3695 0
M  V30 18 H -4.5928 -0.1057 -0.3015 0
M  V30 19 H -1.5571 -0.8494 1.4798 0
M  V30 20 H -2.0186 -1.998 0.1622 0
M  V30 21 H -3.2774 -1.3083 1.2602 0
M  V30 END ATOM
M  V30 BEGIN BOND
M  V30 1 2 1 2
M  V30 2 1 2 3
M  V30 3 1 2 4
M  V30 4 1 3 5
M  V30 5 2 4 6
M  V30 6 1 4 7
M  V30 7 2 5 8
M  V30 8 1 5 9
M  V30 9 2 9 10
M  V30 10 1 9 11
M  V30 11 1 6 12
M  V30 12 1 6 13
M  V30 13 1 7 14
M  V30 14 1 7 15
M  V30 15 1 7 16
M  V30 16 1 10 17
M  V30 17 1 10 18
M  V30 18 1 11 19
M  V30 19 1 11 20
M  V30 20 1 11 21
M  V30 END BOND
M  V30 END CTAB
M  END
>  <Structure No>
1635

>  <LogS>
-0.196759712

>  <MMFF94 Energy>
6.8554

$$$$
Compound 1636
Actelion Java MolfileCreator 2.0

  0  0  0  0  0  0              0 V3000
M  V30 BEGIN CTAB
M  V30 COUNTS 29 28 0 0 0
M  V30 BEGIN ATOM
M  V30 1 N 0.0 0.0 0.0 0 CHG=1
M  V30 2 C 0.5445 -1.1414 -0.8158 0
M  V30 3 C -0.0692 1.2688 -0.8065 0
M  V30 4 C 0.9158 0.2288 1.1722 0
M  V30 5 C -1.3913 -0.356 0.4503 0
M  V30 6 C 1.8992 -0.8874 -1.5067 0
M  V30 7 C -0.8295 1.174 -2.1446 0
M  V30 8 C 0.4274 1.2519 2.2172 0
M  V30 9 C -1.4974 -1.5383 1.4343 0
M  V30 10 H -0.1841 -1.4553 -1.5953 0
M  V30 11 H 0.6948 -2.0379 -0.1765 0
M  V30 12 H 0.9499 1.6605 -1.0186 0
M  V30 13 H -0.5769 2.0696 -0.2269 0
M  V30 14 H 1.9042 0.5999 0.8254 0
M  V30 15 H 1.1295 -0.7258 1.7013 0
M  V30 16 H -2.0226 -0.6313 -0.4217 0
M  V30 17 H -1.8955 0.5209 0.9127 0
M  V30 18 H 2.1754 -1.7907 -2.0904 0
M  V30 19 H 2.709 -0.7181 -0.7695 0
M  V30 20 H 1.8574 -0.0412 -2.2197 0
M  V30 21 H -0.7871 2.1627 -2.6483 0
M  V30 22 H -1.9005 0.935 -1.9904 0
M  V30 23 H -0.376 0.4382 -2.8366 0
M  V30 24 H 0.3406 2.2685 1.7851 0
M  V30 25 H 1.1763 1.3099 3.0352 0
M  V30 26 H -0.5345 0.9569 2.6794 0
M  V30 27 H -0.9472 -1.3533 2.3774 0
M  V30 28 H -2.565 -1.6815 1.7042 0
M  V30 29 H -1.1497 -2.4848 0.9754 0
M  V30 END ATOM
M  V30 BEGIN BOND
M  V30 1 1 1 2
M  V30 2 1 1 3
M  V30 3 1 1 4
M  V30 4 1 1 5
M  V30 5 1 2 6
M  V30 6 1 3 7
M  V30 7 1 4 8
M  V30 8 1 5 9
M  V30 9 1 2 10
M  V30 10 1 2 11
M  V30 11 1 3 12
M  V30 12 1 3 13
M  V30 13 1 4 14
M  V30 14 1 4 15
M  V30 15 1 5 16
M  V30 16 1 5 17
M  V30 17 1 6 18
M  V30 18 1 6 19
M  V30 19 1 6 20
M  V30 20 1 7 21
M  V30 21 1 7 22
M  V30 22 1 7 23
M  V30 23 1 8 24
M  V30 24 1 8 25
M  V30 25 1 8 26
M  V30 26 1 9 27
M  V30 27 1 9 28
M  V30 28 1 9 29
M  V30 END BOND
M  V30 END CTAB
M  END
>  <Structure No>
1636

>  <LogS>
0.583312842

>  <MMFF94 Energy>
28.543

$$$$
Compound 1637
Actelion Java MolfileCreator 2.0

  0  0  0  0  0  0              0 V3000
M  V30 BEGIN CTAB
M  V30 COUNTS 3 2 0 0 0
M  V30 BEGIN ATOM
M  V30 1 O 0 0 0 0 CHG=-1
M  V30 2 C 0 0 0 0
M  V30 3 N 0 0 0 0
M  V30 END ATOM
M  V30 BEGIN BOND
M  V30 1 1 1 2
M  V30 2 3 2 3
M  V30 END BOND
M  V30 END CTAB
M  END
>  <Structure No>
1637

>  <LogS>
0.17111691

>  <MMFF94 Energy>
MMFF94 error code 2

$$$$
Compound 1638
Actelion Java MolfileCreator 2.0

  0  0  0  0  0  0              0 V3000
M  V30 BEGIN CTAB
M  V30 COUNTS 5 4 0 0 0
M  V30 BEGIN ATOM
M  V30 1 O -0.4735 1.3421 0.3946 0
M  V30 2 C -0.428 0.0843 0.4147 0
M  V30 3 O 0.7968 -0.5721 0.4519 0
M  V30 4 O -1.6056 -0.6504 0.3997 0 CHG=-1
M  V30 5 H 1.6653 -0.0505 0.4634 0
M  V30 END ATOM
M  V30 BEGIN BOND
M  V30 1 2 1 2
M  V30 2 1 2 3
M  V30 3 1 2 4
M  V30 4 1 3 5
M  V30 END BOND
M  V30 END CTAB
M  END
>  <Structure No>
1638

>  <LogS>
0.057960927

>  <MMFF94 Energy>
-89.96

$$$$
Compound 1639
Actelion Java MolfileCreator 2.0

  0  0  0  0  0  0              0 V3000
M  V30 BEGIN CTAB
M  V30 COUNTS 19 18 0 0 0
M  V30 BEGIN ATOM
M  V30 1 O 2.9565 1.4394 0.0757 0
M  V30 2 C 2.0841 0.4654 0.5803 0
M  V30 3 C 0.6255 0.9097 0.3873 0
M  V30 4 N -0.3329 -0.0597 0.9548 0 CHG=1
M  V30 5 C -0.6286 -1.1848 0.0442 0
M  V30 6 C -1.6938 -0.8366 -1.0077 0
M  V30 7 O -2.9455 -0.6519 -0.4006 0
M  V30 8 H 2.94 1.3505 -0.913 0
M  V30 9 H 2.2918 0.3396 1.6641 0
M  V30 10 H 2.2739 -0.5105 0.0818 0
M  V30 11 H 0.4962 1.8889 0.9004 0
M  V30 12 H 0.4298 1.0846 -0.6923 0
M  V30 13 H 0.0467 -0.4437 1.8519 0
M  V30 14 H -1.2174 0.4423 1.1999 0
M  V30 15 H 0.2917 -1.5308 -0.4731 0
M  V30 16 H -1.0004 -2.0491 0.6386 0
M  V30 17 H -1.3951 0.0537 -1.6056 0
M  V30 18 H -1.7769 -1.6878 -1.716 0
M  V30 19 H -3.0766 0.3262 -0.2949 0
M  V30 END ATOM
M  V30 BEGIN BOND
M  V30 1 1 1 2
M  V30 2 1 2 3
M  V30 3 1 3 4
M  V30 4 1 4 5
M  V30 5 1 5 6
M  V30 6 1 6 7
M  V30 7 1 1 8
M  V30 8 1 2 9
M  V30 9 1 2 10
M  V30 10 1 3 11
M  V30 11 1 3 12
M  V30 12 1 4 13
M  V30 13 1 4 14
M  V30 14 1 5 15
M  V30 15 1 5 16
M  V30 16 1 6 17
M  V30 17 1 6 18
M  V30 18 1 7 19
M  V30 END BOND
M  V30 END CTAB
M  END
>  <Structure No>
1639

>  <LogS>
0.957792794

>  <MMFF94 Energy>
31.868

$$$$
Compound 1640
Actelion Java MolfileCreator 2.0

  0  0  0  0  0  0              0 V3000
M  V30 BEGIN CTAB
M  V30 COUNTS 43 42 0 0 0
M  V30 BEGIN ATOM
M  V30 1 O 6.0502 0.6272 0.941 0
M  V30 2 C 5.963 0.0181 -0.161 0
M  V30 3 O 5.5712 -1.3244 -0.2035 0
M  V30 4 C 6.2812 0.7037 -1.423 0
M  V30 5 C 5.1275 -2.0567 0.9384 0
M  V30 6 C 6.655 1.981 -1.4707 0
M  V30 7 C 3.6558 -1.7687 1.226 0
M  V30 8 O 3.5111 -0.4392 1.6818 0
M  V30 9 C 2.1521 -0.0479 1.6564 0
M  V30 10 C 1.8503 0.7164 0.3651 0
M  V30 11 O 0.5268 1.2172 0.3914 0
M  V30 12 C -0.3458 0.346 -0.2975 0
M  V30 13 C -1.7825 0.8276 -0.1121 0
M  V30 14 O -2.6734 0.0149 -0.8543 0
M  V30 15 C -3.2035 -1.0311 -0.06 0
M  V30 16 C -4.5311 -0.6099 0.5651 0
M  V30 17 O -5.4546 -0.2531 -0.459 0
M  V30 18 C -6.756 0.1754 -0.1851 0
M  V30 19 O -7.1623 0.2652 1.0068 0
M  V30 20 C -7.6413 0.5202 -1.3084 0
M  V30 21 C -8.8978 0.9253 -1.1337 0
M  V30 22 H 6.2031 0.1465 -2.348 0
M  V30 23 H 5.756 -1.8254 1.8263 0
M  V30 24 H 5.237 -3.1401 0.72 0
M  V30 25 H 6.8765 2.4424 -2.4243 0
M  V30 26 H 6.7446 2.5791 -0.5726 0
M  V30 27 H 3.306 -2.4708 2.0149 0
M  V30 28 H 3.0767 -1.9561 0.2923 0
M  V30 29 H 1.9781 0.636 2.5142 0
M  V30 30 H 1.4432 -0.8996 1.787 0
M  V30 31 H 2.5415 1.5838 0.3051 0
M  V30 32 H 2.0698 0.0823 -0.5263 0
M  V30 33 H -0.1095 0.3495 -1.3858 0
M  V30 34 H -0.2643 -0.6935 0.0925 0
M  V30 35 H -2.034 0.8851 0.9732 0
M  V30 36 H -1.8576 1.8634 -0.5059 0
M  V30 37 H -2.5027 -1.3847 0.732 0
M  V30 38 H -3.3904 -1.9037 -0.721 0
M  V30 39 H -4.9401 -1.458 1.1561 0
M  V30 40 H -4.3714 0.2546 1.2451 0
M  V30 41 H -7.2529 0.4394 -2.3159 0
M  V30 42 H -9.5103 1.1665 -1.9927 0
M  V30 43 H -9.3301 1.0201 -0.1456 0
M  V30 END ATOM
M  V30 BEGIN BOND
M  V30 1 2 1 2
M  V30 2 1 2 3
M  V30 3 1 2 4
M  V30 4 1 3 5
M  V30 5 2 4 6
M  V30 6 1 5 7
M  V30 7 1 7 8
M  V30 8 1 8 9
M  V30 9 1 9 10
M  V30 10 1 10 11
M  V30 11 1 11 12
M  V30 12 1 12 13
M  V30 13 1 13 14
M  V30 14 1 14 15
M  V30 15 1 15 16
M  V30 16 1 16 17
M  V30 17 1 17 18
M  V30 18 2 18 19
M  V30 19 1 18 20
M  V30 20 2 20 21
M  V30 21 1 4 22
M  V30 22 1 5 23
M  V30 23 1 5 24
M  V30 24 1 6 25
M  V30 25 1 6 26
M  V30 26 1 7 27
M  V30 27 1 7 28
M  V30 28 1 9 29
M  V30 29 1 9 30
M  V30 30 1 10 31
M  V30 31 1 10 32
M  V30 32 1 12 33
M  V30 33 1 12 34
M  V30 34 1 13 35
M  V30 35 1 13 36
M  V30 36 1 15 37
M  V30 37 1 15 38
M  V30 38 1 16 39
M  V30 39 1 16 40
M  V30 40 1 20 41
M  V30 41 1 21 42
M  V30 42 1 21 43
M  V30 END BOND
M  V30 END CTAB
M  END
>  <Structure No>
1640

>  <LogS>
-0.500013296

>  <MMFF94 Energy>
72.752

$$$$
Compound 1641
Actelion Java MolfileCreator 2.0

  0  0  0  0  0  0              0 V3000
M  V30 BEGIN CTAB
M  V30 COUNTS 73 76 0 0 0
M  V30 BEGIN ATOM
M  V30 1 S 0.0 2.6204 2.3745 0
M  V30 2 O 1.2027 1.7304 2.4958 0
M  V30 3 O -1.2401 1.8367 2.692 0
M  V30 4 O 0.1501 3.868 3.4877 0 CHG=-1
M  V30 5 C -0.1115 3.2708 0.732 0
M  V30 6 C -0.1322 2.4231 -0.3989 0
M  V30 7 C -0.1976 4.66 0.5495 0
M  V30 8 C -0.0488 0.9481 -0.2711 0
M  V30 9 C -0.2343 2.9784 -1.6821 0
M  V30 10 C -0.3081 5.2066 -0.7357 0
M  V30 11 C 1.206 0.2968 -0.2747 0
M  V30 12 C -1.2225 0.1683 -0.1548 0
M  V30 13 C -0.3215 4.361 -1.8497 0
M  V30 14 S -0.4037 6.9524 -0.9464 0
M  V30 15 C 1.2345 -1.1077 -0.1421 0
M  V30 16 C 2.4243 0.9971 -0.3863 0
M  V30 17 C -1.0911 -1.2305 -0.0269 0
M  V30 18 C -2.5123 0.7355 -0.1568 0
M  V30 19 O -1.1659 7.5602 0.1973 0
M  V30 20 O -1.1176 7.2795 -2.2282 0
M  V30 21 O 1.1469 7.5962 -0.9926 0 CHG=-1
M  V30 22 O 0.1079 -1.7992 -0.0255 0 CHG=1
M  V30 23 C 2.4541 -1.7857 -0.1217 0
M  V30 24 C 3.6523 0.3172 -0.3663 0
M  V30 25 C -2.2262 -2.0333 0.1006 0
M  V30 26 C -3.6554 -0.0676 -0.0214 0
M  V30 27 C 3.6647 -1.0882 -0.217 0
M  V30 28 C 4.9191 1.1263 -0.4569 0
M  V30 29 C -3.509 -1.4686 0.107 0
M  V30 30 C -5.0 0.607 -0.057 0
M  V30 31 N 4.8963 -1.8268 -0.1511 0
M  V30 32 N -4.6478 -2.339 0.2483 0
M  V30 33 C 5.2926 -2.6772 -1.2776 0
M  V30 34 C 5.6971 -1.8046 1.0798 0
M  V30 35 C -5.1268 -3.074 -0.934 0
M  V30 36 C -4.974 -2.8375 1.5947 0
M  V30 37 C 6.1844 -1.9028 -2.2407 0
M  V30 38 C 5.0179 -2.6212 2.1756 0
M  V30 39 C -5.6675 -2.1304 -2.0077 0
M  V30 40 C -5.7247 -1.787 2.4027 0
M  V30 41 H -0.1822 5.3204 1.4058 0
M  V30 42 H -0.2482 2.3366 -2.5545 0
M  V30 43 H -0.3968 4.7712 -2.8487 0
M  V30 44 H 2.4318 2.0765 -0.4777 0
M  V30 45 H -2.6413 1.8064 -0.2571 0
M  V30 46 H 2.4627 -2.8632 -0.0066 0
M  V30 47 H -2.1125 -3.1067 0.1963 0
M  V30 48 H 4.8112 1.9186 -1.2256 0
M  V30 49 H 5.1212 1.6016 0.5244 0
M  V30 50 H 5.7918 0.5134 -0.7453 0
M  V30 51 H -5.1683 1.0339 -1.068 0
M  V30 52 H -5.8346 -0.0861 0.1642 0
M  V30 53 H -5.029 1.428 0.6919 0
M  V30 54 H 5.8367 -3.5748 -0.9078 0
M  V30 55 H 4.392 -3.0401 -1.8249 0
M  V30 56 H 6.7082 -2.2272 0.8891 0
M  V30 57 H 5.831 -0.7601 1.4339 0
M  V30 58 H -5.9393 -3.7816 -0.6604 0
M  V30 59 H -4.2925 -3.6751 -1.36 0
M  V30 60 H -4.0406 -3.1141 2.1332 0
M  V30 61 H -5.5989 -3.7562 1.5426 0
M  V30 62 H 6.5207 -2.5713 -3.0604 0
M  V30 63 H 5.6205 -1.0542 -2.6857 0
M  V30 64 H 7.0783 -1.5178 -1.7036 0
M  V30 65 H 5.6667 -2.6477 3.0762 0
M  V30 66 H 4.8448 -3.6613 1.8247 0
M  V30 67 H 4.0446 -2.1611 2.4522 0
M  V30 68 H -6.0255 -2.7257 -2.8739 0
M  V30 69 H -6.5204 -1.5395 -1.6082 0
M  V30 70 H -4.8681 -1.4446 -2.3629 0
M  V30 71 H -6.682 -1.5312 1.9054 0
M  V30 72 H -5.9486 -2.1888 3.4127 0
M  V30 73 H -5.1062 -0.8723 2.5166 0
M  V30 END ATOM
M  V30 BEGIN BOND
M  V30 1 2 1 2
M  V30 2 2 1 3
M  V30 3 1 1 4
M  V30 4 1 1 5
M  V30 5 2 5 6
M  V30 6 1 5 7
M  V30 7 1 6 8
M  V30 8 1 6 9
M  V30 9 2 7 10
M  V30 10 1 8 11
M  V30 11 2 8 12
M  V30 12 2 9 13
M  V30 13 1 10 14
M  V30 14 1 11 15
M  V30 15 2 11 16
M  V30 16 1 12 17
M  V30 17 1 12 18
M  V30 18 2 14 19
M  V30 19 2 14 20
M  V30 20 1 14 21
M  V30 21 1 15 22
M  V30 22 2 15 23
M  V30 23 1 16 24
M  V30 24 1 17 25
M  V30 25 2 18 26
M  V30 26 1 23 27
M  V30 27 1 24 28
M  V30 28 2 25 29
M  V30 29 1 26 30
M  V30 30 1 27 31
M  V30 31 1 29 32
M  V30 32 1 31 33
M  V30 33 1 31 34
M  V30 34 1 32 35
M  V30 35 1 32 36
M  V30 36 1 33 37
M  V30 37 1 34 38
M  V30 38 1 35 39
M  V30 39 1 36 40
M  V30 40 1 10 13
M  V30 41 2 17 22
M  V30 42 2 24 27
M  V30 43 1 26 29
M  V30 44 1 7 41
M  V30 45 1 9 42
M  V30 46 1 13 43
M  V30 47 1 16 44
M  V30 48 1 18 45
M  V30 49 1 23 46
M  V30 50 1 25 47
M  V30 51 1 28 48
M  V30 52 1 28 49
M  V30 53 1 28 50
M  V30 54 1 30 51
M  V30 55 1 30 52
M  V30 56 1 30 53
M  V30 57 1 33 54
M  V30 58 1 33 55
M  V30 59 1 34 56
M  V30 60 1 34 57
M  V30 61 1 35 58
M  V30 62 1 35 59
M  V30 63 1 36 60
M  V30 64 1 36 61
M  V30 65 1 37 62
M  V30 66 1 37 63
M  V30 67 1 37 64
M  V30 68 1 38 65
M  V30 69 1 38 66
M  V30 70 1 38 67
M  V30 71 1 39 68
M  V30 72 1 39 69
M  V30 73 1 39 70
M  V30 74 1 40 71
M  V30 75 1 40 72
M  V30 76 1 40 73
M  V30 END BOND
M  V30 END CTAB
M  END
>  <Structure No>
1641

>  <LogS>
-0.80532039

>  <MMFF94 Energy>
75.588

$$$$
Compound 1642
Actelion Java MolfileCreator 2.0

  0  0  0  0  0  0              0 V3000
M  V30 BEGIN CTAB
M  V30 COUNTS 23 22 0 0 0
M  V30 BEGIN ATOM
M  V30 1 O 0.077 -0.154 0.385 0
M  V30 2 C 0.863 0.99 0.6451 0
M  V30 3 C -1.2873 0.2078 0.3581 0
M  V30 4 C 2.3351 0.5975 0.6638 0
M  V30 5 C -2.1285 -1.0366 0.0851 0
M  V30 6 O 2.7012 0.0921 -0.6028 0
M  V30 7 O -3.5069 -0.7187 0.1399 0
M  V30 8 C 4.0609 -0.2791 -0.5813 0
M  V30 9 C -4.0158 -0.5065 -1.1583 0
M  V30 10 H 0.7148 1.7631 -0.1437 0
M  V30 11 H 0.6073 1.4251 1.6385 0
M  V30 12 H -1.601 0.635 1.3384 0
M  V30 13 H -1.4791 0.9518 -0.4479 0
M  V30 14 H 2.4844 -0.1704 1.4577 0
M  V30 15 H 2.9327 1.5044 0.913 0
M  V30 16 H -1.9192 -1.7805 0.8831 0
M  V30 17 H -1.8127 -1.5093 -0.8761 0
M  V30 18 H 4.2456 -1.0896 0.1583 0
M  V30 19 H 4.7151 0.5962 -0.3711 0
M  V30 20 H 4.3361 -0.6702 -1.5823 0
M  V30 21 H -4.0041 -1.4511 -1.7456 0
M  V30 22 H -5.0711 -0.1747 -1.0752 0
M  V30 23 H -3.453 0.29 -1.6932 0
M  V30 END ATOM
M  V30 BEGIN BOND
M  V30 1 1 1 2
M  V30 2 1 1 3
M  V30 3 1 2 4
M  V30 4 1 3 5
M  V30 5 1 4 6
M  V30 6 1 5 7
M  V30 7 1 6 8
M  V30 8 1 7 9
M  V30 9 1 2 10
M  V30 10 1 2 11
M  V30 11 1 3 12
M  V30 12 1 3 13
M  V30 13 1 4 14
M  V30 14 1 4 15
M  V30 15 1 5 16
M  V30 16 1 5 17
M  V30 17 1 8 18
M  V30 18 1 8 19
M  V30 19 1 8 20
M  V30 20 1 9 21
M  V30 21 1 9 22
M  V30 22 1 9 23
M  V30 END BOND
M  V30 END CTAB
M  END
>  <Structure No>
1642

>  <LogS>
0.84545625

>  <MMFF94 Energy>
53.47

$$$$
Compound 1643
Actelion Java MolfileCreator 2.0

  0  0  0  0  0  0              0 V3000
M  V30 BEGIN CTAB
M  V30 COUNTS 11 10 0 0 0
M  V30 BEGIN ATOM
M  V30 1 O 1.0909 -0.935 -1.4028 0
M  V30 2 C 1.5984 -0.592 -0.3029 0
M  V30 3 O 2.9275 -0.9022 -0.0473 0 CHG=-1
M  V30 4 C 0.8218 0.1316 0.725 0
M  V30 5 C -0.4644 0.5003 0.6262 0
M  V30 6 C -1.3398 0.2357 -0.5604 0
M  V30 7 H 1.3439 0.3848 1.6398 0
M  V30 8 H -0.9069 1.0281 1.4626 0
M  V30 9 H -0.9233 0.7311 -1.4625 0
M  V30 10 H -1.4348 -0.8571 -0.7309 0
M  V30 11 H -2.3533 0.6484 -0.373 0
M  V30 END ATOM
M  V30 BEGIN BOND
M  V30 1 2 1 2
M  V30 2 1 2 3
M  V30 3 1 2 4
M  V30 4 2 4 5
M  V30 5 1 5 6
M  V30 6 1 4 7
M  V30 7 1 5 8
M  V30 8 1 6 9
M  V30 9 1 6 10
M  V30 10 1 6 11
M  V30 END BOND
M  V30 END CTAB
M  END
>  <Structure No>
1643

>  <LogS>
0.038175146

>  <MMFF94 Energy>
5.3516

$$$$
Compound 1644
Actelion Java MolfileCreator 2.0

  0  0  0  0  0  0              0 V3000
M  V30 BEGIN CTAB
M  V30 COUNTS 4 3 0 0 0
M  V30 BEGIN ATOM
M  V30 1 O 1.249 0.0 0.0 0
M  V30 2 N 0.0025 0.0314 -0.0094 0 CHG=1
M  V30 3 O -0.6542 1.2384 -0.0169 0 CHG=-1
M  V30 4 O -0.7142 -1.1409 -0.0121 0 CHG=-1
M  V30 END ATOM
M  V30 BEGIN BOND
M  V30 1 2 1 2
M  V30 2 1 2 3
M  V30 3 1 2 4
M  V30 END BOND
M  V30 END CTAB
M  END
>  <Structure No>
1644

>  <LogS>
-0.444071386

>  <MMFF94 Energy>
6.4146

$$$$
Compound 1645
Actelion Java MolfileCreator 2.0

  0  0  0  0  0  0              0 V3000
M  V30 BEGIN CTAB
M  V30 COUNTS 15 15 0 0 0
M  V30 BEGIN ATOM
M  V30 1 O -2.2695 1.5396 0.648 0
M  V30 2 C -1.318 0.7499 0.4115 0
M  V30 3 N -0.0151 0.9553 0.9081 0
M  V30 4 C -1.4415 -0.4657 -0.4155 0
M  V30 5 C 0.8591 -0.1109 0.4563 0 CFG=1
M  V30 6 C -0.0434 -1.0994 -0.3245 0
M  V30 7 C 1.9524 0.448 -0.4075 0
M  V30 8 O 1.6804 1.238 -1.3505 0
M  V30 9 O 3.2707 0.0689 -0.1888 0 CHG=-1
M  V30 10 H 0.2774 1.761 1.5051 0
M  V30 11 H -2.2196 -1.1424 -0.0016 0
M  V30 12 H -1.6837 -0.1874 -1.4636 0
M  V30 13 H 1.3037 -0.6173 1.3409 0
M  V30 14 H 0.3485 -1.3191 -1.3426 0
M  V30 15 H -0.1081 -2.0605 0.2316 0
M  V30 END ATOM
M  V30 BEGIN BOND
M  V30 1 2 1 2
M  V30 2 1 2 3
M  V30 3 1 2 4
M  V30 4 1 3 5
M  V30 5 1 4 6
M  V30 6 1 5 7
M  V30 7 2 7 8
M  V30 8 1 7 9
M  V30 9 1 5 6
M  V30 10 1 3 10
M  V30 11 1 4 11
M  V30 12 1 4 12
M  V30 13 1 5 13
M  V30 14 1 6 14
M  V30 15 1 6 15
M  V30 END BOND
M  V30 BEGIN COLLECTION
M  V30 MDLV30/STEABS ATOMS=(1 5)
M  V30 END COLLECTION
M  V30 END CTAB
M  END
>  <Structure No>
1645

>  <LogS>
-0.534193588

>  <MMFF94 Energy>
31.324

$$$$
Compound 1646
Actelion Java MolfileCreator 2.0

  0  0  0  0  0  0              0 V3000
M  V30 BEGIN CTAB
M  V30 COUNTS 16 15 0 0 0
M  V30 BEGIN ATOM
M  V30 1 O 2.8595 0.0 0.4632 0
M  V30 2 C 2.0716 -0.1204 -0.5113 0
M  V30 3 O 2.4352 0.3783 -1.7556 0 CHG=-1
M  V30 4 C 0.733 -0.7743 -0.3235 0
M  V30 5 N -0.2137 0.1077 0.3964 0 CHG=1
M  V30 6 C -0.6093 1.2614 -0.4331 0
M  V30 7 C -1.4117 -0.6545 0.7889 0
M  V30 8 H 0.3211 -1.0678 -1.3155 0
M  V30 9 H 0.8989 -1.7125 0.2523 0
M  V30 10 H 0.2394 0.4645 1.2715 0
M  V30 11 H 0.2726 1.8927 -0.674 0
M  V30 12 H -1.0829 0.9288 -1.3837 0
M  V30 13 H -1.3297 1.9072 0.1158 0
M  V30 14 H -1.9322 -1.0694 -0.1031 0
M  V30 15 H -2.1219 -0.0053 1.3474 0
M  V30 16 H -1.1348 -1.4942 1.4637 0
M  V30 END ATOM
M  V30 BEGIN BOND
M  V30 1 2 1 2
M  V30 2 1 2 3
M  V30 3 1 2 4
M  V30 4 1 4 5
M  V30 5 1 5 6
M  V30 6 1 5 7
M  V30 7 1 4 8
M  V30 8 1 4 9
M  V30 9 1 5 10
M  V30 10 1 6 11
M  V30 11 1 6 12
M  V30 12 1 6 13
M  V30 13 1 7 14
M  V30 14 1 7 15
M  V30 15 1 7 16
M  V30 END BOND
M  V30 END CTAB
M  END
>  <Structure No>
1646

>  <LogS>
0.809172864

>  <MMFF94 Energy>
5.8077

$$$$
Compound 1647
Actelion Java MolfileCreator 2.0

  0  0  0  0  0  0              0 V3000
M  V30 BEGIN CTAB
M  V30 COUNTS 5 4 0 0 0
M  V30 BEGIN ATOM
M  V30 1 O -0.4735 1.2631 0.5524 0
M  V30 2 C -0.3918 0.043 0.2534 0
M  V30 3 O 0.8515 -0.5549 0.0829 0
M  V30 4 O -1.5478 -0.7084 0.0932 0 CHG=-1
M  V30 5 H 1.7047 -0.0205 0.1963 0
M  V30 END ATOM
M  V30 BEGIN BOND
M  V30 1 2 1 2
M  V30 2 1 2 3
M  V30 3 1 2 4
M  V30 4 1 3 5
M  V30 END BOND
M  V30 END CTAB
M  END
>  <Structure No>
1647

>  <LogS>
0.953747696

>  <MMFF94 Energy>
-89.96

$$$$
Compound 1648
Actelion Java MolfileCreator 2.0

  0  0  0  0  0  0              0 V3000
M  V30 BEGIN CTAB
M  V30 COUNTS 16 15 0 0 0
M  V30 BEGIN ATOM
M  V30 1 O 2.7383 -0.76 0.684 0
M  V30 2 C 1.6084 -0.5186 -0.1092 0
M  V30 3 C 0.4766 0.0606 0.744 0
M  V30 4 C -0.7731 0.2704 -0.0803 0
M  V30 5 C -0.8415 1.2863 -0.9535 0
M  V30 6 C -1.9575 -0.6439 0.0831 0
M  V30 7 H 3.1606 0.1225 0.8526 0
M  V30 8 H 1.2783 -1.4819 -0.5538 0
M  V30 9 H 1.8651 0.1748 -0.9422 0
M  V30 10 H 0.7961 1.0285 1.1887 0
M  V30 11 H 0.2714 -0.6355 1.5856 0
M  V30 12 H -0.0052 1.9667 -1.0834 0
M  V30 13 H -1.7362 1.4505 -1.5469 0
M  V30 14 H -2.8369 -0.0617 0.431 0
M  V30 15 H -1.7513 -1.446 0.8223 0
M  V30 16 H -2.1991 -1.1223 -0.8895 0
M  V30 END ATOM
M  V30 BEGIN BOND
M  V30 1 1 1 2
M  V30 2 1 2 3
M  V30 3 1 3 4
M  V30 4 2 4 5
M  V30 5 1 4 6
M  V30 6 1 1 7
M  V30 7 1 2 8
M  V30 8 1 2 9
M  V30 9 1 3 10
M  V30 10 1 3 11
M  V30 11 1 5 12
M  V30 12 1 5 13
M  V30 13 1 6 14
M  V30 14 1 6 15
M  V30 15 1 6 16
M  V30 END BOND
M  V30 END CTAB
M  END
>  <Structure No>
1648

>  <LogS>
0.019067893

>  <MMFF94 Energy>
20.061

$$$$
Compound 1649
Actelion Java MolfileCreator 2.0

  0  0  0  0  0  0              0 V3000
M  V30 BEGIN CTAB
M  V30 COUNTS 40 42 0 0 0
M  V30 BEGIN ATOM
M  V30 1 S -1.476 3.4467 1.9684 0
M  V30 2 O -0.3973 3.8763 2.9229 0
M  V30 3 O -2.7616 3.292 2.7316 0
M  V30 4 O -1.6681 4.6161 0.7785 0 CHG=-1
M  V30 5 C -1.0382 1.9149 1.2189 0
M  V30 6 C 0.305 1.5877 1.0243 0
M  V30 7 C -2.0345 1.0392 0.7817 0
M  V30 8 C 0.6674 0.3811 0.4096 0
M  V30 9 C -1.7039 -0.1881 0.1778 0
M  V30 10 N 2.0581 0.1197 0.1645 0
M  V30 11 C -0.3409 -0.5323 0.0178 0
M  V30 12 C -2.8136 -1.135 -0.2649 0 CFG=2
M  V30 13 N 3.0232 0.4369 1.0273 0
M  V30 14 N 2.5276 -0.3725 -0.9815 0
M  V30 15 O -0.0127 -1.7904 -0.4954 0
M  V30 16 C -3.7102 -0.4604 -1.329 0
M  V30 17 C -3.6192 -1.6161 0.9522 0
M  V30 18 C 4.1626 0.1044 0.4035 0
M  V30 19 C 3.8593 -0.391 -0.8259 0
M  V30 20 C -4.6353 -1.45 -2.0383 0
M  V30 21 C 5.4738 0.2234 0.8534 0
M  V30 22 C 4.839 -0.8136 -1.7187 0
M  V30 23 C 6.4969 -0.1966 -0.0199 0
M  V30 24 C 6.1809 -0.7129 -1.3003 0
M  V30 25 H 1.0749 2.2869 1.3264 0
M  V30 26 H -3.0727 1.3127 0.92 0
M  V30 27 H -2.3706 -2.0397 -0.733 0
M  V30 28 H 0.9241 -2.1698 -0.4797 0
M  V30 29 H -3.0634 0.0123 -2.1007 0
M  V30 30 H -4.3281 0.3412 -0.8695 0
M  V30 31 H -2.9318 -2.0053 1.7338 0
M  V30 32 H -4.2224 -0.7905 1.386 0
M  V30 33 H -4.3015 -2.4429 0.6652 0
M  V30 34 H -5.1771 -0.9278 -2.855 0
M  V30 35 H -5.3877 -1.8603 -1.3335 0
M  V30 36 H -4.0491 -2.2828 -2.4817 0
M  V30 37 H 5.6993 0.6229 1.8337 0
M  V30 38 H 4.5815 -1.2031 -2.6951 0
M  V30 39 H 7.5312 -0.1225 0.2897 0
M  V30 40 H 6.9753 -1.0308 -1.9628 0
M  V30 END ATOM
M  V30 BEGIN BOND
M  V30 1 2 1 2
M  V30 2 2 1 3
M  V30 3 1 1 4
M  V30 4 1 1 5
M  V30 5 2 5 6
M  V30 6 1 5 7
M  V30 7 1 6 8
M  V30 8 2 7 9
M  V30 9 1 8 10
M  V30 10 2 8 11
M  V30 11 1 9 12
M  V30 12 1 10 13
M  V30 13 1 10 14
M  V30 14 1 11 15
M  V30 15 1 12 16
M  V30 16 1 12 17
M  V30 17 2 13 18
M  V30 18 2 14 19
M  V30 19 1 16 20
M  V30 20 1 18 21
M  V30 21 1 19 22
M  V30 22 2 21 23
M  V30 23 2 22 24
M  V30 24 1 9 11
M  V30 25 1 18 19
M  V30 26 1 23 24
M  V30 27 1 6 25
M  V30 28 1 7 26
M  V30 29 1 12 27
M  V30 30 1 15 28
M  V30 31 1 16 29
M  V30 32 1 16 30
M  V30 33 1 17 31
M  V30 34 1 17 32
M  V30 35 1 17 33
M  V30 36 1 20 34
M  V30 37 1 20 35
M  V30 38 1 20 36
M  V30 39 1 21 37
M  V30 40 1 22 38
M  V30 41 1 23 39
M  V30 42 1 24 40
M  V30 END BOND
M  V30 BEGIN COLLECTION
M  V30 MDLV30/STEABS ATOMS=(1 12)
M  V30 END COLLECTION
M  V30 END CTAB
M  END
>  <Structure No>
1649

>  <LogS>
-1.57624495

>  <MMFF94 Energy>
83.755

$$$$
Compound 1650
Actelion Java MolfileCreator 2.0

  0  0  0  0  0  0              0 V3000
M  V30 BEGIN CTAB
M  V30 COUNTS 17 17 0 0 0
M  V30 BEGIN ATOM
M  V30 1 N -3.0276 0.155 0.0775 0
M  V30 2 C -1.6005 0.0739 0.0313 0
M  V30 3 C -0.8234 1.2349 0.1499 0
M  V30 4 C -0.969 -1.1675 -0.1269 0
M  V30 5 C 0.5719 1.1559 0.1055 0
M  V30 6 C 0.4263 -1.2474 -0.1713 0
M  V30 7 C 1.2051 -0.084 -0.0707 0
M  V30 8 C 2.7024 -0.1738 -0.0784 0
M  V30 9 H -3.615 -0.7043 -0.0079 0
M  V30 10 H -3.5072 1.0753 0.1971 0
M  V30 11 H -1.2985 2.1992 0.2801 0
M  V30 12 H -1.5573 -2.0726 -0.212 0
M  V30 13 H 1.1579 2.0611 0.2081 0
M  V30 14 H 0.8988 -2.2154 -0.2845 0
M  V30 15 H 3.1483 0.7536 -0.4968 0
M  V30 16 H 3.0689 -0.3156 0.9596 0
M  V30 17 H 3.0404 -1.0286 -0.7022 0
M  V30 END ATOM
M  V30 BEGIN BOND
M  V30 1 1 1 2
M  V30 2 2 2 3
M  V30 3 1 2 4
M  V30 4 1 3 5
M  V30 5 2 4 6
M  V30 6 2 5 7
M  V30 7 1 7 8
M  V30 8 1 6 7
M  V30 9 1 1 9
M  V30 10 1 1 10
M  V30 11 1 3 11
M  V30 12 1 4 12
M  V30 13 1 5 13
M  V30 14 1 6 14
M  V30 15 1 8 15
M  V30 16 1 8 16
M  V30 17 1 8 17
M  V30 END BOND
M  V30 END CTAB
M  END
>  <Structure No>
1650

>  <LogS>
-1.047745261

>  <MMFF94 Energy>
10.239

$$$$
Compound 1651
Actelion Java MolfileCreator 2.0

  0  0  0  0  0  0              0 V3000
M  V30 BEGIN CTAB
M  V30 COUNTS 20 20 0 0 0
M  V30 BEGIN ATOM
M  V30 1 O -1.0962 0.3131 -0.3914 0
M  V30 2 C 0.2743 0.1439 -0.1412 0
M  V30 3 C -2.0591 -0.7369 -0.3521 0
M  V30 4 C 1.1123 1.2677 -0.2138 0
M  V30 5 C 0.8307 -1.1111 0.1783 0
M  V30 6 C -3.4348 -0.1761 -0.6749 0
M  V30 7 O 0.5698 2.5125 -0.5292 0
M  V30 8 C 2.4873 1.1372 0.0299 0
M  V30 9 C 2.2021 -1.233 0.4199 0
M  V30 10 C 3.0294 -0.1105 0.3459 0
M  V30 11 H -2.0805 -1.1907 0.6623 0
M  V30 12 H -1.7987 -1.5149 -1.102 0
M  V30 13 H 0.2132 -1.9965 0.2425 0
M  V30 14 H -3.4315 0.2764 -1.6892 0
M  V30 15 H -4.1885 -0.991 -0.6455 0
M  V30 16 H -3.7125 0.5997 0.0698 0
M  V30 17 H 1.1475 3.343 -0.5894 0
M  V30 18 H 3.1356 2.0025 -0.0254 0
M  V30 19 H 2.624 -2.1992 0.665 0
M  V30 20 H 4.0909 -0.2075 0.5335 0
M  V30 END ATOM
M  V30 BEGIN BOND
M  V30 1 1 1 2
M  V30 2 1 1 3
M  V30 3 2 2 4
M  V30 4 1 2 5
M  V30 5 1 3 6
M  V30 6 1 4 7
M  V30 7 1 4 8
M  V30 8 2 5 9
M  V30 9 2 8 10
M  V30 10 1 9 10
M  V30 11 1 3 11
M  V30 12 1 3 12
M  V30 13 1 5 13
M  V30 14 1 6 14
M  V30 15 1 6 15
M  V30 16 1 6 16
M  V30 17 1 7 17
M  V30 18 1 8 18
M  V30 19 1 9 19
M  V30 20 1 10 20
M  V30 END BOND
M  V30 END CTAB
M  END
>  <Structure No>
1651

>  <LogS>
-1.171451504

>  <MMFF94 Energy>
17.064

$$$$
Compound 1652
Actelion Java MolfileCreator 2.0

  0  0  0  0  0  0              0 V3000
M  V30 BEGIN CTAB
M  V30 COUNTS 30 30 0 0 0
M  V30 BEGIN ATOM
M  V30 1 O 2.6947 -2.2188 -1.4259 0
M  V30 2 C 2.6926 -1.4772 -0.4063 0
M  V30 3 O 1.5604 -0.7236 -0.0801 0
M  V30 4 C 3.8947 -1.4132 0.4369 0
M  V30 5 C 0.3667 -0.7446 -0.8599 0
M  V30 6 C 3.9559 -0.6498 1.5256 0
M  V30 7 C -0.7041 0.1912 -0.243 0
M  V30 8 C -2.0311 0.0183 -1.0306 0
M  V30 9 C -0.975 -0.2452 1.2216 0
M  V30 10 C -0.1906 1.6639 -0.3317 0
M  V30 11 O -2.7672 -1.0581 -0.4928 0
M  V30 12 O -2.3059 0.0613 1.575 0
M  V30 13 C -1.028 2.7076 0.4214 0
M  V30 14 C -3.2127 -0.7381 0.8216 0
M  V30 15 H 4.7585 -2.0065 0.1633 0
M  V30 16 H -0.0194 -1.7875 -0.9056 0
M  V30 17 H 0.6021 -0.4206 -1.8982 0
M  V30 18 H 3.1174 -0.0398 1.8378 0
M  V30 19 H 4.8599 -0.6303 2.1201 0
M  V30 20 H -2.6584 0.9349 -1.0276 0
M  V30 21 H -1.8265 -0.1905 -2.1028 0
M  V30 22 H -0.2826 0.2718 1.9197 0
M  V30 23 H -0.792 -1.336 1.3685 0
M  V30 24 H 0.8424 1.7223 0.0753 0
M  V30 25 H -0.1334 1.9671 -1.4002 0
M  V30 26 H -1.0451 2.4974 1.5102 0
M  V30 27 H -0.5686 3.7087 0.2805 0
M  V30 28 H -2.0664 2.7603 0.041 0
M  V30 29 H -4.1839 -0.2036 0.7529 0
M  V30 30 H -3.3995 -1.6843 1.3723 0
M  V30 END ATOM
M  V30 BEGIN BOND
M  V30 1 2 1 2
M  V30 2 1 2 3
M  V30 3 1 2 4
M  V30 4 1 3 5
M  V30 5 2 4 6
M  V30 6 1 5 7
M  V30 7 1 7 8
M  V30 8 1 7 9
M  V30 9 1 7 10
M  V30 10 1 8 11
M  V30 11 1 9 12
M  V30 12 1 10 13
M  V30 13 1 11 14
M  V30 14 1 12 14
M  V30 15 1 4 15
M  V30 16 1 5 16
M  V30 17 1 5 17
M  V30 18 1 6 18
M  V30 19 1 6 19
M  V30 20 1 8 20
M  V30 21 1 8 21
M  V30 22 1 9 22
M  V30 23 1 9 23
M  V30 24 1 10 24
M  V30 25 1 10 25
M  V30 26 1 13 26
M  V30 27 1 13 27
M  V30 28 1 13 28
M  V30 29 1 14 29
M  V30 30 1 14 30
M  V30 END BOND
M  V30 END CTAB
M  END
>  <Structure No>
1652

>  <LogS>
-1.333054875

>  <MMFF94 Energy>
-6.465

$$$$
Compound 1653
Actelion Java MolfileCreator 2.0

  0  0  0  0  0  0              0 V3000
M  V30 BEGIN CTAB
M  V30 COUNTS 19 19 0 0 0
M  V30 BEGIN ATOM
M  V30 1 O -3.7235 -1.5039 0.0791 0
M  V30 2 C -2.4783 -1.6339 0.2192 0
M  V30 3 C -1.5623 -0.503 -0.0209 0
M  V30 4 C -0.1802 -0.6827 0.1443 0
M  V30 5 C -2.0508 0.753 -0.4133 0
M  V30 6 C 0.7151 0.3831 -0.0794 0
M  V30 7 C -1.1693 1.8123 -0.6364 0
M  V30 8 O 2.1025 0.234 0.0778 0
M  V30 9 C 0.2076 1.6353 -0.4721 0
M  V30 10 C 2.7465 -0.974 0.4698 0
M  V30 11 O 1.0574 2.7168 -0.7041 0
M  V30 12 H -2.0836 -2.5957 0.5214 0
M  V30 13 H 0.1904 -1.6532 0.447 0
M  V30 14 H -3.1127 0.9173 -0.5476 0
M  V30 15 H -1.5578 2.7767 -0.9388 0
M  V30 16 H 2.3954 -1.2847 1.4764 0
M  V30 17 H 3.8417 -0.803 0.5131 0
M  V30 18 H 2.541 -1.7743 -0.272 0
M  V30 19 H 2.0625 2.6458 -0.6006 0
M  V30 END ATOM
M  V30 BEGIN BOND
M  V30 1 2 1 2
M  V30 2 1 2 3
M  V30 3 2 3 4
M  V30 4 1 3 5
M  V30 5 1 4 6
M  V30 6 2 5 7
M  V30 7 1 6 8
M  V30 8 2 6 9
M  V30 9 1 8 10
M  V30 10 1 9 11
M  V30 11 1 7 9
M  V30 12 1 2 12
M  V30 13 1 4 13
M  V30 14 1 5 14
M  V30 15 1 7 15
M  V30 16 1 10 16
M  V30 17 1 10 17
M  V30 18 1 10 18
M  V30 19 1 11 19
M  V30 END BOND
M  V30 END CTAB
M  END
>  <Structure No>
1653

>  <LogS>
-1.228026593

>  <MMFF94 Energy>
36.734

$$$$
Compound 1654
Actelion Java MolfileCreator 2.0

  0  0  0  0  0  0              0 V3000
M  V30 BEGIN CTAB
M  V30 COUNTS 27 28 0 0 0
M  V30 BEGIN ATOM
M  V30 1 O -2.8803 2.3198 2.2397 0
M  V30 2 C -3.3684 1.8164 1.1931 0
M  V30 3 O -4.563 2.3238 0.6949 0 CHG=-1
M  V30 4 C -2.6821 0.7023 0.5031 0
M  V30 5 C -1.4731 0.1811 0.9962 0
M  V30 6 C -3.2246 0.1451 -0.6627 0
M  V30 7 N -0.8431 -0.8515 0.3569 0 CHG=1
M  V30 8 C -2.5666 -0.8984 -1.3094 0
M  V30 9 C -1.3689 -1.3848 -0.7866 0
M  V30 10 C 0.436 -1.3547 0.8724 0
M  V30 11 C 1.5766 -0.5751 0.2758 0
M  V30 12 C 2.1473 -0.9763 -0.9434 0
M  V30 13 C 2.0388 0.595 0.9006 0
M  V30 14 C 3.181 -0.229 -1.5165 0
M  V30 15 C 3.0726 1.3396 0.3241 0
M  V30 16 C 3.6444 0.927 -0.8823 0
M  V30 17 H -1.0342 0.6044 1.8926 0
M  V30 18 H -4.1534 0.5168 -1.077 0
M  V30 19 H -2.9803 -1.3265 -2.2133 0
M  V30 20 H -0.8614 -2.1911 -1.3028 0
M  V30 21 H 0.5501 -2.437 0.6396 0
M  V30 22 H 0.4621 -1.2816 1.9828 0
M  V30 23 H 1.7918 -1.8653 -1.4494 0
M  V30 24 H 1.5989 0.9306 1.8315 0
M  V30 25 H 3.6203 -0.5442 -2.454 0
M  V30 26 H 3.4281 2.2384 0.8113 0
M  V30 27 H 4.4436 1.5051 -1.3279 0
M  V30 END ATOM
M  V30 BEGIN BOND
M  V30 1 2 1 2
M  V30 2 1 2 3
M  V30 3 1 2 4
M  V30 4 2 4 5
M  V30 5 1 4 6
M  V30 6 1 5 7
M  V30 7 2 6 8
M  V30 8 2 7 9
M  V30 9 1 7 10
M  V30 10 1 10 11
M  V30 11 2 11 12
M  V30 12 1 11 13
M  V30 13 1 12 14
M  V30 14 2 13 15
M  V30 15 2 14 16
M  V30 16 1 8 9
M  V30 17 1 15 16
M  V30 18 1 5 17
M  V30 19 1 6 18
M  V30 20 1 8 19
M  V30 21 1 9 20
M  V30 22 1 10 21
M  V30 23 1 10 22
M  V30 24 1 12 23
M  V30 25 1 13 24
M  V30 26 1 14 25
M  V30 27 1 15 26
M  V30 28 1 16 27
M  V30 END BOND
M  V30 END CTAB
M  END
>  <Structure No>
1654

>  <LogS>
0.519220267

>  <MMFF94 Energy>
5.3338

$$$$
Compound 1655
Actelion Java MolfileCreator 2.0

  0  0  0  0  0  0              0 V3000
M  V30 BEGIN CTAB
M  V30 COUNTS 16 15 0 0 0
M  V30 BEGIN ATOM
M  V30 1 N -0.0754 0.4526 1.4338 0 CHG=1
M  V30 2 C -0.0687 0.0214 0.0265 0
M  V30 3 C 1.2993 -0.381 -0.3589 0
M  V30 4 C -1.0119 -1.1803 -0.1586 0
M  V30 5 C -0.5204 1.1804 -0.8796 0
M  V30 6 C 2.4162 -0.7094 -0.6728 0
M  V30 7 H 0.2375 -0.3277 2.0576 0
M  V30 8 H -1.0393 0.7412 1.7216 0
M  V30 9 H 0.5693 1.266 1.5708 0
M  V30 10 H -1.0127 -1.5214 -1.2169 0
M  V30 11 H -0.6925 -2.0296 0.4836 0
M  V30 12 H -2.0513 -0.9046 0.1213 0
M  V30 13 H -0.5146 0.8711 -1.9475 0
M  V30 14 H 0.1575 2.0536 -0.7635 0
M  V30 15 H -1.5502 1.5021 -0.6137 0
M  V30 16 H 3.3964 -0.9975 -0.9483 0
M  V30 END ATOM
M  V30 BEGIN BOND
M  V30 1 1 1 2
M  V30 2 1 2 3
M  V30 3 1 2 4
M  V30 4 1 2 5
M  V30 5 3 3 6
M  V30 6 1 1 7
M  V30 7 1 1 8
M  V30 8 1 1 9
M  V30 9 1 4 10
M  V30 10 1 4 11
M  V30 11 1 4 12
M  V30 12 1 5 13
M  V30 13 1 5 14
M  V30 14 1 5 15
M  V30 15 1 6 16
M  V30 END BOND
M  V30 END CTAB
M  END
>  <Structure No>
1655

>  <LogS>
1.031655988

>  <MMFF94 Energy>
MMFF94 error code 2

$$$$
Compound 1656
Actelion Java MolfileCreator 2.0

  0  0  0  0  0  0              0 V3000
M  V30 BEGIN CTAB
M  V30 COUNTS 64 67 0 0 0
M  V30 BEGIN ATOM
M  V30 1 Cl 8.1826 -0.9254 2.8626 0
M  V30 2 C 7.6068 0.1971 1.6361 0
M  V30 3 C 6.8282 -0.2429 0.5475 0
M  V30 4 C 7.9087 1.5564 1.7758 0
M  V30 5 N 6.5237 -1.6404 0.3898 0
M  V30 6 C 6.3931 0.695 -0.4071 0
M  V30 7 C 7.4508 2.4826 0.8359 0
M  V30 8 C 5.2518 -2.1327 -0.0562 0
M  V30 9 C 6.6914 2.0552 -0.2601 0
M  V30 10 N 5.1064 -3.4514 -0.3452 0
M  V30 11 N 4.1805 -1.302 -0.1609 0
M  V30 12 S 6.1149 3.205 -1.4624 0
M  V30 13 C 3.9058 -3.9315 -0.7546 0
M  V30 14 C 2.9746 -1.778 -0.5626 0
M  V30 15 O 6.4177 4.6117 -1.0293 0
M  V30 16 O 4.6283 3.0542 -1.6244 0
M  V30 17 O 6.8765 2.9048 -2.929 0 CHG=-1
M  V30 18 F 3.7678 -5.2455 -1.0521 0
M  V30 19 N 2.8442 -3.0953 -0.87 0
M  V30 20 N 1.8713 -0.873 -0.7114 0
M  V30 21 C 0.5129 -1.2879 -0.9299 0
M  V30 22 C -0.3173 -0.519 -1.755 0
M  V30 23 C -0.0195 -2.4125 -0.2825 0
M  V30 24 C -1.6622 -0.8641 -1.949 0
M  V30 25 C -1.3419 -2.7956 -0.5107 0
M  V30 26 N -2.4598 -0.0281 -2.802 0
M  V30 27 C -2.1676 -2.0486 -1.3624 0
M  V30 28 N -3.467 0.6667 -2.4278 0
M  V30 29 S -3.7798 -2.6822 -1.7089 0
M  V30 30 C -3.9381 0.8127 -1.0731 0
M  V30 31 O -4.3107 -2.1352 -3.0035 0
M  V30 32 O -4.7128 -2.3279 -0.5868 0
M  V30 33 O -3.6929 -4.3545 -1.844 0 CHG=-1
M  V30 34 C -3.0681 1.2111 -0.0417 0
M  V30 35 C -5.3131 0.6823 -0.7976 0
M  V30 36 O -1.8802 1.528 -0.3239 0
M  V30 37 N -3.5117 1.3004 1.253 0
M  V30 38 C -5.7576 0.7732 0.5401 0
M  V30 39 C -6.2879 0.4297 -1.9273 0
M  V30 40 C -4.8327 1.0886 1.5506 0
M  V30 41 C -2.5752 1.6814 2.3285 0
M  V30 42 C -7.1754 0.5514 0.9067 0
M  V30 43 O -5.2742 1.1867 2.8697 0 CHG=-1
M  V30 44 C -2.5654 3.1946 2.5179 0
M  V30 45 O -7.7887 1.4179 1.5861 0
M  V30 46 N -7.8498 -0.6485 0.5265 0
M  V30 47 H 8.4968 1.8984 2.6178 0
M  V30 48 H 7.2447 -2.3446 0.6657 0
M  V30 49 H 5.8357 0.3683 -1.2758 0
M  V30 50 H 7.6934 3.5296 0.9639 0
M  V30 51 H 2.0873 0.149 -0.7523 0
M  V30 52 H 0.0794 0.3665 -2.2368 0
M  V30 53 H 0.5829 -2.9929 0.4035 0
M  V30 54 H -1.7205 -3.6874 -0.0274 0
M  V30 55 H -7.2643 0.9187 -1.7272 0
M  V30 56 H -6.4437 -0.6604 -2.0571 0
M  V30 57 H -5.9214 0.8527 -2.8857 0
M  V30 58 H -2.8504 1.1904 3.2868 0
M  V30 59 H -1.5443 1.3323 2.1006 0
M  V30 60 H -1.8533 3.4653 3.3255 0
M  V30 61 H -3.5782 3.5521 2.7991 0
M  V30 62 H -2.2497 3.6959 1.5788 0
M  V30 63 H -7.3354 -1.4277 0.0609 0
M  V30 64 H -8.8599 -0.779 0.7573 0
M  V30 END ATOM
M  V30 BEGIN BOND
M  V30 1 1 1 2
M  V30 2 2 2 3
M  V30 3 1 2 4
M  V30 4 1 3 5
M  V30 5 1 3 6
M  V30 6 2 4 7
M  V30 7 1 5 8
M  V30 8 2 6 9
M  V30 9 2 8 10
M  V30 10 1 8 11
M  V30 11 1 9 12
M  V30 12 1 10 13
M  V30 13 2 11 14
M  V30 14 2 12 15
M  V30 15 2 12 16
M  V30 16 1 12 17
M  V30 17 1 13 18
M  V30 18 2 13 19
M  V30 19 1 14 20
M  V30 20 1 20 21
M  V30 21 2 21 22
M  V30 22 1 21 23
M  V30 23 1 22 24
M  V30 24 2 23 25
M  V30 25 1 24 26
M  V30 26 2 24 27
M  V30 27 2 26 28
M  V30 28 1 27 29
M  V30 29 1 28 30
M  V30 30 2 29 31
M  V30 31 2 29 32
M  V30 32 1 29 33
M  V30 33 1 30 34
M  V30 34 2 30 35
M  V30 35 2 34 36
M  V30 36 1 34 37
M  V30 37 1 35 38
M  V30 38 1 35 39
M  V30 39 1 37 40
M  V30 40 1 37 41
M  V30 41 1 38 42
M  V30 42 1 40 43
M  V30 43 1 41 44
M  V30 44 2 42 45
M  V30 45 1 42 46
M  V30 46 1 7 9
M  V30 47 1 14 19
M  V30 48 1 25 27
M  V30 49 2 38 40
M  V30 50 1 4 47
M  V30 51 1 5 48
M  V30 52 1 6 49
M  V30 53 1 7 50
M  V30 54 1 20 51
M  V30 55 1 22 52
M  V30 56 1 23 53
M  V30 57 1 25 54
M  V30 58 1 39 55
M  V30 59 1 39 56
M  V30 60 1 39 57
M  V30 61 1 41 58
M  V30 62 1 41 59
M  V30 63 1 44 60
M  V30 64 1 44 61
M  V30 65 1 44 62
M  V30 66 1 46 63
M  V30 67 1 46 64
M  V30 END BOND
M  V30 END CTAB
M  END
>  <Structure No>
1656

>  <LogS>
-0.921034384

>  <MMFF94 Energy>
-9.1337

$$$$
Compound 1657
Actelion Java MolfileCreator 2.0

  0  0  0  0  0  0              0 V3000
M  V30 BEGIN CTAB
M  V30 COUNTS 25 24 0 0 0
M  V30 BEGIN ATOM
M  V30 1 O 3.5196 -0.6113 0.6113 0
M  V30 2 C 2.2454 -0.0497 0.4192 0 CFG=2
M  V30 3 C 1.3525 -1.036 -0.376 0
M  V30 4 C 2.3751 1.3204 -0.2605 0
M  V30 5 N -0.0325 -0.5696 -0.5823 0 CHG=1
M  V30 6 C -0.7814 -0.4326 0.6826 0
M  V30 7 C -2.303 -0.3134 0.4613 0 CFG=2
M  V30 8 O -2.7902 -1.4817 -0.1463 0
M  V30 9 C -2.672 0.9141 -0.3794 0
M  V30 10 H 3.934 -0.7315 -0.2833 0
M  V30 11 H 1.8094 0.1062 1.4276 0
M  V30 12 H 1.3431 -2.0175 0.1491 0
M  V30 13 H 1.8191 -1.2162 -1.3704 0
M  V30 14 H 1.4168 1.8775 -0.2059 0
M  V30 15 H 3.1462 1.9257 0.2614 0
M  V30 16 H 2.6741 1.2039 -1.3239 0
M  V30 17 H -0.0274 0.3377 -1.1005 0
M  V30 18 H -0.5065 -1.2773 -1.1902 0
M  V30 19 H -0.4393 0.4729 1.2299 0
M  V30 20 H -0.5986 -1.3142 1.3374 0
M  V30 21 H -2.7725 -0.197 1.4661 0
M  V30 22 H -3.7736 -1.489 -0.0083 0
M  V30 23 H -3.7748 1.0457 -0.3844 0
M  V30 24 H -2.2129 1.83 0.0496 0
M  V30 25 H -2.3328 0.7898 -1.4292 0
M  V30 END ATOM
M  V30 BEGIN BOND
M  V30 1 1 1 2
M  V30 2 1 2 3
M  V30 3 1 2 4
M  V30 4 1 3 5
M  V30 5 1 5 6
M  V30 6 1 6 7
M  V30 7 1 7 8
M  V30 8 1 7 9
M  V30 9 1 1 10
M  V30 10 1 2 11
M  V30 11 1 3 12
M  V30 12 1 3 13
M  V30 13 1 4 14
M  V30 14 1 4 15
M  V30 15 1 4 16
M  V30 16 1 5 17
M  V30 17 1 5 18
M  V30 18 1 6 19
M  V30 19 1 6 20
M  V30 20 1 7 21
M  V30 21 1 8 22
M  V30 22 1 9 23
M  V30 23 1 9 24
M  V30 24 1 9 25
M  V30 END BOND
M  V30 BEGIN COLLECTION
M  V30 MDLV30/STEABS ATOMS=(2 2 7)
M  V30 END COLLECTION
M  V30 END CTAB
M  END
>  <Structure No>
1657

>  <LogS>
0.815044373

>  <MMFF94 Energy>
35.183

$$$$
Compound 1658
Actelion Java MolfileCreator 2.0

  0  0  0  0  0  0              0 V3000
M  V30 BEGIN CTAB
M  V30 COUNTS 22 24 0 0 0
M  V30 BEGIN ATOM
M  V30 1 N -1.3768 -0.4048 -0.4857 0
M  V30 2 C -0.8815 -1.3367 0.5474 0
M  V30 3 C -0.4172 -0.3819 -1.6083 0
M  V30 4 C -1.4644 0.9501 0.0954 0
M  V30 5 N 0.4475 -0.9154 1.035 0
M  V30 6 N 0.9169 0.0498 -1.1445 0
M  V30 7 N -0.1419 1.3967 0.5781 0
M  V30 8 C 1.3872 -0.8869 -0.104 0
M  V30 9 C 0.34 0.4451 1.5997 0
M  V30 10 C 0.8042 1.3999 -0.556 0
M  V30 11 H -1.6017 -1.386 1.395 0
M  V30 12 H -0.8281 -2.37 0.1364 0
M  V30 13 H -0.3517 -1.3902 -2.0759 0
M  V30 14 H -0.7825 0.2991 -2.4097 0
M  V30 15 H -2.2001 0.9609 0.9312 0
M  V30 16 H -1.8572 1.6663 -0.6612 0
M  V30 17 H 1.5001 -1.9084 -0.5321 0
M  V30 18 H 2.4025 -0.5922 0.245 0
M  V30 19 H -0.3482 0.4426 2.4749 0
M  V30 20 H 1.3278 0.7748 1.9936 0
M  V30 21 H 1.8041 1.7547 -0.2187 0
M  V30 22 H 0.4711 2.1278 -1.3298 0
M  V30 END ATOM
M  V30 BEGIN BOND
M  V30 1 1 1 2
M  V30 2 1 1 3
M  V30 3 1 1 4
M  V30 4 1 2 5
M  V30 5 1 3 6
M  V30 6 1 4 7
M  V30 7 1 5 8
M  V30 8 1 5 9
M  V30 9 1 6 10
M  V30 10 1 6 8
M  V30 11 1 7 9
M  V30 12 1 7 10
M  V30 13 1 2 11
M  V30 14 1 2 12
M  V30 15 1 3 13
M  V30 16 1 3 14
M  V30 17 1 4 15
M  V30 18 1 4 16
M  V30 19 1 8 17
M  V30 20 1 8 18
M  V30 21 1 9 19
M  V30 22 1 9 20
M  V30 23 1 10 21
M  V30 24 1 10 22
M  V30 END BOND
M  V30 END CTAB
M  END
>  <Structure No>
1658

>  <LogS>
0.792402682

>  <MMFF94 Energy>
-335.06

$$$$
Compound 1659
Actelion Java MolfileCreator 2.0

  0  0  0  0  0  0              0 V3000
M  V30 BEGIN CTAB
M  V30 COUNTS 13 13 0 0 0
M  V30 BEGIN ATOM
M  V30 1 O -1.5623 0.5466 -1.3279 0
M  V30 2 C -0.6868 -0.3314 -0.6611 0 CFG=2
M  V30 3 C -1.7721 0.375 0.056 0
M  V30 4 C 0.7198 0.2582 -0.5414 0
M  V30 5 C 1.4681 -0.3833 0.6203 0
M  V30 6 H -0.8493 -1.3895 -0.9561 0
M  V30 7 H -1.5074 1.2934 0.6218 0
M  V30 8 H -2.6912 -0.2147 0.2532 0
M  V30 9 H 0.6895 1.3607 -0.3933 0
M  V30 10 H 1.271 0.0559 -1.4843 0
M  V30 11 H 0.9397 -0.1799 1.5763 0
M  V30 12 H 2.4928 0.0399 0.6827 0
M  V30 13 H 1.5447 -1.4814 0.47 0
M  V30 END ATOM
M  V30 BEGIN BOND
M  V30 1 1 1 2
M  V30 2 1 1 3
M  V30 3 1 2 4
M  V30 4 1 4 5
M  V30 5 1 2 3
M  V30 6 1 2 6
M  V30 7 1 3 7
M  V30 8 1 3 8
M  V30 9 1 4 9
M  V30 10 1 4 10
M  V30 11 1 5 11
M  V30 12 1 5 12
M  V30 13 1 5 13
M  V30 END BOND
M  V30 BEGIN COLLECTION
M  V30 MDLV30/STEABS ATOMS=(1 2)
M  V30 END COLLECTION
M  V30 END CTAB
M  END
>  <Structure No>
1659

>  <LogS>
0.080542298

>  <MMFF94 Energy>
5.4261

$$$$
Compound 1660
Actelion Java MolfileCreator 2.0

  0  0  0  0  0  0              0 V3000
M  V30 BEGIN CTAB
M  V30 COUNTS 4 3 0 0 0
M  V30 BEGIN ATOM
M  V30 1 O -0.9322 -0.8545 0.0 0
M  V30 2 C -0.0639 0.0558 -0.002 0
M  V30 3 O 1.2848 -0.2715 2.0E-4 0 CHG=-1
M  V30 4 H -0.3684 1.0935 -0.0055 0
M  V30 END ATOM
M  V30 BEGIN BOND
M  V30 1 2 1 2
M  V30 2 1 2 3
M  V30 3 1 2 4
M  V30 END BOND
M  V30 END CTAB
M  END
>  <Structure No>
1660

>  <LogS>
-0.274600321

>  <MMFF94 Energy>
0.012811

$$$$
Compound 1661
Actelion Java MolfileCreator 2.0

  0  0  0  0  0  0              0 V3000
M  V30 BEGIN CTAB
M  V30 COUNTS 17 17 0 0 0
M  V30 BEGIN ATOM
M  V30 1 O -0.1579 2.5302 0.9482 0
M  V30 2 C -0.063 1.4675 0.3536 0
M  V30 3 C 1.2876 0.8542 0.1062 0
M  V30 4 C -1.2859 0.8073 -0.221 0
M  V30 5 C 1.2476 -0.6541 0.3815 0
M  V30 6 C -1.2622 -0.6998 0.0623 0
M  V30 7 C 0.0774 -1.3273 -0.3513 0
M  V30 8 H 2.0527 1.3273 0.7594 0
M  V30 9 H 1.5745 1.0323 -0.9524 0
M  V30 10 H -2.2066 1.2498 0.2176 0
M  V30 11 H -1.3051 0.9799 -1.3186 0
M  V30 12 H 1.149 -0.8288 1.4758 0
M  V30 13 H 2.2032 -1.1126 0.048 0
M  V30 14 H -1.4345 -0.8758 1.1472 0
M  V30 15 H -2.0869 -1.1908 -0.4976 0
M  V30 16 H 0.0655 -2.4104 -0.1035 0
M  V30 17 H 0.2153 -1.2276 -1.4505 0
M  V30 END ATOM
M  V30 BEGIN BOND
M  V30 1 2 1 2
M  V30 2 1 2 3
M  V30 3 1 2 4
M  V30 4 1 3 5
M  V30 5 1 4 6
M  V30 6 1 5 7
M  V30 7 1 6 7
M  V30 8 1 3 8
M  V30 9 1 3 9
M  V30 10 1 4 10
M  V30 11 1 4 11
M  V30 12 1 5 12
M  V30 13 1 5 13
M  V30 14 1 6 14
M  V30 15 1 6 15
M  V30 16 1 7 16
M  V30 17 1 7 17
M  V30 END BOND
M  V30 END CTAB
M  END
>  <Structure No>
1661

>  <LogS>
-0.057369728

>  <MMFF94 Energy>
1.0611

$$$$
Compound 1662
Actelion Java MolfileCreator 2.0

  0  0  0  0  0  0              0 V3000
M  V30 BEGIN CTAB
M  V30 COUNTS 10 9 0 0 0
M  V30 BEGIN ATOM
M  V30 1 S 1.7582 -0.0976 0.3905 0
M  V30 2 O 1.1492 -0.3538 1.7403 0
M  V30 3 O 2.8628 -1.0866 0.15 0
M  V30 4 O 0.5885 -0.2737 -0.808 0
M  V30 5 O 2.3916 1.458 0.343 0 CHG=-1
M  V30 6 O -0.2704 0.7036 -0.5962 0
M  V30 7 S -1.7679 -0.051 -0.4318 0
M  V30 8 O -2.1039 -0.7966 -1.6927 0
M  V30 9 O -1.7372 -1.007 0.7275 0
M  V30 10 O -2.9427 1.116 -0.1521 0 CHG=-1
M  V30 END ATOM
M  V30 BEGIN BOND
M  V30 1 2 1 2
M  V30 2 2 1 3
M  V30 3 1 1 4
M  V30 4 1 1 5
M  V30 5 1 4 6
M  V30 6 1 6 7
M  V30 7 2 7 8
M  V30 8 2 7 9
M  V30 9 1 7 10
M  V30 END BOND
M  V30 END CTAB
M  END
>  <Structure No>
1662

>  <LogS>
0.571095673

>  <MMFF94 Energy>
60.681

$$$$
Compound 1663
Actelion Java MolfileCreator 2.0

  0  0  0  0  0  0              0 V3000
M  V30 BEGIN CTAB
M  V30 COUNTS 24 23 0 0 0
M  V30 BEGIN ATOM
M  V30 1 Cl 2.9774 -0.3913 -2.0364 0
M  V30 2 C 2.8378 -0.491 -0.259 0
M  V30 3 C 1.5387 0.1637 0.2386 0 CFG=2
M  V30 4 O 1.6168 0.3099 1.6342 0
M  V30 5 C 0.3039 -0.7135 -0.1164 0
M  V30 6 N -1.0186 -0.0111 -0.1007 0 CHG=1
M  V30 7 C -1.264 0.6736 1.1903 0
M  V30 8 C -1.1164 0.9692 -1.2104 0
M  V30 9 C -2.0794 -1.0307 -0.294 0
M  V30 10 H 2.8835 -1.5553 0.0566 0
M  V30 11 H 3.7133 0.0372 0.1751 0
M  V30 12 H 1.4616 1.163 -0.2404 0
M  V30 13 H 2.1763 1.1108 1.8122 0
M  V30 14 H 0.2898 -1.5701 0.5972 0
M  V30 15 H 0.458 -1.1711 -1.1199 0
M  V30 16 H -1.1197 -0.0244 2.0449 0
M  V30 17 H -0.5853 1.5435 1.325 0
M  V30 18 H -2.3032 1.0699 1.2424 0
M  V30 19 H -2.1487 1.3782 -1.2922 0
M  V30 20 H -0.4474 1.8406 -1.0557 0
M  V30 21 H -0.8585 0.4992 -2.1854 0
M  V30 22 H -3.0917 -0.5667 -0.3106 0
M  V30 23 H -1.9418 -1.5743 -1.2559 0
M  V30 24 H -2.0696 -1.7812 0.5282 0
M  V30 END ATOM
M  V30 BEGIN BOND
M  V30 1 1 1 2
M  V30 2 1 2 3
M  V30 3 1 3 4
M  V30 4 1 3 5
M  V30 5 1 5 6
M  V30 6 1 6 7
M  V30 7 1 6 8
M  V30 8 1 6 9
M  V30 9 1 2 10
M  V30 10 1 2 11
M  V30 11 1 3 12
M  V30 12 1 4 13
M  V30 13 1 5 14
M  V30 14 1 5 15
M  V30 15 1 7 16
M  V30 16 1 7 17
M  V30 17 1 7 18
M  V30 18 1 8 19
M  V30 19 1 8 20
M  V30 20 1 8 21
M  V30 21 1 9 22
M  V30 22 1 9 23
M  V30 23 1 9 24
M  V30 END BOND
M  V30 BEGIN COLLECTION
M  V30 MDLV30/STEABS ATOMS=(1 3)
M  V30 END COLLECTION
M  V30 END CTAB
M  END
>  <Structure No>
1663

>  <LogS>
0.647406308

>  <MMFF94 Energy>
52.775

$$$$
Compound 1664
Actelion Java MolfileCreator 2.0

  0  0  0  0  0  0              0 V3000
M  V30 BEGIN CTAB
M  V30 COUNTS 19 18 0 0 0
M  V30 BEGIN ATOM
M  V30 1 O 2.3041 0.8443 0.0767 0
M  V30 2 C 1.5061 -0.3058 -0.013 0
M  V30 3 C 0.0014 0.0584 0.0299 0
M  V30 4 C -0.8256 -1.2466 -0.0724 0
M  V30 5 C -0.3217 0.7754 1.3588 0
M  V30 6 C -0.3426 0.9862 -1.1554 0
M  V30 7 O -2.2011 -0.9736 -0.0381 0
M  V30 8 H 3.2452 0.5311 0.0426 0
M  V30 9 H 1.7519 -0.9896 0.8314 0
M  V30 10 H 1.737 -0.8391 -0.9634 0
M  V30 11 H -0.565 -1.9245 0.7724 0
M  V30 12 H -0.5798 -1.774 -1.0225 0
M  V30 13 H 0.2649 1.714 1.4555 0
M  V30 14 H -0.08 0.1216 2.2245 0
M  V30 15 H -1.399 1.0425 1.413 0
M  V30 16 H 0.2437 1.9285 -1.1039 0
M  V30 17 H -0.1161 0.4859 -2.1215 0
M  V30 18 H -1.4202 1.257 -1.1464 0
M  V30 19 H -2.659 -1.8513 -0.1078 0
M  V30 END ATOM
M  V30 BEGIN BOND
M  V30 1 1 1 2
M  V30 2 1 2 3
M  V30 3 1 3 4
M  V30 4 1 3 5
M  V30 5 1 3 6
M  V30 6 1 4 7
M  V30 7 1 1 8
M  V30 8 1 2 9
M  V30 9 1 2 10
M  V30 10 1 4 11
M  V30 11 1 4 12
M  V30 12 1 5 13
M  V30 13 1 5 14
M  V30 14 1 5 15
M  V30 15 1 6 16
M  V30 16 1 6 17
M  V30 17 1 6 18
M  V30 18 1 7 19
M  V30 END BOND
M  V30 END CTAB
M  END
>  <Structure No>
1664

>  <LogS>
0.901422988

>  <MMFF94 Energy>
20.834

$$$$
Compound 1665
Actelion Java MolfileCreator 2.0

  0  0  0  0  0  0              0 V3000
M  V30 BEGIN CTAB
M  V30 COUNTS 14 13 0 0 0
M  V30 BEGIN ATOM
M  V30 1 O 0.8456 -1.461 0.3843 0
M  V30 2 C 1.0862 -0.2975 -0.0381 0
M  V30 3 O 0.0879 0.4606 -0.66 0
M  V30 4 C 2.4657 0.2564 0.0733 0
M  V30 5 C -1.2634 0.0235 -0.79 0
M  V30 6 C -1.9988 0.1439 0.5397 0
M  V30 7 H 3.0794 -0.1056 -0.7773 0
M  V30 8 H 2.9317 -0.0692 1.0272 0
M  V30 9 H 2.4314 1.3659 0.0521 0
M  V30 10 H -1.7725 0.6669 -1.5381 0
M  V30 11 H -1.298 -1.0252 -1.1569 0
M  V30 12 H -1.9556 1.1925 0.9029 0
M  V30 13 H -1.5396 -0.5235 1.2983 0
M  V30 14 H -3.0619 -0.1469 0.4059 0
M  V30 END ATOM
M  V30 BEGIN BOND
M  V30 1 2 1 2
M  V30 2 1 2 3
M  V30 3 1 2 4
M  V30 4 1 3 5
M  V30 5 1 5 6
M  V30 6 1 4 7
M  V30 7 1 4 8
M  V30 8 1 4 9
M  V30 9 1 5 10
M  V30 10 1 5 11
M  V30 11 1 6 12
M  V30 12 1 6 13
M  V30 13 1 6 14
M  V30 END BOND
M  V30 END CTAB
M  END
>  <Structure No>
1665

>  <LogS>
-0.025404461

>  <MMFF94 Energy>
-11.098

$$$$
Compound 1666
Actelion Java MolfileCreator 2.0

  0  0  0  0  0  0              0 V3000
M  V30 BEGIN CTAB
M  V30 COUNTS 20 20 0 0 0
M  V30 BEGIN ATOM
M  V30 1 C -0.6258 -1.4869 0.9389 0
M  V30 2 C 0.7142 -1.4207 0.9925 0
M  V30 3 C -1.4642 -0.8728 -0.1514 0
M  V30 4 C 1.572 -0.7228 -0.0301 0
M  V30 5 C -1.5447 0.6587 -0.0291 0
M  V30 6 C 1.4915 0.8086 0.0921 0
M  V30 7 C -0.687 1.3566 -1.0518 0
M  V30 8 C 0.6531 1.4228 -0.9982 0
M  V30 9 H -1.14 -2.0468 1.7152 0
M  V30 10 H 1.2177 -1.9303 1.8092 0
M  V30 11 H -2.4924 -1.2839 -0.0501 0
M  V30 12 H -1.0986 -1.1929 -1.1516 0
M  V30 13 H 2.6242 -1.0311 0.154 0
M  V30 14 H 1.3203 -1.0734 -1.055 0
M  V30 15 H -2.597 0.967 -0.2133 0
M  V30 16 H -1.2931 1.0093 0.9957 0
M  V30 17 H 1.1257 1.1289 1.0923 0
M  V30 18 H 2.5196 1.2199 -0.0091 0
M  V30 19 H -1.1906 1.8662 -1.8685 0
M  V30 20 H 1.1671 1.9828 -1.7744 0
M  V30 END ATOM
M  V30 BEGIN BOND
M  V30 1 2 1 2
M  V30 2 1 1 3
M  V30 3 1 2 4
M  V30 4 1 3 5
M  V30 5 1 4 6
M  V30 6 1 5 7
M  V30 7 1 6 8
M  V30 8 2 7 8
M  V30 9 1 1 9
M  V30 10 1 2 10
M  V30 11 1 3 11
M  V30 12 1 3 12
M  V30 13 1 4 13
M  V30 14 1 4 14
M  V30 15 1 5 15
M  V30 16 1 5 16
M  V30 17 1 6 17
M  V30 18 1 6 18
M  V30 19 1 7 19
M  V30 20 1 8 20
M  V30 END BOND
M  V30 END CTAB
M  END
>  <Structure No>
1666

>  <LogS>
-2.499798074

>  <MMFF94 Energy>
33.855

$$$$
Compound 1667
Actelion Java MolfileCreator 2.0

  0  0  0  0  0  0              0 V3000
M  V30 BEGIN CTAB
M  V30 COUNTS 16 16 0 0 0
M  V30 BEGIN ATOM
M  V30 1 O 1.3139 2.5469 -1.3961 0
M  V30 2 C 1.4617 1.6281 -0.547 0
M  V30 3 O 2.6686 1.5272 0.1348 0 CHG=-1
M  V30 4 C 0.3381 0.7154 -0.2336 0
M  V30 5 C 0.5334 -0.6388 0.1565 0
M  V30 6 C -0.9685 1.2382 -0.2597 0
M  V30 7 C 1.8488 -1.316 0.085 0
M  V30 8 C -0.5765 -1.3991 0.5679 0
M  V30 9 C -2.0574 0.4585 0.131 0
M  V30 10 O 2.6822 -1.0126 -0.8089 0
M  V30 11 O 2.1514 -2.3458 0.9682 0 CHG=-1
M  V30 12 C -1.8605 -0.8532 0.5552 0
M  V30 13 H -1.145 2.2659 -0.5536 0
M  V30 14 H -0.4555 -2.432 0.871 0
M  V30 15 H -3.0555 0.8776 0.1172 0
M  V30 16 H -2.7066 -1.4541 0.863 0
M  V30 END ATOM
M  V30 BEGIN BOND
M  V30 1 2 1 2
M  V30 2 1 2 3
M  V30 3 1 2 4
M  V30 4 2 4 5
M  V30 5 1 4 6
M  V30 6 1 5 7
M  V30 7 1 5 8
M  V30 8 2 6 9
M  V30 9 2 7 10
M  V30 10 1 7 11
M  V30 11 2 8 12
M  V30 12 1 9 12
M  V30 13 1 6 13
M  V30 14 1 8 14
M  V30 15 1 9 15
M  V30 16 1 12 16
M  V30 END BOND
M  V30 END CTAB
M  END
>  <Structure No>
1667

>  <LogS>
-0.391024433

>  <MMFF94 Energy>
124.43

$$$$
Compound 1668
Actelion Java MolfileCreator 2.0

  0  0  0  0  0  0              0 V3000
M  V30 BEGIN CTAB
M  V30 COUNTS 7 6 0 0 0
M  V30 BEGIN ATOM
M  V30 1 Cl -1.4422 1.3573 -0.3392 0
M  V30 2 C -0.6045 -0.168 0.0309 0
M  V30 3 C 0.8641 0.0766 0.1255 0
M  V30 4 O 1.3811 0.4091 1.2244 0
M  V30 5 O 1.6583 -0.0119 -1.0104 0 CHG=-1
M  V30 6 H -0.8124 -0.9032 -0.7744 0
M  V30 7 H -0.9876 -0.5731 0.9915 0
M  V30 END ATOM
M  V30 BEGIN BOND
M  V30 1 1 1 2
M  V30 2 1 2 3
M  V30 3 2 3 4
M  V30 4 1 3 5
M  V30 5 1 2 6
M  V30 6 1 2 7
M  V30 END BOND
M  V30 END CTAB
M  END
>  <Structure No>
1668

>  <LogS>
0.848624184

>  <MMFF94 Energy>
41.06

$$$$
Compound 1669
Actelion Java MolfileCreator 2.0

  0  0  0  0  0  0              0 V3000
M  V30 BEGIN CTAB
M  V30 COUNTS 19 19 0 0 0
M  V30 BEGIN ATOM
M  V30 1 O -0.7094 2.6822 -1.1826 0
M  V30 2 C -0.3111 1.6967 -0.5059 0
M  V30 3 N 1.0623 1.298 -0.5929 0
M  V30 4 C -1.2893 0.9622 0.3651 0
M  V30 5 C 1.6223 0.1815 0.164 0
M  V30 6 C -1.4765 -0.488 -0.0988 0
M  V30 7 C 0.9995 -1.1492 -0.2757 0
M  V30 8 C -0.358 -1.421 0.3875 0
M  V30 9 H 1.7007 1.8464 -1.2127 0
M  V30 10 H -2.2742 1.477 0.3173 0
M  V30 11 H -0.9545 0.9991 1.424 0
M  V30 12 H 1.4837 0.3503 1.2538 0
M  V30 13 H 2.7168 0.1372 -0.0255 0
M  V30 14 H -1.567 -0.5368 -1.2065 0
M  V30 15 H -2.4348 -0.8626 0.3226 0
M  V30 16 H 0.9029 -1.1832 -1.383 0
M  V30 17 H 1.6907 -1.9685 0.0196 0
M  V30 18 H -0.6541 -2.4646 0.1443 0
M  V30 19 H -0.2631 -1.3619 1.494 0
M  V30 END ATOM
M  V30 BEGIN BOND
M  V30 1 2 1 2
M  V30 2 1 2 3
M  V30 3 1 2 4
M  V30 4 1 3 5
M  V30 5 1 4 6
M  V30 6 1 5 7
M  V30 7 1 6 8
M  V30 8 1 7 8
M  V30 9 1 3 9
M  V30 10 1 4 10
M  V30 11 1 4 11
M  V30 12 1 5 12
M  V30 13 1 5 13
M  V30 14 1 6 14
M  V30 15 1 6 15
M  V30 16 1 7 16
M  V30 17 1 7 17
M  V30 18 1 8 18
M  V30 19 1 8 19
M  V30 END BOND
M  V30 END CTAB
M  END
>  <Structure No>
1669

>  <LogS>
0.860120914

>  <MMFF94 Energy>
-21.51

$$$$
Compound 1670
Actelion Java MolfileCreator 2.0

  0  0  0  0  0  0              0 V3000
M  V30 BEGIN CTAB
M  V30 COUNTS 4 3 0 0 0
M  V30 BEGIN ATOM
M  V30 1 O 1.6663 -0.0756 0.1513 0
M  V30 2 N 0.5457 0.152 -0.3457 0
M  V30 3 O -0.5931 -0.1186 0.374 0
M  V30 4 H -1.5027 0.0661 -0.0295 0
M  V30 END ATOM
M  V30 BEGIN BOND
M  V30 1 2 1 2
M  V30 2 1 2 3
M  V30 3 1 3 4
M  V30 END BOND
M  V30 END CTAB
M  END
>  <Structure No>
1670

>  <LogS>
1.074996233

>  <MMFF94 Energy>
-7.6203

$$$$
Compound 1671
Actelion Java MolfileCreator 2.0

  0  0  0  0  0  0              0 V3000
M  V30 BEGIN CTAB
M  V30 COUNTS 18 18 0 0 0
M  V30 BEGIN ATOM
M  V30 1 S 3.0885 -0.3335 0.0 0
M  V30 2 O 3.525 -0.9925 -1.278 0
M  V30 3 O 3.5302 -1.1844 1.1572 0
M  V30 4 O 3.7979 1.1838 0.1181 0 CHG=-1
M  V30 5 C 1.3365 -0.1638 0.017 0
M  V30 6 C 0.638 -0.1825 1.2318 0
M  V30 7 C 0.633 0.0078 -1.1825 0
M  V30 8 C -0.7526 -0.0382 1.2466 0
M  V30 9 C -0.7575 0.1521 -1.1688 0
M  V30 10 C -1.4576 0.1443 0.0473 0
M  V30 11 C -2.9531 0.2597 0.0595 0
M  V30 12 H 1.168 -0.3102 2.167 0
M  V30 13 H 1.1591 0.0283 -2.1283 0
M  V30 14 H -1.2786 -0.0663 2.193 0
M  V30 15 H -1.2875 0.2725 -2.1055 0
M  V30 16 H -3.3014 0.7385 0.9995 0
M  V30 17 H -3.4019 -0.7522 -0.0191 0
M  V30 18 H -3.3052 0.8798 -0.792 0
M  V30 END ATOM
M  V30 BEGIN BOND
M  V30 1 2 1 2
M  V30 2 2 1 3
M  V30 3 1 1 4
M  V30 4 1 1 5
M  V30 5 2 5 6
M  V30 6 1 5 7
M  V30 7 1 6 8
M  V30 8 2 7 9
M  V30 9 2 8 10
M  V30 10 1 10 11
M  V30 11 1 9 10
M  V30 12 1 6 12
M  V30 13 1 7 13
M  V30 14 1 8 14
M  V30 15 1 9 15
M  V30 16 1 11 16
M  V30 17 1 11 17
M  V30 18 1 11 18
M  V30 END BOND
M  V30 END CTAB
M  END
>  <Structure No>
1671

>  <LogS>
0.624533151

>  <MMFF94 Energy>
50.003

$$$$
Compound 1672
Actelion Java MolfileCreator 2.0

  0  0  0  0  0  0              0 V3000
M  V30 BEGIN CTAB
M  V30 COUNTS 32 31 0 0 0
M  V30 BEGIN ATOM
M  V30 1 S 0.0 0.0 0.0 0
M  V30 2 O -0.1778 -0.9765 -1.1275 0
M  V30 3 O -0.3808 -0.6569 1.2962 0
M  V30 4 O -0.9809 1.3384 -0.2586 0 CHG=-1
M  V30 5 O 1.6055 0.4878 0.0701 0 CHG=-1
M  V30 6 O 3.6778 0.3602 0.466 0
M  V30 7 C 2.3061 0.0984 0.3153 0
M  V30 8 C 4.6259 -0.5687 0.9816 0
M  V30 9 C 1.4731 1.1052 -0.2081 0
M  V30 10 C 1.7431 -1.1408 0.6727 0
M  V30 11 N 2.0147 2.378 -0.5817 0
M  V30 12 C 0.0996 0.8657 -0.3676 0
M  V30 13 C 0.3756 -1.371 0.511 0
M  V30 14 C -0.4608 -0.3742 -0.0093 0
M  V30 15 N -1.8674 -0.6451 -0.1631 0
M  V30 16 C -2.8202 0.3311 -0.6969 0
M  V30 17 C -4.2332 -0.2472 -0.7379 0
M  V30 18 O -5.116 0.7103 -1.2522 0
M  V30 19 H 4.6631 -1.473 0.3384 0
M  V30 20 H 4.3588 -0.8491 2.0225 0
M  V30 21 H 5.6294 -0.096 0.988 0
M  V30 22 H 2.3544 -1.9355 1.0778 0
M  V30 23 H 1.3981 3.1262 -0.9703 0
M  V30 24 H 3.0315 2.5899 -0.4765 0
M  V30 25 H -0.5218 1.6534 -0.7716 0
M  V30 26 H -0.0337 -2.3328 0.7935 0
M  V30 27 H -2.2203 -1.5878 0.1224 0
M  V30 28 H -2.5171 0.6166 -1.7277 0
M  V30 29 H -2.8198 1.2372 -0.0527 0
M  V30 30 H -4.5468 -0.531 0.2918 0
M  V30 31 H -4.2435 -1.1525 -1.3856 0
M  V30 32 H -6.0122 0.2838 -1.256 0
M  V30 END ATOM
M  V30 BEGIN BOND
M  V30 1 2 1 2
M  V30 2 2 1 3
M  V30 3 1 1 4
M  V30 4 1 1 5
M  V30 5 1 6 7
M  V30 6 1 6 8
M  V30 7 2 7 9
M  V30 8 1 7 10
M  V30 9 1 9 11
M  V30 10 1 9 12
M  V30 11 2 10 13
M  V30 12 2 12 14
M  V30 13 1 14 15
M  V30 14 1 15 16
M  V30 15 1 16 17
M  V30 16 1 17 18
M  V30 17 1 13 14
M  V30 18 1 8 19
M  V30 19 1 8 20
M  V30 20 1 8 21
M  V30 21 1 10 22
M  V30 22 1 11 23
M  V30 23 1 11 24
M  V30 24 1 12 25
M  V30 25 1 13 26
M  V30 26 1 15 27
M  V30 27 1 16 28
M  V30 28 1 16 29
M  V30 29 1 17 30
M  V30 30 1 17 31
M  V30 31 1 18 32
M  V30 END BOND
M  V30 END CTAB
M  END
>  <Structure No>
1672

>  <LogS>
-0.534342295

>  <MMFF94 Energy>
49.146

$$$$
Compound 1673
Actelion Java MolfileCreator 2.0

  0  0  0  0  0  0              0 V3000
M  V30 BEGIN CTAB
M  V30 COUNTS 19 18 0 0 0
M  V30 BEGIN ATOM
M  V30 1 N -0.0753 -0.1506 -0.9794 0 CHG=1
M  V30 2 C 1.3601 0.1649 -0.8981 0
M  V30 3 C -0.8501 0.5599 0.0523 0
M  V30 4 C 2.0019 -0.4797 0.3052 0
M  V30 5 C -2.3251 0.3051 -0.1109 0
M  V30 6 C 2.4542 0.2412 1.335 0
M  V30 7 C -2.8636 -0.8903 0.1446 0
M  V30 8 H -0.2124 -1.1848 -0.8875 0
M  V30 9 H -0.4193 0.1447 -1.9237 0
M  V30 10 H 1.5186 1.2674 -0.9034 0
M  V30 11 H 1.8697 -0.2325 -1.8028 0
M  V30 12 H -0.6764 1.656 -0.0302 0
M  V30 13 H -0.5385 0.2365 1.0701 0
M  V30 14 H 2.0682 -1.5627 0.3473 0
M  V30 15 H -2.9713 1.1222 -0.4182 0
M  V30 16 H 2.8957 -0.256 2.1923 0
M  V30 17 H 2.3852 1.3248 1.3352 0
M  V30 18 H -2.2483 -1.7223 0.4736 0
M  V30 19 H -3.9321 -1.0402 0.0297 0
M  V30 END ATOM
M  V30 BEGIN BOND
M  V30 1 1 1 2
M  V30 2 1 1 3
M  V30 3 1 2 4
M  V30 4 1 3 5
M  V30 5 2 4 6
M  V30 6 2 5 7
M  V30 7 1 1 8
M  V30 8 1 1 9
M  V30 9 1 2 10
M  V30 10 1 2 11
M  V30 11 1 3 12
M  V30 12 1 3 13
M  V30 13 1 4 14
M  V30 14 1 5 15
M  V30 15 1 6 16
M  V30 16 1 6 17
M  V30 17 1 7 18
M  V30 18 1 7 19
M  V30 END BOND
M  V30 END CTAB
M  END
>  <Structure No>
1673

>  <LogS>
-0.079006957

>  <MMFF94 Energy>
-21.17

$$$$
Compound 1674
Actelion Java MolfileCreator 2.0

  0  0  0  0  0  0              0 V3000
M  V30 BEGIN CTAB
M  V30 COUNTS 106 111 0 0 0
M  V30 BEGIN ATOM
M  V30 1 S -2.2817 -1.5478 3.5872 0
M  V30 2 O -0.8928 -2.1136 3.6389 0
M  V30 3 O -3.2677 -2.6813 3.5952 0
M  V30 4 O -2.5751 -0.5958 4.9371 0 CHG=-1
M  V30 5 C -2.4816 -0.5983 2.1158 0
M  V30 6 C -2.1249 0.7725 2.0526 0
M  V30 7 C -3.1133 -1.1934 1.0113 0
M  V30 8 C -2.4996 1.5323 0.9306 0
M  V30 9 C -1.4883 1.4916 3.1767 0
M  V30 10 C -3.4825 -0.4292 -0.0997 0
M  V30 11 C -3.1755 0.9375 -0.1336 0
M  V30 12 C -0.2269 1.3165 3.593 0
M  V30 13 N -4.2865 -1.0111 -1.1313 0
M  V30 14 C 0.778 0.4181 2.9737 0
M  V30 15 C -5.6551 -0.6157 -1.2812 0
M  V30 16 C 1.6646 -0.3424 3.7808 0
M  V30 17 C 0.9453 0.4049 1.574 0
M  V30 18 N -6.4292 -1.153 -2.2568 0
M  V30 19 N -6.2023 0.2608 -0.4066 0
M  V30 20 S 1.5923 -0.3293 5.551 0
M  V30 21 C 2.6722 -1.0981 3.1707 0
M  V30 22 C 1.9721 -0.3354 0.9846 0
M  V30 23 C -7.743 -0.8124 -2.3567 0
M  V30 24 C -7.5088 0.6015 -0.4831 0
M  V30 25 O 2.3354 0.8667 6.0752 0
M  V30 26 O 2.2257 -1.5814 6.0927 0
M  V30 27 O 0.0038 -0.2792 6.0816 0 CHG=-1
M  V30 28 C 2.8448 -1.0831 1.782 0
M  V30 29 N -8.2751 0.0764 -1.4729 0
M  V30 30 N -8.5522 -1.3394 -3.4276 0
M  V30 31 N -8.0779 1.5216 0.4603 0
M  V30 32 N 3.9203 -1.8347 1.2035 0
M  V30 33 C -9.4375 -0.4105 -4.1457 0
M  V30 34 C -8.7524 -2.7919 -3.5985 0
M  V30 35 C -7.3941 1.9516 1.6558 0
M  V30 36 C 4.9843 -1.2089 0.4797 0
M  V30 37 C -8.6183 0.5382 -5.0188 0
M  V30 38 C -7.4396 -3.5884 -3.5816 0
M  V30 39 C -7.5782 3.2637 2.1217 0
M  V30 40 C -6.5595 1.0738 2.3871 0
M  V30 41 N 6.203 -1.8052 0.4449 0
M  V30 42 N 4.8255 0.0197 -0.0845 0
M  V30 43 O -9.4836 1.3532 -5.7514 0
M  V30 44 O -7.6599 -4.8943 -4.045 0
M  V30 45 C -6.9055 3.7085 3.261 0
M  V30 46 C -5.8737 1.5324 3.5129 0
M  V30 47 C 7.2617 -1.1823 -0.1377 0
M  V30 48 C 5.8658 0.6397 -0.6991 0
M  V30 49 C -6.0543 2.8447 3.9564 0
M  V30 50 N 7.0866 0.0413 -0.6989 0
M  V30 51 N 8.5767 -1.7793 -0.1008 0
M  V30 52 N 5.6709 1.9329 -1.291 0
M  V30 53 C 8.7495 -3.2256 0.0619 0
M  V30 54 C 9.7699 -0.9105 -0.0594 0
M  V30 55 C 6.6094 2.6051 -2.1517 0
M  V30 56 C 9.1758 -3.881 -1.2535 0
M  V30 57 C 9.8455 -0.2076 1.2947 0
M  V30 58 C 6.6174 4.0119 -2.1997 0
M  V30 59 C 7.4591 1.8874 -3.0176 0
M  V30 60 O 8.187 -3.6909 -2.2287 0
M  V30 61 O 11.0489 0.5068 1.3965 0
M  V30 62 C 7.4927 4.6861 -3.0559 0
M  V30 63 C 8.3353 2.5674 -3.8653 0
M  V30 64 C 8.3527 3.9631 -3.8861 0
M  V30 65 H -3.3971 -2.2392 1.0437 0
M  V30 66 H -2.273 2.594 0.8819 0
M  V30 67 H -2.0864 2.2487 3.6767 0
M  V30 68 H -3.4844 1.5455 -0.9792 0
M  V30 69 H 0.0834 1.8894 4.4574 0
M  V30 70 H -3.9511 -1.8705 -1.6191 0
M  V30 71 H 0.3192 1.0163 0.937 0
M  V30 72 H 3.3737 -1.6609 3.771 0
M  V30 73 H 2.095 -0.3125 -0.0944 0
M  V30 74 H -8.9895 1.9773 0.2101 0
M  V30 75 H 4.1253 -2.7734 1.61 0
M  V30 76 H -10.0337 0.1879 -3.422 0
M  V30 77 H -10.1604 -0.9577 -4.7856 0
M  V30 78 H -9.2498 -2.9914 -4.5734 0
M  V30 79 H -9.4293 -3.1587 -2.7938 0
M  V30 80 H -7.967 1.164 -4.3627 0
M  V30 81 H -7.9785 -0.0488 -5.7208 0
M  V30 82 H -7.024 -3.6221 -2.5502 0
M  V30 83 H -6.6987 -3.1 -4.2524 0
M  V30 84 H -8.2246 3.9447 1.5783 0
M  V30 85 H -6.4329 0.039 2.0863 0
M  V30 86 H -8.9274 2.0815 -6.14 0
M  V30 87 H -8.0677 -5.3956 -3.2939 0
M  V30 88 H -7.0418 4.7247 3.6032 0
M  V30 89 H -5.2178 0.8625 4.0491 0
M  V30 90 H -5.5216 3.1963 4.8252 0
M  V30 91 H 4.8001 2.4483 -1.0304 0
M  V30 92 H 7.8128 -3.7011 0.4107 0
M  V30 93 H 9.516 -3.4186 0.8464 0
M  V30 94 H 9.7351 -0.1581 -0.8839 0
M  V30 95 H 10.6981 -1.5176 -0.1981 0
M  V30 96 H 10.1421 -3.4423 -1.6023 0
M  V30 97 H 9.3256 -4.9686 -1.0823 0
M  V30 98 H 8.9717 0.4795 1.4175 0
M  V30 99 H 9.8213 -0.9794 2.0984 0
M  V30 100 H 5.9559 4.5863 -1.5609 0
M  V30 101 H 7.4348 0.8074 -3.0581 0
M  V30 102 H 8.5223 -4.1305 -3.0501 0
M  V30 103 H 10.982 1.0359 2.2331 0
M  V30 104 H 7.506 5.7692 -3.0777 0
M  V30 105 H 8.9902 2.0121 -4.5209 0
M  V30 106 H 9.0228 4.4855 -4.5552 0
M  V30 END ATOM
M  V30 BEGIN BOND
M  V30 1 2 1 2
M  V30 2 2 1 3
M  V30 3 1 1 4
M  V30 4 1 1 5
M  V30 5 2 5 6
M  V30 6 1 5 7
M  V30 7 1 6 8
M  V30 8 1 6 9
M  V30 9 2 7 10
M  V30 10 2 8 11
M  V30 11 2 9 12
M  V30 12 1 10 13
M  V30 13 1 12 14
M  V30 14 1 13 15
M  V30 15 2 14 16
M  V30 16 1 14 17
M  V30 17 2 15 18
M  V30 18 1 15 19
M  V30 19 1 16 20
M  V30 20 1 16 21
M  V30 21 2 17 22
M  V30 22 1 18 23
M  V30 23 2 19 24
M  V30 24 2 20 25
M  V30 25 2 20 26
M  V30 26 1 20 27
M  V30 27 2 21 28
M  V30 28 2 23 29
M  V30 29 1 23 30
M  V30 30 1 24 31
M  V30 31 1 28 32
M  V30 32 1 30 33
M  V30 33 1 30 34
M  V30 34 1 31 35
M  V30 35 1 32 36
M  V30 36 1 33 37
M  V30 37 1 34 38
M  V30 38 2 35 39
M  V30 39 1 35 40
M  V30 40 2 36 41
M  V30 41 1 36 42
M  V30 42 1 37 43
M  V30 43 1 38 44
M  V30 44 1 39 45
M  V30 45 2 40 46
M  V30 46 1 41 47
M  V30 47 2 42 48
M  V30 48 2 45 49
M  V30 49 2 47 50
M  V30 50 1 47 51
M  V30 51 1 48 52
M  V30 52 1 51 53
M  V30 53 1 51 54
M  V30 54 1 52 55
M  V30 55 1 53 56
M  V30 56 1 54 57
M  V30 57 2 55 58
M  V30 58 1 55 59
M  V30 59 1 56 60
M  V30 60 1 57 61
M  V30 61 1 58 62
M  V30 62 2 59 63
M  V30 63 2 62 64
M  V30 64 1 10 11
M  V30 65 1 22 28
M  V30 66 1 24 29
M  V30 67 1 46 49
M  V30 68 1 48 50
M  V30 69 1 63 64
M  V30 70 1 7 65
M  V30 71 1 8 66
M  V30 72 1 9 67
M  V30 73 1 11 68
M  V30 74 1 12 69
M  V30 75 1 13 70
M  V30 76 1 17 71
M  V30 77 1 21 72
M  V30 78 1 22 73
M  V30 79 1 31 74
M  V30 80 1 32 75
M  V30 81 1 33 76
M  V30 82 1 33 77
M  V30 83 1 34 78
M  V30 84 1 34 79
M  V30 85 1 37 80
M  V30 86 1 37 81
M  V30 87 1 38 82
M  V30 88 1 38 83
M  V30 89 1 39 84
M  V30 90 1 40 85
M  V30 91 1 43 86
M  V30 92 1 44 87
M  V30 93 1 45 88
M  V30 94 1 46 89
M  V30 95 1 49 90
M  V30 96 1 52 91
M  V30 97 1 53 92
M  V30 98 1 53 93
M  V30 99 1 54 94
M  V30 100 1 54 95
M  V30 101 1 56 96
M  V30 102 1 56 97
M  V30 103 1 57 98
M  V30 104 1 57 99
M  V30 105 1 58 100
M  V30 106 1 59 101
M  V30 107 1 60 102
M  V30 108 1 61 103
M  V30 109 1 62 104
M  V30 110 1 63 105
M  V30 111 1 64 106
M  V30 END BOND
M  V30 END CTAB
M  END
>  <Structure No>
1674

>  <LogS>
-1.059279349

>  <MMFF94 Energy>
-251.25

$$$$
Compound 1675
Actelion Java MolfileCreator 2.0

  0  0  0  0  0  0              0 V3000
M  V30 BEGIN CTAB
M  V30 COUNTS 16 15 0 0 0
M  V30 BEGIN ATOM
M  V30 1 N 2.7363 1.4847 -1.7193 0
M  V30 2 C 2.4367 0.6651 -0.9594 0
M  V30 3 C 2.0562 -0.3754 0.0048 0
M  V30 4 C 0.7203 -0.0508 0.6843 0
M  V30 5 C -0.4658 -0.1557 -0.2861 0
M  V30 6 C -1.7869 0.1302 0.4321 0
M  V30 7 C -2.9117 0.0285 -0.5042 0
M  V30 8 N -3.7991 -0.0515 -1.2427 0
M  V30 9 H 2.8501 -0.4412 0.7783 0
M  V30 10 H 1.9976 -1.3554 -0.5145 0
M  V30 11 H 0.7624 0.9702 1.1247 0
M  V30 12 H 0.5702 -0.7727 1.5168 0
M  V30 13 H -0.3346 0.5753 -1.1143 0
M  V30 14 H -0.4965 -1.18 -0.7198 0
M  V30 15 H -1.9405 -0.6018 1.2534 0
M  V30 16 H -1.7727 1.1546 0.8616 0
M  V30 END ATOM
M  V30 BEGIN BOND
M  V30 1 3 1 2
M  V30 2 1 2 3
M  V30 3 1 3 4
M  V30 4 1 4 5
M  V30 5 1 5 6
M  V30 6 1 6 7
M  V30 7 3 7 8
M  V30 8 1 3 9
M  V30 9 1 3 10
M  V30 10 1 4 11
M  V30 11 1 4 12
M  V30 12 1 5 13
M  V30 13 1 5 14
M  V30 14 1 6 15
M  V30 15 1 6 16
M  V30 END BOND
M  V30 END CTAB
M  END
>  <Structure No>
1675

>  <LogS>
-0.130912442

>  <MMFF94 Energy>
2.9219

$$$$
Compound 1676
Actelion Java MolfileCreator 2.0

  0  0  0  0  0  0              0 V3000
M  V30 BEGIN CTAB
M  V30 COUNTS 24 24 0 0 0
M  V30 BEGIN ATOM
M  V30 1 O 1.0251 0.0 1.6564 0
M  V30 2 C 1.0477 -0.6201 0.559 0
M  V30 3 N -0.17 -0.9019 -0.1489 0
M  V30 4 C 2.3623 -1.0626 -0.0061 0
M  V30 5 C -1.4443 -0.3202 0.1754 0
M  V30 6 C 2.8556 -0.0569 -1.0089 0
M  V30 7 C -2.6146 -1.0674 -0.0321 0
M  V30 8 C -1.551 1.0049 0.6381 0
M  V30 9 O 2.3091 0.0234 -2.0986 0
M  V30 10 C 4.0043 0.8562 -0.6982 0
M  V30 11 C -3.8671 -0.5154 0.2536 0
M  V30 12 C -2.8058 1.5536 0.9217 0
M  V30 13 C -3.9625 0.7929 0.7342 0
M  V30 14 H -0.1406 -1.6314 -0.8968 0
M  V30 15 H 2.2515 -2.053 -0.4974 0
M  V30 16 H 3.0965 -1.187 0.8188 0
M  V30 17 H -2.5539 -2.0817 -0.4062 0
M  V30 18 H -0.6724 1.6246 0.755 0
M  V30 19 H 4.8292 0.673 -1.4179 0
M  V30 20 H 4.3853 0.6914 0.3312 0
M  V30 21 H 3.6727 1.9119 -0.7867 0
M  V30 22 H -4.764 -1.1013 0.1001 0
M  V30 23 H -2.8819 2.5728 1.2781 0
M  V30 24 H -4.9326 1.22 0.9527 0
M  V30 END ATOM
M  V30 BEGIN BOND
M  V30 1 2 1 2
M  V30 2 1 2 3
M  V30 3 1 2 4
M  V30 4 1 3 5
M  V30 5 1 4 6
M  V30 6 2 5 7
M  V30 7 1 5 8
M  V30 8 2 6 9
M  V30 9 1 6 10
M  V30 10 1 7 11
M  V30 11 2 8 12
M  V30 12 2 11 13
M  V30 13 1 12 13
M  V30 14 1 3 14
M  V30 15 1 4 15
M  V30 16 1 4 16
M  V30 17 1 7 17
M  V30 18 1 8 18
M  V30 19 1 10 19
M  V30 20 1 10 20
M  V30 21 1 10 21
M  V30 22 1 11 22
M  V30 23 1 12 23
M  V30 24 1 13 24
M  V30 END BOND
M  V30 END CTAB
M  END
>  <Structure No>
1676

>  <LogS>
-1.299081064

>  <MMFF94 Energy>
-7.9695

$$$$
Compound 1677
Actelion Java MolfileCreator 2.0

  0  0  0  0  0  0              0 V3000
M  V30 BEGIN CTAB
M  V30 COUNTS 56 57 0 0 0
M  V30 BEGIN ATOM
M  V30 1 S 1.1242 -0.4013 -0.0802 0
M  V30 2 O 2.1945 -0.6352 0.9473 0
M  V30 3 O 0.9013 -1.6723 -0.8516 0
M  V30 4 O -0.3013 0.0576 0.7105 0
M  V30 5 O 1.6322 0.8132 -1.1256 0 CHG=-1
M  V30 6 C -1.2607 0.374 -0.2654 0
M  V30 7 N -1.7689 1.2929 0.8776 0 CHG=1
M  V30 8 C -3.1877 1.3344 0.764 0
M  V30 9 C -1.3633 0.1258 0.4493 0
M  V30 10 C -0.9091 2.3565 1.4063 0
M  V30 11 C -3.6647 0.1603 0.2378 0
M  V30 12 C -4.0562 2.3755 1.1175 0
M  V30 13 C 0.0621 -0.2791 0.4427 0
M  V30 14 C -2.5122 -0.7597 -0.0291 0
M  V30 15 C -5.032 -0.0426 0.0287 0
M  V30 16 C -5.4344 2.1924 0.915 0
M  V30 17 N 0.4188 -1.4376 -0.0214 0
M  V30 18 C -2.6374 -2.0393 0.8141 0
M  V30 19 C -2.4073 -1.0693 -1.5312 0
M  V30 20 C -5.9207 0.9881 0.372 0
M  V30 21 N 1.754 -1.8864 -0.0807 0
M  V30 22 C 2.8708 -0.9745 -0.129 0
M  V30 23 C 1.989 -3.3276 -0.1003 0
M  V30 24 C 2.8477 0.1281 -0.9982 0
M  V30 25 C 4.0021 -1.1893 0.6751 0
M  V30 26 C 3.9315 1.0088 -1.0532 0
M  V30 27 C 5.0861 -0.3081 0.6202 0
M  V30 28 C 5.0634 0.7883 -0.2544 0
M  V30 29 C 6.2087 1.7564 -0.2845 0
M  V30 30 H -0.9403 1.2475 -0.8737 0
M  V30 31 H -2.2057 0.6514 0.2452 0
M  V30 32 H -1.4769 -0.5006 -0.9173 0
M  V30 33 H -0.118 2.6058 0.6675 0
M  V30 34 H -0.4398 2.0215 2.3555 0
M  V30 35 H -1.481 3.2829 1.6062 0
M  V30 36 H -3.6976 3.3032 1.538 0
M  V30 37 H 0.8068 0.3905 0.8505 0
M  V30 38 H -5.3996 -0.9717 -0.3865 0
M  V30 39 H -6.1266 2.9816 1.179 0
M  V30 40 H -3.5624 -2.5915 0.5432 0
M  V30 41 H -1.7741 -2.7143 0.6412 0
M  V30 42 H -2.6801 -1.791 1.8969 0
M  V30 43 H -1.5394 -1.7281 -1.7405 0
M  V30 44 H -2.2875 -0.1315 -2.1161 0
M  V30 45 H -3.324 -1.5891 -1.8831 0
M  V30 46 H -6.984 0.8556 0.2199 0
M  V30 47 H 2.1433 -3.6937 0.9361 0
M  V30 48 H 2.8834 -3.5669 -0.7148 0
M  V30 49 H 1.114 -3.8517 -0.5403 0
M  V30 50 H 1.9903 0.3024 -1.636 0
M  V30 51 H 4.0377 -2.0293 1.3566 0
M  V30 52 H 3.8897 1.8603 -1.7214 0
M  V30 53 H 5.9422 -0.4812 1.2603 0
M  V30 54 H 6.0223 2.5716 0.4454 0
M  V30 55 H 6.322 2.1962 -1.2983 0
M  V30 56 H 7.1607 1.247 -0.0232 0
M  V30 END ATOM
M  V30 BEGIN BOND
M  V30 1 2 1 2
M  V30 2 2 1 3
M  V30 3 1 1 4
M  V30 4 1 1 5
M  V30 5 1 4 6
M  V30 6 1 7 8
M  V30 7 2 7 9
M  V30 8 1 7 10
M  V30 9 2 8 11
M  V30 10 1 8 12
M  V30 11 1 9 13
M  V30 12 1 9 14
M  V30 13 1 11 15
M  V30 14 2 12 16
M  V30 15 2 13 17
M  V30 16 1 14 18
M  V30 17 1 14 19
M  V30 18 2 15 20
M  V30 19 1 17 21
M  V30 20 1 21 22
M  V30 21 1 21 23
M  V30 22 2 22 24
M  V30 23 1 22 25
M  V30 24 1 24 26
M  V30 25 2 25 27
M  V30 26 2 26 28
M  V30 27 1 28 29
M  V30 28 1 11 14
M  V30 29 1 16 20
M  V30 30 1 27 28
M  V30 31 1 6 30
M  V30 32 1 6 31
M  V30 33 1 6 32
M  V30 34 1 10 33
M  V30 35 1 10 34
M  V30 36 1 10 35
M  V30 37 1 12 36
M  V30 38 1 13 37
M  V30 39 1 15 38
M  V30 40 1 16 39
M  V30 41 1 18 40
M  V30 42 1 18 41
M  V30 43 1 18 42
M  V30 44 1 19 43
M  V30 45 1 19 44
M  V30 46 1 19 45
M  V30 47 1 20 46
M  V30 48 1 23 47
M  V30 49 1 23 48
M  V30 50 1 23 49
M  V30 51 1 24 50
M  V30 52 1 25 51
M  V30 53 1 26 52
M  V30 54 1 27 53
M  V30 55 1 29 54
M  V30 56 1 29 55
M  V30 57 1 29 56
M  V30 END BOND
M  V30 END CTAB
M  END
>  <Structure No>
1677

>  <LogS>
-1.676206053

>  <MMFF94 Energy>
92.32

$$$$
Compound 1678
Actelion Java MolfileCreator 2.0

  0  0  0  0  0  0              0 V3000
M  V30 BEGIN CTAB
M  V30 COUNTS 57 58 0 0 0
M  V30 BEGIN ATOM
M  V30 1 S -1.1249 0.2409 -0.4016 0
M  V30 2 O -1.8213 -0.5083 0.7001 0
M  V30 3 O -2.0154 1.3553 -0.8727 0
M  V30 4 O 0.3241 0.9044 0.1707 0
M  V30 5 O -0.8268 -0.7963 -1.6905 0 CHG=-1
M  V30 6 C 1.1874 -0.1523 0.5045 0
M  V30 7 O 6.2742 -1.0043 1.4464 0
M  V30 8 C 5.1518 -0.6297 0.6927 0
M  V30 9 C 7.5409 -0.3576 1.3774 0
M  V30 10 C 5.1769 0.4432 -0.2174 0
M  V30 11 C 3.9668 -1.3535 0.8599 0
M  V30 12 C 4.0317 0.7772 -0.9466 0
M  V30 13 C 2.8211 -1.0205 0.1322 0
M  V30 14 C 2.842 0.043 -0.7864 0
M  V30 15 N 1.6495 0.3881 -1.5207 0
M  V30 16 N 0.4012 0.1667 -0.9007 0
M  V30 17 C 1.7413 0.9636 -2.8693 0
M  V30 18 C -0.7213 0.6918 -1.2875 0
M  V30 19 C -1.981 0.3841 -0.5688 0
M  V30 20 N -3.1308 0.9212 -0.8851 0 CHG=1
M  V30 21 C -2.0869 -0.5903 0.6031 0
M  V30 22 C -4.1195 0.3942 -0.006 0
M  V30 23 C -3.3554 1.8851 -1.9669 0
M  V30 24 C -3.5564 -0.4894 0.8797 0
M  V30 25 C -1.2758 -0.1144 1.8198 0
M  V30 26 C -1.7143 -2.0233 0.1894 0
M  V30 27 C -5.4923 0.674 0.0236 0
M  V30 28 C -4.3261 -1.1432 1.8465 0
M  V30 29 C -6.284 0.0283 0.9878 0
M  V30 30 C -5.7032 -0.8768 1.8963 0
M  V30 31 H 0.7482 -0.7976 1.2965 0
M  V30 32 H 1.4485 -0.7542 -0.3926 0
M  V30 33 H 2.1292 0.2747 0.9058 0
M  V30 34 H 7.4426 0.7075 1.6757 0
M  V30 35 H 8.2422 -0.8586 2.0758 0
M  V30 36 H 7.9512 -0.4304 0.3481 0
M  V30 37 H 6.0739 1.0291 -0.3644 0
M  V30 38 H 3.9335 -2.1801 1.5585 0
M  V30 39 H 4.0729 1.6227 -1.6209 0
M  V30 40 H 1.9203 -1.6025 0.2788 0
M  V30 41 H 0.9348 0.5585 -3.5156 0
M  V30 42 H 2.7033 0.6907 -3.3526 0
M  V30 43 H 1.6569 2.069 -2.8116 0
M  V30 44 H -0.7427 1.3784 -2.1216 0
M  V30 45 H -4.4081 2.2237 -2.0016 0
M  V30 46 H -3.1093 1.4172 -2.9434 0
M  V30 47 H -2.7171 2.7806 -1.8122 0
M  V30 48 H -1.5363 0.9351 2.0771 0
M  V30 49 H -0.1862 -0.1678 1.617 0
M  V30 50 H -1.4896 -0.7562 2.7012 0
M  V30 51 H -1.9292 -2.7325 1.0172 0
M  V30 52 H -0.6344 -2.0979 -0.0528 0
M  V30 53 H -2.298 -2.3366 -0.7032 0
M  V30 54 H -5.9519 1.3643 -0.6681 0
M  V30 55 H -3.8739 -1.8391 2.5406 0
M  V30 56 H -7.347 0.2272 1.0321 0
M  V30 57 H -6.321 -1.3701 2.6354 0
M  V30 END ATOM
M  V30 BEGIN BOND
M  V30 1 2 1 2
M  V30 2 2 1 3
M  V30 3 1 1 4
M  V30 4 1 1 5
M  V30 5 1 4 6
M  V30 6 1 7 8
M  V30 7 1 7 9
M  V30 8 2 8 10
M  V30 9 1 8 11
M  V30 10 1 10 12
M  V30 11 2 11 13
M  V30 12 2 12 14
M  V30 13 1 14 15
M  V30 14 1 15 16
M  V30 15 1 15 17
M  V30 16 2 16 18
M  V30 17 1 18 19
M  V30 18 2 19 20
M  V30 19 1 19 21
M  V30 20 1 20 22
M  V30 21 1 20 23
M  V30 22 1 21 24
M  V30 23 1 21 25
M  V30 24 1 21 26
M  V30 25 1 22 27
M  V30 26 1 24 28
M  V30 27 2 27 29
M  V30 28 2 28 30
M  V30 29 1 13 14
M  V30 30 2 22 24
M  V30 31 1 29 30
M  V30 32 1 6 31
M  V30 33 1 6 32
M  V30 34 1 6 33
M  V30 35 1 9 34
M  V30 36 1 9 35
M  V30 37 1 9 36
M  V30 38 1 10 37
M  V30 39 1 11 38
M  V30 40 1 12 39
M  V30 41 1 13 40
M  V30 42 1 17 41
M  V30 43 1 17 42
M  V30 44 1 17 43
M  V30 45 1 18 44
M  V30 46 1 23 45
M  V30 47 1 23 46
M  V30 48 1 23 47
M  V30 49 1 25 48
M  V30 50 1 25 49
M  V30 51 1 25 50
M  V30 52 1 26 51
M  V30 53 1 26 52
M  V30 54 1 26 53
M  V30 55 1 27 54
M  V30 56 1 28 55
M  V30 57 1 29 56
M  V30 58 1 30 57
M  V30 END BOND
M  V30 END CTAB
M  END
>  <Structure No>
1678

>  <LogS>
-1.692536484

>  <MMFF94 Energy>
92.374

$$$$
Compound 1679
Actelion Java MolfileCreator 2.0

  0  0  0  0  0  0              0 V3000
M  V30 BEGIN CTAB
M  V30 COUNTS 31 30 0 0 0
M  V30 BEGIN ATOM
M  V30 1 O -3.4904 0.0 0.3098 0
M  V30 2 C -2.3463 -0.8115 0.2855 0
M  V30 3 C -1.0638 0.029 0.014 0
M  V30 4 C -0.8947 1.0641 1.1608 0
M  V30 5 C 0.1537 -0.9565 -0.0102 0
M  V30 6 C -1.2204 0.8195 -1.3305 0
M  V30 7 O -0.7656 0.4248 2.4029 0
M  V30 8 C 1.5448 -0.3204 -0.2564 0
M  V30 9 C -1.2175 -0.0342 -2.6033 0
M  V30 10 C 2.3863 -0.2397 1.0261 0
M  V30 11 C 3.7493 0.3902 0.7537 0
M  V30 12 H -4.2568 -0.6062 0.4834 0
M  V30 13 H -2.255 -1.3398 1.2616 0
M  V30 14 H -2.4677 -1.5974 -0.4917 0
M  V30 15 H -7.0E-4 1.7004 0.9766 0
M  V30 16 H -1.7758 1.7446 1.1904 0
M  V30 17 H -0.0196 -1.723 -0.7961 0
M  V30 18 H 0.1737 -1.5401 0.9371 0
M  V30 19 H -0.4195 1.5813 -1.4322 0
M  V30 20 H -2.1687 1.3997 -1.3126 0
M  V30 21 H -0.647 1.1459 3.0744 0
M  V30 22 H 2.0934 -0.9518 -0.9899 0
M  V30 23 H 1.4642 0.6882 -0.7057 0
M  V30 24 H -0.2275 -0.5099 -2.7588 0
M  V30 25 H -2.0083 -0.8098 -2.5728 0
M  V30 26 H -1.416 0.6189 -3.4791 0
M  V30 27 H 2.541 -1.2617 1.436 0
M  V30 28 H 1.8617 0.3674 1.7925 0
M  V30 29 H 3.6257 1.4257 0.3708 0
M  V30 30 H 4.3114 -0.2123 0.0088 0
M  V30 31 H 4.3363 0.428 1.6956 0
M  V30 END ATOM
M  V30 BEGIN BOND
M  V30 1 1 1 2
M  V30 2 1 2 3
M  V30 3 1 3 4
M  V30 4 1 3 5
M  V30 5 1 3 6
M  V30 6 1 4 7
M  V30 7 1 5 8
M  V30 8 1 6 9
M  V30 9 1 8 10
M  V30 10 1 10 11
M  V30 11 1 1 12
M  V30 12 1 2 13
M  V30 13 1 2 14
M  V30 14 1 4 15
M  V30 15 1 4 16
M  V30 16 1 5 17
M  V30 17 1 5 18
M  V30 18 1 6 19
M  V30 19 1 6 20
M  V30 20 1 7 21
M  V30 21 1 8 22
M  V30 22 1 8 23
M  V30 23 1 9 24
M  V30 24 1 9 25
M  V30 25 1 9 26
M  V30 26 1 10 27
M  V30 27 1 10 28
M  V30 28 1 11 29
M  V30 29 1 11 30
M  V30 30 1 11 31
M  V30 END BOND
M  V30 END CTAB
M  END
>  <Structure No>
1679

>  <LogS>
-1.260334336

>  <MMFF94 Energy>
19.513

$$$$
Compound 1680
Actelion Java MolfileCreator 2.0

  0  0  0  0  0  0              0 V3000
M  V30 BEGIN CTAB
M  V30 COUNTS 17 16 0 0 0
M  V30 BEGIN ATOM
M  V30 1 O 3.2322 1.1534 0.4612 0
M  V30 2 C 2.1711 1.2441 -0.2113 0
M  V30 3 C 1.0621 0.2842 -0.0238 0
M  V30 4 C -0.0192 0.3885 -0.8204 0
M  V30 5 C 1.1969 -0.8264 0.9902 0
M  V30 6 C -1.2164 -0.5228 -0.7582 0
M  V30 7 C -2.2604 0.0156 0.215 0
M  V30 8 H 2.085 2.0424 -0.9382 0
M  V30 9 H -0.0603 1.1853 -1.5551 0
M  V30 10 H 0.2773 -0.9144 1.6038 0
M  V30 11 H 1.3834 -1.7875 0.467 0
M  V30 12 H 2.0371 -0.6415 1.6908 0
M  V30 13 H -0.9275 -1.5582 -0.4796 0
M  V30 14 H -1.6732 -0.5736 -1.7697 0
M  V30 15 H -2.6014 1.0228 -0.107 0
M  V30 16 H -3.1366 -0.666 0.2338 0
M  V30 17 H -1.8444 0.0856 1.2415 0
M  V30 END ATOM
M  V30 BEGIN BOND
M  V30 1 2 1 2
M  V30 2 1 2 3
M  V30 3 2 3 4
M  V30 4 1 3 5
M  V30 5 1 4 6
M  V30 6 1 6 7
M  V30 7 1 2 8
M  V30 8 1 4 9
M  V30 9 1 5 10
M  V30 10 1 5 11
M  V30 11 1 5 12
M  V30 12 1 6 13
M  V30 13 1 6 14
M  V30 14 1 7 15
M  V30 15 1 7 16
M  V30 16 1 7 17
M  V30 END BOND
M  V30 END CTAB
M  END
>  <Structure No>
1680

>  <LogS>
-1.057369728

>  <MMFF94 Energy>
8.9292

$$$$
Compound 1681
Actelion Java MolfileCreator 2.0

  0  0  0  0  0  0              0 V3000
M  V30 BEGIN CTAB
M  V30 COUNTS 18 20 0 0 0
M  V30 BEGIN ATOM
M  V30 1 O 2.2276 -2.8883 0.4947 0
M  V30 2 C 2.1366 -1.6494 0.2893 0
M  V30 3 O 3.1745 -0.8449 0.1552 0
M  V30 4 C 0.9615 -0.9379 0.1724 0
M  V30 5 C 2.7166 0.3766 -0.0469 0
M  V30 6 C 1.3379 0.3771 -0.0458 0
M  V30 7 C -0.383 -1.3341 0.2392 0
M  V30 8 O 3.4511 1.3853 -0.2147 0
M  V30 9 C 0.4022 1.409 -0.216 0
M  V30 10 C -1.3187 -0.3022 0.069 0
M  V30 11 C -0.9423 1.0128 -0.1492 0
M  V30 12 C -2.6975 -0.3016 0.0701 0
M  V30 13 C -2.1175 1.7244 -0.2661 0
M  V30 14 O -3.432 -1.3102 0.238 0
M  V30 15 O -3.1554 0.9199 -0.1319 0
M  V30 16 O -2.2084 2.9632 -0.4715 0
M  V30 17 H -0.6773 -2.3615 0.4098 0
M  V30 18 H 0.6963 2.4365 -0.3867 0
M  V30 END ATOM
M  V30 BEGIN BOND
M  V30 1 2 1 2
M  V30 2 1 2 3
M  V30 3 1 2 4
M  V30 4 1 3 5
M  V30 5 2 4 6
M  V30 6 1 4 7
M  V30 7 2 5 8
M  V30 8 1 6 9
M  V30 9 2 7 10
M  V30 10 2 9 11
M  V30 11 1 10 12
M  V30 12 1 11 13
M  V30 13 2 12 14
M  V30 14 1 12 15
M  V30 15 2 13 16
M  V30 16 1 5 6
M  V30 17 1 10 11
M  V30 18 1 13 15
M  V30 19 1 7 17
M  V30 20 1 9 18
M  V30 END BOND
M  V30 END CTAB
M  END
>  <Structure No>
1681

>  <LogS>
-1.406221724

>  <MMFF94 Energy>
-1.9641

$$$$
Compound 1682
Actelion Java MolfileCreator 2.0

  0  0  0  0  0  0              0 V3000
M  V30 BEGIN CTAB
M  V30 COUNTS 28 27 0 0 0
M  V30 BEGIN ATOM
M  V30 1 O 0.3122 -0.3902 -1.8744 0
M  V30 2 C 0.3871 -0.4109 -0.6154 0
M  V30 3 O -0.5571 -1.1067 0.1477 0
M  V30 4 C 1.5278 0.2693 0.0715 0
M  V30 5 C -1.6997 -1.7522 -0.4131 0
M  V30 6 C 2.68 -0.7127 0.2954 0
M  V30 7 C -2.7658 -0.7323 -0.8293 0
M  V30 8 C 3.8333 -0.0327 0.9852 0
M  V30 9 C -3.2696 0.0819 0.3691 0
M  V30 10 O 3.7077 0.3375 2.1429 0
M  V30 11 C 5.1413 0.1909 0.2854 0
M  V30 12 C -4.3533 1.0697 -0.0531 0
M  V30 13 H 1.1735 0.6678 1.0472 0
M  V30 14 H 1.8769 1.1254 -0.5469 0
M  V30 15 H -2.1276 -2.4418 0.3454 0
M  V30 16 H -1.3982 -2.3649 -1.2904 0
M  V30 17 H 3.0044 -1.1273 -0.6837 0
M  V30 18 H 2.3356 -1.5622 0.9254 0
M  V30 19 H -2.3471 -0.0486 -1.5988 0
M  V30 20 H -3.6182 -1.281 -1.2863 0
M  V30 21 H -2.427 0.6489 0.8215 0
M  V30 22 H -3.6873 -0.6026 1.1393 0
M  V30 23 H 5.1116 -0.1806 -0.76 0
M  V30 24 H 5.9492 -0.3413 0.8298 0
M  V30 25 H 5.3705 1.277 0.2673 0
M  V30 26 H -5.2222 0.5283 -0.4844 0
M  V30 27 H -4.6974 1.6451 0.8322 0
M  V30 28 H -3.9537 1.7819 -0.8061 0
M  V30 END ATOM
M  V30 BEGIN BOND
M  V30 1 2 1 2
M  V30 2 1 2 3
M  V30 3 1 2 4
M  V30 4 1 3 5
M  V30 5 1 4 6
M  V30 6 1 5 7
M  V30 7 1 6 8
M  V30 8 1 7 9
M  V30 9 2 8 10
M  V30 10 1 8 11
M  V30 11 1 9 12
M  V30 12 1 4 13
M  V30 13 1 4 14
M  V30 14 1 5 15
M  V30 15 1 5 16
M  V30 16 1 6 17
M  V30 17 1 6 18
M  V30 18 1 7 19
M  V30 19 1 7 20
M  V30 20 1 9 21
M  V30 21 1 9 22
M  V30 22 1 11 23
M  V30 23 1 11 24
M  V30 24 1 11 25
M  V30 25 1 12 26
M  V30 26 1 12 27
M  V30 27 1 12 28
M  V30 END BOND
M  V30 END CTAB
M  END
>  <Structure No>
1682

>  <LogS>
-1.306674746

>  <MMFF94 Energy>
-21.068

$$$$
Compound 1683
Actelion Java MolfileCreator 2.0

  0  0  0  0  0  0              0 V3000
M  V30 BEGIN CTAB
M  V30 COUNTS 24 25 0 0 0
M  V30 BEGIN ATOM
M  V30 1 O 1.9466 -3.0023 0.1621 0
M  V30 2 C 1.9922 -1.7522 0.0184 0
M  V30 3 O 2.9725 -1.122 -0.7188 0
M  V30 4 C 1.0261 -0.7977 0.6473 0 CFG=1
M  V30 5 C 2.7439 0.2364 -0.6499 0
M  V30 6 C 1.5345 0.5896 0.1586 0 CFG=1
M  V30 7 C -0.424 -1.1001 0.2287 0
M  V30 8 O 3.4952 1.0815 -1.2036 0
M  V30 9 C 0.502 1.3494 -0.6927 0
M  V30 10 C -1.3466 0.077 0.6026 0 CFG=1
M  V30 11 C -0.8541 1.4364 0.024 0
M  V30 12 C -2.7884 -0.2192 0.1728 0
M  V30 13 H 1.1175 -0.863 1.7542 0
M  V30 14 H 1.8381 1.2128 1.0286 0
M  V30 15 H -0.7655 -2.0234 0.7464 0
M  V30 16 H -0.4783 -1.2867 -0.8675 0
M  V30 17 H 0.3614 0.8408 -1.6726 0
M  V30 18 H 0.8738 2.3766 -0.8996 0
M  V30 19 H -1.3471 0.1575 1.7134 0
M  V30 20 H -1.5914 1.8598 -0.6932 0
M  V30 21 H -0.7671 2.1698 0.856 0
M  V30 22 H -2.8525 -0.3236 -0.9315 0
M  V30 23 H -3.4595 0.6047 0.4964 0
M  V30 24 H -3.1444 -1.1603 0.6438 0
M  V30 END ATOM
M  V30 BEGIN BOND
M  V30 1 2 1 2
M  V30 2 1 2 3
M  V30 3 1 2 4
M  V30 4 1 3 5
M  V30 5 1 4 6
M  V30 6 1 4 7
M  V30 7 2 5 8
M  V30 8 1 6 9
M  V30 9 1 7 10
M  V30 10 1 9 11
M  V30 11 1 10 12
M  V30 12 1 5 6
M  V30 13 1 10 11
M  V30 14 1 4 13
M  V30 15 1 6 14
M  V30 16 1 7 15
M  V30 17 1 7 16
M  V30 18 1 9 17
M  V30 19 1 9 18
M  V30 20 1 10 19
M  V30 21 1 11 20
M  V30 22 1 11 21
M  V30 23 1 12 22
M  V30 24 1 12 23
M  V30 25 1 12 24
M  V30 END BOND
M  V30 BEGIN COLLECTION
M  V30 MDLV30/STEABS ATOMS=(3 4 6 10)
M  V30 END COLLECTION
M  V30 END CTAB
M  END
>  <Structure No>
1683

>  <LogS>
-1.301526049

>  <MMFF94 Energy>
-23.516

$$$$
Compound 1684
Actelion Java MolfileCreator 2.0

  0  0  0  0  0  0              0 V3000
M  V30 BEGIN CTAB
M  V30 COUNTS 25 24 0 0 0
M  V30 BEGIN ATOM
M  V30 1 O -1.4093 -2.977 -0.3913 0
M  V30 2 C -1.2592 -1.7773 -0.7433 0
M  V30 3 O -0.9954 -1.487 -2.0773 0 CHG=-1
M  V30 4 C -1.3147 -0.679 0.2896 0 CFG=1
M  V30 5 C 0.0793 -0.4254 0.9079 0
M  V30 6 C -1.9559 0.6143 -0.2638 0
M  V30 7 C 1.1281 0.1018 -0.0874 0
M  V30 8 C -3.444 0.4359 -0.5668 0
M  V30 9 C 2.4861 0.2892 0.5991 0
M  V30 10 C 3.5317 0.8156 -0.3797 0
M  V30 11 H -1.9613 -1.036 1.1234 0
M  V30 12 H -0.0271 0.3037 1.7414 0
M  V30 13 H 0.4473 -1.3761 1.3537 0
M  V30 14 H -1.4397 0.9446 -1.1905 0
M  V30 15 H -1.8542 1.4273 0.4879 0
M  V30 16 H 1.246 -0.6171 -0.9259 0
M  V30 17 H 0.7979 1.0795 -0.4985 0
M  V30 18 H -3.5939 -0.3354 -1.3512 0
M  V30 19 H -3.9928 0.1372 0.3514 0
M  V30 20 H -3.8653 1.3958 -0.9333 0
M  V30 21 H 2.3852 1.0108 1.4392 0
M  V30 22 H 2.8362 -0.6826 1.01 0
M  V30 23 H 4.5023 0.9406 0.1447 0
M  V30 24 H 3.2184 1.8008 -0.7864 0
M  V30 25 H 3.6705 0.0999 -1.2178 0
M  V30 END ATOM
M  V30 BEGIN BOND
M  V30 1 2 1 2
M  V30 2 1 2 3
M  V30 3 1 2 4
M  V30 4 1 4 5
M  V30 5 1 4 6
M  V30 6 1 5 7
M  V30 7 1 6 8
M  V30 8 1 7 9
M  V30 9 1 9 10
M  V30 10 1 4 11
M  V30 11 1 5 12
M  V30 12 1 5 13
M  V30 13 1 6 14
M  V30 14 1 6 15
M  V30 15 1 7 16
M  V30 16 1 7 17
M  V30 17 1 8 18
M  V30 18 1 8 19
M  V30 19 1 8 20
M  V30 20 1 9 21
M  V30 21 1 9 22
M  V30 22 1 10 23
M  V30 23 1 10 24
M  V30 24 1 10 25
M  V30 END BOND
M  V30 BEGIN COLLECTION
M  V30 MDLV30/STEABS ATOMS=(1 4)
M  V30 END COLLECTION
M  V30 END CTAB
M  END
>  <Structure No>
1684

>  <LogS>
-1.591715559

>  <MMFF94 Energy>
10.395

$$$$
Compound 1685
Actelion Java MolfileCreator 2.0

  0  0  0  0  0  0              0 V3000
M  V30 BEGIN CTAB
M  V30 COUNTS 20 20 0 0 0
M  V30 BEGIN ATOM
M  V30 1 N 0.1555 1.9451 0.2332 0
M  V30 2 C 0.0513 0.5203 0.0551 0
M  V30 3 C -1.2213 -0.097 -0.0593 0
M  V30 4 C 1.2201 -0.2819 -0.0074 0
M  V30 5 C -1.3053 -1.4878 -0.2324 0
M  V30 6 C -2.4935 0.7065 4.0E-4 0
M  V30 7 C 1.101 -1.67 -0.1814 0
M  V30 8 C 2.595 0.3212 0.1086 0
M  V30 9 C -0.1523 -2.2657 -0.2927 0
M  V30 10 H -0.6852 2.56 0.283 0
M  V30 11 H 1.0762 2.4267 0.3204 0
M  V30 12 H -2.2682 -1.9757 -0.3218 0
M  V30 13 H -2.5079 1.4504 -0.8236 0
M  V30 14 H -2.5629 1.2294 0.9774 0
M  V30 15 H -3.3931 0.0635 -0.1059 0
M  V30 16 H 1.9823 -2.2974 -0.2313 0
M  V30 17 H 2.701 0.8308 1.0893 0
M  V30 18 H 2.756 1.0518 -0.7116 0
M  V30 19 H 3.3911 -0.4501 0.0383 0
M  V30 20 H -0.2307 -3.337 -0.4265 0
M  V30 END ATOM
M  V30 BEGIN BOND
M  V30 1 1 1 2
M  V30 2 2 2 3
M  V30 3 1 2 4
M  V30 4 1 3 5
M  V30 5 1 3 6
M  V30 6 2 4 7
M  V30 7 1 4 8
M  V30 8 2 5 9
M  V30 9 1 7 9
M  V30 10 1 1 10
M  V30 11 1 1 11
M  V30 12 1 5 12
M  V30 13 1 6 13
M  V30 14 1 6 14
M  V30 15 1 6 15
M  V30 16 1 7 16
M  V30 17 1 8 17
M  V30 18 1 8 18
M  V30 19 1 8 19
M  V30 20 1 9 20
M  V30 END BOND
M  V30 END CTAB
M  END
>  <Structure No>
1685

>  <LogS>
-1.167514488

>  <MMFF94 Energy>
17.717

$$$$
Compound 1686
Actelion Java MolfileCreator 2.0

  0  0  0  0  0  0              0 V3000
M  V30 BEGIN CTAB
M  V30 COUNTS 30 30 0 0 0
M  V30 BEGIN ATOM
M  V30 1 O -2.8703 0.7966 0.8763 0
M  V30 2 C -2.7062 0.3571 -0.2953 0
M  V30 3 O -3.799 0.1971 -1.1524 0
M  V30 4 C -1.3307 -0.0218 -0.7739 0 CFG=1
M  V30 5 C -5.1287 0.5239 -0.7671 0
M  V30 6 C -0.3332 1.1584 -0.6248 0
M  V30 7 C -0.8551 -1.3134 -0.065 0
M  V30 8 C 0.5044 1.0517 0.657 0
M  V30 9 C 0.672 -1.4221 -0.0827 0
M  V30 10 C 1.3228 -0.2659 0.7153 0 CFG=1
M  V30 11 C 2.7407 -0.053 0.2582 0
M  V30 12 O 2.9719 0.4424 -0.8794 0
M  V30 13 O 3.7951 -0.4283 1.0959 0
M  V30 14 C 5.1596 -0.2672 0.7285 0
M  V30 15 H -1.407 -0.2448 -1.8619 0
M  V30 16 H -5.1958 1.6023 -0.5095 0
M  V30 17 H -5.8155 0.3128 -1.6122 0
M  V30 18 H -5.4332 -0.0904 0.1064 0
M  V30 19 H 0.3584 1.1625 -1.4956 0
M  V30 20 H -0.8662 2.1348 -0.6403 0
M  V30 21 H -1.2951 -2.1987 -0.5739 0
M  V30 22 H -1.1959 -1.3337 0.9946 0
M  V30 23 H -0.1842 1.0913 1.5296 0
M  V30 24 H 1.1707 1.9387 0.7406 0
M  V30 25 H 1.0118 -1.4139 -1.1428 0
M  V30 26 H 0.9787 -2.3954 0.3584 0
M  V30 27 H 1.3608 -0.5757 1.7838 0
M  V30 28 H 5.3781 -0.8538 -0.1887 0
M  V30 29 H 5.8049 -0.6345 1.5525 0
M  V30 30 H 5.3808 0.8063 0.5492 0
M  V30 END ATOM
M  V30 BEGIN BOND
M  V30 1 2 1 2
M  V30 2 1 2 3
M  V30 3 1 2 4
M  V30 4 1 3 5
M  V30 5 1 4 6
M  V30 6 1 4 7
M  V30 7 1 6 8
M  V30 8 1 7 9
M  V30 9 1 8 10
M  V30 10 1 10 11
M  V30 11 2 11 12
M  V30 12 1 11 13
M  V30 13 1 13 14
M  V30 14 1 9 10
M  V30 15 1 4 15
M  V30 16 1 5 16
M  V30 17 1 5 17
M  V30 18 1 5 18
M  V30 19 1 6 19
M  V30 20 1 6 20
M  V30 21 1 7 21
M  V30 22 1 7 22
M  V30 23 1 8 23
M  V30 24 1 8 24
M  V30 25 1 9 25
M  V30 26 1 9 26
M  V30 27 1 10 27
M  V30 28 1 14 28
M  V30 29 1 14 29
M  V30 30 1 14 30
M  V30 END BOND
M  V30 BEGIN COLLECTION
M  V30 MDLV30/STEABS ATOMS=(2 4 10)
M  V30 END COLLECTION
M  V30 END CTAB
M  END
>  <Structure No>
1686

>  <LogS>
-1.387194666

>  <MMFF94 Energy>
-5.3555

$$$$
Compound 1687
Actelion Java MolfileCreator 2.0

  0  0  0  0  0  0              0 V3000
M  V30 BEGIN CTAB
M  V30 COUNTS 65 64 0 0 0
M  V30 BEGIN ATOM
M  V30 1 S -0.0799 -1.9206 -0.3199 0
M  V30 2 O 0.6748 -1.3112 -1.4677 0
M  V30 3 O -1.1585 -2.8172 -0.8593 0
M  V30 4 O 0.9703 -2.8337 0.6195 0 CHG=-1
M  V30 5 C -0.8214 -0.6309 0.6798 0 CFG=2
M  V30 6 C -1.6032 0.3165 -0.1892 0
M  V30 7 C 0.1959 0.0623 1.6171 0
M  V30 8 O -1.1679 1.4718 -0.4459 0
M  V30 9 O -2.8177 -0.119 -0.7311 0
M  V30 10 C 1.4705 0.5016 0.9521 0
M  V30 11 C -3.7323 0.7307 -1.4254 0
M  V30 12 O 1.477 1.5076 0.1928 0
M  V30 13 O 2.6549 -0.1908 1.2241 0
M  V30 14 C -4.8302 1.2774 -0.4794 0 CFG=1
M  V30 15 C 3.9354 0.2186 0.742 0
M  V30 16 C -5.5106 0.1473 0.3366 0
M  V30 17 C -4.29 2.3621 0.4854 0
M  V30 18 C 4.1688 -0.2834 -0.701 0 CFG=1
M  V30 19 C -6.2585 -0.8701 -0.5459 0
M  V30 20 C -3.896 3.6595 -0.2247 0
M  V30 21 C 5.3439 0.4337 -1.4233 0
M  V30 22 C 4.1772 -1.8299 -0.8593 0
M  V30 23 C -6.9823 -1.9461 0.2785 0
M  V30 24 C 6.7826 -0.0445 -1.1272 0
M  V30 25 C 4.8343 -2.6112 0.2813 0
M  V30 26 C -8.2299 -1.4162 0.9878 0
M  V30 27 C 7.3695 0.3605 0.2367 0
M  V30 28 C 7.4042 1.8731 0.4614 0
M  V30 29 H -1.5639 -1.1303 1.3393 0
M  V30 30 H -0.2805 0.94 2.1056 0
M  V30 31 H 0.4583 -0.6472 2.4314 0
M  V30 32 H -4.212 0.1375 -2.2306 0
M  V30 33 H -3.1983 1.5475 -1.953 0
M  V30 34 H -5.6142 1.7531 -1.1096 0
M  V30 35 H 4.0129 1.3285 0.7874 0
M  V30 36 H 4.6992 -0.1829 1.4319 0
M  V30 37 H -4.7542 -0.3815 0.9575 0
M  V30 38 H -6.2425 0.6123 1.0296 0
M  V30 39 H -3.4247 1.9766 1.0645 0
M  V30 40 H -5.0825 2.623 1.2207 0
M  V30 41 H 3.2718 0.057 -1.2665 0
M  V30 42 H -5.5281 -1.3969 -1.1964 0
M  V30 43 H -6.9856 -0.3439 -1.2035 0
M  V30 44 H -4.7299 4.0254 -0.8612 0
M  V30 45 H -2.99 3.5165 -0.8466 0
M  V30 46 H -3.6653 4.4384 0.533 0
M  V30 47 H 5.2657 1.5314 -1.2751 0
M  V30 48 H 5.1861 0.2852 -2.5156 0
M  V30 49 H 4.667 -2.1081 -1.8179 0
M  V30 50 H 3.1298 -2.1862 -0.9361 0
M  V30 51 H -6.2876 -2.3883 1.0258 0
M  V30 52 H -7.2935 -2.7607 -0.4115 0
M  V30 53 H 6.8539 -1.144 -1.2483 0
M  V30 54 H 7.4432 0.3826 -1.9132 0
M  V30 55 H 4.2266 -2.5303 1.207 0
M  V30 56 H 5.8607 -2.2519 0.4862 0
M  V30 57 H 4.8922 -3.6843 0.0038 0
M  V30 58 H -8.7837 -2.2655 1.4399 0
M  V30 59 H -8.8995 -0.8998 0.2661 0
M  V30 60 H -7.9552 -0.7158 1.8044 0
M  V30 61 H 8.4154 -0.0141 0.2764 0
M  V30 62 H 6.8336 -0.1299 1.0683 0
M  V30 63 H 6.3788 2.2706 0.608 0
M  V30 64 H 7.9909 2.0974 1.3784 0
M  V30 65 H 7.8868 2.3842 -0.3993 0
M  V30 END ATOM
M  V30 BEGIN BOND
M  V30 1 2 1 2
M  V30 2 2 1 3
M  V30 3 1 1 4
M  V30 4 1 1 5
M  V30 5 1 5 6
M  V30 6 1 5 7
M  V30 7 2 6 8
M  V30 8 1 6 9
M  V30 9 1 7 10
M  V30 10 1 9 11
M  V30 11 2 10 12
M  V30 12 1 10 13
M  V30 13 1 11 14
M  V30 14 1 13 15
M  V30 15 1 14 16
M  V30 16 1 14 17
M  V30 17 1 15 18
M  V30 18 1 16 19
M  V30 19 1 17 20
M  V30 20 1 18 21
M  V30 21 1 18 22
M  V30 22 1 19 23
M  V30 23 1 21 24
M  V30 24 1 22 25
M  V30 25 1 23 26
M  V30 26 1 24 27
M  V30 27 1 27 28
M  V30 28 1 5 29
M  V30 29 1 7 30
M  V30 30 1 7 31
M  V30 31 1 11 32
M  V30 32 1 11 33
M  V30 33 1 14 34
M  V30 34 1 15 35
M  V30 35 1 15 36
M  V30 36 1 16 37
M  V30 37 1 16 38
M  V30 38 1 17 39
M  V30 39 1 17 40
M  V30 40 1 18 41
M  V30 41 1 19 42
M  V30 42 1 19 43
M  V30 43 1 20 44
M  V30 44 1 20 45
M  V30 45 1 20 46
M  V30 46 1 21 47
M  V30 47 1 21 48
M  V30 48 1 22 49
M  V30 49 1 22 50
M  V30 50 1 23 51
M  V30 51 1 23 52
M  V30 52 1 24 53
M  V30 53 1 24 54
M  V30 54 1 25 55
M  V30 55 1 25 56
M  V30 56 1 25 57
M  V30 57 1 26 58
M  V30 58 1 26 59
M  V30 59 1 26 60
M  V30 60 1 27 61
M  V30 61 1 27 62
M  V30 62 1 28 63
M  V30 63 1 28 64
M  V30 64 1 28 65
M  V30 END BOND
M  V30 BEGIN COLLECTION
M  V30 MDLV30/STEABS ATOMS=(3 5 14 18)
M  V30 END COLLECTION
M  V30 END CTAB
M  END
>  <Structure No>
1687

>  <LogS>
-1.735714189

>  <MMFF94 Energy>
-70.688

$$$$
Compound 1688
Actelion Java MolfileCreator 2.0

  0  0  0  0  0  0              0 V3000
M  V30 BEGIN CTAB
M  V30 COUNTS 18 18 0 0 0
M  V30 BEGIN ATOM
M  V30 1 O -2.9753 1.4868 0.0 0
M  V30 2 C -2.433 0.3504 0.0649 0
M  V30 3 N -3.2667 -0.8052 0.1882 0
M  V30 4 C -0.9553 0.2378 -0.0038 0
M  V30 5 C -0.1978 1.2774 -0.5744 0
M  V30 6 C -0.2838 -0.8854 0.514 0
M  V30 7 C 1.1956 1.1871 -0.6424 0
M  V30 8 C 1.1102 -0.9724 0.4455 0
M  V30 9 C 1.8559 0.0612 -0.135 0
M  V30 10 N 3.2815 -0.0298 -0.204 0
M  V30 11 H -2.8865 -1.7714 0.0874 0
M  V30 12 H -4.2995 -0.6924 0.2939 0
M  V30 13 H -0.6839 2.1571 -0.9782 0
M  V30 14 H -0.8256 -1.6885 0.9948 0
M  V30 15 H 1.7602 1.995 -1.0909 0
M  V30 16 H 1.6095 -1.8435 0.8511 0
M  V30 17 H 3.846 0.7369 -0.6333 0
M  V30 18 H 3.7828 -0.8648 0.1732 0
M  V30 END ATOM
M  V30 BEGIN BOND
M  V30 1 2 1 2
M  V30 2 1 2 3
M  V30 3 1 2 4
M  V30 4 2 4 5
M  V30 5 1 4 6
M  V30 6 1 5 7
M  V30 7 2 6 8
M  V30 8 2 7 9
M  V30 9 1 9 10
M  V30 10 1 8 9
M  V30 11 1 3 11
M  V30 12 1 3 12
M  V30 13 1 5 13
M  V30 14 1 6 14
M  V30 15 1 7 15
M  V30 16 1 8 16
M  V30 17 1 10 17
M  V30 18 1 10 18
M  V30 END BOND
M  V30 END CTAB
M  END
>  <Structure No>
1688

>  <LogS>
-1.225545386

>  <MMFF94 Energy>
-4.8999

$$$$
Compound 1689
Actelion Java MolfileCreator 2.0

  0  0  0  0  0  0              0 V3000
M  V30 BEGIN CTAB
M  V30 COUNTS 21 22 0 0 0
M  V30 BEGIN ATOM
M  V30 1 O 0.8719 -2.5381 -0.1584 0
M  V30 2 C 0.5456 -1.3218 -0.0524 0
M  V30 3 N 1.5249 -0.3613 0.1487 0
M  V30 4 N -0.7845 -0.9662 -0.1375 0
M  V30 5 C 1.1751 0.9621 0.2928 0
M  V30 6 C 2.9341 -0.7669 0.2778 0
M  V30 7 C -1.0979 0.3538 -0.0329 0
M  V30 8 C -1.824 -1.9712 -0.3956 0
M  V30 9 O 2.0393 1.8535 0.5174 0
M  V30 10 C -0.162 1.3005 0.1846 0
M  V30 11 N -2.3235 0.9079 -0.1088 0
M  V30 12 N -0.7485 2.5013 0.2597 0
M  V30 13 C -2.0634 2.2295 0.0757 0
M  V30 14 H 3.1435 -1.0537 1.3298 0
M  V30 15 H 3.6222 0.0529 -0.0189 0
M  V30 16 H 3.1643 -1.6259 -0.3879 0
M  V30 17 H -1.6285 -2.8931 0.1924 0
M  V30 18 H -1.8372 -2.2226 -1.4769 0
M  V30 19 H -2.829 -1.6025 -0.0992 0
M  V30 20 H -0.3022 3.4318 0.4189 0
M  V30 21 H -2.8329 2.9901 0.076 0
M  V30 END ATOM
M  V30 BEGIN BOND
M  V30 1 2 1 2
M  V30 2 1 2 3
M  V30 3 1 2 4
M  V30 4 1 3 5
M  V30 5 1 3 6
M  V30 6 1 4 7
M  V30 7 1 4 8
M  V30 8 2 5 9
M  V30 9 1 5 10
M  V30 10 1 7 11
M  V30 11 1 10 12
M  V30 12 2 11 13
M  V30 13 2 7 10
M  V30 14 1 12 13
M  V30 15 1 6 14
M  V30 16 1 6 15
M  V30 17 1 6 16
M  V30 18 1 8 17
M  V30 19 1 8 18
M  V30 20 1 8 19
M  V30 21 1 12 20
M  V30 22 1 13 21
M  V30 END BOND
M  V30 END CTAB
M  END
>  <Structure No>
1689

>  <LogS>
-1.35258526

>  <MMFF94 Energy>
-126.22

$$$$
Compound 1690
Actelion Java MolfileCreator 2.0

  0  0  0  0  0  0              0 V3000
M  V30 BEGIN CTAB
M  V30 COUNTS 25 24 0 0 0
M  V30 BEGIN ATOM
M  V30 1 N -2.906 3.1419 -0.7062 0
M  V30 2 C -2.3459 2.2099 -0.3101 0
M  V30 3 C -1.6323 1.0235 0.1945 0 CFG=2
M  V30 4 C -0.2722 0.907 -0.549 0
M  V30 5 C -2.5399 -0.2007 0.0261 0
M  V30 6 C 0.7711 -0.1614 -0.0597 0
M  V30 7 C 2.1742 0.2996 -0.5667 0
M  V30 8 C 0.4521 -1.5489 -0.6704 0
M  V30 9 C 0.7939 -0.2613 1.4837 0
M  V30 10 C 3.269 -0.626 -0.228 0
M  V30 11 N 4.1295 -1.3526 0.0379 0
M  V30 12 H -1.4609 1.199 1.277 0
M  V30 13 H -0.4636 0.7623 -1.6363 0
M  V30 14 H 0.2061 1.91 -0.4647 0
M  V30 15 H -3.5864 0.0429 0.3131 0
M  V30 16 H -2.2202 -1.0164 0.7037 0
M  V30 17 H -2.5378 -0.5563 -1.0265 0
M  V30 18 H 2.4297 1.2905 -0.1324 0
M  V30 19 H 2.1556 0.4163 -1.6721 0
M  V30 20 H -0.517 -1.947 -0.3241 0
M  V30 21 H 1.2171 -2.2988 -0.3782 0
M  V30 22 H 0.4302 -1.4929 -1.7799 0
M  V30 23 H 1.5934 -0.9503 1.8289 0
M  V30 24 H -0.1626 -0.663 1.8757 0
M  V30 25 H 0.9752 0.7378 1.9348 0
M  V30 END ATOM
M  V30 BEGIN BOND
M  V30 1 3 1 2
M  V30 2 1 2 3
M  V30 3 1 3 4
M  V30 4 1 3 5
M  V30 5 1 4 6
M  V30 6 1 6 7
M  V30 7 1 6 8
M  V30 8 1 6 9
M  V30 9 1 7 10
M  V30 10 3 10 11
M  V30 11 1 3 12
M  V30 12 1 4 13
M  V30 13 1 4 14
M  V30 14 1 5 15
M  V30 15 1 5 16
M  V30 16 1 5 17
M  V30 17 1 7 18
M  V30 18 1 7 19
M  V30 19 1 8 20
M  V30 20 1 8 21
M  V30 21 1 8 22
M  V30 22 1 9 23
M  V30 23 1 9 24
M  V30 24 1 9 25
M  V30 END BOND
M  V30 BEGIN COLLECTION
M  V30 MDLV30/STEABS ATOMS=(1 3)
M  V30 END COLLECTION
M  V30 END CTAB
M  END
>  <Structure No>
1690

>  <LogS>
-1.574682221

>  <MMFF94 Energy>
23.92

$$$$
Compound 1691
Actelion Java MolfileCreator 2.0

  0  0  0  0  0  0              0 V3000
M  V30 BEGIN CTAB
M  V30 COUNTS 24 24 0 0 0
M  V30 BEGIN ATOM
M  V30 1 N -1.703 -0.0773 0.2321 0 CHG=1
M  V30 2 C -0.6705 0.8954 -0.195 0
M  V30 3 C -1.6654 -0.2969 1.6902 0
M  V30 4 C -3.039 0.4027 -0.1624 0
M  V30 5 C 0.7264 0.339 -0.0449 0
M  V30 6 C 1.5449 0.7436 1.0235 0
M  V30 7 C 1.2105 -0.6096 -0.9611 0
M  V30 8 C 2.8298 0.211 1.1672 0
M  V30 9 C 2.4961 -1.1393 -0.8138 0
M  V30 10 C 3.3054 -0.7289 0.249 0
M  V30 11 H -1.5392 -0.9943 -0.2478 0
M  V30 12 H -0.7719 1.848 0.3741 0
M  V30 13 H -0.8132 1.1579 -1.268 0
M  V30 14 H -1.7951 0.6597 2.2439 0
M  V30 15 H -2.4701 -0.9993 2.0002 0
M  V30 16 H -0.7014 -0.7594 1.9921 0
M  V30 17 H -3.0996 0.5212 -1.2667 0
M  V30 18 H -3.2698 1.3812 0.3154 0
M  V30 19 H -3.8207 -0.3318 0.1317 0
M  V30 20 H 1.1869 1.4661 1.7466 0
M  V30 21 H 0.5917 -0.9379 -1.7871 0
M  V30 22 H 3.4562 0.5258 1.9919 0
M  V30 23 H 2.8645 -1.869 -1.5231 0
M  V30 24 H 4.2999 -1.1405 0.3622 0
M  V30 END ATOM
M  V30 BEGIN BOND
M  V30 1 1 1 2
M  V30 2 1 1 3
M  V30 3 1 1 4
M  V30 4 1 2 5
M  V30 5 2 5 6
M  V30 6 1 5 7
M  V30 7 1 6 8
M  V30 8 2 7 9
M  V30 9 2 8 10
M  V30 10 1 9 10
M  V30 11 1 1 11
M  V30 12 1 2 12
M  V30 13 1 2 13
M  V30 14 1 3 14
M  V30 15 1 3 15
M  V30 16 1 3 16
M  V30 17 1 4 17
M  V30 18 1 4 18
M  V30 19 1 4 19
M  V30 20 1 6 20
M  V30 21 1 7 21
M  V30 22 1 8 22
M  V30 23 1 9 23
M  V30 24 1 10 24
M  V30 END BOND
M  V30 END CTAB
M  END
>  <Structure No>
1691

>  <LogS>
-1.227918826

>  <MMFF94 Energy>
17.112

$$$$
Compound 1692
Actelion Java MolfileCreator 2.0

  0  0  0  0  0  0              0 V3000
M  V30 BEGIN CTAB
M  V30 COUNTS 5 4 0 0 0
M  V30 BEGIN ATOM
M  V30 1 Cl -0.9062 -1.41 -0.5034 0
M  V30 2 C 0.0205 -0.0238 0.113 0
M  V30 3 Cl -0.7209 1.487 -0.46 0
M  V30 4 Cl 1.6954 -0.1223 -0.4749 0
M  V30 5 H 0.0165 -0.0401 1.2223 0
M  V30 END ATOM
M  V30 BEGIN BOND
M  V30 1 1 1 2
M  V30 2 1 2 3
M  V30 3 1 2 4
M  V30 4 1 2 5
M  V30 END BOND
M  V30 END CTAB
M  END
>  <Structure No>
1692

>  <LogS>
-1.173834312

>  <MMFF94 Energy>
0.00208

$$$$
Compound 1693
Actelion Java MolfileCreator 2.0

  0  0  0  0  0  0              0 V3000
M  V30 BEGIN CTAB
M  V30 COUNTS 23 23 0 0 0
M  V30 BEGIN ATOM
M  V30 1 O 1.6581 2.2904 -0.7103 0
M  V30 2 C 2.1059 1.1864 -0.2976 0
M  V30 3 O 1.4319 -0.0072 -0.5853 0
M  V30 4 C 3.3505 1.1668 0.4841 0
M  V30 5 C 0.1839 -0.0606 -1.2758 0
M  V30 6 C 3.8716 0.038 0.9591 0
M  V30 7 C -0.9737 0.3711 -0.3625 0 CFG=1
M  V30 8 O -2.1711 0.3762 -1.1116 0
M  V30 9 C -1.1342 -0.5603 0.8385 0
M  V30 10 C -3.0945 -0.4589 -0.454 0
M  V30 11 C -2.3467 -1.3668 0.4944 0
M  V30 12 H 3.8589 2.1027 0.6826 0
M  V30 13 H 0.0121 -1.1032 -1.6194 0
M  V30 14 H 0.2223 0.588 -2.1783 0
M  V30 15 H 4.7896 0.0671 1.5316 0
M  V30 16 H 3.3978 -0.9204 0.7884 0
M  V30 17 H -0.7811 1.4052 -0.0023 0
M  V30 18 H -1.3328 0.0393 1.7548 0
M  V30 19 H -0.2527 -1.214 1.0201 0
M  V30 20 H -3.6574 -1.058 -1.2009 0
M  V30 21 H -3.8144 0.1726 0.1116 0
M  V30 22 H -2.9511 -1.6149 1.394 0
M  V30 23 H -2.0457 -2.2997 -0.0319 0
M  V30 END ATOM
M  V30 BEGIN BOND
M  V30 1 2 1 2
M  V30 2 1 2 3
M  V30 3 1 2 4
M  V30 4 1 3 5
M  V30 5 2 4 6
M  V30 6 1 5 7
M  V30 7 1 7 8
M  V30 8 1 7 9
M  V30 9 1 8 10
M  V30 10 1 9 11
M  V30 11 1 10 11
M  V30 12 1 4 12
M  V30 13 1 5 13
M  V30 14 1 5 14
M  V30 15 1 6 15
M  V30 16 1 6 16
M  V30 17 1 7 17
M  V30 18 1 9 18
M  V30 19 1 9 19
M  V30 20 1 10 20
M  V30 21 1 10 21
M  V30 22 1 11 22
M  V30 23 1 11 23
M  V30 END BOND
M  V30 BEGIN COLLECTION
M  V30 MDLV30/STEABS ATOMS=(1 7)
M  V30 END COLLECTION
M  V30 END CTAB
M  END
>  <Structure No>
1693

>  <LogS>
-0.295451716

>  <MMFF94 Energy>
20.957

$$$$
Compound 1694
Actelion Java MolfileCreator 2.0

  0  0  0  0  0  0              0 V3000
M  V30 BEGIN CTAB
M  V30 COUNTS 27 27 0 0 0
M  V30 BEGIN ATOM
M  V30 1 S -4.9587 -1.1554 0.0824 0
M  V30 2 O -5.8571 -0.1005 0.6647 0
M  V30 3 O -4.9423 -2.3395 1.0076 0
M  V30 4 O -5.5472 -1.6254 -1.4183 0 CHG=-1
M  V30 5 C -3.3284 -0.5175 -0.1014 0
M  V30 6 C -2.2229 -1.3734 -0.0161 0
M  V30 7 C -3.1286 0.847 -0.3465 0
M  V30 8 C -0.928 -0.8697 -0.1716 0
M  V30 9 C -1.8343 1.3518 -0.5011 0
M  V30 10 C -0.7241 0.4971 -0.4335 0
M  V30 11 N 0.5973 1.046 -0.5723 0
M  V30 12 C 1.6997 0.3492 -1.1747 0
M  V30 13 O 1.5115 -0.7185 -1.818 0
M  V30 14 C 3.0904 0.889 -1.0402 0
M  V30 15 C 3.687 0.4527 0.2691 0
M  V30 16 O 3.2913 0.9585 1.3085 0
M  V30 17 C 4.757 -0.5966 0.328 0
M  V30 18 H -2.3614 -2.4293 0.1778 0
M  V30 19 H -3.9729 1.5207 -0.418 0
M  V30 20 H -0.0897 -1.5444 -0.0618 0
M  V30 21 H -1.6957 2.4098 -0.6858 0
M  V30 22 H 0.7476 2.04 -0.2863 0
M  V30 23 H 3.7093 0.5329 -1.8918 0
M  V30 24 H 3.0745 1.9989 -1.0891 0
M  V30 25 H 5.6768 -0.1644 0.7744 0
M  V30 26 H 4.4111 -1.4432 0.9572 0
M  V30 27 H 4.9992 -0.9847 -0.6832 0
M  V30 END ATOM
M  V30 BEGIN BOND
M  V30 1 2 1 2
M  V30 2 2 1 3
M  V30 3 1 1 4
M  V30 4 1 1 5
M  V30 5 2 5 6
M  V30 6 1 5 7
M  V30 7 1 6 8
M  V30 8 2 7 9
M  V30 9 2 8 10
M  V30 10 1 10 11
M  V30 11 1 11 12
M  V30 12 2 12 13
M  V30 13 1 12 14
M  V30 14 1 14 15
M  V30 15 2 15 16
M  V30 16 1 15 17
M  V30 17 1 9 10
M  V30 18 1 6 18
M  V30 19 1 7 19
M  V30 20 1 8 20
M  V30 21 1 9 21
M  V30 22 1 11 22
M  V30 23 1 14 23
M  V30 24 1 14 24
M  V30 25 1 17 25
M  V30 26 1 17 26
M  V30 27 1 17 27
M  V30 END BOND
M  V30 END CTAB
M  END
>  <Structure No>
1694

>  <LogS>
0.421747335

>  <MMFF94 Energy>
21.641

$$$$
Compound 1695
Actelion Java MolfileCreator 2.0

  0  0  0  0  0  0              0 V3000
M  V30 BEGIN CTAB
M  V30 COUNTS 26 26 0 0 0
M  V30 BEGIN ATOM
M  V30 1 O -1.4282 3.335 -1.1901 0
M  V30 2 C -1.047 2.163 -0.9355 0
M  V30 3 O -1.8881 1.0695 -0.8632 0
M  V30 4 C 0.3087 1.7509 -0.6792 0
M  V30 5 C -1.121 -0.0952 -0.551 0 CFG=1
M  V30 6 O 1.427 2.5788 -0.6742 0
M  V30 7 C 0.2918 0.4385 -0.4562 0
M  V30 8 C -1.5913 -0.7178 0.7829 0 CFG=2
M  V30 9 O 1.3985 -0.3802 -0.1863 0
M  V30 10 O -0.722 -1.7481 1.1834 0
M  V30 11 C -3.0295 -1.259 0.6954 0
M  V30 12 C 2.7414 0.0814 -0.0803 0
M  V30 13 O -3.952 -0.207 0.5856 0
M  V30 14 C 3.6556 -1.0912 0.2348 0
M  V30 15 H -1.192 -0.828 -1.384 0
M  V30 16 H 1.3394 3.5707 -0.8585 0
M  V30 17 H -1.5655 0.0684 1.5697 0
M  V30 18 H -0.7351 -2.4435 0.4741 0
M  V30 19 H -3.2581 -1.8185 1.6275 0
M  V30 20 H -3.1255 -1.9774 -0.1527 0
M  V30 21 H 3.059 0.5404 -1.0411 0
M  V30 22 H 2.8189 0.8303 0.7373 0
M  V30 23 H -4.2044 -0.1393 -0.3718 0
M  V30 24 H 3.3538 -1.56 1.1953 0
M  V30 25 H 4.7046 -0.7369 0.3197 0
M  V30 26 H 3.5946 -1.8482 -0.5755 0
M  V30 END ATOM
M  V30 BEGIN BOND
M  V30 1 2 1 2
M  V30 2 1 2 3
M  V30 3 1 2 4
M  V30 4 1 3 5
M  V30 5 1 4 6
M  V30 6 2 4 7
M  V30 7 1 5 8
M  V30 8 1 7 9
M  V30 9 1 8 10
M  V30 10 1 8 11
M  V30 11 1 9 12
M  V30 12 1 11 13
M  V30 13 1 12 14
M  V30 14 1 5 7
M  V30 15 1 5 15
M  V30 16 1 6 16
M  V30 17 1 8 17
M  V30 18 1 10 18
M  V30 19 1 11 19
M  V30 20 1 11 20
M  V30 21 1 12 21
M  V30 22 1 12 22
M  V30 23 1 13 23
M  V30 24 1 14 24
M  V30 25 1 14 25
M  V30 26 1 14 26
M  V30 END BOND
M  V30 BEGIN COLLECTION
M  V30 MDLV30/STEABS ATOMS=(2 5 8)
M  V30 END COLLECTION
M  V30 END CTAB
M  END
>  <Structure No>
1695

>  <LogS>
0.580970652

>  <MMFF94 Energy>
70.81

$$$$
Compound 1696
Actelion Java MolfileCreator 2.0

  0  0  0  0  0  0              0 V3000
M  V30 BEGIN CTAB
M  V30 COUNTS 18 17 0 0 0
M  V30 BEGIN ATOM
M  V30 1 O -2.7405 -1.8785 0.3129 0
M  V30 2 C -1.9537 -0.9033 0.1711 0
M  V30 3 O -2.4431 0.3511 -0.21 0
M  V30 4 C -0.5163 -1.1022 0.4116 0
M  V30 5 C -3.8233 0.5941 -0.454 0
M  V30 6 C 0.3691 -0.108 0.2781 0
M  V30 7 C 1.8092 -0.2973 0.5165 0
M  V30 8 O 2.2634 -1.4239 0.8609 0
M  V30 9 O 2.6689 0.7926 0.3554 0
M  V30 10 C 4.0729 0.6994 0.5649 0
M  V30 11 H -0.1828 -2.0906 0.7051 0
M  V30 12 H -4.1823 -0.0515 -1.2832 0
M  V30 13 H -3.9613 1.657 -0.7403 0
M  V30 14 H -4.4137 0.3893 0.4642 0
M  V30 15 H 0.0355 0.8799 -0.0152 0
M  V30 16 H 4.5362 1.6896 0.3765 0
M  V30 17 H 4.5132 -0.0428 -0.1341 0
M  V30 18 H 4.2818 0.398 1.6133 0
M  V30 END ATOM
M  V30 BEGIN BOND
M  V30 1 2 1 2
M  V30 2 1 2 3
M  V30 3 1 2 4
M  V30 4 1 3 5
M  V30 5 2 4 6
M  V30 6 1 6 7
M  V30 7 2 7 8
M  V30 8 1 7 9
M  V30 9 1 9 10
M  V30 10 1 4 11
M  V30 11 1 5 12
M  V30 12 1 5 13
M  V30 13 1 5 14
M  V30 14 1 6 15
M  V30 15 1 10 16
M  V30 16 1 10 17
M  V30 17 1 10 18
M  V30 END BOND
M  V30 END CTAB
M  END
>  <Structure No>
1696

>  <LogS>
-0.267204876

>  <MMFF94 Energy>
-31.762

$$$$
Compound 1697
Actelion Java MolfileCreator 2.0

  0  0  0  0  0  0              0 V3000
M  V30 BEGIN CTAB
M  V30 COUNTS 17 17 0 0 0
M  V30 BEGIN ATOM
M  V30 1 O -1.5678 2.0385 -0.235 0
M  V30 2 C -0.5505 1.0949 -0.0919 0
M  V30 3 C -0.8536 -0.2794 -0.1204 0
M  V30 4 C 0.7767 1.5135 0.0806 0
M  V30 5 C 0.1814 -1.2189 0.025 0
M  V30 6 C -2.2728 -0.7374 -0.3048 0
M  V30 7 C 1.7991 0.5726 0.2243 0
M  V30 8 C 1.5036 -0.7959 0.1969 0
M  V30 9 O 2.5153 -1.7431 0.3393 0
M  V30 10 H -1.3753 3.0333 -0.2179 0
M  V30 11 H 1.0163 2.5691 0.1035 0
M  V30 12 H -0.0355 -2.28 0.0052 0
M  V30 13 H -2.9026 -0.3444 0.521 0
M  V30 14 H -2.3483 -1.8457 -0.3053 0
M  V30 15 H -2.6645 -0.3596 -1.2727 0
M  V30 16 H 2.8199 0.908 0.357 0
M  V30 17 H 3.4829 -1.4696 0.4654 0
M  V30 END ATOM
M  V30 BEGIN BOND
M  V30 1 1 1 2
M  V30 2 2 2 3
M  V30 3 1 2 4
M  V30 4 1 3 5
M  V30 5 1 3 6
M  V30 6 2 4 7
M  V30 7 2 5 8
M  V30 8 1 8 9
M  V30 9 1 7 8
M  V30 10 1 1 10
M  V30 11 1 4 11
M  V30 12 1 5 12
M  V30 13 1 6 13
M  V30 14 1 6 14
M  V30 15 1 6 15
M  V30 16 1 7 16
M  V30 17 1 9 17
M  V30 END BOND
M  V30 END CTAB
M  END
>  <Structure No>
1697

>  <LogS>
-0.207417517

>  <MMFF94 Energy>
-2.1941

$$$$
Compound 1698
Actelion Java MolfileCreator 2.0

  0  0  0  0  0  0              0 V3000
M  V30 BEGIN CTAB
M  V30 COUNTS 14 13 0 0 0
M  V30 BEGIN ATOM
M  V30 1 O -0.0759 -1.2914 -0.6075 0
M  V30 2 C -0.0042 -0.171 -0.0317 0
M  V30 3 N 1.2134 0.5818 -0.0743 0
M  V30 4 N -1.1404 0.3516 0.6665 0
M  V30 5 C 2.3959 0.0925 -0.7716 0
M  V30 6 C -2.4009 -0.3764 0.738 0
M  V30 7 H 1.259 1.5081 0.4068 0
M  V30 8 H -1.0674 1.2807 1.1389 0
M  V30 9 H 2.7234 -0.8708 -0.3273 0
M  V30 10 H 3.221 0.8298 -0.6783 0
M  V30 11 H 2.1649 -0.0536 -1.8477 0
M  V30 12 H -2.2421 -1.3563 1.2355 0
M  V30 13 H -3.1416 0.2077 1.3241 0
M  V30 14 H -2.8006 -0.5391 -0.2849 0
M  V30 END ATOM
M  V30 BEGIN BOND
M  V30 1 2 1 2
M  V30 2 1 2 3
M  V30 3 1 2 4
M  V30 4 1 3 5
M  V30 5 1 4 6
M  V30 6 1 3 7
M  V30 7 1 4 8
M  V30 8 1 5 9
M  V30 9 1 5 10
M  V30 10 1 5 11
M  V30 11 1 6 12
M  V30 12 1 6 13
M  V30 13 1 6 14
M  V30 END BOND
M  V30 END CTAB
M  END
>  <Structure No>
1698

>  <LogS>
0.938636234

>  <MMFF94 Energy>
-99.529

$$$$
Compound 1699
Actelion Java MolfileCreator 2.0

  0  0  0  0  0  0              0 V3000
M  V30 BEGIN CTAB
M  V30 COUNTS 45 44 0 0 0
M  V30 BEGIN ATOM
M  V30 1 O -3.7888 3.5516 -0.9461 0
M  V30 2 C -4.0683 2.33 -0.8249 0
M  V30 3 O -5.129 1.9457 -0.0138 0 CHG=-1
M  V30 4 C -3.2805 1.296 -1.5688 0
M  V30 5 C -2.5079 0.345 -0.6259 0
M  V30 6 N -1.1123 0.7875 -0.3481 0 CHG=1
M  V30 7 C -0.2858 -0.3323 0.2012 0
M  V30 8 C -1.0296 2.0205 0.4902 0
M  V30 9 C 0.7142 -0.9463 -0.8283 0 CFG=1
M  V30 10 C -1.8209 2.0131 1.8221 0
M  V30 11 C 1.6254 -2.0183 -0.1582 0
M  V30 12 C -0.0354 -1.5619 -2.0413 0
M  V30 13 C -1.3317 1.0003 2.8083 0
M  V30 14 C 2.4471 -1.5545 1.0617 0
M  V30 15 C 0.8949 -2.0819 -3.1404 0
M  V30 16 O -1.9913 -0.0515 3.0177 0
M  V30 17 O -0.1362 1.2093 3.4845 0 CHG=-1
M  V30 18 C 3.3359 -0.3381 0.7633 0
M  V30 19 C 4.2523 -0.0247 1.9424 0
M  V30 20 H -2.5938 1.7813 -2.2955 0
M  V30 21 H -4.0037 0.6981 -2.1647 0
M  V30 22 H -3.0723 0.1499 0.3096 0
M  V30 23 H -2.4873 -0.6422 -1.1346 0
M  V30 24 H -0.6897 1.0706 -1.2631 0
M  V30 25 H 0.3208 0.0341 1.0489 0
M  V30 26 H -0.924 -1.1432 0.6207 0
M  V30 27 H 0.0363 2.2591 0.7082 0
M  V30 28 H -1.3873 2.8884 -0.1041 0
M  V30 29 H 1.3603 -0.128 -1.214 0
M  V30 30 H -1.7038 3.0144 2.2892 0
M  V30 31 H -2.9087 1.8925 1.655 0
M  V30 32 H 0.9993 -2.8823 0.155 0
M  V30 33 H 2.3567 -2.3971 -0.9021 0
M  V30 34 H -0.6725 -0.7919 -2.5207 0
M  V30 35 H -0.6967 -2.3888 -1.7019 0
M  V30 36 H 1.7842 -1.3477 1.9279 0
M  V30 37 H 3.0978 -2.4038 1.3662 0
M  V30 38 H 1.3705 -3.0373 -2.8373 0
M  V30 39 H 0.3052 -2.2796 -4.0604 0
M  V30 40 H 1.6775 -1.3306 -3.3789 0
M  V30 41 H 3.9595 -0.5389 -0.1347 0
M  V30 42 H 2.7069 0.5556 0.5663 0
M  V30 43 H 3.6504 0.1954 2.85 0
M  V30 44 H 4.926 -0.8836 2.1477 0
M  V30 45 H 4.8737 0.8641 1.7042 0
M  V30 END ATOM
M  V30 BEGIN BOND
M  V30 1 2 1 2
M  V30 2 1 2 3
M  V30 3 1 2 4
M  V30 4 1 4 5
M  V30 5 1 5 6
M  V30 6 1 6 7
M  V30 7 1 6 8
M  V30 8 1 7 9
M  V30 9 1 8 10
M  V30 10 1 9 11
M  V30 11 1 9 12
M  V30 12 1 10 13
M  V30 13 1 11 14
M  V30 14 1 12 15
M  V30 15 2 13 16
M  V30 16 1 13 17
M  V30 17 1 14 18
M  V30 18 1 18 19
M  V30 19 1 4 20
M  V30 20 1 4 21
M  V30 21 1 5 22
M  V30 22 1 5 23
M  V30 23 1 6 24
M  V30 24 1 7 25
M  V30 25 1 7 26
M  V30 26 1 8 27
M  V30 27 1 8 28
M  V30 28 1 9 29
M  V30 29 1 10 30
M  V30 30 1 10 31
M  V30 31 1 11 32
M  V30 32 1 11 33
M  V30 33 1 12 34
M  V30 34 1 12 35
M  V30 35 1 14 36
M  V30 36 1 14 37
M  V30 37 1 15 38
M  V30 38 1 15 39
M  V30 39 1 15 40
M  V30 40 1 18 41
M  V30 41 1 18 42
M  V30 42 1 19 43
M  V30 43 1 19 44
M  V30 44 1 19 45
M  V30 END BOND
M  V30 BEGIN COLLECTION
M  V30 MDLV30/STEABS ATOMS=(1 9)
M  V30 END COLLECTION
M  V30 END CTAB
M  END
>  <Structure No>
1699

>  <LogS>
0.410469265

>  <MMFF94 Energy>
-107.6

$$$$
Compound 1700
Actelion Java MolfileCreator 2.0

  0  0  0  0  0  0              0 V3000
M  V30 BEGIN CTAB
M  V30 COUNTS 7 6 0 0 0
M  V30 BEGIN ATOM
M  V30 1 O 1.3234 1.2455 -0.1556 0
M  V30 2 C 0.8058 0.1289 0.1093 0
M  V30 3 O 1.6131 -0.9261 0.5145 0 CHG=-1
M  V30 4 C -0.6604 -0.0768 -0.067 0
M  V30 5 H -1.2123 0.8417 0.2247 0
M  V30 6 H -0.8759 -0.3118 -1.13 0
M  V30 7 H -1.0045 -0.9188 0.5696 0
M  V30 END ATOM
M  V30 BEGIN BOND
M  V30 1 2 1 2
M  V30 2 1 2 3
M  V30 3 1 2 4
M  V30 4 1 4 5
M  V30 5 1 4 6
M  V30 6 1 4 7
M  V30 END BOND
M  V30 END CTAB
M  END
>  <Structure No>
1700

>  <LogS>
-0.375535712

>  <MMFF94 Energy>
1.0491

$$$$
Compound 1701
Actelion Java MolfileCreator 2.0

  0  0  0  0  0  0              0 V3000
M  V30 BEGIN CTAB
M  V30 COUNTS 14 13 0 0 0
M  V30 BEGIN ATOM
M  V30 1 N 0.0 0.0 -0.372 0 CHG=1
M  V30 2 C -1.2704 -0.6256 0.0295 0
M  V30 3 C 0.0753 1.3793 0.1363 0
M  V30 4 C 1.1392 -0.7909 0.1204 0
M  V30 5 H 0.0413 0.0279 -1.4185 0
M  V30 6 H -1.3593 -0.6771 1.1378 0
M  V30 7 H -2.1314 -0.0463 -0.3707 0
M  V30 8 H -1.3422 -1.6561 -0.3825 0
M  V30 9 H 1.0202 1.8634 -0.195 0
M  V30 10 H -0.7671 1.986 -0.2625 0
M  V30 11 H 0.0346 1.3996 1.2484 0
M  V30 12 H 1.1004 -1.8237 -0.2902 0
M  V30 13 H 1.1367 -0.8484 1.232 0
M  V30 14 H 2.0987 -0.3366 -0.2111 0
M  V30 END ATOM
M  V30 BEGIN BOND
M  V30 1 1 1 2
M  V30 2 1 1 3
M  V30 3 1 1 4
M  V30 4 1 1 5
M  V30 5 1 2 6
M  V30 6 1 2 7
M  V30 7 1 2 8
M  V30 8 1 3 9
M  V30 9 1 3 10
M  V30 10 1 3 11
M  V30 11 1 4 12
M  V30 12 1 4 13
M  V30 13 1 4 14
M  V30 END BOND
M  V30 END CTAB
M  END
>  <Structure No>
1701

>  <LogS>
0.899333987

>  <MMFF94 Energy>
7.4132

$$$$
Compound 1702
Actelion Java MolfileCreator 2.0

  0  0  0  0  0  0              0 V3000
M  V30 BEGIN CTAB
M  V30 COUNTS 18 18 0 0 0
M  V30 BEGIN ATOM
M  V30 1 Cl 0.1691 -0.0845 2.8782 0
M  V30 2 C -0.7444 0.0072 1.3802 0
M  V30 3 C -0.0822 0.0141 0.1414 0
M  V30 4 C -2.1416 0.0737 1.4342 0
M  V30 5 O 1.3197 -0.0537 0.1251 0
M  V30 6 C -0.8429 0.0885 -1.0425 0
M  V30 7 C -2.8881 0.1474 0.2547 0
M  V30 8 C 2.1142 -0.0556 -1.057 0
M  V30 9 C -2.2379 0.1548 -0.9821 0
M  V30 10 Cl -4.6388 0.2305 0.327 0
M  V30 11 C 3.5546 -0.1342 -0.6787 0
M  V30 12 O 4.0986 -1.2535 -0.4886 0
M  V30 13 O 4.2863 1.0296 -0.4808 0 CHG=-1
M  V30 14 H -2.6463 0.0681 2.3923 0
M  V30 15 H -0.3668 0.0961 -2.0133 0
M  V30 16 H 1.8487 -0.93 -1.69 0
M  V30 17 H 1.9376 0.8791 -1.6316 0
M  V30 18 H -2.8125 0.2118 -1.8979 0
M  V30 END ATOM
M  V30 BEGIN BOND
M  V30 1 1 1 2
M  V30 2 2 2 3
M  V30 3 1 2 4
M  V30 4 1 3 5
M  V30 5 1 3 6
M  V30 6 2 4 7
M  V30 7 1 5 8
M  V30 8 2 6 9
M  V30 9 1 7 10
M  V30 10 1 8 11
M  V30 11 2 11 12
M  V30 12 1 11 13
M  V30 13 1 7 9
M  V30 14 1 4 14
M  V30 15 1 6 15
M  V30 16 1 8 16
M  V30 17 1 8 17
M  V30 18 1 9 18
M  V30 END BOND
M  V30 END CTAB
M  END
>  <Structure No>
1702

>  <LogS>
0.449977221

>  <MMFF94 Energy>
72.259

$$$$
Compound 1703
Actelion Java MolfileCreator 2.0

  0  0  0  0  0  0              0 V3000
M  V30 BEGIN CTAB
M  V30 COUNTS 18 17 0 0 0
M  V30 BEGIN ATOM
M  V30 1 O -1.5486 -0.8515 -1.2387 0
M  V30 2 C -1.1515 -0.6297 -0.0621 0
M  V30 3 O -2.0558 -0.2654 0.9396 0
M  V30 4 C 0.3075 -0.71 0.2569 0
M  V30 5 C -3.4531 -0.1441 0.7025 0
M  V30 6 C 0.9748 0.6541 0.0701 0
M  V30 7 O 2.3353 0.5879 0.4549 0
M  V30 8 C 3.1577 0.3894 -0.6738 0
M  V30 9 H 0.433 -1.0436 1.3097 0
M  V30 10 H 0.7897 -1.4627 -0.4026 0
M  V30 11 H -3.9583 0.1522 1.6446 0
M  V30 12 H -3.6419 0.6337 -0.0672 0
M  V30 13 H -3.8669 -1.1171 0.3628 0
M  V30 14 H 0.4721 1.3881 0.7362 0
M  V30 15 H 0.8229 1.0215 -0.9738 0
M  V30 16 H 2.8647 -0.5229 -1.2386 0
M  V30 17 H 3.1361 1.2809 -1.3389 0
M  V30 18 H 4.2033 0.2511 -0.3302 0
M  V30 END ATOM
M  V30 BEGIN BOND
M  V30 1 2 1 2
M  V30 2 1 2 3
M  V30 3 1 2 4
M  V30 4 1 3 5
M  V30 5 1 4 6
M  V30 6 1 6 7
M  V30 7 1 7 8
M  V30 8 1 4 9
M  V30 9 1 4 10
M  V30 10 1 5 11
M  V30 11 1 5 12
M  V30 12 1 5 13
M  V30 13 1 6 14
M  V30 14 1 6 15
M  V30 15 1 8 16
M  V30 16 1 8 17
M  V30 17 1 8 18
M  V30 END BOND
M  V30 END CTAB
M  END
>  <Structure No>
1703

>  <LogS>
0.802693707

>  <MMFF94 Energy>
-7.2326

$$$$
Compound 1704
Actelion Java MolfileCreator 2.0

  0  0  0  0  0  0              0 V3000
M  V30 BEGIN CTAB
M  V30 COUNTS 3 2 0 0 0
M  V30 BEGIN ATOM
M  V30 1 O 0 0 0 0 CHG=-1
M  V30 2 C 0 0 0 0
M  V30 3 N 0 0 0 0
M  V30 END ATOM
M  V30 BEGIN BOND
M  V30 1 1 1 2
M  V30 2 3 2 3
M  V30 END BOND
M  V30 END CTAB
M  END
>  <Structure No>
1704

>  <LogS>
0.965960091

>  <MMFF94 Energy>
MMFF94 error code 2

$$$$
Compound 1705
Actelion Java MolfileCreator 2.0

  0  0  0  0  0  0              0 V3000
M  V30 BEGIN CTAB
M  V30 COUNTS 20 19 0 0 0
M  V30 BEGIN ATOM
M  V30 1 O 1.6869 -0.4598 -0.9965 0
M  V30 2 C 3.0836 -0.536 -0.8885 0
M  V30 3 C 0.8056 -0.1709 0.087 0
M  V30 4 C 3.7435 -0.3437 0.2545 0
M  V30 5 C -0.6358 -0.1739 -0.4172 0
M  V30 6 C -1.62 0.135 0.7186 0
M  V30 7 C -3.0734 0.107 0.2337 0
M  V30 8 O -3.3026 1.1078 -0.7217 0
M  V30 9 H 3.6515 -0.7628 -1.7813 0
M  V30 10 H 0.924 -0.9441 0.8777 0
M  V30 11 H 1.0495 0.8295 0.5071 0
M  V30 12 H 4.823 -0.4168 0.27 0
M  V30 13 H 3.2323 -0.1143 1.1791 0
M  V30 14 H -0.8661 -1.1728 -0.8485 0
M  V30 15 H -0.7378 0.5887 -1.2198 0
M  V30 16 H -1.3965 1.1352 1.1502 0
M  V30 17 H -1.5023 -0.6225 1.524 0
M  V30 18 H -3.2986 -0.882 -0.219 0
M  V30 19 H -3.7586 0.2417 1.1012 0
M  V30 20 H -3.3457 1.9678 -0.2273 0
M  V30 END ATOM
M  V30 BEGIN BOND
M  V30 1 1 1 2
M  V30 2 1 1 3
M  V30 3 2 2 4
M  V30 4 1 3 5
M  V30 5 1 5 6
M  V30 6 1 6 7
M  V30 7 1 7 8
M  V30 8 1 2 9
M  V30 9 1 3 10
M  V30 10 1 3 11
M  V30 11 1 4 12
M  V30 12 1 4 13
M  V30 13 1 5 14
M  V30 14 1 5 15
M  V30 15 1 6 16
M  V30 16 1 6 17
M  V30 17 1 7 18
M  V30 18 1 7 19
M  V30 19 1 8 20
M  V30 END BOND
M  V30 END CTAB
M  END
>  <Structure No>
1705

>  <LogS>
-0.18999534

>  <MMFF94 Energy>
6.6177

$$$$
Compound 1706
Actelion Java MolfileCreator 2.0

  0  0  0  0  0  0              0 V3000
M  V30 BEGIN CTAB
M  V30 COUNTS 23 23 0 0 0
M  V30 BEGIN ATOM
M  V30 1 O 2.9791 0.1566 -1.7239 0
M  V30 2 C 3.0264 0.8013 -0.4726 0 CFG=2
M  V30 3 C 3.8643 -0.383 -0.7663 0
M  V30 4 C 1.7706 0.5686 0.3753 0
M  V30 5 O 1.0453 -0.5603 -0.0748 0
M  V30 6 C -0.1752 -0.6825 0.631 0
M  V30 7 C -1.3189 -0.0763 -0.1877 0
M  V30 8 C -2.6666 -0.2682 0.517 0
M  V30 9 C -3.8061 0.3347 -0.2991 0
M  V30 10 H 3.5184 1.7958 -0.5148 0
M  V30 11 H 3.5134 -1.372 -0.4036 0
M  V30 12 H 4.9207 -0.1793 -1.0382 0
M  V30 13 H 2.0942 0.4249 1.4303 0
M  V30 14 H 1.1497 1.4899 0.309 0
M  V30 15 H -0.1475 -0.2326 1.6527 0
M  V30 16 H -0.3755 -1.7663 0.7711 0
M  V30 17 H -1.1316 1.0092 -0.3351 0
M  V30 18 H -1.3484 -0.5657 -1.1858 0
M  V30 19 H -2.8634 -1.3528 0.662 0
M  V30 20 H -2.6409 0.2218 1.5148 0
M  V30 21 H -3.647 1.4255 -0.4369 0
M  V30 22 H -4.7675 0.1809 0.2344 0
M  V30 23 H -3.8695 -0.1554 -1.2938 0
M  V30 END ATOM
M  V30 BEGIN BOND
M  V30 1 1 1 2
M  V30 2 1 1 3
M  V30 3 1 2 4
M  V30 4 1 4 5
M  V30 5 1 5 6
M  V30 6 1 6 7
M  V30 7 1 7 8
M  V30 8 1 8 9
M  V30 9 1 2 3
M  V30 10 1 2 10
M  V30 11 1 3 11
M  V30 12 1 3 12
M  V30 13 1 4 13
M  V30 14 1 4 14
M  V30 15 1 6 15
M  V30 16 1 6 16
M  V30 17 1 7 17
M  V30 18 1 7 18
M  V30 19 1 8 19
M  V30 20 1 8 20
M  V30 21 1 9 21
M  V30 22 1 9 22
M  V30 23 1 9 23
M  V30 END BOND
M  V30 BEGIN COLLECTION
M  V30 MDLV30/STEABS ATOMS=(1 2)
M  V30 END COLLECTION
M  V30 END CTAB
M  END
>  <Structure No>
1706

>  <LogS>
-0.53795425

>  <MMFF94 Energy>
13.382

$$$$
Compound 1707
Actelion Java MolfileCreator 2.0

  0  0  0  0  0  0              0 V3000
M  V30 BEGIN CTAB
M  V30 COUNTS 49 50 0 0 0
M  V30 BEGIN ATOM
M  V30 1 S -0.3277 -2.0496 -2.2137 0
M  V30 2 O -1.6155 -1.8807 -2.9716 0
M  V30 3 O 0.6653 -2.7616 -3.092 0
M  V30 4 O 0.2732 -0.5309 -1.8214 0 CHG=-1
M  V30 5 C -0.6326 -3.0278 -0.736 0 CFG=2
M  V30 6 C -1.6543 -2.3753 0.1552 0
M  V30 7 C 0.6674 -3.3653 0.0217 0
M  V30 8 O -2.4789 -3.0959 0.7788 0
M  V30 9 O -1.6524 -0.9829 0.3272 0
M  V30 10 C 1.2731 -2.1893 0.7334 0
M  V30 11 C -2.6399 -0.2776 1.0824 0
M  V30 12 O 0.8831 -1.8953 1.8965 0
M  V30 13 O 2.2709 -1.4327 0.1043 0
M  V30 14 C -2.18 1.1771 1.2938 0
M  V30 15 C -4.0046 -0.3071 0.3598 0
M  V30 16 C 2.8711 -0.2777 0.696 0
M  V30 17 C -2.1268 1.9577 -0.0328 0
M  V30 18 C -3.9468 0.4576 -0.9739 0
M  V30 19 C 4.1321 0.0907 -0.1133 0
M  V30 20 C 1.8478 0.8907 0.7828 0
M  V30 21 C -3.4794 1.9043 -0.7627 0
M  V30 22 C 4.5963 1.522 0.1961 0
M  V30 23 C 2.102 1.9894 -0.2565 0
M  V30 24 C 3.5156 2.5774 -0.1212 0
M  V30 25 H -1.0609 -3.9898 -1.0922 0
M  V30 26 H 0.454 -4.1666 0.7659 0
M  V30 27 H 1.4136 -3.7833 -0.6891 0
M  V30 28 H -2.7463 -0.7563 2.0841 0
M  V30 29 H -1.1738 1.1858 1.7682 0
M  V30 30 H -2.8813 1.6914 1.9928 0
M  V30 31 H -4.3141 -1.3558 0.167 0
M  V30 32 H -4.7795 0.1474 1.0161 0
M  V30 33 H 3.1975 -0.5353 1.7289 0
M  V30 34 H -1.8714 3.0215 0.1765 0
M  V30 35 H -1.3296 1.5419 -0.6878 0
M  V30 36 H -3.2528 -0.0554 -1.6766 0
M  V30 37 H -4.9615 0.4649 -1.4375 0
M  V30 38 H 4.9491 -0.6254 0.1274 0
M  V30 39 H 3.9265 0.0045 -1.2062 0
M  V30 40 H 1.8874 1.3407 1.7992 0
M  V30 41 H 0.8107 0.5199 0.6288 0
M  V30 42 H -4.2446 2.4596 -0.1742 0
M  V30 43 H -3.3788 2.4077 -1.7543 0
M  V30 44 H 4.8693 1.5884 1.2728 0
M  V30 45 H 5.5112 1.748 -0.3945 0
M  V30 46 H 1.3513 2.8002 -0.1362 0
M  V30 47 H 1.973 1.5633 -1.2771 0
M  V30 48 H 3.7724 3.0922 -1.0739 0
M  V30 49 H 3.5168 3.3487 0.6808 0
M  V30 END ATOM
M  V30 BEGIN BOND
M  V30 1 2 1 2
M  V30 2 2 1 3
M  V30 3 1 1 4
M  V30 4 1 1 5
M  V30 5 1 5 6
M  V30 6 1 5 7
M  V30 7 2 6 8
M  V30 8 1 6 9
M  V30 9 1 7 10
M  V30 10 1 9 11
M  V30 11 2 10 12
M  V30 12 1 10 13
M  V30 13 1 11 14
M  V30 14 1 11 15
M  V30 15 1 13 16
M  V30 16 1 14 17
M  V30 17 1 15 18
M  V30 18 1 16 19
M  V30 19 1 16 20
M  V30 20 1 17 21
M  V30 21 1 19 22
M  V30 22 1 20 23
M  V30 23 1 22 24
M  V30 24 1 18 21
M  V30 25 1 23 24
M  V30 26 1 5 25
M  V30 27 1 7 26
M  V30 28 1 7 27
M  V30 29 1 11 28
M  V30 30 1 14 29
M  V30 31 1 14 30
M  V30 32 1 15 31
M  V30 33 1 15 32
M  V30 34 1 16 33
M  V30 35 1 17 34
M  V30 36 1 17 35
M  V30 37 1 18 36
M  V30 38 1 18 37
M  V30 39 1 19 38
M  V30 40 1 19 39
M  V30 41 1 20 40
M  V30 42 1 20 41
M  V30 43 1 21 42
M  V30 44 1 21 43
M  V30 45 1 22 44
M  V30 46 1 22 45
M  V30 47 1 23 46
M  V30 48 1 23 47
M  V30 49 1 24 48
M  V30 50 1 24 49
M  V30 END BOND
M  V30 BEGIN COLLECTION
M  V30 MDLV30/STEABS ATOMS=(1 5)
M  V30 END COLLECTION
M  V30 END CTAB
M  END
>  <Structure No>
1707

>  <LogS>
-0.714701597

>  <MMFF94 Energy>
-76.621

$$$$
Compound 1708
Actelion Java MolfileCreator 2.0

  0  0  0  0  0  0              0 V3000
M  V30 BEGIN CTAB
M  V30 COUNTS 52 54 0 0 0
M  V30 BEGIN ATOM
M  V30 1 N 8.195 -2.3815 1.8254 0
M  V30 2 C 7.3527 -2.0257 1.116 0
M  V30 3 C 6.2849 -1.5749 0.2166 0
M  V30 4 C 6.5051 -0.1147 -0.1886 0
M  V30 5 N 5.4644 0.3248 -1.1344 0
M  V30 6 C 4.0667 0.3315 -0.7579 0
M  V30 7 C 5.8481 0.7397 -2.4889 0
M  V30 8 C 3.6677 0.7285 0.5306 0
M  V30 9 C 3.0791 -0.0663 -1.6763 0
M  V30 10 C 2.317 0.7283 0.8891 0
M  V30 11 C 1.7281 -0.0662 -1.318 0
M  V30 12 C 1.3307 0.3435 -0.0312 0
M  V30 13 C -0.087 0.3532 0.4051 0
M  V30 14 C -1.1288 0.3906 -0.4361 0
M  V30 15 C -2.528 0.3657 0.0467 0
M  V30 16 N -3.0056 1.1384 0.9886 0 CHG=1
M  V30 17 C -3.5724 -0.5756 -0.5346 0
M  V30 18 C -4.3635 0.7743 1.1988 0
M  V30 19 C -2.2999 2.2044 1.7049 0
M  V30 20 C -4.741 -0.2205 0.3334 0
M  V30 21 C -3.1653 -2.0441 -0.3428 0
M  V30 22 C -3.8657 -0.253 -2.0075 0
M  V30 23 C -5.2534 1.2919 2.1459 0
M  V30 24 C -6.0345 -0.7492 0.3522 0
M  V30 25 C -6.5594 0.7755 2.1836 0
M  V30 26 C -6.9493 -0.2403 1.2885 0
M  V30 27 H 6.2816 -2.2185 -0.6885 0
M  V30 28 H 5.3123 -1.6877 0.7397 0
M  V30 29 H 7.5143 -0.0263 -0.648 0
M  V30 30 H 6.5081 0.5403 0.7075 0
M  V30 31 H 5.281 1.649 -2.7816 0
M  V30 32 H 5.6342 -0.0775 -3.2083 0
M  V30 33 H 6.929 0.9855 -2.5494 0
M  V30 34 H 4.3931 1.0556 1.2615 0
M  V30 35 H 3.352 -0.401 -2.6679 0
M  V30 36 H 2.0403 1.0427 1.8885 0
M  V30 37 H 1.0093 -0.4146 -2.0459 0
M  V30 38 H -0.2787 0.3474 1.4713 0
M  V30 39 H -0.9764 0.3625 -1.5043 0
M  V30 40 H -1.4889 2.6348 1.0809 0
M  V30 41 H -2.9974 3.0337 1.9427 0
M  V30 42 H -1.8772 1.8044 2.6498 0
M  V30 43 H -2.9603 -2.2565 0.729 0
M  V30 44 H -3.9774 -2.7193 -0.6877 0
M  V30 45 H -2.2485 -2.2703 -0.9279 0
M  V30 46 H -4.1282 0.8206 -2.1285 0
M  V30 47 H -4.7153 -0.8671 -2.3754 0
M  V30 48 H -2.9793 -0.4734 -2.6389 0
M  V30 49 H -4.9531 2.0648 2.8402 0
M  V30 50 H -6.3251 -1.5328 -0.3347 0
M  V30 51 H -7.269 1.1584 2.9056 0
M  V30 52 H -7.9572 -0.633 1.3248 0
M  V30 END ATOM
M  V30 BEGIN BOND
M  V30 1 3 1 2
M  V30 2 1 2 3
M  V30 3 1 3 4
M  V30 4 1 4 5
M  V30 5 1 5 6
M  V30 6 1 5 7
M  V30 7 2 6 8
M  V30 8 1 6 9
M  V30 9 1 8 10
M  V30 10 2 9 11
M  V30 11 2 10 12
M  V30 12 1 12 13
M  V30 13 2 13 14
M  V30 14 1 14 15
M  V30 15 2 15 16
M  V30 16 1 15 17
M  V30 17 1 16 18
M  V30 18 1 16 19
M  V30 19 1 17 20
M  V30 20 1 17 21
M  V30 21 1 17 22
M  V30 22 1 18 23
M  V30 23 1 20 24
M  V30 24 2 23 25
M  V30 25 2 24 26
M  V30 26 1 11 12
M  V30 27 2 18 20
M  V30 28 1 25 26
M  V30 29 1 3 27
M  V30 30 1 3 28
M  V30 31 1 4 29
M  V30 32 1 4 30
M  V30 33 1 7 31
M  V30 34 1 7 32
M  V30 35 1 7 33
M  V30 36 1 8 34
M  V30 37 1 9 35
M  V30 38 1 10 36
M  V30 39 1 11 37
M  V30 40 1 13 38
M  V30 41 1 14 39
M  V30 42 1 19 40
M  V30 43 1 19 41
M  V30 44 1 19 42
M  V30 45 1 21 43
M  V30 46 1 21 44
M  V30 47 1 21 45
M  V30 48 1 22 46
M  V30 49 1 22 47
M  V30 50 1 22 48
M  V30 51 1 23 49
M  V30 52 1 24 50
M  V30 53 1 25 51
M  V30 54 1 26 52
M  V30 END BOND
M  V30 END CTAB
M  END
>  <Structure No>
1708

>  <LogS>
-0.774172069

>  <MMFF94 Energy>
95.211

$$$$
Compound 1709
Actelion Java MolfileCreator 2.0

  0  0  0  0  0  0              0 V3000
M  V30 BEGIN CTAB
M  V30 COUNTS 10 9 0 0 0
M  V30 BEGIN ATOM
M  V30 1 S -1.815 0.2864 -0.0954 0
M  V30 2 O -2.3236 1.4082 -0.9565 0
M  V30 3 O -2.8945 -0.7462 0.0611 0
M  V30 4 O -0.4727 -0.4236 -0.8232 0
M  V30 5 O -1.3997 0.8823 1.4199 0 CHG=-1
M  V30 6 O 0.469 0.4976 -0.7805 0
M  V30 7 S 1.7632 -0.2302 0.0153 0
M  V30 8 O 1.3475 -0.6577 1.395 0
M  V30 9 O 2.2385 -1.4237 -0.7643 0
M  V30 10 H 2.7871 0.6744 0.1176 0
M  V30 END ATOM
M  V30 BEGIN BOND
M  V30 1 2 1 2
M  V30 2 2 1 3
M  V30 3 1 1 4
M  V30 4 1 1 5
M  V30 5 1 4 6
M  V30 6 1 6 7
M  V30 7 2 7 8
M  V30 8 2 7 9
M  V30 9 1 7 10
M  V30 END BOND
M  V30 END CTAB
M  END
>  <Structure No>
1709

>  <LogS>
0.486552521

>  <MMFF94 Energy>
-21.925

$$$$
Compound 1710
Actelion Java MolfileCreator 2.0

  0  0  0  0  0  0              0 V3000
M  V30 BEGIN CTAB
M  V30 COUNTS 56 59 0 0 0
M  V30 BEGIN ATOM
M  V30 1 S 8.3324 2.3279 2.6608 0
M  V30 2 O 7.9767 2.1822 4.1138 0
M  V30 3 O 8.5728 3.7778 2.3441 0
M  V30 4 O 9.7401 1.466 2.342 0 CHG=-1
M  V30 5 C 7.0139 1.7168 1.6681 0
M  V30 6 C 7.066 0.4203 1.1408 0
M  V30 7 C 5.9004 2.5244 1.4075 0
M  V30 8 C 6.019 -0.0575 0.3469 0
M  V30 9 C 4.8511 2.0466 0.6161 0
M  V30 10 C 4.9004 0.7488 0.0771 0
M  V30 11 N 3.8401 0.2441 -0.7545 0
M  V30 12 N 4.0125 -0.7627 -1.7065 0
M  V30 13 C 2.4676 0.6105 -0.766 0
M  V30 14 C 2.8856 -1.021 -2.2952 0
M  V30 15 O 1.9416 1.4492 0.013 0
M  V30 16 C 1.7385 -0.1882 -1.7876 0 CFG=1
M  V30 17 C 2.7703 -2.0481 -3.373 0
M  V30 18 N 0.732 -1.0405 -1.1717 0
M  V30 19 N -0.323 -0.5443 -0.6629 0
M  V30 20 C -1.3328 -1.3606 -0.0577 0
M  V30 21 C -2.4312 -0.7416 0.5462 0
M  V30 22 C -1.2477 -2.761 -0.064 0
M  V30 23 C -3.4516 -1.501 1.1424 0
M  V30 24 C -2.2472 -3.528 0.5347 0
M  V30 25 S -4.8232 -0.6555 1.8824 0
M  V30 26 C -3.3481 -2.9141 1.1556 0
M  V30 27 O -4.6822 -0.7202 3.3776 0
M  V30 28 O -6.1243 -1.2962 1.485 0
M  V30 29 N -4.8587 1.0126 1.4004 0
M  V30 30 C -4.4037 -3.7827 1.7876 0
M  V30 31 C -5.178 1.4627 0.0709 0
M  V30 32 C -5.3299 2.8396 -0.167 0
M  V30 33 C -5.3257 0.5636 -1.0054 0
M  V30 34 C -5.6347 3.3105 -1.4478 0
M  V30 35 C -5.6256 1.0398 -2.2855 0
M  V30 36 C -5.7828 2.4109 -2.5063 0
M  V30 37 H 7.9158 -0.2208 1.3417 0
M  V30 38 H 5.849 3.5305 1.8069 0
M  V30 39 H 6.0809 -1.0615 -0.0544 0
M  V30 40 H 4.0244 2.7086 0.4007 0
M  V30 41 H 1.3066 0.4493 -2.5883 0
M  V30 42 H 1.7279 -2.0918 -3.7548 0
M  V30 43 H 3.4489 -1.7865 -4.2117 0
M  V30 44 H 3.0499 -3.0445 -2.9698 0
M  V30 45 H -2.4838 0.3398 0.5479 0
M  V30 46 H -0.4107 -3.263 -0.5324 0
M  V30 47 H -2.1585 -4.6072 0.5151 0
M  V30 48 H -4.6857 1.7225 2.1474 0
M  V30 49 H -5.3165 -3.7809 1.1563 0
M  V30 50 H -4.0578 -4.8334 1.8934 0
M  V30 51 H -4.6502 -3.4124 2.8043 0
M  V30 52 H -5.2153 3.5497 0.6427 0
M  V30 53 H -5.2009 -0.502 -0.8725 0
M  V30 54 H -5.75 4.373 -1.6207 0
M  V30 55 H -5.7332 0.3436 -3.1087 0
M  V30 56 H -6.0105 2.7745 -3.4992 0
M  V30 END ATOM
M  V30 BEGIN BOND
M  V30 1 2 1 2
M  V30 2 2 1 3
M  V30 3 1 1 4
M  V30 4 1 1 5
M  V30 5 2 5 6
M  V30 6 1 5 7
M  V30 7 1 6 8
M  V30 8 2 7 9
M  V30 9 2 8 10
M  V30 10 1 10 11
M  V30 11 1 11 12
M  V30 12 1 11 13
M  V30 13 2 12 14
M  V30 14 2 13 15
M  V30 15 1 13 16
M  V30 16 1 14 17
M  V30 17 1 16 18
M  V30 18 2 18 19
M  V30 19 1 19 20
M  V30 20 2 20 21
M  V30 21 1 20 22
M  V30 22 1 21 23
M  V30 23 2 22 24
M  V30 24 1 23 25
M  V30 25 2 23 26
M  V30 26 2 25 27
M  V30 27 2 25 28
M  V30 28 1 25 29
M  V30 29 1 26 30
M  V30 30 1 29 31
M  V30 31 2 31 32
M  V30 32 1 31 33
M  V30 33 1 32 34
M  V30 34 2 33 35
M  V30 35 2 34 36
M  V30 36 1 9 10
M  V30 37 1 14 16
M  V30 38 1 24 26
M  V30 39 1 35 36
M  V30 40 1 6 37
M  V30 41 1 7 38
M  V30 42 1 8 39
M  V30 43 1 9 40
M  V30 44 1 16 41
M  V30 45 1 17 42
M  V30 46 1 17 43
M  V30 47 1 17 44
M  V30 48 1 21 45
M  V30 49 1 22 46
M  V30 50 1 24 47
M  V30 51 1 29 48
M  V30 52 1 30 49
M  V30 53 1 30 50
M  V30 54 1 30 51
M  V30 55 1 32 52
M  V30 56 1 33 53
M  V30 57 1 34 54
M  V30 58 1 35 55
M  V30 59 1 36 56
M  V30 END BOND
M  V30 BEGIN COLLECTION
M  V30 MDLV30/STEABS ATOMS=(1 16)
M  V30 END COLLECTION
M  V30 END CTAB
M  END
>  <Structure No>
1710

>  <LogS>
-0.872552369

>  <MMFF94 Energy>
96.018

$$$$
Compound 1711
Actelion Java MolfileCreator 2.0

  0  0  0  0  0  0              0 V3000
M  V30 BEGIN CTAB
M  V30 COUNTS 8 7 0 0 0
M  V30 BEGIN ATOM
M  V30 1 O 1.5544 -1.0879 0.3107 0
M  V30 2 C 1.1734 -0.047 -0.2887 0
M  V30 3 O 2.0858 0.6787 -1.0428 0 CHG=-1
M  V30 4 C -0.2217 0.4118 -0.2029 0
M  V30 5 C -1.147 -0.2363 0.5021 0
M  V30 6 H -0.5044 1.3118 -0.7347 0
M  V30 7 H -2.1612 0.1399 0.5355 0
M  V30 8 H -0.9113 -1.14 1.0499 0
M  V30 END ATOM
M  V30 BEGIN BOND
M  V30 1 2 1 2
M  V30 2 1 2 3
M  V30 3 1 2 4
M  V30 4 2 4 5
M  V30 5 1 4 6
M  V30 6 1 5 7
M  V30 7 1 5 8
M  V30 END BOND
M  V30 END CTAB
M  END
>  <Structure No>
1711

>  <LogS>
0.00596733

>  <MMFF94 Energy>
3.3546

$$$$
Compound 1712
Actelion Java MolfileCreator 2.0

  0  0  0  0  0  0              0 V3000
M  V30 BEGIN CTAB
M  V30 COUNTS 8 7 0 0 0
M  V30 BEGIN ATOM
M  V30 1 N -0.7081 0.0 -0.0707 0 CHG=1
M  V30 2 C 0.7414 -0.0507 0.0726 0
M  V30 3 H -1.0604 -0.936 -0.3754 0
M  V30 4 H -1.1397 0.2538 0.8473 0
M  V30 5 H -0.9617 0.7187 -0.7864 0
M  V30 6 H 1.2097 -0.3199 -0.8986 0
M  V30 7 H 1.0213 -0.8124 0.832 0
M  V30 8 H 1.1258 0.9405 0.3967 0
M  V30 END ATOM
M  V30 BEGIN BOND
M  V30 1 1 1 2
M  V30 2 1 1 3
M  V30 3 1 1 4
M  V30 4 1 1 5
M  V30 5 1 2 6
M  V30 6 1 2 7
M  V30 7 1 2 8
M  V30 END BOND
M  V30 END CTAB
M  END
>  <Structure No>
1712

>  <LogS>
1.368643478

>  <MMFF94 Energy>
0.37104

$$$$
Compound 1713
Actelion Java MolfileCreator 2.0

  0  0  0  0  0  0              0 V3000
M  V30 BEGIN CTAB
M  V30 COUNTS 32 31 0 0 0
M  V30 BEGIN ATOM
M  V30 1 O 4.2376 1.7911 0.1627 0
M  V30 2 C 3.2483 1.5577 -0.5809 0
M  V30 3 O 2.5027 2.6173 -1.0827 0 CHG=-1
M  V30 4 C 2.8727 0.1396 -0.9203 0
M  V30 5 N 1.8103 -0.4147 -0.0456 0
M  V30 6 C 2.2472 -0.5635 1.3608 0
M  V30 7 C 0.5449 0.3451 -0.1517 0
M  V30 8 C 3.2177 -1.695 1.4931 0
M  V30 9 C -0.6571 -0.5952 0.0027 0
M  V30 10 O 4.4314 -1.4656 1.7364 0
M  V30 11 O 2.7851 -3.0035 1.3217 0 CHG=-1
M  V30 12 N -1.9191 0.155 -0.1961 0
M  V30 13 C -2.9654 -0.7122 -0.7802 0
M  V30 14 C -2.3859 0.7463 1.0772 0
M  V30 15 C -2.7342 -0.8857 -2.2492 0
M  V30 16 C -3.268 1.9244 0.805 0
M  V30 17 O -2.6015 -2.0376 -2.7393 0
M  V30 18 O -2.6757 0.2266 -3.0792 0 CHG=-1
M  V30 19 O -4.4664 1.9238 1.1907 0
M  V30 20 O -2.7641 3.0258 0.1253 0 CHG=-1
M  V30 21 H 2.5365 0.1013 -1.9791 0
M  V30 22 H 3.7781 -0.5031 -0.8732 0
M  V30 23 H 2.6888 0.3781 1.7525 0
M  V30 24 H 1.3832 -0.8022 2.0164 0
M  V30 25 H 0.452 0.8211 -1.1542 0
M  V30 26 H 0.5099 1.163 0.6017 0
M  V30 27 H -0.6463 -1.102 0.9933 0
M  V30 28 H -0.5413 -1.3949 -0.7633 0
M  V30 29 H -2.9948 -1.7011 -0.2674 0
M  V30 30 H -3.9714 -0.2517 -0.6671 0
M  V30 31 H -2.922 -0.0094 1.6963 0
M  V30 32 H -1.5329 1.1164 1.6855 0
M  V30 END ATOM
M  V30 BEGIN BOND
M  V30 1 2 1 2
M  V30 2 1 2 3
M  V30 3 1 2 4
M  V30 4 1 4 5
M  V30 5 1 5 6
M  V30 6 1 5 7
M  V30 7 1 6 8
M  V30 8 1 7 9
M  V30 9 2 8 10
M  V30 10 1 8 11
M  V30 11 1 9 12
M  V30 12 1 12 13
M  V30 13 1 12 14
M  V30 14 1 13 15
M  V30 15 1 14 16
M  V30 16 2 15 17
M  V30 17 1 15 18
M  V30 18 2 16 19
M  V30 19 1 16 20
M  V30 20 1 4 21
M  V30 21 1 4 22
M  V30 22 1 6 23
M  V30 23 1 6 24
M  V30 24 1 7 25
M  V30 25 1 7 26
M  V30 26 1 9 27
M  V30 27 1 9 28
M  V30 28 1 13 29
M  V30 29 1 13 30
M  V30 30 1 14 31
M  V30 31 1 14 32
M  V30 END BOND
M  V30 END CTAB
M  END
>  <Structure No>
1713

>  <LogS>
-0.707389182

>  <MMFF94 Energy>
601.48

$$$$
Compound 1714
Actelion Java MolfileCreator 2.0

  0  0  0  0  0  0              0 V3000
M  V30 BEGIN CTAB
M  V30 COUNTS 31 33 0 0 0
M  V30 BEGIN ATOM
M  V30 1 O 2.8329 2.4278 0.7278 0
M  V30 2 C 3.0939 1.2845 0.2652 0
M  V30 3 O 2.0623 0.3816 -0.0221 0
M  V30 4 C 4.4954 0.9115 0.0274 0
M  V30 5 C 0.6827 0.6657 0.2094 0 CFG=2
M  V30 6 C 4.839 -0.2792 -0.4574 0
M  V30 7 C 0.3918 0.5948 1.6752 0
M  V30 8 C -0.1856 -0.4606 -0.3881 0 CFG=1
M  V30 9 C -0.3831 -0.4314 1.9973 0
M  V30 10 C -0.8017 -1.2161 0.7984 0 CFG=1
M  V30 11 C -1.4371 -0.0493 -1.21 0 CFG=1
M  V30 12 C -2.3195 -1.2065 0.4729 0 CFG=2
M  V30 13 C -2.2932 -1.2889 -1.0403 0
M  V30 14 C -2.3025 1.0003 -0.4738 0
M  V30 15 C -2.9267 0.1954 0.674 0
M  V30 16 H 5.274 1.6293 0.2548 0
M  V30 17 H 0.4351 1.6609 -0.2143 0
M  V30 18 H 5.8829 -0.5149 -0.6177 0
M  V30 19 H 4.0957 -1.0286 -0.6987 0
M  V30 20 H 0.7984 1.2832 2.4086 0
M  V30 21 H 0.4397 -1.1519 -0.9992 0
M  V30 22 H -0.6855 -0.6598 3.0139 0
M  V30 23 H -0.4114 -2.2561 0.8611 0
M  V30 24 H -1.2148 0.2104 -2.2668 0
M  V30 25 H -2.8923 -2.0205 0.9662 0
M  V30 26 H -3.3029 -1.1919 -1.5042 0
M  V30 27 H -1.8054 -2.2176 -1.4188 0
M  V30 28 H -1.7359 1.874 -0.0976 0
M  V30 29 H -3.0987 1.3746 -1.1548 0
M  V30 30 H -4.0323 0.1499 0.5568 0
M  V30 31 H -2.7016 0.635 1.6683 0
M  V30 END ATOM
M  V30 BEGIN BOND
M  V30 1 2 1 2
M  V30 2 1 2 3
M  V30 3 1 2 4
M  V30 4 1 3 5
M  V30 5 2 4 6
M  V30 6 1 5 7
M  V30 7 1 5 8
M  V30 8 2 7 9
M  V30 9 1 8 10
M  V30 10 1 8 11
M  V30 11 1 10 12
M  V30 12 1 11 13
M  V30 13 1 11 14
M  V30 14 1 12 15
M  V30 15 1 9 10
M  V30 16 1 12 13
M  V30 17 1 14 15
M  V30 18 1 4 16
M  V30 19 1 5 17
M  V30 20 1 6 18
M  V30 21 1 6 19
M  V30 22 1 7 20
M  V30 23 1 8 21
M  V30 24 1 9 22
M  V30 25 1 10 23
M  V30 26 1 11 24
M  V30 27 1 12 25
M  V30 28 1 13 26
M  V30 29 1 13 27
M  V30 30 1 14 28
M  V30 31 1 14 29
M  V30 32 1 15 30
M  V30 33 1 15 31
M  V30 END BOND
M  V30 BEGIN COLLECTION
M  V30 MDLV30/STEABS ATOMS=(5 5 8 10 11 12)
M  V30 END COLLECTION
M  V30 END CTAB
M  END
>  <Structure No>
1714

>  <LogS>
-3.708142472

>  <MMFF94 Energy>
37.446

$$$$
Compound 1715
Actelion Java MolfileCreator 2.0

  0  0  0  0  0  0              0 V3000
M  V30 BEGIN CTAB
M  V30 COUNTS 12 11 0 0 0
M  V30 BEGIN ATOM
M  V30 1 S 1.5971 -0.252 0.0 0
M  V30 2 O 1.7177 0.9393 0.9077 0
M  V30 3 O 1.9134 0.1597 -1.4101 0
M  V30 4 O 2.6874 -1.4317 0.4898 0 CHG=-1
M  V30 5 C -0.0582 -0.9165 0.0783 0
M  V30 6 C -1.0557 0.049 -0.4945 0
M  V30 7 C -1.4241 1.1531 0.1616 0
M  V30 8 H -0.0853 -1.857 -0.5106 0
M  V30 9 H -0.3165 -1.1582 1.1313 0
M  V30 10 H -1.5152 -0.175 -1.4525 0
M  V30 11 H -2.1592 1.8227 -0.2727 0
M  V30 12 H -1.0036 1.3934 1.1331 0
M  V30 END ATOM
M  V30 BEGIN BOND
M  V30 1 2 1 2
M  V30 2 2 1 3
M  V30 3 1 1 4
M  V30 4 1 1 5
M  V30 5 1 5 6
M  V30 6 2 6 7
M  V30 7 1 5 8
M  V30 8 1 5 9
M  V30 9 1 6 10
M  V30 10 1 7 11
M  V30 11 1 7 12
M  V30 END BOND
M  V30 END CTAB
M  END
>  <Structure No>
1715

>  <LogS>
0.694952865

>  <MMFF94 Energy>
63.434

$$$$
Compound 1716
Actelion Java MolfileCreator 2.0

  0  0  0  0  0  0              0 V3000
M  V30 BEGIN CTAB
M  V30 COUNTS 96 102 0 0 0
M  V30 BEGIN ATOM
M  V30 1 S 9.0237 -1.8505 2.4398 0
M  V30 2 O 10.25 -2.044 3.2886 0
M  V30 3 O 8.2523 -3.1378 2.3617 0
M  V30 4 O 8.049 -0.6897 3.1658 0 CHG=-1
M  V30 5 C 9.4963 -1.3387 0.8082 0
M  V30 6 C 10.3122 -2.1368 -0.0385 0
M  V30 7 C 9.0271 -0.1023 0.3487 0
M  V30 8 C 10.6478 -1.6661 -1.3433 0
M  V30 9 C 10.8033 -3.3902 0.3809 0
M  V30 10 C 9.3096 0.3379 -0.9472 0
M  V30 11 C 11.4698 -2.4614 -2.1883 0
M  V30 12 C 10.1407 -0.4221 -1.7678 0
M  V30 13 C 11.6058 -4.1572 -0.4575 0
M  V30 14 N 8.8095 1.5956 -1.4339 0
M  V30 15 S 11.925 -1.9585 -3.8251 0
M  V30 16 C 11.9393 -3.6974 -1.7267 0
M  V30 17 N 7.6133 2.0296 -1.2935 0
M  V30 18 O 12.6984 -0.6718 -3.7597 0
M  V30 19 O 10.6889 -1.7704 -4.6579 0
M  V30 20 O 12.8891 -3.1271 -4.5529 0 CHG=-1
M  V30 21 C 6.5033 1.2851 -0.7578 0
M  V30 22 C 5.5956 1.916 0.1176 0
M  V30 23 C 6.267 -0.042 -1.1567 0
M  V30 24 C 4.4883 1.1996 0.6051 0
M  V30 25 C 5.8033 3.3475 0.528 0
M  V30 26 C 5.1774 -0.7528 -0.6517 0
M  V30 27 C 4.2697 -0.1318 0.2139 0
M  V30 28 N 3.1393 -0.8694 0.7018 0
M  V30 29 C 1.8127 -0.3259 0.7497 0
M  V30 30 N 0.8054 -1.0538 1.2947 0
M  V30 31 N 1.5399 0.8825 0.1932 0
M  V30 32 C -0.4677 -0.582 1.2856 0
M  V30 33 C 0.2732 1.3673 0.1858 0
M  V30 34 N -0.7289 0.6259 0.7193 0
M  V30 35 N -1.5206 -1.3889 1.8358 0
M  V30 36 N -0.0088 2.6508 -0.3833 0
M  V30 37 C -2.9229 -1.1593 1.6087 0
M  V30 38 C 1.0608 3.5002 -0.9085 0
M  V30 39 C -3.7549 -2.2511 1.3244 0
M  V30 40 C -3.4864 0.1246 1.7011 0
M  V30 41 C 0.5064 4.8408 -1.3971 0
M  V30 42 C -5.1237 -2.0653 1.0735 0
M  V30 43 C -4.8475 0.3204 1.4544 0
M  V30 44 O 1.546 5.6583 -1.8612 0
M  V30 45 C -5.6733 -0.7671 1.1261 0
M  V30 46 C -5.994 -3.2482 0.7526 0
M  V30 47 N -7.0675 -0.5842 0.8459 0
M  V30 48 N -7.6151 0.5638 0.7933 0
M  V30 49 C -9.0087 0.722 0.4975 0
M  V30 50 C -9.546 2.0069 0.4595 0
M  V30 51 C -9.832 -0.3822 0.2408 0
M  V30 52 C -10.9016 2.2168 0.1755 0
M  V30 53 C -11.2019 -0.2178 -0.0443 0
M  V30 54 S -11.4941 3.8874 0.1415 0
M  V30 55 C -11.747 1.1005 -0.0707 0
M  V30 56 C -12.0452 -1.3352 -0.3015 0
M  V30 57 O -12.5313 4.079 1.212 0
M  V30 58 O -12.0932 4.1851 -1.2036 0
M  V30 59 O -10.237 4.9652 0.4154 0 CHG=-1
M  V30 60 C -13.1214 1.2607 -0.3404 0
M  V30 61 S -11.4462 -3.0063 -0.2894 0
M  V30 62 C -13.4031 -1.1253 -0.5725 0
M  V30 63 C -13.9335 0.1584 -0.5868 0
M  V30 64 O -10.4002 -3.1724 -1.3558 0
M  V30 65 O -12.5674 -3.97 -0.5573 0
M  V30 66 O -10.7843 -3.3606 1.215 0 CHG=-1
M  V30 67 H 8.4337 0.5248 0.9998 0
M  V30 68 H 10.5823 -3.7935 1.3579 0
M  V30 69 H 10.3655 -0.0276 -2.7469 0
M  V30 70 H 11.9725 -5.1179 -0.119 0
M  V30 71 H 12.5688 -4.3159 -2.3511 0
M  V30 72 H 6.9199 -0.525 -1.8715 0
M  V30 73 H 3.8022 1.6719 1.2997 0
M  V30 74 H 5.0894 3.651 1.3236 0
M  V30 75 H 6.8355 3.4828 0.9163 0
M  V30 76 H 5.6546 4.0112 -0.3494 0
M  V30 77 H 5.0231 -1.7804 -0.957 0
M  V30 78 H 3.2572 -1.8919 0.8871 0
M  V30 79 H -1.2446 -2.3173 2.2288 0
M  V30 80 H -0.9987 2.9915 -0.3793 0
M  V30 81 H 1.8081 3.6869 -0.1066 0
M  V30 82 H 1.5608 2.9782 -1.756 0
M  V30 83 H -3.3259 -3.2455 1.2817 0
M  V30 84 H -2.8829 0.975 1.9768 0
M  V30 85 H 0.0057 5.3616 -0.5519 0
M  V30 86 H -0.2452 4.6756 -2.2032 0
M  V30 87 H -5.2534 1.3197 1.5182 0
M  V30 88 H 1.8135 5.2983 -2.7485 0
M  V30 89 H -6.7732 -3.3636 1.5347 0
M  V30 90 H -5.4048 -4.1884 0.6983 0
M  V30 91 H -6.488 -3.0929 -0.2281 0
M  V30 92 H -8.8929 2.8484 0.6539 0
M  V30 93 H -9.3885 -1.3654 0.268 0
M  V30 94 H -13.5938 2.2308 -0.3619 0
M  V30 95 H -14.0631 -1.958 -0.7741 0
M  V30 96 H -14.9867 0.3023 -0.7899 0
M  V30 END ATOM
M  V30 BEGIN BOND
M  V30 1 2 1 2
M  V30 2 2 1 3
M  V30 3 1 1 4
M  V30 4 1 1 5
M  V30 5 1 5 6
M  V30 6 2 5 7
M  V30 7 1 6 8
M  V30 8 2 6 9
M  V30 9 1 7 10
M  V30 10 2 8 11
M  V30 11 1 8 12
M  V30 12 1 9 13
M  V30 13 1 10 14
M  V30 14 1 11 15
M  V30 15 1 11 16
M  V30 16 2 14 17
M  V30 17 2 15 18
M  V30 18 2 15 19
M  V30 19 1 15 20
M  V30 20 1 17 21
M  V30 21 2 21 22
M  V30 22 1 21 23
M  V30 23 1 22 24
M  V30 24 1 22 25
M  V30 25 2 23 26
M  V30 26 2 24 27
M  V30 27 1 27 28
M  V30 28 1 28 29
M  V30 29 2 29 30
M  V30 30 1 29 31
M  V30 31 1 30 32
M  V30 32 2 31 33
M  V30 33 2 32 34
M  V30 34 1 32 35
M  V30 35 1 33 36
M  V30 36 1 35 37
M  V30 37 1 36 38
M  V30 38 2 37 39
M  V30 39 1 37 40
M  V30 40 1 38 41
M  V30 41 1 39 42
M  V30 42 2 40 43
M  V30 43 1 41 44
M  V30 44 2 42 45
M  V30 45 1 42 46
M  V30 46 1 45 47
M  V30 47 2 47 48
M  V30 48 1 48 49
M  V30 49 1 49 50
M  V30 50 2 49 51
M  V30 51 2 50 52
M  V30 52 1 51 53
M  V30 53 1 52 54
M  V30 54 1 52 55
M  V30 55 2 53 56
M  V30 56 2 54 57
M  V30 57 2 54 58
M  V30 58 1 54 59
M  V30 59 2 55 60
M  V30 60 1 56 61
M  V30 61 1 56 62
M  V30 62 1 60 63
M  V30 63 2 61 64
M  V30 64 2 61 65
M  V30 65 1 61 66
M  V30 66 2 10 12
M  V30 67 2 13 16
M  V30 68 1 26 27
M  V30 69 1 33 34
M  V30 70 1 43 45
M  V30 71 1 53 55
M  V30 72 2 62 63
M  V30 73 1 7 67
M  V30 74 1 9 68
M  V30 75 1 12 69
M  V30 76 1 13 70
M  V30 77 1 16 71
M  V30 78 1 23 72
M  V30 79 1 24 73
M  V30 80 1 25 74
M  V30 81 1 25 75
M  V30 82 1 25 76
M  V30 83 1 26 77
M  V30 84 1 28 78
M  V30 85 1 35 79
M  V30 86 1 36 80
M  V30 87 1 38 81
M  V30 88 1 38 82
M  V30 89 1 39 83
M  V30 90 1 40 84
M  V30 91 1 41 85
M  V30 92 1 41 86
M  V30 93 1 43 87
M  V30 94 1 44 88
M  V30 95 1 46 89
M  V30 96 1 46 90
M  V30 97 1 46 91
M  V30 98 1 50 92
M  V30 99 1 51 93
M  V30 100 1 60 94
M  V30 101 1 62 95
M  V30 102 1 63 96
M  V30 END BOND
M  V30 END CTAB
M  END
>  <Structure No>
1716

>  <LogS>
-1.174873472

>  <MMFF94 Energy>
84.872

$$$$
Compound 1717
Actelion Java MolfileCreator 2.0

  0  0  0  0  0  0              0 V3000
M  V30 BEGIN CTAB
M  V30 COUNTS 53 55 0 0 0
M  V30 BEGIN ATOM
M  V30 1 S -5.8398 0.8905 0.8095 0
M  V30 2 O -6.3889 0.9567 -0.5879 0
M  V30 3 O -6.849 0.2121 1.6929 0
M  V30 4 C -4.334 -0.0195 0.8152 0
M  V30 5 C -5.5359 2.5368 1.4083 0
M  V30 6 C -3.4899 0.009 -0.3131 0
M  V30 7 C -3.9554 -0.7579 1.9615 0
M  V30 8 C -2.2975 -0.7128 -0.2595 0
M  V30 9 C -2.7465 -1.475 1.9805 0
M  V30 10 N -1.2965 -0.8351 -1.2617 0
M  V30 11 C -1.94 -1.4278 0.8437 0
M  V30 12 C -0.2334 -1.6985 -0.7255 0 CFG=2
M  V30 13 C -1.3635 -0.2928 -2.6137 0
M  V30 14 N -0.6849 -2.0592 0.627 0
M  V30 15 C 1.0664 -0.9535 -0.6636 0
M  V30 16 C -0.019 -2.9832 1.5377 0
M  V30 17 O 2.1673 -1.352 -1.2747 0
M  V30 18 C 1.2872 0.2338 0.031 0
M  V30 19 C 3.1014 -0.4725 -1.0083 0
M  V30 20 C 2.6099 0.5226 -0.2084 0
M  V30 21 C 4.4251 -0.4795 -1.4387 0
M  V30 22 C 3.4029 1.5822 0.2195 0
M  V30 23 C 5.2664 0.5748 -1.0296 0
M  V30 24 C 4.7464 1.6065 -0.1972 0
M  V30 25 O 6.5994 0.5648 -1.4651 0
M  V30 26 C 7.5602 1.5612 -1.1318 0
M  V30 27 O 1.5417 -1.0214 -0.0469 0
M  V30 28 C 0.8501 0.0276 -0.1242 0
M  V30 29 O 1.4632 1.2363 -0.4284 0 CHG=-1
M  V30 30 C -0.6289 -0.0363 0.0527 0
M  V30 31 H -4.7956 3.0391 0.752 0
M  V30 32 H -6.4832 3.1144 1.4058 0
M  V30 33 H -5.1368 2.4874 2.4425 0
M  V30 34 H -3.7527 0.5773 -1.1957 0
M  V30 35 H -4.5929 -0.7736 2.8363 0
M  V30 36 H -2.4519 -2.0414 2.854 0
M  V30 37 H -0.1364 -2.6131 -1.3497 0
M  V30 38 H -1.4002 0.8154 -2.568 0
M  V30 39 H -0.4695 -0.6002 -3.1957 0
M  V30 40 H -2.2733 -0.6722 -3.1239 0
M  V30 41 H 0.2349 -2.4565 2.481 0
M  V30 42 H -0.6914 -3.8377 1.7607 0
M  V30 43 H 0.9145 -3.3699 1.0779 0
M  V30 44 H 0.5793 0.7992 0.6233 0
M  V30 45 H 4.7958 -1.2755 -2.0714 0
M  V30 46 H 3.0009 2.3631 0.8523 0
M  V30 47 H 5.3722 2.4255 0.1294 0
M  V30 48 H 7.2294 2.552 -1.5089 0
M  V30 49 H 8.5283 1.3049 -1.6086 0
M  V30 50 H 7.7048 1.5994 -0.0314 0
M  V30 51 H -1.1037 -0.332 -0.9058 0
M  V30 52 H -0.8875 -0.7806 0.8351 0
M  V30 53 H -1.0174 0.957 0.3607 0
M  V30 END ATOM
M  V30 BEGIN BOND
M  V30 1 2 1 2
M  V30 2 2 1 3
M  V30 3 1 1 4
M  V30 4 1 1 5
M  V30 5 2 4 6
M  V30 6 1 4 7
M  V30 7 1 6 8
M  V30 8 2 7 9
M  V30 9 1 8 10
M  V30 10 2 8 11
M  V30 11 1 10 12
M  V30 12 1 10 13
M  V30 13 1 11 14
M  V30 14 1 12 15
M  V30 15 1 14 16
M  V30 16 1 15 17
M  V30 17 2 15 18
M  V30 18 1 17 19
M  V30 19 1 18 20
M  V30 20 1 19 21
M  V30 21 1 20 22
M  V30 22 2 21 23
M  V30 23 2 22 24
M  V30 24 1 23 25
M  V30 25 1 25 26
M  V30 26 2 27 28
M  V30 27 1 28 29
M  V30 28 1 28 30
M  V30 29 1 9 11
M  V30 30 1 12 14
M  V30 31 2 19 20
M  V30 32 1 23 24
M  V30 33 1 5 31
M  V30 34 1 5 32
M  V30 35 1 5 33
M  V30 36 1 6 34
M  V30 37 1 7 35
M  V30 38 1 9 36
M  V30 39 1 12 37
M  V30 40 1 13 38
M  V30 41 1 13 39
M  V30 42 1 13 40
M  V30 43 1 16 41
M  V30 44 1 16 42
M  V30 45 1 16 43
M  V30 46 1 18 44
M  V30 47 1 21 45
M  V30 48 1 22 46
M  V30 49 1 24 47
M  V30 50 1 26 48
M  V30 51 1 26 49
M  V30 52 1 26 50
M  V30 53 1 30 51
M  V30 54 1 30 52
M  V30 55 1 30 53
M  V30 END BOND
M  V30 BEGIN COLLECTION
M  V30 MDLV30/STEABS ATOMS=(1 12)
M  V30 END COLLECTION
M  V30 END CTAB
M  END
>  <Structure No>
1717

>  <LogS>
0.212574469

>  <MMFF94 Energy>
61.879

$$$$
Compound 1718
Actelion Java MolfileCreator 2.0

  0  0  0  0  0  0              0 V3000
M  V30 BEGIN CTAB
M  V30 COUNTS 33 33 0 0 0
M  V30 BEGIN ATOM
M  V30 1 S -4.1377 1.2967 0.081 0
M  V30 2 O -5.3014 1.9976 -0.5604 0
M  V30 3 O -3.3274 2.2993 0.853 0
M  V30 4 O -4.7161 0.1189 1.1304 0 CHG=-1
M  V30 5 C -3.13 0.5486 -1.1949 0
M  V30 6 C -2.2374 -0.5922 -0.6649 0
M  V30 7 N -1.2046 -0.153 0.3089 0 CHG=1
M  V30 8 C -0.4856 -1.3323 0.8699 0
M  V30 9 C -0.2806 0.8471 -0.293 0
M  V30 10 C 0.8567 -1.578 0.1681 0
M  V30 11 C 1.0806 0.8761 0.4206 0
M  V30 12 N 1.7776 -0.4356 0.3653 0
M  V30 13 C 2.862 -0.456 -0.6396 0
M  V30 14 C 4.1362 0.1741 -0.0753 0
M  V30 15 O 4.5527 -0.5322 1.0601 0
M  V30 16 H -3.8144 0.1228 -1.9591 0
M  V30 17 H -2.5286 1.3309 -1.7012 0
M  V30 18 H -1.751 -1.09 -1.5338 0
M  V30 19 H -2.9072 -1.3485 -0.1974 0
M  V30 20 H -1.6938 0.3047 1.1131 0
M  V30 21 H -0.2811 -1.1667 1.9526 0
M  V30 22 H -1.0966 -2.2615 0.8167 0
M  V30 23 H -0.7282 1.8636 -0.2282 0
M  V30 24 H -0.0983 0.63 -1.3702 0
M  V30 25 H 0.665 -1.7589 -0.9144 0
M  V30 26 H 1.3216 -2.4938 0.5926 0
M  V30 27 H 0.9166 1.142 1.487 0
M  V30 28 H 1.6937 1.6954 -0.0143 0
M  V30 29 H 3.1154 -1.5022 -0.9273 0
M  V30 30 H 2.5542 0.0738 -1.5692 0
M  V30 31 H 4.9312 0.133 -0.8528 0
M  V30 32 H 3.9589 1.24 0.1861 0
M  V30 33 H 5.3796 -0.0831 1.3755 0
M  V30 END ATOM
M  V30 BEGIN BOND
M  V30 1 2 1 2
M  V30 2 2 1 3
M  V30 3 1 1 4
M  V30 4 1 1 5
M  V30 5 1 5 6
M  V30 6 1 6 7
M  V30 7 1 7 8
M  V30 8 1 7 9
M  V30 9 1 8 10
M  V30 10 1 9 11
M  V30 11 1 10 12
M  V30 12 1 12 13
M  V30 13 1 13 14
M  V30 14 1 14 15
M  V30 15 1 11 12
M  V30 16 1 5 16
M  V30 17 1 5 17
M  V30 18 1 6 18
M  V30 19 1 6 19
M  V30 20 1 7 20
M  V30 21 1 8 21
M  V30 22 1 8 22
M  V30 23 1 9 23
M  V30 24 1 9 24
M  V30 25 1 10 25
M  V30 26 1 10 26
M  V30 27 1 11 27
M  V30 28 1 11 28
M  V30 29 1 13 29
M  V30 30 1 13 30
M  V30 31 1 14 31
M  V30 32 1 14 32
M  V30 33 1 15 33
M  V30 END BOND
M  V30 END CTAB
M  END
>  <Structure No>
1718

>  <LogS>
0.431866679

>  <MMFF94 Energy>
19.553

$$$$
Compound 1719
Actelion Java MolfileCreator 2.0

  0  0  0  0  0  0              0 V3000
M  V30 BEGIN CTAB
M  V30 COUNTS 19 19 0 0 0
M  V30 BEGIN ATOM
M  V30 1 O 2.1045 1.9485 -1.0908 0
M  V30 2 C 1.5864 1.0391 -0.3891 0
M  V30 3 N 2.394 0.3365 0.558 0
M  V30 4 C 0.1247 0.6998 -0.5684 0 CFG=1
M  V30 5 N -0.0588 -0.6723 -1.0641 0 CHG=1
M  V30 6 C -0.6719 0.837 0.7357 0
M  V30 7 C -1.2924 -1.1602 -0.4529 0
M  V30 8 C -1.4151 -0.4761 0.8952 0
M  V30 9 H 3.4038 0.5778 0.6692 0
M  V30 10 H 1.9895 -0.4218 1.1506 0
M  V30 11 H -0.3119 1.4091 -1.311 0
M  V30 12 H -0.1423 -0.6814 -2.108 0
M  V30 13 H 0.7301 -1.2985 -0.7762 0
M  V30 14 H -0.0275 1.0245 1.623 0
M  V30 15 H -1.3982 1.6758 0.6513 0
M  V30 16 H -1.2713 -2.2669 -0.3374 0
M  V30 17 H -2.1648 -0.8849 -1.0889 0
M  V30 18 H -2.4797 -0.3154 1.1729 0
M  V30 19 H -0.919 -1.097 1.6737 0
M  V30 END ATOM
M  V30 BEGIN BOND
M  V30 1 2 1 2
M  V30 2 1 2 3
M  V30 3 1 2 4
M  V30 4 1 4 5
M  V30 5 1 4 6
M  V30 6 1 5 7
M  V30 7 1 6 8
M  V30 8 1 7 8
M  V30 9 1 3 9
M  V30 10 1 3 10
M  V30 11 1 4 11
M  V30 12 1 5 12
M  V30 13 1 5 13
M  V30 14 1 6 14
M  V30 15 1 6 15
M  V30 16 1 7 16
M  V30 17 1 7 17
M  V30 18 1 8 18
M  V30 19 1 8 19
M  V30 END BOND
M  V30 BEGIN COLLECTION
M  V30 MDLV30/STEABS ATOMS=(1 4)
M  V30 END COLLECTION
M  V30 END CTAB
M  END
>  <Structure No>
1719

>  <LogS>
0.785359758

>  <MMFF94 Energy>
15.28

$$$$
Compound 1720
Actelion Java MolfileCreator 2.0

  0  0  0  0  0  0              0 V3000
M  V30 BEGIN CTAB
M  V30 COUNTS 8 8 0 0 0
M  V30 BEGIN ATOM
M  V30 1 N 0.5422 1.0846 0.0 0
M  V30 2 N -0.7103 0.687 -0.1185 0
M  V30 3 C 1.2884 -0.0353 -0.0473 0
M  V30 4 C -0.712 -0.6492 -0.2348 0
M  V30 5 N 0.5383 -1.1485 -0.1944 0
M  V30 6 H -1.5411 1.3192 -0.1192 0
M  V30 7 H 2.3677 -0.0423 0.0245 0
M  V30 8 H -1.6041 -1.2509 -0.3469 0
M  V30 END ATOM
M  V30 BEGIN BOND
M  V30 1 1 1 2
M  V30 2 2 1 3
M  V30 3 1 2 4
M  V30 4 1 3 5
M  V30 5 2 4 5
M  V30 6 1 2 6
M  V30 7 1 3 7
M  V30 8 1 4 8
M  V30 END BOND
M  V30 END CTAB
M  END
>  <Structure No>
1720

>  <LogS>
1.005827448

>  <MMFF94 Energy>
5.9172

$$$$
Compound 1721
Actelion Java MolfileCreator 2.0

  0  0  0  0  0  0              0 V3000
M  V30 BEGIN CTAB
M  V30 COUNTS 4 3 0 0 0
M  V30 BEGIN ATOM
M  V30 1 O -0.8545 -0.9322 0.0 0
M  V30 2 C -0.0467 0.0317 0.0279 0
M  V30 3 O 1.3194 -0.2087 0.0754 0 CHG=-1
M  V30 4 H -0.4167 1.0479 0.0147 0
M  V30 END ATOM
M  V30 BEGIN BOND
M  V30 1 2 1 2
M  V30 2 1 2 3
M  V30 3 1 2 4
M  V30 END BOND
M  V30 END CTAB
M  END
>  <Structure No>
1721

>  <LogS>
1.012544423

>  <MMFF94 Energy>
0.012811

$$$$
Compound 1722
Actelion Java MolfileCreator 2.0

  0  0  0  0  0  0              0 V3000
M  V30 BEGIN CTAB
M  V30 COUNTS 14 14 0 0 0
M  V30 BEGIN ATOM
M  V30 1 O 2.8228 0.2349 0.0783 0
M  V30 2 C 1.4325 0.1753 0.0139 0
M  V30 3 C 0.739 -0.9273 0.5336 0
M  V30 4 C 0.7218 1.2271 -0.5754 0
M  V30 5 C -0.657 -0.9751 0.4626 0
M  V30 6 C -0.6743 1.1794 -0.6464 0
M  V30 7 C -1.3677 0.0796 -0.1282 0
M  V30 8 O -2.7582 0.0443 -0.2052 0
M  V30 9 H 3.3657 -0.5101 0.4987 0
M  V30 10 H 1.28 -1.7457 0.9915 0
M  V30 11 H 1.2515 2.081 -0.9782 0
M  V30 12 H -1.1846 -1.83 0.8663 0
M  V30 13 H -1.2175 1.9967 -1.1037 0
M  V30 14 H -3.2889 -0.7376 0.1606 0
M  V30 END ATOM
M  V30 BEGIN BOND
M  V30 1 1 1 2
M  V30 2 2 2 3
M  V30 3 1 2 4
M  V30 4 1 3 5
M  V30 5 2 4 6
M  V30 6 2 5 7
M  V30 7 1 7 8
M  V30 8 1 6 7
M  V30 9 1 1 9
M  V30 10 1 3 10
M  V30 11 1 4 11
M  V30 12 1 5 12
M  V30 13 1 6 13
M  V30 14 1 8 14
M  V30 END BOND
M  V30 END CTAB
M  END
>  <Structure No>
1722

>  <LogS>
-0.196736611

>  <MMFF94 Energy>
-5.7893

$$$$
Compound 1723
Actelion Java MolfileCreator 2.0

  0  0  0  0  0  0              0 V3000
M  V30 BEGIN CTAB
M  V30 COUNTS 15 14 0 0 0
M  V30 BEGIN ATOM
M  V30 1 O -2.465 0.7946 0.8741 0
M  V30 2 C -1.5284 -0.0276 0.6944 0
M  V30 3 O -1.3101 -1.0289 1.6338 0 CHG=-1
M  V30 4 C -0.6221 0.1142 -0.5022 0 CFG=2
M  V30 5 N -0.1914 -1.1992 -1.0002 0 CHG=1
M  V30 6 C 0.5807 1.0312 -0.1921 0
M  V30 7 C 1.4732 0.4915 0.8866 0
M  V30 8 O 2.4562 -0.2376 0.5909 0
M  V30 9 O 1.2041 0.7749 2.2198 0 CHG=-1
M  V30 10 H -1.208 0.6095 -1.3101 0
M  V30 11 H 0.3421 -1.7249 -0.2708 0
M  V30 12 H 0.4133 -1.0767 -1.8447 0
M  V30 13 H -1.0294 -1.761 -1.2772 0
M  V30 14 H 1.1766 1.1808 -1.1186 0
M  V30 15 H 0.2092 2.0323 0.1175 0
M  V30 END ATOM
M  V30 BEGIN BOND
M  V30 1 2 1 2
M  V30 2 1 2 3
M  V30 3 1 2 4
M  V30 4 1 4 5
M  V30 5 1 4 6
M  V30 6 1 6 7
M  V30 7 2 7 8
M  V30 8 1 7 9
M  V30 9 1 4 10
M  V30 10 1 5 11
M  V30 11 1 5 12
M  V30 12 1 5 13
M  V30 13 1 6 14
M  V30 14 1 6 15
M  V30 END BOND
M  V30 BEGIN COLLECTION
M  V30 MDLV30/STEABS ATOMS=(1 4)
M  V30 END COLLECTION
M  V30 END CTAB
M  END
>  <Structure No>
1723

>  <LogS>
-1.229318187

>  <MMFF94 Energy>
-55.74

$$$$
Compound 1724
Actelion Java MolfileCreator 2.0

  0  0  0  0  0  0              0 V3000
M  V30 BEGIN CTAB
M  V30 COUNTS 31 32 0 0 0
M  V30 BEGIN ATOM
M  V30 1 S -2.319 -2.5677 0.1655 0
M  V30 2 O -1.0985 -3.0139 0.9207 0
M  V30 3 O -2.3458 -3.2237 -1.1857 0
M  V30 4 O -3.6815 -3.0376 1.0301 0 CHG=-1
M  V30 5 C -2.2919 -0.8114 -0.029 0
M  V30 6 C -1.1252 -0.141 -0.4549 0
M  V30 7 C -3.4474 -0.0723 0.2689 0
M  V30 8 N 0.0567 -0.8774 -0.8146 0
M  V30 9 C -1.1444 1.2566 -0.5849 0
M  V30 10 C -3.4602 1.3276 0.1497 0
M  V30 11 C 1.391 -0.4804 -0.4516 0
M  V30 12 C -2.2956 1.984 -0.2803 0
M  V30 13 N -4.6511 2.0748 0.461 0 CHG=1
M  V30 14 C 1.6365 0.311 0.6855 0
M  V30 15 C 2.4773 -0.9336 -1.215 0
M  V30 16 O -4.6681 3.3191 0.3564 0
M  V30 17 O -5.7924 1.4303 0.881 0 CHG=-1
M  V30 18 C 2.944 0.6659 1.0306 0
M  V30 19 C 3.7844 -0.578 -0.8692 0
M  V30 20 C 4.0238 0.226 0.2532 0
M  V30 21 N 5.3609 0.5891 0.6071 0
M  V30 22 H -4.3398 -0.5894 0.5947 0
M  V30 23 H -0.0584 -1.7347 -1.4006 0
M  V30 24 H -0.2672 1.784 -0.938 0
M  V30 25 H -2.2767 3.0608 -0.3895 0
M  V30 26 H 0.8213 0.6419 1.3158 0
M  V30 27 H 2.3093 -1.5571 -2.0842 0
M  V30 28 H 3.1158 1.278 1.9072 0
M  V30 29 H 4.61 -0.9302 -1.4748 0
M  V30 30 H 5.5493 1.1861 1.4433 0
M  V30 31 H 6.1721 0.264 0.0353 0
M  V30 END ATOM
M  V30 BEGIN BOND
M  V30 1 2 1 2
M  V30 2 2 1 3
M  V30 3 1 1 4
M  V30 4 1 1 5
M  V30 5 2 5 6
M  V30 6 1 5 7
M  V30 7 1 6 8
M  V30 8 1 6 9
M  V30 9 2 7 10
M  V30 10 1 8 11
M  V30 11 2 9 12
M  V30 12 1 10 13
M  V30 13 2 11 14
M  V30 14 1 11 15
M  V30 15 2 13 16
M  V30 16 1 13 17
M  V30 17 1 14 18
M  V30 18 2 15 19
M  V30 19 2 18 20
M  V30 20 1 20 21
M  V30 21 1 10 12
M  V30 22 1 19 20
M  V30 23 1 7 22
M  V30 24 1 8 23
M  V30 25 1 9 24
M  V30 26 1 12 25
M  V30 27 1 14 26
M  V30 28 1 15 27
M  V30 29 1 18 28
M  V30 30 1 19 29
M  V30 31 1 21 30
M  V30 32 1 21 31
M  V30 END BOND
M  V30 END CTAB
M  END
>  <Structure No>
1724

>  <LogS>
-1.59828953

>  <MMFF94 Energy>
67.603

$$$$
Compound 1725
Actelion Java MolfileCreator 2.0

  0  0  0  0  0  0              0 V3000
M  V30 BEGIN CTAB
M  V30 COUNTS 57 61 0 0 0
M  V30 BEGIN ATOM
M  V30 1 N 2.7912 -0.8765 0.0 0 CHG=1
M  V30 2 C 4.0494 -0.2974 0.3193 0
M  V30 3 C 1.8993 0.0802 0.0107 0
M  V30 4 C 2.5643 -2.2936 -0.2977 0
M  V30 5 C 3.9319 1.0585 0.4917 0
M  V30 6 C 5.2791 -0.9468 0.4707 0
M  V30 7 C 0.4596 -0.1135 -0.2635 0
M  V30 8 C 2.4983 1.4489 0.2971 0
M  V30 9 C 5.0376 1.8492 0.8158 0
M  V30 10 C 6.405 -0.1716 0.7949 0
M  V30 11 C -0.2669 -1.0311 0.3817 0
M  V30 12 C 1.9146 2.0515 1.5833 0
M  V30 13 C 2.3396 2.3985 -0.8998 0
M  V30 14 C 6.2852 1.2219 0.9652 0
M  V30 15 C -1.706 -1.244 0.1202 0
M  V30 16 C -2.6889 -0.3188 -0.2634 0
M  V30 17 C -2.3555 -2.462 0.1864 0
M  V30 18 N -3.8875 -0.944 -0.4209 0
M  V30 19 C -2.4947 1.1391 -0.4051 0
M  V30 20 C -3.6674 -2.2502 -0.1606 0
M  V30 21 C -1.872 -3.7359 0.4921 0
M  V30 22 C -5.1599 -0.3367 -0.8166 0
M  V30 23 C -1.9877 1.8928 0.6654 0
M  V30 24 C -2.7954 1.7783 -1.6183 0
M  V30 25 C -4.5829 -3.3069 -0.2203 0
M  V30 26 C -2.7745 -4.8123 0.4451 0
M  V30 27 C -1.7812 3.2683 0.5214 0
M  V30 28 C -2.5865 3.1538 -1.7588 0
M  V30 29 C -4.1232 -4.5988 0.0902 0
M  V30 30 C -2.0787 3.8981 -0.6901 0
M  V30 31 H 1.7039 -2.423 -0.9871 0
M  V30 32 H 3.4511 -2.7271 -0.8039 0
M  V30 33 H 2.3767 -2.8483 0.645 0
M  V30 34 H 5.3716 -2.0172 0.3501 0
M  V30 35 H -0.0062 0.5519 -0.9748 0
M  V30 36 H 4.9365 2.918 0.9524 0
M  V30 37 H 7.3691 -0.6478 0.9172 0
M  V30 38 H 0.2178 -1.6895 1.0909 0
M  V30 39 H 0.8319 2.2571 1.4566 0
M  V30 40 H 2.4255 3.0065 1.8308 0
M  V30 41 H 2.0409 1.3508 2.4373 0
M  V30 42 H 2.7376 1.9305 -1.8261 0
M  V30 43 H 2.8915 3.3454 -0.7172 0
M  V30 44 H 1.2686 2.6469 -1.0603 0
M  V30 45 H 7.1573 1.8113 1.2165 0
M  V30 46 H -0.8342 -3.8982 0.7521 0
M  V30 47 H -6.0044 -0.8316 -0.2937 0
M  V30 48 H -5.1866 0.7375 -0.5391 0
M  V30 49 H -5.2952 -0.4376 -1.9135 0
M  V30 50 H -1.7506 1.415 1.6082 0
M  V30 51 H -3.1771 1.21 -2.4575 0
M  V30 52 H -5.6149 -3.1489 -0.5026 0
M  V30 53 H -2.4313 -5.8119 0.6775 0
M  V30 54 H -1.3873 3.8453 1.3481 0
M  V30 55 H -2.8148 3.6421 -2.6972 0
M  V30 56 H -4.808 -5.436 0.0525 0
M  V30 57 H -1.9153 4.9622 -0.801 0
M  V30 END ATOM
M  V30 BEGIN BOND
M  V30 1 1 1 2
M  V30 2 2 1 3
M  V30 3 1 1 4
M  V30 4 2 2 5
M  V30 5 1 2 6
M  V30 6 1 3 7
M  V30 7 1 3 8
M  V30 8 1 5 9
M  V30 9 2 6 10
M  V30 10 2 7 11
M  V30 11 1 8 12
M  V30 12 1 8 13
M  V30 13 2 9 14
M  V30 14 1 11 15
M  V30 15 2 15 16
M  V30 16 1 15 17
M  V30 17 1 16 18
M  V30 18 1 16 19
M  V30 19 2 17 20
M  V30 20 1 17 21
M  V30 21 1 18 22
M  V30 22 2 19 23
M  V30 23 1 19 24
M  V30 24 1 20 25
M  V30 25 2 21 26
M  V30 26 1 23 27
M  V30 27 2 24 28
M  V30 28 2 25 29
M  V30 29 2 27 30
M  V30 30 1 5 8
M  V30 31 1 10 14
M  V30 32 1 18 20
M  V30 33 1 26 29
M  V30 34 1 28 30
M  V30 35 1 4 31
M  V30 36 1 4 32
M  V30 37 1 4 33
M  V30 38 1 6 34
M  V30 39 1 7 35
M  V30 40 1 9 36
M  V30 41 1 10 37
M  V30 42 1 11 38
M  V30 43 1 12 39
M  V30 44 1 12 40
M  V30 45 1 12 41
M  V30 46 1 13 42
M  V30 47 1 13 43
M  V30 48 1 13 44
M  V30 49 1 14 45
M  V30 50 1 21 46
M  V30 51 1 22 47
M  V30 52 1 22 48
M  V30 53 1 22 49
M  V30 54 1 23 50
M  V30 55 1 24 51
M  V30 56 1 25 52
M  V30 57 1 26 53
M  V30 58 1 27 54
M  V30 59 1 28 55
M  V30 60 1 29 56
M  V30 61 1 30 57
M  V30 END BOND
M  V30 END CTAB
M  END
>  <Structure No>
1725

>  <LogS>
-1.743927996

>  <MMFF94 Energy>
111.02

$$$$
Compound 1726
Actelion Java MolfileCreator 2.0

  0  0  0  0  0  0              0 V3000
M  V30 BEGIN CTAB
M  V30 COUNTS 14 14 0 0 0
M  V30 BEGIN ATOM
M  V30 1 O 0.3137 1.648 -0.0784 0
M  V30 2 C 1.4599 0.8576 -0.2364 0
M  V30 3 C -1.0022 1.0922 -0.0764 0
M  V30 4 C 1.3838 -0.4762 -0.2108 0
M  V30 5 C -0.9923 -0.2849 0.5903 0
M  V30 6 C 0.0592 -1.1787 -0.0804 0
M  V30 7 H 2.4219 1.3385 -0.355 0
M  V30 8 H -1.6894 1.7738 0.4674 0
M  V30 9 H -1.3582 0.9952 -1.1249 0
M  V30 10 H 2.2825 -1.0647 -0.3455 0
M  V30 11 H -0.7482 -0.1693 1.6691 0
M  V30 12 H -1.9961 -0.7537 0.5049 0
M  V30 13 H -0.2916 -1.4674 -1.0946 0
M  V30 14 H 0.1911 -2.1052 0.5176 0
M  V30 END ATOM
M  V30 BEGIN BOND
M  V30 1 1 1 2
M  V30 2 1 1 3
M  V30 3 2 2 4
M  V30 4 1 3 5
M  V30 5 1 4 6
M  V30 6 1 5 6
M  V30 7 1 2 7
M  V30 8 1 3 8
M  V30 9 1 3 9
M  V30 10 1 4 10
M  V30 11 1 5 11
M  V30 12 1 5 12
M  V30 13 1 6 13
M  V30 14 1 6 14
M  V30 END BOND
M  V30 END CTAB
M  END
>  <Structure No>
1726

>  <LogS>
-1.038398213

>  <MMFF94 Energy>
-0.71429

$$$$
Compound 1727
Actelion Java MolfileCreator 2.0

  0  0  0  0  0  0              0 V3000
M  V30 BEGIN CTAB
M  V30 COUNTS 28 27 0 0 0
M  V30 BEGIN ATOM
M  V30 1 O 2.1626 -1.0036 -1.0036 0
M  V30 2 C 2.357 -0.5579 0.3137 0 CFG=1
M  V30 3 C 3.7948 -0.0407 0.4685 0
M  V30 4 C 1.332 0.5466 0.6484 0
M  V30 5 O 4.0317 1.0144 -0.4228 0
M  V30 6 C -0.0726 0.0073 0.9746 0
M  V30 7 C -0.8158 -0.5254 -0.2616 0
M  V30 8 C -2.2357 -1.0264 0.0617 0
M  V30 9 C -3.223 0.0608 0.5236 0
M  V30 10 C -3.4483 1.1511 -0.5231 0
M  V30 11 H 2.5993 -1.8924 -1.0742 0
M  V30 12 H 2.219 -1.4035 1.0278 0
M  V30 13 H 4.5053 -0.8717 0.2601 0
M  V30 14 H 3.9612 0.3013 1.5148 0
M  V30 15 H 1.6818 1.1027 1.5463 0
M  V30 16 H 1.2728 1.2803 -0.1854 0
M  V30 17 H 4.9692 1.3002 -0.2677 0
M  V30 18 H -0.6497 0.8492 1.4101 0
M  V30 19 H -0.003 -0.7881 1.748 0
M  V30 20 H -0.2575 -1.3914 -0.672 0
M  V30 21 H -0.8502 0.2503 -1.055 0
M  V30 22 H -2.6498 -1.5188 -0.8451 0
M  V30 23 H -2.1724 -1.8067 0.8512 0
M  V30 24 H -4.1998 -0.4284 0.7285 0
M  V30 25 H -2.8887 0.5191 1.4772 0
M  V30 26 H -3.702 0.7011 -1.5063 0
M  V30 27 H -2.5449 1.7872 -0.6258 0
M  V30 28 H -4.2902 1.8008 -0.2036 0
M  V30 END ATOM
M  V30 BEGIN BOND
M  V30 1 1 1 2
M  V30 2 1 2 3
M  V30 3 1 2 4
M  V30 4 1 3 5
M  V30 5 1 4 6
M  V30 6 1 6 7
M  V30 7 1 7 8
M  V30 8 1 8 9
M  V30 9 1 9 10
M  V30 10 1 1 11
M  V30 11 1 2 12
M  V30 12 1 3 13
M  V30 13 1 3 14
M  V30 14 1 4 15
M  V30 15 1 4 16
M  V30 16 1 5 17
M  V30 17 1 6 18
M  V30 18 1 6 19
M  V30 19 1 7 20
M  V30 20 1 7 21
M  V30 21 1 8 22
M  V30 22 1 8 23
M  V30 23 1 9 24
M  V30 24 1 9 25
M  V30 25 1 10 26
M  V30 26 1 10 27
M  V30 27 1 10 28
M  V30 END BOND
M  V30 BEGIN COLLECTION
M  V30 MDLV30/STEABS ATOMS=(1 2)
M  V30 END COLLECTION
M  V30 END CTAB
M  END
>  <Structure No>
1727

>  <LogS>
-1.289975217

>  <MMFF94 Energy>
18.575

$$$$
Compound 1728
Actelion Java MolfileCreator 2.0

  0  0  0  0  0  0              0 V3000
M  V30 BEGIN CTAB
M  V30 COUNTS 29 28 0 0 0
M  V30 BEGIN ATOM
M  V30 1 N 0.0 0.3067 0.4601 0 CHG=1
M  V30 2 C -1.3675 -0.3197 0.3775 0
M  V30 3 C 1.1674 -0.6469 0.4321 0
M  V30 4 C 0.1706 1.4685 -0.4623 0
M  V30 5 C -2.4938 0.6681 0.7577 0
M  V30 6 C -1.6924 -0.985 -0.9733 0
M  V30 7 C 0.9658 -1.8917 1.317 0
M  V30 8 C 1.6563 -1.0617 -0.9756 0
M  V30 9 C 1.3744 2.3507 -0.1001 0
M  V30 10 H 0.0326 0.7162 1.4255 0
M  V30 11 H -1.4533 -1.1129 1.15 0
M  V30 12 H 2.036 -0.1279 0.8984 0
M  V30 13 H -0.709 2.1405 -0.4165 0
M  V30 14 H 0.2583 1.1442 -1.5191 0
M  V30 15 H -2.7458 1.3465 -0.0839 0
M  V30 16 H -2.2102 1.2716 1.6458 0
M  V30 17 H -3.4176 0.1054 1.0136 0
M  V30 18 H -1.1862 -1.9663 -1.055 0
M  V30 19 H -2.7799 -1.2035 -1.0419 0
M  V30 20 H -1.4254 -0.3385 -1.8324 0
M  V30 21 H 1.9359 -2.4131 1.465 0
M  V30 22 H 0.2647 -2.6118 0.8456 0
M  V30 23 H 0.5854 -1.5971 2.3182 0
M  V30 24 H 2.4675 -1.8155 -0.8855 0
M  V30 25 H 2.0957 -0.2009 -1.5184 0
M  V30 26 H 0.8614 -1.5026 -1.5985 0
M  V30 27 H 1.3578 3.27 -0.7231 0
M  V30 28 H 2.333 1.8301 -0.296 0
M  V30 29 H 1.3294 2.6523 0.9677 0
M  V30 END ATOM
M  V30 BEGIN BOND
M  V30 1 1 1 2
M  V30 2 1 1 3
M  V30 3 1 1 4
M  V30 4 1 2 5
M  V30 5 1 2 6
M  V30 6 1 3 7
M  V30 7 1 3 8
M  V30 8 1 4 9
M  V30 9 1 1 10
M  V30 10 1 2 11
M  V30 11 1 3 12
M  V30 12 1 4 13
M  V30 13 1 4 14
M  V30 14 1 5 15
M  V30 15 1 5 16
M  V30 16 1 5 17
M  V30 17 1 6 18
M  V30 18 1 6 19
M  V30 19 1 6 20
M  V30 20 1 7 21
M  V30 21 1 7 22
M  V30 22 1 7 23
M  V30 23 1 8 24
M  V30 24 1 8 25
M  V30 25 1 8 26
M  V30 26 1 9 27
M  V30 27 1 9 28
M  V30 28 1 9 29
M  V30 END BOND
M  V30 END CTAB
M  END
>  <Structure No>
1728

>  <LogS>
-1.241602263

>  <MMFF94 Energy>
20.994

$$$$
Compound 1729
Actelion Java MolfileCreator 2.0

  0  0  0  0  0  0              0 V3000
M  V30 BEGIN CTAB
M  V30 COUNTS 36 38 0 0 0
M  V30 BEGIN ATOM
M  V30 1 S 5.4297 -0.6883 0.172 0
M  V30 2 O 5.8608 -0.4802 1.5966 0
M  V30 3 O 6.3599 0.074 -0.7296 0
M  V30 4 O 5.5216 -2.3198 -0.2178 0 CHG=-1
M  V30 5 C 3.765 -0.1237 -0.0321 0
M  V30 6 C 2.6994 -0.6794 0.7095 0
M  V30 7 C 3.5024 0.8835 -0.9673 0
M  V30 8 O 2.915 -1.7201 1.6191 0
M  V30 9 C 1.3868 -0.1886 0.5273 0
M  V30 10 C 2.2039 1.36 -1.1763 0
M  V30 11 C 0.2422 -0.7318 1.306 0
M  V30 12 C 1.1398 0.8475 -0.3983 0
M  V30 13 N 1.9862 2.3207 -2.2195 0
M  V30 14 O 0.4458 -1.288 2.4188 0
M  V30 15 C -1.1473 -0.5261 0.8105 0
M  V30 16 C -0.235 1.401 -0.4707 0
M  V30 17 C -1.3854 0.5445 -0.0846 0
M  V30 18 C -2.2314 -1.3343 1.236 0
M  V30 19 O -0.4089 2.6255 -0.714 0
M  V30 20 C -2.7011 0.7962 -0.549 0
M  V30 21 N -2.0372 -2.5171 2.0243 0
M  V30 22 C -3.5324 -1.0097 0.8378 0
M  V30 23 O -2.9693 1.7509 -1.5352 0
M  V30 24 C -3.7742 0.0489 -0.0402 0
M  V30 25 S -5.425 0.3862 -0.5689 0
M  V30 26 O -6.4129 -0.3242 0.3133 0
M  V30 27 O -5.6024 -0.0807 -1.9858 0
M  V30 28 O -5.7177 2.0382 -0.4781 0 CHG=-1
M  V30 29 H 4.3105 1.2903 -1.5615 0
M  V30 30 H 3.8201 -2.131 1.8008 0
M  V30 31 H 2.7961 2.7829 -2.6901 0
M  V30 32 H 1.0437 2.4779 -2.6374 0
M  V30 33 H -2.8529 -2.9942 2.4697 0
M  V30 34 H -1.1312 -3.0331 2.028 0
M  V30 35 H -4.3582 -1.62 1.1815 0
M  V30 36 H -2.2573 2.1741 -2.1141 0
M  V30 END ATOM
M  V30 BEGIN BOND
M  V30 1 2 1 2
M  V30 2 2 1 3
M  V30 3 1 1 4
M  V30 4 1 1 5
M  V30 5 2 5 6
M  V30 6 1 5 7
M  V30 7 1 6 8
M  V30 8 1 6 9
M  V30 9 2 7 10
M  V30 10 1 9 11
M  V30 11 2 9 12
M  V30 12 1 10 13
M  V30 13 2 11 14
M  V30 14 1 11 15
M  V30 15 1 12 16
M  V30 16 2 15 17
M  V30 17 1 15 18
M  V30 18 2 16 19
M  V30 19 1 17 20
M  V30 20 1 18 21
M  V30 21 2 18 22
M  V30 22 1 20 23
M  V30 23 2 20 24
M  V30 24 1 24 25
M  V30 25 2 25 26
M  V30 26 2 25 27
M  V30 27 1 25 28
M  V30 28 1 10 12
M  V30 29 1 16 17
M  V30 30 1 22 24
M  V30 31 1 7 29
M  V30 32 1 8 30
M  V30 33 1 13 31
M  V30 34 1 13 32
M  V30 35 1 21 33
M  V30 36 1 21 34
M  V30 37 1 22 35
M  V30 38 1 23 36
M  V30 END BOND
M  V30 END CTAB
M  END
>  <Structure No>
1729

>  <LogS>
-1.799112619

>  <MMFF94 Energy>
144.2

$$$$
Compound 1730
Actelion Java MolfileCreator 2.0

  0  0  0  0  0  0              0 V3000
M  V30 BEGIN CTAB
M  V30 COUNTS 17 16 0 0 0
M  V30 BEGIN ATOM
M  V30 1 F 3.2175 0.0803 -1.3665 0
M  V30 2 C 2.8754 -0.0098 -0.0307 0
M  V30 3 F 3.7863 0.7072 0.7236 0
M  V30 4 F 2.9127 -1.3359 0.3599 0
M  V30 5 C 1.5014 0.5427 0.167 0
M  V30 6 O 1.3383 1.7896 0.2661 0
M  V30 7 O 0.404 -0.3262 0.1948 0
M  V30 8 C -0.9494 0.1148 0.3071 0
M  V30 9 C -1.4346 0.6793 -1.031 0
M  V30 10 C -1.8197 -1.0646 0.7364 0
M  V30 11 H -1.0253 0.903 1.0892 0
M  V30 12 H -0.826 1.5615 -1.3187 0
M  V30 13 H -1.3473 -0.0885 -1.8291 0
M  V30 14 H -2.4948 1.0014 -0.9508 0
M  V30 15 H -1.4611 -1.4593 1.7106 0
M  V30 16 H -1.77 -1.8791 -0.0176 0
M  V30 17 H -2.8761 -0.7418 0.8554 0
M  V30 END ATOM
M  V30 BEGIN BOND
M  V30 1 1 1 2
M  V30 2 1 2 3
M  V30 3 1 2 4
M  V30 4 1 2 5
M  V30 5 2 5 6
M  V30 6 1 5 7
M  V30 7 1 7 8
M  V30 8 1 8 9
M  V30 9 1 8 10
M  V30 10 1 8 11
M  V30 11 1 9 12
M  V30 12 1 9 13
M  V30 13 1 9 14
M  V30 14 1 10 15
M  V30 15 1 10 16
M  V30 16 1 10 17
M  V30 END BOND
M  V30 END CTAB
M  END
>  <Structure No>
1730

>  <LogS>
-1.336078753

>  <MMFF94 Energy>
73.658

$$$$
Compound 1731
Actelion Java MolfileCreator 2.0

  0  0  0  0  0  0              0 V3000
M  V30 BEGIN CTAB
M  V30 COUNTS 55 58 0 0 0
M  V30 BEGIN ATOM
M  V30 1 S 8.6064 1.5532 -0.572 0
M  V30 2 O 9.6973 2.0461 0.3364 0
M  V30 3 O 7.6019 2.6546 -0.7676 0
M  V30 4 O 9.2593 1.1325 -2.0613 0 CHG=-1
M  V30 5 C 7.8377 0.1417 0.1463 0
M  V30 6 C 6.4409 0.0632 0.2553 0
M  V30 7 C 8.6292 -0.9205 0.6009 0
M  V30 8 C 5.8369 -1.0742 0.8242 0
M  V30 9 C 8.0321 -2.0509 1.1652 0
M  V30 10 N 4.4143 -1.1868 0.9489 0
M  V30 11 C 6.6413 -2.1275 1.2761 0
M  V30 12 N 3.6275 -0.2576 0.5782 0
M  V30 13 C 2.1997 -0.3626 0.6943 0
M  V30 14 C 1.3768 0.7098 0.2843 0
M  V30 15 C 1.6107 -1.5195 1.2258 0
M  V30 16 C -0.0407 0.6032 0.3945 0
M  V30 17 C 1.9445 1.8983 -0.2184 0
M  V30 18 C 0.2265 -1.6339 1.3166 0
M  V30 19 C -0.6108 -0.6076 0.873 0
M  V30 20 C -0.8323 1.7257 0.0655 0
M  V30 21 C 1.1351 2.9756 -0.5757 0
M  V30 22 N -2.0238 -0.8514 0.9116 0
M  V30 23 C -0.246 2.8937 -0.423 0
M  V30 24 N -2.7978 -0.495 -0.0332 0
M  V30 25 C -4.2111 -0.7311 -3.0E-4 0
M  V30 26 C -5.001 -0.2589 -1.0611 0
M  V30 27 C -4.813 -1.4134 1.0732 0
M  V30 28 O -4.3616 0.4131 -2.1182 0
M  V30 29 C -6.3926 -0.4761 -1.0354 0
M  V30 30 C -6.1962 -1.6402 1.0856 0
M  V30 31 C -5.0128 1.0641 -3.2087 0
M  V30 32 C -6.9829 -1.1547 0.0332 0
M  V30 33 C -6.8369 -2.3318 2.2525 0
M  V30 34 C -5.6134 2.3929 -2.7631 0
M  V30 35 H 5.8282 0.8807 -0.1019 0
M  V30 36 H 9.7077 -0.8735 0.5174 0
M  V30 37 H 8.6477 -2.8684 1.5171 0
M  V30 38 H 6.1878 -3.0081 1.7152 0
M  V30 39 H 2.2222 -2.3479 1.56 0
M  V30 40 H 3.0163 2.0066 -0.328 0
M  V30 41 H -0.2023 -2.5497 1.7048 0
M  V30 42 H -1.9018 1.7343 0.211 0
M  V30 43 H 1.5827 3.8854 -0.955 0
M  V30 44 H -0.8667 3.7442 -0.6755 0
M  V30 45 H -4.2091 -1.7688 1.899 0
M  V30 46 H -7.0311 -0.1264 -1.8335 0
M  V30 47 H -5.7853 0.4076 -3.6605 0
M  V30 48 H -4.2543 1.2693 -3.9928 0
M  V30 49 H -8.0559 -1.3023 0.0383 0
M  V30 50 H -7.7761 -2.8386 1.9434 0
M  V30 51 H -7.0713 -1.5859 3.0405 0
M  V30 52 H -6.1544 -3.1009 2.6731 0
M  V30 53 H -4.82 3.0401 -2.3328 0
M  V30 54 H -6.0653 2.9098 -3.6359 0
M  V30 55 H -6.4009 2.2315 -1.9986 0
M  V30 END ATOM
M  V30 BEGIN BOND
M  V30 1 2 1 2
M  V30 2 2 1 3
M  V30 3 1 1 4
M  V30 4 1 1 5
M  V30 5 2 5 6
M  V30 6 1 5 7
M  V30 7 1 6 8
M  V30 8 2 7 9
M  V30 9 1 8 10
M  V30 10 2 8 11
M  V30 11 2 10 12
M  V30 12 1 12 13
M  V30 13 1 13 14
M  V30 14 2 13 15
M  V30 15 1 14 16
M  V30 16 2 14 17
M  V30 17 1 15 18
M  V30 18 1 16 19
M  V30 19 2 16 20
M  V30 20 1 17 21
M  V30 21 1 19 22
M  V30 22 1 20 23
M  V30 23 2 22 24
M  V30 24 1 24 25
M  V30 25 2 25 26
M  V30 26 1 25 27
M  V30 27 1 26 28
M  V30 28 1 26 29
M  V30 29 2 27 30
M  V30 30 1 28 31
M  V30 31 2 29 32
M  V30 32 1 30 33
M  V30 33 1 31 34
M  V30 34 1 9 11
M  V30 35 2 18 19
M  V30 36 2 21 23
M  V30 37 1 30 32
M  V30 38 1 6 35
M  V30 39 1 7 36
M  V30 40 1 9 37
M  V30 41 1 11 38
M  V30 42 1 15 39
M  V30 43 1 17 40
M  V30 44 1 18 41
M  V30 45 1 20 42
M  V30 46 1 21 43
M  V30 47 1 23 44
M  V30 48 1 27 45
M  V30 49 1 29 46
M  V30 50 1 31 47
M  V30 51 1 31 48
M  V30 52 1 32 49
M  V30 53 1 33 50
M  V30 54 1 33 51
M  V30 55 1 33 52
M  V30 56 1 34 53
M  V30 57 1 34 54
M  V30 58 1 34 55
M  V30 END BOND
M  V30 END CTAB
M  END
>  <Structure No>
1731

>  <LogS>
-1.847135544

>  <MMFF94 Energy>
129.39

$$$$
Compound 1732
Actelion Java MolfileCreator 2.0

  0  0  0  0  0  0              0 V3000
M  V30 BEGIN CTAB
M  V30 COUNTS 10 9 0 0 0
M  V30 BEGIN ATOM
M  V30 1 O -0.9797 0.4897 -1.715 0
M  V30 2 C -1.467 0.4016 -0.5574 0
M  V30 3 O -2.8467 0.3888 -0.4014 0 CHG=-1
M  V30 4 C -0.6081 0.4098 0.6411 0
M  V30 5 C 0.6823 0.0448 0.689 0
M  V30 6 C 1.4262 -0.6352 -0.3865 0
M  V30 7 O 2.6818 -0.5543 -0.4127 0
M  V30 8 O 0.78 -1.4406 -1.3164 0 CHG=-1
M  V30 9 H -1.055 0.7879 1.5524 0
M  V30 10 H 1.219 0.2265 1.6127 0
M  V30 END ATOM
M  V30 BEGIN BOND
M  V30 1 2 1 2
M  V30 2 1 2 3
M  V30 3 1 2 4
M  V30 4 2 4 5
M  V30 5 1 5 6
M  V30 6 2 6 7
M  V30 7 1 6 8
M  V30 8 1 4 9
M  V30 9 1 5 10
M  V30 END BOND
M  V30 END CTAB
M  END
>  <Structure No>
1732

>  <LogS>
-1.219629428

>  <MMFF94 Energy>
66.6

$$$$
Compound 1733
Actelion Java MolfileCreator 2.0

  0  0  0  0  0  0              0 V3000
M  V30 BEGIN CTAB
M  V30 COUNTS 37 37 0 0 0
M  V30 BEGIN ATOM
M  V30 1 O -3.2855 -0.7033 -0.547 0
M  V30 2 C -2.1753 -1.5502 -0.3904 0 CFG=1
M  V30 3 C -1.37 -1.1873 0.8754 0
M  V30 4 C -2.6305 -3.0134 -0.3542 0
M  V30 5 N -0.6262 0.0735 0.7097 0
M  V30 6 C 0.8112 0.0328 0.5425 0
M  V30 7 C -1.3307 1.3554 0.9027 0
M  V30 8 C 1.3954 -0.861 -0.3725 0
M  V30 9 C 1.6502 0.8796 1.2912 0
M  V30 10 C -1.0452 2.3606 -0.2354 0 CFG=2
M  V30 11 C 2.7822 -0.9027 -0.5406 0
M  V30 12 C 3.0371 0.8367 1.1222 0
M  V30 13 O -1.6496 3.5977 0.047 0
M  V30 14 C -1.5082 1.8461 -1.6029 0
M  V30 15 C 3.6126 -0.0642 0.2157 0
M  V30 16 C 5.0977 -0.0814 0.0061 0
M  V30 17 H -3.8822 -0.8393 0.2354 0
M  V30 18 H -1.5253 -1.4279 -1.2814 0
M  V30 19 H -2.0505 -1.1084 1.7517 0
M  V30 20 H -0.6612 -2.0111 1.1153 0
M  V30 21 H -3.2536 -3.2069 0.5452 0
M  V30 22 H -3.2288 -3.2438 -1.2612 0
M  V30 23 H -1.7489 -3.6893 -0.3351 0
M  V30 24 H -2.4271 1.1913 0.978 0
M  V30 25 H -1.0224 1.8029 1.8708 0
M  V30 26 H 0.7801 -1.5196 -0.9687 0
M  V30 27 H 1.2392 1.5704 2.014 0
M  V30 28 H 0.0493 2.5367 -0.2942 0
M  V30 29 H 3.2081 -1.5897 -1.2616 0
M  V30 30 H 3.6624 1.5043 1.7023 0
M  V30 31 H -2.6312 3.4506 0.0894 0
M  V30 32 H -0.9621 0.9186 -1.8736 0
M  V30 33 H -1.296 2.6105 -2.3802 0
M  V30 34 H -2.5996 1.6433 -1.5964 0
M  V30 35 H 5.3661 0.6425 -0.7913 0
M  V30 36 H 5.6288 0.1963 0.9416 0
M  V30 37 H 5.4394 -1.0948 -0.2942 0
M  V30 END ATOM
M  V30 BEGIN BOND
M  V30 1 1 1 2
M  V30 2 1 2 3
M  V30 3 1 2 4
M  V30 4 1 3 5
M  V30 5 1 5 6
M  V30 6 1 5 7
M  V30 7 2 6 8
M  V30 8 1 6 9
M  V30 9 1 7 10
M  V30 10 1 8 11
M  V30 11 2 9 12
M  V30 12 1 10 13
M  V30 13 1 10 14
M  V30 14 2 11 15
M  V30 15 1 15 16
M  V30 16 1 12 15
M  V30 17 1 1 17
M  V30 18 1 2 18
M  V30 19 1 3 19
M  V30 20 1 3 20
M  V30 21 1 4 21
M  V30 22 1 4 22
M  V30 23 1 4 23
M  V30 24 1 7 24
M  V30 25 1 7 25
M  V30 26 1 8 26
M  V30 27 1 9 27
M  V30 28 1 10 28
M  V30 29 1 11 29
M  V30 30 1 12 30
M  V30 31 1 13 31
M  V30 32 1 14 32
M  V30 33 1 14 33
M  V30 34 1 14 34
M  V30 35 1 16 35
M  V30 36 1 16 36
M  V30 37 1 16 37
M  V30 END BOND
M  V30 BEGIN COLLECTION
M  V30 MDLV30/STEABS ATOMS=(2 2 10)
M  V30 END COLLECTION
M  V30 END CTAB
M  END
>  <Structure No>
1733

>  <LogS>
-1.5038218

>  <MMFF94 Energy>
67.941

$$$$
Compound 1734
Actelion Java MolfileCreator 2.0

  0  0  0  0  0  0              0 V3000
M  V30 BEGIN CTAB
M  V30 COUNTS 19 18 0 0 0
M  V30 BEGIN ATOM
M  V30 1 S 0.1623 -1.0553 -0.7305 0
M  V30 2 O -0.0585 -1.4929 -2.1517 0
M  V30 3 O -0.0412 -2.231 0.1866 0
M  V30 4 O 1.7558 -0.4994 -0.5889 0
M  V30 5 O -0.9155 0.1972 -0.3458 0
M  V30 6 C 1.9269 0.0267 0.7044 0
M  V30 7 C -2.2288 -0.2996 -0.4346 0
M  V30 8 C 3.3677 0.4846 0.8699 0
M  V30 9 C -3.2077 0.8189 -0.1126 0
M  V30 10 H 1.7169 -0.745 1.4788 0
M  V30 11 H 1.2633 0.9059 0.8615 0
M  V30 12 H -2.389 -1.122 0.2976 0
M  V30 13 H -2.4452 -0.6651 -1.4633 0
M  V30 14 H 3.514 0.904 1.8879 0
M  V30 15 H 3.6061 1.2686 0.12 0
M  V30 16 H 4.058 -0.3744 0.7318 0
M  V30 17 H -3.0832 1.653 -0.8356 0
M  V30 18 H -3.0273 1.1979 0.9157 0
M  V30 19 H -4.2488 0.4378 -0.1785 0
M  V30 END ATOM
M  V30 BEGIN BOND
M  V30 1 2 1 2
M  V30 2 2 1 3
M  V30 3 1 1 4
M  V30 4 1 1 5
M  V30 5 1 4 6
M  V30 6 1 5 7
M  V30 7 1 6 8
M  V30 8 1 7 9
M  V30 9 1 6 10
M  V30 10 1 6 11
M  V30 11 1 7 12
M  V30 12 1 7 13
M  V30 13 1 8 14
M  V30 14 1 8 15
M  V30 15 1 8 16
M  V30 16 1 9 17
M  V30 17 1 9 18
M  V30 18 1 9 19
M  V30 END BOND
M  V30 END CTAB
M  END
>  <Structure No>
1734

>  <LogS>
-1.342949719

>  <MMFF94 Energy>
-67.545

$$$$
Compound 1735
Actelion Java MolfileCreator 2.0

  0  0  0  0  0  0              0 V3000
M  V30 BEGIN CTAB
M  V30 COUNTS 65 69 0 0 0
M  V30 BEGIN ATOM
M  V30 1 S -5.3145 -1.7415 -3.6515 0
M  V30 2 O -4.3468 -2.8181 -4.0523 0
M  V30 3 O -5.3095 -0.6653 -4.6986 0
M  V30 4 O -6.8467 -2.4216 -3.5467 0 CHG=-1
M  V30 5 C -4.855 -1.0503 -2.0884 0
M  V30 6 C -5.7269 -0.2048 -1.3693 0
M  V30 7 C -3.6253 -1.4079 -1.5355 0
M  V30 8 N -7.0327 0.0724 -1.8953 0
M  V30 9 C -5.3262 0.3168 -0.1063 0
M  V30 10 C -3.2412 -0.9537 -0.273 0
M  V30 11 C -6.1641 1.3042 0.6411 0
M  V30 12 C -4.0797 -0.073 0.4495 0
M  V30 13 N -2.0355 -1.4747 0.3073 0
M  V30 14 O -7.1103 1.9123 0.071 0
M  V30 15 C -5.8568 1.6295 2.049 0
M  V30 16 C -3.6631 0.4818 1.7709 0
M  V30 17 C -0.7264 -1.3104 -0.2684 0
M  V30 18 C -4.629 1.2293 2.6018 0
M  V30 19 C -6.7653 2.3618 2.8358 0
M  V30 20 O -2.4773 0.35 2.1787 0
M  V30 21 C -0.5018 -0.4658 -1.3721 0
M  V30 22 C 0.3636 -1.9772 0.311 0
M  V30 23 C -4.323 1.5678 3.9335 0
M  V30 24 C -6.4529 2.6885 4.158 0
M  V30 25 C 0.7866 -0.3061 -1.8898 0
M  V30 26 C 1.6545 -1.8041 -0.1961 0
M  V30 27 C -5.2334 2.2927 4.7057 0
M  V30 28 C 1.8772 -0.9567 -1.2922 0
M  V30 29 C 3.2676 -0.7836 -1.8489 0
M  V30 30 N 3.5654 0.6399 -2.0974 0
M  V30 31 S 3.8924 1.489 -0.5999 0
M  V30 32 C 4.7242 0.7676 -2.9903 0
M  V30 33 O 4.0712 2.9544 -0.8947 0
M  V30 34 O 2.727 1.3475 0.34 0
M  V30 35 C 5.3501 0.8823 0.1883 0
M  V30 36 C 5.2679 -0.1534 1.1289 0
M  V30 37 C 6.603 1.4195 -0.1417 0
M  V30 38 C 6.4269 -0.6479 1.7356 0
M  V30 39 C 7.7631 0.9263 0.4629 0
M  V30 40 C 7.6816 -0.1022 1.4132 0
M  V30 41 C 8.9349 -0.6454 2.0328 0
M  V30 42 H -2.9702 -2.0867 -2.0668 0
M  V30 43 H -7.8679 0.0807 -1.2712 0
M  V30 44 H -7.2035 0.1502 -2.9209 0
M  V30 45 H -2.1238 -1.98 1.2186 0
M  V30 46 H -7.7175 2.681 2.4315 0
M  V30 47 H -1.3142 0.0803 -1.8303 0
M  V30 48 H 0.2156 -2.628 1.1641 0
M  V30 49 H -3.3826 1.2706 4.3794 0
M  V30 50 H -7.1564 3.2529 4.7562 0
M  V30 51 H 0.9374 0.339 -2.748 0
M  V30 52 H 2.4803 -2.3289 0.2704 0
M  V30 53 H -4.9918 2.55 5.7292 0
M  V30 54 H 4.0306 -1.2335 -1.1747 0
M  V30 55 H 3.3054 -1.3564 -2.8019 0
M  V30 56 H 4.4721 0.3651 -3.995 0
M  V30 57 H 4.9937 1.8362 -3.1256 0
M  V30 58 H 5.604 0.2181 -2.5902 0
M  V30 59 H 4.3095 -0.5872 1.3829 0
M  V30 60 H 6.6839 2.2082 -0.8786 0
M  V30 61 H 6.3464 -1.4588 2.4505 0
M  V30 62 H 8.7262 1.3405 0.1823 0
M  V30 63 H 9.4836 -1.2518 1.2808 0
M  V30 64 H 9.586 0.1896 2.3648 0
M  V30 65 H 8.7108 -1.2824 2.9154 0
M  V30 END ATOM
M  V30 BEGIN BOND
M  V30 1 2 1 2
M  V30 2 2 1 3
M  V30 3 1 1 4
M  V30 4 1 1 5
M  V30 5 2 5 6
M  V30 6 1 5 7
M  V30 7 1 6 8
M  V30 8 1 6 9
M  V30 9 2 7 10
M  V30 10 1 9 11
M  V30 11 2 9 12
M  V30 12 1 10 13
M  V30 13 2 11 14
M  V30 14 1 11 15
M  V30 15 1 12 16
M  V30 16 1 13 17
M  V30 17 2 15 18
M  V30 18 1 15 19
M  V30 19 2 16 20
M  V30 20 2 17 21
M  V30 21 1 17 22
M  V30 22 1 18 23
M  V30 23 2 19 24
M  V30 24 1 21 25
M  V30 25 2 22 26
M  V30 26 2 23 27
M  V30 27 2 25 28
M  V30 28 1 28 29
M  V30 29 1 29 30
M  V30 30 1 30 31
M  V30 31 1 30 32
M  V30 32 2 31 33
M  V30 33 2 31 34
M  V30 34 1 31 35
M  V30 35 2 35 36
M  V30 36 1 35 37
M  V30 37 1 36 38
M  V30 38 2 37 39
M  V30 39 2 38 40
M  V30 40 1 40 41
M  V30 41 1 10 12
M  V30 42 1 16 18
M  V30 43 1 24 27
M  V30 44 1 26 28
M  V30 45 1 39 40
M  V30 46 1 7 42
M  V30 47 1 8 43
M  V30 48 1 8 44
M  V30 49 1 13 45
M  V30 50 1 19 46
M  V30 51 1 21 47
M  V30 52 1 22 48
M  V30 53 1 23 49
M  V30 54 1 24 50
M  V30 55 1 25 51
M  V30 56 1 26 52
M  V30 57 1 27 53
M  V30 58 1 29 54
M  V30 59 1 29 55
M  V30 60 1 32 56
M  V30 61 1 32 57
M  V30 62 1 32 58
M  V30 63 1 36 59
M  V30 64 1 37 60
M  V30 65 1 38 61
M  V30 66 1 39 62
M  V30 67 1 41 63
M  V30 68 1 41 64
M  V30 69 1 41 65
M  V30 END BOND
M  V30 END CTAB
M  END
>  <Structure No>
1735

>  <LogS>
-1.942821991

>  <MMFF94 Energy>
93.318

$$$$
Compound 1736
Actelion Java MolfileCreator 2.0

  0  0  0  0  0  0              0 V3000
M  V30 BEGIN CTAB
M  V30 COUNTS 7 6 0 0 0
M  V30 BEGIN ATOM
M  V30 1 F -1.0367 -0.3454 1.296 0
M  V30 2 C -0.6636 -0.0779 -0.0074 0
M  V30 3 F -1.3126 1.0633 -0.4429 0
M  V30 4 F -1.0316 -1.1398 -0.813 0
M  V30 5 C 0.816 0.1207 -0.0687 0
M  V30 6 O 1.3166 1.2397 0.2196 0
M  V30 7 O 1.6514 -0.9439 -0.3823 0 CHG=-1
M  V30 END ATOM
M  V30 BEGIN BOND
M  V30 1 1 1 2
M  V30 2 1 2 3
M  V30 3 1 2 4
M  V30 4 1 2 5
M  V30 5 2 5 6
M  V30 6 1 5 7
M  V30 END BOND
M  V30 END CTAB
M  END
>  <Structure No>
1736

>  <LogS>
0.661069302

>  <MMFF94 Energy>
154.28

$$$$
Compound 1737
Actelion Java MolfileCreator 2.0

  0  0  0  0  0  0              0 V3000
M  V30 BEGIN CTAB
M  V30 COUNTS 4 3 0 0 0
M  V30 BEGIN ATOM
M  V30 1 O -0.9322 -0.6991 0.7768 0
M  V30 2 C 0.0186 0.0528 0.4409 0
M  V30 3 O 0.7911 -0.2589 -0.6693 0 CHG=-1
M  V30 4 H 0.2342 0.9422 1.0172 0
M  V30 END ATOM
M  V30 BEGIN BOND
M  V30 1 2 1 2
M  V30 2 1 2 3
M  V30 3 1 2 4
M  V30 END BOND
M  V30 END CTAB
M  END
>  <Structure No>
1737

>  <LogS>
1.175855294

>  <MMFF94 Energy>
0.012811

$$$$
Compound 1738
Actelion Java MolfileCreator 2.0

  0  0  0  0  0  0              0 V3000
M  V30 BEGIN CTAB
M  V30 COUNTS 32 31 0 0 0
M  V30 BEGIN ATOM
M  V30 1 O 2.5258 -1.3845 -1.955 0
M  V30 2 C 2.1731 -1.4402 -0.7462 0
M  V30 3 O 1.4395 -2.5281 -0.2881 0 CHG=-1
M  V30 4 C 2.5298 -0.3351 0.1989 0
M  V30 5 N 1.3018 0.3415 0.6719 0
M  V30 6 C 1.5397 1.0128 1.9688 0
M  V30 7 C 0.8022 1.3082 -0.3372 0
M  V30 8 C 1.5661 0.0146 3.0853 0
M  V30 9 C -0.7308 1.3537 -0.3211 0
M  V30 10 O 0.6205 -0.8069 3.224 0
M  V30 11 O 2.6255 0.0067 3.9865 0 CHG=-1
M  V30 12 N -1.2901 0.0472 -0.7473 0
M  V30 13 C -2.5423 -0.258 -0.0196 0
M  V30 14 C -1.5183 0.0286 -2.2093 0
M  V30 15 C -2.2276 -0.7764 1.3492 0
M  V30 16 C -1.5953 -1.3786 -2.7137 0
M  V30 17 O -2.4486 -0.0639 2.3657 0
M  V30 18 O -1.6683 -2.0413 1.4991 0 CHG=-1
M  V30 19 O -0.6232 -2.1624 -2.5528 0
M  V30 20 O -2.7367 -1.8216 -3.3709 0 CHG=-1
M  V30 21 H 3.2264 0.3896 -0.2839 0
M  V30 22 H 3.0802 -0.8037 1.045 0
M  V30 23 H 0.7252 1.7334 2.1982 0
M  V30 24 H 2.4936 1.5866 1.948 0
M  V30 25 H 1.1259 1.031 -1.3653 0
M  V30 26 H 1.2073 2.3303 -0.1544 0
M  V30 27 H -1.0845 2.1808 -0.9792 0
M  V30 28 H -1.0576 1.6241 0.707 0
M  V30 29 H -3.2029 0.6393 0.0384 0
M  V30 30 H -3.1212 -1.0544 -0.5378 0
M  V30 31 H -2.4498 0.5807 -2.471 0
M  V30 32 H -0.6808 0.5231 -2.7494 0
M  V30 END ATOM
M  V30 BEGIN BOND
M  V30 1 2 1 2
M  V30 2 1 2 3
M  V30 3 1 2 4
M  V30 4 1 4 5
M  V30 5 1 5 6
M  V30 6 1 5 7
M  V30 7 1 6 8
M  V30 8 1 7 9
M  V30 9 2 8 10
M  V30 10 1 8 11
M  V30 11 1 9 12
M  V30 12 1 12 13
M  V30 13 1 12 14
M  V30 14 1 13 15
M  V30 15 1 14 16
M  V30 16 2 15 17
M  V30 17 1 15 18
M  V30 18 2 16 19
M  V30 19 1 16 20
M  V30 20 1 4 21
M  V30 21 1 4 22
M  V30 22 1 6 23
M  V30 23 1 6 24
M  V30 24 1 7 25
M  V30 25 1 7 26
M  V30 26 1 9 27
M  V30 27 1 9 28
M  V30 28 1 13 29
M  V30 29 1 13 30
M  V30 30 1 14 31
M  V30 31 1 14 32
M  V30 END BOND
M  V30 END CTAB
M  END
>  <Structure No>
1738

>  <LogS>
0.322699056

>  <MMFF94 Energy>
605.6

$$$$
Compound 1739
Actelion Java MolfileCreator 2.0

  0  0  0  0  0  0              0 V3000
M  V30 BEGIN CTAB
M  V30 COUNTS 60 59 0 0 0
M  V30 BEGIN ATOM
M  V30 1 S -5.407 2.3031 -1.1907 0
M  V30 2 O -4.8423 1.6747 -2.4334 0
M  V30 3 O -4.3258 3.0687 -0.4815 0
M  V30 4 O -6.6328 3.3652 -1.6271 0 CHG=-1
M  V30 5 C -6.094 1.0374 -0.1207 0
M  V30 6 C -5.0361 0.2191 0.6521 0 CFG=2
M  V30 7 O -4.2901 1.0723 1.482 0
M  V30 8 C -4.0923 -0.5553 -0.313 0
M  V30 9 N -3.2529 -1.6404 0.295 0 CHG=1
M  V30 10 C -2.4962 -2.3903 -0.7732 0
M  V30 11 C -2.3103 -1.0963 1.3082 0
M  V30 12 C -4.118 -2.6431 0.9783 0
M  V30 13 C -1.8799 -1.5861 -1.9565 0
M  V30 14 C -0.7212 -0.6266 -1.6374 0
M  V30 15 C 0.4791 -1.327 -0.977 0
M  V30 16 C 1.6829 -0.3881 -0.7984 0
M  V30 17 C 1.4947 0.5881 0.3748 0
M  V30 18 C 2.6479 1.5981 0.5002 0
M  V30 19 C 3.9923 0.9566 0.9066 0
M  V30 20 C 4.9665 0.8478 -0.28 0
M  V30 21 C 6.3049 0.1903 0.1194 0
M  V30 22 C 7.4528 1.1957 0.3113 0
M  V30 23 C 7.2463 2.1178 1.511 0
M  V30 24 H -6.7202 0.3552 -0.7346 0
M  V30 25 H -6.7689 1.5334 0.6093 0
M  V30 26 H -5.6119 -0.4979 1.2735 0
M  V30 27 H -4.8714 1.3101 2.2512 0
M  V30 28 H -4.7137 -0.9924 -1.1283 0
M  V30 29 H -3.4346 0.2064 -0.7799 0
M  V30 30 H -3.1864 -3.1119 -1.271 0
M  V30 31 H -1.7096 -3.0363 -0.3245 0
M  V30 32 H -1.7723 -0.2029 0.9446 0
M  V30 33 H -1.5659 -1.8601 1.6232 0
M  V30 34 H -2.8383 -0.7861 2.2356 0
M  V30 35 H -3.5383 -3.5559 1.2467 0
M  V30 36 H -4.5393 -2.2644 1.9339 0
M  V30 37 H -4.9641 -2.9556 0.3259 0
M  V30 38 H -2.6696 -1.0364 -2.51 0
M  V30 39 H -1.4931 -2.3305 -2.6874 0
M  V30 40 H -0.3803 -0.1928 -2.603 0
M  V30 41 H -1.0807 0.2284 -1.0394 0
M  V30 42 H 0.7934 -2.1745 -1.6248 0
M  V30 43 H 0.1986 -1.7481 0.0092 0
M  V30 44 H 2.5715 -1.0223 -0.595 0
M  V30 45 H 1.8717 0.1727 -1.7399 0
M  V30 46 H 1.3904 0.0201 1.3253 0
M  V30 47 H 0.5595 1.1681 0.2299 0
M  V30 48 H 2.7434 2.1789 -0.4437 0
M  V30 49 H 2.3613 2.3296 1.2877 0
M  V30 50 H 4.4563 1.584 1.6961 0
M  V30 51 H 3.8274 -0.0482 1.3538 0
M  V30 52 H 4.4962 0.231 -1.0744 0
M  V30 53 H 5.1413 1.855 -0.7184 0
M  V30 54 H 6.193 -0.4348 1.0326 0
M  V30 55 H 6.6076 -0.5014 -0.697 0
M  V30 56 H 7.5817 1.8065 -0.6085 0
M  V30 57 H 8.394 0.6252 0.4679 0
M  V30 58 H 6.4221 2.8342 1.3127 0
M  V30 59 H 7.0183 1.5263 2.4234 0
M  V30 60 H 8.1729 2.7025 1.691 0
M  V30 END ATOM
M  V30 BEGIN BOND
M  V30 1 2 1 2
M  V30 2 2 1 3
M  V30 3 1 1 4
M  V30 4 1 1 5
M  V30 5 1 5 6
M  V30 6 1 6 7
M  V30 7 1 6 8
M  V30 8 1 8 9
M  V30 9 1 9 10
M  V30 10 1 9 11
M  V30 11 1 9 12
M  V30 12 1 10 13
M  V30 13 1 13 14
M  V30 14 1 14 15
M  V30 15 1 15 16
M  V30 16 1 16 17
M  V30 17 1 17 18
M  V30 18 1 18 19
M  V30 19 1 19 20
M  V30 20 1 20 21
M  V30 21 1 21 22
M  V30 22 1 22 23
M  V30 23 1 5 24
M  V30 24 1 5 25
M  V30 25 1 6 26
M  V30 26 1 7 27
M  V30 27 1 8 28
M  V30 28 1 8 29
M  V30 29 1 10 30
M  V30 30 1 10 31
M  V30 31 1 11 32
M  V30 32 1 11 33
M  V30 33 1 11 34
M  V30 34 1 12 35
M  V30 35 1 12 36
M  V30 36 1 12 37
M  V30 37 1 13 38
M  V30 38 1 13 39
M  V30 39 1 14 40
M  V30 40 1 14 41
M  V30 41 1 15 42
M  V30 42 1 15 43
M  V30 43 1 16 44
M  V30 44 1 16 45
M  V30 45 1 17 46
M  V30 46 1 17 47
M  V30 47 1 18 48
M  V30 48 1 18 49
M  V30 49 1 19 50
M  V30 50 1 19 51
M  V30 51 1 20 52
M  V30 52 1 20 53
M  V30 53 1 21 54
M  V30 54 1 21 55
M  V30 55 1 22 56
M  V30 56 1 22 57
M  V30 57 1 23 58
M  V30 58 1 23 59
M  V30 59 1 23 60
M  V30 END BOND
M  V30 BEGIN COLLECTION
M  V30 MDLV30/STEABS ATOMS=(1 6)
M  V30 END COLLECTION
M  V30 END CTAB
M  END
>  <Structure No>
1739

>  <LogS>
0.286518104

>  <MMFF94 Energy>
-38.021

$$$$
Compound 1740
Actelion Java MolfileCreator 2.0

  0  0  0  0  0  0              0 V3000
M  V30 BEGIN CTAB
M  V30 COUNTS 20 20 0 0 0
M  V30 BEGIN ATOM
M  V30 1 S 1.5214 2.0289 0.0844 0
M  V30 2 O 0.7904 3.3105 0.3722 0
M  V30 3 O 2.2122 2.1521 -1.244 0
M  V30 4 O 2.6603 1.7865 1.2953 0 CHG=-1
M  V30 5 C 0.3872 0.6685 0.0409 0
M  V30 6 C 0.8361 -0.6706 -0.0541 0
M  V30 7 C -0.9919 0.9322 0.0922 0
M  V30 8 C -0.1069 -1.7108 -0.0672 0
M  V30 9 C 2.3014 -1.0156 -0.1033 0
M  V30 10 C -1.9315 -0.1129 0.0668 0
M  V30 11 C -1.4735 -1.4359 -0.0104 0
M  V30 12 N -3.3433 0.1653 0.1217 0 CHG=1
M  V30 13 O -3.7595 1.3405 0.1923 0
M  V30 14 O -4.26 -0.8609 0.0967 0 CHG=-1
M  V30 15 H -1.337 1.9557 0.1528 0
M  V30 16 H 0.2146 -2.7435 -0.1235 0
M  V30 17 H 2.4593 -2.0836 -0.3649 0
M  V30 18 H 2.7624 -0.8317 0.8889 0
M  V30 19 H 2.8179 -0.4076 -0.8738 0
M  V30 20 H -2.1725 -2.2621 -0.0269 0
M  V30 END ATOM
M  V30 BEGIN BOND
M  V30 1 2 1 2
M  V30 2 2 1 3
M  V30 3 1 1 4
M  V30 4 1 1 5
M  V30 5 2 5 6
M  V30 6 1 5 7
M  V30 7 1 6 8
M  V30 8 1 6 9
M  V30 9 2 7 10
M  V30 10 2 8 11
M  V30 11 1 10 12
M  V30 12 2 12 13
M  V30 13 1 12 14
M  V30 14 1 10 11
M  V30 15 1 7 15
M  V30 16 1 8 16
M  V30 17 1 9 17
M  V30 18 1 9 18
M  V30 19 1 9 19
M  V30 20 1 11 20
M  V30 END BOND
M  V30 END CTAB
M  END
>  <Structure No>
1740

>  <LogS>
0.492439953

>  <MMFF94 Energy>
67.613

$$$$
Compound 1741
Actelion Java MolfileCreator 2.0

  0  0  0  0  0  0              0 V3000
M  V30 BEGIN CTAB
M  V30 COUNTS 7 6 0 0 0
M  V30 BEGIN ATOM
M  V30 1 O 1.3234 1.2455 0.2334 0
M  V30 2 C 0.8048 0.1295 -0.0316 0
M  V30 3 O 1.6173 -0.9448 -0.3706 0 CHG=-1
M  V30 4 C -0.6712 -0.0537 0.074 0
M  V30 5 H -0.9436 -0.2609 1.1298 0
M  V30 6 H -1.1949 0.8644 -0.2664 0
M  V30 7 H -0.9939 -0.9063 -0.5596 0
M  V30 END ATOM
M  V30 BEGIN BOND
M  V30 1 2 1 2
M  V30 2 1 2 3
M  V30 3 1 2 4
M  V30 4 1 4 5
M  V30 5 1 4 6
M  V30 6 1 4 7
M  V30 END BOND
M  V30 END CTAB
M  END
>  <Structure No>
1741

>  <LogS>
0.469225609

>  <MMFF94 Energy>
1.0491

$$$$
Compound 1742
Actelion Java MolfileCreator 2.0

  0  0  0  0  0  0              0 V3000
M  V30 BEGIN CTAB
M  V30 COUNTS 18 18 0 0 0
M  V30 BEGIN ATOM
M  V30 1 Cl -0.0822 2.1395 -1.8925 0
M  V30 2 C -0.6484 0.9459 -0.7275 0
M  V30 3 C 0.2413 0.2134 0.0949 0
M  V30 4 C -2.0282 0.721 -0.6395 0
M  V30 5 C -0.2868 -0.7635 0.9628 0
M  V30 6 C 1.7445 0.4044 0.0056 0 CFG=1
M  V30 7 C -2.5344 -0.2338 0.2435 0
M  V30 8 C -1.6648 -0.978 1.0401 0
M  V30 9 O 2.3485 0.2345 1.2622 0
M  V30 10 C 2.3177 -0.5919 -0.9547 0
M  V30 11 O 2.5802 -0.2517 -2.1384 0
M  V30 12 O 2.5185 -1.9091 -0.5592 0 CHG=-1
M  V30 13 H -2.7117 1.2838 -1.2629 0
M  V30 14 H 0.3689 -1.3639 1.5806 0
M  V30 15 H 1.9905 1.4274 -0.3584 0
M  V30 16 H -3.6019 -0.403 0.3038 0
M  V30 17 H -2.0583 -1.7264 1.7158 0
M  V30 18 H 2.0939 1.0226 1.8107 0
M  V30 END ATOM
M  V30 BEGIN BOND
M  V30 1 1 1 2
M  V30 2 2 2 3
M  V30 3 1 2 4
M  V30 4 1 3 5
M  V30 5 1 3 6
M  V30 6 2 4 7
M  V30 7 2 5 8
M  V30 8 1 6 9
M  V30 9 1 6 10
M  V30 10 2 10 11
M  V30 11 1 10 12
M  V30 12 1 7 8
M  V30 13 1 4 13
M  V30 14 1 5 14
M  V30 15 1 6 15
M  V30 16 1 7 16
M  V30 17 1 8 17
M  V30 18 1 9 18
M  V30 END BOND
M  V30 BEGIN COLLECTION
M  V30 MDLV30/STEABS ATOMS=(1 6)
M  V30 END COLLECTION
M  V30 END CTAB
M  END
>  <Structure No>
1742

>  <LogS>
-0.4390279

>  <MMFF94 Energy>
91.419

$$$$
Compound 1743
Actelion Java MolfileCreator 2.0

  0  0  0  0  0  0              0 V3000
M  V30 BEGIN CTAB
M  V30 COUNTS 67 72 0 0 0
M  V30 BEGIN ATOM
M  V30 1 S 5.9258 -2.0836 -2.3338 0
M  V30 2 O 7.129 -1.428 -2.9499 0
M  V30 3 O 4.7831 -2.0075 -3.3073 0
M  V30 4 O 6.2635 -3.6971 -2.0119 0 CHG=-1
M  V30 5 C 5.5091 -1.2575 -0.8284 0
M  V30 6 C 6.4918 -0.9908 0.1488 0
M  V30 7 C 4.1884 -0.8314 -0.6155 0
M  V30 8 N 7.8457 -1.4385 -0.0293 0
M  V30 9 C 6.1307 -0.3162 1.3261 0
M  V30 10 C 3.8389 -0.1431 0.5605 0
M  V30 11 C 8.9993 -0.6052 0.1877 0
M  V30 12 C 4.8159 0.1055 1.5274 0
M  V30 13 N 2.5004 0.3089 0.7972 0
M  V30 14 C 8.9086 0.8 0.1501 0
M  V30 15 C 10.2549 -1.2035 0.3844 0
M  V30 16 N 1.5809 0.1846 -0.0735 0
M  V30 17 C 10.0517 1.5856 0.3328 0
M  V30 18 C 11.3952 -0.414 0.5657 0
M  V30 19 C 0.2342 0.6283 0.1554 0
M  V30 20 C 11.293 0.9793 0.5433 0
M  V30 21 C -0.7248 0.5361 -0.8765 0
M  V30 22 C -0.1386 1.1637 1.3973 0
M  V30 23 C -2.0598 0.9808 -0.6504 0
M  V30 24 C -0.3718 0.0217 -2.1404 0
M  V30 25 C -1.4493 1.5745 1.6296 0
M  V30 26 C -2.4263 1.4636 0.6334 0
M  V30 27 C -2.9731 0.9624 -1.7263 0
M  V30 28 C -1.3085 -0.0293 -3.1715 0
M  V30 29 N -3.776 1.832 0.9608 0
M  V30 30 C -2.5996 0.4505 -2.9683 0
M  V30 31 N -4.8394 0.9778 0.6204 0
M  V30 32 C -6.1064 1.293 0.6398 0
M  V30 33 C -6.6098 2.6659 0.9188 0
M  V30 34 C -7.1147 0.2478 0.325 0
M  V30 35 O -5.8376 3.6581 0.9835 0
M  V30 36 C -8.0574 2.887 1.0632 0
M  V30 37 C -8.4908 0.5538 0.4255 0
M  V30 38 C -6.727 -1.0451 -0.0724 0
M  V30 39 C -8.9329 1.9043 0.8381 0
M  V30 40 C -9.4482 -0.4268 0.1277 0
M  V30 41 C -7.689 -2.0129 -0.3695 0
M  V30 42 C -9.0516 -1.707 -0.2764 0
M  V30 43 S -10.2694 -2.9233 -0.6465 0
M  V30 44 O -9.6627 -4.0348 -1.4557 0
M  V30 45 O -11.3808 -2.2975 -1.4412 0
M  V30 46 O -10.8842 -3.5512 0.7848 0 CHG=-1
M  V30 47 H 3.4333 -1.0337 -1.3639 0
M  V30 48 H 7.9989 -2.4244 -0.3376 0
M  V30 49 H 6.8714 -0.1247 2.0925 0
M  V30 50 H 4.5553 0.6284 2.4398 0
M  V30 51 H 7.9629 1.2908 -0.0392 0
M  V30 52 H 10.3483 -2.2825 0.4024 0
M  V30 53 H 9.9757 2.6648 0.3039 0
M  V30 54 H 12.3586 -0.8825 0.7223 0
M  V30 55 H 12.177 1.5886 0.6823 0
M  V30 56 H 0.5833 1.2532 2.1985 0
M  V30 57 H 0.6299 -0.3379 -2.3414 0
M  V30 58 H -1.7144 1.9579 2.6085 0
M  V30 59 H -3.9709 1.3658 -1.6349 0
M  V30 60 H -1.0274 -0.4257 -4.139 0
M  V30 61 H -3.9095 2.5282 1.728 0
M  V30 62 H -3.3144 0.4346 -3.7806 0
M  V30 63 H -8.4193 3.8699 1.338 0
M  V30 64 H -5.6807 -1.3103 -0.1579 0
M  V30 65 H -9.9912 2.1117 0.9433 0
M  V30 66 H -10.5033 -0.1933 0.2057 0
M  V30 67 H -7.3675 -3.0008 -0.6714 0
M  V30 END ATOM
M  V30 BEGIN BOND
M  V30 1 2 1 2
M  V30 2 2 1 3
M  V30 3 1 1 4
M  V30 4 1 1 5
M  V30 5 2 5 6
M  V30 6 1 5 7
M  V30 7 1 6 8
M  V30 8 1 6 9
M  V30 9 2 7 10
M  V30 10 1 8 11
M  V30 11 2 9 12
M  V30 12 1 10 13
M  V30 13 2 11 14
M  V30 14 1 11 15
M  V30 15 2 13 16
M  V30 16 1 14 17
M  V30 17 2 15 18
M  V30 18 1 16 19
M  V30 19 2 17 20
M  V30 20 1 19 21
M  V30 21 2 19 22
M  V30 22 1 21 23
M  V30 23 2 21 24
M  V30 24 1 22 25
M  V30 25 1 23 26
M  V30 26 2 23 27
M  V30 27 1 24 28
M  V30 28 1 26 29
M  V30 29 1 27 30
M  V30 30 1 29 31
M  V30 31 2 31 32
M  V30 32 1 32 33
M  V30 33 1 32 34
M  V30 34 2 33 35
M  V30 35 1 33 36
M  V30 36 2 34 37
M  V30 37 1 34 38
M  V30 38 2 36 39
M  V30 39 1 37 40
M  V30 40 2 38 41
M  V30 41 2 40 42
M  V30 42 1 42 43
M  V30 43 2 43 44
M  V30 44 2 43 45
M  V30 45 1 43 46
M  V30 46 1 10 12
M  V30 47 1 18 20
M  V30 48 2 25 26
M  V30 49 2 28 30
M  V30 50 1 37 39
M  V30 51 1 41 42
M  V30 52 1 7 47
M  V30 53 1 8 48
M  V30 54 1 9 49
M  V30 55 1 12 50
M  V30 56 1 14 51
M  V30 57 1 15 52
M  V30 58 1 17 53
M  V30 59 1 18 54
M  V30 60 1 20 55
M  V30 61 1 22 56
M  V30 62 1 24 57
M  V30 63 1 25 58
M  V30 64 1 27 59
M  V30 65 1 28 60
M  V30 66 1 29 61
M  V30 67 1 30 62
M  V30 68 1 36 63
M  V30 69 1 38 64
M  V30 70 1 39 65
M  V30 71 1 40 66
M  V30 72 1 41 67
M  V30 END BOND
M  V30 END CTAB
M  END
>  <Structure No>
1743

>  <LogS>
-1.015630004

>  <MMFF94 Energy>
228.72

$$$$
Compound 1744
Actelion Java MolfileCreator 2.0

  0  0  0  0  0  0              0 V3000
M  V30 BEGIN CTAB
M  V30 COUNTS 18 18 0 0 0
M  V30 BEGIN ATOM
M  V30 1 N 0.9281 0.3866 0.0 0
M  V30 2 C 0.2685 1.6263 0.2353 0
M  V30 3 C 2.3473 0.2349 -0.1383 0
M  V30 4 C -0.0892 -0.6593 -0.0694 0
M  V30 5 C -1.034 1.4398 0.3148 0
M  V30 6 C 2.9131 -0.9499 -0.3579 0
M  V30 7 N -1.3377 0.0621 0.1382 0
M  V30 8 C -2.6721 -0.5189 0.1626 0
M  V30 9 H 0.7684 2.5813 0.334 0
M  V30 10 H 2.9815 1.1098 -0.0624 0
M  V30 11 H -0.0849 -1.1399 -1.0711 0
M  V30 12 H 0.0634 -1.4047 0.74 0
M  V30 13 H -1.7683 2.2157 0.4884 0
M  V30 14 H 2.3226 -1.8525 -0.4414 0
M  V30 15 H 3.9881 -1.0238 -0.4567 0
M  V30 16 H -2.6164 -1.6157 -0.0021 0
M  V30 17 H -3.1448 -0.3248 1.148 0
M  V30 18 H -3.2913 -0.0637 -0.6382 0
M  V30 END ATOM
M  V30 BEGIN BOND
M  V30 1 1 1 2
M  V30 2 1 1 3
M  V30 3 1 1 4
M  V30 4 2 2 5
M  V30 5 2 3 6
M  V30 6 1 4 7
M  V30 7 1 7 8
M  V30 8 1 5 7
M  V30 9 1 2 9
M  V30 10 1 3 10
M  V30 11 1 4 11
M  V30 12 1 4 12
M  V30 13 1 5 13
M  V30 14 1 6 14
M  V30 15 1 6 15
M  V30 16 1 8 16
M  V30 17 1 8 17
M  V30 18 1 8 18
M  V30 END BOND
M  V30 END CTAB
M  END
>  <Structure No>
1744

>  <LogS>
0.658580285

>  <MMFF94 Energy>
29.858

$$$$
Compound 1745
Actelion Java MolfileCreator 2.0

  0  0  0  0  0  0              0 V3000
M  V30 BEGIN CTAB
M  V30 COUNTS 14 13 0 0 0
M  V30 BEGIN ATOM
M  V30 1 S 2.1112 0.6492 0.4057 0
M  V30 2 C 0.5219 0.1444 1.1511 0
M  V30 3 C -0.6066 -0.0314 0.1154 0 CFG=2
M  V30 4 N -0.307 -1.1031 -0.8434 0 CHG=1
M  V30 5 C -0.9057 1.2661 -0.5915 0
M  V30 6 O -1.756 2.0613 -0.1111 0
M  V30 7 O -0.2153 1.6211 -1.7448 0 CHG=-1
M  V30 8 H 2.4472 -0.6637 0.0251 0
M  V30 9 H 0.6702 -0.804 1.7104 0
M  V30 10 H 0.2234 0.9204 1.8884 0
M  V30 11 H -1.5211 -0.3255 0.6798 0
M  V30 12 H -1.1364 -1.2606 -1.4615 0
M  V30 13 H 0.5159 -0.8611 -1.4408 0
M  V30 14 H -0.1086 -1.9929 -0.3307 0
M  V30 END ATOM
M  V30 BEGIN BOND
M  V30 1 1 1 2
M  V30 2 1 2 3
M  V30 3 1 3 4
M  V30 4 1 3 5
M  V30 5 2 5 6
M  V30 6 1 5 7
M  V30 7 1 1 8
M  V30 8 1 2 9
M  V30 9 1 2 10
M  V30 10 1 3 11
M  V30 11 1 4 12
M  V30 12 1 4 13
M  V30 13 1 4 14
M  V30 END BOND
M  V30 BEGIN COLLECTION
M  V30 MDLV30/STEABS ATOMS=(1 3)
M  V30 END COLLECTION
M  V30 END CTAB
M  END
>  <Structure No>
1745

>  <LogS>
0.621927102

>  <MMFF94 Energy>
-5.8465

$$$$
Compound 1746
Actelion Java MolfileCreator 2.0

  0  0  0  0  0  0              0 V3000
M  V30 BEGIN CTAB
M  V30 COUNTS 7 6 0 0 0
M  V30 BEGIN ATOM
M  V30 1 O 1.1676 1.3234 -0.5447 0
M  V30 2 C 0.7978 0.2121 -0.0831 0
M  V30 3 O 1.748 -0.7289 0.292 0 CHG=-1
M  V30 4 C -0.6542 -0.1151 0.0062 0
M  V30 5 H -1.2326 0.7904 0.287 0
M  V30 6 H -0.8197 -0.8986 0.7752 0
M  V30 7 H -1.0107 -0.4876 -0.9764 0
M  V30 END ATOM
M  V30 BEGIN BOND
M  V30 1 2 1 2
M  V30 2 1 2 3
M  V30 3 1 2 4
M  V30 4 1 4 5
M  V30 5 1 4 6
M  V30 6 1 4 7
M  V30 END BOND
M  V30 END CTAB
M  END
>  <Structure No>
1746

>  <LogS>
-0.03568317

>  <MMFF94 Energy>
1.0491

$$$$
Compound 1747
Actelion Java MolfileCreator 2.0

  0  0  0  0  0  0              0 V3000
M  V30 BEGIN CTAB
M  V30 COUNTS 15 14 0 0 0
M  V30 BEGIN ATOM
M  V30 1 O 2.5821 -0.4552 0.607 0
M  V30 2 C 1.2421 -0.6857 0.2665 0
M  V30 3 C 0.6174 0.5901 -0.3111 0
M  V30 4 C -0.8216 0.3744 -0.8035 0
M  V30 5 C -1.813 0.1666 0.3411 0
M  V30 6 H 3.098 -0.469 -0.241 0
M  V30 7 H 0.6996 -0.9873 1.1862 0
M  V30 8 H 1.1697 -1.5209 -0.4672 0
M  V30 9 H 1.2317 0.9259 -1.1747 0
M  V30 10 H 0.6413 1.3981 0.4524 0
M  V30 11 H -0.8635 -0.4946 -1.4953 0
M  V30 12 H -1.1352 1.2744 -1.3757 0
M  V30 13 H -2.8451 0.1315 -0.0668 0
M  V30 14 H -1.7493 1.0042 1.0678 0
M  V30 15 H -1.6158 -0.7924 0.863 0
M  V30 END ATOM
M  V30 BEGIN BOND
M  V30 1 1 1 2
M  V30 2 1 2 3
M  V30 3 1 3 4
M  V30 4 1 4 5
M  V30 5 1 1 6
M  V30 6 1 2 7
M  V30 7 1 2 8
M  V30 8 1 3 9
M  V30 9 1 3 10
M  V30 10 1 4 11
M  V30 11 1 4 12
M  V30 12 1 5 13
M  V30 13 1 5 14
M  V30 14 1 5 15
M  V30 END BOND
M  V30 END CTAB
M  END
>  <Structure No>
1747

>  <LogS>
-0.050409053

>  <MMFF94 Energy>
-1.6888

$$$$
Compound 1748
Actelion Java MolfileCreator 2.0

  0  0  0  0  0  0              0 V3000
M  V30 BEGIN CTAB
M  V30 COUNTS 5 4 0 0 0
M  V30 BEGIN ATOM
M  V30 1 S 0.0 0.0 0.0 0
M  V30 2 O -0.0335 -0.9947 -1.1251 0
M  V30 3 O -0.2013 -0.7142 1.3061 0
M  V30 4 O 1.4865 0.7813 0.0125 0 CHG=-1
M  V30 5 O -1.2243 1.1295 -0.2148 0 CHG=-1
M  V30 END ATOM
M  V30 BEGIN BOND
M  V30 1 2 1 2
M  V30 2 2 1 3
M  V30 3 1 1 4
M  V30 4 1 1 5
M  V30 END BOND
M  V30 END CTAB
M  END
>  <Structure No>
1748

>  <LogS>
0.540234161

>  <MMFF94 Energy>
27.585

$$$$
Compound 1749
Actelion Java MolfileCreator 2.0

  0  0  0  0  0  0              0 V3000
M  V30 BEGIN CTAB
M  V30 COUNTS 5 4 0 0 0
M  V30 BEGIN ATOM
M  V30 1 S 0.0 0.0 0.0 0
M  V30 2 O -0.282 -1.1213 -0.9588 0
M  V30 3 O -0.251 -0.4677 1.4053 0
M  V30 4 O 1.6027 0.4778 -0.153 0 CHG=-1
M  V30 5 O -1.0069 1.2989 -0.3458 0 CHG=-1
M  V30 END ATOM
M  V30 BEGIN BOND
M  V30 1 2 1 2
M  V30 2 2 1 3
M  V30 3 1 1 4
M  V30 4 1 1 5
M  V30 END BOND
M  V30 END CTAB
M  END
>  <Structure No>
1749

>  <LogS>
0.631332711

>  <MMFF94 Energy>
27.585

$$$$
Compound 1750
Actelion Java MolfileCreator 2.0

  0  0  0  0  0  0              0 V3000
M  V30 BEGIN CTAB
M  V30 COUNTS 47 49 0 0 0
M  V30 BEGIN ATOM
M  V30 1 S 7.2243 0.4094 -1.6384 0
M  V30 2 O 8.1248 1.4534 -2.2368 0
M  V30 3 O 6.5296 -0.3238 -2.7512 0
M  V30 4 O 8.1424 -0.6732 -0.7412 0 CHG=-1
M  V30 5 C 6.0326 1.1739 -0.5922 0
M  V30 6 C 4.7833 0.5698 -0.3892 0
M  V30 7 C 6.335 2.3769 0.0598 0
M  V30 8 C 3.8316 1.1726 0.4545 0
M  V30 9 C 5.3921 2.9774 0.8979 0
M  V30 10 N 2.5456 0.5831 0.6803 0
M  V30 11 C 4.1447 2.3785 1.0935 0
M  V30 12 N 2.196 -0.5106 0.1314 0
M  V30 13 C 0.91 -1.1007 0.3565 0
M  V30 14 C 0.5972 -2.3055 -0.2829 0
M  V30 15 C -0.0345 -0.5049 1.2077 0
M  V30 16 C -0.6581 -2.9164 -0.0911 0
M  V30 17 C -1.2788 -1.1052 1.4045 0
M  V30 18 O -0.9995 -4.1289 -0.7113 0
M  V30 19 C -1.6079 -2.2959 0.736 0
M  V30 20 C -0.1402 -4.8613 -1.5786 0
M  V30 21 N -2.8747 -2.9388 0.9563 0
M  V30 22 N -4.0153 -2.3589 0.9697 0
M  V30 23 C -4.2666 -0.9915 0.6072 0
M  V30 24 C -3.704 -0.4255 -0.5488 0
M  V30 25 C -5.1634 -0.238 1.3726 0
M  V30 26 C -3.992 0.8972 -0.8965 0
M  V30 27 C -5.4527 1.0853 1.0254 0
M  V30 28 C -4.8619 1.6651 -0.1137 0
M  V30 29 O -5.1161 2.9887 -0.5024 0
M  V30 30 C -5.9767 3.8808 0.1983 0
M  V30 31 H 4.5569 -0.3655 -0.8847 0
M  V30 32 H 7.2994 2.8491 -0.0778 0
M  V30 33 H 5.6287 3.9075 1.3984 0
M  V30 34 H 3.4211 2.8517 1.7455 0
M  V30 35 H 1.3392 -2.7587 -0.9262 0
M  V30 36 H 0.1909 0.418 1.7264 0
M  V30 37 H -1.9824 -0.6465 2.0873 0
M  V30 38 H 0.7821 -5.1617 -1.0381 0
M  V30 39 H -0.6652 -5.7764 -1.9208 0
M  V30 40 H 0.1189 -4.2473 -2.4669 0
M  V30 41 H -3.0536 -1.0089 -1.1872 0
M  V30 42 H -5.6281 -0.6741 2.2481 0
M  V30 43 H -3.5433 1.3256 -1.7837 0
M  V30 44 H -6.1378 1.6462 1.6462 0
M  V30 45 H -7.0102 3.4752 0.2215 0
M  V30 46 H -5.604 4.0373 1.2327 0
M  V30 47 H -5.9905 4.8581 -0.326 0
M  V30 END ATOM
M  V30 BEGIN BOND
M  V30 1 2 1 2
M  V30 2 2 1 3
M  V30 3 1 1 4
M  V30 4 1 1 5
M  V30 5 2 5 6
M  V30 6 1 5 7
M  V30 7 1 6 8
M  V30 8 2 7 9
M  V30 9 1 8 10
M  V30 10 2 8 11
M  V30 11 2 10 12
M  V30 12 1 12 13
M  V30 13 2 13 14
M  V30 14 1 13 15
M  V30 15 1 14 16
M  V30 16 2 15 17
M  V30 17 1 16 18
M  V30 18 2 16 19
M  V30 19 1 18 20
M  V30 20 1 19 21
M  V30 21 2 21 22
M  V30 22 1 22 23
M  V30 23 2 23 24
M  V30 24 1 23 25
M  V30 25 1 24 26
M  V30 26 2 25 27
M  V30 27 2 26 28
M  V30 28 1 28 29
M  V30 29 1 29 30
M  V30 30 1 9 11
M  V30 31 1 17 19
M  V30 32 1 27 28
M  V30 33 1 6 31
M  V30 34 1 7 32
M  V30 35 1 9 33
M  V30 36 1 11 34
M  V30 37 1 14 35
M  V30 38 1 15 36
M  V30 39 1 17 37
M  V30 40 1 20 38
M  V30 41 1 20 39
M  V30 42 1 20 40
M  V30 43 1 24 41
M  V30 44 1 25 42
M  V30 45 1 26 43
M  V30 46 1 27 44
M  V30 47 1 30 45
M  V30 48 1 30 46
M  V30 49 1 30 47
M  V30 END BOND
M  V30 END CTAB
M  END
>  <Structure No>
1750

>  <LogS>
-0.83545917

>  <MMFF94 Energy>
111.97

$$$$
Compound 1751
Actelion Java MolfileCreator 2.0

  0  0  0  0  0  0              0 V3000
M  V30 BEGIN CTAB
M  V30 COUNTS 13 13 0 0 0
M  V30 BEGIN ATOM
M  V30 1 S 0.7222 2.7306 -0.5617 0
M  V30 2 C 0.194 1.2092 -0.2448 0
M  V30 3 N 1.0805 0.2038 0.0353 0
M  V30 4 C -1.182 0.9464 -0.2637 0
M  V30 5 O 2.436 0.4686 0.0525 0
M  V30 6 C 0.6406 -1.0624 0.2989 0
M  V30 7 C -1.6385 -0.3433 0.0044 0
M  V30 8 C -0.7243 -1.3557 0.2877 0
M  V30 9 H -1.896 1.7312 -0.4835 0
M  V30 10 H 3.1159 -0.255 0.2566 0
M  V30 11 H 1.3483 -1.8517 0.5196 0
M  V30 12 H -2.6994 -0.5575 -0.0074 0
M  V30 13 H -1.0693 -2.36 0.4972 0
M  V30 END ATOM
M  V30 BEGIN BOND
M  V30 1 2 1 2
M  V30 2 1 2 3
M  V30 3 1 2 4
M  V30 4 1 3 5
M  V30 5 1 3 6
M  V30 6 2 4 7
M  V30 7 2 6 8
M  V30 8 1 7 8
M  V30 9 1 4 9
M  V30 10 1 5 10
M  V30 11 1 6 11
M  V30 12 1 7 12
M  V30 13 1 8 13
M  V30 END BOND
M  V30 END CTAB
M  END
>  <Structure No>
1751

>  <LogS>
0.637012443

>  <MMFF94 Energy>
31.203

$$$$
Compound 1752
Actelion Java MolfileCreator 2.0

  0  0  0  0  0  0              0 V3000
M  V30 BEGIN CTAB
M  V30 COUNTS 19 19 0 0 0
M  V30 BEGIN ATOM
M  V30 1 O 2.2553 1.8523 1.6911 0
M  V30 2 C 1.694 0.8988 1.0916 0
M  V30 3 O 0.3473 0.5966 1.1933 0
M  V30 4 C 2.3334 -0.0396 0.2056 0
M  V30 5 C 0.0573 -0.5427 0.3776 0 CFG=2
M  V30 6 O 3.6782 -0.0735 -0.1477 0
M  V30 7 C 1.4056 -0.8802 -0.2148 0
M  V30 8 C -0.9773 -0.1873 -0.713 0 CFG=1
M  V30 9 O 1.6539 -1.9441 -1.0739 0 CHG=-1
M  V30 10 O -1.1494 -1.264 -1.6012 0
M  V30 11 C -2.3348 0.2125 -0.1105 0
M  V30 12 O -2.2279 1.4378 0.5601 0
M  V30 13 H -0.2979 -1.3822 1.014 0
M  V30 14 H 4.3278 0.6095 0.2223 0
M  V30 15 H -0.5933 0.676 -1.3004 0
M  V30 16 H -1.4872 -2.0357 -1.0747 0
M  V30 17 H -2.6864 -0.5766 0.592 0
M  V30 18 H -3.0799 0.3102 -0.9318 0
M  V30 19 H -3.1285 1.6284 0.9311 0
M  V30 END ATOM
M  V30 BEGIN BOND
M  V30 1 2 1 2
M  V30 2 1 2 3
M  V30 3 1 2 4
M  V30 4 1 3 5
M  V30 5 1 4 6
M  V30 6 2 4 7
M  V30 7 1 5 8
M  V30 8 1 7 9
M  V30 9 1 8 10
M  V30 10 1 8 11
M  V30 11 1 11 12
M  V30 12 1 5 7
M  V30 13 1 5 13
M  V30 14 1 6 14
M  V30 15 1 8 15
M  V30 16 1 10 16
M  V30 17 1 11 17
M  V30 18 1 11 18
M  V30 19 1 12 19
M  V30 END BOND
M  V30 BEGIN COLLECTION
M  V30 MDLV30/STEABS ATOMS=(2 5 8)
M  V30 END COLLECTION
M  V30 END CTAB
M  END
>  <Structure No>
1752

>  <LogS>
0.511043092

>  <MMFF94 Energy>
63.995

$$$$
Compound 1753
Actelion Java MolfileCreator 2.0

  0  0  0  0  0  0              0 V3000
M  V30 BEGIN CTAB
M  V30 COUNTS 70 73 0 0 0
M  V30 BEGIN ATOM
M  V30 1 Cl -6.6317 5.801 -0.1654 0
M  V30 2 C -4.9195 5.6637 0.3082 0
M  V30 3 C -4.6785 4.3461 0.9733 0
M  V30 4 O -5.1577 4.1349 2.1216 0
M  V30 5 N -3.9425 3.3179 0.2991 0
M  V30 6 C -3.646 2.0403 0.9458 0
M  V30 7 C -2.805 1.1602 0.0295 0
M  V30 8 C -1.3894 1.2251 0.0892 0
M  V30 9 C -3.4301 0.3039 -0.9193 0
M  V30 10 C -0.6133 0.3966 -0.7497 0
M  V30 11 C -0.7075 2.1598 1.068 0
M  V30 12 C -2.646 -0.6323 -1.6465 0
M  V30 13 C -4.9297 0.3694 -1.141 0
M  V30 14 N 0.8215 0.4781 -0.7062 0
M  V30 15 C -1.2305 -0.5247 -1.6215 0
M  V30 16 C -3.2977 -1.8056 -2.3761 0
M  V30 17 C 1.6227 -0.2137 0.2738 0
M  V30 18 C -0.3611 -1.4655 -2.4392 0
M  V30 19 N -2.9162 -3.0698 -1.7489 0
M  V30 20 C 2.9534 0.191 0.5581 0
M  V30 21 C 1.1051 -1.3565 0.8977 0
M  V30 22 C -3.0472 -4.3232 -2.431 0
M  V30 23 C 3.5093 1.4776 0.0377 0
M  V30 24 C 3.7734 -0.6226 1.3861 0
M  V30 25 C 1.8998 -2.1697 1.706 0
M  V30 26 O -3.6048 -4.377 -3.5623 0
M  V30 27 C -2.5652 -5.5832 -1.7875 0
M  V30 28 O 2.7468 2.3815 -0.3987 0
M  V30 29 C 4.962 1.7352 0.0946 0
M  V30 30 C 5.162 -0.1613 1.6947 0
M  V30 31 C 3.2517 -1.8298 1.9266 0
M  V30 32 S 1.1965 -3.6536 2.3704 0
M  V30 33 Cl -3.9247 -6.4095 -0.9876 0
M  V30 34 C 5.7754 0.9271 0.9065 0
M  V30 35 C 5.5339 2.8031 -0.6192 0
M  V30 36 O 5.8035 -0.6475 2.6654 0
M  V30 37 N 4.0981 -2.7336 2.6538 0
M  V30 38 O -0.1759 -3.8906 1.8067 0
M  V30 39 O 1.0947 -3.5287 3.8655 0
M  V30 40 O 2.1667 -4.9687 1.9753 0 CHG=-1
M  V30 41 C 7.1539 1.1943 0.9933 0
M  V30 42 C 6.9044 3.0566 -0.5305 0
M  V30 43 C 7.7136 2.2525 0.2738 0
M  V30 44 H -4.2791 5.7703 -0.5918 0
M  V30 45 H -4.6719 6.4915 1.0066 0
M  V30 46 H -3.6268 3.4879 -0.6831 0
M  V30 47 H -4.591 1.5302 1.2264 0
M  V30 48 H -3.1365 2.2246 1.9121 0
M  V30 49 H -0.8399 1.7711 2.1013 0
M  V30 50 H 0.3826 2.2675 0.888 0
M  V30 51 H -1.1408 3.1808 0.9905 0
M  V30 52 H -5.1682 0.2623 -2.2194 0
M  V30 53 H -5.4305 -0.4271 -0.5549 0
M  V30 54 H -5.3667 1.354 -0.8742 0
M  V30 55 H 1.2893 0.8966 -1.5393 0
M  V30 56 H -2.9869 -1.7928 -3.4396 0
M  V30 57 H -4.4016 -1.7669 -2.3958 0
M  V30 58 H -0.803 -1.6634 -3.4356 0
M  V30 59 H -0.2242 -2.4223 -1.8912 0
M  V30 60 H 0.6406 -1.0387 -2.6493 0
M  V30 61 H -2.5529 -3.0697 -0.7673 0
M  V30 62 H 0.0842 -1.6524 0.7016 0
M  V30 63 H -2.1298 -6.2586 -2.5555 0
M  V30 64 H -1.7812 -5.3562 -1.0337 0
M  V30 65 H 4.921 3.4368 -1.2448 0
M  V30 66 H 3.7274 -3.3352 3.4192 0
M  V30 67 H 5.0746 -2.9183 2.3381 0
M  V30 68 H 7.7951 0.5878 1.6192 0
M  V30 69 H 7.3384 3.8805 -1.0827 0
M  V30 70 H 8.7758 2.4535 0.3432 0
M  V30 END ATOM
M  V30 BEGIN BOND
M  V30 1 1 1 2
M  V30 2 1 2 3
M  V30 3 2 3 4
M  V30 4 1 3 5
M  V30 5 1 5 6
M  V30 6 1 6 7
M  V30 7 2 7 8
M  V30 8 1 7 9
M  V30 9 1 8 10
M  V30 10 1 8 11
M  V30 11 2 9 12
M  V30 12 1 9 13
M  V30 13 1 10 14
M  V30 14 2 10 15
M  V30 15 1 12 16
M  V30 16 1 14 17
M  V30 17 1 15 18
M  V30 18 1 16 19
M  V30 19 2 17 20
M  V30 20 1 17 21
M  V30 21 1 19 22
M  V30 22 1 20 23
M  V30 23 1 20 24
M  V30 24 2 21 25
M  V30 25 2 22 26
M  V30 26 1 22 27
M  V30 27 2 23 28
M  V30 28 1 23 29
M  V30 29 1 24 30
M  V30 30 2 24 31
M  V30 31 1 25 32
M  V30 32 1 27 33
M  V30 33 2 29 34
M  V30 34 1 29 35
M  V30 35 2 30 36
M  V30 36 1 31 37
M  V30 37 2 32 38
M  V30 38 2 32 39
M  V30 39 1 32 40
M  V30 40 1 34 41
M  V30 41 2 35 42
M  V30 42 2 41 43
M  V30 43 1 12 15
M  V30 44 1 25 31
M  V30 45 1 30 34
M  V30 46 1 42 43
M  V30 47 1 2 44
M  V30 48 1 2 45
M  V30 49 1 5 46
M  V30 50 1 6 47
M  V30 51 1 6 48
M  V30 52 1 11 49
M  V30 53 1 11 50
M  V30 54 1 11 51
M  V30 55 1 13 52
M  V30 56 1 13 53
M  V30 57 1 13 54
M  V30 58 1 14 55
M  V30 59 1 16 56
M  V30 60 1 16 57
M  V30 61 1 18 58
M  V30 62 1 18 59
M  V30 63 1 18 60
M  V30 64 1 19 61
M  V30 65 1 21 62
M  V30 66 1 27 63
M  V30 67 1 27 64
M  V30 68 1 35 65
M  V30 69 1 37 66
M  V30 70 1 37 67
M  V30 71 1 41 68
M  V30 72 1 42 69
M  V30 73 1 43 70
M  V30 END BOND
M  V30 END CTAB
M  END
>  <Structure No>
1753

>  <LogS>
-1.017551933

>  <MMFF94 Energy>
124.68

$$$$
Compound 1754
Actelion Java MolfileCreator 2.0

  0  0  0  0  0  0              0 V3000
M  V30 BEGIN CTAB
M  V30 COUNTS 16 15 0 0 0
M  V30 BEGIN ATOM
M  V30 1 O 2.2056 0.9882 0.0759 0
M  V30 2 C 1.8088 -0.31 0.4176 0
M  V30 3 C 0.5941 -0.6993 -0.3797 0
M  V30 4 C -0.6238 -0.1378 -0.2194 0
M  V30 5 C -1.7618 -0.6251 -1.0786 0
M  V30 6 C -0.8693 0.9505 0.799 0
M  V30 7 H 2.9912 1.1945 0.6463 0
M  V30 8 H 2.633 -1.0198 0.1848 0
M  V30 9 H 1.588 -0.3769 1.5059 0
M  V30 10 H 0.7162 -1.4932 -1.1126 0
M  V30 11 H -1.9271 -1.7092 -0.903 0
M  V30 12 H -2.7067 -0.0885 -0.8528 0
M  V30 13 H -1.5183 -0.4639 -2.1501 0
M  V30 14 H -1.9304 1.2757 0.7992 0
M  V30 15 H -0.2428 1.837 0.5685 0
M  V30 16 H -0.6274 0.5804 1.8171 0
M  V30 END ATOM
M  V30 BEGIN BOND
M  V30 1 1 1 2
M  V30 2 1 2 3
M  V30 3 2 3 4
M  V30 4 1 4 5
M  V30 5 1 4 6
M  V30 6 1 1 7
M  V30 7 1 2 8
M  V30 8 1 2 9
M  V30 9 1 3 10
M  V30 10 1 5 11
M  V30 11 1 5 12
M  V30 12 1 5 13
M  V30 13 1 6 14
M  V30 14 1 6 15
M  V30 15 1 6 16
M  V30 END BOND
M  V30 END CTAB
M  END
>  <Structure No>
1754

>  <LogS>
-0.128994642

>  <MMFF94 Energy>
-1.5241

$$$$
Compound 1755
Actelion Java MolfileCreator 2.0

  0  0  0  0  0  0              0 V3000
M  V30 BEGIN CTAB
M  V30 COUNTS 7 6 0 0 0
M  V30 BEGIN ATOM
M  V30 1 S -0.62 -0.1771 0.0 0
M  V30 2 O -1.2879 0.0847 1.3201 0
M  V30 3 O -1.0477 -1.5209 -0.5178 0
M  V30 4 O -1.0667 1.0131 -1.0979 0 CHG=-1
M  V30 5 N 1.0954 -0.1583 0.2079 0
M  V30 6 H 1.3533 0.8052 0.5181 0
M  V30 7 H 1.5175 -0.2921 -0.7381 0
M  V30 END ATOM
M  V30 BEGIN BOND
M  V30 1 2 1 2
M  V30 2 2 1 3
M  V30 3 1 1 4
M  V30 4 1 1 5
M  V30 5 1 5 6
M  V30 6 1 5 7
M  V30 END BOND
M  V30 END CTAB
M  END
>  <Structure No>
1755

>  <LogS>
0.438861216

>  <MMFF94 Energy>
-168

$$$$
Compound 1756
Actelion Java MolfileCreator 2.0

  0  0  0  0  0  0              0 V3000
M  V30 BEGIN CTAB
M  V30 COUNTS 26 25 0 0 0
M  V30 BEGIN ATOM
M  V30 1 N -3.633 0.6047 0.3023 0 CHG=1
M  V30 2 C -2.4935 -0.1572 0.8116 0
M  V30 3 C -1.3576 -0.2009 -0.2191 0
M  V30 4 C -0.154 -0.9866 0.3208 0
M  V30 5 C 0.9446 -1.1994 -0.7357 0
M  V30 6 C 1.5761 0.0931 -1.2898 0
M  V30 7 C 2.2043 1.0138 -0.2271 0
M  V30 8 N 3.2777 0.3514 0.5159 0 CHG=1
M  V30 9 H -3.3455 1.5902 0.1016 0
M  V30 10 H -4.3889 0.6137 1.0247 0
M  V30 11 H -4.0027 0.1593 -0.5688 0
M  V30 12 H -2.8222 -1.1937 1.0489 0
M  V30 13 H -2.126 0.3145 1.7502 0
M  V30 14 H -1.0495 0.8403 -0.4529 0
M  V30 15 H -1.7275 -0.6814 -1.1511 0
M  V30 16 H -0.5003 -1.9904 0.6518 0
M  V30 17 H 0.2636 -0.4776 1.2151 0
M  V30 18 H 0.5145 -1.7705 -1.5871 0
M  V30 19 H 1.7408 -1.8398 -0.3002 0
M  V30 20 H 2.3619 -0.19 -2.0234 0
M  V30 21 H 0.8125 0.6666 -1.8567 0
M  V30 22 H 1.428 1.3847 0.476 0
M  V30 23 H 2.6209 1.9052 -0.7463 0
M  V30 24 H 2.8828 -0.3786 1.1507 0
M  V30 25 H 3.965 -0.0805 -0.1435 0
M  V30 26 H 3.7742 1.0616 1.101 0
M  V30 END ATOM
M  V30 BEGIN BOND
M  V30 1 1 1 2
M  V30 2 1 2 3
M  V30 3 1 3 4
M  V30 4 1 4 5
M  V30 5 1 5 6
M  V30 6 1 6 7
M  V30 7 1 7 8
M  V30 8 1 1 9
M  V30 9 1 1 10
M  V30 10 1 1 11
M  V30 11 1 2 12
M  V30 12 1 2 13
M  V30 13 1 3 14
M  V30 14 1 3 15
M  V30 15 1 4 16
M  V30 16 1 4 17
M  V30 17 1 5 18
M  V30 18 1 5 19
M  V30 19 1 6 20
M  V30 20 1 6 21
M  V30 21 1 7 22
M  V30 22 1 7 23
M  V30 23 1 8 24
M  V30 24 1 8 25
M  V30 25 1 8 26
M  V30 END BOND
M  V30 END CTAB
M  END
>  <Structure No>
1756

>  <LogS>
0.738903406

>  <MMFF94 Energy>
40.399

$$$$
Compound 1757
Actelion Java MolfileCreator 2.0

  0  0  0  0  0  0              0 V3000
M  V30 BEGIN CTAB
M  V30 COUNTS 8 7 0 0 0
M  V30 BEGIN ATOM
M  V30 1 S 1.0335 -0.0861 -0.7751 0 CFG=2
M  V30 2 O 2.0009 -1.0774 -0.1432 0
M  V30 3 O 1.5597 1.4133 -0.1658 0 CHG=-1
M  V30 4 C -0.5101 -0.3846 0.1102 0
M  V30 5 O -1.504 0.4847 -0.3541 0
M  V30 6 H -0.8326 -1.4298 -0.075 0
M  V30 7 H -0.3536 -0.2532 1.2042 0
M  V30 8 H -1.2887 1.38 0.0161 0
M  V30 END ATOM
M  V30 BEGIN BOND
M  V30 1 2 1 2
M  V30 2 1 1 3
M  V30 3 1 1 4
M  V30 4 1 4 5
M  V30 5 1 4 6
M  V30 6 1 4 7
M  V30 7 1 5 8
M  V30 END BOND
M  V30 BEGIN COLLECTION
M  V30 MDLV30/STEABS ATOMS=(1 1)
M  V30 END COLLECTION
M  V30 END CTAB
M  END
>  <Structure No>
1757

>  <LogS>
0.731520726

>  <MMFF94 Energy>
12.219

$$$$
Compound 1758
Actelion Java MolfileCreator 2.0

  0  0  0  0  0  0              0 V3000
M  V30 BEGIN CTAB
M  V30 COUNTS 9 9 0 0 0
M  V30 BEGIN ATOM
M  V30 1 N 0.0 -1.3819 -0.0767 0
M  V30 2 C -1.0571 -0.5512 0.039 0
M  V30 3 C 1.0709 -0.5689 0.0184 0
M  V30 4 N -0.6934 0.734 0.2007 0
M  V30 5 C 0.6475 0.7292 0.1886 0
M  V30 6 H -2.0862 -0.8839 0.0052 0
M  V30 7 H 2.098 -0.904 -0.0333 0
M  V30 8 H -1.3218 1.5602 0.3122 0
M  V30 9 H 1.2712 1.6069 0.2959 0
M  V30 END ATOM
M  V30 BEGIN BOND
M  V30 1 2 1 2
M  V30 2 1 1 3
M  V30 3 1 2 4
M  V30 4 2 3 5
M  V30 5 1 4 5
M  V30 6 1 2 6
M  V30 7 1 3 7
M  V30 8 1 4 8
M  V30 9 1 5 9
M  V30 END BOND
M  V30 END CTAB
M  END
>  <Structure No>
1758

>  <LogS>
0.968390542

>  <MMFF94 Energy>
-0.75543

$$$$
Compound 1759
Actelion Java MolfileCreator 2.0

  0  0  0  0  0  0              0 V3000
M  V30 BEGIN CTAB
M  V30 COUNTS 15 14 0 0 0
M  V30 BEGIN ATOM
M  V30 1 O -1.8278 -1.7482 0.6354 0
M  V30 2 C -1.4295 -1.1913 -0.4219 0
M  V30 3 O -1.9094 -1.63 -1.6496 0 CHG=-1
M  V30 4 C -0.4265 -0.0702 -0.3635 0 CFG=1
M  V30 5 N -0.9217 1.0108 0.5001 0 CHG=1
M  V30 6 C 0.9319 -0.6085 0.129 0
M  V30 7 C 2.0122 0.4216 0.0042 0
M  V30 8 O 2.3924 1.0683 1.0156 0
M  V30 9 O 2.576 0.6905 -1.2364 0 CHG=-1
M  V30 10 H -0.2976 0.3278 -1.3959 0
M  V30 11 H -1.869 1.3165 0.1778 0
M  V30 12 H -0.2822 1.836 0.4443 0
M  V30 13 H -0.9847 0.6918 1.4947 0
M  V30 14 H 0.8518 -0.9439 1.1867 0
M  V30 15 H 1.2253 -1.4904 -0.4813 0
M  V30 END ATOM
M  V30 BEGIN BOND
M  V30 1 2 1 2
M  V30 2 1 2 3
M  V30 3 1 2 4
M  V30 4 1 4 5
M  V30 5 1 4 6
M  V30 6 1 6 7
M  V30 7 2 7 8
M  V30 8 1 7 9
M  V30 9 1 4 10
M  V30 10 1 5 11
M  V30 11 1 5 12
M  V30 12 1 5 13
M  V30 13 1 6 14
M  V30 14 1 6 15
M  V30 END BOND
M  V30 BEGIN COLLECTION
M  V30 MDLV30/STEABS ATOMS=(1 4)
M  V30 END COLLECTION
M  V30 END CTAB
M  END
>  <Structure No>
1759

>  <LogS>
0.609927332

>  <MMFF94 Energy>
-55.74

$$$$
Compound 1760
Actelion Java MolfileCreator 2.0

  0  0  0  0  0  0              0 V3000
M  V30 BEGIN CTAB
M  V30 COUNTS 19 18 0 0 0
M  V30 BEGIN ATOM
M  V30 1 O -0.9223 -0.7685 0.9992 0
M  V30 2 O -1.2068 -1.8656 0.3178 0
M  V30 3 C -0.4242 0.2003 0.0913 0
M  V30 4 C 0.8591 -0.3023 -0.6353 0
M  V30 5 C -1.5016 0.5644 -0.9557 0
M  V30 6 C -0.1077 1.4699 0.9038 0
M  V30 7 C 1.9487 -0.8103 0.313 0
M  V30 8 H -2.1937 -1.9454 0.3669 0
M  V30 9 H 1.2838 0.5144 -1.2594 0
M  V30 10 H 0.5969 -1.1304 -1.3296 0
M  V30 11 H -1.1588 1.4074 -1.5939 0
M  V30 12 H -1.7218 -0.2975 -1.6207 0
M  V30 13 H -2.4457 0.8626 -0.4509 0
M  V30 14 H -1.0389 1.8912 1.3406 0
M  V30 15 H 0.3627 2.2465 0.2628 0
M  V30 16 H 0.5754 1.2399 1.7477 0
M  V30 17 H 1.5524 -1.6005 0.9842 0
M  V30 18 H 2.7797 -1.2439 -0.2822 0
M  V30 19 H 2.363 0.0199 0.9207 0
M  V30 END ATOM
M  V30 BEGIN BOND
M  V30 1 1 1 2
M  V30 2 1 1 3
M  V30 3 1 3 4
M  V30 4 1 3 5
M  V30 5 1 3 6
M  V30 6 1 4 7
M  V30 7 1 2 8
M  V30 8 1 4 9
M  V30 9 1 4 10
M  V30 10 1 5 11
M  V30 11 1 5 12
M  V30 12 1 5 13
M  V30 13 1 6 14
M  V30 14 1 6 15
M  V30 15 1 6 16
M  V30 16 1 7 17
M  V30 17 1 7 18
M  V30 18 1 7 19
M  V30 END BOND
M  V30 END CTAB
M  END
>  <Structure No>
1760

>  <LogS>
-0.216594575

>  <MMFF94 Energy>
22.319

$$$$
Compound 1761
Actelion Java MolfileCreator 2.0

  0  0  0  0  0  0              0 V3000
M  V30 BEGIN CTAB
M  V30 COUNTS 21 21 0 0 0
M  V30 BEGIN ATOM
M  V30 1 N -2.3153 -0.4627 0.6941 0 CHG=1
M  V30 2 C -2.0743 0.401 -0.4632 0
M  V30 3 C -0.8381 1.2916 -0.2657 0
M  V30 4 C 0.4338 0.4849 -0.2151 0
M  V30 5 C 1.0235 0.1617 1.0188 0
M  V30 6 C 1.0219 0.0176 -1.4024 0
M  V30 7 C 2.1908 -0.607 1.0614 0
M  V30 8 C 2.1894 -0.7506 -1.3551 0
M  V30 9 C 2.7739 -1.0618 -0.1243 0
M  V30 10 H -2.384 0.1105 1.5663 0
M  V30 11 H -3.2167 -0.9739 0.5553 0
M  V30 12 H -1.5466 -1.1647 0.7892 0
M  V30 13 H -2.9598 1.0562 -0.6187 0
M  V30 14 H -1.9524 -0.2212 -1.3775 0
M  V30 15 H -0.9555 1.8965 0.66 0
M  V30 16 H -0.7778 2.0114 -1.1109 0
M  V30 17 H 0.578 0.501 1.9458 0
M  V30 18 H 0.5754 0.2473 -2.3618 0
M  V30 19 H 2.6419 -0.8523 2.0142 0
M  V30 20 H 2.6397 -1.1066 -2.2726 0
M  V30 21 H 3.6768 -1.6575 -0.0894 0
M  V30 END ATOM
M  V30 BEGIN BOND
M  V30 1 1 1 2
M  V30 2 1 2 3
M  V30 3 1 3 4
M  V30 4 2 4 5
M  V30 5 1 4 6
M  V30 6 1 5 7
M  V30 7 2 6 8
M  V30 8 2 7 9
M  V30 9 1 8 9
M  V30 10 1 1 10
M  V30 11 1 1 11
M  V30 12 1 1 12
M  V30 13 1 2 13
M  V30 14 1 2 14
M  V30 15 1 3 15
M  V30 16 1 3 16
M  V30 17 1 5 17
M  V30 18 1 6 18
M  V30 19 1 7 19
M  V30 20 1 8 20
M  V30 21 1 9 21
M  V30 END BOND
M  V30 END CTAB
M  END
>  <Structure No>
1761

>  <LogS>
-0.28238117

>  <MMFF94 Energy>
30.647

$$$$
Compound 1762
Actelion Java MolfileCreator 2.0

  0  0  0  0  0  0              0 V3000
M  V30 BEGIN CTAB
M  V30 COUNTS 30 30 0 0 0
M  V30 BEGIN ATOM
M  V30 1 O 0.1583 -2.0606 1.1091 0 RAD=2
M  V30 2 N 0.0565 -0.7386 0.8034 0
M  V30 3 C -1.2623 -0.4461 0.1738 0
M  V30 4 C 1.2935 -0.2591 0.1175 0
M  V30 5 C -1.4174 1.0865 -0.1147 0
M  V30 6 C -1.4698 -1.2547 -1.1323 0
M  V30 7 C -2.3756 -0.8611 1.1641 0
M  V30 8 C 1.0243 1.0299 -0.7105 0
M  V30 9 C 2.3246 0.0658 1.2192 0
M  V30 10 C 1.9224 -1.334 -0.809 0
M  V30 11 C -0.0945 1.8645 -0.0847 0
M  V30 12 O -0.2493 3.0687 -0.79 0
M  V30 13 H -1.908 1.2422 -1.102 0
M  V30 14 H -2.0921 1.5716 0.6261 0
M  V30 15 H -0.8434 -0.8671 -1.958 0
M  V30 16 H -1.2433 -2.331 -0.981 0
M  V30 17 H -2.525 -1.1751 -1.4728 0
M  V30 18 H -2.3787 -1.9601 1.3275 0
M  V30 19 H -2.2209 -0.3653 2.1469 0
M  V30 20 H -3.377 -0.5711 0.7776 0
M  V30 21 H 0.7368 0.7806 -1.7549 0
M  V30 22 H 1.948 1.6453 -0.7897 0
M  V30 23 H 3.2797 0.4282 0.7805 0
M  V30 24 H 1.9354 0.8457 1.9071 0
M  V30 25 H 2.5449 -0.8394 1.8251 0
M  V30 26 H 2.2618 -2.2189 -0.2294 0
M  V30 27 H 2.8109 -0.9178 -1.3318 0
M  V30 28 H 1.2118 -1.6833 -1.5807 0
M  V30 29 H 0.1569 2.0888 0.9781 0
M  V30 30 H 0.5007 3.6596 -0.5177 0
M  V30 END ATOM
M  V30 BEGIN BOND
M  V30 1 1 1 2
M  V30 2 1 2 3
M  V30 3 1 2 4
M  V30 4 1 3 5
M  V30 5 1 3 6
M  V30 6 1 3 7
M  V30 7 1 4 8
M  V30 8 1 4 9
M  V30 9 1 4 10
M  V30 10 1 5 11
M  V30 11 1 11 12
M  V30 12 1 8 11
M  V30 13 1 5 13
M  V30 14 1 5 14
M  V30 15 1 6 15
M  V30 16 1 6 16
M  V30 17 1 6 17
M  V30 18 1 7 18
M  V30 19 1 7 19
M  V30 20 1 7 20
M  V30 21 1 8 21
M  V30 22 1 8 22
M  V30 23 1 9 23
M  V30 24 1 9 24
M  V30 25 1 9 25
M  V30 26 1 10 26
M  V30 27 1 10 27
M  V30 28 1 10 28
M  V30 29 1 11 29
M  V30 30 1 12 30
M  V30 END BOND
M  V30 END CTAB
M  END
>  <Structure No>
1762

>  <LogS>
0.562703544

>  <MMFF94 Energy>
27.359

$$$$
Compound 1763
Actelion Java MolfileCreator 2.0

  0  0  0  0  0  0              0 V3000
M  V30 BEGIN CTAB
M  V30 COUNTS 17 18 0 0 0
M  V30 BEGIN ATOM
M  V30 1 N 1.8263 -2.1442 0.238 0
M  V30 2 N 0.4968 -2.0781 0.1735 0
M  V30 3 N 2.3723 -0.9335 0.1791 0
M  V30 4 C 0.202 -0.769 0.0703 0
M  V30 5 C 1.3626 -0.062 0.0731 0
M  V30 6 C -1.0458 -0.1487 -0.03 0
M  V30 7 C 1.3962 1.3242 -0.0322 0
M  V30 8 C -1.0525 1.2603 -0.1543 0
M  V30 9 C -2.3157 -0.9438 -0.0749 0
M  V30 10 C 0.1609 1.9902 -0.1489 0
M  V30 11 H 3.3957 -0.7296 0.2085 0
M  V30 12 H 2.3316 1.8682 -0.0308 0
M  V30 13 H -1.9893 1.7936 -0.2559 0
M  V30 14 H -2.4735 -1.3298 -1.1035 0
M  V30 15 H -2.2597 -1.7994 0.6306 0
M  V30 16 H -3.1849 -0.3149 0.2125 0
M  V30 17 H 0.1395 3.0684 -0.2404 0
M  V30 END ATOM
M  V30 BEGIN BOND
M  V30 1 2 1 2
M  V30 2 1 1 3
M  V30 3 1 2 4
M  V30 4 1 3 5
M  V30 5 1 4 6
M  V30 6 1 5 7
M  V30 7 2 6 8
M  V30 8 1 6 9
M  V30 9 2 7 10
M  V30 10 2 4 5
M  V30 11 1 8 10
M  V30 12 1 3 11
M  V30 13 1 7 12
M  V30 14 1 8 13
M  V30 15 1 9 14
M  V30 16 1 9 15
M  V30 17 1 9 16
M  V30 18 1 10 17
M  V30 END BOND
M  V30 END CTAB
M  END
>  <Structure No>
1763

>  <LogS>
0.605167428

>  <MMFF94 Energy>
22.076

$$$$
Compound 1764
Actelion Java MolfileCreator 2.0

  0  0  0  0  0  0              0 V3000
M  V30 BEGIN CTAB
M  V30 COUNTS 11 11 0 0 0
M  V30 BEGIN ATOM
M  V30 1 O 2.1866 -1.3763 -0.0809 0
M  V30 2 C 1.0662 -0.8131 -0.1878 0
M  V30 3 O 0.1134 -1.211 -1.1013 0
M  V30 4 C 0.629 0.3426 0.6482 0
M  V30 5 C -0.9779 -0.3835 -0.9438 0
M  V30 6 C -0.7873 0.6403 0.1244 0
M  V30 7 O -2.0224 -0.4917 -1.6376 0
M  V30 8 H 1.3047 1.2103 0.4899 0
M  V30 9 H 0.6065 0.0553 1.7213 0
M  V30 10 H -0.8479 1.6627 -0.3063 0
M  V30 11 H -1.5461 0.5076 0.9251 0
M  V30 END ATOM
M  V30 BEGIN BOND
M  V30 1 2 1 2
M  V30 2 1 2 3
M  V30 3 1 2 4
M  V30 4 1 3 5
M  V30 5 1 4 6
M  V30 6 2 5 7
M  V30 7 1 5 6
M  V30 8 1 4 8
M  V30 9 1 4 9
M  V30 10 1 6 10
M  V30 11 1 6 11
M  V30 END BOND
M  V30 END CTAB
M  END
>  <Structure No>
1764

>  <LogS>
-0.201666274

>  <MMFF94 Energy>
-35.59

$$$$
Compound 1765
Actelion Java MolfileCreator 2.0

  0  0  0  0  0  0              0 V3000
M  V30 BEGIN CTAB
M  V30 COUNTS 10 9 0 0 0
M  V30 BEGIN ATOM
M  V30 1 O -2.0281 -0.4677 0.8576 0
M  V30 2 C -1.3276 -0.2074 -0.1557 0
M  V30 3 O -1.8849 0.4972 -1.2152 0 CHG=-1
M  V30 4 C 0.1125 -0.6089 -0.1986 0
M  V30 5 C 0.9949 0.4945 0.3732 0
M  V30 6 H 0.4083 -0.8097 -1.2506 0
M  V30 7 H 0.2601 -1.5421 0.3872 0
M  V30 8 H 0.8763 1.4285 -0.217 0
M  V30 9 H 2.0588 0.1793 0.3297 0
M  V30 10 H 0.7261 0.6932 1.433 0
M  V30 END ATOM
M  V30 BEGIN BOND
M  V30 1 2 1 2
M  V30 2 1 2 3
M  V30 3 1 2 4
M  V30 4 1 4 5
M  V30 5 1 4 6
M  V30 6 1 4 7
M  V30 7 1 5 8
M  V30 8 1 5 9
M  V30 9 1 5 10
M  V30 END BOND
M  V30 END CTAB
M  END
>  <Structure No>
1765

>  <LogS>
-0.476934722

>  <MMFF94 Energy>
1.8575

$$$$
Compound 1766
Actelion Java MolfileCreator 2.0

  0  0  0  0  0  0              0 V3000
M  V30 BEGIN CTAB
M  V30 COUNTS 21 20 0 0 0
M  V30 BEGIN ATOM
M  V30 1 O -1.8545 -1.3133 -0.6951 0
M  V30 2 C -0.5586 -0.9768 -1.1109 0
M  V30 3 C 0.1173 0.0285 -0.1363 0
M  V30 4 C 0.2639 -0.5941 1.281 0
M  V30 5 C 1.5365 0.3274 -0.6916 0
M  V30 6 C -0.681 1.3618 -0.081 0
M  V30 7 O -0.9827 -0.9202 1.8335 0
M  V30 8 O 2.2223 1.2327 0.1325 0
M  V30 9 O -1.9888 1.1621 0.3833 0
M  V30 10 H -2.205 -1.952 -1.3691 0
M  V30 11 H -0.6089 -0.5316 -2.131 0
M  V30 12 H 0.0544 -1.9049 -1.1748 0
M  V30 13 H 0.7806 0.1238 1.9574 0
M  V30 14 H 0.8881 -1.5147 1.2205 0
M  V30 15 H 1.4591 0.7546 -1.7178 0
M  V30 16 H 2.1222 -0.6178 -0.7621 0
M  V30 17 H -0.7204 1.8146 -1.098 0
M  V30 18 H -0.1658 2.0829 0.5931 0
M  V30 19 H -0.7963 -1.3142 2.7252 0
M  V30 20 H 3.1111 1.3702 -0.2868 0
M  V30 21 H -2.4237 2.0543 0.3795 0
M  V30 END ATOM
M  V30 BEGIN BOND
M  V30 1 1 1 2
M  V30 2 1 2 3
M  V30 3 1 3 4
M  V30 4 1 3 5
M  V30 5 1 3 6
M  V30 6 1 4 7
M  V30 7 1 5 8
M  V30 8 1 6 9
M  V30 9 1 1 10
M  V30 10 1 2 11
M  V30 11 1 2 12
M  V30 12 1 4 13
M  V30 13 1 4 14
M  V30 14 1 5 15
M  V30 15 1 5 16
M  V30 16 1 6 17
M  V30 17 1 6 18
M  V30 18 1 7 19
M  V30 19 1 8 20
M  V30 20 1 9 21
M  V30 END BOND
M  V30 END CTAB
M  END
>  <Structure No>
1766

>  <LogS>
-0.341616387

>  <MMFF94 Energy>
22.309

$$$$
Compound 1767
Actelion Java MolfileCreator 2.0

  0  0  0  0  0  0              0 V3000
M  V30 BEGIN CTAB
M  V30 COUNTS 25 24 0 0 0
M  V30 BEGIN ATOM
M  V30 1 O 1.0948 -0.7037 2.034 0
M  V30 2 C 1.0124 -0.1694 0.8935 0
M  V30 3 O -0.2131 -0.0874 0.2196 0
M  V30 4 C 2.2432 0.3912 0.2381 0
M  V30 5 C -1.4356 -0.5674 0.7113 0
M  V30 6 C 2.8333 1.5254 1.0817 0
M  V30 7 C 3.2776 -0.713 0.0012 0
M  V30 8 O -1.5099 -1.1266 1.8394 0
M  V30 9 C -2.6776 -0.4125 -0.1201 0
M  V30 10 C -2.9712 1.0701 -0.3649 0
M  V30 11 C -2.5273 -1.166 -1.4445 0
M  V30 12 H 1.9572 0.812 -0.751 0
M  V30 13 H 3.1606 1.1502 2.0754 0
M  V30 14 H 3.7083 1.9712 0.5624 0
M  V30 15 H 2.0749 2.3237 1.231 0
M  V30 16 H 4.1594 -0.3007 -0.5342 0
M  V30 17 H 2.8378 -1.5193 -0.6241 0
M  V30 18 H 3.6173 -1.1501 0.965 0
M  V30 19 H -3.5416 -0.8492 0.4292 0
M  V30 20 H -3.9153 1.1822 -0.9397 0
M  V30 21 H -2.1463 1.5479 -0.9365 0
M  V30 22 H -3.0905 1.6004 0.6042 0
M  V30 23 H -2.3277 -2.2417 -1.2505 0
M  V30 24 H -1.6905 -0.7479 -2.0448 0
M  V30 25 H -3.4646 -1.0885 -2.0358 0
M  V30 END ATOM
M  V30 BEGIN BOND
M  V30 1 2 1 2
M  V30 2 1 2 3
M  V30 3 1 2 4
M  V30 4 1 3 5
M  V30 5 1 4 6
M  V30 6 1 4 7
M  V30 7 2 5 8
M  V30 8 1 5 9
M  V30 9 1 9 10
M  V30 10 1 9 11
M  V30 11 1 4 12
M  V30 12 1 6 13
M  V30 13 1 6 14
M  V30 14 1 6 15
M  V30 15 1 7 16
M  V30 16 1 7 17
M  V30 17 1 7 18
M  V30 18 1 9 19
M  V30 19 1 10 20
M  V30 20 1 10 21
M  V30 21 1 10 22
M  V30 22 1 11 23
M  V30 23 1 11 24
M  V30 24 1 11 25
M  V30 END BOND
M  V30 END CTAB
M  END
>  <Structure No>
1767

>  <LogS>
0.591790232

>  <MMFF94 Energy>
-13.236

$$$$
Compound 1768
Actelion Java MolfileCreator 2.0

  0  0  0  0  0  0              0 V3000
M  V30 BEGIN CTAB
M  V30 COUNTS 15 15 0 0 0
M  V30 BEGIN ATOM
M  V30 1 O -1.8639 2.0262 -0.8101 0
M  V30 2 C -1.1238 1.1039 -0.3783 0
M  V30 3 N 0.1821 1.3345 0.0989 0
M  V30 4 C -1.519 -0.317 -0.3312 0
M  V30 5 C 0.785 0.0811 0.5121 0 CFG=1
M  V30 6 C -0.3135 -0.9978 0.3376 0
M  V30 7 C 1.9941 -0.2126 -0.3279 0
M  V30 8 O 1.9336 -0.134 -1.5839 0
M  V30 9 O 3.1806 -0.6051 0.2783 0 CHG=-1
M  V30 10 H 0.6478 2.2686 0.1397 0
M  V30 11 H -1.6707 -0.7019 -1.3623 0
M  V30 12 H -2.4425 -0.4457 0.2733 0
M  V30 13 H 1.0817 0.1543 1.5814 0
M  V30 14 H -0.614 -1.3854 1.336 0
M  V30 15 H 0.0318 -1.8607 -0.2743 0
M  V30 END ATOM
M  V30 BEGIN BOND
M  V30 1 2 1 2
M  V30 2 1 2 3
M  V30 3 1 2 4
M  V30 4 1 3 5
M  V30 5 1 4 6
M  V30 6 1 5 7
M  V30 7 2 7 8
M  V30 8 1 7 9
M  V30 9 1 5 6
M  V30 10 1 3 10
M  V30 11 1 4 11
M  V30 12 1 4 12
M  V30 13 1 5 13
M  V30 14 1 6 14
M  V30 15 1 6 15
M  V30 END BOND
M  V30 BEGIN COLLECTION
M  V30 MDLV30/STEABS ATOMS=(1 5)
M  V30 END COLLECTION
M  V30 END CTAB
M  END
>  <Structure No>
1768

>  <LogS>
0.608204633

>  <MMFF94 Energy>
31.324

$$$$
Compound 1769
Actelion Java MolfileCreator 2.0

  0  0  0  0  0  0              0 V3000
M  V30 BEGIN CTAB
M  V30 COUNTS 85 89 0 0 0
M  V30 BEGIN ATOM
M  V30 1 S 1.2427 3.9807 -0.4141 0
M  V30 2 O 0.3405 3.1671 -1.2997 0
M  V30 3 O 2.618 3.3743 -0.3972 0
M  V30 4 O 1.3392 5.5346 -1.0468 0 CHG=-1
M  V30 5 C 0.5942 4.0448 1.2317 0
M  V30 6 C -0.0223 2.9262 1.8479 0
M  V30 7 C 0.6703 5.2587 1.9319 0
M  V30 8 C -0.5831 3.0639 3.1273 0
M  V30 9 C -0.081 1.5965 1.1973 0 CHG=1
M  V30 10 C 0.1219 5.3749 3.2103 0
M  V30 11 C -0.5086 4.2817 3.8049 0
M  V30 12 C 1.1805 0.8748 0.8828 0
M  V30 13 C -1.4025 1.0341 0.8194 0
M  V30 14 C 2.3145 1.03 1.6976 0
M  V30 15 C 1.2824 0.0918 -0.2781 0
M  V30 16 C -1.6604 -0.3418 0.948 0
M  V30 17 C -2.4069 1.8722 0.3051 0
M  V30 18 C 3.5299 0.4378 1.3439 0
M  V30 19 C 2.4936 -0.5067 -0.6273 0
M  V30 20 C -2.8862 -0.8729 0.5361 0
M  V30 21 C -3.6299 1.3407 -0.1104 0
M  V30 22 C 3.639 -0.3284 0.1694 0
M  V30 23 C -3.8745 -0.0382 -0.0084 0
M  V30 24 N 4.9128 -0.8805 -0.2376 0
M  V30 25 N -5.1057 -0.6012 -0.5 0
M  V30 26 C 5.7704 -1.571 0.743 0
M  V30 27 C 5.2961 -0.872 -1.6619 0
M  V30 28 C -6.3762 0.054 -0.1443 0
M  V30 29 C -5.0365 -1.5204 -1.6501 0
M  V30 30 C 7.1782 -1.0327 0.71 0
M  V30 31 C 5.1934 -2.2666 -2.274 0
M  V30 32 C -7.5035 -0.9412 -0.0373 0
M  V30 33 C -5.0034 -0.7436 -2.9632 0
M  V30 34 C 8.2185 -1.8008 0.1603 0
M  V30 35 C 7.4543 0.2608 1.1794 0
M  V30 36 C -8.4997 -0.9938 -1.0278 0
M  V30 37 C -7.5417 -1.8555 1.0269 0
M  V30 38 C 9.5202 -1.2861 0.0874 0
M  V30 39 C 8.7498 0.7776 1.0994 0
M  V30 40 C -9.5255 -1.9479 -0.9549 0
M  V30 41 C -8.5705 -2.7998 1.1058 0
M  V30 42 S 10.8093 -2.2463 -0.6274 0
M  V30 43 C 9.7807 0.0084 0.5541 0
M  V30 44 S -10.7738 -2.0007 -2.1965 0
M  V30 45 C -9.5607 -2.8468 0.119 0
M  V30 46 O 10.5946 -3.7002 -0.3146 0
M  V30 47 O 12.1371 -1.8221 -0.0653 0
M  V30 48 O 10.8095 -2.0221 -2.2905 0 CHG=-1
M  V30 49 O -11.2817 -3.4059 -2.359 0
M  V30 50 O -10.2037 -1.5371 -3.5102 0
M  V30 51 O -12.0422 -0.9954 -1.7482 0 CHG=-1
M  V30 52 H 1.1546 6.1198 1.4895 0
M  V30 53 H -1.0651 2.2198 3.6057 0
M  V30 54 H 0.1823 6.3171 3.7393 0
M  V30 55 H -0.9352 4.3761 4.7944 0
M  V30 56 H 2.2651 1.6278 2.5997 0
M  V30 57 H 0.4342 -0.0273 -0.9403 0
M  V30 58 H -0.9094 -1.0059 1.3591 0
M  V30 59 H -2.2338 2.9357 0.192 0
M  V30 60 H 4.388 0.6088 1.9782 0
M  V30 61 H 2.5325 -1.101 -1.5287 0
M  V30 62 H -3.0665 -1.9365 0.6371 0
M  V30 63 H -4.3758 2.0003 -0.5393 0
M  V30 64 H 5.7625 -2.6606 0.5274 0
M  V30 65 H 5.3726 -1.4678 1.775 0
M  V30 66 H 6.3349 -0.4961 -1.7754 0
M  V30 67 H 4.6501 -0.1734 -2.2374 0
M  V30 68 H -6.2756 0.5665 0.8384 0
M  V30 69 H -6.6111 0.8391 -0.8989 0
M  V30 70 H -4.1267 -2.1545 -1.5858 0
M  V30 71 H -5.902 -2.2153 -1.6556 0
M  V30 72 H 4.2042 -2.7203 -2.0525 0
M  V30 73 H 5.9954 -2.9237 -1.8752 0
M  V30 74 H 5.3142 -2.1986 -3.3762 0
M  V30 75 H -5.9293 -0.1395 -3.0765 0
M  V30 76 H -4.1173 -0.074 -2.9894 0
M  V30 77 H -4.9371 -1.4565 -3.8154 0
M  V30 78 H 8.0154 -2.7943 -0.2178 0
M  V30 79 H 6.6686 0.8751 1.5946 0
M  V30 80 H -8.4714 -0.299 -1.8584 0
M  V30 81 H -6.7734 -1.839 1.7908 0
M  V30 82 H 8.9544 1.78 1.4527 0
M  V30 83 H -8.5997 -3.497 1.933 0
M  V30 84 H 10.7777 0.4258 0.4902 0
M  V30 85 H -10.3509 -3.584 0.1914 0
M  V30 END ATOM
M  V30 BEGIN BOND
M  V30 1 2 1 2
M  V30 2 2 1 3
M  V30 3 1 1 4
M  V30 4 1 1 5
M  V30 5 2 5 6
M  V30 6 1 5 7
M  V30 7 1 6 8
M  V30 8 1 6 9
M  V30 9 2 7 10
M  V30 10 2 8 11
M  V30 11 1 9 12
M  V30 12 1 9 13
M  V30 13 2 12 14
M  V30 14 1 12 15
M  V30 15 2 13 16
M  V30 16 1 13 17
M  V30 17 1 14 18
M  V30 18 2 15 19
M  V30 19 1 16 20
M  V30 20 2 17 21
M  V30 21 2 18 22
M  V30 22 2 20 23
M  V30 23 1 22 24
M  V30 24 1 23 25
M  V30 25 1 24 26
M  V30 26 1 24 27
M  V30 27 1 25 28
M  V30 28 1 25 29
M  V30 29 1 26 30
M  V30 30 1 27 31
M  V30 31 1 28 32
M  V30 32 1 29 33
M  V30 33 2 30 34
M  V30 34 1 30 35
M  V30 35 2 32 36
M  V30 36 1 32 37
M  V30 37 1 34 38
M  V30 38 2 35 39
M  V30 39 1 36 40
M  V30 40 2 37 41
M  V30 41 1 38 42
M  V30 42 2 38 43
M  V30 43 1 40 44
M  V30 44 2 40 45
M  V30 45 2 42 46
M  V30 46 2 42 47
M  V30 47 1 42 48
M  V30 48 2 44 49
M  V30 49 2 44 50
M  V30 50 1 44 51
M  V30 51 1 10 11
M  V30 52 1 19 22
M  V30 53 1 21 23
M  V30 54 1 39 43
M  V30 55 1 41 45
M  V30 56 1 7 52
M  V30 57 1 8 53
M  V30 58 1 10 54
M  V30 59 1 11 55
M  V30 60 1 14 56
M  V30 61 1 15 57
M  V30 62 1 16 58
M  V30 63 1 17 59
M  V30 64 1 18 60
M  V30 65 1 19 61
M  V30 66 1 20 62
M  V30 67 1 21 63
M  V30 68 1 26 64
M  V30 69 1 26 65
M  V30 70 1 27 66
M  V30 71 1 27 67
M  V30 72 1 28 68
M  V30 73 1 28 69
M  V30 74 1 29 70
M  V30 75 1 29 71
M  V30 76 1 31 72
M  V30 77 1 31 73
M  V30 78 1 31 74
M  V30 79 1 33 75
M  V30 80 1 33 76
M  V30 81 1 33 77
M  V30 82 1 34 78
M  V30 83 1 35 79
M  V30 84 1 36 80
M  V30 85 1 37 81
M  V30 86 1 39 82
M  V30 87 1 41 83
M  V30 88 1 43 84
M  V30 89 1 45 85
M  V30 END BOND
M  V30 END CTAB
M  END
>  <Structure No>
1769

>  <LogS>
-0.113158037

>  <MMFF94 Energy>
270.96

$$$$
Compound 1770
Actelion Java MolfileCreator 2.0

  0  0  0  0  0  0              0 V3000
M  V30 BEGIN CTAB
M  V30 COUNTS 26 26 0 0 0
M  V30 BEGIN ATOM
M  V30 1 O 0.0 -1.1807 1.8109 0
M  V30 2 C 0.0761 -0.0134 1.0315 0 CFG=1
M  V30 3 C 1.0288 -0.1392 -0.1847 0
M  V30 4 C -1.1339 0.1627 0.0805 0
M  V30 5 C -0.1792 0.059 -1.138 0 CFG=1
M  V30 6 C 2.1052 0.9654 -0.2082 0
M  V30 7 C 1.6712 -1.5313 -0.3575 0
M  V30 8 C -1.848 1.517 0.2734 0
M  V30 9 C -2.1497 -0.9982 0.1142 0
M  V30 10 O -0.1232 1.1951 -1.975 0
M  V30 11 H 0.7829 -1.1552 2.42 0
M  V30 12 H 0.2686 0.8856 1.6639 0
M  V30 13 H -0.3817 -0.8401 -1.7625 0
M  V30 14 H 1.6908 1.9578 0.0681 0
M  V30 15 H 2.905 0.7291 0.5255 0
M  V30 16 H 2.5616 1.0318 -1.2186 0
M  V30 17 H 0.9059 -2.3367 -0.3394 0
M  V30 18 H 2.4013 -1.7226 0.4575 0
M  V30 19 H 2.2048 -1.5824 -1.3304 0
M  V30 20 H -2.4848 1.4823 1.1831 0
M  V30 21 H -2.4956 1.7347 -0.6022 0
M  V30 22 H -1.1293 2.3523 0.4088 0
M  V30 23 H -2.6784 -1.0174 1.0911 0
M  V30 24 H -1.6498 -1.9797 -0.0334 0
M  V30 25 H -2.9003 -0.867 -0.6939 0
M  V30 26 H 0.0566 2.0046 -1.4379 0
M  V30 END ATOM
M  V30 BEGIN BOND
M  V30 1 1 1 2
M  V30 2 1 2 3
M  V30 3 1 2 4
M  V30 4 1 3 5
M  V30 5 1 3 6
M  V30 6 1 3 7
M  V30 7 1 4 8
M  V30 8 1 4 9
M  V30 9 1 5 10
M  V30 10 1 4 5
M  V30 11 1 1 11
M  V30 12 1 2 12
M  V30 13 1 5 13
M  V30 14 1 6 14
M  V30 15 1 6 15
M  V30 16 1 6 16
M  V30 17 1 7 17
M  V30 18 1 7 18
M  V30 19 1 7 19
M  V30 20 1 8 20
M  V30 21 1 8 21
M  V30 22 1 8 22
M  V30 23 1 9 23
M  V30 24 1 9 24
M  V30 25 1 9 25
M  V30 26 1 10 26
M  V30 END BOND
M  V30 BEGIN COLLECTION
M  V30 MDLV30/STEABS ATOMS=(2 2 5)
M  V30 END COLLECTION
M  V30 END CTAB
M  END
>  <Structure No>
1770

>  <LogS>
-0.373677588

>  <MMFF94 Energy>
21.372

$$$$
Compound 1771
Actelion Java MolfileCreator 2.0

  0  0  0  0  0  0              0 V3000
M  V30 BEGIN CTAB
M  V30 COUNTS 18 17 0 0 0
M  V30 BEGIN ATOM
M  V30 1 O -0.2474 -2.8897 -0.3299 0
M  V30 2 C -0.2382 -1.8561 0.3907 0
M  V30 3 O 0.0139 -1.9875 1.7525 0 CHG=-1
M  V30 4 C -0.422 -0.4843 -0.2349 0
M  V30 5 O -1.3466 -0.586 -1.2964 0
M  V30 6 C 0.942 0.0321 -0.7813 0
M  V30 7 C -1.0254 0.4876 0.8147 0
M  V30 8 C 1.9919 0.2007 0.28 0
M  V30 9 C -1.3444 1.8377 0.2406 0
M  V30 10 O 2.1737 1.3227 0.8215 0
M  V30 11 O 2.758 -0.8867 0.6808 0 CHG=-1
M  V30 12 O -2.4098 2.016 -0.4065 0
M  V30 13 O -0.454 2.8919 0.4006 0 CHG=-1
M  V30 14 H -0.9361 -1.1212 -2.0256 0
M  V30 15 H 0.7954 0.9995 -1.3088 0
M  V30 16 H 1.3329 -0.6812 -1.5392 0
M  V30 17 H -0.3356 0.6181 1.6761 0
M  V30 18 H -1.9658 0.0523 1.2202 0
M  V30 END ATOM
M  V30 BEGIN BOND
M  V30 1 2 1 2
M  V30 2 1 2 3
M  V30 3 1 2 4
M  V30 4 1 4 5
M  V30 5 1 4 6
M  V30 6 1 4 7
M  V30 7 1 6 8
M  V30 8 1 7 9
M  V30 9 2 8 10
M  V30 10 1 8 11
M  V30 11 2 9 12
M  V30 12 1 9 13
M  V30 13 1 5 14
M  V30 14 1 6 15
M  V30 15 1 6 16
M  V30 16 1 7 17
M  V30 17 1 7 18
M  V30 END BOND
M  V30 END CTAB
M  END
>  <Structure No>
1771

>  <LogS>
0.296193785

>  <MMFF94 Energy>
240.18

$$$$
Compound 1772
Actelion Java MolfileCreator 2.0

  0  0  0  0  0  0              0 V3000
M  V30 BEGIN CTAB
M  V30 COUNTS 76 78 0 0 0
M  V30 BEGIN ATOM
M  V30 1 O -2.8673 -3.8245 0.2387 0
M  V30 2 C -1.6879 -3.4794 0.5193 0
M  V30 3 C -1.0012 -2.411 -0.2714 0
M  V30 4 C -1.0306 -4.0828 1.703 0
M  V30 5 C 0.1899 -1.836 0.2543 0
M  V30 6 C -1.5495 -1.8968 -1.4803 0
M  V30 7 C 0.2349 -3.6215 2.1137 0
M  V30 8 C -1.663 -5.1093 2.4318 0
M  V30 9 C 0.909 -2.5507 1.3489 0
M  V30 10 C 0.6954 -0.6282 -0.3023 0
M  V30 11 N -2.6942 -2.5061 -2.114 0
M  V30 12 C -0.9479 -0.7864 -2.0851 0
M  V30 13 C 0.8519 -4.1966 3.2397 0
M  V30 14 C -1.0433 -5.6673 3.5512 0
M  V30 15 O 2.1295 -2.3175 1.5672 0
M  V30 16 N 1.7014 0.1528 0.3834 0
M  V30 17 C 0.1268 -0.1433 -1.4907 0
M  V30 18 C -3.7297 -1.7429 -2.8205 0
M  V30 19 C 0.2115 -5.2107 3.9549 0
M  V30 20 C 2.3612 1.3143 -0.226 0
M  V30 21 C -4.3482 -0.6737 -1.9046 0
M  V30 22 C 3.4772 1.8733 0.6679 0
M  V30 23 C -5.3262 0.2299 -2.6669 0
M  V30 24 C 4.698 0.9408 0.7631 0
M  V30 25 O -5.614 1.386 -1.9027 0
M  V30 26 O 5.1907 0.5907 -0.5199 0
M  V30 27 C -6.7176 1.1853 -1.0374 0
M  V30 28 C 6.0984 1.5581 -1.0176 0
M  V30 29 C -6.3466 1.6615 0.366 0
M  V30 30 C 7.539 1.1396 -0.7252 0
M  V30 31 O -7.4667 1.5637 1.2275 0
M  V30 32 O 8.4161 2.0477 -1.3588 0
M  V30 33 C -8.1621 2.7952 1.3129 0
M  V30 34 C 9.7419 1.7908 -0.9457 0
M  V30 35 C -7.6816 3.5896 2.5283 0
M  V30 36 C 10.6944 2.6989 -1.7198 0
M  V30 37 O -8.4201 4.7763 2.6486 0
M  V30 38 O 10.6479 2.3982 -3.0896 0
M  V30 39 H -2.6367 -5.4832 2.1398 0
M  V30 40 H -2.7771 -3.5461 -2.1184 0
M  V30 41 H -1.334 -0.3844 -3.0115 0
M  V30 42 H 1.8272 -3.8621 3.568 0
M  V30 43 H -1.538 -6.4556 4.1034 0
M  V30 44 H 1.8317 0.016 1.4093 0
M  V30 45 H 0.4996 0.7508 -1.9686 0
M  V30 46 H -3.2913 -1.2735 -3.7286 0
M  V30 47 H -4.5315 -2.437 -3.1559 0
M  V30 48 H 0.6912 -5.6452 4.8213 0
M  V30 49 H 1.6084 2.1196 -0.3765 0
M  V30 50 H 2.7771 1.036 -1.2186 0
M  V30 51 H -4.8787 -1.1699 -1.0629 0
M  V30 52 H -3.5471 -0.0378 -1.4744 0
M  V30 53 H 3.7916 2.8596 0.2637 0
M  V30 54 H 3.075 2.0621 1.6892 0
M  V30 55 H -4.8441 0.5681 -3.6102 0
M  V30 56 H -6.2437 -0.3327 -2.9722 0
M  V30 57 H 4.3873 0.0076 1.2782 0
M  V30 58 H 5.4788 1.405 1.4083 0
M  V30 59 H -7.066 0.126 -0.9631 0
M  V30 60 H -7.5657 1.7966 -1.415 0
M  V30 61 H 5.9658 1.611 -2.117 0
M  V30 62 H 5.9176 2.5863 -0.6253 0
M  V30 63 H -5.9061 2.6845 0.3246 0
M  V30 64 H -5.5499 0.9961 0.7607 0
M  V30 65 H 7.7041 0.1091 -1.1199 0
M  V30 66 H 7.6877 1.1398 0.3804 0
M  V30 67 H -9.2417 2.5683 1.4499 0
M  V30 68 H -8.0873 3.4166 0.3866 0
M  V30 69 H 9.8572 2.0143 0.1389 0
M  V30 70 H 10.0259 0.7292 -1.1303 0
M  V30 71 H -6.5912 3.8083 2.4428 0
M  V30 72 H -7.8349 2.9798 3.4456 0
M  V30 73 H 11.7328 2.5821 -1.3291 0
M  V30 74 H 10.3927 3.76 -1.5773 0
M  V30 75 H -7.9616 5.4538 2.0873 0
M  V30 76 H 11.1992 1.5827 -3.22 0
M  V30 END ATOM
M  V30 BEGIN BOND
M  V30 1 2 1 2
M  V30 2 1 2 3
M  V30 3 1 2 4
M  V30 4 2 3 5
M  V30 5 1 3 6
M  V30 6 2 4 7
M  V30 7 1 4 8
M  V30 8 1 5 9
M  V30 9 1 5 10
M  V30 10 1 6 11
M  V30 11 2 6 12
M  V30 12 1 7 13
M  V30 13 2 8 14
M  V30 14 2 9 15
M  V30 15 1 10 16
M  V30 16 2 10 17
M  V30 17 1 11 18
M  V30 18 2 13 19
M  V30 19 1 16 20
M  V30 20 1 18 21
M  V30 21 1 20 22
M  V30 22 1 21 23
M  V30 23 1 22 24
M  V30 24 1 23 25
M  V30 25 1 24 26
M  V30 26 1 25 27
M  V30 27 1 26 28
M  V30 28 1 27 29
M  V30 29 1 28 30
M  V30 30 1 29 31
M  V30 31 1 30 32
M  V30 32 1 31 33
M  V30 33 1 32 34
M  V30 34 1 33 35
M  V30 35 1 34 36
M  V30 36 1 35 37
M  V30 37 1 36 38
M  V30 38 1 7 9
M  V30 39 1 12 17
M  V30 40 1 14 19
M  V30 41 1 8 39
M  V30 42 1 11 40
M  V30 43 1 12 41
M  V30 44 1 13 42
M  V30 45 1 14 43
M  V30 46 1 16 44
M  V30 47 1 17 45
M  V30 48 1 18 46
M  V30 49 1 18 47
M  V30 50 1 19 48
M  V30 51 1 20 49
M  V30 52 1 20 50
M  V30 53 1 21 51
M  V30 54 1 21 52
M  V30 55 1 22 53
M  V30 56 1 22 54
M  V30 57 1 23 55
M  V30 58 1 23 56
M  V30 59 1 24 57
M  V30 60 1 24 58
M  V30 61 1 27 59
M  V30 62 1 27 60
M  V30 63 1 28 61
M  V30 64 1 28 62
M  V30 65 1 29 63
M  V30 66 1 29 64
M  V30 67 1 30 65
M  V30 68 1 30 66
M  V30 69 1 33 67
M  V30 70 1 33 68
M  V30 71 1 34 69
M  V30 72 1 34 70
M  V30 73 1 35 71
M  V30 74 1 35 72
M  V30 75 1 36 73
M  V30 76 1 36 74
M  V30 77 1 37 75
M  V30 78 1 38 76
M  V30 END BOND
M  V30 END CTAB
M  END
>  <Structure No>
1772

>  <LogS>
0.057188696

>  <MMFF94 Energy>
172.72

$$$$
Compound 1773
Actelion Java MolfileCreator 2.0

  0  0  0  0  0  0              0 V3000
M  V30 BEGIN CTAB
M  V30 COUNTS 7 6 0 0 0
M  V30 BEGIN ATOM
M  V30 1 O 1.4792 -1.0119 0.1556 0
M  V30 2 C 0.8106 0.0505 0.0599 0
M  V30 3 O 1.4607 1.2779 0.0784 0 CHG=-1
M  V30 4 C -0.6775 -0.0058 -0.0143 0
M  V30 5 H -1.0963 -0.0899 1.0099 0
M  V30 6 H -1.0685 0.9162 -0.4934 0
M  V30 7 H -0.9963 -0.8843 -0.6142 0
M  V30 END ATOM
M  V30 BEGIN BOND
M  V30 1 2 1 2
M  V30 2 1 2 3
M  V30 3 1 2 4
M  V30 4 1 4 5
M  V30 5 1 4 6
M  V30 6 1 4 7
M  V30 END BOND
M  V30 END CTAB
M  END
>  <Structure No>
1773

>  <LogS>
1.001717808

>  <MMFF94 Energy>
1.0491

$$$$
Compound 1774
Actelion Java MolfileCreator 2.0

  0  0  0  0  0  0              0 V3000
M  V30 BEGIN CTAB
M  V30 COUNTS 14 13 0 0 0
M  V30 BEGIN ATOM
M  V30 1 O 1.8824 -1.8005 -0.2453 0
M  V30 2 C 1.9587 -0.8018 0.5181 0
M  V30 3 O 2.8402 -0.829 1.5917 0 CHG=-1
M  V30 4 C 1.1243 0.3871 0.2826 0
M  V30 5 O 1.2104 1.367 1.0703 0
M  V30 6 C 0.1444 0.4436 -0.8581 0
M  V30 7 C -1.1621 -0.2852 -0.5233 0
M  V30 8 C -1.919 0.41 0.5666 0
M  V30 9 O -2.6435 1.4047 0.2996 0
M  V30 10 O -1.7912 -0.0145 1.8831 0 CHG=-1
M  V30 11 H 0.6001 -0.0235 -1.7576 0
M  V30 12 H -0.0722 1.5035 -1.1177 0
M  V30 13 H -1.7971 -0.3242 -1.4347 0
M  V30 14 H -0.9487 -1.3333 -0.2207 0
M  V30 END ATOM
M  V30 BEGIN BOND
M  V30 1 2 1 2
M  V30 2 1 2 3
M  V30 3 1 2 4
M  V30 4 2 4 5
M  V30 5 1 4 6
M  V30 6 1 6 7
M  V30 7 1 7 8
M  V30 8 2 8 9
M  V30 9 1 8 10
M  V30 10 1 6 11
M  V30 11 1 6 12
M  V30 12 1 7 13
M  V30 13 1 7 14
M  V30 END BOND
M  V30 END CTAB
M  END
>  <Structure No>
1774

>  <LogS>
0.614880073

>  <MMFF94 Energy>
126.28

$$$$
Compound 1775
Actelion Java MolfileCreator 2.0

  0  0  0  0  0  0              0 V3000
M  V30 BEGIN CTAB
M  V30 COUNTS 28 27 0 0 0
M  V30 BEGIN ATOM
M  V30 1 S 4.8706 0.2652 -0.5305 0
M  V30 2 O 5.6177 0.2791 0.7732 0
M  V30 3 O 5.0162 1.6002 -1.2049 0
M  V30 4 O 5.5101 -0.9292 -1.5227 0 CHG=-1
M  V30 5 C 3.1444 -0.0798 -0.2355 0
M  V30 6 C 2.5263 0.9767 0.6862 0
M  V30 7 C 1.0231 0.7629 0.8876 0
M  V30 8 S 0.6904 -0.7094 1.9225 0
M  V30 9 S 0.1405 -1.9744 0.2865 0
M  V30 10 C -1.6543 -1.8725 0.608 0
M  V30 11 C -2.2394 -0.5625 0.0757 0
M  V30 12 C -3.7632 -0.5454 0.2159 0
M  V30 13 S -4.4392 0.9926 -0.387 0
M  V30 14 O -4.0916 1.1685 -1.8384 0
M  V30 15 O -3.8792 2.1411 0.4041 0
M  V30 16 O -6.1099 0.9656 -0.217 0 CHG=-1
M  V30 17 H 2.6134 -0.0915 -1.2112 0
M  V30 18 H 3.0654 -1.0856 0.2272 0
M  V30 19 H 3.038 0.9647 1.6732 0
M  V30 20 H 2.6759 1.9819 0.2355 0
M  V30 21 H 0.5066 0.7093 -0.094 0
M  V30 22 H 0.6131 1.6441 1.4248 0
M  V30 23 H -1.8532 -1.973 1.6967 0
M  V30 24 H -2.136 -2.7286 0.0896 0
M  V30 25 H -1.9654 -0.4468 -0.9954 0
M  V30 26 H -1.816 0.2897 0.6472 0
M  V30 27 H -4.0469 -0.6635 1.2837 0
M  V30 28 H -4.2076 -1.3806 -0.3663 0
M  V30 END ATOM
M  V30 BEGIN BOND
M  V30 1 2 1 2
M  V30 2 2 1 3
M  V30 3 1 1 4
M  V30 4 1 1 5
M  V30 5 1 5 6
M  V30 6 1 6 7
M  V30 7 1 7 8
M  V30 8 1 8 9
M  V30 9 1 9 10
M  V30 10 1 10 11
M  V30 11 1 11 12
M  V30 12 1 12 13
M  V30 13 2 13 14
M  V30 14 2 13 15
M  V30 15 1 13 16
M  V30 16 1 5 17
M  V30 17 1 5 18
M  V30 18 1 6 19
M  V30 19 1 6 20
M  V30 20 1 7 21
M  V30 21 1 7 22
M  V30 22 1 10 23
M  V30 23 1 10 24
M  V30 24 1 11 25
M  V30 25 1 11 26
M  V30 26 1 12 27
M  V30 27 1 12 28
M  V30 END BOND
M  V30 END CTAB
M  END
>  <Structure No>
1775

>  <LogS>
0.228652636

>  <MMFF94 Energy>
25.495

$$$$
Compound 1776
Actelion Java MolfileCreator 2.0

  0  0  0  0  0  0              0 V3000
M  V30 BEGIN CTAB
M  V30 COUNTS 11 10 0 0 0
M  V30 BEGIN ATOM
M  V30 1 O -1.8246 1.6725 -0.3799 0
M  V30 2 C -0.5979 1.3973 -0.2937 0
M  V30 3 C -0.1353 0.0171 -0.0456 0
M  V30 4 C -1.0053 -0.9791 0.1517 0
M  V30 5 C 1.3379 -0.2506 0.0641 0
M  V30 6 H 0.1253 2.1945 -0.4058 0
M  V30 7 H -2.0742 -0.8131 0.1061 0
M  V30 8 H -0.6589 -1.983 0.3645 0
M  V30 9 H 1.6367 -0.2453 1.1333 0
M  V30 10 H 1.5919 -1.237 -0.3801 0
M  V30 11 H 1.9204 0.526 -0.4752 0
M  V30 END ATOM
M  V30 BEGIN BOND
M  V30 1 2 1 2
M  V30 2 1 2 3
M  V30 3 2 3 4
M  V30 4 1 3 5
M  V30 5 1 2 6
M  V30 6 1 4 7
M  V30 7 1 4 8
M  V30 8 1 5 9
M  V30 9 1 5 10
M  V30 10 1 5 11
M  V30 END BOND
M  V30 END CTAB
M  END
>  <Structure No>
1776

>  <LogS>
-0.067511006

>  <MMFF94 Energy>
13.48

$$$$
Compound 1777
Actelion Java MolfileCreator 2.0

  0  0  0  0  0  0              0 V3000
M  V30 BEGIN CTAB
M  V30 COUNTS 13 12 0 0 0
M  V30 BEGIN ATOM
M  V30 1 O -0.3817 2.2159 -1.1456 0
M  V30 2 C -0.7513 1.32 -0.4028 0
M  V30 3 C -0.0585 -0.0171 -0.4241 0
M  V30 4 C 1.3899 0.124 0.0546 0
M  V30 5 C -0.8143 -1.0303 0.4419 0
M  V30 6 H -1.5926 1.4983 0.2606 0
M  V30 7 H -0.0521 -0.3933 -1.4708 0
M  V30 8 H 1.4227 0.5115 1.0961 0
M  V30 9 H 1.9469 0.8223 -0.606 0
M  V30 10 H 1.9017 -0.8616 0.0219 0
M  V30 11 H -0.8413 -0.6987 1.5026 0
M  V30 12 H -1.8568 -1.1443 0.0743 0
M  V30 13 H -0.3191 -2.0235 0.3893 0
M  V30 END ATOM
M  V30 BEGIN BOND
M  V30 1 2 1 2
M  V30 2 1 2 3
M  V30 3 1 3 4
M  V30 4 1 3 5
M  V30 5 1 2 6
M  V30 6 1 3 7
M  V30 7 1 4 8
M  V30 8 1 4 9
M  V30 9 1 4 10
M  V30 10 1 5 11
M  V30 11 1 5 12
M  V30 12 1 5 13
M  V30 END BOND
M  V30 END CTAB
M  END
>  <Structure No>
1777

>  <LogS>
-0.079826177

>  <MMFF94 Energy>
2.9125

$$$$
Compound 1778
Actelion Java MolfileCreator 2.0

  0  0  0  0  0  0              0 V3000
M  V30 BEGIN CTAB
M  V30 COUNTS 33 32 0 0 0
M  V30 BEGIN ATOM
M  V30 1 O 1.7919 0.4672 1.7919 0
M  V30 2 C 1.2851 -0.2491 0.882 0
M  V30 3 N 2.1385 -1.204 0.2189 0
M  V30 4 C -0.2121 -0.0459 0.5531 0
M  V30 5 C 3.5487 -1.3214 0.5713 0
M  V30 6 C -0.4348 1.5067 0.2623 0
M  V30 7 C -0.7188 -1.0437 -0.5838 0
M  V30 8 C -0.9423 -0.406 1.8794 0
M  V30 9 C 0.5539 2.1508 -0.7384 0
M  V30 10 C -1.8652 1.9248 -0.1179 0
M  V30 11 C -2.238 -1.3316 -0.6287 0
M  V30 12 C -0.23 -0.6995 -2.0021 0
M  V30 13 H 1.7996 -1.8365 -0.5342 0
M  V30 14 H 4.035 -2.0954 -0.0597 0
M  V30 15 H 4.0609 -0.3503 0.4042 0
M  V30 16 H 3.647 -1.6166 1.6373 0
M  V30 17 H -0.233 2.0324 1.2241 0
M  V30 18 H -0.3048 -2.0442 -0.3369 0
M  V30 19 H -2.0345 -0.2342 1.8249 0
M  V30 20 H -0.5728 0.2079 2.7295 0
M  V30 21 H -0.7755 -1.4749 2.1368 0
M  V30 22 H 0.2889 1.9299 -1.7897 0
M  V30 23 H 0.5206 3.2563 -0.628 0
M  V30 24 H 1.6027 1.8427 -0.5583 0
M  V30 25 H -2.619 1.5073 0.5774 0
M  V30 26 H -1.9556 3.0311 -0.0606 0
M  V30 27 H -2.1051 1.6351 -1.1608 0
M  V30 28 H -2.5792 -1.8383 0.2972 0
M  V30 29 H -2.8475 -0.4276 -0.7927 0
M  V30 30 H -2.4629 -2.0329 -1.461 0
M  V30 31 H -0.2966 -1.6 -2.6495 0
M  V30 32 H -0.8645 0.0854 -2.4614 0
M  V30 33 H 0.8263 -0.3653 -2.006 0
M  V30 END ATOM
M  V30 BEGIN BOND
M  V30 1 2 1 2
M  V30 2 1 2 3
M  V30 3 1 2 4
M  V30 4 1 3 5
M  V30 5 1 4 6
M  V30 6 1 4 7
M  V30 7 1 4 8
M  V30 8 1 6 9
M  V30 9 1 6 10
M  V30 10 1 7 11
M  V30 11 1 7 12
M  V30 12 1 3 13
M  V30 13 1 5 14
M  V30 14 1 5 15
M  V30 15 1 5 16
M  V30 16 1 6 17
M  V30 17 1 7 18
M  V30 18 1 8 19
M  V30 19 1 8 20
M  V30 20 1 8 21
M  V30 21 1 9 22
M  V30 22 1 9 23
M  V30 23 1 9 24
M  V30 24 1 10 25
M  V30 25 1 10 26
M  V30 26 1 10 27
M  V30 27 1 11 28
M  V30 28 1 11 29
M  V30 29 1 11 30
M  V30 30 1 12 31
M  V30 31 1 12 32
M  V30 32 1 12 33
M  V30 END BOND
M  V30 END CTAB
M  END
>  <Structure No>
1778

>  <LogS>
-1.394867706

>  <MMFF94 Energy>
7.5315

$$$$
Compound 1779
Actelion Java MolfileCreator 2.0

  0  0  0  0  0  0              0 V3000
M  V30 BEGIN CTAB
M  V30 COUNTS 4 3 0 0 0
M  V30 BEGIN ATOM
M  V30 1 Cl 1.5762 -0.6894 0.0 0
M  V30 2 C 0.034 0.1449 0.0124 0
M  V30 3 Cl -1.4597 -0.7733 0.0102 0
M  V30 4 O 3.0E-4 1.3638 0.0226 0
M  V30 END ATOM
M  V30 BEGIN BOND
M  V30 1 1 1 2
M  V30 2 1 2 3
M  V30 3 2 2 4
M  V30 END BOND
M  V30 END CTAB
M  END
>  <Structure No>
1779

>  <LogS>
-1.160845842

>  <MMFF94 Energy>
1.8338

$$$$
Compound 1780
Actelion Java MolfileCreator 2.0

  0  0  0  0  0  0              0 V3000
M  V30 BEGIN CTAB
M  V30 COUNTS 28 28 0 0 0
M  V30 BEGIN ATOM
M  V30 1 O 1.4587 2.0264 -2.2698 0
M  V30 2 C 1.9842 1.5923 -1.2109 0
M  V30 3 O 3.3474 1.3256 -1.1823 0 CHG=-1
M  V30 4 C 1.1453 1.3678 0.0164 0
M  V30 5 C 0.504 -0.0583 0.1205 0
M  V30 6 C -0.3782 -0.1023 1.4252 0
M  V30 7 C -0.3744 -0.3532 -1.1356 0
M  V30 8 C 1.6621 -1.1058 0.2183 0
M  V30 9 C -1.8964 -0.0895 1.1682 0
M  V30 10 C -1.5776 0.6001 -1.2704 0
M  V30 11 C 1.2134 -2.5382 0.3283 0
M  V30 12 C -2.2698 0.9109 0.0721 0
M  V30 13 O 0.9706 -3.2087 -0.7095 0
M  V30 14 O 1.0886 -3.1397 1.5746 0 CHG=-1
M  V30 15 H 1.7898 1.5478 0.9048 0
M  V30 16 H 0.3596 2.1516 0.0489 0
M  V30 17 H -0.1612 -0.9991 2.0392 0
M  V30 18 H -0.1373 0.7548 2.0926 0
M  V30 19 H 0.2322 -0.3186 -2.0654 0
M  V30 20 H -0.7816 -1.3845 -1.0712 0
M  V30 21 H 2.3163 -1.0337 -0.6764 0
M  V30 22 H 2.2986 -0.8721 1.0998 0
M  V30 23 H -2.2359 -1.1064 0.8724 0
M  V30 24 H -2.427 0.1776 2.1079 0
M  V30 25 H -2.3137 0.1386 -1.9643 0
M  V30 26 H -1.2489 1.5521 -1.7402 0
M  V30 27 H -3.3724 0.9014 -0.0694 0
M  V30 28 H -1.9941 1.9337 0.4092 0
M  V30 END ATOM
M  V30 BEGIN BOND
M  V30 1 2 1 2
M  V30 2 1 2 3
M  V30 3 1 2 4
M  V30 4 1 4 5
M  V30 5 1 5 6
M  V30 6 1 5 7
M  V30 7 1 5 8
M  V30 8 1 6 9
M  V30 9 1 7 10
M  V30 10 1 8 11
M  V30 11 1 9 12
M  V30 12 2 11 13
M  V30 13 1 11 14
M  V30 14 1 10 12
M  V30 15 1 4 15
M  V30 16 1 4 16
M  V30 17 1 6 17
M  V30 18 1 6 18
M  V30 19 1 7 19
M  V30 20 1 7 20
M  V30 21 1 8 21
M  V30 22 1 8 22
M  V30 23 1 9 23
M  V30 24 1 9 24
M  V30 25 1 10 25
M  V30 26 1 10 26
M  V30 27 1 12 27
M  V30 28 1 12 28
M  V30 END BOND
M  V30 END CTAB
M  END
>  <Structure No>
1780

>  <LogS>
-1.47223405

>  <MMFF94 Energy>
82.92

$$$$
Compound 1781
Actelion Java MolfileCreator 2.0

  0  0  0  0  0  0              0 V3000
M  V30 BEGIN CTAB
M  V30 COUNTS 27 26 0 0 0
M  V30 BEGIN ATOM
M  V30 1 O -0.3134 -2.5885 1.4112 0
M  V30 2 C -0.1816 -1.7403 0.4899 0
M  V30 3 O -0.1668 -2.1622 -0.8341 0 CHG=-1
M  V30 4 C -0.06 -0.2786 0.8196 0 CFG=1
M  V30 5 N 1.126 0.2716 0.1572 0
M  V30 6 C -1.3207 0.4903 0.3774 0
M  V30 7 C 2.4565 -0.0171 0.6102 0
M  V30 8 C -2.5614 0.0894 1.1875 0
M  V30 9 O 2.6417 -0.7511 1.6187 0
M  V30 10 C 3.6398 0.5128 -0.1446 0
M  V30 11 C -3.7499 0.8958 0.759 0
M  V30 12 N 3.9431 -0.3414 -1.291 0 CHG=1
M  V30 13 O -4.0566 1.9437 1.3878 0
M  V30 14 N -4.5111 0.5077 -0.3843 0
M  V30 15 H 0.056 -0.1494 1.9197 0
M  V30 16 H 1.0106 0.8722 -0.6912 0
M  V30 17 H -1.1401 1.579 0.5216 0
M  V30 18 H -1.5074 0.3173 -0.7061 0
M  V30 19 H -2.3738 0.2556 2.271 0
M  V30 20 H -2.7848 -0.9887 1.0393 0
M  V30 21 H 3.4234 1.5463 -0.494 0
M  V30 22 H 4.5236 0.5611 0.5294 0
M  V30 23 H 3.1276 -0.3667 -1.9461 0
M  V30 24 H 4.1663 -1.3107 -0.9667 0
M  V30 25 H 4.7719 0.0463 -1.7969 0
M  V30 26 H -5.3308 1.0778 -0.6903 0
M  V30 27 H -4.255 -0.3449 -0.9297 0
M  V30 END ATOM
M  V30 BEGIN BOND
M  V30 1 2 1 2
M  V30 2 1 2 3
M  V30 3 1 2 4
M  V30 4 1 4 5
M  V30 5 1 4 6
M  V30 6 1 5 7
M  V30 7 1 6 8
M  V30 8 2 7 9
M  V30 9 1 7 10
M  V30 10 1 8 11
M  V30 11 1 10 12
M  V30 12 2 11 13
M  V30 13 1 11 14
M  V30 14 1 4 15
M  V30 15 1 5 16
M  V30 16 1 6 17
M  V30 17 1 6 18
M  V30 18 1 8 19
M  V30 19 1 8 20
M  V30 20 1 10 21
M  V30 21 1 10 22
M  V30 22 1 12 23
M  V30 23 1 12 24
M  V30 24 1 12 25
M  V30 25 1 14 26
M  V30 26 1 14 27
M  V30 END BOND
M  V30 BEGIN COLLECTION
M  V30 MDLV30/STEABS ATOMS=(1 4)
M  V30 END COLLECTION
M  V30 END CTAB
M  END
>  <Structure No>
1781

>  <LogS>
-0.194310278

>  <MMFF94 Energy>
-58.366

$$$$
Compound 1782
Actelion Java MolfileCreator 2.0

  0  0  0  0  0  0              0 V3000
M  V30 BEGIN CTAB
M  V30 COUNTS 88 95 0 0 0
M  V30 BEGIN ATOM
M  V30 1 Cl 7.1757 -1.8758 -2.7292 0
M  V30 2 C 7.3193 -0.6339 -1.4879 0
M  V30 3 C 8.5853 -0.2956 -0.993 0
M  V30 4 C 6.1799 0.0219 -0.9945 0
M  V30 5 O 9.7288 -0.943 -1.4816 0
M  V30 6 C 8.7212 0.7 0.0 0
M  V30 7 N 4.9988 -0.2681 -1.4648 0
M  V30 8 C 6.3149 1.0046 0.0099 0
M  V30 9 C 11.0049 -0.6107 -1.0117 0
M  V30 10 N 9.905 1.0204 0.4443 0
M  V30 11 C 7.5804 1.3422 0.5059 0
M  V30 12 C 3.8047 0.3781 -0.9993 0
M  V30 13 O 5.1713 1.6452 0.5048 0
M  V30 14 C 12.164 -1.2545 -1.4954 0
M  V30 15 C 11.1026 0.3938 -0.0378 0
M  V30 16 Cl 7.7239 2.5737 1.7599 0
M  V30 17 C 3.8996 1.3452 0.0058 0
M  V30 18 C 2.5697 0.0561 -1.551 0
M  V30 19 S 12.0334 -2.5411 -2.7132 0
M  V30 20 C 13.4307 -0.8553 -0.9901 0
M  V30 21 C 12.3478 0.7795 0.4526 0
M  V30 22 C 2.746 1.995 0.4838 0
M  V30 23 C 1.4041 0.6994 -1.1126 0
M  V30 24 O 10.6039 -2.8016 -3.0971 0
M  V30 25 O 12.616 -3.811 -2.1576 0
M  V30 26 O 12.8786 -2.0843 -4.0918 0 CHG=-1
M  V30 27 N 14.6529 -1.4591 -1.439 0
M  V30 28 C 13.5036 0.1613 -0.0224 0
M  V30 29 S 2.8797 3.2222 1.7635 0
M  V30 30 C 1.4837 1.6723 -0.0827 0
M  V30 31 S -0.1424 0.2361 -1.8465 0
M  V30 32 O 2.2146 4.4935 1.313 0
M  V30 33 O 4.3126 3.5313 2.0953 0
M  V30 34 O 2.1253 2.6516 3.1514 0 CHG=-1
M  V30 35 N 0.2941 2.3337 0.3787 0
M  V30 36 O -0.7125 1.4161 -2.5826 0
M  V30 37 O 0.058 -0.8801 -2.8326 0
M  V30 38 C -1.2597 -0.3301 -0.6075 0
M  V30 39 C -2.4453 0.3685 -0.336 0
M  V30 40 C -0.9516 -1.4853 0.1215 0
M  V30 41 C -3.3159 -0.0787 0.6687 0
M  V30 42 C -1.8208 -1.9484 1.1137 0
M  V30 43 C -3.0059 -1.252 1.3945 0
M  V30 44 C -4.4847 0.6329 0.9693 0
M  V30 45 C -3.8839 -1.7045 2.3913 0
M  V30 46 C -5.3431 0.185 1.9751 0
M  V30 47 C -5.0631 -0.999 2.6828 0
M  V30 48 N -5.9492 -1.5034 3.6994 0
M  V30 49 S -7.5617 -0.9128 3.9564 0
M  V30 50 O -8.2941 -1.8506 4.8742 0
M  V30 51 O -7.4883 0.4441 4.6008 0
M  V30 52 C -8.428 -0.8255 2.424 0
M  V30 53 C -9.2139 0.2894 2.117 0
M  V30 54 C -8.3006 -1.8565 1.4897 0
M  V30 55 C -9.8461 0.3858 0.8756 0
M  V30 56 C -8.9336 -1.7672 0.2466 0
M  V30 57 C -9.715 -0.6356 -0.0923 0
M  V30 58 C -10.3996 -0.4744 -1.4659 0
M  V30 59 C -10.1764 -1.6869 -2.4004 0
M  V30 60 C -11.9235 -0.3121 -1.2687 0
M  V30 61 C -9.8348 0.776 -2.1755 0
M  V30 62 H 2.5238 -0.699 -2.3234 0
M  V30 63 H 12.4228 1.5577 1.202 0
M  V30 64 H 14.6774 -2.2375 -2.1303 0
M  V30 65 H 15.5704 -1.1426 -1.0505 0
M  V30 66 H 14.4641 0.4749 0.3677 0
M  V30 67 H 0.2272 2.754 1.3303 0
M  V30 68 H -0.5476 2.4327 -0.2253 0
M  V30 69 H -2.6837 1.2648 -0.8954 0
M  V30 70 H -0.0372 -2.029 -0.0807 0
M  V30 71 H -1.5644 -2.8468 1.6628 0
M  V30 72 H -4.7306 1.5432 0.4351 0
M  V30 73 H -3.6546 -2.6093 2.9413 0
M  V30 74 H -6.2167 0.7798 2.1982 0
M  V30 75 H -5.6508 -2.3243 4.2733 0
M  V30 76 H -9.324 1.0954 2.8315 0
M  V30 77 H -7.6988 -2.7266 1.7194 0
M  V30 78 H -10.4315 1.2737 0.6726 0
M  V30 79 H -8.7882 -2.5885 -0.439 0
M  V30 80 H -10.5905 -2.6138 -1.9487 0
M  V30 81 H -10.6887 -1.5366 -3.3754 0
M  V30 82 H -9.0955 -1.8303 -2.6137 0
M  V30 83 H -12.1676 0.6098 -0.7012 0
M  V30 84 H -12.4449 -0.2459 -2.2486 0
M  V30 85 H -12.3372 -1.1828 -0.7142 0
M  V30 86 H -8.7332 0.6844 -2.2993 0
M  V30 87 H -10.2923 0.9026 -3.1817 0
M  V30 88 H -10.0424 1.7003 -1.5959 0
M  V30 END ATOM
M  V30 BEGIN BOND
M  V30 1 1 1 2
M  V30 2 2 2 3
M  V30 3 1 2 4
M  V30 4 1 3 5
M  V30 5 1 3 6
M  V30 6 2 4 7
M  V30 7 1 4 8
M  V30 8 1 5 9
M  V30 9 2 6 10
M  V30 10 1 6 11
M  V30 11 1 7 12
M  V30 12 1 8 13
M  V30 13 2 9 14
M  V30 14 1 9 15
M  V30 15 1 11 16
M  V30 16 2 12 17
M  V30 17 1 12 18
M  V30 18 1 14 19
M  V30 19 1 14 20
M  V30 20 2 15 21
M  V30 21 1 17 22
M  V30 22 2 18 23
M  V30 23 2 19 24
M  V30 24 2 19 25
M  V30 25 1 19 26
M  V30 26 1 20 27
M  V30 27 2 20 28
M  V30 28 1 22 29
M  V30 29 2 22 30
M  V30 30 1 23 31
M  V30 31 2 29 32
M  V30 32 2 29 33
M  V30 33 1 29 34
M  V30 34 1 30 35
M  V30 35 2 31 36
M  V30 36 2 31 37
M  V30 37 1 31 38
M  V30 38 2 38 39
M  V30 39 1 38 40
M  V30 40 1 39 41
M  V30 41 2 40 42
M  V30 42 1 41 43
M  V30 43 2 41 44
M  V30 44 2 43 45
M  V30 45 1 44 46
M  V30 46 1 45 47
M  V30 47 1 47 48
M  V30 48 1 48 49
M  V30 49 2 49 50
M  V30 50 2 49 51
M  V30 51 1 49 52
M  V30 52 2 52 53
M  V30 53 1 52 54
M  V30 54 1 53 55
M  V30 55 2 54 56
M  V30 56 2 55 57
M  V30 57 1 57 58
M  V30 58 1 58 59
M  V30 59 1 58 60
M  V30 60 1 58 61
M  V30 61 2 8 11
M  V30 62 1 10 15
M  V30 63 1 13 17
M  V30 64 1 21 28
M  V30 65 1 23 30
M  V30 66 1 42 43
M  V30 67 2 46 47
M  V30 68 1 56 57
M  V30 69 1 18 62
M  V30 70 1 21 63
M  V30 71 1 27 64
M  V30 72 1 27 65
M  V30 73 1 28 66
M  V30 74 1 35 67
M  V30 75 1 35 68
M  V30 76 1 39 69
M  V30 77 1 40 70
M  V30 78 1 42 71
M  V30 79 1 44 72
M  V30 80 1 45 73
M  V30 81 1 46 74
M  V30 82 1 48 75
M  V30 83 1 53 76
M  V30 84 1 54 77
M  V30 85 1 55 78
M  V30 86 1 56 79
M  V30 87 1 59 80
M  V30 88 1 59 81
M  V30 89 1 59 82
M  V30 90 1 60 83
M  V30 91 1 60 84
M  V30 92 1 60 85
M  V30 93 1 61 86
M  V30 94 1 61 87
M  V30 95 1 61 88
M  V30 END BOND
M  V30 END CTAB
M  END
>  <Structure No>
1782

>  <LogS>
-2.180765898

>  <MMFF94 Energy>
225.29

$$$$
Compound 1783
Actelion Java MolfileCreator 2.0

  0  0  0  0  0  0              0 V3000
M  V30 BEGIN CTAB
M  V30 COUNTS 12 11 0 0 0
M  V30 BEGIN ATOM
M  V30 1 S 0.6387 0.0 -1.1179 0
M  V30 2 C -0.4763 -0.0466 0.3251 0
M  V30 3 C 2.1338 0.3421 -0.1373 0
M  V30 4 C -1.9009 -0.3264 -0.1284 0
M  V30 5 H -0.4462 0.9305 0.8528 0
M  V30 6 H -0.1513 -0.8474 1.0232 0
M  V30 7 H 2.3157 -0.4831 0.582 0
M  V30 8 H 2.0197 1.3002 0.4111 0
M  V30 9 H 3.0042 0.4211 -0.8202 0
M  V30 10 H -2.2466 0.4725 -0.8181 0
M  V30 11 H -1.9514 -1.307 -0.6476 0
M  V30 12 H -2.5748 -0.3537 0.7536 0
M  V30 END ATOM
M  V30 BEGIN BOND
M  V30 1 1 1 2
M  V30 2 1 1 3
M  V30 3 1 2 4
M  V30 4 1 2 5
M  V30 5 1 2 6
M  V30 6 1 3 7
M  V30 7 1 3 8
M  V30 8 1 3 9
M  V30 9 1 4 10
M  V30 10 1 4 11
M  V30 11 1 4 12
M  V30 END BOND
M  V30 END CTAB
M  END
>  <Structure No>
1783

>  <LogS>
-1.056973282

>  <MMFF94 Energy>
2.0417

$$$$
Compound 1784
Actelion Java MolfileCreator 2.0

  0  0  0  0  0  0              0 V3000
M  V30 BEGIN CTAB
M  V30 COUNTS 14 14 0 0 0
M  V30 BEGIN ATOM
M  V30 1 O 2.9947 1.1025 0.0 0
M  V30 2 C 2.3536 0.0433 -0.2321 0
M  V30 3 C 0.8863 -0.0039 -0.0955 0
M  V30 4 C 0.1554 1.1317 0.2984 0
M  V30 5 C 0.2026 -1.2014 -0.3622 0
M  V30 6 C -1.2362 1.0656 0.422 0
M  V30 7 C -1.1889 -1.2624 -0.2372 0
M  V30 8 C -1.9077 -0.13 0.1544 0
M  V30 9 H 2.8974 -0.8417 -0.5364 0
M  V30 10 H 0.6574 2.0675 0.5101 0
M  V30 11 H 0.7453 -2.0879 -0.6668 0
M  V30 12 H -1.7941 1.9422 0.7254 0
M  V30 13 H -1.7101 -2.1881 -0.4442 0
M  V30 14 H -2.9847 -0.179 0.2507 0
M  V30 END ATOM
M  V30 BEGIN BOND
M  V30 1 2 1 2
M  V30 2 1 2 3
M  V30 3 2 3 4
M  V30 4 1 3 5
M  V30 5 1 4 6
M  V30 6 2 5 7
M  V30 7 2 6 8
M  V30 8 1 7 8
M  V30 9 1 2 9
M  V30 10 1 4 10
M  V30 11 1 5 11
M  V30 12 1 6 12
M  V30 13 1 7 13
M  V30 14 1 8 14
M  V30 END BOND
M  V30 END CTAB
M  END
>  <Structure No>
1784

>  <LogS>
-1.209572311

>  <MMFF94 Energy>
31.144

$$$$
Compound 1785
Actelion Java MolfileCreator 2.0

  0  0  0  0  0  0              0 V3000
M  V30 BEGIN CTAB
M  V30 COUNTS 32 31 0 0 0
M  V30 BEGIN ATOM
M  V30 1 O 0.5457 -0.1559 -0.3897 0
M  V30 2 O -0.2511 -0.7837 0.4664 0
M  V30 3 C 1.7666 0.1129 0.2787 0 CFG=1
M  V30 4 C -1.5627 -0.2843 0.2852 0 CFG=1
M  V30 5 O 2.2848 -1.06 0.8844 0
M  V30 6 C 2.7629 0.6711 -0.7734 0
M  V30 7 C 1.5283 1.1665 1.3798 0
M  V30 8 O -1.5097 1.1397 0.2645 0
M  V30 9 C -2.1095 -0.8549 -1.0584 0
M  V30 10 C -2.3717 -0.8163 1.4917 0
M  V30 11 O 2.357 -1.9924 -0.0502 0
M  V30 12 C 4.1918 0.8502 -0.2515 0
M  V30 13 O -2.7235 1.6211 0.4676 0
M  V30 14 C -3.5423 -0.4552 -1.4229 0
M  V30 15 H 2.7987 -0.0194 -1.6442 0
M  V30 16 H 2.3953 1.6478 -1.1577 0
M  V30 17 H 0.7796 0.8031 2.1151 0
M  V30 18 H 2.4612 1.3719 1.9435 0
M  V30 19 H 1.1535 2.1149 0.9387 0
M  V30 20 H -1.4507 -0.527 -1.8914 0
M  V30 21 H -2.0574 -1.9653 -1.0242 0
M  V30 22 H -2.3353 -1.9266 1.5175 0
M  V30 23 H -1.9286 -0.4328 2.4356 0
M  V30 24 H -3.4363 -0.5075 1.464 0
M  V30 25 H 1.6958 -2.6784 0.2233 0
M  V30 26 H 4.2371 1.6497 0.5156 0
M  V30 27 H 4.8532 1.1483 -1.092 0
M  V30 28 H 4.5794 -0.0981 0.1754 0
M  V30 29 H -2.6749 2.0629 1.3537 0
M  V30 30 H -4.261 -0.7487 -0.6322 0
M  V30 31 H -3.6128 0.6342 -1.6184 0
M  V30 32 H -3.8366 -0.9795 -2.3564 0
M  V30 END ATOM
M  V30 BEGIN BOND
M  V30 1 1 1 2
M  V30 2 1 1 3
M  V30 3 1 2 4
M  V30 4 1 3 5
M  V30 5 1 3 6
M  V30 6 1 3 7
M  V30 7 1 4 8
M  V30 8 1 4 9
M  V30 9 1 4 10
M  V30 10 1 5 11
M  V30 11 1 6 12
M  V30 12 1 8 13
M  V30 13 1 9 14
M  V30 14 1 6 15
M  V30 15 1 6 16
M  V30 16 1 7 17
M  V30 17 1 7 18
M  V30 18 1 7 19
M  V30 19 1 9 20
M  V30 20 1 9 21
M  V30 21 1 10 22
M  V30 22 1 10 23
M  V30 23 1 10 24
M  V30 24 1 11 25
M  V30 25 1 12 26
M  V30 26 1 12 27
M  V30 27 1 12 28
M  V30 28 1 13 29
M  V30 29 1 14 30
M  V30 30 1 14 31
M  V30 31 1 14 32
M  V30 END BOND
M  V30 BEGIN COLLECTION
M  V30 MDLV30/STEABS ATOMS=(2 3 4)
M  V30 END COLLECTION
M  V30 END CTAB
M  END
>  <Structure No>
1785

>  <LogS>
-1.507773246

>  <MMFF94 Energy>
69.279

$$$$
Compound 1786
Actelion Java MolfileCreator 2.0

  0  0  0  0  0  0              0 V3000
M  V30 BEGIN CTAB
M  V30 COUNTS 28 28 0 0 0
M  V30 BEGIN ATOM
M  V30 1 O 0.3881 -2.1752 -1.0871 0
M  V30 2 C 0.1819 -1.3912 0.0616 0 CFG=2
M  V30 3 C -1.0782 -0.5536 -0.0821 0
M  V30 4 C 1.4487 -0.5333 0.3402 0 CFG=1
M  V30 5 C -1.8926 -0.3126 1.0393 0
M  V30 6 C -1.4402 0.01 -1.3207 0
M  V30 7 N 1.7076 0.4339 -0.7533 0 CHG=1
M  V30 8 C 1.3469 0.1714 1.7086 0
M  V30 9 C -3.0435 0.4728 0.9235 0
M  V30 10 C -2.5922 0.7947 -1.4313 0
M  V30 11 C 3.0686 0.9824 -0.7071 0
M  V30 12 C -3.3931 1.0259 -0.3104 0
M  V30 13 H -0.32 -2.8717 -1.0922 0
M  V30 14 H 0.0544 -2.0858 0.9261 0
M  V30 15 H 2.2989 -1.251 0.4058 0
M  V30 16 H -1.6347 -0.7298 2.0048 0
M  V30 17 H -0.8325 -0.1552 -2.201 0
M  V30 18 H 1.0261 1.2275 -0.7101 0
M  V30 19 H 1.6002 -0.0427 -1.6785 0
M  V30 20 H 0.6121 1.0032 1.6731 0
M  V30 21 H 2.3328 0.5792 2.0122 0
M  V30 22 H 1.0353 -0.549 2.4946 0
M  V30 23 H -3.6638 0.6539 1.7918 0
M  V30 24 H -2.8635 1.2247 -2.3868 0
M  V30 25 H 3.8253 0.1684 -0.675 0
M  V30 26 H 3.1984 1.6506 0.1702 0
M  V30 27 H 3.2567 1.5895 -1.6191 0
M  V30 28 H -4.2841 1.6343 -0.398 0
M  V30 END ATOM
M  V30 BEGIN BOND
M  V30 1 1 1 2
M  V30 2 1 2 3
M  V30 3 1 2 4
M  V30 4 2 3 5
M  V30 5 1 3 6
M  V30 6 1 4 7
M  V30 7 1 4 8
M  V30 8 1 5 9
M  V30 9 2 6 10
M  V30 10 1 7 11
M  V30 11 2 9 12
M  V30 12 1 10 12
M  V30 13 1 1 13
M  V30 14 1 2 14
M  V30 15 1 4 15
M  V30 16 1 5 16
M  V30 17 1 6 17
M  V30 18 1 7 18
M  V30 19 1 7 19
M  V30 20 1 8 20
M  V30 21 1 8 21
M  V30 22 1 8 22
M  V30 23 1 9 23
M  V30 24 1 10 24
M  V30 25 1 11 25
M  V30 26 1 11 26
M  V30 27 1 11 27
M  V30 28 1 12 28
M  V30 END BOND
M  V30 BEGIN COLLECTION
M  V30 MDLV30/STEABS ATOMS=(2 2 4)
M  V30 END COLLECTION
M  V30 END CTAB
M  END
>  <Structure No>
1786

>  <LogS>
-1.405191317

>  <MMFF94 Energy>
53.728

$$$$
Compound 1787
Actelion Java MolfileCreator 2.0

  0  0  0  0  0  0              0 V3000
M  V30 BEGIN CTAB
M  V30 COUNTS 20 19 0 0 0
M  V30 BEGIN ATOM
M  V30 1 O 0.3867 -1.5476 1.1605 0
M  V30 2 C -0.0859 -0.6872 0.3682 0
M  V30 3 O 0.7482 -0.0102 -0.5302 0
M  V30 4 C -1.5584 -0.39 0.3849 0
M  V30 5 C 2.1631 -0.1814 -0.5692 0
M  V30 6 C -1.7988 1.0771 0.7507 0
M  V30 7 C -2.184 -0.7253 -0.9716 0
M  V30 8 C 2.8248 0.55 0.5928 0
M  V30 9 H -2.0494 -1.0231 1.1575 0
M  V30 10 H 2.424 -1.2617 -0.5449 0
M  V30 11 H 2.5441 0.2438 -1.5213 0
M  V30 12 H -1.3504 1.3014 1.7423 0
M  V30 13 H -1.3481 1.7529 -0.008 0
M  V30 14 H -2.8891 1.2822 0.8088 0
M  V30 15 H -1.744 -0.0972 -1.7762 0
M  V30 16 H -3.2804 -0.5486 -0.9399 0
M  V30 17 H -2.0121 -1.7953 -1.2166 0
M  V30 18 H 2.4966 0.1168 1.5605 0
M  V30 19 H 3.9281 0.4539 0.5148 0
M  V30 20 H 2.554 1.6268 0.5657 0
M  V30 END ATOM
M  V30 BEGIN BOND
M  V30 1 2 1 2
M  V30 2 1 2 3
M  V30 3 1 2 4
M  V30 4 1 3 5
M  V30 5 1 4 6
M  V30 6 1 4 7
M  V30 7 1 5 8
M  V30 8 1 4 9
M  V30 9 1 5 10
M  V30 10 1 5 11
M  V30 11 1 6 12
M  V30 12 1 6 13
M  V30 13 1 6 14
M  V30 14 1 7 15
M  V30 15 1 7 16
M  V30 16 1 7 17
M  V30 17 1 8 18
M  V30 18 1 8 19
M  V30 19 1 8 20
M  V30 END BOND
M  V30 END CTAB
M  END
>  <Structure No>
1787

>  <LogS>
-1.255496889

>  <MMFF94 Energy>
-8.4033

$$$$
Compound 1788
Actelion Java MolfileCreator 2.0

  0  0  0  0  0  0              0 V3000
M  V30 BEGIN CTAB
M  V30 COUNTS 15 16 0 0 0
M  V30 BEGIN ATOM
M  V30 1 O 2.6198 1.9643 0.3271 0
M  V30 2 C 2.0562 0.8476 0.1875 0
M  V30 3 O 2.733 -0.3691 0.1209 0
M  V30 4 C 0.6205 0.6237 0.072 0
M  V30 5 C 1.7542 -1.3494 -0.0337 0
M  V30 6 C 0.4341 -0.732 -0.0645 0
M  V30 7 C -0.4528 1.5125 0.0823 0
M  V30 8 O 1.9947 -2.581 -0.1306 0
M  V30 9 C -0.8375 -1.2856 -0.1995 0
M  V30 10 C -1.7484 0.9809 -0.0521 0
M  V30 11 C -1.9399 -0.4115 -0.1924 0
M  V30 12 H -0.2958 2.5778 0.1904 0
M  V30 13 H -0.9739 -2.3538 -0.3064 0
M  V30 14 H -2.604 1.6436 -0.0481 0
M  V30 15 H -2.9412 -0.8088 -0.2951 0
M  V30 END ATOM
M  V30 BEGIN BOND
M  V30 1 2 1 2
M  V30 2 1 2 3
M  V30 3 1 2 4
M  V30 4 1 3 5
M  V30 5 2 4 6
M  V30 6 1 4 7
M  V30 7 2 5 8
M  V30 8 1 6 9
M  V30 9 2 7 10
M  V30 10 2 9 11
M  V30 11 1 5 6
M  V30 12 1 10 11
M  V30 13 1 7 12
M  V30 14 1 9 13
M  V30 15 1 10 14
M  V30 16 1 11 15
M  V30 END BOND
M  V30 END CTAB
M  END
>  <Structure No>
1788

>  <LogS>
-1.364424933

>  <MMFF94 Energy>
13.58

$$$$
Compound 1789
Actelion Java MolfileCreator 2.0

  0  0  0  0  0  0              0 V3000
M  V30 BEGIN CTAB
M  V30 COUNTS 6 5 0 0 0
M  V30 BEGIN ATOM
M  V30 1 Cl -1.4941 1.4062 -0.1757 0
M  V30 2 C -0.6908 -0.1402 0.0719 0
M  V30 3 C 0.6404 -0.2619 0.0718 0
M  V30 4 Cl 1.7108 1.1132 -0.1759 0
M  V30 5 H -1.3059 -1.0203 0.2294 0
M  V30 6 H 1.0855 -1.239 0.2292 0
M  V30 END ATOM
M  V30 BEGIN BOND
M  V30 1 1 1 2
M  V30 2 2 2 3
M  V30 3 1 3 4
M  V30 4 1 2 5
M  V30 5 1 3 6
M  V30 END BOND
M  V30 END CTAB
M  END
>  <Structure No>
1789

>  <LogS>
-1.187180386

>  <MMFF94 Energy>
3.1872

$$$$
Compound 1790
Actelion Java MolfileCreator 2.0

  0  0  0  0  0  0              0 V3000
M  V30 BEGIN CTAB
M  V30 COUNTS 17 18 0 0 0
M  V30 BEGIN ATOM
M  V30 1 N -1.1935 -1.3527 0.8751 0
M  V30 2 C -0.0645 -0.6702 0.5425 0
M  V30 3 C -2.4147 -0.9869 0.4015 0
M  V30 4 C -0.1449 0.4499 -0.3161 0
M  V30 5 C 1.1766 -1.0736 1.048 0
M  V30 6 C -2.5375 0.1143 -0.4497 0
M  V30 7 C -1.3975 0.836 -0.8101 0
M  V30 8 C 1.0215 1.1509 -0.6566 0
M  V30 9 C 2.3344 -0.369 0.7032 0
M  V30 10 C 2.2571 0.7396 -0.1461 0
M  V30 11 H -3.2923 -1.5517 0.6861 0
M  V30 12 H 1.2462 -1.9307 1.7063 0
M  V30 13 H -3.5092 0.4058 -0.8268 0
M  V30 14 H -1.494 1.6897 -1.4701 0
M  V30 15 H 0.9776 2.0114 -1.3133 0
M  V30 16 H 3.2934 -0.6825 1.095 0
M  V30 17 H 3.1565 1.2809 -0.4092 0
M  V30 END ATOM
M  V30 BEGIN BOND
M  V30 1 1 1 2
M  V30 2 2 1 3
M  V30 3 1 2 4
M  V30 4 2 2 5
M  V30 5 1 3 6
M  V30 6 1 4 7
M  V30 7 2 4 8
M  V30 8 1 5 9
M  V30 9 1 8 10
M  V30 10 2 6 7
M  V30 11 2 9 10
M  V30 12 1 3 11
M  V30 13 1 5 12
M  V30 14 1 6 13
M  V30 15 1 7 14
M  V30 16 1 8 15
M  V30 17 1 9 16
M  V30 18 1 10 17
M  V30 END BOND
M  V30 END CTAB
M  END
>  <Structure No>
1790

>  <LogS>
-1.325093551

>  <MMFF94 Energy>
33.894

$$$$
Compound 1791
Actelion Java MolfileCreator 2.0

  0  0  0  0  0  0              0 V3000
M  V30 BEGIN CTAB
M  V30 COUNTS 22 22 0 0 0
M  V30 BEGIN ATOM
M  V30 1 O -1.7201 -1.5636 -0.2344 0
M  V30 2 C -1.2909 -0.2515 0.0503 0
M  V30 3 C 0.2294 -0.1284 -0.1081 0
M  V30 4 C -2.0444 0.7218 -0.8844 0
M  V30 5 C -1.6635 0.0516 1.5081 0
M  V30 6 C 1.0511 -1.2767 -0.1245 0
M  V30 7 C 0.8528 1.138 -0.1427 0
M  V30 8 C 2.4403 -1.1593 -0.2278 0
M  V30 9 C 2.2425 1.2477 -0.2458 0
M  V30 10 C 3.0348 0.1007 -0.2944 0
M  V30 11 H -1.5285 -1.7456 -1.1925 0
M  V30 12 H -3.1313 0.4905 -0.8766 0
M  V30 13 H -1.9253 1.7782 -0.5649 0
M  V30 14 H -1.6755 0.6197 -1.9275 0
M  V30 15 H -1.3686 1.0861 1.7875 0
M  V30 16 H -1.1499 -0.6588 2.1912 0
M  V30 17 H -2.7597 -0.0548 1.6566 0
M  V30 18 H 0.6263 -2.2691 -0.0516 0
M  V30 19 H 0.2717 2.0471 -0.0787 0
M  V30 20 H 3.0573 -2.0483 -0.2488 0
M  V30 21 H 2.7061 2.2252 -0.2794 0
M  V30 22 H 4.1107 0.1887 -0.3715 0
M  V30 END ATOM
M  V30 BEGIN BOND
M  V30 1 1 1 2
M  V30 2 1 2 3
M  V30 3 1 2 4
M  V30 4 1 2 5
M  V30 5 2 3 6
M  V30 6 1 3 7
M  V30 7 1 6 8
M  V30 8 2 7 9
M  V30 9 2 8 10
M  V30 10 1 9 10
M  V30 11 1 1 11
M  V30 12 1 4 12
M  V30 13 1 4 13
M  V30 14 1 4 14
M  V30 15 1 5 15
M  V30 16 1 5 16
M  V30 17 1 5 17
M  V30 18 1 6 18
M  V30 19 1 7 19
M  V30 20 1 8 20
M  V30 21 1 9 21
M  V30 22 1 10 22
M  V30 END BOND
M  V30 END CTAB
M  END
>  <Structure No>
1791

>  <LogS>
-1.759306143

>  <MMFF94 Energy>
29.553

$$$$
Compound 1792
Actelion Java MolfileCreator 2.0

  0  0  0  0  0  0              0 V3000
M  V30 BEGIN CTAB
M  V30 COUNTS 56 61 0 0 0
M  V30 BEGIN ATOM
M  V30 1 S -2.2966 -2.552 -4.1707 0
M  V30 2 O -1.0696 -2.4177 -5.0285 0
M  V30 3 O -3.4895 -2.0761 -4.9507 0
M  V30 4 O -2.4893 -4.1719 -3.7691 0 CHG=-1
M  V30 5 C -2.1315 -1.5877 -2.6942 0
M  V30 6 C -3.071 -1.6755 -1.6443 0
M  V30 7 C -1.0174 -0.7599 -2.5579 0
M  V30 8 N -4.1542 -2.6138 -1.7399 0
M  V30 9 C -2.9044 -0.8776 -0.4782 0
M  V30 10 C -0.7944 -0.0306 -1.3882 0
M  V30 11 C -3.9458 -0.8325 0.5908 0
M  V30 12 C -1.7454 -0.0688 -0.3344 0
M  V30 13 C 0.4585 0.7565 -1.3126 0
M  V30 14 O -5.1265 -1.2085 0.3566 0
M  V30 15 C -3.6227 -0.2736 1.9186 0
M  V30 16 C -1.5587 0.7126 0.9289 0
M  V30 17 C 1.5975 0.3255 -0.5828 0
M  V30 18 C 0.4837 1.9768 -1.9905 0
M  V30 19 C -2.4499 0.4823 2.0856 0
M  V30 20 C -4.4874 -0.4659 3.0109 0
M  V30 21 O -0.654 1.5859 1.0229 0
M  V30 22 C 1.6237 -0.9837 0.1424 0
M  V30 23 C 2.7425 1.1647 -0.5298 0
M  V30 24 C 1.5871 2.8265 -1.9133 0
M  V30 25 C -2.1512 1.0304 3.347 0
M  V30 26 C -4.1786 0.0788 4.2594 0
M  V30 27 O 0.7112 -1.8378 -0.0294 0
M  V30 28 C 2.7355 -1.3024 1.0639 0
M  V30 29 C 3.9698 0.6589 0.1542 0
M  V30 30 C 2.7146 2.4417 -1.1567 0
M  V30 31 S 1.5047 4.3998 -2.7231 0
M  V30 32 C -3.012 0.8254 4.4273 0
M  V30 33 C 3.887 -0.4965 1.0686 0
M  V30 34 C 2.6661 -2.4176 1.9201 0
M  V30 35 O 5.0983 1.1664 -0.0893 0
M  V30 36 N 3.7953 3.3699 -0.9729 0
M  V30 37 O 1.7354 5.4966 -1.7226 0
M  V30 38 O 0.1552 4.5999 -3.3525 0
M  V30 39 O 2.6744 4.4732 -3.926 0 CHG=-1
M  V30 40 C 4.9574 -0.817 1.9237 0
M  V30 41 C 3.732 -2.7229 2.7695 0
M  V30 42 C 4.8761 -1.9243 2.7708 0
M  V30 43 H -0.2881 -0.7048 -3.3571 0
M  V30 44 H -4.5747 -2.8757 -2.6579 0
M  V30 45 H -4.4737 -3.1495 -0.903 0
M  V30 46 H -0.3898 2.2807 -2.5542 0
M  V30 47 H -5.3973 -1.0427 2.9018 0
M  V30 48 H -1.2522 1.6144 3.4989 0
M  V30 49 H -4.8452 -0.0774 5.0977 0
M  V30 50 H -2.7746 1.247 5.3959 0
M  V30 51 H 1.7884 -3.0516 1.9343 0
M  V30 52 H 4.0351 4.0851 -1.6926 0
M  V30 53 H 4.2973 3.433 -0.06 0
M  V30 54 H 5.8539 -0.2096 1.9404 0
M  V30 55 H 3.6715 -3.5811 3.426 0
M  V30 56 H 5.7019 -2.1639 3.4279 0
M  V30 END ATOM
M  V30 BEGIN BOND
M  V30 1 2 1 2
M  V30 2 2 1 3
M  V30 3 1 1 4
M  V30 4 1 1 5
M  V30 5 2 5 6
M  V30 6 1 5 7
M  V30 7 1 6 8
M  V30 8 1 6 9
M  V30 9 2 7 10
M  V30 10 1 9 11
M  V30 11 2 9 12
M  V30 12 1 10 13
M  V30 13 2 11 14
M  V30 14 1 11 15
M  V30 15 1 12 16
M  V30 16 2 13 17
M  V30 17 1 13 18
M  V30 18 2 15 19
M  V30 19 1 15 20
M  V30 20 2 16 21
M  V30 21 1 17 22
M  V30 22 1 17 23
M  V30 23 2 18 24
M  V30 24 1 19 25
M  V30 25 2 20 26
M  V30 26 2 22 27
M  V30 27 1 22 28
M  V30 28 1 23 29
M  V30 29 2 23 30
M  V30 30 1 24 31
M  V30 31 2 25 32
M  V30 32 2 28 33
M  V30 33 1 28 34
M  V30 34 2 29 35
M  V30 35 1 30 36
M  V30 36 2 31 37
M  V30 37 2 31 38
M  V30 38 1 31 39
M  V30 39 1 33 40
M  V30 40 2 34 41
M  V30 41 2 40 42
M  V30 42 1 10 12
M  V30 43 1 16 19
M  V30 44 1 24 30
M  V30 45 1 26 32
M  V30 46 1 29 33
M  V30 47 1 41 42
M  V30 48 1 7 43
M  V30 49 1 8 44
M  V30 50 1 8 45
M  V30 51 1 18 46
M  V30 52 1 20 47
M  V30 53 1 25 48
M  V30 54 1 26 49
M  V30 55 1 32 50
M  V30 56 1 34 51
M  V30 57 1 36 52
M  V30 58 1 36 53
M  V30 59 1 40 54
M  V30 60 1 41 55
M  V30 61 1 42 56
M  V30 END BOND
M  V30 END CTAB
M  END
>  <Structure No>
1792

>  <LogS>
-2.030180053

>  <MMFF94 Energy>
255.22

$$$$
Compound 1793
Actelion Java MolfileCreator 2.0

  0  0  0  0  0  0              0 V3000
M  V30 BEGIN CTAB
M  V30 COUNTS 24 24 0 0 0
M  V30 BEGIN ATOM
M  V30 1 N 0.4663 0.2331 0.1554 0 CHG=1
M  V30 2 C -0.4543 1.3063 -0.2899 0
M  V30 3 C -0.0624 -1.0959 -0.2384 0
M  V30 4 C 1.8117 0.4682 -0.425 0
M  V30 5 C -1.8548 1.1309 0.3136 0
M  V30 6 C -1.4526 -1.3461 0.3639 0
M  V30 7 C 2.9023 -0.3748 0.2464 0
M  V30 8 C -2.4254 -0.2405 -0.0457 0
M  V30 9 H 0.5396 0.2779 1.2006 0
M  V30 10 H -0.532 1.3187 -1.4016 0
M  V30 11 H -0.0699 2.3001 0.0331 0
M  V30 12 H -0.1219 -1.1822 -1.3476 0
M  V30 13 H 0.6029 -1.9046 0.1303 0
M  V30 14 H 2.1044 1.5342 -0.2884 0
M  V30 15 H 1.812 0.2658 -1.52 0
M  V30 16 H -1.8006 1.2362 1.4196 0
M  V30 17 H -2.5284 1.9244 -0.0757 0
M  V30 18 H -1.8388 -2.3264 0.0105 0
M  V30 19 H -1.3766 -1.3849 1.473 0
M  V30 20 H 2.8557 -0.2679 1.3508 0
M  V30 21 H 2.8064 -1.4447 -0.0288 0
M  V30 22 H 3.8994 -0.027 -0.0971 0
M  V30 23 H -3.3954 -0.3873 0.4762 0
M  V30 24 H -2.6112 -0.2929 -1.1413 0
M  V30 END ATOM
M  V30 BEGIN BOND
M  V30 1 1 1 2
M  V30 2 1 1 3
M  V30 3 1 1 4
M  V30 4 1 2 5
M  V30 5 1 3 6
M  V30 6 1 4 7
M  V30 7 1 5 8
M  V30 8 1 6 8
M  V30 9 1 1 9
M  V30 10 1 2 10
M  V30 11 1 2 11
M  V30 12 1 3 12
M  V30 13 1 3 13
M  V30 14 1 4 14
M  V30 15 1 4 15
M  V30 16 1 5 16
M  V30 17 1 5 17
M  V30 18 1 6 18
M  V30 19 1 6 19
M  V30 20 1 7 20
M  V30 21 1 7 21
M  V30 22 1 7 22
M  V30 23 1 8 23
M  V30 24 1 8 24
M  V30 END BOND
M  V30 END CTAB
M  END
>  <Structure No>
1793

>  <LogS>
-1.275710522

>  <MMFF94 Energy>
4.4824

$$$$
Compound 1794
Actelion Java MolfileCreator 2.0

  0  0  0  0  0  0              0 V3000
M  V30 BEGIN CTAB
M  V30 COUNTS 20 20 0 0 0
M  V30 BEGIN ATOM
M  V30 1 S 2.4016 -1.1588 0.0 0
M  V30 2 O 3.2034 -0.7973 -1.2181 0
M  V30 3 O 2.1721 -2.6443 0.0052 0
M  V30 4 O 3.2548 -0.7443 1.3867 0 CHG=-1
M  V30 5 C 0.8587 -0.2934 -0.0268 0
M  V30 6 C 0.7983 1.1209 0.0061 0
M  V30 7 C -0.3353 -1.0324 -0.0762 0
M  V30 8 N 1.9821 1.9296 0.0517 0
M  V30 9 C -0.4526 1.7565 -0.0027 0
M  V30 10 C -1.5792 -0.3866 -0.1046 0
M  V30 11 C -1.6309 1.0109 -0.0508 0
M  V30 12 C -2.8469 -1.189 -0.1176 0
M  V30 13 H -0.3027 -2.1144 -0.0933 0
M  V30 14 H 1.9091 2.9712 0.084 0
M  V30 15 H 2.9413 1.5227 0.0464 0
M  V30 16 H -0.5146 2.8371 0.0303 0
M  V30 17 H -2.5842 1.5251 -0.0478 0
M  V30 18 H -2.7024 -2.1396 -0.6737 0
M  V30 19 H -3.6651 -0.6237 -0.6128 0
M  V30 20 H -3.1473 -1.4215 0.9253 0
M  V30 END ATOM
M  V30 BEGIN BOND
M  V30 1 2 1 2
M  V30 2 2 1 3
M  V30 3 1 1 4
M  V30 4 1 1 5
M  V30 5 2 5 6
M  V30 6 1 5 7
M  V30 7 1 6 8
M  V30 8 1 6 9
M  V30 9 2 7 10
M  V30 10 2 9 11
M  V30 11 1 10 12
M  V30 12 1 10 11
M  V30 13 1 7 13
M  V30 14 1 8 14
M  V30 15 1 8 15
M  V30 16 1 9 16
M  V30 17 1 11 17
M  V30 18 1 12 18
M  V30 19 1 12 19
M  V30 20 1 12 20
M  V30 END BOND
M  V30 END CTAB
M  END
>  <Structure No>
1794

>  <LogS>
-1.494200991

>  <MMFF94 Energy>
62.944

$$$$
Compound 1795
Actelion Java MolfileCreator 2.0

  0  0  0  0  0  0              0 V3000
M  V30 BEGIN CTAB
M  V30 COUNTS 20 20 0 0 0
M  V30 BEGIN ATOM
M  V30 1 O 3.6521 0.0848 0.0 0
M  V30 2 C 2.7036 0.8645 -0.2802 0
M  V30 3 O 2.991 2.1795 -0.6272 0 CHG=-1
M  V30 4 C 1.2957 0.4142 -0.1763 0
M  V30 5 C 0.8953 -0.9208 -0.4288 0
M  V30 6 C 0.3411 1.3429 0.2671 0
M  V30 7 C 1.8065 -1.9295 -1.0183 0
M  V30 8 C -0.4374 -1.2931 -0.1897 0
M  V30 9 C -0.9909 0.9712 0.507 0
M  V30 10 O 1.6915 -3.1452 -0.7091 0
M  V30 11 O 2.7548 -1.5607 -1.9651 0 CHG=-1
M  V30 12 C -1.392 -0.3646 0.2535 0
M  V30 13 C -1.8969 1.9867 1.0936 0
M  V30 14 C -2.7994 -0.8166 0.3578 0
M  V30 15 O -2.7791 1.6576 1.93 0
M  V30 16 O -1.7375 3.3303 0.7744 0 CHG=-1
M  V30 17 O -3.7489 -0.0413 0.069 0
M  V30 18 O -3.085 -2.1295 0.7141 0 CHG=-1
M  V30 19 H 0.6542 2.3571 0.4885 0
M  V30 20 H -0.7498 -2.3074 -0.4113 0
M  V30 END ATOM
M  V30 BEGIN BOND
M  V30 1 2 1 2
M  V30 2 1 2 3
M  V30 3 1 2 4
M  V30 4 2 4 5
M  V30 5 1 4 6
M  V30 6 1 5 7
M  V30 7 1 5 8
M  V30 8 2 6 9
M  V30 9 2 7 10
M  V30 10 1 7 11
M  V30 11 2 8 12
M  V30 12 1 9 13
M  V30 13 1 12 14
M  V30 14 2 13 15
M  V30 15 1 13 16
M  V30 16 2 14 17
M  V30 17 1 14 18
M  V30 18 1 9 12
M  V30 19 1 6 19
M  V30 20 1 8 20
M  V30 END BOND
M  V30 END CTAB
M  END
>  <Structure No>
1795

>  <LogS>
-1.959467524

>  <MMFF94 Energy>
413.39

$$$$
Compound 1796
Actelion Java MolfileCreator 2.0

  0  0  0  0  0  0              0 V3000
M  V30 BEGIN CTAB
M  V30 COUNTS 12 12 0 0 0
M  V30 BEGIN ATOM
M  V30 1 O 2.5927 -0.3925 0.0784 0
M  V30 2 C 1.3465 -0.2189 0.0388 0
M  V30 3 N 0.4096 -1.2408 0.2812 0
M  V30 4 N 0.7411 1.0178 -0.2525 0
M  V30 5 C -0.9216 -0.6651 0.1467 0
M  V30 6 C -0.7023 0.8286 -0.2062 0
M  V30 7 H 0.6297 -2.234 0.5155 0
M  V30 8 H 1.2382 1.9114 -0.4638 0
M  V30 9 H -1.4734 -0.7665 1.1057 0
M  V30 10 H -1.4753 -1.1846 -0.6643 0
M  V30 11 H -1.1426 1.4866 0.5734 0
M  V30 12 H -1.1445 1.0687 -1.1968 0
M  V30 END ATOM
M  V30 BEGIN BOND
M  V30 1 2 1 2
M  V30 2 1 2 3
M  V30 3 1 2 4
M  V30 4 1 3 5
M  V30 5 1 4 6
M  V30 6 1 5 6
M  V30 7 1 3 7
M  V30 8 1 4 8
M  V30 9 1 5 9
M  V30 10 1 5 10
M  V30 11 1 6 11
M  V30 12 1 6 12
M  V30 END BOND
M  V30 END CTAB
M  END
>  <Structure No>
1796

>  <LogS>
0.840273374

>  <MMFF94 Energy>
-66.981

$$$$
Compound 1797
Actelion Java MolfileCreator 2.0

  0  0  0  0  0  0              0 V3000
M  V30 BEGIN CTAB
M  V30 COUNTS 15 12 0 0 0
M  V30 BEGIN ATOM
M  V30 1 S 0.0 -0.0794 0.0 0
M  V30 2 O -0.1433 -1.0695 -1.1204 0
M  V30 3 O -0.0701 -0.7992 1.3166 0
M  V30 4 O 1.4795 0.7045 -0.1313 0 CHG=-1
M  V30 5 O -1.241 1.0488 -0.0877 0 CHG=-1
M  V30 6 O 0.7694 -0.1328 0.4273 0
M  V30 7 N -0.3816 0.0176 -0.269 0
M  V30 8 O 0.8286 -0.4792 0.2756 0
M  V30 9 N -0.4779 -0.1155 0.3701 0
M  V30 10 H 1.4862 -0.0255 -0.2481 0
M  V30 11 H -0.9427 -0.85 -0.1145 0
M  V30 12 H -0.908 0.7981 0.1842 0
M  V30 13 H 1.1766 -0.0705 -0.5615 0
M  V30 14 H -0.9769 -0.4574 -0.4844 0
M  V30 15 H -0.5281 0.9302 0.3795 0
M  V30 END ATOM
M  V30 BEGIN BOND
M  V30 1 2 1 2
M  V30 2 2 1 3
M  V30 3 1 1 4
M  V30 4 1 1 5
M  V30 5 1 6 7
M  V30 6 1 8 9
M  V30 7 1 6 10
M  V30 8 1 7 11
M  V30 9 1 7 12
M  V30 10 1 8 13
M  V30 11 1 9 14
M  V30 12 1 9 15
M  V30 END BOND
M  V30 END CTAB
M  END
>  <Structure No>
1797

>  <LogS>
0.553426318

>  <MMFF94 Energy>
27.585

$$$$
Compound 1798
Actelion Java MolfileCreator 2.0

  0  0  0  0  0  0              0 V3000
M  V30 BEGIN CTAB
M  V30 COUNTS 58 57 0 0 0
M  V30 BEGIN ATOM
M  V30 1 O 6.8945 -0.3161 1.8191 0
M  V30 2 C 6.6165 -0.7421 0.667 0
M  V30 3 O 7.5959 -1.3816 -0.0826 0 CHG=-1
M  V30 4 C 5.2441 -0.5357 0.0897 0 CFG=1
M  V30 5 N 4.2336 -1.007 1.0409 0
M  V30 6 C 5.0041 0.949 -0.2472 0
M  V30 7 C 3.9619 -2.4025 1.2358 0
M  V30 8 C 5.8854 1.4305 -1.4063 0
M  V30 9 O 4.6774 -3.276 0.6737 0
M  V30 10 C 2.7908 -2.8348 2.069 0
M  V30 11 C 5.5893 2.8611 -1.7258 0
M  V30 12 C 1.5712 -3.1618 1.1975 0
M  V30 13 O 6.1592 3.7831 -1.0856 0
M  V30 14 O 4.6441 3.1773 -2.6929 0 CHG=-1
M  V30 15 C 1.0138 -1.9216 0.4813 0
M  V30 16 C -0.2577 -2.2692 -0.3056 0
M  V30 17 C -0.7342 -1.122 -1.215 0
M  V30 18 C -1.093 0.1855 -0.4854 0
M  V30 19 C -2.2455 0.0138 0.5177 0
M  V30 20 C -2.69 1.3437 1.1532 0
M  V30 21 C -3.3039 2.3702 0.1785 0
M  V30 22 C -4.4755 1.848 -0.6719 0
M  V30 23 C -5.6662 1.3771 0.1765 0
M  V30 24 C -6.8543 0.9928 -0.7114 0
M  V30 25 C -8.0315 0.5003 0.1249 0
M  V30 26 H 5.1475 -1.1241 -0.8501 0
M  V30 27 H 3.6577 -0.3103 1.5674 0
M  V30 28 H 5.1913 1.5755 0.6539 0
M  V30 29 H 3.9371 1.0797 -0.5358 0
M  V30 30 H 5.6943 0.8097 -2.3085 0
M  V30 31 H 6.9594 1.3325 -1.1395 0
M  V30 32 H 2.5305 -2.0448 2.8075 0
M  V30 33 H 3.0746 -3.7437 2.6448 0
M  V30 34 H 0.7805 -3.5881 1.8528 0
M  V30 35 H 1.8473 -3.9377 0.4499 0
M  V30 36 H 1.7779 -1.5221 -0.2201 0
M  V30 37 H 0.7813 -1.1425 1.2386 0
M  V30 38 H -1.0676 -2.5709 0.3922 0
M  V30 39 H -0.0485 -3.1461 -0.9571 0
M  V30 40 H 0.0612 -0.9028 -1.9606 0
M  V30 41 H -1.6237 -1.4698 -1.7845 0
M  V30 42 H -0.1997 0.5985 0.0287 0
M  V30 43 H -1.3887 0.9174 -1.265 0
M  V30 44 H -1.9048 -0.6432 1.3453 0
M  V30 45 H -3.1073 -0.4925 0.0354 0
M  V30 46 H -1.8133 1.8137 1.6489 0
M  V30 47 H -3.4234 1.1248 1.958 0
M  V30 48 H -3.6559 3.2434 0.7708 0
M  V30 49 H -2.514 2.7561 -0.5003 0
M  V30 50 H -4.1314 1.0299 -1.3388 0
M  V30 51 H -4.811 2.6794 -1.3292 0
M  V30 52 H -5.9724 2.1919 0.868 0
M  V30 53 H -5.3692 0.4926 0.7785 0
M  V30 54 H -6.5513 0.1873 -1.4143 0
M  V30 55 H -7.1802 1.8744 -1.305 0
M  V30 56 H -8.8767 0.2343 -0.5436 0
M  V30 57 H -8.3678 1.2959 0.8231 0
M  V30 58 H -7.7417 -0.4006 0.7072 0
M  V30 END ATOM
M  V30 BEGIN BOND
M  V30 1 2 1 2
M  V30 2 1 2 3
M  V30 3 1 2 4
M  V30 4 1 4 5
M  V30 5 1 4 6
M  V30 6 1 5 7
M  V30 7 1 6 8
M  V30 8 2 7 9
M  V30 9 1 7 10
M  V30 10 1 8 11
M  V30 11 1 10 12
M  V30 12 2 11 13
M  V30 13 1 11 14
M  V30 14 1 12 15
M  V30 15 1 15 16
M  V30 16 1 16 17
M  V30 17 1 17 18
M  V30 18 1 18 19
M  V30 19 1 19 20
M  V30 20 1 20 21
M  V30 21 1 21 22
M  V30 22 1 22 23
M  V30 23 1 23 24
M  V30 24 1 24 25
M  V30 25 1 4 26
M  V30 26 1 5 27
M  V30 27 1 6 28
M  V30 28 1 6 29
M  V30 29 1 8 30
M  V30 30 1 8 31
M  V30 31 1 10 32
M  V30 32 1 10 33
M  V30 33 1 12 34
M  V30 34 1 12 35
M  V30 35 1 15 36
M  V30 36 1 15 37
M  V30 37 1 16 38
M  V30 38 1 16 39
M  V30 39 1 17 40
M  V30 40 1 17 41
M  V30 41 1 18 42
M  V30 42 1 18 43
M  V30 43 1 19 44
M  V30 44 1 19 45
M  V30 45 1 20 46
M  V30 46 1 20 47
M  V30 47 1 21 48
M  V30 48 1 21 49
M  V30 49 1 22 50
M  V30 50 1 22 51
M  V30 51 1 23 52
M  V30 52 1 23 53
M  V30 53 1 24 54
M  V30 54 1 24 55
M  V30 55 1 25 56
M  V30 56 1 25 57
M  V30 57 1 25 58
M  V30 END BOND
M  V30 BEGIN COLLECTION
M  V30 MDLV30/STEABS ATOMS=(1 4)
M  V30 END COLLECTION
M  V30 END CTAB
M  END
>  <Structure No>
1798

>  <LogS>
-0.830822577

>  <MMFF94 Energy>
85.168

$$$$
Compound 1799
Actelion Java MolfileCreator 2.0

  0  0  0  0  0  0              0 V3000
M  V30 BEGIN CTAB
M  V30 COUNTS 29 28 0 0 0
M  V30 BEGIN ATOM
M  V30 1 O 0.3156 2.2904 1.8161 0
M  V30 2 C 1.0174 2.1726 0.7751 0
M  V30 3 O 0.8738 1.0638 -0.0656 0
M  V30 4 C 2.0564 3.1955 0.4662 0
M  V30 5 C -0.091 0.0321 0.1429 0
M  V30 6 C -1.4768 0.521 -0.2999 0
M  V30 7 C 0.3267 -1.2176 -0.6459 0
M  V30 8 O -2.4642 -0.4585 0.0088 0
M  V30 9 O 1.571 -1.7241 -0.1638 0
M  V30 10 C -3.8187 -0.283 -0.2866 0
M  V30 11 C 2.8183 -1.2508 -0.587 0
M  V30 12 O -4.2214 0.7608 -0.8684 0
M  V30 13 C -4.7894 -1.3643 0.0457 0
M  V30 14 O 2.9069 -0.374 -1.489 0
M  V30 15 C 4.0571 -1.7662 0.0618 0
M  V30 16 H 1.6965 4.2052 0.756 0
M  V30 17 H 2.2784 3.1925 -0.6213 0
M  V30 18 H 2.9842 2.9607 1.0278 0
M  V30 19 H -0.1246 -0.2353 1.2231 0
M  V30 20 H -1.7259 1.4649 0.2309 0
M  V30 21 H -1.4741 0.7225 -1.3937 0
M  V30 22 H 0.3892 -0.998 -1.7345 0
M  V30 23 H -0.4381 -2.0108 -0.5063 0
M  V30 24 H -4.961 -1.9953 -0.8507 0
M  V30 25 H -5.7538 -0.9231 0.3745 0
M  V30 26 H -4.3869 -1.9966 0.8646 0
M  V30 27 H 4.8555 -1.9034 -0.6973 0
M  V30 28 H 4.4007 -1.0418 0.8292 0
M  V30 29 H 3.8533 -2.7429 0.5487 0
M  V30 END ATOM
M  V30 BEGIN BOND
M  V30 1 2 1 2
M  V30 2 1 2 3
M  V30 3 1 2 4
M  V30 4 1 3 5
M  V30 5 1 5 6
M  V30 6 1 5 7
M  V30 7 1 6 8
M  V30 8 1 7 9
M  V30 9 1 8 10
M  V30 10 1 9 11
M  V30 11 2 10 12
M  V30 12 1 10 13
M  V30 13 2 11 14
M  V30 14 1 11 15
M  V30 15 1 4 16
M  V30 16 1 4 17
M  V30 17 1 4 18
M  V30 18 1 5 19
M  V30 19 1 6 20
M  V30 20 1 6 21
M  V30 21 1 7 22
M  V30 22 1 7 23
M  V30 23 1 13 24
M  V30 24 1 13 25
M  V30 25 1 13 26
M  V30 26 1 15 27
M  V30 27 1 15 28
M  V30 28 1 15 29
M  V30 END BOND
M  V30 END CTAB
M  END
>  <Structure No>
1799

>  <LogS>
-0.575436704

>  <MMFF94 Energy>
-13.964

$$$$
Compound 1800
Actelion Java MolfileCreator 2.0

  0  0  0  0  0  0              0 V3000
M  V30 BEGIN CTAB
M  V30 COUNTS 13 13 0 0 0
M  V30 BEGIN ATOM
M  V30 1 O -0.2342 0.7809 -1.2497 0
M  V30 2 C 0.0149 0.0435 -0.0776 0
M  V30 3 C -0.2055 1.5076 -0.0374 0
M  V30 4 C -1.1447 -0.878 0.2929 0
M  V30 5 C 1.4476 -0.4794 -0.0074 0
M  V30 6 H -1.2201 1.8654 0.2375 0
M  V30 7 H 0.6917 2.1594 0.0159 0
M  V30 8 H -1.0875 -1.1248 1.3734 0
M  V30 9 H -2.1274 -0.4021 0.0855 0
M  V30 10 H -1.0765 -1.817 -0.2951 0
M  V30 11 H 2.1726 0.259 -0.4122 0
M  V30 12 H 1.5315 -1.4158 -0.5978 0
M  V30 13 H 1.7091 -0.6955 1.0493 0
M  V30 END ATOM
M  V30 BEGIN BOND
M  V30 1 1 1 2
M  V30 2 1 1 3
M  V30 3 1 2 4
M  V30 4 1 2 5
M  V30 5 1 2 3
M  V30 6 1 3 6
M  V30 7 1 3 7
M  V30 8 1 4 8
M  V30 9 1 4 9
M  V30 10 1 4 10
M  V30 11 1 5 11
M  V30 12 1 5 12
M  V30 13 1 5 13
M  V30 END BOND
M  V30 END CTAB
M  END
>  <Structure No>
1800

>  <LogS>
-0.094549434

>  <MMFF94 Energy>
9.6892

$$$$
Compound 1801
Actelion Java MolfileCreator 2.0

  0  0  0  0  0  0              0 V3000
M  V30 BEGIN CTAB
M  V30 COUNTS 42 42 0 0 0
M  V30 BEGIN ATOM
M  V30 1 O -1.9705 -1.1819 -0.0787 0
M  V30 2 C -1.1927 -0.007 -0.2623 0 CFG=2
M  V30 3 C -3.2708 -1.0111 -0.6127 0 CFG=2
M  V30 4 O -0.0063 -0.1626 0.4975 0
M  V30 5 C -1.9425 1.2803 0.2142 0 CFG=1
M  V30 6 C -4.0991 -0.0677 0.2977 0 CFG=1
M  V30 7 C -3.9432 -2.3809 -0.7421 0
M  V30 8 C 1.0861 0.4748 -0.1337 0
M  V30 9 O -2.3508 2.0413 -0.8941 0
M  V30 10 C -3.1798 0.919 1.0583 0 CFG=1
M  V30 11 O -5.0188 0.6401 -0.4948 0
M  V30 12 O -3.2173 -3.18 -1.6344 0
M  V30 13 C 2.2863 0.4582 0.8151 0
M  V30 14 O -2.7713 0.3293 2.2677 0
M  V30 15 C 3.4769 1.284 0.2961 0
M  V30 16 C 4.0651 0.8076 -1.0472 0
M  V30 17 C 4.5419 -0.655 -1.0647 0
M  V30 18 C 5.6627 -0.9283 -0.0628 0
M  V30 19 H -0.9657 0.0711 -1.3559 0
M  V30 20 H -3.2139 -0.5821 -1.6428 0
M  V30 21 H -1.2707 1.9062 0.8484 0
M  V30 22 H -4.6579 -0.6718 1.0529 0
M  V30 23 H -3.9831 -2.8758 0.2545 0
M  V30 24 H -4.9816 -2.2497 -1.122 0
M  V30 25 H 0.8423 1.533 -0.3842 0
M  V30 26 H 1.3499 -0.0762 -1.063 0
M  V30 27 H -1.5366 2.4796 -1.2559 0
M  V30 28 H -3.7528 1.8492 1.286 0
M  V30 29 H -5.7203 0.9874 0.1162 0
M  V30 30 H -3.6955 -4.0485 -1.6773 0
M  V30 31 H 2.5962 -0.5889 1.0147 0
M  V30 32 H 1.9692 0.8923 1.7885 0
M  V30 33 H -2.4315 1.0612 2.8464 0
M  V30 34 H 4.2752 1.2842 1.0683 0
M  V30 35 H 3.1539 2.3416 0.1802 0
M  V30 36 H 3.312 0.9489 -1.8511 0
M  V30 37 H 4.9237 1.4654 -1.3049 0
M  V30 38 H 3.6935 -1.3461 -0.8781 0
M  V30 39 H 4.9246 -0.8808 -2.0834 0
M  V30 40 H 6.0567 -1.9542 -0.2206 0
M  V30 41 H 5.2827 -0.8613 0.9777 0
M  V30 42 H 6.4936 -0.2045 -0.2022 0
M  V30 END ATOM
M  V30 BEGIN BOND
M  V30 1 1 1 2
M  V30 2 1 1 3
M  V30 3 1 2 4
M  V30 4 1 2 5
M  V30 5 1 3 6
M  V30 6 1 3 7
M  V30 7 1 4 8
M  V30 8 1 5 9
M  V30 9 1 5 10
M  V30 10 1 6 11
M  V30 11 1 7 12
M  V30 12 1 8 13
M  V30 13 1 10 14
M  V30 14 1 13 15
M  V30 15 1 15 16
M  V30 16 1 16 17
M  V30 17 1 17 18
M  V30 18 1 6 10
M  V30 19 1 2 19
M  V30 20 1 3 20
M  V30 21 1 5 21
M  V30 22 1 6 22
M  V30 23 1 7 23
M  V30 24 1 7 24
M  V30 25 1 8 25
M  V30 26 1 8 26
M  V30 27 1 9 27
M  V30 28 1 10 28
M  V30 29 1 11 29
M  V30 30 1 12 30
M  V30 31 1 13 31
M  V30 32 1 13 32
M  V30 33 1 14 33
M  V30 34 1 15 34
M  V30 35 1 15 35
M  V30 36 1 16 36
M  V30 37 1 16 37
M  V30 38 1 17 38
M  V30 39 1 17 39
M  V30 40 1 18 40
M  V30 41 1 18 41
M  V30 42 1 18 42
M  V30 END BOND
M  V30 BEGIN COLLECTION
M  V30 MDLV30/STEABS ATOMS=(5 2 3 5 6 10)
M  V30 END COLLECTION
M  V30 END CTAB
M  END
>  <Structure No>
1801

>  <LogS>
-0.658698746

>  <MMFF94 Energy>
97.685

$$$$
Compound 1802
Actelion Java MolfileCreator 2.0

  0  0  0  0  0  0              0 V3000
M  V30 BEGIN CTAB
M  V30 COUNTS 18 17 0 0 0
M  V30 BEGIN ATOM
M  V30 1 O 0.1649 -2.2286 -1.8982 0
M  V30 2 C 0.0607 -0.9974 -1.6509 0
M  V30 3 O 0.3492 -0.0821 -2.6579 0 CHG=-1
M  V30 4 C -0.2981 -0.5246 -0.2528 0
M  V30 5 O -1.2196 -1.431 0.3139 0
M  V30 6 C -0.9988 0.858 -0.337 0
M  V30 7 C 0.9845 -0.4675 0.629 0
M  V30 8 C -1.5002 1.3362 0.9948 0
M  V30 9 C 2.0163 0.5045 0.1318 0
M  V30 10 O -0.8261 2.158 1.6699 0
M  V30 11 O -2.7014 0.8549 1.5002 0 CHG=-1
M  V30 12 O 2.8353 0.1592 -0.76 0
M  V30 13 O 2.062 1.7956 0.6424 0 CHG=-1
M  V30 14 H -0.758 -2.2961 0.4729 0
M  V30 15 H -0.3168 1.6232 -0.7675 0
M  V30 16 H -1.8716 0.7845 -1.0227 0
M  V30 17 H 1.4501 -1.4768 0.6761 0
M  V30 18 H 0.7121 -0.2003 1.6726 0
M  V30 END ATOM
M  V30 BEGIN BOND
M  V30 1 2 1 2
M  V30 2 1 2 3
M  V30 3 1 2 4
M  V30 4 1 4 5
M  V30 5 1 4 6
M  V30 6 1 4 7
M  V30 7 1 6 8
M  V30 8 1 7 9
M  V30 9 2 8 10
M  V30 10 1 8 11
M  V30 11 2 9 12
M  V30 12 1 9 13
M  V30 13 1 5 14
M  V30 14 1 6 15
M  V30 15 1 6 16
M  V30 16 1 7 17
M  V30 17 1 7 18
M  V30 END BOND
M  V30 END CTAB
M  END
>  <Structure No>
1802

>  <LogS>
0.476843124

>  <MMFF94 Energy>
239.94

$$$$
Compound 1803
Actelion Java MolfileCreator 2.0

  0  0  0  0  0  0              0 V3000
M  V30 BEGIN CTAB
M  V30 COUNTS 10 10 0 0 0
M  V30 BEGIN ATOM
M  V30 1 N -0.1542 1.4666 -0.3086 0
M  V30 2 N -1.4695 1.3206 -0.2363 0
M  V30 3 C 0.3723 0.2512 -0.0779 0
M  V30 4 C -1.7117 0.0224 0.0358 0
M  V30 5 N -0.5701 -0.6787 0.1419 0
M  V30 6 N 1.7722 -0.0166 -0.0684 0
M  V30 7 H -2.7006 -0.4002 0.1539 0
M  V30 8 H -0.4494 -1.6955 0.3452 0
M  V30 9 H 2.1231 -0.9821 0.1169 0
M  V30 10 H 2.4562 0.7514 -0.2469 0
M  V30 END ATOM
M  V30 BEGIN BOND
M  V30 1 1 1 2
M  V30 2 2 1 3
M  V30 3 2 2 4
M  V30 4 1 3 5
M  V30 5 1 3 6
M  V30 6 1 4 5
M  V30 7 1 4 7
M  V30 8 1 5 8
M  V30 9 1 6 9
M  V30 10 1 6 10
M  V30 END BOND
M  V30 END CTAB
M  END
>  <Structure No>
1803

>  <LogS>
0.832692995

>  <MMFF94 Energy>
-29.749

$$$$
Compound 1804
Actelion Java MolfileCreator 2.0

  0  0  0  0  0  0              0 V3000
M  V30 BEGIN CTAB
M  V30 COUNTS 33 33 0 0 0
M  V30 BEGIN ATOM
M  V30 1 O 1.2598 -2.2843 -0.3935 0
M  V30 2 C 0.704 -1.1763 -0.1442 0
M  V30 3 N -0.4815 -1.1497 0.5385 0
M  V30 4 N 1.2905 -0.013 -0.5626 0
M  V30 5 C -1.0874 0.0511 0.7889 0
M  V30 6 C -1.1329 -2.4111 0.9487 0
M  V30 7 C 0.6985 1.1845 -0.2657 0
M  V30 8 C 2.5801 -0.047 -1.2836 0
M  V30 9 O -2.2117 0.0783 1.367 0
M  V30 10 N -0.4869 1.2227 0.4164 0
M  V30 11 C -2.0573 -2.9192 -0.1596 0
M  V30 12 O 1.2491 2.2635 -0.6276 0
M  V30 13 C 3.7443 0.0064 -0.2967 0
M  V30 14 C -1.1436 2.5169 0.6947 0
M  V30 15 O -2.6518 -4.1302 0.2199 0
M  V30 16 O 4.9553 -0.0267 -0.9984 0
M  V30 17 C -2.0606 2.9105 -0.4653 0
M  V30 18 O -2.706 4.1226 -0.1854 0
M  V30 19 H -0.3748 -3.1893 1.1865 0
M  V30 20 H -1.7161 -2.2672 1.8849 0
M  V30 21 H 2.6616 -0.9656 -1.9055 0
M  V30 22 H 2.6575 0.803 -1.9967 0
M  V30 23 H -2.8385 -2.1589 -0.3886 0
M  V30 24 H -1.465 -3.0904 -1.0833 0
M  V30 25 H 3.6861 -0.8653 0.3924 0
M  V30 26 H 3.6819 0.9444 0.2992 0
M  V30 27 H -1.7352 2.4666 1.6353 0
M  V30 28 H -0.3874 3.3153 0.8607 0
M  V30 29 H -3.3713 -3.9031 0.8656 0
M  V30 30 H 5.6715 0.0102 -0.3124 0
M  V30 31 H -1.4746 2.9922 -1.4088 0
M  V30 32 H -2.8318 2.1241 -0.6081 0
M  V30 33 H -2.0356 4.8408 -0.3283 0
M  V30 END ATOM
M  V30 BEGIN BOND
M  V30 1 2 1 2
M  V30 2 1 2 3
M  V30 3 1 2 4
M  V30 4 1 3 5
M  V30 5 1 3 6
M  V30 6 1 4 7
M  V30 7 1 4 8
M  V30 8 2 5 9
M  V30 9 1 5 10
M  V30 10 1 6 11
M  V30 11 2 7 12
M  V30 12 1 8 13
M  V30 13 1 10 14
M  V30 14 1 11 15
M  V30 15 1 13 16
M  V30 16 1 14 17
M  V30 17 1 17 18
M  V30 18 1 7 10
M  V30 19 1 6 19
M  V30 20 1 6 20
M  V30 21 1 8 21
M  V30 22 1 8 22
M  V30 23 1 11 23
M  V30 24 1 11 24
M  V30 25 1 13 25
M  V30 26 1 13 26
M  V30 27 1 14 27
M  V30 28 1 14 28
M  V30 29 1 15 29
M  V30 30 1 16 30
M  V30 31 1 17 31
M  V30 32 1 17 32
M  V30 33 1 18 33
M  V30 END BOND
M  V30 END CTAB
M  END
>  <Structure No>
1804

>  <LogS>
0.340366328

>  <MMFF94 Energy>
-172.69

$$$$
Compound 1805
Actelion Java MolfileCreator 2.0

  0  0  0  0  0  0              0 V3000
M  V30 BEGIN CTAB
M  V30 COUNTS 18 17 0 0 0
M  V30 BEGIN ATOM
M  V30 1 O -0.7423 2.724 -0.1649 0
M  V30 2 C -0.0082 1.9328 -0.8156 0
M  V30 3 O 0.7596 2.4287 -1.8631 0 CHG=-1
M  V30 4 C 0.0926 0.4732 -0.4172 0
M  V30 5 O 0.7196 -0.2444 -1.4565 0
M  V30 6 C -1.341 -0.0815 -0.1592 0
M  V30 7 C 0.9803 0.4034 0.8535 0
M  V30 8 C -1.3965 -1.5739 -0.0034 0
M  V30 9 C 1.3487 -0.9919 1.2655 0
M  V30 10 O -1.7123 -2.0834 1.1037 0
M  V30 11 O -1.1264 -2.4018 -1.0857 0 CHG=-1
M  V30 12 O 2.1103 -1.6889 0.5445 0
M  V30 13 O 0.8707 -1.5127 2.4613 0 CHG=-1
M  V30 14 H 0.1404 -0.1844 -2.2619 0
M  V30 15 H -1.9998 0.1862 -1.0143 0
M  V30 16 H -1.776 0.3996 0.7449 0
M  V30 17 H 0.4654 0.9073 1.7012 0
M  V30 18 H 1.9277 0.9587 0.6743 0
M  V30 END ATOM
M  V30 BEGIN BOND
M  V30 1 2 1 2
M  V30 2 1 2 3
M  V30 3 1 2 4
M  V30 4 1 4 5
M  V30 5 1 4 6
M  V30 6 1 4 7
M  V30 7 1 6 8
M  V30 8 1 7 9
M  V30 9 2 8 10
M  V30 10 1 8 11
M  V30 11 2 9 12
M  V30 12 1 9 13
M  V30 13 1 5 14
M  V30 14 1 6 15
M  V30 15 1 6 16
M  V30 16 1 7 17
M  V30 17 1 7 18
M  V30 END BOND
M  V30 END CTAB
M  END
>  <Structure No>
1805

>  <LogS>
0.425248046

>  <MMFF94 Energy>
236.56

$$$$
Compound 1806
Actelion Java MolfileCreator 2.0

  0  0  0  0  0  0              0 V3000
M  V30 BEGIN CTAB
M  V30 COUNTS 112 117 0 0 0
M  V30 BEGIN ATOM
M  V30 1 S 2.037 4.8941 1.9555 0
M  V30 2 O 1.3179 5.0261 3.2691 0
M  V30 3 O 1.0637 5.0814 0.8268 0
M  V30 4 O 3.2159 6.0906 1.8566 0 CHG=-1
M  V30 5 C 2.7794 3.2904 1.8413 0
M  V30 6 C 1.9968 2.1237 1.7006 0
M  V30 7 C 4.1784 3.1842 1.8653 0
M  V30 8 C 2.632 0.8742 1.5947 0
M  V30 9 C 0.5219 2.1962 1.7098 0
M  V30 10 C 4.8131 1.9419 1.7428 0
M  V30 11 C 4.0245 0.7823 1.6359 0
M  V30 12 C -0.2114 1.6723 0.7208 0
M  V30 13 N 6.2519 1.8912 1.813 0
M  V30 14 C -1.6951 1.8104 0.6232 0
M  V30 15 C 7.095 1.0152 1.0446 0
M  V30 16 C -2.4611 0.931 -0.1911 0
M  V30 17 C -2.3585 2.8751 1.2704 0
M  V30 18 N 8.4315 1.2544 1.0026 0
M  V30 19 N 6.5794 -0.0194 0.3305 0
M  V30 20 S -1.7126 -0.4047 -1.0854 0
M  V30 21 C -3.848 1.1257 -0.3183 0
M  V30 22 C -3.739 3.0336 1.1586 0
M  V30 23 C 9.254 0.4692 0.2623 0
M  V30 24 C 7.3944 -0.8277 -0.3972 0
M  V30 25 O -0.8673 0.1468 -2.1974 0
M  V30 26 O -2.7696 -1.3016 -1.6682 0
M  V30 27 O -0.7619 -1.3179 -0.0435 0 CHG=-1
M  V30 28 C -4.5012 2.1534 0.3864 0
M  V30 29 N 8.7278 -0.5759 -0.4281 0
M  V30 30 N 10.6627 0.7718 0.1647 0
M  V30 31 N 6.8411 -1.9573 -1.0904 0
M  V30 32 N -5.9206 2.3857 0.271 0
M  V30 33 C 11.4366 0.278 -0.9841 0
M  V30 34 C 11.343 1.4924 1.2508 0
M  V30 35 C 7.6243 -2.9169 -1.8277 0
M  V30 36 C -6.9276 1.382 0.0578 0
M  V30 37 C 11.0997 1.0779 -2.2387 0
M  V30 38 C 11.8019 0.5191 2.3473 0
M  V30 39 C 7.2705 -4.2763 -1.7806 0
M  V30 40 C 8.7099 -2.5216 -2.6397 0
M  V30 41 N -8.2314 1.7545 -0.0287 0
M  V30 42 N -6.6031 0.0664 -0.0286 0
M  V30 43 O 11.4545 2.4225 -2.0596 0
M  V30 44 C 13.0136 -0.2531 1.9166 0
M  V30 45 C 8.0063 -5.2267 -2.4899 0
M  V30 46 C 9.4485 -3.477 -3.3438 0
M  V30 47 C -9.206 0.8279 -0.2271 0
M  V30 48 C -7.5654 -0.8704 -0.2268 0
M  V30 49 O 14.1438 0.3058 1.921 0
M  V30 50 N 12.8927 -1.6006 1.463 0
M  V30 51 C 9.1009 -4.8295 -3.2637 0
M  V30 52 N -8.8634 -0.4838 -0.3359 0
M  V30 53 N -10.5906 1.2324 -0.3159 0
M  V30 54 N -7.1935 -2.2471 -0.3752 0
M  V30 55 C -11.0045 2.5805 0.1 0
M  V30 56 C -11.6109 0.2693 -0.7491 0
M  V30 57 C -8.1308 -3.3341 -0.3342 0
M  V30 58 C -10.7675 3.5977 -1.0192 0
M  V30 59 C -12.0571 -0.6078 0.4281 0
M  V30 60 C -7.9834 -4.4072 -1.2254 0
M  V30 61 C -9.1652 -3.3651 0.6205 0
M  V30 62 O -11.536 3.2727 -2.1468 0
M  V30 63 C -12.9932 -1.6822 -0.0313 0
M  V30 64 C -8.8852 -5.4785 -1.1892 0
M  V30 65 C -10.0506 -4.4473 0.6646 0
M  V30 66 O -14.215 -1.6214 0.2809 0
M  V30 67 N -12.513 -2.7639 -0.8284 0
M  V30 68 C -9.9217 -5.4947 -0.2515 0
M  V30 69 H 4.7817 4.0768 1.966 0
M  V30 70 H 2.0439 -0.0333 1.5111 0
M  V30 71 H 0.0591 2.729 2.5236 0
M  V30 72 H 4.4801 -0.1951 1.6269 0
M  V30 73 H 0.3129 1.1563 -0.0708 0
M  V30 74 H 6.7336 2.6778 2.3117 0
M  V30 75 H -1.8134 3.6173 1.8385 0
M  V30 76 H -4.4119 0.4926 -0.993 0
M  V30 77 H -4.2142 3.8648 1.6701 0
M  V30 78 H 5.8395 -2.1839 -0.903 0
M  V30 79 H -6.2669 3.3524 0.4653 0
M  V30 80 H 12.5241 0.3552 -0.7921 0
M  V30 81 H 11.2156 -0.7994 -1.156 0
M  V30 82 H 12.2096 2.0645 0.8497 0
M  V30 83 H 10.6614 2.2543 1.6964 0
M  V30 84 H 10.0142 1.0015 -2.4623 0
M  V30 85 H 11.6668 0.6492 -3.0955 0
M  V30 86 H 12.0541 1.1062 3.2589 0
M  V30 87 H 10.9727 -0.1739 2.6124 0
M  V30 88 H 6.4204 -4.5926 -1.1879 0
M  V30 89 H 8.9712 -1.4785 -2.7535 0
M  V30 90 H 11.3121 2.8714 -2.935 0
M  V30 91 H 7.7228 -6.2703 -2.4415 0
M  V30 92 H 10.2837 -3.1716 -3.9592 0
M  V30 93 H 11.9708 -2.0951 1.4737 0
M  V30 94 H 13.7319 -2.1076 1.0957 0
M  V30 95 H 9.6681 -5.5673 -3.812 0
M  V30 96 H -6.1977 -2.463 -0.6043 0
M  V30 97 H -12.0822 2.59 0.3789 0
M  V30 98 H -10.439 2.8847 1.0095 0
M  V30 99 H -11.2034 -0.3554 -1.5774 0
M  V30 100 H -12.4965 0.808 -1.1575 0
M  V30 101 H -9.6953 3.6025 -1.3036 0
M  V30 102 H -11.0165 4.6218 -0.6514 0
M  V30 103 H -12.5565 0.0319 1.1908 0
M  V30 104 H -11.1768 -1.0763 0.919 0
M  V30 105 H -7.1724 -4.4107 -1.9481 0
M  V30 106 H -9.2688 -2.567 1.3476 0
M  V30 107 H -12.4464 3.6236 -1.9753 0
M  V30 108 H -8.7808 -6.2934 -1.8917 0
M  V30 109 H -10.8424 -4.465 1.3985 0
M  V30 110 H -11.5292 -2.7742 -1.1746 0
M  V30 111 H -13.1484 -3.5502 -1.0914 0
M  V30 112 H -10.6159 -6.3261 -0.2247 0
M  V30 END ATOM
M  V30 BEGIN BOND
M  V30 1 2 1 2
M  V30 2 2 1 3
M  V30 3 1 1 4
M  V30 4 1 1 5
M  V30 5 2 5 6
M  V30 6 1 5 7
M  V30 7 1 6 8
M  V30 8 1 6 9
M  V30 9 2 7 10
M  V30 10 2 8 11
M  V30 11 2 9 12
M  V30 12 1 10 13
M  V30 13 1 12 14
M  V30 14 1 13 15
M  V30 15 2 14 16
M  V30 16 1 14 17
M  V30 17 2 15 18
M  V30 18 1 15 19
M  V30 19 1 16 20
M  V30 20 1 16 21
M  V30 21 2 17 22
M  V30 22 1 18 23
M  V30 23 2 19 24
M  V30 24 2 20 25
M  V30 25 2 20 26
M  V30 26 1 20 27
M  V30 27 2 21 28
M  V30 28 2 23 29
M  V30 29 1 23 30
M  V30 30 1 24 31
M  V30 31 1 28 32
M  V30 32 1 30 33
M  V30 33 1 30 34
M  V30 34 1 31 35
M  V30 35 1 32 36
M  V30 36 1 33 37
M  V30 37 1 34 38
M  V30 38 2 35 39
M  V30 39 1 35 40
M  V30 40 2 36 41
M  V30 41 1 36 42
M  V30 42 1 37 43
M  V30 43 1 38 44
M  V30 44 1 39 45
M  V30 45 2 40 46
M  V30 46 1 41 47
M  V30 47 2 42 48
M  V30 48 2 44 49
M  V30 49 1 44 50
M  V30 50 2 45 51
M  V30 51 2 47 52
M  V30 52 1 47 53
M  V30 53 1 48 54
M  V30 54 1 53 55
M  V30 55 1 53 56
M  V30 56 1 54 57
M  V30 57 1 55 58
M  V30 58 1 56 59
M  V30 59 2 57 60
M  V30 60 1 57 61
M  V30 61 1 58 62
M  V30 62 1 59 63
M  V30 63 1 60 64
M  V30 64 2 61 65
M  V30 65 2 63 66
M  V30 66 1 63 67
M  V30 67 2 64 68
M  V30 68 1 10 11
M  V30 69 1 22 28
M  V30 70 1 24 29
M  V30 71 1 46 51
M  V30 72 1 48 52
M  V30 73 1 65 68
M  V30 74 1 7 69
M  V30 75 1 8 70
M  V30 76 1 9 71
M  V30 77 1 11 72
M  V30 78 1 12 73
M  V30 79 1 13 74
M  V30 80 1 17 75
M  V30 81 1 21 76
M  V30 82 1 22 77
M  V30 83 1 31 78
M  V30 84 1 32 79
M  V30 85 1 33 80
M  V30 86 1 33 81
M  V30 87 1 34 82
M  V30 88 1 34 83
M  V30 89 1 37 84
M  V30 90 1 37 85
M  V30 91 1 38 86
M  V30 92 1 38 87
M  V30 93 1 39 88
M  V30 94 1 40 89
M  V30 95 1 43 90
M  V30 96 1 45 91
M  V30 97 1 46 92
M  V30 98 1 50 93
M  V30 99 1 50 94
M  V30 100 1 51 95
M  V30 101 1 54 96
M  V30 102 1 55 97
M  V30 103 1 55 98
M  V30 104 1 56 99
M  V30 105 1 56 100
M  V30 106 1 58 101
M  V30 107 1 58 102
M  V30 108 1 59 103
M  V30 109 1 59 104
M  V30 110 1 60 105
M  V30 111 1 61 106
M  V30 112 1 62 107
M  V30 113 1 64 108
M  V30 114 1 65 109
M  V30 115 1 67 110
M  V30 116 1 67 111
M  V30 117 1 68 112
M  V30 END BOND
M  V30 END CTAB
M  END
>  <Structure No>
1806

>  <LogS>
-1.247560996

>  <MMFF94 Energy>
-347.21

$$$$
Compound 1807
Actelion Java MolfileCreator 2.0

  0  0  0  0  0  0              0 V3000
M  V30 BEGIN CTAB
M  V30 COUNTS 20 20 0 0 0
M  V30 BEGIN ATOM
M  V30 1 O -0.5536 1.5824 -0.7909 0
M  V30 2 C -1.4556 0.6254 -0.2515 0 CFG=2
M  V30 3 C 0.8284 1.314 -0.567 0
M  V30 4 O -1.7028 0.9252 1.0989 0
M  V30 5 C -0.9767 -0.8397 -0.416 0 CFG=1
M  V30 6 C 1.1422 0.2654 0.5182 0 CFG=1
M  V30 7 O -1.0245 -1.2216 -1.7695 0
M  V30 8 C 0.4431 -1.0628 0.1747 0 CFG=1
M  V30 9 O 2.5281 0.0538 0.5955 0
M  V30 10 O 0.3953 -1.8968 1.3064 0
M  V30 11 H -2.4113 0.731 -0.8149 0
M  V30 12 H 1.3195 2.2692 -0.2847 0
M  V30 13 H 1.2852 0.9931 -1.5279 0
M  V30 14 H -2.5315 0.4426 1.3561 0
M  V30 15 H -1.7 -1.4932 0.1198 0
M  V30 16 H 0.7736 0.6434 1.5002 0
M  V30 17 H -0.4078 -0.631 -2.2748 0
M  V30 18 H 1.0615 -1.5871 -0.5879 0
M  V30 19 H 2.9151 0.8468 1.051 0
M  V30 20 H -0.1787 -1.4518 1.984 0
M  V30 END ATOM
M  V30 BEGIN BOND
M  V30 1 1 1 2
M  V30 2 1 1 3
M  V30 3 1 2 4
M  V30 4 1 2 5
M  V30 5 1 3 6
M  V30 6 1 5 7
M  V30 7 1 5 8
M  V30 8 1 6 9
M  V30 9 1 8 10
M  V30 10 1 6 8
M  V30 11 1 2 11
M  V30 12 1 3 12
M  V30 13 1 3 13
M  V30 14 1 4 14
M  V30 15 1 5 15
M  V30 16 1 6 16
M  V30 17 1 7 17
M  V30 18 1 8 18
M  V30 19 1 9 19
M  V30 20 1 10 20
M  V30 END BOND
M  V30 BEGIN COLLECTION
M  V30 MDLV30/STEABS ATOMS=(4 2 5 6 8)
M  V30 END COLLECTION
M  V30 END CTAB
M  END
>  <Structure No>
1807

>  <LogS>
0.577880851

>  <MMFF94 Energy>
69.517

$$$$
Compound 1808
Actelion Java MolfileCreator 2.0

  0  0  0  0  0  0              0 V3000
M  V30 BEGIN CTAB
M  V30 COUNTS 33 32 0 0 0
M  V30 BEGIN ATOM
M  V30 1 O 0.4673 -2.1825 -0.3115 0
M  V30 2 C 0.2347 -0.9498 -0.4472 0
M  V30 3 N 1.1901 0.0126 0.0195 0
M  V30 4 C -1.065 -0.4885 -1.0762 0 CFG=1
M  V30 5 C 2.4214 -0.4017 0.6933 0
M  V30 6 O -1.3879 -1.2811 -2.1955 0
M  V30 7 C -2.2585 -0.3892 -0.0596 0
M  V30 8 C 3.293 0.8039 1.0736 0
M  V30 9 C -1.9322 0.6225 1.0752 0
M  V30 10 C -3.5248 0.0882 -0.8068 0
M  V30 11 C -2.572 -1.7566 0.5935 0
M  V30 12 C 3.9111 1.4971 -0.1479 0
M  V30 13 O -1.6096 1.89 0.5629 0
M  V30 14 O 4.7751 0.6302 -0.8325 0
M  V30 15 H 0.9781 1.029 -0.1005 0
M  V30 16 H -0.8828 0.5319 -1.4774 0
M  V30 17 H 2.9939 -1.0926 0.0374 0
M  V30 18 H 2.1539 -0.9523 1.621 0
M  V30 19 H -1.4618 -2.2253 -1.9031 0
M  V30 20 H 4.1103 0.4601 1.7441 0
M  V30 21 H 2.6819 1.5375 1.6433 0
M  V30 22 H -1.0674 0.2592 1.67 0
M  V30 23 H -2.7875 0.6983 1.7879 0
M  V30 24 H -3.8493 -0.6646 -1.5571 0
M  V30 25 H -4.3656 0.2468 -0.0971 0
M  V30 26 H -3.3346 1.0431 -1.3417 0
M  V30 27 H -1.6987 -2.1404 1.1609 0
M  V30 28 H -2.8668 -2.5129 -0.1627 0
M  V30 29 H -3.4175 -1.6593 1.3087 0
M  V30 30 H 3.1137 1.8322 -0.8433 0
M  V30 31 H 4.4644 2.4054 0.1824 0
M  V30 32 H -2.4559 2.4056 0.5085 0
M  V30 33 H 5.6015 0.5628 -0.2864 0
M  V30 END ATOM
M  V30 BEGIN BOND
M  V30 1 2 1 2
M  V30 2 1 2 3
M  V30 3 1 2 4
M  V30 4 1 3 5
M  V30 5 1 4 6
M  V30 6 1 4 7
M  V30 7 1 5 8
M  V30 8 1 7 9
M  V30 9 1 7 10
M  V30 10 1 7 11
M  V30 11 1 8 12
M  V30 12 1 9 13
M  V30 13 1 12 14
M  V30 14 1 3 15
M  V30 15 1 4 16
M  V30 16 1 5 17
M  V30 17 1 5 18
M  V30 18 1 6 19
M  V30 19 1 8 20
M  V30 20 1 8 21
M  V30 21 1 9 22
M  V30 22 1 9 23
M  V30 23 1 10 24
M  V30 24 1 10 25
M  V30 25 1 10 26
M  V30 26 1 11 27
M  V30 27 1 11 28
M  V30 28 1 11 29
M  V30 29 1 12 30
M  V30 30 1 12 31
M  V30 31 1 13 32
M  V30 32 1 14 33
M  V30 END BOND
M  V30 BEGIN COLLECTION
M  V30 MDLV30/STEABS ATOMS=(1 4)
M  V30 END COLLECTION
M  V30 END CTAB
M  END
>  <Structure No>
1808

>  <LogS>
0.437676454

>  <MMFF94 Energy>
16.031

$$$$
Compound 1809
Actelion Java MolfileCreator 2.0

  0  0  0  0  0  0              0 V3000
M  V30 BEGIN CTAB
M  V30 COUNTS 14 13 0 0 0
M  V30 BEGIN ATOM
M  V30 1 O 2.4363 0.974 -0.2434 0
M  V30 2 C 1.486 0.5973 0.492 0
M  V30 3 O 1.2444 1.257 1.6913 0 CHG=-1
M  V30 4 C 0.5873 -0.5243 0.0465 0 CFG=1
M  V30 5 O 0.0847 -1.2172 1.1607 0
M  V30 6 C -0.5764 0.0043 -0.8182 0 CFG=1
M  V30 7 O -1.3415 -1.0694 -1.3016 0
M  V30 8 C -1.4703 0.9336 -0.0453 0
M  V30 9 O -2.3198 0.4764 0.7647 0
M  V30 10 O -1.3371 2.3085 -0.1945 0 CHG=-1
M  V30 11 H 1.1871 -1.2249 -0.5807 0
M  V30 12 H 0.8355 -1.7539 1.5278 0
M  V30 13 H -0.1564 0.5715 -1.6824 0
M  V30 14 H -0.8157 -1.4935 -2.0293 0
M  V30 END ATOM
M  V30 BEGIN BOND
M  V30 1 2 1 2
M  V30 2 1 2 3
M  V30 3 1 2 4
M  V30 4 1 4 5
M  V30 5 1 4 6
M  V30 6 1 6 7
M  V30 7 1 6 8
M  V30 8 2 8 9
M  V30 9 1 8 10
M  V30 10 1 4 11
M  V30 11 1 5 12
M  V30 12 1 6 13
M  V30 13 1 7 14
M  V30 END BOND
M  V30 BEGIN COLLECTION
M  V30 MDLV30/STEABS ATOMS=(2 4 6)
M  V30 END COLLECTION
M  V30 END CTAB
M  END
>  <Structure No>
1809

>  <LogS>
0.571847844

>  <MMFF94 Energy>
179

$$$$
Compound 1810
Actelion Java MolfileCreator 2.0

  0  0  0  0  0  0              0 V3000
M  V30 BEGIN CTAB
M  V30 COUNTS 14 13 0 0 0
M  V30 BEGIN ATOM
M  V30 1 O 2.4363 -0.0811 0.8116 0
M  V30 2 C 1.8154 0.3927 -0.1767 0
M  V30 3 O 2.3937 1.4103 -0.9249 0 CHG=-1
M  V30 4 C 0.4491 -0.1235 -0.5384 0 CFG=1
M  V30 5 O 0.5055 -1.5085 -0.7789 0
M  V30 6 C -0.5928 0.2175 0.5521 0 CFG=1
M  V30 7 O -0.7052 1.6105 0.7001 0
M  V30 8 C -1.9372 -0.3375 0.1832 0
M  V30 9 O -2.6202 0.1998 -0.7287 0
M  V30 10 O -2.4196 -1.4725 0.8227 0 CHG=-1
M  V30 11 H 0.1366 0.3694 -1.4852 0
M  V30 12 H 0.7144 -1.9578 0.082 0
M  V30 13 H -0.2848 -0.2436 1.5207 0
M  V30 14 H 0.012 1.8964 1.3241 0
M  V30 END ATOM
M  V30 BEGIN BOND
M  V30 1 2 1 2
M  V30 2 1 2 3
M  V30 3 1 2 4
M  V30 4 1 4 5
M  V30 5 1 4 6
M  V30 6 1 6 7
M  V30 7 1 6 8
M  V30 8 2 8 9
M  V30 9 1 8 10
M  V30 10 1 4 11
M  V30 11 1 5 12
M  V30 12 1 6 13
M  V30 13 1 7 14
M  V30 END BOND
M  V30 BEGIN COLLECTION
M  V30 MDLV30/STEABS ATOMS=(2 4 6)
M  V30 END COLLECTION
M  V30 END CTAB
M  END
>  <Structure No>
1810

>  <LogS>
0.473623794

>  <MMFF94 Energy>
173.67

$$$$
Compound 1811
Actelion Java MolfileCreator 2.0

  0  0  0  0  0  0              0 V3000
M  V30 BEGIN CTAB
M  V30 COUNTS 25 24 0 0 0
M  V30 BEGIN ATOM
M  V30 1 O -1.183 -0.4731 -1.8145 0
M  V30 2 C -1.1367 -0.3725 -0.5576 0
M  V30 3 O -1.8586 -1.2561 0.2518 0
M  V30 4 C -0.3156 0.7203 0.0721 0 CFG=1
M  V30 5 C -2.6497 -2.3108 -0.281 0
M  V30 6 C -1.2348 1.7603 0.6736 0
M  V30 7 C 0.6415 0.1642 1.1431 0
M  V30 8 O -1.975 1.4561 1.5981 0
M  V30 9 C -1.2622 3.1698 0.1588 0
M  V30 10 C 1.6587 -0.7578 0.5426 0
M  V30 11 O 1.4899 -2.0061 0.6082 0
M  V30 12 O 2.7664 -0.2212 -0.1194 0
M  V30 13 C 3.7549 -1.0342 -0.7397 0
M  V30 14 H 0.3039 1.1961 -0.7208 0
M  V30 15 H -3.1201 -2.8707 0.553 0
M  V30 16 H -2.0112 -3.0058 -0.8664 0
M  V30 17 H -3.4483 -1.8956 -0.9317 0
M  V30 18 H 0.0729 -0.369 1.9372 0
M  V30 19 H 1.1807 1.0071 1.6283 0
M  V30 20 H -0.9884 3.8682 0.977 0
M  V30 21 H -2.2847 3.4134 -0.1986 0
M  V30 22 H -0.5512 3.3126 -0.6811 0
M  V30 23 H 4.2359 -1.691 0.0157 0
M  V30 24 H 3.2916 -1.6544 -1.536 0
M  V30 25 H 4.5288 -0.3832 -1.1953 0
M  V30 END ATOM
M  V30 BEGIN BOND
M  V30 1 2 1 2
M  V30 2 1 2 3
M  V30 3 1 2 4
M  V30 4 1 3 5
M  V30 5 1 4 6
M  V30 6 1 4 7
M  V30 7 2 6 8
M  V30 8 1 6 9
M  V30 9 1 7 10
M  V30 10 2 10 11
M  V30 11 1 10 12
M  V30 12 1 12 13
M  V30 13 1 4 14
M  V30 14 1 5 15
M  V30 15 1 5 16
M  V30 16 1 5 17
M  V30 17 1 7 18
M  V30 18 1 7 19
M  V30 19 1 9 20
M  V30 20 1 9 21
M  V30 21 1 9 22
M  V30 22 1 13 23
M  V30 23 1 13 24
M  V30 24 1 13 25
M  V30 END BOND
M  V30 BEGIN COLLECTION
M  V30 MDLV30/STEABS ATOMS=(1 4)
M  V30 END COLLECTION
M  V30 END CTAB
M  END
>  <Structure No>
1811

>  <LogS>
-0.524834841

>  <MMFF94 Energy>
-48.308

$$$$
Compound 1812
Actelion Java MolfileCreator 2.0

  0  0  0  0  0  0              0 V3000
M  V30 BEGIN CTAB
M  V30 COUNTS 5 4 0 0 0
M  V30 BEGIN ATOM
M  V30 1 O -0.5524 1.2631 0.0 0
M  V30 2 C -0.4572 0.0079 -0.0168 0
M  V30 3 O 0.7925 -0.5993 -0.0604 0
M  V30 4 O -1.6044 -0.7728 0.0081 0 CHG=-1
M  V30 5 H 1.6395 -0.0438 -0.079 0
M  V30 END ATOM
M  V30 BEGIN BOND
M  V30 1 2 1 2
M  V30 2 1 2 3
M  V30 3 1 2 4
M  V30 4 1 3 5
M  V30 END BOND
M  V30 END CTAB
M  END
>  <Structure No>
1812

>  <LogS>
-0.722399688

>  <MMFF94 Energy>
-89.96

$$$$
Compound 1813
Actelion Java MolfileCreator 2.0

  0  0  0  0  0  0              0 V3000
M  V30 BEGIN CTAB
M  V30 COUNTS 32 33 0 0 0
M  V30 BEGIN ATOM
M  V30 1 O -5.2519 0.2382 -1.8278 0
M  V30 2 C -4.5017 0.6053 -0.6947 0 CFG=1
M  V30 3 C -5.9508 0.889 -0.7897 0
M  V30 4 C -4.0961 -0.6106 0.1428 0
M  V30 5 O -2.8878 -1.1549 -0.3517 0
M  V30 6 C -1.7798 -0.5965 0.3241 0
M  V30 7 C -0.4936 -1.0843 -0.3407 0
M  V30 8 C 0.7449 -0.5125 0.3592 0
M  V30 9 C 2.0333 -1.0027 -0.3081 0
M  V30 10 O 3.1602 -0.5222 0.4004 0
M  V30 11 C 3.6802 0.6395 -0.2189 0
M  V30 12 C 4.8108 1.2577 0.6118 0 CFG=1
M  V30 13 O 4.8095 0.833 1.9545 0
M  V30 14 C 5.8416 0.332 1.1325 0
M  V30 15 H -3.7966 1.4377 -0.9008 0
M  V30 16 H -6.6512 0.1951 -0.2785 0
M  V30 17 H -6.2284 1.9234 -1.0803 0
M  V30 18 H -4.8735 -1.4028 0.0775 0
M  V30 19 H -4.0433 -0.3187 1.218 0
M  V30 20 H -1.7792 -0.9242 1.3887 0
M  V30 21 H -1.8044 0.5167 0.2786 0
M  V30 22 H -0.4641 -2.1954 -0.3013 0
M  V30 23 H -0.4962 -0.7696 -1.4075 0
M  V30 24 H 0.7476 -0.8271 1.426 0
M  V30 25 H 0.7099 0.5976 0.3216 0
M  V30 26 H 2.0556 -2.1124 -0.2628 0
M  V30 27 H 2.0376 -0.7312 -1.3912 0
M  V30 28 H 2.8897 1.4147 -0.3329 0
M  V30 29 H 4.0919 0.3912 -1.2225 0
M  V30 30 H 5.0971 2.324 0.4939 0
M  V30 31 H 6.8191 0.7866 1.3956 0
M  V30 32 H 5.7125 -0.7535 0.9383 0
M  V30 END ATOM
M  V30 BEGIN BOND
M  V30 1 1 1 2
M  V30 2 1 1 3
M  V30 3 1 2 4
M  V30 4 1 4 5
M  V30 5 1 5 6
M  V30 6 1 6 7
M  V30 7 1 7 8
M  V30 8 1 8 9
M  V30 9 1 9 10
M  V30 10 1 10 11
M  V30 11 1 11 12
M  V30 12 1 12 13
M  V30 13 1 12 14
M  V30 14 1 2 3
M  V30 15 1 13 14
M  V30 16 1 2 15
M  V30 17 1 3 16
M  V30 18 1 3 17
M  V30 19 1 4 18
M  V30 20 1 4 19
M  V30 21 1 6 20
M  V30 22 1 6 21
M  V30 23 1 7 22
M  V30 24 1 7 23
M  V30 25 1 8 24
M  V30 26 1 8 25
M  V30 27 1 9 26
M  V30 28 1 9 27
M  V30 29 1 11 28
M  V30 30 1 11 29
M  V30 31 1 12 30
M  V30 32 1 14 31
M  V30 33 1 14 32
M  V30 END BOND
M  V30 BEGIN COLLECTION
M  V30 MDLV30/STEABS ATOMS=(2 2 12)
M  V30 END COLLECTION
M  V30 END CTAB
M  END
>  <Structure No>
1813

>  <LogS>
-0.560813739

>  <MMFF94 Energy>
29.384

$$$$
Compound 1814
Actelion Java MolfileCreator 2.0

  0  0  0  0  0  0              0 V3000
M  V30 BEGIN CTAB
M  V30 COUNTS 1 0 0 0 0
M  V30 BEGIN ATOM
M  V30 1 S 0.0 0.0 0.0 0 CHG=-1 VAL=2
M  V30 END ATOM
M  V30 BEGIN BOND
M  V30 END BOND
M  V30 END CTAB
M  END
>  <Structure No>
1814

>  <LogS>
0.990088732

>  <MMFF94 Energy>
6.798e-13

$$$$
Compound 1815
Actelion Java MolfileCreator 2.0

  0  0  0  0  0  0              0 V3000
M  V30 BEGIN CTAB
M  V30 COUNTS 13 12 0 0 0
M  V30 BEGIN ATOM
M  V30 1 O 2.4567 -1.3045 0.6904 0
M  V30 2 C 1.9994 -0.3977 -0.0538 0
M  V30 3 O 2.8129 0.6663 -0.4218 0 CHG=-1
M  V30 4 C 0.5714 -0.4369 -0.4975 0
M  V30 5 C -0.3244 0.2933 0.5088 0
M  V30 6 N -1.7226 0.2641 0.0811 0 CHG=1
M  V30 7 H 0.4876 0.0465 -1.4947 0
M  V30 8 H 0.2434 -1.4946 -0.5961 0
M  V30 9 H -0.2354 -0.1912 1.5069 0
M  V30 10 H 0.0082 1.3513 0.6046 0
M  V30 11 H -2.0562 -0.7246 0.011 0
M  V30 12 H -2.3067 0.7689 0.7863 0
M  V30 13 H -1.8251 0.7389 -0.8452 0
M  V30 END ATOM
M  V30 BEGIN BOND
M  V30 1 2 1 2
M  V30 2 1 2 3
M  V30 3 1 2 4
M  V30 4 1 4 5
M  V30 5 1 5 6
M  V30 6 1 4 7
M  V30 7 1 4 8
M  V30 8 1 5 9
M  V30 9 1 5 10
M  V30 10 1 6 11
M  V30 11 1 6 12
M  V30 12 1 6 13
M  V30 END BOND
M  V30 END CTAB
M  END
>  <Structure No>
1815

>  <LogS>
0.786548045

>  <MMFF94 Energy>
-86.229

$$$$
Compound 1816
Actelion Java MolfileCreator 2.0

  0  0  0  0  0  0              0 V3000
M  V30 BEGIN CTAB
M  V30 COUNTS 22 22 0 0 0
M  V30 BEGIN ATOM
M  V30 1 O 2.4966 1.1697 -0.7796 0
M  V30 2 C 1.3222 0.4178 -0.8753 0
M  V30 3 C 2.8217 1.9444 0.3683 0
M  V30 4 N 0.4219 0.3976 0.145 0
M  V30 5 C 1.0691 -0.3161 -2.0323 0
M  V30 6 C -0.7338 -0.3237 0.094 0
M  V30 7 C -0.0981 -1.0722 -2.1216 0
M  V30 8 N -1.6501 -0.2512 1.2003 0
M  V30 9 C -1.0114 -1.0985 -1.0581 0
M  V30 10 C -1.2758 0.3858 2.4578 0
M  V30 11 N -2.1746 -1.9307 -1.1629 0
M  V30 12 H 2.0431 2.718 0.5383 0
M  V30 13 H 2.8991 1.2877 1.2607 0
M  V30 14 H 3.7974 2.4461 0.2054 0
M  V30 15 H 1.7749 -0.3062 -2.8532 0
M  V30 16 H -0.2848 -1.6526 -3.0165 0
M  V30 17 H -2.6277 -0.6031 1.1163 0
M  V30 18 H -1.0152 1.4505 2.2799 0
M  V30 19 H -0.4052 -0.1412 2.9016 0
M  V30 20 H -2.1245 0.3408 3.1726 0
M  V30 21 H -2.3952 -2.4138 -2.0623 0
M  V30 22 H -2.7733 -2.1673 -0.3437 0
M  V30 END ATOM
M  V30 BEGIN BOND
M  V30 1 1 1 2
M  V30 2 1 1 3
M  V30 3 2 2 4
M  V30 4 1 2 5
M  V30 5 1 4 6
M  V30 6 2 5 7
M  V30 7 1 6 8
M  V30 8 2 6 9
M  V30 9 1 8 10
M  V30 10 1 9 11
M  V30 11 1 7 9
M  V30 12 1 3 12
M  V30 13 1 3 13
M  V30 14 1 3 14
M  V30 15 1 5 15
M  V30 16 1 7 16
M  V30 17 1 8 17
M  V30 18 1 10 18
M  V30 19 1 10 19
M  V30 20 1 10 20
M  V30 21 1 11 21
M  V30 22 1 11 22
M  V30 END BOND
M  V30 END CTAB
M  END
>  <Structure No>
1816

>  <LogS>
0.381923091

>  <MMFF94 Energy>
-5.8389

$$$$
Compound 1817
Actelion Java MolfileCreator 2.0

  0  0  0  0  0  0              0 V3000
M  V30 BEGIN CTAB
M  V30 COUNTS 24 23 0 0 0
M  V30 BEGIN ATOM
M  V30 1 O 3.9692 0.4573 -0.0762 0
M  V30 2 C 2.7837 0.4461 0.6689 0
M  V30 3 C 1.6225 0.0022 -0.2242 0
M  V30 4 N 0.3626 -0.0567 0.5395 0 CHG=1
M  V30 5 C -0.8192 -0.2843 -0.3271 0 CFG=2
M  V30 6 C -2.1343 -0.0855 0.4696 0
M  V30 7 C -0.8063 -1.703 -0.931 0
M  V30 8 C -2.4316 1.3828 0.7818 0
M  V30 9 H 4.6838 0.7475 0.5484 0
M  V30 10 H 2.8853 -0.2601 1.5231 0
M  V30 11 H 2.5819 1.4672 1.0633 0
M  V30 12 H 1.5303 0.7207 -1.0693 0
M  V30 13 H 1.8731 -1.0003 -0.6326 0
M  V30 14 H 0.2512 0.8552 1.0376 0
M  V30 15 H 0.4277 -0.8148 1.2595 0
M  V30 16 H -0.8155 0.4412 -1.1725 0
M  V30 17 H -2.992 -0.472 -0.1236 0
M  V30 18 H -2.0965 -0.6639 1.4185 0
M  V30 19 H -0.7224 -2.4688 -0.1307 0
M  V30 20 H 0.035 -1.8239 -1.6428 0
M  V30 21 H -1.7382 -1.8897 -1.506 0
M  V30 22 H -2.3853 1.996 -0.1429 0
M  V30 23 H -1.7211 1.7868 1.5311 0
M  V30 24 H -3.4541 1.468 1.2066 0
M  V30 END ATOM
M  V30 BEGIN BOND
M  V30 1 1 1 2
M  V30 2 1 2 3
M  V30 3 1 3 4
M  V30 4 1 4 5
M  V30 5 1 5 6
M  V30 6 1 5 7
M  V30 7 1 6 8
M  V30 8 1 1 9
M  V30 9 1 2 10
M  V30 10 1 2 11
M  V30 11 1 3 12
M  V30 12 1 3 13
M  V30 13 1 4 14
M  V30 14 1 4 15
M  V30 15 1 5 16
M  V30 16 1 6 17
M  V30 17 1 6 18
M  V30 18 1 7 19
M  V30 19 1 7 20
M  V30 20 1 7 21
M  V30 21 1 8 22
M  V30 22 1 8 23
M  V30 23 1 8 24
M  V30 END BOND
M  V30 BEGIN COLLECTION
M  V30 MDLV30/STEABS ATOMS=(1 5)
M  V30 END COLLECTION
M  V30 END CTAB
M  END
>  <Structure No>
1817

>  <LogS>
0.666700934

>  <MMFF94 Energy>
18.03

$$$$
Compound 1818
Actelion Java MolfileCreator 2.0

  0  0  0  0  0  0              0 V3000
M  V30 BEGIN CTAB
M  V30 COUNTS 18 17 0 0 0
M  V30 BEGIN ATOM
M  V30 1 O -2.1455 1.8978 -0.5773 0
M  V30 2 C -1.2069 1.4464 0.1317 0
M  V30 3 O -1.1052 1.8531 1.458 0 CHG=-1
M  V30 4 C -0.2495 0.4173 -0.4408 0
M  V30 5 O -0.0424 0.6978 -1.8071 0
M  V30 6 C -0.8992 -0.9879 -0.3491 0
M  V30 7 C 1.1143 0.4739 0.3075 0
M  V30 8 C -1.1962 -1.4278 1.0564 0
M  V30 9 C 2.1442 -0.4333 -0.299 0
M  V30 10 O -0.3676 -2.1334 1.6895 0
M  V30 11 O -2.3812 -1.0432 1.6713 0 CHG=-1
M  V30 12 O 2.3584 -1.5712 0.1959 0
M  V30 13 O 2.849 -0.031 -1.4264 0 CHG=-1
M  V30 14 H 0.3572 1.6052 -1.8778 0
M  V30 15 H -0.2422 -1.741 -0.8357 0
M  V30 16 H -1.8515 -0.9896 -0.9237 0
M  V30 17 H 0.9856 0.217 1.3814 0
M  V30 18 H 1.5107 1.5125 0.2754 0
M  V30 END ATOM
M  V30 BEGIN BOND
M  V30 1 2 1 2
M  V30 2 1 2 3
M  V30 3 1 2 4
M  V30 4 1 4 5
M  V30 5 1 4 6
M  V30 6 1 4 7
M  V30 7 1 6 8
M  V30 8 1 7 9
M  V30 9 2 8 10
M  V30 10 1 8 11
M  V30 11 2 9 12
M  V30 12 1 9 13
M  V30 13 1 5 14
M  V30 14 1 6 15
M  V30 15 1 6 16
M  V30 16 1 7 17
M  V30 17 1 7 18
M  V30 END BOND
M  V30 END CTAB
M  END
>  <Structure No>
1818

>  <LogS>
0.287941418

>  <MMFF94 Energy>
236.67

$$$$
Compound 1819
Actelion Java MolfileCreator 2.0

  0  0  0  0  0  0              0 V3000
M  V30 BEGIN CTAB
M  V30 COUNTS 7 6 0 0 0
M  V30 BEGIN ATOM
M  V30 1 S 0.9257 0.2056 0.5142 0 CFG=2
M  V30 2 O 1.1489 -0.2213 1.9581 0
M  V30 3 O -0.0192 -1.0627 -0.1291 0
M  V30 4 O 2.4459 -0.0309 -0.2119 0 CHG=-1
M  V30 5 S -1.4022 -0.3419 -0.8363 0 CFG=2
M  V30 6 O -0.8498 0.6303 -1.8719 0
M  V30 7 O -2.0551 0.6601 0.3775 0 CHG=-1
M  V30 END ATOM
M  V30 BEGIN BOND
M  V30 1 2 1 2
M  V30 2 1 1 3
M  V30 3 1 1 4
M  V30 4 1 3 5
M  V30 5 2 5 6
M  V30 6 1 5 7
M  V30 END BOND
M  V30 BEGIN COLLECTION
M  V30 MDLV30/STEABS ATOMS=(2 1 5)
M  V30 END COLLECTION
M  V30 END CTAB
M  END
>  <Structure No>
1819

>  <LogS>
0.453391082

>  <MMFF94 Energy>
70.917

$$$$
Compound 1820
Actelion Java MolfileCreator 2.0

  0  0  0  0  0  0              0 V3000
M  V30 BEGIN CTAB
M  V30 COUNTS 28 28 0 0 0
M  V30 BEGIN ATOM
M  V30 1 O -2.9307 -1.2665 -2.7721 0
M  V30 2 N -2.9551 -1.144 -1.5315 0 CHG=1
M  V30 3 O -4.1433 -1.3491 -0.8673 0 CHG=-1
M  V30 4 N -1.7395 -1.0996 -0.8283 0
M  V30 5 C -1.6068 -0.6668 0.3934 0
M  V30 6 N -0.3422 -0.7861 1.0602 0
M  V30 7 N -2.6936 -0.0426 1.0869 0
M  V30 8 C 0.8585 -1.3155 0.4137 0
M  V30 9 C -3.2087 1.2505 0.6505 0
M  V30 10 C 1.4387 -0.2942 -0.5814 0 CFG=2
M  V30 11 C 2.7116 -0.7818 -1.2509 0
M  V30 12 C 1.8898 0.9835 0.0689 0
M  V30 13 O 3.5157 0.3321 -1.5631 0
M  V30 14 C 3.0259 1.4335 -0.8296 0
M  V30 15 H -0.2798 -0.5037 2.0643 0
M  V30 16 H -2.8806 -0.3352 2.0722 0
M  V30 17 H 0.6127 -2.2628 -0.1131 0
M  V30 18 H 1.6147 -1.5551 1.1936 0
M  V30 19 H -2.3671 1.957 0.4884 0
M  V30 20 H -3.8809 1.67 1.4286 0
M  V30 21 H -3.7814 1.1438 -0.2922 0
M  V30 22 H 0.6887 -0.0583 -1.3696 0
M  V30 23 H 2.4688 -1.3397 -2.1804 0
M  V30 24 H 3.2887 -1.4543 -0.5783 0
M  V30 25 H 2.2787 0.7988 1.0955 0
M  V30 26 H 1.0713 1.7353 0.1075 0
M  V30 27 H 3.8471 1.876 -0.2259 0
M  V30 28 H 2.6592 2.2028 -1.5433 0
M  V30 END ATOM
M  V30 BEGIN BOND
M  V30 1 2 1 2
M  V30 2 1 2 3
M  V30 3 1 2 4
M  V30 4 2 4 5
M  V30 5 1 5 6
M  V30 6 1 5 7
M  V30 7 1 6 8
M  V30 8 1 7 9
M  V30 9 1 8 10
M  V30 10 1 10 11
M  V30 11 1 10 12
M  V30 12 1 11 13
M  V30 13 1 12 14
M  V30 14 1 13 14
M  V30 15 1 6 15
M  V30 16 1 7 16
M  V30 17 1 8 17
M  V30 18 1 8 18
M  V30 19 1 9 19
M  V30 20 1 9 20
M  V30 21 1 9 21
M  V30 22 1 10 22
M  V30 23 1 11 23
M  V30 24 1 11 24
M  V30 25 1 12 25
M  V30 26 1 12 26
M  V30 27 1 14 27
M  V30 28 1 14 28
M  V30 END BOND
M  V30 BEGIN COLLECTION
M  V30 MDLV30/STEABS ATOMS=(1 10)
M  V30 END COLLECTION
M  V30 END CTAB
M  END
>  <Structure No>
1820

>  <LogS>
-0.569414718

>  <MMFF94 Energy>
-90.061

$$$$
Compound 1821
Actelion Java MolfileCreator 2.0

  0  0  0  0  0  0              0 V3000
M  V30 BEGIN CTAB
M  V30 COUNTS 24 23 0 0 0
M  V30 BEGIN ATOM
M  V30 1 O 1.009 0.2327 1.4749 0
M  V30 2 C 1.0361 -0.7403 0.6727 0
M  V30 3 O 2.1514 -0.9675 -0.1411 0
M  V30 4 C -0.1528 -1.6417 0.558 0
M  V30 5 C 3.2854 -0.1036 -0.1763 0
M  V30 6 C -1.0235 -1.2526 -0.6407 0
M  V30 7 C 2.97 1.1643 -0.9615 0
M  V30 8 O -1.4607 0.0904 -0.5331 0
M  V30 9 C -2.7441 0.1492 0.0535 0
M  V30 10 C -3.1153 1.604 0.2956 0
M  V30 11 H 0.1988 -2.6875 0.4281 0
M  V30 12 H -0.7512 -1.6015 1.4934 0
M  V30 13 H 3.611 0.1516 0.8556 0
M  V30 14 H 4.1199 -0.6361 -0.6792 0
M  V30 15 H -1.8592 -1.9841 -0.7515 0
M  V30 16 H -0.4145 -1.3431 -1.5658 0
M  V30 17 H 2.1669 1.7424 -0.4582 0
M  V30 18 H 3.8788 1.799 -1.0267 0
M  V30 19 H 2.6397 0.9013 -1.9887 0
M  V30 20 H -3.5016 -0.2971 -0.6295 0
M  V30 21 H -2.7672 -0.3826 1.0316 0
M  V30 22 H -4.1259 1.6633 0.7525 0
M  V30 23 H -3.1212 2.1602 -0.6656 0
M  V30 24 H -2.3805 2.0734 0.9839 0
M  V30 END ATOM
M  V30 BEGIN BOND
M  V30 1 2 1 2
M  V30 2 1 2 3
M  V30 3 1 2 4
M  V30 4 1 3 5
M  V30 5 1 4 6
M  V30 6 1 5 7
M  V30 7 1 6 8
M  V30 8 1 8 9
M  V30 9 1 9 10
M  V30 10 1 4 11
M  V30 11 1 4 12
M  V30 12 1 5 13
M  V30 13 1 5 14
M  V30 14 1 6 15
M  V30 15 1 6 16
M  V30 16 1 7 17
M  V30 17 1 7 18
M  V30 18 1 7 19
M  V30 19 1 9 20
M  V30 20 1 9 21
M  V30 21 1 10 22
M  V30 22 1 10 23
M  V30 23 1 10 24
M  V30 END BOND
M  V30 END CTAB
M  END
>  <Structure No>
1821

>  <LogS>
-0.431708518

>  <MMFF94 Energy>
-12.312

$$$$
Compound 1822
Actelion Java MolfileCreator 2.0

  0  0  0  0  0  0              0 V3000
M  V30 BEGIN CTAB
M  V30 COUNTS 24 24 0 0 0
M  V30 BEGIN ATOM
M  V30 1 N 1.8681 0.2333 -0.5445 0 CHG=1
M  V30 2 C 0.5132 0.2375 0.0491 0
M  V30 3 C 2.8659 -0.3614 0.3528 0
M  V30 4 C -0.4451 1.0816 -0.8168 0
M  V30 5 C -0.0425 -1.2059 0.2271 0
M  V30 6 C -1.8398 1.2124 -0.1704 0
M  V30 7 C -1.582 -1.289 0.1858 0
M  V30 8 C -2.2317 -2.0E-4 0.6958 0
M  V30 9 H 1.8666 -0.2882 -1.4525 0
M  V30 10 H 2.1658 1.2191 -0.7348 0
M  V30 11 H 0.5573 0.7249 1.0515 0
M  V30 12 H 2.8615 0.1473 1.3416 0
M  V30 13 H 3.8795 -0.2483 -0.0891 0
M  V30 14 H 2.6769 -1.4472 0.4923 0
M  V30 15 H -0.5458 0.605 -1.8171 0
M  V30 16 H -0.0259 2.0996 -0.9722 0
M  V30 17 H 0.3101 -1.6019 1.2046 0
M  V30 18 H 0.3581 -1.8765 -0.5638 0
M  V30 19 H -2.5933 1.3483 -0.9768 0
M  V30 20 H -1.8683 2.125 0.4643 0
M  V30 21 H -1.9168 -1.472 -0.859 0
M  V30 22 H -1.9246 -2.148 0.8025 0
M  V30 23 H -3.3372 -0.1148 0.696 0
M  V30 24 H -1.912 0.1737 1.7471 0
M  V30 END ATOM
M  V30 BEGIN BOND
M  V30 1 1 1 2
M  V30 2 1 1 3
M  V30 3 1 2 4
M  V30 4 1 2 5
M  V30 5 1 4 6
M  V30 6 1 5 7
M  V30 7 1 6 8
M  V30 8 1 7 8
M  V30 9 1 1 9
M  V30 10 1 1 10
M  V30 11 1 2 11
M  V30 12 1 3 12
M  V30 13 1 3 13
M  V30 14 1 3 14
M  V30 15 1 4 15
M  V30 16 1 4 16
M  V30 17 1 5 17
M  V30 18 1 5 18
M  V30 19 1 6 19
M  V30 20 1 6 20
M  V30 21 1 7 21
M  V30 22 1 7 22
M  V30 23 1 8 23
M  V30 24 1 8 24
M  V30 END BOND
M  V30 END CTAB
M  END
>  <Structure No>
1822

>  <LogS>
-0.321468013

>  <MMFF94 Energy>
5.7987

$$$$
Compound 1823
Actelion Java MolfileCreator 2.0

  0  0  0  0  0  0              0 V3000
M  V30 BEGIN CTAB
M  V30 COUNTS 12 11 0 0 0
M  V30 BEGIN ATOM
M  V30 1 O -0.2343 -0.1562 -1.6415 0
M  V30 2 C 0.12 -0.2787 -0.4368 0
M  V30 3 O -0.7687 0.0135 0.6017 0
M  V30 4 C 1.5158 -0.6979 -0.1134 0
M  V30 5 C -2.106 0.4388 0.3684 0
M  V30 6 C 2.3651 0.4852 0.0436 0
M  V30 7 N 3.0363 1.4198 0.1677 0
M  V30 8 H 1.5223 -1.28 0.8319 0
M  V30 9 H 1.9224 -1.3362 -0.9262 0
M  V30 10 H -2.6602 -0.3413 -0.195 0
M  V30 11 H -2.6106 0.606 1.3421 0
M  V30 12 H -2.1079 1.3895 -0.2058 0
M  V30 END ATOM
M  V30 BEGIN BOND
M  V30 1 2 1 2
M  V30 2 1 2 3
M  V30 3 1 2 4
M  V30 4 1 3 5
M  V30 5 1 4 6
M  V30 6 3 6 7
M  V30 7 1 4 8
M  V30 8 1 4 9
M  V30 9 1 5 10
M  V30 10 1 5 11
M  V30 11 1 5 12
M  V30 END BOND
M  V30 END CTAB
M  END
>  <Structure No>
1823

>  <LogS>
-0.263631686

>  <MMFF94 Energy>
-14.047

$$$$
Compound 1824
Actelion Java MolfileCreator 2.0

  0  0  0  0  0  0              0 V3000
M  V30 BEGIN CTAB
M  V30 COUNTS 12 11 0 0 0
M  V30 BEGIN ATOM
M  V30 1 S 1.5186 -0.1686 0.0 0
M  V30 2 O 1.5195 -1.1879 -1.104 0
M  V30 3 O 1.6093 -0.8683 1.3269 0
M  V30 4 O 2.8464 0.8435 -0.1824 0 CHG=-1
M  V30 5 C 0.024 0.8095 -0.0712 0
M  V30 6 C -1.2212 -0.0415 0.1699 0
M  V30 7 O -1.3938 -0.9531 -0.8794 0
M  V30 8 H 0.0819 1.5993 0.7075 0
M  V30 9 H -0.0432 1.3029 -1.0642 0
M  V30 10 H -2.1069 0.6299 0.2259 0
M  V30 11 H -1.1279 -0.5832 1.1377 0
M  V30 12 H -2.2073 -1.4766 -0.6577 0
M  V30 END ATOM
M  V30 BEGIN BOND
M  V30 1 2 1 2
M  V30 2 2 1 3
M  V30 3 1 1 4
M  V30 4 1 1 5
M  V30 5 1 5 6
M  V30 6 1 6 7
M  V30 7 1 5 8
M  V30 8 1 5 9
M  V30 9 1 6 10
M  V30 10 1 6 11
M  V30 11 1 7 12
M  V30 END BOND
M  V30 END CTAB
M  END
>  <Structure No>
1824

>  <LogS>
0.556942214

>  <MMFF94 Energy>
0.41713

$$$$
Compound 1825
Actelion Java MolfileCreator 2.0

  0  0  0  0  0  0              0 V3000
M  V30 BEGIN CTAB
M  V30 COUNTS 29 28 0 0 0
M  V30 BEGIN ATOM
M  V30 1 S 3.1086 1.0964 1.3706 0
M  V30 2 O 4.2586 0.148 1.1788 0
M  V30 3 O 2.0206 0.411 2.1472 0
M  V30 4 O 3.6421 2.423 2.2524 0 CHG=-1
M  V30 5 C 2.4953 1.6708 -0.2172 0
M  V30 6 F 1.274 2.2937 -0.0413 0
M  V30 7 F 3.3796 2.6342 -0.671 0
M  V30 8 C 2.402 0.5683 -1.3042 0
M  V30 9 F 1.9804 1.1701 -2.4792 0
M  V30 10 F 3.6814 0.0898 -1.5387 0
M  V30 11 C 1.4834 -0.6578 -1.0224 0
M  V30 12 F 1.5857 -1.4793 -2.1336 0
M  V30 13 F 1.9781 -1.3726 0.0544 0
M  V30 14 C -0.0177 -0.3187 -0.7709 0
M  V30 15 F -0.1242 0.2724 0.4701 0
M  V30 16 F -0.4557 0.5788 -1.7307 0
M  V30 17 C -0.9287 -1.5826 -0.8041 0
M  V30 18 F -0.4965 -2.4946 0.1458 0
M  V30 19 F -0.802 -2.186 -2.0458 0
M  V30 20 C -2.4495 -1.3097 -0.6002 0
M  V30 21 F -3.1002 -2.5056 -0.8684 0
M  V30 22 F -2.8776 -0.4111 -1.5661 0
M  V30 23 C -2.8862 -0.8381 0.8325 0
M  V30 24 F -1.8726 -1.022 1.7577 0
M  V30 25 F -3.9532 -1.6159 1.2574 0
M  V30 26 C -3.3541 0.6294 0.8893 0
M  V30 27 F -4.525 0.7835 0.1668 0
M  V30 28 F -3.6029 0.9828 2.2037 0
M  V30 29 F -2.3974 1.485 0.3773 0
M  V30 END ATOM
M  V30 BEGIN BOND
M  V30 1 2 1 2
M  V30 2 2 1 3
M  V30 3 1 1 4
M  V30 4 1 1 5
M  V30 5 1 5 6
M  V30 6 1 5 7
M  V30 7 1 5 8
M  V30 8 1 8 9
M  V30 9 1 8 10
M  V30 10 1 8 11
M  V30 11 1 11 12
M  V30 12 1 11 13
M  V30 13 1 11 14
M  V30 14 1 14 15
M  V30 15 1 14 16
M  V30 16 1 14 17
M  V30 17 1 17 18
M  V30 18 1 17 19
M  V30 19 1 17 20
M  V30 20 1 20 21
M  V30 21 1 20 22
M  V30 22 1 20 23
M  V30 23 1 23 24
M  V30 24 1 23 25
M  V30 25 1 23 26
M  V30 26 1 26 27
M  V30 27 1 26 28
M  V30 28 1 26 29
M  V30 END BOND
M  V30 END CTAB
M  END
>  <Structure No>
1825

>  <LogS>
-0.072180899

>  <MMFF94 Energy>
139.11

$$$$
Compound 1826
Actelion Java MolfileCreator 2.0

  0  0  0  0  0  0              0 V3000
M  V30 BEGIN CTAB
M  V30 COUNTS 68 67 0 0 0
M  V30 BEGIN ATOM
M  V30 1 S 7.8696 -1.2816 0.08 0
M  V30 2 O 8.5519 -0.7835 -1.1605 0
M  V30 3 O 8.8146 -2.1784 0.8276 0
M  V30 4 O 7.4683 0.028 1.0496 0 CHG=-1
M  V30 5 C 6.3897 -2.1892 -0.3755 0 CFG=2
M  V30 6 C 5.5445 -1.3316 -1.2727 0
M  V30 7 C 5.5763 -2.6163 0.8607 0
M  V30 8 O 5.4085 -1.6413 -2.4875 0
M  V30 9 O 4.9371 -0.1794 -0.7576 0
M  V30 10 C 6.2987 -3.6358 1.6863 0
M  V30 11 C 4.0724 0.6646 -1.5162 0
M  V30 12 O 6.7011 -3.3457 2.8438 0
M  V30 13 O 6.5486 -4.9023 1.1684 0 CHG=-1
M  V30 14 C 2.6947 0.0187 -1.7209 0
M  V30 15 C 2.039 -0.4773 -0.4181 0
M  V30 16 C 1.8615 0.5943 0.6763 0
M  V30 17 C 1.0817 1.85 0.2461 0
M  V30 18 C -0.3725 1.5484 -0.1527 0
M  V30 19 C -1.1383 2.8096 -0.5923 0
M  V30 20 C -1.4187 3.8177 0.5373 0
M  V30 21 C -2.1498 3.2115 1.71 0
M  V30 22 C -3.4705 2.9453 1.7515 0
M  V30 23 C -4.4535 3.2138 0.6357 0
M  V30 24 C -5.2871 1.9639 0.3202 0
M  V30 25 C -4.4459 0.8569 -0.3327 0
M  V30 26 C -5.2775 -0.4175 -0.5383 0
M  V30 27 C -4.5219 -1.5015 -1.3277 0
M  V30 28 C -3.2093 -1.9895 -0.68 0
M  V30 29 C -3.3499 -2.5139 0.7593 0
M  V30 30 C -4.3021 -3.7057 0.8695 0
M  V30 31 H 6.7021 -3.097 -0.9377 0
M  V30 32 H 5.3323 -1.7286 1.4839 0
M  V30 33 H 4.6158 -3.0679 0.5356 0
M  V30 34 H 4.5316 0.893 -2.5026 0
M  V30 35 H 3.9546 1.6287 -0.9794 0
M  V30 36 H 2.0225 0.7402 -2.2331 0
M  V30 37 H 2.8056 -0.8507 -2.404 0
M  V30 38 H 1.0533 -0.9241 -0.6663 0
M  V30 39 H 2.6525 -1.3033 -6.0E-4 0
M  V30 40 H 1.342 0.1306 1.5431 0
M  V30 41 H 2.8629 0.9051 1.044 0
M  V30 42 H 1.082 2.5439 1.1123 0
M  V30 43 H 1.6079 2.3635 -0.5852 0
M  V30 44 H -0.9019 1.0435 0.6831 0
M  V30 45 H -0.3773 0.852 -1.0174 0
M  V30 46 H -2.0931 2.4931 -1.0526 0
M  V30 47 H -0.5633 3.3245 -1.3917 0
M  V30 48 H -0.4556 4.2351 0.8958 0
M  V30 49 H -1.9921 4.6826 0.1399 0
M  V30 50 H -1.5692 3.0138 2.6055 0
M  V30 51 H -3.8747 2.545 2.678 0
M  V30 52 H -3.9717 3.5811 -0.293 0
M  V30 53 H -5.1399 4.0166 0.9788 0
M  V30 54 H -5.7572 1.5853 1.2549 0
M  V30 55 H -6.1061 2.2505 -0.3753 0
M  V30 56 H -3.5763 0.6258 0.3187 0
M  V30 57 H -4.0749 1.2129 -1.3195 0
M  V30 58 H -6.1948 -0.1608 -1.1147 0
M  V30 59 H -5.6099 -0.8183 0.4441 0
M  V30 60 H -5.2023 -2.3675 -1.4816 0
M  V30 61 H -4.2834 -1.1039 -2.3391 0
M  V30 62 H -2.4632 -1.1655 -0.6896 0
M  V30 63 H -2.788 -2.798 -1.3164 0
M  V30 64 H -2.3441 -2.8371 1.1088 0
M  V30 65 H -3.6825 -1.7003 1.4396 0
M  V30 66 H -4.0264 -4.4936 0.1347 0
M  V30 67 H -5.3514 -3.3821 0.6961 0
M  V30 68 H -4.2388 -4.1383 1.89 0
M  V30 END ATOM
M  V30 BEGIN BOND
M  V30 1 2 1 2
M  V30 2 2 1 3
M  V30 3 1 1 4
M  V30 4 1 1 5
M  V30 5 1 5 6
M  V30 6 1 5 7
M  V30 7 2 6 8
M  V30 8 1 6 9
M  V30 9 1 7 10
M  V30 10 1 9 11
M  V30 11 2 10 12
M  V30 12 1 10 13
M  V30 13 1 11 14
M  V30 14 1 14 15
M  V30 15 1 15 16
M  V30 16 1 16 17
M  V30 17 1 17 18
M  V30 18 1 18 19
M  V30 19 1 19 20
M  V30 20 1 20 21
M  V30 21 2 21 22
M  V30 22 1 22 23
M  V30 23 1 23 24
M  V30 24 1 24 25
M  V30 25 1 25 26
M  V30 26 1 26 27
M  V30 27 1 27 28
M  V30 28 1 28 29
M  V30 29 1 29 30
M  V30 30 1 5 31
M  V30 31 1 7 32
M  V30 32 1 7 33
M  V30 33 1 11 34
M  V30 34 1 11 35
M  V30 35 1 14 36
M  V30 36 1 14 37
M  V30 37 1 15 38
M  V30 38 1 15 39
M  V30 39 1 16 40
M  V30 40 1 16 41
M  V30 41 1 17 42
M  V30 42 1 17 43
M  V30 43 1 18 44
M  V30 44 1 18 45
M  V30 45 1 19 46
M  V30 46 1 19 47
M  V30 47 1 20 48
M  V30 48 1 20 49
M  V30 49 1 21 50
M  V30 50 1 22 51
M  V30 51 1 23 52
M  V30 52 1 23 53
M  V30 53 1 24 54
M  V30 54 1 24 55
M  V30 55 1 25 56
M  V30 56 1 25 57
M  V30 57 1 26 58
M  V30 58 1 26 59
M  V30 59 1 27 60
M  V30 60 1 27 61
M  V30 61 1 28 62
M  V30 62 1 28 63
M  V30 63 1 29 64
M  V30 64 1 29 65
M  V30 65 1 30 66
M  V30 66 1 30 67
M  V30 67 1 30 68
M  V30 END BOND
M  V30 BEGIN COLLECTION
M  V30 MDLV30/STEABS ATOMS=(1 5)
M  V30 END COLLECTION
M  V30 END CTAB
M  END
>  <Structure No>
1826

>  <LogS>
-0.962426912

>  <MMFF94 Energy>
2.3869

$$$$
Compound 1827
Actelion Java MolfileCreator 2.0

  0  0  0  0  0  0              0 V3000
M  V30 BEGIN CTAB
M  V30 COUNTS 15 14 0 0 0
M  V30 BEGIN ATOM
M  V30 1 O 0.703 -1.0156 -1.7193 0
M  V30 2 C 0.7962 -0.7929 -0.481 0
M  V30 3 O -0.2181 -0.114 0.2002 0
M  V30 4 C 2.0205 -1.2184 0.2594 0
M  V30 5 C -1.4032 0.3413 -0.4442 0
M  V30 6 C 2.9918 -0.122 0.2821 0
M  V30 7 C -2.2989 1.0369 0.5683 0
M  V30 8 N 3.7594 0.7438 0.3004 0
M  V30 9 H 2.4776 -2.1035 -0.2314 0
M  V30 10 H 1.7518 -1.4895 1.3018 0
M  V30 11 H -1.9476 -0.5227 -0.8834 0
M  V30 12 H -1.1396 1.0565 -1.2533 0
M  V30 13 H -2.5758 0.3298 1.3788 0
M  V30 14 H -3.2241 1.3932 0.0684 0
M  V30 15 H -1.7684 1.9075 1.009 0
M  V30 END ATOM
M  V30 BEGIN BOND
M  V30 1 2 1 2
M  V30 2 1 2 3
M  V30 3 1 2 4
M  V30 4 1 3 5
M  V30 5 1 4 6
M  V30 6 1 5 7
M  V30 7 3 6 8
M  V30 8 1 4 9
M  V30 9 1 4 10
M  V30 10 1 5 11
M  V30 11 1 5 12
M  V30 12 1 7 13
M  V30 13 1 7 14
M  V30 14 1 7 15
M  V30 END BOND
M  V30 END CTAB
M  END
>  <Structure No>
1827

>  <LogS>
-0.327612407

>  <MMFF94 Energy>
-16.313

$$$$
Compound 1828
Actelion Java MolfileCreator 2.0

  0  0  0  0  0  0              0 V3000
M  V30 BEGIN CTAB
M  V30 COUNTS 59 61 0 0 0
M  V30 BEGIN ATOM
M  V30 1 S 4.0543 -2.0256 -1.1812 0
M  V30 2 O 3.4613 -1.5389 -2.4733 0
M  V30 3 O 5.0158 -3.1475 -1.4553 0
M  V30 4 O 4.8423 -0.7584 -0.3769 0
M  V30 5 O 2.8168 -2.5976 -0.1995 0 CHG=-1
M  V30 6 C 5.8837 -0.2792 -1.1938 0
M  V30 7 C 6.5338 0.9361 -0.5335 0
M  V30 8 S 5.4592 2.3676 -0.5499 0
M  V30 9 O 5.3306 2.8797 -1.9581 0
M  V30 10 O 6.08 3.4506 0.2867 0
M  V30 11 C 3.8747 1.961 0.1255 0
M  V30 12 C 2.7682 1.6805 -0.6994 0
M  V30 13 C 3.7536 1.8464 1.517 0
M  V30 14 O 2.9121 1.7594 -2.095 0
M  V30 15 C 1.5465 1.3132 -0.1054 0
M  V30 16 C 2.536 1.4629 2.1066 0
M  V30 17 C 1.8836 1.4703 -3.0336 0
M  V30 18 C 1.428 1.2018 1.2902 0
M  V30 19 O 2.3901 1.3294 3.4971 0
M  V30 20 N 0.1919 0.8087 1.9012 0
M  V30 21 C 3.4286 1.5595 4.4451 0
M  V30 22 N -0.8786 0.666 1.2303 0
M  V30 23 C -2.1145 0.25 1.8745 0 CFG=1
M  V30 24 C -3.2585 0.4532 0.9518 0
M  V30 25 C -2.1803 -1.2517 2.0025 0
M  V30 26 O -3.7137 1.5731 0.597 0
M  V30 27 N -3.8251 -0.7989 0.5979 0
M  V30 28 N -3.126 -1.7876 1.2944 0
M  V30 29 C -1.281 -2.0697 2.8706 0
M  V30 30 C -4.9586 -1.0597 -0.2477 0
M  V30 31 C -5.303 -0.183 -1.2911 0
M  V30 32 C -5.7251 -2.22 -0.0531 0
M  V30 33 C -6.4091 -0.4496 -2.104 0
M  V30 34 C -6.8334 -2.4835 -0.8642 0
M  V30 35 C -7.1857 -1.5938 -1.8863 0
M  V30 36 S -8.5779 -1.9273 -2.9105 0
M  V30 37 O -9.6485 -2.6071 -2.1069 0
M  V30 38 O -8.165 -2.8156 -4.0491 0
M  V30 39 O -9.1959 -0.4883 -3.5201 0 CHG=-1
M  V30 40 H 6.6637 -1.0634 -1.3056 0
M  V30 41 H 5.5135 0.0137 -2.2014 0
M  V30 42 H 6.801 0.6915 0.5172 0
M  V30 43 H 7.4673 1.1924 -1.0775 0
M  V30 44 H 4.6201 2.0424 2.1336 0
M  V30 45 H 0.6884 1.0968 -0.7249 0
M  V30 46 H 1.5414 0.4215 -2.9149 0
M  V30 47 H 1.0319 2.1679 -2.8924 0
M  V30 48 H 2.2837 1.6008 -4.0609 0
M  V30 49 H 3.0344 1.3808 5.4673 0
M  V30 50 H 3.7789 2.6117 4.3791 0
M  V30 51 H 4.2733 0.8603 4.263 0
M  V30 52 H -2.276 0.7664 2.8461 0
M  V30 53 H -0.5752 -1.4162 3.4244 0
M  V30 54 H -0.7019 -2.7784 2.2423 0
M  V30 55 H -1.8885 -2.6415 3.6032 0
M  V30 56 H -4.7062 0.6933 -1.4997 0
M  V30 57 H -5.4741 -2.9159 0.7364 0
M  V30 58 H -6.6557 0.2345 -2.9054 0
M  V30 59 H -7.4164 -3.3799 -0.694 0
M  V30 END ATOM
M  V30 BEGIN BOND
M  V30 1 2 1 2
M  V30 2 2 1 3
M  V30 3 1 1 4
M  V30 4 1 1 5
M  V30 5 1 4 6
M  V30 6 1 6 7
M  V30 7 1 7 8
M  V30 8 2 8 9
M  V30 9 2 8 10
M  V30 10 1 8 11
M  V30 11 2 11 12
M  V30 12 1 11 13
M  V30 13 1 12 14
M  V30 14 1 12 15
M  V30 15 2 13 16
M  V30 16 1 14 17
M  V30 17 2 15 18
M  V30 18 1 16 19
M  V30 19 1 18 20
M  V30 20 1 19 21
M  V30 21 2 20 22
M  V30 22 1 22 23
M  V30 23 1 23 24
M  V30 24 1 23 25
M  V30 25 2 24 26
M  V30 26 1 24 27
M  V30 27 2 25 28
M  V30 28 1 25 29
M  V30 29 1 27 30
M  V30 30 2 30 31
M  V30 31 1 30 32
M  V30 32 1 31 33
M  V30 33 2 32 34
M  V30 34 2 33 35
M  V30 35 1 35 36
M  V30 36 2 36 37
M  V30 37 2 36 38
M  V30 38 1 36 39
M  V30 39 1 16 18
M  V30 40 1 27 28
M  V30 41 1 34 35
M  V30 42 1 6 40
M  V30 43 1 6 41
M  V30 44 1 7 42
M  V30 45 1 7 43
M  V30 46 1 13 44
M  V30 47 1 15 45
M  V30 48 1 17 46
M  V30 49 1 17 47
M  V30 50 1 17 48
M  V30 51 1 21 49
M  V30 52 1 21 50
M  V30 53 1 21 51
M  V30 54 1 23 52
M  V30 55 1 29 53
M  V30 56 1 29 54
M  V30 57 1 29 55
M  V30 58 1 31 56
M  V30 59 1 32 57
M  V30 60 1 33 58
M  V30 61 1 34 59
M  V30 END BOND
M  V30 BEGIN COLLECTION
M  V30 MDLV30/STEABS ATOMS=(1 23)
M  V30 END COLLECTION
M  V30 END CTAB
M  END
>  <Structure No>
1828

>  <LogS>
-0.089843034

>  <MMFF94 Energy>
105.45

$$$$
Compound 1829
Actelion Java MolfileCreator 2.0

  0  0  0  0  0  0              0 V3000
M  V30 BEGIN CTAB
M  V30 COUNTS 18 17 0 0 0
M  V30 BEGIN ATOM
M  V30 1 O -0.8249 2.3938 0.3299 0
M  V30 2 C -0.8997 1.5802 -0.63 0
M  V30 3 O -1.7778 1.8499 -1.6734 0 CHG=-1
M  V30 4 C -0.1044 0.2862 -0.6169 0
M  V30 5 O 0.1996 -0.0708 -1.9475 0
M  V30 6 C -0.9488 -0.8444 0.0426 0
M  V30 7 C 1.2433 0.5053 0.1238 0
M  V30 8 C -1.3027 -0.576 1.4779 0
M  V30 9 C 2.1355 -0.7009 0.0758 0
M  V30 10 O -0.5805 -1.0268 2.4055 0
M  V30 11 O -2.423 0.1847 1.7886 0 CHG=-1
M  V30 12 O 2.8348 -0.932 -0.9454 0
M  V30 13 O 2.1765 -1.5816 1.1493 0 CHG=-1
M  V30 14 H -0.6437 -0.3158 -2.4118 0
M  V30 15 H -1.8961 -0.9789 -0.5239 0
M  V30 16 H -0.4038 -1.8107 -0.0253 0
M  V30 17 H 1.7852 1.3566 -0.3448 0
M  V30 18 H 1.0705 0.7823 1.1861 0
M  V30 END ATOM
M  V30 BEGIN BOND
M  V30 1 2 1 2
M  V30 2 1 2 3
M  V30 3 1 2 4
M  V30 4 1 4 5
M  V30 5 1 4 6
M  V30 6 1 4 7
M  V30 7 1 6 8
M  V30 8 1 7 9
M  V30 9 2 8 10
M  V30 10 1 8 11
M  V30 11 2 9 12
M  V30 12 1 9 13
M  V30 13 1 5 14
M  V30 14 1 6 15
M  V30 15 1 6 16
M  V30 16 1 7 17
M  V30 17 1 7 18
M  V30 END BOND
M  V30 END CTAB
M  END
>  <Structure No>
1829

>  <LogS>
0.345413007

>  <MMFF94 Energy>
239.94

$$$$
Compound 1830
Actelion Java MolfileCreator 2.0

  0  0  0  0  0  0              0 V3000
M  V30 BEGIN CTAB
M  V30 COUNTS 16 15 0 0 0
M  V30 BEGIN ATOM
M  V30 1 N -2.2684 1.877 0.0 0
M  V30 2 C -1.5814 0.9986 -0.3094 0
M  V30 3 C -0.7065 -0.119 -0.7037 0 CFG=1
M  V30 4 C 0.4934 -0.242 0.256 0
M  V30 5 C -1.5183 -1.4169 -0.7225 0
M  V30 6 C 1.4484 0.9539 0.1444 0
M  V30 7 C 2.5983 0.7758 1.0381 0
M  V30 8 N 3.5053 0.6355 1.7431 0
M  V30 9 H -0.3356 0.0721 -1.7343 0
M  V30 10 H 1.0593 -1.1682 0.0086 0
M  V30 11 H 0.1295 -0.3353 1.3046 0
M  V30 12 H -0.8825 -2.2607 -1.0658 0
M  V30 13 H -2.3749 -1.3247 -1.425 0
M  V30 14 H -1.9087 -1.6522 0.2916 0
M  V30 15 H 0.9267 1.8929 0.4258 0
M  V30 16 H 1.8199 1.0481 -0.8981 0
M  V30 END ATOM
M  V30 BEGIN BOND
M  V30 1 3 1 2
M  V30 2 1 2 3
M  V30 3 1 3 4
M  V30 4 1 3 5
M  V30 5 1 4 6
M  V30 6 1 6 7
M  V30 7 3 7 8
M  V30 8 1 3 9
M  V30 9 1 4 10
M  V30 10 1 4 11
M  V30 11 1 5 12
M  V30 12 1 5 13
M  V30 13 1 5 14
M  V30 14 1 6 15
M  V30 15 1 6 16
M  V30 END BOND
M  V30 BEGIN COLLECTION
M  V30 MDLV30/STEABS ATOMS=(1 3)
M  V30 END COLLECTION
M  V30 END CTAB
M  END
>  <Structure No>
1830

>  <LogS>
-0.31550074

>  <MMFF94 Energy>
-0.88405

$$$$
Compound 1831
Actelion Java MolfileCreator 2.0

  0  0  0  0  0  0              0 V3000
M  V30 BEGIN CTAB
M  V30 COUNTS 25 24 0 0 0
M  V30 BEGIN ATOM
M  V30 1 O -0.385 -0.308 0.0769 0
M  V30 2 C -1.3365 0.1326 1.0238 0
M  V30 3 C 0.6497 -1.0077 0.7357 0
M  V30 4 C -2.4738 0.8741 0.314 0 CFG=1
M  V30 5 C 1.7072 -1.4478 -0.2816 0
M  V30 6 O -1.9464 1.9633 -0.3974 0
M  V30 7 C -3.2348 -0.0551 -0.6374 0
M  V30 8 C 2.331 -0.2787 -1.0625 0
M  V30 9 C 3.1914 0.629 -0.1843 0
M  V30 10 H -1.7662 -0.7275 1.5879 0
M  V30 11 H -0.8668 0.8364 1.749 0
M  V30 12 H 0.2451 -1.9244 1.2223 0
M  V30 13 H 1.1313 -0.379 1.5179 0
M  V30 14 H -3.1817 1.2405 1.0938 0
M  V30 15 H 2.5064 -2.0159 0.2423 0
M  V30 16 H 1.2299 -2.1412 -1.0077 0
M  V30 17 H -2.7059 2.5719 -0.5947 0
M  V30 18 H -4.0849 0.4918 -1.0975 0
M  V30 19 H -3.6406 -0.9272 -0.0819 0
M  V30 20 H -2.5674 -0.418 -1.4479 0
M  V30 21 H 1.5385 0.3239 -1.5563 0
M  V30 22 H 2.9759 -0.7 -1.8637 0
M  V30 23 H 2.5614 1.188 0.5381 0
M  V30 24 H 3.9495 0.0332 0.3667 0
M  V30 25 H 3.7193 1.3676 -0.8236 0
M  V30 END ATOM
M  V30 BEGIN BOND
M  V30 1 1 1 2
M  V30 2 1 1 3
M  V30 3 1 2 4
M  V30 4 1 3 5
M  V30 5 1 4 6
M  V30 6 1 4 7
M  V30 7 1 5 8
M  V30 8 1 8 9
M  V30 9 1 2 10
M  V30 10 1 2 11
M  V30 11 1 3 12
M  V30 12 1 3 13
M  V30 13 1 4 14
M  V30 14 1 5 15
M  V30 15 1 5 16
M  V30 16 1 6 17
M  V30 17 1 7 18
M  V30 18 1 7 19
M  V30 19 1 7 20
M  V30 20 1 8 21
M  V30 21 1 8 22
M  V30 22 1 9 23
M  V30 23 1 9 24
M  V30 24 1 9 25
M  V30 END BOND
M  V30 BEGIN COLLECTION
M  V30 MDLV30/STEABS ATOMS=(1 4)
M  V30 END COLLECTION
M  V30 END CTAB
M  END
>  <Structure No>
1831

>  <LogS>
-0.405237967

>  <MMFF94 Energy>
22.319

$$$$
Compound 1832
Actelion Java MolfileCreator 2.0

  0  0  0  0  0  0              0 V3000
M  V30 BEGIN CTAB
M  V30 COUNTS 8 8 0 0 0
M  V30 BEGIN ATOM
M  V30 1 O 2.5152 -0.0785 -0.0785 0
M  V30 2 C 1.2571 -0.0551 -0.0541 0
M  V30 3 O 0.5465 1.0428 -0.1518 0
M  V30 4 O 0.5104 -1.1258 0.0721 0
M  V30 5 C -0.7099 0.6685 -0.0865 0
M  V30 6 C -0.7327 -0.7049 0.0552 0
M  V30 7 H -1.5625 1.3324 -0.1366 0
M  V30 8 H -1.6068 -1.3366 0.139 0
M  V30 END ATOM
M  V30 BEGIN BOND
M  V30 1 2 1 2
M  V30 2 1 2 3
M  V30 3 1 2 4
M  V30 4 1 3 5
M  V30 5 1 4 6
M  V30 6 2 5 6
M  V30 7 1 5 7
M  V30 8 1 6 8
M  V30 END BOND
M  V30 END CTAB
M  END
>  <Structure No>
1832

>  <LogS>
0.777076543

>  <MMFF94 Energy>
17.326

$$$$
Compound 1833
Actelion Java MolfileCreator 2.0

  0  0  0  0  0  0              0 V3000
M  V30 BEGIN CTAB
M  V30 COUNTS 17 16 0 0 0
M  V30 BEGIN ATOM
M  V30 1 S 3.1004 -1.0598 2.0389 0
M  V30 2 C 2.3055 -0.5331 0.7151 0
M  V30 3 S 3.2229 -0.3445 -0.8309 0 CHG=-1 VAL=2
M  V30 4 O 0.936 -0.2604 0.8123 0
M  V30 5 C 0.1429 0.2743 -0.2488 0 CFG=1
M  V30 6 C -1.3399 -0.0144 0.0311 0
M  V30 7 C 0.3745 1.7843 -0.3596 0
M  V30 8 C -1.6297 -1.5141 0.0493 0
M  V30 9 H 0.4167 -0.2066 -1.2139 0
M  V30 10 H -1.6309 0.4225 1.0115 0
M  V30 11 H -1.9676 0.4545 -0.758 0
M  V30 12 H 0.1024 2.288 0.5925 0
M  V30 13 H -0.2389 2.2085 -1.1829 0
M  V30 14 H 1.441 1.9962 -0.5786 0
M  V30 15 H -1.3577 -1.9718 -0.9253 0
M  V30 16 H -2.7127 -1.6803 0.2288 0
M  V30 17 H -1.0576 -2.0116 0.8609 0
M  V30 END ATOM
M  V30 BEGIN BOND
M  V30 1 2 1 2
M  V30 2 1 2 3
M  V30 3 1 2 4
M  V30 4 1 4 5
M  V30 5 1 5 6
M  V30 6 1 5 7
M  V30 7 1 6 8
M  V30 8 1 5 9
M  V30 9 1 6 10
M  V30 10 1 6 11
M  V30 11 1 7 12
M  V30 12 1 7 13
M  V30 13 1 7 14
M  V30 14 1 8 15
M  V30 15 1 8 16
M  V30 16 1 8 17
M  V30 END BOND
M  V30 BEGIN COLLECTION
M  V30 MDLV30/STEABS ATOMS=(1 5)
M  V30 END COLLECTION
M  V30 END CTAB
M  END
>  <Structure No>
1833

>  <LogS>
0.468876879

>  <MMFF94 Energy>
-14.709

$$$$
Compound 1834
Actelion Java MolfileCreator 2.0

  0  0  0  0  0  0              0 V3000
M  V30 BEGIN CTAB
M  V30 COUNTS 23 23 0 0 0
M  V30 BEGIN ATOM
M  V30 1 O 1.8672 -1.9451 -0.5443 0
M  V30 2 C 1.7667 -0.5803 -0.2217 0 CFG=2
M  V30 3 C 0.3147 -0.2 0.0182 0
M  V30 4 C 2.3475 0.2645 -1.3585 0
M  V30 5 C -0.0529 0.8476 0.9053 0
M  V30 6 C -0.6999 -0.8682 -0.6986 0
M  V30 7 N 0.9231 1.641 1.5968 0
M  V30 8 C -1.4111 1.1399 1.1039 0
M  V30 9 C -2.05 -0.5562 -0.4992 0
M  V30 10 C -2.4006 0.4425 0.4122 0
M  V30 11 N -3.0654 -1.2551 -1.2246 0
M  V30 12 H 2.8251 -2.1943 -0.462 0
M  V30 13 H 2.3569 -0.4063 0.7047 0
M  V30 14 H 2.2704 1.346 -1.118 0
M  V30 15 H 1.8013 0.0657 -2.3054 0
M  V30 16 H 3.4195 0.015 -1.5058 0
M  V30 17 H -0.4438 -1.6384 -1.4157 0
M  V30 18 H 0.6218 2.3414 2.3109 0
M  V30 19 H 1.9368 1.6257 1.356 0
M  V30 20 H -1.7045 1.9268 1.7875 0
M  V30 21 H -3.4416 0.6915 0.5766 0
M  V30 22 H -2.8153 -2.0037 -1.9085 0
M  V30 23 H -4.0752 -1.0293 -1.0832 0
M  V30 END ATOM
M  V30 BEGIN BOND
M  V30 1 1 1 2
M  V30 2 1 2 3
M  V30 3 1 2 4
M  V30 4 2 3 5
M  V30 5 1 3 6
M  V30 6 1 5 7
M  V30 7 1 5 8
M  V30 8 2 6 9
M  V30 9 2 8 10
M  V30 10 1 9 11
M  V30 11 1 9 10
M  V30 12 1 1 12
M  V30 13 1 2 13
M  V30 14 1 4 14
M  V30 15 1 4 15
M  V30 16 1 4 16
M  V30 17 1 6 17
M  V30 18 1 7 18
M  V30 19 1 7 19
M  V30 20 1 8 20
M  V30 21 1 10 21
M  V30 22 1 11 22
M  V30 23 1 11 23
M  V30 END BOND
M  V30 BEGIN COLLECTION
M  V30 MDLV30/STEABS ATOMS=(1 2)
M  V30 END COLLECTION
M  V30 END CTAB
M  END
>  <Structure No>
1834

>  <LogS>
-0.68563679

>  <MMFF94 Energy>
8.7243

$$$$
Compound 1835
Actelion Java MolfileCreator 2.0

  0  0  0  0  0  0              0 V3000
M  V30 BEGIN CTAB
M  V30 COUNTS 12 12 0 0 0
M  V30 BEGIN ATOM
M  V30 1 O 1.8221 0.5542 -0.3958 0
M  V30 2 C 0.5461 0.7813 -0.2193 0
M  V30 3 C 2.0085 -0.7359 -0.216 0
M  V30 4 C -0.076 2.0743 -0.3164 0
M  V30 5 C -0.0646 -0.4165 0.0718 0
M  V30 6 N 0.8647 -1.3909 0.084 0
M  V30 7 N -0.577 3.1144 -0.3943 0
M  V30 8 C -1.5092 -0.6312 0.388 0
M  V30 9 H 2.9719 -1.2209 -0.2966 0
M  V30 10 H -1.7408 -1.717 0.4001 0
M  V30 11 H -2.1408 -0.1383 -0.3806 0
M  V30 12 H -1.7393 -0.1994 1.3843 0
M  V30 END ATOM
M  V30 BEGIN BOND
M  V30 1 1 1 2
M  V30 2 1 1 3
M  V30 3 1 2 4
M  V30 4 2 2 5
M  V30 5 2 3 6
M  V30 6 3 4 7
M  V30 7 1 5 8
M  V30 8 1 5 6
M  V30 9 1 3 9
M  V30 10 1 8 10
M  V30 11 1 8 11
M  V30 12 1 8 12
M  V30 END BOND
M  V30 END CTAB
M  END
>  <Structure No>
1835

>  <LogS>
-0.324555733

>  <MMFF94 Energy>
17.823

$$$$
Compound 1836
Actelion Java MolfileCreator 2.0

  0  0  0  0  0  0              0 V3000
M  V30 BEGIN CTAB
M  V30 COUNTS 4 3 0 0 0
M  V30 BEGIN ATOM
M  V30 1 O 1.249 0.0 0.0 0
M  V30 2 N 0.0025 0.033 0.0022 0 CHG=1
M  V30 3 O -0.6527 1.2408 0.0037 0 CHG=-1
M  V30 4 O -0.7157 -1.1384 0.0033 0 CHG=-1
M  V30 END ATOM
M  V30 BEGIN BOND
M  V30 1 2 1 2
M  V30 2 1 2 3
M  V30 3 1 2 4
M  V30 END BOND
M  V30 END CTAB
M  END
>  <Structure No>
1836

>  <LogS>
0.327636132

>  <MMFF94 Energy>
6.4146

$$$$
Compound 1837
Actelion Java MolfileCreator 2.0

  0  0  0  0  0  0              0 V3000
M  V30 BEGIN CTAB
M  V30 COUNTS 11 10 0 0 0
M  V30 BEGIN ATOM
M  V30 1 S 2.1703 0.4171 1.1682 0
M  V30 2 C 1.8226 0.1899 -0.4189 0
M  V30 3 S 3.0424 0.6754 -1.6479 0 CHG=-1 VAL=2
M  V30 4 O 0.6198 -0.3848 -0.8538 0
M  V30 5 C -0.4717 -0.7372 -0.0036 0
M  V30 6 C -1.2808 0.4982 0.3745 0
M  V30 7 H -1.1345 -1.436 -0.556 0
M  V30 8 H -0.1104 -1.2626 0.9064 0
M  V30 9 H -2.1543 0.1981 0.9906 0
M  V30 10 H -0.6598 1.2075 0.9595 0
M  V30 11 H -1.6455 1.0069 -0.5427 0
M  V30 END ATOM
M  V30 BEGIN BOND
M  V30 1 2 1 2
M  V30 2 1 2 3
M  V30 3 1 2 4
M  V30 4 1 4 5
M  V30 5 1 5 6
M  V30 6 1 5 7
M  V30 7 1 5 8
M  V30 8 1 6 9
M  V30 9 1 6 10
M  V30 10 1 6 11
M  V30 END BOND
M  V30 END CTAB
M  END
>  <Structure No>
1837

>  <LogS>
0.544338165

>  <MMFF94 Energy>
-19.058

$$$$
Compound 1838
Actelion Java MolfileCreator 2.0

  0  0  0  0  0  0              0 V3000
M  V30 BEGIN CTAB
M  V30 COUNTS 32 31 0 0 0
M  V30 BEGIN ATOM
M  V30 1 N -4.1164 -0.3044 0.9135 0 CHG=1
M  V30 2 C -3.4217 0.9067 0.4731 0
M  V30 3 C -2.909 0.7937 -0.9749 0
M  V30 4 C -1.9092 -0.3509 -1.2162 0
M  V30 5 C -0.6123 -0.1922 -0.4088 0
M  V30 6 C 0.4231 -1.2488 -0.8222 0
M  V30 7 C 1.6785 -1.2275 0.0642 0
M  V30 8 C 2.5492 0.0153 -0.1722 0
M  V30 9 C 3.8557 -0.0683 0.6283 0
M  V30 10 N 4.679 1.121 0.4119 0 CHG=1
M  V30 11 H -3.4317 -1.0781 1.0701 0
M  V30 12 H -4.6008 -0.1078 1.8192 0
M  V30 13 H -4.8307 -0.5941 0.2066 0
M  V30 14 H -4.1267 1.7661 0.5223 0
M  V30 15 H -2.5842 1.1369 1.1662 0
M  V30 16 H -3.7791 0.6511 -1.6522 0
M  V30 17 H -2.4321 1.7569 -1.2592 0
M  V30 18 H -2.3833 -1.3292 -0.9885 0
M  V30 19 H -1.6584 -0.3549 -2.2998 0
M  V30 20 H -0.1997 0.8239 -0.5844 0
M  V30 21 H -0.8328 -0.3086 0.6735 0
M  V30 22 H 0.7115 -1.1013 -1.886 0
M  V30 23 H -0.0395 -2.2566 -0.7356 0
M  V30 24 H 2.2773 -2.1349 -0.1698 0
M  V30 25 H 1.3845 -1.2857 1.1353 0
M  V30 26 H 1.9965 0.9261 0.1418 0
M  V30 27 H 2.7892 0.1005 -1.2546 0
M  V30 28 H 4.4269 -0.9711 0.3167 0
M  V30 29 H 3.6225 -0.1612 1.7125 0
M  V30 30 H 5.5602 1.0326 0.9675 0
M  V30 31 H 4.9247 1.2085 -0.6009 0
M  V30 32 H 4.165 1.9759 0.7268 0
M  V30 END ATOM
M  V30 BEGIN BOND
M  V30 1 1 1 2
M  V30 2 1 2 3
M  V30 3 1 3 4
M  V30 4 1 4 5
M  V30 5 1 5 6
M  V30 6 1 6 7
M  V30 7 1 7 8
M  V30 8 1 8 9
M  V30 9 1 9 10
M  V30 10 1 1 11
M  V30 11 1 1 12
M  V30 12 1 1 13
M  V30 13 1 2 14
M  V30 14 1 2 15
M  V30 15 1 3 16
M  V30 16 1 3 17
M  V30 17 1 4 18
M  V30 18 1 4 19
M  V30 19 1 5 20
M  V30 20 1 5 21
M  V30 21 1 6 22
M  V30 22 1 6 23
M  V30 23 1 7 24
M  V30 24 1 7 25
M  V30 25 1 8 26
M  V30 26 1 8 27
M  V30 27 1 9 28
M  V30 28 1 9 29
M  V30 29 1 10 30
M  V30 30 1 10 31
M  V30 31 1 10 32
M  V30 END BOND
M  V30 END CTAB
M  END
>  <Structure No>
1838

>  <LogS>
0.362142177

>  <MMFF94 Energy>
30.672

$$$$
Compound 1839
Actelion Java MolfileCreator 2.0

  0  0  0  0  0  0              0 V3000
M  V30 BEGIN CTAB
M  V30 COUNTS 44 45 0 0 0
M  V30 BEGIN ATOM
M  V30 1 O 1.5844 -0.8712 -1.0296 0
M  V30 2 C 1.4283 -0.5541 0.1805 0
M  V30 3 N 2.536 -0.065 0.9599 0
M  V30 4 C 0.0476 -0.6256 0.7944 0 CFG=2
M  V30 5 C 3.923 0.0672 0.4715 0
M  V30 6 N -0.6736 -1.8612 0.3862 0 CHG=1
M  V30 7 C -0.7326 0.673 0.4699 0
M  V30 8 C 4.8079 0.6078 1.6137 0
M  V30 9 C 3.9816 1.0621 -0.7041 0
M  V30 10 C 4.4697 -1.3073 0.0391 0
M  V30 11 C -1.5855 -1.6468 -0.7477 0
M  V30 12 C -2.2498 0.4546 0.5912 0 CFG=2
M  V30 13 C -2.7365 -0.6921 -0.3531 0 CFG=1
M  V30 14 C -3.0068 1.785 0.3647 0
M  V30 15 C -3.4416 -0.1469 -1.6096 0
M  V30 16 C -4.4837 1.5288 0.0523 0
M  V30 17 C -4.664 0.7189 -1.2478 0
M  V30 18 H 2.3279 0.2198 1.9447 0
M  V30 19 H 0.1736 -0.6619 1.9009 0
M  V30 20 H -1.2341 -2.2154 1.1977 0
M  V30 21 H 0.0018 -2.6226 0.1395 0
M  V30 22 H -0.4081 1.4785 1.1656 0
M  V30 23 H -0.5025 1.0122 -0.5657 0
M  V30 24 H 5.8631 0.7192 1.2818 0
M  V30 25 H 4.7861 -0.0848 2.4828 0
M  V30 26 H 4.4414 1.6013 1.952 0
M  V30 27 H 5.0351 1.2516 -1.0038 0
M  V30 28 H 3.4468 0.6744 -1.5945 0
M  V30 29 H 3.5187 2.0294 -0.4122 0
M  V30 30 H 5.5456 -1.2331 -0.23 0
M  V30 31 H 4.3631 -2.041 0.867 0
M  V30 32 H 3.9305 -1.7003 -0.8466 0
M  V30 33 H -1.017 -1.2404 -1.6142 0
M  V30 34 H -2.0155 -2.6219 -1.0684 0
M  V30 35 H -2.4541 0.1357 1.6392 0
M  V30 36 H -3.4859 -1.2953 0.2092 0
M  V30 37 H -2.9272 2.417 1.276 0
M  V30 38 H -2.5575 2.3548 -0.4792 0
M  V30 39 H -3.7726 -0.9891 -2.2559 0
M  V30 40 H -2.7221 0.4652 -2.1976 0
M  V30 41 H -4.9396 0.9733 0.9016 0
M  V30 42 H -5.0181 2.4993 -0.0374 0
M  V30 43 H -4.8651 1.4151 -2.0912 0
M  V30 44 H -5.5576 0.0661 -1.14 0
M  V30 END ATOM
M  V30 BEGIN BOND
M  V30 1 2 1 2
M  V30 2 1 2 3
M  V30 3 1 2 4
M  V30 4 1 3 5
M  V30 5 1 4 6
M  V30 6 1 4 7
M  V30 7 1 5 8
M  V30 8 1 5 9
M  V30 9 1 5 10
M  V30 10 1 6 11
M  V30 11 1 7 12
M  V30 12 1 11 13
M  V30 13 1 12 14
M  V30 14 1 13 15
M  V30 15 1 14 16
M  V30 16 1 15 17
M  V30 17 1 12 13
M  V30 18 1 16 17
M  V30 19 1 3 18
M  V30 20 1 4 19
M  V30 21 1 6 20
M  V30 22 1 6 21
M  V30 23 1 7 22
M  V30 24 1 7 23
M  V30 25 1 8 24
M  V30 26 1 8 25
M  V30 27 1 8 26
M  V30 28 1 9 27
M  V30 29 1 9 28
M  V30 30 1 9 29
M  V30 31 1 10 30
M  V30 32 1 10 31
M  V30 33 1 10 32
M  V30 34 1 11 33
M  V30 35 1 11 34
M  V30 36 1 12 35
M  V30 37 1 13 36
M  V30 38 1 14 37
M  V30 39 1 14 38
M  V30 40 1 15 39
M  V30 41 1 15 40
M  V30 42 1 16 41
M  V30 43 1 16 42
M  V30 44 1 17 43
M  V30 45 1 17 44
M  V30 END BOND
M  V30 BEGIN COLLECTION
M  V30 MDLV30/STEABS ATOMS=(3 4 12 13)
M  V30 END COLLECTION
M  V30 END CTAB
M  END
>  <Structure No>
1839

>  <LogS>
-2.161609361

>  <MMFF94 Energy>
36.793

$$$$
Compound 1840
Actelion Java MolfileCreator 2.0

  0  0  0  0  0  0              0 V3000
M  V30 BEGIN CTAB
M  V30 COUNTS 22 21 0 0 0
M  V30 BEGIN ATOM
M  V30 1 O 4.2304 -0.3839 -0.6912 0
M  V30 2 C 3.1421 -0.5752 0.1711 0
M  V30 3 C 1.8601 -0.0328 -0.466 0
M  V30 4 C 0.6494 -0.2615 0.4464 0
M  V30 5 C -0.633 0.2832 -0.1935 0
M  V30 6 C -1.8438 0.0545 0.719 0
M  V30 7 C -3.1258 0.5969 0.0817 0
M  V30 8 O -4.2141 0.4056 0.9442 0
M  V30 9 H 4.475 0.5765 -0.6311 0
M  V30 10 H 3.3315 -0.0741 1.1481 0
M  V30 11 H 3.0304 -1.6644 0.3595 0
M  V30 12 H 1.6946 -0.5445 -1.4396 0
M  V30 13 H 1.9806 1.0564 -0.656 0
M  V30 14 H 0.8206 0.2495 1.4197 0
M  V30 15 H 0.5318 -1.3515 0.6354 0
M  V30 16 H -0.5156 1.3733 -0.3822 0
M  V30 17 H -0.8044 -0.2277 -1.1667 0
M  V30 18 H -1.9644 -1.0346 0.9091 0
M  V30 19 H -1.6783 0.5662 1.6926 0
M  V30 20 H -3.0142 1.6862 -0.1064 0
M  V30 21 H -3.3152 0.0958 -0.8951 0
M  V30 22 H -4.4588 -0.5547 0.8841 0
M  V30 END ATOM
M  V30 BEGIN BOND
M  V30 1 1 1 2
M  V30 2 1 2 3
M  V30 3 1 3 4
M  V30 4 1 4 5
M  V30 5 1 5 6
M  V30 6 1 6 7
M  V30 7 1 7 8
M  V30 8 1 1 9
M  V30 9 1 2 10
M  V30 10 1 2 11
M  V30 11 1 3 12
M  V30 12 1 3 13
M  V30 13 1 4 14
M  V30 14 1 4 15
M  V30 15 1 5 16
M  V30 16 1 5 17
M  V30 17 1 6 18
M  V30 18 1 6 19
M  V30 19 1 7 20
M  V30 20 1 7 21
M  V30 21 1 8 22
M  V30 END BOND
M  V30 END CTAB
M  END
>  <Structure No>
1840

>  <LogS>
1.626440718

>  <MMFF94 Energy>
1.619

$$$$
Compound 1841
Actelion Java MolfileCreator 2.0

  0  0  0  0  0  0              0 V3000
M  V30 BEGIN CTAB
M  V30 COUNTS 27 26 0 0 0
M  V30 BEGIN ATOM
M  V30 1 O 2.0814 1.85 -0.6163 0
M  V30 2 C 2.1478 0.6301 -0.3002 0
M  V30 3 O 0.975 -0.0993 -0.073 0
M  V30 4 C 3.4681 -0.0249 -0.1693 0
M  V30 5 C -0.3234 0.4754 -0.1821 0
M  V30 6 C 3.5583 -1.2951 0.2401 0
M  V30 7 C 4.7214 0.7679 -0.4245 0
M  V30 8 C -1.3794 -0.5944 0.1248 0
M  V30 9 N -2.7586 -0.1335 -0.165 0 CHG=1
M  V30 10 C -3.6845 -1.2798 -0.1355 0
M  V30 11 C -3.2071 0.8871 0.8015 0
M  V30 12 H -0.4063 1.3147 0.54 0
M  V30 13 H -0.4678 0.8622 -1.2144 0
M  V30 14 H 4.5221 -1.7721 0.3687 0
M  V30 15 H 2.6759 -1.8837 0.4574 0
M  V30 16 H 5.5918 0.1053 -0.621 0
M  V30 17 H 4.5883 1.4207 -1.313 0
M  V30 18 H 4.9442 1.4009 0.4598 0
M  V30 19 H -1.1389 -1.4809 -0.5058 0
M  V30 20 H -1.2842 -0.9112 1.1884 0
M  V30 21 H -2.7935 0.2789 -1.1276 0
M  V30 22 H -4.72 -0.9531 -0.3783 0
M  V30 23 H -3.3943 -2.0355 -0.8984 0
M  V30 24 H -3.6878 -1.7653 0.8661 0
M  V30 25 H -4.2705 1.1589 0.6197 0
M  V30 26 H -2.6209 1.8229 0.6875 0
M  V30 27 H -3.1099 0.521 1.8479 0
M  V30 END ATOM
M  V30 BEGIN BOND
M  V30 1 2 1 2
M  V30 2 1 2 3
M  V30 3 1 2 4
M  V30 4 1 3 5
M  V30 5 2 4 6
M  V30 6 1 4 7
M  V30 7 1 5 8
M  V30 8 1 8 9
M  V30 9 1 9 10
M  V30 10 1 9 11
M  V30 11 1 5 12
M  V30 12 1 5 13
M  V30 13 1 6 14
M  V30 14 1 6 15
M  V30 15 1 7 16
M  V30 16 1 7 17
M  V30 17 1 7 18
M  V30 18 1 8 19
M  V30 19 1 8 20
M  V30 20 1 9 21
M  V30 21 1 10 22
M  V30 22 1 10 23
M  V30 23 1 10 24
M  V30 24 1 11 25
M  V30 25 1 11 26
M  V30 26 1 11 27
M  V30 END BOND
M  V30 END CTAB
M  END
>  <Structure No>
1841

>  <LogS>
0.502481549

>  <MMFF94 Energy>
24.819

$$$$
Compound 1842
Actelion Java MolfileCreator 2.0

  0  0  0  0  0  0              0 V3000
M  V30 BEGIN CTAB
M  V30 COUNTS 14 13 0 0 0
M  V30 BEGIN ATOM
M  V30 1 O 0.3246 -2.274 -0.6493 0
M  V30 2 C 0.9864 -1.2136 -0.4934 0
M  V30 3 O 2.0725 -0.9563 -1.3206 0 CHG=-1
M  V30 4 C 0.5815 -0.2042 0.5485 0 CFG=2
M  V30 5 O 0.0205 -0.8496 1.6636 0
M  V30 6 C -0.4165 0.8317 -0.012 0 CFG=1
M  V30 7 O 0.136 1.5052 -1.1143 0
M  V30 8 C -1.7192 0.196 -0.4117 0
M  V30 9 O -1.8806 -0.2559 -1.5765 0
M  V30 10 O -2.7404 0.0644 0.5209 0 CHG=-1
M  V30 11 H 1.4945 0.3482 0.8715 0
M  V30 12 H 0.7675 -1.2919 2.1461 0
M  V30 13 H -0.6402 1.5721 0.7913 0
M  V30 14 H 0.8243 2.1255 -0.757 0
M  V30 END ATOM
M  V30 BEGIN BOND
M  V30 1 2 1 2
M  V30 2 1 2 3
M  V30 3 1 2 4
M  V30 4 1 4 5
M  V30 5 1 4 6
M  V30 6 1 6 7
M  V30 7 1 6 8
M  V30 8 2 8 9
M  V30 9 1 8 10
M  V30 10 1 4 11
M  V30 11 1 5 12
M  V30 12 1 6 13
M  V30 13 1 7 14
M  V30 END BOND
M  V30 BEGIN COLLECTION
M  V30 MDLV30/STEABS ATOMS=(2 4 6)
M  V30 END COLLECTION
M  V30 END CTAB
M  END
>  <Structure No>
1842

>  <LogS>
0.411056357

>  <MMFF94 Energy>
177.24

$$$$
Compound 1843
Actelion Java MolfileCreator 2.0

  0  0  0  0  0  0              0 V3000
M  V30 BEGIN CTAB
M  V30 COUNTS 15 15 0 0 0
M  V30 BEGIN ATOM
M  V30 1 O -2.5129 1.2964 0.3239 0
M  V30 2 C -1.4544 0.627 0.1956 0
M  V30 3 N -0.3245 0.8225 1.0149 0
M  V30 4 C -1.2606 -0.4221 -0.8237 0
M  V30 5 C 0.7364 -0.0836 0.617 0 CFG=1
M  V30 6 C 0.1408 -0.9692 -0.5067 0
M  V30 7 C 1.9294 0.694 0.1413 0
M  V30 8 O 1.7926 1.6238 -0.6976 0
M  V30 9 O 3.1982 0.368 0.603 0 CHG=-1
M  V30 10 H -0.2595 1.5227 1.7875 0
M  V30 11 H -2.0353 -1.2123 -0.7229 0
M  V30 12 H -1.2911 0.027 -1.8396 0
M  V30 13 H 1.0236 -0.7133 1.4874 0
M  V30 14 H 0.056 -2.018 -0.1461 0
M  V30 15 H 0.771 -0.9728 -1.4239 0
M  V30 END ATOM
M  V30 BEGIN BOND
M  V30 1 2 1 2
M  V30 2 1 2 3
M  V30 3 1 2 4
M  V30 4 1 3 5
M  V30 5 1 4 6
M  V30 6 1 5 7
M  V30 7 2 7 8
M  V30 8 1 7 9
M  V30 9 1 5 6
M  V30 10 1 3 10
M  V30 11 1 4 11
M  V30 12 1 4 12
M  V30 13 1 5 13
M  V30 14 1 6 14
M  V30 15 1 6 15
M  V30 END BOND
M  V30 BEGIN COLLECTION
M  V30 MDLV30/STEABS ATOMS=(1 5)
M  V30 END COLLECTION
M  V30 END CTAB
M  END
>  <Structure No>
1843

>  <LogS>
-0.404258917

>  <MMFF94 Energy>
31.324

$$$$
Compound 1844
Actelion Java MolfileCreator 2.0

  0  0  0  0  0  0              0 V3000
M  V30 BEGIN CTAB
M  V30 COUNTS 13 12 0 0 0
M  V30 BEGIN ATOM
M  V30 1 O 2.8249 -0.4576 -0.9155 0
M  V30 2 C 2.0544 -0.306 0.019 0
M  V30 3 C 0.6013 -0.6418 -0.1306 0
M  V30 4 C -0.2491 0.6295 -0.068 0
M  V30 5 C -1.7337 0.3069 -0.212 0
M  V30 6 H 2.4234 0.0921 0.959 0
M  V30 7 H 0.3106 -1.331 0.6911 0
M  V30 8 H 0.431 -1.1608 -1.0999 0
M  V30 9 H -0.0857 1.1432 0.9047 0
M  V30 10 H 0.0501 1.3207 -0.8863 0
M  V30 11 H -1.929 -0.184 -1.1892 0
M  V30 12 H -2.0641 -0.3646 0.6089 0
M  V30 13 H -2.3246 1.2458 -0.1621 0
M  V30 END ATOM
M  V30 BEGIN BOND
M  V30 1 2 1 2
M  V30 2 1 2 3
M  V30 3 1 3 4
M  V30 4 1 4 5
M  V30 5 1 2 6
M  V30 6 1 3 7
M  V30 7 1 3 8
M  V30 8 1 4 9
M  V30 9 1 4 10
M  V30 10 1 5 11
M  V30 11 1 5 12
M  V30 12 1 5 13
M  V30 END BOND
M  V30 END CTAB
M  END
>  <Structure No>
1844

>  <LogS>
-0.159007423

>  <MMFF94 Energy>
-1.5913

$$$$
Compound 1845
Actelion Java MolfileCreator 2.0

  0  0  0  0  0  0              0 V3000
M  V30 BEGIN CTAB
M  V30 COUNTS 13 13 0 0 0
M  V30 BEGIN ATOM
M  V30 1 S -0.3285 1.7258 0.8215 0
M  V30 2 C -1.4149 0.3485 0.3345 0
M  V30 3 C 1.1681 0.8476 0.2715 0
M  V30 4 C -0.6133 -0.6195 -0.5172 0
M  V30 5 C 0.8068 -0.6039 0.0108 0
M  V30 6 H -2.2913 0.7327 -0.2288 0
M  V30 7 H -1.7701 -0.1638 1.2541 0
M  V30 8 H 1.5307 1.3197 -0.6664 0
M  V30 9 H 1.9611 0.9208 1.0452 0
M  V30 10 H -1.0437 -1.6427 -0.4658 0
M  V30 11 H -0.6193 -0.2774 -1.5757 0
M  V30 12 H 0.8547 -1.1767 0.9635 0
M  V30 13 H 1.5065 -1.0614 -0.721 0
M  V30 END ATOM
M  V30 BEGIN BOND
M  V30 1 1 1 2
M  V30 2 1 1 3
M  V30 3 1 2 4
M  V30 4 1 3 5
M  V30 5 1 4 5
M  V30 6 1 2 6
M  V30 7 1 2 7
M  V30 8 1 3 8
M  V30 9 1 3 9
M  V30 10 1 4 10
M  V30 11 1 4 11
M  V30 12 1 5 12
M  V30 13 1 5 13
M  V30 END BOND
M  V30 END CTAB
M  END
>  <Structure No>
1845

>  <LogS>
-1.181917475

>  <MMFF94 Energy>
0.52522

$$$$
Compound 1846
Actelion Java MolfileCreator 2.0

  0  0  0  0  0  0              0 V3000
M  V30 BEGIN CTAB
M  V30 COUNTS 18 18 0 0 0
M  V30 BEGIN ATOM
M  V30 1 O 1.893 0.7884 -1.2617 0
M  V30 2 C 2.1452 0.1805 -0.1863 0
M  V30 3 O 1.1446 -0.0481 0.7673 0
M  V30 4 C 3.5524 -0.1969 0.1297 0
M  V30 5 C -0.2362 0.0182 0.5273 0
M  V30 6 C -1.0845 0.3356 1.5965 0
M  V30 7 C -0.7968 -0.2617 -0.7343 0
M  V30 8 C -2.4684 0.4042 1.4074 0
M  V30 9 C -2.1816 -0.1932 -0.9198 0
M  V30 10 C -3.0165 0.1436 0.1488 0
M  V30 11 H 3.5642 -1.0566 0.832 0
M  V30 12 H 4.0885 -0.4857 -0.7988 0
M  V30 13 H 4.0701 0.665 0.5996 0
M  V30 14 H -0.6681 0.5374 2.5754 0
M  V30 15 H -0.175 -0.5615 -1.5665 0
M  V30 16 H -3.1159 0.6578 2.237 0
M  V30 17 H -2.6084 -0.4103 -1.8906 0
M  V30 18 H -4.088 0.1948 0.0037 0
M  V30 END ATOM
M  V30 BEGIN BOND
M  V30 1 2 1 2
M  V30 2 1 2 3
M  V30 3 1 2 4
M  V30 4 1 3 5
M  V30 5 2 5 6
M  V30 6 1 5 7
M  V30 7 1 6 8
M  V30 8 2 7 9
M  V30 9 2 8 10
M  V30 10 1 9 10
M  V30 11 1 4 11
M  V30 12 1 4 12
M  V30 13 1 4 13
M  V30 14 1 6 14
M  V30 15 1 7 15
M  V30 16 1 8 16
M  V30 17 1 9 17
M  V30 18 1 10 18
M  V30 END BOND
M  V30 END CTAB
M  END
>  <Structure No>
1846

>  <LogS>
-1.373595162

>  <MMFF94 Energy>


$$$$
Compound 1847
Actelion Java MolfileCreator 2.0

  0  0  0  0  0  0              0 V3000
M  V30 BEGIN CTAB
M  V30 COUNTS 8 7 0 0 0
M  V30 BEGIN ATOM
M  V30 1 Cl -1.3446 1.4237 -0.5535 0
M  V30 2 C -0.7034 -0.1329 0.0282 0
M  V30 3 C 0.815 -0.0829 0.0975 0
M  V30 4 H -1.1176 -0.3422 1.0369 0
M  V30 5 H -1.0203 -0.9387 -0.6667 0
M  V30 6 H 1.2043 -1.0571 0.461 0
M  V30 7 H 1.2362 0.1187 -0.9099 0
M  V30 8 H 1.1386 0.7165 0.7973 0
M  V30 END ATOM
M  V30 BEGIN BOND
M  V30 1 1 1 2
M  V30 2 1 2 3
M  V30 3 1 2 4
M  V30 4 1 2 5
M  V30 5 1 3 6
M  V30 6 1 3 7
M  V30 7 1 3 8
M  V30 END BOND
M  V30 END CTAB
M  END
>  <Structure No>
1847

>  <LogS>
-1.050748809

>  <MMFF94 Energy>
-2.1527

$$$$
Compound 1848
Actelion Java MolfileCreator 2.0

  0  0  0  0  0  0              0 V3000
M  V30 BEGIN CTAB
M  V30 COUNTS 10 10 0 0 0
M  V30 BEGIN ATOM
M  V30 1 Cl 2.7817 -1.2163 0.0 0
M  V30 2 C 1.1212 -0.657 0.0019 0
M  V30 3 N 0.1053 -1.559 -0.0151 0
M  V30 4 C 0.8378 0.7094 0.021 0
M  V30 5 C -1.1906 -1.1498 -0.014 0
M  V30 6 C -0.4991 1.1101 0.0218 0
M  V30 7 N -1.4859 0.1764 0.0044 0
M  V30 8 Cl -0.9125 2.8126 0.0454 0
M  V30 9 H 1.6358 1.4411 0.035 0
M  V30 10 H -1.9875 -1.8804 -0.0278 0
M  V30 END ATOM
M  V30 BEGIN BOND
M  V30 1 1 1 2
M  V30 2 2 2 3
M  V30 3 1 2 4
M  V30 4 1 3 5
M  V30 5 2 4 6
M  V30 6 2 5 7
M  V30 7 1 6 8
M  V30 8 1 6 7
M  V30 9 1 4 9
M  V30 10 1 5 10
M  V30 END BOND
M  V30 END CTAB
M  END
>  <Structure No>
1848

>  <LogS>
-1.417253114

>  <MMFF94 Energy>
-55.74

$$$$
Compound 1849
Actelion Java MolfileCreator 2.0

  0  0  0  0  0  0              0 V3000
M  V30 BEGIN CTAB
M  V30 COUNTS 83 88 0 0 0
M  V30 BEGIN ATOM
M  V30 1 S -6.9897 -0.252 -3.5325 0
M  V30 2 O -6.8188 -0.2947 -5.0267 0
M  V30 3 O -7.5849 1.0762 -3.1523 0
M  V30 4 O -8.0276 -1.4897 -3.0646 0 CHG=-1
M  V30 5 C -5.4293 -0.4511 -2.7214 0
M  V30 6 C -5.3282 -0.251 -1.2584 0
M  V30 7 C -4.3435 -0.7847 -3.4328 0
M  V30 8 N -6.4277 -0.1206 -0.5701 0
M  V30 9 C -3.9727 -0.1646 -0.6605 0
M  V30 10 C -3.0127 -0.96 -2.8056 0
M  V30 11 N -6.5124 -4.0E-4 0.8282 0
M  V30 12 O -3.7938 0.4676 0.4153 0
M  V30 13 C -2.8146 -0.6948 -1.4318 0
M  V30 14 C -1.945 -1.3832 -3.6003 0
M  V30 15 C -7.782 0.2915 1.4323 0
M  V30 16 C -1.5272 -0.8976 -0.8606 0
M  V30 17 C -0.6701 -1.5492 -3.0558 0
M  V30 18 C -8.592 1.372 0.9987 0
M  V30 19 C -8.2438 -0.5477 2.4506 0
M  V30 20 N -1.3244 -0.8106 0.5591 0
M  V30 21 C -0.4501 -1.2826 -1.6935 0
M  V30 22 S 0.662 -2.0637 -4.0967 0
M  V30 23 C -9.8982 1.5424 1.5493 0
M  V30 24 C -8.1211 2.3057 0.0507 0
M  V30 25 C -9.5097 -0.3722 3.0013 0
M  V30 26 N 0.8701 -1.4398 -1.1661 0
M  V30 27 O 1.6597 -0.9465 -4.2202 0
M  V30 28 O 0.1583 -2.4247 -5.4671 0
M  V30 29 O 1.4075 -3.4097 -3.4229 0 CHG=-1
M  V30 30 C -10.3557 0.6511 2.5552 0
M  V30 31 C -10.7007 2.6067 1.0823 0
M  V30 32 C -8.9392 3.344 -0.3964 0
M  V30 33 N 1.5309 -0.4337 -0.7517 0
M  V30 34 S -11.9643 0.7933 3.2924 0
M  V30 35 C -10.2257 3.4884 0.1123 0
M  V30 36 C 2.8709 -0.5634 -0.2637 0
M  V30 37 O -12.0852 2.121 3.9869 0
M  V30 38 O -12.1813 -0.3002 4.3 0
M  V30 39 O -13.148 0.6661 2.1049 0 CHG=-1
M  V30 40 C 3.4254 -1.82 0.0475 0
M  V30 41 C 3.6619 0.5853 -0.1482 0
M  V30 42 C 4.7633 -1.918 0.4439 0
M  V30 43 C 5.0038 0.4829 0.2282 0
M  V30 44 C 5.5641 -0.7664 0.5174 0
M  V30 45 N 6.9573 -0.8456 0.83 0 CHG=-1
M  V30 46 N 7.5602 -2.0209 1.2992 0
M  V30 47 C 8.8496 -2.1485 1.4246 0
M  V30 48 C 9.7623 -1.0359 1.0522 0
M  V30 49 C 9.3788 -3.4493 1.9045 0
M  V30 50 O 10.8219 -1.2817 0.4141 0
M  V30 51 N 9.4538 0.3131 1.4401 0
M  V30 52 O 8.5721 -4.3763 2.1895 0
M  V30 53 C 10.8488 -3.7062 2.0615 0
M  V30 54 C 9.892 1.4833 0.7246 0
M  V30 55 C 10.1979 1.4359 -0.6501 0
M  V30 56 C 9.9504 2.7179 1.3945 0
M  V30 57 C 10.5863 2.5961 -1.3272 0
M  V30 58 C 10.3368 3.8756 0.7119 0
M  V30 59 C 10.6594 3.814 -0.6462 0
M  V30 60 H -4.4343 -0.9448 -4.4998 0
M  V30 61 H -5.7816 -0.4451 1.4281 0
M  V30 62 H -2.1055 -1.5744 -4.6536 0
M  V30 63 H -7.6314 -1.371 2.7947 0
M  V30 64 H -2.1006 -1.0031 1.228 0
M  V30 65 H -0.3699 -0.7385 0.9719 0
M  V30 66 H -7.1158 2.2596 -0.3409 0
M  V30 67 H -9.8322 -1.0533 3.7769 0
M  V30 68 H -11.6994 2.7757 1.4562 0
M  V30 69 H -8.5689 4.0451 -1.1346 0
M  V30 70 H -10.8553 4.2988 -0.2324 0
M  V30 71 H 2.8308 -2.7231 -0.0286 0
M  V30 72 H 3.2451 1.5565 -0.3837 0
M  V30 73 H 5.1781 -2.8929 0.6634 0
M  V30 74 H 5.6136 1.3764 0.2782 0
M  V30 75 H 8.8857 0.4475 2.3084 0
M  V30 76 H 11.3198 -3.8141 1.0585 0
M  V30 77 H 11.3288 -2.8718 2.6175 0
M  V30 78 H 11.0196 -4.6443 2.6328 0
M  V30 79 H 10.1151 0.5126 -1.2073 0
M  V30 80 H 9.7002 2.7828 2.4476 0
M  V30 81 H 10.8214 2.5531 -2.3836 0
M  V30 82 H 10.3814 4.8212 1.2359 0
M  V30 83 H 10.959 4.7111 -1.1724 0
M  V30 END ATOM
M  V30 BEGIN BOND
M  V30 1 2 1 2
M  V30 2 2 1 3
M  V30 3 1 1 4
M  V30 4 1 1 5
M  V30 5 1 5 6
M  V30 6 2 5 7
M  V30 7 2 6 8
M  V30 8 1 6 9
M  V30 9 1 7 10
M  V30 10 1 8 11
M  V30 11 2 9 12
M  V30 12 1 9 13
M  V30 13 1 10 14
M  V30 14 1 11 15
M  V30 15 1 13 16
M  V30 16 2 14 17
M  V30 17 1 15 18
M  V30 18 2 15 19
M  V30 19 1 16 20
M  V30 20 2 16 21
M  V30 21 1 17 22
M  V30 22 1 18 23
M  V30 23 2 18 24
M  V30 24 1 19 25
M  V30 25 1 21 26
M  V30 26 2 22 27
M  V30 27 2 22 28
M  V30 28 1 22 29
M  V30 29 1 23 30
M  V30 30 2 23 31
M  V30 31 1 24 32
M  V30 32 2 26 33
M  V30 33 1 30 34
M  V30 34 1 31 35
M  V30 35 1 33 36
M  V30 36 2 34 37
M  V30 37 2 34 38
M  V30 38 1 34 39
M  V30 39 2 36 40
M  V30 40 1 36 41
M  V30 41 1 40 42
M  V30 42 2 41 43
M  V30 43 2 42 44
M  V30 44 1 44 45
M  V30 45 1 45 46
M  V30 46 2 46 47
M  V30 47 1 47 48
M  V30 48 1 47 49
M  V30 49 2 48 50
M  V30 50 1 48 51
M  V30 51 2 49 52
M  V30 52 1 49 53
M  V30 53 1 51 54
M  V30 54 2 54 55
M  V30 55 1 54 56
M  V30 56 1 55 57
M  V30 57 2 56 58
M  V30 58 2 57 59
M  V30 59 2 10 13
M  V30 60 1 17 21
M  V30 61 2 25 30
M  V30 62 2 32 35
M  V30 63 1 43 44
M  V30 64 1 58 59
M  V30 65 1 7 60
M  V30 66 1 11 61
M  V30 67 1 14 62
M  V30 68 1 19 63
M  V30 69 1 20 64
M  V30 70 1 20 65
M  V30 71 1 24 66
M  V30 72 1 25 67
M  V30 73 1 31 68
M  V30 74 1 32 69
M  V30 75 1 35 70
M  V30 76 1 40 71
M  V30 77 1 41 72
M  V30 78 1 42 73
M  V30 79 1 43 74
M  V30 80 1 51 75
M  V30 81 1 53 76
M  V30 82 1 53 77
M  V30 83 1 53 78
M  V30 84 1 55 79
M  V30 85 1 56 80
M  V30 86 1 57 81
M  V30 87 1 58 82
M  V30 88 1 59 83
M  V30 END BOND
M  V30 END CTAB
M  END
>  <Structure No>
1849

>  <LogS>
-2.218028318

>  <MMFF94 Energy>
407.59

$$$$
Compound 1850
Actelion Java MolfileCreator 2.0

  0  0  0  0  0  0              0 V3000
M  V30 BEGIN CTAB
M  V30 COUNTS 20 20 0 0 0
M  V30 BEGIN ATOM
M  V30 1 N -2.255 1.5548 -0.3885 0
M  V30 2 C -0.9804 0.9324 -0.1752 0
M  V30 3 C -0.8273 -0.474 -0.2097 0
M  V30 4 C 0.1369 1.7416 0.0783 0
M  V30 5 C 0.4442 -1.0344 0.0057 0
M  V30 6 C -1.9993 -1.3821 -0.4678 0
M  V30 7 C 1.3938 1.1735 0.2905 0
M  V30 8 C 1.5582 -0.2158 0.2398 0
M  V30 9 C 2.9019 -0.8273 0.5068 0
M  V30 10 H -3.1191 1.0027 -0.5798 0
M  V30 11 H -2.3483 2.5945 -0.3569 0
M  V30 12 H 0.0321 2.8188 0.1151 0
M  V30 13 H 0.5705 -2.1106 -0.0089 0
M  V30 14 H -2.7691 -1.235 0.3185 0
M  V30 15 H -2.4366 -1.1575 -1.4633 0
M  V30 16 H -1.7005 -2.452 -0.4588 0
M  V30 17 H 2.2395 1.8189 0.4936 0
M  V30 18 H 3.0041 -1.034 1.5925 0
M  V30 19 H 3.716 -0.1407 0.1907 0
M  V30 20 H 3.018 -1.7779 -0.0558 0
M  V30 END ATOM
M  V30 BEGIN BOND
M  V30 1 1 1 2
M  V30 2 2 2 3
M  V30 3 1 2 4
M  V30 4 1 3 5
M  V30 5 1 3 6
M  V30 6 2 4 7
M  V30 7 2 5 8
M  V30 8 1 8 9
M  V30 9 1 7 8
M  V30 10 1 1 10
M  V30 11 1 1 11
M  V30 12 1 4 12
M  V30 13 1 5 13
M  V30 14 1 6 14
M  V30 15 1 6 15
M  V30 16 1 6 16
M  V30 17 1 7 17
M  V30 18 1 9 18
M  V30 19 1 9 19
M  V30 20 1 9 20
M  V30 END BOND
M  V30 END CTAB
M  END
>  <Structure No>
1850

>  <LogS>
-1.335253673

>  <MMFF94 Energy>
14.885

$$$$
Compound 1851
Actelion Java MolfileCreator 2.0

  0  0  0  0  0  0              0 V3000
M  V30 BEGIN CTAB
M  V30 COUNTS 14 14 0 0 0
M  V30 BEGIN ATOM
M  V30 1 Cl 1.368 2.5764 0.3217 0
M  V30 2 C 0.341 1.1554 0.1754 0
M  V30 3 C 0.8718 -0.1189 -0.1179 0
M  V30 4 C -1.0393 1.3096 0.3582 0
M  V30 5 N 2.2783 -0.3142 -0.3111 0
M  V30 6 C 0.0038 -1.2176 -0.2228 0
M  V30 7 C -1.8926 0.2089 0.2513 0
M  V30 8 C -1.3717 -1.0534 -0.0387 0
M  V30 9 H -1.4527 2.2846 0.5837 0
M  V30 10 H 2.6566 -1.2632 -0.5277 0
M  V30 11 H 2.9597 0.4728 -0.2426 0
M  V30 12 H 0.3941 -2.2022 -0.4473 0
M  V30 13 H -2.9583 0.3345 0.3936 0
M  V30 14 H -2.034 -1.9054 -0.1213 0
M  V30 END ATOM
M  V30 BEGIN BOND
M  V30 1 1 1 2
M  V30 2 2 2 3
M  V30 3 1 2 4
M  V30 4 1 3 5
M  V30 5 1 3 6
M  V30 6 2 4 7
M  V30 7 2 6 8
M  V30 8 1 7 8
M  V30 9 1 4 9
M  V30 10 1 5 10
M  V30 11 1 5 11
M  V30 12 1 6 12
M  V30 13 1 7 13
M  V30 14 1 8 14
M  V30 END BOND
M  V30 END CTAB
M  END
>  <Structure No>
1851

>  <LogS>
-1.357574146

>  <MMFF94 Energy>
31.661

$$$$
Compound 1852
Actelion Java MolfileCreator 2.0

  0  0  0  0  0  0              0 V3000
M  V30 BEGIN CTAB
M  V30 COUNTS 64 68 0 0 0
M  V30 BEGIN ATOM
M  V30 1 S 6.411 -0.9022 -1.8051 0
M  V30 2 O 6.6787 0.5326 -1.4487 0
M  V30 3 O 5.4324 -0.9683 -2.9437 0
M  V30 4 O 7.8491 -1.6198 -2.2964 0 CHG=-1
M  V30 5 C 5.7511 -1.7494 -0.4013 0
M  V30 6 C 4.4344 -1.5077 0.0606 0
M  V30 7 C 6.5481 -2.7041 0.25 0
M  V30 8 N 3.6026 -0.5061 -0.5558 0
M  V30 9 C 3.9522 -2.2334 1.1664 0
M  V30 10 C 6.0517 -3.4169 1.3428 0
M  V30 11 C 2.1702 -0.6102 -0.6223 0
M  V30 12 C 4.7556 -3.183 1.7991 0
M  V30 13 C 1.3319 0.4955 -0.3265 0
M  V30 14 C 1.6042 -1.8095 -1.067 0
M  V30 15 C 1.8813 1.771 0.2146 0
M  V30 16 C -0.07 0.3798 -0.5136 0
M  V30 17 C 0.2332 -1.9208 -1.2578 0
M  V30 18 O 3.0542 1.8221 0.6756 0
M  V30 19 C 1.0365 2.9847 0.2551 0
M  V30 20 C -0.9437 1.5291 -0.1386 0
M  V30 21 C -0.6144 -0.8351 -1.007 0
M  V30 22 C -0.3562 2.8773 0.0674 0
M  V30 23 C 1.6133 4.2416 0.4976 0
M  V30 24 O -2.1734 1.347 0.0721 0
M  V30 25 N -2.0139 -0.9495 -1.3206 0
M  V30 26 C -1.1633 4.0414 0.1074 0
M  V30 27 C 0.8192 5.3845 0.5411 0
M  V30 28 C -2.8345 -2.0947 -0.9018 0
M  V30 29 O -2.5487 3.9244 -0.111 0
M  V30 30 C -0.5569 5.2908 0.3448 0
M  V30 31 C -2.8369 -2.226 0.6324 0
M  V30 32 C -4.2835 -1.9537 -1.435 0
M  V30 33 C -3.5129 4.9684 0.0289 0
M  V30 34 C -3.6024 -3.4824 1.0994 0
M  V30 35 C -5.3226 -2.7565 -0.6228 0
M  V30 36 C -3.7797 5.2644 1.5009 0
M  V30 37 C -4.6907 -3.9433 0.1104 0
M  V30 38 H 7.557 -2.9019 -0.0865 0
M  V30 39 H 4.0484 0.318 -1.0151 0
M  V30 40 H 2.9569 -2.0521 1.5516 0
M  V30 41 H 6.6742 -4.1512 1.8375 0
M  V30 42 H 4.3745 -3.7332 2.6499 0
M  V30 43 H 2.2382 -2.653 -1.3106 0
M  V30 44 H -0.1588 -2.8484 -1.6511 0
M  V30 45 H 2.681 4.3425 0.6463 0
M  V30 46 H -2.4522 -0.1729 -1.8665 0
M  V30 47 H 1.2736 6.3502 0.723 0
M  V30 48 H -2.4038 -3.0239 -1.3339 0
M  V30 49 H -1.1361 6.2019 0.3753 0
M  V30 50 H -1.7957 -2.2784 1.0172 0
M  V30 51 H -3.31 -1.3195 1.0718 0
M  V30 52 H -4.3039 -2.2908 -2.4942 0
M  V30 53 H -4.5972 -0.8868 -1.4233 0
M  V30 54 H -4.4621 4.6276 -0.4351 0
M  V30 55 H -3.1918 5.883 -0.5123 0
M  V30 56 H -2.884 -4.3184 1.2476 0
M  V30 57 H -4.0682 -3.2691 2.0867 0
M  V30 58 H -5.8014 -2.089 0.1279 0
M  V30 59 H -6.1228 -3.1227 -1.3018 0
M  V30 60 H -4.1267 4.3426 2.014 0
M  V30 61 H -2.8608 5.6314 2.0019 0
M  V30 62 H -4.5672 6.0422 1.5881 0
M  V30 63 H -5.4775 -4.5038 0.6599 0
M  V30 64 H -4.2461 -4.6358 -0.6379 0
M  V30 END ATOM
M  V30 BEGIN BOND
M  V30 1 2 1 2
M  V30 2 2 1 3
M  V30 3 1 1 4
M  V30 4 1 1 5
M  V30 5 2 5 6
M  V30 6 1 5 7
M  V30 7 1 6 8
M  V30 8 1 6 9
M  V30 9 2 7 10
M  V30 10 1 8 11
M  V30 11 2 9 12
M  V30 12 2 11 13
M  V30 13 1 11 14
M  V30 14 1 13 15
M  V30 15 1 13 16
M  V30 16 2 14 17
M  V30 17 2 15 18
M  V30 18 1 15 19
M  V30 19 1 16 20
M  V30 20 2 16 21
M  V30 21 2 19 22
M  V30 22 1 19 23
M  V30 23 2 20 24
M  V30 24 1 21 25
M  V30 25 1 22 26
M  V30 26 2 23 27
M  V30 27 1 25 28
M  V30 28 1 26 29
M  V30 29 2 26 30
M  V30 30 1 28 31
M  V30 31 1 28 32
M  V30 32 1 29 33
M  V30 33 1 31 34
M  V30 34 1 32 35
M  V30 35 1 33 36
M  V30 36 1 34 37
M  V30 37 1 10 12
M  V30 38 1 17 21
M  V30 39 1 20 22
M  V30 40 1 27 30
M  V30 41 1 35 37
M  V30 42 1 7 38
M  V30 43 1 8 39
M  V30 44 1 9 40
M  V30 45 1 10 41
M  V30 46 1 12 42
M  V30 47 1 14 43
M  V30 48 1 17 44
M  V30 49 1 23 45
M  V30 50 1 25 46
M  V30 51 1 27 47
M  V30 52 1 28 48
M  V30 53 1 30 49
M  V30 54 1 31 50
M  V30 55 1 31 51
M  V30 56 1 32 52
M  V30 57 1 32 53
M  V30 58 1 33 54
M  V30 59 1 33 55
M  V30 60 1 34 56
M  V30 61 1 34 57
M  V30 62 1 35 58
M  V30 63 1 35 59
M  V30 64 1 36 60
M  V30 65 1 36 61
M  V30 66 1 36 62
M  V30 67 1 37 63
M  V30 68 1 37 64
M  V30 END BOND
M  V30 END CTAB
M  END
>  <Structure No>
1852

>  <LogS>
-1.987836786

>  <MMFF94 Energy>
144.36

$$$$
Compound 1853
Actelion Java MolfileCreator 2.0

  0  0  0  0  0  0              0 V3000
M  V30 BEGIN CTAB
M  V30 COUNTS 26 25 0 0 0
M  V30 BEGIN ATOM
M  V30 1 N 3.1812 0.1513 -0.9838 0 CHG=1
M  V30 2 C 1.9561 -0.4774 -0.4821 0
M  V30 3 C 0.9759 0.5536 0.136 0 CFG=1
M  V30 4 C -0.3737 -0.1104 0.5086 0
M  V30 5 C 1.5896 1.2138 1.3828 0
M  V30 6 C -1.2823 -0.3372 -0.7139 0
M  V30 7 C -2.5878 -1.0664 -0.3516 0
M  V30 8 N -3.4862 -0.2319 0.4494 0 CHG=1
M  V30 9 H 3.709 -0.5438 -1.5596 0
M  V30 10 H 3.7934 0.4442 -0.1892 0
M  V30 11 H 2.9511 0.9761 -1.5841 0
M  V30 12 H 2.22 -1.2505 0.2741 0
M  V30 13 H 1.4663 -1.0023 -1.3285 0
M  V30 14 H 0.7806 1.3593 -0.6066 0
M  V30 15 H -0.1883 -1.0759 1.0293 0
M  V30 16 H -0.918 0.5505 1.2165 0
M  V30 17 H 0.8682 1.9238 1.8409 0
M  V30 18 H 1.8637 0.4461 2.1381 0
M  V30 19 H 2.4916 1.8013 1.1146 0
M  V30 20 H -1.5201 0.6377 -1.1928 0
M  V30 21 H -0.7549 -0.9581 -1.4661 0
M  V30 22 H -2.3588 -2.0075 0.196 0
M  V30 23 H -3.1042 -1.3479 -1.2963 0
M  V30 24 H -3.1046 -0.107 1.4141 0
M  V30 25 H -3.6237 0.6998 -0.0054 0
M  V30 26 H -4.4143 -0.7079 0.5242 0
M  V30 END ATOM
M  V30 BEGIN BOND
M  V30 1 1 1 2
M  V30 2 1 2 3
M  V30 3 1 3 4
M  V30 4 1 3 5
M  V30 5 1 4 6
M  V30 6 1 6 7
M  V30 7 1 7 8
M  V30 8 1 1 9
M  V30 9 1 1 10
M  V30 10 1 1 11
M  V30 11 1 2 12
M  V30 12 1 2 13
M  V30 13 1 3 14
M  V30 14 1 4 15
M  V30 15 1 4 16
M  V30 16 1 5 17
M  V30 17 1 5 18
M  V30 18 1 5 19
M  V30 19 1 6 20
M  V30 20 1 6 21
M  V30 21 1 7 22
M  V30 22 1 7 23
M  V30 23 1 8 24
M  V30 24 1 8 25
M  V30 25 1 8 26
M  V30 END BOND
M  V30 BEGIN COLLECTION
M  V30 MDLV30/STEABS ATOMS=(1 3)
M  V30 END COLLECTION
M  V30 END CTAB
M  END
>  <Structure No>
1853

>  <LogS>
-1.327248701

>  <MMFF94 Energy>
57.956

$$$$
Compound 1854
Actelion Java MolfileCreator 2.0

  0  0  0  0  0  0              0 V3000
M  V30 BEGIN CTAB
M  V30 COUNTS 20 20 0 0 0
M  V30 BEGIN ATOM
M  V30 1 O -0.9386 -2.1128 -0.391 0
M  V30 2 C -0.5807 -0.9227 -0.1602 0
M  V30 3 N 0.7568 -0.5955 -0.1617 0
M  V30 4 N -1.536 0.0312 0.0937 0
M  V30 5 C 1.1456 0.6928 0.1187 0
M  V30 6 C 1.7758 -1.6197 -0.456 0
M  V30 7 C -1.1584 1.3092 0.4026 0
M  V30 8 C -2.962 -0.3406 0.1133 0
M  V30 9 N 2.5296 1.0809 0.1322 0
M  V30 10 C 0.1846 1.6586 0.4098 0
M  V30 11 O -2.0181 2.1881 0.6874 0
M  V30 12 H 2.4509 -1.7422 0.4175 0
M  V30 13 H 2.3656 -1.3198 -1.3484 0
M  V30 14 H 1.3395 -2.6157 -0.6757 0
M  V30 15 H -3.2346 -0.7174 1.1215 0
M  V30 16 H -3.6118 0.5243 -0.1395 0
M  V30 17 H -3.1818 -1.1252 -0.6419 0
M  V30 18 H 2.799 2.0666 0.3493 0
M  V30 19 H 3.3071 0.4155 -0.0665 0
M  V30 20 H 0.4798 2.6746 0.6457 0
M  V30 END ATOM
M  V30 BEGIN BOND
M  V30 1 2 1 2
M  V30 2 1 2 3
M  V30 3 1 2 4
M  V30 4 1 3 5
M  V30 5 1 3 6
M  V30 6 1 4 7
M  V30 7 1 4 8
M  V30 8 1 5 9
M  V30 9 2 5 10
M  V30 10 2 7 11
M  V30 11 1 7 10
M  V30 12 1 6 12
M  V30 13 1 6 13
M  V30 14 1 6 14
M  V30 15 1 8 15
M  V30 16 1 8 16
M  V30 17 1 8 17
M  V30 18 1 9 18
M  V30 19 1 9 19
M  V30 20 1 10 20
M  V30 END BOND
M  V30 END CTAB
M  END
>  <Structure No>
1854

>  <LogS>
-1.453578731

>  <MMFF94 Energy>
-109.6

$$$$
Compound 1855
Actelion Java MolfileCreator 2.0

  0  0  0  0  0  0              0 V3000
M  V30 BEGIN CTAB
M  V30 COUNTS 28 28 0 0 0
M  V30 BEGIN ATOM
M  V30 1 O -3.5545 -0.3944 2.3686 0
M  V30 2 C -3.0397 -0.3386 1.2214 0
M  V30 3 O -1.6504 -0.2278 1.0989 0
M  V30 4 C -3.9299 -0.2687 0.0129 0
M  V30 5 C -0.9565 -0.4481 -0.132 0 CFG=1
M  V30 6 C -3.1819 -0.6582 -1.2654 0
M  V30 7 C -1.808 0.0136 -1.3257 0
M  V30 8 C 0.3927 0.2852 -0.108 0
M  V30 9 C 1.3135 -0.2609 0.9921 0
M  V30 10 C 2.6253 0.4743 1.0179 0
M  V30 11 C 3.5417 0.31 0.0536 0
M  V30 12 C 4.8492 1.0376 0.1018 0
M  V30 13 H -4.8031 -0.9428 0.1481 0
M  V30 14 H -4.3064 0.7722 -0.0856 0
M  V30 15 H -0.7698 -1.5399 -0.2412 0
M  V30 16 H -3.7824 -0.3528 -2.1493 0
M  V30 17 H -3.0592 -1.7632 -1.3032 0
M  V30 18 H -1.3061 -0.267 -2.2772 0
M  V30 19 H -1.9328 1.1191 -1.3065 0
M  V30 20 H 0.8901 0.1612 -1.0951 0
M  V30 21 H 0.2194 1.3713 0.0605 0
M  V30 22 H 0.8223 -0.1347 1.9811 0
M  V30 23 H 1.4989 -1.3461 0.8361 0
M  V30 24 H 2.8378 1.1299 1.8584 0
M  V30 25 H 3.3445 -0.3602 -0.7783 0
M  V30 26 H 5.4623 0.7651 -0.7824 0
M  V30 27 H 5.4038 0.76 1.0229 0
M  V30 28 H 4.673 2.134 0.0924 0
M  V30 END ATOM
M  V30 BEGIN BOND
M  V30 1 2 1 2
M  V30 2 1 2 3
M  V30 3 1 2 4
M  V30 4 1 3 5
M  V30 5 1 4 6
M  V30 6 1 5 7
M  V30 7 1 5 8
M  V30 8 1 8 9
M  V30 9 1 9 10
M  V30 10 2 10 11
M  V30 11 1 11 12
M  V30 12 1 6 7
M  V30 13 1 4 13
M  V30 14 1 4 14
M  V30 15 1 5 15
M  V30 16 1 6 16
M  V30 17 1 6 17
M  V30 18 1 7 18
M  V30 19 1 7 19
M  V30 20 1 8 20
M  V30 21 1 8 21
M  V30 22 1 9 22
M  V30 23 1 9 23
M  V30 24 1 10 24
M  V30 25 1 11 25
M  V30 26 1 12 26
M  V30 27 1 12 27
M  V30 28 1 12 28
M  V30 END BOND
M  V30 BEGIN COLLECTION
M  V30 MDLV30/STEABS ATOMS=(1 5)
M  V30 END COLLECTION
M  V30 END CTAB
M  END
>  <Structure No>
1855

>  <LogS>
-1.488726291

>  <MMFF94 Energy>
8.0964

$$$$
Compound 1856
Actelion Java MolfileCreator 2.0

  0  0  0  0  0  0              0 V3000
M  V30 BEGIN CTAB
M  V30 COUNTS 30 30 0 0 0
M  V30 BEGIN ATOM
M  V30 1 O 1.7359 -2.2098 1.657 0
M  V30 2 C 1.4177 -1.372 0.7675 0
M  V30 3 O 2.3826 -0.5091 0.2403 0
M  V30 4 C 0.0248 -1.2887 0.2761 0
M  V30 5 C 3.7409 -0.5159 0.67 0
M  V30 6 O -0.3026 -0.3492 -0.7022 0
M  V30 7 C -0.9246 -2.1161 0.7407 0
M  V30 8 C 4.5369 0.5421 -0.093 0
M  V30 9 O -2.2575 -2.0509 0.3101 0
M  V30 10 C 4.0434 1.9543 0.2142 0
M  V30 11 C -3.0265 -0.8791 0.232 0
M  V30 12 C -4.1468 -0.866 -0.6085 0
M  V30 13 C -2.7275 0.2643 0.998 0
M  V30 14 C -4.945 0.278 -0.7062 0
M  V30 15 C -3.5276 1.4069 0.8981 0
M  V30 16 C -4.6339 1.4149 0.0444 0
M  V30 17 H 4.1855 -1.515 0.4708 0
M  V30 18 H 3.7938 -0.3144 1.7626 0
M  V30 19 H 0.3824 0.2933 -1.0805 0
M  V30 20 H -0.6655 -2.9011 1.4396 0
M  V30 21 H 5.6082 0.4646 0.1922 0
M  V30 22 H 4.4544 0.3519 -1.1851 0
M  V30 23 H 4.6614 2.6917 -0.3398 0
M  V30 24 H 2.9848 2.0734 -0.1006 0
M  V30 25 H 4.129 2.1652 1.3015 0
M  V30 26 H -4.3953 -1.7432 -1.1922 0
M  V30 27 H -1.887 0.2698 1.6795 0
M  V30 28 H -5.8055 0.2828 -1.3628 0
M  V30 29 H -3.2929 2.2846 1.4866 0
M  V30 30 H -5.2529 2.2997 -0.0309 0
M  V30 END ATOM
M  V30 BEGIN BOND
M  V30 1 2 1 2
M  V30 2 1 2 3
M  V30 3 1 2 4
M  V30 4 1 3 5
M  V30 5 1 4 6
M  V30 6 2 4 7
M  V30 7 1 5 8
M  V30 8 1 7 9
M  V30 9 1 8 10
M  V30 10 1 9 11
M  V30 11 2 11 12
M  V30 12 1 11 13
M  V30 13 1 12 14
M  V30 14 2 13 15
M  V30 15 2 14 16
M  V30 16 1 15 16
M  V30 17 1 5 17
M  V30 18 1 5 18
M  V30 19 1 6 19
M  V30 20 1 7 20
M  V30 21 1 8 21
M  V30 22 1 8 22
M  V30 23 1 10 23
M  V30 24 1 10 24
M  V30 25 1 10 25
M  V30 26 1 12 26
M  V30 27 1 13 27
M  V30 28 1 14 28
M  V30 29 1 15 29
M  V30 30 1 16 30
M  V30 END BOND
M  V30 END CTAB
M  END
>  <Structure No>
1856

>  <LogS>
-1.622546359

>  <MMFF94 Energy>
41.736

$$$$
Compound 1857
Actelion Java MolfileCreator 2.0

  0  0  0  0  0  0              0 V3000
M  V30 BEGIN CTAB
M  V30 COUNTS 15 15 0 0 0
M  V30 BEGIN ATOM
M  V30 1 O -0.1554 2.9574 0.0 0
M  V30 2 C -0.0805 1.6998 -0.014 0
M  V30 3 N -1.2156 0.9485 -0.0279 0
M  V30 4 C 1.1682 1.0766 -0.0154 0
M  V30 5 C -1.1494 -0.4124 -0.0431 0
M  V30 6 C 1.2175 -0.3196 -0.031 0
M  V30 7 N 0.0606 -1.0325 -0.0446 0
M  V30 8 N -2.3448 -1.1928 -0.0575 0
M  V30 9 N 2.4718 -1.0014 -0.0331 0
M  V30 10 H -2.1475 1.4226 -0.0266 0
M  V30 11 H 2.0788 1.6639 -0.0043 0
M  V30 12 H -2.2932 -2.2356 -0.0692 0
M  V30 13 H -3.2824 -0.7332 -0.0565 0
M  V30 14 H 3.3716 -0.471 -0.0227 0
M  V30 15 H 2.5029 -2.0451 -0.0448 0
M  V30 END ATOM
M  V30 BEGIN BOND
M  V30 1 2 1 2
M  V30 2 1 2 3
M  V30 3 1 2 4
M  V30 4 1 3 5
M  V30 5 2 4 6
M  V30 6 2 5 7
M  V30 7 1 5 8
M  V30 8 1 6 9
M  V30 9 1 6 7
M  V30 10 1 3 10
M  V30 11 1 4 11
M  V30 12 1 8 12
M  V30 13 1 8 13
M  V30 14 1 9 14
M  V30 15 1 9 15
M  V30 END BOND
M  V30 END CTAB
M  END
>  <Structure No>
1857

>  <LogS>
-1.378146596

>  <MMFF94 Energy>
-169.57

$$$$
Compound 1858
Actelion Java MolfileCreator 2.0

  0  0  0  0  0  0              0 V3000
M  V30 BEGIN CTAB
M  V30 COUNTS 18 18 0 0 0
M  V30 BEGIN ATOM
M  V30 1 Cl 1.6068 2.6523 0.2409 0
M  V30 2 C 0.8598 1.0609 0.0839 0
M  V30 3 C -0.5413 0.9236 0.2036 0
M  V30 4 C 1.6577 -0.0779 -0.161 0
M  V30 5 O -1.3613 2.0298 0.4461 0
M  V30 6 C -1.1359 -0.3458 0.0782 0
M  V30 7 N 3.0825 0.0196 -0.2886 0
M  V30 8 C 1.0495 -1.3336 -0.283 0
M  V30 9 C -0.3327 -1.4678 -0.1648 0
M  V30 10 C -2.626 -0.4997 0.2042 0
M  V30 11 H -1.0061 2.9716 0.5478 0
M  V30 12 H 3.5879 0.9283 -0.2068 0
M  V30 13 H 3.6575 -0.8332 -0.4699 0
M  V30 14 H 1.6508 -2.2143 -0.4709 0
M  V30 15 H -0.7755 -2.4512 -0.2637 0
M  V30 16 H -2.9543 -0.1516 1.2063 0
M  V30 17 H -2.9413 -1.5577 0.0818 0
M  V30 18 H -3.1318 0.1074 -0.5757 0
M  V30 END ATOM
M  V30 BEGIN BOND
M  V30 1 1 1 2
M  V30 2 2 2 3
M  V30 3 1 2 4
M  V30 4 1 3 5
M  V30 5 1 3 6
M  V30 6 1 4 7
M  V30 7 2 4 8
M  V30 8 2 6 9
M  V30 9 1 6 10
M  V30 10 1 8 9
M  V30 11 1 5 11
M  V30 12 1 7 12
M  V30 13 1 7 13
M  V30 14 1 8 14
M  V30 15 1 9 15
M  V30 16 1 10 16
M  V30 17 1 10 17
M  V30 18 1 10 18
M  V30 END BOND
M  V30 END CTAB
M  END
>  <Structure No>
1858

>  <LogS>
-1.48155287

>  <MMFF94 Energy>
46.257

$$$$
Compound 1859
Actelion Java MolfileCreator 2.0

  0  0  0  0  0  0              0 V3000
M  V30 BEGIN CTAB
M  V30 COUNTS 11 11 0 0 0
M  V30 BEGIN ATOM
M  V30 1 O 3.138 0.2474 -0.5775 0
M  V30 2 C 1.9076 0.1423 -0.3371 0
M  V30 3 N 1.1624 1.2559 -0.1124 0 CHG=-1
M  V30 4 N 1.3256 -1.0848 -0.3026 0 CHG=-1
M  V30 5 C -0.1678 1.1673 0.1489 0
M  V30 6 C -0.001 -1.2235 -0.0452 0
M  V30 7 O -0.8337 2.2168 0.3535 0
M  V30 8 C -0.7867 -0.0881 0.189 0 CHG=-1
M  V30 9 O -0.5138 -2.3737 -0.0194 0
M  V30 10 N -2.1407 -0.2039 0.4534 0 CHG=1
M  V30 11 N -3.2363 -0.2976 0.6675 0
M  V30 END ATOM
M  V30 BEGIN BOND
M  V30 1 2 1 2
M  V30 2 1 2 3
M  V30 3 1 2 4
M  V30 4 1 3 5
M  V30 5 1 4 6
M  V30 6 2 5 7
M  V30 7 1 5 8
M  V30 8 2 6 9
M  V30 9 1 8 10
M  V30 10 3 10 11
M  V30 11 1 6 8
M  V30 END BOND
M  V30 END CTAB
M  END
>  <Structure No>
1859

>  <LogS>
-1.471757019

>  <MMFF94 Energy>
-142.32

$$$$
Compound 1860
Actelion Java MolfileCreator 2.0

  0  0  0  0  0  0              0 V3000
M  V30 BEGIN CTAB
M  V30 COUNTS 35 34 0 0 0
M  V30 BEGIN ATOM
M  V30 1 O -4.8626 -1.2531 1.3314 0
M  V30 2 C -4.2413 -0.515 2.1457 0
M  V30 3 O -2.9576 -0.046 1.8444 0
M  V30 4 C -4.85 -0.1376 3.4309 0
M  V30 5 C -2.2902 -0.3076 0.6088 0 CFG=2
M  V30 6 C -6.0634 -0.5464 3.7975 0
M  V30 7 C -0.794 -0.0362 0.7905 0
M  V30 8 C -2.8774 0.574 -0.5 0
M  V30 9 O -0.0988 -0.4023 -0.3833 0
M  V30 10 C 1.2795 -0.1408 -0.219 0
M  V30 11 C 2.028 -0.4978 -1.5064 0 CFG=2
M  V30 12 O 3.4297 -0.3446 -1.2792 0
M  V30 13 C 1.5849 0.4019 -2.6662 0
M  V30 14 C 4.4151 -0.9122 -2.0978 0
M  V30 15 O 4.0946 -1.6502 -3.0681 0
M  V30 16 C 5.8383 -0.6618 -1.8291 0
M  V30 17 C 6.2453 0.1013 -0.8172 0
M  V30 18 H -4.2867 0.4978 4.1032 0
M  V30 19 H -2.4188 -1.379 0.335 0
M  V30 20 H -6.4681 -0.2429 4.7543 0
M  V30 21 H -6.664 -1.1822 3.1592 0
M  V30 22 H -0.4357 -0.6416 1.655 0
M  V30 23 H -0.6488 1.0447 1.0217 0
M  V30 24 H -2.3621 0.3812 -1.4647 0
M  V30 25 H -2.7683 1.648 -0.238 0
M  V30 26 H -3.9561 0.3511 -0.6366 0
M  V30 27 H 1.6927 -0.7651 0.6061 0
M  V30 28 H 1.46 0.9339 0.0162 0
M  V30 29 H 1.8046 -1.5593 -1.7567 0
M  V30 30 H 2.1228 0.1223 -3.5959 0
M  V30 31 H 1.8059 1.4662 -2.435 0
M  V30 32 H 0.4955 0.2897 -2.852 0
M  V30 33 H 6.5805 -1.1133 -2.4763 0
M  V30 34 H 5.5403 0.5724 -0.1435 0
M  V30 35 H 7.3032 0.2608 -0.6538 0
M  V30 END ATOM
M  V30 BEGIN BOND
M  V30 1 2 1 2
M  V30 2 1 2 3
M  V30 3 1 2 4
M  V30 4 1 3 5
M  V30 5 2 4 6
M  V30 6 1 5 7
M  V30 7 1 5 8
M  V30 8 1 7 9
M  V30 9 1 9 10
M  V30 10 1 10 11
M  V30 11 1 11 12
M  V30 12 1 11 13
M  V30 13 1 12 14
M  V30 14 2 14 15
M  V30 15 1 14 16
M  V30 16 2 16 17
M  V30 17 1 4 18
M  V30 18 1 5 19
M  V30 19 1 6 20
M  V30 20 1 6 21
M  V30 21 1 7 22
M  V30 22 1 7 23
M  V30 23 1 8 24
M  V30 24 1 8 25
M  V30 25 1 8 26
M  V30 26 1 10 27
M  V30 27 1 10 28
M  V30 28 1 11 29
M  V30 29 1 13 30
M  V30 30 1 13 31
M  V30 31 1 13 32
M  V30 32 1 16 33
M  V30 33 1 17 34
M  V30 34 1 17 35
M  V30 END BOND
M  V30 BEGIN COLLECTION
M  V30 MDLV30/STEABS ATOMS=(2 5 11)
M  V30 END COLLECTION
M  V30 END CTAB
M  END
>  <Structure No>
1860

>  <LogS>
-1.668298088

>  <MMFF94 Energy>
33.171

$$$$
Compound 1861
Actelion Java MolfileCreator 2.0

  0  0  0  0  0  0              0 V3000
M  V30 BEGIN CTAB
M  V30 COUNTS 13 13 0 0 0
M  V30 BEGIN ATOM
M  V30 1 O 2.7458 1.1299 0.242 0
M  V30 2 C 2.117 0.0532 0.0624 0
M  V30 3 O 2.8339 -1.1242 -0.1167 0 CHG=-1
M  V30 4 C 0.6379 0.0403 0.042 0
M  V30 5 C -0.0939 1.2265 0.2225 0
M  V30 6 C -0.0601 -1.1616 -0.1584 0
M  V30 7 C -1.4904 1.1872 0.199 0
M  V30 8 C -1.4573 -1.1551 -0.1746 0
M  V30 9 N -2.137 0.0081 0.0027 0
M  V30 10 H 0.4059 2.174 0.38 0
M  V30 11 H 0.4657 -2.097 -0.3013 0
M  V30 12 H -2.0608 2.0962 0.3372 0
M  V30 13 H -2.0019 -2.0772 -0.3286 0
M  V30 END ATOM
M  V30 BEGIN BOND
M  V30 1 2 1 2
M  V30 2 1 2 3
M  V30 3 1 2 4
M  V30 4 2 4 5
M  V30 5 1 4 6
M  V30 6 1 5 7
M  V30 7 2 6 8
M  V30 8 2 7 9
M  V30 9 1 8 9
M  V30 10 1 5 10
M  V30 11 1 6 11
M  V30 12 1 7 12
M  V30 13 1 8 13
M  V30 END BOND
M  V30 END CTAB
M  END
>  <Structure No>
1861

>  <LogS>
-1.375967099

>  <MMFF94 Energy>
22.027

$$$$
Compound 1862
Actelion Java MolfileCreator 2.0

  0  0  0  0  0  0              0 V3000
M  V30 BEGIN CTAB
M  V30 COUNTS 16 16 0 0 0
M  V30 BEGIN ATOM
M  V30 1 S -0.6824 -1.3652 -0.8531 0
M  V30 2 C -1.5273 0.0143 0.0013 0 CFG=2
M  V30 3 C 0.8889 -1.2213 0.0637 0
M  V30 4 O -2.8542 0.0792 -0.4444 0
M  V30 5 C -0.8347 1.3415 -0.3113 0
M  V30 6 C 1.5863 0.1106 -0.2363 0 CFG=1
M  V30 7 S 0.7383 1.5007 0.6009 0
M  V30 8 O 2.9257 0.0602 0.1783 0
M  V30 9 H -1.517 -0.1581 1.1023 0
M  V30 10 H 0.7078 -1.3345 1.1543 0
M  V30 11 H 1.5437 -2.0568 -0.2625 0
M  V30 12 H -3.3166 -0.7149 -0.0693 0
M  V30 13 H -1.4902 2.1788 0.0095 0
M  V30 14 H -0.6587 1.4467 -1.4035 0
M  V30 15 H 1.5801 0.2915 -1.3327 0
M  V30 16 H 2.924 -0.049 1.1653 0
M  V30 END ATOM
M  V30 BEGIN BOND
M  V30 1 1 1 2
M  V30 2 1 1 3
M  V30 3 1 2 4
M  V30 4 1 2 5
M  V30 5 1 3 6
M  V30 6 1 5 7
M  V30 7 1 6 8
M  V30 8 1 6 7
M  V30 9 1 2 9
M  V30 10 1 3 10
M  V30 11 1 3 11
M  V30 12 1 4 12
M  V30 13 1 5 13
M  V30 14 1 5 14
M  V30 15 1 6 15
M  V30 16 1 8 16
M  V30 END BOND
M  V30 BEGIN COLLECTION
M  V30 MDLV30/STEABS ATOMS=(2 2 6)
M  V30 END COLLECTION
M  V30 END CTAB
M  END
>  <Structure No>
1862

>  <LogS>
-1.469038232

>  <MMFF94 Energy>
18.723

$$$$
Compound 1863
Actelion Java MolfileCreator 2.0

  0  0  0  0  0  0              0 V3000
M  V30 BEGIN CTAB
M  V30 COUNTS 19 18 0 0 0
M  V30 BEGIN ATOM
M  V30 1 Cl -3.733 -0.8727 -0.714 0
M  V30 2 C -3.0699 0.381 0.3691 0
M  V30 3 C -1.6734 0.8209 -0.0764 0
M  V30 4 C -0.6246 -0.2775 0.1481 0
M  V30 5 C 0.7728 0.2026 -0.2712 0
M  V30 6 C 1.843 -0.8445 -0.0737 0
M  V30 7 O 1.573 -1.9387 0.4001 0
M  V30 8 C 3.261 -0.5471 -0.4552 0
M  V30 9 H -3.7532 1.256 0.3421 0
M  V30 10 H -3.0425 -0.0058 1.4102 0
M  V30 11 H -1.7024 1.1053 -1.1511 0
M  V30 12 H -1.3869 1.7218 0.5093 0
M  V30 13 H -0.6091 -0.5551 1.2254 0
M  V30 14 H -0.8941 -1.1767 -0.4477 0
M  V30 15 H 1.0462 1.1011 0.3235 0
M  V30 16 H 0.7541 0.4886 -1.3454 0
M  V30 17 H 3.3537 0.4807 -0.8659 0
M  V30 18 H 3.9133 -0.6342 0.4387 0
M  V30 19 H 3.599 -1.2713 -1.2257 0
M  V30 END ATOM
M  V30 BEGIN BOND
M  V30 1 1 1 2
M  V30 2 1 2 3
M  V30 3 1 3 4
M  V30 4 1 4 5
M  V30 5 1 5 6
M  V30 6 2 6 7
M  V30 7 1 6 8
M  V30 8 1 2 9
M  V30 9 1 2 10
M  V30 10 1 3 11
M  V30 11 1 3 12
M  V30 12 1 4 13
M  V30 13 1 4 14
M  V30 14 1 5 15
M  V30 15 1 5 16
M  V30 16 1 8 17
M  V30 17 1 8 18
M  V30 18 1 8 19
M  V30 END BOND
M  V30 END CTAB
M  END
>  <Structure No>
1863

>  <LogS>
-1.415573876

>  <MMFF94 Energy>
2.9012

$$$$
Compound 1864
Actelion Java MolfileCreator 2.0

  0  0  0  0  0  0              0 V3000
M  V30 BEGIN CTAB
M  V30 COUNTS 26 27 0 0 0
M  V30 BEGIN ATOM
M  V30 1 S 4.7909 0.2473 0.1649 0
M  V30 2 O 5.2408 -0.7609 1.1844 0
M  V30 3 O 5.2381 1.6126 0.6063 0
M  V30 4 O 5.4812 -0.1141 -1.3225 0 CHG=-1
M  V30 5 C 3.0369 0.2104 0.0209 0
M  V30 6 C 2.3362 -0.9816 0.2432 0
M  V30 7 C 2.3343 1.3682 -0.3357 0
M  V30 8 C 0.9442 -1.0139 0.1199 0
M  V30 9 C 0.9423 1.3374 -0.4608 0
M  V30 10 C 0.2335 0.1438 -0.2382 0
M  V30 11 N -1.2016 0.1044 -0.357 0
M  V30 12 N -1.9968 -0.6266 0.4103 0
M  V30 13 C -1.9739 0.7547 -1.2537 0
M  V30 14 C -3.273 -0.4294 0.0214 0
M  V30 15 O -1.5369 1.5043 -2.167 0
M  V30 16 C -3.3025 0.4429 -1.0535 0
M  V30 17 C -4.4501 -1.1364 0.6073 0
M  V30 18 H 2.8664 -1.8875 0.5079 0
M  V30 19 H 2.8623 2.2964 -0.5137 0
M  V30 20 H 0.4236 -1.9483 0.2849 0
M  V30 21 H 0.4194 2.2511 -0.71 0
M  V30 22 H -1.681 -1.2427 1.1928 0
M  V30 23 H -4.1616 0.7806 -1.6185 0
M  V30 24 H -4.6101 -2.0945 0.0708 0
M  V30 25 H -4.27 -1.3451 1.6827 0
M  V30 26 H -5.3601 -0.5071 0.5124 0
M  V30 END ATOM
M  V30 BEGIN BOND
M  V30 1 2 1 2
M  V30 2 2 1 3
M  V30 3 1 1 4
M  V30 4 1 1 5
M  V30 5 2 5 6
M  V30 6 1 5 7
M  V30 7 1 6 8
M  V30 8 2 7 9
M  V30 9 2 8 10
M  V30 10 1 10 11
M  V30 11 1 11 12
M  V30 12 1 11 13
M  V30 13 1 12 14
M  V30 14 2 13 15
M  V30 15 1 13 16
M  V30 16 1 14 17
M  V30 17 1 9 10
M  V30 18 2 14 16
M  V30 19 1 6 18
M  V30 20 1 7 19
M  V30 21 1 8 20
M  V30 22 1 9 21
M  V30 23 1 12 22
M  V30 24 1 16 23
M  V30 25 1 17 24
M  V30 26 1 17 25
M  V30 27 1 17 26
M  V30 END BOND
M  V30 END CTAB
M  END
>  <Structure No>
1864

>  <LogS>
-1.692640297

>  <MMFF94 Energy>
89.176

$$$$
Compound 1865
Actelion Java MolfileCreator 2.0

  0  0  0  0  0  0              0 V3000
M  V30 BEGIN CTAB
M  V30 COUNTS 20 20 0 0 0
M  V30 BEGIN ATOM
M  V30 1 S -1.8826 0.0 0.6545 0
M  V30 2 O -2.0794 1.3233 1.3388 0
M  V30 3 O -2.4838 -1.0759 1.5158 0
M  V30 4 N -2.6867 0.0087 -0.8759 0
M  V30 5 C -0.1537 -0.3025 0.4147 0
M  V30 6 C 0.6902 0.6442 -0.2189 0
M  V30 7 C 0.3883 -1.5221 0.8537 0
M  V30 8 C 2.0579 0.3529 -0.3704 0
M  V30 9 C 0.1705 1.9719 -0.7039 0
M  V30 10 C 1.746 -1.7984 0.6852 0
M  V30 11 C 2.5796 -0.8616 0.0769 0
M  V30 12 H -2.5566 -0.9393 -1.2943 0
M  V30 13 H -3.7078 0.1177 -0.6848 0
M  V30 14 H -0.238 -2.2655 1.329 0
M  V30 15 H 2.7248 1.0668 -0.8379 0
M  V30 16 H -0.7311 1.8283 -1.3334 0
M  V30 17 H -0.079 2.616 0.1644 0
M  V30 18 H 0.9248 2.5033 -1.3223 0
M  V30 19 H 2.1527 -2.7405 1.0292 0
M  V30 20 H 3.6329 -1.0767 -0.0484 0
M  V30 END ATOM
M  V30 BEGIN BOND
M  V30 1 2 1 2
M  V30 2 2 1 3
M  V30 3 1 1 4
M  V30 4 1 1 5
M  V30 5 2 5 6
M  V30 6 1 5 7
M  V30 7 1 6 8
M  V30 8 1 6 9
M  V30 9 2 7 10
M  V30 10 2 8 11
M  V30 11 1 10 11
M  V30 12 1 4 12
M  V30 13 1 4 13
M  V30 14 1 7 14
M  V30 15 1 8 15
M  V30 16 1 9 16
M  V30 17 1 9 17
M  V30 18 1 9 18
M  V30 19 1 10 19
M  V30 20 1 11 20
M  V30 END BOND
M  V30 END CTAB
M  END
>  <Structure No>
1865

>  <LogS>
-1.525986853

>  <MMFF94 Energy>
-53.828

$$$$
Compound 1866
Actelion Java MolfileCreator 2.0

  0  0  0  0  0  0              0 V3000
M  V30 BEGIN CTAB
M  V30 COUNTS 24 24 0 0 0
M  V30 BEGIN ATOM
M  V30 1 O -1.4978 3.2344 -0.9458 0
M  V30 2 C -1.0962 2.047 -0.8236 0
M  V30 3 N 0.1589 1.6546 -1.3873 0
M  V30 4 N -1.9037 1.0846 -0.1382 0
M  V30 5 C 0.7194 0.3266 -1.1352 0 CFG=1
M  V30 6 C -1.402 -0.2648 0.136 0 CFG=2
M  V30 7 N 1.5775 0.3705 0.0519 0
M  V30 8 C -0.4071 -0.7073 -0.9555 0
M  V30 9 C -2.5696 -1.2505 0.2276 0
M  V30 10 C 2.5638 -0.633 0.3273 0
M  V30 11 O 2.757 -1.5786 -0.4834 0
M  V30 12 N 3.337 -0.5636 1.5244 0
M  V30 13 H 0.747 2.3689 -1.873 0
M  V30 14 H -2.7876 1.4075 0.3174 0
M  V30 15 H 1.3321 0.0372 -2.0175 0
M  V30 16 H -0.8802 -0.2554 1.1182 0
M  V30 17 H 1.4574 1.1519 0.7361 0
M  V30 18 H 0.0258 -1.697 -0.6938 0
M  V30 19 H -0.9436 -0.8183 -1.924 0
M  V30 20 H -3.1411 -1.2659 -0.7252 0
M  V30 21 H -3.2538 -0.9531 1.0506 0
M  V30 22 H -2.1927 -2.2736 0.4411 0
M  V30 23 H 3.19 0.2121 2.2075 0
M  V30 24 H 4.0576 -1.2907 1.73 0
M  V30 END ATOM
M  V30 BEGIN BOND
M  V30 1 2 1 2
M  V30 2 1 2 3
M  V30 3 1 2 4
M  V30 4 1 3 5
M  V30 5 1 4 6
M  V30 6 1 5 7
M  V30 7 1 5 8
M  V30 8 1 6 9
M  V30 9 1 7 10
M  V30 10 2 10 11
M  V30 11 1 10 12
M  V30 12 1 6 8
M  V30 13 1 3 13
M  V30 14 1 4 14
M  V30 15 1 5 15
M  V30 16 1 6 16
M  V30 17 1 7 17
M  V30 18 1 8 18
M  V30 19 1 8 19
M  V30 20 1 9 20
M  V30 21 1 9 21
M  V30 22 1 9 22
M  V30 23 1 12 23
M  V30 24 1 12 24
M  V30 END BOND
M  V30 BEGIN COLLECTION
M  V30 MDLV30/STEABS ATOMS=(2 5 6)
M  V30 END COLLECTION
M  V30 END CTAB
M  END
>  <Structure No>
1866

>  <LogS>
-1.531423432

>  <MMFF94 Energy>
-252.38

$$$$
Compound 1867
Actelion Java MolfileCreator 2.0

  0  0  0  0  0  0              0 V3000
M  V30 BEGIN CTAB
M  V30 COUNTS 19 19 0 0 0
M  V30 BEGIN ATOM
M  V30 1 N -2.1707 1.395 -0.2323 0
M  V30 2 C -0.8549 0.8374 -0.1077 0
M  V30 3 C -0.6528 -0.5511 0.0783 0
M  V30 4 C 0.255 1.6934 -0.1724 0
M  V30 5 C 0.658 -1.0472 0.1949 0
M  V30 6 C -1.8126 -1.5073 0.1539 0
M  V30 7 C 1.5508 1.1881 -0.0552 0
M  V30 8 C 1.7585 -0.1828 0.1287 0
M  V30 9 N 3.087 -0.6987 0.2485 0
M  V30 10 H -2.2993 2.4225 -0.3691 0
M  V30 11 H -3.0309 0.8064 -0.1917 0
M  V30 12 H 0.1146 2.7577 -0.3144 0
M  V30 13 H 0.8265 -2.1078 0.3376 0
M  V30 14 H -1.4732 -2.5547 0.3018 0
M  V30 15 H -2.4682 -1.2361 1.008 0
M  V30 16 H -2.3956 -1.4664 -0.79 0
M  V30 17 H 2.3934 1.8661 -0.108 0
M  V30 18 H 3.2539 -1.7205 0.3863 0
M  V30 19 H 3.914 -0.0625 0.2006 0
M  V30 END ATOM
M  V30 BEGIN BOND
M  V30 1 1 1 2
M  V30 2 2 2 3
M  V30 3 1 2 4
M  V30 4 1 3 5
M  V30 5 1 3 6
M  V30 6 2 4 7
M  V30 7 2 5 8
M  V30 8 1 8 9
M  V30 9 1 7 8
M  V30 10 1 1 10
M  V30 11 1 1 11
M  V30 12 1 4 12
M  V30 13 1 5 13
M  V30 14 1 6 14
M  V30 15 1 6 15
M  V30 16 1 6 16
M  V30 17 1 7 17
M  V30 18 1 9 18
M  V30 19 1 9 19
M  V30 END BOND
M  V30 END CTAB
M  END
>  <Structure No>
1867

>  <LogS>
-1.641347932

>  <MMFF94 Energy>
3.0028

$$$$
Compound 1868
Actelion Java MolfileCreator 2.0

  0  0  0  0  0  0              0 V3000
M  V30 BEGIN CTAB
M  V30 COUNTS 17 17 0 0 0
M  V30 BEGIN ATOM
M  V30 1 F -2.4197 -2.0161 0.0 0
M  V30 2 C -2.4042 -0.6558 0.2559 0
M  V30 3 F -3.3549 -0.0538 -0.5501 0
M  V30 4 F -2.7368 -0.4428 1.5806 0
M  V30 5 C -1.0362 -0.0801 -0.0111 0
M  V30 6 C 0.1176 -0.8505 0.2221 0
M  V30 7 C -0.8929 1.2613 -0.407 0
M  V30 8 C 1.3932 -0.3032 0.0189 0
M  V30 9 C 0.3775 1.8066 -0.6095 0
M  V30 10 N 2.5609 -1.0967 0.2465 0
M  V30 11 C 1.5173 1.0271 -0.402 0
M  V30 12 H 0.0276 -1.8743 0.5637 0
M  V30 13 H -1.7625 1.8886 -0.5575 0
M  V30 14 H 0.4787 2.8378 -0.9225 0
M  V30 15 H 3.515 -0.6979 0.1005 0
M  V30 16 H 2.4801 -2.0889 0.5624 0
M  V30 17 H 2.4962 1.4615 -0.5607 0
M  V30 END ATOM
M  V30 BEGIN BOND
M  V30 1 1 1 2
M  V30 2 1 2 3
M  V30 3 1 2 4
M  V30 4 1 2 5
M  V30 5 2 5 6
M  V30 6 1 5 7
M  V30 7 1 6 8
M  V30 8 2 7 9
M  V30 9 1 8 10
M  V30 10 2 8 11
M  V30 11 1 9 11
M  V30 12 1 6 12
M  V30 13 1 7 13
M  V30 14 1 9 14
M  V30 15 1 10 15
M  V30 16 1 10 16
M  V30 17 1 11 17
M  V30 END BOND
M  V30 END CTAB
M  END
>  <Structure No>
1868

>  <LogS>
-1.508195621

>  <MMFF94 Energy>
29.195

$$$$
Compound 1869
Actelion Java MolfileCreator 2.0

  0  0  0  0  0  0              0 V3000
M  V30 BEGIN CTAB
M  V30 COUNTS 43 44 0 0 0
M  V30 BEGIN ATOM
M  V30 1 N -5.1155 1.1 0.6285 0 CHG=1
M  V30 2 C -3.6977 0.7218 0.6114 0 CFG=1
M  V30 3 C -3.0167 1.2112 -0.69 0
M  V30 4 C -3.5385 -0.7993 0.7683 0
M  V30 5 C -1.7525 0.41 -1.0699 0
M  V30 6 C -2.0561 -1.2136 0.865 0
M  V30 7 C -1.0786 -0.2332 0.1605 0 CFG=2
M  V30 8 C 0.2368 -0.9744 -0.1926 0
M  V30 9 C 1.3578 -0.1154 -0.8459 0 CFG=1
M  V30 10 C 1.7786 1.1189 -0.0185 0
M  V30 11 C 2.5995 -0.9758 -1.1693 0
M  V30 12 C 2.5382 0.7314 1.2579 0
M  V30 13 C 3.4003 -1.366 0.0856 0
M  V30 14 C 3.7717 -0.1507 0.9638 0 CFG=1
M  V30 15 N 4.8661 0.6297 0.3674 0 CHG=1
M  V30 16 H -5.6343 0.621 -0.1435 0
M  V30 17 H -5.2062 2.1359 0.514 0
M  V30 18 H -5.5422 0.8325 1.5453 0
M  V30 19 H -3.1954 1.211 1.4777 0
M  V30 20 H -2.7469 2.2827 -0.5614 0
M  V30 21 H -3.7303 1.1554 -1.5413 0
M  V30 22 H -4.0046 -1.3052 -0.1062 0
M  V30 23 H -4.0733 -1.1458 1.6795 0
M  V30 24 H -2.0254 -0.3899 -1.7932 0
M  V30 25 H -1.0569 1.1051 -1.5825 0
M  V30 26 H -1.9618 -2.2355 0.4356 0
M  V30 27 H -1.7688 -1.2865 1.9373 0
M  V30 28 H -0.848 0.5712 0.8908 0
M  V30 29 H 0.6215 -1.4412 0.7377 0
M  V30 30 H -0.0075 -1.8066 -0.8894 0
M  V30 31 H 0.9787 0.2496 -1.8236 0
M  V30 32 H 0.9025 1.7452 0.2423 0
M  V30 33 H 2.426 1.7685 -0.6455 0
M  V30 34 H 2.2909 -1.8998 -1.7051 0
M  V30 35 H 3.2608 -0.4151 -1.8646 0
M  V30 36 H 2.8543 1.6552 1.7888 0
M  V30 37 H 1.8525 0.1879 1.9431 0
M  V30 38 H 4.3243 -1.8993 -0.2261 0
M  V30 39 H 2.8124 -2.0873 0.6915 0
M  V30 40 H 4.1326 -0.5468 1.9401 0
M  V30 41 H 4.603 1.0068 -0.5699 0
M  V30 42 H 5.1173 1.4265 0.9965 0
M  V30 43 H 5.7124 0.0244 0.2614 0
M  V30 END ATOM
M  V30 BEGIN BOND
M  V30 1 1 1 2
M  V30 2 1 2 3
M  V30 3 1 2 4
M  V30 4 1 3 5
M  V30 5 1 4 6
M  V30 6 1 5 7
M  V30 7 1 7 8
M  V30 8 1 8 9
M  V30 9 1 9 10
M  V30 10 1 9 11
M  V30 11 1 10 12
M  V30 12 1 11 13
M  V30 13 1 12 14
M  V30 14 1 14 15
M  V30 15 1 6 7
M  V30 16 1 13 14
M  V30 17 1 1 16
M  V30 18 1 1 17
M  V30 19 1 1 18
M  V30 20 1 2 19
M  V30 21 1 3 20
M  V30 22 1 3 21
M  V30 23 1 4 22
M  V30 24 1 4 23
M  V30 25 1 5 24
M  V30 26 1 5 25
M  V30 27 1 6 26
M  V30 28 1 6 27
M  V30 29 1 7 28
M  V30 30 1 8 29
M  V30 31 1 8 30
M  V30 32 1 9 31
M  V30 33 1 10 32
M  V30 34 1 10 33
M  V30 35 1 11 34
M  V30 36 1 11 35
M  V30 37 1 12 36
M  V30 38 1 12 37
M  V30 39 1 13 38
M  V30 40 1 13 39
M  V30 41 1 14 40
M  V30 42 1 15 41
M  V30 43 1 15 42
M  V30 44 1 15 43
M  V30 END BOND
M  V30 BEGIN COLLECTION
M  V30 MDLV30/STEABS ATOMS=(4 2 7 9 14)
M  V30 END COLLECTION
M  V30 END CTAB
M  END
>  <Structure No>
1869

>  <LogS>
-1.62400348

>  <MMFF94 Energy>
52.142

$$$$
Compound 1870
Actelion Java MolfileCreator 2.0

  0  0  0  0  0  0              0 V3000
M  V30 BEGIN CTAB
M  V30 COUNTS 27 27 0 0 0
M  V30 BEGIN ATOM
M  V30 1 O -1.8107 -2.4411 -1.0231 0
M  V30 2 C -2.4794 -1.6712 -0.2819 0
M  V30 3 N -1.9109 -0.445 0.2025 0
M  V30 4 C -3.9067 -1.9973 0.0149 0
M  V30 5 C -0.5121 -0.1195 0.1108 0
M  V30 6 C -0.1192 1.2117 -0.1243 0
M  V30 7 C 0.4689 -1.1076 0.3087 0
M  V30 8 O -1.1127 2.1887 -0.301 0
M  V30 9 C 1.2514 1.5267 -0.1865 0
M  V30 10 C 1.8297 -0.7927 0.2463 0
M  V30 11 C -0.8557 3.5673 -0.5475 0
M  V30 12 C 2.2161 0.5338 -0.0079 0
M  V30 13 O 2.7613 -1.8222 0.4469 0
M  V30 14 C 4.1739 -1.6465 0.4132 0
M  V30 15 H -2.5662 0.2776 0.5777 0
M  V30 16 H -4.5658 -1.44 -0.6825 0
M  V30 17 H -4.1513 -1.7084 1.0586 0
M  V30 18 H -4.0873 -3.0866 -0.1039 0
M  V30 19 H 0.18 -2.125 0.5378 0
M  V30 20 H 1.583 2.5388 -0.3732 0
M  V30 21 H -1.8215 4.1044 -0.6425 0
M  V30 22 H -0.2865 4.007 0.2985 0
M  V30 23 H -0.2883 3.6866 -1.4945 0
M  V30 24 H 3.2601 0.8102 -0.0626 0
M  V30 25 H 4.4886 -0.9309 1.202 0
M  V30 26 H 4.489 -1.2776 -0.5856 0
M  V30 27 H 4.6652 -2.6226 0.6027 0
M  V30 END ATOM
M  V30 BEGIN BOND
M  V30 1 2 1 2
M  V30 2 1 2 3
M  V30 3 1 2 4
M  V30 4 1 3 5
M  V30 5 2 5 6
M  V30 6 1 5 7
M  V30 7 1 6 8
M  V30 8 1 6 9
M  V30 9 2 7 10
M  V30 10 1 8 11
M  V30 11 2 9 12
M  V30 12 1 10 13
M  V30 13 1 13 14
M  V30 14 1 10 12
M  V30 15 1 3 15
M  V30 16 1 4 16
M  V30 17 1 4 17
M  V30 18 1 4 18
M  V30 19 1 7 19
M  V30 20 1 9 20
M  V30 21 1 11 21
M  V30 22 1 11 22
M  V30 23 1 11 23
M  V30 24 1 12 24
M  V30 25 1 14 25
M  V30 26 1 14 26
M  V30 27 1 14 27
M  V30 END BOND
M  V30 END CTAB
M  END
>  <Structure No>
1870

>  <LogS>
-1.591549855

>  <MMFF94 Energy>
16.785

$$$$
Compound 1871
Actelion Java MolfileCreator 2.0

  0  0  0  0  0  0              0 V3000
M  V30 BEGIN CTAB
M  V30 COUNTS 24 24 0 0 0
M  V30 BEGIN ATOM
M  V30 1 S 4.0318 0.5752 -0.2465 0
M  V30 2 O 4.39 0.884 -1.6729 0
M  V30 3 O 4.7995 -0.6401 0.1918 0
M  V30 4 O 4.443 1.8791 0.7289 0 CHG=-1
M  V30 5 C 2.303 0.2693 -0.1169 0
M  V30 6 C 1.4072 0.9112 -0.981 0
M  V30 7 C 1.8127 -0.5993 0.8658 0
M  V30 8 C 0.0334 0.6774 -0.8723 0
M  V30 9 C 0.4392 -0.835 0.9768 0
M  V30 10 C -0.4663 -0.2007 0.108 0
M  V30 11 C -1.9549 -0.4643 0.239 0
M  V30 12 C -2.7143 0.8198 0.5932 0
M  V30 13 C -2.5172 -1.1039 -1.0359 0
M  V30 14 H 1.7705 1.5946 -1.7379 0
M  V30 15 H 2.4923 -1.0934 1.5485 0
M  V30 16 H -0.6382 1.1841 -1.553 0
M  V30 17 H 0.0842 -1.5124 1.7435 0
M  V30 18 H -2.1315 -1.1851 1.0687 0
M  V30 19 H -2.6499 1.5638 -0.2289 0
M  V30 20 H -2.2923 1.2687 1.518 0
M  V30 21 H -3.7854 0.5895 0.7771 0
M  V30 22 H -2.4491 -0.407 -1.8981 0
M  V30 23 H -3.584 -1.3758 -0.8858 0
M  V30 24 H -1.9537 -2.0306 -1.2769 0
M  V30 END ATOM
M  V30 BEGIN BOND
M  V30 1 2 1 2
M  V30 2 2 1 3
M  V30 3 1 1 4
M  V30 4 1 1 5
M  V30 5 2 5 6
M  V30 6 1 5 7
M  V30 7 1 6 8
M  V30 8 2 7 9
M  V30 9 2 8 10
M  V30 10 1 10 11
M  V30 11 1 11 12
M  V30 12 1 11 13
M  V30 13 1 9 10
M  V30 14 1 6 14
M  V30 15 1 7 15
M  V30 16 1 8 16
M  V30 17 1 9 17
M  V30 18 1 11 18
M  V30 19 1 12 19
M  V30 20 1 12 20
M  V30 21 1 12 21
M  V30 22 1 13 22
M  V30 23 1 13 23
M  V30 24 1 13 24
M  V30 END BOND
M  V30 END CTAB
M  END
>  <Structure No>
1871

>  <LogS>
0.320887212

>  <MMFF94 Energy>
54.512

$$$$
Compound 1872
Actelion Java MolfileCreator 2.0

  0  0  0  0  0  0              0 V3000
M  V30 BEGIN CTAB
M  V30 COUNTS 6 5 0 0 0
M  V30 BEGIN ATOM
M  V30 1 O -1.2326 -1.0784 -0.462 0
M  V30 2 C -0.639 -0.0425 -0.0638 0
M  V30 3 O -1.3752 1.0683 0.3263 0 CHG=-1
M  V30 4 N 0.7845 -0.0087 -0.0133 0
M  V30 5 H 1.3447 -0.84 -0.305 0
M  V30 6 H 1.2777 0.85 0.3167 0
M  V30 END ATOM
M  V30 BEGIN BOND
M  V30 1 2 1 2
M  V30 2 1 2 3
M  V30 3 1 2 4
M  V30 4 1 4 5
M  V30 5 1 4 6
M  V30 END BOND
M  V30 END CTAB
M  END
>  <Structure No>
1872

>  <LogS>
0.711593998

>  <MMFF94 Energy>
-118.97

$$$$
Compound 1873
Actelion Java MolfileCreator 2.0

  0  0  0  0  0  0              0 V3000
M  V30 BEGIN CTAB
M  V30 COUNTS 24 24 0 0 0
M  V30 BEGIN ATOM
M  V30 1 S 4.0318 -0.0821 -0.2465 0
M  V30 2 O 4.5471 0.0995 -1.6466 0
M  V30 3 O 4.4735 -1.4264 0.2597 0
M  V30 4 O 4.6594 1.1221 0.7417 0 CHG=-1
M  V30 5 C 2.274 0.0114 -0.2394 0
M  V30 6 C 1.5343 -0.6974 0.7152 0
M  V30 7 C 1.6072 0.8137 -1.1737 0
M  V30 8 C 0.139 -0.6155 0.7286 0
M  V30 9 C 0.2118 0.8974 -1.1626 0
M  V30 10 C -0.5388 0.1826 -0.2124 0
M  V30 11 C -2.0528 0.2822 -0.2103 0
M  V30 12 C -2.6971 -1.0841 -0.4726 0
M  V30 13 C -2.5646 0.891 1.1006 0
M  V30 14 H 2.0365 -1.3123 1.4512 0
M  V30 15 H 2.1662 1.3768 -1.9102 0
M  V30 16 H -0.41 -1.1744 1.4753 0
M  V30 17 H -0.2813 1.5229 -1.8963 0
M  V30 18 H -2.3803 0.9583 -1.0317 0
M  V30 19 H -2.48 -1.7951 0.3525 0
M  V30 20 H -3.799 -0.9737 -0.5618 0
M  V30 21 H -2.313 -1.5094 -1.4243 0
M  V30 22 H -3.6639 1.0428 1.0456 0
M  V30 23 H -2.0864 1.879 1.2735 0
M  V30 24 H -2.3432 0.2284 1.9641 0
M  V30 END ATOM
M  V30 BEGIN BOND
M  V30 1 2 1 2
M  V30 2 2 1 3
M  V30 3 1 1 4
M  V30 4 1 1 5
M  V30 5 2 5 6
M  V30 6 1 5 7
M  V30 7 1 6 8
M  V30 8 2 7 9
M  V30 9 2 8 10
M  V30 10 1 10 11
M  V30 11 1 11 12
M  V30 12 1 11 13
M  V30 13 1 9 10
M  V30 14 1 6 14
M  V30 15 1 7 15
M  V30 16 1 8 16
M  V30 17 1 9 17
M  V30 18 1 11 18
M  V30 19 1 12 19
M  V30 20 1 12 20
M  V30 21 1 12 21
M  V30 22 1 13 22
M  V30 23 1 13 23
M  V30 24 1 13 24
M  V30 END BOND
M  V30 END CTAB
M  END
>  <Structure No>
1873

>  <LogS>
0.346022737

>  <MMFF94 Energy>
54.512

$$$$
Compound 1874
Actelion Java MolfileCreator 2.0

  0  0  0  0  0  0              0 V3000
M  V30 BEGIN CTAB
M  V30 COUNTS 55 54 0 0 0
M  V30 BEGIN ATOM
M  V30 1 O -1.2429 -3.2653 1.4761 0
M  V30 2 C -1.1416 -2.0121 1.5783 0
M  V30 3 N -2.0016 -1.1522 0.8167 0
M  V30 4 C -0.0906 -1.4314 2.4788 0
M  V30 5 C -2.9115 -1.6902 -0.1952 0
M  V30 6 C 1.3031 -1.5123 1.8437 0
M  V30 7 C -3.8545 -0.6086 -0.7392 0
M  V30 8 C 1.4341 -0.5988 0.6125 0
M  V30 9 C -4.9098 -0.1975 0.3169 0
M  V30 10 C 2.805 -0.7237 -0.0724 0
M  V30 11 N -5.8692 0.8636 -0.1193 0 CHG=1
M  V30 12 C 3.9162 0.0276 0.6826 0
M  V30 13 C -6.6117 0.4569 -1.3364 0
M  V30 14 C -6.8488 1.0709 0.9742 0
M  V30 15 C -5.1703 2.15 -0.3664 0
M  V30 16 C 5.3028 -0.1744 0.0459 0
M  V30 17 C 5.4669 0.593 -1.2782 0
M  V30 18 C 6.8743 0.4246 -1.8756 0
M  V30 19 C 7.9433 1.0628 -1.0269 0
M  V30 20 C 8.0341 2.3886 -0.8871 0
M  V30 21 H -1.9327 -0.1199 0.9599 0
M  V30 22 H -0.3345 -0.3755 2.7306 0
M  V30 23 H -0.0838 -2.0029 3.432 0
M  V30 24 H -2.3091 -2.0985 -1.0343 0
M  V30 25 H -3.5083 -2.5226 0.2355 0
M  V30 26 H 1.5203 -2.5656 1.5599 0
M  V30 27 H 2.0443 -1.2089 2.6128 0
M  V30 28 H -3.2461 0.2609 -1.0634 0
M  V30 29 H -4.3602 -1.0338 -1.6316 0
M  V30 30 H 1.2471 0.4601 0.8997 0
M  V30 31 H 0.6604 -0.8852 -0.1313 0
M  V30 32 H -5.4727 -1.1168 0.6021 0
M  V30 33 H -4.3741 0.1379 1.235 0
M  V30 34 H 2.7084 -0.2929 -1.0918 0
M  V30 35 H 3.0747 -1.7979 -0.1838 0
M  V30 36 H 3.9707 -0.3482 1.727 0
M  V30 37 H 3.6775 1.113 0.7269 0
M  V30 38 H -7.0537 -0.5623 -1.2113 0
M  V30 39 H -7.4449 1.1695 -1.5569 0
M  V30 40 H -5.9512 0.4515 -2.2331 0
M  V30 41 H -6.341 1.3962 1.9105 0
M  V30 42 H -7.5969 1.8514 0.71 0
M  V30 43 H -7.407 0.1313 1.1955 0
M  V30 44 H -5.8998 2.9682 -0.5658 0
M  V30 45 H -4.5054 2.0933 -1.2549 0
M  V30 46 H -4.5542 2.445 0.514 0
M  V30 47 H 5.4884 -1.2587 -0.1176 0
M  V30 48 H 6.0642 0.1873 0.7688 0
M  V30 49 H 5.2483 1.6712 -1.1208 0
M  V30 50 H 4.7407 0.2088 -2.0227 0
M  V30 51 H 7.0975 -0.6581 -1.9895 0
M  V30 52 H 6.8984 0.8778 -2.8926 0
M  V30 53 H 8.6774 0.4279 -0.539 0
M  V30 54 H 7.3286 3.0512 -1.3787 0
M  V30 55 H 8.825 2.8174 -0.2835 0
M  V30 END ATOM
M  V30 BEGIN BOND
M  V30 1 2 1 2
M  V30 2 1 2 3
M  V30 3 1 2 4
M  V30 4 1 3 5
M  V30 5 1 4 6
M  V30 6 1 5 7
M  V30 7 1 6 8
M  V30 8 1 7 9
M  V30 9 1 8 10
M  V30 10 1 9 11
M  V30 11 1 10 12
M  V30 12 1 11 13
M  V30 13 1 11 14
M  V30 14 1 11 15
M  V30 15 1 12 16
M  V30 16 1 16 17
M  V30 17 1 17 18
M  V30 18 1 18 19
M  V30 19 2 19 20
M  V30 20 1 3 21
M  V30 21 1 4 22
M  V30 22 1 4 23
M  V30 23 1 5 24
M  V30 24 1 5 25
M  V30 25 1 6 26
M  V30 26 1 6 27
M  V30 27 1 7 28
M  V30 28 1 7 29
M  V30 29 1 8 30
M  V30 30 1 8 31
M  V30 31 1 9 32
M  V30 32 1 9 33
M  V30 33 1 10 34
M  V30 34 1 10 35
M  V30 35 1 12 36
M  V30 36 1 12 37
M  V30 37 1 13 38
M  V30 38 1 13 39
M  V30 39 1 13 40
M  V30 40 1 14 41
M  V30 41 1 14 42
M  V30 42 1 14 43
M  V30 43 1 15 44
M  V30 44 1 15 45
M  V30 45 1 15 46
M  V30 46 1 16 47
M  V30 47 1 16 48
M  V30 48 1 17 49
M  V30 49 1 17 50
M  V30 50 1 18 51
M  V30 51 1 18 52
M  V30 52 1 19 53
M  V30 53 1 20 54
M  V30 54 1 20 55
M  V30 END BOND
M  V30 END CTAB
M  END
>  <Structure No>
1874

>  <LogS>
0.094063213

>  <MMFF94 Energy>
-4.2714

$$$$
Compound 1875
Actelion Java MolfileCreator 2.0

  0  0  0  0  0  0              0 V3000
M  V30 BEGIN CTAB
M  V30 COUNTS 14 14 0 0 0
M  V30 BEGIN ATOM
M  V30 1 O 1.5625 1.5625 0.4685 0
M  V30 2 C 0.5026 0.6979 0.2001 0
M  V30 3 C 0.7426 -0.586 -0.3187 0
M  V30 4 C -0.8177 1.0968 0.4439 0
M  V30 5 N -0.3057 -1.4164 -0.5744 0
M  V30 6 N 2.0737 -1.0347 -0.5826 0
M  V30 7 C -1.8714 0.2233 0.1715 0
M  V30 8 C -1.5926 -1.0435 -0.3431 0
M  V30 9 H 1.407 2.4914 0.8427 0
M  V30 10 H -1.0272 2.0809 0.8433 0
M  V30 11 H 2.2361 -1.9914 -0.9682 0
M  V30 12 H 2.9012 -0.4253 -0.3988 0
M  V30 13 H -2.8941 0.525 0.3575 0
M  V30 14 H -2.3992 -1.7312 -0.559 0
M  V30 END ATOM
M  V30 BEGIN BOND
M  V30 1 1 1 2
M  V30 2 2 2 3
M  V30 3 1 2 4
M  V30 4 1 3 5
M  V30 5 1 3 6
M  V30 6 2 4 7
M  V30 7 2 5 8
M  V30 8 1 7 8
M  V30 9 1 1 9
M  V30 10 1 4 10
M  V30 11 1 6 11
M  V30 12 1 6 12
M  V30 13 1 7 13
M  V30 14 1 8 14
M  V30 END BOND
M  V30 END CTAB
M  END
>  <Structure No>
1875

>  <LogS>
-0.346106152

>  <MMFF94 Energy>
-7.4619

$$$$
Compound 1876
Actelion Java MolfileCreator 2.0

  0  0  0  0  0  0              0 V3000
M  V30 BEGIN CTAB
M  V30 COUNTS 23 23 0 0 0
M  V30 BEGIN ATOM
M  V30 1 O 1.263 1.8949 -0.8681 0
M  V30 2 C 0.4425 1.2541 -0.2357 0
M  V30 3 N 0.9788 -0.0257 0.3029 0
M  V30 4 C -0.9454 1.6587 0.0183 0
M  V30 5 C 2.2752 -0.0468 0.6917 0
M  V30 6 C 0.1606 -1.2286 0.4443 0
M  V30 7 C -1.8955 0.8673 -0.8206 0
M  V30 8 C 3.4883 -0.0666 1.0555 0
M  V30 9 C -0.8581 -1.3486 -0.6433 0
M  V30 10 C -2.1176 -0.5359 -0.2978 0
M  V30 11 H -1.183 1.5686 1.0975 0
M  V30 12 H -1.0763 2.7613 -0.2609 0
M  V30 13 H 2.377 -1.4467 0.5035 0
M  V30 14 H -0.3367 -1.2396 1.4137 0
M  V30 15 H 0.8893 -2.1014 0.3014 0
M  V30 16 H -2.8971 1.3685 -0.8254 0
M  V30 17 H -1.548 0.8728 -1.8476 0
M  V30 18 H 4.1285 0.7925 1.0301 0
M  V30 19 H 3.9823 -0.9535 1.4474 0
M  V30 20 H -0.4894 -0.9404 -1.6356 0
M  V30 21 H -1.0654 -2.4191 -0.8325 0
M  V30 22 H -2.9924 -1.019 -0.7998 0
M  V30 23 H -2.1991 -0.4873 0.8063 0
M  V30 END ATOM
M  V30 BEGIN BOND
M  V30 1 2 1 2
M  V30 2 1 2 3
M  V30 3 1 2 4
M  V30 4 1 3 5
M  V30 5 1 3 6
M  V30 6 1 4 7
M  V30 7 2 5 8
M  V30 8 1 6 9
M  V30 9 1 7 10
M  V30 10 1 9 10
M  V30 11 1 4 11
M  V30 12 1 4 12
M  V30 13 1 5 13
M  V30 14 1 6 14
M  V30 15 1 6 15
M  V30 16 1 7 16
M  V30 17 1 7 17
M  V30 18 1 8 18
M  V30 19 1 8 19
M  V30 20 1 9 20
M  V30 21 1 9 21
M  V30 22 1 10 22
M  V30 23 1 10 23
M  V30 END BOND
M  V30 END CTAB
M  END
>  <Structure No>
1876

>  <LogS>
-0.450786076

>  <MMFF94 Energy>
15.473

$$$$
Compound 1877
Actelion Java MolfileCreator 2.0

  0  0  0  0  0  0              0 V3000
M  V30 BEGIN CTAB
M  V30 COUNTS 20 19 0 0 0
M  V30 BEGIN ATOM
M  V30 1 O 2.1089 0.8587 -0.9368 0
M  V30 2 C 2.4537 0.361 0.1694 0
M  V30 3 O 1.6211 -0.543 0.8387 0
M  V30 4 C 3.7414 0.7759 0.7955 0
M  V30 5 C 0.3561 -0.9632 0.3316 0
M  V30 6 C -0.6539 0.1476 0.4401 0
M  V30 7 C -1.9195 0.0413 -0.0033 0
M  V30 8 C -2.8212 1.2047 0.137 0
M  V30 9 C -2.4129 -1.2238 -0.6634 0
M  V30 10 O -4.0059 1.1666 -0.2888 0
M  V30 11 H 3.5978 1.735 1.335 0
M  V30 12 H 4.0807 9.0E-4 1.5142 0
M  V30 13 H 4.5202 0.9066 0.015 0
M  V30 14 H 0.0096 -1.8292 0.9331 0
M  V30 15 H 0.4664 -1.288 -0.7258 0
M  V30 16 H -0.33 1.0751 0.9001 0
M  V30 17 H -2.4696 2.113 0.6106 0
M  V30 18 H -1.8759 -1.3809 -1.6222 0
M  V30 19 H -2.2408 -2.0957 0.0019 0
M  V30 20 H -3.5 -1.1807 -0.8804 0
M  V30 END ATOM
M  V30 BEGIN BOND
M  V30 1 2 1 2
M  V30 2 1 2 3
M  V30 3 1 2 4
M  V30 4 1 3 5
M  V30 5 1 5 6
M  V30 6 2 6 7
M  V30 7 1 7 8
M  V30 8 1 7 9
M  V30 9 2 8 10
M  V30 10 1 4 11
M  V30 11 1 4 12
M  V30 12 1 4 13
M  V30 13 1 5 14
M  V30 14 1 5 15
M  V30 15 1 6 16
M  V30 16 1 8 17
M  V30 17 1 9 18
M  V30 18 1 9 19
M  V30 19 1 9 20
M  V30 END BOND
M  V30 END CTAB
M  END
>  <Structure No>
1877

>  <LogS>
-0.460793982

>  <MMFF94 Energy>
-9.4632

$$$$
Compound 1878
Actelion Java MolfileCreator 2.0

  0  0  0  0  0  0              0 V3000
M  V30 BEGIN CTAB
M  V30 COUNTS 21 20 0 0 0
M  V30 BEGIN ATOM
M  V30 1 O -1.1018 0.7869 2.5199 0
M  V30 2 C -1.3998 0.1532 1.4717 0
M  V30 3 O -2.6479 -0.4567 1.3932 0 CHG=-1
M  V30 4 C -0.4403 0.1333 0.2882 0
M  V30 5 C -0.8752 -0.9751 -0.711 0
M  V30 6 C -0.5385 1.5247 -0.3924 0
M  V30 7 C 0.9989 -0.133 0.8422 0
M  V30 8 O -0.8041 -2.2399 -0.1087 0
M  V30 9 O 0.1383 1.5499 -1.6195 0
M  V30 10 C 2.1091 -0.2932 -0.2022 0
M  V30 11 H -0.2353 -0.9632 -1.6197 0
M  V30 12 H -1.9176 -0.7857 -1.0553 0
M  V30 13 H -1.6095 1.7748 -0.5736 0
M  V30 14 H -0.1179 2.3061 0.2811 0
M  V30 15 H 0.9859 -1.0575 1.4611 0
M  V30 16 H 1.2965 0.6974 1.52 0
M  V30 17 H -1.1013 -2.8909 -0.7963 0
M  V30 18 H 0.0404 2.4727 -1.9712 0
M  V30 19 H 2.2531 0.6382 -0.7839 0
M  V30 20 H 3.0654 -0.507 0.3201 0
M  V30 21 H 1.9062 -1.1439 -0.8832 0
M  V30 END ATOM
M  V30 BEGIN BOND
M  V30 1 2 1 2
M  V30 2 1 2 3
M  V30 3 1 2 4
M  V30 4 1 4 5
M  V30 5 1 4 6
M  V30 6 1 4 7
M  V30 7 1 5 8
M  V30 8 1 6 9
M  V30 9 1 7 10
M  V30 10 1 5 11
M  V30 11 1 5 12
M  V30 12 1 6 13
M  V30 13 1 6 14
M  V30 14 1 7 15
M  V30 15 1 7 16
M  V30 16 1 8 17
M  V30 17 1 9 18
M  V30 18 1 10 19
M  V30 19 1 10 20
M  V30 20 1 10 21
M  V30 END BOND
M  V30 END CTAB
M  END
>  <Structure No>
1878

>  <LogS>
0.516803854

>  <MMFF94 Energy>
4.5273

$$$$
Compound 1879
Actelion Java MolfileCreator 2.0

  0  0  0  0  0  0              0 V3000
M  V30 BEGIN CTAB
M  V30 COUNTS 4 3 0 0 0
M  V30 BEGIN ATOM
M  V30 1 O 1.249 0.0 0.0 0
M  V30 2 N 0.0024 0.0286 -0.0052 0 CHG=1
M  V30 3 O -0.6571 1.2341 -0.0096 0 CHG=-1
M  V30 4 O -0.7116 -1.1453 -0.0065 0 CHG=-1
M  V30 END ATOM
M  V30 BEGIN BOND
M  V30 1 2 1 2
M  V30 2 1 2 3
M  V30 3 1 2 4
M  V30 END BOND
M  V30 END CTAB
M  END
>  <Structure No>
1879

>  <LogS>
0.166535451

>  <MMFF94 Energy>
6.4146

$$$$
Compound 1880
Actelion Java MolfileCreator 2.0

  0  0  0  0  0  0              0 V3000
M  V30 BEGIN CTAB
M  V30 COUNTS 35 34 0 0 0
M  V30 BEGIN ATOM
M  V30 1 O -4.1592 -1.758 1.2783 0
M  V30 2 C -2.967 -2.1134 1.0851 0
M  V30 3 O -2.303 -2.8522 2.0562 0 CHG=-1
M  V30 4 C -2.2555 -1.7208 -0.1782 0
M  V30 5 N -1.2046 -0.6985 0.0575 0 CHG=1 CFG=2
M  V30 6 C -1.7431 0.5681 0.6326 0
M  V30 7 C -0.4164 -0.5029 -1.1884 0
M  V30 8 C -2.677 1.3637 -0.3011 0
M  V30 9 C 0.7795 0.4617 -1.0336 0
M  V30 10 O -3.1532 2.5039 0.361 0
M  V30 11 N 1.5977 0.1343 0.1562 0
M  V30 12 C 2.2534 1.3344 0.7312 0
M  V30 13 C 2.5506 -0.9663 -0.1085 0
M  V30 14 C 3.2283 1.992 -0.2078 0
M  V30 15 C 3.0139 -1.5797 1.1757 0
M  V30 16 O 2.8215 2.7989 -1.0844 0
M  V30 17 O 4.5842 1.7041 -0.1167 0 CHG=-1
M  V30 18 O 4.2145 -1.4664 1.5372 0
M  V30 19 O 2.1127 -2.2626 1.9825 0 CHG=-1
M  V30 20 H -2.987 -1.3797 -0.9418 0
M  V30 21 H -1.7947 -2.6493 -0.5836 0
M  V30 22 H -0.5534 -1.1031 0.7719 0
M  V30 23 H -2.2912 0.3545 1.5759 0
M  V30 24 H -0.9054 1.2265 0.9447 0
M  V30 25 H -1.0668 -0.1433 -2.0149 0
M  V30 26 H -0.0191 -1.4821 -1.5346 0
M  V30 27 H -2.1523 1.6698 -1.2317 0
M  V30 28 H -3.5542 0.7493 -0.5841 0
M  V30 29 H 0.3772 1.4967 -0.9714 0
M  V30 30 H 1.3988 0.4267 -1.9582 0
M  V30 31 H -2.4055 3.1571 0.3781 0
M  V30 32 H 1.4797 2.0753 1.0286 0
M  V30 33 H 2.7809 1.0641 1.6708 0
M  V30 34 H 2.0629 -1.7763 -0.6891 0
M  V30 35 H 3.4166 -0.6187 -0.7126 0
M  V30 END ATOM
M  V30 BEGIN BOND
M  V30 1 2 1 2
M  V30 2 1 2 3
M  V30 3 1 2 4
M  V30 4 1 4 5
M  V30 5 1 5 6
M  V30 6 1 5 7
M  V30 7 1 6 8
M  V30 8 1 7 9
M  V30 9 1 8 10
M  V30 10 1 9 11
M  V30 11 1 11 12
M  V30 12 1 11 13
M  V30 13 1 12 14
M  V30 14 1 13 15
M  V30 15 2 14 16
M  V30 16 1 14 17
M  V30 17 2 15 18
M  V30 18 1 15 19
M  V30 19 1 4 20
M  V30 20 1 4 21
M  V30 21 1 5 22
M  V30 22 1 6 23
M  V30 23 1 6 24
M  V30 24 1 7 25
M  V30 25 1 7 26
M  V30 26 1 8 27
M  V30 27 1 8 28
M  V30 28 1 9 29
M  V30 29 1 9 30
M  V30 30 1 10 31
M  V30 31 1 12 32
M  V30 32 1 12 33
M  V30 33 1 13 34
M  V30 34 1 13 35
M  V30 END BOND
M  V30 BEGIN COLLECTION
M  V30 MDLV30/STEABS ATOMS=(1 5)
M  V30 END COLLECTION
M  V30 END CTAB
M  END
>  <Structure No>
1880

>  <LogS>
0.144421539

>  <MMFF94 Energy>
219

$$$$
Compound 1881
Actelion Java MolfileCreator 2.0

  0  0  0  0  0  0              0 V3000
M  V30 BEGIN CTAB
M  V30 COUNTS 106 111 0 0 0
M  V30 BEGIN ATOM
M  V30 1 S 3.5877 -4.241 3.0162 0
M  V30 2 O 4.8847 -3.551 3.3388 0
M  V30 3 O 3.8613 -5.683 2.6981 0
M  V30 4 O 2.5877 -4.1344 4.3608 0 CHG=-1
M  V30 5 C 2.8048 -3.4713 1.6264 0
M  V30 6 C 1.4467 -3.7211 1.3077 0
M  V30 7 C 3.5556 -2.5967 0.8256 0
M  V30 8 C 0.8907 -3.1099 0.1706 0
M  V30 9 C 0.6368 -4.6736 2.1089 0
M  V30 10 C 2.9636 -1.9225 -0.2573 0
M  V30 11 C 1.6362 -2.2144 -0.5933 0
M  V30 12 C -0.6468 -4.5048 2.4729 0
M  V30 13 N 3.7052 -1.0171 -1.097 0
M  V30 14 C -1.4684 -3.2945 2.2059 0
M  V30 15 C 4.8119 -0.1944 -0.6926 0
M  V30 16 C -2.8036 -3.4097 1.7587 0
M  V30 17 C -0.9383 -2.0158 2.448 0
M  V30 18 N 5.4305 0.5783 -1.6214 0
M  V30 19 N 5.2344 -0.1517 0.5981 0
M  V30 20 S -3.5461 -4.9844 1.4282 0
M  V30 21 C -3.5561 -2.2531 1.5122 0
M  V30 22 C -1.677 -0.8724 2.1425 0
M  V30 23 C 6.4637 1.3858 -1.2766 0
M  V30 24 C 6.2949 0.6184 0.9474 0
M  V30 25 O -3.7521 -5.7307 2.7152 0
M  V30 26 O -2.6575 -5.7819 0.5188 0
M  V30 27 O -5.0364 -4.7873 0.6721 0 CHG=-1
M  V30 28 C -2.9813 -0.9743 1.6401 0
M  V30 29 N 6.8977 1.396 0.0118 0
M  V30 30 N 7.1014 2.2133 -2.267 0
M  V30 31 N 6.7884 0.59 2.2937 0
M  V30 32 N -3.7009 0.237 1.3233 0
M  V30 33 C 7.8085 3.4382 -1.8597 0
M  V30 34 C 7.0093 1.8615 -3.69 0
M  V30 35 C 8.179 0.7477 2.6236 0
M  V30 36 C -4.8355 0.3615 0.4431 0
M  V30 37 C 6.8131 4.5642 -1.5709 0
M  V30 38 C 7.869 0.6329 -3.9913 0
M  V30 39 C 8.5429 1.2753 3.8739 0
M  V30 40 C 9.1878 0.3185 1.739 0
M  V30 41 N -5.4547 1.5657 0.3175 0
M  V30 42 N -5.2945 -0.6945 -0.2732 0
M  V30 43 O 6.2075 4.9799 -2.7647 0
M  V30 44 O 9.209 0.9045 -3.6839 0
M  V30 45 C 9.8936 1.4092 4.2153 0
M  V30 46 C 10.5351 0.4467 2.0873 0
M  V30 47 C -6.5354 1.712 -0.4987 0
M  V30 48 C -6.3965 -0.5737 -1.0538 0
M  V30 49 C 10.8868 0.998 3.322 0
M  V30 50 N -7.01 0.6313 -1.1705 0
M  V30 51 N -7.1668 3.0018 -0.6518 0
M  V30 52 N -6.9273 -1.7258 -1.7233 0
M  V30 53 C -6.605 4.1841 0.0164 0
M  V30 54 C -8.3156 3.17 -1.56 0
M  V30 55 C -8.3321 -1.9059 -1.9695 0
M  V30 56 C -5.4164 4.7344 -0.7813 0
M  V30 57 C -9.6013 2.6256 -0.9308 0
M  V30 58 C -9.3004 -1.3656 -1.0973 0
M  V30 59 C -8.7551 -2.6735 -3.0659 0
M  V30 60 O -4.8417 5.8276 -0.1216 0
M  V30 61 O -9.8427 3.2628 0.2934 0
M  V30 62 C -10.6617 -1.5577 -1.3507 0
M  V30 63 C -10.1196 -2.8622 -3.3156 0
M  V30 64 C -11.072 -2.2931 -2.4641 0
M  V30 65 H 4.605 -2.467 1.0395 0
M  V30 66 H -0.1225 -3.336 -0.1343 0
M  V30 67 H 1.1192 -5.5904 2.4202 0
M  V30 68 H 1.1779 -1.7385 -1.4502 0
M  V30 69 H -1.1228 -5.3241 2.9964 0
M  V30 70 H 3.3547 -0.868 -2.0692 0
M  V30 71 H 0.0643 -1.8991 2.8425 0
M  V30 72 H -4.5947 -2.3694 1.2492 0
M  V30 73 H -1.2246 0.1015 2.2895 0
M  V30 74 H 6.1101 0.403 3.0676 0
M  V30 75 H -3.3299 1.1338 1.7204 0
M  V30 76 H 8.5125 3.7689 -2.6573 0
M  V30 77 H 8.4325 3.2405 -0.9608 0
M  V30 78 H 5.9525 1.6621 -3.9624 0
M  V30 79 H 7.3536 2.7012 -4.3303 0
M  V30 80 H 6.0363 4.2259 -0.8535 0
M  V30 81 H 7.3654 5.4166 -1.1184 0
M  V30 82 H 7.7751 0.3746 -5.0717 0
M  V30 83 H 7.5148 -0.2328 -3.39 0
M  V30 84 H 7.78 1.5842 4.5768 0
M  V30 85 H 8.9371 -0.1312 0.7867 0
M  V30 86 H 5.7143 5.812 -2.551 0
M  V30 87 H 9.7226 0.0974 -3.951 0
M  V30 88 H 10.1703 1.824 5.1759 0
M  V30 89 H 11.3058 0.104 1.4061 0
M  V30 90 H 11.9323 1.1023 3.5858 0
M  V30 91 H -6.2645 -2.4762 -2.0175 0
M  V30 92 H -6.2916 3.9225 1.0511 0
M  V30 93 H -7.3778 4.9791 0.1169 0
M  V30 94 H -8.1174 2.6527 -2.5257 0
M  V30 95 H -8.4664 4.2473 -1.805 0
M  V30 96 H -4.6543 3.9439 -0.9443 0
M  V30 97 H -5.7778 5.0711 -1.7748 0
M  V30 98 H -9.5183 1.53 -0.7995 0
M  V30 99 H -10.4488 2.8244 -1.6245 0
M  V30 100 H -9.0061 -0.8148 -0.2134 0
M  V30 101 H -8.0255 -3.1204 -3.7294 0
M  V30 102 H -4.4579 5.4811 0.7301 0
M  V30 103 H -10.5421 2.7258 0.7535 0
M  V30 104 H -11.3974 -1.1388 -0.6766 0
M  V30 105 H -10.4401 -3.4473 -4.1678 0
M  V30 106 H -12.1277 -2.4328 -2.6586 0
M  V30 END ATOM
M  V30 BEGIN BOND
M  V30 1 2 1 2
M  V30 2 2 1 3
M  V30 3 1 1 4
M  V30 4 1 1 5
M  V30 5 2 5 6
M  V30 6 1 5 7
M  V30 7 1 6 8
M  V30 8 1 6 9
M  V30 9 2 7 10
M  V30 10 2 8 11
M  V30 11 2 9 12
M  V30 12 1 10 13
M  V30 13 1 12 14
M  V30 14 1 13 15
M  V30 15 2 14 16
M  V30 16 1 14 17
M  V30 17 2 15 18
M  V30 18 1 15 19
M  V30 19 1 16 20
M  V30 20 1 16 21
M  V30 21 2 17 22
M  V30 22 1 18 23
M  V30 23 2 19 24
M  V30 24 2 20 25
M  V30 25 2 20 26
M  V30 26 1 20 27
M  V30 27 2 21 28
M  V30 28 2 23 29
M  V30 29 1 23 30
M  V30 30 1 24 31
M  V30 31 1 28 32
M  V30 32 1 30 33
M  V30 33 1 30 34
M  V30 34 1 31 35
M  V30 35 1 32 36
M  V30 36 1 33 37
M  V30 37 1 34 38
M  V30 38 2 35 39
M  V30 39 1 35 40
M  V30 40 2 36 41
M  V30 41 1 36 42
M  V30 42 1 37 43
M  V30 43 1 38 44
M  V30 44 1 39 45
M  V30 45 2 40 46
M  V30 46 1 41 47
M  V30 47 2 42 48
M  V30 48 2 45 49
M  V30 49 2 47 50
M  V30 50 1 47 51
M  V30 51 1 48 52
M  V30 52 1 51 53
M  V30 53 1 51 54
M  V30 54 1 52 55
M  V30 55 1 53 56
M  V30 56 1 54 57
M  V30 57 2 55 58
M  V30 58 1 55 59
M  V30 59 1 56 60
M  V30 60 1 57 61
M  V30 61 1 58 62
M  V30 62 2 59 63
M  V30 63 2 62 64
M  V30 64 1 10 11
M  V30 65 1 22 28
M  V30 66 1 24 29
M  V30 67 1 46 49
M  V30 68 1 48 50
M  V30 69 1 63 64
M  V30 70 1 7 65
M  V30 71 1 8 66
M  V30 72 1 9 67
M  V30 73 1 11 68
M  V30 74 1 12 69
M  V30 75 1 13 70
M  V30 76 1 17 71
M  V30 77 1 21 72
M  V30 78 1 22 73
M  V30 79 1 31 74
M  V30 80 1 32 75
M  V30 81 1 33 76
M  V30 82 1 33 77
M  V30 83 1 34 78
M  V30 84 1 34 79
M  V30 85 1 37 80
M  V30 86 1 37 81
M  V30 87 1 38 82
M  V30 88 1 38 83
M  V30 89 1 39 84
M  V30 90 1 40 85
M  V30 91 1 43 86
M  V30 92 1 44 87
M  V30 93 1 45 88
M  V30 94 1 46 89
M  V30 95 1 49 90
M  V30 96 1 52 91
M  V30 97 1 53 92
M  V30 98 1 53 93
M  V30 99 1 54 94
M  V30 100 1 54 95
M  V30 101 1 56 96
M  V30 102 1 56 97
M  V30 103 1 57 98
M  V30 104 1 57 99
M  V30 105 1 58 100
M  V30 106 1 59 101
M  V30 107 1 60 102
M  V30 108 1 61 103
M  V30 109 1 62 104
M  V30 110 1 63 105
M  V30 111 1 64 106
M  V30 END BOND
M  V30 END CTAB
M  END
>  <Structure No>
1881

>  <LogS>
-1.29966008

>  <MMFF94 Energy>
-255.75

$$$$
Compound 1882
Actelion Java MolfileCreator 2.0

  0  0  0  0  0  0              0 V3000
M  V30 BEGIN CTAB
M  V30 COUNTS 11 10 0 0 0
M  V30 BEGIN ATOM
M  V30 1 O -1.566 -1.2526 0.7827 0
M  V30 2 C -1.1751 -0.6275 -0.2385 0
M  V30 3 O -1.7426 -0.9098 -1.4746 0 CHG=-1
M  V30 4 C -0.0714 0.3846 -0.1337 0 CFG=1
M  V30 5 O -0.2598 1.1914 0.9989 0
M  V30 6 C 1.2794 -0.3182 -0.0341 0
M  V30 7 H -0.0656 1.0186 -1.0504 0
M  V30 8 H -1.003 1.8147 0.7854 0
M  V30 9 H 2.092 0.4369 0.0218 0
M  V30 10 H 1.3219 -0.9548 0.8757 0
M  V30 11 H 1.4499 -0.9526 -0.9304 0
M  V30 END ATOM
M  V30 BEGIN BOND
M  V30 1 2 1 2
M  V30 2 1 2 3
M  V30 3 1 2 4
M  V30 4 1 4 5
M  V30 5 1 4 6
M  V30 6 1 4 7
M  V30 7 1 5 8
M  V30 8 1 6 9
M  V30 9 1 6 10
M  V30 10 1 6 11
M  V30 END BOND
M  V30 BEGIN COLLECTION
M  V30 MDLV30/STEABS ATOMS=(1 4)
M  V30 END COLLECTION
M  V30 END CTAB
M  END
>  <Structure No>
1882

>  <LogS>
-0.70350543

>  <MMFF94 Energy>
53.629

$$$$
Compound 1883
Actelion Java MolfileCreator 2.0

  0  0  0  0  0  0              0 V3000
M  V30 BEGIN CTAB
M  V30 COUNTS 16 15 0 0 0
M  V30 BEGIN ATOM
M  V30 1 O 2.4256 1.2513 -1.0948 0
M  V30 2 C 2.1221 0.3781 -0.24 0
M  V30 3 O 2.8896 0.2454 0.91 0 CHG=-1
M  V30 4 C 0.9208 -0.4939 -0.4445 0
M  V30 5 C -0.2674 -0.0456 0.4305 0
M  V30 6 C -0.801 1.3279 -0.0032 0
M  V30 7 C -1.3914 -1.087 0.3694 0
M  V30 8 H 0.6291 -0.4911 -1.5181 0
M  V30 9 H 1.2075 -1.5346 -0.1793 0
M  V30 10 H 0.0696 0.0266 1.4888 0
M  V30 11 H -1.6653 1.621 0.6302 0
M  V30 12 H -0.017 2.1049 0.1151 0
M  V30 13 H -1.1274 1.3044 -1.0651 0
M  V30 14 H -1.0225 -2.0715 0.7282 0
M  V30 15 H -2.2364 -0.7796 1.022 0
M  V30 16 H -1.7643 -1.201 -0.6711 0
M  V30 END ATOM
M  V30 BEGIN BOND
M  V30 1 2 1 2
M  V30 2 1 2 3
M  V30 3 1 2 4
M  V30 4 1 4 5
M  V30 5 1 5 6
M  V30 6 1 5 7
M  V30 7 1 4 8
M  V30 8 1 4 9
M  V30 9 1 5 10
M  V30 10 1 6 11
M  V30 11 1 6 12
M  V30 12 1 6 13
M  V30 13 1 7 14
M  V30 14 1 7 15
M  V30 15 1 7 16
M  V30 END BOND
M  V30 END CTAB
M  END
>  <Structure No>
1883

>  <LogS>
-0.327924852

>  <MMFF94 Energy>
6.2384

$$$$
Compound 1884
Actelion Java MolfileCreator 2.0

  0  0  0  0  0  0              0 V3000
M  V30 BEGIN CTAB
M  V30 COUNTS 18 17 0 0 0
M  V30 BEGIN ATOM
M  V30 1 O 1.1547 -1.9801 1.7324 0
M  V30 2 C 0.6589 -0.83 1.5913 0
M  V30 3 O 0.6584 0.0449 2.6723 0 CHG=-1
M  V30 4 C 0.0572 -0.4053 0.2685 0
M  V30 5 O 0.241 -1.4499 -0.6632 0
M  V30 6 C 0.759 0.8941 -0.2208 0
M  V30 7 C -1.4594 -0.1694 0.4983 0
M  V30 8 C 2.2302 0.6975 -0.4436 0
M  V30 9 C -2.207 0.1876 -0.7534 0
M  V30 10 O 2.6493 0.2303 -1.5353 0
M  V30 11 O 3.1339 0.9969 0.568 0 CHG=-1
M  V30 12 O -2.3804 1.3949 -1.0669 0
M  V30 13 O -2.6967 -0.8142 -1.582 0 CHG=-1
M  V30 14 H 0.0032 -1.1117 -1.5655 0
M  V30 15 H 0.3076 1.2397 -1.1755 0
M  V30 16 H 0.6114 1.7105 0.5197 0
M  V30 17 H -1.916 -1.0921 0.9198 0
M  V30 18 H -1.6094 0.6397 1.2477 0
M  V30 END ATOM
M  V30 BEGIN BOND
M  V30 1 2 1 2
M  V30 2 1 2 3
M  V30 3 1 2 4
M  V30 4 1 4 5
M  V30 5 1 4 6
M  V30 6 1 4 7
M  V30 7 1 6 8
M  V30 8 1 7 9
M  V30 9 2 8 10
M  V30 10 1 8 11
M  V30 11 2 9 12
M  V30 12 1 9 13
M  V30 13 1 5 14
M  V30 14 1 6 15
M  V30 15 1 6 16
M  V30 16 1 7 17
M  V30 17 1 7 18
M  V30 END BOND
M  V30 END CTAB
M  END
>  <Structure No>
1884

>  <LogS>
0.221876471

>  <MMFF94 Energy>
240.18

$$$$
Compound 1885
Actelion Java MolfileCreator 2.0

  0  0  0  0  0  0              0 V3000
M  V30 BEGIN CTAB
M  V30 COUNTS 59 61 0 0 0
M  V30 BEGIN ATOM
M  V30 1 O -3.1319 -4.0166 -2.1674 0
M  V30 2 C -3.678 -2.9613 -1.7451 0
M  V30 3 O -4.9231 -2.5943 -2.2394 0 CHG=-1
M  V30 4 C -2.968 -2.0551 -0.7697 0 CFG=2
M  V30 5 N -2.1117 -1.1073 -1.516 0
M  V30 6 C -2.1695 -2.8312 0.3197 0
M  V30 7 C -2.5431 0.2601 -1.6703 0
M  V30 8 C -0.9688 -1.5791 -2.3228 0
M  V30 9 C -1.5118 -1.8682 1.3229 0
M  V30 10 C -3.0698 -3.812 1.0916 0
M  V30 11 O -2.5879 0.774 -2.8205 0
M  V30 12 C -2.9205 1.1027 -0.4818 0
M  V30 13 C 0.333 -1.1118 -1.7242 0
M  V30 14 C -1.9638 2.2918 -0.3311 0
M  V30 15 C 1.1445 -2.002 -1.0006 0
M  V30 16 C 0.723 0.2323 -1.8379 0
M  V30 17 C -2.3393 3.152 0.8804 0
M  V30 18 C 2.3006 -1.5452 -0.3632 0
M  V30 19 C 1.8738 0.6911 -1.1924 0
M  V30 20 C -1.4193 4.3663 0.9991 0
M  V30 21 C 2.657 -0.1918 -0.4358 0
M  V30 22 C 3.8458 0.3022 0.2845 0
M  V30 23 C 3.7481 1.1782 1.3991 0
M  V30 24 C 5.1117 -0.081 -0.1898 0
M  V30 25 C 2.4471 1.5585 2.0129 0
M  V30 26 C 4.9333 1.6758 1.9743 0
M  V30 27 C 6.2722 0.4114 0.4067 0
M  V30 28 N 1.2812 0.9081 1.8278 0
M  V30 29 N 2.2908 2.572 2.887 0 CHG=-1
M  V30 30 C 6.1832 1.2952 1.4806 0
M  V30 31 N 0.408 1.545 2.5924 0
M  V30 32 N 1.0111 2.5395 3.2243 0
M  V30 33 H -3.7692 -1.495 -0.2385 0
M  V30 34 H -1.3673 -3.4262 -0.1646 0
M  V30 35 H -1.0556 -1.2079 -3.3669 0
M  V30 36 H -0.9669 -2.6863 -2.3973 0
M  V30 37 H -0.8571 -2.4332 2.02 0
M  V30 38 H -2.2836 -1.3342 1.9174 0
M  V30 39 H -0.8828 -1.1148 0.8087 0
M  V30 40 H -2.4875 -4.3204 1.89 0
M  V30 41 H -3.9239 -3.275 1.5582 0
M  V30 42 H -3.4664 -4.6005 0.4187 0
M  V30 43 H -3.961 1.4694 -0.6203 0
M  V30 44 H -2.8872 0.5018 0.4484 0
M  V30 45 H -0.9247 1.9159 -0.1997 0
M  V30 46 H -2.0022 2.9168 -1.2513 0
M  V30 47 H 0.8762 -3.0466 -0.9135 0
M  V30 48 H 0.1269 0.9322 -2.4088 0
M  V30 49 H -2.2614 2.5458 1.8095 0
M  V30 50 H -3.3873 3.5094 0.7792 0
M  V30 51 H 2.9043 -2.2398 0.2075 0
M  V30 52 H 2.1465 1.7365 -1.2683 0
M  V30 53 H -1.5041 5.0026 0.0924 0
M  V30 54 H -0.3628 4.0441 1.1225 0
M  V30 55 H -1.712 4.9703 1.8832 0
M  V30 56 H 5.199 -0.7495 -1.0383 0
M  V30 57 H 4.896 2.3489 2.8224 0
M  V30 58 H 7.2421 0.1155 0.0293 0
M  V30 59 H 7.0851 1.6811 1.9386 0
M  V30 END ATOM
M  V30 BEGIN BOND
M  V30 1 2 1 2
M  V30 2 1 2 3
M  V30 3 1 2 4
M  V30 4 1 4 5
M  V30 5 1 4 6
M  V30 6 1 5 7
M  V30 7 1 5 8
M  V30 8 1 6 9
M  V30 9 1 6 10
M  V30 10 2 7 11
M  V30 11 1 7 12
M  V30 12 1 8 13
M  V30 13 1 12 14
M  V30 14 2 13 15
M  V30 15 1 13 16
M  V30 16 1 14 17
M  V30 17 1 15 18
M  V30 18 2 16 19
M  V30 19 1 17 20
M  V30 20 2 18 21
M  V30 21 1 21 22
M  V30 22 2 22 23
M  V30 23 1 22 24
M  V30 24 1 23 25
M  V30 25 1 23 26
M  V30 26 2 24 27
M  V30 27 2 25 28
M  V30 28 1 25 29
M  V30 29 2 26 30
M  V30 30 1 28 31
M  V30 31 1 29 32
M  V30 32 1 19 21
M  V30 33 1 27 30
M  V30 34 2 31 32
M  V30 35 1 4 33
M  V30 36 1 6 34
M  V30 37 1 8 35
M  V30 38 1 8 36
M  V30 39 1 9 37
M  V30 40 1 9 38
M  V30 41 1 9 39
M  V30 42 1 10 40
M  V30 43 1 10 41
M  V30 44 1 10 42
M  V30 45 1 12 43
M  V30 46 1 12 44
M  V30 47 1 14 45
M  V30 48 1 14 46
M  V30 49 1 15 47
M  V30 50 1 16 48
M  V30 51 1 17 49
M  V30 52 1 17 50
M  V30 53 1 18 51
M  V30 54 1 19 52
M  V30 55 1 20 53
M  V30 56 1 20 54
M  V30 57 1 20 55
M  V30 58 1 24 56
M  V30 59 1 26 57
M  V30 60 1 27 58
M  V30 61 1 30 59
M  V30 END BOND
M  V30 BEGIN COLLECTION
M  V30 MDLV30/STEABS ATOMS=(1 4)
M  V30 END COLLECTION
M  V30 END CTAB
M  END
>  <Structure No>
1885

>  <LogS>
-2.735926094

>  <MMFF94 Energy>
147.74

$$$$
Compound 1886
Actelion Java MolfileCreator 2.0

  0  0  0  0  0  0              0 V3000
M  V30 BEGIN CTAB
M  V30 COUNTS 28 28 0 0 0
M  V30 BEGIN ATOM
M  V30 1 O -0.7798 3.1223 2.1067 0
M  V30 2 C -0.454 1.8337 1.6621 0
M  V30 3 C -1.0439 1.5885 0.2718 0
M  V30 4 N -0.7511 0.2231 -0.1837 0
M  V30 5 C 0.5819 -0.0996 -0.6056 0
M  V30 6 C -1.8321 -0.7388 -0.4381 0
M  V30 7 C 1.4865 -0.6822 0.294 0
M  V30 8 C 0.9861 0.1666 -1.9216 0
M  V30 9 C -1.7355 -1.9388 0.5075 0
M  V30 10 C 2.7846 -0.9957 -0.1204 0
M  V30 11 C 2.2849 -0.1476 -2.3338 0
M  V30 12 O -1.7721 -1.5221 1.8455 0
M  V30 13 C 3.1837 -0.7285 -1.4336 0
M  V30 14 H -1.7251 3.0884 2.4089 0
M  V30 15 H -0.8298 1.0694 2.3796 0
M  V30 16 H 0.652 1.7494 1.6171 0
M  V30 17 H -2.1404 1.7648 0.3139 0
M  V30 18 H -0.6186 2.3214 -0.448 0
M  V30 19 H -1.7738 -1.0943 -1.4899 0
M  V30 20 H -2.829 -0.2646 -0.31 0
M  V30 21 H 1.1834 -0.891 1.3123 0
M  V30 22 H 0.2941 0.6163 -2.6225 0
M  V30 23 H -2.5708 -2.6457 0.3018 0
M  V30 24 H -0.786 -2.4845 0.3257 0
M  V30 25 H 3.4807 -1.4451 0.5758 0
M  V30 26 H 2.5945 0.0587 -3.35 0
M  V30 27 H -2.7097 -1.2556 2.0344 0
M  V30 28 H 4.1887 -0.9715 -1.7534 0
M  V30 END ATOM
M  V30 BEGIN BOND
M  V30 1 1 1 2
M  V30 2 1 2 3
M  V30 3 1 3 4
M  V30 4 1 4 5
M  V30 5 1 4 6
M  V30 6 2 5 7
M  V30 7 1 5 8
M  V30 8 1 6 9
M  V30 9 1 7 10
M  V30 10 2 8 11
M  V30 11 1 9 12
M  V30 12 2 10 13
M  V30 13 1 11 13
M  V30 14 1 1 14
M  V30 15 1 2 15
M  V30 16 1 2 16
M  V30 17 1 3 17
M  V30 18 1 3 18
M  V30 19 1 6 19
M  V30 20 1 6 20
M  V30 21 1 7 21
M  V30 22 1 8 22
M  V30 23 1 9 23
M  V30 24 1 9 24
M  V30 25 1 10 25
M  V30 26 1 11 26
M  V30 27 1 12 27
M  V30 28 1 13 28
M  V30 END BOND
M  V30 END CTAB
M  END
>  <Structure No>
1886

>  <LogS>
-0.583380931

>  <MMFF94 Energy>
63.742

$$$$
Compound 1887
Actelion Java MolfileCreator 2.0

  0  0  0  0  0  0              0 V3000
M  V30 BEGIN CTAB
M  V30 COUNTS 15 14 0 0 0
M  V30 BEGIN ATOM
M  V30 1 O 1.1595 -1.0049 -0.9275 0
M  V30 2 C 0.8497 -0.0373 -0.1776 0
M  V30 3 O -0.4904 0.253 0.0877 0
M  V30 4 O 1.842 0.7586 0.399 0
M  V30 5 C -1.5635 -0.5067 -0.4586 0
M  V30 6 C 3.2293 0.532 0.181 0
M  V30 7 C -2.8886 0.064 0.0206 0
M  V30 8 H -1.4796 -1.5654 -0.13 0
M  V30 9 H -1.5262 -0.465 -1.5689 0
M  V30 10 H 3.815 1.2894 0.7413 0
M  V30 11 H 3.4642 0.6236 -0.9006 0
M  V30 12 H 3.5109 -0.4797 0.542 0
M  V30 13 H -2.9882 1.12 -0.3084 0
M  V30 14 H -3.7273 -0.5268 -0.4041 0
M  V30 15 H -2.9417 0.0206 1.1291 0
M  V30 END ATOM
M  V30 BEGIN BOND
M  V30 1 2 1 2
M  V30 2 1 2 3
M  V30 3 1 2 4
M  V30 4 1 3 5
M  V30 5 1 4 6
M  V30 6 1 5 7
M  V30 7 1 5 8
M  V30 8 1 5 9
M  V30 9 1 6 10
M  V30 10 1 6 11
M  V30 11 1 6 12
M  V30 12 1 7 13
M  V30 13 1 7 14
M  V30 14 1 7 15
M  V30 END BOND
M  V30 END CTAB
M  END
>  <Structure No>
1887

>  <LogS>
-0.344450681

>  <MMFF94 Energy>
-32.952

$$$$
Compound 1888
Actelion Java MolfileCreator 2.0

  0  0  0  0  0  0              0 V3000
M  V30 BEGIN CTAB
M  V30 COUNTS 18 17 0 0 0
M  V30 BEGIN ATOM
M  V30 1 O -3.2893 0.1602 0.0 0
M  V30 2 C -2.5002 -0.8108 -0.1407 0
M  V30 3 O -2.689 -1.9651 0.6086 0 CHG=-1
M  V30 4 C -1.343 -0.7121 -1.0869 0
M  V30 5 C -0.0216 -0.4682 -0.3462 0
M  V30 6 C 0.0441 0.9368 0.2771 0
M  V30 7 C 1.3652 1.1808 1.0189 0
M  V30 8 C 2.5257 1.269 0.0757 0
M  V30 9 O 2.7217 2.3194 -0.5905 0
M  V30 10 O 3.3719 0.1801 -0.0912 0 CHG=-1
M  V30 11 H -1.2679 -1.6674 -1.6494 0
M  V30 12 H -1.5203 0.098 -1.8279 0
M  V30 13 H 0.1135 -1.2408 0.4427 0
M  V30 14 H 0.8067 -0.5826 -1.0781 0
M  V30 15 H -0.0903 1.7094 -0.5119 0
M  V30 16 H -0.7847 1.0518 1.0085 0
M  V30 17 H 1.2907 2.1358 1.5828 0
M  V30 18 H 1.5417 0.37 1.7586 0
M  V30 END ATOM
M  V30 BEGIN BOND
M  V30 1 2 1 2
M  V30 2 1 2 3
M  V30 3 1 2 4
M  V30 4 1 4 5
M  V30 5 1 5 6
M  V30 6 1 6 7
M  V30 7 1 7 8
M  V30 8 2 8 9
M  V30 9 1 8 10
M  V30 10 1 4 11
M  V30 11 1 4 12
M  V30 12 1 5 13
M  V30 13 1 5 14
M  V30 14 1 6 15
M  V30 15 1 6 16
M  V30 16 1 7 17
M  V30 17 1 7 18
M  V30 END BOND
M  V30 END CTAB
M  END
>  <Structure No>
1888

>  <LogS>
0.251364785

>  <MMFF94 Energy>
48.013

$$$$
Compound 1889
Actelion Java MolfileCreator 2.0

  0  0  0  0  0  0              0 V3000
M  V30 BEGIN CTAB
M  V30 COUNTS 5 4 0 0 0
M  V30 BEGIN ATOM
M  V30 1 Cl 0.0 0.0 0.0 0
M  V30 2 O 1.6741 -0.2655 -0.2523 0
M  V30 3 O -0.287 1.6409 0.1686 0
M  V30 4 O -0.8707 -0.5929 -1.3288 0
M  V30 5 O -0.5036 -0.8193 1.4307 0 CHG=-1
M  V30 END ATOM
M  V30 BEGIN BOND
M  V30 1 2 1 2
M  V30 2 2 1 3
M  V30 3 2 1 4
M  V30 4 1 1 5
M  V30 END BOND
M  V30 END CTAB
M  END
>  <Structure No>
1889

>  <LogS>
0.461218862

>  <MMFF94 Energy>
1.2794e-7

$$$$
Compound 1890
Actelion Java MolfileCreator 2.0

  0  0  0  0  0  0              0 V3000
M  V30 BEGIN CTAB
M  V30 COUNTS 17 16 0 0 0
M  V30 BEGIN ATOM
M  V30 1 S -2.673 0.092 0.2763 0
M  V30 2 O -3.8043 -0.8957 0.2294 0
M  V30 3 O -2.9668 1.2202 -0.6722 0
M  V30 4 O -2.5404 0.698 1.8379 0 CHG=-1
M  V30 5 C -1.1538 -0.7317 -0.196 0
M  V30 6 F -0.9462 -1.7838 0.6788 0
M  V30 7 F -1.3187 -1.2409 -1.4724 0
M  V30 8 C 0.0518 0.2364 -0.1601 0
M  V30 9 F -0.1921 1.2868 -1.0305 0
M  V30 10 F 0.1763 0.7475 1.1218 0
M  V30 11 C 1.3788 -0.4598 -0.5618 0
M  V30 12 F 1.2669 -0.9723 -1.8442 0
M  V30 13 F 1.6368 -1.5081 0.3065 0
M  V30 14 C 2.5835 0.4962 -0.5306 0
M  V30 15 F 3.7248 -0.194 -0.8979 0
M  V30 16 F 2.7703 1.0061 0.7421 0
M  V30 17 F 2.4 1.5428 -1.417 0
M  V30 END ATOM
M  V30 BEGIN BOND
M  V30 1 2 1 2
M  V30 2 2 1 3
M  V30 3 1 1 4
M  V30 4 1 1 5
M  V30 5 1 5 6
M  V30 6 1 5 7
M  V30 7 1 5 8
M  V30 8 1 8 9
M  V30 9 1 8 10
M  V30 10 1 8 11
M  V30 11 1 11 12
M  V30 12 1 11 13
M  V30 13 1 11 14
M  V30 14 1 14 15
M  V30 15 1 14 16
M  V30 16 1 14 17
M  V30 END BOND
M  V30 END CTAB
M  END
>  <Structure No>
1890

>  <LogS>
-0.864516218

>  <MMFF94 Energy>
111.45

$$$$
Compound 1891
Actelion Java MolfileCreator 2.0

  0  0  0  0  0  0              0 V3000
M  V30 BEGIN CTAB
M  V30 COUNTS 49 51 0 0 0
M  V30 BEGIN ATOM
M  V30 1 S 3.4515 -1.7647 -1.524 0
M  V30 2 C 2.4933 -0.5512 -0.8484 0
M  V30 3 C 4.8686 -1.0709 -0.9612 0
M  V30 4 N 3.2389 0.408 -0.2174 0 CHG=1
M  V30 5 N 1.0614 -0.5974 -0.9139 0
M  V30 6 C 4.5736 0.0916 -0.2603 0
M  V30 7 C 6.1671 -1.5486 -1.1113 0
M  V30 8 C 2.6841 1.6149 0.41 0
M  V30 9 N 0.311 0.1063 -0.1666 0
M  V30 10 C 5.6201 0.8127 0.3405 0
M  V30 11 C 7.2218 -0.8303 -0.528 0
M  V30 12 C -1.1176 0.0475 -0.2467 0
M  V30 13 C 6.9398 0.3518 0.2004 0
M  V30 14 O 8.5261 -1.3219 -0.6862 0
M  V30 15 C -1.772 -0.7947 -1.1644 0
M  V30 16 C -1.8781 0.8495 0.6132 0
M  V30 17 C 9.69 -0.6955 -0.1568 0
M  V30 18 C -3.1688 -0.8277 -1.2158 0
M  V30 19 C -3.2746 0.814 0.5623 0
M  V30 20 C -3.9254 -0.0214 -0.3553 0
M  V30 21 N -5.359 -0.0673 -0.4026 0
M  V30 22 C -6.0595 -1.1912 0.2334 0
M  V30 23 C -6.0796 0.8917 -1.25 0
M  V30 24 C -5.984 -1.0755 1.7575 0
M  V30 25 C -6.1829 2.2488 -0.5621 0
M  V30 26 O -6.6859 -2.1293 2.3585 0
M  V30 27 H 6.3578 -2.4627 -1.6605 0
M  V30 28 H 1.8786 2.0433 -0.2219 0
M  V30 29 H 2.2892 1.3684 1.4182 0
M  V30 30 H 3.4388 2.4193 0.4992 0
M  V30 31 H 5.4437 1.7024 0.9265 0
M  V30 32 H 7.734 0.9182 0.6672 0
M  V30 33 H -1.2065 -1.4244 -1.8393 0
M  V30 34 H -1.3861 1.5007 1.3245 0
M  V30 35 H 9.8016 0.3246 -0.5822 0
M  V30 36 H 10.5816 -1.2953 -0.4328 0
M  V30 37 H 9.6258 -0.6438 0.9509 0
M  V30 38 H -3.6642 -1.4787 -1.9251 0
M  V30 39 H -3.8501 1.4301 1.2411 0
M  V30 40 H -7.1284 -1.2141 -0.0693 0
M  V30 41 H -5.6005 -2.1506 -0.0907 0
M  V30 42 H -7.1062 0.5298 -1.4726 0
M  V30 43 H -5.5541 1.0054 -2.2236 0
M  V30 44 H -4.9236 -1.1304 2.0832 0
M  V30 45 H -6.3958 -0.0938 2.0859 0
M  V30 46 H -5.1795 2.7159 -0.479 0
M  V30 47 H -6.8336 2.922 -1.1593 0
M  V30 48 H -6.621 2.1322 0.4524 0
M  V30 49 H -7.6485 -1.8873 2.3232 0
M  V30 END ATOM
M  V30 BEGIN BOND
M  V30 1 1 1 2
M  V30 2 1 1 3
M  V30 3 2 2 4
M  V30 4 1 2 5
M  V30 5 2 3 6
M  V30 6 1 3 7
M  V30 7 1 4 8
M  V30 8 2 5 9
M  V30 9 1 6 10
M  V30 10 2 7 11
M  V30 11 1 9 12
M  V30 12 2 10 13
M  V30 13 1 11 14
M  V30 14 2 12 15
M  V30 15 1 12 16
M  V30 16 1 14 17
M  V30 17 1 15 18
M  V30 18 2 16 19
M  V30 19 2 18 20
M  V30 20 1 20 21
M  V30 21 1 21 22
M  V30 22 1 21 23
M  V30 23 1 22 24
M  V30 24 1 23 25
M  V30 25 1 24 26
M  V30 26 1 4 6
M  V30 27 1 11 13
M  V30 28 1 19 20
M  V30 29 1 7 27
M  V30 30 1 8 28
M  V30 31 1 8 29
M  V30 32 1 8 30
M  V30 33 1 10 31
M  V30 34 1 13 32
M  V30 35 1 15 33
M  V30 36 1 16 34
M  V30 37 1 17 35
M  V30 38 1 17 36
M  V30 39 1 17 37
M  V30 40 1 18 38
M  V30 41 1 19 39
M  V30 42 1 22 40
M  V30 43 1 22 41
M  V30 44 1 23 42
M  V30 45 1 23 43
M  V30 46 1 24 44
M  V30 47 1 24 45
M  V30 48 1 25 46
M  V30 49 1 25 47
M  V30 50 1 25 48
M  V30 51 1 26 49
M  V30 END BOND
M  V30 END CTAB
M  END
>  <Structure No>
1891

>  <LogS>
-0.946771482

>  <MMFF94 Energy>
70.239

$$$$
Compound 1892
Actelion Java MolfileCreator 2.0

  0  0  0  0  0  0              0 V3000
M  V30 BEGIN CTAB
M  V30 COUNTS 58 59 0 0 0
M  V30 BEGIN ATOM
M  V30 1 S 1.1357 -0.1621 0.4055 0
M  V30 2 O 0.7884 -0.2147 1.866 0
M  V30 3 O 2.4029 -0.9332 0.1768 0
M  V30 4 O -0.104 -0.8655 -0.5096 0
M  V30 5 O 1.3823 1.4338 -0.0598 0 CHG=-1
M  V30 6 C -1.2363 -0.0402 -0.4244 0
M  V30 7 S 3.4997 -1.1846 -1.5322 0
M  V30 8 C 2.4589 -0.4979 -0.399 0
M  V30 9 C 4.8626 -0.5813 -0.7705 0
M  V30 10 N 3.135 0.1775 0.5806 0 CHG=1
M  V30 11 N 1.0337 -0.6007 -0.5291 0
M  V30 12 C 4.4876 0.1499 0.3482 0
M  V30 13 C 6.1914 -0.7388 -1.1564 0
M  V30 14 C 2.4964 0.8124 1.743 0
M  V30 15 N 0.2175 0.0077 0.2301 0
M  V30 16 C 5.4824 0.7855 1.1099 0
M  V30 17 C 7.1938 -0.1267 -0.3905 0
M  V30 18 C -1.2011 -0.1066 0.0783 0
M  V30 19 C 6.8305 0.6429 0.7411 0
M  V30 20 O 8.5294 -0.3012 -0.7839 0
M  V30 21 C -1.7733 -0.8233 -0.985 0
M  V30 22 C -2.0352 0.5072 1.0168 0
M  V30 23 C 9.6483 0.26 -0.1043 0
M  V30 24 C -3.1632 -0.9184 -1.1023 0
M  V30 25 C -3.4243 0.4 0.9113 0
M  V30 26 C -4.0114 -0.3148 -0.1546 0
M  V30 27 N -5.4553 -0.4262 -0.2725 0
M  V30 28 C -6.3308 0.6974 0.1173 0
M  V30 29 C -6.0693 -1.6816 -0.7468 0
M  V30 30 C -6.0342 1.9472 -0.7171 0
M  V30 31 C -5.7618 -2.835 0.2089 0
M  V30 32 O -6.9328 2.9733 -0.395 0
M  V30 33 H -1.5616 0.0959 0.6296 0
M  V30 34 H -2.0696 -0.5289 -0.9703 0
M  V30 35 H -1.051 0.9423 -0.9086 0
M  V30 36 H 6.4448 -1.322 -2.0328 0
M  V30 37 H 3.2138 1.0084 2.5602 0
M  V30 38 H 2.0182 1.7687 1.4357 0
M  V30 39 H 1.7393 0.1336 2.1845 0
M  V30 40 H 5.2474 1.4034 1.9633 0
M  V30 41 H 7.5837 1.1372 1.3385 0
M  V30 42 H -1.1478 -1.3053 -1.7268 0
M  V30 43 H -1.605 1.0603 1.8408 0
M  V30 44 H 9.6892 -0.1162 0.9384 0
M  V30 45 H 10.5784 -0.0398 -0.627 0
M  V30 46 H 9.5818 1.3681 -0.1077 0
M  V30 47 H -3.566 -1.4572 -1.9487 0
M  V30 48 H -4.0326 0.871 1.6691 0
M  V30 49 H -6.2121 0.9208 1.1983 0
M  V30 50 H -7.4011 0.4391 -0.0203 0
M  V30 51 H -7.1753 -1.5887 -0.8192 0
M  V30 52 H -5.7166 -1.9283 -1.7699 0
M  V30 53 H -6.1466 1.7042 -1.7911 0
M  V30 54 H -4.9929 2.29 -0.5513 0
M  V30 55 H -4.6674 -3.0128 0.2687 0
M  V30 56 H -6.2487 -3.7647 -0.1591 0
M  V30 57 H -6.1597 -2.6018 1.2214 0
M  V30 58 H -6.637 3.343 0.4765 0
M  V30 END ATOM
M  V30 BEGIN BOND
M  V30 1 2 1 2
M  V30 2 2 1 3
M  V30 3 1 1 4
M  V30 4 1 1 5
M  V30 5 1 4 6
M  V30 6 1 7 8
M  V30 7 1 7 9
M  V30 8 2 8 10
M  V30 9 1 8 11
M  V30 10 2 9 12
M  V30 11 1 9 13
M  V30 12 1 10 14
M  V30 13 2 11 15
M  V30 14 1 12 16
M  V30 15 2 13 17
M  V30 16 1 15 18
M  V30 17 2 16 19
M  V30 18 1 17 20
M  V30 19 2 18 21
M  V30 20 1 18 22
M  V30 21 1 20 23
M  V30 22 1 21 24
M  V30 23 2 22 25
M  V30 24 2 24 26
M  V30 25 1 26 27
M  V30 26 1 27 28
M  V30 27 1 27 29
M  V30 28 1 28 30
M  V30 29 1 29 31
M  V30 30 1 30 32
M  V30 31 1 10 12
M  V30 32 1 17 19
M  V30 33 1 25 26
M  V30 34 1 6 33
M  V30 35 1 6 34
M  V30 36 1 6 35
M  V30 37 1 13 36
M  V30 38 1 14 37
M  V30 39 1 14 38
M  V30 40 1 14 39
M  V30 41 1 16 40
M  V30 42 1 19 41
M  V30 43 1 21 42
M  V30 44 1 22 43
M  V30 45 1 23 44
M  V30 46 1 23 45
M  V30 47 1 23 46
M  V30 48 1 24 47
M  V30 49 1 25 48
M  V30 50 1 28 49
M  V30 51 1 28 50
M  V30 52 1 29 51
M  V30 53 1 29 52
M  V30 54 1 30 53
M  V30 55 1 30 54
M  V30 56 1 31 55
M  V30 57 1 31 56
M  V30 58 1 31 57
M  V30 59 1 32 58
M  V30 END BOND
M  V30 END CTAB
M  END
>  <Structure No>
1892

>  <LogS>
-1.020815087

>  <MMFF94 Energy>
70.239

$$$$
Compound 1893
Actelion Java MolfileCreator 2.0

  0  0  0  0  0  0              0 V3000
M  V30 BEGIN CTAB
M  V30 COUNTS 21 20 0 0 0
M  V30 BEGIN ATOM
M  V30 1 O 1.8605 1.0074 -0.8524 0
M  V30 2 C 2.1239 -0.0928 -0.2948 0
M  V30 3 O 1.2955 -0.6033 0.7111 0
M  V30 4 C 3.3639 -0.8326 -0.6687 0
M  V30 5 C 0.0781 0.0195 1.1172 0
M  V30 6 O 4.4254 -0.3867 0.1265 0
M  V30 7 C -1.0242 -0.2313 0.0841 0
M  V30 8 C -2.3519 0.3893 0.5333 0
M  V30 9 C -3.4519 0.1412 -0.4947 0
M  V30 10 H 3.5937 -0.6573 -1.7434 0
M  V30 11 H 3.2028 -1.9219 -0.5101 0
M  V30 12 H 0.2375 1.1105 1.265 0
M  V30 13 H -0.228 -0.4183 2.0911 0
M  V30 14 H 5.22 -0.9086 -0.1583 0
M  V30 15 H -1.1519 -1.328 -0.0486 0
M  V30 16 H -0.7238 0.2081 -0.8915 0
M  V30 17 H -2.6627 -0.0518 1.5056 0
M  V30 18 H -2.2263 1.4859 0.6681 0
M  V30 19 H -3.6145 -0.9493 -0.6304 0
M  V30 20 H -3.1776 0.5958 -1.4707 0
M  V30 21 H -4.3998 0.6005 -0.1431 0
M  V30 END ATOM
M  V30 BEGIN BOND
M  V30 1 2 1 2
M  V30 2 1 2 3
M  V30 3 1 2 4
M  V30 4 1 3 5
M  V30 5 1 4 6
M  V30 6 1 5 7
M  V30 7 1 7 8
M  V30 8 1 8 9
M  V30 9 1 4 10
M  V30 10 1 4 11
M  V30 11 1 5 12
M  V30 12 1 5 13
M  V30 13 1 6 14
M  V30 14 1 7 15
M  V30 15 1 7 16
M  V30 16 1 8 17
M  V30 17 1 8 18
M  V30 18 1 9 19
M  V30 19 1 9 20
M  V30 20 1 9 21
M  V30 END BOND
M  V30 END CTAB
M  END
>  <Structure No>
1893

>  <LogS>
-0.458338912

>  <MMFF94 Energy>
23.264

$$$$
Compound 1894
Actelion Java MolfileCreator 2.0

  0  0  0  0  0  0              0 V3000
M  V30 BEGIN CTAB
M  V30 COUNTS 11 10 0 0 0
M  V30 BEGIN ATOM
M  V30 1 Cl 2.2601 1.7754 0.1613 0
M  V30 2 C 1.8388 0.0612 -0.0605 0
M  V30 3 C 0.4148 -0.1577 0.3257 0
M  V30 4 O 0.1282 -0.4582 1.5169 0
M  V30 5 O -0.5914 0.017 -0.6283 0
M  V30 6 C -1.9711 -0.1519 -0.3258 0
M  V30 7 H 2.5076 -0.5651 0.567 0
M  V30 8 H 1.9862 -0.2156 -1.1253 0
M  V30 9 H -2.5708 0.0379 -1.2396 0
M  V30 10 H -2.2786 0.5676 0.4623 0
M  V30 11 H -2.1602 -1.1904 0.0195 0
M  V30 END ATOM
M  V30 BEGIN BOND
M  V30 1 1 1 2
M  V30 2 1 2 3
M  V30 3 2 3 4
M  V30 4 1 3 5
M  V30 5 1 5 6
M  V30 6 1 2 7
M  V30 7 1 2 8
M  V30 8 1 6 9
M  V30 9 1 6 10
M  V30 10 1 6 11
M  V30 END BOND
M  V30 END CTAB
M  END
>  <Structure No>
1894

>  <LogS>
-0.372767961

>  <MMFF94 Energy>
14.133

$$$$
Compound 1895
Actelion Java MolfileCreator 2.0

  0  0  0  0  0  0              0 V3000
M  V30 BEGIN CTAB
M  V30 COUNTS 14 14 0 0 0
M  V30 BEGIN ATOM
M  V30 1 O 1.4108 -1.8814 0.7052 0
M  V30 2 C 0.4918 -0.9029 0.3282 0
M  V30 3 C 0.9175 0.3501 -0.1491 0
M  V30 4 C -0.8771 -1.1791 0.4293 0
M  V30 5 O 2.2783 0.6334 -0.2527 0
M  V30 6 C -0.0336 1.3125 -0.5199 0
M  V30 7 C -1.8198 -0.216 0.058 0
M  V30 8 C -1.3984 1.0287 -0.4161 0
M  V30 9 H 2.4107 -1.7296 0.6506 0
M  V30 10 H -1.21 -2.1417 0.796 0
M  V30 11 H 2.6092 1.5285 -0.5935 0
M  V30 12 H 0.2838 2.2796 -0.8884 0
M  V30 13 H -2.8768 -0.4346 0.1382 0
M  V30 14 H -2.1292 1.7736 -0.7032 0
M  V30 END ATOM
M  V30 BEGIN BOND
M  V30 1 1 1 2
M  V30 2 2 2 3
M  V30 3 1 2 4
M  V30 4 1 3 5
M  V30 5 1 3 6
M  V30 6 2 4 7
M  V30 7 2 6 8
M  V30 8 1 7 8
M  V30 9 1 1 9
M  V30 10 1 4 10
M  V30 11 1 5 11
M  V30 12 1 6 12
M  V30 13 1 7 13
M  V30 14 1 8 14
M  V30 END BOND
M  V30 END CTAB
M  END
>  <Structure No>
1895

>  <LogS>
0.612341891

>  <MMFF94 Energy>
13.801

$$$$
Compound 1896
Actelion Java MolfileCreator 2.0

  0  0  0  0  0  0              0 V3000
M  V30 BEGIN CTAB
M  V30 COUNTS 17 16 0 0 0
M  V30 BEGIN ATOM
M  V30 1 O 0.6083 -1.7498 0.6844 0
M  V30 2 N -0.0016 -0.5504 0.4953 0
M  V30 3 C 0.9586 0.3366 -0.1827 0
M  V30 4 C -1.1935 -0.7842 -0.3384 0
M  V30 5 C 2.042 0.7895 0.791 0
M  V30 6 C -2.2362 0.3051 -0.1021 0
M  V30 7 H 0.566 -1.9018 1.663 0
M  V30 8 H 0.448 1.2471 -0.5637 0
M  V30 9 H 1.4317 -0.1812 -1.048 0
M  V30 10 H -0.9352 -0.8377 -1.4205 0
M  V30 11 H -1.6641 -1.755 -0.0622 0
M  V30 12 H 2.73 1.4968 0.2816 0
M  V30 13 H 2.6307 -0.0811 1.1491 0
M  V30 14 H 1.5808 1.3024 1.6617 0
M  V30 15 H -3.1618 0.0621 -0.6653 0
M  V30 16 H -1.8652 1.2911 -0.4492 0
M  V30 17 H -2.4829 0.368 0.979 0
M  V30 END ATOM
M  V30 BEGIN BOND
M  V30 1 1 1 2
M  V30 2 1 2 3
M  V30 3 1 2 4
M  V30 4 1 3 5
M  V30 5 1 4 6
M  V30 6 1 1 7
M  V30 7 1 3 8
M  V30 8 1 3 9
M  V30 9 1 4 10
M  V30 10 1 4 11
M  V30 11 1 5 12
M  V30 12 1 5 13
M  V30 13 1 5 14
M  V30 14 1 6 15
M  V30 15 1 6 16
M  V30 16 1 6 17
M  V30 END BOND
M  V30 END CTAB
M  END
>  <Structure No>
1896

>  <LogS>
0.70363191

>  <MMFF94 Energy>
15.27

$$$$
Compound 1897
Actelion Java MolfileCreator 2.0

  0  0  0  0  0  0              0 V3000
M  V30 BEGIN CTAB
M  V30 COUNTS 10 9 0 0 0
M  V30 BEGIN ATOM
M  V30 1 N -0.3619 1.2312 -0.3619 0 CHG=1
M  V30 2 C -0.0334 0.0332 0.0136 0
M  V30 3 N -1.0449 -0.9039 0.3917 0
M  V30 4 N 1.3419 -0.3557 0.0517 0
M  V30 5 H -1.3632 1.5277 -0.3939 0
M  V30 6 H 0.3673 1.9251 -0.6404 0
M  V30 7 H -0.7842 -1.8684 0.6944 0
M  V30 8 H -2.0556 -0.6409 0.3714 0
M  V30 9 H 1.6098 -1.3186 0.3533 0
M  V30 10 H 2.0969 0.3127 -0.22 0
M  V30 END ATOM
M  V30 BEGIN BOND
M  V30 1 2 1 2
M  V30 2 1 2 3
M  V30 3 1 2 4
M  V30 4 1 1 5
M  V30 5 1 1 6
M  V30 6 1 3 7
M  V30 7 1 3 8
M  V30 8 1 4 9
M  V30 9 1 4 10
M  V30 END BOND
M  V30 END CTAB
M  END
>  <Structure No>
1897

>  <LogS>
0.397534856

>  <MMFF94 Energy>
-200.09

$$$$
Compound 1898
Actelion Java MolfileCreator 2.0

  0  0  0  0  0  0              0 V3000
M  V30 BEGIN CTAB
M  V30 COUNTS 7 6 0 0 0
M  V30 BEGIN ATOM
M  V30 1 O 1.4013 1.1676 -0.3112 0
M  V30 2 C 0.828 0.0909 0.0 0
M  V30 3 O 1.5876 -1.0312 0.3045 0 CHG=-1
M  V30 4 C -0.6606 0.0044 -0.0146 0
M  V30 5 H -1.1016 0.9586 0.3439 0
M  V30 6 H -0.9992 -0.8185 0.649 0
M  V30 7 H -1.0095 -0.1946 -1.0491 0
M  V30 END ATOM
M  V30 BEGIN BOND
M  V30 1 2 1 2
M  V30 2 1 2 3
M  V30 3 1 2 4
M  V30 4 1 4 5
M  V30 5 1 4 6
M  V30 6 1 4 7
M  V30 END BOND
M  V30 END CTAB
M  END
>  <Structure No>
1898

>  <LogS>
0.833767293

>  <MMFF94 Energy>
1.0491

$$$$
Compound 1899
Actelion Java MolfileCreator 2.0

  0  0  0  0  0  0              0 V3000
M  V30 BEGIN CTAB
M  V30 COUNTS 29 28 0 0 0
M  V30 BEGIN ATOM
M  V30 1 O 3.1012 -0.0794 1.9075 0
M  V30 2 C 2.7422 -0.1554 0.7001 0
M  V30 3 O 1.7117 0.6622 0.2228 0
M  V30 4 C 3.4119 -1.1128 -0.2077 0
M  V30 5 C 1.017 1.5893 1.051 0
M  V30 6 C 2.9834 -1.269 -1.4651 0
M  V30 7 C 4.5312 -1.9739 0.3118 0
M  V30 8 C -0.0475 2.3133 0.2315 0
M  V30 9 O -0.9479 1.3823 -0.3666 0
M  V30 10 C -1.9403 0.7019 0.3477 0
M  V30 11 O -2.1402 0.9466 1.569 0
M  V30 12 C -2.8079 -0.2873 -0.3627 0
M  V30 13 C -4.0014 0.4171 -1.0095 0
M  V30 14 C -4.8688 -0.5711 -1.7228 0
M  V30 15 O -4.6484 -0.8522 -2.9302 0
M  V30 16 O -5.8906 -1.2192 -1.0404 0 CHG=-1
M  V30 17 H 0.5404 1.0519 1.8989 0
M  V30 18 H 1.733 2.3357 1.4585 0
M  V30 19 H 3.4471 -1.9908 -2.1261 0
M  V30 20 H 2.1617 -0.6847 -1.8598 0
M  V30 21 H 5.195 -1.3815 0.9763 0
M  V30 22 H 4.1068 -2.8229 0.8875 0
M  V30 23 H 5.1552 -2.3759 -0.5154 0
M  V30 24 H -0.6043 3.0312 0.8725 0
M  V30 25 H 0.4515 2.8909 -0.575 0
M  V30 26 H -2.2049 -0.8012 -1.1427 0
M  V30 27 H -3.1659 -1.0533 0.3603 0
M  V30 28 H -3.643 1.183 -1.7323 0
M  V30 29 H -4.6041 0.9312 -0.2291 0
M  V30 END ATOM
M  V30 BEGIN BOND
M  V30 1 2 1 2
M  V30 2 1 2 3
M  V30 3 1 2 4
M  V30 4 1 3 5
M  V30 5 2 4 6
M  V30 6 1 4 7
M  V30 7 1 5 8
M  V30 8 1 8 9
M  V30 9 1 9 10
M  V30 10 2 10 11
M  V30 11 1 10 12
M  V30 12 1 12 13
M  V30 13 1 13 14
M  V30 14 2 14 15
M  V30 15 1 14 16
M  V30 16 1 5 17
M  V30 17 1 5 18
M  V30 18 1 6 19
M  V30 19 1 6 20
M  V30 20 1 7 21
M  V30 21 1 7 22
M  V30 22 1 7 23
M  V30 23 1 8 24
M  V30 24 1 8 25
M  V30 25 1 12 26
M  V30 26 1 12 27
M  V30 27 1 13 28
M  V30 28 1 13 29
M  V30 END BOND
M  V30 END CTAB
M  END
>  <Structure No>
1899

>  <LogS>
-0.706708916

>  <MMFF94 Energy>
-9.5841

$$$$
Compound 1900
Actelion Java MolfileCreator 2.0

  0  0  0  0  0  0              0 V3000
M  V30 BEGIN CTAB
M  V30 COUNTS 52 55 0 0 0
M  V30 BEGIN ATOM
M  V30 1 Cl 4.7925 -1.981 -3.3034 0
M  V30 2 C 4.924 -1.6163 -1.5836 0
M  V30 3 C 3.8403 -1.1123 -0.8183 0
M  V30 4 C 6.1806 -1.7784 -0.9973 0
M  V30 5 C 4.0887 -0.6678 0.5123 0
M  V30 6 C 2.4602 -0.9209 -1.4549 0 CFG=1
M  V30 7 C 6.4012 -1.4008 0.3233 0
M  V30 8 C 3.0129 0.0126 1.2774 0
M  V30 9 C 5.3771 -0.8333 1.075 0
M  V30 10 O 2.1334 -1.9893 -2.3133 0
M  V30 11 C 1.3229 -0.7482 -0.4205 0 CFG=1
M  V30 12 O 3.1736 0.296 2.4969 0
M  V30 13 C 1.7128 0.2732 0.629 0
M  V30 14 O 5.6603 -0.4217 2.3747 0 CHG=-1
M  V30 15 C -0.006 -0.435 -1.1417 0
M  V30 16 C 0.8898 1.2858 1.0182 0
M  V30 17 C -1.0359 0.0826 -0.1354 0 CFG=1
M  V30 18 O 1.344 2.3318 1.8286 0
M  V30 19 C -0.538 1.4136 0.4889 0 CFG=2
M  V30 20 C -2.4524 0.2388 -0.7569 0 CFG=1
M  V30 21 O -0.5916 2.464 -0.4553 0
M  V30 22 C -1.5238 1.7436 1.5927 0
M  V30 23 N -2.8972 -1.0495 -1.3548 0
M  V30 24 C -3.429 0.8141 0.2713 0
M  V30 25 O -1.1623 1.8626 2.7544 0
M  V30 26 C -2.9798 1.9201 1.2173 0 CFG=1
M  V30 27 C -3.8612 -0.8715 -2.4517 0
M  V30 28 C -3.3485 -2.0739 -0.3906 0
M  V30 29 O -4.6082 0.4923 0.2436 0
M  V30 30 C -3.8629 2.0102 2.4424 0
M  V30 31 O -4.2149 0.9642 3.0559 0
M  V30 32 N -4.2689 3.2877 2.9386 0
M  V30 33 H 6.9995 -2.1709 -1.5793 0
M  V30 34 H 2.5202 0.0066 -2.0678 0
M  V30 35 H 7.3836 -1.5075 0.7565 0
M  V30 36 H 2.1561 -2.823 -1.7684 0
M  V30 37 H 1.1917 -1.7141 0.1174 0
M  V30 38 H 0.1428 0.3116 -1.9561 0
M  V30 39 H -0.3725 -1.3715 -1.6163 0
M  V30 40 H -1.0963 -0.6694 0.6846 0
M  V30 41 H 2.3121 2.4628 2.1005 0
M  V30 42 H -2.3645 0.9976 -1.5655 0
M  V30 43 H 0.1871 2.3938 -1.0601 0
M  V30 44 H -3.0621 2.8746 0.656 0
M  V30 45 H -3.4209 -0.2317 -3.2486 0
M  V30 46 H -4.8082 -0.4049 -2.0907 0
M  V30 47 H -4.1007 -1.8575 -2.9087 0
M  V30 48 H -4.4543 -2.1441 -0.3423 0
M  V30 49 H -2.9707 -1.8837 0.6383 0
M  V30 50 H -2.9511 -3.0591 -0.7084 0
M  V30 51 H -5.0086 3.3516 3.6722 0
M  V30 52 H -3.8013 4.1675 2.6119 0
M  V30 END ATOM
M  V30 BEGIN BOND
M  V30 1 1 1 2
M  V30 2 2 2 3
M  V30 3 1 2 4
M  V30 4 1 3 5
M  V30 5 1 3 6
M  V30 6 2 4 7
M  V30 7 1 5 8
M  V30 8 2 5 9
M  V30 9 1 6 10
M  V30 10 1 6 11
M  V30 11 2 8 12
M  V30 12 1 8 13
M  V30 13 1 9 14
M  V30 14 1 11 15
M  V30 15 2 13 16
M  V30 16 1 15 17
M  V30 17 1 16 18
M  V30 18 1 16 19
M  V30 19 1 17 20
M  V30 20 1 19 21
M  V30 21 1 19 22
M  V30 22 1 20 23
M  V30 23 1 20 24
M  V30 24 2 22 25
M  V30 25 1 22 26
M  V30 26 1 23 27
M  V30 27 1 23 28
M  V30 28 2 24 29
M  V30 29 1 26 30
M  V30 30 2 30 31
M  V30 31 1 30 32
M  V30 32 1 7 9
M  V30 33 1 11 13
M  V30 34 1 17 19
M  V30 35 1 24 26
M  V30 36 1 4 33
M  V30 37 1 6 34
M  V30 38 1 7 35
M  V30 39 1 10 36
M  V30 40 1 11 37
M  V30 41 1 15 38
M  V30 42 1 15 39
M  V30 43 1 17 40
M  V30 44 1 18 41
M  V30 45 1 20 42
M  V30 46 1 21 43
M  V30 47 1 26 44
M  V30 48 1 27 45
M  V30 49 1 27 46
M  V30 50 1 27 47
M  V30 51 1 28 48
M  V30 52 1 28 49
M  V30 53 1 28 50
M  V30 54 1 32 51
M  V30 55 1 32 52
M  V30 END BOND
M  V30 BEGIN COLLECTION
M  V30 MDLV30/STEABS ATOMS=(6 6 11 17 19 20 26)
M  V30 END COLLECTION
M  V30 END CTAB
M  END
>  <Structure No>
1900

>  <LogS>
-1.046901651

>  <MMFF94 Energy>
76.279

$$$$
Compound 1901
Actelion Java MolfileCreator 2.0

  0  0  0  0  0  0              0 V3000
M  V30 BEGIN CTAB
M  V30 COUNTS 16 15 0 0 0
M  V30 BEGIN ATOM
M  V30 1 O -1.8779 -1.9562 -0.7821 0
M  V30 2 C -1.4115 -1.1028 0.0177 0
M  V30 3 O -1.5196 -1.3216 1.3867 0 CHG=-1
M  V30 4 C -0.6965 0.1116 -0.5145 0 CFG=2
M  V30 5 C 0.8035 -0.1691 -0.7522 0
M  V30 6 C -0.9334 1.3407 0.3742 0
M  V30 7 C 1.5906 -0.5189 0.5139 0
M  V30 8 H -1.1396 0.3506 -1.5072 0
M  V30 9 H 1.2706 0.7218 -1.2257 0
M  V30 10 H 0.903 -1.0098 -1.4733 0
M  V30 11 H -0.5815 1.166 1.4124 0
M  V30 12 H -2.0187 1.5769 0.4087 0
M  V30 13 H -0.4009 2.2222 -0.0416 0
M  V30 14 H 2.6428 -0.7433 0.2394 0
M  V30 15 H 1.5971 0.333 1.2242 0
M  V30 16 H 1.165 -1.4156 1.0098 0
M  V30 END ATOM
M  V30 BEGIN BOND
M  V30 1 2 1 2
M  V30 2 1 2 3
M  V30 3 1 2 4
M  V30 4 1 4 5
M  V30 5 1 4 6
M  V30 6 1 5 7
M  V30 7 1 4 8
M  V30 8 1 5 9
M  V30 9 1 5 10
M  V30 10 1 6 11
M  V30 11 1 6 12
M  V30 12 1 6 13
M  V30 13 1 7 14
M  V30 14 1 7 15
M  V30 15 1 7 16
M  V30 END BOND
M  V30 BEGIN COLLECTION
M  V30 MDLV30/STEABS ATOMS=(1 4)
M  V30 END COLLECTION
M  V30 END CTAB
M  END
>  <Structure No>
1901

>  <LogS>
-0.355953575

>  <MMFF94 Energy>
7.6001

$$$$
Compound 1902
Actelion Java MolfileCreator 2.0

  0  0  0  0  0  0              0 V3000
M  V30 BEGIN CTAB
M  V30 COUNTS 5 4 0 0 0
M  V30 BEGIN ATOM
M  V30 1 S 0.0 0.0 0.0 0
M  V30 2 O -0.2223 -0.9855 -1.1116 0
M  V30 3 O -0.1909 -0.6858 1.3228 0
M  V30 4 O 1.5625 0.6081 -0.0949 0 CHG=-1
M  V30 5 O -1.1009 1.2605 -0.1409 0 CHG=-1
M  V30 END ATOM
M  V30 BEGIN BOND
M  V30 1 2 1 2
M  V30 2 2 1 3
M  V30 3 1 1 4
M  V30 4 1 1 5
M  V30 END BOND
M  V30 END CTAB
M  END
>  <Structure No>
1902

>  <LogS>
1.041524079

>  <MMFF94 Energy>
27.585

$$$$
Compound 1903
Actelion Java MolfileCreator 2.0

  0  0  0  0  0  0              0 V3000
M  V30 BEGIN CTAB
M  V30 COUNTS 50 53 0 0 0
M  V30 BEGIN ATOM
M  V30 1 Cl -4.2027 5.6638 -1.6281 0
M  V30 2 C -4.1471 4.1173 -0.811 0
M  V30 3 N -3.3994 3.1074 -1.3218 0
M  V30 4 N -4.8505 3.9295 0.3334 0
M  V30 5 C -3.355 1.9049 -0.6925 0
M  V30 6 C -4.806 2.7313 0.9696 0
M  V30 7 N -4.0565 1.7224 0.4576 0
M  V30 8 N -2.551 0.8493 -1.2337 0
M  V30 9 N -5.5437 2.5329 2.1731 0
M  V30 10 C -2.5551 -0.4825 -0.6973 0
M  V30 11 C -1.3515 -1.1478 -0.3285 0
M  V30 12 C -3.7803 -1.1618 -0.6142 0
M  V30 13 C -0.0857 -0.5044 -0.3256 0
M  V30 14 C -1.4252 -2.5049 0.0818 0
M  V30 15 C -3.8407 -2.4861 -0.1795 0
M  V30 16 O 0.0153 0.8495 -0.6287 0 CHG=-1
M  V30 17 C 1.0844 -1.2254 0.0149 0
M  V30 18 C -0.2623 -3.2022 0.427 0
M  V30 19 C -2.6642 -3.1587 0.1512 0
M  V30 20 S -5.3899 -3.3186 -0.097 0
M  V30 21 N 2.3884 -0.6181 0.0028 0
M  V30 22 C 0.9857 -2.5769 0.3882 0
M  V30 23 O -6.482 -2.3344 0.2155 0
M  V30 24 O -5.3539 -4.3593 0.9866 0
M  V30 25 O -5.7068 -4.0566 -1.5717 0 CHG=-1
M  V30 26 N 2.6047 0.5837 -0.3532 0
M  V30 27 S 2.4348 -3.4932 0.8228 0
M  V30 28 C 3.9199 1.1551 -0.3524 0
M  V30 29 O 3.3502 -3.5745 -0.3657 0
M  V30 30 O 2.0707 -4.8858 1.2553 0
M  V30 31 O 3.2233 -2.7228 2.0904 0 CHG=-1
M  V30 32 C 4.0954 2.4921 -0.7545 0
M  V30 33 C 5.0402 0.3998 0.0444 0
M  V30 34 O 3.0147 3.2782 -1.1558 0
M  V30 35 C 5.3743 3.0558 -0.7562 0
M  V30 36 C 6.3277 0.9671 0.0428 0
M  V30 37 C 6.4818 2.3029 -0.3617 0
M  V30 38 N 7.4722 0.1938 0.4488 0 CHG=1
M  V30 39 O 7.3432 -0.9942 0.8102 0
M  V30 40 O 8.73 0.7522 0.4456 0 CHG=-1
M  V30 41 H -1.9647 1.049 -2.0751 0
M  V30 42 H -6.1216 3.3054 2.5725 0
M  V30 43 H -5.5136 1.6127 2.6655 0
M  V30 44 H -4.6906 -0.6585 -0.9162 0
M  V30 45 H -0.3308 -4.2404 0.7286 0
M  V30 46 H -2.7155 -4.1946 0.4658 0
M  V30 47 H 4.9102 -0.629 0.3543 0
M  V30 48 H 2.0652 2.9265 -1.1759 0
M  V30 49 H 5.5102 4.0845 -1.0655 0
M  V30 50 H 7.4592 2.7673 -0.3737 0
M  V30 END ATOM
M  V30 BEGIN BOND
M  V30 1 1 1 2
M  V30 2 2 2 3
M  V30 3 1 2 4
M  V30 4 1 3 5
M  V30 5 2 4 6
M  V30 6 2 5 7
M  V30 7 1 5 8
M  V30 8 1 6 9
M  V30 9 1 8 10
M  V30 10 1 10 11
M  V30 11 2 10 12
M  V30 12 2 11 13
M  V30 13 1 11 14
M  V30 14 1 12 15
M  V30 15 1 13 16
M  V30 16 1 13 17
M  V30 17 2 14 18
M  V30 18 1 14 19
M  V30 19 1 15 20
M  V30 20 1 17 21
M  V30 21 2 17 22
M  V30 22 2 20 23
M  V30 23 2 20 24
M  V30 24 1 20 25
M  V30 25 2 21 26
M  V30 26 1 22 27
M  V30 27 1 26 28
M  V30 28 2 27 29
M  V30 29 2 27 30
M  V30 30 1 27 31
M  V30 31 2 28 32
M  V30 32 1 28 33
M  V30 33 1 32 34
M  V30 34 1 32 35
M  V30 35 2 33 36
M  V30 36 2 35 37
M  V30 37 1 36 38
M  V30 38 2 38 39
M  V30 39 1 38 40
M  V30 40 1 6 7
M  V30 41 2 15 19
M  V30 42 1 18 22
M  V30 43 1 36 37
M  V30 44 1 8 41
M  V30 45 1 9 42
M  V30 46 1 9 43
M  V30 47 1 12 44
M  V30 48 1 18 45
M  V30 49 1 19 46
M  V30 50 1 33 47
M  V30 51 1 34 48
M  V30 52 1 35 49
M  V30 53 1 37 50
M  V30 END BOND
M  V30 END CTAB
M  END
>  <Structure No>
1903

>  <LogS>
-0.494975175

>  <MMFF94 Energy>
10.518

$$$$
Compound 1904
Actelion Java MolfileCreator 2.0

  0  0  0  0  0  0              0 V3000
M  V30 BEGIN CTAB
M  V30 COUNTS 30 30 0 0 0
M  V30 BEGIN ATOM
M  V30 1 S 4.8781 0.0 0.0 0
M  V30 2 O 4.9747 0.9093 -1.1926 0
M  V30 3 O 6.1003 -0.8719 0.0553 0
M  V30 4 O 4.8018 0.922 1.4023 0 CHG=-1
M  V30 5 C 3.4253 -1.0374 -0.1282 0
M  V30 6 C 2.1828 -0.2662 -0.5925 0
M  V30 7 C 1.6832 0.737 0.455 0
M  V30 8 O 0.4272 1.2907 0.061 0
M  V30 9 C -0.8203 0.6448 0.132 0
M  V30 10 C -1.9641 1.2933 -0.3923 0
M  V30 11 C -0.9617 -0.624 0.7297 0
M  V30 12 N -1.8663 2.5833 -1.0321 0 CHG=1
M  V30 13 C -3.2198 0.6635 -0.288 0
M  V30 14 C -2.2123 -1.2352 0.8167 0
M  V30 15 O -2.8933 3.2609 -1.2466 0
M  V30 16 O -0.658 3.0674 -1.4776 0 CHG=-1
M  V30 17 C -3.3505 -0.5886 0.3258 0
M  V30 18 C -4.6888 -1.2642 0.3875 0
M  V30 19 H 3.2323 -1.5214 0.8527 0
M  V30 20 H 3.6393 -1.8395 -0.8661 0
M  V30 21 H 1.3823 -1.0058 -0.8047 0
M  V30 22 H 2.3974 0.2651 -1.5446 0
M  V30 23 H 2.4096 1.5721 0.5262 0
M  V30 24 H 1.6083 0.2775 1.4635 0
M  V30 25 H -0.1116 -1.1528 1.1356 0
M  V30 26 H -4.1012 1.144 -0.6952 0
M  V30 27 H -2.2927 -2.2143 1.2729 0
M  V30 28 H -4.7475 -1.941 1.2665 0
M  V30 29 H -4.8457 -1.8576 -0.5372 0
M  V30 30 H -5.5025 -0.5134 0.4791 0
M  V30 END ATOM
M  V30 BEGIN BOND
M  V30 1 2 1 2
M  V30 2 2 1 3
M  V30 3 1 1 4
M  V30 4 1 1 5
M  V30 5 1 5 6
M  V30 6 1 6 7
M  V30 7 1 7 8
M  V30 8 1 8 9
M  V30 9 2 9 10
M  V30 10 1 9 11
M  V30 11 1 10 12
M  V30 12 1 10 13
M  V30 13 2 11 14
M  V30 14 2 12 15
M  V30 15 1 12 16
M  V30 16 2 13 17
M  V30 17 1 17 18
M  V30 18 1 14 17
M  V30 19 1 5 19
M  V30 20 1 5 20
M  V30 21 1 6 21
M  V30 22 1 6 22
M  V30 23 1 7 23
M  V30 24 1 7 24
M  V30 25 1 11 25
M  V30 26 1 13 26
M  V30 27 1 14 27
M  V30 28 1 18 28
M  V30 29 1 18 29
M  V30 30 1 18 30
M  V30 END BOND
M  V30 END CTAB
M  END
>  <Structure No>
1904

>  <LogS>
0.170310359

>  <MMFF94 Energy>
50.708

$$$$
Compound 1905
Actelion Java MolfileCreator 2.0

  0  0  0  0  0  0              0 V3000
M  V30 BEGIN CTAB
M  V30 COUNTS 32 33 0 0 0
M  V30 BEGIN ATOM
M  V30 1 O -1.7519 0.8756 -2.1504 0
M  V30 2 C -1.1116 0.1751 -1.3221 0
M  V30 3 N 0.1501 -0.398 -1.59 0
M  V30 4 C -1.551 -0.1676 0.0651 0
M  V30 5 C 0.4705 -1.0786 -0.3842 0
M  V30 6 N -0.4261 -0.9705 0.5485 0
M  V30 7 C -2.8607 -0.9462 0.0955 0
M  V30 8 C -1.7817 1.0639 0.9327 0
M  V30 9 C 1.7705 -1.7917 -0.1715 0
M  V30 10 C -3.952 0.101 0.2929 0
M  V30 11 C -3.2721 1.3678 0.8193 0
M  V30 12 C 2.7598 -0.9388 0.6331 0
M  V30 13 C 3.2251 0.3007 -0.1444 0
M  V30 14 C 4.2615 1.0904 0.6491 0
M  V30 15 H 0.7257 -0.3127 -2.4566 0
M  V30 16 H -2.8639 -1.6407 0.9652 0
M  V30 17 H -3.0263 -1.539 -0.8311 0
M  V30 18 H -1.1622 1.9318 0.6151 0
M  V30 19 H -1.5404 0.8264 1.9929 0
M  V30 20 H 1.5741 -2.7354 0.3818 0
M  V30 21 H 2.2142 -2.066 -1.1528 0
M  V30 22 H -4.4475 0.3155 -0.6794 0
M  V30 23 H -4.719 -0.2645 1.0101 0
M  V30 24 H -3.4317 2.2057 0.1055 0
M  V30 25 H -3.6877 1.6592 1.8086 0
M  V30 26 H 2.2909 -0.6291 1.5933 0
M  V30 27 H 3.6439 -1.5686 0.8745 0
M  V30 28 H 3.6735 -0.0096 -1.113 0
M  V30 29 H 2.3588 0.9646 -0.3535 0
M  V30 30 H 4.5759 1.9818 0.0663 0
M  V30 31 H 5.1561 0.4627 0.8478 0
M  V30 32 H 3.8302 1.4313 1.6145 0
M  V30 END ATOM
M  V30 BEGIN BOND
M  V30 1 2 1 2
M  V30 2 1 2 3
M  V30 3 1 2 4
M  V30 4 1 3 5
M  V30 5 1 4 6
M  V30 6 1 4 7
M  V30 7 1 4 8
M  V30 8 1 5 9
M  V30 9 1 7 10
M  V30 10 1 8 11
M  V30 11 1 9 12
M  V30 12 1 12 13
M  V30 13 1 13 14
M  V30 14 2 5 6
M  V30 15 1 10 11
M  V30 16 1 3 15
M  V30 17 1 7 16
M  V30 18 1 7 17
M  V30 19 1 8 18
M  V30 20 1 8 19
M  V30 21 1 9 20
M  V30 22 1 9 21
M  V30 23 1 10 22
M  V30 24 1 10 23
M  V30 25 1 11 24
M  V30 26 1 11 25
M  V30 27 1 12 26
M  V30 28 1 12 27
M  V30 29 1 13 28
M  V30 30 1 13 29
M  V30 31 1 14 30
M  V30 32 1 14 31
M  V30 33 1 14 32
M  V30 END BOND
M  V30 END CTAB
M  END
>  <Structure No>
1905

>  <LogS>
-1.019613944

>  <MMFF94 Energy>
3.2656

$$$$
Compound 1906
Actelion Java MolfileCreator 2.0

  0  0  0  0  0  0              0 V3000
M  V30 BEGIN CTAB
M  V30 COUNTS 67 71 0 0 0
M  V30 BEGIN ATOM
M  V30 1 Cl -4.2569 4.7686 0.34 0
M  V30 2 C -3.7456 3.1037 0.162 0
M  V30 3 N -4.5338 2.1002 0.6206 0
M  V30 4 N -2.5587 2.8189 -0.4272 0
M  V30 5 C -4.1436 0.8039 0.4887 0
M  V30 6 C -2.1586 1.5288 -0.5654 0
M  V30 7 N -2.9496 0.5265 -0.0991 0
M  V30 8 N -4.9768 -0.2622 0.9912 0
M  V30 9 N -0.8897 1.241 -1.1659 0
M  V30 10 C -6.3035 0.0227 1.4718 0
M  V30 11 C -4.5383 -1.6623 0.9027 0
M  V30 12 C -0.421 -0.0947 -1.4076 0
M  V30 13 C -7.2432 0.6486 0.6337 0
M  V30 14 C -6.6648 -0.3055 2.7881 0
M  V30 15 C -4.9278 -2.2557 -0.4466 0
M  V30 16 C 0.8765 -0.5036 -1.0056 0
M  V30 17 C -1.2346 -0.9839 -2.1282 0
M  V30 18 C -8.5268 0.936 1.1083 0
M  V30 19 C -7.9477 -0.0105 3.2603 0
M  V30 20 C 1.7933 0.369 -0.2279 0
M  V30 21 C 1.3309 -1.7979 -1.347 0
M  V30 22 C -0.7804 -2.2637 -2.4547 0
M  V30 23 C -8.8771 0.61 2.4212 0
M  V30 24 O 1.3965 1.4426 0.2999 0
M  V30 25 C 3.2036 -0.028 -0.0954 0
M  V30 26 C 2.6602 -2.2756 -0.8976 0
M  V30 27 C 0.4967 -2.6695 -2.0581 0
M  V30 28 S -1.825 -3.3621 -3.3504 0
M  V30 29 N 4.0866 0.9171 0.0679 0
M  V30 30 C 3.5362 -1.4745 -0.2715 0
M  V30 31 O -2.7925 -4.0194 -2.4061 0
M  V30 32 O -1.0004 -4.4182 -4.0322 0
M  V30 33 O -2.6761 -2.5066 -4.5211 0 CHG=-1
M  V30 34 N 5.4753 0.7685 -0.0807 0
M  V30 35 S 4.8968 -2.246 0.564 0
M  V30 36 C 6.3684 1.7745 0.4271 0
M  V30 37 O 4.453 -3.568 1.125 0
M  V30 38 O 5.3692 -1.3889 1.7047 0
M  V30 39 O 6.1595 -2.5018 -0.5138 0 CHG=-1
M  V30 40 C 7.6452 1.9936 -0.1515 0
M  V30 41 C 5.9748 2.5508 1.5337 0
M  V30 42 S 8.1941 1.0917 -1.5725 0
M  V30 43 C 8.4919 2.9708 0.3977 0
M  V30 44 C 6.8275 3.5208 2.0623 0
M  V30 45 O 9.4531 1.6952 -2.1274 0
M  V30 46 O 7.1368 1.134 -2.6383 0
M  V30 47 O 8.5019 -0.5019 -1.1412 0 CHG=-1
M  V30 48 C 8.0843 3.729 1.4962 0
M  V30 49 H -0.2806 2.0438 -1.4435 0
M  V30 50 H -3.4378 -1.7361 1.0395 0
M  V30 51 H -5.0042 -2.2674 1.7101 0
M  V30 52 H -6.9836 0.8977 -0.3873 0
M  V30 53 H -5.948 -0.777 3.4499 0
M  V30 54 H -6.0294 -2.2152 -0.5765 0
M  V30 55 H -4.4407 -1.6936 -1.2714 0
M  V30 56 H -4.6053 -3.3165 -0.4896 0
M  V30 57 H -2.2178 -0.6678 -2.4556 0
M  V30 58 H -9.2481 1.4138 0.4583 0
M  V30 59 H -8.2173 -0.2505 4.2788 0
M  V30 60 H -9.8681 0.8392 2.7897 0
M  V30 61 H 2.8927 -3.3274 -1.016 0
M  V30 62 H 0.8408 -3.668 -2.2976 0
M  V30 63 H 5.8383 0.0189 -0.7068 0
M  V30 64 H 5.0105 2.3939 2.0008 0
M  V30 65 H 9.4706 3.1547 -0.0265 0
M  V30 66 H 6.5166 4.1087 2.9172 0
M  V30 67 H 8.7438 4.4829 1.9051 0
M  V30 END ATOM
M  V30 BEGIN BOND
M  V30 1 1 1 2
M  V30 2 2 2 3
M  V30 3 1 2 4
M  V30 4 1 3 5
M  V30 5 2 4 6
M  V30 6 2 5 7
M  V30 7 1 5 8
M  V30 8 1 6 9
M  V30 9 1 8 10
M  V30 10 1 8 11
M  V30 11 1 9 12
M  V30 12 2 10 13
M  V30 13 1 10 14
M  V30 14 1 11 15
M  V30 15 2 12 16
M  V30 16 1 12 17
M  V30 17 1 13 18
M  V30 18 2 14 19
M  V30 19 1 16 20
M  V30 20 1 16 21
M  V30 21 2 17 22
M  V30 22 2 18 23
M  V30 23 2 20 24
M  V30 24 1 20 25
M  V30 25 1 21 26
M  V30 26 2 21 27
M  V30 27 1 22 28
M  V30 28 2 25 29
M  V30 29 1 25 30
M  V30 30 2 28 31
M  V30 31 2 28 32
M  V30 32 1 28 33
M  V30 33 1 29 34
M  V30 34 1 30 35
M  V30 35 1 34 36
M  V30 36 2 35 37
M  V30 37 2 35 38
M  V30 38 1 35 39
M  V30 39 2 36 40
M  V30 40 1 36 41
M  V30 41 1 40 42
M  V30 42 1 40 43
M  V30 43 2 41 44
M  V30 44 2 42 45
M  V30 45 2 42 46
M  V30 46 1 42 47
M  V30 47 2 43 48
M  V30 48 1 6 7
M  V30 49 1 19 23
M  V30 50 1 22 27
M  V30 51 2 26 30
M  V30 52 1 44 48
M  V30 53 1 9 49
M  V30 54 1 11 50
M  V30 55 1 11 51
M  V30 56 1 13 52
M  V30 57 1 14 53
M  V30 58 1 15 54
M  V30 59 1 15 55
M  V30 60 1 15 56
M  V30 61 1 17 57
M  V30 62 1 18 58
M  V30 63 1 19 59
M  V30 64 1 23 60
M  V30 65 1 26 61
M  V30 66 1 27 62
M  V30 67 1 34 63
M  V30 68 1 41 64
M  V30 69 1 43 65
M  V30 70 1 44 66
M  V30 71 1 48 67
M  V30 END BOND
M  V30 END CTAB
M  END
>  <Structure No>
1906

>  <LogS>
-0.266745284

>  <MMFF94 Energy>
103.22

$$$$
Compound 1907
Actelion Java MolfileCreator 2.0

  0  0  0  0  0  0              0 V3000
M  V30 BEGIN CTAB
M  V30 COUNTS 31 32 0 0 0
M  V30 BEGIN ATOM
M  V30 1 O 0.2387 -1.3534 -1.9111 0
M  V30 2 C 1.1852 -0.8544 -1.2427 0
M  V30 3 N 0.9322 0.0309 -0.2229 0
M  V30 4 N 2.4638 -1.2113 -1.5413 0
M  V30 5 C 1.9746 0.5319 0.507 0
M  V30 6 C -0.446 0.4193 0.1439 0 CFG=1
M  V30 7 C 3.5172 -0.7158 -0.8417 0
M  V30 8 C 3.2955 0.1843 0.2061 0
M  V30 9 O -1.1843 0.7667 -1.0097 0
M  V30 10 C -1.1583 -0.7097 0.8897 0
M  V30 11 O 4.6889 -1.0746 -1.1397 0
M  V30 12 C 4.4362 0.7258 1.0226 0
M  V30 13 C -2.4811 0.2389 -0.8519 0 CFG=1
M  V30 14 C -2.369 -0.9987 0.0396 0 CFG=2
M  V30 15 C -3.4118 1.3383 -0.2991 0
M  V30 16 O -3.516 -1.2098 0.8223 0
M  V30 17 O -4.7554 0.9431 -0.3736 0
M  V30 18 H 2.639 -1.8859 -2.3211 0
M  V30 19 H 1.785 1.2086 1.3328 0
M  V30 20 H -0.4296 1.3192 0.8017 0
M  V30 21 H -1.4585 -0.363 1.9039 0
M  V30 22 H -0.5256 -1.6183 0.9957 0
M  V30 23 H 4.1087 1.5691 1.6673 0
M  V30 24 H 4.8438 -0.0792 1.669 0
M  V30 25 H 5.2402 1.0984 0.3535 0
M  V30 26 H -2.8561 -0.0674 -1.853 0
M  V30 27 H -2.1729 -1.8888 -0.6033 0
M  V30 28 H -3.2635 2.2798 -0.8756 0
M  V30 29 H -3.1578 1.5559 0.7603 0
M  V30 30 H -3.4144 -2.1076 1.2336 0
M  V30 31 H -5.0227 1.0205 -1.3266 0
M  V30 END ATOM
M  V30 BEGIN BOND
M  V30 1 2 1 2
M  V30 2 1 2 3
M  V30 3 1 2 4
M  V30 4 1 3 5
M  V30 5 1 3 6
M  V30 6 1 4 7
M  V30 7 2 5 8
M  V30 8 1 6 9
M  V30 9 1 6 10
M  V30 10 2 7 11
M  V30 11 1 8 12
M  V30 12 1 9 13
M  V30 13 1 10 14
M  V30 14 1 13 15
M  V30 15 1 14 16
M  V30 16 1 15 17
M  V30 17 1 7 8
M  V30 18 1 13 14
M  V30 19 1 4 18
M  V30 20 1 5 19
M  V30 21 1 6 20
M  V30 22 1 10 21
M  V30 23 1 10 22
M  V30 24 1 12 23
M  V30 25 1 12 24
M  V30 26 1 12 25
M  V30 27 1 13 26
M  V30 28 1 14 27
M  V30 29 1 15 28
M  V30 30 1 15 29
M  V30 31 1 16 30
M  V30 32 1 17 31
M  V30 END BOND
M  V30 BEGIN COLLECTION
M  V30 MDLV30/STEABS ATOMS=(3 6 13 14)
M  V30 END COLLECTION
M  V30 END CTAB
M  END
>  <Structure No>
1907

>  <LogS>
-0.742062088

>  <MMFF94 Energy>
-57.885

$$$$
Compound 1908
Actelion Java MolfileCreator 2.0

  0  0  0  0  0  0              0 V3000
M  V30 BEGIN CTAB
M  V30 COUNTS 61 62 0 0 0
M  V30 BEGIN ATOM
M  V30 1 O 1.341 0.9464 -0.7886 0
M  V30 2 C 0.8016 -0.0159 -0.1824 0
M  V30 3 O 1.5704 -1.108 0.1989 0 CHG=-1
M  V30 4 C -0.6448 0.0416 0.1758 0
M  V30 5 N -3.3312 1.0782 -0.4592 0 CHG=1
M  V30 6 C -4.7026 0.8881 -0.1369 0
M  V30 7 C -2.7143 -0.058 -0.2583 0
M  V30 8 C -2.7465 2.332 -0.9429 0
M  V30 9 C -4.9411 -0.4112 0.2319 0
M  V30 10 C -5.7263 1.8415 -0.1479 0
M  V30 11 C -1.2595 -0.2701 -0.4319 0
M  V30 12 C -3.6547 -1.1767 0.1654 0
M  V30 13 C -6.2195 -0.8404 0.5986 0
M  V30 14 C -7.02 1.4328 0.2172 0
M  V30 15 C -0.3528 0.552 0.1124 0
M  V30 16 C -3.2698 -1.7344 1.5437 0
M  V30 17 C -3.73 -2.2837 -0.8968 0
M  V30 18 C -7.2663 0.0958 0.5875 0
M  V30 19 C 1.1137 0.3643 -0.0081 0
M  V30 20 C 1.9508 1.4692 0.216 0
M  V30 21 C 1.6996 -0.882 -0.3055 0
M  V30 22 C 3.339 1.3423 0.1213 0
M  V30 23 C 3.0886 -1.0065 -0.4005 0
M  V30 24 C 3.9188 0.1044 -0.1913 0
M  V30 25 N 5.3507 -0.0266 -0.2896 0
M  V30 26 C 6.1999 0.3496 0.8501 0
M  V30 27 C 5.9544 -0.5376 -1.5288 0
M  V30 28 C 6.0127 -0.6316 2.0021 0
M  V30 29 C 5.7936 0.4747 -2.6577 0
M  V30 30 H -0.7704 0.6172 1.1164 0
M  V30 31 H -1.0407 -0.9853 0.3212 0
M  V30 32 H -1.2191 0.5357 -0.636 0
M  V30 33 H -3.4775 2.8774 -1.5748 0
M  V30 34 H -2.4654 2.9714 -0.0804 0
M  V30 35 H -1.8552 2.1382 -1.5756 0
M  V30 36 H -5.5374 2.8703 -0.4228 0
M  V30 37 H -0.9514 -1.1626 -0.9549 0
M  V30 38 H -6.4001 -1.8678 0.8866 0
M  V30 39 H -7.8312 2.1494 0.2166 0
M  V30 40 H -0.6992 1.42 0.6602 0
M  V30 41 H -2.2748 -2.2267 1.4971 0
M  V30 42 H -3.2236 -0.9183 2.2975 0
M  V30 43 H -4.0169 -2.4846 1.8806 0
M  V30 44 H -3.9797 -1.8553 -1.8919 0
M  V30 45 H -4.5114 -3.0258 -0.6262 0
M  V30 46 H -2.7584 -2.816 -0.9748 0
M  V30 47 H -8.2657 -0.2104 0.8681 0
M  V30 48 H 1.5279 2.4379 0.4535 0
M  V30 49 H 1.0991 -1.7706 -0.4385 0
M  V30 50 H 3.9596 2.2155 0.2742 0
M  V30 51 H 3.5172 -1.9774 -0.6122 0
M  V30 52 H 5.953 1.3766 1.1917 0
M  V30 53 H 7.2729 0.3565 0.5608 0
M  V30 54 H 7.0375 -0.7428 -1.3878 0
M  V30 55 H 5.4806 -1.4984 -1.82 0
M  V30 56 H 6.6878 -0.3575 2.8401 0
M  V30 57 H 6.2558 -1.6621 1.6665 0
M  V30 58 H 4.9638 -0.6035 2.3665 0
M  V30 59 H 4.7175 0.6407 -2.8769 0
M  V30 60 H 6.2618 1.4404 -2.3711 0
M  V30 61 H 6.289 0.0932 -3.5752 0
M  V30 END ATOM
M  V30 BEGIN BOND
M  V30 1 2 1 2
M  V30 2 1 2 3
M  V30 3 1 2 4
M  V30 4 1 5 6
M  V30 5 2 5 7
M  V30 6 1 5 8
M  V30 7 2 6 9
M  V30 8 1 6 10
M  V30 9 1 7 11
M  V30 10 1 7 12
M  V30 11 1 9 13
M  V30 12 2 10 14
M  V30 13 2 11 15
M  V30 14 1 12 16
M  V30 15 1 12 17
M  V30 16 2 13 18
M  V30 17 1 15 19
M  V30 18 2 19 20
M  V30 19 1 19 21
M  V30 20 1 20 22
M  V30 21 2 21 23
M  V30 22 2 22 24
M  V30 23 1 24 25
M  V30 24 1 25 26
M  V30 25 1 25 27
M  V30 26 1 26 28
M  V30 27 1 27 29
M  V30 28 1 9 12
M  V30 29 1 14 18
M  V30 30 1 23 24
M  V30 31 1 4 30
M  V30 32 1 4 31
M  V30 33 1 4 32
M  V30 34 1 8 33
M  V30 35 1 8 34
M  V30 36 1 8 35
M  V30 37 1 10 36
M  V30 38 1 11 37
M  V30 39 1 13 38
M  V30 40 1 14 39
M  V30 41 1 15 40
M  V30 42 1 16 41
M  V30 43 1 16 42
M  V30 44 1 16 43
M  V30 45 1 17 44
M  V30 46 1 17 45
M  V30 47 1 17 46
M  V30 48 1 18 47
M  V30 49 1 20 48
M  V30 50 1 21 49
M  V30 51 1 22 50
M  V30 52 1 23 51
M  V30 53 1 26 52
M  V30 54 1 26 53
M  V30 55 1 27 54
M  V30 56 1 27 55
M  V30 57 1 28 56
M  V30 58 1 28 57
M  V30 59 1 28 58
M  V30 60 1 29 59
M  V30 61 1 29 60
M  V30 62 1 29 61
M  V30 END BOND
M  V30 END CTAB
M  END
>  <Structure No>
1908

>  <LogS>
-0.960418782

>  <MMFF94 Energy>
88.183

$$$$
Compound 1909
Actelion Java MolfileCreator 2.0

  0  0  0  0  0  0              0 V3000
M  V30 BEGIN CTAB
M  V30 COUNTS 43 46 0 0 0
M  V30 BEGIN ATOM
M  V30 1 O -2.207 0.3267 4.2538 0
M  V30 2 C -2.5019 1.121 3.3221 0
M  V30 3 O -3.0116 2.3747 3.6397 0 CHG=-1
M  V30 4 C -2.3847 0.706 1.9063 0
M  V30 5 C -1.3415 -0.126 1.4404 0
M  V30 6 C -3.3702 1.1351 1.0155 0
M  V30 7 O -0.2902 -0.4974 2.2845 0
M  V30 8 C -1.3224 -0.5787 0.0965 0
M  V30 9 C -3.3806 0.7022 -0.3116 0
M  V30 10 C -2.3713 -0.1774 -0.7899 0
M  V30 11 C -0.1569 -1.4732 -0.3269 0
M  V30 12 C -4.4125 1.1333 -1.1624 0
M  V30 13 C -2.4615 -0.6115 -2.1371 0
M  V30 14 C 1.1712 -0.7152 -0.332 0
M  V30 15 C -4.4659 0.6985 -2.4834 0
M  V30 16 C -3.4958 -0.1728 -2.9671 0
M  V30 17 C 1.3334 0.3093 -1.2984 0
M  V30 18 C 2.2526 -1.0121 0.5569 0
M  V30 19 O 0.3233 0.4981 -2.2467 0
M  V30 20 C 2.5071 1.0957 -1.3258 0
M  V30 21 C 3.4469 -0.2451 0.4716 0
M  V30 22 C 2.203 -2.0466 1.5263 0
M  V30 23 C 2.6637 2.2613 -2.2246 0
M  V30 24 C 3.5556 0.7932 -0.4552 0
M  V30 25 C 4.5286 -0.5123 1.3276 0
M  V30 26 C 3.2893 -2.2974 2.3676 0
M  V30 27 O 1.6852 3.0099 -2.4861 0
M  V30 28 O 3.9158 2.584 -2.7349 0 CHG=-1
M  V30 29 C 4.4478 -1.5341 2.2691 0
M  V30 30 H -4.1643 1.7835 1.371 0
M  V30 31 H -0.113 -0.0738 3.1848 0
M  V30 32 H -0.1719 -2.3569 0.3285 0
M  V30 33 H -0.2761 -1.9344 -1.3191 0
M  V30 34 H -5.1831 1.8056 -0.8029 0
M  V30 35 H -1.7537 -1.2825 -2.5893 0
M  V30 36 H -5.2643 1.0341 -3.1325 0
M  V30 37 H -3.5439 -0.5119 -3.9942 0
M  V30 38 H 0.4289 1.0642 -3.0772 0
M  V30 39 H 1.3448 -2.6771 1.6734 0
M  V30 40 H 4.4614 1.3899 -0.4836 0
M  V30 41 H 5.4398 0.0716 1.2685 0
M  V30 42 H 3.2303 -3.0897 3.1031 0
M  V30 43 H 5.2853 -1.7341 2.9252 0
M  V30 END ATOM
M  V30 BEGIN BOND
M  V30 1 2 1 2
M  V30 2 1 2 3
M  V30 3 1 2 4
M  V30 4 1 4 5
M  V30 5 2 4 6
M  V30 6 1 5 7
M  V30 7 2 5 8
M  V30 8 1 6 9
M  V30 9 1 8 10
M  V30 10 1 8 11
M  V30 11 2 9 12
M  V30 12 2 10 13
M  V30 13 1 11 14
M  V30 14 1 12 15
M  V30 15 1 13 16
M  V30 16 2 14 17
M  V30 17 1 14 18
M  V30 18 1 17 19
M  V30 19 1 17 20
M  V30 20 1 18 21
M  V30 21 2 18 22
M  V30 22 1 20 23
M  V30 23 2 20 24
M  V30 24 2 21 25
M  V30 25 1 22 26
M  V30 26 2 23 27
M  V30 27 1 23 28
M  V30 28 1 25 29
M  V30 29 1 9 10
M  V30 30 2 15 16
M  V30 31 1 21 24
M  V30 32 2 26 29
M  V30 33 1 6 30
M  V30 34 1 7 31
M  V30 35 1 11 32
M  V30 36 1 11 33
M  V30 37 1 12 34
M  V30 38 1 13 35
M  V30 39 1 15 36
M  V30 40 1 16 37
M  V30 41 1 19 38
M  V30 42 1 22 39
M  V30 43 1 24 40
M  V30 44 1 25 41
M  V30 45 1 26 42
M  V30 46 1 29 43
M  V30 END BOND
M  V30 END CTAB
M  END
>  <Structure No>
1909

>  <LogS>
-0.980758883

>  <MMFF94 Energy>
98.123

$$$$
Compound 1910
Actelion Java MolfileCreator 2.0

  0  0  0  0  0  0              0 V3000
M  V30 BEGIN CTAB
M  V30 COUNTS 14 13 0 0 0
M  V30 BEGIN ATOM
M  V30 1 O 1.5424 1.9487 -0.6492 0
M  V30 2 C 1.4565 0.7295 -0.9548 0
M  V30 3 O 1.8362 0.3137 -2.2246 0 CHG=-1
M  V30 4 C 0.8959 -0.265 0.0216 0 CFG=1
M  V30 5 O 1.2338 0.1166 1.3316 0
M  V30 6 C -0.6328 -0.4006 -0.139 0 CFG=1
M  V30 7 O -1.0909 -1.4579 0.6631 0
M  V30 8 C -1.3473 0.8692 0.2408 0
M  V30 9 O -1.7328 1.6692 -0.6519 0
M  V30 10 O -1.5553 1.1828 1.5786 0 CHG=-1
M  V30 11 H 1.3633 -1.2513 -0.2077 0
M  V30 12 H 1.1437 -0.6918 1.9007 0
M  V30 13 H -0.85 -0.637 -1.208 0
M  V30 14 H -2.0026 -1.688 0.3433 0
M  V30 END ATOM
M  V30 BEGIN BOND
M  V30 1 2 1 2
M  V30 2 1 2 3
M  V30 3 1 2 4
M  V30 4 1 4 5
M  V30 5 1 4 6
M  V30 6 1 6 7
M  V30 7 1 6 8
M  V30 8 2 8 9
M  V30 9 1 8 10
M  V30 10 1 4 11
M  V30 11 1 5 12
M  V30 12 1 6 13
M  V30 13 1 7 14
M  V30 END BOND
M  V30 BEGIN COLLECTION
M  V30 MDLV30/STEABS ATOMS=(2 4 6)
M  V30 END COLLECTION
M  V30 END CTAB
M  END
>  <Structure No>
1910

>  <LogS>
0.366276763

>  <MMFF94 Energy>
179

$$$$
Compound 1911
Actelion Java MolfileCreator 2.0

  0  0  0  0  0  0              0 V3000
M  V30 BEGIN CTAB
M  V30 COUNTS 21 21 0 0 0
M  V30 BEGIN ATOM
M  V30 1 N 1.3938 0.4644 0.8516 0
M  V30 2 C 0.0712 0.6745 0.6159 0
M  V30 3 C 2.1659 -0.251 -0.0058 0
M  V30 4 N -0.6823 1.4296 1.5711 0
M  V30 5 C -0.5177 0.1374 -0.5513 0
M  V30 6 N 1.6106 -0.8031 -1.114 0
M  V30 7 C 3.6046 -0.4915 0.3079 0
M  V30 8 C 0.2967 -0.6246 -1.4008 0
M  V30 9 C -1.9822 0.3056 -0.8865 0
M  V30 10 N -2.7959 -0.6797 -0.1751 0 CHG=1
M  V30 11 H -0.203 1.8235 2.411 0
M  V30 12 H -1.7091 1.5867 1.4858 0
M  V30 13 H 3.7007 -1.4163 0.9138 0
M  V30 14 H 4.1868 -0.6077 -0.6303 0
M  V30 15 H 4.0199 0.3646 0.8802 0
M  V30 16 H -0.1131 -1.0796 -2.2933 0
M  V30 17 H -2.3252 1.3338 -0.6444 0
M  V30 18 H -2.1379 0.184 -1.9818 0
M  V30 19 H -3.8015 -0.536 -0.4224 0
M  V30 20 H -2.6826 -0.5687 0.8582 0
M  V30 21 H -2.5125 -1.6462 -0.4572 0
M  V30 END ATOM
M  V30 BEGIN BOND
M  V30 1 2 1 2
M  V30 2 1 1 3
M  V30 3 1 2 4
M  V30 4 1 2 5
M  V30 5 2 3 6
M  V30 6 1 3 7
M  V30 7 2 5 8
M  V30 8 1 5 9
M  V30 9 1 9 10
M  V30 10 1 6 8
M  V30 11 1 4 11
M  V30 12 1 4 12
M  V30 13 1 7 13
M  V30 14 1 7 14
M  V30 15 1 7 15
M  V30 16 1 8 16
M  V30 17 1 9 17
M  V30 18 1 9 18
M  V30 19 1 10 19
M  V30 20 1 10 20
M  V30 21 1 10 21
M  V30 END BOND
M  V30 END CTAB
M  END
>  <Structure No>
1911

>  <LogS>
0.490306563

>  <MMFF94 Energy>
-61.053

$$$$
Compound 1912
Actelion Java MolfileCreator 2.0

  0  0  0  0  0  0              0 V3000
M  V30 BEGIN CTAB
M  V30 COUNTS 4 3 0 0 0
M  V30 BEGIN ATOM
M  V30 1 O 1.249 -0.0832 0.0 0
M  V30 2 N 0.0041 -0.0143 -0.0143 0 CHG=1
M  V30 3 O -0.7475 -1.1646 -0.0236 0 CHG=-1
M  V30 4 O -0.6161 1.2118 -0.021 0 CHG=-1
M  V30 END ATOM
M  V30 BEGIN BOND
M  V30 1 2 1 2
M  V30 2 1 2 3
M  V30 3 1 2 4
M  V30 END BOND
M  V30 END CTAB
M  END
>  <Structure No>
1912

>  <LogS>
1.377095201

>  <MMFF94 Energy>
6.4146

$$$$
Compound 1913
Actelion Java MolfileCreator 2.0

  0  0  0  0  0  0              0 V3000
M  V30 BEGIN CTAB
M  V30 COUNTS 40 39 0 0 0
M  V30 BEGIN ATOM
M  V30 1 N -4.2196 0.0765 -0.0765 0 CHG=1
M  V30 2 C -3.4219 0.531 -1.2428 0
M  V30 3 C -5.5254 0.7605 -0.0782 0
M  V30 4 C -4.4287 -1.3838 -0.0851 0
M  V30 5 C -1.986 -0.0345 -1.2929 0
M  V30 6 C -1.1397 0.3454 -0.0665 0
M  V30 7 N 0.271 -0.0158 -0.2747 0 CHG=1
M  V30 8 C 1.0774 0.3459 0.9032 0
M  V30 9 C 2.5263 -0.1608 0.7901 0
M  V30 10 C 3.3289 0.5831 -0.3016 0
M  V30 11 N 4.7726 0.2559 -0.3248 0
M  V30 12 C 5.0346 -1.1701 -0.5727 0
M  V30 13 C 5.4914 0.7308 0.8682 0
M  V30 14 H -3.7346 0.3435 0.811 0
M  V30 15 H -3.3441 1.6422 -1.2348 0
M  V30 16 H -3.9374 0.2528 -2.1902 0
M  V30 17 H -6.1179 0.4745 0.8189 0
M  V30 18 H -5.3888 1.8639 -0.0403 0
M  V30 19 H -6.1111 0.5039 -0.9893 0
M  V30 20 H -5.1395 -1.6851 0.7159 0
M  V30 21 H -4.8325 -1.7265 -1.0636 0
M  V30 22 H -3.4787 -1.9176 0.1266 0
M  V30 23 H -2.0024 -1.1372 -1.4177 0
M  V30 24 H -1.4992 0.3793 -2.203 0
M  V30 25 H -1.2256 1.4414 0.1117 0
M  V30 26 H -1.5309 -0.1927 0.8248 0
M  V30 27 H 0.6291 0.4998 -1.1116 0
M  V30 28 H 0.3394 -1.0473 -0.4425 0
M  V30 29 H 0.6331 -0.1094 1.8174 0
M  V30 30 H 1.0794 1.4505 1.0442 0
M  V30 31 H 2.5124 -1.2519 0.5829 0
M  V30 32 H 3.0059 -0.0078 1.7783 0
M  V30 33 H 3.207 1.6806 -0.1666 0
M  V30 34 H 2.9009 0.345 -1.2985 0
M  V30 35 H 4.7846 -1.7912 0.3147 0
M  V30 36 H 6.1095 -1.3153 -0.8123 0
M  V30 37 H 4.4477 -1.5269 -1.4464 0
M  V30 38 H 5.2244 1.7859 1.0927 0
M  V30 39 H 5.2747 0.1006 1.7572 0
M  V30 40 H 6.5852 0.6998 0.6778 0
M  V30 END ATOM
M  V30 BEGIN BOND
M  V30 1 1 1 2
M  V30 2 1 1 3
M  V30 3 1 1 4
M  V30 4 1 2 5
M  V30 5 1 5 6
M  V30 6 1 6 7
M  V30 7 1 7 8
M  V30 8 1 8 9
M  V30 9 1 9 10
M  V30 10 1 10 11
M  V30 11 1 11 12
M  V30 12 1 11 13
M  V30 13 1 1 14
M  V30 14 1 2 15
M  V30 15 1 2 16
M  V30 16 1 3 17
M  V30 17 1 3 18
M  V30 18 1 3 19
M  V30 19 1 4 20
M  V30 20 1 4 21
M  V30 21 1 4 22
M  V30 22 1 5 23
M  V30 23 1 5 24
M  V30 24 1 6 25
M  V30 25 1 6 26
M  V30 26 1 7 27
M  V30 27 1 7 28
M  V30 28 1 8 29
M  V30 29 1 8 30
M  V30 30 1 9 31
M  V30 31 1 9 32
M  V30 32 1 10 33
M  V30 33 1 10 34
M  V30 34 1 12 35
M  V30 35 1 12 36
M  V30 36 1 12 37
M  V30 37 1 13 38
M  V30 38 1 13 39
M  V30 39 1 13 40
M  V30 END BOND
M  V30 END CTAB
M  END
>  <Structure No>
1913

>  <LogS>
0.355850804

>  <MMFF94 Energy>
80.034

$$$$
Compound 1914
Actelion Java MolfileCreator 2.0

  0  0  0  0  0  0              0 V3000
M  V30 BEGIN CTAB
M  V30 COUNTS 24 24 0 0 0
M  V30 BEGIN ATOM
M  V30 1 O 1.4804 -0.9348 0.2336 0
M  V30 2 C 0.1799 -0.4642 -0.0224 0
M  V30 3 C 2.65 -0.1269 0.3691 0
M  V30 4 C -0.8872 -1.3844 -0.0081 0
M  V30 5 C -0.0874 0.8914 -0.3004 0
M  V30 6 C 2.668 0.5753 1.7246 0
M  V30 7 N -0.6521 -2.7703 0.2671 0
M  V30 8 C -2.1949 -0.9439 -0.2624 0
M  V30 9 C -1.3929 1.3193 -0.5518 0
M  V30 10 O 3.8445 1.324 1.8475 0
M  V30 11 C -2.4519 0.4054 -0.5334 0
M  V30 12 N -3.7877 0.8464 -0.7914 0
M  V30 13 H 2.7255 0.6033 -0.4641 0
M  V30 14 H 3.5373 -0.7917 0.3058 0
M  V30 15 H 0.7034 1.6267 -0.3288 0
M  V30 16 H 1.787 1.2465 1.8185 0
M  V30 17 H 2.6232 -0.1894 2.5321 0
M  V30 18 H -1.4428 -3.4526 0.2782 0
M  V30 19 H 0.3071 -3.1324 0.4632 0
M  V30 20 H -3.0135 -1.6532 -0.2489 0
M  V30 21 H -1.5789 2.365 -0.7626 0
M  V30 22 H 3.8082 1.7485 2.7438 0
M  V30 23 H -4.5853 0.1721 -0.7804 0
M  V30 24 H -3.9894 1.8508 -0.9949 0
M  V30 END ATOM
M  V30 BEGIN BOND
M  V30 1 1 1 2
M  V30 2 1 1 3
M  V30 3 2 2 4
M  V30 4 1 2 5
M  V30 5 1 3 6
M  V30 6 1 4 7
M  V30 7 1 4 8
M  V30 8 2 5 9
M  V30 9 1 6 10
M  V30 10 2 8 11
M  V30 11 1 11 12
M  V30 12 1 9 11
M  V30 13 1 3 13
M  V30 14 1 3 14
M  V30 15 1 5 15
M  V30 16 1 6 16
M  V30 17 1 6 17
M  V30 18 1 7 18
M  V30 19 1 7 19
M  V30 20 1 8 20
M  V30 21 1 9 21
M  V30 22 1 10 22
M  V30 23 1 12 23
M  V30 24 1 12 24
M  V30 END BOND
M  V30 END CTAB
M  END
>  <Structure No>
1914

>  <LogS>
0.246159297

>  <MMFF94 Energy>
40.608

$$$$
Compound 1915
Actelion Java MolfileCreator 2.0

  0  0  0  0  0  0              0 V3000
M  V30 BEGIN CTAB
M  V30 COUNTS 18 17 0 0 0
M  V30 BEGIN ATOM
M  V30 1 O -1.7326 -1.1548 2.0629 0
M  V30 2 C -1.327 -1.0787 0.8725 0
M  V30 3 O -2.1028 -1.6283 -0.1427 0 CHG=-1
M  V30 4 C -0.0452 -0.3314 0.5528 0
M  V30 5 O 0.8699 -0.5249 1.6081 0
M  V30 6 C -0.3479 1.1877 0.474 0
M  V30 7 C 0.5756 -0.8663 -0.7706 0
M  V30 8 C -1.3286 1.5562 -0.6031 0
M  V30 9 C 1.9133 -0.2557 -1.0709 0
M  V30 10 O -2.5667 1.4955 -0.3816 0
M  V30 11 O -0.8742 1.9508 -1.8551 0 CHG=-1
M  V30 12 O 2.9514 -0.6966 -0.511 0
M  V30 13 O 2.0097 0.8152 -1.9502 0 CHG=-1
M  V30 14 H 1.0575 -1.4985 1.6778 0
M  V30 15 H 0.5947 1.752 0.3079 0
M  V30 16 H -0.7489 1.534 1.4524 0
M  V30 17 H -0.1061 -0.6794 -1.6278 0
M  V30 18 H 0.7035 -1.9692 -0.7012 0
M  V30 END ATOM
M  V30 BEGIN BOND
M  V30 1 2 1 2
M  V30 2 1 2 3
M  V30 3 1 2 4
M  V30 4 1 4 5
M  V30 5 1 4 6
M  V30 6 1 4 7
M  V30 7 1 6 8
M  V30 8 1 7 9
M  V30 9 2 8 10
M  V30 10 1 8 11
M  V30 11 2 9 12
M  V30 12 1 9 13
M  V30 13 1 5 14
M  V30 14 1 6 15
M  V30 15 1 6 16
M  V30 16 1 7 17
M  V30 17 1 7 18
M  V30 END BOND
M  V30 END CTAB
M  END
>  <Structure No>
1915

>  <LogS>
0.216653091

>  <MMFF94 Energy>
234.37

$$$$
Compound 1916
Actelion Java MolfileCreator 2.0

  0  0  0  0  0  0              0 V3000
M  V30 BEGIN CTAB
M  V30 COUNTS 4 3 0 0 0
M  V30 BEGIN ATOM
M  V30 1 O -0.3329 1.249 0.0 0
M  V30 2 N -0.0066 0.0456 -0.0118 0 CHG=1
M  V30 3 O -0.9748 -0.9289 0.0225 0 CHG=-1
M  V30 4 O 1.3208 -0.3057 -0.0593 0 CHG=-1
M  V30 END ATOM
M  V30 BEGIN BOND
M  V30 1 2 1 2
M  V30 2 1 2 3
M  V30 3 1 2 4
M  V30 END BOND
M  V30 END CTAB
M  END
>  <Structure No>
1916

>  <LogS>
-0.940813194

>  <MMFF94 Energy>
6.4146

$$$$
Compound 1917
Actelion Java MolfileCreator 2.0

  0  0  0  0  0  0              0 V3000
M  V30 BEGIN CTAB
M  V30 COUNTS 1 0 0 0 0
M  V30 BEGIN ATOM
M  V30 1 F 0.0 0.0 0.0 0 CHG=-1
M  V30 END ATOM
M  V30 BEGIN BOND
M  V30 END BOND
M  V30 END CTAB
M  END
>  <Structure No>
1917

>  <LogS>
-0.002187262

>  <MMFF94 Energy>
MMFF94 error code 2

$$$$
Compound 1918
Actelion Java MolfileCreator 2.0

  0  0  0  0  0  0              0 V3000
M  V30 BEGIN CTAB
M  V30 COUNTS 21 21 0 0 0
M  V30 BEGIN ATOM
M  V30 1 N -1.853 -0.5401 1.3122 0 CHG=1
M  V30 2 C -1.3264 -0.5442 -0.0583 0 CFG=2
M  V30 3 C 0.1503 -0.1903 -0.0739 0
M  V30 4 C -2.1285 0.4086 -0.9549 0
M  V30 5 C 0.6054 1.05 0.4145 0
M  V30 6 C 1.0887 -1.1071 -0.5823 0
M  V30 7 C 1.9682 1.3618 0.3936 0
M  V30 8 C 2.4505 -0.79 -0.6005 0
M  V30 9 C 2.8898 0.4428 -0.1128 0
M  V30 10 H -2.8388 -0.8902 1.311 0
M  V30 11 H -1.2802 -1.1764 1.9134 0
M  V30 12 H -1.8384 0.4233 1.7184 0
M  V30 13 H -1.4629 -1.5686 -0.4743 0
M  V30 14 H -3.1899 0.0837 -0.9977 0
M  V30 15 H -2.0939 1.4481 -0.5654 0
M  V30 16 H -1.7182 0.3964 -1.9873 0
M  V30 17 H -0.0911 1.7779 0.8095 0
M  V30 18 H 0.769 -2.0682 -0.9652 0
M  V30 19 H 2.3098 2.3172 0.7705 0
M  V30 20 H 3.1657 -1.5011 -0.9933 0
M  V30 21 H 3.9443 0.6863 -0.1281 0
M  V30 END ATOM
M  V30 BEGIN BOND
M  V30 1 1 1 2
M  V30 2 1 2 3
M  V30 3 1 2 4
M  V30 4 2 3 5
M  V30 5 1 3 6
M  V30 6 1 5 7
M  V30 7 2 6 8
M  V30 8 2 7 9
M  V30 9 1 8 9
M  V30 10 1 1 10
M  V30 11 1 1 11
M  V30 12 1 1 12
M  V30 13 1 2 13
M  V30 14 1 4 14
M  V30 15 1 4 15
M  V30 16 1 4 16
M  V30 17 1 5 17
M  V30 18 1 6 18
M  V30 19 1 7 19
M  V30 20 1 8 20
M  V30 21 1 9 21
M  V30 END BOND
M  V30 BEGIN COLLECTION
M  V30 MDLV30/STEABS ATOMS=(1 2)
M  V30 END COLLECTION
M  V30 END CTAB
M  END
>  <Structure No>
1918

>  <LogS>
-0.460192409

>  <MMFF94 Energy>
11.777

$$$$
Compound 1919
Actelion Java MolfileCreator 2.0

  0  0  0  0  0  0              0 V3000
M  V30 BEGIN CTAB
M  V30 COUNTS 19 19 0 0 0
M  V30 BEGIN ATOM
M  V30 1 O 1.9786 -1.3451 -1.1076 0
M  V30 2 C 1.5092 -0.4862 -0.3102 0
M  V30 3 O 2.3701 0.2476 0.5134 0
M  V30 4 C 0.0493 -0.2532 -0.2444 0
M  V30 5 C 3.7816 0.0722 0.4992 0
M  V30 6 C -0.8323 -0.9814 -1.0648 0
M  V30 7 C -0.4779 0.7025 0.6425 0
M  V30 8 C -2.2109 -0.7564 -0.9976 0
M  V30 9 C -1.8571 0.9246 0.7067 0
M  V30 10 C -2.7271 0.1952 -0.1136 0
M  V30 11 O -4.1027 0.4084 -0.0579 0
M  V30 12 H 4.183 0.3021 -0.5104 0
M  V30 13 H 4.242 0.763 1.235 0
M  V30 14 H 4.0378 -0.9721 0.7766 0
M  V30 15 H -0.4581 -1.7243 -1.7581 0
M  V30 16 H 0.1733 1.2793 1.2871 0
M  V30 17 H -2.879 -1.3229 -1.6339 0
M  V30 18 H -2.2482 1.6638 1.3943 0
M  V30 19 H -4.5077 1.091 0.5722 0
M  V30 END ATOM
M  V30 BEGIN BOND
M  V30 1 2 1 2
M  V30 2 1 2 3
M  V30 3 1 2 4
M  V30 4 1 3 5
M  V30 5 2 4 6
M  V30 6 1 4 7
M  V30 7 1 6 8
M  V30 8 2 7 9
M  V30 9 2 8 10
M  V30 10 1 10 11
M  V30 11 1 9 10
M  V30 12 1 5 12
M  V30 13 1 5 13
M  V30 14 1 5 14
M  V30 15 1 6 15
M  V30 16 1 7 16
M  V30 17 1 8 17
M  V30 18 1 9 18
M  V30 19 1 11 19
M  V30 END BOND
M  V30 END CTAB
M  END
>  <Structure No>
1919

>  <LogS>
0.380300188

>  <MMFF94 Energy>
18.594

$$$$
Compound 1920
Actelion Java MolfileCreator 2.0

  0  0  0  0  0  0              0 V3000
M  V30 BEGIN CTAB
M  V30 COUNTS 18 17 0 0 0
M  V30 BEGIN ATOM
M  V30 1 O -2.2994 1.6647 0.3169 0
M  V30 2 C -1.6817 0.6625 0.7638 0
M  V30 3 O -1.6057 0.461 2.1369 0 CHG=-1
M  V30 4 C -1.0265 -0.3077 -0.1848 0 CFG=2
M  V30 5 N -1.5921 -1.649 0.0014 0 CHG=1
M  V30 6 C 0.5034 -0.3346 0.0193 0
M  V30 7 C 1.1631 0.9986 -0.3582 0
M  V30 8 C 2.6474 0.9133 -0.1922 0
M  V30 9 O 3.3718 0.5387 -1.1515 0
M  V30 10 O 3.227 1.2 1.0371 0 CHG=-1
M  V30 11 H -1.2353 0.0149 -1.2309 0
M  V30 12 H -1.3799 -2.0099 0.9605 0
M  V30 13 H -2.6294 -1.619 -0.1332 0
M  V30 14 H -1.1905 -2.3048 -0.7073 0
M  V30 15 H 0.9357 -1.136 -0.6202 0
M  V30 16 H 0.7387 -0.5829 1.0784 0
M  V30 17 H 0.7778 1.8137 0.291 0
M  V30 18 H 0.9243 1.2537 -1.4137 0
M  V30 END ATOM
M  V30 BEGIN BOND
M  V30 1 2 1 2
M  V30 2 1 2 3
M  V30 3 1 2 4
M  V30 4 1 4 5
M  V30 5 1 4 6
M  V30 6 1 6 7
M  V30 7 1 7 8
M  V30 8 2 8 9
M  V30 9 1 8 10
M  V30 10 1 4 11
M  V30 11 1 5 12
M  V30 12 1 5 13
M  V30 13 1 5 14
M  V30 14 1 6 15
M  V30 15 1 6 16
M  V30 16 1 7 17
M  V30 17 1 7 18
M  V30 END BOND
M  V30 BEGIN COLLECTION
M  V30 MDLV30/STEABS ATOMS=(1 4)
M  V30 END COLLECTION
M  V30 END CTAB
M  END
>  <Structure No>
1920

>  <LogS>
0.391961629

>  <MMFF94 Energy>
-50.41

$$$$
Compound 1921
Actelion Java MolfileCreator 2.0

  0  0  0  0  0  0              0 V3000
M  V30 BEGIN CTAB
M  V30 COUNTS 3 2 0 0 0
M  V30 BEGIN ATOM
M  V30 1 N 0 0 0 0 CHG=1
M  V30 2 N 0 0 0 0 CHG=-1
M  V30 3 N 0 0 0 0 CHG=-1
M  V30 END ATOM
M  V30 BEGIN BOND
M  V30 1 2 1 2
M  V30 2 2 1 3
M  V30 END BOND
M  V30 END CTAB
M  END
>  <Structure No>
1921

>  <LogS>
0.804013495

>  <MMFF94 Energy>
MMFF94 error code 2

$$$$
Compound 1922
Actelion Java MolfileCreator 2.0

  0  0  0  0  0  0              0 V3000
M  V30 BEGIN CTAB
M  V30 COUNTS 32 31 0 0 0
M  V30 BEGIN ATOM
M  V30 1 O -1.5471 0.1627 -3.2592 0
M  V30 2 C -2.3162 0.4362 -2.3003 0
M  V30 3 O -2.7684 1.7385 -2.1302 0 CHG=-1
M  V30 4 C -2.721 -0.6291 -1.328 0
M  V30 5 N -2.0814 -0.4095 -0.0124 0
M  V30 6 C -2.7209 -1.2593 1.0141 0
M  V30 7 C -0.6114 -0.6294 -0.0684 0
M  V30 8 C -2.3711 -0.774 2.3877 0
M  V30 9 C 0.1122 0.7102 0.1149 0
M  V30 10 O -1.7103 -1.5052 3.1711 0
M  V30 11 O -2.7703 0.4914 2.7988 0 CHG=-1
M  V30 12 N 1.5732 0.5247 0.2786 0
M  V30 13 C 2.2191 0.0789 -0.9832 0
M  V30 14 C 2.1893 1.772 0.7816 0
M  V30 15 C 2.4629 -1.3961 -0.937 0
M  V30 16 C 3.5394 1.4911 1.3666 0
M  V30 17 O 3.0724 -1.9069 0.0393 0
M  V30 18 O 2.0501 -2.2043 -1.9887 0 CHG=-1
M  V30 19 O 3.649 0.7415 2.3724 0
M  V30 20 O 4.6761 2.0536 0.8 0 CHG=-1
M  V30 21 H -3.8279 -0.5714 -1.2362 0
M  V30 22 H -2.4729 -1.6392 -1.7269 0
M  V30 23 H -2.4256 -2.326 0.8852 0
M  V30 24 H -3.8289 -1.2079 0.9325 0
M  V30 25 H -0.2595 -1.321 0.7306 0
M  V30 26 H -0.3019 -1.0925 -1.0303 0
M  V30 27 H -0.1081 1.3905 -0.7379 0
M  V30 28 H -0.3148 1.179 1.0298 0
M  V30 29 H 1.6068 0.3315 -1.8781 0
M  V30 30 H 3.2081 0.5629 -1.1432 0
M  V30 31 H 1.5771 2.2198 1.5955 0
M  V30 32 H 2.2687 2.5301 -0.0303 0
M  V30 END ATOM
M  V30 BEGIN BOND
M  V30 1 2 1 2
M  V30 2 1 2 3
M  V30 3 1 2 4
M  V30 4 1 4 5
M  V30 5 1 5 6
M  V30 6 1 5 7
M  V30 7 1 6 8
M  V30 8 1 7 9
M  V30 9 2 8 10
M  V30 10 1 8 11
M  V30 11 1 9 12
M  V30 12 1 12 13
M  V30 13 1 12 14
M  V30 14 1 13 15
M  V30 15 1 14 16
M  V30 16 2 15 17
M  V30 17 1 15 18
M  V30 18 2 16 19
M  V30 19 1 16 20
M  V30 20 1 4 21
M  V30 21 1 4 22
M  V30 22 1 6 23
M  V30 23 1 6 24
M  V30 24 1 7 25
M  V30 25 1 7 26
M  V30 26 1 9 27
M  V30 27 1 9 28
M  V30 28 1 13 29
M  V30 29 1 13 30
M  V30 30 1 14 31
M  V30 31 1 14 32
M  V30 END BOND
M  V30 END CTAB
M  END
>  <Structure No>
1922

>  <LogS>
0.024802502

>  <MMFF94 Energy>
602.88

$$$$
Compound 1923
Actelion Java MolfileCreator 2.0

  0  0  0  0  0  0              0 V3000
M  V30 BEGIN CTAB
M  V30 COUNTS 6 5 0 0 0
M  V30 BEGIN ATOM
M  V30 1 O 1.5221 -0.2535 0.8454 0
M  V30 2 C 0.7321 0.0322 -0.0919 0
M  V30 3 O 1.2401 0.3522 -1.3448 0 CHG=-1
M  V30 4 C -0.7148 0.0275 0.1376 0
M  V30 5 O -1.5049 0.3133 -0.7997 0
M  V30 6 O -1.2229 -0.2924 1.3905 0 CHG=-1
M  V30 END ATOM
M  V30 BEGIN BOND
M  V30 1 2 1 2
M  V30 2 1 2 3
M  V30 3 1 2 4
M  V30 4 2 4 5
M  V30 5 1 4 6
M  V30 END BOND
M  V30 END CTAB
M  END
>  <Structure No>
1923

>  <LogS>
-0.472581501

>  <MMFF94 Energy>
278.93

$$$$
Compound 1924
Actelion Java MolfileCreator 2.0

  0  0  0  0  0  0              0 V3000
M  V30 BEGIN CTAB
M  V30 COUNTS 20 19 0 0 0
M  V30 BEGIN ATOM
M  V30 1 O -0.7013 -1.1691 2.1052 0
M  V30 2 C -1.1317 -0.2038 1.4208 0
M  V30 3 O -1.741 0.8703 2.0588 0 CHG=-1
M  V30 4 C -0.9966 -0.22 -0.08 0 CFG=1
M  V30 5 N -2.3267 -0.2289 -0.6997 0 CHG=1
M  V30 6 C -0.1791 0.9939 -0.5795 0
M  V30 7 C 1.2783 1.0 -0.0888 0
M  V30 8 C 2.0729 -0.1266 -0.6826 0
M  V30 9 O 2.4786 -0.0457 -1.8727 0
M  V30 10 N 2.3485 -1.3016 0.0799 0
M  V30 11 H -0.4699 -1.1529 -0.3833 0
M  V30 12 H -2.2333 -0.3079 -1.7385 0
M  V30 13 H -2.8727 -1.0534 -0.3577 0
M  V30 14 H -2.8483 0.6485 -0.4688 0
M  V30 15 H -0.1814 1.0084 -1.6919 0
M  V30 16 H -0.6704 1.9334 -0.2432 0
M  V30 17 H 1.7499 1.9606 -0.3887 0
M  V30 18 H 1.3152 0.9551 1.0205 0
M  V30 19 H 2.8904 -2.0879 -0.3421 0
M  V30 20 H 2.0098 -1.3922 1.0633 0
M  V30 END ATOM
M  V30 BEGIN BOND
M  V30 1 2 1 2
M  V30 2 1 2 3
M  V30 3 1 2 4
M  V30 4 1 4 5
M  V30 5 1 4 6
M  V30 6 1 6 7
M  V30 7 1 7 8
M  V30 8 2 8 9
M  V30 9 1 8 10
M  V30 10 1 4 11
M  V30 11 1 5 12
M  V30 12 1 5 13
M  V30 13 1 5 14
M  V30 14 1 6 15
M  V30 15 1 6 16
M  V30 16 1 7 17
M  V30 17 1 7 18
M  V30 18 1 10 19
M  V30 19 1 10 20
M  V30 END BOND
M  V30 BEGIN COLLECTION
M  V30 MDLV30/STEABS ATOMS=(1 4)
M  V30 END COLLECTION
M  V30 END CTAB
M  END
>  <Structure No>
1924

>  <LogS>
-0.548311419

>  <MMFF94 Energy>
-53.463

$$$$
Compound 1925
Actelion Java MolfileCreator 2.0

  0  0  0  0  0  0              0 V3000
M  V30 BEGIN CTAB
M  V30 COUNTS 22 21 0 0 0
M  V30 BEGIN ATOM
M  V30 1 O -1.0091 -2.3299 -0.6985 0
M  V30 2 C -1.1475 -1.5717 0.2981 0
M  V30 3 O -1.3042 -2.1243 1.5631 0 CHG=-1
M  V30 4 C -1.1266 -0.0743 0.1266 0 CFG=2
M  V30 5 N -2.1248 0.3156 -0.8822 0 CHG=1
M  V30 6 C 0.3071 0.431 -0.2396 0 CFG=2
M  V30 7 C 1.3461 0.0821 0.8685 0
M  V30 8 C 0.3135 1.9518 -0.4852 0
M  V30 9 C 2.1345 -1.1927 0.563 0
M  V30 10 H -1.4219 0.3832 1.0987 0
M  V30 11 H -3.0297 -0.1797 -0.7057 0
M  V30 12 H -2.3219 1.3401 -0.8195 0
M  V30 13 H -1.791 0.0795 -1.8452 0
M  V30 14 H 0.6164 -0.0437 -1.1982 0
M  V30 15 H 0.8484 -0.0231 1.8571 0
M  V30 16 H 2.0938 0.8974 0.9839 0
M  V30 17 H -0.0834 2.4927 0.4004 0
M  V30 18 H 1.3457 2.3078 -0.6907 0
M  V30 19 H -0.2911 2.2122 -1.3782 0
M  V30 20 H 2.6728 -1.0899 -0.4029 0
M  V30 21 H 1.4694 -2.0772 0.5183 0
M  V30 22 H 2.8835 -1.3645 1.3646 0
M  V30 END ATOM
M  V30 BEGIN BOND
M  V30 1 2 1 2
M  V30 2 1 2 3
M  V30 3 1 2 4
M  V30 4 1 4 5
M  V30 5 1 4 6
M  V30 6 1 6 7
M  V30 7 1 6 8
M  V30 8 1 7 9
M  V30 9 1 4 10
M  V30 10 1 5 11
M  V30 11 1 5 12
M  V30 12 1 5 13
M  V30 13 1 6 14
M  V30 14 1 7 15
M  V30 15 1 7 16
M  V30 16 1 8 17
M  V30 17 1 8 18
M  V30 18 1 8 19
M  V30 19 1 9 20
M  V30 20 1 9 21
M  V30 21 1 9 22
M  V30 END BOND
M  V30 BEGIN COLLECTION
M  V30 MDLV30/STEABS ATOMS=(2 4 6)
M  V30 END COLLECTION
M  V30 END CTAB
M  END
>  <Structure No>
1925

>  <LogS>
-0.502953857

>  <MMFF94 Energy>
-2.353

$$$$
Compound 1926
Actelion Java MolfileCreator 2.0

  0  0  0  0  0  0              0 V3000
M  V30 BEGIN CTAB
M  V30 COUNTS 24 25 0 0 0
M  V30 BEGIN ATOM
M  V30 1 O 3.3435 0.7157 -1.5911 0
M  V30 2 C 2.2361 0.2397 -0.9159 0
M  V30 3 C 4.3985 -0.2448 -1.4442 0
M  V30 4 C 2.5297 -0.9588 -0.3548 0
M  V30 5 C 0.9829 0.8298 -0.7825 0
M  V30 6 O 3.8365 -1.2977 -0.6484 0
M  V30 7 C 1.596 -1.6719 0.3884 0
M  V30 8 C -0.0035 0.1464 -0.0361 0
M  V30 9 C 0.3154 -1.1117 0.5487 0
M  V30 10 N -1.3062 0.7409 0.113 0
M  V30 11 C -2.3932 0.1114 0.8662 0
M  V30 12 C -3.6511 0.9828 0.8463 0
M  V30 13 O -4.67 0.382 1.5982 0
M  V30 14 H 5.2629 0.2127 -0.9188 0
M  V30 15 H 4.7016 -0.6359 -2.4381 0
M  V30 16 H 0.7785 1.7882 -1.2422 0
M  V30 17 H 1.8476 -2.6274 0.8293 0
M  V30 18 H -0.4158 -1.6606 1.1255 0
M  V30 19 H -1.4784 1.6674 -0.3414 0
M  V30 20 H -2.0736 -0.0366 1.9206 0
M  V30 21 H -2.6293 -0.8764 0.4149 0
M  V30 22 H -3.9888 1.1467 -0.2024 0
M  V30 23 H -3.4194 1.973 1.2933 0
M  V30 24 H -5.0371 -0.3539 1.0421 0
M  V30 END ATOM
M  V30 BEGIN BOND
M  V30 1 1 1 2
M  V30 2 1 1 3
M  V30 3 2 2 4
M  V30 4 1 2 5
M  V30 5 1 3 6
M  V30 6 1 4 7
M  V30 7 2 5 8
M  V30 8 2 7 9
M  V30 9 1 8 10
M  V30 10 1 10 11
M  V30 11 1 11 12
M  V30 12 1 12 13
M  V30 13 1 4 6
M  V30 14 1 8 9
M  V30 15 1 3 14
M  V30 16 1 3 15
M  V30 17 1 5 16
M  V30 18 1 7 17
M  V30 19 1 9 18
M  V30 20 1 10 19
M  V30 21 1 11 20
M  V30 22 1 11 21
M  V30 23 1 12 22
M  V30 24 1 12 23
M  V30 25 1 13 24
M  V30 END BOND
M  V30 END CTAB
M  END
>  <Structure No>
1926

>  <LogS>
0.272897501

>  <MMFF94 Energy>
38.067

$$$$
Compound 1927
Actelion Java MolfileCreator 2.0

  0  0  0  0  0  0              0 V3000
M  V30 BEGIN CTAB
M  V30 COUNTS 9 9 0 0 0
M  V30 BEGIN ATOM
M  V30 1 O 2.2769 -0.9753 -0.0812 0
M  V30 2 C 1.0783 -0.594 -0.0402 0
M  V30 3 O -0.0084 -1.4526 -0.0468 0
M  V30 4 C 0.636 0.7964 0.0206 0
M  V30 5 C -1.1099 -0.6146 0.0087 0
M  V30 6 C -0.6918 0.7838 0.0503 0
M  V30 7 O -2.3017 -1.0185 0.021 0
M  V30 8 H 1.2614 1.6791 0.0387 0
M  V30 9 H -1.3324 1.6545 0.0967 0
M  V30 END ATOM
M  V30 BEGIN BOND
M  V30 1 2 1 2
M  V30 2 1 2 3
M  V30 3 1 2 4
M  V30 4 1 3 5
M  V30 5 2 4 6
M  V30 6 2 5 7
M  V30 7 1 5 6
M  V30 8 1 4 8
M  V30 9 1 6 9
M  V30 END BOND
M  V30 END CTAB
M  END
>  <Structure No>
1927

>  <LogS>
0.618115807

>  <MMFF94 Energy>
-37.581

$$$$
Compound 1928
Actelion Java MolfileCreator 2.0

  0  0  0  0  0  0              0 V3000
M  V30 BEGIN CTAB
M  V30 COUNTS 5 4 0 0 0
M  V30 BEGIN ATOM
M  V30 1 O -0.5524 1.2631 -0.0789 0
M  V30 2 C -0.4593 0.009 -0.0191 0
M  V30 3 O 0.7895 -0.6015 -0.0206 0
M  V30 4 O -1.608 -0.767 0.0483 0 CHG=-1
M  V30 5 H 1.6375 -0.0494 -0.0693 0
M  V30 END ATOM
M  V30 BEGIN BOND
M  V30 1 2 1 2
M  V30 2 1 2 3
M  V30 3 1 2 4
M  V30 4 1 3 5
M  V30 END BOND
M  V30 END CTAB
M  END
>  <Structure No>
1928

>  <LogS>
0.581124668

>  <MMFF94 Energy>
-89.96

$$$$
Compound 1929
Actelion Java MolfileCreator 2.0

  0  0  0  0  0  0              0 V3000
M  V30 BEGIN CTAB
M  V30 COUNTS 77 81 0 0 0
M  V30 BEGIN ATOM
M  V30 1 S 1.3185 -0.4119 -1.8958 0
M  V30 2 O 0.1088 -0.6377 -2.7591 0
M  V30 3 O 2.1007 -1.6946 -1.8517 0
M  V30 4 O 2.2552 0.8018 -2.5816 0 CHG=-1
M  V30 5 C 0.8039 0.0555 -0.2614 0
M  V30 6 C 1.5003 -0.4268 0.9773 0
M  V30 7 C -0.3802 0.6836 -0.1505 0
M  V30 8 N 2.7675 -0.7272 1.0392 0
M  V30 9 C 0.7191 -0.4987 2.2262 0
M  V30 10 C -1.095 0.8057 1.1405 0
M  V30 11 N 3.7152 -0.4592 0.0413 0
M  V30 12 O 1.1819 -1.1047 3.2311 0
M  V30 13 C -0.5789 0.1996 2.3008 0
M  V30 14 C -2.3381 1.4527 1.1897 0
M  V30 15 C 4.883 -1.2794 -0.1108 0
M  V30 16 C -1.294 0.2831 3.506 0
M  V30 17 C -3.0732 1.4934 2.3865 0
M  V30 18 C 5.0546 -2.447 0.6519 0
M  V30 19 C 5.847 -0.9439 -1.0719 0
M  V30 20 C -2.528 0.9333 3.5488 0
M  V30 21 N -4.3777 2.0935 2.4368 0
M  V30 22 C 6.1762 -3.2586 0.4579 0
M  V30 23 C 6.9667 -1.7577 -1.2677 0
M  V30 24 C -5.4092 1.8135 1.4787 0
M  V30 25 C 7.1519 -2.9071 -0.4809 0
M  V30 26 N -6.6566 2.3121 1.6696 0
M  V30 27 N -5.1712 1.0012 0.4185 0
M  V30 28 N 8.2631 -3.7924 -0.6941 0
M  V30 29 C -7.6624 2.011 0.8079 0
M  V30 30 C -6.1604 0.6947 -0.4573 0
M  V30 31 N 9.4768 -3.4384 -0.8866 0
M  V30 32 N -7.4108 1.2044 -0.2637 0 CHG=1
M  V30 33 N -8.9766 2.5368 1.0579 0
M  V30 34 N -5.8575 -0.1636 -1.5698 0
M  V30 35 C 9.9906 -2.103 -0.7637 0
M  V30 36 C -10.1629 2.1046 0.3164 0
M  V30 37 C -6.8598 -0.8329 -2.3971 0
M  V30 38 C 10.8804 -1.6225 -1.7313 0
M  V30 39 C 9.6768 -1.2998 0.3459 0
M  V30 40 C -11.4463 2.6693 0.9364 0
M  V30 41 C -7.6055 -1.904 -1.5981 0
M  V30 42 C 11.4101 -0.3335 -1.6237 0
M  V30 43 C 10.2093 -0.0124 0.455 0
M  V30 44 O -11.5874 2.2515 2.2682 0
M  V30 45 O -6.7168 -2.9011 -1.1688 0
M  V30 46 C 11.0763 0.4781 -0.5301 0
M  V30 47 S 11.7254 2.1094 -0.3965 0
M  V30 48 O 12.9941 2.2246 -1.1931 0
M  V30 49 O 12.028 2.4153 1.0428 0
M  V30 50 O 10.5969 3.2085 -0.9757 0 CHG=-1
M  V30 51 H -0.8838 1.0344 -1.045 0
M  V30 52 H 3.6285 0.4128 -0.5243 0
M  V30 53 H -2.7357 1.916 0.2965 0
M  V30 54 H -0.9068 -0.1654 4.4119 0
M  V30 55 H 4.3171 -2.7418 1.3859 0
M  V30 56 H 5.7196 -0.0605 -1.6842 0
M  V30 57 H -3.0775 0.9742 4.4809 0
M  V30 58 H -4.655 2.5914 3.3128 0
M  V30 59 H 6.2881 -4.1653 1.0409 0
M  V30 60 H 7.6743 -1.4999 -2.045 0
M  V30 61 H -8.1718 0.9891 -0.9411 0
M  V30 62 H -9.086 3.2089 1.8518 0
M  V30 63 H -4.8511 -0.3651 -1.7687 0
M  V30 64 H -10.0861 2.4592 -0.7333 0
M  V30 65 H -10.2221 0.9932 0.3162 0
M  V30 66 H -7.5687 -0.0894 -2.8171 0
M  V30 67 H -6.3567 -1.321 -3.2584 0
M  V30 68 H 11.144 -2.2384 -2.5817 0
M  V30 69 H 9.0275 -1.6729 1.1277 0
M  V30 70 H -11.4145 3.7804 0.9087 0
M  V30 71 H -12.3265 2.3394 0.3406 0
M  V30 72 H -8.1462 -1.4556 -0.7341 0
M  V30 73 H -8.3674 -2.3696 -2.2557 0
M  V30 74 H 12.0758 0.0302 -2.394 0
M  V30 75 H 9.9509 0.5974 1.3107 0
M  V30 76 H -11.7606 1.274 2.245 0
M  V30 77 H -6.3137 -2.5774 -0.3201 0
M  V30 END ATOM
M  V30 BEGIN BOND
M  V30 1 2 1 2
M  V30 2 2 1 3
M  V30 3 1 1 4
M  V30 4 1 1 5
M  V30 5 1 5 6
M  V30 6 2 5 7
M  V30 7 2 6 8
M  V30 8 1 6 9
M  V30 9 1 7 10
M  V30 10 1 8 11
M  V30 11 2 9 12
M  V30 12 1 9 13
M  V30 13 1 10 14
M  V30 14 1 11 15
M  V30 15 1 13 16
M  V30 16 2 14 17
M  V30 17 2 15 18
M  V30 18 1 15 19
M  V30 19 2 16 20
M  V30 20 1 17 21
M  V30 21 1 18 22
M  V30 22 2 19 23
M  V30 23 1 21 24
M  V30 24 2 22 25
M  V30 25 2 24 26
M  V30 26 1 24 27
M  V30 27 1 25 28
M  V30 28 1 26 29
M  V30 29 2 27 30
M  V30 30 2 28 31
M  V30 31 2 29 32
M  V30 32 1 29 33
M  V30 33 1 30 34
M  V30 34 1 31 35
M  V30 35 1 33 36
M  V30 36 1 34 37
M  V30 37 2 35 38
M  V30 38 1 35 39
M  V30 39 1 36 40
M  V30 40 1 37 41
M  V30 41 1 38 42
M  V30 42 2 39 43
M  V30 43 1 40 44
M  V30 44 1 41 45
M  V30 45 2 42 46
M  V30 46 1 46 47
M  V30 47 2 47 48
M  V30 48 2 47 49
M  V30 49 1 47 50
M  V30 50 2 10 13
M  V30 51 1 17 20
M  V30 52 1 23 25
M  V30 53 1 30 32
M  V30 54 1 43 46
M  V30 55 1 7 51
M  V30 56 1 11 52
M  V30 57 1 14 53
M  V30 58 1 16 54
M  V30 59 1 18 55
M  V30 60 1 19 56
M  V30 61 1 20 57
M  V30 62 1 21 58
M  V30 63 1 22 59
M  V30 64 1 23 60
M  V30 65 1 32 61
M  V30 66 1 33 62
M  V30 67 1 34 63
M  V30 68 1 36 64
M  V30 69 1 36 65
M  V30 70 1 37 66
M  V30 71 1 37 67
M  V30 72 1 38 68
M  V30 73 1 39 69
M  V30 74 1 40 70
M  V30 75 1 40 71
M  V30 76 1 41 72
M  V30 77 1 41 73
M  V30 78 1 42 74
M  V30 79 1 43 75
M  V30 80 1 44 76
M  V30 81 1 45 77
M  V30 END BOND
M  V30 END CTAB
M  END
>  <Structure No>
1929

>  <LogS>
-0.28369802

>  <MMFF94 Energy>
-60.588

$$$$
Compound 1930
Actelion Java MolfileCreator 2.0

  0  0  0  0  0  0              0 V3000
M  V30 BEGIN CTAB
M  V30 COUNTS 10 10 0 0 0
M  V30 BEGIN ATOM
M  V30 1 O 0.9366 0.6243 0.9366 0
M  V30 2 C 0.1638 -0.4184 0.3923 0 CFG=2
M  V30 3 C 1.303 0.1686 -0.3467 0
M  V30 4 C -1.2284 0.0572 -0.0097 0
M  V30 5 H 0.3195 -1.3832 0.919 0
M  V30 6 H 1.0807 0.9306 -1.1236 0
M  V30 7 H 2.2537 -0.4026 -0.3132 0
M  V30 8 H -1.9089 -0.0291 0.8626 0
M  V30 9 H -1.2247 1.1146 -0.353 0
M  V30 10 H -1.6125 -0.5866 -0.8277 0
M  V30 END ATOM
M  V30 BEGIN BOND
M  V30 1 1 1 2
M  V30 2 1 1 3
M  V30 3 1 2 4
M  V30 4 1 2 3
M  V30 5 1 2 5
M  V30 6 1 3 6
M  V30 7 1 3 7
M  V30 8 1 4 8
M  V30 9 1 4 9
M  V30 10 1 4 10
M  V30 END BOND
M  V30 BEGIN COLLECTION
M  V30 MDLV30/STEABS ATOMS=(1 2)
M  V30 END COLLECTION
M  V30 END CTAB
M  END
>  <Structure No>
1930

>  <LogS>
0.838033384

>  <MMFF94 Energy>
7.5401

$$$$
Compound 1931
Actelion Java MolfileCreator 2.0

  0  0  0  0  0  0              0 V3000
M  V30 BEGIN CTAB
M  V30 COUNTS 60 65 0 0 0
M  V30 BEGIN ATOM
M  V30 1 S 7.9412 -2.3008 0.7665 0
M  V30 2 O 9.3311 -1.9955 1.2492 0
M  V30 3 O 7.9452 -2.2265 -0.7338 0
M  V30 4 O 7.5161 -3.8575 1.2325 0 CHG=-1
M  V30 5 C 6.787 -1.1455 1.4709 0
M  V30 6 C 6.8306 -0.8015 2.8526 0
M  V30 7 C 5.7739 -0.5571 0.6918 0
M  V30 8 C 5.9126 0.1415 3.3721 0
M  V30 9 C 7.854 -1.3923 3.7861 0
M  V30 10 S 5.3919 -0.775 -0.9329 0
M  V30 11 C 4.8674 0.3536 1.2189 0
M  V30 12 C 4.9308 0.7188 2.5585 0
M  V30 13 C 4.0937 0.3107 -0.8892 0
M  V30 14 N 3.9408 0.8367 0.3504 0
M  V30 15 C 3.2211 0.6581 -2.0341 0
M  V30 16 C 2.1772 1.5858 -1.8706 0
M  V30 17 C 3.4241 0.0804 -3.3003 0
M  V30 18 C 1.3485 1.9183 -2.9456 0
M  V30 19 C 2.5932 0.4146 -4.3734 0
M  V30 20 C 1.5335 1.3099 -4.1973 0
M  V30 21 N 0.7185 1.6587 -5.3278 0
M  V30 22 N -0.5536 1.7954 -5.3214 0
M  V30 23 C -1.4299 1.4698 -4.2306 0
M  V30 24 C -1.2985 0.2659 -3.5202 0
M  V30 25 C -2.4928 2.328 -3.9325 0
M  V30 26 C -2.1832 -0.0416 -2.4829 0
M  V30 27 C -3.3808 2.0221 -2.8975 0
M  V30 28 C -3.2316 0.837 -2.1555 0
M  V30 29 C -4.174 0.5239 -1.0569 0
M  V30 30 S -4.1057 -0.8411 -0.058 0
M  V30 31 N -5.2166 1.3219 -0.7198 0
M  V30 32 C -5.4636 -0.3957 0.8317 0
M  V30 33 C -5.9233 0.812 0.3225 0
M  V30 34 C -6.0893 -1.041 1.9141 0
M  V30 35 C -7.0357 1.4347 0.8762 0
M  V30 36 S -5.4832 -2.5904 2.5422 0
M  V30 37 C -7.2069 -0.3863 2.5072 0
M  V30 38 C -7.6758 0.8338 1.9663 0
M  V30 39 O -4.5591 -3.2558 1.5629 0
M  V30 40 O -6.6324 -3.5229 2.8023 0
M  V30 41 O -4.6506 -2.3155 3.9744 0 CHG=-1
M  V30 42 C -7.9345 -0.9718 3.6886 0
M  V30 43 H 5.9522 0.4263 4.4163 0
M  V30 44 H 7.5777 -1.2241 4.8491 0
M  V30 45 H 7.9301 -2.4891 3.6379 0
M  V30 46 H 8.8413 -0.9189 3.6061 0
M  V30 47 H 4.2281 1.432 2.9705 0
M  V30 48 H 2.0052 2.0623 -0.9137 0
M  V30 49 H 4.2247 -0.6278 -3.4672 0
M  V30 50 H 0.5716 2.6581 -2.8031 0
M  V30 51 H 2.7665 -0.0351 -5.3429 0
M  V30 52 H -0.5192 -0.4401 -3.7747 0
M  V30 53 H -2.6244 3.2434 -4.4957 0
M  V30 54 H -2.0484 -0.9717 -1.9468 0
M  V30 55 H -4.1846 2.714 -2.6792 0
M  V30 56 H -7.3982 2.374 0.4779 0
M  V30 57 H -8.5382 1.3279 2.3967 0
M  V30 58 H -7.2138 -1.3161 4.4588 0
M  V30 59 H -8.5642 -1.8225 3.3556 0
M  V30 60 H -8.5951 -0.2202 4.1712 0
M  V30 END ATOM
M  V30 BEGIN BOND
M  V30 1 2 1 2
M  V30 2 2 1 3
M  V30 3 1 1 4
M  V30 4 1 1 5
M  V30 5 2 5 6
M  V30 6 1 5 7
M  V30 7 1 6 8
M  V30 8 1 6 9
M  V30 9 1 7 10
M  V30 10 2 7 11
M  V30 11 2 8 12
M  V30 12 1 10 13
M  V30 13 1 11 14
M  V30 14 1 13 15
M  V30 15 2 15 16
M  V30 16 1 15 17
M  V30 17 1 16 18
M  V30 18 2 17 19
M  V30 19 2 18 20
M  V30 20 1 20 21
M  V30 21 2 21 22
M  V30 22 1 22 23
M  V30 23 2 23 24
M  V30 24 1 23 25
M  V30 25 1 24 26
M  V30 26 2 25 27
M  V30 27 2 26 28
M  V30 28 1 28 29
M  V30 29 1 29 30
M  V30 30 2 29 31
M  V30 31 1 30 32
M  V30 32 1 31 33
M  V30 33 1 32 34
M  V30 34 1 33 35
M  V30 35 1 34 36
M  V30 36 2 34 37
M  V30 37 2 35 38
M  V30 38 2 36 39
M  V30 39 2 36 40
M  V30 40 1 36 41
M  V30 41 1 37 42
M  V30 42 1 11 12
M  V30 43 2 13 14
M  V30 44 1 19 20
M  V30 45 1 27 28
M  V30 46 2 32 33
M  V30 47 1 37 38
M  V30 48 1 8 43
M  V30 49 1 9 44
M  V30 50 1 9 45
M  V30 51 1 9 46
M  V30 52 1 12 47
M  V30 53 1 16 48
M  V30 54 1 17 49
M  V30 55 1 18 50
M  V30 56 1 19 51
M  V30 57 1 24 52
M  V30 58 1 25 53
M  V30 59 1 26 54
M  V30 60 1 27 55
M  V30 61 1 35 56
M  V30 62 1 38 57
M  V30 63 1 42 58
M  V30 64 1 42 59
M  V30 65 1 42 60
M  V30 END BOND
M  V30 END CTAB
M  END
>  <Structure No>
1931

>  <LogS>
-1.222309624

>  <MMFF94 Energy>
150.59

$$$$
Compound 1932
Actelion Java MolfileCreator 2.0

  0  0  0  0  0  0              0 V3000
M  V30 BEGIN CTAB
M  V30 COUNTS 45 44 0 0 0
M  V30 BEGIN ATOM
M  V30 1 O 0.6221 -1.4002 0.4665 0
M  V30 2 C 1.0575 -1.0882 1.7824 0 CFG=2
M  V30 3 C -0.5133 -0.6438 0.0888 0
M  V30 4 C 2.4564 -0.4492 1.7233 0
M  V30 5 C 1.1111 -2.3856 2.5907 0
M  V30 6 C -1.8012 -1.3088 0.5837 0
M  V30 7 C 2.4315 0.9143 1.0167 0
M  V30 8 O -2.9256 -0.5617 0.1602 0
M  V30 9 C 3.8093 1.5884 1.0311 0
M  V30 10 C -3.4936 -1.1304 -1.0034 0
M  V30 11 O 4.7717 0.7916 0.3635 0
M  V30 12 C -4.5828 -0.2028 -1.5721 0 CFG=1
M  V30 13 C 4.8652 1.1328 -1.0072 0
M  V30 14 C -5.7128 0.0548 -0.557 0
M  V30 15 C -3.9725 1.1244 -2.0427 0
M  V30 16 C 5.9799 2.15 -1.2247 0
M  V30 17 O -6.3744 -1.1404 -0.2369 0
M  V30 18 H 0.3784 -0.3953 2.3365 0
M  V30 19 H -0.4594 0.416 0.4295 0
M  V30 20 H -0.5379 -0.6081 -1.0201 0
M  V30 21 H 3.1509 -1.1326 1.1869 0
M  V30 22 H 2.8379 -0.3093 2.7591 0
M  V30 23 H 0.1006 -2.8439 2.6335 0
M  V30 24 H 1.8089 -3.1101 2.1187 0
M  V30 25 H 1.4467 -2.1817 3.63 0
M  V30 26 H -1.8263 -2.3787 0.266 0
M  V30 27 H -1.799 -1.3125 1.6934 0
M  V30 28 H 1.7076 1.5828 1.5319 0
M  V30 29 H 2.0949 0.7887 -0.0342 0
M  V30 30 H 3.7306 2.6196 0.6138 0
M  V30 31 H 4.1351 1.7128 2.0858 0
M  V30 32 H -2.7224 -1.291 -1.7918 0
M  V30 33 H -3.9469 -2.1182 -0.7632 0
M  V30 34 H -5.0266 -0.7026 -2.4618 0
M  V30 35 H 3.9098 1.5122 -1.4391 0
M  V30 36 H 5.1214 0.2122 -1.5725 0
M  V30 37 H -5.3176 0.5524 0.3594 0
M  V30 38 H -6.4574 0.7452 -1.0082 0
M  V30 39 H -3.1767 0.9363 -2.7947 0
M  V30 40 H -3.5334 1.6823 -1.1879 0
M  V30 41 H -4.752 1.7569 -2.5186 0
M  V30 42 H 5.7447 3.0992 -0.6995 0
M  V30 43 H 6.0881 2.3597 -2.3097 0
M  V30 44 H 6.9406 1.7487 -0.8383 0
M  V30 45 H -5.9273 -1.5117 0.5678 0
M  V30 END ATOM
M  V30 BEGIN BOND
M  V30 1 1 1 2
M  V30 2 1 1 3
M  V30 3 1 2 4
M  V30 4 1 2 5
M  V30 5 1 3 6
M  V30 6 1 4 7
M  V30 7 1 6 8
M  V30 8 1 7 9
M  V30 9 1 8 10
M  V30 10 1 9 11
M  V30 11 1 10 12
M  V30 12 1 11 13
M  V30 13 1 12 14
M  V30 14 1 12 15
M  V30 15 1 13 16
M  V30 16 1 14 17
M  V30 17 1 2 18
M  V30 18 1 3 19
M  V30 19 1 3 20
M  V30 20 1 4 21
M  V30 21 1 4 22
M  V30 22 1 5 23
M  V30 23 1 5 24
M  V30 24 1 5 25
M  V30 25 1 6 26
M  V30 26 1 6 27
M  V30 27 1 7 28
M  V30 28 1 7 29
M  V30 29 1 9 30
M  V30 30 1 9 31
M  V30 31 1 10 32
M  V30 32 1 10 33
M  V30 33 1 12 34
M  V30 34 1 13 35
M  V30 35 1 13 36
M  V30 36 1 14 37
M  V30 37 1 14 38
M  V30 38 1 15 39
M  V30 39 1 15 40
M  V30 40 1 15 41
M  V30 41 1 16 42
M  V30 42 1 16 43
M  V30 43 1 16 44
M  V30 44 1 17 45
M  V30 END BOND
M  V30 BEGIN COLLECTION
M  V30 MDLV30/STEABS ATOMS=(2 2 12)
M  V30 END COLLECTION
M  V30 END CTAB
M  END
>  <Structure No>
1932

>  <LogS>
-0.790860844

>  <MMFF94 Energy>
36.386

$$$$
Compound 1933
Actelion Java MolfileCreator 2.0

  0  0  0  0  0  0              0 V3000
M  V30 BEGIN CTAB
M  V30 COUNTS 21 21 0 0 0
M  V30 BEGIN ATOM
M  V30 1 N -1.7757 0.0 1.4667 0 CHG=1
M  V30 2 C -1.2809 -0.4995 0.1779 0 CFG=2
M  V30 3 C 0.2043 -0.2236 0.0223 0
M  V30 4 C -2.0766 0.1072 -0.9855 0
M  V30 5 C 0.7045 1.0931 0.0413 0
M  V30 6 C 1.1053 -1.2912 -0.1448 0
M  V30 7 C 2.0746 1.3318 -0.103 0
M  V30 8 C 2.4745 -1.0467 -0.2887 0
M  V30 9 C 2.9587 0.2632 -0.2676 0
M  V30 10 H -1.2071 -0.4056 2.2456 0
M  V30 11 H -2.7705 -0.2949 1.5995 0
M  V30 12 H -1.7252 1.0436 1.5107 0
M  V30 13 H -1.455 -1.5995 0.1475 0
M  V30 14 H -3.1472 -0.1759 -0.8997 0
M  V30 15 H -2.0044 1.2154 -0.984 0
M  V30 16 H -1.6906 -0.2779 -1.9534 0
M  V30 17 H 0.0374 1.9362 0.1654 0
M  V30 18 H 0.7505 -2.3141 -0.1641 0
M  V30 19 H 2.4509 2.3466 -0.0876 0
M  V30 20 H 3.1606 -1.8739 -0.4167 0
M  V30 21 H 4.0189 0.4503 -0.3792 0
M  V30 END ATOM
M  V30 BEGIN BOND
M  V30 1 1 1 2
M  V30 2 1 2 3
M  V30 3 1 2 4
M  V30 4 2 3 5
M  V30 5 1 3 6
M  V30 6 1 5 7
M  V30 7 2 6 8
M  V30 8 2 7 9
M  V30 9 1 8 9
M  V30 10 1 1 10
M  V30 11 1 1 11
M  V30 12 1 1 12
M  V30 13 1 2 13
M  V30 14 1 4 14
M  V30 15 1 4 15
M  V30 16 1 4 16
M  V30 17 1 5 17
M  V30 18 1 6 18
M  V30 19 1 7 19
M  V30 20 1 8 20
M  V30 21 1 9 21
M  V30 END BOND
M  V30 BEGIN COLLECTION
M  V30 MDLV30/STEABS ATOMS=(1 2)
M  V30 END COLLECTION
M  V30 END CTAB
M  END
>  <Structure No>
1933

>  <LogS>
-0.481381708

>  <MMFF94 Energy>
11.777

$$$$
Compound 1934
Actelion Java MolfileCreator 2.0

  0  0  0  0  0  0              0 V3000
M  V30 BEGIN CTAB
M  V30 COUNTS 32 31 0 0 0
M  V30 BEGIN ATOM
M  V30 1 O 3.422 -2.3618 1.3025 0
M  V30 2 C 2.166 -2.3443 1.2138 0
M  V30 3 O 1.4832 -3.5168 0.9161 0 CHG=-1
M  V30 4 C 1.4104 -1.0587 1.4186 0
M  V30 5 N 1.0901 -0.3555 0.1523 0
M  V30 6 C 2.2963 0.1 -0.5755 0
M  V30 7 C 0.1922 -1.1511 -0.7146 0
M  V30 8 C 2.9976 1.1895 0.176 0
M  V30 9 C -0.7653 -0.2566 -1.5343 0
M  V30 10 O 2.4693 2.3273 0.282 0
M  V30 11 O 4.224 0.9413 0.779 0 CHG=-1
M  V30 12 N -1.6592 0.6244 -0.7373 0
M  V30 13 C -2.4839 -0.0814 0.2682 0
M  V30 14 C -0.9585 1.7865 -0.154 0
M  V30 15 C -3.4093 -1.0628 -0.3823 0
M  V30 16 C -1.8883 2.9558 -0.0757 0
M  V30 17 O -3.2647 -2.2981 -0.1868 0
M  V30 18 O -4.4232 -0.6117 -1.2177 0 CHG=-1
M  V30 19 O -2.2714 3.3899 1.0425 0
M  V30 20 O -2.3463 3.5569 -1.2411 0 CHG=-1
M  V30 21 H 0.4699 -1.2789 1.9688 0
M  V30 22 H 1.9925 -0.3899 2.0882 0
M  V30 23 H 2.0163 0.5152 -1.5669 0
M  V30 24 H 2.995 -0.7425 -0.7676 0
M  V30 25 H 0.785 -1.7779 -1.4187 0
M  V30 26 H -0.4169 -1.8692 -0.1251 0
M  V30 27 H -1.3916 -0.92 -2.1683 0
M  V30 28 H -0.1849 0.3516 -2.2601 0
M  V30 29 H -1.8526 -0.5776 1.0357 0
M  V30 30 H -3.1224 0.6492 0.8102 0
M  V30 31 H -0.5592 1.5499 0.8579 0
M  V30 32 H -0.1013 2.0983 -0.7891 0
M  V30 END ATOM
M  V30 BEGIN BOND
M  V30 1 2 1 2
M  V30 2 1 2 3
M  V30 3 1 2 4
M  V30 4 1 4 5
M  V30 5 1 5 6
M  V30 6 1 5 7
M  V30 7 1 6 8
M  V30 8 1 7 9
M  V30 9 2 8 10
M  V30 10 1 8 11
M  V30 11 1 9 12
M  V30 12 1 12 13
M  V30 13 1 12 14
M  V30 14 1 13 15
M  V30 15 1 14 16
M  V30 16 2 15 17
M  V30 17 1 15 18
M  V30 18 2 16 19
M  V30 19 1 16 20
M  V30 20 1 4 21
M  V30 21 1 4 22
M  V30 22 1 6 23
M  V30 23 1 6 24
M  V30 24 1 7 25
M  V30 25 1 7 26
M  V30 26 1 9 27
M  V30 27 1 9 28
M  V30 28 1 13 29
M  V30 29 1 13 30
M  V30 30 1 14 31
M  V30 31 1 14 32
M  V30 END BOND
M  V30 END CTAB
M  END
>  <Structure No>
1934

>  <LogS>
0.237458201

>  <MMFF94 Energy>
597.98

$$$$
Compound 1935
Actelion Java MolfileCreator 2.0

  0  0  0  0  0  0              0 V3000
M  V30 BEGIN CTAB
M  V30 COUNTS 32 31 0 0 0
M  V30 BEGIN ATOM
M  V30 1 O -0.7814 -0.1562 0.8595 0
M  V30 2 C -0.0433 -0.6655 -0.028 0
M  V30 3 O -0.436 -1.8277 -0.701 0
M  V30 4 N 1.2152 -0.0655 -0.3473 0
M  V30 5 C -1.7102 -2.4484 -0.5343 0
M  V30 6 C 1.6705 1.1578 0.3148 0
M  V30 7 C -2.7487 -1.8108 -1.46 0
M  V30 8 C 3.0826 1.5647 -0.1415 0
M  V30 9 O -3.0091 -0.4574 -1.0925 0
M  V30 10 C 4.206 0.8527 0.6312 0
M  V30 11 C -3.8082 -0.0953 -0.0025 0
M  V30 12 C 4.2934 -0.6411 0.3261 0
M  V30 13 O -4.3852 -0.9782 0.6911 0
M  V30 14 C -3.9624 1.3315 0.3199 0
M  V30 15 C -4.6992 1.7603 1.3432 0
M  V30 16 H 1.7947 -0.5131 -1.0927 0
M  V30 17 H -1.6118 -3.5194 -0.8097 0
M  V30 18 H -2.0382 -2.4059 0.5267 0
M  V30 19 H 1.6497 1.0201 1.418 0
M  V30 20 H 0.9643 1.9782 0.062 0
M  V30 21 H -2.3616 -1.8283 -2.5008 0
M  V30 22 H -3.691 -2.4005 -1.4401 0
M  V30 23 H 3.1968 2.656 0.0385 0
M  V30 24 H 3.203 1.4075 -1.2357 0
M  V30 25 H 4.0696 1.0003 1.7246 0
M  V30 26 H 5.1738 1.3216 0.35 0
M  V30 27 H 4.3605 -0.8116 -0.7692 0
M  V30 28 H 3.4109 -1.1751 0.7357 0
M  V30 29 H 5.2023 -1.0625 0.805 0
M  V30 30 H -3.4529 2.0593 -0.299 0
M  V30 31 H -5.2253 1.0703 1.9908 0
M  V30 32 H -4.7807 2.8212 1.5415 0
M  V30 END ATOM
M  V30 BEGIN BOND
M  V30 1 2 1 2
M  V30 2 1 2 3
M  V30 3 1 2 4
M  V30 4 1 3 5
M  V30 5 1 4 6
M  V30 6 1 5 7
M  V30 7 1 6 8
M  V30 8 1 7 9
M  V30 9 1 8 10
M  V30 10 1 9 11
M  V30 11 1 10 12
M  V30 12 2 11 13
M  V30 13 1 11 14
M  V30 14 2 14 15
M  V30 15 1 4 16
M  V30 16 1 5 17
M  V30 17 1 5 18
M  V30 18 1 6 19
M  V30 19 1 6 20
M  V30 20 1 7 21
M  V30 21 1 7 22
M  V30 22 1 8 23
M  V30 23 1 8 24
M  V30 24 1 10 25
M  V30 25 1 10 26
M  V30 26 1 12 27
M  V30 27 1 12 28
M  V30 28 1 12 29
M  V30 29 1 14 30
M  V30 30 1 15 31
M  V30 31 1 15 32
M  V30 END BOND
M  V30 END CTAB
M  END
>  <Structure No>
1935

>  <LogS>
-1.634840597

>  <MMFF94 Energy>
-64.597

$$$$
Compound 1936
Actelion Java MolfileCreator 2.0

  0  0  0  0  0  0              0 V3000
M  V30 BEGIN CTAB
M  V30 COUNTS 16 16 0 0 0
M  V30 BEGIN ATOM
M  V30 1 Cl 3.7635 1.1199 -0.5598 0
M  V30 2 C 2.1286 0.54 -0.2981 0
M  V30 3 C 1.8943 -0.8214 -0.0861 0
M  V30 4 C 1.0578 1.439 -0.3011 0
M  V30 5 C 0.5917 -1.2846 0.1224 0
M  V30 6 C -0.2466 0.9794 -0.0926 0
M  V30 7 C -0.4917 -0.3907 0.1216 0
M  V30 8 N -1.823 -0.8953 0.3391 0
M  V30 9 N -2.9604 -0.0707 0.3537 0
M  V30 10 H 2.7198 -1.5217 -0.0827 0
M  V30 11 H 1.2347 2.4945 -0.4647 0
M  V30 12 H 0.4262 -2.3421 0.2853 0
M  V30 13 H -1.0543 1.6982 -0.1005 0
M  V30 14 H -1.9611 -1.919 0.4943 0
M  V30 15 H -3.0182 0.4164 -0.5693 0
M  V30 16 H -2.8312 0.6448 1.1048 0
M  V30 END ATOM
M  V30 BEGIN BOND
M  V30 1 1 1 2
M  V30 2 2 2 3
M  V30 3 1 2 4
M  V30 4 1 3 5
M  V30 5 2 4 6
M  V30 6 2 5 7
M  V30 7 1 7 8
M  V30 8 1 8 9
M  V30 9 1 6 7
M  V30 10 1 3 10
M  V30 11 1 4 11
M  V30 12 1 5 12
M  V30 13 1 6 13
M  V30 14 1 8 14
M  V30 15 1 9 15
M  V30 16 1 9 16
M  V30 END BOND
M  V30 END CTAB
M  END
>  <Structure No>
1936

>  <LogS>
-1.563665466

>  <MMFF94 Energy>
43.653

$$$$
Compound 1937
Actelion Java MolfileCreator 2.0

  0  0  0  0  0  0              0 V3000
M  V30 BEGIN CTAB
M  V30 COUNTS 20 20 0 0 0
M  V30 BEGIN ATOM
M  V30 1 N -1.0099 2.7987 -0.0776 0
M  V30 2 C -0.5184 1.4558 -0.0452 0
M  V30 3 C 0.8285 1.1919 -0.3286 0
M  V30 4 C -1.3816 0.3974 0.2703 0
M  V30 5 C 1.3116 -0.1251 -0.3165 0
M  V30 6 C -0.9007 -0.9194 0.3219 0
M  V30 7 C 0.4449 -1.1765 0.0185 0
M  V30 8 C 2.7604 -0.4001 -0.5923 0
M  V30 9 C -1.8343 -2.0523 0.6318 0
M  V30 10 H -2.0117 3.0068 0.1322 0
M  V30 11 H -0.3757 3.5948 -0.3118 0
M  V30 12 H 1.4975 2.0111 -0.564 0
M  V30 13 H -2.4249 0.6008 0.4811 0
M  V30 14 H 0.8172 -2.194 0.0431 0
M  V30 15 H 2.8888 -1.405 -1.0479 0
M  V30 16 H 3.3315 -0.3579 0.3585 0
M  V30 17 H 3.1751 0.3512 -1.2977 0
M  V30 18 H -1.2912 -2.8823 1.1319 0
M  V30 19 H -2.283 -2.429 -0.3109 0
M  V30 20 H -2.6469 -1.7165 1.311 0
M  V30 END ATOM
M  V30 BEGIN BOND
M  V30 1 1 1 2
M  V30 2 2 2 3
M  V30 3 1 2 4
M  V30 4 1 3 5
M  V30 5 2 4 6
M  V30 6 2 5 7
M  V30 7 1 5 8
M  V30 8 1 6 9
M  V30 9 1 6 7
M  V30 10 1 1 10
M  V30 11 1 1 11
M  V30 12 1 3 12
M  V30 13 1 4 13
M  V30 14 1 7 14
M  V30 15 1 8 15
M  V30 16 1 8 16
M  V30 17 1 8 17
M  V30 18 1 9 18
M  V30 19 1 9 19
M  V30 20 1 9 20
M  V30 END BOND
M  V30 END CTAB
M  END
>  <Structure No>
1937

>  <LogS>
-1.402200462

>  <MMFF94 Energy>
12.653

$$$$
Compound 1938
Actelion Java MolfileCreator 2.0

  0  0  0  0  0  0              0 V3000
M  V30 BEGIN CTAB
M  V30 COUNTS 36 38 0 0 0
M  V30 BEGIN ATOM
M  V30 1 S 4.9552 -0.0824 -1.3196 0
M  V30 2 O 4.2983 0.2465 -2.6309 0
M  V30 3 O 6.0324 -1.102 -1.5636 0
M  V30 4 N 5.6581 1.3481 -0.6511 0
M  V30 5 C 3.7586 -0.7311 -0.2019 0
M  V30 6 C 2.4398 -0.2564 -0.2318 0
M  V30 7 C 4.1247 -1.7022 0.7389 0
M  V30 8 C 1.4817 -0.76 0.6681 0
M  V30 9 C 3.1772 -2.2051 1.6337 0
M  V30 10 N 0.1266 -0.2936 0.6562 0
M  V30 11 C 1.8595 -1.738 1.5997 0
M  V30 12 N -0.2839 0.5753 -0.1771 0
M  V30 13 O 0.9267 -2.2486 2.4957 0 CHG=-1
M  V30 14 C -1.641 1.0419 -0.1897 0
M  V30 15 C -1.865 2.4262 -0.3365 0
M  V30 16 C -2.7532 0.1647 -0.0499 0
M  V30 17 O -0.8062 3.3168 -0.5233 0
M  V30 18 C -3.1615 2.9401 -0.2784 0
M  V30 19 C -4.0628 0.713 0.0266 0
M  V30 20 C -2.6117 -1.2404 -0.0303 0
M  V30 21 C -4.2508 2.0963 -0.08 0
M  V30 22 C -5.1728 -0.1316 0.1873 0
M  V30 23 C -3.7277 -2.0667 0.1249 0
M  V30 24 C -5.0021 -1.5145 0.2441 0
M  V30 25 H 6.0599 1.0854 0.2767 0
M  V30 26 H 4.8748 2.0131 -0.4624 0
M  V30 27 H 2.1647 0.5044 -0.9511 0
M  V30 28 H 5.1424 -2.0683 0.7824 0
M  V30 29 H 3.4671 -2.9573 2.3564 0
M  V30 30 H 0.1588 3.0146 -0.575 0
M  V30 31 H -3.324 4.0061 -0.3781 0
M  V30 32 H -1.6545 -1.7204 -0.1661 0
M  V30 33 H -5.2452 2.5246 -0.0299 0
M  V30 34 H -6.1739 0.2776 0.2576 0
M  V30 35 H -3.604 -3.142 0.1428 0
M  V30 36 H -5.862 -2.161 0.3628 0
M  V30 END ATOM
M  V30 BEGIN BOND
M  V30 1 2 1 2
M  V30 2 2 1 3
M  V30 3 1 1 4
M  V30 4 1 1 5
M  V30 5 2 5 6
M  V30 6 1 5 7
M  V30 7 1 6 8
M  V30 8 2 7 9
M  V30 9 1 8 10
M  V30 10 2 8 11
M  V30 11 2 10 12
M  V30 12 1 11 13
M  V30 13 1 12 14
M  V30 14 2 14 15
M  V30 15 1 14 16
M  V30 16 1 15 17
M  V30 17 1 15 18
M  V30 18 1 16 19
M  V30 19 2 16 20
M  V30 20 2 18 21
M  V30 21 2 19 22
M  V30 22 1 20 23
M  V30 23 1 22 24
M  V30 24 1 9 11
M  V30 25 1 19 21
M  V30 26 2 23 24
M  V30 27 1 4 25
M  V30 28 1 4 26
M  V30 29 1 6 27
M  V30 30 1 7 28
M  V30 31 1 9 29
M  V30 32 1 17 30
M  V30 33 1 18 31
M  V30 34 1 20 32
M  V30 35 1 21 33
M  V30 36 1 22 34
M  V30 37 1 23 35
M  V30 38 1 24 36
M  V30 END BOND
M  V30 END CTAB
M  END
>  <Structure No>
1938

>  <LogS>
-2.202203848

>  <MMFF94 Energy>
-6.0372

$$$$
Compound 1939
Actelion Java MolfileCreator 2.0

  0  0  0  0  0  0              0 V3000
M  V30 BEGIN CTAB
M  V30 COUNTS 27 27 0 0 0
M  V30 BEGIN ATOM
M  V30 1 O -1.1151 1.8324 2.0716 0
M  V30 2 C -0.8254 0.7665 1.5503 0
M  V30 3 C 0.3624 -0.0185 2.0213 0
M  V30 4 C -1.6733 0.1954 0.4525 0
M  V30 5 C 1.2901 -0.3729 0.8356 0 CFG=1
M  V30 6 C -0.812 -0.1561 -0.7869 0
M  V30 7 C 2.2265 -1.4253 1.2856 0
M  V30 8 C 0.4707 -0.9494 -0.3644 0
M  V30 9 C 2.1468 0.8481 0.4325 0
M  V30 10 C -1.6476 -1.0579 -1.7244 0
M  V30 11 C -0.4602 1.1301 -1.5737 0
M  V30 12 N 2.9592 -2.2492 1.6376 0
M  V30 13 H -0.0196 -0.9476 2.5007 0
M  V30 14 H 0.921 0.5518 2.7974 0
M  V30 15 H -2.4805 0.9099 0.175 0
M  V30 16 H -2.1626 -0.7207 0.8501 0
M  V30 17 H 0.1445 -1.9764 -0.0778 0
M  V30 18 H 1.1373 -1.0822 -1.2459 0
M  V30 19 H 2.636 0.6849 -0.5517 0
M  V30 20 H 1.5511 1.778 0.3925 0
M  V30 21 H 2.9442 1.0353 1.1856 0
M  V30 22 H -2.5854 -0.547 -2.0335 0
M  V30 23 H -1.0689 -1.3117 -2.639 0
M  V30 24 H -1.9304 -2.0064 -1.2187 0
M  V30 25 H -0.1539 1.956 -0.9065 0
M  V30 26 H -1.3472 1.5069 -2.1279 0
M  V30 27 H 0.347 0.9372 -2.312 0
M  V30 END ATOM
M  V30 BEGIN BOND
M  V30 1 2 1 2
M  V30 2 1 2 3
M  V30 3 1 2 4
M  V30 4 1 3 5
M  V30 5 1 4 6
M  V30 6 1 5 7
M  V30 7 1 5 8
M  V30 8 1 5 9
M  V30 9 1 6 10
M  V30 10 1 6 11
M  V30 11 3 7 12
M  V30 12 1 6 8
M  V30 13 1 3 13
M  V30 14 1 3 14
M  V30 15 1 4 15
M  V30 16 1 4 16
M  V30 17 1 8 17
M  V30 18 1 8 18
M  V30 19 1 9 19
M  V30 20 1 9 20
M  V30 21 1 9 21
M  V30 22 1 10 22
M  V30 23 1 10 23
M  V30 24 1 10 24
M  V30 25 1 11 25
M  V30 26 1 11 26
M  V30 27 1 11 27
M  V30 END BOND
M  V30 BEGIN COLLECTION
M  V30 MDLV30/STEABS ATOMS=(1 5)
M  V30 END COLLECTION
M  V30 END CTAB
M  END
>  <Structure No>
1939

>  <LogS>
-1.54049772

>  <MMFF94 Energy>
17.577

$$$$
Compound 1940
Actelion Java MolfileCreator 2.0

  0  0  0  0  0  0              0 V3000
M  V30 BEGIN CTAB
M  V30 COUNTS 29 30 0 0 0
M  V30 BEGIN ATOM
M  V30 1 Cl 5.2355 -1.2063 0.1607 0
M  V30 2 C 3.602 -0.5863 0.0059 0
M  V30 3 C 2.6931 -1.2138 -0.8463 0
M  V30 4 C 3.2125 0.5454 0.7216 0
M  V30 5 C 1.3907 -0.7217 -0.9757 0
M  V30 6 C 1.9123 1.0411 0.5972 0
M  V30 7 C 0.962 0.4025 -0.231 0
M  V30 8 C -0.4487 1.014 -0.3369 0
M  V30 9 O -0.2606 2.3424 -0.7755 0
M  V30 10 C -1.1388 1.0316 1.0714 0
M  V30 11 C -1.379 0.2928 -1.3613 0
M  V30 12 C -2.0954 -0.1501 1.3223 0
M  V30 13 C -1.8919 -1.095 -0.8993 0
M  V30 14 N -1.7112 -1.3298 0.542 0 CHG=1
M  V30 15 H 2.9972 -2.081 -1.4188 0
M  V30 16 H 3.9181 1.0479 1.371 0
M  V30 17 H 0.7457 -1.2283 -1.672 0
M  V30 18 H 1.6477 1.9353 1.1478 0
M  V30 19 H -1.1454 2.7893 -0.8379 0
M  V30 20 H -0.3878 1.0479 1.8891 0
M  V30 21 H -1.7287 1.9657 1.1983 0
M  V30 22 H -0.887 0.2157 -2.3547 0
M  V30 23 H -2.2757 0.9311 -1.5256 0
M  V30 24 H -2.0908 -0.4023 2.4061 0
M  V30 25 H -3.1371 0.149 1.0635 0
M  V30 26 H -2.9725 -1.1814 -1.1554 0
M  V30 27 H -1.3835 -1.902 -1.4686 0
M  V30 28 H -0.7192 -1.5904 0.7489 0
M  V30 29 H -2.3176 -2.1335 0.8284 0
M  V30 END ATOM
M  V30 BEGIN BOND
M  V30 1 1 1 2
M  V30 2 2 2 3
M  V30 3 1 2 4
M  V30 4 1 3 5
M  V30 5 2 4 6
M  V30 6 2 5 7
M  V30 7 1 7 8
M  V30 8 1 8 9
M  V30 9 1 8 10
M  V30 10 1 8 11
M  V30 11 1 10 12
M  V30 12 1 11 13
M  V30 13 1 12 14
M  V30 14 1 6 7
M  V30 15 1 13 14
M  V30 16 1 3 15
M  V30 17 1 4 16
M  V30 18 1 5 17
M  V30 19 1 6 18
M  V30 20 1 9 19
M  V30 21 1 10 20
M  V30 22 1 10 21
M  V30 23 1 11 22
M  V30 24 1 11 23
M  V30 25 1 12 24
M  V30 26 1 12 25
M  V30 27 1 13 26
M  V30 28 1 13 27
M  V30 29 1 14 28
M  V30 30 1 14 29
M  V30 END BOND
M  V30 END CTAB
M  END
>  <Structure No>
1940

>  <LogS>
-1.720777531

>  <MMFF94 Energy>
13.61

$$$$
Compound 1941
Actelion Java MolfileCreator 2.0

  0  0  0  0  0  0              0 V3000
M  V30 BEGIN CTAB
M  V30 COUNTS 20 20 0 0 0
M  V30 BEGIN ATOM
M  V30 1 O -2.1291 1.0246 -2.1291 0
M  V30 2 C -2.1241 0.6437 -0.9287 0
M  V30 3 O -2.8482 1.3605 0.0172 0 CHG=-1
M  V30 4 C -1.2916 -0.5446 -0.522 0 CFG=2
M  V30 5 N -1.9017 -1.2627 0.6042 0 CHG=1
M  V30 6 C 0.1228 -0.1126 -0.1851 0
M  V30 7 C 0.3708 0.8216 0.8396 0
M  V30 8 C 1.2131 -0.6585 -0.887 0
M  V30 9 C 1.68 1.204 1.147 0
M  V30 10 C 2.5205 -0.2725 -0.5752 0
M  V30 11 C 2.7538 0.6579 0.4401 0
M  V30 12 H -1.2676 -1.2399 -1.3925 0
M  V30 13 H -1.967 -0.6539 1.4523 0
M  V30 14 H -1.3264 -2.1055 0.8349 0
M  V30 15 H -2.8617 -1.5836 0.3397 0
M  V30 16 H -0.4474 1.2562 1.3994 0
M  V30 17 H 1.0539 -1.383 -1.6756 0
M  V30 18 H 1.862 1.924 1.9345 0
M  V30 19 H 3.3536 -0.6962 -1.1209 0
M  V30 20 H 3.7666 0.955 0.6799 0
M  V30 END ATOM
M  V30 BEGIN BOND
M  V30 1 2 1 2
M  V30 2 1 2 3
M  V30 3 1 2 4
M  V30 4 1 4 5
M  V30 5 1 4 6
M  V30 6 2 6 7
M  V30 7 1 6 8
M  V30 8 1 7 9
M  V30 9 2 8 10
M  V30 10 2 9 11
M  V30 11 1 10 11
M  V30 12 1 4 12
M  V30 13 1 5 13
M  V30 14 1 5 14
M  V30 15 1 5 15
M  V30 16 1 7 16
M  V30 17 1 8 17
M  V30 18 1 9 18
M  V30 19 1 10 19
M  V30 20 1 11 20
M  V30 END BOND
M  V30 BEGIN COLLECTION
M  V30 MDLV30/STEABS ATOMS=(1 4)
M  V30 END COLLECTION
M  V30 END CTAB
M  END
>  <Structure No>
1941

>  <LogS>
-1.508278406

>  <MMFF94 Energy>
24.612

$$$$
Compound 1942
Actelion Java MolfileCreator 2.0

  0  0  0  0  0  0              0 V3000
M  V30 BEGIN CTAB
M  V30 COUNTS 36 36 0 0 0
M  V30 BEGIN ATOM
M  V30 1 O 0.0 -1.7239 1.3319 0
M  V30 2 C 0.7228 -1.0654 0.5367 0
M  V30 3 N 2.0441 -1.2463 0.3959 0
M  V30 4 N 0.2934 -0.0476 -0.2366 0
M  V30 5 N 2.856 -2.1552 1.0933 0
M  V30 6 C 2.4146 -0.2954 -0.4894 0
M  V30 7 N 1.35 0.4532 -0.8644 0
M  V30 8 C -1.0296 0.4979 -0.3519 0
M  V30 9 C 3.8344 -0.0125 -0.913 0
M  V30 10 O -1.1665 1.6797 -0.7671 0
M  V30 11 N -2.1867 -0.2997 -0.0357 0
M  V30 12 C 3.8844 0.5883 -2.3228 0
M  V30 13 C 4.5057 0.9208 0.0975 0
M  V30 14 C -3.5478 0.2336 0.1712 0
M  V30 15 C -4.0978 0.8199 -1.1436 0
M  V30 16 C -4.4745 -0.9152 0.6199 0
M  V30 17 C -3.5361 1.3105 1.274 0
M  V30 18 H 2.4338 -2.8256 1.7735 0
M  V30 19 H 3.8903 -2.1691 0.958 0
M  V30 20 H 4.3999 -0.9682 -0.9426 0
M  V30 21 H -2.0461 -1.332 0.0375 0
M  V30 22 H 3.388 -0.0937 -3.0458 0
M  V30 23 H 3.3757 1.5762 -2.3514 0
M  V30 24 H 4.9398 0.7231 -2.6421 0
M  V30 25 H 3.972 1.8948 0.146 0
M  V30 26 H 5.562 1.1039 -0.1933 0
M  V30 27 H 4.5001 0.4592 1.108 0
M  V30 28 H -5.1643 1.1107 -1.0258 0
M  V30 29 H -3.5398 1.7265 -1.4529 0
M  V30 30 H -4.026 0.0685 -1.959 0
M  V30 31 H -4.0993 -1.37 1.5623 0
M  V30 32 H -4.5141 -1.7088 -0.1571 0
M  V30 33 H -5.5087 -0.5474 0.7964 0
M  V30 34 H -2.9486 2.1994 0.9656 0
M  V30 35 H -3.088 0.9021 2.2054 0
M  V30 36 H -4.5698 1.6515 1.4994 0
M  V30 END ATOM
M  V30 BEGIN BOND
M  V30 1 2 1 2
M  V30 2 1 2 3
M  V30 3 1 2 4
M  V30 4 1 3 5
M  V30 5 1 3 6
M  V30 6 1 4 7
M  V30 7 1 4 8
M  V30 8 1 6 9
M  V30 9 2 8 10
M  V30 10 1 8 11
M  V30 11 1 9 12
M  V30 12 1 9 13
M  V30 13 1 11 14
M  V30 14 1 14 15
M  V30 15 1 14 16
M  V30 16 1 14 17
M  V30 17 2 6 7
M  V30 18 1 5 18
M  V30 19 1 5 19
M  V30 20 1 9 20
M  V30 21 1 11 21
M  V30 22 1 12 22
M  V30 23 1 12 23
M  V30 24 1 12 24
M  V30 25 1 13 25
M  V30 26 1 13 26
M  V30 27 1 13 27
M  V30 28 1 15 28
M  V30 29 1 15 29
M  V30 30 1 15 30
M  V30 31 1 16 31
M  V30 32 1 16 32
M  V30 33 1 16 33
M  V30 34 1 17 34
M  V30 35 1 17 35
M  V30 36 1 17 36
M  V30 END BOND
M  V30 END CTAB
M  END
>  <Structure No>
1942

>  <LogS>
-1.718847397

>  <MMFF94 Energy>
58.155

$$$$
Compound 1943
Actelion Java MolfileCreator 2.0

  0  0  0  0  0  0              0 V3000
M  V30 BEGIN CTAB
M  V30 COUNTS 24 24 0 0 0
M  V30 BEGIN ATOM
M  V30 1 O 1.7307 1.652 -0.7864 0
M  V30 2 C 2.16 0.5137 -0.677 0
M  V30 3 C 1.4894 -0.6104 -1.4223 0
M  V30 4 C 3.3244 0.2524 0.2301 0
M  V30 5 C 0.6005 -1.4558 -0.501 0
M  V30 6 C -0.567 -0.6635 0.0302 0
M  V30 7 C -0.5031 -0.0684 1.3009 0
M  V30 8 C -1.7116 -0.4743 -0.7612 0
M  V30 9 C -1.5752 0.6917 1.7781 0
M  V30 10 C -2.7826 0.2858 -0.2815 0
M  V30 11 C -2.717 0.8704 0.9905 0
M  V30 12 O -3.7775 1.6303 1.4786 0
M  V30 13 H 2.2698 -1.2621 -1.8705 0
M  V30 14 H 0.8818 -0.2029 -2.2602 0
M  V30 15 H 4.2015 0.8406 -0.1114 0
M  V30 16 H 3.0629 0.5542 1.2659 0
M  V30 17 H 3.5945 -0.8244 0.2295 0
M  V30 18 H 0.2189 -2.3281 -1.0749 0
M  V30 19 H 1.2057 -1.8667 0.3366 0
M  V30 20 H 0.3772 -0.1897 1.9197 0
M  V30 21 H -1.7725 -0.9135 -1.7491 0
M  V30 22 H -1.5174 1.1448 2.7596 0
M  V30 23 H -3.6607 0.4224 -0.8997 0
M  V30 24 H -4.6179 1.779 0.9323 0
M  V30 END ATOM
M  V30 BEGIN BOND
M  V30 1 2 1 2
M  V30 2 1 2 3
M  V30 3 1 2 4
M  V30 4 1 3 5
M  V30 5 1 5 6
M  V30 6 2 6 7
M  V30 7 1 6 8
M  V30 8 1 7 9
M  V30 9 2 8 10
M  V30 10 2 9 11
M  V30 11 1 11 12
M  V30 12 1 10 11
M  V30 13 1 3 13
M  V30 14 1 3 14
M  V30 15 1 4 15
M  V30 16 1 4 16
M  V30 17 1 4 17
M  V30 18 1 5 18
M  V30 19 1 5 19
M  V30 20 1 7 20
M  V30 21 1 8 21
M  V30 22 1 9 22
M  V30 23 1 10 23
M  V30 24 1 12 24
M  V30 END BOND
M  V30 END CTAB
M  END
>  <Structure No>
1943

>  <LogS>
-1.552040941

>  <MMFF94 Energy>
7.4069

$$$$
Compound 1944
Actelion Java MolfileCreator 2.0

  0  0  0  0  0  0              0 V3000
M  V30 BEGIN CTAB
M  V30 COUNTS 5 4 0 0 0
M  V30 BEGIN ATOM
M  V30 1 Cl -0.8056 1.5109 -0.4027 0
M  V30 2 C -0.0369 -0.0061 0.116 0
M  V30 3 Cl -0.9593 -1.3861 -0.5214 0
M  V30 4 Cl 1.6282 -0.0688 -0.504 0
M  V30 5 H -0.0208 -0.0523 1.2244 0
M  V30 END ATOM
M  V30 BEGIN BOND
M  V30 1 1 1 2
M  V30 2 1 2 3
M  V30 3 1 2 4
M  V30 4 1 2 5
M  V30 END BOND
M  V30 END CTAB
M  END
>  <Structure No>
1944

>  <LogS>
-1.417811305

>  <MMFF94 Energy>
0.00208

$$$$
Compound 1945
Actelion Java MolfileCreator 2.0

  0  0  0  0  0  0              0 V3000
M  V30 BEGIN CTAB
M  V30 COUNTS 15 15 0 0 0
M  V30 BEGIN ATOM
M  V30 1 Cl 0.2574 -2.577 0.4291 0
M  V30 2 C 0.1485 -0.8383 0.1264 0
M  V30 3 C 1.3034 -0.0128 0.0733 0
M  V30 4 C -1.1206 -0.2474 -0.0691 0
M  V30 5 N 1.1541 1.3194 -0.1636 0
M  V30 6 C 2.6865 -0.5104 0.2618 0
M  V30 7 N -2.3259 -1.0244 -0.0279 0
M  V30 8 C -1.2127 1.1277 -0.309 0
M  V30 9 C -0.0562 1.9001 -0.3529 0
M  V30 10 O 2.9342 -1.7233 0.486 0
M  V30 11 O 3.7471 0.385 0.1898 0 CHG=-1
M  V30 12 Cl -0.1545 3.6236 -0.6523 0
M  V30 13 H -3.2542 -0.5686 -0.1749 0
M  V30 14 H -2.3228 -2.0525 0.1465 0
M  V30 15 H -2.1782 1.5948 -0.4606 0
M  V30 END ATOM
M  V30 BEGIN BOND
M  V30 1 1 1 2
M  V30 2 2 2 3
M  V30 3 1 2 4
M  V30 4 1 3 5
M  V30 5 1 3 6
M  V30 6 1 4 7
M  V30 7 2 4 8
M  V30 8 2 5 9
M  V30 9 2 6 10
M  V30 10 1 6 11
M  V30 11 1 9 12
M  V30 12 1 8 9
M  V30 13 1 7 13
M  V30 14 1 7 14
M  V30 15 1 8 15
M  V30 END BOND
M  V30 END CTAB
M  END
>  <Structure No>
1945

>  <LogS>
-0.004250052

>  <MMFF94 Energy>
94.237

$$$$
Compound 1946
Actelion Java MolfileCreator 2.0

  0  0  0  0  0  0              0 V3000
M  V30 BEGIN CTAB
M  V30 COUNTS 39 39 0 0 0
M  V30 BEGIN ATOM
M  V30 1 O 3.2367 -1.6568 1.8147 0
M  V30 2 N 2.0731 -1.9229 1.4488 0 CHG=1
M  V30 3 O 1.4771 -3.0714 1.9169 0 CHG=-1
M  V30 4 C 1.292 -0.9446 0.7418 0
M  V30 5 C 1.8661 -0.1209 -0.2566 0
M  V30 6 C -0.0614 -0.7798 1.0818 0
M  V30 7 N 3.2176 -0.3435 -0.7059 0
M  V30 8 C 1.0761 0.8786 -0.8513 0
M  V30 9 C -0.8526 0.2083 0.4698 0
M  V30 10 C 4.0217 0.7 -1.347 0
M  V30 11 C -0.2608 1.0426 -0.49 0
M  V30 12 N -2.2485 0.3695 0.8244 0
M  V30 13 C 5.4934 0.2905 -1.4455 0
M  V30 14 C -2.7999 1.7137 1.0668 0
M  V30 15 C -3.1059 -0.8051 1.0665 0
M  V30 16 O 6.0713 0.2194 -0.1694 0
M  V30 17 C -3.8804 2.0851 0.0422 0
M  V30 18 C -3.2549 -1.6458 -0.204 0
M  V30 19 O -3.3338 2.2206 -1.2405 0
M  V30 20 O -4.0705 -2.7583 0.0439 0
M  V30 21 H -0.4791 -1.3998 1.8616 0
M  V30 22 H 3.6357 -1.2932 -0.5851 0
M  V30 23 H 1.4807 1.5221 -1.6203 0
M  V30 24 H 3.6335 0.8841 -2.3715 0
M  V30 25 H 3.9479 1.6423 -0.7613 0
M  V30 26 H -0.8361 1.8126 -0.9823 0
M  V30 27 H 6.0379 1.0592 -2.0336 0
M  V30 28 H 5.5939 -0.6785 -1.9863 0
M  V30 29 H -3.2445 1.744 2.0852 0
M  V30 30 H -1.9983 2.484 1.0511 0
M  V30 31 H -4.1163 -0.4879 1.4048 0
M  V30 32 H -2.691 -1.4267 1.8855 0
M  V30 33 H 5.8736 -0.6855 0.1866 0
M  V30 34 H -4.3217 3.061 0.3358 0
M  V30 35 H -4.7075 1.3403 0.0419 0
M  V30 36 H -2.2582 -2.0087 -0.5316 0
M  V30 37 H -3.6831 -1.029 -1.0256 0
M  V30 38 H -3.2731 1.3073 -1.6234 0
M  V30 39 H -5.0063 -2.4268 0.0604 0
M  V30 END ATOM
M  V30 BEGIN BOND
M  V30 1 2 1 2
M  V30 2 1 2 3
M  V30 3 1 2 4
M  V30 4 2 4 5
M  V30 5 1 4 6
M  V30 6 1 5 7
M  V30 7 1 5 8
M  V30 8 2 6 9
M  V30 9 1 7 10
M  V30 10 2 8 11
M  V30 11 1 9 12
M  V30 12 1 10 13
M  V30 13 1 12 14
M  V30 14 1 12 15
M  V30 15 1 13 16
M  V30 16 1 14 17
M  V30 17 1 15 18
M  V30 18 1 17 19
M  V30 19 1 18 20
M  V30 20 1 9 11
M  V30 21 1 6 21
M  V30 22 1 7 22
M  V30 23 1 8 23
M  V30 24 1 10 24
M  V30 25 1 10 25
M  V30 26 1 11 26
M  V30 27 1 13 27
M  V30 28 1 13 28
M  V30 29 1 14 29
M  V30 30 1 14 30
M  V30 31 1 15 31
M  V30 32 1 15 32
M  V30 33 1 16 33
M  V30 34 1 17 34
M  V30 35 1 17 35
M  V30 36 1 18 36
M  V30 37 1 18 37
M  V30 38 1 19 38
M  V30 39 1 20 39
M  V30 END BOND
M  V30 END CTAB
M  END
>  <Structure No>
1946

>  <LogS>
-1.795385572

>  <MMFF94 Energy>
135.71

$$$$
Compound 1947
Actelion Java MolfileCreator 2.0

  0  0  0  0  0  0              0 V3000
M  V30 BEGIN CTAB
M  V30 COUNTS 1 0 0 0 0
M  V30 BEGIN ATOM
M  V30 1 F 0.0 0.0 0.0 0 CHG=-1
M  V30 END ATOM
M  V30 BEGIN BOND
M  V30 END BOND
M  V30 END CTAB
M  END
>  <Structure No>
1947

>  <LogS>
-1.269901072

>  <MMFF94 Energy>
MMFF94 error code 2

$$$$
Compound 1948
Actelion Java MolfileCreator 2.0

  0  0  0  0  0  0              0 V3000
M  V30 BEGIN CTAB
M  V30 COUNTS 15 14 0 0 0
M  V30 BEGIN ATOM
M  V30 1 O 1.3665 -1.2146 -0.4553 0
M  V30 2 C 1.4856 0.0934 0.0307 0
M  V30 3 C 0.2742 0.932 -0.3925 0
M  V30 4 C -0.983 0.6592 0.45 0
M  V30 5 C -1.5982 -0.7134 0.1814 0
M  V30 6 H 2.1682 -1.7023 -0.1327 0
M  V30 7 H 1.5808 0.0864 1.14 0
M  V30 8 H 2.4038 0.5563 -0.3949 0
M  V30 9 H 0.5392 2.0046 -0.2673 0
M  V30 10 H 0.0582 0.7717 -1.4716 0
M  V30 11 H -0.7484 0.757 1.5323 0
M  V30 12 H -1.742 1.4329 0.2023 0
M  V30 13 H -2.5809 -0.7833 0.6938 0
M  V30 14 H -0.947 -1.5187 0.5792 0
M  V30 15 H -1.7564 -0.8642 -0.9075 0
M  V30 END ATOM
M  V30 BEGIN BOND
M  V30 1 1 1 2
M  V30 2 1 2 3
M  V30 3 1 3 4
M  V30 4 1 4 5
M  V30 5 1 1 6
M  V30 6 1 2 7
M  V30 7 1 2 8
M  V30 8 1 3 9
M  V30 9 1 3 10
M  V30 10 1 4 11
M  V30 11 1 4 12
M  V30 12 1 5 13
M  V30 13 1 5 14
M  V30 14 1 5 15
M  V30 END BOND
M  V30 END CTAB
M  END
>  <Structure No>
1948

>  <LogS>
-1.737335476

>  <MMFF94 Energy>
-2.0143

$$$$
Compound 1949
Actelion Java MolfileCreator 2.0

  0  0  0  0  0  0              0 V3000
M  V30 BEGIN CTAB
M  V30 COUNTS 13 13 0 0 0
M  V30 BEGIN ATOM
M  V30 1 Cl 2.283 -1.8599 0.0 0
M  V30 2 C 0.8632 -0.8225 -0.0034 0
M  V30 3 C 0.9749 0.582 -0.0547 0
M  V30 4 C -0.4037 -1.4177 0.0465 0
M  V30 5 O 2.2154 1.219 -0.1054 0
M  V30 6 C -0.1843 1.3674 -0.0554 0
M  V30 7 C -1.5563 -0.6253 0.0454 0
M  V30 8 C -1.4455 0.7672 -0.0054 0
M  V30 9 Cl -3.1396 -1.378 0.1081 0
M  V30 10 H -0.4925 -2.4962 0.0861 0
M  V30 11 H 3.091 0.7115 -0.1078 0
M  V30 12 H -0.1067 2.4467 -0.0946 0
M  V30 13 H -2.3346 1.385 -0.0064 0
M  V30 END ATOM
M  V30 BEGIN BOND
M  V30 1 1 1 2
M  V30 2 2 2 3
M  V30 3 1 2 4
M  V30 4 1 3 5
M  V30 5 1 3 6
M  V30 6 2 4 7
M  V30 7 2 6 8
M  V30 8 1 7 9
M  V30 9 1 7 8
M  V30 10 1 4 10
M  V30 11 1 5 11
M  V30 12 1 6 12
M  V30 13 1 8 13
M  V30 END BOND
M  V30 END CTAB
M  END
>  <Structure No>
1949

>  <LogS>
-1.558983084

>  <MMFF94 Energy>
14.456

$$$$
Compound 1950
Actelion Java MolfileCreator 2.0

  0  0  0  0  0  0              0 V3000
M  V30 BEGIN CTAB
M  V30 COUNTS 95 102 0 0 0
M  V30 BEGIN ATOM
M  V30 1 S 4.827 -3.4703 -0.4227 0
M  V30 2 O 4.2791 -4.0088 0.8691 0
M  V30 3 O 5.6657 -4.5317 -1.0806 0
M  V30 4 O 3.5581 -3.0757 -1.4515 0 CHG=-1
M  V30 5 C 5.7905 -2.0231 -0.0924 0
M  V30 6 C 5.1345 -0.8194 0.4791 0
M  V30 7 C 7.1128 -2.0303 -0.3367 0
M  V30 8 N 3.8664 -0.8827 0.7828 0
M  V30 9 C 5.9484 0.4152 0.642 0
M  V30 10 C 7.9704 -0.8532 -0.0664 0
M  V30 11 N 3.1445 0.1191 1.4506 0
M  V30 12 O 5.4121 1.5218 0.9154 0
M  V30 13 C 7.4046 0.3442 0.4133 0
M  V30 14 C 9.3533 -0.9275 -0.2922 0
M  V30 15 C 1.7185 0.1328 1.3597 0
M  V30 16 C 8.2324 1.4487 0.6706 0
M  V30 17 C 10.1773 0.1873 -0.0545 0
M  V30 18 C 1.063 0.8978 0.3733 0
M  V30 19 C 0.9698 -0.6203 2.2693 0
M  V30 20 C 9.608 1.3645 0.4472 0
M  V30 21 N 11.5993 0.1231 -0.2559 0
M  V30 22 C -0.3567 0.8997 0.3144 0
M  V30 23 C 1.7923 1.6627 -0.5582 0
M  V30 24 C -0.4237 -0.6196 2.2152 0
M  V30 25 C 12.2266 -0.628 -1.3086 0
M  V30 26 C -1.0997 0.1404 1.246 0
M  V30 27 C -1.0051 1.6647 -0.6773 0
M  V30 28 C 1.1323 2.4155 -1.5303 0
M  V30 29 O 11.5477 -1.0131 -2.2996 0
M  V30 30 C 13.6805 -0.9025 -1.2724 0
M  V30 31 N -2.5327 0.1588 1.1948 0
M  V30 32 C -0.2651 2.4265 -1.5892 0
M  V30 33 C 14.3691 -0.9647 -0.0484 0
M  V30 34 C 14.3943 -1.108 -2.4665 0
M  V30 35 N -3.2632 -0.5369 1.9698 0
M  V30 36 S -1.087 3.3662 -2.8329 0
M  V30 37 C 15.7451 -1.2119 -0.0252 0
M  V30 38 C 15.771 -1.3574 -2.4331 0
M  V30 39 C -4.6953 -0.4897 1.8937 0
M  V30 40 O -0.2752 4.5852 -3.17 0
M  V30 41 O -2.4348 3.8066 -2.3327 0
M  V30 42 O -1.2836 2.425 -4.2107 0 CHG=-1
M  V30 43 C 16.4468 -1.4058 -1.2146 0
M  V30 44 C -5.4052 -0.4451 0.6648 0
M  V30 45 C -5.3947 -0.4148 3.0953 0
M  V30 46 C -6.8137 -0.192 0.6666 0
M  V30 47 C -4.7462 -0.6739 -0.5623 0
M  V30 48 C -6.7692 -0.2235 3.1075 0
M  V30 49 C -7.4989 -0.1028 1.9236 0
M  V30 50 C -7.4579 -0.0249 -0.5847 0
M  V30 51 C -5.4267 -0.5708 -1.7716 0
M  V30 52 N -8.9201 0.0744 2.0954 0
M  V30 53 C -6.7771 -0.233 -1.7896 0
M  V30 54 N -9.7873 -0.0401 1.1745 0
M  V30 55 S -7.6317 -0.0576 -3.3232 0
M  V30 56 C -11.1846 0.1744 1.4084 0
M  V30 57 O -8.9936 -0.684 -3.2158 0
M  V30 58 O -6.8714 -0.7391 -4.4272 0
M  V30 59 O -7.7948 1.5729 -3.6889 0 CHG=-1
M  V30 60 C -12.0565 0.1685 0.3166 0
M  V30 61 C -11.6918 0.3998 2.6969 0
M  V30 62 C -13.4334 0.3867 0.4908 0
M  V30 63 C -13.0589 0.6129 2.8842 0
M  V30 64 S -14.4817 0.3785 -0.9327 0
M  V30 65 C -13.9424 0.608 1.7942 0
M  V30 66 O -15.1919 1.6971 -1.0514 0
M  V30 67 O -15.485 -0.7348 -0.8154 0
M  V30 68 O -13.576 0.134 -2.3244 0 CHG=-1
M  V30 69 N -15.3396 0.8239 2.0381 0
M  V30 70 H 7.5781 -2.922 -0.7361 0
M  V30 71 H 3.5879 0.6568 2.2245 0
M  V30 72 H 9.7865 -1.8588 -0.6316 0
M  V30 73 H 7.8172 2.3755 1.0468 0
M  V30 74 H 1.4696 -1.2117 3.0244 0
M  V30 75 H 10.233 2.2235 0.6552 0
M  V30 76 H 12.2017 0.7586 0.3138 0
M  V30 77 H 2.8755 1.6815 -0.5409 0
M  V30 78 H -0.9729 -1.2133 2.9362 0
M  V30 79 H -2.0849 1.6712 -0.7506 0
M  V30 80 H 1.7131 2.9959 -2.2358 0
M  V30 81 H 13.8448 -0.8378 0.8902 0
M  V30 82 H 13.8925 -1.0639 -3.4248 0
M  V30 83 H 16.2667 -1.2612 0.9207 0
M  V30 84 H 16.3134 -1.5072 -3.3552 0
M  V30 85 H 17.5148 -1.5879 -1.1901 0
M  V30 86 H -4.861 -0.4686 4.0364 0
M  V30 87 H -3.7069 -0.9613 -0.6063 0
M  V30 88 H -7.2766 -0.1548 4.0623 0
M  V30 89 H -8.4794 0.2948 -0.6738 0
M  V30 90 H -4.8924 -0.7455 -2.6964 0
M  V30 91 H -11.6491 -0.0014 -0.6733 0
M  V30 92 H -11.0351 0.4099 3.5571 0
M  V30 93 H -13.4315 0.7823 3.8871 0
M  V30 94 H -15.689 0.9791 3.0123 0
M  V30 95 H -16.0495 0.8274 1.2767 0
M  V30 END ATOM
M  V30 BEGIN BOND
M  V30 1 2 1 2
M  V30 2 2 1 3
M  V30 3 1 1 4
M  V30 4 1 1 5
M  V30 5 1 5 6
M  V30 6 2 5 7
M  V30 7 2 6 8
M  V30 8 1 6 9
M  V30 9 1 7 10
M  V30 10 1 8 11
M  V30 11 2 9 12
M  V30 12 1 9 13
M  V30 13 1 10 14
M  V30 14 1 11 15
M  V30 15 1 13 16
M  V30 16 2 14 17
M  V30 17 1 15 18
M  V30 18 2 15 19
M  V30 19 2 16 20
M  V30 20 1 17 21
M  V30 21 1 18 22
M  V30 22 2 18 23
M  V30 23 1 19 24
M  V30 24 1 21 25
M  V30 25 1 22 26
M  V30 26 2 22 27
M  V30 27 1 23 28
M  V30 28 2 25 29
M  V30 29 1 25 30
M  V30 30 1 26 31
M  V30 31 1 27 32
M  V30 32 2 30 33
M  V30 33 1 30 34
M  V30 34 2 31 35
M  V30 35 1 32 36
M  V30 36 1 33 37
M  V30 37 2 34 38
M  V30 38 1 35 39
M  V30 39 2 36 40
M  V30 40 2 36 41
M  V30 41 1 36 42
M  V30 42 2 37 43
M  V30 43 1 39 44
M  V30 44 2 39 45
M  V30 45 1 44 46
M  V30 46 2 44 47
M  V30 47 1 45 48
M  V30 48 1 46 49
M  V30 49 2 46 50
M  V30 50 1 47 51
M  V30 51 1 49 52
M  V30 52 1 50 53
M  V30 53 2 52 54
M  V30 54 1 53 55
M  V30 55 1 54 56
M  V30 56 2 55 57
M  V30 57 2 55 58
M  V30 58 1 55 59
M  V30 59 2 56 60
M  V30 60 1 56 61
M  V30 61 1 60 62
M  V30 62 2 61 63
M  V30 63 1 62 64
M  V30 64 2 62 65
M  V30 65 2 64 66
M  V30 66 2 64 67
M  V30 67 1 64 68
M  V30 68 1 65 69
M  V30 69 2 10 13
M  V30 70 1 17 20
M  V30 71 2 24 26
M  V30 72 2 28 32
M  V30 73 1 38 43
M  V30 74 2 48 49
M  V30 75 2 51 53
M  V30 76 1 63 65
M  V30 77 1 7 70
M  V30 78 1 11 71
M  V30 79 1 14 72
M  V30 80 1 16 73
M  V30 81 1 19 74
M  V30 82 1 20 75
M  V30 83 1 21 76
M  V30 84 1 23 77
M  V30 85 1 24 78
M  V30 86 1 27 79
M  V30 87 1 28 80
M  V30 88 1 33 81
M  V30 89 1 34 82
M  V30 90 1 37 83
M  V30 91 1 38 84
M  V30 92 1 43 85
M  V30 93 1 45 86
M  V30 94 1 47 87
M  V30 95 1 48 88
M  V30 96 1 50 89
M  V30 97 1 51 90
M  V30 98 1 60 91
M  V30 99 1 61 92
M  V30 100 1 63 93
M  V30 101 1 69 94
M  V30 102 1 69 95
M  V30 END BOND
M  V30 END CTAB
M  END
>  <Structure No>
1950

>  <LogS>
-2.393595358

>  <MMFF94 Energy>
431.86

$$$$
Compound 1951
Actelion Java MolfileCreator 2.0

  0  0  0  0  0  0              0 V3000
M  V30 BEGIN CTAB
M  V30 COUNTS 18 17 0 0 0
M  V30 BEGIN ATOM
M  V30 1 O 1.0813 -1.1586 -0.5405 0
M  V30 2 C 1.0715 -0.0683 0.0933 0
M  V30 3 O 2.2752 0.5152 0.4985 0
M  V30 4 C -0.1915 0.6252 0.4283 0
M  V30 5 C 3.5427 -0.0706 0.2265 0
M  V30 6 C -1.4387 0.2127 0.1203 0
M  V30 7 C -2.5972 1.07 0.5562 0
M  V30 8 C -1.7153 -1.0615 -0.6363 0
M  V30 9 H -0.0823 1.5551 0.9754 0
M  V30 10 H 4.3407 0.5756 0.6461 0
M  V30 11 H 3.6069 -1.074 0.6985 0
M  V30 12 H 3.6923 -0.1611 -0.8702 0
M  V30 13 H -3.5724 0.6366 0.2509 0
M  V30 14 H -2.51 2.0792 0.1006 0
M  V30 15 H -2.5951 1.1703 1.6624 0
M  V30 16 H -2.8034 -1.2195 -0.7874 0
M  V30 17 H -1.327 -1.9327 -0.068 0
M  V30 18 H -1.2414 -1.0183 -1.6393 0
M  V30 END ATOM
M  V30 BEGIN BOND
M  V30 1 2 1 2
M  V30 2 1 2 3
M  V30 3 1 2 4
M  V30 4 1 3 5
M  V30 5 2 4 6
M  V30 6 1 6 7
M  V30 7 1 6 8
M  V30 8 1 4 9
M  V30 9 1 5 10
M  V30 10 1 5 11
M  V30 11 1 5 12
M  V30 12 1 7 13
M  V30 13 1 7 14
M  V30 14 1 7 15
M  V30 15 1 8 16
M  V30 16 1 8 17
M  V30 17 1 8 18
M  V30 END BOND
M  V30 END CTAB
M  END
>  <Structure No>
1951

>  <LogS>
-1.414000411

>  <MMFF94 Energy>
2.4766

$$$$
Compound 1952
Actelion Java MolfileCreator 2.0

  0  0  0  0  0  0              0 V3000
M  V30 BEGIN CTAB
M  V30 COUNTS 115 123 0 0 0
M  V30 BEGIN ATOM
M  V30 1 S -3.0385 -3.7992 -3.3766 0
M  V30 2 O -4.2353 -3.814 -2.4635 0
M  V30 3 O -2.9733 -5.1086 -4.1109 0
M  V30 4 O -3.195 -2.5546 -4.4935 0 CHG=-1
M  V30 5 C -1.5694 -3.5447 -2.4201 0
M  V30 6 C -1.4792 -2.3933 -1.4927 0
M  V30 7 C -0.5513 -4.4159 -2.5126 0
M  V30 8 N -2.5536 -1.7023 -1.2359 0
M  V30 9 C -0.1618 -2.0916 -0.8772 0
M  V30 10 C 0.6764 -4.2823 -1.6887 0
M  V30 11 N -2.6543 -0.7098 -0.2458 0
M  V30 12 O 0.1144 -0.9183 -0.5003 0
M  V30 13 C 0.8691 -3.1563 -0.8551 0
M  V30 14 C 1.6502 -5.2878 -1.7446 0
M  V30 15 C -3.8664 0.0361 -0.151 0
M  V30 16 C 2.0415 -3.0662 -0.067 0
M  V30 17 C 2.806 -5.1973 -0.9662 0
M  V30 18 C -4.881 -0.3831 0.7248 0
M  V30 19 C -4.0541 1.1558 -0.9689 0
M  V30 20 N 2.2728 -1.9494 0.8087 0
M  V30 21 C 2.9895 -4.0998 -0.1204 0
M  V30 22 S 4.0221 -6.47 -1.0334 0
M  V30 23 O -4.6449 -1.4956 1.55 0
M  V30 24 C -6.1004 0.3139 0.74 0
M  V30 25 C -5.2517 1.8868 -0.9133 0
M  V30 26 C 3.4854 -1.1851 0.7554 0
M  V30 27 O 3.7381 -7.4876 0.0334 0
M  V30 28 O 5.3875 -5.8824 -0.8184 0
M  V30 29 O 3.9862 -7.2152 -2.5381 0 CHG=-1
M  V30 30 C -5.5784 -2.0053 2.4969 0
M  V30 31 C -6.2977 1.437 -0.0835 0
M  V30 32 C -5.4418 3.0798 -1.803 0
M  V30 33 N 3.6579 -0.1172 1.576 0
M  V30 34 N 4.4582 -1.508 -0.1352 0
M  V30 35 N -7.5552 2.1268 -0.0677 0
M  V30 36 C 4.8051 0.611 1.5185 0
M  V30 37 C 5.5944 -0.7758 -0.2207 0
M  V30 38 N -8.6293 1.5218 0.2458 0
M  V30 39 N 5.766 0.2855 0.6103 0
M  V30 40 N 4.9719 1.7321 2.3963 0
M  V30 41 N 6.646 -1.1589 -1.1232 0
M  V30 42 C -9.902 2.1768 0.3365 0
M  V30 43 C 6.2343 2.2744 2.8309 0
M  V30 44 C 6.579 -2.3193 -1.9723 0
M  V30 45 C -11.1002 1.4178 0.427 0
M  V30 46 C -9.9628 3.5813 0.4004 0
M  V30 47 C 7.425 1.5193 2.8017 0
M  V30 48 C 6.2651 3.5589 3.3949 0
M  V30 49 C 7.722 -3.1185 -2.1364 0
M  V30 50 C 5.4013 -2.6545 -2.669 0
M  V30 51 C -11.1149 0.0015 0.3493 0
M  V30 52 C -12.3362 2.1015 0.5966 0
M  V30 53 C -11.1853 4.2432 0.568 0
M  V30 54 C 8.6221 2.06 3.292 0
M  V30 55 C 7.454 4.0833 3.9117 0
M  V30 56 C 7.6776 -4.2563 -2.9506 0
M  V30 57 C 5.3598 -3.7965 -3.4764 0
M  V30 58 O -9.9475 -0.7355 0.1771 0 CHG=-1
M  V30 59 C -12.3228 -0.6966 0.4393 0
M  V30 60 C -13.5369 1.3776 0.6898 0
M  V30 61 C -12.3638 3.5033 0.6753 0
M  V30 62 S -11.2291 6.0008 0.6799 0
M  V30 63 C 8.6374 3.346 3.8495 0
M  V30 64 C 6.4961 -4.5973 -3.6126 0
M  V30 65 C -13.5327 -0.0173 0.599 0
M  V30 66 O -12.4635 6.5225 4.0E-4 0
M  V30 67 O -10.0193 6.5904 0.0094 0
M  V30 68 O -11.2447 6.4521 2.298 0 CHG=-1
M  V30 69 N 9.8182 3.8535 4.4859 0
M  V30 70 S -15.0341 -0.9318 0.7042 0
M  V30 71 N 10.9639 3.9751 3.9322 0
M  V30 72 O -15.0949 -1.9303 -0.4183 0
M  V30 73 O -16.2176 -0.0115 0.6035 0
M  V30 74 O -15.0907 -1.7365 2.1795 0 CHG=-1
M  V30 75 C 11.2507 3.7979 2.5337 0
M  V30 76 C 12.4826 3.2448 2.1655 0
M  V30 77 C 10.4057 4.3162 1.5408 0
M  V30 78 C 12.8705 3.17 0.8127 0
M  V30 79 C 10.7691 4.2363 0.1955 0
M  V30 80 C 11.9949 3.6758 -0.1738 0
M  V30 81 C 14.1913 2.5885 0.4596 0
M  V30 82 O 12.3234 3.6284 -1.5254 0 CHG=-1
M  V30 83 O 14.9242 2.0822 1.3519 0
M  V30 84 O 14.6482 2.5896 -0.8529 0 CHG=-1
M  V30 85 H -0.6324 -5.2651 -3.1825 0
M  V30 86 H -2.0461 -0.7542 0.6017 0
M  V30 87 H 1.5026 -6.1449 -2.3911 0
M  V30 88 H -3.2622 1.457 -1.6411 0
M  V30 89 H 1.5072 -1.6341 1.447 0
M  V30 90 H 3.8747 -4.0478 0.5028 0
M  V30 91 H -6.897 -0.0044 1.3983 0
M  V30 92 H -5.835 -1.2195 3.2398 0
M  V30 93 H -5.1252 -2.8667 3.0285 0
M  V30 94 H -6.4972 -2.3505 1.9795 0
M  V30 95 H -4.4726 3.4295 -2.2195 0
M  V30 96 H -6.1182 2.8126 -2.6424 0
M  V30 97 H -5.8905 3.9203 -1.2307 0
M  V30 98 H 4.1017 2.1738 2.7696 0
M  V30 99 H 7.5655 -0.6685 -1.0243 0
M  V30 100 H -9.048 4.161 0.3501 0
M  V30 101 H 7.4283 0.4996 2.4506 0
M  V30 102 H 5.36 4.1486 3.4565 0
M  V30 103 H 8.6417 -2.8687 -1.6212 0
M  V30 104 H 4.5228 -2.0268 -2.6103 0
M  V30 105 H 9.5214 1.4588 3.2804 0
M  V30 106 H 7.4492 5.0638 4.3737 0
M  V30 107 H 8.5583 -4.8777 -3.056 0
M  V30 108 H 4.4498 -4.0589 -4.0025 0
M  V30 109 H -12.3161 -1.7788 0.3731 0
M  V30 110 H -14.4746 1.9015 0.8265 0
M  V30 111 H -13.3052 4.0209 0.809 0
M  V30 112 H 6.4646 -5.4799 -4.2382 0
M  V30 113 H 13.1453 2.886 2.944 0
M  V30 114 H 9.4847 4.8181 1.8049 0
M  V30 115 H 10.1075 4.6369 -0.5579 0
M  V30 END ATOM
M  V30 BEGIN BOND
M  V30 1 2 1 2
M  V30 2 2 1 3
M  V30 3 1 1 4
M  V30 4 1 1 5
M  V30 5 1 5 6
M  V30 6 2 5 7
M  V30 7 2 6 8
M  V30 8 1 6 9
M  V30 9 1 7 10
M  V30 10 1 8 11
M  V30 11 2 9 12
M  V30 12 1 9 13
M  V30 13 1 10 14
M  V30 14 1 11 15
M  V30 15 1 13 16
M  V30 16 2 14 17
M  V30 17 2 15 18
M  V30 18 1 15 19
M  V30 19 1 16 20
M  V30 20 2 16 21
M  V30 21 1 17 22
M  V30 22 1 18 23
M  V30 23 1 18 24
M  V30 24 2 19 25
M  V30 25 1 20 26
M  V30 26 2 22 27
M  V30 27 2 22 28
M  V30 28 1 22 29
M  V30 29 1 23 30
M  V30 30 2 24 31
M  V30 31 1 25 32
M  V30 32 2 26 33
M  V30 33 1 26 34
M  V30 34 1 31 35
M  V30 35 1 33 36
M  V30 36 2 34 37
M  V30 37 2 35 38
M  V30 38 2 36 39
M  V30 39 1 36 40
M  V30 40 1 37 41
M  V30 41 1 38 42
M  V30 42 1 40 43
M  V30 43 1 41 44
M  V30 44 1 42 45
M  V30 45 2 42 46
M  V30 46 2 43 47
M  V30 47 1 43 48
M  V30 48 2 44 49
M  V30 49 1 44 50
M  V30 50 2 45 51
M  V30 51 1 45 52
M  V30 52 1 46 53
M  V30 53 1 47 54
M  V30 54 2 48 55
M  V30 55 1 49 56
M  V30 56 2 50 57
M  V30 57 1 51 58
M  V30 58 1 51 59
M  V30 59 2 52 60
M  V30 60 1 52 61
M  V30 61 1 53 62
M  V30 62 2 54 63
M  V30 63 2 56 64
M  V30 64 2 59 65
M  V30 65 2 62 66
M  V30 66 2 62 67
M  V30 67 1 62 68
M  V30 68 1 63 69
M  V30 69 1 65 70
M  V30 70 2 69 71
M  V30 71 2 70 72
M  V30 72 2 70 73
M  V30 73 1 70 74
M  V30 74 1 71 75
M  V30 75 2 75 76
M  V30 76 1 75 77
M  V30 77 1 76 78
M  V30 78 2 77 79
M  V30 79 2 78 80
M  V30 80 1 78 81
M  V30 81 1 80 82
M  V30 82 2 81 83
M  V30 83 1 81 84
M  V30 84 2 10 13
M  V30 85 1 17 21
M  V30 86 1 25 31
M  V30 87 1 37 39
M  V30 88 2 53 61
M  V30 89 1 55 63
M  V30 90 1 57 64
M  V30 91 1 60 65
M  V30 92 1 79 80
M  V30 93 1 7 85
M  V30 94 1 11 86
M  V30 95 1 14 87
M  V30 96 1 19 88
M  V30 97 1 20 89
M  V30 98 1 21 90
M  V30 99 1 24 91
M  V30 100 1 30 92
M  V30 101 1 30 93
M  V30 102 1 30 94
M  V30 103 1 32 95
M  V30 104 1 32 96
M  V30 105 1 32 97
M  V30 106 1 40 98
M  V30 107 1 41 99
M  V30 108 1 46 100
M  V30 109 1 47 101
M  V30 110 1 48 102
M  V30 111 1 49 103
M  V30 112 1 50 104
M  V30 113 1 54 105
M  V30 114 1 55 106
M  V30 115 1 56 107
M  V30 116 1 57 108
M  V30 117 1 59 109
M  V30 118 1 60 110
M  V30 119 1 61 111
M  V30 120 1 64 112
M  V30 121 1 76 113
M  V30 122 1 77 114
M  V30 123 1 79 115
M  V30 END BOND
M  V30 END CTAB
M  END
>  <Structure No>
1952

>  <LogS>
-2.483387966

>  <MMFF94 Energy>
585.63

$$$$
Compound 1953
Actelion Java MolfileCreator 2.0

  0  0  0  0  0  0              0 V3000
M  V30 BEGIN CTAB
M  V30 COUNTS 26 27 0 0 0
M  V30 BEGIN ATOM
M  V30 1 S -4.0463 1.2374 0.7423 0
M  V30 2 O -5.2783 1.1574 -0.1148 0
M  V30 3 O -3.5809 2.6657 0.786 0
M  V30 4 O -4.4129 0.7193 2.2971 0 CHG=-1
M  V30 5 C -2.7792 0.2174 0.0689 0
M  V30 6 C -1.4313 0.5216 0.3069 0
M  V30 7 C -3.1117 -0.9103 -0.6921 0
M  V30 8 C -0.4117 -0.2917 -0.2195 0
M  V30 9 C -2.1049 -1.7183 -1.2245 0
M  V30 10 N 0.9749 0.021 0.0133 0
M  V30 11 C -0.7619 -1.4099 -0.9943 0
M  V30 12 N 1.9432 -0.1632 -0.8722 0
M  V30 13 C 1.5322 0.5124 1.1409 0
M  V30 14 C 3.1109 0.2282 -0.3229 0
M  V30 15 O 0.9024 0.7601 2.2035 0
M  V30 16 C 2.8936 0.6586 0.9752 0
M  V30 17 C 4.4389 0.1076 -0.9943 0
M  V30 18 H -1.1793 1.402 0.8831 0
M  V30 19 H -4.1481 -1.1645 -0.874 0
M  V30 20 H -2.366 -2.5879 -1.8136 0
M  V30 21 H 0.0036 -2.0562 -1.4035 0
M  V30 22 H 1.8135 -0.5393 -1.8383 0
M  V30 23 H 3.6223 1.004 1.6971 0
M  V30 24 H 4.3218 0.2345 -2.0909 0
M  V30 25 H 5.1309 0.889 -0.6153 0
M  V30 26 H 4.8683 -0.8941 -0.786 0
M  V30 END ATOM
M  V30 BEGIN BOND
M  V30 1 2 1 2
M  V30 2 2 1 3
M  V30 3 1 1 4
M  V30 4 1 1 5
M  V30 5 2 5 6
M  V30 6 1 5 7
M  V30 7 1 6 8
M  V30 8 2 7 9
M  V30 9 1 8 10
M  V30 10 2 8 11
M  V30 11 1 10 12
M  V30 12 1 10 13
M  V30 13 1 12 14
M  V30 14 2 13 15
M  V30 15 1 13 16
M  V30 16 1 14 17
M  V30 17 1 9 11
M  V30 18 2 14 16
M  V30 19 1 6 18
M  V30 20 1 7 19
M  V30 21 1 9 20
M  V30 22 1 11 21
M  V30 23 1 12 22
M  V30 24 1 16 23
M  V30 25 1 17 24
M  V30 26 1 17 25
M  V30 27 1 17 26
M  V30 END BOND
M  V30 END CTAB
M  END
>  <Structure No>
1953

>  <LogS>
-1.771821543

>  <MMFF94 Energy>
76.72

$$$$
Compound 1954
Actelion Java MolfileCreator 2.0

  0  0  0  0  0  0              0 V3000
M  V30 BEGIN CTAB
M  V30 COUNTS 21 20 0 0 0
M  V30 BEGIN ATOM
M  V30 1 O 2.942 -1.5476 0.464 0
M  V30 2 C 2.5628 -0.3667 0.2353 0
M  V30 3 O 1.3244 -0.1169 -0.3617 0
M  V30 4 C 3.4212 0.7786 0.6523 0
M  V30 5 C 0.4388 -1.1588 -0.7582 0
M  V30 6 C -0.8113 -0.5668 -1.3482 0
M  V30 7 C -1.7224 0.1272 -0.6306 0
M  V30 8 C -2.9501 0.6806 -1.3064 0
M  V30 9 C -1.5624 0.353 0.8525 0
M  V30 10 H 3.1719 1.6778 0.0509 0
M  V30 11 H 3.2471 0.999 1.726 0
M  V30 12 H 4.4921 0.5292 0.4973 0
M  V30 13 H 0.1841 -1.8026 0.1112 0
M  V30 14 H 0.9371 -1.7891 -1.5259 0
M  V30 15 H -0.9736 -0.7205 -2.4118 0
M  V30 16 H -3.856 0.2101 -0.8698 0
M  V30 17 H -2.9491 0.4914 -2.4014 0
M  V30 18 H -2.9998 1.7778 -1.1435 0
M  V30 19 H -2.4227 0.9258 1.2596 0
M  V30 20 H -1.5156 -0.62 1.3847 0
M  V30 21 H -0.638 0.9331 1.0543 0
M  V30 END ATOM
M  V30 BEGIN BOND
M  V30 1 2 1 2
M  V30 2 1 2 3
M  V30 3 1 2 4
M  V30 4 1 3 5
M  V30 5 1 5 6
M  V30 6 2 6 7
M  V30 7 1 7 8
M  V30 8 1 7 9
M  V30 9 1 4 10
M  V30 10 1 4 11
M  V30 11 1 4 12
M  V30 12 1 5 13
M  V30 13 1 5 14
M  V30 14 1 6 15
M  V30 15 1 8 16
M  V30 16 1 8 17
M  V30 17 1 8 18
M  V30 18 1 9 19
M  V30 19 1 9 20
M  V30 20 1 9 21
M  V30 END BOND
M  V30 END CTAB
M  END
>  <Structure No>
1954

>  <LogS>
-1.474321317

>  <MMFF94 Energy>
-5.8348

$$$$
Compound 1955
Actelion Java MolfileCreator 2.0

  0  0  0  0  0  0              0 V3000
M  V30 BEGIN CTAB
M  V30 COUNTS 33 32 0 0 0
M  V30 BEGIN ATOM
M  V30 1 O -2.4836 2.0176 0.7756 0
M  V30 2 C -2.5674 0.8104 0.4142 0
M  V30 3 N -3.8691 0.2297 0.1798 0
M  V30 4 C -1.3045 0.0077 0.1965 0
M  V30 5 C -4.0002 -1.1492 -0.3041 0
M  V30 6 C -5.0669 1.0414 0.4194 0
M  V30 7 C -0.0402 0.7347 0.6882 0
M  V30 8 C 1.2226 -0.1369 0.5899 0
M  V30 9 C 1.7293 -0.281 -0.8553 0
M  V30 10 C 2.9418 -1.2226 -0.9731 0
M  V30 11 C 4.2088 -0.7462 -0.2402 0
M  V30 12 C 4.7383 0.5877 -0.7646 0
M  V30 13 H -1.3949 -0.9562 0.7405 0
M  V30 14 H -1.2172 -0.2039 -0.8887 0
M  V30 15 H -5.0606 -1.4222 -0.4867 0
M  V30 16 H -3.4498 -1.2676 -1.2609 0
M  V30 17 H -3.5916 -1.8539 0.4496 0
M  V30 18 H -5.0902 1.3698 1.48 0
M  V30 19 H -5.999 0.4745 0.2136 0
M  V30 20 H -5.0515 1.9351 -0.2396 0
M  V30 21 H -0.1827 1.0091 1.757 0
M  V30 22 H 0.1068 1.6754 0.1132 0
M  V30 23 H 1.0264 -1.1393 1.0293 0
M  V30 24 H 2.0101 0.3524 1.2008 0
M  V30 25 H 0.9227 -0.7089 -1.4861 0
M  V30 26 H 1.9746 0.7173 -1.2749 0
M  V30 27 H 2.66 -2.2236 -0.5798 0
M  V30 28 H 3.1818 -1.3554 -2.0507 0
M  V30 29 H 4.9991 -1.514 -0.3866 0
M  V30 30 H 4.0279 -0.6753 0.8526 0
M  V30 31 H 5.7328 0.7923 -0.3151 0
M  V30 32 H 4.0574 1.4174 -0.4822 0
M  V30 33 H 4.8491 0.5558 -1.8693 0
M  V30 END ATOM
M  V30 BEGIN BOND
M  V30 1 2 1 2
M  V30 2 1 2 3
M  V30 3 1 2 4
M  V30 4 1 3 5
M  V30 5 1 3 6
M  V30 6 1 4 7
M  V30 7 1 7 8
M  V30 8 1 8 9
M  V30 9 1 9 10
M  V30 10 1 10 11
M  V30 11 1 11 12
M  V30 12 1 4 13
M  V30 13 1 4 14
M  V30 14 1 5 15
M  V30 15 1 5 16
M  V30 16 1 5 17
M  V30 17 1 6 18
M  V30 18 1 6 19
M  V30 19 1 6 20
M  V30 20 1 7 21
M  V30 21 1 7 22
M  V30 22 1 8 23
M  V30 23 1 8 24
M  V30 24 1 9 25
M  V30 25 1 9 26
M  V30 26 1 10 27
M  V30 27 1 10 28
M  V30 28 1 11 29
M  V30 29 1 11 30
M  V30 30 1 12 31
M  V30 31 1 12 32
M  V30 32 1 12 33
M  V30 END BOND
M  V30 END CTAB
M  END
>  <Structure No>
1955

>  <LogS>
-1.600248341

>  <MMFF94 Energy>
-14.424

$$$$
Compound 1956
Actelion Java MolfileCreator 2.0

  0  0  0  0  0  0              0 V3000
M  V30 BEGIN CTAB
M  V30 COUNTS 22 21 0 0 0
M  V30 BEGIN ATOM
M  V30 1 O 2.8565 -0.3856 -1.9294 0
M  V30 2 C 2.6652 -0.1955 -0.7374 0
M  V30 3 C 1.3828 -0.66 -0.1031 0
M  V30 4 C 3.7202 0.478 0.0868 0
M  V30 5 C 0.1882 0.1308 -0.6471 0
M  V30 6 C -1.1199 -0.3268 0.0086 0
M  V30 7 C -2.3146 0.4636 -0.5371 0
M  V30 8 C -3.6187 0.0112 0.1136 0
M  V30 9 H 1.2486 -1.7433 -0.3137 0
M  V30 10 H 1.4398 -0.5288 1.0 0
M  V30 11 H 3.2942 1.3824 0.5697 0
M  V30 12 H 4.5799 0.7821 -0.5474 0
M  V30 13 H 4.0817 -0.2194 0.8711 0
M  V30 14 H 0.343 1.214 -0.4442 0
M  V30 15 H 0.118 -0.0162 -1.7477 0
M  V30 16 H -1.0521 -0.1773 1.109 0
M  V30 17 H -1.2727 -1.4102 -0.1925 0
M  V30 18 H -2.3915 0.3159 -1.6364 0
M  V30 19 H -2.1703 1.5478 -0.3365 0
M  V30 20 H -3.578 0.1722 1.2122 0
M  V30 21 H -3.8001 -1.0649 -0.0932 0
M  V30 22 H -4.4644 0.5998 -0.3002 0
M  V30 END ATOM
M  V30 BEGIN BOND
M  V30 1 2 1 2
M  V30 2 1 2 3
M  V30 3 1 2 4
M  V30 4 1 3 5
M  V30 5 1 5 6
M  V30 6 1 6 7
M  V30 7 1 7 8
M  V30 8 1 3 9
M  V30 9 1 3 10
M  V30 10 1 4 11
M  V30 11 1 4 12
M  V30 12 1 4 13
M  V30 13 1 5 14
M  V30 14 1 5 15
M  V30 15 1 6 16
M  V30 16 1 6 17
M  V30 17 1 7 18
M  V30 18 1 7 19
M  V30 19 1 8 20
M  V30 20 1 8 21
M  V30 21 1 8 22
M  V30 END BOND
M  V30 END CTAB
M  END
>  <Structure No>
1956

>  <LogS>
-1.433338371

>  <MMFF94 Energy>
-0.20377

$$$$
Compound 1957
Actelion Java MolfileCreator 2.0

  0  0  0  0  0  0              0 V3000
M  V30 BEGIN CTAB
M  V30 COUNTS 19 18 0 0 0
M  V30 BEGIN ATOM
M  V30 1 O -1.4643 -1.7729 1.6957 0
M  V30 2 C -1.6716 -0.7374 1.0828 0
M  V30 3 C -1.1713 -0.5781 -0.3303 0 CFG=2
M  V30 4 C 0.3715 -0.641 -0.402 0
M  V30 5 C -1.7317 0.6998 -0.9691 0
M  V30 6 C 1.0809 0.4742 0.3867 0
M  V30 7 C 2.5956 0.2925 0.3496 0
M  V30 8 H -2.2284 0.0598 1.5662 0
M  V30 9 H -1.5653 -1.4351 -0.9206 0
M  V30 10 H 0.6849 -0.5879 -1.468 0
M  V30 11 H 0.7038 -1.6297 -0.0148 0
M  V30 12 H -2.8384 0.6312 -1.0395 0
M  V30 13 H -1.3274 0.8268 -1.9958 0
M  V30 14 H -1.4773 1.5966 -0.3655 0
M  V30 15 H 0.8379 1.465 -0.0519 0
M  V30 16 H 0.7493 0.4654 1.4471 0
M  V30 17 H 2.9618 0.3188 -0.6988 0
M  V30 18 H 2.8799 -0.6757 0.8139 0
M  V30 19 H 3.0827 1.1139 0.9165 0
M  V30 END ATOM
M  V30 BEGIN BOND
M  V30 1 2 1 2
M  V30 2 1 2 3
M  V30 3 1 3 4
M  V30 4 1 3 5
M  V30 5 1 4 6
M  V30 6 1 6 7
M  V30 7 1 2 8
M  V30 8 1 3 9
M  V30 9 1 4 10
M  V30 10 1 4 11
M  V30 11 1 5 12
M  V30 12 1 5 13
M  V30 13 1 5 14
M  V30 14 1 6 15
M  V30 15 1 6 16
M  V30 16 1 7 17
M  V30 17 1 7 18
M  V30 18 1 7 19
M  V30 END BOND
M  V30 BEGIN COLLECTION
M  V30 MDLV30/STEABS ATOMS=(1 3)
M  V30 END COLLECTION
M  V30 END CTAB
M  END
>  <Structure No>
1957

>  <LogS>
-1.377449362

>  <MMFF94 Energy>
3.2501

$$$$
Compound 1958
Actelion Java MolfileCreator 2.0

  0  0  0  0  0  0              0 V3000
M  V30 BEGIN CTAB
M  V30 COUNTS 21 22 0 0 0
M  V30 BEGIN ATOM
M  V30 1 O 3.0946 -1.5464 0.0 0
M  V30 2 C 2.3887 -0.5043 0.0106 0
M  V30 3 O 2.9087 0.7801 -0.0903 0
M  V30 4 C 0.928 -0.4561 0.2943 0 CFG=1
M  V30 5 C 1.8255 1.6496 -0.1293 0
M  V30 6 C 0.555 0.8943 -0.3074 0 CFG=2
M  V30 7 C -0.0269 -1.5148 -0.245 0
M  V30 8 O 1.9366 2.9032 -0.1503 0
M  V30 9 C -0.7514 1.3676 0.3194 0
M  V30 10 C -1.4543 -1.1395 0.2334 0
M  V30 11 C -1.8486 0.3388 -0.0613 0
M  V30 12 H 0.8364 -0.43 1.406 0
M  V30 13 H 0.4074 0.8064 -1.4098 0
M  V30 14 H 0.2508 -2.5132 0.1554 0
M  V30 15 H 0.0104 -1.5557 -1.3557 0
M  V30 16 H -1.0222 2.3679 -0.0812 0
M  V30 17 H -0.6583 1.4424 1.4251 0
M  V30 18 H -1.521 -1.3104 1.3304 0
M  V30 19 H -2.1898 -1.8167 -0.2509 0
M  V30 20 H -2.7829 0.5838 0.4877 0
M  V30 21 H -2.0689 0.4355 -1.1471 0
M  V30 END ATOM
M  V30 BEGIN BOND
M  V30 1 2 1 2
M  V30 2 1 2 3
M  V30 3 1 2 4
M  V30 4 1 3 5
M  V30 5 1 4 6
M  V30 6 1 4 7
M  V30 7 2 5 8
M  V30 8 1 6 9
M  V30 9 1 7 10
M  V30 10 1 9 11
M  V30 11 1 5 6
M  V30 12 1 10 11
M  V30 13 1 4 12
M  V30 14 1 6 13
M  V30 15 1 7 14
M  V30 16 1 7 15
M  V30 17 1 9 16
M  V30 18 1 9 17
M  V30 19 1 10 18
M  V30 20 1 10 19
M  V30 21 1 11 20
M  V30 22 1 11 21
M  V30 END BOND
M  V30 BEGIN COLLECTION
M  V30 MDLV30/STEABS ATOMS=(2 4 6)
M  V30 END COLLECTION
M  V30 END CTAB
M  END
>  <Structure No>
1958

>  <LogS>
-1.564736497

>  <MMFF94 Energy>
-22.232

$$$$
Compound 1959
Actelion Java MolfileCreator 2.0

  0  0  0  0  0  0              0 V3000
M  V30 BEGIN CTAB
M  V30 COUNTS 37 36 0 0 0
M  V30 BEGIN ATOM
M  V30 1 O -0.3879 0.8537 -1.5526 0
M  V30 2 C -1.5966 1.3706 -2.0726 0
M  V30 3 C -0.5032 -0.5362 -1.3107 0
M  V30 4 C -2.433 1.9363 -0.96 0
M  V30 5 C 0.7455 -1.0585 -0.5459 0
M  V30 6 C -3.48 1.2753 -0.4594 0
M  V30 7 C 0.893 -0.2789 0.7905 0
M  V30 8 C 0.5429 -2.567 -0.2355 0
M  V30 9 C 2.0035 -0.8315 -1.4471 0
M  V30 10 O -0.3007 -0.3654 1.5466 0
M  V30 11 O 0.513 -3.321 -1.4177 0
M  V30 12 C 3.3239 -1.3701 -0.8844 0
M  V30 13 C -0.2523 0.5087 2.6568 0
M  V30 14 C -0.9291 1.8063 2.317 0
M  V30 15 C -0.234 2.9011 1.9979 0
M  V30 16 H -2.1708 0.6357 -2.6868 0
M  V30 17 H -1.3425 2.2049 -2.759 0
M  V30 18 H -1.4179 -0.7596 -0.7141 0
M  V30 19 H -0.5924 -1.0757 -2.2813 0
M  V30 20 H -2.1441 2.8845 -0.517 0
M  V30 21 H -3.7798 0.3122 -0.861 0
M  V30 22 H -4.0455 1.6994 0.3638 0
M  V30 23 H 1.1434 0.7828 0.5622 0
M  V30 24 H 1.7276 -0.7113 1.3851 0
M  V30 25 H 1.3577 -2.9405 0.4236 0
M  V30 26 H -0.4132 -2.7151 0.3159 0
M  V30 27 H 2.1361 0.2567 -1.6333 0
M  V30 28 H 1.8414 -1.3042 -2.4406 0
M  V30 29 H 0.3889 -4.2656 -1.1402 0
M  V30 30 H 3.5786 -0.8858 0.0796 0
M  V30 31 H 4.1414 -1.1432 -1.6007 0
M  V30 32 H 3.2861 -2.4709 -0.757 0
M  V30 33 H -0.823 0.0391 3.4847 0
M  V30 34 H 0.7783 0.6742 3.0534 0
M  V30 35 H -2.0138 1.8378 2.2797 0
M  V30 36 H 0.8514 2.897 2.0003 0
M  V30 37 H -0.7547 3.8144 1.7295 0
M  V30 END ATOM
M  V30 BEGIN BOND
M  V30 1 1 1 2
M  V30 2 1 1 3
M  V30 3 1 2 4
M  V30 4 1 3 5
M  V30 5 2 4 6
M  V30 6 1 5 7
M  V30 7 1 5 8
M  V30 8 1 5 9
M  V30 9 1 7 10
M  V30 10 1 8 11
M  V30 11 1 9 12
M  V30 12 1 10 13
M  V30 13 1 13 14
M  V30 14 2 14 15
M  V30 15 1 2 16
M  V30 16 1 2 17
M  V30 17 1 3 18
M  V30 18 1 3 19
M  V30 19 1 4 20
M  V30 20 1 6 21
M  V30 21 1 6 22
M  V30 22 1 7 23
M  V30 23 1 7 24
M  V30 24 1 8 25
M  V30 25 1 8 26
M  V30 26 1 9 27
M  V30 27 1 9 28
M  V30 28 1 11 29
M  V30 29 1 12 30
M  V30 30 1 12 31
M  V30 31 1 12 32
M  V30 32 1 13 33
M  V30 33 1 13 34
M  V30 34 1 14 35
M  V30 35 1 15 36
M  V30 36 1 15 37
M  V30 END BOND
M  V30 END CTAB
M  END
>  <Structure No>
1959

>  <LogS>
-1.718248447

>  <MMFF94 Energy>
27.704

$$$$
Compound 1960
Actelion Java MolfileCreator 2.0

  0  0  0  0  0  0              0 V3000
M  V30 BEGIN CTAB
M  V30 COUNTS 29 28 0 0 0
M  V30 BEGIN ATOM
M  V30 1 N 0.1529 0.3823 -0.3823 0 CHG=1
M  V30 2 C -1.2946 0.1573 -0.5518 0
M  V30 3 C 0.9011 -0.8765 -0.2046 0
M  V30 4 C -1.9848 -0.2359 0.7693 0
M  V30 5 C 2.4184 -0.6704 -0.3544 0
M  V30 6 C -3.4988 -0.4424 0.6041 0
M  V30 7 C 3.0108 0.1859 0.7737 0
M  V30 8 C -4.2611 0.8705 0.4256 0
M  V30 9 C 4.532 0.2518 0.6724 0
M  V30 10 H 0.3111 1.0131 0.4375 0
M  V30 11 H 0.5009 0.8685 -1.2418 0
M  V30 12 H -1.4812 -0.6205 -1.3257 0
M  V30 13 H -1.7498 1.0997 -0.9257 0
M  V30 14 H 0.5867 -1.6204 -0.9705 0
M  V30 15 H 0.6968 -1.3114 0.7978 0
M  V30 16 H -1.5577 -1.1932 1.1339 0
M  V30 17 H -1.7926 0.5369 1.5454 0
M  V30 18 H 2.9034 -1.6712 -0.3409 0
M  V30 19 H 2.6385 -0.2027 -1.3388 0
M  V30 20 H -3.8857 -0.9445 1.5174 0
M  V30 21 H -3.7027 -1.113 -0.2585 0
M  V30 22 H 2.7354 -0.246 1.7604 0
M  V30 23 H 2.6112 1.2206 0.7156 0
M  V30 24 H -4.0108 1.3446 -0.5453 0
M  V30 25 H -4.0258 1.5731 1.2531 0
M  V30 26 H -5.3526 0.6667 0.4369 0
M  V30 27 H 4.8348 0.6957 -0.2997 0
M  V30 28 H 4.9322 0.885 1.4921 0
M  V30 29 H 4.9698 -0.7649 0.7641 0
M  V30 END ATOM
M  V30 BEGIN BOND
M  V30 1 1 1 2
M  V30 2 1 1 3
M  V30 3 1 2 4
M  V30 4 1 3 5
M  V30 5 1 4 6
M  V30 6 1 5 7
M  V30 7 1 6 8
M  V30 8 1 7 9
M  V30 9 1 1 10
M  V30 10 1 1 11
M  V30 11 1 2 12
M  V30 12 1 2 13
M  V30 13 1 3 14
M  V30 14 1 3 15
M  V30 15 1 4 16
M  V30 16 1 4 17
M  V30 17 1 5 18
M  V30 18 1 5 19
M  V30 19 1 6 20
M  V30 20 1 6 21
M  V30 21 1 7 22
M  V30 22 1 7 23
M  V30 23 1 8 24
M  V30 24 1 8 25
M  V30 25 1 8 26
M  V30 26 1 9 27
M  V30 27 1 9 28
M  V30 28 1 9 29
M  V30 END BOND
M  V30 END CTAB
M  END
>  <Structure No>
1960

>  <LogS>
-1.503965448

>  <MMFF94 Energy>
-2.0454

$$$$
Compound 1961
Actelion Java MolfileCreator 2.0

  0  0  0  0  0  0              0 V3000
M  V30 BEGIN CTAB
M  V30 COUNTS 45 44 0 0 0
M  V30 BEGIN ATOM
M  V30 1 O -4.712 0.2351 0.941 0
M  V30 2 C -5.222 0.1717 -0.2124 0
M  V30 3 O -4.4061 0.1021 -1.3484 0
M  V30 4 C -6.6823 0.1555 -0.3853 0
M  V30 5 C -2.9797 0.1727 -1.2984 0 CFG=2
M  V30 6 C -7.53 0.2617 0.6377 0
M  V30 7 C -2.5334 1.6254 -1.0399 0
M  V30 8 C -2.415 -0.3467 -2.6218 0
M  V30 9 O -1.1215 1.721 -0.968 0
M  V30 10 C -0.6492 1.5177 0.3546 0 CFG=1
M  V30 11 C 0.6898 0.7763 0.2768 0
M  V30 12 C -0.4716 2.8755 1.0507 0
M  V30 13 O 1.1187 0.4234 1.5807 0
M  V30 14 C 2.5322 0.373 1.6637 0
M  V30 15 C 3.1271 -0.8514 0.9435 0 CFG=1
M  V30 16 O 4.5437 -0.8411 1.1292 0
M  V30 17 C 2.5406 -2.1569 1.493 0
M  V30 18 C 5.4381 -1.5459 0.3152 0
M  V30 19 O 5.0192 -2.2045 -0.6757 0
M  V30 20 C 6.8753 -1.4939 0.6283 0
M  V30 21 C 7.7963 -2.089 -0.1279 0
M  V30 22 H -7.0817 0.0567 -1.3866 0
M  V30 23 H -2.6087 -0.4899 -0.4858 0
M  V30 24 H -8.597 0.2454 0.4605 0
M  V30 25 H -7.1797 0.3724 1.6537 0
M  V30 26 H -3.0349 2.0365 -0.1327 0
M  V30 27 H -2.8774 2.2585 -1.8846 0
M  V30 28 H -2.7699 -1.3843 -2.7946 0
M  V30 29 H -2.7524 0.2908 -3.467 0
M  V30 30 H -1.3053 -0.357 -2.5937 0
M  V30 31 H -1.3399 0.8889 0.9699 0
M  V30 32 H 0.5358 -0.1561 -0.3089 0
M  V30 33 H 1.4176 1.4141 -0.2774 0
M  V30 34 H 0.2438 3.5111 0.4861 0
M  V30 35 H -1.4454 3.4049 1.1097 0
M  V30 36 H -0.0941 2.7376 2.0863 0
M  V30 37 H 2.8047 0.3151 2.7394 0
M  V30 38 H 2.9986 1.3107 1.2859 0
M  V30 39 H 2.8974 -0.7724 -0.143 0
M  V30 40 H 2.9823 -3.0282 0.9655 0
M  V30 41 H 2.761 -2.2508 2.5795 0
M  V30 42 H 1.4396 -2.1822 1.341 0
M  V30 43 H 7.1944 -0.9428 1.5049 0
M  V30 44 H 7.5258 -2.6468 -1.0166 0
M  V30 45 H 8.8422 -2.0159 0.141 0
M  V30 END ATOM
M  V30 BEGIN BOND
M  V30 1 2 1 2
M  V30 2 1 2 3
M  V30 3 1 2 4
M  V30 4 1 3 5
M  V30 5 2 4 6
M  V30 6 1 5 7
M  V30 7 1 5 8
M  V30 8 1 7 9
M  V30 9 1 9 10
M  V30 10 1 10 11
M  V30 11 1 10 12
M  V30 12 1 11 13
M  V30 13 1 13 14
M  V30 14 1 14 15
M  V30 15 1 15 16
M  V30 16 1 15 17
M  V30 17 1 16 18
M  V30 18 2 18 19
M  V30 19 1 18 20
M  V30 20 2 20 21
M  V30 21 1 4 22
M  V30 22 1 5 23
M  V30 23 1 6 24
M  V30 24 1 6 25
M  V30 25 1 7 26
M  V30 26 1 7 27
M  V30 27 1 8 28
M  V30 28 1 8 29
M  V30 29 1 8 30
M  V30 30 1 10 31
M  V30 31 1 11 32
M  V30 32 1 11 33
M  V30 33 1 12 34
M  V30 34 1 12 35
M  V30 35 1 12 36
M  V30 36 1 14 37
M  V30 37 1 14 38
M  V30 38 1 15 39
M  V30 39 1 17 40
M  V30 40 1 17 41
M  V30 41 1 17 42
M  V30 42 1 20 43
M  V30 43 1 21 44
M  V30 44 1 21 45
M  V30 END BOND
M  V30 BEGIN COLLECTION
M  V30 MDLV30/STEABS ATOMS=(3 5 10 15)
M  V30 END COLLECTION
M  V30 END CTAB
M  END
>  <Structure No>
1961

>  <LogS>
-1.875569091

>  <MMFF94 Energy>
58.429

$$$$
Compound 1962
Actelion Java MolfileCreator 2.0

  0  0  0  0  0  0              0 V3000
M  V30 BEGIN CTAB
M  V30 COUNTS 10 10 0 0 0
M  V30 BEGIN ATOM
M  V30 1 O 0.7024 0.8585 0.9366 0
M  V30 2 C 0.134 0.5053 -0.3015 0 CFG=1
M  V30 3 C 1.2834 -0.2357 0.2628 0
M  V30 4 C -1.2397 -0.1352 -0.1333 0
M  V30 5 H 0.3314 1.2601 -1.0912 0
M  V30 6 H 2.2817 0.0278 -0.1434 0
M  V30 7 H 1.0769 -1.1902 0.7916 0
M  V30 8 H -1.3149 -0.7192 0.8097 0
M  V30 9 H -1.4361 -0.8098 -0.9922 0
M  V30 10 H -2.0135 0.6603 -0.1193 0
M  V30 END ATOM
M  V30 BEGIN BOND
M  V30 1 1 1 2
M  V30 2 1 1 3
M  V30 3 1 2 4
M  V30 4 1 2 3
M  V30 5 1 2 5
M  V30 6 1 3 6
M  V30 7 1 3 7
M  V30 8 1 4 8
M  V30 9 1 4 9
M  V30 10 1 4 10
M  V30 END BOND
M  V30 BEGIN COLLECTION
M  V30 MDLV30/STEABS ATOMS=(1 2)
M  V30 END COLLECTION
M  V30 END CTAB
M  END
>  <Structure No>
1962

>  <LogS>
0.838033384

>  <MMFF94 Energy>
7.5401

$$$$
Compound 1963
Actelion Java MolfileCreator 2.0

  0  0  0  0  0  0              0 V3000
M  V30 BEGIN CTAB
M  V30 COUNTS 36 35 0 0 0
M  V30 BEGIN ATOM
M  V30 1 O -1.2326 2.9294 -1.6951 0
M  V30 2 C 0.1546 2.8292 -1.5267 0
M  V30 3 C 0.5118 1.9761 -0.2963 0
M  V30 4 N 0.0307 0.5678 -0.4165 0 CHG=1
M  V30 5 C 1.0164 -0.3728 0.1836 0
M  V30 6 C -1.2952 0.4143 0.2442 0
M  V30 7 C 2.1778 -0.6863 -0.7839 0
M  V30 8 C -2.1124 -0.7514 -0.3538 0
M  V30 9 C 3.1742 -1.7009 -0.2018 0
M  V30 10 C -3.5151 -0.8671 0.2633 0
M  V30 11 C 4.039 -1.1076 0.9101 0
M  V30 12 C -3.4872 -1.3907 1.6991 0
M  V30 13 H -1.5534 3.5805 -1.0177 0
M  V30 14 H 0.5952 2.3709 -2.4374 0
M  V30 15 H 0.6014 3.8438 -1.4188 0
M  V30 16 H 0.1161 2.4654 0.6232 0
M  V30 17 H 1.6183 2.0234 -0.1964 0
M  V30 18 H -0.0762 0.3293 -1.4316 0
M  V30 19 H 0.5353 -1.3414 0.4397 0
M  V30 20 H 1.4086 0.0417 1.1387 0
M  V30 21 H -1.9067 1.3345 0.1218 0
M  V30 22 H -1.164 0.2707 1.3399 0
M  V30 23 H 2.718 0.2401 -1.0705 0
M  V30 24 H 1.7542 -1.1224 -1.7147 0
M  V30 25 H -2.2361 -0.5744 -1.4444 0
M  V30 26 H -1.5772 -1.7162 -0.234 0
M  V30 27 H 3.8463 -2.0407 -1.0194 0
M  V30 28 H 2.6346 -2.5941 0.1811 0
M  V30 29 H -4.1114 -1.575 -0.3522 0
M  V30 30 H -4.0308 0.1172 0.2349 0
M  V30 31 H 4.8158 -1.844 1.205 0
M  V30 32 H 3.4266 -0.8764 1.8059 0
M  V30 33 H 4.5448 -0.1833 0.5587 0
M  V30 34 H -3.0196 -0.6503 2.3801 0
M  V30 35 H -2.9283 -2.349 1.7532 0
M  V30 36 H -4.5268 -1.5689 2.0462 0
M  V30 END ATOM
M  V30 BEGIN BOND
M  V30 1 1 1 2
M  V30 2 1 2 3
M  V30 3 1 3 4
M  V30 4 1 4 5
M  V30 5 1 4 6
M  V30 6 1 5 7
M  V30 7 1 6 8
M  V30 8 1 7 9
M  V30 9 1 8 10
M  V30 10 1 9 11
M  V30 11 1 10 12
M  V30 12 1 1 13
M  V30 13 1 2 14
M  V30 14 1 2 15
M  V30 15 1 3 16
M  V30 16 1 3 17
M  V30 17 1 4 18
M  V30 18 1 5 19
M  V30 19 1 5 20
M  V30 20 1 6 21
M  V30 21 1 6 22
M  V30 22 1 7 23
M  V30 23 1 7 24
M  V30 24 1 8 25
M  V30 25 1 8 26
M  V30 26 1 9 27
M  V30 27 1 9 28
M  V30 28 1 10 29
M  V30 29 1 10 30
M  V30 30 1 11 31
M  V30 31 1 11 32
M  V30 32 1 11 33
M  V30 33 1 12 34
M  V30 34 1 12 35
M  V30 35 1 12 36
M  V30 END BOND
M  V30 END CTAB
M  END
>  <Structure No>
1963

>  <LogS>
-1.636738571

>  <MMFF94 Energy>
24.932

$$$$
Compound 1964
Actelion Java MolfileCreator 2.0

  0  0  0  0  0  0              0 V3000
M  V30 BEGIN CTAB
M  V30 COUNTS 25 24 0 0 0
M  V30 BEGIN ATOM
M  V30 1 S -3.3066 1.4403 0.9318 0
M  V30 2 O -4.3112 0.3399 0.7352 0
M  V30 3 O -3.2869 2.3239 -0.2833 0
M  V30 4 O -3.7515 2.3581 2.2663 0 CHG=-1
M  V30 5 C -1.6777 0.7547 1.2171 0
M  V30 6 C -1.3671 -0.4507 0.3147 0
M  V30 7 C -1.1866 -0.0915 -1.1664 0
M  V30 8 S 0.2623 0.991 -1.4565 0
M  V30 9 C 1.4784 -0.3347 -1.3873 0
M  V30 10 S 1.7688 -1.1791 -2.7642 0
M  V30 11 N 2.242 -0.5825 -0.1867 0
M  V30 12 C 2.356 0.465 0.8328 0
M  V30 13 C 2.9156 -1.871 0.0096 0
M  V30 14 H -1.631 0.42 2.2751 0
M  V30 15 H -0.9193 1.5539 1.0875 0
M  V30 16 H -0.4439 -0.9461 0.6817 0
M  V30 17 H -2.1836 -1.1985 0.4071 0
M  V30 18 H -2.093 0.4192 -1.5483 0
M  V30 19 H -1.08 -1.0261 -1.757 0
M  V30 20 H 3.0735 0.1839 1.6319 0
M  V30 21 H 1.3691 0.6458 1.3035 0
M  V30 22 H 2.7186 1.4049 0.3658 0
M  V30 23 H 3.7265 -1.9908 -0.7391 0
M  V30 24 H 3.3627 -1.9509 1.0227 0
M  V30 25 H 2.1822 -2.6973 -0.1046 0
M  V30 END ATOM
M  V30 BEGIN BOND
M  V30 1 2 1 2
M  V30 2 2 1 3
M  V30 3 1 1 4
M  V30 4 1 1 5
M  V30 5 1 5 6
M  V30 6 1 6 7
M  V30 7 1 7 8
M  V30 8 1 8 9
M  V30 9 2 9 10
M  V30 10 1 9 11
M  V30 11 1 11 12
M  V30 12 1 11 13
M  V30 13 1 5 14
M  V30 14 1 5 15
M  V30 15 1 6 16
M  V30 16 1 6 17
M  V30 17 1 7 18
M  V30 18 1 7 19
M  V30 19 1 12 20
M  V30 20 1 12 21
M  V30 21 1 12 22
M  V30 22 1 13 23
M  V30 23 1 13 24
M  V30 24 1 13 25
M  V30 END BOND
M  V30 END CTAB
M  END
>  <Structure No>
1964

>  <LogS>
0.1779036

>  <MMFF94 Energy>
-22.613

$$$$
Compound 1965
Actelion Java MolfileCreator 2.0

  0  0  0  0  0  0              0 V3000
M  V30 BEGIN CTAB
M  V30 COUNTS 81 84 0 0 0
M  V30 BEGIN ATOM
M  V30 1 S -11.451 1.383 -2.1616 0
M  V30 2 O -12.086 0.0484 -2.4365 0
M  V30 3 O -12.3304 2.4615 -2.7339 0
M  V30 4 O -11.2987 1.6316 -0.4938 0
M  V30 5 O -9.941 1.4575 -2.8958 0 CHG=-1
M  V30 6 C -10.553 0.5664 0.0419 0
M  V30 7 C -10.3458 0.8034 1.5354 0
M  V30 8 S -9.5629 -0.6043 2.3075 0
M  V30 9 O -10.5132 -1.7691 2.301 0
M  V30 10 O -9.2258 -0.2698 3.7339 0
M  V30 11 C -8.0913 -1.0303 1.4405 0
M  V30 12 C -6.9181 -0.2999 1.6535 0
M  V30 13 C -8.1011 -2.0675 0.5029 0
M  V30 14 C -5.7445 -0.6028 0.9435 0
M  V30 15 C -6.948 -2.3738 -0.2207 0
M  V30 16 N -4.5646 0.1805 1.198 0
M  V30 17 C -5.7611 -1.6433 -0.0177 0
M  V30 18 N -3.2942 -0.2448 0.7792 0
M  V30 19 O -4.6017 -1.9211 -0.7586 0
M  V30 20 C -2.2433 0.5169 0.6573 0
M  V30 21 C -4.4889 -2.9367 -1.7507 0
M  V30 22 C -0.9356 -0.1459 0.4929 0
M  V30 23 C -2.2673 2.0069 0.7704 0
M  V30 24 O -0.9045 -1.3758 0.2069 0
M  V30 25 C 0.3112 0.62 0.7745 0
M  V30 26 S -3.6444 2.9847 0.2253 0
M  V30 27 C -1.1371 2.6548 1.0886 0
M  V30 28 C 1.6106 0.0436 0.7182 0
M  V30 29 C 0.1709 1.9659 1.1768 0
M  V30 30 O -4.5009 2.1992 -0.7273 0
M  V30 31 O -3.138 4.2013 -0.4995 0
M  V30 32 O -4.5619 3.4787 1.5434 0 CHG=-1
M  V30 33 N 1.7922 -1.3179 0.3056 0
M  V30 34 C 2.7391 0.8142 1.0952 0
M  V30 35 C 1.2882 2.6919 1.5996 0
M  V30 36 N 4.0794 0.3212 0.9289 0
M  V30 37 C 2.5621 2.1184 1.5884 0
M  V30 38 N 4.4029 -0.4425 -0.0337 0
M  V30 39 S 3.953 3.0771 2.1031 0
M  V30 40 C 5.7349 -0.9377 -0.2155 0
M  V30 41 O 3.5 4.3715 2.7194 0
M  V30 42 O 4.8228 3.3787 0.9153 0
M  V30 43 O 4.8365 2.2172 3.2432 0 CHG=-1
M  V30 44 C 6.0037 -1.7525 -1.3215 0
M  V30 45 C 6.7709 -0.6301 0.684 0
M  V30 46 C 7.2869 -2.2671 -1.5264 0
M  V30 47 C 8.0554 -1.1441 0.4785 0
M  V30 48 C 8.3148 -1.974 -0.6222 0
M  V30 49 S 9.9248 -2.6366 -0.8794 0
M  V30 50 O 10.6314 -2.788 0.4385 0
M  V30 51 O 9.8029 -3.994 -1.5134 0
M  V30 52 C 10.866 -1.5699 -1.9587 0
M  V30 53 C 11.1662 -0.2309 -1.2955 0
M  V30 54 O 11.9549 0.5436 -2.1653 0
M  V30 55 S 12.3831 1.974 -1.3654 0
M  V30 56 O 13.2423 2.8002 -2.2783 0
M  V30 57 O 11.1526 2.7614 -1.0097 0
M  V30 58 O 13.2549 1.6215 0.0287 0 CHG=-1
M  V30 59 H -11.1002 -0.3945 -0.0925 0
M  V30 60 H -9.5547 0.5047 -0.4469 0
M  V30 61 H -11.3277 0.9802 2.0265 0
M  V30 62 H -9.707 1.7002 1.686 0
M  V30 63 H -6.9167 0.5107 2.3739 0
M  V30 64 H -9.0076 -2.6305 0.3191 0
M  V30 65 H -6.9936 -3.177 -0.9454 0
M  V30 66 H -4.6335 0.9785 1.8694 0
M  V30 67 H -3.4625 -2.9187 -2.1702 0
M  V30 68 H -5.2129 -2.7477 -2.5698 0
M  V30 69 H -4.6732 -3.9341 -1.2999 0
M  V30 70 H -1.153 3.7349 1.1796 0
M  V30 71 H 2.4908 -1.9299 0.7844 0
M  V30 72 H 1.3459 -1.6773 -0.5648 0
M  V30 73 H 1.1665 3.7201 1.9166 0
M  V30 74 H 5.2139 -1.9892 -2.0234 0
M  V30 75 H 6.5888 0.0013 1.5429 0
M  V30 76 H 7.4779 -2.8935 -2.3897 0
M  V30 77 H 8.8425 -0.8953 1.1793 0
M  V30 78 H 10.2851 -1.4005 -2.8896 0
M  V30 79 H 11.8208 -2.0761 -2.2169 0
M  V30 80 H 10.2051 0.2886 -1.0842 0
M  V30 81 H 11.7071 -0.4255 -0.3438 0
M  V30 END ATOM
M  V30 BEGIN BOND
M  V30 1 2 1 2
M  V30 2 2 1 3
M  V30 3 1 1 4
M  V30 4 1 1 5
M  V30 5 1 4 6
M  V30 6 1 6 7
M  V30 7 1 7 8
M  V30 8 2 8 9
M  V30 9 2 8 10
M  V30 10 1 8 11
M  V30 11 2 11 12
M  V30 12 1 11 13
M  V30 13 1 12 14
M  V30 14 2 13 15
M  V30 15 1 14 16
M  V30 16 2 14 17
M  V30 17 1 16 18
M  V30 18 1 17 19
M  V30 19 2 18 20
M  V30 20 1 19 21
M  V30 21 1 20 22
M  V30 22 1 20 23
M  V30 23 2 22 24
M  V30 24 1 22 25
M  V30 25 1 23 26
M  V30 26 2 23 27
M  V30 27 2 25 28
M  V30 28 1 25 29
M  V30 29 2 26 30
M  V30 30 2 26 31
M  V30 31 1 26 32
M  V30 32 1 28 33
M  V30 33 1 28 34
M  V30 34 2 29 35
M  V30 35 1 34 36
M  V30 36 2 34 37
M  V30 37 2 36 38
M  V30 38 1 37 39
M  V30 39 1 38 40
M  V30 40 2 39 41
M  V30 41 2 39 42
M  V30 42 1 39 43
M  V30 43 2 40 44
M  V30 44 1 40 45
M  V30 45 1 44 46
M  V30 46 2 45 47
M  V30 47 2 46 48
M  V30 48 1 48 49
M  V30 49 2 49 50
M  V30 50 2 49 51
M  V30 51 1 49 52
M  V30 52 1 52 53
M  V30 53 1 53 54
M  V30 54 1 54 55
M  V30 55 2 55 56
M  V30 56 2 55 57
M  V30 57 1 55 58
M  V30 58 1 15 17
M  V30 59 1 27 29
M  V30 60 1 35 37
M  V30 61 1 47 48
M  V30 62 1 6 59
M  V30 63 1 6 60
M  V30 64 1 7 61
M  V30 65 1 7 62
M  V30 66 1 12 63
M  V30 67 1 13 64
M  V30 68 1 15 65
M  V30 69 1 16 66
M  V30 70 1 21 67
M  V30 71 1 21 68
M  V30 72 1 21 69
M  V30 73 1 27 70
M  V30 74 1 33 71
M  V30 75 1 33 72
M  V30 76 1 35 73
M  V30 77 1 44 74
M  V30 78 1 45 75
M  V30 79 1 46 76
M  V30 80 1 47 77
M  V30 81 1 52 78
M  V30 82 1 52 79
M  V30 83 1 53 80
M  V30 84 1 53 81
M  V30 END BOND
M  V30 END CTAB
M  END
>  <Structure No>
1965

>  <LogS>
-0.416104482

>  <MMFF94 Energy>
197.01

$$$$
Compound 1966
Actelion Java MolfileCreator 2.0

  0  0  0  0  0  0              0 V3000
M  V30 BEGIN CTAB
M  V30 COUNTS 21 21 0 0 0
M  V30 BEGIN ATOM
M  V30 1 O 2.8205 -1.4878 1.6445 0
M  V30 2 C 2.6562 -0.5953 0.7693 0
M  V30 3 N 3.8088 0.0177 0.185 0
M  V30 4 C 1.2823 -0.2154 0.3571 0
M  V30 5 C 0.2159 -1.1072 0.5629 0
M  V30 6 C 1.0168 1.037 -0.219 0
M  V30 7 C -1.0937 -0.7707 0.1857 0
M  V30 8 C -0.2818 1.3827 -0.5971 0
M  V30 9 N -2.1468 -1.7188 0.4103 0
M  V30 10 C -1.3469 0.4887 -0.4046 0
M  V30 11 C -2.7345 0.8934 -0.8241 0
M  V30 12 H 4.7616 -0.2261 0.5358 0
M  V30 13 H 3.7373 0.6417 -0.6477 0
M  V30 14 H 0.4022 -2.0763 1.0102 0
M  V30 15 H 1.8032 1.766 -0.3586 0
M  V30 16 H -0.4549 2.3572 -1.0371 0
M  V30 17 H -3.138 -1.5219 0.1515 0
M  V30 18 H -1.9416 -2.6451 0.8473 0
M  V30 19 H -3.4076 0.8989 0.0588 0
M  V30 20 H -3.121 0.1804 -1.5823 0
M  V30 21 H -2.7485 1.9099 -1.2722 0
M  V30 END ATOM
M  V30 BEGIN BOND
M  V30 1 2 1 2
M  V30 2 1 2 3
M  V30 3 1 2 4
M  V30 4 2 4 5
M  V30 5 1 4 6
M  V30 6 1 5 7
M  V30 7 2 6 8
M  V30 8 1 7 9
M  V30 9 2 7 10
M  V30 10 1 10 11
M  V30 11 1 8 10
M  V30 12 1 3 12
M  V30 13 1 3 13
M  V30 14 1 5 14
M  V30 15 1 6 15
M  V30 16 1 8 16
M  V30 17 1 9 17
M  V30 18 1 9 18
M  V30 19 1 11 19
M  V30 20 1 11 20
M  V30 21 1 11 21
M  V30 END BOND
M  V30 END CTAB
M  END
>  <Structure No>
1966

>  <LogS>
-0.57673192

>  <MMFF94 Energy>
-3.0565

$$$$
Compound 1967
Actelion Java MolfileCreator 2.0

  0  0  0  0  0  0              0 V3000
M  V30 BEGIN CTAB
M  V30 COUNTS 12 12 0 0 0
M  V30 BEGIN ATOM
M  V30 1 S 0.9841 -1.4764 0.3279 0
M  V30 2 C -0.0418 -0.226 -0.1294 0
M  V30 3 C 2.3581 -0.5064 0.2822 0
M  V30 4 C 0.7169 0.9271 -0.2835 0
M  V30 5 C -1.5302 -0.3203 -0.2378 0
M  V30 6 N 2.0482 0.7639 -0.0605 0
M  V30 7 O -2.1193 -0.0825 1.0107 0
M  V30 8 H 3.3634 -0.8368 0.504 0
M  V30 9 H 0.2935 1.8857 -0.5525 0
M  V30 10 H -1.9089 0.4037 -0.9943 0
M  V30 11 H -1.8079 -1.3402 -0.5767 0
M  V30 12 H -2.0805 0.8983 1.1609 0
M  V30 END ATOM
M  V30 BEGIN BOND
M  V30 1 1 1 2
M  V30 2 1 1 3
M  V30 3 2 2 4
M  V30 4 1 2 5
M  V30 5 2 3 6
M  V30 6 1 5 7
M  V30 7 1 4 6
M  V30 8 1 3 8
M  V30 9 1 4 9
M  V30 10 1 5 10
M  V30 11 1 5 11
M  V30 12 1 7 12
M  V30 END BOND
M  V30 END CTAB
M  END
>  <Structure No>
1967

>  <LogS>
0.525735536

>  <MMFF94 Energy>
1.8465

$$$$
Compound 1968
Actelion Java MolfileCreator 2.0

  0  0  0  0  0  0              0 V3000
M  V30 BEGIN CTAB
M  V30 COUNTS 22 22 0 0 0
M  V30 BEGIN ATOM
M  V30 1 O 0.5622 2.7331 -1.1247 0
M  V30 2 C 0.309 1.9954 -0.1363 0
M  V30 3 O 0.5359 2.4697 1.1503 0 CHG=-1
M  V30 4 C -0.2788 0.6281 -0.348 0 CFG=1
M  V30 5 N 0.3132 -0.3491 0.5606 0
M  V30 6 C -1.7803 0.6234 -0.0411 0
M  V30 7 C 1.7088 -0.7082 0.5917 0
M  V30 8 C -0.6822 -1.0565 1.3499 0
M  V30 9 C -2.0373 -0.6539 0.7662 0 CFG=2
M  V30 10 O 2.129 -1.5009 1.4775 0
M  V30 11 C 2.6876 -0.1405 -0.3905 0
M  V30 12 O -2.5597 -1.6722 -0.0526 0
M  V30 13 H -0.1152 0.2965 -1.3973 0
M  V30 14 H -2.3813 0.6485 -0.9767 0
M  V30 15 H -2.0702 1.5006 0.5809 0
M  V30 16 H -0.5283 -2.1562 1.2824 0
M  V30 17 H -0.6039 -0.7373 2.4117 0
M  V30 18 H -2.7632 -0.454 1.5845 0
M  V30 19 H 3.6272 -0.7328 -0.3842 0
M  V30 20 H 2.266 -0.1713 -1.4162 0
M  V30 21 H 2.9281 0.9072 -0.1169 0
M  V30 22 H -1.9065 -1.8417 -0.7821 0
M  V30 END ATOM
M  V30 BEGIN BOND
M  V30 1 2 1 2
M  V30 2 1 2 3
M  V30 3 1 2 4
M  V30 4 1 4 5
M  V30 5 1 4 6
M  V30 6 1 5 7
M  V30 7 1 5 8
M  V30 8 1 6 9
M  V30 9 2 7 10
M  V30 10 1 7 11
M  V30 11 1 9 12
M  V30 12 1 8 9
M  V30 13 1 4 13
M  V30 14 1 6 14
M  V30 15 1 6 15
M  V30 16 1 8 16
M  V30 17 1 8 17
M  V30 18 1 9 18
M  V30 19 1 11 19
M  V30 20 1 11 20
M  V30 21 1 11 21
M  V30 22 1 12 22
M  V30 END BOND
M  V30 BEGIN COLLECTION
M  V30 MDLV30/STEABS ATOMS=(2 4 9)
M  V30 END COLLECTION
M  V30 END CTAB
M  END
>  <Structure No>
1968

>  <LogS>
0.344992722

>  <MMFF94 Energy>
60.705

$$$$
Compound 1969
Actelion Java MolfileCreator 2.0

  0  0  0  0  0  0              0 V3000
M  V30 BEGIN CTAB
M  V30 COUNTS 73 77 0 0 0
M  V30 BEGIN ATOM
M  V30 1 S 9.6231 2.8541 3.7201 0
M  V30 2 O 8.7608 3.2531 4.8857 0
M  V30 3 O 10.6351 1.8453 4.1836 0
M  V30 4 O 8.6711 2.1549 2.5065 0
M  V30 5 O 10.4325 4.2031 3.1277 0 CHG=-1
M  V30 6 C 7.8291 3.1508 1.9765 0
M  V30 7 C 6.8722 2.5299 0.9614 0
M  V30 8 S 5.7667 1.3534 1.7295 0
M  V30 9 O 5.0782 1.9879 2.9061 0
M  V30 10 O 6.5393 0.1571 2.2112 0
M  V30 11 C 4.5689 0.8421 0.5446 0
M  V30 12 C 3.3238 1.473 0.4832 0
M  V30 13 C 4.8651 -0.1874 -0.3509 0
M  V30 14 C 2.3722 1.0801 -0.4708 0
M  V30 15 C 3.9296 -0.5848 -1.3092 0
M  V30 16 C 2.6747 0.0555 -1.4063 0
M  V30 17 C 1.1215 1.7023 -0.494 0
M  V30 18 C 1.709 -0.3029 -2.3914 0
M  V30 19 C 0.1517 1.2913 -1.3991 0
M  V30 20 S 2.1501 -1.3556 -3.7627 0
M  V30 21 C 0.4135 0.2714 -2.3202 0
M  V30 22 O 3.5177 -0.9896 -4.2689 0
M  V30 23 O 1.1895 -1.1932 -4.9068 0
M  V30 24 O 2.1481 -2.9574 -3.2586 0 CHG=-1
M  V30 25 N -0.6723 -0.1874 -3.136 0
M  V30 26 N -0.9928 -1.5544 -3.1893 0
M  V30 27 C -1.9926 -2.1056 -2.557 0
M  V30 28 C -2.8451 -1.3622 -1.5899 0
M  V30 29 C -2.2638 -3.5504 -2.7636 0
M  V30 30 O -2.8318 -0.1034 -1.5539 0
M  V30 31 C -3.7614 -2.123 -0.7027 0
M  V30 32 S -1.3605 -4.4682 -3.9768 0
M  V30 33 C -3.1991 -4.1789 -2.035 0
M  V30 34 C -4.4472 -1.5164 0.3794 0
M  V30 35 C -3.9719 -3.4911 -0.9757 0
M  V30 36 O -2.1769 -5.6367 -4.4558 0
M  V30 37 O -0.0813 -4.9728 -3.372 0
M  V30 38 O -1.0113 -3.493 -5.2996 0 CHG=-1
M  V30 39 N -4.117 -0.1856 0.8078 0
M  V30 40 C -5.3716 -2.2679 1.1215 0
M  V30 41 C -4.9073 -4.2192 -0.2275 0
M  V30 42 C -5.1025 0.8329 1.0491 0
M  V30 43 C -5.6122 -3.6101 0.8145 0
M  V30 44 O -6.3293 0.5633 0.9234 0
M  V30 45 C -4.6991 2.2046 1.4394 0
M  V30 46 S -6.7906 -4.5314 1.7449 0
M  V30 47 C -5.5674 2.9985 2.2113 0
M  V30 48 C -3.4647 2.7454 1.0307 0
M  V30 49 O -6.8279 -4.0305 3.1614 0
M  V30 50 O -6.4104 -5.9856 1.7573 0
M  V30 51 O -8.3094 -4.3559 1.0497 0 CHG=-1
M  V30 52 C -5.1996 4.2952 2.5843 0
M  V30 53 C -3.1031 4.0437 1.404 0
M  V30 54 C -3.9677 4.8165 2.1826 0
M  V30 55 H 7.2302 3.6449 2.7755 0
M  V30 56 H 8.4341 3.9201 1.4478 0
M  V30 57 H 6.2651 3.334 0.4937 0
M  V30 58 H 7.4494 2.0182 0.1622 0
M  V30 59 H 3.0939 2.2691 1.1818 0
M  V30 60 H 5.8237 -0.6883 -0.3064 0
M  V30 61 H 4.1966 -1.4152 -1.9447 0
M  V30 62 H 0.8796 2.487 0.2133 0
M  V30 63 H -0.8261 1.7549 -1.3649 0
M  V30 64 H -1.3931 0.5057 -3.4404 0
M  V30 65 H -3.3823 -5.2337 -2.2015 0
M  V30 66 H -3.1068 0.0296 0.9599 0
M  V30 67 H -5.8818 -1.8131 1.9612 0
M  V30 68 H -5.0825 -5.2644 -0.4533 0
M  V30 69 H -6.5255 2.6123 2.5367 0
M  V30 70 H -2.7888 2.1835 0.4013 0
M  V30 71 H -5.8709 4.8964 3.1846 0
M  V30 72 H -2.1553 4.4544 1.0813 0
M  V30 73 H -3.6851 5.8212 2.4697 0
M  V30 END ATOM
M  V30 BEGIN BOND
M  V30 1 2 1 2
M  V30 2 2 1 3
M  V30 3 1 1 4
M  V30 4 1 1 5
M  V30 5 1 4 6
M  V30 6 1 6 7
M  V30 7 1 7 8
M  V30 8 2 8 9
M  V30 9 2 8 10
M  V30 10 1 8 11
M  V30 11 2 11 12
M  V30 12 1 11 13
M  V30 13 1 12 14
M  V30 14 2 13 15
M  V30 15 1 14 16
M  V30 16 2 14 17
M  V30 17 2 16 18
M  V30 18 1 17 19
M  V30 19 1 18 20
M  V30 20 1 18 21
M  V30 21 2 20 22
M  V30 22 2 20 23
M  V30 23 1 20 24
M  V30 24 1 21 25
M  V30 25 1 25 26
M  V30 26 2 26 27
M  V30 27 1 27 28
M  V30 28 1 27 29
M  V30 29 2 28 30
M  V30 30 1 28 31
M  V30 31 1 29 32
M  V30 32 2 29 33
M  V30 33 2 31 34
M  V30 34 1 31 35
M  V30 35 2 32 36
M  V30 36 2 32 37
M  V30 37 1 32 38
M  V30 38 1 34 39
M  V30 39 1 34 40
M  V30 40 2 35 41
M  V30 41 1 39 42
M  V30 42 2 40 43
M  V30 43 2 42 44
M  V30 44 1 42 45
M  V30 45 1 43 46
M  V30 46 2 45 47
M  V30 47 1 45 48
M  V30 48 2 46 49
M  V30 49 2 46 50
M  V30 50 1 46 51
M  V30 51 1 47 52
M  V30 52 2 48 53
M  V30 53 2 52 54
M  V30 54 1 15 16
M  V30 55 2 19 21
M  V30 56 1 33 35
M  V30 57 1 41 43
M  V30 58 1 53 54
M  V30 59 1 6 55
M  V30 60 1 6 56
M  V30 61 1 7 57
M  V30 62 1 7 58
M  V30 63 1 12 59
M  V30 64 1 13 60
M  V30 65 1 15 61
M  V30 66 1 17 62
M  V30 67 1 19 63
M  V30 68 1 25 64
M  V30 69 1 33 65
M  V30 70 1 39 66
M  V30 71 1 40 67
M  V30 72 1 41 68
M  V30 73 1 47 69
M  V30 74 1 48 70
M  V30 75 1 52 71
M  V30 76 1 53 72
M  V30 77 1 54 73
M  V30 END BOND
M  V30 END CTAB
M  END
>  <Structure No>
1969

>  <LogS>
-0.389314941

>  <MMFF94 Energy>
282.42

$$$$
Compound 1970
Actelion Java MolfileCreator 2.0

  0  0  0  0  0  0              0 V3000
M  V30 BEGIN CTAB
M  V30 COUNTS 74 78 0 0 0
M  V30 BEGIN ATOM
M  V30 1 S -1.7567 -3.0129 -2.0079 0
M  V30 2 O -2.9739 -3.1575 -2.8759 0
M  V30 3 O -1.4847 -4.3095 -1.2982 0
M  V30 4 O -0.4413 -2.6439 -2.9868 0 CHG=-1
M  V30 5 C -2.0208 -1.7308 -0.8179 0
M  V30 6 C -3.1776 -1.7023 -0.0047 0
M  V30 7 C -1.0662 -0.7095 -0.6976 0
M  V30 8 C -3.3433 -0.6563 0.9199 0
M  V30 9 C -4.1922 -2.7797 -0.0763 0
M  V30 10 C -1.2274 0.3199 0.2454 0
M  V30 11 C -2.3833 0.3501 1.0334 0
M  V30 12 C -5.5117 -2.5667 -0.1891 0
M  V30 13 N -0.2429 1.3572 0.3974 0
M  V30 14 C -6.1253 -1.2362 -0.4037 0
M  V30 15 C 1.1721 1.1298 0.3262 0
M  V30 16 C -7.1926 -0.7838 0.4041 0
M  V30 17 C -5.6719 -0.4284 -1.4597 0
M  V30 18 N 1.6693 -0.1315 0.2563 0
M  V30 19 N 2.0272 2.1835 0.3664 0
M  V30 20 S -7.7878 -1.7361 1.7719 0
M  V30 21 C -7.7784 0.4654 0.1417 0
M  V30 22 C -6.2569 0.8134 -1.7064 0
M  V30 23 C 3.0081 -0.3501 0.2042 0
M  V30 24 C 3.3691 1.9812 0.312 0
M  V30 25 O -6.6306 -2.2535 2.5792 0
M  V30 26 O -8.607 -2.889 1.2664 0
M  V30 27 O -8.7422 -0.78 2.7704 0 CHG=-1
M  V30 28 C -7.3156 1.2734 -0.9135 0
M  V30 29 N 3.8535 0.7133 0.2406 0
M  V30 30 N 3.5213 -1.6934 0.0899 0
M  V30 31 N 4.2584 3.1055 0.3759 0
M  V30 32 N -7.9076 2.5539 -1.2055 0
M  V30 33 C 2.5939 -2.801 -0.1842 0
M  V30 34 C 4.9526 -1.9034 -0.1657 0
M  V30 35 C 5.672 3.0364 0.1203 0
M  V30 36 C -8.9721 3.1517 -0.4066 0
M  V30 37 C 3.214 -4.1364 0.2325 0
M  V30 38 C 5.3728 -3.3203 0.2377 0
M  V30 39 C 6.5414 3.8831 0.8252 0
M  V30 40 C 6.1991 2.185 -0.868 0
M  V30 41 O 4.5051 -4.2837 -0.3237 0
M  V30 42 C 7.917 3.853 0.5769 0
M  V30 43 C 7.575 2.1565 -1.1161 0
M  V30 44 C 8.4402 2.987 -0.3907 0
M  V30 45 S 10.1722 2.9741 -0.7008 0
M  V30 46 O 10.5699 4.2567 -1.3765 0
M  V30 47 O 10.5357 1.8141 -1.5862 0
M  V30 48 O 10.9958 2.8219 0.7554 0 CHG=-1
M  V30 49 H -0.2037 -0.7085 -1.3493 0
M  V30 50 H -4.2122 -0.6267 1.5683 0
M  V30 51 H -3.8461 -3.8034 -0.0147 0
M  V30 52 H -2.5286 1.1439 1.756 0
M  V30 53 H -6.1717 -3.4227 -0.1337 0
M  V30 54 H -0.5666 2.3066 0.6909 0
M  V30 55 H -4.868 -0.7656 -2.1035 0
M  V30 56 H -8.5972 0.802 0.7616 0
M  V30 57 H -5.887 1.417 -2.5253 0
M  V30 58 H 3.8619 4.0138 0.708 0
M  V30 59 H -7.5669 3.0905 -2.0352 0
M  V30 60 H 1.6437 -2.669 0.3748 0
M  V30 61 H 2.3649 -2.8228 -1.2711 0
M  V30 62 H 5.1551 -1.7481 -1.2478 0
M  V30 63 H 5.5657 -1.1807 0.4162 0
M  V30 64 H -9.8671 2.4956 -0.4129 0
M  V30 65 H -8.6199 3.3046 0.6341 0
M  V30 66 H -9.2548 4.1376 -0.8315 0
M  V30 67 H 3.2391 -4.2272 1.3426 0
M  V30 68 H 2.5701 -4.959 -0.1446 0
M  V30 69 H 5.4193 -3.4142 1.3476 0
M  V30 70 H 6.4002 -3.5063 -0.1447 0
M  V30 71 H 6.1519 4.5619 1.574 0
M  V30 72 H 5.5495 1.5629 -1.4696 0
M  V30 73 H 8.5744 4.5098 1.133 0
M  V30 74 H 7.9598 1.4948 -1.881 0
M  V30 END ATOM
M  V30 BEGIN BOND
M  V30 1 2 1 2
M  V30 2 2 1 3
M  V30 3 1 1 4
M  V30 4 1 1 5
M  V30 5 2 5 6
M  V30 6 1 5 7
M  V30 7 1 6 8
M  V30 8 1 6 9
M  V30 9 2 7 10
M  V30 10 2 8 11
M  V30 11 2 9 12
M  V30 12 1 10 13
M  V30 13 1 12 14
M  V30 14 1 13 15
M  V30 15 2 14 16
M  V30 16 1 14 17
M  V30 17 2 15 18
M  V30 18 1 15 19
M  V30 19 1 16 20
M  V30 20 1 16 21
M  V30 21 2 17 22
M  V30 22 1 18 23
M  V30 23 2 19 24
M  V30 24 2 20 25
M  V30 25 2 20 26
M  V30 26 1 20 27
M  V30 27 2 21 28
M  V30 28 2 23 29
M  V30 29 1 23 30
M  V30 30 1 24 31
M  V30 31 1 28 32
M  V30 32 1 30 33
M  V30 33 1 30 34
M  V30 34 1 31 35
M  V30 35 1 32 36
M  V30 36 1 33 37
M  V30 37 1 34 38
M  V30 38 2 35 39
M  V30 39 1 35 40
M  V30 40 1 37 41
M  V30 41 1 39 42
M  V30 42 2 40 43
M  V30 43 2 42 44
M  V30 44 1 44 45
M  V30 45 2 45 46
M  V30 46 2 45 47
M  V30 47 1 45 48
M  V30 48 1 10 11
M  V30 49 1 22 28
M  V30 50 1 24 29
M  V30 51 1 38 41
M  V30 52 1 43 44
M  V30 53 1 7 49
M  V30 54 1 8 50
M  V30 55 1 9 51
M  V30 56 1 11 52
M  V30 57 1 12 53
M  V30 58 1 13 54
M  V30 59 1 17 55
M  V30 60 1 21 56
M  V30 61 1 22 57
M  V30 62 1 31 58
M  V30 63 1 32 59
M  V30 64 1 33 60
M  V30 65 1 33 61
M  V30 66 1 34 62
M  V30 67 1 34 63
M  V30 68 1 36 64
M  V30 69 1 36 65
M  V30 70 1 36 66
M  V30 71 1 37 67
M  V30 72 1 37 68
M  V30 73 1 38 69
M  V30 74 1 38 70
M  V30 75 1 39 71
M  V30 76 1 40 72
M  V30 77 1 42 73
M  V30 78 1 43 74
M  V30 END BOND
M  V30 END CTAB
M  END
>  <Structure No>
1970

>  <LogS>
-0.48433581

>  <MMFF94 Energy>
23.376

$$$$
Compound 1971
Actelion Java MolfileCreator 2.0

  0  0  0  0  0  0              0 V3000
M  V30 BEGIN CTAB
M  V30 COUNTS 14 13 0 0 0
M  V30 BEGIN ATOM
M  V30 1 S -0.0808 0.1617 -0.4853 0 CHG=1
M  V30 2 O -0.3499 0.5852 -1.9017 0
M  V30 3 C -0.9417 1.2476 0.63 0
M  V30 4 C 1.6667 0.2444 -0.1652 0
M  V30 5 C -0.6505 -1.5065 -0.2486 0
M  V30 6 H -0.5876 2.2886 0.4821 0
M  V30 7 H -2.0318 1.1973 0.4301 0
M  V30 8 H -0.7445 0.9368 1.6766 0
M  V30 9 H 1.8675 -0.0677 0.8803 0
M  V30 10 H 2.2042 -0.4318 -0.8611 0
M  V30 11 H 2.0227 1.2847 -0.3135 0
M  V30 12 H -1.7404 -1.5589 -0.449 0
M  V30 13 H -0.1147 -2.184 -0.9446 0
M  V30 14 H -0.4529 -1.8213 0.7967 0
M  V30 END ATOM
M  V30 BEGIN BOND
M  V30 1 2 1 2
M  V30 2 1 1 3
M  V30 3 1 1 4
M  V30 4 1 1 5
M  V30 5 1 3 6
M  V30 6 1 3 7
M  V30 7 1 3 8
M  V30 8 1 4 9
M  V30 9 1 4 10
M  V30 10 1 4 11
M  V30 11 1 5 12
M  V30 12 1 5 13
M  V30 13 1 5 14
M  V30 END BOND
M  V30 END CTAB
M  END
>  <Structure No>
1971

>  <LogS>
-0.756884432

>  <MMFF94 Energy>
19.911

$$$$
Compound 1972
Actelion Java MolfileCreator 2.0

  0  0  0  0  0  0              0 V3000
M  V30 BEGIN CTAB
M  V30 COUNTS 19 19 0 0 0
M  V30 BEGIN ATOM
M  V30 1 N -1.6276 1.7052 0.3098 0
M  V30 2 C -0.6078 0.7116 0.1351 0
M  V30 3 C -0.9283 -0.6313 -0.177 0
M  V30 4 C 0.7377 1.0858 0.2784 0
M  V30 5 C 0.1087 -1.5661 -0.3379 0
M  V30 6 C -2.356 -1.0786 -0.3401 0
M  V30 7 C 1.7633 0.146 0.1159 0
M  V30 8 C 1.4425 -1.18 -0.1925 0
M  V30 9 N 3.1303 0.5395 0.2644 0
M  V30 10 H -1.3722 2.6915 0.5401 0
M  V30 11 H -2.6427 1.4838 0.2154 0
M  V30 12 H 0.9873 2.1125 0.5173 0
M  V30 13 H -0.1129 -2.5988 -0.5769 0
M  V30 14 H -2.8353 -0.512 -1.1659 0
M  V30 15 H -2.9145 -0.9046 0.6035 0
M  V30 16 H -2.4223 -2.1606 -0.583 0
M  V30 17 H 2.2265 -1.9157 -0.3206 0
M  V30 18 H 3.9022 -0.1538 0.1451 0
M  V30 19 H 3.3809 1.527 0.4947 0
M  V30 END ATOM
M  V30 BEGIN BOND
M  V30 1 1 1 2
M  V30 2 2 2 3
M  V30 3 1 2 4
M  V30 4 1 3 5
M  V30 5 1 3 6
M  V30 6 2 4 7
M  V30 7 2 5 8
M  V30 8 1 7 9
M  V30 9 1 7 8
M  V30 10 1 1 10
M  V30 11 1 1 11
M  V30 12 1 4 12
M  V30 13 1 5 13
M  V30 14 1 6 14
M  V30 15 1 6 15
M  V30 16 1 6 16
M  V30 17 1 8 17
M  V30 18 1 9 18
M  V30 19 1 9 19
M  V30 END BOND
M  V30 END CTAB
M  END
>  <Structure No>
1972

>  <LogS>
-0.507184532

>  <MMFF94 Energy>
8.2709

$$$$
Compound 1973
Actelion Java MolfileCreator 2.0

  0  0  0  0  0  0              0 V3000
M  V30 BEGIN CTAB
M  V30 COUNTS 19 19 0 0 0
M  V30 BEGIN ATOM
M  V30 1 N -2.4811 0.8523 0.0 0
M  V30 2 C -1.0648 0.6306 -0.0515 0
M  V30 3 C -0.5016 -0.635 0.2389 0
M  V30 4 C -0.2218 1.6973 -0.3986 0
M  V30 5 C 0.8935 -0.7998 0.1739 0
M  V30 6 C -1.366 -1.8081 0.6158 0
M  V30 7 C 1.1612 1.5203 -0.4593 0
M  V30 8 C 1.7251 0.2724 -0.1737 0
M  V30 9 N 3.1426 0.0931 -0.2365 0
M  V30 10 H -2.8776 1.7938 -0.2177 0
M  V30 11 H -3.1542 0.0963 0.2519 0
M  V30 12 H -0.6395 2.6708 -0.6232 0
M  V30 13 H 1.3373 -1.7634 0.3939 0
M  V30 14 H -0.761 -2.7194 0.8094 0
M  V30 15 H -2.0723 -2.0352 -0.21 0
M  V30 16 H -1.9363 -1.5734 1.5391 0
M  V30 17 H 1.7936 2.3568 -0.7293 0
M  V30 18 H 3.5746 -0.834 -0.0253 0
M  V30 19 H 3.7711 0.8864 -0.4948 0
M  V30 END ATOM
M  V30 BEGIN BOND
M  V30 1 1 1 2
M  V30 2 2 2 3
M  V30 3 1 2 4
M  V30 4 1 3 5
M  V30 5 1 3 6
M  V30 6 2 4 7
M  V30 7 2 5 8
M  V30 8 1 8 9
M  V30 9 1 7 8
M  V30 10 1 1 10
M  V30 11 1 1 11
M  V30 12 1 4 12
M  V30 13 1 5 13
M  V30 14 1 6 14
M  V30 15 1 6 15
M  V30 16 1 6 16
M  V30 17 1 7 17
M  V30 18 1 9 18
M  V30 19 1 9 19
M  V30 END BOND
M  V30 END CTAB
M  END
>  <Structure No>
1973

>  <LogS>
-0.507184532

>  <MMFF94 Energy>
3.0028

$$$$
Compound 1974
Actelion Java MolfileCreator 2.0

  0  0  0  0  0  0              0 V3000
M  V30 BEGIN CTAB
M  V30 COUNTS 5 4 0 0 0
M  V30 BEGIN ATOM
M  V30 1 S 0.0 0.0 0.0 0
M  V30 2 O 1.1143 -0.0432 -1.0065 0
M  V30 3 O 0.5778 0.012 1.3865 0
M  V30 4 O -0.915 1.3881 -0.2371 0 CHG=-1
M  V30 5 O -0.9767 -1.3533 -0.1876 0 CHG=-1
M  V30 END ATOM
M  V30 BEGIN BOND
M  V30 1 2 1 2
M  V30 2 2 1 3
M  V30 3 1 1 4
M  V30 4 1 1 5
M  V30 END BOND
M  V30 END CTAB
M  END
>  <Structure No>
1974

>  <LogS>
0.12713323

>  <MMFF94 Energy>
27.585

$$$$
Compound 1975
Actelion Java MolfileCreator 2.0

  0  0  0  0  0  0              0 V3000
M  V30 BEGIN CTAB
M  V30 COUNTS 12 11 0 0 0
M  V30 BEGIN ATOM
M  V30 1 S 2.7199 0.0 -0.3294 0
M  V30 2 C 1.2973 -0.7391 0.0204 0
M  V30 3 S 1.357 -2.4922 0.4591 0 CHG=-1 VAL=2
M  V30 4 N 0.0422 -0.0212 -0.0191 0
M  V30 5 C -1.2046 -0.7237 0.3013 0
M  V30 6 C 0.0058 1.4021 -0.3766 0
M  V30 7 H -1.3552 -1.5638 -0.4089 0
M  V30 8 H -1.1564 -1.12 1.3374 0
M  V30 9 H -2.0872 -0.0539 0.2316 0
M  V30 10 H 0.6125 1.9867 0.3467 0
M  V30 11 H 0.4137 1.5429 -1.3997 0
M  V30 12 H -1.0277 1.8067 -0.3617 0
M  V30 END ATOM
M  V30 BEGIN BOND
M  V30 1 2 1 2
M  V30 2 1 2 3
M  V30 3 1 2 4
M  V30 4 1 4 5
M  V30 5 1 4 6
M  V30 6 1 5 7
M  V30 7 1 5 8
M  V30 8 1 5 9
M  V30 9 1 6 10
M  V30 10 1 6 11
M  V30 11 1 6 12
M  V30 END BOND
M  V30 END CTAB
M  END
>  <Structure No>
1975

>  <LogS>
0.416892192

>  <MMFF94 Energy>
-35.36

$$$$
Compound 1976
Actelion Java MolfileCreator 2.0

  0  0  0  0  0  0              0 V3000
M  V30 BEGIN CTAB
M  V30 COUNTS 83 84 0 0 0
M  V30 BEGIN ATOM
M  V30 1 O 1.4961 -1.1022 0.0787 0
M  V30 2 C 0.8609 -0.0177 0.0095 0
M  V30 3 O 1.5514 1.1871 0.0241 0 CHG=-1
M  V30 4 C -0.6296 -0.0242 -0.0321 0
M  V30 5 N -3.6407 -4.5015 -0.0755 0
M  V30 6 C -2.7207 -3.4015 -0.1236 0
M  V30 7 C -3.5031 -5.5057 0.9862 0
M  V30 8 C -4.5948 -4.6838 -1.1782 0
M  V30 9 C -3.0096 -2.2086 0.5482 0
M  V30 10 C -1.5299 -3.5166 -0.8508 0
M  V30 11 C -4.0221 -4.9614 2.3123 0
M  V30 12 C -5.6958 -3.6299 -1.1136 0
M  V30 13 C -2.1083 -1.1425 0.5057 0
M  V30 14 C -0.6301 -2.4489 -0.9023 0
M  V30 15 C -0.9057 -1.2519 -0.2164 0
M  V30 16 C 0.0608 -0.1207 -0.245 0 CHG=1
M  V30 17 C 1.5221 -0.3775 -0.2882 0
M  V30 18 C -0.4268 1.2786 -0.1931 0
M  V30 19 C 2.3553 0.4121 -1.0959 0
M  V30 20 C 2.0908 -1.4024 0.4825 0
M  V30 21 C -1.4812 1.6959 -1.0218 0
M  V30 22 C 0.1588 2.2 0.6914 0
M  V30 23 C 3.7327 0.1826 -1.1315 0
M  V30 24 C 3.4674 -1.6366 0.4438 0
M  V30 25 C -1.9428 3.0133 -0.9659 0
M  V30 26 C -0.3148 3.5128 0.7572 0
M  V30 27 C 4.3089 -0.8452 -0.3596 0
M  V30 28 C -1.3696 3.9257 -0.0689 0
M  V30 29 N 5.7382 -1.0793 -0.3833 0
M  V30 30 N -1.8591 5.2747 8.0E-4 0
M  V30 31 C 6.6889 0.0454 -0.4206 0
M  V30 32 C 6.2674 -2.4521 -0.3718 0
M  V30 33 C -2.4665 5.7674 1.2445 0
M  V30 34 C -1.7016 6.1652 -1.1548 0
M  V30 35 C 6.5579 0.9133 0.8293 0
M  V30 36 C 6.851 -2.8016 0.9946 0
M  V30 37 C -3.8345 5.1269 1.4578 0
M  V30 38 C -0.2894 6.7365 -1.1924 0
M  V30 39 H -0.9998 0.9152 -0.4936 0
M  V30 40 H -1.0266 -0.1014 1.0011 0
M  V30 41 H -0.9918 -0.8856 -0.6326 0
M  V30 42 H -4.0714 -6.4287 0.7377 0
M  V30 43 H -2.434 -5.7948 1.0942 0
M  V30 44 H -4.0637 -4.6058 -2.15 0
M  V30 45 H -5.0647 -5.6897 -1.1344 0
M  V30 46 H -3.9326 -2.1081 1.1046 0
M  V30 47 H -1.3011 -4.4345 -1.3763 0
M  V30 48 H -3.3866 -4.1206 2.6624 0
M  V30 49 H -5.0702 -4.6098 2.199 0
M  V30 50 H -3.9961 -5.76 3.0812 0
M  V30 51 H -6.1854 -3.6468 -0.1165 0
M  V30 52 H -6.4592 -3.8367 -1.8939 0
M  V30 53 H -5.2713 -2.6189 -1.2958 0
M  V30 54 H -2.3455 -0.2372 1.0488 0
M  V30 55 H 0.2774 -2.557 -1.4834 0
M  V30 56 H 1.9357 1.2015 -1.7071 0
M  V30 57 H 1.4706 -2.0121 1.1291 0
M  V30 58 H -1.9394 1.003 -1.7175 0
M  V30 59 H 0.9699 1.8975 1.3422 0
M  V30 60 H 4.3379 0.8069 -1.7714 0
M  V30 61 H 3.8702 -2.4316 1.0527 0
M  V30 62 H -2.7601 3.3194 -1.607 0
M  V30 63 H 0.1466 4.2127 1.4427 0
M  V30 64 H 7.7361 -0.328 -0.4774 0
M  V30 65 H 6.5248 0.6604 -1.3303 0
M  V30 66 H 7.0591 -2.5516 -1.1457 0
M  V30 67 H 5.4738 -3.1823 -0.6332 0
M  V30 68 H -2.5922 6.8731 1.2105 0
M  V30 69 H -1.8082 5.5376 2.1113 0
M  V30 70 H -2.4319 7.0022 -1.1034 0
M  V30 71 H -1.905 5.6125 -2.0975 0
M  V30 72 H 7.3034 1.7369 0.7937 0
M  V30 73 H 5.5444 1.3624 0.8895 0
M  V30 74 H 6.7404 0.3013 1.7384 0
M  V30 75 H 7.1867 -3.86 0.9954 0
M  V30 76 H 7.7228 -2.153 1.2196 0
M  V30 77 H 6.089 -2.6692 1.7921 0
M  V30 78 H -4.4964 5.3395 0.5914 0
M  V30 79 H -3.7293 4.0275 1.5772 0
M  V30 80 H -4.2996 5.5424 2.379 0
M  V30 81 H -0.1798 7.3981 -2.078 0
M  V30 82 H -0.0961 7.331 -0.2734 0
M  V30 83 H 0.4571 5.9155 -1.2594 0
M  V30 END ATOM
M  V30 BEGIN BOND
M  V30 1 2 1 2
M  V30 2 1 2 3
M  V30 3 1 2 4
M  V30 4 1 5 6
M  V30 5 1 5 7
M  V30 6 1 5 8
M  V30 7 2 6 9
M  V30 8 1 6 10
M  V30 9 1 7 11
M  V30 10 1 8 12
M  V30 11 1 9 13
M  V30 12 2 10 14
M  V30 13 2 13 15
M  V30 14 1 15 16
M  V30 15 1 16 17
M  V30 16 1 16 18
M  V30 17 2 17 19
M  V30 18 1 17 20
M  V30 19 2 18 21
M  V30 20 1 18 22
M  V30 21 1 19 23
M  V30 22 2 20 24
M  V30 23 1 21 25
M  V30 24 2 22 26
M  V30 25 2 23 27
M  V30 26 2 25 28
M  V30 27 1 27 29
M  V30 28 1 28 30
M  V30 29 1 29 31
M  V30 30 1 29 32
M  V30 31 1 30 33
M  V30 32 1 30 34
M  V30 33 1 31 35
M  V30 34 1 32 36
M  V30 35 1 33 37
M  V30 36 1 34 38
M  V30 37 1 14 15
M  V30 38 1 24 27
M  V30 39 1 26 28
M  V30 40 1 4 39
M  V30 41 1 4 40
M  V30 42 1 4 41
M  V30 43 1 7 42
M  V30 44 1 7 43
M  V30 45 1 8 44
M  V30 46 1 8 45
M  V30 47 1 9 46
M  V30 48 1 10 47
M  V30 49 1 11 48
M  V30 50 1 11 49
M  V30 51 1 11 50
M  V30 52 1 12 51
M  V30 53 1 12 52
M  V30 54 1 12 53
M  V30 55 1 13 54
M  V30 56 1 14 55
M  V30 57 1 19 56
M  V30 58 1 20 57
M  V30 59 1 21 58
M  V30 60 1 22 59
M  V30 61 1 23 60
M  V30 62 1 24 61
M  V30 63 1 25 62
M  V30 64 1 26 63
M  V30 65 1 31 64
M  V30 66 1 31 65
M  V30 67 1 32 66
M  V30 68 1 32 67
M  V30 69 1 33 68
M  V30 70 1 33 69
M  V30 71 1 34 70
M  V30 72 1 34 71
M  V30 73 1 35 72
M  V30 74 1 35 73
M  V30 75 1 35 74
M  V30 76 1 36 75
M  V30 77 1 36 76
M  V30 78 1 36 77
M  V30 79 1 37 78
M  V30 80 1 37 79
M  V30 81 1 37 80
M  V30 82 1 38 81
M  V30 83 1 38 82
M  V30 84 1 38 83
M  V30 END BOND
M  V30 END CTAB
M  END
>  <Structure No>
1976

>  <LogS>
-0.139560898

>  <MMFF94 Energy>
68.381

$$$$
Compound 1977
Actelion Java MolfileCreator 2.0

  0  0  0  0  0  0              0 V3000
M  V30 BEGIN CTAB
M  V30 COUNTS 1 0 0 0 0
M  V30 BEGIN ATOM
M  V30 1 Cl 0.0 0.0 0.0 0 CHG=-1
M  V30 END ATOM
M  V30 BEGIN BOND
M  V30 END BOND
M  V30 END CTAB
M  END
>  <Structure No>
1977

>  <LogS>
0.842254104

>  <MMFF94 Energy>
MMFF94 error code 2

$$$$
Compound 1978
Actelion Java MolfileCreator 2.0

  0  0  0  0  0  0              0 V3000
M  V30 BEGIN CTAB
M  V30 COUNTS 22 23 0 0 0
M  V30 BEGIN ATOM
M  V30 1 O 2.874 -1.516 -0.8775 0 CHG=1
M  V30 2 N 1.5835 -1.5905 -0.7191 0
M  V30 3 C 3.2986 -0.3668 -0.4096 0
M  V30 4 N 1.1556 -0.475 -0.1426 0
M  V30 5 N 4.6569 0.0601 -0.4094 0 CHG=-1
M  V30 6 C 2.2161 0.3302 0.0731 0
M  V30 7 N -0.1945 -0.2192 0.1882 0
M  V30 8 C -1.133 -1.3446 0.2808 0
M  V30 9 C -0.5815 1.0679 0.7821 0
M  V30 10 C -2.5745 -0.8632 0.099 0
M  V30 11 C -2.0742 1.3381 0.5674 0
M  V30 12 O -2.8509 0.2241 0.9576 0
M  V30 13 H 4.9243 0.9903 -0.0177 0
M  V30 14 H 2.2095 1.3042 0.5434 0
M  V30 15 H -0.9144 -2.1004 -0.503 0
M  V30 16 H -1.0243 -1.8257 1.2766 0
M  V30 17 H -0.0149 1.8977 0.31 0
M  V30 18 H -0.3562 1.0499 1.8701 0
M  V30 19 H -3.2624 -1.697 0.3529 0
M  V30 20 H -2.7666 -0.5984 -0.9662 0
M  V30 21 H -2.2715 1.6167 -0.4933 0
M  V30 22 H -2.3703 2.2095 1.1888 0
M  V30 END ATOM
M  V30 BEGIN BOND
M  V30 1 2 1 2
M  V30 2 1 1 3
M  V30 3 1 2 4
M  V30 4 1 3 5
M  V30 5 2 3 6
M  V30 6 1 4 7
M  V30 7 1 7 8
M  V30 8 1 7 9
M  V30 9 1 8 10
M  V30 10 1 9 11
M  V30 11 1 10 12
M  V30 12 1 4 6
M  V30 13 1 11 12
M  V30 14 1 5 13
M  V30 15 1 6 14
M  V30 16 1 8 15
M  V30 17 1 8 16
M  V30 18 1 9 17
M  V30 19 1 9 18
M  V30 20 1 10 19
M  V30 21 1 10 20
M  V30 22 1 11 21
M  V30 23 1 11 22
M  V30 END BOND
M  V30 END CTAB
M  END
>  <Structure No>
1978

>  <LogS>
0.147198317

>  <MMFF94 Energy>
69.113

$$$$
Compound 1979
Actelion Java MolfileCreator 2.0

  0  0  0  0  0  0              0 V3000
M  V30 BEGIN CTAB
M  V30 COUNTS 23 22 0 0 0
M  V30 BEGIN ATOM
M  V30 1 O 0.5524 0.0789 -2.2113 0
M  V30 2 C 1.3041 -0.0298 -1.2048 0
M  V30 3 O 0.8308 -0.6177 -0.0244 0
M  V30 4 C 2.6875 0.4616 -1.2894 0
M  V30 5 C -0.5116 -1.0675 0.1467 0
M  V30 6 C 3.5337 0.3782 -0.2566 0
M  V30 7 C -1.4507 0.1207 0.3734 0
M  V30 8 C 4.9193 0.8686 -0.3326 0
M  V30 9 C -2.8894 -0.3514 0.6107 0
M  V30 10 O 5.3684 1.3925 -1.3869 0
M  V30 11 O 5.7464 0.752 0.7766 0 CHG=-1
M  V30 12 C -3.8272 0.8308 0.8363 0
M  V30 13 H 3.0133 0.9031 -2.2239 0
M  V30 14 H -0.8327 -1.6593 -0.7384 0
M  V30 15 H -0.5441 -1.7328 1.0356 0
M  V30 16 H 3.208 -0.0618 0.678 0
M  V30 17 H -1.0974 0.6968 1.2566 0
M  V30 18 H -1.424 0.7882 -0.5146 0
M  V30 19 H -2.9249 -1.0135 1.5032 0
M  V30 20 H -3.2443 -0.9288 -0.2707 0
M  V30 21 H -3.5082 1.4117 1.7279 0
M  V30 22 H -3.8306 1.496 -0.0532 0
M  V30 23 H -4.8598 0.4591 1.0056 0
M  V30 END ATOM
M  V30 BEGIN BOND
M  V30 1 2 1 2
M  V30 2 1 2 3
M  V30 3 1 2 4
M  V30 4 1 3 5
M  V30 5 2 4 6
M  V30 6 1 5 7
M  V30 7 1 6 8
M  V30 8 1 7 9
M  V30 9 2 8 10
M  V30 10 1 8 11
M  V30 11 1 9 12
M  V30 12 1 4 13
M  V30 13 1 5 14
M  V30 14 1 5 15
M  V30 15 1 6 16
M  V30 16 1 7 17
M  V30 17 1 7 18
M  V30 18 1 9 19
M  V30 19 1 9 20
M  V30 20 1 12 21
M  V30 21 1 12 22
M  V30 22 1 12 23
M  V30 END BOND
M  V30 END CTAB
M  END
>  <Structure No>
1979

>  <LogS>
-0.667780979

>  <MMFF94 Energy>
-27.001

$$$$
Compound 1980
Actelion Java MolfileCreator 2.0

  0  0  0  0  0  0              0 V3000
M  V30 BEGIN CTAB
M  V30 COUNTS 25 25 0 0 0
M  V30 BEGIN ATOM
M  V30 1 O 2.0314 1.2497 -1.9532 0
M  V30 2 C 1.5583 0.3965 -0.956 0
M  V30 3 C 2.4573 -0.1882 -0.0472 0
M  V30 4 C 0.186 0.121 -0.8608 0
M  V30 5 C 1.9701 -1.0544 0.9427 0
M  V30 6 C 3.9294 0.0953 -0.1483 0
M  V30 7 C -0.3049 -0.739 0.1405 0
M  V30 8 C 0.6031 -1.3261 1.034 0
M  V30 9 N -1.7079 -1.0473 0.265 0
M  V30 10 C -2.7792 -0.3862 -0.483 0
M  V30 11 C -3.0118 1.0338 0.0321 0
M  V30 12 O -3.3922 0.9938 1.3797 0
M  V30 13 H 1.4061 1.6851 -2.6214 0
M  V30 14 H -0.4822 0.5788 -1.5757 0
M  V30 15 H 2.6474 -1.5215 1.647 0
M  V30 16 H 4.3195 -0.3011 -1.109 0
M  V30 17 H 4.1046 1.1913 -0.1085 0
M  V30 18 H 4.4947 -0.3764 0.6834 0
M  V30 19 H 0.2497 -1.9958 1.8081 0
M  V30 20 H -1.9925 -1.8008 0.9318 0
M  V30 21 H -3.7208 -0.9648 -0.3592 0
M  V30 22 H -2.5458 -0.3777 -1.5684 0
M  V30 23 H -2.0875 1.6409 -0.0814 0
M  V30 24 H -3.8198 1.5058 -0.5699 0
M  V30 25 H -3.5298 1.9375 1.6547 0
M  V30 END ATOM
M  V30 BEGIN BOND
M  V30 1 1 1 2
M  V30 2 2 2 3
M  V30 3 1 2 4
M  V30 4 1 3 5
M  V30 5 1 3 6
M  V30 6 2 4 7
M  V30 7 2 5 8
M  V30 8 1 7 9
M  V30 9 1 9 10
M  V30 10 1 10 11
M  V30 11 1 11 12
M  V30 12 1 7 8
M  V30 13 1 1 13
M  V30 14 1 4 14
M  V30 15 1 5 15
M  V30 16 1 6 16
M  V30 17 1 6 17
M  V30 18 1 6 18
M  V30 19 1 8 19
M  V30 20 1 9 20
M  V30 21 1 10 21
M  V30 22 1 10 22
M  V30 23 1 11 23
M  V30 24 1 11 24
M  V30 25 1 12 25
M  V30 END BOND
M  V30 END CTAB
M  END
>  <Structure No>
1980

>  <LogS>
-0.655055328

>  <MMFF94 Energy>
31.279

$$$$
Compound 1981
Actelion Java MolfileCreator 2.0

  0  0  0  0  0  0              0 V3000
M  V30 BEGIN CTAB
M  V30 COUNTS 58 60 0 0 0
M  V30 BEGIN ATOM
M  V30 1 S 6.5981 -0.6752 -0.0843 0
M  V30 2 O 5.5351 -1.0611 -1.0754 0
M  V30 3 O 7.8465 -0.2642 -0.8143 0
M  V30 4 O 6.0508 0.5871 0.9042 0
M  V30 5 O 6.9464 -2.0036 0.8821 0 CHG=-1
M  V30 6 C 5.8065 1.7149 0.0974 0
M  V30 7 C 5.1559 2.8164 0.9326 0
M  V30 8 S 3.6129 2.2775 1.6676 0
M  V30 9 O 2.8076 3.4768 2.0816 0
M  V30 10 O 3.9249 1.4815 2.9047 0
M  V30 11 C 2.6809 1.2733 0.5385 0
M  V30 12 C 1.9133 1.827 -0.5146 0
M  V30 13 C 2.7627 -0.1222 0.67 0
M  V30 14 C 1.2068 0.9688 -1.3723 0
M  V30 15 C 1.7961 3.3134 -0.7236 0
M  V30 16 C 2.0718 -0.9748 -0.2078 0
M  V30 17 C 1.2609 -0.4171 -1.2066 0
M  V30 18 O 2.1759 -2.3731 -0.126 0
M  V30 19 N 0.5392 -1.2583 -2.1158 0
M  V30 20 C 2.9407 -3.0714 0.8506 0
M  V30 21 N -0.4668 -1.9763 -1.79 0
M  V30 22 C -1.0845 -2.0019 -0.4625 0 CFG=1
M  V30 23 C -1.9911 -0.8375 -0.2703 0
M  V30 24 C -2.1063 -3.1044 -0.3912 0
M  V30 25 O -1.62 0.3558 -0.1149 0
M  V30 26 N -3.3344 -1.2831 -0.1608 0
M  V30 27 N -3.3197 -2.6779 -0.2234 0
M  V30 28 C -1.7713 -4.5575 -0.4729 0
M  V30 29 C -4.5225 -0.5027 0.061 0
M  V30 30 C -5.6376 -1.0885 0.6828 0
M  V30 31 C -4.6023 0.8367 -0.3594 0
M  V30 32 C -6.8014 -0.3453 0.9004 0
M  V30 33 C -5.7678 1.578 -0.143 0
M  V30 34 C -6.872 0.9903 0.4863 0
M  V30 35 S -8.3326 1.9302 0.7664 0
M  V30 36 O -8.5665 2.8627 -0.3888 0
M  V30 37 O -8.1825 2.7254 2.0321 0
M  V30 38 O -9.6561 0.9043 0.9052 0 CHG=-1
M  V30 39 H 6.7652 2.108 -0.3071 0
M  V30 40 H 5.1306 1.472 -0.7531 0
M  V30 41 H 5.8499 3.1289 1.7418 0
M  V30 42 H 4.9653 3.6985 0.2865 0
M  V30 43 H 3.3839 -0.5415 1.4486 0
M  V30 44 H 0.5971 1.3768 -2.17 0
M  V30 45 H 2.7956 3.7909 -0.6953 0
M  V30 46 H 1.1472 3.7514 0.0629 0
M  V30 47 H 1.3489 3.5511 -1.7123 0
M  V30 48 H 4.0144 -2.8046 0.758 0
M  V30 49 H 2.5716 -2.8285 1.8694 0
M  V30 50 H 2.8302 -4.1623 0.684 0
M  V30 51 H -0.3479 -2.1015 0.3596 0
M  V30 52 H -1.0733 -4.8229 0.3481 0
M  V30 53 H -1.2868 -4.7732 -1.4475 0
M  V30 54 H -2.6893 -5.1759 -0.3814 0
M  V30 55 H -5.6025 -2.1189 1.013 0
M  V30 56 H -3.7787 1.3071 -0.8774 0
M  V30 57 H -7.6442 -0.8121 1.3937 0
M  V30 58 H -5.8108 2.609 -0.4717 0
M  V30 END ATOM
M  V30 BEGIN BOND
M  V30 1 2 1 2
M  V30 2 2 1 3
M  V30 3 1 1 4
M  V30 4 1 1 5
M  V30 5 1 4 6
M  V30 6 1 6 7
M  V30 7 1 7 8
M  V30 8 2 8 9
M  V30 9 2 8 10
M  V30 10 1 8 11
M  V30 11 2 11 12
M  V30 12 1 11 13
M  V30 13 1 12 14
M  V30 14 1 12 15
M  V30 15 2 13 16
M  V30 16 2 14 17
M  V30 17 1 16 18
M  V30 18 1 17 19
M  V30 19 1 18 20
M  V30 20 2 19 21
M  V30 21 1 21 22
M  V30 22 1 22 23
M  V30 23 1 22 24
M  V30 24 2 23 25
M  V30 25 1 23 26
M  V30 26 2 24 27
M  V30 27 1 24 28
M  V30 28 1 26 29
M  V30 29 2 29 30
M  V30 30 1 29 31
M  V30 31 1 30 32
M  V30 32 2 31 33
M  V30 33 2 32 34
M  V30 34 1 34 35
M  V30 35 2 35 36
M  V30 36 2 35 37
M  V30 37 1 35 38
M  V30 38 1 16 17
M  V30 39 1 26 27
M  V30 40 1 33 34
M  V30 41 1 6 39
M  V30 42 1 6 40
M  V30 43 1 7 41
M  V30 44 1 7 42
M  V30 45 1 13 43
M  V30 46 1 14 44
M  V30 47 1 15 45
M  V30 48 1 15 46
M  V30 49 1 15 47
M  V30 50 1 20 48
M  V30 51 1 20 49
M  V30 52 1 20 50
M  V30 53 1 22 51
M  V30 54 1 28 52
M  V30 55 1 28 53
M  V30 56 1 28 54
M  V30 57 1 30 55
M  V30 58 1 31 56
M  V30 59 1 32 57
M  V30 60 1 33 58
M  V30 END BOND
M  V30 BEGIN COLLECTION
M  V30 MDLV30/STEABS ATOMS=(1 22)
M  V30 END COLLECTION
M  V30 END CTAB
M  END
>  <Structure No>
1981

>  <LogS>
-0.239003926

>  <MMFF94 Energy>
112.41

$$$$
Compound 1982
Actelion Java MolfileCreator 2.0

  0  0  0  0  0  0              0 V3000
M  V30 BEGIN CTAB
M  V30 COUNTS 18 18 0 0 0
M  V30 BEGIN ATOM
M  V30 1 O 3.3346 -0.7138 -0.4758 0
M  V30 2 C 2.2406 -0.8128 0.1398 0
M  V30 3 O 2.1716 -1.5898 1.2905 0 CHG=-1
M  V30 4 C 1.0186 -0.0958 -0.3729 0 CFG=1
M  V30 5 N -0.0677 -1.0251 -0.7038 0 CHG=1
M  V30 6 C 0.458 0.8827 0.6455 0
M  V30 7 C -1.3257 -0.3008 -0.4755 0
M  V30 8 C -0.998 1.0105 0.2458 0 CFG=1
M  V30 9 O -1.8062 1.1911 1.3789 0
M  V30 10 H 1.295 0.4794 -1.2885 0
M  V30 11 H -0.0442 -1.8715 -0.0863 0
M  V30 12 H 0.0055 -1.328 -1.7035 0
M  V30 13 H 0.5334 0.4662 1.6756 0
M  V30 14 H 0.9817 1.8629 0.6024 0
M  V30 15 H -2.022 -0.9234 0.1318 0
M  V30 16 H -1.8276 -0.0792 -1.4445 0
M  V30 17 H -1.1104 1.8712 -0.455 0
M  V30 18 H -2.7061 1.4431 1.0437 0
M  V30 END ATOM
M  V30 BEGIN BOND
M  V30 1 2 1 2
M  V30 2 1 2 3
M  V30 3 1 2 4
M  V30 4 1 4 5
M  V30 5 1 4 6
M  V30 6 1 5 7
M  V30 7 1 6 8
M  V30 8 1 8 9
M  V30 9 1 7 8
M  V30 10 1 4 10
M  V30 11 1 5 11
M  V30 12 1 5 12
M  V30 13 1 6 13
M  V30 14 1 6 14
M  V30 15 1 7 15
M  V30 16 1 7 16
M  V30 17 1 8 17
M  V30 18 1 9 18
M  V30 END BOND
M  V30 BEGIN COLLECTION
M  V30 MDLV30/STEABS ATOMS=(2 4 8)
M  V30 END COLLECTION
M  V30 END CTAB
M  END
>  <Structure No>
1982

>  <LogS>
0.439922115

>  <MMFF94 Energy>
15.029

$$$$
Compound 1983
Actelion Java MolfileCreator 2.0

  0  0  0  0  0  0              0 V3000
M  V30 BEGIN CTAB
M  V30 COUNTS 34 35 0 0 0
M  V30 BEGIN ATOM
M  V30 1 S 6.4882 0.2458 -1.1475 0
M  V30 2 O 7.0871 1.6071 -0.9309 0
M  V30 3 O 6.6024 -0.1053 -2.6042 0
M  V30 4 O 7.3247 -0.8859 -0.2315 0 CHG=-1
M  V30 5 C 4.7953 0.2536 -0.6652 0
M  V30 6 C 4.3578 1.103 0.3589 0
M  V30 7 C 3.8793 -0.5995 -1.2937 0
M  V30 8 C 3.0151 1.1029 0.7481 0
M  V30 9 C 2.5363 -0.6012 -0.9048 0
M  V30 10 C 2.0954 0.2406 0.1322 0
M  V30 11 N 0.7152 0.2749 0.5354 0
M  V30 12 C -0.1622 -0.8624 0.4771 0
M  V30 13 O 0.3242 -2.0264 0.4677 0
M  V30 14 C -1.6353 -0.6872 0.4807 0
M  V30 15 C -2.2185 0.5342 0.1025 0
M  V30 16 C -2.4717 -1.7546 0.8429 0
M  V30 17 C -3.6126 0.7001 0.0998 0
M  V30 18 C -3.8586 -1.6007 0.845 0
M  V30 19 N -4.1606 1.9659 -0.295 0
M  V30 20 C -4.4444 -0.3786 0.479 0
M  V30 21 C -5.9434 -0.2461 0.4922 0
M  V30 22 H 5.0542 1.7655 0.857 0
M  V30 23 H 4.2019 -1.2594 -2.0887 0
M  V30 24 H 2.6921 1.7684 1.5388 0
M  V30 25 H 1.8424 -1.2444 -1.4292 0
M  V30 26 H 0.3638 1.1422 1.0006 0
M  V30 27 H -1.5944 1.3606 -0.2125 0
M  V30 28 H -2.0529 -2.7095 1.1353 0
M  V30 29 H -4.4765 -2.4416 1.1352 0
M  V30 30 H -3.5317 2.7526 -0.5716 0
M  V30 31 H -5.188 2.1444 -0.3207 0
M  V30 32 H -6.2434 0.5624 1.1916 0
M  V30 33 H -6.4362 -1.1849 0.8235 0
M  V30 34 H -6.3086 -0.0092 -0.5289 0
M  V30 END ATOM
M  V30 BEGIN BOND
M  V30 1 2 1 2
M  V30 2 2 1 3
M  V30 3 1 1 4
M  V30 4 1 1 5
M  V30 5 2 5 6
M  V30 6 1 5 7
M  V30 7 1 6 8
M  V30 8 2 7 9
M  V30 9 2 8 10
M  V30 10 1 10 11
M  V30 11 1 11 12
M  V30 12 2 12 13
M  V30 13 1 12 14
M  V30 14 2 14 15
M  V30 15 1 14 16
M  V30 16 1 15 17
M  V30 17 2 16 18
M  V30 18 1 17 19
M  V30 19 2 17 20
M  V30 20 1 20 21
M  V30 21 1 9 10
M  V30 22 1 18 20
M  V30 23 1 6 22
M  V30 24 1 7 23
M  V30 25 1 8 24
M  V30 26 1 9 25
M  V30 27 1 11 26
M  V30 28 1 15 27
M  V30 29 1 16 28
M  V30 30 1 18 29
M  V30 31 1 19 30
M  V30 32 1 19 31
M  V30 33 1 21 32
M  V30 34 1 21 33
M  V30 35 1 21 34
M  V30 END BOND
M  V30 END CTAB
M  END
>  <Structure No>
1983

>  <LogS>
-0.949277587

>  <MMFF94 Energy>
57.205

$$$$
Compound 1984
Actelion Java MolfileCreator 2.0

  0  0  0  0  0  0              0 V3000
M  V30 BEGIN CTAB
M  V30 COUNTS 21 20 0 0 0
M  V30 BEGIN ATOM
M  V30 1 O 0.3093 1.3925 1.083 0
M  V30 2 C 0.0277 0.3284 0.4648 0
M  V30 3 O 1.0117 -0.3573 -0.2527 0
M  V30 4 C -1.3736 -0.2131 0.4952 0 CFG=2
M  V30 5 C 2.3588 0.0957 -0.3327 0
M  V30 6 C -2.3418 0.7966 -0.0726 0
M  V30 7 C -1.7621 -0.5984 1.9255 0
M  V30 8 C 3.1698 -0.8663 -1.1855 0
M  V30 9 C -2.3443 1.104 -1.3734 0
M  V30 10 H -1.4195 -1.1355 -0.1255 0
M  V30 11 H 2.7997 0.1445 0.6864 0
M  V30 12 H 2.3877 1.1076 -0.7923 0
M  V30 13 H -3.0634 1.2827 0.5791 0
M  V30 14 H -1.0534 -1.3567 2.3221 0
M  V30 15 H -1.7478 0.2902 2.5933 0
M  V30 16 H -2.7827 -1.0376 1.937 0
M  V30 17 H 3.1547 -1.88 -0.7321 0
M  V30 18 H 2.7428 -0.9179 -2.2094 0
M  V30 19 H 4.2212 -0.5153 -1.25 0
M  V30 20 H -1.6431 0.637 -2.0584 0
M  V30 21 H -3.0528 1.8296 -1.759 0
M  V30 END ATOM
M  V30 BEGIN BOND
M  V30 1 2 1 2
M  V30 2 1 2 3
M  V30 3 1 2 4
M  V30 4 1 3 5
M  V30 5 1 4 6
M  V30 6 1 4 7
M  V30 7 1 5 8
M  V30 8 2 6 9
M  V30 9 1 4 10
M  V30 10 1 5 11
M  V30 11 1 5 12
M  V30 12 1 6 13
M  V30 13 1 7 14
M  V30 14 1 7 15
M  V30 15 1 7 16
M  V30 16 1 8 17
M  V30 17 1 8 18
M  V30 18 1 8 19
M  V30 19 1 9 20
M  V30 20 1 9 21
M  V30 END BOND
M  V30 BEGIN COLLECTION
M  V30 MDLV30/STEABS ATOMS=(1 4)
M  V30 END COLLECTION
M  V30 END CTAB
M  END
>  <Structure No>
1984

>  <LogS>
-1.576310856

>  <MMFF94 Energy>
23.211

$$$$
Compound 1985
Actelion Java MolfileCreator 2.0

  0  0  0  0  0  0              0 V3000
M  V30 BEGIN CTAB
M  V30 COUNTS 13 12 0 0 0
M  V30 BEGIN ATOM
M  V30 1 S 1.0087 -1.7076 -1.6299 0
M  V30 2 C 0.2966 -0.5994 -0.6495 0
M  V30 3 N 1.0994 0.3041 0.1353 0
M  V30 4 N -1.1379 -0.5523 -0.5932 0
M  V30 5 N 2.504 0.286 0.1048 0
M  V30 6 C -1.8719 0.3904 0.2421 0
M  V30 7 H 0.6409 1.0056 0.756 0
M  V30 8 H -1.6893 -1.2224 -1.1759 0
M  V30 9 H 2.807 0.4513 -0.8819 0
M  V30 10 H 2.8204 -0.6678 0.3928 0
M  V30 11 H -1.6125 0.2312 1.3098 0
M  V30 12 H -1.6267 1.4312 -0.0569 0
M  V30 13 H -2.964 0.2338 0.116 0
M  V30 END ATOM
M  V30 BEGIN BOND
M  V30 1 2 1 2
M  V30 2 1 2 3
M  V30 3 1 2 4
M  V30 4 1 3 5
M  V30 5 1 4 6
M  V30 6 1 3 7
M  V30 7 1 4 8
M  V30 8 1 5 9
M  V30 9 1 5 10
M  V30 10 1 6 11
M  V30 11 1 6 12
M  V30 12 1 6 13
M  V30 END BOND
M  V30 END CTAB
M  END
>  <Structure No>
1985

>  <LogS>
-0.465572855

>  <MMFF94 Energy>
-3.8658

$$$$
Compound 1986
Actelion Java MolfileCreator 2.0

  0  0  0  0  0  0              0 V3000
M  V30 BEGIN CTAB
M  V30 COUNTS 21 22 0 0 0
M  V30 BEGIN ATOM
M  V30 1 S 3.4347 0.5858 0.5858 0
M  V30 2 O 4.2633 -0.5248 1.1676 0
M  V30 3 O 3.437 1.7428 1.545 0
M  V30 4 O 4.0986 1.0707 -0.8786 0 CHG=-1
M  V30 5 C 1.7848 0.0294 0.325 0
M  V30 6 C 0.721 0.9414 0.3662 0
M  V30 7 C 1.5327 -1.322 0.0529 0
M  V30 8 C -0.5946 0.5046 0.1488 0
M  V30 9 C 0.2263 -1.7679 -0.165 0
M  V30 10 C -0.8445 -0.8636 -0.1182 0
M  V30 11 C -1.6664 1.4103 0.1921 0
M  V30 12 C -2.1607 -1.2998 -0.3359 0
M  V30 13 C -2.9727 0.9626 -0.0262 0
M  V30 14 C -3.219 -0.3876 -0.2891 0
M  V30 15 H 0.9192 1.9883 0.5652 0
M  V30 16 H 2.3484 -2.0323 0.0074 0
M  V30 17 H 0.0538 -2.8174 -0.3716 0
M  V30 18 H -1.4946 2.4607 0.3946 0
M  V30 19 H -2.3703 -2.3428 -0.5417 0
M  V30 20 H -3.7964 1.6641 0.0083 0
M  V30 21 H -4.2326 -0.728 -0.4575 0
M  V30 END ATOM
M  V30 BEGIN BOND
M  V30 1 2 1 2
M  V30 2 2 1 3
M  V30 3 1 1 4
M  V30 4 1 1 5
M  V30 5 2 5 6
M  V30 6 1 5 7
M  V30 7 1 6 8
M  V30 8 2 7 9
M  V30 9 1 8 10
M  V30 10 2 8 11
M  V30 11 2 10 12
M  V30 12 1 11 13
M  V30 13 1 12 14
M  V30 14 1 9 10
M  V30 15 2 13 14
M  V30 16 1 6 15
M  V30 17 1 7 16
M  V30 18 1 9 17
M  V30 19 1 11 18
M  V30 20 1 12 19
M  V30 21 1 13 20
M  V30 22 1 14 21
M  V30 END BOND
M  V30 END CTAB
M  END
>  <Structure No>
1986

>  <LogS>
0.230443278

>  <MMFF94 Energy>
56.07

$$$$
Compound 1987
Actelion Java MolfileCreator 2.0

  0  0  0  0  0  0              0 V3000
M  V30 BEGIN CTAB
M  V30 COUNTS 21 20 0 0 0
M  V30 BEGIN ATOM
M  V30 1 O -1.6441 1.4875 -0.1564 0
M  V30 2 C -1.581 0.3065 0.284 0
M  V30 3 O -2.6485 -0.5748 0.0778 0
M  V30 4 C -0.3748 -0.1432 1.0167 0
M  V30 5 C -3.8297 -0.2 -0.6203 0
M  V30 6 C -0.2705 -1.4099 1.4353 0
M  V30 7 C 0.7739 0.8097 1.2369 0
M  V30 8 C 1.6963 0.7839 0.0608 0
M  V30 9 O 1.552 1.6249 -0.8681 0
M  V30 10 O 2.6841 -0.2018 -0.0159 0
M  V30 11 C 3.5777 -0.3057 -1.1173 0
M  V30 12 H -4.3292 0.6428 -0.0974 0
M  V30 13 H -3.5781 0.099 -1.6598 0
M  V30 14 H -4.5236 -1.0647 -0.6529 0
M  V30 15 H 0.62 -1.7544 1.9464 0
M  V30 16 H -1.065 -2.1272 1.2746 0
M  V30 17 H 1.3422 0.5368 2.153 0
M  V30 18 H 0.3932 1.8417 1.3965 0
M  V30 19 H 4.1756 0.6254 -1.2111 0
M  V30 20 H 3.0075 -0.4819 -2.0539 0
M  V30 21 H 4.2655 -1.1595 -0.9492 0
M  V30 END ATOM
M  V30 BEGIN BOND
M  V30 1 2 1 2
M  V30 2 1 2 3
M  V30 3 1 2 4
M  V30 4 1 3 5
M  V30 5 2 4 6
M  V30 6 1 4 7
M  V30 7 1 7 8
M  V30 8 2 8 9
M  V30 9 1 8 10
M  V30 10 1 10 11
M  V30 11 1 5 12
M  V30 12 1 5 13
M  V30 13 1 5 14
M  V30 14 1 6 15
M  V30 15 1 6 16
M  V30 16 1 7 17
M  V30 17 1 7 18
M  V30 18 1 11 19
M  V30 19 1 11 20
M  V30 20 1 11 21
M  V30 END BOND
M  V30 END CTAB
M  END
>  <Structure No>
1987

>  <LogS>
-0.653770318

>  <MMFF94 Energy>
-2.4516

$$$$
Compound 1988
Actelion Java MolfileCreator 2.0

  0  0  0  0  0  0              0 V3000
M  V30 BEGIN CTAB
M  V30 COUNTS 27 27 0 0 0
M  V30 BEGIN ATOM
M  V30 1 O 0.9397 -0.9397 0.0 0
M  V30 2 C 2.2042 -0.3358 0.0582 0
M  V30 3 C -0.249 -0.2792 -0.4265 0
M  V30 4 C 3.2893 -1.1047 0.4989 0
M  V30 5 C 2.4184 1.008 -0.3089 0
M  V30 6 C -1.423 -1.2512 -0.3573 0
M  V30 7 C 4.5694 -0.5471 0.5743 0
M  V30 8 C 3.7003 1.562 -0.2321 0
M  V30 9 O -2.5954 -0.6388 -0.8616 0
M  V30 10 C 4.7748 0.7856 0.209 0
M  V30 11 C -3.3831 -0.13 0.1947 0
M  V30 12 C -4.5589 0.6475 -0.3885 0
M  V30 13 O -5.3434 1.1894 0.6389 0
M  V30 14 H -0.4478 0.5918 0.2339 0
M  V30 15 H -0.1261 0.0719 -1.4742 0
M  V30 16 H 3.1388 -2.1382 0.7842 0
M  V30 17 H 1.604 1.6303 -0.6535 0
M  V30 18 H -1.5328 -1.6465 0.681 0
M  V30 19 H -1.1905 -2.1246 -1.0029 0
M  V30 20 H 5.4018 -1.1485 0.916 0
M  V30 21 H 3.8607 2.5945 -0.5149 0
M  V30 22 H 5.7659 1.2163 0.2676 0
M  V30 23 H -2.7921 0.5591 0.8404 0
M  V30 24 H -3.7822 -0.9663 0.8123 0
M  V30 25 H -5.1733 -0.0168 -1.0381 0
M  V30 26 H -4.1722 1.4789 -1.0155 0
M  V30 27 H -5.885 0.4429 1.0068 0
M  V30 END ATOM
M  V30 BEGIN BOND
M  V30 1 1 1 2
M  V30 2 1 1 3
M  V30 3 2 2 4
M  V30 4 1 2 5
M  V30 5 1 3 6
M  V30 6 1 4 7
M  V30 7 2 5 8
M  V30 8 1 6 9
M  V30 9 2 7 10
M  V30 10 1 9 11
M  V30 11 1 11 12
M  V30 12 1 12 13
M  V30 13 1 8 10
M  V30 14 1 3 14
M  V30 15 1 3 15
M  V30 16 1 4 16
M  V30 17 1 5 17
M  V30 18 1 6 18
M  V30 19 1 6 19
M  V30 20 1 7 20
M  V30 21 1 8 21
M  V30 22 1 10 22
M  V30 23 1 11 23
M  V30 24 1 11 24
M  V30 25 1 12 25
M  V30 26 1 12 26
M  V30 27 1 13 27
M  V30 END BOND
M  V30 END CTAB
M  END
>  <Structure No>
1988

>  <LogS>
-0.716525615

>  <MMFF94 Energy>
59.744

$$$$
Compound 1989
Actelion Java MolfileCreator 2.0

  0  0  0  0  0  0              0 V3000
M  V30 BEGIN CTAB
M  V30 COUNTS 32 31 0 0 0
M  V30 BEGIN ATOM
M  V30 1 O 3.8161 0.6222 -3.0364 0
M  V30 2 C 4.0559 0.7278 -1.844 0
M  V30 3 C 2.9383 0.8842 -0.853 0
M  V30 4 C 2.0253 -0.3623 -0.7954 0 CFG=2
M  V30 5 C 0.7859 -0.0656 0.0852 0
M  V30 6 C 2.8082 -1.579 -0.2643 0
M  V30 7 C -0.3683 -1.0553 -0.1555 0
M  V30 8 C -1.5262 -0.9128 0.856 0
M  V30 9 C -2.304 0.4338 0.8423 0
M  V30 10 O -1.4689 1.4511 1.3424 0
M  V30 11 C -3.5288 0.2977 1.77 0
M  V30 12 C -2.7838 0.7911 -0.5809 0
M  V30 13 H 5.0856 0.7201 -1.5019 0
M  V30 14 H 2.3472 1.778 -1.1493 0
M  V30 15 H 3.368 1.0828 0.1532 0
M  V30 16 H 1.6777 -0.5869 -1.8291 0
M  V30 17 H 0.4144 0.9503 -0.1631 0
M  V30 18 H 1.0755 -0.069 1.1594 0
M  V30 19 H 3.7037 -1.7713 -0.8914 0
M  V30 20 H 3.1392 -1.4058 0.7819 0
M  V30 21 H 2.1906 -2.4984 -0.2978 0
M  V30 22 H -0.7458 -0.9523 -1.1947 0
M  V30 23 H 0.0088 -2.0935 -0.0602 0
M  V30 24 H -2.2406 -1.7406 0.6489 0
M  V30 25 H -1.1256 -1.0907 1.8788 0
M  V30 26 H -1.9711 2.3076 1.3087 0
M  V30 27 H -3.2044 0.0498 2.8036 0
M  V30 28 H -4.2105 -0.5027 1.4096 0
M  V30 29 H -4.1004 1.2501 1.8081 0
M  V30 30 H -3.3279 -0.0635 -1.0372 0
M  V30 31 H -1.9249 1.0627 -1.2294 0
M  V30 32 H -3.4672 1.6672 -0.5545 0
M  V30 END ATOM
M  V30 BEGIN BOND
M  V30 1 2 1 2
M  V30 2 1 2 3
M  V30 3 1 3 4
M  V30 4 1 4 5
M  V30 5 1 4 6
M  V30 6 1 5 7
M  V30 7 1 7 8
M  V30 8 1 8 9
M  V30 9 1 9 10
M  V30 10 1 9 11
M  V30 11 1 9 12
M  V30 12 1 2 13
M  V30 13 1 3 14
M  V30 14 1 3 15
M  V30 15 1 4 16
M  V30 16 1 5 17
M  V30 17 1 5 18
M  V30 18 1 6 19
M  V30 19 1 6 20
M  V30 20 1 6 21
M  V30 21 1 7 22
M  V30 22 1 7 23
M  V30 23 1 8 24
M  V30 24 1 8 25
M  V30 25 1 10 26
M  V30 26 1 11 27
M  V30 27 1 11 28
M  V30 28 1 11 29
M  V30 29 1 12 30
M  V30 30 1 12 31
M  V30 31 1 12 32
M  V30 END BOND
M  V30 BEGIN COLLECTION
M  V30 MDLV30/STEABS ATOMS=(1 4)
M  V30 END COLLECTION
M  V30 END CTAB
M  END
>  <Structure No>
1989

>  <LogS>
-0.692136567

>  <MMFF94 Energy>
17.755

$$$$
Compound 1990
Actelion Java MolfileCreator 2.0

  0  0  0  0  0  0              0 V3000
M  V30 BEGIN CTAB
M  V30 COUNTS 23 22 0 0 0
M  V30 BEGIN ATOM
M  V30 1 N 0.0 -0.0759 -0.0759 0 CHG=1
M  V30 2 C -1.2059 -0.7286 0.4614 0
M  V30 3 C 1.1398 -1.0082 -0.0623 0
M  V30 4 C -2.3743 0.2597 0.618 0
M  V30 5 C 2.3737 -0.4192 -0.767 0
M  V30 6 C -2.9238 0.7428 -0.7234 0
M  V30 7 C 2.9919 0.7485 4.0E-4 0
M  V30 8 H 0.2272 0.7579 0.5138 0
M  V30 9 H -0.18 0.2273 -1.061 0
M  V30 10 H -1.5175 -1.5678 -0.2006 0
M  V30 11 H -0.987 -1.1538 1.4671 0
M  V30 12 H 1.4053 -1.2771 0.9852 0
M  V30 13 H 0.8641 -1.9472 -0.5936 0
M  V30 14 H -2.0557 1.134 1.2259 0
M  V30 15 H -3.1946 -0.2508 1.1676 0
M  V30 16 H 3.1395 -1.2195 -0.8609 0
M  V30 17 H 2.1053 -0.0889 -1.7938 0
M  V30 18 H -3.8402 1.3458 -0.5505 0
M  V30 19 H -2.183 1.3849 -1.2435 0
M  V30 20 H -3.1864 -0.1207 -1.3705 0
M  V30 21 H 3.9457 1.0446 -0.4848 0
M  V30 22 H 2.3142 1.6273 -0.008 0
M  V30 23 H 3.2063 0.4548 1.05 0
M  V30 END ATOM
M  V30 BEGIN BOND
M  V30 1 1 1 2
M  V30 2 1 1 3
M  V30 3 1 2 4
M  V30 4 1 3 5
M  V30 5 1 4 6
M  V30 6 1 5 7
M  V30 7 1 1 8
M  V30 8 1 1 9
M  V30 9 1 2 10
M  V30 10 1 2 11
M  V30 11 1 3 12
M  V30 12 1 3 13
M  V30 13 1 4 14
M  V30 14 1 4 15
M  V30 15 1 5 16
M  V30 16 1 5 17
M  V30 17 1 6 18
M  V30 18 1 6 19
M  V30 19 1 6 20
M  V30 20 1 7 21
M  V30 21 1 7 22
M  V30 22 1 7 23
M  V30 END BOND
M  V30 END CTAB
M  END
>  <Structure No>
1990

>  <LogS>
-0.461082427

>  <MMFF94 Energy>
-1.783

$$$$
Compound 1991
Actelion Java MolfileCreator 2.0

  0  0  0  0  0  0              0 V3000
M  V30 BEGIN CTAB
M  V30 COUNTS 14 14 0 0 0
M  V30 BEGIN ATOM
M  V30 1 N 2.3231 -0.1547 0.0 0
M  V30 2 C 0.8955 -0.076 -0.0184 0
M  V30 3 C 0.2586 1.1581 -0.2191 0
M  V30 4 C 0.1218 -1.2322 0.1638 0
M  V30 5 C -1.1379 1.2335 -0.2369 0
M  V30 6 C -1.2745 -1.1534 0.1455 0
M  V30 7 C -1.9041 0.0785 -0.0547 0
M  V30 8 H 2.9074 0.7003 -0.1347 0
M  V30 9 H 2.8061 -1.0686 0.1487 0
M  V30 10 H 0.843 2.0584 -0.361 0
M  V30 11 H 0.5997 -2.191 0.3197 0
M  V30 12 H -1.626 2.187 -0.3919 0
M  V30 13 H -1.8684 -2.0472 0.2865 0
M  V30 14 H -2.9847 0.1382 -0.0686 0
M  V30 END ATOM
M  V30 BEGIN BOND
M  V30 1 1 1 2
M  V30 2 2 2 3
M  V30 3 1 2 4
M  V30 4 1 3 5
M  V30 5 2 4 6
M  V30 6 2 5 7
M  V30 7 1 6 7
M  V30 8 1 1 8
M  V30 9 1 1 9
M  V30 10 1 3 10
M  V30 11 1 4 11
M  V30 12 1 5 12
M  V30 13 1 6 13
M  V30 14 1 7 14
M  V30 END BOND
M  V30 END CTAB
M  END
>  <Structure No>
1991

>  <LogS>
-0.425016895

>  <MMFF94 Energy>
8.1449

$$$$
Compound 1992
Actelion Java MolfileCreator 2.0

  0  0  0  0  0  0              0 V3000
M  V30 BEGIN CTAB
M  V30 COUNTS 19 19 0 0 0
M  V30 BEGIN ATOM
M  V30 1 S 2.6925 -0.8679 -0.7811 0
M  V30 2 O 3.4878 0.3173 -1.2514 0
M  V30 3 O 2.6146 -1.8703 -1.8982 0
M  V30 4 O 3.4552 -1.564 0.5433 0 CHG=-1
M  V30 5 C 1.0711 -0.3568 -0.3211 0
M  V30 6 C -0.0062 -1.2419 -0.4471 0
M  V30 7 C 0.8596 0.9275 0.1941 0
M  V30 8 C -1.3024 -0.8474 -0.0734 0
M  V30 9 C -0.4285 1.3418 0.5737 0
M  V30 10 C -2.4423 -1.7819 -0.21 0
M  V30 11 C -1.5042 0.4475 0.4348 0
M  V30 12 C -0.653 2.7013 1.1151 0
M  V30 13 O -2.2677 -2.9437 -0.665 0
M  V30 14 O -3.7235 -1.3906 0.1618 0 CHG=-1
M  V30 15 O 0.3069 3.5074 1.242 0
M  V30 16 O -1.9278 3.1087 1.4918 0 CHG=-1
M  V30 17 H 0.1687 -2.2378 -0.8346 0
M  V30 18 H 1.7009 1.6011 0.3001 0
M  V30 19 H -2.4999 0.7592 0.7251 0
M  V30 END ATOM
M  V30 BEGIN BOND
M  V30 1 2 1 2
M  V30 2 2 1 3
M  V30 3 1 1 4
M  V30 4 1 1 5
M  V30 5 2 5 6
M  V30 6 1 5 7
M  V30 7 1 6 8
M  V30 8 2 7 9
M  V30 9 1 8 10
M  V30 10 2 8 11
M  V30 11 1 9 12
M  V30 12 2 10 13
M  V30 13 1 10 14
M  V30 14 2 12 15
M  V30 15 1 12 16
M  V30 16 1 9 11
M  V30 17 1 6 17
M  V30 18 1 7 18
M  V30 19 1 11 19
M  V30 END BOND
M  V30 END CTAB
M  END
>  <Structure No>
1992

>  <LogS>
0.109395948

>  <MMFF94 Energy>
226.19

$$$$
Compound 1993
Actelion Java MolfileCreator 2.0

  0  0  0  0  0  0              0 V3000
M  V30 BEGIN CTAB
M  V30 COUNTS 110 118 0 0 0
M  V30 BEGIN ATOM
M  V30 1 Cl -4.8484 3.2015 -2.5953 0
M  V30 2 C -5.1369 1.7748 -1.6239 0
M  V30 3 N -6.3928 1.2821 -1.4919 0
M  V30 4 N -4.0986 1.1613 -1.0044 0
M  V30 5 C -6.6136 0.1743 -0.7378 0
M  V30 6 C -4.3086 0.0458 -0.2531 0
M  V30 7 N -5.5704 -0.4357 -0.1128 0
M  V30 8 N -7.9498 -0.32 -0.5813 0
M  V30 9 N -3.2277 -0.5991 0.4336 0
M  V30 10 C -8.2636 -1.4621 0.2279 0
M  V30 11 C -1.8376 -0.3668 0.153 0
M  V30 12 C -9.2301 -1.373 1.2543 0
M  V30 13 C -7.6657 -2.6982 -0.0513 0
M  V30 14 C -1.3857 -0.0905 -1.1495 0
M  V30 15 C -0.9018 -0.4845 1.1887 0
M  V30 16 C -9.8218 -0.0835 1.6727 0
M  V30 17 C -9.6215 -2.534 1.9499 0
M  V30 18 C -8.029 -3.8439 0.6627 0
M  V30 19 C -0.0271 0.1003 -1.3987 0
M  V30 20 C 0.4601 -0.3044 0.9381 0
M  V30 21 O -9.2377 1.003 1.4169 0
M  V30 22 C -11.0453 -0.0978 2.5088 0
M  V30 23 C -10.6718 -2.469 2.9962 0
M  V30 24 C -9.0089 -3.7596 1.657 0
M  V30 25 S -7.2611 -5.3884 0.3105 0
M  V30 26 C 0.9083 -0.0278 -0.3644 0
M  V30 27 N -11.8354 0.9357 2.616 0
M  V30 28 C -11.3561 -1.3408 3.2524 0
M  V30 29 O -6.7458 -5.3961 -1.1015 0
M  V30 30 O -8.2574 -6.5028 0.4654 0
M  V30 31 O -5.9831 -5.6275 1.3721 0 CHG=-1
M  V30 32 N 2.3036 0.144 -0.6522 0
M  V30 33 N -11.7302 2.0922 1.8202 0
M  V30 34 S -12.6464 -1.3475 4.4565 0
M  V30 35 C 3.3178 -0.7648 -0.2088 0
M  V30 36 C -11.7464 2.0307 0.3809 0
M  V30 37 O -12.263 -0.4606 5.603 0
M  V30 38 O -12.8898 -2.7357 4.9707 0
M  V30 39 O -14.0632 -0.7828 3.7599 0 CHG=-1
M  V30 40 N 3.0063 -1.8397 0.5632 0
M  V30 41 N 4.5994 -0.5826 -0.6144 0
M  V30 42 C -11.1083 3.025 -0.3997 0
M  V30 43 C -12.3753 0.9481 -0.2654 0
M  V30 44 C 3.9726 -2.7084 0.9462 0
M  V30 45 C 5.57 -1.4608 -0.2467 0
M  V30 46 S -10.2907 4.4036 0.345 0
M  V30 47 C -11.1009 2.9038 -1.7978 0
M  V30 48 C -12.3577 0.8427 -1.6565 0
M  V30 49 Cl 3.5704 -4.0815 1.9505 0
M  V30 50 N 5.2546 -2.5158 0.5454 0
M  V30 51 N 6.925 -1.2621 -0.6679 0
M  V30 52 O -9.3314 3.9159 1.3941 0
M  V30 53 O -11.307 5.3163 0.97 0
M  V30 54 O -9.4223 5.2548 -0.8117 0 CHG=-1
M  V30 55 C -11.7154 1.8141 -2.421 0
M  V30 56 C 7.3052 -0.2404 -1.6032 0
M  V30 57 C 8.3779 0.6442 -1.3307 0
M  V30 58 C 6.645 -0.1623 -2.8402 0
M  V30 59 C 9.1134 0.6436 -0.0452 0
M  V30 60 C 8.7873 1.5655 -2.3183 0
M  V30 61 C 7.0316 0.7768 -3.8003 0
M  V30 62 O 8.6602 0.0603 0.9769 0
M  V30 63 C 10.413 1.3246 0.0269 0
M  V30 64 C 9.8871 2.5202 -2.0451 0
M  V30 65 C 8.102 1.6369 -3.5368 0
M  V30 66 S 6.1746 0.8601 -5.3368 0
M  V30 67 N 11.3313 0.7344 0.7419 0
M  V30 68 C 10.642 2.4522 -0.9335 0
M  V30 69 O 6.2922 2.2399 -5.9225 0
M  V30 70 O 4.721 0.5534 -5.1217 0
M  V30 71 O 6.8288 -0.2558 -6.4058 0 CHG=-1
M  V30 72 N 12.6906 1.0701 0.8638 0
M  V30 73 S 11.6297 3.8734 -0.5542 0
M  V30 74 C 13.6659 0.0701 1.2013 0
M  V30 75 O 11.7138 4.0659 0.936 0
M  V30 76 O 11.0021 5.1084 -1.1525 0
M  V30 77 O 13.1704 3.683 -1.2023 0 CHG=-1
M  V30 78 C 13.4064 -0.9789 2.1242 0
M  V30 79 C 14.917 0.127 0.5649 0
M  V30 80 S 11.9375 -1.0505 3.1084 0
M  V30 81 C 14.3822 -1.9683 2.3261 0
M  V30 82 C 15.8827 -0.8567 0.7964 0
M  V30 83 O 12.1784 -1.8965 4.3315 0
M  V30 84 O 10.8181 -1.6535 2.306 0
M  V30 85 O 11.5089 0.4926 3.6201 0 CHG=-1
M  V30 86 C 15.608 -1.9122 1.6599 0
M  V30 87 H -8.739 0.242 -0.9794 0
M  V30 88 H -3.4733 -1.2385 1.2276 0
M  V30 89 H -6.9286 -2.7633 -0.8386 0
M  V30 90 H -2.0764 -0.0445 -1.9818 0
M  V30 91 H -1.2315 -0.7016 2.1963 0
M  V30 92 H 0.301 0.3172 -2.4063 0
M  V30 93 H 1.1597 -0.3739 1.7595 0
M  V30 94 H -10.9048 -3.3758 3.5435 0
M  V30 95 H -9.2875 -4.6467 2.2093 0
M  V30 96 H 2.569 0.8523 -1.3727 0
M  V30 97 H -11.8409 3.0221 2.2862 0
M  V30 98 H -12.8786 0.1814 0.3094 0
M  V30 99 H -10.6135 3.646 -2.4173 0
M  V30 100 H -12.8413 0.0026 -2.1425 0
M  V30 101 H 7.6658 -1.8832 -0.2673 0
M  V30 102 H -11.6941 1.7203 -3.4995 0
M  V30 103 H 5.8444 -0.8556 -3.0634 0
M  V30 104 H 10.0381 3.3317 -2.7466 0
M  V30 105 H 8.4011 2.3606 -4.285 0
M  V30 106 H 13.052 1.9958 0.574 0
M  V30 107 H 15.1391 0.9319 -0.1272 0
M  V30 108 H 14.2019 -2.7904 3.0068 0
M  V30 109 H 16.8393 -0.8005 0.293 0
M  V30 110 H 16.3511 -2.6803 1.8282 0
M  V30 END ATOM
M  V30 BEGIN BOND
M  V30 1 1 1 2
M  V30 2 2 2 3
M  V30 3 1 2 4
M  V30 4 1 3 5
M  V30 5 2 4 6
M  V30 6 2 5 7
M  V30 7 1 5 8
M  V30 8 1 6 9
M  V30 9 1 8 10
M  V30 10 1 9 11
M  V30 11 2 10 12
M  V30 12 1 10 13
M  V30 13 2 11 14
M  V30 14 1 11 15
M  V30 15 1 12 16
M  V30 16 1 12 17
M  V30 17 2 13 18
M  V30 18 1 14 19
M  V30 19 2 15 20
M  V30 20 2 16 21
M  V30 21 1 16 22
M  V30 22 1 17 23
M  V30 23 2 17 24
M  V30 24 1 18 25
M  V30 25 2 19 26
M  V30 26 2 22 27
M  V30 27 1 22 28
M  V30 28 2 25 29
M  V30 29 2 25 30
M  V30 30 1 25 31
M  V30 31 1 26 32
M  V30 32 1 27 33
M  V30 33 1 28 34
M  V30 34 1 32 35
M  V30 35 1 33 36
M  V30 36 2 34 37
M  V30 37 2 34 38
M  V30 38 1 34 39
M  V30 39 2 35 40
M  V30 40 1 35 41
M  V30 41 2 36 42
M  V30 42 1 36 43
M  V30 43 1 40 44
M  V30 44 2 41 45
M  V30 45 1 42 46
M  V30 46 1 42 47
M  V30 47 2 43 48
M  V30 48 1 44 49
M  V30 49 2 44 50
M  V30 50 1 45 51
M  V30 51 2 46 52
M  V30 52 2 46 53
M  V30 53 1 46 54
M  V30 54 2 47 55
M  V30 55 1 51 56
M  V30 56 2 56 57
M  V30 57 1 56 58
M  V30 58 1 57 59
M  V30 59 1 57 60
M  V30 60 2 58 61
M  V30 61 2 59 62
M  V30 62 1 59 63
M  V30 63 1 60 64
M  V30 64 2 60 65
M  V30 65 1 61 66
M  V30 66 2 63 67
M  V30 67 1 63 68
M  V30 68 2 66 69
M  V30 69 2 66 70
M  V30 70 1 66 71
M  V30 71 1 67 72
M  V30 72 1 68 73
M  V30 73 1 72 74
M  V30 74 2 73 75
M  V30 75 2 73 76
M  V30 76 1 73 77
M  V30 77 2 74 78
M  V30 78 1 74 79
M  V30 79 1 78 80
M  V30 80 1 78 81
M  V30 81 2 79 82
M  V30 82 2 80 83
M  V30 83 2 80 84
M  V30 84 1 80 85
M  V30 85 2 81 86
M  V30 86 1 6 7
M  V30 87 1 18 24
M  V30 88 1 20 26
M  V30 89 2 23 28
M  V30 90 1 45 50
M  V30 91 1 48 55
M  V30 92 1 61 65
M  V30 93 2 64 68
M  V30 94 1 82 86
M  V30 95 1 8 87
M  V30 96 1 9 88
M  V30 97 1 13 89
M  V30 98 1 14 90
M  V30 99 1 15 91
M  V30 100 1 19 92
M  V30 101 1 20 93
M  V30 102 1 23 94
M  V30 103 1 24 95
M  V30 104 1 32 96
M  V30 105 1 33 97
M  V30 106 1 43 98
M  V30 107 1 47 99
M  V30 108 1 48 100
M  V30 109 1 51 101
M  V30 110 1 55 102
M  V30 111 1 58 103
M  V30 112 1 64 104
M  V30 113 1 65 105
M  V30 114 1 72 106
M  V30 115 1 79 107
M  V30 116 1 81 108
M  V30 117 1 82 109
M  V30 118 1 86 110
M  V30 END BOND
M  V30 END CTAB
M  END
>  <Structure No>
1993

>  <LogS>
-0.630380903

>  <MMFF94 Energy>
237.64

$$$$
Compound 1994
Actelion Java MolfileCreator 2.0

  0  0  0  0  0  0              0 V3000
M  V30 BEGIN CTAB
M  V30 COUNTS 15 15 0 0 0
M  V30 BEGIN ATOM
M  V30 1 N 0.695 -0.0772 -0.0772 0 CHG=1
M  V30 2 C -0.1037 -1.1867 -0.0414 0
M  V30 3 C 0.1508 1.1735 0.022 0
M  V30 4 C 2.1349 -0.2265 -0.2978 0
M  V30 5 C -1.4844 -1.0606 0.1317 0
M  V30 6 C -1.2259 1.3354 0.1962 0
M  V30 7 C -2.0458 0.2094 0.2541 0
M  V30 8 H 0.3234 -2.177 -0.1463 0
M  V30 9 H 0.7797 2.0543 -0.0323 0
M  V30 10 H 2.6964 0.6018 0.1859 0
M  V30 11 H 2.5043 -1.1799 0.138 0
M  V30 12 H 2.3462 -0.2199 -1.3878 0
M  V30 13 H -2.1132 -1.9408 0.1665 0
M  V30 14 H -1.6531 2.3263 0.2813 0
M  V30 15 H -3.1141 0.321 0.3873 0
M  V30 END ATOM
M  V30 BEGIN BOND
M  V30 1 2 1 2
M  V30 2 1 1 3
M  V30 3 1 1 4
M  V30 4 1 2 5
M  V30 5 2 3 6
M  V30 6 2 5 7
M  V30 7 1 6 7
M  V30 8 1 2 8
M  V30 9 1 3 9
M  V30 10 1 4 10
M  V30 11 1 4 11
M  V30 12 1 4 12
M  V30 13 1 5 13
M  V30 14 1 6 14
M  V30 15 1 7 15
M  V30 END BOND
M  V30 END CTAB
M  END
>  <Structure No>
1994

>  <LogS>
0.420182889

>  <MMFF94 Energy>
45.277

$$$$
Compound 1995
Actelion Java MolfileCreator 2.0

  0  0  0  0  0  0              0 V3000
M  V30 BEGIN CTAB
M  V30 COUNTS 76 79 0 0 0
M  V30 BEGIN ATOM
M  V30 1 S -5.5959 -1.9475 -3.1343 0
M  V30 2 O -4.2996 -1.3409 -3.5948 0
M  V30 3 O -6.4927 -2.1058 -4.3309 0
M  V30 4 O -5.3169 -3.4647 -2.4683 0 CHG=-1
M  V30 5 C -6.3579 -0.8934 -1.929 0
M  V30 6 C -5.6485 -0.3341 -0.8345 0
M  V30 7 C -7.7082 -0.5546 -2.1082 0
M  V30 8 N -4.2762 -0.6275 -0.5338 0
M  V30 9 C -6.2912 0.5778 0.0104 0
M  V30 10 C -8.352 0.3453 -1.2481 0
M  V30 11 N -3.6942 -1.7101 -0.855 0
M  V30 12 C -7.6426 0.9261 -0.1692 0
M  V30 13 C -9.6947 0.6838 -1.4695 0
M  V30 14 C -2.3211 -1.9733 -0.5283 0
M  V30 15 C -8.3096 1.8368 0.6928 0
M  V30 16 C -10.3404 1.5993 -0.6357 0
M  V30 17 C -1.6049 -1.2277 0.4418 0
M  V30 18 C -1.6677 -2.9972 -1.2242 0
M  V30 19 S -7.5057 2.5858 2.0873 0
M  V30 20 C -9.6529 2.1604 0.4441 0
M  V30 21 S -12.0227 2.0278 -0.9336 0
M  V30 22 N -2.2671 -0.2669 1.2795 0
M  V30 23 C -0.245 -1.5023 0.6561 0
M  V30 24 C -0.316 -3.2655 -0.9976 0
M  V30 25 O -7.0143 1.516 3.0217 0
M  V30 26 O -8.4614 3.4723 2.8358 0
M  V30 27 O -6.2119 3.5191 1.5608 0 CHG=-1
M  V30 28 O -12.3095 1.976 -2.4082 0
M  V30 29 O -12.2908 3.4217 -0.4395 0
M  V30 30 O -13.0279 0.951 -0.1278 0 CHG=-1
M  V30 31 C -1.7881 1.0725 1.4605 0
M  V30 32 C 0.4117 -2.5038 -0.0767 0
M  V30 33 O -0.7449 1.4649 0.8717 0
M  V30 34 N -2.5117 1.9805 2.2911 0
M  V30 35 N 1.7965 -2.8064 0.1585 0
M  V30 36 C 2.7797 -1.8094 0.4651 0
M  V30 37 N 2.5656 -0.5057 0.1469 0
M  V30 38 N 3.953 -2.1752 1.0433 0
M  V30 39 C 3.5119 0.4261 0.4163 0
M  V30 40 C 4.9021 -1.2441 1.3234 0
M  V30 41 F 3.2936 1.7232 0.0961 0
M  V30 42 N 4.6781 0.057 1.0027 0
M  V30 43 N 6.1218 -1.6434 1.9623 0
M  V30 44 C 7.1619 -0.6977 2.3699 0
M  V30 45 C 8.5097 -1.0808 1.7522 0
M  V30 46 O 8.3943 -1.2994 0.3581 0
M  V30 47 C 8.5518 -0.0982 -0.3731 0
M  V30 48 C 10.0256 0.1354 -0.7162 0
M  V30 49 S 10.2057 1.4649 -1.8978 0
M  V30 50 O 9.2506 2.5851 -1.5893 0
M  V30 51 O 9.9168 0.9424 -3.2779 0
M  V30 52 C 11.8541 2.0739 -1.8545 0
M  V30 53 C 12.2956 2.7808 -0.8122 0
M  V30 54 H -8.2629 -0.9811 -2.935 0
M  V30 55 H -5.7117 0.998 0.8192 0
M  V30 56 H -10.2381 0.242 -2.2968 0
M  V30 57 H -2.2063 -3.5784 -1.962 0
M  V30 58 H -10.1706 2.8559 1.091 0
M  V30 59 H -3.1613 -0.5415 1.7438 0
M  V30 60 H 0.2864 -0.9668 1.4322 0
M  V30 61 H 0.1704 -4.0569 -1.5543 0
M  V30 62 H -2.1801 2.9627 2.4105 0
M  V30 63 H -3.3797 1.6741 2.7828 0
M  V30 64 H 2.1167 -3.7963 0.0574 0
M  V30 65 H 6.2493 -2.6517 2.2056 0
M  V30 66 H 7.2508 -0.7188 3.4769 0
M  V30 67 H 6.9029 0.342 2.0812 0
M  V30 68 H 9.2775 -0.317 2.0129 0
M  V30 69 H 8.8471 -2.0316 2.2171 0
M  V30 70 H 7.9786 -0.2046 -1.3198 0
M  V30 71 H 8.1302 0.7888 0.1511 0
M  V30 72 H 10.4628 -0.7878 -1.1513 0
M  V30 73 H 10.5899 0.3925 0.2033 0
M  V30 74 H 12.5202 1.8671 -2.6867 0
M  V30 75 H 11.6455 2.9828 0.0356 0
M  V30 76 H 13.3166 3.1506 -0.7987 0
M  V30 END ATOM
M  V30 BEGIN BOND
M  V30 1 2 1 2
M  V30 2 2 1 3
M  V30 3 1 1 4
M  V30 4 1 1 5
M  V30 5 1 5 6
M  V30 6 2 5 7
M  V30 7 1 6 8
M  V30 8 2 6 9
M  V30 9 1 7 10
M  V30 10 2 8 11
M  V30 11 1 9 12
M  V30 12 2 10 13
M  V30 13 1 11 14
M  V30 14 2 12 15
M  V30 15 1 13 16
M  V30 16 2 14 17
M  V30 17 1 14 18
M  V30 18 1 15 19
M  V30 19 1 15 20
M  V30 20 1 16 21
M  V30 21 1 17 22
M  V30 22 1 17 23
M  V30 23 2 18 24
M  V30 24 2 19 25
M  V30 25 2 19 26
M  V30 26 1 19 27
M  V30 27 2 21 28
M  V30 28 2 21 29
M  V30 29 1 21 30
M  V30 30 1 22 31
M  V30 31 2 23 32
M  V30 32 2 31 33
M  V30 33 1 31 34
M  V30 34 1 32 35
M  V30 35 1 35 36
M  V30 36 2 36 37
M  V30 37 1 36 38
M  V30 38 1 37 39
M  V30 39 2 38 40
M  V30 40 1 39 41
M  V30 41 2 39 42
M  V30 42 1 40 43
M  V30 43 1 43 44
M  V30 44 1 44 45
M  V30 45 1 45 46
M  V30 46 1 46 47
M  V30 47 1 47 48
M  V30 48 1 48 49
M  V30 49 2 49 50
M  V30 50 2 49 51
M  V30 51 1 49 52
M  V30 52 2 52 53
M  V30 53 1 10 12
M  V30 54 2 16 20
M  V30 55 1 24 32
M  V30 56 1 40 42
M  V30 57 1 7 54
M  V30 58 1 9 55
M  V30 59 1 13 56
M  V30 60 1 18 57
M  V30 61 1 20 58
M  V30 62 1 22 59
M  V30 63 1 23 60
M  V30 64 1 24 61
M  V30 65 1 34 62
M  V30 66 1 34 63
M  V30 67 1 35 64
M  V30 68 1 43 65
M  V30 69 1 44 66
M  V30 70 1 44 67
M  V30 71 1 45 68
M  V30 72 1 45 69
M  V30 73 1 47 70
M  V30 74 1 47 71
M  V30 75 1 48 72
M  V30 76 1 48 73
M  V30 77 1 52 74
M  V30 78 1 53 75
M  V30 79 1 53 76
M  V30 END BOND
M  V30 END CTAB
M  END
>  <Structure No>
1995

>  <LogS>
-0.414559724

>  <MMFF94 Energy>
-71.839

$$$$
Compound 1996
Actelion Java MolfileCreator 2.0

  0  0  0  0  0  0              0 V3000
M  V30 BEGIN CTAB
M  V30 COUNTS 19 19 0 0 0
M  V30 BEGIN ATOM
M  V30 1 N 0.5487 -1.5683 0.6271 0
M  V30 2 C -0.0012 -0.3408 0.4154 0
M  V30 3 C 1.8292 -1.8492 0.2749 0
M  V30 4 C 0.7834 0.6574 -0.2086 0
M  V30 5 C -1.4392 -0.1226 0.8078 0
M  V30 6 C 2.6059 -0.8612 -0.3257 0
M  V30 7 N 2.0675 0.3641 -0.5522 0
M  V30 8 C 0.2622 2.0379 -0.4801 0
M  V30 9 C -2.3776 -0.5463 -0.3174 0
M  V30 10 H 2.239 -2.8331 0.4597 0
M  V30 11 H -1.6671 -0.7284 1.7116 0
M  V30 12 H -1.629 0.938 1.0746 0
M  V30 13 H 3.6288 -1.0656 -0.6116 0
M  V30 14 H 0.0809 2.5668 0.4789 0
M  V30 15 H 1.0009 2.623 -1.0682 0
M  V30 16 H -0.6803 1.9874 -1.063 0
M  V30 17 H -3.4304 -0.3816 -0.005 0
M  V30 18 H -2.2402 -1.6245 -0.5476 0
M  V30 19 H -2.1821 0.0494 -1.2337 0
M  V30 END ATOM
M  V30 BEGIN BOND
M  V30 1 2 1 2
M  V30 2 1 1 3
M  V30 3 1 2 4
M  V30 4 1 2 5
M  V30 5 2 3 6
M  V30 6 2 4 7
M  V30 7 1 4 8
M  V30 8 1 5 9
M  V30 9 1 6 7
M  V30 10 1 3 10
M  V30 11 1 5 11
M  V30 12 1 5 12
M  V30 13 1 6 13
M  V30 14 1 8 14
M  V30 15 1 8 15
M  V30 16 1 8 16
M  V30 17 1 9 17
M  V30 18 1 9 18
M  V30 19 1 9 19
M  V30 END BOND
M  V30 END CTAB
M  END
>  <Structure No>
1996

>  <LogS>
0.444510788

>  <MMFF94 Energy>
56.771

$$$$
Compound 1997
Actelion Java MolfileCreator 2.0

  0  0  0  0  0  0              0 V3000
M  V30 BEGIN CTAB
M  V30 COUNTS 5 4 0 0 0
M  V30 BEGIN ATOM
M  V30 1 O 0.8342 -0.278 0.417 0
M  V30 2 N -0.4968 -0.0268 0.3023 0
M  V30 3 H 1.2429 -0.0452 -0.4593 0
M  V30 4 H -0.8735 -0.6043 -0.4854 0
M  V30 5 H -0.6205 0.9826 0.0539 0
M  V30 END ATOM
M  V30 BEGIN BOND
M  V30 1 1 1 2
M  V30 2 1 1 3
M  V30 3 1 2 4
M  V30 4 1 2 5
M  V30 END BOND
M  V30 END CTAB
M  END
>  <Structure No>
1997

>  <LogS>
0.689550356

>  <MMFF94 Energy>
25.004

$$$$
Compound 1998
Actelion Java MolfileCreator 2.0

  0  0  0  0  0  0              0 V3000
M  V30 BEGIN CTAB
M  V30 COUNTS 21 20 0 0 0
M  V30 BEGIN ATOM
M  V30 1 O -2.8642 -1.7797 0.0773 0
M  V30 2 C -2.6051 -0.5528 -0.0535 0
M  V30 3 N -1.2377 -0.1217 -0.1527 0
M  V30 4 C -3.7343 0.396 -0.1266 0
M  V30 5 C -0.1352 -1.0585 0.0708 0
M  V30 6 C -3.6077 1.7116 0.0415 0
M  V30 7 N 1.1609 -0.3886 -0.0511 0
M  V30 8 C 2.387 -1.1084 0.1579 0
M  V30 9 O 2.3587 -2.3607 0.2985 0
M  V30 10 C 3.6989 -0.4312 0.1881 0
M  V30 11 C 3.8506 0.8815 0.3573 0
M  V30 12 H -1.0277 0.8582 -0.4433 0
M  V30 13 H -4.7277 -0.0058 -0.2856 0
M  V30 14 H -0.2262 -1.4879 1.092 0
M  V30 15 H -0.1953 -1.8812 -0.6739 0
M  V30 16 H -4.4845 2.3442 -0.0108 0
M  V30 17 H -2.6586 2.1789 0.2605 0
M  V30 18 H 1.1959 0.6106 -0.349 0
M  V30 19 H 4.5895 -1.0428 0.1087 0
M  V30 20 H 3.0122 1.5478 0.5008 0
M  V30 21 H 4.8459 1.3057 0.3843 0
M  V30 END ATOM
M  V30 BEGIN BOND
M  V30 1 2 1 2
M  V30 2 1 2 3
M  V30 3 1 2 4
M  V30 4 1 3 5
M  V30 5 2 4 6
M  V30 6 1 5 7
M  V30 7 1 7 8
M  V30 8 2 8 9
M  V30 9 1 8 10
M  V30 10 2 10 11
M  V30 11 1 3 12
M  V30 12 1 4 13
M  V30 13 1 5 14
M  V30 14 1 5 15
M  V30 15 1 6 16
M  V30 16 1 6 17
M  V30 17 1 7 18
M  V30 18 1 10 19
M  V30 19 1 11 20
M  V30 20 1 11 21
M  V30 END BOND
M  V30 END CTAB
M  END
>  <Structure No>
1998

>  <LogS>
-0.655242676

>  <MMFF94 Energy>
-101.22

$$$$
Compound 1999
Actelion Java MolfileCreator 2.0

  0  0  0  0  0  0              0 V3000
M  V30 BEGIN CTAB
M  V30 COUNTS 22 21 0 0 0
M  V30 BEGIN ATOM
M  V30 1 O 2.1474 2.1474 -1.4312 0
M  V30 2 C 2.7442 1.0527 -1.6065 0
M  V30 3 O 3.8345 1.0034 -2.4662 0 CHG=-1
M  V30 4 C 2.3025 -0.1713 -0.9123 0
M  V30 5 O 2.9236 -1.2468 -1.1269 0
M  V30 6 C 1.1062 -0.1935 0.0138 0 CFG=1
M  V30 7 O 1.1117 0.9421 0.8417 0
M  V30 8 C -0.2109 -0.2677 -0.7974 0 CFG=2
M  V30 9 O -0.5084 0.9926 -1.3448 0
M  V30 10 C -1.4176 -0.8044 0.0202 0 CFG=1
M  V30 11 O -1.1689 -2.1377 0.3876 0
M  V30 12 C -1.7514 0.0214 1.2761 0
M  V30 13 O -2.0142 1.3546 0.9353 0
M  V30 14 H 1.1817 -1.1075 0.6488 0
M  V30 15 H 1.8363 0.8088 1.5078 0
M  V30 16 H -0.0499 -0.9921 -1.6325 0
M  V30 17 H -1.1424 0.8419 -2.094 0
M  V30 18 H -2.3086 -0.7772 -0.6512 0
M  V30 19 H -2.0471 -2.5485 0.6033 0
M  V30 20 H -2.6545 -0.4136 1.7599 0
M  V30 21 H -0.9177 -0.0337 2.0099 0
M  V30 22 H -2.1968 1.8266 1.7891 0
M  V30 END ATOM
M  V30 BEGIN BOND
M  V30 1 2 1 2
M  V30 2 1 2 3
M  V30 3 1 2 4
M  V30 4 2 4 5
M  V30 5 1 4 6
M  V30 6 1 6 7
M  V30 7 1 6 8
M  V30 8 1 8 9
M  V30 9 1 8 10
M  V30 10 1 10 11
M  V30 11 1 10 12
M  V30 12 1 12 13
M  V30 13 1 6 14
M  V30 14 1 7 15
M  V30 15 1 8 16
M  V30 16 1 9 17
M  V30 17 1 10 18
M  V30 18 1 11 19
M  V30 19 1 12 20
M  V30 20 1 12 21
M  V30 21 1 13 22
M  V30 END BOND
M  V30 BEGIN COLLECTION
M  V30 MDLV30/STEABS ATOMS=(3 6 8 10)
M  V30 END COLLECTION
M  V30 END CTAB
M  END
>  <Structure No>
1999

>  <LogS>
0.237320765

>  <MMFF94 Energy>
134.16

$$$$
Compound 2000
Actelion Java MolfileCreator 2.0

  0  0  0  0  0  0              0 V3000
M  V30 BEGIN CTAB
M  V30 COUNTS 19 19 0 0 0
M  V30 BEGIN ATOM
M  V30 1 O -1.891 -0.4725 0.3149 0
M  V30 2 C -1.4699 0.8301 -0.0342 0
M  V30 3 C -0.8199 -1.1726 0.9138 0
M  V30 4 C -0.3418 0.7784 -1.0788 0
M  V30 5 C 0.3454 -1.3396 -0.0761 0
M  V30 6 N 0.8034 -0.0366 -0.6118 0 CHG=1
M  V30 7 O 1.5887 -0.2925 -1.6905 0 CHG=-1
M  V30 8 C 1.6385 0.6955 0.3625 0
M  V30 9 H -2.334 1.3685 -0.4776 0
M  V30 10 H -1.1645 1.4082 0.8659 0
M  V30 11 H -0.4888 -0.6739 1.8516 0
M  V30 12 H -1.1818 -2.1818 1.2029 0
M  V30 13 H -0.0181 1.8143 -1.3261 0
M  V30 14 H -0.7612 0.338 -2.0124 0
M  V30 15 H -0.0067 -1.9871 -0.9116 0
M  V30 16 H 1.1808 -1.8802 0.4227 0
M  V30 17 H 2.5226 0.087 0.655 0
M  V30 18 H 2.0179 1.6425 -0.0812 0
M  V30 19 H 1.0743 0.9485 1.2835 0
M  V30 END ATOM
M  V30 BEGIN BOND
M  V30 1 1 1 2
M  V30 2 1 1 3
M  V30 3 1 2 4
M  V30 4 1 3 5
M  V30 5 1 4 6
M  V30 6 1 6 7
M  V30 7 1 6 8
M  V30 8 1 5 6
M  V30 9 1 2 9
M  V30 10 1 2 10
M  V30 11 1 3 11
M  V30 12 1 3 12
M  V30 13 1 4 13
M  V30 14 1 4 14
M  V30 15 1 5 15
M  V30 16 1 5 16
M  V30 17 1 8 17
M  V30 18 1 8 18
M  V30 19 1 8 19
M  V30 END BOND
M  V30 END CTAB
M  END
>  <Structure No>
2000

>  <LogS>
0.456309929

>  <MMFF94 Energy>
32.726

$$$$
Compound 2001
Actelion Java MolfileCreator 2.0

  0  0  0  0  0  0              0 V3000
M  V30 BEGIN CTAB
M  V30 COUNTS 54 50 0 0 0
M  V30 BEGIN ATOM
M  V30 1 O -1.6115 -0.5369 -1.9955 0
M  V30 2 C -1.3453 -1.0214 -0.8628 0
M  V30 3 O -2.0969 -2.091 -0.3899 0 CHG=-1
M  V30 4 C -0.2166 -0.4505 -0.0313 0
M  V30 5 O -0.1684 -1.1583 1.1883 0
M  V30 6 C -0.4756 1.0625 0.2241 0
M  V30 7 C 1.1062 -0.6679 -0.8142 0
M  V30 8 C -1.7522 1.3028 0.9762 0
M  V30 9 C 2.3271 -0.2212 -0.0639 0
M  V30 10 O -1.77 1.2344 2.2334 0
M  V30 11 O -2.9281 1.5668 0.2855 0 CHG=-1
M  V30 12 O 2.7815 0.9418 -0.2258 0
M  V30 13 O 2.9517 -1.0849 0.8269 0 CHG=-1
M  V30 14 O 2.1646 0.1017 0.1766 0
M  V30 15 C 0.8383 0.5026 -0.0338 0
M  V30 16 C -0.1251 -0.4713 0.6514 0
M  V30 17 N -1.5138 -0.0503 0.4703 0 CHG=1
M  V30 18 O 2.1428 -0.0326 -0.3309 0
M  V30 19 C 0.924 0.4103 0.2004 0
M  V30 20 C -0.2338 -0.4155 -0.3689 0
M  V30 21 N -1.518 0.0545 0.1492 0 CHG=1
M  V30 22 O 1.3316 -0.9085 -0.8277 0
M  V30 23 C 0.988 -0.3516 0.4122 0
M  V30 24 C -0.2145 0.5896 0.2745 0
M  V30 25 N -1.4078 -0.1279 -0.1746 0 CHG=1
M  V30 26 H 0.4491 -0.6835 1.8033 0
M  V30 27 H -0.5164 1.6115 -0.7418 0
M  V30 28 H 0.3592 1.5029 0.8101 0
M  V30 29 H 1.2226 -1.7492 -1.0474 0
M  V30 30 H 1.0661 -0.1275 -1.7861 0
M  V30 31 H 2.3298 -0.6646 -0.4322 0
M  V30 32 H 0.62 0.5585 -1.1247 0
M  V30 33 H 0.7046 1.518 0.3958 0
M  V30 34 H 0.0114 -1.4888 0.2229 0
M  V30 35 H 0.1093 -0.517 1.7381 0
M  V30 36 H -2.1437 -0.7352 0.9471 0
M  V30 37 H -1.7512 -0.0243 -0.5479 0
M  V30 38 H -1.6607 0.8952 0.8925 0
M  V30 39 H 2.3673 -0.8776 0.1395 0
M  V30 40 H 0.7868 1.4775 -0.0748 0
M  V30 41 H 0.9384 0.3401 1.3119 0
M  V30 42 H -0.094 -1.4848 -0.0955 0
M  V30 43 H -0.2307 -0.3367 -1.4786 0
M  V30 44 H -2.2846 -0.5293 -0.2562 0
M  V30 45 H -1.6722 1.0524 -0.1237 0
M  V30 46 H -1.5393 -0.0348 1.1911 0
M  V30 47 H 1.786 -0.1926 -1.344 0
M  V30 48 H 0.7405 -1.1717 1.1191 0
M  V30 49 H 1.8533 0.2071 0.8354 0
M  V30 50 H 0.0283 1.4011 -0.4466 0
M  V30 51 H -0.4175 1.0598 1.2619 0
M  V30 52 H -2.2097 0.5411 -0.2234 0
M  V30 53 H -1.6452 -0.8902 0.501 0
M  V30 54 H -1.2499 -0.533 -1.1254 0
M  V30 END ATOM
M  V30 BEGIN BOND
M  V30 1 2 1 2
M  V30 2 1 2 3
M  V30 3 1 2 4
M  V30 4 1 4 5
M  V30 5 1 4 6
M  V30 6 1 4 7
M  V30 7 1 6 8
M  V30 8 1 7 9
M  V30 9 2 8 10
M  V30 10 1 8 11
M  V30 11 2 9 12
M  V30 12 1 9 13
M  V30 13 1 14 15
M  V30 14 1 15 16
M  V30 15 1 16 17
M  V30 16 1 18 19
M  V30 17 1 19 20
M  V30 18 1 20 21
M  V30 19 1 22 23
M  V30 20 1 23 24
M  V30 21 1 24 25
M  V30 22 1 5 26
M  V30 23 1 6 27
M  V30 24 1 6 28
M  V30 25 1 7 29
M  V30 26 1 7 30
M  V30 27 1 14 31
M  V30 28 1 15 32
M  V30 29 1 15 33
M  V30 30 1 16 34
M  V30 31 1 16 35
M  V30 32 1 17 36
M  V30 33 1 17 37
M  V30 34 1 17 38
M  V30 35 1 18 39
M  V30 36 1 19 40
M  V30 37 1 19 41
M  V30 38 1 20 42
M  V30 39 1 20 43
M  V30 40 1 21 44
M  V30 41 1 21 45
M  V30 42 1 21 46
M  V30 43 1 22 47
M  V30 44 1 23 48
M  V30 45 1 23 49
M  V30 46 1 24 50
M  V30 47 1 24 51
M  V30 48 1 25 52
M  V30 49 1 25 53
M  V30 50 1 25 54
M  V30 END BOND
M  V30 END CTAB
M  END
>  <Structure No>
2001

>  <LogS>
-0.050160116

>  <MMFF94 Energy>
236.67

$$$$
Compound 2002
Actelion Java MolfileCreator 2.0

  0  0  0  0  0  0              0 V3000
M  V30 BEGIN CTAB
M  V30 COUNTS 22 21 0 0 0
M  V30 BEGIN ATOM
M  V30 1 S 3.6232 0.1608 0.7238 0
M  V30 2 O 4.1573 0.0446 -0.6758 0
M  V30 3 O 3.6568 -1.1878 1.3857 0
M  V30 4 O 4.5821 1.2292 1.5954 0 CHG=-1
M  V30 5 C 1.9476 0.7752 0.6841 0
M  V30 6 C 1.0378 -0.1645 -0.1076 0
M  V30 7 N -0.3362 0.3495 -0.104 0
M  V30 8 C -1.2342 -0.5896 -0.7871 0
M  V30 9 C -2.6867 -0.1015 -0.7098 0
M  V30 10 N -3.1707 -0.0689 0.671 0 CHG=1
M  V30 11 H 1.9488 1.7826 0.2162 0
M  V30 12 H 1.5749 0.8674 1.7266 0
M  V30 13 H 1.4127 -0.2502 -1.1527 0
M  V30 14 H 1.066 -1.1698 0.3687 0
M  V30 15 H -0.344 1.2482 -0.6428 0
M  V30 16 H -0.9458 -0.6835 -1.8585 0
M  V30 17 H -1.1702 -1.597 -0.3186 0
M  V30 18 H -3.327 -0.7881 -1.3065 0
M  V30 19 H -2.7665 0.913 -1.1594 0
M  V30 20 H -3.0988 -1.0195 1.101 0
M  V30 21 H -4.1735 0.227 0.6736 0
M  V30 22 H -2.6174 0.6174 1.2332 0
M  V30 END ATOM
M  V30 BEGIN BOND
M  V30 1 2 1 2
M  V30 2 2 1 3
M  V30 3 1 1 4
M  V30 4 1 1 5
M  V30 5 1 5 6
M  V30 6 1 6 7
M  V30 7 1 7 8
M  V30 8 1 8 9
M  V30 9 1 9 10
M  V30 10 1 5 11
M  V30 11 1 5 12
M  V30 12 1 6 13
M  V30 13 1 6 14
M  V30 14 1 7 15
M  V30 15 1 8 16
M  V30 16 1 8 17
M  V30 17 1 9 18
M  V30 18 1 9 19
M  V30 19 1 10 20
M  V30 20 1 10 21
M  V30 21 1 10 22
M  V30 END BOND
M  V30 END CTAB
M  END
>  <Structure No>
2002

>  <LogS>
0.244535954

>  <MMFF94 Energy>
-58.828

$$$$
Compound 2003
Actelion Java MolfileCreator 2.0

  0  0  0  0  0  0              0 V3000
M  V30 BEGIN CTAB
M  V30 COUNTS 68 72 0 0 0
M  V30 BEGIN ATOM
M  V30 1 Cl 11.3391 -1.6992 2.8048 0
M  V30 2 C 9.9635 -0.7228 2.3378 0
M  V30 3 N 8.9273 -1.2856 1.6678 0
M  V30 4 N 9.9317 0.5967 2.65 0
M  V30 5 C 7.8552 -0.5336 1.3091 0
M  V30 6 C 8.8663 1.3554 2.2878 0
M  V30 7 N 7.8308 0.7907 1.6153 0
M  V30 8 N 6.781 -1.1355 0.5729 0
M  V30 9 N 8.8295 2.7415 2.625 0
M  V30 10 C 5.5072 -0.5066 0.3621 0
M  V30 11 C 4.8063 -0.6394 -0.8725 0
M  V30 12 C 4.8489 0.0274 1.4789 0
M  V30 13 C 5.4465 -0.9776 -2.1108 0
M  V30 14 C 3.3917 -0.4077 -0.8769 0
M  V30 15 C 3.496 0.3333 1.4361 0
M  V30 16 S 7.1992 -0.8651 -2.3937 0
M  V30 17 C 4.6604 -1.2439 -3.241 0
M  V30 18 C 2.7449 0.0558 0.2985 0
M  V30 19 C 2.6592 -0.6159 -2.0624 0
M  V30 20 O 7.4624 -0.6425 -3.8568 0
M  V30 21 O 7.8864 -2.1369 -1.9753 0
M  V30 22 O 7.8397 0.4469 -1.561 0 CHG=-1
M  V30 23 C 3.2841 -1.0729 -3.214 0
M  V30 24 N 1.3259 0.2362 0.3771 0
M  V30 25 N 0.5285 -0.7101 0.0827 0
M  V30 26 C -0.8982 -0.5656 0.1246 0
M  V30 27 C -1.7105 -1.683 -0.1329 0
M  V30 28 C -1.4967 0.6741 0.4102 0
M  V30 29 C -3.1047 -1.5455 -0.1112 0
M  V30 30 C -1.0927 -3.0173 -0.451 0
M  V30 31 C -2.8955 0.8168 0.4388 0
M  V30 32 C -3.7103 -0.3106 0.1496 0
M  V30 33 C -3.4749 2.1634 0.7892 0
M  V30 34 N -5.1465 -0.2749 0.1242 0
M  V30 35 N -5.8286 0.7852 -0.0513 0
M  V30 36 C -7.2641 0.769 -0.0681 0
M  V30 37 C -7.9779 1.961 -0.3116 0
M  V30 38 C -7.9738 -0.4269 0.1561 0
M  V30 39 S -7.1263 3.4817 -0.6037 0
M  V30 40 C -9.3811 1.9412 -0.3165 0
M  V30 41 C -9.3739 -0.4397 0.1407 0
M  V30 42 O -8.0992 4.5584 -0.9977 0
M  V30 43 O -6.1322 3.3014 -1.7158 0
M  V30 44 O -6.3323 3.9525 0.8017 0 CHG=-1
M  V30 45 C -10.0736 0.7491 -0.0917 0
M  V30 46 S -10.2534 -1.9354 0.4466 0
M  V30 47 O -9.4283 -3.1161 0.0159 0
M  V30 48 O -11.5405 -1.9347 -0.3313 0
M  V30 49 O -10.59 -2.0588 2.0895 0 CHG=-1
M  V30 50 H 6.8797 -2.1341 0.2837 0
M  V30 51 H 8.0023 3.3268 2.3715 0
M  V30 52 H 9.6286 3.1818 3.1331 0
M  V30 53 H 5.3653 0.1251 2.4239 0
M  V30 54 H 3.0087 0.6999 2.3324 0
M  V30 55 H 5.1197 -1.53 -4.178 0
M  V30 56 H 1.5987 -0.418 -2.1214 0
M  V30 57 H 2.7012 -1.2467 -4.1091 0
M  V30 58 H -0.8709 1.5345 0.613 0
M  V30 59 H -3.7331 -2.4037 -0.3198 0
M  V30 60 H -0.3858 -3.3051 0.3544 0
M  V30 61 H -0.5403 -2.9514 -1.4115 0
M  V30 62 H -1.8602 -3.8154 -0.5403 0
M  V30 63 H -3.9512 2.6091 -0.1073 0
M  V30 64 H -4.2159 2.0567 1.6068 0
M  V30 65 H -2.696 2.8714 1.1426 0
M  V30 66 H -7.4396 -1.3476 0.3501 0
M  V30 67 H -9.9466 2.8478 -0.4946 0
M  V30 68 H -11.156 0.7557 -0.0937 0
M  V30 END ATOM
M  V30 BEGIN BOND
M  V30 1 1 1 2
M  V30 2 2 2 3
M  V30 3 1 2 4
M  V30 4 1 3 5
M  V30 5 2 4 6
M  V30 6 2 5 7
M  V30 7 1 5 8
M  V30 8 1 6 9
M  V30 9 1 8 10
M  V30 10 1 10 11
M  V30 11 2 10 12
M  V30 12 2 11 13
M  V30 13 1 11 14
M  V30 14 1 12 15
M  V30 15 1 13 16
M  V30 16 1 13 17
M  V30 17 1 14 18
M  V30 18 2 14 19
M  V30 19 2 16 20
M  V30 20 2 16 21
M  V30 21 1 16 22
M  V30 22 2 17 23
M  V30 23 1 18 24
M  V30 24 2 24 25
M  V30 25 1 25 26
M  V30 26 2 26 27
M  V30 27 1 26 28
M  V30 28 1 27 29
M  V30 29 1 27 30
M  V30 30 2 28 31
M  V30 31 2 29 32
M  V30 32 1 31 33
M  V30 33 1 32 34
M  V30 34 2 34 35
M  V30 35 1 35 36
M  V30 36 2 36 37
M  V30 37 1 36 38
M  V30 38 1 37 39
M  V30 39 1 37 40
M  V30 40 2 38 41
M  V30 41 2 39 42
M  V30 42 2 39 43
M  V30 43 1 39 44
M  V30 44 2 40 45
M  V30 45 1 41 46
M  V30 46 2 46 47
M  V30 47 2 46 48
M  V30 48 1 46 49
M  V30 49 1 6 7
M  V30 50 2 15 18
M  V30 51 1 19 23
M  V30 52 1 31 32
M  V30 53 1 41 45
M  V30 54 1 8 50
M  V30 55 1 9 51
M  V30 56 1 9 52
M  V30 57 1 12 53
M  V30 58 1 15 54
M  V30 59 1 17 55
M  V30 60 1 19 56
M  V30 61 1 23 57
M  V30 62 1 28 58
M  V30 63 1 29 59
M  V30 64 1 30 60
M  V30 65 1 30 61
M  V30 66 1 30 62
M  V30 67 1 33 63
M  V30 68 1 33 64
M  V30 69 1 33 65
M  V30 70 1 38 66
M  V30 71 1 40 67
M  V30 72 1 45 68
M  V30 END BOND
M  V30 END CTAB
M  END
>  <Structure No>
2003

>  <LogS>
-0.386945691

>  <MMFF94 Energy>
-4.4816

$$$$
Compound 2004
Actelion Java MolfileCreator 2.0

  0  0  0  0  0  0              0 V3000
M  V30 BEGIN CTAB
M  V30 COUNTS 21 20 0 0 0
M  V30 BEGIN ATOM
M  V30 1 S -3.5428 1.3995 -0.1645 0
M  V30 2 O -3.3841 1.7924 -1.6063 0
M  V30 3 O -3.2042 2.5713 0.7133 0
M  V30 4 O -5.1349 0.942 0.1125 0 CHG=-1
M  V30 5 C -2.4643 0.0281 0.2122 0
M  V30 6 C -1.0 0.4039 -0.0274 0
M  V30 7 C -0.0725 -0.7657 0.2934 0
M  V30 8 O 1.2769 -0.3773 0.0583 0
M  V30 9 C 2.3585 -1.2407 0.2645 0
M  V30 10 O 2.1667 -2.4175 0.6746 0
M  V30 11 C 3.7326 -0.7871 0.0056 0
M  V30 12 C 4.0037 0.4417 -0.4278 0
M  V30 13 H -2.6132 -0.2586 1.2753 0
M  V30 14 H -2.7456 -0.8319 -0.4321 0
M  V30 15 H -0.7275 1.269 0.6157 0
M  V30 16 H -0.8599 0.6959 -1.0909 0
M  V30 17 H -0.3258 -1.6334 -0.3544 0
M  V30 18 H -0.1928 -1.0578 1.3599 0
M  V30 19 H 4.5514 -1.476 0.1735 0
M  V30 20 H 3.2184 1.1646 -0.6096 0
M  V30 21 H 5.0298 0.7361 -0.6062 0
M  V30 END ATOM
M  V30 BEGIN BOND
M  V30 1 2 1 2
M  V30 2 2 1 3
M  V30 3 1 1 4
M  V30 4 1 1 5
M  V30 5 1 5 6
M  V30 6 1 6 7
M  V30 7 1 7 8
M  V30 8 1 8 9
M  V30 9 2 9 10
M  V30 10 1 9 11
M  V30 11 2 11 12
M  V30 12 1 5 13
M  V30 13 1 5 14
M  V30 14 1 6 15
M  V30 15 1 6 16
M  V30 16 1 7 17
M  V30 17 1 7 18
M  V30 18 1 11 19
M  V30 19 1 12 20
M  V30 20 1 12 21
M  V30 END BOND
M  V30 END CTAB
M  END
>  <Structure No>
2004

>  <LogS>
1.156268325

>  <MMFF94 Energy>
-3.1081

$$$$
Compound 2005
Actelion Java MolfileCreator 2.0

  0  0  0  0  0  0              0 V3000
M  V30 BEGIN CTAB
M  V30 COUNTS 77 82 0 0 0
M  V30 BEGIN ATOM
M  V30 1 Cl 2.2873 -0.3386 2.4568 0
M  V30 2 C 3.057 0.122 0.9557 0
M  V30 3 N 2.4103 -0.0563 -0.2226 0
M  V30 4 N 4.297 0.67 0.9727 0
M  V30 5 C 2.9998 0.3214 -1.3877 0
M  V30 6 C 4.9009 1.0329 -0.1892 0
M  V30 7 N 4.2428 0.8673 -1.3653 0
M  V30 8 N 2.324 0.1505 -2.64 0
M  V30 9 N 6.2003 1.6411 -0.1847 0
M  V30 10 C 1.0127 -0.4309 -2.7406 0
M  V30 11 C 7.0839 1.6465 0.9489 0
M  V30 12 C 0.8533 -1.6796 -3.381 0
M  V30 13 C -0.1107 0.2598 -2.2415 0
M  V30 14 C 7.1798 0.5361 1.8078 0
M  V30 15 C 7.912 2.7565 1.1704 0
M  V30 16 C -0.4493 -2.206 -3.5908 0
M  V30 17 C 2.0872 -2.4333 -3.8291 0
M  V30 18 C -1.3761 -0.3575 -2.2754 0
M  V30 19 C 0.0396 1.6196 -1.5944 0
M  V30 20 C 8.0685 0.5519 2.8924 0
M  V30 21 C 8.7919 2.7769 2.2556 0
M  V30 22 S -0.6911 -3.6307 -4.6494 0
M  V30 23 C -1.5542 -1.5937 -2.9388 0
M  V30 24 N -2.4866 0.28 -1.62 0
M  V30 25 S 8.1713 -0.8334 3.9735 0
M  V30 26 C 8.8659 1.6814 3.1189 0
M  V30 27 O 0.3591 -3.6876 -5.7224 0
M  V30 28 O -2.0248 -3.5693 -5.3388 0
M  V30 29 O -0.6105 -5.0277 -3.7208 0 CHG=-1
M  V30 30 C -2.9343 -2.2151 -2.995 0
M  V30 31 C -2.9596 -0.1209 -0.3157 0
M  V30 32 O 9.5656 -0.9485 4.523 0
M  V30 33 O 7.8426 -2.0936 3.2236 0
M  V30 34 O 7.0851 -0.6358 5.2392 0 CHG=-1
M  V30 35 C -4.2459 0.2555 0.1476 0
M  V30 36 C -2.1172 -0.8591 0.5269 0
M  V30 37 C -5.2509 0.8872 -0.7584 0
M  V30 38 C -4.6115 -0.0061 1.4955 0
M  V30 39 C -2.4756 -1.1513 1.8435 0
M  V30 40 O -5.1438 0.7903 -2.0111 0
M  V30 41 C -6.4327 1.5652 -0.1896 0
M  V30 42 C -5.9798 0.3844 1.9536 0
M  V30 43 C -3.6959 -0.666 2.3601 0
M  V30 44 S -1.341 -2.0716 2.8455 0
M  V30 45 C -6.7918 1.3176 1.146 0
M  V30 46 C -7.2229 2.4234 -0.975 0
M  V30 47 O -6.4832 -0.1212 2.9935 0
M  V30 48 N -3.9708 -0.7816 3.7657 0
M  V30 49 O -0.8693 -1.2179 3.9887 0
M  V30 50 O -0.1503 -2.5021 2.0355 0
M  V30 51 O -2.1016 -3.4475 3.4378 0 CHG=-1
M  V30 52 C -7.9377 1.9313 1.6831 0
M  V30 53 C -8.3543 3.035 -0.4295 0
M  V30 54 C -8.7109 2.7896 0.8975 0
M  V30 55 H 2.8631 0.3119 -3.5202 0
M  V30 56 H 6.4858 2.1778 -1.035 0
M  V30 57 H 6.5841 -0.3476 1.6222 0
M  V30 58 H 7.8646 3.6121 0.5084 0
M  V30 59 H 2.3272 -2.1716 -4.8803 0
M  V30 60 H 1.9444 -3.5288 -3.7289 0
M  V30 61 H 2.9663 -2.1965 -3.1944 0
M  V30 62 H -0.7921 2.2911 -1.8888 0
M  V30 63 H 0.9697 2.1345 -1.9102 0
M  V30 64 H 0.0418 1.5081 -0.4898 0
M  V30 65 H 9.4172 3.6434 2.428 0
M  V30 66 H -2.8028 1.1935 -2.0127 0
M  V30 67 H 9.5491 1.7115 3.9583 0
M  V30 68 H -3.4374 -1.9224 -3.9397 0
M  V30 69 H -3.5809 -1.9023 -2.1538 0
M  V30 70 H -2.8731 -3.32 -2.9199 0
M  V30 71 H -1.148 -1.175 0.167 0
M  V30 72 H -6.9632 2.6246 -2.0069 0
M  V30 73 H -3.5674 -1.545 4.3491 0
M  V30 74 H -4.4638 -0.0171 4.2773 0
M  V30 75 H -8.2322 1.7517 2.7095 0
M  V30 76 H -8.9563 3.6984 -1.0369 0
M  V30 77 H -9.589 3.263 1.3175 0
M  V30 END ATOM
M  V30 BEGIN BOND
M  V30 1 1 1 2
M  V30 2 2 2 3
M  V30 3 1 2 4
M  V30 4 1 3 5
M  V30 5 2 4 6
M  V30 6 2 5 7
M  V30 7 1 5 8
M  V30 8 1 6 9
M  V30 9 1 8 10
M  V30 10 1 9 11
M  V30 11 2 10 12
M  V30 12 1 10 13
M  V30 13 2 11 14
M  V30 14 1 11 15
M  V30 15 1 12 16
M  V30 16 1 12 17
M  V30 17 2 13 18
M  V30 18 1 13 19
M  V30 19 1 14 20
M  V30 20 2 15 21
M  V30 21 1 16 22
M  V30 22 2 16 23
M  V30 23 1 18 24
M  V30 24 1 20 25
M  V30 25 2 20 26
M  V30 26 2 22 27
M  V30 27 2 22 28
M  V30 28 1 22 29
M  V30 29 1 23 30
M  V30 30 1 24 31
M  V30 31 2 25 32
M  V30 32 2 25 33
M  V30 33 1 25 34
M  V30 34 2 31 35
M  V30 35 1 31 36
M  V30 36 1 35 37
M  V30 37 1 35 38
M  V30 38 2 36 39
M  V30 39 2 37 40
M  V30 40 1 37 41
M  V30 41 1 38 42
M  V30 42 2 38 43
M  V30 43 1 39 44
M  V30 44 2 41 45
M  V30 45 1 41 46
M  V30 46 2 42 47
M  V30 47 1 43 48
M  V30 48 2 44 49
M  V30 49 2 44 50
M  V30 50 1 44 51
M  V30 51 1 45 52
M  V30 52 2 46 53
M  V30 53 2 52 54
M  V30 54 1 6 7
M  V30 55 1 18 23
M  V30 56 1 21 26
M  V30 57 1 39 43
M  V30 58 1 42 45
M  V30 59 1 53 54
M  V30 60 1 8 55
M  V30 61 1 9 56
M  V30 62 1 14 57
M  V30 63 1 15 58
M  V30 64 1 17 59
M  V30 65 1 17 60
M  V30 66 1 17 61
M  V30 67 1 19 62
M  V30 68 1 19 63
M  V30 69 1 19 64
M  V30 70 1 21 65
M  V30 71 1 24 66
M  V30 72 1 26 67
M  V30 73 1 30 68
M  V30 74 1 30 69
M  V30 75 1 30 70
M  V30 76 1 36 71
M  V30 77 1 46 72
M  V30 78 1 48 73
M  V30 79 1 48 74
M  V30 80 1 52 75
M  V30 81 1 53 76
M  V30 82 1 54 77
M  V30 END BOND
M  V30 END CTAB
M  END
>  <Structure No>
2005

>  <LogS>
-0.424427985

>  <MMFF94 Energy>
83.249

$$$$
Compound 2006
Actelion Java MolfileCreator 2.0

  0  0  0  0  0  0              0 V3000
M  V30 BEGIN CTAB
M  V30 COUNTS 77 82 0 0 0
M  V30 BEGIN ATOM
M  V30 1 Cl 6.9599 2.2878 -3.5605 0
M  V30 2 C 5.6341 1.6284 -2.6254 0
M  V30 3 N 4.5088 1.2011 -3.2505 0
M  V30 4 N 5.7393 1.5317 -1.277 0
M  V30 5 C 3.483 0.6827 -2.528 0
M  V30 6 C 4.7128 1.023 -0.5452 0
M  V30 7 N 3.5897 0.5947 -1.1761 0
M  V30 8 N 2.3148 0.1964 -3.1985 0
M  V30 9 N 4.8224 0.8821 0.8774 0
M  V30 10 C 1.2604 -0.4703 -2.4878 0
M  V30 11 C 6.0033 1.2434 1.6127 0
M  V30 12 C 1.1321 -1.8736 -2.5823 0
M  V30 13 C 0.3411 0.2809 -1.7288 0
M  V30 14 C 6.5846 0.3413 2.5334 0
M  V30 15 C 6.5703 2.52 1.447 0
M  V30 16 C 0.0596 -2.5305 -1.9232 0
M  V30 17 C 2.1474 -2.6511 -3.3932 0
M  V30 18 C -0.6486 -0.3819 -0.9761 0
M  V30 19 C 0.4236 1.7912 -1.7007 0
M  V30 20 S 5.9267 -1.2824 2.7717 0
M  V30 21 C 7.7241 0.7287 3.2568 0
M  V30 22 C 7.7072 2.8887 2.1694 0
M  V30 23 S -0.2617 -4.2652 -2.2237 0
M  V30 24 C -0.7481 -1.7935 -1.0177 0
M  V30 25 N -1.5853 0.3912 -0.1984 0
M  V30 26 O 5.6102 -1.9064 1.441 0
M  V30 27 O 4.6769 -1.2044 3.6032 0
M  V30 28 O 7.0512 -2.2521 3.5584 0 CHG=-1
M  V30 29 C 8.2846 1.9939 3.0701 0
M  V30 30 O 0.0803 -4.6294 -3.6407 0
M  V30 31 O -1.7153 -4.5899 -2.0202 0
M  V30 32 O 0.6655 -5.1894 -1.1701 0 CHG=-1
M  V30 33 C -1.7038 -2.4949 -0.0767 0
M  V30 34 C -3.0082 0.3169 -0.4171 0
M  V30 35 C -3.9342 0.4734 0.6472 0
M  V30 36 C -3.4784 0.1251 -1.7215 0
M  V30 37 C -3.4868 0.5427 2.0734 0
M  V30 38 C -5.3243 0.507 0.3584 0
M  V30 39 C -4.8416 0.0487 -2.0001 0
M  V30 40 O -2.2808 0.3382 2.3796 0
M  V30 41 C -4.4637 0.784 3.1585 0
M  V30 42 C -6.2755 0.891 1.4441 0
M  V30 43 C -5.7776 0.2317 -0.9621 0
M  V30 44 S -5.3507 -0.3191 -3.6566 0
M  V30 45 C -5.827 0.9454 2.8511 0
M  V30 46 C -4.0451 0.8498 4.5017 0
M  V30 47 O -7.4538 1.2475 1.1671 0
M  V30 48 N -7.1778 0.0773 -1.2391 0
M  V30 49 O -4.1634 -0.6778 -4.5072 0
M  V30 50 O -6.0327 0.8792 -4.2538 0
M  V30 51 O -6.4065 -1.6255 -3.6426 0 CHG=-1
M  V30 52 C -6.7506 1.173 3.8891 0
M  V30 53 C -4.9718 1.0737 5.5217 0
M  V30 54 C -6.3225 1.2351 5.2167 0
M  V30 55 H 2.3092 0.1649 -4.2431 0
M  V30 56 H 4.0526 0.3854 1.3791 0
M  V30 57 H 6.1229 3.2365 0.7687 0
M  V30 58 H 3.1292 -2.1359 -3.4374 0
M  V30 59 H 2.3572 -3.6381 -2.9309 0
M  V30 60 H 1.7753 -2.785 -4.4303 0
M  V30 61 H 0.9813 2.198 -2.5681 0
M  V30 62 H -0.5907 2.2399 -1.7476 0
M  V30 63 H 0.9254 2.1177 -0.7663 0
M  V30 64 H 8.1839 0.0531 3.966 0
M  V30 65 H 8.1382 3.8727 2.0346 0
M  V30 66 H -1.2163 1.1778 0.3808 0
M  V30 67 H 9.1649 2.2832 3.6298 0
M  V30 68 H -2.6879 -2.6381 -0.57 0
M  V30 69 H -1.8515 -1.913 0.856 0
M  V30 70 H -1.2956 -3.4726 0.2528 0
M  V30 71 H -2.765 0.0243 -2.5286 0
M  V30 72 H -3.0027 0.7288 4.7663 0
M  V30 73 H -7.8094 -0.3994 -0.5584 0
M  V30 74 H -7.5837 0.3457 -2.1627 0
M  V30 75 H -7.8046 1.2982 3.6752 0
M  V30 76 H -4.6416 1.1224 6.5513 0
M  V30 77 H -7.0389 1.4084 6.0102 0
M  V30 END ATOM
M  V30 BEGIN BOND
M  V30 1 1 1 2
M  V30 2 2 2 3
M  V30 3 1 2 4
M  V30 4 1 3 5
M  V30 5 2 4 6
M  V30 6 2 5 7
M  V30 7 1 5 8
M  V30 8 1 6 9
M  V30 9 1 8 10
M  V30 10 1 9 11
M  V30 11 2 10 12
M  V30 12 1 10 13
M  V30 13 2 11 14
M  V30 14 1 11 15
M  V30 15 1 12 16
M  V30 16 1 12 17
M  V30 17 2 13 18
M  V30 18 1 13 19
M  V30 19 1 14 20
M  V30 20 1 14 21
M  V30 21 2 15 22
M  V30 22 1 16 23
M  V30 23 2 16 24
M  V30 24 1 18 25
M  V30 25 2 20 26
M  V30 26 2 20 27
M  V30 27 1 20 28
M  V30 28 2 21 29
M  V30 29 2 23 30
M  V30 30 2 23 31
M  V30 31 1 23 32
M  V30 32 1 24 33
M  V30 33 1 25 34
M  V30 34 2 34 35
M  V30 35 1 34 36
M  V30 36 1 35 37
M  V30 37 1 35 38
M  V30 38 2 36 39
M  V30 39 2 37 40
M  V30 40 1 37 41
M  V30 41 1 38 42
M  V30 42 2 38 43
M  V30 43 1 39 44
M  V30 44 2 41 45
M  V30 45 1 41 46
M  V30 46 2 42 47
M  V30 47 1 43 48
M  V30 48 2 44 49
M  V30 49 2 44 50
M  V30 50 1 44 51
M  V30 51 1 45 52
M  V30 52 2 46 53
M  V30 53 2 52 54
M  V30 54 1 6 7
M  V30 55 1 18 24
M  V30 56 1 22 29
M  V30 57 1 39 43
M  V30 58 1 42 45
M  V30 59 1 53 54
M  V30 60 1 8 55
M  V30 61 1 9 56
M  V30 62 1 15 57
M  V30 63 1 17 58
M  V30 64 1 17 59
M  V30 65 1 17 60
M  V30 66 1 19 61
M  V30 67 1 19 62
M  V30 68 1 19 63
M  V30 69 1 21 64
M  V30 70 1 22 65
M  V30 71 1 25 66
M  V30 72 1 29 67
M  V30 73 1 33 68
M  V30 74 1 33 69
M  V30 75 1 33 70
M  V30 76 1 36 71
M  V30 77 1 46 72
M  V30 78 1 48 73
M  V30 79 1 48 74
M  V30 80 1 52 75
M  V30 81 1 53 76
M  V30 82 1 54 77
M  V30 END BOND
M  V30 END CTAB
M  END
>  <Structure No>
2006

>  <LogS>
-0.424427985

>  <MMFF94 Energy>
123.96

$$$$
Compound 2007
Actelion Java MolfileCreator 2.0

  0  0  0  0  0  0              0 V3000
M  V30 BEGIN CTAB
M  V30 COUNTS 14 14 0 0 0
M  V30 BEGIN ATOM
M  V30 1 F -3.2265 0.0 0.2358 0
M  V30 2 C -1.874 -0.0088 0.1424 0
M  V30 3 C -1.1752 -1.2174 0.2239 0
M  V30 4 C -1.1772 1.1906 -0.0351 0
M  V30 5 C 0.2202 -1.228 0.1278 0
M  V30 6 C 0.2182 1.1829 -0.1314 0
M  V30 7 C 0.9238 -0.027 -0.0503 0
M  V30 8 N 2.3504 -0.0364 -0.1487 0
M  V30 9 H -1.7138 -2.1463 0.3614 0
M  V30 10 H -1.7173 2.1266 -0.0981 0
M  V30 11 H 0.7518 -2.169 0.1921 0
M  V30 12 H 0.7483 2.117 -0.2688 0
M  V30 13 H 2.8845 -0.9321 -0.0894 0
M  V30 14 H 2.883 0.8522 -0.2814 0
M  V30 END ATOM
M  V30 BEGIN BOND
M  V30 1 1 1 2
M  V30 2 2 2 3
M  V30 3 1 2 4
M  V30 4 1 3 5
M  V30 5 2 4 6
M  V30 6 2 5 7
M  V30 7 1 7 8
M  V30 8 1 6 7
M  V30 9 1 3 9
M  V30 10 1 4 10
M  V30 11 1 5 11
M  V30 12 1 6 12
M  V30 13 1 8 13
M  V30 14 1 8 14
M  V30 END BOND
M  V30 END CTAB
M  END
>  <Structure No>
2007

>  <LogS>
-0.527274385

>  <MMFF94 Energy>
3.8381

$$$$
Compound 2008
Actelion Java MolfileCreator 2.0

  0  0  0  0  0  0              0 V3000
M  V30 BEGIN CTAB
M  V30 COUNTS 150 161 0 0 0
M  V30 BEGIN ATOM
M  V30 1 S -15.2653 2.5325 2.448 0
M  V30 2 O -16.5271 1.7136 2.3544 0
M  V30 3 O -15.5588 3.9307 1.983 0
M  V30 4 O -14.759 2.5655 4.0474 0 CHG=-1
M  V30 5 C -13.9886 1.8316 1.4452 0
M  V30 6 C -12.6736 2.5054 1.3511 0
M  V30 7 C -14.2117 0.6868 0.7826 0
M  V30 8 N -12.569 3.7318 1.7784 0
M  V30 9 C -11.5673 1.7879 0.6677 0
M  V30 10 C -13.1936 0.0771 -0.105 0
M  V30 11 N -11.3906 4.4974 1.7429 0
M  V30 12 O -10.3716 2.1337 0.8484 0
M  V30 13 C -11.8914 0.6176 -0.1919 0
M  V30 14 C -13.5448 -1.0501 -0.8635 0
M  V30 15 C -11.3831 5.8189 1.1814 0
M  V30 16 C -10.9505 0.0149 -1.0725 0
M  V30 17 C -12.626 -1.6243 -1.7445 0
M  V30 18 C -10.1971 6.5693 1.1841 0
M  V30 19 C -12.535 6.3584 0.5772 0
M  V30 20 N -9.6077 0.5186 -1.1952 0
M  V30 21 C -11.3464 -1.0812 -1.8579 0
M  V30 22 S -13.0712 -3.0262 -2.7124 0
M  V30 23 C -10.1583 7.8338 0.5912 0
M  V30 24 C -12.4914 7.6257 -0.0149 0
M  V30 25 C -8.4494 -0.3213 -1.0747 0
M  V30 26 O -14.5664 -3.1654 -2.7756 0
M  V30 27 O -12.485 -4.2655 -2.0941 0
M  V30 28 O -12.4786 -2.8443 -4.2772 0 CHG=-1
M  V30 29 C -11.3054 8.3612 -0.0133 0
M  V30 30 N -8.5726 -1.6732 -1.1066 0
M  V30 31 N -7.2155 0.2384 -0.9252 0
M  V30 32 C -7.4802 -2.4722 -1.0224 0
M  V30 33 C -6.1169 -0.5534 -0.8078 0
M  V30 34 N -6.2571 -1.9021 -0.8799 0
M  V30 35 N -7.6121 -3.9061 -1.087 0
M  V30 36 N -4.8139 0.033 -0.6456 0
M  V30 37 C -6.405 -4.7438 -1.0758 0
M  V30 38 C -8.877 -4.5018 -1.5329 0
M  V30 39 C -3.617 -0.7629 -0.6715 0
M  V30 40 C -6.7415 -6.1667 -0.6193 0
M  V30 41 C -9.0008 -5.9458 -1.0385 0
M  V30 42 C -3.5387 -1.9729 0.0326 0
M  V30 43 C -2.5496 -0.382 -1.4935 0
M  V30 44 O -7.8351 -6.6863 -1.3487 0
M  V30 45 C -2.4967 -2.8773 -0.2088 0
M  V30 46 C -1.4892 -1.264 -1.722 0
M  V30 47 S -2.5312 -4.4554 0.5921 0
M  V30 48 C -1.4841 -2.5381 -1.129 0
M  V30 49 O -3.0845 -5.4811 -0.3577 0
M  V30 50 O -3.3915 -4.3901 1.8222 0
M  V30 51 O -0.9806 -4.8962 1.0575 0 CHG=-1
M  V30 52 C -0.5438 -3.5676 -1.6209 0
M  V30 53 C 0.7823 -3.4134 -1.7236 0
M  V30 54 C 1.554 -2.2825 -1.1599 0
M  V30 55 C 2.5948 -1.6863 -1.9053 0
M  V30 56 C 1.3723 -1.9159 0.1854 0
M  V30 57 S 2.8958 -2.1045 -3.6026 0
M  V30 58 C 3.4644 -0.7862 -1.2785 0
M  V30 59 C 2.2551 -1.0238 0.8013 0
M  V30 60 O 3.7536 -1.0567 -4.2479 0
M  V30 61 O 1.5913 -2.1811 -4.3535 0
M  V30 62 O 3.6819 -3.5879 -3.6767 0 CHG=-1
M  V30 63 C 3.3382 -0.5009 0.0873 0
M  V30 64 N 4.3717 0.2247 0.7752 0
M  V30 65 C 5.7527 -0.1408 0.6396 0
M  V30 66 N 6.0986 -1.2452 -0.0711 0
M  V30 67 N 6.7191 0.5892 1.2537 0
M  V30 68 C 7.3962 -1.6078 -0.2013 0
M  V30 69 C 8.0212 0.2186 1.148 0
M  V30 70 N 8.3569 -0.8738 0.4118 0
M  V30 71 N 7.746 -2.7688 -0.9722 0
M  V30 72 N 9.0374 0.9661 1.8259 0
M  V30 73 C 8.8845 -2.7115 -1.8967 0
M  V30 74 C 6.7657 -3.845 -1.1493 0
M  V30 75 C 10.3025 0.386 2.1906 0
M  V30 76 C 9.4296 -4.12 -2.1546 0
M  V30 77 C 7.4965 -5.163 -1.4136 0
M  V30 78 C 11.515 1.1035 2.0295 0
M  V30 79 C 10.3276 -0.8842 2.7891 0
M  V30 80 O 8.3913 -5.022 -2.499 0
M  V30 81 C 11.5803 2.4156 1.3405 0
M  V30 82 C 12.7227 0.5384 2.4959 0
M  V30 83 C 11.5269 -1.4458 3.2348 0
M  V30 84 O 10.6481 2.7787 0.5752 0
M  V30 85 C 12.8273 3.214 1.445 0
M  V30 86 C 14.0038 1.2665 2.3502 0
M  V30 87 C 12.7198 -0.7326 3.0891 0
M  V30 88 S 11.5103 -3.0331 3.9916 0
M  V30 89 N 12.8847 4.4877 1.1663 0
M  V30 90 C 14.0655 2.5121 1.8575 0
M  V30 91 O 12.8026 -3.2782 4.717 0
M  V30 92 O 11.3218 -4.0872 2.9388 0
M  V30 93 O 10.2494 -3.1024 5.0973 0 CHG=-1
M  V30 94 N 11.7753 5.3058 0.8964 0
M  V30 95 S 15.6255 3.344 1.769 0
M  V30 96 C 11.9363 6.5759 0.2489 0
M  V30 97 O 15.7856 3.9796 0.4141 0
M  V30 98 O 16.7543 2.3755 1.9873 0
M  V30 99 O 15.6853 4.5333 2.9546 0 CHG=-1
M  V30 100 C 10.8128 7.3887 0.0338 0
M  V30 101 C 13.1979 7.0202 -0.1908 0
M  V30 102 C 10.9457 8.6222 -0.6112 0
M  V30 103 C 13.3263 8.2542 -0.835 0
M  V30 104 C 12.1983 9.052 -1.0524 0
M  V30 105 H -15.1757 0.2008 0.8646 0
M  V30 106 H -10.5142 4.1201 2.1686 0
M  V30 107 H -14.5412 -1.4695 -0.7736 0
M  V30 108 H -9.2995 6.1694 1.6402 0
M  V30 109 H -13.4606 5.7983 0.5487 0
M  V30 110 H -9.4572 1.5461 -1.3114 0
M  V30 111 H -10.6562 -1.5074 -2.5737 0
M  V30 112 H -9.2418 8.4058 0.5934 0
M  V30 113 H -13.3791 8.0353 -0.4805 0
M  V30 114 H -11.2765 9.3409 -0.4704 0
M  V30 115 H -4.7287 1.072 -0.7377 0
M  V30 116 H -5.647 -4.3301 -0.3749 0
M  V30 117 H -5.9727 -4.7739 -2.0996 0
M  V30 118 H -9.747 -3.9266 -1.1417 0
M  V30 119 H -8.9159 -4.4884 -2.644 0
M  V30 120 H -6.941 -6.1879 0.4789 0
M  V30 121 H -5.8563 -6.814 -0.8009 0
M  V30 122 H -9.8656 -6.4223 -1.5447 0
M  V30 123 H -9.2131 -5.965 0.0568 0
M  V30 124 H -4.3261 -2.2395 0.7214 0
M  V30 125 H -2.5827 0.5623 -2.0283 0
M  V30 126 H -0.7248 -0.9867 -2.4395 0
M  V30 127 H -0.9764 -4.4924 -1.9811 0
M  V30 128 H 1.3379 -4.2021 -2.2141 0
M  V30 129 H 0.6062 -2.3853 0.7827 0
M  V30 130 H 4.2806 -0.3447 -1.8326 0
M  V30 131 H 2.142 -0.7998 1.8578 0
M  V30 132 H 4.1038 0.8985 1.5289 0
M  V30 133 H 8.8183 1.9401 2.1384 0
M  V30 134 H 8.5518 -2.2557 -2.8547 0
M  V30 135 H 9.7023 -2.0846 -1.4786 0
M  V30 136 H 6.1023 -3.604 -2.01 0
M  V30 137 H 6.1484 -3.9574 -0.2299 0
M  V30 138 H 10.003 -4.4844 -1.2707 0
M  V30 139 H 10.144 -4.0703 -3.0081 0
M  V30 140 H 6.747 -5.9432 -1.6692 0
M  V30 141 H 8.0291 -5.5033 -0.4942 0
M  V30 142 H 9.4038 -1.4303 2.9316 0
M  V30 143 H 14.91 0.7752 2.6751 0
M  V30 144 H 13.6508 -1.1646 3.4387 0
M  V30 145 H 10.8285 5.0529 1.2605 0
M  V30 146 H 9.8331 7.0656 0.3602 0
M  V30 147 H 14.0816 6.4158 -0.036 0
M  V30 148 H 10.0747 9.2409 -0.7743 0
M  V30 149 H 14.2972 8.5887 -1.176 0
M  V30 150 H 12.296 10.0027 -1.5618 0
M  V30 END ATOM
M  V30 BEGIN BOND
M  V30 1 2 1 2
M  V30 2 2 1 3
M  V30 3 1 1 4
M  V30 4 1 1 5
M  V30 5 1 5 6
M  V30 6 2 5 7
M  V30 7 2 6 8
M  V30 8 1 6 9
M  V30 9 1 7 10
M  V30 10 1 8 11
M  V30 11 2 9 12
M  V30 12 1 9 13
M  V30 13 1 10 14
M  V30 14 1 11 15
M  V30 15 1 13 16
M  V30 16 2 14 17
M  V30 17 2 15 18
M  V30 18 1 15 19
M  V30 19 1 16 20
M  V30 20 2 16 21
M  V30 21 1 17 22
M  V30 22 1 18 23
M  V30 23 2 19 24
M  V30 24 1 20 25
M  V30 25 2 22 26
M  V30 26 2 22 27
M  V30 27 1 22 28
M  V30 28 2 23 29
M  V30 29 2 25 30
M  V30 30 1 25 31
M  V30 31 1 30 32
M  V30 32 2 31 33
M  V30 33 2 32 34
M  V30 34 1 32 35
M  V30 35 1 33 36
M  V30 36 1 35 37
M  V30 37 1 35 38
M  V30 38 1 36 39
M  V30 39 1 37 40
M  V30 40 1 38 41
M  V30 41 2 39 42
M  V30 42 1 39 43
M  V30 43 1 40 44
M  V30 44 1 42 45
M  V30 45 2 43 46
M  V30 46 1 45 47
M  V30 47 2 45 48
M  V30 48 2 47 49
M  V30 49 2 47 50
M  V30 50 1 47 51
M  V30 51 1 48 52
M  V30 52 2 52 53
M  V30 53 1 53 54
M  V30 54 2 54 55
M  V30 55 1 54 56
M  V30 56 1 55 57
M  V30 57 1 55 58
M  V30 58 2 56 59
M  V30 59 2 57 60
M  V30 60 2 57 61
M  V30 61 1 57 62
M  V30 62 2 58 63
M  V30 63 1 63 64
M  V30 64 1 64 65
M  V30 65 2 65 66
M  V30 66 1 65 67
M  V30 67 1 66 68
M  V30 68 2 67 69
M  V30 69 2 68 70
M  V30 70 1 68 71
M  V30 71 1 69 72
M  V30 72 1 71 73
M  V30 73 1 71 74
M  V30 74 1 72 75
M  V30 75 1 73 76
M  V30 76 1 74 77
M  V30 77 2 75 78
M  V30 78 1 75 79
M  V30 79 1 76 80
M  V30 80 1 78 81
M  V30 81 1 78 82
M  V30 82 2 79 83
M  V30 83 2 81 84
M  V30 84 1 81 85
M  V30 85 1 82 86
M  V30 86 2 82 87
M  V30 87 1 83 88
M  V30 88 2 85 89
M  V30 89 1 85 90
M  V30 90 2 88 91
M  V30 91 2 88 92
M  V30 92 1 88 93
M  V30 93 1 89 94
M  V30 94 1 90 95
M  V30 95 1 94 96
M  V30 96 2 95 97
M  V30 97 2 95 98
M  V30 98 1 95 99
M  V30 99 2 96 100
M  V30 100 1 96 101
M  V30 101 1 100 102
M  V30 102 2 101 103
M  V30 103 2 102 104
M  V30 104 2 10 13
M  V30 105 1 17 21
M  V30 106 1 24 29
M  V30 107 1 33 34
M  V30 108 1 41 44
M  V30 109 1 46 48
M  V30 110 1 59 63
M  V30 111 1 69 70
M  V30 112 1 77 80
M  V30 113 1 83 87
M  V30 114 2 86 90
M  V30 115 1 103 104
M  V30 116 1 7 105
M  V30 117 1 11 106
M  V30 118 1 14 107
M  V30 119 1 18 108
M  V30 120 1 19 109
M  V30 121 1 20 110
M  V30 122 1 21 111
M  V30 123 1 23 112
M  V30 124 1 24 113
M  V30 125 1 29 114
M  V30 126 1 36 115
M  V30 127 1 37 116
M  V30 128 1 37 117
M  V30 129 1 38 118
M  V30 130 1 38 119
M  V30 131 1 40 120
M  V30 132 1 40 121
M  V30 133 1 41 122
M  V30 134 1 41 123
M  V30 135 1 42 124
M  V30 136 1 43 125
M  V30 137 1 46 126
M  V30 138 1 52 127
M  V30 139 1 53 128
M  V30 140 1 56 129
M  V30 141 1 58 130
M  V30 142 1 59 131
M  V30 143 1 64 132
M  V30 144 1 72 133
M  V30 145 1 73 134
M  V30 146 1 73 135
M  V30 147 1 74 136
M  V30 148 1 74 137
M  V30 149 1 76 138
M  V30 150 1 76 139
M  V30 151 1 77 140
M  V30 152 1 77 141
M  V30 153 1 79 142
M  V30 154 1 86 143
M  V30 155 1 87 144
M  V30 156 1 94 145
M  V30 157 1 100 146
M  V30 158 1 101 147
M  V30 159 1 102 148
M  V30 160 1 103 149
M  V30 161 1 104 150
M  V30 END BOND
M  V30 END CTAB
M  END
>  <Structure No>
2008

>  <LogS>
-1.144796153

>  <MMFF94 Energy>
277.46

$$$$
Compound 2009
Actelion Java MolfileCreator 2.0

  0  0  0  0  0  0              0 V3000
M  V30 BEGIN CTAB
M  V30 COUNTS 17 17 0 0 0
M  V30 BEGIN ATOM
M  V30 1 O -0.3196 -2.3996 1.0392 0
M  V30 2 C -0.7444 -1.3051 0.5838 0
M  V30 3 O -2.0254 -1.1422 0.1081 0
M  V30 4 C 0.0602 -0.0651 0.5109 0 CFG=1
M  V30 5 C -2.2361 0.1781 -0.3568 0
M  V30 6 C 1.1913 -0.2164 -0.4816 0
M  V30 7 C -0.9809 0.9732 0.0494 0
M  V30 8 O 0.9516 -0.5423 -1.6355 0
M  V30 9 C 2.6141 0.0339 -0.0786 0
M  V30 10 H 0.4393 0.1939 1.5235 0
M  V30 11 H -2.3425 0.1647 -1.4626 0
M  V30 12 H -3.1521 0.6047 0.1047 0
M  V30 13 H -1.2322 1.6466 0.8983 0
M  V30 14 H -0.6182 1.6007 -0.7945 0
M  V30 15 H 3.0375 0.8498 -0.701 0
M  V30 16 H 3.2113 -0.8886 -0.2342 0
M  V30 17 H 2.688 0.3285 0.989 0
M  V30 END ATOM
M  V30 BEGIN BOND
M  V30 1 2 1 2
M  V30 2 1 2 3
M  V30 3 1 2 4
M  V30 4 1 3 5
M  V30 5 1 4 6
M  V30 6 1 4 7
M  V30 7 2 6 8
M  V30 8 1 6 9
M  V30 9 1 5 7
M  V30 10 1 4 10
M  V30 11 1 5 11
M  V30 12 1 5 12
M  V30 13 1 7 13
M  V30 14 1 7 14
M  V30 15 1 9 15
M  V30 16 1 9 16
M  V30 17 1 9 17
M  V30 END BOND
M  V30 BEGIN COLLECTION
M  V30 MDLV30/STEABS ATOMS=(1 4)
M  V30 END COLLECTION
M  V30 END CTAB
M  END
>  <Structure No>
2009

>  <LogS>
0.397509321

>  <MMFF94 Energy>
-23.961

$$$$
Compound 2010
Actelion Java MolfileCreator 2.0

  0  0  0  0  0  0              0 V3000
M  V30 BEGIN CTAB
M  V30 COUNTS 27 27 0 0 0
M  V30 BEGIN ATOM
M  V30 1 S 0.6651 3.5787 -1.1641 0
M  V30 2 O -0.3845 4.0724 -2.1198 0
M  V30 3 O 1.9947 3.5818 -1.8645 0
M  V30 4 O 0.7322 4.5986 0.1685 0 CHG=-1
M  V30 5 C 0.2715 1.9466 -0.633 0
M  V30 6 C -1.0654 1.5429 -0.5369 0
M  V30 7 C 1.2938 1.057 -0.2826 0
M  V30 8 C -1.3909 0.246 -0.1045 0
M  V30 9 C 0.9911 -0.2436 0.1518 0
M  V30 10 C -2.8047 -0.183 -0.0061 0
M  V30 11 C -0.3555 -0.6414 0.2364 0
M  V30 12 C 2.0791 -1.1791 0.5166 0
M  V30 13 O -3.7324 0.616 -0.3132 0
M  V30 14 O -3.1124 -1.4771 0.4278 0
M  V30 15 O 1.8059 -2.3474 0.9088 0
M  V30 16 O 3.413 -0.7664 0.4261 0
M  V30 17 C -4.4487 -1.9509 0.5442 0
M  V30 18 C 4.5042 -1.6152 0.761 0
M  V30 19 H -1.8499 2.2425 -0.7978 0
M  V30 20 H 2.3243 1.3832 -0.348 0
M  V30 21 H -0.5972 -1.6427 0.5705 0
M  V30 22 H -5.011 -1.3279 1.2717 0
M  V30 23 H -4.4334 -2.9996 0.9052 0
M  V30 24 H -4.9512 -1.9183 -0.4456 0
M  V30 25 H 4.4336 -1.9227 1.8259 0
M  V30 26 H 5.4547 -1.0644 0.6079 0
M  V30 27 H 4.5001 -2.5145 0.1093 0
M  V30 END ATOM
M  V30 BEGIN BOND
M  V30 1 2 1 2
M  V30 2 2 1 3
M  V30 3 1 1 4
M  V30 4 1 1 5
M  V30 5 2 5 6
M  V30 6 1 5 7
M  V30 7 1 6 8
M  V30 8 2 7 9
M  V30 9 1 8 10
M  V30 10 2 8 11
M  V30 11 1 9 12
M  V30 12 2 10 13
M  V30 13 1 10 14
M  V30 14 2 12 15
M  V30 15 1 12 16
M  V30 16 1 14 17
M  V30 17 1 16 18
M  V30 18 1 9 11
M  V30 19 1 6 19
M  V30 20 1 7 20
M  V30 21 1 11 21
M  V30 22 1 17 22
M  V30 23 1 17 23
M  V30 24 1 17 24
M  V30 25 1 18 25
M  V30 26 1 18 26
M  V30 27 1 18 27
M  V30 END BOND
M  V30 END CTAB
M  END
>  <Structure No>
2010

>  <LogS>
-0.966481992

>  <MMFF94 Energy>
42.362

$$$$
Compound 2011
Actelion Java MolfileCreator 2.0

  0  0  0  0  0  0              0 V3000
M  V30 BEGIN CTAB
M  V30 COUNTS 1 0 0 0 0
M  V30 BEGIN ATOM
M  V30 1 Cl 0.0 0.0 0.0 0 CHG=-1
M  V30 END ATOM
M  V30 BEGIN BOND
M  V30 END BOND
M  V30 END CTAB
M  END
>  <Structure No>
2011

>  <LogS>
0.734326761

>  <MMFF94 Energy>
MMFF94 error code 2

$$$$
Compound 2012
Actelion Java MolfileCreator 2.0

  0  0  0  0  0  0              0 V3000
M  V30 BEGIN CTAB
M  V30 COUNTS 15 14 0 0 0
M  V30 BEGIN ATOM
M  V30 1 O -2.2556 1.7719 0.7246 0
M  V30 2 C -1.8768 1.065 -0.246 0
M  V30 3 O -1.8131 1.6198 -1.5178 0 CHG=-1
M  V30 4 C -1.4621 -0.3574 -0.0252 0
M  V30 5 C -0.0476 -0.4541 0.5611 0
M  V30 6 C 1.0273 -0.0149 -0.441 0
M  V30 7 C 2.3915 -0.1786 0.1506 0
M  V30 8 O 3.0177 -1.2617 0.0093 0
M  V30 9 O 2.9516 0.8476 0.9006 0 CHG=-1
M  V30 10 H -2.1778 -0.8326 0.6799 0
M  V30 11 H -1.5165 -0.9181 -0.9835 0
M  V30 12 H 0.1371 -1.5127 0.8485 0
M  V30 13 H 0.0183 0.1642 1.484 0
M  V30 14 H 0.8818 1.0521 -0.7135 0
M  V30 15 H 0.9521 -0.6238 -1.3685 0
M  V30 END ATOM
M  V30 BEGIN BOND
M  V30 1 2 1 2
M  V30 2 1 2 3
M  V30 3 1 2 4
M  V30 4 1 4 5
M  V30 5 1 5 6
M  V30 6 1 6 7
M  V30 7 2 7 8
M  V30 8 1 7 9
M  V30 9 1 4 10
M  V30 10 1 4 11
M  V30 11 1 5 12
M  V30 12 1 5 13
M  V30 13 1 6 14
M  V30 14 1 6 15
M  V30 END BOND
M  V30 END CTAB
M  END
>  <Structure No>
2012

>  <LogS>
0.342754077

>  <MMFF94 Energy>
59.581

$$$$
Compound 2013
Actelion Java MolfileCreator 2.0

  0  0  0  0  0  0              0 V3000
M  V30 BEGIN CTAB
M  V30 COUNTS 17 17 0 0 0
M  V30 BEGIN ATOM
M  V30 1 O -1.3471 2.2989 0.0792 0
M  V30 2 C -0.7335 1.2121 -0.0884 0
M  V30 3 C 0.6537 0.9698 0.2402 0
M  V30 4 C -1.3031 -0.0331 -0.6819 0 CFG=1
M  V30 5 O 1.5262 1.8927 0.8131 0
M  V30 6 C 0.9363 -0.2776 -0.1021 0
M  V30 7 O -0.1786 -0.9125 -0.649 0
M  V30 8 C -2.4426 -0.5944 0.1629 0
M  V30 9 C 2.2618 -0.9454 0.0631 0
M  V30 10 H -1.6264 0.1413 -1.7305 0
M  V30 11 H 2.4895 1.6569 1.018 0
M  V30 12 H -2.7894 -1.5552 -0.2717 0
M  V30 13 H -2.1031 -0.775 1.2057 0
M  V30 14 H -3.2946 0.1181 0.1748 0
M  V30 15 H 3.0348 -0.3976 -0.5152 0
M  V30 16 H 2.2056 -1.989 -0.3104 0
M  V30 17 H 2.5438 -0.9628 1.1367 0
M  V30 END ATOM
M  V30 BEGIN BOND
M  V30 1 2 1 2
M  V30 2 1 2 3
M  V30 3 1 2 4
M  V30 4 1 3 5
M  V30 5 2 3 6
M  V30 6 1 4 7
M  V30 7 1 4 8
M  V30 8 1 6 9
M  V30 9 1 6 7
M  V30 10 1 4 10
M  V30 11 1 5 11
M  V30 12 1 8 12
M  V30 13 1 8 13
M  V30 14 1 8 14
M  V30 15 1 9 15
M  V30 16 1 9 16
M  V30 17 1 9 17
M  V30 END BOND
M  V30 BEGIN COLLECTION
M  V30 MDLV30/STEABS ATOMS=(1 4)
M  V30 END COLLECTION
M  V30 END CTAB
M  END
>  <Structure No>
2013

>  <LogS>
0.390669896

>  <MMFF94 Energy>
46.725

$$$$
Compound 2014
Actelion Java MolfileCreator 2.0

  0  0  0  0  0  0              0 V3000
M  V30 BEGIN CTAB
M  V30 COUNTS 31 32 0 0 0
M  V30 BEGIN ATOM
M  V30 1 S -2.3336 2.3336 -0.2498 0
M  V30 2 O -1.2414 3.2691 -0.6869 0
M  V30 3 O -2.7152 2.6533 1.1677 0
M  V30 4 O -3.6627 2.5484 -1.2544 0 CHG=-1
M  V30 5 C -1.7891 0.6575 -0.3472 0
M  V30 6 C -2.6903 -0.3923 -0.0986 0
M  V30 7 C -0.4552 0.3728 -0.6719 0
M  V30 8 O -4.0203 -0.0824 0.2307 0
M  V30 9 C -2.2375 -1.7218 -0.186 0
M  V30 10 C 6.0E-4 -0.9536 -0.7458 0
M  V30 11 C -5.0312 -1.0467 0.5051 0
M  V30 12 C -0.9066 -2.0021 -0.5075 0
M  V30 13 C 1.4115 -1.2359 -1.1087 0
M  V30 14 O -0.4927 -3.3287 -0.5715 0 CHG=-1
M  V30 15 O 1.6599 -2.1967 -1.8871 0
M  V30 16 C 2.5376 -0.4161 -0.5954 0
M  V30 17 C 2.4566 0.2269 0.6546 0
M  V30 18 C 3.7237 -0.3019 -1.3436 0
M  V30 19 C 3.5298 0.986 1.131 0
M  V30 20 C 4.794 0.4585 -0.8623 0
M  V30 21 C 4.6963 1.1038 0.3723 0
M  V30 22 H 0.2294 1.1853 -0.8795 0
M  V30 23 H -2.9092 -2.5491 -0.0018 0
M  V30 24 H -5.19 -1.6963 -0.3814 0
M  V30 25 H -5.9805 -0.5208 0.7343 0
M  V30 26 H -4.7443 -1.6612 1.3844 0
M  V30 27 H 1.5711 0.1321 1.2703 0
M  V30 28 H 3.8183 -0.7911 -2.305 0
M  V30 29 H 3.4586 1.4786 2.0922 0
M  V30 30 H 5.7001 0.5471 -1.4477 0
M  V30 31 H 5.5262 1.6912 0.7434 0
M  V30 END ATOM
M  V30 BEGIN BOND
M  V30 1 2 1 2
M  V30 2 2 1 3
M  V30 3 1 1 4
M  V30 4 1 1 5
M  V30 5 2 5 6
M  V30 6 1 5 7
M  V30 7 1 6 8
M  V30 8 1 6 9
M  V30 9 2 7 10
M  V30 10 1 8 11
M  V30 11 2 9 12
M  V30 12 1 10 13
M  V30 13 1 12 14
M  V30 14 2 13 15
M  V30 15 1 13 16
M  V30 16 2 16 17
M  V30 17 1 16 18
M  V30 18 1 17 19
M  V30 19 2 18 20
M  V30 20 2 19 21
M  V30 21 1 10 12
M  V30 22 1 20 21
M  V30 23 1 7 22
M  V30 24 1 9 23
M  V30 25 1 11 24
M  V30 26 1 11 25
M  V30 27 1 11 26
M  V30 28 1 17 27
M  V30 29 1 18 28
M  V30 30 1 19 29
M  V30 31 1 20 30
M  V30 32 1 21 31
M  V30 END BOND
M  V30 END CTAB
M  END
>  <Structure No>
2014

>  <LogS>
-0.022384851

>  <MMFF94 Energy>
155.31

$$$$
Compound 2015
Actelion Java MolfileCreator 2.0

  0  0  0  0  0  0              0 V3000
M  V30 BEGIN CTAB
M  V30 COUNTS 28 27 0 0 0
M  V30 BEGIN ATOM
M  V30 1 O -0.0774 -0.2322 -2.0921 0
M  V30 2 C 0.2974 0.3663 -0.8736 0 CFG=1
M  V30 3 C -0.9774 0.5013 0.0555 0
M  V30 4 C 1.5938 -0.3427 -0.3456 0
M  V30 5 C -1.7735 -0.8241 0.2451 0
M  V30 6 C -0.6112 1.05 1.4504 0
M  V30 7 C -1.9323 1.5319 -0.601 0
M  V30 8 C 2.4529 0.5223 0.5939 0
M  V30 9 C 1.384 -1.7458 0.2315 0
M  V30 10 O -2.1718 -1.3695 -0.9834 0
M  V30 11 H 0.5308 0.1134 -2.7974 0
M  V30 12 H 0.6134 1.4137 -1.1013 0
M  V30 13 H 2.2347 -0.4889 -1.2448 0
M  V30 14 H -2.6835 -0.6198 0.8554 0
M  V30 15 H -1.1923 -1.573 0.815 0
M  V30 16 H -0.1049 0.2781 2.0631 0
M  V30 17 H 0.0382 1.9474 1.3649 0
M  V30 18 H -1.5253 1.3447 2.0106 0
M  V30 19 H -2.8605 1.6578 -0.0017 0
M  V30 20 H -1.4445 2.5275 -0.6831 0
M  V30 21 H -2.2283 1.2089 -1.6219 0
M  V30 22 H 3.4828 0.1076 0.6407 0
M  V30 23 H 2.0631 0.536 1.629 0
M  V30 24 H 2.5272 1.564 0.2169 0
M  V30 25 H 0.7093 -2.3392 -0.4208 0
M  V30 26 H 2.3585 -2.2772 0.2814 0
M  V30 27 H 0.9819 -1.6998 1.2634 0
M  V30 28 H -2.6664 -2.2033 -0.7706 0
M  V30 END ATOM
M  V30 BEGIN BOND
M  V30 1 1 1 2
M  V30 2 1 2 3
M  V30 3 1 2 4
M  V30 4 1 3 5
M  V30 5 1 3 6
M  V30 6 1 3 7
M  V30 7 1 4 8
M  V30 8 1 4 9
M  V30 9 1 5 10
M  V30 10 1 1 11
M  V30 11 1 2 12
M  V30 12 1 4 13
M  V30 13 1 5 14
M  V30 14 1 5 15
M  V30 15 1 6 16
M  V30 16 1 6 17
M  V30 17 1 6 18
M  V30 18 1 7 19
M  V30 19 1 7 20
M  V30 20 1 7 21
M  V30 21 1 8 22
M  V30 22 1 8 23
M  V30 23 1 8 24
M  V30 24 1 9 25
M  V30 25 1 9 26
M  V30 26 1 9 27
M  V30 27 1 10 28
M  V30 END BOND
M  V30 BEGIN COLLECTION
M  V30 MDLV30/STEABS ATOMS=(1 2)
M  V30 END COLLECTION
M  V30 END CTAB
M  END
>  <Structure No>
2015

>  <LogS>
-0.666725926

>  <MMFF94 Energy>
28.007

$$$$
Compound 2016
Actelion Java MolfileCreator 2.0

  0  0  0  0  0  0              0 V3000
M  V30 BEGIN CTAB
M  V30 COUNTS 36 35 0 0 0
M  V30 BEGIN ATOM
M  V30 1 O -3.5103 0.7792 1.6369 0
M  V30 2 C -3.3039 0.2264 0.5214 0
M  V30 3 O -2.0111 -0.1369 0.1358 0
M  V30 4 C -4.4574 -0.0851 -0.3868 0 CFG=2
M  V30 5 C -0.8669 0.1143 0.9469 0
M  V30 6 O -5.3604 0.9887 -0.4111 0
M  V30 7 C -5.1784 -1.3417 0.0926 0
M  V30 8 C 0.4094 -0.3818 0.241 0 CFG=2
M  V30 9 C 1.6462 -0.1361 1.1428 0
M  V30 10 C 0.5541 0.2017 -1.1894 0
M  V30 11 C 2.9354 -0.8218 0.6379 0
M  V30 12 C 0.6234 1.7306 -1.2538 0
M  V30 13 C 3.9182 0.1735 0.0041 0
M  V30 14 C 5.1811 -0.5323 -0.4807 0
M  V30 15 H -4.0732 -0.2769 -1.4155 0
M  V30 16 H -0.9871 -0.424 1.9127 0
M  V30 17 H -0.7915 1.2013 1.1668 0
M  V30 18 H -4.9381 1.7046 -0.9549 0
M  V30 19 H -4.4787 -2.2049 0.1058 0
M  V30 20 H -6.017 -1.5788 -0.5959 0
M  V30 21 H -5.5886 -1.1902 1.1144 0
M  V30 22 H 0.2972 -1.4837 0.1287 0
M  V30 23 H 1.8044 0.9513 1.3066 0
M  V30 24 H 1.4216 -0.5596 2.1471 0
M  V30 25 H 1.4545 -0.2229 -1.6789 0
M  V30 26 H -0.3084 -0.1315 -1.8061 0
M  V30 27 H 2.6959 -1.6331 -0.0839 0
M  V30 28 H 3.4424 -1.3019 1.5043 0
M  V30 29 H -0.3301 2.183 -0.9119 0
M  V30 30 H 1.4604 2.1243 -0.6436 0
M  V30 31 H 0.7894 2.0432 -2.3062 0
M  V30 32 H 3.4477 0.6875 -0.8584 0
M  V30 33 H 4.2043 0.9431 0.7538 0
M  V30 34 H 4.9269 -1.2897 -1.2525 0
M  V30 35 H 5.6952 -1.0313 0.3683 0
M  V30 36 H 5.8741 0.211 -0.9278 0
M  V30 END ATOM
M  V30 BEGIN BOND
M  V30 1 2 1 2
M  V30 2 1 2 3
M  V30 3 1 2 4
M  V30 4 1 3 5
M  V30 5 1 4 6
M  V30 6 1 4 7
M  V30 7 1 5 8
M  V30 8 1 8 9
M  V30 9 1 8 10
M  V30 10 1 9 11
M  V30 11 1 10 12
M  V30 12 1 11 13
M  V30 13 1 13 14
M  V30 14 1 4 15
M  V30 15 1 5 16
M  V30 16 1 5 17
M  V30 17 1 6 18
M  V30 18 1 7 19
M  V30 19 1 7 20
M  V30 20 1 7 21
M  V30 21 1 8 22
M  V30 22 1 9 23
M  V30 23 1 9 24
M  V30 24 1 10 25
M  V30 25 1 10 26
M  V30 26 1 11 27
M  V30 27 1 11 28
M  V30 28 1 12 29
M  V30 29 1 12 30
M  V30 30 1 12 31
M  V30 31 1 13 32
M  V30 32 1 13 33
M  V30 33 1 14 34
M  V30 34 1 14 35
M  V30 35 1 14 36
M  V30 END BOND
M  V30 BEGIN COLLECTION
M  V30 MDLV30/STEABS ATOMS=(2 4 8)
M  V30 END COLLECTION
M  V30 END CTAB
M  END
>  <Structure No>
2016

>  <LogS>
-2.67352571

>  <MMFF94 Energy>
30.242

$$$$
Compound 2017
Actelion Java MolfileCreator 2.0

  0  0  0  0  0  0              0 V3000
M  V30 BEGIN CTAB
M  V30 COUNTS 14 14 0 0 0
M  V30 BEGIN ATOM
M  V30 1 O 0.3942 2.4465 -0.4731 0
M  V30 2 C 0.2035 1.2611 -0.2524 0
M  V30 3 C 1.3041 0.2813 -0.1004 0
M  V30 4 C -1.1493 0.6739 -0.1123 0
M  V30 5 C 0.5945 -0.9987 0.3294 0
M  V30 6 C -0.8872 -0.8262 -0.0245 0
M  V30 7 H 1.8188 0.1417 -1.0754 0
M  V30 8 H 2.0276 0.6153 0.6742 0
M  V30 9 H -1.6263 1.0487 0.8187 0
M  V30 10 H -1.7801 0.9172 -0.9945 0
M  V30 11 H 1.0274 -1.8879 -0.1777 0
M  V30 12 H 0.6965 -1.1271 1.4299 0
M  V30 13 H -1.0854 -1.2954 -1.0135 0
M  V30 14 H -1.5403 -1.3042 0.7374 0
M  V30 END ATOM
M  V30 BEGIN BOND
M  V30 1 2 1 2
M  V30 2 1 2 3
M  V30 3 1 2 4
M  V30 4 1 3 5
M  V30 5 1 4 6
M  V30 6 1 5 6
M  V30 7 1 3 7
M  V30 8 1 3 8
M  V30 9 1 4 9
M  V30 10 1 4 10
M  V30 11 1 5 11
M  V30 12 1 5 12
M  V30 13 1 6 13
M  V30 14 1 6 14
M  V30 END BOND
M  V30 END CTAB
M  END
>  <Structure No>
2017

>  <LogS>
0.553677557

>  <MMFF94 Energy>
1.7528

$$$$
Compound 2018
Actelion Java MolfileCreator 2.0

  0  0  0  0  0  0              0 V3000
M  V30 BEGIN CTAB
M  V30 COUNTS 11 10 0 0 0
M  V30 BEGIN ATOM
M  V30 1 N 0.1461 0.5848 0.0 0 CHG=1
M  V30 2 C -1.2163 0.0742 -0.1671 0
M  V30 3 C 1.0926 -0.512 0.2144 0
M  V30 4 H 0.4226 1.1147 -0.859 0
M  V30 5 H 0.1733 1.2285 0.8248 0
M  V30 6 H -1.9161 0.9225 -0.3281 0
M  V30 7 H -1.542 -0.4778 0.7417 0
M  V30 8 H -1.2767 -0.599 -1.0502 0
M  V30 9 H 1.0968 -1.2017 -0.658 0
M  V30 10 H 2.1179 -0.1018 0.3384 0
M  V30 11 H 0.8315 -1.0806 1.1339 0
M  V30 END ATOM
M  V30 BEGIN BOND
M  V30 1 1 1 2
M  V30 2 1 1 3
M  V30 3 1 1 4
M  V30 4 1 1 5
M  V30 5 1 2 6
M  V30 6 1 2 7
M  V30 7 1 2 8
M  V30 8 1 3 9
M  V30 9 1 3 10
M  V30 10 1 3 11
M  V30 END BOND
M  V30 END CTAB
M  END
>  <Structure No>
2018

>  <LogS>
1.565718592

>  <MMFF94 Energy>
2.6786

$$$$
Compound 2019
Actelion Java MolfileCreator 2.0

  0  0  0  0  0  0              0 V3000
M  V30 BEGIN CTAB
M  V30 COUNTS 8 7 0 0 0
M  V30 BEGIN ATOM
M  V30 1 O 1.2136 1.3654 0.1516 0
M  V30 2 C 1.3279 0.1177 0.287 0
M  V30 3 O 0.2266 -0.7277 0.136 0
M  V30 4 C -1.0735 -0.2421 -0.1753 0
M  V30 5 H 2.2941 -0.3058 0.5242 0
M  V30 6 H -1.776 -1.098 -0.2433 0
M  V30 7 H -1.0579 0.2887 -1.1507 0
M  V30 8 H -1.4231 0.4476 0.6218 0
M  V30 END ATOM
M  V30 BEGIN BOND
M  V30 1 2 1 2
M  V30 2 1 2 3
M  V30 3 1 3 4
M  V30 4 1 2 5
M  V30 5 1 4 6
M  V30 6 1 4 7
M  V30 7 1 4 8
M  V30 END BOND
M  V30 END CTAB
M  END
>  <Structure No>
2019

>  <LogS>
0.698593779

>  <MMFF94 Energy>
-8.3162

$$$$
Compound 2020
Actelion Java MolfileCreator 2.0

  0  0  0  0  0  0              0 V3000
M  V30 BEGIN CTAB
M  V30 COUNTS 36 39 0 0 0
M  V30 BEGIN ATOM
M  V30 1 S -3.1784 2.7365 -1.2352 0
M  V30 2 O -2.6786 3.0403 -2.6195 0
M  V30 3 O -2.8311 3.8681 -0.3091 0
M  V30 4 O -4.8518 2.5889 -1.2926 0 CHG=-1
M  V30 5 C -2.4362 1.235 -0.6482 0
M  V30 6 C -1.0353 1.0834 -0.5015 0
M  V30 7 C -3.2819 0.1713 -0.3221 0
M  V30 8 C -0.5075 -0.1463 -0.0271 0
M  V30 9 C -0.1464 2.1251 -0.816 0
M  V30 10 C -2.782 -1.0468 0.1477 0
M  V30 11 C 0.8999 -0.3078 0.1225 0
M  V30 12 C -1.3834 -1.2151 0.2976 0
M  V30 13 C 1.2268 1.9685 -0.6695 0
M  V30 14 S -3.9424 -2.333 0.5375 0
M  V30 15 C 1.7756 0.7629 -0.2012 0
M  V30 16 C 1.4283 -1.5392 0.5953 0
M  V30 17 C -0.8344 -2.4222 0.7617 0
M  V30 18 O -3.6909 -3.5234 -0.3445 0
M  V30 19 O -5.3527 -1.8606 0.3184 0
M  V30 20 O -3.7738 -2.7736 2.1503 0 CHG=-1
M  V30 21 C 3.1743 0.5966 -0.0486 0
M  V30 22 C 2.8304 -1.6848 0.7382 0
M  V30 23 C 0.5391 -2.5814 0.9077 0
M  V30 24 S 4.3346 1.8859 -0.4261 0
M  V30 25 C 3.6733 -0.6231 0.4166 0
M  V30 26 O 3.4414 -2.8579 1.1945 0
M  V30 27 O 4.2362 2.2424 -1.8827 0
M  V30 28 O 5.7391 1.4373 -0.1333 0
M  V30 29 O 4.0005 3.2374 0.5147 0 CHG=-1
M  V30 30 H -4.3495 0.2939 -0.4363 0
M  V30 31 H -0.4945 3.0799 -1.181 0
M  V30 32 H 1.8477 2.812 -0.9322 0
M  V30 33 H -1.4557 -3.2668 1.0196 0
M  V30 34 H 0.8761 -3.5388 1.2695 0
M  V30 35 H 4.7401 -0.7623 0.5355 0
M  V30 36 H 2.9539 -3.7 1.4614 0
M  V30 END ATOM
M  V30 BEGIN BOND
M  V30 1 2 1 2
M  V30 2 2 1 3
M  V30 3 1 1 4
M  V30 4 1 1 5
M  V30 5 1 5 6
M  V30 6 2 5 7
M  V30 7 1 6 8
M  V30 8 2 6 9
M  V30 9 1 7 10
M  V30 10 2 8 11
M  V30 11 1 8 12
M  V30 12 1 9 13
M  V30 13 1 10 14
M  V30 14 1 11 15
M  V30 15 1 11 16
M  V30 16 1 12 17
M  V30 17 2 14 18
M  V30 18 2 14 19
M  V30 19 1 14 20
M  V30 20 1 15 21
M  V30 21 2 16 22
M  V30 22 1 16 23
M  V30 23 1 21 24
M  V30 24 2 21 25
M  V30 25 1 22 26
M  V30 26 2 24 27
M  V30 27 2 24 28
M  V30 28 1 24 29
M  V30 29 2 10 12
M  V30 30 2 13 15
M  V30 31 2 17 23
M  V30 32 1 22 25
M  V30 33 1 7 30
M  V30 34 1 9 31
M  V30 35 1 13 32
M  V30 36 1 17 33
M  V30 37 1 23 34
M  V30 38 1 25 35
M  V30 39 1 26 36
M  V30 END BOND
M  V30 END CTAB
M  END
>  <Structure No>
2020

>  <LogS>
-0.242535631

>  <MMFF94 Energy>
230.22

$$$$
Compound 2021
Actelion Java MolfileCreator 2.0

  0  0  0  0  0  0              0 V3000
M  V30 BEGIN CTAB
M  V30 COUNTS 22 23 0 0 0
M  V30 BEGIN ATOM
M  V30 1 O 0.7313 -2.9278 -0.4062 0
M  V30 2 C -0.1558 -2.0816 -0.1205 0
M  V30 3 O -1.5017 -2.3415 -0.2756 0
M  V30 4 C 0.1217 -0.7307 0.4742 0 CFG=1
M  V30 5 C -2.2029 -1.2438 0.1752 0
M  V30 6 C 1.0498 0.1375 -0.4269 0 CFG=1
M  V30 7 C -1.3177 -0.1386 0.6566 0 CFG=2
M  V30 8 O -3.4612 -1.1989 0.1894 0
M  V30 9 C 0.8459 1.6043 -0.1161 0
M  V30 10 C 2.5273 -0.238 -0.2533 0
M  V30 11 C -1.5655 1.1575 -0.1432 0
M  V30 12 C -0.3961 2.0857 0.0135 0
M  V30 13 H 0.5827 -0.8661 1.4783 0
M  V30 14 H 0.7738 -0.019 -1.4942 0
M  V30 15 H -1.5139 0.0473 1.736 0
M  V30 16 H 1.6934 2.2656 0.0436 0
M  V30 17 H 3.1611 0.3958 -0.9099 0
M  V30 18 H 2.8473 -0.0918 0.8009 0
M  V30 19 H 2.6995 -1.2959 -0.5376 0
M  V30 20 H -2.493 1.6556 0.2127 0
M  V30 21 H -1.6862 0.9266 -1.2251 0
M  V30 22 H -0.5545 3.1262 0.2804 0
M  V30 END ATOM
M  V30 BEGIN BOND
M  V30 1 2 1 2
M  V30 2 1 2 3
M  V30 3 1 2 4
M  V30 4 1 3 5
M  V30 5 1 4 6
M  V30 6 1 4 7
M  V30 7 2 5 8
M  V30 8 1 6 9
M  V30 9 1 6 10
M  V30 10 1 7 11
M  V30 11 2 9 12
M  V30 12 1 5 7
M  V30 13 1 11 12
M  V30 14 1 4 13
M  V30 15 1 6 14
M  V30 16 1 7 15
M  V30 17 1 9 16
M  V30 18 1 10 17
M  V30 19 1 10 18
M  V30 20 1 10 19
M  V30 21 1 11 20
M  V30 22 1 11 21
M  V30 23 1 12 22
M  V30 END BOND
M  V30 BEGIN COLLECTION
M  V30 MDLV30/STEABS ATOMS=(3 4 6 7)
M  V30 END COLLECTION
M  V30 END CTAB
M  END
>  <Structure No>
2021

>  <LogS>
-0.736268462

>  <MMFF94 Energy>
-29.261

$$$$
Compound 2022
Actelion Java MolfileCreator 2.0

  0  0  0  0  0  0              0 V3000
M  V30 BEGIN CTAB
M  V30 COUNTS 22 21 0 0 0
M  V30 BEGIN ATOM
M  V30 1 O 0.077 2.0045 0.3081 0
M  V30 2 C -0.5303 0.9123 0.1302 0
M  V30 3 N 0.1976 -0.3247 0.226 0
M  V30 4 C -1.9868 0.922 -0.1699 0
M  V30 5 C 1.656 -0.3608 0.3834 0
M  V30 6 C -2.7059 2.0395 -0.0036 0
M  V30 7 C -2.6755 -0.3368 -0.6247 0
M  V30 8 C 2.1067 -1.7416 0.8718 0
M  V30 9 C 2.3359 -0.0175 -0.9454 0
M  V30 10 H -0.3304 -1.2262 0.2361 0
M  V30 11 H 1.9629 0.3844 1.1504 0
M  V30 12 H -3.7707 2.0542 -0.2017 0
M  V30 13 H -2.2506 2.9598 0.3399 0
M  V30 14 H -3.6708 -0.1251 -1.0721 0
M  V30 15 H -2.8147 -1.0178 0.2408 0
M  V30 16 H -2.0639 -0.8453 -1.3994 0
M  V30 17 H 1.8406 -2.5256 0.1305 0
M  V30 18 H 3.2062 -1.7533 1.0304 0
M  V30 19 H 1.6125 -1.9795 1.8378 0
M  V30 20 H 2.035 -0.7414 -1.7328 0
M  V30 21 H 3.4405 -0.0455 -0.8306 0
M  V30 22 H 2.0488 1.0036 -1.2725 0
M  V30 END ATOM
M  V30 BEGIN BOND
M  V30 1 2 1 2
M  V30 2 1 2 3
M  V30 3 1 2 4
M  V30 4 1 3 5
M  V30 5 2 4 6
M  V30 6 1 4 7
M  V30 7 1 5 8
M  V30 8 1 5 9
M  V30 9 1 3 10
M  V30 10 1 5 11
M  V30 11 1 6 12
M  V30 12 1 6 13
M  V30 13 1 7 14
M  V30 14 1 7 15
M  V30 15 1 7 16
M  V30 16 1 8 17
M  V30 17 1 8 18
M  V30 18 1 8 19
M  V30 19 1 9 20
M  V30 20 1 9 21
M  V30 21 1 9 22
M  V30 END BOND
M  V30 END CTAB
M  END
>  <Structure No>
2022

>  <LogS>
-0.620142884

>  <MMFF94 Energy>
-20.275

$$$$
Compound 2023
Actelion Java MolfileCreator 2.0

  0  0  0  0  0  0              0 V3000
M  V30 BEGIN CTAB
M  V30 COUNTS 92 97 0 0 0
M  V30 BEGIN ATOM
M  V30 1 S 1.3092 -3.1935 2.7837 0
M  V30 2 O 0.1491 -3.7279 1.9931 0
M  V30 3 O 0.8132 -2.296 3.8837 0
M  V30 4 O 2.1175 -4.4947 3.4768 0 CHG=-1
M  V30 5 C 2.3908 -2.2951 1.7077 0
M  V30 6 C 1.9378 -1.2062 0.9193 0
M  V30 7 C 3.7273 -2.7159 1.6077 0
M  V30 8 C 2.8519 -0.577 0.0511 0
M  V30 9 C 0.5491 -0.6822 1.0459 0
M  V30 10 C 4.6297 -2.0736 0.7522 0
M  V30 11 C 4.1718 -1.0173 -0.0451 0
M  V30 12 C -0.0943 -0.0554 0.0511 0
M  V30 13 N 5.9838 -2.5566 0.6661 0
M  V30 14 C -1.3894 0.6206 0.2638 0
M  V30 15 C 7.1289 -1.7434 0.3657 0
M  V30 16 C -2.5697 -0.0556 0.6622 0
M  V30 17 C -1.4319 2.0065 0.0485 0
M  V30 18 N 7.051 -0.3866 0.3925 0
M  V30 19 N 8.3172 -2.3381 0.0883 0
M  V30 20 S -2.6479 -1.8116 0.8589 0
M  V30 21 C -3.7427 0.6834 0.8857 0
M  V30 22 C -2.6087 2.7254 0.2579 0
M  V30 23 C 8.1432 0.3727 0.1213 0
M  V30 24 C 9.4161 -1.5874 -0.184 0
M  V30 25 O -1.7012 -2.4954 -0.086 0
M  V30 26 O -4.0422 -2.2901 0.5581 0
M  V30 27 O -2.2633 -2.2103 2.4435 0 CHG=-1
M  V30 28 C -3.775 2.0706 0.6661 0
M  V30 29 N 9.3225 -0.2337 -0.1738 0
M  V30 30 N 8.0197 1.8023 0.0839 0
M  V30 31 N 10.6708 -2.2092 -0.4854 0
M  V30 32 N -4.9685 2.8383 0.8955 0
M  V30 33 C 9.1184 2.6949 -0.1639 0
M  V30 34 C 10.8207 -3.6531 -0.6455 0
M  V30 35 C -6.2907 2.375 0.5877 0
M  V30 36 C 8.9218 3.8192 -0.9804 0
M  V30 37 C 10.3753 2.4937 0.4363 0
M  V30 38 C 10.2199 -4.1172 -1.971 0
M  V30 39 N -6.479 1.2724 -0.1839 0
M  V30 40 N -7.3673 3.0703 1.038 0
M  V30 41 C 9.9742 4.7078 -1.2247 0
M  V30 42 C 11.4239 3.3869 0.1916 0
M  V30 43 O 10.8576 -3.4675 -3.0354 0
M  V30 44 C -7.7323 0.854 -0.4928 0
M  V30 45 C -8.625 2.6581 0.7355 0
M  V30 46 C 11.2258 4.4887 -0.6428 0
M  V30 47 N -8.8012 1.5468 -0.0237 0
M  V30 48 N -7.9089 -0.3433 -1.2638 0
M  V30 49 N -9.7544 3.4013 1.2106 0
M  V30 50 C -9.1895 -0.8561 -1.6676 0
M  V30 51 C -11.128 3.0848 0.8188 0
M  V30 52 C -10.2141 -0.0024 -2.1163 0
M  V30 53 C -9.4079 -2.2424 -1.6652 0
M  V30 54 C -11.6296 1.8388 1.5519 0
M  V30 55 C -11.4467 -0.529 -2.5155 0
M  V30 56 C -10.642 -2.7651 -2.0626 0
M  V30 57 O -12.9756 1.6014 1.2417 0
M  V30 58 C -11.6624 -1.9087 -2.4829 0
M  V30 59 H 4.0786 -3.5488 2.2011 0
M  V30 60 H 2.5607 0.2771 -0.5454 0
M  V30 61 H 0.0472 -0.7776 1.9987 0
M  V30 62 H 4.8233 -0.534 -0.7585 0
M  V30 63 H 0.3819 0.0866 -0.9083 0
M  V30 64 H 6.1608 -3.5608 0.8971 0
M  V30 65 H -0.5419 2.5385 -0.2655 0
M  V30 66 H -4.6296 0.176 1.2438 0
M  V30 67 H -2.6151 3.7969 0.0921 0
M  V30 68 H 7.0545 2.2033 0.0939 0
M  V30 69 H 11.5191 -1.6057 -0.5762 0
M  V30 70 H -4.8667 3.8284 1.2194 0
M  V30 71 H 10.3332 -4.1814 0.2011 0
M  V30 72 H 11.9007 -3.9133 -0.626 0
M  V30 73 H 7.9553 4.0005 -1.4351 0
M  V30 74 H 10.5406 1.6644 1.1121 0
M  V30 75 H 10.3557 -5.2168 -2.0653 0
M  V30 76 H 9.1301 -3.8966 -1.9915 0
M  V30 77 H 9.8188 5.5671 -1.8633 0
M  V30 78 H 12.3886 3.2266 0.6569 0
M  V30 79 H 10.4286 -3.8064 -3.8632 0
M  V30 80 H 12.0369 5.1794 -0.8312 0
M  V30 81 H -7.0677 -0.9457 -1.413 0
M  V30 82 H -9.5862 4.2587 1.7835 0
M  V30 83 H -11.7881 3.9416 1.0796 0
M  V30 84 H -11.1829 2.9334 -0.2819 0
M  V30 85 H -10.0554 1.0648 -2.1884 0
M  V30 86 H -8.6243 -2.9159 -1.344 0
M  V30 87 H -11.0167 0.9496 1.286 0
M  V30 88 H -11.542 1.9998 2.6473 0
M  V30 89 H -12.2324 0.1331 -2.8551 0
M  V30 90 H -10.8055 -3.8349 -2.0514 0
M  V30 91 H -12.996 1.2679 0.3083 0
M  V30 92 H -12.6151 -2.3163 -2.7931 0
M  V30 END ATOM
M  V30 BEGIN BOND
M  V30 1 2 1 2
M  V30 2 2 1 3
M  V30 3 1 1 4
M  V30 4 1 1 5
M  V30 5 2 5 6
M  V30 6 1 5 7
M  V30 7 1 6 8
M  V30 8 1 6 9
M  V30 9 2 7 10
M  V30 10 2 8 11
M  V30 11 2 9 12
M  V30 12 1 10 13
M  V30 13 1 12 14
M  V30 14 1 13 15
M  V30 15 2 14 16
M  V30 16 1 14 17
M  V30 17 2 15 18
M  V30 18 1 15 19
M  V30 19 1 16 20
M  V30 20 1 16 21
M  V30 21 2 17 22
M  V30 22 1 18 23
M  V30 23 2 19 24
M  V30 24 2 20 25
M  V30 25 2 20 26
M  V30 26 1 20 27
M  V30 27 2 21 28
M  V30 28 2 23 29
M  V30 29 1 23 30
M  V30 30 1 24 31
M  V30 31 1 28 32
M  V30 32 1 30 33
M  V30 33 1 31 34
M  V30 34 1 32 35
M  V30 35 2 33 36
M  V30 36 1 33 37
M  V30 37 1 34 38
M  V30 38 2 35 39
M  V30 39 1 35 40
M  V30 40 1 36 41
M  V30 41 2 37 42
M  V30 42 1 38 43
M  V30 43 1 39 44
M  V30 44 2 40 45
M  V30 45 2 41 46
M  V30 46 2 44 47
M  V30 47 1 44 48
M  V30 48 1 45 49
M  V30 49 1 48 50
M  V30 50 1 49 51
M  V30 51 2 50 52
M  V30 52 1 50 53
M  V30 53 1 51 54
M  V30 54 1 52 55
M  V30 55 2 53 56
M  V30 56 1 54 57
M  V30 57 2 55 58
M  V30 58 1 10 11
M  V30 59 1 22 28
M  V30 60 1 24 29
M  V30 61 1 42 46
M  V30 62 1 45 47
M  V30 63 1 56 58
M  V30 64 1 7 59
M  V30 65 1 8 60
M  V30 66 1 9 61
M  V30 67 1 11 62
M  V30 68 1 12 63
M  V30 69 1 13 64
M  V30 70 1 17 65
M  V30 71 1 21 66
M  V30 72 1 22 67
M  V30 73 1 30 68
M  V30 74 1 31 69
M  V30 75 1 32 70
M  V30 76 1 34 71
M  V30 77 1 34 72
M  V30 78 1 36 73
M  V30 79 1 37 74
M  V30 80 1 38 75
M  V30 81 1 38 76
M  V30 82 1 41 77
M  V30 83 1 42 78
M  V30 84 1 43 79
M  V30 85 1 46 80
M  V30 86 1 48 81
M  V30 87 1 49 82
M  V30 88 1 51 83
M  V30 89 1 51 84
M  V30 90 1 52 85
M  V30 91 1 53 86
M  V30 92 1 54 87
M  V30 93 1 54 88
M  V30 94 1 55 89
M  V30 95 1 56 90
M  V30 96 1 57 91
M  V30 97 1 58 92
M  V30 END BOND
M  V30 END CTAB
M  END
>  <Structure No>
2023

>  <LogS>
-1.4592144

>  <MMFF94 Energy>
-312.74

$$$$
Compound 2024
Actelion Java MolfileCreator 2.0

  0  0  0  0  0  0              0 V3000
M  V30 BEGIN CTAB
M  V30 COUNTS 28 27 0 0 0
M  V30 BEGIN ATOM
M  V30 1 O -0.7724 -0.6179 -0.1544 0
M  V30 2 C -2.0472 -0.0585 0.1618 0
M  V30 3 C 0.1102 0.2755 -0.8105 0
M  V30 4 C -2.9449 -1.2399 0.5676 0
M  V30 5 C -1.9441 0.8985 1.3703 0
M  V30 6 C -2.7167 0.6552 -1.0392 0
M  V30 7 C 1.5303 -0.2661 -0.7149 0
M  V30 8 O 1.9129 -0.3366 0.6435 0
M  V30 9 C 3.273 -0.7104 0.7578 0
M  V30 10 C 4.1459 0.5256 0.9434 0
M  V30 11 H 0.1036 1.2932 -0.367 0
M  V30 12 H -0.1578 0.3457 -1.8873 0
M  V30 13 H -2.5058 -1.7788 1.4352 0
M  V30 14 H -3.0362 -1.9605 -0.2736 0
M  V30 15 H -3.9644 -0.8953 0.8477 0
M  V30 16 H -1.449 1.8532 1.1003 0
M  V30 17 H -2.9552 1.1548 1.755 0
M  V30 18 H -1.3655 0.4205 2.1898 0
M  V30 19 H -2.1858 1.5953 -1.2992 0
M  V30 20 H -3.767 0.9274 -0.7971 0
M  V30 21 H -2.7211 -0.0103 -1.9289 0
M  V30 22 H 2.2017 0.4154 -1.2856 0
M  V30 23 H 1.556 -1.2789 -1.1778 0
M  V30 24 H 3.3784 -1.3467 1.6619 0
M  V30 25 H 3.6484 -1.3167 -0.1007 0
M  V30 26 H 5.2 0.2179 1.1083 0
M  V30 27 H 4.0997 1.1702 0.0409 0
M  V30 28 H 3.7991 1.107 1.8241 0
M  V30 END ATOM
M  V30 BEGIN BOND
M  V30 1 1 1 2
M  V30 2 1 1 3
M  V30 3 1 2 4
M  V30 4 1 2 5
M  V30 5 1 2 6
M  V30 6 1 3 7
M  V30 7 1 7 8
M  V30 8 1 8 9
M  V30 9 1 9 10
M  V30 10 1 3 11
M  V30 11 1 3 12
M  V30 12 1 4 13
M  V30 13 1 4 14
M  V30 14 1 4 15
M  V30 15 1 5 16
M  V30 16 1 5 17
M  V30 17 1 5 18
M  V30 18 1 6 19
M  V30 19 1 6 20
M  V30 20 1 6 21
M  V30 21 1 7 22
M  V30 22 1 7 23
M  V30 23 1 9 24
M  V30 24 1 9 25
M  V30 25 1 10 26
M  V30 26 1 10 27
M  V30 27 1 10 28
M  V30 END BOND
M  V30 END CTAB
M  END
>  <Structure No>
2024

>  <LogS>
-0.687915225

>  <MMFF94 Energy>
38.965

$$$$
Compound 2025
Actelion Java MolfileCreator 2.0

  0  0  0  0  0  0              0 V3000
M  V30 BEGIN CTAB
M  V30 COUNTS 24 23 0 0 0
M  V30 BEGIN ATOM
M  V30 1 O 2.9536 1.7869 -0.6212 0
M  V30 2 C 3.0335 0.5509 -0.3833 0
M  V30 3 O 1.8903 -0.1931 -0.0787 0
M  V30 4 C 4.3671 -0.1151 -0.3782 0
M  V30 5 C 0.587 0.3801 -0.0458 0
M  V30 6 C -0.4337 -0.7045 0.3127 0
M  V30 7 C -1.8987 -0.2131 0.2871 0 CFG=2
M  V30 8 O -2.197 0.4109 -0.9516 0
M  V30 9 C -2.1798 0.7817 1.4166 0
M  V30 10 C -2.766 -0.5127 -1.8534 0
M  V30 11 H 4.8585 0.0487 0.6032 0
M  V30 12 H 5.006 0.3047 -1.1835 0
M  V30 13 H 4.247 -1.2056 -0.548 0
M  V30 14 H 0.3517 0.8087 -1.044 0
M  V30 15 H 0.5667 1.1892 0.7147 0
M  V30 16 H -0.3248 -1.5429 -0.4083 0
M  V30 17 H -0.1952 -1.111 1.32 0
M  V30 18 H -2.5532 -1.0959 0.4921 0
M  V30 19 H -1.8833 0.3531 2.3977 0
M  V30 20 H -1.6357 1.7351 1.2526 0
M  V30 21 H -3.2669 1.0076 1.4489 0
M  V30 22 H -3.7658 -0.8463 -1.4979 0
M  V30 23 H -2.9072 -0.0104 -2.8322 0
M  V30 24 H -2.0997 -1.3878 -2.017 0
M  V30 END ATOM
M  V30 BEGIN BOND
M  V30 1 2 1 2
M  V30 2 1 2 3
M  V30 3 1 2 4
M  V30 4 1 3 5
M  V30 5 1 5 6
M  V30 6 1 6 7
M  V30 7 1 7 8
M  V30 8 1 7 9
M  V30 9 1 8 10
M  V30 10 1 4 11
M  V30 11 1 4 12
M  V30 12 1 4 13
M  V30 13 1 5 14
M  V30 14 1 5 15
M  V30 15 1 6 16
M  V30 16 1 6 17
M  V30 17 1 7 18
M  V30 18 1 9 19
M  V30 19 1 9 20
M  V30 20 1 9 21
M  V30 21 1 10 22
M  V30 22 1 10 23
M  V30 23 1 10 24
M  V30 END BOND
M  V30 BEGIN COLLECTION
M  V30 MDLV30/STEABS ATOMS=(1 7)
M  V30 END COLLECTION
M  V30 END CTAB
M  END
>  <Structure No>
2025

>  <LogS>
-0.687784528

>  <MMFF94 Energy>
-1.3054

$$$$
Compound 2026
Actelion Java MolfileCreator 2.0

  0  0  0  0  0  0              0 V3000
M  V30 BEGIN CTAB
M  V30 COUNTS 51 50 0 0 0
M  V30 BEGIN ATOM
M  V30 1 S 8.7143 0.4781 -0.4781 0
M  V30 2 O 9.1566 1.7015 -1.2289 0
M  V30 3 O 8.6641 0.7972 0.9899 0
M  V30 4 O 7.1772 0.0266 -1.0269 0
M  V30 5 O 9.8226 -0.7558 -0.7512 0 CHG=-1
M  V30 6 C 6.8338 -1.1981 -0.4241 0
M  V30 7 C 5.4156 -1.5951 -0.8369 0
M  V30 8 C 4.3696 -0.6064 -0.3032 0
M  V30 9 C 2.9507 -1.0428 -0.6984 0
M  V30 10 C 1.8802 -0.0119 -0.305 0
M  V30 11 C 1.6102 0.0106 1.2095 0
M  V30 12 C 0.5403 1.0421 1.6034 0
M  V30 13 C -0.8801 0.6013 1.218 0
M  V30 14 C -1.924 1.6022 1.7359 0
M  V30 15 C -3.3666 1.1407 1.4739 0
M  V30 16 C -3.7359 1.1728 -0.0198 0
M  V30 17 C -5.2429 0.99 -0.2619 0
M  V30 18 C -5.7179 -0.4431 0.032 0
M  V30 19 C -7.2216 -0.6289 -0.2247 0
M  V30 20 C -7.5709 -0.6496 -1.7126 0
M  V30 21 H 6.8779 -1.1281 0.6865 0
M  V30 22 H 7.5254 -1.9998 -0.7657 0
M  V30 23 H 5.2001 -2.6098 -0.436 0
M  V30 24 H 5.3591 -1.642 -1.9466 0
M  V30 25 H 4.5726 0.4051 -0.7178 0
M  V30 26 H 4.4533 -0.5596 0.8031 0
M  V30 27 H 2.9121 -1.171 -1.8025 0
M  V30 28 H 2.7141 -2.0271 -0.2377 0
M  V30 29 H 2.1847 0.9992 -0.6532 0
M  V30 30 H 0.9457 -0.2839 -0.8385 0
M  V30 31 H 1.3056 -1.0004 1.5579 0
M  V30 32 H 2.5453 0.2823 1.7424 0
M  V30 33 H 0.7724 2.0245 1.1366 0
M  V30 34 H 0.5853 1.1759 2.7066 0
M  V30 35 H -1.0854 -0.4021 1.651 0
M  V30 36 H -0.9568 0.5361 0.1139 0
M  V30 37 H -1.7974 1.7188 2.8347 0
M  V30 38 H -1.7565 2.5985 1.2711 0
M  V30 39 H -3.5019 0.1166 1.882 0
M  V30 40 H -4.0482 1.8203 2.0309 0
M  V30 41 H -3.4393 2.1569 -0.4442 0
M  V30 42 H -3.1787 0.3851 -0.5704 0
M  V30 43 H -5.4406 1.2292 -1.3278 0
M  V30 44 H -5.8149 1.7152 0.3575 0
M  V30 45 H -5.5314 -0.6764 1.1014 0
M  V30 46 H -5.1388 -1.17 -0.5785 0
M  V30 47 H -7.5353 -1.5993 0.2175 0
M  V30 48 H -7.7996 0.1732 0.2835 0
M  V30 49 H -8.6438 -0.9083 -1.8351 0
M  V30 50 H -7.4032 0.346 -2.1719 0
M  V30 51 H -6.9622 -1.4109 -2.2449 0
M  V30 END ATOM
M  V30 BEGIN BOND
M  V30 1 2 1 2
M  V30 2 2 1 3
M  V30 3 1 1 4
M  V30 4 1 1 5
M  V30 5 1 4 6
M  V30 6 1 6 7
M  V30 7 1 7 8
M  V30 8 1 8 9
M  V30 9 1 9 10
M  V30 10 1 10 11
M  V30 11 1 11 12
M  V30 12 1 12 13
M  V30 13 1 13 14
M  V30 14 1 14 15
M  V30 15 1 15 16
M  V30 16 1 16 17
M  V30 17 1 17 18
M  V30 18 1 18 19
M  V30 19 1 19 20
M  V30 20 1 6 21
M  V30 21 1 6 22
M  V30 22 1 7 23
M  V30 23 1 7 24
M  V30 24 1 8 25
M  V30 25 1 8 26
M  V30 26 1 9 27
M  V30 27 1 9 28
M  V30 28 1 10 29
M  V30 29 1 10 30
M  V30 30 1 11 31
M  V30 31 1 11 32
M  V30 32 1 12 33
M  V30 33 1 12 34
M  V30 34 1 13 35
M  V30 35 1 13 36
M  V30 36 1 14 37
M  V30 37 1 14 38
M  V30 38 1 15 39
M  V30 39 1 15 40
M  V30 40 1 16 41
M  V30 41 1 16 42
M  V30 42 1 17 43
M  V30 43 1 17 44
M  V30 44 1 18 45
M  V30 45 1 18 46
M  V30 46 1 19 47
M  V30 47 1 19 48
M  V30 48 1 20 49
M  V30 49 1 20 50
M  V30 50 1 20 51
M  V30 END BOND
M  V30 END CTAB
M  END
>  <Structure No>
2026

>  <LogS>
-1.042005529

>  <MMFF94 Energy>
-46.886

$$$$
Compound 2027
Actelion Java MolfileCreator 2.0

  0  0  0  0  0  0              0 V3000
M  V30 BEGIN CTAB
M  V30 COUNTS 10 9 0 0 0
M  V30 BEGIN ATOM
M  V30 1 S 1.5717 -0.4134 0.4134 0 CFG=2
M  V30 2 O 2.0788 0.9112 0.9665 0
M  V30 3 O 2.2222 -0.4824 -1.1573 0 CHG=-1
M  V30 4 C -0.1626 -0.1246 0.1435 0
M  V30 5 N -1.04 -0.9071 0.6893 0 CHG=1
M  V30 6 N -0.5804 0.9689 -0.6764 0
M  V30 7 H -2.0625 -0.7534 0.5415 0
M  V30 8 H -0.74 -1.7079 1.2887 0
M  V30 9 H 0.1267 1.5981 -1.1162 0
M  V30 10 H -1.5937 1.1551 -0.8476 0
M  V30 END ATOM
M  V30 BEGIN BOND
M  V30 1 2 1 2
M  V30 2 1 1 3
M  V30 3 1 1 4
M  V30 4 2 4 5
M  V30 5 1 4 6
M  V30 6 1 5 7
M  V30 7 1 5 8
M  V30 8 1 6 9
M  V30 9 1 6 10
M  V30 END BOND
M  V30 BEGIN COLLECTION
M  V30 MDLV30/STEABS ATOMS=(1 1)
M  V30 END COLLECTION
M  V30 END CTAB
M  END
>  <Structure No>
2027

>  <LogS>
-0.556792816

>  <MMFF94 Energy>
-81.112

$$$$
Compound 2028
Actelion Java MolfileCreator 2.0

  0  0  0  0  0  0              0 V3000
M  V30 BEGIN CTAB
M  V30 COUNTS 27 26 0 0 0
M  V30 BEGIN ATOM
M  V30 1 O 1.0903 -2.4935 -0.7786 0
M  V30 2 C 1.2471 -1.2984 -0.4093 0
M  V30 3 O 0.1388 -0.4928 -0.1579 0
M  V30 4 C 2.6306 -0.7396 -0.2394 0
M  V30 5 O -1.1101 -0.9692 -0.3026 0
M  V30 6 C 2.8481 0.4358 -1.1962 0
M  V30 7 C 2.8531 -0.3093 1.2132 0
M  V30 8 C -2.0113 0.0724 0.0213 0
M  V30 9 C -1.8255 0.5216 1.4868 0
M  V30 10 C -1.8306 1.2706 -0.9353 0
M  V30 11 C -3.4332 -0.4845 -0.1479 0
M  V30 12 H 3.3759 -1.5288 -0.485 0
M  V30 13 H 3.8863 0.819 -1.1 0
M  V30 14 H 2.696 0.1059 -2.2462 0
M  V30 15 H 2.1397 1.2633 -0.974 0
M  V30 16 H 3.8915 0.0625 1.3462 0
M  V30 17 H 2.1448 0.4983 1.4995 0
M  V30 18 H 2.7047 -1.1746 1.8943 0
M  V30 19 H -2.6022 1.2643 1.7705 0
M  V30 20 H -0.8313 0.9939 1.6368 0
M  V30 21 H -1.9032 -0.3518 2.169 0
M  V30 22 H -1.9119 0.9346 -1.9912 0
M  V30 23 H -0.8363 1.7463 -0.7961 0
M  V30 24 H -2.6074 2.043 -0.7473 0
M  V30 25 H -4.1954 0.2881 0.0927 0
M  V30 26 H -3.589 -1.3555 0.5246 0
M  V30 27 H -3.5925 -0.824 -1.194 0
M  V30 END ATOM
M  V30 BEGIN BOND
M  V30 1 2 1 2
M  V30 2 1 2 3
M  V30 3 1 2 4
M  V30 4 1 3 5
M  V30 5 1 4 6
M  V30 6 1 4 7
M  V30 7 1 5 8
M  V30 8 1 8 9
M  V30 9 1 8 10
M  V30 10 1 8 11
M  V30 11 1 4 12
M  V30 12 1 6 13
M  V30 13 1 6 14
M  V30 14 1 6 15
M  V30 15 1 7 16
M  V30 16 1 7 17
M  V30 17 1 7 18
M  V30 18 1 9 19
M  V30 19 1 9 20
M  V30 20 1 9 21
M  V30 21 1 10 22
M  V30 22 1 10 23
M  V30 23 1 10 24
M  V30 24 1 11 25
M  V30 25 1 11 26
M  V30 26 1 11 27
M  V30 END BOND
M  V30 END CTAB
M  END
>  <Structure No>
2028

>  <LogS>
-1.607002567

>  <MMFF94 Energy>
29.186

$$$$
Compound 2029
Actelion Java MolfileCreator 2.0

  0  0  0  0  0  0              0 V3000
M  V30 BEGIN CTAB
M  V30 COUNTS 26 26 0 0 0
M  V30 BEGIN ATOM
M  V30 1 O -2.4261 1.0951 -1.1733 0
M  V30 2 C -1.3082 0.5311 -0.5145 0
M  V30 3 C -3.4155 1.4546 -0.2339 0
M  V30 4 O -1.6254 -0.7915 -0.1027 0
M  V30 5 C -0.1546 0.4726 -1.524 0
M  V30 6 C -1.3676 -0.9645 1.2736 0
M  V30 7 C 1.1119 -0.0431 -0.8916 0
M  V30 8 C 1.4446 -1.4058 -0.9749 0
M  V30 9 C 1.9437 0.8252 -0.1648 0
M  V30 10 C 2.6008 -1.8874 -0.3535 0
M  V30 11 C 3.0991 0.3393 0.4546 0
M  V30 12 C 3.4282 -1.0155 0.3594 0
M  V30 13 H -0.9716 1.2068 0.3158 0
M  V30 14 H -3.8042 0.5628 0.3042 0
M  V30 15 H -4.2676 1.9115 -0.7775 0
M  V30 16 H -3.0358 2.2121 0.4869 0
M  V30 17 H 0.0277 1.4913 -1.9318 0
M  V30 18 H -0.4445 -0.1718 -2.3833 0
M  V30 19 H -2.0042 -0.2896 1.887 0
M  V30 20 H -0.2928 -0.7977 1.5054 0
M  V30 21 H -1.6147 -2.0093 1.5519 0
M  V30 22 H 0.8066 -2.0943 -1.5148 0
M  V30 23 H 1.6943 1.8753 -0.0754 0
M  V30 24 H 2.8535 -2.9375 -0.4215 0
M  V30 25 H 3.7375 1.0125 1.0118 0
M  V30 26 H 4.3219 -1.3902 0.8411 0
M  V30 END ATOM
M  V30 BEGIN BOND
M  V30 1 1 1 2
M  V30 2 1 1 3
M  V30 3 1 2 4
M  V30 4 1 2 5
M  V30 5 1 4 6
M  V30 6 1 5 7
M  V30 7 2 7 8
M  V30 8 1 7 9
M  V30 9 1 8 10
M  V30 10 2 9 11
M  V30 11 2 10 12
M  V30 12 1 11 12
M  V30 13 1 2 13
M  V30 14 1 3 14
M  V30 15 1 3 15
M  V30 16 1 3 16
M  V30 17 1 5 17
M  V30 18 1 5 18
M  V30 19 1 6 19
M  V30 20 1 6 20
M  V30 21 1 6 21
M  V30 22 1 8 22
M  V30 23 1 9 23
M  V30 24 1 10 24
M  V30 25 1 11 25
M  V30 26 1 12 26
M  V30 END BOND
M  V30 END CTAB
M  END
>  <Structure No>
2029

>  <LogS>
-1.629618671

>  <MMFF94 Energy>
30.041

$$$$
Compound 2030
Actelion Java MolfileCreator 2.0

  0  0  0  0  0  0              0 V3000
M  V30 BEGIN CTAB
M  V30 COUNTS 16 16 0 0 0
M  V30 BEGIN ATOM
M  V30 1 N -1.1571 0.2313 0.1542 0 CHG=1
M  V30 2 C -0.2397 1.1442 0.5736 0
M  V30 3 C -0.7459 -0.9411 -0.3997 0
M  V30 4 N 1.0851 0.8816 0.4376 0
M  V30 5 N -0.6619 2.3772 1.1562 0
M  V30 6 N 0.5806 -1.1965 -0.5325 0
M  V30 7 N -1.7014 -1.9048 -0.8426 0
M  V30 8 C 1.4969 -0.2871 -0.1148 0
M  V30 9 N 2.889 -0.5592 -0.2558 0
M  V30 10 H -2.1777 0.4307 0.2577 0
M  V30 11 H 0.0431 3.077 1.4777 0
M  V30 12 H -1.6771 2.5947 1.2682 0
M  V30 13 H -1.3845 -2.8042 -1.2676 0
M  V30 14 H -2.7253 -1.7239 -0.7476 0
M  V30 15 H 3.2119 -1.4568 -0.6802 0
M  V30 16 H 3.5988 0.1367 0.0637 0
M  V30 END ATOM
M  V30 BEGIN BOND
M  V30 1 2 1 2
M  V30 2 1 1 3
M  V30 3 1 2 4
M  V30 4 1 2 5
M  V30 5 2 3 6
M  V30 6 1 3 7
M  V30 7 2 4 8
M  V30 8 1 8 9
M  V30 9 1 6 8
M  V30 10 1 1 10
M  V30 11 1 5 11
M  V30 12 1 5 12
M  V30 13 1 7 13
M  V30 14 1 7 14
M  V30 15 1 9 15
M  V30 16 1 9 16
M  V30 END BOND
M  V30 END CTAB
M  END
>  <Structure No>
2030

>  <LogS>
-1.759410193

>  <MMFF94 Energy>
-243.85

$$$$
Compound 2031
Actelion Java MolfileCreator 2.0

  0  0  0  0  0  0              0 V3000
M  V30 BEGIN CTAB
M  V30 COUNTS 25 27 0 0 0
M  V30 BEGIN ATOM
M  V30 1 O -1.292 1.4536 0.2421 0
M  V30 2 C -0.7685 0.4831 -0.6403 0 CFG=1
M  V30 3 C -2.7133 1.3968 0.2394 0
M  V30 4 C 0.7107 0.4769 -0.5397 0
M  V30 5 C -1.1649 -0.9408 -0.1864 0 CFG=2
M  V30 6 O -3.2616 0.0848 0.3581 0
M  V30 7 C 1.1892 -0.6799 0.0266 0
M  V30 8 C 1.5791 1.4988 -0.9343 0
M  V30 9 C -2.3042 -0.8365 0.831 0
M  V30 10 C 0.1024 -1.6211 0.3823 0
M  V30 11 C 2.5583 -0.8723 0.2284 0
M  V30 12 C 2.9583 1.3239 -0.7449 0
M  V30 13 C 3.4473 0.14 -0.164 0
M  V30 14 H -1.0781 0.6843 -1.6917 0
M  V30 15 H -3.0992 1.8641 -0.6922 0
M  V30 16 H -3.087 2.0096 1.0859 0
M  V30 17 H -1.5206 -1.5122 -1.0735 0
M  V30 18 H 1.196 2.4098 -1.3761 0
M  V30 19 H -2.7853 -1.8306 0.9471 0
M  V30 20 H -1.9338 -0.5216 1.8342 0
M  V30 21 H 0.0633 -1.7419 1.4865 0
M  V30 22 H 0.272 -2.6081 -0.0992 0
M  V30 23 H 2.928 -1.7843 0.679 0
M  V30 24 H 3.6472 2.103 -1.0443 0
M  V30 25 H 4.5117 0.0101 -0.0175 0
M  V30 END ATOM
M  V30 BEGIN BOND
M  V30 1 1 1 2
M  V30 2 1 1 3
M  V30 3 1 2 4
M  V30 4 1 2 5
M  V30 5 1 3 6
M  V30 6 2 4 7
M  V30 7 1 4 8
M  V30 8 1 5 9
M  V30 9 1 5 10
M  V30 10 1 7 11
M  V30 11 2 8 12
M  V30 12 2 11 13
M  V30 13 1 6 9
M  V30 14 1 7 10
M  V30 15 1 12 13
M  V30 16 1 2 14
M  V30 17 1 3 15
M  V30 18 1 3 16
M  V30 19 1 5 17
M  V30 20 1 8 18
M  V30 21 1 9 19
M  V30 22 1 9 20
M  V30 23 1 10 21
M  V30 24 1 10 22
M  V30 25 1 11 23
M  V30 26 1 12 24
M  V30 27 1 13 25
M  V30 END BOND
M  V30 BEGIN COLLECTION
M  V30 MDLV30/STEABS ATOMS=(2 2 5)
M  V30 END COLLECTION
M  V30 END CTAB
M  END
>  <Structure No>
2031

>  <LogS>
-1.656093273

>  <MMFF94 Energy>
6.1346

$$$$
Compound 2032
Actelion Java MolfileCreator 2.0

  0  0  0  0  0  0              0 V3000
M  V30 BEGIN CTAB
M  V30 COUNTS 33 33 0 0 0
M  V30 BEGIN ATOM
M  V30 1 O -1.1048 2.2896 2.3686 0
M  V30 2 C -1.2659 1.2012 1.7548 0
M  V30 3 C -1.4713 1.2184 0.286 0
M  V30 4 C -1.2047 -0.0823 2.5238 0
M  V30 5 C -2.5686 0.6534 -0.2849 0
M  V30 6 C -0.3912 1.8885 -0.5397 0
M  V30 7 O -2.7376 0.6002 -1.6722 0
M  V30 8 C -3.673 0.0504 0.5374 0
M  V30 9 C 0.5562 0.8756 -1.1356 0
M  V30 10 C 1.3135 0.0381 -0.2995 0
M  V30 11 C 0.7211 0.7849 -2.5257 0
M  V30 12 C 2.2007 -0.911 -0.8434 0
M  V30 13 C 1.603 -0.1491 -3.0715 0
M  V30 14 O 2.9531 -1.7745 -0.0311 0
M  V30 15 C 2.3392 -0.9988 -2.2406 0
M  V30 16 C 2.891 -1.8028 1.3913 0
M  V30 17 O 3.2065 -1.9233 -2.8221 0
M  V30 18 H -1.0595 -0.9443 1.8387 0
M  V30 19 H -0.3492 -0.0533 3.2307 0
M  V30 20 H -2.1432 -0.2202 3.0995 0
M  V30 21 H -0.8481 2.5351 -1.3193 0
M  V30 22 H 0.2035 2.5796 0.0961 0
M  V30 23 H -2.0705 0.956 -2.3413 0
M  V30 24 H -4.5857 -0.0657 -0.084 0
M  V30 25 H -3.372 -0.9542 0.899 0
M  V30 26 H -3.9311 0.7046 1.397 0
M  V30 27 H 1.2076 0.1329 0.7718 0
M  V30 28 H 0.1699 1.4381 -3.1903 0
M  V30 29 H 1.7165 -0.2128 -4.1462 0
M  V30 30 H 3.5781 -2.5874 1.7684 0
M  V30 31 H 3.2082 -0.8231 1.8071 0
M  V30 32 H 1.859 -2.0437 1.7242 0
M  V30 33 H 3.7644 -2.5624 -2.2686 0
M  V30 END ATOM
M  V30 BEGIN BOND
M  V30 1 2 1 2
M  V30 2 1 2 3
M  V30 3 1 2 4
M  V30 4 2 3 5
M  V30 5 1 3 6
M  V30 6 1 5 7
M  V30 7 1 5 8
M  V30 8 1 6 9
M  V30 9 2 9 10
M  V30 10 1 9 11
M  V30 11 1 10 12
M  V30 12 2 11 13
M  V30 13 1 12 14
M  V30 14 2 12 15
M  V30 15 1 14 16
M  V30 16 1 15 17
M  V30 17 1 13 15
M  V30 18 1 4 18
M  V30 19 1 4 19
M  V30 20 1 4 20
M  V30 21 1 6 21
M  V30 22 1 6 22
M  V30 23 1 7 23
M  V30 24 1 8 24
M  V30 25 1 8 25
M  V30 26 1 8 26
M  V30 27 1 10 27
M  V30 28 1 11 28
M  V30 29 1 13 29
M  V30 30 1 16 30
M  V30 31 1 16 31
M  V30 32 1 16 32
M  V30 33 1 17 33
M  V30 END BOND
M  V30 END CTAB
M  END
>  <Structure No>
2032

>  <LogS>
-1.786365949

>  <MMFF94 Energy>
39.54

$$$$
Compound 2033
Actelion Java MolfileCreator 2.0

  0  0  0  0  0  0              0 V3000
M  V30 BEGIN CTAB
M  V30 COUNTS 25 25 0 0 0
M  V30 BEGIN ATOM
M  V30 1 O -1.7992 2.1123 0.2345 0
M  V30 2 C -0.9157 1.0245 0.3395 0 CFG=2
M  V30 3 C 0.1215 1.0823 -0.8026 0 CFG=1
M  V30 4 C -1.7272 -0.2791 0.2539 0 CFG=2
M  V30 5 O 0.953 2.2053 -0.648 0
M  V30 6 C 0.9852 -0.2065 -0.8944 0 CFG=2
M  V30 7 O -2.6386 -0.3727 1.3206 0
M  V30 8 C -0.7988 -1.5046 0.2266 0
M  V30 9 N 0.1519 -1.4313 -0.8944 0 CHG=1
M  V30 10 C 2.1553 -0.2778 0.1204 0
M  V30 11 O 1.7115 -0.1844 1.4442 0
M  V30 12 H -1.3597 2.8879 0.6719 0
M  V30 13 H -0.3973 1.0616 1.3247 0
M  V30 14 H -0.4367 1.1649 -1.767 0
M  V30 15 H -2.3146 -0.2696 -0.6913 0
M  V30 16 H 0.4677 2.9837 -1.0282 0
M  V30 17 H 1.4856 -0.1582 -1.8895 0
M  V30 18 H -2.1153 -0.3893 2.1646 0
M  V30 19 H -1.424 -2.4178 0.1113 0
M  V30 20 H -0.2598 -1.6114 1.1912 0
M  V30 21 H -0.3886 -1.47 -1.791 0
M  V30 22 H 0.7653 -2.2793 -0.8716 0
M  V30 23 H 2.7081 -1.2336 -0.0207 0
M  V30 24 H 2.8701 0.55 -0.0865 0
M  V30 25 H 2.5224 -0.2425 2.0132 0
M  V30 END ATOM
M  V30 BEGIN BOND
M  V30 1 1 1 2
M  V30 2 1 2 3
M  V30 3 1 2 4
M  V30 4 1 3 5
M  V30 5 1 3 6
M  V30 6 1 4 7
M  V30 7 1 4 8
M  V30 8 1 6 9
M  V30 9 1 6 10
M  V30 10 1 10 11
M  V30 11 1 8 9
M  V30 12 1 1 12
M  V30 13 1 2 13
M  V30 14 1 3 14
M  V30 15 1 4 15
M  V30 16 1 5 16
M  V30 17 1 6 17
M  V30 18 1 7 18
M  V30 19 1 8 19
M  V30 20 1 8 20
M  V30 21 1 9 21
M  V30 22 1 9 22
M  V30 23 1 10 23
M  V30 24 1 10 24
M  V30 25 1 11 25
M  V30 END BOND
M  V30 BEGIN COLLECTION
M  V30 MDLV30/STEABS ATOMS=(4 2 3 4 6)
M  V30 END COLLECTION
M  V30 END CTAB
M  END
>  <Structure No>
2033

>  <LogS>
0.404352043

>  <MMFF94 Energy>
97.499

$$$$
Compound 2034
Actelion Java MolfileCreator 2.0

  0  0  0  0  0  0              0 V3000
M  V30 BEGIN CTAB
M  V30 COUNTS 23 22 0 0 0
M  V30 BEGIN ATOM
M  V30 1 Cl -0.0801 -0.9624 -2.4877 0
M  V30 2 C 0.0674 0.3029 -1.2384 0
M  V30 3 C -1.2377 0.4746 -0.5254 0
M  V30 4 C 1.1476 -0.0512 -0.264 0
M  V30 5 O -1.7383 1.6266 -0.4082 0
M  V30 6 O -1.8754 -0.6408 0.0313 0
M  V30 7 O 1.1493 -1.1837 0.2934 0
M  V30 8 O 2.1298 0.8971 0.0441 0
M  V30 9 C -3.1395 -0.5763 0.688 0
M  V30 10 C 3.2175 0.641 0.9302 0
M  V30 11 C -4.2671 -0.4406 -0.3285 0
M  V30 12 C 4.2697 -0.2295 0.2533 0
M  V30 13 H 0.3383 1.2503 -1.7535 0
M  V30 14 H -3.288 -1.5153 1.2618 0
M  V30 15 H -3.1612 0.2729 1.4052 0
M  V30 16 H 2.8531 0.1538 1.8608 0
M  V30 17 H 3.6822 1.6104 1.2085 0
M  V30 18 H -4.1712 0.5128 -0.8885 0
M  V30 19 H -4.235 -1.2887 -1.0448 0
M  V30 20 H -5.2458 -0.4489 0.1959 0
M  V30 21 H 5.1329 -0.3714 0.9371 0
M  V30 22 H 4.6246 0.2606 -0.6778 0
M  V30 23 H 3.8465 -1.2244 0.0025 0
M  V30 END ATOM
M  V30 BEGIN BOND
M  V30 1 1 1 2
M  V30 2 1 2 3
M  V30 3 1 2 4
M  V30 4 2 3 5
M  V30 5 1 3 6
M  V30 6 2 4 7
M  V30 7 1 4 8
M  V30 8 1 6 9
M  V30 9 1 8 10
M  V30 10 1 9 11
M  V30 11 1 10 12
M  V30 12 1 2 13
M  V30 13 1 9 14
M  V30 14 1 9 15
M  V30 15 1 10 16
M  V30 16 1 10 17
M  V30 17 1 11 18
M  V30 18 1 11 19
M  V30 19 1 11 20
M  V30 20 1 12 21
M  V30 21 1 12 22
M  V30 22 1 12 23
M  V30 END BOND
M  V30 END CTAB
M  END
>  <Structure No>
2034

>  <LogS>
-1.720972355

>  <MMFF94 Energy>
9.5354

$$$$
Compound 2035
Actelion Java MolfileCreator 2.0

  0  0  0  0  0  0              0 V3000
M  V30 BEGIN CTAB
M  V30 COUNTS 38 40 0 0 0
M  V30 BEGIN ATOM
M  V30 1 S 5.9721 1.1755 -1.3435 0
M  V30 2 O 7.012 0.9387 -0.2846 0
M  V30 3 O 6.0126 2.6236 -1.7442 0
M  V30 4 O 6.3055 0.2157 -2.6806 0 CHG=-1
M  V30 5 C 4.377 0.7715 -0.716 0
M  V30 6 C 3.2479 1.4517 -1.1773 0
M  V30 7 C 4.2323 -0.2469 0.2283 0
M  V30 8 C 1.9742 1.1343 -0.6957 0
M  V30 9 C 2.964 -0.5822 0.7267 0
M  V30 10 O 0.8943 1.858 -1.1912 0 CHG=-1
M  V30 11 C 1.8074 0.1075 0.271 0
M  V30 12 C 2.8451 -1.607 1.6713 0
M  V30 13 C 0.532 -0.2671 0.7803 0
M  V30 14 C 1.602 -1.9393 2.1969 0
M  V30 15 N -0.6517 0.35 0.2504 0
M  V30 16 C 0.4469 -1.2663 1.7855 0
M  V30 17 N -1.7425 -0.2862 0.0945 0
M  V30 18 N -0.788 -1.5655 2.4505 0
M  V30 19 C -2.9244 0.3324 -0.4347 0
M  V30 20 C -4.1046 -0.4316 -0.5891 0
M  V30 21 C -2.9234 1.6921 -0.8007 0
M  V30 22 C -5.261 0.1893 -1.1019 0
M  V30 23 C -4.1247 -1.8927 -0.1947 0
M  V30 24 C -4.0775 2.2881 -1.311 0
M  V30 25 C -5.2435 1.5388 -1.4603 0
M  V30 26 F -3.8758 -2.0078 1.1608 0
M  V30 27 F -3.1467 -2.5766 -0.8941 0
M  V30 28 F -5.3471 -2.4831 -0.4669 0
M  V30 29 H 3.3535 2.2348 -1.9179 0
M  V30 30 H 5.1103 -0.7808 0.5736 0
M  V30 31 H 3.721 -2.1413 2.0207 0
M  V30 32 H 1.5417 -2.7101 2.9553 0
M  V30 33 H -1.5781 -0.8849 2.4727 0
M  V30 34 H -0.8652 -2.402 3.0713 0
M  V30 35 H -2.031 2.2948 -0.6911 0
M  V30 36 H -6.1828 -0.3638 -1.2277 0
M  V30 37 H -4.0681 3.3341 -1.5896 0
M  V30 38 H -6.1374 2.0049 -1.8544 0
M  V30 END ATOM
M  V30 BEGIN BOND
M  V30 1 2 1 2
M  V30 2 2 1 3
M  V30 3 1 1 4
M  V30 4 1 1 5
M  V30 5 1 5 6
M  V30 6 2 5 7
M  V30 7 2 6 8
M  V30 8 1 7 9
M  V30 9 1 8 10
M  V30 10 1 8 11
M  V30 11 2 9 12
M  V30 12 2 11 13
M  V30 13 1 12 14
M  V30 14 1 13 15
M  V30 15 1 13 16
M  V30 16 2 15 17
M  V30 17 1 16 18
M  V30 18 1 17 19
M  V30 19 2 19 20
M  V30 20 1 19 21
M  V30 21 1 20 22
M  V30 22 1 20 23
M  V30 23 2 21 24
M  V30 24 2 22 25
M  V30 25 1 23 26
M  V30 26 1 23 27
M  V30 27 1 23 28
M  V30 28 1 9 11
M  V30 29 2 14 16
M  V30 30 1 24 25
M  V30 31 1 6 29
M  V30 32 1 7 30
M  V30 33 1 12 31
M  V30 34 1 14 32
M  V30 35 1 18 33
M  V30 36 1 18 34
M  V30 37 1 21 35
M  V30 38 1 22 36
M  V30 39 1 24 37
M  V30 40 1 25 38
M  V30 END BOND
M  V30 END CTAB
M  END
>  <Structure No>
2035

>  <LogS>
-2.068630062

>  <MMFF94 Energy>
174.88

$$$$
Compound 2036
Actelion Java MolfileCreator 2.0

  0  0  0  0  0  0              0 V3000
M  V30 BEGIN CTAB
M  V30 COUNTS 42 41 0 0 0
M  V30 BEGIN ATOM
M  V30 1 O 5.2616 0.1567 2.1177 0
M  V30 2 C 5.2032 0.1793 0.8574 0
M  V30 3 O 4.342 1.0746 0.2089 0
M  V30 4 C 6.0511 -0.7396 0.0665 0
M  V30 5 C 3.4368 1.9365 0.8974 0
M  V30 6 C 5.9348 -0.7937 -1.2647 0
M  V30 7 C 6.99 -1.6806 0.7714 0
M  V30 8 C 2.2338 1.1548 1.4198 0
M  V30 9 O 1.5923 0.5105 0.3394 0
M  V30 10 C 0.4997 -0.2429 0.8212 0
M  V30 11 C -0.1992 -0.9268 -0.352 0
M  V30 12 O -0.6345 0.0318 -1.2997 0
M  V30 13 C -1.9769 0.4161 -1.0659 0
M  V30 14 C -2.9297 -0.4571 -1.8855 0
M  V30 15 O -4.2757 -0.0098 -1.7343 0
M  V30 16 C -5.0454 -0.2512 -0.5881 0
M  V30 17 O -4.5719 -0.9365 0.3599 0
M  V30 18 C -6.4193 0.2893 -0.4881 0
M  V30 19 C -6.9685 0.9439 -1.5173 0
M  V30 20 C -7.231 0.0341 0.7529 0
M  V30 21 H 3.9557 2.4511 1.7354 0
M  V30 22 H 3.0806 2.7139 0.1886 0
M  V30 23 H 5.2463 -0.1516 -1.7994 0
M  V30 24 H 6.5278 -1.4875 -1.8478 0
M  V30 25 H 6.4219 -2.5588 1.1434 0
M  V30 26 H 7.4728 -1.1705 1.6315 0
M  V30 27 H 7.7976 -2.0337 0.0941 0
M  V30 28 H 2.5864 0.4152 2.1739 0
M  V30 29 H 1.5417 1.8746 1.9131 0
M  V30 30 H 0.8488 -1.0347 1.5229 0
M  V30 31 H -0.2339 0.4101 1.3462 0
M  V30 32 H -1.0186 -1.585 0.0216 0
M  V30 33 H 0.5324 -1.5965 -0.8522 0
M  V30 34 H -2.2554 0.4024 0.0132 0
M  V30 35 H -2.0938 1.4677 -1.4036 0
M  V30 36 H -2.8456 -1.524 -1.5861 0
M  V30 37 H -2.6527 -0.3806 -2.9581 0
M  V30 38 H -7.9845 1.3151 -1.4633 0
M  V30 39 H -6.4192 1.1214 -2.433 0
M  V30 40 H -8.0773 0.749 0.8428 0
M  V30 41 H -6.596 0.1497 1.6568 0
M  V30 42 H -7.6351 -0.9993 0.7239 0
M  V30 END ATOM
M  V30 BEGIN BOND
M  V30 1 2 1 2
M  V30 2 1 2 3
M  V30 3 1 2 4
M  V30 4 1 3 5
M  V30 5 2 4 6
M  V30 6 1 4 7
M  V30 7 1 5 8
M  V30 8 1 8 9
M  V30 9 1 9 10
M  V30 10 1 10 11
M  V30 11 1 11 12
M  V30 12 1 12 13
M  V30 13 1 13 14
M  V30 14 1 14 15
M  V30 15 1 15 16
M  V30 16 2 16 17
M  V30 17 1 16 18
M  V30 18 2 18 19
M  V30 19 1 18 20
M  V30 20 1 5 21
M  V30 21 1 5 22
M  V30 22 1 6 23
M  V30 23 1 6 24
M  V30 24 1 7 25
M  V30 25 1 7 26
M  V30 26 1 7 27
M  V30 27 1 8 28
M  V30 28 1 8 29
M  V30 29 1 10 30
M  V30 30 1 10 31
M  V30 31 1 11 32
M  V30 32 1 11 33
M  V30 33 1 13 34
M  V30 34 1 13 35
M  V30 35 1 14 36
M  V30 36 1 14 37
M  V30 37 1 19 38
M  V30 38 1 19 39
M  V30 39 1 20 40
M  V30 40 1 20 41
M  V30 41 1 20 42
M  V30 END BOND
M  V30 END CTAB
M  END
>  <Structure No>
2036

>  <LogS>
-1.900555252

>  <MMFF94 Energy>
52.376

$$$$
Compound 2037
Actelion Java MolfileCreator 2.0

  0  0  0  0  0  0              0 V3000
M  V30 BEGIN CTAB
M  V30 COUNTS 49 50 0 0 0
M  V30 BEGIN ATOM
M  V30 1 N -5.0413 1.2584 1.4945 0 CHG=1
M  V30 2 C -3.7727 0.8825 0.8525 0 CFG=2
M  V30 3 C -3.9115 -0.4055 -0.0063 0 CFG=2
M  V30 4 C -2.6689 0.7042 1.93 0
M  V30 5 C -2.5837 -0.7311 -0.7449 0
M  V30 6 C -5.0646 -0.322 -1.0192 0
M  V30 7 C -1.5255 -0.2368 1.5031 0
M  V30 8 C -1.3137 -0.2122 -0.0223 0 CFG=1
M  V30 9 C -0.0754 -1.0429 -0.4456 0
M  V30 10 C 1.2753 -0.3178 -0.2173 0 CFG=1
M  V30 11 C 2.4335 -1.3462 -0.1427 0
M  V30 12 C 1.5607 0.7215 -1.3179 0
M  V30 13 C 3.8273 -0.7588 -0.4991 0 CFG=1
M  V30 14 C 2.8311 1.5373 -1.009 0
M  V30 15 C 3.8917 0.7615 -0.1818 0 CFG=2
M  V30 16 C 4.9283 -1.5609 0.2128 0
M  V30 17 N 5.2282 1.3224 -0.4316 0 CHG=1
M  V30 18 H -5.7192 1.6077 0.7799 0
M  V30 19 H -5.4537 0.4418 2.002 0
M  V30 20 H -4.8797 2.0364 2.1753 0
M  V30 21 H -3.464 1.7142 0.1776 0
M  V30 22 H -4.1375 -1.2518 0.6816 0
M  V30 23 H -2.2468 1.7048 2.1703 0
M  V30 24 H -3.1109 0.3027 2.8686 0
M  V30 25 H -2.5916 -0.2906 -1.7673 0
M  V30 26 H -2.5277 -1.8357 -0.8698 0
M  V30 27 H -6.0444 -0.3122 -0.4976 0
M  V30 28 H -5.0544 -1.2117 -1.6846 0
M  V30 29 H -4.9715 0.5927 -1.643 0
M  V30 30 H -0.6026 0.0642 2.0405 0
M  V30 31 H -1.7676 -1.2753 1.8216 0
M  V30 32 H -1.163 0.8455 -0.3273 0
M  V30 33 H -0.0885 -2.0028 0.1177 0
M  V30 34 H -0.1513 -1.311 -1.5233 0
M  V30 35 H 1.24 0.2183 0.7552 0
M  V30 36 H 2.4426 -1.7668 0.8878 0
M  V30 37 H 2.2359 -2.1945 -0.8357 0
M  V30 38 H 0.7103 1.4247 -1.4345 0
M  V30 39 H 1.6894 0.1971 -2.2908 0
M  V30 40 H 3.9826 -0.8858 -1.5947 0
M  V30 41 H 3.268 1.8706 -1.9761 0
M  V30 42 H 2.5477 2.454 -0.4462 0
M  V30 43 H 3.653 0.8977 0.8985 0
M  V30 44 H 4.916 -1.3573 1.3051 0
M  V30 45 H 4.7749 -2.6492 0.0498 0
M  V30 46 H 5.9272 -1.3042 -0.197 0
M  V30 47 H 5.5627 1.065 -1.3888 0
M  V30 48 H 5.1983 2.365 -0.3498 0
M  V30 49 H 5.9062 0.9746 0.2836 0
M  V30 END ATOM
M  V30 BEGIN BOND
M  V30 1 1 1 2
M  V30 2 1 2 3
M  V30 3 1 2 4
M  V30 4 1 3 5
M  V30 5 1 3 6
M  V30 6 1 4 7
M  V30 7 1 5 8
M  V30 8 1 8 9
M  V30 9 1 9 10
M  V30 10 1 10 11
M  V30 11 1 10 12
M  V30 12 1 11 13
M  V30 13 1 12 14
M  V30 14 1 13 15
M  V30 15 1 13 16
M  V30 16 1 15 17
M  V30 17 1 7 8
M  V30 18 1 14 15
M  V30 19 1 1 18
M  V30 20 1 1 19
M  V30 21 1 1 20
M  V30 22 1 2 21
M  V30 23 1 3 22
M  V30 24 1 4 23
M  V30 25 1 4 24
M  V30 26 1 5 25
M  V30 27 1 5 26
M  V30 28 1 6 27
M  V30 29 1 6 28
M  V30 30 1 6 29
M  V30 31 1 7 30
M  V30 32 1 7 31
M  V30 33 1 8 32
M  V30 34 1 9 33
M  V30 35 1 9 34
M  V30 36 1 10 35
M  V30 37 1 11 36
M  V30 38 1 11 37
M  V30 39 1 12 38
M  V30 40 1 12 39
M  V30 41 1 13 40
M  V30 42 1 14 41
M  V30 43 1 14 42
M  V30 44 1 15 43
M  V30 45 1 16 44
M  V30 46 1 16 45
M  V30 47 1 16 46
M  V30 48 1 17 47
M  V30 49 1 17 48
M  V30 50 1 17 49
M  V30 END BOND
M  V30 BEGIN COLLECTION
M  V30 MDLV30/STEABS ATOMS=(6 2 3 8 10 13 15)
M  V30 END COLLECTION
M  V30 END CTAB
M  END
>  <Structure No>
2037

>  <LogS>
-1.821038361

>  <MMFF94 Energy>
66.079

$$$$
Compound 2038
Actelion Java MolfileCreator 2.0

  0  0  0  0  0  0              0 V3000
M  V30 BEGIN CTAB
M  V30 COUNTS 19 19 0 0 0
M  V30 BEGIN ATOM
M  V30 1 O -1.4845 2.0319 0.7811 0
M  V30 2 C -0.7036 0.9543 0.3633 0
M  V30 3 C -1.314 -0.1837 -0.1947 0
M  V30 4 C 0.6913 1.0029 0.5021 0
M  V30 5 C -0.5174 -1.2707 -0.589 0
M  V30 6 C -2.8086 -0.2516 -0.3335 0
M  V30 7 C 1.4856 -0.0741 0.0823 0
M  V30 8 C 0.8716 -1.2173 -0.4478 0
M  V30 9 C 2.9734 -0.0336 0.2699 0
M  V30 10 H -1.0699 2.8628 1.187 0
M  V30 11 H 1.1551 1.8796 0.9381 0
M  V30 12 H -0.9704 -2.1628 -1.0036 0
M  V30 13 H -3.2734 -0.2956 0.6738 0
M  V30 14 H -3.1243 -1.1479 -0.909 0
M  V30 15 H -3.1801 0.6488 -0.867 0
M  V30 16 H 1.4681 -2.0686 -0.752 0
M  V30 17 H 3.2298 -0.4335 1.2731 0
M  V30 18 H 3.483 -0.6449 -0.505 0
M  V30 19 H 3.3503 1.008 0.1876 0
M  V30 END ATOM
M  V30 BEGIN BOND
M  V30 1 1 1 2
M  V30 2 2 2 3
M  V30 3 1 2 4
M  V30 4 1 3 5
M  V30 5 1 3 6
M  V30 6 2 4 7
M  V30 7 2 5 8
M  V30 8 1 7 9
M  V30 9 1 7 8
M  V30 10 1 1 10
M  V30 11 1 4 11
M  V30 12 1 5 12
M  V30 13 1 6 13
M  V30 14 1 6 14
M  V30 15 1 6 15
M  V30 16 1 8 16
M  V30 17 1 9 17
M  V30 18 1 9 18
M  V30 19 1 9 19
M  V30 END BOND
M  V30 END CTAB
M  END
>  <Structure No>
2038

>  <LogS>
-1.537582757

>  <MMFF94 Energy>
11.508

$$$$
Compound 2039
Actelion Java MolfileCreator 2.0

  0  0  0  0  0  0              0 V3000
M  V30 BEGIN CTAB
M  V30 COUNTS 8 7 0 0 0
M  V30 BEGIN ATOM
M  V30 1 Cl -1.3678 -1.0941 1.0941 0
M  V30 2 C -0.6504 -0.1372 -0.2295 0
M  V30 3 Cl -1.6638 1.3015 -0.5074 0
M  V30 4 C 0.773 0.2906 0.1193 0
M  V30 5 Cl 1.858 -1.1221 0.2139 0
M  V30 6 H -0.6441 -0.7476 -1.1573 0
M  V30 7 H 0.7855 0.8272 1.092 0
M  V30 8 H 1.1618 0.972 -0.6668 0
M  V30 END ATOM
M  V30 BEGIN BOND
M  V30 1 1 1 2
M  V30 2 1 2 3
M  V30 3 1 2 4
M  V30 4 1 4 5
M  V30 5 1 2 6
M  V30 6 1 4 7
M  V30 7 1 4 8
M  V30 END BOND
M  V30 END CTAB
M  END
>  <Structure No>
2039

>  <LogS>
-1.581104063

>  <MMFF94 Energy>
13.564

$$$$
Compound 2040
Actelion Java MolfileCreator 2.0

  0  0  0  0  0  0              0 V3000
M  V30 BEGIN CTAB
M  V30 COUNTS 23 23 0 0 0
M  V30 BEGIN ATOM
M  V30 1 O 0.9418 2.4346 0.3138 0
M  V30 2 C 0.4336 1.131 0.3579 0
M  V30 3 C -0.1025 0.4995 -0.7931 0
M  V30 4 C 0.4766 0.4442 1.5821 0
M  V30 5 C -0.4593 -0.877 -0.7299 0
M  V30 6 C -0.2737 1.2918 -2.0706 0
M  V30 7 C 0.0081 -0.8699 1.6587 0
M  V30 8 C 1.0171 1.1216 2.8116 0
M  V30 9 C -0.464 -1.5305 0.5256 0
M  V30 10 C -0.8478 -1.6429 -1.975 0
M  V30 11 O -0.9421 -2.8336 0.6898 0
M  V30 12 H 1.0772 2.9566 -0.5415 0
M  V30 13 H 0.6759 1.2905 -2.6449 0
M  V30 14 H -0.5799 2.3356 -1.8536 0
M  V30 15 H -1.0914 0.8872 -2.7011 0
M  V30 16 H 0.0127 -1.394 2.607 0
M  V30 17 H 2.0714 1.4246 2.639 0
M  V30 18 H 0.4111 2.0243 3.0379 0
M  V30 19 H 0.9886 0.4516 3.6972 0
M  V30 20 H -1.9504 -1.6223 -2.1015 0
M  V30 21 H -0.496 -2.6935 -1.9233 0
M  V30 22 H -0.3601 -1.2296 -2.8811 0
M  V30 23 H -1.4208 -3.3505 -0.0356 0
M  V30 END ATOM
M  V30 BEGIN BOND
M  V30 1 1 1 2
M  V30 2 2 2 3
M  V30 3 1 2 4
M  V30 4 1 3 5
M  V30 5 1 3 6
M  V30 6 2 4 7
M  V30 7 1 4 8
M  V30 8 2 5 9
M  V30 9 1 5 10
M  V30 10 1 9 11
M  V30 11 1 7 9
M  V30 12 1 1 12
M  V30 13 1 6 13
M  V30 14 1 6 14
M  V30 15 1 6 15
M  V30 16 1 7 16
M  V30 17 1 8 17
M  V30 18 1 8 18
M  V30 19 1 8 19
M  V30 20 1 10 20
M  V30 21 1 10 21
M  V30 22 1 10 22
M  V30 23 1 11 23
M  V30 END BOND
M  V30 END CTAB
M  END
>  <Structure No>
2040

>  <LogS>
-1.638326634

>  <MMFF94 Energy>
8.4721

$$$$
Compound 2041
Actelion Java MolfileCreator 2.0

  0  0  0  0  0  0              0 V3000
M  V30 BEGIN CTAB
M  V30 COUNTS 27 27 0 0 0
M  V30 BEGIN ATOM
M  V30 1 S 5.1736 -0.7621 -0.1693 0
M  V30 2 O 5.6766 -2.1628 -0.3719 0
M  V30 3 O 5.8862 0.1555 -1.1233 0
M  V30 4 O 3.5063 -0.7327 -0.465 0
M  V30 5 O 5.4949 -0.2941 1.413 0 CHG=-1
M  V30 6 C 3.0347 0.5696 -0.2158 0
M  V30 7 C 1.527 0.6246 -0.4526 0
M  V30 8 S 0.6347 -0.3733 0.7322 0
M  V30 9 O 0.9671 0.0697 2.1299 0
M  V30 10 O 1.0156 -1.8196 0.5809 0
M  V30 11 C -1.0925 -0.1875 0.4489 0
M  V30 12 C -1.811 0.8211 1.1056 0
M  V30 13 C -1.7522 -1.0288 -0.4573 0
M  V30 14 C -3.1801 0.978 0.8687 0
M  V30 15 C -3.1213 -0.8722 -0.6943 0
M  V30 16 C -3.8424 0.1312 -0.0314 0
M  V30 17 N -5.2425 0.2919 -0.2741 0
M  V30 18 H 3.5151 1.2928 -0.9121 0
M  V30 19 H 3.2446 0.8797 0.8322 0
M  V30 20 H 1.1807 1.6759 -0.3602 0
M  V30 21 H 1.2935 0.2692 -1.4788 0
M  V30 22 H -1.3123 1.4876 1.7978 0
M  V30 23 H -1.2075 -1.8032 -0.9823 0
M  V30 24 H -3.7239 1.7599 1.3841 0
M  V30 25 H -3.6193 -1.5301 -1.3954 0
M  V30 26 H -5.7876 1.0372 0.214 0
M  V30 27 H -5.7441 -0.3331 -0.9437 0
M  V30 END ATOM
M  V30 BEGIN BOND
M  V30 1 2 1 2
M  V30 2 2 1 3
M  V30 3 1 1 4
M  V30 4 1 1 5
M  V30 5 1 4 6
M  V30 6 1 6 7
M  V30 7 1 7 8
M  V30 8 2 8 9
M  V30 9 2 8 10
M  V30 10 1 8 11
M  V30 11 2 11 12
M  V30 12 1 11 13
M  V30 13 1 12 14
M  V30 14 2 13 15
M  V30 15 2 14 16
M  V30 16 1 16 17
M  V30 17 1 15 16
M  V30 18 1 6 18
M  V30 19 1 6 19
M  V30 20 1 7 20
M  V30 21 1 7 21
M  V30 22 1 12 22
M  V30 23 1 13 23
M  V30 24 1 14 24
M  V30 25 1 15 25
M  V30 26 1 17 26
M  V30 27 1 17 27
M  V30 END BOND
M  V30 END CTAB
M  END
>  <Structure No>
2041

>  <LogS>
-1.90511867

>  <MMFF94 Energy>
-36.107

$$$$
Compound 2042
Actelion Java MolfileCreator 2.0

  0  0  0  0  0  0              0 V3000
M  V30 BEGIN CTAB
M  V30 COUNTS 33 33 0 0 0
M  V30 BEGIN ATOM
M  V30 1 O 0.1568 -2.6686 0.392 0
M  V30 2 C 0.044 -1.4091 0.4171 0
M  V30 3 N -1.0976 -0.8209 -0.0547 0
M  V30 4 N 1.0658 -0.6466 0.9131 0
M  V30 5 C -1.2014 0.544 -0.0551 0
M  V30 6 C -2.1875 -1.662 -0.5938 0
M  V30 7 C 0.951 0.7171 0.9089 0
M  V30 8 C 2.2952 -1.3001 1.4106 0
M  V30 9 O -2.2502 1.0935 -0.4976 0
M  V30 10 N -0.1765 1.3181 0.4186 0
M  V30 11 C -1.854 -2.1385 -1.9808 0
M  V30 12 O 1.8926 1.4297 1.3607 0
M  V30 13 C 3.1681 -1.7318 0.2644 0
M  V30 14 C -0.289 2.7924 0.4357 0
M  V30 15 C -1.8008 -1.2995 -3.0186 0
M  V30 16 C 3.7889 -0.8459 -0.5188 0
M  V30 17 C -0.6241 3.2837 1.8173 0
M  V30 18 C -1.8144 3.0503 2.3769 0
M  V30 19 H -3.1616 -1.1265 -0.6069 0
M  V30 20 H -2.344 -2.5443 0.0647 0
M  V30 21 H 2.8735 -0.6391 2.092 0
M  V30 22 H 2.0284 -2.1918 2.0192 0
M  V30 23 H -1.6568 -3.1941 -2.1423 0
M  V30 24 H 3.3003 -2.7926 0.0731 0
M  V30 25 H -1.0486 3.1625 -0.2864 0
M  V30 26 H 0.6723 3.248 0.1123 0
M  V30 27 H -1.9989 -0.2398 -2.8937 0
M  V30 28 H -1.5587 -1.6748 -4.0074 0
M  V30 29 H 4.413 -1.1894 -1.3372 0
M  V30 30 H 3.6835 0.2211 -0.3516 0
M  V30 31 H 0.1202 3.8481 2.3713 0
M  V30 32 H -2.0262 3.4198 3.3751 0
M  V30 33 H -2.5833 2.4958 1.8488 0
M  V30 END ATOM
M  V30 BEGIN BOND
M  V30 1 2 1 2
M  V30 2 1 2 3
M  V30 3 1 2 4
M  V30 4 1 3 5
M  V30 5 1 3 6
M  V30 6 1 4 7
M  V30 7 1 4 8
M  V30 8 2 5 9
M  V30 9 1 5 10
M  V30 10 1 6 11
M  V30 11 2 7 12
M  V30 12 1 8 13
M  V30 13 1 10 14
M  V30 14 2 11 15
M  V30 15 2 13 16
M  V30 16 1 14 17
M  V30 17 2 17 18
M  V30 18 1 7 10
M  V30 19 1 6 19
M  V30 20 1 6 20
M  V30 21 1 8 21
M  V30 22 1 8 22
M  V30 23 1 11 23
M  V30 24 1 13 24
M  V30 25 1 14 25
M  V30 26 1 14 26
M  V30 27 1 15 27
M  V30 28 1 15 28
M  V30 29 1 16 29
M  V30 30 1 16 30
M  V30 31 1 17 31
M  V30 32 1 18 32
M  V30 33 1 18 33
M  V30 END BOND
M  V30 END CTAB
M  END
>  <Structure No>
2042

>  <LogS>
-1.852601969

>  <MMFF94 Energy>
-193.02

$$$$
Compound 2043
Actelion Java MolfileCreator 2.0

  0  0  0  0  0  0              0 V3000
M  V30 BEGIN CTAB
M  V30 COUNTS 18 18 0 0 0
M  V30 BEGIN ATOM
M  V30 1 O 0.951 -0.3169 -2.1407 0
M  V30 2 C 0.789 -0.1638 -0.8988 0
M  V30 3 O 1.8777 -0.2879 -0.0299 0
M  V30 4 C -0.5415 0.2194 -0.3875 0
M  V30 5 C 3.1821 -0.6357 -0.4779 0
M  V30 6 N -1.3691 0.9149 -1.2159 0
M  V30 7 C -0.9823 -0.0608 0.9287 0
M  V30 8 C -2.5826 1.3657 -0.8075 0
M  V30 9 N -2.1942 0.411 1.33 0
M  V30 10 N -0.2318 -0.8774 1.833 0
M  V30 11 C -2.9973 1.1218 0.4987 0
M  V30 12 H 3.8677 -0.6756 0.3931 0
M  V30 13 H 3.1626 -1.6329 -0.9664 0
M  V30 14 H 3.5541 0.1268 -1.1943 0
M  V30 15 H -3.2139 1.9189 -1.4899 0
M  V30 16 H -0.5396 -0.9621 2.8273 0
M  V30 17 H 0.5162 -1.5252 1.5058 0
M  V30 18 H -3.9563 1.4816 0.8466 0
M  V30 END ATOM
M  V30 BEGIN BOND
M  V30 1 2 1 2
M  V30 2 1 2 3
M  V30 3 1 2 4
M  V30 4 1 3 5
M  V30 5 2 4 6
M  V30 6 1 4 7
M  V30 7 1 6 8
M  V30 8 2 7 9
M  V30 9 1 7 10
M  V30 10 2 8 11
M  V30 11 1 9 11
M  V30 12 1 5 12
M  V30 13 1 5 13
M  V30 14 1 5 14
M  V30 15 1 8 15
M  V30 16 1 10 16
M  V30 17 1 10 17
M  V30 18 1 11 18
M  V30 END BOND
M  V30 END CTAB
M  END
>  <Structure No>
2043

>  <LogS>
-1.642266052

>  <MMFF94 Energy>
90.106

$$$$
Compound 2044
Actelion Java MolfileCreator 2.0

  0  0  0  0  0  0              0 V3000
M  V30 BEGIN CTAB
M  V30 COUNTS 16 16 0 0 0
M  V30 BEGIN ATOM
M  V30 1 N -1.1571 0.0771 0.3856 0 CHG=1
M  V30 2 C -0.5926 -1.1474 0.2055 0
M  V30 3 C -0.4401 1.2025 0.1203 0
M  V30 4 N 0.6864 -1.2424 -0.2388 0
M  V30 5 N -1.3374 -2.3335 0.4813 0
M  V30 6 N 0.8384 1.0994 -0.3237 0
M  V30 7 N -1.0242 2.4917 0.3064 0
M  V30 8 C 1.403 -0.1211 -0.5039 0
M  V30 9 N 2.7461 -0.2252 -0.9704 0
M  V30 10 H -2.1416 0.1534 0.7277 0
M  V30 11 H -0.9029 -3.2728 0.3428 0
M  V30 12 H -2.3222 -2.2779 0.8239 0
M  V30 13 H -2.0064 2.5886 0.6473 0
M  V30 14 H -0.4727 3.3545 0.1024 0
M  V30 15 H 3.1857 -1.1616 -1.1109 0
M  V30 16 H 3.3023 0.6341 -1.176 0
M  V30 END ATOM
M  V30 BEGIN BOND
M  V30 1 2 1 2
M  V30 2 1 1 3
M  V30 3 1 2 4
M  V30 4 1 2 5
M  V30 5 2 3 6
M  V30 6 1 3 7
M  V30 7 2 4 8
M  V30 8 1 8 9
M  V30 9 1 6 8
M  V30 10 1 1 10
M  V30 11 1 5 11
M  V30 12 1 5 12
M  V30 13 1 7 13
M  V30 14 1 7 14
M  V30 15 1 9 15
M  V30 16 1 9 16
M  V30 END BOND
M  V30 END CTAB
M  END
>  <Structure No>
2044

>  <LogS>
-1.559215049

>  <MMFF94 Energy>
-243.85

$$$$
Compound 2045
Actelion Java MolfileCreator 2.0

  0  0  0  0  0  0              0 V3000
M  V30 BEGIN CTAB
M  V30 COUNTS 11 10 0 0 0
M  V30 BEGIN ATOM
M  V30 1 O 2.9403 0.0 1.0824 0
M  V30 2 N 1.9351 -0.3057 0.4111 0 CHG=1
M  V30 3 O 2.0123 -1.3859 -0.4382 0 CHG=-1
M  V30 4 N 0.8966 0.6321 0.2802 0
M  V30 5 C -0.3334 0.3415 -0.0327 0
M  V30 6 N -1.2656 1.4048 -0.2286 0
M  V30 7 N -0.7905 -1.013 -0.1246 0
M  V30 8 H -0.9607 2.4004 -0.147 0
M  V30 9 H -2.2638 1.2004 -0.4566 0
M  V30 10 H -0.2557 -1.8069 0.289 0
M  V30 11 H -1.7516 -1.2127 -0.4798 0
M  V30 END ATOM
M  V30 BEGIN BOND
M  V30 1 2 1 2
M  V30 2 1 2 3
M  V30 3 1 2 4
M  V30 4 2 4 5
M  V30 5 1 5 6
M  V30 6 1 5 7
M  V30 7 1 6 8
M  V30 8 1 6 9
M  V30 9 1 7 10
M  V30 10 1 7 11
M  V30 END BOND
M  V30 END CTAB
M  END
>  <Structure No>
2045

>  <LogS>
-1.485842464

>  <MMFF94 Energy>
-108.49

$$$$
Compound 2046
Actelion Java MolfileCreator 2.0

  0  0  0  0  0  0              0 V3000
M  V30 BEGIN CTAB
M  V30 COUNTS 17 17 0 0 0
M  V30 BEGIN ATOM
M  V30 1 F -2.7452 0.1613 -0.8068 0
M  V30 2 C -2.0792 0.5876 0.3282 0
M  V30 3 F -2.4381 1.9035 0.5676 0
M  V30 4 F -2.4836 -0.1709 1.412 0
M  V30 5 C -0.5845 0.4373 0.1294 0
M  V30 6 C 0.0039 -0.8301 -0.1297 0
M  V30 7 C 0.2515 1.5715 0.2007 0
M  V30 8 N -0.7814 -2.0285 -0.2165 0
M  V30 9 C 1.3937 -0.9252 -0.3079 0
M  V30 10 C 1.6308 1.4549 0.0207 0
M  V30 11 C 2.2008 0.2096 -0.233 0
M  V30 12 H -0.1551 2.5552 0.3961 0
M  V30 13 H -0.3228 -2.9472 -0.4082 0
M  V30 14 H -1.8166 -2.0345 -0.0953 0
M  V30 15 H 1.8535 -1.8854 -0.5058 0
M  V30 16 H 2.2596 2.3342 0.0782 0
M  V30 17 H 3.2707 0.1229 -0.3722 0
M  V30 END ATOM
M  V30 BEGIN BOND
M  V30 1 1 1 2
M  V30 2 1 2 3
M  V30 3 1 2 4
M  V30 4 1 2 5
M  V30 5 2 5 6
M  V30 6 1 5 7
M  V30 7 1 6 8
M  V30 8 1 6 9
M  V30 9 2 7 10
M  V30 10 2 9 11
M  V30 11 1 10 11
M  V30 12 1 7 12
M  V30 13 1 8 13
M  V30 14 1 8 14
M  V30 15 1 9 15
M  V30 16 1 10 16
M  V30 17 1 11 17
M  V30 END BOND
M  V30 END CTAB
M  END
>  <Structure No>
2046

>  <LogS>
-1.675686709

>  <MMFF94 Energy>
38.676

$$$$
Compound 2047
Actelion Java MolfileCreator 2.0

  0  0  0  0  0  0              0 V3000
M  V30 BEGIN CTAB
M  V30 COUNTS 32 33 0 0 0
M  V30 BEGIN ATOM
M  V30 1 O -4.3787 -0.7155 -1.6701 0
M  V30 2 C -3.8984 -0.6921 -0.5039 0
M  V30 3 N -2.4701 -0.5874 -0.3188 0
M  V30 4 C -4.8425 -0.7554 0.6591 0
M  V30 5 C -1.8917 -0.2886 0.9999 0
M  V30 6 C -1.5863 -0.8672 -1.4609 0
M  V30 7 C -0.6175 0.5492 0.8529 0
M  V30 8 C -0.1401 -1.1112 -1.0169 0
M  V30 9 N 0.3173 -0.0446 -0.1153 0
M  V30 10 C 1.7094 0.3434 -0.0939 0
M  V30 11 C 2.0762 1.6786 0.1599 0
M  V30 12 C 2.724 -0.6073 -0.3163 0
M  V30 13 C 3.4229 2.0529 0.1843 0
M  V30 14 C 4.0696 -0.2292 -0.2904 0
M  V30 15 C 4.4223 1.1025 -0.0406 0
M  V30 16 O 5.7598 1.4904 -0.0129 0
M  V30 17 H -5.8344 -1.1326 0.3312 0
M  V30 18 H -4.9732 0.2585 1.0908 0
M  V30 19 H -4.4479 -1.4449 1.4344 0
M  V30 20 H -1.6578 -1.2419 1.5212 0
M  V30 21 H -2.6037 0.2886 1.6267 0
M  V30 22 H -1.6181 -0.0067 -2.1638 0
M  V30 23 H -1.94 -1.7738 -1.999 0
M  V30 24 H -0.8937 1.5712 0.5151 0
M  V30 25 H -0.1302 0.6248 1.8497 0
M  V30 26 H -0.0706 -2.0885 -0.492 0
M  V30 27 H 0.4995 -1.1524 -1.9256 0
M  V30 28 H 1.3223 2.4366 0.3259 0
M  V30 29 H 2.4778 -1.6459 -0.4941 0
M  V30 30 H 3.6901 3.0844 0.3764 0
M  V30 31 H 4.8372 -0.9733 -0.4609 0
M  V30 32 H 6.5073 0.8251 -0.1719 0
M  V30 END ATOM
M  V30 BEGIN BOND
M  V30 1 2 1 2
M  V30 2 1 2 3
M  V30 3 1 2 4
M  V30 4 1 3 5
M  V30 5 1 3 6
M  V30 6 1 5 7
M  V30 7 1 6 8
M  V30 8 1 7 9
M  V30 9 1 9 10
M  V30 10 2 10 11
M  V30 11 1 10 12
M  V30 12 1 11 13
M  V30 13 2 12 14
M  V30 14 2 13 15
M  V30 15 1 15 16
M  V30 16 1 8 9
M  V30 17 1 14 15
M  V30 18 1 4 17
M  V30 19 1 4 18
M  V30 20 1 4 19
M  V30 21 1 5 20
M  V30 22 1 5 21
M  V30 23 1 6 22
M  V30 24 1 6 23
M  V30 25 1 7 24
M  V30 26 1 7 25
M  V30 27 1 8 26
M  V30 28 1 8 27
M  V30 29 1 11 28
M  V30 30 1 12 29
M  V30 31 1 13 30
M  V30 32 1 14 31
M  V30 33 1 16 32
M  V30 END BOND
M  V30 END CTAB
M  END
>  <Structure No>
2047

>  <LogS>
-1.817914488

>  <MMFF94 Energy>
55.161

$$$$
Compound 2048
Actelion Java MolfileCreator 2.0

  0  0  0  0  0  0              0 V3000
M  V30 BEGIN CTAB
M  V30 COUNTS 39 42 0 0 0
M  V30 BEGIN ATOM
M  V30 1 O 6.5373 0.6442 1.2081 0
M  V30 2 C 6.0635 0.3376 -0.0814 0 CFG=1
M  V30 3 C 7.163 -0.4307 0.543 0
M  V30 4 C 4.6776 -0.2999 -0.043 0
M  V30 5 O 3.692 0.7282 -0.0755 0
M  V30 6 C 2.3077 0.5004 -0.0794 0
M  V30 7 C 1.4524 1.6059 -0.1082 0
M  V30 8 C 1.7545 -0.7923 -0.0555 0
M  V30 9 C 0.0657 1.4333 -0.1132 0
M  V30 10 C 0.3676 -0.9668 -0.0597 0
M  V30 11 C -0.4969 0.1435 -0.0886 0
M  V30 12 N -1.9343 -0.0372 -0.093 0
M  V30 13 C -2.5568 -1.1249 0.6754 0
M  V30 14 C -2.8023 0.8632 -0.8656 0
M  V30 15 C -2.9197 -2.2889 -0.2512 0 CFG=1
M  V30 16 C -3.4473 1.9003 0.0584 0 CFG=1
M  V30 17 O -3.7477 -3.2224 0.4012 0
M  V30 18 C -4.3471 -2.4487 -0.6129 0
M  V30 19 O -4.4759 2.6015 -0.5996 0
M  V30 20 C -4.8723 1.7024 0.4105 0
M  V30 21 H 6.3277 1.1143 -0.8296 0
M  V30 22 H 6.9125 -1.4012 1.0214 0
M  V30 23 H 8.1908 -0.1605 0.2232 0
M  V30 24 H 4.542 -0.9143 0.8751 0
M  V30 25 H 4.5668 -0.9501 -0.937 0
M  V30 26 H 1.8656 2.6067 -0.1243 0
M  V30 27 H 2.3866 -1.6695 -0.0362 0
M  V30 28 H -0.5635 2.3123 -0.1234 0
M  V30 29 H -0.0253 -1.9738 -0.0531 0
M  V30 30 H -1.8622 -1.4928 1.4608 0
M  V30 31 H -3.4501 -0.7399 1.2145 0
M  V30 32 H -2.2158 1.3924 -1.647 0
M  V30 33 H -3.5693 0.2696 -1.4096 0
M  V30 34 H -2.1562 -2.7877 -0.8836 0
M  V30 35 H -2.8348 2.5713 0.6958 0
M  V30 36 H -5.0781 -1.7285 -0.1894 0
M  V30 37 H -4.5556 -3.061 -1.5144 0
M  V30 38 H -5.2315 2.243 1.3105 0
M  V30 39 H -5.4003 0.8248 -0.0176 0
M  V30 END ATOM
M  V30 BEGIN BOND
M  V30 1 1 1 2
M  V30 2 1 1 3
M  V30 3 1 2 4
M  V30 4 1 4 5
M  V30 5 1 5 6
M  V30 6 2 6 7
M  V30 7 1 6 8
M  V30 8 1 7 9
M  V30 9 2 8 10
M  V30 10 2 9 11
M  V30 11 1 11 12
M  V30 12 1 12 13
M  V30 13 1 12 14
M  V30 14 1 13 15
M  V30 15 1 14 16
M  V30 16 1 15 17
M  V30 17 1 15 18
M  V30 18 1 16 19
M  V30 19 1 16 20
M  V30 20 1 2 3
M  V30 21 1 10 11
M  V30 22 1 17 18
M  V30 23 1 19 20
M  V30 24 1 2 21
M  V30 25 1 3 22
M  V30 26 1 3 23
M  V30 27 1 4 24
M  V30 28 1 4 25
M  V30 29 1 7 26
M  V30 30 1 8 27
M  V30 31 1 9 28
M  V30 32 1 10 29
M  V30 33 1 13 30
M  V30 34 1 13 31
M  V30 35 1 14 32
M  V30 36 1 14 33
M  V30 37 1 15 34
M  V30 38 1 16 35
M  V30 39 1 18 36
M  V30 40 1 18 37
M  V30 41 1 20 38
M  V30 42 1 20 39
M  V30 END BOND
M  V30 BEGIN COLLECTION
M  V30 MDLV30/STEABS ATOMS=(3 2 15 16)
M  V30 END COLLECTION
M  V30 END CTAB
M  END
>  <Structure No>
2048

>  <LogS>
-1.919234725

>  <MMFF94 Energy>
54.598

$$$$
Compound 2049
Actelion Java MolfileCreator 2.0

  0  0  0  0  0  0              0 V3000
M  V30 BEGIN CTAB
M  V30 COUNTS 12 11 0 0 0
M  V30 BEGIN ATOM
M  V30 1 N -0.7321 -0.2928 -0.5857 0 CHG=1
M  V30 2 N -0.1611 -0.5061 -1.852 0
M  V30 3 C -0.0562 0.1228 0.4519 0
M  V30 4 N -0.7455 0.4027 1.6742 0
M  V30 5 N 1.3682 0.2818 0.4133 0
M  V30 6 H -1.7592 -0.4589 -0.4866 0
M  V30 7 H -0.7384 -0.9389 -2.6063 0
M  V30 8 H 0.7665 -0.1146 -2.1224 0
M  V30 9 H -1.7819 0.2954 1.746 0
M  V30 10 H -0.2186 0.7216 2.5171 0
M  V30 11 H 1.8602 0.7206 1.2228 0
M  V30 12 H 1.9633 -0.1396 -0.3311 0
M  V30 END ATOM
M  V30 BEGIN BOND
M  V30 1 1 1 2
M  V30 2 2 1 3
M  V30 3 1 3 4
M  V30 4 1 3 5
M  V30 5 1 1 6
M  V30 6 1 2 7
M  V30 7 1 2 8
M  V30 8 1 4 9
M  V30 9 1 4 10
M  V30 10 1 5 11
M  V30 11 1 5 12
M  V30 END BOND
M  V30 END CTAB
M  END
>  <Structure No>
2049

>  <LogS>
-1.615379285

>  <MMFF94 Energy>
-77.118

$$$$
Compound 2050
Actelion Java MolfileCreator 2.0

  0  0  0  0  0  0              0 V3000
M  V30 BEGIN CTAB
M  V30 COUNTS 27 28 0 0 0
M  V30 BEGIN ATOM
M  V30 1 N -2.7472 -0.1568 0.5489 0 CHG=1
M  V30 2 C -1.5478 -0.4188 1.3632 0
M  V30 3 C -2.6694 -0.7799 -0.7754 0
M  V30 4 C -0.3448 0.3766 0.88 0
M  V30 5 C 0.683 -0.1616 0.0514 0
M  V30 6 C -0.2743 1.7278 1.2645 0
M  V30 7 C 1.763 0.6779 -0.3442 0
M  V30 8 C 0.6769 -1.5005 -0.4026 0
M  V30 9 C 0.7882 2.5351 0.866 0
M  V30 10 C 1.8035 2.0156 0.0696 0
M  V30 11 C 2.7913 0.1717 -1.155 0
M  V30 12 C 1.7081 -1.9853 -1.2105 0
M  V30 13 C 2.7618 -1.154 -1.5835 0
M  V30 14 H -3.5791 -0.5515 1.047 0
M  V30 15 H -2.8932 0.8739 0.4391 0
M  V30 16 H -1.3495 -1.5062 1.4406 0
M  V30 17 H -1.763 -0.1144 2.4123 0
M  V30 18 H -3.6201 -0.6074 -1.3243 0
M  V30 19 H -1.8464 -0.3338 -1.3734 0
M  V30 20 H -2.5186 -1.8776 -0.6857 0
M  V30 21 H -1.0512 2.161 1.8829 0
M  V30 22 H -0.1157 -2.1888 -0.1589 0
M  V30 23 H 0.824 3.5713 1.177 0
M  V30 24 H 2.6206 2.6624 -0.2276 0
M  V30 25 H 3.6174 0.8035 -1.4594 0
M  V30 26 H 1.6879 -3.0125 -1.5512 0
M  V30 27 H 3.5568 -1.5375 -2.2098 0
M  V30 END ATOM
M  V30 BEGIN BOND
M  V30 1 1 1 2
M  V30 2 1 1 3
M  V30 3 1 2 4
M  V30 4 1 4 5
M  V30 5 2 4 6
M  V30 6 1 5 7
M  V30 7 2 5 8
M  V30 8 1 6 9
M  V30 9 1 7 10
M  V30 10 2 7 11
M  V30 11 1 8 12
M  V30 12 1 11 13
M  V30 13 2 9 10
M  V30 14 2 12 13
M  V30 15 1 1 14
M  V30 16 1 1 15
M  V30 17 1 2 16
M  V30 18 1 2 17
M  V30 19 1 3 18
M  V30 20 1 3 19
M  V30 21 1 3 20
M  V30 22 1 6 21
M  V30 23 1 8 22
M  V30 24 1 9 23
M  V30 25 1 10 24
M  V30 26 1 11 25
M  V30 27 1 12 26
M  V30 28 1 13 27
M  V30 END BOND
M  V30 END CTAB
M  END
>  <Structure No>
2050

>  <LogS>
-1.715098888

>  <MMFF94 Energy>
25.05

$$$$
Compound 2051
Actelion Java MolfileCreator 2.0

  0  0  0  0  0  0              0 V3000
M  V30 BEGIN CTAB
M  V30 COUNTS 28 28 0 0 0
M  V30 BEGIN ATOM
M  V30 1 O 1.1843 1.3423 -1.5793 0
M  V30 2 C 1.3856 0.2274 -1.0258 0
M  V30 3 N 0.3637 -0.3874 -0.2252 0
M  V30 4 C 2.7079 -0.4525 -1.2053 0
M  V30 5 C -0.8412 0.2819 0.1869 0
M  V30 6 C 3.6057 -0.1472 -0.0385 0
M  V30 7 C -2.0504 -0.4382 0.2623 0
M  V30 8 C -0.8151 1.6348 0.5725 0
M  V30 9 O 3.3819 -0.6667 1.0443 0
M  V30 10 C 4.7706 0.7879 -0.1737 0
M  V30 11 O -2.0541 -1.7929 -0.1078 0
M  V30 12 C -3.2208 0.2174 0.695 0
M  V30 13 C -1.982 2.2721 0.998 0
M  V30 14 C -3.2024 -2.6343 -0.0815 0
M  V30 15 C -3.1829 1.5658 1.0557 0
M  V30 16 H 0.477 -1.3977 0.0165 0
M  V30 17 H 2.5632 -1.5511 -1.2847 0
M  V30 18 H 3.1718 -0.1139 -2.1566 0
M  V30 19 H 0.112 2.1924 0.5693 0
M  V30 20 H 5.7113 0.2445 0.0541 0
M  V30 21 H 4.8384 1.204 -1.2005 0
M  V30 22 H 4.6549 1.6295 0.5409 0
M  V30 23 H -4.1649 -0.3061 0.7565 0
M  V30 24 H -1.9529 3.3133 1.2923 0
M  V30 25 H -2.9149 -3.6502 -0.4211 0
M  V30 26 H -3.9818 -2.2382 -0.7662 0
M  V30 27 H -3.6007 -2.7047 0.9526 0
M  V30 28 H -4.0857 2.0621 1.3881 0
M  V30 END ATOM
M  V30 BEGIN BOND
M  V30 1 2 1 2
M  V30 2 1 2 3
M  V30 3 1 2 4
M  V30 4 1 3 5
M  V30 5 1 4 6
M  V30 6 2 5 7
M  V30 7 1 5 8
M  V30 8 2 6 9
M  V30 9 1 6 10
M  V30 10 1 7 11
M  V30 11 1 7 12
M  V30 12 2 8 13
M  V30 13 1 11 14
M  V30 14 2 12 15
M  V30 15 1 13 15
M  V30 16 1 3 16
M  V30 17 1 4 17
M  V30 18 1 4 18
M  V30 19 1 8 19
M  V30 20 1 10 20
M  V30 21 1 10 21
M  V30 22 1 10 22
M  V30 23 1 12 23
M  V30 24 1 13 24
M  V30 25 1 14 25
M  V30 26 1 14 26
M  V30 27 1 14 27
M  V30 28 1 15 28
M  V30 END BOND
M  V30 END CTAB
M  END
>  <Structure No>
2051

>  <LogS>
-1.805905521

>  <MMFF94 Energy>
5.9791

$$$$
Compound 2052
Actelion Java MolfileCreator 2.0

  0  0  0  0  0  0              0 V3000
M  V30 BEGIN CTAB
M  V30 COUNTS 21 20 0 0 0
M  V30 BEGIN ATOM
M  V30 1 O 0.2299 0.5365 0.1532 0
M  V30 2 C 1.0864 -0.5849 0.0111 0
M  V30 3 C -1.1257 0.2019 -0.095 0
M  V30 4 C 1.6342 -0.6386 -1.4185 0
M  V30 5 C 2.2349 -0.4455 1.0094 0
M  V30 6 C -1.8176 -0.1639 1.222 0
M  V30 7 C -1.8128 1.409 -0.732 0
M  V30 8 H 0.5773 -1.5516 0.2402 0
M  V30 9 H -1.239 -0.6469 -0.8111 0
M  V30 10 H 0.8024 -0.7678 -2.1422 0
M  V30 11 H 2.1732 0.3017 -1.6632 0
M  V30 12 H 2.3304 -1.4968 -1.5325 0
M  V30 13 H 1.8295 -0.4158 2.0433 0
M  V30 14 H 2.9261 -1.3116 0.9281 0
M  V30 15 H 2.8023 0.4917 0.823 0
M  V30 16 H -2.8886 -0.3989 1.0428 0
M  V30 17 H -1.3365 -1.0577 1.6713 0
M  V30 18 H -1.746 0.6772 1.9447 0
M  V30 19 H -1.7569 2.2907 -0.0576 0
M  V30 20 H -1.3107 1.6621 -1.6899 0
M  V30 21 H -2.8794 1.1806 -0.9444 0
M  V30 END ATOM
M  V30 BEGIN BOND
M  V30 1 1 1 2
M  V30 2 1 1 3
M  V30 3 1 2 4
M  V30 4 1 2 5
M  V30 5 1 3 6
M  V30 6 1 3 7
M  V30 7 1 2 8
M  V30 8 1 3 9
M  V30 9 1 4 10
M  V30 10 1 4 11
M  V30 11 1 4 12
M  V30 12 1 5 13
M  V30 13 1 5 14
M  V30 14 1 5 15
M  V30 15 1 6 16
M  V30 16 1 6 17
M  V30 17 1 6 18
M  V30 18 1 7 19
M  V30 19 1 7 20
M  V30 20 1 7 21
M  V30 END BOND
M  V30 END CTAB
M  END
>  <Structure No>
2052

>  <LogS>
-1.516592758

>  <MMFF94 Energy>
9.404

$$$$
Compound 2053
Actelion Java MolfileCreator 2.0

  0  0  0  0  0  0              0 V3000
M  V30 BEGIN CTAB
M  V30 COUNTS 20 20 0 0 0
M  V30 BEGIN ATOM
M  V30 1 S 2.6998 -0.3269 0.1634 0
M  V30 2 O 3.162 -1.6444 -0.393 0
M  V30 3 O 3.1692 -0.2136 1.5872 0
M  V30 4 N 3.3695 0.9614 -0.7742 0
M  V30 5 C 0.9424 -0.2385 0.108 0
M  V30 6 C 0.2295 -0.9441 -0.8706 0
M  V30 7 C 0.2487 0.5545 1.032 0
M  V30 8 C -1.1655 -0.8639 -0.9203 0
M  V30 9 C -1.1463 0.6354 0.9833 0
M  V30 10 C -1.8613 -0.0622 -0.0021 0
M  V30 11 C -3.36 -0.0069 -0.0305 0
M  V30 12 H 4.407 0.9122 -0.664 0
M  V30 13 H 3.061 1.8549 -0.3293 0
M  V30 14 H 0.7515 -1.557 -1.5942 0
M  V30 15 H 0.7865 1.109 1.7907 0
M  V30 16 H -1.7024 -1.4244 -1.6756 0
M  V30 17 H -1.668 1.2438 1.7119 0
M  V30 18 H -3.7232 0.9736 0.3448 0
M  V30 19 H -3.7714 -0.8147 0.61 0
M  V30 20 H -3.7375 -0.1383 -1.0669 0
M  V30 END ATOM
M  V30 BEGIN BOND
M  V30 1 2 1 2
M  V30 2 2 1 3
M  V30 3 1 1 4
M  V30 4 1 1 5
M  V30 5 2 5 6
M  V30 6 1 5 7
M  V30 7 1 6 8
M  V30 8 2 7 9
M  V30 9 2 8 10
M  V30 10 1 10 11
M  V30 11 1 9 10
M  V30 12 1 4 12
M  V30 13 1 4 13
M  V30 14 1 6 14
M  V30 15 1 7 15
M  V30 16 1 8 16
M  V30 17 1 9 17
M  V30 18 1 11 18
M  V30 19 1 11 19
M  V30 20 1 11 20
M  V30 END BOND
M  V30 END CTAB
M  END
>  <Structure No>
2053

>  <LogS>
-1.742195335

>  <MMFF94 Energy>
-56.594

$$$$
Compound 2054
Actelion Java MolfileCreator 2.0

  0  0  0  0  0  0              0 V3000
M  V30 BEGIN CTAB
M  V30 COUNTS 15 14 0 0 0
M  V30 BEGIN ATOM
M  V30 1 S -0.2384 -0.954 -0.7155 0
M  V30 2 C 1.4115 -0.1761 -0.8338 0
M  V30 3 C -1.073 0.4797 0.0484 0
M  V30 4 C 2.2039 -0.3934 0.4486 0
M  V30 5 C -2.5319 0.1449 0.3192 0
M  V30 6 H 1.9577 -0.6518 -1.6753 0
M  V30 7 H 1.3288 0.9098 -1.0525 0
M  V30 8 H -1.0218 1.3512 -0.6386 0
M  V30 9 H -0.5778 0.7423 1.0064 0
M  V30 10 H 1.7031 0.102 1.3058 0
M  V30 11 H 3.2203 0.0388 0.335 0
M  V30 12 H 2.2998 -1.4797 0.659 0
M  V30 13 H -2.6033 -0.7179 1.015 0
M  V30 14 H -3.0497 -0.1056 -0.6309 0
M  V30 15 H -3.0361 1.0198 0.7814 0
M  V30 END ATOM
M  V30 BEGIN BOND
M  V30 1 1 1 2
M  V30 2 1 1 3
M  V30 3 1 2 4
M  V30 4 1 3 5
M  V30 5 1 2 6
M  V30 6 1 2 7
M  V30 7 1 3 8
M  V30 8 1 3 9
M  V30 9 1 4 10
M  V30 10 1 4 11
M  V30 11 1 4 12
M  V30 12 1 5 13
M  V30 13 1 5 14
M  V30 14 1 5 15
M  V30 END BOND
M  V30 END CTAB
M  END
>  <Structure No>
2054

>  <LogS>
-1.468024827

>  <MMFF94 Energy>
1.1675

$$$$
Compound 2055
Actelion Java MolfileCreator 2.0

  0  0  0  0  0  0              0 V3000
M  V30 BEGIN CTAB
M  V30 COUNTS 23 22 0 0 0
M  V30 BEGIN ATOM
M  V30 1 O 1.2353 0.2315 1.6989 0
M  V30 2 C 1.8489 0.0515 0.6577 0
M  V30 3 C 1.5603 -1.1649 -0.1817 0
M  V30 4 C 2.9049 1.0291 0.2394 0
M  V30 5 C 0.2525 -1.0194 -0.9684 0
M  V30 6 C -0.9518 -1.0462 -0.0552 0
M  V30 7 C -1.7346 0.0206 0.2204 0
M  V30 8 C -2.8763 -0.158 1.1878 0
M  V30 9 C -1.4966 1.374 -0.4061 0
M  V30 10 H 2.3885 -1.3161 -0.9078 0
M  V30 11 H 1.5233 -2.0673 0.467 0
M  V30 12 H 2.9476 1.8865 0.9447 0
M  V30 13 H 3.8941 0.5258 0.2251 0
M  V30 14 H 2.6743 1.4133 -0.776 0
M  V30 15 H 0.166 -1.8811 -1.6641 0
M  V30 16 H 0.295 -0.1081 -1.6002 0
M  V30 17 H -1.1626 -1.9912 0.44 0
M  V30 18 H -3.5744 -0.9328 0.8057 0
M  V30 19 H -3.4473 0.783 1.33 0
M  V30 20 H -2.4834 -0.4787 2.176 0
M  V30 21 H -1.6156 1.3061 -1.5079 0
M  V30 22 H -0.4749 1.7332 -0.1628 0
M  V30 23 H -2.219 2.1291 -0.0324 0
M  V30 END ATOM
M  V30 BEGIN BOND
M  V30 1 2 1 2
M  V30 2 1 2 3
M  V30 3 1 2 4
M  V30 4 1 3 5
M  V30 5 1 5 6
M  V30 6 2 6 7
M  V30 7 1 7 8
M  V30 8 1 7 9
M  V30 9 1 3 10
M  V30 10 1 3 11
M  V30 11 1 4 12
M  V30 12 1 4 13
M  V30 13 1 4 14
M  V30 14 1 5 15
M  V30 15 1 5 16
M  V30 16 1 6 17
M  V30 17 1 8 18
M  V30 18 1 8 19
M  V30 19 1 8 20
M  V30 20 1 9 21
M  V30 21 1 9 22
M  V30 22 1 9 23
M  V30 END BOND
M  V30 END CTAB
M  END
>  <Structure No>
2055

>  <LogS>
-1.621048971

>  <MMFF94 Energy>
10.631

$$$$
Compound 2056
Actelion Java MolfileCreator 2.0

  0  0  0  0  0  0              0 V3000
M  V30 BEGIN CTAB
M  V30 COUNTS 41 40 0 0 0
M  V30 BEGIN ATOM
M  V30 1 O 0.0 -1.7076 0.543 0
M  V30 2 C 0.6468 -2.8788 1.0036 0
M  V30 3 C -0.7075 -1.0839 1.5951 0
M  V30 4 C 2.0897 -2.577 1.4146 0
M  V30 5 C -1.2212 0.2701 1.1232 0
M  V30 6 O 2.7962 -2.0099 0.3257 0
M  V30 7 O -2.0919 0.084 0.0274 0
M  V30 8 C 3.0504 -0.6392 0.5543 0
M  V30 9 C -2.5447 1.3399 -0.4335 0
M  V30 10 C 3.6577 -0.0279 -0.7101 0
M  V30 11 C -3.5094 1.1408 -1.6034 0
M  V30 12 C 3.8217 1.4967 -0.6139 0
M  V30 13 C -4.7867 0.4101 -1.1683 0
M  V30 14 C 4.9102 1.9129 0.3746 0
M  V30 15 C -5.7495 0.2407 -2.3397 0
M  V30 16 H 0.1082 -3.3833 1.8408 0
M  V30 17 H 0.6691 -3.6074 0.1657 0
M  V30 18 H -0.0518 -0.914 2.4795 0
M  V30 19 H -1.577 -1.7098 1.8985 0
M  V30 20 H 2.1016 -1.9602 2.3449 0
M  V30 21 H 2.5807 -3.5376 1.6781 0
M  V30 22 H -1.7571 0.7539 1.9717 0
M  V30 23 H -0.3459 0.8971 0.8354 0
M  V30 24 H 2.1085 -0.0955 0.7954 0
M  V30 25 H 3.769 -0.5291 1.3964 0
M  V30 26 H -3.0694 1.9002 0.3746 0
M  V30 27 H -1.6873 1.9506 -0.7982 0
M  V30 28 H 4.6401 -0.5036 -0.9222 0
M  V30 29 H 2.9844 -0.2501 -1.5668 0
M  V30 30 H -2.9977 0.5616 -2.4032 0
M  V30 31 H -3.7782 2.1382 -2.0157 0
M  V30 32 H 4.0975 1.8837 -1.6187 0
M  V30 33 H 2.8568 1.9684 -0.3262 0
M  V30 34 H -4.5298 -0.5948 -0.7687 0
M  V30 35 H -5.2951 0.9883 -0.366 0
M  V30 36 H 4.6129 1.6633 1.4143 0
M  V30 37 H 5.8695 1.4085 0.1319 0
M  V30 38 H 5.0633 3.011 0.3138 0
M  V30 39 H -6.662 -0.2911 -1.9969 0
M  V30 40 H -6.0467 1.2329 -2.7416 0
M  V30 41 H -5.2733 -0.3549 -3.1473 0
M  V30 END ATOM
M  V30 BEGIN BOND
M  V30 1 1 1 2
M  V30 2 1 1 3
M  V30 3 1 2 4
M  V30 4 1 3 5
M  V30 5 1 4 6
M  V30 6 1 5 7
M  V30 7 1 6 8
M  V30 8 1 7 9
M  V30 9 1 8 10
M  V30 10 1 9 11
M  V30 11 1 10 12
M  V30 12 1 11 13
M  V30 13 1 12 14
M  V30 14 1 13 15
M  V30 15 1 2 16
M  V30 16 1 2 17
M  V30 17 1 3 18
M  V30 18 1 3 19
M  V30 19 1 4 20
M  V30 20 1 4 21
M  V30 21 1 5 22
M  V30 22 1 5 23
M  V30 23 1 8 24
M  V30 24 1 8 25
M  V30 25 1 9 26
M  V30 26 1 9 27
M  V30 27 1 10 28
M  V30 28 1 10 29
M  V30 29 1 11 30
M  V30 30 1 11 31
M  V30 31 1 12 32
M  V30 32 1 12 33
M  V30 33 1 13 34
M  V30 34 1 13 35
M  V30 35 1 14 36
M  V30 36 1 14 37
M  V30 37 1 14 38
M  V30 38 1 15 39
M  V30 39 1 15 40
M  V30 40 1 15 41
M  V30 END BOND
M  V30 END CTAB
M  END
>  <Structure No>
2056

>  <LogS>
-1.862006084

>  <MMFF94 Energy>
44.564

$$$$
Compound 2057
Actelion Java MolfileCreator 2.0

  0  0  0  0  0  0              0 V3000
M  V30 BEGIN CTAB
M  V30 COUNTS 29 29 0 0 0
M  V30 BEGIN ATOM
M  V30 1 O -0.2353 2.1197 -1.2557 0
M  V30 2 C 0.1276 0.7889 -0.9914 0 CFG=2
M  V30 3 C -0.8159 0.2044 0.0853 0 CFG=1
M  V30 4 C 1.5892 0.7409 -0.509 0
M  V30 5 C -2.2737 0.2463 -0.3589 0
M  V30 6 C -0.3954 -1.2295 0.4667 0
M  V30 7 C 2.0061 -0.6939 -0.1329 0 CFG=2
M  V30 8 C -2.693 -0.4259 -1.4446 0
M  V30 9 C -3.2786 1.0545 0.4207 0
M  V30 10 C 1.0622 -1.2667 0.9409 0
M  V30 11 C 3.4573 -0.7207 0.3583 0
M  V30 12 H 0.1862 2.3662 -2.1201 0
M  V30 13 H 0.043 0.1843 -1.9247 0
M  V30 14 H -0.704 0.8305 0.9989 0
M  V30 15 H 1.7124 1.4141 0.3689 0
M  V30 16 H 2.2499 1.1153 -1.3215 0
M  V30 17 H -0.5087 -1.9145 -0.4015 0
M  V30 18 H -1.0495 -1.6029 1.2846 0
M  V30 19 H 1.9428 -1.3336 -1.0419 0
M  V30 20 H -3.7338 -0.3881 -1.7528 0
M  V30 21 H -2.0098 -1.0215 -2.0403 0
M  V30 22 H -3.7256 1.8309 -0.2356 0
M  V30 23 H -2.8135 1.5622 1.2908 0
M  V30 24 H -4.0842 0.389 0.797 0
M  V30 25 H 1.3405 -2.3207 1.1595 0
M  V30 26 H 1.1578 -0.6844 1.8844 0
M  V30 27 H 3.5758 -0.0944 1.2686 0
M  V30 28 H 3.7604 -1.7622 0.5976 0
M  V30 29 H 4.1357 -0.3361 -0.4326 0
M  V30 END ATOM
M  V30 BEGIN BOND
M  V30 1 1 1 2
M  V30 2 1 2 3
M  V30 3 1 2 4
M  V30 4 1 3 5
M  V30 5 1 3 6
M  V30 6 1 4 7
M  V30 7 2 5 8
M  V30 8 1 5 9
M  V30 9 1 6 10
M  V30 10 1 7 11
M  V30 11 1 7 10
M  V30 12 1 1 12
M  V30 13 1 2 13
M  V30 14 1 3 14
M  V30 15 1 4 15
M  V30 16 1 4 16
M  V30 17 1 6 17
M  V30 18 1 6 18
M  V30 19 1 7 19
M  V30 20 1 8 20
M  V30 21 1 8 21
M  V30 22 1 9 22
M  V30 23 1 9 23
M  V30 24 1 9 24
M  V30 25 1 10 25
M  V30 26 1 10 26
M  V30 27 1 11 27
M  V30 28 1 11 28
M  V30 29 1 11 29
M  V30 END BOND
M  V30 BEGIN COLLECTION
M  V30 MDLV30/STEABS ATOMS=(3 2 3 7)
M  V30 END COLLECTION
M  V30 END CTAB
M  END
>  <Structure No>
2057

>  <LogS>
-1.711112365

>  <MMFF94 Energy>
33.85

$$$$
Compound 2058
Actelion Java MolfileCreator 2.0

  0  0  0  0  0  0              0 V3000
M  V30 BEGIN CTAB
M  V30 COUNTS 21 21 0 0 0
M  V30 BEGIN ATOM
M  V30 1 O 2.4174 -0.0779 -0.2337 0
M  V30 2 C 1.0181 -0.0877 -0.1147 0
M  V30 3 C 3.2476 -1.2272 -0.1031 0
M  V30 4 C 0.3121 1.1216 -0.2655 0
M  V30 5 C 0.3039 -1.2717 0.154 0
M  V30 6 N 1.0084 2.3449 -0.5307 0
M  V30 7 C -1.0862 1.1336 -0.1522 0
M  V30 8 C -1.088 -1.2496 0.2651 0
M  V30 9 C -1.7926 -0.0509 0.0973 0
M  V30 10 C -3.2842 -0.0224 0.2559 0
M  V30 11 H 3.1361 -1.6656 0.9109 0
M  V30 12 H 2.9837 -1.9788 -0.8766 0
M  V30 13 H 4.3059 -0.9275 -0.2457 0
M  V30 14 H 0.8155 -2.2154 0.2825 0
M  V30 15 H 2.0481 2.3721 -0.6192 0
M  V30 16 H 0.4853 3.2421 -0.6417 0
M  V30 17 H -1.6242 2.0681 -0.2596 0
M  V30 18 H -1.6168 -2.1698 0.4816 0
M  V30 19 H -3.5386 0.1749 1.3182 0
M  V30 20 H -3.7303 0.7736 -0.3774 0
M  V30 21 H -3.73 -0.993 -0.0489 0
M  V30 END ATOM
M  V30 BEGIN BOND
M  V30 1 1 1 2
M  V30 2 1 1 3
M  V30 3 2 2 4
M  V30 4 1 2 5
M  V30 5 1 4 6
M  V30 6 1 4 7
M  V30 7 2 5 8
M  V30 8 2 7 9
M  V30 9 1 9 10
M  V30 10 1 8 9
M  V30 11 1 3 11
M  V30 12 1 3 12
M  V30 13 1 3 13
M  V30 14 1 5 14
M  V30 15 1 6 15
M  V30 16 1 6 16
M  V30 17 1 7 17
M  V30 18 1 8 18
M  V30 19 1 10 19
M  V30 20 1 10 20
M  V30 21 1 10 21
M  V30 END BOND
M  V30 END CTAB
M  END
>  <Structure No>
2058

>  <LogS>
-1.660175876

>  <MMFF94 Energy>
32.263

$$$$
Compound 2059
Actelion Java MolfileCreator 2.0

  0  0  0  0  0  0              0 V3000
M  V30 BEGIN CTAB
M  V30 COUNTS 20 20 0 0 0
M  V30 BEGIN ATOM
M  V30 1 O -2.547 -2.6319 0.0848 0
M  V30 2 C -2.4579 -1.4397 -0.312 0
M  V30 3 O -3.5196 -0.8809 -1.0137 0 CHG=-1
M  V30 4 C -1.2114 -0.6699 -0.0899 0
M  V30 5 C -1.2076 0.7321 0.1068 0
M  V30 6 C 0.0116 -1.3583 -0.1344 0
M  V30 7 C -2.4509 1.5105 0.3159 0
M  V30 8 C 0.0197 1.412 0.1641 0
M  V30 9 C 1.2386 -0.6843 -0.0313 0
M  V30 10 O -2.5278 2.7034 -0.0816 0
M  V30 11 O -3.5238 0.9594 1.0067 0 CHG=-1
M  V30 12 C 1.2429 0.7296 0.0737 0
M  V30 13 C 2.4755 -1.4991 0.015 0
M  V30 14 C 2.4859 1.5359 0.0404 0
M  V30 15 O 3.4537 -1.1454 0.7248 0
M  V30 16 O 2.5443 -2.7027 -0.6768 0 CHG=-1
M  V30 17 O 3.4689 1.1753 -0.6592 0
M  V30 18 O 2.5559 2.7391 0.7331 0 CHG=-1
M  V30 19 H 0.0077 -2.4361 -0.2508 0
M  V30 20 H 0.0221 2.4899 0.2807 0
M  V30 END ATOM
M  V30 BEGIN BOND
M  V30 1 2 1 2
M  V30 2 1 2 3
M  V30 3 1 2 4
M  V30 4 2 4 5
M  V30 5 1 4 6
M  V30 6 1 5 7
M  V30 7 1 5 8
M  V30 8 2 6 9
M  V30 9 2 7 10
M  V30 10 1 7 11
M  V30 11 2 8 12
M  V30 12 1 9 13
M  V30 13 1 12 14
M  V30 14 2 13 15
M  V30 15 1 13 16
M  V30 16 2 14 17
M  V30 17 1 14 18
M  V30 18 1 9 12
M  V30 19 1 6 19
M  V30 20 1 8 20
M  V30 END BOND
M  V30 END CTAB
M  END
>  <Structure No>
2059

>  <LogS>
-2.125310985

>  <MMFF94 Energy>
413.39

$$$$
Compound 2060
Actelion Java MolfileCreator 2.0

  0  0  0  0  0  0              0 V3000
M  V30 BEGIN CTAB
M  V30 COUNTS 14 14 0 0 0
M  V30 BEGIN ATOM
M  V30 1 Cl -3.6219 -0.2411 0.0 0
M  V30 2 C -1.8718 -0.1233 -0.0022 0
M  V30 3 C -1.2538 1.1225 -0.1551 0
M  V30 4 C -1.0922 -1.2753 0.149 0
M  V30 5 C 0.1415 1.2173 -0.157 0
M  V30 6 C 0.3031 -1.1824 0.1473 0
M  V30 7 C 0.9269 0.0649 -0.0056 0
M  V30 8 N 2.3536 0.1608 -0.0075 0
M  V30 9 H -1.8526 2.0168 -0.2724 0
M  V30 10 H -1.5657 -2.2415 0.2677 0
M  V30 11 H 0.6097 2.1863 -0.276 0
M  V30 12 H 0.8972 -2.0798 0.2651 0
M  V30 13 H 2.9468 -0.6914 0.1045 0
M  V30 14 H 2.8271 1.0848 -0.1207 0
M  V30 END ATOM
M  V30 BEGIN BOND
M  V30 1 1 1 2
M  V30 2 2 2 3
M  V30 3 1 2 4
M  V30 4 1 3 5
M  V30 5 2 4 6
M  V30 6 2 5 7
M  V30 7 1 7 8
M  V30 8 1 6 7
M  V30 9 1 3 9
M  V30 10 1 4 10
M  V30 11 1 5 11
M  V30 12 1 6 12
M  V30 13 1 8 13
M  V30 14 1 8 14
M  V30 END BOND
M  V30 END CTAB
M  END
>  <Structure No>
2060

>  <LogS>
-1.628640918

>  <MMFF94 Energy>
5.1255

$$$$
Compound 2061
Actelion Java MolfileCreator 2.0

  0  0  0  0  0  0              0 V3000
M  V30 BEGIN CTAB
M  V30 COUNTS 25 24 0 0 0
M  V30 BEGIN ATOM
M  V30 1 O 1.2385 -1.7032 1.0061 0
M  V30 2 C 1.1116 -0.9682 0.0376 0
M  V30 3 C -0.0921 -1.1333 -0.8676 0
M  V30 4 C 2.2378 -0.0302 -0.3199 0
M  V30 5 C -1.4709 -0.7801 -0.2426 0 CFG=2
M  V30 6 C 2.6733 0.8147 0.8762 0
M  V30 7 C -1.8732 0.7063 -0.3953 0
M  V30 8 C -1.6645 -1.2977 1.1922 0
M  V30 9 C -0.9336 1.7037 0.2787 0
M  V30 10 H -0.1174 -2.1999 -1.1812 0
M  V30 11 H 0.0459 -0.5481 -1.8022 0
M  V30 12 H 3.1049 -0.6327 -0.665 0
M  V30 13 H 1.943 0.6415 -1.1537 0
M  V30 14 H -2.2184 -1.3355 -0.8535 0
M  V30 15 H 3.0856 0.1652 1.6775 0
M  V30 16 H 1.8195 1.3932 1.2845 0
M  V30 17 H 3.4645 1.5261 0.5589 0
M  V30 18 H -2.8944 0.8482 0.0217 0
M  V30 19 H -1.9328 0.9577 -1.4768 0
M  V30 20 H -1.4485 -2.3865 1.2347 0
M  V30 21 H -2.7172 -1.1452 1.5128 0
M  V30 22 H -1.0031 -0.7725 1.9107 0
M  V30 23 H -1.3933 2.7142 0.2513 0
M  V30 24 H -0.75 1.4377 1.339 0
M  V30 25 H 0.0233 1.7585 -0.2735 0
M  V30 END ATOM
M  V30 BEGIN BOND
M  V30 1 2 1 2
M  V30 2 1 2 3
M  V30 3 1 2 4
M  V30 4 1 3 5
M  V30 5 1 4 6
M  V30 6 1 5 7
M  V30 7 1 5 8
M  V30 8 1 7 9
M  V30 9 1 3 10
M  V30 10 1 3 11
M  V30 11 1 4 12
M  V30 12 1 4 13
M  V30 13 1 5 14
M  V30 14 1 6 15
M  V30 15 1 6 16
M  V30 16 1 6 17
M  V30 17 1 7 18
M  V30 18 1 7 19
M  V30 19 1 8 20
M  V30 20 1 8 21
M  V30 21 1 8 22
M  V30 22 1 9 23
M  V30 23 1 9 24
M  V30 24 1 9 25
M  V30 END BOND
M  V30 BEGIN COLLECTION
M  V30 MDLV30/STEABS ATOMS=(1 5)
M  V30 END COLLECTION
M  V30 END CTAB
M  END
>  <Structure No>
2061

>  <LogS>
-1.630817582

>  <MMFF94 Energy>
5.4534

$$$$
Compound 2062
Actelion Java MolfileCreator 2.0

  0  0  0  0  0  0              0 V3000
M  V30 BEGIN CTAB
M  V30 COUNTS 15 14 0 0 0
M  V30 BEGIN ATOM
M  V30 1 O 1.3084 0.1538 1.6936 0
M  V30 2 C 1.2539 0.0888 0.4364 0
M  V30 3 C -0.0121 -0.2225 -0.2588 0
M  V30 4 C 2.5193 0.1936 -0.352 0
M  V30 5 C -1.2463 0.0233 0.2192 0
M  V30 6 O -1.479 0.7444 1.394 0
M  V30 7 C -2.4372 -0.455 -0.5527 0
M  V30 8 H 0.0761 -0.6994 -1.2289 0
M  V30 9 H 2.3307 0.7243 -1.3091 0
M  V30 10 H 3.2845 0.7595 0.2205 0
M  V30 11 H 2.9065 -0.8238 -0.568 0
M  V30 12 H -0.7662 1.2647 1.8864 0
M  V30 13 H -2.4951 0.0785 -1.525 0
M  V30 14 H -3.369 -0.2573 0.0181 0
M  V30 15 H -2.3606 -1.548 -0.7356 0
M  V30 END ATOM
M  V30 BEGIN BOND
M  V30 1 2 1 2
M  V30 2 1 2 3
M  V30 3 1 2 4
M  V30 4 2 3 5
M  V30 5 1 5 6
M  V30 6 1 5 7
M  V30 7 1 3 8
M  V30 8 1 4 9
M  V30 9 1 4 10
M  V30 10 1 4 11
M  V30 11 1 6 12
M  V30 12 1 7 13
M  V30 13 1 7 14
M  V30 14 1 7 15
M  V30 END BOND
M  V30 END CTAB
M  END
>  <Structure No>
2062

>  <LogS>
-2.033837746

>  <MMFF94 Energy>
5.2379

$$$$
Compound 2063
Actelion Java MolfileCreator 2.0

  0  0  0  0  0  0              0 V3000
M  V30 BEGIN CTAB
M  V30 COUNTS 5 4 0 0 0
M  V30 BEGIN ATOM
M  V30 1 Cl 1.59 -0.4414 -0.1765 0
M  V30 2 C -0.1139 0.0057 0.0632 0
M  V30 3 F -0.3328 1.2732 -0.4409 0
M  V30 4 F -0.9244 -0.8981 -0.5957 0
M  V30 5 H -0.3507 -0.007 1.1469 0
M  V30 END ATOM
M  V30 BEGIN BOND
M  V30 1 1 1 2
M  V30 2 1 2 3
M  V30 3 1 2 4
M  V30 4 1 2 5
M  V30 END BOND
M  V30 END CTAB
M  END
>  <Structure No>
2063

>  <LogS>
-1.459734159

>  <MMFF94 Energy>
0.24078

$$$$
Compound 2064
Actelion Java MolfileCreator 2.0

  0  0  0  0  0  0              0 V3000
M  V30 BEGIN CTAB
M  V30 COUNTS 62 65 0 0 0
M  V30 BEGIN ATOM
M  V30 1 S 7.8188 -3.6891 -1.2 0
M  V30 2 O 6.3649 -3.9402 -0.9085 0
M  V30 3 O 8.3959 -4.8965 -1.8814 0
M  V30 4 O 7.9844 -2.3517 -2.2264 0
M  V30 5 O 8.6479 -3.4301 0.2391 0 CHG=-1
M  V30 6 C 7.5358 -1.2097 -1.5384 0
M  V30 7 C 7.6444 0.0014 -2.4606 0
M  V30 8 S 7.115 1.4917 -1.6307 0
M  V30 9 O 7.2935 2.664 -2.553 0
M  V30 10 O 7.9557 1.7163 -0.4052 0
M  V30 11 C 5.4183 1.3576 -1.177 0
M  V30 12 C 5.0601 0.9194 0.1034 0
M  V30 13 C 4.4181 1.6573 -2.109 0
M  V30 14 C 3.7128 0.7885 0.4528 0
M  V30 15 C 3.0702 1.5308 -1.7612 0
M  V30 16 C 2.701 1.0943 -0.476 0
M  V30 17 N 1.3081 0.9644 -0.1271 0
M  V30 18 N 0.2739 1.3496 -0.9787 0
M  V30 19 C 0.779 0.4419 1.1267 0 CFG=2
M  V30 20 C -0.8663 1.1568 -0.4151 0
M  V30 21 O 1.1106 -0.9157 1.248 0
M  V30 22 C -0.7493 0.6204 0.9803 0 CFG=2
M  V30 23 C -2.1516 1.482 -1.1006 0
M  V30 24 N -1.226 1.6062 1.9576 0
M  V30 25 N -2.4354 1.7718 2.3403 0
M  V30 26 C -3.5554 0.9609 1.9561 0
M  V30 27 C -4.715 1.544 1.3898 0
M  V30 28 C -3.5477 -0.3964 2.2803 0
M  V30 29 S -4.7863 3.306 1.0947 0
M  V30 30 C -5.8223 0.7057 1.0591 0
M  V30 31 C -4.6219 -1.2147 1.9631 0
M  V30 32 O -4.9804 3.5598 -0.3739 0
M  V30 33 O -3.5371 4.0148 1.5347 0
M  V30 34 O -6.0796 3.9518 1.9517 0 CHG=-1
M  V30 35 C -5.7665 -0.6932 1.3372 0
M  V30 36 C -6.9902 1.225 0.4592 0
M  V30 37 C -6.8666 -1.5287 0.9966 0
M  V30 38 C -8.0591 0.3963 0.1343 0
M  V30 39 S -6.863 -3.278 1.2939 0
M  V30 40 C -7.999 -0.9656 0.3971 0
M  V30 41 O -8.122 -3.9063 0.7654 0
M  V30 42 O -6.7766 -3.5392 2.7713 0
M  V30 43 O -5.5504 -3.979 0.514 0 CHG=-1
M  V30 44 H 6.4715 -1.3318 -1.2356 0
M  V30 45 H 8.1652 -1.027 -0.6386 0
M  V30 46 H 7.0092 -0.1552 -3.3589 0
M  V30 47 H 8.6986 0.1284 -2.7872 0
M  V30 48 H 5.8225 0.6698 0.8298 0
M  V30 49 H 4.6808 1.9834 -3.1074 0
M  V30 50 H 3.4684 0.4472 1.4492 0
M  V30 51 H 2.3164 1.7678 -2.5007 0
M  V30 52 H 1.1879 1.0284 1.9825 0
M  V30 53 H 0.8917 -1.1742 2.1809 0
M  V30 54 H -1.2677 -0.3535 1.0673 0
M  V30 55 H -2.0147 1.4688 -2.2025 0
M  V30 56 H -2.4848 2.493 -0.7916 0
M  V30 57 H -2.9253 0.733 -0.8331 0
M  V30 58 H -2.7008 -0.825 2.8013 0
M  V30 59 H -4.5415 -2.2572 2.2299 0
M  V30 60 H -7.1018 2.2727 0.228 0
M  V30 61 H -8.9436 0.8151 -0.328 0
M  V30 62 H -8.8482 -1.5804 0.1294 0
M  V30 END ATOM
M  V30 BEGIN BOND
M  V30 1 2 1 2
M  V30 2 2 1 3
M  V30 3 1 1 4
M  V30 4 1 1 5
M  V30 5 1 4 6
M  V30 6 1 6 7
M  V30 7 1 7 8
M  V30 8 2 8 9
M  V30 9 2 8 10
M  V30 10 1 8 11
M  V30 11 2 11 12
M  V30 12 1 11 13
M  V30 13 1 12 14
M  V30 14 2 13 15
M  V30 15 2 14 16
M  V30 16 1 16 17
M  V30 17 1 17 18
M  V30 18 1 17 19
M  V30 19 2 18 20
M  V30 20 1 19 21
M  V30 21 1 19 22
M  V30 22 1 20 23
M  V30 23 1 22 24
M  V30 24 2 24 25
M  V30 25 1 25 26
M  V30 26 2 26 27
M  V30 27 1 26 28
M  V30 28 1 27 29
M  V30 29 1 27 30
M  V30 30 2 28 31
M  V30 31 2 29 32
M  V30 32 2 29 33
M  V30 33 1 29 34
M  V30 34 1 30 35
M  V30 35 2 30 36
M  V30 36 2 35 37
M  V30 37 1 36 38
M  V30 38 1 37 39
M  V30 39 1 37 40
M  V30 40 2 39 41
M  V30 41 2 39 42
M  V30 42 1 39 43
M  V30 43 1 15 16
M  V30 44 1 20 22
M  V30 45 1 31 35
M  V30 46 2 38 40
M  V30 47 1 6 44
M  V30 48 1 6 45
M  V30 49 1 7 46
M  V30 50 1 7 47
M  V30 51 1 12 48
M  V30 52 1 13 49
M  V30 53 1 14 50
M  V30 54 1 15 51
M  V30 55 1 19 52
M  V30 56 1 21 53
M  V30 57 1 22 54
M  V30 58 1 23 55
M  V30 59 1 23 56
M  V30 60 1 23 57
M  V30 61 1 28 58
M  V30 62 1 31 59
M  V30 63 1 36 60
M  V30 64 1 38 61
M  V30 65 1 40 62
M  V30 END BOND
M  V30 BEGIN COLLECTION
M  V30 MDLV30/STEABS ATOMS=(2 19 22)
M  V30 END COLLECTION
M  V30 END CTAB
M  END
>  <Structure No>
2064

>  <LogS>
-0.392839827

>  <MMFF94 Energy>
165.13

$$$$
Compound 2065
Actelion Java MolfileCreator 2.0

  0  0  0  0  0  0              0 V3000
M  V30 BEGIN CTAB
M  V30 COUNTS 12 11 0 0 0
M  V30 BEGIN ATOM
M  V30 1 O 2.2812 0.1519 1.9768 0
M  V30 2 C 1.9664 0.5604 0.6744 0
M  V30 3 C 0.6069 0.1327 0.3292 0
M  V30 4 C -0.5107 -0.2188 0.0452 0
M  V30 5 C -1.8701 -0.6465 -0.3001 0
M  V30 6 O -2.8078 0.1334 0.3888 0
M  V30 7 H 2.4998 -0.8156 1.9276 0
M  V30 8 H 2.0179 1.6675 0.621 0
M  V30 9 H 2.6901 0.1386 -0.058 0
M  V30 10 H -1.9974 -1.7084 -0.0046 0
M  V30 11 H -2.0208 -0.5665 -1.3998 0
M  V30 12 H -2.8617 1.0029 -0.0884 0
M  V30 END ATOM
M  V30 BEGIN BOND
M  V30 1 1 1 2
M  V30 2 1 2 3
M  V30 3 3 3 4
M  V30 4 1 4 5
M  V30 5 1 5 6
M  V30 6 1 1 7
M  V30 7 1 2 8
M  V30 8 1 2 9
M  V30 9 1 5 10
M  V30 10 1 5 11
M  V30 11 1 6 12
M  V30 END BOND
M  V30 END CTAB
M  END
>  <Structure No>
2065

>  <LogS>
1.536339003

>  <MMFF94 Energy>
-9.8939

$$$$
Compound 2066
Actelion Java MolfileCreator 2.0

  0  0  0  0  0  0              0 V3000
M  V30 BEGIN CTAB
M  V30 COUNTS 73 78 0 0 0
M  V30 BEGIN ATOM
M  V30 1 Cl -5.9468 -2.5455 1.6116 0
M  V30 2 C -4.9457 -1.4134 0.7308 0
M  V30 3 N -5.399 -0.1622 0.4766 0
M  V30 4 N -3.7178 -1.7885 0.3006 0
M  V30 5 C -4.6237 0.7259 -0.2033 0
M  V30 6 C -2.9403 -0.9175 -0.3968 0
M  V30 7 N -3.3952 0.338 -0.6423 0
M  V30 8 N -5.1101 2.0582 -0.4725 0
M  V30 9 N -1.6386 -1.3064 -0.8575 0
M  V30 10 C -6.3376 2.516 0.1263 0
M  V30 11 C -4.3172 2.9951 -1.2831 0
M  V30 12 C -1.1446 -2.653 -0.7498 0
M  V30 13 C -6.4958 2.5037 1.5242 0
M  V30 14 C -7.3939 2.9705 -0.6811 0
M  V30 15 C -3.2365 3.6542 -0.4326 0
M  V30 16 C 0.1537 -2.9304 -0.2453 0
M  V30 17 C -1.9531 -3.7121 -1.1984 0
M  V30 18 C -7.6882 2.9459 2.1039 0
M  V30 19 C -8.5858 3.4152 -0.0978 0
M  V30 20 C 1.0752 -1.8705 0.2484 0
M  V30 21 C 0.5895 -4.275 -0.1709 0
M  V30 22 C -1.5169 -5.0357 -1.1133 0
M  V30 23 C -8.7284 3.413 1.2933 0
M  V30 24 O 0.6475 -0.7152 0.5133 0
M  V30 25 C 2.4821 -2.2368 0.5491 0
M  V30 26 C 1.9186 -4.6135 0.3875 0
M  V30 27 C -0.2474 -5.3122 -0.604 0
M  V30 28 S -2.5537 -6.3456 -1.6715 0
M  V30 29 N 3.4509 -1.3677 0.6259 0
M  V30 30 C 2.8026 -3.6701 0.7437 0
M  V30 31 O -3.9933 -5.9971 -1.4198 0
M  V30 32 O -2.2278 -7.6126 -0.9323 0
M  V30 33 O -2.3158 -6.5864 -3.3162 0 CHG=-1
M  V30 34 N 3.362 -0.005 0.2953 0
M  V30 35 S 4.3859 -4.1391 1.3811 0
M  V30 36 C 4.4814 0.843 0.5548 0
M  V30 37 O 4.4217 -5.6089 1.6941 0
M  V30 38 O 4.6648 -3.3699 2.6427 0
M  V30 39 O 5.5686 -3.7961 0.2401 0 CHG=-1
M  V30 40 C 5.2067 1.4613 -0.4948 0
M  V30 41 C 4.8377 1.0697 1.8874 0
M  V30 42 S 4.9008 1.0127 -2.1962 0
M  V30 43 C 6.2325 2.3925 -0.1648 0
M  V30 44 C 5.8681 1.9464 2.2104 0
M  V30 45 O 4.2632 2.1716 -2.9103 0
M  V30 46 O 4.005 -0.1876 -2.3186 0
M  V30 47 O 6.3594 0.6239 -2.9401 0 CHG=-1
M  V30 48 C 6.5566 2.6236 1.2012 0
M  V30 49 C 6.9393 3.1167 -1.1522 0
M  V30 50 C 7.5664 3.5355 1.5437 0
M  V30 51 C 7.9382 4.0251 -0.7939 0
M  V30 52 C 8.2524 4.232 0.5502 0
M  V30 53 H -1.0327 -0.5805 -1.301 0
M  V30 54 H -3.8545 2.4636 -2.1398 0
M  V30 55 H -4.9649 3.7898 -1.7107 0
M  V30 56 H -5.6884 2.1706 2.1598 0
M  V30 57 H -7.301 2.9587 -1.7592 0
M  V30 58 H -3.7021 4.2194 0.4036 0
M  V30 59 H -2.5487 2.8903 -0.0065 0
M  V30 60 H -2.6444 4.3564 -1.0575 0
M  V30 61 H -2.9238 -3.4989 -1.6303 0
M  V30 62 H -7.7967 2.947 3.1811 0
M  V30 63 H -9.3997 3.7583 -0.725 0
M  V30 64 H -9.65 3.7575 1.7458 0
M  V30 65 H 2.1794 -5.658 0.4949 0
M  V30 66 H 0.0911 -6.3395 -0.5521 0
M  V30 67 H 2.6039 0.3543 -0.3271 0
M  V30 68 H 4.293 0.5745 2.6844 0
M  V30 69 H 6.1091 2.1152 3.2548 0
M  V30 70 H 6.7214 3.01 -2.2041 0
M  V30 71 H 7.8168 3.7169 2.5815 0
M  V30 72 H 8.4668 4.5731 -1.5629 0
M  V30 73 H 9.0251 4.9382 0.8248 0
M  V30 END ATOM
M  V30 BEGIN BOND
M  V30 1 1 1 2
M  V30 2 2 2 3
M  V30 3 1 2 4
M  V30 4 1 3 5
M  V30 5 2 4 6
M  V30 6 2 5 7
M  V30 7 1 5 8
M  V30 8 1 6 9
M  V30 9 1 8 10
M  V30 10 1 8 11
M  V30 11 1 9 12
M  V30 12 2 10 13
M  V30 13 1 10 14
M  V30 14 1 11 15
M  V30 15 2 12 16
M  V30 16 1 12 17
M  V30 17 1 13 18
M  V30 18 2 14 19
M  V30 19 1 16 20
M  V30 20 1 16 21
M  V30 21 2 17 22
M  V30 22 2 18 23
M  V30 23 2 20 24
M  V30 24 1 20 25
M  V30 25 1 21 26
M  V30 26 2 21 27
M  V30 27 1 22 28
M  V30 28 2 25 29
M  V30 29 1 25 30
M  V30 30 2 28 31
M  V30 31 2 28 32
M  V30 32 1 28 33
M  V30 33 1 29 34
M  V30 34 1 30 35
M  V30 35 1 34 36
M  V30 36 2 35 37
M  V30 37 2 35 38
M  V30 38 1 35 39
M  V30 39 2 36 40
M  V30 40 1 36 41
M  V30 41 1 40 42
M  V30 42 1 40 43
M  V30 43 2 41 44
M  V30 44 2 42 45
M  V30 45 2 42 46
M  V30 46 1 42 47
M  V30 47 1 43 48
M  V30 48 2 43 49
M  V30 49 2 48 50
M  V30 50 1 49 51
M  V30 51 1 50 52
M  V30 52 1 6 7
M  V30 53 1 19 23
M  V30 54 1 22 27
M  V30 55 2 26 30
M  V30 56 1 44 48
M  V30 57 2 51 52
M  V30 58 1 9 53
M  V30 59 1 11 54
M  V30 60 1 11 55
M  V30 61 1 13 56
M  V30 62 1 14 57
M  V30 63 1 15 58
M  V30 64 1 15 59
M  V30 65 1 15 60
M  V30 66 1 17 61
M  V30 67 1 18 62
M  V30 68 1 19 63
M  V30 69 1 23 64
M  V30 70 1 26 65
M  V30 71 1 27 66
M  V30 72 1 34 67
M  V30 73 1 41 68
M  V30 74 1 44 69
M  V30 75 1 49 70
M  V30 76 1 50 71
M  V30 77 1 51 72
M  V30 78 1 52 73
M  V30 END BOND
M  V30 END CTAB
M  END
>  <Structure No>
2066

>  <LogS>
-0.459235549

>  <MMFF94 Energy>
82.712

$$$$
Compound 2067
Actelion Java MolfileCreator 2.0

  0  0  0  0  0  0              0 V3000
M  V30 BEGIN CTAB
M  V30 COUNTS 36 38 0 0 0
M  V30 BEGIN ATOM
M  V30 1 S 6.2409 -1.0797 1.5783 0
M  V30 2 O 5.7518 -1.3141 2.9799 0
M  V30 3 O 7.4538 -0.1939 1.6324 0
M  V30 4 O 6.6519 -2.5483 0.8752 0 CHG=-1
M  V30 5 C 4.9768 -0.3081 0.6261 0
M  V30 6 C 3.6299 -0.5955 0.8808 0
M  V30 7 C 5.3124 0.5775 -0.4027 0
M  V30 8 C 2.6086 0.0079 0.1269 0
M  V30 9 C 4.3103 1.1774 -1.1664 0
M  V30 10 N 1.239 -0.3154 0.4304 0
M  V30 11 C 2.9591 0.8985 -0.9144 0
M  V30 12 N 0.1746 0.455 -0.0727 0
M  V30 13 O 1.979 1.4963 -1.7056 0
M  V30 14 C -1.0912 0.1575 0.0252 0
M  V30 15 C -2.083 1.1034 -0.5111 0
M  V30 16 C -1.5854 -1.1045 0.6253 0
M  V30 17 O -1.6997 2.166 -1.0736 0
M  V30 18 C -3.5247 0.7998 -0.3759 0
M  V30 19 C -2.8949 -1.3608 0.7275 0
M  V30 20 C -3.9339 -0.4053 0.2476 0
M  V30 21 C -4.4869 1.7017 -0.8591 0
M  V30 22 C -5.3228 -0.6735 0.3833 0
M  V30 23 C -5.8443 1.4204 -0.7283 0
M  V30 24 O -5.8223 -1.8239 1.0002 0
M  V30 25 C -6.2578 0.2424 -0.1112 0
M  V30 26 H 3.3732 -1.2892 1.6721 0
M  V30 27 H 6.3494 0.8005 -0.6187 0
M  V30 28 H 4.5858 1.8574 -1.9624 0
M  V30 29 H 1.0641 -1.0555 1.1442 0
M  V30 30 H 2.2157 2.1335 -2.4573 0
M  V30 31 H -0.9024 -1.8668 0.9686 0
M  V30 32 H -3.1698 -2.3101 1.1589 0
M  V30 33 H -4.19 2.6261 -1.3387 0
M  V30 34 H -6.5799 2.1202 -1.104 0
M  V30 35 H -5.252 -2.5367 1.4302 0
M  V30 36 H -7.3167 0.0389 -0.0116 0
M  V30 END ATOM
M  V30 BEGIN BOND
M  V30 1 2 1 2
M  V30 2 2 1 3
M  V30 3 1 1 4
M  V30 4 1 1 5
M  V30 5 2 5 6
M  V30 6 1 5 7
M  V30 7 1 6 8
M  V30 8 2 7 9
M  V30 9 1 8 10
M  V30 10 2 8 11
M  V30 11 1 10 12
M  V30 12 1 11 13
M  V30 13 2 12 14
M  V30 14 1 14 15
M  V30 15 1 14 16
M  V30 16 2 15 17
M  V30 17 1 15 18
M  V30 18 2 16 19
M  V30 19 2 18 20
M  V30 20 1 18 21
M  V30 21 1 20 22
M  V30 22 2 21 23
M  V30 23 1 22 24
M  V30 24 2 22 25
M  V30 25 1 9 11
M  V30 26 1 19 20
M  V30 27 1 23 25
M  V30 28 1 6 26
M  V30 29 1 7 27
M  V30 30 1 9 28
M  V30 31 1 10 29
M  V30 32 1 13 30
M  V30 33 1 16 31
M  V30 34 1 19 32
M  V30 35 1 21 33
M  V30 36 1 23 34
M  V30 37 1 24 35
M  V30 38 1 25 36
M  V30 END BOND
M  V30 END CTAB
M  END
>  <Structure No>
2067

>  <LogS>
-0.901196004

>  <MMFF94 Energy>
124.5

$$$$
Compound 2068
Actelion Java MolfileCreator 2.0

  0  0  0  0  0  0              0 V3000
M  V30 BEGIN CTAB
M  V30 COUNTS 27 26 0 0 0
M  V30 BEGIN ATOM
M  V30 1 O -1.479 -1.8901 -2.2191 0
M  V30 2 C -0.5943 -1.8921 -1.3229 0
M  V30 3 O -0.2399 -3.0944 -0.7217 0 CHG=-1
M  V30 4 C 0.0464 -0.5899 -0.8919 0 CFG=1
M  V30 5 N -0.7831 0.2018 0.0743 0
M  V30 6 C 1.4882 -0.8106 -0.3768 0
M  V30 7 C -1.7275 1.0952 -0.6401 0
M  V30 8 C -1.5153 -0.5985 1.0925 0
M  V30 9 C 2.271 0.5001 -0.1749 0
M  V30 10 C -1.0112 2.2747 -1.2243 0
M  V30 11 C -0.5961 -1.2007 2.1075 0
M  V30 12 C 2.0918 1.0551 1.2037 0
M  V30 13 O -0.6031 3.2013 -0.4766 0
M  V30 14 O -0.7878 2.348 -2.5935 0 CHG=-1
M  V30 15 O -0.0182 -0.4666 2.951 0
M  V30 16 O -0.3984 -2.575 2.1445 0 CHG=-1
M  V30 17 O 1.3028 2.0141 1.4083 0
M  V30 18 O 2.7889 0.4999 2.2695 0 CHG=-1
M  V30 19 H 0.1788 -0.0126 -1.8345 0
M  V30 20 H 2.0336 -1.4024 -1.1458 0
M  V30 21 H 1.5068 -1.4233 0.5473 0
M  V30 22 H -2.4999 1.5054 0.0474 0
M  V30 23 H -2.2692 0.5437 -1.4396 0
M  V30 24 H -2.2096 0.0517 1.669 0
M  V30 25 H -2.1495 -1.3814 0.625 0
M  V30 26 H 3.3538 0.2946 -0.3172 0
M  V30 27 H 1.9831 1.258 -0.9359 0
M  V30 END ATOM
M  V30 BEGIN BOND
M  V30 1 2 1 2
M  V30 2 1 2 3
M  V30 3 1 2 4
M  V30 4 1 4 5
M  V30 5 1 4 6
M  V30 6 1 5 7
M  V30 7 1 5 8
M  V30 8 1 6 9
M  V30 9 1 7 10
M  V30 10 1 8 11
M  V30 11 1 9 12
M  V30 12 2 10 13
M  V30 13 1 10 14
M  V30 14 2 11 15
M  V30 15 1 11 16
M  V30 16 2 12 17
M  V30 17 1 12 18
M  V30 18 1 4 19
M  V30 19 1 6 20
M  V30 20 1 6 21
M  V30 21 1 7 22
M  V30 22 1 7 23
M  V30 23 1 8 24
M  V30 24 1 8 25
M  V30 25 1 9 26
M  V30 26 1 9 27
M  V30 END BOND
M  V30 BEGIN COLLECTION
M  V30 MDLV30/STEABS ATOMS=(1 4)
M  V30 END COLLECTION
M  V30 END CTAB
M  END
>  <Structure No>
2068

>  <LogS>
0.043603804

>  <MMFF94 Energy>
546.56

$$$$
Compound 2069
Actelion Java MolfileCreator 2.0

  0  0  0  0  0  0              0 V3000
M  V30 BEGIN CTAB
M  V30 COUNTS 15 14 0 0 0
M  V30 BEGIN ATOM
M  V30 1 O 0.6921 -1.6156 -0.6921 0
M  V30 2 C 1.1774 -0.6111 -0.1058 0
M  V30 3 O 0.4078 0.5343 0.1399 0
M  V30 4 C 2.6259 -0.6005 0.246 0
M  V30 5 C -0.9892 0.6306 0.0342 0
M  V30 6 C -1.5323 1.8471 0.0116 0
M  V30 7 C -1.8737 -0.5853 -0.0498 0
M  V30 8 H 2.8047 0.0968 1.0912 0
M  V30 9 H 2.9542 -1.6179 0.546 0
M  V30 10 H 3.2173 -0.268 -0.632 0
M  V30 11 H -2.6032 1.9855 -0.0726 0
M  V30 12 H -0.9033 2.726 0.0732 0
M  V30 13 H -1.8585 -0.9869 -1.0842 0
M  V30 14 H -1.5175 -1.3617 0.6586 0
M  V30 15 H -2.9248 -0.3457 0.2205 0
M  V30 END ATOM
M  V30 BEGIN BOND
M  V30 1 2 1 2
M  V30 2 1 2 3
M  V30 3 1 2 4
M  V30 4 1 3 5
M  V30 5 2 5 6
M  V30 6 1 5 7
M  V30 7 1 4 8
M  V30 8 1 4 9
M  V30 9 1 4 10
M  V30 10 1 6 11
M  V30 11 1 6 12
M  V30 12 1 7 13
M  V30 13 1 7 14
M  V30 14 1 7 15
M  V30 END BOND
M  V30 END CTAB
M  END
>  <Structure No>
2069

>  <LogS>
-0.527751378

>  <MMFF94 Energy>
16.155

$$$$
Compound 2070
Actelion Java MolfileCreator 2.0

  0  0  0  0  0  0              0 V3000
M  V30 BEGIN CTAB
M  V30 COUNTS 19 20 0 0 0
M  V30 BEGIN ATOM
M  V30 1 O -2.4505 -2.1235 -0.653 0
M  V30 2 C -1.9671 -0.9821 -0.4344 0
M  V30 3 O -2.7365 0.1374 -0.1428 0
M  V30 4 C -0.5367 -0.6066 -0.6052 0 CFG=1
M  V30 5 C -1.8529 1.1776 0.1167 0
M  V30 6 C -0.4595 0.6667 0.233 0 CFG=2
M  V30 7 C 0.5908 -1.5379 -0.1697 0
M  V30 8 O -2.2161 2.3597 0.3516 0
M  V30 9 C 0.7344 1.4866 -0.2472 0
M  V30 10 C 1.9078 -0.7673 -0.2356 0
M  V30 11 C 1.9732 0.5934 -0.2305 0
M  V30 12 H -0.4016 -0.3718 -1.6874 0
M  V30 13 H -0.3058 0.418 1.3097 0
M  V30 14 H 0.4232 -1.8988 0.8679 0
M  V30 15 H 0.6372 -2.4139 -0.8507 0
M  V30 16 H 0.8906 2.353 0.4298 0
M  V30 17 H 0.5624 1.8639 -1.2782 0
M  V30 18 H 2.8333 -1.3342 -0.2266 0
M  V30 19 H 2.9477 1.0693 -0.2762 0
M  V30 END ATOM
M  V30 BEGIN BOND
M  V30 1 2 1 2
M  V30 2 1 2 3
M  V30 3 1 2 4
M  V30 4 1 3 5
M  V30 5 1 4 6
M  V30 6 1 4 7
M  V30 7 2 5 8
M  V30 8 1 6 9
M  V30 9 1 7 10
M  V30 10 1 9 11
M  V30 11 1 5 6
M  V30 12 2 10 11
M  V30 13 1 4 12
M  V30 14 1 6 13
M  V30 15 1 7 14
M  V30 16 1 7 15
M  V30 17 1 9 16
M  V30 18 1 9 17
M  V30 19 1 10 18
M  V30 20 1 11 19
M  V30 END BOND
M  V30 BEGIN COLLECTION
M  V30 MDLV30/STEABS ATOMS=(2 4 6)
M  V30 END COLLECTION
M  V30 END CTAB
M  END
>  <Structure No>
2070

>  <LogS>
-0.713921772

>  <MMFF94 Energy>
-29.408

$$$$
Compound 2071
Actelion Java MolfileCreator 2.0

  0  0  0  0  0  0              0 V3000
M  V30 BEGIN CTAB
M  V30 COUNTS 15 15 0 0 0
M  V30 BEGIN ATOM
M  V30 1 N 0.7731 1.3919 0.0 0
M  V30 2 N -0.5497 1.3696 0.0113 0
M  V30 3 C 1.1979 0.1153 -0.082 0
M  V30 4 C -0.9751 0.0951 -0.0573 0
M  V30 5 C 0.1169 -0.7459 -0.098 0
M  V30 6 C 2.6334 -0.2884 -0.0419 0
M  V30 7 C -2.4057 -0.3238 0.025 0
M  V30 8 H -1.1505 2.2207 0.0831 0
M  V30 9 H 0.1258 -1.828 -0.1149 0
M  V30 10 H 2.7883 -1.2051 -0.649 0
M  V30 11 H 2.9318 -0.4896 1.0078 0
M  V30 12 H 3.2675 0.5249 -0.4524 0
M  V30 13 H -2.5553 -1.2801 -0.5189 0
M  V30 14 H -2.6905 -0.4593 1.0889 0
M  V30 15 H -3.0547 0.4527 -0.4311 0
M  V30 END ATOM
M  V30 BEGIN BOND
M  V30 1 1 1 2
M  V30 2 2 1 3
M  V30 3 1 2 4
M  V30 4 1 3 5
M  V30 5 1 3 6
M  V30 6 1 4 7
M  V30 7 2 4 5
M  V30 8 1 2 8
M  V30 9 1 5 9
M  V30 10 1 6 10
M  V30 11 1 6 11
M  V30 12 1 6 12
M  V30 13 1 7 13
M  V30 14 1 7 14
M  V30 15 1 7 15
M  V30 END BOND
M  V30 END CTAB
M  END
>  <Structure No>
2071

>  <LogS>
-0.520474498

>  <MMFF94 Energy>
7.4138

$$$$
Compound 2072
Actelion Java MolfileCreator 2.0

  0  0  0  0  0  0              0 V3000
M  V30 BEGIN CTAB
M  V30 COUNTS 47 50 0 0 0
M  V30 BEGIN ATOM
M  V30 1 O -6.1793 -0.5679 0.9737 0
M  V30 2 C -4.9783 -0.2573 0.7554 0
M  V30 3 C -3.9064 -1.2088 1.0891 0
M  V30 4 C -4.6451 1.1015 0.2203 0
M  V30 5 C -2.6128 -0.9283 0.8536 0
M  V30 6 C -3.3381 1.0497 -0.5717 0
M  V30 7 C -2.1971 0.4249 0.2658 0 CFG=2
M  V30 8 C -1.5751 -1.9154 1.3434 0
M  V30 9 C -0.8699 0.3843 -0.5767 0 CFG=2
M  V30 10 C -0.1463 -1.438 1.0763 0
M  V30 11 C -0.0522 -0.931 -0.3698 0 CFG=2
M  V30 12 C -0.0471 1.6978 -0.3499 0
M  V30 13 C 1.3581 -0.7763 -0.971 0 CFG=1
M  V30 14 C 1.3787 1.6932 -0.9581 0
M  V30 15 C 2.1692 0.4435 -0.5093 0 CFG=2
M  V30 16 C 2.3331 -1.9528 -1.0181 0
M  V30 17 C 3.4312 0.1589 -1.2702 0
M  V30 18 C 2.5092 0.4693 1.0222 0
M  V30 19 C 3.6259 -1.3041 -1.5411 0
M  V30 20 O 4.2206 1.0186 -1.6313 0
M  V30 21 C 3.6603 1.4103 1.4004 0
M  V30 22 H -4.1814 -2.1541 1.5436 0
M  V30 23 H -4.543 1.8111 1.0696 0
M  V30 24 H -5.4628 1.4593 -0.4422 0
M  V30 25 H -3.5013 0.4492 -1.4946 0
M  V30 26 H -3.0624 2.0824 -0.877 0
M  V30 27 H -2.044 1.0834 1.1497 0
M  V30 28 H -1.7337 -2.8889 0.829 0
M  V30 29 H -1.7018 -2.081 2.4359 0
M  V30 30 H -1.1377 0.386 -1.6586 0
M  V30 31 H 0.0809 -0.6391 1.8049 0
M  V30 32 H 0.5506 -2.2843 1.2475 0
M  V30 33 H -0.5399 -1.7146 -0.998 0
M  V30 34 H 0.0191 1.9292 0.7322 0
M  V30 35 H -0.6053 2.5459 -0.8021 0
M  V30 36 H 1.13 -0.6131 -2.0578 0
M  V30 37 H 1.2957 1.7183 -2.0676 0
M  V30 38 H 1.9091 2.6207 -0.6579 0
M  V30 39 H 2.5001 -2.3828 -0.0087 0
M  V30 40 H 1.9749 -2.7516 -1.7036 0
M  V30 41 H 2.7776 -0.5473 1.378 0
M  V30 42 H 1.6453 0.7979 1.6216 0
M  V30 43 H 3.7302 -1.4715 -2.6348 0
M  V30 44 H 4.5178 -1.6906 -1.0033 0
M  V30 45 H 3.7507 1.4542 2.5066 0
M  V30 46 H 3.4762 2.4383 1.0278 0
M  V30 47 H 4.625 1.036 0.9994 0
M  V30 END ATOM
M  V30 BEGIN BOND
M  V30 1 2 1 2
M  V30 2 1 2 3
M  V30 3 1 2 4
M  V30 4 2 3 5
M  V30 5 1 4 6
M  V30 6 1 5 7
M  V30 7 1 5 8
M  V30 8 1 7 9
M  V30 9 1 8 10
M  V30 10 1 9 11
M  V30 11 1 9 12
M  V30 12 1 11 13
M  V30 13 1 12 14
M  V30 14 1 13 15
M  V30 15 1 13 16
M  V30 16 1 15 17
M  V30 17 1 15 18
M  V30 18 1 16 19
M  V30 19 2 17 20
M  V30 20 1 18 21
M  V30 21 1 6 7
M  V30 22 1 10 11
M  V30 23 1 14 15
M  V30 24 1 17 19
M  V30 25 1 3 22
M  V30 26 1 4 23
M  V30 27 1 4 24
M  V30 28 1 6 25
M  V30 29 1 6 26
M  V30 30 1 7 27
M  V30 31 1 8 28
M  V30 32 1 8 29
M  V30 33 1 9 30
M  V30 34 1 10 31
M  V30 35 1 10 32
M  V30 36 1 11 33
M  V30 37 1 12 34
M  V30 38 1 12 35
M  V30 39 1 13 36
M  V30 40 1 14 37
M  V30 41 1 14 38
M  V30 42 1 16 39
M  V30 43 1 16 40
M  V30 44 1 18 41
M  V30 45 1 18 42
M  V30 46 1 19 43
M  V30 47 1 19 44
M  V30 48 1 21 45
M  V30 49 1 21 46
M  V30 50 1 21 47
M  V30 END BOND
M  V30 BEGIN COLLECTION
M  V30 MDLV30/STEABS ATOMS=(5 7 9 11 13 15)
M  V30 END COLLECTION
M  V30 END CTAB
M  END
>  <Structure No>
2072

>  <LogS>
-3.732719889

>  <MMFF94 Energy>
68.777

$$$$
Compound 2073
Actelion Java MolfileCreator 2.0

  0  0  0  0  0  0              0 V3000
M  V30 BEGIN CTAB
M  V30 COUNTS 51 51 0 0 0
M  V30 BEGIN ATOM
M  V30 1 S 7.3144 1.604 -0.5612 0
M  V30 2 O 7.7165 2.2292 0.745 0
M  V30 3 O 6.9846 2.6974 -1.5382 0
M  V30 4 O 8.5873 0.6853 -1.1575 0 CHG=-1
M  V30 5 C 5.9086 0.5718 -0.3223 0
M  V30 6 C 4.989 0.3816 -1.3622 0
M  V30 7 C 5.713 -0.0804 0.9022 0
M  V30 8 C 3.877 -0.4448 -1.1763 0
M  V30 9 C 4.6012 -0.9069 1.0898 0
M  V30 10 C 3.6763 -1.0973 0.0509 0
M  V30 11 C 2.4652 -1.9697 0.2642 0
M  V30 12 C 1.3799 -1.2609 1.0879 0
M  V30 13 C 0.731 -0.0977 0.3184 0
M  V30 14 C -0.3063 0.6698 1.158 0
M  V30 15 C -1.5213 -0.1609 1.6207 0
M  V30 16 C -2.3238 -0.8647 0.4936 0 CFG=2
M  V30 17 C -2.8041 0.1066 -0.6216 0
M  V30 18 C -3.474 -1.6898 1.1239 0
M  V30 19 C -3.7821 1.1949 -0.1458 0
M  V30 20 C -4.2439 -2.537 0.1097 0
M  V30 21 C -4.1836 2.1118 -1.3071 0
M  V30 22 C -5.1553 3.1944 -0.8455 0
M  V30 23 H 5.1311 0.8727 -2.3163 0
M  V30 24 H 6.4195 0.0499 1.712 0
M  V30 25 H 3.1708 -0.5725 -1.9873 0
M  V30 26 H 4.4601 -1.3986 2.0445 0
M  V30 27 H 2.7773 -2.8907 0.8033 0
M  V30 28 H 2.0411 -2.3 -0.7094 0
M  V30 29 H 1.8134 -0.8902 2.0425 0
M  V30 30 H 0.6038 -2.0153 1.3359 0
M  V30 31 H 0.2722 -0.4709 -0.6207 0
M  V30 32 H 1.5192 0.6286 0.027 0
M  V30 33 H -0.6579 1.5504 0.5798 0
M  V30 34 H 0.1999 1.0773 2.0602 0
M  V30 35 H -1.1688 -0.9235 2.3479 0
M  V30 36 H -2.198 0.5066 2.1959 0
M  V30 37 H -1.6427 -1.5994 0.0117 0
M  V30 38 H -1.9229 0.5908 -1.0917 0
M  V30 39 H -3.2801 -0.4788 -1.4363 0
M  V30 40 H -4.1828 -1.0291 1.6666 0
M  V30 41 H -3.0414 -2.3854 1.8765 0
M  V30 42 H -4.6983 0.724 0.2684 0
M  V30 43 H -3.3064 1.8111 0.6458 0
M  V30 44 H -4.8742 -1.8952 -0.5401 0
M  V30 45 H -3.5436 -3.1301 -0.5155 0
M  V30 46 H -4.9157 -3.2379 0.649 0
M  V30 47 H -3.2783 2.5992 -1.7307 0
M  V30 48 H -4.6683 1.5123 -2.1083 0
M  V30 49 H -6.0817 2.7343 -0.4404 0
M  V30 50 H -5.4272 3.8412 -1.706 0
M  V30 51 H -4.6856 3.8256 -0.0612 0
M  V30 END ATOM
M  V30 BEGIN BOND
M  V30 1 2 1 2
M  V30 2 2 1 3
M  V30 3 1 1 4
M  V30 4 1 1 5
M  V30 5 2 5 6
M  V30 6 1 5 7
M  V30 7 1 6 8
M  V30 8 2 7 9
M  V30 9 2 8 10
M  V30 10 1 10 11
M  V30 11 1 11 12
M  V30 12 1 12 13
M  V30 13 1 13 14
M  V30 14 1 14 15
M  V30 15 1 15 16
M  V30 16 1 16 17
M  V30 17 1 16 18
M  V30 18 1 17 19
M  V30 19 1 18 20
M  V30 20 1 19 21
M  V30 21 1 21 22
M  V30 22 1 9 10
M  V30 23 1 6 23
M  V30 24 1 7 24
M  V30 25 1 8 25
M  V30 26 1 9 26
M  V30 27 1 11 27
M  V30 28 1 11 28
M  V30 29 1 12 29
M  V30 30 1 12 30
M  V30 31 1 13 31
M  V30 32 1 13 32
M  V30 33 1 14 33
M  V30 34 1 14 34
M  V30 35 1 15 35
M  V30 36 1 15 36
M  V30 37 1 16 37
M  V30 38 1 17 38
M  V30 39 1 17 39
M  V30 40 1 18 40
M  V30 41 1 18 41
M  V30 42 1 19 42
M  V30 43 1 19 43
M  V30 44 1 20 44
M  V30 45 1 20 45
M  V30 46 1 20 46
M  V30 47 1 21 47
M  V30 48 1 21 48
M  V30 49 1 22 49
M  V30 50 1 22 50
M  V30 51 1 22 51
M  V30 END BOND
M  V30 BEGIN COLLECTION
M  V30 MDLV30/STEABS ATOMS=(1 16)
M  V30 END COLLECTION
M  V30 END CTAB
M  END
>  <Structure No>
2073

>  <LogS>
-0.096905651

>  <MMFF94 Energy>
55.371

$$$$
Compound 2074
Actelion Java MolfileCreator 2.0

  0  0  0  0  0  0              0 V3000
M  V30 BEGIN CTAB
M  V30 COUNTS 118 123 0 0 0
M  V30 BEGIN ATOM
M  V30 1 S -1.5196 -1.6886 -1.0129 0
M  V30 2 O -0.4776 -1.4803 -2.0723 0
M  V30 3 O -2.3971 -2.8388 -1.4155 0
M  V30 4 O -0.7777 -2.0616 0.4486 0 CHG=-1
M  V30 5 C -2.4805 -0.2098 -0.8261 0
M  V30 6 C -1.9162 0.9875 -0.3195 0
M  V30 7 C -3.8448 -0.2427 -1.1747 0
M  V30 8 C -2.7249 2.135 -0.219 0
M  V30 9 C -0.4822 1.0647 0.0524 0
M  V30 10 C -4.6423 0.9006 -1.0439 0
M  V30 11 C -4.0678 2.09 -0.5866 0
M  V30 12 C -0.0473 1.8038 1.0805 0
M  V30 13 N -6.0336 0.8813 -1.3926 0
M  V30 14 C 1.3921 1.9389 1.412 0
M  V30 15 C -6.9695 -0.0367 -0.8115 0
M  V30 16 C 1.929 3.1693 1.8599 0
M  V30 17 C 2.2457 0.826 1.2902 0
M  V30 18 N -6.5515 -1.1723 -0.1943 0
M  V30 19 N -8.2913 0.2631 -0.8281 0
M  V30 20 S 0.9103 4.5967 2.115 0
M  V30 21 C 3.3147 3.279 2.078 0
M  V30 22 C 3.611 0.9434 1.5432 0
M  V30 23 C -7.4441 -1.9983 0.4091 0
M  V30 24 C -9.1925 -0.5463 -0.2165 0
M  V30 25 O 0.214 4.9556 0.8336 0
M  V30 26 O 1.7436 5.762 2.5606 0
M  V30 27 O -0.2231 4.2692 3.3135 0 CHG=-1
M  V30 28 C 4.1702 2.1866 1.8799 0
M  V30 29 N -8.7653 -1.6767 0.4009 0
M  V30 30 N -6.9923 -3.2105 1.0433 0
M  V30 31 N -10.5919 -0.2341 -0.2522 0
M  V30 32 N 5.5896 2.3592 2.0607 0
M  V30 33 C -7.7565 -3.7863 2.1618 0
M  V30 34 C -5.8625 -3.9603 0.4734 0
M  V30 35 C -11.0934 0.9664 -0.862 0
M  V30 36 C 6.5971 1.649 1.3213 0
M  V30 37 C -7.6529 -2.901 3.4015 0
M  V30 38 C -6.3512 -4.9176 -0.6143 0
M  V30 39 C -12.0655 0.9121 -1.8814 0
M  V30 40 C -10.5772 2.2108 -0.464 0
M  V30 41 N 7.9083 1.8222 1.6333 0
M  V30 42 N 6.2573 0.8059 0.3126 0
M  V30 43 O -6.3122 -2.5911 3.6749 0
M  V30 44 O -6.8956 -4.1939 -1.6849 0
M  V30 45 S -12.7654 -0.6237 -2.403 0
M  V30 46 C -12.4786 2.1001 -2.5009 0
M  V30 47 C -10.99 3.3889 -1.0932 0
M  V30 48 C 8.8658 1.1248 0.967 0
M  V30 49 C 7.2073 0.108 -0.3578 0
M  V30 50 O -13.5933 -1.2035 -1.2914 0
M  V30 51 O -11.6629 -1.5807 -2.7622 0
M  V30 52 O -13.7417 -0.3939 -3.7527 0 CHG=-1
M  V30 53 C -11.9384 3.3287 -2.1165 0
M  V30 54 S -10.29 4.9281 -0.6021 0
M  V30 55 N 8.5107 0.255 -0.0107 0
M  V30 56 N 10.2484 1.3057 1.2904 0
M  V30 57 N 6.8179 -0.8216 -1.3767 0
M  V30 58 O -10.7703 6.0335 -1.4994 0
M  V30 59 O -8.7915 4.8475 -0.6893 0
M  V30 60 O -10.7443 5.2678 0.9784 0 CHG=-1
M  V30 61 C 10.8432 2.6472 1.2577 0
M  V30 62 C 11.0349 0.1612 1.7603 0
M  V30 63 C 7.7358 -1.7228 -2.0144 0
M  V30 64 C 10.9558 3.1412 -0.1826 0
M  V30 65 C 10.9948 0.0943 3.2867 0
M  V30 66 C 7.4434 -3.1016 -2.1005 0
M  V30 67 C 8.926 -1.2321 -2.5746 0
M  V30 68 O 11.6471 2.2032 -0.9663 0
M  V30 69 O 11.7638 -0.9901 3.7355 0
M  V30 70 S 5.9603 -3.7707 -1.405 0
M  V30 71 C 8.347 -3.9638 -2.741 0
M  V30 72 C 9.8317 -2.1018 -3.1965 0
M  V30 73 O 4.7852 -3.3567 -2.2456 0
M  V30 74 O 5.7857 -3.2599 -0.004 0
M  V30 75 O 6.0409 -5.4495 -1.361 0 CHG=-1
M  V30 76 C 9.5342 -3.4671 -3.2834 0
M  V30 77 S 11.3394 -1.4905 -3.8693 0
M  V30 78 O 11.2894 0.0085 -3.9898 0
M  V30 79 O 11.5645 -2.0798 -5.2337 0
M  V30 80 O 12.6067 -1.9196 -2.8591 0 CHG=-1
M  V30 81 H -4.2838 -1.1516 -1.573 0
M  V30 82 H -2.3171 3.0769 0.1118 0
M  V30 83 H 0.2321 0.522 -0.5492 0
M  V30 84 H -4.6737 2.9828 -0.502 0
M  V30 85 H -0.7609 2.3516 1.677 0
M  V30 86 H -6.4266 1.7395 -1.8426 0
M  V30 87 H 1.85 -0.1441 1.0211 0
M  V30 88 H 3.7438 4.2257 2.3797 0
M  V30 89 H 4.2236 0.0574 1.4814 0
M  V30 90 H -11.2689 -0.9697 0.0531 0
M  V30 91 H 5.9128 3.122 2.7008 0
M  V30 92 H -8.8215 -3.8947 1.8725 0
M  V30 93 H -7.3817 -4.8015 2.4151 0
M  V30 94 H -5.0994 -3.2709 0.0551 0
M  V30 95 H -5.3531 -4.5463 1.2713 0
M  V30 96 H -8.1002 -3.4345 4.2725 0
M  V30 97 H -8.2304 -1.9601 3.2332 0
M  V30 98 H -5.4912 -5.528 -0.9771 0
M  V30 99 H -7.1221 -5.6036 -0.1863 0
M  V30 100 H -9.8397 2.2574 0.3271 0
M  V30 101 H -6.3128 -2.0539 4.5096 0
M  V30 102 H -7.2432 -4.8691 -2.3256 0
M  V30 103 H -13.2163 2.0823 -3.2918 0
M  V30 104 H -12.2699 4.231 -2.618 0
M  V30 105 H 5.7965 -0.9399 -1.555 0
M  V30 106 H 11.8576 2.6394 1.7191 0
M  V30 107 H 10.2161 3.3529 1.8469 0
M  V30 108 H 12.0896 0.2582 1.419 0
M  V30 109 H 10.6332 -0.7869 1.3388 0
M  V30 110 H 11.499 4.1107 -0.1988 0
M  V30 111 H 9.9292 3.3031 -0.5914 0
M  V30 112 H 11.4032 1.0372 3.7107 0
M  V30 113 H 9.9427 -0.0267 3.6269 0
M  V30 114 H 9.1362 -0.1708 -2.5379 0
M  V30 115 H 11.5236 2.4928 -1.9084 0
M  V30 116 H 11.7256 -0.9568 4.7289 0
M  V30 117 H 8.1322 -5.0226 -2.8288 0
M  V30 118 H 10.2237 -4.1486 -3.7652 0
M  V30 END ATOM
M  V30 BEGIN BOND
M  V30 1 2 1 2
M  V30 2 2 1 3
M  V30 3 1 1 4
M  V30 4 1 1 5
M  V30 5 2 5 6
M  V30 6 1 5 7
M  V30 7 1 6 8
M  V30 8 1 6 9
M  V30 9 2 7 10
M  V30 10 2 8 11
M  V30 11 2 9 12
M  V30 12 1 10 13
M  V30 13 1 12 14
M  V30 14 1 13 15
M  V30 15 2 14 16
M  V30 16 1 14 17
M  V30 17 2 15 18
M  V30 18 1 15 19
M  V30 19 1 16 20
M  V30 20 1 16 21
M  V30 21 2 17 22
M  V30 22 1 18 23
M  V30 23 2 19 24
M  V30 24 2 20 25
M  V30 25 2 20 26
M  V30 26 1 20 27
M  V30 27 2 21 28
M  V30 28 2 23 29
M  V30 29 1 23 30
M  V30 30 1 24 31
M  V30 31 1 28 32
M  V30 32 1 30 33
M  V30 33 1 30 34
M  V30 34 1 31 35
M  V30 35 1 32 36
M  V30 36 1 33 37
M  V30 37 1 34 38
M  V30 38 2 35 39
M  V30 39 1 35 40
M  V30 40 2 36 41
M  V30 41 1 36 42
M  V30 42 1 37 43
M  V30 43 1 38 44
M  V30 44 1 39 45
M  V30 45 1 39 46
M  V30 46 2 40 47
M  V30 47 1 41 48
M  V30 48 2 42 49
M  V30 49 2 45 50
M  V30 50 2 45 51
M  V30 51 1 45 52
M  V30 52 2 46 53
M  V30 53 1 47 54
M  V30 54 2 48 55
M  V30 55 1 48 56
M  V30 56 1 49 57
M  V30 57 2 54 58
M  V30 58 2 54 59
M  V30 59 1 54 60
M  V30 60 1 56 61
M  V30 61 1 56 62
M  V30 62 1 57 63
M  V30 63 1 61 64
M  V30 64 1 62 65
M  V30 65 2 63 66
M  V30 66 1 63 67
M  V30 67 1 64 68
M  V30 68 1 65 69
M  V30 69 1 66 70
M  V30 70 1 66 71
M  V30 71 2 67 72
M  V30 72 2 70 73
M  V30 73 2 70 74
M  V30 74 1 70 75
M  V30 75 2 71 76
M  V30 76 1 72 77
M  V30 77 2 77 78
M  V30 78 2 77 79
M  V30 79 1 77 80
M  V30 80 1 10 11
M  V30 81 1 22 28
M  V30 82 1 24 29
M  V30 83 1 47 53
M  V30 84 1 49 55
M  V30 85 1 72 76
M  V30 86 1 7 81
M  V30 87 1 8 82
M  V30 88 1 9 83
M  V30 89 1 11 84
M  V30 90 1 12 85
M  V30 91 1 13 86
M  V30 92 1 17 87
M  V30 93 1 21 88
M  V30 94 1 22 89
M  V30 95 1 31 90
M  V30 96 1 32 91
M  V30 97 1 33 92
M  V30 98 1 33 93
M  V30 99 1 34 94
M  V30 100 1 34 95
M  V30 101 1 37 96
M  V30 102 1 37 97
M  V30 103 1 38 98
M  V30 104 1 38 99
M  V30 105 1 40 100
M  V30 106 1 43 101
M  V30 107 1 44 102
M  V30 108 1 46 103
M  V30 109 1 53 104
M  V30 110 1 57 105
M  V30 111 1 61 106
M  V30 112 1 61 107
M  V30 113 1 62 108
M  V30 114 1 62 109
M  V30 115 1 64 110
M  V30 116 1 64 111
M  V30 117 1 65 112
M  V30 118 1 65 113
M  V30 119 1 67 114
M  V30 120 1 68 115
M  V30 121 1 69 116
M  V30 122 1 71 117
M  V30 123 1 76 118
M  V30 END BOND
M  V30 END CTAB
M  END
>  <Structure No>
2074

>  <LogS>
-0.6924056

>  <MMFF94 Energy>
170.4

$$$$
Compound 2075
Actelion Java MolfileCreator 2.0

  0  0  0  0  0  0              0 V3000
M  V30 BEGIN CTAB
M  V30 COUNTS 5 4 0 0 0
M  V30 BEGIN ATOM
M  V30 1 O -0.5524 1.2631 -0.0789 0
M  V30 2 C -0.4452 0.0111 -0.0033 0
M  V30 3 O 0.8103 -0.5856 -6.0E-4 0
M  V30 4 O -1.5849 -0.7767 0.0776 0 CHG=-1
M  V30 5 H 1.652 -0.0248 -0.0591 0
M  V30 END ATOM
M  V30 BEGIN BOND
M  V30 1 2 1 2
M  V30 2 1 2 3
M  V30 3 1 2 4
M  V30 4 1 3 5
M  V30 END BOND
M  V30 END CTAB
M  END
>  <Structure No>
2075

>  <LogS>
0.930068755

>  <MMFF94 Energy>
-89.96

$$$$
Compound 2076
Actelion Java MolfileCreator 2.0

  0  0  0  0  0  0              0 V3000
M  V30 BEGIN CTAB
M  V30 COUNTS 16 15 0 0 0
M  V30 BEGIN ATOM
M  V30 1 O 2.1947 -0.6266 -1.0969 0
M  V30 2 C 1.3441 0.2775 -0.8786 0
M  V30 3 O 1.6025 1.5664 -1.3338 0 CHG=-1
M  V30 4 C 0.1008 -0.0224 -0.0634 0
M  V30 5 C -0.4914 -1.3809 -0.4898 0
M  V30 6 C -0.9625 1.0734 -0.2809 0
M  V30 7 C 0.4829 -0.0721 1.4262 0
M  V30 8 H -1.4177 -1.6023 0.0833 0
M  V30 9 H -0.7433 -1.3729 -1.5724 0
M  V30 10 H 0.2306 -2.2051 -0.3039 0
M  V30 11 H -1.8856 0.8443 0.2945 0
M  V30 12 H -0.5861 2.0633 0.057 0
M  V30 13 H -1.2318 1.1476 -1.3569 0
M  V30 14 H -0.4095 -0.2872 2.0529 0
M  V30 15 H 1.238 -0.8666 1.6115 0
M  V30 16 H 0.9128 0.9 1.7518 0
M  V30 END ATOM
M  V30 BEGIN BOND
M  V30 1 2 1 2
M  V30 2 1 2 3
M  V30 3 1 2 4
M  V30 4 1 4 5
M  V30 5 1 4 6
M  V30 6 1 4 7
M  V30 7 1 5 8
M  V30 8 1 5 9
M  V30 9 1 5 10
M  V30 10 1 6 11
M  V30 11 1 6 12
M  V30 12 1 6 13
M  V30 13 1 7 14
M  V30 14 1 7 15
M  V30 15 1 7 16
M  V30 END BOND
M  V30 END CTAB
M  END
>  <Structure No>
2076

>  <LogS>
-0.563561886

>  <MMFF94 Energy>
18.42

$$$$
Compound 2077
Actelion Java MolfileCreator 2.0

  0  0  0  0  0  0              0 V3000
M  V30 BEGIN CTAB
M  V30 COUNTS 38 38 0 0 0
M  V30 BEGIN ATOM
M  V30 1 O -2.7459 -0.8623 1.8038 0
M  V30 2 C -1.9667 -0.6602 0.6528 0 CFG=2
M  V30 3 C -1.6123 0.8236 0.5574 0
M  V30 4 C -0.6973 -1.5144 0.7376 0
M  V30 5 C -0.6179 1.1609 -0.5901 0
M  V30 6 C 0.3238 -1.2392 -0.4035 0
M  V30 7 N 0.6105 0.2526 -0.5736 0 CHG=1 CFG=1
M  V30 8 C -0.2531 2.6738 -0.4633 0
M  V30 9 C -1.3732 1.078 -1.9576 0
M  V30 10 C -0.2166 -1.8758 -1.7291 0
M  V30 11 C 1.6091 -2.0684 -0.0896 0
M  V30 12 C 1.7906 0.7772 0.2063 0
M  V30 13 C 1.6567 0.8453 1.741 0
M  V30 14 O 2.8519 1.3462 2.274 0
M  V30 15 H -3.1624 -1.7599 1.7174 0
M  V30 16 H -2.5712 -0.9514 -0.2321 0
M  V30 17 H -1.2144 1.1503 1.5365 0
M  V30 18 H -2.5551 1.3978 0.4132 0
M  V30 19 H -0.9958 -2.5865 0.7157 0
M  V30 20 H -0.2376 -1.3562 1.731 0
M  V30 21 H 0.9998 0.3309 -1.5426 0
M  V30 22 H 0.1966 2.9347 0.5121 0
M  V30 23 H 0.4415 2.9781 -1.276 0
M  V30 24 H -1.1603 3.3126 -0.5419 0
M  V30 25 H -2.0837 1.9246 -2.0804 0
M  V30 26 H -0.667 1.1199 -2.8137 0
M  V30 27 H -2.0115 0.1908 -2.0638 0
M  V30 28 H -0.0763 -2.9786 -1.7423 0
M  V30 29 H -1.3021 -1.7627 -1.8669 0
M  V30 30 H 0.309 -1.4759 -2.6216 0
M  V30 31 H 2.3669 -1.9323 -0.8913 0
M  V30 32 H 2.0653 -1.8156 0.885 0
M  V30 33 H 1.3794 -3.1546 -0.0253 0
M  V30 34 H 2.0847 1.7838 -0.1586 0
M  V30 35 H 2.707 0.1988 -0.035 0
M  V30 36 H 0.8368 1.5154 2.0496 0
M  V30 37 H 1.4765 -0.1501 2.1798 0
M  V30 38 H 2.7293 1.3759 3.259 0
M  V30 END ATOM
M  V30 BEGIN BOND
M  V30 1 1 1 2
M  V30 2 1 2 3
M  V30 3 1 2 4
M  V30 4 1 3 5
M  V30 5 1 4 6
M  V30 6 1 5 7
M  V30 7 1 5 8
M  V30 8 1 5 9
M  V30 9 1 6 10
M  V30 10 1 6 11
M  V30 11 1 7 12
M  V30 12 1 12 13
M  V30 13 1 13 14
M  V30 14 1 6 7
M  V30 15 1 1 15
M  V30 16 1 2 16
M  V30 17 1 3 17
M  V30 18 1 3 18
M  V30 19 1 4 19
M  V30 20 1 4 20
M  V30 21 1 7 21
M  V30 22 1 8 22
M  V30 23 1 8 23
M  V30 24 1 8 24
M  V30 25 1 9 25
M  V30 26 1 9 26
M  V30 27 1 9 27
M  V30 28 1 10 28
M  V30 29 1 10 29
M  V30 30 1 10 30
M  V30 31 1 11 31
M  V30 32 1 11 32
M  V30 33 1 11 33
M  V30 34 1 12 34
M  V30 35 1 12 35
M  V30 36 1 13 36
M  V30 37 1 13 37
M  V30 38 1 14 38
M  V30 END BOND
M  V30 BEGIN COLLECTION
M  V30 MDLV30/STEABS ATOMS=(2 2 7)
M  V30 END COLLECTION
M  V30 END CTAB
M  END
>  <Structure No>
2077

>  <LogS>
-0.859820553

>  <MMFF94 Energy>
63.981

$$$$
Compound 2078
Actelion Java MolfileCreator 2.0

  0  0  0  0  0  0              0 V3000
M  V30 BEGIN CTAB
M  V30 COUNTS 22 21 0 0 0
M  V30 BEGIN ATOM
M  V30 1 N -0.0763 0.0 -0.0763 0 CHG=1
M  V30 2 C -1.2833 -0.4461 -0.8189 0
M  V30 3 C 1.0167 -1.0 -0.224 0
M  V30 4 C 0.3666 1.3307 -0.5755 0
M  V30 5 C -1.9746 -1.5447 -0.1211 0
M  V30 6 C 2.0195 -0.9394 0.9346 0
M  V30 7 C -0.3991 2.4845 0.0831 0
M  V30 8 C -2.5392 -2.4434 0.4502 0
M  V30 9 H -0.3248 0.0824 0.9398 0
M  V30 10 H -1.0147 -0.7811 -1.8458 0
M  V30 11 H -2.0187 0.3787 -0.9222 0
M  V30 12 H 0.6122 -2.0368 -0.2359 0
M  V30 13 H 1.5558 -0.8597 -1.1886 0
M  V30 14 H 1.4433 1.5034 -0.3615 0
M  V30 15 H 0.2544 1.3992 -1.6817 0
M  V30 16 H 2.8013 -1.714 0.7869 0
M  V30 17 H 1.505 -1.1405 1.8982 0
M  V30 18 H 2.5175 0.0494 0.989 0
M  V30 19 H -0.011 3.4517 -0.3006 0
M  V30 20 H -1.4828 2.4327 -0.1444 0
M  V30 21 H -0.2556 2.4623 1.1842 0
M  V30 22 H -3.0344 -3.2325 0.9523 0
M  V30 END ATOM
M  V30 BEGIN BOND
M  V30 1 1 1 2
M  V30 2 1 1 3
M  V30 3 1 1 4
M  V30 4 1 2 5
M  V30 5 1 3 6
M  V30 6 1 4 7
M  V30 7 3 5 8
M  V30 8 1 1 9
M  V30 9 1 2 10
M  V30 10 1 2 11
M  V30 11 1 3 12
M  V30 12 1 3 13
M  V30 13 1 4 14
M  V30 14 1 4 15
M  V30 15 1 6 16
M  V30 16 1 6 17
M  V30 17 1 6 18
M  V30 18 1 7 19
M  V30 19 1 7 20
M  V30 20 1 7 21
M  V30 21 1 8 22
M  V30 END BOND
M  V30 END CTAB
M  END
>  <Structure No>
2078

>  <LogS>
-0.602013123

>  <MMFF94 Energy>
-9.8414

$$$$
Compound 2079
Actelion Java MolfileCreator 2.0

  0  0  0  0  0  0              0 V3000
M  V30 BEGIN CTAB
M  V30 COUNTS 18 17 0 0 0
M  V30 BEGIN ATOM
M  V30 1 O -0.5774 2.8897 0.2474 0
M  V30 2 C -0.0483 1.9099 -0.3419 0
M  V30 3 O 0.3123 2.0436 -1.6788 0 CHG=-1
M  V30 4 C 0.1185 0.5825 0.3772 0
M  V30 5 O 0.4316 0.8323 1.7307 0
M  V30 6 C 1.3121 -0.195 -0.2399 0
M  V30 7 C -1.2057 -0.2331 0.2917 0
M  V30 8 C 1.6218 -1.4656 0.4976 0
M  V30 9 C -1.6125 -0.5788 -1.1126 0
M  V30 10 O 2.3024 -1.434 1.5566 0
M  V30 11 O 1.1394 -2.6805 0.0278 0 CHG=-1
M  V30 12 O -2.26 0.248 -1.8071 0
M  V30 13 O -1.2628 -1.8076 -1.6579 0 CHG=-1
M  V30 14 H -0.3613 1.2376 2.1711 0
M  V30 15 H 2.2199 0.448 -0.218 0
M  V30 16 H 1.1169 -0.4377 -1.3066 0
M  V30 17 H -1.1086 -1.1708 0.8796 0
M  V30 18 H -2.0316 0.3461 0.761 0
M  V30 END ATOM
M  V30 BEGIN BOND
M  V30 1 2 1 2
M  V30 2 1 2 3
M  V30 3 1 2 4
M  V30 4 1 4 5
M  V30 5 1 4 6
M  V30 6 1 4 7
M  V30 7 1 6 8
M  V30 8 1 7 9
M  V30 9 2 8 10
M  V30 10 1 8 11
M  V30 11 2 9 12
M  V30 12 1 9 13
M  V30 13 1 5 14
M  V30 14 1 6 15
M  V30 15 1 6 16
M  V30 16 1 7 17
M  V30 17 1 7 18
M  V30 END BOND
M  V30 END CTAB
M  END
>  <Structure No>
2079

>  <LogS>
-0.954573972

>  <MMFF94 Energy>
234.11

$$$$
Compound 2080
Actelion Java MolfileCreator 2.0

  0  0  0  0  0  0              0 V3000
M  V30 BEGIN CTAB
M  V30 COUNTS 18 17 0 0 0
M  V30 BEGIN ATOM
M  V30 1 O -1.321 0.5777 2.1472 0
M  V30 2 C -0.4219 0.9932 1.368 0
M  V30 3 O 0.5063 1.9104 1.8482 0 CHG=-1
M  V30 4 C -0.4525 0.6359 -0.1056 0
M  V30 5 O -1.2386 1.6306 -0.7199 0
M  V30 6 C -1.1432 -0.7433 -0.3555 0
M  V30 7 C 0.9749 0.6968 -0.7348 0
M  V30 8 C -0.4857 -1.9231 0.3051 0
M  V30 9 C 1.9848 -0.2384 -0.1279 0
M  V30 10 O -0.4956 -2.0462 1.558 0
M  V30 11 O 0.1086 -2.9091 -0.4724 0 CHG=-1
M  V30 12 O 2.4709 -1.1731 -0.8173 0
M  V30 13 O 2.4177 -0.0611 1.1799 0 CHG=-1
M  V30 14 H -1.284 1.4384 -1.6937 0
M  V30 15 H -2.1991 -0.6958 -0.0101 0
M  V30 16 H -1.1835 -0.9359 -1.4498 0
M  V30 17 H 1.3716 1.7317 -0.6502 0
M  V30 18 H 0.9007 0.4822 -1.8239 0
M  V30 END ATOM
M  V30 BEGIN BOND
M  V30 1 2 1 2
M  V30 2 1 2 3
M  V30 3 1 2 4
M  V30 4 1 4 5
M  V30 5 1 4 6
M  V30 6 1 4 7
M  V30 7 1 6 8
M  V30 8 1 7 9
M  V30 9 2 8 10
M  V30 10 1 8 11
M  V30 11 2 9 12
M  V30 12 1 9 13
M  V30 13 1 5 14
M  V30 14 1 6 15
M  V30 15 1 6 16
M  V30 16 1 7 17
M  V30 17 1 7 18
M  V30 END BOND
M  V30 END CTAB
M  END
>  <Structure No>
2080

>  <LogS>
-1.3025955

>  <MMFF94 Energy>
234.34

$$$$
Compound 2081
Actelion Java MolfileCreator 2.0

  0  0  0  0  0  0              0 V3000
M  V30 BEGIN CTAB
M  V30 COUNTS 13 13 0 0 0
M  V30 BEGIN ATOM
M  V30 1 N 0.3808 1.0666 -0.3046 0 CHG=1
M  V30 2 C -0.3997 -0.0068 -0.0744 0
M  V30 3 C 1.6441 0.6213 -0.1778 0
M  V30 4 N 0.3205 -1.1089 0.21 0
M  V30 5 C -1.8922 0.0414 -0.0443 0
M  V30 6 C 1.6069 -0.7207 0.1396 0
M  V30 7 H 0.0751 2.0408 -0.5238 0
M  V30 8 H 2.5289 1.2324 -0.2973 0
M  V30 9 H -0.0383 -2.0606 0.4463 0
M  V30 10 H -2.2618 0.8123 -0.7528 0
M  V30 11 H -2.3104 -0.9442 -0.3373 0
M  V30 12 H -2.2328 0.2935 0.9812 0
M  V30 13 H 2.457 -1.3659 0.3172 0
M  V30 END ATOM
M  V30 BEGIN BOND
M  V30 1 2 1 2
M  V30 2 1 1 3
M  V30 3 1 2 4
M  V30 4 1 2 5
M  V30 5 2 3 6
M  V30 6 1 4 6
M  V30 7 1 1 7
M  V30 8 1 3 8
M  V30 9 1 4 9
M  V30 10 1 5 10
M  V30 11 1 5 11
M  V30 12 1 5 12
M  V30 13 1 6 13
M  V30 END BOND
M  V30 END CTAB
M  END
>  <Structure No>
2081

>  <LogS>
0.512136366

>  <MMFF94 Energy>
27.246

$$$$
Compound 2082
Actelion Java MolfileCreator 2.0

  0  0  0  0  0  0              0 V3000
M  V30 BEGIN CTAB
M  V30 COUNTS 17 17 0 0 0
M  V30 BEGIN ATOM
M  V30 1 O -0.7865 -1.2587 0.6292 0
M  V30 2 C -1.7817 -0.55 -0.0934 0
M  V30 3 C 0.4064 -1.3961 -0.1173 0
M  V30 4 O -1.3081 0.6241 -0.735 0
M  V30 5 C 1.3975 -0.3078 0.3078 0
M  V30 6 C -0.4927 1.3983 0.1225 0
M  V30 7 C 0.9802 1.0911 -0.1664 0
M  V30 8 H -2.2235 -1.2218 -0.8604 0
M  V30 9 H -2.6033 -0.2787 0.6038 0
M  V30 10 H 0.2497 -1.389 -1.2222 0
M  V30 11 H 0.8504 -2.3831 0.1305 0
M  V30 12 H 2.3993 -0.5431 -0.1117 0
M  V30 13 H 1.4881 -0.3096 1.4163 0
M  V30 14 H -0.6742 2.4687 -0.1106 0
M  V30 15 H -0.7265 1.2675 1.2059 0
M  V30 16 H 1.1636 1.18 -1.2597 0
M  V30 17 H 1.6168 1.8461 0.3438 0
M  V30 END ATOM
M  V30 BEGIN BOND
M  V30 1 1 1 2
M  V30 2 1 1 3
M  V30 3 1 2 4
M  V30 4 1 3 5
M  V30 5 1 4 6
M  V30 6 1 5 7
M  V30 7 1 6 7
M  V30 8 1 2 8
M  V30 9 1 2 9
M  V30 10 1 3 10
M  V30 11 1 3 11
M  V30 12 1 5 12
M  V30 13 1 5 13
M  V30 14 1 6 14
M  V30 15 1 6 15
M  V30 16 1 7 16
M  V30 17 1 7 17
M  V30 END BOND
M  V30 END CTAB
M  END
>  <Structure No>
2082

>  <LogS>
0.41078966

>  <MMFF94 Energy>
-5.001

$$$$
Compound 2083
Actelion Java MolfileCreator 2.0

  0  0  0  0  0  0              0 V3000
M  V30 BEGIN CTAB
M  V30 COUNTS 71 75 0 0 0
M  V30 BEGIN ATOM
M  V30 1 Cl 3.3261 1.5745 -3.2385 0
M  V30 2 C 4.9598 1.6082 -2.61 0
M  V30 3 N 5.4785 0.5046 -2.0174 0
M  V30 4 N 5.7043 2.7382 -2.7082 0
M  V30 5 C 6.7412 0.5269 -1.5138 0
M  V30 6 C 6.9697 2.763 -2.2175 0
M  V30 7 N 7.4879 1.6552 -1.6279 0
M  V30 8 N 7.307 -0.6377 -0.8976 0
M  V30 9 N 7.7493 3.9522 -2.3123 0
M  V30 10 C 6.5357 -1.7004 -0.3079 0
M  V30 11 C 5.2649 -1.4652 0.2409 0
M  V30 12 C 7.0913 -2.9811 -0.207 0
M  V30 13 C 4.5382 -2.4977 0.8553 0
M  V30 14 C 6.384 -4.0149 0.41 0
M  V30 15 N 3.2448 -2.2041 1.4037 0
M  V30 16 C 5.1067 -3.7883 0.9461 0
M  V30 17 N 2.3949 -1.3053 0.7404 0
M  V30 18 S 4.2383 -5.1295 1.7027 0
M  V30 19 C 1.4717 -0.5822 1.3083 0
M  V30 20 O 4.9833 -6.418 1.4971 0
M  V30 21 O 2.8732 -5.257 1.0869 0
M  V30 22 O 4.0923 -4.8436 3.352 0 CHG=-1
M  V30 23 C 0.4831 0.0717 0.4365 0
M  V30 24 C 1.3228 -0.4013 2.7865 0
M  V30 25 O 0.7947 0.3581 -0.7497 0
M  V30 26 C -0.8498 0.4141 0.9943 0
M  V30 27 S 2.6974 -0.4946 3.9055 0
M  V30 28 C 0.1586 0.0596 3.2737 0
M  V30 29 C -1.9751 0.7257 0.186 0
M  V30 30 C -0.9782 0.4383 2.3994 0
M  V30 31 O 2.5246 0.5151 5.0064 0
M  V30 32 O 3.9786 -0.1808 3.1853 0
M  V30 33 O 2.7869 -2.0264 4.588 0 CHG=-1
M  V30 34 N -1.9394 0.5569 -1.2396 0
M  V30 35 C -3.1724 1.1552 0.7984 0
M  V30 36 C -2.1723 0.8701 2.9865 0
M  V30 37 N -4.3293 1.4258 0.0044 0
M  V30 38 C -3.2599 1.2511 2.1972 0
M  V30 39 N -5.0283 0.4668 -0.4488 0
M  V30 40 S -4.76 1.7731 2.97 0
M  V30 41 C -6.2096 0.6772 -1.2338 0
M  V30 42 O -4.5242 2.0728 4.4238 0
M  V30 43 O -5.7884 0.6842 2.8504 0
M  V30 44 O -5.3241 3.1677 2.2214 0 CHG=-1
M  V30 45 C -6.9595 -0.4337 -1.6686 0
M  V30 46 C -6.6401 1.9767 -1.5626 0
M  V30 47 S -6.4411 -2.0751 -1.2759 0
M  V30 48 C -8.1267 -0.2343 -2.4194 0
M  V30 49 C -7.8114 2.1686 -2.306 0
M  V30 50 O -6.3717 -2.2344 0.2168 0
M  V30 51 O -5.087 -2.3292 -1.8742 0
M  V30 52 O -7.5298 -3.1982 -1.8925 0 CHG=-1
M  V30 53 C -8.5485 1.0589 -2.7368 0
M  V30 54 S -8.3472 3.7935 -2.7175 0
M  V30 55 O -7.8147 4.7805 -1.7171 0
M  V30 56 O -9.8484 3.8504 -2.6992 0
M  V30 57 O -7.7892 4.1951 -4.2493 0 CHG=-1
M  V30 58 H 8.3494 -0.7225 -0.8972 0
M  V30 59 H 7.3444 4.8159 -2.7391 0
M  V30 60 H 8.7216 3.9803 -1.9326 0
M  V30 61 H 4.8518 -0.466 0.2404 0
M  V30 62 H 8.0765 -3.1792 -0.6097 0
M  V30 63 H 6.8401 -4.9941 0.4686 0
M  V30 64 H 2.8617 -2.7749 2.1874 0
M  V30 65 H 0.0534 0.2134 4.3411 0
M  V30 66 H -1.335 -0.1654 -1.6866 0
M  V30 67 H -2.6254 1.0437 -1.8592 0
M  V30 68 H -2.2537 0.9085 4.0659 0
M  V30 69 H -6.0668 2.8375 -1.2412 0
M  V30 70 H -8.7146 -1.0779 -2.7607 0
M  V30 71 H -9.4497 1.195 -3.3211 0
M  V30 END ATOM
M  V30 BEGIN BOND
M  V30 1 1 1 2
M  V30 2 2 2 3
M  V30 3 1 2 4
M  V30 4 1 3 5
M  V30 5 2 4 6
M  V30 6 2 5 7
M  V30 7 1 5 8
M  V30 8 1 6 9
M  V30 9 1 8 10
M  V30 10 2 10 11
M  V30 11 1 10 12
M  V30 12 1 11 13
M  V30 13 2 12 14
M  V30 14 1 13 15
M  V30 15 2 13 16
M  V30 16 1 15 17
M  V30 17 1 16 18
M  V30 18 2 17 19
M  V30 19 2 18 20
M  V30 20 2 18 21
M  V30 21 1 18 22
M  V30 22 1 19 23
M  V30 23 1 19 24
M  V30 24 2 23 25
M  V30 25 1 23 26
M  V30 26 1 24 27
M  V30 27 2 24 28
M  V30 28 2 26 29
M  V30 29 1 26 30
M  V30 30 2 27 31
M  V30 31 2 27 32
M  V30 32 1 27 33
M  V30 33 1 29 34
M  V30 34 1 29 35
M  V30 35 2 30 36
M  V30 36 1 35 37
M  V30 37 2 35 38
M  V30 38 2 37 39
M  V30 39 1 38 40
M  V30 40 1 39 41
M  V30 41 2 40 42
M  V30 42 2 40 43
M  V30 43 1 40 44
M  V30 44 2 41 45
M  V30 45 1 41 46
M  V30 46 1 45 47
M  V30 47 1 45 48
M  V30 48 2 46 49
M  V30 49 2 47 50
M  V30 50 2 47 51
M  V30 51 1 47 52
M  V30 52 2 48 53
M  V30 53 1 49 54
M  V30 54 2 54 55
M  V30 55 2 54 56
M  V30 56 1 54 57
M  V30 57 1 6 7
M  V30 58 1 14 16
M  V30 59 1 28 30
M  V30 60 1 36 38
M  V30 61 1 49 53
M  V30 62 1 8 58
M  V30 63 1 9 59
M  V30 64 1 9 60
M  V30 65 1 11 61
M  V30 66 1 12 62
M  V30 67 1 14 63
M  V30 68 1 15 64
M  V30 69 1 28 65
M  V30 70 1 34 66
M  V30 71 1 34 67
M  V30 72 1 36 68
M  V30 73 1 46 69
M  V30 74 1 48 70
M  V30 75 1 53 71
M  V30 END BOND
M  V30 END CTAB
M  END
>  <Structure No>
2083

>  <LogS>
-0.590800584

>  <MMFF94 Energy>
316.04

$$$$
Compound 2084
Actelion Java MolfileCreator 2.0

  0  0  0  0  0  0              0 V3000
M  V30 BEGIN CTAB
M  V30 COUNTS 17 16 0 0 0
M  V30 BEGIN ATOM
M  V30 1 O 0.0 -0.4612 -2.0771 0
M  V30 2 C 0.7173 -0.7591 -1.085 0
M  V30 3 C 0.4135 -0.2608 0.2783 0
M  V30 4 C 1.908 -1.64 -1.2896 0
M  V30 5 C -0.6194 0.5382 0.6226 0
M  V30 6 C -0.7887 0.9571 2.0588 0
M  V30 7 C -1.6313 1.0431 -0.3709 0
M  V30 8 H 1.0972 -0.5795 1.0568 0
M  V30 9 H 1.8014 -2.5604 -0.6781 0
M  V30 10 H 2.0026 -1.9295 -2.358 0
M  V30 11 H 2.8287 -1.101 -0.9827 0
M  V30 12 H -0.7493 2.0645 2.1283 0
M  V30 13 H -1.7744 0.6082 2.4323 0
M  V30 14 H 6.0E-4 0.5394 2.72 0
M  V30 15 H -2.3912 1.682 0.1274 0
M  V30 16 H -2.1636 0.1898 -0.8411 0
M  V30 17 H -1.1301 1.658 -1.1476 0
M  V30 END ATOM
M  V30 BEGIN BOND
M  V30 1 2 1 2
M  V30 2 1 2 3
M  V30 3 1 2 4
M  V30 4 2 3 5
M  V30 5 1 5 6
M  V30 6 1 5 7
M  V30 7 1 3 8
M  V30 8 1 4 9
M  V30 9 1 4 10
M  V30 10 1 4 11
M  V30 11 1 6 12
M  V30 12 1 6 13
M  V30 13 1 6 14
M  V30 14 1 7 15
M  V30 15 1 7 16
M  V30 16 1 7 17
M  V30 END BOND
M  V30 END CTAB
M  END
>  <Structure No>
2084

>  <LogS>
-0.560826234

>  <MMFF94 Energy>
16.346

$$$$
Compound 2085
Actelion Java MolfileCreator 2.0

  0  0  0  0  0  0              0 V3000
M  V30 BEGIN CTAB
M  V30 COUNTS 39 41 0 0 0
M  V30 BEGIN ATOM
M  V30 1 Cl 0.0861 7.2578 -1.8109 0
M  V30 2 C -0.7438 5.7173 -1.9331 0
M  V30 3 C -0.188 4.5749 -1.3497 0
M  V30 4 C -1.9613 5.6325 -2.6108 0
M  V30 5 C -0.8442 3.3348 -1.4331 0
M  V30 6 C -2.6213 4.4067 -2.7109 0
M  V30 7 N -0.2377 2.1854 -0.8159 0
M  V30 8 C -2.0711 3.253 -2.1324 0
M  V30 9 N -0.9747 1.0145 -0.5644 0
M  V30 10 O -2.7378 2.0361 -2.2666 0
M  V30 11 C -0.4693 -0.1338 -0.2086 0
M  V30 12 C 0.9892 -0.4048 -0.1772 0
M  V30 13 C -1.3871 -1.2432 0.1435 0
M  V30 14 O 1.7711 0.2379 -0.9271 0
M  V30 15 C 1.4785 -1.5674 0.6041 0
M  V30 16 S -3.1253 -1.0717 -0.1367 0
M  V30 17 C -0.9036 -2.3799 0.6682 0
M  V30 18 C 2.8404 -1.7467 0.9604 0
M  V30 19 C 0.538 -2.561 0.9597 0
M  V30 20 O -3.8773 -2.2285 0.46 0
M  V30 21 O -3.3886 -1.026 -1.6151 0
M  V30 22 O -3.6715 0.3477 0.5768 0 CHG=-1
M  V30 23 O 3.8125 -0.7641 0.7599 0
M  V30 24 C 3.2452 -2.9381 1.5714 0
M  V30 25 C 0.9648 -3.7367 1.5922 0
M  V30 26 C 2.3156 -3.9318 1.891 0
M  V30 27 S 2.8425 -5.4232 2.6645 0
M  V30 28 O 1.7616 -5.935 3.5748 0
M  V30 29 O 4.079 -5.1686 3.4801 0
M  V30 30 O 3.1761 -6.5744 1.4883 0 CHG=-1
M  V30 31 H 0.7557 4.654 -0.8242 0
M  V30 32 H -2.3954 6.5148 -3.0636 0
M  V30 33 H -3.561 4.3522 -3.2457 0
M  V30 34 H 0.7076 2.3037 -0.3878 0
M  V30 35 H -3.6174 1.9617 -2.7644 0
M  V30 36 H -1.5828 -3.1862 0.9161 0
M  V30 37 H 3.5993 0.1982 0.5384 0
M  V30 38 H 4.2903 -3.0768 1.8184 0
M  V30 39 H 0.2442 -4.5042 1.8481 0
M  V30 END ATOM
M  V30 BEGIN BOND
M  V30 1 1 1 2
M  V30 2 2 2 3
M  V30 3 1 2 4
M  V30 4 1 3 5
M  V30 5 2 4 6
M  V30 6 1 5 7
M  V30 7 2 5 8
M  V30 8 1 7 9
M  V30 9 1 8 10
M  V30 10 2 9 11
M  V30 11 1 11 12
M  V30 12 1 11 13
M  V30 13 2 12 14
M  V30 14 1 12 15
M  V30 15 1 13 16
M  V30 16 2 13 17
M  V30 17 2 15 18
M  V30 18 1 15 19
M  V30 19 2 16 20
M  V30 20 2 16 21
M  V30 21 1 16 22
M  V30 22 1 18 23
M  V30 23 1 18 24
M  V30 24 2 19 25
M  V30 25 2 24 26
M  V30 26 1 26 27
M  V30 27 2 27 28
M  V30 28 2 27 29
M  V30 29 1 27 30
M  V30 30 1 6 8
M  V30 31 1 17 19
M  V30 32 1 25 26
M  V30 33 1 3 31
M  V30 34 1 4 32
M  V30 35 1 6 33
M  V30 36 1 7 34
M  V30 37 1 10 35
M  V30 38 1 17 36
M  V30 39 1 23 37
M  V30 40 1 24 38
M  V30 41 1 25 39
M  V30 END BOND
M  V30 END CTAB
M  END
>  <Structure No>
2085

>  <LogS>
-1.289808658

>  <MMFF94 Energy>
141.26

$$$$
Compound 2086
Actelion Java MolfileCreator 2.0

  0  0  0  0  0  0              0 V3000
M  V30 BEGIN CTAB
M  V30 COUNTS 70 73 0 0 0
M  V30 BEGIN ATOM
M  V30 1 O -0.1589 -1.3515 0.0 0 CHG=1
M  V30 2 C 0.958 -0.7393 -0.3722 0
M  V30 3 C -1.3664 -0.8535 -0.2334 0
M  V30 4 C 0.9082 0.4988 -1.051 0
M  V30 5 C 2.1898 -1.3327 -0.079 0
M  V30 6 C -1.519 0.3811 -0.9069 0
M  V30 7 C -2.4915 -1.5608 0.2022 0
M  V30 8 C -0.3565 1.0729 -1.3178 0
M  V30 9 C 2.1166 1.1163 -1.4293 0
M  V30 10 C 3.3939 -0.7119 -0.452 0
M  V30 11 C -2.819 0.8828 -1.1268 0
M  V30 12 C -3.7764 -1.0492 -0.0144 0
M  V30 13 C -0.4623 2.392 -1.9904 0
M  V30 14 C 3.342 0.5169 -1.1312 0
M  V30 15 N 4.664 -1.3284 -0.1382 0
M  V30 16 C -3.9352 0.1696 -0.6838 0
M  V30 17 N -4.9281 -1.7632 0.458 0
M  V30 18 C -0.2968 3.6204 -1.2918 0
M  V30 19 C -0.7085 2.4032 -3.3733 0
M  V30 20 C 5.779 -0.5259 0.3929 0
M  V30 21 C 4.8585 -2.7702 -0.3502 0
M  V30 22 C -5.3802 -1.5603 1.8395 0
M  V30 23 C -5.7399 -2.5319 -0.4936 0
M  V30 24 C -0.0083 3.6806 0.1672 0
M  V30 25 C -0.3898 4.8253 -2.0167 0
M  V30 26 C -0.797 3.6085 -4.0692 0
M  V30 27 C 5.4158 0.0751 1.7486 0
M  V30 28 C 4.9311 -3.5147 0.9802 0
M  V30 29 C -4.6807 -2.5329 2.782 0
M  V30 30 C -4.9826 -3.7672 -0.971 0
M  V30 31 O 0.3999 4.7603 0.6807 0
M  V30 32 O -0.1963 2.5549 0.9794 0
M  V30 33 C -0.6395 4.8172 -3.3923 0
M  V30 34 C 0.2632 2.465 2.3252 0
M  V30 35 C 1.7733 2.2633 2.3598 0
M  V30 36 H 2.2032 -2.2729 0.4561 0
M  V30 37 H -2.3665 -2.5105 0.7076 0
M  V30 38 H 2.1269 2.0616 -1.9566 0
M  V30 39 H -2.9831 1.8258 -1.6334 0
M  V30 40 H 4.2486 1.0109 -1.4516 0
M  V30 41 H -4.9268 0.57 -0.8545 0
M  V30 42 H -0.8257 1.4708 -3.9129 0
M  V30 43 H 6.6863 -1.1549 0.5214 0
M  V30 44 H 6.0514 0.2829 -0.3173 0
M  V30 45 H 5.7999 -2.9383 -0.9171 0
M  V30 46 H 4.0292 -3.1946 -0.9578 0
M  V30 47 H -6.4793 -1.7086 1.9183 0
M  V30 48 H -5.1689 -0.5168 2.1605 0
M  V30 49 H -6.0106 -1.8923 -1.3636 0
M  V30 50 H -6.6866 -2.8724 -0.0167 0
M  V30 51 H -0.2738 5.7796 -1.5165 0
M  V30 52 H -0.9831 3.6061 -5.1355 0
M  V30 53 H 4.5607 0.7745 1.6466 0
M  V30 54 H 6.2839 0.6361 2.1514 0
M  V30 55 H 5.1466 -0.7302 2.4667 0
M  V30 56 H 5.8375 -3.2075 1.545 0
M  V30 57 H 4.0304 -3.3076 1.5964 0
M  V30 58 H 4.9865 -4.6089 0.7894 0
M  V30 59 H -4.856 -3.5803 2.4526 0
M  V30 60 H -3.5891 -2.3326 2.8052 0
M  V30 61 H -5.0804 -2.4068 3.8111 0
M  V30 62 H -4.0542 -3.4779 -1.5053 0
M  V30 63 H -4.7174 -4.409 -0.1038 0
M  V30 64 H -5.6231 -4.3534 -1.6627 0
M  V30 65 H -0.7066 5.7521 -3.9346 0
M  V30 66 H -0.0183 3.3786 2.8959 0
M  V30 67 H -0.2226 1.591 2.8062 0
M  V30 68 H 2.0493 1.3542 1.7823 0
M  V30 69 H 2.1112 2.1391 3.4094 0
M  V30 70 H 2.2885 3.1437 1.9185 0
M  V30 END ATOM
M  V30 BEGIN BOND
M  V30 1 1 1 2
M  V30 2 2 1 3
M  V30 3 1 2 4
M  V30 4 2 2 5
M  V30 5 1 3 6
M  V30 6 1 3 7
M  V30 7 1 4 8
M  V30 8 2 4 9
M  V30 9 1 5 10
M  V30 10 1 6 11
M  V30 11 2 7 12
M  V30 12 1 8 13
M  V30 13 1 9 14
M  V30 14 1 10 15
M  V30 15 2 11 16
M  V30 16 1 12 17
M  V30 17 2 13 18
M  V30 18 1 13 19
M  V30 19 1 15 20
M  V30 20 1 15 21
M  V30 21 1 17 22
M  V30 22 1 17 23
M  V30 23 1 18 24
M  V30 24 1 18 25
M  V30 25 2 19 26
M  V30 26 1 20 27
M  V30 27 1 21 28
M  V30 28 1 22 29
M  V30 29 1 23 30
M  V30 30 2 24 31
M  V30 31 1 24 32
M  V30 32 2 25 33
M  V30 33 1 32 34
M  V30 34 1 34 35
M  V30 35 2 6 8
M  V30 36 2 10 14
M  V30 37 1 12 16
M  V30 38 1 26 33
M  V30 39 1 5 36
M  V30 40 1 7 37
M  V30 41 1 9 38
M  V30 42 1 11 39
M  V30 43 1 14 40
M  V30 44 1 16 41
M  V30 45 1 19 42
M  V30 46 1 20 43
M  V30 47 1 20 44
M  V30 48 1 21 45
M  V30 49 1 21 46
M  V30 50 1 22 47
M  V30 51 1 22 48
M  V30 52 1 23 49
M  V30 53 1 23 50
M  V30 54 1 25 51
M  V30 55 1 26 52
M  V30 56 1 27 53
M  V30 57 1 27 54
M  V30 58 1 27 55
M  V30 59 1 28 56
M  V30 60 1 28 57
M  V30 61 1 28 58
M  V30 62 1 29 59
M  V30 63 1 29 60
M  V30 64 1 29 61
M  V30 65 1 30 62
M  V30 66 1 30 63
M  V30 67 1 30 64
M  V30 68 1 33 65
M  V30 69 1 34 66
M  V30 70 1 34 67
M  V30 71 1 35 68
M  V30 72 1 35 69
M  V30 73 1 35 70
M  V30 END BOND
M  V30 END CTAB
M  END
>  <Structure No>
2086

>  <LogS>
-1.280189706

>  <MMFF94 Energy>
78.132

$$$$
Compound 2087
Actelion Java MolfileCreator 2.0

  0  0  0  0  0  0              0 V3000
M  V30 BEGIN CTAB
M  V30 COUNTS 13 13 0 0 0
M  V30 BEGIN ATOM
M  V30 1 Cl 3.3334 -0.406 0.0 0
M  V30 2 C 1.5944 -0.1764 0.0084 0
M  V30 3 C 1.0571 1.0998 0.2126 0
M  V30 4 C 0.7423 -1.2689 -0.1888 0
M  V30 5 C -0.3295 1.2833 0.2194 0
M  V30 6 C -0.6443 -1.086 -0.1821 0
M  V30 7 C -1.1842 0.1924 0.0223 0
M  V30 8 O -2.5634 0.3881 0.0314 0
M  V30 9 H 1.7116 1.9485 0.3658 0
M  V30 10 H 1.1526 -2.2581 -0.3471 0
M  V30 11 H -0.7402 2.2724 0.3778 0
M  V30 12 H -1.2972 -1.9358 -0.3354 0
M  V30 13 H -3.2081 -0.3809 -0.1082 0
M  V30 END ATOM
M  V30 BEGIN BOND
M  V30 1 1 1 2
M  V30 2 2 2 3
M  V30 3 1 2 4
M  V30 4 1 3 5
M  V30 5 2 4 6
M  V30 6 2 5 7
M  V30 7 1 7 8
M  V30 8 1 6 7
M  V30 9 1 3 9
M  V30 10 1 4 10
M  V30 11 1 5 11
M  V30 12 1 6 12
M  V30 13 1 8 13
M  V30 END BOND
M  V30 END CTAB
M  END
>  <Structure No>
2087

>  <LogS>
-0.687659717

>  <MMFF94 Energy>
3.3549

$$$$
Compound 2088
Actelion Java MolfileCreator 2.0

  0  0  0  0  0  0              0 V3000
M  V30 BEGIN CTAB
M  V30 COUNTS 10 9 0 0 0
M  V30 BEGIN ATOM
M  V30 1 N 1.063 1.899 1.7469 0
M  V30 2 C 0.5767 1.1579 1.0029 0
M  V30 3 C -0.0286 0.2346 0.0763 0
M  V30 4 C -1.1597 0.5667 -0.5457 0
M  V30 5 C 0.6175 -1.0929 -0.1816 0
M  V30 6 H -1.635 1.5239 -0.3662 0
M  V30 7 H -1.6274 -0.1156 -1.2449 0
M  V30 8 H 1.5473 -1.2055 0.4162 0
M  V30 9 H 0.8775 -1.1826 -1.2577 0
M  V30 10 H -0.0803 -1.9117 0.0945 0
M  V30 END ATOM
M  V30 BEGIN BOND
M  V30 1 3 1 2
M  V30 2 1 2 3
M  V30 3 2 3 4
M  V30 4 1 3 5
M  V30 5 1 4 6
M  V30 6 1 4 7
M  V30 7 1 5 8
M  V30 8 1 5 9
M  V30 9 1 5 10
M  V30 END BOND
M  V30 END CTAB
M  END
>  <Structure No>
2088

>  <LogS>
-0.406708517

>  <MMFF94 Energy>
10.236

$$$$
Compound 2089
Actelion Java MolfileCreator 2.0

  0  0  0  0  0  0              0 V3000
M  V30 BEGIN CTAB
M  V30 COUNTS 16 16 0 0 0
M  V30 BEGIN ATOM
M  V30 1 O -1.3274 1.7181 -0.6245 0
M  V30 2 C -0.2815 0.8626 -0.2788 0
M  V30 3 C -0.5486 -0.4774 0.0609 0
M  V30 4 C 1.039 1.3355 -0.2688 0
M  V30 5 C 0.5155 -1.3275 0.4071 0
M  V30 6 C -1.9594 -0.9935 0.0533 0
M  V30 7 C 2.0895 0.4819 0.0767 0
M  V30 8 C 1.8281 -0.8475 0.4143 0
M  V30 9 H -1.1612 2.6864 -0.8727 0
M  V30 10 H 1.2516 2.3647 -0.5288 0
M  V30 11 H 0.3313 -2.3613 0.6716 0
M  V30 12 H -2.3907 -0.8877 -0.9642 0
M  V30 13 H -2.0047 -2.065 0.3429 0
M  V30 14 H -2.5744 -0.4111 0.7716 0
M  V30 15 H 3.1069 0.8515 0.0831 0
M  V30 16 H 2.6434 -1.5071 0.6818 0
M  V30 END ATOM
M  V30 BEGIN BOND
M  V30 1 1 1 2
M  V30 2 2 2 3
M  V30 3 1 2 4
M  V30 4 1 3 5
M  V30 5 1 3 6
M  V30 6 2 4 7
M  V30 7 2 5 8
M  V30 8 1 7 8
M  V30 9 1 1 9
M  V30 10 1 4 10
M  V30 11 1 5 11
M  V30 12 1 6 12
M  V30 13 1 6 13
M  V30 14 1 6 14
M  V30 15 1 7 15
M  V30 16 1 8 16
M  V30 END BOND
M  V30 END CTAB
M  END
>  <Structure No>
2089

>  <LogS>
-0.619013017

>  <MMFF94 Energy>
9.3728

$$$$
Compound 2090
Actelion Java MolfileCreator 2.0

  0  0  0  0  0  0              0 V3000
M  V30 BEGIN CTAB
M  V30 COUNTS 5 4 0 0 0
M  V30 BEGIN ATOM
M  V30 1 S 0.0 0.0 0.0 0
M  V30 2 O 1.0841 0.0407 -1.0388 0
M  V30 3 O 0.6182 -0.0997 1.3654 0
M  V30 4 O -0.9828 -1.3351 -0.2683 0 CHG=-1
M  V30 5 O -0.9208 1.4013 -0.0965 0 CHG=-1
M  V30 END ATOM
M  V30 BEGIN BOND
M  V30 1 2 1 2
M  V30 2 2 1 3
M  V30 3 1 1 4
M  V30 4 1 1 5
M  V30 END BOND
M  V30 END CTAB
M  END
>  <Structure No>
2090

>  <LogS>
0.392124281

>  <MMFF94 Energy>
27.585

$$$$
Compound 2091
Actelion Java MolfileCreator 2.0

  0  0  0  0  0  0              0 V3000
M  V30 BEGIN CTAB
M  V30 COUNTS 39 38 0 0 0
M  V30 BEGIN ATOM
M  V30 1 S -4.5799 0.3208 2.0067 0
M  V30 2 O -5.769 0.8386 2.7654 0
M  V30 3 O -3.515 -0.0939 2.983 0
M  V30 4 O -5.0519 -1.0087 1.0947 0 CHG=-1
M  V30 5 C -3.9664 1.6126 0.9297 0
M  V30 6 C -2.5279 1.3618 0.4534 0
M  V30 7 C -2.4244 0.145 -0.5012 0
M  V30 8 N -1.1009 -0.0225 -1.1859 0 CHG=1
M  V30 9 C -0.012 -0.1509 -0.1642 0
M  V30 10 C -0.8455 1.1259 -2.0956 0
M  V30 11 C -1.1939 -1.2601 -2.005 0
M  V30 12 C 1.3712 -0.5403 -0.7202 0
M  V30 13 O 2.3291 -0.4781 0.3318 0
M  V30 14 C 3.683 -0.7787 0.1431 0
M  V30 15 O 4.1009 -1.1218 -0.997 0
M  V30 16 C 4.6276 -0.6975 1.2791 0
M  V30 17 C 4.1883 -0.4053 2.5082 0
M  V30 18 C 6.0814 -1.0193 1.062 0
M  V30 19 H -4.6481 1.7182 0.059 0
M  V30 20 H -3.9895 2.5694 1.4938 0
M  V30 21 H -2.195 2.284 -0.0628 0
M  V30 22 H -1.8808 1.2165 1.3435 0
M  V30 23 H -2.6517 -0.769 0.0917 0
M  V30 24 H -3.2361 0.2336 -1.2604 0
M  V30 25 H 0.123 0.8125 0.3749 0
M  V30 26 H -0.2926 -0.9107 0.6006 0
M  V30 27 H -0.5341 2.0335 -1.5358 0
M  V30 28 H -1.7505 1.3754 -2.6932 0
M  V30 29 H -0.0335 0.904 -2.8214 0
M  V30 30 H -1.283 -2.1617 -1.3582 0
M  V30 31 H -0.3076 -1.3921 -2.6626 0
M  V30 32 H -2.0798 -1.2308 -2.6792 0
M  V30 33 H 1.6807 0.1566 -1.5258 0
M  V30 34 H 1.3498 -1.5782 -1.1147 0
M  V30 35 H 4.8684 -0.3737 3.3505 0
M  V30 36 H 3.1441 -0.1938 2.7005 0
M  V30 37 H 6.7164 -0.6229 1.8837 0
M  V30 38 H 6.2113 -2.1203 1.0072 0
M  V30 39 H 6.4365 -0.5649 0.1131 0
M  V30 END ATOM
M  V30 BEGIN BOND
M  V30 1 2 1 2
M  V30 2 2 1 3
M  V30 3 1 1 4
M  V30 4 1 1 5
M  V30 5 1 5 6
M  V30 6 1 6 7
M  V30 7 1 7 8
M  V30 8 1 8 9
M  V30 9 1 8 10
M  V30 10 1 8 11
M  V30 11 1 9 12
M  V30 12 1 12 13
M  V30 13 1 13 14
M  V30 14 2 14 15
M  V30 15 1 14 16
M  V30 16 2 16 17
M  V30 17 1 16 18
M  V30 18 1 5 19
M  V30 19 1 5 20
M  V30 20 1 6 21
M  V30 21 1 6 22
M  V30 22 1 7 23
M  V30 23 1 7 24
M  V30 24 1 9 25
M  V30 25 1 9 26
M  V30 26 1 10 27
M  V30 27 1 10 28
M  V30 28 1 10 29
M  V30 29 1 11 30
M  V30 30 1 11 31
M  V30 31 1 11 32
M  V30 32 1 12 33
M  V30 33 1 12 34
M  V30 34 1 17 35
M  V30 35 1 17 36
M  V30 36 1 18 37
M  V30 37 1 18 38
M  V30 38 1 18 39
M  V30 END BOND
M  V30 END CTAB
M  END
>  <Structure No>
2091

>  <LogS>
0.96273997

>  <MMFF94 Energy>
-19.191

$$$$
Compound 2092
Actelion Java MolfileCreator 2.0

  0  0  0  0  0  0              0 V3000
M  V30 BEGIN CTAB
M  V30 COUNTS 63 66 0 0 0
M  V30 BEGIN ATOM
M  V30 1 S 8.0493 -3.0129 1.5893 0
M  V30 2 O 9.0097 -3.1063 0.4391 0
M  V30 3 O 6.7589 -3.6802 1.2081 0
M  V30 4 O 8.6739 -3.8459 2.9079 0 CHG=-1
M  V30 5 C 7.7778 -1.3014 1.9891 0
M  V30 6 C 8.6494 -0.5786 2.8534 0
M  V30 7 C 6.6973 -0.5977 1.4324 0
M  V30 8 C 8.3646 0.771 3.1711 0
M  V30 9 C 9.8628 -1.2145 3.4746 0
M  V30 10 S 5.5207 -1.1124 0.3438 0
M  V30 11 C 6.4396 0.7318 1.7376 0
M  V30 12 C 7.2605 1.4274 2.6162 0
M  V30 13 C 4.7317 0.3852 0.3211 0
M  V30 14 N 5.3541 1.2771 1.1304 0
M  V30 15 C 3.5133 0.708 -0.4567 0
M  V30 16 C 2.9787 2.0078 -0.4217 0
M  V30 17 C 2.8706 -0.2691 -1.2385 0
M  V30 18 C 1.8222 2.3196 -1.1407 0
M  V30 19 C 1.7129 0.045 -1.9587 0
M  V30 20 C 1.1683 1.3386 -1.8984 0
M  V30 21 N -0.0134 1.6942 -2.6356 0
M  V30 22 C -1.1129 0.8022 -2.8764 0
M  V30 23 O -1.2051 -0.278 -2.2326 0
M  V30 24 C -2.1511 1.1587 -3.8694 0
M  V30 25 C -1.7259 1.8253 -5.0761 0
M  V30 26 C -3.4499 0.8287 -3.7448 0
M  V30 27 N -1.3826 2.3572 -6.0441 0
M  V30 28 C -4.0694 0.2529 -2.5318 0
M  V30 29 C -3.8186 0.7835 -1.2552 0
M  V30 30 C -5.0052 -0.7792 -2.6717 0
M  V30 31 C -4.4761 0.2674 -0.1349 0
M  V30 32 C -5.6592 -1.2982 -1.5527 0
M  V30 33 C -5.4187 -0.7677 -0.2725 0
M  V30 34 N -6.1395 -1.269 0.8757 0
M  V30 35 C -6.7511 -0.3492 1.8504 0
M  V30 36 C -6.3071 -2.7155 1.0542 0
M  V30 37 C -8.2709 -0.2588 1.6609 0
M  V30 38 S -8.7126 0.5753 0.1401 0
M  V30 39 O -10.1389 1.043 0.2303 0
M  V30 40 O -8.5817 -0.3738 -1.0158 0
M  V30 41 O -7.7116 1.9024 -0.1105 0 CHG=-1
M  V30 42 H 9.0048 1.3199 3.8497 0
M  V30 43 H 10.4131 -1.8222 2.7261 0
M  V30 44 H 10.5701 -0.4448 3.8539 0
M  V30 45 H 9.5531 -1.8499 4.33 0
M  V30 46 H 7.0557 2.4618 2.8618 0
M  V30 47 H 3.4528 2.7857 0.1637 0
M  V30 48 H 3.2617 -1.2761 -1.301 0
M  V30 49 H 1.4238 3.3258 -1.0946 0
M  V30 50 H 1.2578 -0.7194 -2.575 0
M  V30 51 H -0.1414 2.697 -2.8981 0
M  V30 52 H -4.1119 1.0011 -4.5869 0
M  V30 53 H -3.1289 1.6075 -1.1255 0
M  V30 54 H -5.2299 -1.185 -3.6507 0
M  V30 55 H -4.245 0.6773 0.8397 0
M  V30 56 H -6.384 -2.088 -1.6968 0
M  V30 57 H -6.5377 -0.7107 2.8814 0
M  V30 58 H -6.3159 0.6692 1.7815 0
M  V30 59 H -6.9787 -3.1262 0.2723 0
M  V30 60 H -6.7511 -2.9462 2.0477 0
M  V30 61 H -5.3187 -3.2177 0.9971 0
M  V30 62 H -8.7013 0.3113 2.5107 0
M  V30 63 H -8.7247 -1.2722 1.6677 0
M  V30 END ATOM
M  V30 BEGIN BOND
M  V30 1 2 1 2
M  V30 2 2 1 3
M  V30 3 1 1 4
M  V30 4 1 1 5
M  V30 5 2 5 6
M  V30 6 1 5 7
M  V30 7 1 6 8
M  V30 8 1 6 9
M  V30 9 1 7 10
M  V30 10 2 7 11
M  V30 11 2 8 12
M  V30 12 1 10 13
M  V30 13 1 11 14
M  V30 14 1 13 15
M  V30 15 2 15 16
M  V30 16 1 15 17
M  V30 17 1 16 18
M  V30 18 2 17 19
M  V30 19 2 18 20
M  V30 20 1 20 21
M  V30 21 1 21 22
M  V30 22 2 22 23
M  V30 23 1 22 24
M  V30 24 1 24 25
M  V30 25 2 24 26
M  V30 26 3 25 27
M  V30 27 1 26 28
M  V30 28 2 28 29
M  V30 29 1 28 30
M  V30 30 1 29 31
M  V30 31 2 30 32
M  V30 32 2 31 33
M  V30 33 1 33 34
M  V30 34 1 34 35
M  V30 35 1 34 36
M  V30 36 1 35 37
M  V30 37 1 37 38
M  V30 38 2 38 39
M  V30 39 2 38 40
M  V30 40 1 38 41
M  V30 41 1 11 12
M  V30 42 2 13 14
M  V30 43 1 19 20
M  V30 44 1 32 33
M  V30 45 1 8 42
M  V30 46 1 9 43
M  V30 47 1 9 44
M  V30 48 1 9 45
M  V30 49 1 12 46
M  V30 50 1 16 47
M  V30 51 1 17 48
M  V30 52 1 18 49
M  V30 53 1 19 50
M  V30 54 1 21 51
M  V30 55 1 26 52
M  V30 56 1 29 53
M  V30 57 1 30 54
M  V30 58 1 31 55
M  V30 59 1 32 56
M  V30 60 1 35 57
M  V30 61 1 35 58
M  V30 62 1 36 59
M  V30 63 1 36 60
M  V30 64 1 36 61
M  V30 65 1 37 62
M  V30 66 1 37 63
M  V30 END BOND
M  V30 END CTAB
M  END
>  <Structure No>
2092

>  <LogS>
-0.415949942

>  <MMFF94 Energy>
84.171

$$$$
Compound 2093
Actelion Java MolfileCreator 2.0

  0  0  0  0  0  0              0 V3000
M  V30 BEGIN CTAB
M  V30 COUNTS 20 20 0 0 0
M  V30 BEGIN ATOM
M  V30 1 O -0.7817 -0.1563 0.6253 0
M  V30 2 C 0.5736 -0.0804 0.2728 0
M  V30 3 C -1.8464 0.4 -0.1424 0
M  V30 4 C 1.0155 0.5689 -0.8974 0
M  V30 5 C 1.5164 -0.6754 1.1213 0
M  V30 6 C -3.1781 0.1244 0.5489 0
M  V30 7 C 2.3795 0.616 -1.203 0
M  V30 8 C 2.8792 -0.6263 0.8124 0
M  V30 9 O -3.39 -1.2553 0.6772 0
M  V30 10 C 3.3106 0.0189 -0.3491 0
M  V30 11 H -1.7077 1.4992 -0.2326 0
M  V30 12 H -1.8567 -0.0523 -1.1579 0
M  V30 13 H 0.3155 1.039 -1.5746 0
M  V30 14 H 1.1906 -1.1775 2.0234 0
M  V30 15 H -4.0076 0.593 -0.0278 0
M  V30 16 H -3.1665 0.581 1.5614 0
M  V30 17 H 2.7149 1.1157 -2.1025 0
M  V30 18 H 3.6006 -1.0887 1.4737 0
M  V30 19 H -3.6571 -1.5863 -0.2198 0
M  V30 20 H 4.3656 0.0564 -0.5875 0
M  V30 END ATOM
M  V30 BEGIN BOND
M  V30 1 1 1 2
M  V30 2 1 1 3
M  V30 3 2 2 4
M  V30 4 1 2 5
M  V30 5 1 3 6
M  V30 6 1 4 7
M  V30 7 2 5 8
M  V30 8 1 6 9
M  V30 9 2 7 10
M  V30 10 1 8 10
M  V30 11 1 3 11
M  V30 12 1 3 12
M  V30 13 1 4 13
M  V30 14 1 5 14
M  V30 15 1 6 15
M  V30 16 1 6 16
M  V30 17 1 7 17
M  V30 18 1 8 18
M  V30 19 1 9 19
M  V30 20 1 10 20
M  V30 END BOND
M  V30 END CTAB
M  END
>  <Structure No>
2093

>  <LogS>
-0.742461176

>  <MMFF94 Energy>
37.141

$$$$
Compound 2094
Actelion Java MolfileCreator 2.0

  0  0  0  0  0  0              0 V3000
M  V30 BEGIN CTAB
M  V30 COUNTS 6 5 0 0 0
M  V30 BEGIN ATOM
M  V30 1 O 1.3529 0.3381 -1.0145 0
M  V30 2 C 0.7009 0.0572 0.0249 0
M  V30 3 O 1.3732 -0.1459 1.2236 0 CHG=-1
M  V30 4 C -0.7589 -0.0546 -0.0296 0
M  V30 5 O -1.4109 -0.3355 1.0099 0
M  V30 6 O -1.4313 0.1486 -1.2282 0 CHG=-1
M  V30 END ATOM
M  V30 BEGIN BOND
M  V30 1 2 1 2
M  V30 2 1 2 3
M  V30 3 1 2 4
M  V30 4 2 4 5
M  V30 5 1 4 6
M  V30 END BOND
M  V30 END CTAB
M  END
>  <Structure No>
2094

>  <LogS>
-0.70969048

>  <MMFF94 Energy>
278.93

$$$$
Compound 2095
Actelion Java MolfileCreator 2.0

  0  0  0  0  0  0              0 V3000
M  V30 BEGIN CTAB
M  V30 COUNTS 54 56 0 0 0
M  V30 BEGIN ATOM
M  V30 1 S 8.4218 3.3116 -1.0181 0
M  V30 2 O 9.2162 3.2468 -2.2912 0
M  V30 3 O 7.5911 4.5645 -1.0231 0
M  V30 4 O 7.418 1.9507 -0.9306 0
M  V30 5 O 9.4853 3.3434 0.2836 0 CHG=-1
M  V30 6 C 6.7977 1.9383 0.3325 0
M  V30 7 C 5.8065 0.7789 0.4068 0
M  V30 8 S 4.4366 1.008 -0.7184 0
M  V30 9 O 4.9331 1.0355 -2.1372 0
M  V30 10 O 3.7422 2.3087 -0.4248 0
M  V30 11 C 3.303 -0.3229 -0.5156 0
M  V30 12 C 3.4204 -1.4766 -1.3011 0
M  V30 13 C 2.2961 -0.2471 0.455 0
M  V30 14 C 2.5274 -2.5381 -1.1298 0
M  V30 15 C 1.4028 -1.3082 0.6282 0
M  V30 16 C 1.5066 -2.4618 -0.1704 0
M  V30 17 N 0.5944 -3.5642 -0.0179 0
M  V30 18 N -0.4934 -3.5195 0.8709 0
M  V30 19 C -1.5623 -2.7901 0.7018 0
M  V30 20 C -1.8059 -1.9861 -0.5258 0
M  V30 21 C -2.5828 -2.7556 1.7802 0
M  V30 22 O -1.0782 -2.1163 -1.5472 0
M  V30 23 C -2.952 -1.0541 -0.551 0
M  V30 24 S -2.3894 -3.7825 3.207 0
M  V30 25 C -3.6326 -1.9218 1.701 0
M  V30 26 C -3.8394 -1.0248 0.5417 0
M  V30 27 C -3.1779 -0.2086 -1.6491 0
M  V30 28 O -3.6639 -3.8291 4.0031 0
M  V30 29 O -1.2877 -3.2352 4.0698 0
M  V30 30 O -2.0039 -5.3451 2.7251 0 CHG=-1
M  V30 31 C -4.9335 -0.1463 0.5265 0
M  V30 32 C -4.2677 0.665 -1.6552 0
M  V30 33 C -5.1445 0.7166 -0.5584 0
M  V30 34 N -6.2867 1.5906 -0.5514 0
M  V30 35 C -6.3094 2.8916 -1.1587 0
M  V30 36 O -5.2401 3.4489 -1.5263 0
M  V30 37 C -7.5985 3.6391 -1.2673 0
M  V30 38 H 7.5592 1.787 1.1294 0
M  V30 39 H 6.2521 2.8893 0.5267 0
M  V30 40 H 5.4058 0.7065 1.4403 0
M  V30 41 H 6.3226 -0.1743 0.1649 0
M  V30 42 H 4.2032 -1.5563 -2.0445 0
M  V30 43 H 2.205 0.6309 1.0819 0
M  V30 44 H 2.6279 -3.4204 -1.7495 0
M  V30 45 H 0.64 -1.2263 1.3908 0
M  V30 46 H 0.8601 -4.492 -0.4171 0
M  V30 47 H -4.3533 -1.8897 2.5089 0
M  V30 48 H -2.5159 -0.2261 -2.5059 0
M  V30 49 H -5.6195 -0.1241 1.3653 0
M  V30 50 H -4.437 1.2798 -2.529 0
M  V30 51 H -7.126 1.2985 -6.0E-4 0
M  V30 52 H -7.5343 4.4048 -2.0694 0
M  V30 53 H -8.4238 2.9377 -1.5111 0
M  V30 54 H -7.8177 4.14 -0.3015 0
M  V30 END ATOM
M  V30 BEGIN BOND
M  V30 1 2 1 2
M  V30 2 2 1 3
M  V30 3 1 1 4
M  V30 4 1 1 5
M  V30 5 1 4 6
M  V30 6 1 6 7
M  V30 7 1 7 8
M  V30 8 2 8 9
M  V30 9 2 8 10
M  V30 10 1 8 11
M  V30 11 2 11 12
M  V30 12 1 11 13
M  V30 13 1 12 14
M  V30 14 2 13 15
M  V30 15 2 14 16
M  V30 16 1 16 17
M  V30 17 1 17 18
M  V30 18 2 18 19
M  V30 19 1 19 20
M  V30 20 1 19 21
M  V30 21 2 20 22
M  V30 22 1 20 23
M  V30 23 1 21 24
M  V30 24 2 21 25
M  V30 25 2 23 26
M  V30 26 1 23 27
M  V30 27 2 24 28
M  V30 28 2 24 29
M  V30 29 1 24 30
M  V30 30 1 26 31
M  V30 31 2 27 32
M  V30 32 2 31 33
M  V30 33 1 33 34
M  V30 34 1 34 35
M  V30 35 2 35 36
M  V30 36 1 35 37
M  V30 37 1 15 16
M  V30 38 1 25 26
M  V30 39 1 32 33
M  V30 40 1 6 38
M  V30 41 1 6 39
M  V30 42 1 7 40
M  V30 43 1 7 41
M  V30 44 1 12 42
M  V30 45 1 13 43
M  V30 46 1 14 44
M  V30 47 1 15 45
M  V30 48 1 17 46
M  V30 49 1 25 47
M  V30 50 1 27 48
M  V30 51 1 31 49
M  V30 52 1 32 50
M  V30 53 1 34 51
M  V30 54 1 37 52
M  V30 55 1 37 53
M  V30 56 1 37 54
M  V30 END BOND
M  V30 END CTAB
M  END
>  <Structure No>
2095

>  <LogS>
-0.39639349

>  <MMFF94 Energy>
63.715

$$$$
Compound 2096
Actelion Java MolfileCreator 2.0

  0  0  0  0  0  0              0 V3000
M  V30 BEGIN CTAB
M  V30 COUNTS 16 15 0 0 0
M  V30 BEGIN ATOM
M  V30 1 O 1.6999 0.0772 -1.7772 0
M  V30 2 C 1.7937 -0.0302 -0.5248 0
M  V30 3 N 0.6177 -0.0305 0.2931 0
M  V30 4 C 3.1425 -0.1338 0.109 0
M  V30 5 N -0.668 0.069 -0.269 0
M  V30 6 C -1.8439 0.0713 0.549 0
M  V30 7 O -1.7484 0.0 1.8039 0
M  V30 8 C -3.1925 0.1825 -0.0842 0
M  V30 9 H 0.73 -0.1076 1.3293 0
M  V30 10 H 3.9296 -0.2595 -0.6644 0
M  V30 11 H 3.35 0.7886 0.69 0
M  V30 12 H 3.1683 -1.0089 0.7913 0
M  V30 13 H -0.7805 0.1431 -1.3053 0
M  V30 14 H -3.9929 0.0294 0.6705 0
M  V30 15 H -3.3076 1.1903 -0.5345 0
M  V30 16 H -3.297 -0.5864 -0.8777 0
M  V30 END ATOM
M  V30 BEGIN BOND
M  V30 1 2 1 2
M  V30 2 1 2 3
M  V30 3 1 2 4
M  V30 4 1 3 5
M  V30 5 1 5 6
M  V30 6 2 6 7
M  V30 7 1 6 8
M  V30 8 1 3 9
M  V30 9 1 4 10
M  V30 10 1 4 11
M  V30 11 1 4 12
M  V30 12 1 5 13
M  V30 13 1 8 14
M  V30 14 1 8 15
M  V30 15 1 8 16
M  V30 END BOND
M  V30 END CTAB
M  END
>  <Structure No>
2096

>  <LogS>
0.328668176

>  <MMFF94 Energy>
14.319

$$$$
Compound 2097
Actelion Java MolfileCreator 2.0

  0  0  0  0  0  0              0 V3000
M  V30 BEGIN CTAB
M  V30 COUNTS 33 33 0 0 0
M  V30 BEGIN ATOM
M  V30 1 O 1.2641 1.9758 1.5013 0
M  V30 2 C 1.1866 1.3264 0.4224 0
M  V30 3 O 2.1264 0.3341 0.1251 0
M  V30 4 C 0.0607 1.6101 -0.5403 0 CFG=2
M  V30 5 C 3.1863 -0.0109 1.0097 0
M  V30 6 C -1.0933 0.5681 -0.4441 0
M  V30 7 C 0.6025 1.7468 -1.971 0
M  V30 8 C 4.0079 -1.1362 0.4021 0
M  V30 9 C -0.6317 -0.8993 -0.5985 0
M  V30 10 C -1.9099 0.7472 0.8657 0
M  V30 11 C -1.8334 -1.8622 -0.6959 0
M  V30 12 C -2.6972 -0.5136 1.2802 0
M  V30 13 C -3.0786 -1.3725 0.0707 0
M  V30 14 H -0.3675 2.6054 -0.2817 0
M  V30 15 H 2.7679 -0.3469 1.9835 0
M  V30 16 H 3.8388 0.8733 1.1771 0
M  V30 17 H -1.7917 0.7789 -1.2865 0
M  V30 18 H 1.3435 2.5738 -2.0161 0
M  V30 19 H 1.1007 0.8155 -2.3109 0
M  V30 20 H -0.2228 1.9887 -2.6741 0
M  V30 21 H 4.4378 -0.8101 -0.5685 0
M  V30 22 H 3.3655 -2.027 0.2358 0
M  V30 23 H 4.8353 -1.4104 1.0901 0
M  V30 24 H -0.0166 -1.1879 0.2819 0
M  V30 25 H -0.0041 -1.0253 -1.5048 0
M  V30 26 H -2.6217 1.5905 0.7258 0
M  V30 27 H -1.2436 1.0233 1.7107 0
M  V30 28 H -1.5256 -2.8559 -0.3026 0
M  V30 29 H -2.1081 -2.0018 -1.7643 0
M  V30 30 H -2.0786 -1.1258 1.9733 0
M  V30 31 H -3.6165 -0.2141 1.8285 0
M  V30 32 H -3.6743 -2.2478 0.4087 0
M  V30 33 H -3.7224 -0.7717 -0.609 0
M  V30 END ATOM
M  V30 BEGIN BOND
M  V30 1 2 1 2
M  V30 2 1 2 3
M  V30 3 1 2 4
M  V30 4 1 3 5
M  V30 5 1 4 6
M  V30 6 1 4 7
M  V30 7 1 5 8
M  V30 8 1 6 9
M  V30 9 1 6 10
M  V30 10 1 9 11
M  V30 11 1 10 12
M  V30 12 1 11 13
M  V30 13 1 12 13
M  V30 14 1 4 14
M  V30 15 1 5 15
M  V30 16 1 5 16
M  V30 17 1 6 17
M  V30 18 1 7 18
M  V30 19 1 7 19
M  V30 20 1 7 20
M  V30 21 1 8 21
M  V30 22 1 8 22
M  V30 23 1 8 23
M  V30 24 1 9 24
M  V30 25 1 9 25
M  V30 26 1 10 26
M  V30 27 1 10 27
M  V30 28 1 11 28
M  V30 29 1 11 29
M  V30 30 1 12 30
M  V30 31 1 12 31
M  V30 32 1 13 32
M  V30 33 1 13 33
M  V30 END BOND
M  V30 BEGIN COLLECTION
M  V30 MDLV30/STEABS ATOMS=(1 4)
M  V30 END COLLECTION
M  V30 END CTAB
M  END
>  <Structure No>
2097

>  <LogS>
-3.327456749

>  <MMFF94 Energy>
-1.4217

$$$$
Compound 2098
Actelion Java MolfileCreator 2.0

  0  0  0  0  0  0              0 V3000
M  V30 BEGIN CTAB
M  V30 COUNTS 15 15 0 0 0
M  V30 BEGIN ATOM
M  V30 1 O 2.6752 -0.4049 0.9721 0
M  V30 2 C 1.559 -0.2331 0.4157 0
M  V30 3 N 0.7275 0.8691 0.6981 0
M  V30 4 C 0.9812 -1.159 -0.5772 0
M  V30 5 C -0.4914 0.7819 -0.0836 0 CFG=1
M  V30 6 C -0.3246 -0.4615 -0.9929 0
M  V30 7 C -1.6757 0.6455 0.8285 0
M  V30 8 O -2.7032 1.3482 0.6393 0
M  V30 9 O -1.6587 -0.2807 1.8648 0 CHG=-1
M  V30 10 H 0.952 1.6287 1.3793 0
M  V30 11 H 1.6671 -1.2816 -1.4427 0
M  V30 12 H 0.7724 -2.1415 -0.102 0
M  V30 13 H -0.5926 1.6993 -0.7048 0
M  V30 14 H -0.2488 -0.1366 -2.0538 0
M  V30 15 H -1.1824 -1.1659 -0.9113 0
M  V30 END ATOM
M  V30 BEGIN BOND
M  V30 1 2 1 2
M  V30 2 1 2 3
M  V30 3 1 2 4
M  V30 4 1 3 5
M  V30 5 1 4 6
M  V30 6 1 5 7
M  V30 7 2 7 8
M  V30 8 1 7 9
M  V30 9 1 5 6
M  V30 10 1 3 10
M  V30 11 1 4 11
M  V30 12 1 4 12
M  V30 13 1 5 13
M  V30 14 1 6 14
M  V30 15 1 6 15
M  V30 END BOND
M  V30 BEGIN COLLECTION
M  V30 MDLV30/STEABS ATOMS=(1 5)
M  V30 END COLLECTION
M  V30 END CTAB
M  END
>  <Structure No>
2098

>  <LogS>
0.165147848

>  <MMFF94 Energy>
31.324

$$$$
Compound 2099
Actelion Java MolfileCreator 2.0

  0  0  0  0  0  0              0 V3000
M  V30 BEGIN CTAB
M  V30 COUNTS 35 36 0 0 0
M  V30 BEGIN ATOM
M  V30 1 S 4.7411 1.3529 2.1992 0
M  V30 2 O 4.1259 1.9835 3.417 0
M  V30 3 O 5.5499 2.3917 1.4745 0
M  V30 4 O 5.7432 0.09 2.6689 0 CHG=-1
M  V30 5 C 3.4765 0.7347 1.1417 0
M  V30 6 C 2.2624 0.2906 1.6814 0
M  V30 7 C 3.6873 0.6669 -0.2414 0
M  V30 8 C 1.2476 -0.1908 0.8477 0
M  V30 9 C 2.6938 0.1485 -1.0851 0
M  V30 10 O 0.0468 -0.6232 1.43 0
M  V30 11 C 1.4719 -0.2703 -0.5382 0
M  V30 12 C 2.9109 0.1022 -2.5687 0
M  V30 13 C -1.2168 -0.5653 0.8238 0
M  V30 14 C -1.5578 0.4505 -0.0863 0
M  V30 15 C -2.1743 -1.5234 1.1744 0
M  V30 16 C -2.828 0.4764 -0.6757 0
M  V30 17 C -3.4588 -1.4887 0.6111 0
M  V30 18 S -3.2409 1.7438 -1.8255 0
M  V30 19 C -3.7748 -0.4958 -0.328 0
M  V30 20 C -4.4636 -2.5473 0.9574 0
M  V30 21 O -4.2612 1.234 -2.8041 0
M  V30 22 O -2.0129 2.1637 -2.5834 0
M  V30 23 O -3.8685 3.0647 -0.9998 0 CHG=-1
M  V30 24 H 2.0966 0.329 2.7508 0
M  V30 25 H 4.6262 1.0079 -0.6603 0
M  V30 26 H 0.7072 -0.6761 -1.1884 0
M  V30 27 H 2.3599 -0.7508 -3.0186 0
M  V30 28 H 3.9892 -0.0237 -2.8046 0
M  V30 29 H 2.5488 1.0476 -3.0238 0
M  V30 30 H -0.8425 1.2265 -0.3255 0
M  V30 31 H -1.9127 -2.2994 1.8837 0
M  V30 32 H -4.7591 -0.4753 -0.78 0
M  V30 33 H -5.4966 -2.1443 0.8893 0
M  V30 34 H -4.3065 -2.9133 1.9944 0
M  V30 35 H -4.3599 -3.3987 0.2531 0
M  V30 END ATOM
M  V30 BEGIN BOND
M  V30 1 2 1 2
M  V30 2 2 1 3
M  V30 3 1 1 4
M  V30 4 1 1 5
M  V30 5 2 5 6
M  V30 6 1 5 7
M  V30 7 1 6 8
M  V30 8 2 7 9
M  V30 9 1 8 10
M  V30 10 2 8 11
M  V30 11 1 9 12
M  V30 12 1 10 13
M  V30 13 2 13 14
M  V30 14 1 13 15
M  V30 15 1 14 16
M  V30 16 2 15 17
M  V30 17 1 16 18
M  V30 18 2 16 19
M  V30 19 1 17 20
M  V30 20 2 18 21
M  V30 21 2 18 22
M  V30 22 1 18 23
M  V30 23 1 9 11
M  V30 24 1 17 19
M  V30 25 1 6 24
M  V30 26 1 7 25
M  V30 27 1 11 26
M  V30 28 1 12 27
M  V30 29 1 12 28
M  V30 30 1 12 29
M  V30 31 1 14 30
M  V30 32 1 15 31
M  V30 33 1 19 32
M  V30 34 1 20 33
M  V30 35 1 20 34
M  V30 36 1 20 35
M  V30 END BOND
M  V30 END CTAB
M  END
>  <Structure No>
2099

>  <LogS>
-0.220796195

>  <MMFF94 Energy>
116.68

$$$$
Compound 2100
Actelion Java MolfileCreator 2.0

  0  0  0  0  0  0              0 V3000
M  V30 BEGIN CTAB
M  V30 COUNTS 24 23 0 0 0
M  V30 BEGIN ATOM
M  V30 1 O 1.7683 -1.8453 0.6148 0
M  V30 2 C 2.2851 -0.7074 0.448 0
M  V30 3 O 1.4888 0.4453 0.4661 0
M  V30 4 C 3.7368 -0.6048 0.2423 0
M  V30 5 C 0.0698 0.4191 0.6088 0
M  V30 6 C 4.3463 0.564 0.0583 0
M  V30 7 C -0.5903 -3.0E-4 -0.7199 0
M  V30 8 N -2.073 -0.0437 -0.6857 0 CHG=1
M  V30 9 C -2.5876 -1.0529 0.2571 0
M  V30 10 C -2.6741 1.2759 -0.4223 0
M  V30 11 H 4.3301 -1.511 0.2392 0
M  V30 12 H -0.2056 -0.2684 1.4356 0
M  V30 13 H -0.2567 1.4418 0.8847 0
M  V30 14 H 5.4177 0.5956 -0.0901 0
M  V30 15 H 3.7948 1.4957 0.0526 0
M  V30 16 H -0.2016 -0.9995 -1.0165 0
M  V30 17 H -0.2589 0.706 -1.514 0
M  V30 18 H -2.385 -0.3346 -1.6432 0
M  V30 19 H -2.4433 -0.7372 1.3127 0
M  V30 20 H -2.0834 -2.0313 0.0996 0
M  V30 21 H -3.677 -1.2074 0.0936 0
M  V30 22 H -3.7678 1.2439 -0.6231 0
M  V30 23 H -2.2338 2.0486 -1.0897 0
M  V30 24 H -2.5311 1.5865 0.6351 0
M  V30 END ATOM
M  V30 BEGIN BOND
M  V30 1 2 1 2
M  V30 2 1 2 3
M  V30 3 1 2 4
M  V30 4 1 3 5
M  V30 5 2 4 6
M  V30 6 1 5 7
M  V30 7 1 7 8
M  V30 8 1 8 9
M  V30 9 1 8 10
M  V30 10 1 4 11
M  V30 11 1 5 12
M  V30 12 1 5 13
M  V30 13 1 6 14
M  V30 14 1 6 15
M  V30 15 1 7 16
M  V30 16 1 7 17
M  V30 17 1 8 18
M  V30 18 1 9 19
M  V30 19 1 9 20
M  V30 20 1 9 21
M  V30 21 1 10 22
M  V30 22 1 10 23
M  V30 23 1 10 24
M  V30 END BOND
M  V30 END CTAB
M  END
>  <Structure No>
2100

>  <LogS>
0.224310685

>  <MMFF94 Energy>
22.406

$$$$
Compound 2101
Actelion Java MolfileCreator 2.0

  0  0  0  0  0  0              0 V3000
M  V30 BEGIN CTAB
M  V30 COUNTS 13 13 0 0 0
M  V30 BEGIN ATOM
M  V30 1 O 2.6361 -1.6769 0.1596 0
M  V30 2 C 1.6996 -0.8435 0.0545 0
M  V30 3 O 0.5125 -1.1055 -0.587 0
M  V30 4 O 1.7481 0.4291 0.5709 0
M  V30 5 C -0.3098 0.0532 -0.5233 0 CFG=2
M  V30 6 C 0.5265 1.0923 0.2749 0
M  V30 7 C -1.6328 -0.2807 0.1623 0
M  V30 8 H -0.5035 0.4246 -1.5534 0
M  V30 9 H 0.0329 1.4016 1.2217 0
M  V30 10 H 0.7314 1.9902 -0.3462 0
M  V30 11 H -2.2634 0.6305 0.2353 0
M  V30 12 H -2.1789 -1.0446 -0.4303 0
M  V30 13 H -1.4504 -0.6819 1.1824 0
M  V30 END ATOM
M  V30 BEGIN BOND
M  V30 1 2 1 2
M  V30 2 1 2 3
M  V30 3 1 2 4
M  V30 4 1 3 5
M  V30 5 1 4 6
M  V30 6 1 5 7
M  V30 7 1 5 6
M  V30 8 1 5 8
M  V30 9 1 6 9
M  V30 10 1 6 10
M  V30 11 1 7 11
M  V30 12 1 7 12
M  V30 13 1 7 13
M  V30 END BOND
M  V30 BEGIN COLLECTION
M  V30 MDLV30/STEABS ATOMS=(1 5)
M  V30 END COLLECTION
M  V30 END CTAB
M  END
>  <Structure No>
2101

>  <LogS>
0.371232292

>  <MMFF94 Energy>
-14.838

$$$$
Compound 2102
Actelion Java MolfileCreator 2.0

  0  0  0  0  0  0              0 V3000
M  V30 BEGIN CTAB
M  V30 COUNTS 20 20 0 0 0
M  V30 BEGIN ATOM
M  V30 1 O 2.5828 -0.6256 -0.5474 0
M  V30 2 C 1.2102 -0.4077 -0.3565 0
M  V30 3 C 3.5981 0.3226 -0.2355 0
M  V30 4 C 0.7025 0.7938 0.1744 0
M  V30 5 C 0.3194 -1.4291 -0.7066 0
M  V30 6 C -0.6749 0.9625 0.3448 0
M  V30 7 C -1.0578 -1.2605 -0.5362 0
M  V30 8 C -1.5649 -0.058 -0.0217 0
M  V30 9 C -3.0437 0.1093 0.1952 0
M  V30 10 O -3.4119 -0.429 1.4353 0
M  V30 11 H 4.588 -0.1098 -0.4872 0
M  V30 12 H 3.579 0.5596 0.8493 0
M  V30 13 H 3.4523 1.2482 -0.8316 0
M  V30 14 H 1.363 1.6006 0.4612 0
M  V30 15 H 0.6973 -2.36 -1.1101 0
M  V30 16 H -1.0477 1.8896 0.7632 0
M  V30 17 H -1.7285 -2.0672 -0.8053 0
M  V30 18 H -3.3339 1.1833 0.1359 0
M  V30 19 H -3.6035 -0.4206 -0.6045 0
M  V30 20 H -3.1179 0.2216 2.1255 0
M  V30 END ATOM
M  V30 BEGIN BOND
M  V30 1 1 1 2
M  V30 2 1 1 3
M  V30 3 2 2 4
M  V30 4 1 2 5
M  V30 5 1 4 6
M  V30 6 2 5 7
M  V30 7 2 6 8
M  V30 8 1 8 9
M  V30 9 1 9 10
M  V30 10 1 7 8
M  V30 11 1 3 11
M  V30 12 1 3 12
M  V30 13 1 3 13
M  V30 14 1 4 14
M  V30 15 1 5 15
M  V30 16 1 6 16
M  V30 17 1 7 17
M  V30 18 1 9 18
M  V30 19 1 9 19
M  V30 20 1 10 20
M  V30 END BOND
M  V30 END CTAB
M  END
>  <Structure No>
2102

>  <LogS>
-0.744727146

>  <MMFF94 Energy>
24.245

$$$$
Compound 2103
Actelion Java MolfileCreator 2.0

  0  0  0  0  0  0              0 V3000
M  V30 BEGIN CTAB
M  V30 COUNTS 14 14 0 0 0
M  V30 BEGIN ATOM
M  V30 1 N 2.3231 0.0 -0.1547 0
M  V30 2 C 0.8966 -0.0171 -0.059 0
M  V30 3 C 0.2193 -1.2218 0.1839 0
M  V30 4 C 0.1641 1.1705 -0.2072 0
M  V30 5 C -1.1761 -1.237 0.2772 0
M  V30 6 C -1.2311 1.152 -0.1133 0
M  V30 7 C -1.901 -0.0509 0.1287 0
M  V30 8 H 2.8768 -0.8787 -0.0456 0
M  V30 9 H 2.836 0.8917 -0.3351 0
M  V30 10 H 0.7716 -2.1457 0.3004 0
M  V30 11 H 0.6736 2.1073 -0.3948 0
M  V30 12 H -1.6954 -2.1679 0.4647 0
M  V30 13 H -1.7931 2.0698 -0.2281 0
M  V30 14 H -2.9807 -0.0639 0.2012 0
M  V30 END ATOM
M  V30 BEGIN BOND
M  V30 1 1 1 2
M  V30 2 2 2 3
M  V30 3 1 2 4
M  V30 4 1 3 5
M  V30 5 2 4 6
M  V30 6 2 5 7
M  V30 7 1 6 7
M  V30 8 1 1 8
M  V30 9 1 1 9
M  V30 10 1 3 10
M  V30 11 1 4 11
M  V30 12 1 5 12
M  V30 13 1 6 13
M  V30 14 1 7 14
M  V30 END BOND
M  V30 END CTAB
M  END
>  <Structure No>
2103

>  <LogS>
-2.004092218

>  <MMFF94 Energy>
8.1449

$$$$
Compound 2104
Actelion Java MolfileCreator 2.0

  0  0  0  0  0  0              0 V3000
M  V30 BEGIN CTAB
M  V30 COUNTS 21 21 0 0 0
M  V30 BEGIN ATOM
M  V30 1 O 1.6591 1.1058 -1.2639 0
M  V30 2 C 0.9574 0.0682 -0.6232 0
M  V30 3 C 1.6878 -1.1834 -0.8943 0
M  V30 4 C 0.9375 0.3059 0.9182 0
M  V30 5 C -0.475 -0.0383 -1.2253 0
M  V30 6 C 2.2844 -2.2074 -1.1158 0
M  V30 7 C -0.327 1.0481 1.3662 0
M  V30 8 C -1.4689 -0.6343 -0.2215 0
M  V30 9 C -1.6023 0.2457 1.0381 0
M  V30 10 H 1.2201 1.9642 -1.0259 0
M  V30 11 H 0.9733 -0.6601 1.4723 0
M  V30 12 H 1.8345 0.8868 1.226 0
M  V30 13 H -0.4735 -0.65 -2.1552 0
M  V30 14 H -0.8444 0.9702 -1.515 0
M  V30 15 H 2.8077 -3.1063 -1.31 0
M  V30 16 H -0.3695 2.0373 0.8603 0
M  V30 17 H -0.2801 1.2363 2.4607 0
M  V30 18 H -1.1234 -1.6507 0.0692 0
M  V30 19 H -2.4643 -0.7446 -0.7035 0
M  V30 20 H -1.8593 -0.4065 1.901 0
M  V30 21 H -2.4443 0.959 0.9021 0
M  V30 END ATOM
M  V30 BEGIN BOND
M  V30 1 1 1 2
M  V30 2 1 2 3
M  V30 3 1 2 4
M  V30 4 1 2 5
M  V30 5 3 3 6
M  V30 6 1 4 7
M  V30 7 1 5 8
M  V30 8 1 7 9
M  V30 9 1 8 9
M  V30 10 1 1 10
M  V30 11 1 4 11
M  V30 12 1 4 12
M  V30 13 1 5 13
M  V30 14 1 5 14
M  V30 15 1 6 15
M  V30 16 1 7 16
M  V30 17 1 7 17
M  V30 18 1 8 18
M  V30 19 1 8 19
M  V30 20 1 9 20
M  V30 21 1 9 21
M  V30 END BOND
M  V30 END CTAB
M  END
>  <Structure No>
2104

>  <LogS>
-0.704896063

>  <MMFF94 Energy>
4.1097

$$$$
Compound 2105
Actelion Java MolfileCreator 2.0

  0  0  0  0  0  0              0 V3000
M  V30 BEGIN CTAB
M  V30 COUNTS 17 18 0 0 0
M  V30 BEGIN ATOM
M  V30 1 O -2.0011 2.7523 -0.5833 0
M  V30 2 C -1.982 1.522 -0.319 0
M  V30 3 O -3.1223 0.7348 -0.1674 0
M  V30 4 C -0.7878 0.7081 -0.1262 0
M  V30 5 C -2.6691 -0.5524 0.1157 0
M  V30 6 C -1.2117 -0.5703 0.1416 0
M  V30 7 C 0.5647 1.0372 -0.1762 0
M  V30 8 O -3.4228 -1.5404 0.3163 0
M  V30 9 C -0.3109 -1.604 0.3771 0
M  V30 10 C 1.5125 0.014 0.0577 0
M  V30 11 C 1.0625 -1.3054 0.334 0
M  V30 12 C 2.9586 0.3201 0.0141 0
M  V30 13 O 3.8113 -0.5838 0.221 0
M  V30 14 O 3.3971 1.6114 -0.2562 0 CHG=-1
M  V30 15 H 0.8667 2.0547 -0.3898 0
M  V30 16 H -0.6562 -2.608 0.5874 0
M  V30 17 H 1.7724 -2.1024 0.5158 0
M  V30 END ATOM
M  V30 BEGIN BOND
M  V30 1 2 1 2
M  V30 2 1 2 3
M  V30 3 1 2 4
M  V30 4 1 3 5
M  V30 5 2 4 6
M  V30 6 1 4 7
M  V30 7 2 5 8
M  V30 8 1 6 9
M  V30 9 2 7 10
M  V30 10 2 9 11
M  V30 11 1 10 12
M  V30 12 2 12 13
M  V30 13 1 12 14
M  V30 14 1 5 6
M  V30 15 1 10 11
M  V30 16 1 7 15
M  V30 17 1 9 16
M  V30 18 1 11 17
M  V30 END BOND
M  V30 END CTAB
M  END
>  <Structure No>
2105

>  <LogS>
-0.896196315

>  <MMFF94 Energy>
21.299

$$$$
Compound 2106
Actelion Java MolfileCreator 2.0

  0  0  0  0  0  0              0 V3000
M  V30 BEGIN CTAB
M  V30 COUNTS 34 33 0 0 0
M  V30 BEGIN ATOM
M  V30 1 O 0.0 2.1109 0.0781 0
M  V30 2 C 0.6362 1.0549 0.3502 0
M  V30 3 O -0.0126 -0.0178 0.9793 0
M  V30 4 C 2.1162 0.9668 0.0276 0
M  V30 5 C -1.4081 -0.042 1.2847 0
M  V30 6 C 2.904 1.9162 0.9616 0
M  V30 7 C 2.6243 -0.4822 0.1964 0
M  V30 8 C 2.3434 1.3929 -1.4372 0
M  V30 9 C -2.2013 -0.9322 0.2919 0
M  V30 10 O 2.6703 1.6114 2.3129 0
M  V30 11 C -2.1393 -0.361 -1.1479 0
M  V30 12 C -1.6522 -2.3757 0.3199 0
M  V30 13 C -3.6776 -0.9601 0.7408 0
M  V30 14 O -0.8544 -0.4914 -1.6932 0
M  V30 15 H -1.8303 0.9875 1.3131 0
M  V30 16 H -1.5186 -0.454 2.3113 0
M  V30 17 H 3.9949 1.8737 0.7308 0
M  V30 18 H 2.5819 2.9655 0.7858 0
M  V30 19 H 3.7099 -0.5464 -0.0324 0
M  V30 20 H 2.4693 -0.8432 1.2354 0
M  V30 21 H 2.0821 -1.1672 -0.4908 0
M  V30 22 H 1.7632 0.744 -2.1283 0
M  V30 23 H 3.419 1.3146 -1.7063 0
M  V30 24 H 2.0254 2.4452 -1.5992 0
M  V30 25 H 3.3796 0.9773 2.5939 0
M  V30 26 H -2.4349 0.7129 -1.1394 0
M  V30 27 H -2.8593 -0.9076 -1.7993 0
M  V30 28 H -2.2181 -3.0221 -0.3864 0
M  V30 29 H -1.7426 -2.8096 1.3396 0
M  V30 30 H -0.5801 -2.4023 0.0308 0
M  V30 31 H -4.2829 -1.6068 0.0689 0
M  V30 32 H -4.1129 0.0631 0.7222 0
M  V30 33 H -3.7683 -1.3581 1.775 0
M  V30 34 H -0.8914 -0.0747 -2.5931 0
M  V30 END ATOM
M  V30 BEGIN BOND
M  V30 1 2 1 2
M  V30 2 1 2 3
M  V30 3 1 2 4
M  V30 4 1 3 5
M  V30 5 1 4 6
M  V30 6 1 4 7
M  V30 7 1 4 8
M  V30 8 1 5 9
M  V30 9 1 6 10
M  V30 10 1 9 11
M  V30 11 1 9 12
M  V30 12 1 9 13
M  V30 13 1 11 14
M  V30 14 1 5 15
M  V30 15 1 5 16
M  V30 16 1 6 17
M  V30 17 1 6 18
M  V30 18 1 7 19
M  V30 19 1 7 20
M  V30 20 1 7 21
M  V30 21 1 8 22
M  V30 22 1 8 23
M  V30 23 1 8 24
M  V30 24 1 10 25
M  V30 25 1 11 26
M  V30 26 1 11 27
M  V30 27 1 12 28
M  V30 28 1 12 29
M  V30 29 1 12 30
M  V30 30 1 13 31
M  V30 31 1 13 32
M  V30 32 1 13 33
M  V30 33 1 14 34
M  V30 END BOND
M  V30 END CTAB
M  END
>  <Structure No>
2106

>  <LogS>
0.068201817

>  <MMFF94 Energy>
14.222

$$$$
Compound 2107
Actelion Java MolfileCreator 2.0

  0  0  0  0  0  0              0 V3000
M  V30 BEGIN CTAB
M  V30 COUNTS 60 64 0 0 0
M  V30 BEGIN ATOM
M  V30 1 Cl -6.4062 -1.2263 -4.1212 0
M  V30 2 C -5.872 -2.0135 -2.6532 0
M  V30 3 N -5.2907 -1.2858 -1.6672 0
M  V30 4 N -6.0403 -3.3506 -2.5012 0
M  V30 5 C -4.8822 -1.8912 -0.5223 0
M  V30 6 C -5.6267 -3.9613 -1.3628 0
M  V30 7 N -5.0461 -3.2311 -0.3767 0
M  V30 8 N -4.2491 -1.135 0.5171 0
M  V30 9 N -5.7981 -5.3675 -1.2038 0
M  V30 10 C -4.1879 0.299 0.5041 0
M  V30 11 C -2.9554 1.0004 0.635 0
M  V30 12 C -5.3937 1.0137 0.4372 0
M  V30 13 C -1.6947 0.3491 0.619 0
M  V30 14 C -2.9891 2.4139 0.7415 0
M  V30 15 C -5.4098 2.4061 0.5197 0
M  V30 16 O -1.6254 -1.0333 0.4164 0
M  V30 17 C -0.4995 1.0898 0.7682 0
M  V30 18 C -1.8048 3.1358 0.9186 0
M  V30 19 C -4.2105 3.1021 0.6781 0
M  V30 20 S -6.9406 3.2714 0.4205 0
M  V30 21 N 0.7412 0.3671 0.6954 0
M  V30 22 C -0.5636 2.4937 0.9713 0
M  V30 23 O -6.7936 4.653 0.9941 0
M  V30 24 O -7.9899 2.532 1.2028 0
M  V30 25 O -7.4134 3.3848 -1.187 0 CHG=-1
M  V30 26 N 1.8371 0.8835 0.3093 0
M  V30 27 S 0.8574 3.4862 1.351 0
M  V30 28 C 3.0554 0.129 0.2351 0
M  V30 29 O 0.4297 4.8 1.9445 0
M  V30 30 O 1.6396 3.7533 0.0962 0
M  V30 31 O 1.8258 2.7004 2.478 0 CHG=-1
M  V30 32 C 4.2458 0.7955 -0.0724 0
M  V30 33 C 3.0611 -1.2505 0.4481 0
M  V30 34 O 4.1568 2.1561 -0.3343 0 CHG=-1
M  V30 35 C 5.4829 0.094 -0.1347 0
M  V30 36 C 4.2393 -1.9921 0.3412 0
M  V30 37 C 6.7431 0.7389 -0.3766 0
M  V30 38 C 5.4606 -1.329 0.0454 0
M  V30 39 S 4.1386 -3.7491 0.5872 0
M  V30 40 S 6.9709 2.5026 -0.4741 0
M  V30 41 C 7.902 -0.0415 -0.5012 0
M  V30 42 C 6.6609 -2.0577 -0.075 0
M  V30 43 O 2.7203 -4.167 0.8553 0
M  V30 44 O 4.9865 -4.1437 1.7633 0
M  V30 45 O 4.6735 -4.5437 -0.7931 0 CHG=-1
M  V30 46 O 6.3234 3.0357 -1.7228 0
M  V30 47 O 8.4351 2.8435 -0.5159 0
M  V30 48 O 6.3112 3.2423 0.8851 0 CHG=-1
M  V30 49 C 7.8588 -1.4196 -0.3581 0
M  V30 50 H -3.8471 -1.6459 1.3352 0
M  V30 51 H -5.4739 -5.843 -0.3331 0
M  V30 52 H -6.2628 -5.9315 -1.95 0
M  V30 53 H -6.3289 0.4755 0.3418 0
M  V30 54 H -0.7556 -1.5511 0.3876 0
M  V30 55 H -1.8534 4.2127 1.031 0
M  V30 56 H -4.2273 4.1837 0.747 0
M  V30 57 H 2.1311 -1.7534 0.6783 0
M  V30 58 H 8.8618 0.4168 -0.7011 0
M  V30 59 H 6.6959 -3.1304 0.0429 0
M  V30 60 H 8.7685 -1.9992 -0.4522 0
M  V30 END ATOM
M  V30 BEGIN BOND
M  V30 1 1 1 2
M  V30 2 2 2 3
M  V30 3 1 2 4
M  V30 4 1 3 5
M  V30 5 2 4 6
M  V30 6 2 5 7
M  V30 7 1 5 8
M  V30 8 1 6 9
M  V30 9 1 8 10
M  V30 10 1 10 11
M  V30 11 2 10 12
M  V30 12 2 11 13
M  V30 13 1 11 14
M  V30 14 1 12 15
M  V30 15 1 13 16
M  V30 16 1 13 17
M  V30 17 2 14 18
M  V30 18 1 14 19
M  V30 19 1 15 20
M  V30 20 1 17 21
M  V30 21 2 17 22
M  V30 22 2 20 23
M  V30 23 2 20 24
M  V30 24 1 20 25
M  V30 25 2 21 26
M  V30 26 1 22 27
M  V30 27 1 26 28
M  V30 28 2 27 29
M  V30 29 2 27 30
M  V30 30 1 27 31
M  V30 31 2 28 32
M  V30 32 1 28 33
M  V30 33 1 32 34
M  V30 34 1 32 35
M  V30 35 2 33 36
M  V30 36 2 35 37
M  V30 37 1 35 38
M  V30 38 1 36 39
M  V30 39 1 37 40
M  V30 40 1 37 41
M  V30 41 2 38 42
M  V30 42 2 39 43
M  V30 43 2 39 44
M  V30 44 1 39 45
M  V30 45 2 40 46
M  V30 46 2 40 47
M  V30 47 1 40 48
M  V30 48 2 41 49
M  V30 49 1 6 7
M  V30 50 2 15 19
M  V30 51 1 18 22
M  V30 52 1 36 38
M  V30 53 1 42 49
M  V30 54 1 8 50
M  V30 55 1 9 51
M  V30 56 1 9 52
M  V30 57 1 12 53
M  V30 58 1 16 54
M  V30 59 1 18 55
M  V30 60 1 19 56
M  V30 61 1 33 57
M  V30 62 1 41 58
M  V30 63 1 42 59
M  V30 64 1 49 60
M  V30 END BOND
M  V30 END CTAB
M  END
>  <Structure No>
2107

>  <LogS>
-0.590781442

>  <MMFF94 Energy>
337.16

$$$$
Compound 2108
Actelion Java MolfileCreator 2.0

  0  0  0  0  0  0              0 V3000
M  V30 BEGIN CTAB
M  V30 COUNTS 12 11 0 0 0
M  V30 BEGIN ATOM
M  V30 1 O 0.0 1.5763 -0.15 0
M  V30 2 C 0.0329 0.3199 -0.0504 0
M  V30 3 N -1.173 -0.4393 -0.175 0
M  V30 4 N 1.2766 -0.3463 0.1858 0
M  V30 5 N -2.3994 0.1975 -0.4236 0
M  V30 6 N 2.4717 0.3825 0.294 0
M  V30 7 H -1.1301 -1.4825 -0.1176 0
M  V30 8 H 1.2965 -1.3903 0.2399 0
M  V30 9 H -2.6523 0.7288 0.4404 0
M  V30 10 H -3.1256 -0.5456 -0.5395 0
M  V30 11 H 2.4248 0.9216 1.1884 0
M  V30 12 H 3.2536 -0.3033 0.4002 0
M  V30 END ATOM
M  V30 BEGIN BOND
M  V30 1 2 1 2
M  V30 2 1 2 3
M  V30 3 1 2 4
M  V30 4 1 3 5
M  V30 5 1 4 6
M  V30 6 1 3 7
M  V30 7 1 4 8
M  V30 8 1 5 9
M  V30 9 1 5 10
M  V30 10 1 6 11
M  V30 11 1 6 12
M  V30 END BOND
M  V30 END CTAB
M  END
>  <Structure No>
2108

>  <LogS>
0.414558554

>  <MMFF94 Energy>
66.196

$$$$
Compound 2109
Actelion Java MolfileCreator 2.0

  0  0  0  0  0  0              0 V3000
M  V30 BEGIN CTAB
M  V30 COUNTS 18 17 0 0 0
M  V30 BEGIN ATOM
M  V30 1 O 0.9927 1.5276 -0.7635 0
M  V30 2 C 0.8824 0.5209 0.2118 0 CFG=1
M  V30 3 C 0.1036 -0.6983 -0.3272 0
M  V30 4 C 2.2729 0.1084 0.7063 0
M  V30 5 C -1.2977 -0.3446 -0.853 0
M  V30 6 C -2.26 0.0741 0.2582 0
M  V30 7 H 1.4782 1.1417 -1.5393 0
M  V30 8 H 0.3372 0.9417 1.0828 0
M  V30 9 H 0.0119 -1.466 0.4725 0
M  V30 10 H 0.6801 -1.1583 -1.1597 0
M  V30 11 H 2.8662 -0.3379 -0.12 0
M  V30 12 H 2.8132 0.9982 1.0937 0
M  V30 13 H 2.1829 -0.6337 1.5279 0
M  V30 14 H -1.234 0.4623 -1.6142 0
M  V30 15 H -1.7182 -1.2425 -1.3554 0
M  V30 16 H -3.2818 0.186 -0.1618 0
M  V30 17 H -2.2898 -0.6956 1.0584 0
M  V30 18 H -1.9584 1.0495 0.6927 0
M  V30 END ATOM
M  V30 BEGIN BOND
M  V30 1 1 1 2
M  V30 2 1 2 3
M  V30 3 1 2 4
M  V30 4 1 3 5
M  V30 5 1 5 6
M  V30 6 1 1 7
M  V30 7 1 2 8
M  V30 8 1 3 9
M  V30 9 1 3 10
M  V30 10 1 4 11
M  V30 11 1 4 12
M  V30 12 1 4 13
M  V30 13 1 5 14
M  V30 14 1 5 15
M  V30 15 1 6 16
M  V30 16 1 6 17
M  V30 17 1 6 18
M  V30 END BOND
M  V30 BEGIN COLLECTION
M  V30 MDLV30/STEABS ATOMS=(1 2)
M  V30 END COLLECTION
M  V30 END CTAB
M  END
>  <Structure No>
2109

>  <LogS>
-0.254140825

>  <MMFF94 Energy>
2.0325

$$$$
Compound 2110
Actelion Java MolfileCreator 2.0

  0  0  0  0  0  0              0 V3000
M  V30 BEGIN CTAB
M  V30 COUNTS 20 20 0 0 0
M  V30 BEGIN ATOM
M  V30 1 O -0.556 -0.715 -2.544 0
M  V30 2 C 0.0215 -0.3625 -1.4808 0
M  V30 3 O 1.3454 -0.4572 -1.4057 0
M  V30 4 C -0.7253 0.1085 -0.3822 0
M  V30 5 C 2.0325 -0.1218 -0.3183 0
M  V30 6 C -0.0216 0.5015 0.776 0
M  V30 7 C -2.2022 0.167 -0.4604 0
M  V30 8 C 1.3659 0.3667 0.8089 0
M  V30 9 C 3.5203 -0.2621 -0.3119 0
M  V30 10 O -0.6596 1.0532 1.8886 0
M  V30 11 O -2.7496 0.7745 -1.4189 0
M  V30 12 C -3.0648 -0.5403 0.5382 0
M  V30 13 H 1.9199 0.658 1.6931 0
M  V30 14 H 3.9904 0.7338 -0.1718 0
M  V30 15 H 3.871 -0.6916 -1.2739 0
M  V30 16 H 3.8316 -0.9351 0.5143 0
M  V30 17 H -1.6425 1.2904 1.8989 0
M  V30 18 H -2.4485 -1.0733 1.2928 0
M  V30 19 H -3.7001 -1.2849 0.0148 0
M  V30 20 H -3.7197 0.1927 1.0536 0
M  V30 END ATOM
M  V30 BEGIN BOND
M  V30 1 2 1 2
M  V30 2 1 2 3
M  V30 3 1 2 4
M  V30 4 1 3 5
M  V30 5 2 4 6
M  V30 6 1 4 7
M  V30 7 2 5 8
M  V30 8 1 5 9
M  V30 9 1 6 10
M  V30 10 2 7 11
M  V30 11 1 7 12
M  V30 12 1 6 8
M  V30 13 1 8 13
M  V30 14 1 9 14
M  V30 15 1 9 15
M  V30 16 1 9 16
M  V30 17 1 10 17
M  V30 18 1 12 18
M  V30 19 1 12 19
M  V30 20 1 12 20
M  V30 END BOND
M  V30 END CTAB
M  END
>  <Structure No>
2110

>  <LogS>
0.084561332

>  <MMFF94 Energy>
4.5742

$$$$
Compound 2111
Actelion Java MolfileCreator 2.0

  0  0  0  0  0  0              0 V3000
M  V30 BEGIN CTAB
M  V30 COUNTS 16 16 0 0 0
M  V30 BEGIN ATOM
M  V30 1 O -2.0303 -2.1084 -0.2341 0
M  V30 2 C -1.2677 -0.9585 -0.0421 0
M  V30 3 C 0.1052 -0.987 -0.3128 0
M  V30 4 C -1.8619 0.2234 0.4211 0
M  V30 5 C 0.8876 0.1653 -0.1341 0
M  V30 6 C -1.0844 1.3679 0.6177 0
M  V30 7 C 0.2869 1.3392 0.3479 0
M  V30 8 C 2.3655 0.1218 -0.3865 0
M  V30 9 H -3.0261 -2.1207 -0.0464 0
M  V30 10 H 0.5598 -1.9061 -0.6622 0
M  V30 11 H -2.9231 0.2542 0.6336 0
M  V30 12 H -1.5442 2.2771 0.9831 0
M  V30 13 H 0.8791 2.2308 0.5136 0
M  V30 14 H 2.6034 -0.6018 -1.195 0
M  V30 15 H 2.7393 1.1202 -0.6987 0
M  V30 16 H 2.8894 -0.187 0.5418 0
M  V30 END ATOM
M  V30 BEGIN BOND
M  V30 1 1 1 2
M  V30 2 2 2 3
M  V30 3 1 2 4
M  V30 4 1 3 5
M  V30 5 2 4 6
M  V30 6 2 5 7
M  V30 7 1 5 8
M  V30 8 1 6 7
M  V30 9 1 1 9
M  V30 10 1 3 10
M  V30 11 1 4 11
M  V30 12 1 6 12
M  V30 13 1 7 13
M  V30 14 1 8 14
M  V30 15 1 8 15
M  V30 16 1 8 16
M  V30 END BOND
M  V30 END CTAB
M  END
>  <Structure No>
2111

>  <LogS>
-0.662918503

>  <MMFF94 Energy>
7.844

$$$$
Compound 2112
Actelion Java MolfileCreator 2.0

  0  0  0  0  0  0              0 V3000
M  V30 BEGIN CTAB
M  V30 COUNTS 6 5 0 0 0
M  V30 BEGIN ATOM
M  V30 1 S 1.1469 0.4095 0.6553 0
M  V30 2 C -0.4865 -0.0714 0.0276 0
M  V30 3 H 1.7703 0.1421 -0.5782 0
M  V30 4 H -0.4611 -1.1298 -0.3045 0
M  V30 5 H -1.2393 0.0426 0.8347 0
M  V30 6 H -0.7633 0.5792 -0.8276 0
M  V30 END ATOM
M  V30 BEGIN BOND
M  V30 1 1 1 2
M  V30 2 1 1 3
M  V30 3 1 2 4
M  V30 4 1 2 5
M  V30 5 1 2 6
M  V30 END BOND
M  V30 END CTAB
M  END
>  <Structure No>
2112

>  <LogS>
-0.314879436

>  <MMFF94 Energy>
0.6064

$$$$
Compound 2113
Actelion Java MolfileCreator 2.0

  0  0  0  0  0  0              0 V3000
M  V30 BEGIN CTAB
M  V30 COUNTS 16 16 0 0 0
M  V30 BEGIN ATOM
M  V30 1 O 2.5022 -0.2343 -1.0941 0
M  V30 2 C 1.4343 -0.615 -0.2591 0 CFG=1
M  V30 3 C 2.3455 0.4938 0.1034 0
M  V30 4 C 0.0813 -0.2297 -0.8614 0
M  V30 5 C -0.972 -0.0996 0.2418 0
M  V30 6 C -2.3372 0.2593 -0.3376 0
M  V30 7 H 1.6 -1.6091 0.2072 0
M  V30 8 H 2.0037 1.5315 -0.096 0
M  V30 9 H 3.1469 0.2485 0.8308 0
M  V30 10 H -0.2227 -1.0277 -1.5727 0
M  V30 11 H 0.1509 0.726 -1.4279 0
M  V30 12 H -0.6653 0.6928 0.9591 0
M  V30 13 H -1.0565 -1.0611 0.7943 0
M  V30 14 H -2.6774 -0.5299 -1.0414 0
M  V30 15 H -2.2858 1.2315 -0.8729 0
M  V30 16 H -3.0789 0.3456 0.4843 0
M  V30 END ATOM
M  V30 BEGIN BOND
M  V30 1 1 1 2
M  V30 2 1 1 3
M  V30 3 1 2 4
M  V30 4 1 4 5
M  V30 5 1 5 6
M  V30 6 1 2 3
M  V30 7 1 2 7
M  V30 8 1 3 8
M  V30 9 1 3 9
M  V30 10 1 4 10
M  V30 11 1 4 11
M  V30 12 1 5 12
M  V30 13 1 5 13
M  V30 14 1 6 14
M  V30 15 1 6 15
M  V30 16 1 6 16
M  V30 END BOND
M  V30 BEGIN COLLECTION
M  V30 MDLV30/STEABS ATOMS=(1 2)
M  V30 END COLLECTION
M  V30 END CTAB
M  END
>  <Structure No>
2113

>  <LogS>
-0.57344678

>  <MMFF94 Energy>
5.176

$$$$
Compound 2114
Actelion Java MolfileCreator 2.0

  0  0  0  0  0  0              0 V3000
M  V30 BEGIN CTAB
M  V30 COUNTS 45 47 0 0 0
M  V30 BEGIN ATOM
M  V30 1 S 6.6804 2.5013 0.9166 0
M  V30 2 O 6.3368 3.8791 0.4247 0
M  V30 3 O 7.8157 1.9639 0.0917 0
M  V30 4 O 7.1481 2.583 2.5273 0 CHG=-1
M  V30 5 C 5.2799 1.4447 0.7665 0
M  V30 6 C 3.9899 1.9715 0.8575 0
M  V30 7 C 5.4541 0.0718 0.58 0
M  V30 8 C 2.8689 1.143 0.7502 0
M  V30 9 C 4.3439 -0.7789 0.4695 0
M  V30 10 O 1.6135 1.7335 0.8534 0 CHG=-1
M  V30 11 C 3.0254 -0.254 0.5511 0
M  V30 12 C 4.5445 -2.1489 0.2726 0
M  V30 13 C 1.9185 -1.1383 0.4146 0
M  V30 14 C 3.46 -3.0136 0.1841 0
M  V30 15 N 0.5852 -0.6049 0.3874 0
M  V30 16 C 2.1502 -2.5323 0.2785 0
M  V30 17 N -0.3322 -1.0965 -0.3441 0
M  V30 18 N 1.0764 -3.4823 0.3037 0
M  V30 19 C -1.6641 -0.5623 -0.3698 0
M  V30 20 C -2.637 -1.1503 -1.2081 0
M  V30 21 C -2.0149 0.5341 0.4373 0
M  V30 22 C -3.9435 -0.6236 -1.218 0
M  V30 23 C -2.2796 -2.3425 -2.0699 0
M  V30 24 C -3.3112 1.0485 0.4117 0
M  V30 25 C -4.2818 0.4847 -0.4295 0
M  V30 26 F -1.913 -3.4025 -1.2609 0
M  V30 27 F -1.22 -2.0172 -2.8974 0
M  V30 28 F -3.3416 -2.7436 -2.8621 0
M  V30 29 N -5.6317 0.981 -0.4534 0
M  V30 30 C -5.9852 2.3626 -0.2862 0
M  V30 31 O -5.1064 3.264 -0.3501 0
M  V30 32 C -7.42 2.7493 -0.1328 0
M  V30 33 H 3.8495 3.0336 1.016 0
M  V30 34 H 6.4576 -0.3337 0.5218 0
M  V30 35 H 5.5462 -2.5571 0.2059 0
M  V30 36 H 3.6427 -4.0747 0.0696 0
M  V30 37 H 0.1517 -3.254 0.7287 0
M  V30 38 H 1.2477 -4.4807 0.0493 0
M  V30 39 H -1.2882 0.9894 1.0979 0
M  V30 40 H -4.7072 -1.0638 -1.8463 0
M  V30 41 H -3.5588 1.8694 1.0712 0
M  V30 42 H -6.3982 0.3102 -0.6885 0
M  V30 43 H -7.5021 3.7503 0.3413 0
M  V30 44 H -7.9449 2.0092 0.5068 0
M  V30 45 H -7.9037 2.7779 -1.1311 0
M  V30 END ATOM
M  V30 BEGIN BOND
M  V30 1 2 1 2
M  V30 2 2 1 3
M  V30 3 1 1 4
M  V30 4 1 1 5
M  V30 5 1 5 6
M  V30 6 2 5 7
M  V30 7 2 6 8
M  V30 8 1 7 9
M  V30 9 1 8 10
M  V30 10 1 8 11
M  V30 11 2 9 12
M  V30 12 2 11 13
M  V30 13 1 12 14
M  V30 14 1 13 15
M  V30 15 1 13 16
M  V30 16 2 15 17
M  V30 17 1 16 18
M  V30 18 1 17 19
M  V30 19 2 19 20
M  V30 20 1 19 21
M  V30 21 1 20 22
M  V30 22 1 20 23
M  V30 23 2 21 24
M  V30 24 2 22 25
M  V30 25 1 23 26
M  V30 26 1 23 27
M  V30 27 1 23 28
M  V30 28 1 25 29
M  V30 29 1 29 30
M  V30 30 2 30 31
M  V30 31 1 30 32
M  V30 32 1 9 11
M  V30 33 2 14 16
M  V30 34 1 24 25
M  V30 35 1 6 33
M  V30 36 1 7 34
M  V30 37 1 12 35
M  V30 38 1 14 36
M  V30 39 1 18 37
M  V30 40 1 18 38
M  V30 41 1 21 39
M  V30 42 1 22 40
M  V30 43 1 24 41
M  V30 44 1 29 42
M  V30 45 1 32 43
M  V30 46 1 32 44
M  V30 47 1 32 45
M  V30 END BOND
M  V30 END CTAB
M  END
>  <Structure No>
2114

>  <LogS>
-1.328818198

>  <MMFF94 Energy>
154.05

$$$$
Compound 2115
Actelion Java MolfileCreator 2.0

  0  0  0  0  0  0              0 V3000
M  V30 BEGIN CTAB
M  V30 COUNTS 24 23 0 0 0
M  V30 BEGIN ATOM
M  V30 1 O 3.0258 -0.9302 0.5425 0
M  V30 2 C 2.3538 0.087 0.2251 0
M  V30 3 O 3.0146 1.291 0.0106 0 CHG=-1
M  V30 4 C 0.8837 0.003 0.0824 0
M  V30 5 C 0.1381 1.1421 -0.2721 0
M  V30 6 C 0.2094 -1.2135 0.2987 0
M  V30 7 C -1.2516 1.0639 -0.4072 0
M  V30 8 C -1.1803 -1.2857 0.1621 0
M  V30 9 C -1.9101 -0.1483 -0.1903 0
M  V30 10 N 0.1001 1.2529 -0.5201 0
M  V30 11 C -0.0179 -0.0741 0.0119 0 CHG=1
M  V30 12 N -1.3118 -0.6648 0.1968 0
M  V30 13 N 1.1615 -0.813 0.3499 0
M  V30 14 H 0.6266 2.0926 -0.4451 0
M  V30 15 H 0.7546 -2.1079 0.5728 0
M  V30 16 H -1.8183 1.9447 -0.6804 0
M  V30 17 H -1.6918 -2.2247 0.3299 0
M  V30 18 H -2.9858 -0.2064 -0.2955 0
M  V30 19 H 0.5275 1.8484 0.2245 0
M  V30 20 H -0.8588 1.6316 -0.6927 0
M  V30 21 H -1.187 -1.6265 0.587 0
M  V30 22 H -1.7379 -0.7778 -0.7505 0
M  V30 23 H 1.7532 -0.868 -0.5094 0
M  V30 24 H 1.6901 -0.2566 1.0589 0
M  V30 END ATOM
M  V30 BEGIN BOND
M  V30 1 2 1 2
M  V30 2 1 2 3
M  V30 3 1 2 4
M  V30 4 2 4 5
M  V30 5 1 4 6
M  V30 6 1 5 7
M  V30 7 2 6 8
M  V30 8 2 7 9
M  V30 9 1 10 11
M  V30 10 1 11 12
M  V30 11 1 11 13
M  V30 12 1 8 9
M  V30 13 1 5 14
M  V30 14 1 6 15
M  V30 15 1 7 16
M  V30 16 1 8 17
M  V30 17 1 9 18
M  V30 18 1 10 19
M  V30 19 1 10 20
M  V30 20 1 12 21
M  V30 21 1 12 22
M  V30 22 1 13 23
M  V30 23 1 13 24
M  V30 END BOND
M  V30 END CTAB
M  END
>  <Structure No>
2115

>  <LogS>
0.005016256

>  <MMFF94 Energy>
37.053

$$$$
Compound 2116
Actelion Java MolfileCreator 2.0

  0  0  0  0  0  0              0 V3000
M  V30 BEGIN CTAB
M  V30 COUNTS 18 18 0 0 0
M  V30 BEGIN ATOM
M  V30 1 O 2.7192 1.9188 0.7192 0
M  V30 2 C 2.4912 0.7892 1.2259 0
M  V30 3 O 2.3642 0.6657 2.6037 0 CHG=-1
M  V30 4 C 2.3869 -0.4196 0.351 0
M  V30 5 O 1.4481 -0.2016 -0.7021 0
M  V30 6 C 0.0543 -0.1277 -0.5449 0
M  V30 7 C -0.7259 0.1486 -1.6756 0
M  V30 8 C -0.5834 -0.323 0.6971 0
M  V30 9 C -2.118 0.2334 -1.5745 0
M  V30 10 C -1.9761 -0.2372 0.7943 0
M  V30 11 C -2.7428 0.041 -0.3399 0
M  V30 12 H 3.3832 -0.6139 -0.0977 0
M  V30 13 H 2.1045 -1.3168 0.9424 0
M  V30 14 H -0.2501 0.2996 -2.6363 0
M  V30 15 H -0.0169 -0.5423 1.5908 0
M  V30 16 H -2.712 0.4483 -2.4533 0
M  V30 17 H -2.4615 -0.3874 1.7501 0
M  V30 18 H -3.8203 0.1068 -0.2624 0
M  V30 END ATOM
M  V30 BEGIN BOND
M  V30 1 2 1 2
M  V30 2 1 2 3
M  V30 3 1 2 4
M  V30 4 1 4 5
M  V30 5 1 5 6
M  V30 6 2 6 7
M  V30 7 1 6 8
M  V30 8 1 7 9
M  V30 9 2 8 10
M  V30 10 2 9 11
M  V30 11 1 10 11
M  V30 12 1 4 12
M  V30 13 1 4 13
M  V30 14 1 7 14
M  V30 15 1 8 15
M  V30 16 1 9 16
M  V30 17 1 10 17
M  V30 18 1 11 18
M  V30 END BOND
M  V30 END CTAB
M  END
>  <Structure No>
2116

>  <LogS>
0.108595705

>  <MMFF94 Energy>
69.121

$$$$
Compound 2117
Actelion Java MolfileCreator 2.0

  0  0  0  0  0  0              0 V3000
M  V30 BEGIN CTAB
M  V30 COUNTS 68 70 0 0 0
M  V30 BEGIN ATOM
M  V30 1 S 1.3914 1.9648 -2.9483 0
M  V30 2 O 2.7419 1.4934 -2.4921 0
M  V30 3 O 1.5545 2.7784 -4.2021 0
M  V30 4 O 0.4183 0.6414 -3.3038 0 CHG=-1
M  V30 5 C 0.64 2.9489 -1.6819 0
M  V30 6 C -0.025 2.3684 -0.5747 0
M  V30 7 C 0.6759 4.3474 -1.8045 0
M  V30 8 C -0.6701 3.199 0.3553 0
M  V30 9 C -0.0494 0.904 -0.3454 0 CHG=1
M  V30 10 C 0.0501 5.1666 -0.8573 0
M  V30 11 C -0.6344 4.5869 0.2142 0
M  V30 12 C -1.3602 0.2089 -0.2816 0
M  V30 13 C 1.2203 0.1776 -0.081 0
M  V30 14 S 0.0957 6.9168 -1.0347 0
M  V30 15 C -1.5959 -0.7953 0.6695 0
M  V30 16 C -2.3924 0.5676 -1.1626 0
M  V30 17 C 1.3877 -1.1468 -0.5094 0
M  V30 18 C 2.2849 0.8176 0.5699 0
M  V30 19 O 1.3722 7.326 -1.7142 0
M  V30 20 O 0.0382 7.5698 0.3173 0
M  V30 21 O -1.2157 7.4195 -1.956 0 CHG=-1
M  V30 22 C -2.8364 -1.4354 0.7322 0
M  V30 23 C -3.6314 -0.0754 -1.104 0
M  V30 24 C 2.5938 -1.8174 -0.2937 0
M  V30 25 C 3.4934 0.1503 0.7837 0
M  V30 26 C -3.8726 -1.0841 -0.1523 0
M  V30 27 C 3.6748 -1.181 0.3523 0
M  V30 28 N -5.1617 -1.742 -0.0776 0
M  V30 29 N 4.9389 -1.8743 0.562 0
M  V30 30 C -5.2461 -3.1861 0.1934 0
M  V30 31 C -6.4104 -0.9838 -0.2688 0
M  V30 32 C 5.3184 -3.0394 -0.2558 0
M  V30 33 C 5.8953 -1.4271 1.5892 0
M  V30 34 C -5.7241 -3.4482 1.6201 0
M  V30 35 C -6.5673 0.0892 0.806 0
M  V30 36 C 4.924 -4.3428 0.4354 0
M  V30 37 C 6.9331 -0.4782 0.9926 0
M  V30 38 H 1.1861 4.8025 -2.6441 0
M  V30 39 H -1.1877 2.7688 1.2041 0
M  V30 40 H -1.1358 5.2085 0.9453 0
M  V30 41 H -0.8252 -1.0751 1.3758 0
M  V30 42 H -2.2344 1.3367 -1.9093 0
M  V30 43 H 0.5895 -1.6612 -1.03 0
M  V30 44 H 2.1843 1.8398 0.9135 0
M  V30 45 H -2.9874 -2.1944 1.4864 0
M  V30 46 H -4.3915 0.2117 -1.8162 0
M  V30 47 H 2.6661 -2.8373 -0.6378 0
M  V30 48 H 4.2829 0.6955 1.2788 0
M  V30 49 H -5.9514 -3.6605 -0.5235 0
M  V30 50 H -4.26 -3.6745 0.0384 0
M  V30 51 H -6.4344 -0.5196 -1.2756 0
M  V30 52 H -7.2928 -1.66 -0.2112 0
M  V30 53 H 4.8601 -2.9806 -1.2661 0
M  V30 54 H 6.4176 -3.0481 -0.4207 0
M  V30 55 H 6.4254 -2.3017 2.0233 0
M  V30 56 H 5.3675 -0.9399 2.4364 0
M  V30 57 H -5.723 -4.5409 1.8186 0
M  V30 58 H -6.7559 -3.0657 1.761 0
M  V30 59 H -5.0559 -2.9517 2.3532 0
M  V30 60 H -6.57 -0.3795 1.8133 0
M  V30 61 H -5.7391 0.8259 0.7487 0
M  V30 62 H -7.5296 0.6247 0.6582 0
M  V30 63 H 5.1577 -5.2001 -0.2293 0
M  V30 64 H 3.8406 -4.3576 0.6683 0
M  V30 65 H 5.4931 -4.4633 1.3799 0
M  V30 66 H 6.4439 0.3754 0.481 0
M  V30 67 H 7.5854 -0.0841 1.8008 0
M  V30 68 H 7.5672 -1.0174 0.2575 0
M  V30 END ATOM
M  V30 BEGIN BOND
M  V30 1 2 1 2
M  V30 2 2 1 3
M  V30 3 1 1 4
M  V30 4 1 1 5
M  V30 5 2 5 6
M  V30 6 1 5 7
M  V30 7 1 6 8
M  V30 8 1 6 9
M  V30 9 2 7 10
M  V30 10 2 8 11
M  V30 11 1 9 12
M  V30 12 1 9 13
M  V30 13 1 10 14
M  V30 14 2 12 15
M  V30 15 1 12 16
M  V30 16 2 13 17
M  V30 17 1 13 18
M  V30 18 2 14 19
M  V30 19 2 14 20
M  V30 20 1 14 21
M  V30 21 1 15 22
M  V30 22 2 16 23
M  V30 23 1 17 24
M  V30 24 2 18 25
M  V30 25 2 22 26
M  V30 26 2 24 27
M  V30 27 1 26 28
M  V30 28 1 27 29
M  V30 29 1 28 30
M  V30 30 1 28 31
M  V30 31 1 29 32
M  V30 32 1 29 33
M  V30 33 1 30 34
M  V30 34 1 31 35
M  V30 35 1 32 36
M  V30 36 1 33 37
M  V30 37 1 10 11
M  V30 38 1 23 26
M  V30 39 1 25 27
M  V30 40 1 7 38
M  V30 41 1 8 39
M  V30 42 1 11 40
M  V30 43 1 15 41
M  V30 44 1 16 42
M  V30 45 1 17 43
M  V30 46 1 18 44
M  V30 47 1 22 45
M  V30 48 1 23 46
M  V30 49 1 24 47
M  V30 50 1 25 48
M  V30 51 1 30 49
M  V30 52 1 30 50
M  V30 53 1 31 51
M  V30 54 1 31 52
M  V30 55 1 32 53
M  V30 56 1 32 54
M  V30 57 1 33 55
M  V30 58 1 33 56
M  V30 59 1 34 57
M  V30 60 1 34 58
M  V30 61 1 34 59
M  V30 62 1 35 60
M  V30 63 1 35 61
M  V30 64 1 35 62
M  V30 65 1 36 63
M  V30 66 1 36 64
M  V30 67 1 36 65
M  V30 68 1 37 66
M  V30 69 1 37 67
M  V30 70 1 37 68
M  V30 END BOND
M  V30 END CTAB
M  END
>  <Structure No>
2117

>  <LogS>
-0.406689269

>  <MMFF94 Energy>
169.18

$$$$
Compound 2118
Actelion Java MolfileCreator 2.0

  0  0  0  0  0  0              0 V3000
M  V30 BEGIN CTAB
M  V30 COUNTS 13 13 0 0 0
M  V30 BEGIN ATOM
M  V30 1 Cl -1.1375 2.8458 0.0 0
M  V30 2 C -0.3446 1.2784 0.0106 0
M  V30 3 C -1.1006 0.096 0.0335 0
M  V30 4 C 1.0539 1.2136 -0.0038 0
M  V30 5 O -2.4931 0.1592 0.048 0
M  V30 6 C -0.4479 -1.1458 0.0416 0
M  V30 7 C 1.6992 -0.0265 0.0043 0
M  V30 8 C 0.9488 -1.2053 0.0271 0
M  V30 9 H 1.6412 2.123 -0.0214 0
M  V30 10 H -3.0617 -0.6792 0.0646 0
M  V30 11 H -1.0216 -2.0636 0.0593 0
M  V30 12 H 2.7804 -0.0737 -0.0068 0
M  V30 13 H 1.4494 -2.1649 0.0334 0
M  V30 END ATOM
M  V30 BEGIN BOND
M  V30 1 1 1 2
M  V30 2 2 2 3
M  V30 3 1 2 4
M  V30 4 1 3 5
M  V30 5 1 3 6
M  V30 6 2 4 7
M  V30 7 2 6 8
M  V30 8 1 7 8
M  V30 9 1 4 9
M  V30 10 1 5 10
M  V30 11 1 6 11
M  V30 12 1 7 12
M  V30 13 1 8 13
M  V30 END BOND
M  V30 END CTAB
M  END
>  <Structure No>
2118

>  <LogS>
-0.753839202

>  <MMFF94 Energy>
23.84

$$$$
Compound 2119
Actelion Java MolfileCreator 2.0

  0  0  0  0  0  0              0 V3000
M  V30 BEGIN CTAB
M  V30 COUNTS 23 22 0 0 0
M  V30 BEGIN ATOM
M  V30 1 N -1.5214 -0.6083 -0.228 0 CHG=1
M  V30 2 C -0.4346 -0.0308 0.5995 0
M  V30 3 C -2.6659 -0.9661 0.6291 0
M  V30 4 C -1.9664 0.3292 -1.2771 0
M  V30 5 C 0.8964 0.0785 -0.1682 0
M  V30 6 C 2.037 0.5012 0.7659 0
M  V30 7 C 3.3543 0.6293 0.0062 0
M  V30 8 H -1.1812 -1.4868 -0.6868 0
M  V30 9 H -0.2568 -0.6821 1.4862 0
M  V30 10 H -0.7261 0.9738 0.983 0
M  V30 11 H -3.0699 -0.0696 1.151 0
M  V30 12 H -3.4793 -1.4255 0.025 0
M  V30 13 H -2.363 -1.7176 1.3913 0
M  V30 14 H -2.2559 1.3118 -0.8426 0
M  V30 15 H -1.1675 0.4855 -2.0314 0
M  V30 16 H -2.8399 -0.0843 -1.8278 0
M  V30 17 H 1.1433 -0.9047 -0.6249 0
M  V30 18 H 0.8041 0.8343 -0.9765 0
M  V30 19 H 2.1613 -0.2534 1.5731 0
M  V30 20 H 1.7946 1.4804 1.2338 0
M  V30 21 H 3.6311 -0.3437 -0.4525 0
M  V30 22 H 3.2675 1.3993 -0.7898 0
M  V30 23 H 4.1597 0.9332 0.7076 0
M  V30 END ATOM
M  V30 BEGIN BOND
M  V30 1 1 1 2
M  V30 2 1 1 3
M  V30 3 1 1 4
M  V30 4 1 2 5
M  V30 5 1 5 6
M  V30 6 1 6 7
M  V30 7 1 1 8
M  V30 8 1 2 9
M  V30 9 1 2 10
M  V30 10 1 3 11
M  V30 11 1 3 12
M  V30 12 1 3 13
M  V30 13 1 4 14
M  V30 14 1 4 15
M  V30 15 1 4 16
M  V30 16 1 5 17
M  V30 17 1 5 18
M  V30 18 1 6 19
M  V30 19 1 6 20
M  V30 20 1 7 21
M  V30 21 1 7 22
M  V30 22 1 7 23
M  V30 END BOND
M  V30 END CTAB
M  END
>  <Structure No>
2119

>  <LogS>
-0.667032464

>  <MMFF94 Energy>
6.8941

$$$$
Compound 2120
Actelion Java MolfileCreator 2.0

  0  0  0  0  0  0              0 V3000
M  V30 BEGIN CTAB
M  V30 COUNTS 89 96 0 0 0
M  V30 BEGIN ATOM
M  V30 1 S -7.5062 2.9805 0.5956 0
M  V30 2 O -8.9175 2.5059 0.7909 0
M  V30 3 O -7.5428 4.2325 -0.2339 0
M  V30 4 O -6.8627 3.3241 2.1094 0 CHG=-1
M  V30 5 C -6.4782 1.7677 -0.2246 0
M  V30 6 C -7.0292 0.5373 -0.6605 0
M  V30 7 C -5.1 2.0395 -0.4715 0
M  V30 8 N -8.411 0.2348 -0.4219 0
M  V30 9 C -6.2176 -0.3964 -1.3205 0
M  V30 10 C -4.2989 1.0721 -1.1409 0
M  V30 11 C -4.4946 3.2556 -0.0791 0
M  V30 12 N -9.0022 -0.7567 -0.9593 0
M  V30 13 C -4.8727 -0.138 -1.5604 0
M  V30 14 C -2.9355 1.3344 -1.383 0
M  V30 15 C -3.1465 3.5007 -0.3347 0
M  V30 16 C -10.3789 -1.0495 -0.695 0
M  V30 17 O -4.1114 -1.1014 -2.2157 0 CHG=-1
M  V30 18 C -2.3536 2.5406 -0.9672 0
M  V30 19 C -11.0831 -0.4061 0.3369 0
M  V30 20 C -11.0291 -2.0012 -1.4831 0
M  V30 21 N -0.9706 2.8329 -1.2209 0
M  V30 22 C -12.4335 -0.7088 0.5723 0
M  V30 23 C -12.3738 -2.3062 -1.265 0
M  V30 24 C 0.0958 1.91 -0.9577 0
M  V30 25 C -13.1007 -1.6696 -0.2353 0
M  V30 26 C -13.1233 -0.0607 1.6073 0
M  V30 27 O -0.1534 0.72 -0.6281 0
M  V30 28 N 1.4543 2.3569 -1.0659 0
M  V30 29 C -14.4687 -1.9583 0.0178 0
M  V30 30 C -14.4645 -0.3498 1.8459 0
M  V30 31 C 2.5435 1.8519 -0.271 0
M  V30 32 S -15.383 -3.1393 -0.9379 0
M  V30 33 C -15.1324 -1.286 1.0577 0
M  V30 34 C 3.8632 2.088 -0.6869 0
M  V30 35 C 2.3211 1.2104 0.9608 0
M  V30 36 O -14.7205 -4.4888 -0.8498 0
M  V30 37 O -15.44 -2.6919 -2.3719 0
M  V30 38 O -16.9545 -3.2748 -0.3572 0 CHG=-1
M  V30 39 C 4.9498 1.6724 0.1005 0
M  V30 40 C 3.3974 0.7883 1.7434 0
M  V30 41 C 4.7158 1.0194 1.3222 0
M  V30 42 C 6.3306 1.9958 -0.3202 0
M  V30 43 C 5.867 0.5936 2.1392 0
M  V30 44 C 7.4141 1.6472 0.4 0
M  V30 45 O 5.6861 0.0269 3.2518 0
M  V30 46 C 7.2373 0.7997 1.6314 0
M  V30 47 S 8.9686 2.3617 -0.0772 0
M  V30 48 N 8.1912 0.1423 2.2324 0
M  V30 49 O 9.6607 2.9293 1.1302 0
M  V30 50 O 8.7463 3.4856 -1.0512 0
M  V30 51 O 9.9378 1.2101 -0.8215 0 CHG=-1
M  V30 52 N 9.537 0.1074 1.8424 0
M  V30 53 C 10.0901 -1.0432 1.1852 0
M  V30 54 C 11.4745 -1.1154 0.9709 0
M  V30 55 C 9.2662 -2.0838 0.7309 0
M  V30 56 C 12.0522 -2.2148 0.3023 0
M  V30 57 C 9.817 -3.184 0.0737 0
M  V30 58 C 13.4508 -2.3093 0.0654 0
M  V30 59 C 11.1998 -3.2575 -0.1503 0
M  V30 60 S 14.5938 -1.0613 0.5966 0
M  V30 61 C 13.9579 -3.4303 -0.6126 0
M  V30 62 C 11.7382 -4.3603 -0.8269 0
M  V30 63 O 14.5219 -0.9201 2.0912 0
M  V30 64 O 14.2587 0.25 -0.0565 0
M  V30 65 O 16.1662 -1.4774 0.1737 0 CHG=-1
M  V30 66 C 13.1089 -4.4426 -1.0561 0
M  V30 67 H -6.6285 -1.343 -1.6478 0
M  V30 68 H -5.0466 4.037 0.4194 0
M  V30 69 H -2.33 0.6168 -1.9222 0
M  V30 70 H -2.7116 4.4444 -0.0229 0
M  V30 71 H -10.5799 0.3241 0.9613 0
M  V30 72 H -10.4901 -2.5007 -2.2796 0
M  V30 73 H -0.7059 3.8308 -1.3911 0
M  V30 74 H -12.8284 -3.0424 -1.9125 0
M  V30 75 H -12.6246 0.6696 2.2338 0
M  V30 76 H 1.6466 3.142 -1.7282 0
M  V30 77 H -14.99 0.1534 2.6475 0
M  V30 78 H -16.1741 -1.4859 1.2689 0
M  V30 79 H 4.0416 2.6143 -1.6181 0
M  V30 80 H 1.3193 1.0591 1.3395 0
M  V30 81 H 3.1972 0.2971 2.6867 0
M  V30 82 H 6.4488 2.591 -1.216 0
M  V30 83 H 10.1914 0.794 2.2785 0
M  V30 84 H 12.0834 -0.2976 1.3253 0
M  V30 85 H 8.1945 -2.0461 0.8777 0
M  V30 86 H 9.1583 -3.9757 -0.2669 0
M  V30 87 H 15.0177 -3.5247 -0.808 0
M  V30 88 H 11.097 -5.1614 -1.1776 0
M  V30 89 H 13.5156 -5.3002 -1.5777 0
M  V30 END ATOM
M  V30 BEGIN BOND
M  V30 1 2 1 2
M  V30 2 2 1 3
M  V30 3 1 1 4
M  V30 4 1 1 5
M  V30 5 2 5 6
M  V30 6 1 5 7
M  V30 7 1 6 8
M  V30 8 1 6 9
M  V30 9 1 7 10
M  V30 10 2 7 11
M  V30 11 2 8 12
M  V30 12 2 9 13
M  V30 13 2 10 14
M  V30 14 1 11 15
M  V30 15 1 12 16
M  V30 16 1 13 17
M  V30 17 1 14 18
M  V30 18 2 16 19
M  V30 19 1 16 20
M  V30 20 1 18 21
M  V30 21 1 19 22
M  V30 22 2 20 23
M  V30 23 1 21 24
M  V30 24 1 22 25
M  V30 25 2 22 26
M  V30 26 2 24 27
M  V30 27 1 24 28
M  V30 28 2 25 29
M  V30 29 1 26 30
M  V30 30 1 28 31
M  V30 31 1 29 32
M  V30 32 1 29 33
M  V30 33 2 31 34
M  V30 34 1 31 35
M  V30 35 2 32 36
M  V30 36 2 32 37
M  V30 37 1 32 38
M  V30 38 1 34 39
M  V30 39 2 35 40
M  V30 40 2 39 41
M  V30 41 1 39 42
M  V30 42 1 41 43
M  V30 43 2 42 44
M  V30 44 2 43 45
M  V30 45 1 43 46
M  V30 46 1 44 47
M  V30 47 2 46 48
M  V30 48 2 47 49
M  V30 49 2 47 50
M  V30 50 1 47 51
M  V30 51 1 48 52
M  V30 52 1 52 53
M  V30 53 2 53 54
M  V30 54 1 53 55
M  V30 55 1 54 56
M  V30 56 2 55 57
M  V30 57 2 56 58
M  V30 58 1 56 59
M  V30 59 1 58 60
M  V30 60 1 58 61
M  V30 61 2 59 62
M  V30 62 2 60 63
M  V30 63 2 60 64
M  V30 64 1 60 65
M  V30 65 2 61 66
M  V30 66 1 10 13
M  V30 67 2 15 18
M  V30 68 1 23 25
M  V30 69 2 30 33
M  V30 70 1 40 41
M  V30 71 1 44 46
M  V30 72 1 57 59
M  V30 73 1 62 66
M  V30 74 1 9 67
M  V30 75 1 11 68
M  V30 76 1 14 69
M  V30 77 1 15 70
M  V30 78 1 19 71
M  V30 79 1 20 72
M  V30 80 1 21 73
M  V30 81 1 23 74
M  V30 82 1 26 75
M  V30 83 1 28 76
M  V30 84 1 30 77
M  V30 85 1 33 78
M  V30 86 1 34 79
M  V30 87 1 35 80
M  V30 88 1 40 81
M  V30 89 1 42 82
M  V30 90 1 52 83
M  V30 91 1 54 84
M  V30 92 1 55 85
M  V30 93 1 57 86
M  V30 94 1 61 87
M  V30 95 1 62 88
M  V30 96 1 66 89
M  V30 END BOND
M  V30 END CTAB
M  END
>  <Structure No>
2120

>  <LogS>
-0.687217137

>  <MMFF94 Energy>
415.07

$$$$
Compound 2121
Actelion Java MolfileCreator 2.0

  0  0  0  0  0  0              0 V3000
M  V30 BEGIN CTAB
M  V30 COUNTS 29 29 0 0 0
M  V30 BEGIN ATOM
M  V30 1 O -2.8541 2.2193 -0.7921 0
M  V30 2 C -1.5961 2.247 -0.8407 0
M  V30 3 O -0.9651 2.8555 -1.9184 0 CHG=-1
M  V30 4 C -0.781 1.6241 0.2582 0
M  V30 5 C -0.4724 0.1001 0.0587 0
M  V30 6 C 0.4123 -0.3769 1.2728 0
M  V30 7 C 0.2832 -0.1135 -1.2938 0
M  V30 8 C -1.8387 -0.6711 0.0248 0
M  V30 9 C 1.8716 -0.6929 0.9036 0
M  V30 10 C 1.6765 0.5444 -1.3223 0
M  V30 11 N -1.7238 -2.1367 0.1049 0 CHG=1
M  V30 12 C 2.4584 0.3914 -0.0024 0
M  V30 13 H 0.1629 2.2003 0.3559 0
M  V30 14 H -1.326 1.7712 1.2172 0
M  V30 15 H -5.0E-4 -1.277 1.7675 0
M  V30 16 H 0.4273 0.392 2.0772 0
M  V30 17 H -0.3157 0.2648 -2.1492 0
M  V30 18 H 0.4292 -1.1949 -1.4894 0
M  V30 19 H -2.4831 -0.3223 0.8637 0
M  V30 20 H -2.3788 -0.4085 -0.9125 0
M  V30 21 H 1.9261 -1.678 0.3905 0
M  V30 22 H 2.479 -0.7658 1.8317 0
M  V30 23 H 1.5737 1.6245 -1.5626 0
M  V30 24 H 2.2621 0.0882 -2.1503 0
M  V30 25 H -1.7866 -2.4491 1.1006 0
M  V30 26 H -0.8373 -2.4955 -0.3097 0
M  V30 27 H -2.5242 -2.572 -0.4084 0
M  V30 28 H 3.5187 0.1444 -0.2264 0
M  V30 29 H 2.4568 1.3582 0.5468 0
M  V30 END ATOM
M  V30 BEGIN BOND
M  V30 1 2 1 2
M  V30 2 1 2 3
M  V30 3 1 2 4
M  V30 4 1 4 5
M  V30 5 1 5 6
M  V30 6 1 5 7
M  V30 7 1 5 8
M  V30 8 1 6 9
M  V30 9 1 7 10
M  V30 10 1 8 11
M  V30 11 1 9 12
M  V30 12 1 10 12
M  V30 13 1 4 13
M  V30 14 1 4 14
M  V30 15 1 6 15
M  V30 16 1 6 16
M  V30 17 1 7 17
M  V30 18 1 7 18
M  V30 19 1 8 19
M  V30 20 1 8 20
M  V30 21 1 9 21
M  V30 22 1 9 22
M  V30 23 1 10 23
M  V30 24 1 10 24
M  V30 25 1 11 25
M  V30 26 1 11 26
M  V30 27 1 11 27
M  V30 28 1 12 28
M  V30 29 1 12 29
M  V30 END BOND
M  V30 END CTAB
M  END
>  <Structure No>
2121

>  <LogS>
0.019021146

>  <MMFF94 Energy>
-87.328

$$$$
Compound 2122
Actelion Java MolfileCreator 2.0

  0  0  0  0  0  0              0 V3000
M  V30 BEGIN CTAB
M  V30 COUNTS 10 9 0 0 0
M  V30 BEGIN ATOM
M  V30 1 N -0.5791 1.0137 -0.6515 0 CHG=1
M  V30 2 C -0.0501 -1.0E-4 -0.0385 0
M  V30 3 N -0.8773 -0.9107 0.69 0
M  V30 4 N 1.3628 -0.2123 -0.0883 0
M  V30 5 H -1.6099 1.1797 -0.6228 0
M  V30 6 H 0.0141 1.686 -1.1871 0
M  V30 7 H -1.9115 -0.7747 0.7396 0
M  V30 8 H -0.455 -1.7274 1.1843 0
M  V30 9 H 1.7918 -1.0269 0.4036 0
M  V30 10 H 1.9856 0.4403 -0.6145 0
M  V30 END ATOM
M  V30 BEGIN BOND
M  V30 1 2 1 2
M  V30 2 1 2 3
M  V30 3 1 2 4
M  V30 4 1 1 5
M  V30 5 1 1 6
M  V30 6 1 3 7
M  V30 7 1 3 8
M  V30 8 1 4 9
M  V30 9 1 4 10
M  V30 END BOND
M  V30 END CTAB
M  END
>  <Structure No>
2122

>  <LogS>
1.352285044

>  <MMFF94 Energy>
-200.09

$$$$
Compound 2123
Actelion Java MolfileCreator 2.0

  0  0  0  0  0  0              0 V3000
M  V30 BEGIN CTAB
M  V30 COUNTS 30 29 0 0 0
M  V30 BEGIN ATOM
M  V30 1 O 1.4237 -2.5322 -1.1863 0
M  V30 2 C 2.1977 -1.7781 -0.5356 0
M  V30 3 O 1.6875 -0.7728 0.2904 0
M  V30 4 C 3.6774 -1.9279 -0.6799 0
M  V30 5 C 0.2912 -0.5488 0.4537 0
M  V30 6 C 4.2044 -0.9195 -1.6596 0
M  V30 7 C 0.0719 0.6156 1.4142 0
M  V30 8 O 3.9369 -1.03 -2.8468 0
M  V30 9 C 5.0613 0.2177 -1.1923 0
M  V30 10 O -1.3207 0.8233 1.6402 0
M  V30 11 C -2.1682 1.437 0.711 0
M  V30 12 O -1.7151 1.894 -0.3737 0
M  V30 13 C -3.6338 1.5112 0.9915 0
M  V30 14 C -4.3208 0.2828 0.4629 0
M  V30 15 O -4.1443 -0.7908 1.0186 0
M  V30 16 C -5.2191 0.3457 -0.7366 0
M  V30 17 H 4.1506 -1.7823 0.3149 0
M  V30 18 H 3.9298 -2.9526 -1.0285 0
M  V30 19 H -0.1875 -1.463 0.8675 0
M  V30 20 H -0.1641 -0.3149 -0.5324 0
M  V30 21 H 0.541 1.5416 1.0157 0
M  V30 22 H 0.5537 0.3757 2.3856 0
M  V30 23 H 4.5049 0.8193 -0.4434 0
M  V30 24 H 5.3406 0.8747 -2.0435 0
M  V30 25 H 5.9873 -0.1798 -0.7272 0
M  V30 26 H -4.0521 2.4301 0.5275 0
M  V30 27 H -3.8018 1.5854 2.0873 0
M  V30 28 H -5.2699 1.3743 -1.1509 0
M  V30 29 H -4.8323 -0.3333 -1.5248 0
M  V30 30 H -6.2428 0.0251 -0.4511 0
M  V30 END ATOM
M  V30 BEGIN BOND
M  V30 1 2 1 2
M  V30 2 1 2 3
M  V30 3 1 2 4
M  V30 4 1 3 5
M  V30 5 1 4 6
M  V30 6 1 5 7
M  V30 7 2 6 8
M  V30 8 1 6 9
M  V30 9 1 7 10
M  V30 10 1 10 11
M  V30 11 2 11 12
M  V30 12 1 11 13
M  V30 13 1 13 14
M  V30 14 2 14 15
M  V30 15 1 14 16
M  V30 16 1 4 17
M  V30 17 1 4 18
M  V30 18 1 5 19
M  V30 19 1 5 20
M  V30 20 1 7 21
M  V30 21 1 7 22
M  V30 22 1 9 23
M  V30 23 1 9 24
M  V30 24 1 9 25
M  V30 25 1 13 26
M  V30 26 1 13 27
M  V30 27 1 16 28
M  V30 28 1 16 29
M  V30 29 1 16 30
M  V30 END BOND
M  V30 END CTAB
M  END
>  <Structure No>
2123

>  <LogS>
-0.0337559

>  <MMFF94 Energy>
-35.644

$$$$
Compound 2124
Actelion Java MolfileCreator 2.0

  0  0  0  0  0  0              0 V3000
M  V30 BEGIN CTAB
M  V30 COUNTS 17 17 0 0 0
M  V30 BEGIN ATOM
M  V30 1 S 2.8404 0.1669 -0.1669 0
M  V30 2 O 3.3134 1.5469 0.195 0
M  V30 3 O 3.2862 -0.1442 -1.568 0
M  V30 4 O 3.5085 -0.9501 0.8943 0 CHG=-1
M  V30 5 C 1.0845 0.0916 -0.0675 0
M  V30 6 C 0.3683 -0.7852 -0.8938 0
M  V30 7 C 0.3953 0.8916 0.8544 0
M  V30 8 C -1.0257 -0.8528 -0.8075 0
M  V30 9 C -0.9988 0.8243 0.9408 0
M  V30 10 C -1.7162 -0.0474 0.1092 0
M  V30 11 N -3.1418 -0.1166 0.1978 0
M  V30 12 H 0.8874 -1.4176 -1.6027 0
M  V30 13 H 0.9353 1.5655 1.5073 0
M  V30 14 H -1.5671 -1.533 -1.453 0
M  V30 15 H -1.5192 1.4491 1.6558 0
M  V30 16 H -3.6649 0.4786 0.8784 0
M  V30 17 H -3.6848 -0.7635 -0.4166 0
M  V30 END ATOM
M  V30 BEGIN BOND
M  V30 1 2 1 2
M  V30 2 2 1 3
M  V30 3 1 1 4
M  V30 4 1 1 5
M  V30 5 2 5 6
M  V30 6 1 5 7
M  V30 7 1 6 8
M  V30 8 2 7 9
M  V30 9 2 8 10
M  V30 10 1 10 11
M  V30 11 1 9 10
M  V30 12 1 6 12
M  V30 13 1 7 13
M  V30 14 1 8 14
M  V30 15 1 9 15
M  V30 16 1 11 16
M  V30 17 1 11 17
M  V30 END BOND
M  V30 END CTAB
M  END
>  <Structure No>
2124

>  <LogS>
0.037955415

>  <MMFF94 Energy>
39.008

$$$$
Compound 2125
Actelion Java MolfileCreator 2.0

  0  0  0  0  0  0              0 V3000
M  V30 BEGIN CTAB
M  V30 COUNTS 12 12 0 0 0
M  V30 BEGIN ATOM
M  V30 1 O 0.0 -1.501 0.0 0
M  V30 2 C 1.0754 -0.7201 0.4869 0
M  V30 3 C -1.0528 -0.6771 -0.4651 0
M  V30 4 O 1.1927 0.5033 -0.2066 0
M  V30 5 O -1.1359 0.5297 0.2615 0
M  V30 6 C 0.0392 1.2913 0.038 0
M  V30 7 H 2.0146 -1.2931 0.3444 0
M  V30 8 H 0.9607 -0.5517 1.5828 0
M  V30 9 H -0.9331 -0.4823 -1.556 0
M  V30 10 H -2.0079 -1.2271 -0.3377 0
M  V30 11 H 0.2221 1.9347 0.9248 0
M  V30 12 H -0.1251 1.9634 -0.8308 0
M  V30 END ATOM
M  V30 BEGIN BOND
M  V30 1 1 1 2
M  V30 2 1 1 3
M  V30 3 1 2 4
M  V30 4 1 3 5
M  V30 5 1 4 6
M  V30 6 1 5 6
M  V30 7 1 2 7
M  V30 8 1 2 8
M  V30 9 1 3 9
M  V30 10 1 3 10
M  V30 11 1 6 11
M  V30 12 1 6 12
M  V30 END BOND
M  V30 END CTAB
M  END
>  <Structure No>
2125

>  <LogS>
0.371717126

>  <MMFF94 Energy>
-72.69

$$$$
Compound 2126
Actelion Java MolfileCreator 2.0

  0  0  0  0  0  0              0 V3000
M  V30 BEGIN CTAB
M  V30 COUNTS 5 4 0 0 0
M  V30 BEGIN ATOM
M  V30 1 S 0.0 0.0 0.0 0
M  V30 2 O 1.0911 -0.0039 -1.0324 0
M  V30 3 O 0.6095 -0.0233 1.3728 0
M  V30 4 O -0.9316 1.3863 -0.1752 0 CHG=-1
M  V30 5 O -0.9697 -1.3557 -0.205 0 CHG=-1
M  V30 END ATOM
M  V30 BEGIN BOND
M  V30 1 2 1 2
M  V30 2 2 1 3
M  V30 3 1 1 4
M  V30 4 1 1 5
M  V30 END BOND
M  V30 END CTAB
M  END
>  <Structure No>
2126

>  <LogS>
0.070295432

>  <MMFF94 Energy>
27.585

$$$$
Compound 2127
Actelion Java MolfileCreator 2.0

  0  0  0  0  0  0              0 V3000
M  V30 BEGIN CTAB
M  V30 COUNTS 29 30 0 0 0
M  V30 BEGIN ATOM
M  V30 1 Cl 1.159 -0.5793 -3.3141 0
M  V30 2 C 2.1155 -0.5154 -1.8395 0
M  V30 3 C 1.4999 -0.5298 -0.5729 0
M  V30 4 C 3.5073 -0.418 -1.9419 0
M  V30 5 N 0.0699 -0.63 -0.4751 0
M  V30 6 C 2.3029 -0.4763 0.5868 0
M  V30 7 C 4.2935 -0.3465 -0.791 0
M  V30 8 C -0.7444 0.3363 0.2173 0
M  V30 9 Cl 1.6043 -0.5923 2.1977 0
M  V30 10 C 3.6938 -0.3795 0.469 0
M  V30 11 C -2.0151 -0.0211 0.7355 0
M  V30 12 C -0.2935 1.6628 0.3621 0
M  V30 13 C -2.8018 0.9583 1.3681 0
M  V30 14 C -2.5609 -1.4241 0.6197 0
M  V30 15 C -1.083 2.6171 1.0049 0
M  V30 16 C -2.3356 2.2664 1.5047 0
M  V30 17 C -3.3146 -1.5917 -0.6621 0
M  V30 18 O -4.4244 -1.0189 -0.823 0
M  V30 19 O -2.7905 -2.3726 -1.6841 0 CHG=-1
M  V30 20 H 3.9812 -0.3956 -2.9149 0
M  V30 21 H -0.3984 -1.3678 -1.0451 0
M  V30 22 H 5.3699 -0.2728 -0.8756 0
M  V30 23 H 4.3135 -0.3405 1.3557 0
M  V30 24 H 0.666 1.9657 -0.0362 0
M  V30 25 H -3.7795 0.7068 1.7604 0
M  V30 26 H -1.7429 -2.1723 0.6851 0
M  V30 27 H -3.2446 -1.642 1.469 0
M  V30 28 H -0.7258 3.6336 1.1081 0
M  V30 29 H -2.9486 3.0103 1.9972 0
M  V30 END ATOM
M  V30 BEGIN BOND
M  V30 1 1 1 2
M  V30 2 2 2 3
M  V30 3 1 2 4
M  V30 4 1 3 5
M  V30 5 1 3 6
M  V30 6 2 4 7
M  V30 7 1 5 8
M  V30 8 1 6 9
M  V30 9 2 6 10
M  V30 10 2 8 11
M  V30 11 1 8 12
M  V30 12 1 11 13
M  V30 13 1 11 14
M  V30 14 2 12 15
M  V30 15 2 13 16
M  V30 16 1 14 17
M  V30 17 2 17 18
M  V30 18 1 17 19
M  V30 19 1 7 10
M  V30 20 1 15 16
M  V30 21 1 4 20
M  V30 22 1 5 21
M  V30 23 1 7 22
M  V30 24 1 10 23
M  V30 25 1 12 24
M  V30 26 1 13 25
M  V30 27 1 14 26
M  V30 28 1 14 27
M  V30 29 1 15 28
M  V30 30 1 16 29
M  V30 END BOND
M  V30 END CTAB
M  END
>  <Structure No>
2127

>  <LogS>
-1.174231848

>  <MMFF94 Energy>
81.284

$$$$
Compound 2128
Actelion Java MolfileCreator 2.0

  0  0  0  0  0  0              0 V3000
M  V30 BEGIN CTAB
M  V30 COUNTS 87 91 0 0 0
M  V30 BEGIN ATOM
M  V30 1 S 7.8142 7.7317 1.395 0
M  V30 2 O 8.7981 8.4581 2.2674 0
M  V30 3 O 6.598 7.3957 2.2117 0
M  V30 4 O 7.3771 8.7193 0.1062 0 CHG=-1
M  V30 5 C 8.5383 6.2518 0.7756 0
M  V30 6 C 7.7173 5.2026 0.3363 0
M  V30 7 C 9.9314 6.1221 0.702 0
M  V30 8 C 8.2894 4.0152 -0.1588 0
M  V30 9 C 10.5 4.9459 0.2091 0
M  V30 10 N 7.483 2.9137 -0.5907 0
M  V30 11 C 9.684 3.893 -0.2124 0
M  V30 12 N 6.2125 2.9855 -0.6431 0
M  V30 13 C 5.404 1.8749 -1.0482 0
M  V30 14 C 5.9633 0.613 -1.3138 0
M  V30 15 C 4.0239 2.0509 -1.16 0
M  V30 16 C 5.1379 -0.4744 -1.6641 0
M  V30 17 C 3.2003 0.9852 -1.5213 0
M  V30 18 O 5.6635 -1.7529 -1.9178 0
M  V30 19 C 3.7444 -0.2892 -1.7487 0
M  V30 20 C 7.0471 -2.081 -1.8634 0
M  V30 21 N 2.8992 -1.4015 -2.0885 0
M  V30 22 C 1.6568 -1.6827 -1.4296 0
M  V30 23 N 0.9045 -2.7391 -1.8343 0
M  V30 24 N 1.2333 -0.9197 -0.3897 0
M  V30 25 C -0.2663 -3.0354 -1.2076 0
M  V30 26 C 0.0521 -1.1869 0.2219 0
M  V30 27 N -0.6881 -2.2462 -0.1894 0
M  V30 28 N -1.048 -4.1783 -1.6076 0
M  V30 29 N -0.447 -0.2975 1.2332 0
M  V30 30 C -0.7564 -4.8818 -2.8632 0
M  V30 31 C -2.1028 -4.6953 -0.7206 0
M  V30 32 C -1.8548 -0.1729 1.4836 0
M  V30 33 C 0.3607 -5.9016 -2.6629 0
M  V30 34 C -3.4221 -3.9505 -0.9488 0
M  V30 35 C -2.4893 1.0663 1.2911 0
M  V30 36 C -2.6163 -1.2945 1.851 0
M  V30 37 O 0.6121 -6.5597 -3.8725 0
M  V30 38 O -4.391 -4.3738 -0.0221 0
M  V30 39 O -1.705 2.1801 0.9494 0
M  V30 40 C -3.8896 1.1528 1.4127 0
M  V30 41 C -4.0032 -1.1984 1.9766 0
M  V30 42 C -2.2238 3.4716 0.6544 0
M  V30 43 C -4.6506 0.0252 1.7373 0
M  V30 44 N -6.0758 0.1478 1.7894 0
M  V30 45 N -6.8294 -0.8331 2.09 0
M  V30 46 C -8.256 -0.7232 2.1169 0
M  V30 47 C -8.9092 0.5016 1.892 0
M  V30 48 C -9.0124 -1.8769 2.3561 0
M  V30 49 C -10.311 0.5667 1.9171 0
M  V30 50 C -10.4079 -1.8153 2.3634 0
M  V30 51 S -11.1289 2.098 1.6274 0
M  V30 52 C -11.0571 -0.5985 2.145 0
M  V30 53 O -10.3531 3.2145 2.2665 0
M  V30 54 O -12.5084 2.0648 2.2266 0
M  V30 55 O -11.2394 2.3682 -0.0269 0 CHG=-1
M  V30 56 H 6.6403 5.3106 0.3884 0
M  V30 57 H 10.5793 6.9269 1.0298 0
M  V30 58 H 11.5771 4.8471 0.1572 0
M  V30 59 H 10.1355 2.9816 -0.5865 0
M  V30 60 H 7.0338 0.484 -1.2352 0
M  V30 61 H 3.5826 3.0242 -0.9784 0
M  V30 62 H 2.1377 1.1587 -1.6275 0
M  V30 63 H 7.1742 -3.1565 -2.1008 0
M  V30 64 H 7.446 -1.8931 -0.8433 0
M  V30 65 H 7.6067 -1.4818 -2.6112 0
M  V30 66 H 3.2561 -2.1059 -2.7712 0
M  V30 67 H 0.1772 0.4849 1.536 0
M  V30 68 H -1.6657 -5.4073 -3.2247 0
M  V30 69 H -0.4735 -4.1499 -3.6522 0
M  V30 70 H -1.7899 -4.5978 0.3426 0
M  V30 71 H -2.2622 -5.7807 -0.9118 0
M  V30 72 H 1.2844 -5.3845 -2.3161 0
M  V30 73 H 0.0516 -6.642 -1.8891 0
M  V30 74 H -3.7816 -4.125 -1.9893 0
M  V30 75 H -3.2615 -2.8556 -0.8171 0
M  V30 76 H -2.1349 -2.2502 2.0175 0
M  V30 77 H 1.3572 -7.1942 -3.6938 0
M  V30 78 H -4.6155 -5.3168 -0.2528 0
M  V30 79 H -4.4051 2.087 1.2391 0
M  V30 80 H -4.5677 -2.0844 2.2364 0
M  V30 81 H -2.9085 3.415 -0.2211 0
M  V30 82 H -2.7606 3.8755 1.5365 0
M  V30 83 H -1.3795 4.1554 0.4133 0
M  V30 84 H -8.3352 1.398 1.6956 0
M  V30 85 H -8.519 -2.8254 2.5254 0
M  V30 86 H -10.9885 -2.7155 2.5301 0
M  V30 87 H -12.1397 -0.5671 2.1508 0
M  V30 END ATOM
M  V30 BEGIN BOND
M  V30 1 2 1 2
M  V30 2 2 1 3
M  V30 3 1 1 4
M  V30 4 1 1 5
M  V30 5 2 5 6
M  V30 6 1 5 7
M  V30 7 1 6 8
M  V30 8 2 7 9
M  V30 9 1 8 10
M  V30 10 2 8 11
M  V30 11 2 10 12
M  V30 12 1 12 13
M  V30 13 2 13 14
M  V30 14 1 13 15
M  V30 15 1 14 16
M  V30 16 2 15 17
M  V30 17 1 16 18
M  V30 18 2 16 19
M  V30 19 1 18 20
M  V30 20 1 19 21
M  V30 21 1 21 22
M  V30 22 2 22 23
M  V30 23 1 22 24
M  V30 24 1 23 25
M  V30 25 2 24 26
M  V30 26 2 25 27
M  V30 27 1 25 28
M  V30 28 1 26 29
M  V30 29 1 28 30
M  V30 30 1 28 31
M  V30 31 1 29 32
M  V30 32 1 30 33
M  V30 33 1 31 34
M  V30 34 2 32 35
M  V30 35 1 32 36
M  V30 36 1 33 37
M  V30 37 1 34 38
M  V30 38 1 35 39
M  V30 39 1 35 40
M  V30 40 2 36 41
M  V30 41 1 39 42
M  V30 42 2 40 43
M  V30 43 1 43 44
M  V30 44 2 44 45
M  V30 45 1 45 46
M  V30 46 2 46 47
M  V30 47 1 46 48
M  V30 48 1 47 49
M  V30 49 2 48 50
M  V30 50 1 49 51
M  V30 51 2 49 52
M  V30 52 2 51 53
M  V30 53 2 51 54
M  V30 54 1 51 55
M  V30 55 1 9 11
M  V30 56 1 17 19
M  V30 57 1 26 27
M  V30 58 1 41 43
M  V30 59 1 50 52
M  V30 60 1 6 56
M  V30 61 1 7 57
M  V30 62 1 9 58
M  V30 63 1 11 59
M  V30 64 1 14 60
M  V30 65 1 15 61
M  V30 66 1 17 62
M  V30 67 1 20 63
M  V30 68 1 20 64
M  V30 69 1 20 65
M  V30 70 1 21 66
M  V30 71 1 29 67
M  V30 72 1 30 68
M  V30 73 1 30 69
M  V30 74 1 31 70
M  V30 75 1 31 71
M  V30 76 1 33 72
M  V30 77 1 33 73
M  V30 78 1 34 74
M  V30 79 1 34 75
M  V30 80 1 36 76
M  V30 81 1 37 77
M  V30 82 1 38 78
M  V30 83 1 40 79
M  V30 84 1 41 80
M  V30 85 1 42 81
M  V30 86 1 42 82
M  V30 87 1 42 83
M  V30 88 1 47 84
M  V30 89 1 48 85
M  V30 90 1 50 86
M  V30 91 1 52 87
M  V30 END BOND
M  V30 END CTAB
M  END
>  <Structure No>
2128

>  <LogS>
-1.600815525

>  <MMFF94 Energy>
-38.28

$$$$
Compound 2129
Actelion Java MolfileCreator 2.0

  0  0  0  0  0  0              0 V3000
M  V30 BEGIN CTAB
M  V30 COUNTS 43 42 0 0 0
M  V30 BEGIN ATOM
M  V30 1 O -0.156 0.312 0.156 0
M  V30 2 C 1.1541 0.5707 0.6221 0
M  V30 3 C -1.0554 1.2627 0.686 0
M  V30 4 C 2.1732 -0.3983 -0.0426 0
M  V30 5 C -2.5311 0.9031 0.3408 0
M  V30 6 C 1.7046 -1.8684 0.1732 0
M  V30 7 C 2.2223 -0.074 -1.5638 0
M  V30 8 C 3.5612 -0.1381 0.6308 0
M  V30 9 C -2.9446 -0.4364 1.0195 0
M  V30 10 C -3.4407 2.0126 0.9489 0
M  V30 11 C -2.7755 0.88 -1.2079 0
M  V30 12 O 1.6553 -2.1967 1.5378 0
M  V30 13 O 2.9364 -1.0476 -2.2766 0
M  V30 14 C 4.7392 -0.9586 0.0945 0
M  V30 15 O -2.0565 -1.4769 0.7126 0
M  V30 16 O -3.1547 3.276 0.4038 0
M  V30 17 C -2.3121 -0.3695 -1.966 0
M  V30 18 H 1.1915 0.4418 1.7286 0
M  V30 19 H 1.4519 1.6209 0.3911 0
M  V30 20 H -0.8148 2.2667 0.2679 0
M  V30 21 H -0.9586 1.3171 1.7962 0
M  V30 22 H 2.3957 -2.5778 -0.3245 0
M  V30 23 H 0.7118 -2.0373 -0.306 0
M  V30 24 H 1.1898 -0.0259 -1.9764 0
M  V30 25 H 2.6927 0.9232 -1.721 0
M  V30 26 H 3.8265 0.9372 0.524 0
M  V30 27 H 3.4843 -0.3354 1.7227 0
M  V30 28 H -3.9722 -0.7166 0.6935 0
M  V30 29 H -2.9639 -0.3061 2.1259 0
M  V30 30 H -4.518 1.76 0.8019 0
M  V30 31 H -3.2827 2.0729 2.048 0
M  V30 32 H -2.2828 1.763 -1.6713 0
M  V30 33 H -3.8649 0.9835 -1.4097 0
M  V30 34 H 0.7389 -1.9841 1.8545 0
M  V30 35 H 2.936 -0.754 -3.2245 0
M  V30 36 H 4.5376 -2.0467 0.1475 0
M  V30 37 H 5.6351 -0.7526 0.7178 0
M  V30 38 H 4.9878 -0.6647 -0.9451 0
M  V30 39 H -2.4068 -2.2851 1.1698 0
M  V30 40 H -3.7589 3.402 -0.3734 0
M  V30 41 H -2.9137 -1.2542 -1.6718 0
M  V30 42 H -1.2372 -0.5765 -1.8112 0
M  V30 43 H -2.469 -0.2105 -3.0538 0
M  V30 END ATOM
M  V30 BEGIN BOND
M  V30 1 1 1 2
M  V30 2 1 1 3
M  V30 3 1 2 4
M  V30 4 1 3 5
M  V30 5 1 4 6
M  V30 6 1 4 7
M  V30 7 1 4 8
M  V30 8 1 5 9
M  V30 9 1 5 10
M  V30 10 1 5 11
M  V30 11 1 6 12
M  V30 12 1 7 13
M  V30 13 1 8 14
M  V30 14 1 9 15
M  V30 15 1 10 16
M  V30 16 1 11 17
M  V30 17 1 2 18
M  V30 18 1 2 19
M  V30 19 1 3 20
M  V30 20 1 3 21
M  V30 21 1 6 22
M  V30 22 1 6 23
M  V30 23 1 7 24
M  V30 24 1 7 25
M  V30 25 1 8 26
M  V30 26 1 8 27
M  V30 27 1 9 28
M  V30 28 1 9 29
M  V30 29 1 10 30
M  V30 30 1 10 31
M  V30 31 1 11 32
M  V30 32 1 11 33
M  V30 33 1 12 34
M  V30 34 1 13 35
M  V30 35 1 14 36
M  V30 36 1 14 37
M  V30 37 1 14 38
M  V30 38 1 15 39
M  V30 39 1 16 40
M  V30 40 1 17 41
M  V30 41 1 17 42
M  V30 42 1 17 43
M  V30 END BOND
M  V30 END CTAB
M  END
>  <Structure No>
2129

>  <LogS>
-1.076302279

>  <MMFF94 Energy>
40.588

$$$$
Compound 2130
Actelion Java MolfileCreator 2.0

  0  0  0  0  0  0              0 V3000
M  V30 BEGIN CTAB
M  V30 COUNTS 15 14 0 0 0
M  V30 BEGIN ATOM
M  V30 1 S -2.3474 -0.9708 -1.1327 0
M  V30 2 C -1.6932 -0.6677 0.5418 0
M  V30 3 C -0.9285 0.6555 0.6153 0
M  V30 4 C 0.3286 0.6058 -0.1963 0
M  V30 5 O 0.3648 1.1544 -1.3318 0
M  V30 6 O 1.4419 -0.077 0.3017 0
M  V30 7 C 2.6604 -0.1865 -0.4237 0
M  V30 8 H -3.2452 0.1118 -1.0643 0
M  V30 9 H -2.5447 -0.6388 1.2544 0
M  V30 10 H -1.0297 -1.5103 0.832 0
M  V30 11 H -0.6587 0.8571 1.6741 0
M  V30 12 H -1.5774 1.4895 0.2694 0
M  V30 13 H 3.0796 0.8235 -0.6173 0
M  V30 14 H 3.3896 -0.77 0.1747 0
M  V30 15 H 2.4833 -0.7108 -1.3867 0
M  V30 END ATOM
M  V30 BEGIN BOND
M  V30 1 1 1 2
M  V30 2 1 2 3
M  V30 3 1 3 4
M  V30 4 2 4 5
M  V30 5 1 4 6
M  V30 6 1 6 7
M  V30 7 1 1 8
M  V30 8 1 2 9
M  V30 9 1 2 10
M  V30 10 1 3 11
M  V30 11 1 3 12
M  V30 12 1 7 13
M  V30 13 1 7 14
M  V30 14 1 7 15
M  V30 END BOND
M  V30 END CTAB
M  END
>  <Structure No>
2130

>  <LogS>
-0.757587608

>  <MMFF94 Energy>
-13.435

$$$$
Compound 2131
Actelion Java MolfileCreator 2.0

  0  0  0  0  0  0              0 V3000
M  V30 BEGIN CTAB
M  V30 COUNTS 34 35 0 0 0
M  V30 BEGIN ATOM
M  V30 1 S 6.6487 -0.6634 -0.4975 0
M  V30 2 O 7.4772 0.5449 -0.163 0
M  V30 3 O 6.8416 -0.9937 -1.9507 0
M  V30 4 O 7.1475 -1.9622 0.4428 0 CHG=-1
M  V30 5 C 4.9497 -0.3295 -0.1809 0
M  V30 6 C 3.9541 -0.9698 -0.9296 0
M  V30 7 C 4.5837 0.5539 0.8424 0
M  V30 8 C 2.6041 -0.714 -0.6716 0
M  V30 9 C 3.2341 0.8098 1.102 0
M  V30 10 C 2.2325 0.1939 0.3366 0
M  V30 11 N 0.8508 0.4565 0.6375 0
M  V30 12 C -0.2005 0.4208 -0.3422 0
M  V30 13 O 0.0796 0.5633 -1.5641 0
M  V30 14 C -1.6181 0.27 0.0689 0
M  V30 15 C -2.6528 0.6414 -0.8061 0
M  V30 16 C -1.9501 -0.2711 1.3199 0
M  V30 17 C -4.0042 0.4933 -0.4429 0
M  V30 18 C -3.2848 -0.4105 1.6999 0
M  V30 19 N -5.029 0.8653 -1.3836 0 CHG=1
M  V30 20 C -4.3221 -0.0148 0.8409 0
M  V30 21 O -4.8172 1.772 -2.2153 0
M  V30 22 O -6.1816 0.1231 -1.4958 0 CHG=-1
M  V30 23 C -5.7446 -0.1466 1.3153 0
M  V30 24 H 4.2214 -1.6748 -1.7064 0
M  V30 25 H 5.3412 1.0419 1.4424 0
M  V30 26 H 1.8541 -1.2441 -1.2433 0
M  V30 27 H 2.9678 1.4955 1.8966 0
M  V30 28 H 0.6169 0.8018 1.5956 0
M  V30 29 H -2.4092 1.04 -1.7833 0
M  V30 30 H -1.1809 -0.6031 2.0048 0
M  V30 31 H -3.5084 -0.8252 2.6753 0
M  V30 32 H -5.7939 -0.2504 2.4204 0
M  V30 33 H -6.2094 -1.0456 0.8599 0
M  V30 34 H -6.3281 0.7581 1.044 0
M  V30 END ATOM
M  V30 BEGIN BOND
M  V30 1 2 1 2
M  V30 2 2 1 3
M  V30 3 1 1 4
M  V30 4 1 1 5
M  V30 5 2 5 6
M  V30 6 1 5 7
M  V30 7 1 6 8
M  V30 8 2 7 9
M  V30 9 2 8 10
M  V30 10 1 10 11
M  V30 11 1 11 12
M  V30 12 2 12 13
M  V30 13 1 12 14
M  V30 14 2 14 15
M  V30 15 1 14 16
M  V30 16 1 15 17
M  V30 17 2 16 18
M  V30 18 1 17 19
M  V30 19 2 17 20
M  V30 20 2 19 21
M  V30 21 1 19 22
M  V30 22 1 20 23
M  V30 23 1 9 10
M  V30 24 1 18 20
M  V30 25 1 6 24
M  V30 26 1 7 25
M  V30 27 1 8 26
M  V30 28 1 9 27
M  V30 29 1 11 28
M  V30 30 1 15 29
M  V30 31 1 16 30
M  V30 32 1 18 31
M  V30 33 1 23 32
M  V30 34 1 23 33
M  V30 35 1 23 34
M  V30 END BOND
M  V30 END CTAB
M  END
>  <Structure No>
2131

>  <LogS>
-1.232035998

>  <MMFF94 Energy>
91.065

$$$$
Compound 2132
Actelion Java MolfileCreator 2.0

  0  0  0  0  0  0              0 V3000
M  V30 BEGIN CTAB
M  V30 COUNTS 16 16 0 0 0
M  V30 BEGIN ATOM
M  V30 1 O -1.7056 -1.5504 0.8525 0
M  V30 2 C -1.0625 -1.2568 -0.3566 0
M  V30 3 C -0.4281 0.0995 -0.2854 0
M  V30 4 N -1.0724 1.2497 -0.5353 0
M  V30 5 C 0.853 0.4039 0.1275 0
M  V30 6 C -0.1722 2.2214 -0.2904 0
M  V30 7 N 1.0222 1.7415 0.1191 0
M  V30 8 C 1.915 -0.5667 0.5303 0
M  V30 9 H -0.9953 -1.8048 1.4978 0
M  V30 10 H -1.8156 -1.2632 -1.1721 0
M  V30 11 H -0.3023 -2.0336 -0.5961 0
M  V30 12 H -2.0626 1.3708 -0.8441 0
M  V30 13 H -0.3849 3.2764 -0.4017 0
M  V30 14 H 2.828 -0.0238 0.8532 0
M  V30 15 H 1.5524 -1.1918 1.3726 0
M  V30 16 H 2.1699 -1.2195 -0.33 0
M  V30 END ATOM
M  V30 BEGIN BOND
M  V30 1 1 1 2
M  V30 2 1 2 3
M  V30 3 1 3 4
M  V30 4 2 3 5
M  V30 5 1 4 6
M  V30 6 1 5 7
M  V30 7 1 5 8
M  V30 8 2 6 7
M  V30 9 1 1 9
M  V30 10 1 2 10
M  V30 11 1 2 11
M  V30 12 1 4 12
M  V30 13 1 6 13
M  V30 14 1 8 14
M  V30 15 1 8 15
M  V30 16 1 8 16
M  V30 END BOND
M  V30 END CTAB
M  END
>  <Structure No>
2132

>  <LogS>
0.268333767

>  <MMFF94 Energy>
-11.579

$$$$
Compound 2133
Actelion Java MolfileCreator 2.0

  0  0  0  0  0  0              0 V3000
M  V30 BEGIN CTAB
M  V30 COUNTS 8 7 0 0 0
M  V30 BEGIN ATOM
M  V30 1 O 2.2484 0.3744 0.2995 0
M  V30 2 C 1.1718 -0.2543 0.1271 0
M  V30 3 C -0.0997 0.4735 0.0676 0
M  V30 4 C -1.2525 -0.1638 -0.1134 0
M  V30 5 H 1.1973 -1.332 0.0241 0
M  V30 6 H -0.1001 1.5517 0.1733 0
M  V30 7 H -2.1787 0.3948 -0.1538 0
M  V30 8 H -1.2868 -1.2409 -0.2225 0
M  V30 END ATOM
M  V30 BEGIN BOND
M  V30 1 2 1 2
M  V30 2 1 2 3
M  V30 3 2 3 4
M  V30 4 1 2 5
M  V30 5 1 3 6
M  V30 6 1 4 7
M  V30 7 1 4 8
M  V30 END BOND
M  V30 END CTAB
M  END
>  <Structure No>
2133

>  <LogS>
0.569379255

>  <MMFF94 Energy>
9.3876

$$$$
Compound 2134
Actelion Java MolfileCreator 2.0

  0  0  0  0  0  0              0 V3000
M  V30 BEGIN CTAB
M  V30 COUNTS 5 4 0 0 0
M  V30 BEGIN ATOM
M  V30 1 S 0.0 0.0 0.0 0
M  V30 2 O 0.6361 -0.0969 1.3574 0
M  V30 3 O 1.0551 -0.1463 -1.059 0
M  V30 4 O -0.7512 1.4935 -0.1606 0 CHG=-1
M  V30 5 O -1.1397 -1.2214 -0.1725 0 CHG=-1
M  V30 END ATOM
M  V30 BEGIN BOND
M  V30 1 2 1 2
M  V30 2 2 1 3
M  V30 3 1 1 4
M  V30 4 1 1 5
M  V30 END BOND
M  V30 END CTAB
M  END
>  <Structure No>
2134

>  <LogS>
-0.291816974

>  <MMFF94 Energy>
27.585

$$$$
Compound 2135
Actelion Java MolfileCreator 2.0

  0  0  0  0  0  0              0 V3000
M  V30 BEGIN CTAB
M  V30 COUNTS 5 4 0 0 0
M  V30 BEGIN ATOM
M  V30 1 Cl 0.0 0.0 0.0 0
M  V30 2 O 1.6025 -0.3124 -0.281 0
M  V30 3 O -0.2417 1.6731 0.083 0
M  V30 4 O -0.9208 -0.6352 -1.2469 0
M  V30 5 O -0.5126 -0.7846 1.6162 0 CHG=-1
M  V30 END ATOM
M  V30 BEGIN BOND
M  V30 1 2 1 2
M  V30 2 2 1 3
M  V30 3 2 1 4
M  V30 4 1 1 5
M  V30 END BOND
M  V30 END CTAB
M  END
>  <Structure No>
2135

>  <LogS>
0.243662836

>  <MMFF94 Energy>
1.2808e-7

$$$$
Compound 2136
Actelion Java MolfileCreator 2.0

  0  0  0  0  0  0              0 V3000
M  V30 BEGIN CTAB
M  V30 COUNTS 98 104 0 0 0
M  V30 BEGIN ATOM
M  V30 1 Cl 12.4532 2.3266 2.4128 0
M  V30 2 C 11.0491 1.7218 1.5566 0
M  V30 3 N 9.8922 2.429 1.5675 0
M  V30 4 N 11.1149 0.5345 0.8993 0
M  V30 5 C 8.7967 1.965 0.912 0
M  V30 6 C 10.0309 0.0731 0.2224 0
M  V30 7 N 8.8792 0.791 0.2412 0
M  V30 8 N 7.5985 2.7583 0.9114 0
M  V30 9 N 10.0553 -1.1897 -0.4597 0
M  V30 10 C 6.3784 2.4536 0.5674 0
M  V30 11 C 11.2433 -1.9364 -0.7685 0
M  V30 12 C 5.3341 3.5061 0.6871 0
M  V30 13 C 5.9516 1.1293 0.0436 0
M  V30 14 C 12.436 -1.3001 -1.1558 0
M  V30 15 C 11.1895 -3.3375 -0.7707 0
M  V30 16 S 5.8015 5.1972 0.7829 0
M  V30 17 C 4.0362 3.1566 0.7017 0
M  V30 18 C 4.6493 0.8035 -0.0274 0
M  V30 19 C 13.5503 -2.0538 -1.5286 0
M  V30 20 C 12.3122 -4.091 -1.1216 0
M  V30 21 O 4.5934 6.0863 0.7166 0
M  V30 22 O 6.6894 5.5428 -0.3805 0
M  V30 23 O 6.6004 5.4745 2.2214 0 CHG=-1
M  V30 24 C 3.6479 1.7432 0.5669 0
M  V30 25 S 4.1934 -0.5039 -1.136 0
M  V30 26 S 15.03 -1.2563 -2.0443 0
M  V30 27 C 13.4871 -3.4519 -1.4957 0
M  V30 28 N 2.4756 1.3867 1.0221 0
M  V30 29 O 4.8537 -0.2683 -2.4542 0
M  V30 30 O 2.7203 -0.5454 -1.3658 0
M  V30 31 O 4.7051 -1.9816 -0.5286 0 CHG=-1
M  V30 32 O 14.6966 0.0558 -2.6955 0
M  V30 33 O 15.7615 -2.1113 -3.0304 0
M  V30 34 O 16.0199 -0.9859 -0.7211 0 CHG=-1
M  V30 35 C 2.0233 0.0593 1.2916 0
M  V30 36 N 0.7015 -0.2387 1.1813 0
M  V30 37 N 2.8839 -0.8876 1.7074 0 CHG=-1
M  V30 38 C 0.2474 -1.4796 1.4986 0
M  V30 39 C 2.4435 -2.1299 2.0185 0
M  V30 40 N 1.1227 -2.4232 1.9191 0
M  V30 41 N -0.9959 -1.8104 1.3119 0
M  V30 42 Cl 3.5757 -3.3523 2.5528 0
M  V30 43 C -2.0425 -0.9534 0.8199 0
M  V30 44 C -2.9286 -1.4399 -0.1605 0
M  V30 45 C -2.214 0.3471 1.3293 0
M  V30 46 O -2.7902 -2.7361 -0.657 0
M  V30 47 C -3.9566 -0.6225 -0.6573 0
M  V30 48 C -3.2341 1.1674 0.8278 0
M  V30 49 N -4.8013 -1.0879 -1.7188 0
M  V30 50 C -4.0923 0.685 -0.1671 0
M  V30 51 S -3.4207 2.8213 1.4035 0
M  V30 52 N -6.0791 -0.5651 -1.9777 0
M  V30 53 O -3.5335 3.7342 0.2125 0
M  V30 54 O -2.2294 3.2309 2.2315 0
M  V30 55 O -4.819 2.9346 2.3376 0 CHG=-1
M  V30 56 C -7.0172 -0.3032 -0.926 0
M  V30 57 N -7.1326 -1.1707 0.0373 0
M  V30 58 C -7.8414 0.9318 -0.9774 0
M  V30 59 N -8.147 -1.1196 1.0144 0
M  V30 60 C -8.3916 1.3745 -2.1886 0
M  V30 61 C -7.9413 1.7439 0.1622 0
M  V30 62 C -9.5396 -1.2168 0.6727 0
M  V30 63 C -9.0807 2.5976 -2.2455 0
M  V30 64 C -8.6125 2.9646 0.0975 0
M  V30 65 C -10.0157 -2.1225 -0.3108 0
M  V30 66 C -10.4511 -0.3716 1.3241 0
M  V30 67 C -9.1932 3.3867 -1.1014 0
M  V30 68 C -9.1523 -3.1271 -0.9551 0
M  V30 69 C -11.3789 -2.1268 -0.6538 0
M  V30 70 C -11.8147 -0.4049 1.0032 0
M  V30 71 O -8.3006 -3.7658 -0.2783 0
M  V30 72 O -9.3064 -3.4111 -2.3115 0 CHG=-1
M  V30 73 C -12.2796 -1.2804 0.0043 0
M  V30 74 S -13.9967 -1.3922 -0.3614 0
M  V30 75 O -14.1866 -1.5952 -1.8377 0
M  V30 76 O -14.7039 -0.1255 0.0529 0
M  V30 77 O -14.6474 -2.6962 0.4833 0 CHG=-1
M  V30 78 H 9.1276 -1.6227 -0.6776 0
M  V30 79 H 6.6529 0.4691 -0.4347 0
M  V30 80 H 12.4848 -0.2255 -1.2272 0
M  V30 81 H 10.2683 -3.8311 -0.498 0
M  V30 82 H 3.2737 3.8953 0.869 0
M  V30 83 H 12.2513 -5.1727 -1.1039 0
M  V30 84 H 14.3387 -4.0492 -1.7644 0
M  V30 85 H -1.5631 0.7149 2.1157 0
M  V30 86 H -2.0798 -3.3643 -0.3103 0
M  V30 87 H -4.4045 -1.7986 -2.3852 0
M  V30 88 H -4.8634 1.3347 -0.5592 0
M  V30 89 H -6.462 -0.6844 -2.9342 0
M  V30 90 H -7.8847 -0.886 1.9957 0
M  V30 91 H -8.2984 0.7871 -3.0916 0
M  V30 92 H -7.4554 1.463 1.0881 0
M  V30 93 H -9.4986 2.9364 -3.1848 0
M  V30 94 H -8.6925 3.5862 0.977 0
M  V30 95 H -10.0962 0.3199 2.0811 0
M  V30 96 H -9.7133 4.333 -1.1495 0
M  V30 97 H -11.7542 -2.8348 -1.391 0
M  V30 98 H -12.5071 0.2663 1.5052 0
M  V30 END ATOM
M  V30 BEGIN BOND
M  V30 1 1 1 2
M  V30 2 2 2 3
M  V30 3 1 2 4
M  V30 4 1 3 5
M  V30 5 2 4 6
M  V30 6 2 5 7
M  V30 7 1 5 8
M  V30 8 1 6 9
M  V30 9 2 8 10
M  V30 10 1 9 11
M  V30 11 1 10 12
M  V30 12 1 10 13
M  V30 13 2 11 14
M  V30 14 1 11 15
M  V30 15 1 12 16
M  V30 16 2 12 17
M  V30 17 2 13 18
M  V30 18 1 14 19
M  V30 19 2 15 20
M  V30 20 2 16 21
M  V30 21 2 16 22
M  V30 22 1 16 23
M  V30 23 1 17 24
M  V30 24 1 18 25
M  V30 25 1 19 26
M  V30 26 2 19 27
M  V30 27 2 24 28
M  V30 28 2 25 29
M  V30 29 2 25 30
M  V30 30 1 25 31
M  V30 31 2 26 32
M  V30 32 2 26 33
M  V30 33 1 26 34
M  V30 34 1 28 35
M  V30 35 2 35 36
M  V30 36 1 35 37
M  V30 37 1 36 38
M  V30 38 1 37 39
M  V30 39 1 38 40
M  V30 40 2 38 41
M  V30 41 1 39 42
M  V30 42 1 41 43
M  V30 43 2 43 44
M  V30 44 1 43 45
M  V30 45 1 44 46
M  V30 46 1 44 47
M  V30 47 2 45 48
M  V30 48 1 47 49
M  V30 49 2 47 50
M  V30 50 1 48 51
M  V30 51 1 49 52
M  V30 52 2 51 53
M  V30 53 2 51 54
M  V30 54 1 51 55
M  V30 55 1 52 56
M  V30 56 2 56 57
M  V30 57 1 56 58
M  V30 58 1 57 59
M  V30 59 2 58 60
M  V30 60 1 58 61
M  V30 61 1 59 62
M  V30 62 1 60 63
M  V30 63 2 61 64
M  V30 64 2 62 65
M  V30 65 1 62 66
M  V30 66 2 63 67
M  V30 67 1 65 68
M  V30 68 1 65 69
M  V30 69 2 66 70
M  V30 70 2 68 71
M  V30 71 1 68 72
M  V30 72 2 69 73
M  V30 73 1 73 74
M  V30 74 2 74 75
M  V30 75 2 74 76
M  V30 76 1 74 77
M  V30 77 1 6 7
M  V30 78 1 18 24
M  V30 79 1 20 27
M  V30 80 2 39 40
M  V30 81 1 48 50
M  V30 82 1 64 67
M  V30 83 1 70 73
M  V30 84 1 9 78
M  V30 85 1 13 79
M  V30 86 1 14 80
M  V30 87 1 15 81
M  V30 88 1 17 82
M  V30 89 1 20 83
M  V30 90 1 27 84
M  V30 91 1 45 85
M  V30 92 1 46 86
M  V30 93 1 49 87
M  V30 94 1 50 88
M  V30 95 1 52 89
M  V30 96 1 59 90
M  V30 97 1 60 91
M  V30 98 1 61 92
M  V30 99 1 63 93
M  V30 100 1 64 94
M  V30 101 1 66 95
M  V30 102 1 67 96
M  V30 103 1 69 97
M  V30 104 1 70 98
M  V30 END BOND
M  V30 END CTAB
M  END
>  <Structure No>
2136

>  <LogS>
-0.825411234

>  <MMFF94 Energy>
436.73

$$$$
Compound 2137
Actelion Java MolfileCreator 2.0

  0  0  0  0  0  0              0 V3000
M  V30 BEGIN CTAB
M  V30 COUNTS 13 12 0 0 0
M  V30 BEGIN ATOM
M  V30 1 O 1.5228 1.2943 -1.1419 0
M  V30 2 C 1.0147 0.3273 -0.5111 0
M  V30 3 N 1.8205 -0.8286 -0.2634 0
M  V30 4 C -0.395 0.4031 -0.0412 0
M  V30 5 C -1.1334 1.4945 -0.2831 0
M  V30 6 C -1.0033 -0.7501 0.7119 0
M  V30 7 H 2.8072 -0.8565 -0.6039 0
M  V30 8 H 1.4568 -1.659 0.2523 0
M  V30 9 H -0.7306 2.3433 -0.8212 0
M  V30 10 H -2.1606 1.5626 0.0533 0
M  V30 11 H -0.4247 -0.9357 1.6411 0
M  V30 12 H -2.059 -0.5545 0.9994 0
M  V30 13 H -0.9848 -1.6612 0.0778 0
M  V30 END ATOM
M  V30 BEGIN BOND
M  V30 1 2 1 2
M  V30 2 1 2 3
M  V30 3 1 2 4
M  V30 4 2 4 5
M  V30 5 1 4 6
M  V30 6 1 3 7
M  V30 7 1 3 8
M  V30 8 1 5 9
M  V30 9 1 5 10
M  V30 10 1 6 11
M  V30 11 1 6 12
M  V30 12 1 6 13
M  V30 END BOND
M  V30 END CTAB
M  END
>  <Structure No>
2137

>  <LogS>
0.37539119

>  <MMFF94 Energy>
-28.122

$$$$
Compound 2138
Actelion Java MolfileCreator 2.0

  0  0  0  0  0  0              0 V3000
M  V30 BEGIN CTAB
M  V30 COUNTS 114 119 0 0 0
M  V30 BEGIN ATOM
M  V30 1 S 2.1994 1.6069 -1.1838 0
M  V30 2 O 3.1846 1.8646 -2.2869 0
M  V30 3 O 2.411 2.6176 -0.096 0
M  V30 4 O 0.6504 1.7634 -1.8187 0 CHG=-1
M  V30 5 C 2.4348 -0.0174 -0.5264 0
M  V30 6 C 1.389 -0.7456 0.0953 0
M  V30 7 C 3.6887 -0.6238 -0.6969 0
M  V30 8 C 1.6206 -2.0709 0.4926 0
M  V30 9 C 0.0158 -0.2259 0.2586 0
M  V30 10 C 3.9183 -1.9406 -0.2688 0
M  V30 11 C 2.8711 -2.6603 0.3118 0
M  V30 12 C -0.2726 0.8604 0.9881 0
M  V30 13 N 5.1773 -2.5946 -0.4968 0
M  V30 14 C -1.6742 1.312 1.2136 0
M  V30 15 C 6.4516 -1.94 -0.4287 0
M  V30 16 C -2.0065 2.6871 1.3409 0
M  V30 17 C -2.7021 0.3528 1.336 0
M  V30 18 N 6.5699 -0.7011 0.1139 0
M  V30 19 N 7.5613 -2.5855 -0.8693 0
M  V30 20 S -0.7876 3.9723 1.2623 0
M  V30 21 C -3.3551 3.0608 1.4843 0
M  V30 22 C -4.0301 0.741 1.4961 0
M  V30 23 C 7.7859 -0.1058 0.2021 0
M  V30 24 C 8.7832 -1.9974 -0.7831 0
M  V30 25 O -0.1651 3.9958 -0.1034 0
M  V30 26 O 0.2745 3.7476 2.3027 0
M  V30 27 O -1.5009 5.4674 1.5523 0 CHG=-1
M  V30 28 C -4.3733 2.0998 1.5301 0
M  V30 29 N 8.8916 -0.7554 -0.2425 0
M  V30 30 N 7.895 1.221 0.7281 0
M  V30 31 N 9.9449 -2.7152 -1.2229 0
M  V30 32 N -5.7414 2.5246 1.6689 0
M  V30 33 C 8.1086 1.413 2.1668 0
M  V30 34 C 7.9253 2.3544 -0.2032 0
M  V30 35 C 11.29 -2.2432 -1.0356 0
M  V30 36 C -6.8627 1.807 1.1289 0
M  V30 37 C 6.927 0.8737 2.9682 0
M  V30 38 C 6.5363 2.6133 -0.7771 0
M  V30 39 C 12.2837 -3.0975 -0.5053 0
M  V30 40 C 11.6392 -0.9361 -1.4294 0
M  V30 41 N -8.114 2.0791 1.5815 0
M  V30 42 N -6.6909 0.8702 0.1615 0
M  V30 43 S 11.8977 -4.7459 0.008 0
M  V30 44 C 13.5978 -2.6265 -0.3695 0
M  V30 45 C 12.9528 -0.4732 -1.2785 0
M  V30 46 C -9.1889 1.4 1.099 0
M  V30 47 C -7.7528 0.1776 -0.3226 0
M  V30 48 O 10.6525 -4.7334 0.8483 0
M  V30 49 O 13.0245 -5.3157 0.8234 0
M  V30 50 O 11.6558 -5.713 -1.3444 0 CHG=-1
M  V30 51 C 13.9293 -1.3241 -0.7487 0
M  V30 52 S 13.3966 1.158 -1.7655 0
M  V30 53 N -8.9958 0.438 0.1584 0
M  V30 54 N -10.5174 1.6856 1.5952 0
M  V30 55 N -7.5382 -0.8505 -1.2993 0
M  V30 56 O 12.2336 1.8402 -2.4296 0
M  V30 57 O 14.5407 1.0903 -2.7382 0
M  V30 58 O 13.8496 2.0435 -0.4114 0 CHG=-1
M  V30 59 C -10.6954 2.6276 2.7103 0
M  V30 60 C -11.6816 0.9646 1.051 0
M  V30 61 C -8.5244 -1.8456 -1.6217 0
M  V30 62 C -10.672 4.0691 2.205 0
M  V30 63 C -12.0847 1.5412 -0.3025 0
M  V30 64 C -8.1967 -3.221 -1.5827 0
M  V30 65 C -9.8187 -1.4553 -2.0083 0
M  V30 66 S -6.5899 -3.7713 -1.0945 0
M  V30 67 C -9.1742 -4.1714 -1.908 0
M  V30 68 C -10.7922 -2.4125 -2.3157 0
M  V30 69 O -6.1832 -3.0769 0.1747 0
M  V30 70 O -5.5996 -3.4558 -2.1794 0
M  V30 71 O -6.5921 -5.4314 -0.8194 0 CHG=-1
M  V30 72 C -10.4658 -3.7726 -2.2609 0
M  V30 73 S -12.4218 -1.9037 -2.7408 0
M  V30 74 O -13.2281 -1.7107 -1.4865 0
M  V30 75 O -13.0784 -2.947 -3.6013 0
M  V30 76 O -12.3585 -0.4608 -3.5991 0 CHG=-1
M  V30 77 H 4.4707 -0.0835 -1.2099 0
M  V30 78 H 0.8246 -2.6572 0.9402 0
M  V30 79 H -0.781 -0.8188 -0.1745 0
M  V30 80 H 3.0248 -3.6852 0.6244 0
M  V30 81 H 0.5423 1.4226 1.4215 0
M  V30 82 H 5.1758 -3.6263 -0.6594 0
M  V30 83 H -2.4832 -0.7075 1.3265 0
M  V30 84 H -3.6272 4.1084 1.5378 0
M  V30 85 H -4.7858 -0.0252 1.6104 0
M  V30 86 H 9.8005 -3.6834 -1.5897 0
M  V30 87 H -5.9325 3.4346 2.1479 0
M  V30 88 H 8.2333 2.4938 2.4089 0
M  V30 89 H 9.0374 0.8832 2.4765 0
M  V30 90 H 8.2779 3.2761 0.3054 0
M  V30 91 H 8.6382 2.1413 -1.0289 0
M  V30 92 H 7.0305 1.1719 4.0349 0
M  V30 93 H 5.9713 1.2817 2.5712 0
M  V30 94 H 6.9022 -0.2392 2.9131 0
M  V30 95 H 5.8124 2.8004 0.0463 0
M  V30 96 H 6.571 3.5056 -1.4397 0
M  V30 97 H 6.1942 1.7394 -1.3728 0
M  V30 98 H 10.8934 -0.2919 -1.8774 0
M  V30 99 H 14.3729 -3.2655 0.0332 0
M  V30 100 H 14.9495 -0.9787 -0.632 0
M  V30 101 H -6.5602 -0.9886 -1.6419 0
M  V30 102 H -11.6661 2.4534 3.2272 0
M  V30 103 H -9.8927 2.4774 3.4674 0
M  V30 104 H -12.5524 1.0466 1.7357 0
M  V30 105 H -11.4518 -0.1189 0.9487 0
M  V30 106 H -11.5584 4.2592 1.5628 0
M  V30 107 H -9.7429 4.2724 1.627 0
M  V30 108 H -10.7094 4.7618 3.0698 0
M  V30 109 H -11.2509 1.4596 -1.0308 0
M  V30 110 H -12.3598 2.6105 -0.1928 0
M  V30 111 H -12.9623 0.9845 -0.7002 0
M  V30 112 H -10.065 -0.4047 -2.0816 0
M  V30 113 H -8.9451 -5.2305 -1.8794 0
M  V30 114 H -11.2097 -4.5254 -2.4923 0
M  V30 END ATOM
M  V30 BEGIN BOND
M  V30 1 2 1 2
M  V30 2 2 1 3
M  V30 3 1 1 4
M  V30 4 1 1 5
M  V30 5 2 5 6
M  V30 6 1 5 7
M  V30 7 1 6 8
M  V30 8 1 6 9
M  V30 9 2 7 10
M  V30 10 2 8 11
M  V30 11 2 9 12
M  V30 12 1 10 13
M  V30 13 1 12 14
M  V30 14 1 13 15
M  V30 15 2 14 16
M  V30 16 1 14 17
M  V30 17 2 15 18
M  V30 18 1 15 19
M  V30 19 1 16 20
M  V30 20 1 16 21
M  V30 21 2 17 22
M  V30 22 1 18 23
M  V30 23 2 19 24
M  V30 24 2 20 25
M  V30 25 2 20 26
M  V30 26 1 20 27
M  V30 27 2 21 28
M  V30 28 2 23 29
M  V30 29 1 23 30
M  V30 30 1 24 31
M  V30 31 1 28 32
M  V30 32 1 30 33
M  V30 33 1 30 34
M  V30 34 1 31 35
M  V30 35 1 32 36
M  V30 36 1 33 37
M  V30 37 1 34 38
M  V30 38 2 35 39
M  V30 39 1 35 40
M  V30 40 2 36 41
M  V30 41 1 36 42
M  V30 42 1 39 43
M  V30 43 1 39 44
M  V30 44 2 40 45
M  V30 45 1 41 46
M  V30 46 2 42 47
M  V30 47 2 43 48
M  V30 48 2 43 49
M  V30 49 1 43 50
M  V30 50 2 44 51
M  V30 51 1 45 52
M  V30 52 2 46 53
M  V30 53 1 46 54
M  V30 54 1 47 55
M  V30 55 2 52 56
M  V30 56 2 52 57
M  V30 57 1 52 58
M  V30 58 1 54 59
M  V30 59 1 54 60
M  V30 60 1 55 61
M  V30 61 1 59 62
M  V30 62 1 60 63
M  V30 63 2 61 64
M  V30 64 1 61 65
M  V30 65 1 64 66
M  V30 66 1 64 67
M  V30 67 2 65 68
M  V30 68 2 66 69
M  V30 69 2 66 70
M  V30 70 1 66 71
M  V30 71 2 67 72
M  V30 72 1 68 73
M  V30 73 2 73 74
M  V30 74 2 73 75
M  V30 75 1 73 76
M  V30 76 1 10 11
M  V30 77 1 22 28
M  V30 78 1 24 29
M  V30 79 1 45 51
M  V30 80 1 47 53
M  V30 81 1 68 72
M  V30 82 1 7 77
M  V30 83 1 8 78
M  V30 84 1 9 79
M  V30 85 1 11 80
M  V30 86 1 12 81
M  V30 87 1 13 82
M  V30 88 1 17 83
M  V30 89 1 21 84
M  V30 90 1 22 85
M  V30 91 1 31 86
M  V30 92 1 32 87
M  V30 93 1 33 88
M  V30 94 1 33 89
M  V30 95 1 34 90
M  V30 96 1 34 91
M  V30 97 1 37 92
M  V30 98 1 37 93
M  V30 99 1 37 94
M  V30 100 1 38 95
M  V30 101 1 38 96
M  V30 102 1 38 97
M  V30 103 1 40 98
M  V30 104 1 44 99
M  V30 105 1 51 100
M  V30 106 1 55 101
M  V30 107 1 59 102
M  V30 108 1 59 103
M  V30 109 1 60 104
M  V30 110 1 60 105
M  V30 111 1 62 106
M  V30 112 1 62 107
M  V30 113 1 62 108
M  V30 114 1 63 109
M  V30 115 1 63 110
M  V30 116 1 63 111
M  V30 117 1 65 112
M  V30 118 1 67 113
M  V30 119 1 72 114
M  V30 END BOND
M  V30 END CTAB
M  END
>  <Structure No>
2138

>  <LogS>
-0.812249023

>  <MMFF94 Energy>
108.27

$$$$
Compound 2139
Actelion Java MolfileCreator 2.0

  0  0  0  0  0  0              0 V3000
M  V30 BEGIN CTAB
M  V30 COUNTS 28 28 0 0 0
M  V30 BEGIN ATOM
M  V30 1 O -0.4657 -2.3304 -0.854 0
M  V30 2 C -0.5077 -0.9496 -0.5851 0 CFG=2
M  V30 3 C 0.8928 -0.3678 -0.6683 0
M  V30 4 C -1.2045 -0.6612 0.7815 0 CFG=1
M  V30 5 C 1.8943 -0.7578 0.2417 0
M  V30 6 C 1.211 0.5676 -1.6701 0
M  V30 7 N -1.1963 0.7754 1.1569 0 CHG=1
M  V30 8 C -2.6277 -1.2505 0.8112 0
M  V30 9 C 3.1794 -0.214 0.1556 0
M  V30 10 C 2.4977 1.1083 -1.7515 0
M  V30 11 C -1.9086 1.6617 0.2261 0
M  V30 12 C 3.4805 0.7188 -0.839 0
M  V30 13 H -0.0097 -2.7787 -0.0949 0
M  V30 14 H -1.1343 -0.5013 -1.3853 0
M  V30 15 H -0.6368 -1.2056 1.5698 0
M  V30 16 H 1.6837 -1.4792 1.0203 0
M  V30 17 H 0.4643 0.8815 -2.3888 0
M  V30 18 H -0.2089 1.1102 1.2442 0
M  V30 19 H -1.6314 0.8797 2.1035 0
M  V30 20 H -3.1497 -0.9575 1.7467 0
M  V30 21 H -2.5805 -2.3598 0.781 0
M  V30 22 H -3.2238 -0.9083 -0.0602 0
M  V30 23 H 3.9425 -0.5166 0.8609 0
M  V30 24 H 2.7329 1.8296 -2.5235 0
M  V30 25 H -2.975 1.3719 0.1274 0
M  V30 26 H -1.4231 1.6736 -0.7705 0
M  V30 27 H -1.8827 2.7021 0.6162 0
M  V30 28 H 4.476 1.1386 -0.9037 0
M  V30 END ATOM
M  V30 BEGIN BOND
M  V30 1 1 1 2
M  V30 2 1 2 3
M  V30 3 1 2 4
M  V30 4 2 3 5
M  V30 5 1 3 6
M  V30 6 1 4 7
M  V30 7 1 4 8
M  V30 8 1 5 9
M  V30 9 2 6 10
M  V30 10 1 7 11
M  V30 11 2 9 12
M  V30 12 1 10 12
M  V30 13 1 1 13
M  V30 14 1 2 14
M  V30 15 1 4 15
M  V30 16 1 5 16
M  V30 17 1 6 17
M  V30 18 1 7 18
M  V30 19 1 7 19
M  V30 20 1 8 20
M  V30 21 1 8 21
M  V30 22 1 8 22
M  V30 23 1 9 23
M  V30 24 1 10 24
M  V30 25 1 11 25
M  V30 26 1 11 26
M  V30 27 1 11 27
M  V30 28 1 12 28
M  V30 END BOND
M  V30 BEGIN COLLECTION
M  V30 MDLV30/STEABS ATOMS=(2 2 4)
M  V30 END COLLECTION
M  V30 END CTAB
M  END
>  <Structure No>
2139

>  <LogS>
-0.003669443

>  <MMFF94 Energy>
55.084

$$$$
Compound 2140
Actelion Java MolfileCreator 2.0

  0  0  0  0  0  0              0 V3000
M  V30 BEGIN CTAB
M  V30 COUNTS 17 17 0 0 0
M  V30 BEGIN ATOM
M  V30 1 S -2.6522 -0.5984 0.2564 0
M  V30 2 O -3.5327 0.4349 0.901 0
M  V30 3 O -2.6375 -1.8271 1.1216 0
M  V30 4 O -3.2635 -0.9869 -1.2585 0 CHG=-1
M  V30 5 C -1.0167 0.03 0.0844 0
M  V30 6 C 0.0762 -0.8479 0.0672 0
M  V30 7 C -0.8029 1.4066 -0.0587 0
M  V30 8 C 1.3875 -0.3565 -0.0802 0
M  V30 9 C 0.4937 1.9029 -0.2055 0
M  V30 10 N 2.5117 -1.2552 -0.0949 0 CHG=1
M  V30 11 C 1.584 1.0292 -0.2149 0
M  V30 12 O 2.3445 -2.4866 0.0249 0
M  V30 13 O 3.7916 -0.7714 -0.2409 0 CHG=-1
M  V30 14 H -0.0969 -1.9118 0.1663 0
M  V30 15 H -1.638 2.0954 -0.0591 0
M  V30 16 H 0.6545 2.9678 -0.3138 0
M  V30 17 H 2.5793 1.4379 -0.3303 0
M  V30 END ATOM
M  V30 BEGIN BOND
M  V30 1 2 1 2
M  V30 2 2 1 3
M  V30 3 1 1 4
M  V30 4 1 1 5
M  V30 5 2 5 6
M  V30 6 1 5 7
M  V30 7 1 6 8
M  V30 8 2 7 9
M  V30 9 1 8 10
M  V30 10 2 8 11
M  V30 11 2 10 12
M  V30 12 1 10 13
M  V30 13 1 9 11
M  V30 14 1 6 14
M  V30 15 1 7 15
M  V30 16 1 9 16
M  V30 17 1 11 17
M  V30 END BOND
M  V30 END CTAB
M  END
>  <Structure No>
2140

>  <LogS>
-0.051455458

>  <MMFF94 Energy>
62.463

$$$$
Compound 2141
Actelion Java MolfileCreator 2.0

  0  0  0  0  0  0              0 V3000
M  V30 BEGIN CTAB
M  V30 COUNTS 23 23 0 0 0
M  V30 BEGIN ATOM
M  V30 1 O 0.2386 -2.3085 -0.4772 0
M  V30 2 C -0.1027 -1.1087 -0.2782 0
M  V30 3 C -1.5422 -0.7646 -0.132 0
M  V30 4 C 0.9661 -0.0421 -0.1151 0
M  V30 5 C -2.4881 -1.6891 -0.3358 0
M  V30 6 C -1.9597 0.6122 0.3317 0
M  V30 7 C 0.4038 1.3321 -0.5513 0
M  V30 8 C 1.4116 0.0011 1.3608 0
M  V30 9 C 2.1894 -0.3705 -0.998 0
M  V30 10 C -0.8899 1.6549 0.1461 0
M  V30 11 O -1.0963 2.7954 0.5319 0
M  V30 12 H -3.5357 -1.4505 -0.1976 0
M  V30 13 H -2.2395 -2.6962 -0.6456 0
M  V30 14 H -2.8643 0.9404 -0.2255 0
M  V30 15 H -2.2168 0.5559 1.4113 0
M  V30 16 H 0.2066 1.3304 -1.646 0
M  V30 17 H 1.1512 2.1318 -0.3486 0
M  V30 18 H 1.8441 -0.9761 1.6664 0
M  V30 19 H 2.1824 0.787 1.5141 0
M  V30 20 H 0.5526 0.2195 2.031 0
M  V30 21 H 2.661 -1.3273 -0.6855 0
M  V30 22 H 1.8885 -0.4618 -2.0644 0
M  V30 23 H 2.9557 0.4307 -0.9184 0
M  V30 END ATOM
M  V30 BEGIN BOND
M  V30 1 2 1 2
M  V30 2 1 2 3
M  V30 3 1 2 4
M  V30 4 2 3 5
M  V30 5 1 3 6
M  V30 6 1 4 7
M  V30 7 1 4 8
M  V30 8 1 4 9
M  V30 9 1 6 10
M  V30 10 2 10 11
M  V30 11 1 7 10
M  V30 12 1 5 12
M  V30 13 1 5 13
M  V30 14 1 6 14
M  V30 15 1 6 15
M  V30 16 1 7 16
M  V30 17 1 7 17
M  V30 18 1 8 18
M  V30 19 1 8 19
M  V30 20 1 8 20
M  V30 21 1 9 21
M  V30 22 1 9 22
M  V30 23 1 9 23
M  V30 END BOND
M  V30 END CTAB
M  END
>  <Structure No>
2141

>  <LogS>
-0.87790415

>  <MMFF94 Energy>
30.777

$$$$
Compound 2142
Actelion Java MolfileCreator 2.0

  0  0  0  0  0  0              0 V3000
M  V30 BEGIN CTAB
M  V30 COUNTS 26 25 0 0 0
M  V30 BEGIN ATOM
M  V30 1 O -2.6366 -1.1625 -0.1549 0
M  V30 2 C -2.0147 -0.0972 -0.8406 0
M  V30 3 C -4.0371 -0.9645 -0.0974 0
M  V30 4 C -0.5637 -0.2676 -0.7635 0
M  V30 5 C -4.4271 -0.3319 1.2395 0
M  V30 6 C 0.6319 -0.4076 -0.6996 0
M  V30 7 O -5.822 -0.2459 1.3488 0
M  V30 8 C 2.083 -0.5775 -0.6213 0
M  V30 9 O 2.7026 0.6636 -0.88 0
M  V30 10 C 4.1018 0.5687 -0.688 0
M  V30 11 C 4.4784 1.0615 0.7102 0
M  V30 12 O 5.872 1.0826 0.8596 0
M  V30 13 H -2.3066 -0.1018 -1.9141 0
M  V30 14 H -2.2704 0.8846 -0.3837 0
M  V30 15 H -4.5243 -1.9603 -0.167 0
M  V30 16 H -4.4394 -0.3571 -0.9436 0
M  V30 17 H -4.0454 -0.9652 2.0684 0
M  V30 18 H -3.9691 0.6776 1.341 0
M  V30 19 H -6.1048 0.5157 0.7781 0
M  V30 20 H 2.384 -1.3297 -1.3833 0
M  V30 21 H 2.3309 -0.9511 0.3971 0
M  V30 22 H 4.5091 -0.4567 -0.8585 0
M  V30 23 H 4.5928 1.229 -1.4341 0
M  V30 24 H 4.0164 0.4138 1.4889 0
M  V30 25 H 4.0916 2.0933 0.8503 0
M  V30 26 H 6.1571 0.141 0.9937 0
M  V30 END ATOM
M  V30 BEGIN BOND
M  V30 1 1 1 2
M  V30 2 1 1 3
M  V30 3 1 2 4
M  V30 4 1 3 5
M  V30 5 3 4 6
M  V30 6 1 5 7
M  V30 7 1 6 8
M  V30 8 1 8 9
M  V30 9 1 9 10
M  V30 10 1 10 11
M  V30 11 1 11 12
M  V30 12 1 2 13
M  V30 13 1 2 14
M  V30 14 1 3 15
M  V30 15 1 3 16
M  V30 16 1 5 17
M  V30 17 1 5 18
M  V30 18 1 7 19
M  V30 19 1 8 20
M  V30 20 1 8 21
M  V30 21 1 10 22
M  V30 22 1 10 23
M  V30 23 1 11 24
M  V30 24 1 11 25
M  V30 25 1 12 26
M  V30 END BOND
M  V30 END CTAB
M  END
>  <Structure No>
2142

>  <LogS>
0.758961822

>  <MMFF94 Energy>
42.094

$$$$
Compound 2143
Actelion Java MolfileCreator 2.0

  0  0  0  0  0  0              0 V3000
M  V30 BEGIN CTAB
M  V30 COUNTS 18 18 0 0 0
M  V30 BEGIN ATOM
M  V30 1 O 3.6285 -0.0842 0.2528 0
M  V30 2 N 2.7126 0.7213 0.5203 0 CHG=1
M  V30 3 O 3.0434 1.906 1.1371 0 CHG=-1
M  V30 4 C 1.3373 0.3841 0.2379 0
M  V30 5 C 0.3191 1.3631 0.2725 0
M  V30 6 C 0.999 -0.9422 -0.0826 0
M  V30 7 O 0.643 2.6862 0.5576 0 CHG=-1
M  V30 8 C -1.0235 1.0087 0.0042 0
M  V30 9 C -0.3263 -1.308 -0.3554 0
M  V30 10 C -2.1229 2.0099 0.0379 0
M  V30 11 C -1.3282 -0.3269 -0.307 0
M  V30 12 N -0.6516 -2.674 -0.6776 0 CHG=1
M  V30 13 O -1.8992 3.2134 0.3339 0
M  V30 14 O -3.4276 1.6296 -0.2569 0 CHG=-1
M  V30 15 O -1.8298 -3.0089 -0.9198 0
M  V30 16 O 0.3319 -3.6353 -0.7256 0 CHG=-1
M  V30 17 H 1.7736 -1.697 -0.1102 0
M  V30 18 H -2.3526 -0.6086 -0.515 0
M  V30 END ATOM
M  V30 BEGIN BOND
M  V30 1 2 1 2
M  V30 2 1 2 3
M  V30 3 1 2 4
M  V30 4 2 4 5
M  V30 5 1 4 6
M  V30 6 1 5 7
M  V30 7 1 5 8
M  V30 8 2 6 9
M  V30 9 1 8 10
M  V30 10 2 8 11
M  V30 11 1 9 12
M  V30 12 2 10 13
M  V30 13 1 10 14
M  V30 14 2 12 15
M  V30 15 1 12 16
M  V30 16 1 9 11
M  V30 17 1 6 17
M  V30 18 1 11 18
M  V30 END BOND
M  V30 END CTAB
M  END
>  <Structure No>
2143

>  <LogS>
-1.057125752

>  <MMFF94 Energy>
185.6

$$$$
Compound 2144
Actelion Java MolfileCreator 2.0

  0  0  0  0  0  0              0 V3000
M  V30 BEGIN CTAB
M  V30 COUNTS 19 19 0 0 0
M  V30 BEGIN ATOM
M  V30 1 O 3.5901 -0.0779 0.0779 0
M  V30 2 C 2.2581 0.2428 -0.2109 0
M  V30 3 C 1.3299 -0.6652 0.5928 0
M  V30 4 C -0.1119 -0.3439 0.303 0
M  V30 5 C -0.7804 -0.9783 -0.7575 0
M  V30 6 C -0.7861 0.6324 1.0558 0
M  V30 7 C -2.1105 -0.6559 -1.0449 0
M  V30 8 C -2.1162 0.9518 0.765 0
M  V30 9 C -2.7786 0.3068 -0.283 0
M  V30 10 H 4.1455 0.5378 -0.4672 0
M  V30 11 H 2.0676 0.1012 -1.2989 0
M  V30 12 H 2.0633 1.3059 0.0572 0
M  V30 13 H 1.5405 -1.7273 0.3389 0
M  V30 14 H 1.5363 -0.5377 1.6783 0
M  V30 15 H -0.2715 -1.7197 -1.361 0
M  V30 16 H -0.2815 1.1459 1.865 0
M  V30 17 H -2.6225 -1.1502 -1.8605 0
M  V30 18 H -2.6326 1.7019 1.3503 0
M  V30 19 H -3.8076 0.556 -0.5076 0
M  V30 END ATOM
M  V30 BEGIN BOND
M  V30 1 1 1 2
M  V30 2 1 2 3
M  V30 3 1 3 4
M  V30 4 2 4 5
M  V30 5 1 4 6
M  V30 6 1 5 7
M  V30 7 2 6 8
M  V30 8 2 7 9
M  V30 9 1 8 9
M  V30 10 1 1 10
M  V30 11 1 2 11
M  V30 12 1 2 12
M  V30 13 1 3 13
M  V30 14 1 3 14
M  V30 15 1 5 15
M  V30 16 1 6 16
M  V30 17 1 7 17
M  V30 18 1 8 18
M  V30 19 1 9 19
M  V30 END BOND
M  V30 END CTAB
M  END
>  <Structure No>
2144

>  <LogS>
-0.785923914

>  <MMFF94 Energy>
28.955

$$$$
Compound 2145
Actelion Java MolfileCreator 2.0

  0  0  0  0  0  0              0 V3000
M  V30 BEGIN CTAB
M  V30 COUNTS 12 11 0 0 0
M  V30 BEGIN ATOM
M  V30 1 O 0.9175 1.6826 -0.3057 0
M  V30 2 C 0.8293 0.4303 -0.4274 0
M  V30 3 O -0.2534 -0.27 0.113 0
M  V30 4 C 1.868 -0.3087 -1.2005 0
M  V30 5 C -1.2754 0.348 0.8364 0
M  V30 6 C -2.2747 -0.3776 1.3201 0
M  V30 7 H 2.87 0.1297 -1.0088 0
M  V30 8 H 1.6395 -0.2419 -2.2844 0
M  V30 9 H 1.88 -1.3762 -0.8957 0
M  V30 10 H -1.2648 1.4177 1.0098 0
M  V30 11 H -3.0696 0.096 1.8817 0
M  V30 12 H -2.3053 -1.4475 1.1588 0
M  V30 END ATOM
M  V30 BEGIN BOND
M  V30 1 2 1 2
M  V30 2 1 2 3
M  V30 3 1 2 4
M  V30 4 1 3 5
M  V30 5 2 5 6
M  V30 6 1 4 7
M  V30 7 1 4 8
M  V30 8 1 4 9
M  V30 9 1 5 10
M  V30 10 1 6 11
M  V30 11 1 6 12
M  V30 END BOND
M  V30 END CTAB
M  END
>  <Structure No>
2145

>  <LogS>
-0.633922712

>  <MMFF94 Energy>
18.211

$$$$
Compound 2146
Actelion Java MolfileCreator 2.0

  0  0  0  0  0  0              0 V3000
M  V30 BEGIN CTAB
M  V30 COUNTS 14 14 0 0 0
M  V30 BEGIN ATOM
M  V30 1 O -1.6647 -1.744 0.0 0
M  V30 2 C -0.5712 -0.8788 0.0769 0
M  V30 3 C -0.7259 0.5232 0.0251 0
M  V30 4 C 0.7104 -1.4277 0.2092 0
M  V30 5 C -2.0275 1.1281 -0.1103 0
M  V30 6 C 0.4038 1.3502 0.1065 0
M  V30 7 C 1.8309 -0.5964 0.2896 0
M  V30 8 N -3.0721 1.6144 -0.2191 0
M  V30 9 C 1.6777 0.7908 0.2383 0
M  V30 10 H -2.6171 -1.4137 -0.096 0
M  V30 11 H 0.8372 -2.5022 0.2498 0
M  V30 12 H 0.2995 2.4282 0.0679 0
M  V30 13 H 2.8182 -1.028 0.3919 0
M  V30 14 H 2.5466 1.4332 0.3006 0
M  V30 END ATOM
M  V30 BEGIN BOND
M  V30 1 1 1 2
M  V30 2 2 2 3
M  V30 3 1 2 4
M  V30 4 1 3 5
M  V30 5 1 3 6
M  V30 6 2 4 7
M  V30 7 3 5 8
M  V30 8 2 6 9
M  V30 9 1 7 9
M  V30 10 1 1 10
M  V30 11 1 4 11
M  V30 12 1 6 12
M  V30 13 1 7 13
M  V30 14 1 9 14
M  V30 END BOND
M  V30 END CTAB
M  END
>  <Structure No>
2146

>  <LogS>
-0.774965627

>  <MMFF94 Energy>
28.704

$$$$
Compound 2147
Actelion Java MolfileCreator 2.0

  0  0  0  0  0  0              0 V3000
M  V30 BEGIN CTAB
M  V30 COUNTS 15 16 0 0 0
M  V30 BEGIN ATOM
M  V30 1 O 2.2101 2.3739 0.0 0
M  V30 2 C 1.843 1.1703 0.0214 0
M  V30 3 O 2.7166 0.0847 0.0608 0
M  V30 4 C 0.4642 0.6973 0.0092 0
M  V30 5 C 1.9165 -1.0567 0.0736 0
M  V30 6 C 0.5096 -0.6768 0.0414 0
M  V30 7 C -0.745 1.3888 -0.0268 0
M  V30 8 O 2.3622 -2.2331 0.108 0
M  V30 9 C -0.6514 -1.4475 0.0395 0
M  V30 10 C -1.9336 0.6358 -0.0294 0
M  V30 11 C -1.8869 -0.7755 0.0036 0
M  V30 12 H -0.7704 2.4704 -0.0518 0
M  V30 13 H -0.6051 -2.5283 0.0651 0
M  V30 14 H -2.8898 1.1418 -0.057 0
M  V30 15 H -2.8077 -1.3441 0.0012 0
M  V30 END ATOM
M  V30 BEGIN BOND
M  V30 1 2 1 2
M  V30 2 1 2 3
M  V30 3 1 2 4
M  V30 4 1 3 5
M  V30 5 2 4 6
M  V30 6 1 4 7
M  V30 7 2 5 8
M  V30 8 1 6 9
M  V30 9 2 7 10
M  V30 10 2 9 11
M  V30 11 1 5 6
M  V30 12 1 10 11
M  V30 13 1 7 12
M  V30 14 1 9 13
M  V30 15 1 10 14
M  V30 16 1 11 15
M  V30 END BOND
M  V30 END CTAB
M  END
>  <Structure No>
2147

>  <LogS>
-1.405240463

>  <MMFF94 Energy>
13.58

$$$$
Compound 2148
Actelion Java MolfileCreator 2.0

  0  0  0  0  0  0              0 V3000
M  V30 BEGIN CTAB
M  V30 COUNTS 14 14 0 0 0
M  V30 BEGIN ATOM
M  V30 1 O 2.6465 1.5231 -0.8014 0
M  V30 2 C 2.2067 0.3541 -0.6366 0
M  V30 3 O 3.061 -0.7224 -0.8449 0 CHG=-1
M  V30 4 C 0.8028 0.129 -0.2279 0
M  V30 5 C 0.3169 -1.1783 -0.0454 0
M  V30 6 C -0.0665 1.2157 -0.0157 0
M  V30 7 C -1.0098 -1.3924 0.341 0
M  V30 8 C -1.3923 0.9958 0.3705 0
M  V30 9 C -1.8636 -0.3067 0.5487 0
M  V30 10 H 0.9601 -2.0352 -0.2006 0
M  V30 11 H 0.2769 2.2341 -0.1477 0
M  V30 12 H -1.3764 -2.4013 0.4794 0
M  V30 13 H -2.0549 1.8362 0.5317 0
M  V30 14 H -2.8902 -0.4747 0.8477 0
M  V30 END ATOM
M  V30 BEGIN BOND
M  V30 1 2 1 2
M  V30 2 1 2 3
M  V30 3 1 2 4
M  V30 4 2 4 5
M  V30 5 1 4 6
M  V30 6 1 5 7
M  V30 7 2 6 8
M  V30 8 2 7 9
M  V30 9 1 8 9
M  V30 10 1 5 10
M  V30 11 1 6 11
M  V30 12 1 7 12
M  V30 13 1 8 13
M  V30 14 1 9 14
M  V30 END BOND
M  V30 END CTAB
M  END
>  <Structure No>
2148

>  <LogS>
-1.619929844

>  <MMFF94 Energy>
37.053

$$$$
Compound 2149
Actelion Java MolfileCreator 2.0

  0  0  0  0  0  0              0 V3000
M  V30 BEGIN CTAB
M  V30 COUNTS 11 11 0 0 0
M  V30 BEGIN ATOM
M  V30 1 O -0.8808 2.2433 0.08 0
M  V30 2 C -0.4432 1.0629 0.0317 0
M  V30 3 N -1.3101 0.0144 -0.0196 0
M  V30 4 C 0.9332 0.8285 0.031 0
M  V30 5 C -0.8505 -1.2648 -0.072 0
M  V30 6 C 1.3824 -0.4908 -0.0231 0
M  V30 7 N 0.4859 -1.5099 -0.0734 0
M  V30 8 O 2.7438 -0.7652 -0.0256 0 CHG=-1
M  V30 9 H -2.3408 0.1876 -0.0191 0
M  V30 10 H 1.638 1.6503 0.0716 0
M  V30 11 H -1.5477 -2.0913 -0.1126 0
M  V30 END ATOM
M  V30 BEGIN BOND
M  V30 1 2 1 2
M  V30 2 1 2 3
M  V30 3 1 2 4
M  V30 4 1 3 5
M  V30 5 2 4 6
M  V30 6 2 5 7
M  V30 7 1 6 8
M  V30 8 1 6 7
M  V30 9 1 3 9
M  V30 10 1 4 10
M  V30 11 1 5 11
M  V30 END BOND
M  V30 END CTAB
M  END
>  <Structure No>
2149

>  <LogS>
-1.587161122

>  <MMFF94 Energy>
-88.429

$$$$
Compound 2150
Actelion Java MolfileCreator 2.0

  0  0  0  0  0  0              0 V3000
M  V30 BEGIN CTAB
M  V30 COUNTS 18 18 0 0 0
M  V30 BEGIN ATOM
M  V30 1 O 4.1846 -0.5519 -0.0788 0
M  V30 2 C 3.5233 0.2747 0.605 0
M  V30 3 O 2.1302 0.3289 0.5211 0
M  V30 4 C 1.3791 -0.5318 -0.3282 0
M  V30 5 C -0.0815 -0.2189 -0.1847 0
M  V30 6 C -0.8492 -0.8586 0.8027 0
M  V30 7 C -0.6781 0.7634 -0.9924 0
M  V30 8 C -2.2019 -0.5396 0.959 0
M  V30 9 C -2.0311 1.0795 -0.8327 0
M  V30 10 C -2.7931 0.4268 0.1404 0
M  V30 11 H 4.0419 0.9535 1.2679 0
M  V30 12 H 1.5716 -1.592 -0.0525 0
M  V30 13 H 1.6985 -0.389 -1.3839 0
M  V30 14 H -0.401 -1.6023 1.4498 0
M  V30 15 H -0.0966 1.2834 -1.7436 0
M  V30 16 H -2.791 -1.0389 1.7173 0
M  V30 17 H -2.488 1.8331 -1.461 0
M  V30 18 H -3.8398 0.6735 0.2636 0
M  V30 END ATOM
M  V30 BEGIN BOND
M  V30 1 2 1 2
M  V30 2 1 2 3
M  V30 3 1 3 4
M  V30 4 1 4 5
M  V30 5 2 5 6
M  V30 6 1 5 7
M  V30 7 1 6 8
M  V30 8 2 7 9
M  V30 9 2 8 10
M  V30 10 1 9 10
M  V30 11 1 2 11
M  V30 12 1 4 12
M  V30 13 1 4 13
M  V30 14 1 6 14
M  V30 15 1 7 15
M  V30 16 1 8 16
M  V30 17 1 9 17
M  V30 18 1 10 18
M  V30 END BOND
M  V30 END CTAB
M  END
>  <Structure No>
2150

>  <LogS>
-1.673119803

>  <MMFF94 Energy>
9.0594

$$$$
Compound 2151
Actelion Java MolfileCreator 2.0

  0  0  0  0  0  0              0 V3000
M  V30 BEGIN CTAB
M  V30 COUNTS 21 20 0 0 0
M  V30 BEGIN ATOM
M  V30 1 O -0.9195 -0.0766 0.5363 0
M  V30 2 C 0.0768 0.9108 0.7306 0
M  V30 3 C -2.0185 0.4589 -0.1708 0
M  V30 4 C 1.1367 0.8577 -0.3808 0
M  V30 5 C -2.9981 -0.6592 -0.4905 0
M  V30 6 C 1.751 -0.5376 -0.581 0
M  V30 7 C 2.5914 -0.9915 0.6118 0
M  V30 8 H -0.3355 1.9454 0.8027 0
M  V30 9 H 0.5666 0.7207 1.7079 0
M  V30 10 H -1.6955 0.9224 -1.1301 0
M  V30 11 H -2.5444 1.2188 0.4502 0
M  V30 12 H 0.6718 1.1779 -1.3374 0
M  V30 13 H 1.9418 1.5889 -0.1502 0
M  V30 14 H -2.5025 -1.429 -1.1195 0
M  V30 15 H -3.8697 -0.2489 -1.0428 0
M  V30 16 H -3.3564 -1.1312 0.4488 0
M  V30 17 H 0.9543 -1.2858 -0.7822 0
M  V30 18 H 2.4081 -0.5037 -1.4769 0
M  V30 19 H 3.3573 -0.2267 0.8616 0
M  V30 20 H 3.109 -1.9404 0.3584 0
M  V30 21 H 1.9481 -1.1755 1.4972 0
M  V30 END ATOM
M  V30 BEGIN BOND
M  V30 1 1 1 2
M  V30 2 1 1 3
M  V30 3 1 2 4
M  V30 4 1 3 5
M  V30 5 1 4 6
M  V30 6 1 6 7
M  V30 7 1 2 8
M  V30 8 1 2 9
M  V30 9 1 3 10
M  V30 10 1 3 11
M  V30 11 1 4 12
M  V30 12 1 4 13
M  V30 13 1 5 14
M  V30 14 1 5 15
M  V30 15 1 5 16
M  V30 16 1 6 17
M  V30 17 1 6 18
M  V30 18 1 7 19
M  V30 19 1 7 20
M  V30 20 1 7 21
M  V30 END BOND
M  V30 END CTAB
M  END
>  <Structure No>
2151

>  <LogS>
-1.54996066

>  <MMFF94 Energy>
1.8489

$$$$
Compound 2152
Actelion Java MolfileCreator 2.0

  0  0  0  0  0  0              0 V3000
M  V30 BEGIN CTAB
M  V30 COUNTS 46 49 0 0 0
M  V30 BEGIN ATOM
M  V30 1 S -0.8256 0.0 -1.3213 0
M  V30 2 C -2.262 -0.8605 -1.212 0
M  V30 3 C -1.2639 0.9222 0.0386 0
M  V30 4 N -2.6554 -1.8645 -2.0311 0
M  V30 5 N -3.0254 -0.4367 -0.1833 0
M  V30 6 N -2.48 0.5581 0.5148 0
M  V30 7 C -0.4712 2.0184 0.6207 0
M  V30 8 C -3.8546 -2.4746 -1.8232 0
M  V30 9 C -4.237 -1.0037 0.0779 0
M  V30 10 O -1.014 2.7919 1.4541 0
M  V30 11 C 0.937 2.2555 0.2299 0
M  V30 12 O -4.2099 -3.4077 -2.5921 0
M  V30 13 C -4.6858 -2.0597 -0.7562 0
M  V30 14 C -5.0422 -0.5687 1.145 0
M  V30 15 N 1.8356 1.3212 0.3286 0
M  V30 16 C 1.3527 3.5861 -0.2439 0
M  V30 17 C -5.9327 -2.6593 -0.5035 0
M  V30 18 C -6.2793 -1.1742 1.3813 0
M  V30 19 N 1.5477 0.0451 0.8352 0 CHG=-1
M  V30 20 O 0.5 4.5072 -0.3732 0
M  V30 21 O 2.6992 3.8175 -0.5511 0
M  V30 22 C -6.7224 -2.2151 0.561 0
M  V30 23 C 2.5338 -0.9882 0.904 0
M  V30 24 C 3.186 5.0533 -1.0707 0
M  V30 25 C 2.1672 -2.2461 1.3924 0
M  V30 26 C 3.856 -0.767 0.488 0
M  V30 27 C 2.8285 5.1946 -2.5457 0
M  V30 28 C 3.1077 -3.2775 1.4665 0
M  V30 29 C 4.7988 -1.7966 0.5629 0
M  V30 30 C 4.4355 -3.0634 1.053 0
M  V30 31 N 5.4083 -4.1215 1.1284 0 CHG=1
M  V30 32 O 5.0887 -5.252 1.5513 0
M  V30 33 O 6.709 -3.9046 0.7349 0 CHG=-1
M  V30 34 H -4.7187 0.2364 1.7924 0
M  V30 35 H -6.2984 -3.4668 -1.1255 0
M  V30 36 H -6.8973 -0.8352 2.2029 0
M  V30 37 H -7.6817 -2.6789 0.7505 0
M  V30 38 H 4.2915 5.0683 -0.969 0
M  V30 39 H 2.7745 5.9073 -0.4897 0
M  V30 40 H 1.1488 -2.4273 1.7138 0
M  V30 41 H 4.1612 0.1985 0.1062 0
M  V30 42 H 3.2629 6.1344 -2.9468 0
M  V30 43 H 3.2378 4.3357 -3.1184 0
M  V30 44 H 1.7268 5.2273 -2.6765 0
M  V30 45 H 2.7965 -4.2414 1.8484 0
M  V30 46 H 5.8118 -1.6009 0.2363 0
M  V30 END ATOM
M  V30 BEGIN BOND
M  V30 1 1 1 2
M  V30 2 1 1 3
M  V30 3 2 2 4
M  V30 4 1 2 5
M  V30 5 2 3 6
M  V30 6 1 3 7
M  V30 7 1 4 8
M  V30 8 1 5 9
M  V30 9 2 7 10
M  V30 10 1 7 11
M  V30 11 2 8 12
M  V30 12 1 8 13
M  V30 13 1 9 14
M  V30 14 2 11 15
M  V30 15 1 11 16
M  V30 16 1 13 17
M  V30 17 2 14 18
M  V30 18 1 15 19
M  V30 19 2 16 20
M  V30 20 1 16 21
M  V30 21 2 17 22
M  V30 22 1 19 23
M  V30 23 1 21 24
M  V30 24 2 23 25
M  V30 25 1 23 26
M  V30 26 1 24 27
M  V30 27 1 25 28
M  V30 28 2 26 29
M  V30 29 2 28 30
M  V30 30 1 30 31
M  V30 31 2 31 32
M  V30 32 1 31 33
M  V30 33 1 5 6
M  V30 34 2 9 13
M  V30 35 1 18 22
M  V30 36 1 29 30
M  V30 37 1 14 34
M  V30 38 1 17 35
M  V30 39 1 18 36
M  V30 40 1 22 37
M  V30 41 1 24 38
M  V30 42 1 24 39
M  V30 43 1 25 40
M  V30 44 1 26 41
M  V30 45 1 27 42
M  V30 46 1 27 43
M  V30 47 1 27 44
M  V30 48 1 28 45
M  V30 49 1 29 46
M  V30 END BOND
M  V30 END CTAB
M  END
>  <Structure No>
2152

>  <LogS>
-2.2216331

>  <MMFF94 Energy>
113.78

$$$$
Compound 2153
Actelion Java MolfileCreator 2.0

  0  0  0  0  0  0              0 V3000
M  V30 BEGIN CTAB
M  V30 COUNTS 29 29 0 0 0
M  V30 BEGIN ATOM
M  V30 1 N 2.1573 -1.2323 0.539 0 CHG=1
M  V30 2 C 0.8983 -0.9191 -0.0778 0
M  V30 3 C 3.3266 -0.9596 0.0223 0
M  V30 4 N 0.6483 -1.3175 -1.2912 0 CHG=1
M  V30 5 N -0.1357 -0.3245 0.7237 0
M  V30 6 N 4.5128 -1.3807 0.7021 0
M  V30 7 N 3.4571 -0.1981 -1.1862 0
M  V30 8 C -1.2033 0.482 0.1922 0
M  V30 9 C -2.4882 0.4541 0.7834 0
M  V30 10 C -0.9614 1.352 -0.887 0
M  V30 11 C -3.4998 1.2906 0.2803 0
M  V30 12 C -2.7851 -0.4455 1.952 0
M  V30 13 C -1.9798 2.1681 -1.3829 0
M  V30 14 C -3.2464 2.1374 -0.8003 0
M  V30 15 H 2.116 -1.6859 1.4796 0
M  V30 16 H 1.3686 -1.8309 -1.8461 0
M  V30 17 H -0.291 -1.1851 -1.7268 0
M  V30 18 H -0.0651 -0.4344 1.7601 0
M  V30 19 H 4.4598 -1.9268 1.5907 0
M  V30 20 H 5.4541 -1.1501 0.3142 0
M  V30 21 H 2.6529 0.308 -1.6169 0
M  V30 22 H 4.4002 -0.0541 -1.61 0
M  V30 23 H 0.0223 1.4115 -1.3345 0
M  V30 24 H -4.4879 1.2874 0.7237 0
M  V30 25 H -2.2931 -0.0461 2.8633 0
M  V30 26 H -3.8771 -0.5168 2.1432 0
M  V30 27 H -2.4096 -1.4707 1.7497 0
M  V30 28 H -1.7833 2.833 -2.214 0
M  V30 29 H -4.0325 2.7757 -1.1829 0
M  V30 END ATOM
M  V30 BEGIN BOND
M  V30 1 1 1 2
M  V30 2 2 1 3
M  V30 3 2 2 4
M  V30 4 1 2 5
M  V30 5 1 3 6
M  V30 6 1 3 7
M  V30 7 1 5 8
M  V30 8 2 8 9
M  V30 9 1 8 10
M  V30 10 1 9 11
M  V30 11 1 9 12
M  V30 12 2 10 13
M  V30 13 2 11 14
M  V30 14 1 13 14
M  V30 15 1 1 15
M  V30 16 1 4 16
M  V30 17 1 4 17
M  V30 18 1 5 18
M  V30 19 1 6 19
M  V30 20 1 6 20
M  V30 21 1 7 21
M  V30 22 1 7 22
M  V30 23 1 10 23
M  V30 24 1 11 24
M  V30 25 1 12 25
M  V30 26 1 12 26
M  V30 27 1 12 27
M  V30 28 1 13 28
M  V30 29 1 14 29
M  V30 END BOND
M  V30 END CTAB
M  END
>  <Structure No>
2153

>  <LogS>
-1.842241499

>  <MMFF94 Energy>
-230.33

$$$$
Compound 2154
Actelion Java MolfileCreator 2.0

  0  0  0  0  0  0              0 V3000
M  V30 BEGIN CTAB
M  V30 COUNTS 30 30 0 0 0
M  V30 BEGIN ATOM
M  V30 1 O -0.3922 0.0784 0.9415 0
M  V30 2 C -1.5463 0.3141 0.1575 0 CFG=2
M  V30 3 C 0.5531 -0.6054 0.1438 0 CFG=2
M  V30 4 C -2.764 -0.2337 0.8786 0
M  V30 5 C -1.3626 -0.3602 -1.2095 0
M  V30 6 C -1.7005 1.8352 -0.0173 0
M  V30 7 C 1.999 -0.0998 0.4473 0
M  V30 8 C 0.1234 -0.5042 -1.3172 0
M  V30 9 C -2.8105 -1.4868 1.3452 0
M  V30 10 O 2.334 -0.4449 1.7718 0
M  V30 11 C 2.1332 1.4311 0.2784 0
M  V30 12 C 3.017 -0.7994 -0.4706 0
M  V30 13 H 0.5075 -1.6816 0.429 0
M  V30 14 H -3.6246 0.4084 1.049 0
M  V30 15 H -1.8244 -1.3728 -1.2354 0
M  V30 16 H -1.7767 0.2343 -2.054 0
M  V30 17 H -0.8169 2.2578 -0.5415 0
M  V30 18 H -2.6103 2.0739 -0.61 0
M  V30 19 H -1.7828 2.3295 0.9748 0
M  V30 20 H 0.4049 -1.4124 -1.8939 0
M  V30 21 H 0.5404 0.3948 -1.8159 0
M  V30 22 H -3.6949 -1.8397 1.8658 0
M  V30 23 H -1.974 -2.166 1.2136 0
M  V30 24 H 1.7214 0.0414 2.384 0
M  V30 25 H 3.1425 1.7605 0.607 0
M  V30 26 H 2.0033 1.7429 -0.7778 0
M  V30 27 H 1.384 1.9653 0.9003 0
M  V30 28 H 2.9193 -1.903 -0.3849 0
M  V30 29 H 4.0523 -0.5208 -0.178 0
M  V30 30 H 2.8702 -0.5104 -1.533 0
M  V30 END ATOM
M  V30 BEGIN BOND
M  V30 1 1 1 2
M  V30 2 1 1 3
M  V30 3 1 2 4
M  V30 4 1 2 5
M  V30 5 1 2 6
M  V30 6 1 3 7
M  V30 7 1 3 8
M  V30 8 2 4 9
M  V30 9 1 7 10
M  V30 10 1 7 11
M  V30 11 1 7 12
M  V30 12 1 5 8
M  V30 13 1 3 13
M  V30 14 1 4 14
M  V30 15 1 5 15
M  V30 16 1 5 16
M  V30 17 1 6 17
M  V30 18 1 6 18
M  V30 19 1 6 19
M  V30 20 1 8 20
M  V30 21 1 8 21
M  V30 22 1 9 22
M  V30 23 1 9 23
M  V30 24 1 10 24
M  V30 25 1 11 25
M  V30 26 1 11 26
M  V30 27 1 11 27
M  V30 28 1 12 28
M  V30 29 1 12 29
M  V30 30 1 12 30
M  V30 END BOND
M  V30 BEGIN COLLECTION
M  V30 MDLV30/STEABS ATOMS=(2 2 3)
M  V30 END COLLECTION
M  V30 END CTAB
M  END
>  <Structure No>
2154

>  <LogS>
-1.799728458

>  <MMFF94 Energy>
43.367

$$$$
Compound 2155
Actelion Java MolfileCreator 2.0

  0  0  0  0  0  0              0 V3000
M  V30 BEGIN CTAB
M  V30 COUNTS 27 27 0 0 0
M  V30 BEGIN ATOM
M  V30 1 O 1.1035 0.394 -1.7345 0
M  V30 2 C 1.1266 -0.429 -0.7794 0
M  V30 3 N -0.0222 -0.6007 0.0653 0
M  V30 4 C 2.3706 -1.2234 -0.5243 0
M  V30 5 C -1.1758 0.2587 0.0211 0
M  V30 6 C 3.2093 -0.5479 0.5228 0
M  V30 7 C -2.4786 -0.2794 0.1464 0
M  V30 8 C -1.0154 1.6521 -0.0906 0
M  V30 9 O 2.8184 -0.5074 1.6801 0
M  V30 10 C 4.5269 0.0673 0.1604 0
M  V30 11 C -3.5872 0.5851 0.1507 0
M  V30 12 C -2.6962 -1.7614 0.2886 0
M  V30 13 C -2.1272 2.4967 -0.0957 0
M  V30 14 C -3.4106 1.9642 0.0241 0
M  V30 15 H -0.0346 -1.4214 0.7115 0
M  V30 16 H 2.1063 -2.2476 -0.1847 0
M  V30 17 H 2.9454 -1.3238 -1.4709 0
M  V30 18 H -0.0271 2.0895 -0.1481 0
M  V30 19 H 5.2096 -0.7163 -0.2287 0
M  V30 20 H 4.9955 0.5433 1.0481 0
M  V30 21 H 4.3739 0.8406 -0.6212 0
M  V30 22 H -4.5915 0.1922 0.2511 0
M  V30 23 H -2.1068 -2.309 -0.4767 0
M  V30 24 H -2.3794 -2.0883 1.301 0
M  V30 25 H -3.7649 -2.0309 0.1494 0
M  V30 26 H -1.9926 3.5673 -0.181 0
M  V30 27 H -4.2703 2.622 0.026 0
M  V30 END ATOM
M  V30 BEGIN BOND
M  V30 1 2 1 2
M  V30 2 1 2 3
M  V30 3 1 2 4
M  V30 4 1 3 5
M  V30 5 1 4 6
M  V30 6 2 5 7
M  V30 7 1 5 8
M  V30 8 2 6 9
M  V30 9 1 6 10
M  V30 10 1 7 11
M  V30 11 1 7 12
M  V30 12 2 8 13
M  V30 13 2 11 14
M  V30 14 1 13 14
M  V30 15 1 3 15
M  V30 16 1 4 16
M  V30 17 1 4 17
M  V30 18 1 8 18
M  V30 19 1 10 19
M  V30 20 1 10 20
M  V30 21 1 10 21
M  V30 22 1 11 22
M  V30 23 1 12 23
M  V30 24 1 12 24
M  V30 25 1 12 25
M  V30 26 1 13 26
M  V30 27 1 14 27
M  V30 END BOND
M  V30 END CTAB
M  END
>  <Structure No>
2155

>  <LogS>
-1.850192261

>  <MMFF94 Energy>
-3.5313

$$$$
Compound 2156
Actelion Java MolfileCreator 2.0

  0  0  0  0  0  0              0 V3000
M  V30 BEGIN CTAB
M  V30 COUNTS 26 25 0 0 0
M  V30 BEGIN ATOM
M  V30 1 O 2.324 -0.0773 2.0138 0
M  V30 2 C 2.4675 -0.1943 0.7671 0
M  V30 3 N 1.3606 0.0239 -0.1195 0
M  V30 4 N 3.7438 -0.5503 0.2382 0
M  V30 5 C 0.0067 0.3479 0.3494 0
M  V30 6 N -0.5563 1.4205 -0.4779 0
M  V30 7 C -0.9117 -0.9022 0.3177 0
M  V30 8 C -1.6583 2.231 -0.0465 0
M  V30 9 C -1.0522 -1.497 -1.0922 0
M  V30 10 C -0.4308 -1.9756 1.3033 0
M  V30 11 O -2.1578 2.0735 1.0999 0
M  V30 12 N -2.1943 3.2271 -0.9161 0
M  V30 13 H 1.5167 -0.1165 -1.1431 0
M  V30 14 H 3.8823 -0.6536 -0.7912 0
M  V30 15 H 4.5533 -0.7123 0.8775 0
M  V30 16 H 0.0616 0.7206 1.3964 0
M  V30 17 H -0.1545 1.598 -1.4263 0
M  V30 18 H -1.9267 -0.5901 0.6491 0
M  V30 19 H -1.4164 -0.7283 -1.8058 0
M  V30 20 H -1.7907 -2.3268 -1.0807 0
M  V30 21 H -0.0823 -1.8977 -1.4549 0
M  V30 22 H -1.1611 -2.8119 1.3419 0
M  V30 23 H -0.3429 -1.5485 2.3249 0
M  V30 24 H 0.5557 -2.383 0.996 0
M  V30 25 H -2.9956 3.8214 -0.6073 0
M  V30 26 H -1.7937 3.3716 -1.8692 0
M  V30 END ATOM
M  V30 BEGIN BOND
M  V30 1 2 1 2
M  V30 2 1 2 3
M  V30 3 1 2 4
M  V30 4 1 3 5
M  V30 5 1 5 6
M  V30 6 1 5 7
M  V30 7 1 6 8
M  V30 8 1 7 9
M  V30 9 1 7 10
M  V30 10 2 8 11
M  V30 11 1 8 12
M  V30 12 1 3 13
M  V30 13 1 4 14
M  V30 14 1 4 15
M  V30 15 1 5 16
M  V30 16 1 6 17
M  V30 17 1 7 18
M  V30 18 1 9 19
M  V30 19 1 9 20
M  V30 20 1 9 21
M  V30 21 1 10 22
M  V30 22 1 10 23
M  V30 23 1 10 24
M  V30 24 1 12 25
M  V30 25 1 12 26
M  V30 END BOND
M  V30 END CTAB
M  END
>  <Structure No>
2156

>  <LogS>
-1.809694359

>  <MMFF94 Energy>
-240.82

$$$$
Compound 2157
Actelion Java MolfileCreator 2.0

  0  0  0  0  0  0              0 V3000
M  V30 BEGIN CTAB
M  V30 COUNTS 8 7 0 0 0
M  V30 BEGIN ATOM
M  V30 1 Cl 1.7643 0.9238 0.7558 0
M  V30 2 C 0.7471 -0.2367 -0.136 0
M  V30 3 C -0.7286 0.0752 0.0752 0
M  V30 4 F -1.0251 1.3296 -0.4272 0
M  V30 5 F -1.5001 -0.8677 -0.5786 0
M  V30 6 H 0.9686 -1.2614 0.2303 0
M  V30 7 H 0.9939 -0.1806 -1.2174 0
M  V30 8 H -0.9701 0.0484 1.159 0
M  V30 END ATOM
M  V30 BEGIN BOND
M  V30 1 1 1 2
M  V30 2 1 2 3
M  V30 3 1 3 4
M  V30 4 1 3 5
M  V30 5 1 2 6
M  V30 6 1 2 7
M  V30 7 1 3 8
M  V30 END BOND
M  V30 END CTAB
M  END
>  <Structure No>
2157

>  <LogS>
-0.922963209

>  <MMFF94 Energy>
15.265

$$$$
Compound 2158
Actelion Java MolfileCreator 2.0

  0  0  0  0  0  0              0 V3000
M  V30 BEGIN CTAB
M  V30 COUNTS 32 32 0 0 0
M  V30 BEGIN ATOM
M  V30 1 O 3.5315 1.0976 -0.7055 0
M  V30 2 C 2.506 0.1338 -0.6247 0
M  V30 3 C 1.1758 0.7817 -0.2182 0
M  V30 4 C 2.3494 -0.4912 -2.0179 0
M  V30 5 C 2.9387 -0.9567 0.3815 0
M  V30 6 C 0.0702 -0.0148 0.1476 0
M  V30 7 C 0.9987 2.1769 -0.2897 0
M  V30 8 C -1.1722 0.5588 0.4938 0
M  V30 9 C -0.2237 2.7568 0.0449 0
M  V30 10 C -1.2987 1.9612 0.4382 0
M  V30 11 C -2.3526 -0.3318 0.8967 0
M  V30 12 O -3.4647 0.4698 1.2298 0
M  V30 13 C -1.9702 -1.1804 2.1276 0
M  V30 14 C -2.7357 -1.2467 -0.2846 0
M  V30 15 H 3.6831 1.4591 0.2079 0
M  V30 16 H 1.5694 -1.2829 -2.0151 0
M  V30 17 H 3.3092 -0.9437 -2.3477 0
M  V30 18 H 2.0601 0.2867 -2.7569 0
M  V30 19 H 2.9102 -0.559 1.4187 0
M  V30 20 H 2.2882 -1.8544 0.3262 0
M  V30 21 H 3.9781 -1.2832 0.1635 0
M  V30 22 H 0.1715 -1.0895 0.1506 0
M  V30 23 H 1.8008 2.8281 -0.6104 0
M  V30 24 H -0.3412 3.8317 -0.0074 0
M  V30 25 H -2.2296 2.4534 0.6857 0
M  V30 26 H -4.2192 -0.1263 1.4798 0
M  V30 27 H -2.8356 -1.7912 2.4633 0
M  V30 28 H -1.1354 -1.8761 1.9017 0
M  V30 29 H -1.6654 -0.5191 2.9669 0
M  V30 30 H -1.9039 -1.9294 -0.5571 0
M  V30 31 H -2.997 -0.6327 -1.1731 0
M  V30 32 H -3.6158 -1.8727 -0.0233 0
M  V30 END ATOM
M  V30 BEGIN BOND
M  V30 1 1 1 2
M  V30 2 1 2 3
M  V30 3 1 2 4
M  V30 4 1 2 5
M  V30 5 2 3 6
M  V30 6 1 3 7
M  V30 7 1 6 8
M  V30 8 2 7 9
M  V30 9 2 8 10
M  V30 10 1 8 11
M  V30 11 1 11 12
M  V30 12 1 11 13
M  V30 13 1 11 14
M  V30 14 1 9 10
M  V30 15 1 1 15
M  V30 16 1 4 16
M  V30 17 1 4 17
M  V30 18 1 4 18
M  V30 19 1 5 19
M  V30 20 1 5 20
M  V30 21 1 5 21
M  V30 22 1 6 22
M  V30 23 1 7 23
M  V30 24 1 9 24
M  V30 25 1 10 25
M  V30 26 1 12 26
M  V30 27 1 13 27
M  V30 28 1 13 28
M  V30 29 1 13 29
M  V30 30 1 14 30
M  V30 31 1 14 31
M  V30 32 1 14 32
M  V30 END BOND
M  V30 END CTAB
M  END
>  <Structure No>
2158

>  <LogS>
-1.863533046

>  <MMFF94 Energy>
42.85

$$$$
Compound 2159
Actelion Java MolfileCreator 2.0

  0  0  0  0  0  0              0 V3000
M  V30 BEGIN CTAB
M  V30 COUNTS 23 23 0 0 0
M  V30 BEGIN ATOM
M  V30 1 N -0.2334 -1.791 -0.7784 0
M  V30 2 C -0.4321 -0.4525 -0.285 0
M  V30 3 C 0.6244 0.4991 -0.3191 0
M  V30 4 C -1.691 -0.071 0.2493 0
M  V30 5 C 0.4137 1.7844 0.2075 0
M  V30 6 C 1.994 0.1744 -0.8727 0
M  V30 7 C -1.8702 1.2282 0.7495 0
M  V30 8 C -2.8476 -1.0346 0.3034 0
M  V30 9 C -0.8237 2.1448 0.7324 0
M  V30 10 C 2.8625 -0.5065 0.1813 0
M  V30 11 H 0.7026 -2.1517 -1.0587 0
M  V30 12 H -1.0168 -2.4758 -0.8483 0
M  V30 13 H 1.2129 2.5155 0.2089 0
M  V30 14 H 2.5058 1.1054 -1.2019 0
M  V30 15 H 1.9175 -0.4592 -1.7801 0
M  V30 16 H -2.8237 1.5343 1.1625 0
M  V30 17 H -2.568 -1.9258 0.9038 0
M  V30 18 H -3.7445 -0.5772 0.7731 0
M  V30 19 H -3.1246 -1.3478 -0.7249 0
M  V30 20 H -0.9723 3.1412 1.1287 0
M  V30 21 H 3.0046 0.1671 1.0532 0
M  V30 22 H 3.8576 -0.7409 -0.2519 0
M  V30 23 H 2.3945 -1.4519 0.5271 0
M  V30 END ATOM
M  V30 BEGIN BOND
M  V30 1 1 1 2
M  V30 2 2 2 3
M  V30 3 1 2 4
M  V30 4 1 3 5
M  V30 5 1 3 6
M  V30 6 2 4 7
M  V30 7 1 4 8
M  V30 8 2 5 9
M  V30 9 1 6 10
M  V30 10 1 7 9
M  V30 11 1 1 11
M  V30 12 1 1 12
M  V30 13 1 5 13
M  V30 14 1 6 14
M  V30 15 1 6 15
M  V30 16 1 7 16
M  V30 17 1 8 17
M  V30 18 1 8 18
M  V30 19 1 8 19
M  V30 20 1 9 20
M  V30 21 1 10 21
M  V30 22 1 10 22
M  V30 23 1 10 23
M  V30 END BOND
M  V30 END CTAB
M  END
>  <Structure No>
2159

>  <LogS>
-1.706127176

>  <MMFF94 Energy>
17.739

$$$$
Compound 2160
Actelion Java MolfileCreator 2.0

  0  0  0  0  0  0              0 V3000
M  V30 BEGIN CTAB
M  V30 COUNTS 5 4 0 0 0
M  V30 BEGIN ATOM
M  V30 1 S 0.0 0.0 0.0 0
M  V30 2 O -0.4747 -0.9703 -1.0438 0
M  V30 3 O -0.2003 -0.5949 1.3647 0
M  V30 4 O -0.8766 1.4274 -0.1225 0 CHG=-1
M  V30 5 O 1.6311 0.3227 -0.236 0 CHG=-1
M  V30 END ATOM
M  V30 BEGIN BOND
M  V30 1 2 1 2
M  V30 2 2 1 3
M  V30 3 1 1 4
M  V30 4 1 1 5
M  V30 END BOND
M  V30 END CTAB
M  END
>  <Structure No>
2160

>  <LogS>
-1.715687645

>  <MMFF94 Energy>
27.585

$$$$
Compound 2161
Actelion Java MolfileCreator 2.0

  0  0  0  0  0  0              0 V3000
M  V30 BEGIN CTAB
M  V30 COUNTS 28 28 0 0 0
M  V30 BEGIN ATOM
M  V30 1 O 2.0532 1.5001 0.1578 0
M  V30 2 C 2.0459 0.5635 -0.686 0
M  V30 3 N 0.8126 -0.0597 -1.0787 0
M  V30 4 C 3.3411 0.1008 -1.2792 0
M  V30 5 C -0.4412 0.1374 -0.4032 0
M  V30 6 C 3.85 -1.0993 -0.5301 0
M  V30 7 C -0.5061 0.3001 0.9916 0
M  V30 8 C -1.6326 0.1053 -1.1417 0
M  V30 9 O 3.2932 -2.1774 -0.6723 0
M  V30 10 C 5.0268 -1.0008 0.3946 0
M  V30 11 C -1.7407 0.4648 1.6263 0
M  V30 12 C -2.867 0.2712 -0.5069 0
M  V30 13 C -2.9285 0.4561 0.8871 0
M  V30 14 O -4.1411 0.6279 1.5711 0
M  V30 15 C -5.4211 0.639 0.9474 0
M  V30 16 H 0.8133 -0.6315 -1.9536 0
M  V30 17 H 4.0812 0.9291 -1.2428 0
M  V30 18 H 3.1973 -0.1627 -2.3488 0
M  V30 19 H 0.3908 0.2738 1.5954 0
M  V30 20 H -1.6028 -0.0384 -2.2145 0
M  V30 21 H 4.7231 -1.315 1.4152 0
M  V30 22 H 5.4152 0.0376 0.4463 0
M  V30 23 H 5.838 -1.668 0.0356 0
M  V30 24 H -1.7754 0.5912 2.7011 0
M  V30 25 H -3.7658 0.2518 -1.1078 0
M  V30 26 H -5.6085 -0.3324 0.4433 0
M  V30 27 H -6.2003 0.7936 1.7215 0
M  V30 28 H -5.4805 1.4691 0.2123 0
M  V30 END ATOM
M  V30 BEGIN BOND
M  V30 1 2 1 2
M  V30 2 1 2 3
M  V30 3 1 2 4
M  V30 4 1 3 5
M  V30 5 1 4 6
M  V30 6 2 5 7
M  V30 7 1 5 8
M  V30 8 2 6 9
M  V30 9 1 6 10
M  V30 10 1 7 11
M  V30 11 2 8 12
M  V30 12 2 11 13
M  V30 13 1 13 14
M  V30 14 1 14 15
M  V30 15 1 12 13
M  V30 16 1 3 16
M  V30 17 1 4 17
M  V30 18 1 4 18
M  V30 19 1 7 19
M  V30 20 1 8 20
M  V30 21 1 10 21
M  V30 22 1 10 22
M  V30 23 1 10 23
M  V30 24 1 11 24
M  V30 25 1 12 25
M  V30 26 1 15 26
M  V30 27 1 15 27
M  V30 28 1 15 28
M  V30 END BOND
M  V30 END CTAB
M  END
>  <Structure No>
2161

>  <LogS>
-1.901477183

>  <MMFF94 Energy>
-5.2999

$$$$
Compound 2162
Actelion Java MolfileCreator 2.0

  0  0  0  0  0  0              0 V3000
M  V30 BEGIN CTAB
M  V30 COUNTS 24 25 0 0 0
M  V30 BEGIN ATOM
M  V30 1 O -1.4292 0.635 0.7144 0
M  V30 2 C -0.5781 0.8075 -0.3743 0 CFG=1
M  V30 3 C -2.6101 0.0773 0.1835 0 CFG=1
M  V30 4 C 0.8501 0.4896 0.0025 0
M  V30 5 C -1.0962 -0.1061 -1.452 0
M  V30 6 O -2.4383 -0.3278 -1.1567 0
M  V30 7 C -3.0331 -1.118 1.0289 0
M  V30 8 C 1.9028 1.2612 -0.5192 0
M  V30 9 C 1.1505 -0.6101 0.8278 0
M  V30 10 C 3.2292 0.954 -0.1998 0
M  V30 11 C 2.4783 -0.9133 1.1439 0
M  V30 12 C 3.5166 -0.1306 0.6327 0
M  V30 13 H -0.6611 1.8658 -0.7124 0
M  V30 14 H -3.4152 0.8432 0.223 0
M  V30 15 H -1.0014 0.3685 -2.452 0
M  V30 16 H -0.5675 -1.0852 -1.4624 0
M  V30 17 H -3.9806 -1.5436 0.6356 0
M  V30 18 H -2.2461 -1.9015 1.0028 0
M  V30 19 H -3.1927 -0.8004 2.0811 0
M  V30 20 H 1.6976 2.0995 -1.1733 0
M  V30 21 H 0.3584 -1.2339 1.2227 0
M  V30 22 H 4.0348 1.5551 -0.6012 0
M  V30 23 H 2.7024 -1.7579 1.7825 0
M  V30 24 H 4.5439 -0.3676 0.8774 0
M  V30 END ATOM
M  V30 BEGIN BOND
M  V30 1 1 1 2
M  V30 2 1 1 3
M  V30 3 1 2 4
M  V30 4 1 2 5
M  V30 5 1 3 6
M  V30 6 1 3 7
M  V30 7 2 4 8
M  V30 8 1 4 9
M  V30 9 1 8 10
M  V30 10 2 9 11
M  V30 11 2 10 12
M  V30 12 1 5 6
M  V30 13 1 11 12
M  V30 14 1 2 13
M  V30 15 1 3 14
M  V30 16 1 5 15
M  V30 17 1 5 16
M  V30 18 1 7 17
M  V30 19 1 7 18
M  V30 20 1 7 19
M  V30 21 1 8 20
M  V30 22 1 9 21
M  V30 23 1 10 22
M  V30 24 1 11 23
M  V30 25 1 12 24
M  V30 END BOND
M  V30 BEGIN COLLECTION
M  V30 MDLV30/STEABS ATOMS=(2 2 3)
M  V30 END COLLECTION
M  V30 END CTAB
M  END
>  <Structure No>
2162

>  <LogS>
-1.805450609

>  <MMFF94 Energy>
39.584

$$$$
Compound 2163
Actelion Java MolfileCreator 2.0

  0  0  0  0  0  0              0 V3000
M  V30 BEGIN CTAB
M  V30 COUNTS 27 27 0 0 0
M  V30 BEGIN ATOM
M  V30 1 O -2.6822 2.7612 0.0 0
M  V30 2 C -1.9404 1.7732 -0.2442 0
M  V30 3 C -2.5439 0.4777 -0.5932 0
M  V30 4 C -0.4491 1.939 -0.2348 0
M  V30 5 C -1.7842 -0.5979 -0.8505 0
M  V30 6 C 0.2487 0.6031 0.0876 0 CFG=1
M  V30 7 C -0.2724 -0.5044 -0.8574 0
M  V30 8 C -2.4481 -1.894 -1.2174 0
M  V30 9 C 1.7834 0.7826 -0.0112 0
M  V30 10 C 2.6123 -0.4534 0.3846 0
M  V30 11 C 2.3901 -0.8872 1.8331 0
M  V30 12 H -3.6248 0.3978 -0.6211 0
M  V30 13 H -0.1679 2.6999 0.526 0
M  V30 14 H -0.1302 2.3074 -1.2342 0
M  V30 15 H -0.0173 0.3328 1.1333 0
M  V30 16 H 0.1423 -1.4832 -0.5384 0
M  V30 17 H 0.0648 -0.3046 -1.8977 0
M  V30 18 H -1.697 -2.6749 -1.4604 0
M  V30 19 H -3.0978 -1.7474 -2.1065 0
M  V30 20 H -3.0674 -2.252 -0.3679 0
M  V30 21 H 2.0522 1.0598 -1.0543 0
M  V30 22 H 2.0926 1.6306 0.6393 0
M  V30 23 H 3.6873 -0.1981 0.2618 0
M  V30 24 H 2.4052 -1.3027 -0.2989 0
M  V30 25 H 2.5084 -0.0234 2.5215 0
M  V30 26 H 3.1382 -1.6614 2.1051 0
M  V30 27 H 1.3797 -1.3287 1.9591 0
M  V30 END ATOM
M  V30 BEGIN BOND
M  V30 1 2 1 2
M  V30 2 1 2 3
M  V30 3 1 2 4
M  V30 4 2 3 5
M  V30 5 1 4 6
M  V30 6 1 5 7
M  V30 7 1 5 8
M  V30 8 1 6 9
M  V30 9 1 9 10
M  V30 10 1 10 11
M  V30 11 1 6 7
M  V30 12 1 3 12
M  V30 13 1 4 13
M  V30 14 1 4 14
M  V30 15 1 6 15
M  V30 16 1 7 16
M  V30 17 1 7 17
M  V30 18 1 8 18
M  V30 19 1 8 19
M  V30 20 1 8 20
M  V30 21 1 9 21
M  V30 22 1 9 22
M  V30 23 1 10 23
M  V30 24 1 10 24
M  V30 25 1 11 25
M  V30 26 1 11 26
M  V30 27 1 11 27
M  V30 END BOND
M  V30 BEGIN COLLECTION
M  V30 MDLV30/STEABS ATOMS=(1 6)
M  V30 END COLLECTION
M  V30 END CTAB
M  END
>  <Structure No>
2163

>  <LogS>
-1.772587094

>  <MMFF94 Energy>
12.454

$$$$
Compound 2164
Actelion Java MolfileCreator 2.0

  0  0  0  0  0  0              0 V3000
M  V30 BEGIN CTAB
M  V30 COUNTS 19 19 0 0 0
M  V30 BEGIN ATOM
M  V30 1 O 1.9931 -1.674 -0.8765 0
M  V30 2 C 2.096 -1.2033 0.2884 0
M  V30 3 O 1.2825 -0.1461 0.7159 0
M  V30 4 C 3.1783 -1.6983 1.186 0
M  V30 5 C 0.0859 0.2562 0.104 0
M  V30 6 C -0.3139 1.5919 0.2362 0
M  V30 7 C -0.7404 -0.6414 -0.5984 0
M  V30 8 C -1.5032 2.0385 -0.3479 0
M  V30 9 C -1.9305 -0.195 -1.1817 0
M  V30 10 C -2.3122 1.1465 -1.0616 0
M  V30 11 C -3.5378 1.605 -1.6613 0
M  V30 12 N -4.5231 1.9735 -2.1436 0
M  V30 13 H 4.1161 -1.1439 0.9752 0
M  V30 14 H 2.8914 -1.5398 2.2467 0
M  V30 15 H 3.3473 -2.7829 1.0191 0
M  V30 16 H 0.3046 2.2886 0.7877 0
M  V30 17 H -0.4868 -1.6897 -0.6727 0
M  V30 18 H -1.7918 3.0774 -0.2417 0
M  V30 19 H -2.5568 -0.8975 -1.7185 0
M  V30 END ATOM
M  V30 BEGIN BOND
M  V30 1 2 1 2
M  V30 2 1 2 3
M  V30 3 1 2 4
M  V30 4 1 3 5
M  V30 5 2 5 6
M  V30 6 1 5 7
M  V30 7 1 6 8
M  V30 8 2 7 9
M  V30 9 2 8 10
M  V30 10 1 10 11
M  V30 11 3 11 12
M  V30 12 1 9 10
M  V30 13 1 4 13
M  V30 14 1 4 14
M  V30 15 1 4 15
M  V30 16 1 6 16
M  V30 17 1 7 17
M  V30 18 1 8 18
M  V30 19 1 9 19
M  V30 END BOND
M  V30 END CTAB
M  END
>  <Structure No>
2164

>  <LogS>
-1.799017293

>  <MMFF94 Energy>


$$$$
Compound 2165
Actelion Java MolfileCreator 2.0

  0  0  0  0  0  0              0 V3000
M  V30 BEGIN CTAB
M  V30 COUNTS 29 30 0 0 0
M  V30 BEGIN ATOM
M  V30 1 O -0.2464 2.3016 -0.575 0
M  V30 2 C -0.6107 1.2231 -0.0362 0
M  V30 3 N 0.1997 0.447 0.8549 0
M  V30 4 C -1.8991 0.5703 -0.2371 0
M  V30 5 C -0.605 -0.6943 1.1674 0
M  V30 6 C 1.6254 0.6173 1.1563 0 CFG=2
M  V30 7 C -1.8956 -0.5973 0.4958 0
M  V30 8 C -2.9983 0.9444 -1.0082 0
M  V30 9 O -0.2314 -1.6472 1.9016 0
M  V30 10 C 1.8591 1.9718 1.7679 0
M  V30 11 C 2.4895 0.4063 -0.1032 0
M  V30 12 C -2.9908 -1.4593 0.5002 0
M  V30 13 C -4.118 0.0932 -1.0179 0
M  V30 14 O 1.719 2.1298 3.0094 0
M  V30 15 O 2.1733 3.0686 0.9731 0 CHG=-1
M  V30 16 C 2.3687 -1.022 -0.6486 0
M  V30 17 C -4.1143 -1.1029 -0.2671 0
M  V30 18 C 3.2678 -1.2087 -1.8293 0
M  V30 19 O 4.4498 -1.6116 -1.6684 0
M  V30 20 O 2.8163 -0.8903 -3.104 0 CHG=-1
M  V30 21 H 1.9315 -0.1412 1.9112 0
M  V30 22 H -2.9913 1.8611 -1.5833 0
M  V30 23 H 2.1917 1.1281 -0.8953 0
M  V30 24 H 3.5542 0.6018 0.1563 0
M  V30 25 H -2.9781 -2.3758 1.0756 0
M  V30 26 H -4.9876 0.356 -1.6061 0
M  V30 27 H 2.6407 -1.7549 0.1422 0
M  V30 28 H 1.3222 -1.2225 -0.9632 0
M  V30 29 H -4.981 -1.7508 -0.2839 0
M  V30 END ATOM
M  V30 BEGIN BOND
M  V30 1 2 1 2
M  V30 2 1 2 3
M  V30 3 1 2 4
M  V30 4 1 3 5
M  V30 5 1 3 6
M  V30 6 2 4 7
M  V30 7 1 4 8
M  V30 8 2 5 9
M  V30 9 1 6 10
M  V30 10 1 6 11
M  V30 11 1 7 12
M  V30 12 2 8 13
M  V30 13 2 10 14
M  V30 14 1 10 15
M  V30 15 1 11 16
M  V30 16 2 12 17
M  V30 17 1 16 18
M  V30 18 2 18 19
M  V30 19 1 18 20
M  V30 20 1 5 7
M  V30 21 1 13 17
M  V30 22 1 6 21
M  V30 23 1 8 22
M  V30 24 1 11 23
M  V30 25 1 11 24
M  V30 26 1 12 25
M  V30 27 1 13 26
M  V30 28 1 16 27
M  V30 29 1 16 28
M  V30 30 1 17 29
M  V30 END BOND
M  V30 BEGIN COLLECTION
M  V30 MDLV30/STEABS ATOMS=(1 6)
M  V30 END COLLECTION
M  V30 END CTAB
M  END
>  <Structure No>
2165

>  <LogS>
-1.446331686

>  <MMFF94 Energy>
94.207

$$$$
Compound 2166
Actelion Java MolfileCreator 2.0

  0  0  0  0  0  0              0 V3000
M  V30 BEGIN CTAB
M  V30 COUNTS 28 28 0 0 0
M  V30 BEGIN ATOM
M  V30 1 C 2.3552 -0.0784 -0.0784 0
M  V30 2 C 1.7334 -0.7666 0.8903 0
M  V30 3 C 1.5962 0.2318 -1.3451 0
M  V30 4 C 3.7777 0.3713 0.1066 0
M  V30 5 C 0.2839 -1.1317 0.7283 0
M  V30 6 C 0.1587 0.7175 -1.0547 0
M  V30 7 C -0.5099 0.0977 0.22 0 CFG=1
M  V30 8 C -2.0204 -0.2183 -0.024 0
M  V30 9 C -2.6823 -0.9098 1.1818 0
M  V30 10 C -2.8084 1.0643 -0.3508 0
M  V30 11 H 2.2437 -0.9927 1.823 0
M  V30 12 H 1.5438 -0.7009 -1.9483 0
M  V30 13 H 2.1278 0.9927 -1.9559 0
M  V30 14 H 4.1489 0.9099 -0.7899 0
M  V30 15 H 4.4303 -0.51 0.2809 0
M  V30 16 H 3.8445 1.053 0.9809 0
M  V30 17 H -0.0931 -1.4686 1.7163 0
M  V30 18 H 0.1925 -1.9702 0.0041 0
M  V30 19 H 0.1747 1.824 -0.9413 0
M  V30 20 H -0.4439 0.4984 -1.963 0
M  V30 21 H -0.4545 0.8614 1.03 0
M  V30 22 H -2.107 -0.907 -0.8937 0
M  V30 23 H -2.4962 -0.3347 2.1142 0
M  V30 24 H -2.297 -1.9436 1.3011 0
M  V30 25 H -3.7798 -0.9953 1.0298 0
M  V30 26 H -3.8793 0.8257 -0.5265 0
M  V30 27 H -2.4269 1.5484 -1.2727 0
M  V30 28 H -2.7384 1.7892 0.4884 0
M  V30 END ATOM
M  V30 BEGIN BOND
M  V30 1 2 1 2
M  V30 2 1 1 3
M  V30 3 1 1 4
M  V30 4 1 2 5
M  V30 5 1 3 6
M  V30 6 1 5 7
M  V30 7 1 7 8
M  V30 8 1 8 9
M  V30 9 1 8 10
M  V30 10 1 6 7
M  V30 11 1 2 11
M  V30 12 1 3 12
M  V30 13 1 3 13
M  V30 14 1 4 14
M  V30 15 1 4 15
M  V30 16 1 4 16
M  V30 17 1 5 17
M  V30 18 1 5 18
M  V30 19 1 6 19
M  V30 20 1 6 20
M  V30 21 1 7 21
M  V30 22 1 8 22
M  V30 23 1 9 23
M  V30 24 1 9 24
M  V30 25 1 9 25
M  V30 26 1 10 26
M  V30 27 1 10 27
M  V30 28 1 10 28
M  V30 END BOND
M  V30 BEGIN COLLECTION
M  V30 MDLV30/STEABS ATOMS=(1 7)
M  V30 END COLLECTION
M  V30 END CTAB
M  END
>  <Structure No>
2166

>  <LogS>
-5.495255436

>  <MMFF94 Energy>
14.873

$$$$
Compound 2167
Actelion Java MolfileCreator 2.0

  0  0  0  0  0  0              0 V3000
M  V30 BEGIN CTAB
M  V30 COUNTS 6 5 0 0 0
M  V30 BEGIN ATOM
M  V30 1 Cl 1.6673 -1.2283 0.1754 0
M  V30 2 C 0.5374 0.1061 0.0115 0
M  V30 3 Cl 1.155 1.7331 -0.2245 0
M  V30 4 C -0.7762 -0.1137 0.0659 0
M  V30 5 H -1.4776 0.7085 -0.0349 0
M  V30 6 H -1.1616 -1.1177 0.2119 0
M  V30 END ATOM
M  V30 BEGIN BOND
M  V30 1 1 1 2
M  V30 2 1 2 3
M  V30 3 2 2 4
M  V30 4 1 4 5
M  V30 5 1 4 6
M  V30 END BOND
M  V30 END CTAB
M  END
>  <Structure No>
2167

>  <LogS>
-1.588580927

>  <MMFF94 Energy>
-5.1767

$$$$
Compound 2168
Actelion Java MolfileCreator 2.0

  0  0  0  0  0  0              0 V3000
M  V30 BEGIN CTAB
M  V30 COUNTS 27 27 0 0 0
M  V30 BEGIN ATOM
M  V30 1 O -0.1577 -1.0258 2.6057 0
M  V30 2 C 0.2461 -0.5085 1.5301 0
M  V30 3 C 1.5458 -0.9181 0.9697 0
M  V30 4 C -0.6072 0.5091 0.811 0 CFG=2
M  V30 5 C 2.0918 -0.2739 -0.0749 0
M  V30 6 C -1.5675 -0.188 -0.2064 0
M  V30 7 C 0.3431 1.5446 0.1669 0
M  V30 8 C 1.3767 0.8761 -0.7542 0
M  V30 9 C 3.4044 -0.7499 -0.6259 0
M  V30 10 C -2.5378 -1.145 0.5096 0
M  V30 11 C -2.3837 0.8276 -1.0253 0
M  V30 12 H 2.0768 -1.7396 1.4369 0
M  V30 13 H -1.224 1.0495 1.5642 0
M  V30 14 H -0.9702 -0.7972 -0.9197 0
M  V30 15 H 0.8889 2.0773 0.9779 0
M  V30 16 H -0.2159 2.3259 -0.3865 0
M  V30 17 H 0.8798 0.5025 -1.6741 0
M  V30 18 H 2.1186 1.6441 -1.0626 0
M  V30 19 H 3.7039 -0.154 -1.5139 0
M  V30 20 H 3.3221 -1.8146 -0.9312 0
M  V30 21 H 4.1946 -0.6515 0.1481 0
M  V30 22 H -3.2436 -1.6003 -0.2177 0
M  V30 23 H -3.1233 -0.6029 1.2832 0
M  V30 24 H -1.986 -1.9794 0.9892 0
M  V30 25 H -3.1612 0.3112 -1.628 0
M  V30 26 H -2.8821 1.5614 -0.356 0
M  V30 27 H -1.733 1.3652 -1.7452 0
M  V30 END ATOM
M  V30 BEGIN BOND
M  V30 1 2 1 2
M  V30 2 1 2 3
M  V30 3 1 2 4
M  V30 4 2 3 5
M  V30 5 1 4 6
M  V30 6 1 4 7
M  V30 7 1 5 8
M  V30 8 1 5 9
M  V30 9 1 6 10
M  V30 10 1 6 11
M  V30 11 1 7 8
M  V30 12 1 3 12
M  V30 13 1 4 13
M  V30 14 1 6 14
M  V30 15 1 7 15
M  V30 16 1 7 16
M  V30 17 1 8 17
M  V30 18 1 8 18
M  V30 19 1 9 19
M  V30 20 1 9 20
M  V30 21 1 9 21
M  V30 22 1 10 22
M  V30 23 1 10 23
M  V30 24 1 10 24
M  V30 25 1 11 25
M  V30 26 1 11 26
M  V30 27 1 11 27
M  V30 END BOND
M  V30 BEGIN COLLECTION
M  V30 MDLV30/STEABS ATOMS=(1 4)
M  V30 END COLLECTION
M  V30 END CTAB
M  END
>  <Structure No>
2168

>  <LogS>
-1.78824369

>  <MMFF94 Energy>
17.167

$$$$
Compound 2169
Actelion Java MolfileCreator 2.0

  0  0  0  0  0  0              0 V3000
M  V30 BEGIN CTAB
M  V30 COUNTS 26 27 0 0 0
M  V30 BEGIN ATOM
M  V30 1 S 0.2476 1.5693 -1.0735 0
M  V30 2 C -1.1734 0.5416 -0.4501 0
M  V30 3 C 1.2979 0.1111 -1.4426 0 CFG=2
M  V30 4 C -0.9141 -0.9275 -0.9005 0 CFG=1
M  V30 5 C -1.2164 0.693 1.0841 0
M  V30 6 C -2.4739 1.087 -1.0602 0
M  V30 7 N 0.5239 -1.0072 -0.9984 0 CFG=2
M  V30 8 C 2.4182 -0.1957 -0.5777 0 CFG=2
M  V30 9 C -1.5148 -2.0092 -0.0335 0
M  V30 10 C 1.6405 -1.3759 -0.0879 0
M  V30 11 N 2.6943 0.7774 0.4858 0 CHG=1
M  V30 12 O -0.8468 -3.0276 0.2856 0
M  V30 13 O -2.8561 -1.9446 0.3228 0 CHG=-1
M  V30 14 O 1.8363 -2.272 0.774 0
M  V30 15 H 1.5388 0.0233 -2.5249 0
M  V30 16 H -1.3171 -1.0728 -1.9267 0
M  V30 17 H -2.1405 0.2466 1.5071 0
M  V30 18 H -0.3423 0.196 1.5533 0
M  V30 19 H -1.2024 1.7676 1.3669 0
M  V30 20 H -3.3466 0.4863 -0.7277 0
M  V30 21 H -2.4256 1.0562 -2.1697 0
M  V30 22 H -2.6341 2.1424 -0.7509 0
M  V30 23 H 3.3353 -0.4976 -1.131 0
M  V30 24 H 3.4844 0.42 1.0699 0
M  V30 25 H 2.9866 1.6862 0.059 0
M  V30 26 H 1.8683 0.9282 1.1085 0
M  V30 END ATOM
M  V30 BEGIN BOND
M  V30 1 1 1 2
M  V30 2 1 1 3
M  V30 3 1 2 4
M  V30 4 1 2 5
M  V30 5 1 2 6
M  V30 6 1 3 7
M  V30 7 1 3 8
M  V30 8 1 4 9
M  V30 9 1 7 10
M  V30 10 1 8 11
M  V30 11 2 9 12
M  V30 12 1 9 13
M  V30 13 2 10 14
M  V30 14 1 4 7
M  V30 15 1 8 10
M  V30 16 1 3 15
M  V30 17 1 4 16
M  V30 18 1 5 17
M  V30 19 1 5 18
M  V30 20 1 5 19
M  V30 21 1 6 20
M  V30 22 1 6 21
M  V30 23 1 6 22
M  V30 24 1 8 23
M  V30 25 1 11 24
M  V30 26 1 11 25
M  V30 27 1 11 26
M  V30 END BOND
M  V30 BEGIN COLLECTION
M  V30 MDLV30/STEABS ATOMS=(4 3 4 7 8)
M  V30 END COLLECTION
M  V30 END CTAB
M  END
>  <Structure No>
2169

>  <LogS>
-1.944045108

>  <MMFF94 Energy>
42.869

$$$$
Compound 2170
Actelion Java MolfileCreator 2.0

  0  0  0  0  0  0              0 V3000
M  V30 BEGIN CTAB
M  V30 COUNTS 35 34 0 0 0
M  V30 BEGIN ATOM
M  V30 1 N -2.6929 -0.0768 0.1537 0 CHG=1
M  V30 2 C -2.3371 -1.3491 -0.5227 0
M  V30 3 C -3.7078 0.6365 -0.642 0
M  V30 4 C -3.207 -0.3037 1.5179 0
M  V30 5 C -1.1926 -2.137 0.1569 0
M  V30 6 C 0.1165 -1.3527 0.3567 0
M  V30 7 C 0.7089 -0.8366 -0.9663 0
M  V30 8 C 2.1338 -0.284 -0.8022 0
M  V30 9 C 2.1617 1.0587 -0.0516 0
M  V30 10 C 3.5849 1.6191 0.0988 0
M  V30 11 C 4.1507 2.1608 -1.2138 0
M  V30 12 H -1.8538 0.5454 0.2076 0
M  V30 13 H -3.2286 -2.015 -0.5747 0
M  V30 14 H -2.0385 -1.1486 -1.5758 0
M  V30 15 H -4.6428 0.0387 -0.7283 0
M  V30 16 H -3.9527 1.6165 -0.1756 0
M  V30 17 H -3.3237 0.8489 -1.6643 0
M  V30 18 H -2.3997 -0.6694 2.1866 0
M  V30 19 H -4.0415 -1.0397 1.5156 0
M  V30 20 H -3.5746 0.6473 1.9629 0
M  V30 21 H -0.9754 -3.0338 -0.4637 0
M  V30 22 H -1.5357 -2.523 1.1399 0
M  V30 23 H -0.0521 -0.5153 1.0636 0
M  V30 24 H 0.8485 -2.0383 0.8365 0
M  V30 25 H 0.7479 -1.677 -1.6935 0
M  V30 26 H 0.0574 -0.0462 -1.3973 0
M  V30 27 H 2.769 -1.0288 -0.2747 0
M  V30 28 H 2.5554 -0.1425 -1.8195 0
M  V30 29 H 1.5179 1.8011 -0.5726 0
M  V30 30 H 1.751 0.9145 0.9697 0
M  V30 31 H 3.5573 2.4529 0.8336 0
M  V30 32 H 4.264 0.8377 0.5041 0
M  V30 33 H 4.3265 1.3387 -1.9375 0
M  V30 34 H 5.1233 2.6596 -1.0172 0
M  V30 35 H 3.4568 2.9052 -1.6591 0
M  V30 END ATOM
M  V30 BEGIN BOND
M  V30 1 1 1 2
M  V30 2 1 1 3
M  V30 3 1 1 4
M  V30 4 1 2 5
M  V30 5 1 5 6
M  V30 6 1 6 7
M  V30 7 1 7 8
M  V30 8 1 8 9
M  V30 9 1 9 10
M  V30 10 1 10 11
M  V30 11 1 1 12
M  V30 12 1 2 13
M  V30 13 1 2 14
M  V30 14 1 3 15
M  V30 15 1 3 16
M  V30 16 1 3 17
M  V30 17 1 4 18
M  V30 18 1 4 19
M  V30 19 1 4 20
M  V30 20 1 5 21
M  V30 21 1 5 22
M  V30 22 1 6 23
M  V30 23 1 6 24
M  V30 24 1 7 25
M  V30 25 1 7 26
M  V30 26 1 8 27
M  V30 27 1 8 28
M  V30 28 1 9 29
M  V30 29 1 9 30
M  V30 30 1 10 31
M  V30 31 1 10 32
M  V30 32 1 11 33
M  V30 33 1 11 34
M  V30 34 1 11 35
M  V30 END BOND
M  V30 END CTAB
M  END
>  <Structure No>
2170

>  <LogS>
-5.465370193

>  <MMFF94 Energy>
6.925

$$$$
Compound 2171
Actelion Java MolfileCreator 2.0

  0  0  0  0  0  0              0 V3000
M  V30 BEGIN CTAB
M  V30 COUNTS 12 12 0 0 0
M  V30 BEGIN ATOM
M  V30 1 Cl 2.3787 -1.9536 0.0 0
M  V30 2 C 0.9973 -0.8648 0.0075 0
M  V30 3 C 1.1641 0.5319 0.0559 0
M  V30 4 C -0.2924 -1.4091 -0.0358 0
M  V30 5 S 2.8079 1.28 0.113 0 CHG=-1 VAL=2
M  V30 6 C 0.0385 1.3658 0.0603 0
M  V30 7 C -1.4108 -0.5709 -0.0311 0
M  V30 8 C -1.2456 0.8155 0.017 0
M  V30 9 H -0.4293 -2.4822 -0.0731 0
M  V30 10 H 0.1572 2.4413 0.0974 0
M  V30 11 H -2.4057 -0.9959 -0.0647 0
M  V30 12 H -2.1123 1.4638 0.0205 0
M  V30 END ATOM
M  V30 BEGIN BOND
M  V30 1 1 1 2
M  V30 2 2 2 3
M  V30 3 1 2 4
M  V30 4 1 3 5
M  V30 5 1 3 6
M  V30 6 2 4 7
M  V30 7 2 6 8
M  V30 8 1 7 8
M  V30 9 1 4 9
M  V30 10 1 6 10
M  V30 11 1 7 11
M  V30 12 1 8 12
M  V30 END BOND
M  V30 END CTAB
M  END
>  <Structure No>
2171

>  <LogS>
-1.780035133

>  <MMFF94 Energy>
23.57

$$$$
Compound 2172
Actelion Java MolfileCreator 2.0

  0  0  0  0  0  0              0 V3000
M  V30 BEGIN CTAB
M  V30 COUNTS 14 14 0 0 0
M  V30 BEGIN ATOM
M  V30 1 O -2.8237 -0.3224 0.0805 0
M  V30 2 C -1.8757 -1.0225 -0.3612 0
M  V30 3 O -2.1551 -2.2713 -0.9027 0 CHG=-1
M  V30 4 C -0.4717 -0.5797 -0.2419 0
M  V30 5 N 0.4934 -1.5397 -0.2167 0
M  V30 6 C -0.079 0.7766 -0.1138 0
M  V30 7 C 1.8056 -1.2375 -0.0472 0
M  V30 8 N 1.2383 1.0633 0.0716 0
M  V30 9 N -1.0043 1.8626 -0.2304 0
M  V30 10 C 2.1845 0.0918 0.1155 0
M  V30 11 H 2.546 -2.0258 -0.028 0
M  V30 12 H -0.6874 2.8336 -0.0131 0
M  V30 13 H -1.9386 1.7546 -0.6793 0
M  V30 14 H 3.2241 0.3527 0.262 0
M  V30 END ATOM
M  V30 BEGIN BOND
M  V30 1 2 1 2
M  V30 2 1 2 3
M  V30 3 1 2 4
M  V30 4 2 4 5
M  V30 5 1 4 6
M  V30 6 1 5 7
M  V30 7 2 6 8
M  V30 8 1 6 9
M  V30 9 2 7 10
M  V30 10 1 8 10
M  V30 11 1 7 11
M  V30 12 1 9 12
M  V30 13 1 9 13
M  V30 14 1 10 14
M  V30 END BOND
M  V30 END CTAB
M  END
>  <Structure No>
2172

>  <LogS>
-1.763159597

>  <MMFF94 Energy>
99.977

$$$$
Compound 2173
Actelion Java MolfileCreator 2.0

  0  0  0  0  0  0              0 V3000
M  V30 BEGIN CTAB
M  V30 COUNTS 24 24 0 0 0
M  V30 BEGIN ATOM
M  V30 1 Cl 0.7918 -0.871 2.6941 0
M  V30 2 C 1.4938 -0.2881 1.1878 0
M  V30 3 C 0.8303 -0.4182 -0.0554 0
M  V30 4 C 2.7515 0.3257 1.2454 0
M  V30 5 C 1.4503 0.0812 -1.2148 0
M  V30 6 C -0.5401 -1.0557 -0.1793 0
M  V30 7 C 3.3547 0.8129 0.0844 0
M  V30 8 C 2.7048 0.6913 -1.1439 0
M  V30 9 N -1.6083 -0.0448 -0.3624 0 CHG=1
M  V30 10 C -2.8695 -0.7077 -0.7376 0
M  V30 11 C -1.8124 0.7525 0.8611 0
M  V30 12 H 3.2638 0.4277 2.1938 0
M  V30 13 H 0.9592 -0.0023 -2.1767 0
M  V30 14 H -0.5093 -1.7363 -1.0607 0
M  V30 15 H -0.7661 -1.7108 0.6898 0
M  V30 16 H 4.3265 1.2867 0.1374 0
M  V30 17 H 3.1727 1.0713 -2.0429 0
M  V30 18 H -1.3456 0.604 -1.1421 0
M  V30 19 H -3.6727 0.0444 -0.9011 0
M  V30 20 H -2.7463 -1.2678 -1.6906 0
M  V30 21 H -3.1997 -1.417 0.054 0
M  V30 22 H -0.8995 1.3368 1.1051 0
M  V30 23 H -2.635 1.487 0.7154 0
M  V30 24 H -2.0671 0.1011 1.7265 0
M  V30 END ATOM
M  V30 BEGIN BOND
M  V30 1 1 1 2
M  V30 2 2 2 3
M  V30 3 1 2 4
M  V30 4 1 3 5
M  V30 5 1 3 6
M  V30 6 2 4 7
M  V30 7 2 5 8
M  V30 8 1 6 9
M  V30 9 1 9 10
M  V30 10 1 9 11
M  V30 11 1 7 8
M  V30 12 1 4 12
M  V30 13 1 5 13
M  V30 14 1 6 14
M  V30 15 1 6 15
M  V30 16 1 7 16
M  V30 17 1 8 17
M  V30 18 1 9 18
M  V30 19 1 10 19
M  V30 20 1 10 20
M  V30 21 1 10 21
M  V30 22 1 11 22
M  V30 23 1 11 23
M  V30 24 1 11 24
M  V30 END BOND
M  V30 END CTAB
M  END
>  <Structure No>
2173

>  <LogS>
-1.849355422

>  <MMFF94 Energy>
12.291

$$$$
Compound 2174
Actelion Java MolfileCreator 2.0

  0  0  0  0  0  0              0 V3000
M  V30 BEGIN CTAB
M  V30 COUNTS 37 36 0 0 0
M  V30 BEGIN ATOM
M  V30 1 O 3.4606 0.8642 1.6504 0
M  V30 2 C 3.4387 0.2112 0.5704 0
M  V30 3 O 4.088 0.6995 -0.5677 0
M  V30 4 O 2.7701 -1.0145 0.4934 0
M  V30 5 C 4.8138 1.9274 -0.5883 0
M  V30 6 C 2.0351 -1.5795 1.5783 0
M  V30 7 C 6.0812 1.8105 0.2094 0
M  V30 8 C 0.6965 -0.8609 1.766 0
M  V30 9 C 7.0442 0.9526 -0.1366 0
M  V30 10 O -0.0261 -0.8331 0.5491 0
M  V30 11 C -0.9591 -1.8929 0.5006 0
M  V30 12 C -1.6193 -1.9222 -0.8756 0
M  V30 13 O -2.2593 -0.679 -1.1607 0
M  V30 14 C -3.4757 -0.2894 -0.5916 0
M  V30 15 O -4.1 -1.0657 0.1839 0
M  V30 16 O -3.9928 0.9728 -0.8997 0
M  V30 17 C -5.2335 1.4566 -0.3882 0
M  V30 18 C -6.3879 0.7203 -1.0061 0
M  V30 19 C -6.627 0.7777 -2.3186 0
M  V30 20 H 5.0653 2.181 -1.6398 0
M  V30 21 H 4.183 2.7471 -0.1808 0
M  V30 22 H 2.6315 -1.5285 2.5152 0
M  V30 23 H 1.8476 -2.6508 1.3578 0
M  V30 24 H 6.218 2.4412 1.0828 0
M  V30 25 H 0.1345 -1.3256 2.6111 0
M  V30 26 H 0.8939 0.1877 2.071 0
M  V30 27 H 7.952 0.8878 0.4543 0
M  V30 28 H 6.9346 0.3122 -1.0067 0
M  V30 29 H -0.459 -2.8744 0.6634 0
M  V30 30 H -1.7448 -1.7535 1.2764 0
M  V30 31 H -0.8384 -2.1029 -1.6444 0
M  V30 32 H -2.3533 -2.7555 -0.9327 0
M  V30 33 H -5.258 1.3418 0.7171 0
M  V30 34 H -5.3231 2.5389 -0.6208 0
M  V30 35 H -7.0441 0.1338 -0.3699 0
M  V30 36 H -5.9886 1.359 -2.9771 0
M  V30 37 H -7.4686 0.2387 -2.7414 0
M  V30 END ATOM
M  V30 BEGIN BOND
M  V30 1 2 1 2
M  V30 2 1 2 3
M  V30 3 1 2 4
M  V30 4 1 3 5
M  V30 5 1 4 6
M  V30 6 1 5 7
M  V30 7 1 6 8
M  V30 8 2 7 9
M  V30 9 1 8 10
M  V30 10 1 10 11
M  V30 11 1 11 12
M  V30 12 1 12 13
M  V30 13 1 13 14
M  V30 14 2 14 15
M  V30 15 1 14 16
M  V30 16 1 16 17
M  V30 17 1 17 18
M  V30 18 2 18 19
M  V30 19 1 5 20
M  V30 20 1 5 21
M  V30 21 1 6 22
M  V30 22 1 6 23
M  V30 23 1 7 24
M  V30 24 1 8 25
M  V30 25 1 8 26
M  V30 26 1 9 27
M  V30 27 1 9 28
M  V30 28 1 11 29
M  V30 29 1 11 30
M  V30 30 1 12 31
M  V30 31 1 12 32
M  V30 32 1 17 33
M  V30 33 1 17 34
M  V30 34 1 18 35
M  V30 35 1 19 36
M  V30 36 1 19 37
M  V30 END BOND
M  V30 END CTAB
M  END
>  <Structure No>
2174

>  <LogS>
-2.06526472

>  <MMFF94 Energy>
-35.552

$$$$
Compound 2175
Actelion Java MolfileCreator 2.0

  0  0  0  0  0  0              0 V3000
M  V30 BEGIN CTAB
M  V30 COUNTS 25 24 0 0 0
M  V30 BEGIN ATOM
M  V30 1 O -4.9269 0.1536 0.0768 0
M  V30 2 C -3.7443 -0.5382 -0.2184 0
M  V30 3 C -2.5331 0.378 -0.0263 0
M  V30 4 C -1.2247 -0.3682 -0.3118 0
M  V30 5 C -0.0131 0.5517 -0.1195 0
M  V30 6 C 1.2955 -0.1941 -0.4051 0
M  V30 7 C 2.5066 0.7264 -0.2104 0
M  V30 8 C 3.7911 0.0123 -0.5303 0
M  V30 9 C 4.2811 -0.9437 0.2641 0
M  V30 10 H -5.1115 0.7449 -0.6992 0
M  V30 11 H -3.7753 -0.9264 -1.2623 0
M  V30 12 H -3.6649 -1.4071 0.4693 0
M  V30 13 H -2.5261 0.7549 1.0199 0
M  V30 14 H -2.6218 1.2476 -0.7139 0
M  V30 15 H -1.2376 -0.7456 -1.3582 0
M  V30 16 H -1.1393 -1.2376 0.3768 0
M  V30 17 H -2.0E-4 0.929 0.9269 0
M  V30 18 H -0.099 1.4213 -0.8079 0
M  V30 19 H 1.285 -0.5692 -1.4525 0
M  V30 20 H 1.3766 -1.0654 0.2812 0
M  V30 21 H 2.4126 1.6027 -0.8879 0
M  V30 22 H 2.5407 1.1019 0.8358 0
M  V30 23 H 4.3505 0.3042 -1.4141 0
M  V30 24 H 3.7575 -1.2437 1.1667 0
M  V30 25 H 5.2181 -1.4302 0.0135 0
M  V30 END ATOM
M  V30 BEGIN BOND
M  V30 1 1 1 2
M  V30 2 1 2 3
M  V30 3 1 3 4
M  V30 4 1 4 5
M  V30 5 1 5 6
M  V30 6 1 6 7
M  V30 7 1 7 8
M  V30 8 2 8 9
M  V30 9 1 1 10
M  V30 10 1 2 11
M  V30 11 1 2 12
M  V30 12 1 3 13
M  V30 13 1 3 14
M  V30 14 1 4 15
M  V30 15 1 4 16
M  V30 16 1 5 17
M  V30 17 1 5 18
M  V30 18 1 6 19
M  V30 19 1 6 20
M  V30 20 1 7 21
M  V30 21 1 7 22
M  V30 22 1 8 23
M  V30 23 1 9 24
M  V30 24 1 9 25
M  V30 END BOND
M  V30 END CTAB
M  END
>  <Structure No>
2175

>  <LogS>
-1.744232864

>  <MMFF94 Energy>
8.0224

$$$$
Compound 2176
Actelion Java MolfileCreator 2.0

  0  0  0  0  0  0              0 V3000
M  V30 BEGIN CTAB
M  V30 COUNTS 15 15 0 0 0
M  V30 BEGIN ATOM
M  V30 1 Cl -3.1856 -0.8602 1.3766 0
M  V30 2 S -2.3327 0.1661 -0.1987 0
M  V30 3 O -2.8105 -0.4207 -1.4971 0
M  V30 4 O -2.7468 1.6096 -0.1397 0
M  V30 5 C -0.5803 0.0417 -0.0948 0
M  V30 6 C 0.153 0.9932 0.629 0
M  V30 7 C 0.0891 -1.0238 -0.7141 0
M  V30 8 C 1.5444 0.8859 0.7212 0
M  V30 9 C 1.4805 -1.1284 -0.6203 0
M  V30 10 C 2.2079 -0.1734 0.0959 0
M  V30 11 H -0.3503 1.8145 1.123 0
M  V30 12 H -0.464 -1.7728 -1.2661 0
M  V30 13 H 2.1077 1.6229 1.279 0
M  V30 14 H 1.9945 -1.9508 -1.1008 0
M  V30 15 H 3.2846 -0.2558 0.1685 0
M  V30 END ATOM
M  V30 BEGIN BOND
M  V30 1 1 1 2
M  V30 2 2 2 3
M  V30 3 2 2 4
M  V30 4 1 2 5
M  V30 5 2 5 6
M  V30 6 1 5 7
M  V30 7 1 6 8
M  V30 8 2 7 9
M  V30 9 2 8 10
M  V30 10 1 9 10
M  V30 11 1 6 11
M  V30 12 1 7 12
M  V30 13 1 8 13
M  V30 14 1 9 14
M  V30 15 1 10 15
M  V30 END BOND
M  V30 END CTAB
M  END
>  <Structure No>
2176

>  <LogS>
-1.88532188

>  <MMFF94 Energy>
47.536

$$$$
Compound 2177
Actelion Java MolfileCreator 2.0

  0  0  0  0  0  0              0 V3000
M  V30 BEGIN CTAB
M  V30 COUNTS 42 42 0 0 0
M  V30 BEGIN ATOM
M  V30 1 O 1.102 -0.1573 0.0 0
M  V30 2 C -0.2343 -0.4058 -0.4033 0 CFG=2
M  V30 3 C 2.0173 -0.5733 -0.9972 0
M  V30 4 C -1.1957 0.649 0.2319 0 CFG=1
M  V30 5 C -0.5943 -1.8608 0.0209 0
M  V30 6 C 3.4469 -0.5896 -0.4337 0 CFG=2
M  V30 7 C -0.8757 2.136 -0.1705 0
M  V30 8 C -2.6786 0.3147 -0.1295 0
M  V30 9 C -2.0401 -2.0427 0.5202 0 CFG=1
M  V30 10 O 3.5667 -1.5509 0.5858 0
M  V30 11 C 3.8932 0.7988 0.0581 0
M  V30 12 C -1.8764 3.1208 0.471 0
M  V30 13 C 0.548 2.583 0.2101 0
M  V30 14 C -2.9865 -1.1799 -0.3126 0
M  V30 15 C -2.4547 -3.5178 0.4703 0
M  V30 16 O 5.2434 0.7723 0.4351 0
M  V30 17 H -0.3612 -0.3122 -1.5103 0
M  V30 18 H 1.787 -1.6 -1.3631 0
M  V30 19 H 1.9761 0.1255 -1.8626 0
M  V30 20 H -1.0887 0.5674 1.3376 0
M  V30 21 H -0.4123 -2.5267 -0.8514 0
M  V30 22 H 0.0887 -2.1997 0.8316 0
M  V30 23 H 4.1261 -0.8893 -1.2614 0
M  V30 24 H -0.9718 2.2339 -1.2747 0
M  V30 25 H -2.9722 0.8303 -1.0705 0
M  V30 26 H -3.3339 0.7042 0.6805 0
M  V30 27 H -2.0997 -1.713 1.5823 0
M  V30 28 H 2.9972 -1.2594 1.3452 0
M  V30 29 H 3.2597 1.141 0.9083 0
M  V30 30 H 3.7782 1.5347 -0.7658 0
M  V30 31 H -1.8833 3.0037 1.576 0
M  V30 32 H -1.6087 4.1708 0.2254 0
M  V30 33 H -2.9031 2.9647 0.0818 0
M  V30 34 H 1.2828 2.1973 -0.5226 0
M  V30 35 H 0.8097 2.2436 1.235 0
M  V30 36 H 0.6478 3.6889 0.1736 0
M  V30 37 H -4.0419 -1.3718 -0.0181 0
M  V30 38 H -2.8839 -1.4507 -1.3875 0
M  V30 39 H -2.453 -3.8929 -0.5756 0
M  V30 40 H -1.7521 -4.1313 1.0737 0
M  V30 41 H -3.4745 -3.6424 0.893 0
M  V30 42 H 5.2772 0.3859 1.349 0
M  V30 END ATOM
M  V30 BEGIN BOND
M  V30 1 1 1 2
M  V30 2 1 1 3
M  V30 3 1 2 4
M  V30 4 1 2 5
M  V30 5 1 3 6
M  V30 6 1 4 7
M  V30 7 1 4 8
M  V30 8 1 5 9
M  V30 9 1 6 10
M  V30 10 1 6 11
M  V30 11 1 7 12
M  V30 12 1 7 13
M  V30 13 1 8 14
M  V30 14 1 9 15
M  V30 15 1 11 16
M  V30 16 1 9 14
M  V30 17 1 2 17
M  V30 18 1 3 18
M  V30 19 1 3 19
M  V30 20 1 4 20
M  V30 21 1 5 21
M  V30 22 1 5 22
M  V30 23 1 6 23
M  V30 24 1 7 24
M  V30 25 1 8 25
M  V30 26 1 8 26
M  V30 27 1 9 27
M  V30 28 1 10 28
M  V30 29 1 11 29
M  V30 30 1 11 30
M  V30 31 1 12 31
M  V30 32 1 12 32
M  V30 33 1 12 33
M  V30 34 1 13 34
M  V30 35 1 13 35
M  V30 36 1 13 36
M  V30 37 1 14 37
M  V30 38 1 14 38
M  V30 39 1 15 39
M  V30 40 1 15 40
M  V30 41 1 15 41
M  V30 42 1 16 42
M  V30 END BOND
M  V30 BEGIN COLLECTION
M  V30 MDLV30/STEABS ATOMS=(4 2 4 6 9)
M  V30 END COLLECTION
M  V30 END CTAB
M  END
>  <Structure No>
2177

>  <LogS>
-2.006358589

>  <MMFF94 Energy>
66.318

$$$$
Compound 2178
Actelion Java MolfileCreator 2.0

  0  0  0  0  0  0              0 V3000
M  V30 BEGIN CTAB
M  V30 COUNTS 19 19 0 0 0
M  V30 BEGIN ATOM
M  V30 1 O -3.9611 1.1079 -0.3955 0
M  V30 2 C -3.3442 0.0136 -0.3017 0
M  V30 3 C -1.8755 -0.0244 -0.1751 0
M  V30 4 C -1.2203 -1.26 -0.0726 0
M  V30 5 C -1.1179 1.1576 -0.1552 0
M  V30 6 C 0.1755 -1.3178 0.0484 0
M  V30 7 C 0.2732 1.1034 -0.0346 0
M  V30 8 O 0.8207 -2.5493 0.1499 0
M  V30 9 C 0.9314 -0.1369 0.0683 0
M  V30 10 O 2.3262 -0.236 0.1908 0
M  V30 11 C 3.2128 0.8777 0.2243 0
M  V30 12 H -3.9104 -0.9091 -0.3149 0
M  V30 13 H -1.7925 -2.1801 -0.0865 0
M  V30 14 H -1.6 2.1244 -0.2326 0
M  V30 15 H 0.8273 2.032 -0.0224 0
M  V30 16 H 0.3047 -3.4214 0.139 0
M  V30 17 H 4.2539 0.5091 0.3268 0
M  V30 18 H 3.1324 1.4582 -0.719 0
M  V30 19 H 2.9781 1.5267 1.0943 0
M  V30 END ATOM
M  V30 BEGIN BOND
M  V30 1 2 1 2
M  V30 2 1 2 3
M  V30 3 2 3 4
M  V30 4 1 3 5
M  V30 5 1 4 6
M  V30 6 2 5 7
M  V30 7 1 6 8
M  V30 8 2 6 9
M  V30 9 1 9 10
M  V30 10 1 10 11
M  V30 11 1 7 9
M  V30 12 1 2 12
M  V30 13 1 4 13
M  V30 14 1 5 14
M  V30 15 1 7 15
M  V30 16 1 8 16
M  V30 17 1 11 17
M  V30 18 1 11 18
M  V30 19 1 11 19
M  V30 END BOND
M  V30 END CTAB
M  END
>  <Structure No>
2178

>  <LogS>
-1.826243245

>  <MMFF94 Energy>
28.627

$$$$
Compound 2179
Actelion Java MolfileCreator 2.0

  0  0  0  0  0  0              0 V3000
M  V30 BEGIN CTAB
M  V30 COUNTS 17 17 0 0 0
M  V30 BEGIN ATOM
M  V30 1 O 3.7804 0.6293 -0.5506 0
M  V30 2 C 3.0483 -0.2249 0.016 0
M  V30 3 C 1.5802 -0.0887 0.0179 0
M  V30 4 C 0.7945 -1.0597 0.6571 0
M  V30 5 C 0.9503 0.9964 -0.6155 0
M  V30 6 C -0.599 -0.9467 0.6684 0
M  V30 7 C -0.4434 1.1084 -0.6036 0
M  V30 8 C -1.2257 0.146 0.0515 0
M  V30 9 C -2.7222 0.2458 0.0297 0
M  V30 10 H 3.514 -1.0696 0.5077 0
M  V30 11 H 1.2592 -1.9078 1.1449 0
M  V30 12 H 1.533 1.7554 -1.1222 0
M  V30 13 H -1.1888 -1.7114 1.159 0
M  V30 14 H -0.912 1.9463 -1.105 0
M  V30 15 H -3.114 -0.2788 -0.8663 0
M  V30 16 H -3.1591 -0.2164 0.9404 0
M  V30 17 H -3.0436 1.3087 -0.0031 0
M  V30 END ATOM
M  V30 BEGIN BOND
M  V30 1 2 1 2
M  V30 2 1 2 3
M  V30 3 2 3 4
M  V30 4 1 3 5
M  V30 5 1 4 6
M  V30 6 2 5 7
M  V30 7 2 6 8
M  V30 8 1 8 9
M  V30 9 1 7 8
M  V30 10 1 2 10
M  V30 11 1 4 11
M  V30 12 1 5 12
M  V30 13 1 6 13
M  V30 14 1 7 14
M  V30 15 1 9 15
M  V30 16 1 9 16
M  V30 17 1 9 17
M  V30 END BOND
M  V30 END CTAB
M  END
>  <Structure No>
2179

>  <LogS>
-1.723701533

>  <MMFF94 Energy>
33.142

$$$$
Compound 2180
Actelion Java MolfileCreator 2.0

  0  0  0  0  0  0              0 V3000
M  V30 BEGIN CTAB
M  V30 COUNTS 17 17 0 0 0
M  V30 BEGIN ATOM
M  V30 1 O 3.0289 -0.1592 0.3185 0
M  V30 2 N 1.9984 -0.3127 1.006 0 CHG=1
M  V30 3 O 2.1142 -0.8716 2.258 0 CHG=-1
M  V30 4 C 0.7001 -0.1446 0.4137 0
M  V30 5 C 0.4201 0.92 -0.4788 0
M  V30 6 C -0.3108 -1.0763 0.708 0
M  V30 7 N 1.3749 1.9584 -0.7345 0
M  V30 8 C -0.842 0.9958 -1.0881 0
M  V30 9 C -1.5698 -0.9811 0.1019 0
M  V30 10 C -1.8286 0.0514 -0.8002 0
M  V30 11 O -2.5675 -1.9109 0.3866 0
M  V30 12 H -0.1122 -1.8932 1.3904 0
M  V30 13 H 2.2191 2.0919 -0.137 0
M  V30 14 H 1.1857 2.6829 -1.4629 0
M  V30 15 H -1.0687 1.8029 -1.7737 0
M  V30 16 H -2.8 0.1281 -1.2724 0
M  V30 17 H -2.412 -2.6731 1.0359 0
M  V30 END ATOM
M  V30 BEGIN BOND
M  V30 1 2 1 2
M  V30 2 1 2 3
M  V30 3 1 2 4
M  V30 4 2 4 5
M  V30 5 1 4 6
M  V30 6 1 5 7
M  V30 7 1 5 8
M  V30 8 2 6 9
M  V30 9 2 8 10
M  V30 10 1 9 11
M  V30 11 1 9 10
M  V30 12 1 6 12
M  V30 13 1 7 13
M  V30 14 1 7 14
M  V30 15 1 8 15
M  V30 16 1 10 16
M  V30 17 1 11 17
M  V30 END BOND
M  V30 END CTAB
M  END
>  <Structure No>
2180

>  <LogS>
-1.833764651

>  <MMFF94 Energy>
47.227

$$$$
Compound 2181
Actelion Java MolfileCreator 2.0

  0  0  0  0  0  0              0 V3000
M  V30 BEGIN CTAB
M  V30 COUNTS 14 14 0 0 0
M  V30 BEGIN ATOM
M  V30 1 O 2.7653 -1.4633 -0.6501 0
M  V30 2 N 2.3221 -0.4034 -0.1606 0 CHG=1
M  V30 3 O 3.222 0.5351 0.2884 0 CHG=-1
M  V30 4 C 0.8986 -0.1787 -0.0728 0
M  V30 5 C 0.3693 1.0127 0.477 0
M  V30 6 C 0.0023 -1.1607 -0.5422 0
M  V30 7 O 1.2011 2.0181 0.9566 0 CHG=-1
M  V30 8 C -1.016 1.2005 0.548 0
M  V30 9 C -1.3785 -0.9619 -0.466 0
M  V30 10 C -1.8871 0.2169 0.0783 0
M  V30 11 H 0.3692 -2.085 -0.9693 0
M  V30 12 H -1.4177 2.1133 0.9693 0
M  V30 13 H -2.0553 -1.7241 -0.83 0
M  V30 14 H -2.9571 0.3688 0.1363 0
M  V30 END ATOM
M  V30 BEGIN BOND
M  V30 1 2 1 2
M  V30 2 1 2 3
M  V30 3 1 2 4
M  V30 4 2 4 5
M  V30 5 1 4 6
M  V30 6 1 5 7
M  V30 7 1 5 8
M  V30 8 2 6 9
M  V30 9 2 8 10
M  V30 10 1 9 10
M  V30 11 1 6 11
M  V30 12 1 8 12
M  V30 13 1 9 13
M  V30 14 1 10 14
M  V30 END BOND
M  V30 END CTAB
M  END
>  <Structure No>
2181

>  <LogS>
-1.802914236

>  <MMFF94 Energy>
70.619

$$$$
Compound 2182
Actelion Java MolfileCreator 2.0

  0  0  0  0  0  0              0 V3000
M  V30 BEGIN CTAB
M  V30 COUNTS 27 27 0 0 0
M  V30 BEGIN ATOM
M  V30 1 O -2.3697 0.5525 -1.6583 0
M  V30 2 C -2.4275 0.248 -0.4767 0
M  V30 3 C -1.1715 -0.0598 0.3089 0 CFG=1
M  V30 4 C -0.4714 -1.3248 -0.2999 0 CFG=1
M  V30 5 C -0.2142 1.1778 0.4563 0 CFG=1
M  V30 6 C 1.0319 -1.3052 -0.1231 0
M  V30 7 C -1.064 -2.6203 0.2684 0
M  V30 8 C 0.953 1.1142 -0.5438 0
M  V30 9 C -0.9195 2.5431 0.3979 0
M  V30 10 C 1.7195 -0.1644 -0.3041 0
M  V30 11 C 3.2162 -0.1566 -0.1574 0
M  V30 12 H -3.3949 0.1972 0.0125 0
M  V30 13 H -1.5057 -0.3078 1.3421 0
M  V30 14 H -0.6391 -1.3419 -1.4003 0
M  V30 15 H 0.2371 1.1176 1.4742 0
M  V30 16 H 1.5621 -2.2233 0.1196 0
M  V30 17 H -0.8634 -2.6948 1.359 0
M  V30 18 H -2.1619 -2.6442 0.1018 0
M  V30 19 H -0.6178 -3.5021 -0.2394 0
M  V30 20 H 0.5628 1.1221 -1.5849 0
M  V30 21 H 1.6151 1.9977 -0.4133 0
M  V30 22 H -1.2831 2.7619 -0.6281 0
M  V30 23 H -1.7772 2.5612 1.1038 0
M  V30 24 H -0.2128 3.3478 0.694 0
M  V30 25 H 3.6686 -0.8412 -0.9055 0
M  V30 26 H 3.4959 -0.4951 0.8627 0
M  V30 27 H 3.6319 0.8598 -0.3182 0
M  V30 END ATOM
M  V30 BEGIN BOND
M  V30 1 2 1 2
M  V30 2 1 2 3
M  V30 3 1 3 4
M  V30 4 1 3 5
M  V30 5 1 4 6
M  V30 6 1 4 7
M  V30 7 1 5 8
M  V30 8 1 5 9
M  V30 9 2 6 10
M  V30 10 1 10 11
M  V30 11 1 8 10
M  V30 12 1 2 12
M  V30 13 1 3 13
M  V30 14 1 4 14
M  V30 15 1 5 15
M  V30 16 1 6 16
M  V30 17 1 7 17
M  V30 18 1 7 18
M  V30 19 1 7 19
M  V30 20 1 8 20
M  V30 21 1 8 21
M  V30 22 1 9 22
M  V30 23 1 9 23
M  V30 24 1 9 24
M  V30 25 1 11 25
M  V30 26 1 11 26
M  V30 27 1 11 27
M  V30 END BOND
M  V30 BEGIN COLLECTION
M  V30 MDLV30/STEABS ATOMS=(3 3 4 5)
M  V30 END COLLECTION
M  V30 END CTAB
M  END
>  <Structure No>
2182

>  <LogS>
-1.844063724

>  <MMFF94 Energy>
15.966

$$$$
Compound 2183
Actelion Java MolfileCreator 2.0

  0  0  0  0  0  0              0 V3000
M  V30 BEGIN CTAB
M  V30 COUNTS 27 27 0 0 0
M  V30 BEGIN ATOM
M  V30 1 O -4.4239 -1.4992 -0.4732 0
M  V30 2 C -3.5986 -0.6168 -0.1207 0
M  V30 3 O -2.4795 -0.3058 -0.8573 0
M  V30 4 C -3.7183 0.179 1.1145 0
M  V30 5 C -1.7105 0.7086 -0.2325 0 CFG=1
M  V30 6 C -2.5184 1.1303 1.0215 0
M  V30 7 C -0.3189 0.1695 0.1345 0
M  V30 8 C 0.4915 -0.1958 -1.1193 0
M  V30 9 C 1.8445 -0.8416 -0.7815 0
M  V30 10 C 2.8485 0.1605 -0.1931 0
M  V30 11 C 4.218 -0.4838 0.001 0
M  V30 12 H -4.6786 0.7379 1.1286 0
M  V30 13 H -3.6351 -0.483 2.0029 0
M  V30 14 H -1.6102 1.5737 -0.9247 0
M  V30 15 H -1.9136 1.08 1.954 0
M  V30 16 H -2.879 2.1754 0.8996 0
M  V30 17 H -0.4309 -0.7274 0.7832 0
M  V30 18 H 0.2214 0.9533 0.7069 0
M  V30 19 H 0.6519 0.7102 -1.7439 0
M  V30 20 H -0.0898 -0.9234 -1.7263 0
M  V30 21 H 1.6929 -1.686 -0.0735 0
M  V30 22 H 2.2667 -1.2619 -1.7206 0
M  V30 23 H 2.4912 0.5252 0.7929 0
M  V30 24 H 2.9561 1.0318 -0.8754 0
M  V30 25 H 4.6251 -0.8279 -0.9736 0
M  V30 26 H 4.9201 0.2584 0.436 0
M  V30 27 H 4.1421 -1.3493 0.6934 0
M  V30 END ATOM
M  V30 BEGIN BOND
M  V30 1 2 1 2
M  V30 2 1 2 3
M  V30 3 1 2 4
M  V30 4 1 3 5
M  V30 5 1 4 6
M  V30 6 1 5 7
M  V30 7 1 7 8
M  V30 8 1 8 9
M  V30 9 1 9 10
M  V30 10 1 10 11
M  V30 11 1 5 6
M  V30 12 1 4 12
M  V30 13 1 4 13
M  V30 14 1 5 14
M  V30 15 1 6 15
M  V30 16 1 6 16
M  V30 17 1 7 17
M  V30 18 1 7 18
M  V30 19 1 8 19
M  V30 20 1 8 20
M  V30 21 1 9 21
M  V30 22 1 9 22
M  V30 23 1 10 23
M  V30 24 1 10 24
M  V30 25 1 11 25
M  V30 26 1 11 26
M  V30 27 1 11 27
M  V30 END BOND
M  V30 BEGIN COLLECTION
M  V30 MDLV30/STEABS ATOMS=(1 5)
M  V30 END COLLECTION
M  V30 END CTAB
M  END
>  <Structure No>
2183

>  <LogS>
-1.85529404

>  <MMFF94 Energy>
-7.4686

$$$$
Compound 2184
Actelion Java MolfileCreator 2.0

  0  0  0  0  0  0              0 V3000
M  V30 BEGIN CTAB
M  V30 COUNTS 27 27 0 0 0
M  V30 BEGIN ATOM
M  V30 1 O 3.5397 0.6285 -2.044 0
M  V30 2 C 2.876 0.3917 -1.0463 0
M  V30 3 C 1.3786 0.3328 -1.1633 0
M  V30 4 C 3.5717 0.1667 0.2648 0
M  V30 5 O 0.7807 0.0469 0.0972 0
M  V30 6 C -0.6049 -0.058 0.2403 0
M  V30 7 C -1.2372 -1.3082 0.0806 0
M  V30 8 C -1.3688 1.0831 0.5608 0
M  V30 9 C -2.6343 -1.3935 0.1815 0
M  V30 10 C -0.4399 -2.5358 -0.2604 0
M  V30 11 C -2.7646 0.9752 0.6572 0
M  V30 12 C -0.7128 2.4242 0.7356 0
M  V30 13 C -3.3917 -0.2572 0.4691 0
M  V30 14 H 1.1043 -0.4579 -1.8935 0
M  V30 15 H 1.007 1.3102 -1.5384 0
M  V30 16 H 4.6728 0.2514 0.1446 0
M  V30 17 H 3.3321 -0.848 0.6458 0
M  V30 18 H 3.2345 0.9254 1.002 0
M  V30 19 H -3.1389 -2.3406 0.0357 0
M  V30 20 H 0.5338 -2.5309 0.2735 0
M  V30 21 H -0.2564 -2.5661 -1.3544 0
M  V30 22 H -0.9832 -3.4578 0.0374 0
M  V30 23 H -3.3693 1.8466 0.8765 0
M  V30 24 H 0.267 2.317 1.247 0
M  V30 25 H -1.3439 3.0978 1.3538 0
M  V30 26 H -0.5568 2.8926 -0.2582 0
M  V30 27 H -4.4689 -0.3315 0.5445 0
M  V30 END ATOM
M  V30 BEGIN BOND
M  V30 1 2 1 2
M  V30 2 1 2 3
M  V30 3 1 2 4
M  V30 4 1 3 5
M  V30 5 1 5 6
M  V30 6 2 6 7
M  V30 7 1 6 8
M  V30 8 1 7 9
M  V30 9 1 7 10
M  V30 10 2 8 11
M  V30 11 1 8 12
M  V30 12 2 9 13
M  V30 13 1 11 13
M  V30 14 1 3 14
M  V30 15 1 3 15
M  V30 16 1 4 16
M  V30 17 1 4 17
M  V30 18 1 4 18
M  V30 19 1 9 19
M  V30 20 1 10 20
M  V30 21 1 10 21
M  V30 22 1 10 22
M  V30 23 1 11 23
M  V30 24 1 12 24
M  V30 25 1 12 25
M  V30 26 1 12 26
M  V30 27 1 13 27
M  V30 END BOND
M  V30 END CTAB
M  END
>  <Structure No>
2184

>  <LogS>
-1.918544784

>  <MMFF94 Energy>
46.487

$$$$
Compound 2185
Actelion Java MolfileCreator 2.0

  0  0  0  0  0  0              0 V3000
M  V30 BEGIN CTAB
M  V30 COUNTS 22 22 0 0 0
M  V30 BEGIN ATOM
M  V30 1 O -2.6593 -0.0781 -0.2344 0
M  V30 2 C -1.2628 -0.1392 -0.0978 0
M  V30 3 C -3.3874 1.0976 -0.5739 0
M  V30 4 C -0.6638 -1.3669 0.2426 0
M  V30 5 C -0.4471 0.9923 -0.2918 0
M  V30 6 N -1.4636 -2.5376 0.4473 0
M  V30 7 C 0.7295 -1.4491 0.3839 0
M  V30 8 C 0.9393 0.9007 -0.1488 0
M  V30 9 C 1.5383 -0.3247 0.191 0
M  V30 10 O 2.9254 -0.467 0.3459 0
M  V30 11 C 3.8656 0.5895 0.1804 0
M  V30 12 H -3.2258 1.8824 0.1949 0
M  V30 13 H -4.4693 0.8554 -0.6118 0
M  V30 14 H -3.0711 1.468 -1.572 0
M  V30 15 H -0.8751 1.9502 -0.5539 0
M  V30 16 H -1.0193 -3.4486 0.6999 0
M  V30 17 H -2.5028 -2.5118 0.3502 0
M  V30 18 H 1.1901 -2.3938 0.6458 0
M  V30 19 H 1.536 1.7891 -0.3049 0
M  V30 20 H 4.8872 0.1973 0.362 0
M  V30 21 H 3.8158 0.9862 -0.8555 0
M  V30 22 H 3.6611 1.4006 0.911 0
M  V30 END ATOM
M  V30 BEGIN BOND
M  V30 1 1 1 2
M  V30 2 1 1 3
M  V30 3 2 2 4
M  V30 4 1 2 5
M  V30 5 1 4 6
M  V30 6 1 4 7
M  V30 7 2 5 8
M  V30 8 2 7 9
M  V30 9 1 9 10
M  V30 10 1 10 11
M  V30 11 1 8 9
M  V30 12 1 3 12
M  V30 13 1 3 13
M  V30 14 1 3 14
M  V30 15 1 5 15
M  V30 16 1 6 16
M  V30 17 1 6 17
M  V30 18 1 7 18
M  V30 19 1 8 19
M  V30 20 1 11 20
M  V30 21 1 11 21
M  V30 22 1 11 22
M  V30 END BOND
M  V30 END CTAB
M  END
>  <Structure No>
2185

>  <LogS>
-1.858869039

>  <MMFF94 Energy>
34.219

$$$$
Compound 2186
Actelion Java MolfileCreator 2.0

  0  0  0  0  0  0              0 V3000
M  V30 BEGIN CTAB
M  V30 COUNTS 30 30 0 0 0
M  V30 BEGIN ATOM
M  V30 1 O 1.7335 -1.497 0.7089 0
M  V30 2 C 1.8009 -0.671 -0.2415 0
M  V30 3 N 0.6201 -0.0056 -0.7166 0
M  V30 4 C 3.1296 -0.3793 -0.8681 0
M  V30 5 C -0.6514 -0.069 -0.0455 0
M  V30 6 C 3.7266 0.8574 -0.2555 0
M  V30 7 C -1.8497 -0.1884 -0.7864 0
M  V30 8 C -0.7171 0.0387 1.3545 0
M  V30 9 O 3.2554 1.9511 -0.5282 0
M  V30 10 C 4.8882 0.7771 0.6899 0
M  V30 11 C -3.0835 -0.1977 -0.1131 0
M  V30 12 C -1.8254 -0.2963 -2.287 0
M  V30 13 C -1.9475 0.017 2.0129 0
M  V30 14 C -3.138 -0.0857 1.2832 0
M  V30 15 C -4.4578 -0.1408 1.9947 0
M  V30 16 H 0.6822 0.5122 -1.6219 0
M  V30 17 H 3.0096 -0.2305 -1.9625 0
M  V30 18 H 3.8039 -1.2515 -0.728 0
M  V30 19 H 0.1851 0.1628 1.9391 0
M  V30 20 H 5.1952 -0.2749 0.8656 0
M  V30 21 H 5.7501 1.3348 0.2675 0
M  V30 22 H 4.6052 1.2293 1.6637 0
M  V30 23 H -4.005 -0.2929 -0.6754 0
M  V30 24 H -1.0771 -1.0534 -2.6036 0
M  V30 25 H -1.5616 0.6883 -2.7264 0
M  V30 26 H -2.8127 -0.6082 -2.6893 0
M  V30 27 H -1.9717 0.0929 3.0932 0
M  V30 28 H -4.4148 0.428 2.948 0
M  V30 29 H -5.2598 0.3029 1.367 0
M  V30 30 H -4.7139 -1.198 2.2155 0
M  V30 END ATOM
M  V30 BEGIN BOND
M  V30 1 2 1 2
M  V30 2 1 2 3
M  V30 3 1 2 4
M  V30 4 1 3 5
M  V30 5 1 4 6
M  V30 6 2 5 7
M  V30 7 1 5 8
M  V30 8 2 6 9
M  V30 9 1 6 10
M  V30 10 1 7 11
M  V30 11 1 7 12
M  V30 12 2 8 13
M  V30 13 2 11 14
M  V30 14 1 14 15
M  V30 15 1 13 14
M  V30 16 1 3 16
M  V30 17 1 4 17
M  V30 18 1 4 18
M  V30 19 1 8 19
M  V30 20 1 10 20
M  V30 21 1 10 21
M  V30 22 1 10 22
M  V30 23 1 11 23
M  V30 24 1 12 24
M  V30 25 1 12 25
M  V30 26 1 12 26
M  V30 27 1 13 27
M  V30 28 1 15 28
M  V30 29 1 15 29
M  V30 30 1 15 30
M  V30 END BOND
M  V30 END CTAB
M  END
>  <Structure No>
2186

>  <LogS>
-1.990078682

>  <MMFF94 Energy>
-1.4477

$$$$
Compound 2187
Actelion Java MolfileCreator 2.0

  0  0  0  0  0  0              0 V3000
M  V30 BEGIN CTAB
M  V30 COUNTS 26 26 0 0 0
M  V30 BEGIN ATOM
M  V30 1 O 1.5713 -2.2003 -1.2568 0
M  V30 2 C 2.2341 -1.4761 -0.4659 0
M  V30 3 N 1.632 -0.3312 0.157 0
M  V30 4 C 3.6842 -1.7627 -0.2513 0
M  V30 5 C 0.218 -0.0635 0.1442 0
M  V30 6 C -0.2402 1.2655 0.0589 0
M  V30 7 C -0.7115 -1.1112 0.2759 0
M  V30 8 O 0.7032 2.2996 -0.0548 0
M  V30 9 C -1.6245 1.5227 0.0822 0
M  V30 10 C -2.0884 -0.8498 0.2781 0
M  V30 11 C 0.3786 3.6827 -0.1512 0
M  V30 12 C -2.5381 0.4732 0.193 0
M  V30 13 C -3.0697 -1.9707 0.4547 0
M  V30 14 H 2.2692 0.3809 0.5803 0
M  V30 15 H 3.9557 -1.5665 0.8071 0
M  V30 16 H 3.907 -2.8254 -0.4843 0
M  V30 17 H 4.2914 -1.1095 -0.9116 0
M  V30 18 H -0.3657 -2.1294 0.4007 0
M  V30 19 H -2.006 2.5325 0.0184 0
M  V30 20 H -0.1715 4.01 0.7561 0
M  V30 21 H 1.3161 4.2701 -0.2289 0
M  V30 22 H -0.2336 3.8689 -1.0587 0
M  V30 23 H -3.5983 0.6941 0.2186 0
M  V30 24 H -3.2454 -2.1404 1.5374 0
M  V30 25 H -2.6807 -2.9062 -5.0E-4 0
M  V30 26 H -4.0363 -1.7274 -0.0354 0
M  V30 END ATOM
M  V30 BEGIN BOND
M  V30 1 2 1 2
M  V30 2 1 2 3
M  V30 3 1 2 4
M  V30 4 1 3 5
M  V30 5 2 5 6
M  V30 6 1 5 7
M  V30 7 1 6 8
M  V30 8 1 6 9
M  V30 9 2 7 10
M  V30 10 1 8 11
M  V30 11 2 9 12
M  V30 12 1 10 13
M  V30 13 1 10 12
M  V30 14 1 3 14
M  V30 15 1 4 15
M  V30 16 1 4 16
M  V30 17 1 4 17
M  V30 18 1 7 18
M  V30 19 1 9 19
M  V30 20 1 11 20
M  V30 21 1 11 21
M  V30 22 1 11 22
M  V30 23 1 12 23
M  V30 24 1 13 24
M  V30 25 1 13 25
M  V30 26 1 13 26
M  V30 END BOND
M  V30 END CTAB
M  END
>  <Structure No>
2187

>  <LogS>
-1.931164755

>  <MMFF94 Energy>
15.626

$$$$
Compound 2188
Actelion Java MolfileCreator 2.0

  0  0  0  0  0  0              0 V3000
M  V30 BEGIN CTAB
M  V30 COUNTS 23 24 0 0 0
M  V30 BEGIN ATOM
M  V30 1 O 0.4727 -2.6024 -0.2363 0
M  V30 2 C 1.0336 -1.4777 -0.1502 0
M  V30 3 N 0.3826 -0.3014 -0.0236 0
M  V30 4 C 2.3945 -1.2647 -0.2179 0
M  V30 5 N 1.2882 0.666 -0.0178 0
M  V30 6 C -1.0391 -0.0863 0.0622 0
M  V30 7 C 2.5132 0.1113 -0.1185 0
M  V30 8 C -1.8622 -0.9828 0.7681 0
M  V30 9 C -1.6213 1.0395 -0.5462 0
M  V30 10 C 3.7839 0.8891 -0.2126 0
M  V30 11 C -3.2403 -0.7608 0.8522 0
M  V30 12 C -3.0 1.2567 -0.4604 0
M  V30 13 C -3.809 0.3569 0.2372 0
M  V30 14 H 3.1809 -1.9974 -0.3437 0
M  V30 15 H 1.0803 1.6867 0.0634 0
M  V30 16 H -1.4389 -1.8404 1.2734 0
M  V30 17 H -1.0123 1.7402 -1.1022 0
M  V30 18 H 3.9895 1.1331 -1.2754 0
M  V30 19 H 4.6273 0.2942 0.1965 0
M  V30 20 H 3.6955 1.831 0.3681 0
M  V30 21 H -3.8669 -1.453 1.3997 0
M  V30 22 H -3.4415 2.1224 -0.937 0
M  V30 23 H -4.8758 0.5271 0.3036 0
M  V30 END ATOM
M  V30 BEGIN BOND
M  V30 1 2 1 2
M  V30 2 1 2 3
M  V30 3 1 2 4
M  V30 4 1 3 5
M  V30 5 1 3 6
M  V30 6 2 4 7
M  V30 7 2 6 8
M  V30 8 1 6 9
M  V30 9 1 7 10
M  V30 10 1 8 11
M  V30 11 2 9 12
M  V30 12 2 11 13
M  V30 13 1 5 7
M  V30 14 1 12 13
M  V30 15 1 4 14
M  V30 16 1 5 15
M  V30 17 1 8 16
M  V30 18 1 9 17
M  V30 19 1 10 18
M  V30 20 1 10 19
M  V30 21 1 10 20
M  V30 22 1 11 21
M  V30 23 1 12 22
M  V30 24 1 13 23
M  V30 END BOND
M  V30 END CTAB
M  END
>  <Structure No>
2188

>  <LogS>
-1.925085284

>  <MMFF94 Energy>
59.283

$$$$
Compound 2189
Actelion Java MolfileCreator 2.0

  0  0  0  0  0  0              0 V3000
M  V30 BEGIN CTAB
M  V30 COUNTS 22 21 0 0 0
M  V30 BEGIN ATOM
M  V30 1 O 3.9428 0.1543 1.2356 0
M  V30 2 C 3.0795 -0.0308 0.3932 0
M  V30 3 C 1.9125 0.9094 0.2994 0
M  V30 4 C 0.894 0.4832 -0.7704 0
M  V30 5 C 0.179 -0.852 -0.4769 0
M  V30 6 C -0.6147 -0.8971 0.8445 0
M  V30 7 C -1.6829 0.1996 0.9983 0
M  V30 8 C -2.7717 0.1239 -0.0711 0
M  V30 9 H 3.1744 -0.8746 -0.2826 0
M  V30 10 H 1.4214 0.9995 1.2905 0
M  V30 11 H 2.3 1.9163 0.0336 0
M  V30 12 H 1.4172 0.3946 -1.7477 0
M  V30 13 H 0.1406 1.2893 -0.8944 0
M  V30 14 H -0.5061 -1.0782 -1.3213 0
M  V30 15 H 0.9267 -1.6731 -0.4616 0
M  V30 16 H 0.0887 -0.8374 1.7014 0
M  V30 17 H -1.1104 -1.8896 0.9194 0
M  V30 18 H -1.2154 1.2063 0.9892 0
M  V30 19 H -2.1641 0.0755 1.9926 0
M  V30 20 H -2.3607 0.3866 -1.0679 0
M  V30 21 H -3.578 0.8478 0.1712 0
M  V30 22 H -3.2105 -0.8956 -0.1074 0
M  V30 END ATOM
M  V30 BEGIN BOND
M  V30 1 2 1 2
M  V30 2 1 2 3
M  V30 3 1 3 4
M  V30 4 1 4 5
M  V30 5 1 5 6
M  V30 6 1 6 7
M  V30 7 1 7 8
M  V30 8 1 2 9
M  V30 9 1 3 10
M  V30 10 1 3 11
M  V30 11 1 4 12
M  V30 12 1 4 13
M  V30 13 1 5 14
M  V30 14 1 5 15
M  V30 15 1 6 16
M  V30 16 1 6 17
M  V30 17 1 7 18
M  V30 18 1 7 19
M  V30 19 1 8 20
M  V30 20 1 8 21
M  V30 21 1 8 22
M  V30 END BOND
M  V30 END CTAB
M  END
>  <Structure No>
2189

>  <LogS>
-1.750124429

>  <MMFF94 Energy>
-2.3157

$$$$
Compound 2190
Actelion Java MolfileCreator 2.0

  0  0  0  0  0  0              0 V3000
M  V30 BEGIN CTAB
M  V30 COUNTS 21 20 0 0 0
M  V30 BEGIN ATOM
M  V30 1 O 1.2389 0.387 1.3164 0
M  V30 2 C 1.4106 -0.1291 0.1784 0
M  V30 3 O 0.3412 -0.284 -0.7161 0
M  V30 4 C 2.7461 -0.5835 -0.239 0
M  V30 5 C -1.0233 0.0978 -0.4844 0
M  V30 6 C 3.8184 -0.4762 0.5436 0
M  V30 7 C -1.1303 1.6176 -0.2543 0
M  V30 8 C -1.8184 -0.2695 -1.7467 0
M  V30 9 C -1.6077 -0.6751 0.7135 0
M  V30 10 H 2.8585 -1.022 -1.2226 0
M  V30 11 H 3.7556 -0.0448 1.5348 0
M  V30 12 H 4.78 -0.8254 0.1908 0
M  V30 13 H -0.639 2.1665 -1.0861 0
M  V30 14 H -2.1954 1.931 -0.2029 0
M  V30 15 H -0.6453 1.9185 0.6965 0
M  V30 16 H -2.8911 6.0E-4 -1.6358 0
M  V30 17 H -1.7472 -1.3611 -1.9427 0
M  V30 18 H -1.4083 0.2663 -2.6298 0
M  V30 19 H -1.4581 -1.7672 0.5745 0
M  V30 20 H -1.1229 -0.3749 1.6647 0
M  V30 21 H -2.6967 -0.4761 0.8133 0
M  V30 END ATOM
M  V30 BEGIN BOND
M  V30 1 2 1 2
M  V30 2 1 2 3
M  V30 3 1 2 4
M  V30 4 1 3 5
M  V30 5 2 4 6
M  V30 6 1 5 7
M  V30 7 1 5 8
M  V30 8 1 5 9
M  V30 9 1 4 10
M  V30 10 1 6 11
M  V30 11 1 6 12
M  V30 12 1 7 13
M  V30 13 1 7 14
M  V30 14 1 7 15
M  V30 15 1 8 16
M  V30 16 1 8 17
M  V30 17 1 8 18
M  V30 18 1 9 19
M  V30 19 1 9 20
M  V30 20 1 9 21
M  V30 END BOND
M  V30 END CTAB
M  END
>  <Structure No>
2190

>  <LogS>
-1.804593715

>  <MMFF94 Energy>
10.471

$$$$
Compound 2191
Actelion Java MolfileCreator 2.0

  0  0  0  0  0  0              0 V3000
M  V30 BEGIN CTAB
M  V30 COUNTS 19 18 0 0 0
M  V30 BEGIN ATOM
M  V30 1 O 0.5393 2.1589 -0.2311 0
M  V30 2 C 0.2925 0.9552 0.056 0
M  V30 3 N -1.0157 0.4135 -0.2418 0
M  V30 4 C 1.4185 0.122 0.6245 0 CFG=1
M  V30 5 C -1.5392 -0.7668 0.4555 0
M  V30 6 C -1.8598 1.1179 -1.2128 0
M  V30 7 O 0.9954 -0.5703 1.7687 0
M  V30 8 C 1.9561 -0.8484 -0.4302 0
M  V30 9 H 2.2498 0.8102 0.9083 0
M  V30 10 H -1.5666 -0.5753 1.5486 0
M  V30 11 H -0.9089 -1.6531 0.2446 0
M  V30 12 H -2.5737 -1.0089 0.134 0
M  V30 13 H -2.8205 0.59 -1.3878 0
M  V30 14 H -1.3276 1.1919 -2.1848 0
M  V30 15 H -2.0874 2.1397 -0.8422 0
M  V30 16 H 1.8133 -0.8861 2.2347 0
M  V30 17 H 2.3133 -0.2852 -1.3189 0
M  V30 18 H 2.8115 -1.4215 -0.0144 0
M  V30 19 H 1.1742 -1.5654 -0.7531 0
M  V30 END ATOM
M  V30 BEGIN BOND
M  V30 1 2 1 2
M  V30 2 1 2 3
M  V30 3 1 2 4
M  V30 4 1 3 5
M  V30 5 1 3 6
M  V30 6 1 4 7
M  V30 7 1 4 8
M  V30 8 1 4 9
M  V30 9 1 5 10
M  V30 10 1 5 11
M  V30 11 1 5 12
M  V30 12 1 6 13
M  V30 13 1 6 14
M  V30 14 1 6 15
M  V30 15 1 7 16
M  V30 16 1 8 17
M  V30 17 1 8 18
M  V30 18 1 8 19
M  V30 END BOND
M  V30 BEGIN COLLECTION
M  V30 MDLV30/STEABS ATOMS=(1 4)
M  V30 END COLLECTION
M  V30 END CTAB
M  END
>  <Structure No>
2191

>  <LogS>
1.630235126

>  <MMFF94 Energy>
21.422

$$$$
Compound 2192
Actelion Java MolfileCreator 2.0

  0  0  0  0  0  0              0 V3000
M  V30 BEGIN CTAB
M  V30 COUNTS 13 11 0 0 0
M  V30 BEGIN ATOM
M  V30 1 O 1.2503 -1.1767 -0.7353 0
M  V30 2 C 0.9545 -0.19 -0.0113 0
M  V30 3 O 1.8637 0.2685 0.933 0 CHG=-1
M  V30 4 C -0.3908 0.4506 -0.1272 0
M  V30 5 O -1.2803 -0.132 0.7846 0
M  V30 6 N -0.0286 0.0129 0.0227 0 CHG=1
M  V30 7 H -0.2998 1.5328 0.1029 0
M  V30 8 H -0.7773 0.356 -1.1675 0
M  V30 9 H -1.5482 -1.0077 0.4002 0
M  V30 10 H -0.4675 0.9529 0.1436 0
M  V30 11 H -0.7054 -0.6294 -0.4463 0
M  V30 12 H 0.2276 -0.3744 0.9581 0
M  V30 13 H 0.8303 0.1027 -0.5642 0
M  V30 END ATOM
M  V30 BEGIN BOND
M  V30 1 2 1 2
M  V30 2 1 2 3
M  V30 3 1 2 4
M  V30 4 1 4 5
M  V30 5 1 4 7
M  V30 6 1 4 8
M  V30 7 1 5 9
M  V30 8 1 6 10
M  V30 9 1 6 11
M  V30 10 1 6 12
M  V30 11 1 6 13
M  V30 END BOND
M  V30 END CTAB
M  END
>  <Structure No>
2192

>  <LogS>
1.700915909

>  <MMFF94 Energy>
49.955

$$$$
Compound 2193
Actelion Java MolfileCreator 2.0

  0  0  0  0  0  0              0 V3000
M  V30 BEGIN CTAB
M  V30 COUNTS 38 41 0 0 0
M  V30 BEGIN ATOM
M  V30 1 O 0.8183 2.6204 -0.1636 0
M  V30 2 C 0.8972 1.8545 0.8322 0
M  V30 3 O 0.3227 2.2402 2.0375 0 CHG=-1
M  V30 4 C 1.673 0.6025 0.7499 0
M  V30 5 C 1.5731 -0.3299 -0.3313 0
M  V30 6 C 2.6534 0.417 1.7375 0
M  V30 7 C 0.489 -0.3669 -1.2682 0
M  V30 8 C 2.5984 -1.3146 -0.4597 0
M  V30 9 C 3.5935 -0.6018 1.6302 0
M  V30 10 C -0.7821 0.3885 -1.0993 0
M  V30 11 C 0.5685 -1.2205 -2.3832 0
M  V30 12 C 2.6223 -2.1764 -1.5645 0
M  V30 13 C 3.589 -1.4416 0.5233 0
M  V30 14 C -1.6394 0.2683 0.0431 0
M  V30 15 C -1.0879 1.3327 -2.096 0
M  V30 16 C 1.6303 -2.1051 -2.5345 0
M  V30 17 C -1.5134 -0.7495 1.0407 0
M  V30 18 C -2.6572 1.2534 0.2191 0
M  V30 19 C -2.1473 2.22 -1.9423 0
M  V30 20 C -0.7529 -1.9984 0.8444 0
M  V30 21 C -2.2591 -0.6542 2.2272 0
M  V30 22 C -2.9078 2.2036 -0.7799 0
M  V30 23 C -3.4126 1.2921 1.399 0
M  V30 24 O 0.006 -2.4281 1.7531 0
M  V30 25 O -0.9351 -2.7534 -0.3069 0 CHG=-1
M  V30 26 C -3.1893 0.3635 2.4082 0
M  V30 27 H 2.7281 1.1031 2.5733 0
M  V30 28 H 4.3563 -0.7145 2.3899 0
M  V30 29 H -0.2299 -1.2402 -3.1157 0
M  V30 30 H 3.4131 -2.9087 -1.6785 0
M  V30 31 H 4.3562 -2.2027 0.4413 0
M  V30 32 H -0.4644 1.4191 -2.9781 0
M  V30 33 H 1.6605 -2.771 -3.3872 0
M  V30 34 H -2.3515 2.9548 -2.7104 0
M  V30 35 H -2.1611 -1.4079 2.9998 0
M  V30 36 H -3.6962 2.9378 -0.6607 0
M  V30 37 H -4.1711 2.0521 1.5465 0
M  V30 38 H -3.7707 0.4075 3.3203 0
M  V30 END ATOM
M  V30 BEGIN BOND
M  V30 1 2 1 2
M  V30 2 1 2 3
M  V30 3 1 2 4
M  V30 4 1 4 5
M  V30 5 2 4 6
M  V30 6 2 5 7
M  V30 7 1 5 8
M  V30 8 1 6 9
M  V30 9 1 7 10
M  V30 10 1 7 11
M  V30 11 2 8 12
M  V30 12 1 8 13
M  V30 13 1 10 14
M  V30 14 2 10 15
M  V30 15 2 11 16
M  V30 16 2 14 17
M  V30 17 1 14 18
M  V30 18 1 15 19
M  V30 19 1 17 20
M  V30 20 1 17 21
M  V30 21 1 18 22
M  V30 22 2 18 23
M  V30 23 2 20 24
M  V30 24 1 20 25
M  V30 25 2 21 26
M  V30 26 2 9 13
M  V30 27 1 12 16
M  V30 28 2 19 22
M  V30 29 1 23 26
M  V30 30 1 6 27
M  V30 31 1 9 28
M  V30 32 1 11 29
M  V30 33 1 12 30
M  V30 34 1 13 31
M  V30 35 1 15 32
M  V30 36 1 16 33
M  V30 37 1 19 34
M  V30 38 1 21 35
M  V30 39 1 22 36
M  V30 40 1 23 37
M  V30 41 1 26 38
M  V30 END BOND
M  V30 END CTAB
M  END
>  <Structure No>
2193

>  <LogS>
-2.233440337

>  <MMFF94 Energy>
195.94

$$$$
Compound 2194
Actelion Java MolfileCreator 2.0

  0  0  0  0  0  0              0 V3000
M  V30 BEGIN CTAB
M  V30 COUNTS 21 20 0 0 0
M  V30 BEGIN ATOM
M  V30 1 O 1.3154 -0.232 -2.0124 0
M  V30 2 C 1.5604 -0.3839 -0.785 0
M  V30 3 O 0.8977 0.3906 0.1763 0
M  V30 4 C 2.5578 -1.382 -0.3738 0
M  V30 5 C -0.1448 1.319 -0.1274 0
M  V30 6 C 2.8512 -1.6056 0.905 0
M  V30 7 C -1.5382 0.6727 -0.0035 0
M  V30 8 C -1.7682 -0.406 -1.0682 0
M  V30 9 C -1.7636 0.1031 1.4027 0
M  V30 10 H 3.068 -1.9573 -1.1368 0
M  V30 11 H -0.08 2.159 0.5968 0
M  V30 12 H -0.0052 1.7604 -1.1386 0
M  V30 13 H 3.5909 -2.3513 1.1659 0
M  V30 14 H 2.3645 -1.0578 1.7022 0
M  V30 15 H -2.2929 1.4732 -0.1697 0
M  V30 16 H -2.8216 -0.7571 -1.0294 0
M  V30 17 H -1.5803 0.0073 -2.0819 0
M  V30 18 H -1.1024 -1.2789 -0.9011 0
M  V30 19 H -2.7999 -0.2868 1.4947 0
M  V30 20 H -1.625 0.899 2.1654 0
M  V30 21 H -1.052 -0.724 1.6132 0
M  V30 END ATOM
M  V30 BEGIN BOND
M  V30 1 2 1 2
M  V30 2 1 2 3
M  V30 3 1 2 4
M  V30 4 1 3 5
M  V30 5 2 4 6
M  V30 6 1 5 7
M  V30 7 1 7 8
M  V30 8 1 7 9
M  V30 9 1 4 10
M  V30 10 1 5 11
M  V30 11 1 5 12
M  V30 12 1 6 13
M  V30 13 1 6 14
M  V30 14 1 7 15
M  V30 15 1 8 16
M  V30 16 1 8 17
M  V30 17 1 8 18
M  V30 18 1 9 19
M  V30 19 1 9 20
M  V30 20 1 9 21
M  V30 END BOND
M  V30 END CTAB
M  END
>  <Structure No>
2194

>  <LogS>
-1.806759777

>  <MMFF94 Energy>
1.6444

$$$$
Compound 2195
Actelion Java MolfileCreator 2.0

  0  0  0  0  0  0              0 V3000
M  V30 BEGIN CTAB
M  V30 COUNTS 23 23 0 0 0
M  V30 BEGIN ATOM
M  V30 1 O -3.6168 1.2568 -0.8639 0
M  V30 2 C -3.2065 0.8962 0.2278 0
M  V30 3 C -1.7332 0.8638 0.5156 0
M  V30 4 C -0.9952 -0.1763 -0.354 0 CFG=1
M  V30 5 C 0.5083 -0.0155 -0.2196 0
M  V30 6 C -1.4166 -1.6131 -0.0089 0
M  V30 7 C 1.2855 0.3149 -1.3454 0
M  V30 8 C 1.15 -0.1903 1.0227 0
M  V30 9 C 2.6708 0.4661 -1.2304 0
M  V30 10 C 2.5354 -0.0379 1.1316 0
M  V30 11 C 3.2951 0.2898 0.0066 0
M  V30 12 H -3.915 0.6102 0.9984 0
M  V30 13 H -1.5846 0.6377 1.5937 0
M  V30 14 H -1.3177 1.877 0.3217 0
M  V30 15 H -1.2821 0.0014 -1.4153 0
M  V30 16 H -0.8368 -2.3372 -0.6206 0
M  V30 17 H -1.2453 -1.8334 1.066 0
M  V30 18 H -2.4941 -1.7626 -0.2325 0
M  V30 19 H 0.8215 0.4564 -2.3136 0
M  V30 20 H 0.5803 -0.4439 1.9073 0
M  V30 21 H 3.2608 0.7202 -2.1015 0
M  V30 22 H 3.0204 -0.174 2.0897 0
M  V30 23 H 4.3677 0.4074 0.0931 0
M  V30 END ATOM
M  V30 BEGIN BOND
M  V30 1 2 1 2
M  V30 2 1 2 3
M  V30 3 1 3 4
M  V30 4 1 4 5
M  V30 5 1 4 6
M  V30 6 2 5 7
M  V30 7 1 5 8
M  V30 8 1 7 9
M  V30 9 2 8 10
M  V30 10 2 9 11
M  V30 11 1 10 11
M  V30 12 1 2 12
M  V30 13 1 3 13
M  V30 14 1 3 14
M  V30 15 1 4 15
M  V30 16 1 6 16
M  V30 17 1 6 17
M  V30 18 1 6 18
M  V30 19 1 7 19
M  V30 20 1 8 20
M  V30 21 1 9 21
M  V30 22 1 10 22
M  V30 23 1 11 23
M  V30 END BOND
M  V30 BEGIN COLLECTION
M  V30 MDLV30/STEABS ATOMS=(1 4)
M  V30 END COLLECTION
M  V30 END CTAB
M  END
>  <Structure No>
2195

>  <LogS>
-1.86983286

>  <MMFF94 Energy>
22.051

$$$$
Compound 2196
Actelion Java MolfileCreator 2.0

  0  0  0  0  0  0              0 V3000
M  V30 BEGIN CTAB
M  V30 COUNTS 18 18 0 0 0
M  V30 BEGIN ATOM
M  V30 1 O 2.8852 1.4807 0.7791 0
M  V30 2 C 1.7788 0.7023 0.4459 0
M  V30 3 C 0.5163 1.2965 0.3651 0
M  V30 4 C 1.9209 -0.6658 0.1924 0
M  V30 5 C -0.6162 0.5327 0.0307 0
M  V30 6 C 0.8056 -1.4363 -0.1405 0
M  V30 7 C -0.4677 -0.8519 -0.2251 0
M  V30 8 C -1.9611 1.2035 -0.0478 0
M  V30 9 N -1.5896 -1.6766 -0.5701 0
M  V30 10 H 3.8138 1.0806 0.8462 0
M  V30 11 H 0.4224 2.3573 0.5643 0
M  V30 12 H 2.8955 -1.1333 0.2531 0
M  V30 13 H 0.9337 -2.4941 -0.3337 0
M  V30 14 H -2.6552 0.7411 0.685 0
M  V30 15 H -1.8934 2.2884 0.182 0
M  V30 16 H -2.3756 1.0958 -1.0721 0
M  V30 17 H -1.4599 -2.6963 -0.7553 0
M  V30 18 H -2.5578 -1.2956 -0.6472 0
M  V30 END ATOM
M  V30 BEGIN BOND
M  V30 1 1 1 2
M  V30 2 2 2 3
M  V30 3 1 2 4
M  V30 4 1 3 5
M  V30 5 2 4 6
M  V30 6 2 5 7
M  V30 7 1 5 8
M  V30 8 1 7 9
M  V30 9 1 6 7
M  V30 10 1 1 10
M  V30 11 1 3 11
M  V30 12 1 4 12
M  V30 13 1 6 13
M  V30 14 1 8 14
M  V30 15 1 8 15
M  V30 16 1 8 16
M  V30 17 1 9 17
M  V30 18 1 9 18
M  V30 END BOND
M  V30 END CTAB
M  END
>  <Structure No>
2196

>  <LogS>
-1.789422053

>  <MMFF94 Energy>
0.67807

$$$$
Compound 2197
Actelion Java MolfileCreator 2.0

  0  0  0  0  0  0              0 V3000
M  V30 BEGIN CTAB
M  V30 COUNTS 20 20 0 0 0
M  V30 BEGIN ATOM
M  V30 1 O 1.7507 -0.7159 -0.7954 0
M  V30 2 C 1.7856 0.2068 0.064 0
M  V30 3 O 3.0087 0.632 0.5919 0
M  V30 4 C 0.5447 0.8773 0.4947 0
M  V30 5 C 4.2501 0.0468 0.2179 0
M  V30 6 O 0.6394 1.9516 1.1475 0
M  V30 7 C -0.8024 0.3489 0.17 0
M  V30 8 C -1.8674 1.2406 -0.0522 0
M  V30 9 C -1.0523 -1.0358 0.1203 0
M  V30 10 C -3.1466 0.758 -0.3456 0
M  V30 11 C -2.3336 -1.5132 -0.1724 0
M  V30 12 C -3.3788 -0.6174 -0.4088 0
M  V30 13 H 5.0708 0.5493 0.7696 0
M  V30 14 H 4.2534 -1.0338 0.4736 0
M  V30 15 H 4.4179 0.1754 -0.8723 0
M  V30 16 H -1.707 2.3111 -0.0104 0
M  V30 17 H -0.2678 -1.7503 0.332 0
M  V30 18 H -3.9584 1.4515 -0.5234 0
M  V30 19 H -2.5181 -2.5791 -0.2083 0
M  V30 20 H -4.37 -0.9892 -0.6341 0
M  V30 END ATOM
M  V30 BEGIN BOND
M  V30 1 2 1 2
M  V30 2 1 2 3
M  V30 3 1 2 4
M  V30 4 1 3 5
M  V30 5 2 4 6
M  V30 6 1 4 7
M  V30 7 2 7 8
M  V30 8 1 7 9
M  V30 9 1 8 10
M  V30 10 2 9 11
M  V30 11 2 10 12
M  V30 12 1 11 12
M  V30 13 1 5 13
M  V30 14 1 5 14
M  V30 15 1 5 15
M  V30 16 1 8 16
M  V30 17 1 9 17
M  V30 18 1 10 18
M  V30 19 1 11 19
M  V30 20 1 12 20
M  V30 END BOND
M  V30 END CTAB
M  END
>  <Structure No>
2197

>  <LogS>
-1.914237348

>  <MMFF94 Energy>
71.143

$$$$
Compound 2198
Actelion Java MolfileCreator 2.0

  0  0  0  0  0  0              0 V3000
M  V30 BEGIN CTAB
M  V30 COUNTS 51 54 0 0 0
M  V30 BEGIN ATOM
M  V30 1 S -3.3551 -2.3477 2.1799 0
M  V30 2 O -4.2812 -3.1869 3.016 0
M  V30 3 O -2.4957 -1.5166 3.0914 0
M  V30 4 O -2.3855 -3.3653 1.259 0 CHG=-1
M  V30 5 C -4.2752 -1.2818 1.1089 0
M  V30 6 C -3.6089 -0.4181 0.2171 0
M  V30 7 C -5.673 -1.269 1.1824 0
M  V30 8 N -2.1758 -0.4114 0.2119 0
M  V30 9 C -4.3594 0.4187 -0.6471 0
M  V30 10 C -6.4221 -0.4084 0.3712 0
M  V30 11 N -1.5054 0.6685 0.1691 0
M  V30 12 O -3.7373 1.2 -1.6277 0
M  V30 13 C -5.7659 0.4424 -0.5501 0
M  V30 14 C -7.8235 -0.3948 0.4615 0
M  V30 15 C -0.0738 0.6734 0.1525 0
M  V30 16 C -6.5371 1.2881 -1.3711 0
M  V30 17 C -8.5792 0.4543 -0.3579 0
M  V30 18 C 0.6021 1.8973 0.1931 0
M  V30 19 C 0.6655 -0.5203 0.0939 0
M  V30 20 C -7.9307 1.293 -1.2728 0
M  V30 21 N -10.0063 0.4632 -0.2618 0
M  V30 22 C 1.9996 1.9344 0.1718 0
M  V30 23 C 2.0626 -0.4825 0.0765 0
M  V30 24 C 2.7387 0.7499 0.1094 0
M  V30 25 N 4.1692 0.8247 0.0987 0
M  V30 26 N 4.9011 -0.2141 0.0342 0
M  V30 27 C 6.3317 -0.1409 0.0259 0
M  V30 28 C 7.0704 -1.3268 -0.0594 0
M  V30 29 C 7.0095 1.0896 0.1021 0
M  V30 30 C 8.4678 -1.2921 -0.0674 0
M  V30 31 C 8.4074 1.1246 0.0911 0
M  V30 32 C 9.1423 -0.0657 0.002 0
M  V30 33 S 10.9011 -0.0098 0.0039 0
M  V30 34 O 11.4591 -1.2649 -0.6062 0
M  V30 35 O 11.3972 0.1224 1.4154 0
M  V30 36 O 11.4226 1.3061 -0.9017 0 CHG=-1
M  V30 37 H -6.1807 -1.9237 1.8814 0
M  V30 38 H -2.762 1.1073 -1.8784 0
M  V30 39 H -8.3302 -1.0452 1.1659 0
M  V30 40 H -6.0684 1.9498 -2.0899 0
M  V30 41 H 0.0439 2.822 0.2492 0
M  V30 42 H 0.1657 -1.4833 0.0631 0
M  V30 43 H -8.5059 1.9519 -1.9121 0
M  V30 44 H -10.58 1.0912 -0.8689 0
M  V30 45 H -10.5003 -0.1556 0.4203 0
M  V30 46 H 2.5084 2.8903 0.2152 0
M  V30 47 H 2.6117 -1.4149 0.0388 0
M  V30 48 H 6.5607 -2.2818 -0.1146 0
M  V30 49 H 6.4616 2.0232 0.1714 0
M  V30 50 H 9.0202 -2.2197 -0.1251 0
M  V30 51 H 8.9164 2.0787 0.1524 0
M  V30 END ATOM
M  V30 BEGIN BOND
M  V30 1 2 1 2
M  V30 2 2 1 3
M  V30 3 1 1 4
M  V30 4 1 1 5
M  V30 5 1 5 6
M  V30 6 2 5 7
M  V30 7 1 6 8
M  V30 8 2 6 9
M  V30 9 1 7 10
M  V30 10 2 8 11
M  V30 11 1 9 12
M  V30 12 1 9 13
M  V30 13 2 10 14
M  V30 14 1 11 15
M  V30 15 2 13 16
M  V30 16 1 14 17
M  V30 17 2 15 18
M  V30 18 1 15 19
M  V30 19 1 16 20
M  V30 20 1 17 21
M  V30 21 1 18 22
M  V30 22 2 19 23
M  V30 23 2 22 24
M  V30 24 1 24 25
M  V30 25 2 25 26
M  V30 26 1 26 27
M  V30 27 2 27 28
M  V30 28 1 27 29
M  V30 29 1 28 30
M  V30 30 2 29 31
M  V30 31 2 30 32
M  V30 32 1 32 33
M  V30 33 2 33 34
M  V30 34 2 33 35
M  V30 35 1 33 36
M  V30 36 1 10 13
M  V30 37 2 17 20
M  V30 38 1 23 24
M  V30 39 1 31 32
M  V30 40 1 7 37
M  V30 41 1 12 38
M  V30 42 1 14 39
M  V30 43 1 16 40
M  V30 44 1 18 41
M  V30 45 1 19 42
M  V30 46 1 20 43
M  V30 47 1 21 44
M  V30 48 1 21 45
M  V30 49 1 22 46
M  V30 50 1 23 47
M  V30 51 1 28 48
M  V30 52 1 29 49
M  V30 53 1 30 50
M  V30 54 1 31 51
M  V30 END BOND
M  V30 END CTAB
M  END
>  <Structure No>
2198

>  <LogS>
-0.460354084

>  <MMFF94 Energy>
129.22

$$$$
Compound 2199
Actelion Java MolfileCreator 2.0

  0  0  0  0  0  0              0 V3000
M  V30 BEGIN CTAB
M  V30 COUNTS 23 23 0 0 0
M  V30 BEGIN ATOM
M  V30 1 O 2.6415 -0.2328 0.3104 0
M  V30 2 C 1.3561 0.329 0.2518 0
M  V30 3 C 3.001 -1.4882 -0.2568 0
M  V30 4 C 1.1337 1.5801 0.8568 0
M  V30 5 C 0.2852 -0.3233 -0.3919 0
M  V30 6 O 2.1649 2.2614 1.5032 0
M  V30 7 C -0.1381 2.1601 0.8194 0
M  V30 8 C -0.9864 0.2687 -0.44 0
M  V30 9 C -1.194 1.5081 0.1808 0
M  V30 10 C -2.135 -0.451 -1.0984 0
M  V30 11 N -2.8145 -1.3228 -0.1415 0 CHG=1
M  V30 12 H 4.0758 -1.6795 -0.0612 0
M  V30 13 H 2.8371 -1.472 -1.3549 0
M  V30 14 H 2.405 -2.3019 0.2076 0
M  V30 15 H 0.4306 -1.2896 -0.8558 0
M  V30 16 H 3.1048 1.8887 1.5615 0
M  V30 17 H -0.3089 3.1196 1.2909 0
M  V30 18 H -2.1739 1.9691 0.1707 0
M  V30 19 H -1.7632 -1.0563 -1.9549 0
M  V30 20 H -2.8601 0.2856 -1.5108 0
M  V30 21 H -3.6057 -1.8084 -0.6226 0
M  V30 22 H -3.1959 -0.7568 0.6512 0
M  V30 23 H -2.1485 -2.0411 0.225 0
M  V30 END ATOM
M  V30 BEGIN BOND
M  V30 1 1 1 2
M  V30 2 1 1 3
M  V30 3 2 2 4
M  V30 4 1 2 5
M  V30 5 1 4 6
M  V30 6 1 4 7
M  V30 7 2 5 8
M  V30 8 2 7 9
M  V30 9 1 8 10
M  V30 10 1 10 11
M  V30 11 1 8 9
M  V30 12 1 3 12
M  V30 13 1 3 13
M  V30 14 1 3 14
M  V30 15 1 5 15
M  V30 16 1 6 16
M  V30 17 1 7 17
M  V30 18 1 9 18
M  V30 19 1 10 19
M  V30 20 1 10 20
M  V30 21 1 11 21
M  V30 22 1 11 22
M  V30 23 1 11 23
M  V30 END BOND
M  V30 END CTAB
M  END
>  <Structure No>
2199

>  <LogS>
0.018846252

>  <MMFF94 Energy>
16.293

$$$$
Compound 2200
Actelion Java MolfileCreator 2.0

  0  0  0  0  0  0              0 V3000
M  V30 BEGIN CTAB
M  V30 COUNTS 108 116 0 0 0
M  V30 BEGIN ATOM
M  V30 1 Cl -10.753 -1.2198 6.7221 0
M  V30 2 C -10.7973 -1.1564 4.9742 0
M  V30 3 N -11.9858 -1.0125 4.3328 0
M  V30 4 N -9.6467 -1.2587 4.2615 0
M  V30 5 C -12.0271 -0.9629 2.9762 0
M  V30 6 C -9.6809 -1.2142 2.905 0
M  V30 7 N -10.8715 -1.0595 2.2697 0
M  V30 8 N -13.2824 -0.7781 2.3059 0
M  V30 9 N -8.4702 -1.3731 2.1535 0
M  V30 10 C -13.3878 -0.5326 0.8922 0
M  V30 11 C -8.4721 -1.6047 0.7084 0
M  V30 12 C -14.1681 0.5372 0.3992 0
M  V30 13 C -12.723 -1.3747 -0.0163 0
M  V30 14 C -8.6089 -0.2851 -0.0589 0
M  V30 15 S -15.0362 1.6214 1.4931 0
M  V30 16 C -14.2391 0.7622 -0.9838 0
M  V30 17 C -12.794 -1.1367 -1.3888 0
M  V30 18 N -7.4481 0.5791 0.1664 0
M  V30 19 O -16.2671 0.9352 2.0138 0
M  V30 20 O -15.4379 2.8759 0.7698 0
M  V30 21 O -14.0393 2.0458 2.7771 0 CHG=-1
M  V30 22 C -13.5447 -0.0626 -1.8778 0
M  V30 23 C -6.0958 0.2197 -0.1874 0
M  V30 24 S -13.6208 0.2714 -3.6042 0
M  V30 25 C -4.9901 0.7305 0.5451 0
M  V30 26 C -5.86 -0.6375 -1.2819 0
M  V30 27 O -15.0269 0.064 -4.0908 0
M  V30 28 O -12.6991 -0.6445 -4.3588 0
M  V30 29 O -13.1546 1.8623 -3.8829 0 CHG=-1
M  V30 30 S -5.2423 1.793 1.9449 0
M  V30 31 C -3.683 0.3687 0.1553 0
M  V30 32 C -4.5617 -0.9961 -1.6432 0
M  V30 33 O -3.9735 1.9818 2.7257 0
M  V30 34 O -6.2687 1.1836 2.8573 0
M  V30 35 O -5.7828 3.2931 1.4153 0 CHG=-1
M  V30 36 O -2.5551 0.8513 0.8289 0
M  V30 37 C -3.4772 -0.4965 -0.9281 0
M  V30 38 C -1.2608 0.472 0.4411 0
M  V30 39 N -2.1369 -0.8587 -1.2922 0
M  V30 40 C -0.1415 0.9683 1.1258 0
M  V30 41 C -1.0932 -0.4083 -0.6527 0
M  V30 42 Cl -0.3622 2.0678 2.4861 0
M  V30 43 C 1.1513 0.5877 0.7222 0
M  V30 44 C 0.1981 -0.7924 -1.0511 0
M  V30 45 N 2.1992 1.0548 1.3427 0
M  V30 46 C 1.3157 -0.2978 -0.3656 0
M  V30 47 Cl 0.4262 -1.8942 -2.4072 0
M  V30 48 C 3.5395 0.7048 0.9624 0
M  V30 49 O 2.6075 -0.6771 -0.7585 0
M  V30 50 C 3.7391 -0.1744 -0.1086 0
M  V30 51 C 4.6291 1.2297 1.6513 0
M  V30 52 C 5.0438 -0.5311 -0.5099 0
M  V30 53 C 5.9258 0.8822 1.2752 0
M  V30 54 S 5.2898 -1.6109 -1.8962 0
M  V30 55 C 6.154 -6.0E-4 0.2001 0
M  V30 56 O 6.3065 -1.0114 -2.8233 0
M  V30 57 O 4.0186 -1.8177 -2.6662 0
M  V30 58 O 5.8361 -3.1009 -1.351 0 CHG=-1
M  V30 59 N 7.5016 -0.3821 -0.147 0
M  V30 60 C 8.6758 0.4695 0.0546 0
M  V30 61 C 8.5798 1.752 -0.7822 0
M  V30 62 N 8.4529 1.4443 -2.208 0
M  V30 63 C 9.5598 1.0034 -3.0041 0
M  V30 64 N 9.4163 0.8617 -4.3457 0
M  V30 65 N 10.7591 0.7361 -2.429 0
M  V30 66 C 10.4659 0.4563 -5.1042 0
M  V30 67 C 11.8149 0.3348 -3.1819 0
M  V30 68 Cl 10.2799 0.2874 -6.8368 0
M  V30 69 N 11.6632 0.1906 -4.5227 0
M  V30 70 N 13.0759 0.029 -2.5688 0
M  V30 71 C 13.3237 0.1919 -1.1614 0
M  V30 72 C 13.9666 -0.8239 -0.4177 0
M  V30 73 C 12.9393 1.379 -0.5145 0
M  V30 74 S 14.4665 -2.3425 -1.1717 0
M  V30 75 C 14.1952 -0.6377 0.9547 0
M  V30 76 C 13.1605 1.5469 0.8532 0
M  V30 77 O 15.6622 -2.1018 -2.0483 0
M  V30 78 O 13.3381 -2.8957 -1.9954 0
M  V30 79 O 14.8722 -3.4733 0.0045 0 CHG=-1
M  V30 80 C 13.7888 0.539 1.5948 0
M  V30 81 S 14.0558 0.7348 3.3255 0
M  V30 82 O 13.8679 2.1728 3.7232 0
M  V30 83 O 15.4576 0.3165 3.6698 0
M  V30 84 O 12.9622 -0.2187 4.1712 0 CHG=-1
M  V30 85 H -14.1376 -0.6866 2.8972 0
M  V30 86 H -7.5684 -1.468 2.6738 0
M  V30 87 H -7.5301 -2.116 0.4193 0
M  V30 88 H -9.3057 -2.2876 0.4364 0
M  V30 89 H -12.157 -2.227 0.3332 0
M  V30 90 H -9.5319 0.2383 0.2742 0
M  V30 91 H -8.7357 -0.4862 -1.1435 0
M  V30 92 H -14.8283 1.5836 -1.372 0
M  V30 93 H -12.2646 -1.7915 -2.0696 0
M  V30 94 H -7.633 1.4964 0.6276 0
M  V30 95 H -6.6767 -1.0304 -1.8727 0
M  V30 96 H -4.4037 -1.6595 -2.4847 0
M  V30 97 H 4.4731 1.9072 2.4816 0
M  V30 98 H 6.7462 1.302 1.8404 0
M  V30 99 H 7.6757 -1.3134 -0.5843 0
M  V30 100 H 8.7939 0.7207 1.1296 0
M  V30 101 H 9.5906 -0.0935 -0.2324 0
M  V30 102 H 7.6977 2.3431 -0.4565 0
M  V30 103 H 9.4797 2.3825 -0.6126 0
M  V30 104 H 7.5447 1.6509 -2.6833 0
M  V30 105 H 13.8106 -0.4135 -3.1637 0
M  V30 106 H 12.4702 2.179 -1.074 0
M  V30 107 H 14.6871 -1.4091 1.5313 0
M  V30 108 H 12.8378 2.4628 1.3285 0
M  V30 END ATOM
M  V30 BEGIN BOND
M  V30 1 1 1 2
M  V30 2 2 2 3
M  V30 3 1 2 4
M  V30 4 1 3 5
M  V30 5 2 4 6
M  V30 6 2 5 7
M  V30 7 1 5 8
M  V30 8 1 6 9
M  V30 9 1 8 10
M  V30 10 1 9 11
M  V30 11 2 10 12
M  V30 12 1 10 13
M  V30 13 1 11 14
M  V30 14 1 12 15
M  V30 15 1 12 16
M  V30 16 2 13 17
M  V30 17 1 14 18
M  V30 18 2 15 19
M  V30 19 2 15 20
M  V30 20 1 15 21
M  V30 21 2 16 22
M  V30 22 1 18 23
M  V30 23 1 22 24
M  V30 24 2 23 25
M  V30 25 1 23 26
M  V30 26 2 24 27
M  V30 27 2 24 28
M  V30 28 1 24 29
M  V30 29 1 25 30
M  V30 30 1 25 31
M  V30 31 2 26 32
M  V30 32 2 30 33
M  V30 33 2 30 34
M  V30 34 1 30 35
M  V30 35 1 31 36
M  V30 36 2 31 37
M  V30 37 1 36 38
M  V30 38 1 37 39
M  V30 39 2 38 40
M  V30 40 1 38 41
M  V30 41 1 40 42
M  V30 42 1 40 43
M  V30 43 1 41 44
M  V30 44 2 43 45
M  V30 45 1 43 46
M  V30 46 1 44 47
M  V30 47 1 45 48
M  V30 48 1 46 49
M  V30 49 2 48 50
M  V30 50 1 48 51
M  V30 51 1 50 52
M  V30 52 2 51 53
M  V30 53 1 52 54
M  V30 54 2 52 55
M  V30 55 2 54 56
M  V30 56 2 54 57
M  V30 57 1 54 58
M  V30 58 1 55 59
M  V30 59 1 59 60
M  V30 60 1 60 61
M  V30 61 1 61 62
M  V30 62 1 62 63
M  V30 63 2 63 64
M  V30 64 1 63 65
M  V30 65 1 64 66
M  V30 66 2 65 67
M  V30 67 1 66 68
M  V30 68 2 66 69
M  V30 69 1 67 70
M  V30 70 1 70 71
M  V30 71 2 71 72
M  V30 72 1 71 73
M  V30 73 1 72 74
M  V30 74 1 72 75
M  V30 75 2 73 76
M  V30 76 2 74 77
M  V30 77 2 74 78
M  V30 78 1 74 79
M  V30 79 2 75 80
M  V30 80 1 80 81
M  V30 81 2 81 82
M  V30 82 2 81 83
M  V30 83 1 81 84
M  V30 84 1 6 7
M  V30 85 1 17 22
M  V30 86 1 32 37
M  V30 87 2 39 41
M  V30 88 2 44 46
M  V30 89 1 49 50
M  V30 90 1 53 55
M  V30 91 1 67 69
M  V30 92 1 76 80
M  V30 93 1 8 85
M  V30 94 1 9 86
M  V30 95 1 11 87
M  V30 96 1 11 88
M  V30 97 1 13 89
M  V30 98 1 14 90
M  V30 99 1 14 91
M  V30 100 1 16 92
M  V30 101 1 17 93
M  V30 102 1 18 94
M  V30 103 1 26 95
M  V30 104 1 32 96
M  V30 105 1 51 97
M  V30 106 1 53 98
M  V30 107 1 59 99
M  V30 108 1 60 100
M  V30 109 1 60 101
M  V30 110 1 61 102
M  V30 111 1 61 103
M  V30 112 1 62 104
M  V30 113 1 70 105
M  V30 114 1 73 106
M  V30 115 1 75 107
M  V30 116 1 76 108
M  V30 END BOND
M  V30 END CTAB
M  END
>  <Structure No>
2200

>  <LogS>
-0.879554019

>  <MMFF94 Energy>
182.63

$$$$
Compound 2201
Actelion Java MolfileCreator 2.0

  0  0  0  0  0  0              0 V3000
M  V30 BEGIN CTAB
M  V30 COUNTS 18 17 0 0 0
M  V30 BEGIN ATOM
M  V30 1 O 0.5772 2.1453 0.6597 0
M  V30 2 C 0.2814 0.9863 1.0564 0
M  V30 3 O 0.2587 0.7223 2.4212 0 CHG=-1
M  V30 4 C 0.0152 -0.1243 0.054 0
M  V30 5 O -0.5061 -1.265 0.7009 0
M  V30 6 C 1.3474 -0.5257 -0.6234 0
M  V30 7 C -0.9744 0.3483 -1.0469 0
M  V30 8 C 2.3455 -1.0777 0.353 0
M  V30 9 C -2.3067 0.7757 -0.5017 0
M  V30 10 O 3.201 -0.3203 0.8821 0
M  V30 11 O 2.306 -2.4212 0.7041 0 CHG=-1
M  V30 12 O -2.4845 1.9614 -0.1164 0
M  V30 13 O -3.3431 -0.1434 -0.3958 0 CHG=-1
M  V30 14 H -1.3076 -0.9938 1.2202 0
M  V30 15 H 1.7926 0.35 -1.1462 0
M  V30 16 H 1.154 -1.3031 -1.3947 0
M  V30 17 H -0.5341 1.1939 -1.6204 0
M  V30 18 H -1.1445 -0.4792 -1.7699 0
M  V30 END ATOM
M  V30 BEGIN BOND
M  V30 1 2 1 2
M  V30 2 1 2 3
M  V30 3 1 2 4
M  V30 4 1 4 5
M  V30 5 1 4 6
M  V30 6 1 4 7
M  V30 7 1 6 8
M  V30 8 1 7 9
M  V30 9 2 8 10
M  V30 10 1 8 11
M  V30 11 2 9 12
M  V30 12 1 9 13
M  V30 13 1 5 14
M  V30 14 1 6 15
M  V30 15 1 6 16
M  V30 16 1 7 17
M  V30 17 1 7 18
M  V30 END BOND
M  V30 END CTAB
M  END
>  <Structure No>
2201

>  <LogS>
0.862920127

>  <MMFF94 Energy>
240.18

$$$$
Compound 2202
Actelion Java MolfileCreator 2.0

  0  0  0  0  0  0              0 V3000
M  V30 BEGIN CTAB
M  V30 COUNTS 17 17 0 0 0
M  V30 BEGIN ATOM
M  V30 1 O -0.7057 -2.3541 -0.3136 0
M  V30 2 C 0.0472 -1.1801 -0.2293 0
M  V30 3 C -0.5435 0.0913 -0.0058 0
M  V30 4 C 1.4357 -1.2902 -0.3592 0
M  V30 5 C 0.3039 1.2118 0.1993 0
M  V30 6 C -2.0448 0.2462 0.0298 0
M  V30 7 C 2.2517 -0.1692 -0.2255 0
M  V30 8 O -0.1879 2.4715 0.5511 0
M  V30 9 C 1.6891 1.0717 0.0641 0
M  V30 10 H -1.693 -2.4031 -0.1005 0
M  V30 11 H 1.8854 -2.2564 -0.5502 0
M  V30 12 H -2.543 -0.473 -0.6502 0
M  V30 13 H -2.3591 1.2416 -0.3429 0
M  V30 14 H -2.4139 0.1001 1.0663 0
M  V30 15 H 3.3252 -0.267 -0.3228 0
M  V30 16 H -1.1511 2.6464 0.8045 0
M  V30 17 H 2.3348 1.9303 0.1999 0
M  V30 END ATOM
M  V30 BEGIN BOND
M  V30 1 1 1 2
M  V30 2 2 2 3
M  V30 3 1 2 4
M  V30 4 1 3 5
M  V30 5 1 3 6
M  V30 6 2 4 7
M  V30 7 1 5 8
M  V30 8 2 5 9
M  V30 9 1 7 9
M  V30 10 1 1 10
M  V30 11 1 4 11
M  V30 12 1 6 12
M  V30 13 1 6 13
M  V30 14 1 6 14
M  V30 15 1 7 15
M  V30 16 1 8 16
M  V30 17 1 9 17
M  V30 END BOND
M  V30 END CTAB
M  END
>  <Structure No>
2202

>  <LogS>
0.192772727

>  <MMFF94 Energy>
1.6214

$$$$
Compound 2203
Actelion Java MolfileCreator 2.0

  0  0  0  0  0  0              0 V3000
M  V30 BEGIN CTAB
M  V30 COUNTS 16 15 0 0 0
M  V30 BEGIN ATOM
M  V30 1 O -0.7612 0.6851 1.6754 0
M  V30 2 C -0.3093 0.2547 0.4131 0
M  V30 3 C 0.9981 -0.5051 0.5803 0
M  V30 4 C -1.3856 -0.6393 -0.235 0
M  V30 5 C -0.0837 1.5053 -0.4503 0
M  V30 6 C 1.6697 -1.0406 -0.4468 0
M  V30 7 H -0.9312 -0.1202 2.2326 0
M  V30 8 H 1.4127 -0.621 1.5782 0
M  V30 9 H -1.5178 -1.5742 0.3513 0
M  V30 10 H -1.108 -0.913 -1.2751 0
M  V30 11 H -2.3597 -0.1053 -0.2635 0
M  V30 12 H -1.0205 2.0999 -0.5162 0
M  V30 13 H 0.2286 1.2333 -1.481 0
M  V30 14 H 0.703 2.1474 0.0014 0
M  V30 15 H 2.5987 -1.5719 -0.2676 0
M  V30 16 H 1.3073 -0.9565 -1.4659 0
M  V30 END ATOM
M  V30 BEGIN BOND
M  V30 1 1 1 2
M  V30 2 1 2 3
M  V30 3 1 2 4
M  V30 4 1 2 5
M  V30 5 2 3 6
M  V30 6 1 1 7
M  V30 7 1 3 8
M  V30 8 1 4 9
M  V30 9 1 4 10
M  V30 10 1 4 11
M  V30 11 1 5 12
M  V30 12 1 5 13
M  V30 13 1 5 14
M  V30 14 1 6 15
M  V30 15 1 6 16
M  V30 END BOND
M  V30 END CTAB
M  END
>  <Structure No>
2203

>  <LogS>
0.351057238

>  <MMFF94 Energy>
5.7929

$$$$
Compound 2204
Actelion Java MolfileCreator 2.0

  0  0  0  0  0  0              0 V3000
M  V30 BEGIN CTAB
M  V30 COUNTS 18 17 0 0 0
M  V30 BEGIN ATOM
M  V30 1 O 3.6089 -1.1217 0.721 0
M  V30 2 C 3.1263 -0.1622 0.0636 0
M  V30 3 O 3.8019 0.3168 -1.0516 0 CHG=-1
M  V30 4 C 1.8055 0.4254 0.4488 0
M  V30 5 C 0.6647 -0.3032 -0.2675 0
M  V30 6 C -0.6951 0.2928 0.1153 0
M  V30 7 C -1.8359 -0.4358 -0.6009 0
M  V30 8 C -3.1561 0.1576 -0.2226 0
M  V30 9 O -3.7854 -0.281 0.776 0
M  V30 10 O -3.6691 1.2287 -0.9433 0 CHG=-1
M  V30 11 H 1.6733 0.3457 1.5501 0
M  V30 12 H 1.7954 1.5029 0.1751 0
M  V30 13 H 0.8074 -0.218 -1.3678 0
M  V30 14 H 0.6855 -1.3808 0.0095 0
M  V30 15 H -0.8379 0.2075 1.2157 0
M  V30 16 H -0.7159 1.3705 -0.1615 0
M  V30 17 H -1.8253 -1.5144 -0.3302 0
M  V30 18 H -1.7041 -0.3528 -1.7015 0
M  V30 END ATOM
M  V30 BEGIN BOND
M  V30 1 2 1 2
M  V30 2 1 2 3
M  V30 3 1 2 4
M  V30 4 1 4 5
M  V30 5 1 5 6
M  V30 6 1 6 7
M  V30 7 1 7 8
M  V30 8 2 8 9
M  V30 9 1 8 10
M  V30 10 1 4 11
M  V30 11 1 4 12
M  V30 12 1 5 13
M  V30 13 1 5 14
M  V30 14 1 6 15
M  V30 15 1 6 16
M  V30 16 1 7 17
M  V30 17 1 7 18
M  V30 END BOND
M  V30 END CTAB
M  END
>  <Structure No>
2204

>  <LogS>
0.084622153

>  <MMFF94 Energy>
48.013

$$$$
Compound 2205
Actelion Java MolfileCreator 2.0

  0  0  0  0  0  0              0 V3000
M  V30 BEGIN CTAB
M  V30 COUNTS 30 29 0 0 0
M  V30 BEGIN ATOM
M  V30 1 O 4.8522 0.6353 -0.7147 0
M  V30 2 C 4.3562 0.2666 0.3823 0
M  V30 3 O 5.0174 -0.6817 1.1522 0 CHG=-1
M  V30 4 C 3.0445 0.8245 0.8436 0
M  V30 5 C 1.9008 -0.1815 0.6586 0
M  V30 6 C 1.5484 -0.3934 -0.8236 0
M  V30 7 C 0.4932 -1.494 -1.0378 0
M  V30 8 C -0.8757 -1.2154 -0.3908 0
M  V30 9 C -1.5425 0.0619 -0.9296 0
M  V30 10 C -3.0208 0.1806 -0.5164 0
M  V30 11 C -3.2398 0.3537 0.9953 0
M  V30 12 C -2.6176 1.6142 1.5126 0
M  V30 13 O -3.1747 2.7251 1.3102 0
M  V30 14 O -1.4054 1.5656 2.1894 0 CHG=-1
M  V30 15 H 3.1312 1.0746 1.9228 0
M  V30 16 H 2.8146 1.7673 0.3003 0
M  V30 17 H 2.1736 -1.1513 1.13 0
M  V30 18 H 1.0134 0.2202 1.1914 0
M  V30 19 H 2.463 -0.7007 -1.3748 0
M  V30 20 H 1.205 0.5621 -1.2733 0
M  V30 21 H 0.3503 -1.6381 -2.1309 0
M  V30 22 H 0.8868 -2.4525 -0.6348 0
M  V30 23 H -1.5333 -2.0855 -0.6073 0
M  V30 24 H -0.7638 -1.1576 0.7111 0
M  V30 25 H -0.9876 0.9589 -0.5829 0
M  V30 26 H -1.4998 0.0507 -2.0407 0
M  V30 27 H -3.5701 -0.7238 -0.8575 0
M  V30 28 H -3.4689 1.0498 -1.046 0
M  V30 29 H -4.3326 0.3898 1.1943 0
M  V30 30 H -2.8403 -0.5206 1.5501 0
M  V30 END ATOM
M  V30 BEGIN BOND
M  V30 1 2 1 2
M  V30 2 1 2 3
M  V30 3 1 2 4
M  V30 4 1 4 5
M  V30 5 1 5 6
M  V30 6 1 6 7
M  V30 7 1 7 8
M  V30 8 1 8 9
M  V30 9 1 9 10
M  V30 10 1 10 11
M  V30 11 1 11 12
M  V30 12 2 12 13
M  V30 13 1 12 14
M  V30 14 1 4 15
M  V30 15 1 4 16
M  V30 16 1 5 17
M  V30 17 1 5 18
M  V30 18 1 6 19
M  V30 19 1 6 20
M  V30 20 1 7 21
M  V30 21 1 7 22
M  V30 22 1 8 23
M  V30 23 1 8 24
M  V30 24 1 9 25
M  V30 25 1 9 26
M  V30 26 1 10 27
M  V30 27 1 10 28
M  V30 28 1 11 29
M  V30 29 1 11 30
M  V30 END BOND
M  V30 END CTAB
M  END
>  <Structure No>
2205

>  <LogS>
-0.047347893

>  <MMFF94 Energy>
34.233

$$$$
Compound 2206
Actelion Java MolfileCreator 2.0

  0  0  0  0  0  0              0 V3000
M  V30 BEGIN CTAB
M  V30 COUNTS 27 26 0 0 0
M  V30 BEGIN ATOM
M  V30 1 O -3.4228 2.3871 -0.7952 0
M  V30 2 C -3.0869 1.5309 -1.655 0
M  V30 3 O -2.8911 1.9203 -2.9739 0 CHG=-1
M  V30 4 C -2.8468 0.1111 -1.2498 0
M  V30 5 C -1.3824 -0.0918 -0.8507 0
M  V30 6 C -1.1261 -1.5417 -0.4176 0
M  V30 7 C 0.3633 -1.8409 -0.1777 0
M  V30 8 C 0.9598 -1.0848 1.0283 0
M  V30 9 C 1.8062 0.1221 0.5963 0
M  V30 10 C 2.3388 0.8839 1.8133 0
M  V30 11 C 3.1729 2.0474 1.3795 0
M  V30 12 O 2.6374 3.1675 1.1693 0
M  V30 13 O 4.5343 1.8831 1.1587 0 CHG=-1
M  V30 14 H -3.5108 -0.1462 -0.3955 0
M  V30 15 H -3.1024 -0.5555 -2.1015 0
M  V30 16 H -0.7282 0.1591 -1.7148 0
M  V30 17 H -1.1443 0.5921 -0.0077 0
M  V30 18 H -1.4867 -2.2268 -1.216 0
M  V30 19 H -1.7061 -1.7668 0.5042 0
M  V30 20 H 0.4521 -2.9318 0.0196 0
M  V30 21 H 0.9431 -1.643 -1.1062 0
M  V30 22 H 0.1555 -0.7585 1.7241 0
M  V30 23 H 1.6158 -1.7824 1.5944 0
M  V30 24 H 1.1984 0.811 -0.0273 0
M  V30 25 H 2.6635 -0.2351 -0.0161 0
M  V30 26 H 2.9591 0.2074 2.4403 0
M  V30 27 H 1.4899 1.2496 2.4318 0
M  V30 END ATOM
M  V30 BEGIN BOND
M  V30 1 2 1 2
M  V30 2 1 2 3
M  V30 3 1 2 4
M  V30 4 1 4 5
M  V30 5 1 5 6
M  V30 6 1 6 7
M  V30 7 1 7 8
M  V30 8 1 8 9
M  V30 9 1 9 10
M  V30 10 1 10 11
M  V30 11 2 11 12
M  V30 12 1 11 13
M  V30 13 1 4 14
M  V30 14 1 4 15
M  V30 15 1 5 16
M  V30 16 1 5 17
M  V30 17 1 6 18
M  V30 18 1 6 19
M  V30 19 1 7 20
M  V30 20 1 7 21
M  V30 21 1 8 22
M  V30 22 1 8 23
M  V30 23 1 9 24
M  V30 24 1 9 25
M  V30 25 1 10 26
M  V30 26 1 10 27
M  V30 END BOND
M  V30 END CTAB
M  END
>  <Structure No>
2206

>  <LogS>
-0.017921985

>  <MMFF94 Energy>
40.179

$$$$
Compound 2207
Actelion Java MolfileCreator 2.0

  0  0  0  0  0  0              0 V3000
M  V30 BEGIN CTAB
M  V30 COUNTS 51 54 0 0 0
M  V30 BEGIN ATOM
M  V30 1 S -2.8513 2.3477 2.1799 0
M  V30 2 O -3.0964 3.8125 1.9501 0
M  V30 3 O -1.379 2.103 2.3475 0
M  V30 4 O -3.647 1.9001 3.5906 0 CHG=-1
M  V30 5 C -3.4683 1.3802 0.833 0
M  V30 6 C -3.6354 1.9034 -0.4679 0
M  V30 7 C -3.839 0.0591 1.095 0
M  V30 8 N -3.234 3.2438 -0.7923 0
M  V30 9 C -4.2474 1.1301 -1.4705 0
M  V30 10 C -4.4095 -0.7396 0.0979 0
M  V30 11 N -2.0257 3.6617 -0.8397 0
M  V30 12 O -4.4357 1.7337 -2.7197 0
M  V30 13 C -4.6311 -0.2095 -1.1993 0
M  V30 14 C -4.7722 -2.064 0.392 0
M  V30 15 C -0.8446 2.8571 -0.6804 0
M  V30 16 C -5.2185 -1.0441 -2.175 0
M  V30 17 C -5.3529 -2.8753 -0.5878 0
M  V30 18 C 0.2449 3.394 0.0161 0
M  V30 19 C -0.7188 1.5914 -1.2795 0
M  V30 20 C -5.5735 -2.3599 -1.868 0
M  V30 21 N -5.7193 -4.2237 -0.282 0
M  V30 22 C 1.4191 2.6526 0.1772 0
M  V30 23 C 0.4546 0.8492 -1.1189 0
M  V30 24 C 1.5267 1.3682 -0.3846 0
M  V30 25 N 2.7131 0.5794 -0.2373 0
M  V30 26 N 3.7242 0.9918 0.4164 0
M  V30 27 C 4.9105 0.2026 0.564 0
M  V30 28 C 5.0213 -1.0784 -0.0064 0
M  V30 29 C 5.9834 0.7222 1.2983 0
M  V30 30 C 6.1938 -1.8224 0.1575 0
M  V30 31 C 7.1554 -0.0224 1.4617 0
M  V30 32 C 7.2679 -1.2953 0.887 0
M  V30 33 S 8.7384 -2.2382 1.1042 0
M  V30 34 O 9.9202 -1.3185 1.2329 0
M  V30 35 O 8.9508 -3.1336 -0.0839 0
M  V30 36 O 8.6027 -3.1731 2.4928 0 CHG=-1
M  V30 37 H -3.6915 -0.3461 2.0896 0
M  V30 38 H -4.8726 1.2923 -3.5148 0
M  V30 39 H -4.6046 -2.4679 1.3841 0
M  V30 40 H -5.4111 -0.7111 -3.1816 0
M  V30 41 H 0.174 4.3821 0.4535 0
M  V30 42 H -1.5095 1.1859 -1.8936 0
M  V30 43 H -6.0218 -2.9812 -2.6336 0
M  V30 44 H -6.1537 -4.8372 -1.0068 0
M  V30 45 H -5.5588 -4.6186 0.6715 0
M  V30 46 H 2.2392 3.0828 0.7375 0
M  V30 47 H 0.5341 -0.1284 -1.5775 0
M  V30 48 H 4.2045 -1.5039 -0.5752 0
M  V30 49 H 5.9089 1.7057 1.7456 0
M  V30 50 H 6.2618 -2.8091 -0.2823 0
M  V30 51 H 7.9723 0.3935 2.0377 0
M  V30 END ATOM
M  V30 BEGIN BOND
M  V30 1 2 1 2
M  V30 2 2 1 3
M  V30 3 1 1 4
M  V30 4 1 1 5
M  V30 5 1 5 6
M  V30 6 2 5 7
M  V30 7 1 6 8
M  V30 8 2 6 9
M  V30 9 1 7 10
M  V30 10 2 8 11
M  V30 11 1 9 12
M  V30 12 1 9 13
M  V30 13 2 10 14
M  V30 14 1 11 15
M  V30 15 2 13 16
M  V30 16 1 14 17
M  V30 17 2 15 18
M  V30 18 1 15 19
M  V30 19 1 16 20
M  V30 20 1 17 21
M  V30 21 1 18 22
M  V30 22 2 19 23
M  V30 23 2 22 24
M  V30 24 1 24 25
M  V30 25 2 25 26
M  V30 26 1 26 27
M  V30 27 2 27 28
M  V30 28 1 27 29
M  V30 29 1 28 30
M  V30 30 2 29 31
M  V30 31 2 30 32
M  V30 32 1 32 33
M  V30 33 2 33 34
M  V30 34 2 33 35
M  V30 35 1 33 36
M  V30 36 1 10 13
M  V30 37 2 17 20
M  V30 38 1 23 24
M  V30 39 1 31 32
M  V30 40 1 7 37
M  V30 41 1 12 38
M  V30 42 1 14 39
M  V30 43 1 16 40
M  V30 44 1 18 41
M  V30 45 1 19 42
M  V30 46 1 20 43
M  V30 47 1 21 44
M  V30 48 1 21 45
M  V30 49 1 22 46
M  V30 50 1 23 47
M  V30 51 1 28 48
M  V30 52 1 29 49
M  V30 53 1 30 50
M  V30 54 1 31 51
M  V30 END BOND
M  V30 END CTAB
M  END
>  <Structure No>
2207

>  <LogS>
-0.635904616

>  <MMFF94 Energy>
145.12

$$$$
Compound 2208
Actelion Java MolfileCreator 2.0

  0  0  0  0  0  0              0 V3000
M  V30 BEGIN CTAB
M  V30 COUNTS 56 59 0 0 0
M  V30 BEGIN ATOM
M  V30 1 Cl -9.0981 2.4204 1.469 0
M  V30 2 C -9.3571 0.7375 1.0605 0
M  V30 3 N -10.5428 0.1445 1.3468 0
M  V30 4 N -8.3736 0.0284 0.4529 0
M  V30 5 C -10.7444 -1.1573 1.0246 0
M  V30 6 C -8.5683 -1.2798 0.1373 0
M  V30 7 Cl -12.275 -1.9224 1.3894 0
M  V30 8 N -9.7611 -1.8658 0.416 0
M  V30 9 N -7.5521 -2.0326 -0.5385 0
M  V30 10 C -6.1742 -1.6324 -0.6255 0
M  V30 11 C -5.5295 -0.9911 0.4466 0
M  V30 12 C -5.4372 -1.955 -1.7719 0
M  V30 13 C -4.171 -0.6481 0.3604 0
M  V30 14 C -4.0856 -1.6168 -1.8659 0
M  V30 15 C -3.4435 -0.9599 -0.8037 0
M  V30 16 C -3.5044 0.0111 1.5058 0
M  V30 17 C -2.0086 -0.6157 -0.8737 0
M  V30 18 C -2.2196 0.3986 1.4566 0
M  V30 19 O -1.3051 -1.0657 -1.8175 0
M  V30 20 C -1.4106 0.185 0.2287 0
M  V30 21 S -1.4858 1.1839 2.8616 0
M  V30 22 N -0.2039 0.6804 0.1884 0
M  V30 23 O -0.3597 0.3328 3.3746 0
M  V30 24 O -2.4966 1.3711 3.9588 0
M  V30 25 O -0.8923 2.6898 2.4124 0 CHG=-1
M  V30 26 N 0.6545 0.6775 -0.925 0
M  V30 27 C 2.0616 0.9141 -0.764 0
M  V30 28 C 2.8864 0.997 -1.8961 0
M  V30 29 C 2.6345 1.0517 0.5124 0
M  V30 30 C 4.2597 1.2203 -1.7568 0
M  V30 31 C 4.0075 1.2777 0.6492 0
M  V30 32 C 4.8255 1.3663 -0.4844 0
M  V30 33 S 6.5587 1.6227 -0.3222 0
M  V30 34 O 6.9993 2.6797 -1.2936 0
M  V30 35 O 6.8807 2.0812 1.0726 0
M  V30 36 C 7.4072 0.0891 -0.6644 0
M  V30 37 C 8.9053 0.2208 -0.4093 0
M  V30 38 O 9.5342 -0.9904 -0.7493 0
M  V30 39 S 11.1628 -0.8928 -0.2953 0
M  V30 40 O 11.2797 -0.9489 1.2025 0
M  V30 41 O 11.9004 -2.0587 -0.8875 0
M  V30 42 O 11.8545 0.531 -0.8636 0 CHG=-1
M  V30 43 H -7.8497 -2.8922 -1.0518 0
M  V30 44 H -6.0735 -0.7858 1.3601 0
M  V30 45 H -5.9156 -2.4649 -2.5982 0
M  V30 46 H -3.543 -1.8718 -2.7675 0
M  V30 47 H -4.0832 0.1845 2.4045 0
M  V30 48 H 0.2645 0.6635 -1.8929 0
M  V30 49 H 2.4653 0.8843 -2.8875 0
M  V30 50 H 2.0246 0.9863 1.4039 0
M  V30 51 H 4.8823 1.2756 -2.6406 0
M  V30 52 H 4.4297 1.3789 1.6402 0
M  V30 53 H 7.2303 -0.1873 -1.7254 0
M  V30 54 H 6.987 -0.708 -0.0141 0
M  V30 55 H 9.3039 1.0468 -1.0387 0
M  V30 56 H 9.0585 0.4591 0.6674 0
M  V30 END ATOM
M  V30 BEGIN BOND
M  V30 1 1 1 2
M  V30 2 2 2 3
M  V30 3 1 2 4
M  V30 4 1 3 5
M  V30 5 2 4 6
M  V30 6 1 5 7
M  V30 7 2 5 8
M  V30 8 1 6 9
M  V30 9 1 9 10
M  V30 10 2 10 11
M  V30 11 1 10 12
M  V30 12 1 11 13
M  V30 13 2 12 14
M  V30 14 2 13 15
M  V30 15 1 13 16
M  V30 16 1 15 17
M  V30 17 2 16 18
M  V30 18 2 17 19
M  V30 19 1 17 20
M  V30 20 1 18 21
M  V30 21 2 20 22
M  V30 22 2 21 23
M  V30 23 2 21 24
M  V30 24 1 21 25
M  V30 25 1 22 26
M  V30 26 1 26 27
M  V30 27 2 27 28
M  V30 28 1 27 29
M  V30 29 1 28 30
M  V30 30 2 29 31
M  V30 31 2 30 32
M  V30 32 1 32 33
M  V30 33 2 33 34
M  V30 34 2 33 35
M  V30 35 1 33 36
M  V30 36 1 36 37
M  V30 37 1 37 38
M  V30 38 1 38 39
M  V30 39 2 39 40
M  V30 40 2 39 41
M  V30 41 1 39 42
M  V30 42 1 6 8
M  V30 43 1 14 15
M  V30 44 1 18 20
M  V30 45 1 31 32
M  V30 46 1 9 43
M  V30 47 1 11 44
M  V30 48 1 12 45
M  V30 49 1 14 46
M  V30 50 1 16 47
M  V30 51 1 26 48
M  V30 52 1 28 49
M  V30 53 1 29 50
M  V30 54 1 30 51
M  V30 55 1 31 52
M  V30 56 1 36 53
M  V30 57 1 36 54
M  V30 58 1 37 55
M  V30 59 1 37 56
M  V30 END BOND
M  V30 END CTAB
M  END
>  <Structure No>
2208

>  <LogS>
-1.578382357

>  <MMFF94 Energy>
-99.797

$$$$
Compound 2209
Actelion Java MolfileCreator 2.0

  0  0  0  0  0  0              0 V3000
M  V30 BEGIN CTAB
M  V30 COUNTS 100 104 0 0 0
M  V30 BEGIN ATOM
M  V30 1 S 6.8166 -2.0012 2.7224 0
M  V30 2 O 7.4983 -0.8205 3.3556 0
M  V30 3 O 7.7412 -2.6435 1.728 0
M  V30 4 O 6.4509 -3.1217 3.9207 0 CHG=-1
M  V30 5 C 5.3472 -1.4618 1.8984 0
M  V30 6 C 5.4232 -0.5546 0.8266 0
M  V30 7 C 4.1049 -1.9283 2.3325 0
M  V30 8 N 6.7221 -0.075 0.4374 0
M  V30 9 C 4.2404 -0.1448 0.1575 0
M  V30 10 C 2.9259 -1.5212 1.6996 0
M  V30 11 N 6.8988 0.9484 -0.2974 0
M  V30 12 O 4.3601 0.7272 -0.9312 0
M  V30 13 C 2.9777 -0.6341 0.5938 0
M  V30 14 C 1.6927 -2.0114 2.1563 0
M  V30 15 C 8.2073 1.3982 -0.6621 0
M  V30 16 C 1.7645 -0.2903 -0.0446 0
M  V30 17 C 0.4962 -1.6433 1.5302 0
M  V30 18 C 8.3334 2.6093 -1.3726 0
M  V30 19 C 9.3724 0.658 -0.3047 0
M  V30 20 C 0.5459 -0.7987 0.4108 0
M  V30 21 N -0.741 -2.2116 1.9987 0
M  V30 22 C 9.6166 3.042 -1.6961 0
M  V30 23 C 10.6523 1.1264 -0.6548 0
M  V30 24 C -2.0349 -1.6086 1.8543 0
M  V30 25 N 9.9801 4.1701 -2.3298 0
M  V30 26 C 10.7308 2.329 -1.3523 0
M  V30 27 N -2.1643 -0.2904 1.5556 0
M  V30 28 N -3.1463 -2.3604 2.0521 0
M  V30 29 C 11.3326 4.1008 -2.3477 0
M  V30 30 N 11.8298 2.984 -1.7619 0
M  V30 31 C -3.3942 0.2715 1.4299 0
M  V30 32 C -4.3829 -1.8117 1.9295 0
M  V30 33 O 12.0603 4.9949 -2.8565 0
M  V30 34 N -4.504 -0.4909 1.6231 0 CHG=1
M  V30 35 N -3.5244 1.6522 1.0657 0
M  V30 36 N -5.5563 -2.6189 2.1084 0
M  V30 37 C -2.3568 2.4727 0.7401 0
M  V30 38 C -5.5005 -4.0547 2.3856 0
M  V30 39 C -2.7876 3.8402 0.1984 0
M  V30 40 C -5.0513 -4.85 1.1521 0
M  V30 41 C -1.5634 4.6953 -0.1897 0
M  V30 42 C -6.0002 -4.6329 -0.0541 0
M  V30 43 N -1.9543 5.9759 -0.8343 0 CHG=1
M  V30 44 N -5.8004 -5.5656 -1.2032 0 CHG=1
M  V30 45 C -2.5748 6.9152 0.1516 0
M  V30 46 C -0.7671 6.5876 -1.4856 0
M  V30 47 C -4.3727 -5.8915 -1.4603 0
M  V30 48 C -6.7088 -6.7445 -1.1612 0
M  V30 49 C -4.0199 7.2558 -0.2183 0
M  V30 50 C -1.1538 7.6938 -2.4765 0
M  V30 51 C -4.1431 -6.5738 -2.815 0
M  V30 52 C -6.4857 -7.6972 0.0178 0
M  V30 53 H 4.0547 -2.6174 3.1663 0
M  V30 54 H 3.5902 1.1089 -1.46 0
M  V30 55 H 1.6571 -2.6878 3.0039 0
M  V30 56 H 1.7243 0.351 -0.9102 0
M  V30 57 H 7.4613 3.1904 -1.6494 0
M  V30 58 H 9.2885 -0.2724 0.2448 0
M  V30 59 H -0.3504 -0.5533 -0.1432 0
M  V30 60 H -0.6964 -3.1203 2.5132 0
M  V30 61 H 11.5431 0.5743 -0.3853 0
M  V30 62 H 9.3639 4.9263 -2.7063 0
M  V30 63 H 12.8305 2.71 -1.6406 0
M  V30 64 H -5.4519 -0.0637 1.5254 0
M  V30 65 H -4.4865 2.0535 0.9738 0
M  V30 66 H -6.493 -2.1587 2.0718 0
M  V30 67 H -1.7483 1.9469 -0.028 0
M  V30 68 H -1.7384 2.6103 1.6545 0
M  V30 69 H -4.8026 -4.2446 3.2302 0
M  V30 70 H -6.5067 -4.4073 2.6999 0
M  V30 71 H -3.4293 3.6834 -0.6968 0
M  V30 72 H -3.3917 4.3551 0.9751 0
M  V30 73 H -5.0066 -5.9176 1.4378 0
M  V30 74 H -4.0206 -4.5401 0.8821 0
M  V30 75 H -0.9506 4.0851 -0.8913 0
M  V30 76 H -0.9355 4.8893 0.7088 0
M  V30 77 H -7.057 -4.6741 0.2959 0
M  V30 78 H -5.8425 -3.5881 -0.4081 0
M  V30 79 H -2.633 5.7372 -1.5972 0
M  V30 80 H -6.1209 -5.0231 -2.042 0
M  V30 81 H -2.0134 7.8724 0.2362 0
M  V30 82 H -2.5761 6.5018 1.185 0
M  V30 83 H -0.2054 5.8252 -2.0699 0
M  V30 84 H -0.0645 6.9966 -0.7253 0
M  V30 85 H -3.9511 -6.5368 -0.6619 0
M  V30 86 H -3.7803 -4.9484 -1.4712 0
M  V30 87 H -7.7658 -6.3969 -1.1208 0
M  V30 88 H -6.637 -7.3237 -2.1071 0
M  V30 89 H -4.6354 6.3326 -0.2703 0
M  V30 90 H -4.0514 7.7732 -1.2003 0
M  V30 91 H -4.4532 7.9281 0.5522 0
M  V30 92 H -0.2366 8.0939 -2.9603 0
M  V30 93 H -1.6673 8.5314 -1.9623 0
M  V30 94 H -1.822 7.2873 -3.2657 0
M  V30 95 H -4.657 -6.0179 -3.6282 0
M  V30 96 H -4.4994 -7.6243 -2.7922 0
M  V30 97 H -3.0544 -6.5954 -3.0369 0
M  V30 98 H -5.4372 -8.0502 0.0734 0
M  V30 99 H -7.1335 -8.5905 -0.1144 0
M  V30 100 H -6.7869 -7.2165 0.9706 0
M  V30 END ATOM
M  V30 BEGIN BOND
M  V30 1 2 1 2
M  V30 2 2 1 3
M  V30 3 1 1 4
M  V30 4 1 1 5
M  V30 5 1 5 6
M  V30 6 2 5 7
M  V30 7 1 6 8
M  V30 8 2 6 9
M  V30 9 1 7 10
M  V30 10 2 8 11
M  V30 11 1 9 12
M  V30 12 1 9 13
M  V30 13 2 10 14
M  V30 14 1 11 15
M  V30 15 2 13 16
M  V30 16 1 14 17
M  V30 17 2 15 18
M  V30 18 1 15 19
M  V30 19 1 16 20
M  V30 20 1 17 21
M  V30 21 1 18 22
M  V30 22 2 19 23
M  V30 23 1 21 24
M  V30 24 1 22 25
M  V30 25 2 22 26
M  V30 26 2 24 27
M  V30 27 1 24 28
M  V30 28 1 25 29
M  V30 29 1 26 30
M  V30 30 1 27 31
M  V30 31 2 28 32
M  V30 32 2 29 33
M  V30 33 2 31 34
M  V30 34 1 31 35
M  V30 35 1 32 36
M  V30 36 1 35 37
M  V30 37 1 36 38
M  V30 38 1 37 39
M  V30 39 1 38 40
M  V30 40 1 39 41
M  V30 41 1 40 42
M  V30 42 1 41 43
M  V30 43 1 42 44
M  V30 44 1 43 45
M  V30 45 1 43 46
M  V30 46 1 44 47
M  V30 47 1 44 48
M  V30 48 1 45 49
M  V30 49 1 46 50
M  V30 50 1 47 51
M  V30 51 1 48 52
M  V30 52 1 10 13
M  V30 53 2 17 20
M  V30 54 1 23 26
M  V30 55 1 29 30
M  V30 56 1 32 34
M  V30 57 1 7 53
M  V30 58 1 12 54
M  V30 59 1 14 55
M  V30 60 1 16 56
M  V30 61 1 18 57
M  V30 62 1 19 58
M  V30 63 1 20 59
M  V30 64 1 21 60
M  V30 65 1 23 61
M  V30 66 1 25 62
M  V30 67 1 30 63
M  V30 68 1 34 64
M  V30 69 1 35 65
M  V30 70 1 36 66
M  V30 71 1 37 67
M  V30 72 1 37 68
M  V30 73 1 38 69
M  V30 74 1 38 70
M  V30 75 1 39 71
M  V30 76 1 39 72
M  V30 77 1 40 73
M  V30 78 1 40 74
M  V30 79 1 41 75
M  V30 80 1 41 76
M  V30 81 1 42 77
M  V30 82 1 42 78
M  V30 83 1 43 79
M  V30 84 1 44 80
M  V30 85 1 45 81
M  V30 86 1 45 82
M  V30 87 1 46 83
M  V30 88 1 46 84
M  V30 89 1 47 85
M  V30 90 1 47 86
M  V30 91 1 48 87
M  V30 92 1 48 88
M  V30 93 1 49 89
M  V30 94 1 49 90
M  V30 95 1 49 91
M  V30 96 1 50 92
M  V30 97 1 50 93
M  V30 98 1 50 94
M  V30 99 1 51 95
M  V30 100 1 51 96
M  V30 101 1 51 97
M  V30 102 1 52 98
M  V30 103 1 52 99
M  V30 104 1 52 100
M  V30 END BOND
M  V30 END CTAB
M  END
>  <Structure No>
2209

>  <LogS>
-0.64043406

>  <MMFF94 Energy>
-182.62

$$$$
Compound 2210
Actelion Java MolfileCreator 2.0

  0  0  0  0  0  0              0 V3000
M  V30 BEGIN CTAB
M  V30 COUNTS 5 4 0 0 0
M  V30 BEGIN ATOM
M  V30 1 S 0.0 0.0 0.0 0
M  V30 2 O -0.4053 -0.9522 -1.0887 0
M  V30 3 O -0.1131 -0.6851 1.3321 0
M  V30 4 O 1.588 0.488 -0.2454 0 CHG=-1
M  V30 5 O -1.0087 1.3426 -0.0262 0 CHG=-1
M  V30 END ATOM
M  V30 BEGIN BOND
M  V30 1 2 1 2
M  V30 2 2 1 3
M  V30 3 1 1 4
M  V30 4 1 1 5
M  V30 END BOND
M  V30 END CTAB
M  END
>  <Structure No>
2210

>  <LogS>
-0.057823856

>  <MMFF94 Energy>
27.585

$$$$
Compound 2211
Actelion Java MolfileCreator 2.0

  0  0  0  0  0  0              0 V3000
M  V30 BEGIN CTAB
M  V30 COUNTS 66 69 0 0 0
M  V30 BEGIN ATOM
M  V30 1 Cl -9.9954 3.0799 0.1619 0
M  V30 2 C -8.3109 2.9381 0.6373 0
M  V30 3 C -7.4406 2.0993 -0.0752 0
M  V30 4 C -7.8445 3.6778 1.7277 0
M  V30 5 O -7.9427 1.3928 -1.1779 0
M  V30 6 C -6.0907 2.0144 0.3173 0
M  V30 7 C -6.5004 3.6094 2.1056 0
M  V30 8 C -7.2852 0.3038 -1.8188 0
M  V30 9 C -5.6061 2.7955 1.3827 0
M  V30 10 Cl -5.9476 4.6137 3.4392 0
M  V30 11 N -4.2012 2.8055 1.6969 0
M  V30 12 C -3.1681 2.689 0.6993 0
M  V30 13 C -3.1576 3.5422 -0.4273 0
M  V30 14 C -2.0978 1.7852 0.8843 0
M  V30 15 C -4.1766 4.543 -0.6319 0
M  V30 16 C -2.1085 3.4559 -1.349 0
M  V30 17 C -1.0493 1.7648 -0.0644 0
M  V30 18 C -2.0459 0.8972 1.9747 0
M  V30 19 N -4.9953 5.3458 -0.7963 0
M  V30 20 N -1.0899 2.5861 -1.1455 0
M  V30 21 C 0.0443 0.9176 0.1114 0
M  V30 22 C -0.9413 0.0405 2.1502 0
M  V30 23 C 0.1171 0.069 1.23 0
M  V30 24 O -0.8517 -0.8482 3.2352 0
M  V30 25 O 1.2321 -0.7513 1.4693 0
M  V30 26 C -1.8379 -0.9853 4.2553 0
M  V30 27 C 2.4082 -0.7613 0.6635 0
M  V30 28 C 3.4593 -1.6709 1.3011 0
M  V30 29 C 4.7473 -1.6916 0.4729 0
M  V30 30 N 4.494 -2.3377 -0.8374 0
M  V30 31 C 5.04 -1.5698 -1.9711 0
M  V30 32 C 4.8835 -3.7692 -0.8814 0
M  V30 33 C 6.5819 -1.6231 -2.024 0
M  V30 34 C 6.2266 -4.0106 -1.6059 0
M  V30 35 N 7.1402 -2.865 -1.4291 0 CHG=1
M  V30 36 C 8.4538 -3.1679 -2.0202 0
M  V30 37 H -8.5236 4.3197 2.2699 0
M  V30 38 H -5.4028 1.3755 -0.2162 0
M  V30 39 H -7.2066 -0.5483 -1.1129 0
M  V30 40 H -7.8931 -0.008 -2.6937 0
M  V30 41 H -6.277 0.6008 -2.1719 0
M  V30 42 H -3.9042 2.9489 2.6855 0
M  V30 43 H -2.0848 4.1017 -2.2185 0
M  V30 44 H -2.8609 0.8672 2.6827 0
M  V30 45 H 0.8416 0.9387 -0.6188 0
M  V30 46 H -2.8045 -1.3027 3.8113 0
M  V30 47 H -1.9646 -0.0242 4.7964 0
M  V30 48 H -1.5063 -1.7605 4.9751 0
M  V30 49 H 2.1544 -1.129 -0.3539 0
M  V30 50 H 2.8184 0.2698 0.5935 0
M  V30 51 H 3.6966 -1.2909 2.322 0
M  V30 52 H 3.0557 -2.7044 1.3973 0
M  V30 53 H 5.5365 -2.2238 1.0504 0
M  V30 54 H 5.1084 -0.642 0.3587 0
M  V30 55 H 4.696 -0.5116 -1.9293 0
M  V30 56 H 4.628 -1.995 -2.9128 0
M  V30 57 H 4.0909 -4.3337 -1.4156 0
M  V30 58 H 4.9334 -4.2035 0.1427 0
M  V30 59 H 6.8833 -1.5101 -3.0902 0
M  V30 60 H 6.9883 -0.7417 -1.4788 0
M  V30 61 H 6.6859 -4.9435 -1.2137 0
M  V30 62 H 6.0286 -4.1709 -2.6899 0
M  V30 63 H 7.2945 -2.7128 -0.4036 0
M  V30 64 H 8.9283 -4.0221 -1.4903 0
M  V30 65 H 8.3589 -3.4275 -3.099 0
M  V30 66 H 9.1338 -2.2911 -1.9266 0
M  V30 END ATOM
M  V30 BEGIN BOND
M  V30 1 1 1 2
M  V30 2 2 2 3
M  V30 3 1 2 4
M  V30 4 1 3 5
M  V30 5 1 3 6
M  V30 6 2 4 7
M  V30 7 1 5 8
M  V30 8 2 6 9
M  V30 9 1 7 10
M  V30 10 1 9 11
M  V30 11 1 11 12
M  V30 12 2 12 13
M  V30 13 1 12 14
M  V30 14 1 13 15
M  V30 15 1 13 16
M  V30 16 1 14 17
M  V30 17 2 14 18
M  V30 18 3 15 19
M  V30 19 2 16 20
M  V30 20 2 17 21
M  V30 21 1 18 22
M  V30 22 1 21 23
M  V30 23 1 22 24
M  V30 24 1 23 25
M  V30 25 1 24 26
M  V30 26 1 25 27
M  V30 27 1 27 28
M  V30 28 1 28 29
M  V30 29 1 29 30
M  V30 30 1 30 31
M  V30 31 1 30 32
M  V30 32 1 31 33
M  V30 33 1 32 34
M  V30 34 1 33 35
M  V30 35 1 35 36
M  V30 36 1 7 9
M  V30 37 1 17 20
M  V30 38 2 22 23
M  V30 39 1 34 35
M  V30 40 1 4 37
M  V30 41 1 6 38
M  V30 42 1 8 39
M  V30 43 1 8 40
M  V30 44 1 8 41
M  V30 45 1 11 42
M  V30 46 1 16 43
M  V30 47 1 18 44
M  V30 48 1 21 45
M  V30 49 1 26 46
M  V30 50 1 26 47
M  V30 51 1 26 48
M  V30 52 1 27 49
M  V30 53 1 27 50
M  V30 54 1 28 51
M  V30 55 1 28 52
M  V30 56 1 29 53
M  V30 57 1 29 54
M  V30 58 1 31 55
M  V30 59 1 31 56
M  V30 60 1 32 57
M  V30 61 1 32 58
M  V30 62 1 33 59
M  V30 63 1 33 60
M  V30 64 1 34 61
M  V30 65 1 34 62
M  V30 66 1 35 63
M  V30 67 1 36 64
M  V30 68 1 36 65
M  V30 69 1 36 66
M  V30 END BOND
M  V30 END CTAB
M  END
>  <Structure No>
2211

>  <LogS>
-4.879551326

>  <MMFF94 Energy>
193.73

$$$$
Compound 2212
Actelion Java MolfileCreator 2.0

  0  0  0  0  0  0              0 V3000
M  V30 BEGIN CTAB
M  V30 COUNTS 9 8 0 0 0
M  V30 BEGIN ATOM
M  V30 1 O 2.1751 -0.8996 0.2248 0
M  V30 2 N 0.7967 -0.8736 0.2124 0
M  V30 3 C 0.1372 0.1657 -0.1907 0
M  V30 4 C -1.353 0.1502 -0.1872 0
M  V30 5 H 2.7236 -0.1038 -0.0822 0
M  V30 6 H 0.6613 1.0502 -0.5321 0
M  V30 7 H -1.7222 -0.6652 -0.8437 0
M  V30 8 H -1.7249 -0.0112 0.8462 0
M  V30 9 H -1.7403 1.1203 -0.5632 0
M  V30 END ATOM
M  V30 BEGIN BOND
M  V30 1 1 1 2
M  V30 2 2 2 3
M  V30 3 1 3 4
M  V30 4 1 1 5
M  V30 5 1 3 6
M  V30 6 1 4 7
M  V30 7 1 4 8
M  V30 8 1 4 9
M  V30 END BOND
M  V30 END CTAB
M  END
>  <Structure No>
2212

>  <LogS>
0.495819462

>  <MMFF94 Energy>
14.616

$$$$
Compound 2213
Actelion Java MolfileCreator 2.0

  0  0  0  0  0  0              0 V3000
M  V30 BEGIN CTAB
M  V30 COUNTS 31 30 0 0 0
M  V30 BEGIN ATOM
M  V30 1 O 3.0406 -0.701 -1.7143 0
M  V30 2 C 2.8595 0.4133 -1.1525 0
M  V30 3 O 1.9156 0.5566 -0.1294 0
M  V30 4 C 3.6173 1.6078 -1.6219 0
M  V30 5 C 1.1611 -0.533 0.4087 0 CFG=2
M  V30 6 O 0.0755 -0.0279 1.1641 0
M  V30 7 C 2.0447 -1.3987 1.3205 0
M  V30 8 C -0.9582 0.4439 0.3192 0
M  V30 9 C 2.6604 -0.6015 2.4709 0
M  V30 10 C -2.0405 -0.6308 0.1645 0
M  V30 11 C -3.1982 -0.1529 -0.7138 0
M  V30 12 O -3.8656 0.919 -0.0806 0
M  V30 13 C -4.9159 1.3683 -0.9066 0
M  V30 14 H 3.6809 2.3596 -0.8075 0
M  V30 15 H 4.6461 1.3145 -1.9199 0
M  V30 16 H 3.0966 2.057 -2.4929 0
M  V30 17 H 0.7965 -1.1876 -0.4187 0
M  V30 18 H 2.8611 -1.8583 0.7234 0
M  V30 19 H 1.4313 -2.2246 1.7415 0
M  V30 20 H -1.407 1.3364 0.8047 0
M  V30 21 H -0.5964 0.779 -0.6823 0
M  V30 22 H 1.866 -0.1553 3.1059 0
M  V30 23 H 3.2756 -1.2778 3.1011 0
M  V30 24 H 3.3152 0.2054 2.0794 0
M  V30 25 H -2.4302 -0.9118 1.1674 0
M  V30 26 H -1.5951 -1.5382 -0.2965 0
M  V30 27 H -2.7938 0.1541 -1.7061 0
M  V30 28 H -3.8939 -1.011 -0.8578 0
M  V30 29 H -5.663 0.5628 -1.0843 0
M  V30 30 H -4.5282 1.7601 -1.8733 0
M  V30 31 H -5.4377 2.2017 -0.3927 0
M  V30 END ATOM
M  V30 BEGIN BOND
M  V30 1 2 1 2
M  V30 2 1 2 3
M  V30 3 1 2 4
M  V30 4 1 3 5
M  V30 5 1 5 6
M  V30 6 1 5 7
M  V30 7 1 6 8
M  V30 8 1 7 9
M  V30 9 1 8 10
M  V30 10 1 10 11
M  V30 11 1 11 12
M  V30 12 1 12 13
M  V30 13 1 4 14
M  V30 14 1 4 15
M  V30 15 1 4 16
M  V30 16 1 5 17
M  V30 17 1 7 18
M  V30 18 1 7 19
M  V30 19 1 8 20
M  V30 20 1 8 21
M  V30 21 1 9 22
M  V30 22 1 9 23
M  V30 23 1 9 24
M  V30 24 1 10 25
M  V30 25 1 10 26
M  V30 26 1 11 27
M  V30 27 1 11 28
M  V30 28 1 13 29
M  V30 29 1 13 30
M  V30 30 1 13 31
M  V30 END BOND
M  V30 BEGIN COLLECTION
M  V30 MDLV30/STEABS ATOMS=(1 5)
M  V30 END COLLECTION
M  V30 END CTAB
M  END
>  <Structure No>
2213

>  <LogS>
-0.016848465

>  <MMFF94 Energy>
-17.289

$$$$
Compound 2214
Actelion Java MolfileCreator 2.0

  0  0  0  0  0  0              0 V3000
M  V30 BEGIN CTAB
M  V30 COUNTS 6 5 0 0 0
M  V30 BEGIN ATOM
M  V30 1 S 0.9618 -0.5342 -0.3205 0 CFG=2
M  V30 2 S -0.9356 0.2929 -0.6725 0 CFG=1
M  V30 3 O 0.8991 -0.9663 1.1378 0
M  V30 4 O 1.9812 0.8274 -0.285 0 CHG=-1
M  V30 5 O -1.8431 -0.9272 -0.7379 0
M  V30 6 O -1.3442 1.0096 0.8159 0 CHG=-1
M  V30 END ATOM
M  V30 BEGIN BOND
M  V30 1 1 1 2
M  V30 2 2 1 3
M  V30 3 1 1 4
M  V30 4 2 2 5
M  V30 5 1 2 6
M  V30 END BOND
M  V30 BEGIN COLLECTION
M  V30 MDLV30/STEABS ATOMS=(2 1 2)
M  V30 END COLLECTION
M  V30 END CTAB
M  END
>  <Structure No>
2214

>  <LogS>
0.018292129

>  <MMFF94 Energy>
74.796

$$$$
Compound 2215
Actelion Java MolfileCreator 2.0

  0  0  0  0  0  0              0 V3000
M  V30 BEGIN CTAB
M  V30 COUNTS 11 10 0 0 0
M  V30 BEGIN ATOM
M  V30 1 O 1.6705 -1.8985 0.9868 0
M  V30 2 C 1.8332 -0.6698 0.7598 0
M  V30 3 C 0.7541 0.1552 0.1964 0
M  V30 4 C -0.4479 -0.3445 -0.1036 0
M  V30 5 C -1.5201 0.5261 -0.6751 0
M  V30 6 H 2.7871 -0.2115 0.9838 0
M  V30 7 H 0.956 1.2058 0.0241 0
M  V30 8 H -0.6666 -1.3928 0.0625 0
M  V30 9 H -2.4363 -0.0747 -0.8532 0
M  V30 10 H -1.7613 1.3458 0.0342 0
M  V30 11 H -1.1826 0.9597 -1.6401 0
M  V30 END ATOM
M  V30 BEGIN BOND
M  V30 1 2 1 2
M  V30 2 1 2 3
M  V30 3 2 3 4
M  V30 4 1 4 5
M  V30 5 1 2 6
M  V30 6 1 3 7
M  V30 7 1 4 8
M  V30 8 1 5 9
M  V30 9 1 5 10
M  V30 10 1 5 11
M  V30 END BOND
M  V30 END CTAB
M  END
>  <Structure No>
2215

>  <LogS>
0.412016319

>  <MMFF94 Energy>
7.4615

$$$$
Compound 2216
Actelion Java MolfileCreator 2.0

  0  0  0  0  0  0              0 V3000
M  V30 BEGIN CTAB
M  V30 COUNTS 13 13 0 0 0
M  V30 BEGIN ATOM
M  V30 1 O -0.1561 -0.078 -1.3277 0
M  V30 2 C 0.5249 -0.475 -0.1582 0 CFG=2
M  V30 3 C -0.5993 0.4901 -0.1153 0 CFG=2
M  V30 4 C 1.9282 0.1179 -0.0968 0
M  V30 5 C -1.9548 -0.068 0.3043 0
M  V30 6 H 0.3436 -1.5418 0.0923 0
M  V30 7 H -0.3875 1.5793 -0.0591 0
M  V30 8 H 2.6283 -0.5445 -0.6468 0
M  V30 9 H 1.9723 1.1332 -0.5478 0
M  V30 10 H 2.2523 0.1797 0.9626 0
M  V30 11 H -2.7588 0.5197 -0.1851 0
M  V30 12 H -2.0724 -1.1362 0.0194 0
M  V30 13 H -2.063 0.0255 1.4048 0
M  V30 END ATOM
M  V30 BEGIN BOND
M  V30 1 1 1 2
M  V30 2 1 1 3
M  V30 3 1 2 4
M  V30 4 1 3 5
M  V30 5 1 2 3
M  V30 6 1 2 6
M  V30 7 1 3 7
M  V30 8 1 4 8
M  V30 9 1 4 9
M  V30 10 1 4 10
M  V30 11 1 5 11
M  V30 12 1 5 12
M  V30 13 1 5 13
M  V30 END BOND
M  V30 BEGIN COLLECTION
M  V30 MDLV30/STEABS ATOMS=(2 2 3)
M  V30 END COLLECTION
M  V30 END CTAB
M  END
>  <Structure No>
2216

>  <LogS>
0.397295078

>  <MMFF94 Energy>
8.9334

$$$$
Compound 2217
Actelion Java MolfileCreator 2.0

  0  0  0  0  0  0              0 V3000
M  V30 BEGIN CTAB
M  V30 COUNTS 33 32 0 0 0
M  V30 BEGIN ATOM
M  V30 1 S -5.9663 0.1608 -0.0804 0
M  V30 2 O -7.1925 -0.5585 -0.5653 0
M  V30 3 O -6.3633 1.1442 0.9847 0
M  V30 4 O -4.8823 -0.9737 0.5627 0
M  V30 5 O -5.2711 0.9806 -1.3729 0 CHG=-1
M  V30 6 C -3.6315 -0.3625 0.7955 0
M  V30 7 C -2.6433 -0.7692 -0.3045 0
M  V30 8 C -1.3028 -0.0228 -0.2117 0
M  V30 9 C -0.4515 -0.4841 0.9836 0
M  V30 10 C 0.894 0.2543 1.0694 0
M  V30 11 C 1.8951 -0.2096 6.0E-4 0
M  V30 12 C 3.2623 0.4537 0.2051 0
M  V30 13 C 4.2601 1.0E-4 -0.8664 0
M  V30 14 C 5.6222 0.6576 -0.665 0
M  V30 15 H -3.6813 0.7475 0.8877 0
M  V30 16 H -3.2581 -0.7382 1.7701 0
M  V30 17 H -2.4707 -1.8669 -0.2646 0
M  V30 18 H -3.0959 -0.5419 -1.2932 0
M  V30 19 H -0.7486 -0.2178 -1.1532 0
M  V30 20 H -1.4859 1.0722 -0.1492 0
M  V30 21 H -0.2775 -1.5809 0.9278 0
M  V30 22 H -1.0043 -0.2779 1.9241 0
M  V30 23 H 1.3285 0.0568 2.0741 0
M  V30 24 H 0.729 1.351 0.9849 0
M  V30 25 H 2.0121 -1.3141 0.0575 0
M  V30 26 H 1.5167 0.0555 -1.0091 0
M  V30 27 H 3.6559 0.1849 1.2103 0
M  V30 28 H 3.1458 1.559 0.1552 0
M  V30 29 H 3.8765 0.27 -1.8745 0
M  V30 30 H 4.3836 -1.1037 -0.8204 0
M  V30 31 H 6.0405 0.3828 0.3266 0
M  V30 32 H 6.3224 0.3111 -1.454 0
M  V30 33 H 5.5309 1.7627 -0.7314 0
M  V30 END ATOM
M  V30 BEGIN BOND
M  V30 1 2 1 2
M  V30 2 2 1 3
M  V30 3 1 1 4
M  V30 4 1 1 5
M  V30 5 1 4 6
M  V30 6 1 6 7
M  V30 7 1 7 8
M  V30 8 1 8 9
M  V30 9 1 9 10
M  V30 10 1 10 11
M  V30 11 1 11 12
M  V30 12 1 12 13
M  V30 13 1 13 14
M  V30 14 1 6 15
M  V30 15 1 6 16
M  V30 16 1 7 17
M  V30 17 1 7 18
M  V30 18 1 8 19
M  V30 19 1 8 20
M  V30 20 1 9 21
M  V30 21 1 9 22
M  V30 22 1 10 23
M  V30 23 1 10 24
M  V30 24 1 11 25
M  V30 25 1 11 26
M  V30 26 1 12 27
M  V30 27 1 12 28
M  V30 28 1 13 29
M  V30 29 1 13 30
M  V30 30 1 14 31
M  V30 31 1 14 32
M  V30 32 1 14 33
M  V30 END BOND
M  V30 END CTAB
M  END
>  <Structure No>
2217

>  <LogS>
-0.13619896

>  <MMFF94 Energy>
-47.601

$$$$
Compound 2218
Actelion Java MolfileCreator 2.0

  0  0  0  0  0  0              0 V3000
M  V30 BEGIN CTAB
M  V30 COUNTS 61 64 0 0 0
M  V30 BEGIN ATOM
M  V30 1 O 0.3186 -1.3548 -0.7967 0 CHG=1
M  V30 2 C -0.9417 -0.9932 -0.5913 0
M  V30 3 C 1.3523 -0.6912 -0.2943 0
M  V30 4 C -1.2446 0.1393 0.1909 0
M  V30 5 C -1.9666 -1.7479 -1.1652 0
M  V30 6 C 1.1511 0.4566 0.4984 0
M  V30 7 C 2.6453 -1.1407 -0.5682 0
M  V30 8 C -0.1754 0.8823 0.7448 0
M  V30 9 C -2.5936 0.4892 0.388 0
M  V30 10 C -3.3173 -1.4021 -0.9744 0
M  V30 11 C 2.2732 1.1441 0.9975 0
M  V30 12 C 3.7716 -0.4634 -0.0647 0
M  V30 13 C -0.4406 2.0958 1.5589 0
M  V30 14 C -3.6288 -0.2711 -0.1814 0
M  V30 15 N -4.37 -2.1759 -1.5927 0
M  V30 16 C 3.5763 0.6912 0.7311 0
M  V30 17 N 5.1065 -0.9244 -0.373 0
M  V30 18 C -0.7406 3.3553 0.9723 0
M  V30 19 C -0.4284 1.9631 2.9567 0
M  V30 20 C -5.0566 0.1394 0.0667 0
M  V30 21 C -4.2257 -3.5625 -2.0413 0
M  V30 22 C 4.7438 1.4533 1.3013 0
M  V30 23 C 5.437 -2.2893 -0.7878 0
M  V30 24 C -0.761 3.5681 -0.4999 0
M  V30 25 C -1.0312 4.4424 1.8206 0
M  V30 26 C -0.7106 3.0561 3.7754 0
M  V30 27 C -3.9937 -4.4951 -0.8566 0
M  V30 28 C 5.1636 -3.2807 0.3388 0
M  V30 29 O -1.3314 4.5879 -0.9779 0
M  V30 30 O -0.1388 2.6576 -1.3597 0
M  V30 31 C -1.0137 4.2921 3.2086 0
M  V30 32 C -0.1607 2.7919 -2.7748 0
M  V30 33 H -1.6925 -2.5991 -1.7716 0
M  V30 34 H 2.7577 -2.0166 -1.1908 0
M  V30 35 H -2.8509 1.3525 0.9886 0
M  V30 36 H 2.1437 2.0362 1.5972 0
M  V30 37 H -5.3098 -1.7424 -1.7305 0
M  V30 38 H 5.9082 -0.2605 -0.2916 0
M  V30 39 H -0.205 1.0058 3.4122 0
M  V30 40 H -5.1277 0.9443 0.8291 0
M  V30 41 H -5.5065 0.5155 -0.8758 0
M  V30 42 H -5.6419 -0.7273 0.4395 0
M  V30 43 H -3.4019 -3.6511 -2.7792 0
M  V30 44 H -5.1595 -3.8775 -2.5557 0
M  V30 45 H 4.4153 2.2322 2.0221 0
M  V30 46 H 5.3001 1.9534 0.4811 0
M  V30 47 H 5.4214 0.7605 1.8433 0
M  V30 48 H 6.5179 -2.3402 -1.0428 0
M  V30 49 H 4.8736 -2.5675 -1.7022 0
M  V30 50 H -1.2633 5.4176 1.4107 0
M  V30 51 H -0.6989 2.943 4.8517 0
M  V30 52 H -4.8279 -4.4002 -0.1294 0
M  V30 53 H -3.0382 -4.2529 -0.3469 0
M  V30 54 H -3.9474 -5.5453 -1.2135 0
M  V30 55 H 5.738 -2.9937 1.2451 0
M  V30 56 H 4.0823 -3.3055 0.5869 0
M  V30 57 H 5.4771 -4.2979 0.0234 0
M  V30 58 H -1.2346 5.1383 3.8463 0
M  V30 59 H -1.2087 2.7717 -3.1413 0
M  V30 60 H 0.3948 1.9456 -3.2279 0
M  V30 61 H 0.3251 3.7445 -3.074 0
M  V30 END ATOM
M  V30 BEGIN BOND
M  V30 1 1 1 2
M  V30 2 2 1 3
M  V30 3 1 2 4
M  V30 4 2 2 5
M  V30 5 1 3 6
M  V30 6 1 3 7
M  V30 7 1 4 8
M  V30 8 2 4 9
M  V30 9 1 5 10
M  V30 10 1 6 11
M  V30 11 2 7 12
M  V30 12 1 8 13
M  V30 13 1 9 14
M  V30 14 1 10 15
M  V30 15 2 11 16
M  V30 16 1 12 17
M  V30 17 2 13 18
M  V30 18 1 13 19
M  V30 19 1 14 20
M  V30 20 1 15 21
M  V30 21 1 16 22
M  V30 22 1 17 23
M  V30 23 1 18 24
M  V30 24 1 18 25
M  V30 25 2 19 26
M  V30 26 1 21 27
M  V30 27 1 23 28
M  V30 28 2 24 29
M  V30 29 1 24 30
M  V30 30 2 25 31
M  V30 31 1 30 32
M  V30 32 2 6 8
M  V30 33 2 10 14
M  V30 34 1 12 16
M  V30 35 1 26 31
M  V30 36 1 5 33
M  V30 37 1 7 34
M  V30 38 1 9 35
M  V30 39 1 11 36
M  V30 40 1 15 37
M  V30 41 1 17 38
M  V30 42 1 19 39
M  V30 43 1 20 40
M  V30 44 1 20 41
M  V30 45 1 20 42
M  V30 46 1 21 43
M  V30 47 1 21 44
M  V30 48 1 22 45
M  V30 49 1 22 46
M  V30 50 1 22 47
M  V30 51 1 23 48
M  V30 52 1 23 49
M  V30 53 1 25 50
M  V30 54 1 26 51
M  V30 55 1 27 52
M  V30 56 1 27 53
M  V30 57 1 27 54
M  V30 58 1 28 55
M  V30 59 1 28 56
M  V30 60 1 28 57
M  V30 61 1 31 58
M  V30 62 1 32 59
M  V30 63 1 32 60
M  V30 64 1 32 61
M  V30 END BOND
M  V30 END CTAB
M  END
>  <Structure No>
2218

>  <LogS>
-1.390984611

>  <MMFF94 Energy>
82.028

$$$$
Compound 2219
Actelion Java MolfileCreator 2.0

  0  0  0  0  0  0              0 V3000
M  V30 BEGIN CTAB
M  V30 COUNTS 21 21 0 0 0
M  V30 BEGIN ATOM
M  V30 1 O 1.558 0.4672 -0.1557 0
M  V30 2 C 0.1632 0.3342 -0.2213 0
M  V30 3 C 2.4399 -0.5353 0.3426 0
M  V30 4 C -0.5063 -0.8278 0.2085 0
M  V30 5 C -0.5833 1.4016 -0.735 0
M  V30 6 C 3.8737 -0.0372 0.2584 0
M  V30 7 C -1.8996 -0.9107 0.122 0
M  V30 8 C -1.9761 1.3179 -0.8212 0
M  V30 9 C -2.6411 0.1612 -0.393 0
M  V30 10 N -4.0658 0.0753 -0.481 0
M  V30 11 H 2.1945 -0.7593 1.4033 0
M  V30 12 H 2.34 -1.4605 -0.2652 0
M  V30 13 H 0.039 -1.6705 0.6104 0
M  V30 14 H -0.0806 2.3006 -1.0688 0
M  V30 15 H 4.5645 -0.8156 0.6457 0
M  V30 16 H 4.1364 0.1856 -0.7972 0
M  V30 17 H 3.9914 0.8847 0.8662 0
M  V30 18 H -2.4013 -1.8102 0.4563 0
M  V30 19 H -2.5364 2.1537 -1.2212 0
M  V30 20 H -4.6268 0.869 -0.8635 0
M  V30 21 H -4.5702 -0.7827 -0.1644 0
M  V30 END ATOM
M  V30 BEGIN BOND
M  V30 1 1 1 2
M  V30 2 1 1 3
M  V30 3 2 2 4
M  V30 4 1 2 5
M  V30 5 1 3 6
M  V30 6 1 4 7
M  V30 7 2 5 8
M  V30 8 2 7 9
M  V30 9 1 9 10
M  V30 10 1 8 9
M  V30 11 1 3 11
M  V30 12 1 3 12
M  V30 13 1 4 13
M  V30 14 1 5 14
M  V30 15 1 6 15
M  V30 16 1 6 16
M  V30 17 1 6 17
M  V30 18 1 7 18
M  V30 19 1 8 19
M  V30 20 1 10 20
M  V30 21 1 10 21
M  V30 END BOND
M  V30 END CTAB
M  END
>  <Structure No>
2219

>  <LogS>
-0.860835326

>  <MMFF94 Energy>
8.6432

$$$$
Compound 2220
Actelion Java MolfileCreator 2.0

  0  0  0  0  0  0              0 V3000
M  V30 BEGIN CTAB
M  V30 COUNTS 18 18 0 0 0
M  V30 BEGIN ATOM
M  V30 1 Cl 0.0819 2.9527 -0.2458 0
M  V30 2 C -0.7233 1.4029 -0.017 0
M  V30 3 C -0.0446 0.1711 -0.1731 0
M  V30 4 C -2.0675 1.4149 0.3772 0
M  V30 5 C 1.3719 0.1149 -0.609 0
M  V30 6 C -0.7429 -1.0261 0.0732 0
M  V30 7 C -2.7449 0.2182 0.6164 0
M  V30 8 O 1.7733 0.8877 -1.5217 0
M  V30 9 C 2.3253 -0.8969 -0.0355 0
M  V30 10 C -2.0835 -1.0001 0.4654 0
M  V30 11 C 3.5963 -0.2608 0.3285 0
M  V30 12 N 4.599 0.2405 0.6159 0
M  V30 13 H -2.5881 2.3556 0.5054 0
M  V30 14 H -0.2579 -1.9855 -0.057 0
M  V30 15 H -3.7835 0.2359 0.9208 0
M  V30 16 H 2.5152 -1.6909 -0.7873 0
M  V30 17 H 1.9028 -1.3639 0.8789 0
M  V30 18 H -2.6113 -1.9273 0.6478 0
M  V30 END ATOM
M  V30 BEGIN BOND
M  V30 1 1 1 2
M  V30 2 2 2 3
M  V30 3 1 2 4
M  V30 4 1 3 5
M  V30 5 1 3 6
M  V30 6 2 4 7
M  V30 7 2 5 8
M  V30 8 1 5 9
M  V30 9 2 6 10
M  V30 10 1 9 11
M  V30 11 3 11 12
M  V30 12 1 7 10
M  V30 13 1 4 13
M  V30 14 1 6 14
M  V30 15 1 7 15
M  V30 16 1 9 16
M  V30 17 1 9 17
M  V30 18 1 10 18
M  V30 END BOND
M  V30 END CTAB
M  END
>  <Structure No>
2220

>  <LogS>
-2.175139595

>  <MMFF94 Energy>
28.612

$$$$
Compound 2221
Actelion Java MolfileCreator 2.0

  0  0  0  0  0  0              0 V3000
M  V30 BEGIN CTAB
M  V30 COUNTS 29 28 0 0 0
M  V30 BEGIN ATOM
M  V30 1 O -1.8103 -2.2041 -0.3146 0
M  V30 2 C -2.5027 -1.176 -0.0774 0
M  V30 3 O -1.8976 0.0858 -0.0541 0
M  V30 4 C -3.9544 -1.3094 0.1774 0
M  V30 5 C -0.5065 0.2768 -0.2894 0
M  V30 6 C -4.6872 -0.24 0.5072 0
M  V30 7 C -4.5947 -2.6707 0.1408 0
M  V30 8 C -0.174 1.7627 -0.1954 0
M  V30 9 O 1.2033 1.9874 -0.4885 0
M  V30 10 C 2.2377 1.7041 0.4104 0
M  V30 11 O 1.987 1.2762 1.5704 0
M  V30 12 C 3.6564 1.8703 -0.0274 0
M  V30 13 C 4.1551 0.5951 -0.6487 0
M  V30 14 O 3.7291 0.2519 -1.7413 0
M  V30 15 C 5.165 -0.2691 0.0463 0
M  V30 16 H -0.2452 -0.0955 -1.3039 0
M  V30 17 H 0.0782 -0.2891 0.4672 0
M  V30 18 H -5.7437 -0.3343 0.726 0
M  V30 19 H -4.2502 0.7486 0.5681 0
M  V30 20 H -5.6968 -2.6011 0.0135 0
M  V30 21 H -4.3758 -3.2071 1.0878 0
M  V30 22 H -4.1944 -3.2604 -0.7104 0
M  V30 23 H -0.7866 2.3156 -0.939 0
M  V30 24 H -0.423 2.1535 0.8155 0
M  V30 25 H 4.281 2.1567 0.8461 0
M  V30 26 H 3.7248 2.6941 -0.7698 0
M  V30 27 H 5.4454 0.1505 1.035 0
M  V30 28 H 4.7407 -1.2833 0.2011 0
M  V30 29 H 6.0785 -0.3492 -0.5792 0
M  V30 END ATOM
M  V30 BEGIN BOND
M  V30 1 2 1 2
M  V30 2 1 2 3
M  V30 3 1 2 4
M  V30 4 1 3 5
M  V30 5 2 4 6
M  V30 6 1 4 7
M  V30 7 1 5 8
M  V30 8 1 8 9
M  V30 9 1 9 10
M  V30 10 2 10 11
M  V30 11 1 10 12
M  V30 12 1 12 13
M  V30 13 2 13 14
M  V30 14 1 13 15
M  V30 15 1 5 16
M  V30 16 1 5 17
M  V30 17 1 6 18
M  V30 18 1 6 19
M  V30 19 1 7 20
M  V30 20 1 7 21
M  V30 21 1 7 22
M  V30 22 1 8 23
M  V30 23 1 8 24
M  V30 24 1 12 25
M  V30 25 1 12 26
M  V30 26 1 15 27
M  V30 27 1 15 28
M  V30 28 1 15 29
M  V30 END BOND
M  V30 END CTAB
M  END
>  <Structure No>
2221

>  <LogS>
-1.063682205

>  <MMFF94 Energy>
-13.038

$$$$
Compound 2222
Actelion Java MolfileCreator 2.0

  0  0  0  0  0  0              0 V3000
M  V30 BEGIN CTAB
M  V30 COUNTS 16 17 0 0 0
M  V30 BEGIN ATOM
M  V30 1 O 1.7771 2.6665 -0.2421 0
M  V30 2 C 1.559 1.4338 -0.111 0
M  V30 3 O 2.5524 0.4715 0.0159 0
M  V30 4 C 0.2668 0.8012 -0.0687 0
M  V30 5 C 1.9651 -0.8288 0.1468 0
M  V30 6 C 0.4922 -0.5457 0.0844 0
M  V30 7 C -1.0182 1.334 -0.1544 0
M  V30 8 C -0.5724 -1.4447 0.1609 0
M  V30 9 C -2.1042 0.4453 -0.0796 0
M  V30 10 C -1.8824 -0.939 0.0775 0
M  V30 11 H 2.2771 -1.4785 -0.6976 0
M  V30 12 H 2.2385 -1.2779 1.1247 0
M  V30 13 H -1.1761 2.3978 -0.2749 0
M  V30 14 H -0.395 -2.5053 0.2816 0
M  V30 15 H -3.1158 0.8251 -0.1427 0
M  V30 16 H -2.7248 -1.616 0.1343 0
M  V30 END ATOM
M  V30 BEGIN BOND
M  V30 1 2 1 2
M  V30 2 1 2 3
M  V30 3 1 2 4
M  V30 4 1 3 5
M  V30 5 2 4 6
M  V30 6 1 4 7
M  V30 7 1 6 8
M  V30 8 2 7 9
M  V30 9 2 8 10
M  V30 10 1 5 6
M  V30 11 1 9 10
M  V30 12 1 5 11
M  V30 13 1 5 12
M  V30 14 1 7 13
M  V30 15 1 8 14
M  V30 16 1 9 15
M  V30 17 1 10 16
M  V30 END BOND
M  V30 END CTAB
M  END
>  <Structure No>
2222

>  <LogS>
-0.862721053

>  <MMFF94 Energy>
28.128

$$$$
Compound 2223
Actelion Java MolfileCreator 2.0

  0  0  0  0  0  0              0 V3000
M  V30 BEGIN CTAB
M  V30 COUNTS 28 29 0 0 0
M  V30 BEGIN ATOM
M  V30 1 S 4.1171 0.9046 1.2338 0
M  V30 2 O 5.215 0.0436 1.7922 0
M  V30 3 O 3.5336 1.726 2.3488 0
M  V30 4 O 4.7487 1.9241 0.0583 0 CHG=-1
M  V30 5 C 2.8662 -0.1075 0.5203 0
M  V30 6 C 1.538 0.3395 0.4777 0
M  V30 7 C 3.1953 -1.3546 -0.0266 0
M  V30 8 C 0.539 -0.4516 -0.1095 0
M  V30 9 C 2.2013 -2.1563 -0.5928 0
M  V30 10 N -0.8201 0.0108 -0.119 0
M  V30 11 C 0.8768 -1.7124 -0.6282 0
M  V30 12 N -1.4208 0.6349 0.9755 0
M  V30 13 C -1.8307 -0.2163 -1.0936 0
M  V30 14 C -2.6894 0.7912 0.7577 0
M  V30 15 N -1.6094 -0.5807 -2.3185 0 CHG=1
M  V30 16 C -3.1407 0.2613 -0.5748 0
M  V30 17 C -3.604 1.4217 1.7542 0
M  V30 18 H 1.2812 1.3077 0.889 0
M  V30 19 H 4.2179 -1.7091 -0.0099 0
M  V30 20 H 2.4565 -3.1264 -0.9989 0
M  V30 21 H 0.1149 -2.3607 -1.0405 0
M  V30 22 H -2.4 -0.6487 -2.9974 0
M  V30 23 H -0.6455 -0.7793 -2.6631 0
M  V30 24 H -3.5522 1.0764 -1.2067 0
M  V30 25 H -3.8542 -0.5803 -0.4531 0
M  V30 26 H -3.0373 1.7526 2.6504 0
M  V30 27 H -4.1009 2.3019 1.2962 0
M  V30 28 H -4.3757 0.6873 2.0652 0
M  V30 END ATOM
M  V30 BEGIN BOND
M  V30 1 2 1 2
M  V30 2 2 1 3
M  V30 3 1 1 4
M  V30 4 1 1 5
M  V30 5 2 5 6
M  V30 6 1 5 7
M  V30 7 1 6 8
M  V30 8 2 7 9
M  V30 9 1 8 10
M  V30 10 2 8 11
M  V30 11 1 10 12
M  V30 12 1 10 13
M  V30 13 2 12 14
M  V30 14 2 13 15
M  V30 15 1 13 16
M  V30 16 1 14 17
M  V30 17 1 9 11
M  V30 18 1 14 16
M  V30 19 1 6 18
M  V30 20 1 7 19
M  V30 21 1 9 20
M  V30 22 1 11 21
M  V30 23 1 15 22
M  V30 24 1 15 23
M  V30 25 1 16 24
M  V30 26 1 16 25
M  V30 27 1 17 26
M  V30 28 1 17 27
M  V30 29 1 17 28
M  V30 END BOND
M  V30 END CTAB
M  END
>  <Structure No>
2223

>  <LogS>
-1.138788219

>  <MMFF94 Energy>
20.211

$$$$
Compound 2224
Actelion Java MolfileCreator 2.0

  0  0  0  0  0  0              0 V3000
M  V30 BEGIN CTAB
M  V30 COUNTS 29 30 0 0 0
M  V30 BEGIN ATOM
M  V30 1 O -4.2216 1.1138 -1.5118 0
M  V30 2 C -3.2112 0.7406 -0.936 0
M  V30 3 C -1.8964 1.412 -1.2013 0
M  V30 4 C -3.2908 -0.3153 0.1265 0
M  V30 5 C -0.7704 0.3741 -1.2093 0
M  V30 6 C -2.074 -1.2425 0.0411 0
M  V30 7 N -0.8192 -0.4594 0.0142 0
M  V30 8 C 0.3445 -1.3686 0.0703 0
M  V30 9 C 1.588 -0.6133 0.4613 0
M  V30 10 C 2.6402 -0.4425 -0.4542 0
M  V30 11 C 1.6951 -0.0546 1.7457 0
M  V30 12 C 3.7837 0.2734 -0.086 0
M  V30 13 C 2.8404 0.6602 2.1097 0
M  V30 14 C 3.8841 0.8237 1.1948 0
M  V30 15 H -1.7069 2.1599 -0.4016 0
M  V30 16 H -1.9212 1.9389 -2.18 0
M  V30 17 H -4.2207 -0.9134 0.0085 0
M  V30 18 H -3.3126 0.1787 1.1217 0
M  V30 19 H 0.1929 0.9259 -1.2637 0
M  V30 20 H -0.8527 -0.2576 -2.1236 0
M  V30 21 H -2.095 -1.9037 0.9358 0
M  V30 22 H -2.1565 -1.8884 -0.8633 0
M  V30 23 H 0.1878 -2.1558 0.8415 0
M  V30 24 H 0.4819 -1.8984 -0.9002 0
M  V30 25 H 2.5741 -0.858 -1.4518 0
M  V30 26 H 0.8908 -0.1717 2.4617 0
M  V30 27 H 4.5916 0.4029 -0.7945 0
M  V30 28 H 2.9182 1.0886 3.1006 0
M  V30 29 H 4.7697 1.378 1.4776 0
M  V30 END ATOM
M  V30 BEGIN BOND
M  V30 1 2 1 2
M  V30 2 1 2 3
M  V30 3 1 2 4
M  V30 4 1 3 5
M  V30 5 1 4 6
M  V30 6 1 5 7
M  V30 7 1 7 8
M  V30 8 1 8 9
M  V30 9 2 9 10
M  V30 10 1 9 11
M  V30 11 1 10 12
M  V30 12 2 11 13
M  V30 13 2 12 14
M  V30 14 1 6 7
M  V30 15 1 13 14
M  V30 16 1 3 15
M  V30 17 1 3 16
M  V30 18 1 4 17
M  V30 19 1 4 18
M  V30 20 1 5 19
M  V30 21 1 5 20
M  V30 22 1 6 21
M  V30 23 1 6 22
M  V30 24 1 8 23
M  V30 25 1 8 24
M  V30 26 1 10 25
M  V30 27 1 11 26
M  V30 28 1 12 27
M  V30 29 1 13 28
M  V30 30 1 14 29
M  V30 END BOND
M  V30 END CTAB
M  END
>  <Structure No>
2224

>  <LogS>
-1.016982858

>  <MMFF94 Energy>
16.815

$$$$
Compound 2225
Actelion Java MolfileCreator 2.0

  0  0  0  0  0  0              0 V3000
M  V30 BEGIN CTAB
M  V30 COUNTS 17 16 0 0 0
M  V30 BEGIN ATOM
M  V30 1 O 0.9994 1.2302 -0.7687 0
M  V30 2 C 0.9843 0.1017 -0.2052 0
M  V30 3 O 2.183 -0.559 0.0766 0
M  V30 4 C -0.2865 -0.5824 0.1007 0
M  V30 5 C 3.4566 0.0073 -0.2075 0
M  V30 6 C -1.4874 0.0135 0.2326 0
M  V30 7 N -1.6343 1.4394 0.2939 0
M  V30 8 C -2.7025 -0.8424 0.4498 0
M  V30 9 H -0.2308 -1.6602 0.2021 0
M  V30 10 H 3.5549 0.1945 -1.2977 0
M  V30 11 H 4.2493 -0.7012 0.1084 0
M  V30 12 H 3.5821 0.9598 0.3498 0
M  V30 13 H -0.8344 2.0744 0.5036 0
M  V30 14 H -2.5866 1.8674 0.2904 0
M  V30 15 H -2.739 -1.1735 1.5088 0
M  V30 16 H -2.6764 -1.7346 -0.2119 0
M  V30 17 H -3.6278 -0.2735 0.2202 0
M  V30 END ATOM
M  V30 BEGIN BOND
M  V30 1 2 1 2
M  V30 2 1 2 3
M  V30 3 1 2 4
M  V30 4 1 3 5
M  V30 5 2 4 6
M  V30 6 1 6 7
M  V30 7 1 6 8
M  V30 8 1 4 9
M  V30 9 1 5 10
M  V30 10 1 5 11
M  V30 11 1 5 12
M  V30 12 1 7 13
M  V30 13 1 7 14
M  V30 14 1 8 15
M  V30 15 1 8 16
M  V30 16 1 8 17
M  V30 END BOND
M  V30 END CTAB
M  END
>  <Structure No>
2225

>  <LogS>
-0.805923544

>  <MMFF94 Energy>
6.3415

$$$$
Compound 2226
Actelion Java MolfileCreator 2.0

  0  0  0  0  0  0              0 V3000
M  V30 BEGIN CTAB
M  V30 COUNTS 30 30 0 0 0
M  V30 BEGIN ATOM
M  V30 1 O -1.7149 -1.3249 2.105 0
M  V30 2 C -1.3149 -2.1002 1.0099 0
M  V30 3 C -1.7297 -1.4188 -0.2948 0
M  V30 4 N -1.1075 -0.0889 -0.4257 0
M  V30 5 C 0.3308 0.0438 -0.5055 0
M  V30 6 C -1.9645 1.0905 -0.6366 0
M  V30 7 C 0.993 1.0538 0.2147 0
M  V30 8 C 1.094 -0.8321 -1.3004 0
M  V30 9 C -2.8134 1.4155 0.5994 0
M  V30 10 C 2.3834 1.1808 0.1485 0
M  V30 11 C 2.4845 -0.703 -1.3657 0
M  V30 12 O -2.0017 1.7033 1.7048 0
M  V30 13 C 3.1358 0.3025 -0.6408 0
M  V30 14 N 4.5583 0.4331 -0.708 0
M  V30 15 H -1.4077 -1.8114 2.9134 0
M  V30 16 H -1.8006 -3.0998 1.0635 0
M  V30 17 H -0.2117 -2.2439 1.0276 0
M  V30 18 H -1.4468 -2.0614 -1.1533 0
M  V30 19 H -2.8381 -1.3421 -0.3228 0
M  V30 20 H -1.3548 1.9818 -0.9025 0
M  V30 21 H -2.6398 0.8986 -1.4983 0
M  V30 22 H 0.4384 1.7386 0.8388 0
M  V30 23 H 0.6202 -1.6054 -1.888 0
M  V30 24 H -3.4711 0.5591 0.8523 0
M  V30 25 H -3.4795 2.2794 0.3728 0
M  V30 26 H 2.8741 1.9628 0.7145 0
M  V30 27 H 3.0538 -1.3848 -1.985 0
M  V30 28 H -1.7134 2.6484 1.6071 0
M  V30 29 H 5.1276 -0.2168 -1.2946 0
M  V30 30 H 5.0526 1.1806 -0.1716 0
M  V30 END ATOM
M  V30 BEGIN BOND
M  V30 1 1 1 2
M  V30 2 1 2 3
M  V30 3 1 3 4
M  V30 4 1 4 5
M  V30 5 1 4 6
M  V30 6 2 5 7
M  V30 7 1 5 8
M  V30 8 1 6 9
M  V30 9 1 7 10
M  V30 10 2 8 11
M  V30 11 1 9 12
M  V30 12 2 10 13
M  V30 13 1 13 14
M  V30 14 1 11 13
M  V30 15 1 1 15
M  V30 16 1 2 16
M  V30 17 1 2 17
M  V30 18 1 3 18
M  V30 19 1 3 19
M  V30 20 1 6 20
M  V30 21 1 6 21
M  V30 22 1 7 22
M  V30 23 1 8 23
M  V30 24 1 9 24
M  V30 25 1 9 25
M  V30 26 1 10 26
M  V30 27 1 11 27
M  V30 28 1 12 28
M  V30 29 1 14 29
M  V30 30 1 14 30
M  V30 END BOND
M  V30 END CTAB
M  END
>  <Structure No>
2226

>  <LogS>
-0.218413053

>  <MMFF94 Energy>
51.782

$$$$
Compound 2227
Actelion Java MolfileCreator 2.0

  0  0  0  0  0  0              0 V3000
M  V30 BEGIN CTAB
M  V30 COUNTS 1 0 0 0 0
M  V30 BEGIN ATOM
M  V30 1 S 0.0 0.0 0.0 0 CHG=-1 VAL=2
M  V30 END ATOM
M  V30 BEGIN BOND
M  V30 END BOND
M  V30 END CTAB
M  END
>  <Structure No>
2227

>  <LogS>
0.352490659

>  <MMFF94 Energy>
6.798e-13

$$$$
Compound 2228
Actelion Java MolfileCreator 2.0

  0  0  0  0  0  0              0 V3000
M  V30 BEGIN CTAB
M  V30 COUNTS 7 6 0 0 0
M  V30 BEGIN ATOM
M  V30 1 O 1.4013 1.1676 -0.3112 0
M  V30 2 C 0.8528 0.0548 -0.0979 0
M  V30 3 O 1.6371 -1.0796 0.067 0 CHG=-1
M  V30 4 C -0.6296 -0.0356 0.0348 0
M  V30 5 H -0.9682 -1.0684 -0.1916 0
M  V30 6 H -1.1194 0.6657 -0.6733 0
M  V30 7 H -0.9249 0.2254 1.0724 0
M  V30 END ATOM
M  V30 BEGIN BOND
M  V30 1 2 1 2
M  V30 2 1 2 3
M  V30 3 1 2 4
M  V30 4 1 4 5
M  V30 5 1 4 6
M  V30 6 1 4 7
M  V30 END BOND
M  V30 END CTAB
M  END
>  <Structure No>
2228

>  <LogS>
0.00053768

>  <MMFF94 Energy>
1.0491

$$$$
Compound 2229
Actelion Java MolfileCreator 2.0

  0  0  0  0  0  0              0 V3000
M  V30 BEGIN CTAB
M  V30 COUNTS 12 11 0 0 0
M  V30 BEGIN ATOM
M  V30 1 F 2.3712 0.1692 -0.7617 0
M  V30 2 C 1.3585 -0.4307 -0.0348 0
M  V30 3 F 1.3217 -1.7741 -0.3634 0
M  V30 4 F 1.6442 -0.3001 1.3129 0
M  V30 5 C 0.0199 0.2445 -0.3736 0
M  V30 6 O 0.1162 1.6158 -0.0838 0
M  V30 7 C -1.1652 -0.3674 0.3963 0
M  V30 8 F -2.3382 0.2569 0.0113 0
M  V30 9 F -1.2793 -1.7178 0.1183 0
M  V30 10 F -1.0003 -0.1968 1.7597 0
M  V30 11 H -0.1595 0.1027 -1.4657 0
M  V30 12 H -0.567 2.0781 -0.6362 0
M  V30 END ATOM
M  V30 BEGIN BOND
M  V30 1 1 1 2
M  V30 2 1 2 3
M  V30 3 1 2 4
M  V30 4 1 2 5
M  V30 5 1 5 6
M  V30 6 1 5 7
M  V30 7 1 7 8
M  V30 8 1 7 9
M  V30 9 1 7 10
M  V30 10 1 5 11
M  V30 11 1 6 12
M  V30 END BOND
M  V30 END CTAB
M  END
>  <Structure No>
2229

>  <LogS>
0.020110333

>  <MMFF94 Energy>
42.904

$$$$
Compound 2230
Actelion Java MolfileCreator 2.0

  0  0  0  0  0  0              0 V3000
M  V30 BEGIN CTAB
M  V30 COUNTS 68 71 0 0 0
M  V30 BEGIN ATOM
M  V30 1 S 4.2345 -1.3813 1.6404 0
M  V30 2 O 3.8199 -2.7678 1.2344 0
M  V30 3 O 3.2906 -0.872 2.6947 0
M  V30 4 O 5.7782 -1.4765 2.2971 0 CHG=-1
M  V30 5 C 4.2398 -0.2512 0.2243 0 CFG=1
M  V30 6 N 3.0163 0.5618 0.1936 0 CHG=-1
M  V30 7 C 5.3928 0.7147 0.4159 0
M  V30 8 C 4.4277 -1.0351 -1.0989 0
M  V30 9 C 1.6303 0.198 0.0551 0
M  V30 10 C 6.0891 1.2536 -0.6055 0
M  V30 11 C 4.6412 -0.0909 -2.2845 0
M  V30 12 N 0.7063 1.1921 -0.0284 0 CHG=1
M  V30 13 N 1.2198 -1.1 0.0237 0 CHG=1
M  V30 14 C 5.7671 0.8593 -2.004 0
M  V30 15 C 7.1843 2.2152 -0.316 0
M  V30 16 C -0.6193 0.8984 -0.1277 0
M  V30 17 C -0.0982 -1.3996 -0.0983 0
M  V30 18 O 6.3975 1.3589 -2.976 0
M  V30 19 O 7.9783 2.5816 -1.2247 0
M  V30 20 O 7.3672 2.7129 0.9703 0 CHG=-1
M  V30 21 N -1.0076 -0.3982 -0.1642 0
M  V30 22 N -1.6366 1.9118 -0.2057 0 CHG=-1
M  V30 23 N -0.5043 -2.7759 -0.1499 0 CHG=-1
M  V30 24 C -1.5691 3.3785 -0.147 0 CFG=1
M  V30 25 C -1.8437 -3.3385 -0.3655 0 CFG=2
M  V30 26 S -0.6255 4.0316 -1.5444 0
M  V30 27 C -2.995 3.8778 -0.2805 0
M  V30 28 C -0.9762 3.8709 1.1979 0
M  V30 29 S -2.4513 -2.8424 -1.9945 0
M  V30 30 C -2.7929 -2.8532 0.7124 0
M  V30 31 C -1.6824 -4.8754 -0.2891 0
M  V30 32 O -0.7091 3.074 -2.7016 0
M  V30 33 O 0.8186 4.2476 -1.1862 0
M  V30 34 O -1.2688 5.5098 -2.0199 0 CHG=-1
M  V30 35 C -3.8069 4.086 0.7764 0
M  V30 36 C -1.86 3.46 2.378 0
M  V30 37 O -2.7498 -1.3693 -2.0232 0
M  V30 38 O -3.7087 -3.579 -2.3534 0
M  V30 39 O -1.2757 -3.1786 -3.1497 0 CHG=-1
M  V30 40 C -3.8048 -3.599 1.2006 0
M  V30 41 C -3.0079 -5.6409 -0.2113 0
M  V30 42 C -3.2763 3.9014 2.1573 0
M  V30 43 C -5.2136 4.5114 0.55 0
M  V30 44 C -3.9908 -4.994 0.7211 0
M  V30 45 C -4.7156 -3.0248 2.2298 0
M  V30 46 O -4.0206 4.0672 3.1622 0
M  V30 47 O -5.9728 4.7648 1.5232 0
M  V30 48 O -5.7179 4.6374 -0.7402 0 CHG=-1
M  V30 49 O -5.0104 -5.6532 1.0595 0
M  V30 50 O -4.5186 -1.8675 2.6911 0
M  V30 51 O -5.7971 -3.7532 2.7094 0 CHG=-1
M  V30 52 H 5.6052 1.0373 1.4291 0
M  V30 53 H 3.5587 -1.6847 -1.3202 0
M  V30 54 H 5.3164 -1.7004 -1.0098 0
M  V30 55 H 4.8735 -0.69 -3.1915 0
M  V30 56 H 3.7148 0.4926 -2.479 0
M  V30 57 H 1.0454 2.1712 -0.0199 0
M  V30 58 H 1.895 -1.8848 0.0896 0
M  V30 59 H -3.397 3.9772 -1.2834 0
M  V30 60 H -0.8997 4.9819 1.1818 0
M  V30 61 H 0.0437 3.4824 1.3737 0
M  V30 62 H -2.6788 -1.8367 1.0621 0
M  V30 63 H -1.103 -5.2415 -1.1686 0
M  V30 64 H -1.0842 -5.1308 0.6169 0
M  V30 65 H -1.837 2.3554 2.5011 0
M  V30 66 H -1.4629 3.9231 3.3094 0
M  V30 67 H -3.4606 -5.7338 -1.2192 0
M  V30 68 H -2.7974 -6.6725 0.146 0
M  V30 END ATOM
M  V30 BEGIN BOND
M  V30 1 2 1 2
M  V30 2 2 1 3
M  V30 3 1 1 4
M  V30 4 1 1 5
M  V30 5 1 5 6
M  V30 6 1 5 7
M  V30 7 1 5 8
M  V30 8 1 6 9
M  V30 9 2 7 10
M  V30 10 1 8 11
M  V30 11 2 9 12
M  V30 12 1 9 13
M  V30 13 1 10 14
M  V30 14 1 10 15
M  V30 15 1 12 16
M  V30 16 2 13 17
M  V30 17 2 14 18
M  V30 18 2 15 19
M  V30 19 1 15 20
M  V30 20 2 16 21
M  V30 21 1 16 22
M  V30 22 1 17 23
M  V30 23 1 22 24
M  V30 24 1 23 25
M  V30 25 1 24 26
M  V30 26 1 24 27
M  V30 27 1 24 28
M  V30 28 1 25 29
M  V30 29 1 25 30
M  V30 30 1 25 31
M  V30 31 2 26 32
M  V30 32 2 26 33
M  V30 33 1 26 34
M  V30 34 2 27 35
M  V30 35 1 28 36
M  V30 36 2 29 37
M  V30 37 2 29 38
M  V30 38 1 29 39
M  V30 39 2 30 40
M  V30 40 1 31 41
M  V30 41 1 35 42
M  V30 42 1 35 43
M  V30 43 1 40 44
M  V30 44 1 40 45
M  V30 45 2 42 46
M  V30 46 2 43 47
M  V30 47 1 43 48
M  V30 48 2 44 49
M  V30 49 2 45 50
M  V30 50 1 45 51
M  V30 51 1 11 14
M  V30 52 1 17 21
M  V30 53 1 36 42
M  V30 54 1 41 44
M  V30 55 1 7 52
M  V30 56 1 8 53
M  V30 57 1 8 54
M  V30 58 1 11 55
M  V30 59 1 11 56
M  V30 60 1 12 57
M  V30 61 1 13 58
M  V30 62 1 27 59
M  V30 63 1 28 60
M  V30 64 1 28 61
M  V30 65 1 30 62
M  V30 66 1 31 63
M  V30 67 1 31 64
M  V30 68 1 36 65
M  V30 69 1 36 66
M  V30 70 1 41 67
M  V30 71 1 41 68
M  V30 END BOND
M  V30 BEGIN COLLECTION
M  V30 MDLV30/STEABS ATOMS=(3 5 24 25)
M  V30 END COLLECTION
M  V30 END CTAB
M  END
>  <Structure No>
2230

>  <LogS>
-0.689646011

>  <MMFF94 Energy>
937.52

$$$$
Compound 2231
Actelion Java MolfileCreator 2.0

  0  0  0  0  0  0              0 V3000
M  V30 BEGIN CTAB
M  V30 COUNTS 4 3 0 0 0
M  V30 BEGIN ATOM
M  V30 1 O -1.0099 -0.7768 0.0 0
M  V30 2 C -0.0603 0.0482 -0.0083 0
M  V30 3 O 1.2502 -0.4012 0.0761 0 CHG=-1
M  V30 4 H -0.2651 1.1076 -0.0812 0
M  V30 END ATOM
M  V30 BEGIN BOND
M  V30 1 2 1 2
M  V30 2 1 2 3
M  V30 3 1 2 4
M  V30 END BOND
M  V30 END CTAB
M  END
>  <Structure No>
2231

>  <LogS>
0.121211094

>  <MMFF94 Energy>
0.012811

$$$$
Compound 2232
Actelion Java MolfileCreator 2.0

  0  0  0  0  0  0              0 V3000
M  V30 BEGIN CTAB
M  V30 COUNTS 20 19 0 0 0
M  V30 BEGIN ATOM
M  V30 1 O 1.9578 -0.313 1.566 0
M  V30 2 C 2.5207 -0.0806 0.4618 0
M  V30 3 O 1.7913 0.4122 -0.6259 0
M  V30 4 C 3.974 -0.3711 0.3002 0
M  V30 5 C 0.387 0.6574 -0.5817 0
M  V30 6 C -0.3909 -0.6567 -0.6663 0
M  V30 7 O -1.7936 -0.4058 -0.7243 0
M  V30 8 C -2.5556 -0.0355 0.3896 0
M  V30 9 O -2.0257 0.0716 1.5289 0
M  V30 10 C -4.004 0.2734 0.2187 0
M  V30 11 H 4.386 0.2128 -0.5491 0
M  V30 12 H 4.5228 -0.0943 1.2251 0
M  V30 13 H 4.1145 -1.4536 0.1001 0
M  V30 14 H 0.1136 1.2917 -1.4512 0
M  V30 15 H 0.125 1.2139 0.344 0
M  V30 16 H -0.091 -1.1908 -1.5926 0
M  V30 17 H -0.1554 -1.3129 0.199 0
M  V30 18 H -4.1405 1.3718 0.137 0
M  V30 19 H -4.3897 -0.2109 -0.7026 0
M  V30 20 H -4.5795 -0.1041 1.0901 0
M  V30 END ATOM
M  V30 BEGIN BOND
M  V30 1 2 1 2
M  V30 2 1 2 3
M  V30 3 1 2 4
M  V30 4 1 3 5
M  V30 5 1 5 6
M  V30 6 1 6 7
M  V30 7 1 7 8
M  V30 8 2 8 9
M  V30 9 1 8 10
M  V30 10 1 4 11
M  V30 11 1 4 12
M  V30 12 1 4 13
M  V30 13 1 5 14
M  V30 14 1 5 15
M  V30 15 1 6 16
M  V30 16 1 6 17
M  V30 17 1 10 18
M  V30 18 1 10 19
M  V30 19 1 10 20
M  V30 END BOND
M  V30 END CTAB
M  END
>  <Structure No>
2232

>  <LogS>
0.068474963

>  <MMFF94 Energy>
-11.889

$$$$
Compound 2233
Actelion Java MolfileCreator 2.0

  0  0  0  0  0  0              0 V3000
M  V30 BEGIN CTAB
M  V30 COUNTS 54 57 0 0 0
M  V30 BEGIN ATOM
M  V30 1 S 5.9765 2.8143 1.4491 0
M  V30 2 O 4.5281 3.154 1.2292 0
M  V30 3 O 6.1633 2.2645 2.8362 0
M  V30 4 O 6.501 1.6901 0.2945 0
M  V30 5 O 6.8914 4.2137 1.2924 0 CHG=-1
M  V30 6 C 5.7256 0.5235 0.4235 0
M  V30 7 C 6.1823 -0.4939 -0.6177 0
M  V30 8 S 5.2479 -2.0106 -0.4892 0
M  V30 9 O 5.4682 -2.6265 0.8644 0
M  V30 10 O 5.7212 -2.9777 -1.5375 0
M  V30 11 C 3.5346 -1.6827 -0.7312 0
M  V30 12 C 3.0352 -1.4992 -2.026 0
M  V30 13 C 2.6727 -1.5591 0.3662 0
M  V30 14 C 1.6826 -1.2091 -2.2243 0
M  V30 15 C 1.3199 -1.2685 0.1697 0
M  V30 16 C 0.8096 -1.1026 -1.1311 0
M  V30 17 N -0.5743 -0.7813 -1.3596 0
M  V30 18 C -1.6128 -0.9996 -0.3909 0
M  V30 19 C -2.5207 0.0274 -0.0373 0
M  V30 20 C -1.7641 -2.2791 0.1474 0
M  V30 21 C -2.3627 1.4191 -0.5573 0
M  V30 22 C -3.5888 -0.2622 0.8525 0
M  V30 23 C -2.8236 -2.5866 1.0017 0
M  V30 24 O -1.3119 1.7665 -1.1613 0
M  V30 25 C -3.428 2.4201 -0.3386 0
M  V30 26 C -4.4735 0.8567 1.2957 0
M  V30 27 C -3.7655 -1.5891 1.3351 0
M  V30 28 S -2.9867 -4.2507 1.5863 0
M  V30 29 C -4.4645 2.1433 0.5698 0
M  V30 30 C -3.4039 3.6573 -1.0082 0
M  V30 31 O -5.1875 0.7436 2.3289 0
M  V30 32 N -4.9276 -1.9397 2.1031 0
M  V30 33 O -1.9145 -5.1249 0.9982 0
M  V30 34 O -4.3276 -4.7982 1.1856 0
M  V30 35 O -2.8401 -4.2742 3.2597 0 CHG=-1
M  V30 36 C -5.4632 3.1072 0.7996 0
M  V30 37 C -4.4045 4.6041 -0.7777 0
M  V30 38 C -5.4323 4.3297 0.1249 0
M  V30 39 H 5.8562 0.079 1.4357 0
M  V30 40 H 4.6505 0.7517 0.2487 0
M  V30 41 H 6.0446 -0.0725 -1.6363 0
M  V30 42 H 7.2592 -0.7223 -0.4696 0
M  V30 43 H 3.6943 -1.5735 -2.8815 0
M  V30 44 H 3.0483 -1.6737 1.3749 0
M  V30 45 H 1.3131 -1.0685 -3.2322 0
M  V30 46 H 0.6794 -1.1573 1.0347 0
M  V30 47 H -0.8578 -0.4287 -2.3018 0
M  V30 48 H -1.064 -3.0518 -0.1425 0
M  V30 49 H -2.6147 3.8917 -1.7114 0
M  V30 50 H -4.9104 -2.708 2.8075 0
M  V30 51 H -5.8579 -1.519 1.8874 0
M  V30 52 H -6.269 2.9143 1.4967 0
M  V30 53 H -4.3816 5.5529 -1.2981 0
M  V30 54 H -6.2056 5.0658 0.3035 0
M  V30 END ATOM
M  V30 BEGIN BOND
M  V30 1 2 1 2
M  V30 2 2 1 3
M  V30 3 1 1 4
M  V30 4 1 1 5
M  V30 5 1 4 6
M  V30 6 1 6 7
M  V30 7 1 7 8
M  V30 8 2 8 9
M  V30 9 2 8 10
M  V30 10 1 8 11
M  V30 11 2 11 12
M  V30 12 1 11 13
M  V30 13 1 12 14
M  V30 14 2 13 15
M  V30 15 2 14 16
M  V30 16 1 16 17
M  V30 17 1 17 18
M  V30 18 2 18 19
M  V30 19 1 18 20
M  V30 20 1 19 21
M  V30 21 1 19 22
M  V30 22 2 20 23
M  V30 23 2 21 24
M  V30 24 1 21 25
M  V30 25 1 22 26
M  V30 26 2 22 27
M  V30 27 1 23 28
M  V30 28 2 25 29
M  V30 29 1 25 30
M  V30 30 2 26 31
M  V30 31 1 27 32
M  V30 32 2 28 33
M  V30 33 2 28 34
M  V30 34 1 28 35
M  V30 35 1 29 36
M  V30 36 2 30 37
M  V30 37 2 36 38
M  V30 38 1 15 16
M  V30 39 1 23 27
M  V30 40 1 26 29
M  V30 41 1 37 38
M  V30 42 1 6 39
M  V30 43 1 6 40
M  V30 44 1 7 41
M  V30 45 1 7 42
M  V30 46 1 12 43
M  V30 47 1 13 44
M  V30 48 1 14 45
M  V30 49 1 15 46
M  V30 50 1 17 47
M  V30 51 1 20 48
M  V30 52 1 30 49
M  V30 53 1 32 50
M  V30 54 1 32 51
M  V30 55 1 36 52
M  V30 56 1 37 53
M  V30 57 1 38 54
M  V30 END BOND
M  V30 END CTAB
M  END
>  <Structure No>
2233

>  <LogS>
-0.563962397

>  <MMFF94 Energy>
105.34

$$$$
Compound 2234
Actelion Java MolfileCreator 2.0

  0  0  0  0  0  0              0 V3000
M  V30 BEGIN CTAB
M  V30 COUNTS 56 59 0 0 0
M  V30 BEGIN ATOM
M  V30 1 S -7.6541 1.1619 2.3249 0
M  V30 2 O -6.8058 0.3959 3.3006 0
M  V30 3 O -8.9695 0.4605 2.1381 0
M  V30 4 O -7.9379 2.6948 2.9529 0 CHG=-1
M  V30 5 C -6.8181 1.2794 0.7709 0
M  V30 6 C -6.2696 0.1394 0.1366 0
M  V30 7 C -6.6743 2.5399 0.1697 0
M  V30 8 C -5.6095 0.2893 -1.0969 0
M  V30 9 C -6.4331 -1.2133 0.7188 0
M  V30 10 C -6.0009 2.6736 -1.0457 0
M  V30 11 C -5.47 1.5504 -1.6784 0
M  V30 12 C -5.4411 -2.1039 0.874 0
M  V30 13 C -4.0069 -1.8279 0.636 0
M  V30 14 C -3.2189 -2.8028 0.01 0
M  V30 15 C -3.4011 -0.6417 1.084 0
M  V30 16 C -1.8577 -2.5776 -0.2127 0
M  V30 17 C -2.0403 -0.4156 0.8626 0
M  V30 18 C -1.2539 -1.3786 0.2062 0
M  V30 19 C 0.1919 -1.1372 -0.0331 0
M  V30 20 C 0.9895 -0.5351 0.9549 0
M  V30 21 C 0.7872 -1.5125 -1.2493 0
M  V30 22 C 2.3499 -0.3063 0.73 0
M  V30 23 C 2.1471 -1.2837 -1.4745 0
M  V30 24 C 2.9413 -0.6663 -0.4961 0
M  V30 25 C 4.3818 -0.4553 -0.78 0
M  V30 26 C 5.1375 0.4584 -0.1524 0
M  V30 27 C 6.5794 0.6467 -0.4508 0
M  V30 28 C 7.4978 0.9911 0.574 0
M  V30 29 C 7.0463 0.5311 -1.7758 0
M  V30 30 S 6.9946 1.1392 2.2659 0
M  V30 31 C 8.8485 1.2003 0.2499 0
M  V30 32 C 8.3932 0.7375 -2.0769 0
M  V30 33 O 8.1962 1.2531 3.1616 0
M  V30 34 O 6.2093 -0.0766 2.6702 0
M  V30 35 O 6.0467 2.5134 2.4516 0 CHG=-1
M  V30 36 C 9.2923 1.071 -1.0663 0
M  V30 37 H -7.0824 3.4248 0.6398 0
M  V30 38 H -5.2091 -0.5733 -1.6151 0
M  V30 39 H -7.4309 -1.5145 1.0119 0
M  V30 40 H -5.8944 3.6501 -1.5003 0
M  V30 41 H -4.9559 1.6555 -2.6249 0
M  V30 42 H -5.7076 -3.1028 1.1976 0
M  V30 43 H -3.6616 -3.7357 -0.3172 0
M  V30 44 H -3.9763 0.1062 1.6148 0
M  V30 45 H -1.2732 -3.3499 -0.6965 0
M  V30 46 H -1.6057 0.5185 1.1956 0
M  V30 47 H 0.5664 -0.263 1.9139 0
M  V30 48 H 0.1971 -1.9678 -2.0347 0
M  V30 49 H 2.9336 0.125 1.5313 0
M  V30 50 H 2.5782 -1.5791 -2.4235 0
M  V30 51 H 4.8286 -1.0709 -1.5511 0
M  V30 52 H 4.6989 1.0855 0.6091 0
M  V30 53 H 6.3662 0.3068 -2.5875 0
M  V30 54 H 9.5655 1.4637 1.0164 0
M  V30 55 H 8.7385 0.6482 -3.0987 0
M  V30 56 H 10.3356 1.2342 -1.3037 0
M  V30 END ATOM
M  V30 BEGIN BOND
M  V30 1 2 1 2
M  V30 2 2 1 3
M  V30 3 1 1 4
M  V30 4 1 1 5
M  V30 5 2 5 6
M  V30 6 1 5 7
M  V30 7 1 6 8
M  V30 8 1 6 9
M  V30 9 2 7 10
M  V30 10 2 8 11
M  V30 11 2 9 12
M  V30 12 1 12 13
M  V30 13 2 13 14
M  V30 14 1 13 15
M  V30 15 1 14 16
M  V30 16 2 15 17
M  V30 17 2 16 18
M  V30 18 1 18 19
M  V30 19 2 19 20
M  V30 20 1 19 21
M  V30 21 1 20 22
M  V30 22 2 21 23
M  V30 23 2 22 24
M  V30 24 1 24 25
M  V30 25 2 25 26
M  V30 26 1 26 27
M  V30 27 2 27 28
M  V30 28 1 27 29
M  V30 29 1 28 30
M  V30 30 1 28 31
M  V30 31 2 29 32
M  V30 32 2 30 33
M  V30 33 2 30 34
M  V30 34 1 30 35
M  V30 35 2 31 36
M  V30 36 1 10 11
M  V30 37 1 17 18
M  V30 38 1 23 24
M  V30 39 1 32 36
M  V30 40 1 7 37
M  V30 41 1 8 38
M  V30 42 1 9 39
M  V30 43 1 10 40
M  V30 44 1 11 41
M  V30 45 1 12 42
M  V30 46 1 14 43
M  V30 47 1 15 44
M  V30 48 1 16 45
M  V30 49 1 17 46
M  V30 50 1 20 47
M  V30 51 1 21 48
M  V30 52 1 22 49
M  V30 53 1 23 50
M  V30 54 1 25 51
M  V30 55 1 26 52
M  V30 56 1 29 53
M  V30 57 1 31 54
M  V30 58 1 32 55
M  V30 59 1 36 56
M  V30 END BOND
M  V30 END CTAB
M  END
>  <Structure No>
2234

>  <LogS>
-1.504668533

>  <MMFF94 Energy>
169.08

$$$$
Compound 2235
Actelion Java MolfileCreator 2.0

  0  0  0  0  0  0              0 V3000
M  V30 BEGIN CTAB
M  V30 COUNTS 10 9 0 0 0
M  V30 BEGIN ATOM
M  V30 1 Cl 2.914 0.1039 -0.3119 0
M  V30 2 C 1.2674 0.4712 0.2826 0
M  V30 3 Cl 1.2509 0.1009 2.0273 0
M  V30 4 Cl 1.0005 2.2163 0.0278 0
M  V30 5 C 0.2167 -0.3475 -0.452 0
M  V30 6 O 0.5846 -1.1259 -1.3214 0
M  V30 7 C -1.2775 -0.2652 -0.1779 0
M  V30 8 Cl -2.117 0.2167 -1.6737 0
M  V30 9 Cl -1.8694 -1.8753 0.3039 0
M  V30 10 Cl -1.7552 0.8878 1.1017 0
M  V30 END ATOM
M  V30 BEGIN BOND
M  V30 1 1 1 2
M  V30 2 1 2 3
M  V30 3 1 2 4
M  V30 4 1 2 5
M  V30 5 2 5 6
M  V30 6 1 5 7
M  V30 7 1 7 8
M  V30 8 1 7 9
M  V30 9 1 7 10
M  V30 END BOND
M  V30 END CTAB
M  END
>  <Structure No>
2235

>  <LogS>
-1.17979792

>  <MMFF94 Energy>
40.664

$$$$
Compound 2236
Actelion Java MolfileCreator 2.0

  0  0  0  0  0  0              0 V3000
M  V30 BEGIN CTAB
M  V30 COUNTS 10 9 0 0 0
M  V30 BEGIN ATOM
M  V30 1 O -0.5966 -0.8951 0.2983 0
M  V30 2 C 0.7264 -0.8797 -0.1678 0
M  V30 3 C -1.3424 0.2664 0.651 0
M  V30 4 C 1.4342 0.2388 -0.3317 0
M  V30 5 H 1.1936 -1.8265 -0.4056 0
M  V30 6 H -0.8408 0.8043 1.4832 0
M  V30 7 H -1.4456 0.936 -0.229 0
M  V30 8 H -2.3548 -0.0398 0.985 0
M  V30 9 H 2.4519 0.1818 -0.6955 0
M  V30 10 H 1.0227 1.214 -0.1114 0
M  V30 END ATOM
M  V30 BEGIN BOND
M  V30 1 1 1 2
M  V30 2 1 1 3
M  V30 3 2 2 4
M  V30 4 1 2 5
M  V30 5 1 3 6
M  V30 6 1 3 7
M  V30 7 1 3 8
M  V30 8 1 4 9
M  V30 9 1 4 10
M  V30 END BOND
M  V30 END CTAB
M  END
>  <Structure No>
2236

>  <LogS>
-0.531030497

>  <MMFF94 Energy>
7.3357

$$$$
Compound 2237
Actelion Java MolfileCreator 2.0

  0  0  0  0  0  0              0 V3000
M  V30 BEGIN CTAB
M  V30 COUNTS 25 24 0 0 0
M  V30 BEGIN ATOM
M  V30 1 O -2.2516 -1.6301 -1.3194 0
M  V30 2 C -2.1757 -0.7718 -0.3963 0
M  V30 3 O -0.9251 -0.3485 0.0653 0
M  V30 4 C -3.4036 -0.2047 0.2048 0
M  V30 5 C 0.2996 -0.8469 -0.4625 0
M  V30 6 C -4.6138 -0.5284 -0.2663 0
M  V30 7 C -3.2785 0.8052 1.3119 0
M  V30 8 C 1.4687 -0.1858 0.2531 0
M  V30 9 O 2.6788 -0.6903 -0.2725 0
M  V30 10 C 3.7851 -0.0022 0.2801 0
M  V30 11 C 4.2443 1.1035 -0.6636 0
M  V30 12 H 0.3493 -1.9478 -0.3145 0
M  V30 13 H 0.3565 -0.6214 -1.5499 0
M  V30 14 H -4.7339 -1.2328 -1.0797 0
M  V30 15 H -5.511 -0.0905 0.1532 0
M  V30 16 H -4.2294 0.9151 1.8769 0
M  V30 17 H -2.494 0.4887 2.0312 0
M  V30 18 H -2.9999 1.7904 0.8829 0
M  V30 19 H 1.3944 -0.4189 1.3397 0
M  V30 20 H 1.3941 0.9156 0.1035 0
M  V30 21 H 4.6181 -0.7278 0.3929 0
M  V30 22 H 3.5935 0.4188 1.2959 0
M  V30 23 H 4.4763 0.6783 -1.6629 0
M  V30 24 H 3.4522 1.8737 -0.7709 0
M  V30 25 H 5.158 1.5864 -0.2575 0
M  V30 END ATOM
M  V30 BEGIN BOND
M  V30 1 2 1 2
M  V30 2 1 2 3
M  V30 3 1 2 4
M  V30 4 1 3 5
M  V30 5 2 4 6
M  V30 6 1 4 7
M  V30 7 1 5 8
M  V30 8 1 8 9
M  V30 9 1 9 10
M  V30 10 1 10 11
M  V30 11 1 5 12
M  V30 12 1 5 13
M  V30 13 1 6 14
M  V30 14 1 6 15
M  V30 15 1 7 16
M  V30 16 1 7 17
M  V30 17 1 7 18
M  V30 18 1 8 19
M  V30 19 1 8 20
M  V30 20 1 10 21
M  V30 21 1 10 22
M  V30 22 1 11 23
M  V30 23 1 11 24
M  V30 24 1 11 25
M  V30 END BOND
M  V30 END CTAB
M  END
>  <Structure No>
2237

>  <LogS>
-0.96747386

>  <MMFF94 Energy>
18.393

$$$$
Compound 2238
Actelion Java MolfileCreator 2.0

  0  0  0  0  0  0              0 V3000
M  V30 BEGIN CTAB
M  V30 COUNTS 19 18 0 0 0
M  V30 BEGIN ATOM
M  V30 1 Cl -1.7672 -2.0084 -1.8476 0
M  V30 2 C -1.2811 -0.6781 -0.7602 0 CFG=2
M  V30 3 C 0.2117 -0.5954 -0.6653 0
M  V30 4 C -1.8818 -0.8792 0.6075 0
M  V30 5 O 0.8911 -1.638 -0.4548 0
M  V30 6 O 0.8359 0.652 -0.7784 0
M  V30 7 O -1.6625 -1.9139 1.2201 0
M  V30 8 C -2.7448 0.1714 1.2423 0
M  V30 9 C 2.2394 0.8451 -0.6159 0
M  V30 10 C 2.6215 0.7931 0.8588 0
M  V30 11 H -1.6585 0.2639 -1.2115 0
M  V30 12 H -2.8506 1.0618 0.5882 0
M  V30 13 H -3.7541 -0.2469 1.4389 0
M  V30 14 H -2.2914 0.4918 2.2036 0
M  V30 15 H 2.8053 0.0791 -1.1893 0
M  V30 16 H 2.5075 1.8445 -1.0184 0
M  V30 17 H 2.4058 -0.2107 1.28 0
M  V30 18 H 2.048 1.5567 1.4257 0
M  V30 19 H 3.7063 1.001 0.9708 0
M  V30 END ATOM
M  V30 BEGIN BOND
M  V30 1 1 1 2
M  V30 2 1 2 3
M  V30 3 1 2 4
M  V30 4 2 3 5
M  V30 5 1 3 6
M  V30 6 2 4 7
M  V30 7 1 4 8
M  V30 8 1 6 9
M  V30 9 1 9 10
M  V30 10 1 2 11
M  V30 11 1 8 12
M  V30 12 1 8 13
M  V30 13 1 8 14
M  V30 14 1 9 15
M  V30 15 1 9 16
M  V30 16 1 10 17
M  V30 17 1 10 18
M  V30 18 1 10 19
M  V30 END BOND
M  V30 BEGIN COLLECTION
M  V30 MDLV30/STEABS ATOMS=(1 2)
M  V30 END COLLECTION
M  V30 END CTAB
M  END
>  <Structure No>
2238

>  <LogS>
-0.985949247

>  <MMFF94 Energy>
15.534

$$$$
Compound 2239
Actelion Java MolfileCreator 2.0

  0  0  0  0  0  0              0 V3000
M  V30 BEGIN CTAB
M  V30 COUNTS 78 82 0 0 0
M  V30 BEGIN ATOM
M  V30 1 Cl 0.085 -2.2127 0.0 0
M  V30 2 C 0.8803 -0.7989 -0.6621 0
M  V30 3 N 0.1405 0.2159 -1.1695 0
M  V30 4 N 2.2334 -0.7168 -0.6547 0
M  V30 5 C 0.7476 1.3289 -1.6568 0
M  V30 6 C 2.8539 0.3761 -1.1673 0
M  V30 7 N 2.1054 1.4035 -1.6515 0
M  V30 8 N -0.0202 2.4239 -2.1839 0
M  V30 9 N 4.2859 0.4802 -1.1655 0
M  V30 10 C -1.4041 2.3216 -2.5702 0
M  V30 11 C 5.1785 -0.5967 -0.8311 0
M  V30 12 C -1.8363 2.8107 -3.8242 0
M  V30 13 C -2.3408 1.7328 -1.7026 0
M  V30 14 C 6.399 -0.3041 -0.2064 0
M  V30 15 C 4.8855 -1.9269 -1.1724 0
M  V30 16 S -0.7083 3.5846 -4.9476 0
M  V30 17 C -3.1805 2.6599 -4.1997 0
M  V30 18 C -3.6739 1.5436 -2.1019 0
M  V30 19 C 7.2961 -1.3303 0.1462 0
M  V30 20 C 5.7649 -2.9532 -0.8252 0
M  V30 21 O -1.3902 3.8884 -6.2525 0
M  V30 22 O 0.4546 2.6667 -5.2077 0
M  V30 23 O -0.1512 5.0278 -4.2892 0 CHG=-1
M  V30 24 C -4.0957 2.0166 -3.3546 0
M  V30 25 N -4.5869 0.8018 -1.2834 0
M  V30 26 N 8.5711 -1.0077 0.7309 0
M  V30 27 C 6.9638 -2.6717 -0.1534 0
M  V30 28 S -5.7751 1.8127 -3.8655 0
M  V30 29 N -4.3709 0.5638 -0.0527 0
M  V30 30 C 8.7689 0.0472 1.6828 0
M  V30 31 S 8.0183 -4.0147 0.3179 0
M  V30 32 O -6.0312 2.5666 -5.1422 0
M  V30 33 O -6.6966 2.341 -2.8017 0
M  V30 34 O -6.0842 0.1805 -4.118 0 CHG=-1
M  V30 35 C -5.2697 -0.253 0.7118 0
M  V30 36 N 7.7176 0.5847 2.3619 0
M  V30 37 N 10.0244 0.507 1.9193 0
M  V30 38 O 9.1736 -4.1077 -0.6385 0
M  V30 39 O 7.2521 -5.3074 0.2928 0
M  V30 40 O 8.5989 -3.7732 1.8781 0 CHG=-1
M  V30 41 C -5.7921 -1.4392 0.1625 0
M  V30 42 C -5.6213 0.1209 2.0241 0
M  V30 43 C 7.9195 1.5902 3.25 0
M  V30 44 C 10.2305 1.5113 2.809 0
M  V30 45 O -5.458 -1.7778 -1.0079 0
M  V30 46 N -6.6426 -2.2318 0.89 0
M  V30 47 C -6.4946 -0.7097 2.7643 0
M  V30 48 C -5.0991 1.4194 2.6045 0
M  V30 49 Cl 6.5551 2.2976 4.0906 0
M  V30 50 N 9.1759 2.0575 3.4704 0
M  V30 51 N 11.5509 1.9978 3.0371 0
M  V30 52 C -7.0112 -1.8732 2.1619 0
M  V30 53 C -7.2064 -3.4553 0.2841 0
M  V30 54 C -6.9186 -0.3705 4.146 0
M  V30 55 O -7.9062 -2.6701 2.8779 0 CHG=-1
M  V30 56 C -8.469 -3.1276 -0.5042 0
M  V30 57 O -8.1477 -0.34 4.4308 0
M  V30 58 N -5.9554 -0.0929 5.1681 0
M  V30 59 H 0.5189 3.2752 -2.4677 0
M  V30 60 H 4.697 1.4282 -1.3203 0
M  V30 61 H -2.0287 1.3988 -0.7214 0
M  V30 62 H 6.6528 0.7317 -0.0089 0
M  V30 63 H 3.9864 -2.1728 -1.7248 0
M  V30 64 H -3.5145 3.0355 -5.1579 0
M  V30 65 H 5.5115 -3.9695 -1.0971 0
M  V30 66 H 9.4096 -1.554 0.4424 0
M  V30 67 H -4.8679 2.1566 1.8065 0
M  V30 68 H -4.1739 1.2311 3.1927 0
M  V30 69 H -5.8668 1.8959 3.2535 0
M  V30 70 H 12.3561 1.6038 2.5033 0
M  V30 71 H 11.7213 2.7762 3.7107 0
M  V30 72 H -7.4426 -4.2167 1.0602 0
M  V30 73 H -6.4683 -3.9346 -0.3921 0
M  V30 74 H -8.2276 -2.4459 -1.3484 0
M  V30 75 H -8.9109 -4.06 -0.9084 0
M  V30 76 H -9.2157 -2.6397 0.1524 0
M  V30 77 H -4.9319 -0.1901 4.9833 0
M  V30 78 H -6.2745 0.1356 6.1338 0
M  V30 END ATOM
M  V30 BEGIN BOND
M  V30 1 1 1 2
M  V30 2 2 2 3
M  V30 3 1 2 4
M  V30 4 1 3 5
M  V30 5 2 4 6
M  V30 6 2 5 7
M  V30 7 1 5 8
M  V30 8 1 6 9
M  V30 9 1 8 10
M  V30 10 1 9 11
M  V30 11 2 10 12
M  V30 12 1 10 13
M  V30 13 2 11 14
M  V30 14 1 11 15
M  V30 15 1 12 16
M  V30 16 1 12 17
M  V30 17 2 13 18
M  V30 18 1 14 19
M  V30 19 2 15 20
M  V30 20 2 16 21
M  V30 21 2 16 22
M  V30 22 1 16 23
M  V30 23 2 17 24
M  V30 24 1 18 25
M  V30 25 1 19 26
M  V30 26 2 19 27
M  V30 27 1 24 28
M  V30 28 2 25 29
M  V30 29 1 26 30
M  V30 30 1 27 31
M  V30 31 2 28 32
M  V30 32 2 28 33
M  V30 33 1 28 34
M  V30 34 1 29 35
M  V30 35 2 30 36
M  V30 36 1 30 37
M  V30 37 2 31 38
M  V30 38 2 31 39
M  V30 39 1 31 40
M  V30 40 1 35 41
M  V30 41 2 35 42
M  V30 42 1 36 43
M  V30 43 2 37 44
M  V30 44 2 41 45
M  V30 45 1 41 46
M  V30 46 1 42 47
M  V30 47 1 42 48
M  V30 48 1 43 49
M  V30 49 2 43 50
M  V30 50 1 44 51
M  V30 51 1 46 52
M  V30 52 1 46 53
M  V30 53 1 47 54
M  V30 54 1 52 55
M  V30 55 1 53 56
M  V30 56 2 54 57
M  V30 57 1 54 58
M  V30 58 1 6 7
M  V30 59 1 18 24
M  V30 60 1 20 27
M  V30 61 1 44 50
M  V30 62 2 47 52
M  V30 63 1 8 59
M  V30 64 1 9 60
M  V30 65 1 13 61
M  V30 66 1 14 62
M  V30 67 1 15 63
M  V30 68 1 17 64
M  V30 69 1 20 65
M  V30 70 1 26 66
M  V30 71 1 48 67
M  V30 72 1 48 68
M  V30 73 1 48 69
M  V30 74 1 51 70
M  V30 75 1 51 71
M  V30 76 1 53 72
M  V30 77 1 53 73
M  V30 78 1 56 74
M  V30 79 1 56 75
M  V30 80 1 56 76
M  V30 81 1 58 77
M  V30 82 1 58 78
M  V30 END BOND
M  V30 END CTAB
M  END
>  <Structure No>
2239

>  <LogS>
-0.759001213

>  <MMFF94 Energy>
-153.07

$$$$
Compound 2240
Actelion Java MolfileCreator 2.0

  0  0  0  0  0  0              0 V3000
M  V30 BEGIN CTAB
M  V30 COUNTS 27 26 0 0 0
M  V30 BEGIN ATOM
M  V30 1 O 1.9153 1.4554 -0.9956 0
M  V30 2 C 1.7828 0.5673 0.084 0 CFG=1
M  V30 3 C 0.74 -0.5186 -0.2566 0
M  V30 4 C 3.1406 -0.0734 0.3853 0
M  V30 5 N -0.6047 0.0387 -0.5659 0 CHG=1
M  V30 6 C -1.4601 -0.9741 -1.2392 0
M  V30 7 C -1.2791 0.6172 0.6357 0
M  V30 8 C -1.6781 -2.2592 -0.4231 0
M  V30 9 C -1.3237 2.1489 0.5942 0
M  V30 10 H 2.3285 2.2841 -0.6369 0
M  V30 11 H 1.4559 1.1133 0.9975 0
M  V30 12 H 0.6756 -1.2305 0.5971 0
M  V30 13 H 1.1209 -1.091 -1.1337 0
M  V30 14 H 3.0538 -0.7766 1.241 0
M  V30 15 H 3.516 -0.6255 -0.5028 0
M  V30 16 H 3.878 0.7128 0.6531 0
M  V30 17 H -0.4734 0.7904 -1.2844 0
M  V30 18 H -2.4531 -0.5286 -1.4755 0
M  V30 19 H -1.0118 -1.255 -2.2191 0
M  V30 20 H -2.3358 0.2777 0.7219 0
M  V30 21 H -0.7822 0.3002 1.5797 0
M  V30 22 H -2.449 -2.8825 -0.9232 0
M  V30 23 H -0.7435 -2.8555 -0.3726 0
M  V30 24 H -2.0267 -2.036 0.6056 0
M  V30 25 H -0.3035 2.5764 0.5207 0
M  V30 26 H -1.9211 2.488 -0.2787 0
M  V30 27 H -1.802 2.5334 1.5199 0
M  V30 END ATOM
M  V30 BEGIN BOND
M  V30 1 1 1 2
M  V30 2 1 2 3
M  V30 3 1 2 4
M  V30 4 1 3 5
M  V30 5 1 5 6
M  V30 6 1 5 7
M  V30 7 1 6 8
M  V30 8 1 7 9
M  V30 9 1 1 10
M  V30 10 1 2 11
M  V30 11 1 3 12
M  V30 12 1 3 13
M  V30 13 1 4 14
M  V30 14 1 4 15
M  V30 15 1 4 16
M  V30 16 1 5 17
M  V30 17 1 6 18
M  V30 18 1 6 19
M  V30 19 1 7 20
M  V30 20 1 7 21
M  V30 21 1 8 22
M  V30 22 1 8 23
M  V30 23 1 8 24
M  V30 24 1 9 25
M  V30 25 1 9 26
M  V30 26 1 9 27
M  V30 END BOND
M  V30 BEGIN COLLECTION
M  V30 MDLV30/STEABS ATOMS=(1 2)
M  V30 END COLLECTION
M  V30 END CTAB
M  END
>  <Structure No>
2240

>  <LogS>
0.102111364

>  <MMFF94 Energy>
27.131

$$$$
Compound 2241
Actelion Java MolfileCreator 2.0

  0  0  0  0  0  0              0 V3000
M  V30 BEGIN CTAB
M  V30 COUNTS 9 8 0 0 0
M  V30 BEGIN ATOM
M  V30 1 S 0.2339 2.1069 -0.2339 0
M  V30 2 C 0.1656 0.4752 -0.1142 0
M  V30 3 N 1.3679 -0.2701 0.0821 0
M  V30 4 C -1.1623 -0.2038 -0.0085 0
M  V30 5 H 1.3338 -1.3021 0.2371 0
M  V30 6 H 2.2978 0.2051 0.0709 0
M  V30 7 H -1.9204 0.3256 -0.624 0
M  V30 8 H -1.086 -1.2501 -0.3716 0
M  V30 9 H -1.4916 -0.21 1.0513 0
M  V30 END ATOM
M  V30 BEGIN BOND
M  V30 1 2 1 2
M  V30 2 1 2 3
M  V30 3 1 2 4
M  V30 4 1 3 5
M  V30 5 1 3 6
M  V30 6 1 4 7
M  V30 7 1 4 8
M  V30 8 1 4 9
M  V30 END BOND
M  V30 END CTAB
M  END
>  <Structure No>
2241

>  <LogS>
0.336339534

>  <MMFF94 Energy>
-11.701

$$$$
Compound 2242
Actelion Java MolfileCreator 2.0

  0  0  0  0  0  0              0 V3000
M  V30 BEGIN CTAB
M  V30 COUNTS 21 20 0 0 0
M  V30 BEGIN ATOM
M  V30 1 O 1.1636 0.4653 1.707 0
M  V30 2 C 1.728 0.3919 0.5818 0
M  V30 3 O 1.1288 -0.2957 -0.4799 0
M  V30 4 C 3.0804 0.9906 0.3961 0
M  V30 5 C -0.1826 -0.8604 -0.4222 0 CFG=1
M  V30 6 C -1.2404 0.2082 -0.7517 0
M  V30 7 C -0.2621 -2.0111 -1.4244 0
M  V30 8 O -1.1984 1.2682 0.1857 0
M  V30 9 C -2.1507 1.0627 1.2063 0
M  V30 10 H 3.1621 1.9357 0.9737 0
M  V30 11 H 3.2524 1.2115 -0.6781 0
M  V30 12 H 3.8527 0.2764 0.7495 0
M  V30 13 H -0.3728 -1.2844 0.5884 0
M  V30 14 H -2.2512 -0.2588 -0.8403 0
M  V30 15 H -1.0115 0.6344 -1.7521 0
M  V30 16 H -0.0771 -1.6422 -2.4562 0
M  V30 17 H 0.5042 -2.7762 -1.1777 0
M  V30 18 H -1.2632 -2.4915 -1.383 0
M  V30 19 H -2.0064 0.0817 1.7106 0
M  V30 20 H -3.1842 1.1434 0.803 0
M  V30 21 H -2.0249 1.8553 1.9721 0
M  V30 END ATOM
M  V30 BEGIN BOND
M  V30 1 2 1 2
M  V30 2 1 2 3
M  V30 3 1 2 4
M  V30 4 1 3 5
M  V30 5 1 5 6
M  V30 6 1 5 7
M  V30 7 1 6 8
M  V30 8 1 8 9
M  V30 9 1 4 10
M  V30 10 1 4 11
M  V30 11 1 4 12
M  V30 12 1 5 13
M  V30 13 1 6 14
M  V30 14 1 6 15
M  V30 15 1 7 16
M  V30 16 1 7 17
M  V30 17 1 7 18
M  V30 18 1 9 19
M  V30 19 1 9 20
M  V30 20 1 9 21
M  V30 END BOND
M  V30 BEGIN COLLECTION
M  V30 MDLV30/STEABS ATOMS=(1 5)
M  V30 END COLLECTION
M  V30 END CTAB
M  END
>  <Structure No>
2242

>  <LogS>
0.083023239

>  <MMFF94 Energy>
12.529

$$$$
Compound 2243
Actelion Java MolfileCreator 2.0

  0  0  0  0  0  0              0 V3000
M  V30 BEGIN CTAB
M  V30 COUNTS 63 66 0 0 0
M  V30 BEGIN ATOM
M  V30 1 S 7.3206 -2.7722 -3.0245 0
M  V30 2 O 8.2275 -2.6665 -4.2189 0
M  V30 3 O 5.9045 -2.8284 -3.5254 0
M  V30 4 O 7.6615 -4.1877 -2.1874 0 CHG=-1
M  V30 5 C 7.5617 -1.38 -1.9431 0
M  V30 6 C 8.8589 -0.8504 -1.6783 0
M  V30 7 C 6.4733 -0.776 -1.2879 0
M  V30 8 C 8.9989 0.2826 -0.8425 0
M  V30 9 C 10.1011 -1.4524 -2.2791 0
M  V30 10 S 4.8407 -1.1876 -1.2989 0
M  V30 11 C 6.6267 0.3227 -0.4529 0
M  V30 12 C 7.8852 0.8714 -0.2309 0
M  V30 13 C 4.4054 0.0665 -0.2475 0
M  V30 14 N 5.4884 0.7945 0.1191 0
M  V30 15 C 3.0343 0.3522 0.2309 0
M  V30 16 C 1.9623 -0.4928 -0.1051 0
M  V30 17 C 2.7859 1.4783 1.0369 0
M  V30 18 C 0.6726 -0.2177 0.3562 0
M  V30 19 C 1.4925 1.756 1.49 0
M  V30 20 C 0.4286 0.9063 1.1505 0
M  V30 21 N -0.907 1.1688 1.588 0 CHG=-1
M  V30 22 N -1.2394 2.2879 2.3667 0
M  V30 23 C -2.4628 2.5538 2.7224 0
M  V30 24 C -3.5853 1.6946 2.2811 0
M  V30 25 C -2.7066 3.7181 3.6025 0
M  V30 26 O -4.3839 1.2351 3.1414 0
M  V30 27 N -3.7384 1.3623 0.8902 0
M  V30 28 O -1.7256 4.3482 4.0822 0
M  V30 29 C -4.0927 4.1628 3.9584 0
M  V30 30 C -4.6857 0.4006 0.3971 0
M  V30 31 C -4.2868 -0.5258 -0.5791 0
M  V30 32 C -6.0152 0.4127 0.8412 0
M  V30 33 O -2.9558 -0.5003 -1.0259 0
M  V30 34 C -5.2194 -1.454 -1.0747 0
M  V30 35 C -6.9496 -0.5155 0.3549 0
M  V30 36 C -2.4159 -1.3726 -2.0136 0
M  V30 37 C -6.5476 -1.4574 -0.6195 0
M  V30 38 C -8.3692 -0.4501 0.8552 0
M  V30 39 S -7.6798 -2.6488 -1.2835 0
M  V30 40 O -8.0868 -3.6129 -0.2052 0
M  V30 41 O -7.0346 -3.4183 -2.4019 0
M  V30 42 O -9.0393 -1.8704 -1.8906 0 CHG=-1
M  V30 43 H 9.9785 0.707 -0.6545 0
M  V30 44 H 11.0147 -1.1054 -1.7495 0
M  V30 45 H 10.075 -2.5591 -2.1952 0
M  V30 46 H 10.1843 -1.1539 -3.3457 0
M  V30 47 H 8.0067 1.7292 0.4184 0
M  V30 48 H 2.1152 -1.3684 -0.7213 0
M  V30 49 H 3.5908 2.149 1.3128 0
M  V30 50 H -0.1404 -0.8824 0.0945 0
M  V30 51 H 1.3266 2.6318 2.1044 0
M  V30 52 H -3.052 1.7614 0.2119 0
M  V30 53 H -4.5248 3.4723 4.7122 0
M  V30 54 H -4.072 5.1875 4.3861 0
M  V30 55 H -4.7354 4.1761 3.0537 0
M  V30 56 H -6.3321 1.1662 1.5508 0
M  V30 57 H -4.9141 -2.1782 -1.8168 0
M  V30 58 H -2.4807 -2.4257 -1.6679 0
M  V30 59 H -1.3496 -1.1179 -2.1792 0
M  V30 60 H -2.9616 -1.248 -2.9723 0
M  V30 61 H -8.7118 -1.4534 1.1821 0
M  V30 62 H -8.4629 0.2313 1.7269 0
M  V30 63 H -9.0329 -0.072 0.0496 0
M  V30 END ATOM
M  V30 BEGIN BOND
M  V30 1 2 1 2
M  V30 2 2 1 3
M  V30 3 1 1 4
M  V30 4 1 1 5
M  V30 5 2 5 6
M  V30 6 1 5 7
M  V30 7 1 6 8
M  V30 8 1 6 9
M  V30 9 1 7 10
M  V30 10 2 7 11
M  V30 11 2 8 12
M  V30 12 1 10 13
M  V30 13 1 11 14
M  V30 14 1 13 15
M  V30 15 2 15 16
M  V30 16 1 15 17
M  V30 17 1 16 18
M  V30 18 2 17 19
M  V30 19 2 18 20
M  V30 20 1 20 21
M  V30 21 1 21 22
M  V30 22 2 22 23
M  V30 23 1 23 24
M  V30 24 1 23 25
M  V30 25 2 24 26
M  V30 26 1 24 27
M  V30 27 2 25 28
M  V30 28 1 25 29
M  V30 29 1 27 30
M  V30 30 2 30 31
M  V30 31 1 30 32
M  V30 32 1 31 33
M  V30 33 1 31 34
M  V30 34 2 32 35
M  V30 35 1 33 36
M  V30 36 2 34 37
M  V30 37 1 35 38
M  V30 38 1 37 39
M  V30 39 2 39 40
M  V30 40 2 39 41
M  V30 41 1 39 42
M  V30 42 1 11 12
M  V30 43 2 13 14
M  V30 44 1 19 20
M  V30 45 1 35 37
M  V30 46 1 8 43
M  V30 47 1 9 44
M  V30 48 1 9 45
M  V30 49 1 9 46
M  V30 50 1 12 47
M  V30 51 1 16 48
M  V30 52 1 17 49
M  V30 53 1 18 50
M  V30 54 1 19 51
M  V30 55 1 27 52
M  V30 56 1 29 53
M  V30 57 1 29 54
M  V30 58 1 29 55
M  V30 59 1 32 56
M  V30 60 1 34 57
M  V30 61 1 36 58
M  V30 62 1 36 59
M  V30 63 1 36 60
M  V30 64 1 38 61
M  V30 65 1 38 62
M  V30 66 1 38 63
M  V30 END BOND
M  V30 END CTAB
M  END
>  <Structure No>
2243

>  <LogS>
-0.623062478

>  <MMFF94 Energy>
233.6

$$$$
Compound 2244
Actelion Java MolfileCreator 2.0

  0  0  0  0  0  0              0 V3000
M  V30 BEGIN CTAB
M  V30 COUNTS 59 58 0 0 0
M  V30 BEGIN ATOM
M  V30 1 O 0.5457 1.3259 2.1065 0
M  V30 2 C -0.3145 0.3989 2.7328 0
M  V30 3 C 1.7223 1.5165 2.8693 0
M  V30 4 O -1.3488 0.0799 1.8302 0
M  V30 5 C 2.8242 0.5723 2.3918 0
M  V30 6 C -2.2659 -0.8337 2.4086 0
M  V30 7 O 4.0561 0.9675 2.9615 0
M  V30 8 C -2.407 -2.0544 1.4994 0
M  V30 9 C 5.1079 0.1458 2.491 0
M  V30 10 O -2.6984 -1.6521 0.1735 0
M  V30 11 C 5.7729 0.7708 1.2653 0
M  V30 12 C -4.0871 -1.7164 -0.0742 0
M  V30 13 O 6.8914 -0.0109 0.8955 0
M  V30 14 C -4.3832 -1.0494 -1.4103 0
M  V30 15 C 7.3452 0.3484 -0.3967 0
M  V30 16 O -5.7653 -1.1522 -1.6853 0
M  V30 17 C 6.7444 -0.6009 -1.4425 0
M  V30 18 C -6.1064 -0.3705 -2.8158 0
M  V30 19 C 7.3055 -0.3651 -2.8527 0
M  V30 20 C -6.6422 1.0051 -2.3909 0
M  V30 21 C 6.765 0.9123 -3.4954 0
M  V30 22 C -7.8148 0.93 -1.3985 0
M  V30 23 C -9.0862 0.3618 -2.0276 0
M  V30 24 H -0.7462 0.863 3.6514 0
M  V30 25 H 0.2392 -0.5324 3.0009 0
M  V30 26 H 2.0626 2.5615 2.7062 0
M  V30 27 H 1.5627 1.4037 3.9684 0
M  V30 28 H 2.5671 -0.4644 2.7055 0
M  V30 29 H 2.8678 0.6197 1.2807 0
M  V30 30 H -3.2516 -0.3303 2.4999 0
M  V30 31 H -1.9883 -1.1899 3.4305 0
M  V30 32 H -1.4345 -2.5911 1.4862 0
M  V30 33 H -3.1524 -2.768 1.9265 0
M  V30 34 H 4.7879 -0.8996 2.2627 0
M  V30 35 H 5.8666 0.0696 3.299 0
M  V30 36 H 5.023 0.8242 0.4436 0
M  V30 37 H 6.1053 1.8012 1.5238 0
M  V30 38 H -4.4159 -2.7789 -0.1218 0
M  V30 39 H -4.667 -1.1864 0.7159 0
M  V30 40 H -4.0602 0.0153 -1.3439 0
M  V30 41 H -3.7985 -1.5664 -2.2056 0
M  V30 42 H 8.4506 0.2348 -0.4087 0
M  V30 43 H 7.1362 1.4141 -0.6532 0
M  V30 44 H 5.6369 -0.5044 -1.4566 0
M  V30 45 H 6.983 -1.6443 -1.143 0
M  V30 46 H -5.2608 -0.2325 -3.5314 0
M  V30 47 H -6.89 -0.9084 -3.3876 0
M  V30 48 H 8.4163 -0.3289 -2.8252 0
M  V30 49 H 7.0139 -1.2255 -3.4933 0
M  V30 50 H -6.9551 1.5699 -3.2959 0
M  V30 51 H -5.8183 1.5798 -1.9177 0
M  V30 52 H 7.124 1.811 -2.9521 0
M  V30 53 H 7.1231 0.9762 -4.5451 0
M  V30 54 H 5.6531 0.9026 -3.5035 0
M  V30 55 H -7.5336 0.3209 -0.5124 0
M  V30 56 H -8.0352 1.9581 -1.0386 0
M  V30 57 H -9.9202 0.4282 -1.2968 0
M  V30 58 H -9.3638 0.9423 -2.9347 0
M  V30 59 H -8.9477 -0.7067 -2.2976 0
M  V30 END ATOM
M  V30 BEGIN BOND
M  V30 1 1 1 2
M  V30 2 1 1 3
M  V30 3 1 2 4
M  V30 4 1 3 5
M  V30 5 1 4 6
M  V30 6 1 5 7
M  V30 7 1 6 8
M  V30 8 1 7 9
M  V30 9 1 8 10
M  V30 10 1 9 11
M  V30 11 1 10 12
M  V30 12 1 11 13
M  V30 13 1 12 14
M  V30 14 1 13 15
M  V30 15 1 14 16
M  V30 16 1 15 17
M  V30 17 1 16 18
M  V30 18 1 17 19
M  V30 19 1 18 20
M  V30 20 1 19 21
M  V30 21 1 20 22
M  V30 22 1 22 23
M  V30 23 1 2 24
M  V30 24 1 2 25
M  V30 25 1 3 26
M  V30 26 1 3 27
M  V30 27 1 5 28
M  V30 28 1 5 29
M  V30 29 1 6 30
M  V30 30 1 6 31
M  V30 31 1 8 32
M  V30 32 1 8 33
M  V30 33 1 9 34
M  V30 34 1 9 35
M  V30 35 1 11 36
M  V30 36 1 11 37
M  V30 37 1 12 38
M  V30 38 1 12 39
M  V30 39 1 14 40
M  V30 40 1 14 41
M  V30 41 1 15 42
M  V30 42 1 15 43
M  V30 43 1 17 44
M  V30 44 1 17 45
M  V30 45 1 18 46
M  V30 46 1 18 47
M  V30 47 1 19 48
M  V30 48 1 19 49
M  V30 49 1 20 50
M  V30 50 1 20 51
M  V30 51 1 21 52
M  V30 52 1 21 53
M  V30 53 1 21 54
M  V30 54 1 22 55
M  V30 55 1 22 56
M  V30 56 1 23 57
M  V30 57 1 23 58
M  V30 58 1 23 59
M  V30 END BOND
M  V30 END CTAB
M  END
>  <Structure No>
2244

>  <LogS>
-1.301635776

>  <MMFF94 Energy>
76.094

$$$$
Compound 2245
Actelion Java MolfileCreator 2.0

  0  0  0  0  0  0              0 V3000
M  V30 BEGIN CTAB
M  V30 COUNTS 18 18 0 0 0
M  V30 BEGIN ATOM
M  V30 1 O 0.9641 2.492 0.9641 0
M  V30 2 C 0.5793 1.3328 0.6589 0
M  V30 3 O -0.7518 1.1166 0.2916 0
M  V30 4 C 1.5454 0.1812 0.6827 0 CFG=1
M  V30 5 C -1.2074 -0.1403 -0.2134 0 CFG=1
M  V30 6 O 0.8447 -1.0415 0.9241 0
M  V30 7 C 2.3032 0.093 -0.6405 0
M  V30 8 C -0.4507 -1.2672 0.4468 0
M  V30 9 C -2.7144 -0.251 0.014 0
M  V30 10 O -0.9509 -2.4202 0.5334 0
M  V30 11 H 2.2796 0.3325 1.5031 0
M  V30 12 H -1.0054 -0.1794 -1.3054 0
M  V30 13 H 3.0126 -0.7605 -0.6088 0
M  V30 14 H 2.8814 1.0256 -0.8144 0
M  V30 15 H 1.5995 -0.0601 -1.4861 0
M  V30 16 H -3.2292 0.6101 -0.4621 0
M  V30 17 H -2.9421 -0.2461 1.1015 0
M  V30 18 H -3.1076 -1.1859 -0.4389 0
M  V30 END ATOM
M  V30 BEGIN BOND
M  V30 1 2 1 2
M  V30 2 1 2 3
M  V30 3 1 2 4
M  V30 4 1 3 5
M  V30 5 1 4 6
M  V30 6 1 4 7
M  V30 7 1 5 8
M  V30 8 1 5 9
M  V30 9 2 8 10
M  V30 10 1 6 8
M  V30 11 1 4 11
M  V30 12 1 5 12
M  V30 13 1 7 13
M  V30 14 1 7 14
M  V30 15 1 7 15
M  V30 16 1 9 16
M  V30 17 1 9 17
M  V30 18 1 9 18
M  V30 END BOND
M  V30 BEGIN COLLECTION
M  V30 MDLV30/STEABS ATOMS=(2 4 5)
M  V30 END COLLECTION
M  V30 END CTAB
M  END
>  <Structure No>
2245

>  <LogS>
-0.936025863

>  <MMFF94 Energy>
48.365

$$$$
Compound 2246
Actelion Java MolfileCreator 2.0

  0  0  0  0  0  0              0 V3000
M  V30 BEGIN CTAB
M  V30 COUNTS 18 18 0 0 0
M  V30 BEGIN ATOM
M  V30 1 O 2.0352 0.3911 -1.7219 0
M  V30 2 C 1.6946 -0.3 -0.7248 0
M  V30 3 N 2.6503 -1.1751 -0.1228 0
M  V30 4 C 0.3067 -0.2312 -0.2139 0
M  V30 5 C -0.3983 0.995 -0.1036 0
M  V30 6 C -0.346 -1.429 0.1305 0
M  V30 7 N 0.2342 2.257 -0.3584 0
M  V30 8 C -1.739 0.985 0.3146 0
M  V30 9 C -1.6757 -1.4185 0.5562 0
M  V30 10 C -2.3728 -0.2144 0.6423 0
M  V30 11 H 2.4163 -1.7188 0.7372 0
M  V30 12 H 3.6152 -1.2479 -0.515 0
M  V30 13 H 0.1647 -2.38 0.0436 0
M  V30 14 H -0.3252 3.1391 -0.3536 0
M  V30 15 H 1.2686 2.3503 -0.4511 0
M  V30 16 H -2.2896 1.9133 0.4035 0
M  V30 17 H -2.1693 -2.3476 0.8105 0
M  V30 18 H -3.4047 -0.2093 0.9692 0
M  V30 END ATOM
M  V30 BEGIN BOND
M  V30 1 2 1 2
M  V30 2 1 2 3
M  V30 3 1 2 4
M  V30 4 2 4 5
M  V30 5 1 4 6
M  V30 6 1 5 7
M  V30 7 1 5 8
M  V30 8 2 6 9
M  V30 9 2 8 10
M  V30 10 1 9 10
M  V30 11 1 3 11
M  V30 12 1 3 12
M  V30 13 1 6 13
M  V30 14 1 7 14
M  V30 15 1 7 15
M  V30 16 1 8 16
M  V30 17 1 9 17
M  V30 18 1 10 18
M  V30 END BOND
M  V30 END CTAB
M  END
>  <Structure No>
2246

>  <LogS>
-0.913922317

>  <MMFF94 Energy>
20.815

$$$$
Compound 2247
Actelion Java MolfileCreator 2.0

  0  0  0  0  0  0              0 V3000
M  V30 BEGIN CTAB
M  V30 COUNTS 19 18 0 0 0
M  V30 BEGIN ATOM
M  V30 1 O 2.3678 0.6106 -1.3743 0
M  V30 2 C 2.6062 -0.2077 -0.2627 0
M  V30 3 C 1.4341 -1.1666 -0.0466 0
M  V30 4 C 0.194 -0.4419 0.4029 0
M  V30 5 C -0.5752 0.2424 -0.4573 0
M  V30 6 C -1.8131 0.9655 -0.0034 0
M  V30 7 C -2.9243 -0.0128 0.3667 0
M  V30 8 H 3.1554 1.2097 -1.4488 0
M  V30 9 H 2.7553 0.4163 0.6475 0
M  V30 10 H 3.5288 -0.805 -0.4361 0
M  V30 11 H 1.7194 -1.8949 0.7426 0
M  V30 12 H 1.2296 -1.7415 -0.9762 0
M  V30 13 H -0.0916 -0.5063 1.4494 0
M  V30 14 H -0.2956 0.3029 -1.5052 0
M  V30 15 H -1.5748 1.614 0.8673 0
M  V30 16 H -2.1723 1.6171 -0.8285 0
M  V30 17 H -2.6169 -0.6458 1.2259 0
M  V30 18 H -3.8356 0.5527 0.6544 0
M  V30 19 H -3.1685 -0.6636 -0.4998 0
M  V30 END ATOM
M  V30 BEGIN BOND
M  V30 1 1 1 2
M  V30 2 1 2 3
M  V30 3 1 3 4
M  V30 4 2 4 5
M  V30 5 1 5 6
M  V30 6 1 6 7
M  V30 7 1 1 8
M  V30 8 1 2 9
M  V30 9 1 2 10
M  V30 10 1 3 11
M  V30 11 1 3 12
M  V30 12 1 4 13
M  V30 13 1 5 14
M  V30 14 1 6 15
M  V30 15 1 6 16
M  V30 16 1 7 17
M  V30 17 1 7 18
M  V30 18 1 7 19
M  V30 END BOND
M  V30 END CTAB
M  END
>  <Structure No>
2247

>  <LogS>
-0.785854804

>  <MMFF94 Energy>
15.429

$$$$
Compound 2248
Actelion Java MolfileCreator 2.0

  0  0  0  0  0  0              0 V3000
M  V30 BEGIN CTAB
M  V30 COUNTS 18 18 0 0 0
M  V30 BEGIN ATOM
M  V30 1 O -0.0785 0.9432 -1.0218 0
M  V30 2 C 1.1618 1.4229 -0.5808 0
M  V30 3 C -0.6503 -0.2782 -0.5394 0 CFG=2
M  V30 4 C 1.964 0.6658 0.1723 0
M  V30 5 O -1.3476 -0.0432 0.6699 0
M  V30 6 C 0.4643 -1.3011 -0.2861 0
M  V30 7 C 1.5413 -0.7029 0.6303 0
M  V30 8 C -2.5638 0.6203 0.4047 0
M  V30 9 H 1.4818 2.4128 -0.8781 0
M  V30 10 H -1.3235 -0.7015 -1.3211 0
M  V30 11 H 2.9119 1.0656 0.51 0
M  V30 12 H 0.0421 -2.2193 0.1769 0
M  V30 13 H 0.9265 -1.5845 -1.2572 0
M  V30 14 H 1.1496 -0.6266 1.6674 0
M  V30 15 H 2.426 -1.3743 0.6448 0
M  V30 16 H -2.3954 1.5909 -0.1121 0
M  V30 17 H -3.0644 0.8387 1.3702 0
M  V30 18 H -3.2488 -0.0235 -0.1898 0
M  V30 END ATOM
M  V30 BEGIN BOND
M  V30 1 1 1 2
M  V30 2 1 1 3
M  V30 3 2 2 4
M  V30 4 1 3 5
M  V30 5 1 3 6
M  V30 6 1 4 7
M  V30 7 1 5 8
M  V30 8 1 6 7
M  V30 9 1 2 9
M  V30 10 1 3 10
M  V30 11 1 4 11
M  V30 12 1 6 12
M  V30 13 1 6 13
M  V30 14 1 7 14
M  V30 15 1 7 15
M  V30 16 1 8 16
M  V30 17 1 8 17
M  V30 18 1 8 18
M  V30 END BOND
M  V30 BEGIN COLLECTION
M  V30 MDLV30/STEABS ATOMS=(1 3)
M  V30 END COLLECTION
M  V30 END CTAB
M  END
>  <Structure No>
2248

>  <LogS>
-0.853333105

>  <MMFF94 Energy>
-1.0094

$$$$
Compound 2249
Actelion Java MolfileCreator 2.0

  0  0  0  0  0  0              0 V3000
M  V30 BEGIN CTAB
M  V30 COUNTS 23 23 0 0 0
M  V30 BEGIN ATOM
M  V30 1 O 1.3379 2.1256 0.236 0
M  V30 2 C 0.9676 0.8002 -0.0152 0
M  V30 3 C -0.4001 0.4708 -0.1371 0
M  V30 4 C 1.9374 -0.2137 -0.1503 0
M  V30 5 C -0.7747 -0.8855 -0.3203 0
M  V30 6 C -1.4398 1.5638 -0.0242 0
M  V30 7 N 1.5446 -1.4907 -0.39 0
M  V30 8 C 3.4043 0.0777 -0.0461 0
M  V30 9 C 0.2393 -1.8431 -0.4838 0
M  V30 10 C -2.2276 -1.3109 -0.4321 0
M  V30 11 O -1.9232 1.6126 1.2888 0
M  V30 12 O -2.4102 -2.6438 -0.0333 0
M  V30 13 H 2.2998 2.4237 0.3342 0
M  V30 14 H -1.0127 2.5525 -0.3022 0
M  V30 15 H -2.274 1.3799 -0.7364 0
M  V30 16 H 3.6376 0.4912 0.9575 0
M  V30 17 H 3.9976 -0.8508 -0.187 0
M  V30 18 H 3.7025 0.8045 -0.8307 0
M  V30 19 H -0.0036 -2.879 -0.6813 0
M  V30 20 H -2.5449 -1.2105 -1.491 0
M  V30 21 H -2.8885 -0.6629 0.1843 0
M  V30 22 H -2.6171 2.3222 1.3013 0
M  V30 23 H -2.3144 -2.6594 0.9551 0
M  V30 END ATOM
M  V30 BEGIN BOND
M  V30 1 1 1 2
M  V30 2 2 2 3
M  V30 3 1 2 4
M  V30 4 1 3 5
M  V30 5 1 3 6
M  V30 6 2 4 7
M  V30 7 1 4 8
M  V30 8 2 5 9
M  V30 9 1 5 10
M  V30 10 1 6 11
M  V30 11 1 10 12
M  V30 12 1 7 9
M  V30 13 1 1 13
M  V30 14 1 6 14
M  V30 15 1 6 15
M  V30 16 1 8 16
M  V30 17 1 8 17
M  V30 18 1 8 18
M  V30 19 1 9 19
M  V30 20 1 10 20
M  V30 21 1 10 21
M  V30 22 1 11 22
M  V30 23 1 12 23
M  V30 END BOND
M  V30 END CTAB
M  END
>  <Structure No>
2249

>  <LogS>
-0.111712583

>  <MMFF94 Energy>
21.574

$$$$
Compound 2250
Actelion Java MolfileCreator 2.0

  0  0  0  0  0  0              0 V3000
M  V30 BEGIN CTAB
M  V30 COUNTS 5 4 0 0 0
M  V30 BEGIN ATOM
M  V30 1 O -0.5524 1.2631 -0.1578 0
M  V30 2 C -0.4536 0.0139 -0.0373 0
M  V30 3 O 0.7984 -0.5874 0.0203 0
M  V30 4 O -1.5991 -0.7662 0.0384 0 CHG=-1
M  V30 5 H 1.6441 -0.0324 -0.0335 0
M  V30 END ATOM
M  V30 BEGIN BOND
M  V30 1 2 1 2
M  V30 2 1 2 3
M  V30 3 1 2 4
M  V30 4 1 3 5
M  V30 END BOND
M  V30 END CTAB
M  END
>  <Structure No>
2250

>  <LogS>
-0.309433822

>  <MMFF94 Energy>
-89.96

$$$$
Compound 2251
Actelion Java MolfileCreator 2.0

  0  0  0  0  0  0              0 V3000
M  V30 BEGIN CTAB
M  V30 COUNTS 54 54 0 0 0
M  V30 BEGIN ATOM
M  V30 1 O 4.9434 -0.5483 -1.4888 0
M  V30 2 C 3.6268 -0.9811 -1.262 0
M  V30 3 C 5.3435 0.4263 -2.4529 0
M  V30 4 C 2.5493 -0.6151 -2.0919 0
M  V30 5 C 3.3866 -1.8108 -0.1606 0
M  V30 6 C 4.9446 1.834 -2.0089 0
M  V30 7 C 1.257 -1.0676 -1.8099 0
M  V30 8 C 2.0948 -2.2629 0.1219 0
M  V30 9 O 5.5494 2.1298 -0.7625 0
M  V30 10 C 1.0219 -1.9019 -0.7067 0
M  V30 11 C 4.5692 2.3439 0.2316 0
M  V30 12 C -0.377 -2.3517 -0.3799 0
M  V30 13 C 5.2496 2.5906 1.5752 0
M  V30 14 C -1.0793 -1.3133 0.5061 0
M  V30 15 O 5.9929 3.7789 1.5405 0
M  V30 16 C -2.4697 -1.7716 0.9738 0
M  V30 17 C -3.5026 -1.7772 -0.1666 0
M  V30 18 C -4.9179 -2.1429 0.3131 0
M  V30 19 C -5.5936 -1.0907 1.2146 0
M  V30 20 C -5.8341 0.2654 0.518 0
M  V30 21 C -4.8238 1.3344 0.9608 0
M  V30 22 C -5.0601 2.6522 0.2289 0
M  V30 23 H 4.9196 0.19 -3.4518 0
M  V30 24 H 6.4493 0.3863 -2.5486 0
M  V30 25 H 2.6942 0.0175 -2.9555 0
M  V30 26 H 4.2055 -2.0974 0.4871 0
M  V30 27 H 3.8333 1.9336 -2.0229 0
M  V30 28 H 5.3303 2.5563 -2.7591 0
M  V30 29 H 0.4379 -0.7655 -2.451 0
M  V30 30 H 1.9305 -2.8911 0.9888 0
M  V30 31 H 3.9147 1.4491 0.3366 0
M  V30 32 H 3.9434 3.2305 -0.0208 0
M  V30 33 H -0.3449 -3.333 0.1423 0
M  V30 34 H -0.9425 -2.4962 -1.3247 0
M  V30 35 H 4.4707 2.6842 2.3615 0
M  V30 36 H 5.8988 1.7252 1.8413 0
M  V30 37 H -1.1656 -0.3465 -0.0373 0
M  V30 38 H -0.4552 -1.1351 1.4097 0
M  V30 39 H 6.8526 3.5657 1.0918 0
M  V30 40 H -2.7971 -1.0702 1.7684 0
M  V30 41 H -2.4012 -2.7843 1.4278 0
M  V30 42 H -3.5141 -0.799 -0.6904 0
M  V30 43 H -3.2042 -2.5404 -0.9157 0
M  V30 44 H -5.5604 -2.3098 -0.579 0
M  V30 45 H -4.8752 -3.109 0.8621 0
M  V30 46 H -5.0327 -0.9669 2.1649 0
M  V30 47 H -6.5839 -1.5052 1.5057 0
M  V30 48 H -5.8098 0.1497 -0.5878 0
M  V30 49 H -6.8535 0.6232 0.7835 0
M  V30 50 H -3.7866 0.9983 0.7573 0
M  V30 51 H -4.9231 1.5089 2.0544 0
M  V30 52 H -4.929 2.5131 -0.8652 0
M  V30 53 H -4.3276 3.4094 0.5802 0
M  V30 54 H -6.0853 3.0287 0.4312 0
M  V30 END ATOM
M  V30 BEGIN BOND
M  V30 1 1 1 2
M  V30 2 1 1 3
M  V30 3 2 2 4
M  V30 4 1 2 5
M  V30 5 1 3 6
M  V30 6 1 4 7
M  V30 7 2 5 8
M  V30 8 1 6 9
M  V30 9 2 7 10
M  V30 10 1 9 11
M  V30 11 1 10 12
M  V30 12 1 11 13
M  V30 13 1 12 14
M  V30 14 1 13 15
M  V30 15 1 14 16
M  V30 16 1 16 17
M  V30 17 1 17 18
M  V30 18 1 18 19
M  V30 19 1 19 20
M  V30 20 1 20 21
M  V30 21 1 21 22
M  V30 22 1 8 10
M  V30 23 1 3 23
M  V30 24 1 3 24
M  V30 25 1 4 25
M  V30 26 1 5 26
M  V30 27 1 6 27
M  V30 28 1 6 28
M  V30 29 1 7 29
M  V30 30 1 8 30
M  V30 31 1 11 31
M  V30 32 1 11 32
M  V30 33 1 12 33
M  V30 34 1 12 34
M  V30 35 1 13 35
M  V30 36 1 13 36
M  V30 37 1 14 37
M  V30 38 1 14 38
M  V30 39 1 15 39
M  V30 40 1 16 40
M  V30 41 1 16 41
M  V30 42 1 17 42
M  V30 43 1 17 43
M  V30 44 1 18 44
M  V30 45 1 18 45
M  V30 46 1 19 46
M  V30 47 1 19 47
M  V30 48 1 20 48
M  V30 49 1 20 49
M  V30 50 1 21 50
M  V30 51 1 21 51
M  V30 52 1 22 52
M  V30 53 1 22 53
M  V30 54 1 22 54
M  V30 END BOND
M  V30 END CTAB
M  END
>  <Structure No>
2251

>  <LogS>
-0.304510239

>  <MMFF94 Energy>
59.394

$$$$
Compound 2252
Actelion Java MolfileCreator 2.0

  0  0  0  0  0  0              0 V3000
M  V30 BEGIN CTAB
M  V30 COUNTS 10 9 0 0 0
M  V30 BEGIN ATOM
M  V30 1 N 0.0723 1.0861 -0.7239 0 CHG=1
M  V30 2 C -0.0215 0.0062 -0.0106 0
M  V30 3 N 1.1407 -0.7826 0.2547 0
M  V30 4 N -1.2879 -0.4003 0.5138 0
M  V30 5 H -0.7693 1.6712 -0.9249 0
M  V30 6 H 0.9915 1.3939 -1.1127 0
M  V30 7 H 1.0688 -1.652 0.8281 0
M  V30 8 H 2.0754 -0.5042 -0.1184 0
M  V30 9 H -2.1498 0.1609 0.3323 0
M  V30 10 H -1.3671 -1.2685 1.088 0
M  V30 END ATOM
M  V30 BEGIN BOND
M  V30 1 2 1 2
M  V30 2 1 2 3
M  V30 3 1 2 4
M  V30 4 1 1 5
M  V30 5 1 1 6
M  V30 6 1 3 7
M  V30 7 1 3 8
M  V30 8 1 4 9
M  V30 9 1 4 10
M  V30 END BOND
M  V30 END CTAB
M  END
>  <Structure No>
2252

>  <LogS>
1.106488088

>  <MMFF94 Energy>
-200.09

$$$$
Compound 2253
Actelion Java MolfileCreator 2.0

  0  0  0  0  0  0              0 V3000
M  V30 BEGIN CTAB
M  V30 COUNTS 42 41 0 0 0
M  V30 BEGIN ATOM
M  V30 1 S 6.2539 1.4405 -0.8001 0
M  V30 2 O 6.7642 2.7577 -0.289 0
M  V30 3 O 7.4225 0.5295 -1.0541 0
M  V30 4 O 5.2262 0.7647 0.364 0
M  V30 5 O 5.4173 1.7025 -2.2344 0 CHG=-1
M  V30 6 C 4.7319 -0.455 -0.1353 0
M  V30 7 C 3.7485 -1.0672 0.8674 0
M  V30 8 C 2.5717 -0.1403 1.2295 0
M  V30 9 C 1.6855 0.2814 0.0405 0
M  V30 10 C 1.0573 -0.8841 -0.7481 0
M  V30 11 C 0.1939 -1.8486 0.0897 0
M  V30 12 C -0.9718 -1.1874 0.8466 0
M  V30 13 C -1.9931 -0.5256 -0.0899 0
M  V30 14 C -3.2136 -0.0266 0.6928 0
M  V30 15 C -4.2268 0.6495 -0.2383 0
M  V30 16 C -5.4471 1.1471 0.5451 0
M  V30 17 C -6.4577 1.8211 -0.3783 0
M  V30 18 H 5.5663 -1.1775 -0.2763 0
M  V30 19 H 4.2181 -0.3161 -1.1115 0
M  V30 20 H 4.3029 -1.3041 1.8016 0
M  V30 21 H 3.3678 -2.0311 0.4692 0
M  V30 22 H 2.9707 0.7787 1.711 0
M  V30 23 H 1.9454 -0.6428 1.9965 0
M  V30 24 H 0.8798 0.9467 0.4166 0
M  V30 25 H 2.2827 0.9029 -0.6598 0
M  V30 26 H 0.4431 -0.4635 -1.5723 0
M  V30 27 H 1.862 -1.468 -1.2425 0
M  V30 28 H 0.8389 -2.3802 0.8208 0
M  V30 29 H -0.2171 -2.628 -0.5882 0
M  V30 30 H -0.5864 -0.444 1.5761 0
M  V30 31 H -1.4846 -1.9813 1.4329 0
M  V30 32 H -1.5211 0.3388 -0.6041 0
M  V30 33 H -2.3232 -1.2605 -0.8566 0
M  V30 34 H -2.8816 0.7012 1.4661 0
M  V30 35 H -3.7009 -0.8868 1.2029 0
M  V30 36 H -3.7409 1.511 -0.7476 0
M  V30 37 H -4.5581 -0.0779 -1.0119 0
M  V30 38 H -5.9409 0.2907 1.0541 0
M  V30 39 H -5.1238 1.8777 1.3184 0
M  V30 40 H -6.8167 1.1039 -1.1468 0
M  V30 41 H -5.9964 2.6977 -0.8812 0
M  V30 42 H -7.3286 2.1705 0.2155 0
M  V30 END ATOM
M  V30 BEGIN BOND
M  V30 1 2 1 2
M  V30 2 2 1 3
M  V30 3 1 1 4
M  V30 4 1 1 5
M  V30 5 1 4 6
M  V30 6 1 6 7
M  V30 7 1 7 8
M  V30 8 1 8 9
M  V30 9 1 9 10
M  V30 10 1 10 11
M  V30 11 1 11 12
M  V30 12 1 12 13
M  V30 13 1 13 14
M  V30 14 1 14 15
M  V30 15 1 15 16
M  V30 16 1 16 17
M  V30 17 1 6 18
M  V30 18 1 6 19
M  V30 19 1 7 20
M  V30 20 1 7 21
M  V30 21 1 8 22
M  V30 22 1 8 23
M  V30 23 1 9 24
M  V30 24 1 9 25
M  V30 25 1 10 26
M  V30 26 1 10 27
M  V30 27 1 11 28
M  V30 28 1 11 29
M  V30 29 1 12 30
M  V30 30 1 12 31
M  V30 31 1 13 32
M  V30 32 1 13 33
M  V30 33 1 14 34
M  V30 34 1 14 35
M  V30 35 1 15 36
M  V30 36 1 15 37
M  V30 37 1 16 38
M  V30 38 1 16 39
M  V30 39 1 17 40
M  V30 40 1 17 41
M  V30 41 1 17 42
M  V30 END BOND
M  V30 END CTAB
M  END
>  <Structure No>
2253

>  <LogS>
-0.283881408

>  <MMFF94 Energy>
-46.521

$$$$
Compound 2254
Actelion Java MolfileCreator 2.0

  0  0  0  0  0  0              0 V3000
M  V30 BEGIN CTAB
M  V30 COUNTS 29 29 0 0 0
M  V30 BEGIN ATOM
M  V30 1 O 0.4785 -0.9573 -2.4744 0
M  V30 2 C 1.1358 -0.5419 -1.482 0
M  V30 3 N 0.4788 -0.2671 -0.2291 0
M  V30 4 N 2.5548 -0.3751 -1.5953 0
M  V30 5 C -0.8752 -0.8056 0.0315 0 CFG=1
M  V30 6 C 1.2187 0.5468 0.7497 0
M  V30 7 C 3.3555 0.2093 -0.519 0
M  V30 8 C -1.025 -1.2887 1.4588 0
M  V30 9 C -1.9867 0.1662 -0.4676 0
M  V30 10 C 2.6644 0.06 0.8418 0
M  V30 11 O -0.5879 -2.4263 1.7759 0
M  V30 12 O -1.5809 -0.4832 2.4449 0 CHG=-1
M  V30 13 C -3.3943 -0.4092 -0.2448 0
M  V30 14 C -1.8863 1.591 0.1001 0
M  V30 15 H 3.0121 -0.5472 -2.5186 0
M  V30 16 H -0.995 -1.7283 -0.5814 0
M  V30 17 H 1.2195 1.6081 0.421 0
M  V30 18 H 0.7562 0.5143 1.756 0
M  V30 19 H 3.5207 1.2866 -0.7366 0
M  V30 20 H 4.3459 -0.2922 -0.483 0
M  V30 21 H -1.8601 0.2605 -1.5692 0
M  V30 22 H 3.2128 0.6557 1.6031 0
M  V30 23 H 2.6774 -1.0068 1.1548 0
M  V30 24 H -3.4601 -1.4384 -0.6576 0
M  V30 25 H -3.6505 -0.4368 0.8346 0
M  V30 26 H -4.1488 0.2173 -0.7667 0
M  V30 27 H -0.9577 2.0821 -0.2524 0
M  V30 28 H -2.735 2.2068 -0.2668 0
M  V30 29 H -1.9077 1.6008 1.2069 0
M  V30 END ATOM
M  V30 BEGIN BOND
M  V30 1 2 1 2
M  V30 2 1 2 3
M  V30 3 1 2 4
M  V30 4 1 3 5
M  V30 5 1 3 6
M  V30 6 1 4 7
M  V30 7 1 5 8
M  V30 8 1 5 9
M  V30 9 1 6 10
M  V30 10 2 8 11
M  V30 11 1 8 12
M  V30 12 1 9 13
M  V30 13 1 9 14
M  V30 14 1 7 10
M  V30 15 1 4 15
M  V30 16 1 5 16
M  V30 17 1 6 17
M  V30 18 1 6 18
M  V30 19 1 7 19
M  V30 20 1 7 20
M  V30 21 1 9 21
M  V30 22 1 10 22
M  V30 23 1 10 23
M  V30 24 1 13 24
M  V30 25 1 13 25
M  V30 26 1 13 26
M  V30 27 1 14 27
M  V30 28 1 14 28
M  V30 29 1 14 29
M  V30 END BOND
M  V30 BEGIN COLLECTION
M  V30 MDLV30/STEABS ATOMS=(1 5)
M  V30 END COLLECTION
M  V30 END CTAB
M  END
>  <Structure No>
2254

>  <LogS>
-1.102861926

>  <MMFF94 Energy>
-33.471

$$$$
Compound 2255
Actelion Java MolfileCreator 2.0

  0  0  0  0  0  0              0 V3000
M  V30 BEGIN CTAB
M  V30 COUNTS 16 15 0 0 0
M  V30 BEGIN ATOM
M  V30 1 O -1.9541 0.7031 -0.5468 0
M  V30 2 C -1.3276 -0.3801 -0.7016 0
M  V30 3 O -0.232 -0.6963 0.1094 0
M  V30 4 C -1.7276 -1.3144 -1.7919 0
M  V30 5 C 0.248 0.1594 1.1455 0 CFG=1
M  V30 6 C 1.2146 -0.5767 1.968 0
M  V30 7 C 0.8944 1.3919 0.5669 0
M  V30 8 N 1.9769 -1.1576 2.6167 0
M  V30 9 C 1.8692 1.3229 -0.3464 0
M  V30 10 H -1.2708 -0.9838 -2.7476 0
M  V30 11 H -2.8329 -1.3264 -1.8977 0
M  V30 12 H -1.3789 -2.3419 -1.5575 0
M  V30 13 H -0.5968 0.4598 1.8024 0
M  V30 14 H 0.5456 2.3677 0.8921 0
M  V30 15 H 2.3046 2.233 -0.7456 0
M  V30 16 H 2.2363 0.3642 -0.7002 0
M  V30 END ATOM
M  V30 BEGIN BOND
M  V30 1 2 1 2
M  V30 2 1 2 3
M  V30 3 1 2 4
M  V30 4 1 3 5
M  V30 5 1 5 6
M  V30 6 1 5 7
M  V30 7 3 6 8
M  V30 8 2 7 9
M  V30 9 1 4 10
M  V30 10 1 4 11
M  V30 11 1 4 12
M  V30 12 1 5 13
M  V30 13 1 7 14
M  V30 14 1 9 15
M  V30 15 1 9 16
M  V30 END BOND
M  V30 BEGIN COLLECTION
M  V30 MDLV30/STEABS ATOMS=(1 5)
M  V30 END COLLECTION
M  V30 END CTAB
M  END
>  <Structure No>
2255

>  <LogS>
-0.898693945

>  <MMFF94 Energy>
12.472

$$$$
Compound 2256
Actelion Java MolfileCreator 2.0

  0  0  0  0  0  0              0 V3000
M  V30 BEGIN CTAB
M  V30 COUNTS 22 22 0 0 0
M  V30 BEGIN ATOM
M  V30 1 O -0.3929 -2.2018 -0.4715 0
M  V30 2 C 0.0396 -1.1908 0.4068 0 CFG=1
M  V30 3 C 1.0278 -0.2082 -0.3059 0 CFG=1
M  V30 4 C -1.1684 -0.4729 1.0415 0
M  V30 5 C 0.4346 1.2053 -0.5051 0
M  V30 6 C 2.3605 -0.1112 0.4493 0
M  V30 7 C -1.9308 0.4178 0.0416 0
M  V30 8 C -1.019 1.1302 -0.978 0
M  V30 9 H -0.8416 -1.7672 -1.2418 0
M  V30 10 H 0.5663 -1.7083 1.2389 0
M  V30 11 H 1.265 -0.6135 -1.3155 0
M  V30 12 H -1.8654 -1.2222 1.4758 0
M  V30 13 H -0.8035 0.1589 1.8812 0
M  V30 14 H 1.0359 1.7567 -1.2608 0
M  V30 15 H 0.4752 1.7844 0.4444 0
M  V30 16 H 2.8394 -1.1118 0.5083 0
M  V30 17 H 2.1976 0.2712 1.4799 0
M  V30 18 H 3.0556 0.5731 -0.0829 0
M  V30 19 H -2.5039 1.1778 0.6165 0
M  V30 20 H -2.6737 -0.1994 -0.5088 0
M  V30 21 H -1.3997 2.1588 -1.159 0
M  V30 22 H -1.0538 0.5915 -1.9503 0
M  V30 END ATOM
M  V30 BEGIN BOND
M  V30 1 1 1 2
M  V30 2 1 2 3
M  V30 3 1 2 4
M  V30 4 1 3 5
M  V30 5 1 3 6
M  V30 6 1 4 7
M  V30 7 1 5 8
M  V30 8 1 7 8
M  V30 9 1 1 9
M  V30 10 1 2 10
M  V30 11 1 3 11
M  V30 12 1 4 12
M  V30 13 1 4 13
M  V30 14 1 5 14
M  V30 15 1 5 15
M  V30 16 1 6 16
M  V30 17 1 6 17
M  V30 18 1 6 18
M  V30 19 1 7 19
M  V30 20 1 7 20
M  V30 21 1 8 21
M  V30 22 1 8 22
M  V30 END BOND
M  V30 BEGIN COLLECTION
M  V30 MDLV30/STEABS ATOMS=(2 2 3)
M  V30 END COLLECTION
M  V30 END CTAB
M  END
>  <Structure No>
2256

>  <LogS>
-0.864495868

>  <MMFF94 Energy>
6.6461

$$$$
Compound 2257
Actelion Java MolfileCreator 2.0

  0  0  0  0  0  0              0 V3000
M  V30 BEGIN CTAB
M  V30 COUNTS 23 23 0 0 0
M  V30 BEGIN ATOM
M  V30 1 O -0.3127 0.3127 -0.3127 0
M  V30 2 C 1.05 0.0983 -0.0618 0
M  V30 3 C -1.359 0.0258 0.6139 0
M  V30 4 C 1.5212 -0.4264 1.1583 0
M  V30 5 C 1.9704 0.4208 -1.0676 0
M  V30 6 C -2.7187 0.3829 0.0068 0 CFG=1
M  V30 7 C 2.892 -0.621 1.3574 0
M  V30 8 C 3.34 0.2247 -0.8649 0
M  V30 9 O -2.7315 1.744 -0.3368 0
M  V30 10 C -3.0168 -0.473 -1.2283 0
M  V30 11 C 3.8005 -0.2959 0.3469 0
M  V30 12 H -1.2095 0.6245 1.539 0
M  V30 13 H -1.3419 -1.0538 0.8803 0
M  V30 14 H 0.8391 -0.6858 1.9565 0
M  V30 15 H 1.6217 0.8247 -2.0097 0
M  V30 16 H -3.4995 0.1808 0.7768 0
M  V30 17 H 3.2499 -1.0243 2.2959 0
M  V30 18 H 4.0438 0.4766 -1.6476 0
M  V30 19 H -3.6838 2.0029 -0.4473 0
M  V30 20 H -4.0285 -0.2318 -1.6178 0
M  V30 21 H -2.9923 -1.5518 -0.9644 0
M  V30 22 H -2.2727 -0.2771 -2.0295 0
M  V30 23 H 4.8607 -0.4473 0.5029 0
M  V30 END ATOM
M  V30 BEGIN BOND
M  V30 1 1 1 2
M  V30 2 1 1 3
M  V30 3 2 2 4
M  V30 4 1 2 5
M  V30 5 1 3 6
M  V30 6 1 4 7
M  V30 7 2 5 8
M  V30 8 1 6 9
M  V30 9 1 6 10
M  V30 10 2 7 11
M  V30 11 1 8 11
M  V30 12 1 3 12
M  V30 13 1 3 13
M  V30 14 1 4 14
M  V30 15 1 5 15
M  V30 16 1 6 16
M  V30 17 1 7 17
M  V30 18 1 8 18
M  V30 19 1 9 19
M  V30 20 1 10 20
M  V30 21 1 10 21
M  V30 22 1 10 22
M  V30 23 1 11 23
M  V30 END BOND
M  V30 BEGIN COLLECTION
M  V30 MDLV30/STEABS ATOMS=(1 6)
M  V30 END COLLECTION
M  V30 END CTAB
M  END
>  <Structure No>
2257

>  <LogS>
-1.003417731

>  <MMFF94 Energy>
36.384

$$$$
Compound 2258
Actelion Java MolfileCreator 2.0

  0  0  0  0  0  0              0 V3000
M  V30 BEGIN CTAB
M  V30 COUNTS 18 17 0 0 0
M  V30 BEGIN ATOM
M  V30 1 O 2.473 2.0863 0.4633 0
M  V30 2 C 2.1141 0.8885 0.3159 0
M  V30 3 O 2.8204 0.0627 -0.5497 0 CHG=-1
M  V30 4 C 0.9644 0.345 1.1074 0
M  V30 5 N 0.0459 -0.4058 0.24 0
M  V30 6 C -1.0431 0.2638 -0.4457 0
M  V30 7 C 0.2786 -1.8424 0.0467 0
M  V30 8 N -2.0651 -0.4094 -0.8892 0 CHG=1
M  V30 9 N -1.0125 1.6844 -0.6456 0
M  V30 10 H 1.366 -0.3147 1.9064 0
M  V30 11 H 0.4197 1.1642 1.6259 0
M  V30 12 H 0.2891 -2.0811 -1.0379 0
M  V30 13 H 1.2565 -2.1545 0.4719 0
M  V30 14 H -0.5178 -2.4263 0.5533 0
M  V30 15 H -2.156 -1.4398 -0.7582 0
M  V30 16 H -2.8463 0.0745 -1.3859 0
M  V30 17 H -1.8145 2.1739 -1.1016 0
M  V30 18 H -0.184 2.2613 -0.3868 0
M  V30 END ATOM
M  V30 BEGIN BOND
M  V30 1 2 1 2
M  V30 2 1 2 3
M  V30 3 1 2 4
M  V30 4 1 4 5
M  V30 5 1 5 6
M  V30 6 1 5 7
M  V30 7 2 6 8
M  V30 8 1 6 9
M  V30 9 1 4 10
M  V30 10 1 4 11
M  V30 11 1 7 12
M  V30 12 1 7 13
M  V30 13 1 7 14
M  V30 14 1 8 15
M  V30 15 1 8 16
M  V30 16 1 9 17
M  V30 17 1 9 18
M  V30 END BOND
M  V30 END CTAB
M  END
>  <Structure No>
2258

>  <LogS>
-0.938741673

>  <MMFF94 Energy>
-191.1

$$$$
Compound 2259
Actelion Java MolfileCreator 2.0

  0  0  0  0  0  0              0 V3000
M  V30 BEGIN CTAB
M  V30 COUNTS 17 17 0 0 0
M  V30 BEGIN ATOM
M  V30 1 N 0.4655 2.0965 -0.3879 0
M  V30 2 C -0.1242 0.8236 -0.0889 0
M  V30 3 C 0.6565 -0.3557 -0.0121 0
M  V30 4 C -1.5088 0.7501 0.1321 0
M  V30 5 C 0.0281 -1.5785 0.2845 0
M  V30 6 C 2.1433 -0.327 -0.2411 0
M  V30 7 C -2.1174 -0.4715 0.4257 0
M  V30 8 C -1.3502 -1.6336 0.5017 0
M  V30 9 H -0.1269 2.9551 -0.4402 0
M  V30 10 H 1.488 2.2092 -0.5609 0
M  V30 11 H -2.1183 1.6436 0.0768 0
M  V30 12 H 0.6043 -2.4931 0.3485 0
M  V30 13 H 2.3587 0.0453 -1.2646 0
M  V30 14 H 2.626 0.3375 0.5058 0
M  V30 15 H 2.5936 -1.3377 -0.1423 0
M  V30 16 H -3.1856 -0.517 0.5944 0
M  V30 17 H -1.8243 -2.5797 0.7294 0
M  V30 END ATOM
M  V30 BEGIN BOND
M  V30 1 1 1 2
M  V30 2 2 2 3
M  V30 3 1 2 4
M  V30 4 1 3 5
M  V30 5 1 3 6
M  V30 6 2 4 7
M  V30 7 2 5 8
M  V30 8 1 7 8
M  V30 9 1 1 9
M  V30 10 1 1 10
M  V30 11 1 4 11
M  V30 12 1 5 12
M  V30 13 1 6 13
M  V30 14 1 6 14
M  V30 15 1 6 15
M  V30 16 1 7 16
M  V30 17 1 8 17
M  V30 END BOND
M  V30 END CTAB
M  END
>  <Structure No>
2259

>  <LogS>
-0.853925235

>  <MMFF94 Energy>
12.763

$$$$
Compound 2260
Actelion Java MolfileCreator 2.0

  0  0  0  0  0  0              0 V3000
M  V30 BEGIN CTAB
M  V30 COUNTS 39 38 0 0 0
M  V30 BEGIN ATOM
M  V30 1 O 1.2333 -0.1541 0.4623 0
M  V30 2 C 0.5006 1.0403 0.6412 0
M  V30 3 C 2.1103 -0.3439 1.5521 0
M  V30 4 C -0.5088 1.2148 -0.5139 0 CFG=1
M  V30 5 C 2.948 -1.6065 1.327 0
M  V30 6 C -1.3567 -0.06 -0.7653 0
M  V30 7 C -1.411 2.4563 -0.3058 0
M  V30 8 C 4.083 -1.4116 0.3056 0
M  V30 9 C -2.2327 -0.4858 0.4296 0
M  V30 10 C -0.655 3.7749 -0.4751 0
M  V30 11 N 3.5809 -1.1911 -1.0519 0 CHG=1
M  V30 12 C -2.9976 -1.791 0.1598 0
M  V30 13 C -4.1354 -1.6145 -0.8455 0
M  V30 14 H 1.1989 1.9066 0.6348 0
M  V30 15 H -0.0437 1.0355 1.6129 0
M  V30 16 H 1.524 -0.4879 2.4882 0
M  V30 17 H 2.7902 0.5289 1.686 0
M  V30 18 H 0.0819 1.3765 -1.4438 0
M  V30 19 H 3.4088 -1.894 2.2971 0
M  V30 20 H 2.2901 -2.4463 1.0135 0
M  V30 21 H -2.003 0.1235 -1.6496 0
M  V30 22 H -0.6804 -0.899 -1.0387 0
M  V30 23 H -1.8727 2.4355 0.7048 0
M  V30 24 H -2.2346 2.4445 -1.0528 0
M  V30 25 H 4.7279 -0.5582 0.612 0
M  V30 26 H 4.7166 -2.3261 0.3129 0
M  V30 27 H -2.9552 0.3174 0.6873 0
M  V30 28 H -1.5865 -0.6593 1.3152 0
M  V30 29 H -0.1371 3.8046 -1.457 0
M  V30 30 H 0.0851 3.9134 0.3395 0
M  V30 31 H -1.3742 4.6199 -0.4316 0
M  V30 32 H 3.1782 -0.2305 -1.1372 0
M  V30 33 H 4.3767 -1.2714 -1.7253 0
M  V30 34 H 2.8597 -1.9072 -1.2983 0
M  V30 35 H -3.4348 -2.1453 1.1185 0
M  V30 36 H -2.2996 -2.5775 -0.2003 0
M  V30 37 H -4.7254 -2.5534 -0.902 0
M  V30 38 H -3.7372 -1.3975 -1.8578 0
M  V30 39 H -4.8113 -0.792 -0.5284 0
M  V30 END ATOM
M  V30 BEGIN BOND
M  V30 1 1 1 2
M  V30 2 1 1 3
M  V30 3 1 2 4
M  V30 4 1 3 5
M  V30 5 1 4 6
M  V30 6 1 4 7
M  V30 7 1 5 8
M  V30 8 1 6 9
M  V30 9 1 7 10
M  V30 10 1 8 11
M  V30 11 1 9 12
M  V30 12 1 12 13
M  V30 13 1 2 14
M  V30 14 1 2 15
M  V30 15 1 3 16
M  V30 16 1 3 17
M  V30 17 1 4 18
M  V30 18 1 5 19
M  V30 19 1 5 20
M  V30 20 1 6 21
M  V30 21 1 6 22
M  V30 22 1 7 23
M  V30 23 1 7 24
M  V30 24 1 8 25
M  V30 25 1 8 26
M  V30 26 1 9 27
M  V30 27 1 9 28
M  V30 28 1 10 29
M  V30 29 1 10 30
M  V30 30 1 10 31
M  V30 31 1 11 32
M  V30 32 1 11 33
M  V30 33 1 11 34
M  V30 34 1 12 35
M  V30 35 1 12 36
M  V30 36 1 13 37
M  V30 37 1 13 38
M  V30 38 1 13 39
M  V30 END BOND
M  V30 BEGIN COLLECTION
M  V30 MDLV30/STEABS ATOMS=(1 4)
M  V30 END COLLECTION
M  V30 END CTAB
M  END
>  <Structure No>
2260

>  <LogS>
-1.096509119

>  <MMFF94 Energy>
4.1549

$$$$
Compound 2261
Actelion Java MolfileCreator 2.0

  0  0  0  0  0  0              0 V3000
M  V30 BEGIN CTAB
M  V30 COUNTS 16 15 0 0 0
M  V30 BEGIN ATOM
M  V30 1 O 3.0745 -0.3071 -0.3071 0
M  V30 2 C 1.864 -0.2451 -0.4476 0
M  V30 3 C 0.9877 0.0347 0.7431 0
M  V30 4 C -0.5225 0.0854 0.421 0
M  V30 5 C -0.8715 1.2249 -0.5467 0
M  V30 6 C -1.051 -1.2604 -0.0946 0
M  V30 7 H 1.4437 -0.3945 -1.4359 0
M  V30 8 H 1.2958 1.0054 1.1892 0
M  V30 9 H 1.169 -0.7506 1.5087 0
M  V30 10 H -1.0491 0.2975 1.3782 0
M  V30 11 H -0.4864 2.1909 -0.1562 0
M  V30 12 H -0.4391 1.0458 -1.5532 0
M  V30 13 H -1.9745 1.3096 -0.6493 0
M  V30 14 H -0.7945 -2.0719 0.6191 0
M  V30 15 H -2.1574 -1.2214 -0.1889 0
M  V30 16 H -0.6236 -1.5073 -1.0887 0
M  V30 END ATOM
M  V30 BEGIN BOND
M  V30 1 2 1 2
M  V30 2 1 2 3
M  V30 3 1 3 4
M  V30 4 1 4 5
M  V30 5 1 4 6
M  V30 6 1 2 7
M  V30 7 1 3 8
M  V30 8 1 3 9
M  V30 9 1 4 10
M  V30 10 1 5 11
M  V30 11 1 5 12
M  V30 12 1 5 13
M  V30 13 1 6 14
M  V30 14 1 6 15
M  V30 15 1 6 16
M  V30 END BOND
M  V30 END CTAB
M  END
>  <Structure No>
2261

>  <LogS>
-0.759083357

>  <MMFF94 Energy>
2.9506

$$$$
Compound 2262
Actelion Java MolfileCreator 2.0

  0  0  0  0  0  0              0 V3000
M  V30 BEGIN CTAB
M  V30 COUNTS 20 20 0 0 0
M  V30 BEGIN ATOM
M  V30 1 O 0.3925 1.7281 1.5709 0
M  V30 2 C 1.0118 0.6458 1.7512 0
M  V30 3 O 1.2317 0.1931 3.046 0 CHG=-1
M  V30 4 C 1.4641 -0.1895 0.5802 0 CFG=2
M  V30 5 N 1.8996 0.6522 -0.543 0 CHG=1
M  V30 6 C 0.3772 -1.1997 0.1533 0
M  V30 7 C -0.8816 -0.5451 -0.3406 0
M  V30 8 N -1.8959 -0.1493 0.4436 0
M  V30 9 C -1.1764 -0.2117 -1.6436 0
M  V30 10 C -2.7878 0.4108 -0.3945 0
M  V30 11 N -2.3813 0.3915 -1.6824 0
M  V30 12 H 2.3419 -0.784 0.9209 0
M  V30 13 H 1.1236 1.2667 -0.8798 0
M  V30 14 H 2.2254 0.0487 -1.3327 0
M  V30 15 H 2.6998 1.2541 -0.2399 0
M  V30 16 H 0.1266 -1.8559 1.0153 0
M  V30 17 H 0.7824 -1.8582 -0.6452 0
M  V30 18 H -1.9771 -0.2473 1.4801 0
M  V30 19 H -0.5529 -0.3882 -2.51 0
M  V30 20 H -3.7291 0.8352 -0.0713 0
M  V30 END ATOM
M  V30 BEGIN BOND
M  V30 1 2 1 2
M  V30 2 1 2 3
M  V30 3 1 2 4
M  V30 4 1 4 5
M  V30 5 1 4 6
M  V30 6 1 6 7
M  V30 7 1 7 8
M  V30 8 2 7 9
M  V30 9 1 8 10
M  V30 10 1 9 11
M  V30 11 2 10 11
M  V30 12 1 4 12
M  V30 13 1 5 13
M  V30 14 1 5 14
M  V30 15 1 5 15
M  V30 16 1 6 16
M  V30 17 1 6 17
M  V30 18 1 8 18
M  V30 19 1 9 19
M  V30 20 1 10 20
M  V30 END BOND
M  V30 BEGIN COLLECTION
M  V30 MDLV30/STEABS ATOMS=(1 4)
M  V30 END COLLECTION
M  V30 END CTAB
M  END
>  <Structure No>
2262

>  <LogS>
-0.107649886

>  <MMFF94 Energy>
-9.2877

$$$$
Compound 2263
Actelion Java MolfileCreator 2.0

  0  0  0  0  0  0              0 V3000
M  V30 BEGIN CTAB
M  V30 COUNTS 19 19 0 0 0
M  V30 BEGIN ATOM
M  V30 1 O 3.2235 -1.8525 -0.5635 0
M  V30 2 C 2.2773 -1.0892 -0.2382 0
M  V30 3 O 1.042 -1.5228 0.2088 0
M  V30 4 C 2.3046 0.348 -0.2629 0
M  V30 5 C 0.2101 -0.3894 0.4766 0 CFG=1
M  V30 6 O 3.3834 1.1433 -0.64 0
M  V30 7 C 1.1229 0.7741 0.153 0
M  V30 8 C -1.0478 -0.4351 -0.4175 0 CFG=1
M  V30 9 O 0.7948 2.1156 0.3072 0 CHG=-1
M  V30 10 O -1.6541 -1.6978 -0.3019 0
M  V30 11 C -2.0709 0.6372 -0.0121 0
M  V30 12 O -3.202 0.5691 -0.8389 0
M  V30 13 H -0.0619 -0.378 1.5547 0
M  V30 14 H 3.3218 2.1543 -0.6244 0
M  V30 15 H -0.7542 -0.2509 -1.4791 0
M  V30 16 H -1.1985 -2.3004 -0.9463 0
M  V30 17 H -2.3609 0.5145 1.0573 0
M  V30 18 H -1.6291 1.6468 -0.1276 0
M  V30 19 H -3.7902 -0.1374 -0.4643 0
M  V30 END ATOM
M  V30 BEGIN BOND
M  V30 1 2 1 2
M  V30 2 1 2 3
M  V30 3 1 2 4
M  V30 4 1 3 5
M  V30 5 1 4 6
M  V30 6 2 4 7
M  V30 7 1 5 8
M  V30 8 1 7 9
M  V30 9 1 8 10
M  V30 10 1 8 11
M  V30 11 1 11 12
M  V30 12 1 5 7
M  V30 13 1 5 13
M  V30 14 1 6 14
M  V30 15 1 8 15
M  V30 16 1 10 16
M  V30 17 1 11 17
M  V30 18 1 11 18
M  V30 19 1 12 19
M  V30 END BOND
M  V30 BEGIN COLLECTION
M  V30 MDLV30/STEABS ATOMS=(2 5 8)
M  V30 END COLLECTION
M  V30 END CTAB
M  END
>  <Structure No>
2263

>  <LogS>
-0.132544773

>  <MMFF94 Energy>
64.41

$$$$
Compound 2264
Actelion Java MolfileCreator 2.0

  0  0  0  0  0  0              0 V3000
M  V30 BEGIN CTAB
M  V30 COUNTS 19 18 0 0 0
M  V30 BEGIN ATOM
M  V30 1 O 1.8567 -2.2438 1.2375 0
M  V30 2 C 1.8655 -1.1157 0.6743 0
M  V30 3 O 0.6862 -0.577 0.1488 0
M  V30 4 C 3.1305 -0.3734 0.577 0
M  V30 5 C -0.5659 -1.2518 0.2191 0
M  V30 6 C 3.208 0.822 -0.0026 0
M  V30 7 C -1.645 -0.404 -0.4405 0
M  V30 8 O -1.7671 0.8198 0.2527 0
M  V30 9 C -2.7569 1.6098 -0.3663 0
M  V30 10 H 4.0291 -0.8141 0.9911 0
M  V30 11 H -0.8359 -1.4352 1.2821 0
M  V30 12 H -0.4935 -2.2276 -0.3086 0
M  V30 13 H 2.3366 1.302 -0.43 0
M  V30 14 H 4.1591 1.3357 -0.0534 0
M  V30 15 H -1.3565 -0.2332 -1.5032 0
M  V30 16 H -2.6022 -0.973 -0.4054 0
M  V30 17 H -2.4773 1.8573 -1.4145 0
M  V30 18 H -3.7503 1.1091 -0.3363 0
M  V30 19 H -2.8463 2.5649 0.1907 0
M  V30 END ATOM
M  V30 BEGIN BOND
M  V30 1 2 1 2
M  V30 2 1 2 3
M  V30 3 1 2 4
M  V30 4 1 3 5
M  V30 5 2 4 6
M  V30 6 1 5 7
M  V30 7 1 7 8
M  V30 8 1 8 9
M  V30 9 1 4 10
M  V30 10 1 5 11
M  V30 11 1 5 12
M  V30 12 1 6 13
M  V30 13 1 6 14
M  V30 14 1 7 15
M  V30 15 1 7 16
M  V30 16 1 9 17
M  V30 17 1 9 18
M  V30 18 1 9 19
M  V30 END BOND
M  V30 END CTAB
M  END
>  <Structure No>
2264

>  <LogS>
0.043941678

>  <MMFF94 Energy>
16.556

$$$$
Compound 2265
Actelion Java MolfileCreator 2.0

  0  0  0  0  0  0              0 V3000
M  V30 BEGIN CTAB
M  V30 COUNTS 21 21 0 0 0
M  V30 BEGIN ATOM
M  V30 1 S 2.8467 -0.894 -0.0812 0
M  V30 2 O 3.0177 -1.9994 -1.085 0
M  V30 3 O 3.3491 -1.3721 1.2526 0
M  V30 4 N 3.7558 0.487 -0.5844 0
M  V30 5 C 1.1453 -0.4602 0.0449 0
M  V30 6 C 0.6438 0.079 1.2364 0
M  V30 7 C 0.2903 -0.6268 -1.0519 0
M  V30 8 C -0.7041 0.4359 1.335 0
M  V30 9 C -1.0582 -0.2704 -0.9549 0
M  V30 10 C -1.5679 0.2621 0.2428 0
M  V30 11 N -2.9498 0.6365 0.3636 0
M  V30 12 N -3.8582 0.4516 -0.6917 0
M  V30 13 H 3.6455 1.2123 0.1592 0
M  V30 14 H 4.762 0.2068 -0.5852 0
M  V30 15 H 1.2955 0.2258 2.0882 0
M  V30 16 H 0.6666 -1.0291 -1.9837 0
M  V30 17 H -1.0759 0.8493 2.2642 0
M  V30 18 H -1.6973 -0.4075 -1.8171 0
M  V30 19 H -3.2809 1.0853 1.249 0
M  V30 20 H -4.0264 -0.5764 -0.7765 0
M  V30 21 H -4.7691 0.8782 -0.4062 0
M  V30 END ATOM
M  V30 BEGIN BOND
M  V30 1 2 1 2
M  V30 2 2 1 3
M  V30 3 1 1 4
M  V30 4 1 1 5
M  V30 5 2 5 6
M  V30 6 1 5 7
M  V30 7 1 6 8
M  V30 8 2 7 9
M  V30 9 2 8 10
M  V30 10 1 10 11
M  V30 11 1 11 12
M  V30 12 1 9 10
M  V30 13 1 4 13
M  V30 14 1 4 14
M  V30 15 1 6 15
M  V30 16 1 7 16
M  V30 17 1 8 17
M  V30 18 1 9 18
M  V30 19 1 11 19
M  V30 20 1 12 20
M  V30 21 1 12 21
M  V30 END BOND
M  V30 END CTAB
M  END
>  <Structure No>
2265

>  <LogS>
-0.19127437

>  <MMFF94 Energy>
-28.98

$$$$
Compound 2266
Actelion Java MolfileCreator 2.0

  0  0  0  0  0  0              0 V3000
M  V30 BEGIN CTAB
M  V30 COUNTS 14 13 0 0 0
M  V30 BEGIN ATOM
M  V30 1 O 0.8368 -1.9027 0.8368 0
M  V30 2 C 0.8509 -0.7213 0.3956 0
M  V30 3 N -0.3758 -0.1093 -0.0571 0
M  V30 4 N 2.0959 -0.0161 0.357 0
M  V30 5 C -1.6228 -0.879 0.0054 0
M  V30 6 C -0.383 1.2627 -0.5739 0
M  V30 7 H 2.1714 0.9619 0.0033 0
M  V30 8 H 2.9675 -0.484 0.6913 0
M  V30 9 H -1.8318 -1.1682 1.0572 0
M  V30 10 H -1.5281 -1.796 -0.6137 0
M  V30 11 H -2.4889 -0.2953 -0.3711 0
M  V30 12 H 0.2773 1.3325 -1.4638 0
M  V30 13 H -0.0272 1.962 0.2119 0
M  V30 14 H -1.4014 1.5828 -0.879 0
M  V30 END ATOM
M  V30 BEGIN BOND
M  V30 1 2 1 2
M  V30 2 1 2 3
M  V30 3 1 2 4
M  V30 4 1 3 5
M  V30 5 1 3 6
M  V30 6 1 4 7
M  V30 7 1 4 8
M  V30 8 1 5 9
M  V30 9 1 5 10
M  V30 10 1 5 11
M  V30 11 1 6 12
M  V30 12 1 6 13
M  V30 13 1 6 14
M  V30 END BOND
M  V30 END CTAB
M  END
>  <Structure No>
2266

>  <LogS>
0.212431567

>  <MMFF94 Energy>
-89.333

$$$$
Compound 2267
Actelion Java MolfileCreator 2.0

  0  0  0  0  0  0              0 V3000
M  V30 BEGIN CTAB
M  V30 COUNTS 2 1 0 0 0
M  V30 BEGIN ATOM
M  V30 1 N 0 0 0 0
M  V30 2 C 0 0 0 0
M  V30 END ATOM
M  V30 BEGIN BOND
M  V30 1 3 1 2
M  V30 END BOND
M  V30 END CTAB
M  END
>  <Structure No>
2267

>  <LogS>
-0.304208728

>  <MMFF94 Energy>
MMFF94 error code 2

$$$$
Compound 2268
Actelion Java MolfileCreator 2.0

  0  0  0  0  0  0              0 V3000
M  V30 BEGIN CTAB
M  V30 COUNTS 18 18 0 0 0
M  V30 BEGIN ATOM
M  V30 1 O -2.9584 0.4792 1.1186 0
M  V30 2 C -2.2451 -0.5582 1.1445 0
M  V30 3 O -2.1307 -1.2784 2.328 0 CHG=-1
M  V30 4 C -1.487 -0.9775 -0.0867 0 CFG=2
M  V30 5 O -1.2211 -2.3586 -0.0776 0
M  V30 6 C -0.2081 -0.1786 -0.2475 0
M  V30 7 C 0.7475 -0.1263 0.7858 0
M  V30 8 C 0.0536 0.4994 -1.4521 0
M  V30 9 C 1.9305 0.6003 0.6194 0
M  V30 10 C 1.2383 1.2247 -1.6131 0
M  V30 11 C 2.1751 1.2762 -0.5781 0
M  V30 12 H -2.1532 -0.783 -0.9557 0
M  V30 13 H -0.6032 -2.5508 0.6753 0
M  V30 14 H 0.5772 -0.6457 1.7203 0
M  V30 15 H -0.6579 0.4683 -2.2679 0
M  V30 16 H 2.6585 0.6383 1.4196 0
M  V30 17 H 1.4308 1.746 -2.542 0
M  V30 18 H 3.0918 1.8377 -0.7051 0
M  V30 END ATOM
M  V30 BEGIN BOND
M  V30 1 2 1 2
M  V30 2 1 2 3
M  V30 3 1 2 4
M  V30 4 1 4 5
M  V30 5 1 4 6
M  V30 6 2 6 7
M  V30 7 1 6 8
M  V30 8 1 7 9
M  V30 9 2 8 10
M  V30 10 2 9 11
M  V30 11 1 10 11
M  V30 12 1 4 12
M  V30 13 1 5 13
M  V30 14 1 7 14
M  V30 15 1 8 15
M  V30 16 1 9 16
M  V30 17 1 10 17
M  V30 18 1 11 18
M  V30 END BOND
M  V30 BEGIN COLLECTION
M  V30 MDLV30/STEABS ATOMS=(1 4)
M  V30 END COLLECTION
M  V30 END CTAB
M  END
>  <Structure No>
2268

>  <LogS>
-0.032126941

>  <MMFF94 Energy>
97.524

$$$$
Compound 2269
Actelion Java MolfileCreator 2.0

  0  0  0  0  0  0              0 V3000
M  V30 BEGIN CTAB
M  V30 COUNTS 17 17 0 0 0
M  V30 BEGIN ATOM
M  V30 1 O -3.0163 1.1898 0.3171 0
M  V30 2 C -1.9478 0.5262 0.273 0
M  V30 3 N -1.8659 -0.8413 0.6207 0
M  V30 4 N -0.7014 1.0759 -0.1315 0
M  V30 5 C -0.497 -1.1629 0.423 0
M  V30 6 C 0.3069 0.018 -0.0581 0
M  V30 7 O -0.0276 -2.3129 0.6326 0
M  V30 8 C 0.8971 -0.2461 -1.448 0
M  V30 9 C 1.3944 0.3944 0.9544 0
M  V30 10 H -2.6335 -1.4692 0.9472 0
M  V30 11 H -0.5387 2.0641 -0.4286 0
M  V30 12 H 1.6245 -1.0852 -1.408 0
M  V30 13 H 0.0914 -0.508 -2.1676 0
M  V30 14 H 1.4193 0.6604 -1.8215 0
M  V30 15 H 0.9443 0.5903 1.9516 0
M  V30 16 H 2.1343 -0.4286 1.054 0
M  V30 17 H 1.9255 1.3125 0.6235 0
M  V30 END ATOM
M  V30 BEGIN BOND
M  V30 1 2 1 2
M  V30 2 1 2 3
M  V30 3 1 2 4
M  V30 4 1 3 5
M  V30 5 1 4 6
M  V30 6 2 5 7
M  V30 7 1 6 8
M  V30 8 1 6 9
M  V30 9 1 5 6
M  V30 10 1 3 10
M  V30 11 1 4 11
M  V30 12 1 8 12
M  V30 13 1 8 13
M  V30 14 1 8 14
M  V30 15 1 9 15
M  V30 16 1 9 16
M  V30 17 1 9 17
M  V30 END BOND
M  V30 END CTAB
M  END
>  <Structure No>
2269

>  <LogS>
0.03847382

>  <MMFF94 Energy>
-65.493

$$$$
Compound 2270
Actelion Java MolfileCreator 2.0

  0  0  0  0  0  0              0 V3000
M  V30 BEGIN CTAB
M  V30 COUNTS 98 103 0 0 0
M  V30 BEGIN ATOM
M  V30 1 S -1.8391 -1.1701 -0.4177 0
M  V30 2 O -1.0171 -2.059 0.4719 0
M  V30 3 O -0.9914 -0.6458 -1.5413 0
M  V30 4 O -3.0915 -2.0887 -1.0608 0 CHG=-1
M  V30 5 C -2.5072 0.178 0.512 0
M  V30 6 C -1.8042 0.7961 1.5773 0
M  V30 7 C -3.8151 0.5973 0.2174 0
M  V30 8 C -2.4479 1.777 2.3451 0
M  V30 9 C -0.4208 0.4511 1.9616 0
M  V30 10 C -4.4567 1.5684 1.0049 0
M  V30 11 C -3.7544 2.166 2.056 0
M  V30 12 C 0.6159 0.5836 1.1235 0
M  V30 13 N -5.8035 1.9933 0.7352 0
M  V30 14 C 2.0246 0.4657 1.5851 0
M  V30 15 C -6.8711 1.1214 0.3347 0
M  V30 16 C 3.0344 -0.0978 0.7648 0
M  V30 17 C 2.38 0.9645 2.854 0
M  V30 18 N -8.1103 1.6362 0.1276 0
M  V30 19 N -6.672 -0.2158 0.2001 0
M  V30 20 S 2.6776 -0.7556 -0.8404 0
M  V30 21 C 4.3524 -0.1794 1.2481 0
M  V30 22 C 3.6953 0.8937 3.3086 0
M  V30 23 C -9.1437 0.8294 -0.2235 0
M  V30 24 C -7.6928 -1.0295 -0.1697 0
M  V30 25 O 1.6687 -1.8614 -0.7191 0
M  V30 26 O 3.9247 -1.3121 -1.469 0
M  V30 27 O 2.079 0.4593 -1.8348 0 CHG=-1
M  V30 28 C 4.6955 0.3357 2.5085 0
M  V30 29 N -8.9261 -0.5018 -0.3871 0
M  V30 30 N -10.4362 1.403 -0.4722 0
M  V30 31 N -7.4515 -2.4301 -0.3553 0
M  V30 32 N 6.0336 0.2429 3.0299 0
M  V30 33 C -11.6224 0.6325 -0.7281 0
M  V30 34 C -8.4949 -3.3649 -0.7716 0
M  V30 35 C 7.2346 0.3664 2.2539 0
M  V30 36 C -12.5607 1.1029 -1.6593 0
M  V30 37 C -11.8894 -0.555 -0.0238 0
M  V30 38 C -9.3568 -3.7664 0.4213 0
M  V30 39 N 7.1917 0.6966 0.935 0
M  V30 40 N 8.4375 0.2015 2.8625 0
M  V30 41 C -13.7286 0.3715 -1.924 0
M  V30 42 C -13.0506 -1.2852 -0.2896 0
M  V30 43 O -10.3667 -4.6379 -0.004 0
M  V30 44 C 8.3394 0.8229 0.2202 0
M  V30 45 C 9.5897 0.3447 2.1614 0
M  V30 46 S -14.9077 0.9528 -3.0963 0
M  V30 47 C -13.9663 -0.8262 -1.2381 0
M  V30 48 N 9.5358 0.658 0.8416 0
M  V30 49 N 8.2765 1.1772 -1.1694 0
M  V30 50 N 10.8497 0.1793 2.8235 0
M  V30 51 O -15.3031 -0.1723 -4.0118 0
M  V30 52 O -14.3201 2.0638 -3.9203 0
M  V30 53 O -16.2647 1.5207 -2.2871 0 CHG=-1
M  V30 54 C 9.3986 1.1138 -2.0673 0
M  V30 55 C 12.1271 0.1502 2.1119 0
M  V30 56 C 10.3657 0.0967 -1.9641 0
M  V30 57 C 9.5064 2.0567 -3.1004 0
M  V30 58 C 12.5164 -1.287 1.7792 0
M  V30 59 C 11.4499 0.0526 -2.8517 0
M  V30 60 C 10.588 2.0172 -3.9837 0
M  V30 61 O 11.5717 -1.8541 0.9156 0
M  V30 62 S 12.6819 -1.1948 -2.6796 0
M  V30 63 C 11.562 1.0236 -3.8555 0
M  V30 64 O 13.3471 -1.4476 -4.0039 0
M  V30 65 O 12.0511 -2.4733 -2.2042 0
M  V30 66 O 13.8321 -0.6885 -1.5643 0 CHG=-1
M  V30 67 H -4.3299 0.167 -0.6306 0
M  V30 68 H -1.9306 2.2519 3.1716 0
M  V30 69 H -0.2419 0.23 3.0062 0
M  V30 70 H -4.2265 2.928 2.664 0
M  V30 71 H 0.4263 0.8331 0.0907 0
M  V30 72 H -6.0602 2.9761 0.9827 0
M  V30 73 H 1.6444 1.4382 3.4924 0
M  V30 74 H 5.1048 -0.674 0.6527 0
M  V30 75 H 3.9374 1.2819 4.2911 0
M  V30 76 H -10.4919 2.4398 -0.5769 0
M  V30 77 H -6.4745 -2.7866 -0.2554 0
M  V30 78 H 6.1465 0.1883 4.0681 0
M  V30 79 H -8.0192 -4.2777 -1.1925 0
M  V30 80 H -9.1222 -2.9065 -1.5681 0
M  V30 81 H -12.3703 2.0321 -2.185 0
M  V30 82 H -11.2164 -0.9009 0.7485 0
M  V30 83 H -8.7191 -4.2709 1.1821 0
M  V30 84 H -9.8123 -2.8631 0.8813 0
M  V30 85 H -13.2459 -2.2039 0.2496 0
M  V30 86 H -10.8985 -4.8575 0.8069 0
M  V30 87 H -14.8685 -1.3946 -1.4265 0
M  V30 88 H 7.3791 1.584 -1.5242 0
M  V30 89 H 10.8505 -0.0508 3.8427 0
M  V30 90 H 12.9119 0.5954 2.7604 0
M  V30 91 H 12.0796 0.7609 1.1845 0
M  V30 92 H 10.2681 -0.6723 -1.2106 0
M  V30 93 H 8.7593 2.8341 -3.2091 0
M  V30 94 H 13.5167 -1.2875 1.2929 0
M  V30 95 H 12.5752 -1.8806 2.7179 0
M  V30 96 H 10.6732 2.7597 -4.7686 0
M  V30 97 H 11.879 -2.7809 0.7443 0
M  V30 98 H 12.3995 1.0097 -4.5408 0
M  V30 END ATOM
M  V30 BEGIN BOND
M  V30 1 2 1 2
M  V30 2 2 1 3
M  V30 3 1 1 4
M  V30 4 1 1 5
M  V30 5 2 5 6
M  V30 6 1 5 7
M  V30 7 1 6 8
M  V30 8 1 6 9
M  V30 9 2 7 10
M  V30 10 2 8 11
M  V30 11 2 9 12
M  V30 12 1 10 13
M  V30 13 1 12 14
M  V30 14 1 13 15
M  V30 15 2 14 16
M  V30 16 1 14 17
M  V30 17 2 15 18
M  V30 18 1 15 19
M  V30 19 1 16 20
M  V30 20 1 16 21
M  V30 21 2 17 22
M  V30 22 1 18 23
M  V30 23 2 19 24
M  V30 24 2 20 25
M  V30 25 2 20 26
M  V30 26 1 20 27
M  V30 27 2 21 28
M  V30 28 2 23 29
M  V30 29 1 23 30
M  V30 30 1 24 31
M  V30 31 1 28 32
M  V30 32 1 30 33
M  V30 33 1 31 34
M  V30 34 1 32 35
M  V30 35 2 33 36
M  V30 36 1 33 37
M  V30 37 1 34 38
M  V30 38 2 35 39
M  V30 39 1 35 40
M  V30 40 1 36 41
M  V30 41 2 37 42
M  V30 42 1 38 43
M  V30 43 1 39 44
M  V30 44 2 40 45
M  V30 45 1 41 46
M  V30 46 2 41 47
M  V30 47 2 44 48
M  V30 48 1 44 49
M  V30 49 1 45 50
M  V30 50 2 46 51
M  V30 51 2 46 52
M  V30 52 1 46 53
M  V30 53 1 49 54
M  V30 54 1 50 55
M  V30 55 2 54 56
M  V30 56 1 54 57
M  V30 57 1 55 58
M  V30 58 1 56 59
M  V30 59 2 57 60
M  V30 60 1 58 61
M  V30 61 1 59 62
M  V30 62 2 59 63
M  V30 63 2 62 64
M  V30 64 2 62 65
M  V30 65 1 62 66
M  V30 66 1 10 11
M  V30 67 1 22 28
M  V30 68 1 24 29
M  V30 69 1 42 47
M  V30 70 1 45 48
M  V30 71 1 60 63
M  V30 72 1 7 67
M  V30 73 1 8 68
M  V30 74 1 9 69
M  V30 75 1 11 70
M  V30 76 1 12 71
M  V30 77 1 13 72
M  V30 78 1 17 73
M  V30 79 1 21 74
M  V30 80 1 22 75
M  V30 81 1 30 76
M  V30 82 1 31 77
M  V30 83 1 32 78
M  V30 84 1 34 79
M  V30 85 1 34 80
M  V30 86 1 36 81
M  V30 87 1 37 82
M  V30 88 1 38 83
M  V30 89 1 38 84
M  V30 90 1 42 85
M  V30 91 1 43 86
M  V30 92 1 47 87
M  V30 93 1 49 88
M  V30 94 1 50 89
M  V30 95 1 55 90
M  V30 96 1 55 91
M  V30 97 1 56 92
M  V30 98 1 57 93
M  V30 99 1 58 94
M  V30 100 1 58 95
M  V30 101 1 60 96
M  V30 102 1 61 97
M  V30 103 1 63 98
M  V30 END BOND
M  V30 END CTAB
M  END
>  <Structure No>
2270

>  <LogS>
-0.887690427

>  <MMFF94 Energy>
-163.43

$$$$
Compound 2271
Actelion Java MolfileCreator 2.0

  0  0  0  0  0  0              0 V3000
M  V30 BEGIN CTAB
M  V30 COUNTS 40 42 0 0 0
M  V30 BEGIN ATOM
M  V30 1 S 5.092 2.168 -3.7545 0
M  V30 2 O 4.7117 1.4315 -5.0071 0
M  V30 3 O 6.5439 1.9255 -3.4491 0
M  V30 4 O 4.8567 3.8162 -3.9814 0 CHG=-1
M  V30 5 C 4.0976 1.5996 -2.4183 0
M  V30 6 C 4.4836 0.4718 -1.6824 0
M  V30 7 C 2.8936 2.2467 -2.1102 0
M  V30 8 C 3.6762 5.0E-4 -0.6427 0
M  V30 9 C 2.087 1.7792 -1.0664 0
M  V30 10 C 2.473 0.6516 -0.3204 0
M  V30 11 N 1.6438 0.1365 0.736 0
M  V30 12 N 1.6392 -1.2026 1.1366 0
M  V30 13 C 0.7133 0.8316 1.5539 0
M  V30 14 C 0.7813 -1.3827 2.0919 0
M  V30 15 O 0.5421 2.0793 1.5469 0
M  V30 16 C 0.0516 -0.1231 2.4859 0 CFG=2
M  V30 17 C 0.5601 -2.7181 2.7217 0
M  V30 18 N -1.3791 -0.2355 2.2173 0
M  V30 19 N -1.8193 -0.4177 1.0361 0
M  V30 20 C -3.2184 -0.5348 0.7373 0
M  V30 21 C -3.6505 -0.7004 -0.6041 0
M  V30 22 C -4.1724 -0.4912 1.7736 0
M  V30 23 C -2.6998 -0.7482 -1.7479 0
M  V30 24 C -5.0308 -0.8128 -0.8652 0
M  V30 25 C -5.5341 -0.6039 1.4898 0
M  V30 26 O -1.4591 -0.6107 -1.576 0
M  V30 27 O -3.1729 -0.942 -3.0408 0 CHG=-1
M  V30 28 C -5.9618 -0.7628 0.1741 0
M  V30 29 H 5.4051 -0.0467 -1.9172 0
M  V30 30 H 2.5731 3.1071 -2.6825 0
M  V30 31 H 3.9925 -0.8725 -0.0841 0
M  V30 32 H 1.1516 2.2824 -0.8648 0
M  V30 33 H 0.2405 0.1414 3.5477 0
M  V30 34 H -0.1907 -2.6396 3.5365 0
M  V30 35 H 0.1912 -3.4347 1.958 0
M  V30 36 H 1.5148 -3.0937 3.1464 0
M  V30 37 H -3.8661 -0.365 2.8042 0
M  V30 38 H -5.3954 -0.9379 -1.8759 0
M  V30 39 H -6.2592 -0.5655 2.2938 0
M  V30 40 H -7.0181 -0.8518 -0.0452 0
M  V30 END ATOM
M  V30 BEGIN BOND
M  V30 1 2 1 2
M  V30 2 2 1 3
M  V30 3 1 1 4
M  V30 4 1 1 5
M  V30 5 2 5 6
M  V30 6 1 5 7
M  V30 7 1 6 8
M  V30 8 2 7 9
M  V30 9 2 8 10
M  V30 10 1 10 11
M  V30 11 1 11 12
M  V30 12 1 11 13
M  V30 13 2 12 14
M  V30 14 2 13 15
M  V30 15 1 13 16
M  V30 16 1 14 17
M  V30 17 1 16 18
M  V30 18 2 18 19
M  V30 19 1 19 20
M  V30 20 2 20 21
M  V30 21 1 20 22
M  V30 22 1 21 23
M  V30 23 1 21 24
M  V30 24 2 22 25
M  V30 25 2 23 26
M  V30 26 1 23 27
M  V30 27 2 24 28
M  V30 28 1 9 10
M  V30 29 1 14 16
M  V30 30 1 25 28
M  V30 31 1 6 29
M  V30 32 1 7 30
M  V30 33 1 8 31
M  V30 34 1 9 32
M  V30 35 1 16 33
M  V30 36 1 17 34
M  V30 37 1 17 35
M  V30 38 1 17 36
M  V30 39 1 22 37
M  V30 40 1 24 38
M  V30 41 1 25 39
M  V30 42 1 28 40
M  V30 END BOND
M  V30 BEGIN COLLECTION
M  V30 MDLV30/STEABS ATOMS=(1 16)
M  V30 END COLLECTION
M  V30 END CTAB
M  END
>  <Structure No>
2271

>  <LogS>
-1.491314993

>  <MMFF94 Energy>
153.94

$$$$
Compound 2272
Actelion Java MolfileCreator 2.0

  0  0  0  0  0  0              0 V3000
M  V30 BEGIN CTAB
M  V30 COUNTS 24 25 0 0 0
M  V30 BEGIN ATOM
M  V30 1 Cl 3.3917 2.9564 1.5644 0
M  V30 2 C 3.4965 1.3522 0.8731 0
M  V30 3 N 4.6938 0.7185 0.8069 0
M  V30 4 N 2.3801 0.7438 0.4006 0
M  V30 5 C 4.7738 -0.5229 0.2665 0
M  V30 6 C 2.4531 -0.5055 -0.1305 0
M  V30 7 Cl 6.3193 -1.3387 0.174 0
M  V30 8 N 3.6565 -1.1311 -0.2051 0
M  V30 9 N 1.286 -1.1495 -0.6616 0
M  V30 10 C -0.0592 -0.6901 -0.4463 0
M  V30 11 C -0.4586 -0.1417 0.7857 0
M  V30 12 C -1.0125 -0.8512 -1.4627 0
M  V30 13 C -1.7792 0.2755 0.9783 0
M  V30 14 C -2.3325 -0.4329 -1.2696 0
M  V30 15 C -2.7191 0.1421 -0.0518 0
M  V30 16 S -4.3845 0.6551 0.1965 0
M  V30 17 O -4.9836 1.0944 -1.1099 0
M  V30 18 O -4.4251 1.8091 1.1587 0
M  V30 19 O -5.2765 -0.6245 0.8193 0 CHG=-1
M  V30 20 H 1.4334 -1.9545 -1.312 0
M  V30 21 H 0.2398 -0.0601 1.6079 0
M  V30 22 H -0.7286 -1.2937 -2.4093 0
M  V30 23 H -2.0698 0.6924 1.9343 0
M  V30 24 H -3.0522 -0.5613 -2.068 0
M  V30 END ATOM
M  V30 BEGIN BOND
M  V30 1 1 1 2
M  V30 2 2 2 3
M  V30 3 1 2 4
M  V30 4 1 3 5
M  V30 5 2 4 6
M  V30 6 1 5 7
M  V30 7 2 5 8
M  V30 8 1 6 9
M  V30 9 1 9 10
M  V30 10 2 10 11
M  V30 11 1 10 12
M  V30 12 1 11 13
M  V30 13 2 12 14
M  V30 14 2 13 15
M  V30 15 1 15 16
M  V30 16 2 16 17
M  V30 17 2 16 18
M  V30 18 1 16 19
M  V30 19 1 6 8
M  V30 20 1 14 15
M  V30 21 1 9 20
M  V30 22 1 11 21
M  V30 23 1 12 22
M  V30 24 1 13 23
M  V30 25 1 14 24
M  V30 END BOND
M  V30 END CTAB
M  END
>  <Structure No>
2272

>  <LogS>
-1.38103092

>  <MMFF94 Energy>
-130.16

$$$$
Compound 2273
Actelion Java MolfileCreator 2.0

  0  0  0  0  0  0              0 V3000
M  V30 BEGIN CTAB
M  V30 COUNTS 40 40 0 0 0
M  V30 BEGIN ATOM
M  V30 1 O -4.0742 -1.8004 -1.6438 0
M  V30 2 C -4.4355 -0.8081 -0.7325 0
M  V30 3 C -3.514 -0.3663 0.2389 0
M  V30 4 C -5.7194 -0.2445 -0.7836 0
M  V30 5 C -3.8882 0.656 1.1282 0
M  V30 6 C -2.1164 -0.9307 0.2967 0
M  V30 7 C -6.0841 0.76 0.1159 0
M  V30 8 C -5.169 1.2116 1.0686 0
M  V30 9 C -1.1831 -0.1512 -0.6408 0
M  V30 10 C 0.2272 -0.7575 -0.7139 0
M  V30 11 C 1.0608 -0.4646 0.5451 0
M  V30 12 C 2.4529 -1.1205 0.505 0
M  V30 13 C 3.3767 -0.6279 -0.6272 0
M  V30 14 C 3.6157 0.8947 -0.6635 0
M  V30 15 C 4.1974 1.4881 0.6315 0
M  V30 16 C 5.581 0.9348 0.9702 0
M  V30 17 H -4.7191 -2.1319 -2.3516 0
M  V30 18 H -6.4338 -0.5821 -1.5234 0
M  V30 19 H -3.1869 1.0238 1.8671 0
M  V30 20 H -1.7424 -0.8771 1.3408 0
M  V30 21 H -2.1296 -2.0053 0.0122 0
M  V30 22 H -7.0753 1.1925 0.0709 0
M  V30 23 H -5.4511 1.9952 1.76 0
M  V30 24 H -1.1219 0.9116 -0.3179 0
M  V30 25 H -1.6156 -0.1651 -1.6656 0
M  V30 26 H 0.1598 -1.8547 -0.8823 0
M  V30 27 H 0.7343 -0.3105 -1.5948 0
M  V30 28 H 1.1549 0.6315 0.6946 0
M  V30 29 H 0.5356 -0.8688 1.4352 0
M  V30 30 H 2.9535 -0.9582 1.483 0
M  V30 31 H 2.3263 -2.2201 0.3992 0
M  V30 32 H 2.9587 -0.9442 -1.606 0
M  V30 33 H 4.3536 -1.1486 -0.5362 0
M  V30 34 H 2.6629 1.4134 -0.9011 0
M  V30 35 H 4.3094 1.1197 -1.5025 0
M  V30 36 H 3.5074 1.3207 1.4848 0
M  V30 37 H 4.2869 2.5879 0.4976 0
M  V30 38 H 6.0034 1.4979 1.8291 0
M  V30 39 H 6.2665 1.0446 0.1034 0
M  V30 40 H 5.5153 -0.1346 1.2587 0
M  V30 END ATOM
M  V30 BEGIN BOND
M  V30 1 1 1 2
M  V30 2 2 2 3
M  V30 3 1 2 4
M  V30 4 1 3 5
M  V30 5 1 3 6
M  V30 6 2 4 7
M  V30 7 2 5 8
M  V30 8 1 6 9
M  V30 9 1 9 10
M  V30 10 1 10 11
M  V30 11 1 11 12
M  V30 12 1 12 13
M  V30 13 1 13 14
M  V30 14 1 14 15
M  V30 15 1 15 16
M  V30 16 1 7 8
M  V30 17 1 1 17
M  V30 18 1 4 18
M  V30 19 1 5 19
M  V30 20 1 6 20
M  V30 21 1 6 21
M  V30 22 1 7 22
M  V30 23 1 8 23
M  V30 24 1 9 24
M  V30 25 1 9 25
M  V30 26 1 10 26
M  V30 27 1 10 27
M  V30 28 1 11 28
M  V30 29 1 11 29
M  V30 30 1 12 30
M  V30 31 1 12 31
M  V30 32 1 13 32
M  V30 33 1 13 33
M  V30 34 1 14 34
M  V30 35 1 14 35
M  V30 36 1 15 36
M  V30 37 1 15 37
M  V30 38 1 16 38
M  V30 39 1 16 39
M  V30 40 1 16 40
M  V30 END BOND
M  V30 END CTAB
M  END
>  <Structure No>
2273

>  <LogS>
-1.463069491

>  <MMFF94 Energy>
8.0645

$$$$
Compound 2274
Actelion Java MolfileCreator 2.0

  0  0  0  0  0  0              0 V3000
M  V30 BEGIN CTAB
M  V30 COUNTS 51 54 0 0 0
M  V30 BEGIN ATOM
M  V30 1 O -1.3504 1.3504 -2.6227 0
M  V30 2 C -0.7137 0.8319 -1.6669 0
M  V30 3 O 0.6159 0.8231 -1.7025 0
M  V30 4 C -1.3997 0.259 -0.5804 0
M  V30 5 C 1.3571 0.2849 -0.7384 0
M  V30 6 C -2.8761 0.2679 -0.5087 0
M  V30 7 C -0.6538 -0.3184 0.4522 0
M  V30 8 C 0.7414 -0.3106 0.3828 0
M  V30 9 C 2.7521 0.3082 -0.8353 0
M  V30 10 N -3.6233 1.4024 -0.4125 0 CHG=1
M  V30 11 N -3.648 -0.8538 -0.549 0
M  V30 12 C 1.5296 -0.874 1.3961 0
M  V30 13 C 3.5386 -0.2574 0.1777 0
M  V30 14 C -4.8999 0.971 -0.4275 0
M  V30 15 C -3.1593 2.7888 -0.374 0
M  V30 16 C -4.9142 -0.3945 -0.5081 0
M  V30 17 C -3.2303 -2.2416 -0.749 0
M  V30 18 C 2.9234 -0.8447 1.2927 0
M  V30 19 N 4.9695 -0.2271 0.0747 0
M  V30 20 C -6.0789 1.7192 -0.4048 0
M  V30 21 C -6.108 -1.1162 -0.5745 0
M  V30 22 C 5.661 -1.33 -0.6038 0
M  V30 23 C 5.6875 0.994 0.4615 0
M  V30 24 C -7.2986 1.0197 -0.4615 0
M  V30 25 C -7.3131 -0.3907 -0.5458 0
M  V30 26 C 5.7544 -2.5486 0.3072 0
M  V30 27 C 5.6874 1.1597 1.9774 0
M  V30 28 H -1.1585 -0.7634 1.3025 0
M  V30 29 H 3.2258 0.7642 -1.6961 0
M  V30 30 H 1.0702 -1.3321 2.2639 0
M  V30 31 H -3.7863 3.3816 0.3244 0
M  V30 32 H -3.2229 3.2315 -1.3901 0
M  V30 33 H -2.1101 2.8414 -0.0149 0
M  V30 34 H -3.696 -2.8875 0.0245 0
M  V30 35 H -2.1292 -2.3468 -0.6769 0
M  V30 36 H -3.5528 -2.5846 -1.7543 0
M  V30 37 H 3.527 -1.2757 2.0816 0
M  V30 38 H -6.0638 2.7997 -0.3529 0
M  V30 39 H -6.1127 -2.1957 -0.6487 0
M  V30 40 H 5.116 -1.6008 -1.5343 0
M  V30 41 H 6.6896 -1.0319 -0.8996 0
M  V30 42 H 5.2057 1.8785 -0.0093 0
M  V30 43 H 6.7416 0.9643 0.1119 0
M  V30 44 H -8.2323 1.5667 -0.446 0
M  V30 45 H -8.2578 -0.9166 -0.5942 0
M  V30 46 H 4.7422 -2.9532 0.5171 0
M  V30 47 H 6.3539 -3.3398 -0.1898 0
M  V30 48 H 6.2471 -2.2723 1.2634 0
M  V30 49 H 4.6518 1.3096 2.3494 0
M  V30 50 H 6.2946 2.0467 2.2558 0
M  V30 51 H 6.1238 0.2592 2.4597 0
M  V30 END ATOM
M  V30 BEGIN BOND
M  V30 1 2 1 2
M  V30 2 1 2 3
M  V30 3 1 2 4
M  V30 4 1 3 5
M  V30 5 1 4 6
M  V30 6 2 4 7
M  V30 7 2 5 8
M  V30 8 1 5 9
M  V30 9 2 6 10
M  V30 10 1 6 11
M  V30 11 1 8 12
M  V30 12 2 9 13
M  V30 13 1 10 14
M  V30 14 1 10 15
M  V30 15 1 11 16
M  V30 16 1 11 17
M  V30 17 2 12 18
M  V30 18 1 13 19
M  V30 19 1 14 20
M  V30 20 1 16 21
M  V30 21 1 19 22
M  V30 22 1 19 23
M  V30 23 2 20 24
M  V30 24 2 21 25
M  V30 25 1 22 26
M  V30 26 1 23 27
M  V30 27 1 7 8
M  V30 28 1 13 18
M  V30 29 2 14 16
M  V30 30 1 24 25
M  V30 31 1 7 28
M  V30 32 1 9 29
M  V30 33 1 12 30
M  V30 34 1 15 31
M  V30 35 1 15 32
M  V30 36 1 15 33
M  V30 37 1 17 34
M  V30 38 1 17 35
M  V30 39 1 17 36
M  V30 40 1 18 37
M  V30 41 1 20 38
M  V30 42 1 21 39
M  V30 43 1 22 40
M  V30 44 1 22 41
M  V30 45 1 23 42
M  V30 46 1 23 43
M  V30 47 1 24 44
M  V30 48 1 25 45
M  V30 49 1 26 46
M  V30 50 1 26 47
M  V30 51 1 26 48
M  V30 52 1 27 49
M  V30 53 1 27 50
M  V30 54 1 27 51
M  V30 END BOND
M  V30 END CTAB
M  END
>  <Structure No>
2274

>  <LogS>
-1.450561375

>  <MMFF94 Energy>
43.617

$$$$
Compound 2275
Actelion Java MolfileCreator 2.0

  0  0  0  0  0  0              0 V3000
M  V30 BEGIN CTAB
M  V30 COUNTS 19 18 0 0 0
M  V30 BEGIN ATOM
M  V30 1 O 1.2326 0.6161 1.9265 0
M  V30 2 C 1.3719 0.2377 0.7732 0
M  V30 3 C 0.4042 -0.7666 0.199 0
M  V30 4 C 2.5121 0.7766 -0.0392 0
M  V30 5 C -1.0161 -0.181 0.0565 0
M  V30 6 C -1.0558 0.9471 -0.9852 0
M  V30 7 C -2.008 -1.2856 -0.3281 0
M  V30 8 H 0.3802 -1.645 0.8804 0
M  V30 9 H 0.7586 -1.131 -0.79 0
M  V30 10 H 3.4735 0.5111 0.448 0
M  V30 11 H 2.5074 0.3623 -1.0689 0
M  V30 12 H 2.4304 1.882 -0.1037 0
M  V30 13 H -1.3376 0.2348 1.0376 0
M  V30 14 H -0.3982 1.7863 -0.6747 0
M  V30 15 H -0.7208 0.5765 -1.9778 0
M  V30 16 H -2.089 1.3444 -1.081 0
M  V30 17 H -3.036 -0.8704 -0.402 0
M  V30 18 H -2.015 -2.0819 0.4465 0
M  V30 19 H -1.7321 -1.7377 -1.3052 0
M  V30 END ATOM
M  V30 BEGIN BOND
M  V30 1 2 1 2
M  V30 2 1 2 3
M  V30 3 1 2 4
M  V30 4 1 3 5
M  V30 5 1 5 6
M  V30 6 1 5 7
M  V30 7 1 3 8
M  V30 8 1 3 9
M  V30 9 1 4 10
M  V30 10 1 4 11
M  V30 11 1 4 12
M  V30 12 1 5 13
M  V30 13 1 6 14
M  V30 14 1 6 15
M  V30 15 1 6 16
M  V30 16 1 7 17
M  V30 17 1 7 18
M  V30 18 1 7 19
M  V30 END BOND
M  V30 END CTAB
M  END
>  <Structure No>
2275

>  <LogS>
-0.851479539

>  <MMFF94 Energy>
4.8259

$$$$
Compound 2276
Actelion Java MolfileCreator 2.0

  0  0  0  0  0  0              0 V3000
M  V30 BEGIN CTAB
M  V30 COUNTS 18 18 0 0 0
M  V30 BEGIN ATOM
M  V30 1 O -1.7137 0.3114 0.1557 0
M  V30 2 C -0.3497 0.005 0.0222 0
M  V30 3 C -2.7579 -0.6555 0.2052 0
M  V30 4 C 0.5863 1.0586 -0.014 0
M  V30 5 C 0.1074 -1.3251 -0.0762 0
M  V30 6 N 0.1566 2.4214 0.0836 0
M  V30 7 C 1.9536 0.7727 -0.1467 0
M  V30 8 C 1.4715 -1.5956 -0.208 0
M  V30 9 C 2.3931 -0.5487 -0.2433 0
M  V30 10 H -2.6156 -1.3267 1.0784 0
M  V30 11 H -2.7752 -1.2472 -0.7342 0
M  V30 12 H -3.7304 -0.1333 0.3137 0
M  V30 13 H -0.5831 -2.1567 -0.0518 0
M  V30 14 H 0.8506 3.2017 0.0566 0
M  V30 15 H -0.8527 2.6689 0.1832 0
M  V30 16 H 2.6791 1.5762 -0.1754 0
M  V30 17 H 1.8147 -2.6195 -0.2831 0
M  V30 18 H 3.4494 -0.7615 -0.3455 0
M  V30 END ATOM
M  V30 BEGIN BOND
M  V30 1 1 1 2
M  V30 2 1 1 3
M  V30 3 2 2 4
M  V30 4 1 2 5
M  V30 5 1 4 6
M  V30 6 1 4 7
M  V30 7 2 5 8
M  V30 8 2 7 9
M  V30 9 1 8 9
M  V30 10 1 3 10
M  V30 11 1 3 11
M  V30 12 1 3 12
M  V30 13 1 5 13
M  V30 14 1 6 14
M  V30 15 1 6 15
M  V30 16 1 7 16
M  V30 17 1 8 17
M  V30 18 1 9 18
M  V30 END BOND
M  V30 END CTAB
M  END
>  <Structure No>
2276

>  <LogS>
-0.944324013

>  <MMFF94 Energy>
30.133

$$$$
Compound 2277
Actelion Java MolfileCreator 2.0

  0  0  0  0  0  0              0 V3000
M  V30 BEGIN CTAB
M  V30 COUNTS 25 24 0 0 0
M  V30 BEGIN ATOM
M  V30 1 O 3.2404 -1.3877 -0.1541 0
M  V30 2 C 4.032 -0.4838 0.5741 0
M  V30 3 C 1.9949 -1.0824 -0.7833 0
M  V30 4 C 3.7501 0.8138 0.702 0
M  V30 5 C 0.8713 -0.9948 0.2526 0
M  V30 6 O -0.3674 -0.7593 -0.3891 0
M  V30 7 C -0.6721 0.6205 -0.3851 0
M  V30 8 C -1.9329 0.8628 -1.2112 0
M  V30 9 O -3.0304 0.1131 -0.6976 0
M  V30 10 C -3.674 0.4578 0.4917 0
M  V30 11 C -4.6782 -0.2827 0.941 0
M  V30 12 H 4.9255 -0.8645 1.0511 0
M  V30 13 H 2.076 -0.1471 -1.3762 0
M  V30 14 H 1.7552 -1.9016 -1.4936 0
M  V30 15 H 2.8796 1.2634 0.2467 0
M  V30 16 H 4.4094 1.4508 1.2773 0
M  V30 17 H 0.8044 -1.974 0.7722 0
M  V30 18 H 1.1131 -0.244 1.0409 0
M  V30 19 H 0.1545 1.2158 -0.8351 0
M  V30 20 H -0.8494 0.9759 0.6548 0
M  V30 21 H -1.7453 0.5466 -2.2592 0
M  V30 22 H -2.182 1.9466 -1.218 0
M  V30 23 H -3.3593 1.3296 1.0534 0
M  V30 24 H -5.1796 -0.0181 1.8629 0
M  V30 25 H -5.005 -1.1565 0.3921 0
M  V30 END ATOM
M  V30 BEGIN BOND
M  V30 1 1 1 2
M  V30 2 1 1 3
M  V30 3 2 2 4
M  V30 4 1 3 5
M  V30 5 1 5 6
M  V30 6 1 6 7
M  V30 7 1 7 8
M  V30 8 1 8 9
M  V30 9 1 9 10
M  V30 10 2 10 11
M  V30 11 1 2 12
M  V30 12 1 3 13
M  V30 13 1 3 14
M  V30 14 1 4 15
M  V30 15 1 4 16
M  V30 16 1 5 17
M  V30 17 1 5 18
M  V30 18 1 7 19
M  V30 19 1 7 20
M  V30 20 1 8 21
M  V30 21 1 8 22
M  V30 22 1 10 23
M  V30 23 1 11 24
M  V30 24 1 11 25
M  V30 END BOND
M  V30 END CTAB
M  END
>  <Structure No>
2277

>  <LogS>
-1.053070208

>  <MMFF94 Energy>
54.842

$$$$
Compound 2278
Actelion Java MolfileCreator 2.0

  0  0  0  0  0  0              0 V3000
M  V30 BEGIN CTAB
M  V30 COUNTS 64 68 0 0 0
M  V30 BEGIN ATOM
M  V30 1 Cl 3.7589 0.0 -2.9892 0
M  V30 2 C 3.9541 -0.2509 -1.2663 0
M  V30 3 N 2.9774 0.1371 -0.4089 0
M  V30 4 N 5.0871 -0.8227 -0.7891 0
M  V30 5 C 3.1324 -0.0303 0.9317 0
M  V30 6 C 5.2476 -1.0075 0.5472 0
M  V30 7 N 4.269 -0.6127 1.4009 0
M  V30 8 N 2.0995 0.3855 1.8498 0
M  V30 9 N 6.4087 -1.6747 1.0615 0
M  V30 10 C 0.7578 0.6412 1.3873 0
M  V30 11 C 2.3565 0.3317 3.2928 0
M  V30 12 C 7.6293 -1.8252 0.3215 0
M  V30 13 C -0.3219 -0.0599 1.9445 0
M  V30 14 C 0.5097 1.6096 0.4019 0
M  V30 15 C 8.1326 -0.7764 -0.4674 0
M  V30 16 C 8.3651 -3.0136 0.4394 0
M  V30 17 C -1.6326 0.1825 1.5106 0
M  V30 18 C -0.7936 1.8516 -0.042 0
M  V30 19 C 9.3534 -0.9212 -1.1409 0
M  V30 20 C 9.5699 -3.1684 -0.2508 0
M  V30 21 C -1.8723 1.1368 0.5032 0
M  V30 22 C -2.7565 -0.5547 2.1294 0
M  V30 23 S 9.9968 0.4161 -2.091 0
M  V30 24 C 10.0633 -2.1258 -1.0409 0
M  V30 25 C -3.2601 1.372 0.0487 0
M  V30 26 C -4.021 -0.4159 1.7007 0
M  V30 27 O 11.4896 0.2902 -2.2054 0
M  V30 28 O 9.6735 1.7198 -1.4145 0
M  V30 29 O 9.3171 0.3966 -3.6278 0 CHG=-1
M  V30 30 O -3.5191 2.3613 -0.6884 0
M  V30 31 C -4.3351 0.4732 0.553 0
M  V30 32 S -5.3158 -1.3374 2.4763 0
M  V30 33 N -5.5343 0.415 0.0419 0
M  V30 34 O -6.4082 -0.3986 2.9044 0
M  V30 35 O -4.801 -2.0669 3.6855 0
M  V30 36 O -5.9295 -2.4559 1.3846 0 CHG=-1
M  V30 37 N -5.9866 1.0673 -1.1208 0
M  V30 38 C -7.3902 1.0552 -1.4394 0
M  V30 39 C -7.8538 1.2109 -2.7727 0
M  V30 40 C -8.3284 0.8525 -0.4107 0
M  V30 41 S -6.742 1.4555 -4.1278 0
M  V30 42 C -9.2331 1.1462 -3.0353 0
M  V30 43 C -9.6929 0.7887 -0.6901 0
M  V30 44 O -6.0261 2.7682 -3.9687 0
M  V30 45 O -7.497 1.4692 -5.427 0
M  V30 46 O -5.6245 0.2035 -4.1793 0 CHG=-1
M  V30 47 C -10.1447 0.923 -2.0015 0
M  V30 48 H 6.3357 -2.1318 1.9982 0
M  V30 49 H 1.6018 0.929 3.8493 0
M  V30 50 H 2.3154 -0.7224 3.6405 0
M  V30 51 H 3.3576 0.7551 3.5218 0
M  V30 52 H -0.1393 -0.8036 2.7111 0
M  V30 53 H 1.3251 2.1842 -0.0157 0
M  V30 54 H 7.5937 0.1628 -0.528 0
M  V30 55 H 7.9972 -3.8218 1.0575 0
M  V30 56 H -0.9584 2.5963 -0.8109 0
M  V30 57 H 10.1276 -4.0923 -0.1665 0
M  V30 58 H -2.5386 -1.2296 2.9474 0
M  V30 59 H 11.0011 -2.2569 -1.565 0
M  V30 60 H -5.3026 1.3917 -1.834 0
M  V30 61 H -8.0036 0.7481 0.6168 0
M  V30 62 H -9.6112 1.2562 -4.0425 0
M  V30 63 H -10.4024 0.6285 0.1146 0
M  V30 64 H -11.2037 0.865 -2.2184 0
M  V30 END ATOM
M  V30 BEGIN BOND
M  V30 1 1 1 2
M  V30 2 2 2 3
M  V30 3 1 2 4
M  V30 4 1 3 5
M  V30 5 2 4 6
M  V30 6 2 5 7
M  V30 7 1 5 8
M  V30 8 1 6 9
M  V30 9 1 8 10
M  V30 10 1 8 11
M  V30 11 1 9 12
M  V30 12 2 10 13
M  V30 13 1 10 14
M  V30 14 2 12 15
M  V30 15 1 12 16
M  V30 16 1 13 17
M  V30 17 2 14 18
M  V30 18 1 15 19
M  V30 19 2 16 20
M  V30 20 2 17 21
M  V30 21 1 17 22
M  V30 22 1 19 23
M  V30 23 2 19 24
M  V30 24 1 21 25
M  V30 25 2 22 26
M  V30 26 2 23 27
M  V30 27 2 23 28
M  V30 28 1 23 29
M  V30 29 2 25 30
M  V30 30 1 25 31
M  V30 31 1 26 32
M  V30 32 2 31 33
M  V30 33 2 32 34
M  V30 34 2 32 35
M  V30 35 1 32 36
M  V30 36 1 33 37
M  V30 37 1 37 38
M  V30 38 2 38 39
M  V30 39 1 38 40
M  V30 40 1 39 41
M  V30 41 1 39 42
M  V30 42 2 40 43
M  V30 43 2 41 44
M  V30 44 2 41 45
M  V30 45 1 41 46
M  V30 46 2 42 47
M  V30 47 1 6 7
M  V30 48 1 18 21
M  V30 49 1 20 24
M  V30 50 1 26 31
M  V30 51 1 43 47
M  V30 52 1 9 48
M  V30 53 1 11 49
M  V30 54 1 11 50
M  V30 55 1 11 51
M  V30 56 1 13 52
M  V30 57 1 14 53
M  V30 58 1 15 54
M  V30 59 1 16 55
M  V30 60 1 18 56
M  V30 61 1 20 57
M  V30 62 1 22 58
M  V30 63 1 24 59
M  V30 64 1 37 60
M  V30 65 1 40 61
M  V30 66 1 42 62
M  V30 67 1 43 63
M  V30 68 1 47 64
M  V30 END BOND
M  V30 END CTAB
M  END
>  <Structure No>
2278

>  <LogS>
-0.752029987

>  <MMFF94 Energy>
66.772

$$$$
Compound 2279
Actelion Java MolfileCreator 2.0

  0  0  0  0  0  0              0 V3000
M  V30 BEGIN CTAB
M  V30 COUNTS 4 3 0 0 0
M  V30 BEGIN ATOM
M  V30 1 O 1.249 -0.0832 0.0 0
M  V30 2 N 0.0059 0.0124 -0.0183 0 CHG=1
M  V30 3 O -0.7702 -1.1215 -0.0266 0 CHG=-1
M  V30 4 O -0.5877 1.2516 -0.0303 0 CHG=-1
M  V30 END ATOM
M  V30 BEGIN BOND
M  V30 1 2 1 2
M  V30 2 1 2 3
M  V30 3 1 2 4
M  V30 END BOND
M  V30 END CTAB
M  END
>  <Structure No>
2279

>  <LogS>
0.866122887

>  <MMFF94 Energy>
6.4146

$$$$
Compound 2280
Actelion Java MolfileCreator 2.0

  0  0  0  0  0  0              0 V3000
M  V30 BEGIN CTAB
M  V30 COUNTS 9 9 0 0 0
M  V30 BEGIN ATOM
M  V30 1 N -0.0768 -1.3834 0.4609 0
M  V30 2 N -1.0893 -0.6678 0.0 0
M  V30 3 C 0.9961 -0.5723 0.5348 0
M  V30 4 C -0.6855 0.5939 -0.2249 0
M  V30 5 C 0.6479 0.6933 0.1068 0
M  V30 6 H -2.0504 -1.0431 -0.1587 0
M  V30 7 H 1.9731 -0.8832 0.8793 0
M  V30 8 H -1.3174 1.3862 -0.6039 0
M  V30 9 H 1.281 1.5683 0.0457 0
M  V30 END ATOM
M  V30 BEGIN BOND
M  V30 1 1 1 2
M  V30 2 2 1 3
M  V30 3 1 2 4
M  V30 4 1 3 5
M  V30 5 2 4 5
M  V30 6 1 2 6
M  V30 7 1 3 7
M  V30 8 1 4 8
M  V30 9 1 5 9
M  V30 END BOND
M  V30 END CTAB
M  END
>  <Structure No>
2280

>  <LogS>
1.28788965

>  <MMFF94 Energy>
5.79

$$$$
Compound 2281
Actelion Java MolfileCreator 2.0

  0  0  0  0  0  0              0 V3000
M  V30 BEGIN CTAB
M  V30 COUNTS 59 60 0 0 0
M  V30 BEGIN ATOM
M  V30 1 Cl 5.7617 2.3176 -0.8786 0
M  V30 2 C 6.7434 0.9344 -1.3528 0
M  V30 3 C 6.2621 -0.3995 -1.3495 0
M  V30 4 C 8.0556 1.1959 -1.77 0
M  V30 5 N 4.9323 -0.7669 -0.9486 0
M  V30 6 C 7.1102 -1.4284 -1.7778 0
M  V30 7 C 8.9056 0.1572 -2.1886 0
M  V30 8 N 4.1232 0.0264 -0.3711 0
M  V30 9 C 8.4163 -1.1577 -2.1896 0
M  V30 10 N 10.2491 0.4335 -2.6231 0 CHG=1
M  V30 11 C 2.7963 -0.3694 9.0E-4 0
M  V30 12 O 10.6536 1.6103 -2.7259 0
M  V30 13 O 11.098 -0.5946 -2.9647 0 CHG=-1
M  V30 14 C 2.3021 -1.6574 -0.2786 0
M  V30 15 C 1.9827 0.5456 0.683 0
M  V30 16 C 1.0178 -2.0216 0.1299 0
M  V30 17 C 0.693 0.1822 1.0853 0
M  V30 18 C 0.2036 -1.1045 0.8071 0
M  V30 19 N -1.0891 -1.5102 1.2839 0
M  V30 20 C -2.2603 -1.4108 0.4027 0
M  V30 21 C -1.2048 -2.127 2.6114 0
M  V30 22 C -2.7948 0.0484 0.369 0
M  V30 23 C -1.5136 -1.0719 3.67 0
M  V30 24 N -4.2757 0.2074 0.1617 0 CHG=1
M  V30 25 C -4.5193 1.6734 -0.0768 0
M  V30 26 C -4.9978 -0.239 1.3837 0
M  V30 27 C -4.7202 -0.5852 -1.016 0
M  V30 28 C -5.9934 2.1249 -0.2963 0 CFG=1
M  V30 29 O -6.7502 1.9546 0.8744 0
M  V30 30 C -6.0324 3.6094 -0.6848 0
M  V30 31 H 8.4113 2.2192 -1.7697 0
M  V30 32 H 6.7509 -2.4512 -1.794 0
M  V30 33 H 9.0393 -1.9763 -2.5237 0
M  V30 34 H 2.9146 -2.3852 -0.797 0
M  V30 35 H 2.3592 1.5353 0.9176 0
M  V30 36 H 0.6638 -3.0241 -0.066 0
M  V30 37 H 0.0827 0.8986 1.6172 0
M  V30 38 H -1.9832 -1.7291 -0.6271 0
M  V30 39 H -3.0249 -2.1389 0.7329 0
M  V30 40 H -2.01 -2.8949 2.6198 0
M  V30 41 H -0.2602 -2.6497 2.8798 0
M  V30 42 H -2.4983 0.56 1.312 0
M  V30 43 H -2.2259 0.5719 -0.4371 0
M  V30 44 H -2.4537 -0.5381 3.4221 0
M  V30 45 H -1.6445 -1.5654 4.653 0
M  V30 46 H -0.682 -0.3404 3.7373 0
M  V30 47 H -4.1038 2.2702 0.7685 0
M  V30 48 H -3.9447 1.9952 -0.9762 0
M  V30 49 H -6.0894 -0.3736 1.2001 0
M  V30 50 H -4.6441 -1.2198 1.7586 0
M  V30 51 H -4.8588 0.4867 2.2173 0
M  V30 52 H -5.8141 -0.5059 -1.1851 0
M  V30 53 H -4.1936 -0.2558 -1.9377 0
M  V30 54 H -4.5397 -1.6717 -0.8805 0
M  V30 55 H -6.4437 1.5568 -1.1402 0
M  V30 56 H -7.706 1.9265 0.6015 0
M  V30 57 H -5.4269 3.7903 -1.5989 0
M  V30 58 H -5.6405 4.2386 0.1413 0
M  V30 59 H -7.0788 3.9144 -0.9004 0
M  V30 END ATOM
M  V30 BEGIN BOND
M  V30 1 1 1 2
M  V30 2 2 2 3
M  V30 3 1 2 4
M  V30 4 1 3 5
M  V30 5 1 3 6
M  V30 6 2 4 7
M  V30 7 2 5 8
M  V30 8 2 6 9
M  V30 9 1 7 10
M  V30 10 1 8 11
M  V30 11 2 10 12
M  V30 12 1 10 13
M  V30 13 2 11 14
M  V30 14 1 11 15
M  V30 15 1 14 16
M  V30 16 2 15 17
M  V30 17 2 16 18
M  V30 18 1 18 19
M  V30 19 1 19 20
M  V30 20 1 19 21
M  V30 21 1 20 22
M  V30 22 1 21 23
M  V30 23 1 22 24
M  V30 24 1 24 25
M  V30 25 1 24 26
M  V30 26 1 24 27
M  V30 27 1 25 28
M  V30 28 1 28 29
M  V30 29 1 28 30
M  V30 30 1 7 9
M  V30 31 1 17 18
M  V30 32 1 4 31
M  V30 33 1 6 32
M  V30 34 1 9 33
M  V30 35 1 14 34
M  V30 36 1 15 35
M  V30 37 1 16 36
M  V30 38 1 17 37
M  V30 39 1 20 38
M  V30 40 1 20 39
M  V30 41 1 21 40
M  V30 42 1 21 41
M  V30 43 1 22 42
M  V30 44 1 22 43
M  V30 45 1 23 44
M  V30 46 1 23 45
M  V30 47 1 23 46
M  V30 48 1 25 47
M  V30 49 1 25 48
M  V30 50 1 26 49
M  V30 51 1 26 50
M  V30 52 1 26 51
M  V30 53 1 27 52
M  V30 54 1 27 53
M  V30 55 1 27 54
M  V30 56 1 28 55
M  V30 57 1 29 56
M  V30 58 1 30 57
M  V30 59 1 30 58
M  V30 60 1 30 59
M  V30 END BOND
M  V30 BEGIN COLLECTION
M  V30 MDLV30/STEABS ATOMS=(1 28)
M  V30 END COLLECTION
M  V30 END CTAB
M  END
>  <Structure No>
2281

>  <LogS>
-0.573145985

>  <MMFF94 Energy>
151.53

$$$$
Compound 2282
Actelion Java MolfileCreator 2.0

  0  0  0  0  0  0              0 V3000
M  V30 BEGIN CTAB
M  V30 COUNTS 59 60 0 0 0
M  V30 BEGIN ATOM
M  V30 1 Cl 5.6 2.397 2.3171 0
M  V30 2 C 6.5204 1.7058 0.9912 0
M  V30 3 C 5.9443 0.7421 0.1477 0
M  V30 4 C 7.8329 2.1423 0.771 0
M  V30 5 N 4.5901 0.3251 0.3744 0
M  V30 6 C 6.7013 0.2192 -0.9152 0
M  V30 7 C 8.5892 1.6305 -0.2975 0
M  V30 8 N 4.0045 -0.5196 -0.3777 0
M  V30 9 C 8.0087 0.6616 -1.1346 0
M  V30 10 N 9.9275 2.1041 -0.5419 0 CHG=1
M  V30 11 C 2.6435 -0.9173 -0.1642 0
M  V30 12 O 10.4652 2.9345 0.2246 0
M  V30 13 O 10.6107 1.6995 -1.6673 0 CHG=-1
M  V30 14 C 2.0907 -1.9064 -0.9867 0
M  V30 15 C 1.8472 -0.3283 0.8348 0
M  V30 16 C 0.7591 -2.2977 -0.8239 0
M  V30 17 C 0.514 -0.7218 0.9979 0
M  V30 18 C -0.0407 -1.7045 0.165 0
M  V30 19 N -1.42 -2.0909 0.3065 0
M  V30 20 C -2.3108 -1.944 -0.861 0
M  V30 21 C -1.7675 -3.0463 1.37 0
M  V30 22 C -3.6718 -1.2857 -0.4953 0
M  V30 23 C -1.9955 -2.3402 2.7029 0
M  V30 24 N -3.7514 0.211 -0.6068 0 CHG=1
M  V30 25 C -5.1324 0.6061 -0.1589 0
M  V30 26 C -3.5575 0.6229 -2.0234 0
M  V30 27 C -2.7108 0.8452 0.2411 0
M  V30 28 C -5.3671 2.1207 0.1338 0 CFG=2
M  V30 29 O -4.8644 2.4747 1.3975 0
M  V30 30 C -6.8585 2.4661 0.054 0
M  V30 31 H 8.2527 2.8916 1.4289 0
M  V30 32 H 6.2805 -0.5287 -1.5811 0
M  V30 33 H 8.5648 0.2463 -1.9642 0
M  V30 34 H 2.6931 -2.3694 -1.7585 0
M  V30 35 H 2.2475 0.4461 1.4776 0
M  V30 36 H 0.3455 -3.0608 -1.4715 0
M  V30 37 H -0.0921 -0.2344 1.7507 0
M  V30 38 H -2.5078 -2.957 -1.2766 0
M  V30 39 H -1.8016 -1.3927 -1.6736 0
M  V30 40 H -0.9513 -3.7924 1.487 0
M  V30 41 H -2.686 -3.6129 1.1019 0
M  V30 42 H -3.9548 -1.6128 0.5286 0
M  V30 43 H -4.4424 -1.7426 -1.1611 0
M  V30 44 H -2.3669 -3.0716 3.4501 0
M  V30 45 H -1.0452 -1.9126 3.0856 0
M  V30 46 H -2.75 -1.5362 2.5927 0
M  V30 47 H -5.4198 0.0512 0.7644 0
M  V30 48 H -5.8709 0.2749 -0.9285 0
M  V30 49 H -3.8229 1.6844 -2.19 0
M  V30 50 H -2.5006 0.5336 -2.3444 0
M  V30 51 H -4.1868 0.0142 -2.7094 0
M  V30 52 H -2.7164 1.951 0.1425 0
M  V30 53 H -2.8526 0.5804 1.3105 0
M  V30 54 H -1.6967 0.5393 -0.0748 0
M  V30 55 H -4.8591 2.7536 -0.618 0
M  V30 56 H -5.3693 1.9628 2.0812 0
M  V30 57 H -7.0149 3.527 0.3319 0
M  V30 58 H -7.2307 2.319 -0.9807 0
M  V30 59 H -7.4462 1.8213 0.7433 0
M  V30 END ATOM
M  V30 BEGIN BOND
M  V30 1 1 1 2
M  V30 2 2 2 3
M  V30 3 1 2 4
M  V30 4 1 3 5
M  V30 5 1 3 6
M  V30 6 2 4 7
M  V30 7 2 5 8
M  V30 8 2 6 9
M  V30 9 1 7 10
M  V30 10 1 8 11
M  V30 11 2 10 12
M  V30 12 1 10 13
M  V30 13 2 11 14
M  V30 14 1 11 15
M  V30 15 1 14 16
M  V30 16 2 15 17
M  V30 17 2 16 18
M  V30 18 1 18 19
M  V30 19 1 19 20
M  V30 20 1 19 21
M  V30 21 1 20 22
M  V30 22 1 21 23
M  V30 23 1 22 24
M  V30 24 1 24 25
M  V30 25 1 24 26
M  V30 26 1 24 27
M  V30 27 1 25 28
M  V30 28 1 28 29
M  V30 29 1 28 30
M  V30 30 1 7 9
M  V30 31 1 17 18
M  V30 32 1 4 31
M  V30 33 1 6 32
M  V30 34 1 9 33
M  V30 35 1 14 34
M  V30 36 1 15 35
M  V30 37 1 16 36
M  V30 38 1 17 37
M  V30 39 1 20 38
M  V30 40 1 20 39
M  V30 41 1 21 40
M  V30 42 1 21 41
M  V30 43 1 22 42
M  V30 44 1 22 43
M  V30 45 1 23 44
M  V30 46 1 23 45
M  V30 47 1 23 46
M  V30 48 1 25 47
M  V30 49 1 25 48
M  V30 50 1 26 49
M  V30 51 1 26 50
M  V30 52 1 26 51
M  V30 53 1 27 52
M  V30 54 1 27 53
M  V30 55 1 27 54
M  V30 56 1 28 55
M  V30 57 1 29 56
M  V30 58 1 30 57
M  V30 59 1 30 58
M  V30 60 1 30 59
M  V30 END BOND
M  V30 BEGIN COLLECTION
M  V30 MDLV30/STEABS ATOMS=(1 28)
M  V30 END COLLECTION
M  V30 END CTAB
M  END
>  <Structure No>
2282

>  <LogS>
-0.551894305

>  <MMFF94 Energy>
155.49

$$$$
Compound 2283
Actelion Java MolfileCreator 2.0

  0  0  0  0  0  0              0 V3000
M  V30 BEGIN CTAB
M  V30 COUNTS 15 15 0 0 0
M  V30 BEGIN ATOM
M  V30 1 O -1.9451 -2.1073 0.1619 0
M  V30 2 C -1.1789 -1.1189 0.0167 0
M  V30 3 N 0.0908 -1.2204 -0.5862 0
M  V30 4 C -1.503 0.2489 0.466 0
M  V30 5 C 0.7377 0.0784 -0.5962 0 CFG=1
M  V30 6 C -0.2955 1.0734 -0.01 0
M  V30 7 C 1.9966 0.0353 0.2207 0
M  V30 8 O 1.9884 -0.4549 1.3813 0
M  V30 9 O 3.1731 0.5679 -0.2905 0 CHG=-1
M  V30 10 H 0.5061 -2.1023 -0.9611 0
M  V30 11 H -1.5885 0.2732 1.5735 0
M  V30 12 H -2.4449 0.6023 -0.006 0
M  V30 13 H 0.9821 0.3558 -1.645 0
M  V30 14 H -0.6204 1.7811 -0.804 0
M  V30 15 H 0.1203 1.6712 0.8315 0
M  V30 END ATOM
M  V30 BEGIN BOND
M  V30 1 2 1 2
M  V30 2 1 2 3
M  V30 3 1 2 4
M  V30 4 1 3 5
M  V30 5 1 4 6
M  V30 6 1 5 7
M  V30 7 2 7 8
M  V30 8 1 7 9
M  V30 9 1 5 6
M  V30 10 1 3 10
M  V30 11 1 4 11
M  V30 12 1 4 12
M  V30 13 1 5 13
M  V30 14 1 6 14
M  V30 15 1 6 15
M  V30 END BOND
M  V30 BEGIN COLLECTION
M  V30 MDLV30/STEABS ATOMS=(1 5)
M  V30 END COLLECTION
M  V30 END CTAB
M  END
>  <Structure No>
2283

>  <LogS>
-0.384250204

>  <MMFF94 Energy>
31.324

$$$$
Compound 2284
Actelion Java MolfileCreator 2.0

  0  0  0  0  0  0              0 V3000
M  V30 BEGIN CTAB
M  V30 COUNTS 66 69 0 0 0
M  V30 BEGIN ATOM
M  V30 1 S 10.3885 3.4816 0.7453 0
M  V30 2 O 11.7263 3.5835 1.4221 0
M  V30 3 O 9.3192 3.8591 1.7316 0
M  V30 4 O 10.3401 4.5344 -0.5619 0 CHG=-1
M  V30 5 C 10.1298 1.8345 0.1801 0
M  V30 6 C 8.8356 1.2947 0.1425 0
M  V30 7 C 11.2155 1.0639 -0.2566 0
M  V30 8 C 8.6273 -0.0183 -0.3201 0
M  V30 9 C 11.0113 -0.2397 -0.7159 0
M  V30 10 N 7.3188 -0.5996 -0.3696 0
M  V30 11 C 9.7225 -0.7791 -0.746 0
M  V30 12 N 6.2809 0.0353 0.0042 0
M  V30 13 C 4.9711 -0.5436 -0.0445 0
M  V30 14 C 4.7584 -1.8536 -0.5076 0
M  V30 15 C 3.8823 0.2169 0.3879 0
M  V30 16 C 3.4586 -2.3984 -0.5443 0
M  V30 17 C 2.5922 -0.3137 0.3574 0
M  V30 18 O 3.2145 -3.7033 -1.004 0
M  V30 19 C 2.3666 -1.6163 -0.12 0
M  V30 20 C 4.2197 -4.599 -1.4679 0
M  V30 21 N 1.0414 -2.1778 -0.1221 0
M  V30 22 C -0.1452 -1.4216 -0.4062 0
M  V30 23 O -0.0586 -0.291 -0.9589 0
M  V30 24 N -1.4325 -1.9934 -0.1273 0
M  V30 25 C -2.6658 -1.2509 -0.1566 0
M  V30 26 C -3.8546 -1.8873 -0.5642 0
M  V30 27 C -2.7109 0.0857 0.2772 0
M  V30 28 O -3.7946 -3.2285 -0.9775 0
M  V30 29 C -5.0656 -1.1662 -0.5563 0
M  V30 30 C -3.9147 0.792 0.2782 0
M  V30 31 C -4.9152 -3.9923 -1.4116 0
M  V30 32 C -5.1003 0.1691 -0.1411 0
M  V30 33 N -6.3536 0.8635 -0.1434 0
M  V30 34 N -6.4542 2.0824 0.2095 0
M  V30 35 C -7.7082 2.7752 0.2117 0
M  V30 36 C -8.9074 2.1348 -0.1538 0
M  V30 37 C -7.7366 4.122 0.5935 0
M  V30 38 C -10.1193 2.8415 -0.1414 0
M  V30 39 C -8.9442 4.8251 0.613 0
M  V30 40 S -11.6218 2.0349 -0.5807 0
M  V30 41 C -10.1331 4.1874 0.2491 0
M  V30 42 O -11.3411 0.9189 -1.548 0
M  V30 43 O -12.5549 3.0163 -1.2335 0
M  V30 44 O -12.343 1.4093 0.8015 0 CHG=-1
M  V30 45 H 7.9968 1.8959 0.4695 0
M  V30 46 H 12.2181 1.472 -0.2439 0
M  V30 47 H 11.8529 -0.8323 -1.0506 0
M  V30 48 H 9.5748 -1.7905 -1.1037 0
M  V30 49 H 5.6035 -2.4425 -0.8358 0
M  V30 50 H 4.0367 1.2226 0.7593 0
M  V30 51 H 1.7732 0.2866 0.7321 0
M  V30 52 H 4.7377 -4.1679 -2.3505 0
M  V30 53 H 3.7426 -5.5542 -1.7684 0
M  V30 54 H 4.9502 -4.8064 -0.6573 0
M  V30 55 H 0.9348 -3.203 0.0497 0
M  V30 56 H -1.4748 -3.0194 0.0649 0
M  V30 57 H -1.8199 0.5786 0.6428 0
M  V30 58 H -5.9891 -1.6341 -0.8705 0
M  V30 59 H -3.9199 1.8201 0.6175 0
M  V30 60 H -4.5767 -5.0158 -1.6722 0
M  V30 61 H -5.3682 -3.5279 -2.3129 0
M  V30 62 H -5.6672 -4.0634 -0.5976 0
M  V30 63 H -8.901 1.0914 -0.4421 0
M  V30 64 H -6.8211 4.6254 0.878 0
M  V30 65 H -8.9589 5.8651 0.913 0
M  V30 66 H -11.0628 4.7415 0.2752 0
M  V30 END ATOM
M  V30 BEGIN BOND
M  V30 1 2 1 2
M  V30 2 2 1 3
M  V30 3 1 1 4
M  V30 4 1 1 5
M  V30 5 2 5 6
M  V30 6 1 5 7
M  V30 7 1 6 8
M  V30 8 2 7 9
M  V30 9 1 8 10
M  V30 10 2 8 11
M  V30 11 2 10 12
M  V30 12 1 12 13
M  V30 13 2 13 14
M  V30 14 1 13 15
M  V30 15 1 14 16
M  V30 16 2 15 17
M  V30 17 1 16 18
M  V30 18 2 16 19
M  V30 19 1 18 20
M  V30 20 1 19 21
M  V30 21 1 21 22
M  V30 22 2 22 23
M  V30 23 1 22 24
M  V30 24 1 24 25
M  V30 25 2 25 26
M  V30 26 1 25 27
M  V30 27 1 26 28
M  V30 28 1 26 29
M  V30 29 2 27 30
M  V30 30 1 28 31
M  V30 31 2 29 32
M  V30 32 1 32 33
M  V30 33 2 33 34
M  V30 34 1 34 35
M  V30 35 2 35 36
M  V30 36 1 35 37
M  V30 37 1 36 38
M  V30 38 2 37 39
M  V30 39 1 38 40
M  V30 40 2 38 41
M  V30 41 2 40 42
M  V30 42 2 40 43
M  V30 43 1 40 44
M  V30 44 1 9 11
M  V30 45 1 17 19
M  V30 46 1 30 32
M  V30 47 1 39 41
M  V30 48 1 6 45
M  V30 49 1 7 46
M  V30 50 1 9 47
M  V30 51 1 11 48
M  V30 52 1 14 49
M  V30 53 1 15 50
M  V30 54 1 17 51
M  V30 55 1 20 52
M  V30 56 1 20 53
M  V30 57 1 20 54
M  V30 58 1 21 55
M  V30 59 1 24 56
M  V30 60 1 27 57
M  V30 61 1 29 58
M  V30 62 1 30 59
M  V30 63 1 31 60
M  V30 64 1 31 61
M  V30 65 1 31 62
M  V30 66 1 36 63
M  V30 67 1 37 64
M  V30 68 1 39 65
M  V30 69 1 41 66
M  V30 END BOND
M  V30 END CTAB
M  END
>  <Structure No>
2284

>  <LogS>
-0.714875651

>  <MMFF94 Energy>
91.487

$$$$
Compound 2285
Actelion Java MolfileCreator 2.0

  0  0  0  0  0  0              0 V3000
M  V30 BEGIN CTAB
M  V30 COUNTS 22 21 0 0 0
M  V30 BEGIN ATOM
M  V30 1 O 0.31 1.939 -0.6977 0
M  V30 2 C 0.7845 0.8367 -0.3055 0
M  V30 3 O -0.0421 -0.1007 0.3268 0
M  V30 4 C 2.2178 0.5249 -0.5023 0
M  V30 5 C -1.4457 0.0814 0.5176 0 CFG=1
M  V30 6 C 3.0198 1.364 -1.1687 0
M  V30 7 C 2.7557 -0.7894 -0.0081 0
M  V30 8 C -2.192 -0.1654 -0.8012 0
M  V30 9 C -1.9191 -0.8842 1.6046 0
M  V30 10 O -3.5586 0.0985 -0.6388 0
M  V30 11 H -1.6432 1.1196 0.8679 0
M  V30 12 H 2.6542 2.3055 -1.5587 0
M  V30 13 H 4.0615 1.1221 -1.3392 0
M  V30 14 H 2.355 -1.01 1.0037 0
M  V30 15 H 2.4483 -1.5985 -0.7032 0
M  V30 16 H 3.8648 -0.7788 0.063 0
M  V30 17 H -1.7825 0.5035 -1.5896 0
M  V30 18 H -2.0439 -1.2203 -1.1257 0
M  V30 19 H -3.0003 -0.7378 1.813 0
M  V30 20 H -1.7468 -1.9364 1.292 0
M  V30 21 H -1.3551 -0.6962 2.5428 0
M  V30 22 H -3.9823 -0.0938 -1.5152 0
M  V30 END ATOM
M  V30 BEGIN BOND
M  V30 1 2 1 2
M  V30 2 1 2 3
M  V30 3 1 2 4
M  V30 4 1 3 5
M  V30 5 2 4 6
M  V30 6 1 4 7
M  V30 7 1 5 8
M  V30 8 1 5 9
M  V30 9 1 8 10
M  V30 10 1 5 11
M  V30 11 1 6 12
M  V30 12 1 6 13
M  V30 13 1 7 14
M  V30 14 1 7 15
M  V30 15 1 7 16
M  V30 16 1 8 17
M  V30 17 1 8 18
M  V30 18 1 9 19
M  V30 19 1 9 20
M  V30 20 1 9 21
M  V30 21 1 10 22
M  V30 END BOND
M  V30 BEGIN COLLECTION
M  V30 MDLV30/STEABS ATOMS=(1 5)
M  V30 END COLLECTION
M  V30 END CTAB
M  END
>  <Structure No>
2285

>  <LogS>
-0.044931546

>  <MMFF94 Energy>
15.519

$$$$
Compound 2286
Actelion Java MolfileCreator 2.0

  0  0  0  0  0  0              0 V3000
M  V30 BEGIN CTAB
M  V30 COUNTS 23 24 0 0 0
M  V30 BEGIN ATOM
M  V30 1 O -4.3395 -0.2407 -1.0433 0
M  V30 2 C -3.2481 0.0457 -0.5753 0
M  V30 3 C -2.3184 0.9224 -1.3557 0
M  V30 4 C -2.8394 -0.5062 0.7527 0
M  V30 5 O -1.1938 1.3314 -0.5791 0
M  V30 6 O -1.6818 -1.3205 0.6042 0
M  V30 7 C -0.1607 0.4672 -0.1956 0
M  V30 8 C -0.399 -0.8337 0.3128 0
M  V30 9 C 1.1563 0.9237 -0.3314 0
M  V30 10 C 0.6884 -1.6734 0.5796 0
M  V30 11 C 2.2402 0.0798 -0.0512 0
M  V30 12 C 1.9981 -1.2214 0.4065 0
M  V30 13 C 3.6463 0.5856 -0.1836 0
M  V30 14 H -2.8695 1.8324 -1.6736 0
M  V30 15 H -1.9743 0.3876 -2.267 0
M  V30 16 H -3.6585 -1.1276 1.1739 0
M  V30 17 H -2.637 0.3207 1.4672 0
M  V30 18 H 1.3332 1.9314 -0.6878 0
M  V30 19 H 0.5169 -2.6736 0.9574 0
M  V30 20 H 2.8229 -1.8823 0.6429 0
M  V30 21 H 3.7161 1.3405 -0.9957 0
M  V30 22 H 3.9622 1.0523 0.7726 0
M  V30 23 H 4.3412 -0.2456 -0.428 0
M  V30 END ATOM
M  V30 BEGIN BOND
M  V30 1 2 1 2
M  V30 2 1 2 3
M  V30 3 1 2 4
M  V30 4 1 3 5
M  V30 5 1 4 6
M  V30 6 1 5 7
M  V30 7 1 6 8
M  V30 8 1 7 9
M  V30 9 1 8 10
M  V30 10 2 9 11
M  V30 11 2 10 12
M  V30 12 1 11 13
M  V30 13 2 7 8
M  V30 14 1 11 12
M  V30 15 1 3 14
M  V30 16 1 3 15
M  V30 17 1 4 16
M  V30 18 1 4 17
M  V30 19 1 9 18
M  V30 20 1 10 19
M  V30 21 1 12 20
M  V30 22 1 13 21
M  V30 23 1 13 22
M  V30 24 1 13 23
M  V30 END BOND
M  V30 END CTAB
M  END
>  <Structure No>
2286

>  <LogS>
-1.114155449

>  <MMFF94 Energy>
68.427

$$$$
Compound 2287
Actelion Java MolfileCreator 2.0

  0  0  0  0  0  0              0 V3000
M  V30 BEGIN CTAB
M  V30 COUNTS 29 29 0 0 0
M  V30 BEGIN ATOM
M  V30 1 O 2.465 1.2716 -1.4307 0
M  V30 2 C 2.545 0.1867 -0.7909 0
M  V30 3 O 3.7933 -0.3902 -0.5286 0
M  V30 4 C 1.3253 -0.4908 -0.3181 0
M  V30 5 C 5.0317 0.2121 -0.8998 0
M  V30 6 N 1.4408 -1.6614 0.3658 0
M  V30 7 C 0.0495 0.0467 -0.5577 0
M  V30 8 C 5.373 1.3633 0.0393 0
M  V30 9 C 0.356 -2.3347 0.8291 0
M  V30 10 C -1.0918 -0.6277 -0.0905 0
M  V30 11 C -0.9274 -1.8323 0.6104 0
M  V30 12 C -2.446 -0.0815 -0.3294 0
M  V30 13 O -2.5892 1.0023 -0.9601 0
M  V30 14 O -3.5692 -0.7746 0.1405 0
M  V30 15 C -4.9052 -0.2951 0.0017 0
M  V30 16 C -5.1832 0.8205 1.0024 0
M  V30 17 H 4.989 0.5706 -1.9512 0
M  V30 18 H 5.8321 -0.5539 -0.8295 0
M  V30 19 H -0.0527 0.9784 -1.1006 0
M  V30 20 H 4.6125 2.1678 -0.041 0
M  V30 21 H 6.3651 1.7828 -0.2297 0
M  V30 22 H 5.4083 0.999 1.0877 0
M  V30 23 H 0.4901 -3.2626 1.3688 0
M  V30 24 H -1.7806 -2.382 0.9874 0
M  V30 25 H -5.0834 0.0626 -1.0356 0
M  V30 26 H -5.6042 -1.1346 0.201 0
M  V30 27 H -4.9979 0.4573 2.0354 0
M  V30 28 H -6.2427 1.1419 0.9184 0
M  V30 29 H -4.5289 1.6941 0.8008 0
M  V30 END ATOM
M  V30 BEGIN BOND
M  V30 1 2 1 2
M  V30 2 1 2 3
M  V30 3 1 2 4
M  V30 4 1 3 5
M  V30 5 2 4 6
M  V30 6 1 4 7
M  V30 7 1 5 8
M  V30 8 1 6 9
M  V30 9 2 7 10
M  V30 10 2 9 11
M  V30 11 1 10 12
M  V30 12 2 12 13
M  V30 13 1 12 14
M  V30 14 1 14 15
M  V30 15 1 15 16
M  V30 16 1 10 11
M  V30 17 1 5 17
M  V30 18 1 5 18
M  V30 19 1 7 19
M  V30 20 1 8 20
M  V30 21 1 8 21
M  V30 22 1 8 22
M  V30 23 1 9 23
M  V30 24 1 11 24
M  V30 25 1 15 25
M  V30 26 1 15 26
M  V30 27 1 16 27
M  V30 28 1 16 28
M  V30 29 1 16 29
M  V30 END BOND
M  V30 END CTAB
M  END
>  <Structure No>
2287

>  <LogS>
-1.2184149

>  <MMFF94 Energy>
39.583

$$$$
Compound 2288
Actelion Java MolfileCreator 2.0

  0  0  0  0  0  0              0 V3000
M  V30 BEGIN CTAB
M  V30 COUNTS 106 111 0 0 0
M  V30 BEGIN ATOM
M  V30 1 S 2.7708 1.2217 2.3629 0
M  V30 2 O 1.664 0.8336 3.3066 0
M  V30 3 O 2.4168 2.4962 1.6476 0
M  V30 4 O 4.1765 1.481 3.252 0 CHG=-1
M  V30 5 C 3.0096 -0.077 1.1806 0
M  V30 6 C 1.9433 -0.587 0.389 0
M  V30 7 C 4.2952 -0.6238 1.0454 0
M  V30 8 C 2.2132 -1.6246 -0.5231 0
M  V30 9 C 0.5716 -0.02 0.4999 0
M  V30 10 C 4.5535 -1.6485 0.1214 0
M  V30 11 C 3.501 -2.1479 -0.6536 0
M  V30 12 C -0.5448 -0.7293 0.2898 0
M  V30 13 N 5.8628 -2.2357 -0.0079 0
M  V30 14 C -1.8954 -0.1297 0.4145 0
M  V30 15 C 7.093 -1.516 0.1743 0
M  V30 16 C -2.9233 -0.4364 -0.5092 0
M  V30 17 C -2.1759 0.7396 1.4851 0
M  V30 18 N 8.2517 -2.2014 0.3426 0
M  V30 19 N 7.12 -0.1568 0.1335 0
M  V30 20 S -2.6434 -1.5382 -1.8682 0
M  V30 21 C -4.1883 0.1618 -0.3635 0
M  V30 22 C -3.4418 1.3031 1.6296 0
M  V30 23 C 9.4264 -1.5391 0.5088 0
M  V30 24 C 8.2926 0.5116 0.2625 0
M  V30 25 O -1.4602 -1.0718 -2.6673 0
M  V30 26 O -3.8406 -1.5697 -2.7759 0
M  V30 27 O -2.3568 -3.0862 -1.2805 0 CHG=-1
M  V30 28 C -4.4678 1.0087 0.7272 0
M  V30 29 N 9.4408 -0.183 0.4663 0
M  V30 30 N 10.6462 -2.2713 0.7152 0
M  V30 31 N 8.3078 1.9429 0.1976 0
M  V30 32 N -5.7464 1.6537 0.8932 0
M  V30 33 C 10.8355 -3.6063 0.1204 0
M  V30 34 C 11.6789 -1.7191 1.6037 0
M  V30 35 C 9.4546 2.7075 -0.2069 0
M  V30 36 C -7.0177 1.1439 0.4663 0
M  V30 37 C 11.0462 -3.5082 -1.3976 0
M  V30 38 C 12.843 -1.1316 0.8151 0
M  V30 39 C 10.3644 2.2119 -1.1582 0
M  V30 40 C 9.6348 4.0049 0.2961 0
M  V30 41 N -8.1141 1.9316 0.5909 0
M  V30 42 N -7.1514 -0.1185 -0.0191 0
M  V30 43 O 9.8574 -3.1349 -2.0445 0
M  V30 44 O 12.3834 -0.1073 -0.021 0
M  V30 45 C 11.4517 2.9862 -1.5682 0
M  V30 46 C 10.7214 4.7807 -0.1191 0
M  V30 47 C -9.3337 1.4944 0.1884 0
M  V30 48 C -8.3692 -0.5755 -0.4118 0
M  V30 49 C 11.6323 4.2691 -1.0468 0
M  V30 50 N -9.451 0.2427 -0.3276 0
M  V30 51 N -10.4857 2.3607 0.2829 0
M  V30 52 N -8.4931 -1.9047 -0.9372 0
M  V30 53 C -10.4468 3.5637 1.1325 0
M  V30 54 C -11.6847 2.0977 -0.5248 0
M  V30 55 C -9.7356 -2.6226 -1.0354 0
M  V30 56 C -9.993 4.7947 0.3414 0
M  V30 57 C -12.5937 1.0795 0.1611 0
M  V30 58 C -10.7548 -2.4553 -0.0804 0
M  V30 59 C -9.9055 -3.5694 -2.0557 0
M  V30 60 O -8.6416 4.6815 0.0022 0
M  V30 61 O -13.7503 0.9055 -0.6116 0
M  V30 62 C -11.9476 -3.1773 -0.188 0
M  V30 63 C -11.0974 -4.2899 -2.1604 0
M  V30 64 C -12.1206 -4.0867 -1.2302 0
M  V30 65 H 5.09 -0.2653 1.6909 0
M  V30 66 H 1.438 -2.0196 -1.1636 0
M  V30 67 H 0.4757 1.02 0.7747 0
M  V30 68 H 3.6834 -2.945 -1.36 0
M  V30 69 H -0.4731 -1.7698 0.0075 0
M  V30 70 H 5.926 -3.2356 -0.2926 0
M  V30 71 H -1.4189 0.9722 2.2223 0
M  V30 72 H -4.9455 -0.0212 -1.1025 0
M  V30 73 H -3.628 1.9589 2.4758 0
M  V30 74 H 7.435 2.451 0.4519 0
M  V30 75 H -5.7649 2.5471 1.4374 0
M  V30 76 H 9.9601 -4.2544 0.3479 0
M  V30 77 H 11.7298 -4.1052 0.5607 0
M  V30 78 H 12.0611 -2.5144 2.2813 0
M  V30 79 H 11.2531 -0.9308 2.2632 0
M  V30 80 H 11.4034 -4.4873 -1.7898 0
M  V30 81 H 11.8294 -2.7451 -1.6206 0
M  V30 82 H 13.3274 -1.9276 0.2083 0
M  V30 83 H 13.5898 -0.7327 1.5386 0
M  V30 84 H 10.2199 1.2373 -1.6 0
M  V30 85 H 8.9361 4.4147 1.0154 0
M  V30 86 H 9.2758 -3.939 -2.0765 0
M  V30 87 H 13.1925 0.3752 -0.3392 0
M  V30 88 H 12.1497 2.5884 -2.2934 0
M  V30 89 H 10.8543 5.7802 0.27 0
M  V30 90 H 12.4792 4.8653 -1.3631 0
M  V30 91 H -7.6242 -2.3533 -1.3036 0
M  V30 92 H -9.7759 3.4044 2.0054 0
M  V30 93 H -11.4582 3.7546 1.5515 0
M  V30 94 H -11.3903 1.7278 -1.5348 0
M  V30 95 H -12.2579 3.0403 -0.6649 0
M  V30 96 H -10.6054 4.9112 -0.5778 0
M  V30 97 H -10.1404 5.6995 0.9704 0
M  V30 98 H -12.0632 0.1097 0.2674 0
M  V30 99 H -12.8622 1.445 1.1735 0
M  V30 100 H -10.6113 -1.803 0.768 0
M  V30 101 H -9.1182 -3.724 -2.7781 0
M  V30 102 H -8.4018 5.5306 -0.4589 0
M  V30 103 H -14.2169 0.1085 -0.2344 0
M  V30 104 H -12.7329 -3.0328 0.5416 0
M  V30 105 H -11.2211 -5.0174 -2.9527 0
M  V30 106 H -13.04 -4.6426 -1.3078 0
M  V30 END ATOM
M  V30 BEGIN BOND
M  V30 1 2 1 2
M  V30 2 2 1 3
M  V30 3 1 1 4
M  V30 4 1 1 5
M  V30 5 2 5 6
M  V30 6 1 5 7
M  V30 7 1 6 8
M  V30 8 1 6 9
M  V30 9 2 7 10
M  V30 10 2 8 11
M  V30 11 2 9 12
M  V30 12 1 10 13
M  V30 13 1 12 14
M  V30 14 1 13 15
M  V30 15 2 14 16
M  V30 16 1 14 17
M  V30 17 2 15 18
M  V30 18 1 15 19
M  V30 19 1 16 20
M  V30 20 1 16 21
M  V30 21 2 17 22
M  V30 22 1 18 23
M  V30 23 2 19 24
M  V30 24 2 20 25
M  V30 25 2 20 26
M  V30 26 1 20 27
M  V30 27 2 21 28
M  V30 28 2 23 29
M  V30 29 1 23 30
M  V30 30 1 24 31
M  V30 31 1 28 32
M  V30 32 1 30 33
M  V30 33 1 30 34
M  V30 34 1 31 35
M  V30 35 1 32 36
M  V30 36 1 33 37
M  V30 37 1 34 38
M  V30 38 2 35 39
M  V30 39 1 35 40
M  V30 40 2 36 41
M  V30 41 1 36 42
M  V30 42 1 37 43
M  V30 43 1 38 44
M  V30 44 1 39 45
M  V30 45 2 40 46
M  V30 46 1 41 47
M  V30 47 2 42 48
M  V30 48 2 45 49
M  V30 49 2 47 50
M  V30 50 1 47 51
M  V30 51 1 48 52
M  V30 52 1 51 53
M  V30 53 1 51 54
M  V30 54 1 52 55
M  V30 55 1 53 56
M  V30 56 1 54 57
M  V30 57 2 55 58
M  V30 58 1 55 59
M  V30 59 1 56 60
M  V30 60 1 57 61
M  V30 61 1 58 62
M  V30 62 2 59 63
M  V30 63 2 62 64
M  V30 64 1 10 11
M  V30 65 1 22 28
M  V30 66 1 24 29
M  V30 67 1 46 49
M  V30 68 1 48 50
M  V30 69 1 63 64
M  V30 70 1 7 65
M  V30 71 1 8 66
M  V30 72 1 9 67
M  V30 73 1 11 68
M  V30 74 1 12 69
M  V30 75 1 13 70
M  V30 76 1 17 71
M  V30 77 1 21 72
M  V30 78 1 22 73
M  V30 79 1 31 74
M  V30 80 1 32 75
M  V30 81 1 33 76
M  V30 82 1 33 77
M  V30 83 1 34 78
M  V30 84 1 34 79
M  V30 85 1 37 80
M  V30 86 1 37 81
M  V30 87 1 38 82
M  V30 88 1 38 83
M  V30 89 1 39 84
M  V30 90 1 40 85
M  V30 91 1 43 86
M  V30 92 1 44 87
M  V30 93 1 45 88
M  V30 94 1 46 89
M  V30 95 1 49 90
M  V30 96 1 52 91
M  V30 97 1 53 92
M  V30 98 1 53 93
M  V30 99 1 54 94
M  V30 100 1 54 95
M  V30 101 1 56 96
M  V30 102 1 56 97
M  V30 103 1 57 98
M  V30 104 1 57 99
M  V30 105 1 58 100
M  V30 106 1 59 101
M  V30 107 1 60 102
M  V30 108 1 61 103
M  V30 109 1 62 104
M  V30 110 1 63 105
M  V30 111 1 64 106
M  V30 END BOND
M  V30 END CTAB
M  END
>  <Structure No>
2288

>  <LogS>
-1.887960137

>  <MMFF94 Energy>
-262.28

$$$$
Compound 2289
Actelion Java MolfileCreator 2.0

  0  0  0  0  0  0              0 V3000
M  V30 BEGIN CTAB
M  V30 COUNTS 24 24 0 0 0
M  V30 BEGIN ATOM
M  V30 1 O -0.709 2.0494 -0.315 0
M  V30 2 C -0.4738 0.8163 -0.1784 0
M  V30 3 C 0.9469 0.3769 -0.1196 0
M  V30 4 C -1.6512 -0.1413 -0.0477 0
M  V30 5 C 1.9235 1.1024 -0.8282 0
M  V30 6 C 1.3544 -0.7269 0.6559 0
M  V30 7 O -1.2445 -1.4398 -0.4132 0
M  V30 8 C -2.7904 0.2991 -0.9911 0
M  V30 9 C -2.152 -0.1274 1.4095 0
M  V30 10 C 3.2677 0.7207 -0.7803 0
M  V30 11 C 2.7004 -1.1039 0.7005 0
M  V30 12 C 3.6555 -0.3828 -0.0183 0
M  V30 13 H 1.6448 1.9595 -1.4292 0
M  V30 14 H 0.6455 -1.2923 1.2431 0
M  V30 15 H -2.0103 -2.0565 -0.2704 0
M  V30 16 H -3.1657 1.3103 -0.7221 0
M  V30 17 H -3.6436 -0.4103 -0.9301 0
M  V30 18 H -2.4304 0.3198 -2.0425 0
M  V30 19 H -2.4642 0.8976 1.7057 0
M  V30 20 H -3.0245 -0.805 1.5292 0
M  V30 21 H -1.3558 -0.4636 2.1053 0
M  V30 22 H 4.009 1.2817 -1.3347 0
M  V30 23 H 3.0038 -1.9534 1.2989 0
M  V30 24 H 4.6966 -0.6763 0.0186 0
M  V30 END ATOM
M  V30 BEGIN BOND
M  V30 1 2 1 2
M  V30 2 1 2 3
M  V30 3 1 2 4
M  V30 4 2 3 5
M  V30 5 1 3 6
M  V30 6 1 4 7
M  V30 7 1 4 8
M  V30 8 1 4 9
M  V30 9 1 5 10
M  V30 10 2 6 11
M  V30 11 2 10 12
M  V30 12 1 11 12
M  V30 13 1 5 13
M  V30 14 1 6 14
M  V30 15 1 7 15
M  V30 16 1 8 16
M  V30 17 1 8 17
M  V30 18 1 8 18
M  V30 19 1 9 19
M  V30 20 1 9 20
M  V30 21 1 9 21
M  V30 22 1 10 22
M  V30 23 1 11 23
M  V30 24 1 12 24
M  V30 END BOND
M  V30 END CTAB
M  END
>  <Structure No>
2289

>  <LogS>
-1.091532091

>  <MMFF94 Energy>
67.624

$$$$
Compound 2290
Actelion Java MolfileCreator 2.0

  0  0  0  0  0  0              0 V3000
M  V30 BEGIN CTAB
M  V30 COUNTS 22 23 0 0 0
M  V30 BEGIN ATOM
M  V30 1 O -2.1937 2.3564 -1.3808 0
M  V30 2 C -2.0904 1.3053 -0.6959 0
M  V30 3 O -3.1788 0.5598 -0.2603 0
M  V30 4 C -0.8257 0.7805 -0.111 0 CFG=1
M  V30 5 C -2.6678 -0.5594 0.3846 0
M  V30 6 C -1.2007 -0.6731 0.1576 0 CFG=2
M  V30 7 C 0.4829 0.8016 -0.8939 0
M  V30 8 O -3.383 -1.4191 0.9624 0
M  V30 9 C -0.2678 -1.2147 1.2348 0
M  V30 10 C 1.5258 -0.0315 -0.1383 0
M  V30 11 C 1.174 -0.965 0.798 0
M  V30 12 C 2.9766 0.1296 -0.4962 0
M  V30 13 H -0.6718 1.3304 0.8476 0
M  V30 14 H -1.0722 -1.289 -0.7637 0
M  V30 15 H 0.8329 1.8518 -0.9914 0
M  V30 16 H 0.3362 0.3788 -1.9114 0
M  V30 17 H -0.4543 -0.7094 2.207 0
M  V30 18 H -0.4351 -2.3055 1.3606 0
M  V30 19 H 1.9525 -1.5291 1.3045 0
M  V30 20 H 3.386 -0.8377 -0.8567 0
M  V30 21 H 3.106 0.8864 -1.2986 0
M  V30 22 H 3.5486 0.4594 0.3965 0
M  V30 END ATOM
M  V30 BEGIN BOND
M  V30 1 2 1 2
M  V30 2 1 2 3
M  V30 3 1 2 4
M  V30 4 1 3 5
M  V30 5 1 4 6
M  V30 6 1 4 7
M  V30 7 2 5 8
M  V30 8 1 6 9
M  V30 9 1 7 10
M  V30 10 1 9 11
M  V30 11 1 10 12
M  V30 12 1 5 6
M  V30 13 2 10 11
M  V30 14 1 4 13
M  V30 15 1 6 14
M  V30 16 1 7 15
M  V30 17 1 7 16
M  V30 18 1 9 17
M  V30 19 1 9 18
M  V30 20 1 11 19
M  V30 21 1 12 20
M  V30 22 1 12 21
M  V30 23 1 12 22
M  V30 END BOND
M  V30 BEGIN COLLECTION
M  V30 MDLV30/STEABS ATOMS=(2 4 6)
M  V30 END COLLECTION
M  V30 END CTAB
M  END
>  <Structure No>
2290

>  <LogS>
-1.09999437

>  <MMFF94 Energy>
-29.047

$$$$
Compound 2291
Actelion Java MolfileCreator 2.0

  0  0  0  0  0  0              0 V3000
M  V30 BEGIN CTAB
M  V30 COUNTS 27 26 0 0 0
M  V30 BEGIN ATOM
M  V30 1 O -2.6235 1.8513 0.3083 0
M  V30 2 C -1.3303 1.3562 0.5201 0
M  V30 3 C -1.007 0.2464 -0.5038 0 CFG=1
M  V30 4 C 0.5223 0.0631 -0.6735 0
M  V30 5 C -1.7029 -1.0965 -0.1635 0
M  V30 6 C 1.2535 -0.3681 0.6137 0
M  V30 7 C -3.2113 -1.0709 -0.4126 0
M  V30 8 C 2.7507 -0.6238 0.3802 0
M  V30 9 C 3.5411 0.6621 0.139 0
M  V30 10 H -2.7767 2.535 1.0113 0
M  V30 11 H -1.2423 0.9614 1.5573 0
M  V30 12 H -0.6079 2.1957 0.4053 0
M  V30 13 H -1.3799 0.5849 -1.4972 0
M  V30 14 H 0.9486 1.0227 -1.036 0
M  V30 15 H 0.7078 -0.6911 -1.4696 0
M  V30 16 H -1.5226 -1.3723 0.8975 0
M  V30 17 H -1.2742 -1.9028 -0.7981 0
M  V30 18 H 1.1308 0.4013 1.4057 0
M  V30 19 H 0.8097 -1.3139 0.989 0
M  V30 20 H -3.7212 -0.4208 0.3274 0
M  V30 21 H -3.4334 -0.7139 -1.4405 0
M  V30 22 H -3.6201 -2.0974 -0.3016 0
M  V30 23 H 2.8925 -1.3157 -0.4782 0
M  V30 24 H 3.1663 -1.1214 1.2833 0
M  V30 25 H 3.3651 1.3875 0.9616 0
M  V30 26 H 4.6255 0.4265 0.1029 0
M  V30 27 H 3.2572 1.1237 -0.829 0
M  V30 END ATOM
M  V30 BEGIN BOND
M  V30 1 1 1 2
M  V30 2 1 2 3
M  V30 3 1 3 4
M  V30 4 1 3 5
M  V30 5 1 4 6
M  V30 6 1 5 7
M  V30 7 1 6 8
M  V30 8 1 8 9
M  V30 9 1 1 10
M  V30 10 1 2 11
M  V30 11 1 2 12
M  V30 12 1 3 13
M  V30 13 1 4 14
M  V30 14 1 4 15
M  V30 15 1 5 16
M  V30 16 1 5 17
M  V30 17 1 6 18
M  V30 18 1 6 19
M  V30 19 1 7 20
M  V30 20 1 7 21
M  V30 21 1 7 22
M  V30 22 1 8 23
M  V30 23 1 8 24
M  V30 24 1 9 25
M  V30 25 1 9 26
M  V30 26 1 9 27
M  V30 END BOND
M  V30 BEGIN COLLECTION
M  V30 MDLV30/STEABS ATOMS=(1 3)
M  V30 END COLLECTION
M  V30 END CTAB
M  END
>  <Structure No>
2291

>  <LogS>
-1.237789285

>  <MMFF94 Energy>
5.6527

$$$$
Compound 2292
Actelion Java MolfileCreator 2.0

  0  0  0  0  0  0              0 V3000
M  V30 BEGIN CTAB
M  V30 COUNTS 16 15 0 0 0
M  V30 BEGIN ATOM
M  V30 1 O 0.4607 2.3821 0.9215 0
M  V30 2 C 0.7117 1.1909 1.0146 0
M  V30 3 C 0.7085 0.3158 -0.2129 0 CFG=2
M  V30 4 C -0.6901 0.2534 -0.8671 0
M  V30 5 C 1.2614 -1.0792 0.1078 0
M  V30 6 C -1.7758 -0.3448 0.0324 0
M  V30 7 H 0.9465 0.7757 1.9901 0
M  V30 8 H 1.4001 0.7774 -0.952 0
M  V30 9 H -0.9996 1.2807 -1.1601 0
M  V30 10 H -0.6314 -0.3454 -1.802 0
M  V30 11 H 0.6829 -1.5634 0.9226 0
M  V30 12 H 1.2257 -1.7246 -0.7955 0
M  V30 13 H 2.3207 -0.9987 0.4332 0
M  V30 14 H -1.8493 0.2131 0.9894 0
M  V30 15 H -2.7564 -0.2803 -0.4841 0
M  V30 16 H -1.5684 -1.4145 0.2416 0
M  V30 END ATOM
M  V30 BEGIN BOND
M  V30 1 2 1 2
M  V30 2 1 2 3
M  V30 3 1 3 4
M  V30 4 1 3 5
M  V30 5 1 4 6
M  V30 6 1 2 7
M  V30 7 1 3 8
M  V30 8 1 4 9
M  V30 9 1 4 10
M  V30 10 1 5 11
M  V30 11 1 5 12
M  V30 12 1 5 13
M  V30 13 1 6 14
M  V30 14 1 6 15
M  V30 15 1 6 16
M  V30 END BOND
M  V30 BEGIN COLLECTION
M  V30 MDLV30/STEABS ATOMS=(1 3)
M  V30 END COLLECTION
M  V30 END CTAB
M  END
>  <Structure No>
2292

>  <LogS>
-0.821231264

>  <MMFF94 Energy>
3.0211

$$$$
Compound 2293
Actelion Java MolfileCreator 2.0

  0  0  0  0  0  0              0 V3000
M  V30 BEGIN CTAB
M  V30 COUNTS 30 29 0 0 0
M  V30 BEGIN ATOM
M  V30 1 O -0.2324 -3.1032 0.5425 0
M  V30 2 C 0.5661 -2.2982 -0.0063 0
M  V30 3 N 0.1017 -1.0568 -0.5678 0
M  V30 4 C -1.338 -0.8305 -0.7865 0
M  V30 5 C 1.0842 -0.109 -1.1184 0
M  V30 6 C -1.9033 0.2306 0.1777 0
M  V30 7 C 1.7052 0.7973 -0.0286 0
M  V30 8 C -3.383 0.4901 -0.1296 0
M  V30 9 C -1.7367 -0.195 1.6428 0
M  V30 10 C 2.5905 0.0147 0.9511 0
M  V30 11 C 2.5234 1.9169 -0.6856 0
M  V30 12 H 1.6177 -2.5512 -0.0419 0
M  V30 13 H -1.5 -0.5009 -1.8363 0
M  V30 14 H -1.9106 -1.7773 -0.675 0
M  V30 15 H 0.5873 0.5382 -1.8746 0
M  V30 16 H 1.8819 -0.6634 -1.6608 0
M  V30 17 H -1.3596 1.1862 0.0205 0
M  V30 18 H 0.892 1.2786 0.554 0
M  V30 19 H -3.5022 0.8338 -1.1794 0
M  V30 20 H -3.7805 1.284 0.5383 0
M  V30 21 H -3.9828 -0.434 0.0155 0
M  V30 22 H -0.6621 -0.3075 1.8961 0
M  V30 23 H -2.2532 -1.1606 1.8312 0
M  V30 24 H -2.1635 0.5774 2.3175 0
M  V30 25 H 1.9734 -0.6579 1.5807 0
M  V30 26 H 3.1141 0.7116 1.6398 0
M  V30 27 H 3.351 -0.5826 0.4043 0
M  V30 28 H 1.8779 2.5233 -1.3561 0
M  V30 29 H 2.9407 2.5959 0.0885 0
M  V30 30 H 3.3607 1.4921 -1.2801 0
M  V30 END ATOM
M  V30 BEGIN BOND
M  V30 1 2 1 2
M  V30 2 1 2 3
M  V30 3 1 3 4
M  V30 4 1 3 5
M  V30 5 1 4 6
M  V30 6 1 5 7
M  V30 7 1 6 8
M  V30 8 1 6 9
M  V30 9 1 7 10
M  V30 10 1 7 11
M  V30 11 1 2 12
M  V30 12 1 4 13
M  V30 13 1 4 14
M  V30 14 1 5 15
M  V30 15 1 5 16
M  V30 16 1 6 17
M  V30 17 1 7 18
M  V30 18 1 8 19
M  V30 19 1 8 20
M  V30 20 1 8 21
M  V30 21 1 9 22
M  V30 22 1 9 23
M  V30 23 1 9 24
M  V30 24 1 10 25
M  V30 25 1 10 26
M  V30 26 1 10 27
M  V30 27 1 11 28
M  V30 28 1 11 29
M  V30 29 1 11 30
M  V30 END BOND
M  V30 END CTAB
M  END
>  <Structure No>
2293

>  <LogS>
-1.082666634

>  <MMFF94 Energy>
-10.989

$$$$
Compound 2294
Actelion Java MolfileCreator 2.0

  0  0  0  0  0  0              0 V3000
M  V30 BEGIN CTAB
M  V30 COUNTS 24 24 0 0 0
M  V30 BEGIN ATOM
M  V30 1 O -2.7567 0.9445 -0.6296 0
M  V30 2 C -1.5896 0.6258 -0.2634 0
M  V30 3 N -1.0963 -0.6241 -0.5579 0
M  V30 4 N -0.8326 1.5331 0.4332 0
M  V30 5 C 0.1657 -0.9828 -0.1451 0
M  V30 6 C -1.9255 -1.5924 -1.3008 0
M  V30 7 C 0.4152 1.1892 0.8738 0
M  V30 8 C -1.3943 2.8535 0.7722 0
M  V30 9 N 0.6734 -2.3098 -0.383 0
M  V30 10 C 0.9526 -0.0614 0.5677 0
M  V30 11 O 1.1013 2.0037 1.5526 0
M  V30 12 N 2.2868 -0.3823 0.9941 0
M  V30 13 C 3.3432 -0.6581 0.0675 0
M  V30 14 O 3.1302 -0.665 -1.1742 0
M  V30 15 H -2.0703 -2.5115 -0.6935 0
M  V30 16 H -2.9362 -1.205 -1.5443 0
M  V30 17 H -1.4336 -1.849 -2.263 0
M  V30 18 H -0.5974 3.6201 0.8801 0
M  V30 19 H -2.0693 3.2216 -0.0298 0
M  V30 20 H -1.9624 2.7833 1.7237 0
M  V30 21 H 1.5106 -2.6693 0.1251 0
M  V30 22 H 0.2191 -2.9764 -1.0432 0
M  V30 23 H 2.5486 -0.214 1.9913 0
M  V30 24 H 4.3418 -0.8507 0.4363 0
M  V30 END ATOM
M  V30 BEGIN BOND
M  V30 1 2 1 2
M  V30 2 1 2 3
M  V30 3 1 2 4
M  V30 4 1 3 5
M  V30 5 1 3 6
M  V30 6 1 4 7
M  V30 7 1 4 8
M  V30 8 1 5 9
M  V30 9 2 5 10
M  V30 10 2 7 11
M  V30 11 1 10 12
M  V30 12 1 12 13
M  V30 13 2 13 14
M  V30 14 1 7 10
M  V30 15 1 6 15
M  V30 16 1 6 16
M  V30 17 1 6 17
M  V30 18 1 8 18
M  V30 19 1 8 19
M  V30 20 1 8 20
M  V30 21 1 9 21
M  V30 22 1 9 22
M  V30 23 1 12 23
M  V30 24 1 13 24
M  V30 END BOND
M  V30 END CTAB
M  END
>  <Structure No>
2294

>  <LogS>
-1.183120855

>  <MMFF94 Energy>
-66.655

$$$$
Compound 2295
Actelion Java MolfileCreator 2.0

  0  0  0  0  0  0              0 V3000
M  V30 BEGIN CTAB
M  V30 COUNTS 70 74 0 0 0
M  V30 BEGIN ATOM
M  V30 1 Cl 4.3286 -2.6295 -4.2436 0
M  V30 2 C 4.148 -1.7699 -2.7298 0
M  V30 3 N 5.137 -0.9527 -2.2925 0
M  V30 4 N 3.0198 -1.9227 -1.9934 0
M  V30 5 C 4.9981 -0.285 -1.1178 0
M  V30 6 C 2.8759 -1.2601 -0.8145 0
M  V30 7 N 3.8638 -0.4324 -0.3847 0
M  V30 8 N 6.0434 0.5837 -0.6595 0
M  V30 9 N 1.6876 -1.4224 -0.0284 0
M  V30 10 C 5.808 2.0086 -0.6761 0
M  V30 11 C 7.1878 0.018 0.0743 0
M  V30 12 C 0.7572 -2.4963 -0.2445 0
M  V30 13 C 6.1988 2.8252 0.4037 0
M  V30 14 C 5.1752 2.6048 -1.7831 0
M  V30 15 C 7.7636 -1.2197 -0.611 0
M  V30 16 C -0.6434 -2.2712 -0.2719 0
M  V30 17 C 1.2484 -3.8058 -0.3732 0
M  V30 18 C 5.9717 4.2044 0.3667 0
M  V30 19 C 4.9502 3.9837 -1.8148 0
M  V30 20 C -1.2509 -0.9188 -0.1543 0
M  V30 21 C -1.5165 -3.3727 -0.4293 0
M  V30 22 C 0.3786 -4.886 -0.5354 0
M  V30 23 C 5.3497 4.783 -0.7421 0
M  V30 24 O -0.5512 0.127 -0.2097 0
M  V30 25 C -2.7053 -0.8112 0.0516 0
M  V30 26 C -2.9799 -3.1669 -0.5449 0
M  V30 27 C -0.9993 -4.6664 -0.5687 0
M  V30 28 S 1.018 -6.5133 -0.7523 0
M  V30 29 N -3.1608 0.2392 0.6762 0
M  V30 30 C -3.5509 -1.9637 -0.3782 0
M  V30 31 O 0.0718 -7.5172 -0.1544 0
M  V30 32 O 2.351 -6.64 -0.0684 0
M  V30 33 O 1.1999 -6.8195 -2.3949 0 CHG=-1
M  V30 34 N -4.4594 0.3699 1.1974 0
M  V30 35 S -5.2004 -1.7548 -0.9912 0
M  V30 36 C -5.0175 1.6698 1.4616 0
M  V30 37 O -5.3587 -2.5411 -2.2617 0
M  V30 38 O -5.4736 -0.31 -1.3001 0
M  V30 39 O -6.3078 -2.3114 0.1398 0 CHG=-1
M  V30 40 C -6.1306 1.837 2.3234 0
M  V30 41 C -4.478 2.798 0.818 0
M  V30 42 S -6.8378 0.4808 3.2128 0
M  V30 43 C -6.686 3.1163 2.4942 0
M  V30 44 C -5.0349 4.0639 1.005 0
M  V30 45 O -7.8327 0.9782 4.2239 0
M  V30 46 O -5.7554 -0.2705 3.9363 0
M  V30 47 O -7.6249 -0.5443 2.1412 0 CHG=-1
M  V30 48 C -6.139 4.2315 1.8466 0
M  V30 49 C -6.7754 5.5813 2.0126 0
M  V30 50 H 1.5309 -0.7745 0.7747 0
M  V30 51 H 6.8715 -0.2426 1.1069 0
M  V30 52 H 8.0064 0.7684 0.138 0
M  V30 53 H 6.6634 2.3973 1.283 0
M  V30 54 H 4.8705 2.0034 -2.6307 0
M  V30 55 H 8.009 -0.9925 -1.6691 0
M  V30 56 H 8.6924 -1.5337 -0.0896 0
M  V30 57 H 7.0385 -2.0608 -0.5694 0
M  V30 58 H 2.316 -3.9841 -0.3337 0
M  V30 59 H 6.2722 4.8243 1.2025 0
M  V30 60 H 4.4695 4.4339 -2.6742 0
M  V30 61 H 5.1737 5.8502 -0.7685 0
M  V30 62 H -3.591 -4.002 -0.8673 0
M  V30 63 H -1.6716 -5.5033 -0.7164 0
M  V30 64 H -4.9799 -0.4881 1.4748 0
M  V30 65 H -3.6349 2.7004 0.1465 0
M  V30 66 H -7.5479 3.252 3.1343 0
M  V30 67 H -4.6077 4.9115 0.4837 0
M  V30 68 H -7.0153 5.7618 3.0825 0
M  V30 69 H -6.0984 6.3937 1.6711 0
M  V30 70 H -7.7118 5.6221 1.4181 0
M  V30 END ATOM
M  V30 BEGIN BOND
M  V30 1 1 1 2
M  V30 2 2 2 3
M  V30 3 1 2 4
M  V30 4 1 3 5
M  V30 5 2 4 6
M  V30 6 2 5 7
M  V30 7 1 5 8
M  V30 8 1 6 9
M  V30 9 1 8 10
M  V30 10 1 8 11
M  V30 11 1 9 12
M  V30 12 2 10 13
M  V30 13 1 10 14
M  V30 14 1 11 15
M  V30 15 2 12 16
M  V30 16 1 12 17
M  V30 17 1 13 18
M  V30 18 2 14 19
M  V30 19 1 16 20
M  V30 20 1 16 21
M  V30 21 2 17 22
M  V30 22 2 18 23
M  V30 23 2 20 24
M  V30 24 1 20 25
M  V30 25 1 21 26
M  V30 26 2 21 27
M  V30 27 1 22 28
M  V30 28 2 25 29
M  V30 29 1 25 30
M  V30 30 2 28 31
M  V30 31 2 28 32
M  V30 32 1 28 33
M  V30 33 1 29 34
M  V30 34 1 30 35
M  V30 35 1 34 36
M  V30 36 2 35 37
M  V30 37 2 35 38
M  V30 38 1 35 39
M  V30 39 2 36 40
M  V30 40 1 36 41
M  V30 41 1 40 42
M  V30 42 1 40 43
M  V30 43 2 41 44
M  V30 44 2 42 45
M  V30 45 2 42 46
M  V30 46 1 42 47
M  V30 47 2 43 48
M  V30 48 1 48 49
M  V30 49 1 6 7
M  V30 50 1 19 23
M  V30 51 1 22 27
M  V30 52 2 26 30
M  V30 53 1 44 48
M  V30 54 1 9 50
M  V30 55 1 11 51
M  V30 56 1 11 52
M  V30 57 1 13 53
M  V30 58 1 14 54
M  V30 59 1 15 55
M  V30 60 1 15 56
M  V30 61 1 15 57
M  V30 62 1 17 58
M  V30 63 1 18 59
M  V30 64 1 19 60
M  V30 65 1 23 61
M  V30 66 1 26 62
M  V30 67 1 27 63
M  V30 68 1 34 64
M  V30 69 1 41 65
M  V30 70 1 43 66
M  V30 71 1 44 67
M  V30 72 1 49 68
M  V30 73 1 49 69
M  V30 74 1 49 70
M  V30 END BOND
M  V30 END CTAB
M  END
>  <Structure No>
2295

>  <LogS>
-0.800434395

>  <MMFF94 Energy>
93.003

$$$$
Compound 2296
Actelion Java MolfileCreator 2.0

  0  0  0  0  0  0              0 V3000
M  V30 BEGIN CTAB
M  V30 COUNTS 18 18 0 0 0
M  V30 BEGIN ATOM
M  V30 1 O -2.9763 -1.2523 -0.5477 0
M  V30 2 C -1.6055 -1.0633 -0.8083 0 CFG=1
M  V30 3 C -2.5854 0.0361 -0.9629 0
M  V30 4 C -0.7857 -1.0943 0.4839 0
M  V30 5 O 0.5463 -0.6964 0.227 0
M  V30 6 C 0.6754 0.7044 0.358 0
M  V30 7 C 2.0754 1.1076 0.0043 0
M  V30 8 C 3.1217 0.6966 0.7257 0
M  V30 9 H -1.2783 -1.6196 -1.7115 0
M  V30 10 H -2.9241 0.2448 -1.9988 0
M  V30 11 H -2.6774 0.7714 -0.1357 0
M  V30 12 H -0.7603 -2.1472 0.8344 0
M  V30 13 H -1.2645 -0.5119 1.3076 0
M  V30 14 H 0.468 1.0261 1.4041 0
M  V30 15 H -0.02 1.2329 -0.3318 0
M  V30 16 H 2.2411 1.7585 -0.8492 0
M  V30 17 H 2.9858 0.0515 1.5888 0
M  V30 18 H 4.125 1.0072 0.4531 0
M  V30 END ATOM
M  V30 BEGIN BOND
M  V30 1 1 1 2
M  V30 2 1 1 3
M  V30 3 1 2 4
M  V30 4 1 4 5
M  V30 5 1 5 6
M  V30 6 1 6 7
M  V30 7 2 7 8
M  V30 8 1 2 3
M  V30 9 1 2 9
M  V30 10 1 3 10
M  V30 11 1 3 11
M  V30 12 1 4 12
M  V30 13 1 4 13
M  V30 14 1 6 14
M  V30 15 1 6 15
M  V30 16 1 7 16
M  V30 17 1 8 17
M  V30 18 1 8 18
M  V30 END BOND
M  V30 BEGIN COLLECTION
M  V30 MDLV30/STEABS ATOMS=(1 2)
M  V30 END COLLECTION
M  V30 END CTAB
M  END
>  <Structure No>
2296

>  <LogS>
0.049756882

>  <MMFF94 Energy>
15.785

$$$$
Compound 2297
Actelion Java MolfileCreator 2.0

  0  0  0  0  0  0              0 V3000
M  V30 BEGIN CTAB
M  V30 COUNTS 26 26 0 0 0
M  V30 BEGIN ATOM
M  V30 1 O -1.185 1.6593 -0.6318 0
M  V30 2 C -0.9632 1.0302 0.4387 0
M  V30 3 O -1.9941 0.3497 1.0965 0
M  V30 4 C 0.4262 0.9831 1.0002 0
M  V30 5 C -3.3183 0.2427 0.5784 0
M  V30 6 C 1.2888 -0.1237 0.3568 0
M  V30 7 C -3.3694 -0.7751 -0.555 0
M  V30 8 O 1.314 0.0525 -1.045 0
M  V30 9 O 2.5898 -0.0431 0.9015 0
M  V30 10 C 0.7225 -1.516 0.6688 0
M  V30 11 C 2.6044 0.4696 -1.3537 0
M  V30 12 C 3.4544 0.0965 -0.1803 0
M  V30 13 H 0.9131 1.9688 0.8333 0
M  V30 14 H 0.3713 0.8272 2.0998 0
M  V30 15 H -3.9907 -0.0973 1.3939 0
M  V30 16 H -3.678 1.2335 0.225 0
M  V30 17 H -2.7324 -0.4446 -1.4016 0
M  V30 18 H -3.0107 -1.7621 -0.1936 0
M  V30 19 H -4.4145 -0.8814 -0.9146 0
M  V30 20 H 0.635 -1.6641 1.7666 0
M  V30 21 H 1.3994 -2.2969 0.2613 0
M  V30 22 H -0.2767 -1.6502 0.2034 0
M  V30 23 H 2.9569 -0.034 -2.2788 0
M  V30 24 H 2.6076 1.5713 -1.5055 0
M  V30 25 H 3.9701 -0.8713 -0.3636 0
M  V30 26 H 4.2081 0.8842 0.033 0
M  V30 END ATOM
M  V30 BEGIN BOND
M  V30 1 2 1 2
M  V30 2 1 2 3
M  V30 3 1 2 4
M  V30 4 1 3 5
M  V30 5 1 4 6
M  V30 6 1 5 7
M  V30 7 1 6 8
M  V30 8 1 6 9
M  V30 9 1 6 10
M  V30 10 1 8 11
M  V30 11 1 9 12
M  V30 12 1 11 12
M  V30 13 1 4 13
M  V30 14 1 4 14
M  V30 15 1 5 15
M  V30 16 1 5 16
M  V30 17 1 7 17
M  V30 18 1 7 18
M  V30 19 1 7 19
M  V30 20 1 10 20
M  V30 21 1 10 21
M  V30 22 1 10 22
M  V30 23 1 11 23
M  V30 24 1 11 24
M  V30 25 1 12 25
M  V30 26 1 12 26
M  V30 END BOND
M  V30 END CTAB
M  END
>  <Structure No>
2297

>  <LogS>
-0.144823593

>  <MMFF94 Energy>
-4.3646

$$$$
Compound 2298
Actelion Java MolfileCreator 2.0

  0  0  0  0  0  0              0 V3000
M  V30 BEGIN CTAB
M  V30 COUNTS 85 90 0 0 0
M  V30 BEGIN ATOM
M  V30 1 S 8.7142 -2.8133 1.9602 0
M  V30 2 O 9.9901 -3.3071 2.5845 0
M  V30 3 O 8.2752 -3.8034 0.9141 0
M  V30 4 O 7.5321 -2.6773 3.148 0 CHG=-1
M  V30 5 C 8.9882 -1.2376 1.2109 0
M  V30 6 C 8.1187 -0.7753 0.1064 0
M  V30 7 C 9.9793 -0.4521 1.6648 0
M  V30 8 N 7.0018 -1.398 -0.1411 0
M  V30 9 C 8.5236 0.4465 -0.6301 0
M  V30 10 C 10.2263 0.9005 1.1134 0
M  V30 11 N 6.0992 -0.9723 -1.1286 0
M  V30 12 O 8.1421 0.6217 -1.8139 0
M  V30 13 C 9.4822 1.3799 0.0105 0
M  V30 14 C 11.2021 1.7114 1.7057 0
M  V30 15 C 4.8771 -1.4025 -1.2222 0
M  V30 16 C 9.6939 2.7095 -0.4426 0
M  V30 17 C 11.451 2.999 1.2079 0
M  V30 18 C 4.2828 -2.3859 -0.2686 0
M  V30 19 C 4.0007 -0.7719 -2.2253 0
M  V30 20 O 8.9136 3.3127 -1.4283 0
M  V30 21 C 10.7017 3.4872 0.136 0
M  V30 22 S 12.6902 4.0141 1.9321 0
M  V30 23 O 5.1315 -3.2358 0.4591 0
M  V30 24 C 2.9387 -2.4313 -0.1418 0
M  V30 25 C 2.6766 -0.8277 -2.0911 0
M  V30 26 O 13.0964 3.4639 3.2716 0
M  V30 27 O 12.1479 5.4034 2.1155 0
M  V30 28 O 14.0314 4.0628 0.9233 0 CHG=-1
M  V30 29 C 4.6911 -4.1902 1.4267 0
M  V30 30 C 2.0772 -1.5206 -0.9258 0
M  V30 31 N 0.8466 -1.3399 -0.537 0
M  V30 32 N -0.0328 -0.3439 -1.0142 0
M  V30 33 O 0.4563 0.8547 -1.4149 0
M  V30 34 C -1.4325 -0.4378 -0.7 0
M  V30 35 C -2.044 -1.689 -0.5026 0
M  V30 36 C -2.2081 0.724 -0.5882 0
M  V30 37 C -3.4148 -1.7804 -0.1863 0
M  V30 38 C -3.5601 0.6458 -0.262 0
M  V30 39 O -4.0513 -3.0207 -0.0157 0
M  V30 40 C -4.1753 -0.6007 -0.0519 0
M  V30 41 C -3.4337 -4.2839 -0.2355 0
M  V30 42 N -5.5712 -0.6721 0.2876 0
M  V30 43 N -6.3349 0.4953 0.3806 0
M  V30 44 C -7.617 0.6353 0.1681 0
M  V30 45 C -8.1887 1.9506 0.5225 0
M  V30 46 C -8.5393 -0.4173 -0.3948 0
M  V30 47 O -7.4665 2.7787 1.1292 0
M  V30 48 C -9.6233 2.2399 0.2623 0
M  V30 49 S -7.9994 -1.9499 -1.1269 0
M  V30 50 C -9.8614 -0.1682 -0.4418 0
M  V30 51 C -10.2048 3.5314 0.3987 0
M  V30 52 C -10.4456 1.159 -0.1165 0
M  V30 53 O -6.7421 -1.7448 -1.9306 0
M  V30 54 O -9.053 -2.4783 -2.0659 0
M  V30 55 O -7.7497 -3.1009 0.0727 0 CHG=-1
M  V30 56 O -9.457 4.687 0.6284 0
M  V30 57 C -11.5862 3.6951 0.2559 0
M  V30 58 C -11.828 1.3504 -0.276 0
M  V30 59 C -12.3989 2.6137 -0.0928 0
M  V30 60 S -14.1229 2.8654 -0.3397 0
M  V30 61 O -14.7041 1.7476 -1.1587 0
M  V30 62 O -14.3396 4.1566 -1.0751 0
M  V30 63 O -14.897 2.9259 1.1487 0 CHG=-1
M  V30 64 H 10.5967 -0.7965 2.4883 0
M  V30 65 H 11.7752 1.346 2.5516 0
M  V30 66 H 4.4278 -0.2261 -3.0556 0
M  V30 67 H 8.0163 2.9487 -1.7306 0
M  V30 68 H 10.8817 4.492 -0.2323 0
M  V30 69 H 2.4663 -3.1062 0.5618 0
M  V30 70 H 2.0683 -0.3831 -2.8616 0
M  V30 71 H 4.0204 -4.9457 0.9481 0
M  V30 72 H 5.5788 -4.7067 1.8419 0
M  V30 73 H 4.1496 -3.679 2.2587 0
M  V30 74 H 0.3123 0.8764 -2.3936 0
M  V30 75 H -1.4515 -2.5837 -0.6089 0
M  V30 76 H -1.7688 1.702 -0.7346 0
M  V30 77 H -4.1193 1.5691 -0.1775 0
M  V30 78 H -4.1886 -5.0794 -0.0947 0
M  V30 79 H -2.6081 -4.4394 0.4903 0
M  V30 80 H -3.0483 -4.3457 -1.2779 0
M  V30 81 H -5.954 -1.5624 0.67 0
M  V30 82 H -10.5415 -0.9331 -0.8041 0
M  V30 83 H -8.4591 4.7573 0.4856 0
M  V30 84 H -12.0174 4.6857 0.3816 0
M  V30 85 H -12.459 0.5144 -0.5503 0
M  V30 END ATOM
M  V30 BEGIN BOND
M  V30 1 2 1 2
M  V30 2 2 1 3
M  V30 3 1 1 4
M  V30 4 1 1 5
M  V30 5 1 5 6
M  V30 6 2 5 7
M  V30 7 2 6 8
M  V30 8 1 6 9
M  V30 9 1 7 10
M  V30 10 1 8 11
M  V30 11 2 9 12
M  V30 12 1 9 13
M  V30 13 1 10 14
M  V30 14 2 11 15
M  V30 15 1 13 16
M  V30 16 2 14 17
M  V30 17 1 15 18
M  V30 18 1 15 19
M  V30 19 1 16 20
M  V30 20 2 16 21
M  V30 21 1 17 22
M  V30 22 1 18 23
M  V30 23 2 18 24
M  V30 24 2 19 25
M  V30 25 2 22 26
M  V30 26 2 22 27
M  V30 27 1 22 28
M  V30 28 1 23 29
M  V30 29 1 24 30
M  V30 30 2 30 31
M  V30 31 1 31 32
M  V30 32 1 32 33
M  V30 33 1 32 34
M  V30 34 2 34 35
M  V30 35 1 34 36
M  V30 36 1 35 37
M  V30 37 2 36 38
M  V30 38 1 37 39
M  V30 39 2 37 40
M  V30 40 1 39 41
M  V30 41 1 40 42
M  V30 42 1 42 43
M  V30 43 2 43 44
M  V30 44 1 44 45
M  V30 45 1 44 46
M  V30 46 2 45 47
M  V30 47 1 45 48
M  V30 48 1 46 49
M  V30 49 2 46 50
M  V30 50 2 48 51
M  V30 51 1 48 52
M  V30 52 2 49 53
M  V30 53 2 49 54
M  V30 54 1 49 55
M  V30 55 1 51 56
M  V30 56 1 51 57
M  V30 57 2 52 58
M  V30 58 2 57 59
M  V30 59 1 59 60
M  V30 60 2 60 61
M  V30 61 2 60 62
M  V30 62 1 60 63
M  V30 63 2 10 13
M  V30 64 1 17 21
M  V30 65 1 25 30
M  V30 66 1 38 40
M  V30 67 1 50 52
M  V30 68 1 58 59
M  V30 69 1 7 64
M  V30 70 1 14 65
M  V30 71 1 19 66
M  V30 72 1 20 67
M  V30 73 1 21 68
M  V30 74 1 24 69
M  V30 75 1 25 70
M  V30 76 1 29 71
M  V30 77 1 29 72
M  V30 78 1 29 73
M  V30 79 1 33 74
M  V30 80 1 35 75
M  V30 81 1 36 76
M  V30 82 1 38 77
M  V30 83 1 41 78
M  V30 84 1 41 79
M  V30 85 1 41 80
M  V30 86 1 42 81
M  V30 87 1 50 82
M  V30 88 1 56 83
M  V30 89 1 57 84
M  V30 90 1 58 85
M  V30 END BOND
M  V30 END CTAB
M  END
>  <Structure No>
2298

>  <LogS>
-0.909479678

>  <MMFF94 Energy>
364.13

$$$$
Compound 2299
Actelion Java MolfileCreator 2.0

  0  0  0  0  0  0              0 V3000
M  V30 BEGIN CTAB
M  V30 COUNTS 77 81 0 0 0
M  V30 BEGIN ATOM
M  V30 1 Cl -10.8295 2.2639 4.2696 0
M  V30 2 C -11.4515 1.3383 2.9062 0
M  V30 3 C -12.8281 1.124 2.7863 0
M  V30 4 C -10.6011 0.7817 1.9337 0
M  V30 5 F -13.6879 1.6401 3.702 0
M  V30 6 N -13.3158 0.4011 1.746 0
M  V30 7 N -11.1445 0.0719 0.9063 0
M  V30 8 N -9.1798 1.0 1.9819 0
M  V30 9 C -12.4837 -0.1249 0.8107 0
M  V30 10 C -8.2254 0.1809 1.2847 0
M  V30 11 F -12.9907 -0.8386 -0.222 0
M  V30 12 C -7.043 0.7569 0.8028 0
M  V30 13 C -8.4279 -1.1947 1.1255 0
M  V30 14 C -6.0758 -0.0114 0.1302 0
M  V30 15 C -7.4916 -1.9701 0.4457 0
M  V30 16 N -4.8918 0.661 -0.3399 0
M  V30 17 C -6.3212 -1.3981 -0.0783 0
M  V30 18 N -3.6452 0.0206 -0.3774 0
M  V30 19 S -5.2372 -2.4519 -1.0041 0
M  V30 20 C -2.5885 0.4401 -1.0196 0
M  V30 21 O -4.7991 -1.767 -2.2678 0
M  V30 22 O -5.9491 -3.7211 -1.3826 0
M  V30 23 O -3.8958 -2.8464 -0.0722 0 CHG=-1
M  V30 24 C -1.3055 -0.2255 -0.7133 0
M  V30 25 C -2.5716 1.6061 -1.9629 0
M  V30 26 O -1.3033 -1.2105 0.0731 0
M  V30 27 C -0.0299 0.3575 -1.2149 0
M  V30 28 S -3.9838 2.1257 -2.9098 0
M  V30 29 C -1.3991 2.1884 -2.2588 0
M  V30 30 C 1.2377 -0.2637 -1.0315 0
M  V30 31 C -0.0966 1.6132 -1.8525 0
M  V30 32 O -4.9594 0.9953 -3.0772 0
M  V30 33 O -3.54 2.5587 -4.2791 0
M  V30 34 O -4.7405 3.4225 -2.1551 0 CHG=-1
M  V30 35 N 1.3303 -1.6572 -0.69 0
M  V30 36 C 2.4173 0.4651 -1.3291 0
M  V30 37 C 1.0765 2.2854 -2.207 0
M  V30 38 N 3.7165 -0.0812 -1.0746 0
M  V30 39 C 2.3284 1.7318 -1.9311 0
M  V30 40 N 4.0393 -0.5267 0.0727 0
M  V30 41 S 3.7932 2.6316 -2.34 0
M  V30 42 C 5.3307 -1.0898 0.3298 0
M  V30 43 O 4.5546 2.9403 -1.0814 0
M  V30 44 O 3.4429 3.9215 -3.0276 0
M  V30 45 O 4.7513 1.7114 -3.3696 0 CHG=-1
M  V30 46 C 5.678 -1.4245 1.646 0
M  V30 47 C 6.2523 -1.3216 -0.7083 0
M  V30 48 C 6.9292 -1.9827 1.9259 0
M  V30 49 C 7.4991 -1.8863 -0.4288 0
M  V30 50 C 7.8426 -2.2216 0.8877 0
M  V30 51 S 9.4145 -2.9436 1.2184 0
M  V30 52 O 9.5283 -3.2964 2.6756 0
M  V30 53 O 9.5585 -4.1985 0.4047 0
M  V30 54 C 10.7228 -1.8065 0.7883 0
M  V30 55 C 10.6263 -0.5202 1.6018 0
M  V30 56 O 11.7209 0.3025 1.2819 0
M  V30 57 S 11.5712 1.7479 2.1515 0
M  V30 58 O 12.8193 2.5587 1.96 0
M  V30 59 O 10.3926 2.5334 1.6445 0
M  V30 60 O 11.3786 1.4327 3.7909 0 CHG=-1
M  V30 61 H -8.8221 1.8559 2.4626 0
M  V30 62 H -6.8771 1.8176 0.9516 0
M  V30 63 H -9.3057 -1.6759 1.5358 0
M  V30 64 H -7.6909 -3.0267 0.3256 0
M  V30 65 H -4.9043 1.7043 -0.3513 0
M  V30 66 H -1.3875 3.0493 -2.9175 0
M  V30 67 H 0.5361 -2.309 -0.866 0
M  V30 68 H 2.2446 -2.1275 -0.5288 0
M  V30 69 H 1.0089 3.2462 -2.7014 0
M  V30 70 H 4.978 -1.2488 2.4537 0
M  V30 71 H 6.0041 -1.077 -1.7331 0
M  V30 72 H 7.1797 -2.2343 2.9502 0
M  V30 73 H 8.1958 -2.067 -1.2378 0
M  V30 74 H 10.6572 -1.5689 -0.2952 0
M  V30 75 H 11.7009 -2.2966 0.9822 0
M  V30 76 H 9.6667 -0.012 1.3541 0
M  V30 77 H 10.6449 -0.7822 2.6831 0
M  V30 END ATOM
M  V30 BEGIN BOND
M  V30 1 1 1 2
M  V30 2 2 2 3
M  V30 3 1 2 4
M  V30 4 1 3 5
M  V30 5 1 3 6
M  V30 6 2 4 7
M  V30 7 1 4 8
M  V30 8 2 6 9
M  V30 9 1 8 10
M  V30 10 1 9 11
M  V30 11 2 10 12
M  V30 12 1 10 13
M  V30 13 1 12 14
M  V30 14 2 13 15
M  V30 15 1 14 16
M  V30 16 2 14 17
M  V30 17 1 16 18
M  V30 18 1 17 19
M  V30 19 2 18 20
M  V30 20 2 19 21
M  V30 21 2 19 22
M  V30 22 1 19 23
M  V30 23 1 20 24
M  V30 24 1 20 25
M  V30 25 2 24 26
M  V30 26 1 24 27
M  V30 27 1 25 28
M  V30 28 2 25 29
M  V30 29 2 27 30
M  V30 30 1 27 31
M  V30 31 2 28 32
M  V30 32 2 28 33
M  V30 33 1 28 34
M  V30 34 1 30 35
M  V30 35 1 30 36
M  V30 36 2 31 37
M  V30 37 1 36 38
M  V30 38 2 36 39
M  V30 39 2 38 40
M  V30 40 1 39 41
M  V30 41 1 40 42
M  V30 42 2 41 43
M  V30 43 2 41 44
M  V30 44 1 41 45
M  V30 45 2 42 46
M  V30 46 1 42 47
M  V30 47 1 46 48
M  V30 48 2 47 49
M  V30 49 2 48 50
M  V30 50 1 50 51
M  V30 51 2 51 52
M  V30 52 2 51 53
M  V30 53 1 51 54
M  V30 54 1 54 55
M  V30 55 1 55 56
M  V30 56 1 56 57
M  V30 57 2 57 58
M  V30 58 2 57 59
M  V30 59 1 57 60
M  V30 60 1 7 9
M  V30 61 1 15 17
M  V30 62 1 29 31
M  V30 63 1 37 39
M  V30 64 1 49 50
M  V30 65 1 8 61
M  V30 66 1 12 62
M  V30 67 1 13 63
M  V30 68 1 15 64
M  V30 69 1 16 65
M  V30 70 1 29 66
M  V30 71 1 35 67
M  V30 72 1 35 68
M  V30 73 1 37 69
M  V30 74 1 46 70
M  V30 75 1 47 71
M  V30 76 1 48 72
M  V30 77 1 49 73
M  V30 78 1 54 74
M  V30 79 1 54 75
M  V30 80 1 55 76
M  V30 81 1 55 77
M  V30 END BOND
M  V30 END CTAB
M  END
>  <Structure No>
2299

>  <LogS>
-0.913801018

>  <MMFF94 Energy>
276.83

$$$$
Compound 2300
Actelion Java MolfileCreator 2.0

  0  0  0  0  0  0              0 V3000
M  V30 BEGIN CTAB
M  V30 COUNTS 74 78 0 0 0
M  V30 BEGIN ATOM
M  V30 1 Cl 4.3452 -2.4317 -4.8675 0
M  V30 2 C 4.5773 -1.4609 -3.4327 0
M  V30 3 N 3.9932 -1.8276 -2.264 0
M  V30 4 N 5.3353 -0.3379 -3.4887 0
M  V30 5 C 4.1652 -1.0705 -1.1483 0
M  V30 6 C 5.5145 0.4235 -2.3794 0
M  V30 7 N 4.912 0.0607 -1.2143 0
M  V30 8 N 3.5518 -1.4433 0.0913 0
M  V30 9 N 6.3002 1.6222 -2.4645 0
M  V30 10 C 2.9233 -2.7184 0.2975 0
M  V30 11 C 6.6322 2.4623 -1.3445 0
M  V30 12 C 1.6409 -2.8247 0.8995 0
M  V30 13 C 3.6316 -3.8839 -0.0346 0
M  V30 14 C 6.7079 3.8517 -1.5315 0
M  V30 15 C 6.9206 1.9252 -0.0764 0
M  V30 16 C 0.8012 -1.6443 1.2238 0
M  V30 17 C 1.1111 -4.1033 1.167 0
M  V30 18 C 3.0893 -5.1457 0.2113 0
M  V30 19 C 7.0233 4.6994 -0.4589 0
M  V30 20 C 7.2335 2.7692 0.9949 0
M  V30 21 O 1.1631 -0.4828 0.8898 0
M  V30 22 C -0.5116 -1.8222 1.8814 0
M  V30 23 C -0.186 -4.2599 1.8593 0
M  V30 24 C 1.8385 -5.2516 0.8214 0
M  V30 25 S 4.0043 -6.595 -0.188 0
M  V30 26 S 7.0587 6.4401 -0.7114 0
M  V30 27 C 7.2782 4.1526 0.8084 0
M  V30 28 N -1.2379 -0.7463 2.0212 0
M  V30 29 C -0.9436 -3.2176 2.249 0
M  V30 30 O 4.9484 -6.3073 -1.3217 0
M  V30 31 O 3.0667 -7.6929 -0.6043 0
M  V30 32 O 4.8783 -7.0896 1.1569 0 CHG=-1
M  V30 33 O 8.2039 6.7944 -1.6147 0
M  V30 34 O 7.2226 7.1573 0.5986 0
M  V30 35 O 5.6155 6.9221 -1.4187 0 CHG=-1
M  V30 36 N -2.5392 -0.6788 2.5336 0
M  V30 37 S -2.3623 -3.5829 3.2584 0
M  V30 38 C -3.6428 -0.317 1.6887 0
M  V30 39 O -2.2925 -2.7951 4.5343 0
M  V30 40 O -2.3866 -5.0426 3.6192 0
M  V30 41 O -3.7786 -3.2318 2.4289 0 CHG=-1
M  V30 42 C -4.8875 -0.0226 2.2637 0
M  V30 43 C -3.5082 -0.2877 0.2891 0
M  V30 44 C -5.9811 0.3012 1.4567 0
M  V30 45 C -4.602 0.0398 -0.5175 0
M  V30 46 C -5.8456 0.3329 0.0622 0
M  V30 47 S -7.2309 0.7637 -0.9374 0
M  V30 48 O -6.9023 0.5603 -2.39 0
M  V30 49 O -8.3979 -0.1133 -0.5729 0
M  V30 50 C -7.6374 2.4813 -0.659 0
M  V30 51 C -8.9407 2.8576 -1.3566 0
M  V30 52 O -9.1908 4.2262 -1.1491 0
M  V30 53 S -10.7186 4.5906 -1.7834 0
M  V30 54 O -10.954 6.0679 -1.6572 0
M  V30 55 O -10.7913 4.2071 -3.2349 0
M  V30 56 O -11.9087 3.7698 -0.924 0 CHG=-1
M  V30 57 H 3.615 -0.7769 0.8917 0
M  V30 58 H 6.5471 1.9636 -3.4224 0
M  V30 59 H 4.6261 -3.8046 -0.4536 0
M  V30 60 H 6.5029 4.2761 -2.5104 0
M  V30 61 H 6.9341 0.8573 0.0823 0
M  V30 62 H 7.4444 2.3505 1.9719 0
M  V30 63 H -0.4957 -5.2697 2.096 0
M  V30 64 H 1.4355 -6.234 1.036 0
M  V30 65 H 7.5205 4.7915 1.6486 0
M  V30 66 H -2.648 -0.5682 3.5666 0
M  V30 67 H -5.0119 -0.0524 3.3394 0
M  V30 68 H -2.5605 -0.5185 -0.1801 0
M  V30 69 H -6.9311 0.5257 1.9233 0
M  V30 70 H -4.4751 0.0628 -1.5916 0
M  V30 71 H -6.8116 3.1142 -1.0458 0
M  V30 72 H -7.7373 2.6574 0.4318 0
M  V30 73 H -9.7599 2.2382 -0.9284 0
M  V30 74 H -8.8387 2.6466 -2.4443 0
M  V30 END ATOM
M  V30 BEGIN BOND
M  V30 1 1 1 2
M  V30 2 2 2 3
M  V30 3 1 2 4
M  V30 4 1 3 5
M  V30 5 2 4 6
M  V30 6 2 5 7
M  V30 7 1 5 8
M  V30 8 1 6 9
M  V30 9 1 8 10
M  V30 10 1 9 11
M  V30 11 2 10 12
M  V30 12 1 10 13
M  V30 13 2 11 14
M  V30 14 1 11 15
M  V30 15 1 12 16
M  V30 16 1 12 17
M  V30 17 2 13 18
M  V30 18 1 14 19
M  V30 19 2 15 20
M  V30 20 2 16 21
M  V30 21 1 16 22
M  V30 22 1 17 23
M  V30 23 2 17 24
M  V30 24 1 18 25
M  V30 25 1 19 26
M  V30 26 2 19 27
M  V30 27 2 22 28
M  V30 28 1 22 29
M  V30 29 2 25 30
M  V30 30 2 25 31
M  V30 31 1 25 32
M  V30 32 2 26 33
M  V30 33 2 26 34
M  V30 34 1 26 35
M  V30 35 1 28 36
M  V30 36 1 29 37
M  V30 37 1 36 38
M  V30 38 2 37 39
M  V30 39 2 37 40
M  V30 40 1 37 41
M  V30 41 2 38 42
M  V30 42 1 38 43
M  V30 43 1 42 44
M  V30 44 2 43 45
M  V30 45 2 44 46
M  V30 46 1 46 47
M  V30 47 2 47 48
M  V30 48 2 47 49
M  V30 49 1 47 50
M  V30 50 1 50 51
M  V30 51 1 51 52
M  V30 52 1 52 53
M  V30 53 2 53 54
M  V30 54 2 53 55
M  V30 55 1 53 56
M  V30 56 1 6 7
M  V30 57 1 18 24
M  V30 58 1 20 27
M  V30 59 2 23 29
M  V30 60 1 45 46
M  V30 61 1 8 57
M  V30 62 1 9 58
M  V30 63 1 13 59
M  V30 64 1 14 60
M  V30 65 1 15 61
M  V30 66 1 20 62
M  V30 67 1 23 63
M  V30 68 1 24 64
M  V30 69 1 27 65
M  V30 70 1 36 66
M  V30 71 1 42 67
M  V30 72 1 43 68
M  V30 73 1 44 69
M  V30 74 1 45 70
M  V30 75 1 50 71
M  V30 76 1 50 72
M  V30 77 1 51 73
M  V30 78 1 51 74
M  V30 END BOND
M  V30 END CTAB
M  END
>  <Structure No>
2300

>  <LogS>
-0.903187957

>  <MMFF94 Energy>
29.389

$$$$
Compound 2301
Actelion Java MolfileCreator 2.0

  0  0  0  0  0  0              0 V3000
M  V30 BEGIN CTAB
M  V30 COUNTS 20 19 0 0 0
M  V30 BEGIN ATOM
M  V30 1 O 2.115 -0.3914 -1.6447 0
M  V30 2 C 1.8008 -0.3902 -0.4229 0
M  V30 3 O 2.7486 -0.0823 0.5573 0
M  V30 4 C 0.3891 -0.674 -0.0183 0
M  V30 5 C 4.1021 0.2229 0.2446 0
M  V30 6 C -0.4123 0.6254 0.0697 0
M  V30 7 C -1.824 0.3416 0.4744 0
M  V30 8 O -2.1382 0.3428 1.6962 0
M  V30 9 O -2.7719 0.0339 -0.5058 0
M  V30 10 C -4.1254 -0.2713 -0.1929 0
M  V30 11 H 0.3916 -1.1832 0.9701 0
M  V30 12 H -0.0787 -1.3582 -0.7602 0
M  V30 13 H 4.1483 1.122 -0.4058 0
M  V30 14 H 4.5768 -0.6385 -0.2709 0
M  V30 15 H 4.6555 0.4298 1.1835 0
M  V30 16 H -0.4148 1.1347 -0.9186 0
M  V30 17 H 0.0554 1.3098 0.8118 0
M  V30 18 H -4.6003 0.5902 0.3226 0
M  V30 19 H -4.6789 -0.478 -1.1318 0
M  V30 20 H -4.1718 -1.1703 0.4575 0
M  V30 END ATOM
M  V30 BEGIN BOND
M  V30 1 2 1 2
M  V30 2 1 2 3
M  V30 3 1 2 4
M  V30 4 1 3 5
M  V30 5 1 4 6
M  V30 6 1 6 7
M  V30 7 2 7 8
M  V30 8 1 7 9
M  V30 9 1 9 10
M  V30 10 1 4 11
M  V30 11 1 4 12
M  V30 12 1 5 13
M  V30 13 1 5 14
M  V30 14 1 5 15
M  V30 15 1 6 16
M  V30 16 1 6 17
M  V30 17 1 10 18
M  V30 18 1 10 19
M  V30 19 1 10 20
M  V30 END BOND
M  V30 END CTAB
M  END
>  <Structure No>
2301

>  <LogS>
-0.075223164

>  <MMFF94 Energy>
-32.01

$$$$
Compound 2302
Actelion Java MolfileCreator 2.0

  0  0  0  0  0  0              0 V3000
M  V30 BEGIN CTAB
M  V30 COUNTS 38 40 0 0 0
M  V30 BEGIN ATOM
M  V30 1 O -2.5117 -2.1063 0.6477 0
M  V30 2 C -2.0111 -1.0959 0.0802 0
M  V30 3 O -2.3473 0.1938 0.4988 0
M  V30 4 C -0.9777 -1.2659 -1.0007 0 CFG=1
M  V30 5 C -3.2496 0.4481 1.5734 0
M  V30 6 C 0.4266 -1.4968 -0.3553 0 CFG=2
M  V30 7 C -1.396 -2.3637 -2.0267 0
M  V30 8 C -3.3714 1.9475 1.8648 0 CFG=2
M  V30 9 C 1.0831 -0.187 -0.0135 0
M  V30 10 C 1.3371 -2.3387 -1.2654 0
M  V30 11 C -0.6485 -3.6605 -1.848 0
M  V30 12 O -2.964 2.7553 0.7855 0
M  V30 13 C -2.1107 2.7229 1.9094 0
M  V30 14 O 1.229 0.1412 1.1957 0
M  V30 15 O 1.4926 0.6727 -1.0399 0
M  V30 16 C 0.6554 -3.6483 -1.5449 0
M  V30 17 C 2.1276 1.9262 -0.8036 0
M  V30 18 C 3.5743 1.7092 -0.3586 0 CFG=2
M  V30 19 O 3.7229 1.7938 1.0388 0
M  V30 20 C 4.2359 2.8671 0.2817 0
M  V30 21 H -0.9549 -0.3106 -1.5736 0
M  V30 22 H -4.2544 0.0541 1.3105 0
M  V30 23 H -2.8936 -0.0644 2.4929 0
M  V30 24 H 0.303 -2.0767 0.5901 0
M  V30 25 H -1.1653 -1.9951 -3.0503 0
M  V30 26 H -2.491 -2.5558 -2.0022 0
M  V30 27 H -4.245 2.3612 2.411 0
M  V30 28 H 2.3141 -2.5274 -0.7698 0
M  V30 29 H 1.5202 -1.8091 -2.2262 0
M  V30 30 H -1.1683 -4.6058 -1.9701 0
M  V30 31 H -1.1623 2.1919 1.6806 0
M  V30 32 H -2.1456 3.6824 2.4659 0
M  V30 33 H 1.1897 -4.5827 -1.4024 0
M  V30 34 H 2.1397 2.4963 -1.7557 0
M  V30 35 H 1.5433 2.5147 -0.0605 0
M  V30 36 H 4.2205 0.932 -0.818 0
M  V30 37 H 3.6351 3.7891 0.4329 0
M  V30 38 H 5.3456 2.8605 0.2776 0
M  V30 END ATOM
M  V30 BEGIN BOND
M  V30 1 2 1 2
M  V30 2 1 2 3
M  V30 3 1 2 4
M  V30 4 1 3 5
M  V30 5 1 4 6
M  V30 6 1 4 7
M  V30 7 1 5 8
M  V30 8 1 6 9
M  V30 9 1 6 10
M  V30 10 1 7 11
M  V30 11 1 8 12
M  V30 12 1 8 13
M  V30 13 2 9 14
M  V30 14 1 9 15
M  V30 15 1 10 16
M  V30 16 1 15 17
M  V30 17 1 17 18
M  V30 18 1 18 19
M  V30 19 1 18 20
M  V30 20 2 11 16
M  V30 21 1 12 13
M  V30 22 1 19 20
M  V30 23 1 4 21
M  V30 24 1 5 22
M  V30 25 1 5 23
M  V30 26 1 6 24
M  V30 27 1 7 25
M  V30 28 1 7 26
M  V30 29 1 8 27
M  V30 30 1 10 28
M  V30 31 1 10 29
M  V30 32 1 11 30
M  V30 33 1 13 31
M  V30 34 1 13 32
M  V30 35 1 16 33
M  V30 36 1 17 34
M  V30 37 1 17 35
M  V30 38 1 18 36
M  V30 39 1 20 37
M  V30 40 1 20 38
M  V30 END BOND
M  V30 BEGIN COLLECTION
M  V30 MDLV30/STEABS ATOMS=(4 4 6 8 18)
M  V30 END COLLECTION
M  V30 END CTAB
M  END
>  <Structure No>
2302

>  <LogS>
-1.34010886

>  <MMFF94 Energy>
-15.727

$$$$
Compound 2303
Actelion Java MolfileCreator 2.0

  0  0  0  0  0  0              0 V3000
M  V30 BEGIN CTAB
M  V30 COUNTS 15 14 0 0 0
M  V30 BEGIN ATOM
M  V30 1 O 1.6936 1.0004 1.0004 0
M  V30 2 C 1.3846 0.1404 0.133 0
M  V30 3 C -0.0086 -0.3282 -0.0166 0
M  V30 4 C 2.4693 -0.5121 -0.6614 0
M  V30 5 C -1.1084 0.3752 0.3115 0
M  V30 6 O -1.0659 1.7141 0.711 0
M  V30 7 C -2.4514 -0.2796 0.2095 0
M  V30 8 H -0.1397 -1.3288 -0.4141 0
M  V30 9 H 2.1177 -0.7137 -1.6954 0
M  V30 10 H 2.7565 -1.4698 -0.1795 0
M  V30 11 H 3.36 0.1494 -0.7141 0
M  V30 12 H -0.2448 2.2985 0.6366 0
M  V30 13 H -2.678 -0.5112 -0.8526 0
M  V30 14 H -2.4653 -1.2187 0.8029 0
M  V30 15 H -3.2391 0.3973 0.6025 0
M  V30 END ATOM
M  V30 BEGIN BOND
M  V30 1 2 1 2
M  V30 2 1 2 3
M  V30 3 1 2 4
M  V30 4 2 3 5
M  V30 5 1 5 6
M  V30 6 1 5 7
M  V30 7 1 3 8
M  V30 8 1 4 9
M  V30 9 1 4 10
M  V30 10 1 4 11
M  V30 11 1 6 12
M  V30 12 1 7 13
M  V30 13 1 7 14
M  V30 14 1 7 15
M  V30 END BOND
M  V30 END CTAB
M  END
>  <Structure No>
2303

>  <LogS>
-1.266527042

>  <MMFF94 Energy>
5.2379

$$$$
Compound 2304
Actelion Java MolfileCreator 2.0

  0  0  0  0  0  0              0 V3000
M  V30 BEGIN CTAB
M  V30 COUNTS 15 15 0 0 0
M  V30 BEGIN ATOM
M  V30 1 O -1.8288 -1.7493 -0.1589 0
M  V30 2 C -0.8311 -0.777 -0.0652 0
M  V30 3 C -1.1151 0.6102 -0.0364 0
M  V30 4 C 0.4997 -1.2093 0.0017 0
M  V30 5 O -2.415 1.1161 -0.0991 0
M  V30 6 C -0.0601 1.5263 0.0588 0
M  V30 7 C 1.5457 -0.2842 0.0966 0
M  V30 8 C 1.2629 1.0845 0.1251 0
M  V30 9 C 2.9092 -0.7407 0.1649 0
M  V30 10 N 4.0052 -1.1076 0.2198 0
M  V30 11 H -2.8157 -1.5419 -0.2124 0
M  V30 12 H 0.716 -2.2711 -0.0204 0
M  V30 13 H -3.2417 0.5407 -0.1688 0
M  V30 14 H -0.2683 2.5887 0.0815 0
M  V30 15 H 2.0642 1.81 0.1983 0
M  V30 END ATOM
M  V30 BEGIN BOND
M  V30 1 1 1 2
M  V30 2 2 2 3
M  V30 3 1 2 4
M  V30 4 1 3 5
M  V30 5 1 3 6
M  V30 6 2 4 7
M  V30 7 2 6 8
M  V30 8 1 7 9
M  V30 9 3 9 10
M  V30 10 1 7 8
M  V30 11 1 1 11
M  V30 12 1 4 12
M  V30 13 1 5 13
M  V30 14 1 6 14
M  V30 15 1 8 15
M  V30 END BOND
M  V30 END CTAB
M  END
>  <Structure No>
2304

>  <LogS>
-1.023516095

>  <MMFF94 Energy>
22.812

$$$$
Compound 2305
Actelion Java MolfileCreator 2.0

  0  0  0  0  0  0              0 V3000
M  V30 BEGIN CTAB
M  V30 COUNTS 49 48 0 0 0
M  V30 BEGIN ATOM
M  V30 1 O 7.707 -0.8627 -0.6274 0
M  V30 2 C 6.6503 -0.1748 -0.5696 0
M  V30 3 O 5.4513 -0.7655 -0.1586 0
M  V30 4 C 6.6637 1.2572 -0.9415 0
M  V30 5 C 5.3487 -2.142 0.1933 0
M  V30 6 C 7.7958 1.8581 -1.324 0
M  V30 7 C 5.3863 2.0467 -0.8466 0
M  V30 8 C 3.9064 -2.4771 0.5586 0
M  V30 9 O 3.0721 -2.3417 -0.5789 0
M  V30 10 C 2.3125 -1.1487 -0.5329 0
M  V30 11 C 0.9708 -1.3959 0.1504 0
M  V30 12 O 0.1817 -0.2269 0.0508 0
M  V30 13 C -1.0688 -0.4126 0.6893 0
M  V30 14 C -2.1105 -0.9453 -0.2962 0
M  V30 15 O -3.3819 -0.9017 0.3159 0
M  V30 16 C -4.3317 -1.5363 -0.5134 0
M  V30 17 C -5.7333 -1.3181 0.0521 0
M  V30 18 O -6.1432 0.0384 -0.1165 0
M  V30 19 C -5.7529 1.082 0.7314 0
M  V30 20 O -5.0913 0.8369 1.7782 0
M  V30 21 C -6.1396 2.4705 0.397 0
M  V30 22 C -5.6991 3.5029 1.1254 0
M  V30 23 C -6.9902 2.7167 -0.8186 0
M  V30 24 H 6.0059 -2.353 1.0657 0
M  V30 25 H 5.6707 -2.775 -0.6637 0
M  V30 26 H 8.7279 1.3126 -1.3912 0
M  V30 27 H 7.8113 2.9102 -1.5823 0
M  V30 28 H 5.4748 3.0382 -1.3381 0
M  V30 29 H 4.5614 1.4931 -1.3451 0
M  V30 30 H 5.1256 2.1995 0.2207 0
M  V30 31 H 3.5867 -1.8725 1.4396 0
M  V30 32 H 3.871 -3.5377 0.8813 0
M  V30 33 H 2.849 -0.3027 -0.0429 0
M  V30 34 H 2.1176 -0.8308 -1.5787 0
M  V30 35 H 0.4741 -2.2504 -0.3583 0
M  V30 36 H 1.1599 -1.6573 1.2159 0
M  V30 37 H -1.0148 -1.0708 1.5893 0
M  V30 38 H -1.4101 0.5819 1.0509 0
M  V30 39 H -2.101 -0.3009 -1.2072 0
M  V30 40 H -1.8389 -1.99 -0.5776 0
M  V30 41 H -4.3064 -1.1323 -1.5523 0
M  V30 42 H -4.1351 -2.6318 -0.5421 0
M  V30 43 H -6.4418 -1.9642 -0.5068 0
M  V30 44 H -5.7779 -1.6147 1.1221 0
M  V30 45 H -5.0666 3.3538 1.9921 0
M  V30 46 H -5.9601 4.5211 0.8654 0
M  V30 47 H -7.3878 3.7543 -0.8435 0
M  V30 48 H -7.856 2.0214 -0.8192 0
M  V30 49 H -6.3853 2.5436 -1.7341 0
M  V30 END ATOM
M  V30 BEGIN BOND
M  V30 1 2 1 2
M  V30 2 1 2 3
M  V30 3 1 2 4
M  V30 4 1 3 5
M  V30 5 2 4 6
M  V30 6 1 4 7
M  V30 7 1 5 8
M  V30 8 1 8 9
M  V30 9 1 9 10
M  V30 10 1 10 11
M  V30 11 1 11 12
M  V30 12 1 12 13
M  V30 13 1 13 14
M  V30 14 1 14 15
M  V30 15 1 15 16
M  V30 16 1 16 17
M  V30 17 1 17 18
M  V30 18 1 18 19
M  V30 19 2 19 20
M  V30 20 1 19 21
M  V30 21 2 21 22
M  V30 22 1 21 23
M  V30 23 1 5 24
M  V30 24 1 5 25
M  V30 25 1 6 26
M  V30 26 1 6 27
M  V30 27 1 7 28
M  V30 28 1 7 29
M  V30 29 1 7 30
M  V30 30 1 8 31
M  V30 31 1 8 32
M  V30 32 1 10 33
M  V30 33 1 10 34
M  V30 34 1 11 35
M  V30 35 1 11 36
M  V30 36 1 13 37
M  V30 37 1 13 38
M  V30 38 1 14 39
M  V30 39 1 14 40
M  V30 40 1 16 41
M  V30 41 1 16 42
M  V30 42 1 17 43
M  V30 43 1 17 44
M  V30 44 1 22 45
M  V30 45 1 22 46
M  V30 46 1 23 47
M  V30 47 1 23 48
M  V30 48 1 23 49
M  V30 END BOND
M  V30 END CTAB
M  END
>  <Structure No>
2305

>  <LogS>
-1.41863926

>  <MMFF94 Energy>
76.912

$$$$
Compound 2306
Actelion Java MolfileCreator 2.0

  0  0  0  0  0  0              0 V3000
M  V30 BEGIN CTAB
M  V30 COUNTS 17 17 0 0 0
M  V30 BEGIN ATOM
M  V30 1 S 2.924 0.0834 0.0834 0
M  V30 2 O 3.4517 -0.7462 1.2201 0
M  V30 3 O 3.3838 1.5025 0.2677 0
M  V30 4 O 3.519 -0.5136 -1.369 0 CHG=-1
M  V30 5 C 1.1649 0.0226 0.065 0
M  V30 6 C 0.4267 1.1088 -0.4251 0
M  V30 7 C 0.494 -1.1212 0.5193 0
M  V30 8 C -0.9705 1.0563 -0.4495 0
M  V30 9 C -0.9032 -1.1738 0.4949 0
M  V30 10 C -1.6423 -0.0846 0.0115 0
M  V30 11 N -3.0711 -0.1384 -0.0137 0
M  V30 12 H 0.9308 1.9945 -0.7899 0
M  V30 13 H 1.0507 -1.9723 0.8901 0
M  V30 14 H -1.5289 1.903 -0.8288 0
M  V30 15 H -1.4091 -2.0625 0.8506 0
M  V30 16 H -3.5804 -0.9844 0.3267 0
M  V30 17 H -3.6302 0.6674 -0.3727 0
M  V30 END ATOM
M  V30 BEGIN BOND
M  V30 1 2 1 2
M  V30 2 2 1 3
M  V30 3 1 1 4
M  V30 4 1 1 5
M  V30 5 2 5 6
M  V30 6 1 5 7
M  V30 7 1 6 8
M  V30 8 2 7 9
M  V30 9 2 8 10
M  V30 10 1 10 11
M  V30 11 1 9 10
M  V30 12 1 6 12
M  V30 13 1 7 13
M  V30 14 1 8 14
M  V30 15 1 9 15
M  V30 16 1 11 16
M  V30 17 1 11 17
M  V30 END BOND
M  V30 END CTAB
M  END
>  <Structure No>
2306

>  <LogS>
-1.141273025

>  <MMFF94 Energy>
39.008

$$$$
Compound 2307
Actelion Java MolfileCreator 2.0

  0  0  0  0  0  0              0 V3000
M  V30 BEGIN CTAB
M  V30 COUNTS 19 19 0 0 0
M  V30 BEGIN ATOM
M  V30 1 O 1.7233 -0.2348 0.6263 0
M  V30 2 C 0.4537 -0.2425 -0.0018 0
M  V30 3 C 2.7027 0.2559 -0.2623 0
M  V30 4 C -0.4598 -1.2381 0.6932 0
M  V30 5 C -0.2558 1.1009 0.1509 0
M  V30 6 C -1.8698 -0.7192 0.4641 0
M  V30 7 C -1.7456 0.7892 0.2677 0
M  V30 8 H 0.5039 -0.5246 -1.0826 0
M  V30 9 H 2.4509 1.2772 -0.6244 0
M  V30 10 H 2.8427 -0.4375 -1.1206 0
M  V30 11 H 3.6694 0.3207 0.2778 0
M  V30 12 H -0.3319 -2.2625 0.2808 0
M  V30 13 H -0.2477 -1.2548 1.7861 0
M  V30 14 H 0.0897 1.613 1.0767 0
M  V30 15 H -0.0523 1.7584 -0.7221 0
M  V30 16 H -2.2922 -1.1838 -0.4542 0
M  V30 17 H -2.528 -0.9617 1.3268 0
M  V30 18 H -2.1851 1.3316 1.1336 0
M  V30 19 H -2.2803 1.1003 -0.6565 0
M  V30 END ATOM
M  V30 BEGIN BOND
M  V30 1 1 1 2
M  V30 2 1 1 3
M  V30 3 1 2 4
M  V30 4 1 2 5
M  V30 5 1 4 6
M  V30 6 1 5 7
M  V30 7 1 6 7
M  V30 8 1 2 8
M  V30 9 1 3 9
M  V30 10 1 3 10
M  V30 11 1 3 11
M  V30 12 1 4 12
M  V30 13 1 4 13
M  V30 14 1 5 14
M  V30 15 1 5 15
M  V30 16 1 6 16
M  V30 17 1 6 17
M  V30 18 1 7 18
M  V30 19 1 7 19
M  V30 END BOND
M  V30 END CTAB
M  END
>  <Structure No>
2307

>  <LogS>
-0.903788639

>  <MMFF94 Energy>
13.736

$$$$
Compound 2308
Actelion Java MolfileCreator 2.0

  0  0  0  0  0  0              0 V3000
M  V30 BEGIN CTAB
M  V30 COUNTS 19 19 0 0 0
M  V30 BEGIN ATOM
M  V30 1 S 3.0649 -0.2482 -0.331 0
M  V30 2 O 3.6696 0.65 -1.373 0
M  V30 3 O 3.299 -1.6776 -0.7314 0
M  V30 4 O 3.7956 0.0447 1.1524 0 CHG=-1
M  V30 5 C 1.3364 0.0609 -0.2035 0
M  V30 6 C 0.4682 -0.9568 0.2083 0
M  V30 7 C 0.8266 1.3319 -0.4839 0
M  V30 8 C -0.9109 -0.7208 0.3309 0
M  V30 9 C -0.5429 1.5782 -0.3774 0
M  V30 10 N -1.7514 -1.7843 0.8 0
M  V30 11 C -1.4264 0.561 0.016 0
M  V30 12 N -2.8306 0.8499 0.0634 0
M  V30 13 H 0.8673 -1.9342 0.4497 0
M  V30 14 H 1.4874 2.1331 -0.7892 0
M  V30 15 H -0.9199 2.5654 -0.6141 0
M  V30 16 H -1.3595 -2.7425 0.9383 0
M  V30 17 H -2.7349 -1.6312 1.1073 0
M  V30 18 H -3.5559 0.107 0.1473 0
M  V30 19 H -3.1721 1.8258 -0.0853 0
M  V30 END ATOM
M  V30 BEGIN BOND
M  V30 1 2 1 2
M  V30 2 2 1 3
M  V30 3 1 1 4
M  V30 4 1 1 5
M  V30 5 2 5 6
M  V30 6 1 5 7
M  V30 7 1 6 8
M  V30 8 2 7 9
M  V30 9 1 8 10
M  V30 10 2 8 11
M  V30 11 1 11 12
M  V30 12 1 9 11
M  V30 13 1 6 13
M  V30 14 1 7 14
M  V30 15 1 9 15
M  V30 16 1 10 16
M  V30 17 1 10 17
M  V30 18 1 12 18
M  V30 19 1 12 19
M  V30 END BOND
M  V30 END CTAB
M  END
>  <Structure No>
2308

>  <LogS>
-1.181216395

>  <MMFF94 Energy>
40.813

$$$$
Compound 2309
Actelion Java MolfileCreator 2.0

  0  0  0  0  0  0              0 V3000
M  V30 BEGIN CTAB
M  V30 COUNTS 15 15 0 0 0
M  V30 BEGIN ATOM
M  V30 1 O 3.9391 -0.0786 0.236 0
M  V30 2 N 2.5999 0.1299 0.468 0
M  V30 3 C 1.7105 -0.3373 -0.347 0
M  V30 4 C 0.279 -0.1137 -0.0978 0
M  V30 5 N -0.1234 0.5903 0.9975 0
M  V30 6 C -0.6808 -0.6224 -0.9844 0
M  V30 7 C -1.4379 0.8182 1.262 0
M  V30 8 C -2.0356 -0.3987 -0.7293 0
M  V30 9 C -2.4202 0.3258 0.4 0
M  V30 10 H 4.6277 0.2908 0.8791 0
M  V30 11 H 2.0234 -0.8983 -1.2202 0
M  V30 12 H -0.3849 -1.1849 -1.8614 0
M  V30 13 H -1.7203 1.3815 2.1414 0
M  V30 14 H -2.7861 -0.7862 -1.4061 0
M  V30 15 H -3.4678 0.504 0.6055 0
M  V30 END ATOM
M  V30 BEGIN BOND
M  V30 1 1 1 2
M  V30 2 2 2 3
M  V30 3 1 3 4
M  V30 4 2 4 5
M  V30 5 1 4 6
M  V30 6 1 5 7
M  V30 7 2 6 8
M  V30 8 2 7 9
M  V30 9 1 8 9
M  V30 10 1 1 10
M  V30 11 1 3 11
M  V30 12 1 6 12
M  V30 13 1 7 13
M  V30 14 1 8 14
M  V30 15 1 9 15
M  V30 END BOND
M  V30 END CTAB
M  END
>  <Structure No>
2309

>  <LogS>
-1.000451858

>  <MMFF94 Energy>
52.486

$$$$
Compound 2310
Actelion Java MolfileCreator 2.0

  0  0  0  0  0  0              0 V3000
M  V30 BEGIN CTAB
M  V30 COUNTS 20 21 0 0 0
M  V30 BEGIN ATOM
M  V30 1 O -2.1899 -2.3523 0.162 0
M  V30 2 C -1.7827 -1.1618 0.1224 0
M  V30 3 N -2.6487 -0.0396 0.0031 0
M  V30 4 C -0.3755 -0.7278 0.3486 0 CFG=2
M  V30 5 C -1.7877 1.0883 -0.0941 0
M  V30 6 C -0.3724 0.6642 -0.2845 0 CFG=1
M  V30 7 C 0.7987 -1.5185 -0.2212 0
M  V30 8 O -2.2022 2.276 -0.1442 0
M  V30 9 C 0.7816 1.4629 0.3148 0
M  V30 10 C 2.0728 -0.6969 -0.0375 0
M  V30 11 C 2.0655 0.6503 0.1635 0
M  V30 12 H -3.6926 -0.0432 -0.0099 0
M  V30 13 H -0.2451 -0.6532 1.4542 0
M  V30 14 H -0.2134 0.5905 -1.3864 0
M  V30 15 H 0.8973 -2.4842 0.3183 0
M  V30 16 H 0.6438 -1.7261 -1.302 0
M  V30 17 H 0.8872 2.4293 -0.222 0
M  V30 18 H 0.598 1.6693 1.3913 0
M  V30 19 H 3.0272 -1.2052 -0.1314 0
M  V30 20 H 3.0137 1.1652 0.2817 0
M  V30 END ATOM
M  V30 BEGIN BOND
M  V30 1 2 1 2
M  V30 2 1 2 3
M  V30 3 1 2 4
M  V30 4 1 3 5
M  V30 5 1 4 6
M  V30 6 1 4 7
M  V30 7 2 5 8
M  V30 8 1 6 9
M  V30 9 1 7 10
M  V30 10 1 9 11
M  V30 11 1 5 6
M  V30 12 2 10 11
M  V30 13 1 3 12
M  V30 14 1 4 13
M  V30 15 1 6 14
M  V30 16 1 7 15
M  V30 17 1 7 16
M  V30 18 1 9 17
M  V30 19 1 9 18
M  V30 20 1 10 19
M  V30 21 1 11 20
M  V30 END BOND
M  V30 BEGIN COLLECTION
M  V30 MDLV30/STEABS ATOMS=(2 4 6)
M  V30 END COLLECTION
M  V30 END CTAB
M  END
>  <Structure No>
2310

>  <LogS>
-1.093091418

>  <MMFF94 Energy>
-43.87

$$$$
Compound 2311
Actelion Java MolfileCreator 2.0

  0  0  0  0  0  0              0 V3000
M  V30 BEGIN CTAB
M  V30 COUNTS 24 24 0 0 0
M  V30 BEGIN ATOM
M  V30 1 O -0.3158 -0.4737 3.2408 0
M  V30 2 C -0.2993 -0.1614 2.021 0
M  V30 3 C -1.5424 -0.2321 1.2355 0
M  V30 4 C 0.9761 0.3279 1.394 0
M  V30 5 C -1.5642 0.0883 -0.0669 0
M  V30 6 C 0.99 0.0917 -0.138 0
M  V30 7 C -0.3284 0.6309 -0.7552 0
M  V30 8 C -2.8535 -0.0167 -0.829 0
M  V30 9 C 2.1833 0.849 -0.7544 0
M  V30 10 C 1.1525 -1.4142 -0.4498 0
M  V30 11 H -2.4449 -0.5844 1.7219 0
M  V30 12 H 1.0611 1.4152 1.611 0
M  V30 13 H 1.8451 -0.1788 1.8688 0
M  V30 14 H -0.3599 0.3857 -1.8396 0
M  V30 15 H -0.3564 1.7392 -0.6665 0
M  V30 16 H -2.7313 0.3349 -1.8749 0
M  V30 17 H -3.1912 -1.0744 -0.8495 0
M  V30 18 H -3.6329 0.6061 -0.3409 0
M  V30 19 H 2.2165 0.6977 -1.855 0
M  V30 20 H 2.1033 1.9399 -0.5572 0
M  V30 21 H 3.1413 0.4879 -0.3217 0
M  V30 22 H 0.3188 -2.0094 -0.0214 0
M  V30 23 H 2.1036 -1.8005 -0.0241 0
M  V30 24 H 1.1681 -1.5859 -1.5476 0
M  V30 END ATOM
M  V30 BEGIN BOND
M  V30 1 2 1 2
M  V30 2 1 2 3
M  V30 3 1 2 4
M  V30 4 2 3 5
M  V30 5 1 4 6
M  V30 6 1 5 7
M  V30 7 1 5 8
M  V30 8 1 6 9
M  V30 9 1 6 10
M  V30 10 1 6 7
M  V30 11 1 3 11
M  V30 12 1 4 12
M  V30 13 1 4 13
M  V30 14 1 7 14
M  V30 15 1 7 15
M  V30 16 1 8 16
M  V30 17 1 8 17
M  V30 18 1 8 18
M  V30 19 1 9 19
M  V30 20 1 9 20
M  V30 21 1 9 21
M  V30 22 1 10 22
M  V30 23 1 10 23
M  V30 24 1 10 24
M  V30 END BOND
M  V30 END CTAB
M  END
>  <Structure No>
2311

>  <LogS>
-1.061358221

>  <MMFF94 Energy>
21.389

$$$$
Compound 2312
Actelion Java MolfileCreator 2.0

  0  0  0  0  0  0              0 V3000
M  V30 BEGIN CTAB
M  V30 COUNTS 17 17 0 0 0
M  V30 BEGIN ATOM
M  V30 1 N 2.639 -0.7756 0.155 0
M  V30 2 C 1.3637 -0.1371 0.0475 0
M  V30 3 C 0.1862 -0.8971 0.1117 0
M  V30 4 C 1.2831 1.2525 -0.1187 0
M  V30 5 C -1.0676 -0.2748 -0.0022 0
M  V30 6 C 0.0367 1.8775 -0.2144 0
M  V30 7 C -1.1354 1.1191 -0.1501 0
M  V30 8 C -2.3255 -1.0848 0.1064 0
M  V30 9 H 3.5213 -0.2183 0.1101 0
M  V30 10 H 2.7104 -1.8099 0.2804 0
M  V30 11 H 0.2468 -1.97 0.2497 0
M  V30 12 H 2.1842 1.8506 -0.1687 0
M  V30 13 H -0.0208 2.9517 -0.3349 0
M  V30 14 H -2.0945 1.6182 -0.2162 0
M  V30 15 H -2.6276 -1.156 1.1722 0
M  V30 16 H -2.1678 -2.1086 -0.2948 0
M  V30 17 H -3.1475 -0.6125 -0.4725 0
M  V30 END ATOM
M  V30 BEGIN BOND
M  V30 1 1 1 2
M  V30 2 2 2 3
M  V30 3 1 2 4
M  V30 4 1 3 5
M  V30 5 2 4 6
M  V30 6 2 5 7
M  V30 7 1 5 8
M  V30 8 1 6 7
M  V30 9 1 1 9
M  V30 10 1 1 10
M  V30 11 1 3 11
M  V30 12 1 4 12
M  V30 13 1 6 13
M  V30 14 1 7 14
M  V30 15 1 8 15
M  V30 16 1 8 16
M  V30 17 1 8 17
M  V30 END BOND
M  V30 END CTAB
M  END
>  <Structure No>
2312

>  <LogS>
-0.950835248

>  <MMFF94 Energy>
10.379

$$$$
Compound 2313
Actelion Java MolfileCreator 2.0

  0  0  0  0  0  0              0 V3000
M  V30 BEGIN CTAB
M  V30 COUNTS 75 78 0 0 0
M  V30 BEGIN ATOM
M  V30 1 S -1.6363 1.4726 -4.2587 0
M  V30 2 O -2.2886 2.3824 -5.2618 0
M  V30 3 O -2.7104 0.6566 -3.597 0
M  V30 4 O -0.5672 0.4595 -5.0667 0 CHG=-1
M  V30 5 C -0.7578 2.4252 -3.0426 0
M  V30 6 C -0.2921 1.8745 -1.8092 0
M  V30 7 C -0.5318 3.776 -3.3341 0
M  V30 8 C 0.2554 2.7704 -0.831 0
M  V30 9 C -0.3328 0.3474 -1.5884 0
M  V30 10 C 0.102 4.6102 -2.4256 0
M  V30 11 C 0.4798 4.1308 -1.1722 0
M  V30 12 C 0.5645 2.3639 0.4875 0
M  V30 13 C 0.9921 -0.2127 -1.0712 0
M  V30 14 C -1.5748 -0.1397 -0.8448 0
M  V30 15 C 1.0711 5.0073 -0.2487 0
M  V30 16 C 1.1392 3.2495 1.407 0
M  V30 17 C 1.0873 -1.007 0.092 0
M  V30 18 C 2.1662 0.0494 -1.8012 0
M  V30 19 C -1.9814 -1.4763 -1.0144 0
M  V30 20 C -2.332 0.6885 0.0076 0
M  V30 21 C 1.4105 4.5643 1.0268 0
M  V30 22 S 1.5337 2.7027 3.0337 0
M  V30 23 C 2.3229 -1.501 0.517 0
M  V30 24 C 3.4001 -0.4439 -1.3724 0
M  V30 25 C -3.1008 -1.975 -0.3455 0
M  V30 26 C -3.4495 0.1863 0.679 0
M  V30 27 O 0.5928 1.6072 3.4504 0
M  V30 28 O 1.4034 3.8443 4.0019 0
M  V30 29 O 3.1094 2.1252 3.0596 0 CHG=-1
M  V30 30 C 3.4872 -1.2223 -0.2112 0
M  V30 31 C -3.8425 -1.1492 0.5107 0
M  V30 32 N 4.7605 -1.7361 0.2195 0
M  V30 33 N -4.9963 -1.6654 1.2061 0
M  V30 34 C 5.8299 -0.8034 0.5918 0
M  V30 35 C 4.9503 -3.1817 0.4005 0
M  V30 36 C -4.8765 -2.8836 2.0221 0
M  V30 37 C -6.2906 -0.9755 1.0912 0
M  V30 38 C 5.7162 -0.4343 2.0661 0
M  V30 39 C 4.9092 -3.8976 -0.9455 0
M  V30 40 C -3.967 -2.6387 3.2219 0
M  V30 41 C -6.8218 -1.0658 -0.3359 0
M  V30 42 H -0.8437 4.195 -4.2817 0
M  V30 43 H -0.397 -0.1307 -2.5839 0
M  V30 44 H 0.268 5.6471 -2.6942 0
M  V30 45 H 0.3197 1.3772 0.8374 0
M  V30 46 H 1.263 6.0411 -0.5112 0
M  V30 47 H 0.2166 -1.2296 0.6931 0
M  V30 48 H 2.1245 0.6417 -2.7072 0
M  V30 49 H -1.4236 -2.1369 -1.6668 0
M  V30 50 H -2.0771 1.7262 0.1595 0
M  V30 51 H 1.8667 5.2543 1.7248 0
M  V30 52 H 2.3728 -2.0869 1.4254 0
M  V30 53 H 4.2881 -0.2328 -1.9552 0
M  V30 54 H -3.3965 -3.0023 -0.5112 0
M  V30 55 H -3.9975 0.8391 1.345 0
M  V30 56 H 6.8244 -1.2625 0.4017 0
M  V30 57 H 5.7722 0.1216 -0.0212 0
M  V30 58 H 4.1618 -3.5924 1.0656 0
M  V30 59 H 5.9293 -3.391 0.8845 0
M  V30 60 H -4.4719 -3.717 1.4114 0
M  V30 61 H -5.87 -3.2137 2.3947 0
M  V30 62 H -6.187 0.0901 1.3836 0
M  V30 63 H -7.0427 -1.4229 1.776 0
M  V30 64 H 5.8142 -1.3441 2.6953 0
M  V30 65 H 6.5227 0.2795 2.338 0
M  V30 66 H 4.7326 0.0413 2.2656 0
M  V30 67 H 3.909 -3.7792 -1.414 0
M  V30 68 H 5.1078 -4.9801 -0.8003 0
M  V30 69 H 5.6826 -3.478 -1.6229 0
M  V30 70 H -3.9355 -3.5486 3.858 0
M  V30 71 H -4.354 -1.7902 3.8255 0
M  V30 72 H -2.9352 -2.407 2.8832 0
M  V30 73 H -6.1365 -0.5436 -1.0364 0
M  V30 74 H -6.9165 -2.1297 -0.6396 0
M  V30 75 H -7.8212 -0.586 -0.3926 0
M  V30 END ATOM
M  V30 BEGIN BOND
M  V30 1 2 1 2
M  V30 2 2 1 3
M  V30 3 1 1 4
M  V30 4 1 1 5
M  V30 5 2 5 6
M  V30 6 1 5 7
M  V30 7 1 6 8
M  V30 8 1 6 9
M  V30 9 2 7 10
M  V30 10 1 8 11
M  V30 11 2 8 12
M  V30 12 1 9 13
M  V30 13 1 9 14
M  V30 14 2 11 15
M  V30 15 1 12 16
M  V30 16 2 13 17
M  V30 17 1 13 18
M  V30 18 2 14 19
M  V30 19 1 14 20
M  V30 20 1 15 21
M  V30 21 1 16 22
M  V30 22 1 17 23
M  V30 23 2 18 24
M  V30 24 1 19 25
M  V30 25 2 20 26
M  V30 26 2 22 27
M  V30 27 2 22 28
M  V30 28 1 22 29
M  V30 29 2 23 30
M  V30 30 2 25 31
M  V30 31 1 30 32
M  V30 32 1 31 33
M  V30 33 1 32 34
M  V30 34 1 32 35
M  V30 35 1 33 36
M  V30 36 1 33 37
M  V30 37 1 34 38
M  V30 38 1 35 39
M  V30 39 1 36 40
M  V30 40 1 37 41
M  V30 41 1 10 11
M  V30 42 2 16 21
M  V30 43 1 24 30
M  V30 44 1 26 31
M  V30 45 1 7 42
M  V30 46 1 9 43
M  V30 47 1 10 44
M  V30 48 1 12 45
M  V30 49 1 15 46
M  V30 50 1 17 47
M  V30 51 1 18 48
M  V30 52 1 19 49
M  V30 53 1 20 50
M  V30 54 1 21 51
M  V30 55 1 23 52
M  V30 56 1 24 53
M  V30 57 1 25 54
M  V30 58 1 26 55
M  V30 59 1 34 56
M  V30 60 1 34 57
M  V30 61 1 35 58
M  V30 62 1 35 59
M  V30 63 1 36 60
M  V30 64 1 36 61
M  V30 65 1 37 62
M  V30 66 1 37 63
M  V30 67 1 38 64
M  V30 68 1 38 65
M  V30 69 1 38 66
M  V30 70 1 39 67
M  V30 71 1 39 68
M  V30 72 1 39 69
M  V30 73 1 40 70
M  V30 74 1 40 71
M  V30 75 1 40 72
M  V30 76 1 41 73
M  V30 77 1 41 74
M  V30 78 1 41 75
M  V30 END BOND
M  V30 END CTAB
M  END
>  <Structure No>
2313

>  <LogS>
-0.698476149

>  <MMFF94 Energy>
188.43

$$$$
Compound 2314
Actelion Java MolfileCreator 2.0

  0  0  0  0  0  0              0 V3000
M  V30 BEGIN CTAB
M  V30 COUNTS 18 17 0 0 0
M  V30 BEGIN ATOM
M  V30 1 O -1.147 -1.453 0.9175 0
M  V30 2 C -0.5141 -0.4083 0.2163 0
M  V30 3 C 1.0227 -0.5234 0.4317 0
M  V30 4 C -0.8771 -0.5739 -1.2693 0
M  V30 5 C -1.0597 0.9416 0.7281 0
M  V30 6 C 1.8654 0.5174 -0.3127 0
M  V30 7 H -0.9482 -1.3405 1.8845 0
M  V30 8 H 1.3586 -1.5351 0.1149 0
M  V30 9 H 1.2484 -0.4348 1.5171 0
M  V30 10 H -1.9805 -0.6349 -1.3875 0
M  V30 11 H -0.519 0.2854 -1.8742 0
M  V30 12 H -0.4344 -1.5088 -1.6746 0
M  V30 13 H -2.1707 0.9361 0.7052 0
M  V30 14 H -0.7096 1.7855 0.0974 0
M  V30 15 H -0.7354 1.1217 1.7754 0
M  V30 16 H 1.7471 0.4161 -1.4107 0
M  V30 17 H 1.5988 1.5469 0.0017 0
M  V30 18 H 2.9372 0.3558 -0.0721 0
M  V30 END ATOM
M  V30 BEGIN BOND
M  V30 1 1 1 2
M  V30 2 1 2 3
M  V30 3 1 2 4
M  V30 4 1 2 5
M  V30 5 1 3 6
M  V30 6 1 1 7
M  V30 7 1 3 8
M  V30 8 1 3 9
M  V30 9 1 4 10
M  V30 10 1 4 11
M  V30 11 1 4 12
M  V30 12 1 5 13
M  V30 13 1 5 14
M  V30 14 1 5 15
M  V30 15 1 6 16
M  V30 16 1 6 17
M  V30 17 1 6 18
M  V30 END BOND
M  V30 END CTAB
M  END
>  <Structure No>
2314

>  <LogS>
0.126659691

>  <MMFF94 Energy>
9.2514

$$$$
Compound 2315
Actelion Java MolfileCreator 2.0

  0  0  0  0  0  0              0 V3000
M  V30 BEGIN CTAB
M  V30 COUNTS 4 3 0 0 0
M  V30 BEGIN ATOM
M  V30 1 O 1.249 -0.0832 0.0 0
M  V30 2 N 0.0029 -0.0396 -0.0059 0 CHG=1
M  V30 3 O -0.642 1.1737 -0.0119 0 CHG=-1
M  V30 4 O -0.7253 -1.2048 -0.0063 0 CHG=-1
M  V30 END ATOM
M  V30 BEGIN BOND
M  V30 1 2 1 2
M  V30 2 1 2 3
M  V30 3 1 2 4
M  V30 END BOND
M  V30 END CTAB
M  END
>  <Structure No>
2315

>  <LogS>
0.607411262

>  <MMFF94 Energy>
6.4146

$$$$
Compound 2316
Actelion Java MolfileCreator 2.0

  0  0  0  0  0  0              0 V3000
M  V30 BEGIN CTAB
M  V30 COUNTS 8 7 0 0 0
M  V30 BEGIN ATOM
M  V30 1 S -0.0773 1.5488 1.3938 0
M  V30 2 C -0.0156 0.343 0.2886 0
M  V30 3 N -1.1218 -0.5474 0.1433 0
M  V30 4 N 1.1441 0.1841 -0.5282 0
M  V30 5 H -1.0902 -1.3188 -0.5591 0
M  V30 6 H -1.9753 -0.4402 0.7357 0
M  V30 7 H 1.9589 0.8299 -0.4303 0
M  V30 8 H 1.191 -0.5823 -1.2354 0
M  V30 END ATOM
M  V30 BEGIN BOND
M  V30 1 2 1 2
M  V30 2 1 2 3
M  V30 3 1 2 4
M  V30 4 1 3 5
M  V30 5 1 3 6
M  V30 6 1 4 7
M  V30 7 1 4 8
M  V30 END BOND
M  V30 END CTAB
M  END
>  <Structure No>
2316

>  <LogS>
0.188516266

>  <MMFF94 Energy>
-88.138

$$$$
Compound 2317
Actelion Java MolfileCreator 2.0

  0  0  0  0  0  0              0 V3000
M  V30 BEGIN CTAB
M  V30 COUNTS 73 78 0 0 0
M  V30 BEGIN ATOM
M  V30 1 Cl 9.338 3.8476 -1.9652 0
M  V30 2 C 9.5442 2.944 -0.4685 0
M  V30 3 C 10.8285 2.5662 -0.0679 0
M  V30 4 C 8.455 2.5715 0.3412 0
M  V30 5 F 11.9065 2.8994 -0.8187 0
M  V30 6 N 11.0037 1.8594 1.0774 0
M  V30 7 N 8.6893 1.8631 1.4801 0
M  V30 8 N 7.1059 2.9138 -0.0258 0
M  V30 9 C 9.9456 1.5094 1.8499 0
M  V30 10 C 5.9276 2.3731 0.6574 0
M  V30 11 F 10.1432 0.8038 2.9884 0
M  V30 12 C 5.2899 1.2262 -0.1172 0
M  V30 13 C 3.9218 0.8656 0.067 0
M  V30 14 C 6.0754 0.4645 -1.003 0
M  V30 15 C 3.3367 -0.1483 -0.7494 0
M  V30 16 C 3.1268 1.4767 1.0558 0
M  V30 17 C 5.5205 -0.5735 -1.74 0
M  V30 18 C 1.9442 -0.4332 -0.645 0
M  V30 19 C 4.1682 -0.8718 -1.6279 0
M  V30 20 C 1.7972 1.1124 1.2285 0
M  V30 21 S 1.1108 -1.404 -1.892 0
M  V30 22 C 1.2008 0.1566 0.4058 0
M  V30 23 O 1.6667 -1.0815 -3.252 0
M  V30 24 O -0.3595 -1.0957 -1.9252 0
M  V30 25 O 1.3281 -3.0394 -1.5729 0 CHG=-1
M  V30 26 N -0.1525 -0.2233 0.6799 0
M  V30 27 N -0.4537 -1.5724 0.9326 0
M  V30 28 C -1.6377 -2.1173 0.8479 0
M  V30 29 C -2.8283 -1.4013 0.3071 0
M  V30 30 C -1.7892 -3.5379 1.2496 0
M  V30 31 O -2.7277 -0.2165 -0.1063 0
M  V30 32 C -4.1328 -2.1149 0.2257 0
M  V30 33 S -0.416 -4.4249 1.9331 0
M  V30 34 C -2.9809 -4.1465 1.165 0
M  V30 35 C -5.3195 -1.4945 -0.2475 0
M  V30 36 C -4.1882 -3.4602 0.6551 0
M  V30 37 O 0.8394 -4.1151 1.1655 0
M  V30 38 O -0.6632 -5.9068 1.8645 0
M  V30 39 O -0.2148 -3.9731 3.5393 0 CHG=-1
M  V30 40 N -5.3165 -0.1428 -0.7299 0
M  V30 41 C -6.5172 -2.223 -0.2895 0
M  V30 42 C -5.3986 -4.1667 0.6031 0
M  V30 43 C -6.1238 0.8867 -0.1325 0
M  V30 44 C -6.562 -3.5516 0.1364 0
M  V30 45 O -6.9637 0.5833 0.7584 0
M  V30 46 C -5.9769 2.3057 -0.5369 0
M  V30 47 S -8.068 -4.4599 0.0401 0
M  V30 48 C -4.7609 2.7933 -1.0541 0
M  V30 49 C -7.0525 3.1983 -0.3721 0
M  V30 50 O -9.2375 -3.5324 0.2118 0
M  V30 51 O -8.1112 -5.4974 1.1275 0
M  V30 52 O -8.1703 -5.2147 -1.4566 0 CHG=-1
M  V30 53 C -4.6323 4.1396 -1.4098 0
M  V30 54 C -6.9192 4.5435 -0.7329 0
M  V30 55 C -5.7107 5.0132 -1.2537 0
M  V30 56 H 6.927 3.4823 -0.8834 0
M  V30 57 H 6.1808 2.0302 1.6821 0
M  V30 58 H 5.2065 3.2102 0.752 0
M  V30 59 H 7.1308 0.6603 -1.1296 0
M  V30 60 H 3.528 2.2052 1.7443 0
M  V30 61 H 6.1463 -1.1551 -2.4053 0
M  V30 62 H 3.8021 -1.7111 -2.1991 0
M  V30 63 H 1.2267 1.568 2.0289 0
M  V30 64 H -0.7954 0.5137 1.0449 0
M  V30 65 H -3.077 -5.1757 1.4903 0
M  V30 66 H -4.7327 0.0735 -1.5667 0
M  V30 67 H -7.4131 -1.7545 -0.6768 0
M  V30 68 H -5.435 -5.2013 0.9232 0
M  V30 69 H -3.8999 2.1478 -1.1596 0
M  V30 70 H -7.9978 2.8537 0.0305 0
M  V30 71 H -3.692 4.5055 -1.8018 0
M  V30 72 H -7.7534 5.222 -0.6061 0
M  V30 73 H -5.6071 6.0548 -1.5308 0
M  V30 END ATOM
M  V30 BEGIN BOND
M  V30 1 1 1 2
M  V30 2 2 2 3
M  V30 3 1 2 4
M  V30 4 1 3 5
M  V30 5 1 3 6
M  V30 6 2 4 7
M  V30 7 1 4 8
M  V30 8 2 6 9
M  V30 9 1 8 10
M  V30 10 1 9 11
M  V30 11 1 10 12
M  V30 12 1 12 13
M  V30 13 2 12 14
M  V30 14 1 13 15
M  V30 15 2 13 16
M  V30 16 1 14 17
M  V30 17 2 15 18
M  V30 18 1 15 19
M  V30 19 1 16 20
M  V30 20 1 18 21
M  V30 21 1 18 22
M  V30 22 2 21 23
M  V30 23 2 21 24
M  V30 24 1 21 25
M  V30 25 1 22 26
M  V30 26 1 26 27
M  V30 27 2 27 28
M  V30 28 1 28 29
M  V30 29 1 28 30
M  V30 30 2 29 31
M  V30 31 1 29 32
M  V30 32 1 30 33
M  V30 33 2 30 34
M  V30 34 2 32 35
M  V30 35 1 32 36
M  V30 36 2 33 37
M  V30 37 2 33 38
M  V30 38 1 33 39
M  V30 39 1 35 40
M  V30 40 1 35 41
M  V30 41 2 36 42
M  V30 42 1 40 43
M  V30 43 2 41 44
M  V30 44 2 43 45
M  V30 45 1 43 46
M  V30 46 1 44 47
M  V30 47 2 46 48
M  V30 48 1 46 49
M  V30 49 2 47 50
M  V30 50 2 47 51
M  V30 51 1 47 52
M  V30 52 1 48 53
M  V30 53 2 49 54
M  V30 54 2 53 55
M  V30 55 1 7 9
M  V30 56 2 17 19
M  V30 57 2 20 22
M  V30 58 1 34 36
M  V30 59 1 42 44
M  V30 60 1 54 55
M  V30 61 1 8 56
M  V30 62 1 10 57
M  V30 63 1 10 58
M  V30 64 1 14 59
M  V30 65 1 16 60
M  V30 66 1 17 61
M  V30 67 1 19 62
M  V30 68 1 20 63
M  V30 69 1 26 64
M  V30 70 1 34 65
M  V30 71 1 40 66
M  V30 72 1 41 67
M  V30 73 1 42 68
M  V30 74 1 48 69
M  V30 75 1 49 70
M  V30 76 1 53 71
M  V30 77 1 54 72
M  V30 78 1 55 73
M  V30 END BOND
M  V30 END CTAB
M  END
>  <Structure No>
2317

>  <LogS>
-0.890086508

>  <MMFF94 Energy>
225.77

$$$$
Compound 2318
Actelion Java MolfileCreator 2.0

  0  0  0  0  0  0              0 V3000
M  V30 BEGIN CTAB
M  V30 COUNTS 14 14 0 0 0
M  V30 BEGIN ATOM
M  V30 1 O -2.1165 -1.5674 0.5483 0
M  V30 2 C -1.0685 -0.6927 0.2704 0
M  V30 3 C 0.2043 -1.2052 -0.0069 0
M  V30 4 C -1.2767 0.6941 0.266 0
M  V30 5 C 1.2676 -0.3391 -0.2881 0
M  V30 6 C -0.2161 1.561 -0.0146 0
M  V30 7 O 2.5284 -0.8642 -0.5621 0
M  V30 8 C 1.0544 1.047 -0.2913 0
M  V30 9 H -3.0492 -1.2279 0.7531 0
M  V30 10 H 0.367 -2.2758 -0.0038 0
M  V30 11 H -2.2576 1.0997 0.4794 0
M  V30 12 H -0.3788 2.6312 -0.0175 0
M  V30 13 H 3.3182 -0.2639 -0.7693 0
M  V30 14 H 1.8705 1.7246 -0.5077 0
M  V30 END ATOM
M  V30 BEGIN BOND
M  V30 1 1 1 2
M  V30 2 2 2 3
M  V30 3 1 2 4
M  V30 4 1 3 5
M  V30 5 2 4 6
M  V30 6 1 5 7
M  V30 7 2 5 8
M  V30 8 1 6 8
M  V30 9 1 1 9
M  V30 10 1 3 10
M  V30 11 1 4 11
M  V30 12 1 6 12
M  V30 13 1 7 13
M  V30 14 1 8 14
M  V30 END BOND
M  V30 END CTAB
M  END
>  <Structure No>
2318

>  <LogS>
1.003488328

>  <MMFF94 Energy>
-4.8539

$$$$
Compound 2319
Actelion Java MolfileCreator 2.0

  0  0  0  0  0  0              0 V3000
M  V30 BEGIN CTAB
M  V30 COUNTS 60 60 0 0 0
M  V30 BEGIN ATOM
M  V30 1 N -6.8095 0.1561 0.5465 0 CHG=1
M  V30 2 C -6.9281 -0.3662 1.8058 0
M  V30 3 C -7.016 1.4917 0.3288 0
M  V30 4 C -6.4414 -0.7231 -0.5721 0
M  V30 5 C -7.2638 0.4536 2.8858 0
M  V30 6 C -7.3523 2.3394 1.387 0
M  V30 7 C -4.9389 -1.0399 -0.5677 0
M  V30 8 C -7.4767 1.8144 2.6721 0
M  V30 9 C -4.0828 0.2065 -0.8448 0
M  V30 10 C -2.5762 -0.0957 -0.8235 0
M  V30 11 C -2.1209 -0.9258 -2.0367 0
M  V30 12 C -0.5909 -0.9928 -2.1631 0
M  V30 13 C 0.0606 -1.7928 -1.0213 0
M  V30 14 C 1.5444 -2.0941 -1.2839 0
M  V30 15 C 2.4221 -0.8348 -1.2282 0
M  V30 16 C 3.9091 -1.1976 -1.353 0
M  V30 17 C 4.8206 0.0356 -1.488 0
M  V30 18 C 4.7442 1.0478 -0.3246 0
M  V30 19 C 5.0641 0.4688 1.0681 0
M  V30 20 C 6.548 0.0788 1.255 0
M  V30 21 C 7.3484 1.0944 2.0874 0
M  V30 22 C 7.5222 2.4363 1.3794 0
M  V30 23 H -6.7617 -1.4226 1.9807 0
M  V30 24 H -6.9147 1.911 -0.665 0
M  V30 25 H -6.7256 -0.2686 -1.5475 0
M  V30 26 H -7.0093 -1.6767 -0.4956 0
M  V30 27 H -7.3567 0.0362 3.8802 0
M  V30 28 H -7.5132 3.3953 1.211 0
M  V30 29 H -4.7528 -1.801 -1.3539 0
M  V30 30 H -4.6548 -1.4831 0.4111 0
M  V30 31 H -7.7364 2.4606 3.5006 0
M  V30 32 H -4.2836 0.9649 -0.058 0
M  V30 33 H -4.3652 0.6525 -1.8234 0
M  V30 34 H -2.0333 0.8747 -0.8255 0
M  V30 35 H -2.3207 -0.624 0.12 0
M  V30 36 H -2.5205 -0.4626 -2.9652 0
M  V30 37 H -2.5273 -1.9575 -1.9711 0
M  V30 38 H -0.3492 -1.4802 -3.1328 0
M  V30 39 H -0.1805 0.0391 -2.1911 0
M  V30 40 H -0.0378 -1.2403 -0.0622 0
M  V30 41 H -0.4703 -2.7632 -0.9093 0
M  V30 42 H 1.892 -2.8085 -0.5055 0
M  V30 43 H 1.6575 -2.5919 -2.2718 0
M  V30 44 H 2.2463 -0.3164 -0.2614 0
M  V30 45 H 2.1467 -0.1503 -2.0585 0
M  V30 46 H 4.2266 -1.8195 -0.4898 0
M  V30 47 H 4.0501 -1.8193 -2.2642 0
M  V30 48 H 4.5536 0.5692 -2.4263 0
M  V30 49 H 5.8664 -0.3117 -1.6171 0
M  V30 50 H 5.4427 1.882 -0.5448 0
M  V30 51 H 3.7283 1.4965 -0.2996 0
M  V30 52 H 4.7687 1.2194 1.8335 0
M  V30 53 H 4.4197 -0.4123 1.2659 0
M  V30 54 H 6.5832 -0.8927 1.7949 0
M  V30 55 H 7.0605 -0.0851 0.2848 0
M  V30 56 H 8.3567 0.6699 2.2839 0
M  V30 57 H 6.8557 1.2535 3.0711 0
M  V30 58 H 6.5489 2.9629 1.2977 0
M  V30 59 H 8.212 3.0769 1.9678 0
M  V30 60 H 7.953 2.2894 0.3666 0
M  V30 END ATOM
M  V30 BEGIN BOND
M  V30 1 2 1 2
M  V30 2 1 1 3
M  V30 3 1 1 4
M  V30 4 1 2 5
M  V30 5 2 3 6
M  V30 6 1 4 7
M  V30 7 2 5 8
M  V30 8 1 7 9
M  V30 9 1 9 10
M  V30 10 1 10 11
M  V30 11 1 11 12
M  V30 12 1 12 13
M  V30 13 1 13 14
M  V30 14 1 14 15
M  V30 15 1 15 16
M  V30 16 1 16 17
M  V30 17 1 17 18
M  V30 18 1 18 19
M  V30 19 1 19 20
M  V30 20 1 20 21
M  V30 21 1 21 22
M  V30 22 1 6 8
M  V30 23 1 2 23
M  V30 24 1 3 24
M  V30 25 1 4 25
M  V30 26 1 4 26
M  V30 27 1 5 27
M  V30 28 1 6 28
M  V30 29 1 7 29
M  V30 30 1 7 30
M  V30 31 1 8 31
M  V30 32 1 9 32
M  V30 33 1 9 33
M  V30 34 1 10 34
M  V30 35 1 10 35
M  V30 36 1 11 36
M  V30 37 1 11 37
M  V30 38 1 12 38
M  V30 39 1 12 39
M  V30 40 1 13 40
M  V30 41 1 13 41
M  V30 42 1 14 42
M  V30 43 1 14 43
M  V30 44 1 15 44
M  V30 45 1 15 45
M  V30 46 1 16 46
M  V30 47 1 16 47
M  V30 48 1 17 48
M  V30 49 1 17 49
M  V30 50 1 18 50
M  V30 51 1 18 51
M  V30 52 1 19 52
M  V30 53 1 19 53
M  V30 54 1 20 54
M  V30 55 1 20 55
M  V30 56 1 21 56
M  V30 57 1 21 57
M  V30 58 1 22 58
M  V30 59 1 22 59
M  V30 60 1 22 60
M  V30 END BOND
M  V30 END CTAB
M  END
>  <Structure No>
2319

>  <LogS>
-0.486149552

>  <MMFF94 Energy>
41.514

$$$$
Compound 2320
Actelion Java MolfileCreator 2.0

  0  0  0  0  0  0              0 V3000
M  V30 BEGIN CTAB
M  V30 COUNTS 30 29 0 0 0
M  V30 BEGIN ATOM
M  V30 1 O 1.0848 1.0073 -0.8523 0
M  V30 2 C 2.4852 1.1946 -0.8931 0
M  V30 3 C 0.672 0.634 0.4499 0
M  V30 4 C 3.1678 -0.0975 -1.2464 0
M  V30 5 C -0.8282 0.2252 0.449 0
M  V30 6 C 3.9461 -0.745 -0.3752 0
M  V30 7 C -1.2459 -0.0841 1.9168 0
M  V30 8 C -1.6577 1.4284 -0.0858 0
M  V30 9 C -0.9863 -1.0278 -0.4741 0
M  V30 10 O -0.4943 -1.1409 2.4559 0
M  V30 11 O -3.0314 1.2454 0.1273 0
M  V30 12 C -2.3994 -1.6114 -0.5773 0
M  V30 13 H 2.8943 1.6423 0.0441 0
M  V30 14 H 2.7086 1.9227 -1.7001 0
M  V30 15 H 0.8197 1.4918 1.146 0
M  V30 16 H 1.2811 -0.2208 0.826 0
M  V30 17 H 2.9904 -0.5331 -2.2251 0
M  V30 18 H 4.1261 -0.3489 0.6195 0
M  V30 19 H 4.408 -1.6857 -0.6563 0
M  V30 20 H -2.3345 -0.3021 1.9977 0
M  V30 21 H -1.0721 0.8157 2.546 0
M  V30 22 H -1.4678 1.5669 -1.1744 0
M  V30 23 H -1.341 2.3613 0.4344 0
M  V30 24 H -0.3105 -1.8364 -0.1195 0
M  V30 25 H -0.6556 -0.7744 -1.505 0
M  V30 26 H -0.9889 -1.9784 2.2595 0
M  V30 27 H -3.4805 2.0427 -0.2567 0
M  V30 28 H -3.085 -0.907 -1.0895 0
M  V30 29 H -2.8039 -1.8811 0.4184 0
M  V30 30 H -2.3628 -2.5388 -1.187 0
M  V30 END ATOM
M  V30 BEGIN BOND
M  V30 1 1 1 2
M  V30 2 1 1 3
M  V30 3 1 2 4
M  V30 4 1 3 5
M  V30 5 2 4 6
M  V30 6 1 5 7
M  V30 7 1 5 8
M  V30 8 1 5 9
M  V30 9 1 7 10
M  V30 10 1 8 11
M  V30 11 1 9 12
M  V30 12 1 2 13
M  V30 13 1 2 14
M  V30 14 1 3 15
M  V30 15 1 3 16
M  V30 16 1 4 17
M  V30 17 1 6 18
M  V30 18 1 6 19
M  V30 19 1 7 20
M  V30 20 1 7 21
M  V30 21 1 8 22
M  V30 22 1 8 23
M  V30 23 1 9 24
M  V30 24 1 9 25
M  V30 25 1 10 26
M  V30 26 1 11 27
M  V30 27 1 12 28
M  V30 28 1 12 29
M  V30 29 1 12 30
M  V30 END BOND
M  V30 END CTAB
M  END
>  <Structure No>
2320

>  <LogS>
-0.199755177

>  <MMFF94 Energy>
20.928

$$$$
Compound 2321
Actelion Java MolfileCreator 2.0

  0  0  0  0  0  0              0 V3000
M  V30 BEGIN CTAB
M  V30 COUNTS 17 16 0 0 0
M  V30 BEGIN ATOM
M  V30 1 S 1.9356 0.5642 1.3707 0
M  V30 2 C 0.5762 0.0755 0.2558 0
M  V30 3 C 3.2407 -0.2001 0.3573 0
M  V30 4 C -0.759 0.5778 0.8148 0
M  V30 5 C -1.9423 0.24 -0.1046 0 CFG=2
M  V30 6 O -3.0907 0.8903 0.3715 0
M  V30 7 C -2.185 -1.2121 -0.1334 0
M  V30 8 N -2.3756 -2.3534 -0.1565 0
M  V30 9 H 0.5584 -1.0319 0.1699 0
M  V30 10 H 0.7505 0.5173 -0.7489 0
M  V30 11 H 3.2598 0.261 -0.652 0
M  V30 12 H 4.2225 -0.0338 0.8463 0
M  V30 13 H 3.0646 -1.2923 0.2682 0
M  V30 14 H -0.7014 1.6832 0.9256 0
M  V30 15 H -0.9293 0.1436 1.8254 0
M  V30 16 H -1.7117 0.5893 -1.1376 0
M  V30 17 H -3.7449 0.9063 -0.3759 0
M  V30 END ATOM
M  V30 BEGIN BOND
M  V30 1 1 1 2
M  V30 2 1 1 3
M  V30 3 1 2 4
M  V30 4 1 4 5
M  V30 5 1 5 6
M  V30 6 1 5 7
M  V30 7 3 7 8
M  V30 8 1 2 9
M  V30 9 1 2 10
M  V30 10 1 3 11
M  V30 11 1 3 12
M  V30 12 1 3 13
M  V30 13 1 4 14
M  V30 14 1 4 15
M  V30 15 1 5 16
M  V30 16 1 6 17
M  V30 END BOND
M  V30 BEGIN COLLECTION
M  V30 MDLV30/STEABS ATOMS=(1 5)
M  V30 END COLLECTION
M  V30 END CTAB
M  END
>  <Structure No>
2321

>  <LogS>
-0.07654115

>  <MMFF94 Energy>
21.122

$$$$
Compound 2322
Actelion Java MolfileCreator 2.0

  0  0  0  0  0  0              0 V3000
M  V30 BEGIN CTAB
M  V30 COUNTS 14 13 0 0 0
M  V30 BEGIN ATOM
M  V30 1 O 3.218 -0.3061 -0.7654 0
M  V30 2 C 2.1216 0.2154 -0.4337 0
M  V30 3 C 0.9191 -0.6262 -0.3162 0
M  V30 4 C -0.2933 -0.156 0.0321 0
M  V30 5 C -1.4647 -1.0953 0.1258 0
M  V30 6 C -0.5271 1.2998 0.337 0
M  V30 7 H 2.0887 1.2791 -0.2412 0
M  V30 8 H 1.0386 -1.6828 -0.5264 0
M  V30 9 H -1.1866 -2.1431 -0.1176 0
M  V30 10 H -1.8741 -1.0742 1.1577 0
M  V30 11 H -2.2563 -0.7713 -0.5819 0
M  V30 12 H -0.2819 1.9183 -0.5519 0
M  V30 13 H -1.5899 1.4839 0.6027 0
M  V30 14 H 0.1021 1.6138 1.1964 0
M  V30 END ATOM
M  V30 BEGIN BOND
M  V30 1 2 1 2
M  V30 2 1 2 3
M  V30 3 2 3 4
M  V30 4 1 4 5
M  V30 5 1 4 6
M  V30 6 1 2 7
M  V30 7 1 3 8
M  V30 8 1 5 9
M  V30 9 1 5 10
M  V30 10 1 5 11
M  V30 11 1 6 12
M  V30 12 1 6 13
M  V30 13 1 6 14
M  V30 END BOND
M  V30 END CTAB
M  END
>  <Structure No>
2322

>  <LogS>
0.116503747

>  <MMFF94 Energy>
10.989

$$$$
Compound 2323
Actelion Java MolfileCreator 2.0

  0  0  0  0  0  0              0 V3000
M  V30 BEGIN CTAB
M  V30 COUNTS 23 22 0 0 0
M  V30 BEGIN ATOM
M  V30 1 O 1.2367 -0.6182 -1.7008 0
M  V30 2 C 1.3073 -0.0211 -0.4299 0 CFG=1
M  V30 3 C 1.3585 1.4407 -0.6086 0
M  V30 4 C 0.0839 -0.4182 0.4471 0
M  V30 5 C 2.6093 -0.4631 0.2619 0
M  V30 6 C 1.4006 2.637 -0.7557 0
M  V30 7 C -1.298 0.1051 -0.0324 0
M  V30 8 C -1.7261 -0.5019 -1.377 0
M  V30 9 C -2.3623 -0.1986 1.0316 0
M  V30 10 H 1.1978 -1.6026 -1.5737 0
M  V30 11 H 0.0413 -1.5267 0.5365 0
M  V30 12 H 0.2596 -0.0273 1.475 0
M  V30 13 H 2.6046 -1.561 0.433 0
M  V30 14 H 3.4881 -0.2153 -0.3723 0
M  V30 15 H 2.728 0.0433 1.2448 0
M  V30 16 H 1.4369 3.6867 -0.8847 0
M  V30 17 H -1.2576 1.2101 -0.1456 0
M  V30 18 H -2.7833 -0.2434 -1.6007 0
M  V30 19 H -1.6275 -1.6084 -1.3597 0
M  V30 20 H -1.1152 -0.0873 -2.204 0
M  V30 21 H -2.0866 0.2732 1.999 0
M  V30 22 H -3.3469 0.213 0.7225 0
M  V30 23 H -2.4631 -1.2951 1.1827 0
M  V30 END ATOM
M  V30 BEGIN BOND
M  V30 1 1 1 2
M  V30 2 1 2 3
M  V30 3 1 2 4
M  V30 4 1 2 5
M  V30 5 3 3 6
M  V30 6 1 4 7
M  V30 7 1 7 8
M  V30 8 1 7 9
M  V30 9 1 1 10
M  V30 10 1 4 11
M  V30 11 1 4 12
M  V30 12 1 5 13
M  V30 13 1 5 14
M  V30 14 1 5 15
M  V30 15 1 6 16
M  V30 16 1 7 17
M  V30 17 1 8 18
M  V30 18 1 8 19
M  V30 19 1 8 20
M  V30 20 1 9 21
M  V30 21 1 9 22
M  V30 22 1 9 23
M  V30 END BOND
M  V30 BEGIN COLLECTION
M  V30 MDLV30/STEABS ATOMS=(1 2)
M  V30 END COLLECTION
M  V30 END CTAB
M  END
>  <Structure No>
2323

>  <LogS>
-1.036597924

>  <MMFF94 Energy>
11.702

$$$$
Compound 2324
Actelion Java MolfileCreator 2.0

  0  0  0  0  0  0              0 V3000
M  V30 BEGIN CTAB
M  V30 COUNTS 18 18 0 0 0
M  V30 BEGIN ATOM
M  V30 1 O 2.9246 -1.501 0.1579 0
M  V30 2 C 2.3283 -0.4933 -0.1876 0
M  V30 3 C 0.8963 -0.2806 0.2265 0 CFG=2
M  V30 4 C -0.0111 -1.3529 -0.4041 0
M  V30 5 C 0.4098 1.1177 -0.185 0
M  V30 6 C -1.4772 -1.05 -0.2152 0
M  V30 7 C -1.0204 1.3531 0.3153 0
M  V30 8 C -1.9356 0.191 0.0194 0
M  V30 9 H 2.8483 0.2487 -0.7859 0
M  V30 10 H 0.8414 -0.3642 1.3354 0
M  V30 11 H 0.1869 -1.4236 -1.4961 0
M  V30 12 H 0.2112 -2.3419 0.0511 0
M  V30 13 H 0.4347 1.2183 -1.2931 0
M  V30 14 H 1.0758 1.8958 0.2483 0
M  V30 15 H -2.193 -1.8488 -0.3836 0
M  V30 16 H -1.004 1.5156 1.4145 0
M  V30 17 H -1.4288 2.2698 -0.1607 0
M  V30 18 H -3.0067 0.3451 0.1074 0
M  V30 END ATOM
M  V30 BEGIN BOND
M  V30 1 2 1 2
M  V30 2 1 2 3
M  V30 3 1 3 4
M  V30 4 1 3 5
M  V30 5 1 4 6
M  V30 6 1 5 7
M  V30 7 2 6 8
M  V30 8 1 7 8
M  V30 9 1 2 9
M  V30 10 1 3 10
M  V30 11 1 4 11
M  V30 12 1 4 12
M  V30 13 1 5 13
M  V30 14 1 5 14
M  V30 15 1 6 15
M  V30 16 1 7 16
M  V30 17 1 7 17
M  V30 18 1 8 18
M  V30 END BOND
M  V30 BEGIN COLLECTION
M  V30 MDLV30/STEABS ATOMS=(1 3)
M  V30 END COLLECTION
M  V30 END CTAB
M  END
>  <Structure No>
2324

>  <LogS>
-0.977550168

>  <MMFF94 Energy>
5.8058

$$$$
Compound 2325
Actelion Java MolfileCreator 2.0

  0  0  0  0  0  0              0 V3000
M  V30 BEGIN CTAB
M  V30 COUNTS 11 11 0 0 0
M  V30 BEGIN ATOM
M  V30 1 O -2.0905 -1.7686 0.0 0
M  V30 2 C -1.0867 -1.0084 -0.0048 0
M  V30 3 N -1.2518 0.3434 -0.01 0
M  V30 4 N 0.1631 -1.5417 -0.0048 0 CHG=-1
M  V30 5 C -0.1735 1.1749 -0.0152 0
M  V30 6 C 1.2632 -0.7454 -0.0099 0
M  V30 7 O -0.3387 2.424 -0.0201 0
M  V30 8 C 1.117 0.6422 -0.0153 0 CHG=-1
M  V30 9 O 2.4113 -1.2616 -0.0098 0
M  V30 10 H -2.2167 0.747 -0.0099 0
M  V30 11 H 1.985 1.2914 -0.0194 0
M  V30 END ATOM
M  V30 BEGIN BOND
M  V30 1 2 1 2
M  V30 2 1 2 3
M  V30 3 1 2 4
M  V30 4 1 3 5
M  V30 5 1 4 6
M  V30 6 2 5 7
M  V30 7 1 5 8
M  V30 8 2 6 9
M  V30 9 1 6 8
M  V30 10 1 3 10
M  V30 11 1 8 11
M  V30 END BOND
M  V30 END CTAB
M  END
>  <Structure No>
2325

>  <LogS>
-1.048661639

>  <MMFF94 Energy>
-95.046

$$$$
Compound 2326
Actelion Java MolfileCreator 2.0

  0  0  0  0  0  0              0 V3000
M  V30 BEGIN CTAB
M  V30 COUNTS 21 20 0 0 0
M  V30 BEGIN ATOM
M  V30 1 Cl 4.7306 0.2361 -0.0787 0
M  V30 2 C 3.1315 -0.4947 0.2084 0
M  V30 3 C 2.0281 0.4836 -0.1911 0
M  V30 4 C 0.6401 -0.1222 0.048 0
M  V30 5 C -0.4663 0.8598 -0.3646 0
M  V30 6 C -1.8731 0.3449 -0.0216 0
M  V30 7 C -2.3105 -0.8236 -0.9129 0
M  V30 8 O -3.6378 -1.175 -0.6301 0
M  V30 9 H 3.0457 -0.7494 1.2863 0
M  V30 10 H 3.0538 -1.4261 -0.3918 0
M  V30 11 H 2.1349 1.4152 0.4069 0
M  V30 12 H 2.1405 0.7391 -1.2677 0
M  V30 13 H 0.5302 -0.372 1.1262 0
M  V30 14 H 0.5503 -1.0574 -0.5445 0
M  V30 15 H -0.3982 1.0717 -1.4542 0
M  V30 16 H -0.3131 1.8201 0.175 0
M  V30 17 H -1.9168 0.0388 1.0463 0
M  V30 18 H -2.5906 1.1829 -0.1597 0
M  V30 19 H -2.2049 -0.5538 -1.9886 0
M  V30 20 H -1.6711 -1.7083 -0.7153 0
M  V30 21 H -4.2124 -0.4965 -1.072 0
M  V30 END ATOM
M  V30 BEGIN BOND
M  V30 1 1 1 2
M  V30 2 1 2 3
M  V30 3 1 3 4
M  V30 4 1 4 5
M  V30 5 1 5 6
M  V30 6 1 6 7
M  V30 7 1 7 8
M  V30 8 1 2 9
M  V30 9 1 2 10
M  V30 10 1 3 11
M  V30 11 1 3 12
M  V30 12 1 4 13
M  V30 13 1 4 14
M  V30 14 1 5 15
M  V30 15 1 5 16
M  V30 16 1 6 17
M  V30 17 1 6 18
M  V30 18 1 7 19
M  V30 19 1 7 20
M  V30 20 1 8 21
M  V30 END BOND
M  V30 END CTAB
M  END
>  <Structure No>
2326

>  <LogS>
-1.082442195

>  <MMFF94 Energy>
1.018

$$$$
Compound 2327
Actelion Java MolfileCreator 2.0

  0  0  0  0  0  0              0 V3000
M  V30 BEGIN CTAB
M  V30 COUNTS 22 21 0 0 0
M  V30 BEGIN ATOM
M  V30 1 N -3.837 -0.2345 2.1128 0
M  V30 2 C -3.266 -0.8357 1.3053 0
M  V30 3 C -2.541 -1.5985 0.2806 0
M  V30 4 C -1.688 -0.6812 -0.6042 0
M  V30 5 C -0.4995 -0.077 0.1597 0
M  V30 6 C 0.3666 0.7876 -0.7683 0
M  V30 7 C 1.4787 1.5414 -0.015 0
M  V30 8 C 2.5834 0.6347 0.5483 0
M  V30 9 C 3.318 -0.0546 -0.5204 0
M  V30 10 N 3.8966 -0.5982 -1.3624 0
M  V30 11 H -1.9032 -2.3632 0.7731 0
M  V30 12 H -3.2848 -2.1254 -0.3536 0
M  V30 13 H -2.3236 0.1302 -1.0235 0
M  V30 14 H -1.3007 -1.2825 -1.4559 0
M  V30 15 H -0.8769 0.5481 0.9982 0
M  V30 16 H 0.1126 -0.9032 0.5793 0
M  V30 17 H -0.2824 1.5456 -1.2597 0
M  V30 18 H 0.8061 0.1573 -1.5714 0
M  V30 19 H 1.9395 2.2802 -0.7075 0
M  V30 20 H 1.0279 2.1204 0.8205 0
M  V30 21 H 2.1642 -0.1129 1.252 0
M  V30 22 H 3.3042 1.2602 1.116 0
M  V30 END ATOM
M  V30 BEGIN BOND
M  V30 1 3 1 2
M  V30 2 1 2 3
M  V30 3 1 3 4
M  V30 4 1 4 5
M  V30 5 1 5 6
M  V30 6 1 6 7
M  V30 7 1 7 8
M  V30 8 1 8 9
M  V30 9 3 9 10
M  V30 10 1 3 11
M  V30 11 1 3 12
M  V30 12 1 4 13
M  V30 13 1 4 14
M  V30 14 1 5 15
M  V30 15 1 5 16
M  V30 16 1 6 17
M  V30 17 1 6 18
M  V30 18 1 7 19
M  V30 19 1 7 20
M  V30 20 1 8 21
M  V30 21 1 8 22
M  V30 END BOND
M  V30 END CTAB
M  END
>  <Structure No>
2327

>  <LogS>
-1.081092287

>  <MMFF94 Energy>
1.7243

$$$$
Compound 2328
Actelion Java MolfileCreator 2.0

  0  0  0  0  0  0              0 V3000
M  V30 BEGIN CTAB
M  V30 COUNTS 33 34 0 0 0
M  V30 BEGIN ATOM
M  V30 1 O -2.0985 -0.0806 -2.8257 0
M  V30 2 C -1.3215 -0.202 -1.8416 0
M  V30 3 N 0.0586 0.091 -1.894 0
M  V30 4 C -1.7114 -0.6544 -0.4695 0 CFG=1
M  V30 5 C 0.5062 -0.1711 -0.5697 0
M  V30 6 N -0.4325 -0.5548 0.2409 0
M  V30 7 C -2.7849 0.2842 0.1716 0
M  V30 8 C -2.1589 -2.125 -0.5271 0
M  V30 9 C 1.8785 0.0989 -0.1031 0
M  V30 10 C -3.1606 -0.1497 1.5996 0
M  V30 11 C -2.3391 1.7598 0.1926 0
M  V30 12 N 2.0254 0.6641 1.1278 0
M  V30 13 C 3.0278 -0.1492 -0.8968 0
M  V30 14 C 3.2351 1.0328 1.6209 0
M  V30 15 C 2.9772 -0.8928 -2.1769 0
M  V30 16 C 4.2784 0.2603 -0.4026 0
M  V30 17 C 4.3832 0.8515 0.8552 0
M  V30 18 O 3.8345 -0.6717 -3.0728 0
M  V30 19 O 2.0245 -1.8833 -2.3851 0 CHG=-1
M  V30 20 H 0.585 0.5322 -2.6803 0
M  V30 21 H -3.7091 0.2282 -0.4461 0
M  V30 22 H -1.4298 -2.7333 -1.1057 0
M  V30 23 H -2.2141 -2.5607 0.4921 0
M  V30 24 H -3.1543 -2.2097 -1.0135 0
M  V30 25 H -3.6672 -1.1365 1.5906 0
M  V30 26 H -3.8729 0.5745 2.0495 0
M  V30 27 H -2.2586 -0.2062 2.2454 0
M  V30 28 H -3.1416 2.3972 0.6217 0
M  V30 29 H -2.1401 2.1285 -0.835 0
M  V30 30 H -1.4217 1.8875 0.8059 0
M  V30 31 H 3.3024 1.4794 2.6039 0
M  V30 32 H 5.1817 0.0902 -0.9757 0
M  V30 33 H 5.3494 1.1512 1.24 0
M  V30 END ATOM
M  V30 BEGIN BOND
M  V30 1 2 1 2
M  V30 2 1 2 3
M  V30 3 1 2 4
M  V30 4 1 3 5
M  V30 5 1 4 6
M  V30 6 1 4 7
M  V30 7 1 4 8
M  V30 8 1 5 9
M  V30 9 1 7 10
M  V30 10 1 7 11
M  V30 11 2 9 12
M  V30 12 1 9 13
M  V30 13 1 12 14
M  V30 14 1 13 15
M  V30 15 2 13 16
M  V30 16 2 14 17
M  V30 17 2 15 18
M  V30 18 1 15 19
M  V30 19 2 5 6
M  V30 20 1 16 17
M  V30 21 1 3 20
M  V30 22 1 7 21
M  V30 23 1 8 22
M  V30 24 1 8 23
M  V30 25 1 8 24
M  V30 26 1 10 25
M  V30 27 1 10 26
M  V30 28 1 10 27
M  V30 29 1 11 28
M  V30 30 1 11 29
M  V30 31 1 11 30
M  V30 32 1 14 31
M  V30 33 1 16 32
M  V30 34 1 17 33
M  V30 END BOND
M  V30 BEGIN COLLECTION
M  V30 MDLV30/STEABS ATOMS=(1 4)
M  V30 END COLLECTION
M  V30 END CTAB
M  END
>  <Structure No>
2328

>  <LogS>
-1.364029386

>  <MMFF94 Energy>
37.852

$$$$
Compound 2329
Actelion Java MolfileCreator 2.0

  0  0  0  0  0  0              0 V3000
M  V30 BEGIN CTAB
M  V30 COUNTS 13 12 0 0 0
M  V30 BEGIN ATOM
M  V30 1 N -1.8374 2.2205 -0.7652 0
M  V30 2 C -1.7678 1.0816 -0.572 0
M  V30 3 C -1.6817 -0.3367 -0.3314 0
M  V30 4 C -0.5855 -0.9241 0.1625 0
M  V30 5 C 0.6781 -0.1849 0.5148 0
M  V30 6 C 1.4863 0.1606 -0.733 0
M  V30 7 H -2.551 -0.9442 -0.5475 0
M  V30 8 H -0.6145 -1.9913 0.3462 0
M  V30 9 H 1.3003 -0.8346 1.1671 0
M  V30 10 H 0.4421 0.7383 1.0871 0
M  V30 11 H 2.4304 0.6634 -0.4351 0
M  V30 12 H 0.9165 0.8464 -1.3943 0
M  V30 13 H 1.7384 -0.7635 -1.2956 0
M  V30 END ATOM
M  V30 BEGIN BOND
M  V30 1 3 1 2
M  V30 2 1 2 3
M  V30 3 2 3 4
M  V30 4 1 4 5
M  V30 5 1 5 6
M  V30 6 1 3 7
M  V30 7 1 4 8
M  V30 8 1 5 9
M  V30 9 1 5 10
M  V30 10 1 6 11
M  V30 11 1 6 12
M  V30 12 1 6 13
M  V30 END BOND
M  V30 END CTAB
M  END
>  <Structure No>
2329

>  <LogS>
-0.859899212

>  <MMFF94 Energy>
6.86

$$$$
Compound 2330
Actelion Java MolfileCreator 2.0

  0  0  0  0  0  0              0 V3000
M  V30 BEGIN CTAB
M  V30 COUNTS 22 23 0 0 0
M  V30 BEGIN ATOM
M  V30 1 N -1.4971 -1.0242 -0.2362 0 CHG=1
M  V30 2 C -0.8018 -0.0207 0.1811 0
M  V30 3 C -2.9179 -0.7912 -0.0164 0
M  V30 4 N -1.6011 1.0126 0.7289 0
M  V30 5 C 0.6764 0.0543 0.0862 0
M  V30 6 C -2.9869 0.5889 0.6554 0
M  V30 7 C 1.3185 1.3047 0.0252 0
M  V30 8 C 1.4608 -1.1148 0.0646 0
M  V30 9 C 2.712 1.3823 -0.0615 0
M  V30 10 C 2.854 -1.0311 -0.0209 0
M  V30 11 C 3.479 0.2159 -0.0848 0
M  V30 12 H -1.113 -1.8757 -0.7019 0
M  V30 13 H -3.4551 -0.7864 -0.9891 0
M  V30 14 H -3.3333 -1.58 0.6471 0
M  V30 15 H -1.2622 1.8889 1.1836 0
M  V30 16 H -3.4144 0.5131 1.6782 0
M  V30 17 H -3.5722 1.3071 0.0422 0
M  V30 18 H 0.7464 2.2231 0.0251 0
M  V30 19 H 1.0047 -2.0932 0.1352 0
M  V30 20 H 3.1972 2.3484 -0.1135 0
M  V30 21 H 3.4498 -1.9345 -0.0329 0
M  V30 22 H 4.5574 0.2783 -0.1513 0
M  V30 END ATOM
M  V30 BEGIN BOND
M  V30 1 2 1 2
M  V30 2 1 1 3
M  V30 3 1 2 4
M  V30 4 1 2 5
M  V30 5 1 3 6
M  V30 6 2 5 7
M  V30 7 1 5 8
M  V30 8 1 7 9
M  V30 9 2 8 10
M  V30 10 2 9 11
M  V30 11 1 4 6
M  V30 12 1 10 11
M  V30 13 1 1 12
M  V30 14 1 3 13
M  V30 15 1 3 14
M  V30 16 1 4 15
M  V30 17 1 6 16
M  V30 18 1 6 17
M  V30 19 1 7 18
M  V30 20 1 8 19
M  V30 21 1 9 20
M  V30 22 1 10 21
M  V30 23 1 11 22
M  V30 END BOND
M  V30 END CTAB
M  END
>  <Structure No>
2330

>  <LogS>
-1.126518075

>  <MMFF94 Energy>
31.147

$$$$
Compound 2331
Actelion Java MolfileCreator 2.0

  0  0  0  0  0  0              0 V3000
M  V30 BEGIN CTAB
M  V30 COUNTS 34 36 0 0 0
M  V30 BEGIN ATOM
M  V30 1 O 3.6253 0.5632 1.3684 0
M  V30 2 C 3.4551 -0.6625 0.709 0
M  V30 3 C 1.9784 -0.9464 0.3639 0 CFG=2
M  V30 4 C 1.3131 0.1229 -0.5423 0 CFG=1
M  V30 5 C 1.0342 -0.9769 1.5874 0
M  V30 6 C 0.0651 -0.5368 -1.1877 0 CFG=1
M  V30 7 C 0.6845 1.0631 0.4693 0
M  V30 8 C -0.101 -0.019 1.1668 0 CFG=1
M  V30 9 C -0.8997 -0.6824 0.0021 0 CFG=1
M  V30 10 C -0.6258 0.3376 -2.2458 0
M  V30 11 C -2.227 -0.0203 -0.4336 0 CFG=2
M  V30 12 C -1.9072 0.8816 -1.6247 0
M  V30 13 C -3.0043 0.7204 0.6698 0
M  V30 14 O -3.2976 -0.1427 1.7354 0
M  V30 15 H 3.7896 1.2466 0.6672 0
M  V30 16 H 3.826 -1.4708 1.3742 0
M  V30 17 H 4.0686 -0.7003 -0.2208 0
M  V30 18 H 1.9618 -1.9421 -0.1343 0
M  V30 19 H 2.0034 0.6063 -1.267 0
M  V30 20 H 1.5318 -0.5944 2.5062 0
M  V30 21 H 0.657 -2.0028 1.7908 0
M  V30 22 H 0.311 -1.5262 -1.6354 0
M  V30 23 H 0.0517 1.851 0.0159 0
M  V30 24 H 1.4104 1.5662 1.1421 0
M  V30 25 H -0.7007 0.3271 2.0332 0
M  V30 26 H -1.0917 -1.7556 0.2302 0
M  V30 27 H 0.0252 1.167 -2.5986 0
M  V30 28 H -0.8876 -0.2914 -3.125 0
M  V30 29 H -2.8874 -0.8328 -0.8146 0
M  V30 30 H -2.7388 0.87 -2.3631 0
M  V30 31 H -1.7552 1.935 -1.306 0
M  V30 32 H -3.9485 1.1347 0.2481 0
M  V30 33 H -2.4155 1.5809 1.0513 0
M  V30 34 H -4.0247 -0.7424 1.4238 0
M  V30 END ATOM
M  V30 BEGIN BOND
M  V30 1 1 1 2
M  V30 2 1 2 3
M  V30 3 1 3 4
M  V30 4 1 3 5
M  V30 5 1 4 6
M  V30 6 1 4 7
M  V30 7 1 5 8
M  V30 8 1 6 9
M  V30 9 1 6 10
M  V30 10 1 9 11
M  V30 11 1 10 12
M  V30 12 1 11 13
M  V30 13 1 13 14
M  V30 14 1 7 8
M  V30 15 1 8 9
M  V30 16 1 11 12
M  V30 17 1 1 15
M  V30 18 1 2 16
M  V30 19 1 2 17
M  V30 20 1 3 18
M  V30 21 1 4 19
M  V30 22 1 5 20
M  V30 23 1 5 21
M  V30 24 1 6 22
M  V30 25 1 7 23
M  V30 26 1 7 24
M  V30 27 1 8 25
M  V30 28 1 9 26
M  V30 29 1 10 27
M  V30 30 1 10 28
M  V30 31 1 11 29
M  V30 32 1 12 30
M  V30 33 1 12 31
M  V30 34 1 13 32
M  V30 35 1 13 33
M  V30 36 1 14 34
M  V30 END BOND
M  V30 BEGIN COLLECTION
M  V30 MDLV30/STEABS ATOMS=(6 3 4 6 8 9 11)
M  V30 END COLLECTION
M  V30 END CTAB
M  END
>  <Structure No>
2331

>  <LogS>
-1.25150549

>  <MMFF94 Energy>
53.235

$$$$
Compound 2332
Actelion Java MolfileCreator 2.0

  0  0  0  0  0  0              0 V3000
M  V30 BEGIN CTAB
M  V30 COUNTS 18 18 0 0 0
M  V30 BEGIN ATOM
M  V30 1 O 2.877 -1.3578 0.6387 0
M  V30 2 C 2.4026 -0.192 0.6027 0
M  V30 3 O 2.6183 0.6697 1.6716 0 CHG=-1
M  V30 4 C 1.5628 0.243 -0.563 0 CFG=2
M  V30 5 O 1.7906 1.5995 -0.8466 0
M  V30 6 C 0.1032 0.0245 -0.246 0
M  V30 7 C -0.5761 -1.0888 -0.7721 0
M  V30 8 C -0.583 0.8987 0.6181 0
M  V30 9 C -1.9208 -1.3093 -0.4578 0
M  V30 10 C -1.9275 0.6734 0.9292 0
M  V30 11 C -2.5964 -0.4281 0.3901 0
M  V30 12 H 1.8428 -0.3627 -1.4571 0
M  V30 13 H 2.6911 1.6595 -1.2613 0
M  V30 14 H -0.066 -1.7869 -1.424 0
M  V30 15 H -0.0768 1.752 1.052 0
M  V30 16 H -2.4385 -2.166 -0.8696 0
M  V30 17 H -2.4501 1.3517 1.5913 0
M  V30 18 H -3.6368 -0.6015 0.633 0
M  V30 END ATOM
M  V30 BEGIN BOND
M  V30 1 2 1 2
M  V30 2 1 2 3
M  V30 3 1 2 4
M  V30 4 1 4 5
M  V30 5 1 4 6
M  V30 6 2 6 7
M  V30 7 1 6 8
M  V30 8 1 7 9
M  V30 9 2 8 10
M  V30 10 2 9 11
M  V30 11 1 10 11
M  V30 12 1 4 12
M  V30 13 1 5 13
M  V30 14 1 7 14
M  V30 15 1 8 15
M  V30 16 1 9 16
M  V30 17 1 10 17
M  V30 18 1 11 18
M  V30 END BOND
M  V30 BEGIN COLLECTION
M  V30 MDLV30/STEABS ATOMS=(1 4)
M  V30 END COLLECTION
M  V30 END CTAB
M  END
>  <Structure No>
2332

>  <LogS>
-0.141666762

>  <MMFF94 Energy>
97.524

$$$$
Compound 2333
Actelion Java MolfileCreator 2.0

  0  0  0  0  0  0              0 V3000
M  V30 BEGIN CTAB
M  V30 COUNTS 27 27 0 0 0
M  V30 BEGIN ATOM
M  V30 1 O 0.1579 1.0267 -0.7897 0
M  V30 2 C 1.336 0.2511 -0.6094 0 CFG=1
M  V30 3 C -0.9109 0.5562 0.0197 0 CFG=2
M  V30 4 O 1.7911 0.2999 0.7344 0
M  V30 5 C 1.0929 -1.2087 -1.0478 0 CFG=1
M  V30 6 C -1.3092 -0.8866 -0.3826 0 CFG=1
M  V30 7 C -2.1007 1.5126 -0.1472 0
M  V30 8 C 2.3367 1.5703 1.0154 0
M  V30 9 O 2.2577 -1.9839 -0.9028 0
M  V30 10 C -0.0892 -1.8225 -0.2783 0 CFG=1
M  V30 11 O -2.3676 -1.3642 0.4117 0
M  V30 12 O -1.7303 2.82 0.1991 0
M  V30 13 O -0.3957 -3.0784 -0.8264 0
M  V30 14 H 2.1169 0.6499 -1.2987 0
M  V30 15 H -0.6239 0.5764 1.0964 0
M  V30 16 H 0.8323 -1.1959 -2.1297 0
M  V30 17 H -1.6527 -0.876 -1.4412 0
M  V30 18 H -2.4342 1.5111 -1.207 0
M  V30 19 H -2.9599 1.1836 0.4806 0
M  V30 20 H 2.6364 1.5968 2.083 0
M  V30 21 H 3.2482 1.7573 0.4062 0
M  V30 22 H 1.5897 2.3795 0.8575 0
M  V30 23 H 2.4605 -2.0535 0.0663 0
M  V30 24 H 0.2007 -1.9359 0.7937 0
M  V30 25 H -2.0643 -1.3511 1.3573 0
M  V30 26 H -1.6794 2.848 1.1904 0
M  V30 27 H -0.9213 -3.57 -0.1425 0
M  V30 END ATOM
M  V30 BEGIN BOND
M  V30 1 1 1 2
M  V30 2 1 1 3
M  V30 3 1 2 4
M  V30 4 1 2 5
M  V30 5 1 3 6
M  V30 6 1 3 7
M  V30 7 1 4 8
M  V30 8 1 5 9
M  V30 9 1 5 10
M  V30 10 1 6 11
M  V30 11 1 7 12
M  V30 12 1 10 13
M  V30 13 1 6 10
M  V30 14 1 2 14
M  V30 15 1 3 15
M  V30 16 1 5 16
M  V30 17 1 6 17
M  V30 18 1 7 18
M  V30 19 1 7 19
M  V30 20 1 8 20
M  V30 21 1 8 21
M  V30 22 1 8 22
M  V30 23 1 9 23
M  V30 24 1 10 24
M  V30 25 1 11 25
M  V30 26 1 12 26
M  V30 27 1 13 27
M  V30 END BOND
M  V30 BEGIN COLLECTION
M  V30 MDLV30/STEABS ATOMS=(5 2 3 5 6 10)
M  V30 END COLLECTION
M  V30 END CTAB
M  END
>  <Structure No>
2333

>  <LogS>
0.745212549

>  <MMFF94 Energy>
105.43

$$$$
Compound 2334
Actelion Java MolfileCreator 2.0

  0  0  0  0  0  0              0 V3000
M  V30 BEGIN CTAB
M  V30 COUNTS 12 11 0 0 0
M  V30 BEGIN ATOM
M  V30 1 O -1.2917 -0.6837 -2.5848 0
M  V30 2 C -1.8109 -0.3104 -1.3384 0
M  V30 3 C -0.7188 0.0359 -0.4234 0
M  V30 4 C 0.1792 0.3203 0.3291 0
M  V30 5 C 1.269 0.6656 1.2424 0
M  V30 6 O 2.4116 -0.0619 0.8941 0
M  V30 7 H -0.9552 -1.613 -2.4872 0
M  V30 8 H -2.4202 -1.1328 -0.9015 0
M  V30 9 H -2.4628 0.5776 -1.4703 0
M  V30 10 H 1.4724 1.756 1.1653 0
M  V30 11 H 0.9607 0.418 2.2816 0
M  V30 12 H 3.1154 0.2074 1.5399 0
M  V30 END ATOM
M  V30 BEGIN BOND
M  V30 1 1 1 2
M  V30 2 1 2 3
M  V30 3 3 3 4
M  V30 4 1 4 5
M  V30 5 1 5 6
M  V30 6 1 1 7
M  V30 7 1 2 8
M  V30 8 1 2 9
M  V30 9 1 5 10
M  V30 10 1 5 11
M  V30 11 1 6 12
M  V30 END BOND
M  V30 END CTAB
M  END
>  <Structure No>
2334

>  <LogS>
0.777871543

>  <MMFF94 Energy>
-9.8939

$$$$
Compound 2335
Actelion Java MolfileCreator 2.0

  0  0  0  0  0  0              0 V3000
M  V30 BEGIN CTAB
M  V30 COUNTS 16 16 0 0 0
M  V30 BEGIN ATOM
M  V30 1 O -0.7821 1.5647 0.0781 0
M  V30 2 C 0.3575 1.1802 -0.6548 0
M  V30 3 C -1.5272 0.3998 0.3566 0
M  V30 4 C 0.565 -0.3185 -0.5037 0 CFG=2
M  V30 5 C -0.8345 -0.8087 -0.247 0
M  V30 6 C 1.5073 -0.6459 0.664 0
M  V30 7 H 1.2405 1.759 -0.3075 0
M  V30 8 H 0.1896 1.4269 -1.7263 0
M  V30 9 H -2.5538 0.5055 -0.0552 0
M  V30 10 H -1.6012 0.2789 1.4589 0
M  V30 11 H 0.9752 -0.7589 -1.4397 0
M  V30 12 H -1.3203 -1.0731 -1.2126 0
M  V30 13 H -0.8742 -1.6903 0.4305 0
M  V30 14 H 2.5196 -0.2367 0.4596 0
M  V30 15 H 1.5971 -1.7467 0.7818 0
M  V30 16 H 1.1294 -0.2113 1.6148 0
M  V30 END ATOM
M  V30 BEGIN BOND
M  V30 1 1 1 2
M  V30 2 1 1 3
M  V30 3 1 2 4
M  V30 4 1 3 5
M  V30 5 1 4 6
M  V30 6 1 4 5
M  V30 7 1 2 7
M  V30 8 1 2 8
M  V30 9 1 3 9
M  V30 10 1 3 10
M  V30 11 1 4 11
M  V30 12 1 5 12
M  V30 13 1 5 13
M  V30 14 1 6 14
M  V30 15 1 6 15
M  V30 16 1 6 16
M  V30 END BOND
M  V30 BEGIN COLLECTION
M  V30 MDLV30/STEABS ATOMS=(1 4)
M  V30 END COLLECTION
M  V30 END CTAB
M  END
>  <Structure No>
2335

>  <LogS>
0.090131249

>  <MMFF94 Energy>
9.7645

$$$$
Compound 2336
Actelion Java MolfileCreator 2.0

  0  0  0  0  0  0              0 V3000
M  V30 BEGIN CTAB
M  V30 COUNTS 4 3 0 0 0
M  V30 BEGIN ATOM
M  V30 1 O 1.249 -0.0832 0.0 0
M  V30 2 N 0.0061 0.015 0.02 0 CHG=1
M  V30 3 O -0.7723 -1.1172 0.0343 0 CHG=-1
M  V30 4 O -0.585 1.2554 0.0277 0 CHG=-1
M  V30 END ATOM
M  V30 BEGIN BOND
M  V30 1 2 1 2
M  V30 2 1 2 3
M  V30 3 1 2 4
M  V30 END BOND
M  V30 END CTAB
M  END
>  <Structure No>
2336

>  <LogS>
0.64563055

>  <MMFF94 Energy>
6.4146

$$$$
Compound 2337
Actelion Java MolfileCreator 2.0

  0  0  0  0  0  0              0 V3000
M  V30 BEGIN CTAB
M  V30 COUNTS 14 13 0 0 0
M  V30 BEGIN ATOM
M  V30 1 S 0.558 0.6378 -1.1961 0
M  V30 2 C 1.5518 -0.83 -0.9042 0
M  V30 3 C -0.7927 0.1162 -0.0844 0 CFG=1
M  V30 4 C 2.4934 -0.8383 0.0388 0
M  V30 5 O -0.3428 0.1613 1.2435 0
M  V30 6 C -1.9827 1.0551 -0.2603 0
M  V30 7 H 1.3881 -1.7123 -1.5146 0
M  V30 8 H -1.1055 -0.9186 -0.3566 0
M  V30 9 H 2.6713 0.0394 0.652 0
M  V30 10 H 3.0915 -1.7287 0.2025 0
M  V30 11 H -0.9734 -0.3892 1.7772 0
M  V30 12 H -1.6957 2.0955 0.0033 0
M  V30 13 H -2.818 0.7351 0.3981 0
M  V30 14 H -2.3348 1.0306 -1.3135 0
M  V30 END ATOM
M  V30 BEGIN BOND
M  V30 1 1 1 2
M  V30 2 1 1 3
M  V30 3 2 2 4
M  V30 4 1 3 5
M  V30 5 1 3 6
M  V30 6 1 2 7
M  V30 7 1 3 8
M  V30 8 1 4 9
M  V30 9 1 4 10
M  V30 10 1 5 11
M  V30 11 1 6 12
M  V30 12 1 6 13
M  V30 13 1 6 14
M  V30 END BOND
M  V30 BEGIN COLLECTION
M  V30 MDLV30/STEABS ATOMS=(1 3)
M  V30 END COLLECTION
M  V30 END CTAB
M  END
>  <Structure No>
2337

>  <LogS>
0.005493119

>  <MMFF94 Energy>
-6.5194

$$$$
Compound 2338
Actelion Java MolfileCreator 2.0

  0  0  0  0  0  0              0 V3000
M  V30 BEGIN CTAB
M  V30 COUNTS 67 71 0 0 0
M  V30 BEGIN ATOM
M  V30 1 S -7.9962 -1.3294 -2.2442 0
M  V30 2 O -8.1658 -2.0161 -3.5708 0
M  V30 3 O -8.5718 0.0558 -2.3243 0
M  V30 4 O -8.8226 -2.2146 -1.0802 0 CHG=-1
M  V30 5 C -6.284 -1.2315 -1.8103 0
M  V30 6 C -5.8901 -1.0216 -0.3968 0
M  V30 7 C -5.3542 -1.3263 -2.7702 0
M  V30 8 N -6.8243 -0.7162 0.4631 0
M  V30 9 C -4.4394 -1.0608 -0.0598 0
M  V30 10 C -3.9065 -1.2081 -2.4836 0
M  V30 11 N -6.6454 -0.5047 1.8422 0
M  V30 12 O -4.0595 -1.1536 1.137 0
M  V30 13 C -3.4392 -1.0414 -1.1644 0
M  V30 14 C -3.0026 -1.2434 -3.5487 0
M  V30 15 C -7.5101 0.3853 2.564 0
M  V30 16 C -2.0472 -0.8752 -0.9327 0
M  V30 17 C -1.6305 -1.1106 -3.3289 0
M  V30 18 C -8.4228 1.2177 1.8878 0
M  V30 19 C -7.4207 0.4626 3.9636 0
M  V30 20 N -1.577 -0.5437 0.3806 0
M  V30 21 C -1.1376 -0.9296 -2.0231 0
M  V30 22 S -0.5254 -1.1373 -4.7083 0
M  V30 23 C -9.2307 2.1082 2.6045 0
M  V30 24 C -8.2311 1.3541 4.6761 0
M  V30 25 N 0.2756 -0.7109 -1.8631 0
M  V30 26 O 0.0365 0.2386 -4.9249 0
M  V30 27 O -1.2451 -1.5759 -5.9529 0
M  V30 28 O 0.7257 -2.2163 -4.4035 0 CHG=-1
M  V30 29 C -9.1302 2.1822 3.9956 0
M  V30 30 N 0.8972 -0.8982 -0.7706 0
M  V30 31 C 2.298 -0.6374 -0.6366 0
M  V30 32 C 2.9223 -0.9067 0.5877 0
M  V30 33 C 3.0508 -0.0903 -1.6918 0
M  V30 34 C 4.2808 -0.626 0.7657 0
M  V30 35 C 4.4078 0.1948 -1.5125 0
M  V30 36 C 5.0299 -0.0632 -0.2848 0
M  V30 37 N 6.4098 0.2843 -0.1236 0
M  V30 38 N 7.046 0.0575 0.954 0
M  V30 39 C 8.422 0.4228 1.1422 0
M  V30 40 C 9.3103 0.7082 0.0707 0
M  V30 41 C 8.8764 0.5612 2.4602 0
M  V30 42 N 8.9556 0.4715 -1.2971 0
M  V30 43 C 10.5978 1.1915 0.3536 0
M  V30 44 C 10.1671 1.0207 2.7279 0
M  V30 45 C 11.0289 1.3498 1.6767 0
M  V30 46 N 12.3456 1.8359 1.9509 0
M  V30 47 H -5.6653 -1.4631 -3.7989 0
M  V30 48 H -6.0093 -1.125 2.3895 0
M  V30 49 H -3.3746 -1.3647 -4.5579 0
M  V30 50 H -8.5049 1.1904 0.8091 0
M  V30 51 H -6.7242 -0.1679 4.5042 0
M  V30 52 H -2.0083 0.2451 0.9128 0
M  V30 53 H -0.8992 -1.1631 0.8808 0
M  V30 54 H -9.9259 2.7525 2.0781 0
M  V30 55 H -8.1566 1.407 5.7553 0
M  V30 56 H -9.7506 2.878 4.5471 0
M  V30 57 H 2.3506 -1.3265 1.4069 0
M  V30 58 H 2.5893 0.1271 -2.6474 0
M  V30 59 H 4.7389 -0.8312 1.7243 0
M  V30 60 H 4.9752 0.6292 -2.328 0
M  V30 61 H 8.2119 0.3409 3.286 0
M  V30 62 H 9.4946 0.9283 -2.068 0
M  V30 63 H 8.2863 -0.2814 -1.5628 0
M  V30 64 H 11.2761 1.4216 -0.4597 0
M  V30 65 H 10.4905 1.1331 3.7557 0
M  V30 66 H 13.0034 2.0679 1.1731 0
M  V30 67 H 12.673 1.9639 2.9354 0
M  V30 END ATOM
M  V30 BEGIN BOND
M  V30 1 2 1 2
M  V30 2 2 1 3
M  V30 3 1 1 4
M  V30 4 1 1 5
M  V30 5 1 5 6
M  V30 6 2 5 7
M  V30 7 2 6 8
M  V30 8 1 6 9
M  V30 9 1 7 10
M  V30 10 1 8 11
M  V30 11 2 9 12
M  V30 12 1 9 13
M  V30 13 1 10 14
M  V30 14 1 11 15
M  V30 15 1 13 16
M  V30 16 2 14 17
M  V30 17 2 15 18
M  V30 18 1 15 19
M  V30 19 1 16 20
M  V30 20 2 16 21
M  V30 21 1 17 22
M  V30 22 1 18 23
M  V30 23 2 19 24
M  V30 24 1 21 25
M  V30 25 2 22 26
M  V30 26 2 22 27
M  V30 27 1 22 28
M  V30 28 2 23 29
M  V30 29 2 25 30
M  V30 30 1 30 31
M  V30 31 2 31 32
M  V30 32 1 31 33
M  V30 33 1 32 34
M  V30 34 2 33 35
M  V30 35 2 34 36
M  V30 36 1 36 37
M  V30 37 2 37 38
M  V30 38 1 38 39
M  V30 39 2 39 40
M  V30 40 1 39 41
M  V30 41 1 40 42
M  V30 42 1 40 43
M  V30 43 2 41 44
M  V30 44 2 43 45
M  V30 45 1 45 46
M  V30 46 2 10 13
M  V30 47 1 17 21
M  V30 48 1 24 29
M  V30 49 1 35 36
M  V30 50 1 44 45
M  V30 51 1 7 47
M  V30 52 1 11 48
M  V30 53 1 14 49
M  V30 54 1 18 50
M  V30 55 1 19 51
M  V30 56 1 20 52
M  V30 57 1 20 53
M  V30 58 1 23 54
M  V30 59 1 24 55
M  V30 60 1 29 56
M  V30 61 1 32 57
M  V30 62 1 33 58
M  V30 63 1 34 59
M  V30 64 1 35 60
M  V30 65 1 41 61
M  V30 66 1 42 62
M  V30 67 1 42 63
M  V30 68 1 43 64
M  V30 69 1 44 65
M  V30 70 1 46 66
M  V30 71 1 46 67
M  V30 END BOND
M  V30 END CTAB
M  END
>  <Structure No>
2338

>  <LogS>
-0.827397585

>  <MMFF94 Energy>
210.83

$$$$
Compound 2339
Actelion Java MolfileCreator 2.0

  0  0  0  0  0  0              0 V3000
M  V30 BEGIN CTAB
M  V30 COUNTS 32 31 0 0 0
M  V30 BEGIN ATOM
M  V30 1 O -3.7475 1.5466 -2.9319 0
M  V30 2 C -2.6106 1.6247 -2.3964 0
M  V30 3 O -2.0009 2.8645 -2.252 0 CHG=-1
M  V30 4 C -1.9178 0.3905 -1.9103 0
M  V30 5 N -1.7371 0.4525 -0.4434 0
M  V30 6 C -2.9859 0.0689 0.2513 0
M  V30 7 C -0.6064 -0.4038 -0.0156 0
M  V30 8 C -2.9918 0.6134 1.646 0
M  V30 9 C 0.7046 0.3898 -0.0649 0
M  V30 10 O -3.0005 1.8578 1.8383 0
M  V30 11 O -2.9787 -0.2512 2.733 0 CHG=-1
M  V30 12 N 1.8221 -0.4394 0.443 0
M  V30 13 C 2.4252 -1.2345 -0.6489 0
M  V30 14 C 2.8469 0.3982 1.1043 0
M  V30 15 C 3.1094 -2.4421 -0.0895 0
M  V30 16 C 2.3966 0.7784 2.4805 0
M  V30 17 O 4.3505 -2.5948 -0.2365 0
M  V30 18 O 2.3743 -3.3995 0.5979 0 CHG=-1
M  V30 19 O 2.2367 -0.108 3.3603 0
M  V30 20 O 2.1437 2.1088 2.7898 0 CHG=-1
M  V30 21 H -0.9385 0.3445 -2.434 0
M  V30 22 H -2.4868 -0.5209 -2.206 0
M  V30 23 H -3.1089 -1.0378 0.269 0
M  V30 24 H -3.8757 0.4906 -0.2659 0
M  V30 25 H -0.5411 -1.3228 -0.6401 0
M  V30 26 H -0.7368 -0.7448 1.0362 0
M  V30 27 H 0.9125 0.7548 -1.0955 0
M  V30 28 H 0.5568 1.2946 0.5672 0
M  V30 29 H 3.1387 -0.6198 -1.2448 0
M  V30 30 H 1.6484 -1.6028 -1.3535 0
M  V30 31 H 3.804 -0.1573 1.217 0
M  V30 32 H 3.0646 1.3107 0.504 0
M  V30 END ATOM
M  V30 BEGIN BOND
M  V30 1 2 1 2
M  V30 2 1 2 3
M  V30 3 1 2 4
M  V30 4 1 4 5
M  V30 5 1 5 6
M  V30 6 1 5 7
M  V30 7 1 6 8
M  V30 8 1 7 9
M  V30 9 2 8 10
M  V30 10 1 8 11
M  V30 11 1 9 12
M  V30 12 1 12 13
M  V30 13 1 12 14
M  V30 14 1 13 15
M  V30 15 1 14 16
M  V30 16 2 15 17
M  V30 17 1 15 18
M  V30 18 2 16 19
M  V30 19 1 16 20
M  V30 20 1 4 21
M  V30 21 1 4 22
M  V30 22 1 6 23
M  V30 23 1 6 24
M  V30 24 1 7 25
M  V30 25 1 7 26
M  V30 26 1 9 27
M  V30 27 1 9 28
M  V30 28 1 13 29
M  V30 29 1 13 30
M  V30 30 1 14 31
M  V30 31 1 14 32
M  V30 END BOND
M  V30 END CTAB
M  END
>  <Structure No>
2339

>  <LogS>
-0.505418744

>  <MMFF94 Energy>
602.88

$$$$
Compound 2340
Actelion Java MolfileCreator 2.0

  0  0  0  0  0  0              0 V3000
M  V30 BEGIN CTAB
M  V30 COUNTS 7 6 0 0 0
M  V30 BEGIN ATOM
M  V30 1 O 1.4671 1.0808 0.1543 0
M  V30 2 N 0.8346 0.0162 0.0018 0 CHG=1
M  V30 3 O 1.4959 -1.1834 0.1199 0 CHG=-1
M  V30 4 C -0.6196 0.0358 -0.0103 0
M  V30 5 H -1.0047 -0.8651 -0.5326 0
M  V30 6 H -1.0003 0.0445 1.0323 0
M  V30 7 H -0.9845 0.9402 -0.5425 0
M  V30 END ATOM
M  V30 BEGIN BOND
M  V30 1 2 1 2
M  V30 2 1 2 3
M  V30 3 1 2 4
M  V30 4 1 4 5
M  V30 5 1 4 6
M  V30 6 1 4 7
M  V30 END BOND
M  V30 END CTAB
M  END
>  <Structure No>
2340

>  <LogS>
0.233501766

>  <MMFF94 Energy>
2.7855

$$$$
Compound 2341
Actelion Java MolfileCreator 2.0

  0  0  0  0  0  0              0 V3000
M  V30 BEGIN CTAB
M  V30 COUNTS 4 3 0 0 0
M  V30 BEGIN ATOM
M  V30 1 O 1.249 -0.0832 0.0 0
M  V30 2 N 0.0029 -0.0395 0.0049 0 CHG=1
M  V30 3 O -0.7254 -1.2047 0.0078 0 CHG=-1
M  V30 4 O -0.6419 1.1739 0.0074 0 CHG=-1
M  V30 END ATOM
M  V30 BEGIN BOND
M  V30 1 2 1 2
M  V30 2 1 2 3
M  V30 3 1 2 4
M  V30 END BOND
M  V30 END CTAB
M  END
>  <Structure No>
2341

>  <LogS>
0.486017387

>  <MMFF94 Energy>
6.4146

$$$$
Compound 2342
Actelion Java MolfileCreator 2.0

  0  0  0  0  0  0              0 V3000
M  V30 BEGIN CTAB
M  V30 COUNTS 17 16 0 0 0
M  V30 BEGIN ATOM
M  V30 1 O -0.6143 -1.844 -0.8448 0
M  V30 2 C -0.4107 -0.5728 -0.2752 0 CFG=2
M  V30 3 C -0.8704 0.4609 -1.2274 0
M  V30 4 C 1.0983 -0.3905 0.0445 0
M  V30 5 C -1.2661 -0.4921 0.9978 0
M  V30 6 C -1.2451 1.3036 -2.0044 0
M  V30 7 C 1.4516 0.9375 0.7242 0
M  V30 8 H -0.0764 -1.9006 -1.6789 0
M  V30 9 H 1.4367 -1.2223 0.7005 0
M  V30 10 H 1.6839 -0.4616 -0.8985 0
M  V30 11 H -0.8902 -1.2063 1.7615 0
M  V30 12 H -1.259 0.5319 1.4287 0
M  V30 13 H -2.321 -0.7566 0.7672 0
M  V30 14 H -1.5736 2.0432 -2.6861 0
M  V30 15 H 2.555 1.0189 0.8171 0
M  V30 16 H 1.0202 0.9848 1.7454 0
M  V30 17 H 1.0888 1.7993 0.1263 0
M  V30 END ATOM
M  V30 BEGIN BOND
M  V30 1 1 1 2
M  V30 2 1 2 3
M  V30 3 1 2 4
M  V30 4 1 2 5
M  V30 5 3 3 6
M  V30 6 1 4 7
M  V30 7 1 1 8
M  V30 8 1 4 9
M  V30 9 1 4 10
M  V30 10 1 5 11
M  V30 11 1 5 12
M  V30 12 1 5 13
M  V30 13 1 6 14
M  V30 14 1 7 15
M  V30 15 1 7 16
M  V30 16 1 7 17
M  V30 END BOND
M  V30 BEGIN COLLECTION
M  V30 MDLV30/STEABS ATOMS=(1 2)
M  V30 END COLLECTION
M  V30 END CTAB
M  END
>  <Structure No>
2342

>  <LogS>
0.016731992

>  <MMFF94 Energy>
3.0069

$$$$
Compound 2343
Actelion Java MolfileCreator 2.0

  0  0  0  0  0  0              0 V3000
M  V30 BEGIN CTAB
M  V30 COUNTS 26 25 0 0 0
M  V30 BEGIN ATOM
M  V30 1 O -1.3164 3.0996 -1.0065 0
M  V30 2 C -1.7374 1.9598 -0.6703 0
M  V30 3 N -2.0478 0.9863 -1.6728 0
M  V30 4 C -1.8732 1.6204 0.7856 0
M  V30 5 N -1.8835 1.2841 -3.0349 0
M  V30 6 C -0.5268 1.2244 1.406 0
M  V30 7 C -0.0057 -0.1138 0.8622 0
M  V30 8 C 1.2997 -0.5163 1.5538 0
M  V30 9 C 1.8044 -1.8166 1.0052 0
M  V30 10 O 1.533 -2.8933 1.6019 0
M  V30 11 N 2.5528 -1.842 -0.2128 0
M  V30 12 N 3.0007 -3.0578 -0.7481 0
M  V30 13 H -2.3536 0.0289 -1.3834 0
M  V30 14 H -2.2674 2.5096 1.3235 0
M  V30 15 H -2.6116 0.8008 0.922 0
M  V30 16 H -2.6203 1.9807 -3.2896 0
M  V30 17 H -2.093 0.4154 -3.5776 0
M  V30 18 H -0.6646 1.1387 2.5062 0
M  V30 19 H 0.2211 2.0262 1.2193 0
M  V30 20 H 0.1755 -0.0252 -0.2312 0
M  V30 21 H -0.7699 -0.9045 1.0318 0
M  V30 22 H 1.1311 -0.6168 2.6486 0
M  V30 23 H 2.0692 0.2702 1.3955 0
M  V30 24 H 2.7519 -0.9493 -0.7199 0
M  V30 25 H 4.0341 -2.9738 -0.8785 0
M  V30 26 H 2.5785 -3.1482 -1.6997 0
M  V30 END ATOM
M  V30 BEGIN BOND
M  V30 1 2 1 2
M  V30 2 1 2 3
M  V30 3 1 2 4
M  V30 4 1 3 5
M  V30 5 1 4 6
M  V30 6 1 6 7
M  V30 7 1 7 8
M  V30 8 1 8 9
M  V30 9 2 9 10
M  V30 10 1 9 11
M  V30 11 1 11 12
M  V30 12 1 3 13
M  V30 13 1 4 14
M  V30 14 1 4 15
M  V30 15 1 5 16
M  V30 16 1 5 17
M  V30 17 1 6 18
M  V30 18 1 6 19
M  V30 19 1 7 20
M  V30 20 1 7 21
M  V30 21 1 8 22
M  V30 22 1 8 23
M  V30 23 1 11 24
M  V30 24 1 12 25
M  V30 25 1 12 26
M  V30 END BOND
M  V30 END CTAB
M  END
>  <Structure No>
2343

>  <LogS>
-0.232457951

>  <MMFF94 Energy>
89.186

$$$$
Compound 2344
Actelion Java MolfileCreator 2.0

  0  0  0  0  0  0              0 V3000
M  V30 BEGIN CTAB
M  V30 COUNTS 16 15 0 0 0
M  V30 BEGIN ATOM
M  V30 1 O -1.6022 -0.2287 0.9152 0
M  V30 2 C -0.5464 -0.2001 -0.0214 0
M  V30 3 C -2.7982 0.1683 0.2833 0
M  V30 4 C 0.7447 -0.6356 0.6673 0
M  V30 5 O 1.8024 -0.7024 -0.271 0
M  V30 6 C 2.5773 0.4756 -0.2248 0
M  V30 7 H -0.7483 -0.9013 -0.8635 0
M  V30 8 H -0.4069 0.8292 -0.4227 0
M  V30 9 H -3.6183 0.141 1.0299 0
M  V30 10 H -3.0702 -0.529 -0.5399 0
M  V30 11 H -2.7259 1.2112 -0.0979 0
M  V30 12 H 0.5923 -1.6553 1.0807 0
M  V30 13 H 0.9569 0.0287 1.5394 0
M  V30 14 H 1.9557 1.3812 -0.4016 0
M  V30 15 H 3.3402 0.4291 -1.0286 0
M  V30 16 H 3.1139 0.5567 0.746 0
M  V30 END ATOM
M  V30 BEGIN BOND
M  V30 1 1 1 2
M  V30 2 1 1 3
M  V30 3 1 2 4
M  V30 4 1 4 5
M  V30 5 1 5 6
M  V30 6 1 2 7
M  V30 7 1 2 8
M  V30 8 1 3 9
M  V30 9 1 3 10
M  V30 10 1 3 11
M  V30 11 1 4 12
M  V30 12 1 4 13
M  V30 13 1 6 14
M  V30 14 1 6 15
M  V30 15 1 6 16
M  V30 END BOND
M  V30 END CTAB
M  END
>  <Structure No>
2344

>  <LogS>
1.045169179

>  <MMFF94 Energy>
29.013

$$$$
Compound 2345
Actelion Java MolfileCreator 2.0

  0  0  0  0  0  0              0 V3000
M  V30 BEGIN CTAB
M  V30 COUNTS 14 14 0 0 0
M  V30 BEGIN ATOM
M  V30 1 O -0.8665 -1.1818 -0.1575 0
M  V30 2 C -1.4021 0.1262 -0.089 0
M  V30 3 C 0.3776 -1.2178 0.5112 0
M  V30 4 C -0.3923 1.1825 -0.5868 0
M  V30 5 C 1.3765 -0.2301 -0.1289 0
M  V30 6 O 0.7599 0.5655 -1.1234 0
M  V30 7 H -1.7238 0.3568 0.9514 0
M  V30 8 H -2.3111 0.1614 -0.7263 0
M  V30 9 H 0.2438 -0.9888 1.5932 0
M  V30 10 H 0.7838 -2.2494 0.4458 0
M  V30 11 H -0.1132 1.8739 0.2407 0
M  V30 12 H -0.8641 1.8003 -1.3802 0
M  V30 13 H 2.2006 -0.8021 -0.6055 0
M  V30 14 H 1.8368 0.4167 0.6513 0
M  V30 END ATOM
M  V30 BEGIN BOND
M  V30 1 1 1 2
M  V30 2 1 1 3
M  V30 3 1 2 4
M  V30 4 1 3 5
M  V30 5 1 4 6
M  V30 6 1 5 6
M  V30 7 1 2 7
M  V30 8 1 2 8
M  V30 9 1 3 9
M  V30 10 1 3 10
M  V30 11 1 4 11
M  V30 12 1 4 12
M  V30 13 1 5 13
M  V30 14 1 5 14
M  V30 END BOND
M  V30 END CTAB
M  END
>  <Structure No>
2345

>  <LogS>
1.054994515

>  <MMFF94 Energy>
52.27

$$$$
Compound 2346
Actelion Java MolfileCreator 2.0

  0  0  0  0  0  0              0 V3000
M  V30 BEGIN CTAB
M  V30 COUNTS 16 16 0 0 0
M  V30 BEGIN ATOM
M  V30 1 O 0.3146 2.362 0.472 0
M  V30 2 C -0.109 1.2052 0.2087 0
M  V30 3 N 0.7429 0.0959 0.0172 0
M  V30 4 C -1.5378 0.8644 0.0681 0
M  V30 5 C -0.0405 -1.0906 -0.2696 0
M  V30 6 C 2.1983 0.1354 0.0959 0
M  V30 7 C -1.5164 -0.6413 -0.2467 0
M  V30 8 H -1.9901 1.4417 -0.7667 0
M  V30 9 H -2.0765 1.067 1.0187 0
M  V30 10 H 0.1463 -1.8631 0.5074 0
M  V30 11 H 0.2321 -1.4899 -1.2704 0
M  V30 12 H 2.623 -0.8728 -0.095 0
M  V30 13 H 2.5084 0.4703 1.1079 0
M  V30 14 H 2.5941 0.8421 -0.6632 0
M  V30 15 H -1.9912 -0.8333 -1.2338 0
M  V30 16 H -2.0766 -1.2038 0.5318 0
M  V30 END ATOM
M  V30 BEGIN BOND
M  V30 1 2 1 2
M  V30 2 1 2 3
M  V30 3 1 2 4
M  V30 4 1 3 5
M  V30 5 1 3 6
M  V30 6 1 4 7
M  V30 7 1 5 7
M  V30 8 1 4 8
M  V30 9 1 4 9
M  V30 10 1 5 10
M  V30 11 1 5 11
M  V30 12 1 6 12
M  V30 13 1 6 13
M  V30 14 1 6 14
M  V30 15 1 7 15
M  V30 16 1 7 16
M  V30 END BOND
M  V30 END CTAB
M  END
>  <Structure No>
2346

>  <LogS>
1.003781751

>  <MMFF94 Energy>
-17.279

$$$$
Compound 2347
Actelion Java MolfileCreator 2.0

  0  0  0  0  0  0              0 V3000
M  V30 BEGIN CTAB
M  V30 COUNTS 11 10 0 0 0
M  V30 BEGIN ATOM
M  V30 1 O 0.3763 -1.3553 -1.054 0
M  V30 2 C 0.7029 -0.3755 -0.3311 0
M  V30 3 N -0.2992 0.3851 0.3529 0
M  V30 4 N 2.0797 -0.0266 -0.1971 0
M  V30 5 C -1.7165 0.0634 0.2438 0
M  V30 6 H -0.0095 1.1939 0.9476 0
M  V30 7 H 2.8144 -0.5777 -0.6935 0
M  V30 8 H 2.367 0.7817 0.3975 0
M  V30 9 H -2.0389 0.1375 -0.816 0
M  V30 10 H -1.8987 -0.9664 0.6168 0
M  V30 11 H -2.3131 0.776 0.8513 0
M  V30 END ATOM
M  V30 BEGIN BOND
M  V30 1 2 1 2
M  V30 2 1 2 3
M  V30 3 1 2 4
M  V30 4 1 3 5
M  V30 5 1 3 6
M  V30 6 1 4 7
M  V30 7 1 4 8
M  V30 8 1 5 9
M  V30 9 1 5 10
M  V30 10 1 5 11
M  V30 END BOND
M  V30 END CTAB
M  END
>  <Structure No>
2347

>  <LogS>
1.130281439

>  <MMFF94 Energy>
-107.35

$$$$
Compound 2348
Actelion Java MolfileCreator 2.0

  0  0  0  0  0  0              0 V3000
M  V30 BEGIN CTAB
M  V30 COUNTS 17 16 0 0 0
M  V30 BEGIN ATOM
M  V30 1 S -0.0796 -1.3546 -0.956 0
M  V30 2 C -1.0419 0.2002 -1.0017 0
M  V30 3 C 0.9542 -0.9329 0.4931 0
M  V30 4 C -2.2825 0.0881 -0.1168 0
M  V30 5 C 2.222 -0.2091 0.0528 0
M  V30 6 O -3.0478 1.2589 -0.2047 0
M  V30 7 O 3.0127 0.0705 1.1739 0
M  V30 8 H -1.3619 0.3756 -2.0505 0
M  V30 9 H -0.421 1.0649 -0.6861 0
M  V30 10 H 0.3915 -0.3114 1.2214 0
M  V30 11 H 1.2367 -1.8796 1.0002 0
M  V30 12 H -2.9032 -0.7655 -0.4627 0
M  V30 13 H -1.9938 -0.1047 0.9406 0
M  V30 14 H 2.7892 -0.8559 -0.6531 0
M  V30 15 H 1.9548 0.7401 -0.4612 0
M  V30 16 H -2.5829 1.9439 0.3436 0
M  V30 17 H 3.8207 0.5344 0.8317 0
M  V30 END ATOM
M  V30 BEGIN BOND
M  V30 1 1 1 2
M  V30 2 1 1 3
M  V30 3 1 2 4
M  V30 4 1 3 5
M  V30 5 1 4 6
M  V30 6 1 5 7
M  V30 7 1 2 8
M  V30 8 1 2 9
M  V30 9 1 3 10
M  V30 10 1 3 11
M  V30 11 1 4 12
M  V30 12 1 4 13
M  V30 13 1 5 14
M  V30 14 1 5 15
M  V30 15 1 6 16
M  V30 16 1 7 17
M  V30 END BOND
M  V30 END CTAB
M  END
>  <Structure No>
2348

>  <LogS>
0.91296789

>  <MMFF94 Energy>
32.104

$$$$
Compound 2349
Actelion Java MolfileCreator 2.0

  0  0  0  0  0  0              0 V3000
M  V30 BEGIN CTAB
M  V30 COUNTS 18 17 0 0 0
M  V30 BEGIN ATOM
M  V30 1 O -1.155 -2.311 0.6598 0
M  V30 2 C -1.2486 -1.2034 1.2549 0
M  V30 3 O -2.2867 -1.0084 2.1589 0 CHG=-1
M  V30 4 C -0.2984 -0.0664 0.9423 0
M  V30 5 O -0.1603 0.6863 2.1272 0
M  V30 6 C -0.9251 0.8237 -0.1717 0
M  V30 7 C 1.0924 -0.6378 0.5381 0
M  V30 8 C -1.1677 0.094 -1.4625 0
M  V30 9 C 2.1276 0.4232 0.3019 0
M  V30 10 O -2.2474 -0.5272 -1.6462 0
M  V30 11 O -0.195 0.0871 -2.454 0 CHG=-1
M  V30 12 O 2.3062 0.8911 -0.8531 0
M  V30 13 O 2.8824 0.9076 1.3629 0 CHG=-1
M  V30 14 H 0.2967 1.5402 1.9104 0
M  V30 15 H -0.2698 1.6965 -0.3791 0
M  V30 16 H -1.8915 1.2382 0.1913 0
M  V30 17 H 1.007 -1.265 -0.3755 0
M  V30 18 H 1.4621 -1.3026 1.3496 0
M  V30 END ATOM
M  V30 BEGIN BOND
M  V30 1 2 1 2
M  V30 2 1 2 3
M  V30 3 1 2 4
M  V30 4 1 4 5
M  V30 5 1 4 6
M  V30 6 1 4 7
M  V30 7 1 6 8
M  V30 8 1 7 9
M  V30 9 2 8 10
M  V30 10 1 8 11
M  V30 11 2 9 12
M  V30 12 1 9 13
M  V30 13 1 5 14
M  V30 14 1 6 15
M  V30 15 1 6 16
M  V30 16 1 7 17
M  V30 17 1 7 18
M  V30 END BOND
M  V30 END CTAB
M  END
>  <Structure No>
2349

>  <LogS>
0.677495406

>  <MMFF94 Energy>
234.11

$$$$
Compound 2350
Actelion Java MolfileCreator 2.0

  0  0  0  0  0  0              0 V3000
M  V30 BEGIN CTAB
M  V30 COUNTS 17 16 0 0 0
M  V30 BEGIN ATOM
M  V30 1 O 0.0 0.7648 0.0 0
M  V30 2 C 0.9223 -0.0847 0.6501 0
M  V30 3 C -1.3194 0.4918 0.4343 0
M  V30 4 C 2.3077 0.1366 0.0583 0
M  V30 5 C -2.023 -0.4293 -0.5632 0
M  V30 6 O 3.2319 -0.696 0.7011 0
M  V30 7 O -3.3459 -0.661 -0.162 0
M  V30 8 H 0.961 0.1511 1.7381 0
M  V30 9 H 0.6478 -1.1556 0.5119 0
M  V30 10 H -1.3744 0.0577 1.4617 0
M  V30 11 H -1.8706 1.4555 0.471 0
M  V30 12 H 2.2843 -0.0964 -1.0298 0
M  V30 13 H 2.6014 1.2015 0.1959 0
M  V30 14 H -1.9989 0.0208 -1.5819 0
M  V30 15 H -1.4928 -1.4034 -0.6076 0
M  V30 16 H 4.1099 -0.5105 0.2771 0
M  V30 17 H -3.861 0.1552 -0.3952 0
M  V30 END ATOM
M  V30 BEGIN BOND
M  V30 1 1 1 2
M  V30 2 1 1 3
M  V30 3 1 2 4
M  V30 4 1 3 5
M  V30 5 1 4 6
M  V30 6 1 5 7
M  V30 7 1 2 8
M  V30 8 1 2 9
M  V30 9 1 3 10
M  V30 10 1 3 11
M  V30 11 1 4 12
M  V30 12 1 4 13
M  V30 13 1 5 14
M  V30 14 1 5 15
M  V30 15 1 6 16
M  V30 16 1 7 17
M  V30 END BOND
M  V30 END CTAB
M  END
>  <Structure No>
2350

>  <LogS>
0.974198666

>  <MMFF94 Energy>
43.31

$$$$
Compound 2351
Actelion Java MolfileCreator 2.0

  0  0  0  0  0  0              0 V3000
M  V30 BEGIN CTAB
M  V30 COUNTS 28 28 0 0 0
M  V30 BEGIN ATOM
M  V30 1 O 2.8455 -1.1058 -1.4219 0
M  V30 2 C 3.1177 -0.3622 -0.4424 0
M  V30 3 N 2.2148 0.5661 0.1189 0
M  V30 4 N 4.3679 -0.3562 0.2042 0
M  V30 5 C 2.9048 1.2723 1.1921 0
M  V30 6 C 0.8673 0.8628 -0.3613 0
M  V30 7 C 4.3186 0.6395 1.2674 0
M  V30 8 C -0.0842 -0.2768 -0.0132 0
M  V30 9 O -1.3975 0.0503 -0.4551 0
M  V30 10 C -2.4918 -0.8028 -0.2725 0
M  V30 11 O -2.3367 -1.9142 0.3047 0
M  V30 12 C -3.8335 -0.4048 -0.7536 0
M  V30 13 C -4.0299 0.8015 -1.2969 0
M  V30 14 C -5.0004 -1.3349 -0.5595 0
M  V30 15 H 5.1843 -0.9624 -0.0322 0
M  V30 16 H 2.3578 1.1342 2.1496 0
M  V30 17 H 2.9749 2.3545 0.9482 0
M  V30 18 H 0.8897 1.0175 -1.4617 0
M  V30 19 H 0.4991 1.7989 0.1126 0
M  V30 20 H 4.4762 0.1458 2.2502 0
M  V30 21 H 5.1039 1.4073 1.1006 0
M  V30 22 H 0.2511 -1.2126 -0.5101 0
M  V30 23 H -0.0897 -0.4303 1.0881 0
M  V30 24 H -5.0148 1.1125 -1.6226 0
M  V30 25 H -3.2158 1.5036 -1.4255 0
M  V30 26 H -5.8426 -1.0821 -1.2393 0
M  V30 27 H -4.6971 -2.3812 -0.7746 0
M  V30 28 H -5.3541 -1.269 0.4906 0
M  V30 END ATOM
M  V30 BEGIN BOND
M  V30 1 2 1 2
M  V30 2 1 2 3
M  V30 3 1 2 4
M  V30 4 1 3 5
M  V30 5 1 3 6
M  V30 6 1 4 7
M  V30 7 1 6 8
M  V30 8 1 8 9
M  V30 9 1 9 10
M  V30 10 2 10 11
M  V30 11 1 10 12
M  V30 12 2 12 13
M  V30 13 1 12 14
M  V30 14 1 5 7
M  V30 15 1 4 15
M  V30 16 1 5 16
M  V30 17 1 5 17
M  V30 18 1 6 18
M  V30 19 1 6 19
M  V30 20 1 7 20
M  V30 21 1 7 21
M  V30 22 1 8 22
M  V30 23 1 8 23
M  V30 24 1 13 24
M  V30 25 1 13 25
M  V30 26 1 14 26
M  V30 27 1 14 27
M  V30 28 1 14 28
M  V30 END BOND
M  V30 END CTAB
M  END
>  <Structure No>
2351

>  <LogS>
0.702848146

>  <MMFF94 Energy>
-47.863

$$$$
Compound 2352
Actelion Java MolfileCreator 2.0

  0  0  0  0  0  0              0 V3000
M  V30 BEGIN CTAB
M  V30 COUNTS 24 23 0 0 0
M  V30 BEGIN ATOM
M  V30 1 O -1.7595 1.683 0.6117 0
M  V30 2 C -1.5605 0.7689 -0.433 0
M  V30 3 C -0.4528 -0.2626 -0.0613 0
M  V30 4 N 0.816 0.4293 0.3843 0 CHG=1
M  V30 5 C -0.2316 -1.181 -1.2931 0
M  V30 6 C -1.0222 -1.141 1.0878 0
M  V30 7 C 1.9318 -0.4964 0.6844 0
M  V30 8 C 1.3056 1.4639 -0.5558 0
M  V30 9 H -2.461 2.3119 0.2995 0
M  V30 10 H -2.5197 0.2431 -0.6453 0
M  V30 11 H -1.295 1.3133 -1.3665 0
M  V30 12 H 0.6092 0.9309 1.2812 0
M  V30 13 H 0.4664 -2.0125 -1.065 0
M  V30 14 H -1.1929 -1.6457 -1.603 0
M  V30 15 H 0.1538 -0.6158 -2.1649 0
M  V30 16 H -1.0835 -0.5625 2.0344 0
M  V30 17 H -0.4041 -2.0448 1.2639 0
M  V30 18 H -2.0428 -1.5071 0.8422 0
M  V30 19 H 1.6424 -1.2661 1.4261 0
M  V30 20 H 2.3142 -0.988 -0.2355 0
M  V30 21 H 2.7804 0.0582 1.1433 0
M  V30 22 H 0.5909 2.3088 -0.6365 0
M  V30 23 H 1.5067 1.0452 -1.5628 0
M  V30 24 H 2.2519 1.9163 -0.1838 0
M  V30 END ATOM
M  V30 BEGIN BOND
M  V30 1 1 1 2
M  V30 2 1 2 3
M  V30 3 1 3 4
M  V30 4 1 3 5
M  V30 5 1 3 6
M  V30 6 1 4 7
M  V30 7 1 4 8
M  V30 8 1 1 9
M  V30 9 1 2 10
M  V30 10 1 2 11
M  V30 11 1 4 12
M  V30 12 1 5 13
M  V30 13 1 5 14
M  V30 14 1 5 15
M  V30 15 1 6 16
M  V30 16 1 6 17
M  V30 17 1 6 18
M  V30 18 1 7 19
M  V30 19 1 7 20
M  V30 20 1 7 21
M  V30 21 1 8 22
M  V30 22 1 8 23
M  V30 23 1 8 24
M  V30 END BOND
M  V30 END CTAB
M  END
>  <Structure No>
2352

>  <LogS>
0.813458956

>  <MMFF94 Energy>
44.486

$$$$
Compound 2353
Actelion Java MolfileCreator 2.0

  0  0  0  0  0  0              0 V3000
M  V30 BEGIN CTAB
M  V30 COUNTS 20 19 0 0 0
M  V30 BEGIN ATOM
M  V30 1 O -2.8726 0.302 1.3598 0
M  V30 2 C -2.7625 0.0739 -0.0197 0
M  V30 3 C -1.4504 -0.6484 -0.3465 0
M  V30 4 N -0.2828 0.2038 -0.0713 0 CHG=1
M  V30 5 C 0.9594 -0.4804 -0.4602 0
M  V30 6 C 2.1806 0.3982 -0.1675 0
M  V30 7 N 3.4059 -0.3028 -0.5374 0
M  V30 8 H -2.4772 1.1951 1.537 0
M  V30 9 H -2.8362 1.0263 -0.5943 0
M  V30 10 H -3.6105 -0.57 -0.3353 0
M  V30 11 H -1.3942 -1.5838 0.2549 0
M  V30 12 H -1.4702 -0.9293 -1.4238 0
M  V30 13 H -0.2459 0.421 0.9523 0
M  V30 14 H -0.369 1.0954 -0.6145 0
M  V30 15 H 0.9388 -0.7154 -1.5486 0
M  V30 16 H 1.0614 -1.4346 0.105 0
M  V30 17 H 2.2107 0.6352 0.9186 0
M  V30 18 H 2.1061 1.3529 -0.7351 0
M  V30 19 H 4.2137 0.2954 -0.2495 0
M  V30 20 H 3.4429 -0.3683 -1.5808 0
M  V30 END ATOM
M  V30 BEGIN BOND
M  V30 1 1 1 2
M  V30 2 1 2 3
M  V30 3 1 3 4
M  V30 4 1 4 5
M  V30 5 1 5 6
M  V30 6 1 6 7
M  V30 7 1 1 8
M  V30 8 1 2 9
M  V30 9 1 2 10
M  V30 10 1 3 11
M  V30 11 1 3 12
M  V30 12 1 4 13
M  V30 13 1 4 14
M  V30 14 1 5 15
M  V30 15 1 5 16
M  V30 16 1 6 17
M  V30 17 1 6 18
M  V30 18 1 7 19
M  V30 19 1 7 20
M  V30 END BOND
M  V30 END CTAB
M  END
>  <Structure No>
2353

>  <LogS>
0.982328216

>  <MMFF94 Energy>
32.386

$$$$
Compound 2354
Actelion Java MolfileCreator 2.0

  0  0  0  0  0  0              0 V3000
M  V30 BEGIN CTAB
M  V30 COUNTS 22 21 0 0 0
M  V30 BEGIN ATOM
M  V30 1 O 2.2118 0.9147 1.0672 0
M  V30 2 C 1.9991 0.6661 -0.2947 0
M  V30 3 C 1.3022 -0.6887 -0.4865 0
M  V30 4 N -0.0146 -0.7699 0.1961 0 CHG=1
M  V30 5 C -1.031 0.1314 -0.4241 0
M  V30 6 C -0.487 -2.1674 0.1669 0
M  V30 7 C -1.3686 1.325 0.4831 0
M  V30 8 O -2.2636 2.1895 -0.1627 0
M  V30 9 H 2.6452 1.8057 1.12 0
M  V30 10 H 2.9794 0.6366 -0.8203 0
M  V30 11 H 1.3972 1.4832 -0.7476 0
M  V30 12 H 1.9897 -1.4681 -0.0854 0
M  V30 13 H 1.1887 -0.8869 -1.5765 0
M  V30 14 H 0.1211 -0.5318 1.2077 0
M  V30 15 H -0.6926 0.5159 -1.4127 0
M  V30 16 H -1.9877 -0.4022 -0.6297 0
M  V30 17 H -0.639 -2.5146 -0.8795 0
M  V30 18 H 0.244 -2.8414 0.6659 0
M  V30 19 H -1.4473 -2.2636 0.7208 0
M  V30 20 H -1.8059 0.964 1.442 0
M  V30 21 H -0.4467 1.8924 0.724 0
M  V30 22 H -3.1577 1.7603 -0.1156 0
M  V30 END ATOM
M  V30 BEGIN BOND
M  V30 1 1 1 2
M  V30 2 1 2 3
M  V30 3 1 3 4
M  V30 4 1 4 5
M  V30 5 1 4 6
M  V30 6 1 5 7
M  V30 7 1 7 8
M  V30 8 1 1 9
M  V30 9 1 2 10
M  V30 10 1 2 11
M  V30 11 1 3 12
M  V30 12 1 3 13
M  V30 13 1 4 14
M  V30 14 1 5 15
M  V30 15 1 5 16
M  V30 16 1 6 17
M  V30 17 1 6 18
M  V30 18 1 6 19
M  V30 19 1 7 20
M  V30 20 1 7 21
M  V30 21 1 8 22
M  V30 END BOND
M  V30 END CTAB
M  END
>  <Structure No>
2354

>  <LogS>
0.923854927

>  <MMFF94 Energy>
42.696

$$$$
Compound 2355
Actelion Java MolfileCreator 2.0

  0  0  0  0  0  0              0 V3000
M  V30 BEGIN CTAB
M  V30 COUNTS 24 23 0 0 0
M  V30 BEGIN ATOM
M  V30 1 O 1.1575 0.2314 0.7715 0
M  V30 2 C 0.8872 -1.1543 0.7162 0
M  V30 3 C 2.5507 0.47 0.6952 0
M  V30 4 C -0.6171 -1.3696 0.6171 0
M  V30 5 C 2.9597 0.7972 -0.7423 0
M  V30 6 O -1.0928 -0.794 -0.5823 0
M  V30 7 O 2.2202 1.8836 -1.2309 0
M  V30 8 C -2.5073 -0.8293 -0.6244 0
M  V30 9 C -3.0906 0.5056 -0.1563 0
M  V30 10 O -2.5756 1.5637 -0.9185 0
M  V30 11 H 1.3693 -1.6283 -0.1692 0
M  V30 12 H 1.2527 -1.6518 1.6427 0
M  V30 13 H 3.1715 -0.3724 1.0834 0
M  V30 14 H 2.7848 1.347 1.3353 0
M  V30 15 H -0.8159 -2.465 0.6199 0
M  V30 16 H -1.0982 -0.9074 1.5095 0
M  V30 17 H 4.0498 1.0215 -0.7817 0
M  V30 18 H 2.7741 -0.0826 -1.3929 0
M  V30 19 H 2.601 2.6984 -0.8105 0
M  V30 20 H -2.9526 -1.6652 -0.0335 0
M  V30 21 H -2.8159 -0.9971 -1.678 0
M  V30 22 H -2.8305 0.6736 0.9096 0
M  V30 23 H -4.2013 0.4785 -0.2316 0
M  V30 24 H -3.0386 1.533 -1.7962 0
M  V30 END ATOM
M  V30 BEGIN BOND
M  V30 1 1 1 2
M  V30 2 1 1 3
M  V30 3 1 2 4
M  V30 4 1 3 5
M  V30 5 1 4 6
M  V30 6 1 5 7
M  V30 7 1 6 8
M  V30 8 1 8 9
M  V30 9 1 9 10
M  V30 10 1 2 11
M  V30 11 1 2 12
M  V30 12 1 3 13
M  V30 13 1 3 14
M  V30 14 1 4 15
M  V30 15 1 4 16
M  V30 16 1 5 17
M  V30 17 1 5 18
M  V30 18 1 7 19
M  V30 19 1 8 20
M  V30 20 1 8 21
M  V30 21 1 9 22
M  V30 22 1 9 23
M  V30 23 1 10 24
M  V30 END BOND
M  V30 END CTAB
M  END
>  <Structure No>
2355

>  <LogS>
0.823405251

>  <MMFF94 Energy>
66.716

$$$$
Compound 2356
Actelion Java MolfileCreator 2.0

  0  0  0  0  0  0              0 V3000
M  V30 BEGIN CTAB
M  V30 COUNTS 26 25 0 0 0
M  V30 BEGIN ATOM
M  V30 1 O -2.302 0.5367 1.6109 0
M  V30 2 C -2.4504 -0.4507 0.6286 0
M  V30 3 C -1.1537 -1.2648 0.4913 0
M  V30 4 N 0.0214 -0.4381 0.1054 0 CHG=1
M  V30 5 C -0.1208 0.0975 -1.2849 0
M  V30 6 C 1.2555 -1.2578 0.239 0
M  V30 7 C -0.3443 1.616 -1.3043 0
M  V30 8 C 2.5398 -0.4067 0.2685 0
M  V30 9 O 0.7963 2.2751 -0.8291 0
M  V30 10 O 2.545 0.4573 1.3732 0
M  V30 11 H -3.1625 1.0304 1.6374 0
M  V30 12 H -3.2708 -1.1419 0.9242 0
M  V30 13 H -2.7322 0.0105 -0.342 0
M  V30 14 H -1.3124 -2.0836 -0.2467 0
M  V30 15 H -0.9783 -1.749 1.4791 0
M  V30 16 H 0.0899 0.3441 0.7987 0
M  V30 17 H -0.9629 -0.3844 -1.8301 0
M  V30 18 H 0.7694 -0.1186 -1.9159 0
M  V30 19 H 1.2405 -1.8447 1.1854 0
M  V30 20 H 1.3232 -1.9972 -0.591 0
M  V30 21 H -1.224 1.8815 -0.6784 0
M  V30 22 H -0.5479 1.9361 -2.3505 0
M  V30 23 H 2.6368 0.1954 -0.6566 0
M  V30 24 H 3.4257 -1.0802 0.3094 0
M  V30 25 H 0.5869 3.2448 -0.8598 0
M  V30 26 H 2.7301 -0.1025 2.1719 0
M  V30 END ATOM
M  V30 BEGIN BOND
M  V30 1 1 1 2
M  V30 2 1 2 3
M  V30 3 1 3 4
M  V30 4 1 4 5
M  V30 5 1 4 6
M  V30 6 1 5 7
M  V30 7 1 6 8
M  V30 8 1 7 9
M  V30 9 1 8 10
M  V30 10 1 1 11
M  V30 11 1 2 12
M  V30 12 1 2 13
M  V30 13 1 3 14
M  V30 14 1 3 15
M  V30 15 1 4 16
M  V30 16 1 5 17
M  V30 17 1 5 18
M  V30 18 1 6 19
M  V30 19 1 6 20
M  V30 20 1 7 21
M  V30 21 1 7 22
M  V30 22 1 8 23
M  V30 23 1 8 24
M  V30 24 1 9 25
M  V30 25 1 10 26
M  V30 END BOND
M  V30 END CTAB
M  END
>  <Structure No>
2356

>  <LogS>
0.826260286

>  <MMFF94 Energy>
63.205

$$$$
Compound 2357
Actelion Java MolfileCreator 2.0

  0  0  0  0  0  0              0 V3000
M  V30 BEGIN CTAB
M  V30 COUNTS 9 8 0 0 0
M  V30 BEGIN ATOM
M  V30 1 Cl -0.9519 1.8252 0.2379 0
M  V30 2 C -0.8957 0.1826 -0.4537 0
M  V30 3 C 0.4201 -0.5102 -0.1096 0
M  V30 4 O 1.4928 0.1172 -0.7598 0
M  V30 5 H -1.0155 0.2445 -1.5561 0
M  V30 6 H -1.7415 -0.4042 -0.0374 0
M  V30 7 H 0.5733 -0.5241 0.9941 0
M  V30 8 H 0.3688 -1.5642 -0.4552 0
M  V30 9 H 1.7763 0.8734 -0.1824 0
M  V30 END ATOM
M  V30 BEGIN BOND
M  V30 1 1 1 2
M  V30 2 1 2 3
M  V30 3 1 3 4
M  V30 4 1 2 5
M  V30 5 1 2 6
M  V30 6 1 3 7
M  V30 7 1 3 8
M  V30 8 1 4 9
M  V30 END BOND
M  V30 END CTAB
M  END
>  <Structure No>
2357

>  <LogS>
1.094128597

>  <MMFF94 Energy>
14.488

$$$$
Compound 2358
Actelion Java MolfileCreator 2.0

  0  0  0  0  0  0              0 V3000
M  V30 BEGIN CTAB
M  V30 COUNTS 8 7 0 0 0
M  V30 BEGIN ATOM
M  V30 1 O -0.8827 -1.3644 -1.2038 0
M  V30 2 C -0.8907 -0.5528 -0.2409 0
M  V30 3 O -2.0857 0.0359 0.153 0 CHG=-1
M  V30 4 C 0.3843 -0.186 0.4435 0
M  V30 5 C 0.9791 0.9838 -0.2074 0
M  V30 6 N 1.4493 1.908 -0.7211 0
M  V30 7 H 1.1001 -1.034 0.3984 0
M  V30 8 H 0.1828 0.0521 1.509 0
M  V30 END ATOM
M  V30 BEGIN BOND
M  V30 1 2 1 2
M  V30 2 1 2 3
M  V30 3 1 2 4
M  V30 4 1 4 5
M  V30 5 3 5 6
M  V30 6 1 4 7
M  V30 7 1 4 8
M  V30 END BOND
M  V30 END CTAB
M  END
>  <Structure No>
2358

>  <LogS>
1.07026441

>  <MMFF94 Energy>
MMFF94 error code 2

$$$$
Compound 2359
Actelion Java MolfileCreator 2.0

  0  0  0  0  0  0              0 V3000
M  V30 BEGIN CTAB
M  V30 COUNTS 16 15 0 0 0
M  V30 BEGIN ATOM
M  V30 1 O 0.8486 0.4628 -1.1574 0
M  V30 2 C 0.9406 -0.1947 -0.0838 0
M  V30 3 O -0.1455 -0.9373 0.3919 0
M  V30 4 C 2.1958 -0.2044 0.6833 0
M  V30 5 C -1.4315 -0.9453 -0.2273 0
M  V30 6 C 3.2764 0.4732 0.2999 0
M  V30 7 C -2.2693 0.2468 0.2395 0
M  V30 8 O -1.7142 1.4555 -0.2016 0
M  V30 9 H 2.2396 -0.7856 1.5959 0
M  V30 10 H -1.3384 -0.9543 -1.3352 0
M  V30 11 H -1.9548 -1.8775 0.0727 0
M  V30 12 H 3.2801 1.0688 -0.6041 0
M  V30 13 H 4.177 0.4351 0.8987 0
M  V30 14 H -3.3123 0.1425 -0.1367 0
M  V30 15 H -2.3092 0.2543 1.3494 0
M  V30 16 H -1.9301 1.5307 -1.1677 0
M  V30 END ATOM
M  V30 BEGIN BOND
M  V30 1 2 1 2
M  V30 2 1 2 3
M  V30 3 1 2 4
M  V30 4 1 3 5
M  V30 5 2 4 6
M  V30 6 1 5 7
M  V30 7 1 7 8
M  V30 8 1 4 9
M  V30 9 1 5 10
M  V30 10 1 5 11
M  V30 11 1 6 12
M  V30 12 1 6 13
M  V30 13 1 7 14
M  V30 14 1 7 15
M  V30 15 1 8 16
M  V30 END BOND
M  V30 END CTAB
M  END
>  <Structure No>
2359

>  <LogS>
0.935107933

>  <MMFF94 Energy>
13.703

$$$$
Compound 2360
Actelion Java MolfileCreator 2.0

  0  0  0  0  0  0              0 V3000
M  V30 BEGIN CTAB
M  V30 COUNTS 10 9 0 0 0
M  V30 BEGIN ATOM
M  V30 1 O 0.1528 1.529 -0.4585 0
M  V30 2 C 0.2726 0.3452 0.2882 0 CFG=2
M  V30 3 C 1.486 -0.3888 -0.1062 0
M  V30 4 C -0.9692 -0.533 0.1218 0
M  V30 5 N 2.44 -0.9659 -0.4162 0
M  V30 6 H 0.056 1.2762 -1.4149 0
M  V30 7 H 0.3694 0.6176 1.3605 0
M  V30 8 H -1.0852 -0.8541 -0.9358 0
M  V30 9 H -1.8738 0.0363 0.4235 0
M  V30 10 H -0.8903 -1.4351 0.7663 0
M  V30 END ATOM
M  V30 BEGIN BOND
M  V30 1 1 1 2
M  V30 2 1 2 3
M  V30 3 1 2 4
M  V30 4 3 3 5
M  V30 5 1 1 6
M  V30 6 1 2 7
M  V30 7 1 4 8
M  V30 8 1 4 9
M  V30 9 1 4 10
M  V30 END BOND
M  V30 BEGIN COLLECTION
M  V30 MDLV30/STEABS ATOMS=(1 2)
M  V30 END COLLECTION
M  V30 END CTAB
M  END
>  <Structure No>
2360

>  <LogS>
1.148258691

>  <MMFF94 Energy>
22.715

$$$$
Compound 2361
Actelion Java MolfileCreator 2.0

  0  0  0  0  0  0              0 V3000
M  V30 BEGIN CTAB
M  V30 COUNTS 14 13 0 0 0
M  V30 BEGIN ATOM
M  V30 1 O 0.6872 -1.5278 -0.0763 0
M  V30 2 C 0.1045 -0.2502 -0.0042 0
M  V30 3 C 0.9981 0.6983 -0.6882 0
M  V30 4 C -1.2597 -0.2504 -0.7126 0
M  V30 5 C -0.0491 0.1789 1.4641 0
M  V30 6 C 1.7304 1.4752 -1.2488 0
M  V30 7 H 0.0817 -2.1653 0.3863 0
M  V30 8 H -1.7096 0.7664 -0.7013 0
M  V30 9 H -1.9601 -0.9486 -0.2062 0
M  V30 10 H -1.1459 -0.5775 -1.7687 0
M  V30 11 H -0.4673 1.2069 1.5323 0
M  V30 12 H -0.7322 -0.5133 2.0015 0
M  V30 13 H 0.9372 0.1611 1.9764 0
M  V30 14 H 2.373 2.1571 -1.7406 0
M  V30 END ATOM
M  V30 BEGIN BOND
M  V30 1 1 1 2
M  V30 2 1 2 3
M  V30 3 1 2 4
M  V30 4 1 2 5
M  V30 5 3 3 6
M  V30 6 1 1 7
M  V30 7 1 4 8
M  V30 8 1 4 9
M  V30 9 1 4 10
M  V30 10 1 5 11
M  V30 11 1 5 12
M  V30 12 1 5 13
M  V30 13 1 6 14
M  V30 END BOND
M  V30 END CTAB
M  END
>  <Structure No>
2361

>  <LogS>
1.075111062

>  <MMFF94 Energy>
MMFF94 error code 2

$$$$
Compound 2362
Actelion Java MolfileCreator 2.0

  0  0  0  0  0  0              0 V3000
M  V30 BEGIN CTAB
M  V30 COUNTS 17 16 0 0 0
M  V30 BEGIN ATOM
M  V30 1 N -0.9774 -0.827 -0.7518 0 CHG=1
M  V30 2 C -0.0233 -0.0166 0.0244 0
M  V30 3 C 1.3832 -0.1371 -0.595 0
M  V30 4 C 0.017 -0.5181 1.4817 0
M  V30 5 C -0.4631 1.4609 0.0062 0
M  V30 6 H -1.9375 -0.754 -0.3415 0
M  V30 7 H -0.6904 -1.8334 -0.7475 0
M  V30 8 H -1.0147 -0.4968 -1.7441 0
M  V30 9 H 1.3774 0.2211 -1.6468 0
M  V30 10 H 1.7212 -1.1958 -0.5902 0
M  V30 11 H 2.1187 0.4682 -0.0221 0
M  V30 12 H -0.9881 -0.4383 1.9491 0
M  V30 13 H 0.7325 0.0818 2.0848 0
M  V30 14 H 0.3338 -1.5825 1.5187 0
M  V30 15 H -1.4757 1.5714 0.4505 0
M  V30 16 H -0.4976 1.8441 -1.0364 0
M  V30 17 H 0.2454 2.0897 0.5876 0
M  V30 END ATOM
M  V30 BEGIN BOND
M  V30 1 1 1 2
M  V30 2 1 2 3
M  V30 3 1 2 4
M  V30 4 1 2 5
M  V30 5 1 1 6
M  V30 6 1 1 7
M  V30 7 1 1 8
M  V30 8 1 3 9
M  V30 9 1 3 10
M  V30 10 1 3 11
M  V30 11 1 4 12
M  V30 12 1 4 13
M  V30 13 1 4 14
M  V30 14 1 5 15
M  V30 15 1 5 16
M  V30 16 1 5 17
M  V30 END BOND
M  V30 END CTAB
M  END
>  <Structure No>
2362

>  <LogS>
1.135850982

>  <MMFF94 Energy>
8.0172

$$$$
Compound 2363
Actelion Java MolfileCreator 2.0

  0  0  0  0  0  0              0 V3000
M  V30 BEGIN CTAB
M  V30 COUNTS 15 14 0 0 0
M  V30 BEGIN ATOM
M  V30 1 O 1.064 -0.2279 1.2922 0
M  V30 2 C 0.1535 0.0253 0.249 0
M  V30 3 C 0.8942 0.0319 -1.1009 0
M  V30 4 C -0.9482 -1.0506 0.2444 0
M  V30 5 C -0.479 1.4031 0.4915 0
M  V30 6 H 1.4718 -1.1197 1.133 0
M  V30 7 H 1.7069 0.7897 -1.0905 0
M  V30 8 H 0.1953 0.2712 -1.9313 0
M  V30 9 H 1.3489 -0.9618 -1.3009 0
M  V30 10 H -1.6983 -0.8414 -0.5486 0
M  V30 11 H -1.4668 -1.0751 1.2268 0
M  V30 12 H -0.5114 -2.055 0.0573 0
M  V30 13 H 0.3054 2.19 0.5105 0
M  V30 14 H -1.0074 1.4185 1.4691 0
M  V30 15 H -1.209 1.6497 -0.3096 0
M  V30 END ATOM
M  V30 BEGIN BOND
M  V30 1 1 1 2
M  V30 2 1 2 3
M  V30 3 1 2 4
M  V30 4 1 2 5
M  V30 5 1 1 6
M  V30 6 1 3 7
M  V30 7 1 3 8
M  V30 8 1 3 9
M  V30 9 1 4 10
M  V30 10 1 4 11
M  V30 11 1 4 12
M  V30 12 1 5 13
M  V30 13 1 5 14
M  V30 14 1 5 15
M  V30 END BOND
M  V30 END CTAB
M  END
>  <Structure No>
2363

>  <LogS>
1.130047012

>  <MMFF94 Energy>
8.0048

$$$$
Compound 2364
Actelion Java MolfileCreator 2.0

  0  0  0  0  0  0              0 V3000
M  V30 BEGIN CTAB
M  V30 COUNTS 14 14 0 0 0
M  V30 BEGIN ATOM
M  V30 1 N 0.2339 1.2484 0.2339 0
M  V30 2 C 0.7574 0.0295 -0.075 0
M  V30 3 C -1.1041 1.4346 0.3919 0
M  V30 4 C -0.0947 -1.0713 -0.2376 0
M  V30 5 C 2.2354 -0.1277 -0.2389 0
M  V30 6 C -1.983 0.3599 0.2372 0
M  V30 7 C -1.4717 -0.8998 -0.0794 0
M  V30 8 H -1.4856 2.4167 0.6373 0
M  V30 9 H 0.3036 -2.048 -0.4833 0
M  V30 10 H 2.6182 -0.8647 0.498 0
M  V30 11 H 2.7519 0.8418 -0.0751 0
M  V30 12 H 2.463 -0.4841 -1.2656 0
M  V30 13 H -3.0487 0.5024 0.3618 0
M  V30 14 H -2.1409 -1.7416 -0.2022 0
M  V30 END ATOM
M  V30 BEGIN BOND
M  V30 1 2 1 2
M  V30 2 1 1 3
M  V30 3 1 2 4
M  V30 4 1 2 5
M  V30 5 2 3 6
M  V30 6 2 4 7
M  V30 7 1 6 7
M  V30 8 1 3 8
M  V30 9 1 4 9
M  V30 10 1 5 10
M  V30 11 1 5 11
M  V30 12 1 5 12
M  V30 13 1 6 13
M  V30 14 1 7 14
M  V30 END BOND
M  V30 END CTAB
M  END
>  <Structure No>
2364

>  <LogS>
1.03091506

>  <MMFF94 Energy>
16.778

$$$$
Compound 2365
Actelion Java MolfileCreator 2.0

  0  0  0  0  0  0              0 V3000
M  V30 BEGIN CTAB
M  V30 COUNTS 10 9 0 0 0
M  V30 BEGIN ATOM
M  V30 1 S 1.5312 -0.4833 1.2087 0
M  V30 2 C 0.2845 -0.7219 -0.0974 0
M  V30 3 C -0.5087 0.5619 -0.3403 0
M  V30 4 O -1.208 0.9405 0.8145 0
M  V30 5 H 2.295 0.4055 0.428 0
M  V30 6 H 0.7968 -1.0249 -1.0349 0
M  V30 7 H -0.4049 -1.5383 0.205 0
M  V30 8 H -1.2162 0.4096 -1.1867 0
M  V30 9 H 0.1853 1.3805 -0.626 0
M  V30 10 H -1.9863 0.3286 0.8889 0
M  V30 END ATOM
M  V30 BEGIN BOND
M  V30 1 1 1 2
M  V30 2 1 2 3
M  V30 3 1 3 4
M  V30 4 1 1 5
M  V30 5 1 2 6
M  V30 6 1 2 7
M  V30 7 1 3 8
M  V30 8 1 3 9
M  V30 9 1 4 10
M  V30 END BOND
M  V30 END CTAB
M  END
>  <Structure No>
2365

>  <LogS>
1.107148825

>  <MMFF94 Energy>
12.199

$$$$
Compound 2366
Actelion Java MolfileCreator 2.0

  0  0  0  0  0  0              0 V3000
M  V30 BEGIN CTAB
M  V30 COUNTS 21 20 0 0 0
M  V30 BEGIN ATOM
M  V30 1 O 2.5081 0.9114 1.8996 0
M  V30 2 C 2.5828 0.4944 0.5628 0
M  V30 3 C 1.351 -0.3326 0.1773 0
M  V30 4 C 0.0516 0.4889 0.2951 0
M  V30 5 N -1.1215 -0.2221 -0.2677 0 CHG=1
M  V30 6 C -1.52 -1.3676 0.5724 0
M  V30 7 C -2.2558 0.71 -0.3985 0
M  V30 8 H 2.7041 0.1139 2.4574 0
M  V30 9 H 2.6539 1.3898 -0.0906 0
M  V30 10 H 3.5037 -0.1104 0.4009 0
M  V30 11 H 1.3058 -1.2237 0.8378 0
M  V30 12 H 1.4762 -0.6814 -0.8703 0
M  V30 13 H 0.2078 1.4436 -0.2579 0
M  V30 14 H -0.1277 0.753 1.3623 0
M  V30 15 H -0.8883 -0.5753 -1.2263 0
M  V30 16 H -2.4514 -1.8346 0.1824 0
M  V30 17 H -1.697 -1.0528 1.625 0
M  V30 18 H -0.7425 -2.1593 0.5551 0
M  V30 19 H -1.9929 1.5522 -1.0758 0
M  V30 20 H -2.548 1.1253 0.5921 0
M  V30 21 H -3.1357 0.1961 -0.8447 0
M  V30 END ATOM
M  V30 BEGIN BOND
M  V30 1 1 1 2
M  V30 2 1 2 3
M  V30 3 1 3 4
M  V30 4 1 4 5
M  V30 5 1 5 6
M  V30 6 1 5 7
M  V30 7 1 1 8
M  V30 8 1 2 9
M  V30 9 1 2 10
M  V30 10 1 3 11
M  V30 11 1 3 12
M  V30 12 1 4 13
M  V30 13 1 4 14
M  V30 14 1 5 15
M  V30 15 1 6 16
M  V30 16 1 6 17
M  V30 17 1 6 18
M  V30 18 1 7 19
M  V30 19 1 7 20
M  V30 20 1 7 21
M  V30 END BOND
M  V30 END CTAB
M  END
>  <Structure No>
2366

>  <LogS>
0.986467618

>  <MMFF94 Energy>
7.5838

$$$$
Compound 2367
Actelion Java MolfileCreator 2.0

  0  0  0  0  0  0              0 V3000
M  V30 BEGIN CTAB
M  V30 COUNTS 26 25 0 0 0
M  V30 BEGIN ATOM
M  V30 1 S 1.1184 0.1597 -0.4792 0
M  V30 2 O 1.8121 0.3301 0.8435 0
M  V30 3 O 2.0957 -0.3972 -1.4747 0
M  V30 4 O -0.177 -0.9196 -0.3226 0
M  V30 5 O 0.5753 1.6525 -1.0295 0 CHG=-1
M  V30 6 C -1.1328 -0.336 0.5255 0
M  V30 7 N 1.3189 0.1017 -0.2525 0 CHG=1
M  V30 8 C 0.1927 -0.53 0.1307 0
M  V30 9 C 0.9775 1.3877 -0.4595 0
M  V30 10 C 2.6139 -0.5099 -0.5202 0
M  V30 11 N -0.8514 0.3259 0.197 0
M  V30 12 C -0.3644 1.5279 -0.1725 0
M  V30 13 C -2.218 0.0619 0.5555 0
M  V30 14 C -2.6471 -1.1434 0.9284 0
M  V30 15 H -0.7082 -0.1332 1.5332 0
M  V30 16 H -1.9726 -1.0491 0.6543 0
M  V30 17 H -1.5486 0.5937 0.0803 0
M  V30 18 H 0.1418 -1.5903 0.3395 0
M  V30 19 H 1.6489 2.1625 -0.8068 0
M  V30 20 H 3.4271 0.2274 -0.3503 0
M  V30 21 H 2.6497 -0.8572 -1.5739 0
M  V30 22 H 2.7739 -1.3762 0.1562 0
M  V30 23 H -0.9447 2.4394 -0.2428 0
M  V30 24 H -2.9332 0.8754 0.5268 0
M  V30 25 H -1.9871 -1.9967 0.9836 0
M  V30 26 H -3.6878 -1.2851 1.1892 0
M  V30 END ATOM
M  V30 BEGIN BOND
M  V30 1 2 1 2
M  V30 2 2 1 3
M  V30 3 1 1 4
M  V30 4 1 1 5
M  V30 5 1 4 6
M  V30 6 2 7 8
M  V30 7 1 7 9
M  V30 8 1 7 10
M  V30 9 1 8 11
M  V30 10 2 9 12
M  V30 11 1 11 13
M  V30 12 2 13 14
M  V30 13 1 11 12
M  V30 14 1 6 15
M  V30 15 1 6 16
M  V30 16 1 6 17
M  V30 17 1 8 18
M  V30 18 1 9 19
M  V30 19 1 10 20
M  V30 20 1 10 21
M  V30 21 1 10 22
M  V30 22 1 12 23
M  V30 23 1 13 24
M  V30 24 1 14 25
M  V30 25 1 14 26
M  V30 END BOND
M  V30 END CTAB
M  END
>  <Structure No>
2367

>  <LogS>
0.657084083

>  <MMFF94 Energy>
39.727

$$$$
Compound 2368
Actelion Java MolfileCreator 2.0

  0  0  0  0  0  0              0 V3000
M  V30 BEGIN CTAB
M  V30 COUNTS 16 16 0 0 0
M  V30 BEGIN ATOM
M  V30 1 S -2.6161 0.2529 0.2529 0
M  V30 2 O -2.98 1.6867 0.5161 0
M  V30 3 O -3.1349 -0.6103 1.3684 0
M  V30 4 O -3.3227 -0.2475 -1.187 0 CHG=-1
M  V30 5 C -0.8666 0.1004 0.1466 0
M  V30 6 C -0.1008 -0.0463 1.3118 0
M  V30 7 C -0.2285 0.1433 -1.1008 0
M  V30 8 C 1.2905 -0.1594 1.2289 0
M  V30 9 C 1.1629 0.0302 -1.1826 0
M  V30 10 C 1.9263 -0.1224 -0.0166 0
M  V30 11 O 3.313 -0.2364 -0.0851 0
M  V30 12 H -0.5797 -0.0716 2.2826 0
M  V30 13 H -0.8054 0.2665 -2.0085 0
M  V30 14 H 1.8751 -0.2743 2.133 0
M  V30 15 H 1.6462 0.0629 -2.1507 0
M  V30 16 H 3.8028 -0.2128 -0.9718 0
M  V30 END ATOM
M  V30 BEGIN BOND
M  V30 1 2 1 2
M  V30 2 2 1 3
M  V30 3 1 1 4
M  V30 4 1 1 5
M  V30 5 2 5 6
M  V30 6 1 5 7
M  V30 7 1 6 8
M  V30 8 2 7 9
M  V30 9 2 8 10
M  V30 10 1 10 11
M  V30 11 1 9 10
M  V30 12 1 6 12
M  V30 13 1 7 13
M  V30 14 1 8 14
M  V30 15 1 9 15
M  V30 16 1 11 16
M  V30 END BOND
M  V30 END CTAB
M  END
>  <Structure No>
2368

>  <LogS>
0.759009194

>  <MMFF94 Energy>
35.546

$$$$
Compound 2369
Actelion Java MolfileCreator 2.0

  0  0  0  0  0  0              0 V3000
M  V30 BEGIN CTAB
M  V30 COUNTS 22 21 0 0 0
M  V30 BEGIN ATOM
M  V30 1 O 1.9381 -0.3099 -1.5503 0
M  V30 2 C 2.2376 0.1033 -0.3955 0
M  V30 3 O 1.2592 0.6576 0.4371 0
M  V30 4 C 3.6216 0.0179 0.0956 0
M  V30 5 C -0.1192 0.7455 0.0809 0
M  V30 6 C 4.6113 -0.4946 -0.6333 0
M  V30 7 C -0.8 -0.6208 0.2318 0
M  V30 8 C -2.2614 -0.6095 -0.2427 0
M  V30 9 C -3.1848 0.1755 0.6969 0
M  V30 10 O -4.5212 0.0125 0.3072 0
M  V30 11 H 3.841 0.3865 1.0899 0
M  V30 12 H -0.2206 1.1252 -0.9594 0
M  V30 13 H -0.6008 1.4764 0.7625 0
M  V30 14 H 4.4403 -0.8759 -1.632 0
M  V30 15 H 5.6138 -0.536 -0.2276 0
M  V30 16 H -0.2475 -1.3678 -0.3768 0
M  V30 17 H -0.7464 -0.9495 1.2926 0
M  V30 18 H -2.6194 -1.6612 -0.2894 0
M  V30 19 H -2.3229 -0.1878 -1.2697 0
M  V30 20 H -3.0739 -0.2073 1.7337 0
M  V30 21 H -2.9203 1.2563 0.6974 0
M  V30 22 H -4.6525 0.5751 -0.5003 0
M  V30 END ATOM
M  V30 BEGIN BOND
M  V30 1 2 1 2
M  V30 2 1 2 3
M  V30 3 1 2 4
M  V30 4 1 3 5
M  V30 5 2 4 6
M  V30 6 1 5 7
M  V30 7 1 7 8
M  V30 8 1 8 9
M  V30 9 1 9 10
M  V30 10 1 4 11
M  V30 11 1 5 12
M  V30 12 1 5 13
M  V30 13 1 6 14
M  V30 14 1 6 15
M  V30 15 1 7 16
M  V30 16 1 7 17
M  V30 17 1 8 18
M  V30 18 1 8 19
M  V30 19 1 9 20
M  V30 20 1 9 21
M  V30 21 1 10 22
M  V30 END BOND
M  V30 END CTAB
M  END
>  <Structure No>
2369

>  <LogS>
0.841125102

>  <MMFF94 Energy>
-1.1413

$$$$
Compound 2370
Actelion Java MolfileCreator 2.0

  0  0  0  0  0  0              0 V3000
M  V30 BEGIN CTAB
M  V30 COUNTS 15 14 0 0 0
M  V30 BEGIN ATOM
M  V30 1 O -1.2242 -1.1476 -1.3773 0
M  V30 2 C -0.8632 -0.2576 -0.5594 0
M  V30 3 N 0.4604 -0.3024 0.0146 0
M  V30 4 C -1.8339 0.8303 -0.2074 0
M  V30 5 C 1.3682 -1.3895 -0.3655 0
M  V30 6 C 0.8967 0.7245 0.9673 0
M  V30 7 H -2.0423 0.8121 0.8824 0
M  V30 8 H -2.7923 0.6882 -0.7509 0
M  V30 9 H -1.413 1.8175 -0.4898 0
M  V30 10 H 0.917 -2.3667 -0.0917 0
M  V30 11 H 2.35 -1.3061 0.1459 0
M  V30 12 H 1.5453 -1.363 -1.4614 0
M  V30 13 H 0.8622 1.7241 0.4857 0
M  V30 14 H 0.2332 0.719 1.8574 0
M  V30 15 H 1.9362 0.5483 1.315 0
M  V30 END ATOM
M  V30 BEGIN BOND
M  V30 1 2 1 2
M  V30 2 1 2 3
M  V30 3 1 2 4
M  V30 4 1 3 5
M  V30 5 1 3 6
M  V30 6 1 4 7
M  V30 7 1 4 8
M  V30 8 1 4 9
M  V30 9 1 5 10
M  V30 10 1 5 11
M  V30 11 1 5 12
M  V30 12 1 6 13
M  V30 13 1 6 14
M  V30 14 1 6 15
M  V30 END BOND
M  V30 END CTAB
M  END
>  <Structure No>
2370

>  <LogS>
1.059872163

>  <MMFF94 Energy>
-12.502

$$$$
Compound 2371
Actelion Java MolfileCreator 2.0

  0  0  0  0  0  0              0 V3000
M  V30 BEGIN CTAB
M  V30 COUNTS 13 12 0 0 0
M  V30 BEGIN ATOM
M  V30 1 O 1.3964 -2.0176 -0.4653 0
M  V30 2 C 1.7724 -0.8274 -0.6352 0
M  V30 3 N 0.8392 0.2565 -0.5665 0
M  V30 4 C -0.5831 0.0522 -0.2784 0 CFG=2
M  V30 5 C -1.3545 1.2388 -0.6807 0
M  V30 6 C -0.7888 -0.216 1.2129 0
M  V30 7 N -1.9614 2.172 -0.9974 0
M  V30 8 H 2.8147 -0.624 -0.8412 0
M  V30 9 H 1.2019 1.2185 -0.7589 0
M  V30 10 H -0.9624 -0.8122 -0.8651 0
M  V30 11 H -0.2476 -1.1366 1.5158 0
M  V30 12 H -1.8685 -0.3625 1.4325 0
M  V30 13 H -0.4086 0.6356 1.8178 0
M  V30 END ATOM
M  V30 BEGIN BOND
M  V30 1 2 1 2
M  V30 2 1 2 3
M  V30 3 1 3 4
M  V30 4 1 4 5
M  V30 5 1 4 6
M  V30 6 3 5 7
M  V30 7 1 2 8
M  V30 8 1 3 9
M  V30 9 1 4 10
M  V30 10 1 6 11
M  V30 11 1 6 12
M  V30 12 1 6 13
M  V30 END BOND
M  V30 BEGIN COLLECTION
M  V30 MDLV30/STEABS ATOMS=(1 4)
M  V30 END COLLECTION
M  V30 END CTAB
M  END
>  <Structure No>
2371

>  <LogS>
1.008308858

>  <MMFF94 Energy>
-13.516

$$$$
Compound 2372
Actelion Java MolfileCreator 2.0

  0  0  0  0  0  0              0 V3000
M  V30 BEGIN CTAB
M  V30 COUNTS 17 16 0 0 0
M  V30 BEGIN ATOM
M  V30 1 N 0.075 1.0516 0.075 0 CHG=1
M  V30 2 C 1.3221 0.4079 0.5261 0
M  V30 3 C -1.1409 0.2856 0.4319 0
M  V30 4 C 1.6398 -0.866 -0.2594 0
M  V30 5 C -1.778 -0.3812 -0.7896 0
M  V30 6 H 0.1282 1.2402 -0.9538 0
M  V30 7 H 0.022 1.985 0.5471 0
M  V30 8 H 2.1662 1.1185 0.3823 0
M  V30 9 H 1.273 0.1773 1.6138 0
M  V30 10 H -0.9339 -0.4903 1.2024 0
M  V30 11 H -1.8982 0.9719 0.8735 0
M  V30 12 H 2.6511 -1.2292 0.0197 0
M  V30 13 H 0.909 -1.6656 -0.0197 0
M  V30 14 H 1.6256 -0.6629 -1.351 0
M  V30 15 H -2.674 -0.9566 -0.4744 0
M  V30 16 H -2.0934 0.3893 -1.5246 0
M  V30 17 H -1.0639 -1.0762 -1.2763 0
M  V30 END ATOM
M  V30 BEGIN BOND
M  V30 1 1 1 2
M  V30 2 1 1 3
M  V30 3 1 2 4
M  V30 4 1 3 5
M  V30 5 1 1 6
M  V30 6 1 1 7
M  V30 7 1 2 8
M  V30 8 1 2 9
M  V30 9 1 3 10
M  V30 10 1 3 11
M  V30 11 1 4 12
M  V30 12 1 4 13
M  V30 13 1 4 14
M  V30 14 1 5 15
M  V30 15 1 5 16
M  V30 16 1 5 17
M  V30 END BOND
M  V30 END CTAB
M  END
>  <Structure No>
2372

>  <LogS>
1.135850982

>  <MMFF94 Energy>
-0.063518

$$$$
Compound 2373
Actelion Java MolfileCreator 2.0

  0  0  0  0  0  0              0 V3000
M  V30 BEGIN CTAB
M  V30 COUNTS 12 11 0 0 0
M  V30 BEGIN ATOM
M  V30 1 O 0.3793 -1.67 0.0 0
M  V30 2 C 0.5776 -0.4393 0.1895 0
M  V30 3 N -0.5289 0.4627 0.3058 0
M  V30 4 C 1.9754 0.0817 0.2657 0
M  V30 5 C -1.9088 0.0 0.2302 0
M  V30 6 H -0.3456 1.4816 0.4491 0
M  V30 7 H 2.1939 0.6873 -0.6381 0
M  V30 8 H 2.0888 0.7181 1.1681 0
M  V30 9 H 2.7021 -0.7562 0.3251 0
M  V30 10 H -2.602 0.8597 0.3453 0
M  V30 11 H -2.1057 -0.7313 1.0423 0
M  V30 12 H -2.0917 -0.4795 -0.7542 0
M  V30 END ATOM
M  V30 BEGIN BOND
M  V30 1 2 1 2
M  V30 2 1 2 3
M  V30 3 1 2 4
M  V30 4 1 3 5
M  V30 5 1 3 6
M  V30 6 1 4 7
M  V30 7 1 4 8
M  V30 8 1 4 9
M  V30 9 1 5 10
M  V30 10 1 5 11
M  V30 11 1 5 12
M  V30 END BOND
M  V30 END CTAB
M  END
>  <Structure No>
2373

>  <LogS>
1.13611233

>  <MMFF94 Energy>
-25.234

$$$$
Compound 2374
Actelion Java MolfileCreator 2.0

  0  0  0  0  0  0              0 V3000
M  V30 BEGIN CTAB
M  V30 COUNTS 9 9 0 0 0
M  V30 BEGIN ATOM
M  V30 1 N -0.152 0.8364 0.228 0 CHG=1
M  V30 2 C 0.785 -0.2618 -0.0629 0
M  V30 3 C -0.6565 -0.5104 -0.0891 0
M  V30 4 H -0.2127 1.0796 1.2435 0
M  V30 5 H -0.2558 1.5198 -0.5569 0
M  V30 6 H 1.3181 -0.6215 0.8435 0
M  V30 7 H 1.2725 -0.1569 -1.0562 0
M  V30 8 H -1.1157 -0.5688 -1.0995 0
M  V30 9 H -1.0699 -1.0333 0.8002 0
M  V30 END ATOM
M  V30 BEGIN BOND
M  V30 1 1 1 2
M  V30 2 1 1 3
M  V30 3 1 2 3
M  V30 4 1 1 4
M  V30 5 1 1 5
M  V30 6 1 2 6
M  V30 7 1 2 7
M  V30 8 1 3 8
M  V30 9 1 3 9
M  V30 END BOND
M  V30 END CTAB
M  END
>  <Structure No>
2374

>  <LogS>
1.365835212

>  <MMFF94 Energy>
44.227

$$$$
Compound 2375
Actelion Java MolfileCreator 2.0

  0  0  0  0  0  0              0 V3000
M  V30 BEGIN CTAB
M  V30 COUNTS 16 15 0 0 0
M  V30 BEGIN ATOM
M  V30 1 O -0.2286 1.7542 -0.2286 0
M  V30 2 C 0.2822 0.5655 0.3198 0 CFG=2
M  V30 3 C 1.7378 0.4074 -0.1321 0
M  V30 4 C -0.5698 -0.6332 -0.1397 0
M  V30 5 O 2.3272 -0.6913 0.5074 0
M  V30 6 C -1.9993 -0.5582 0.3939 0
M  V30 7 H -0.8778 2.1237 0.4254 0
M  V30 8 H 0.277 0.6174 1.4355 0
M  V30 9 H 2.3009 1.3309 0.1316 0
M  V30 10 H 1.7792 0.2726 -1.2369 0
M  V30 11 H -0.5996 -0.6711 -1.2509 0
M  V30 12 H -0.1142 -1.5792 0.2255 0
M  V30 13 H 3.2576 -0.7419 0.1659 0
M  V30 14 H -1.9955 -0.4987 1.5032 0
M  V30 15 H -2.5253 0.327 -0.0213 0
M  V30 16 H -2.5564 -1.4697 0.0902 0
M  V30 END ATOM
M  V30 BEGIN BOND
M  V30 1 1 1 2
M  V30 2 1 2 3
M  V30 3 1 2 4
M  V30 4 1 3 5
M  V30 5 1 4 6
M  V30 6 1 1 7
M  V30 7 1 2 8
M  V30 8 1 3 9
M  V30 9 1 3 10
M  V30 10 1 4 11
M  V30 11 1 4 12
M  V30 12 1 5 13
M  V30 13 1 6 14
M  V30 14 1 6 15
M  V30 15 1 6 16
M  V30 END BOND
M  V30 BEGIN COLLECTION
M  V30 MDLV30/STEABS ATOMS=(1 2)
M  V30 END COLLECTION
M  V30 END CTAB
M  END
>  <Structure No>
2375

>  <LogS>
1.045169179

>  <MMFF94 Energy>
19.845

$$$$
Compound 2376
Actelion Java MolfileCreator 2.0

  0  0  0  0  0  0              0 V3000
M  V30 BEGIN CTAB
M  V30 COUNTS 16 15 0 0 0
M  V30 BEGIN ATOM
M  V30 1 O -0.534 1.6793 -0.3814 0
M  V30 2 C -0.5562 0.4457 0.2939 0 CFG=2
M  V30 3 C 0.5409 -0.505 -0.2494 0 CFG=2
M  V30 4 C -1.9522 -0.1823 0.1906 0
M  V30 5 O 0.5188 -1.7385 0.4259 0
M  V30 6 C 1.9369 0.1231 -0.1461 0
M  V30 7 H -0.7117 1.4988 -1.342 0
M  V30 8 H -0.3548 0.6455 1.3693 0
M  V30 9 H 0.3394 -0.7047 -1.3247 0
M  V30 10 H -2.1849 -0.4468 -0.863 0
M  V30 11 H -2.0129 -1.0985 0.8154 0
M  V30 12 H -2.7155 0.5377 0.5548 0
M  V30 13 H 0.6963 -1.558 1.3865 0
M  V30 14 H 1.9974 1.0394 -0.7708 0
M  V30 15 H 2.1694 0.3878 0.9076 0
M  V30 16 H 2.7001 -0.5968 -0.5102 0
M  V30 END ATOM
M  V30 BEGIN BOND
M  V30 1 1 1 2
M  V30 2 1 2 3
M  V30 3 1 2 4
M  V30 4 1 3 5
M  V30 5 1 3 6
M  V30 6 1 1 7
M  V30 7 1 2 8
M  V30 8 1 3 9
M  V30 9 1 4 10
M  V30 10 1 4 11
M  V30 11 1 4 12
M  V30 12 1 5 13
M  V30 13 1 6 14
M  V30 14 1 6 15
M  V30 15 1 6 16
M  V30 END BOND
M  V30 BEGIN COLLECTION
M  V30 MDLV30/STEABS ATOMS=(2 2 3)
M  V30 END COLLECTION
M  V30 END CTAB
M  END
>  <Structure No>
2376

>  <LogS>
1.045169179

>  <MMFF94 Energy>
25.889

$$$$
Compound 2377
Actelion Java MolfileCreator 2.0

  0  0  0  0  0  0              0 V3000
M  V30 BEGIN CTAB
M  V30 COUNTS 21 21 0 0 0
M  V30 BEGIN ATOM
M  V30 1 N -2.4065 0.0 -0.1551 0 CHG=1
M  V30 2 C -1.0125 -0.1432 0.2797 0
M  V30 3 C -0.2653 -1.1436 -0.626 0
M  V30 4 C -0.3015 1.2258 0.2712 0
M  V30 5 C 1.2043 -1.2761 -0.2072 0
M  V30 6 C 1.1681 1.087 0.6877 0
M  V30 7 C 1.9038 0.0882 -0.2133 0
M  V30 8 H -2.9112 0.6568 0.4838 0
M  V30 9 H -2.8869 -0.9283 -0.1164 0
M  V30 10 H -2.4513 0.3696 -1.1329 0
M  V30 11 H -1.0064 -0.5378 1.322 0
M  V30 12 H -0.3173 -0.8092 -1.6859 0
M  V30 13 H -0.7499 -2.1416 -0.5575 0
M  V30 14 H -0.3554 1.6759 -0.7448 0
M  V30 15 H -0.812 1.9148 0.9786 0
M  V30 16 H 1.2645 -1.7226 0.8098 0
M  V30 17 H 1.7263 -1.9587 -0.9117 0
M  V30 18 H 1.6645 2.0789 0.6172 0
M  V30 19 H 1.2267 0.7495 1.7461 0
M  V30 20 H 2.9473 -0.0328 0.1491 0
M  V30 21 H 1.9455 0.4825 -1.2526 0
M  V30 END ATOM
M  V30 BEGIN BOND
M  V30 1 1 1 2
M  V30 2 1 2 3
M  V30 3 1 2 4
M  V30 4 1 3 5
M  V30 5 1 4 6
M  V30 6 1 5 7
M  V30 7 1 6 7
M  V30 8 1 1 8
M  V30 9 1 1 9
M  V30 10 1 1 10
M  V30 11 1 2 11
M  V30 12 1 3 12
M  V30 13 1 3 13
M  V30 14 1 4 14
M  V30 15 1 4 15
M  V30 16 1 5 16
M  V30 17 1 5 17
M  V30 18 1 6 18
M  V30 19 1 6 19
M  V30 20 1 7 20
M  V30 21 1 7 21
M  V30 END BOND
M  V30 END CTAB
M  END
>  <Structure No>
2377

>  <LogS>
1.003589033

>  <MMFF94 Energy>
2.2008

$$$$
Compound 2378
Actelion Java MolfileCreator 2.0

  0  0  0  0  0  0              0 V3000
M  V30 BEGIN CTAB
M  V30 COUNTS 12 12 0 0 0
M  V30 BEGIN ATOM
M  V30 1 N 1.3808 -0.23 -0.0766 0 CHG=1
M  V30 2 C 0.0624 -0.1366 0.5551 0
M  V30 3 C -0.8563 0.9137 -0.0499 0
M  V30 4 C -1.0963 -0.5638 -0.3327 0
M  V30 5 H 1.7529 -1.1952 0.0715 0
M  V30 6 H 1.3558 -0.0287 -1.1033 0
M  V30 7 H 2.0211 0.4528 0.3879 0
M  V30 8 H -0.0276 -0.3308 1.6456 0
M  V30 9 H -1.5792 1.3577 0.6664 0
M  V30 10 H -0.4496 1.4811 -0.9141 0
M  V30 11 H -1.9608 -0.9923 0.2168 0
M  V30 12 H -0.8324 -0.8771 -1.3653 0
M  V30 END ATOM
M  V30 BEGIN BOND
M  V30 1 1 1 2
M  V30 2 1 2 3
M  V30 3 1 2 4
M  V30 4 1 3 4
M  V30 5 1 1 5
M  V30 6 1 1 6
M  V30 7 1 1 7
M  V30 8 1 2 8
M  V30 9 1 3 9
M  V30 10 1 3 10
M  V30 11 1 4 11
M  V30 12 1 4 12
M  V30 END BOND
M  V30 END CTAB
M  END
>  <Structure No>
2378

>  <LogS>
1.243394316

>  <MMFF94 Energy>
9.6331

$$$$
Compound 2379
Actelion Java MolfileCreator 2.0

  0  0  0  0  0  0              0 V3000
M  V30 BEGIN CTAB
M  V30 COUNTS 6 5 0 0 0
M  V30 BEGIN ATOM
M  V30 1 Cl 1.781 -1.2184 -0.4685 0
M  V30 2 C 0.6829 0.0924 -0.0751 0
M  V30 3 O 1.1503 1.2421 0.1365 0
M  V30 4 C -0.7632 -0.1436 0.0072 0
M  V30 5 Cl -1.8613 1.1671 0.4005 0
M  V30 6 O -1.2306 -1.2933 -0.2044 0
M  V30 END ATOM
M  V30 BEGIN BOND
M  V30 1 1 1 2
M  V30 2 2 2 3
M  V30 3 1 2 4
M  V30 4 1 4 5
M  V30 5 2 4 6
M  V30 END BOND
M  V30 END CTAB
M  END
>  <Structure No>
2379

>  <LogS>
0.896449406

>  <MMFF94 Energy>
49.444

$$$$
Compound 2380
Actelion Java MolfileCreator 2.0

  0  0  0  0  0  0              0 V3000
M  V30 BEGIN CTAB
M  V30 COUNTS 6 5 0 0 0
M  V30 BEGIN ATOM
M  V30 1 O -1.3908 0.8782 0.5122 0
M  V30 2 C -0.674 0.0716 -0.1355 0
M  V30 3 N 0.707 -0.0738 0.1818 0
M  V30 4 H -1.1101 -0.5118 -0.9353 0
M  V30 5 H 1.2985 -0.7437 -0.3574 0
M  V30 6 H 1.1364 0.4851 0.9522 0
M  V30 END ATOM
M  V30 BEGIN BOND
M  V30 1 2 1 2
M  V30 2 1 2 3
M  V30 3 1 2 4
M  V30 4 1 3 5
M  V30 5 1 3 6
M  V30 END BOND
M  V30 END CTAB
M  END
>  <Structure No>
2380

>  <LogS>
1.346391976

>  <MMFF94 Energy>
-31.038

$$$$
Compound 2381
Actelion Java MolfileCreator 2.0

  0  0  0  0  0  0              0 V3000
M  V30 BEGIN CTAB
M  V30 COUNTS 8 7 0 0 0
M  V30 BEGIN ATOM
M  V30 1 S 0.7869 0.0 0.0874 0
M  V30 2 O 1.3976 -1.168 -0.6334 0
M  V30 3 O 1.1862 -0.0415 1.5351 0
M  V30 4 O 1.3344 1.4303 -0.6021 0 CHG=-1
M  V30 5 C -0.9844 -0.0805 -0.0434 0
M  V30 6 H -1.3486 -1.0247 0.4116 0
M  V30 7 H -1.4353 0.7826 0.4882 0
M  V30 8 H -1.2792 -0.0488 -1.1124 0
M  V30 END ATOM
M  V30 BEGIN BOND
M  V30 1 2 1 2
M  V30 2 2 1 3
M  V30 3 1 1 4
M  V30 4 1 1 5
M  V30 5 1 5 6
M  V30 6 1 5 7
M  V30 7 1 5 8
M  V30 END BOND
M  V30 END CTAB
M  END
>  <Structure No>
2381

>  <LogS>
1.017244979

>  <MMFF94 Energy>
8.5303

$$$$
Compound 2382
Actelion Java MolfileCreator 2.0

  0  0  0  0  0  0              0 V3000
M  V30 BEGIN CTAB
M  V30 COUNTS 16 15 0 0 0
M  V30 BEGIN ATOM
M  V30 1 O 1.472 -1.0845 0.2323 0
M  V30 2 C 0.6144 -0.5211 -0.5012 0
M  V30 3 O 0.9557 0.5941 -1.2712 0
M  V30 4 C -0.7863 -1.0433 -0.545 0
M  V30 5 C 2.2625 1.1553 -1.2681 0
M  V30 6 O -1.6935 -0.041 -0.1239 0
M  V30 7 C -1.9983 -0.1731 1.2519 0
M  V30 8 O -0.8829 0.1304 2.0461 0
M  V30 9 H -0.8707 -1.997 0.0272 0
M  V30 10 H -1.0201 -1.2956 -1.6001 0
M  V30 11 H 2.5281 1.4942 -0.2444 0
M  V30 12 H 3.0005 0.4026 -1.6178 0
M  V30 13 H 2.2863 2.0275 -1.953 0
M  V30 14 H -2.8262 0.527 1.4985 0
M  V30 15 H -2.3699 -1.1934 1.4951 0
M  V30 16 H -0.6782 1.0881 1.884 0
M  V30 END ATOM
M  V30 BEGIN BOND
M  V30 1 2 1 2
M  V30 2 1 2 3
M  V30 3 1 2 4
M  V30 4 1 3 5
M  V30 5 1 4 6
M  V30 6 1 6 7
M  V30 7 1 7 8
M  V30 8 1 4 9
M  V30 9 1 4 10
M  V30 10 1 5 11
M  V30 11 1 5 12
M  V30 12 1 5 13
M  V30 13 1 7 14
M  V30 14 1 7 15
M  V30 15 1 8 16
M  V30 END BOND
M  V30 END CTAB
M  END
>  <Structure No>
2382

>  <LogS>
0.920442528

>  <MMFF94 Energy>
-1.1635

$$$$
Compound 2383
Actelion Java MolfileCreator 2.0

  0  0  0  0  0  0              0 V3000
M  V30 BEGIN CTAB
M  V30 COUNTS 10 9 0 0 0
M  V30 BEGIN ATOM
M  V30 1 N -0.1444 0.5055 -0.1444 0 CHG=1
M  V30 2 N -1.2494 -0.35 0.0394 0
M  V30 3 C 1.0493 -0.1319 0.4091 0
M  V30 4 H -0.0097 0.6954 -1.1662 0
M  V30 5 H -0.3219 1.4018 0.3671 0
M  V30 6 H -1.1694 -1.1455 -0.6375 0
M  V30 7 H -2.1124 0.1775 -0.2303 0
M  V30 8 H 1.2706 -1.0779 -0.1317 0
M  V30 9 H 1.9219 0.5474 0.3003 0
M  V30 10 H 0.905 -0.3517 1.4898 0
M  V30 END ATOM
M  V30 BEGIN BOND
M  V30 1 1 1 2
M  V30 2 1 1 3
M  V30 3 1 1 4
M  V30 4 1 1 5
M  V30 5 1 2 6
M  V30 6 1 2 7
M  V30 7 1 3 8
M  V30 8 1 3 9
M  V30 9 1 3 10
M  V30 END BOND
M  V30 END CTAB
M  END
>  <Structure No>
2383

>  <LogS>
1.336553508

>  <MMFF94 Energy>
97.112

$$$$
Compound 2384
Actelion Java MolfileCreator 2.0

  0  0  0  0  0  0              0 V3000
M  V30 BEGIN CTAB
M  V30 COUNTS 15 15 0 0 0
M  V30 BEGIN ATOM
M  V30 1 O -1.3516 -2.5455 -0.3179 0
M  V30 2 C -0.6904 -1.4919 -0.1253 0
M  V30 3 O 0.6779 -1.5827 0.1533 0
M  V30 4 C -1.402 -0.1686 -0.0785 0
M  V30 5 C 1.5541 -0.4568 0.1031 0
M  V30 6 C -0.4373 1.0023 -0.292 0
M  V30 7 C 0.8375 0.8236 0.5355 0
M  V30 8 H -1.8875 -0.0663 0.9157 0
M  V30 9 H -2.1946 -0.1387 -0.8569 0
M  V30 10 H 2.426 -0.6426 0.765 0
M  V30 11 H 1.9281 -0.3375 -0.9365 0
M  V30 12 H -0.939 1.9497 0.0012 0
M  V30 13 H -0.1743 1.0764 -1.3704 0
M  V30 14 H 0.5828 0.7657 1.6165 0
M  V30 15 H 1.509 1.695 0.3791 0
M  V30 END ATOM
M  V30 BEGIN BOND
M  V30 1 2 1 2
M  V30 2 1 2 3
M  V30 3 1 2 4
M  V30 4 1 3 5
M  V30 5 1 4 6
M  V30 6 1 5 7
M  V30 7 1 6 7
M  V30 8 1 4 8
M  V30 9 1 4 9
M  V30 10 1 5 10
M  V30 11 1 5 11
M  V30 12 1 6 12
M  V30 13 1 6 13
M  V30 14 1 7 14
M  V30 15 1 7 15
M  V30 END BOND
M  V30 END CTAB
M  END
>  <Structure No>
2384

>  <LogS>
0.999492173

>  <MMFF94 Energy>
-2.2257

$$$$
Compound 2385
Actelion Java MolfileCreator 2.0

  0  0  0  0  0  0              0 V3000
M  V30 BEGIN CTAB
M  V30 COUNTS 19 18 0 0 0
M  V30 BEGIN ATOM
M  V30 1 O -0.9959 -1.1492 -1.5326 0
M  V30 2 C -0.9617 -0.9386 -0.1442 0 CFG=2
M  V30 3 C -1.9606 0.1643 0.2441 0
M  V30 4 C 0.4843 -0.6303 0.296 0
M  V30 5 O -1.922 0.392 1.6262 0
M  V30 6 C 1.0805 0.618 -0.3755 0
M  V30 7 C 2.5521 0.7883 -0.0081 0
M  V30 8 H -1.8371 -1.639 -1.7296 0
M  V30 9 H -1.2672 -1.8768 0.3763 0
M  V30 10 H -2.985 -0.1617 -0.044 0
M  V30 11 H -1.7347 1.104 -0.3062 0
M  V30 12 H 1.1141 -1.5118 0.0433 0
M  V30 13 H 0.5198 -0.5084 1.4009 0
M  V30 14 H -2.5757 1.1172 1.8044 0
M  V30 15 H 0.9972 0.5347 -1.4805 0
M  V30 16 H 0.5328 1.526 -0.0456 0
M  V30 17 H 3.1411 -0.0868 -0.356 0
M  V30 18 H 2.6653 0.8933 1.0921 0
M  V30 19 H 2.9537 1.7019 -0.4952 0
M  V30 END ATOM
M  V30 BEGIN BOND
M  V30 1 1 1 2
M  V30 2 1 2 3
M  V30 3 1 2 4
M  V30 4 1 3 5
M  V30 5 1 4 6
M  V30 6 1 6 7
M  V30 7 1 1 8
M  V30 8 1 2 9
M  V30 9 1 3 10
M  V30 10 1 3 11
M  V30 11 1 4 12
M  V30 12 1 4 13
M  V30 13 1 5 14
M  V30 14 1 6 15
M  V30 15 1 6 16
M  V30 16 1 7 17
M  V30 17 1 7 18
M  V30 18 1 7 19
M  V30 END BOND
M  V30 BEGIN COLLECTION
M  V30 MDLV30/STEABS ATOMS=(1 2)
M  V30 END COLLECTION
M  V30 END CTAB
M  END
>  <Structure No>
2385

>  <LogS>
0.982344896

>  <MMFF94 Energy>
20.199

$$$$
Compound 2386
Actelion Java MolfileCreator 2.0

  0  0  0  0  0  0              0 V3000
M  V30 BEGIN CTAB
M  V30 COUNTS 19 18 0 0 0
M  V30 BEGIN ATOM
M  V30 1 O -2.7584 0.6124 -1.5317 0
M  V30 2 C -2.5742 0.4529 -0.15 0
M  V30 3 C -1.4007 -0.4888 0.1352 0
M  V30 4 C -0.0577 0.1225 -0.2857 0
M  V30 5 C 1.1063 -0.8113 0.0718 0
M  V30 6 C 2.4527 -0.2332 -0.3667 0
M  V30 7 O 2.7324 0.9368 0.3514 0
M  V30 8 H -2.2204 1.4003 -1.8053 0
M  V30 9 H -3.4979 0.0062 0.2748 0
M  V30 10 H -2.4188 1.4353 0.354 0
M  V30 11 H -1.38 -0.703 1.2263 0
M  V30 12 H -1.5632 -1.4487 -0.4022 0
M  V30 13 H 0.0786 1.0984 0.23 0
M  V30 14 H -0.0587 0.2988 -1.3834 0
M  V30 15 H 0.9602 -1.7909 -0.4338 0
M  V30 16 H 1.1257 -0.9877 1.1698 0
M  V30 17 H 2.4332 -0.0165 -1.4585 0
M  V30 18 H 3.247 -0.9872 -0.1705 0
M  V30 19 H 3.6085 1.2616 0.017 0
M  V30 END ATOM
M  V30 BEGIN BOND
M  V30 1 1 1 2
M  V30 2 1 2 3
M  V30 3 1 3 4
M  V30 4 1 4 5
M  V30 5 1 5 6
M  V30 6 1 6 7
M  V30 7 1 1 8
M  V30 8 1 2 9
M  V30 9 1 2 10
M  V30 10 1 3 11
M  V30 11 1 3 12
M  V30 12 1 4 13
M  V30 13 1 4 14
M  V30 14 1 5 15
M  V30 15 1 5 16
M  V30 16 1 6 17
M  V30 17 1 6 18
M  V30 18 1 7 19
M  V30 END BOND
M  V30 END CTAB
M  END
>  <Structure No>
2386

>  <LogS>
0.982344896

>  <MMFF94 Energy>
2.1173

$$$$
Compound 2387
Actelion Java MolfileCreator 2.0

  0  0  0  0  0  0              0 V3000
M  V30 BEGIN CTAB
M  V30 COUNTS 17 16 0 0 0
M  V30 BEGIN ATOM
M  V30 1 N -0.7409 1.4082 -0.074 0 CHG=1
M  V30 2 C -0.6044 0.0621 0.4976 0 CFG=2
M  V30 3 C 0.8801 -0.3386 0.6877 0
M  V30 4 C -1.3858 -0.9653 -0.3347 0
M  V30 5 N 1.6482 -0.3398 -0.5603 0 CHG=1
M  V30 6 H -0.4578 1.4195 -1.0804 0
M  V30 7 H -1.7387 1.7155 -0.0066 0
M  V30 8 H -0.1535 2.0882 0.4613 0
M  V30 9 H -1.0622 0.07 1.5131 0
M  V30 10 H 1.3547 0.3665 1.4059 0
M  V30 11 H 0.9285 -1.3501 1.1492 0
M  V30 12 H -2.4703 -0.727 -0.3009 0
M  V30 13 H -1.0628 -0.9521 -1.3964 0
M  V30 14 H -1.2425 -1.9867 0.0775 0
M  V30 15 H 2.625 -0.6488 -0.3516 0
M  V30 16 H 1.2363 -1.007 -1.2501 0
M  V30 17 H 1.6927 0.6215 -0.9669 0
M  V30 END ATOM
M  V30 BEGIN BOND
M  V30 1 1 1 2
M  V30 2 1 2 3
M  V30 3 1 2 4
M  V30 4 1 3 5
M  V30 5 1 1 6
M  V30 6 1 1 7
M  V30 7 1 1 8
M  V30 8 1 2 9
M  V30 9 1 3 10
M  V30 10 1 3 11
M  V30 11 1 4 12
M  V30 12 1 4 13
M  V30 13 1 4 14
M  V30 14 1 5 15
M  V30 15 1 5 16
M  V30 16 1 5 17
M  V30 END BOND
M  V30 BEGIN COLLECTION
M  V30 MDLV30/STEABS ATOMS=(1 2)
M  V30 END COLLECTION
M  V30 END CTAB
M  END
>  <Structure No>
2387

>  <LogS>
1.130023576

>  <MMFF94 Energy>
116.03

$$$$
Compound 2388
Actelion Java MolfileCreator 2.0

  0  0  0  0  0  0              0 V3000
M  V30 BEGIN CTAB
M  V30 COUNTS 10 9 0 0 0
M  V30 BEGIN ATOM
M  V30 1 O 2.184 -0.1558 0.6236 0
M  V30 2 C 1.3483 0.3723 -0.1559 0
M  V30 3 O 1.5573 1.6665 -0.615 0 CHG=-1
M  V30 4 C 0.1094 -0.3692 -0.5458 0
M  V30 5 C -1.0189 -0.0849 0.4384 0
M  V30 6 H 0.316 -1.4611 -0.5669 0
M  V30 7 H -0.2027 -0.0558 -1.565 0
M  V30 8 H -0.731 -0.4125 1.4604 0
M  V30 9 H -1.2537 1.0008 0.4534 0
M  V30 10 H -1.9292 -0.6411 0.1306 0
M  V30 END ATOM
M  V30 BEGIN BOND
M  V30 1 2 1 2
M  V30 2 1 2 3
M  V30 3 1 2 4
M  V30 4 1 4 5
M  V30 5 1 4 6
M  V30 6 1 4 7
M  V30 7 1 5 8
M  V30 8 1 5 9
M  V30 9 1 5 10
M  V30 END BOND
M  V30 END CTAB
M  END
>  <Structure No>
2388

>  <LogS>
1.130304889

>  <MMFF94 Energy>
1.8575

$$$$
Compound 2389
Actelion Java MolfileCreator 2.0

  0  0  0  0  0  0              0 V3000
M  V30 BEGIN CTAB
M  V30 COUNTS 7 6 0 0 0
M  V30 BEGIN ATOM
M  V30 1 Cl -1.2866 0.7916 -1.3856 0
M  V30 2 C -0.5917 -0.0482 0.0204 0
M  V30 3 Cl -1.169 0.7455 1.5094 0
M  V30 4 Cl -1.1677 -1.7367 0.0296 0
M  V30 5 C 0.9062 0.0048 -0.0628 0
M  V30 6 O 1.5371 -0.8557 -0.7323 0
M  V30 7 O 1.6059 1.0532 0.5235 0 CHG=-1
M  V30 END ATOM
M  V30 BEGIN BOND
M  V30 1 1 1 2
M  V30 2 1 2 3
M  V30 3 1 2 4
M  V30 4 1 2 5
M  V30 5 2 5 6
M  V30 6 1 5 7
M  V30 END BOND
M  V30 END CTAB
M  END
>  <Structure No>
2389

>  <LogS>
0.731962893

>  <MMFF94 Energy>
124.22

$$$$
Compound 2390
Actelion Java MolfileCreator 2.0

  0  0  0  0  0  0              0 V3000
M  V30 BEGIN CTAB
M  V30 COUNTS 124 129 0 0 0
M  V30 BEGIN ATOM
M  V30 1 S -1.5695 -1.3216 1.3216 0
M  V30 2 O -0.5828 -1.3679 2.4539 0
M  V30 3 O -0.9129 -1.7816 0.0514 0
M  V30 4 O -2.8389 -2.3679 1.6685 0 CHG=-1
M  V30 5 C -2.1708 0.331 1.1158 0
M  V30 6 C -1.3317 1.3873 0.6794 0
M  V30 7 C -3.5284 0.5859 1.3745 0
M  V30 8 C -1.887 2.6753 0.5307 0
M  V30 9 C 0.129 1.1853 0.4742 0
M  V30 10 C -4.0732 1.8639 1.1827 0
M  V30 11 C -3.2384 2.905 0.7758 0
M  V30 12 C 0.8469 1.9143 -0.3905 0
M  V30 13 N -5.4536 2.149 1.4594 0
M  V30 14 C 2.3189 1.8691 -0.4161 0
M  V30 15 C -6.5556 1.3136 1.0748 0
M  V30 16 C 3.0605 0.7228 -0.792 0
M  V30 17 C 2.9969 3.0493 -0.0859 0
M  V30 18 N -7.8202 1.7984 1.1745 0
M  V30 19 N -6.3567 0.0694 0.5657 0
M  V30 20 S 2.2853 -0.7747 -1.3312 0
M  V30 21 C 4.4669 0.7791 -0.7773 0
M  V30 22 C 4.3885 3.0889 -0.0739 0
M  V30 23 C -8.8828 1.0614 0.7602 0
M  V30 24 C -7.4137 -0.6937 0.189 0
M  V30 25 O 2.0399 -1.6615 -0.1448 0
M  V30 26 O 3.1816 -1.4858 -2.3047 0
M  V30 27 O 0.8313 -0.4522 -2.1105 0 CHG=-1
M  V30 28 C 5.1384 1.9537 -0.3972 0
M  V30 29 N -8.6691 -0.1867 0.2733 0
M  V30 30 N -10.2223 1.6001 0.8254 0
M  V30 31 N -7.1961 -2.0101 -0.3372 0
M  V30 32 N 6.5728 2.06 -0.4182 0
M  V30 33 C -11.376 0.6798 0.8002 0
M  V30 34 C -10.4372 3.0282 1.1314 0
M  V30 35 C -8.2465 -2.9746 -0.5108 0
M  V30 36 C 7.5042 1.0327 -0.0475 0
M  V30 37 C -12.0986 0.667 -0.5629 0 CFG=1
M  V30 38 C -10.2784 3.9368 -0.1124 0 CFG=1
M  V30 39 C -8.2151 -3.8405 -1.6128 0
M  V30 40 C -9.2846 -3.0988 0.4325 0
M  V30 41 N 7.1036 -0.239 0.209 0
M  V30 42 N 8.8187 1.3504 0.0622 0
M  V30 43 O -12.747 1.8882 -0.7927 0
M  V30 44 C -11.1504 0.3649 -1.7253 0
M  V30 45 O -10.8131 5.209 0.1545 0
M  V30 46 C -8.8276 4.0765 -0.5892 0
M  V30 47 C -9.228 -4.787 -1.7967 0
M  V30 48 C -10.2969 -4.0456 0.2471 0
M  V30 49 C 8.0134 -1.1902 0.5579 0
M  V30 50 C 9.7296 0.4205 0.445 0
M  V30 51 C -10.2761 -4.8877 -0.8739 0
M  V30 52 N 9.3211 -0.8497 0.6861 0
M  V30 53 N 7.6002 -2.5544 0.7716 0
M  V30 54 N 11.1242 0.7489 0.5315 0
M  V30 55 S -11.5421 -6.0839 -1.1164 0
M  V30 56 C 8.0545 -3.2397 1.9962 0
M  V30 57 C 6.4554 -3.1057 0.0208 0
M  V30 58 C 11.6524 2.0538 0.2379 0
M  V30 59 O -12.7615 -5.7211 -0.3133 0
M  V30 60 O -11.0447 -7.4357 -0.6852 0
M  V30 61 O -11.9625 -6.1294 -2.7422 0 CHG=-1
M  V30 62 C 9.27 -4.1565 1.7626 0 CFG=2
M  V30 63 C 6.5971 -2.9325 -1.5082 0 CFG=2
M  V30 64 C 11.0238 3.2214 0.7089 0
M  V30 65 C 12.8287 2.1663 -0.5171 0
M  V30 66 O 10.2339 -3.5053 0.9729 0
M  V30 67 C 8.8764 -5.4913 1.1203 0
M  V30 68 O 5.4519 -3.457 -2.1268 0
M  V30 69 C 7.8399 -3.6325 -2.0644 0
M  V30 70 C 11.5395 4.4784 0.3836 0
M  V30 71 C 13.3459 3.424 -0.8403 0
M  V30 72 C 12.6944 4.5878 -0.4008 0
M  V30 73 S 13.323 6.1806 -0.8109 0
M  V30 74 O 12.2052 7.0345 -1.3415 0
M  V30 75 O 14.3899 6.0657 -1.8624 0
M  V30 76 O 13.9731 6.8916 0.563 0 CHG=-1
M  V30 77 H -4.1543 -0.2105 1.7526 0
M  V30 78 H -1.2733 3.5253 0.2601 0
M  V30 79 H 0.6451 0.4504 1.0786 0
M  V30 80 H -3.6356 3.9051 0.6544 0
M  V30 81 H 0.3708 2.672 -0.9989 0
M  V30 82 H -5.6909 3.116 1.7807 0
M  V30 83 H 2.4446 3.9434 0.1788 0
M  V30 84 H 5.0272 -0.0827 -1.1093 0
M  V30 85 H 4.8869 4.0128 0.1977 0
M  V30 86 H -6.2376 -2.2507 -0.679 0
M  V30 87 H 6.9765 3.0164 -0.5476 0
M  V30 88 H -11.0597 -0.3541 1.0523 0
M  V30 89 H -12.1011 0.9627 1.5919 0
M  V30 90 H -9.7513 3.3553 1.9435 0
M  V30 91 H -11.4658 3.1754 1.5262 0
M  V30 92 H -12.8582 -0.1491 -0.5407 0
M  V30 93 H -10.8598 3.5049 -0.9504 0
M  V30 94 H -7.4117 -3.7698 -2.3367 0
M  V30 95 H -9.2993 -2.4865 1.3218 0
M  V30 96 H -13.548 1.905 -0.2077 0
M  V30 97 H -10.3685 1.1483 -1.8164 0
M  V30 98 H -11.7244 0.3351 -2.6769 0
M  V30 99 H -10.6655 -0.626 -1.5827 0
M  V30 100 H -10.2923 5.6004 0.9053 0
M  V30 101 H -8.7647 4.8625 -1.3695 0
M  V30 102 H -8.1583 4.3635 0.2517 0
M  V30 103 H -8.4735 3.1266 -1.0437 0
M  V30 104 H -9.1994 -5.4375 -2.6623 0
M  V30 105 H -11.0824 -4.1319 0.9867 0
M  V30 106 H 11.8004 -0.0397 0.6503 0
M  V30 107 H 7.2195 -3.8286 2.4404 0
M  V30 108 H 8.3195 -2.4814 2.7689 0
M  V30 109 H 5.5252 -2.5985 0.3564 0
M  V30 110 H 6.3342 -4.1895 0.2454 0
M  V30 111 H 9.703 -4.3842 2.7658 0
M  V30 112 H 6.6723 -1.8471 -1.746 0
M  V30 113 H 10.1446 3.1635 1.3367 0
M  V30 114 H 13.3293 1.2774 -0.8765 0
M  V30 115 H 11.1007 -3.9597 1.147 0
M  V30 116 H 8.0892 -5.9946 1.7198 0
M  V30 117 H 8.5048 -5.3363 0.0934 0
M  V30 118 H 9.7644 -6.1572 1.0755 0
M  V30 119 H 5.4358 -3.1035 -3.0537 0
M  V30 120 H 7.7299 -4.7359 -1.9844 0
M  V30 121 H 8.7549 -3.3049 -1.5265 0
M  V30 122 H 7.9623 -3.3752 -3.1373 0
M  V30 123 H 11.0435 5.3709 0.7443 0
M  V30 124 H 14.2429 3.4885 -1.4393 0
M  V30 END ATOM
M  V30 BEGIN BOND
M  V30 1 2 1 2
M  V30 2 2 1 3
M  V30 3 1 1 4
M  V30 4 1 1 5
M  V30 5 2 5 6
M  V30 6 1 5 7
M  V30 7 1 6 8
M  V30 8 1 6 9
M  V30 9 2 7 10
M  V30 10 2 8 11
M  V30 11 2 9 12
M  V30 12 1 10 13
M  V30 13 1 12 14
M  V30 14 1 13 15
M  V30 15 2 14 16
M  V30 16 1 14 17
M  V30 17 2 15 18
M  V30 18 1 15 19
M  V30 19 1 16 20
M  V30 20 1 16 21
M  V30 21 2 17 22
M  V30 22 1 18 23
M  V30 23 2 19 24
M  V30 24 2 20 25
M  V30 25 2 20 26
M  V30 26 1 20 27
M  V30 27 2 21 28
M  V30 28 2 23 29
M  V30 29 1 23 30
M  V30 30 1 24 31
M  V30 31 1 28 32
M  V30 32 1 30 33
M  V30 33 1 30 34
M  V30 34 1 31 35
M  V30 35 1 32 36
M  V30 36 1 33 37
M  V30 37 1 34 38
M  V30 38 2 35 39
M  V30 39 1 35 40
M  V30 40 2 36 41
M  V30 41 1 36 42
M  V30 42 1 37 43
M  V30 43 1 37 44
M  V30 44 1 38 45
M  V30 45 1 38 46
M  V30 46 1 39 47
M  V30 47 2 40 48
M  V30 48 1 41 49
M  V30 49 2 42 50
M  V30 50 2 47 51
M  V30 51 2 49 52
M  V30 52 1 49 53
M  V30 53 1 50 54
M  V30 54 1 51 55
M  V30 55 1 53 56
M  V30 56 1 53 57
M  V30 57 1 54 58
M  V30 58 2 55 59
M  V30 59 2 55 60
M  V30 60 1 55 61
M  V30 61 1 56 62
M  V30 62 1 57 63
M  V30 63 2 58 64
M  V30 64 1 58 65
M  V30 65 1 62 66
M  V30 66 1 62 67
M  V30 67 1 63 68
M  V30 68 1 63 69
M  V30 69 1 64 70
M  V30 70 2 65 71
M  V30 71 2 70 72
M  V30 72 1 72 73
M  V30 73 2 73 74
M  V30 74 2 73 75
M  V30 75 1 73 76
M  V30 76 1 10 11
M  V30 77 1 22 28
M  V30 78 1 24 29
M  V30 79 1 48 51
M  V30 80 1 50 52
M  V30 81 1 71 72
M  V30 82 1 7 77
M  V30 83 1 8 78
M  V30 84 1 9 79
M  V30 85 1 11 80
M  V30 86 1 12 81
M  V30 87 1 13 82
M  V30 88 1 17 83
M  V30 89 1 21 84
M  V30 90 1 22 85
M  V30 91 1 31 86
M  V30 92 1 32 87
M  V30 93 1 33 88
M  V30 94 1 33 89
M  V30 95 1 34 90
M  V30 96 1 34 91
M  V30 97 1 37 92
M  V30 98 1 38 93
M  V30 99 1 39 94
M  V30 100 1 40 95
M  V30 101 1 43 96
M  V30 102 1 44 97
M  V30 103 1 44 98
M  V30 104 1 44 99
M  V30 105 1 45 100
M  V30 106 1 46 101
M  V30 107 1 46 102
M  V30 108 1 46 103
M  V30 109 1 47 104
M  V30 110 1 48 105
M  V30 111 1 54 106
M  V30 112 1 56 107
M  V30 113 1 56 108
M  V30 114 1 57 109
M  V30 115 1 57 110
M  V30 116 1 62 111
M  V30 117 1 63 112
M  V30 118 1 64 113
M  V30 119 1 65 114
M  V30 120 1 66 115
M  V30 121 1 67 116
M  V30 122 1 67 117
M  V30 123 1 67 118
M  V30 124 1 68 119
M  V30 125 1 69 120
M  V30 126 1 69 121
M  V30 127 1 69 122
M  V30 128 1 70 123
M  V30 129 1 71 124
M  V30 END BOND
M  V30 BEGIN COLLECTION
M  V30 MDLV30/STEABS ATOMS=(4 37 38 62 63)
M  V30 END COLLECTION
M  V30 END CTAB
M  END
>  <Structure No>
2390

>  <LogS>
-0.086773993

>  <MMFF94 Energy>
-108.75

$$$$
Compound 2391
Actelion Java MolfileCreator 2.0

  0  0  0  0  0  0              0 V3000
M  V30 BEGIN CTAB
M  V30 COUNTS 44 43 0 0 0
M  V30 BEGIN ATOM
M  V30 1 N -0.3092 0.3092 0.0773 0 CHG=1
M  V30 2 C 0.8753 -0.5532 0.416 0
M  V30 3 C 0.2071 1.6144 -0.4811 0
M  V30 4 C -1.1429 -0.3949 -0.9559 0
M  V30 5 C -1.1196 0.544 1.3095 0
M  V30 6 C 1.9042 0.0937 1.3813 0
M  V30 7 C -0.7611 2.5074 -1.3113 0
M  V30 8 C -1.6478 -1.8163 -0.5726 0
M  V30 9 C 2.9127 -0.9258 1.9349 0
M  V30 10 C -1.8833 3.2197 -0.5379 0
M  V30 11 C -0.8613 -2.9316 -1.2802 0
M  V30 12 C 3.8425 -1.484 0.8579 0
M  V30 13 C -1.3625 4.2251 0.4893 0
M  V30 14 C -1.3707 -4.3105 -0.8709 0
M  V30 15 H 1.4132 -0.8314 -0.518 0
M  V30 16 H 0.545 -1.5044 0.8853 0
M  V30 17 H 1.0536 1.4014 -1.1744 0
M  V30 18 H 0.6509 2.2426 0.3202 0
M  V30 19 H -2.0611 0.1978 -1.1619 0
M  V30 20 H -0.5923 -0.4424 -1.9237 0
M  V30 21 H -2.1945 0.6973 1.0865 0
M  V30 22 H -1.0814 -0.3231 2.0042 0
M  V30 23 H -0.7607 1.4202 1.8884 0
M  V30 24 H 1.3826 0.5458 2.2495 0
M  V30 25 H 2.4663 0.9008 0.8647 0
M  V30 26 H -0.1433 3.2996 -1.7895 0
M  V30 27 H -1.1924 1.9502 -2.1671 0
M  V30 28 H -2.7113 -1.9058 -0.8882 0
M  V30 29 H -1.6426 -1.9809 0.5234 0
M  V30 30 H 2.3766 -1.7623 2.4334 0
M  V30 31 H 3.5349 -0.4213 2.7057 0
M  V30 32 H -2.5682 2.4989 -0.0585 0
M  V30 33 H -2.4966 3.7811 -1.2758 0
M  V30 34 H 0.2181 -2.8672 -1.0344 0
M  V30 35 H -0.9719 -2.8224 -2.381 0
M  V30 36 H 3.2782 -2.1186 0.1433 0
M  V30 37 H 4.3406 -0.6578 0.3074 0
M  V30 38 H 4.6237 -2.1126 1.3348 0
M  V30 39 H -0.6612 4.9414 0.0108 0
M  V30 40 H -2.2164 4.797 0.9101 0
M  V30 41 H -0.849 3.7124 1.3263 0
M  V30 42 H -2.4445 -4.4197 -1.1342 0
M  V30 43 H -1.2439 -4.4589 0.2227 0
M  V30 44 H -0.7927 -5.094 -1.4045 0
M  V30 END ATOM
M  V30 BEGIN BOND
M  V30 1 1 1 2
M  V30 2 1 1 3
M  V30 3 1 1 4
M  V30 4 1 1 5
M  V30 5 1 2 6
M  V30 6 1 3 7
M  V30 7 1 4 8
M  V30 8 1 6 9
M  V30 9 1 7 10
M  V30 10 1 8 11
M  V30 11 1 9 12
M  V30 12 1 10 13
M  V30 13 1 11 14
M  V30 14 1 2 15
M  V30 15 1 2 16
M  V30 16 1 3 17
M  V30 17 1 3 18
M  V30 18 1 4 19
M  V30 19 1 4 20
M  V30 20 1 5 21
M  V30 21 1 5 22
M  V30 22 1 5 23
M  V30 23 1 6 24
M  V30 24 1 6 25
M  V30 25 1 7 26
M  V30 26 1 7 27
M  V30 27 1 8 28
M  V30 28 1 8 29
M  V30 29 1 9 30
M  V30 30 1 9 31
M  V30 31 1 10 32
M  V30 32 1 10 33
M  V30 33 1 11 34
M  V30 34 1 11 35
M  V30 35 1 12 36
M  V30 36 1 12 37
M  V30 37 1 12 38
M  V30 38 1 13 39
M  V30 39 1 13 40
M  V30 40 1 13 41
M  V30 41 1 14 42
M  V30 42 1 14 43
M  V30 43 1 14 44
M  V30 END BOND
M  V30 END CTAB
M  END
>  <Structure No>
2391

>  <LogS>
0.485061956

>  <MMFF94 Energy>
20.125

$$$$
Compound 2392
Actelion Java MolfileCreator 2.0

  0  0  0  0  0  0              0 V3000
M  V30 BEGIN CTAB
M  V30 COUNTS 7 6 0 0 0
M  V30 BEGIN ATOM
M  V30 1 F -1.2095 -0.7774 -0.8638 0
M  V30 2 C -0.6104 -0.0726 0.1627 0
M  V30 3 F -0.7897 -0.7578 1.3504 0
M  V30 4 F -1.203 1.1728 0.268 0
M  V30 5 C 0.848 0.0782 -0.1244 0
M  V30 6 O 1.2515 0.9979 -0.8838 0
M  V30 7 O 1.76 -0.8329 0.3934 0 CHG=-1
M  V30 END ATOM
M  V30 BEGIN BOND
M  V30 1 1 1 2
M  V30 2 1 2 3
M  V30 3 1 2 4
M  V30 4 1 2 5
M  V30 5 2 5 6
M  V30 6 1 5 7
M  V30 END BOND
M  V30 END CTAB
M  END
>  <Structure No>
2392

>  <LogS>
0.943011346

>  <MMFF94 Energy>
154.28

$$$$
Compound 2393
Actelion Java MolfileCreator 2.0

  0  0  0  0  0  0              0 V3000
M  V30 BEGIN CTAB
M  V30 COUNTS 13 13 0 0 0
M  V30 BEGIN ATOM
M  V30 1 S 1.4363 -0.0844 0.0844 0
M  V30 2 O 2.1807 -0.2739 1.376 0
M  V30 3 O 2.3822 0.2775 -1.0253 0
M  V30 4 O 0.5629 -1.4649 -0.3106 0
M  V30 5 C 0.1665 1.1127 0.2466 0
M  V30 6 C -0.7804 -1.1335 -0.0379 0
M  V30 7 C -1.0409 0.3632 -0.268 0
M  V30 8 H 0.0348 1.382 1.3165 0
M  V30 9 H 0.379 2.0168 -0.3628 0
M  V30 10 H -1.011 -1.395 1.0183 0
M  V30 11 H -1.4468 -1.7333 -0.6931 0
M  V30 12 H -1.9664 0.6905 0.2531 0
M  V30 13 H -1.1554 0.5492 -1.3586 0
M  V30 END ATOM
M  V30 BEGIN BOND
M  V30 1 2 1 2
M  V30 2 2 1 3
M  V30 3 1 1 4
M  V30 4 1 1 5
M  V30 5 1 4 6
M  V30 6 1 5 7
M  V30 7 1 6 7
M  V30 8 1 5 8
M  V30 9 1 5 9
M  V30 10 1 6 10
M  V30 11 1 6 11
M  V30 12 1 7 12
M  V30 13 1 7 13
M  V30 END BOND
M  V30 END CTAB
M  END
>  <Structure No>
2393

>  <LogS>
-0.086875694

>  <MMFF94 Energy>
-22.022

$$$$
Compound 2394
Actelion Java MolfileCreator 2.0

  0  0  0  0  0  0              0 V3000
M  V30 BEGIN CTAB
M  V30 COUNTS 36 37 0 0 0
M  V30 BEGIN ATOM
M  V30 1 S 2.5243 -2.5243 -0.925 0
M  V30 2 O 1.5403 -3.0694 0.0718 0
M  V30 3 O 3.7631 -3.375 -0.8896 0
M  V30 4 O 1.8635 -2.5913 -2.4679 0 CHG=-1
M  V30 5 C 2.9163 -0.8443 -0.5213 0
M  V30 6 C 1.9053 0.1164 -0.2673 0
M  V30 7 C 4.2669 -0.4683 -0.4306 0
M  V30 8 C 2.2818 1.433 0.0635 0
M  V30 9 C 0.4686 -0.2344 -0.3938 0
M  V30 10 C 4.6255 0.8415 -0.0912 0
M  V30 11 C 3.6278 1.7887 0.1547 0
M  V30 12 C -0.476 0.2822 0.4049 0
M  V30 13 N 6.0045 1.2101 -0.0011 0
M  V30 14 C -1.9125 -0.0691 0.2783 0
M  V30 15 C -2.9242 0.8914 0.5305 0
M  V30 16 C -2.2887 -1.3863 -0.0499 0
M  V30 17 S -2.5383 2.573 0.9288 0
M  V30 18 C -4.2742 0.5156 0.4412 0
M  V30 19 C -3.6348 -1.7424 -0.1401 0
M  V30 20 O -1.5396 3.1134 -0.0557 0
M  V30 21 O -1.9702 2.6449 2.318 0
M  V30 22 O -3.9227 3.5234 0.8569 0 CHG=-1
M  V30 23 C -4.6328 -0.7948 0.1046 0
M  V30 24 N -6.0119 -1.1639 0.0159 0
M  V30 25 H 5.0469 -1.1937 -0.6225 0
M  V30 26 H 1.5353 2.1999 0.2273 0
M  V30 27 H 0.1841 -0.9428 -1.1597 0
M  V30 28 H 3.893 2.8075 0.4083 0
M  V30 29 H -0.1919 0.9904 1.1713 0
M  V30 30 H 6.2821 2.1853 0.25 0
M  V30 31 H 6.7584 0.5109 -0.1843 0
M  V30 32 H -1.5421 -2.1531 -0.2123 0
M  V30 33 H -5.0538 1.2415 0.6326 0
M  V30 34 H -3.9001 -2.7617 -0.3916 0
M  V30 35 H -6.7659 -0.4644 0.1982 0
M  V30 36 H -6.2895 -2.1395 -0.2331 0
M  V30 END ATOM
M  V30 BEGIN BOND
M  V30 1 2 1 2
M  V30 2 2 1 3
M  V30 3 1 1 4
M  V30 4 1 1 5
M  V30 5 2 5 6
M  V30 6 1 5 7
M  V30 7 1 6 8
M  V30 8 1 6 9
M  V30 9 2 7 10
M  V30 10 2 8 11
M  V30 11 2 9 12
M  V30 12 1 10 13
M  V30 13 1 12 14
M  V30 14 2 14 15
M  V30 15 1 14 16
M  V30 16 1 15 17
M  V30 17 1 15 18
M  V30 18 2 16 19
M  V30 19 2 17 20
M  V30 20 2 17 21
M  V30 21 1 17 22
M  V30 22 2 18 23
M  V30 23 1 23 24
M  V30 24 1 10 11
M  V30 25 1 19 23
M  V30 26 1 7 25
M  V30 27 1 8 26
M  V30 28 1 9 27
M  V30 29 1 11 28
M  V30 30 1 12 29
M  V30 31 1 13 30
M  V30 32 1 13 31
M  V30 33 1 16 32
M  V30 34 1 18 33
M  V30 35 1 19 34
M  V30 36 1 24 35
M  V30 37 1 24 36
M  V30 END BOND
M  V30 END CTAB
M  END
>  <Structure No>
2394

>  <LogS>
-0.617390402

>  <MMFF94 Energy>
106.98

$$$$
Compound 2395
Actelion Java MolfileCreator 2.0

  0  0  0  0  0  0              0 V3000
M  V30 BEGIN CTAB
M  V30 COUNTS 7 6 0 0 0
M  V30 BEGIN ATOM
M  V30 1 O 1.4792 -0.934 0.5447 0
M  V30 2 C 0.832 0.0248 0.0482 0
M  V30 3 O 1.4958 1.1898 -0.3145 0 CHG=-1
M  V30 4 C -0.6492 -0.0671 -0.0959 0
M  V30 5 H -1.1321 0.2017 0.8665 0
M  V30 6 H -0.9973 0.6309 -0.886 0
M  V30 7 H -0.9415 -1.1009 -0.3768 0
M  V30 END ATOM
M  V30 BEGIN BOND
M  V30 1 2 1 2
M  V30 2 1 2 3
M  V30 3 1 2 4
M  V30 4 1 4 5
M  V30 5 1 4 6
M  V30 6 1 4 7
M  V30 END BOND
M  V30 END CTAB
M  END
>  <Structure No>
2395

>  <LogS>
-0.424943674

>  <MMFF94 Energy>
1.0491

$$$$
Compound 2396
Actelion Java MolfileCreator 2.0

  0  0  0  0  0  0              0 V3000
M  V30 BEGIN CTAB
M  V30 COUNTS 17 17 0 0 0
M  V30 BEGIN ATOM
M  V30 1 S 2.5895 -0.2503 0.7513 0
M  V30 2 O 2.5099 -1.045 2.0244 0
M  V30 3 O 3.3475 1.019 1.0213 0
M  V30 4 O 3.3962 -1.1455 -0.4183 0 CHG=-1
M  V30 5 C 0.9677 0.1302 0.1823 0
M  V30 6 C -0.0904 -0.7579 0.424 0
M  V30 7 C 0.7309 1.3113 -0.5344 0
M  V30 8 C -1.3822 -0.4629 -0.0369 0
M  V30 9 C -0.5549 1.6075 -0.9948 0
M  V30 10 N -2.4601 -1.3687 0.2133 0
M  V30 11 C -1.6098 0.7249 -0.7464 0
M  V30 12 H 0.0888 -1.6774 0.9673 0
M  V30 13 H 1.5398 2.0011 -0.7388 0
M  V30 14 H -0.7341 2.5215 -1.5463 0
M  V30 15 H -2.3012 -2.2563 0.7404 0
M  V30 16 H -3.4251 -1.1584 -0.1263 0
M  V30 17 H -2.6019 0.9643 -1.1082 0
M  V30 END ATOM
M  V30 BEGIN BOND
M  V30 1 2 1 2
M  V30 2 2 1 3
M  V30 3 1 1 4
M  V30 4 1 1 5
M  V30 5 2 5 6
M  V30 6 1 5 7
M  V30 7 1 6 8
M  V30 8 2 7 9
M  V30 9 1 8 10
M  V30 10 2 8 11
M  V30 11 1 9 11
M  V30 12 1 6 12
M  V30 13 1 7 13
M  V30 14 1 9 14
M  V30 15 1 10 15
M  V30 16 1 10 16
M  V30 17 1 11 17
M  V30 END BOND
M  V30 END CTAB
M  END
>  <Structure No>
2396

>  <LogS>
-1.20510658

>  <MMFF94 Energy>
32.307

$$$$
Compound 2397
Actelion Java MolfileCreator 2.0

  0  0  0  0  0  0              0 V3000
M  V30 BEGIN CTAB
M  V30 COUNTS 49 52 0 0 0
M  V30 BEGIN ATOM
M  V30 1 O -4.336 2.4874 0.0 0
M  V30 2 C -4.0003 1.1519 0.2732 0
M  V30 3 C -3.6083 3.3428 -0.8758 0
M  V30 4 C -2.8981 0.5103 -0.3265 0
M  V30 5 C -4.7988 0.4477 1.1745 0
M  V30 6 C -2.5775 -0.8341 -0.015 0
M  V30 7 C -4.5167 -0.8799 1.4813 0
M  V30 8 C -3.4228 -1.5236 0.8975 0
M  V30 9 C -1.4593 -1.5363 -0.5666 0
M  V30 10 N -3.1822 -2.8208 1.2151 0
M  V30 11 C -1.2744 -2.8855 -0.2029 0
M  V30 12 C -0.4264 -0.9113 -1.5105 0 CFG=2
M  V30 13 C -2.1432 -3.507 0.687 0
M  V30 14 O -0.4613 -1.5712 -2.7542 0
M  V30 15 C 1.0175 -0.9141 -0.9098 0 CFG=2
M  V30 16 N 1.0951 -0.2737 0.4426 0 CHG=1 CFG=1
M  V30 17 C 2.0443 -0.2488 -1.8804 0
M  V30 18 C 2.4346 -0.5377 1.0291 0
M  V30 19 C 0.9022 1.1977 0.3647 0
M  V30 20 C 2.9117 0.7534 -1.0937 0 CFG=2
M  V30 21 C 3.5637 -0.011 0.0897 0 CFG=1
M  V30 22 C 1.9659 1.8474 -0.5519 0
M  V30 23 C 4.5762 0.8377 0.8281 0
M  V30 24 C 5.3438 0.3218 1.7928 0
M  V30 25 H -3.619 2.9318 -1.9074 0
M  V30 26 H -2.5627 3.4557 -0.5184 0
M  V30 27 H -4.089 4.3423 -0.8879 0
M  V30 28 H -2.3267 1.0778 -1.0338 0
M  V30 29 H -5.6484 0.9337 1.6376 0
M  V30 30 H -5.1534 -1.4113 2.1785 0
M  V30 31 H -0.45 -3.4642 -0.5972 0
M  V30 32 H -0.6599 0.1356 -1.7403 0
M  V30 33 H -1.987 -4.541 0.9641 0
M  V30 34 H -0.0338 -2.4602 -2.6514 0
M  V30 35 H 1.3227 -1.9802 -0.8044 0
M  V30 36 H 0.3758 -0.68 1.085 0
M  V30 37 H 2.6919 -1.027 -2.3411 0
M  V30 38 H 1.5381 0.2834 -2.716 0
M  V30 39 H 2.5684 -1.6308 1.1929 0
M  V30 40 H 2.4991 -0.0704 2.039 0
M  V30 41 H -0.1167 1.4441 0.0034 0
M  V30 42 H 0.9711 1.643 1.3831 0
M  V30 43 H 3.6843 1.1963 -1.76 0
M  V30 44 H 4.1146 -0.8837 -0.3298 0
M  V30 45 H 1.4676 2.3686 -1.3989 0
M  V30 46 H 2.5382 2.6146 0.0117 0
M  V30 47 H 4.7217 1.8779 0.5525 0
M  V30 48 H 5.2478 -0.7194 2.0856 0
M  V30 49 H 6.0766 0.9444 2.2957 0
M  V30 END ATOM
M  V30 BEGIN BOND
M  V30 1 1 1 2
M  V30 2 1 1 3
M  V30 3 2 2 4
M  V30 4 1 2 5
M  V30 5 1 4 6
M  V30 6 2 5 7
M  V30 7 1 6 8
M  V30 8 2 6 9
M  V30 9 2 8 10
M  V30 10 1 9 11
M  V30 11 1 9 12
M  V30 12 1 10 13
M  V30 13 1 12 14
M  V30 14 1 12 15
M  V30 15 1 15 16
M  V30 16 1 15 17
M  V30 17 1 16 18
M  V30 18 1 16 19
M  V30 19 1 17 20
M  V30 20 1 18 21
M  V30 21 1 19 22
M  V30 22 1 21 23
M  V30 23 2 23 24
M  V30 24 1 7 8
M  V30 25 2 11 13
M  V30 26 1 20 21
M  V30 27 1 20 22
M  V30 28 1 3 25
M  V30 29 1 3 26
M  V30 30 1 3 27
M  V30 31 1 4 28
M  V30 32 1 5 29
M  V30 33 1 7 30
M  V30 34 1 11 31
M  V30 35 1 12 32
M  V30 36 1 13 33
M  V30 37 1 14 34
M  V30 38 1 15 35
M  V30 39 1 16 36
M  V30 40 1 17 37
M  V30 41 1 17 38
M  V30 42 1 18 39
M  V30 43 1 18 40
M  V30 44 1 19 41
M  V30 45 1 19 42
M  V30 46 1 20 43
M  V30 47 1 21 44
M  V30 48 1 22 45
M  V30 49 1 22 46
M  V30 50 1 23 47
M  V30 51 1 24 48
M  V30 52 1 24 49
M  V30 END BOND
M  V30 BEGIN COLLECTION
M  V30 MDLV30/STEABS ATOMS=(5 12 15 16 20 21)
M  V30 END COLLECTION
M  V30 END CTAB
M  END
>  <Structure No>
2397

>  <LogS>
-1.592406042

>  <MMFF94 Energy>
124.3

$$$$
Compound 2398
Actelion Java MolfileCreator 2.0

  0  0  0  0  0  0              0 V3000
M  V30 BEGIN CTAB
M  V30 COUNTS 21 20 0 0 0
M  V30 BEGIN ATOM
M  V30 1 O -0.7682 -0.7682 0.6913 0
M  V30 2 C -0.0466 0.329 0.1277 0
M  V30 3 C -2.0354 -0.9936 0.1042 0
M  V30 4 C 1.4019 0.2488 0.682 0
M  V30 5 C -0.0022 0.3045 -1.4241 0
M  V30 6 C -0.6463 1.6719 0.6066 0
M  V30 7 C 2.1172 -1.0674 0.3608 0
M  V30 8 H -2.6487 -0.0733 0.0312 0
M  V30 9 H -2.5947 -1.7028 0.7478 0
M  V30 10 H -1.9292 -1.475 -0.8904 0
M  V30 11 H 2.0157 1.0884 0.2866 0
M  V30 12 H 1.3742 0.3558 1.7893 0
M  V30 13 H 0.7403 1.0369 -1.8073 0
M  V30 14 H 0.2698 -0.7056 -1.7947 0
M  V30 15 H -0.988 0.5757 -1.8583 0
M  V30 16 H -1.623 1.8852 0.1263 0
M  V30 17 H 0.03 2.5166 0.3523 0
M  V30 18 H -0.7927 1.657 1.7079 0
M  V30 19 H 3.0979 -1.088 0.8811 0
M  V30 20 H 2.3079 -1.1578 -0.7282 0
M  V30 21 H 1.5213 -1.9375 0.7073 0
M  V30 END ATOM
M  V30 BEGIN BOND
M  V30 1 1 1 2
M  V30 2 1 1 3
M  V30 3 1 2 4
M  V30 4 1 2 5
M  V30 5 1 2 6
M  V30 6 1 4 7
M  V30 7 1 3 8
M  V30 8 1 3 9
M  V30 9 1 3 10
M  V30 10 1 4 11
M  V30 11 1 4 12
M  V30 12 1 5 13
M  V30 13 1 5 14
M  V30 14 1 5 15
M  V30 15 1 6 16
M  V30 16 1 6 17
M  V30 17 1 6 18
M  V30 18 1 7 19
M  V30 19 1 7 20
M  V30 20 1 7 21
M  V30 END BOND
M  V30 END CTAB
M  END
>  <Structure No>
2398

>  <LogS>
-0.979563677

>  <MMFF94 Energy>
18.503

$$$$
Compound 2399
Actelion Java MolfileCreator 2.0

  0  0  0  0  0  0              0 V3000
M  V30 BEGIN CTAB
M  V30 COUNTS 21 21 0 0 0
M  V30 BEGIN ATOM
M  V30 1 O -2.0449 -1.258 0.9434 0
M  V30 2 C -1.9351 -0.2576 0.2498 0
M  V30 3 C -0.9471 -0.2442 -0.8929 0 CFG=2
M  V30 4 C -2.7854 0.9392 0.5591 0
M  V30 5 O -1.127 -1.3785 -1.7016 0
M  V30 6 C 0.4616 -0.2131 -0.3484 0
M  V30 7 C 1.087 -1.3903 0.1048 0
M  V30 8 C 1.1425 1.0117 -0.2271 0
M  V30 9 C 2.3778 -1.3434 0.6402 0
M  V30 10 C 2.4332 1.053 0.309 0
M  V30 11 C 3.0513 -0.1234 0.7398 0
M  V30 12 H -1.1058 0.6636 -1.5207 0
M  V30 13 H -3.8574 0.668 0.4611 0
M  V30 14 H -2.589 1.2741 1.5992 0
M  V30 15 H -2.5665 1.7821 -0.1292 0
M  V30 16 H -1.9771 -1.2453 -2.1979 0
M  V30 17 H 0.5749 -2.3427 0.047 0
M  V30 18 H 0.6738 1.9347 -0.5457 0
M  V30 19 H 2.8544 -2.253 0.9822 0
M  V30 20 H 2.9528 1.9987 0.3944 0
M  V30 21 H 4.0499 -0.089 1.156 0
M  V30 END ATOM
M  V30 BEGIN BOND
M  V30 1 2 1 2
M  V30 2 1 2 3
M  V30 3 1 2 4
M  V30 4 1 3 5
M  V30 5 1 3 6
M  V30 6 2 6 7
M  V30 7 1 6 8
M  V30 8 1 7 9
M  V30 9 2 8 10
M  V30 10 2 9 11
M  V30 11 1 10 11
M  V30 12 1 3 12
M  V30 13 1 4 13
M  V30 14 1 4 14
M  V30 15 1 4 15
M  V30 16 1 5 16
M  V30 17 1 7 17
M  V30 18 1 8 18
M  V30 19 1 9 19
M  V30 20 1 10 20
M  V30 21 1 11 21
M  V30 END BOND
M  V30 BEGIN COLLECTION
M  V30 MDLV30/STEABS ATOMS=(1 3)
M  V30 END COLLECTION
M  V30 END CTAB
M  END
>  <Structure No>
2399

>  <LogS>
-1.176603424

>  <MMFF94 Energy>
56.817

$$$$
Compound 2400
Actelion Java MolfileCreator 2.0

  0  0  0  0  0  0              0 V3000
M  V30 BEGIN CTAB
M  V30 COUNTS 5 4 0 0 0
M  V30 BEGIN ATOM
M  V30 1 O -0.4735 1.2631 0.0789 0
M  V30 2 C -0.3914 0.0646 0.455 0
M  V30 3 O 0.8184 -0.6148 0.3713 0
M  V30 4 O -1.5135 -0.5813 0.9553 0 CHG=-1
M  V30 5 H 1.6466 -0.1578 0.0086 0
M  V30 END ATOM
M  V30 BEGIN BOND
M  V30 1 2 1 2
M  V30 2 1 2 3
M  V30 3 1 2 4
M  V30 4 1 3 5
M  V30 END BOND
M  V30 END CTAB
M  END
>  <Structure No>
2400

>  <LogS>
-0.982660114

>  <MMFF94 Energy>
-89.96

$$$$
Compound 2401
Actelion Java MolfileCreator 2.0

  0  0  0  0  0  0              0 V3000
M  V30 BEGIN CTAB
M  V30 COUNTS 17 16 0 0 0
M  V30 BEGIN ATOM
M  V30 1 O -0.6897 -0.2298 -0.5364 0
M  V30 2 C 0.0918 0.2425 0.5525 0
M  V30 3 C -1.9569 -0.6498 -0.0797 0
M  V30 4 O 1.1832 1.0068 0.0669 0
M  V30 5 O 0.573 -0.8366 1.3398 0
M  V30 6 C 0.7294 2.2502 -0.4233 0
M  V30 7 C 1.3722 -1.7167 0.5752 0
M  V30 8 H -0.5204 0.8794 1.2394 0
M  V30 9 H -2.5472 0.2124 0.3014 0
M  V30 10 H -1.8701 -1.4375 0.701 0
M  V30 11 H -2.5136 -1.0854 -0.9344 0
M  V30 12 H 0.3028 2.8714 0.3949 0
M  V30 13 H 1.5959 2.801 -0.8431 0
M  V30 14 H -0.0132 2.1217 -1.2412 0
M  V30 15 H 1.7315 -2.5291 1.2395 0
M  V30 16 H 2.2703 -1.2059 0.1656 0
M  V30 17 H 0.7882 -2.1945 -0.2408 0
M  V30 END ATOM
M  V30 BEGIN BOND
M  V30 1 1 1 2
M  V30 2 1 1 3
M  V30 3 1 2 4
M  V30 4 1 2 5
M  V30 5 1 4 6
M  V30 6 1 5 7
M  V30 7 1 2 8
M  V30 8 1 3 9
M  V30 9 1 3 10
M  V30 10 1 3 11
M  V30 11 1 6 12
M  V30 12 1 6 13
M  V30 13 1 6 14
M  V30 14 1 7 15
M  V30 15 1 7 16
M  V30 16 1 7 17
M  V30 END BOND
M  V30 END CTAB
M  END
>  <Structure No>
2401

>  <LogS>
-1.025801334

>  <MMFF94 Energy>
-38.662

$$$$
Compound 2402
Actelion Java MolfileCreator 2.0

  0  0  0  0  0  0              0 V3000
M  V30 BEGIN CTAB
M  V30 COUNTS 17 17 0 0 0
M  V30 BEGIN ATOM
M  V30 1 Cl 2.9244 2.5696 -0.0885 0
M  V30 2 C 1.7752 1.2402 -0.1631 0
M  V30 3 C 2.1234 0.0107 -0.7392 0
M  V30 4 C 0.4936 1.4229 0.3646 0
M  V30 5 Cl 3.725 -0.2594 -1.4138 0
M  V30 6 C 1.1865 -1.0252 -0.7834 0
M  V30 7 C -0.455 0.388 0.3262 0
M  V30 8 C -0.1031 -0.8527 -0.2572 0
M  V30 9 S -2.0609 0.6715 1.0124 0
M  V30 10 N -1.0293 -1.9458 -0.3301 0
M  V30 11 O -3.1002 0.5376 -0.0647 0
M  V30 12 O -2.1464 2.0533 1.5983 0
M  V30 13 O -2.3571 -0.4459 2.2315 0 CHG=-1
M  V30 14 H 0.2415 2.3785 0.8057 0
M  V30 15 H 1.4635 -1.9717 -1.2312 0
M  V30 16 H -2.0053 -1.8806 0.0296 0
M  V30 17 H -0.7426 -2.853 -0.7611 0
M  V30 END ATOM
M  V30 BEGIN BOND
M  V30 1 1 1 2
M  V30 2 2 2 3
M  V30 3 1 2 4
M  V30 4 1 3 5
M  V30 5 1 3 6
M  V30 6 2 4 7
M  V30 7 2 6 8
M  V30 8 1 7 9
M  V30 9 1 8 10
M  V30 10 2 9 11
M  V30 11 2 9 12
M  V30 12 1 9 13
M  V30 13 1 7 8
M  V30 14 1 4 14
M  V30 15 1 6 15
M  V30 16 1 10 16
M  V30 17 1 10 17
M  V30 END BOND
M  V30 END CTAB
M  END
>  <Structure No>
2402

>  <LogS>
-2.105210692

>  <MMFF94 Energy>
48.169

$$$$
Compound 2403
Actelion Java MolfileCreator 2.0

  0  0  0  0  0  0              0 V3000
M  V30 BEGIN CTAB
M  V30 COUNTS 19 20 0 0 0
M  V30 BEGIN ATOM
M  V30 1 N 1.976 0.632 -1.0271 0
M  V30 2 C 1.2287 0.0242 -0.0781 0
M  V30 3 C 3.2487 0.4027 -0.6509 0
M  V30 4 N 1.9863 -0.5711 0.869 0
M  V30 5 C -0.2568 0.0258 -0.0975 0
M  V30 6 C 3.2567 -0.3338 0.5097 0
M  V30 7 C -0.9422 0.6816 -1.1387 0
M  V30 8 C -1.0077 -0.6171 0.9067 0
M  V30 9 C -2.3399 0.6934 -1.1733 0
M  V30 10 C -2.4057 -0.6015 0.8661 0
M  V30 11 C -3.071 0.0525 -0.172 0
M  V30 12 H 4.1176 0.7524 -1.1918 0
M  V30 13 H 1.6807 -1.107 1.7099 0
M  V30 14 H 4.1274 -0.6733 1.0549 0
M  V30 15 H -0.3994 1.1865 -1.9277 0
M  V30 16 H -0.5288 -1.1333 1.7255 0
M  V30 17 H -2.8563 1.2006 -1.9781 0
M  V30 18 H -2.9741 -1.0981 1.642 0
M  V30 19 H -4.153 0.0627 -0.2005 0
M  V30 END ATOM
M  V30 BEGIN BOND
M  V30 1 2 1 2
M  V30 2 1 1 3
M  V30 3 1 2 4
M  V30 4 1 2 5
M  V30 5 2 3 6
M  V30 6 2 5 7
M  V30 7 1 5 8
M  V30 8 1 7 9
M  V30 9 2 8 10
M  V30 10 2 9 11
M  V30 11 1 4 6
M  V30 12 1 10 11
M  V30 13 1 3 12
M  V30 14 1 4 13
M  V30 15 1 6 14
M  V30 16 1 7 15
M  V30 17 1 8 16
M  V30 18 1 9 17
M  V30 19 1 10 18
M  V30 20 1 11 19
M  V30 END BOND
M  V30 END CTAB
M  END
>  <Structure No>
2403

>  <LogS>
-1.88938304

>  <MMFF94 Energy>
25.188

$$$$
Compound 2404
Actelion Java MolfileCreator 2.0

  0  0  0  0  0  0              0 V3000
M  V30 BEGIN CTAB
M  V30 COUNTS 14 13 0 0 0
M  V30 BEGIN ATOM
M  V30 1 O -1.6237 -1.5424 0.974 0
M  V30 2 C -1.2761 -1.0802 -0.145 0
M  V30 3 O -1.3832 -1.8767 -1.2783 0 CHG=-1
M  V30 4 C -0.7114 0.3085 -0.254 0 CFG=1
M  V30 5 O -1.4801 1.1787 0.5359 0
M  V30 6 C 0.7709 0.3608 0.1831 0 CFG=1
M  V30 7 O 0.9257 -0.1114 1.4979 0
M  V30 8 C 1.6364 -0.4404 -0.747 0
M  V30 9 O 1.8513 -1.6624 -0.529 0
M  V30 10 O 2.1634 0.1548 -1.8862 0 CHG=-1
M  V30 11 H -0.7852 0.6264 -1.3208 0
M  V30 12 H -1.2716 2.1016 0.2342 0
M  V30 13 H 1.1208 1.4182 0.1276 0
M  V30 14 H 0.6106 0.6103 2.1027 0
M  V30 END ATOM
M  V30 BEGIN BOND
M  V30 1 2 1 2
M  V30 2 1 2 3
M  V30 3 1 2 4
M  V30 4 1 4 5
M  V30 5 1 4 6
M  V30 6 1 6 7
M  V30 7 1 6 8
M  V30 8 2 8 9
M  V30 9 1 8 10
M  V30 10 1 4 11
M  V30 11 1 5 12
M  V30 12 1 6 13
M  V30 13 1 7 14
M  V30 END BOND
M  V30 BEGIN COLLECTION
M  V30 MDLV30/STEABS ATOMS=(2 4 6)
M  V30 END COLLECTION
M  V30 END CTAB
M  END
>  <Structure No>
2404

>  <LogS>
-2.1065272

>  <MMFF94 Energy>
179

$$$$
Compound 2405
Actelion Java MolfileCreator 2.0

  0  0  0  0  0  0              0 V3000
M  V30 BEGIN CTAB
M  V30 COUNTS 23 23 0 0 0
M  V30 BEGIN ATOM
M  V30 1 O 1.1084 3.5661 -1.346 0
M  V30 2 N 0.5494 2.4506 -1.3891 0 CHG=1
M  V30 3 O -0.5477 2.2903 -2.2038 0 CHG=-1
M  V30 4 C 1.1596 1.3108 -0.7588 0
M  V30 5 C 0.378 0.2356 -0.2656 0
M  V30 6 C 2.5617 1.2442 -0.665 0
M  V30 7 N -1.0598 0.3283 -0.2458 0
M  V30 8 C 1.0278 -0.8892 0.2801 0
M  V30 9 C 3.1858 0.1233 -0.1172 0
M  V30 10 C -1.9534 -0.8291 -0.276 0
M  V30 11 C 2.4206 -0.9436 0.3484 0
M  V30 12 C -2.4925 -1.1178 1.1216 0
M  V30 13 O -3.3395 -2.2315 1.0751 0
M  V30 14 H 3.1751 2.0539 -1.0394 0
M  V30 15 H -1.5035 1.2679 -0.1361 0
M  V30 16 H 0.463 -1.718 0.6833 0
M  V30 17 H 4.2657 0.08 -0.0587 0
M  V30 18 H -1.4312 -1.7215 -0.6828 0
M  V30 19 H -2.8045 -0.6065 -0.9552 0
M  V30 20 H 2.9075 -1.8107 0.7757 0
M  V30 21 H -1.6475 -1.3182 1.8166 0
M  V30 22 H -3.0579 -0.2318 1.4885 0
M  V30 23 H -3.661 -2.3714 2.0037 0
M  V30 END ATOM
M  V30 BEGIN BOND
M  V30 1 2 1 2
M  V30 2 1 2 3
M  V30 3 1 2 4
M  V30 4 2 4 5
M  V30 5 1 4 6
M  V30 6 1 5 7
M  V30 7 1 5 8
M  V30 8 2 6 9
M  V30 9 1 7 10
M  V30 10 2 8 11
M  V30 11 1 10 12
M  V30 12 1 12 13
M  V30 13 1 9 11
M  V30 14 1 6 14
M  V30 15 1 7 15
M  V30 16 1 8 16
M  V30 17 1 9 17
M  V30 18 1 10 18
M  V30 19 1 10 19
M  V30 20 1 11 20
M  V30 21 1 12 21
M  V30 22 1 12 22
M  V30 23 1 13 23
M  V30 END BOND
M  V30 END CTAB
M  END
>  <Structure No>
2405

>  <LogS>
-1.993326586

>  <MMFF94 Energy>
92.279

$$$$
Compound 2406
Actelion Java MolfileCreator 2.0

  0  0  0  0  0  0              0 V3000
M  V30 BEGIN CTAB
M  V30 COUNTS 13 13 0 0 0
M  V30 BEGIN ATOM
M  V30 1 O -0.0805 2.3373 0.0 0
M  V30 2 C 0.8954 1.5435 -0.0433 0
M  V30 3 O 2.186 2.053 -0.1128 0 CHG=-1
M  V30 4 C 0.6805 0.0883 -0.0207 0
M  V30 5 C -0.5072 -0.6166 0.0452 0
M  V30 6 C 1.6522 -0.8896 -0.0624 0
M  V30 7 O -0.226 -1.8987 0.0412 0
M  V30 8 C -1.8929 -0.0628 0.1115 0
M  V30 9 N 1.0593 -2.0991 -0.0226 0
M  V30 10 H 2.7216 -0.7357 -0.118 0
M  V30 11 H -2.0954 0.5504 -0.7912 0
M  V30 12 H -2.63 -0.8916 0.1556 0
M  V30 13 H -2.0032 0.5647 1.0204 0
M  V30 END ATOM
M  V30 BEGIN BOND
M  V30 1 2 1 2
M  V30 2 1 2 3
M  V30 3 1 2 4
M  V30 4 2 4 5
M  V30 5 1 4 6
M  V30 6 1 5 7
M  V30 7 1 5 8
M  V30 8 2 6 9
M  V30 9 1 7 9
M  V30 10 1 6 10
M  V30 11 1 8 11
M  V30 12 1 8 12
M  V30 13 1 8 13
M  V30 END BOND
M  V30 END CTAB
M  END
>  <Structure No>
2406

>  <LogS>
-1.05536111

>  <MMFF94 Energy>
-10.182

$$$$
Compound 2407
Actelion Java MolfileCreator 2.0

  0  0  0  0  0  0              0 V3000
M  V30 BEGIN CTAB
M  V30 COUNTS 24 24 0 0 0
M  V30 BEGIN ATOM
M  V30 1 O 1.5791 1.1841 1.5791 0
M  V30 2 C 0.8662 0.613 0.7101 0
M  V30 3 C 1.4236 -0.5072 -0.086 0
M  V30 4 C -0.5405 1.1063 0.4758 0 CFG=2
M  V30 5 C 0.6463 -1.1707 -0.9571 0
M  V30 6 C 2.826 -0.9834 0.1752 0
M  V30 7 C -1.4414 -0.0232 -0.0902 0 CFG=1
M  V30 8 C -0.5123 2.3308 -0.4489 0
M  V30 9 C -0.7598 -0.7377 -1.2764 0
M  V30 10 C -1.8275 -1.0285 1.0082 0
M  V30 11 H -0.9639 1.4444 1.4483 0
M  V30 12 H 1.0458 -2.0187 -1.5008 0
M  V30 13 H 3.496 -0.1206 0.3743 0
M  V30 14 H 2.8287 -1.6561 1.0582 0
M  V30 15 H 3.2364 -1.5327 -0.6991 0
M  V30 16 H -2.3916 0.4239 -0.4592 0
M  V30 17 H -1.5443 2.697 -0.635 0
M  V30 18 H 0.062 3.1532 0.0288 0
M  V30 19 H -0.0337 2.0891 -1.4212 0
M  V30 20 H -1.3559 -1.6244 -1.5826 0
M  V30 21 H -0.7262 -0.0559 -2.152 0
M  V30 22 H -2.3709 -0.5103 1.8267 0
M  V30 23 H -2.4995 -1.8097 0.5935 0
M  V30 24 H -0.9284 -1.5217 1.4344 0
M  V30 END ATOM
M  V30 BEGIN BOND
M  V30 1 2 1 2
M  V30 2 1 2 3
M  V30 3 1 2 4
M  V30 4 2 3 5
M  V30 5 1 3 6
M  V30 6 1 4 7
M  V30 7 1 4 8
M  V30 8 1 5 9
M  V30 9 1 7 10
M  V30 10 1 7 9
M  V30 11 1 4 11
M  V30 12 1 5 12
M  V30 13 1 6 13
M  V30 14 1 6 14
M  V30 15 1 6 15
M  V30 16 1 7 16
M  V30 17 1 8 17
M  V30 18 1 8 18
M  V30 19 1 8 19
M  V30 20 1 9 20
M  V30 21 1 9 21
M  V30 22 1 10 22
M  V30 23 1 10 23
M  V30 24 1 10 24
M  V30 END BOND
M  V30 BEGIN COLLECTION
M  V30 MDLV30/STEABS ATOMS=(2 4 7)
M  V30 END COLLECTION
M  V30 END CTAB
M  END
>  <Structure No>
2407

>  <LogS>
-1.885266962

>  <MMFF94 Energy>
17.356

$$$$
Compound 2408
Actelion Java MolfileCreator 2.0

  0  0  0  0  0  0              0 V3000
M  V30 BEGIN CTAB
M  V30 COUNTS 25 24 0 0 0
M  V30 BEGIN ATOM
M  V30 1 O -1.2526 -0.5478 -2.1145 0
M  V30 2 C -1.3143 0.4831 -1.3929 0
M  V30 3 O -1.5587 1.7172 -1.9819 0 CHG=-1
M  V30 4 C -1.1242 0.3872 0.0998 0 CFG=2
M  V30 5 C 0.2806 -0.1546 0.442 0
M  V30 6 C -2.2129 -0.5031 0.7364 0
M  V30 7 C 1.3999 0.7937 -0.0252 0
M  V30 8 C -3.6139 0.0917 0.587 0
M  V30 9 C 2.7884 0.3542 0.464 0
M  V30 10 C 3.2823 -0.9171 -0.2253 0
M  V30 11 H -1.2157 1.4064 0.5384 0
M  V30 12 H 0.4125 -1.1559 -0.0219 0
M  V30 13 H 0.3606 -0.2771 1.5447 0
M  V30 14 H -2.1949 -1.5178 0.2815 0
M  V30 15 H -2.007 -0.6175 1.8233 0
M  V30 16 H 1.404 0.8662 -1.1345 0
M  V30 17 H 1.2012 1.8108 0.3779 0
M  V30 18 H -3.9016 0.1535 -0.4835 0
M  V30 19 H -3.6531 1.1065 1.0374 0
M  V30 20 H -4.349 -0.5558 1.1096 0
M  V30 21 H 3.5111 1.1706 0.2476 0
M  V30 22 H 2.7761 0.2006 1.5651 0
M  V30 23 H 3.2509 -0.7984 -1.3292 0
M  V30 24 H 2.6652 -1.7902 0.0709 0
M  V30 25 H 4.3313 -1.1172 0.0784 0
M  V30 END ATOM
M  V30 BEGIN BOND
M  V30 1 2 1 2
M  V30 2 1 2 3
M  V30 3 1 2 4
M  V30 4 1 4 5
M  V30 5 1 4 6
M  V30 6 1 5 7
M  V30 7 1 6 8
M  V30 8 1 7 9
M  V30 9 1 9 10
M  V30 10 1 4 11
M  V30 11 1 5 12
M  V30 12 1 5 13
M  V30 13 1 6 14
M  V30 14 1 6 15
M  V30 15 1 7 16
M  V30 16 1 7 17
M  V30 17 1 8 18
M  V30 18 1 8 19
M  V30 19 1 8 20
M  V30 20 1 9 21
M  V30 21 1 9 22
M  V30 22 1 10 23
M  V30 23 1 10 24
M  V30 24 1 10 25
M  V30 END BOND
M  V30 BEGIN COLLECTION
M  V30 MDLV30/STEABS ATOMS=(1 4)
M  V30 END COLLECTION
M  V30 END CTAB
M  END
>  <Structure No>
2408

>  <LogS>
-2.043912167

>  <MMFF94 Energy>
7.9576

$$$$
Compound 2409
Actelion Java MolfileCreator 2.0

  0  0  0  0  0  0              0 V3000
M  V30 BEGIN CTAB
M  V30 COUNTS 38 37 0 0 0
M  V30 BEGIN ATOM
M  V30 1 O 0.6985 0.3104 0.9314 0
M  V30 2 C 2.0981 0.124 1.048 0
M  V30 3 C 0.4004 1.391 0.0711 0
M  V30 4 C 2.5166 -1.1607 0.32 0 CFG=1
M  V30 5 C -1.1307 1.5162 -0.1105 0 CFG=2
M  V30 6 O 2.3409 -0.9942 -1.0629 0
M  V30 7 C 3.9779 -1.5222 0.6211 0
M  V30 8 C -1.6886 0.4655 -1.1131 0
M  V30 9 C -1.475 2.953 -0.5809 0
M  V30 10 O 4.8377 -0.5309 0.1292 0
M  V30 11 C -1.4309 -1.009 -0.7533 0
M  V30 12 C -2.9741 3.2604 -0.5497 0
M  V30 13 C -2.0978 -1.4316 0.5637 0
M  V30 14 C -1.9077 -2.924 0.8188 0
M  V30 15 H 2.3286 0.0134 2.1292 0
M  V30 16 H 2.7077 0.9864 0.684 0
M  V30 17 H 0.7961 2.3269 0.5281 0
M  V30 18 H 0.8796 1.2575 -0.9257 0
M  V30 19 H 1.8671 -1.9901 0.6874 0
M  V30 20 H -1.6107 1.3711 0.8816 0
M  V30 21 H 2.3137 -1.9037 -1.4602 0
M  V30 22 H 4.1181 -1.6357 1.7198 0
M  V30 23 H 4.2174 -2.4962 0.1386 0
M  V30 24 H -1.2512 0.6564 -2.1177 0
M  V30 25 H -2.7872 0.5889 -1.2105 0
M  V30 26 H -1.0857 3.1239 -1.6084 0
M  V30 27 H -0.9808 3.6892 0.0904 0
M  V30 28 H 5.7569 -0.8255 0.3591 0
M  V30 29 H -1.8483 -1.6314 -1.5752 0
M  V30 30 H -0.3436 -1.2184 -0.7231 0
M  V30 31 H -3.1295 4.35 -0.6985 0
M  V30 32 H -3.5055 2.7307 -1.3665 0
M  V30 33 H -3.4128 2.974 0.4295 0
M  V30 34 H -1.6559 -0.8759 1.4164 0
M  V30 35 H -3.186 -1.2082 0.5226 0
M  V30 36 H -0.8258 -3.1684 0.8831 0
M  V30 37 H -2.3924 -3.202 1.7783 0
M  V30 38 H -2.3706 -3.5179 0.0022 0
M  V30 END ATOM
M  V30 BEGIN BOND
M  V30 1 1 1 2
M  V30 2 1 1 3
M  V30 3 1 2 4
M  V30 4 1 3 5
M  V30 5 1 4 6
M  V30 6 1 4 7
M  V30 7 1 5 8
M  V30 8 1 5 9
M  V30 9 1 7 10
M  V30 10 1 8 11
M  V30 11 1 9 12
M  V30 12 1 11 13
M  V30 13 1 13 14
M  V30 14 1 2 15
M  V30 15 1 2 16
M  V30 16 1 3 17
M  V30 17 1 3 18
M  V30 18 1 4 19
M  V30 19 1 5 20
M  V30 20 1 6 21
M  V30 21 1 7 22
M  V30 22 1 7 23
M  V30 23 1 8 24
M  V30 24 1 8 25
M  V30 25 1 9 26
M  V30 26 1 9 27
M  V30 27 1 10 28
M  V30 28 1 11 29
M  V30 29 1 11 30
M  V30 30 1 12 31
M  V30 31 1 12 32
M  V30 32 1 12 33
M  V30 33 1 13 34
M  V30 34 1 13 35
M  V30 35 1 14 36
M  V30 36 1 14 37
M  V30 37 1 14 38
M  V30 END BOND
M  V30 BEGIN COLLECTION
M  V30 MDLV30/STEABS ATOMS=(2 4 5)
M  V30 END COLLECTION
M  V30 END CTAB
M  END
>  <Structure No>
2409

>  <LogS>
-2.055017119

>  <MMFF94 Energy>
44.197

$$$$
Compound 2410
Actelion Java MolfileCreator 2.0

  0  0  0  0  0  0              0 V3000
M  V30 BEGIN CTAB
M  V30 COUNTS 18 18 0 0 0
M  V30 BEGIN ATOM
M  V30 1 Cl 3.5504 1.3706 0.3223 0
M  V30 2 C 1.8685 0.9198 0.0698 0
M  V30 3 C 1.4071 -0.3906 0.3037 0
M  V30 4 C 0.9787 1.8994 -0.3804 0
M  V30 5 N 2.2947 -1.4223 0.7531 0
M  V30 6 C 0.0535 -0.6947 0.0868 0
M  V30 7 C -0.3654 1.5901 -0.5951 0
M  V30 8 C -0.8464 0.2923 -0.3545 0
M  V30 9 C -2.2772 -0.0213 -0.5906 0
M  V30 10 O -2.9537 0.7023 -1.3702 0
M  V30 11 N -2.9189 -1.1214 0.0601 0
M  V30 12 H 1.3289 2.9072 -0.565 0
M  V30 13 H 3.308 -1.2436 0.9242 0
M  V30 14 H 1.9406 -2.3903 0.9223 0
M  V30 15 H -0.2818 -1.7113 0.2418 0
M  V30 16 H -1.0321 2.371 -0.9394 0
M  V30 17 H -2.4559 -1.6507 0.8306 0
M  V30 18 H -3.9102 -1.355 -0.1698 0
M  V30 END ATOM
M  V30 BEGIN BOND
M  V30 1 1 1 2
M  V30 2 2 2 3
M  V30 3 1 2 4
M  V30 4 1 3 5
M  V30 5 1 3 6
M  V30 6 2 4 7
M  V30 7 2 6 8
M  V30 8 1 8 9
M  V30 9 2 9 10
M  V30 10 1 9 11
M  V30 11 1 7 8
M  V30 12 1 4 12
M  V30 13 1 5 13
M  V30 14 1 5 14
M  V30 15 1 6 15
M  V30 16 1 7 16
M  V30 17 1 11 17
M  V30 18 1 11 18
M  V30 END BOND
M  V30 END CTAB
M  END
>  <Structure No>
2410

>  <LogS>
-1.976703976

>  <MMFF94 Energy>
15.693

$$$$
Compound 2411
Actelion Java MolfileCreator 2.0

  0  0  0  0  0  0              0 V3000
M  V30 BEGIN CTAB
M  V30 COUNTS 45 48 0 0 0
M  V30 BEGIN ATOM
M  V30 1 S -2.6374 1.8951 -0.247 0
M  V30 2 O -3.7651 2.7184 0.3138 0
M  V30 3 O -2.1887 2.5099 -1.5438 0
M  V30 4 N -1.3194 1.8911 0.8789 0
M  V30 5 C -3.205 0.2523 -0.5408 0
M  V30 6 C -0.4032 0.7928 0.937 0
M  V30 7 C -2.5319 -0.5661 -1.4611 0
M  V30 8 C -4.2932 -0.264 0.1799 0
M  V30 9 C 0.9207 0.8975 0.442 0
M  V30 10 C -0.8423 -0.398 1.5167 0
M  V30 11 C -2.9473 -1.8863 -1.6622 0
M  V30 12 C -4.7085 -1.5837 -0.0258 0
M  V30 13 C 1.411 2.1398 -0.2315 0
M  V30 14 C 1.7916 -0.2181 0.5574 0
M  V30 15 C -0.0223 -1.5314 1.5512 0
M  V30 16 C -4.0358 -2.3945 -0.946 0
M  V30 17 O 0.655 3.1414 -0.3637 0
M  V30 18 C 2.7846 2.2045 -0.7807 0
M  V30 19 C 3.2312 -0.0438 0.2043 0
M  V30 20 C 1.2888 -1.4542 1.0514 0
M  V30 21 O -0.4853 -2.7577 2.0596 0
M  V30 22 C 3.6733 1.1346 -0.5699 0
M  V30 23 C 3.218 3.3323 -1.5054 0
M  V30 24 O 4.0976 -0.8568 0.6272 0
M  V30 25 N 2.0725 -2.6567 0.9925 0
M  V30 26 C -1.7934 -2.9801 2.5769 0
M  V30 27 C 4.9825 1.2074 -1.0821 0
M  V30 28 C 4.5178 3.3906 -2.0132 0
M  V30 29 C 5.3986 2.3298 -1.802 0
M  V30 30 H -1.1086 2.7663 1.4091 0
M  V30 31 H -1.6783 -0.1869 -2.0102 0
M  V30 32 H -4.812 0.348 0.9076 0
M  V30 33 H -1.8476 -0.4377 1.9138 0
M  V30 34 H -2.4226 -2.5167 -2.3695 0
M  V30 35 H -5.5467 -1.9803 0.5335 0
M  V30 36 H -4.3548 -3.4173 -1.1004 0
M  V30 37 H 2.5529 4.1687 -1.6814 0
M  V30 38 H 2.7807 -2.805 0.2406 0
M  V30 39 H 1.8316 -3.4875 1.5777 0
M  V30 40 H -1.974 -2.3233 3.454 0
M  V30 41 H -2.5529 -2.7871 1.7904 0
M  V30 42 H -1.8796 -4.0374 2.9015 0
M  V30 43 H 5.6825 0.395 -0.9312 0
M  V30 44 H 4.8426 4.2602 -2.571 0
M  V30 45 H 6.4058 2.3769 -2.1967 0
M  V30 END ATOM
M  V30 BEGIN BOND
M  V30 1 2 1 2
M  V30 2 2 1 3
M  V30 3 1 1 4
M  V30 4 1 1 5
M  V30 5 1 4 6
M  V30 6 2 5 7
M  V30 7 1 5 8
M  V30 8 2 6 9
M  V30 9 1 6 10
M  V30 10 1 7 11
M  V30 11 2 8 12
M  V30 12 1 9 13
M  V30 13 1 9 14
M  V30 14 2 10 15
M  V30 15 2 11 16
M  V30 16 2 13 17
M  V30 17 1 13 18
M  V30 18 1 14 19
M  V30 19 2 14 20
M  V30 20 1 15 21
M  V30 21 2 18 22
M  V30 22 1 18 23
M  V30 23 2 19 24
M  V30 24 1 20 25
M  V30 25 1 21 26
M  V30 26 1 22 27
M  V30 27 2 23 28
M  V30 28 2 27 29
M  V30 29 1 12 16
M  V30 30 1 15 20
M  V30 31 1 19 22
M  V30 32 1 28 29
M  V30 33 1 4 30
M  V30 34 1 7 31
M  V30 35 1 8 32
M  V30 36 1 10 33
M  V30 37 1 11 34
M  V30 38 1 12 35
M  V30 39 1 16 36
M  V30 40 1 23 37
M  V30 41 1 25 38
M  V30 42 1 25 39
M  V30 43 1 26 40
M  V30 44 1 26 41
M  V30 45 1 26 42
M  V30 46 1 27 43
M  V30 47 1 28 44
M  V30 48 1 29 45
M  V30 END BOND
M  V30 END CTAB
M  END
>  <Structure No>
2411

>  <LogS>
-2.355850446

>  <MMFF94 Energy>
59.953

$$$$
Compound 2412
Actelion Java MolfileCreator 2.0

  0  0  0  0  0  0              0 V3000
M  V30 BEGIN CTAB
M  V30 COUNTS 39 42 0 0 0
M  V30 BEGIN ATOM
M  V30 1 O 6.3755 -0.322 -0.6442 0
M  V30 2 C 4.9727 -0.4542 -0.6353 0 CFG=1
M  V30 3 C 5.7532 -0.3244 0.6181 0
M  V30 4 C 4.3038 0.806 -1.1898 0
M  V30 5 O 2.9021 0.5906 -1.3474 0
M  V30 6 C 1.9687 0.5013 -0.3017 0
M  V30 7 C 0.6473 0.1677 -0.6238 0
M  V30 8 C 2.3083 0.7396 1.0421 0
M  V30 9 C -0.3395 0.0611 0.3745 0
M  V30 10 C 1.3381 0.637 2.0401 0
M  V30 11 N -1.7015 -0.2873 0.0313 0
M  V30 12 C 0.0237 0.3 1.7123 0
M  V30 13 C -2.8328 0.339 0.7302 0
M  V30 14 C -1.9793 -1.2887 -1.0081 0
M  V30 15 C -3.3946 -0.612 1.7897 0 CFG=2
M  V30 16 C -2.4129 -0.6015 -2.3055 0 CFG=1
M  V30 17 O -4.5428 -1.292 1.3406 0
M  V30 18 C -4.7415 -0.2835 2.3058 0
M  V30 19 O -2.9783 -1.5226 -3.2078 0
M  V30 20 C -3.8608 -0.5961 -2.617 0
M  V30 21 H 4.6665 -1.4632 -0.9826 0
M  V30 22 H 5.8192 0.6754 1.0962 0
M  V30 23 H 5.9574 -1.2684 1.1641 0
M  V30 24 H 4.7316 1.0114 -2.1933 0
M  V30 25 H 4.4889 1.7057 -0.5638 0
M  V30 26 H 0.3935 0.0022 -1.6619 0
M  V30 27 H 3.3134 1.0109 1.3279 0
M  V30 28 H 1.606 0.819 3.073 0
M  V30 29 H -0.7043 0.2154 2.5074 0
M  V30 30 H -3.6154 0.6256 -0.0063 0
M  V30 31 H -2.5102 1.2803 1.2252 0
M  V30 32 H -1.0738 -1.8996 -1.2117 0
M  V30 33 H -2.7532 -2.0003 -0.6453 0
M  V30 34 H -2.7388 -1.245 2.4237 0
M  V30 35 H -1.759 0.1323 -2.8207 0
M  V30 36 H -5.0072 -0.7186 3.2915 0
M  V30 37 H -5.2638 0.5939 1.869 0
M  V30 38 H -4.5493 -1.0935 -1.9018 0
M  V30 39 H -4.1978 0.1634 -3.3523 0
M  V30 END ATOM
M  V30 BEGIN BOND
M  V30 1 1 1 2
M  V30 2 1 1 3
M  V30 3 1 2 4
M  V30 4 1 4 5
M  V30 5 1 5 6
M  V30 6 2 6 7
M  V30 7 1 6 8
M  V30 8 1 7 9
M  V30 9 2 8 10
M  V30 10 1 9 11
M  V30 11 2 9 12
M  V30 12 1 11 13
M  V30 13 1 11 14
M  V30 14 1 13 15
M  V30 15 1 14 16
M  V30 16 1 15 17
M  V30 17 1 15 18
M  V30 18 1 16 19
M  V30 19 1 16 20
M  V30 20 1 2 3
M  V30 21 1 10 12
M  V30 22 1 17 18
M  V30 23 1 19 20
M  V30 24 1 2 21
M  V30 25 1 3 22
M  V30 26 1 3 23
M  V30 27 1 4 24
M  V30 28 1 4 25
M  V30 29 1 7 26
M  V30 30 1 8 27
M  V30 31 1 10 28
M  V30 32 1 12 29
M  V30 33 1 13 30
M  V30 34 1 13 31
M  V30 35 1 14 32
M  V30 36 1 14 33
M  V30 37 1 15 34
M  V30 38 1 16 35
M  V30 39 1 18 36
M  V30 40 1 18 37
M  V30 41 1 20 38
M  V30 42 1 20 39
M  V30 END BOND
M  V30 BEGIN COLLECTION
M  V30 MDLV30/STEABS ATOMS=(3 2 15 16)
M  V30 END COLLECTION
M  V30 END CTAB
M  END
>  <Structure No>
2412

>  <LogS>
-2.192561189

>  <MMFF94 Energy>
56.983

$$$$
Compound 2413
Actelion Java MolfileCreator 2.0

  0  0  0  0  0  0              0 V3000
M  V30 BEGIN CTAB
M  V30 COUNTS 12 12 0 0 0
M  V30 BEGIN ATOM
M  V30 1 C -0.6204 -1.2412 0.0 0
M  V30 2 C 0.7763 -1.1677 -0.0238 0
M  V30 3 C -1.382 -0.0683 0.0402 0
M  V30 4 C 1.4115 0.0786 -0.0075 0
M  V30 5 C -0.7468 1.178 0.0565 0
M  V30 6 C 0.6499 1.2515 0.0326 0
M  V30 7 H -1.1119 -2.2053 -0.0125 0
M  V30 8 H 1.3654 -2.075 -0.055 0
M  V30 9 H -2.4627 -0.125 0.0588 0
M  V30 10 H 2.4921 0.1354 -0.026 0
M  V30 11 H -1.336 2.0854 0.0878 0
M  V30 12 H 1.1413 2.2157 0.0453 0
M  V30 END ATOM
M  V30 BEGIN BOND
M  V30 1 2 1 2
M  V30 2 1 1 3
M  V30 3 1 2 4
M  V30 4 2 3 5
M  V30 5 2 4 6
M  V30 6 1 5 6
M  V30 7 1 1 7
M  V30 8 1 2 8
M  V30 9 1 3 9
M  V30 10 1 4 10
M  V30 11 1 5 11
M  V30 12 1 6 12
M  V30 END BOND
M  V30 END CTAB
M  END
>  <Structure No>
2413

>  <LogS>
-1.642308875

>  <MMFF94 Energy>
16.227

$$$$
Compound 2414
Actelion Java MolfileCreator 2.0

  0  0  0  0  0  0              0 V3000
M  V30 BEGIN CTAB
M  V30 COUNTS 82 83 0 0 0
M  V30 BEGIN ATOM
M  V30 1 N -7.0638 1.0179 0.3131 0 CHG=1
M  V30 2 C -6.0735 0.4209 1.2558 0
M  V30 3 C -6.9639 0.63 -1.1224 0
M  V30 4 C -4.623 0.5579 0.7125 0
M  V30 5 C -6.1492 1.2039 2.5943 0
M  V30 6 C -6.4051 -1.0634 1.5904 0
M  V30 7 C -5.5061 0.7712 -1.6355 0
M  V30 8 C -7.5128 -0.7974 -1.3834 0
M  V30 9 C -7.8529 1.5956 -1.9494 0
M  V30 10 C -4.4631 0.0653 -0.744 0
M  V30 11 N -3.1028 0.334 -1.2818 0 CHG=1
M  V30 12 C -1.9916 -0.3651 -0.6016 0
M  V30 13 C -1.9545 -1.8754 -0.8992 0
M  V30 14 C -0.9221 -2.6212 -0.032 0
M  V30 15 C 0.5485 -2.259 -0.3366 0
M  V30 16 C 1.1288 -1.2503 0.6686 0
M  V30 17 C 2.6651 -1.1709 0.6056 0
M  V30 18 N 3.1537 -0.7638 -0.731 0 CHG=1
M  V30 19 C 4.5406 -0.2278 -0.7656 0
M  V30 20 C 4.6627 1.1578 -0.1085 0
M  V30 21 C 5.5945 -1.2055 -0.1976 0
M  V30 22 C 6.0498 1.7982 -0.4189 0
M  V30 23 C 6.9618 -0.5231 0.153 0
M  V30 24 N 7.1335 0.7697 -0.5705 0 CHG=1
M  V30 25 C 6.4053 2.8174 0.6936 0
M  V30 26 C 5.9369 2.612 -1.7361 0
M  V30 27 C 8.1081 -1.4804 -0.2665 0
M  V30 28 C 7.0888 -0.3335 1.689 0
M  V30 29 H -6.9506 2.0601 0.3592 0
M  V30 30 H -8.0344 0.8225 0.6598 0
M  V30 31 H -4.3058 1.6227 0.7595 0
M  V30 32 H -3.9584 -0.0176 1.3891 0
M  V30 33 H -5.4119 0.8188 3.3314 0
M  V30 34 H -7.1642 1.1191 3.0413 0
M  V30 35 H -5.933 2.2834 2.4414 0
M  V30 36 H -5.916 -1.7754 0.9055 0
M  V30 37 H -7.4987 -1.2455 1.5804 0
M  V30 38 H -6.0329 -1.3417 2.5994 0
M  V30 39 H -5.2424 1.8519 -1.6926 0
M  V30 40 H -5.4373 0.3633 -2.6693 0
M  V30 41 H -6.8316 -1.5936 -1.0421 0
M  V30 42 H -8.4942 -0.938 -0.8881 0
M  V30 43 H -7.6517 -0.9704 -2.475 0
M  V30 44 H -7.8083 1.3505 -3.0339 0
M  V30 45 H -8.912 1.533 -1.6184 0
M  V30 46 H -7.5211 2.6499 -1.8219 0
M  V30 47 H -4.6592 -1.0197 -0.7919 0
M  V30 48 H -2.9137 1.3637 -1.2291 0
M  V30 49 H -3.0751 0.0706 -2.2941 0
M  V30 50 H -1.0413 0.0686 -0.9807 0
M  V30 51 H -2.0044 -0.1811 0.4909 0
M  V30 52 H -1.7385 -2.0488 -1.9804 0
M  V30 53 H -2.9416 -2.3337 -0.6805 0
M  V30 54 H -1.1615 -2.4838 1.0485 0
M  V30 55 H -1.0518 -3.7068 -0.2382 0
M  V30 56 H 0.6523 -1.8681 -1.3709 0
M  V30 57 H 1.1484 -3.1941 -0.2801 0
M  V30 58 H 0.7093 -0.2392 0.4946 0
M  V30 59 H 0.8528 -1.5538 1.704 0
M  V30 60 H 3.0704 -2.172 0.8764 0
M  V30 61 H 2.9917 -0.4555 1.3889 0
M  V30 62 H 3.1092 -1.5976 -1.3652 0
M  V30 63 H 2.5153 -0.0403 -1.1358 0
M  V30 64 H 4.7977 -0.0878 -1.8407 0
M  V30 65 H 3.8407 1.8182 -0.4672 0
M  V30 66 H 4.519 1.0707 0.9868 0
M  V30 67 H 5.7341 -2.0025 -0.961 0
M  V30 68 H 5.2209 -1.7291 0.7053 0
M  V30 69 H 7.2525 0.5407 -1.5897 0
M  V30 70 H 8.0542 1.1872 -0.2829 0
M  V30 71 H 6.5018 2.3379 1.6865 0
M  V30 72 H 7.3688 3.3245 0.4664 0
M  V30 73 H 5.6177 3.6009 0.7723 0
M  V30 74 H 5.6467 1.9615 -2.5889 0
M  V30 75 H 6.9174 3.0752 -1.9893 0
M  V30 76 H 5.1808 3.4243 -1.6508 0
M  V30 77 H 9.0983 -1.0766 0.046 0
M  V30 78 H 8.1223 -1.6255 -1.3735 0
M  V30 79 H 7.9807 -2.4798 0.2032 0
M  V30 80 H 7.1619 -1.3235 2.1915 0
M  V30 81 H 8.0028 0.2462 1.9456 0
M  V30 82 H 6.1964 0.1593 2.1236 0
M  V30 END ATOM
M  V30 BEGIN BOND
M  V30 1 1 1 2
M  V30 2 1 1 3
M  V30 3 1 2 4
M  V30 4 1 2 5
M  V30 5 1 2 6
M  V30 6 1 3 7
M  V30 7 1 3 8
M  V30 8 1 3 9
M  V30 9 1 4 10
M  V30 10 1 10 11
M  V30 11 1 11 12
M  V30 12 1 12 13
M  V30 13 1 13 14
M  V30 14 1 14 15
M  V30 15 1 15 16
M  V30 16 1 16 17
M  V30 17 1 17 18
M  V30 18 1 18 19
M  V30 19 1 19 20
M  V30 20 1 19 21
M  V30 21 1 20 22
M  V30 22 1 21 23
M  V30 23 1 22 24
M  V30 24 1 22 25
M  V30 25 1 22 26
M  V30 26 1 23 27
M  V30 27 1 23 28
M  V30 28 1 7 10
M  V30 29 1 23 24
M  V30 30 1 1 29
M  V30 31 1 1 30
M  V30 32 1 4 31
M  V30 33 1 4 32
M  V30 34 1 5 33
M  V30 35 1 5 34
M  V30 36 1 5 35
M  V30 37 1 6 36
M  V30 38 1 6 37
M  V30 39 1 6 38
M  V30 40 1 7 39
M  V30 41 1 7 40
M  V30 42 1 8 41
M  V30 43 1 8 42
M  V30 44 1 8 43
M  V30 45 1 9 44
M  V30 46 1 9 45
M  V30 47 1 9 46
M  V30 48 1 10 47
M  V30 49 1 11 48
M  V30 50 1 11 49
M  V30 51 1 12 50
M  V30 52 1 12 51
M  V30 53 1 13 52
M  V30 54 1 13 53
M  V30 55 1 14 54
M  V30 56 1 14 55
M  V30 57 1 15 56
M  V30 58 1 15 57
M  V30 59 1 16 58
M  V30 60 1 16 59
M  V30 61 1 17 60
M  V30 62 1 17 61
M  V30 63 1 18 62
M  V30 64 1 18 63
M  V30 65 1 19 64
M  V30 66 1 20 65
M  V30 67 1 20 66
M  V30 68 1 21 67
M  V30 69 1 21 68
M  V30 70 1 24 69
M  V30 71 1 24 70
M  V30 72 1 25 71
M  V30 73 1 25 72
M  V30 74 1 25 73
M  V30 75 1 26 74
M  V30 76 1 26 75
M  V30 77 1 26 76
M  V30 78 1 27 77
M  V30 79 1 27 78
M  V30 80 1 27 79
M  V30 81 1 28 80
M  V30 82 1 28 81
M  V30 83 1 28 82
M  V30 END BOND
M  V30 END CTAB
M  END
>  <Structure No>
2414

>  <LogS>
-2.350745656

>  <MMFF94 Energy>
283.93

$$$$
Compound 2415
Actelion Java MolfileCreator 2.0

  0  0  0  0  0  0              0 V3000
M  V30 BEGIN CTAB
M  V30 COUNTS 42 41 0 0 0
M  V30 BEGIN ATOM
M  V30 1 O -3.3525 0.0 -2.104 0
M  V30 2 C -2.6136 -0.6359 -1.0867 0 CFG=1
M  V30 3 C -1.198 -0.2353 -1.2142 0
M  V30 4 C -3.1876 -0.1479 0.2734 0
M  V30 5 C -2.7404 -2.1632 -1.2497 0
M  V30 6 C -0.0419 0.0934 -1.309 0
M  V30 7 C -2.7575 -0.9152 1.5558 0
M  V30 8 C 1.3758 0.4931 -1.4046 0 CFG=2
M  V30 9 C -1.2507 -0.8153 1.8382 0
M  V30 10 C -3.5404 -0.3762 2.7619 0
M  V30 11 O 2.0443 -0.386 -2.2776 0
M  V30 12 C 2.0055 0.4435 0.0158 0
M  V30 13 C 1.4324 1.9075 -1.9979 0
M  V30 14 C 3.5281 0.7663 0.0515 0
M  V30 15 C 3.7864 2.1934 0.5593 0
M  V30 16 C 4.2813 -0.2373 0.9355 0
M  V30 17 H -2.9839 -0.2791 -2.9843 0
M  V30 18 H -2.9539 0.9336 0.3988 0
M  V30 19 H -4.2968 -0.215 0.2023 0
M  V30 20 H -2.078 -2.7033 -0.5408 0
M  V30 21 H -3.791 -2.4817 -1.0785 0
M  V30 22 H -2.4474 -2.4708 -2.2767 0
M  V30 23 H -3.0274 -1.9881 1.4549 0
M  V30 24 H -0.9108 0.2416 1.7952 0
M  V30 25 H -1.0156 -1.2225 2.8449 0
M  V30 26 H -0.6766 -1.421 1.1088 0
M  V30 27 H -4.6334 -0.4796 2.5907 0
M  V30 28 H -3.3043 0.6961 2.9349 0
M  V30 29 H -3.2852 -0.9515 3.6775 0
M  V30 30 H 2.014 -1.2966 -1.8802 0
M  V30 31 H 1.449 1.13 0.6939 0
M  V30 32 H 1.829 -0.5768 0.4267 0
M  V30 33 H 0.9755 2.6461 -1.3036 0
M  V30 34 H 2.4815 2.2051 -2.204 0
M  V30 35 H 0.8828 1.9444 -2.964 0
M  V30 36 H 3.9617 0.6847 -0.969 0
M  V30 37 H 3.4383 2.3041 1.609 0
M  V30 38 H 4.8726 2.4233 0.5184 0
M  V30 39 H 3.2561 2.9384 -0.0676 0
M  V30 40 H 4.1595 -1.266 0.5333 0
M  V30 41 H 3.8938 -0.2096 1.9768 0
M  V30 42 H 5.3671 -0.0016 0.9491 0
M  V30 END ATOM
M  V30 BEGIN BOND
M  V30 1 1 1 2
M  V30 2 1 2 3
M  V30 3 1 2 4
M  V30 4 1 2 5
M  V30 5 3 3 6
M  V30 6 1 4 7
M  V30 7 1 6 8
M  V30 8 1 7 9
M  V30 9 1 7 10
M  V30 10 1 8 11
M  V30 11 1 8 12
M  V30 12 1 8 13
M  V30 13 1 12 14
M  V30 14 1 14 15
M  V30 15 1 14 16
M  V30 16 1 1 17
M  V30 17 1 4 18
M  V30 18 1 4 19
M  V30 19 1 5 20
M  V30 20 1 5 21
M  V30 21 1 5 22
M  V30 22 1 7 23
M  V30 23 1 9 24
M  V30 24 1 9 25
M  V30 25 1 9 26
M  V30 26 1 10 27
M  V30 27 1 10 28
M  V30 28 1 10 29
M  V30 29 1 11 30
M  V30 30 1 12 31
M  V30 31 1 12 32
M  V30 32 1 13 33
M  V30 33 1 13 34
M  V30 34 1 13 35
M  V30 35 1 14 36
M  V30 36 1 15 37
M  V30 37 1 15 38
M  V30 38 1 15 39
M  V30 39 1 16 40
M  V30 40 1 16 41
M  V30 41 1 16 42
M  V30 END BOND
M  V30 BEGIN COLLECTION
M  V30 MDLV30/STEABS ATOMS=(2 2 8)
M  V30 END COLLECTION
M  V30 END CTAB
M  END
>  <Structure No>
2415

>  <LogS>
-2.124350764

>  <MMFF94 Energy>
17.542

$$$$
Compound 2416
Actelion Java MolfileCreator 2.0

  0  0  0  0  0  0              0 V3000
M  V30 BEGIN CTAB
M  V30 COUNTS 21 20 0 0 0
M  V30 BEGIN ATOM
M  V30 1 O 1.7016 1.0826 -0.0772 0
M  V30 2 C 1.9277 -0.1197 -0.3882 0
M  V30 3 O 0.898 -0.9345 -0.8714 0
M  V30 4 C 3.2786 -0.6868 -0.2567 0
M  V30 5 C -0.4553 -0.5012 -0.9935 0
M  V30 6 C 4.3129 0.0208 0.194 0
M  V30 7 C -1.1298 -0.4572 0.3836 0
M  V30 8 C -2.6364 -0.171 0.2953 0
M  V30 9 C -2.9392 1.2655 -0.1291 0
M  V30 10 H 3.4348 -1.7208 -0.5373 0
M  V30 11 H -0.4882 0.4941 -1.4859 0
M  V30 12 H -0.993 -1.2249 -1.6419 0
M  V30 13 H 4.2053 1.0575 0.4871 0
M  V30 14 H 5.2883 -0.4412 0.2732 0
M  V30 15 H -0.9913 -1.4453 0.8737 0
M  V30 16 H -0.6394 0.3063 1.0248 0
M  V30 17 H -3.1204 -0.8788 -0.4121 0
M  V30 18 H -3.085 -0.3396 1.2982 0
M  V30 19 H -2.4247 1.9859 0.5417 0
M  V30 20 H -4.0332 1.4453 -0.0674 0
M  V30 21 H -2.6189 1.4417 -1.1766 0
M  V30 END ATOM
M  V30 BEGIN BOND
M  V30 1 2 1 2
M  V30 2 1 2 3
M  V30 3 1 2 4
M  V30 4 1 3 5
M  V30 5 2 4 6
M  V30 6 1 5 7
M  V30 7 1 7 8
M  V30 8 1 8 9
M  V30 9 1 4 10
M  V30 10 1 5 11
M  V30 11 1 5 12
M  V30 12 1 6 13
M  V30 13 1 6 14
M  V30 14 1 7 15
M  V30 15 1 7 16
M  V30 16 1 8 17
M  V30 17 1 8 18
M  V30 18 1 9 19
M  V30 19 1 9 20
M  V30 20 1 9 21
M  V30 END BOND
M  V30 END CTAB
M  END
>  <Structure No>
2416

>  <LogS>
-1.877340851

>  <MMFF94 Energy>
-2.4346

$$$$
Compound 2417
Actelion Java MolfileCreator 2.0

  0  0  0  0  0  0              0 V3000
M  V30 BEGIN CTAB
M  V30 COUNTS 33 33 0 0 0
M  V30 BEGIN ATOM
M  V30 1 O 0.9409 -1.3331 0.1567 0
M  V30 2 C 0.1056 -1.0209 1.2522 0
M  V30 3 C 2.3023 -1.1592 0.5021 0
M  V30 4 C -1.3213 -1.0093 0.7853 0
M  V30 5 C 2.7911 0.2153 0.0347 0
M  V30 6 C -1.8549 0.1407 0.1821 0
M  V30 7 C -2.1099 -2.1645 0.8859 0
M  V30 8 C 4.2843 0.4007 0.3274 0
M  V30 9 C -3.1814 0.1495 -0.2933 0
M  V30 10 C -3.4251 -2.1611 0.4173 0
M  V30 11 C 4.7714 1.7694 -0.1393 0
M  V30 12 O -3.7535 1.2821 -0.8938 0
M  V30 13 C -3.9634 -1.0081 -0.1693 0
M  V30 14 C -3.0775 2.5206 -1.0861 0
M  V30 15 O -5.277 -1.0055 -0.6359 0
M  V30 16 H 0.2299 -1.7809 2.0568 0
M  V30 17 H 0.3508 -0.0218 1.6811 0
M  V30 18 H 2.8864 -1.9419 -0.0275 0
M  V30 19 H 2.5065 -1.2965 1.5915 0
M  V30 20 H 2.2124 1.0095 0.5543 0
M  V30 21 H 2.612 0.3106 -1.0587 0
M  V30 22 H -1.2317 1.0202 0.0868 0
M  V30 23 H -1.707 -3.0679 1.3271 0
M  V30 24 H 4.8699 -0.3865 -0.1954 0
M  V30 25 H 4.4663 0.308 1.4205 0
M  V30 26 H -4.0255 -3.0575 0.5069 0
M  V30 27 H 4.2189 2.5762 0.3882 0
M  V30 28 H 4.6231 1.8788 -1.2348 0
M  V30 29 H 5.8537 1.8752 0.0849 0
M  V30 30 H -3.7658 3.2363 -1.5805 0
M  V30 31 H -2.7688 2.9434 -0.1066 0
M  V30 32 H -2.1897 2.3739 -1.7368 0
M  V30 33 H -5.8678 -1.8255 -0.5623 0
M  V30 END ATOM
M  V30 BEGIN BOND
M  V30 1 1 1 2
M  V30 2 1 1 3
M  V30 3 1 2 4
M  V30 4 1 3 5
M  V30 5 2 4 6
M  V30 6 1 4 7
M  V30 7 1 5 8
M  V30 8 1 6 9
M  V30 9 2 7 10
M  V30 10 1 8 11
M  V30 11 1 9 12
M  V30 12 2 9 13
M  V30 13 1 12 14
M  V30 14 1 13 15
M  V30 15 1 10 13
M  V30 16 1 2 16
M  V30 17 1 2 17
M  V30 18 1 3 18
M  V30 19 1 3 19
M  V30 20 1 5 20
M  V30 21 1 5 21
M  V30 22 1 6 22
M  V30 23 1 7 23
M  V30 24 1 8 24
M  V30 25 1 8 25
M  V30 26 1 10 26
M  V30 27 1 11 27
M  V30 28 1 11 28
M  V30 29 1 11 29
M  V30 30 1 14 30
M  V30 31 1 14 31
M  V30 32 1 14 32
M  V30 33 1 15 33
M  V30 END BOND
M  V30 END CTAB
M  END
>  <Structure No>
2417

>  <LogS>
-2.094896806

>  <MMFF94 Energy>
26.072

$$$$
Compound 2418
Actelion Java MolfileCreator 2.0

  0  0  0  0  0  0              0 V3000
M  V30 BEGIN CTAB
M  V30 COUNTS 14 14 0 0 0
M  V30 BEGIN ATOM
M  V30 1 Cl 0.9182 2.8401 0.0 0
M  V30 2 C 0.1702 1.2475 0.0136 0
M  V30 3 C 0.9367 0.0652 -0.0633 0
M  V30 4 C -1.2252 1.1681 0.1041 0
M  V30 5 N 2.3661 0.1085 -0.1567 0
M  V30 6 C 0.2855 -1.1786 -0.0483 0
M  V30 7 C -1.8624 -0.0747 0.1182 0
M  V30 8 C -1.1084 -1.2485 0.0422 0
M  V30 9 Cl -1.9101 -2.8088 0.0601 0
M  V30 10 H -1.8186 2.0718 0.1635 0
M  V30 11 H 2.8917 1.0097 -0.1711 0
M  V30 12 H 2.9206 -0.7748 -0.213 0
M  V30 13 H 0.8629 -2.0932 -0.1068 0
M  V30 14 H -2.9417 -0.1239 0.1883 0
M  V30 END ATOM
M  V30 BEGIN BOND
M  V30 1 1 1 2
M  V30 2 2 2 3
M  V30 3 1 2 4
M  V30 4 1 3 5
M  V30 5 1 3 6
M  V30 6 2 4 7
M  V30 7 2 6 8
M  V30 8 1 8 9
M  V30 9 1 7 8
M  V30 10 1 4 10
M  V30 11 1 5 11
M  V30 12 1 5 12
M  V30 13 1 6 13
M  V30 14 1 7 14
M  V30 END BOND
M  V30 END CTAB
M  END
>  <Structure No>
2418

>  <LogS>
-2.07500028

>  <MMFF94 Energy>
28.581

$$$$
Compound 2419
Actelion Java MolfileCreator 2.0

  0  0  0  0  0  0              0 V3000
M  V30 BEGIN CTAB
M  V30 COUNTS 50 49 0 0 0
M  V30 BEGIN ATOM
M  V30 1 S 6.8978 -0.56 -2.4822 0
M  V30 2 O 8.3035 -0.6948 -1.9697 0
M  V30 3 O 6.7269 0.7856 -3.1297 0
M  V30 4 O 6.6174 -1.7587 -3.6244 0 CHG=-1
M  V30 5 C 5.7321 -0.7566 -1.1363 0
M  V30 6 C 5.6037 0.4996 -0.2594 0 CFG=1
M  V30 7 O 4.4954 0.3167 0.6228 0
M  V30 8 C 6.8757 0.7556 0.559 0
M  V30 9 C 3.8594 1.3656 1.2959 0
M  V30 10 O 4.2064 2.563 1.1025 0
M  V30 11 C 2.7091 1.0637 2.2026 0
M  V30 12 C 1.4007 1.0251 1.4078 0
M  V30 13 C 0.2125 0.6842 2.3198 0
M  V30 14 C -1.1393 0.7793 1.5947 0
M  V30 15 C -1.3485 -0.359 0.5805 0
M  V30 16 C -2.7241 -0.2905 -0.1038 0
M  V30 17 C -3.8536 -0.8386 0.7862 0
M  V30 18 C -5.2401 -0.6797 0.1422 0
M  V30 19 C -5.4415 -1.6049 -1.0705 0
M  V30 20 C -6.8975 -1.6225 -1.5608 0
M  V30 21 C -7.3213 -0.2982 -2.194 0
M  V30 22 H 6.0301 -1.6303 -0.5187 0
M  V30 23 H 4.7398 -0.9818 -1.5816 0
M  V30 24 H 5.405 1.3753 -0.9166 0
M  V30 25 H 7.7263 1.009 -0.106 0
M  V30 26 H 6.7231 1.6144 1.2442 0
M  V30 27 H 7.1343 -0.1381 1.1663 0
M  V30 28 H 2.8829 0.0801 2.6905 0
M  V30 29 H 2.6492 1.8407 2.9963 0
M  V30 30 H 1.4909 0.2596 0.6078 0
M  V30 31 H 1.2321 2.0171 0.9335 0
M  V30 32 H 0.1958 1.4031 3.1689 0
M  V30 33 H 0.3412 -0.3351 2.7457 0
M  V30 34 H -1.9357 0.7366 2.367 0
M  V30 35 H -1.2216 1.7633 1.0827 0
M  V30 36 H -0.5768 -0.2798 -0.2139 0
M  V30 37 H -1.221 -1.3454 1.0777 0
M  V30 38 H -2.9452 0.7572 -0.4054 0
M  V30 39 H -2.6692 -0.9021 -1.0295 0
M  V30 40 H -3.667 -1.9099 1.0182 0
M  V30 41 H -3.8684 -0.2867 1.7484 0
M  V30 42 H -6.0051 -0.923 0.9121 0
M  V30 43 H -5.3856 0.3807 -0.1552 0
M  V30 44 H -5.1644 -2.6429 -0.7847 0
M  V30 45 H -4.7788 -1.2939 -1.9061 0
M  V30 46 H -7.5829 -1.8697 -0.721 0
M  V30 47 H -7.0014 -2.4229 -2.3245 0
M  V30 48 H -8.3342 -0.4082 -2.6351 0
M  V30 49 H -6.6133 -0.0078 -2.9996 0
M  V30 50 H -7.3631 0.5061 -1.4309 0
M  V30 END ATOM
M  V30 BEGIN BOND
M  V30 1 2 1 2
M  V30 2 2 1 3
M  V30 3 1 1 4
M  V30 4 1 1 5
M  V30 5 1 5 6
M  V30 6 1 6 7
M  V30 7 1 6 8
M  V30 8 1 7 9
M  V30 9 2 9 10
M  V30 10 1 9 11
M  V30 11 1 11 12
M  V30 12 1 12 13
M  V30 13 1 13 14
M  V30 14 1 14 15
M  V30 15 1 15 16
M  V30 16 1 16 17
M  V30 17 1 17 18
M  V30 18 1 18 19
M  V30 19 1 19 20
M  V30 20 1 20 21
M  V30 21 1 5 22
M  V30 22 1 5 23
M  V30 23 1 6 24
M  V30 24 1 8 25
M  V30 25 1 8 26
M  V30 26 1 8 27
M  V30 27 1 11 28
M  V30 28 1 11 29
M  V30 29 1 12 30
M  V30 30 1 12 31
M  V30 31 1 13 32
M  V30 32 1 13 33
M  V30 33 1 14 34
M  V30 34 1 14 35
M  V30 35 1 15 36
M  V30 36 1 15 37
M  V30 37 1 16 38
M  V30 38 1 16 39
M  V30 39 1 17 40
M  V30 40 1 17 41
M  V30 41 1 18 42
M  V30 42 1 18 43
M  V30 43 1 19 44
M  V30 44 1 19 45
M  V30 45 1 20 46
M  V30 46 1 20 47
M  V30 47 1 21 48
M  V30 48 1 21 49
M  V30 49 1 21 50
M  V30 END BOND
M  V30 BEGIN COLLECTION
M  V30 MDLV30/STEABS ATOMS=(1 6)
M  V30 END COLLECTION
M  V30 END CTAB
M  END
>  <Structure No>
2419

>  <LogS>
-2.618046836

>  <MMFF94 Energy>
-14.734

$$$$
Compound 2420
Actelion Java MolfileCreator 2.0

  0  0  0  0  0  0              0 V3000
M  V30 BEGIN CTAB
M  V30 COUNTS 15 15 0 0 0
M  V30 BEGIN ATOM
M  V30 1 S 0.9966 -1.8277 0.9966 0
M  V30 2 C 1.7579 -0.4253 0.4715 0
M  V30 3 C -0.4653 -1.4213 0.2679 0
M  V30 4 N 0.9341 0.363 -0.2497 0
M  V30 5 N 3.1128 -0.0877 0.7544 0
M  V30 6 C -0.3018 -0.1933 -0.3727 0
M  V30 7 C -1.4116 0.506 -1.0932 0
M  V30 8 C -2.1808 1.362 -0.1399 0
M  V30 9 O -1.8325 2.555 0.0634 0
M  V30 10 O -3.2542 0.829 0.5627 0 CHG=-1
M  V30 11 H -1.374 -2.008 0.2979 0
M  V30 12 H 3.7092 -0.7305 1.3208 0
M  V30 13 H 3.5184 0.8053 0.3969 0
M  V30 14 H -0.9915 1.1337 -1.9085 0
M  V30 15 H -2.0931 -0.2394 -1.5568 0
M  V30 END ATOM
M  V30 BEGIN BOND
M  V30 1 1 1 2
M  V30 2 1 1 3
M  V30 3 2 2 4
M  V30 4 1 2 5
M  V30 5 2 3 6
M  V30 6 1 6 7
M  V30 7 1 7 8
M  V30 8 2 8 9
M  V30 9 1 8 10
M  V30 10 1 4 6
M  V30 11 1 3 11
M  V30 12 1 5 12
M  V30 13 1 5 13
M  V30 14 1 7 14
M  V30 15 1 7 15
M  V30 END BOND
M  V30 END CTAB
M  END
>  <Structure No>
2420

>  <LogS>
-1.981673118

>  <MMFF94 Energy>
-12.512

$$$$
Compound 2421
Actelion Java MolfileCreator 2.0

  0  0  0  0  0  0              0 V3000
M  V30 BEGIN CTAB
M  V30 COUNTS 47 49 0 0 0
M  V30 BEGIN ATOM
M  V30 1 N -1.7547 3.2722 1.7547 0
M  V30 2 C -1.5587 2.3288 1.1132 0
M  V30 3 C -1.3069 1.1186 0.2897 0 CFG=1
M  V30 4 N -2.6225 0.4072 0.1073 0
M  V30 5 C -0.242 0.2351 0.9996 0
M  V30 6 C -0.714 1.618 -1.0606 0
M  V30 7 C -3.2012 -0.0852 1.387 0
M  V30 8 C -2.6343 -0.6898 -0.8956 0
M  V30 9 C 1.1335 0.9303 1.0948 0
M  V30 10 C 0.6605 2.2935 -0.88 0
M  V30 11 C -4.6572 -0.5126 1.1913 0
M  V30 12 C -4.0667 -1.1828 -1.1492 0
M  V30 13 N 1.6449 1.4083 -0.213 0 CHG=1 CFG=1
M  V30 14 C -4.7395 -1.6254 0.149 0
M  V30 15 C 2.0988 0.3087 -1.1045 0
M  V30 16 C 3.3356 -0.3794 -0.574 0
M  V30 17 C 4.5888 0.2489 -0.6675 0
M  V30 18 C 3.2434 -1.6431 0.0346 0
M  V30 19 C 5.7317 -0.3795 -0.1631 0
M  V30 20 C 4.3887 -2.2676 0.5382 0
M  V30 21 C 5.6317 -1.6367 0.4389 0
M  V30 22 H -0.5626 -3.0E-4 2.0372 0
M  V30 23 H -0.1249 -0.7327 0.4732 0
M  V30 24 H -1.4163 2.3322 -1.545 0
M  V30 25 H -0.5487 0.7902 -1.7722 0
M  V30 26 H -3.1944 0.7054 2.1662 0
M  V30 27 H -2.624 -0.9536 1.7762 0
M  V30 28 H -2.285 -0.3419 -1.8836 0
M  V30 29 H -1.9983 -1.5407 -0.5679 0
M  V30 30 H 1.8581 0.236 1.5712 0
M  V30 31 H 1.0505 1.7934 1.7934 0
M  V30 32 H 1.0405 2.6137 -1.8761 0
M  V30 33 H 0.5399 3.2303 -0.291 0
M  V30 34 H -5.2618 0.3607 0.8613 0
M  V30 35 H -5.0709 -0.879 2.1556 0
M  V30 36 H -4.0451 -2.0363 -1.8609 0
M  V30 37 H -4.6615 -0.3642 -1.612 0
M  V30 38 H 2.4797 2.0094 -0.0105 0
M  V30 39 H -5.8051 -1.8707 -0.0492 0
M  V30 40 H -4.2399 -2.5409 0.5361 0
M  V30 41 H 1.2949 -0.4386 -1.2694 0
M  V30 42 H 2.3486 0.7131 -2.1112 0
M  V30 43 H 4.6791 1.224 -1.1301 0
M  V30 44 H 2.2856 -2.141 0.1244 0
M  V30 45 H 6.6947 0.1088 -0.2382 0
M  V30 46 H 4.312 -3.2401 1.007 0
M  V30 47 H 6.5171 -2.1213 0.8296 0
M  V30 END ATOM
M  V30 BEGIN BOND
M  V30 1 3 1 2
M  V30 2 1 2 3
M  V30 3 1 3 4
M  V30 4 1 3 5
M  V30 5 1 3 6
M  V30 6 1 4 7
M  V30 7 1 4 8
M  V30 8 1 5 9
M  V30 9 1 6 10
M  V30 10 1 7 11
M  V30 11 1 8 12
M  V30 12 1 9 13
M  V30 13 1 11 14
M  V30 14 1 13 15
M  V30 15 1 15 16
M  V30 16 2 16 17
M  V30 17 1 16 18
M  V30 18 1 17 19
M  V30 19 2 18 20
M  V30 20 2 19 21
M  V30 21 1 10 13
M  V30 22 1 12 14
M  V30 23 1 20 21
M  V30 24 1 5 22
M  V30 25 1 5 23
M  V30 26 1 6 24
M  V30 27 1 6 25
M  V30 28 1 7 26
M  V30 29 1 7 27
M  V30 30 1 8 28
M  V30 31 1 8 29
M  V30 32 1 9 30
M  V30 33 1 9 31
M  V30 34 1 10 32
M  V30 35 1 10 33
M  V30 36 1 11 34
M  V30 37 1 11 35
M  V30 38 1 12 36
M  V30 39 1 12 37
M  V30 40 1 13 38
M  V30 41 1 14 39
M  V30 42 1 14 40
M  V30 43 1 15 41
M  V30 44 1 15 42
M  V30 45 1 17 43
M  V30 46 1 18 44
M  V30 47 1 19 45
M  V30 48 1 20 46
M  V30 49 1 21 47
M  V30 END BOND
M  V30 BEGIN COLLECTION
M  V30 MDLV30/STEABS ATOMS=(2 3 13)
M  V30 END COLLECTION
M  V30 END CTAB
M  END
>  <Structure No>
2421

>  <LogS>
-2.245992211

>  <MMFF94 Energy>
25.727

$$$$
Compound 2422
Actelion Java MolfileCreator 2.0

  0  0  0  0  0  0              0 V3000
M  V30 BEGIN CTAB
M  V30 COUNTS 27 27 0 0 0
M  V30 BEGIN ATOM
M  V30 1 O -3.5926 -1.4046 1.5607 0
M  V30 2 C -2.7379 -0.9022 0.5819 0
M  V30 3 C -1.4859 -0.3976 0.9518 0
M  V30 4 C -3.1218 -0.8964 -0.7644 0
M  V30 5 C -0.6048 0.1175 -0.0185 0
M  V30 6 C -2.2585 -0.3854 -1.7349 0
M  V30 7 N 0.6942 0.6312 0.3596 0
M  V30 8 C -1.0086 0.1196 -1.367 0
M  V30 9 C 1.2012 1.8761 -0.2374 0
M  V30 10 C 1.527 -0.0782 1.3454 0
M  V30 11 C 2.3273 1.59 -1.2283 0
M  V30 12 C 1.9061 -1.4663 0.8374 0
M  V30 13 H -4.5057 -1.7763 1.3264 0
M  V30 14 H -1.2178 -0.3948 1.9988 0
M  V30 15 H -4.0883 -1.2857 -1.0587 0
M  V30 16 H -2.5572 -0.3828 -2.7753 0
M  V30 17 H -0.3541 0.4991 -2.1391 0
M  V30 18 H 1.5786 2.5474 0.5643 0
M  V30 19 H 0.3852 2.4241 -0.7572 0
M  V30 20 H 0.9956 -0.1622 2.3153 0
M  V30 21 H 2.4626 0.4881 1.5464 0
M  V30 22 H 1.9887 0.8786 -2.0095 0
M  V30 23 H 2.6405 2.536 -1.7179 0
M  V30 24 H 3.2051 1.158 -0.7038 0
M  V30 25 H 0.9997 -2.0959 0.716 0
M  V30 26 H 2.5833 -1.9582 1.567 0
M  V30 27 H 2.4286 -1.3856 -0.1391 0
M  V30 END ATOM
M  V30 BEGIN BOND
M  V30 1 1 1 2
M  V30 2 2 2 3
M  V30 3 1 2 4
M  V30 4 1 3 5
M  V30 5 2 4 6
M  V30 6 1 5 7
M  V30 7 2 5 8
M  V30 8 1 7 9
M  V30 9 1 7 10
M  V30 10 1 9 11
M  V30 11 1 10 12
M  V30 12 1 6 8
M  V30 13 1 1 13
M  V30 14 1 3 14
M  V30 15 1 4 15
M  V30 16 1 6 16
M  V30 17 1 8 17
M  V30 18 1 9 18
M  V30 19 1 9 19
M  V30 20 1 10 20
M  V30 21 1 10 21
M  V30 22 1 11 22
M  V30 23 1 11 23
M  V30 24 1 11 24
M  V30 25 1 12 25
M  V30 26 1 12 26
M  V30 27 1 12 27
M  V30 END BOND
M  V30 END CTAB
M  END
>  <Structure No>
2422

>  <LogS>
-2.011278797

>  <MMFF94 Energy>
9.3337

$$$$
Compound 2423
Actelion Java MolfileCreator 2.0

  0  0  0  0  0  0              0 V3000
M  V30 BEGIN CTAB
M  V30 COUNTS 20 19 0 0 0
M  V30 BEGIN ATOM
M  V30 1 O -0.2458 4.0206 -0.2458 0
M  V30 2 N 0.1715 2.9125 0.1444 0 CHG=1
M  V30 3 O -0.4681 1.7617 -0.2724 0
M  V30 4 O 1.2315 2.8593 1.0206 0 CHG=-1
M  V30 5 C -0.0205 0.4594 0.1015 0
M  V30 6 C -1.1516 -0.5431 -0.1435 0
M  V30 7 C 1.2283 0.0869 -0.7076 0
M  V30 8 O -2.2885 -0.1814 0.6323 0
M  V30 9 O 1.7445 -1.1636 -0.2654 0
M  V30 10 N -3.4543 -0.9183 0.5972 0 CHG=1
M  V30 11 N 2.8669 -1.7274 -0.8358 0 CHG=1
M  V30 12 O -4.4262 -0.5645 1.2938 0
M  V30 13 O -3.5596 -2.0381 -0.1957 0 CHG=-1
M  V30 14 O 3.2834 -2.8254 -0.4174 0
M  V30 15 O 3.5328 -1.0947 -1.8608 0 CHG=-1
M  V30 16 H 0.2265 0.4495 1.1865 0
M  V30 17 H -1.4276 -0.5462 -1.2208 0
M  V30 18 H -0.8241 -1.5643 0.1485 0
M  V30 19 H 0.9764 0.0269 -1.789 0
M  V30 20 H 2.0082 0.8659 -0.5719 0
M  V30 END ATOM
M  V30 BEGIN BOND
M  V30 1 2 1 2
M  V30 2 1 2 3
M  V30 3 1 2 4
M  V30 4 1 3 5
M  V30 5 1 5 6
M  V30 6 1 5 7
M  V30 7 1 6 8
M  V30 8 1 7 9
M  V30 9 1 8 10
M  V30 10 1 9 11
M  V30 11 2 10 12
M  V30 12 1 10 13
M  V30 13 2 11 14
M  V30 14 1 11 15
M  V30 15 1 5 16
M  V30 16 1 6 17
M  V30 17 1 6 18
M  V30 18 1 7 19
M  V30 19 1 7 20
M  V30 END BOND
M  V30 END CTAB
M  END
>  <Structure No>
2423

>  <LogS>
-2.152068465

>  <MMFF94 Energy>
-43.334

$$$$
Compound 2424
Actelion Java MolfileCreator 2.0

  0  0  0  0  0  0              0 V3000
M  V30 BEGIN CTAB
M  V30 COUNTS 22 22 0 0 0
M  V30 BEGIN ATOM
M  V30 1 O 1.7365 -0.7101 1.1837 0
M  V30 2 C 1.8439 -0.4181 -0.0387 0
M  V30 3 O 3.0894 -0.4865 -0.6691 0
M  V30 4 C 0.6713 -0.0119 -0.8394 0
M  V30 5 C 4.2758 -0.8712 0.0149 0
M  V30 6 C -0.5761 0.1545 -0.3668 0
M  V30 7 C -1.7064 0.54 -1.2537 0
M  V30 8 C -1.0051 -0.0129 1.0512 0
M  V30 9 C -2.946 0.4104 -0.3778 0
M  V30 10 C -2.4601 0.4415 1.0699 0
M  V30 11 H 0.8441 0.1595 -1.8954 0
M  V30 12 H 4.1673 -1.9018 0.4144 0
M  V30 13 H 4.4806 -0.1653 0.8476 0
M  V30 14 H 5.1289 -0.8484 -0.6936 0
M  V30 15 H -1.7759 -0.1391 -2.1314 0
M  V30 16 H -1.5741 1.5901 -1.594 0
M  V30 17 H -0.9289 -1.0822 1.3453 0
M  V30 18 H -0.3992 0.6236 1.732 0
M  V30 19 H -3.669 1.2308 -0.5779 0
M  V30 20 H -3.4417 -0.5652 -0.578 0
M  V30 21 H -3.0802 -0.2167 1.7165 0
M  V30 22 H -2.5195 1.4839 1.4545 0
M  V30 END ATOM
M  V30 BEGIN BOND
M  V30 1 2 1 2
M  V30 2 1 2 3
M  V30 3 1 2 4
M  V30 4 1 3 5
M  V30 5 2 4 6
M  V30 6 1 6 7
M  V30 7 1 6 8
M  V30 8 1 7 9
M  V30 9 1 8 10
M  V30 10 1 9 10
M  V30 11 1 4 11
M  V30 12 1 5 12
M  V30 13 1 5 13
M  V30 14 1 5 14
M  V30 15 1 7 15
M  V30 16 1 7 16
M  V30 17 1 8 17
M  V30 18 1 8 18
M  V30 19 1 9 19
M  V30 20 1 9 20
M  V30 21 1 10 21
M  V30 22 1 10 22
M  V30 END BOND
M  V30 END CTAB
M  END
>  <Structure No>
2424

>  <LogS>
-1.942572269

>  <MMFF94 Energy>
3.0285

$$$$
Compound 2425
Actelion Java MolfileCreator 2.0

  0  0  0  0  0  0              0 V3000
M  V30 BEGIN CTAB
M  V30 COUNTS 12 12 0 0 0
M  V30 BEGIN ATOM
M  V30 1 F -2.2922 -1.5013 0.0 0
M  V30 2 C -1.1676 -0.7442 -0.0151 0
M  V30 3 C 0.0896 -1.3585 -0.0264 0
M  V30 4 C -1.2636 0.6519 -0.0196 0
M  V30 5 C 1.2499 -0.577 -0.042 0
M  V30 6 C -0.103 1.433 -0.0352 0
M  V30 7 C 1.1536 0.8185 -0.0465 0
M  V30 8 H 0.1656 -2.4382 -0.0228 0
M  V30 9 H -2.2354 1.1288 -0.0109 0
M  V30 10 H 2.2224 -1.0523 -0.0507 0
M  V30 11 H -0.1775 2.5129 -0.0387 0
M  V30 12 H 2.0514 1.423 -0.0585 0
M  V30 END ATOM
M  V30 BEGIN BOND
M  V30 1 1 1 2
M  V30 2 2 2 3
M  V30 3 1 2 4
M  V30 4 1 3 5
M  V30 5 2 4 6
M  V30 6 2 5 7
M  V30 7 1 6 7
M  V30 8 1 3 8
M  V30 9 1 4 9
M  V30 10 1 5 10
M  V30 11 1 6 11
M  V30 12 1 7 12
M  V30 END BOND
M  V30 END CTAB
M  END
>  <Structure No>
2425

>  <LogS>
-1.792409766

>  <MMFF94 Energy>
14.059

$$$$
Compound 2426
Actelion Java MolfileCreator 2.0

  0  0  0  0  0  0              0 V3000
M  V30 BEGIN CTAB
M  V30 COUNTS 57 56 0 0 0
M  V30 BEGIN ATOM
M  V30 1 S 8.1406 -0.3182 -2.6281 0
M  V30 2 O 9.5668 -0.2667 -2.1595 0
M  V30 3 O 7.8329 -1.7114 -3.1031 0
M  V30 4 O 7.1265 0.0995 -1.3376 0
M  V30 5 O 7.9469 0.7679 -3.8967 0 CHG=-1
M  V30 6 C 5.7956 0.0748 -1.794 0
M  V30 7 C 4.8697 0.4895 -0.6509 0
M  V30 8 C 3.3963 0.4365 -1.0814 0
M  V30 9 C 2.4434 1.0363 -0.0319 0
M  V30 10 C 2.4534 0.3319 1.3367 0
M  V30 11 C 2.0163 -1.1409 1.2534 0
M  V30 12 C 1.8703 -1.8 2.6359 0
M  V30 13 C 0.7095 -1.2661 3.4994 0
M  V30 14 C -0.6859 -1.4856 2.8778 0
M  V30 15 C -1.2494 -0.2055 2.241 0
M  V30 16 C -2.6169 -0.4649 1.5986 0
M  V30 17 C -3.16 0.8072 0.9308 0
M  V30 18 C -4.5917 0.6327 0.3993 0
M  V30 19 C -4.6663 -0.3318 -0.7977 0
M  V30 20 C -6.053 -0.3122 -1.4753 0
M  V30 21 C -6.0866 0.5015 -2.7802 0
M  V30 22 C -5.8754 1.9974 -2.5582 0
M  V30 23 H 5.5182 -0.9527 -2.1218 0
M  V30 24 H 5.658 0.7886 -2.6378 0
M  V30 25 H 5.13 1.5224 -0.3307 0
M  V30 26 H 5.0352 -0.2003 0.204 0
M  V30 27 H 3.2735 1.0231 -2.0182 0
M  V30 28 H 3.1049 -0.6096 -1.3137 0
M  V30 29 H 2.7058 2.1062 0.1196 0
M  V30 30 H 1.4089 1.0129 -0.439 0
M  V30 31 H 3.4592 0.4037 1.8019 0
M  V30 32 H 1.7562 0.8927 1.9919 0
M  V30 33 H 2.7945 -1.7101 0.7019 0
M  V30 34 H 1.0739 -1.241 0.6763 0
M  V30 35 H 2.8208 -1.6719 3.1986 0
M  V30 36 H 1.7288 -2.8934 2.4908 0
M  V30 37 H 0.8725 -0.2007 3.7659 0
M  V30 38 H 0.7446 -1.8216 4.4623 0
M  V30 39 H -0.656 -2.3078 2.129 0
M  V30 40 H -1.3844 -1.8055 3.6829 0
M  V30 41 H -0.5539 0.1758 1.466 0
M  V30 42 H -1.3552 0.5753 3.026 0
M  V30 43 H -3.3299 -0.8096 2.3792 0
M  V30 44 H -2.5083 -1.2662 0.8367 0
M  V30 45 H -3.1688 1.6321 1.6776 0
M  V30 46 H -2.4869 1.1148 0.1001 0
M  V30 47 H -5.2526 0.2671 1.2159 0
M  V30 48 H -4.9654 1.6331 0.097 0
M  V30 49 H -3.8678 -0.0941 -1.5348 0
M  V30 50 H -4.4748 -1.3628 -0.4292 0
M  V30 51 H -6.8386 0.0546 -0.7784 0
M  V30 52 H -6.3276 -1.3584 -1.7338 0
M  V30 53 H -7.0795 0.356 -3.2584 0
M  V30 54 H -5.3169 0.1193 -3.4852 0
M  V30 55 H -6.5942 2.3848 -1.8048 0
M  V30 56 H -4.837 2.1977 -2.2223 0
M  V30 57 H -6.0381 2.539 -3.5137 0
M  V30 END ATOM
M  V30 BEGIN BOND
M  V30 1 2 1 2
M  V30 2 2 1 3
M  V30 3 1 1 4
M  V30 4 1 1 5
M  V30 5 1 4 6
M  V30 6 1 6 7
M  V30 7 1 7 8
M  V30 8 1 8 9
M  V30 9 1 9 10
M  V30 10 1 10 11
M  V30 11 1 11 12
M  V30 12 1 12 13
M  V30 13 1 13 14
M  V30 14 1 14 15
M  V30 15 1 15 16
M  V30 16 1 16 17
M  V30 17 1 17 18
M  V30 18 1 18 19
M  V30 19 1 19 20
M  V30 20 1 20 21
M  V30 21 1 21 22
M  V30 22 1 6 23
M  V30 23 1 6 24
M  V30 24 1 7 25
M  V30 25 1 7 26
M  V30 26 1 8 27
M  V30 27 1 8 28
M  V30 28 1 9 29
M  V30 29 1 9 30
M  V30 30 1 10 31
M  V30 31 1 10 32
M  V30 32 1 11 33
M  V30 33 1 11 34
M  V30 34 1 12 35
M  V30 35 1 12 36
M  V30 36 1 13 37
M  V30 37 1 13 38
M  V30 38 1 14 39
M  V30 39 1 14 40
M  V30 40 1 15 41
M  V30 41 1 15 42
M  V30 42 1 16 43
M  V30 43 1 16 44
M  V30 44 1 17 45
M  V30 45 1 17 46
M  V30 46 1 18 47
M  V30 47 1 18 48
M  V30 48 1 19 49
M  V30 49 1 19 50
M  V30 50 1 20 51
M  V30 51 1 20 52
M  V30 52 1 21 53
M  V30 53 1 21 54
M  V30 54 1 22 55
M  V30 55 1 22 56
M  V30 56 1 22 57
M  V30 END BOND
M  V30 END CTAB
M  END
>  <Structure No>
2426

>  <LogS>
-2.366992667

>  <MMFF94 Energy>
-48.576

$$$$
Compound 2427
Actelion Java MolfileCreator 2.0

  0  0  0  0  0  0              0 V3000
M  V30 BEGIN CTAB
M  V30 COUNTS 10 9 0 0 0
M  V30 BEGIN ATOM
M  V30 1 F -1.6316 0.2329 1.0098 0
M  V30 2 C -1.1037 -0.1602 -0.207 0
M  V30 3 F -1.3068 0.8401 -1.141 0
M  V30 4 C 0.3872 -0.4539 -0.0619 0
M  V30 5 N 1.0972 0.7216 0.434 0
M  V30 6 H -1.6288 -1.0779 -0.5463 0
M  V30 7 H 0.805 -0.7656 -1.0453 0
M  V30 8 H 0.5196 -1.2933 0.6554 0
M  V30 9 H 2.0873 0.4401 0.6182 0
M  V30 10 H 1.1308 1.4328 -0.3325 0
M  V30 END ATOM
M  V30 BEGIN BOND
M  V30 1 1 1 2
M  V30 2 1 2 3
M  V30 3 1 2 4
M  V30 4 1 4 5
M  V30 5 1 2 6
M  V30 6 1 4 7
M  V30 7 1 4 8
M  V30 8 1 5 9
M  V30 9 1 5 10
M  V30 END BOND
M  V30 END CTAB
M  END
>  <Structure No>
2427

>  <LogS>
0.522530377

>  <MMFF94 Energy>
47.45

$$$$
Compound 2428
Actelion Java MolfileCreator 2.0

  0  0  0  0  0  0              0 V3000
M  V30 BEGIN CTAB
M  V30 COUNTS 49 49 0 0 0
M  V30 BEGIN ATOM
M  V30 1 O 0.0802 -4.0975 0.9629 0
M  V30 2 C -0.3216 -3.6068 2.053 0
M  V30 3 O -0.1148 -2.2549 2.3525 0
M  V30 4 C -1.061 -4.4671 3.0201 0
M  V30 5 C 0.51 -1.3331 1.4593 0 CFG=2
M  V30 6 O 0.8892 -0.1902 2.2055 0
M  V30 7 C -0.4763 -0.95 0.343 0 CFG=1
M  V30 8 C 1.5763 0.7808 1.4247 0 CFG=2
M  V30 9 O -1.6402 -0.3592 0.9292 0
M  V30 10 C 0.2202 0.0278 -0.613 0 CFG=2
M  V30 11 C 0.7836 1.2354 0.1699 0 CFG=1
M  V30 12 C 3.0612 0.4154 1.1873 0
M  V30 13 C -2.8861 -0.2929 0.2952 0
M  V30 14 O -0.6912 0.4516 -1.627 0
M  V30 15 O -0.2946 2.0718 0.604 0
M  V30 16 O 3.2473 -0.4846 0.0952 0
M  V30 17 O -3.0897 -0.8885 -0.7972 0
M  V30 18 C -3.9969 0.4633 0.9393 0
M  V30 19 C -0.2873 1.0013 -2.8482 0
M  V30 20 C -0.8026 3.1493 -0.1304 0
M  V30 21 C 3.7132 -0.0958 -1.1671 0
M  V30 22 O 0.935 1.0942 -3.1433 0
M  V30 23 C -1.3212 1.4407 -3.8275 0
M  V30 24 O -0.2201 3.5586 -1.1708 0
M  V30 25 C -2.0663 3.804 0.3109 0
M  V30 26 O 3.9831 1.1102 -1.4173 0
M  V30 27 C 3.8391 -1.1163 -2.246 0
M  V30 28 H -2.1233 -4.5444 2.7084 0
M  V30 29 H -0.6112 -5.4818 3.048 0
M  V30 30 H -1.0113 -4.0245 4.0371 0
M  V30 31 H 1.4094 -1.8268 1.031 0
M  V30 32 H -0.7589 -1.8682 -0.2175 0
M  V30 33 H 1.6322 1.6831 2.0737 0
M  V30 34 H 1.0462 -0.5269 -1.1021 0
M  V30 35 H 1.4685 1.8186 -0.4836 0
M  V30 36 H 3.6582 1.3422 1.0385 0
M  V30 37 H 3.4565 -0.0668 2.1064 0
M  V30 38 H -4.7455 -0.2489 1.3449 0
M  V30 39 H -3.6021 1.0884 1.7682 0
M  V30 40 H -4.4838 1.1255 0.1923 0
M  V30 41 H -2.2134 1.8188 -3.2862 0
M  V30 42 H -0.9217 2.2535 -4.4702 0
M  V30 43 H -1.6169 0.5809 -4.4638 0
M  V30 44 H -1.9693 4.9072 0.2335 0
M  V30 45 H -2.2865 3.5352 1.3657 0
M  V30 46 H -2.903 3.4614 -0.3325 0
M  V30 47 H 3.8846 -2.1334 -1.803 0
M  V30 48 H 2.9594 -1.0533 -2.9203 0
M  V30 49 H 4.7652 -0.9374 -2.8319 0
M  V30 END ATOM
M  V30 BEGIN BOND
M  V30 1 2 1 2
M  V30 2 1 2 3
M  V30 3 1 2 4
M  V30 4 1 3 5
M  V30 5 1 5 6
M  V30 6 1 5 7
M  V30 7 1 6 8
M  V30 8 1 7 9
M  V30 9 1 7 10
M  V30 10 1 8 11
M  V30 11 1 8 12
M  V30 12 1 9 13
M  V30 13 1 10 14
M  V30 14 1 11 15
M  V30 15 1 12 16
M  V30 16 2 13 17
M  V30 17 1 13 18
M  V30 18 1 14 19
M  V30 19 1 15 20
M  V30 20 1 16 21
M  V30 21 2 19 22
M  V30 22 1 19 23
M  V30 23 2 20 24
M  V30 24 1 20 25
M  V30 25 2 21 26
M  V30 26 1 21 27
M  V30 27 1 10 11
M  V30 28 1 4 28
M  V30 29 1 4 29
M  V30 30 1 4 30
M  V30 31 1 5 31
M  V30 32 1 7 32
M  V30 33 1 8 33
M  V30 34 1 10 34
M  V30 35 1 11 35
M  V30 36 1 12 36
M  V30 37 1 12 37
M  V30 38 1 18 38
M  V30 39 1 18 39
M  V30 40 1 18 40
M  V30 41 1 23 41
M  V30 42 1 23 42
M  V30 43 1 23 43
M  V30 44 1 25 44
M  V30 45 1 25 45
M  V30 46 1 25 46
M  V30 47 1 27 47
M  V30 48 1 27 48
M  V30 49 1 27 49
M  V30 END BOND
M  V30 BEGIN COLLECTION
M  V30 MDLV30/STEABS ATOMS=(5 5 7 8 10 11)
M  V30 END COLLECTION
M  V30 END CTAB
M  END
>  <Structure No>
2428

>  <LogS>
-2.415352911

>  <MMFF94 Energy>
-12.802

$$$$
Compound 2429
Actelion Java MolfileCreator 2.0

  0  0  0  0  0  0              0 V3000
M  V30 BEGIN CTAB
M  V30 COUNTS 28 28 0 0 0
M  V30 BEGIN ATOM
M  V30 1 O -2.5053 -2.3486 -0.7824 0
M  V30 2 C -2.6494 -0.9568 -0.6829 0
M  V30 3 C -1.3979 -0.3155 -0.0313 0
M  V30 4 C -0.1531 -0.6137 -0.9226 0
M  V30 5 C -1.6383 1.2063 0.0748 0
M  V30 6 C -1.2134 -0.8951 1.3888 0
M  V30 7 C 1.1381 -0.0101 -0.4165 0
M  V30 8 C 1.5361 1.272 -0.8339 0
M  V30 9 C 1.9594 -0.7275 0.4704 0
M  V30 10 C 2.7278 1.8298 -0.3616 0
M  V30 11 C 3.1505 -0.166 0.9402 0
M  V30 12 C 3.5338 1.1121 0.5256 0
M  V30 13 H -3.3361 -2.6827 -1.2104 0
M  V30 14 H -2.8052 -0.5291 -1.6997 0
M  V30 15 H -3.5545 -0.7259 -0.0755 0
M  V30 16 H -0.0158 -1.7134 -1.0178 0
M  V30 17 H -0.342 -0.2437 -1.9551 0
M  V30 18 H -1.7234 1.661 -0.9355 0
M  V30 19 H -2.5768 1.4173 0.6319 0
M  V30 20 H -0.8093 1.7065 0.6186 0
M  V30 21 H -2.1452 -0.7773 1.9832 0
M  V30 22 H -0.9616 -1.9762 1.3446 0
M  V30 23 H -0.4006 -0.3687 1.9321 0
M  V30 24 H 0.9219 1.8399 -1.5218 0
M  V30 25 H 1.6763 -1.7196 0.7992 0
M  V30 26 H 3.0268 2.8188 -0.6839 0
M  V30 27 H 3.7768 -0.7221 1.6256 0
M  V30 28 H 4.456 1.5453 0.8904 0
M  V30 END ATOM
M  V30 BEGIN BOND
M  V30 1 1 1 2
M  V30 2 1 2 3
M  V30 3 1 3 4
M  V30 4 1 3 5
M  V30 5 1 3 6
M  V30 6 1 4 7
M  V30 7 2 7 8
M  V30 8 1 7 9
M  V30 9 1 8 10
M  V30 10 2 9 11
M  V30 11 2 10 12
M  V30 12 1 11 12
M  V30 13 1 1 13
M  V30 14 1 2 14
M  V30 15 1 2 15
M  V30 16 1 4 16
M  V30 17 1 4 17
M  V30 18 1 5 18
M  V30 19 1 5 19
M  V30 20 1 5 20
M  V30 21 1 6 21
M  V30 22 1 6 22
M  V30 23 1 6 23
M  V30 24 1 8 24
M  V30 25 1 9 25
M  V30 26 1 10 26
M  V30 27 1 11 27
M  V30 28 1 12 28
M  V30 END BOND
M  V30 END CTAB
M  END
>  <Structure No>
2429

>  <LogS>
-2.042313822

>  <MMFF94 Energy>
33.205

$$$$
Compound 2430
Actelion Java MolfileCreator 2.0

  0  0  0  0  0  0              0 V3000
M  V30 BEGIN CTAB
M  V30 COUNTS 17 18 0 0 0
M  V30 BEGIN ATOM
M  V30 1 O 2.4719 -0.8765 0.239 0
M  V30 2 C 1.7321 0.2807 0.5542 0 CFG=1
M  V30 3 C 2.6321 0.2267 -0.6208 0
M  V30 4 C 0.2695 0.0988 0.2742 0
M  V30 5 C -0.4252 -0.9959 0.8126 0
M  V30 6 C -0.4277 1.0581 -0.4767 0
M  V30 7 C -1.7957 -1.1436 0.5761 0
M  V30 8 C -1.7982 0.907 -0.7113 0
M  V30 9 C -2.4813 -0.1942 -0.1873 0
M  V30 10 H 2.0883 0.7679 1.4858 0
M  V30 11 H 3.6306 0.6939 -0.493 0
M  V30 12 H 2.1757 0.0296 -1.6141 0
M  V30 13 H 0.0937 -1.7327 1.4132 0
M  V30 14 H 0.0903 1.9192 -0.8806 0
M  V30 15 H -2.3271 -1.9921 0.9875 0
M  V30 16 H -2.3313 1.6453 -1.2964 0
M  V30 17 H -3.5421 -0.3093 -0.3687 0
M  V30 END ATOM
M  V30 BEGIN BOND
M  V30 1 1 1 2
M  V30 2 1 1 3
M  V30 3 1 2 4
M  V30 4 2 4 5
M  V30 5 1 4 6
M  V30 6 1 5 7
M  V30 7 2 6 8
M  V30 8 2 7 9
M  V30 9 1 2 3
M  V30 10 1 8 9
M  V30 11 1 2 10
M  V30 12 1 3 11
M  V30 13 1 3 12
M  V30 14 1 5 13
M  V30 15 1 6 14
M  V30 16 1 7 15
M  V30 17 1 8 16
M  V30 18 1 9 17
M  V30 END BOND
M  V30 BEGIN COLLECTION
M  V30 MDLV30/STEABS ATOMS=(1 2)
M  V30 END COLLECTION
M  V30 END CTAB
M  END
>  <Structure No>
2430

>  <LogS>
-1.906541121

>  <MMFF94 Energy>
14.986

$$$$
Compound 2431
Actelion Java MolfileCreator 2.0

  0  0  0  0  0  0              0 V3000
M  V30 BEGIN CTAB
M  V30 COUNTS 30 29 0 0 0
M  V30 BEGIN ATOM
M  V30 1 O -0.9361 1.1702 -2.0291 0
M  V30 2 C -0.9597 0.5133 -0.9521 0
M  V30 3 O 0.2397 0.1718 -0.3297 0
M  V30 4 C -2.2832 0.1635 -0.3011 0
M  V30 5 O 1.4229 0.4973 -0.8789 0
M  V30 6 C -2.0945 -0.9844 0.7115 0
M  V30 7 C -3.2972 -0.2815 -1.3741 0
M  V30 8 C -2.8192 1.4055 0.4315 0
M  V30 9 C 2.4432 0.0195 -0.0231 0
M  V30 10 C 2.37 -1.5165 0.1123 0
M  V30 11 C 2.3498 0.6867 1.366 0
M  V30 12 C 3.7887 0.3954 -0.6622 0
M  V30 13 H -3.0661 -1.265 1.1728 0
M  V30 14 H -1.6741 -1.8825 0.209 0
M  V30 15 H -1.4027 -0.6832 1.528 0
M  V30 16 H -3.4958 0.5383 -2.0978 0
M  V30 17 H -4.2645 -0.5656 -0.9059 0
M  V30 18 H -2.9092 -1.1588 -1.9357 0
M  V30 19 H -3.7891 1.181 0.926 0
M  V30 20 H -2.9775 2.2438 -0.2811 0
M  V30 21 H -2.099 1.741 1.2094 0
M  V30 22 H 2.3829 -1.9916 -0.8918 0
M  V30 23 H 1.4394 -1.8276 0.6334 0
M  V30 24 H 3.2332 -1.8998 0.6981 0
M  V30 25 H 3.2119 0.3905 2.0018 0
M  V30 26 H 1.4188 0.3854 1.892 0
M  V30 27 H 2.3489 1.7929 1.2615 0
M  V30 28 H 3.8652 1.498 -0.7797 0
M  V30 29 H 3.8795 -0.0654 -1.6693 0
M  V30 30 H 4.6386 0.0471 -0.0361 0
M  V30 END ATOM
M  V30 BEGIN BOND
M  V30 1 2 1 2
M  V30 2 1 2 3
M  V30 3 1 2 4
M  V30 4 1 3 5
M  V30 5 1 4 6
M  V30 6 1 4 7
M  V30 7 1 4 8
M  V30 8 1 5 9
M  V30 9 1 9 10
M  V30 10 1 9 11
M  V30 11 1 9 12
M  V30 12 1 6 13
M  V30 13 1 6 14
M  V30 14 1 6 15
M  V30 15 1 7 16
M  V30 16 1 7 17
M  V30 17 1 7 18
M  V30 18 1 8 19
M  V30 19 1 8 20
M  V30 20 1 8 21
M  V30 21 1 10 22
M  V30 22 1 10 23
M  V30 23 1 10 24
M  V30 24 1 11 25
M  V30 25 1 11 26
M  V30 26 1 11 27
M  V30 27 1 12 28
M  V30 28 1 12 29
M  V30 29 1 12 30
M  V30 END BOND
M  V30 END CTAB
M  END
>  <Structure No>
2431

>  <LogS>
-2.067961594

>  <MMFF94 Energy>
37.878

$$$$
Compound 2432
Actelion Java MolfileCreator 2.0

  0  0  0  0  0  0              0 V3000
M  V30 BEGIN CTAB
M  V30 COUNTS 28 28 0 0 0
M  V30 BEGIN ATOM
M  V30 1 O -1.6491 -2.9857 -0.1569 0
M  V30 2 C -1.877 -1.7955 0.186 0
M  V30 3 C -1.2442 -0.6341 -0.4017 0
M  V30 4 C -2.8258 -1.4011 1.2556 0
M  V30 5 C -1.6874 0.4547 0.2191 0
M  V30 6 C -0.1795 -0.6826 -1.4622 0
M  V30 7 C -2.7015 0.1305 1.2788 0
M  V30 8 C -1.2325 1.8525 -0.0727 0
M  V30 9 C 1.1781 -0.7347 -0.8207 0
M  V30 10 C 2.057 0.2713 -0.9428 0
M  V30 11 C 3.4015 0.2253 -0.2723 0
M  V30 12 C 3.2706 0.3846 1.2398 0
M  V30 13 H -2.5173 -1.8433 2.2273 0
M  V30 14 H -3.8582 -1.7162 0.9916 0
M  V30 15 H -0.3138 -1.5947 -2.0809 0
M  V30 16 H -0.2775 0.1886 -2.1453 0
M  V30 17 H -2.3425 0.4815 2.2703 0
M  V30 18 H -3.6741 0.61 1.0353 0
M  V30 19 H -1.7594 2.5734 0.587 0
M  V30 20 H -1.4567 2.1116 -1.1285 0
M  V30 21 H -0.1415 1.9414 0.109 0
M  V30 22 H 1.4317 -1.6048 -0.2209 0
M  V30 23 H 1.8114 1.1387 -1.5495 0
M  V30 24 H 3.9108 -0.7338 -0.5094 0
M  V30 25 H 4.0286 1.0541 -0.6652 0
M  V30 26 H 4.2807 0.392 1.7009 0
M  V30 27 H 2.6915 -0.4586 1.6723 0
M  V30 28 H 2.761 1.3416 1.4832 0
M  V30 END ATOM
M  V30 BEGIN BOND
M  V30 1 2 1 2
M  V30 2 1 2 3
M  V30 3 1 2 4
M  V30 4 2 3 5
M  V30 5 1 3 6
M  V30 6 1 4 7
M  V30 7 1 5 8
M  V30 8 1 6 9
M  V30 9 2 9 10
M  V30 10 1 10 11
M  V30 11 1 11 12
M  V30 12 1 5 7
M  V30 13 1 4 13
M  V30 14 1 4 14
M  V30 15 1 6 15
M  V30 16 1 6 16
M  V30 17 1 7 17
M  V30 18 1 7 18
M  V30 19 1 8 19
M  V30 20 1 8 20
M  V30 21 1 8 21
M  V30 22 1 9 22
M  V30 23 1 10 23
M  V30 24 1 11 24
M  V30 25 1 11 25
M  V30 26 1 12 26
M  V30 27 1 12 27
M  V30 28 1 12 28
M  V30 END BOND
M  V30 END CTAB
M  END
>  <Structure No>
2432

>  <LogS>
-2.045238375

>  <MMFF94 Energy>
10.821

$$$$
Compound 2433
Actelion Java MolfileCreator 2.0

  0  0  0  0  0  0              0 V3000
M  V30 BEGIN CTAB
M  V30 COUNTS 14 14 0 0 0
M  V30 BEGIN ATOM
M  V30 1 Cl 1.5552 2.4564 0.3272 0
M  V30 2 C 0.412 1.1246 0.178 0
M  V30 3 C 0.8309 -0.2001 -0.0849 0
M  V30 4 C -0.9512 1.4098 0.3282 0
M  V30 5 C -0.1412 -1.2137 -0.191 0
M  V30 6 C 2.2637 -0.5327 -0.2486 0
M  V30 7 C -1.9023 0.3937 0.2202 0
M  V30 8 C -1.4979 -0.9159 -0.039 0
M  V30 9 O 2.6324 -1.7145 -0.4828 0
M  V30 10 H -1.276 2.423 0.5297 0
M  V30 11 H 0.1458 -2.2384 -0.3916 0
M  V30 12 H 3.022 0.2336 -0.1701 0
M  V30 13 H -2.954 0.6219 0.3375 0
M  V30 14 H -2.2368 -1.7025 -0.1225 0
M  V30 END ATOM
M  V30 BEGIN BOND
M  V30 1 1 1 2
M  V30 2 2 2 3
M  V30 3 1 2 4
M  V30 4 1 3 5
M  V30 5 1 3 6
M  V30 6 2 4 7
M  V30 7 2 5 8
M  V30 8 2 6 9
M  V30 9 1 7 8
M  V30 10 1 4 10
M  V30 11 1 5 11
M  V30 12 1 6 12
M  V30 13 1 7 13
M  V30 14 1 8 14
M  V30 END BOND
M  V30 END CTAB
M  END
>  <Structure No>
2433

>  <LogS>
-1.980572221

>  <MMFF94 Energy>
27.046

$$$$
Compound 2434
Actelion Java MolfileCreator 2.0

  0  0  0  0  0  0              0 V3000
M  V30 BEGIN CTAB
M  V30 COUNTS 25 25 0 0 0
M  V30 BEGIN ATOM
M  V30 1 O 0.5475 1.5651 -1.9566 0
M  V30 2 C 1.131 0.6875 -1.0427 0
M  V30 3 C 0.4056 0.2376 0.0843 0
M  V30 4 C 2.4476 0.2488 -1.2493 0
M  V30 5 C 1.0278 -0.6556 0.9804 0
M  V30 6 C -1.0288 0.6917 0.3263 0 CFG=1
M  V30 7 C 3.0479 -0.6331 -0.3497 0
M  V30 8 C 2.3388 -1.0849 0.7629 0
M  V30 9 C -2.0234 -0.4884 0.2803 0
M  V30 10 C -1.1407 1.4442 1.6591 0
M  V30 11 C -2.0587 -1.1624 -1.0917 0
M  V30 12 H 1.0504 1.8973 -2.7712 0
M  V30 13 H 3.0068 0.5915 -2.1107 0
M  V30 14 H 0.4988 -1.0238 1.8498 0
M  V30 15 H -1.341 1.4136 -0.4592 0
M  V30 16 H 4.0637 -0.9677 -0.5161 0
M  V30 17 H 2.8054 -1.7706 1.4585 0
M  V30 18 H -3.046 -0.1128 0.5044 0
M  V30 19 H -1.7699 -1.2458 1.053 0
M  V30 20 H -0.9498 0.769 2.5199 0
M  V30 21 H -2.1595 1.8736 1.7698 0
M  V30 22 H -0.4091 2.2801 1.688 0
M  V30 23 H -2.8339 -1.9574 -1.0942 0
M  V30 24 H -2.3083 -0.421 -1.8804 0
M  V30 25 H -1.0781 -1.629 -1.3233 0
M  V30 END ATOM
M  V30 BEGIN BOND
M  V30 1 1 1 2
M  V30 2 2 2 3
M  V30 3 1 2 4
M  V30 4 1 3 5
M  V30 5 1 3 6
M  V30 6 2 4 7
M  V30 7 2 5 8
M  V30 8 1 6 9
M  V30 9 1 6 10
M  V30 10 1 9 11
M  V30 11 1 7 8
M  V30 12 1 1 12
M  V30 13 1 4 13
M  V30 14 1 5 14
M  V30 15 1 6 15
M  V30 16 1 7 16
M  V30 17 1 8 17
M  V30 18 1 9 18
M  V30 19 1 9 19
M  V30 20 1 10 20
M  V30 21 1 10 21
M  V30 22 1 10 22
M  V30 23 1 11 23
M  V30 24 1 11 24
M  V30 25 1 11 25
M  V30 END BOND
M  V30 BEGIN COLLECTION
M  V30 MDLV30/STEABS ATOMS=(1 6)
M  V30 END COLLECTION
M  V30 END CTAB
M  END
>  <Structure No>
2434

>  <LogS>
-2.012377793

>  <MMFF94 Energy>
14.26

$$$$
Compound 2435
Actelion Java MolfileCreator 2.0

  0  0  0  0  0  0              0 V3000
M  V30 BEGIN CTAB
M  V30 COUNTS 43 42 0 0 0
M  V30 BEGIN ATOM
M  V30 1 O 4.0239 3.3266 2.0877 0
M  V30 2 C 3.8722 2.5668 0.9197 0
M  V30 3 C 3.1292 1.2562 1.232 0
M  V30 4 N 2.9288 0.4206 0.016 0 CHG=1
M  V30 5 C 4.1435 -0.3968 -0.2538 0
M  V30 6 C 1.7402 -0.4604 0.1855 0
M  V30 7 C 4.2758 -0.7658 -1.7415 0
M  V30 8 C 0.428 0.2618 -0.1773 0
M  V30 9 O 5.4318 -1.5307 -1.9488 0
M  V30 10 C -0.7832 -0.6529 0.0409 0
M  V30 11 C -2.0884 0.0633 -0.3268 0
M  V30 12 C -3.299 -0.8528 -0.1116 0
M  V30 13 C -4.604 -0.1364 -0.4784 0
M  V30 14 C -5.8137 -1.054 -0.2664 0
M  V30 15 C -7.1149 -0.3433 -0.6278 0
M  V30 16 H 4.7551 2.9029 2.609 0
M  V30 17 H 3.278 3.1604 0.1928 0
M  V30 18 H 4.8664 2.3699 0.4623 0
M  V30 19 H 2.1563 1.5409 1.6892 0
M  V30 20 H 3.6848 0.6881 2.0132 0
M  V30 21 H 2.7629 1.0542 -0.8027 0
M  V30 22 H 5.0687 0.1543 0.0227 0
M  V30 23 H 4.1386 -1.3248 0.363 0
M  V30 24 H 1.6839 -0.8451 1.2302 0
M  V30 25 H 1.8106 -1.3559 -0.4702 0
M  V30 26 H 4.3606 0.164 -2.3432 0
M  V30 27 H 3.3823 -1.3208 -2.1027 0
M  V30 28 H 0.4658 0.5683 -1.2458 0
M  V30 29 H 0.3078 1.1759 0.441 0
M  V30 30 H 5.2276 -2.4466 -1.6246 0
M  V30 31 H -0.6745 -1.5642 -0.5878 0
M  V30 32 H -0.8223 -0.9626 1.1086 0
M  V30 33 H -2.199 0.9731 0.304 0
M  V30 34 H -2.0486 0.3755 -1.3938 0
M  V30 35 H -3.3387 -1.1654 0.9553 0
M  V30 36 H -3.1887 -1.7623 -0.7426 0
M  V30 37 H -4.5639 0.1781 -1.5447 0
M  V30 38 H -4.7157 0.7717 0.1545 0
M  V30 39 H -5.7117 -1.9614 -0.901 0
M  V30 40 H -5.8615 -1.3722 0.798 0
M  V30 41 H -7.9717 -1.0304 -0.4642 0
M  V30 42 H -7.1039 -0.0372 -1.6956 0
M  V30 43 H -7.2538 0.5554 0.0101 0
M  V30 END ATOM
M  V30 BEGIN BOND
M  V30 1 1 1 2
M  V30 2 1 2 3
M  V30 3 1 3 4
M  V30 4 1 4 5
M  V30 5 1 4 6
M  V30 6 1 5 7
M  V30 7 1 6 8
M  V30 8 1 7 9
M  V30 9 1 8 10
M  V30 10 1 10 11
M  V30 11 1 11 12
M  V30 12 1 12 13
M  V30 13 1 13 14
M  V30 14 1 14 15
M  V30 15 1 1 16
M  V30 16 1 2 17
M  V30 17 1 2 18
M  V30 18 1 3 19
M  V30 19 1 3 20
M  V30 20 1 4 21
M  V30 21 1 5 22
M  V30 22 1 5 23
M  V30 23 1 6 24
M  V30 24 1 6 25
M  V30 25 1 7 26
M  V30 26 1 7 27
M  V30 27 1 8 28
M  V30 28 1 8 29
M  V30 29 1 9 30
M  V30 30 1 10 31
M  V30 31 1 10 32
M  V30 32 1 11 33
M  V30 33 1 11 34
M  V30 34 1 12 35
M  V30 35 1 12 36
M  V30 36 1 13 37
M  V30 37 1 13 38
M  V30 38 1 14 39
M  V30 39 1 14 40
M  V30 40 1 15 41
M  V30 41 1 15 42
M  V30 42 1 15 43
M  V30 END BOND
M  V30 END CTAB
M  END
>  <Structure No>
2435

>  <LogS>
-2.191037603

>  <MMFF94 Energy>
42.519

$$$$
Compound 2436
Actelion Java MolfileCreator 2.0

  0  0  0  0  0  0              0 V3000
M  V30 BEGIN CTAB
M  V30 COUNTS 18 18 0 0 0
M  V30 BEGIN ATOM
M  V30 1 O -2.3357 -2.7533 0.5001 0
M  V30 2 N -2.3802 -1.5153 0.3429 0 CHG=1
M  V30 3 O -3.6064 -0.8906 0.3562 0 CHG=-1
M  V30 4 C -1.1724 -0.7545 0.1513 0
M  V30 5 C -1.2323 0.6379 -0.0246 0
M  V30 6 C 0.0805 -1.392 0.1377 0
M  V30 7 C -0.0622 1.3915 -0.2124 0
M  V30 8 C 1.262 -0.6546 -0.0487 0
M  V30 9 C -0.1419 2.8585 -0.3966 0
M  V30 10 C 1.1809 0.7364 -0.2229 0
M  V30 11 C 2.5785 -1.3322 -0.0619 0
M  V30 12 O 0.9032 3.5414 -0.5656 0
M  V30 13 O -1.3729 3.5048 -0.3858 0 CHG=-1
M  V30 14 O 2.6591 -2.5797 0.0937 0
M  V30 15 O 3.7462 -0.6006 -0.2467 0 CHG=-1
M  V30 16 H -2.1934 1.1357 -0.0152 0
M  V30 17 H 0.1347 -2.4648 0.2728 0
M  V30 18 H 2.0871 1.3115 -0.3673 0
M  V30 END ATOM
M  V30 BEGIN BOND
M  V30 1 2 1 2
M  V30 2 1 2 3
M  V30 3 1 2 4
M  V30 4 2 4 5
M  V30 5 1 4 6
M  V30 6 1 5 7
M  V30 7 2 6 8
M  V30 8 1 7 9
M  V30 9 2 7 10
M  V30 10 1 8 11
M  V30 11 2 9 12
M  V30 12 1 9 13
M  V30 13 2 11 14
M  V30 14 1 11 15
M  V30 15 1 8 10
M  V30 16 1 5 16
M  V30 17 1 6 17
M  V30 18 1 10 18
M  V30 END BOND
M  V30 END CTAB
M  END
>  <Structure No>
2436

>  <LogS>
-2.178419855

>  <MMFF94 Energy>
120.64

$$$$
Compound 2437
Actelion Java MolfileCreator 2.0

  0  0  0  0  0  0              0 V3000
M  V30 BEGIN CTAB
M  V30 COUNTS 58 62 0 0 0
M  V30 BEGIN ATOM
M  V30 1 S -4.8518 1.5039 0.7517 0
M  V30 2 O -4.9927 1.3208 2.2376 0
M  V30 3 O -4.5048 2.9338 0.4485 0
M  V30 4 O -3.6208 0.4648 0.1727 0
M  V30 5 C -6.3637 1.0932 -0.0463 0
M  V30 6 C -2.2747 0.525 0.5582 0
M  V30 7 C -6.3532 0.6648 -1.3798 0
M  V30 8 C -7.5824 1.1984 0.6381 0
M  V30 9 C -1.3796 -0.371 -0.0358 0
M  V30 10 C -1.7935 1.4458 1.5074 0
M  V30 11 C -7.5506 0.3375 -2.0237 0
M  V30 12 C -8.7804 0.8707 -0.0047 0
M  V30 13 C -0.0249 -0.3544 0.3035 0
M  V30 14 C -0.4376 1.4625 1.8486 0
M  V30 15 C -8.7734 0.4505 -1.3441 0
M  V30 16 C 0.4576 0.5591 1.2583 0
M  V30 17 C -10.0524 0.0555 -2.0213 0
M  V30 18 N 1.8522 0.6115 1.6095 0
M  V30 19 C 2.7827 -0.4388 1.3055 0
M  V30 20 C 3.954 -0.1964 0.5471 0
M  V30 21 C 2.534 -1.7125 1.8188 0
M  V30 22 C 4.2082 1.1306 -0.0922 0
M  V30 23 C 4.8843 -1.2511 0.3522 0
M  V30 24 C 3.3969 -2.7773 1.5638 0
M  V30 25 O 3.3548 2.0557 -0.0139 0
M  V30 26 C 5.4455 1.3665 -0.8673 0
M  V30 27 C 6.1995 -0.9399 -0.282 0
M  V30 28 C 4.5717 -2.5612 0.8123 0
M  V30 29 S 2.956 -4.3822 2.1662 0
M  V30 30 C 6.4143 0.3515 -0.967 0
M  V30 31 C 5.6703 2.6036 -1.5028 0
M  V30 32 O 7.1683 -1.7404 -0.1749 0
M  V30 33 N 5.406 -3.6771 0.464 0
M  V30 34 O 3.9609 -4.8324 3.1884 0
M  V30 35 O 2.9196 -5.3596 1.0259 0
M  V30 36 O 1.4374 -4.3442 2.8848 0 CHG=-1
M  V30 37 C 7.5924 0.5859 -1.7015 0
M  V30 38 C 6.8434 2.8241 -2.228 0
M  V30 39 C 7.8022 1.8164 -2.3285 0
M  V30 40 H -5.4187 0.5811 -1.9202 0
M  V30 41 H -7.6069 1.5302 1.6681 0
M  V30 42 H -1.7359 -1.0799 -0.7728 0
M  V30 43 H -2.4525 2.1555 1.9871 0
M  V30 44 H -7.5239 -0.0029 -3.0514 0
M  V30 45 H -9.7126 0.9451 0.5415 0
M  V30 46 H 0.6434 -1.0455 -0.1928 0
M  V30 47 H -0.0837 2.1807 2.5778 0
M  V30 48 H -10.9123 0.6168 -1.5979 0
M  V30 49 H -10.2252 -1.0316 -1.8779 0
M  V30 50 H -10.0021 0.2741 -3.1091 0
M  V30 51 H 2.2058 1.4319 2.153 0
M  V30 52 H 1.641 -1.8701 2.4101 0
M  V30 53 H 4.9416 3.4023 -1.4383 0
M  V30 54 H 5.8499 -3.7373 -0.4784 0
M  V30 55 H 5.4929 -4.5131 1.0809 0
M  V30 56 H 8.3512 -0.1812 -1.7913 0
M  V30 57 H 7.0092 3.7781 -2.7123 0
M  V30 58 H 8.7105 1.9889 -2.8922 0
M  V30 END ATOM
M  V30 BEGIN BOND
M  V30 1 2 1 2
M  V30 2 2 1 3
M  V30 3 1 1 4
M  V30 4 1 1 5
M  V30 5 1 4 6
M  V30 6 2 5 7
M  V30 7 1 5 8
M  V30 8 2 6 9
M  V30 9 1 6 10
M  V30 10 1 7 11
M  V30 11 2 8 12
M  V30 12 1 9 13
M  V30 13 2 10 14
M  V30 14 2 11 15
M  V30 15 2 13 16
M  V30 16 1 15 17
M  V30 17 1 16 18
M  V30 18 1 18 19
M  V30 19 2 19 20
M  V30 20 1 19 21
M  V30 21 1 20 22
M  V30 22 1 20 23
M  V30 23 2 21 24
M  V30 24 2 22 25
M  V30 25 1 22 26
M  V30 26 1 23 27
M  V30 27 2 23 28
M  V30 28 1 24 29
M  V30 29 2 26 30
M  V30 30 1 26 31
M  V30 31 2 27 32
M  V30 32 1 28 33
M  V30 33 2 29 34
M  V30 34 2 29 35
M  V30 35 1 29 36
M  V30 36 1 30 37
M  V30 37 2 31 38
M  V30 38 2 37 39
M  V30 39 1 12 15
M  V30 40 1 14 16
M  V30 41 1 24 28
M  V30 42 1 27 30
M  V30 43 1 38 39
M  V30 44 1 7 40
M  V30 45 1 8 41
M  V30 46 1 9 42
M  V30 47 1 10 43
M  V30 48 1 11 44
M  V30 49 1 12 45
M  V30 50 1 13 46
M  V30 51 1 14 47
M  V30 52 1 17 48
M  V30 53 1 17 49
M  V30 54 1 17 50
M  V30 55 1 18 51
M  V30 56 1 21 52
M  V30 57 1 31 53
M  V30 58 1 33 54
M  V30 59 1 33 55
M  V30 60 1 37 56
M  V30 61 1 38 57
M  V30 62 1 39 58
M  V30 END BOND
M  V30 END CTAB
M  END
>  <Structure No>
2437

>  <LogS>
-2.622198475

>  <MMFF94 Energy>
168.17

$$$$
Compound 2438
Actelion Java MolfileCreator 2.0

  0  0  0  0  0  0              0 V3000
M  V30 BEGIN CTAB
M  V30 COUNTS 28 28 0 0 0
M  V30 BEGIN ATOM
M  V30 1 S -0.1636 -1.5554 2.3748 0
M  V30 2 O -0.0825 -0.608 3.5391 0
M  V30 3 O 0.3785 -2.8936 2.7896 0
M  V30 4 N -1.8198 -1.7265 1.901 0 CHG=-1
M  V30 5 C 0.777 -0.9527 1.0127 0
M  V30 6 C -2.5115 -0.6924 1.2028 0
M  V30 7 C 1.614 0.1622 1.1575 0
M  V30 8 C 0.6513 -1.5655 -0.2406 0
M  V30 9 O -3.6848 -0.9014 0.7938 0
M  V30 10 O -1.8839 0.538 0.9746 0
M  V30 11 C 2.3189 0.6595 0.0573 0
M  V30 12 C 1.3553 -1.0688 -1.3412 0
M  V30 13 C -2.4101 1.5412 0.1101 0
M  V30 14 C 2.2041 0.039 -1.1961 0
M  V30 15 C -2.1701 1.1635 -1.3465 0
M  V30 16 C 2.9218 0.6017 -2.3867 0
M  V30 17 H 1.7138 0.655 2.1158 0
M  V30 18 H -0.0031 -2.4186 -0.3679 0
M  V30 19 H 2.9508 1.5302 0.1821 0
M  V30 20 H 1.2348 -1.5448 -2.3064 0
M  V30 21 H -1.8883 2.4984 0.3208 0
M  V30 22 H -3.4955 1.6897 0.2993 0
M  V30 23 H -2.7059 0.2233 -1.5939 0
M  V30 24 H -1.0831 1.021 -1.5258 0
M  V30 25 H -2.5419 1.9731 -2.009 0
M  V30 26 H 3.8729 1.0856 -2.0784 0
M  V30 27 H 3.1654 -0.2026 -3.1129 0
M  V30 28 H 2.2762 1.3554 -2.8838 0
M  V30 END ATOM
M  V30 BEGIN BOND
M  V30 1 2 1 2
M  V30 2 2 1 3
M  V30 3 1 1 4
M  V30 4 1 1 5
M  V30 5 1 4 6
M  V30 6 2 5 7
M  V30 7 1 5 8
M  V30 8 2 6 9
M  V30 9 1 6 10
M  V30 10 1 7 11
M  V30 11 2 8 12
M  V30 12 1 10 13
M  V30 13 2 11 14
M  V30 14 1 13 15
M  V30 15 1 14 16
M  V30 16 1 12 14
M  V30 17 1 7 17
M  V30 18 1 8 18
M  V30 19 1 11 19
M  V30 20 1 12 20
M  V30 21 1 13 21
M  V30 22 1 13 22
M  V30 23 1 15 23
M  V30 24 1 15 24
M  V30 25 1 15 25
M  V30 26 1 16 26
M  V30 27 1 16 27
M  V30 28 1 16 28
M  V30 END BOND
M  V30 END CTAB
M  END
>  <Structure No>
2438

>  <LogS>
-2.243098748

>  <MMFF94 Energy>
20.757

$$$$
Compound 2439
Actelion Java MolfileCreator 2.0

  0  0  0  0  0  0              0 V3000
M  V30 BEGIN CTAB
M  V30 COUNTS 28 27 0 0 0
M  V30 BEGIN ATOM
M  V30 1 O -4.8586 1.0955 0.9389 0
M  V30 2 C -4.1132 0.4835 0.1296 0
M  V30 3 O -3.82 1.054 -1.1025 0 CHG=-1
M  V30 4 C -3.515 -0.8365 0.5067 0
M  V30 5 C -2.3257 -0.6783 1.4677 0
M  V30 6 C -1.1431 0.1215 0.8904 0
M  V30 7 C -0.4327 -0.6139 -0.2593 0
M  V30 8 C 0.7973 0.1501 -0.7767 0
M  V30 9 C 2.0204 -0.0081 0.1433 0
M  V30 10 C 3.2387 0.7841 -0.3562 0
M  V30 11 C 3.8732 0.1718 -1.6046 0
M  V30 12 H -3.2112 -1.3893 -0.406 0
M  V30 13 H -4.2958 -1.4492 1.0072 0
M  V30 14 H -2.6791 -0.1702 2.3919 0
M  V30 15 H -1.9713 -1.6879 1.7698 0
M  V30 16 H -0.425 0.2908 1.7192 0
M  V30 17 H -1.4882 1.1198 0.5456 0
M  V30 18 H -0.136 -1.6359 0.0633 0
M  V30 19 H -1.1398 -0.7201 -1.1087 0
M  V30 20 H 0.5486 1.2268 -0.9022 0
M  V30 21 H 1.0466 -0.2562 -1.7795 0
M  V30 22 H 2.286 -1.0835 0.2404 0
M  V30 23 H 1.7712 0.3682 1.1571 0
M  V30 24 H 4.0036 0.7962 0.4503 0
M  V30 25 H 2.9521 1.8384 -0.562 0
M  V30 26 H 3.1953 0.2646 -2.4778 0
M  V30 27 H 4.8145 0.7113 -1.8414 0
M  V30 28 H 4.1141 -0.8988 -1.4338 0
M  V30 END ATOM
M  V30 BEGIN BOND
M  V30 1 2 1 2
M  V30 2 1 2 3
M  V30 3 1 2 4
M  V30 4 1 4 5
M  V30 5 1 5 6
M  V30 6 1 6 7
M  V30 7 1 7 8
M  V30 8 1 8 9
M  V30 9 1 9 10
M  V30 10 1 10 11
M  V30 11 1 4 12
M  V30 12 1 4 13
M  V30 13 1 5 14
M  V30 14 1 5 15
M  V30 15 1 6 16
M  V30 16 1 6 17
M  V30 17 1 7 18
M  V30 18 1 7 19
M  V30 19 1 8 20
M  V30 20 1 8 21
M  V30 21 1 9 22
M  V30 22 1 9 23
M  V30 23 1 10 24
M  V30 24 1 10 25
M  V30 25 1 11 26
M  V30 26 1 11 27
M  V30 27 1 11 28
M  V30 END BOND
M  V30 END CTAB
M  END
>  <Structure No>
2439

>  <LogS>
-2.412949573

>  <MMFF94 Energy>
0.65052

$$$$
Compound 2440
Actelion Java MolfileCreator 2.0

  0  0  0  0  0  0              0 V3000
M  V30 BEGIN CTAB
M  V30 COUNTS 26 25 0 0 0
M  V30 BEGIN ATOM
M  V30 1 O -0.6172 -1.0803 0.54 0
M  V30 2 C 0.0081 0.0281 -0.0815 0
M  V30 3 C -1.916 -1.2685 0.0162 0
M  V30 4 O -0.518 1.2148 0.4852 0
M  V30 5 O 1.3955 -0.0251 0.1994 0
M  V30 6 C -2.6073 -2.3831 0.786 0
M  V30 7 C -0.1944 2.3293 -0.3208 0
M  V30 8 C 2.0257 -0.9878 -0.6206 0
M  V30 9 C -0.6629 3.5991 0.3725 0
M  V30 10 C 3.4855 -1.1111 -0.2127 0
M  V30 11 H -0.1698 0.0092 -1.1916 0
M  V30 12 H -1.8641 -1.5659 -1.0554 0
M  V30 13 H -2.5299 -0.3441 0.1159 0
M  V30 14 H -3.628 -2.5441 0.3791 0
M  V30 15 H -2.0285 -3.3264 0.6908 0
M  V30 16 H -2.6864 -2.1107 1.86 0
M  V30 17 H -0.7096 2.2602 -1.3056 0
M  V30 18 H 0.9052 2.4061 -0.4817 0
M  V30 19 H 1.5476 -1.9879 -0.5101 0
M  V30 20 H 1.9878 -0.6742 -1.6884 0
M  V30 21 H -0.1561 3.7043 1.3553 0
M  V30 22 H -0.4189 4.4823 -0.2549 0
M  V30 23 H -1.7618 3.5624 0.5312 0
M  V30 24 H 3.5575 -1.4357 0.847 0
M  V30 25 H 3.9931 -1.8616 -0.8548 0
M  V30 26 H 3.9968 -0.1319 -0.3296 0
M  V30 END ATOM
M  V30 BEGIN BOND
M  V30 1 1 1 2
M  V30 2 1 1 3
M  V30 3 1 2 4
M  V30 4 1 2 5
M  V30 5 1 3 6
M  V30 6 1 4 7
M  V30 7 1 5 8
M  V30 8 1 7 9
M  V30 9 1 8 10
M  V30 10 1 2 11
M  V30 11 1 3 12
M  V30 12 1 3 13
M  V30 13 1 6 14
M  V30 14 1 6 15
M  V30 15 1 6 16
M  V30 16 1 7 17
M  V30 17 1 7 18
M  V30 18 1 8 19
M  V30 19 1 8 20
M  V30 20 1 9 21
M  V30 21 1 9 22
M  V30 22 1 9 23
M  V30 23 1 10 24
M  V30 24 1 10 25
M  V30 25 1 10 26
M  V30 END BOND
M  V30 END CTAB
M  END
>  <Structure No>
2440

>  <LogS>
-2.040520296

>  <MMFF94 Energy>
-43.42

$$$$
Compound 2441
Actelion Java MolfileCreator 2.0

  0  0  0  0  0  0              0 V3000
M  V30 BEGIN CTAB
M  V30 COUNTS 36 35 0 0 0
M  V30 BEGIN ATOM
M  V30 1 O 3.186 0.6986 1.4754 0
M  V30 2 C 3.2718 0.1396 0.3463 0
M  V30 3 N 4.5668 -0.0037 -0.2771 0
M  V30 4 C 2.0202 -0.3696 -0.3327 0
M  V30 5 C 5.7543 0.5049 0.4173 0
M  V30 6 C 4.701 -0.6489 -1.5881 0
M  V30 7 C 0.7455 -0.1221 0.4883 0
M  V30 8 C -0.4925 -0.6554 -0.2426 0
M  V30 9 C -1.7651 -0.4073 0.5759 0
M  V30 10 C -3.0041 -0.9508 -0.1517 0
M  V30 11 C -4.3073 -0.6758 0.6279 0
M  V30 12 C -5.1182 0.5077 0.0738 0
M  V30 13 C -4.4152 1.8515 0.2534 0
M  V30 14 H 2.1297 -1.4616 -0.5066 0
M  V30 15 H 1.9185 0.137 -1.3163 0
M  V30 16 H 6.6817 0.3322 -0.1678 0
M  V30 17 H 5.8628 -0.0069 1.3969 0
M  V30 18 H 5.6498 1.5978 0.5858 0
M  V30 19 H 5.7581 -0.6796 -1.9256 0
M  V30 20 H 4.3303 -1.6938 -1.5342 0
M  V30 21 H 4.1177 -0.0863 -2.3469 0
M  V30 22 H 0.6262 0.9704 0.6616 0
M  V30 23 H 0.8375 -0.6321 1.4729 0
M  V30 24 H -0.5848 -0.147 -1.2279 0
M  V30 25 H -0.3745 -1.7476 -0.4177 0
M  V30 26 H -1.8764 0.6824 0.7554 0
M  V30 27 H -1.671 -0.9138 1.5619 0
M  V30 28 H -3.063 -0.5241 -1.1771 0
M  V30 29 H -2.8847 -2.0513 -0.2632 0
M  V30 30 H -4.1059 -0.5231 1.7114 0
M  V30 31 H -4.9519 -1.579 0.5537 0
M  V30 32 H -5.3399 0.3459 -1.0034 0
M  V30 33 H -6.0902 0.5479 0.6122 0
M  V30 34 H -3.5273 1.9167 -0.409 0
M  V30 35 H -5.1108 2.6717 -0.0231 0
M  V30 36 H -4.106 1.9916 1.3111 0
M  V30 END ATOM
M  V30 BEGIN BOND
M  V30 1 2 1 2
M  V30 2 1 2 3
M  V30 3 1 2 4
M  V30 4 1 3 5
M  V30 5 1 3 6
M  V30 6 1 4 7
M  V30 7 1 7 8
M  V30 8 1 8 9
M  V30 9 1 9 10
M  V30 10 1 10 11
M  V30 11 1 11 12
M  V30 12 1 12 13
M  V30 13 1 4 14
M  V30 14 1 4 15
M  V30 15 1 5 16
M  V30 16 1 5 17
M  V30 17 1 5 18
M  V30 18 1 6 19
M  V30 19 1 6 20
M  V30 20 1 6 21
M  V30 21 1 7 22
M  V30 22 1 7 23
M  V30 23 1 8 24
M  V30 24 1 8 25
M  V30 25 1 9 26
M  V30 26 1 9 27
M  V30 27 1 10 28
M  V30 28 1 10 29
M  V30 29 1 11 30
M  V30 30 1 11 31
M  V30 31 1 12 32
M  V30 32 1 12 33
M  V30 33 1 13 34
M  V30 34 1 13 35
M  V30 35 1 13 36
M  V30 END BOND
M  V30 END CTAB
M  END
>  <Structure No>
2441

>  <LogS>
-2.144049559

>  <MMFF94 Energy>
-13.793

$$$$
Compound 2442
Actelion Java MolfileCreator 2.0

  0  0  0  0  0  0              0 V3000
M  V30 BEGIN CTAB
M  V30 COUNTS 32 33 0 0 0
M  V30 BEGIN ATOM
M  V30 1 O -6.8475 0.241 -0.1607 0
M  V30 2 C -5.845 -0.2802 -0.6653 0
M  V30 3 N -4.8173 -0.8174 -1.1886 0
M  V30 4 C -3.457 -0.6539 -0.7437 0
M  V30 5 C -3.0824 -0.239 0.5672 0
M  V30 6 C -2.4531 -0.9501 -1.6739 0
M  V30 7 C -1.7171 -0.0829 0.8722 0
M  V30 8 C -4.0869 0.0298 1.6577 0
M  V30 9 C -1.1048 -0.8034 -1.3517 0
M  V30 10 C -0.722 -0.3614 -0.0783 0
M  V30 11 C 0.7151 -0.1993 0.2611 0
M  V30 12 C 1.6037 0.3814 -0.6578 0
M  V30 13 C 1.2038 -0.6174 1.5062 0
M  V30 14 C 2.9673 0.5467 -0.3503 0
M  V30 15 C 2.5545 -0.4743 1.8201 0
M  V30 16 C 3.4566 0.0809 0.9043 0
M  V30 17 C 3.8443 1.2335 -1.365 0
M  V30 18 N 4.8332 0.1592 1.321 0
M  V30 19 C 5.8411 0.2724 0.5528 0
M  V30 20 O 6.8246 0.3813 -0.1903 0
M  V30 21 H -2.7219 -1.2882 -2.6672 0
M  V30 22 H -1.4266 0.2656 1.8562 0
M  V30 23 H -3.5973 0.1419 2.6486 0
M  V30 24 H -4.6339 0.9711 1.4427 0
M  V30 25 H -4.7966 -0.8193 1.7431 0
M  V30 26 H -0.3593 -1.0485 -2.0977 0
M  V30 27 H 1.2243 0.7332 -1.6099 0
M  V30 28 H 0.5447 -1.0778 2.2316 0
M  V30 29 H 2.9088 -0.8184 2.7841 0
M  V30 30 H 4.5271 0.4951 -1.8339 0
M  V30 31 H 4.4262 2.0458 -0.8815 0
M  V30 32 H 3.2459 1.7027 -2.1749 0
M  V30 END ATOM
M  V30 BEGIN BOND
M  V30 1 2 1 2
M  V30 2 2 2 3
M  V30 3 1 3 4
M  V30 4 2 4 5
M  V30 5 1 4 6
M  V30 6 1 5 7
M  V30 7 1 5 8
M  V30 8 2 6 9
M  V30 9 2 7 10
M  V30 10 1 10 11
M  V30 11 2 11 12
M  V30 12 1 11 13
M  V30 13 1 12 14
M  V30 14 2 13 15
M  V30 15 2 14 16
M  V30 16 1 14 17
M  V30 17 1 16 18
M  V30 18 2 18 19
M  V30 19 2 19 20
M  V30 20 1 9 10
M  V30 21 1 15 16
M  V30 22 1 6 21
M  V30 23 1 7 22
M  V30 24 1 8 23
M  V30 25 1 8 24
M  V30 26 1 8 25
M  V30 27 1 9 26
M  V30 28 1 12 27
M  V30 29 1 13 28
M  V30 30 1 15 29
M  V30 31 1 17 30
M  V30 32 1 17 31
M  V30 33 1 17 32
M  V30 END BOND
M  V30 END CTAB
M  END
>  <Structure No>
2442

>  <LogS>
-2.308127519

>  <MMFF94 Energy>
32.66

$$$$
Compound 2443
Actelion Java MolfileCreator 2.0

  0  0  0  0  0  0              0 V3000
M  V30 BEGIN CTAB
M  V30 COUNTS 21 21 0 0 0
M  V30 BEGIN ATOM
M  V30 1 O 3.8522 0.3925 -1.3351 0
M  V30 2 C 3.0596 0.1927 -0.3762 0
M  V30 3 C 1.6061 0.2101 -0.6445 0
M  V30 4 C 3.6251 -0.0542 0.9904 0
M  V30 5 C 0.6821 -0.0285 0.2986 0
M  V30 6 C -0.7785 -0.0235 0.0378 0
M  V30 7 C -1.3532 0.6715 -1.0467 0
M  V30 8 C -1.6239 -0.7076 0.9287 0
M  V30 9 C -2.7382 0.6552 -1.2421 0
M  V30 10 C -3.0074 -0.7209 0.7275 0
M  V30 11 C -3.5639 -0.0428 -0.3585 0
M  V30 12 H 1.3036 0.4008 -1.665 0
M  V30 13 H 3.3417 -1.0699 1.337 0
M  V30 14 H 4.7336 0.0152 0.9711 0
M  V30 15 H 3.2381 0.7049 1.7019 0
M  V30 16 H 1.0006 -0.2827 1.3017 0
M  V30 17 H -0.7474 1.2482 -1.7313 0
M  V30 18 H -1.2117 -1.24 1.7774 0
M  V30 19 H -3.1723 1.1914 -2.0762 0
M  V30 20 H -3.6487 -1.2566 1.4155 0
M  V30 21 H -4.6353 -0.0525 -0.5118 0
M  V30 END ATOM
M  V30 BEGIN BOND
M  V30 1 2 1 2
M  V30 2 1 2 3
M  V30 3 1 2 4
M  V30 4 2 3 5
M  V30 5 1 5 6
M  V30 6 2 6 7
M  V30 7 1 6 8
M  V30 8 1 7 9
M  V30 9 2 8 10
M  V30 10 2 9 11
M  V30 11 1 10 11
M  V30 12 1 3 12
M  V30 13 1 4 13
M  V30 14 1 4 14
M  V30 15 1 4 15
M  V30 16 1 5 16
M  V30 17 1 7 17
M  V30 18 1 8 18
M  V30 19 1 9 19
M  V30 20 1 10 20
M  V30 21 1 11 21
M  V30 END BOND
M  V30 END CTAB
M  END
>  <Structure No>
2443

>  <LogS>
-2.050971343

>  <MMFF94 Energy>
24.693

$$$$
Compound 2444
Actelion Java MolfileCreator 2.0

  0  0  0  0  0  0              0 V3000
M  V30 BEGIN CTAB
M  V30 COUNTS 22 23 0 0 0
M  V30 BEGIN ATOM
M  V30 1 O -3.8656 -1.9313 -0.0804 0
M  V30 2 C -3.0725 -0.962 -0.2058 0
M  V30 3 N -3.1752 0.2306 0.5467 0
M  V30 4 N -1.9841 -0.9545 -1.1194 0
M  V30 5 C -2.0996 1.0265 0.0712 0
M  V30 6 C -1.3005 0.3316 -0.9942 0 CFG=1
M  V30 7 O -1.8685 2.1903 0.4931 0
M  V30 8 C 0.138 0.1406 -0.5749 0
M  V30 9 C 1.1668 0.788 -1.2796 0
M  V30 10 C 0.4676 -0.6627 0.5327 0
M  V30 11 C 2.5001 0.6269 -0.8909 0
M  V30 12 C 1.8018 -0.8216 0.9187 0
M  V30 13 C 2.8208 -0.1791 0.2091 0
M  V30 14 O 4.1459 -0.3467 0.605 0
M  V30 15 H -3.8849 0.475 1.2725 0
M  V30 16 H -1.7416 -1.7178 -1.7894 0
M  V30 17 H -1.3856 0.8897 -1.952 0
M  V30 18 H 0.9382 1.4183 -2.13 0
M  V30 19 H -0.3084 -1.1637 1.0979 0
M  V30 20 H 3.2828 1.1301 -1.4443 0
M  V30 21 H 2.0437 -1.4434 1.7712 0
M  V30 22 H 4.9068 0.1054 0.1121 0
M  V30 END ATOM
M  V30 BEGIN BOND
M  V30 1 2 1 2
M  V30 2 1 2 3
M  V30 3 1 2 4
M  V30 4 1 3 5
M  V30 5 1 4 6
M  V30 6 2 5 7
M  V30 7 1 6 8
M  V30 8 2 8 9
M  V30 9 1 8 10
M  V30 10 1 9 11
M  V30 11 2 10 12
M  V30 12 2 11 13
M  V30 13 1 13 14
M  V30 14 1 5 6
M  V30 15 1 12 13
M  V30 16 1 3 15
M  V30 17 1 4 16
M  V30 18 1 6 17
M  V30 19 1 9 18
M  V30 20 1 10 19
M  V30 21 1 11 20
M  V30 22 1 12 21
M  V30 23 1 14 22
M  V30 END BOND
M  V30 BEGIN COLLECTION
M  V30 MDLV30/STEABS ATOMS=(1 6)
M  V30 END COLLECTION
M  V30 END CTAB
M  END
>  <Structure No>
2444

>  <LogS>
-2.17310492

>  <MMFF94 Energy>
-54.805

$$$$
Compound 2445
Actelion Java MolfileCreator 2.0

  0  0  0  0  0  0              0 V3000
M  V30 BEGIN CTAB
M  V30 COUNTS 47 46 0 0 0
M  V30 BEGIN ATOM
M  V30 1 S 6.9066 -0.8012 0.5608 0
M  V30 2 O 7.0085 0.2329 1.6465 0
M  V30 3 O 8.245 -1.4576 0.376 0
M  V30 4 O 5.7787 -1.9651 1.0029 0 CHG=-1
M  V30 5 C 6.4152 -0.0266 -0.9727 0
M  V30 6 C 5.1063 0.7514 -0.8174 0
M  V30 7 O 4.0319 -0.1117 -0.4494 0
M  V30 8 C 3.4102 -0.9927 -1.3411 0
M  V30 9 O 3.7343 -1.014 -2.5598 0
M  V30 10 C 2.316 -1.8873 -0.8476 0
M  V30 11 C 0.9286 -1.3018 -1.1402 0
M  V30 12 C 0.6464 -0.0346 -0.3192 0
M  V30 13 C -0.773 0.4828 -0.5779 0
M  V30 14 C -1.0608 1.7417 0.2537 0
M  V30 15 C -2.4065 2.4017 -0.0996 0
M  V30 16 C -3.6427 1.5123 0.1247 0
M  V30 17 C -3.8049 1.0731 1.5898 0
M  V30 18 C -5.1719 0.4238 1.8702 0
M  V30 19 C -5.4436 -0.87 1.0819 0
M  V30 20 C -4.4444 -1.9831 1.3958 0
M  V30 21 H 7.2171 0.673 -1.2899 0
M  V30 22 H 6.307 -0.8063 -1.7553 0
M  V30 23 H 5.2289 1.5244 -0.0297 0
M  V30 24 H 4.8635 1.2772 -1.7663 0
M  V30 25 H 2.4049 -2.8746 -1.3501 0
M  V30 26 H 2.435 -2.0573 0.2444 0
M  V30 27 H 0.8389 -1.0772 -2.226 0
M  V30 28 H 0.1675 -2.0728 -0.8894 0
M  V30 29 H 0.7622 -0.2627 0.7634 0
M  V30 30 H 1.3774 0.7566 -0.5942 0
M  V30 31 H -1.4969 -0.3151 -0.3068 0
M  V30 32 H -0.8876 0.7182 -1.6589 0
M  V30 33 H -1.0256 1.4981 1.3368 0
M  V30 34 H -0.2602 2.4898 0.063 0
M  V30 35 H -2.5155 3.3281 0.5053 0
M  V30 36 H -2.3843 2.7134 -1.1666 0
M  V30 37 H -3.5895 0.6265 -0.5407 0
M  V30 38 H -4.5392 2.0962 -0.1781 0
M  V30 39 H -3.7128 1.9664 2.2458 0
M  V30 40 H -2.9945 0.3712 1.8748 0
M  V30 41 H -5.9749 1.1566 1.6368 0
M  V30 42 H -5.2426 0.2033 2.9577 0
M  V30 43 H -6.4603 -1.23 1.351 0
M  V30 44 H -5.4497 -0.6689 -0.0097 0
M  V30 45 H -3.4437 -1.7392 0.9823 0
M  V30 46 H -4.3665 -2.1384 2.4929 0
M  V30 47 H -4.7875 -2.9296 0.9277 0
M  V30 END ATOM
M  V30 BEGIN BOND
M  V30 1 2 1 2
M  V30 2 2 1 3
M  V30 3 1 1 4
M  V30 4 1 1 5
M  V30 5 1 5 6
M  V30 6 1 6 7
M  V30 7 1 7 8
M  V30 8 2 8 9
M  V30 9 1 8 10
M  V30 10 1 10 11
M  V30 11 1 11 12
M  V30 12 1 12 13
M  V30 13 1 13 14
M  V30 14 1 14 15
M  V30 15 1 15 16
M  V30 16 1 16 17
M  V30 17 1 17 18
M  V30 18 1 18 19
M  V30 19 1 19 20
M  V30 20 1 5 21
M  V30 21 1 5 22
M  V30 22 1 6 23
M  V30 23 1 6 24
M  V30 24 1 10 25
M  V30 25 1 10 26
M  V30 26 1 11 27
M  V30 27 1 11 28
M  V30 28 1 12 29
M  V30 29 1 12 30
M  V30 30 1 13 31
M  V30 31 1 13 32
M  V30 32 1 14 33
M  V30 33 1 14 34
M  V30 34 1 15 35
M  V30 35 1 15 36
M  V30 36 1 16 37
M  V30 37 1 16 38
M  V30 38 1 17 39
M  V30 39 1 17 40
M  V30 40 1 18 41
M  V30 41 1 18 42
M  V30 42 1 19 43
M  V30 43 1 19 44
M  V30 44 1 20 45
M  V30 45 1 20 46
M  V30 46 1 20 47
M  V30 END BOND
M  V30 END CTAB
M  END
>  <Structure No>
2445

>  <LogS>
-2.408479245

>  <MMFF94 Energy>
-21.48

$$$$
Compound 2446
Actelion Java MolfileCreator 2.0

  0  0  0  0  0  0              0 V3000
M  V30 BEGIN CTAB
M  V30 COUNTS 25 25 0 0 0
M  V30 BEGIN ATOM
M  V30 1 O 0.2368 2.8451 0.5527 0
M  V30 2 N -0.6563 2.4186 -0.2079 0 CHG=1
M  V30 3 O -1.3998 3.3235 -0.9303 0 CHG=-1
M  V30 4 C -1.061 1.0407 -0.1503 0
M  V30 5 C -0.1144 -0.0062 -0.0091 0
M  V30 6 C -2.4313 0.7323 -0.1989 0
M  V30 7 N 1.3 0.2679 -0.0725 0
M  V30 8 C -0.5769 -1.3297 0.1271 0
M  V30 9 C -2.8746 -0.5892 -0.0746 0
M  V30 10 C 2.3089 -0.6282 0.4989 0
M  V30 11 C -1.9424 -1.6158 0.0969 0
M  V30 12 N -4.2731 -0.8864 -0.1132 0
M  V30 13 C 3.6961 0.0204 0.4951 0
M  V30 14 O 4.1252 0.2684 -0.8165 0
M  V30 15 H -3.1593 1.527 -0.307 0
M  V30 16 H 1.6212 1.1461 -0.5381 0
M  V30 17 H 0.1146 -2.1537 0.2333 0
M  V30 18 H 2.3476 -1.5721 -0.0857 0
M  V30 19 H 2.0335 -0.8684 1.5488 0
M  V30 20 H -2.2735 -2.6421 0.196 0
M  V30 21 H -4.6138 -1.8691 -0.0179 0
M  V30 22 H -4.9786 -0.1264 -0.2384 0
M  V30 23 H 3.6563 0.9823 1.0496 0
M  V30 24 H 4.4217 -0.6422 1.0191 0
M  V30 25 H 4.3992 -0.607 -1.196 0
M  V30 END ATOM
M  V30 BEGIN BOND
M  V30 1 2 1 2
M  V30 2 1 2 3
M  V30 3 1 2 4
M  V30 4 2 4 5
M  V30 5 1 4 6
M  V30 6 1 5 7
M  V30 7 1 5 8
M  V30 8 2 6 9
M  V30 9 1 7 10
M  V30 10 2 8 11
M  V30 11 1 9 12
M  V30 12 1 10 13
M  V30 13 1 13 14
M  V30 14 1 9 11
M  V30 15 1 6 15
M  V30 16 1 7 16
M  V30 17 1 8 17
M  V30 18 1 10 18
M  V30 19 1 10 19
M  V30 20 1 11 20
M  V30 21 1 12 21
M  V30 22 1 12 22
M  V30 23 1 13 23
M  V30 24 1 13 24
M  V30 25 1 14 25
M  V30 END BOND
M  V30 END CTAB
M  END
>  <Structure No>
2446

>  <LogS>
-2.191089976

>  <MMFF94 Energy>
74.673

$$$$
Compound 2447
Actelion Java MolfileCreator 2.0

  0  0  0  0  0  0              0 V3000
M  V30 BEGIN CTAB
M  V30 COUNTS 31 31 0 0 0
M  V30 BEGIN ATOM
M  V30 1 O 0.3916 1.8027 -1.3322 0
M  V30 2 C 1.559 1.047 -1.1441 0 CFG=2
M  V30 3 C 1.2533 -0.472 -1.2465 0
M  V30 4 C 2.2582 1.4683 0.1493 0
M  V30 5 C 0.3645 -1.1582 -0.1474 0
M  V30 6 C -0.8725 -0.3052 0.2014 0
M  V30 7 C 1.2315 -1.5188 1.0907 0
M  V30 8 C -0.1285 -2.5168 -0.7101 0
M  V30 9 C -1.114 0.1961 1.5033 0
M  V30 10 C -1.818 -0.0021 -0.8058 0
M  V30 11 C -2.2495 0.9646 1.7761 0
M  V30 12 C -2.9501 0.7666 -0.5242 0
M  V30 13 C -3.1662 1.2489 0.7652 0
M  V30 14 H 0.6761 2.7256 -1.5635 0
M  V30 15 H 2.263 1.2715 -1.98 0
M  V30 16 H 0.7713 -0.6178 -2.2387 0
M  V30 17 H 2.2226 -1.0135 -1.3186 0
M  V30 18 H 3.096 0.7784 0.3841 0
M  V30 19 H 2.6794 2.4887 0.0263 0
M  V30 20 H 1.5356 1.5073 0.9899 0
M  V30 21 H 0.6397 -2.1105 1.8227 0
M  V30 22 H 2.1065 -2.1362 0.7933 0
M  V30 23 H 1.6227 -0.6339 1.6205 0
M  V30 24 H 0.7298 -3.1895 -0.9269 0
M  V30 25 H -0.6939 -2.3971 -1.6573 0
M  V30 26 H -0.7933 -3.0256 0.0217 0
M  V30 27 H -0.4396 0.0057 2.324 0
M  V30 28 H -1.6719 -0.3408 -1.8224 0
M  V30 29 H -2.4189 1.3408 2.7769 0
M  V30 30 H -3.6588 0.9927 -1.3103 0
M  V30 31 H -4.0434 1.8452 0.9809 0
M  V30 END ATOM
M  V30 BEGIN BOND
M  V30 1 1 1 2
M  V30 2 1 2 3
M  V30 3 1 2 4
M  V30 4 1 3 5
M  V30 5 1 5 6
M  V30 6 1 5 7
M  V30 7 1 5 8
M  V30 8 2 6 9
M  V30 9 1 6 10
M  V30 10 1 9 11
M  V30 11 2 10 12
M  V30 12 2 11 13
M  V30 13 1 12 13
M  V30 14 1 1 14
M  V30 15 1 2 15
M  V30 16 1 3 16
M  V30 17 1 3 17
M  V30 18 1 4 18
M  V30 19 1 4 19
M  V30 20 1 4 20
M  V30 21 1 7 21
M  V30 22 1 7 22
M  V30 23 1 7 23
M  V30 24 1 8 24
M  V30 25 1 8 25
M  V30 26 1 8 26
M  V30 27 1 9 27
M  V30 28 1 10 28
M  V30 29 1 11 29
M  V30 30 1 12 30
M  V30 31 1 13 31
M  V30 END BOND
M  V30 BEGIN COLLECTION
M  V30 MDLV30/STEABS ATOMS=(1 2)
M  V30 END COLLECTION
M  V30 END CTAB
M  END
>  <Structure No>
2447

>  <LogS>
-2.147286724

>  <MMFF94 Energy>
43.512

$$$$
Compound 2448
Actelion Java MolfileCreator 2.0

  0  0  0  0  0  0              0 V3000
M  V30 BEGIN CTAB
M  V30 COUNTS 19 20 0 0 0
M  V30 BEGIN ATOM
M  V30 1 O -1.2715 2.6239 0.3177 0
M  V30 2 C -1.1785 1.2341 0.1972 0
M  V30 3 C 0.0531 0.548 0.0183 0
M  V30 4 C -2.3724 0.5058 0.2594 0
M  V30 5 C 0.0414 -0.8708 -0.0939 0
M  V30 6 C 1.2936 1.2188 -0.053 0
M  V30 7 C -2.3702 -0.8836 0.1481 0
M  V30 8 C -1.1715 -1.5709 -0.0275 0
M  V30 9 C 1.2435 -1.5735 -0.2711 0
M  V30 10 C 2.4802 0.5018 -0.23 0
M  V30 11 C 2.4557 -0.8876 -0.3384 0
M  V30 12 H -0.485 3.2559 0.2891 0
M  V30 13 H -3.3131 1.0248 0.3958 0
M  V30 14 H 1.3757 2.291 0.0243 0
M  V30 15 H -3.3032 -1.4302 0.1985 0
M  V30 16 H -1.1921 -2.6511 -0.1118 0
M  V30 17 H 1.2451 -2.6538 -0.3577 0
M  V30 18 H 3.4248 1.028 -0.283 0
M  V30 19 H 3.3795 -1.4349 -0.4753 0
M  V30 END ATOM
M  V30 BEGIN BOND
M  V30 1 1 1 2
M  V30 2 1 2 3
M  V30 3 2 2 4
M  V30 4 1 3 5
M  V30 5 2 3 6
M  V30 6 1 4 7
M  V30 7 1 5 8
M  V30 8 2 5 9
M  V30 9 1 6 10
M  V30 10 1 9 11
M  V30 11 2 7 8
M  V30 12 2 10 11
M  V30 13 1 1 12
M  V30 14 1 4 13
M  V30 15 1 6 14
M  V30 16 1 7 15
M  V30 17 1 8 16
M  V30 18 1 9 17
M  V30 19 1 10 18
M  V30 20 1 11 19
M  V30 END BOND
M  V30 END CTAB
M  END
>  <Structure No>
2448

>  <LogS>
-2.061973923

>  <MMFF94 Energy>
30.428

$$$$
Compound 2449
Actelion Java MolfileCreator 2.0

  0  0  0  0  0  0              0 V3000
M  V30 BEGIN CTAB
M  V30 COUNTS 14 14 0 0 0
M  V30 BEGIN ATOM
M  V30 1 Cl 0.6682 2.424 1.4204 0
M  V30 2 C 0.0446 0.9789 0.6226 0
M  V30 3 C -1.3316 0.6867 0.688 0
M  V30 4 C 0.91 0.1115 -0.0811 0
M  V30 5 Cl -2.4504 1.735 1.5517 0
M  V30 6 C -1.8357 -0.4561 0.0589 0
M  V30 7 N 2.3168 0.3718 -0.1722 0
M  V30 8 C 0.3849 -1.0301 -0.7056 0
M  V30 9 C -0.9802 -1.3114 -0.6353 0
M  V30 10 H -2.8933 -0.6829 0.1078 0
M  V30 11 H 2.943 -0.2794 -0.6963 0
M  V30 12 H 2.7571 1.2057 0.2737 0
M  V30 13 H 1.0362 -1.7037 -1.2482 0
M  V30 14 H -1.3759 -2.1945 -1.1202 0
M  V30 END ATOM
M  V30 BEGIN BOND
M  V30 1 1 1 2
M  V30 2 2 2 3
M  V30 3 1 2 4
M  V30 4 1 3 5
M  V30 5 1 3 6
M  V30 6 1 4 7
M  V30 7 2 4 8
M  V30 8 2 6 9
M  V30 9 1 8 9
M  V30 10 1 6 10
M  V30 11 1 7 11
M  V30 12 1 7 12
M  V30 13 1 8 13
M  V30 14 1 9 14
M  V30 END BOND
M  V30 END CTAB
M  END
>  <Structure No>
2449

>  <LogS>
-2.130384701

>  <MMFF94 Energy>
40.621

$$$$
Compound 2450
Actelion Java MolfileCreator 2.0

  0  0  0  0  0  0              0 V3000
M  V30 BEGIN CTAB
M  V30 COUNTS 17 17 0 0 0
M  V30 BEGIN ATOM
M  V30 1 Cl 3.7683 -0.961 0.4804 0
M  V30 2 C 2.1286 -0.3756 0.2649 0
M  V30 3 C 1.0637 -1.2793 0.2194 0
M  V30 4 C 1.8872 0.9932 0.139 0
M  V30 5 C -0.2532 -0.8236 0.0474 0
M  V30 6 C 0.5832 1.4619 -0.0325 0
M  V30 7 N -1.3202 -1.7815 0.0056 0
M  V30 8 C -0.4986 0.5651 -0.0803 0
M  V30 9 C -1.8926 1.1005 -0.2663 0
M  V30 10 H 1.261 -2.3395 0.3181 0
M  V30 11 H 2.7096 1.6962 0.1739 0
M  V30 12 H 0.4195 2.5283 -0.1279 0
M  V30 13 H -1.1194 -2.8019 0.1018 0
M  V30 14 H -2.3166 -1.4995 -0.1198 0
M  V30 15 H -2.3337 0.6853 -1.1966 0
M  V30 16 H -2.523 0.8175 0.6028 0
M  V30 17 H -1.8997 2.2083 -0.3484 0
M  V30 END ATOM
M  V30 BEGIN BOND
M  V30 1 1 1 2
M  V30 2 2 2 3
M  V30 3 1 2 4
M  V30 4 1 3 5
M  V30 5 2 4 6
M  V30 6 1 5 7
M  V30 7 2 5 8
M  V30 8 1 8 9
M  V30 9 1 6 8
M  V30 10 1 3 10
M  V30 11 1 4 11
M  V30 12 1 6 12
M  V30 13 1 7 13
M  V30 14 1 7 14
M  V30 15 1 9 15
M  V30 16 1 9 16
M  V30 17 1 9 17
M  V30 END BOND
M  V30 END CTAB
M  END
>  <Structure No>
2450

>  <LogS>
-2.071885074

>  <MMFF94 Energy>
10.583

$$$$
Compound 2451
Actelion Java MolfileCreator 2.0

  0  0  0  0  0  0              0 V3000
M  V30 BEGIN CTAB
M  V30 COUNTS 32 31 0 0 0
M  V30 BEGIN ATOM
M  V30 1 O 3.9437 -1.0242 -0.315 0
M  V30 2 C 2.8261 -0.8217 -0.8635 0
M  V30 3 N 2.0524 0.3508 -0.5155 0
M  V30 4 C 2.3254 -1.8298 -1.8543 0
M  V30 5 C 2.7313 1.517 0.01 0
M  V30 6 C 0.5846 0.33 -0.6475 0
M  V30 7 O 3.9574 1.6901 -0.2301 0
M  V30 8 C 2.0126 2.5645 0.8078 0
M  V30 9 C -0.0552 -0.4318 0.5185 0
M  V30 10 N -1.5151 -0.5029 0.3466 0
M  V30 11 C -2.3422 0.6387 0.6685 0
M  V30 12 C -2.0864 -1.6677 -0.2896 0
M  V30 13 O -3.405 0.8495 0.0236 0
M  V30 14 C -1.9438 1.6203 1.7282 0
M  V30 15 O -1.3816 -2.3734 -1.061 0
M  V30 16 C -3.5129 -2.066 -0.0596 0
M  V30 17 H 2.0068 -1.3175 -2.7858 0
M  V30 18 H 3.1291 -2.5517 -2.1125 0
M  V30 19 H 1.4716 -2.3931 -1.4256 0
M  V30 20 H 0.2904 -0.1424 -1.6073 0
M  V30 21 H 0.1759 1.3606 -0.6901 0
M  V30 22 H 1.3908 3.1925 0.1371 0
M  V30 23 H 1.3755 2.09 1.58 0
M  V30 24 H 2.7429 3.2223 1.3251 0
M  V30 25 H 0.3725 -1.4558 0.5784 0
M  V30 26 H 0.2011 0.056 1.48 0
M  V30 27 H -1.1265 2.2681 1.3515 0
M  V30 28 H -1.6083 1.0814 2.6385 0
M  V30 29 H -2.807 2.2628 2.0038 0
M  V30 30 H -3.618 -3.1684 -0.1415 0
M  V30 31 H -4.1627 -1.5871 -0.8209 0
M  V30 32 H -3.8401 -1.7604 0.9562 0
M  V30 END ATOM
M  V30 BEGIN BOND
M  V30 1 2 1 2
M  V30 2 1 2 3
M  V30 3 1 2 4
M  V30 4 1 3 5
M  V30 5 1 3 6
M  V30 6 2 5 7
M  V30 7 1 5 8
M  V30 8 1 6 9
M  V30 9 1 9 10
M  V30 10 1 10 11
M  V30 11 1 10 12
M  V30 12 2 11 13
M  V30 13 1 11 14
M  V30 14 2 12 15
M  V30 15 1 12 16
M  V30 16 1 4 17
M  V30 17 1 4 18
M  V30 18 1 4 19
M  V30 19 1 6 20
M  V30 20 1 6 21
M  V30 21 1 8 22
M  V30 22 1 8 23
M  V30 23 1 8 24
M  V30 24 1 9 25
M  V30 25 1 9 26
M  V30 26 1 14 27
M  V30 27 1 14 28
M  V30 28 1 14 29
M  V30 29 1 16 30
M  V30 30 1 16 31
M  V30 31 1 16 32
M  V30 END BOND
M  V30 END CTAB
M  END
>  <Structure No>
2451

>  <LogS>
-2.279225735

>  <MMFF94 Energy>
-55.516

$$$$
Compound 2452
Actelion Java MolfileCreator 2.0

  0  0  0  0  0  0              0 V3000
M  V30 BEGIN CTAB
M  V30 COUNTS 40 41 0 0 0
M  V30 BEGIN ATOM
M  V30 1 O 1.5094 -0.0793 -0.6353 0
M  V30 2 C 0.3891 -0.4666 0.1307 0 CFG=1
M  V30 3 C 2.6241 -0.3543 0.1486 0 CFG=1
M  V30 4 O 0.7987 -1.2831 1.2151 0
M  V30 5 C -0.3571 0.7889 0.7026 0 CFG=1
M  V30 6 C -0.5513 -1.2962 -0.7703 0
M  V30 7 C 2.1798 -1.4164 1.1117 0
M  V30 8 C 3.7929 -0.8005 -0.7378 0
M  V30 9 C -0.7099 1.9033 -0.3609 0
M  V30 10 C -1.5992 0.288 1.4904 0
M  V30 11 C -1.8322 -1.7295 -0.0256 0 CFG=1
M  V30 12 O 4.9186 -1.1037 0.0413 0
M  V30 13 C -1.5975 3.0154 0.2355 0
M  V30 14 C 0.5484 2.5626 -0.965 0
M  V30 15 C -2.552 -0.5191 0.5985 0
M  V30 16 C -2.7732 -2.4842 -0.9708 0
M  V30 17 H 2.9086 0.5687 0.703 0
M  V30 18 H 0.3179 1.26 1.4521 0
M  V30 19 H -0.8156 -0.717 -1.6808 0
M  V30 20 H -0.007 -2.2041 -1.1125 0
M  V30 21 H 2.4118 -2.4394 0.7417 0
M  V30 22 H 2.6504 -1.2703 2.1073 0
M  V30 23 H 3.5043 -1.7024 -1.3194 0
M  V30 24 H 4.0376 0.0041 -1.468 0
M  V30 25 H -1.2824 1.4565 -1.1996 0
M  V30 26 H -2.1447 1.1207 1.9772 0
M  V30 27 H -1.2677 -0.359 2.3321 0
M  V30 28 H -1.5476 -2.4289 0.7922 0
M  V30 29 H 5.2981 -0.2366 0.3412 0
M  V30 30 H -1.7172 3.8582 -0.4782 0
M  V30 31 H -2.6233 2.6413 0.4306 0
M  V30 32 H -1.1552 3.4072 1.1765 0
M  V30 33 H 0.3048 3.526 -1.4616 0
M  V30 34 H 0.983 1.9291 -1.7632 0
M  V30 35 H 1.3101 2.7608 -0.1812 0
M  V30 36 H -3.402 -0.8768 1.2195 0
M  V30 37 H -2.9718 0.1341 -0.1962 0
M  V30 38 H -2.2608 -3.3777 -1.3868 0
M  V30 39 H -3.0935 -1.8307 -1.8107 0
M  V30 40 H -3.6746 -2.8271 -0.4195 0
M  V30 END ATOM
M  V30 BEGIN BOND
M  V30 1 1 1 2
M  V30 2 1 1 3
M  V30 3 1 2 4
M  V30 4 1 2 5
M  V30 5 1 2 6
M  V30 6 1 3 7
M  V30 7 1 3 8
M  V30 8 1 5 9
M  V30 9 1 5 10
M  V30 10 1 6 11
M  V30 11 1 8 12
M  V30 12 1 9 13
M  V30 13 1 9 14
M  V30 14 1 10 15
M  V30 15 1 11 16
M  V30 16 1 4 7
M  V30 17 1 11 15
M  V30 18 1 3 17
M  V30 19 1 5 18
M  V30 20 1 6 19
M  V30 21 1 6 20
M  V30 22 1 7 21
M  V30 23 1 7 22
M  V30 24 1 8 23
M  V30 25 1 8 24
M  V30 26 1 9 25
M  V30 27 1 10 26
M  V30 28 1 10 27
M  V30 29 1 11 28
M  V30 30 1 12 29
M  V30 31 1 13 30
M  V30 32 1 13 31
M  V30 33 1 13 32
M  V30 34 1 14 33
M  V30 35 1 14 34
M  V30 36 1 14 35
M  V30 37 1 15 36
M  V30 38 1 15 37
M  V30 39 1 16 38
M  V30 40 1 16 39
M  V30 41 1 16 40
M  V30 END BOND
M  V30 BEGIN COLLECTION
M  V30 MDLV30/STEABS ATOMS=(4 2 3 5 11)
M  V30 END COLLECTION
M  V30 END CTAB
M  END
>  <Structure No>
2452

>  <LogS>
-2.279385535

>  <MMFF94 Energy>
51.848

$$$$
Compound 2453
Actelion Java MolfileCreator 2.0

  0  0  0  0  0  0              0 V3000
M  V30 BEGIN CTAB
M  V30 COUNTS 105 112 0 0 0
M  V30 BEGIN ATOM
M  V30 1 S -6.2163 1.0061 -0.6706 0
M  V30 2 O -6.8251 0.7838 0.6885 0
M  V30 3 O -5.7583 2.4389 -0.7735 0
M  V30 4 O -4.9003 -0.0712 -0.8969 0
M  V30 5 C -7.4141 0.6721 -1.9139 0
M  V30 6 C -3.7467 -0.1098 -0.1007 0
M  V30 7 C -8.1867 -0.4952 -1.841 0
M  V30 8 C -7.5578 1.5384 -3.0073 0
M  V30 9 C -2.9572 -1.2664 -0.1305 0
M  V30 10 C -3.3427 0.968 0.7038 0
M  V30 11 C -9.1211 -0.7863 -2.8472 0
M  V30 12 C -8.4597 1.2306 -4.0309 0
M  V30 13 C -1.7817 -1.346 0.6184 0
M  V30 14 C -2.158 0.8984 1.4404 0
M  V30 15 N -9.8999 -1.9927 -2.8116 0
M  V30 16 C -9.2238 0.063 -3.9591 0
M  V30 17 C -1.3349 -0.252 1.3904 0
M  V30 18 N -10.5673 -2.4046 -1.8017 0
M  V30 19 C -0.0574 -0.379 2.2444 0
M  V30 20 C -10.7045 -1.6824 -0.5664 0
M  V30 21 C 1.0424 -1.154 1.49 0
M  V30 22 C 0.5511 0.9945 2.6115 0
M  V30 23 C -0.4826 -1.0803 3.5537 0
M  V30 24 C -11.4175 -0.4502 -0.4945 0
M  V30 25 C -10.1025 -2.2156 0.5928 0
M  V30 26 C 1.8978 -2.0665 2.141 0
M  V30 27 C 1.2998 -0.8566 0.1323 0
M  V30 28 C -12.1478 0.0887 -1.5875 0
M  V30 29 C -11.4065 0.2731 0.7305 0
M  V30 30 N -9.4109 -3.4736 0.5588 0
M  V30 31 C -10.1328 -1.4929 1.7876 0
M  V30 32 C 2.9319 -2.6976 1.4483 0
M  V30 33 C 2.3329 -1.4974 -0.5589 0
M  V30 34 O -12.3039 -0.6083 -2.7797 0 CHG=-1
M  V30 35 C -12.7756 1.3311 -1.4721 0
M  V30 36 C -12.0404 1.5213 0.8217 0
M  V30 37 C -10.7538 -0.2494 1.8545 0
M  V30 38 C 3.1664 -2.4083 0.0972 0
M  V30 39 C -12.7326 2.0474 -0.2737 0
M  V30 40 O 4.2116 -2.9953 -0.6255 0
M  V30 41 S -13.5373 3.6076 -0.1422 0
M  V30 42 S 5.6775 -3.562 0.062 0
M  V30 43 O -14.1142 3.7585 1.2377 0
M  V30 44 O -14.6544 3.6983 -1.146 0
M  V30 45 O -12.4285 4.8372 -0.4262 0 CHG=-1
M  V30 46 O 5.4078 -4.6673 1.0464 0
M  V30 47 O 6.55 -4.1099 -1.0339 0
M  V30 48 C 6.5171 -2.2277 0.8558 0
M  V30 49 C 7.4617 -1.47 0.144 0
M  V30 50 C 6.2363 -1.8989 2.1894 0
M  V30 51 C 8.114 -0.3865 0.7572 0
M  V30 52 C 6.8661 -0.8079 2.7944 0
M  V30 53 N 9.1367 0.351 0.0835 0
M  V30 54 C 7.7948 -0.0473 2.0786 0
M  V30 55 N 9.621 -0.0153 -1.0349 0
M  V30 56 C 10.6758 0.7206 -1.6675 0
M  V30 57 C 11.8325 1.1547 -0.9548 0
M  V30 58 C 10.5118 1.0924 -3.0186 0
M  V30 59 C 12.1855 0.6511 0.3268 0
M  V30 60 C 12.7032 2.0971 -1.5687 0
M  V30 61 N 9.4019 0.6092 -3.7826 0
M  V30 62 C 11.4206 1.9732 -3.6196 0
M  V30 63 O 11.5132 -0.4216 0.9056 0 CHG=-1
M  V30 64 C 13.2702 1.1907 1.0224 0
M  V30 65 C 13.8014 2.6113 -0.863 0
M  V30 66 C 12.4777 2.5043 -2.8892 0
M  V30 67 C 14.0666 2.1831 0.4422 0
M  V30 68 S 15.4585 2.837 1.3016 0
M  V30 69 O 16.7245 2.3188 0.6807 0
M  V30 70 O 15.4215 2.4293 2.7458 0
M  V30 71 O 15.4321 4.5165 1.2063 0 CHG=-1
M  V30 72 H -8.0421 -1.1848 -1.0198 0
M  V30 73 H -6.9597 2.438 -3.0798 0
M  V30 74 H -3.2545 -2.1133 -0.7354 0
M  V30 75 H -3.932 1.8697 0.7717 0
M  V30 76 H -8.5615 1.8989 -4.8754 0
M  V30 77 H -1.2124 -2.2662 0.6009 0
M  V30 78 H -1.9037 1.754 2.0548 0
M  V30 79 H -9.9174 -0.1603 -4.7556 0
M  V30 80 H -0.0824 1.549 3.3365 0
M  V30 81 H 0.6832 1.621 1.706 0
M  V30 82 H 1.5447 0.8564 3.0889 0
M  V30 83 H -0.7479 -2.1388 3.3563 0
M  V30 84 H -1.3688 -0.5784 3.9962 0
M  V30 85 H 0.3211 -1.0498 4.3129 0
M  V30 86 H 1.7824 -2.3081 3.184 0
M  V30 87 H 0.7029 -0.1202 -0.3953 0
M  V30 88 H -9.3315 -4.0323 -0.3194 0
M  V30 89 H -8.9594 -3.8619 1.4195 0
M  V30 90 H -9.6478 -1.8855 2.6743 0
M  V30 91 H 3.5286 -3.4189 1.9773 0
M  V30 92 H 2.5117 -1.2548 -1.6003 0
M  V30 93 H -13.3226 1.7236 -2.3214 0
M  V30 94 H -12.028 2.0724 1.7557 0
M  V30 95 H -10.7515 0.2897 2.7971 0
M  V30 96 H 7.6754 -1.7207 -0.8865 0
M  V30 97 H 5.5359 -2.4822 2.7689 0
M  V30 98 H 6.6451 -0.5583 3.8245 0
M  V30 99 H 8.2887 0.7902 2.5594 0
M  V30 100 H 9.2367 0.956 -4.7536 0
M  V30 101 H 8.7335 -0.0932 -3.3961 0
M  V30 102 H 11.2893 2.2795 -4.6491 0
M  V30 103 H 13.5117 0.8038 2.0054 0
M  V30 104 H 14.4584 3.3464 -1.3317 0
M  V30 105 H 13.1402 3.2122 -3.3685 0
M  V30 END ATOM
M  V30 BEGIN BOND
M  V30 1 2 1 2
M  V30 2 2 1 3
M  V30 3 1 1 4
M  V30 4 1 1 5
M  V30 5 1 4 6
M  V30 6 2 5 7
M  V30 7 1 5 8
M  V30 8 2 6 9
M  V30 9 1 6 10
M  V30 10 1 7 11
M  V30 11 2 8 12
M  V30 12 1 9 13
M  V30 13 2 10 14
M  V30 14 1 11 15
M  V30 15 2 11 16
M  V30 16 2 13 17
M  V30 17 2 15 18
M  V30 18 1 17 19
M  V30 19 1 18 20
M  V30 20 1 19 21
M  V30 21 1 19 22
M  V30 22 1 19 23
M  V30 23 1 20 24
M  V30 24 2 20 25
M  V30 25 2 21 26
M  V30 26 1 21 27
M  V30 27 2 24 28
M  V30 28 1 24 29
M  V30 29 1 25 30
M  V30 30 1 25 31
M  V30 31 1 26 32
M  V30 32 2 27 33
M  V30 33 1 28 34
M  V30 34 1 28 35
M  V30 35 2 29 36
M  V30 36 1 29 37
M  V30 37 2 32 38
M  V30 38 2 35 39
M  V30 39 1 38 40
M  V30 40 1 39 41
M  V30 41 1 40 42
M  V30 42 2 41 43
M  V30 43 2 41 44
M  V30 44 1 41 45
M  V30 45 2 42 46
M  V30 46 2 42 47
M  V30 47 1 42 48
M  V30 48 2 48 49
M  V30 49 1 48 50
M  V30 50 1 49 51
M  V30 51 2 50 52
M  V30 52 1 51 53
M  V30 53 2 51 54
M  V30 54 2 53 55
M  V30 55 1 55 56
M  V30 56 1 56 57
M  V30 57 2 56 58
M  V30 58 2 57 59
M  V30 59 1 57 60
M  V30 60 1 58 61
M  V30 61 1 58 62
M  V30 62 1 59 63
M  V30 63 1 59 64
M  V30 64 2 60 65
M  V30 65 1 60 66
M  V30 66 2 64 67
M  V30 67 1 67 68
M  V30 68 2 68 69
M  V30 69 2 68 70
M  V30 70 1 68 71
M  V30 71 1 12 16
M  V30 72 1 14 17
M  V30 73 2 31 37
M  V30 74 1 33 38
M  V30 75 1 36 39
M  V30 76 1 52 54
M  V30 77 2 62 66
M  V30 78 1 65 67
M  V30 79 1 7 72
M  V30 80 1 8 73
M  V30 81 1 9 74
M  V30 82 1 10 75
M  V30 83 1 12 76
M  V30 84 1 13 77
M  V30 85 1 14 78
M  V30 86 1 16 79
M  V30 87 1 22 80
M  V30 88 1 22 81
M  V30 89 1 22 82
M  V30 90 1 23 83
M  V30 91 1 23 84
M  V30 92 1 23 85
M  V30 93 1 26 86
M  V30 94 1 27 87
M  V30 95 1 30 88
M  V30 96 1 30 89
M  V30 97 1 31 90
M  V30 98 1 32 91
M  V30 99 1 33 92
M  V30 100 1 35 93
M  V30 101 1 36 94
M  V30 102 1 37 95
M  V30 103 1 49 96
M  V30 104 1 50 97
M  V30 105 1 52 98
M  V30 106 1 54 99
M  V30 107 1 61 100
M  V30 108 1 61 101
M  V30 109 1 62 102
M  V30 110 1 64 103
M  V30 111 1 65 104
M  V30 112 1 66 105
M  V30 END BOND
M  V30 END CTAB
M  END
>  <Structure No>
2453

>  <LogS>
-2.956287317

>  <MMFF94 Energy>
482.97

$$$$
Compound 2454
Actelion Java MolfileCreator 2.0

  0  0  0  0  0  0              0 V3000
M  V30 BEGIN CTAB
M  V30 COUNTS 24 24 0 0 0
M  V30 BEGIN ATOM
M  V30 1 O -0.9439 -0.3932 -2.44 0
M  V30 2 C -0.8818 0.3289 -1.4074 0
M  V30 3 O -1.8374 0.21 -0.3943 0
M  V30 4 C 0.2516 1.288 -1.2378 0
M  V30 5 C -2.9232 -0.7076 -0.4671 0
M  V30 6 C 1.3408 0.6553 -0.4173 0
M  V30 7 C -3.7693 -0.5958 0.7909 0
M  V30 8 C 1.313 0.7418 0.985 0
M  V30 9 C 2.365 -0.0765 -1.0417 0
M  V30 10 C 2.3085 0.1241 1.7486 0
M  V30 11 C 3.3586 -0.6923 -0.2742 0
M  V30 12 C 3.3316 -0.5905 1.1194 0
M  V30 13 H -0.1189 2.2095 -0.7387 0
M  V30 14 H 0.6437 1.5911 -2.2334 0
M  V30 15 H -3.5514 -0.4763 -1.3547 0
M  V30 16 H -2.5328 -1.7447 -0.5557 0
M  V30 17 H -4.6168 -1.3113 0.7378 0
M  V30 18 H -3.1531 -0.8312 1.6844 0
M  V30 19 H -4.1722 0.4349 0.8867 0
M  V30 20 H 0.5203 1.2847 1.4853 0
M  V30 21 H 2.3922 -0.1709 -2.1203 0
M  V30 22 H 2.2848 0.1967 2.8283 0
M  V30 23 H 4.1478 -1.2517 -0.7599 0
M  V30 24 H 4.1006 -1.0691 1.712 0
M  V30 END ATOM
M  V30 BEGIN BOND
M  V30 1 2 1 2
M  V30 2 1 2 3
M  V30 3 1 2 4
M  V30 4 1 3 5
M  V30 5 1 4 6
M  V30 6 1 5 7
M  V30 7 2 6 8
M  V30 8 1 6 9
M  V30 9 1 8 10
M  V30 10 2 9 11
M  V30 11 2 10 12
M  V30 12 1 11 12
M  V30 13 1 4 13
M  V30 14 1 4 14
M  V30 15 1 5 15
M  V30 16 1 5 16
M  V30 17 1 7 17
M  V30 18 1 7 18
M  V30 19 1 7 19
M  V30 20 1 8 20
M  V30 21 1 9 21
M  V30 22 1 10 22
M  V30 23 1 11 23
M  V30 24 1 12 24
M  V30 END BOND
M  V30 END CTAB
M  END
>  <Structure No>
2454

>  <LogS>
-2.136202486

>  <MMFF94 Energy>
26.775

$$$$
Compound 2455
Actelion Java MolfileCreator 2.0

  0  0  0  0  0  0              0 V3000
M  V30 BEGIN CTAB
M  V30 COUNTS 3 2 0 0 0
M  V30 BEGIN ATOM
M  V30 1 O 0 0 0 0 CHG=-1
M  V30 2 N 0 0 0 0 CHG=1
M  V30 3 N 0 0 0 0
M  V30 END ATOM
M  V30 BEGIN BOND
M  V30 1 1 1 2
M  V30 2 3 2 3
M  V30 END BOND
M  V30 END CTAB
M  END
>  <Structure No>
2455

>  <LogS>
-1.564399726

>  <MMFF94 Energy>
MMFF94 error code 2

$$$$
Compound 2456
Actelion Java MolfileCreator 2.0

  0  0  0  0  0  0              0 V3000
M  V30 BEGIN CTAB
M  V30 COUNTS 59 62 0 0 0
M  V30 BEGIN ATOM
M  V30 1 S -0.8304 -3.2417 2.6592 0
M  V30 2 O -1.5503 -3.6 3.9285 0
M  V30 3 O 0.5746 -2.8284 2.9965 0
M  V30 4 O -0.7609 -4.5809 1.6474 0 CHG=-1
M  V30 5 C -1.6866 -1.9231 1.8441 0
M  V30 6 C -2.9584 -2.1126 1.2618 0
M  V30 7 C -1.0675 -0.6761 1.7605 0
M  V30 8 N -3.5578 -3.4177 1.2769 0
M  V30 9 C -3.6065 -1.0245 0.6123 0
M  V30 10 C -1.6506 0.3786 1.0542 0
M  V30 11 C -5.0227 -1.1223 0.1501 0
M  V30 12 C -2.9182 0.2059 0.445 0
M  V30 13 N -0.9672 1.6425 1.0245 0
M  V30 14 O -5.7728 -2.0424 0.5756 0
M  V30 15 C -5.5929 -0.0917 -0.7424 0
M  V30 16 C -3.5234 1.2695 -0.4138 0
M  V30 17 C 0.4181 1.7829 0.6605 0
M  V30 18 C -4.8631 1.0796 -1.0141 0
M  V30 19 C -6.8699 -0.2623 -1.3107 0
M  V30 20 O -2.8825 2.3219 -0.6791 0
M  V30 21 C 1.0486 0.8456 -0.1653 0
M  V30 22 C 1.1419 2.8831 1.1203 0
M  V30 23 C -5.4196 2.0624 -1.8555 0
M  V30 24 C -7.4089 0.7188 -2.1447 0
M  V30 25 C 2.3987 0.9812 -0.5248 0
M  V30 26 C 2.4967 3.0434 0.7975 0
M  V30 27 C -6.685 1.8796 -2.4162 0
M  V30 28 S 3.1093 -0.2872 -1.5501 0
M  V30 29 C 3.1379 2.1042 -0.0543 0
M  V30 30 C 3.2326 4.2356 1.3586 0
M  V30 31 O 3.6874 0.3271 -2.7956 0
M  V30 32 O 2.0432 -1.2634 -1.9658 0
M  V30 33 N 4.3271 -1.155 -0.6608 0
M  V30 34 C 4.6065 2.2879 -0.3776 0
M  V30 35 C 5.0682 -2.0336 -1.5685 0
M  V30 36 C 6.0277 -2.9171 -0.7715 0
M  V30 37 O 6.7192 -3.7812 -1.6314 0
M  V30 38 H -0.1079 -0.5188 2.2368 0
M  V30 39 H -4.1002 -3.7666 0.4568 0
M  V30 40 H -3.3733 -4.0985 2.0448 0
M  V30 41 H -1.4788 2.4794 1.3871 0
M  V30 42 H -7.4498 -1.1558 -1.1146 0
M  V30 43 H 0.4767 0.0062 -0.5357 0
M  V30 44 H 0.6473 3.6087 1.7543 0
M  V30 45 H -4.8787 2.9731 -2.0797 0
M  V30 46 H -8.3893 0.5789 -2.5803 0
M  V30 47 H -7.1052 2.6397 -3.0621 0
M  V30 48 H 4.184 3.9127 1.8315 0
M  V30 49 H 3.4486 4.9593 0.5447 0
M  V30 50 H 2.6364 4.7587 2.1369 0
M  V30 51 H 4.9979 -0.4553 -0.2695 0
M  V30 52 H 4.8286 3.3525 -0.6006 0
M  V30 53 H 4.9368 1.7261 -1.2678 0
M  V30 54 H 5.2183 1.9656 0.4915 0
M  V30 55 H 4.3634 -2.6916 -2.1246 0
M  V30 56 H 5.6492 -1.428 -2.3007 0
M  V30 57 H 6.7447 -2.2878 -0.1958 0
M  V30 58 H 5.4472 -3.5277 -0.0467 0
M  V30 59 H 7.4159 -3.2342 -2.082 0
M  V30 END ATOM
M  V30 BEGIN BOND
M  V30 1 2 1 2
M  V30 2 2 1 3
M  V30 3 1 1 4
M  V30 4 1 1 5
M  V30 5 2 5 6
M  V30 6 1 5 7
M  V30 7 1 6 8
M  V30 8 1 6 9
M  V30 9 2 7 10
M  V30 10 1 9 11
M  V30 11 2 9 12
M  V30 12 1 10 13
M  V30 13 2 11 14
M  V30 14 1 11 15
M  V30 15 1 12 16
M  V30 16 1 13 17
M  V30 17 2 15 18
M  V30 18 1 15 19
M  V30 19 2 16 20
M  V30 20 2 17 21
M  V30 21 1 17 22
M  V30 22 1 18 23
M  V30 23 2 19 24
M  V30 24 1 21 25
M  V30 25 2 22 26
M  V30 26 2 23 27
M  V30 27 1 25 28
M  V30 28 2 25 29
M  V30 29 1 26 30
M  V30 30 2 28 31
M  V30 31 2 28 32
M  V30 32 1 28 33
M  V30 33 1 29 34
M  V30 34 1 33 35
M  V30 35 1 35 36
M  V30 36 1 36 37
M  V30 37 1 10 12
M  V30 38 1 16 18
M  V30 39 1 24 27
M  V30 40 1 26 29
M  V30 41 1 7 38
M  V30 42 1 8 39
M  V30 43 1 8 40
M  V30 44 1 13 41
M  V30 45 1 19 42
M  V30 46 1 21 43
M  V30 47 1 22 44
M  V30 48 1 23 45
M  V30 49 1 24 46
M  V30 50 1 27 47
M  V30 51 1 30 48
M  V30 52 1 30 49
M  V30 53 1 30 50
M  V30 54 1 33 51
M  V30 55 1 34 52
M  V30 56 1 34 53
M  V30 57 1 34 54
M  V30 58 1 35 55
M  V30 59 1 35 56
M  V30 60 1 36 57
M  V30 61 1 36 58
M  V30 62 1 37 59
M  V30 END BOND
M  V30 END CTAB
M  END
>  <Structure No>
2456

>  <LogS>
-2.674843542

>  <MMFF94 Energy>
69.926

$$$$
Compound 2457
Actelion Java MolfileCreator 2.0

  0  0  0  0  0  0              0 V3000
M  V30 BEGIN CTAB
M  V30 COUNTS 23 23 0 0 0
M  V30 BEGIN ATOM
M  V30 1 Cl -3.2078 -0.0801 2.967 0
M  V30 2 C -2.313 -0.3389 1.4801 0
M  V30 3 N -1.1326 -0.9868 1.4317 0
M  V30 4 C -2.6673 0.0733 0.2095 0
M  V30 5 C -0.8003 -0.959 0.1226 0
M  V30 6 N -1.707 -0.3186 -0.642 0
M  V30 7 C -3.8653 0.8197 -0.1996 0
M  V30 8 C 0.4784 -1.5289 -0.4125 0
M  V30 9 O -4.7351 1.1659 0.6418 0
M  V30 10 C 1.5107 -0.4319 -0.7027 0
M  V30 11 C 2.0143 0.2457 0.5798 0
M  V30 12 C 3.086 1.2859 0.2678 0
M  V30 13 H -1.6657 -0.1552 -1.6729 0
M  V30 14 H -4.0042 1.077 -1.2412 0
M  V30 15 H 0.2564 -2.0734 -1.3552 0
M  V30 16 H 0.8964 -2.2645 0.3086 0
M  V30 17 H 2.3727 -0.8971 -1.229 0
M  V30 18 H 1.0674 0.3282 -1.3835 0
M  V30 19 H 2.4429 -0.5179 1.2647 0
M  V30 20 H 1.171 0.7505 1.0986 0
M  V30 21 H 3.9583 0.8058 -0.2243 0
M  V30 22 H 2.6757 2.074 -0.3989 0
M  V30 23 H 3.4281 1.7616 1.2111 0
M  V30 END ATOM
M  V30 BEGIN BOND
M  V30 1 1 1 2
M  V30 2 1 2 3
M  V30 3 2 2 4
M  V30 4 2 3 5
M  V30 5 1 4 6
M  V30 6 1 4 7
M  V30 7 1 5 8
M  V30 8 2 7 9
M  V30 9 1 8 10
M  V30 10 1 10 11
M  V30 11 1 11 12
M  V30 12 1 5 6
M  V30 13 1 6 13
M  V30 14 1 7 14
M  V30 15 1 8 15
M  V30 16 1 8 16
M  V30 17 1 10 17
M  V30 18 1 10 18
M  V30 19 1 11 19
M  V30 20 1 11 20
M  V30 21 1 12 21
M  V30 22 1 12 22
M  V30 23 1 12 23
M  V30 END BOND
M  V30 END CTAB
M  END
>  <Structure No>
2457

>  <LogS>
-2.199127372

>  <MMFF94 Energy>
-20.152

$$$$
Compound 2458
Actelion Java MolfileCreator 2.0

  0  0  0  0  0  0              0 V3000
M  V30 BEGIN CTAB
M  V30 COUNTS 24 23 0 0 0
M  V30 BEGIN ATOM
M  V30 1 O 2.4793 -0.4645 2.6345 0
M  V30 2 C 2.3417 0.3019 1.6424 0
M  V30 3 O 1.7378 -0.1524 0.4671 0
M  V30 4 C 2.7806 1.7233 1.7404 0
M  V30 5 C 1.2655 -1.4879 0.3121 0
M  V30 6 C 0.6446 -1.665 -1.0735 0
M  V30 7 C -0.5131 -0.7279 -1.2869 0
M  V30 8 C -1.6735 -0.8826 -0.6311 0
M  V30 9 C -2.8318 0.0503 -0.8508 0
M  V30 10 C -2.5543 1.4275 -0.2545 0
M  V30 11 H 1.9848 2.3229 2.2294 0
M  V30 12 H 3.7137 1.7943 2.3383 0
M  V30 13 H 2.9727 2.1314 0.726 0
M  V30 14 H 2.1157 -2.1957 0.4204 0
M  V30 15 H 0.5134 -1.7165 1.0988 0
M  V30 16 H 0.3043 -2.7156 -1.2002 0
M  V30 17 H 1.4201 -1.463 -1.8433 0
M  V30 18 H -0.4016 0.0783 -2.0068 0
M  V30 19 H -1.7985 -1.7118 0.06 0
M  V30 20 H -3.7346 -0.3746 -0.3617 0
M  V30 21 H -3.0416 0.1442 -1.9384 0
M  V30 22 H -1.6861 1.9031 -0.7583 0
M  V30 23 H -3.443 2.0784 -0.3942 0
M  V30 24 H -2.3442 1.3408 0.8331 0
M  V30 END ATOM
M  V30 BEGIN BOND
M  V30 1 2 1 2
M  V30 2 1 2 3
M  V30 3 1 2 4
M  V30 4 1 3 5
M  V30 5 1 5 6
M  V30 6 1 6 7
M  V30 7 2 7 8
M  V30 8 1 8 9
M  V30 9 1 9 10
M  V30 10 1 4 11
M  V30 11 1 4 12
M  V30 12 1 4 13
M  V30 13 1 5 14
M  V30 14 1 5 15
M  V30 15 1 6 16
M  V30 16 1 6 17
M  V30 17 1 7 18
M  V30 18 1 8 19
M  V30 19 1 9 20
M  V30 20 1 9 21
M  V30 21 1 10 22
M  V30 22 1 10 23
M  V30 23 1 10 24
M  V30 END BOND
M  V30 END CTAB
M  END
>  <Structure No>
2458

>  <LogS>
-2.111500803

>  <MMFF94 Energy>
2.4329

$$$$
Compound 2459
Actelion Java MolfileCreator 2.0

  0  0  0  0  0  0              0 V3000
M  V30 BEGIN CTAB
M  V30 COUNTS 29 29 0 0 0
M  V30 BEGIN ATOM
M  V30 1 O 2.1335 -0.1579 -1.6591 0
M  V30 2 C 1.7451 -0.1524 -0.4581 0
M  V30 3 N 0.4157 -0.3194 -0.1465 0
M  V30 4 C 2.6965 0.0294 0.546 0
M  V30 5 C 0.0034 -0.2505 1.1691 0
M  V30 6 C -0.5584 -0.5363 -1.2359 0
M  V30 7 C 2.3073 0.0541 1.886 0
M  V30 8 O -1.3492 -0.3363 1.5276 0
M  V30 9 C 0.9444 -0.0793 2.2004 0
M  V30 10 C -1.1776 0.7993 -1.674 0
M  V30 11 C 3.3442 0.2507 2.9617 0
M  V30 12 C 0.4958 -0.0269 3.5745 0
M  V30 13 C -2.1723 0.6387 -2.8334 0
M  V30 14 N 0.137 0.0151 4.6741 0
M  V30 15 C -3.4859 -0.0093 -2.3965 0
M  V30 16 H 3.7395 0.1512 0.2766 0
M  V30 17 H -1.333 -1.2655 -0.9247 0
M  V30 18 H -0.0711 -1.0168 -2.1126 0
M  V30 19 H -2.1169 -0.3675 0.8719 0
M  V30 20 H -1.6774 1.2949 -0.8141 0
M  V30 21 H -0.3581 1.4711 -2.0105 0
M  V30 22 H 3.2945 -0.586 3.6901 0
M  V30 23 H 4.3721 0.2804 2.5416 0
M  V30 24 H 3.1556 1.2082 3.4916 0
M  V30 25 H -1.7151 0.0421 -3.6524 0
M  V30 26 H -2.4019 1.6473 -3.2407 0
M  V30 27 H -3.325 -1.0658 -2.0985 0
M  V30 28 H -4.2033 0.0045 -3.2437 0
M  V30 29 H -3.9324 0.5503 -1.5471 0
M  V30 END ATOM
M  V30 BEGIN BOND
M  V30 1 2 1 2
M  V30 2 1 2 3
M  V30 3 1 2 4
M  V30 4 1 3 5
M  V30 5 1 3 6
M  V30 6 2 4 7
M  V30 7 1 5 8
M  V30 8 2 5 9
M  V30 9 1 6 10
M  V30 10 1 7 11
M  V30 11 1 9 12
M  V30 12 1 10 13
M  V30 13 3 12 14
M  V30 14 1 13 15
M  V30 15 1 7 9
M  V30 16 1 4 16
M  V30 17 1 6 17
M  V30 18 1 6 18
M  V30 19 1 8 19
M  V30 20 1 10 20
M  V30 21 1 10 21
M  V30 22 1 11 22
M  V30 23 1 11 23
M  V30 24 1 11 24
M  V30 25 1 13 25
M  V30 26 1 13 26
M  V30 27 1 15 27
M  V30 28 1 15 28
M  V30 29 1 15 29
M  V30 END BOND
M  V30 END CTAB
M  END
>  <Structure No>
2459

>  <LogS>
-2.272990744

>  <MMFF94 Energy>
-3.3307

$$$$
Compound 2460
Actelion Java MolfileCreator 2.0

  0  0  0  0  0  0              0 V3000
M  V30 BEGIN CTAB
M  V30 COUNTS 26 26 0 0 0
M  V30 BEGIN ATOM
M  V30 1 O 2.8225 -0.9401 -0.6266 0
M  V30 2 C 1.6889 -0.115 -0.6984 0
M  V30 3 C 3.1953 -1.6994 0.5187 0
M  V30 4 C 1.4392 0.5751 -1.8933 0
M  V30 5 C 0.8012 0.0374 0.3853 0
M  V30 6 O 2.3137 0.429 -2.9689 0
M  V30 7 C 0.3158 1.4051 -2.0049 0
M  V30 8 C -0.3213 0.8741 0.2759 0
M  V30 9 C -0.5606 1.5522 -0.9283 0
M  V30 10 C -1.2801 1.0112 1.4319 0
M  V30 11 C -2.2287 -0.1912 1.5378 0
M  V30 12 C -3.2098 -0.2651 0.3682 0
M  V30 13 H 3.3814 -1.024 1.3806 0
M  V30 14 H 2.3968 -2.4293 0.7697 0
M  V30 15 H 4.1283 -2.2564 0.2963 0
M  V30 16 H 0.9729 -0.4898 1.3144 0
M  V30 17 H 2.1614 0.9133 -3.846 0
M  V30 18 H 0.1199 1.9353 -2.9282 0
M  V30 19 H -1.4283 2.1915 -1.0353 0
M  V30 20 H -1.8708 1.9497 1.3438 0
M  V30 21 H -0.6984 1.0903 2.3762 0
M  V30 22 H -1.6442 -1.1353 1.5919 0
M  V30 23 H -2.811 -0.1005 2.4803 0
M  V30 24 H -3.7865 0.6806 0.2858 0
M  V30 25 H -3.9214 -1.101 0.5345 0
M  V30 26 H -2.6688 -0.4512 -0.5833 0
M  V30 END ATOM
M  V30 BEGIN BOND
M  V30 1 1 1 2
M  V30 2 1 1 3
M  V30 3 2 2 4
M  V30 4 1 2 5
M  V30 5 1 4 6
M  V30 6 1 4 7
M  V30 7 2 5 8
M  V30 8 2 7 9
M  V30 9 1 8 10
M  V30 10 1 10 11
M  V30 11 1 11 12
M  V30 12 1 8 9
M  V30 13 1 3 13
M  V30 14 1 3 14
M  V30 15 1 3 15
M  V30 16 1 5 16
M  V30 17 1 6 17
M  V30 18 1 7 18
M  V30 19 1 9 19
M  V30 20 1 10 20
M  V30 21 1 10 21
M  V30 22 1 11 22
M  V30 23 1 11 23
M  V30 24 1 12 24
M  V30 25 1 12 25
M  V30 26 1 12 26
M  V30 END BOND
M  V30 END CTAB
M  END
>  <Structure No>
2460

>  <LogS>
-2.179290593

>  <MMFF94 Energy>
20.654

$$$$
Compound 2461
Actelion Java MolfileCreator 2.0

  0  0  0  0  0  0              0 V3000
M  V30 BEGIN CTAB
M  V30 COUNTS 12 11 0 0 0
M  V30 BEGIN ATOM
M  V30 1 Cl -0.2478 -1.2398 1.9015 0
M  V30 2 C -0.4593 0.0922 0.7298 0 CFG=1
M  V30 3 C 0.885 0.6176 0.2883 0
M  V30 4 C -1.3165 -0.3774 -0.4509 0
M  V30 5 C 1.8 -0.1536 -0.3096 0
M  V30 6 Cl -1.6904 0.9759 -1.5529 0
M  V30 7 H -1.0012 0.9083 1.2548 0
M  V30 8 H 1.1196 1.6625 0.4692 0
M  V30 9 H -2.2774 -0.7848 -0.0709 0
M  V30 10 H -0.801 -1.1798 -1.0196 0
M  V30 11 H 1.6099 -1.2049 -0.5017 0
M  V30 12 H 2.7538 0.269 -0.6076 0
M  V30 END ATOM
M  V30 BEGIN BOND
M  V30 1 1 1 2
M  V30 2 1 2 3
M  V30 3 1 2 4
M  V30 4 2 3 5
M  V30 5 1 4 6
M  V30 6 1 2 7
M  V30 7 1 3 8
M  V30 8 1 4 9
M  V30 9 1 4 10
M  V30 10 1 5 11
M  V30 11 1 5 12
M  V30 END BOND
M  V30 BEGIN COLLECTION
M  V30 MDLV30/STEABS ATOMS=(1 2)
M  V30 END COLLECTION
M  V30 END CTAB
M  END
>  <Structure No>
2461

>  <LogS>
-2.055510379

>  <MMFF94 Energy>
26.456

$$$$
Compound 2462
Actelion Java MolfileCreator 2.0

  0  0  0  0  0  0              0 V3000
M  V30 BEGIN CTAB
M  V30 COUNTS 37 37 0 0 0
M  V30 BEGIN ATOM
M  V30 1 O -3.1423 -1.256 -1.8844 0
M  V30 2 C -3.5568 -0.7044 -0.8302 0
M  V30 3 N -3.0069 0.4914 -0.3126 0
M  V30 4 C -4.6478 -1.245 0.0029 0
M  V30 5 C -3.6676 0.8342 0.9345 0
M  V30 6 C -1.8595 1.2096 -0.8706 0
M  V30 7 C -4.8136 -0.1831 1.1017 0
M  V30 8 C -0.5729 0.9156 -0.0879 0
M  V30 9 C -0.1626 -0.5631 -0.1794 0
M  V30 10 C 1.1171 -0.8718 0.6138 0
M  V30 11 C 2.383 -0.3328 -0.0695 0
M  V30 12 C 3.6438 -0.7653 0.6937 0
M  V30 13 C 4.9388 -0.3408 -0.0158 0
M  V30 14 C 5.1796 1.1674 0.0439 0
M  V30 15 H -5.578 -1.3564 -0.5944 0
M  V30 16 H -4.3433 -2.2212 0.4374 0
M  V30 17 H -4.0626 1.8719 0.8857 0
M  V30 18 H -2.9512 0.7442 1.7788 0
M  V30 19 H -1.7195 0.9421 -1.9404 0
M  V30 20 H -2.0635 2.3012 -0.8298 0
M  V30 21 H -5.7926 0.331 0.9826 0
M  V30 22 H -4.7779 -0.6524 2.109 0
M  V30 23 H 0.2303 1.5529 -0.5125 0
M  V30 24 H -0.7088 1.2058 0.9759 0
M  V30 25 H -0.9774 -1.1889 0.2435 0
M  V30 26 H -0.0288 -0.8567 -1.2435 0
M  V30 27 H 1.034 -0.4551 1.6418 0
M  V30 28 H 1.2032 -1.9768 0.7054 0
M  V30 29 H 2.4327 -0.7189 -1.1113 0
M  V30 30 H 2.3396 0.7746 -0.1013 0
M  V30 31 H 3.6248 -0.3475 1.7243 0
M  V30 32 H 3.6497 -1.874 0.7801 0
M  V30 33 H 5.7934 -0.8489 0.4812 0
M  V30 34 H 4.9214 -0.6738 -1.0763 0
M  V30 35 H 5.1448 1.5257 1.0947 0
M  V30 36 H 6.1823 1.3971 -0.3739 0
M  V30 37 H 4.4229 1.7112 -0.5583 0
M  V30 END ATOM
M  V30 BEGIN BOND
M  V30 1 2 1 2
M  V30 2 1 2 3
M  V30 3 1 2 4
M  V30 4 1 3 5
M  V30 5 1 3 6
M  V30 6 1 4 7
M  V30 7 1 6 8
M  V30 8 1 8 9
M  V30 9 1 9 10
M  V30 10 1 10 11
M  V30 11 1 11 12
M  V30 12 1 12 13
M  V30 13 1 13 14
M  V30 14 1 5 7
M  V30 15 1 4 15
M  V30 16 1 4 16
M  V30 17 1 5 17
M  V30 18 1 5 18
M  V30 19 1 6 19
M  V30 20 1 6 20
M  V30 21 1 7 21
M  V30 22 1 7 22
M  V30 23 1 8 23
M  V30 24 1 8 24
M  V30 25 1 9 25
M  V30 26 1 9 26
M  V30 27 1 10 27
M  V30 28 1 10 28
M  V30 29 1 11 29
M  V30 30 1 11 30
M  V30 31 1 12 31
M  V30 32 1 12 32
M  V30 33 1 13 33
M  V30 34 1 13 34
M  V30 35 1 14 35
M  V30 36 1 14 36
M  V30 37 1 14 37
M  V30 END BOND
M  V30 END CTAB
M  END
>  <Structure No>
2462

>  <LogS>
-2.257749011

>  <MMFF94 Energy>
-18.824

$$$$
Compound 2463
Actelion Java MolfileCreator 2.0

  0  0  0  0  0  0              0 V3000
M  V30 BEGIN CTAB
M  V30 COUNTS 27 26 0 0 0
M  V30 BEGIN ATOM
M  V30 1 O 2.3226 -1.9352 1.7028 0
M  V30 2 N 1.4144 -0.9006 1.5874 0
M  V30 3 C 1.2369 -0.173 0.5203 0
M  V30 4 C 0.196 0.9167 0.5649 0
M  V30 5 C 2.0495 -0.3722 -0.7382 0
M  V30 6 C -1.2395 0.3512 0.657 0 CFG=2
M  V30 7 C 3.4383 0.2449 -0.5991 0
M  V30 8 C -1.6213 -0.3996 -0.6425 0
M  V30 9 C -2.2227 1.4966 0.9494 0
M  V30 10 C -2.9498 -1.149 -0.5309 0
M  V30 11 H 2.9268 -2.2261 0.9459 0
M  V30 12 H 0.2784 1.5773 -0.3261 0
M  V30 13 H 0.4095 1.5508 1.4533 0
M  V30 14 H 2.1228 -1.4503 -0.9911 0
M  V30 15 H 1.5403 0.1112 -1.5997 0
M  V30 16 H -1.2838 -0.3591 1.513 0
M  V30 17 H 4.0115 0.0834 -1.5361 0
M  V30 18 H 3.3534 1.338 -0.4192 0
M  V30 19 H 3.9971 -0.2167 0.2412 0
M  V30 20 H -0.8393 -1.152 -0.8802 0
M  V30 21 H -1.6717 0.3117 -1.4956 0
M  V30 22 H -3.2382 1.1006 1.1565 0
M  V30 23 H -1.9023 2.0598 1.8519 0
M  V30 24 H -2.2737 2.1994 0.0903 0
M  V30 25 H -2.9544 -1.8024 0.3671 0
M  V30 26 H -3.0906 -1.7852 -1.4301 0
M  V30 27 H -3.8007 -0.4389 -0.4795 0
M  V30 END ATOM
M  V30 BEGIN BOND
M  V30 1 1 1 2
M  V30 2 2 2 3
M  V30 3 1 3 4
M  V30 4 1 3 5
M  V30 5 1 4 6
M  V30 6 1 5 7
M  V30 7 1 6 8
M  V30 8 1 6 9
M  V30 9 1 8 10
M  V30 10 1 1 11
M  V30 11 1 4 12
M  V30 12 1 4 13
M  V30 13 1 5 14
M  V30 14 1 5 15
M  V30 15 1 6 16
M  V30 16 1 7 17
M  V30 17 1 7 18
M  V30 18 1 7 19
M  V30 19 1 8 20
M  V30 20 1 8 21
M  V30 21 1 9 22
M  V30 22 1 9 23
M  V30 23 1 9 24
M  V30 24 1 10 25
M  V30 25 1 10 26
M  V30 26 1 10 27
M  V30 END BOND
M  V30 BEGIN COLLECTION
M  V30 MDLV30/STEABS ATOMS=(1 6)
M  V30 END COLLECTION
M  V30 END CTAB
M  END
>  <Structure No>
2463

>  <LogS>
-2.130728127

>  <MMFF94 Energy>
23.376

$$$$
Compound 2464
Actelion Java MolfileCreator 2.0

  0  0  0  0  0  0              0 V3000
M  V30 BEGIN CTAB
M  V30 COUNTS 40 42 0 0 0
M  V30 BEGIN ATOM
M  V30 1 O 2.1514 0.7964 -1.5136 0
M  V30 2 C 1.4795 0.3924 -0.3742 0
M  V30 3 C 1.3316 0.8159 -2.6607 0
M  V30 4 N 2.1159 0.1953 0.7607 0 CHG=1
M  V30 5 C -0.0015 0.1997 -0.6427 0
M  V30 6 C -0.0946 0.5554 -2.1634 0
M  V30 7 C 1.4612 -0.3471 1.961 0
M  V30 8 C 3.5564 0.4818 0.8176 0
M  V30 9 C -0.3673 -1.2812 -0.4026 0
M  V30 10 C -0.9041 1.2056 0.1029 0
M  V30 11 C 0.2206 -2.2869 -1.2036 0
M  V30 12 C -1.2 -1.694 0.6652 0
M  V30 13 C -2.3051 1.1261 -0.0611 0
M  V30 14 C -0.3841 2.3117 0.8159 0
M  V30 15 C -0.0616 -3.6378 -0.9863 0
M  V30 16 C -1.4779 -3.0473 0.8766 0
M  V30 17 C -3.1537 2.0596 0.5393 0
M  V30 18 C -1.2388 3.2417 1.4148 0
M  V30 19 C -0.916 -4.0173 0.0477 0
M  V30 20 C -2.6213 3.1114 1.2843 0
M  V30 21 H 1.6541 0.0133 -3.3576 0
M  V30 22 H 1.412 1.8026 -3.1649 0
M  V30 23 H -0.6924 1.4772 -2.3466 0
M  V30 24 H -0.5776 -0.2451 -2.7651 0
M  V30 25 H 0.5125 0.1784 2.179 0
M  V30 26 H 1.2755 -1.4323 1.8286 0
M  V30 27 H 2.0988 -0.2278 2.8618 0
M  V30 28 H 4.0958 -0.1298 0.0626 0
M  V30 29 H 3.7353 1.5594 0.6136 0
M  V30 30 H 3.9901 0.2446 1.8118 0
M  V30 31 H 0.909 -2.0282 -1.9971 0
M  V30 32 H -1.6189 -0.9831 1.3626 0
M  V30 33 H -2.741 0.3355 -0.6592 0
M  V30 34 H 0.6801 2.4704 0.9148 0
M  V30 35 H 0.3907 -4.3924 -1.6166 0
M  V30 36 H -2.1209 -3.3449 1.6949 0
M  V30 37 H -4.2256 1.9724 0.4175 0
M  V30 38 H -0.8265 4.0729 1.9723 0
M  V30 39 H -1.1302 -5.0646 0.2169 0
M  V30 40 H -3.2797 3.8358 1.746 0
M  V30 END ATOM
M  V30 BEGIN BOND
M  V30 1 1 1 2
M  V30 2 1 1 3
M  V30 3 2 2 4
M  V30 4 1 2 5
M  V30 5 1 3 6
M  V30 6 1 4 7
M  V30 7 1 4 8
M  V30 8 1 5 9
M  V30 9 1 5 10
M  V30 10 2 9 11
M  V30 11 1 9 12
M  V30 12 2 10 13
M  V30 13 1 10 14
M  V30 14 1 11 15
M  V30 15 2 12 16
M  V30 16 1 13 17
M  V30 17 2 14 18
M  V30 18 2 15 19
M  V30 19 2 17 20
M  V30 20 1 5 6
M  V30 21 1 16 19
M  V30 22 1 18 20
M  V30 23 1 3 21
M  V30 24 1 3 22
M  V30 25 1 6 23
M  V30 26 1 6 24
M  V30 27 1 7 25
M  V30 28 1 7 26
M  V30 29 1 7 27
M  V30 30 1 8 28
M  V30 31 1 8 29
M  V30 32 1 8 30
M  V30 33 1 11 31
M  V30 34 1 12 32
M  V30 35 1 13 33
M  V30 36 1 14 34
M  V30 37 1 15 35
M  V30 38 1 16 36
M  V30 39 1 17 37
M  V30 40 1 18 38
M  V30 41 1 19 39
M  V30 42 1 20 40
M  V30 END BOND
M  V30 END CTAB
M  END
>  <Structure No>
2464

>  <LogS>
-2.526575134

>  <MMFF94 Energy>
89.638

$$$$
Compound 2465
Actelion Java MolfileCreator 2.0

  0  0  0  0  0  0              0 V3000
M  V30 BEGIN CTAB
M  V30 COUNTS 27 27 0 0 0
M  V30 BEGIN ATOM
M  V30 1 O 4.7267 -0.5505 -0.7865 0
M  V30 2 C 4.1396 0.0143 0.1228 0
M  V30 3 C 2.6537 0.2517 0.0358 0 CFG=1
M  V30 4 C 1.9023 -1.0959 0.0734 0
M  V30 5 C 2.2031 1.1824 1.1711 0
M  V30 6 C 0.4276 -0.9304 -0.1965 0
M  V30 7 C -0.4964 -0.9425 0.86 0
M  V30 8 C -0.0315 -0.7308 -1.5074 0
M  V30 9 C -1.8603 -0.7664 0.6085 0
M  V30 10 C -1.3952 -0.5554 -1.7583 0
M  V30 11 C -2.3202 -0.5717 -0.7079 0
M  V30 12 O -3.6776 -0.3905 -1.0119 0
M  V30 13 C -4.7236 -0.3831 -0.0458 0
M  V30 14 H 4.7063 0.3537 0.985 0
M  V30 15 H 2.4468 0.761 -0.9314 0
M  V30 16 H 2.0636 -1.5908 1.0572 0
M  V30 17 H 2.3224 -1.7786 -0.6978 0
M  V30 18 H 2.791 2.1252 1.1489 0
M  V30 19 H 1.1327 1.4513 1.0516 0
M  V30 20 H 2.3447 0.6941 2.1594 0
M  V30 21 H -0.1604 -1.083 1.88 0
M  V30 22 H 0.6675 -0.7096 -2.3343 0
M  V30 23 H -2.5474 -0.7811 1.4435 0
M  V30 24 H -1.7357 -0.4039 -2.7749 0
M  V30 25 H -4.7612 -1.3585 0.4837 0
M  V30 26 H -4.5659 0.4412 0.6814 0
M  V30 27 H -5.6923 -0.2213 -0.5614 0
M  V30 END ATOM
M  V30 BEGIN BOND
M  V30 1 2 1 2
M  V30 2 1 2 3
M  V30 3 1 3 4
M  V30 4 1 3 5
M  V30 5 1 4 6
M  V30 6 2 6 7
M  V30 7 1 6 8
M  V30 8 1 7 9
M  V30 9 2 8 10
M  V30 10 2 9 11
M  V30 11 1 11 12
M  V30 12 1 12 13
M  V30 13 1 10 11
M  V30 14 1 2 14
M  V30 15 1 3 15
M  V30 16 1 4 16
M  V30 17 1 4 17
M  V30 18 1 5 18
M  V30 19 1 5 19
M  V30 20 1 5 20
M  V30 21 1 7 21
M  V30 22 1 8 22
M  V30 23 1 9 23
M  V30 24 1 10 24
M  V30 25 1 13 25
M  V30 26 1 13 26
M  V30 27 1 13 27
M  V30 END BOND
M  V30 BEGIN COLLECTION
M  V30 MDLV30/STEABS ATOMS=(1 3)
M  V30 END COLLECTION
M  V30 END CTAB
M  END
>  <Structure No>
2465

>  <LogS>
-2.24666187

>  <MMFF94 Energy>
24.809

$$$$
Compound 2466
Actelion Java MolfileCreator 2.0

  0  0  0  0  0  0              0 V3000
M  V30 BEGIN CTAB
M  V30 COUNTS 34 33 0 0 0
M  V30 BEGIN ATOM
M  V30 1 O 3.2684 -0.3886 0.2331 0
M  V30 2 C 2.5329 0.0983 -0.6678 0
M  V30 3 N 1.123 -0.1914 -0.7022 0
M  V30 4 C 3.1181 0.9671 -1.7069 0
M  V30 5 C 0.3908 -1.0019 0.2931 0
M  V30 6 C 4.4146 1.2708 -1.7406 0
M  V30 7 C -1.1547 -0.9391 0.0106 0
M  V30 8 C 0.8295 -2.4738 0.1277 0
M  V30 9 C 0.7214 -0.5525 1.7337 0
M  V30 10 C -1.9777 0.3815 0.2556 0
M  V30 11 C -3.3433 0.2138 -0.4525 0
M  V30 12 C -1.2986 1.6364 -0.329 0
M  V30 13 C -2.2685 0.6109 1.7582 0
M  V30 14 H 0.6152 0.1079 -1.5642 0
M  V30 15 H 2.4701 1.377 -2.4718 0
M  V30 16 H 5.1057 0.8893 -0.9995 0
M  V30 17 H 4.7975 1.914 -2.5224 0
M  V30 18 H -1.2913 -1.2363 -1.0539 0
M  V30 19 H -1.6498 -1.7482 0.5938 0
M  V30 20 H 0.6075 -2.8308 -0.9011 0
M  V30 21 H 1.9194 -2.5929 0.3005 0
M  V30 22 H 0.2968 -3.1286 0.8513 0
M  V30 23 H -0.0191 -0.9634 2.4522 0
M  V30 24 H 0.7523 0.5529 1.8078 0
M  V30 25 H 1.7126 -0.9266 2.0629 0
M  V30 26 H -3.8873 -0.6686 -0.0505 0
M  V30 27 H -3.2079 0.0698 -1.5464 0
M  V30 28 H -3.9842 1.1109 -0.3074 0
M  V30 29 H -1.1583 1.5352 -1.4257 0
M  V30 30 H -1.931 2.5342 -0.1557 0
M  V30 31 H -0.3184 1.8298 0.1504 0
M  V30 32 H -1.386 0.9947 2.3027 0
M  V30 33 H -2.6149 -0.326 2.2444 0
M  V30 34 H -3.0634 1.3766 1.8921 0
M  V30 END ATOM
M  V30 BEGIN BOND
M  V30 1 2 1 2
M  V30 2 1 2 3
M  V30 3 1 2 4
M  V30 4 1 3 5
M  V30 5 2 4 6
M  V30 6 1 5 7
M  V30 7 1 5 8
M  V30 8 1 5 9
M  V30 9 1 7 10
M  V30 10 1 10 11
M  V30 11 1 10 12
M  V30 12 1 10 13
M  V30 13 1 3 14
M  V30 14 1 4 15
M  V30 15 1 6 16
M  V30 16 1 6 17
M  V30 17 1 7 18
M  V30 18 1 7 19
M  V30 19 1 8 20
M  V30 20 1 8 21
M  V30 21 1 8 22
M  V30 22 1 9 23
M  V30 23 1 9 24
M  V30 24 1 9 25
M  V30 25 1 11 26
M  V30 26 1 11 27
M  V30 27 1 11 28
M  V30 28 1 12 29
M  V30 29 1 12 30
M  V30 30 1 12 31
M  V30 31 1 13 32
M  V30 32 1 13 33
M  V30 33 1 13 34
M  V30 END BOND
M  V30 END CTAB
M  END
>  <Structure No>
2466

>  <LogS>
-2.258829245

>  <MMFF94 Energy>
6.748

$$$$
Compound 2467
Actelion Java MolfileCreator 2.0

  0  0  0  0  0  0              0 V3000
M  V30 BEGIN CTAB
M  V30 COUNTS 8 7 0 0 0
M  V30 BEGIN ATOM
M  V30 1 F 1.1598 0.4969 1.2427 0
M  V30 2 C 0.7564 0.012 0.0121 0
M  V30 3 F 1.2258 0.8486 -0.9838 0
M  V30 4 F 1.2834 -1.2529 -0.172 0
M  V30 5 C -0.7631 -0.0539 -0.0433 0
M  V30 6 F -1.2986 1.2081 0.14 0
M  V30 7 H -1.0879 -0.4466 -1.03 0
M  V30 8 H -1.1409 -0.7284 0.7539 0
M  V30 END ATOM
M  V30 BEGIN BOND
M  V30 1 1 1 2
M  V30 2 1 2 3
M  V30 3 1 2 4
M  V30 4 1 2 5
M  V30 5 1 5 6
M  V30 6 1 5 7
M  V30 7 1 5 8
M  V30 END BOND
M  V30 END CTAB
M  END
>  <Structure No>
2467

>  <LogS>
-2.008727887

>  <MMFF94 Energy>
29.147

$$$$
Compound 2468
Actelion Java MolfileCreator 2.0

  0  0  0  0  0  0              0 V3000
M  V30 BEGIN CTAB
M  V30 COUNTS 20 20 0 0 0
M  V30 BEGIN ATOM
M  V30 1 Cl -2.549 -2.3789 0.4245 0
M  V30 2 C -1.3052 -1.1514 0.2081 0
M  V30 3 C -1.6256 0.2167 0.1586 0
M  V30 4 C 0.0246 -1.5629 0.0844 0
M  V30 5 C -0.5978 1.1557 -0.0143 0
M  V30 6 C -3.0506 0.6796 0.2899 0
M  V30 7 C 1.0558 -0.6275 -0.09 0
M  V30 8 C 0.7397 0.7502 -0.1385 0
M  V30 9 S 2.7202 -1.2067 -0.2453 0
M  V30 10 N 1.7508 1.7535 -0.3102 0
M  V30 11 O 2.7613 -2.7084 -0.2 0
M  V30 12 O 3.5496 -0.6657 0.8848 0
M  V30 13 O 3.358 -0.6978 -1.7139 0 CHG=-1
M  V30 14 H 0.2494 -2.6205 0.1251 0
M  V30 15 H -0.836 2.212 -0.0523 0
M  V30 16 H -3.4606 0.357 1.27 0
M  V30 17 H -3.1308 1.7858 0.2278 0
M  V30 18 H -3.6635 0.2417 -0.5257 0
M  V30 19 H 1.491 2.7645 -0.3485 0
M  V30 20 H 2.7632 1.5225 -0.3957 0
M  V30 END ATOM
M  V30 BEGIN BOND
M  V30 1 1 1 2
M  V30 2 2 2 3
M  V30 3 1 2 4
M  V30 4 1 3 5
M  V30 5 1 3 6
M  V30 6 2 4 7
M  V30 7 2 5 8
M  V30 8 1 7 9
M  V30 9 1 8 10
M  V30 10 2 9 11
M  V30 11 2 9 12
M  V30 12 1 9 13
M  V30 13 1 7 8
M  V30 14 1 4 14
M  V30 15 1 5 15
M  V30 16 1 6 16
M  V30 17 1 6 17
M  V30 18 1 6 18
M  V30 19 1 10 19
M  V30 20 1 10 20
M  V30 END BOND
M  V30 END CTAB
M  END
>  <Structure No>
2468

>  <LogS>
-2.345697125

>  <MMFF94 Energy>
47.434

$$$$
Compound 2469
Actelion Java MolfileCreator 2.0

  0  0  0  0  0  0              0 V3000
M  V30 BEGIN CTAB
M  V30 COUNTS 29 30 0 0 0
M  V30 BEGIN ATOM
M  V30 1 O -2.0738 0.4782 -1.6747 0
M  V30 2 C -1.8389 0.7822 -0.474 0
M  V30 3 O -2.8801 0.906 0.4525 0
M  V30 4 C -0.4308 1.0389 -0.0453 0 CFG=1
M  V30 5 C -4.237 0.5864 0.153 0
M  V30 6 O -0.2085 0.6081 1.2813 0
M  V30 7 C 0.4225 -0.1412 0.2674 0 CFG=2
M  V30 8 C -4.4344 -0.9243 0.1068 0
M  V30 9 C 1.9087 0.0675 0.239 0
M  V30 10 C -0.1242 -1.5686 0.1724 0
M  V30 11 C 2.6707 -0.0733 1.4102 0
M  V30 12 C 2.5524 0.3551 -0.9741 0
M  V30 13 C 4.0583 0.0952 1.3697 0
M  V30 14 C 3.9402 0.5233 -1.0108 0
M  V30 15 C 4.6924 0.3954 0.1606 0
M  V30 16 H 0.0399 2.0266 -0.2355 0
M  V30 17 H -4.884 1.0067 0.9516 0
M  V30 18 H -4.5394 1.0453 -0.8132 0
M  V30 19 H -4.1228 -1.3764 1.0723 0
M  V30 20 H -3.8328 -1.3684 -0.7132 0
M  V30 21 H -5.5056 -1.1559 -0.0705 0
M  V30 22 H -0.0778 -1.9098 -0.8825 0
M  V30 23 H -1.1744 -1.6341 0.529 0
M  V30 24 H 0.4932 -2.248 0.7965 0
M  V30 25 H 2.1904 -0.3141 2.3505 0
M  V30 26 H 1.9792 0.4496 -1.8881 0
M  V30 27 H 4.6422 -0.0096 2.275 0
M  V30 28 H 4.4328 0.75 -1.9474 0
M  V30 29 H 5.7665 0.5248 0.1306 0
M  V30 END ATOM
M  V30 BEGIN BOND
M  V30 1 2 1 2
M  V30 2 1 2 3
M  V30 3 1 2 4
M  V30 4 1 3 5
M  V30 5 1 4 6
M  V30 6 1 4 7
M  V30 7 1 5 8
M  V30 8 1 7 9
M  V30 9 1 7 10
M  V30 10 2 9 11
M  V30 11 1 9 12
M  V30 12 1 11 13
M  V30 13 2 12 14
M  V30 14 2 13 15
M  V30 15 1 6 7
M  V30 16 1 14 15
M  V30 17 1 4 16
M  V30 18 1 5 17
M  V30 19 1 5 18
M  V30 20 1 8 19
M  V30 21 1 8 20
M  V30 22 1 8 21
M  V30 23 1 10 22
M  V30 24 1 10 23
M  V30 25 1 10 24
M  V30 26 1 11 25
M  V30 27 1 12 26
M  V30 28 1 13 27
M  V30 29 1 14 28
M  V30 30 1 15 29
M  V30 END BOND
M  V30 BEGIN COLLECTION
M  V30 MDLV30/STEABS ATOMS=(2 4 7)
M  V30 END COLLECTION
M  V30 END CTAB
M  END
>  <Structure No>
2469

>  <LogS>
-2.314375006

>  <MMFF94 Energy>
23.07

$$$$
Compound 2470
Actelion Java MolfileCreator 2.0

  0  0  0  0  0  0              0 V3000
M  V30 BEGIN CTAB
M  V30 COUNTS 51 54 0 0 0
M  V30 BEGIN ATOM
M  V30 1 S -0.247 -4.0412 1.4831 0
M  V30 2 O 1.1652 -3.8703 1.9687 0
M  V30 3 O -0.2197 -4.8008 0.1867 0
M  V30 4 O -1.1113 -4.9092 2.6326 0 CHG=-1
M  V30 5 C -1.0134 -2.4641 1.2334 0
M  V30 6 C -2.2976 -2.3464 0.6598 0
M  V30 7 C -0.3118 -1.315 1.5968 0
M  V30 8 N -2.9833 -3.5248 0.2084 0
M  V30 9 C -2.8741 -1.0579 0.478 0
M  V30 10 C -0.8259 -0.0405 1.3475 0
M  V30 11 C -4.2982 -0.8904 0.0608 0
M  V30 12 C -2.1047 0.1018 0.7549 0
M  V30 13 N -0.068 1.1013 1.7796 0
M  V30 14 O -5.1041 -1.8577 0.1317 0
M  V30 15 C -4.8072 0.4329 -0.3561 0
M  V30 16 C -2.6397 1.4424 0.3673 0
M  V30 17 C 1.3144 1.3148 1.4411 0
M  V30 18 C -3.9989 1.5737 -0.2023 0
M  V30 19 C -6.102 0.5669 -0.8922 0
M  V30 20 O -1.9225 2.4743 0.4737 0
M  V30 21 C 1.9052 0.6772 0.3339 0
M  V30 22 C 2.0817 2.2052 2.2061 0
M  V30 23 C -4.496 2.8323 -0.5921 0
M  V30 24 C -6.5825 1.8204 -1.2755 0
M  V30 25 C 3.2466 0.9179 1.0E-4 0
M  V30 26 C 3.4237 2.4309 1.893 0
M  V30 27 C -5.7808 2.9514 -1.126 0
M  V30 28 N 3.8275 0.2296 -1.1202 0
M  V30 29 C 4.0087 1.785 0.8018 0
M  V30 30 C 4.8178 0.8015 -1.9891 0
M  V30 31 O 5.0964 2.0296 -1.9264 0
M  V30 32 C 5.5297 -0.0634 -2.9847 0
M  V30 33 C 6.6715 -0.82 -2.3162 0
M  V30 34 H 0.6573 -1.4027 2.0707 0
M  V30 35 H -2.8453 -4.4508 0.6672 0
M  V30 36 H -3.5508 -3.5108 -0.667 0
M  V30 37 H -0.5319 1.7704 2.4353 0
M  V30 38 H -6.742 -0.2972 -1.0191 0
M  V30 39 H 1.3208 0.0105 -0.2869 0
M  V30 40 H 1.6427 2.7133 3.0555 0
M  V30 41 H -3.8934 3.7253 -0.4842 0
M  V30 42 H -7.5783 1.9148 -1.6891 0
M  V30 43 H 4.0142 3.1025 2.5026 0
M  V30 44 H -6.1551 3.9222 -1.4236 0
M  V30 45 H 3.445 -0.7103 -1.37 0
M  V30 46 H 5.0587 1.9482 0.5995 0
M  V30 47 H 4.8146 -0.7886 -3.4287 0
M  V30 48 H 5.9365 0.5633 -3.8079 0
M  V30 49 H 7.1886 -1.4523 -3.0682 0
M  V30 50 H 6.2799 -1.4758 -1.509 0
M  V30 51 H 7.4064 -0.1069 -1.8847 0
M  V30 END ATOM
M  V30 BEGIN BOND
M  V30 1 2 1 2
M  V30 2 2 1 3
M  V30 3 1 1 4
M  V30 4 1 1 5
M  V30 5 2 5 6
M  V30 6 1 5 7
M  V30 7 1 6 8
M  V30 8 1 6 9
M  V30 9 2 7 10
M  V30 10 1 9 11
M  V30 11 2 9 12
M  V30 12 1 10 13
M  V30 13 2 11 14
M  V30 14 1 11 15
M  V30 15 1 12 16
M  V30 16 1 13 17
M  V30 17 2 15 18
M  V30 18 1 15 19
M  V30 19 2 16 20
M  V30 20 2 17 21
M  V30 21 1 17 22
M  V30 22 1 18 23
M  V30 23 2 19 24
M  V30 24 1 21 25
M  V30 25 2 22 26
M  V30 26 2 23 27
M  V30 27 1 25 28
M  V30 28 2 25 29
M  V30 29 1 28 30
M  V30 30 2 30 31
M  V30 31 1 30 32
M  V30 32 1 32 33
M  V30 33 1 10 12
M  V30 34 1 16 18
M  V30 35 1 24 27
M  V30 36 1 26 29
M  V30 37 1 7 34
M  V30 38 1 8 35
M  V30 39 1 8 36
M  V30 40 1 13 37
M  V30 41 1 19 38
M  V30 42 1 21 39
M  V30 43 1 22 40
M  V30 44 1 23 41
M  V30 45 1 24 42
M  V30 46 1 26 43
M  V30 47 1 27 44
M  V30 48 1 28 45
M  V30 49 1 29 46
M  V30 50 1 32 47
M  V30 51 1 32 48
M  V30 52 1 33 49
M  V30 53 1 33 50
M  V30 54 1 33 51
M  V30 END BOND
M  V30 END CTAB
M  END
>  <Structure No>
2470

>  <LogS>
-2.687947003

>  <MMFF94 Energy>
106.7

$$$$
Compound 2471
Actelion Java MolfileCreator 2.0

  0  0  0  0  0  0              0 V3000
M  V30 BEGIN CTAB
M  V30 COUNTS 17 17 0 0 0
M  V30 BEGIN ATOM
M  V30 1 Cl 3.6629 1.2476 -0.0831 0
M  V30 2 C 2.0996 0.4598 0.0364 0
M  V30 3 C 0.9421 1.1406 -0.35 0
M  V30 4 C 2.0141 -0.8457 0.5172 0
M  V30 5 C -0.3232 0.5232 -0.2608 0
M  V30 6 C 0.7733 -1.4747 0.6133 0
M  V30 7 C -0.4014 -0.8078 0.2303 0
M  V30 8 C -1.5648 1.2814 -0.6858 0
M  V30 9 N -1.6526 -1.5012 0.3496 0
M  V30 10 F -2.1935 0.6052 -1.7159 0
M  V30 11 F -2.431 1.395 0.3867 0
M  V30 12 F -1.2638 2.5574 -1.1311 0
M  V30 13 H 1.0412 2.1533 -0.7191 0
M  V30 14 H 2.9093 -1.3755 0.8174 0
M  V30 15 H 0.726 -2.4892 0.9892 0
M  V30 16 H -2.5638 -1.0702 0.0848 0
M  V30 17 H -1.6809 -2.4797 0.7139 0
M  V30 END ATOM
M  V30 BEGIN BOND
M  V30 1 1 1 2
M  V30 2 2 2 3
M  V30 3 1 2 4
M  V30 4 1 3 5
M  V30 5 2 4 6
M  V30 6 2 5 7
M  V30 7 1 5 8
M  V30 8 1 7 9
M  V30 9 1 8 10
M  V30 10 1 8 11
M  V30 11 1 8 12
M  V30 12 1 6 7
M  V30 13 1 3 13
M  V30 14 1 4 14
M  V30 15 1 6 15
M  V30 16 1 9 16
M  V30 17 1 9 17
M  V30 END BOND
M  V30 END CTAB
M  END
>  <Structure No>
2471

>  <LogS>
-2.293481376

>  <MMFF94 Energy>
30.133

$$$$
Compound 2472
Actelion Java MolfileCreator 2.0

  0  0  0  0  0  0              0 V3000
M  V30 BEGIN CTAB
M  V30 COUNTS 25 25 0 0 0
M  V30 BEGIN ATOM
M  V30 1 O 0.1567 2.3532 0.2351 0
M  V30 2 C 0.9581 1.2189 0.1175 0
M  V30 3 C 0.3838 -0.0781 -0.0195 0
M  V30 4 C 2.3516 1.3821 0.1372 0
M  V30 5 C 1.2767 -1.1758 -0.1331 0
M  V30 6 C -1.155 -0.2795 -0.0434 0
M  V30 7 C 3.1969 0.2832 0.0234 0
M  V30 8 C 2.6603 -0.9918 -0.1112 0
M  V30 9 C -1.7712 0.4866 -1.2361 0
M  V30 10 C -1.7758 0.2226 1.2801 0
M  V30 11 C -1.5678 -1.7657 -0.2 0
M  V30 12 H 0.5519 3.2812 0.3332 0
M  V30 13 H 2.7823 2.37 0.2417 0
M  V30 14 H 0.9305 -2.1918 -0.2402 0
M  V30 15 H 4.2703 0.4207 0.0399 0
M  V30 16 H 3.3199 -1.8457 -0.1996 0
M  V30 17 H -1.2806 0.1807 -2.1852 0
M  V30 18 H -2.8589 0.2729 -1.3223 0
M  V30 19 H -1.6705 1.5841 -1.13 0
M  V30 20 H -2.8637 -0.0039 1.3164 0
M  V30 21 H -1.2884 -0.2738 2.1469 0
M  V30 22 H -1.6751 1.3182 1.4046 0
M  V30 23 H -1.1902 -2.375 0.6494 0
M  V30 24 H -2.6747 -1.8714 -0.2131 0
M  V30 25 H -1.187 -2.1855 -1.1562 0
M  V30 END ATOM
M  V30 BEGIN BOND
M  V30 1 1 1 2
M  V30 2 2 2 3
M  V30 3 1 2 4
M  V30 4 1 3 5
M  V30 5 1 3 6
M  V30 6 2 4 7
M  V30 7 2 5 8
M  V30 8 1 6 9
M  V30 9 1 6 10
M  V30 10 1 6 11
M  V30 11 1 7 8
M  V30 12 1 1 12
M  V30 13 1 4 13
M  V30 14 1 5 14
M  V30 15 1 7 15
M  V30 16 1 8 16
M  V30 17 1 9 17
M  V30 18 1 9 18
M  V30 19 1 9 19
M  V30 20 1 10 20
M  V30 21 1 10 21
M  V30 22 1 10 22
M  V30 23 1 11 23
M  V30 24 1 11 24
M  V30 25 1 11 25
M  V30 END BOND
M  V30 END CTAB
M  END
>  <Structure No>
2472

>  <LogS>
-2.189958914

>  <MMFF94 Energy>
29.252

$$$$
Compound 2473
Actelion Java MolfileCreator 2.0

  0  0  0  0  0  0              0 V3000
M  V30 BEGIN CTAB
M  V30 COUNTS 31 30 0 0 0
M  V30 BEGIN ATOM
M  V30 1 O 3.7135 -0.309 -1.0819 0
M  V30 2 C 2.6216 0.2932 -0.4253 0
M  V30 3 C 1.3893 -0.6169 -0.6778 0
M  V30 4 C 2.9359 0.3932 1.0827 0
M  V30 5 C 2.3982 1.7033 -1.0131 0
M  V30 6 C 0.0714 -0.1431 -0.035 0
M  V30 7 C -1.0748 -1.1139 -0.3614 0
M  V30 8 C -2.3977 -0.7 0.3145 0 CFG=1
M  V30 9 C -2.9127 0.597 -0.2657 0
M  V30 10 C -3.4565 -1.7911 0.1295 0
M  V30 11 C -3.0365 1.7034 0.4734 0
M  V30 12 H 4.5185 0.2543 -0.9355 0
M  V30 13 H 1.2356 -0.7077 -1.7761 0
M  V30 14 H 1.621 -1.6379 -0.3008 0
M  V30 15 H 3.0345 -0.6206 1.5258 0
M  V30 16 H 3.8915 0.9364 1.2442 0
M  V30 17 H 2.1432 0.949 1.6256 0
M  V30 18 H 2.1058 1.6352 -2.0826 0
M  V30 19 H 1.611 2.254 -0.4576 0
M  V30 20 H 3.3312 2.3029 -0.9466 0
M  V30 21 H 0.1852 -0.0896 1.0678 0
M  V30 22 H -0.192 0.8635 -0.4188 0
M  V30 23 H -0.7898 -2.1285 -0.0046 0
M  V30 24 H -1.2165 -1.1681 -1.464 0
M  V30 25 H -2.2189 -0.5934 1.4086 0
M  V30 26 H -3.176 0.6365 -1.3191 0
M  V30 27 H -3.1126 -2.7415 0.5905 0
M  V30 28 H -3.6559 -1.9678 -0.9494 0
M  V30 29 H -4.4047 -1.491 0.6255 0
M  V30 30 H -3.402 2.6193 0.0206 0
M  V30 31 H -2.7741 1.7086 1.5267 0
M  V30 END ATOM
M  V30 BEGIN BOND
M  V30 1 1 1 2
M  V30 2 1 2 3
M  V30 3 1 2 4
M  V30 4 1 2 5
M  V30 5 1 3 6
M  V30 6 1 6 7
M  V30 7 1 7 8
M  V30 8 1 8 9
M  V30 9 1 8 10
M  V30 10 2 9 11
M  V30 11 1 1 12
M  V30 12 1 3 13
M  V30 13 1 3 14
M  V30 14 1 4 15
M  V30 15 1 4 16
M  V30 16 1 4 17
M  V30 17 1 5 18
M  V30 18 1 5 19
M  V30 19 1 5 20
M  V30 20 1 6 21
M  V30 21 1 6 22
M  V30 22 1 7 23
M  V30 23 1 7 24
M  V30 24 1 8 25
M  V30 25 1 9 26
M  V30 26 1 10 27
M  V30 27 1 10 28
M  V30 28 1 10 29
M  V30 29 1 11 30
M  V30 30 1 11 31
M  V30 END BOND
M  V30 BEGIN COLLECTION
M  V30 MDLV30/STEABS ATOMS=(1 8)
M  V30 END COLLECTION
M  V30 END CTAB
M  END
>  <Structure No>
2473

>  <LogS>
-2.221207241

>  <MMFF94 Energy>
24.138

$$$$
Compound 2474
Actelion Java MolfileCreator 2.0

  0  0  0  0  0  0              0 V3000
M  V30 BEGIN CTAB
M  V30 COUNTS 26 27 0 0 0
M  V30 BEGIN ATOM
M  V30 1 O -1.2799 -2.4009 -1.1199 0
M  V30 2 C -1.8046 -1.8607 -0.159 0
M  V30 3 C -2.3433 -0.4589 -0.2715 0 CFG=2
M  V30 4 C -1.6146 0.4871 0.7019 0
M  V30 5 C -3.848 -0.4663 0.0116 0
M  V30 6 C -0.1588 0.6413 0.3418 0
M  V30 7 C 0.823 -0.1354 0.9976 0
M  V30 8 C 0.2278 1.5355 -0.6896 0
M  V30 9 C 2.1493 0.0219 0.6062 0
M  V30 10 C 1.5804 1.6643 -1.0537 0
M  V30 11 O 3.2719 -0.6174 1.0952 0
M  V30 12 C 2.5122 0.8847 -0.3759 0
M  V30 13 C 4.411 -0.1246 0.376 0
M  V30 14 O 3.8811 0.8316 -0.5528 0
M  V30 15 H -1.8756 -2.3967 0.7823 0
M  V30 16 H -2.1965 -0.088 -1.3113 0
M  V30 17 H -1.7154 0.1125 1.7451 0
M  V30 18 H -2.0952 1.4899 0.6744 0
M  V30 19 H -4.0519 -0.8131 1.048 0
M  V30 20 H -4.2661 0.5554 -0.1128 0
M  V30 21 H -4.368 -1.1411 -0.7017 0
M  V30 22 H 0.5611 -0.8377 1.7788 0
M  V30 23 H -0.5179 2.1253 -1.2076 0
M  V30 24 H 1.8866 2.3443 -1.8375 0
M  V30 25 H 5.1193 0.3701 1.0729 0
M  V30 26 H 4.9075 -0.9541 -0.1697 0
M  V30 END ATOM
M  V30 BEGIN BOND
M  V30 1 2 1 2
M  V30 2 1 2 3
M  V30 3 1 3 4
M  V30 4 1 3 5
M  V30 5 1 4 6
M  V30 6 2 6 7
M  V30 7 1 6 8
M  V30 8 1 7 9
M  V30 9 2 8 10
M  V30 10 1 9 11
M  V30 11 2 9 12
M  V30 12 1 11 13
M  V30 13 1 12 14
M  V30 14 1 10 12
M  V30 15 1 13 14
M  V30 16 1 2 15
M  V30 17 1 3 16
M  V30 18 1 4 17
M  V30 19 1 4 18
M  V30 20 1 5 19
M  V30 21 1 5 20
M  V30 22 1 5 21
M  V30 23 1 7 22
M  V30 24 1 8 23
M  V30 25 1 10 24
M  V30 26 1 13 25
M  V30 27 1 13 26
M  V30 END BOND
M  V30 BEGIN COLLECTION
M  V30 MDLV30/STEABS ATOMS=(1 3)
M  V30 END COLLECTION
M  V30 END CTAB
M  END
>  <Structure No>
2474

>  <LogS>
-2.31343814

>  <MMFF94 Energy>
23.568

$$$$
Compound 2475
Actelion Java MolfileCreator 2.0

  0  0  0  0  0  0              0 V3000
M  V30 BEGIN CTAB
M  V30 COUNTS 14 13 0 0 0
M  V30 BEGIN ATOM
M  V30 1 Cl -0.1575 2.2072 -0.1575 0
M  V30 2 C -0.4626 0.4748 -0.4807 0 CFG=1
M  V30 3 C 0.4726 -0.4094 0.3611 0
M  V30 4 C -1.9263 0.1618 -0.1722 0
M  V30 5 C 1.9324 -0.2788 -0.0716 0
M  V30 6 H -0.2846 0.2824 -1.5612 0
M  V30 7 H 0.3831 -0.1393 1.4361 0
M  V30 8 H 0.1751 -1.4751 0.2494 0
M  V30 9 H -2.1461 0.3464 0.9011 0
M  V30 10 H -2.1513 -0.8995 -0.4106 0
M  V30 11 H -2.5888 0.8048 -0.7896 0
M  V30 12 H 2.0432 -0.5477 -1.1436 0
M  V30 13 H 2.2981 0.7572 0.0871 0
M  V30 14 H 2.5601 -0.9675 0.5321 0
M  V30 END ATOM
M  V30 BEGIN BOND
M  V30 1 1 1 2
M  V30 2 1 2 3
M  V30 3 1 2 4
M  V30 4 1 3 5
M  V30 5 1 2 6
M  V30 6 1 3 7
M  V30 7 1 3 8
M  V30 8 1 4 9
M  V30 9 1 4 10
M  V30 10 1 4 11
M  V30 11 1 5 12
M  V30 12 1 5 13
M  V30 13 1 5 14
M  V30 END BOND
M  V30 BEGIN COLLECTION
M  V30 MDLV30/STEABS ATOMS=(1 2)
M  V30 END COLLECTION
M  V30 END CTAB
M  END
>  <Structure No>
2475

>  <LogS>
-2.001263871

>  <MMFF94 Energy>
0.72971

$$$$
Compound 2476
Actelion Java MolfileCreator 2.0

  0  0  0  0  0  0              0 V3000
M  V30 BEGIN CTAB
M  V30 COUNTS 7 6 0 0 0
M  V30 BEGIN ATOM
M  V30 1 O 1.3234 1.1676 -0.4669 0
M  V30 2 C 0.8169 0.0692 -0.1181 0
M  V30 3 O 1.6406 -1.0201 0.1347 0 CHG=-1
M  V30 4 C -0.6566 -0.0463 0.0792 0
M  V30 5 H -0.9712 -1.1058 -0.0252 0
M  V30 6 H -0.9234 0.3148 1.0942 0
M  V30 7 H -1.1918 0.563 -0.6794 0
M  V30 END ATOM
M  V30 BEGIN BOND
M  V30 1 2 1 2
M  V30 2 1 2 3
M  V30 3 1 2 4
M  V30 4 1 4 5
M  V30 5 1 4 6
M  V30 6 1 4 7
M  V30 END BOND
M  V30 END CTAB
M  END
>  <Structure No>
2476

>  <LogS>
-2.3865009

>  <MMFF94 Energy>
1.0491

$$$$
Compound 2477
Actelion Java MolfileCreator 2.0

  0  0  0  0  0  0              0 V3000
M  V30 BEGIN CTAB
M  V30 COUNTS 29 29 0 0 0
M  V30 BEGIN ATOM
M  V30 1 O -0.5489 -1.2549 1.7259 0
M  V30 2 C 0.1328 -0.1454 1.1481 0 CFG=1
M  V30 3 C -1.3724 -1.9526 0.8033 0
M  V30 4 C 1.2766 -0.5793 0.2413 0
M  V30 5 C -0.8275 0.8421 0.4501 0
M  V30 6 C -2.4311 -1.0473 0.1713 0
M  V30 7 C 2.4269 0.1141 0.0754 0
M  V30 8 C -1.7476 0.1209 -0.5411 0 CFG=1
M  V30 9 C 3.4479 -0.4134 -0.9002 0
M  V30 10 C 2.7232 1.3818 0.8426 0
M  V30 11 C -2.7839 1.0851 -1.1278 0
M  V30 12 H 0.5701 0.4045 2.0066 0
M  V30 13 H -0.7731 -2.4601 0.0197 0
M  V30 14 H -1.8979 -2.759 1.3568 0
M  V30 15 H 1.1493 -1.4812 -0.3467 0
M  V30 16 H -0.2531 1.6313 -0.0807 0
M  V30 17 H -1.4443 1.3439 1.2292 0
M  V30 18 H -3.0306 -1.6367 -0.5562 0
M  V30 19 H -3.1129 -0.6705 0.9661 0
M  V30 20 H -1.1338 -0.2762 -1.3809 0
M  V30 21 H 4.3504 0.2311 -0.9424 0
M  V30 22 H 3.7648 -1.4337 -0.597 0
M  V30 23 H 3.0053 -0.4582 -1.9178 0
M  V30 24 H 1.9346 2.1396 0.6593 0
M  V30 25 H 3.6928 1.8258 0.5355 0
M  V30 26 H 2.7829 1.1616 1.929 0
M  V30 27 H -2.2728 1.9186 -1.6552 0
M  V30 28 H -3.4276 1.5085 -0.3268 0
M  V30 29 H -3.4272 0.553 -1.8607 0
M  V30 END ATOM
M  V30 BEGIN BOND
M  V30 1 1 1 2
M  V30 2 1 1 3
M  V30 3 1 2 4
M  V30 4 1 2 5
M  V30 5 1 3 6
M  V30 6 2 4 7
M  V30 7 1 5 8
M  V30 8 1 7 9
M  V30 9 1 7 10
M  V30 10 1 8 11
M  V30 11 1 6 8
M  V30 12 1 2 12
M  V30 13 1 3 13
M  V30 14 1 3 14
M  V30 15 1 4 15
M  V30 16 1 5 16
M  V30 17 1 5 17
M  V30 18 1 6 18
M  V30 19 1 6 19
M  V30 20 1 8 20
M  V30 21 1 9 21
M  V30 22 1 9 22
M  V30 23 1 9 23
M  V30 24 1 10 24
M  V30 25 1 10 25
M  V30 26 1 10 26
M  V30 27 1 11 27
M  V30 28 1 11 28
M  V30 29 1 11 29
M  V30 END BOND
M  V30 BEGIN COLLECTION
M  V30 MDLV30/STEABS ATOMS=(2 2 8)
M  V30 END COLLECTION
M  V30 END CTAB
M  END
>  <Structure No>
2477

>  <LogS>
-2.224445792

>  <MMFF94 Energy>
15.362

$$$$
Compound 2478
Actelion Java MolfileCreator 2.0

  0  0  0  0  0  0              0 V3000
M  V30 BEGIN CTAB
M  V30 COUNTS 27 26 0 0 0
M  V30 BEGIN ATOM
M  V30 1 O -2.2373 1.9285 -1.0796 0
M  V30 2 C -1.0279 1.4848 -0.5291 0
M  V30 3 C -0.938 -0.0551 -0.6045 0 CFG=1
M  V30 4 C 0.5325 -0.5386 -0.5323 0
M  V30 5 C -1.8159 -0.7541 0.465 0
M  V30 6 C 1.2554 -0.1689 0.7785 0
M  V30 7 C -3.313 -0.6577 0.1692 0
M  V30 8 C 2.6794 -0.7428 0.845 0
M  V30 9 C 3.647 -0.0393 -0.1063 0
M  V30 10 H -2.2435 2.9155 -0.9746 0
M  V30 11 H -0.9469 1.8245 0.5279 0
M  V30 12 H -0.1904 1.9389 -1.1053 0
M  V30 13 H -1.3063 -0.3658 -1.6084 0
M  V30 14 H 0.5544 -1.643 -0.6629 0
M  V30 15 H 1.0834 -0.1032 -1.3929 0
M  V30 16 H -1.6241 -0.3232 1.4712 0
M  V30 17 H -1.5536 -1.834 0.5063 0
M  V30 18 H 1.2976 0.9347 0.9001 0
M  V30 19 H 0.69 -0.5829 1.6395 0
M  V30 20 H -3.8707 -1.3052 0.8784 0
M  V30 21 H -3.6742 0.3823 0.3036 0
M  V30 22 H -3.5316 -0.9995 -0.8644 0
M  V30 23 H 3.06 -0.6166 1.8818 0
M  V30 24 H 2.6647 -1.8323 0.6241 0
M  V30 25 H 3.3872 -0.2541 -1.1632 0
M  V30 26 H 3.6314 1.0583 0.0636 0
M  V30 27 H 4.6777 -0.4094 0.0766 0
M  V30 END ATOM
M  V30 BEGIN BOND
M  V30 1 1 1 2
M  V30 2 1 2 3
M  V30 3 1 3 4
M  V30 4 1 3 5
M  V30 5 1 4 6
M  V30 6 1 5 7
M  V30 7 1 6 8
M  V30 8 1 8 9
M  V30 9 1 1 10
M  V30 10 1 2 11
M  V30 11 1 2 12
M  V30 12 1 3 13
M  V30 13 1 4 14
M  V30 14 1 4 15
M  V30 15 1 5 16
M  V30 16 1 5 17
M  V30 17 1 6 18
M  V30 18 1 6 19
M  V30 19 1 7 20
M  V30 20 1 7 21
M  V30 21 1 7 22
M  V30 22 1 8 23
M  V30 23 1 8 24
M  V30 24 1 9 25
M  V30 25 1 9 26
M  V30 26 1 9 27
M  V30 END BOND
M  V30 BEGIN COLLECTION
M  V30 MDLV30/STEABS ATOMS=(1 3)
M  V30 END COLLECTION
M  V30 END CTAB
M  END
>  <Structure No>
2478

>  <LogS>
-2.160471866

>  <MMFF94 Energy>
6.4807

$$$$
Compound 2479
Actelion Java MolfileCreator 2.0

  0  0  0  0  0  0              0 V3000
M  V30 BEGIN CTAB
M  V30 COUNTS 26 25 0 0 0
M  V30 BEGIN ATOM
M  V30 1 O 2.5533 -0.8505 2.0113 0
M  V30 2 C 2.6358 -0.7488 0.7965 0
M  V30 3 C 1.3951 -0.4664 -0.009 0
M  V30 4 C 3.9732 -0.9202 0.1392 0
M  V30 5 C 0.87 0.9433 0.2844 0
M  V30 6 C -0.3061 1.2967 -0.5933 0
M  V30 7 C -1.5775 0.8637 -0.4208 0
M  V30 8 C -1.9974 -0.0972 0.6762 0
M  V30 9 C -2.6318 1.367 -1.3738 0
M  V30 10 C -2.3675 -1.4628 0.1004 0
M  V30 11 H 1.6096 -0.5583 -1.0958 0
M  V30 12 H 0.632 -1.2277 0.2482 0
M  V30 13 H 3.9048 -0.7903 -0.9609 0
M  V30 14 H 4.3648 -1.9365 0.3541 0
M  V30 15 H 4.6821 -0.1658 0.54 0
M  V30 16 H 1.6841 1.6701 0.0701 0
M  V30 17 H 0.6092 1.0637 1.3574 0
M  V30 18 H -0.105 1.9969 -1.401 0
M  V30 19 H -1.2134 -0.236 1.446 0
M  V30 20 H -2.8816 0.3222 1.2027 0
M  V30 21 H -2.6686 2.4768 -1.3445 0
M  V30 22 H -3.6378 0.9824 -1.1039 0
M  V30 23 H -2.3932 1.0367 -2.4069 0
M  V30 24 H -1.5261 -1.8801 -0.491 0
M  V30 25 H -3.2609 -1.3816 -0.5537 0
M  V30 26 H -2.6028 -2.1638 0.9287 0
M  V30 END ATOM
M  V30 BEGIN BOND
M  V30 1 2 1 2
M  V30 2 1 2 3
M  V30 3 1 2 4
M  V30 4 1 3 5
M  V30 5 1 5 6
M  V30 6 2 6 7
M  V30 7 1 7 8
M  V30 8 1 7 9
M  V30 9 1 8 10
M  V30 10 1 3 11
M  V30 11 1 3 12
M  V30 12 1 4 13
M  V30 13 1 4 14
M  V30 14 1 4 15
M  V30 15 1 5 16
M  V30 16 1 5 17
M  V30 17 1 6 18
M  V30 18 1 8 19
M  V30 19 1 8 20
M  V30 20 1 9 21
M  V30 21 1 9 22
M  V30 22 1 9 23
M  V30 23 1 10 24
M  V30 24 1 10 25
M  V30 25 1 10 26
M  V30 END BOND
M  V30 END CTAB
M  END
>  <Structure No>
2479

>  <LogS>
-2.192586036

>  <MMFF94 Energy>
8.3702

$$$$
Compound 2480
Actelion Java MolfileCreator 2.0

  0  0  0  0  0  0              0 V3000
M  V30 BEGIN CTAB
M  V30 COUNTS 45 47 0 0 0
M  V30 BEGIN ATOM
M  V30 1 S -7.3431 -1.8938 0.9877 0
M  V30 2 O -6.8908 -3.3203 0.8808 0
M  V30 3 O -8.5463 -1.6819 0.1165 0
M  V30 4 O -7.7656 -1.5614 2.5784 0 CHG=-1
M  V30 5 C -6.0406 -0.8256 0.4786 0
M  V30 6 C -5.8858 -0.496 -0.8732 0
M  V30 7 C -5.1463 -0.317 1.421 0
M  V30 8 C -4.8389 0.3434 -1.3036 0
M  V30 9 C -4.1057 0.518 1.0198 0
M  V30 10 N -4.6993 0.6288 -2.7142 0 CHG=1
M  V30 11 C -3.9397 0.8573 -0.332 0
M  V30 12 O -3.724 1.2675 -3.1557 0
M  V30 13 O -5.6451 0.1859 -3.6066 0 CHG=-1
M  V30 14 N -2.8786 1.7534 -0.689 0
M  V30 15 C -1.4863 1.4694 -0.4593 0
M  V30 16 C -1.0472 0.1814 -0.1046 0
M  V30 17 C -0.5371 2.4881 -0.6298 0
M  V30 18 C 0.3129 -0.0727 0.0887 0
M  V30 19 C 0.8236 2.2294 -0.4405 0
M  V30 20 C 1.258 0.9503 -0.0834 0
M  V30 21 N 2.6596 0.7162 0.0928 0
M  V30 22 N 3.1199 -0.4275 0.4031 0
M  V30 23 C 4.5168 -0.717 0.582 0
M  V30 24 C 5.5627 0.2282 0.3814 0
M  V30 25 C 4.8456 -2.0252 0.9624 0
M  V30 26 C 6.8953 -0.1758 0.5866 0
M  V30 27 C 5.3078 1.6475 -0.0485 0
M  V30 28 C 6.1726 -2.4073 1.1575 0
M  V30 29 C 7.1996 -1.4828 0.976 0
M  V30 30 O 8.5283 -1.8513 1.1732 0
M  V30 31 H -6.5808 -0.9079 -1.5962 0
M  V30 32 H -5.2508 -0.5694 2.4694 0
M  V30 33 H -3.4303 0.9171 1.7654 0
M  V30 34 H -3.1414 2.6614 -1.1316 0
M  V30 35 H -1.7498 -0.6349 0.0201 0
M  V30 36 H -0.8531 3.4813 -0.911 0
M  V30 37 H 0.624 -1.0725 0.3638 0
M  V30 38 H 1.5421 3.0236 -0.5778 0
M  V30 39 H 4.0621 -2.7565 1.1075 0
M  V30 40 H 7.7079 0.5301 0.4522 0
M  V30 41 H 4.7009 2.1736 0.7197 0
M  V30 42 H 6.2537 2.2164 -0.176 0
M  V30 43 H 4.7822 1.6569 -1.0263 0
M  V30 44 H 6.4005 -3.4236 1.4448 0
M  V30 45 H 8.7839 -2.7943 1.4464 0
M  V30 END ATOM
M  V30 BEGIN BOND
M  V30 1 2 1 2
M  V30 2 2 1 3
M  V30 3 1 1 4
M  V30 4 1 1 5
M  V30 5 2 5 6
M  V30 6 1 5 7
M  V30 7 1 6 8
M  V30 8 2 7 9
M  V30 9 1 8 10
M  V30 10 2 8 11
M  V30 11 2 10 12
M  V30 12 1 10 13
M  V30 13 1 11 14
M  V30 14 1 14 15
M  V30 15 2 15 16
M  V30 16 1 15 17
M  V30 17 1 16 18
M  V30 18 2 17 19
M  V30 19 2 18 20
M  V30 20 1 20 21
M  V30 21 2 21 22
M  V30 22 1 22 23
M  V30 23 2 23 24
M  V30 24 1 23 25
M  V30 25 1 24 26
M  V30 26 1 24 27
M  V30 27 2 25 28
M  V30 28 2 26 29
M  V30 29 1 29 30
M  V30 30 1 9 11
M  V30 31 1 19 20
M  V30 32 1 28 29
M  V30 33 1 6 31
M  V30 34 1 7 32
M  V30 35 1 9 33
M  V30 36 1 14 34
M  V30 37 1 16 35
M  V30 38 1 17 36
M  V30 39 1 18 37
M  V30 40 1 19 38
M  V30 41 1 25 39
M  V30 42 1 26 40
M  V30 43 1 27 41
M  V30 44 1 27 42
M  V30 45 1 27 43
M  V30 46 1 28 44
M  V30 47 1 30 45
M  V30 END BOND
M  V30 END CTAB
M  END
>  <Structure No>
2480

>  <LogS>
-2.699363586

>  <MMFF94 Energy>
97.641

$$$$
Compound 2481
Actelion Java MolfileCreator 2.0

  0  0  0  0  0  0              0 V3000
M  V30 BEGIN CTAB
M  V30 COUNTS 13 13 0 0 0
M  V30 BEGIN ATOM
M  V30 1 O 2.4776 1.7338 -1.2382 0
M  V30 2 C 2.357 0.7691 -0.4389 0
M  V30 3 O 3.4905 0.2055 0.1335 0 CHG=-1
M  V30 4 C 1.026 0.2461 -0.116 0
M  V30 5 O -0.0915 0.7234 -0.6145 0
M  V30 6 C 0.7546 -0.8034 0.7412 0
M  V30 7 C -1.0917 0.0303 -0.12 0
M  V30 8 C -0.6174 -0.9431 0.7386 0
M  V30 9 C -2.4996 0.2744 -0.448 0
M  V30 10 O -2.8094 1.1954 -1.248 0
M  V30 11 O -3.4983 -0.5064 0.1202 0 CHG=-1
M  V30 12 H 1.4664 -1.3958 1.3009 0
M  V30 13 H -1.1972 -1.6673 1.2958 0
M  V30 END ATOM
M  V30 BEGIN BOND
M  V30 1 2 1 2
M  V30 2 1 2 3
M  V30 3 1 2 4
M  V30 4 1 4 5
M  V30 5 2 4 6
M  V30 6 1 5 7
M  V30 7 1 6 8
M  V30 8 1 7 9
M  V30 9 2 9 10
M  V30 10 1 9 11
M  V30 11 2 7 8
M  V30 12 1 6 12
M  V30 13 1 8 13
M  V30 END BOND
M  V30 END CTAB
M  END
>  <Structure No>
2481

>  <LogS>
-2.239623736

>  <MMFF94 Energy>
130

$$$$
Compound 2482
Actelion Java MolfileCreator 2.0

  0  0  0  0  0  0              0 V3000
M  V30 BEGIN CTAB
M  V30 COUNTS 14 14 0 0 0
M  V30 BEGIN ATOM
M  V30 1 Cl -0.0863 2.7659 0.7773 0
M  V30 2 C 0.2152 1.0838 0.3275 0
M  V30 3 C 1.5533 0.6397 0.2861 0
M  V30 4 C -0.8377 0.1798 0.0108 0
M  V30 5 Cl 2.8933 1.7163 0.6686 0
M  V30 6 C 1.8477 -0.6793 -0.063 0
M  V30 7 C -2.2795 0.5639 0.029 0
M  V30 8 C -0.5048 -1.1456 -0.3378 0
M  V30 9 C 0.8231 -1.5676 -0.3735 0
M  V30 10 O -3.1633 -0.2861 -0.2619 0
M  V30 11 O -2.6921 1.8475 0.3608 0 CHG=-1
M  V30 12 H 2.8755 -1.0184 -0.0941 0
M  V30 13 H -1.2747 -1.8657 -0.5856 0
M  V30 14 H 1.0583 -2.5892 -0.6435 0
M  V30 END ATOM
M  V30 BEGIN BOND
M  V30 1 1 1 2
M  V30 2 2 2 3
M  V30 3 1 2 4
M  V30 4 1 3 5
M  V30 5 1 3 6
M  V30 6 1 4 7
M  V30 7 2 4 8
M  V30 8 2 6 9
M  V30 9 2 7 10
M  V30 10 1 7 11
M  V30 11 1 8 9
M  V30 12 1 6 12
M  V30 13 1 8 13
M  V30 14 1 9 14
M  V30 END BOND
M  V30 END CTAB
M  END
>  <Structure No>
2482

>  <LogS>
-2.331672919

>  <MMFF94 Energy>
33.364

$$$$
Compound 2483
Actelion Java MolfileCreator 2.0

  0  0  0  0  0  0              0 V3000
M  V30 BEGIN CTAB
M  V30 COUNTS 20 20 0 0 0
M  V30 BEGIN ATOM
M  V30 1 Cl 2.6341 -2.2939 -1.104 0
M  V30 2 C 1.3462 -1.2193 -0.568 0
M  V30 3 C 1.6111 0.1024 -0.1678 0
M  V30 4 C 0.0366 -1.7057 -0.5456 0
M  V30 5 C 0.5495 0.9193 0.2511 0
M  V30 6 C 3.0139 0.6447 -0.1847 0
M  V30 7 C -1.0276 -0.8938 -0.1278 0
M  V30 8 C -0.7682 0.4368 0.2761 0
M  V30 9 N -2.353 -1.443 -0.124 0
M  V30 10 S -2.0606 1.5176 0.8146 0
M  V30 11 O -2.7374 0.9334 2.0224 0
M  V30 12 O -3.0615 1.6989 -0.2913 0
M  V30 13 O -1.4364 3.023 1.2253 0 CHG=-1
M  V30 14 H -0.1548 -2.7255 -0.8561 0
M  V30 15 H 0.7534 1.9365 0.5592 0
M  V30 16 H 3.0511 1.7004 0.1593 0
M  V30 17 H 3.658 0.0389 0.4867 0
M  V30 18 H 3.4193 0.6028 -1.2174 0
M  V30 19 H -2.5168 -2.429 -0.4272 0
M  V30 20 H -3.1881 -0.8957 0.1741 0
M  V30 END ATOM
M  V30 BEGIN BOND
M  V30 1 1 1 2
M  V30 2 2 2 3
M  V30 3 1 2 4
M  V30 4 1 3 5
M  V30 5 1 3 6
M  V30 6 2 4 7
M  V30 7 2 5 8
M  V30 8 1 7 9
M  V30 9 1 8 10
M  V30 10 2 10 11
M  V30 11 2 10 12
M  V30 12 1 10 13
M  V30 13 1 7 8
M  V30 14 1 4 14
M  V30 15 1 5 15
M  V30 16 1 6 16
M  V30 17 1 6 17
M  V30 18 1 6 18
M  V30 19 1 9 19
M  V30 20 1 9 20
M  V30 END BOND
M  V30 END CTAB
M  END
>  <Structure No>
2483

>  <LogS>
-2.406177873

>  <MMFF94 Energy>
59.461

$$$$
Compound 2484
Actelion Java MolfileCreator 2.0

  0  0  0  0  0  0              0 V3000
M  V30 BEGIN CTAB
M  V30 COUNTS 24 24 0 0 0
M  V30 BEGIN ATOM
M  V30 1 Cl -2.501 2.9048 -0.403 0
M  V30 2 C -2.6014 1.1844 -0.0501 0
M  V30 3 C -1.4451 0.3798 0.0111 0
M  V30 4 C -3.8597 0.6236 0.2012 0
M  V30 5 N -0.1527 0.9427 -0.2742 0
M  V30 6 C -1.5804 -0.9912 0.2981 0
M  V30 7 C -3.9783 -0.7351 0.5006 0
M  V30 8 C 1.0434 0.5868 0.4365 0
M  V30 9 C -2.8405 -1.542 0.5461 0
M  V30 10 O 0.9836 -0.1125 1.4841 0
M  V30 11 C 2.3788 1.0388 -0.069 0
M  V30 12 C 2.8737 0.0946 -1.1292 0
M  V30 13 O 2.3502 0.1024 -2.2331 0
M  V30 14 C 3.9959 -0.863 -0.8589 0
M  V30 15 H -4.748 1.2417 0.1652 0
M  V30 16 H -0.0828 1.6845 -1.0064 0
M  V30 17 H -0.715 -1.6408 0.3066 0
M  V30 18 H -4.9535 -1.1637 0.6923 0
M  V30 19 H -2.9353 -2.5975 0.7661 0
M  V30 20 H 2.2986 2.063 -0.4922 0
M  V30 21 H 3.0968 1.0899 0.7776 0
M  V30 22 H 3.6445 -1.9023 -1.028 0
M  V30 23 H 4.8405 -0.6487 -1.5463 0
M  V30 24 H 4.3568 -0.7787 0.1874 0
M  V30 END ATOM
M  V30 BEGIN BOND
M  V30 1 1 1 2
M  V30 2 2 2 3
M  V30 3 1 2 4
M  V30 4 1 3 5
M  V30 5 1 3 6
M  V30 6 2 4 7
M  V30 7 1 5 8
M  V30 8 2 6 9
M  V30 9 2 8 10
M  V30 10 1 8 11
M  V30 11 1 11 12
M  V30 12 2 12 13
M  V30 13 1 12 14
M  V30 14 1 7 9
M  V30 15 1 4 15
M  V30 16 1 5 16
M  V30 17 1 6 17
M  V30 18 1 7 18
M  V30 19 1 9 19
M  V30 20 1 11 20
M  V30 21 1 11 21
M  V30 22 1 14 22
M  V30 23 1 14 23
M  V30 24 1 14 24
M  V30 END BOND
M  V30 END CTAB
M  END
>  <Structure No>
2484

>  <LogS>
-2.406536077

>  <MMFF94 Energy>
3.9396

$$$$
Compound 2485
Actelion Java MolfileCreator 2.0

  0  0  0  0  0  0              0 V3000
M  V30 BEGIN CTAB
M  V30 COUNTS 40 39 0 0 0
M  V30 BEGIN ATOM
M  V30 1 O 2.023 -0.0777 -3.0357 0
M  V30 2 C 1.0889 0.4833 -2.1503 0
M  V30 3 C 0.9372 -0.4008 -0.8871 0 CFG=2
M  V30 4 C -0.3672 -0.1062 -0.0423 0
M  V30 5 C 2.2474 -0.5602 -0.0567 0
M  V30 6 C -0.8099 -1.3297 0.8678 0 CFG=1
M  V30 7 C -0.2819 1.2002 0.8115 0
M  V30 8 C 3.1271 0.6877 0.0671 0
M  V30 9 C -2.1896 -1.0992 1.5594 0
M  V30 10 C -0.834 -2.7114 0.1511 0
M  V30 11 C -0.2426 2.5107 0.0011 0
M  V30 12 O -2.0313 -0.5116 2.8243 0
M  V30 13 C -1.7491 -2.76 -1.0772 0
M  V30 14 C -0.7588 3.6954 0.8174 0
M  V30 15 H 1.5549 -0.8033 -3.5259 0
M  V30 16 H 0.1057 0.5941 -2.6629 0
M  V30 17 H 1.4374 1.4991 -1.904 0
M  V30 18 H 0.7789 -1.3927 -1.3438 0
M  V30 19 H -1.1963 0.0442 -0.7683 0
M  V30 20 H 2.0186 -0.9289 0.9628 0
M  V30 21 H 2.8709 -1.3487 -0.5335 0
M  V30 22 H -0.0563 -1.4339 1.6779 0
M  V30 23 H -1.1856 1.2692 1.4434 0
M  V30 24 H 0.5733 1.1529 1.5159 0
M  V30 25 H 2.579 1.5348 0.5172 0
M  V30 26 H 3.9921 0.4577 0.7243 0
M  V30 27 H 3.53 0.9873 -0.9224 0
M  V30 28 H -2.7614 -2.048 1.6811 0
M  V30 29 H -2.8305 -0.4418 0.9342 0
M  V30 30 H 0.19 -3.0382 -0.122 0
M  V30 31 H -1.1798 -3.4874 0.8691 0
M  V30 32 H -0.862 2.42 -0.9171 0
M  V30 33 H 0.7982 2.752 -0.2827 0
M  V30 34 H -1.7115 -1.2276 3.4333 0
M  V30 35 H -2.7894 -2.4856 -0.8041 0
M  V30 36 H -1.7576 -3.7916 -1.4874 0
M  V30 37 H -1.3919 -2.0769 -1.874 0
M  V30 38 H -0.6618 4.6281 0.2226 0
M  V30 39 H -1.8302 3.5519 1.0742 0
M  V30 40 H -0.1678 3.8056 1.7517 0
M  V30 END ATOM
M  V30 BEGIN BOND
M  V30 1 1 1 2
M  V30 2 1 2 3
M  V30 3 1 3 4
M  V30 4 1 3 5
M  V30 5 1 4 6
M  V30 6 1 4 7
M  V30 7 1 5 8
M  V30 8 1 6 9
M  V30 9 1 6 10
M  V30 10 1 7 11
M  V30 11 1 9 12
M  V30 12 1 10 13
M  V30 13 1 11 14
M  V30 14 1 1 15
M  V30 15 1 2 16
M  V30 16 1 2 17
M  V30 17 1 3 18
M  V30 18 1 4 19
M  V30 19 1 5 20
M  V30 20 1 5 21
M  V30 21 1 6 22
M  V30 22 1 7 23
M  V30 23 1 7 24
M  V30 24 1 8 25
M  V30 25 1 8 26
M  V30 26 1 8 27
M  V30 27 1 9 28
M  V30 28 1 9 29
M  V30 29 1 10 30
M  V30 30 1 10 31
M  V30 31 1 11 32
M  V30 32 1 11 33
M  V30 33 1 12 34
M  V30 34 1 13 35
M  V30 35 1 13 36
M  V30 36 1 13 37
M  V30 37 1 14 38
M  V30 38 1 14 39
M  V30 39 1 14 40
M  V30 END BOND
M  V30 BEGIN COLLECTION
M  V30 MDLV30/STEABS ATOMS=(2 3 6)
M  V30 END COLLECTION
M  V30 END CTAB
M  END
>  <Structure No>
2485

>  <LogS>
-2.925284669

>  <MMFF94 Energy>
28.834

$$$$
Compound 2486
Actelion Java MolfileCreator 2.0

  0  0  0  0  0  0              0 V3000
M  V30 BEGIN CTAB
M  V30 COUNTS 22 23 0 0 0
M  V30 BEGIN ATOM
M  V30 1 N -2.5237 -0.6304 -0.394 0
M  V30 2 C -1.3832 0.2243 -0.546 0
M  V30 3 C -0.1008 -0.1119 -0.0202 0
M  V30 4 C -1.5903 1.4913 -1.112 0
M  V30 5 C 0.258 -1.4226 0.4125 0
M  V30 6 C 0.8774 0.9205 0.0784 0
M  V30 7 C -0.5905 2.4593 -1.0823 0
M  V30 8 N -0.5105 -2.5823 0.0681 0
M  V30 9 C 1.4755 -1.6232 1.0805 0
M  V30 10 C 0.6251 2.1889 -0.463 0
M  V30 11 C 2.1011 0.6774 0.7178 0
M  V30 12 C 2.382 -0.5796 1.243 0
M  V30 13 H -2.6016 -1.2855 0.4143 0
M  V30 14 H -3.3913 -0.4579 -0.9494 0
M  V30 15 H -2.5552 1.7487 -1.5312 0
M  V30 16 H -0.7753 3.439 -1.504 0
M  V30 17 H -0.3413 -3.4917 0.5532 0
M  V30 18 H -1.0803 -2.6107 -0.8055 0
M  V30 19 H 1.7476 -2.6115 1.4299 0
M  V30 20 H 1.3731 2.9715 -0.4118 0
M  V30 21 H 2.8401 1.464 0.8166 0
M  V30 22 H 3.3263 -0.7576 1.7412 0
M  V30 END ATOM
M  V30 BEGIN BOND
M  V30 1 1 1 2
M  V30 2 1 2 3
M  V30 3 2 2 4
M  V30 4 2 3 5
M  V30 5 1 3 6
M  V30 6 1 4 7
M  V30 7 1 5 8
M  V30 8 1 5 9
M  V30 9 1 6 10
M  V30 10 2 6 11
M  V30 11 2 9 12
M  V30 12 2 7 10
M  V30 13 1 11 12
M  V30 14 1 1 13
M  V30 15 1 1 14
M  V30 16 1 4 15
M  V30 17 1 7 16
M  V30 18 1 8 17
M  V30 19 1 8 18
M  V30 20 1 9 19
M  V30 21 1 10 20
M  V30 22 1 11 21
M  V30 23 1 12 22
M  V30 END BOND
M  V30 END CTAB
M  END
>  <Structure No>
2486

>  <LogS>
-2.307122857

>  <MMFF94 Energy>
51.488

$$$$
Compound 2487
Actelion Java MolfileCreator 2.0

  0  0  0  0  0  0              0 V3000
M  V30 BEGIN CTAB
M  V30 COUNTS 10 9 0 0 0
M  V30 BEGIN ATOM
M  V30 1 C -0.4429 0.5168 -0.0738 0
M  V30 2 C 0.5096 -0.5877 0.1186 0
M  V30 3 C -1.7494 0.336 0.0972 0
M  V30 4 C 1.8159 -0.4069 -0.0523 0
M  V30 5 H -0.0821 1.498 -0.36 0
M  V30 6 H 0.1486 -1.5689 0.4049 0
M  V30 7 H -2.1496 -0.629 0.3831 0
M  V30 8 H -2.4334 1.1618 -0.0493 0
M  V30 9 H 2.2161 0.5582 -0.3381 0
M  V30 10 H 2.4999 -1.2326 0.0943 0
M  V30 END ATOM
M  V30 BEGIN BOND
M  V30 1 1 1 2
M  V30 2 2 1 3
M  V30 3 2 2 4
M  V30 4 1 1 5
M  V30 5 1 2 6
M  V30 6 1 3 7
M  V30 7 1 3 8
M  V30 8 1 4 9
M  V30 9 1 4 10
M  V30 END BOND
M  V30 END CTAB
M  END
>  <Structure No>
2487

>  <LogS>
-1.8668457

>  <MMFF94 Energy>
4.7838

$$$$
Compound 2488
Actelion Java MolfileCreator 2.0

  0  0  0  0  0  0              0 V3000
M  V30 BEGIN CTAB
M  V30 COUNTS 18 18 0 0 0
M  V30 BEGIN ATOM
M  V30 1 F 0.4167 -2.7529 -2.0016 0
M  V30 2 C 1.3094 -1.7263 -1.7465 0
M  V30 3 F 1.718 -1.1986 -2.9592 0
M  V30 4 F 2.4094 -2.2395 -1.0854 0
M  V30 5 C 0.6664 -0.664 -0.8898 0
M  V30 6 C -0.2779 -1.0169 0.0885 0
M  V30 7 C 1.0723 0.6744 -0.9934 0
M  V30 8 C -0.8498 -0.046 0.9332 0
M  V30 9 C 0.5066 1.65 -0.1723 0
M  V30 10 N -1.8158 -0.4512 1.9243 0 CHG=1
M  V30 11 C -0.4561 1.3056 0.7844 0
M  V30 12 O -2.4668 -1.5059 1.7729 0
M  V30 13 O -1.951 0.2408 3.1057 0 CHG=-1
M  V30 14 C -1.047 2.3644 1.566 0
M  V30 15 N -1.5195 3.2165 2.1906 0
M  V30 16 H -0.5582 -2.0564 0.2057 0
M  V30 17 H 1.8256 0.9688 -1.7132 0
M  V30 18 H 0.8203 2.6811 -0.2872 0
M  V30 END ATOM
M  V30 BEGIN BOND
M  V30 1 1 1 2
M  V30 2 1 2 3
M  V30 3 1 2 4
M  V30 4 1 2 5
M  V30 5 2 5 6
M  V30 6 1 5 7
M  V30 7 1 6 8
M  V30 8 2 7 9
M  V30 9 1 8 10
M  V30 10 2 8 11
M  V30 11 2 10 12
M  V30 12 1 10 13
M  V30 13 1 11 14
M  V30 14 3 14 15
M  V30 15 1 9 11
M  V30 16 1 6 16
M  V30 17 1 7 17
M  V30 18 1 9 18
M  V30 END BOND
M  V30 END CTAB
M  END
>  <Structure No>
2488

>  <LogS>
-2.470773563

>  <MMFF94 Energy>
60.311

$$$$
Compound 2489
Actelion Java MolfileCreator 2.0

  0  0  0  0  0  0              0 V3000
M  V30 BEGIN CTAB
M  V30 COUNTS 18 18 0 0 0
M  V30 BEGIN ATOM
M  V30 1 O -0.8445 3.5506 0.1688 0
M  V30 2 N -1.3877 2.4676 -0.1323 0 CHG=1
M  V30 3 O -2.7093 2.4825 -0.5164 0 CHG=-1
M  V30 4 C -0.6739 1.2158 -0.0202 0
M  V30 5 C 0.734 1.1729 0.0305 0
M  V30 6 C -1.3989 0.0225 0.0298 0
M  V30 7 O 1.3731 2.2569 -0.0516 0
M  V30 8 C 1.4263 -0.0667 0.155 0
M  V30 9 C -0.7681 -1.2285 0.1436 0
M  V30 10 N 2.7484 -0.1032 0.216 0 CHG=1
M  V30 11 C 0.6522 -1.2662 0.2098 0
M  V30 12 N -1.5017 -2.3227 0.1884 0 CHG=1
M  V30 13 O 3.4414 -1.2882 0.3295 0 CHG=-1
M  V30 14 O 3.5112 1.0429 0.1746 0 CHG=-1
M  V30 15 O 1.2335 -2.3799 0.3188 0
M  V30 16 O -2.8768 -2.2566 0.1227 0 CHG=-1
M  V30 17 O -0.943 -3.5767 0.2994 0 CHG=-1
M  V30 18 H -2.4787 0.0804 -0.0091 0
M  V30 END ATOM
M  V30 BEGIN BOND
M  V30 1 2 1 2
M  V30 2 1 2 3
M  V30 3 1 2 4
M  V30 4 1 4 5
M  V30 5 2 4 6
M  V30 6 2 5 7
M  V30 7 1 5 8
M  V30 8 1 6 9
M  V30 9 2 8 10
M  V30 10 1 8 11
M  V30 11 2 9 12
M  V30 12 1 10 13
M  V30 13 1 10 14
M  V30 14 2 11 15
M  V30 15 1 12 16
M  V30 16 1 12 17
M  V30 17 1 9 11
M  V30 18 1 6 18
M  V30 END BOND
M  V30 END CTAB
M  END
>  <Structure No>
2489

>  <LogS>
-2.808391369

>  <MMFF94 Energy>
-89.25

$$$$
Compound 2490
Actelion Java MolfileCreator 2.0

  0  0  0  0  0  0              0 V3000
M  V30 BEGIN CTAB
M  V30 COUNTS 23 22 0 0 0
M  V30 BEGIN ATOM
M  V30 1 O 0.5409 -1.7782 2.4747 0
M  V30 2 C 0.1724 -0.7212 1.8974 0
M  V30 3 C 0.9311 -0.1887 0.7401 0
M  V30 4 C 0.5068 0.8759 0.0293 0
M  V30 5 C 2.1952 -0.8942 0.3053 0
M  V30 6 C -0.7611 1.6462 0.2968 0
M  V30 7 C 1.8805 -1.9882 -0.7102 0
M  V30 8 C -2.0116 0.8944 -0.185 0
M  V30 9 C -2.0468 0.7458 -1.7057 0
M  V30 10 H -0.7075 -0.2188 2.2719 0
M  V30 11 H 1.1085 1.2218 -0.8036 0
M  V30 12 H 2.9118 -0.1727 -0.1454 0
M  V30 13 H 2.7076 -1.3445 1.1824 0
M  V30 14 H -0.8469 1.8835 1.3782 0
M  V30 15 H -0.7038 2.6221 -0.2325 0
M  V30 16 H 1.4029 -1.5502 -1.6127 0
M  V30 17 H 2.8205 -2.4942 -1.0152 0
M  V30 18 H 1.1981 -2.7433 -0.2651 0
M  V30 19 H -2.0676 -0.1118 0.2807 0
M  V30 20 H -2.9114 1.463 0.1349 0
M  V30 21 H -1.1932 0.1279 -2.0564 0
M  V30 22 H -2.0039 1.7429 -2.1932 0
M  V30 23 H -2.9904 0.2444 -2.0071 0
M  V30 END ATOM
M  V30 BEGIN BOND
M  V30 1 2 1 2
M  V30 2 1 2 3
M  V30 3 2 3 4
M  V30 4 1 3 5
M  V30 5 1 4 6
M  V30 6 1 5 7
M  V30 7 1 6 8
M  V30 8 1 8 9
M  V30 9 1 2 10
M  V30 10 1 4 11
M  V30 11 1 5 12
M  V30 12 1 5 13
M  V30 13 1 6 14
M  V30 14 1 6 15
M  V30 15 1 7 16
M  V30 16 1 7 17
M  V30 17 1 7 18
M  V30 18 1 8 19
M  V30 19 1 8 20
M  V30 20 1 9 21
M  V30 21 1 9 22
M  V30 22 1 9 23
M  V30 END BOND
M  V30 END CTAB
M  END
>  <Structure No>
2490

>  <LogS>
-2.255957874

>  <MMFF94 Energy>
12.766

$$$$
Compound 2491
Actelion Java MolfileCreator 2.0

  0  0  0  0  0  0              0 V3000
M  V30 BEGIN CTAB
M  V30 COUNTS 25 24 0 0 0
M  V30 BEGIN ATOM
M  V30 1 O 1.5479 -1.393 -1.8577 0
M  V30 2 C 1.4024 -1.3912 -0.6451 0
M  V30 3 C 1.1803 -0.1007 0.1065 0 CFG=2
M  V30 4 C -0.117 0.5942 -0.3602 0
M  V30 5 C 2.3872 0.8475 -0.0578 0
M  V30 6 C -1.3706 -0.2348 -0.0388 0
M  V30 7 C 3.6642 0.2784 0.562 0
M  V30 8 C -2.6434 0.5066 -0.4631 0
M  V30 9 C -3.8907 -0.3144 -0.1495 0
M  V30 10 H 1.433 -2.3305 -0.103 0
M  V30 11 H 1.074 -0.3389 1.1885 0
M  V30 12 H -0.0678 0.79 -1.4545 0
M  V30 13 H -0.2064 1.5762 0.1552 0
M  V30 14 H 2.1679 1.8148 0.4448 0
M  V30 15 H 2.5654 1.0601 -1.1349 0
M  V30 16 H -1.4094 -0.4344 1.0546 0
M  V30 17 H -1.3226 -1.208 -0.574 0
M  V30 18 H 3.9718 -0.6524 0.0409 0
M  V30 19 H 3.5072 0.0618 1.64 0
M  V30 20 H 4.4847 1.0203 0.466 0
M  V30 21 H -2.6122 0.7097 -1.5558 0
M  V30 22 H -2.7089 1.478 0.0738 0
M  V30 23 H -3.9591 -0.5108 0.9417 0
M  V30 24 H -4.7948 0.2469 -0.4664 0
M  V30 25 H -3.8636 -1.2813 -0.6957 0
M  V30 END ATOM
M  V30 BEGIN BOND
M  V30 1 2 1 2
M  V30 2 1 2 3
M  V30 3 1 3 4
M  V30 4 1 3 5
M  V30 5 1 4 6
M  V30 6 1 5 7
M  V30 7 1 6 8
M  V30 8 1 8 9
M  V30 9 1 2 10
M  V30 10 1 3 11
M  V30 11 1 4 12
M  V30 12 1 4 13
M  V30 13 1 5 14
M  V30 14 1 5 15
M  V30 15 1 6 16
M  V30 16 1 6 17
M  V30 17 1 7 18
M  V30 18 1 7 19
M  V30 19 1 7 20
M  V30 20 1 8 21
M  V30 21 1 8 22
M  V30 22 1 9 23
M  V30 23 1 9 24
M  V30 24 1 9 25
M  V30 END BOND
M  V30 BEGIN COLLECTION
M  V30 MDLV30/STEABS ATOMS=(1 3)
M  V30 END COLLECTION
M  V30 END CTAB
M  END
>  <Structure No>
2491

>  <LogS>
-2.262840797

>  <MMFF94 Energy>
3.4418

$$$$
Compound 2492
Actelion Java MolfileCreator 2.0

  0  0  0  0  0  0              0 V3000
M  V30 BEGIN CTAB
M  V30 COUNTS 28 27 0 0 0
M  V30 BEGIN ATOM
M  V30 1 O 4.5573 0.3922 0.6276 0
M  V30 2 C 3.6666 0.6237 -0.2319 0
M  V30 3 O 3.7295 1.7853 -0.9914 0 CHG=-1
M  V30 4 C 2.536 -0.3421 -0.429 0
M  V30 5 C 1.1876 0.2237 0.0806 0 CFG=1
M  V30 6 C 0.0273 -0.6738 -0.4446 0
M  V30 7 C 1.2021 0.3312 1.6165 0
M  V30 8 C -1.4521 -0.2035 -0.2196 0
M  V30 9 C -1.6191 1.3133 -0.448 0
M  V30 10 C -1.9586 -0.5783 1.192 0
M  V30 11 C -2.348 -0.9425 -1.241 0
M  V30 12 H 2.4741 -0.5539 -1.5183 0
M  V30 13 H 2.7626 -1.3037 0.0828 0
M  V30 14 H 1.074 1.2436 -0.3466 0
M  V30 15 H 0.1529 -1.7026 -0.0392 0
M  V30 16 H 0.1803 -0.767 -1.5433 0
M  V30 17 H 2.1759 0.7133 1.9862 0
M  V30 18 H 1.0178 -0.6586 2.0859 0
M  V30 19 H 0.4453 1.0625 1.9599 0
M  V30 20 H -1.097 1.8999 0.3355 0
M  V30 21 H -2.693 1.5987 -0.4125 0
M  V30 22 H -1.2139 1.6041 -1.4411 0
M  V30 23 H -1.4792 0.0212 1.9857 0
M  V30 24 H -3.0518 -0.3932 1.2754 0
M  V30 25 H -1.7767 -1.6538 1.4033 0
M  V30 26 H -2.2492 -2.0435 -1.1229 0
M  V30 27 H -2.0643 -0.6766 -2.2826 0
M  V30 28 H -3.4182 -0.6737 -1.1031 0
M  V30 END ATOM
M  V30 BEGIN BOND
M  V30 1 2 1 2
M  V30 2 1 2 3
M  V30 3 1 2 4
M  V30 4 1 4 5
M  V30 5 1 5 6
M  V30 6 1 5 7
M  V30 7 1 6 8
M  V30 8 1 8 9
M  V30 9 1 8 10
M  V30 10 1 8 11
M  V30 11 1 4 12
M  V30 12 1 4 13
M  V30 13 1 5 14
M  V30 14 1 6 15
M  V30 15 1 6 16
M  V30 16 1 7 17
M  V30 17 1 7 18
M  V30 18 1 7 19
M  V30 19 1 9 20
M  V30 20 1 9 21
M  V30 21 1 9 22
M  V30 22 1 10 23
M  V30 23 1 10 24
M  V30 24 1 10 25
M  V30 25 1 11 26
M  V30 26 1 11 27
M  V30 27 1 11 28
M  V30 END BOND
M  V30 BEGIN COLLECTION
M  V30 MDLV30/STEABS ATOMS=(1 5)
M  V30 END COLLECTION
M  V30 END CTAB
M  END
>  <Structure No>
2492

>  <LogS>
-2.354220979

>  <MMFF94 Energy>
25.294

$$$$
Compound 2493
Actelion Java MolfileCreator 2.0

  0  0  0  0  0  0              0 V3000
M  V30 BEGIN CTAB
M  V30 COUNTS 28 29 0 0 0
M  V30 BEGIN ATOM
M  V30 1 O -6.2076 -0.7147 -0.2382 0
M  V30 2 C -4.966 -0.5467 -0.1126 0
M  V30 3 N -4.1354 -0.3465 -1.1637 0
M  V30 4 N -4.3354 -0.5506 1.0861 0
M  V30 5 C -2.9273 -0.2192 -0.59 0
M  V30 6 C -3.0479 -0.3415 0.7646 0
M  V30 7 C -1.6977 -0.0021 -1.2054 0
M  V30 8 C -1.9478 -0.2632 1.6124 0
M  V30 9 C -0.5544 0.1063 -0.3823 0
M  V30 10 C -0.6868 -0.0434 1.0269 0
M  V30 11 N 0.7308 0.3056 -0.9943 0
M  V30 12 C 1.7972 1.0622 -0.3994 0
M  V30 13 O 1.5866 1.7851 0.6121 0
M  V30 14 C 3.1765 0.9964 -0.9794 0
M  V30 15 C 3.8998 -0.2108 -0.4501 0
M  V30 16 O 3.5816 -1.3228 -0.8435 0
M  V30 17 C 5.0036 -0.0799 0.5572 0
M  V30 18 H -4.377 -0.3034 -2.179 0
M  V30 19 H -4.7511 -0.6869 2.0346 0
M  V30 20 H -1.6264 0.0882 -2.282 0
M  V30 21 H -2.0554 -0.3789 2.6831 0
M  V30 22 H 0.1837 -0.0181 1.6683 0
M  V30 23 H 0.873 -0.0572 -1.9641 0
M  V30 24 H 3.1212 0.9395 -2.0876 0
M  V30 25 H 3.729 1.9272 -0.7267 0
M  V30 26 H 5.9451 -0.4851 0.131 0
M  V30 27 H 4.7415 -0.654 1.4705 0
M  V30 28 H 5.1679 0.9803 0.8422 0
M  V30 END ATOM
M  V30 BEGIN BOND
M  V30 1 2 1 2
M  V30 2 1 2 3
M  V30 3 1 2 4
M  V30 4 1 3 5
M  V30 5 1 4 6
M  V30 6 1 5 7
M  V30 7 1 6 8
M  V30 8 2 7 9
M  V30 9 2 8 10
M  V30 10 1 9 11
M  V30 11 1 11 12
M  V30 12 2 12 13
M  V30 13 1 12 14
M  V30 14 1 14 15
M  V30 15 2 15 16
M  V30 16 1 15 17
M  V30 17 2 5 6
M  V30 18 1 9 10
M  V30 19 1 3 18
M  V30 20 1 4 19
M  V30 21 1 7 20
M  V30 22 1 8 21
M  V30 23 1 10 22
M  V30 24 1 11 23
M  V30 25 1 14 24
M  V30 26 1 14 25
M  V30 27 1 17 26
M  V30 28 1 17 27
M  V30 29 1 17 28
M  V30 END BOND
M  V30 END CTAB
M  END
>  <Structure No>
2493

>  <LogS>
-2.522680786

>  <MMFF94 Energy>
-56.453

$$$$
Compound 2494
Actelion Java MolfileCreator 2.0

  0  0  0  0  0  0              0 V3000
M  V30 BEGIN CTAB
M  V30 COUNTS 18 19 0 0 0
M  V30 BEGIN ATOM
M  V30 1 O -4.0157 -0.4717 -0.0786 0
M  V30 2 C -2.7731 -0.269 -0.0544 0
M  V30 3 N -1.8584 -1.2625 -0.1593 0
M  V30 4 N -2.2261 0.9629 0.0789 0
M  V30 5 C -0.6827 -0.6163 -0.0876 0
M  V30 6 C -0.9043 0.7241 0.0559 0
M  V30 7 C 0.6018 -1.1511 -0.1426 0
M  V30 8 C 0.1406 1.6381 0.1561 0
M  V30 9 C 1.6903 -0.2568 -0.0444 0
M  V30 10 C 1.4543 1.1343 0.1046 0
M  V30 11 N 3.0298 -0.7537 -0.0951 0
M  V30 12 H -2.0273 -2.2872 -0.2696 0
M  V30 13 H -2.7158 1.8804 0.1767 0
M  V30 14 H 0.7547 -2.2167 -0.2566 0
M  V30 15 H -0.0487 2.6976 0.2695 0
M  V30 16 H 2.2874 1.8214 0.18 0
M  V30 17 H 3.2166 -1.7754 -0.2045 0
M  V30 18 H 3.8439 -0.1034 -0.0237 0
M  V30 END ATOM
M  V30 BEGIN BOND
M  V30 1 2 1 2
M  V30 2 1 2 3
M  V30 3 1 2 4
M  V30 4 1 3 5
M  V30 5 1 4 6
M  V30 6 1 5 7
M  V30 7 1 6 8
M  V30 8 2 7 9
M  V30 9 2 8 10
M  V30 10 1 9 11
M  V30 11 2 5 6
M  V30 12 1 9 10
M  V30 13 1 3 12
M  V30 14 1 4 13
M  V30 15 1 7 14
M  V30 16 1 8 15
M  V30 17 1 10 16
M  V30 18 1 11 17
M  V30 19 1 11 18
M  V30 END BOND
M  V30 END CTAB
M  END
>  <Structure No>
2494

>  <LogS>
-2.334782902

>  <MMFF94 Energy>
-38.264

$$$$
Compound 2495
Actelion Java MolfileCreator 2.0

  0  0  0  0  0  0              0 V3000
M  V30 BEGIN CTAB
M  V30 COUNTS 35 35 0 0 0
M  V30 BEGIN ATOM
M  V30 1 O -0.3139 1.0207 -0.3925 0
M  V30 2 C -1.7091 1.2301 -0.2075 0
M  V30 3 C -0.0167 -0.2456 -0.9642 0 CFG=2
M  V30 4 C -2.3683 0.0294 0.5163 0
M  V30 5 C -1.8591 2.4761 0.6826 0
M  V30 6 C -2.4065 1.5296 -1.5561 0
M  V30 7 O -0.4755 -1.3038 -0.1422 0
M  V30 8 C 1.5026 -0.3693 -1.1304 0
M  V30 9 C -1.885 -1.2899 -0.0955 0 CFG=1
M  V30 10 C 2.2518 -0.2732 0.2081 0
M  V30 11 C -2.3638 -2.4763 0.7401 0
M  V30 12 C 3.765 -0.4008 -6.0E-4 0
M  V30 13 C 4.5145 -0.3059 1.325 0
M  V30 14 H -0.4379 -0.3286 -1.9923 0
M  V30 15 H -2.0818 0.0427 1.5924 0
M  V30 16 H -3.4775 0.0966 0.4578 0
M  V30 17 H -1.3229 2.3319 1.6455 0
M  V30 18 H -1.4218 3.3663 0.1808 0
M  V30 19 H -2.9295 2.6818 0.9019 0
M  V30 20 H -1.8603 2.3305 -2.099 0
M  V30 21 H -3.4519 1.8683 -1.3886 0
M  V30 22 H -2.4532 0.6381 -2.2118 0
M  V30 23 H 1.8552 0.4381 -1.8094 0
M  V30 24 H 1.732 -1.3452 -1.6127 0
M  V30 25 H -2.3116 -1.4206 -1.1166 0
M  V30 26 H 1.9079 -1.0847 0.8864 0
M  V30 27 H 2.0315 0.7052 0.6887 0
M  V30 28 H -1.9488 -2.4221 1.7696 0
M  V30 29 H -3.4735 -2.486 0.7949 0
M  V30 30 H -2.0263 -3.4251 0.2718 0
M  V30 31 H 4.1203 0.4101 -0.6732 0
M  V30 32 H 3.9967 -1.3791 -0.4753 0
M  V30 33 H 5.6057 -0.4014 1.1428 0
M  V30 34 H 4.1958 -1.1221 2.008 0
M  V30 35 H 4.3199 0.6748 1.8093 0
M  V30 END ATOM
M  V30 BEGIN BOND
M  V30 1 1 1 2
M  V30 2 1 1 3
M  V30 3 1 2 4
M  V30 4 1 2 5
M  V30 5 1 2 6
M  V30 6 1 3 7
M  V30 7 1 3 8
M  V30 8 1 4 9
M  V30 9 1 8 10
M  V30 10 1 9 11
M  V30 11 1 10 12
M  V30 12 1 12 13
M  V30 13 1 7 9
M  V30 14 1 3 14
M  V30 15 1 4 15
M  V30 16 1 4 16
M  V30 17 1 5 17
M  V30 18 1 5 18
M  V30 19 1 5 19
M  V30 20 1 6 20
M  V30 21 1 6 21
M  V30 22 1 6 22
M  V30 23 1 8 23
M  V30 24 1 8 24
M  V30 25 1 9 25
M  V30 26 1 10 26
M  V30 27 1 10 27
M  V30 28 1 11 28
M  V30 29 1 11 29
M  V30 30 1 11 30
M  V30 31 1 12 31
M  V30 32 1 12 32
M  V30 33 1 13 33
M  V30 34 1 13 34
M  V30 35 1 13 35
M  V30 END BOND
M  V30 BEGIN COLLECTION
M  V30 MDLV30/STEABS ATOMS=(2 3 9)
M  V30 END COLLECTION
M  V30 END CTAB
M  END
>  <Structure No>
2495

>  <LogS>
-2.45329736

>  <MMFF94 Energy>
-5.5192

$$$$
Compound 2496
Actelion Java MolfileCreator 2.0

  0  0  0  0  0  0              0 V3000
M  V30 BEGIN CTAB
M  V30 COUNTS 23 23 0 0 0
M  V30 BEGIN ATOM
M  V30 1 O -0.8648 2.0451 0.0 0
M  V30 2 C -0.6099 0.8142 -0.1165 0
M  V30 3 C 0.8039 0.3613 -0.0283 0
M  V30 4 C -1.7592 -0.1533 -0.3059 0
M  V30 5 C 1.8454 1.2737 -0.286 0
M  V30 6 C 1.1366 -0.9611 0.329 0
M  V30 7 C -2.4168 -0.4625 1.0425 0
M  V30 8 C -2.792 0.4033 -1.2944 0
M  V30 9 C 3.1812 0.8701 -0.204 0
M  V30 10 C 2.4748 -1.3582 0.4102 0
M  V30 11 C 3.4958 -0.4448 0.142 0
M  V30 12 H -1.3836 -1.1025 -0.7438 0
M  V30 13 H 1.6268 2.2981 -0.5613 0
M  V30 14 H 0.3729 -1.6881 0.5669 0
M  V30 15 H -2.8436 0.4602 1.4917 0
M  V30 16 H -1.6714 -0.8889 1.7467 0
M  V30 17 H -3.2315 -1.2059 0.909 0
M  V30 18 H -3.2637 1.3289 -0.8991 0
M  V30 19 H -3.5885 -0.3492 -1.4774 0
M  V30 20 H -2.3039 0.6345 -2.2654 0
M  V30 21 H 3.9734 1.5785 -0.4093 0
M  V30 22 H 2.7205 -2.3754 0.6872 0
M  V30 23 H 4.5306 -0.7552 0.2062 0
M  V30 END ATOM
M  V30 BEGIN BOND
M  V30 1 2 1 2
M  V30 2 1 2 3
M  V30 3 1 2 4
M  V30 4 2 3 5
M  V30 5 1 3 6
M  V30 6 1 4 7
M  V30 7 1 4 8
M  V30 8 1 5 9
M  V30 9 2 6 10
M  V30 10 2 9 11
M  V30 11 1 10 11
M  V30 12 1 4 12
M  V30 13 1 5 13
M  V30 14 1 6 14
M  V30 15 1 7 15
M  V30 16 1 7 16
M  V30 17 1 7 17
M  V30 18 1 8 18
M  V30 19 1 8 19
M  V30 20 1 8 20
M  V30 21 1 9 21
M  V30 22 1 10 22
M  V30 23 1 11 23
M  V30 END BOND
M  V30 END CTAB
M  END
>  <Structure No>
2496

>  <LogS>
-2.35661526

>  <MMFF94 Energy>
39.684

$$$$
Compound 2497
Actelion Java MolfileCreator 2.0

  0  0  0  0  0  0              0 V3000
M  V30 BEGIN CTAB
M  V30 COUNTS 19 19 0 0 0
M  V30 BEGIN ATOM
M  V30 1 O 3.7466 -0.8949 -0.4067 0
M  V30 2 N 2.6649 -1.2014 -0.9498 0 CHG=1
M  V30 3 O 2.6791 -2.1015 -1.9907 0 CHG=-1
M  V30 4 C 1.4249 -0.6278 -0.4939 0
M  V30 5 C 1.4089 0.2894 0.5676 0
M  V30 6 C 0.2142 -0.9699 -1.1152 0
M  V30 7 C 0.2047 0.8415 1.0214 0
M  V30 8 C -1.0037 -0.4113 -0.6905 0
M  V30 9 N 0.2227 1.7581 2.1227 0
M  V30 10 C -1.0104 0.4774 0.412 0
M  V30 11 C -2.2335 -0.7461 -1.4422 0
M  V30 12 O -2.2 0.9832 0.9443 0
M  V30 13 O -2.3779 -1.8944 -1.9396 0
M  V30 14 O -3.2111 0.215 -1.6691 0 CHG=-1
M  V30 15 H 2.3344 0.5723 1.0532 0
M  V30 16 H 0.2209 -1.655 -1.9539 0
M  V30 17 H -0.6544 2.1906 2.4881 0
M  V30 18 H 1.1228 2.02 2.5836 0
M  V30 19 H -3.1157 0.6394 0.6896 0
M  V30 END ATOM
M  V30 BEGIN BOND
M  V30 1 2 1 2
M  V30 2 1 2 3
M  V30 3 1 2 4
M  V30 4 2 4 5
M  V30 5 1 4 6
M  V30 6 1 5 7
M  V30 7 2 6 8
M  V30 8 1 7 9
M  V30 9 2 7 10
M  V30 10 1 8 11
M  V30 11 1 10 12
M  V30 12 2 11 13
M  V30 13 1 11 14
M  V30 14 1 8 10
M  V30 15 1 5 15
M  V30 16 1 6 16
M  V30 17 1 9 17
M  V30 18 1 9 18
M  V30 19 1 12 19
M  V30 END BOND
M  V30 END CTAB
M  END
>  <Structure No>
2497

>  <LogS>
-2.490779033

>  <MMFF94 Energy>
33.729

$$$$
Compound 2498
Actelion Java MolfileCreator 2.0

  0  0  0  0  0  0              0 V3000
M  V30 BEGIN CTAB
M  V30 COUNTS 29 29 0 0 0
M  V30 BEGIN ATOM
M  V30 1 S 1.9396 -0.5654 -1.3736 0
M  V30 2 O 2.3252 0.2805 -2.5541 0
M  V30 3 O 1.702 -1.9654 -1.8682 0
M  V30 4 N 3.2546 -0.6088 -0.2364 0
M  V30 5 C 0.449 0.0778 -0.6453 0
M  V30 6 C 2.8088 -1.2072 1.0192 0
M  V30 7 C 0.3534 1.4034 -0.1537 0
M  V30 8 C -0.6671 -0.7696 -0.5517 0
M  V30 9 C -0.8464 1.831 0.437 0
M  V30 10 C 1.519 2.3573 -0.1636 0
M  V30 11 C -1.8713 -0.3288 0.0264 0
M  V30 12 C -1.9549 0.9811 0.5233 0
M  V30 13 O -2.9961 -1.1644 0.1253 0
M  V30 14 N -3.1641 1.458 1.1258 0
M  V30 15 C -3.0484 -2.5114 -0.3335 0
M  V30 16 H 3.5551 0.3726 -0.0453 0
M  V30 17 H 2.0463 -0.5684 1.515 0
M  V30 18 H 3.6769 -1.308 1.7036 0
M  V30 19 H 2.3918 -2.2211 0.8396 0
M  V30 20 H -0.5943 -1.7795 -0.927 0
M  V30 21 H -0.9219 2.8349 0.8379 0
M  V30 22 H 2.1863 2.1355 0.6939 0
M  V30 23 H 2.0879 2.2949 -1.1106 0
M  V30 24 H 1.175 3.4094 -0.0688 0
M  V30 25 H -3.2264 2.4322 1.4974 0
M  V30 26 H -4.0089 0.8504 1.2087 0
M  V30 27 H -4.0566 -2.9251 -0.1274 0
M  V30 28 H -2.2959 -3.127 0.2027 0
M  V30 29 H -2.866 -2.5493 -1.4281 0
M  V30 END ATOM
M  V30 BEGIN BOND
M  V30 1 2 1 2
M  V30 2 2 1 3
M  V30 3 1 1 4
M  V30 4 1 1 5
M  V30 5 1 4 6
M  V30 6 2 5 7
M  V30 7 1 5 8
M  V30 8 1 7 9
M  V30 9 1 7 10
M  V30 10 2 8 11
M  V30 11 2 9 12
M  V30 12 1 11 13
M  V30 13 1 12 14
M  V30 14 1 13 15
M  V30 15 1 11 12
M  V30 16 1 4 16
M  V30 17 1 6 17
M  V30 18 1 6 18
M  V30 19 1 6 19
M  V30 20 1 8 20
M  V30 21 1 9 21
M  V30 22 1 10 22
M  V30 23 1 10 23
M  V30 24 1 10 24
M  V30 25 1 14 25
M  V30 26 1 14 26
M  V30 27 1 15 27
M  V30 28 1 15 28
M  V30 29 1 15 29
M  V30 END BOND
M  V30 END CTAB
M  END
>  <Structure No>
2498

>  <LogS>
-2.576943359

>  <MMFF94 Energy>
-28.139

$$$$
Compound 2499
Actelion Java MolfileCreator 2.0

  0  0  0  0  0  0              0 V3000
M  V30 BEGIN CTAB
M  V30 COUNTS 25 25 0 0 0
M  V30 BEGIN ATOM
M  V30 1 O 4.2365 1.097 0.2349 0
M  V30 2 C 2.8837 0.7706 0.1715 0
M  V30 3 C 1.928 1.7867 0.1705 0
M  V30 4 C 2.4734 -0.5636 0.1089 0
M  V30 5 C 0.5659 1.4779 0.1072 0
M  V30 6 C 1.1139 -0.8796 0.0456 0
M  V30 7 C 0.1273 0.133 0.0433 0
M  V30 8 C -1.3637 -0.2562 -0.0276 0
M  V30 9 C -1.6281 -1.0467 -1.3274 0
M  V30 10 C -1.7249 -1.1351 1.1895 0
M  V30 11 C -2.3115 0.9674 -0.0211 0
M  V30 12 H 4.9543 0.3816 0.2375 0
M  V30 13 H 2.2412 2.8221 0.2189 0
M  V30 14 H 3.2075 -1.3593 0.1093 0
M  V30 15 H -0.1261 2.3063 0.1098 0
M  V30 16 H 0.8377 -1.9241 -0.0015 0
M  V30 17 H -2.7062 -1.3018 -1.4215 0
M  V30 18 H -1.3332 -0.4434 -2.2131 0
M  V30 19 H -1.0589 -1.9992 -1.3491 0
M  V30 20 H -2.8063 -1.3932 1.1827 0
M  V30 21 H -1.1565 -2.0884 1.1882 0
M  V30 22 H -1.5005 -0.596 2.1354 0
M  V30 23 H -3.3739 0.6436 -0.0732 0
M  V30 24 H -2.1197 1.6219 -0.8987 0
M  V30 25 H -2.1893 1.5583 0.9123 0
M  V30 END ATOM
M  V30 BEGIN BOND
M  V30 1 1 1 2
M  V30 2 2 2 3
M  V30 3 1 2 4
M  V30 4 1 3 5
M  V30 5 2 4 6
M  V30 6 2 5 7
M  V30 7 1 7 8
M  V30 8 1 8 9
M  V30 9 1 8 10
M  V30 10 1 8 11
M  V30 11 1 6 7
M  V30 12 1 1 12
M  V30 13 1 3 13
M  V30 14 1 4 14
M  V30 15 1 5 15
M  V30 16 1 6 16
M  V30 17 1 9 17
M  V30 18 1 9 18
M  V30 19 1 9 19
M  V30 20 1 10 20
M  V30 21 1 10 21
M  V30 22 1 10 22
M  V30 23 1 11 23
M  V30 24 1 11 24
M  V30 25 1 11 25
M  V30 END BOND
M  V30 END CTAB
M  END
>  <Structure No>
2499

>  <LogS>
-2.391400814

>  <MMFF94 Energy>
23.849

$$$$
Compound 2500
Actelion Java MolfileCreator 2.0

  0  0  0  0  0  0              0 V3000
M  V30 BEGIN CTAB
M  V30 COUNTS 12 11 0 0 0
M  V30 BEGIN ATOM
M  V30 1 Cl -1.9925 1.2125 -1.1258 0
M  V30 2 C -1.0336 0.0587 -0.1963 0
M  V30 3 C -1.3371 -1.2409 -0.2929 0
M  V30 4 C 0.119 0.5128 0.6781 0 CFG=2
M  V30 5 Cl 0.0024 2.247 1.11 0
M  V30 6 C 1.4749 0.217 0.0236 0
M  V30 7 Cl 1.6769 1.0769 -1.53 0
M  V30 8 H -0.7721 -1.9886 0.2554 0
M  V30 9 H -2.1569 -1.5705 -0.9232 0
M  V30 10 H 0.071 -0.0426 1.6404 0
M  V30 11 H 2.2926 0.5278 0.708 0
M  V30 12 H 1.5801 -0.8737 -0.1571 0
M  V30 END ATOM
M  V30 BEGIN BOND
M  V30 1 1 1 2
M  V30 2 2 2 3
M  V30 3 1 2 4
M  V30 4 1 4 5
M  V30 5 1 4 6
M  V30 6 1 6 7
M  V30 7 1 3 8
M  V30 8 1 3 9
M  V30 9 1 4 10
M  V30 10 1 6 11
M  V30 11 1 6 12
M  V30 END BOND
M  V30 BEGIN COLLECTION
M  V30 MDLV30/STEABS ATOMS=(1 4)
M  V30 END COLLECTION
M  V30 END CTAB
M  END
>  <Structure No>
2500

>  <LogS>
-2.424454207

>  <MMFF94 Energy>
21.888

$$$$
Compound 2501
Actelion Java MolfileCreator 2.0

  0  0  0  0  0  0              0 V3000
M  V30 BEGIN CTAB
M  V30 COUNTS 23 22 0 0 0
M  V30 BEGIN ATOM
M  V30 1 O 0.5425 0.3874 -1.9386 0
M  V30 2 C 0.1538 0.2021 -0.7529 0
M  V30 3 O 0.9971 -0.4009 0.1885 0
M  V30 4 C -1.2297 0.6318 -0.347 0 CFG=1
M  V30 5 C 2.3409 -0.7847 -0.0934 0
M  V30 6 C -2.0512 -0.5588 0.1865 0
M  V30 7 C -1.1354 1.7374 0.7089 0
M  V30 8 C 3.2531 0.4359 -0.1219 0
M  V30 9 C -2.3168 -1.6098 -0.8917 0
M  V30 10 H -1.7552 1.0571 -1.2318 0
M  V30 11 H 2.3936 -1.3299 -1.0607 0
M  V30 12 H 2.6879 -1.4704 0.708 0
M  V30 13 H -3.0336 -0.1908 0.5558 0
M  V30 14 H -1.5264 -1.0372 1.0426 0
M  V30 15 H -0.6438 1.361 1.6319 0
M  V30 16 H -0.5489 2.5947 0.3139 0
M  V30 17 H -2.1509 2.1052 0.9696 0
M  V30 18 H 2.9581 1.121 -0.9438 0
M  V30 19 H 3.1895 0.9787 0.8448 0
M  V30 20 H 4.3029 0.1137 -0.2858 0
M  V30 21 H -2.956 -2.4158 -0.4738 0
M  V30 22 H -2.8434 -1.1521 -1.756 0
M  V30 23 H -1.3645 -2.0628 -1.2393 0
M  V30 END ATOM
M  V30 BEGIN BOND
M  V30 1 2 1 2
M  V30 2 1 2 3
M  V30 3 1 2 4
M  V30 4 1 3 5
M  V30 5 1 4 6
M  V30 6 1 4 7
M  V30 7 1 5 8
M  V30 8 1 6 9
M  V30 9 1 4 10
M  V30 10 1 5 11
M  V30 11 1 5 12
M  V30 12 1 6 13
M  V30 13 1 6 14
M  V30 14 1 7 15
M  V30 15 1 7 16
M  V30 16 1 7 17
M  V30 17 1 8 18
M  V30 18 1 8 19
M  V30 19 1 8 20
M  V30 20 1 9 21
M  V30 21 1 9 22
M  V30 22 1 9 23
M  V30 END BOND
M  V30 BEGIN COLLECTION
M  V30 MDLV30/STEABS ATOMS=(1 4)
M  V30 END COLLECTION
M  V30 END CTAB
M  END
>  <Structure No>
2501

>  <LogS>
-2.336416369

>  <MMFF94 Energy>
-7.7979

$$$$
Compound 2502
Actelion Java MolfileCreator 2.0

  0  0  0  0  0  0              0 V3000
M  V30 BEGIN CTAB
M  V30 COUNTS 29 29 0 0 0
M  V30 BEGIN ATOM
M  V30 1 O 4.0315 -0.7105 0.7895 0
M  V30 2 C 2.9709 -0.463 0.2363 0
M  V30 3 C 2.4969 0.9531 0.0995 0
M  V30 4 C 2.168 -1.561 -0.3947 0
M  V30 5 C 1.0073 1.0532 0.4519 0
M  V30 6 C 0.6848 -1.4125 -0.0327 0
M  V30 7 C 0.1545 0.0184 -0.3379 0
M  V30 8 C -1.4035 0.1781 -0.1126 0
M  V30 9 C -1.8624 1.5992 -0.5241 0
M  V30 10 C -1.8131 -0.0577 1.3595 0
M  V30 11 C -2.1797 -0.8258 -1.0008 0
M  V30 12 H 3.0801 1.622 0.7697 0
M  V30 13 H 2.6564 1.2864 -0.9486 0
M  V30 14 H 2.5339 -2.5532 -0.051 0
M  V30 15 H 2.2908 -1.5081 -1.498 0
M  V30 16 H 0.6901 2.0893 0.2199 0
M  V30 17 H 0.893 0.8922 1.5452 0
M  V30 18 H 0.5608 -1.6473 1.0459 0
M  V30 19 H 0.1324 -2.1741 -0.6181 0
M  V30 20 H 0.3419 0.2068 -1.4202 0
M  V30 21 H -1.5076 2.368 0.1927 0
M  V30 22 H -2.9718 1.6723 -0.5352 0
M  V30 23 H -1.4903 1.8543 -1.5397 0
M  V30 24 H -1.3262 0.6722 2.0381 0
M  V30 25 H -1.5559 -1.0838 1.6929 0
M  V30 26 H -2.9121 0.0629 1.4775 0
M  V30 27 H -1.8334 -0.7677 -2.0552 0
M  V30 28 H -2.0617 -1.8683 -0.6401 0
M  V30 29 H -3.2706 -0.6121 -0.9843 0
M  V30 END ATOM
M  V30 BEGIN BOND
M  V30 1 2 1 2
M  V30 2 1 2 3
M  V30 3 1 2 4
M  V30 4 1 3 5
M  V30 5 1 4 6
M  V30 6 1 5 7
M  V30 7 1 7 8
M  V30 8 1 8 9
M  V30 9 1 8 10
M  V30 10 1 8 11
M  V30 11 1 6 7
M  V30 12 1 3 12
M  V30 13 1 3 13
M  V30 14 1 4 14
M  V30 15 1 4 15
M  V30 16 1 5 16
M  V30 17 1 5 17
M  V30 18 1 6 18
M  V30 19 1 6 19
M  V30 20 1 7 20
M  V30 21 1 9 21
M  V30 22 1 9 22
M  V30 23 1 9 23
M  V30 24 1 10 24
M  V30 25 1 10 25
M  V30 26 1 10 26
M  V30 27 1 11 27
M  V30 28 1 11 28
M  V30 29 1 11 29
M  V30 END BOND
M  V30 END CTAB
M  END
>  <Structure No>
2502

>  <LogS>
-2.417381608

>  <MMFF94 Energy>
23.373

$$$$
Compound 2503
Actelion Java MolfileCreator 2.0

  0  0  0  0  0  0              0 V3000
M  V30 BEGIN CTAB
M  V30 COUNTS 29 30 0 0 0
M  V30 BEGIN ATOM
M  V30 1 O -2.3168 -0.1596 -1.5973 0
M  V30 2 C -0.9274 -0.1628 -1.3891 0 CFG=1
M  V30 3 C -0.5242 0.608 -0.0963 0 CFG=2
M  V30 4 C -0.3959 -1.5868 -1.1004 0
M  V30 5 C 0.8519 -0.0069 0.2522 0
M  V30 6 C -1.4313 0.0946 1.0583 0
M  V30 7 C -0.5524 2.1328 -0.26 0
M  V30 8 C 0.274 -1.4319 0.2887 0 CFG=1
M  V30 9 C 1.9718 0.1889 -0.8162 0
M  V30 10 C 1.4718 0.4566 1.6072 0
M  V30 11 C -0.881 -1.322 1.3134 0
M  V30 12 H -2.4692 -0.5778 -2.4846 0
M  V30 13 H -0.4277 0.2775 -2.282 0
M  V30 14 H 0.3444 -1.9026 -1.8656 0
M  V30 15 H -1.209 -2.3461 -1.0906 0
M  V30 16 H -2.5088 0.0686 0.7905 0
M  V30 17 H -1.3411 0.7283 1.9663 0
M  V30 18 H -1.5835 2.4665 -0.5021 0
M  V30 19 H 0.1225 2.4496 -1.0822 0
M  V30 20 H -0.2323 2.6321 0.6782 0
M  V30 21 H 1.0082 -2.2319 0.5248 0
M  V30 22 H 1.6979 -0.1015 -1.8462 0
M  V30 23 H 2.2828 1.2545 -0.8527 0
M  V30 24 H 2.8608 -0.4185 -0.5422 0
M  V30 25 H 1.8235 1.5073 1.5271 0
M  V30 26 H 2.3473 -0.1803 1.8558 0
M  V30 27 H 0.7902 0.4149 2.4758 0
M  V30 28 H -0.5051 -1.4309 2.353 0
M  V30 29 H -1.6631 -2.0966 1.1541 0
M  V30 END ATOM
M  V30 BEGIN BOND
M  V30 1 1 1 2
M  V30 2 1 2 3
M  V30 3 1 2 4
M  V30 4 1 3 5
M  V30 5 1 3 6
M  V30 6 1 3 7
M  V30 7 1 4 8
M  V30 8 1 5 9
M  V30 9 1 5 10
M  V30 10 1 6 11
M  V30 11 1 5 8
M  V30 12 1 8 11
M  V30 13 1 1 12
M  V30 14 1 2 13
M  V30 15 1 4 14
M  V30 16 1 4 15
M  V30 17 1 6 16
M  V30 18 1 6 17
M  V30 19 1 7 18
M  V30 20 1 7 19
M  V30 21 1 7 20
M  V30 22 1 8 21
M  V30 23 1 9 22
M  V30 24 1 9 23
M  V30 25 1 9 24
M  V30 26 1 10 25
M  V30 27 1 10 26
M  V30 28 1 10 27
M  V30 29 1 11 28
M  V30 30 1 11 29
M  V30 END BOND
M  V30 BEGIN COLLECTION
M  V30 MDLV30/STEABS ATOMS=(3 2 3 8)
M  V30 END COLLECTION
M  V30 END CTAB
M  END
>  <Structure No>
2503

>  <LogS>
-2.420558395

>  <MMFF94 Energy>
54.851

$$$$
Compound 2504
Actelion Java MolfileCreator 2.0

  0  0  0  0  0  0              0 V3000
M  V30 BEGIN CTAB
M  V30 COUNTS 14 14 0 0 0
M  V30 BEGIN ATOM
M  V30 1 Cl 2.8401 -1.6699 0.7512 0
M  V30 2 C 1.5031 -0.6071 0.3319 0
M  V30 3 C 1.7157 0.7519 0.0425 0
M  V30 4 C 0.2061 -1.1335 0.2882 0
M  V30 5 Cl 3.3278 1.4528 0.0862 0
M  V30 6 C 0.6291 1.5701 -0.2874 0
M  V30 7 C -0.8816 -0.3127 -0.0426 0
M  V30 8 C -0.6639 1.0415 -0.3302 0
M  V30 9 N -2.2047 -0.8539 -0.0863 0
M  V30 10 H 0.0445 -2.1808 0.5116 0
M  V30 11 H 0.7854 2.6178 -0.5115 0
M  V30 12 H -1.4951 1.6862 -0.5871 0
M  V30 13 H -2.3774 -1.8617 0.1264 0
M  V30 14 H -3.0213 -0.2506 -0.3316 0
M  V30 END ATOM
M  V30 BEGIN BOND
M  V30 1 1 1 2
M  V30 2 2 2 3
M  V30 3 1 2 4
M  V30 4 1 3 5
M  V30 5 1 3 6
M  V30 6 2 4 7
M  V30 7 2 6 8
M  V30 8 1 7 9
M  V30 9 1 7 8
M  V30 10 1 4 10
M  V30 11 1 6 11
M  V30 12 1 8 12
M  V30 13 1 9 13
M  V30 14 1 9 14
M  V30 END BOND
M  V30 END CTAB
M  END
>  <Structure No>
2504

>  <LogS>
-2.446137954

>  <MMFF94 Energy>
13.793

$$$$
Compound 2505
Actelion Java MolfileCreator 2.0

  0  0  0  0  0  0              0 V3000
M  V30 BEGIN CTAB
M  V30 COUNTS 72 71 0 0 0
M  V30 BEGIN ATOM
M  V30 1 O -3.2988 2.5126 0.2353 0
M  V30 2 C -2.597 2.4785 -0.8113 0
M  V30 3 O -2.2929 1.2625 -1.4342 0
M  V30 4 C -2.0276 3.7486 -1.3634 0
M  V30 5 C -2.7135 -0.0081 -0.9406 0
M  V30 6 C -0.85 4.2537 -0.5194 0
M  V30 7 C -4.14 -0.33 -1.3837 0
M  V30 8 C 0.3629 3.3145 -0.5929 0
M  V30 9 O -5.0502 0.5344 -0.7362 0
M  V30 10 C 1.5158 3.8397 0.2695 0
M  V30 11 C -6.3806 0.0892 -0.918 0
M  V30 12 C 2.6941 2.9164 0.2112 0
M  V30 13 C -6.8263 -0.7435 0.2859 0
M  V30 14 O 3.8375 3.3774 -0.061 0
M  V30 15 O 2.5217 1.5582 0.4999 0
M  V30 16 O -8.1503 -1.2051 0.0937 0
M  V30 17 C 3.5969 0.623 0.5505 0
M  V30 18 C -9.0667 -0.4094 0.8196 0
M  V30 19 C 4.3659 0.7604 1.8652 0
M  V30 20 C -10.4994 -0.8723 0.5322 0
M  V30 21 O 5.3733 -0.23 1.9417 0
M  V30 22 C -10.8895 -2.1572 1.2839 0
M  V30 23 C 6.6283 0.3116 1.5836 0
M  V30 24 C -10.1541 -3.3979 0.7764 0
M  V30 25 C 7.6503 -0.8118 1.4728 0
M  V30 26 O 7.2776 -1.679 0.4204 0
M  V30 27 C 8.2803 -2.6543 0.2006 0
M  V30 28 C 9.1919 -2.2207 -0.952 0
M  V30 29 C 10.2206 -3.3072 -1.2841 0
M  V30 30 C 11.121 -2.8784 -2.4388 0
M  V30 31 H -1.702 3.5898 -2.4143 0
M  V30 32 H -2.8229 4.5245 -1.3739 0
M  V30 33 H -2.6286 -0.0485 0.1681 0
M  V30 34 H -2.0334 -0.7798 -1.3594 0
M  V30 35 H -0.5543 5.2569 -0.8963 0
M  V30 36 H -1.1741 4.372 0.5382 0
M  V30 37 H -4.3417 -1.3951 -1.1282 0
M  V30 38 H -4.2105 -0.2041 -2.4864 0
M  V30 39 H 0.0705 2.3042 -0.231 0
M  V30 40 H 0.7009 3.2293 -1.6497 0
M  V30 41 H 1.8145 4.851 -0.0842 0
M  V30 42 H 1.1852 3.9248 1.327 0
M  V30 43 H -6.5349 -0.4788 -1.8667 0
M  V30 44 H -7.0331 0.9869 -0.9839 0
M  V30 45 H -6.1694 -1.6325 0.3731 0
M  V30 46 H -6.6813 -0.1551 1.2223 0
M  V30 47 H 4.2733 0.7674 -0.3191 0
M  V30 48 H 3.1733 -0.4013 0.4882 0
M  V30 49 H -8.982 0.6572 0.5056 0
M  V30 50 H -8.8727 -0.4782 1.9155 0
M  V30 51 H 4.7487 1.8024 1.9862 0
M  V30 52 H 3.6567 0.5891 2.7028 0
M  V30 53 H -11.1934 -0.0659 0.8583 0
M  V30 54 H -10.6434 -1.0068 -0.5629 0
M  V30 55 H -11.9807 -2.3217 1.1468 0
M  V30 56 H -10.7064 -2.0336 2.3746 0
M  V30 57 H 6.5799 0.8416 0.6034 0
M  V30 58 H 6.9729 1.0222 2.3694 0
M  V30 59 H -10.2426 -3.4784 -0.328 0
M  V30 60 H -9.0828 -3.366 1.0644 0
M  V30 61 H -10.6038 -4.305 1.2335 0
M  V30 62 H 8.6483 -0.3537 1.2822 0
M  V30 63 H 7.6775 -1.3635 2.4407 0
M  V30 64 H 8.8866 -2.885 1.1102 0
M  V30 65 H 7.7712 -3.5995 -0.0857 0
M  V30 66 H 8.567 -2.0143 -1.8486 0
M  V30 67 H 9.7212 -1.2853 -0.6706 0
M  V30 68 H 9.6951 -4.2449 -1.5668 0
M  V30 69 H 10.8524 -3.5106 -0.3922 0
M  V30 70 H 10.5145 -2.6855 -3.3495 0
M  V30 71 H 11.8499 -3.686 -2.6604 0
M  V30 72 H 11.6835 -1.9587 -2.1691 0
M  V30 END ATOM
M  V30 BEGIN BOND
M  V30 1 2 1 2
M  V30 2 1 2 3
M  V30 3 1 2 4
M  V30 4 1 3 5
M  V30 5 1 4 6
M  V30 6 1 5 7
M  V30 7 1 6 8
M  V30 8 1 7 9
M  V30 9 1 8 10
M  V30 10 1 9 11
M  V30 11 1 10 12
M  V30 12 1 11 13
M  V30 13 2 12 14
M  V30 14 1 12 15
M  V30 15 1 13 16
M  V30 16 1 15 17
M  V30 17 1 16 18
M  V30 18 1 17 19
M  V30 19 1 18 20
M  V30 20 1 19 21
M  V30 21 1 20 22
M  V30 22 1 21 23
M  V30 23 1 22 24
M  V30 24 1 23 25
M  V30 25 1 25 26
M  V30 26 1 26 27
M  V30 27 1 27 28
M  V30 28 1 28 29
M  V30 29 1 29 30
M  V30 30 1 4 31
M  V30 31 1 4 32
M  V30 32 1 5 33
M  V30 33 1 5 34
M  V30 34 1 6 35
M  V30 35 1 6 36
M  V30 36 1 7 37
M  V30 37 1 7 38
M  V30 38 1 8 39
M  V30 39 1 8 40
M  V30 40 1 10 41
M  V30 41 1 10 42
M  V30 42 1 11 43
M  V30 43 1 11 44
M  V30 44 1 13 45
M  V30 45 1 13 46
M  V30 46 1 17 47
M  V30 47 1 17 48
M  V30 48 1 18 49
M  V30 49 1 18 50
M  V30 50 1 19 51
M  V30 51 1 19 52
M  V30 52 1 20 53
M  V30 53 1 20 54
M  V30 54 1 22 55
M  V30 55 1 22 56
M  V30 56 1 23 57
M  V30 57 1 23 58
M  V30 58 1 24 59
M  V30 59 1 24 60
M  V30 60 1 24 61
M  V30 61 1 25 62
M  V30 62 1 25 63
M  V30 63 1 27 64
M  V30 64 1 27 65
M  V30 65 1 28 66
M  V30 66 1 28 67
M  V30 67 1 29 68
M  V30 68 1 29 69
M  V30 69 1 30 70
M  V30 70 1 30 71
M  V30 71 1 30 72
M  V30 END BOND
M  V30 END CTAB
M  END
>  <Structure No>
2505

>  <LogS>
-2.882184886

>  <MMFF94 Energy>
59.173

$$$$
Compound 2506
Actelion Java MolfileCreator 2.0

  0  0  0  0  0  0              0 V3000
M  V30 BEGIN CTAB
M  V30 COUNTS 19 19 0 0 0
M  V30 BEGIN ATOM
M  V30 1 O 2.4219 -0.7026 0.1561 0
M  V30 2 C 1.0511 -0.4047 0.1487 0
M  V30 3 C 3.3966 -0.0211 -0.6266 0
M  V30 4 C 0.5046 0.6188 -0.6491 0
M  V30 5 C 0.2026 -1.1558 0.9706 0
M  V30 6 C -0.8695 0.8763 -0.6215 0
M  V30 7 C -1.1711 -0.8984 0.9982 0
M  V30 8 C -1.718 0.1093 0.1905 0
M  V30 9 C -3.1859 0.4124 0.2492 0
M  V30 10 H 3.4211 1.055 -0.3535 0
M  V30 11 H 4.3947 -0.4611 -0.4262 0
M  V30 12 H 3.1672 -0.1364 -1.707 0
M  V30 13 H 1.1322 1.2226 -1.29 0
M  V30 14 H 0.6111 -1.9411 1.594 0
M  V30 15 H -1.2718 1.6737 -1.2343 0
M  V30 16 H -1.8077 -1.4854 1.6487 0
M  V30 17 H -3.5432 0.8097 -0.7245 0
M  V30 18 H -3.7668 -0.5062 0.4787 0
M  V30 19 H -3.3755 1.1678 1.0401 0
M  V30 END ATOM
M  V30 BEGIN BOND
M  V30 1 1 1 2
M  V30 2 1 1 3
M  V30 3 2 2 4
M  V30 4 1 2 5
M  V30 5 1 4 6
M  V30 6 2 5 7
M  V30 7 2 6 8
M  V30 8 1 8 9
M  V30 9 1 7 8
M  V30 10 1 3 10
M  V30 11 1 3 11
M  V30 12 1 3 12
M  V30 13 1 4 13
M  V30 14 1 5 14
M  V30 15 1 6 15
M  V30 16 1 7 16
M  V30 17 1 9 17
M  V30 18 1 9 18
M  V30 19 1 9 19
M  V30 END BOND
M  V30 END CTAB
M  END
>  <Structure No>
2506

>  <LogS>
-2.339542101

>  <MMFF94 Energy>
22.583

$$$$
Compound 2507
Actelion Java MolfileCreator 2.0

  0  0  0  0  0  0              0 V3000
M  V30 BEGIN CTAB
M  V30 COUNTS 43 45 0 0 0
M  V30 BEGIN ATOM
M  V30 1 O -4.4419 1.9811 -0.3167 0
M  V30 2 C -3.853 1.5952 0.9061 0
M  V30 3 C -3.4602 2.5548 -1.1613 0
M  V30 4 C -2.8804 0.419 0.6914 0
M  V30 5 C -2.1708 1.7052 -1.2461 0
M  V30 6 N -2.399 0.3467 -0.7115 0 CHG=1
M  V30 7 C -1.1546 -0.4506 -0.8223 0
M  V30 8 C -1.3803 -1.9404 -0.4953 0
M  V30 9 C -0.121 -2.7775 -0.7449 0
M  V30 10 N 0.9115 -2.4621 0.2425 0
M  V30 11 C 2.0364 -1.6177 -0.0569 0
M  V30 12 C 2.3899 -0.5351 0.788 0
M  V30 13 C 2.8222 -1.8944 -1.1872 0
M  V30 14 C 3.532 0.2495 0.4733 0
M  V30 15 C 1.6211 -0.1896 1.9196 0
M  V30 16 C 3.94 -1.116 -1.4869 0
M  V30 17 C 4.2966 -0.0512 -0.6617 0
M  V30 18 C 3.889 1.3307 1.2945 0
M  V30 19 C 1.9892 0.8913 2.7242 0
M  V30 20 C 3.1203 1.6465 2.4152 0
M  V30 21 H -3.3265 2.4553 1.3807 0
M  V30 22 H -4.6562 1.2862 1.6076 0
M  V30 23 H -3.8981 2.6431 -2.1781 0
M  V30 24 H -3.2209 3.5867 -0.8213 0
M  V30 25 H -2.0319 0.5305 1.4042 0
M  V30 26 H -3.4129 -0.5234 0.9472 0
M  V30 27 H -1.8417 1.656 -2.3089 0
M  V30 28 H -1.3644 2.2122 -0.6673 0
M  V30 29 H -3.1373 -0.1098 -1.3005 0
M  V30 30 H -0.3705 -0.0316 -0.155 0
M  V30 31 H -0.7651 -0.3894 -1.8642 0
M  V30 32 H -1.685 -2.0635 0.5653 0
M  V30 33 H -2.1974 -2.334 -1.1376 0
M  V30 34 H -0.3809 -3.8535 -0.6537 0
M  V30 35 H 0.2429 -2.6108 -1.7811 0
M  V30 36 H 0.7356 -2.747 1.2321 0
M  V30 37 H 2.5836 -2.7333 -1.828 0
M  V30 38 H 0.7239 -0.7318 2.1831 0
M  V30 39 H 4.5381 -1.3456 -2.3594 0
M  V30 40 H 5.1703 0.539 -0.9122 0
M  V30 41 H 4.759 1.935 1.0659 0
M  V30 42 H 1.3906 1.1482 3.5886 0
M  V30 43 H 3.3985 2.4835 3.0426 0
M  V30 END ATOM
M  V30 BEGIN BOND
M  V30 1 1 1 2
M  V30 2 1 1 3
M  V30 3 1 2 4
M  V30 4 1 3 5
M  V30 5 1 4 6
M  V30 6 1 6 7
M  V30 7 1 7 8
M  V30 8 1 8 9
M  V30 9 1 9 10
M  V30 10 1 10 11
M  V30 11 1 11 12
M  V30 12 2 11 13
M  V30 13 1 12 14
M  V30 14 2 12 15
M  V30 15 1 13 16
M  V30 16 1 14 17
M  V30 17 2 14 18
M  V30 18 1 15 19
M  V30 19 1 18 20
M  V30 20 1 5 6
M  V30 21 2 16 17
M  V30 22 2 19 20
M  V30 23 1 2 21
M  V30 24 1 2 22
M  V30 25 1 3 23
M  V30 26 1 3 24
M  V30 27 1 4 25
M  V30 28 1 4 26
M  V30 29 1 5 27
M  V30 30 1 5 28
M  V30 31 1 6 29
M  V30 32 1 7 30
M  V30 33 1 7 31
M  V30 34 1 8 32
M  V30 35 1 8 33
M  V30 36 1 9 34
M  V30 37 1 9 35
M  V30 38 1 10 36
M  V30 39 1 13 37
M  V30 40 1 15 38
M  V30 41 1 16 39
M  V30 42 1 17 40
M  V30 43 1 18 41
M  V30 44 1 19 42
M  V30 45 1 20 43
M  V30 END BOND
M  V30 END CTAB
M  END
>  <Structure No>
2507

>  <LogS>
-2.702803349

>  <MMFF94 Energy>
117.44

$$$$
Compound 2508
Actelion Java MolfileCreator 2.0

  0  0  0  0  0  0              0 V3000
M  V30 BEGIN CTAB
M  V30 COUNTS 23 24 0 0 0
M  V30 BEGIN ATOM
M  V30 1 O -1.1898 -2.1424 0.5551 0
M  V30 2 C -1.6271 -0.8475 0.2688 0
M  V30 3 C -0.7244 0.217 0.0299 0
M  V30 4 C -3.0062 -0.6045 0.246 0
M  V30 5 C 0.7388 0.0059 -0.0184 0
M  V30 6 C -1.2317 1.5103 -0.1873 0
M  V30 7 C -3.4957 0.6829 0.0158 0
M  V30 8 C 1.5875 0.7381 0.8287 0
M  V30 9 C 1.2981 -0.8924 -0.9433 0
M  V30 10 C -2.6095 1.7399 -0.1944 0
M  V30 11 C 2.9727 0.5564 0.7664 0
M  V30 12 C 2.6837 -1.0712 -1.0022 0
M  V30 13 C 3.5202 -0.3487 -0.1468 0
M  V30 14 H -0.2146 -2.3788 0.6842 0
M  V30 15 H -3.701 -1.4159 0.4226 0
M  V30 16 H -0.5589 2.3396 -0.3701 0
M  V30 17 H -4.5631 0.8622 0.0063 0
M  V30 18 H 1.1762 1.4427 1.5413 0
M  V30 19 H 0.6615 -1.4491 -1.6202 0
M  V30 20 H -2.9906 2.7378 -0.3699 0
M  V30 21 H 3.6218 1.1183 1.4255 0
M  V30 22 H 3.1092 -1.7668 -1.7138 0
M  V30 23 H 4.5925 -0.4875 -0.1943 0
M  V30 END ATOM
M  V30 BEGIN BOND
M  V30 1 1 1 2
M  V30 2 2 2 3
M  V30 3 1 2 4
M  V30 4 1 3 5
M  V30 5 1 3 6
M  V30 6 2 4 7
M  V30 7 2 5 8
M  V30 8 1 5 9
M  V30 9 2 6 10
M  V30 10 1 8 11
M  V30 11 2 9 12
M  V30 12 2 11 13
M  V30 13 1 7 10
M  V30 14 1 12 13
M  V30 15 1 1 14
M  V30 16 1 4 15
M  V30 17 1 6 16
M  V30 18 1 7 17
M  V30 19 1 8 18
M  V30 20 1 9 19
M  V30 21 1 10 20
M  V30 22 1 11 21
M  V30 23 1 12 22
M  V30 24 1 13 23
M  V30 END BOND
M  V30 END CTAB
M  END
>  <Structure No>
2508

>  <LogS>
-2.506711754

>  <MMFF94 Energy>
41.137

$$$$
Compound 2509
Actelion Java MolfileCreator 2.0

  0  0  0  0  0  0              0 V3000
M  V30 BEGIN CTAB
M  V30 COUNTS 28 28 0 0 0
M  V30 BEGIN ATOM
M  V30 1 O 1.6478 -1.8048 -0.9413 0
M  V30 2 C 1.7201 -0.6435 -0.1748 0
M  V30 3 C 0.5411 0.0104 0.2905 0
M  V30 4 C 2.9893 -0.1411 0.1512 0
M  V30 5 C 0.7188 1.1013 1.1808 0
M  V30 6 C -0.8788 -0.534 -0.0371 0
M  V30 7 C 3.1223 0.9709 0.9758 0
M  V30 8 C 1.9898 1.5819 1.5003 0
M  V30 9 C -2.0283 0.4959 0.235 0
M  V30 10 C -0.9988 -0.9804 -1.522 0
M  V30 11 C -1.1315 -1.757 0.8685 0
M  V30 12 C -1.9627 1.7655 -0.626 0
M  V30 13 H 2.4782 -2.2828 -1.2713 0
M  V30 14 H 3.8804 -0.6295 -0.2226 0
M  V30 15 H -0.1127 1.607 1.6432 0
M  V30 16 H 4.1062 1.3456 1.2272 0
M  V30 17 H 2.0953 2.4296 2.1655 0
M  V30 18 H -3.0114 0.014 0.0345 0
M  V30 19 H -2.0715 0.7737 1.3089 0
M  V30 20 H -0.5779 -1.9907 -1.6981 0
M  V30 21 H -0.49 -0.2551 -2.1926 0
M  V30 22 H -2.0624 -1.0529 -1.8368 0
M  V30 23 H -0.3644 -2.5431 0.7019 0
M  V30 24 H -1.0943 -1.4617 1.9397 0
M  V30 25 H -2.129 -2.2024 0.6624 0
M  V30 26 H -0.9748 2.2619 -0.5553 0
M  V30 27 H -2.7382 2.4821 -0.2824 0
M  V30 28 H -2.167 1.5264 -1.6904 0
M  V30 END ATOM
M  V30 BEGIN BOND
M  V30 1 1 1 2
M  V30 2 2 2 3
M  V30 3 1 2 4
M  V30 4 1 3 5
M  V30 5 1 3 6
M  V30 6 2 4 7
M  V30 7 2 5 8
M  V30 8 1 6 9
M  V30 9 1 6 10
M  V30 10 1 6 11
M  V30 11 1 9 12
M  V30 12 1 7 8
M  V30 13 1 1 13
M  V30 14 1 4 14
M  V30 15 1 5 15
M  V30 16 1 7 16
M  V30 17 1 8 17
M  V30 18 1 9 18
M  V30 19 1 9 19
M  V30 20 1 10 20
M  V30 21 1 10 21
M  V30 22 1 10 22
M  V30 23 1 11 23
M  V30 24 1 11 24
M  V30 25 1 11 25
M  V30 26 1 12 26
M  V30 27 1 12 27
M  V30 28 1 12 28
M  V30 END BOND
M  V30 END CTAB
M  END
>  <Structure No>
2509

>  <LogS>
-2.49122422

>  <MMFF94 Energy>
30.034

$$$$
Compound 2510
Actelion Java MolfileCreator 2.0

  0  0  0  0  0  0              0 V3000
M  V30 BEGIN CTAB
M  V30 COUNTS 34 35 0 0 0
M  V30 BEGIN ATOM
M  V30 1 N 3.1723 1.1094 0.3961 0 CHG=1
M  V30 2 C 2.2272 0.0578 0.7738 0
M  V30 3 C 1.2702 -0.3346 -0.3829 0 CFG=2
M  V30 4 C 0.3314 0.853 -0.8841 0 CFG=2
M  V30 5 C 0.4684 -1.648 -0.0087 0
M  V30 6 C -1.0858 0.3255 -1.3 0 CFG=2
M  V30 7 C 0.9472 1.6069 -2.077 0
M  V30 8 C -0.9719 -1.6595 -0.6015 0 CFG=1
M  V30 9 C -1.7701 -0.4221 -0.1314 0
M  V30 10 C -0.8841 -1.0322 -1.9991 0
M  V30 11 C -1.5661 0.0963 1.3144 0
M  V30 12 C -3.2936 -0.5928 -0.3663 0
M  V30 13 H 3.6368 0.8799 -0.512 0
M  V30 14 H 3.9083 1.1843 1.1352 0
M  V30 15 H 2.6806 2.0294 0.3372 0
M  V30 16 H 2.8062 -0.8452 1.0716 0
M  V30 17 H 1.6611 0.3861 1.6691 0
M  V30 18 H 1.9259 -0.6252 -1.2351 0
M  V30 19 H 0.2013 1.6026 -0.0743 0
M  V30 20 H 1.0172 -2.5305 -0.4042 0
M  V30 21 H 0.4097 -1.7954 1.0909 0
M  V30 22 H -1.7318 1.0497 -1.8442 0
M  V30 23 H 1.0863 0.9323 -2.9476 0
M  V30 24 H 0.2809 2.4418 -2.3825 0
M  V30 25 H 1.9299 2.0439 -1.8171 0
M  V30 26 H -1.5021 -2.6353 -0.5471 0
M  V30 27 H -1.7432 -1.3105 -2.6472 0
M  V30 28 H 0.0712 -1.1865 -2.5468 0
M  V30 29 H -2.0077 -0.6243 2.0351 0
M  V30 30 H -0.5198 0.243 1.6103 0
M  V30 31 H -2.08 1.0735 1.4358 0
M  V30 32 H -3.7105 -1.3211 0.3618 0
M  V30 33 H -3.8102 0.3809 -0.2267 0
M  V30 34 H -3.5412 -0.9588 -1.3832 0
M  V30 END ATOM
M  V30 BEGIN BOND
M  V30 1 1 1 2
M  V30 2 1 2 3
M  V30 3 1 3 4
M  V30 4 1 3 5
M  V30 5 1 4 6
M  V30 6 1 4 7
M  V30 7 1 5 8
M  V30 8 1 6 9
M  V30 9 1 6 10
M  V30 10 1 9 11
M  V30 11 1 9 12
M  V30 12 1 8 9
M  V30 13 1 8 10
M  V30 14 1 1 13
M  V30 15 1 1 14
M  V30 16 1 1 15
M  V30 17 1 2 16
M  V30 18 1 2 17
M  V30 19 1 3 18
M  V30 20 1 4 19
M  V30 21 1 5 20
M  V30 22 1 5 21
M  V30 23 1 6 22
M  V30 24 1 7 23
M  V30 25 1 7 24
M  V30 26 1 7 25
M  V30 27 1 8 26
M  V30 28 1 10 27
M  V30 29 1 10 28
M  V30 30 1 11 29
M  V30 31 1 11 30
M  V30 32 1 11 31
M  V30 33 1 12 32
M  V30 34 1 12 33
M  V30 35 1 12 34
M  V30 END BOND
M  V30 BEGIN COLLECTION
M  V30 MDLV30/STEABS ATOMS=(4 3 4 6 8)
M  V30 END COLLECTION
M  V30 END CTAB
M  END
>  <Structure No>
2510

>  <LogS>
-2.515915381

>  <MMFF94 Energy>
40.362

$$$$
Compound 2511
Actelion Java MolfileCreator 2.0

  0  0  0  0  0  0              0 V3000
M  V30 BEGIN CTAB
M  V30 COUNTS 26 25 0 0 0
M  V30 BEGIN ATOM
M  V30 1 O -3.4084 -0.5416 1.703 0
M  V30 2 C -3.0173 -1.0422 0.6597 0
M  V30 3 C -2.2434 -0.2284 -0.3459 0 CFG=2
M  V30 4 C -0.9248 0.3056 0.251 0
M  V30 5 C -3.1087 0.9248 -0.8661 0
M  V30 6 C 0.0481 -0.8269 0.6112 0
M  V30 7 C 1.3515 -0.2679 1.1257 0
M  V30 8 C 2.4016 0.0646 0.3406 0
M  V30 9 C 3.6467 0.6451 0.9599 0
M  V30 10 C 2.3916 -0.1636 -1.1506 0
M  V30 11 H -3.2289 -2.0871 0.4579 0
M  V30 12 H -2.0019 -0.883 -1.2125 0
M  V30 13 H -0.4402 0.9749 -0.4922 0
M  V30 14 H -1.1387 0.9138 1.1584 0
M  V30 15 H -3.3583 1.6319 -0.0455 0
M  V30 16 H -4.0525 0.5298 -1.3 0
M  V30 17 H -2.5684 1.4791 -1.663 0
M  V30 18 H -0.3982 -1.4486 1.4169 0
M  V30 19 H 0.2147 -1.4939 -0.2605 0
M  V30 20 H 1.4181 -0.1056 2.1984 0
M  V30 21 H 3.8876 1.6125 0.4711 0
M  V30 22 H 3.5291 0.8279 2.0498 0
M  V30 23 H 4.4945 -0.0556 0.8101 0
M  V30 24 H 2.2891 -1.2472 -1.3692 0
M  V30 25 H 3.3399 0.1881 -1.6096 0
M  V30 26 H 1.5566 0.393 -1.6229 0
M  V30 END ATOM
M  V30 BEGIN BOND
M  V30 1 2 1 2
M  V30 2 1 2 3
M  V30 3 1 3 4
M  V30 4 1 3 5
M  V30 5 1 4 6
M  V30 6 1 6 7
M  V30 7 2 7 8
M  V30 8 1 8 9
M  V30 9 1 8 10
M  V30 10 1 2 11
M  V30 11 1 3 12
M  V30 12 1 4 13
M  V30 13 1 4 14
M  V30 14 1 5 15
M  V30 15 1 5 16
M  V30 16 1 5 17
M  V30 17 1 6 18
M  V30 18 1 6 19
M  V30 19 1 7 20
M  V30 20 1 9 21
M  V30 21 1 9 22
M  V30 22 1 9 23
M  V30 23 1 10 24
M  V30 24 1 10 25
M  V30 25 1 10 26
M  V30 END BOND
M  V30 BEGIN COLLECTION
M  V30 MDLV30/STEABS ATOMS=(1 3)
M  V30 END COLLECTION
M  V30 END CTAB
M  END
>  <Structure No>
2511

>  <LogS>
-2.447858542

>  <MMFF94 Energy>
12.896

$$$$
Compound 2512
Actelion Java MolfileCreator 2.0

  0  0  0  0  0  0              0 V3000
M  V30 BEGIN CTAB
M  V30 COUNTS 32 31 0 0 0
M  V30 BEGIN ATOM
M  V30 1 O -2.3621 2.4436 2.6883 0
M  V30 2 C -2.8281 1.9901 1.6107 0
M  V30 3 O -3.2778 2.8672 0.6322 0 CHG=-1
M  V30 4 C -2.8853 0.5129 1.3755 0
M  V30 5 N -2.054 0.1482 0.2089 0
M  V30 6 C -2.5224 -1.1056 -0.4301 0
M  V30 7 C -0.6118 0.1264 0.5529 0
M  V30 8 C -2.4314 -2.3083 0.4696 0
M  V30 9 C 0.2653 0.1967 -0.7092 0
M  V30 10 O -1.4241 -3.0618 0.4214 0
M  V30 11 O -3.4549 -2.5882 1.3658 0 CHG=-1
M  V30 12 N 1.6403 0.6543 -0.3989 0
M  V30 13 C 2.3631 1.0161 -1.6381 0
M  V30 14 C 2.4019 -0.2985 0.4515 0
M  V30 15 C 3.5888 1.8202 -1.3309 0
M  V30 16 C 2.5699 -1.663 -0.1597 0
M  V30 17 O 4.7322 1.3508 -1.5695 0
M  V30 18 O 3.467 3.0839 -0.7671 0 CHG=-1
M  V30 19 O 1.7402 -2.5764 0.0908 0
M  V30 20 O 3.6485 -1.9261 -0.9947 0 CHG=-1
M  V30 21 H -2.5564 -0.0382 2.2859 0
M  V30 22 H -3.9528 0.2566 1.1965 0
M  V30 23 H -1.9538 -1.2959 -1.3641 0
M  V30 24 H -3.5785 -0.983 -0.7549 0
M  V30 25 H -0.3612 1.0132 1.1765 0
M  V30 26 H -0.3604 -0.7733 1.153 0
M  V30 27 H -0.2194 0.9236 -1.3989 0
M  V30 28 H 0.2849 -0.7849 -1.2283 0
M  V30 29 H 1.7237 1.6552 -2.2851 0
M  V30 30 H 2.6223 0.1132 -2.2322 0
M  V30 31 H 3.4076 0.1136 0.6784 0
M  V30 32 H 1.9105 -0.3961 1.4421 0
M  V30 END ATOM
M  V30 BEGIN BOND
M  V30 1 2 1 2
M  V30 2 1 2 3
M  V30 3 1 2 4
M  V30 4 1 4 5
M  V30 5 1 5 6
M  V30 6 1 5 7
M  V30 7 1 6 8
M  V30 8 1 7 9
M  V30 9 2 8 10
M  V30 10 1 8 11
M  V30 11 1 9 12
M  V30 12 1 12 13
M  V30 13 1 12 14
M  V30 14 1 13 15
M  V30 15 1 14 16
M  V30 16 2 15 17
M  V30 17 1 15 18
M  V30 18 2 16 19
M  V30 19 1 16 20
M  V30 20 1 4 21
M  V30 21 1 4 22
M  V30 22 1 6 23
M  V30 23 1 6 24
M  V30 24 1 7 25
M  V30 25 1 7 26
M  V30 26 1 9 27
M  V30 27 1 9 28
M  V30 28 1 13 29
M  V30 29 1 13 30
M  V30 30 1 14 31
M  V30 31 1 14 32
M  V30 END BOND
M  V30 END CTAB
M  END
>  <Structure No>
2512

>  <LogS>
-2.766775599

>  <MMFF94 Energy>
602.19

$$$$
Compound 2513
Actelion Java MolfileCreator 2.0

  0  0  0  0  0  0              0 V3000
M  V30 BEGIN CTAB
M  V30 COUNTS 49 52 0 0 0
M  V30 BEGIN ATOM
M  V30 1 O 3.1308 2.488 1.123 0
M  V30 2 C 3.3067 1.196 0.6041 0
M  V30 3 C 4.1212 3.2044 1.8534 0
M  V30 4 C 2.2415 0.6112 -0.091 0
M  V30 5 C 4.5039 0.4812 0.763 0
M  V30 6 C 2.3425 -0.6876 -0.6391 0
M  V30 7 C 4.6259 -0.8041 0.2418 0
M  V30 8 C 3.5624 -1.3929 -0.4479 0
M  V30 9 C 1.2908 -1.3321 -1.3658 0
M  V30 10 N 3.7114 -2.6545 -0.9253 0
M  V30 11 C 1.5061 -2.6501 -1.8152 0
M  V30 12 C -0.0842 -0.7316 -1.6759 0 CFG=2
M  V30 13 C 2.7203 -3.2898 -1.5917 0
M  V30 14 O -0.0077 0.6444 -1.9392 0
M  V30 15 C -1.1461 -1.108 -0.5923 0 CFG=1
M  V30 16 N -0.9777 -0.4439 0.7386 0 CHG=1 CFG=1
M  V30 17 C -2.6151 -0.9599 -1.088 0
M  V30 18 C -1.473 0.962 0.7352 0
M  V30 19 C -1.7704 -1.2067 1.7401 0
M  V30 20 C -3.4829 -0.4028 0.0625 0 CFG=2
M  V30 21 C -2.9959 1.0263 0.4058 0 CFG=2
M  V30 22 C -3.2616 -1.2864 1.3113 0
M  V30 23 C -3.3071 2.0133 -0.7012 0
M  V30 24 C -4.5626 2.3842 -0.9702 0
M  V30 25 H 3.7132 4.1949 2.1415 0
M  V30 26 H 4.3911 2.6491 2.7764 0
M  V30 27 H 5.0221 3.3605 1.2231 0
M  V30 28 H 1.3444 1.194 -0.1622 0
M  V30 29 H 5.3441 0.9075 1.2939 0
M  V30 30 H 5.5528 -1.3478 0.3798 0
M  V30 31 H 0.7306 -3.1889 -2.3463 0
M  V30 32 H -0.4277 -1.2189 -2.6215 0
M  V30 33 H 2.8756 -4.2986 -1.9501 0
M  V30 34 H -0.7793 0.8869 -2.514 0
M  V30 35 H -1.0003 -2.2054 -0.4448 0
M  V30 36 H 0.0236 -0.4664 1.0356 0
M  V30 37 H -3.0109 -1.9503 -1.4047 0
M  V30 38 H -2.6885 -0.2932 -1.9724 0
M  V30 39 H -1.3018 1.4167 1.7375 0
M  V30 40 H -0.8788 1.5902 0.0488 0
M  V30 41 H -1.6929 -0.7238 2.7406 0
M  V30 42 H -1.357 -2.2337 1.8592 0
M  V30 43 H -4.5581 -0.408 -0.2208 0
M  V30 44 H -3.5319 1.3747 1.3186 0
M  V30 45 H -3.9164 -0.9429 2.142 0
M  V30 46 H -3.5359 -2.3391 1.08 0
M  V30 47 H -2.505 2.453 -1.2864 0
M  V30 48 H -5.3978 1.9842 -0.4035 0
M  V30 49 H -4.7598 3.0984 -1.7631 0
M  V30 END ATOM
M  V30 BEGIN BOND
M  V30 1 1 1 2
M  V30 2 1 1 3
M  V30 3 2 2 4
M  V30 4 1 2 5
M  V30 5 1 4 6
M  V30 6 2 5 7
M  V30 7 1 6 8
M  V30 8 2 6 9
M  V30 9 2 8 10
M  V30 10 1 9 11
M  V30 11 1 9 12
M  V30 12 1 10 13
M  V30 13 1 12 14
M  V30 14 1 12 15
M  V30 15 1 15 16
M  V30 16 1 15 17
M  V30 17 1 16 18
M  V30 18 1 16 19
M  V30 19 1 17 20
M  V30 20 1 18 21
M  V30 21 1 19 22
M  V30 22 1 21 23
M  V30 23 2 23 24
M  V30 24 1 7 8
M  V30 25 2 11 13
M  V30 26 1 20 21
M  V30 27 1 20 22
M  V30 28 1 3 25
M  V30 29 1 3 26
M  V30 30 1 3 27
M  V30 31 1 4 28
M  V30 32 1 5 29
M  V30 33 1 7 30
M  V30 34 1 11 31
M  V30 35 1 12 32
M  V30 36 1 13 33
M  V30 37 1 14 34
M  V30 38 1 15 35
M  V30 39 1 16 36
M  V30 40 1 17 37
M  V30 41 1 17 38
M  V30 42 1 18 39
M  V30 43 1 18 40
M  V30 44 1 19 41
M  V30 45 1 19 42
M  V30 46 1 20 43
M  V30 47 1 21 44
M  V30 48 1 22 45
M  V30 49 1 22 46
M  V30 50 1 23 47
M  V30 51 1 24 48
M  V30 52 1 24 49
M  V30 END BOND
M  V30 BEGIN COLLECTION
M  V30 MDLV30/STEABS ATOMS=(5 12 15 16 20 21)
M  V30 END COLLECTION
M  V30 END CTAB
M  END
>  <Structure No>
2513

>  <LogS>
-2.81214297

>  <MMFF94 Energy>
117.94

$$$$
Compound 2514
Actelion Java MolfileCreator 2.0

  0  0  0  0  0  0              0 V3000
M  V30 BEGIN CTAB
M  V30 COUNTS 49 52 0 0 0
M  V30 BEGIN ATOM
M  V30 1 O 3.3727 2.3279 1.1232 0
M  V30 2 C 3.4809 1.0023 0.6745 0
M  V30 3 C 4.3885 3.0179 1.8453 0
M  V30 4 C 2.3849 0.4342 0.014 0
M  V30 5 C 4.643 0.2371 0.8689 0
M  V30 6 C 2.4215 -0.8985 -0.4505 0
M  V30 7 C 4.7005 -1.0804 0.4165 0
M  V30 8 C 3.6042 -1.6529 -0.2347 0
M  V30 9 C 1.3277 -1.5208 -1.1195 0
M  V30 10 N 3.6831 -2.9413 -0.6548 0
M  V30 11 C 1.4646 -2.8639 -1.5183 0
M  V30 12 C -0.0099 -0.8315 -1.3824 0 CFG=2
M  V30 13 C 2.6516 -3.5538 -1.2839 0
M  V30 14 O 0.2104 0.3898 -2.0423 0
M  V30 15 C -0.8601 -0.6896 -0.0619 0 CFG=2
M  V30 16 N -2.1479 -1.446 -0.1448 0 CHG=1 CFG=2
M  V30 17 C -1.135 0.7732 0.4287 0
M  V30 18 C -3.1231 -0.74 -1.0196 0
M  V30 19 C -2.7287 -1.579 1.2167 0
M  V30 20 C -2.6214 0.9094 0.8246 0 CFG=1
M  V30 21 C -3.501 0.6526 -0.4259 0 CFG=1
M  V30 22 C -2.9443 -0.1857 1.8614 0
M  V30 23 C -3.38 1.7684 -1.4443 0
M  V30 24 C -3.8557 2.9929 -1.1963 0
M  V30 25 H 4.6238 2.474 2.7839 0
M  V30 26 H 5.3015 3.1143 1.2208 0
M  V30 27 H 4.0257 4.0334 2.1045 0
M  V30 28 H 1.5162 1.0555 -0.1211 0
M  V30 29 H 5.5076 0.6503 1.3701 0
M  V30 30 H 5.6014 -1.6592 0.5764 0
M  V30 31 H 0.6537 -3.3845 -2.0128 0
M  V30 32 H -0.5721 -1.4842 -2.0909 0
M  V30 33 H 2.7519 -4.5825 -1.6006 0
M  V30 34 H -0.6155 0.6025 -2.55 0
M  V30 35 H -0.2571 -1.1615 0.7514 0
M  V30 36 H -1.9772 -2.4093 -0.5197 0
M  V30 37 H -0.8988 1.5482 -0.3267 0
M  V30 38 H -0.5008 0.998 1.3152 0
M  V30 39 H -2.7189 -0.6555 -2.0501 0
M  V30 40 H -4.0454 -1.3553 -1.1192 0
M  V30 41 H -2.0602 -2.1935 1.8619 0
M  V30 42 H -3.7002 -2.1212 1.1648 0
M  V30 43 H -2.8188 1.9129 1.261 0
M  V30 44 H -4.5676 0.6134 -0.1066 0
M  V30 45 H -3.9963 -0.0835 2.2076 0
M  V30 46 H -2.286 -0.0704 2.75 0
M  V30 47 H -2.9164 1.5847 -2.4084 0
M  V30 48 H -3.7622 3.7743 -1.9437 0
M  V30 49 H -4.3424 3.2237 -0.2534 0
M  V30 END ATOM
M  V30 BEGIN BOND
M  V30 1 1 1 2
M  V30 2 1 1 3
M  V30 3 2 2 4
M  V30 4 1 2 5
M  V30 5 1 4 6
M  V30 6 2 5 7
M  V30 7 1 6 8
M  V30 8 2 6 9
M  V30 9 2 8 10
M  V30 10 1 9 11
M  V30 11 1 9 12
M  V30 12 1 10 13
M  V30 13 1 12 14
M  V30 14 1 12 15
M  V30 15 1 15 16
M  V30 16 1 15 17
M  V30 17 1 16 18
M  V30 18 1 16 19
M  V30 19 1 17 20
M  V30 20 1 18 21
M  V30 21 1 19 22
M  V30 22 1 21 23
M  V30 23 2 23 24
M  V30 24 1 7 8
M  V30 25 2 11 13
M  V30 26 1 20 21
M  V30 27 1 20 22
M  V30 28 1 3 25
M  V30 29 1 3 26
M  V30 30 1 3 27
M  V30 31 1 4 28
M  V30 32 1 5 29
M  V30 33 1 7 30
M  V30 34 1 11 31
M  V30 35 1 12 32
M  V30 36 1 13 33
M  V30 37 1 14 34
M  V30 38 1 15 35
M  V30 39 1 16 36
M  V30 40 1 17 37
M  V30 41 1 17 38
M  V30 42 1 18 39
M  V30 43 1 18 40
M  V30 44 1 19 41
M  V30 45 1 19 42
M  V30 46 1 20 43
M  V30 47 1 21 44
M  V30 48 1 22 45
M  V30 49 1 22 46
M  V30 50 1 23 47
M  V30 51 1 24 48
M  V30 52 1 24 49
M  V30 END BOND
M  V30 BEGIN COLLECTION
M  V30 MDLV30/STEABS ATOMS=(5 12 15 16 20 21)
M  V30 END COLLECTION
M  V30 END CTAB
M  END
>  <Structure No>
2514

>  <LogS>
-2.81214297

>  <MMFF94 Energy>
124.06

$$$$
Compound 2515
Actelion Java MolfileCreator 2.0

  0  0  0  0  0  0              0 V3000
M  V30 BEGIN CTAB
M  V30 COUNTS 47 46 0 0 0
M  V30 BEGIN ATOM
M  V30 1 O 8.5849 -0.314 -0.2355 0
M  V30 2 C 7.9855 0.2034 0.7433 0
M  V30 3 O 8.0363 -0.4139 1.9867 0 CHG=-1
M  V30 4 C 7.1904 1.4562 0.5594 0
M  V30 5 N 5.916 1.153 -0.1059 0
M  V30 6 C 4.8085 0.6277 0.6608 0
M  V30 7 C 5.7984 1.3375 -1.5568 0
M  V30 8 O 4.9597 0.396 1.8927 0
M  V30 9 C 3.4772 0.3368 0.0051 0
M  V30 10 C 2.3967 -0.1023 1.0046 0
M  V30 11 C 1.0615 -0.3593 0.2951 0
M  V30 12 C -0.0147 -0.8086 1.2951 0
M  V30 13 C -1.341 -1.1803 0.6119 0
M  V30 14 C -2.1286 0.0556 0.1423 0
M  V30 15 C -3.4469 -0.3136 -0.5579 0
M  V30 16 C -4.5367 -0.7643 0.4305 0
M  V30 17 C -5.8562 -1.1249 -0.2712 0
M  V30 18 C -6.6219 0.1116 -0.7653 0
M  V30 19 C -7.9818 -0.2777 -1.3384 0
M  V30 20 H 7.0044 1.9396 1.5429 0
M  V30 21 H 7.7863 2.1801 -0.0374 0
M  V30 22 H 5.0228 2.0997 -1.779 0
M  V30 23 H 6.7565 1.6784 -2.0031 0
M  V30 24 H 5.5258 0.3758 -2.0395 0
M  V30 25 H 3.6212 -0.467 -0.7479 0
M  V30 26 H 3.1299 1.2537 -0.5174 0
M  V30 27 H 2.7264 -1.0341 1.515 0
M  V30 28 H 2.257 0.6934 1.7695 0
M  V30 29 H 1.2022 -1.1487 -0.4754 0
M  V30 30 H 0.7397 0.5756 -0.2099 0
M  V30 31 H -0.1893 -0.011 2.0507 0
M  V30 32 H 0.3556 -1.7075 1.8357 0
M  V30 33 H -1.1455 -1.8582 -0.2476 0
M  V30 34 H -1.9498 -1.742 1.3507 0
M  V30 35 H -2.3351 0.7267 1.005 0
M  V30 36 H -1.513 0.6248 -0.5854 0
M  V30 37 H -3.7994 0.5883 -1.1004 0
M  V30 38 H -3.2631 -1.1094 -1.3125 0
M  V30 39 H -4.1891 -1.6697 0.9701 0
M  V30 40 H -4.7176 0.0298 1.1876 0
M  V30 41 H -5.6558 -1.8126 -1.1222 0
M  V30 42 H -6.4942 -1.6706 0.4584 0
M  V30 43 H -6.0441 0.6289 -1.5595 0
M  V30 44 H -6.7783 0.8201 0.077 0
M  V30 45 H -8.6047 -0.7658 -0.5587 0
M  V30 46 H -7.8542 -0.9732 -2.1952 0
M  V30 47 H -8.5093 0.6321 -1.695 0
M  V30 END ATOM
M  V30 BEGIN BOND
M  V30 1 2 1 2
M  V30 2 1 2 3
M  V30 3 1 2 4
M  V30 4 1 4 5
M  V30 5 1 5 6
M  V30 6 1 5 7
M  V30 7 2 6 8
M  V30 8 1 6 9
M  V30 9 1 9 10
M  V30 10 1 10 11
M  V30 11 1 11 12
M  V30 12 1 12 13
M  V30 13 1 13 14
M  V30 14 1 14 15
M  V30 15 1 15 16
M  V30 16 1 16 17
M  V30 17 1 17 18
M  V30 18 1 18 19
M  V30 19 1 4 20
M  V30 20 1 4 21
M  V30 21 1 7 22
M  V30 22 1 7 23
M  V30 23 1 7 24
M  V30 24 1 9 25
M  V30 25 1 9 26
M  V30 26 1 10 27
M  V30 27 1 10 28
M  V30 28 1 11 29
M  V30 29 1 11 30
M  V30 30 1 12 31
M  V30 31 1 12 32
M  V30 32 1 13 33
M  V30 33 1 13 34
M  V30 34 1 14 35
M  V30 35 1 14 36
M  V30 36 1 15 37
M  V30 37 1 15 38
M  V30 38 1 16 39
M  V30 39 1 16 40
M  V30 40 1 17 41
M  V30 41 1 17 42
M  V30 42 1 18 43
M  V30 43 1 18 44
M  V30 44 1 19 45
M  V30 45 1 19 46
M  V30 46 1 19 47
M  V30 END BOND
M  V30 END CTAB
M  END
>  <Structure No>
2515

>  <LogS>
-2.734641439

>  <MMFF94 Energy>
34.756

$$$$
Compound 2516
Actelion Java MolfileCreator 2.0

  0  0  0  0  0  0              0 V3000
M  V30 BEGIN CTAB
M  V30 COUNTS 23 22 0 0 0
M  V30 BEGIN ATOM
M  V30 1 Cl 3.6569 -2.3837 -0.1587 0
M  V30 2 C 2.7513 -0.9014 -0.5684 0 CFG=1
M  V30 3 C 1.6205 -0.7078 0.3952 0
M  V30 4 C 3.686 0.3051 -0.5558 0
M  V30 5 O 1.8432 -0.6946 1.6375 0
M  V30 6 O 0.3262 -0.5183 -0.0965 0
M  V30 7 C -0.797 -0.3095 0.7545 0
M  V30 8 C -2.0677 -0.1227 -0.0879 0
M  V30 9 C -3.3021 -0.0362 0.8169 0
M  V30 10 C -1.9652 1.1287 -0.9697 0
M  V30 11 H 2.3407 -1.0245 -1.5936 0
M  V30 12 H 4.1398 0.4382 0.4497 0
M  V30 13 H 3.1257 1.2258 -0.8255 0
M  V30 14 H 4.4991 0.1592 -1.298 0
M  V30 15 H -0.6246 0.5882 1.3886 0
M  V30 16 H -0.9168 -1.1947 1.4172 0
M  V30 17 H -2.1856 -1.0093 -0.7494 0
M  V30 18 H -4.2215 0.068 0.2023 0
M  V30 19 H -3.2268 0.8362 1.5012 0
M  V30 20 H -3.3979 -0.9613 1.4243 0
M  V30 21 H -1.8353 2.0389 -0.3456 0
M  V30 22 H -2.8857 1.2422 -1.5812 0
M  V30 23 H -1.1027 1.0432 -1.6638 0
M  V30 END ATOM
M  V30 BEGIN BOND
M  V30 1 1 1 2
M  V30 2 1 2 3
M  V30 3 1 2 4
M  V30 4 2 3 5
M  V30 5 1 3 6
M  V30 6 1 6 7
M  V30 7 1 7 8
M  V30 8 1 8 9
M  V30 9 1 8 10
M  V30 10 1 2 11
M  V30 11 1 4 12
M  V30 12 1 4 13
M  V30 13 1 4 14
M  V30 14 1 7 15
M  V30 15 1 7 16
M  V30 16 1 8 17
M  V30 17 1 9 18
M  V30 18 1 9 19
M  V30 19 1 9 20
M  V30 20 1 10 21
M  V30 21 1 10 22
M  V30 22 1 10 23
M  V30 END BOND
M  V30 BEGIN COLLECTION
M  V30 MDLV30/STEABS ATOMS=(1 2)
M  V30 END COLLECTION
M  V30 END CTAB
M  END
>  <Structure No>
2516

>  <LogS>
-2.51754425

>  <MMFF94 Energy>
17.937

$$$$
Compound 2517
Actelion Java MolfileCreator 2.0

  0  0  0  0  0  0              0 V3000
M  V30 BEGIN CTAB
M  V30 COUNTS 21 21 0 0 0
M  V30 BEGIN ATOM
M  V30 1 O 2.7516 2.2795 0.3141 0
M  V30 2 C 1.7649 1.4968 0.3284 0
M  V30 3 C 1.9294 0.0666 -0.0214 0
M  V30 4 C 0.8836 -0.7816 -0.0864 0
M  V30 5 C 3.3235 -0.4882 -0.1519 0
M  V30 6 C -0.5391 -0.3832 -0.0181 0
M  V30 7 C -1.0514 0.6423 -0.8336 0
M  V30 8 C -1.4158 -1.1074 0.8046 0
M  V30 9 C -2.4104 0.9682 -0.7851 0
M  V30 10 C -2.7745 -0.7784 0.8504 0
M  V30 11 C -3.2705 0.2616 0.0597 0
M  V30 12 H 0.8032 1.8929 0.6232 0
M  V30 13 H 1.0785 -1.8443 -0.1784 0
M  V30 14 H 3.7295 -0.7091 0.8574 0
M  V30 15 H 3.3342 -1.4204 -0.7572 0
M  V30 16 H 3.9887 0.2425 -0.6581 0
M  V30 17 H -0.4032 1.1803 -1.5141 0
M  V30 18 H -1.0457 -1.9204 1.4175 0
M  V30 19 H -2.7984 1.7631 -1.409 0
M  V30 20 H -3.4435 -1.3326 1.496 0
M  V30 21 H -4.3226 0.5137 0.0946 0
M  V30 END ATOM
M  V30 BEGIN BOND
M  V30 1 2 1 2
M  V30 2 1 2 3
M  V30 3 2 3 4
M  V30 4 1 3 5
M  V30 5 1 4 6
M  V30 6 2 6 7
M  V30 7 1 6 8
M  V30 8 1 7 9
M  V30 9 2 8 10
M  V30 10 2 9 11
M  V30 11 1 10 11
M  V30 12 1 2 12
M  V30 13 1 4 13
M  V30 14 1 5 14
M  V30 15 1 5 15
M  V30 16 1 5 16
M  V30 17 1 7 17
M  V30 18 1 8 18
M  V30 19 1 9 19
M  V30 20 1 10 20
M  V30 21 1 11 21
M  V30 END BOND
M  V30 END CTAB
M  END
>  <Structure No>
2517

>  <LogS>
-2.474718615

>  <MMFF94 Energy>
24.488

$$$$
Compound 2518
Actelion Java MolfileCreator 2.0

  0  0  0  0  0  0              0 V3000
M  V30 BEGIN CTAB
M  V30 COUNTS 27 27 0 0 0
M  V30 BEGIN ATOM
M  V30 1 O -0.3134 -0.8622 -0.7838 0
M  V30 2 C -0.06 0.1776 0.1456 0 CFG=1
M  V30 3 C -1.4902 -1.559 -0.4181 0
M  V30 4 C 1.3181 0.745 -0.1126 0
M  V30 5 C -1.128 1.2782 0.0125 0
M  V30 6 C -2.7304 -0.6736 -0.5825 0
M  V30 7 C 2.4614 0.0531 0.0874 0
M  V30 8 C -2.5073 0.6709 0.0623 0
M  V30 9 C 3.7754 0.732 -0.2017 0
M  V30 10 C 2.4533 -1.3687 0.5985 0
M  V30 11 C -3.5487 1.3899 0.5046 0
M  V30 12 H -0.0755 -0.2018 1.1945 0
M  V30 13 H -1.596 -2.4419 -1.0828 0
M  V30 14 H -1.4235 -1.9509 0.6229 0
M  V30 15 H 1.393 1.772 -0.4652 0
M  V30 16 H -1.0166 1.8054 -0.9604 0
M  V30 17 H -0.9945 2.0166 0.8343 0
M  V30 18 H -3.6035 -1.191 -0.1277 0
M  V30 19 H -2.9348 -0.5207 -1.6641 0
M  V30 20 H 3.8789 1.6359 0.4353 0
M  V30 21 H 3.8141 1.0344 -1.2697 0
M  V30 22 H 4.6376 0.0635 0.001 0
M  V30 23 H 1.9189 -2.0287 -0.1155 0
M  V30 24 H 3.4834 -1.7635 0.7182 0
M  V30 25 H 1.9561 -1.415 1.5898 0
M  V30 26 H -4.5568 0.9877 0.4739 0
M  V30 27 H -3.4068 2.3906 0.9016 0
M  V30 END ATOM
M  V30 BEGIN BOND
M  V30 1 1 1 2
M  V30 2 1 1 3
M  V30 3 1 2 4
M  V30 4 1 2 5
M  V30 5 1 3 6
M  V30 6 2 4 7
M  V30 7 1 5 8
M  V30 8 1 7 9
M  V30 9 1 7 10
M  V30 10 2 8 11
M  V30 11 1 6 8
M  V30 12 1 2 12
M  V30 13 1 3 13
M  V30 14 1 3 14
M  V30 15 1 4 15
M  V30 16 1 5 16
M  V30 17 1 5 17
M  V30 18 1 6 18
M  V30 19 1 6 19
M  V30 20 1 9 20
M  V30 21 1 9 21
M  V30 22 1 9 22
M  V30 23 1 10 23
M  V30 24 1 10 24
M  V30 25 1 10 25
M  V30 26 1 11 26
M  V30 27 1 11 27
M  V30 END BOND
M  V30 BEGIN COLLECTION
M  V30 MDLV30/STEABS ATOMS=(1 2)
M  V30 END COLLECTION
M  V30 END CTAB
M  END
>  <Structure No>
2518

>  <LogS>
-2.510422359

>  <MMFF94 Energy>
48.986

$$$$
Compound 2519
Actelion Java MolfileCreator 2.0

  0  0  0  0  0  0              0 V3000
M  V30 BEGIN CTAB
M  V30 COUNTS 26 25 0 0 0
M  V30 BEGIN ATOM
M  V30 1 O 0.543 -1.0863 -2.1737 0
M  V30 2 C 0.5066 -0.2544 -1.226 0
M  V30 3 O 1.4315 -0.3284 -0.1797 0
M  V30 4 C -0.5353 0.8309 -1.2255 0 CFG=1
M  V30 5 C 2.4344 -1.3358 -0.1114 0
M  V30 6 C -1.3797 0.7962 0.0647 0
M  V30 7 C 0.1434 2.1944 -1.3886 0
M  V30 8 C 3.2651 -1.1416 1.1466 0
M  V30 9 C -2.2101 -0.4911 0.1791 0
M  V30 10 C -3.0766 -0.4777 1.4351 0
M  V30 11 H -1.2137 0.6871 -2.0966 0
M  V30 12 H 3.0953 -1.2686 -1.0025 0
M  V30 13 H 1.9569 -2.3393 -0.0848 0
M  V30 14 H -0.7179 0.894 0.9539 0
M  V30 15 H -2.075 1.6649 0.0628 0
M  V30 16 H 0.8153 2.4058 -0.5288 0
M  V30 17 H -0.6212 2.9979 -1.4504 0
M  V30 18 H 0.7412 2.2146 -2.325 0
M  V30 19 H 3.7534 -0.1442 1.1284 0
M  V30 20 H 4.0485 -1.9264 1.2036 0
M  V30 21 H 2.6157 -1.2135 2.0446 0
M  V30 22 H -1.5378 -1.3749 0.2224 0
M  V30 23 H -2.8688 -0.593 -0.7106 0
M  V30 24 H -2.4398 -0.3984 2.342 0
M  V30 25 H -3.7841 0.3782 1.4074 0
M  V30 26 H -3.6617 -1.4196 1.4933 0
M  V30 END ATOM
M  V30 BEGIN BOND
M  V30 1 2 1 2
M  V30 2 1 2 3
M  V30 3 1 2 4
M  V30 4 1 3 5
M  V30 5 1 4 6
M  V30 6 1 4 7
M  V30 7 1 5 8
M  V30 8 1 6 9
M  V30 9 1 9 10
M  V30 10 1 4 11
M  V30 11 1 5 12
M  V30 12 1 5 13
M  V30 13 1 6 14
M  V30 14 1 6 15
M  V30 15 1 7 16
M  V30 16 1 7 17
M  V30 17 1 7 18
M  V30 18 1 8 19
M  V30 19 1 8 20
M  V30 20 1 8 21
M  V30 21 1 9 22
M  V30 22 1 9 23
M  V30 23 1 10 24
M  V30 24 1 10 25
M  V30 25 1 10 26
M  V30 END BOND
M  V30 BEGIN COLLECTION
M  V30 MDLV30/STEABS ATOMS=(1 4)
M  V30 END COLLECTION
M  V30 END CTAB
M  END
>  <Structure No>
2519

>  <LogS>
-2.489690542

>  <MMFF94 Energy>
-8.8673

$$$$
Compound 2520
Actelion Java MolfileCreator 2.0

  0  0  0  0  0  0              0 V3000
M  V30 BEGIN CTAB
M  V30 COUNTS 24 23 0 0 0
M  V30 BEGIN ATOM
M  V30 1 O 0.9309 1.5519 -0.1551 0
M  V30 2 C 1.0008 0.2932 -0.131 0
M  V30 3 O -0.1654 -0.4902 -0.129 0
M  V30 4 C 2.3274 -0.3622 -0.1034 0
M  V30 5 C -1.5168 -0.0066 -0.1516 0
M  V30 6 C 2.4259 -1.692 0.0021 0
M  V30 7 C 3.5745 0.48 -0.1177 0
M  V30 8 C -2.4385 -1.2357 -0.1387 0
M  V30 9 C -1.809 0.847 1.0974 0
M  V30 10 C -1.783 0.801 -1.4364 0
M  V30 11 H 1.5474 -2.3236 0.0414 0
M  V30 12 H 3.3929 -2.1767 0.0541 0
M  V30 13 H 3.7467 0.9016 0.8947 0
M  V30 14 H 4.4658 -0.1126 -0.4168 0
M  V30 15 H 3.4656 1.3135 -0.8436 0
M  V30 16 H -2.2568 -1.8438 0.7737 0
M  V30 17 H -2.2385 -1.8764 -1.0245 0
M  V30 18 H -3.5082 -0.9331 -0.155 0
M  V30 19 H -1.5412 0.2842 2.0173 0
M  V30 20 H -2.8873 1.1129 1.1455 0
M  V30 21 H -1.2301 1.7929 1.0864 0
M  V30 22 H -2.86 1.0646 -1.5161 0
M  V30 23 H -1.2041 1.7469 -1.4477 0
M  V30 24 H -1.4967 0.2053 -2.3295 0
M  V30 END ATOM
M  V30 BEGIN BOND
M  V30 1 2 1 2
M  V30 2 1 2 3
M  V30 3 1 2 4
M  V30 4 1 3 5
M  V30 5 2 4 6
M  V30 6 1 4 7
M  V30 7 1 5 8
M  V30 8 1 5 9
M  V30 9 1 5 10
M  V30 10 1 6 11
M  V30 11 1 6 12
M  V30 12 1 7 13
M  V30 13 1 7 14
M  V30 14 1 7 15
M  V30 15 1 8 16
M  V30 16 1 8 17
M  V30 17 1 8 18
M  V30 18 1 9 19
M  V30 19 1 9 20
M  V30 20 1 9 21
M  V30 21 1 10 22
M  V30 22 1 10 23
M  V30 23 1 10 24
M  V30 END BOND
M  V30 END CTAB
M  END
>  <Structure No>
2520

>  <LogS>
-2.486375508

>  <MMFF94 Energy>
12.825

$$$$
Compound 2521
Actelion Java MolfileCreator 2.0

  0  0  0  0  0  0              0 V3000
M  V30 BEGIN CTAB
M  V30 COUNTS 19 18 0 0 0
M  V30 BEGIN ATOM
M  V30 1 O 1.681 -0.7638 -0.1527 0
M  V30 2 C 2.4695 0.245 0.4027 0
M  V30 3 C 0.2912 -0.884 0.1351 0
M  V30 4 C 3.7562 0.3274 0.0927 0
M  V30 5 C -0.5 0.2247 -0.5702 0
M  V30 6 C -2.0197 0.0374 -0.4463 0
M  V30 7 C -2.5302 0.2844 0.9729 0
M  V30 8 H 2.0373 0.964 1.0888 0
M  V30 9 H -0.0549 -1.8742 -0.2296 0
M  V30 10 H 0.1349 -0.8429 1.2345 0
M  V30 11 H 4.2033 -0.3829 -0.5907 0
M  V30 12 H 4.3703 1.1082 0.5219 0
M  V30 13 H -0.2088 1.2171 -0.1626 0
M  V30 14 H -0.2346 0.2136 -1.6496 0
M  V30 15 H -2.3077 -0.9851 -0.7735 0
M  V30 16 H -2.519 0.7607 -1.1268 0
M  V30 17 H -2.1538 -0.4949 1.6671 0
M  V30 18 H -3.6398 0.2446 0.9778 0
M  V30 19 H -2.2114 1.286 1.3321 0
M  V30 END ATOM
M  V30 BEGIN BOND
M  V30 1 1 1 2
M  V30 2 1 1 3
M  V30 3 2 2 4
M  V30 4 1 3 5
M  V30 5 1 5 6
M  V30 6 1 6 7
M  V30 7 1 2 8
M  V30 8 1 3 9
M  V30 9 1 3 10
M  V30 10 1 4 11
M  V30 11 1 4 12
M  V30 12 1 5 13
M  V30 13 1 5 14
M  V30 14 1 6 15
M  V30 15 1 6 16
M  V30 16 1 7 17
M  V30 17 1 7 18
M  V30 18 1 7 19
M  V30 END BOND
M  V30 END CTAB
M  END
>  <Structure No>
2521

>  <LogS>
-2.33794082

>  <MMFF94 Energy>
7.2171

$$$$
Compound 2522
Actelion Java MolfileCreator 2.0

  0  0  0  0  0  0              0 V3000
M  V30 BEGIN CTAB
M  V30 COUNTS 29 29 0 0 0
M  V30 BEGIN ATOM
M  V30 1 S 1.1298 -1.9374 0.4034 0
M  V30 2 O 1.9787 -2.3138 1.5851 0
M  V30 3 O 0.7936 -3.1901 -0.3574 0
M  V30 4 N -0.3319 -1.1845 0.9657 0
M  V30 5 C 2.0344 -0.828 -0.6251 0
M  V30 6 C -1.1344 -0.741 -0.1787 0
M  V30 7 C 1.9938 -0.9571 -2.0215 0
M  V30 8 C 2.7752 0.2126 -0.047 0
M  V30 9 C -2.5445 -0.3363 0.2686 0
M  V30 10 C 2.6979 -0.059 -2.8299 0
M  V30 11 C 3.4785 1.1089 -0.8579 0
M  V30 12 C -2.5498 0.963 1.0863 0
M  V30 13 C 3.441 0.9726 -2.2486 0
M  V30 14 C -3.9748 1.3996 1.4146 0
M  V30 15 H -0.0349 -0.3395 1.5054 0
M  V30 16 H -0.6414 0.1119 -0.6971 0
M  V30 17 H -1.2427 -1.5729 -0.909 0
M  V30 18 H 1.4148 -1.7456 -2.4847 0
M  V30 19 H 2.8045 0.3313 1.0287 0
M  V30 20 H -3.1689 -0.1938 -0.6408 0
M  V30 21 H -2.9934 -1.1604 0.8658 0
M  V30 22 H 2.6653 -0.161 -3.9069 0
M  V30 23 H 4.0503 1.9105 -0.4083 0
M  V30 24 H -1.9997 0.815 2.0399 0
M  V30 25 H -2.0504 1.7729 0.511 0
M  V30 26 H 3.9846 1.6676 -2.8754 0
M  V30 27 H -4.545 1.592 0.4807 0
M  V30 28 H -4.4924 0.614 2.0055 0
M  V30 29 H -3.9489 2.3348 2.0129 0
M  V30 END ATOM
M  V30 BEGIN BOND
M  V30 1 2 1 2
M  V30 2 2 1 3
M  V30 3 1 1 4
M  V30 4 1 1 5
M  V30 5 1 4 6
M  V30 6 2 5 7
M  V30 7 1 5 8
M  V30 8 1 6 9
M  V30 9 1 7 10
M  V30 10 2 8 11
M  V30 11 1 9 12
M  V30 12 2 10 13
M  V30 13 1 12 14
M  V30 14 1 11 13
M  V30 15 1 4 15
M  V30 16 1 6 16
M  V30 17 1 6 17
M  V30 18 1 7 18
M  V30 19 1 8 19
M  V30 20 1 9 20
M  V30 21 1 9 21
M  V30 22 1 10 22
M  V30 23 1 11 23
M  V30 24 1 12 24
M  V30 25 1 12 25
M  V30 26 1 13 26
M  V30 27 1 14 27
M  V30 28 1 14 28
M  V30 29 1 14 29
M  V30 END BOND
M  V30 END CTAB
M  END
>  <Structure No>
2522

>  <LogS>
-2.675782414

>  <MMFF94 Energy>
-41.025

$$$$
Compound 2523
Actelion Java MolfileCreator 2.0

  0  0  0  0  0  0              0 V3000
M  V30 BEGIN CTAB
M  V30 COUNTS 29 29 0 0 0
M  V30 BEGIN ATOM
M  V30 1 O 0.2354 0.9422 -0.3139 0
M  V30 2 C 1.2047 -0.1024 -0.1975 0 CFG=1
M  V30 3 C -1.1366 0.5869 -0.1142 0
M  V30 4 C 1.4743 -0.4517 1.2596 0
M  V30 5 C 0.817 -1.3658 -1.0087 0
M  V30 6 C 2.5163 0.438 -0.7979 0
M  V30 7 C -1.5572 -0.6821 -0.9004 0
M  V30 8 C -1.4753 0.4502 1.3886 0
M  V30 9 C -1.9639 1.766 -0.6583 0
M  V30 10 C 1.7518 0.4792 2.1806 0
M  V30 11 C -0.59 -1.8335 -0.6779 0
M  V30 12 H 1.4373 -1.4898 1.5783 0
M  V30 13 H 0.8616 -1.1466 -2.0995 0
M  V30 14 H 1.5347 -2.1925 -0.8101 0
M  V30 15 H 2.3752 0.6978 -1.8692 0
M  V30 16 H 3.329 -0.3169 -0.7205 0
M  V30 17 H 2.8417 1.3621 -0.2742 0
M  V30 18 H -2.5806 -1.0014 -0.6033 0
M  V30 19 H -1.585 -0.4612 -1.9915 0
M  V30 20 H -1.0813 1.3226 1.9523 0
M  V30 21 H -2.5757 0.4067 1.5401 0
M  V30 22 H -1.0587 -0.474 1.8319 0
M  V30 23 H -3.0543 1.5667 -0.5696 0
M  V30 24 H -1.7254 1.9452 -1.7289 0
M  V30 25 H -1.7277 2.697 -0.0985 0
M  V30 26 H 1.785 1.5327 1.9218 0
M  V30 27 H 1.9344 0.187 3.2094 0
M  V30 28 H -0.6451 -2.2017 0.3678 0
M  V30 29 H -0.864 -2.679 -1.3452 0
M  V30 END ATOM
M  V30 BEGIN BOND
M  V30 1 1 1 2
M  V30 2 1 1 3
M  V30 3 1 2 4
M  V30 4 1 2 5
M  V30 5 1 2 6
M  V30 6 1 3 7
M  V30 7 1 3 8
M  V30 8 1 3 9
M  V30 9 2 4 10
M  V30 10 1 5 11
M  V30 11 1 7 11
M  V30 12 1 4 12
M  V30 13 1 5 13
M  V30 14 1 5 14
M  V30 15 1 6 15
M  V30 16 1 6 16
M  V30 17 1 6 17
M  V30 18 1 7 18
M  V30 19 1 7 19
M  V30 20 1 8 20
M  V30 21 1 8 21
M  V30 22 1 8 22
M  V30 23 1 9 23
M  V30 24 1 9 24
M  V30 25 1 9 25
M  V30 26 1 10 26
M  V30 27 1 10 27
M  V30 28 1 11 28
M  V30 29 1 11 29
M  V30 END BOND
M  V30 BEGIN COLLECTION
M  V30 MDLV30/STEABS ATOMS=(1 2)
M  V30 END COLLECTION
M  V30 END CTAB
M  END
>  <Structure No>
2523

>  <LogS>
-2.535987278

>  <MMFF94 Energy>
33.21

$$$$
Compound 2524
Actelion Java MolfileCreator 2.0

  0  0  0  0  0  0              0 V3000
M  V30 BEGIN CTAB
M  V30 COUNTS 27 28 0 0 0
M  V30 BEGIN ATOM
M  V30 1 O 3.7889 1.5303 -1.9334 0
M  V30 2 C 3.9129 0.7149 -0.9812 0
M  V30 3 O 5.189 0.3359 -0.5803 0 CHG=-1
M  V30 4 C 2.72 0.1681 -0.2993 0
M  V30 5 C 1.4222 0.5533 -0.7065 0
M  V30 6 C 2.8678 -0.7491 0.7714 0
M  V30 7 C 0.3224 0.0136 -0.0358 0
M  V30 8 C 1.7411 -1.2743 1.4258 0
M  V30 9 C 0.4807 -0.8707 0.9957 0
M  V30 10 C -1.1414 0.2368 -0.2475 0
M  V30 11 N -0.7639 -1.2867 1.5262 0
M  V30 12 C -1.684 -0.6762 0.8418 0
M  V30 13 C -1.5194 1.7034 0.0075 0
M  V30 14 C -1.5757 -0.2327 -1.6437 0
M  V30 15 C -3.1365 -0.8839 1.135 0
M  V30 16 H 1.2686 1.2513 -1.5196 0
M  V30 17 H 3.8513 -1.0587 1.101 0
M  V30 18 H 1.8506 -1.9746 2.2435 0
M  V30 19 H -2.6174 1.8438 -0.0812 0
M  V30 20 H -1.0221 2.3648 -0.7338 0
M  V30 21 H -1.2052 2.0176 1.0266 0
M  V30 22 H -1.08 0.3782 -2.428 0
M  V30 23 H -1.3018 -1.2985 -1.8013 0
M  V30 24 H -2.6748 -0.1302 -1.7645 0
M  V30 25 H -3.7684 -0.2817 0.4505 0
M  V30 26 H -3.3514 -0.5794 2.1805 0
M  V30 27 H -3.3915 -1.9563 1.0062 0
M  V30 END ATOM
M  V30 BEGIN BOND
M  V30 1 2 1 2
M  V30 2 1 2 3
M  V30 3 1 2 4
M  V30 4 2 4 5
M  V30 5 1 4 6
M  V30 6 1 5 7
M  V30 7 2 6 8
M  V30 8 2 7 9
M  V30 9 1 7 10
M  V30 10 1 9 11
M  V30 11 1 10 12
M  V30 12 1 10 13
M  V30 13 1 10 14
M  V30 14 1 12 15
M  V30 15 1 8 9
M  V30 16 2 11 12
M  V30 17 1 5 16
M  V30 18 1 6 17
M  V30 19 1 8 18
M  V30 20 1 13 19
M  V30 21 1 13 20
M  V30 22 1 13 21
M  V30 23 1 14 22
M  V30 24 1 14 23
M  V30 25 1 14 24
M  V30 26 1 15 25
M  V30 27 1 15 26
M  V30 28 1 15 27
M  V30 END BOND
M  V30 END CTAB
M  END
>  <Structure No>
2524

>  <LogS>
-2.662589054

>  <MMFF94 Energy>
54.451

$$$$
Compound 2525
Actelion Java MolfileCreator 2.0

  0  0  0  0  0  0              0 V3000
M  V30 BEGIN CTAB
M  V30 COUNTS 27 27 0 0 0
M  V30 BEGIN ATOM
M  V30 1 O 2.8475 1.1066 -0.4741 0
M  V30 2 C 2.5755 0.0122 0.0903 0
M  V30 3 O 1.3326 -0.6028 -0.0973 0
M  V30 4 C 3.6099 -0.6656 0.9222 0
M  V30 5 C 0.2641 -0.0171 -0.8457 0 CFG=2
M  V30 6 C -0.4111 1.113 -0.0237 0 CFG=2
M  V30 7 C -0.7379 -1.1217 -1.226 0
M  V30 8 C -1.188 0.5434 1.1834 0
M  V30 9 C -1.2964 2.0123 -0.902 0
M  V30 10 C -1.4625 -1.6779 0.0054 0
M  V30 11 C -2.1718 -0.5633 0.78 0
M  V30 12 H 4.2836 -1.255 0.2666 0
M  V30 13 H 4.2057 0.088 1.4793 0
M  V30 14 H 3.1223 -1.3465 1.651 0
M  V30 15 H 0.6778 0.4018 -1.7906 0
M  V30 16 H 0.3876 1.7712 0.3827 0
M  V30 17 H -1.4827 -0.7287 -1.9508 0
M  V30 18 H -0.195 -1.9495 -1.7314 0
M  V30 19 H -0.4621 0.1276 1.9167 0
M  V30 20 H -1.7416 1.3578 1.6996 0
M  V30 21 H -1.716 2.8426 -0.2949 0
M  V30 22 H -2.1367 1.4482 -1.3545 0
M  V30 23 H -0.691 2.459 -1.7191 0
M  V30 24 H -2.2125 -2.4304 -0.3206 0
M  V30 25 H -0.7341 -2.1907 0.6712 0
M  V30 26 H -2.6296 -0.9934 1.6968 0
M  V30 27 H -2.9941 -0.1402 0.1643 0
M  V30 END ATOM
M  V30 BEGIN BOND
M  V30 1 2 1 2
M  V30 2 1 2 3
M  V30 3 1 2 4
M  V30 4 1 3 5
M  V30 5 1 5 6
M  V30 6 1 5 7
M  V30 7 1 6 8
M  V30 8 1 6 9
M  V30 9 1 7 10
M  V30 10 1 8 11
M  V30 11 1 10 11
M  V30 12 1 4 12
M  V30 13 1 4 13
M  V30 14 1 4 14
M  V30 15 1 5 15
M  V30 16 1 6 16
M  V30 17 1 7 17
M  V30 18 1 7 18
M  V30 19 1 8 19
M  V30 20 1 8 20
M  V30 21 1 9 21
M  V30 22 1 9 22
M  V30 23 1 9 23
M  V30 24 1 10 24
M  V30 25 1 10 25
M  V30 26 1 11 26
M  V30 27 1 11 27
M  V30 END BOND
M  V30 BEGIN COLLECTION
M  V30 MDLV30/STEABS ATOMS=(2 5 6)
M  V30 END COLLECTION
M  V30 END CTAB
M  END
>  <Structure No>
2525

>  <LogS>
-2.550297857

>  <MMFF94 Energy>
-1.4141

$$$$
Compound 2526
Actelion Java MolfileCreator 2.0

  0  0  0  0  0  0              0 V3000
M  V30 BEGIN CTAB
M  V30 COUNTS 14 14 0 0 0
M  V30 BEGIN ATOM
M  V30 1 Cl 1.2438 2.6549 0.3315 0
M  V30 2 C 0.2949 1.1788 0.1869 0
M  V30 3 C 0.8899 -0.0972 0.0257 0
M  V30 4 C -1.1005 1.3035 0.1827 0
M  V30 5 N 2.3183 -0.2802 0.0354 0 CHG=1
M  V30 6 C 0.0557 -1.2158 -0.1563 0
M  V30 7 C -1.9114 0.1804 0.0143 0
M  V30 8 O 3.0572 0.4724 0.7022 0
M  V30 9 O 2.8759 -1.3814 -0.5725 0 CHG=-1
M  V30 10 C -1.334 -1.0769 -0.1584 0
M  V30 11 H -1.5598 2.2769 0.3012 0
M  V30 12 H 0.4806 -2.2033 -0.2823 0
M  V30 13 H -2.9886 0.286 0.0112 0
M  V30 14 H -1.9642 -1.9467 -0.2923 0
M  V30 END ATOM
M  V30 BEGIN BOND
M  V30 1 1 1 2
M  V30 2 2 2 3
M  V30 3 1 2 4
M  V30 4 1 3 5
M  V30 5 1 3 6
M  V30 6 2 4 7
M  V30 7 2 5 8
M  V30 8 1 5 9
M  V30 9 2 6 10
M  V30 10 1 7 10
M  V30 11 1 4 11
M  V30 12 1 6 12
M  V30 13 1 7 13
M  V30 14 1 10 14
M  V30 END BOND
M  V30 END CTAB
M  END
>  <Structure No>
2526

>  <LogS>
-2.563966491

>  <MMFF94 Energy>
38.747

$$$$
Compound 2527
Actelion Java MolfileCreator 2.0

  0  0  0  0  0  0              0 V3000
M  V30 BEGIN CTAB
M  V30 COUNTS 36 35 0 0 0
M  V30 BEGIN ATOM
M  V30 1 O -3.7451 0.9352 -0.7793 0
M  V30 2 C -3.0133 0.7464 0.2313 0
M  V30 3 O -1.6853 0.3384 0.082 0
M  V30 4 C -3.5795 0.9162 1.6109 0 CFG=1
M  V30 5 C -1.0796 0.139 -1.1924 0
M  V30 6 O -4.3988 2.0544 1.6634 0
M  V30 7 C -4.3963 -0.3132 1.9977 0
M  V30 8 C 0.3917 -0.2841 -1.0126 0 CFG=2
M  V30 9 C 1.2045 0.8393 -0.2996 0
M  V30 10 C 1.0349 -0.6374 -2.3774 0
M  V30 11 C 2.0379 0.3292 0.8922 0
M  V30 12 C 0.5541 -1.9775 -2.9371 0
M  V30 13 C 3.1959 -0.6066 0.5073 0
M  V30 14 C 4.3304 0.1218 -0.2129 0
M  V30 15 H -2.7433 1.0208 2.3406 0
M  V30 16 H -1.1335 1.0797 -1.7841 0
M  V30 17 H -1.6464 -0.6497 -1.7292 0
M  V30 18 H -3.7939 2.8421 1.6587 0
M  V30 19 H -3.7577 -1.2223 1.9732 0
M  V30 20 H -4.7944 -0.1906 3.0274 0
M  V30 21 H -5.2502 -0.4497 1.2996 0
M  V30 22 H 0.3904 -1.1979 -0.3767 0
M  V30 23 H 1.8536 1.3867 -1.0159 0
M  V30 24 H 0.5187 1.6146 0.107 0
M  V30 25 H 2.1371 -0.7057 -2.2671 0
M  V30 26 H 0.8292 0.1663 -3.1177 0
M  V30 27 H 2.4467 1.2033 1.4452 0
M  V30 28 H 1.3646 -0.2056 1.5972 0
M  V30 29 H -0.5156 -1.9301 -3.2245 0
M  V30 30 H 0.7032 -2.7867 -2.1911 0
M  V30 31 H 1.1404 -2.2274 -3.8464 0
M  V30 32 H 3.6095 -1.0465 1.4405 0
M  V30 33 H 2.832 -1.4504 -0.1147 0
M  V30 34 H 5.1729 -0.5819 -0.3787 0
M  V30 35 H 3.9974 0.4998 -1.2006 0
M  V30 36 H 4.6969 0.9715 0.4014 0
M  V30 END ATOM
M  V30 BEGIN BOND
M  V30 1 2 1 2
M  V30 2 1 2 3
M  V30 3 1 2 4
M  V30 4 1 3 5
M  V30 5 1 4 6
M  V30 6 1 4 7
M  V30 7 1 5 8
M  V30 8 1 8 9
M  V30 9 1 8 10
M  V30 10 1 9 11
M  V30 11 1 10 12
M  V30 12 1 11 13
M  V30 13 1 13 14
M  V30 14 1 4 15
M  V30 15 1 5 16
M  V30 16 1 5 17
M  V30 17 1 6 18
M  V30 18 1 7 19
M  V30 19 1 7 20
M  V30 20 1 7 21
M  V30 21 1 8 22
M  V30 22 1 9 23
M  V30 23 1 9 24
M  V30 24 1 10 25
M  V30 25 1 10 26
M  V30 26 1 11 27
M  V30 27 1 11 28
M  V30 28 1 12 29
M  V30 29 1 12 30
M  V30 30 1 12 31
M  V30 31 1 13 32
M  V30 32 1 13 33
M  V30 33 1 14 34
M  V30 34 1 14 35
M  V30 35 1 14 36
M  V30 END BOND
M  V30 BEGIN COLLECTION
M  V30 MDLV30/STEABS ATOMS=(2 4 8)
M  V30 END COLLECTION
M  V30 END CTAB
M  END
>  <Structure No>
2527

>  <LogS>
-2.67352571

>  <MMFF94 Energy>
30.155

$$$$
Compound 2528
Actelion Java MolfileCreator 2.0

  0  0  0  0  0  0              0 V3000
M  V30 BEGIN CTAB
M  V30 COUNTS 17 17 0 0 0
M  V30 BEGIN ATOM
M  V30 1 O 3.665 -1.1143 0.0 0
M  V30 2 N 3.0369 -0.035 0.0031 0 CHG=1
M  V30 3 O 3.7462 1.1442 0.0069 0 CHG=-1
M  V30 4 C 1.5975 -0.0229 0.0047 0
M  V30 5 C 0.8964 1.1957 0.0065 0
M  V30 6 C 0.8688 -1.2266 -8.0E-4 0
M  V30 7 C -0.5015 1.2107 0.0078 0
M  V30 8 C -0.5291 -1.2099 5.0E-4 0
M  V30 9 C -1.2228 0.0083 0.0206 0
M  V30 10 C -2.7223 0.0256 -0.0178 0
M  V30 11 H 1.4281 2.1385 0.0032 0
M  V30 12 H 1.3794 -2.1809 -0.0098 0
M  V30 13 H -1.0215 2.161 -2.0E-4 0
M  V30 14 H -1.0703 -2.1479 -0.0134 0
M  V30 15 H -3.0642 0.0327 -1.0738 0
M  V30 16 H -3.1173 0.9272 0.4971 0
M  V30 17 H -3.1377 -0.8699 0.4915 0
M  V30 END ATOM
M  V30 BEGIN BOND
M  V30 1 2 1 2
M  V30 2 1 2 3
M  V30 3 1 2 4
M  V30 4 2 4 5
M  V30 5 1 4 6
M  V30 6 1 5 7
M  V30 7 2 6 8
M  V30 8 2 7 9
M  V30 9 1 9 10
M  V30 10 1 8 9
M  V30 11 1 5 11
M  V30 12 1 6 12
M  V30 13 1 7 13
M  V30 14 1 8 14
M  V30 15 1 10 15
M  V30 16 1 10 16
M  V30 17 1 10 17
M  V30 END BOND
M  V30 END CTAB
M  END
>  <Structure No>
2528

>  <LogS>
-2.514943789

>  <MMFF94 Energy>
51.396

$$$$
Compound 2529
Actelion Java MolfileCreator 2.0

  0  0  0  0  0  0              0 V3000
M  V30 BEGIN CTAB
M  V30 COUNTS 29 29 0 0 0
M  V30 BEGIN ATOM
M  V30 1 O 2.0489 3.0747 0.1574 0
M  V30 2 C 2.8046 2.1547 0.5722 0
M  V30 3 O 2.3605 0.8276 0.6359 0
M  V30 4 C 4.2288 2.4621 0.8883 0
M  V30 5 C 1.0178 0.4183 0.6103 0
M  V30 6 C 0.7144 -0.8495 0.09 0
M  V30 7 C -0.0145 1.2243 1.1241 0
M  V30 8 O 1.7682 -1.6391 -0.397 0
M  V30 9 C -0.6239 -1.2891 0.0635 0
M  V30 10 C -1.3382 0.7823 1.0941 0
M  V30 11 C 1.611 -2.9397 -0.955 0
M  V30 12 C -1.6517 -0.478 0.568 0
M  V30 13 C -3.0824 -0.9443 0.5087 0
M  V30 14 C -3.6543 -0.7348 -0.8654 0
M  V30 15 C -3.9418 0.4855 -1.3278 0
M  V30 16 H 4.8322 2.4167 -0.0419 0
M  V30 17 H 4.6226 1.7212 1.6152 0
M  V30 18 H 4.3118 3.4772 1.3309 0
M  V30 19 H 0.2011 2.1837 1.5741 0
M  V30 20 H -0.8758 -2.2577 -0.3474 0
M  V30 21 H -2.1187 1.4214 1.4886 0
M  V30 22 H 0.9629 -2.8929 -1.8557 0
M  V30 23 H 2.606 -3.3284 -1.2536 0
M  V30 24 H 1.1717 -3.6278 -0.2022 0
M  V30 25 H -3.7071 -0.4149 1.2614 0
M  V30 26 H -3.1258 -2.0269 0.7564 0
M  V30 27 H -3.8486 -1.5993 -1.4934 0
M  V30 28 H -4.3581 0.605 -2.3228 0
M  V30 29 H -3.7663 1.3688 -0.7211 0
M  V30 END ATOM
M  V30 BEGIN BOND
M  V30 1 2 1 2
M  V30 2 1 2 3
M  V30 3 1 2 4
M  V30 4 1 3 5
M  V30 5 2 5 6
M  V30 6 1 5 7
M  V30 7 1 6 8
M  V30 8 1 6 9
M  V30 9 2 7 10
M  V30 10 1 8 11
M  V30 11 2 9 12
M  V30 12 1 12 13
M  V30 13 1 13 14
M  V30 14 2 14 15
M  V30 15 1 10 12
M  V30 16 1 4 16
M  V30 17 1 4 17
M  V30 18 1 4 18
M  V30 19 1 7 19
M  V30 20 1 9 20
M  V30 21 1 10 21
M  V30 22 1 11 22
M  V30 23 1 11 23
M  V30 24 1 11 24
M  V30 25 1 13 25
M  V30 26 1 13 26
M  V30 27 1 14 27
M  V30 28 1 15 28
M  V30 29 1 15 29
M  V30 END BOND
M  V30 END CTAB
M  END
>  <Structure No>
2529

>  <LogS>
-2.701591149

>  <MMFF94 Energy>
50.661

$$$$
Compound 2530
Actelion Java MolfileCreator 2.0

  0  0  0  0  0  0              0 V3000
M  V30 BEGIN CTAB
M  V30 COUNTS 15 14 0 0 0
M  V30 BEGIN ATOM
M  V30 1 C -0.454 0.0756 0.1513 0
M  V30 2 C 0.6107 0.8215 -0.2104 0
M  V30 3 C -1.7059 0.7761 0.6117 0
M  V30 4 C -0.4127 -1.4331 0.1031 0
M  V30 5 C 1.9081 0.2317 -0.6845 0
M  V30 6 H 0.5415 1.9055 -0.1616 0
M  V30 7 H -2.5053 0.0542 0.8798 0
M  V30 8 H -1.4822 1.3952 1.5062 0
M  V30 9 H -2.0879 1.4331 -0.198 0
M  V30 10 H -0.2181 -1.7738 -0.9353 0
M  V30 11 H 0.3884 -1.8117 0.7717 0
M  V30 12 H -1.3739 -1.8778 0.4347 0
M  V30 13 H 2.3503 -0.4074 0.108 0
M  V30 14 H 2.6236 1.0469 -0.9207 0
M  V30 15 H 1.7423 -0.3693 -1.6029 0
M  V30 END ATOM
M  V30 BEGIN BOND
M  V30 1 2 1 2
M  V30 2 1 1 3
M  V30 3 1 1 4
M  V30 4 1 2 5
M  V30 5 1 2 6
M  V30 6 1 3 7
M  V30 7 1 3 8
M  V30 8 1 3 9
M  V30 9 1 4 10
M  V30 10 1 4 11
M  V30 11 1 4 12
M  V30 12 1 5 13
M  V30 13 1 5 14
M  V30 14 1 5 15
M  V30 END BOND
M  V30 END CTAB
M  END
>  <Structure No>
2530

>  <LogS>
-2.233150945

>  <MMFF94 Energy>
7.8579

$$$$
Compound 2531
Actelion Java MolfileCreator 2.0

  0  0  0  0  0  0              0 V3000
M  V30 BEGIN CTAB
M  V30 COUNTS 34 36 0 0 0
M  V30 BEGIN ATOM
M  V30 1 Cl 1.7298 -2.142 -2.2245 0
M  V30 2 C 2.5111 -1.0681 -1.065 0
M  V30 3 C 1.7863 -0.2746 -0.1337 0
M  V30 4 C 3.9113 -1.0366 -1.0747 0
M  V30 5 C 2.519 0.4925 0.7992 0
M  V30 6 C 0.2558 -0.2905 -0.0658 0 CFG=1
M  V30 7 C 4.611 -0.2463 -0.1626 0
M  V30 8 C 3.9144 0.5119 0.7767 0
M  V30 9 O -0.2132 0.831 0.6586 0
M  V30 10 O -0.2796 -0.2882 -1.3754 0
M  V30 11 C -0.203 -1.5631 0.6705 0
M  V30 12 Cl 6.3647 -0.2211 -0.1854 0
M  V30 13 C -0.7304 1.7082 -0.2887 0 CFG=1
M  V30 14 C -1.057 0.8614 -1.4873 0
M  V30 15 N -1.6594 -1.6071 0.7745 0
M  V30 16 C -1.9528 2.433 0.2801 0
M  V30 17 N -2.3581 -1.0458 1.7433 0
M  V30 18 C -2.5158 -2.1369 -0.1136 0
M  V30 19 O -2.4582 3.3322 -0.6675 0
M  V30 20 C -3.6499 -1.2605 1.4263 0
M  V30 21 N -3.7926 -1.9401 0.2666 0
M  V30 22 H 4.4592 -1.6372 -1.7902 0
M  V30 23 H 2.0171 1.0816 1.5557 0
M  V30 24 H 4.4539 1.1149 1.4961 0
M  V30 25 H 0.1545 -2.4718 0.1404 0
M  V30 26 H 0.2346 -1.5814 1.693 0
M  V30 27 H 0.0535 2.4542 -0.5513 0
M  V30 28 H -0.8067 1.3959 -2.4283 0
M  V30 29 H -2.1287 0.5652 -1.5111 0
M  V30 30 H -1.6486 2.9897 1.1945 0
M  V30 31 H -2.7374 1.6947 0.5614 0
M  V30 32 H -2.2227 -2.6435 -1.0239 0
M  V30 33 H -3.2466 3.7624 -0.2451 0
M  V30 34 H -4.4807 -0.92 2.0293 0
M  V30 END ATOM
M  V30 BEGIN BOND
M  V30 1 1 1 2
M  V30 2 2 2 3
M  V30 3 1 2 4
M  V30 4 1 3 5
M  V30 5 1 3 6
M  V30 6 2 4 7
M  V30 7 2 5 8
M  V30 8 1 6 9
M  V30 9 1 6 10
M  V30 10 1 6 11
M  V30 11 1 7 12
M  V30 12 1 9 13
M  V30 13 1 10 14
M  V30 14 1 11 15
M  V30 15 1 13 16
M  V30 16 1 15 17
M  V30 17 1 15 18
M  V30 18 1 16 19
M  V30 19 2 17 20
M  V30 20 2 18 21
M  V30 21 1 7 8
M  V30 22 1 13 14
M  V30 23 1 20 21
M  V30 24 1 4 22
M  V30 25 1 5 23
M  V30 26 1 8 24
M  V30 27 1 11 25
M  V30 28 1 11 26
M  V30 29 1 13 27
M  V30 30 1 14 28
M  V30 31 1 14 29
M  V30 32 1 16 30
M  V30 33 1 16 31
M  V30 34 1 18 32
M  V30 35 1 19 33
M  V30 36 1 20 34
M  V30 END BOND
M  V30 BEGIN COLLECTION
M  V30 MDLV30/STEABS ATOMS=(2 6 13)
M  V30 END COLLECTION
M  V30 END CTAB
M  END
>  <Structure No>
2531

>  <LogS>
-2.905955068

>  <MMFF94 Energy>
54.919

$$$$
Compound 2532
Actelion Java MolfileCreator 2.0

  0  0  0  0  0  0              0 V3000
M  V30 BEGIN CTAB
M  V30 COUNTS 24 23 0 0 0
M  V30 BEGIN ATOM
M  V30 1 O 1.783 -1.3951 1.085 0
M  V30 2 C 1.5722 -0.3407 0.4234 0
M  V30 3 O 0.4873 0.4851 0.7421 0
M  V30 4 C 2.4679 0.0367 -0.6921 0
M  V30 5 C -0.4851 0.1617 1.7349 0
M  V30 6 C 3.4828 -0.7549 -1.0589 0
M  V30 7 C 2.1812 1.294 -1.4655 0
M  V30 8 C -1.4394 -0.9378 1.2466 0
M  V30 9 C -2.1194 -0.6089 -0.0928 0
M  V30 10 C -3.0911 0.566 0.0089 0
M  V30 11 H 0.02 -0.1663 2.6692 0
M  V30 12 H -1.0629 1.0763 1.9814 0
M  V30 13 H 4.1205 -0.4937 -1.8943 0
M  V30 14 H 3.6967 -1.6784 -0.5358 0
M  V30 15 H 1.9501 2.1259 -0.7671 0
M  V30 16 H 3.0499 1.6043 -2.0855 0
M  V30 17 H 1.3079 1.1269 -2.1301 0
M  V30 18 H -2.2139 -1.1188 2.0235 0
M  V30 19 H -0.8685 -1.8832 1.1284 0
M  V30 20 H -1.3561 -0.3943 -0.8715 0
M  V30 21 H -2.6888 -1.5042 -0.4237 0
M  V30 22 H -3.8274 0.3927 0.8224 0
M  V30 23 H -3.6418 0.6731 -0.9492 0
M  V30 24 H -2.5435 1.5122 0.1992 0
M  V30 END ATOM
M  V30 BEGIN BOND
M  V30 1 2 1 2
M  V30 2 1 2 3
M  V30 3 1 2 4
M  V30 4 1 3 5
M  V30 5 2 4 6
M  V30 6 1 4 7
M  V30 7 1 5 8
M  V30 8 1 8 9
M  V30 9 1 9 10
M  V30 10 1 5 11
M  V30 11 1 5 12
M  V30 12 1 6 13
M  V30 13 1 6 14
M  V30 14 1 7 15
M  V30 15 1 7 16
M  V30 16 1 7 17
M  V30 17 1 8 18
M  V30 18 1 8 19
M  V30 19 1 9 20
M  V30 20 1 9 21
M  V30 21 1 10 22
M  V30 22 1 10 23
M  V30 23 1 10 24
M  V30 END BOND
M  V30 END CTAB
M  END
>  <Structure No>
2532

>  <LogS>
-2.544367455

>  <MMFF94 Energy>
-0.54541

$$$$
Compound 2533
Actelion Java MolfileCreator 2.0

  0  0  0  0  0  0              0 V3000
M  V30 BEGIN CTAB
M  V30 COUNTS 79 82 0 0 0
M  V30 BEGIN ATOM
M  V30 1 O 3.4551 2.49 -2.4096 0
M  V30 2 C 3.3178 1.7859 -1.3727 0
M  V30 3 C 1.9629 1.3355 -0.9749 0
M  V30 4 C 4.5344 1.4421 -0.5577 0
M  V30 5 C 0.8898 2.2557 -0.8914 0
M  V30 6 C 1.7132 -0.0328 -0.7326 0
M  V30 7 C 5.5512 0.6553 -1.3927 0
M  V30 8 O 1.0702 3.6295 -1.0713 0
M  V30 9 C -0.4002 1.798 -0.6046 0
M  V30 10 O 2.7451 -0.9663 -0.8259 0
M  V30 11 C 0.418 -0.4687 -0.4229 0
M  V30 12 C 6.7414 0.2649 -0.5585 0
M  V30 13 C -0.6503 0.4427 -0.3794 0
M  V30 14 C 6.7431 -0.9457 0.1492 0
M  V30 15 C 7.8437 1.1248 -0.4521 0
M  V30 16 O -1.9715 0.0471 -0.1217 0
M  V30 17 C 7.849 -1.3103 0.9301 0
M  V30 18 C 8.9478 0.7641 0.3242 0
M  V30 19 C -2.4092 -1.3043 0.0209 0 CFG=2
M  V30 20 O 7.85 -2.5194 1.6236 0
M  V30 21 C 8.9615 -0.4613 1.0167 0
M  V30 22 O -2.1564 -2.0022 -1.1852 0
M  V30 23 C -3.9273 -1.3452 0.3607 0 CFG=1
M  V30 24 O 10.056 -0.8679 1.7957 0
M  V30 25 C -2.2834 -3.4051 -0.9923 0 CFG=1
M  V30 26 O -4.58 -0.1683 -0.0982 0
M  V30 27 C -4.6059 -2.5802 -0.284 0 CFG=2
M  V30 28 C 11.2546 -0.1165 1.9561 0
M  V30 29 C -3.6264 -3.7736 -0.2735 0 CFG=1
M  V30 30 C -2.1174 -4.0867 -2.3609 0
M  V30 31 C -4.6975 0.8144 0.9173 0 CFG=1
M  V30 32 O -4.9863 -2.2953 -1.6092 0
M  V30 33 O -4.2209 -4.9526 -0.7643 0
M  V30 34 O -0.9013 -3.7109 -2.9498 0
M  V30 35 O -4.6871 2.0861 0.2891 0
M  V30 36 C -6.0259 0.6138 1.6857 0 CFG=2
M  V30 37 C -4.6816 3.1223 1.2572 0 CFG=2
M  V30 38 O -7.1109 0.605 0.7919 0
M  V30 39 C -6.2044 1.7495 2.714 0 CFG=1
M  V30 40 C -6.0076 3.1275 2.0502 0 CFG=2
M  V30 41 C -4.4555 4.4586 0.5491 0
M  V30 42 O -7.4735 1.6806 3.3124 0
M  V30 43 O -7.0791 3.4141 1.1854 0
M  V30 44 H 4.2448 0.8543 0.3399 0
M  V30 45 H 4.9987 2.3877 -0.2021 0
M  V30 46 H 5.8882 1.2744 -2.2528 0
M  V30 47 H 5.0765 -0.2563 -1.8155 0
M  V30 48 H 1.9788 4.0574 -1.1897 0
M  V30 49 H -1.2202 2.5059 -0.5581 0
M  V30 50 H 2.5853 -1.9545 -0.6676 0
M  V30 51 H 0.2525 -1.5222 -0.241 0
M  V30 52 H 5.8883 -1.6087 0.0904 0
M  V30 53 H 7.8506 2.0733 -0.9757 0
M  V30 54 H 9.7857 1.445 0.3781 0
M  V30 55 H -1.8418 -1.7581 0.8691 0
M  V30 56 H 7.0619 -3.1556 1.5832 0
M  V30 57 H -4.025 -1.4801 1.4661 0
M  V30 58 H -1.4386 -3.7607 -0.3574 0
M  V30 59 H -5.5048 -2.8559 0.317 0
M  V30 60 H 11.739 0.0461 0.9704 0
M  V30 61 H 11.9542 -0.682 2.6043 0
M  V30 62 H 11.0319 0.8587 2.4371 0
M  V30 63 H -3.3792 -3.9715 0.7937 0
M  V30 64 H -2.1556 -5.1946 -2.2551 0
M  V30 65 H -2.9422 -3.7729 -3.0355 0
M  V30 66 H -3.839 0.7546 1.6339 0
M  V30 67 H -5.8927 -1.8908 -1.5734 0
M  V30 68 H -4.6464 -4.75 -1.6377 0
M  V30 69 H -0.1862 -4.2011 -2.4659 0
M  V30 70 H -5.9893 -0.3502 2.2445 0
M  V30 71 H -3.8287 2.9934 1.9644 0
M  V30 72 H -7.1481 -0.3014 0.389 0
M  V30 73 H -5.4242 1.639 3.5045 0
M  V30 74 H -5.9423 3.9065 2.8469 0
M  V30 75 H -3.4732 4.445 0.0315 0
M  V30 76 H -4.4532 5.2907 1.285 0
M  V30 77 H -5.2487 4.6411 -0.2066 0
M  V30 78 H -7.4639 0.8898 3.9123 0
M  V30 79 H -7.8182 3.7632 1.7468 0
M  V30 END ATOM
M  V30 BEGIN BOND
M  V30 1 2 1 2
M  V30 2 1 2 3
M  V30 3 1 2 4
M  V30 4 2 3 5
M  V30 5 1 3 6
M  V30 6 1 4 7
M  V30 7 1 5 8
M  V30 8 1 5 9
M  V30 9 1 6 10
M  V30 10 2 6 11
M  V30 11 1 7 12
M  V30 12 2 9 13
M  V30 13 2 12 14
M  V30 14 1 12 15
M  V30 15 1 13 16
M  V30 16 1 14 17
M  V30 17 2 15 18
M  V30 18 1 16 19
M  V30 19 1 17 20
M  V30 20 2 17 21
M  V30 21 1 19 22
M  V30 22 1 19 23
M  V30 23 1 21 24
M  V30 24 1 22 25
M  V30 25 1 23 26
M  V30 26 1 23 27
M  V30 27 1 24 28
M  V30 28 1 25 29
M  V30 29 1 25 30
M  V30 30 1 26 31
M  V30 31 1 27 32
M  V30 32 1 29 33
M  V30 33 1 30 34
M  V30 34 1 31 35
M  V30 35 1 31 36
M  V30 36 1 35 37
M  V30 37 1 36 38
M  V30 38 1 36 39
M  V30 39 1 37 40
M  V30 40 1 37 41
M  V30 41 1 39 42
M  V30 42 1 40 43
M  V30 43 1 11 13
M  V30 44 1 18 21
M  V30 45 1 27 29
M  V30 46 1 39 40
M  V30 47 1 4 44
M  V30 48 1 4 45
M  V30 49 1 7 46
M  V30 50 1 7 47
M  V30 51 1 8 48
M  V30 52 1 9 49
M  V30 53 1 10 50
M  V30 54 1 11 51
M  V30 55 1 14 52
M  V30 56 1 15 53
M  V30 57 1 18 54
M  V30 58 1 19 55
M  V30 59 1 20 56
M  V30 60 1 23 57
M  V30 61 1 25 58
M  V30 62 1 27 59
M  V30 63 1 28 60
M  V30 64 1 28 61
M  V30 65 1 28 62
M  V30 66 1 29 63
M  V30 67 1 30 64
M  V30 68 1 30 65
M  V30 69 1 31 66
M  V30 70 1 32 67
M  V30 71 1 33 68
M  V30 72 1 34 69
M  V30 73 1 36 70
M  V30 74 1 37 71
M  V30 75 1 38 72
M  V30 76 1 39 73
M  V30 77 1 40 74
M  V30 78 1 41 75
M  V30 79 1 41 76
M  V30 80 1 41 77
M  V30 81 1 42 78
M  V30 82 1 43 79
M  V30 END BOND
M  V30 BEGIN COLLECTION
M  V30 MDLV30/STEABS ATOMS=(10 19 23 25 27 29 31 36 37 39 40)
M  V30 END COLLECTION
M  V30 END CTAB
M  END
>  <Structure No>
2533

>  <LogS>
-3.185103531

>  <MMFF94 Energy>
249.28

$$$$
Compound 2534
Actelion Java MolfileCreator 2.0

  0  0  0  0  0  0              0 V3000
M  V30 BEGIN CTAB
M  V30 COUNTS 30 29 0 0 0
M  V30 BEGIN ATOM
M  V30 1 O 2.7104 2.3229 0.0 0
M  V30 2 C 2.822 1.1553 0.7664 0
M  V30 3 C 1.4918 0.39 0.7678 0
M  V30 4 C 0.9293 0.0614 -0.6403 0 CFG=2
M  V30 5 C -0.3161 -0.876 -0.5825 0
M  V30 6 C 2.0019 -0.6024 -1.5277 0
M  V30 7 C -1.6478 -0.3412 0.0559 0
M  V30 8 C -1.8879 1.152 -0.2513 0
M  V30 9 C -2.8255 -1.144 -0.5465 0
M  V30 10 C -1.6748 -0.5743 1.5845 0
M  V30 11 H 3.6016 2.7583 0.0308 0
M  V30 12 H 3.6415 0.5115 0.3782 0
M  V30 13 H 3.0767 1.4255 1.8157 0
M  V30 14 H 1.6199 -0.5472 1.352 0
M  V30 15 H 0.7743 1.039 1.3023 0
M  V30 16 H 0.6446 1.0103 -1.1432 0
M  V30 17 H -0.5446 -1.1507 -1.6369 0
M  V30 18 H -0.027 -1.8305 -0.0887 0
M  V30 19 H 1.5714 -0.9092 -2.5048 0
M  V30 20 H 2.4231 -1.5003 -1.0263 0
M  V30 21 H 2.8219 0.109 -1.7573 0
M  V30 22 H -1.1417 1.7972 0.2545 0
M  V30 23 H -2.8919 1.4687 0.106 0
M  V30 24 H -1.8353 1.3369 -1.3459 0
M  V30 25 H -3.7934 -0.8367 -0.0934 0
M  V30 26 H -2.6891 -2.2327 -0.3671 0
M  V30 27 H -2.8983 -0.9782 -1.6434 0
M  V30 28 H -1.4749 -1.6412 1.8228 0
M  V30 29 H -0.9374 0.0437 2.1244 0
M  V30 30 H -2.6724 -0.3133 2.0002 0
M  V30 END ATOM
M  V30 BEGIN BOND
M  V30 1 1 1 2
M  V30 2 1 2 3
M  V30 3 1 3 4
M  V30 4 1 4 5
M  V30 5 1 4 6
M  V30 6 1 5 7
M  V30 7 1 7 8
M  V30 8 1 7 9
M  V30 9 1 7 10
M  V30 10 1 1 11
M  V30 11 1 2 12
M  V30 12 1 2 13
M  V30 13 1 3 14
M  V30 14 1 3 15
M  V30 15 1 4 16
M  V30 16 1 5 17
M  V30 17 1 5 18
M  V30 18 1 6 19
M  V30 19 1 6 20
M  V30 20 1 6 21
M  V30 21 1 8 22
M  V30 22 1 8 23
M  V30 23 1 8 24
M  V30 24 1 9 25
M  V30 25 1 9 26
M  V30 26 1 9 27
M  V30 27 1 10 28
M  V30 28 1 10 29
M  V30 29 1 10 30
M  V30 END BOND
M  V30 BEGIN COLLECTION
M  V30 MDLV30/STEABS ATOMS=(1 4)
M  V30 END COLLECTION
M  V30 END CTAB
M  END
>  <Structure No>
2534

>  <LogS>
-2.557079916

>  <MMFF94 Energy>
22.318

$$$$
Compound 2535
Actelion Java MolfileCreator 2.0

  0  0  0  0  0  0              0 V3000
M  V30 BEGIN CTAB
M  V30 COUNTS 14 14 0 0 0
M  V30 BEGIN ATOM
M  V30 1 Cl -3.4591 0.6742 0.7585 0
M  V30 2 C -1.7765 0.3405 0.3909 0
M  V30 3 C -0.89 1.3934 0.1536 0
M  V30 4 C -1.3217 -0.9777 0.3349 0
M  V30 5 C 0.454 1.1359 -0.1404 0
M  V30 6 C 0.0178 -1.2458 0.0423 0
M  V30 7 O 1.3016 2.2138 -0.3696 0 CHG=-1
M  V30 8 C 0.9271 -0.196 -0.1998 0
M  V30 9 N 2.3073 -0.4949 -0.5006 0 CHG=1
M  V30 10 O 2.7013 -1.6789 -0.5474 0
M  V30 11 O 3.2189 0.5069 -0.7416 0 CHG=-1
M  V30 12 H -1.2441 2.4161 0.1974 0
M  V30 13 H -2.0052 -1.7972 0.5182 0
M  V30 14 H 0.3427 -2.2776 0.0056 0
M  V30 END ATOM
M  V30 BEGIN BOND
M  V30 1 1 1 2
M  V30 2 2 2 3
M  V30 3 1 2 4
M  V30 4 1 3 5
M  V30 5 2 4 6
M  V30 6 1 5 7
M  V30 7 2 5 8
M  V30 8 1 8 9
M  V30 9 2 9 10
M  V30 10 1 9 11
M  V30 11 1 6 8
M  V30 12 1 3 12
M  V30 13 1 4 13
M  V30 14 1 6 14
M  V30 END BOND
M  V30 END CTAB
M  END
>  <Structure No>
2535

>  <LogS>
-2.637377139

>  <MMFF94 Energy>
70.918

$$$$
Compound 2536
Actelion Java MolfileCreator 2.0

  0  0  0  0  0  0              0 V3000
M  V30 BEGIN CTAB
M  V30 COUNTS 12 12 0 0 0
M  V30 BEGIN ATOM
M  V30 1 Cl 2.8398 -1.2974 0.0 0
M  V30 2 C 1.2384 -0.5815 0.0028 0
M  V30 3 C 0.1038 -1.4018 0.0209 0
M  V30 4 C 1.0929 0.8109 -0.0129 0
M  V30 5 C -1.173 -0.8302 0.0233 0
M  V30 6 C -0.1844 1.3813 -0.0105 0
M  V30 7 C -1.3171 0.5609 0.0075 0
M  V30 8 H 0.2101 -2.479 0.0333 0
M  V30 9 H 1.9665 1.4502 -0.0268 0
M  V30 10 H -2.0497 -1.4647 0.0373 0
M  V30 11 H -0.2964 2.4577 -0.0228 0
M  V30 12 H -2.3052 1.0027 0.0093 0
M  V30 END ATOM
M  V30 BEGIN BOND
M  V30 1 1 1 2
M  V30 2 2 2 3
M  V30 3 1 2 4
M  V30 4 1 3 5
M  V30 5 2 4 6
M  V30 6 2 5 7
M  V30 7 1 6 7
M  V30 8 1 3 8
M  V30 9 1 4 9
M  V30 10 1 5 10
M  V30 11 1 6 11
M  V30 12 1 7 12
M  V30 END BOND
M  V30 END CTAB
M  END
>  <Structure No>
2536

>  <LogS>
-2.449320235

>  <MMFF94 Energy>
15.271

$$$$
Compound 2537
Actelion Java MolfileCreator 2.0

  0  0  0  0  0  0              0 V3000
M  V30 BEGIN CTAB
M  V30 COUNTS 25 26 0 0 0
M  V30 BEGIN ATOM
M  V30 1 O -0.2424 -2.5883 -0.4849 0
M  V30 2 C -0.6163 -1.4097 -0.2441 0
M  V30 3 N 0.2634 -0.2873 -0.1293 0
M  V30 4 C -1.9962 -0.9816 -0.0406 0
M  V30 5 C -0.5949 0.8231 0.146 0
M  V30 6 C 1.6908 -0.2752 -0.2536 0
M  V30 7 C -1.9831 0.3773 0.1967 0
M  V30 8 C -3.186 -1.7075 -0.057 0
M  V30 9 O -0.1983 2.0062 0.3184 0
M  V30 10 O 2.3096 -1.3469 -0.497 0
M  V30 11 O 2.3895 0.9292 -0.1107 0
M  V30 12 C -3.1589 1.088 0.4313 0
M  V30 13 C -4.3863 -1.0128 0.1769 0
M  V30 14 C 3.8112 1.0253 -0.1672 0
M  V30 15 C -4.3728 0.378 0.4199 0
M  V30 16 C 4.4364 0.5168 1.1264 0
M  V30 17 H -3.1873 -2.7734 -0.2438 0
M  V30 18 H -3.1396 2.1541 0.617 0
M  V30 19 H -5.3267 -1.5483 0.1706 0
M  V30 20 H 4.2044 0.4554 -1.0369 0
M  V30 21 H 4.0879 2.0922 -0.3011 0
M  V30 22 H -5.303 0.9015 0.5987 0
M  V30 23 H 4.0348 1.0868 1.9909 0
M  V30 24 H 5.5378 0.6515 1.0869 0
M  V30 25 H 4.2144 -0.5615 1.2666 0
M  V30 END ATOM
M  V30 BEGIN BOND
M  V30 1 2 1 2
M  V30 2 1 2 3
M  V30 3 1 2 4
M  V30 4 1 3 5
M  V30 5 1 3 6
M  V30 6 2 4 7
M  V30 7 1 4 8
M  V30 8 2 5 9
M  V30 9 2 6 10
M  V30 10 1 6 11
M  V30 11 1 7 12
M  V30 12 2 8 13
M  V30 13 1 11 14
M  V30 14 2 12 15
M  V30 15 1 14 16
M  V30 16 1 5 7
M  V30 17 1 13 15
M  V30 18 1 8 17
M  V30 19 1 12 18
M  V30 20 1 13 19
M  V30 21 1 14 20
M  V30 22 1 14 21
M  V30 23 1 15 22
M  V30 24 1 16 23
M  V30 25 1 16 24
M  V30 26 1 16 25
M  V30 END BOND
M  V30 END CTAB
M  END
>  <Structure No>
2537

>  <LogS>
-2.738772633

>  <MMFF94 Energy>
-37.025

$$$$
Compound 2538
Actelion Java MolfileCreator 2.0

  0  0  0  0  0  0              0 V3000
M  V30 BEGIN CTAB
M  V30 COUNTS 31 31 0 0 0
M  V30 BEGIN ATOM
M  V30 1 O -4.7773 -0.7819 -0.6255 0
M  V30 2 C -3.3855 -0.8898 -0.4989 0
M  V30 3 C -2.8231 0.3508 0.2135 0
M  V30 4 C -1.277 0.3905 0.2955 0 CFG=2
M  V30 5 C -0.626 0.4619 -1.114 0
M  V30 6 C -0.736 -0.7896 1.1235 0
M  V30 7 C 0.6453 1.3279 -1.1709 0
M  V30 8 C 1.7995 0.7285 -0.4111 0
M  V30 9 C 2.4462 -0.4202 -0.8974 0
M  V30 10 C 2.2353 1.3053 0.7945 0
M  V30 11 C 3.5082 -0.9855 -0.1849 0
M  V30 12 C 3.2978 0.7365 1.5034 0
M  V30 13 C 3.9332 -0.4081 1.0147 0
M  V30 14 H -5.1601 -0.9682 0.2716 0
M  V30 15 H -2.952 -0.9745 -1.5167 0
M  V30 16 H -3.1289 -1.8159 0.0622 0
M  V30 17 H -3.1799 1.262 -0.3154 0
M  V30 18 H -3.2429 0.3942 1.2427 0
M  V30 19 H -1.0257 1.3222 0.8505 0
M  V30 20 H -0.4118 -0.5577 -1.5025 0
M  V30 21 H -1.3441 0.921 -1.8288 0
M  V30 22 H -1.299 -0.882 2.0767 0
M  V30 23 H 0.3283 -0.6346 1.3847 0
M  V30 24 H -0.8208 -1.7447 0.564 0
M  V30 25 H 0.415 2.351 -0.7997 0
M  V30 26 H 0.9483 1.4417 -2.2345 0
M  V30 27 H 2.126 -0.8776 -1.8253 0
M  V30 28 H 1.7478 2.188 1.1898 0
M  V30 29 H 4.0014 -1.8718 -0.5627 0
M  V30 30 H 3.6273 1.1819 2.4333 0
M  V30 31 H 4.7549 -0.8476 1.5653 0
M  V30 END ATOM
M  V30 BEGIN BOND
M  V30 1 1 1 2
M  V30 2 1 2 3
M  V30 3 1 3 4
M  V30 4 1 4 5
M  V30 5 1 4 6
M  V30 6 1 5 7
M  V30 7 1 7 8
M  V30 8 2 8 9
M  V30 9 1 8 10
M  V30 10 1 9 11
M  V30 11 2 10 12
M  V30 12 2 11 13
M  V30 13 1 12 13
M  V30 14 1 1 14
M  V30 15 1 2 15
M  V30 16 1 2 16
M  V30 17 1 3 17
M  V30 18 1 3 18
M  V30 19 1 4 19
M  V30 20 1 5 20
M  V30 21 1 5 21
M  V30 22 1 6 22
M  V30 23 1 6 23
M  V30 24 1 6 24
M  V30 25 1 7 25
M  V30 26 1 7 26
M  V30 27 1 9 27
M  V30 28 1 10 28
M  V30 29 1 11 29
M  V30 30 1 12 30
M  V30 31 1 13 31
M  V30 END BOND
M  V30 BEGIN COLLECTION
M  V30 MDLV30/STEABS ATOMS=(1 4)
M  V30 END COLLECTION
M  V30 END CTAB
M  END
>  <Structure No>
2538

>  <LogS>
-2.660025838

>  <MMFF94 Energy>
27.053

$$$$
Compound 2539
Actelion Java MolfileCreator 2.0

  0  0  0  0  0  0              0 V3000
M  V30 BEGIN CTAB
M  V30 COUNTS 71 70 0 0 0
M  V30 BEGIN ATOM
M  V30 1 N -0.544 0.0777 -2.8003 0 CHG=1
M  V30 2 C -1.865 -0.2242 -2.1372 0
M  V30 3 C 0.5761 -0.2317 -1.85 0
M  V30 4 C -0.4282 -0.8236 -3.9797 0
M  V30 5 C -0.4915 1.478 -3.2931 0
M  V30 6 C -2.5445 0.9036 -1.3058 0
M  V30 7 C 1.9835 0.2396 -2.2935 0
M  V30 8 C -1.8412 1.2568 0.015 0
M  V30 9 C 3.0513 -0.2419 -1.3016 0
M  V30 10 C -2.6886 2.1607 0.932 0
M  V30 11 C 4.4431 0.2858 -1.6816 0
M  V30 12 C -3.9607 1.5143 1.5134 0
M  V30 13 C 5.547 -0.2229 -0.7302 0
M  V30 14 C -3.6718 0.2696 2.3715 0
M  V30 15 C 5.9943 0.8144 0.3181 0
M  V30 16 C -4.9348 -0.252 3.0903 0
M  V30 17 C 4.9245 1.1973 1.3587 0
M  V30 18 C -5.5643 -1.4842 2.4179 0
M  V30 19 C 4.4229 0.0336 2.2342 0
M  V30 20 C -6.1494 -1.1754 1.0341 0
M  V30 21 C 5.524 -0.561 3.1235 0
M  V30 22 C -6.9231 -2.3702 0.4837 0
M  V30 23 C 4.9511 -1.5931 4.0917 0
M  V30 24 H -2.6257 -0.4925 -2.9073 0
M  V30 25 H -1.7839 -1.1333 -1.4984 0
M  V30 26 H 0.6175 -1.3299 -1.6615 0
M  V30 27 H 0.392 0.2214 -0.8615 0
M  V30 28 H 0.5121 -0.6578 -4.5457 0
M  V30 29 H -1.2579 -0.6504 -4.7035 0
M  V30 30 H -0.4638 -1.8947 -3.6735 0
M  V30 31 H -1.4087 1.7302 -3.8707 0
M  V30 32 H -0.3836 2.1986 -2.4559 0
M  V30 33 H 0.3684 1.6398 -3.9802 0
M  V30 34 H -3.5598 0.5261 -1.0686 0
M  V30 35 H -2.7018 1.8209 -1.91 0
M  V30 36 H 2.238 -0.1525 -3.2979 0
M  V30 37 H 2.0122 1.3496 -2.3241 0
M  V30 38 H -1.5354 0.3362 0.5532 0
M  V30 39 H -0.9234 1.8341 -0.2159 0
M  V30 40 H 2.7809 0.1069 -0.2842 0
M  V30 41 H 3.0689 -1.3544 -1.2967 0
M  V30 42 H -2.0496 2.498 1.7775 0
M  V30 43 H -2.9814 3.0732 0.3672 0
M  V30 44 H 4.4321 1.398 -1.7117 0
M  V30 45 H 4.6782 -0.0662 -2.7104 0
M  V30 46 H -4.4513 2.2796 2.154 0
M  V30 47 H -4.6783 1.2778 0.7049 0
M  V30 48 H 5.2607 -1.1785 -0.2423 0
M  V30 49 H 6.441 -0.4592 -1.3478 0
M  V30 50 H -3.2332 -0.5364 1.7475 0
M  V30 51 H -2.9151 0.5429 3.139 0
M  V30 52 H 6.3152 1.7386 -0.2106 0
M  V30 53 H 6.8967 0.4319 0.8401 0
M  V30 54 H -4.6458 -0.5541 4.1209 0
M  V30 55 H -5.6988 0.5488 3.2033 0
M  V30 56 H 5.349 1.9819 2.0228 0
M  V30 57 H 4.0608 1.6662 0.8434 0
M  V30 58 H -4.8062 -2.2936 2.3329 0
M  V30 59 H -6.3779 -1.8546 3.0801 0
M  V30 60 H 3.9758 -0.7652 1.6078 0
M  V30 61 H 3.6113 0.4286 2.8839 0
M  V30 62 H -6.8348 -0.3034 1.1005 0
M  V30 63 H -5.3293 -0.9369 0.325 0
M  V30 64 H 6.2899 -1.0632 2.4949 0
M  V30 65 H 6.016 0.2476 3.7077 0
M  V30 66 H -7.3318 -2.1191 -0.5174 0
M  V30 67 H -6.2535 -3.2504 0.3851 0
M  V30 68 H -7.7686 -2.6274 1.156 0
M  V30 69 H 4.2097 -1.1175 4.7697 0
M  V30 70 H 4.4601 -2.4178 3.5313 0
M  V30 71 H 5.7705 -2.0207 4.7066 0
M  V30 END ATOM
M  V30 BEGIN BOND
M  V30 1 1 1 2
M  V30 2 1 1 3
M  V30 3 1 1 4
M  V30 4 1 1 5
M  V30 5 1 2 6
M  V30 6 1 3 7
M  V30 7 1 6 8
M  V30 8 1 7 9
M  V30 9 1 8 10
M  V30 10 1 9 11
M  V30 11 1 10 12
M  V30 12 1 11 13
M  V30 13 1 12 14
M  V30 14 1 13 15
M  V30 15 1 14 16
M  V30 16 1 15 17
M  V30 17 1 16 18
M  V30 18 1 17 19
M  V30 19 1 18 20
M  V30 20 1 19 21
M  V30 21 1 20 22
M  V30 22 1 21 23
M  V30 23 1 2 24
M  V30 24 1 2 25
M  V30 25 1 3 26
M  V30 26 1 3 27
M  V30 27 1 4 28
M  V30 28 1 4 29
M  V30 29 1 4 30
M  V30 30 1 5 31
M  V30 31 1 5 32
M  V30 32 1 5 33
M  V30 33 1 6 34
M  V30 34 1 6 35
M  V30 35 1 7 36
M  V30 36 1 7 37
M  V30 37 1 8 38
M  V30 38 1 8 39
M  V30 39 1 9 40
M  V30 40 1 9 41
M  V30 41 1 10 42
M  V30 42 1 10 43
M  V30 43 1 11 44
M  V30 44 1 11 45
M  V30 45 1 12 46
M  V30 46 1 12 47
M  V30 47 1 13 48
M  V30 48 1 13 49
M  V30 49 1 14 50
M  V30 50 1 14 51
M  V30 51 1 15 52
M  V30 52 1 15 53
M  V30 53 1 16 54
M  V30 54 1 16 55
M  V30 55 1 17 56
M  V30 56 1 17 57
M  V30 57 1 18 58
M  V30 58 1 18 59
M  V30 59 1 19 60
M  V30 60 1 19 61
M  V30 61 1 20 62
M  V30 62 1 20 63
M  V30 63 1 21 64
M  V30 64 1 21 65
M  V30 65 1 22 66
M  V30 66 1 22 67
M  V30 67 1 22 68
M  V30 68 1 23 69
M  V30 69 1 23 70
M  V30 70 1 23 71
M  V30 END BOND
M  V30 END CTAB
M  END
>  <Structure No>
2539

>  <LogS>
-2.967747126

>  <MMFF94 Energy>
17.157

$$$$
Compound 2540
Actelion Java MolfileCreator 2.0

  0  0  0  0  0  0              0 V3000
M  V30 BEGIN CTAB
M  V30 COUNTS 40 42 0 0 0
M  V30 BEGIN ATOM
M  V30 1 F -3.5291 -4.4128 1.0417 0
M  V30 2 C -2.7115 -3.3974 0.6693 0
M  V30 3 C -2.0752 -2.6205 1.6405 0
M  V30 4 C -2.5093 -3.1242 -0.6857 0
M  V30 5 C -1.2333 -1.5719 1.2593 0
M  V30 6 C -1.6677 -2.077 -1.072 0
M  V30 7 C -1.0097 -1.2972 -0.1041 0
M  V30 8 C -0.1293 -0.1378 -0.5442 0
M  V30 9 N 1.0424 0.0505 0.3589 0
M  V30 10 C -1.0079 1.1025 -0.6191 0
M  V30 11 C 1.9368 -1.1429 0.3747 0
M  V30 12 C 1.7796 1.3066 0.0535 0
M  V30 13 C -1.4004 1.6121 -1.8699 0
M  V30 14 C -1.4776 1.7305 0.5506 0
M  V30 15 C 3.1885 -0.9563 -0.4973 0
M  V30 16 C 3.2184 1.2662 0.5851 0
M  V30 17 C -2.2291 2.7354 -1.9482 0
M  V30 18 C -2.3054 2.8538 0.4672 0
M  V30 19 N 4.0045 0.1883 -0.0468 0 CHG=1
M  V30 20 C -2.6804 3.3568 -0.781 0
M  V30 21 F -3.4842 4.4458 -0.8595 0
M  V30 22 H -2.2357 -2.8284 2.6905 0
M  V30 23 H -3.0078 -3.7211 -1.4384 0
M  V30 24 H -0.7524 -0.9809 2.0278 0
M  V30 25 H -1.5307 -1.872 -2.1265 0
M  V30 26 H 0.262 -0.3643 -1.5637 0
M  V30 27 H 2.2578 -1.3268 1.4224 0
M  V30 28 H 1.4198 -2.0693 0.0443 0
M  V30 29 H 1.2626 2.1636 0.5344 0
M  V30 30 H 1.8136 1.4952 -1.0438 0
M  V30 31 H -1.067 1.14 -2.7854 0
M  V30 32 H -1.1944 1.3583 1.5261 0
M  V30 33 H 2.8704 -0.8049 -1.5534 0
M  V30 34 H 3.7975 -1.887 -0.4677 0
M  V30 35 H 3.1878 1.1179 1.6885 0
M  V30 36 H 3.7062 2.2486 0.3979 0
M  V30 37 H -2.5232 3.122 -2.9154 0
M  V30 38 H -2.656 3.3336 1.3719 0
M  V30 39 H 4.5175 0.5769 -0.8726 0
M  V30 40 H 4.7198 -0.1498 0.639 0
M  V30 END ATOM
M  V30 BEGIN BOND
M  V30 1 1 1 2
M  V30 2 2 2 3
M  V30 3 1 2 4
M  V30 4 1 3 5
M  V30 5 2 4 6
M  V30 6 2 5 7
M  V30 7 1 7 8
M  V30 8 1 8 9
M  V30 9 1 8 10
M  V30 10 1 9 11
M  V30 11 1 9 12
M  V30 12 2 10 13
M  V30 13 1 10 14
M  V30 14 1 11 15
M  V30 15 1 12 16
M  V30 16 1 13 17
M  V30 17 2 14 18
M  V30 18 1 15 19
M  V30 19 2 17 20
M  V30 20 1 20 21
M  V30 21 1 6 7
M  V30 22 1 16 19
M  V30 23 1 18 20
M  V30 24 1 3 22
M  V30 25 1 4 23
M  V30 26 1 5 24
M  V30 27 1 6 25
M  V30 28 1 8 26
M  V30 29 1 11 27
M  V30 30 1 11 28
M  V30 31 1 12 29
M  V30 32 1 12 30
M  V30 33 1 13 31
M  V30 34 1 14 32
M  V30 35 1 15 33
M  V30 36 1 15 34
M  V30 37 1 16 35
M  V30 38 1 16 36
M  V30 39 1 17 37
M  V30 40 1 18 38
M  V30 41 1 19 39
M  V30 42 1 19 40
M  V30 END BOND
M  V30 END CTAB
M  END
>  <Structure No>
2540

>  <LogS>
-2.878601076

>  <MMFF94 Energy>
123.18

$$$$
Compound 2541
Actelion Java MolfileCreator 2.0

  0  0  0  0  0  0              0 V3000
M  V30 BEGIN CTAB
M  V30 COUNTS 16 16 0 0 0
M  V30 BEGIN ATOM
M  V30 1 N 1.0028 0.6941 -0.0771 0 CHG=1
M  V30 2 C -0.2242 1.2806 -0.1149 0
M  V30 3 C 1.1076 -0.6613 -0.0263 0
M  V30 4 N -1.3417 0.5099 -0.1019 0
M  V30 5 N -0.344 2.7021 -0.1683 0
M  V30 6 N -0.0144 -1.4252 -0.0135 0
M  V30 7 N 2.3907 -1.2853 0.0136 0
M  V30 8 C -1.2391 -0.842 -0.0513 0
M  V30 9 N -2.415 -1.6477 -0.0376 0
M  V30 10 H 1.8647 1.2848 -0.0869 0
M  V30 11 H -1.2863 3.1509 -0.1972 0
M  V30 12 H 0.5053 3.3092 -0.179 0
M  V30 13 H 2.4697 -2.3256 0.0527 0
M  V30 14 H 3.2635 -0.7122 0.0046 0
M  V30 15 H -3.3599 -1.2045 -0.0665 0
M  V30 16 H -2.3422 -2.6885 0.0011 0
M  V30 END ATOM
M  V30 BEGIN BOND
M  V30 1 2 1 2
M  V30 2 1 1 3
M  V30 3 1 2 4
M  V30 4 1 2 5
M  V30 5 2 3 6
M  V30 6 1 3 7
M  V30 7 2 4 8
M  V30 8 1 8 9
M  V30 9 1 6 8
M  V30 10 1 1 10
M  V30 11 1 5 11
M  V30 12 1 5 12
M  V30 13 1 7 13
M  V30 14 1 7 14
M  V30 15 1 9 15
M  V30 16 1 9 16
M  V30 END BOND
M  V30 END CTAB
M  END
>  <Structure No>
2541

>  <LogS>
-2.90897944

>  <MMFF94 Energy>
-243.85

$$$$
Compound 2542
Actelion Java MolfileCreator 2.0

  0  0  0  0  0  0              0 V3000
M  V30 BEGIN CTAB
M  V30 COUNTS 26 26 0 0 0
M  V30 BEGIN ATOM
M  V30 1 O 1.4237 3.0868 -1.3446 0
M  V30 2 N 0.5493 2.2089 -1.1918 0 CHG=1
M  V30 3 O -0.5539 2.222 -2.014 0 CHG=-1
M  V30 4 C 0.7899 1.0924 -0.3179 0
M  V30 5 C -0.2743 0.4436 0.3552 0
M  V30 6 C 2.1017 0.6085 -0.1657 0
M  V30 7 N -1.6091 0.9866 0.305 0
M  V30 8 C 0.0019 -0.6982 1.1308 0
M  V30 9 C 2.3665 -0.5136 0.6296 0
M  V30 10 C -2.8287 0.1846 0.4279 0
M  V30 11 C 1.3065 -1.1766 1.2572 0
M  V30 12 C 3.7638 -1.0485 0.7408 0
M  V30 13 C -2.9452 -0.8194 -0.7181 0
M  V30 14 O -2.9675 -0.1421 -1.9441 0
M  V30 15 H 2.9173 1.0938 -0.6885 0
M  V30 16 H -1.7293 2.016 0.1729 0
M  V30 17 H -0.7846 -1.2153 1.6614 0
M  V30 18 H -2.8491 -0.341 1.4049 0
M  V30 19 H -3.7133 0.8581 0.4025 0
M  V30 20 H 1.4911 -2.0594 1.857 0
M  V30 21 H 3.9105 -1.5644 1.7137 0
M  V30 22 H 3.9499 -1.7689 -0.0828 0
M  V30 23 H 4.505 -0.2236 0.6756 0
M  V30 24 H -3.8868 -1.399 -0.5942 0
M  V30 25 H -2.0886 -1.5285 -0.6906 0
M  V30 26 H -3.0337 -0.8427 -2.6438 0
M  V30 END ATOM
M  V30 BEGIN BOND
M  V30 1 2 1 2
M  V30 2 1 2 3
M  V30 3 1 2 4
M  V30 4 2 4 5
M  V30 5 1 4 6
M  V30 6 1 5 7
M  V30 7 1 5 8
M  V30 8 2 6 9
M  V30 9 1 7 10
M  V30 10 2 8 11
M  V30 11 1 9 12
M  V30 12 1 10 13
M  V30 13 1 13 14
M  V30 14 1 9 11
M  V30 15 1 6 15
M  V30 16 1 7 16
M  V30 17 1 8 17
M  V30 18 1 10 18
M  V30 19 1 10 19
M  V30 20 1 11 20
M  V30 21 1 12 21
M  V30 22 1 12 22
M  V30 23 1 12 23
M  V30 24 1 13 24
M  V30 25 1 13 25
M  V30 26 1 14 26
M  V30 END BOND
M  V30 END CTAB
M  END
>  <Structure No>
2542

>  <LogS>
-2.747405168

>  <MMFF94 Energy>
91.953

$$$$
Compound 2543
Actelion Java MolfileCreator 2.0

  0  0  0  0  0  0              0 V3000
M  V30 BEGIN CTAB
M  V30 COUNTS 23 23 0 0 0
M  V30 BEGIN ATOM
M  V30 1 O 1.6487 -0.4708 -0.7063 0
M  V30 2 C 2.8072 -0.2172 0.0295 0
M  V30 3 C 0.3454 -0.3645 -0.1362 0
M  V30 4 C 3.9956 -0.3126 -0.5513 0
M  V30 5 C -0.0274 1.1121 0.0797 0
M  V30 6 C -0.6729 -1.0623 -1.0655 0
M  V30 7 C -1.4097 1.26 0.749 0
M  V30 8 C -2.1037 -0.4951 -0.9534 0
M  V30 9 C -2.3738 0.0995 0.4319 0
M  V30 10 H 2.7437 0.0571 1.076 0
M  V30 11 H 0.3369 -0.8839 0.8494 0
M  V30 12 H 4.8959 -0.1172 0.0163 0
M  V30 13 H 4.0761 -0.5859 -1.5956 0
M  V30 14 H -0.0357 1.6301 -0.9048 0
M  V30 15 H 0.737 1.6114 0.7132 0
M  V30 16 H -0.3432 -0.9692 -2.1237 0
M  V30 17 H -0.688 -2.1472 -0.8218 0
M  V30 18 H -1.8647 2.2184 0.4162 0
M  V30 19 H -1.281 1.3217 1.8517 0
M  V30 20 H -2.2487 0.2991 -1.7188 0
M  V30 21 H -2.8405 -1.3006 -1.163 0
M  V30 22 H -2.2579 -0.7002 1.1965 0
M  V30 23 H -3.4228 0.4635 0.4835 0
M  V30 END ATOM
M  V30 BEGIN BOND
M  V30 1 1 1 2
M  V30 2 1 1 3
M  V30 3 2 2 4
M  V30 4 1 3 5
M  V30 5 1 3 6
M  V30 6 1 5 7
M  V30 7 1 6 8
M  V30 8 1 7 9
M  V30 9 1 8 9
M  V30 10 1 2 10
M  V30 11 1 3 11
M  V30 12 1 4 12
M  V30 13 1 4 13
M  V30 14 1 5 14
M  V30 15 1 5 15
M  V30 16 1 6 16
M  V30 17 1 6 17
M  V30 18 1 7 18
M  V30 19 1 7 19
M  V30 20 1 8 20
M  V30 21 1 8 21
M  V30 22 1 9 22
M  V30 23 1 9 23
M  V30 END BOND
M  V30 END CTAB
M  END
>  <Structure No>
2543

>  <LogS>
-2.582541974

>  <MMFF94 Energy>
12.156

$$$$
Compound 2544
Actelion Java MolfileCreator 2.0

  0  0  0  0  0  0              0 V3000
M  V30 BEGIN CTAB
M  V30 COUNTS 24 23 0 0 0
M  V30 BEGIN ATOM
M  V30 1 O 2.3857 -0.5383 -0.4614 0
M  V30 2 C 3.441 0.1765 -1.0473 0
M  V30 3 C 1.4516 0.0109 0.467 0
M  V30 4 C 3.6893 1.4616 -0.7907 0
M  V30 5 C 0.4414 -1.0569 0.8966 0
M  V30 6 C -0.3362 -1.6789 -0.2776 0
M  V30 7 C -1.262 -0.6906 -0.9929 0
M  V30 8 O -2.1892 -0.1271 -0.0725 0
M  V30 9 C -3.1385 0.8097 -0.4765 0
M  V30 10 C -3.9857 1.3191 0.4077 0
M  V30 11 H 4.0847 -0.3454 -1.7431 0
M  V30 12 H 0.9244 0.8768 0.0138 0
M  V30 13 H 1.9949 0.3663 1.3694 0
M  V30 14 H 3.0829 2.0364 -0.1045 0
M  V30 15 H 4.5207 1.9552 -1.2769 0
M  V30 16 H 0.9911 -1.8683 1.4214 0
M  V30 17 H -0.2685 -0.6153 1.629 0
M  V30 18 H -0.9538 -2.5154 0.1156 0
M  V30 19 H 0.3737 -2.1134 -1.0139 0
M  V30 20 H -0.6701 0.1138 -1.4785 0
M  V30 21 H -1.8185 -1.2331 -1.7878 0
M  V30 22 H -3.1895 1.1268 -1.5118 0
M  V30 23 H -3.9468 1.013 1.4453 0
M  V30 24 H -4.7239 2.0472 0.0974 0
M  V30 END ATOM
M  V30 BEGIN BOND
M  V30 1 1 1 2
M  V30 2 1 1 3
M  V30 3 2 2 4
M  V30 4 1 3 5
M  V30 5 1 5 6
M  V30 6 1 6 7
M  V30 7 1 7 8
M  V30 8 1 8 9
M  V30 9 2 9 10
M  V30 10 1 2 11
M  V30 11 1 3 12
M  V30 12 1 3 13
M  V30 13 1 4 14
M  V30 14 1 4 15
M  V30 15 1 5 16
M  V30 16 1 5 17
M  V30 17 1 6 18
M  V30 18 1 6 19
M  V30 19 1 7 20
M  V30 20 1 7 21
M  V30 21 1 9 22
M  V30 22 1 10 23
M  V30 23 1 10 24
M  V30 END BOND
M  V30 END CTAB
M  END
>  <Structure No>
2544

>  <LogS>
-2.64774351

>  <MMFF94 Energy>
16.802

$$$$
Compound 2545
Actelion Java MolfileCreator 2.0

  0  0  0  0  0  0              0 V3000
M  V30 BEGIN CTAB
M  V30 COUNTS 24 25 0 0 0
M  V30 BEGIN ATOM
M  V30 1 S 3.9936 0.5816 0.2492 0
M  V30 2 O 4.7374 -0.4138 1.0944 0
M  V30 3 O 4.1418 1.9441 0.8664 0
M  V30 4 O 4.6415 0.5953 -1.2999 0 CHG=-1
M  V30 5 C 2.2899 0.1442 0.1676 0
M  V30 6 C 1.9047 -1.1964 0.2525 0
M  V30 7 C 1.3199 1.134 -0.0063 0
M  V30 8 C 0.5572 -1.5671 0.1794 0
M  V30 9 C -0.0377 0.7927 -0.082 0
M  V30 10 O 0.2667 -2.9315 0.2762 0
M  V30 11 C -0.4386 -0.5678 0.012 0
M  V30 12 C -0.9994 1.7999 -0.2517 0
M  V30 13 C -1.8155 -0.8721 -0.0667 0
M  V30 14 C -2.3531 1.4767 -0.3277 0
M  V30 15 C -2.7668 0.1443 -0.2355 0
M  V30 16 N -4.1582 -0.1791 -0.3136 0
M  V30 17 H 2.6572 -1.9655 0.3747 0
M  V30 18 H 1.6242 2.1714 -0.0841 0
M  V30 19 H -0.6609 -3.3265 0.234 0
M  V30 20 H -0.7035 2.8398 -0.3251 0
M  V30 21 H -2.1783 -1.8849 0.0 0
M  V30 22 H -3.082 2.2668 -0.4582 0
M  V30 23 H -4.4829 -1.1694 -0.2465 0
M  V30 24 H -4.8753 0.5698 -0.4393 0
M  V30 END ATOM
M  V30 BEGIN BOND
M  V30 1 2 1 2
M  V30 2 2 1 3
M  V30 3 1 1 4
M  V30 4 1 1 5
M  V30 5 1 5 6
M  V30 6 2 5 7
M  V30 7 2 6 8
M  V30 8 1 7 9
M  V30 9 1 8 10
M  V30 10 1 8 11
M  V30 11 2 9 12
M  V30 12 2 11 13
M  V30 13 1 12 14
M  V30 14 1 13 15
M  V30 15 1 15 16
M  V30 16 1 9 11
M  V30 17 2 14 15
M  V30 18 1 6 17
M  V30 19 1 7 18
M  V30 20 1 10 19
M  V30 21 1 12 20
M  V30 22 1 13 21
M  V30 23 1 14 22
M  V30 24 1 16 23
M  V30 25 1 16 24
M  V30 END BOND
M  V30 END CTAB
M  END
>  <Structure No>
2545

>  <LogS>
-2.883311239

>  <MMFF94 Energy>
35.012

$$$$
Compound 2546
Actelion Java MolfileCreator 2.0

  0  0  0  0  0  0              0 V3000
M  V30 BEGIN CTAB
M  V30 COUNTS 41 43 0 0 0
M  V30 BEGIN ATOM
M  V30 1 Cl -7.0386 -2.2555 2.6896 0
M  V30 2 C -5.6782 -1.3754 2.0057 0
M  V30 3 C -4.3556 -1.7303 2.3104 0
M  V30 4 C -5.93 -0.306 1.1407 0
M  V30 5 Cl -3.9974 -3.0711 3.391 0
M  V30 6 C -3.2956 -1.0125 1.7476 0
M  V30 7 C -4.8712 0.4207 0.576 0
M  V30 8 C -3.5425 0.0656 0.878 0
M  V30 9 S -5.2151 1.7577 -0.5259 0
M  V30 10 N -2.4615 0.8043 0.2926 0
M  V30 11 O -6.6814 2.0885 -0.5075 0
M  V30 12 O -4.8151 1.3708 -1.9215 0
M  V30 13 O -4.3525 3.118 -0.0478 0 CHG=-1
M  V30 14 N -1.2426 0.5013 0.4918 0
M  V30 15 C -0.171 1.274 -0.12 0 CFG=1
M  V30 16 C 1.1466 0.7388 0.3062 0
M  V30 17 C -0.0701 0.9939 -1.5997 0
M  V30 18 O 1.5514 0.6715 1.4972 0
M  V30 19 N 1.8532 0.2363 -0.8181 0
M  V30 20 N 1.0425 0.4218 -1.94 0
M  V30 21 C -1.108 1.3655 -2.608 0
M  V30 22 C 3.1365 -0.4129 -0.856 0
M  V30 23 C 4.1224 -0.1349 0.1083 0
M  V30 24 C 3.4292 -1.3182 -1.8894 0
M  V30 25 C 5.3693 -0.7745 0.0563 0
M  V30 26 C 4.6738 -1.9503 -1.9456 0
M  V30 27 S 6.602 -0.411 1.2595 0
M  V30 28 C 5.6416 -1.681 -0.9758 0
M  V30 29 O 7.4616 -1.622 1.4905 0
M  V30 30 O 5.9507 -0.0263 2.5585 0
M  V30 31 O 7.5569 0.8587 0.7149 0 CHG=-1
M  V30 32 H -6.9547 -0.0453 0.9088 0
M  V30 33 H -2.2799 -1.2992 1.99 0
M  V30 34 H -0.264 2.3594 0.0999 0
M  V30 35 H -1.9311 1.9351 -2.1289 0
M  V30 36 H -1.5234 0.4461 -3.0708 0
M  V30 37 H -0.6514 1.9998 -3.3965 0
M  V30 38 H 3.939 0.5969 0.8821 0
M  V30 39 H 2.6906 -1.5415 -2.6485 0
M  V30 40 H 4.8892 -2.6489 -2.7439 0
M  V30 41 H 6.6046 -2.1721 -1.0351 0
M  V30 END ATOM
M  V30 BEGIN BOND
M  V30 1 1 1 2
M  V30 2 2 2 3
M  V30 3 1 2 4
M  V30 4 1 3 5
M  V30 5 1 3 6
M  V30 6 2 4 7
M  V30 7 2 6 8
M  V30 8 1 7 9
M  V30 9 1 8 10
M  V30 10 2 9 11
M  V30 11 2 9 12
M  V30 12 1 9 13
M  V30 13 2 10 14
M  V30 14 1 14 15
M  V30 15 1 15 16
M  V30 16 1 15 17
M  V30 17 2 16 18
M  V30 18 1 16 19
M  V30 19 2 17 20
M  V30 20 1 17 21
M  V30 21 1 19 22
M  V30 22 2 22 23
M  V30 23 1 22 24
M  V30 24 1 23 25
M  V30 25 2 24 26
M  V30 26 1 25 27
M  V30 27 2 25 28
M  V30 28 2 27 29
M  V30 29 2 27 30
M  V30 30 1 27 31
M  V30 31 1 7 8
M  V30 32 1 19 20
M  V30 33 1 26 28
M  V30 34 1 4 32
M  V30 35 1 6 33
M  V30 36 1 15 34
M  V30 37 1 21 35
M  V30 38 1 21 36
M  V30 39 1 21 37
M  V30 40 1 23 38
M  V30 41 1 24 39
M  V30 42 1 26 40
M  V30 43 1 28 41
M  V30 END BOND
M  V30 BEGIN COLLECTION
M  V30 MDLV30/STEABS ATOMS=(1 15)
M  V30 END COLLECTION
M  V30 END CTAB
M  END
>  <Structure No>
2546

>  <LogS>
-3.264264375

>  <MMFF94 Energy>
133.1

$$$$
Compound 2547
Actelion Java MolfileCreator 2.0

  0  0  0  0  0  0              0 V3000
M  V30 BEGIN CTAB
M  V30 COUNTS 24 24 0 0 0
M  V30 BEGIN ATOM
M  V30 1 C -1.4031 -0.3116 -0.5454 0
M  V30 2 C -0.6866 0.7162 -1.1785 0
M  V30 3 C -0.7049 -1.2979 0.1688 0
M  V30 4 C -2.9079 -0.3201 -0.5785 0
M  V30 5 C 0.7098 0.7422 -1.1206 0
M  V30 6 C 0.6915 -1.2719 0.2268 0
M  V30 7 C -3.4786 0.4698 0.5946 0
M  V30 8 C 1.4091 -0.259 -0.4286 0
M  V30 9 C 2.9107 -0.2113 -0.337 0
M  V30 10 C 3.3524 0.5976 0.8782 0
M  V30 11 H -1.21 1.4995 -1.7129 0
M  V30 12 H -1.2425 -2.0842 0.6844 0
M  V30 13 H -3.272 0.1234 -1.5309 0
M  V30 14 H -3.2855 -1.365 -0.5351 0
M  V30 15 H 1.246 1.5454 -1.6109 0
M  V30 16 H 1.2134 -2.0384 0.7864 0
M  V30 17 H -3.1387 1.5267 0.5495 0
M  V30 18 H -3.1523 0.0204 1.5571 0
M  V30 19 H -4.588 0.4509 0.5514 0
M  V30 20 H 3.3355 0.2469 -1.2566 0
M  V30 21 H 3.322 -1.2414 -0.2609 0
M  V30 22 H 4.4614 0.6201 0.927 0
M  V30 23 H 2.9645 0.1349 1.811 0
M  V30 24 H 2.9781 1.6412 0.8033 0
M  V30 END ATOM
M  V30 BEGIN BOND
M  V30 1 2 1 2
M  V30 2 1 1 3
M  V30 3 1 1 4
M  V30 4 1 2 5
M  V30 5 2 3 6
M  V30 6 1 4 7
M  V30 7 2 5 8
M  V30 8 1 8 9
M  V30 9 1 9 10
M  V30 10 1 6 8
M  V30 11 1 2 11
M  V30 12 1 3 12
M  V30 13 1 4 13
M  V30 14 1 4 14
M  V30 15 1 5 15
M  V30 16 1 6 16
M  V30 17 1 7 17
M  V30 18 1 7 18
M  V30 19 1 7 19
M  V30 20 1 9 20
M  V30 21 1 9 21
M  V30 22 1 10 22
M  V30 23 1 10 23
M  V30 24 1 10 24
M  V30 END BOND
M  V30 END CTAB
M  END
>  <Structure No>
2547

>  <LogS>
-3.539740421

>  <MMFF94 Energy>
19.87

$$$$
Compound 2548
Actelion Java MolfileCreator 2.0

  0  0  0  0  0  0              0 V3000
M  V30 BEGIN CTAB
M  V30 COUNTS 18 18 0 0 0
M  V30 BEGIN ATOM
M  V30 1 C -0.1555 -0.2333 0.3111 0
M  V30 2 C 0.3549 0.8831 0.9945 0
M  V30 3 C 0.6822 -0.9498 -0.5598 0
M  V30 4 C -1.6011 -0.623 0.4664 0
M  V30 5 C 1.6903 1.2621 0.8252 0
M  V30 6 C 2.017 -0.5674 -0.7261 0
M  V30 7 C -2.4676 0.095 -0.5628 0
M  V30 8 C 2.5211 0.5364 -0.0327 0
M  V30 9 H -0.2807 1.4593 1.6556 0
M  V30 10 H 0.3015 -1.8017 -1.1095 0
M  V30 11 H -1.9582 -0.3681 1.488 0
M  V30 12 H -1.7165 -1.7215 0.3404 0
M  V30 13 H 2.0801 2.1206 1.3568 0
M  V30 14 H 2.6597 -1.1248 -1.3951 0
M  V30 15 H -2.1466 -0.1739 -1.5918 0
M  V30 16 H -3.5283 -0.206 -0.4309 0
M  V30 17 H -2.3912 1.1955 -0.4305 0
M  V30 18 H 3.554 0.8318 -0.1635 0
M  V30 END ATOM
M  V30 BEGIN BOND
M  V30 1 2 1 2
M  V30 2 1 1 3
M  V30 3 1 1 4
M  V30 4 1 2 5
M  V30 5 2 3 6
M  V30 6 1 4 7
M  V30 7 2 5 8
M  V30 8 1 6 8
M  V30 9 1 2 9
M  V30 10 1 3 10
M  V30 11 1 4 11
M  V30 12 1 4 12
M  V30 13 1 5 13
M  V30 14 1 6 14
M  V30 15 1 7 15
M  V30 16 1 7 16
M  V30 17 1 7 17
M  V30 18 1 8 18
M  V30 END BOND
M  V30 END CTAB
M  END
>  <Structure No>
2548

>  <LogS>
-3.172955944

>  <MMFF94 Energy>
18.057

$$$$
Compound 2549
Actelion Java MolfileCreator 2.0

  0  0  0  0  0  0              0 V3000
M  V30 BEGIN CTAB
M  V30 COUNTS 28 30 0 0 0
M  V30 BEGIN ATOM
M  V30 1 S -5.1535 0.8298 -0.7468 0
M  V30 2 O -6.0817 -0.211 -1.3066 0
M  V30 3 O -5.0337 1.9534 -1.7379 0
M  V30 4 O -5.7783 1.4208 0.6956 0 CHG=-1
M  V30 5 C -3.5705 0.1205 -0.4523 0
M  V30 6 C -2.408 0.9107 -0.5785 0
M  V30 7 C -3.4639 -1.2395 -0.0665 0
M  V30 8 C -1.1817 0.3019 -0.3232 0
M  V30 9 C -2.2039 -1.8161 0.1823 0
M  V30 10 N 0.0416 0.842 -0.3789 0
M  V30 11 C -1.0819 -1.0047 0.0407 0
M  V30 12 C 0.8701 -0.182 -0.038 0
M  V30 13 N 0.2055 -1.3406 0.2286 0
M  V30 14 C 2.3496 -0.0729 0.0426 0
M  V30 15 C 3.1156 -1.1985 0.4035 0
M  V30 16 C 3.0154 1.1377 -0.2344 0
M  V30 17 C 4.5088 -1.1143 0.4844 0
M  V30 18 C 4.4094 1.2152 -0.1516 0
M  V30 19 C 5.1551 0.0912 0.2073 0
M  V30 20 H -2.4595 1.9544 -0.8611 0
M  V30 21 H -4.3532 -1.8469 0.0421 0
M  V30 22 H -2.1122 -2.8536 0.4763 0
M  V30 23 H 0.2761 1.827 -0.6296 0
M  V30 24 H 2.6397 -2.1456 0.6237 0
M  V30 25 H 2.473 2.0284 -0.5148 0
M  V30 26 H 5.0876 -1.9855 0.7627 0
M  V30 27 H 4.9121 2.1495 -0.3662 0
M  V30 28 H 6.2337 0.1545 0.2704 0
M  V30 END ATOM
M  V30 BEGIN BOND
M  V30 1 2 1 2
M  V30 2 2 1 3
M  V30 3 1 1 4
M  V30 4 1 1 5
M  V30 5 2 5 6
M  V30 6 1 5 7
M  V30 7 1 6 8
M  V30 8 2 7 9
M  V30 9 1 8 10
M  V30 10 2 8 11
M  V30 11 1 10 12
M  V30 12 1 11 13
M  V30 13 1 12 14
M  V30 14 2 14 15
M  V30 15 1 14 16
M  V30 16 1 15 17
M  V30 17 2 16 18
M  V30 18 2 17 19
M  V30 19 1 9 11
M  V30 20 2 12 13
M  V30 21 1 18 19
M  V30 22 1 6 20
M  V30 23 1 7 21
M  V30 24 1 9 22
M  V30 25 1 10 23
M  V30 26 1 15 24
M  V30 27 1 16 25
M  V30 28 1 17 26
M  V30 29 1 18 27
M  V30 30 1 19 28
M  V30 END BOND
M  V30 END CTAB
M  END
>  <Structure No>
2549

>  <LogS>
-2.961106136

>  <MMFF94 Energy>
61.587

$$$$
Compound 2550
Actelion Java MolfileCreator 2.0

  0  0  0  0  0  0              0 V3000
M  V30 BEGIN CTAB
M  V30 COUNTS 16 16 0 0 0
M  V30 BEGIN ATOM
M  V30 1 C 0.466 -0.1553 -0.0776 0
M  V30 2 C -0.2793 -0.9322 0.8278 0
M  V30 3 C -0.214 0.7867 -0.8798 0
M  V30 4 C 1.936 -0.3681 -0.1415 0
M  V30 5 C -1.6646 -0.7749 0.931 0
M  V30 6 C -1.6003 0.9388 -0.7714 0
M  V30 7 C 2.7694 0.2913 -0.9482 0
M  V30 8 C -2.3245 0.1597 0.1322 0
M  V30 9 H 0.2115 -1.664 1.4581 0
M  V30 10 H 0.3049 1.4102 -1.5915 0
M  V30 11 H 2.3708 -1.1141 0.5136 0
M  V30 12 H -2.2265 -1.3789 1.6317 0
M  V30 13 H -2.1141 1.6633 -1.3901 0
M  V30 14 H 2.4416 1.0527 -1.6385 0
M  V30 15 H 3.8272 0.0641 -0.9211 0
M  V30 16 H -3.3971 0.2803 0.2132 0
M  V30 END ATOM
M  V30 BEGIN BOND
M  V30 1 2 1 2
M  V30 2 1 1 3
M  V30 3 1 1 4
M  V30 4 1 2 5
M  V30 5 2 3 6
M  V30 6 2 4 7
M  V30 7 2 5 8
M  V30 8 1 6 8
M  V30 9 1 2 9
M  V30 10 1 3 10
M  V30 11 1 4 11
M  V30 12 1 5 12
M  V30 13 1 6 13
M  V30 14 1 7 14
M  V30 15 1 7 15
M  V30 16 1 8 16
M  V30 END BOND
M  V30 END CTAB
M  END
>  <Structure No>
2550

>  <LogS>
-2.961273931

>  <MMFF94 Energy>
22.529

$$$$
Compound 2551
Actelion Java MolfileCreator 2.0

  0  0  0  0  0  0              0 V3000
M  V30 BEGIN CTAB
M  V30 COUNTS 6 5 0 0 0
M  V30 BEGIN ATOM
M  V30 1 O 1.3529 0.0 1.0991 0
M  V30 2 C 0.7573 0.0359 -0.0092 0
M  V30 3 O 1.4963 0.0806 -1.1849 0 CHG=-1
M  V30 4 C -0.7068 0.0305 -0.0586 0
M  V30 5 O -1.3023 0.0664 -1.167 0
M  V30 6 O -1.4458 -0.014 1.117 0 CHG=-1
M  V30 END ATOM
M  V30 BEGIN BOND
M  V30 1 2 1 2
M  V30 2 1 2 3
M  V30 3 1 2 4
M  V30 4 2 4 5
M  V30 5 1 4 6
M  V30 END BOND
M  V30 END CTAB
M  END
>  <Structure No>
2551

>  <LogS>
-2.678081133

>  <MMFF94 Energy>
278.93

$$$$
Compound 2552
Actelion Java MolfileCreator 2.0

  0  0  0  0  0  0              0 V3000
M  V30 BEGIN CTAB
M  V30 COUNTS 26 27 0 0 0
M  V30 BEGIN ATOM
M  V30 1 O 3.183 1.1131 0.5564 0
M  V30 2 C 1.9621 0.4463 0.3758 0
M  V30 3 C 4.459 0.4839 0.5006 0
M  V30 4 C 0.7805 1.1904 0.4583 0
M  V30 5 C 1.8881 -0.9337 0.1179 0
M  V30 6 C -0.4711 0.5808 0.2788 0
M  V30 7 C 0.648 -1.5536 -0.0482 0
M  V30 8 C -0.5392 -0.8133 0.048 0
M  V30 9 C -1.7195 1.4156 0.4463 0
M  V30 10 C -1.856 -1.5091 -0.2067 0
M  V30 11 C -2.9607 0.7466 -0.1516 0
M  V30 12 C -3.0553 -0.7078 0.3079 0
M  V30 13 H 5.2464 1.2445 0.6793 0
M  V30 14 H 4.5343 -0.2971 1.2864 0
M  V30 15 H 4.6195 0.0346 -0.5021 0
M  V30 16 H 0.8392 2.2521 0.6668 0
M  V30 17 H 2.7827 -1.5362 0.042 0
M  V30 18 H 0.6131 -2.616 -0.2561 0
M  V30 19 H -1.8855 1.5875 1.532 0
M  V30 20 H -1.581 2.4059 -0.0395 0
M  V30 21 H -1.8582 -2.5067 0.2839 0
M  V30 22 H -1.9653 -1.666 -1.3018 0
M  V30 23 H -3.8687 1.2982 0.1746 0
M  V30 24 H -2.9127 0.7884 -1.2623 0
M  V30 25 H -3.0877 -0.7505 1.4192 0
M  V30 26 H -3.9932 -1.1592 -0.0811 0
M  V30 END ATOM
M  V30 BEGIN BOND
M  V30 1 1 1 2
M  V30 2 1 1 3
M  V30 3 2 2 4
M  V30 4 1 2 5
M  V30 5 1 4 6
M  V30 6 2 5 7
M  V30 7 2 6 8
M  V30 8 1 6 9
M  V30 9 1 8 10
M  V30 10 1 9 11
M  V30 11 1 10 12
M  V30 12 1 7 8
M  V30 13 1 11 12
M  V30 14 1 3 13
M  V30 15 1 3 14
M  V30 16 1 3 15
M  V30 17 1 4 16
M  V30 18 1 5 17
M  V30 19 1 7 18
M  V30 20 1 9 19
M  V30 21 1 9 20
M  V30 22 1 10 21
M  V30 23 1 10 22
M  V30 24 1 11 23
M  V30 25 1 11 24
M  V30 26 1 12 25
M  V30 27 1 12 26
M  V30 END BOND
M  V30 END CTAB
M  END
>  <Structure No>
2552

>  <LogS>
-2.747738524

>  <MMFF94 Energy>
24.601

$$$$
Compound 2553
Actelion Java MolfileCreator 2.0

  0  0  0  0  0  0              0 V3000
M  V30 BEGIN CTAB
M  V30 COUNTS 22 23 0 0 0
M  V30 BEGIN ATOM
M  V30 1 N 3.0765 0.5516 -0.1575 0
M  V30 2 C 1.8604 -0.2104 -0.0941 0
M  V30 3 C 0.5794 0.3991 0.0186 0
M  V30 4 C 1.9554 -1.6058 -0.1625 0
M  V30 5 C -0.5945 -0.4169 -0.0027 0
M  V30 6 C 0.4359 1.7926 0.1835 0
M  V30 7 C 0.8147 -2.3995 -0.1449 0
M  V30 8 C -1.8767 0.1952 0.0762 0
M  V30 9 C -0.4476 -1.818 -0.0702 0
M  V30 10 C -0.825 2.3711 0.2943 0
M  V30 11 N -3.0987 -0.5544 -0.017 0
M  V30 12 C -1.9686 1.5834 0.2356 0
M  V30 13 H 4.0012 0.0698 -0.0948 0
M  V30 14 H 3.0997 1.5651 -0.3966 0
M  V30 15 H 2.9247 -2.0829 -0.238 0
M  V30 16 H 1.284 2.4546 0.2583 0
M  V30 17 H 0.9095 -3.477 -0.1923 0
M  V30 18 H -1.2918 -2.4884 -0.0387 0
M  V30 19 H -0.9168 3.4421 0.4242 0
M  V30 20 H -4.0136 -0.0938 0.1885 0
M  V30 21 H -3.1453 -1.5175 -0.4103 0
M  V30 22 H -2.938 2.061 0.3075 0
M  V30 END ATOM
M  V30 BEGIN BOND
M  V30 1 1 1 2
M  V30 2 1 2 3
M  V30 3 2 2 4
M  V30 4 1 3 5
M  V30 5 2 3 6
M  V30 6 1 4 7
M  V30 7 2 5 8
M  V30 8 1 5 9
M  V30 9 1 6 10
M  V30 10 1 8 11
M  V30 11 1 8 12
M  V30 12 2 7 9
M  V30 13 2 10 12
M  V30 14 1 1 13
M  V30 15 1 1 14
M  V30 16 1 4 15
M  V30 17 1 6 16
M  V30 18 1 7 17
M  V30 19 1 9 18
M  V30 20 1 10 19
M  V30 21 1 11 20
M  V30 22 1 11 21
M  V30 23 1 12 22
M  V30 END BOND
M  V30 END CTAB
M  END
>  <Structure No>
2553

>  <LogS>
-2.767853696

>  <MMFF94 Energy>
44.01

$$$$
Compound 2554
Actelion Java MolfileCreator 2.0

  0  0  0  0  0  0              0 V3000
M  V30 BEGIN CTAB
M  V30 COUNTS 31 31 0 0 0
M  V30 BEGIN ATOM
M  V30 1 O 3.6947 -0.7066 -0.9423 0
M  V30 2 C 3.2408 0.0938 0.1197 0 CFG=2
M  V30 3 C 1.7884 0.5382 -0.1331 0
M  V30 4 C 4.1578 1.3106 0.2411 0
M  V30 5 C 0.814 -0.6531 -0.1138 0
M  V30 6 C -0.6464 -0.2398 -0.4119 0
M  V30 7 C -1.4831 -1.4848 -0.8121 0
M  V30 8 C -1.303 0.4845 0.7829 0
M  V30 9 C -2.9994 -1.3188 -0.5787 0
M  V30 10 C -2.7202 0.9896 0.4381 0
M  V30 11 C -3.429 0.1486 -0.6406 0
M  V30 12 H 3.5501 -1.6528 -0.679 0
M  V30 13 H 3.2928 -0.4629 1.0861 0
M  V30 14 H 1.5005 1.2638 0.6558 0
M  V30 15 H 1.7268 1.0528 -1.1173 0
M  V30 16 H 3.8421 1.9495 1.0936 0
M  V30 17 H 5.2018 0.9772 0.4219 0
M  V30 18 H 4.1323 1.9119 -0.6929 0
M  V30 19 H 0.8668 -1.167 0.8712 0
M  V30 20 H 1.1393 -1.379 -0.8911 0
M  V30 21 H -0.6414 0.4586 -1.2795 0
M  V30 22 H -1.3022 -1.7002 -1.8881 0
M  V30 23 H -1.146 -2.3773 -0.2393 0
M  V30 24 H -1.3636 -0.2168 1.6446 0
M  V30 25 H -0.6947 1.3542 1.105 0
M  V30 26 H -3.5593 -1.9027 -1.3408 0
M  V30 27 H -3.2681 -1.7283 0.4203 0
M  V30 28 H -2.6612 2.0414 0.0825 0
M  V30 29 H -3.333 0.9899 1.366 0
M  V30 30 H -3.188 0.554 -1.6481 0
M  V30 31 H -4.5297 0.2212 -0.5042 0
M  V30 END ATOM
M  V30 BEGIN BOND
M  V30 1 1 1 2
M  V30 2 1 2 3
M  V30 3 1 2 4
M  V30 4 1 3 5
M  V30 5 1 5 6
M  V30 6 1 6 7
M  V30 7 1 6 8
M  V30 8 1 7 9
M  V30 9 1 8 10
M  V30 10 1 9 11
M  V30 11 1 10 11
M  V30 12 1 1 12
M  V30 13 1 2 13
M  V30 14 1 3 14
M  V30 15 1 3 15
M  V30 16 1 4 16
M  V30 17 1 4 17
M  V30 18 1 4 18
M  V30 19 1 5 19
M  V30 20 1 5 20
M  V30 21 1 6 21
M  V30 22 1 7 22
M  V30 23 1 7 23
M  V30 24 1 8 24
M  V30 25 1 8 25
M  V30 26 1 9 26
M  V30 27 1 9 27
M  V30 28 1 10 28
M  V30 29 1 10 29
M  V30 30 1 11 30
M  V30 31 1 11 31
M  V30 END BOND
M  V30 BEGIN COLLECTION
M  V30 MDLV30/STEABS ATOMS=(1 2)
M  V30 END COLLECTION
M  V30 END CTAB
M  END
>  <Structure No>
2554

>  <LogS>
-2.767361572

>  <MMFF94 Energy>
8.366

$$$$
Compound 2555
Actelion Java MolfileCreator 2.0

  0  0  0  0  0  0              0 V3000
M  V30 BEGIN CTAB
M  V30 COUNTS 14 13 0 0 0
M  V30 BEGIN ATOM
M  V30 1 O 2.5989 0.974 -0.4057 0
M  V30 2 C 1.9099 0.5407 0.5552 0
M  V30 3 O 2.2499 0.8917 1.8563 0 CHG=-1
M  V30 4 C 0.7062 -0.3165 0.2955 0 CFG=1
M  V30 5 O 0.7383 -1.4091 1.178 0
M  V30 6 C -0.5892 0.5014 0.5046 0 CFG=1
M  V30 7 O -0.5993 1.6598 -0.2937 0
M  V30 8 C -1.815 -0.3261 0.2274 0
M  V30 9 O -2.0563 -0.7398 -0.9374 0
M  V30 10 O -2.6813 -0.6525 1.2634 0 CHG=-1
M  V30 11 H 0.7536 -0.6789 -0.7597 0
M  V30 12 H 0.2293 -2.1458 0.7492 0
M  V30 13 H -0.6286 0.826 1.5678 0
M  V30 14 H -0.4923 1.3771 -1.2399 0
M  V30 END ATOM
M  V30 BEGIN BOND
M  V30 1 2 1 2
M  V30 2 1 2 3
M  V30 3 1 2 4
M  V30 4 1 4 5
M  V30 5 1 4 6
M  V30 6 1 6 7
M  V30 7 1 6 8
M  V30 8 2 8 9
M  V30 9 1 8 10
M  V30 10 1 4 11
M  V30 11 1 5 12
M  V30 12 1 6 13
M  V30 13 1 7 14
M  V30 END BOND
M  V30 BEGIN COLLECTION
M  V30 MDLV30/STEABS ATOMS=(2 4 6)
M  V30 END COLLECTION
M  V30 END CTAB
M  END
>  <Structure No>
2555

>  <LogS>
-3.052330404

>  <MMFF94 Energy>
173.67

$$$$
Compound 2556
Actelion Java MolfileCreator 2.0

  0  0  0  0  0  0              0 V3000
M  V30 BEGIN CTAB
M  V30 COUNTS 31 30 0 0 0
M  V30 BEGIN ATOM
M  V30 1 O -1.1593 0.0 -0.85 0
M  V30 2 C -0.0882 -0.2626 0.0307 0
M  V30 3 C -2.3731 -0.4261 -0.2662 0
M  V30 4 O 1.1054 0.1761 -0.5809 0
M  V30 5 C -3.5189 -0.1412 -1.2408 0
M  V30 6 C 2.1999 -0.0726 0.2766 0
M  V30 7 C -4.8669 -0.6969 -0.7552 0
M  V30 8 C 3.4822 0.4082 -0.4015 0
M  V30 9 C -5.4254 0.0695 0.4435 0
M  V30 10 C 4.7068 0.1621 0.4876 0
M  V30 11 C 5.9859 0.643 -0.1912 0
M  V30 12 H -0.2448 0.2896 0.9888 0
M  V30 13 H -0.0268 -1.3594 0.2313 0
M  V30 14 H -2.5594 0.1271 0.6813 0
M  V30 15 H -2.3437 -1.5209 -0.0601 0
M  V30 16 H -3.5998 0.9543 -1.4141 0
M  V30 17 H -3.2784 -0.6182 -2.2161 0
M  V30 18 H 2.2947 -1.1638 0.4833 0
M  V30 19 H 2.0773 0.4787 1.2375 0
M  V30 20 H -5.5984 -0.6193 -1.5886 0
M  V30 21 H -4.767 -1.7732 -0.4958 0
M  V30 22 H 3.6074 -0.1328 -1.3651 0
M  V30 23 H 3.392 1.4957 -0.6173 0
M  V30 24 H -5.482 1.1559 0.2189 0
M  V30 25 H -6.4483 -0.2974 0.6715 0
M  V30 26 H -4.7938 -0.0907 1.3417 0
M  V30 27 H 4.5859 0.7037 1.4513 0
M  V30 28 H 4.8013 -0.9244 0.7037 0
M  V30 29 H 6.1441 0.0984 -1.1464 0
M  V30 30 H 5.9278 1.7335 -0.3957 0
M  V30 31 H 6.8542 0.4525 0.4742 0
M  V30 END ATOM
M  V30 BEGIN BOND
M  V30 1 1 1 2
M  V30 2 1 1 3
M  V30 3 1 2 4
M  V30 4 1 3 5
M  V30 5 1 4 6
M  V30 6 1 5 7
M  V30 7 1 6 8
M  V30 8 1 7 9
M  V30 9 1 8 10
M  V30 10 1 10 11
M  V30 11 1 2 12
M  V30 12 1 2 13
M  V30 13 1 3 14
M  V30 14 1 3 15
M  V30 15 1 5 16
M  V30 16 1 5 17
M  V30 17 1 6 18
M  V30 18 1 6 19
M  V30 19 1 7 20
M  V30 20 1 7 21
M  V30 21 1 8 22
M  V30 22 1 8 23
M  V30 23 1 9 24
M  V30 24 1 9 25
M  V30 25 1 9 26
M  V30 26 1 10 27
M  V30 27 1 10 28
M  V30 28 1 11 29
M  V30 29 1 11 30
M  V30 30 1 11 31
M  V30 END BOND
M  V30 END CTAB
M  END
>  <Structure No>
2556

>  <LogS>
-2.806877

>  <MMFF94 Energy>
-12.357

$$$$
Compound 2557
Actelion Java MolfileCreator 2.0

  0  0  0  0  0  0              0 V3000
M  V30 BEGIN CTAB
M  V30 COUNTS 45 48 0 0 0
M  V30 BEGIN ATOM
M  V30 1 O -0.4816 -1.2847 0.6422 0
M  V30 2 C -0.7399 -0.2296 -0.2548 0 CFG=1
M  V30 3 C -2.0292 0.5142 0.1334 0
M  V30 4 C 0.5341 0.6558 -0.4972 0 CFG=2
M  V30 5 C -3.306 -0.0997 -0.0251 0
M  V30 6 C -1.9811 1.7981 0.7148 0
M  V30 7 N 1.4783 0.033 -1.4797 0 CHG=1 CFG=2
M  V30 8 C 1.3057 1.0507 0.8064 0
M  V30 9 C -4.4685 0.6292 0.3408 0
M  V30 10 C -3.4697 -1.4137 -0.5216 0
M  V30 11 C -3.1547 2.4644 1.0597 0
M  V30 12 C 2.1153 -1.194 -0.9341 0
M  V30 13 C 2.5503 1.007 -1.8116 0
M  V30 14 C 2.7833 0.6349 0.6744 0 CFG=1
M  V30 15 N -4.3584 1.8767 0.8628 0
M  V30 16 C -5.7397 0.0657 0.1809 0
M  V30 17 C -4.7457 -1.964 -0.6719 0
M  V30 18 C 2.8257 -0.8943 0.4213 0 CFG=2
M  V30 19 C 3.3716 1.3723 -0.5487 0
M  V30 20 C -5.877 -1.2255 -0.3269 0
M  V30 21 C 4.243 -1.4277 0.4585 0
M  V30 22 C 4.9304 -1.4959 1.6025 0
M  V30 23 H -0.6998 -0.9804 1.5612 0
M  V30 24 H -0.9499 -0.6872 -1.2432 0
M  V30 25 H 0.1626 1.5983 -0.9626 0
M  V30 26 H -1.0505 2.3052 0.9044 0
M  V30 27 H 0.9717 -0.2055 -2.3649 0
M  V30 28 H 1.2604 2.1521 0.9542 0
M  V30 29 H 0.8715 0.5961 1.7193 0
M  V30 30 H -2.6279 -2.0363 -0.7859 0
M  V30 31 H -3.1074 3.4559 1.4902 0
M  V30 32 H 1.3627 -1.9994 -0.8035 0
M  V30 33 H 2.8274 -1.6004 -1.6873 0
M  V30 34 H 3.2264 0.5836 -2.5883 0
M  V30 35 H 2.1082 1.929 -2.252 0
M  V30 36 H 3.3371 0.9095 1.5988 0
M  V30 37 H -6.624 0.6268 0.4573 0
M  V30 38 H -4.857 -2.9703 -1.0547 0
M  V30 39 H 2.2565 -1.4073 1.2298 0
M  V30 40 H 4.4372 1.0894 -0.6901 0
M  V30 41 H 3.3398 2.4709 -0.3789 0
M  V30 42 H -6.862 -1.6581 -0.4456 0
M  V30 43 H 4.7206 -1.7822 -0.45 0
M  V30 44 H 4.4915 -1.1662 2.5394 0
M  V30 45 H 5.942 -1.8881 1.6058 0
M  V30 END ATOM
M  V30 BEGIN BOND
M  V30 1 1 1 2
M  V30 2 1 2 3
M  V30 3 1 2 4
M  V30 4 1 3 5
M  V30 5 2 3 6
M  V30 6 1 4 7
M  V30 7 1 4 8
M  V30 8 1 5 9
M  V30 9 2 5 10
M  V30 10 1 6 11
M  V30 11 1 7 12
M  V30 12 1 7 13
M  V30 13 1 8 14
M  V30 14 1 9 15
M  V30 15 2 9 16
M  V30 16 1 10 17
M  V30 17 1 12 18
M  V30 18 1 13 19
M  V30 19 1 16 20
M  V30 20 1 18 21
M  V30 21 2 21 22
M  V30 22 2 11 15
M  V30 23 1 14 18
M  V30 24 1 14 19
M  V30 25 2 17 20
M  V30 26 1 1 23
M  V30 27 1 2 24
M  V30 28 1 4 25
M  V30 29 1 6 26
M  V30 30 1 7 27
M  V30 31 1 8 28
M  V30 32 1 8 29
M  V30 33 1 10 30
M  V30 34 1 11 31
M  V30 35 1 12 32
M  V30 36 1 12 33
M  V30 37 1 13 34
M  V30 38 1 13 35
M  V30 39 1 14 36
M  V30 40 1 16 37
M  V30 41 1 17 38
M  V30 42 1 18 39
M  V30 43 1 19 40
M  V30 44 1 19 41
M  V30 45 1 20 42
M  V30 46 1 21 43
M  V30 47 1 22 44
M  V30 48 1 22 45
M  V30 END BOND
M  V30 BEGIN COLLECTION
M  V30 MDLV30/STEABS ATOMS=(5 2 4 7 14 18)
M  V30 END COLLECTION
M  V30 END CTAB
M  END
>  <Structure No>
2557

>  <LogS>
-3.088723614

>  <MMFF94 Energy>
125.55

$$$$
Compound 2558
Actelion Java MolfileCreator 2.0

  0  0  0  0  0  0              0 V3000
M  V30 BEGIN CTAB
M  V30 COUNTS 62 61 0 0 0
M  V30 BEGIN ATOM
M  V30 1 N -5.3646 1.5526 0.9313 0 CHG=1
M  V30 2 C -4.5684 0.8966 -0.1509 0
M  V30 3 C -4.9199 2.9644 1.0345 0
M  V30 4 C -6.8138 1.543 0.6138 0
M  V30 5 C -5.1381 0.8978 2.2439 0
M  V30 6 C -4.9052 -0.5941 -0.4078 0
M  V30 7 C -3.9932 -1.2107 -1.4912 0
M  V30 8 C -2.8797 -2.1119 -0.9284 0
M  V30 9 C -1.8427 -1.3337 -0.1029 0
M  V30 10 C -0.6911 -2.2199 0.4055 0
M  V30 11 C 0.1806 -2.8629 -0.6929 0
M  V30 12 C 0.7634 -1.8809 -1.729 0
M  V30 13 C 1.6102 -0.7414 -1.1349 0
M  V30 14 C 2.8913 -1.2441 -0.4535 0
M  V30 15 C 3.7575 -0.0678 0.0106 0
M  V30 16 C 5.0623 -0.5593 0.6545 0
M  V30 17 C 5.9736 0.6064 1.0954 0
M  V30 18 C 7.1651 0.8574 0.1495 0
M  V30 19 C 6.7815 1.3247 -1.2642 0
M  V30 20 C 6.1434 2.7143 -1.278 0
M  V30 21 H -4.7221 1.4428 -1.1104 0
M  V30 22 H -3.484 0.9835 0.0785 0
M  V30 23 H -5.0631 3.5023 0.0689 0
M  V30 24 H -5.4933 3.5147 1.8157 0
M  V30 25 H -3.8407 3.026 1.3042 0
M  V30 26 H -7.3887 2.1561 1.3446 0
M  V30 27 H -7.0031 1.9545 -0.4028 0
M  V30 28 H -7.2358 0.5168 0.6612 0
M  V30 29 H -5.5776 1.4977 3.072 0
M  V30 30 H -5.6183 -0.1027 2.2933 0
M  V30 31 H -4.0506 0.7765 2.4479 0
M  V30 32 H -4.8348 -1.1926 0.5228 0
M  V30 33 H -5.952 -0.6676 -0.7702 0
M  V30 34 H -4.623 -1.8438 -2.1541 0
M  V30 35 H -3.5489 -0.4256 -2.1426 0
M  V30 36 H -2.3773 -2.5855 -1.7963 0
M  V30 37 H -3.3258 -2.9213 -0.3103 0
M  V30 38 H -2.3435 -0.9091 0.7931 0
M  V30 39 H -1.4439 -0.4822 -0.6942 0
M  V30 40 H -0.0446 -1.613 1.0741 0
M  V30 41 H -1.1162 -3.0327 1.0339 0
M  V30 42 H 1.0101 -3.4165 -0.2051 0
M  V30 43 H -0.4143 -3.6315 -1.2297 0
M  V30 44 H -0.0639 -1.4393 -2.3239 0
M  V30 45 H 1.3879 -2.4565 -2.4465 0
M  V30 46 H 1.8924 -0.0634 -1.971 0
M  V30 47 H 1.0084 -0.1416 -0.4194 0
M  V30 48 H 3.4688 -1.8674 -1.1709 0
M  V30 49 H 2.6296 -1.8655 0.4291 0
M  V30 50 H 3.984 0.5805 -0.8593 0
M  V30 51 H 3.1885 0.5344 0.7526 0
M  V30 52 H 4.7983 -1.1601 1.5524 0
M  V30 53 H 5.6012 -1.237 -0.0429 0
M  V30 54 H 6.4001 0.3484 2.0896 0
M  V30 55 H 5.3933 1.5411 1.2511 0
M  V30 56 H 7.8322 1.6169 0.613 0
M  V30 57 H 7.7576 -0.0796 0.0642 0
M  V30 58 H 6.1081 0.5897 -1.7505 0
M  V30 59 H 7.7075 1.3674 -1.8781 0
M  V30 60 H 5.9651 3.0258 -2.3291 0
M  V30 61 H 5.1693 2.7134 -0.7478 0
M  V30 62 H 6.8197 3.4548 -0.8013 0
M  V30 END ATOM
M  V30 BEGIN BOND
M  V30 1 1 1 2
M  V30 2 1 1 3
M  V30 3 1 1 4
M  V30 4 1 1 5
M  V30 5 1 2 6
M  V30 6 1 6 7
M  V30 7 1 7 8
M  V30 8 1 8 9
M  V30 9 1 9 10
M  V30 10 1 10 11
M  V30 11 1 11 12
M  V30 12 1 12 13
M  V30 13 1 13 14
M  V30 14 1 14 15
M  V30 15 1 15 16
M  V30 16 1 16 17
M  V30 17 1 17 18
M  V30 18 1 18 19
M  V30 19 1 19 20
M  V30 20 1 2 21
M  V30 21 1 2 22
M  V30 22 1 3 23
M  V30 23 1 3 24
M  V30 24 1 3 25
M  V30 25 1 4 26
M  V30 26 1 4 27
M  V30 27 1 4 28
M  V30 28 1 5 29
M  V30 29 1 5 30
M  V30 30 1 5 31
M  V30 31 1 6 32
M  V30 32 1 6 33
M  V30 33 1 7 34
M  V30 34 1 7 35
M  V30 35 1 8 36
M  V30 36 1 8 37
M  V30 37 1 9 38
M  V30 38 1 9 39
M  V30 39 1 10 40
M  V30 40 1 10 41
M  V30 41 1 11 42
M  V30 42 1 11 43
M  V30 43 1 12 44
M  V30 44 1 12 45
M  V30 45 1 13 46
M  V30 46 1 13 47
M  V30 47 1 14 48
M  V30 48 1 14 49
M  V30 49 1 15 50
M  V30 50 1 15 51
M  V30 51 1 16 52
M  V30 52 1 16 53
M  V30 53 1 17 54
M  V30 54 1 17 55
M  V30 55 1 18 56
M  V30 56 1 18 57
M  V30 57 1 19 58
M  V30 58 1 19 59
M  V30 59 1 20 60
M  V30 60 1 20 61
M  V30 61 1 20 62
M  V30 END BOND
M  V30 END CTAB
M  END
>  <Structure No>
2558

>  <LogS>
-3.124945522

>  <MMFF94 Energy>
14.927

$$$$
Compound 2559
Actelion Java MolfileCreator 2.0

  0  0  0  0  0  0              0 V3000
M  V30 BEGIN CTAB
M  V30 COUNTS 35 36 0 0 0
M  V30 BEGIN ATOM
M  V30 1 O -0.6439 -2.9001 -0.7244 0
M  V30 2 C -0.5191 -1.6517 -0.8545 0
M  V30 3 O 0.7502 -1.0913 -0.9645 0
M  V30 4 C -1.7293 -0.7519 -0.8987 0 CFG=2
M  V30 5 C 1.7376 -1.2998 0.0367 0
M  V30 6 C -1.3814 0.6932 -0.4412 0 CFG=2
M  V30 7 C -2.8958 -1.3383 -0.0732 0
M  V30 8 C 2.5628 -0.0079 0.241 0
M  V30 9 C -0.7869 0.7543 0.968 0
M  V30 10 C -2.6279 1.5953 -0.5569 0
M  V30 11 C -4.0298 -0.3644 0.1208 0
M  V30 12 C 1.6414 1.243 0.3331 0
M  V30 13 C 3.3858 -0.1391 1.5393 0
M  V30 14 C 3.5323 0.1709 -0.9449 0
M  V30 15 O -1.5489 0.5427 1.9486 0
M  V30 16 O 0.5623 1.0485 1.2563 0
M  V30 17 C -3.8811 0.9632 -0.0065 0
M  V30 18 H -2.0578 -0.7033 -1.9611 0
M  V30 19 H 1.2435 -1.5744 0.9972 0
M  V30 20 H 2.3879 -2.1523 -0.2571 0
M  V30 21 H -0.668 1.1024 -1.1771 0
M  V30 22 H -3.2927 -2.2394 -0.5888 0
M  V30 23 H -2.5372 -1.6574 0.929 0
M  V30 24 H -2.812 1.8236 -1.6294 0
M  V30 25 H -2.4484 2.5645 -0.0429 0
M  V30 26 H -4.9766 -0.7494 0.4874 0
M  V30 27 H 2.2429 2.1031 0.6985 0
M  V30 28 H 1.2906 1.5586 -0.6652 0
M  V30 29 H 2.7162 -0.2322 2.4215 0
M  V30 30 H 4.0378 -1.0385 1.5002 0
M  V30 31 H 4.0326 0.7523 1.6884 0
M  V30 32 H 4.1294 1.1009 -0.8251 0
M  V30 33 H 4.2355 -0.6871 -1.0125 0
M  V30 34 H 2.9729 0.2374 -1.9028 0
M  V30 35 H -4.7345 1.605 0.1905 0
M  V30 END ATOM
M  V30 BEGIN BOND
M  V30 1 2 1 2
M  V30 2 1 2 3
M  V30 3 1 2 4
M  V30 4 1 3 5
M  V30 5 1 4 6
M  V30 6 1 4 7
M  V30 7 1 5 8
M  V30 8 1 6 9
M  V30 9 1 6 10
M  V30 10 1 7 11
M  V30 11 1 8 12
M  V30 12 1 8 13
M  V30 13 1 8 14
M  V30 14 2 9 15
M  V30 15 1 9 16
M  V30 16 1 10 17
M  V30 17 2 11 17
M  V30 18 1 12 16
M  V30 19 1 4 18
M  V30 20 1 5 19
M  V30 21 1 5 20
M  V30 22 1 6 21
M  V30 23 1 7 22
M  V30 24 1 7 23
M  V30 25 1 10 24
M  V30 26 1 10 25
M  V30 27 1 11 26
M  V30 28 1 12 27
M  V30 29 1 12 28
M  V30 30 1 13 29
M  V30 31 1 13 30
M  V30 32 1 13 31
M  V30 33 1 14 32
M  V30 34 1 14 33
M  V30 35 1 14 34
M  V30 36 1 17 35
M  V30 END BOND
M  V30 BEGIN COLLECTION
M  V30 MDLV30/STEABS ATOMS=(2 4 6)
M  V30 END COLLECTION
M  V30 END CTAB
M  END
>  <Structure No>
2559

>  <LogS>
-3.004181056

>  <MMFF94 Energy>
7.5864

$$$$
Compound 2560
Actelion Java MolfileCreator 2.0

  0  0  0  0  0  0              0 V3000
M  V30 BEGIN CTAB
M  V30 COUNTS 31 31 0 0 0
M  V30 BEGIN ATOM
M  V30 1 O -0.3926 0.4712 1.886 0
M  V30 2 C -0.0939 -0.5662 0.9845 0 CFG=1
M  V30 3 C -0.6489 -0.3139 -0.4495 0 CFG=1
M  V30 4 C 1.4239 -0.8472 0.9548 0
M  V30 5 C -2.1922 -0.0858 -0.5453 0
M  V30 6 C 0.1562 0.7803 -1.1872 0
M  V30 7 C 2.2157 0.2355 0.1909 0 CFG=2
M  V30 8 C -2.9825 -1.3109 -0.0604 0
M  V30 9 C -2.7093 1.1829 0.1549 0
M  V30 10 C 1.6487 0.4296 -1.2277 0
M  V30 11 C 3.7011 -0.1369 0.1251 0
M  V30 12 H 0.0011 1.3112 1.5406 0
M  V30 13 H -0.5721 -1.4869 1.381 0
M  V30 14 H -0.4566 -1.2531 -1.0185 0
M  V30 15 H 1.5924 -1.8356 0.4715 0
M  V30 16 H 1.8006 -0.9187 1.9989 0
M  V30 17 H -2.4325 0.0294 -1.6263 0
M  V30 18 H -0.2115 0.872 -2.2323 0
M  V30 19 H 0.034 1.7707 -0.7027 0
M  V30 20 H 2.142 1.1996 0.7403 0
M  V30 21 H -2.6187 -2.2327 -0.5623 0
M  V30 22 H -2.8901 -1.4362 1.039 0
M  V30 23 H -4.0592 -1.1896 -0.3066 0
M  V30 24 H -3.7683 1.3576 -0.1322 0
M  V30 25 H -2.679 1.0813 1.2586 0
M  V30 26 H -2.1348 2.0794 -0.1509 0
M  V30 27 H 1.7932 -0.497 -1.8268 0
M  V30 28 H 2.195 1.2531 -1.7376 0
M  V30 29 H 4.1134 -0.2461 1.151 0
M  V30 30 H 4.2731 0.6613 -0.3941 0
M  V30 31 H 3.8435 -1.0937 -0.4221 0
M  V30 END ATOM
M  V30 BEGIN BOND
M  V30 1 1 1 2
M  V30 2 1 2 3
M  V30 3 1 2 4
M  V30 4 1 3 5
M  V30 5 1 3 6
M  V30 6 1 4 7
M  V30 7 1 5 8
M  V30 8 1 5 9
M  V30 9 1 6 10
M  V30 10 1 7 11
M  V30 11 1 7 10
M  V30 12 1 1 12
M  V30 13 1 2 13
M  V30 14 1 3 14
M  V30 15 1 4 15
M  V30 16 1 4 16
M  V30 17 1 5 17
M  V30 18 1 6 18
M  V30 19 1 6 19
M  V30 20 1 7 20
M  V30 21 1 8 21
M  V30 22 1 8 22
M  V30 23 1 8 23
M  V30 24 1 9 24
M  V30 25 1 9 25
M  V30 26 1 9 26
M  V30 27 1 10 27
M  V30 28 1 10 28
M  V30 29 1 11 29
M  V30 30 1 11 30
M  V30 31 1 11 31
M  V30 END BOND
M  V30 BEGIN COLLECTION
M  V30 MDLV30/STEABS ATOMS=(3 2 3 7)
M  V30 END COLLECTION
M  V30 END CTAB
M  END
>  <Structure No>
2560

>  <LogS>
-2.830260853

>  <MMFF94 Energy>
18.276

$$$$
Compound 2561
Actelion Java MolfileCreator 2.0

  0  0  0  0  0  0              0 V3000
M  V30 BEGIN CTAB
M  V30 COUNTS 31 31 0 0 0
M  V30 BEGIN ATOM
M  V30 1 O 1.4234 -0.079 -2.3733 0
M  V30 2 C 1.1746 0.0636 -1.1443 0
M  V30 3 O 2.1725 -0.1623 -0.1902 0
M  V30 4 C -0.2168 0.4572 -0.7066 0 CFG=2
M  V30 5 C 3.4922 -0.5592 -0.5405 0
M  V30 6 C -0.1013 1.5525 0.3426 0
M  V30 7 C -1.0713 -0.7569 -0.2103 0
M  V30 8 C -0.2061 1.2894 1.6622 0
M  V30 9 C 0.253 2.9506 -0.0916 0
M  V30 10 C -0.5875 -1.189 1.1959 0
M  V30 11 C -2.567 -0.3545 -0.1605 0
M  V30 12 C -0.9492 -1.9601 -1.1756 0
M  V30 13 C -0.6432 -0.0434 2.2174 0
M  V30 14 H -0.7316 0.8929 -1.5931 0
M  V30 15 H 3.4661 -1.5307 -1.078 0
M  V30 16 H 4.0949 -0.6752 0.3835 0
M  V30 17 H 3.9633 0.214 -1.1836 0
M  V30 18 H -0.0799 2.1003 2.3749 0
M  V30 19 H -0.5452 3.655 0.2241 0
M  V30 20 H 1.2156 3.2571 0.37 0
M  V30 21 H 0.3602 3.012 -1.1952 0
M  V30 22 H -1.2055 -2.0344 1.5717 0
M  V30 23 H 0.4579 -1.5615 1.138 0
M  V30 24 H -2.9458 -0.1346 -1.1822 0
M  V30 25 H -2.7283 0.5537 0.4566 0
M  V30 26 H -3.1813 -1.1764 0.2664 0
M  V30 27 H -1.2094 -1.6559 -2.2124 0
M  V30 28 H -1.6349 -2.7797 -0.8691 0
M  V30 29 H 0.0818 -2.3737 -1.1789 0
M  V30 30 H 0.0011 -0.3 3.085 0
M  V30 31 H -1.6818 0.061 2.5975 0
M  V30 END ATOM
M  V30 BEGIN BOND
M  V30 1 2 1 2
M  V30 2 1 2 3
M  V30 3 1 2 4
M  V30 4 1 3 5
M  V30 5 1 4 6
M  V30 6 1 4 7
M  V30 7 2 6 8
M  V30 8 1 6 9
M  V30 9 1 7 10
M  V30 10 1 7 11
M  V30 11 1 7 12
M  V30 12 1 8 13
M  V30 13 1 10 13
M  V30 14 1 4 14
M  V30 15 1 5 15
M  V30 16 1 5 16
M  V30 17 1 5 17
M  V30 18 1 8 18
M  V30 19 1 9 19
M  V30 20 1 9 20
M  V30 21 1 9 21
M  V30 22 1 10 22
M  V30 23 1 10 23
M  V30 24 1 11 24
M  V30 25 1 11 25
M  V30 26 1 11 26
M  V30 27 1 12 27
M  V30 28 1 12 28
M  V30 29 1 12 29
M  V30 30 1 13 30
M  V30 31 1 13 31
M  V30 END BOND
M  V30 BEGIN COLLECTION
M  V30 MDLV30/STEABS ATOMS=(1 4)
M  V30 END COLLECTION
M  V30 END CTAB
M  END
>  <Structure No>
2561

>  <LogS>
-2.908515996

>  <MMFF94 Energy>
37.165

$$$$
Compound 2562
Actelion Java MolfileCreator 2.0

  0  0  0  0  0  0              0 V3000
M  V30 BEGIN CTAB
M  V30 COUNTS 16 15 0 0 0
M  V30 BEGIN ATOM
M  V30 1 C 1.1479 0.7651 0.459 0
M  V30 2 C 2.1115 1.3814 0.8412 0
M  V30 3 C -0.0307 0.0113 -0.0083 0
M  V30 4 C -0.2146 -1.2322 0.8768 0
M  V30 5 C -1.2734 0.9116 0.0896 0
M  V30 6 C 0.1927 -0.4144 -1.4687 0
M  V30 7 H 2.957 1.9223 1.1767 0
M  V30 8 H -0.3688 -0.9391 1.9385 0
M  V30 9 H -1.0981 -1.8196 0.5454 0
M  V30 10 H 0.6811 -1.8887 0.8224 0
M  V30 11 H -2.1781 0.3668 -0.2574 0
M  V30 12 H -1.4424 1.2347 1.1402 0
M  V30 13 H -1.1507 1.8202 -0.5394 0
M  V30 14 H 1.0942 -1.0595 -1.5559 0
M  V30 15 H -0.6826 -0.9856 -1.8467 0
M  V30 16 H 0.336 0.4756 -2.1197 0
M  V30 END ATOM
M  V30 BEGIN BOND
M  V30 1 3 1 2
M  V30 2 1 1 3
M  V30 3 1 3 4
M  V30 4 1 3 5
M  V30 5 1 3 6
M  V30 6 1 2 7
M  V30 7 1 4 8
M  V30 8 1 4 9
M  V30 9 1 4 10
M  V30 10 1 5 11
M  V30 11 1 5 12
M  V30 12 1 5 13
M  V30 13 1 6 14
M  V30 14 1 6 15
M  V30 15 1 6 16
M  V30 END BOND
M  V30 END CTAB
M  END
>  <Structure No>
2562

>  <LogS>
-2.613556425

>  <MMFF94 Energy>
MMFF94 error code 2

$$$$
Compound 2563
Actelion Java MolfileCreator 2.0

  0  0  0  0  0  0              0 V3000
M  V30 BEGIN CTAB
M  V30 COUNTS 95 94 0 0 0
M  V30 BEGIN ATOM
M  V30 1 N -0.4672 0.8567 1.6361 0 CHG=1
M  V30 2 C -0.9833 0.6051 0.2503 0
M  V30 3 C 0.8623 1.5524 1.5606 0
M  V30 4 C -1.3955 1.7733 2.3522 0
M  V30 5 C -0.3547 -0.4022 2.4155 0
M  V30 6 C -2.2525 -0.278 0.1614 0
M  V30 7 C 2.0625 0.6617 1.1472 0
M  V30 8 C -2.8318 -0.2476 -1.2588 0
M  V30 9 C 3.3283 1.5067 0.9314 0
M  V30 10 C -4.022 -1.2085 -1.3939 0
M  V30 11 C 4.5905 0.6492 0.7341 0
M  V30 12 C -4.6634 -1.1756 -2.7934 0
M  V30 13 C 4.5363 -0.2179 -0.5361 0
M  V30 14 C -5.2878 0.1767 -3.2023 0
M  V30 15 C 5.8882 -0.8718 -0.8621 0
M  V30 16 C -6.3734 0.7052 -2.2482 0
M  V30 17 C 6.31 -1.909 0.1939 0
M  V30 18 C -7.6776 -0.1042 -2.3235 0
M  V30 19 C 7.5172 -2.7559 -0.2471 0
M  V30 20 C -8.6961 0.3577 -1.2664 0
M  V30 21 C 8.7859 -1.9508 -0.5804 0
M  V30 22 C -8.4943 -0.3712 0.0752 0
M  V30 23 C 9.268 -1.0796 0.593 0
M  V30 24 C -9.3015 0.2551 1.2242 0
M  V30 25 C 10.6586 -0.4742 0.3488 0
M  V30 26 C -10.8185 0.1787 0.9981 0
M  V30 27 C 10.6704 0.5139 -0.8315 0
M  V30 28 C -11.5834 0.6293 2.2484 0
M  V30 29 C 11.9434 1.3715 -0.8695 0
M  V30 30 C -13.0909 0.6193 2.006 0
M  V30 31 C 13.2015 0.55 -1.1483 0
M  V30 32 H -0.2185 0.0975 -0.369 0
M  V30 33 H -1.1857 1.5776 -0.2555 0
M  V30 34 H 0.7968 2.4113 0.852 0
M  V30 35 H 1.1265 1.9925 2.5509 0
M  V30 36 H -2.3944 1.3213 2.5124 0
M  V30 37 H -1.0084 2.0303 3.3632 0
M  V30 38 H -1.5315 2.7257 1.7919 0
M  V30 39 H 0.1723 -1.1898 1.8327 0
M  V30 40 H -1.356 -0.8064 2.686 0
M  V30 41 H 0.1979 -0.2332 3.3679 0
M  V30 42 H -3.0389 0.0698 0.8597 0
M  V30 43 H -1.994 -1.3279 0.4187 0
M  V30 44 H 1.844 0.1179 0.2113 0
M  V30 45 H 2.2697 -0.0811 1.9466 0
M  V30 46 H -3.1571 0.792 -1.4753 0
M  V30 47 H -2.0464 -0.5364 -1.9916 0
M  V30 48 H 3.1879 2.1796 0.0571 0
M  V30 49 H 3.4919 2.1459 1.8248 0
M  V30 50 H -4.7829 -1.002 -0.6122 0
M  V30 51 H -3.6591 -2.2437 -1.2122 0
M  V30 52 H 5.4643 1.3359 0.67 0
M  V30 53 H 4.7308 0.0048 1.628 0
M  V30 54 H -5.4398 -1.9703 -2.8448 0
M  V30 55 H -3.8874 -1.4458 -3.5453 0
M  V30 56 H 3.7693 -1.0135 -0.4255 0
M  V30 57 H 4.2441 0.4184 -1.3985 0
M  V30 58 H -5.722 0.0701 -4.2204 0
M  V30 59 H -4.4879 0.9396 -3.2915 0
M  V30 60 H 5.8029 -1.3773 -1.8499 0
M  V30 61 H 6.6632 -0.0786 -0.9522 0
M  V30 62 H -5.9937 0.7538 -1.2081 0
M  V30 63 H -6.6009 1.7532 -2.5384 0
M  V30 64 H 5.4613 -2.6022 0.3831 0
M  V30 65 H 6.5425 -1.4073 1.1571 0
M  V30 66 H -7.4845 -1.1919 -2.2043 0
M  V30 67 H -8.1207 0.0399 -3.3336 0
M  V30 68 H 7.2321 -3.3522 -1.1398 0
M  V30 69 H 7.7542 -3.4802 0.5621 0
M  V30 70 H -8.623 1.4594 -1.1194 0
M  V30 71 H -9.719 0.1343 -1.6442 0
M  V30 72 H 8.6002 -1.3229 -1.4764 0
M  V30 73 H 9.5869 -2.6741 -0.8465 0
M  V30 74 H -7.4194 -0.3391 0.359 0
M  V30 75 H -8.7805 -1.4413 -0.0396 0
M  V30 76 H 8.5471 -0.256 0.7802 0
M  V30 77 H 9.3185 -1.7042 1.5125 0
M  V30 78 H -9.0446 -0.2937 2.1574 0
M  V30 79 H -8.9956 1.317 1.362 0
M  V30 80 H 10.9675 0.0576 1.2761 0
M  V30 81 H 11.3885 -1.2932 0.1685 0
M  V30 82 H -11.0981 0.8393 0.1478 0
M  V30 83 H -11.1069 -0.8666 0.7458 0
M  V30 84 H 10.576 -0.0406 -1.7902 0
M  V30 85 H 9.7977 1.1994 -0.7475 0
M  V30 86 H -11.3539 -0.055 3.093 0
M  V30 87 H -11.2691 1.6584 2.5308 0
M  V30 88 H 11.8322 2.1264 -1.6774 0
M  V30 89 H 12.0628 1.9188 0.0907 0
M  V30 90 H -13.6176 0.9611 2.9238 0
M  V30 91 H -13.3485 1.3064 1.1721 0
M  V30 92 H -13.4362 -0.4045 1.7535 0
M  V30 93 H 13.4234 -0.1249 -0.296 0
M  V30 94 H 13.0751 -0.0504 -2.0732 0
M  V30 95 H 14.0659 1.233 -1.2859 0
M  V30 END ATOM
M  V30 BEGIN BOND
M  V30 1 1 1 2
M  V30 2 1 1 3
M  V30 3 1 1 4
M  V30 4 1 1 5
M  V30 5 1 2 6
M  V30 6 1 3 7
M  V30 7 1 6 8
M  V30 8 1 7 9
M  V30 9 1 8 10
M  V30 10 1 9 11
M  V30 11 1 10 12
M  V30 12 1 11 13
M  V30 13 1 12 14
M  V30 14 1 13 15
M  V30 15 1 14 16
M  V30 16 1 15 17
M  V30 17 1 16 18
M  V30 18 1 17 19
M  V30 19 1 18 20
M  V30 20 1 19 21
M  V30 21 1 20 22
M  V30 22 1 21 23
M  V30 23 1 22 24
M  V30 24 1 23 25
M  V30 25 1 24 26
M  V30 26 1 25 27
M  V30 27 1 26 28
M  V30 28 1 27 29
M  V30 29 1 28 30
M  V30 30 1 29 31
M  V30 31 1 2 32
M  V30 32 1 2 33
M  V30 33 1 3 34
M  V30 34 1 3 35
M  V30 35 1 4 36
M  V30 36 1 4 37
M  V30 37 1 4 38
M  V30 38 1 5 39
M  V30 39 1 5 40
M  V30 40 1 5 41
M  V30 41 1 6 42
M  V30 42 1 6 43
M  V30 43 1 7 44
M  V30 44 1 7 45
M  V30 45 1 8 46
M  V30 46 1 8 47
M  V30 47 1 9 48
M  V30 48 1 9 49
M  V30 49 1 10 50
M  V30 50 1 10 51
M  V30 51 1 11 52
M  V30 52 1 11 53
M  V30 53 1 12 54
M  V30 54 1 12 55
M  V30 55 1 13 56
M  V30 56 1 13 57
M  V30 57 1 14 58
M  V30 58 1 14 59
M  V30 59 1 15 60
M  V30 60 1 15 61
M  V30 61 1 16 62
M  V30 62 1 16 63
M  V30 63 1 17 64
M  V30 64 1 17 65
M  V30 65 1 18 66
M  V30 66 1 18 67
M  V30 67 1 19 68
M  V30 68 1 19 69
M  V30 69 1 20 70
M  V30 70 1 20 71
M  V30 71 1 21 72
M  V30 72 1 21 73
M  V30 73 1 22 74
M  V30 74 1 22 75
M  V30 75 1 23 76
M  V30 76 1 23 77
M  V30 77 1 24 78
M  V30 78 1 24 79
M  V30 79 1 25 80
M  V30 80 1 25 81
M  V30 81 1 26 82
M  V30 82 1 26 83
M  V30 83 1 27 84
M  V30 84 1 27 85
M  V30 85 1 28 86
M  V30 86 1 28 87
M  V30 87 1 29 88
M  V30 88 1 29 89
M  V30 89 1 30 90
M  V30 90 1 30 91
M  V30 91 1 30 92
M  V30 92 1 31 93
M  V30 93 1 31 94
M  V30 94 1 31 95
M  V30 END BOND
M  V30 END CTAB
M  END
>  <Structure No>
2563

>  <LogS>
-3.37502496

>  <MMFF94 Energy>
16.594

$$$$
Compound 2564
Actelion Java MolfileCreator 2.0

  0  0  0  0  0  0              0 V3000
M  V30 BEGIN CTAB
M  V30 COUNTS 31 31 0 0 0
M  V30 BEGIN ATOM
M  V30 1 O 3.4678 1.8115 -1.1811 0
M  V30 2 C 2.9265 0.9599 -0.4239 0
M  V30 3 O 1.6603 0.4467 -0.7224 0
M  V30 4 C 3.647 0.493 0.8089 0
M  V30 5 C 0.9156 0.8523 -1.8661 0
M  V30 6 C 2.8338 0.8361 2.0603 0
M  V30 7 C 3.9163 -1.0119 0.7278 0
M  V30 8 C -0.4184 0.121 -1.8935 0
M  V30 9 O -1.1658 0.4451 -0.7234 0
M  V30 10 C -2.4377 -0.0667 -0.4278 0
M  V30 11 C -3.0536 0.3301 0.7662 0
M  V30 12 C -3.1113 -0.9601 -1.2848 0
M  V30 13 C -4.3212 -0.1534 1.1052 0
M  V30 14 C -4.3791 -1.4416 -0.9423 0
M  V30 15 C -4.9836 -1.039 0.2514 0
M  V30 16 H 4.6267 1.0165 0.8792 0
M  V30 17 H 0.7358 1.949 -1.8288 0
M  V30 18 H 1.4859 0.6091 -2.7887 0
M  V30 19 H 2.6575 1.932 2.1122 0
M  V30 20 H 1.8521 0.3147 2.0497 0
M  V30 21 H 3.3902 0.5311 2.9723 0
M  V30 22 H 4.5178 -1.2433 -0.1773 0
M  V30 23 H 4.4893 -1.3454 1.6193 0
M  V30 24 H 2.9635 -1.5824 0.6813 0
M  V30 25 H -0.9844 0.4326 -2.798 0
M  V30 26 H -0.2344 -0.9747 -1.9327 0
M  V30 27 H -2.547 1.0158 1.4337 0
M  V30 28 H -2.6658 -1.2867 -2.2143 0
M  V30 29 H -4.7895 0.1582 2.03 0
M  V30 30 H -4.8933 -2.1276 -1.603 0
M  V30 31 H -5.9647 -1.4129 0.5146 0
M  V30 END ATOM
M  V30 BEGIN BOND
M  V30 1 2 1 2
M  V30 2 1 2 3
M  V30 3 1 2 4
M  V30 4 1 3 5
M  V30 5 1 4 6
M  V30 6 1 4 7
M  V30 7 1 5 8
M  V30 8 1 8 9
M  V30 9 1 9 10
M  V30 10 2 10 11
M  V30 11 1 10 12
M  V30 12 1 11 13
M  V30 13 2 12 14
M  V30 14 2 13 15
M  V30 15 1 14 15
M  V30 16 1 4 16
M  V30 17 1 5 17
M  V30 18 1 5 18
M  V30 19 1 6 19
M  V30 20 1 6 20
M  V30 21 1 6 21
M  V30 22 1 7 22
M  V30 23 1 7 23
M  V30 24 1 7 24
M  V30 25 1 8 25
M  V30 26 1 8 26
M  V30 27 1 11 27
M  V30 28 1 12 28
M  V30 29 1 13 29
M  V30 30 1 14 30
M  V30 31 1 15 31
M  V30 END BOND
M  V30 END CTAB
M  END
>  <Structure No>
2564

>  <LogS>
-3.026343537

>  <MMFF94 Energy>
21.581

$$$$
Compound 2565
Actelion Java MolfileCreator 2.0

  0  0  0  0  0  0              0 V3000
M  V30 BEGIN CTAB
M  V30 COUNTS 24 25 0 0 0
M  V30 BEGIN ATOM
M  V30 1 S 0.5799 1.7405 1.1601 0
M  V30 2 C 1.1232 -0.0227 1.2052 0 CFG=1
M  V30 3 C -0.5757 1.6548 -0.2703 0
M  V30 4 N 0.3151 -0.8391 0.3336 0
M  V30 5 C 2.3608 -0.4043 0.5508 0 CFG=1
M  V30 6 C -1.5546 0.4949 -0.1961 0
M  V30 7 C -1.057 -0.7502 -0.0303 0
M  V30 8 C 1.5531 -1.3281 -0.3149 0
M  V30 9 N 3.0187 0.6467 -0.2339 0 CHG=1
M  V30 10 C -3.0217 0.7701 -0.4031 0
M  V30 11 C -1.8358 -2.0075 -0.1372 0
M  V30 12 O 1.8133 -2.1392 -1.2412 0
M  V30 13 O -1.2976 -3.0956 0.1972 0
M  V30 14 O -3.1388 -2.0302 -0.6185 0 CHG=-1
M  V30 15 H 1.0717 -0.4109 2.2468 0
M  V30 16 H 0.0211 1.5551 -1.201 0
M  V30 17 H -1.1085 2.6262 -0.3318 0
M  V30 18 H 3.0679 -0.9528 1.2124 0
M  V30 19 H 3.8353 0.2293 -0.7359 0
M  V30 20 H 3.3753 1.3907 0.4084 0
M  V30 21 H 2.3753 1.0673 -0.9433 0
M  V30 22 H -3.6129 0.3257 0.4252 0
M  V30 23 H -3.3531 0.3557 -1.3778 0
M  V30 24 H -3.2333 1.8595 -0.4146 0
M  V30 END ATOM
M  V30 BEGIN BOND
M  V30 1 1 1 2
M  V30 2 1 1 3
M  V30 3 1 2 4
M  V30 4 1 2 5
M  V30 5 1 3 6
M  V30 6 1 4 7
M  V30 7 1 4 8
M  V30 8 1 5 9
M  V30 9 1 6 10
M  V30 10 1 7 11
M  V30 11 2 8 12
M  V30 12 2 11 13
M  V30 13 1 11 14
M  V30 14 1 5 8
M  V30 15 2 6 7
M  V30 16 1 2 15
M  V30 17 1 3 16
M  V30 18 1 3 17
M  V30 19 1 5 18
M  V30 20 1 9 19
M  V30 21 1 9 20
M  V30 22 1 9 21
M  V30 23 1 10 22
M  V30 24 1 10 23
M  V30 25 1 10 24
M  V30 END BOND
M  V30 BEGIN COLLECTION
M  V30 MDLV30/STEABS ATOMS=(2 2 5)
M  V30 END COLLECTION
M  V30 END CTAB
M  END
>  <Structure No>
2565

>  <LogS>
-3.045355413

>  <MMFF94 Energy>
3.3587

$$$$
Compound 2566
Actelion Java MolfileCreator 2.0

  0  0  0  0  0  0              0 V3000
M  V30 BEGIN CTAB
M  V30 COUNTS 20 20 0 0 0
M  V30 BEGIN ATOM
M  V30 1 O 2.8339 -0.3145 -1.8886 0
M  V30 2 C 2.4066 -0.1658 -0.7124 0
M  V30 3 N 3.3374 -0.1143 0.37 0
M  V30 4 C 0.9511 -0.1132 -0.464 0
M  V30 5 C 0.3664 0.8456 0.397 0
M  V30 6 C 0.1256 -1.0572 -1.0968 0
M  V30 7 O 1.1077 1.878 0.9754 0
M  V30 8 C -1.0081 0.7958 0.6593 0
M  V30 9 C -1.2472 -1.0856 -0.8428 0
M  V30 10 C -1.8183 -0.176 0.0562 0
M  V30 11 C -3.2976 -0.1874 0.3054 0
M  V30 12 H 3.0073 -0.1102 1.3608 0
M  V30 13 H 4.3641 -0.1355 0.1819 0
M  V30 14 H 0.5487 -1.7895 -1.7737 0
M  V30 15 H 2.0691 2.0723 0.7286 0
M  V30 16 H -1.4482 1.5325 1.3211 0
M  V30 17 H -1.8634 -1.8244 -1.3403 0
M  V30 18 H -3.5248 0.1751 1.3306 0
M  V30 19 H -3.8012 0.4718 -0.4319 0
M  V30 20 H -3.7036 -1.2168 0.2081 0
M  V30 END ATOM
M  V30 BEGIN BOND
M  V30 1 2 1 2
M  V30 2 1 2 3
M  V30 3 1 2 4
M  V30 4 2 4 5
M  V30 5 1 4 6
M  V30 6 1 5 7
M  V30 7 1 5 8
M  V30 8 2 6 9
M  V30 9 2 8 10
M  V30 10 1 10 11
M  V30 11 1 9 10
M  V30 12 1 3 12
M  V30 13 1 3 13
M  V30 14 1 6 14
M  V30 15 1 7 15
M  V30 16 1 8 16
M  V30 17 1 9 17
M  V30 18 1 11 18
M  V30 19 1 11 19
M  V30 20 1 11 20
M  V30 END BOND
M  V30 END CTAB
M  END
>  <Structure No>
2566

>  <LogS>
-2.917000159

>  <MMFF94 Energy>
7.6396

$$$$
Compound 2567
Actelion Java MolfileCreator 2.0

  0  0  0  0  0  0              0 V3000
M  V30 BEGIN CTAB
M  V30 COUNTS 17 18 0 0 0
M  V30 BEGIN ATOM
M  V30 1 Cl 3.9641 -0.8249 0.3299 0
M  V30 2 C 2.3043 -0.2825 0.1652 0
M  V30 3 C 1.2541 -1.2154 0.2226 0
M  V30 4 C 2.0275 1.0877 -0.0242 0
M  V30 5 C -0.0523 -0.7477 0.0879 0
M  V30 6 C 0.7015 1.5334 -0.1572 0
M  V30 7 N -1.2318 -1.5289 0.1185 0
M  V30 8 C -0.326 0.5916 -0.0974 0
M  V30 9 C -2.2876 -0.5907 -0.0611 0
M  V30 10 C -1.7992 0.8198 -0.2114 0
M  V30 11 O -3.5009 -0.9247 -0.089 0
M  V30 12 H 1.4513 -2.2698 0.3676 0
M  V30 13 H 2.8382 1.8038 -0.0678 0
M  V30 14 H 0.4828 2.5833 -0.3027 0
M  V30 15 H -1.3111 -2.5623 0.2449 0
M  V30 16 H -2.1693 1.4605 0.6164 0
M  V30 17 H -2.0636 1.2295 -1.209 0
M  V30 END ATOM
M  V30 BEGIN BOND
M  V30 1 1 1 2
M  V30 2 2 2 3
M  V30 3 1 2 4
M  V30 4 1 3 5
M  V30 5 2 4 6
M  V30 6 1 5 7
M  V30 7 2 5 8
M  V30 8 1 7 9
M  V30 9 1 8 10
M  V30 10 2 9 11
M  V30 11 1 6 8
M  V30 12 1 9 10
M  V30 13 1 3 12
M  V30 14 1 4 13
M  V30 15 1 6 14
M  V30 16 1 7 15
M  V30 17 1 10 16
M  V30 18 1 10 17
M  V30 END BOND
M  V30 END CTAB
M  END
>  <Structure No>
2567

>  <LogS>
-2.968988553

>  <MMFF94 Energy>
6.3703

$$$$
Compound 2568
Actelion Java MolfileCreator 2.0

  0  0  0  0  0  0              0 V3000
M  V30 BEGIN CTAB
M  V30 COUNTS 26 26 0 0 0
M  V30 BEGIN ATOM
M  V30 1 N 0.551 -1.8903 2.4422 0
M  V30 2 C 0.1379 -1.7074 1.3765 0
M  V30 3 C -0.3887 -1.4746 0.0156 0 CFG=1
M  V30 4 C -1.4557 -2.5253 -0.2564 0
M  V30 5 C -1.0212 -0.0553 -0.0654 0
M  V30 6 C 0.7718 -1.6389 -0.9865 0
M  V30 7 C -2.1034 -2.6205 -1.4252 0
M  V30 8 C -0.0534 1.0679 0.2379 0
M  V30 9 C 0.6767 1.6766 -0.7978 0
M  V30 10 C 0.1321 1.5101 1.5594 0
M  V30 11 C 1.5799 2.7057 -0.514 0
M  V30 12 C 1.0362 2.5397 1.8386 0
M  V30 13 C 1.7599 3.1366 0.803 0
M  V30 14 H -1.7165 -3.2412 0.5205 0
M  V30 15 H -1.4497 0.1098 -1.0781 0
M  V30 16 H -1.88 0.0066 0.6406 0
M  V30 17 H 1.1294 -2.6918 -0.9997 0
M  V30 18 H 0.4506 -1.3654 -2.014 0
M  V30 19 H 1.6324 -0.9921 -0.7105 0
M  V30 20 H -2.8557 -3.3899 -1.5659 0
M  V30 21 H -1.894 -1.9433 -2.2465 0
M  V30 22 H 0.5491 1.3518 -1.8229 0
M  V30 23 H -0.4224 1.0577 2.3721 0
M  V30 24 H 2.1408 3.1689 -1.3155 0
M  V30 25 H 1.1757 2.8748 2.8584 0
M  V30 26 H 2.4596 3.9332 1.0209 0
M  V30 END ATOM
M  V30 BEGIN BOND
M  V30 1 3 1 2
M  V30 2 1 2 3
M  V30 3 1 3 4
M  V30 4 1 3 5
M  V30 5 1 3 6
M  V30 6 2 4 7
M  V30 7 1 5 8
M  V30 8 2 8 9
M  V30 9 1 8 10
M  V30 10 1 9 11
M  V30 11 2 10 12
M  V30 12 2 11 13
M  V30 13 1 12 13
M  V30 14 1 4 14
M  V30 15 1 5 15
M  V30 16 1 5 16
M  V30 17 1 6 17
M  V30 18 1 6 18
M  V30 19 1 6 19
M  V30 20 1 7 20
M  V30 21 1 7 21
M  V30 22 1 9 22
M  V30 23 1 10 23
M  V30 24 1 11 24
M  V30 25 1 12 25
M  V30 26 1 13 26
M  V30 END BOND
M  V30 BEGIN COLLECTION
M  V30 MDLV30/STEABS ATOMS=(1 3)
M  V30 END COLLECTION
M  V30 END CTAB
M  END
>  <Structure No>
2568

>  <LogS>
-3.000616717

>  <MMFF94 Energy>
57.294

$$$$
Compound 2569
Actelion Java MolfileCreator 2.0

  0  0  0  0  0  0              0 V3000
M  V30 BEGIN CTAB
M  V30 COUNTS 36 35 0 0 0
M  V30 BEGIN ATOM
M  V30 1 O -1.8 -3.5242 0.0782 0
M  V30 2 C -1.4321 -2.3456 0.3409 0
M  V30 3 O -2.2011 -1.5347 1.1794 0
M  V30 4 C -0.1894 -1.8006 -0.2283 0
M  V30 5 C -3.42 -1.9761 1.7707 0
M  V30 6 C 0.6005 -2.5136 -1.039 0
M  V30 7 C -4.0213 -0.8625 2.6281 0
M  V30 8 C 1.8402 -1.959 -1.6032 0
M  V30 9 C -4.4302 0.3477 1.7788 0
M  V30 10 O 2.5456 -2.6781 -2.3615 0
M  V30 11 O 2.2327 -0.6501 -1.3026 0
M  V30 12 C -5.0493 1.4421 2.643 0
M  V30 13 C 3.4221 -0.0652 -1.8219 0
M  V30 14 C 3.5531 1.3646 -1.302 0
M  V30 15 C 4.8236 2.0337 -1.8378 0
M  V30 16 C 4.9546 3.4624 -1.3185 0
M  V30 17 H 0.076 -0.783 0.0311 0
M  V30 18 H -4.1403 -2.2741 0.9774 0
M  V30 19 H -3.2178 -2.8584 2.4159 0
M  V30 20 H 0.335 -3.5315 -1.2989 0
M  V30 21 H -3.2777 -0.5517 3.3944 0
M  V30 22 H -4.9154 -1.2633 3.1539 0
M  V30 23 H -3.5395 0.7635 1.2597 0
M  V30 24 H -5.1707 0.0342 1.011 0
M  V30 25 H -4.3201 1.7908 3.405 0
M  V30 26 H -5.9601 1.0623 3.1532 0
M  V30 27 H -5.3341 2.3041 2.0037 0
M  V30 28 H 3.3757 -0.0573 -2.933 0
M  V30 29 H 4.3011 -0.6642 -1.4968 0
M  V30 30 H 2.6617 1.9486 -1.6202 0
M  V30 31 H 3.5829 1.3444 -0.1904 0
M  V30 32 H 4.7954 2.0562 -2.9491 0
M  V30 33 H 5.7163 1.4523 -1.5198 0
M  V30 34 H 4.0855 4.0727 -1.6445 0
M  V30 35 H 5.8818 3.9211 -1.7222 0
M  V30 36 H 5.0103 3.4662 -0.2091 0
M  V30 END ATOM
M  V30 BEGIN BOND
M  V30 1 2 1 2
M  V30 2 1 2 3
M  V30 3 1 2 4
M  V30 4 1 3 5
M  V30 5 2 4 6
M  V30 6 1 5 7
M  V30 7 1 6 8
M  V30 8 1 7 9
M  V30 9 2 8 10
M  V30 10 1 8 11
M  V30 11 1 9 12
M  V30 12 1 11 13
M  V30 13 1 13 14
M  V30 14 1 14 15
M  V30 15 1 15 16
M  V30 16 1 4 17
M  V30 17 1 5 18
M  V30 18 1 5 19
M  V30 19 1 6 20
M  V30 20 1 7 21
M  V30 21 1 7 22
M  V30 22 1 9 23
M  V30 23 1 9 24
M  V30 24 1 12 25
M  V30 25 1 12 26
M  V30 26 1 12 27
M  V30 27 1 13 28
M  V30 28 1 13 29
M  V30 29 1 14 30
M  V30 30 1 14 31
M  V30 31 1 15 32
M  V30 32 1 15 33
M  V30 33 1 16 34
M  V30 34 1 16 35
M  V30 35 1 16 36
M  V30 END BOND
M  V30 END CTAB
M  END
>  <Structure No>
2569

>  <LogS>
-3.128034162

>  <MMFF94 Energy>
-38.598

$$$$
Compound 2570
Actelion Java MolfileCreator 2.0

  0  0  0  0  0  0              0 V3000
M  V30 BEGIN CTAB
M  V30 COUNTS 26 25 0 0 0
M  V30 BEGIN ATOM
M  V30 1 S -0.8267 -0.2479 1.4057 0
M  V30 2 S 0.8687 1.0069 1.0803 0
M  V30 3 C -1.7244 0.3959 -0.047 0
M  V30 4 C 1.7983 -0.2875 0.1908 0
M  V30 5 C -3.0997 -0.2788 -0.1909 0 CFG=1
M  V30 6 C 3.1815 0.2261 -0.2455 0 CFG=1
M  V30 7 N -4.006 0.1159 0.8955 0 CHG=1
M  V30 8 C -3.7045 0.0786 -1.5222 0
M  V30 9 N 4.0571 0.4546 0.9115 0 CHG=1
M  V30 10 C 3.817 -0.7623 -1.186 0
M  V30 11 O -3.8932 -0.8124 -2.3915 0
M  V30 12 O -4.0484 1.3953 -1.8048 0 CHG=-1
M  V30 13 O 4.0339 -0.4457 -2.3853 0
M  V30 14 O 4.1586 -2.0336 -0.7404 0 CHG=-1
M  V30 15 H -1.8464 1.4965 0.0514 0
M  V30 16 H -1.1161 0.1894 -0.9539 0
M  V30 17 H 1.2144 -0.5825 -0.7076 0
M  V30 18 H 1.9098 -1.1787 0.8459 0
M  V30 19 H -2.9549 -1.3829 -0.1543 0
M  V30 20 H 3.0433 1.19 -0.7871 0
M  V30 21 H -4.945 -0.3221 0.7497 0
M  V30 22 H -4.1158 1.1561 0.9282 0
M  V30 23 H -3.6354 -0.2182 1.814 0
M  V30 24 H 5.0023 0.7614 0.5844 0
M  V30 25 H 3.6656 1.212 1.5162 0
M  V30 26 H 4.1585 -0.4188 1.4786 0
M  V30 END ATOM
M  V30 BEGIN BOND
M  V30 1 1 1 2
M  V30 2 1 1 3
M  V30 3 1 2 4
M  V30 4 1 3 5
M  V30 5 1 4 6
M  V30 6 1 5 7
M  V30 7 1 5 8
M  V30 8 1 6 9
M  V30 9 1 6 10
M  V30 10 2 8 11
M  V30 11 1 8 12
M  V30 12 2 10 13
M  V30 13 1 10 14
M  V30 14 1 3 15
M  V30 15 1 3 16
M  V30 16 1 4 17
M  V30 17 1 4 18
M  V30 18 1 5 19
M  V30 19 1 6 20
M  V30 20 1 7 21
M  V30 21 1 7 22
M  V30 22 1 7 23
M  V30 23 1 9 24
M  V30 24 1 9 25
M  V30 25 1 9 26
M  V30 END BOND
M  V30 BEGIN COLLECTION
M  V30 MDLV30/STEABS ATOMS=(2 5 6)
M  V30 END COLLECTION
M  V30 END CTAB
M  END
>  <Structure No>
2570

>  <LogS>
-3.159921987

>  <MMFF94 Energy>
-36.962

$$$$
Compound 2571
Actelion Java MolfileCreator 2.0

  0  0  0  0  0  0              0 V3000
M  V30 BEGIN CTAB
M  V30 COUNTS 29 28 0 0 0
M  V30 BEGIN ATOM
M  V30 1 O -1.7105 1.0105 -1.4771 0
M  V30 2 C -1.6301 0.5714 -0.2962 0
M  V30 3 O -2.1648 1.3004 0.7701 0
M  V30 4 C -0.9412 -0.7401 -0.0227 0 CFG=2
M  V30 5 C -2.8095 2.5556 0.5924 0
M  V30 6 C 0.5586 -0.654 -0.3898 0
M  V30 7 C -1.6626 -1.8686 -0.794 0
M  V30 8 C 1.3073 0.3874 0.4581 0
M  V30 9 C -1.2702 -3.2671 -0.3139 0
M  V30 10 C 2.8028 0.3991 0.1208 0
M  V30 11 C 3.5483 1.4364 0.9558 0
M  V30 12 H -1.0279 -0.9524 1.0666 0
M  V30 13 H -3.6934 2.4389 -0.0698 0
M  V30 14 H -2.1011 3.2868 0.1483 0
M  V30 15 H -3.1466 2.9353 1.5788 0
M  V30 16 H 0.6693 -0.4057 -1.4687 0
M  V30 17 H 1.0377 -1.6405 -0.218 0
M  V30 18 H -2.7612 -1.7637 -0.6505 0
M  V30 19 H -1.4565 -1.7835 -1.8837 0
M  V30 20 H 0.8863 1.3987 0.2677 0
M  V30 21 H 1.1756 0.1472 1.5363 0
M  V30 22 H -1.3983 -3.3526 0.786 0
M  V30 23 H -0.2205 -3.5008 -0.5848 0
M  V30 24 H -1.9237 -4.0201 -0.8027 0
M  V30 25 H 2.942 0.637 -0.9563 0
M  V30 26 H 3.2406 -0.6034 0.3197 0
M  V30 27 H 3.1477 2.4532 0.7557 0
M  V30 28 H 3.4447 1.2074 2.038 0
M  V30 29 H 4.6264 1.4213 0.6912 0
M  V30 END ATOM
M  V30 BEGIN BOND
M  V30 1 2 1 2
M  V30 2 1 2 3
M  V30 3 1 2 4
M  V30 4 1 3 5
M  V30 5 1 4 6
M  V30 6 1 4 7
M  V30 7 1 6 8
M  V30 8 1 7 9
M  V30 9 1 8 10
M  V30 10 1 10 11
M  V30 11 1 4 12
M  V30 12 1 5 13
M  V30 13 1 5 14
M  V30 14 1 5 15
M  V30 15 1 6 16
M  V30 16 1 6 17
M  V30 17 1 7 18
M  V30 18 1 7 19
M  V30 19 1 8 20
M  V30 20 1 8 21
M  V30 21 1 9 22
M  V30 22 1 9 23
M  V30 23 1 9 24
M  V30 24 1 10 25
M  V30 25 1 10 26
M  V30 26 1 11 27
M  V30 27 1 11 28
M  V30 28 1 11 29
M  V30 END BOND
M  V30 BEGIN COLLECTION
M  V30 MDLV30/STEABS ATOMS=(1 4)
M  V30 END COLLECTION
M  V30 END CTAB
M  END
>  <Structure No>
2571

>  <LogS>
-2.989804004

>  <MMFF94 Energy>
-7.1523

$$$$
Compound 2572
Actelion Java MolfileCreator 2.0

  0  0  0  0  0  0              0 V3000
M  V30 BEGIN CTAB
M  V30 COUNTS 16 16 0 0 0
M  V30 BEGIN ATOM
M  V30 1 C -0.1566 1.5671 0.0783 0
M  V30 2 C 1.0994 1.1073 0.0404 0
M  V30 3 C -1.2839 0.6591 -0.3295 0
M  V30 4 C 1.3513 -0.3054 -0.409 0
M  V30 5 C -1.1085 -0.7361 0.2997 0
M  V30 6 C 0.3507 -1.2703 0.2557 0
M  V30 7 H -0.363 2.5665 0.4487 0
M  V30 8 H 1.921 1.7304 0.3799 0
M  V30 9 H -2.2561 1.0985 -0.019 0
M  V30 10 H -1.2841 0.564 -1.4371 0
M  V30 11 H 1.231 -0.3566 -1.513 0
M  V30 12 H 2.3921 -0.6029 -0.1592 0
M  V30 13 H -1.4405 -0.6875 1.3603 0
M  V30 14 H -1.7836 -1.4508 -0.2191 0
M  V30 15 H 0.6915 -1.4679 1.2961 0
M  V30 16 H 0.3767 -2.2416 -0.2842 0
M  V30 END ATOM
M  V30 BEGIN BOND
M  V30 1 2 1 2
M  V30 2 1 1 3
M  V30 3 1 2 4
M  V30 4 1 3 5
M  V30 5 1 4 6
M  V30 6 1 5 6
M  V30 7 1 1 7
M  V30 8 1 2 8
M  V30 9 1 3 9
M  V30 10 1 3 10
M  V30 11 1 4 11
M  V30 12 1 4 12
M  V30 13 1 5 13
M  V30 14 1 5 14
M  V30 15 1 6 15
M  V30 16 1 6 16
M  V30 END BOND
M  V30 END CTAB
M  END
>  <Structure No>
2572

>  <LogS>
-2.710466438

>  <MMFF94 Energy>
2.8914

$$$$
Compound 2573
Actelion Java MolfileCreator 2.0

  0  0  0  0  0  0              0 V3000
M  V30 BEGIN CTAB
M  V30 COUNTS 25 26 0 0 0
M  V30 BEGIN ATOM
M  V30 1 O 1.6687 -1.1122 2.2255 0
M  V30 2 C 0.7945 -0.6033 1.4702 0
M  V30 3 N 1.1412 0.3576 0.5519 0
M  V30 4 N -0.4947 -1.0231 1.5795 0
M  V30 5 C 0.1834 0.8852 -0.2796 0
M  V30 6 C 2.5504 0.7875 0.4341 0
M  V30 7 C -1.4724 -0.5158 0.7833 0
M  V30 8 O 0.4981 1.7537 -1.1418 0
M  V30 9 C -1.1523 0.4614 -0.1786 0
M  V30 10 C 3.3344 -0.1541 -0.4804 0
M  V30 11 C -2.798 -0.9623 0.9106 0
M  V30 12 C -2.1679 0.98 -1.0052 0
M  V30 13 O 2.8166 -0.1032 -1.7805 0
M  V30 14 C -3.7978 -0.4402 0.0861 0
M  V30 15 C -3.4835 0.5283 -0.8693 0
M  V30 16 H -0.7297 -1.7533 2.2911 0
M  V30 17 H 2.6242 1.8277 0.0476 0
M  V30 18 H 3.0338 0.8094 1.4355 0
M  V30 19 H 3.2746 -1.1935 -0.0879 0
M  V30 20 H 4.4015 0.1606 -0.4916 0
M  V30 21 H -3.0565 -1.7136 1.6464 0
M  V30 22 H -1.9493 1.7319 -1.7536 0
M  V30 23 H 3.3595 -0.7368 -2.3175 0
M  V30 24 H -4.8179 -0.7874 0.1879 0
M  V30 25 H -4.261 0.9298 -1.5063 0
M  V30 END ATOM
M  V30 BEGIN BOND
M  V30 1 2 1 2
M  V30 2 1 2 3
M  V30 3 1 2 4
M  V30 4 1 3 5
M  V30 5 1 3 6
M  V30 6 1 4 7
M  V30 7 2 5 8
M  V30 8 1 5 9
M  V30 9 1 6 10
M  V30 10 1 7 11
M  V30 11 1 9 12
M  V30 12 1 10 13
M  V30 13 2 11 14
M  V30 14 2 12 15
M  V30 15 2 7 9
M  V30 16 1 14 15
M  V30 17 1 4 16
M  V30 18 1 6 17
M  V30 19 1 6 18
M  V30 20 1 10 19
M  V30 21 1 10 20
M  V30 22 1 11 21
M  V30 23 1 12 22
M  V30 24 1 13 23
M  V30 25 1 14 24
M  V30 26 1 15 25
M  V30 END BOND
M  V30 END CTAB
M  END
>  <Structure No>
2573

>  <LogS>
-3.112893643

>  <MMFF94 Energy>
-45.749

$$$$
Compound 2574
Actelion Java MolfileCreator 2.0

  0  0  0  0  0  0              0 V3000
M  V30 BEGIN CTAB
M  V30 COUNTS 33 33 0 0 0
M  V30 BEGIN ATOM
M  V30 1 O 4.7344 2.4439 -0.1575 0
M  V30 2 C 4.1661 1.344 0.068 0
M  V30 3 O 2.8223 1.2418 0.3431 0
M  V30 4 C 4.855 0.0409 0.056 0
M  V30 5 C 2.4331 -0.1075 0.5379 0 CFG=2
M  V30 6 C 3.7434 -0.9323 0.4678 0
M  V30 7 C 1.4299 -0.5311 -0.5464 0
M  V30 8 C 0.1257 0.2717 -0.452 0
M  V30 9 C -0.8831 -0.1924 -1.5125 0
M  V30 10 C -2.134 0.7021 -1.584 0
M  V30 11 C -2.9709 0.7538 -0.2929 0
M  V30 12 C -3.5348 -0.6161 0.1099 0
M  V30 13 C -4.5028 -0.4888 1.2827 0
M  V30 14 H 5.2232 -0.1842 -0.9676 0
M  V30 15 H 5.6924 0.033 0.7863 0
M  V30 16 H 1.9714 -0.2171 1.5441 0
M  V30 17 H 3.9714 -1.3549 1.4709 0
M  V30 18 H 3.6785 -1.7746 -0.2557 0
M  V30 19 H 1.1993 -1.6122 -0.4224 0
M  V30 20 H 1.8871 -0.3824 -1.5497 0
M  V30 21 H -0.3079 0.1292 0.5608 0
M  V30 22 H 0.3443 1.352 -0.5989 0
M  V30 23 H -1.1742 -1.2475 -1.3252 0
M  V30 24 H -0.3934 -0.1633 -2.5105 0
M  V30 25 H -2.7788 0.3421 -2.4151 0
M  V30 26 H -1.8208 1.7368 -1.8437 0
M  V30 27 H -3.818 1.4523 -0.4706 0
M  V30 28 H -2.3705 1.1783 0.5393 0
M  V30 29 H -4.0707 -1.0721 -0.7506 0
M  V30 30 H -2.7081 -1.2924 0.4136 0
M  V30 31 H -3.9871 -0.0474 2.1621 0
M  V30 32 H -5.3663 0.1519 1.0036 0
M  V30 33 H -4.8833 -1.494 1.5617 0
M  V30 END ATOM
M  V30 BEGIN BOND
M  V30 1 2 1 2
M  V30 2 1 2 3
M  V30 3 1 2 4
M  V30 4 1 3 5
M  V30 5 1 4 6
M  V30 6 1 5 7
M  V30 7 1 7 8
M  V30 8 1 8 9
M  V30 9 1 9 10
M  V30 10 1 10 11
M  V30 11 1 11 12
M  V30 12 1 12 13
M  V30 13 1 5 6
M  V30 14 1 4 14
M  V30 15 1 4 15
M  V30 16 1 5 16
M  V30 17 1 6 17
M  V30 18 1 6 18
M  V30 19 1 7 19
M  V30 20 1 7 20
M  V30 21 1 8 21
M  V30 22 1 8 22
M  V30 23 1 9 23
M  V30 24 1 9 24
M  V30 25 1 10 25
M  V30 26 1 10 26
M  V30 27 1 11 27
M  V30 28 1 11 28
M  V30 29 1 12 29
M  V30 30 1 12 30
M  V30 31 1 13 31
M  V30 32 1 13 32
M  V30 33 1 13 33
M  V30 END BOND
M  V30 BEGIN COLLECTION
M  V30 MDLV30/STEABS ATOMS=(1 5)
M  V30 END COLLECTION
M  V30 END CTAB
M  END
>  <Structure No>
2574

>  <LogS>
-3.06681876

>  <MMFF94 Energy>
-7.1139

$$$$
Compound 2575
Actelion Java MolfileCreator 2.0

  0  0  0  0  0  0              0 V3000
M  V30 BEGIN CTAB
M  V30 COUNTS 15 14 0 0 0
M  V30 BEGIN ATOM
M  V30 1 C 1.5131 -0.4537 -0.605 0
M  V30 2 C 2.3668 0.5219 -0.2808 0
M  V30 3 C 0.2843 -0.7357 0.2152 0
M  V30 4 C -0.7618 0.3725 0.0471 0
M  V30 5 C -2.0247 0.0627 0.8456 0
M  V30 6 H 1.7281 -1.0806 -1.4655 0
M  V30 7 H 3.2525 0.691 -0.8846 0
M  V30 8 H 2.1925 1.1526 0.5856 0
M  V30 9 H 0.5675 -0.8387 1.2858 0
M  V30 10 H -0.1497 -1.7024 -0.1209 0
M  V30 11 H -0.3468 1.3423 0.398 0
M  V30 12 H -1.0306 0.473 -1.0273 0
M  V30 13 H -1.786 -0.0209 1.9274 0
M  V30 14 H -2.4797 -0.8882 0.4953 0
M  V30 15 H -2.7624 0.8812 0.7072 0
M  V30 END ATOM
M  V30 BEGIN BOND
M  V30 1 2 1 2
M  V30 2 1 1 3
M  V30 3 1 3 4
M  V30 4 1 4 5
M  V30 5 1 1 6
M  V30 6 1 2 7
M  V30 7 1 2 8
M  V30 8 1 3 9
M  V30 9 1 3 10
M  V30 10 1 4 11
M  V30 11 1 4 12
M  V30 12 1 5 13
M  V30 13 1 5 14
M  V30 14 1 5 15
M  V30 END BOND
M  V30 END CTAB
M  END
>  <Structure No>
2575

>  <LogS>
-2.675673086

>  <MMFF94 Energy>
5.4531

$$$$
Compound 2576
Actelion Java MolfileCreator 2.0

  0  0  0  0  0  0              0 V3000
M  V30 BEGIN CTAB
M  V30 COUNTS 35 35 0 0 0
M  V30 BEGIN ATOM
M  V30 1 O 4.7109 1.8038 0.0783 0
M  V30 2 C 3.7599 1.2624 -0.8071 0 CFG=1
M  V30 3 C 4.7552 0.4082 -0.122 0
M  V30 4 C 2.3528 1.2778 -0.216 0
M  V30 5 O 1.6254 0.1971 -0.7573 0
M  V30 6 C 0.3046 0.213 -0.2546 0
M  V30 7 C -0.4681 -1.0209 -0.7655 0 CFG=2
M  V30 8 C -1.8912 -1.1092 -0.1557 0
M  V30 9 C 0.3171 -2.3427 -0.5561 0
M  V30 10 C -2.8308 0.0314 -0.607 0
M  V30 11 C 0.6719 -2.6491 0.9017 0
M  V30 12 C -3.0245 1.0925 0.487 0
M  V30 13 C -3.91 2.2346 -0.0024 0
M  V30 14 H 3.951 1.544 -1.864 0
M  V30 15 H 4.4285 -0.1411 0.7864 0
M  V30 16 H 5.643 0.1165 -0.7205 0
M  V30 17 H 2.3982 1.2063 0.8963 0
M  V30 18 H 1.882 2.2475 -0.4944 0
M  V30 19 H 0.2965 0.2132 0.8596 0
M  V30 20 H -0.2135 1.129 -0.616 0
M  V30 21 H -0.5816 -0.9056 -1.867 0
M  V30 22 H -1.8345 -1.1496 0.9535 0
M  V30 23 H -2.3493 -2.069 -0.4821 0
M  V30 24 H 1.2577 -2.3105 -1.1477 0
M  V30 25 H -0.2775 -3.1902 -0.9613 0
M  V30 26 H -3.827 -0.4025 -0.8464 0
M  V30 27 H -2.4553 0.5091 -1.5385 0
M  V30 28 H 1.3362 -1.8657 1.3214 0
M  V30 29 H 1.214 -3.6169 0.949 0
M  V30 30 H -0.2415 -2.7383 1.5243 0
M  V30 31 H -3.5022 0.6253 1.3758 0
M  V30 32 H -2.0455 1.5097 0.8015 0
M  V30 33 H -3.4399 2.741 -0.8723 0
M  V30 34 H -4.0422 2.978 0.8118 0
M  V30 35 H -4.9095 1.8495 -0.2974 0
M  V30 END ATOM
M  V30 BEGIN BOND
M  V30 1 1 1 2
M  V30 2 1 1 3
M  V30 3 1 2 4
M  V30 4 1 4 5
M  V30 5 1 5 6
M  V30 6 1 6 7
M  V30 7 1 7 8
M  V30 8 1 7 9
M  V30 9 1 8 10
M  V30 10 1 9 11
M  V30 11 1 10 12
M  V30 12 1 12 13
M  V30 13 1 2 3
M  V30 14 1 2 14
M  V30 15 1 3 15
M  V30 16 1 3 16
M  V30 17 1 4 17
M  V30 18 1 4 18
M  V30 19 1 6 19
M  V30 20 1 6 20
M  V30 21 1 7 21
M  V30 22 1 8 22
M  V30 23 1 8 23
M  V30 24 1 9 24
M  V30 25 1 9 25
M  V30 26 1 10 26
M  V30 27 1 10 27
M  V30 28 1 11 28
M  V30 29 1 11 29
M  V30 30 1 11 30
M  V30 31 1 12 31
M  V30 32 1 12 32
M  V30 33 1 13 33
M  V30 34 1 13 34
M  V30 35 1 13 35
M  V30 END BOND
M  V30 BEGIN COLLECTION
M  V30 MDLV30/STEABS ATOMS=(2 2 7)
M  V30 END COLLECTION
M  V30 END CTAB
M  END
>  <Structure No>
2576

>  <LogS>
-3.114865162

>  <MMFF94 Energy>
22.053

$$$$
Compound 2577
Actelion Java MolfileCreator 2.0

  0  0  0  0  0  0              0 V3000
M  V30 BEGIN CTAB
M  V30 COUNTS 26 27 0 0 0
M  V30 BEGIN ATOM
M  V30 1 Cl 1.0671 -0.082 2.7927 0
M  V30 2 C 1.9867 0.0371 1.2946 0
M  V30 3 C 1.4167 -0.2308 0.0236 0
M  V30 4 C 3.3311 0.4186 1.3909 0
M  V30 5 C 2.2206 -0.0806 -1.1227 0
M  V30 6 C -0.0392 -0.6218 -0.1546 0 CFG=1
M  V30 7 C 4.1159 0.5481 0.2431 0
M  V30 8 C 3.5593 0.3008 -1.012 0
M  V30 9 O -0.3831 -1.6283 0.7637 0
M  V30 10 C -0.9504 0.6061 0.0125 0
M  V30 11 Cl 5.7975 1.0287 0.3786 0
M  V30 12 N -2.3394 0.2643 -0.2859 0
M  V30 13 C -2.9045 0.1615 -1.5038 0
M  V30 14 C -3.2944 -0.0806 0.5924 0
M  V30 15 N -4.1953 -0.2271 -1.4403 0
M  V30 16 C -4.4346 -0.3766 -0.1205 0
M  V30 17 H 3.7665 0.6191 2.362 0
M  V30 18 H 1.8112 -0.2577 -2.1096 0
M  V30 19 H -0.1807 -1.0155 -1.19 0
M  V30 20 H 4.1623 0.4068 -1.9048 0
M  V30 21 H -1.1608 -2.1172 0.387 0
M  V30 22 H -0.6188 1.4116 -0.6794 0
M  V30 23 H -0.8805 1.0062 1.0465 0
M  V30 24 H -2.3835 0.3591 -2.4318 0
M  V30 25 H -3.1695 -0.124 1.6667 0
M  V30 26 H -5.3826 -0.6903 0.2953 0
M  V30 END ATOM
M  V30 BEGIN BOND
M  V30 1 1 1 2
M  V30 2 2 2 3
M  V30 3 1 2 4
M  V30 4 1 3 5
M  V30 5 1 3 6
M  V30 6 2 4 7
M  V30 7 2 5 8
M  V30 8 1 6 9
M  V30 9 1 6 10
M  V30 10 1 7 11
M  V30 11 1 10 12
M  V30 12 1 12 13
M  V30 13 1 12 14
M  V30 14 2 13 15
M  V30 15 2 14 16
M  V30 16 1 7 8
M  V30 17 1 15 16
M  V30 18 1 4 17
M  V30 19 1 5 18
M  V30 20 1 6 19
M  V30 21 1 8 20
M  V30 22 1 9 21
M  V30 23 1 10 22
M  V30 24 1 10 23
M  V30 25 1 13 24
M  V30 26 1 14 25
M  V30 27 1 16 26
M  V30 END BOND
M  V30 BEGIN COLLECTION
M  V30 MDLV30/STEABS ATOMS=(1 6)
M  V30 END COLLECTION
M  V30 END CTAB
M  END
>  <Structure No>
2577

>  <LogS>
-3.264007824

>  <MMFF94 Energy>
22.372

$$$$
Compound 2578
Actelion Java MolfileCreator 2.0

  0  0  0  0  0  0              0 V3000
M  V30 BEGIN CTAB
M  V30 COUNTS 98 105 0 0 0
M  V30 BEGIN ATOM
M  V30 1 S 3.1198 -0.328 -3.3665 0
M  V30 2 O 4.3914 -0.2275 -4.1625 0
M  V30 3 O 2.0136 0.3148 -4.1518 0
M  V30 4 O 2.7599 -1.9472 -3.1095 0 CHG=-1
M  V30 5 C 3.303 0.493 -1.8083 0
M  V30 6 C 2.1937 0.7559 -0.9636 0
M  V30 7 C 4.5853 0.9112 -1.4173 0
M  V30 8 C 2.4095 1.461 0.2391 0
M  V30 9 C 0.8402 0.2326 -1.2951 0
M  V30 10 C 4.7841 1.5955 -0.211 0
M  V30 11 C 3.6863 1.8906 0.5993 0
M  V30 12 C -0.2972 0.8034 -0.8736 0
M  V30 13 N 6.0938 2.0245 0.1873 0
M  V30 14 C -1.622 0.1957 -1.1348 0
M  V30 15 C 7.2475 1.1747 0.1352 0
M  V30 16 C -2.5967 0.1058 -0.1137 0
M  V30 17 C -1.9272 -0.2851 -2.4199 0
M  V30 18 N 8.4701 1.684 0.4307 0
M  V30 19 N 7.1237 -0.1487 -0.1464 0
M  V30 20 S -2.2626 0.6596 1.5356 0
M  V30 21 C -3.8433 -0.4759 -0.3958 0
M  V30 22 C -3.1759 -0.8446 -2.6903 0
M  V30 23 C 9.5662 0.8808 0.4456 0
M  V30 24 C 8.2155 -0.9552 -0.1569 0
M  V30 25 O -3.3322 0.1808 2.4773 0
M  V30 26 O -2.221 2.1615 1.5644 0
M  V30 27 O -0.7851 0.0442 2.0471 0 CHG=-1
M  V30 28 C -4.1507 -0.9312 -1.6892 0
M  V30 29 N 9.434 -0.4355 0.1451 0
M  V30 30 N 10.8677 1.4134 0.7301 0
M  V30 31 N 8.057 -2.3558 -0.4224 0
M  V30 32 N -5.4127 -1.5532 -1.993 0
M  V30 33 C 11.1052 2.7256 1.2673 0
M  V30 34 C 9.1451 -3.2807 -0.5881 0
M  V30 35 C -6.6667 -1.2174 -1.3804 0
M  V30 36 C 10.2445 3.2931 2.2252 0
M  V30 37 C 12.2546 3.4327 0.879 0
M  V30 38 C 10.3221 -2.9157 -1.2676 0
M  V30 39 C 9.0078 -4.5963 -0.1169 0
M  V30 40 N -7.7568 -1.9917 -1.6251 0
M  V30 41 N -6.79 -0.1187 -0.5889 0
M  V30 42 C 10.5099 4.562 2.7478 0
M  V30 43 C 12.519 4.7017 1.4066 0
M  V30 44 C 11.3562 -3.8425 -1.4325 0
M  V30 45 C 10.0429 -5.5202 -0.2853 0
M  V30 46 C -8.9552 -1.6904 -1.0625 0
M  V30 47 C -7.9854 0.1949 -0.029 0
M  V30 48 C 11.6432 5.2681 2.3354 0
M  V30 49 C 11.2181 -5.1413 -0.9385 0
M  V30 50 N -9.0613 -0.5961 -0.2678 0
M  V30 51 N -10.1066 -2.4938 -1.3605 0
M  V30 52 N -8.0843 1.3227 0.8526 0
M  V30 53 C -11.4167 -2.2452 -0.8216 0
M  V30 54 C -9.3002 1.7133 1.5134 0
M  V30 55 C -12.5421 -2.4052 -1.6445 0
M  V30 56 C -11.5988 -1.8769 0.524 0
M  V30 57 C -10.5357 1.7042 0.8402 0
M  V30 58 C -9.2534 2.1365 2.85 0
M  V30 59 C -13.8252 -2.16 -1.1446 0
M  V30 60 C -12.881 -1.621 1.0181 0
M  V30 61 C -11.7072 2.0671 1.5107 0
M  V30 62 C -10.4266 2.5025 3.5155 0
M  V30 63 C -13.9937 -1.7585 0.1838 0
M  V30 64 C -11.654 2.4604 2.8497 0
M  V30 65 H 5.4347 0.7226 -2.0593 0
M  V30 66 H 1.5996 1.6572 0.9264 0
M  V30 67 H 0.7744 -0.6743 -1.8806 0
M  V30 68 H 3.8284 2.4245 1.5312 0
M  V30 69 H -0.2671 1.7098 -0.2848 0
M  V30 70 H 6.1873 2.9466 0.67 0
M  V30 71 H -1.2037 -0.2121 -3.2227 0
M  V30 72 H -4.5579 -0.6029 0.4045 0
M  V30 73 H -3.3873 -1.2082 -3.6875 0
M  V30 74 H 11.6949 0.8383 0.4538 0
M  V30 75 H 7.0865 -2.7413 -0.3816 0
M  V30 76 H -5.4358 -2.2508 -2.7706 0
M  V30 77 H 9.3841 2.7491 2.5885 0
M  V30 78 H 12.9383 3.002 0.159 0
M  V30 79 H 10.4331 -1.9272 -1.6911 0
M  V30 80 H 8.1027 -4.9005 0.3946 0
M  V30 81 H 9.8423 4.9935 3.4815 0
M  V30 82 H 13.405 5.2417 1.0963 0
M  V30 83 H 12.2614 -3.5562 -1.9522 0
M  V30 84 H 9.9353 -6.5295 0.0946 0
M  V30 85 H 11.8492 6.2487 2.7431 0
M  V30 86 H 12.018 -5.8572 -1.0696 0
M  V30 87 H -10.0193 -3.1939 -2.1309 0
M  V30 88 H -7.1916 1.7772 1.1503 0
M  V30 89 H -12.4202 -2.7061 -2.6777 0
M  V30 90 H -10.7562 -1.8049 1.1975 0
M  V30 91 H -10.5932 1.4364 -0.2062 0
M  V30 92 H -8.311 2.1616 3.3828 0
M  V30 93 H -14.6864 -2.2752 -1.7907 0
M  V30 94 H -13.0109 -1.3219 2.0505 0
M  V30 95 H -12.6546 2.0482 0.987 0
M  V30 96 H -10.3861 2.8212 4.5482 0
M  V30 97 H -14.9872 -1.5657 0.5667 0
M  V30 98 H -12.5621 2.744 3.3659 0
M  V30 END ATOM
M  V30 BEGIN BOND
M  V30 1 2 1 2
M  V30 2 2 1 3
M  V30 3 1 1 4
M  V30 4 1 1 5
M  V30 5 2 5 6
M  V30 6 1 5 7
M  V30 7 1 6 8
M  V30 8 1 6 9
M  V30 9 2 7 10
M  V30 10 2 8 11
M  V30 11 2 9 12
M  V30 12 1 10 13
M  V30 13 1 12 14
M  V30 14 1 13 15
M  V30 15 2 14 16
M  V30 16 1 14 17
M  V30 17 2 15 18
M  V30 18 1 15 19
M  V30 19 1 16 20
M  V30 20 1 16 21
M  V30 21 2 17 22
M  V30 22 1 18 23
M  V30 23 2 19 24
M  V30 24 2 20 25
M  V30 25 2 20 26
M  V30 26 1 20 27
M  V30 27 2 21 28
M  V30 28 2 23 29
M  V30 29 1 23 30
M  V30 30 1 24 31
M  V30 31 1 28 32
M  V30 32 1 30 33
M  V30 33 1 31 34
M  V30 34 1 32 35
M  V30 35 2 33 36
M  V30 36 1 33 37
M  V30 37 2 34 38
M  V30 38 1 34 39
M  V30 39 2 35 40
M  V30 40 1 35 41
M  V30 41 1 36 42
M  V30 42 2 37 43
M  V30 43 1 38 44
M  V30 44 2 39 45
M  V30 45 1 40 46
M  V30 46 2 41 47
M  V30 47 2 42 48
M  V30 48 2 44 49
M  V30 49 2 46 50
M  V30 50 1 46 51
M  V30 51 1 47 52
M  V30 52 1 51 53
M  V30 53 1 52 54
M  V30 54 2 53 55
M  V30 55 1 53 56
M  V30 56 2 54 57
M  V30 57 1 54 58
M  V30 58 1 55 59
M  V30 59 2 56 60
M  V30 60 1 57 61
M  V30 61 2 58 62
M  V30 62 2 59 63
M  V30 63 2 61 64
M  V30 64 1 10 11
M  V30 65 1 22 28
M  V30 66 1 24 29
M  V30 67 1 43 48
M  V30 68 1 45 49
M  V30 69 1 47 50
M  V30 70 1 60 63
M  V30 71 1 62 64
M  V30 72 1 7 65
M  V30 73 1 8 66
M  V30 74 1 9 67
M  V30 75 1 11 68
M  V30 76 1 12 69
M  V30 77 1 13 70
M  V30 78 1 17 71
M  V30 79 1 21 72
M  V30 80 1 22 73
M  V30 81 1 30 74
M  V30 82 1 31 75
M  V30 83 1 32 76
M  V30 84 1 36 77
M  V30 85 1 37 78
M  V30 86 1 38 79
M  V30 87 1 39 80
M  V30 88 1 42 81
M  V30 89 1 43 82
M  V30 90 1 44 83
M  V30 91 1 45 84
M  V30 92 1 48 85
M  V30 93 1 49 86
M  V30 94 1 51 87
M  V30 95 1 52 88
M  V30 96 1 55 89
M  V30 97 1 56 90
M  V30 98 1 57 91
M  V30 99 1 58 92
M  V30 100 1 59 93
M  V30 101 1 60 94
M  V30 102 1 61 95
M  V30 103 1 62 96
M  V30 104 1 63 97
M  V30 105 1 64 98
M  V30 END BOND
M  V30 END CTAB
M  END
>  <Structure No>
2578

>  <LogS>
-3.825587453

>  <MMFF94 Energy>
-282.33

$$$$
Compound 2579
Actelion Java MolfileCreator 2.0

  0  0  0  0  0  0              0 V3000
M  V30 BEGIN CTAB
M  V30 COUNTS 40 39 0 0 0
M  V30 BEGIN ATOM
M  V30 1 O -4.3673 1.8698 2.0258 0
M  V30 2 C -4.3959 1.9607 0.7704 0
M  V30 3 O -3.7537 3.0202 0.1422 0 CHG=-1
M  V30 4 C -5.0863 0.912 -0.0467 0
M  V30 5 C -4.0847 -0.0613 -0.6812 0
M  V30 6 C -3.3804 -0.9358 0.3702 0
M  V30 7 C -2.5305 -2.0569 -0.2543 0
M  V30 8 C -1.3831 -1.5737 -1.16 0
M  V30 9 C -0.3649 -0.693 -0.4205 0
M  V30 10 C 0.856 -0.4044 -1.3064 0
M  V30 11 C 1.8247 0.6048 -0.6704 0
M  V30 12 C 2.5446 0.0384 0.5661 0
M  V30 13 C 3.6628 0.9746 1.0689 0
M  V30 14 C 5.073 0.5365 0.634 0
M  V30 15 N 5.2633 0.6301 -0.8137 0 CHG=1
M  V30 16 H -5.6582 1.4159 -0.8551 0
M  V30 17 H -5.8166 0.3552 0.5805 0
M  V30 18 H -4.6368 -0.717 -1.3892 0
M  V30 19 H -3.3364 0.5185 -1.2629 0
M  V30 20 H -4.151 -1.416 1.0123 0
M  V30 21 H -2.7512 -0.3075 1.0348 0
M  V30 22 H -3.194 -2.7221 -0.8486 0
M  V30 23 H -2.104 -2.6749 0.5656 0
M  V30 24 H -0.8617 -2.475 -1.5504 0
M  V30 25 H -1.7904 -1.0291 -2.038 0
M  V30 26 H -0.0397 -1.215 0.5044 0
M  V30 27 H -0.842 0.2708 -0.1419 0
M  V30 28 H 0.5061 0.0196 -2.2733 0
M  V30 29 H 1.3945 -1.3514 -1.5295 0
M  V30 30 H 1.2728 1.529 -0.3908 0
M  V30 31 H 2.5715 0.8891 -1.4402 0
M  V30 32 H 2.9507 -0.9732 0.3469 0
M  V30 33 H 1.7998 -0.077 1.3826 0
M  V30 34 H 3.4783 2.0261 0.7568 0
M  V30 35 H 3.6458 0.9697 2.1809 0
M  V30 36 H 5.8146 1.1935 1.1401 0
M  V30 37 H 5.2668 -0.5055 0.9722 0
M  V30 38 H 6.2731 0.4725 -1.0337 0
M  V30 39 H 4.7033 -0.1063 -1.2996 0
M  V30 40 H 4.9899 1.5794 -1.157 0
M  V30 END ATOM
M  V30 BEGIN BOND
M  V30 1 2 1 2
M  V30 2 1 2 3
M  V30 3 1 2 4
M  V30 4 1 4 5
M  V30 5 1 5 6
M  V30 6 1 6 7
M  V30 7 1 7 8
M  V30 8 1 8 9
M  V30 9 1 9 10
M  V30 10 1 10 11
M  V30 11 1 11 12
M  V30 12 1 12 13
M  V30 13 1 13 14
M  V30 14 1 14 15
M  V30 15 1 4 16
M  V30 16 1 4 17
M  V30 17 1 5 18
M  V30 18 1 5 19
M  V30 19 1 6 20
M  V30 20 1 6 21
M  V30 21 1 7 22
M  V30 22 1 7 23
M  V30 23 1 8 24
M  V30 24 1 8 25
M  V30 25 1 9 26
M  V30 26 1 9 27
M  V30 27 1 10 28
M  V30 28 1 10 29
M  V30 29 1 11 30
M  V30 30 1 11 31
M  V30 31 1 12 32
M  V30 32 1 12 33
M  V30 33 1 13 34
M  V30 34 1 13 35
M  V30 35 1 14 36
M  V30 36 1 14 37
M  V30 37 1 15 38
M  V30 38 1 15 39
M  V30 39 1 15 40
M  V30 END BOND
M  V30 END CTAB
M  END
>  <Structure No>
2579

>  <LogS>
-3.196398091

>  <MMFF94 Energy>
-18.147

$$$$
Compound 2580
Actelion Java MolfileCreator 2.0

  0  0  0  0  0  0              0 V3000
M  V30 BEGIN CTAB
M  V30 COUNTS 31 31 0 0 0
M  V30 BEGIN ATOM
M  V30 1 O -0.7855 -1.4928 -1.257 0
M  V30 2 C -0.047 -0.7516 -0.2977 0 CFG=2
M  V30 3 C -2.0166 -1.9271 -0.7046 0
M  V30 4 C -0.7734 0.5844 0.0345 0
M  V30 5 C 1.3767 -0.5244 -0.8597 0
M  V30 6 C -2.8915 -0.7539 -0.2134 0
M  V30 7 C -2.2174 0.596 -0.4995 0 CFG=1
M  V30 8 C 2.4724 -0.3274 0.2182 0
M  V30 9 C -3.0216 1.7535 0.102 0
M  V30 10 C 3.8618 -0.4222 -0.4278 0
M  V30 11 C 2.339 1.0124 0.9555 0
M  V30 12 H 0.0516 -1.3544 0.6363 0
M  V30 13 H -1.8383 -2.6534 0.1204 0
M  V30 14 H -2.5688 -2.4791 -1.4944 0
M  V30 15 H -0.2381 1.4607 -0.3912 0
M  V30 16 H -0.7951 0.7096 1.1393 0
M  V30 17 H 1.3841 0.3207 -1.5829 0
M  V30 18 H 1.6464 -1.4317 -1.4455 0
M  V30 19 H -3.0605 -0.8623 0.881 0
M  V30 20 H -3.8838 -0.7886 -0.7146 0
M  V30 21 H -2.1829 0.7428 -1.6028 0
M  V30 22 H 2.3978 -1.1479 0.966 0
M  V30 23 H -4.0457 1.7697 -0.328 0
M  V30 24 H -3.0984 1.6491 1.2056 0
M  V30 25 H -2.5298 2.7213 -0.1334 0
M  V30 26 H 3.9955 0.3783 -1.187 0
M  V30 27 H 4.6548 -0.3214 0.3437 0
M  V30 28 H 3.9925 -1.4094 -0.9201 0
M  V30 29 H 1.4477 1.0078 1.6124 0
M  V30 30 H 3.2192 1.1827 1.6116 0
M  V30 31 H 2.2662 1.8544 0.2345 0
M  V30 END ATOM
M  V30 BEGIN BOND
M  V30 1 1 1 2
M  V30 2 1 1 3
M  V30 3 1 2 4
M  V30 4 1 2 5
M  V30 5 1 3 6
M  V30 6 1 4 7
M  V30 7 1 5 8
M  V30 8 1 7 9
M  V30 9 1 8 10
M  V30 10 1 8 11
M  V30 11 1 6 7
M  V30 12 1 2 12
M  V30 13 1 3 13
M  V30 14 1 3 14
M  V30 15 1 4 15
M  V30 16 1 4 16
M  V30 17 1 5 17
M  V30 18 1 5 18
M  V30 19 1 6 19
M  V30 20 1 6 20
M  V30 21 1 7 21
M  V30 22 1 8 22
M  V30 23 1 9 23
M  V30 24 1 9 24
M  V30 25 1 9 25
M  V30 26 1 10 26
M  V30 27 1 10 27
M  V30 28 1 10 28
M  V30 29 1 11 29
M  V30 30 1 11 30
M  V30 31 1 11 31
M  V30 END BOND
M  V30 BEGIN COLLECTION
M  V30 MDLV30/STEABS ATOMS=(2 2 7)
M  V30 END COLLECTION
M  V30 END CTAB
M  END
>  <Structure No>
2580

>  <LogS>
-3.079929481

>  <MMFF94 Energy>
16.831

$$$$
Compound 2581
Actelion Java MolfileCreator 2.0

  0  0  0  0  0  0              0 V3000
M  V30 BEGIN CTAB
M  V30 COUNTS 30 31 0 0 0
M  V30 BEGIN ATOM
M  V30 1 S -0.7477 2.078 0.1661 0
M  V30 2 S 0.7469 0.7882 1.0024 0
M  V30 3 N -2.1399 0.966 0.2998 0
M  V30 4 N 1.399 0.358 -0.5965 0
M  V30 5 C -2.0347 -0.1928 -0.598 0
M  V30 6 C -2.4259 0.5657 1.6827 0
M  V30 7 C 2.451 1.3094 -0.995 0
M  V30 8 C 1.9091 -1.0235 -0.5794 0
M  V30 9 C -3.1798 -1.1882 -0.3262 0
M  V30 10 C -3.7355 -0.2512 1.7234 0
M  V30 11 C 3.7547 1.0816 -0.213 0
M  V30 12 C 3.2417 -1.1328 0.1797 0
M  V30 13 O -4.2111 -0.5795 0.4276 0
M  V30 14 O 4.2017 -0.2498 -0.3626 0
M  V30 15 H -1.0697 -0.7195 -0.4663 0
M  V30 16 H -2.0953 0.1631 -1.649 0
M  V30 17 H -2.5276 1.4692 2.3227 0
M  V30 18 H -1.6044 -0.0604 2.0907 0
M  V30 19 H 2.655 1.1859 -2.0808 0
M  V30 20 H 2.1041 2.3549 -0.8466 0
M  V30 21 H 1.1617 -1.706 -0.1198 0
M  V30 22 H 2.0606 -1.3639 -1.6268 0
M  V30 23 H -3.6031 -1.5341 -1.293 0
M  V30 24 H -2.7937 -2.093 0.1977 0
M  V30 25 H -3.5977 -1.1766 2.3263 0
M  V30 26 H -4.5186 0.3499 2.2323 0
M  V30 27 H 4.5332 1.7608 -0.6194 0
M  V30 28 H 3.627 1.3429 0.8618 0
M  V30 29 H 3.6222 -2.1708 0.0767 0
M  V30 30 H 3.098 -0.9481 1.2683 0
M  V30 END ATOM
M  V30 BEGIN BOND
M  V30 1 1 1 2
M  V30 2 1 1 3
M  V30 3 1 2 4
M  V30 4 1 3 5
M  V30 5 1 3 6
M  V30 6 1 4 7
M  V30 7 1 4 8
M  V30 8 1 5 9
M  V30 9 1 6 10
M  V30 10 1 7 11
M  V30 11 1 8 12
M  V30 12 1 9 13
M  V30 13 1 11 14
M  V30 14 1 10 13
M  V30 15 1 12 14
M  V30 16 1 5 15
M  V30 17 1 5 16
M  V30 18 1 6 17
M  V30 19 1 6 18
M  V30 20 1 7 19
M  V30 21 1 7 20
M  V30 22 1 8 21
M  V30 23 1 8 22
M  V30 24 1 9 23
M  V30 25 1 9 24
M  V30 26 1 10 25
M  V30 27 1 10 26
M  V30 28 1 11 27
M  V30 29 1 11 28
M  V30 30 1 12 29
M  V30 31 1 12 30
M  V30 END BOND
M  V30 END CTAB
M  END
>  <Structure No>
2581

>  <LogS>
-3.259634304

>  <MMFF94 Energy>
92.54

$$$$
Compound 2582
Actelion Java MolfileCreator 2.0

  0  0  0  0  0  0              0 V3000
M  V30 BEGIN CTAB
M  V30 COUNTS 31 32 0 0 0
M  V30 BEGIN ATOM
M  V30 1 S -1.3995 -2.8005 -0.0822 0
M  V30 2 C -1.1406 -1.2714 -0.6117 0
M  V30 3 S 0.0568 -1.0264 -1.9254 0
M  V30 4 N -1.8855 -0.1609 -0.0707 0
M  V30 5 N 1.3678 -0.743 -0.7646 0
M  V30 6 C -2.1078 -0.0585 1.3778 0
M  V30 7 C -2.0557 1.0566 -0.8714 0
M  V30 8 C 2.0252 0.531 -1.0898 0
M  V30 9 C 2.3318 -1.8464 -0.8578 0
M  V30 10 C -3.3456 0.7978 1.6619 0
M  V30 11 C -3.299 1.8221 -0.409 0
M  V30 12 C 3.3268 0.6963 -0.2782 0
M  V30 13 C 3.5353 -1.5827 0.0721 0
M  V30 14 O -3.2647 2.0387 0.988 0
M  V30 15 O 3.4542 -0.316 0.7015 0
M  V30 16 H -1.2167 0.4097 1.8492 0
M  V30 17 H -2.2615 -1.0576 1.8361 0
M  V30 18 H -1.1588 1.702 -0.7547 0
M  V30 19 H -2.1785 0.8012 -1.9464 0
M  V30 20 H 2.2627 0.5881 -2.1768 0
M  V30 21 H 1.3328 1.3654 -0.8454 0
M  V30 22 H 2.6924 -1.9616 -1.9058 0
M  V30 23 H 1.8364 -2.7963 -0.559 0
M  V30 24 H -3.4006 0.9924 2.7539 0
M  V30 25 H -4.273 0.247 1.3824 0
M  V30 26 H -4.2249 1.2806 -0.7107 0
M  V30 27 H -3.3193 2.8084 -0.9187 0
M  V30 28 H 4.2114 0.6975 -0.9558 0
M  V30 29 H 3.3163 1.6817 0.2345 0
M  V30 30 H 4.4907 -1.6731 -0.4925 0
M  V30 31 H 3.5572 -2.3599 0.8655 0
M  V30 END ATOM
M  V30 BEGIN BOND
M  V30 1 2 1 2
M  V30 2 1 2 3
M  V30 3 1 2 4
M  V30 4 1 3 5
M  V30 5 1 4 6
M  V30 6 1 4 7
M  V30 7 1 5 8
M  V30 8 1 5 9
M  V30 9 1 6 10
M  V30 10 1 7 11
M  V30 11 1 8 12
M  V30 12 1 9 13
M  V30 13 1 10 14
M  V30 14 1 12 15
M  V30 15 1 11 14
M  V30 16 1 13 15
M  V30 17 1 6 16
M  V30 18 1 6 17
M  V30 19 1 7 18
M  V30 20 1 7 19
M  V30 21 1 8 20
M  V30 22 1 8 21
M  V30 23 1 9 22
M  V30 24 1 9 23
M  V30 25 1 10 24
M  V30 26 1 10 25
M  V30 27 1 11 26
M  V30 28 1 11 27
M  V30 29 1 12 28
M  V30 30 1 12 29
M  V30 31 1 13 30
M  V30 32 1 13 31
M  V30 END BOND
M  V30 END CTAB
M  END
>  <Structure No>
2582

>  <LogS>
-3.291300662

>  <MMFF94 Energy>
105.83

$$$$
Compound 2583
Actelion Java MolfileCreator 2.0

  0  0  0  0  0  0              0 V3000
M  V30 BEGIN CTAB
M  V30 COUNTS 51 53 0 0 0
M  V30 BEGIN ATOM
M  V30 1 O -2.7 -2.4616 -1.667 0
M  V30 2 C -3.1077 -1.5199 -0.9318 0
M  V30 3 N -2.1508 -0.6734 -0.2546 0
M  V30 4 C -4.5914 -1.2577 -0.8299 0
M  V30 5 C -2.5548 0.6485 0.1502 0
M  V30 6 C -0.7248 -1.0672 -0.2226 0 CFG=2
M  V30 7 C -5.4125 -2.5432 -0.908 0
M  V30 8 C -2.8115 0.9262 1.5018 0
M  V30 9 C -2.7551 1.6516 -0.8107 0
M  V30 10 C 0.015 -0.5502 -1.4768 0
M  V30 11 C -0.0101 -0.6036 1.0597 0
M  V30 12 C -3.2285 2.2029 1.8905 0
M  V30 13 C -3.1725 2.9273 -0.4191 0
M  V30 14 C 1.5401 -0.4364 -1.2653 0
M  V30 15 C 1.4623 -1.0773 1.1022 0
M  V30 16 C -3.4051 3.204 0.931 0
M  V30 17 N 2.0157 -1.3917 -0.2411 0 CHG=1 CFG=1
M  V30 18 C 3.495 -1.5264 -0.2265 0
M  V30 19 C 4.2428 -0.2369 0.0563 0
M  V30 20 C 4.662 0.0713 1.3629 0
M  V30 21 C 4.5661 0.645 -0.9902 0
M  V30 22 C 5.3605 1.2547 1.6206 0
M  V30 23 C 5.2648 1.8272 -0.7281 0
M  V30 24 C 5.6588 2.1337 0.5766 0
M  V30 25 H -4.8949 -0.576 -1.6526 0
M  V30 26 H -4.8236 -0.7638 0.1372 0
M  V30 27 H -0.6671 -2.1794 -0.2185 0
M  V30 28 H -6.4889 -2.3045 -0.7756 0
M  V30 29 H -5.2801 -3.0298 -1.8977 0
M  V30 30 H -5.1029 -3.2466 -0.1058 0
M  V30 31 H -2.6963 0.1522 2.2492 0
M  V30 32 H -2.5933 1.4418 -1.86 0
M  V30 33 H -0.3682 0.4488 -1.7718 0
M  V30 34 H -0.1894 -1.2443 -2.3208 0
M  V30 35 H -0.0236 0.5076 1.1077 0
M  V30 36 H -0.5457 -0.9932 1.9521 0
M  V30 37 H -3.4203 2.4147 2.9344 0
M  V30 38 H -3.3204 3.6996 -1.1626 0
M  V30 39 H 2.0441 -0.624 -2.2397 0
M  V30 40 H 1.7785 0.6054 -0.953 0
M  V30 41 H 1.5304 -1.9831 1.746 0
M  V30 42 H 2.0478 -0.279 1.6024 0
M  V30 43 H -3.7298 4.1914 1.2329 0
M  V30 44 H 1.6591 -2.3402 -0.5115 0
M  V30 45 H 3.7887 -2.2946 0.5242 0
M  V30 46 H 3.8392 -1.932 -1.2049 0
M  V30 47 H 4.4459 -0.6032 2.182 0
M  V30 48 H 4.2801 0.417 -2.009 0
M  V30 49 H 5.6733 1.4888 2.6301 0
M  V30 50 H 5.5045 2.5042 -1.5377 0
M  V30 51 H 6.2004 3.0488 0.7777 0
M  V30 END ATOM
M  V30 BEGIN BOND
M  V30 1 2 1 2
M  V30 2 1 2 3
M  V30 3 1 2 4
M  V30 4 1 3 5
M  V30 5 1 3 6
M  V30 6 1 4 7
M  V30 7 2 5 8
M  V30 8 1 5 9
M  V30 9 1 6 10
M  V30 10 1 6 11
M  V30 11 1 8 12
M  V30 12 2 9 13
M  V30 13 1 10 14
M  V30 14 1 11 15
M  V30 15 2 12 16
M  V30 16 1 14 17
M  V30 17 1 17 18
M  V30 18 1 18 19
M  V30 19 2 19 20
M  V30 20 1 19 21
M  V30 21 1 20 22
M  V30 22 2 21 23
M  V30 23 2 22 24
M  V30 24 1 13 16
M  V30 25 1 15 17
M  V30 26 1 23 24
M  V30 27 1 4 25
M  V30 28 1 4 26
M  V30 29 1 6 27
M  V30 30 1 7 28
M  V30 31 1 7 29
M  V30 32 1 7 30
M  V30 33 1 8 31
M  V30 34 1 9 32
M  V30 35 1 10 33
M  V30 36 1 10 34
M  V30 37 1 11 35
M  V30 38 1 11 36
M  V30 39 1 12 37
M  V30 40 1 13 38
M  V30 41 1 14 39
M  V30 42 1 14 40
M  V30 43 1 15 41
M  V30 44 1 15 42
M  V30 45 1 16 43
M  V30 46 1 17 44
M  V30 47 1 18 45
M  V30 48 1 18 46
M  V30 49 1 20 47
M  V30 50 1 21 48
M  V30 51 1 22 49
M  V30 52 1 23 50
M  V30 53 1 24 51
M  V30 END BOND
M  V30 BEGIN COLLECTION
M  V30 MDLV30/STEABS ATOMS=(2 6 17)
M  V30 END COLLECTION
M  V30 END CTAB
M  END
>  <Structure No>
2583

>  <LogS>
-3.41504339

>  <MMFF94 Energy>
15.393

$$$$
Compound 2584
Actelion Java MolfileCreator 2.0

  0  0  0  0  0  0              0 V3000
M  V30 BEGIN CTAB
M  V30 COUNTS 31 31 0 0 0
M  V30 BEGIN ATOM
M  V30 1 O 0.0 2.2758 0.7058 0
M  V30 2 C -0.558 1.0612 0.2975 0
M  V30 3 C 0.2939 -0.0426 -0.0014 0
M  V30 4 C -1.964 0.934 0.1863 0
M  V30 5 C -0.3187 -1.2519 -0.4151 0
M  V30 6 C 1.8397 0.0745 0.1243 0
M  V30 7 C -2.5218 -0.2804 -0.2269 0
M  V30 8 C -2.8814 2.0843 0.5082 0
M  V30 9 C -1.7067 -1.3657 -0.5438 0
M  V30 10 C 2.3696 1.1688 -0.8313 0
M  V30 11 C 2.2307 0.4135 1.5815 0
M  V30 12 C 2.581 -1.2373 -0.2438 0
M  V30 13 C -2.3213 -2.6746 -0.9499 0
M  V30 14 H -0.5428 3.0986 0.9329 0
M  V30 15 H 0.2632 -2.1304 -0.6469 0
M  V30 16 H -3.5981 -0.3839 -0.3044 0
M  V30 17 H -3.9501 1.812 0.3733 0
M  V30 18 H -2.7409 2.3934 1.5654 0
M  V30 19 H -2.6618 2.9403 -0.1639 0
M  V30 20 H 3.4812 1.189 -0.8304 0
M  V30 21 H 2.0267 0.9712 -1.87 0
M  V30 22 H 2.0361 2.1839 -0.5417 0
M  V30 23 H 1.7883 -0.3282 2.2812 0
M  V30 24 H 3.3351 0.3946 1.7082 0
M  V30 25 H 1.8959 1.4234 1.8874 0
M  V30 26 H 2.2827 -2.0667 0.4336 0
M  V30 27 H 3.6816 -1.1138 -0.1437 0
M  V30 28 H 2.3792 -1.5262 -1.2981 0
M  V30 29 H -2.4668 -3.3086 -0.0504 0
M  V30 30 H -1.6638 -3.2094 -1.6681 0
M  V30 31 H -3.3042 -2.5147 -1.4424 0
M  V30 END ATOM
M  V30 BEGIN BOND
M  V30 1 1 1 2
M  V30 2 2 2 3
M  V30 3 1 2 4
M  V30 4 1 3 5
M  V30 5 1 3 6
M  V30 6 2 4 7
M  V30 7 1 4 8
M  V30 8 2 5 9
M  V30 9 1 6 10
M  V30 10 1 6 11
M  V30 11 1 6 12
M  V30 12 1 9 13
M  V30 13 1 7 9
M  V30 14 1 1 14
M  V30 15 1 5 15
M  V30 16 1 7 16
M  V30 17 1 8 17
M  V30 18 1 8 18
M  V30 19 1 8 19
M  V30 20 1 10 20
M  V30 21 1 10 21
M  V30 22 1 10 22
M  V30 23 1 11 23
M  V30 24 1 11 24
M  V30 25 1 11 25
M  V30 26 1 12 26
M  V30 27 1 12 27
M  V30 28 1 12 28
M  V30 29 1 13 29
M  V30 30 1 13 30
M  V30 31 1 13 31
M  V30 END BOND
M  V30 END CTAB
M  END
>  <Structure No>
2584

>  <LogS>
-3.171909199

>  <MMFF94 Energy>
36.331

$$$$
Compound 2585
Actelion Java MolfileCreator 2.0

  0  0  0  0  0  0              0 V3000
M  V30 BEGIN CTAB
M  V30 COUNTS 19 20 0 0 0
M  V30 BEGIN ATOM
M  V30 1 S 2.6419 -3.203 -0.1599 0
M  V30 2 C 1.7751 -1.8183 -0.0845 0
M  V30 3 N 0.4204 -1.7863 -0.0916 0
M  V30 4 N 2.34 -0.5892 -0.0084 0
M  V30 5 C 0.1274 -0.4755 -0.0167 0
M  V30 6 C 1.2883 0.2447 0.0334 0
M  V30 7 C -1.1288 0.1402 0.0109 0
M  V30 8 C 1.2943 1.6343 0.115 0
M  V30 9 C -1.1536 1.551 0.0937 0
M  V30 10 C -2.3936 -0.6638 -0.0447 0
M  V30 11 C 0.0504 2.2905 0.1453 0
M  V30 12 H -0.2401 -2.5937 -0.1435 0
M  V30 13 H 3.3554 -0.3452 0.0127 0
M  V30 14 H 2.2217 2.1907 0.1541 0
M  V30 15 H -2.0978 2.0803 0.1184 0
M  V30 16 H -2.4206 -1.252 -0.9859 0
M  V30 17 H -2.4329 -1.3581 0.8207 0
M  V30 18 H -3.29 -0.009 -0.0123 0
M  V30 19 H 0.0152 3.3703 0.2084 0
M  V30 END ATOM
M  V30 BEGIN BOND
M  V30 1 2 1 2
M  V30 2 1 2 3
M  V30 3 1 2 4
M  V30 4 1 3 5
M  V30 5 1 4 6
M  V30 6 1 5 7
M  V30 7 1 6 8
M  V30 8 2 7 9
M  V30 9 1 7 10
M  V30 10 2 8 11
M  V30 11 2 5 6
M  V30 12 1 9 11
M  V30 13 1 3 12
M  V30 14 1 4 13
M  V30 15 1 8 14
M  V30 16 1 9 15
M  V30 17 1 10 16
M  V30 18 1 10 17
M  V30 19 1 10 18
M  V30 20 1 11 19
M  V30 END BOND
M  V30 END CTAB
M  END
>  <Structure No>
2585

>  <LogS>
-3.13627918

>  <MMFF94 Energy>
-10.41

$$$$
Compound 2586
Actelion Java MolfileCreator 2.0

  0  0  0  0  0  0              0 V3000
M  V30 BEGIN CTAB
M  V30 COUNTS 34 33 0 0 0
M  V30 BEGIN ATOM
M  V30 1 O -5.1321 1.0869 -2.0192 0
M  V30 2 C -4.9046 -0.0578 -1.6612 0
M  V30 3 C -3.7009 -0.3671 -0.8229 0
M  V30 4 C -3.8072 0.3008 0.5537 0
M  V30 5 C -2.6859 -0.128 1.5156 0
M  V30 6 C -1.2852 0.3581 1.0864 0
M  V30 7 C -0.4534 -0.7659 0.4431 0
M  V30 8 C 0.8447 -0.2526 -0.2 0
M  V30 9 C 1.882 0.2003 0.8417 0
M  V30 10 C 3.1878 0.6931 0.1978 0
M  V30 11 C 4.0453 -0.4542 -0.3563 0
M  V30 12 C 5.3877 0.0611 -0.867 0
M  V30 13 H -5.5733 -0.8567 -1.9648 0
M  V30 14 H -3.6257 -1.4691 -0.699 0
M  V30 15 H -2.7969 -0.0051 -1.3567 0
M  V30 16 H -4.78 0.021 1.0155 0
M  V30 17 H -3.7964 1.4073 0.4388 0
M  V30 18 H -2.7057 -1.2316 1.6537 0
M  V30 19 H -2.9177 0.3153 2.509 0
M  V30 20 H -1.3668 1.2232 0.3924 0
M  V30 21 H -0.7518 0.7155 1.9931 0
M  V30 22 H -1.0509 -1.2627 -0.3493 0
M  V30 23 H -0.2144 -1.5382 1.2068 0
M  V30 24 H 0.6137 0.5835 -0.8957 0
M  V30 25 H 1.2683 -1.0832 -0.802 0
M  V30 26 H 1.4619 1.0438 1.4291 0
M  V30 27 H 2.0998 -0.6289 1.5499 0
M  V30 28 H 3.7723 1.2301 0.9772 0
M  V30 29 H 2.9588 1.4212 -0.6111 0
M  V30 30 H 3.5206 -0.9537 -1.1973 0
M  V30 31 H 4.2308 -1.2058 0.4415 0
M  V30 32 H 5.9596 0.5349 -0.0409 0
M  V30 33 H 5.2322 0.8035 -1.6786 0
M  V30 34 H 5.9824 -0.7857 -1.2694 0
M  V30 END ATOM
M  V30 BEGIN BOND
M  V30 1 2 1 2
M  V30 2 1 2 3
M  V30 3 1 3 4
M  V30 4 1 4 5
M  V30 5 1 5 6
M  V30 6 1 6 7
M  V30 7 1 7 8
M  V30 8 1 8 9
M  V30 9 1 9 10
M  V30 10 1 10 11
M  V30 11 1 11 12
M  V30 12 1 2 13
M  V30 13 1 3 14
M  V30 14 1 3 15
M  V30 15 1 4 16
M  V30 16 1 4 17
M  V30 17 1 5 18
M  V30 18 1 5 19
M  V30 19 1 6 20
M  V30 20 1 6 21
M  V30 21 1 7 22
M  V30 22 1 7 23
M  V30 23 1 8 24
M  V30 24 1 8 25
M  V30 25 1 9 26
M  V30 26 1 9 27
M  V30 27 1 10 28
M  V30 28 1 10 29
M  V30 29 1 11 30
M  V30 30 1 11 31
M  V30 31 1 12 32
M  V30 32 1 12 33
M  V30 33 1 12 34
M  V30 END BOND
M  V30 END CTAB
M  END
>  <Structure No>
2586

>  <LogS>
-3.152023201

>  <MMFF94 Energy>
-1.726

$$$$
Compound 2587
Actelion Java MolfileCreator 2.0

  0  0  0  0  0  0              0 V3000
M  V30 BEGIN CTAB
M  V30 COUNTS 15 15 0 0 0
M  V30 BEGIN ATOM
M  V30 1 Cl 2.781 -2.0852 -0.6078 0
M  V30 2 C 1.6002 -0.8119 -0.3295 0
M  V30 3 C 1.9932 0.5313 -0.2114 0
M  V30 4 C 0.2471 -1.1545 -0.2179 0
M  V30 5 Cl 3.682 1.0035 -0.3435 0
M  V30 6 C 1.0304 1.5176 0.0255 0
M  V30 7 C -0.7274 -0.163 -0.0069 0
M  V30 8 C -0.3195 1.174 0.1367 0
M  V30 9 C -2.1774 -0.542 0.162 0
M  V30 10 F -2.4227 -0.8205 1.4937 0
M  V30 11 F -3.0043 0.4921 -0.242 0
M  V30 12 F -2.4815 -1.6596 -0.5959 0
M  V30 13 H -0.0417 -2.1956 -0.2939 0
M  V30 14 H 1.3279 2.5534 0.1299 0
M  V30 15 H -1.0438 1.9537 0.3369 0
M  V30 END ATOM
M  V30 BEGIN BOND
M  V30 1 1 1 2
M  V30 2 2 2 3
M  V30 3 1 2 4
M  V30 4 1 3 5
M  V30 5 1 3 6
M  V30 6 2 4 7
M  V30 7 2 6 8
M  V30 8 1 7 9
M  V30 9 1 9 10
M  V30 10 1 9 11
M  V30 11 1 9 12
M  V30 12 1 7 8
M  V30 13 1 4 13
M  V30 14 1 6 14
M  V30 15 1 8 15
M  V30 END BOND
M  V30 END CTAB
M  END
>  <Structure No>
2587

>  <LogS>
-3.267982491

>  <MMFF94 Energy>
47.049

$$$$
Compound 2588
Actelion Java MolfileCreator 2.0

  0  0  0  0  0  0              0 V3000
M  V30 BEGIN CTAB
M  V30 COUNTS 53 54 0 0 0
M  V30 BEGIN ATOM
M  V30 1 O 4.4321 -1.0275 -0.3951 0
M  V30 2 C 3.3233 -0.1689 -0.4011 0
M  V30 3 C 5.7295 -0.6676 0.0767 0
M  V30 4 C 3.3893 1.1535 0.0691 0
M  V30 5 C 2.1119 -0.6533 -0.8983 0
M  V30 6 C 6.693 -1.8528 -0.0645 0 CFG=1
M  V30 7 C 2.2562 1.9721 0.0447 0
M  V30 8 C 0.9778 0.1607 -0.9247 0
M  V30 9 O 6.1963 -2.9665 0.6306 0
M  V30 10 C 6.8978 -2.2271 -1.5327 0
M  V30 11 C 1.0208 1.4845 -0.4376 0
M  V30 12 C -0.25 2.3533 -0.5126 0
M  V30 13 C -1.4374 1.5785 0.0915 0
M  V30 14 C -0.1274 3.6783 0.2782 0
M  V30 15 C -0.4584 2.7189 -2.0021 0
M  V30 16 C -2.6916 1.4735 -0.5503 0
M  V30 17 C -1.2984 0.9947 1.3683 0
M  V30 18 C -3.7475 0.7794 0.0477 0
M  V30 19 C -2.3555 0.3021 1.9621 0
M  V30 20 C -3.5837 0.1806 1.3091 0
M  V30 21 O -4.6087 -0.5311 1.9537 0
M  V30 22 C -5.8759 -0.8636 1.3836 0
M  V30 23 C -5.7448 -1.9955 0.3495 0 CFG=2
M  V30 24 O -7.0015 -2.2714 -0.2103 0
M  V30 25 C -5.201 -3.2702 0.9955 0
M  V30 26 H 5.6673 -0.3776 1.1482 0
M  V30 27 H 6.116 0.198 -0.5044 0
M  V30 28 H 4.3138 1.5622 0.4536 0
M  V30 29 H 2.0492 -1.668 -1.2707 0
M  V30 30 H 7.6839 -1.5589 0.3534 0
M  V30 31 H 2.3654 2.983 0.408 0
M  V30 32 H 0.058 -0.2459 -1.3262 0
M  V30 33 H 6.3382 -2.7875 1.5969 0
M  V30 34 H 7.6256 -3.0626 -1.6077 0
M  V30 35 H 7.2996 -1.3601 -2.0993 0
M  V30 36 H 5.9395 -2.55 -1.9928 0
M  V30 37 H 0.6277 4.3532 -0.179 0
M  V30 38 H -1.0982 4.2207 0.2768 0
M  V30 39 H 0.1548 3.4878 1.3359 0
M  V30 40 H -0.6849 1.815 -2.6075 0
M  V30 41 H 0.4609 3.1862 -2.4178 0
M  V30 42 H -1.2853 3.451 -2.1265 0
M  V30 43 H -2.8751 1.9217 -1.5154 0
M  V30 44 H -0.3629 1.0728 1.9081 0
M  V30 45 H -4.6877 0.7227 -0.4815 0
M  V30 46 H -2.2181 -0.1444 2.9387 0
M  V30 47 H -6.343 0.0362 0.9299 0
M  V30 48 H -6.5505 -1.1961 2.2014 0
M  V30 49 H -5.0368 -1.6928 -0.4548 0
M  V30 50 H -7.1954 -1.5395 -0.853 0
M  V30 51 H -5.1329 -4.0763 0.2346 0
M  V30 52 H -4.1846 -3.0938 1.4072 0
M  V30 53 H -5.8719 -3.6093 1.8137 0
M  V30 END ATOM
M  V30 BEGIN BOND
M  V30 1 1 1 2
M  V30 2 1 1 3
M  V30 3 2 2 4
M  V30 4 1 2 5
M  V30 5 1 3 6
M  V30 6 1 4 7
M  V30 7 2 5 8
M  V30 8 1 6 9
M  V30 9 1 6 10
M  V30 10 2 7 11
M  V30 11 1 11 12
M  V30 12 1 12 13
M  V30 13 1 12 14
M  V30 14 1 12 15
M  V30 15 2 13 16
M  V30 16 1 13 17
M  V30 17 1 16 18
M  V30 18 2 17 19
M  V30 19 2 18 20
M  V30 20 1 20 21
M  V30 21 1 21 22
M  V30 22 1 22 23
M  V30 23 1 23 24
M  V30 24 1 23 25
M  V30 25 1 8 11
M  V30 26 1 19 20
M  V30 27 1 3 26
M  V30 28 1 3 27
M  V30 29 1 4 28
M  V30 30 1 5 29
M  V30 31 1 6 30
M  V30 32 1 7 31
M  V30 33 1 8 32
M  V30 34 1 9 33
M  V30 35 1 10 34
M  V30 36 1 10 35
M  V30 37 1 10 36
M  V30 38 1 14 37
M  V30 39 1 14 38
M  V30 40 1 14 39
M  V30 41 1 15 40
M  V30 42 1 15 41
M  V30 43 1 15 42
M  V30 44 1 16 43
M  V30 45 1 17 44
M  V30 46 1 18 45
M  V30 47 1 19 46
M  V30 48 1 22 47
M  V30 49 1 22 48
M  V30 50 1 23 49
M  V30 51 1 24 50
M  V30 52 1 25 51
M  V30 53 1 25 52
M  V30 54 1 25 53
M  V30 END BOND
M  V30 BEGIN COLLECTION
M  V30 MDLV30/STEABS ATOMS=(2 6 23)
M  V30 END COLLECTION
M  V30 END CTAB
M  END
>  <Structure No>
2588

>  <LogS>
-3.499700952

>  <MMFF94 Energy>
103.77

$$$$
Compound 2589
Actelion Java MolfileCreator 2.0

  0  0  0  0  0  0              0 V3000
M  V30 BEGIN CTAB
M  V30 COUNTS 30 30 0 0 0
M  V30 BEGIN ATOM
M  V30 1 O 0.0786 2.5179 0.8649 0
M  V30 2 C -3.0E-4 1.9677 -0.2671 0
M  V30 3 O 1.0897 1.2757 -0.8057 0
M  V30 4 C -1.2855 2.0103 -1.0276 0
M  V30 5 C 2.2856 1.0049 -0.0767 0
M  V30 6 C -1.9527 0.6646 -0.967 0
M  V30 7 C 2.0549 -0.096 0.976 0
M  V30 8 C -1.6986 -0.2986 -1.9582 0
M  V30 9 C -2.7769 0.3316 0.121 0
M  V30 10 C 1.5757 -1.3976 0.3196 0
M  V30 11 C 3.3381 -0.344 1.7766 0
M  V30 12 C -2.2783 -1.568 -1.8712 0
M  V30 13 C -3.355 -0.9389 0.2037 0
M  V30 14 C -3.1071 -1.8874 -0.7922 0
M  V30 15 H -1.9564 2.7901 -0.6042 0
M  V30 16 H -1.0766 2.2931 -2.0817 0
M  V30 17 H 2.6473 1.938 0.4089 0
M  V30 18 H 3.0669 0.6751 -0.7947 0
M  V30 19 H 1.2703 0.2436 1.6869 0
M  V30 20 H -1.0468 -0.0689 -2.792 0
M  V30 21 H -2.966 1.0534 0.9061 0
M  V30 22 H 0.608 -1.2351 -0.2003 0
M  V30 23 H 1.4185 -2.1807 1.0916 0
M  V30 24 H 2.3229 -1.7642 -0.4165 0
M  V30 25 H 3.1593 -1.1116 2.5596 0
M  V30 26 H 4.1552 -0.6946 1.1101 0
M  V30 27 H 3.6621 0.5919 2.2801 0
M  V30 28 H -2.0804 -2.3061 -2.6376 0
M  V30 29 H -3.9912 -1.1897 1.0425 0
M  V30 30 H -3.5531 -2.8713 -0.7252 0
M  V30 END ATOM
M  V30 BEGIN BOND
M  V30 1 2 1 2
M  V30 2 1 2 3
M  V30 3 1 2 4
M  V30 4 1 3 5
M  V30 5 1 4 6
M  V30 6 1 5 7
M  V30 7 2 6 8
M  V30 8 1 6 9
M  V30 9 1 7 10
M  V30 10 1 7 11
M  V30 11 1 8 12
M  V30 12 2 9 13
M  V30 13 2 12 14
M  V30 14 1 13 14
M  V30 15 1 4 15
M  V30 16 1 4 16
M  V30 17 1 5 17
M  V30 18 1 5 18
M  V30 19 1 7 19
M  V30 20 1 8 20
M  V30 21 1 9 21
M  V30 22 1 10 22
M  V30 23 1 10 23
M  V30 24 1 10 24
M  V30 25 1 11 25
M  V30 26 1 11 26
M  V30 27 1 11 27
M  V30 28 1 12 28
M  V30 29 1 13 29
M  V30 30 1 14 30
M  V30 END BOND
M  V30 END CTAB
M  END
>  <Structure No>
2589

>  <LogS>
-3.271047196

>  <MMFF94 Energy>
30.989

$$$$
Compound 2590
Actelion Java MolfileCreator 2.0

  0  0  0  0  0  0              0 V3000
M  V30 BEGIN CTAB
M  V30 COUNTS 55 58 0 0 0
M  V30 BEGIN ATOM
M  V30 1 O -6.4887 -1.7002 -0.3236 0
M  V30 2 C -5.2952 -1.3599 -0.1104 0
M  V30 3 C -4.225 -1.901 -0.964 0
M  V30 4 C -4.9905 -0.3841 0.9917 0
M  V30 5 C -2.9269 -1.6975 -0.6725 0
M  V30 6 C -3.5255 0.0931 0.9537 0
M  V30 7 C -2.5116 -1.052 0.646 0 CFG=2
M  V30 8 C -1.9095 -1.8231 -1.7596 0
M  V30 9 C -1.0431 -0.4232 0.5732 0 CFG=2
M  V30 10 C -2.623 -2.1314 1.7571 0
M  V30 11 C -1.4169 -0.412 -2.0488 0
M  V30 12 C -0.6623 0.211 -0.8386 0 CFG=2
M  V30 13 C 0.1066 -1.3365 1.1197 0
M  V30 14 C 0.8697 0.1283 -1.092 0 CFG=2
M  V30 15 C 1.4786 -0.6162 1.2389 0
M  V30 16 C 1.7235 0.4637 0.1399 0 CFG=1
M  V30 17 C 1.4581 0.9753 -2.2231 0
M  V30 18 C 3.1605 0.4764 -0.4852 0 CFG=2
M  V30 19 C 1.3816 1.8853 0.712 0
M  V30 20 C 2.9518 1.1276 -1.8803 0
M  V30 21 O 3.6915 -0.8261 -0.6172 0
M  V30 22 C 4.1357 1.2503 0.3087 0
M  V30 23 C 4.9294 1.8833 0.9592 0
M  V30 24 C 5.8886 2.6562 1.7532 0
M  V30 25 O 5.3891 3.9442 1.9866 0
M  V30 26 H -4.5104 -2.3582 -1.9041 0
M  V30 27 H -5.2104 -0.8599 1.971 0
M  V30 28 H -5.6596 0.4979 0.8945 0
M  V30 29 H -3.433 0.8803 0.172 0
M  V30 30 H -3.2877 0.5702 1.93 0
M  V30 31 H -2.3395 -2.2625 -2.6868 0
M  V30 32 H -1.0735 -2.4772 -1.4379 0
M  V30 33 H -1.0573 0.4072 1.3069 0
M  V30 34 H -2.3758 -1.6986 2.7501 0
M  V30 35 H -1.9511 -2.9899 1.5452 0
M  V30 36 H -3.6425 -2.5633 1.8213 0
M  V30 37 H -2.2901 0.2308 -2.3045 0
M  V30 38 H -0.79 -0.4384 -2.9643 0
M  V30 39 H -0.9452 1.2868 -0.8113 0
M  V30 40 H -0.1274 -1.7044 2.1394 0
M  V30 41 H 0.2158 -2.2278 0.4673 0
M  V30 42 H 1.0675 -0.9321 -1.3732 0
M  V30 43 H 2.2651 -1.3983 1.2223 0
M  V30 44 H 1.5531 -0.154 2.2481 0
M  V30 45 H 0.9658 1.9717 -2.262 0
M  V30 46 H 1.3363 0.4755 -3.2079 0
M  V30 47 H 0.3287 2.0011 1.0161 0
M  V30 48 H 1.9893 2.0974 1.6171 0
M  V30 49 H 1.5931 2.6872 -0.0251 0
M  V30 50 H 3.5857 0.6386 -2.6524 0
M  V30 51 H 3.2106 2.2107 -1.87 0
M  V30 52 H 3.2326 -1.3016 -1.3561 0
M  V30 53 H 6.0899 2.1308 2.7135 0
M  V30 54 H 6.8407 2.7346 1.1887 0
M  V30 55 H 4.7047 3.8597 2.7018 0
M  V30 END ATOM
M  V30 BEGIN BOND
M  V30 1 2 1 2
M  V30 2 1 2 3
M  V30 3 1 2 4
M  V30 4 2 3 5
M  V30 5 1 4 6
M  V30 6 1 5 7
M  V30 7 1 5 8
M  V30 8 1 7 9
M  V30 9 1 7 10
M  V30 10 1 8 11
M  V30 11 1 9 12
M  V30 12 1 9 13
M  V30 13 1 12 14
M  V30 14 1 13 15
M  V30 15 1 14 16
M  V30 16 1 14 17
M  V30 17 1 16 18
M  V30 18 1 16 19
M  V30 19 1 17 20
M  V30 20 1 18 21
M  V30 21 1 18 22
M  V30 22 3 22 23
M  V30 23 1 23 24
M  V30 24 1 24 25
M  V30 25 1 6 7
M  V30 26 1 11 12
M  V30 27 1 15 16
M  V30 28 1 18 20
M  V30 29 1 3 26
M  V30 30 1 4 27
M  V30 31 1 4 28
M  V30 32 1 6 29
M  V30 33 1 6 30
M  V30 34 1 8 31
M  V30 35 1 8 32
M  V30 36 1 9 33
M  V30 37 1 10 34
M  V30 38 1 10 35
M  V30 39 1 10 36
M  V30 40 1 11 37
M  V30 41 1 11 38
M  V30 42 1 12 39
M  V30 43 1 13 40
M  V30 44 1 13 41
M  V30 45 1 14 42
M  V30 46 1 15 43
M  V30 47 1 15 44
M  V30 48 1 17 45
M  V30 49 1 17 46
M  V30 50 1 19 47
M  V30 51 1 19 48
M  V30 52 1 19 49
M  V30 53 1 20 50
M  V30 54 1 20 51
M  V30 55 1 21 52
M  V30 56 1 24 53
M  V30 57 1 24 54
M  V30 58 1 25 55
M  V30 END BOND
M  V30 BEGIN COLLECTION
M  V30 MDLV30/STEABS ATOMS=(6 7 9 12 14 16 18)
M  V30 END COLLECTION
M  V30 END CTAB
M  END
>  <Structure No>
2590

>  <LogS>
-3.526033775

>  <MMFF94 Energy>
72.703

$$$$
Compound 2591
Actelion Java MolfileCreator 2.0

  0  0  0  0  0  0              0 V3000
M  V30 BEGIN CTAB
M  V30 COUNTS 15 15 0 0 0
M  V30 BEGIN ATOM
M  V30 1 Cl 3.7889 0.0805 -0.2415 0
M  V30 2 C 2.0391 0.0396 -0.1257 0
M  V30 3 C 1.3215 1.2259 0.0607 0
M  V30 4 C 1.3588 -1.1785 -0.2264 0
M  V30 5 C -0.0737 1.1948 0.1516 0
M  V30 6 C -0.0363 -1.2123 -0.1358 0
M  V30 7 C -0.7605 -0.0269 0.0692 0
M  V30 8 C -2.259 -0.057 0.1268 0
M  V30 9 H 1.8428 2.1721 0.1316 0
M  V30 10 H 1.909 -2.0982 -0.3783 0
M  V30 11 H -0.6174 2.1217 0.2866 0
M  V30 12 H -0.5509 -2.161 -0.2248 0
M  V30 13 H -2.6432 0.7658 0.7667 0
M  V30 14 H -2.6155 -1.0186 0.5536 0
M  V30 15 H -2.67 0.059 -0.8976 0
M  V30 END ATOM
M  V30 BEGIN BOND
M  V30 1 1 1 2
M  V30 2 2 2 3
M  V30 3 1 2 4
M  V30 4 1 3 5
M  V30 5 2 4 6
M  V30 6 2 5 7
M  V30 7 1 7 8
M  V30 8 1 6 7
M  V30 9 1 3 9
M  V30 10 1 4 10
M  V30 11 1 5 11
M  V30 12 1 6 12
M  V30 13 1 8 13
M  V30 14 1 8 14
M  V30 15 1 8 15
M  V30 END BOND
M  V30 END CTAB
M  END
>  <Structure No>
2591

>  <LogS>
-3.102385677

>  <MMFF94 Energy>
17.254

$$$$
Compound 2592
Actelion Java MolfileCreator 2.0

  0  0  0  0  0  0              0 V3000
M  V30 BEGIN CTAB
M  V30 COUNTS 21 22 0 0 0
M  V30 BEGIN ATOM
M  V30 1 C -1.9171 0.3193 0.7984 0
M  V30 2 C -1.3841 -0.4908 1.7143 0
M  V30 3 C -0.7706 0.9653 0.0634 0 CFG=2
M  V30 4 C 0.1124 -0.3693 1.5885 0 CFG=2
M  V30 5 C -0.1142 -0.1362 -0.8068 0 CFG=2
M  V30 6 C 0.2203 1.0934 1.2071 0
M  V30 7 C 0.5258 -1.0576 0.2705 0
M  V30 8 C 0.9086 0.4311 -1.7642 0
M  V30 9 C 1.5397 -0.3498 -2.6451 0
M  V30 10 H -2.9744 0.5292 0.6775 0
M  V30 11 H -1.9356 -1.0472 2.4645 0
M  V30 12 H -1.0328 1.9101 -0.4593 0
M  V30 13 H 0.686 -0.6772 2.4881 0
M  V30 14 H -0.8909 -0.6833 -1.389 0
M  V30 15 H 1.2437 1.3908 0.8812 0
M  V30 16 H -0.1293 1.7818 2.013 0
M  V30 17 H 1.6357 -1.0915 0.1939 0
M  V30 18 H 0.1252 -2.0936 0.2102 0
M  V30 19 H 1.1249 1.496 -1.7595 0
M  V30 20 H 1.3408 -1.4165 -2.6869 0
M  V30 21 H 2.2628 0.0787 -3.3311 0
M  V30 END ATOM
M  V30 BEGIN BOND
M  V30 1 2 1 2
M  V30 2 1 1 3
M  V30 3 1 2 4
M  V30 4 1 3 5
M  V30 5 1 3 6
M  V30 6 1 4 7
M  V30 7 1 5 8
M  V30 8 2 8 9
M  V30 9 1 4 6
M  V30 10 1 5 7
M  V30 11 1 1 10
M  V30 12 1 2 11
M  V30 13 1 3 12
M  V30 14 1 4 13
M  V30 15 1 5 14
M  V30 16 1 6 15
M  V30 17 1 6 16
M  V30 18 1 7 17
M  V30 19 1 7 18
M  V30 20 1 8 19
M  V30 21 1 9 20
M  V30 22 1 9 21
M  V30 END BOND
M  V30 BEGIN COLLECTION
M  V30 MDLV30/STEABS ATOMS=(3 3 4 5)
M  V30 END COLLECTION
M  V30 END CTAB
M  END
>  <Structure No>
2592

>  <LogS>
-3.079886402

>  <MMFF94 Energy>
51.859

$$$$
Compound 2593
Actelion Java MolfileCreator 2.0

  0  0  0  0  0  0              0 V3000
M  V30 BEGIN CTAB
M  V30 COUNTS 48 47 0 0 0
M  V30 BEGIN ATOM
M  V30 1 O -3.6665 -1.4809 0.7012 0
M  V30 2 C -2.5027 -0.8675 1.2067 0 CFG=1
M  V30 3 C -1.291 -1.5432 0.6931 0
M  V30 4 C -2.4742 0.6397 0.8407 0
M  V30 5 C -2.5185 -1.0168 2.7335 0
M  V30 6 C -0.2948 -2.0697 0.266 0
M  V30 7 C -2.4851 0.9137 -0.6784 0
M  V30 8 C 0.9416 -2.6835 -0.2646 0 CFG=2
M  V30 9 C -2.4182 2.4224 -1.0122 0
M  V30 10 O 1.4423 -3.6455 0.635 0
M  V30 11 C 2.0041 -1.5893 -0.5463 0
M  V30 12 C 0.5914 -3.4001 -1.5749 0
M  V30 13 C -1.0181 3.003 -0.759 0
M  V30 14 C -2.8157 2.6567 -2.4759 0
M  V30 15 C 2.4941 -0.8571 0.7244 0
M  V30 16 C 3.344 0.4059 0.4491 0
M  V30 17 C 4.5707 0.1121 -0.4243 0
M  V30 18 C 2.511 1.553 -0.1403 0
M  V30 19 H -3.5512 -1.6342 -0.2732 0
M  V30 20 H -3.359 1.1391 1.2942 0
M  V30 21 H -1.5668 1.0937 1.2931 0
M  V30 22 H -1.616 -0.5519 3.188 0
M  V30 23 H -2.5436 -2.0916 3.0172 0
M  V30 24 H -3.4206 -0.5275 3.1599 0
M  V30 25 H -3.4296 0.5033 -1.0961 0
M  V30 26 H -1.64 0.387 -1.1729 0
M  V30 27 H -3.1476 2.97 -0.3745 0
M  V30 28 H 1.4634 -3.2494 1.5457 0
M  V30 29 H 1.5742 -0.8567 -1.2622 0
M  V30 30 H 2.8809 -2.063 -1.0395 0
M  V30 31 H -0.1712 -4.1887 -1.3932 0
M  V30 32 H 1.4944 -3.8872 -2.0016 0
M  V30 33 H 0.1883 -2.6836 -2.324 0
M  V30 34 H -0.2517 2.4435 -1.3367 0
M  V30 35 H -0.7607 2.9643 0.3185 0
M  V30 36 H -0.9839 4.07 -1.0663 0
M  V30 37 H -3.8504 2.2946 -2.6569 0
M  V30 38 H -2.1227 2.1211 -3.1601 0
M  V30 39 H -2.789 3.7417 -2.7143 0
M  V30 40 H 3.1072 -1.5617 1.3275 0
M  V30 41 H 1.6271 -0.5629 1.3546 0
M  V30 42 H 3.7219 0.7567 1.4356 0
M  V30 43 H 5.1494 -0.7362 -0.001 0
M  V30 44 H 5.2341 1.0028 -0.4561 0
M  V30 45 H 4.27 -0.1361 -1.4642 0
M  V30 46 H 3.112 2.4873 -0.1523 0
M  V30 47 H 1.6088 1.7332 0.4821 0
M  V30 48 H 2.1955 1.333 -1.181 0
M  V30 END ATOM
M  V30 BEGIN BOND
M  V30 1 1 1 2
M  V30 2 1 2 3
M  V30 3 1 2 4
M  V30 4 1 2 5
M  V30 5 3 3 6
M  V30 6 1 4 7
M  V30 7 1 6 8
M  V30 8 1 7 9
M  V30 9 1 8 10
M  V30 10 1 8 11
M  V30 11 1 8 12
M  V30 12 1 9 13
M  V30 13 1 9 14
M  V30 14 1 11 15
M  V30 15 1 15 16
M  V30 16 1 16 17
M  V30 17 1 16 18
M  V30 18 1 1 19
M  V30 19 1 4 20
M  V30 20 1 4 21
M  V30 21 1 5 22
M  V30 22 1 5 23
M  V30 23 1 5 24
M  V30 24 1 7 25
M  V30 25 1 7 26
M  V30 26 1 9 27
M  V30 27 1 10 28
M  V30 28 1 11 29
M  V30 29 1 11 30
M  V30 30 1 12 31
M  V30 31 1 12 32
M  V30 32 1 12 33
M  V30 33 1 13 34
M  V30 34 1 13 35
M  V30 35 1 13 36
M  V30 36 1 14 37
M  V30 37 1 14 38
M  V30 38 1 14 39
M  V30 39 1 15 40
M  V30 40 1 15 41
M  V30 41 1 16 42
M  V30 42 1 17 43
M  V30 43 1 17 44
M  V30 44 1 17 45
M  V30 45 1 18 46
M  V30 46 1 18 47
M  V30 47 1 18 48
M  V30 END BOND
M  V30 BEGIN COLLECTION
M  V30 MDLV30/STEABS ATOMS=(2 2 8)
M  V30 END COLLECTION
M  V30 END CTAB
M  END
>  <Structure No>
2593

>  <LogS>
-3.437525292

>  <MMFF94 Energy>
17.196

$$$$
Compound 2594
Actelion Java MolfileCreator 2.0

  0  0  0  0  0  0              0 V3000
M  V30 BEGIN CTAB
M  V30 COUNTS 29 30 0 0 0
M  V30 BEGIN ATOM
M  V30 1 S 0.2439 -0.2439 1.7901 0
M  V30 2 O 0.374 1.0379 2.5651 0
M  V30 3 O 0.3279 -1.3874 2.7628 0
M  V30 4 C 1.5416 -0.3637 0.6084 0
M  V30 5 C -1.3013 -0.2819 0.9501 0
M  V30 6 C 2.04 0.7928 -0.0078 0
M  V30 7 C 2.057 -1.6171 0.2517 0
M  V30 8 C -1.8652 0.9053 0.4616 0
M  V30 9 C -1.957 -1.5015 0.7343 0
M  V30 10 C 3.0602 0.7005 -0.9659 0
M  V30 11 C 3.0738 -1.7118 -0.7021 0
M  V30 12 C -3.087 0.8774 -0.2269 0
M  V30 13 C -3.1745 -1.5319 0.049 0
M  V30 14 N 3.5686 1.8816 -1.5916 0
M  V30 15 C 3.5761 -0.5572 -1.3088 0
M  V30 16 N -3.6614 2.0897 -0.7224 0
M  V30 17 C -3.74 -0.3466 -0.4293 0
M  V30 18 H 1.6332 1.7621 0.253 0
M  V30 19 H 1.6703 -2.5196 0.7076 0
M  V30 20 H -1.3541 1.8481 0.6121 0
M  V30 21 H -1.5252 -2.4276 1.0917 0
M  V30 22 H 3.4709 -2.6812 -0.9737 0
M  V30 23 H -3.6791 -2.4754 -0.1141 0
M  V30 24 H 3.19 2.8231 -1.344 0
M  V30 25 H 4.3272 1.8233 -2.3069 0
M  V30 26 H 4.3631 -0.6425 -2.0475 0
M  V30 27 H -3.1824 3.0066 -0.5779 0
M  V30 28 H -4.57 2.0793 -1.2373 0
M  V30 29 H -4.6832 -0.3821 -0.9599 0
M  V30 END ATOM
M  V30 BEGIN BOND
M  V30 1 2 1 2
M  V30 2 2 1 3
M  V30 3 1 1 4
M  V30 4 1 1 5
M  V30 5 2 4 6
M  V30 6 1 4 7
M  V30 7 2 5 8
M  V30 8 1 5 9
M  V30 9 1 6 10
M  V30 10 2 7 11
M  V30 11 1 8 12
M  V30 12 2 9 13
M  V30 13 1 10 14
M  V30 14 2 10 15
M  V30 15 1 12 16
M  V30 16 2 12 17
M  V30 17 1 11 15
M  V30 18 1 13 17
M  V30 19 1 6 18
M  V30 20 1 7 19
M  V30 21 1 8 20
M  V30 22 1 9 21
M  V30 23 1 11 22
M  V30 24 1 13 23
M  V30 25 1 14 24
M  V30 26 1 14 25
M  V30 27 1 15 26
M  V30 28 1 16 27
M  V30 29 1 16 28
M  V30 30 1 17 29
M  V30 END BOND
M  V30 END CTAB
M  END
>  <Structure No>
2594

>  <LogS>
-3.511895604

>  <MMFF94 Energy>
55.186

$$$$
Compound 2595
Actelion Java MolfileCreator 2.0

  0  0  0  0  0  0              0 V3000
M  V30 BEGIN CTAB
M  V30 COUNTS 32 32 0 0 0
M  V30 BEGIN ATOM
M  V30 1 O 1.5791 0.8682 -1.5001 0
M  V30 2 C 1.0391 0.2202 -0.5619 0
M  V30 3 O 1.8091 -0.6159 0.254 0
M  V30 4 C -0.4227 0.3322 -0.3286 0
M  V30 5 C 3.2249 -0.7376 0.1406 0
M  V30 6 C -1.0092 1.555 -0.2011 0
M  V30 7 C -1.2518 -0.9398 -0.0735 0
M  V30 8 C 3.9176 0.4834 0.7344 0
M  V30 9 C -2.4624 1.6606 0.0723 0
M  V30 10 C -0.2227 2.8388 -0.3002 0
M  V30 11 C -2.7237 -0.709 -0.5154 0
M  V30 12 C -0.7083 -2.1421 -0.8806 0
M  V30 13 C -1.2078 -1.2833 1.4305 0
M  V30 14 C -3.2592 0.5972 -0.0138 0
M  V30 15 H 3.5478 -1.6392 0.7023 0
M  V30 16 H 3.5186 -0.8701 -0.9231 0
M  V30 17 H 3.615 0.6117 1.7952 0
M  V30 18 H 3.6466 1.3974 0.166 0
M  V30 19 H 5.0185 0.3476 0.6877 0
M  V30 20 H -2.8902 2.6117 0.3643 0
M  V30 21 H 0.0718 3.0183 -1.355 0
M  V30 22 H -0.8239 3.708 0.0406 0
M  V30 23 H 0.6837 2.7895 0.3396 0
M  V30 24 H -2.783 -0.6855 -1.6261 0
M  V30 25 H -3.3791 -1.5357 -0.1639 0
M  V30 26 H 0.2864 -2.4683 -0.5133 0
M  V30 27 H -0.6182 -1.88 -1.9569 0
M  V30 28 H -1.3926 -3.0135 -0.7903 0
M  V30 29 H -1.6017 -0.4427 2.0411 0
M  V30 30 H -1.8201 -2.1857 1.6446 0
M  V30 31 H -0.1674 -1.4883 1.7597 0
M  V30 32 H -4.3135 0.6922 0.2138 0
M  V30 END ATOM
M  V30 BEGIN BOND
M  V30 1 2 1 2
M  V30 2 1 2 3
M  V30 3 1 2 4
M  V30 4 1 3 5
M  V30 5 2 4 6
M  V30 6 1 4 7
M  V30 7 1 5 8
M  V30 8 1 6 9
M  V30 9 1 6 10
M  V30 10 1 7 11
M  V30 11 1 7 12
M  V30 12 1 7 13
M  V30 13 2 9 14
M  V30 14 1 11 14
M  V30 15 1 5 15
M  V30 16 1 5 16
M  V30 17 1 8 17
M  V30 18 1 8 18
M  V30 19 1 8 19
M  V30 20 1 9 20
M  V30 21 1 10 21
M  V30 22 1 10 22
M  V30 23 1 10 23
M  V30 24 1 11 24
M  V30 25 1 11 25
M  V30 26 1 12 26
M  V30 27 1 12 27
M  V30 28 1 12 28
M  V30 29 1 13 29
M  V30 30 1 13 30
M  V30 31 1 13 31
M  V30 32 1 14 32
M  V30 END BOND
M  V30 END CTAB
M  END
>  <Structure No>
2595

>  <LogS>
-3.411619706

>  <MMFF94 Energy>
18.729

$$$$
Compound 2596
Actelion Java MolfileCreator 2.0

  0  0  0  0  0  0              0 V3000
M  V30 BEGIN CTAB
M  V30 COUNTS 53 52 0 0 0
M  V30 BEGIN ATOM
M  V30 1 N -8.6111 -1.315 0.3092 0 CHG=1
M  V30 2 C -7.9211 -0.1844 -0.3108 0
M  V30 3 C -6.3987 -0.3494 -0.2119 0
M  V30 4 C -5.6732 0.8431 -0.8522 0
M  V30 5 C -4.1484 0.6559 -0.8905 0
M  V30 6 C -3.5093 0.7212 0.5077 0
M  V30 7 C -1.9756 0.7988 0.4509 0
M  V30 8 C -1.3384 -0.5013 -0.0695 0
M  V30 9 C 0.1873 -0.5227 0.1111 0
M  V30 10 C 0.9024 0.4981 -0.791 0
M  V30 11 C 2.4268 0.306 -0.8042 0
M  V30 12 C 3.0765 0.6515 0.5471 0
M  V30 13 C 4.6101 0.7079 0.4661 0
M  V30 14 C 5.2384 -0.6745 0.2179 0
M  V30 15 C 6.7648 -0.6695 0.3955 0
M  V30 16 C 7.4848 0.1124 -0.7125 0
M  V30 17 C 8.9996 -0.0123 -0.5774 0
M  V30 18 H -9.6436 -1.1741 0.2237 0
M  V30 19 H -8.3611 -1.3765 1.323 0
M  V30 20 H -8.3498 -2.2046 -0.1746 0
M  V30 21 H -8.22 -0.1144 -1.3804 0
M  V30 22 H -8.2272 0.7567 0.1982 0
M  V30 23 H -6.1168 -0.4279 0.8596 0
M  V30 24 H -6.0988 -1.2875 -0.728 0
M  V30 25 H -5.9245 1.7779 -0.3045 0
M  V30 26 H -6.0299 0.9608 -1.899 0
M  V30 27 H -3.7207 1.4648 -1.5222 0
M  V30 28 H -3.91 -0.3145 -1.3759 0
M  V30 29 H -3.8784 1.6287 1.0338 0
M  V30 30 H -3.8091 -0.1637 1.1087 0
M  V30 31 H -1.6046 0.9982 1.48 0
M  V30 32 H -1.675 1.6559 -0.1888 0
M  V30 33 H -1.5828 -0.6445 -1.1438 0
M  V30 34 H -1.7618 -1.3629 0.4916 0
M  V30 35 H 0.5473 -1.5443 -0.1402 0
M  V30 36 H 0.4332 -0.3304 1.1774 0
M  V30 37 H 0.6656 1.5326 -0.4618 0
M  V30 38 H 0.5336 0.382 -1.8335 0
M  V30 39 H 2.6622 -0.7425 -1.0857 0
M  V30 40 H 2.8486 0.9704 -1.5899 0
M  V30 41 H 2.7767 -0.0908 1.3174 0
M  V30 42 H 2.7144 1.649 0.8795 0
M  V30 43 H 4.9086 1.4151 -0.3368 0
M  V30 44 H 4.9888 1.1112 1.4307 0
M  V30 45 H 4.8124 -1.4015 0.9435 0
M  V30 46 H 4.9891 -1.0309 -0.8043 0
M  V30 47 H 7.1151 -1.7248 0.3764 0
M  V30 48 H 7.0273 -0.2461 1.3899 0
M  V30 49 H 7.2158 1.1883 -0.656 0
M  V30 50 H 7.1804 -0.2771 -1.7081 0
M  V30 51 H 9.3091 -1.0754 -0.6661 0
M  V30 52 H 9.3332 0.3865 0.4042 0
M  V30 53 H 9.494 0.5691 -1.3837 0
M  V30 END ATOM
M  V30 BEGIN BOND
M  V30 1 1 1 2
M  V30 2 1 2 3
M  V30 3 1 3 4
M  V30 4 1 4 5
M  V30 5 1 5 6
M  V30 6 1 6 7
M  V30 7 1 7 8
M  V30 8 1 8 9
M  V30 9 1 9 10
M  V30 10 1 10 11
M  V30 11 1 11 12
M  V30 12 1 12 13
M  V30 13 1 13 14
M  V30 14 1 14 15
M  V30 15 1 15 16
M  V30 16 1 16 17
M  V30 17 1 1 18
M  V30 18 1 1 19
M  V30 19 1 1 20
M  V30 20 1 2 21
M  V30 21 1 2 22
M  V30 22 1 3 23
M  V30 23 1 3 24
M  V30 24 1 4 25
M  V30 25 1 4 26
M  V30 26 1 5 27
M  V30 27 1 5 28
M  V30 28 1 6 29
M  V30 29 1 6 30
M  V30 30 1 7 31
M  V30 31 1 7 32
M  V30 32 1 8 33
M  V30 33 1 8 34
M  V30 34 1 9 35
M  V30 35 1 9 36
M  V30 36 1 10 37
M  V30 37 1 10 38
M  V30 38 1 11 39
M  V30 39 1 11 40
M  V30 40 1 12 41
M  V30 41 1 12 42
M  V30 42 1 13 43
M  V30 43 1 13 44
M  V30 44 1 14 45
M  V30 45 1 14 46
M  V30 46 1 15 47
M  V30 47 1 15 48
M  V30 48 1 16 49
M  V30 49 1 16 50
M  V30 50 1 17 51
M  V30 51 1 17 52
M  V30 52 1 17 53
M  V30 END BOND
M  V30 END CTAB
M  END
>  <Structure No>
2596

>  <LogS>
-3.583510043

>  <MMFF94 Energy>
-1.9355

$$$$
Compound 2597
Actelion Java MolfileCreator 2.0

  0  0  0  0  0  0              0 V3000
M  V30 BEGIN CTAB
M  V30 COUNTS 59 58 0 0 0
M  V30 BEGIN ATOM
M  V30 1 N -6.4424 3.6441 -0.7744 0 CHG=1
M  V30 2 C -5.3296 2.7191 -0.9852 0
M  V30 3 C -5.8089 1.2603 -0.9178 0
M  V30 4 C -4.7255 0.2506 -1.3382 0
M  V30 5 C -3.4541 0.2564 -0.4696 0
M  V30 6 C -3.7241 -0.1479 0.9897 0
M  V30 7 C -2.4385 -0.2176 1.8301 0
M  V30 8 C -1.6051 -1.4742 1.5362 0
M  V30 9 C -0.3744 -1.5418 2.4525 0
M  V30 10 C 0.4101 -2.8588 2.3107 0
M  V30 11 C 0.9736 -3.1337 0.9044 0
M  V30 12 C 1.9417 -2.0436 0.4223 0
M  V30 13 C 2.6297 -2.4595 -0.8866 0
M  V30 14 C 3.466 -1.3258 -1.4998 0
M  V30 15 C 4.7024 -0.9786 -0.6529 0
M  V30 16 C 5.6748 -0.0321 -1.3788 0
M  V30 17 C 5.0802 1.3355 -1.7723 0
M  V30 18 C 4.4896 2.1476 -0.6062 0
M  V30 19 C 5.5237 2.4906 0.4649 0
M  V30 20 H -6.082 4.6248 -0.8035 0
M  V30 21 H -6.8804 3.4714 0.1592 0
M  V30 22 H -7.1571 3.5254 -1.5286 0
M  V30 23 H -4.5613 2.8987 -0.2022 0
M  V30 24 H -4.8713 2.9182 -1.9794 0
M  V30 25 H -6.1802 1.0294 0.1026 0
M  V30 26 H -6.6701 1.1357 -1.61 0
M  V30 27 H -4.4338 0.4585 -2.3908 0
M  V30 28 H -5.167 -0.7695 -1.3215 0
M  V30 29 H -2.9673 1.2531 -0.5058 0
M  V30 30 H -2.746 -0.4651 -0.9259 0
M  V30 31 H -4.2537 -1.1248 1.0256 0
M  V30 32 H -4.3835 0.6126 1.458 0
M  V30 33 H -1.8253 0.6944 1.659 0
M  V30 34 H -2.7313 -0.2285 2.9031 0
M  V30 35 H -1.2681 -1.4504 0.4805 0
M  V30 36 H -2.2321 -2.3791 1.6928 0
M  V30 37 H 0.2921 -0.6747 2.2585 0
M  V30 38 H -0.7083 -1.4634 3.5103 0
M  V30 39 H 1.2515 -2.8474 3.0374 0
M  V30 40 H -0.2526 -3.7042 2.5967 0
M  V30 41 H 1.5156 -4.104 0.9442 0
M  V30 42 H 0.1443 -3.2557 0.1758 0
M  V30 43 H 1.3806 -1.1005 0.2498 0
M  V30 44 H 2.7082 -1.868 1.207 0
M  V30 45 H 1.8513 -2.7485 -1.6266 0
M  V30 46 H 3.2734 -3.3488 -0.7097 0
M  V30 47 H 3.7988 -1.6515 -2.5094 0
M  V30 48 H 2.8242 -0.4278 -1.6274 0
M  V30 49 H 4.3967 -0.5296 0.3142 0
M  V30 50 H 5.2541 -1.9149 -0.4187 0
M  V30 51 H 6.0387 -0.5334 -2.302 0
M  V30 52 H 6.5666 0.1258 -0.736 0
M  V30 53 H 4.2918 1.1875 -2.5404 0
M  V30 54 H 5.8798 1.9373 -2.2569 0
M  V30 55 H 4.0873 3.0989 -1.0172 0
M  V30 56 H 3.6352 1.6085 -0.1456 0
M  V30 57 H 5.0752 3.1918 1.199 0
M  V30 58 H 6.4113 2.9765 0.0072 0
M  V30 59 H 5.8403 1.5776 1.0096 0
M  V30 END ATOM
M  V30 BEGIN BOND
M  V30 1 1 1 2
M  V30 2 1 2 3
M  V30 3 1 3 4
M  V30 4 1 4 5
M  V30 5 1 5 6
M  V30 6 1 6 7
M  V30 7 1 7 8
M  V30 8 1 8 9
M  V30 9 1 9 10
M  V30 10 1 10 11
M  V30 11 1 11 12
M  V30 12 1 12 13
M  V30 13 1 13 14
M  V30 14 1 14 15
M  V30 15 1 15 16
M  V30 16 1 16 17
M  V30 17 1 17 18
M  V30 18 1 18 19
M  V30 19 1 1 20
M  V30 20 1 1 21
M  V30 21 1 1 22
M  V30 22 1 2 23
M  V30 23 1 2 24
M  V30 24 1 3 25
M  V30 25 1 3 26
M  V30 26 1 4 27
M  V30 27 1 4 28
M  V30 28 1 5 29
M  V30 29 1 5 30
M  V30 30 1 6 31
M  V30 31 1 6 32
M  V30 32 1 7 33
M  V30 33 1 7 34
M  V30 34 1 8 35
M  V30 35 1 8 36
M  V30 36 1 9 37
M  V30 37 1 9 38
M  V30 38 1 10 39
M  V30 39 1 10 40
M  V30 40 1 11 41
M  V30 41 1 11 42
M  V30 42 1 12 43
M  V30 43 1 12 44
M  V30 44 1 13 45
M  V30 45 1 13 46
M  V30 46 1 14 47
M  V30 47 1 14 48
M  V30 48 1 15 49
M  V30 49 1 15 50
M  V30 50 1 16 51
M  V30 51 1 16 52
M  V30 52 1 17 53
M  V30 53 1 17 54
M  V30 54 1 18 55
M  V30 55 1 18 56
M  V30 56 1 19 57
M  V30 57 1 19 58
M  V30 58 1 19 59
M  V30 END BOND
M  V30 END CTAB
M  END
>  <Structure No>
2597

>  <LogS>
-3.631245614

>  <MMFF94 Energy>
-0.38419

$$$$
Compound 2598
Actelion Java MolfileCreator 2.0

  0  0  0  0  0  0              0 V3000
M  V30 BEGIN CTAB
M  V30 COUNTS 16 16 0 0 0
M  V30 BEGIN ATOM
M  V30 1 O -2.7033 1.3919 -0.8186 0
M  V30 2 N -2.4128 0.4571 -0.0442 0 CHG=1
M  V30 3 O -3.4314 -0.1906 0.6169 0 CHG=-1
M  V30 4 C -1.0613 -0.0374 0.0497 0
M  V30 5 C 0.0657 0.7975 -0.1734 0
M  V30 6 C -0.8536 -1.388 0.3811 0
M  V30 7 C -0.0987 2.2098 -0.4476 0
M  V30 8 C 1.3675 0.2541 -0.0816 0
M  V30 9 C 0.4354 -1.912 0.4702 0
M  V30 10 N -0.227 3.3392 -0.6661 0
M  V30 11 C 2.5415 1.0674 -0.3025 0
M  V30 12 C 1.5408 -1.0973 0.2365 0
M  V30 13 N 3.4817 1.7186 -0.4795 0
M  V30 14 H -1.6951 -2.046 0.5569 0
M  V30 15 H 0.5776 -2.9558 0.719 0
M  V30 16 H 2.5355 -1.5215 0.3093 0
M  V30 END ATOM
M  V30 BEGIN BOND
M  V30 1 2 1 2
M  V30 2 1 2 3
M  V30 3 1 2 4
M  V30 4 2 4 5
M  V30 5 1 4 6
M  V30 6 1 5 7
M  V30 7 1 5 8
M  V30 8 2 6 9
M  V30 9 3 7 10
M  V30 10 1 8 11
M  V30 11 2 8 12
M  V30 12 3 11 13
M  V30 13 1 9 12
M  V30 14 1 6 14
M  V30 15 1 9 15
M  V30 16 1 12 16
M  V30 END BOND
M  V30 END CTAB
M  END
>  <Structure No>
2598

>  <LogS>
-2.937344842

>  <MMFF94 Energy>
24.986

$$$$
Compound 2599
Actelion Java MolfileCreator 2.0

  0  0  0  0  0  0              0 V3000
M  V30 BEGIN CTAB
M  V30 COUNTS 24 25 0 0 0
M  V30 BEGIN ATOM
M  V30 1 Cl -3.0839 0.7297 2.028 0
M  V30 2 C -3.5382 0.4103 0.3337 0
M  V30 3 C -2.7074 -0.7288 -0.2632 0
M  V30 4 N -1.2839 -0.3474 -0.3881 0
M  V30 5 C -0.8782 0.4304 -1.4453 0
M  V30 6 C -0.3691 -0.7468 0.5564 0
M  V30 7 O -1.7085 0.8074 -2.3183 0
M  V30 8 N 0.423 0.8065 -1.5691 0
M  V30 9 O -0.7328 -1.4593 1.5342 0
M  V30 10 C 0.9783 -0.3651 0.442 0
M  V30 11 C 1.3568 0.4303 -0.6563 0
M  V30 12 C 1.9494 -0.7512 1.3863 0
M  V30 13 C 2.6954 0.83 -0.8006 0
M  V30 14 C 3.2786 -0.3476 1.2323 0
M  V30 15 C 3.6507 0.4409 0.1416 0
M  V30 16 H -4.6127 0.1314 0.3077 0
M  V30 17 H -3.4058 1.3393 -0.2592 0
M  V30 18 H -3.119 -0.9895 -1.2629 0
M  V30 19 H -2.8346 -1.6437 0.355 0
M  V30 20 H 0.7022 1.3984 -2.3856 0
M  V30 21 H 1.6856 -1.3623 2.2408 0
M  V30 22 H 2.9986 1.4418 -1.6411 0
M  V30 23 H 4.0216 -0.6466 1.9604 0
M  V30 24 H 4.681 0.7514 0.0262 0
M  V30 END ATOM
M  V30 BEGIN BOND
M  V30 1 1 1 2
M  V30 2 1 2 3
M  V30 3 1 3 4
M  V30 4 1 4 5
M  V30 5 1 4 6
M  V30 6 2 5 7
M  V30 7 1 5 8
M  V30 8 2 6 9
M  V30 9 1 6 10
M  V30 10 1 8 11
M  V30 11 1 10 12
M  V30 12 1 11 13
M  V30 13 2 12 14
M  V30 14 2 13 15
M  V30 15 2 10 11
M  V30 16 1 14 15
M  V30 17 1 2 16
M  V30 18 1 2 17
M  V30 19 1 3 18
M  V30 20 1 3 19
M  V30 21 1 8 20
M  V30 22 1 12 21
M  V30 23 1 13 22
M  V30 24 1 14 23
M  V30 25 1 15 24
M  V30 END BOND
M  V30 END CTAB
M  END
>  <Structure No>
2599

>  <LogS>
-3.574799439

>  <MMFF94 Energy>
-54.487

$$$$
Compound 2600
Actelion Java MolfileCreator 2.0

  0  0  0  0  0  0              0 V3000
M  V30 BEGIN CTAB
M  V30 COUNTS 34 34 0 0 0
M  V30 BEGIN ATOM
M  V30 1 O 2.2082 -0.6305 1.6558 0
M  V30 2 C 1.6655 -0.9855 0.5744 0
M  V30 3 C 0.1876 -1.0115 0.4884 0
M  V30 4 C 2.5426 -1.3682 -0.5911 0
M  V30 5 C -0.4612 -1.9465 -0.2194 0
M  V30 6 C -0.6344 -0.0213 1.2786 0
M  V30 7 C 3.5679 -0.2766 -0.9313 0
M  V30 8 C -1.9611 -1.9514 -0.2359 0
M  V30 9 C -1.8042 0.5633 0.424 0
M  V30 10 C 2.9172 0.9415 -1.5324 0
M  V30 11 C -2.4904 -0.5299 -0.4792 0
M  V30 12 C -2.8487 1.1768 1.3794 0
M  V30 13 C -1.2502 1.691 -0.4756 0
M  V30 14 C 2.3723 1.8992 -0.7762 0
M  V30 15 H 3.0842 -2.3014 -0.3269 0
M  V30 16 H 1.9381 -1.5771 -1.4995 0
M  V30 17 H 0.0718 -2.705 -0.7778 0
M  V30 18 H -1.038 -0.5566 2.1666 0
M  V30 19 H 0.0065 0.801 1.6668 0
M  V30 20 H 4.2759 -0.6917 -1.6804 0
M  V30 21 H 4.1673 6.0E-4 -0.0364 0
M  V30 22 H -2.335 -2.3217 0.7432 0
M  V30 23 H -2.3285 -2.6366 -1.0296 0
M  V30 24 H 2.9149 1.0567 -2.6122 0
M  V30 25 H -3.5932 -0.5421 -0.3342 0
M  V30 26 H -2.3363 -0.3026 -1.558 0
M  V30 27 H -3.6695 1.6602 0.8066 0
M  V30 28 H -2.3806 1.9443 2.0336 0
M  V30 29 H -3.2933 0.3898 2.0263 0
M  V30 30 H -0.4845 1.2899 -1.1737 0
M  V30 31 H -2.0655 2.1465 -1.0786 0
M  V30 32 H -0.7809 2.4934 0.1339 0
M  V30 33 H 1.9199 2.7676 -1.2437 0
M  V30 34 H 2.3737 1.8289 0.3067 0
M  V30 END ATOM
M  V30 BEGIN BOND
M  V30 1 2 1 2
M  V30 2 1 2 3
M  V30 3 1 2 4
M  V30 4 2 3 5
M  V30 5 1 3 6
M  V30 6 1 4 7
M  V30 7 1 5 8
M  V30 8 1 6 9
M  V30 9 1 7 10
M  V30 10 1 8 11
M  V30 11 1 9 12
M  V30 12 1 9 13
M  V30 13 2 10 14
M  V30 14 1 9 11
M  V30 15 1 4 15
M  V30 16 1 4 16
M  V30 17 1 5 17
M  V30 18 1 6 18
M  V30 19 1 6 19
M  V30 20 1 7 20
M  V30 21 1 7 21
M  V30 22 1 8 22
M  V30 23 1 8 23
M  V30 24 1 10 24
M  V30 25 1 11 25
M  V30 26 1 11 26
M  V30 27 1 12 27
M  V30 28 1 12 28
M  V30 29 1 12 29
M  V30 30 1 13 30
M  V30 31 1 13 31
M  V30 32 1 13 32
M  V30 33 1 14 33
M  V30 34 1 14 34
M  V30 END BOND
M  V30 END CTAB
M  END
>  <Structure No>
2600

>  <LogS>
-3.534247486

>  <MMFF94 Energy>
31.497

$$$$
Compound 2601
Actelion Java MolfileCreator 2.0

  0  0  0  0  0  0              0 V3000
M  V30 BEGIN CTAB
M  V30 COUNTS 47 46 0 0 0
M  V30 BEGIN ATOM
M  V30 1 O 4.4557 -0.7025 2.4995 0
M  V30 2 C 5.501 -1.1912 1.9875 0
M  V30 3 O 5.4508 -1.8321 0.7447 0
M  V30 4 C 6.7909 -1.1042 2.6893 0
M  V30 5 C 4.2638 -1.9314 -0.0396 0
M  V30 6 C 6.924 -0.5123 3.8749 0
M  V30 7 C 3.9575 -0.5975 -0.7242 0
M  V30 8 O 2.8484 -0.7372 -1.5921 0
M  V30 9 C 1.6599 -0.3285 -0.9467 0
M  V30 10 C 0.4685 -0.6418 -1.847 0
M  V30 11 O -0.7397 -0.3205 -1.1835 0
M  V30 12 C -1.2274 0.9363 -1.6073 0
M  V30 13 C -2.4921 1.3127 -0.8007 0 CFG=2
M  V30 14 C -3.741 0.5204 -1.2825 0
M  V30 15 C -2.7391 2.8391 -0.9141 0
M  V30 16 C -3.6656 -1.0123 -1.1267 0
M  V30 17 C -3.7825 3.3601 0.0777 0
M  V30 18 C -3.4259 -1.5093 0.3105 0
M  V30 19 C -4.5262 -1.082 1.2813 0
M  V30 20 H 7.6648 -1.5388 2.2206 0
M  V30 21 H 3.4115 -2.2547 0.5959 0
M  V30 22 H 4.422 -2.7066 -0.8189 0
M  V30 23 H 6.0793 -0.0632 4.382 0
M  V30 24 H 7.8948 -0.4732 4.3518 0
M  V30 25 H 4.8374 -0.3142 -1.3397 0
M  V30 26 H 3.8314 0.2127 0.0321 0
M  V30 27 H 1.6868 0.7677 -0.7563 0
M  V30 28 H 1.5208 -0.867 0.0185 0
M  V30 29 H 0.5911 -0.1351 -2.8341 0
M  V30 30 H 0.4633 -1.7334 -2.0521 0
M  V30 31 H -0.4427 1.7102 -1.4447 0
M  V30 32 H -1.4784 0.9144 -2.6926 0
M  V30 33 H -2.2983 1.0897 0.2705 0
M  V30 34 H -4.644 0.8655 -0.7407 0
M  V30 35 H -3.9199 0.7477 -2.3562 0
M  V30 36 H -1.7935 3.3842 -0.7007 0
M  V30 37 H -3.0496 3.1024 -1.9489 0
M  V30 38 H -4.6234 -1.4435 -1.4917 0
M  V30 39 H -2.8773 -1.4204 -1.7925 0
M  V30 40 H -4.8046 3.045 -0.2151 0
M  V30 41 H -3.7624 4.4704 0.0834 0
M  V30 42 H -3.5613 3.0003 1.1049 0
M  V30 43 H -3.3935 -2.62 0.2896 0
M  V30 44 H -2.4414 -1.1661 0.6891 0
M  V30 45 H -4.4894 0.0135 1.4565 0
M  V30 46 H -4.3764 -1.5915 2.2563 0
M  V30 47 H -5.5252 -1.3622 0.885 0
M  V30 END ATOM
M  V30 BEGIN BOND
M  V30 1 2 1 2
M  V30 2 1 2 3
M  V30 3 1 2 4
M  V30 4 1 3 5
M  V30 5 2 4 6
M  V30 6 1 5 7
M  V30 7 1 7 8
M  V30 8 1 8 9
M  V30 9 1 9 10
M  V30 10 1 10 11
M  V30 11 1 11 12
M  V30 12 1 12 13
M  V30 13 1 13 14
M  V30 14 1 13 15
M  V30 15 1 14 16
M  V30 16 1 15 17
M  V30 17 1 16 18
M  V30 18 1 18 19
M  V30 19 1 4 20
M  V30 20 1 5 21
M  V30 21 1 5 22
M  V30 22 1 6 23
M  V30 23 1 6 24
M  V30 24 1 7 25
M  V30 25 1 7 26
M  V30 26 1 9 27
M  V30 27 1 9 28
M  V30 28 1 10 29
M  V30 29 1 10 30
M  V30 30 1 12 31
M  V30 31 1 12 32
M  V30 32 1 13 33
M  V30 33 1 14 34
M  V30 34 1 14 35
M  V30 35 1 15 36
M  V30 36 1 15 37
M  V30 37 1 16 38
M  V30 38 1 16 39
M  V30 39 1 17 40
M  V30 40 1 17 41
M  V30 41 1 17 42
M  V30 42 1 18 43
M  V30 43 1 18 44
M  V30 44 1 19 45
M  V30 45 1 19 46
M  V30 46 1 19 47
M  V30 END BOND
M  V30 BEGIN COLLECTION
M  V30 MDLV30/STEABS ATOMS=(1 13)
M  V30 END COLLECTION
M  V30 END CTAB
M  END
>  <Structure No>
2601

>  <LogS>
-3.994274106

>  <MMFF94 Energy>
43.643

$$$$
Compound 2602
Actelion Java MolfileCreator 2.0

  0  0  0  0  0  0              0 V3000
M  V30 BEGIN CTAB
M  V30 COUNTS 40 40 0 0 0
M  V30 BEGIN ATOM
M  V30 1 O -4.2716 -0.3159 -1.027 0
M  V30 2 C -3.0723 -0.1292 -0.8876 0
M  V30 3 C -2.5981 1.1928 -0.345 0
M  V30 4 C -2.107 -1.1998 -1.3144 0
M  V30 5 C -1.0595 1.2606 -0.1206 0
M  V30 6 C -0.9082 -1.4 -0.3293 0
M  V30 7 C -0.594 -0.0982 0.5253 0
M  V30 8 C -0.7841 2.4294 0.8599 0
M  V30 9 C -0.3492 1.6067 -1.4552 0
M  V30 10 C 0.3135 -1.8758 -1.1586 0
M  V30 11 C -1.2711 -2.5504 0.644 0
M  V30 12 C 0.8351 -0.0658 1.0681 0
M  V30 13 O 1.879 0.2723 0.1908 0
M  V30 14 C 1.0732 -0.3764 2.3528 0
M  V30 15 C 3.2601 0.3345 0.5372 0
M  V30 16 C 4.0672 0.7346 -0.6867 0
M  V30 17 H -2.9342 2.0073 -1.0234 0
M  V30 18 H -3.1222 1.3451 0.625 0
M  V30 19 H -1.7564 -0.9384 -2.3339 0
M  V30 20 H -2.6601 -2.1559 -1.4547 0
M  V30 21 H -1.2574 -0.1692 1.4204 0
M  V30 22 H 0.3067 2.5934 0.9934 0
M  V30 23 H -1.2238 3.3757 0.4759 0
M  V30 24 H -1.2265 2.2242 1.8587 0
M  V30 25 H -0.749 2.5599 -1.8638 0
M  V30 26 H -0.4985 0.842 -2.2343 0
M  V30 27 H 0.7387 1.7569 -1.3173 0
M  V30 28 H 0.0331 -2.7336 -1.8081 0
M  V30 29 H 1.1401 -2.2203 -0.5009 0
M  V30 30 H 0.7001 -1.0681 -1.8116 0
M  V30 31 H -0.4561 -2.7169 1.3804 0
M  V30 32 H -2.2038 -2.314 1.2009 0
M  V30 33 H -1.4334 -3.5033 0.0944 0
M  V30 34 H 2.0714 -0.3701 2.7664 0
M  V30 35 H 0.2673 -0.6491 3.0224 0
M  V30 36 H 3.4143 1.09 1.3378 0
M  V30 37 H 3.6051 -0.6612 0.8904 0
M  V30 38 H 3.9246 -0.0133 -1.4952 0
M  V30 39 H 5.1452 0.7847 -0.4258 0
M  V30 40 H 3.736 1.7309 -1.0496 0
M  V30 END ATOM
M  V30 BEGIN BOND
M  V30 1 2 1 2
M  V30 2 1 2 3
M  V30 3 1 2 4
M  V30 4 1 3 5
M  V30 5 1 4 6
M  V30 6 1 5 7
M  V30 7 1 5 8
M  V30 8 1 5 9
M  V30 9 1 6 10
M  V30 10 1 6 11
M  V30 11 1 7 12
M  V30 12 1 12 13
M  V30 13 2 12 14
M  V30 14 1 13 15
M  V30 15 1 15 16
M  V30 16 1 6 7
M  V30 17 1 3 17
M  V30 18 1 3 18
M  V30 19 1 4 19
M  V30 20 1 4 20
M  V30 21 1 7 21
M  V30 22 1 8 22
M  V30 23 1 8 23
M  V30 24 1 8 24
M  V30 25 1 9 25
M  V30 26 1 9 26
M  V30 27 1 9 27
M  V30 28 1 10 28
M  V30 29 1 10 29
M  V30 30 1 10 30
M  V30 31 1 11 31
M  V30 32 1 11 32
M  V30 33 1 11 33
M  V30 34 1 14 34
M  V30 35 1 14 35
M  V30 36 1 15 36
M  V30 37 1 15 37
M  V30 38 1 16 38
M  V30 39 1 16 39
M  V30 40 1 16 40
M  V30 END BOND
M  V30 END CTAB
M  END
>  <Structure No>
2602

>  <LogS>
-3.643344283

>  <MMFF94 Energy>
44.949

$$$$
Compound 2603
Actelion Java MolfileCreator 2.0

  0  0  0  0  0  0              0 V3000
M  V30 BEGIN CTAB
M  V30 COUNTS 26 25 0 0 0
M  V30 BEGIN ATOM
M  V30 1 O 2.6976 0.8472 2.0034 0
M  V30 2 C 2.8919 0.2419 0.9157 0
M  V30 3 N 4.1591 0.343 0.2665 0
M  V30 4 C 1.7765 -0.5427 0.2903 0
M  V30 5 C 0.8887 0.3611 -0.5899 0 CFG=1
M  V30 6 O 1.6499 0.9599 -1.6099 0
M  V30 7 C -0.2932 -0.4166 -1.205 0
M  V30 8 C -1.2952 -0.8478 -0.155 0
M  V30 9 N -2.2921 -0.1181 0.2549 0 CHG=1
M  V30 10 C -3.1457 -0.6432 1.3097 0
M  V30 11 C -2.5853 1.1857 -0.3283 0
M  V30 12 H 4.3309 -0.1351 -0.6455 0
M  V30 13 H 4.9285 0.902 0.6975 0
M  V30 14 H 2.1993 -1.3725 -0.3164 0
M  V30 15 H 1.1672 -0.9982 1.1005 0
M  V30 16 H 0.4856 1.1765 0.048 0
M  V30 17 H 2.0121 0.232 -2.1802 0
M  V30 18 H 0.0938 -1.326 -1.7141 0
M  V30 19 H -0.7816 0.1925 -1.9935 0
M  V30 20 H -1.1292 -1.8277 0.2891 0
M  V30 21 H -3.6037 -1.6024 0.9846 0
M  V30 22 H -3.9691 0.0551 1.5686 0
M  V30 23 H -2.5459 -0.8191 2.2288 0
M  V30 24 H -3.4443 1.6791 0.1729 0
M  V30 25 H -2.85 1.0725 -1.4009 0
M  V30 26 H -1.7144 1.8644 -0.2247 0
M  V30 END ATOM
M  V30 BEGIN BOND
M  V30 1 2 1 2
M  V30 2 1 2 3
M  V30 3 1 2 4
M  V30 4 1 4 5
M  V30 5 1 5 6
M  V30 6 1 5 7
M  V30 7 1 7 8
M  V30 8 2 8 9
M  V30 9 1 9 10
M  V30 10 1 9 11
M  V30 11 1 3 12
M  V30 12 1 3 13
M  V30 13 1 4 14
M  V30 14 1 4 15
M  V30 15 1 5 16
M  V30 16 1 6 17
M  V30 17 1 7 18
M  V30 18 1 7 19
M  V30 19 1 8 20
M  V30 20 1 10 21
M  V30 21 1 10 22
M  V30 22 1 10 23
M  V30 23 1 11 24
M  V30 24 1 11 25
M  V30 25 1 11 26
M  V30 END BOND
M  V30 BEGIN COLLECTION
M  V30 MDLV30/STEABS ATOMS=(1 5)
M  V30 END COLLECTION
M  V30 END CTAB
M  END
>  <Structure No>
2603

>  <LogS>
0.593129503

>  <MMFF94 Energy>
-12.424

$$$$
Compound 2604
Actelion Java MolfileCreator 2.0

  0  0  0  0  0  0              0 V3000
M  V30 BEGIN CTAB
M  V30 COUNTS 14 14 0 0 0
M  V30 BEGIN ATOM
M  V30 1 Cl -1.8038 2.8356 -0.5151 0
M  V30 2 C -1.0581 1.2816 -0.1886 0
M  V30 3 C -1.8494 0.1948 0.1935 0
M  V30 4 C 0.3276 1.1313 -0.3109 0
M  V30 5 C -1.2571 -1.0438 0.4541 0
M  V30 6 C 0.9358 -0.1102 -0.0514 0
M  V30 7 Cl -2.2523 -2.4066 0.9337 0
M  V30 8 C 0.1281 -1.1975 0.3328 0
M  V30 9 N 2.3615 -0.2627 -0.1778 0 CHG=1
M  V30 10 O 2.9073 -1.3621 0.051 0
M  V30 11 O 3.1481 0.802 -0.5535 0 CHG=-1
M  V30 12 H -2.9216 0.3127 0.2878 0
M  V30 13 H 0.9251 1.9836 -0.6079 0
M  V30 14 H 0.5706 -2.1639 0.5383 0
M  V30 END ATOM
M  V30 BEGIN BOND
M  V30 1 1 1 2
M  V30 2 2 2 3
M  V30 3 1 2 4
M  V30 4 1 3 5
M  V30 5 2 4 6
M  V30 6 1 5 7
M  V30 7 2 5 8
M  V30 8 1 6 9
M  V30 9 2 9 10
M  V30 10 1 9 11
M  V30 11 1 6 8
M  V30 12 1 3 12
M  V30 13 1 4 13
M  V30 14 1 8 14
M  V30 END BOND
M  V30 END CTAB
M  END
>  <Structure No>
2604

>  <LogS>
-3.584333486

>  <MMFF94 Energy>
17.494

$$$$
Compound 2605
Actelion Java MolfileCreator 2.0

  0  0  0  0  0  0              0 V3000
M  V30 BEGIN CTAB
M  V30 COUNTS 19 19 0 0 0
M  V30 BEGIN ATOM
M  V30 1 S -2.0304 1.9491 0.893 0
M  V30 2 C -0.9017 0.8303 -4.0E-4 0
M  V30 3 C 0.5546 1.1288 0.3918 0
M  V30 4 C -1.263 -0.6284 0.3188 0
M  V30 5 C 1.5198 0.1579 -0.3 0
M  V30 6 C -0.2971 -1.598 -0.3737 0
M  V30 7 C 1.1557 -1.2981 0.0147 0
M  V30 8 H -1.5638 3.0921 0.2157 0
M  V30 9 H -1.0325 1.0069 -1.091 0
M  V30 10 H 0.675 1.0454 1.4947 0
M  V30 11 H 0.8151 2.1678 0.0951 0
M  V30 12 H -2.2977 -0.8388 -0.0288 0
M  V30 13 H -1.2284 -0.7963 1.4182 0
M  V30 14 H 2.5556 0.3602 0.0477 0
M  V30 15 H 1.4895 0.3212 -1.3997 0
M  V30 16 H -0.5482 -2.6394 -0.0785 0
M  V30 17 H -0.4134 -1.5171 -1.4769 0
M  V30 18 H 1.8332 -1.9756 -0.548 0
M  V30 19 H 1.3001 -1.4932 1.1002 0
M  V30 END ATOM
M  V30 BEGIN BOND
M  V30 1 1 1 2
M  V30 2 1 2 3
M  V30 3 1 2 4
M  V30 4 1 3 5
M  V30 5 1 4 6
M  V30 6 1 5 7
M  V30 7 1 6 7
M  V30 8 1 1 8
M  V30 9 1 2 9
M  V30 10 1 3 10
M  V30 11 1 3 11
M  V30 12 1 4 12
M  V30 13 1 4 13
M  V30 14 1 5 14
M  V30 15 1 5 15
M  V30 16 1 6 16
M  V30 17 1 6 17
M  V30 18 1 7 18
M  V30 19 1 7 19
M  V30 END BOND
M  V30 END CTAB
M  END
>  <Structure No>
2605

>  <LogS>
-3.367213956

>  <MMFF94 Energy>
3.9826

$$$$
Compound 2606
Actelion Java MolfileCreator 2.0

  0  0  0  0  0  0              0 V3000
M  V30 BEGIN CTAB
M  V30 COUNTS 40 41 0 0 0
M  V30 BEGIN ATOM
M  V30 1 O -0.5515 1.5765 1.4188 0
M  V30 2 C -0.1436 1.0139 0.3667 0
M  V30 3 N -1.0256 0.1801 -0.3972 0
M  V30 4 C 1.2841 1.1908 -0.0555 0
M  V30 5 C -2.4117 0.0232 -0.0575 0
M  V30 6 N 2.1869 0.4441 0.8477 0
M  V30 7 C -2.8811 -1.2232 0.4136 0
M  V30 8 C -3.3165 1.0999 -0.2163 0
M  V30 9 C 2.1492 -1.0202 0.6334 0
M  V30 10 C 3.5731 0.9534 0.8057 0
M  V30 11 C -4.2333 -1.3678 0.7615 0
M  V30 12 C -1.9379 -2.3817 0.5923 0
M  V30 13 C -4.6601 0.9328 0.1529 0
M  V30 14 C -2.8639 2.4331 -0.7488 0
M  V30 15 C 2.9189 -1.4556 -0.6272 0
M  V30 16 C 4.3054 0.5235 -0.4749 0
M  V30 17 C -5.114 -0.294 0.6357 0
M  V30 18 N 4.2929 -0.9377 -0.6138 0 CHG=1
M  V30 19 H -0.6264 -0.4242 -1.1499 0
M  V30 20 H 1.5033 2.2804 -0.0106 0
M  V30 21 H 1.4133 0.883 -1.1137 0
M  V30 22 H 2.599 -1.522 1.5179 0
M  V30 23 H 1.1024 -1.3836 0.569 0
M  V30 24 H 3.5894 2.062 0.8926 0
M  V30 25 H 4.1273 0.5635 1.6875 0
M  V30 26 H -4.6077 -2.3116 1.1387 0
M  V30 27 H -2.4714 -3.297 0.9265 0
M  V30 28 H -1.4325 -2.6117 -0.3688 0
M  V30 29 H -1.1749 -2.1249 1.3566 0
M  V30 30 H -5.3618 1.7528 0.0594 0
M  V30 31 H -2.4427 3.0418 0.0778 0
M  V30 32 H -2.0946 2.3013 -1.5385 0
M  V30 33 H -3.7128 2.9889 -1.2013 0
M  V30 34 H 2.946 -2.567 -0.6614 0
M  V30 35 H 2.3896 -1.1182 -1.5445 0
M  V30 36 H 5.3576 0.8803 -0.4243 0
M  V30 37 H 3.8359 0.9996 -1.3643 0
M  V30 38 H -6.1538 -0.4136 0.9122 0
M  V30 39 H 4.7614 -1.1967 -1.513 0
M  V30 40 H 4.8273 -1.3733 0.1748 0
M  V30 END ATOM
M  V30 BEGIN BOND
M  V30 1 2 1 2
M  V30 2 1 2 3
M  V30 3 1 2 4
M  V30 4 1 3 5
M  V30 5 1 4 6
M  V30 6 2 5 7
M  V30 7 1 5 8
M  V30 8 1 6 9
M  V30 9 1 6 10
M  V30 10 1 7 11
M  V30 11 1 7 12
M  V30 12 2 8 13
M  V30 13 1 8 14
M  V30 14 1 9 15
M  V30 15 1 10 16
M  V30 16 2 11 17
M  V30 17 1 15 18
M  V30 18 1 13 17
M  V30 19 1 16 18
M  V30 20 1 3 19
M  V30 21 1 4 20
M  V30 22 1 4 21
M  V30 23 1 9 22
M  V30 24 1 9 23
M  V30 25 1 10 24
M  V30 26 1 10 25
M  V30 27 1 11 26
M  V30 28 1 12 27
M  V30 29 1 12 28
M  V30 30 1 12 29
M  V30 31 1 13 30
M  V30 32 1 14 31
M  V30 33 1 14 32
M  V30 34 1 14 33
M  V30 35 1 15 34
M  V30 36 1 15 35
M  V30 37 1 16 36
M  V30 38 1 16 37
M  V30 39 1 17 38
M  V30 40 1 18 39
M  V30 41 1 18 40
M  V30 END BOND
M  V30 END CTAB
M  END
>  <Structure No>
2606

>  <LogS>
0.443282789

>  <MMFF94 Energy>
133.47

$$$$
Compound 2607
Actelion Java MolfileCreator 2.0

  0  0  0  0  0  0              0 V3000
M  V30 BEGIN CTAB
M  V30 COUNTS 5 4 0 0 0
M  V30 BEGIN ATOM
M  V30 1 O -0.3946 1.2631 0.3156 0
M  V30 2 C -0.4031 0.0741 -0.0979 0
M  V30 3 O 0.7617 -0.5059 -0.5871 0
M  V30 4 O -1.5802 -0.6605 -0.0657 0 CHG=-1
M  V30 5 H 1.629 0.0166 -0.6174 0
M  V30 END ATOM
M  V30 BEGIN BOND
M  V30 1 2 1 2
M  V30 2 1 2 3
M  V30 3 1 2 4
M  V30 4 1 3 5
M  V30 END BOND
M  V30 END CTAB
M  END
>  <Structure No>
2607

>  <LogS>
0.050861362

>  <MMFF94 Energy>
-89.96

$$$$
Compound 2608
Actelion Java MolfileCreator 2.0

  0  0  0  0  0  0              0 V3000
M  V30 BEGIN CTAB
M  V30 COUNTS 14 14 0 0 0
M  V30 BEGIN ATOM
M  V30 1 Cl 3.9397 -1.6104 0.1788 0
M  V30 2 C 2.3791 -0.8466 -0.0386 0
M  V30 3 S 0.9156 -1.6633 -0.1739 0
M  V30 4 C 2.1521 0.5201 -0.1213 0
M  V30 5 C -0.019 -0.2759 -0.3451 0
M  V30 6 C 0.801 0.8424 -0.2919 0
M  V30 7 S -1.763 -0.2512 -0.5263 0
M  V30 8 O -2.2407 -1.6022 -0.9785 0
M  V30 9 O -2.1449 0.7715 -1.5586 0
M  V30 10 N -2.5019 0.1431 0.9855 0
M  V30 11 H 2.9375 1.2615 -0.0578 0
M  V30 12 H 0.4358 1.8579 -0.3707 0
M  V30 13 H -2.1659 -0.5593 1.6816 0
M  V30 14 H -2.1167 1.068 1.2814 0
M  V30 END ATOM
M  V30 BEGIN BOND
M  V30 1 1 1 2
M  V30 2 1 2 3
M  V30 3 2 2 4
M  V30 4 1 3 5
M  V30 5 1 4 6
M  V30 6 1 5 7
M  V30 7 2 7 8
M  V30 8 2 7 9
M  V30 9 1 7 10
M  V30 10 2 5 6
M  V30 11 1 4 11
M  V30 12 1 6 12
M  V30 13 1 10 13
M  V30 14 1 10 14
M  V30 END BOND
M  V30 END CTAB
M  END
>  <Structure No>
2608

>  <LogS>
-3.295936368

>  <MMFF94 Energy>
-67.372

$$$$
Compound 2609
Actelion Java MolfileCreator 2.0

  0  0  0  0  0  0              0 V3000
M  V30 BEGIN CTAB
M  V30 COUNTS 29 29 0 0 0
M  V30 BEGIN ATOM
M  V30 1 F 4.9901 -0.8699 0.1581 0
M  V30 2 C 3.6633 -0.5905 0.1694 0
M  V30 3 C 2.9433 -0.6636 1.3663 0
M  V30 4 C 3.0158 -0.2227 -1.0144 0
M  V30 5 C 1.5753 -0.3743 1.3794 0
M  V30 6 C 1.6478 0.0666 -1.0037 0
M  V30 7 C 0.9185 -0.0209 0.1914 0
M  V30 8 N -0.4853 0.2939 0.2088 0
M  V30 9 C -0.8619 1.684 0.3518 0
M  V30 10 C -1.4804 -0.7651 -0.0705 0
M  V30 11 O 0.0114 2.5306 0.6907 0
M  V30 12 C -2.2783 2.1527 0.1341 0
M  V30 13 C -1.5272 -1.0777 -1.5695 0
M  V30 14 C -1.1979 -2.0368 0.7415 0
M  V30 15 O -2.339 3.5516 0.0444 0
M  V30 16 H 3.4449 -0.9412 2.2845 0
M  V30 17 H 3.5737 -0.1583 -1.9396 0
M  V30 18 H 1.0254 -0.4252 2.3106 0
M  V30 19 H 1.1555 0.3613 -1.9217 0
M  V30 20 H -2.4926 -0.4301 0.2379 0
M  V30 21 H -2.9257 1.7902 0.9644 0
M  V30 22 H -2.6621 1.7321 -0.8178 0
M  V30 23 H -1.6939 -0.1457 -2.1493 0
M  V30 24 H -0.5767 -1.543 -1.9055 0
M  V30 25 H -2.3611 -1.779 -1.7863 0
M  V30 26 H -1.1459 -1.7905 1.8233 0
M  V30 27 H -0.2414 -2.5075 0.4294 0
M  V30 28 H -2.0162 -2.7731 0.5919 0
M  V30 29 H -2.3227 3.8988 0.9748 0
M  V30 END ATOM
M  V30 BEGIN BOND
M  V30 1 1 1 2
M  V30 2 2 2 3
M  V30 3 1 2 4
M  V30 4 1 3 5
M  V30 5 2 4 6
M  V30 6 2 5 7
M  V30 7 1 7 8
M  V30 8 1 8 9
M  V30 9 1 8 10
M  V30 10 2 9 11
M  V30 11 1 9 12
M  V30 12 1 10 13
M  V30 13 1 10 14
M  V30 14 1 12 15
M  V30 15 1 6 7
M  V30 16 1 3 16
M  V30 17 1 4 17
M  V30 18 1 5 18
M  V30 19 1 6 19
M  V30 20 1 10 20
M  V30 21 1 12 21
M  V30 22 1 12 22
M  V30 23 1 13 23
M  V30 24 1 13 24
M  V30 25 1 13 25
M  V30 26 1 14 26
M  V30 27 1 14 27
M  V30 28 1 14 28
M  V30 29 1 15 29
M  V30 END BOND
M  V30 END CTAB
M  END
>  <Structure No>
2609

>  <LogS>
-1.178639899

>  <MMFF94 Energy>
40.972

$$$$
Compound 2610
Actelion Java MolfileCreator 2.0

  0  0  0  0  0  0              0 V3000
M  V30 BEGIN CTAB
M  V30 COUNTS 30 29 0 0 0
M  V30 BEGIN ATOM
M  V30 1 O 1.9419 1.631 -1.8642 0
M  V30 2 C 1.7045 0.5489 -1.2609 0
M  V30 3 O 2.7497 -0.2439 -0.7794 0
M  V30 4 C 0.2902 0.1311 -1.0112 0
M  V30 5 C 4.1194 0.1064 -0.9474 0
M  V30 6 C -0.1826 0.642 0.3557 0
M  V30 7 C 4.9881 -0.9356 -0.3109 0
M  V30 8 C -1.5825 0.1273 0.7264 0
M  V30 9 C 4.9627 -1.1509 1.0069 0
M  V30 10 C -2.6898 0.7469 -0.1441 0
M  V30 11 C -4.0981 0.4356 0.3854 0
M  V30 12 C -4.4739 -1.0378 0.232 0
M  V30 13 H 0.2323 -0.9783 -1.042 0
M  V30 14 H -0.3552 0.5368 -1.8189 0
M  V30 15 H 4.3199 1.0952 -0.4798 0
M  V30 16 H 4.3566 0.1665 -2.0315 0
M  V30 17 H 0.5289 0.2915 1.1361 0
M  V30 18 H -0.174 1.7543 0.3682 0
M  V30 19 H 5.6566 -1.5226 -0.9337 0
M  V30 20 H -1.6012 -0.9802 0.6401 0
M  V30 21 H -1.7712 0.3873 1.7911 0
M  V30 22 H 5.603 -1.9089 1.446 0
M  V30 23 H 4.3064 -0.576 1.6539 0
M  V30 24 H -2.5659 1.8519 -0.1568 0
M  V30 25 H -2.604 0.384 -1.1906 0
M  V30 26 H -4.1799 0.7317 1.454 0
M  V30 27 H -4.8312 1.0438 -0.1877 0
M  V30 28 H -3.846 -1.6737 0.8899 0
M  V30 29 H -5.5356 -1.18 0.5248 0
M  V30 30 H -4.3521 -1.3623 -0.8231 0
M  V30 END ATOM
M  V30 BEGIN BOND
M  V30 1 2 1 2
M  V30 2 1 2 3
M  V30 3 1 2 4
M  V30 4 1 3 5
M  V30 5 1 4 6
M  V30 6 1 5 7
M  V30 7 1 6 8
M  V30 8 2 7 9
M  V30 9 1 8 10
M  V30 10 1 10 11
M  V30 11 1 11 12
M  V30 12 1 4 13
M  V30 13 1 4 14
M  V30 14 1 5 15
M  V30 15 1 5 16
M  V30 16 1 6 17
M  V30 17 1 6 18
M  V30 18 1 7 19
M  V30 19 1 8 20
M  V30 20 1 8 21
M  V30 21 1 9 22
M  V30 22 1 9 23
M  V30 23 1 10 24
M  V30 24 1 10 25
M  V30 25 1 11 26
M  V30 26 1 11 27
M  V30 27 1 12 28
M  V30 28 1 12 29
M  V30 29 1 12 30
M  V30 END BOND
M  V30 END CTAB
M  END
>  <Structure No>
2610

>  <LogS>
-3.597623767

>  <MMFF94 Energy>
-9.9817

$$$$
Compound 2611
Actelion Java MolfileCreator 2.0

  0  0  0  0  0  0              0 V3000
M  V30 BEGIN CTAB
M  V30 COUNTS 34 34 0 0 0
M  V30 BEGIN ATOM
M  V30 1 O -5.1709 1.8779 -1.5647 0
M  V30 2 C -4.0463 1.4339 -0.873 0
M  V30 3 C -4.1799 0.6377 0.2725 0
M  V30 4 C -2.7716 1.7849 -1.3292 0
M  V30 5 C -3.0438 0.1979 0.9586 0
M  V30 6 C -1.6339 1.3465 -0.6449 0
M  V30 7 C -1.7626 0.5592 0.5111 0
M  V30 8 C -0.5378 0.0563 1.2275 0
M  V30 9 C -0.0878 -1.2886 0.6403 0
M  V30 10 C 1.1029 -1.9007 1.3966 0
M  V30 11 C 2.4238 -1.1182 1.2661 0
M  V30 12 C 2.9851 -1.0808 -0.1713 0
M  V30 13 C 2.7612 0.279 -0.8488 0
M  V30 14 C 3.3105 0.2829 -2.2722 0
M  V30 15 H -6.1077 1.6401 -1.2602 0
M  V30 16 H -5.1624 0.3564 0.6296 0
M  V30 17 H -2.6627 2.3952 -2.2167 0
M  V30 18 H -3.1621 -0.4248 1.8367 0
M  V30 19 H -0.6541 1.6199 -1.0161 0
M  V30 20 H -0.7584 -0.062 2.3111 0
M  V30 21 H 0.2724 0.8096 1.137 0
M  V30 22 H -0.9357 -2.0053 0.7101 0
M  V30 23 H 0.1537 -1.1801 -0.4375 0
M  V30 24 H 0.8423 -1.983 2.4745 0
M  V30 25 H 1.2629 -2.9368 1.0265 0
M  V30 26 H 3.1691 -1.6342 1.9104 0
M  V30 27 H 2.3181 -0.097 1.69 0
M  V30 28 H 2.5413 -1.8923 -0.789 0
M  V30 29 H 4.0807 -1.2689 -0.1276 0
M  V30 30 H 3.2734 1.0746 -0.2651 0
M  V30 31 H 1.6797 0.5197 -0.887 0
M  V30 32 H 3.1412 1.2788 -2.7331 0
M  V30 33 H 4.4017 0.0752 -2.2657 0
M  V30 34 H 2.7937 -0.4847 -2.8866 0
M  V30 END ATOM
M  V30 BEGIN BOND
M  V30 1 1 1 2
M  V30 2 2 2 3
M  V30 3 1 2 4
M  V30 4 1 3 5
M  V30 5 2 4 6
M  V30 6 2 5 7
M  V30 7 1 7 8
M  V30 8 1 8 9
M  V30 9 1 9 10
M  V30 10 1 10 11
M  V30 11 1 11 12
M  V30 12 1 12 13
M  V30 13 1 13 14
M  V30 14 1 6 7
M  V30 15 1 1 15
M  V30 16 1 3 16
M  V30 17 1 4 17
M  V30 18 1 5 18
M  V30 19 1 6 19
M  V30 20 1 8 20
M  V30 21 1 8 21
M  V30 22 1 9 22
M  V30 23 1 9 23
M  V30 24 1 10 24
M  V30 25 1 10 25
M  V30 26 1 11 26
M  V30 27 1 11 27
M  V30 28 1 12 28
M  V30 29 1 12 29
M  V30 30 1 13 30
M  V30 31 1 13 31
M  V30 32 1 14 32
M  V30 33 1 14 33
M  V30 34 1 14 34
M  V30 END BOND
M  V30 END CTAB
M  END
>  <Structure No>
2611

>  <LogS>
-3.659701705

>  <MMFF94 Energy>
6.2635

$$$$
Compound 2612
Actelion Java MolfileCreator 2.0

  0  0  0  0  0  0              0 V3000
M  V30 BEGIN CTAB
M  V30 COUNTS 45 45 0 0 0
M  V30 BEGIN ATOM
M  V30 1 O 8.3974 -1.6593 0.3158 0
M  V30 2 C 8.0928 -0.438 0.3552 0
M  V30 3 O 8.9374 0.4626 0.9913 0 CHG=-1
M  V30 4 C 6.7998 0.0337 -0.2184 0
M  V30 5 O 5.8131 0.0591 0.8099 0
M  V30 6 C 4.4856 0.4726 0.6244 0
M  V30 7 C 3.6239 0.4549 1.7277 0
M  V30 8 C 3.9951 0.9013 -0.6242 0
M  V30 9 C 2.2928 0.8597 1.596 0
M  V30 10 C 2.664 1.307 -0.7564 0
M  V30 11 C 1.8042 1.2936 0.3539 0
M  V30 12 C 0.363 1.7126 0.2107 0
M  V30 13 C -0.5867 0.5077 0.1466 0
M  V30 14 C -0.4407 -0.2803 -1.1648 0
M  V30 15 C -1.3142 -1.5454 -1.2023 0
M  V30 16 C -2.8294 -1.2507 -1.2104 0
M  V30 17 C -3.4724 -1.493 0.167 0
M  V30 18 C -4.9799 -1.1954 0.1754 0
M  V30 19 C -5.2837 0.3105 0.1796 0
M  V30 20 C -6.7825 0.5679 0.3144 0
M  V30 21 H 6.9389 1.0555 -0.6343 0
M  V30 22 H 6.4793 -0.6521 -1.0334 0
M  V30 23 H 3.9882 0.125 2.6928 0
M  V30 24 H 4.6324 0.9231 -1.4979 0
M  V30 25 H 1.6423 0.8349 2.4622 0
M  V30 26 H 2.3024 1.6278 -1.7259 0
M  V30 27 H 0.0844 2.3396 1.0853 0
M  V30 28 H 0.2252 2.3477 -0.6916 0
M  V30 29 H -0.4058 -0.161 1.0162 0
M  V30 30 H -1.6241 0.8966 0.2217 0
M  V30 31 H -0.6934 0.3742 -2.0274 0
M  V30 32 H 0.6162 -0.6006 -1.285 0
M  V30 33 H -1.0622 -2.092 -2.1375 0
M  V30 34 H -1.0367 -2.2198 -0.362 0
M  V30 35 H -3.3177 -1.9292 -1.9441 0
M  V30 36 H -3.018 -0.2122 -1.5559 0
M  V30 37 H -3.332 -2.5636 0.4351 0
M  V30 38 H -2.968 -0.8915 0.9518 0
M  V30 39 H -5.4674 -1.6811 -0.6981 0
M  V30 40 H -5.4118 -1.6475 1.0951 0
M  V30 41 H -4.932 0.7764 -0.7646 0
M  V30 42 H -4.7595 0.7973 1.0304 0
M  V30 43 H -6.9767 1.6611 0.2992 0
M  V30 44 H -7.3323 0.0958 -0.5283 0
M  V30 45 H -7.1593 0.1526 1.2739 0
M  V30 END ATOM
M  V30 BEGIN BOND
M  V30 1 2 1 2
M  V30 2 1 2 3
M  V30 3 1 2 4
M  V30 4 1 4 5
M  V30 5 1 5 6
M  V30 6 2 6 7
M  V30 7 1 6 8
M  V30 8 1 7 9
M  V30 9 2 8 10
M  V30 10 2 9 11
M  V30 11 1 11 12
M  V30 12 1 12 13
M  V30 13 1 13 14
M  V30 14 1 14 15
M  V30 15 1 15 16
M  V30 16 1 16 17
M  V30 17 1 17 18
M  V30 18 1 18 19
M  V30 19 1 19 20
M  V30 20 1 10 11
M  V30 21 1 4 21
M  V30 22 1 4 22
M  V30 23 1 7 23
M  V30 24 1 8 24
M  V30 25 1 9 25
M  V30 26 1 10 26
M  V30 27 1 12 27
M  V30 28 1 12 28
M  V30 29 1 13 29
M  V30 30 1 13 30
M  V30 31 1 14 31
M  V30 32 1 14 32
M  V30 33 1 15 33
M  V30 34 1 15 34
M  V30 35 1 16 35
M  V30 36 1 16 36
M  V30 37 1 17 37
M  V30 38 1 17 38
M  V30 39 1 18 39
M  V30 40 1 18 40
M  V30 41 1 19 41
M  V30 42 1 19 42
M  V30 43 1 20 43
M  V30 44 1 20 44
M  V30 45 1 20 45
M  V30 END BOND
M  V30 END CTAB
M  END
>  <Structure No>
2612

>  <LogS>
-3.84259676

>  <MMFF94 Energy>
70.309

$$$$
Compound 2613
Actelion Java MolfileCreator 2.0

  0  0  0  0  0  0              0 V3000
M  V30 BEGIN CTAB
M  V30 COUNTS 18 17 0 0 0
M  V30 BEGIN ATOM
M  V30 1 O 1.2374 1.9803 1.4024 0
M  V30 2 C 0.6409 1.4703 0.4166 0
M  V30 3 O 0.5625 2.1899 -0.7711 0 CHG=-1
M  V30 4 C 0.089 0.0619 0.5064 0
M  V30 5 O -0.2426 -0.1886 1.8544 0
M  V30 6 C 1.186 -0.9486 0.0723 0
M  V30 7 C -1.1851 -0.0899 -0.3729 0
M  V30 8 C 1.665 -0.7534 -1.338 0
M  V30 9 C -2.3223 0.7561 0.1216 0
M  V30 10 O 1.1052 -1.3613 -2.2882 0
M  V30 11 O 2.7174 0.1137 -1.6026 0 CHG=-1
M  V30 12 O -2.4973 1.9157 -0.3364 0
M  V30 13 O -3.1676 0.2745 1.1134 0 CHG=-1
M  V30 14 H -0.607 -1.1109 1.9163 0
M  V30 15 H 2.0581 -0.8607 0.7568 0
M  V30 16 H 0.8018 -1.9872 0.1775 0
M  V30 17 H -0.9692 0.1764 -1.4303 0
M  V30 18 H -1.5154 -1.1516 -0.3701 0
M  V30 END ATOM
M  V30 BEGIN BOND
M  V30 1 2 1 2
M  V30 2 1 2 3
M  V30 3 1 2 4
M  V30 4 1 4 5
M  V30 5 1 4 6
M  V30 6 1 4 7
M  V30 7 1 6 8
M  V30 8 1 7 9
M  V30 9 2 8 10
M  V30 10 1 8 11
M  V30 11 2 9 12
M  V30 12 1 9 13
M  V30 13 1 5 14
M  V30 14 1 6 15
M  V30 15 1 6 16
M  V30 16 1 7 17
M  V30 17 1 7 18
M  V30 END BOND
M  V30 END CTAB
M  END
>  <Structure No>
2613

>  <LogS>
-2.254040258

>  <MMFF94 Energy>
240.18

$$$$
Compound 2614
Actelion Java MolfileCreator 2.0

  0  0  0  0  0  0              0 V3000
M  V30 BEGIN CTAB
M  V30 COUNTS 46 46 0 0 0
M  V30 BEGIN ATOM
M  V30 1 S 2.5535 3.7082 2.5535 0
M  V30 2 C 3.3642 2.4939 1.8206 0
M  V30 3 S 3.012 1.9006 0.2878 0
M  V30 4 N 4.4049 1.8377 2.3762 0
M  V30 5 C 4.2574 0.7709 0.4185 0
M  V30 6 N 4.9073 0.8815 1.5983 0
M  V30 7 S 4.7071 -0.41 -0.8472 0
M  V30 8 S 3.6285 -1.9987 0.0991 0
M  V30 9 C 2.2532 -2.1869 -1.1194 0
M  V30 10 C 1.4331 -0.8674 -1.1934 0
M  V30 11 C 2.8361 -2.5713 -2.4945 0
M  V30 12 C 1.381 -3.3467 -0.6022 0
M  V30 13 C 0.0982 -0.9687 -1.9605 0
M  V30 14 C -0.5319 0.4067 -2.2484 0
M  V30 15 C -0.8215 1.2652 -1.0035 0
M  V30 16 C -1.7978 0.5975 -0.0247 0
M  V30 17 C -2.1574 1.5496 1.126 0
M  V30 18 C -3.1509 0.9147 2.1216 0
M  V30 19 C -4.6011 1.3904 1.9326 0
M  V30 20 C -5.216 0.9274 0.6138 0
M  V30 21 H 4.7916 2.0477 3.3231 0
M  V30 22 H 2.0491 -0.0815 -1.6776 0
M  V30 23 H 1.2153 -0.5365 -0.1553 0
M  V30 24 H 3.5586 -3.4083 -2.3857 0
M  V30 25 H 3.3614 -1.714 -2.9636 0
M  V30 26 H 2.039 -2.9038 -3.1915 0
M  V30 27 H 0.5902 -3.6181 -1.333 0
M  V30 28 H 2.0019 -4.2528 -0.4326 0
M  V30 29 H 0.8977 -3.0702 0.3595 0
M  V30 30 H 0.2659 -1.4641 -2.9387 0
M  V30 31 H -0.6245 -1.5933 -1.3957 0
M  V30 32 H -1.4812 0.2511 -2.8059 0
M  V30 33 H 0.1468 0.9778 -2.9187 0
M  V30 34 H -1.2627 2.2246 -1.3523 0
M  V30 35 H 0.1253 1.5154 -0.4821 0
M  V30 36 H -2.7146 0.294 -0.5713 0
M  V30 37 H -1.3278 -0.3121 0.4058 0
M  V30 38 H -2.5631 2.5031 0.722 0
M  V30 39 H -1.2211 1.7997 1.6727 0
M  V30 40 H -2.8419 1.2038 3.15 0
M  V30 41 H -3.1084 -0.1961 2.0827 0
M  V30 42 H -5.2138 0.9825 2.7655 0
M  V30 43 H -4.6489 2.4994 1.9952 0
M  V30 44 H -5.0942 -0.1695 0.4906 0
M  V30 45 H -6.3006 1.1655 0.6089 0
M  V30 46 H -4.7452 1.456 -0.2406 0
M  V30 END ATOM
M  V30 BEGIN BOND
M  V30 1 2 1 2
M  V30 2 1 2 3
M  V30 3 1 2 4
M  V30 4 1 3 5
M  V30 5 1 4 6
M  V30 6 1 5 7
M  V30 7 1 7 8
M  V30 8 1 8 9
M  V30 9 1 9 10
M  V30 10 1 9 11
M  V30 11 1 9 12
M  V30 12 1 10 13
M  V30 13 1 13 14
M  V30 14 1 14 15
M  V30 15 1 15 16
M  V30 16 1 16 17
M  V30 17 1 17 18
M  V30 18 1 18 19
M  V30 19 1 19 20
M  V30 20 2 5 6
M  V30 21 1 4 21
M  V30 22 1 10 22
M  V30 23 1 10 23
M  V30 24 1 11 24
M  V30 25 1 11 25
M  V30 26 1 11 26
M  V30 27 1 12 27
M  V30 28 1 12 28
M  V30 29 1 12 29
M  V30 30 1 13 30
M  V30 31 1 13 31
M  V30 32 1 14 32
M  V30 33 1 14 33
M  V30 34 1 15 34
M  V30 35 1 15 35
M  V30 36 1 16 36
M  V30 37 1 16 37
M  V30 38 1 17 38
M  V30 39 1 17 39
M  V30 40 1 18 40
M  V30 41 1 18 41
M  V30 42 1 19 42
M  V30 43 1 19 43
M  V30 44 1 20 44
M  V30 45 1 20 45
M  V30 46 1 20 46
M  V30 END BOND
M  V30 END CTAB
M  END
>  <Structure No>
2614

>  <LogS>
-3.988563911

>  <MMFF94 Energy>
12.282

$$$$
Compound 2615
Actelion Java MolfileCreator 2.0

  0  0  0  0  0  0              0 V3000
M  V30 BEGIN CTAB
M  V30 COUNTS 39 39 0 0 0
M  V30 BEGIN ATOM
M  V30 1 O 3.8446 1.5678 -0.1566 0
M  V30 2 C 2.9643 0.5306 -0.514 0 CFG=2
M  V30 3 C 2.4477 -0.209 0.7525 0 CFG=2
M  V30 4 C 3.6588 -0.4221 -1.4983 0
M  V30 5 C 1.5425 -1.3946 0.4489 0
M  V30 6 C 1.841 0.7426 1.797 0
M  V30 7 C 0.3189 -1.3952 -0.1215 0
M  V30 8 C -0.4689 -0.1893 -0.6019 0 CFG=2
M  V30 9 C -1.9093 -0.0461 -0.0079 0
M  V30 10 C -0.6637 -0.2203 -2.1232 0
M  V30 11 C -2.6794 0.5007 -1.1827 0
M  V30 12 C -1.9167 0.9421 1.1752 0
M  V30 13 C -2.5447 -1.3862 0.4247 0
M  V30 14 C -1.9993 0.3999 -2.3183 0
M  V30 15 C -4.0962 1.0025 -1.1391 0
M  V30 16 H 4.6242 1.1573 0.3016 0
M  V30 17 H 2.1205 0.997 -1.0558 0
M  V30 18 H 3.3452 -0.6473 1.2452 0
M  V30 19 H 4.0775 0.1567 -2.3486 0
M  V30 20 H 2.933 -1.1567 -1.9065 0
M  V30 21 H 4.4859 -0.9684 -0.997 0
M  V30 22 H 1.9462 -2.3688 0.7132 0
M  V30 23 H 1.3174 0.1676 2.5905 0
M  V30 24 H 2.6503 1.3282 2.2828 0
M  V30 25 H 1.1373 1.4692 1.3493 0
M  V30 26 H -0.1272 -2.3705 -0.2935 0
M  V30 27 H 0.0771 0.7435 -0.3894 0
M  V30 28 H -0.6894 -1.259 -2.5195 0
M  V30 29 H 0.1221 0.3655 -2.6467 0
M  V30 30 H -2.9341 1.0431 1.6082 0
M  V30 31 H -1.5748 1.949 0.8517 0
M  V30 32 H -1.2396 0.579 1.9771 0
M  V30 33 H -2.5418 -2.1134 -0.4157 0
M  V30 34 H -3.5981 -1.2358 0.7443 0
M  V30 35 H -1.9923 -1.8234 1.2836 0
M  V30 36 H -2.4018 0.6735 -3.2888 0
M  V30 37 H -4.7273 0.4038 -1.8291 0
M  V30 38 H -4.1234 2.0675 -1.451 0
M  V30 39 H -4.5204 0.9192 -0.1183 0
M  V30 END ATOM
M  V30 BEGIN BOND
M  V30 1 1 1 2
M  V30 2 1 2 3
M  V30 3 1 2 4
M  V30 4 1 3 5
M  V30 5 1 3 6
M  V30 6 2 5 7
M  V30 7 1 7 8
M  V30 8 1 8 9
M  V30 9 1 8 10
M  V30 10 1 9 11
M  V30 11 1 9 12
M  V30 12 1 9 13
M  V30 13 1 10 14
M  V30 14 1 11 15
M  V30 15 2 11 14
M  V30 16 1 1 16
M  V30 17 1 2 17
M  V30 18 1 3 18
M  V30 19 1 4 19
M  V30 20 1 4 20
M  V30 21 1 4 21
M  V30 22 1 5 22
M  V30 23 1 6 23
M  V30 24 1 6 24
M  V30 25 1 6 25
M  V30 26 1 7 26
M  V30 27 1 8 27
M  V30 28 1 10 28
M  V30 29 1 10 29
M  V30 30 1 12 30
M  V30 31 1 12 31
M  V30 32 1 12 32
M  V30 33 1 13 33
M  V30 34 1 13 34
M  V30 35 1 13 35
M  V30 36 1 14 36
M  V30 37 1 15 37
M  V30 38 1 15 38
M  V30 39 1 15 39
M  V30 END BOND
M  V30 BEGIN COLLECTION
M  V30 MDLV30/STEABS ATOMS=(3 2 3 8)
M  V30 END COLLECTION
M  V30 END CTAB
M  END
>  <Structure No>
2615

>  <LogS>
-3.786028703

>  <MMFF94 Energy>
64.906

$$$$
Compound 2616
Actelion Java MolfileCreator 2.0

  0  0  0  0  0  0              0 V3000
M  V30 BEGIN CTAB
M  V30 COUNTS 18 17 0 0 0
M  V30 BEGIN ATOM
M  V30 1 O 1.4416 1.6694 0.1516 0
M  V30 2 C 0.8177 0.6057 -0.1111 0
M  V30 3 N 1.4721 -0.437 -0.8506 0
M  V30 4 C -0.6191 0.4674 0.3398 0 CFG=2
M  V30 5 N 2.8045 -0.3099 -1.2745 0
M  V30 6 N -0.8342 -0.7881 1.071 0 CHG=1
M  V30 7 C -1.5931 0.6059 -0.8428 0
M  V30 8 O -1.4245 -0.4413 -1.7582 0
M  V30 9 H 0.9607 -1.3138 -1.0904 0
M  V30 10 H -0.8378 1.3085 1.0375 0
M  V30 11 H 2.8679 0.5436 -1.8749 0
M  V30 12 H 3.395 -0.1521 -0.4263 0
M  V30 13 H -0.1483 -0.8619 1.8574 0
M  V30 14 H -0.7291 -1.6183 0.4452 0
M  V30 15 H -1.7981 -0.7952 1.4772 0
M  V30 16 H -1.4187 1.5811 -1.3512 0
M  V30 17 H -2.6374 0.5991 -0.4575 0
M  V30 18 H -2.0793 -0.279 -2.486 0
M  V30 END ATOM
M  V30 BEGIN BOND
M  V30 1 2 1 2
M  V30 2 1 2 3
M  V30 3 1 2 4
M  V30 4 1 3 5
M  V30 5 1 4 6
M  V30 6 1 4 7
M  V30 7 1 7 8
M  V30 8 1 3 9
M  V30 9 1 4 10
M  V30 10 1 5 11
M  V30 11 1 5 12
M  V30 12 1 6 13
M  V30 13 1 6 14
M  V30 14 1 6 15
M  V30 15 1 7 16
M  V30 16 1 7 17
M  V30 17 1 8 18
M  V30 END BOND
M  V30 BEGIN COLLECTION
M  V30 MDLV30/STEABS ATOMS=(1 4)
M  V30 END COLLECTION
M  V30 END CTAB
M  END
>  <Structure No>
2616

>  <LogS>
0.510462812

>  <MMFF94 Energy>
92.845

$$$$
Compound 2617
Actelion Java MolfileCreator 2.0

  0  0  0  0  0  0              0 V3000
M  V30 BEGIN CTAB
M  V30 COUNTS 47 48 0 0 0
M  V30 BEGIN ATOM
M  V30 1 O -2.5305 4.1938 0.7902 0
M  V30 2 C -2.0486 2.8977 0.6067 0
M  V30 3 C -2.9066 1.8753 0.1619 0
M  V30 4 C -0.7056 2.6111 0.8702 0
M  V30 5 C -2.4048 0.5724 -0.0023 0
M  V30 6 C -4.3705 2.1407 -0.0938 0
M  V30 7 C -0.2113 1.3187 0.6964 0
M  V30 8 C -1.0446 0.2764 0.2408 0
M  V30 9 C -5.2077 1.6754 1.0649 0
M  V30 10 C -0.459 -1.1424 0.0993 0
M  V30 11 C -5.2157 2.324 2.2332 0
M  V30 12 C 0.8512 -1.0765 -0.7104 0
M  V30 13 C -0.2635 -1.693 1.5329 0
M  V30 14 C -1.401 -2.1185 -0.6473 0
M  V30 15 C 2.0482 -1.6972 -0.2867 0
M  V30 16 C 0.8544 -0.4098 -1.9532 0
M  V30 17 C 3.217 -1.6279 -1.0644 0
M  V30 18 C 2.0139 -0.331 -2.7243 0
M  V30 19 C 3.1986 -0.9285 -2.284 0
M  V30 20 C 4.4912 -2.2589 -0.5592 0
M  V30 21 O 4.3572 -0.8299 -3.0546 0
M  V30 22 C 5.3826 -1.2266 0.0731 0
M  V30 23 C 5.0791 -0.6589 1.2444 0
M  V30 24 H -1.9301 4.9439 1.1128 0
M  V30 25 H -0.041 3.3921 1.2173 0
M  V30 26 H -3.094 -0.1969 -0.3185 0
M  V30 27 H -4.5655 3.2164 -0.293 0
M  V30 28 H -4.6855 1.5897 -1.0064 0
M  V30 29 H 0.8311 1.1294 0.9206 0
M  V30 30 H -5.8296 0.7931 0.9449 0
M  V30 31 H -4.6118 3.2134 2.3838 0
M  V30 32 H -5.8338 1.9644 3.0493 0
M  V30 33 H -1.2161 -1.6324 2.1036 0
M  V30 34 H 0.5017 -1.1063 2.0857 0
M  V30 35 H 0.0441 -2.7609 1.5165 0
M  V30 36 H -2.3195 -2.3256 -0.0566 0
M  V30 37 H -0.8921 -3.0926 -0.8169 0
M  V30 38 H -1.6961 -1.7106 -1.638 0
M  V30 39 H 2.094 -2.2348 0.6488 0
M  V30 40 H -0.0471 0.0611 -2.325 0
M  V30 41 H 1.9902 0.1997 -3.6676 0
M  V30 42 H 4.2751 -3.0664 0.1744 0
M  V30 43 H 5.0307 -2.7358 -1.4054 0
M  V30 44 H 4.3681 -0.3303 -3.9363 0
M  V30 45 H 6.3021 -0.9438 -0.4307 0
M  V30 46 H 5.7446 0.0803 1.6779 0
M  V30 47 H 4.1709 -0.9257 1.7765 0
M  V30 END ATOM
M  V30 BEGIN BOND
M  V30 1 1 1 2
M  V30 2 2 2 3
M  V30 3 1 2 4
M  V30 4 1 3 5
M  V30 5 1 3 6
M  V30 6 2 4 7
M  V30 7 2 5 8
M  V30 8 1 6 9
M  V30 9 1 8 10
M  V30 10 2 9 11
M  V30 11 1 10 12
M  V30 12 1 10 13
M  V30 13 1 10 14
M  V30 14 2 12 15
M  V30 15 1 12 16
M  V30 16 1 15 17
M  V30 17 2 16 18
M  V30 18 2 17 19
M  V30 19 1 17 20
M  V30 20 1 19 21
M  V30 21 1 20 22
M  V30 22 2 22 23
M  V30 23 1 7 8
M  V30 24 1 18 19
M  V30 25 1 1 24
M  V30 26 1 4 25
M  V30 27 1 5 26
M  V30 28 1 6 27
M  V30 29 1 6 28
M  V30 30 1 7 29
M  V30 31 1 9 30
M  V30 32 1 11 31
M  V30 33 1 11 32
M  V30 34 1 13 33
M  V30 35 1 13 34
M  V30 36 1 13 35
M  V30 37 1 14 36
M  V30 38 1 14 37
M  V30 39 1 14 38
M  V30 40 1 15 39
M  V30 41 1 16 40
M  V30 42 1 18 41
M  V30 43 1 20 42
M  V30 44 1 20 43
M  V30 45 1 21 44
M  V30 46 1 22 45
M  V30 47 1 23 46
M  V30 48 1 23 47
M  V30 END BOND
M  V30 END CTAB
M  END
>  <Structure No>
2617

>  <LogS>
-3.996383552

>  <MMFF94 Energy>
76.618

$$$$
Compound 2618
Actelion Java MolfileCreator 2.0

  0  0  0  0  0  0              0 V3000
M  V30 BEGIN CTAB
M  V30 COUNTS 30 30 0 0 0
M  V30 BEGIN ATOM
M  V30 1 O 1.5696 0.1568 1.0985 0
M  V30 2 C 0.3194 0.6475 0.6558 0 CFG=1
M  V30 3 C 2.4645 0.3532 0.0477 0 CFG=2
M  V30 4 O 0.4175 1.1452 -0.6623 0
M  V30 5 C -0.6946 -0.5264 0.7061 0
M  V30 6 C -0.0905 1.7953 1.5877 0
M  V30 7 C 1.6257 0.6697 -1.1588 0
M  V30 8 C 3.3327 -0.894 -0.1555 0
M  V30 9 C -2.1851 -0.1739 0.4551 0
M  V30 10 O 4.1589 -1.1 0.9585 0
M  V30 11 C -2.4295 0.4007 -0.9481 0
M  V30 12 C -3.0495 -1.4266 0.6562 0
M  V30 13 H 3.115 1.2238 0.2893 0
M  V30 14 H -0.6152 -0.9962 1.7121 0
M  V30 15 H -0.3751 -1.2994 -0.0278 0
M  V30 16 H -0.2956 1.4131 2.6107 0
M  V30 17 H 0.7313 2.5402 1.6491 0
M  V30 18 H -0.9904 2.3191 1.2029 0
M  V30 19 H 2.1101 1.4486 -1.7855 0
M  V30 20 H 1.428 -0.2303 -1.7827 0
M  V30 21 H 3.9788 -0.7483 -1.0474 0
M  V30 22 H 2.6944 -1.7898 -0.3371 0
M  V30 23 H -2.5217 0.5722 1.2062 0
M  V30 24 H 3.5966 -1.5287 1.6554 0
M  V30 25 H -1.9691 -0.2469 -1.7247 0
M  V30 26 H -3.5191 0.4796 -1.1511 0
M  V30 27 H -2.0147 1.4261 -1.0273 0
M  V30 28 H -2.91 -1.831 1.6817 0
M  V30 29 H -2.777 -2.2133 -0.0799 0
M  V30 30 H -4.1254 -1.1776 0.5332 0
M  V30 END ATOM
M  V30 BEGIN BOND
M  V30 1 1 1 2
M  V30 2 1 1 3
M  V30 3 1 2 4
M  V30 4 1 2 5
M  V30 5 1 2 6
M  V30 6 1 3 7
M  V30 7 1 3 8
M  V30 8 1 5 9
M  V30 9 1 8 10
M  V30 10 1 9 11
M  V30 11 1 9 12
M  V30 12 1 4 7
M  V30 13 1 3 13
M  V30 14 1 5 14
M  V30 15 1 5 15
M  V30 16 1 6 16
M  V30 17 1 6 17
M  V30 18 1 6 18
M  V30 19 1 7 19
M  V30 20 1 7 20
M  V30 21 1 8 21
M  V30 22 1 8 22
M  V30 23 1 9 23
M  V30 24 1 10 24
M  V30 25 1 11 25
M  V30 26 1 11 26
M  V30 27 1 11 27
M  V30 28 1 12 28
M  V30 29 1 12 29
M  V30 30 1 12 30
M  V30 END BOND
M  V30 BEGIN COLLECTION
M  V30 MDLV30/STEABS ATOMS=(2 2 3)
M  V30 END COLLECTION
M  V30 END CTAB
M  END
>  <Structure No>
2618

>  <LogS>
-0.705980377

>  <MMFF94 Energy>
42.422

$$$$
Compound 2619
Actelion Java MolfileCreator 2.0

  0  0  0  0  0  0              0 V3000
M  V30 BEGIN CTAB
M  V30 COUNTS 7 6 0 0 0
M  V30 BEGIN ATOM
M  V30 1 S 0 0 0 0
M  V30 2 F 0 0 0 0
M  V30 3 F 0 0 0 0
M  V30 4 F 0 0 0 0
M  V30 5 F 0 0 0 0
M  V30 6 F 0 0 0 0
M  V30 7 F 0 0 0 0
M  V30 END ATOM
M  V30 BEGIN BOND
M  V30 1 1 1 2
M  V30 2 1 1 3
M  V30 3 1 1 4
M  V30 4 1 1 5
M  V30 5 1 1 6
M  V30 6 1 1 7
M  V30 END BOND
M  V30 END CTAB
M  END
>  <Structure No>
2619

>  <LogS>
-3.673154735

>  <MMFF94 Energy>
Couldn't assign an atom type to atom 0 (S)

$$$$
Compound 2620
Actelion Java MolfileCreator 2.0

  0  0  0  0  0  0              0 V3000
M  V30 BEGIN CTAB
M  V30 COUNTS 77 76 0 0 0
M  V30 BEGIN ATOM
M  V30 1 N -0.2332 -0.4664 1.5555 0 CHG=1
M  V30 2 C -0.4902 0.9875 1.3559 0
M  V30 3 C 1.1455 -0.8753 1.1561 0
M  V30 4 C -1.2929 -1.3709 1.034 0
M  V30 5 C -0.4952 1.4571 -0.1146 0
M  V30 6 C 1.287 -1.4087 -0.2925 0
M  V30 7 C -2.6708 -1.1281 1.6861 0
M  V30 8 C -1.0463 2.8835 -0.2743 0
M  V30 9 C 2.7477 -1.4347 -0.7702 0
M  V30 10 C -3.6797 -2.2537 1.3909 0
M  V30 11 C -0.1139 3.9519 0.3173 0
M  V30 12 C 3.6021 -2.4586 -0.0075 0
M  V30 13 C -3.9572 -2.5019 -0.1039 0
M  V30 14 C -0.6496 5.3647 0.0359 0
M  V30 15 C 5.0216 -2.5319 -0.5919 0
M  V30 16 C -4.5424 -1.2663 -0.8172 0
M  V30 17 C 0.3279 6.4763 0.4799 0
M  V30 18 C 5.9602 -3.4445 0.2297 0
M  V30 19 C -4.9588 -1.5116 -2.2865 0
M  V30 20 C -0.1524 7.8365 -0.043 0
M  V30 21 C 0.4812 6.5312 2.0076 0
M  V30 22 C 5.5683 -4.9251 0.1099 0
M  V30 23 C 7.4121 -3.2527 -0.2272 0
M  V30 24 C -3.7726 -1.9237 -3.1689 0
M  V30 25 C -6.1129 -2.5157 -2.4135 0
M  V30 26 H -0.2507 -0.59 2.5971 0
M  V30 27 H 0.2846 1.5667 1.9053 0
M  V30 28 H -1.4483 1.2732 1.8394 0
M  V30 29 H 1.4888 -1.6848 1.8396 0
M  V30 30 H 1.8559 -0.0322 1.3114 0
M  V30 31 H -1.3919 -1.2761 -0.0647 0
M  V30 32 H -1.0014 -2.4245 1.2459 0
M  V30 33 H -1.1377 0.7958 -0.7284 0
M  V30 34 H 0.5364 1.4258 -0.5243 0
M  V30 35 H 0.7181 -0.7796 -1.0022 0
M  V30 36 H 0.866 -2.4354 -0.3594 0
M  V30 37 H -2.5475 -1.0651 2.789 0
M  V30 38 H -3.0967 -0.162 1.3471 0
M  V30 39 H -1.173 3.0798 -1.3618 0
M  V30 40 H -2.0513 2.9541 0.1974 0
M  V30 41 H 3.1909 -0.4194 -0.6698 0
M  V30 42 H 2.752 -1.6974 -1.8509 0
M  V30 43 H -3.3048 -3.1983 1.8422 0
M  V30 44 H -4.6383 -2.0112 1.8997 0
M  V30 45 H -0.042 3.8021 1.4136 0
M  V30 46 H 0.8992 3.8448 -0.1281 0
M  V30 47 H 3.1147 -3.4542 -0.0777 0
M  V30 48 H 3.6674 -2.1658 1.0624 0
M  V30 49 H -3.0256 -2.8358 -0.6048 0
M  V30 50 H -4.6805 -3.3408 -0.1659 0
M  V30 51 H -0.8224 5.4609 -1.0589 0
M  V30 52 H -1.63 5.4982 0.545 0
M  V30 53 H 4.9747 -2.889 -1.6446 0
M  V30 54 H 5.444 -1.5023 -0.604 0
M  V30 55 H -5.4276 -0.9024 -0.2503 0
M  V30 56 H -3.7912 -0.4481 -0.8119 0
M  V30 57 H 1.3277 6.2783 0.0337 0
M  V30 58 H 5.9046 -3.1519 1.3017 0
M  V30 59 H -5.3321 -0.5383 -2.6768 0
M  V30 60 H 0.5626 8.6359 0.2474 0
M  V30 61 H -1.1543 8.0834 0.3704 0
M  V30 62 H -0.2152 7.8221 -1.1523 0
M  V30 63 H 0.9802 5.615 2.3848 0
M  V30 64 H -0.5101 6.6359 2.4988 0
M  V30 65 H 1.1158 7.3949 2.3007 0
M  V30 66 H 5.5389 -5.2391 -0.9553 0
M  V30 67 H 4.5756 -5.107 0.5702 0
M  V30 68 H 6.3025 -5.5621 0.6479 0
M  V30 69 H 8.0935 -3.8889 0.3769 0
M  V30 70 H 7.7222 -2.1949 -0.0888 0
M  V30 71 H 7.5246 -3.5226 -1.2992 0
M  V30 72 H -2.9311 -1.2095 -3.0421 0
M  V30 73 H -4.0768 -1.9146 -4.2372 0
M  V30 74 H -3.4213 -2.946 -2.9161 0
M  V30 75 H -6.9418 -2.2408 -1.7268 0
M  V30 76 H -6.5074 -2.5052 -3.4522 0
M  V30 77 H -5.7769 -3.5484 -2.183 0
M  V30 END ATOM
M  V30 BEGIN BOND
M  V30 1 1 1 2
M  V30 2 1 1 3
M  V30 3 1 1 4
M  V30 4 1 2 5
M  V30 5 1 3 6
M  V30 6 1 4 7
M  V30 7 1 5 8
M  V30 8 1 6 9
M  V30 9 1 7 10
M  V30 10 1 8 11
M  V30 11 1 9 12
M  V30 12 1 10 13
M  V30 13 1 11 14
M  V30 14 1 12 15
M  V30 15 1 13 16
M  V30 16 1 14 17
M  V30 17 1 15 18
M  V30 18 1 16 19
M  V30 19 1 17 20
M  V30 20 1 17 21
M  V30 21 1 18 22
M  V30 22 1 18 23
M  V30 23 1 19 24
M  V30 24 1 19 25
M  V30 25 1 1 26
M  V30 26 1 2 27
M  V30 27 1 2 28
M  V30 28 1 3 29
M  V30 29 1 3 30
M  V30 30 1 4 31
M  V30 31 1 4 32
M  V30 32 1 5 33
M  V30 33 1 5 34
M  V30 34 1 6 35
M  V30 35 1 6 36
M  V30 36 1 7 37
M  V30 37 1 7 38
M  V30 38 1 8 39
M  V30 39 1 8 40
M  V30 40 1 9 41
M  V30 41 1 9 42
M  V30 42 1 10 43
M  V30 43 1 10 44
M  V30 44 1 11 45
M  V30 45 1 11 46
M  V30 46 1 12 47
M  V30 47 1 12 48
M  V30 48 1 13 49
M  V30 49 1 13 50
M  V30 50 1 14 51
M  V30 51 1 14 52
M  V30 52 1 15 53
M  V30 53 1 15 54
M  V30 54 1 16 55
M  V30 55 1 16 56
M  V30 56 1 17 57
M  V30 57 1 18 58
M  V30 58 1 19 59
M  V30 59 1 20 60
M  V30 60 1 20 61
M  V30 61 1 20 62
M  V30 62 1 21 63
M  V30 63 1 21 64
M  V30 64 1 21 65
M  V30 65 1 22 66
M  V30 66 1 22 67
M  V30 67 1 22 68
M  V30 68 1 23 69
M  V30 69 1 23 70
M  V30 70 1 23 71
M  V30 71 1 24 72
M  V30 72 1 24 73
M  V30 73 1 24 74
M  V30 74 1 25 75
M  V30 75 1 25 76
M  V30 76 1 25 77
M  V30 END BOND
M  V30 END CTAB
M  END
>  <Structure No>
2620

>  <LogS>
-4.05724758

>  <MMFF94 Energy>
21.53

$$$$
Compound 2621
Actelion Java MolfileCreator 2.0

  0  0  0  0  0  0              0 V3000
M  V30 BEGIN CTAB
M  V30 COUNTS 43 45 0 0 0
M  V30 BEGIN ATOM
M  V30 1 N -1.3471 -2.1402 0.2376 0 CHG=1 CFG=1
M  V30 2 C -1.0285 -1.8895 -1.1934 0
M  V30 3 C -0.4342 -1.4508 1.1958 0
M  V30 4 C -2.7883 -1.9361 0.5427 0
M  V30 5 C 0.4818 -1.7464 -1.4078 0
M  V30 6 C 0.2016 -0.1808 0.6077 0
M  V30 7 C -3.2609 -0.4976 0.4327 0
M  V30 8 C 1.0114 -0.487 -0.6783 0 CFG=1
M  V30 9 C -3.2137 0.3608 1.5466 0
M  V30 10 C -3.8093 -0.0194 -0.7714 0
M  V30 11 N 2.442 -0.6303 -0.3685 0
M  V30 12 C -3.6563 1.683 1.4405 0
M  V30 13 C -4.2505 1.3032 -0.873 0
M  V30 14 C 3.3183 0.4694 -0.0443 0
M  V30 15 C -4.1682 2.1557 0.2301 0
M  V30 16 C 4.6712 0.2064 0.2327 0
M  V30 17 C 2.8626 1.8039 0.0026 0
M  V30 18 C 5.5486 1.2477 0.5496 0
M  V30 19 C 3.7448 2.8414 0.3207 0
M  V30 20 C 5.0858 2.5643 0.5935 0
M  V30 21 H -1.1866 -3.1665 0.3846 0
M  V30 22 H -1.5043 -0.9595 -1.5638 0
M  V30 23 H -1.4076 -2.7286 -1.8193 0
M  V30 24 H -0.9442 -1.2073 2.1507 0
M  V30 25 H 0.3963 -2.1379 1.4793 0
M  V30 26 H -3.0074 -2.3115 1.5681 0
M  V30 27 H -3.4026 -2.5732 -0.1335 0
M  V30 28 H 0.7016 -1.6691 -2.4949 0
M  V30 29 H 0.9742 -2.6682 -1.0278 0
M  V30 30 H -0.6018 0.5474 0.3672 0
M  V30 31 H 0.8446 0.2925 1.3805 0
M  V30 32 H 0.883 0.3627 -1.3845 0
M  V30 33 H -2.8468 0.0088 2.5013 0
M  V30 34 H -3.8944 -0.6704 -1.6326 0
M  V30 35 H 2.8681 -1.5843 -0.4107 0
M  V30 36 H -3.6086 2.3394 2.2999 0
M  V30 37 H -4.6607 1.666 -1.8067 0
M  V30 38 H -4.5117 3.1791 0.1505 0
M  V30 39 H 5.0472 -0.8085 0.2038 0
M  V30 40 H 1.8313 2.0559 -0.1983 0
M  V30 41 H 6.5882 1.0331 0.7614 0
M  V30 42 H 3.3874 3.8626 0.3563 0
M  V30 43 H 5.7661 3.3694 0.8393 0
M  V30 END ATOM
M  V30 BEGIN BOND
M  V30 1 1 1 2
M  V30 2 1 1 3
M  V30 3 1 1 4
M  V30 4 1 2 5
M  V30 5 1 3 6
M  V30 6 1 4 7
M  V30 7 1 5 8
M  V30 8 2 7 9
M  V30 9 1 7 10
M  V30 10 1 8 11
M  V30 11 1 9 12
M  V30 12 2 10 13
M  V30 13 1 11 14
M  V30 14 2 12 15
M  V30 15 2 14 16
M  V30 16 1 14 17
M  V30 17 1 16 18
M  V30 18 2 17 19
M  V30 19 2 18 20
M  V30 20 1 6 8
M  V30 21 1 13 15
M  V30 22 1 19 20
M  V30 23 1 1 21
M  V30 24 1 2 22
M  V30 25 1 2 23
M  V30 26 1 3 24
M  V30 27 1 3 25
M  V30 28 1 4 26
M  V30 29 1 4 27
M  V30 30 1 5 28
M  V30 31 1 5 29
M  V30 32 1 6 30
M  V30 33 1 6 31
M  V30 34 1 8 32
M  V30 35 1 9 33
M  V30 36 1 10 34
M  V30 37 1 11 35
M  V30 38 1 12 36
M  V30 39 1 13 37
M  V30 40 1 15 38
M  V30 41 1 16 39
M  V30 42 1 17 40
M  V30 43 1 18 41
M  V30 44 1 19 42
M  V30 45 1 20 43
M  V30 END BOND
M  V30 BEGIN COLLECTION
M  V30 MDLV30/STEABS ATOMS=(2 1 8)
M  V30 END COLLECTION
M  V30 END CTAB
M  END
>  <Structure No>
2621

>  <LogS>
-3.954222946

>  <MMFF94 Energy>
18.961

$$$$
Compound 2622
Actelion Java MolfileCreator 2.0

  0  0  0  0  0  0              0 V3000
M  V30 BEGIN CTAB
M  V30 COUNTS 53 57 0 0 0
M  V30 BEGIN ATOM
M  V30 1 O 6.2943 -0.0815 -1.9586 0
M  V30 2 C 5.1833 -0.308 -1.4105 0
M  V30 3 C 4.4028 0.8139 -0.8593 0
M  V30 4 C 4.6942 -1.7199 -1.2834 0
M  V30 5 C 3.2249 0.6241 -0.2364 0
M  V30 6 C 3.1699 -1.7382 -1.1189 0
M  V30 7 C 2.583 1.7705 0.4244 0
M  V30 8 C 2.6678 -0.7721 0.0045 0 CFG=2
M  V30 9 C 1.4119 1.6593 1.0463 0
M  V30 10 C 1.0874 -0.7314 0.0905 0 CFG=1
M  V30 11 C 3.2163 -1.2698 1.3699 0
M  V30 12 C 0.5574 0.4074 1.031 0 CFG=2
M  V30 13 C 0.3424 -0.6861 -1.2587 0
M  V30 14 C -0.946 0.7908 0.8075 0 CFG=2
M  V30 15 C -1.1722 -0.9246 -1.0963 0
M  V30 16 C -1.8302 -0.3159 0.2 0 CFG=2
M  V30 17 C -1.2142 2.0305 -0.0765 0
M  V30 18 C -3.1175 0.4864 -0.1808 0 CFG=1
M  V30 19 C -2.1022 -1.4537 1.2206 0
M  V30 20 C -2.5671 1.8043 -0.756 0
M  V30 21 O -3.9065 -0.1831 -1.155 0
M  V30 22 C -4.1226 0.799 0.9806 0
M  V30 23 C -5.2506 -0.0324 -0.8953 0
M  V30 24 C -5.5166 0.7172 0.3483 0
M  V30 25 O -6.1478 -0.4815 -1.6548 0
M  V30 26 H 4.8121 1.8133 -0.9548 0
M  V30 27 H 4.9663 -2.2891 -2.1987 0
M  V30 28 H 5.1922 -2.2152 -0.4247 0
M  V30 29 H 2.825 -2.7771 -0.9246 0
M  V30 30 H 2.7777 -1.4191 -2.1059 0
M  V30 31 H 3.0951 2.7254 0.4577 0
M  V30 32 H 1.047 2.5185 1.5969 0
M  V30 33 H 0.794 -1.7028 0.5434 0
M  V30 34 H 4.323 -1.2071 1.4153 0
M  V30 35 H 2.8375 -0.6531 2.2104 0
M  V30 36 H 2.9171 -2.3242 1.5524 0
M  V30 37 H 0.615 -0.0011 2.0641 0
M  V30 38 H 0.5368 0.283 -1.7642 0
M  V30 39 H 0.6828 -1.49 -1.938 0
M  V30 40 H -1.3572 1.0492 1.8123 0
M  V30 41 H -1.364 -2.0205 -1.135 0
M  V30 42 H -1.6431 -0.5314 -2.0219 0
M  V30 43 H -1.2461 2.9506 0.5474 0
M  V30 44 H -0.4304 2.1633 -0.8516 0
M  V30 45 H -2.9963 -2.0369 0.9132 0
M  V30 46 H -2.2565 -1.0657 2.2489 0
M  V30 47 H -1.2512 -2.1593 1.2827 0
M  V30 48 H -2.4158 1.7096 -1.8539 0
M  V30 49 H -3.2502 2.667 -0.5933 0
M  V30 50 H -4.0893 0.049 1.7917 0
M  V30 51 H -3.9526 1.7935 1.4488 0
M  V30 52 H -5.8979 1.7308 0.1012 0
M  V30 53 H -6.2339 0.173 0.9997 0
M  V30 END ATOM
M  V30 BEGIN BOND
M  V30 1 2 1 2
M  V30 2 1 2 3
M  V30 3 1 2 4
M  V30 4 2 3 5
M  V30 5 1 4 6
M  V30 6 1 5 7
M  V30 7 1 5 8
M  V30 8 2 7 9
M  V30 9 1 8 10
M  V30 10 1 8 11
M  V30 11 1 9 12
M  V30 12 1 10 13
M  V30 13 1 12 14
M  V30 14 1 13 15
M  V30 15 1 14 16
M  V30 16 1 14 17
M  V30 17 1 16 18
M  V30 18 1 16 19
M  V30 19 1 17 20
M  V30 20 1 18 21
M  V30 21 1 18 22
M  V30 22 1 21 23
M  V30 23 1 22 24
M  V30 24 2 23 25
M  V30 25 1 6 8
M  V30 26 1 10 12
M  V30 27 1 15 16
M  V30 28 1 18 20
M  V30 29 1 23 24
M  V30 30 1 3 26
M  V30 31 1 4 27
M  V30 32 1 4 28
M  V30 33 1 6 29
M  V30 34 1 6 30
M  V30 35 1 7 31
M  V30 36 1 9 32
M  V30 37 1 10 33
M  V30 38 1 11 34
M  V30 39 1 11 35
M  V30 40 1 11 36
M  V30 41 1 12 37
M  V30 42 1 13 38
M  V30 43 1 13 39
M  V30 44 1 14 40
M  V30 45 1 15 41
M  V30 46 1 15 42
M  V30 47 1 17 43
M  V30 48 1 17 44
M  V30 49 1 19 45
M  V30 50 1 19 46
M  V30 51 1 19 47
M  V30 52 1 20 48
M  V30 53 1 20 49
M  V30 54 1 22 50
M  V30 55 1 22 51
M  V30 56 1 24 52
M  V30 57 1 24 53
M  V30 END BOND
M  V30 BEGIN COLLECTION
M  V30 MDLV30/STEABS ATOMS=(6 8 10 12 14 16 18)
M  V30 END COLLECTION
M  V30 END CTAB
M  END
>  <Structure No>
2622

>  <LogS>
-4.100706158

>  <MMFF94 Energy>
68.135

$$$$
Compound 2623
Actelion Java MolfileCreator 2.0

  0  0  0  0  0  0              0 V3000
M  V30 BEGIN CTAB
M  V30 COUNTS 69 68 0 0 0
M  V30 BEGIN ATOM
M  V30 1 S -8.5797 -2.8002 0.5595 0
M  V30 2 O -8.8026 -3.6139 -0.6849 0
M  V30 3 O -9.9029 -2.5421 1.2243 0
M  V30 4 O -7.5895 -3.6584 1.6129 0 CHG=-1
M  V30 5 C -7.8108 -1.2416 0.1272 0 CFG=2
M  V30 6 C -6.5191 -1.4943 -0.6016 0
M  V30 7 C -7.5936 -0.3805 1.3845 0
M  V30 8 O -5.582 -2.1265 -0.0444 0
M  V30 9 O -6.3481 -1.016 -1.8955 0 CHG=-1
M  V30 10 C -7.0615 0.9848 1.0445 0
M  V30 11 O -7.7134 1.7277 0.2624 0
M  V30 12 N -5.8403 1.4532 1.6334 0
M  V30 13 C -5.2723 2.7527 1.2703 0
M  V30 14 C -3.9468 3.0288 1.9992 0
M  V30 15 C -2.7082 2.4627 1.2786 0
M  V30 16 C -2.5449 0.9332 1.4099 0
M  V30 17 C -3.0277 0.141 0.1782 0
M  V30 18 C -2.1654 0.3125 -1.0877 0
M  V30 19 C -0.6996 -0.0969 -0.8786 0
M  V30 20 C 0.0444 -0.2137 -2.2138 0
M  V30 21 C 1.4946 -0.5413 -1.9852 0
M  V30 22 C 2.3595 0.3872 -1.552 0
M  V30 23 C 3.7956 0.0564 -1.2518 0
M  V30 24 C 4.5661 -0.3244 -2.5268 0
M  V30 25 C 6.0833 -0.406 -2.2942 0
M  V30 26 C 6.4919 -1.6324 -1.4586 0
M  V30 27 C 8.0075 -1.6567 -1.1657 0
M  V30 28 C 8.3695 -1.1803 0.253 0
M  V30 29 C 8.0426 0.2998 0.4918 0
M  V30 30 C 8.5536 0.7654 1.852 0
M  V30 31 H -8.5102 -0.71 -0.556 0
M  V30 32 H -6.9036 -0.9008 2.0832 0
M  V30 33 H -8.5623 -0.2472 1.9109 0
M  V30 34 H -5.3773 0.8596 2.3582 0
M  V30 35 H -5.1277 2.8075 0.1695 0
M  V30 36 H -5.9998 3.5433 1.5546 0
M  V30 37 H -3.8199 4.1336 2.05 0
M  V30 38 H -3.9898 2.671 3.0519 0
M  V30 39 H -1.8164 2.9348 1.7459 0
M  V30 40 H -2.7046 2.7928 0.2192 0
M  V30 41 H -3.0875 0.5659 2.3068 0
M  V30 42 H -1.48 0.6933 1.6111 0
M  V30 43 H -3.0456 -0.9386 0.4454 0
M  V30 44 H -4.0718 0.4277 -0.0655 0
M  V30 45 H -2.2109 1.36 -1.4517 0
M  V30 46 H -2.6108 -0.3256 -1.8828 0
M  V30 47 H -0.6546 -1.0761 -0.3515 0
M  V30 48 H -0.1943 0.6695 -0.2516 0
M  V30 49 H -0.4137 -1.0276 -2.8175 0
M  V30 50 H -0.0402 0.7344 -2.7904 0
M  V30 51 H 1.8342 -1.5581 -2.1649 0
M  V30 52 H 2.0144 1.4026 -1.3716 0
M  V30 53 H 4.2674 0.9488 -0.7846 0
M  V30 54 H 3.8228 -0.7746 -0.5155 0
M  V30 55 H 4.1945 -1.2953 -2.9226 0
M  V30 56 H 4.3808 0.4508 -3.3025 0
M  V30 57 H 6.5829 -0.4759 -3.2856 0
M  V30 58 H 6.4356 0.533 -1.8198 0
M  V30 59 H 6.2251 -2.5458 -2.0346 0
M  V30 60 H 5.9213 -1.6726 -0.5071 0
M  V30 61 H 8.3595 -2.7077 -1.2593 0
M  V30 62 H 8.5748 -1.0664 -1.9205 0
M  V30 63 H 9.4613 -1.3364 0.3978 0
M  V30 64 H 7.8384 -1.807 1.0036 0
M  V30 65 H 6.9421 0.4502 0.4649 0
M  V30 66 H 8.5099 0.9229 -0.3014 0
M  V30 67 H 8.3055 1.8386 1.9962 0
M  V30 68 H 8.076 0.1777 2.6648 0
M  V30 69 H 9.6559 0.6477 1.9135 0
M  V30 END ATOM
M  V30 BEGIN BOND
M  V30 1 2 1 2
M  V30 2 2 1 3
M  V30 3 1 1 4
M  V30 4 1 1 5
M  V30 5 1 5 6
M  V30 6 1 5 7
M  V30 7 2 6 8
M  V30 8 1 6 9
M  V30 9 1 7 10
M  V30 10 2 10 11
M  V30 11 1 10 12
M  V30 12 1 12 13
M  V30 13 1 13 14
M  V30 14 1 14 15
M  V30 15 1 15 16
M  V30 16 1 16 17
M  V30 17 1 17 18
M  V30 18 1 18 19
M  V30 19 1 19 20
M  V30 20 1 20 21
M  V30 21 2 21 22
M  V30 22 1 22 23
M  V30 23 1 23 24
M  V30 24 1 24 25
M  V30 25 1 25 26
M  V30 26 1 26 27
M  V30 27 1 27 28
M  V30 28 1 28 29
M  V30 29 1 29 30
M  V30 30 1 5 31
M  V30 31 1 7 32
M  V30 32 1 7 33
M  V30 33 1 12 34
M  V30 34 1 13 35
M  V30 35 1 13 36
M  V30 36 1 14 37
M  V30 37 1 14 38
M  V30 38 1 15 39
M  V30 39 1 15 40
M  V30 40 1 16 41
M  V30 41 1 16 42
M  V30 42 1 17 43
M  V30 43 1 17 44
M  V30 44 1 18 45
M  V30 45 1 18 46
M  V30 46 1 19 47
M  V30 47 1 19 48
M  V30 48 1 20 49
M  V30 49 1 20 50
M  V30 50 1 21 51
M  V30 51 1 22 52
M  V30 52 1 23 53
M  V30 53 1 23 54
M  V30 54 1 24 55
M  V30 55 1 24 56
M  V30 56 1 25 57
M  V30 57 1 25 58
M  V30 58 1 26 59
M  V30 59 1 26 60
M  V30 60 1 27 61
M  V30 61 1 27 62
M  V30 62 1 28 63
M  V30 63 1 28 64
M  V30 64 1 29 65
M  V30 65 1 29 66
M  V30 66 1 30 67
M  V30 67 1 30 68
M  V30 68 1 30 69
M  V30 END BOND
M  V30 BEGIN COLLECTION
M  V30 MDLV30/STEABS ATOMS=(1 5)
M  V30 END COLLECTION
M  V30 END CTAB
M  END
>  <Structure No>
2623

>  <LogS>
-0.019515783

>  <MMFF94 Energy>
-22.283

$$$$
Compound 2624
Actelion Java MolfileCreator 2.0

  0  0  0  0  0  0              0 V3000
M  V30 BEGIN CTAB
M  V30 COUNTS 27 26 0 0 0
M  V30 BEGIN ATOM
M  V30 1 F -2.8223 0.8295 1.9086 0
M  V30 2 C -2.321 -0.1303 1.0436 0
M  V30 3 F -2.4453 -1.3641 1.6634 0
M  V30 4 C -3.1612 -0.1327 -0.2612 0
M  V30 5 C -0.8177 0.1782 0.8325 0
M  V30 6 F -2.924 1.022 -0.9882 0
M  V30 7 F -2.8129 -1.2246 -1.0383 0
M  V30 8 C -4.6659 -0.2276 0.0287 0
M  V30 9 F -0.6747 1.4551 0.3164 0
M  V30 10 F -0.1968 0.1505 2.0712 0
M  V30 11 C -0.1067 -0.8295 -0.0875 0
M  V30 12 F -5.1203 0.9263 0.6428 0
M  V30 13 F -5.3587 -0.3978 -1.1566 0
M  V30 14 O 1.3101 -0.6849 0.0049 0
M  V30 15 C 2.0377 0.3012 -0.6733 0
M  V30 16 O 1.4577 1.0709 -1.4886 0
M  V30 17 C 3.4932 0.4227 -0.434 0
M  V30 18 C 4.2352 1.2922 -1.1302 0
M  V30 19 C 4.1518 -0.4963 0.557 0
M  V30 20 H -4.8779 -1.0969 0.6868 0
M  V30 21 H -0.3637 -1.8625 0.2283 0
M  V30 22 H -0.4279 -0.7022 -1.1433 0
M  V30 23 H 3.7926 1.9497 -1.8679 0
M  V30 24 H 5.3048 1.361 -0.976 0
M  V30 25 H 4.2805 -1.4999 0.1006 0
M  V30 26 H 3.5228 -0.5903 1.4673 0
M  V30 27 H 5.1469 -0.1148 0.8727 0
M  V30 END ATOM
M  V30 BEGIN BOND
M  V30 1 1 1 2
M  V30 2 1 2 3
M  V30 3 1 2 4
M  V30 4 1 2 5
M  V30 5 1 4 6
M  V30 6 1 4 7
M  V30 7 1 4 8
M  V30 8 1 5 9
M  V30 9 1 5 10
M  V30 10 1 5 11
M  V30 11 1 8 12
M  V30 12 1 8 13
M  V30 13 1 11 14
M  V30 14 1 14 15
M  V30 15 2 15 16
M  V30 16 1 15 17
M  V30 17 2 17 18
M  V30 18 1 17 19
M  V30 19 1 8 20
M  V30 20 1 11 21
M  V30 21 1 11 22
M  V30 22 1 18 23
M  V30 23 1 18 24
M  V30 24 1 19 25
M  V30 25 1 19 26
M  V30 26 1 19 27
M  V30 END BOND
M  V30 END CTAB
M  END
>  <Structure No>
2624

>  <LogS>
-4.045967349

>  <MMFF94 Energy>
60.673

$$$$
Compound 2625
Actelion Java MolfileCreator 2.0

  0  0  0  0  0  0              0 V3000
M  V30 BEGIN CTAB
M  V30 COUNTS 28 27 0 0 0
M  V30 BEGIN ATOM
M  V30 1 O 4.7873 1.0971 -0.5484 0
M  V30 2 C 4.357 0.0982 0.0858 0
M  V30 3 O 5.2112 -0.9617 0.3623 0 CHG=-1
M  V30 4 C 2.9194 0.0276 0.494 0
M  V30 5 C 2.0757 -0.5974 -0.6247 0
M  V30 6 C 0.6152 -0.8353 -0.2062 0
M  V30 7 C -0.1816 0.4798 -0.0704 0
M  V30 8 C -1.7054 0.3067 0.2093 0
M  V30 9 C -2.412 -0.4016 -0.9665 0
M  V30 10 C -1.9448 -0.4894 1.5095 0
M  V30 11 C -2.3259 1.7105 0.3745 0
M  V30 12 H 2.5609 1.0538 0.7213 0
M  V30 13 H 2.8366 -0.5836 1.4185 0
M  V30 14 H 2.5175 -1.5813 -0.8979 0
M  V30 15 H 2.1091 0.0478 -1.5301 0
M  V30 16 H 0.1515 -1.473 -0.9861 0
M  V30 17 H 0.5995 -1.399 0.7503 0
M  V30 18 H 0.2606 1.0753 0.757 0
M  V30 19 H -0.052 1.0718 -1.0038 0
M  V30 20 H -2.1804 0.1071 -1.9268 0
M  V30 21 H -3.5143 -0.3897 -0.8236 0
M  V30 22 H -2.1044 -1.4647 -1.0443 0
M  V30 23 H -3.0257 -0.4989 1.7685 0
M  V30 24 H -1.6214 -1.5455 1.3994 0
M  V30 25 H -1.387 -0.0337 2.356 0
M  V30 26 H -2.1809 2.3146 -0.5472 0
M  V30 27 H -1.8545 2.2517 1.2235 0
M  V30 28 H -3.4174 1.6415 0.5742 0
M  V30 END ATOM
M  V30 BEGIN BOND
M  V30 1 2 1 2
M  V30 2 1 2 3
M  V30 3 1 2 4
M  V30 4 1 4 5
M  V30 5 1 5 6
M  V30 6 1 6 7
M  V30 7 1 7 8
M  V30 8 1 8 9
M  V30 9 1 8 10
M  V30 10 1 8 11
M  V30 11 1 4 12
M  V30 12 1 4 13
M  V30 13 1 5 14
M  V30 14 1 5 15
M  V30 15 1 6 16
M  V30 16 1 6 17
M  V30 17 1 7 18
M  V30 18 1 7 19
M  V30 19 1 9 20
M  V30 20 1 9 21
M  V30 21 1 9 22
M  V30 22 1 10 23
M  V30 23 1 10 24
M  V30 24 1 10 25
M  V30 25 1 11 26
M  V30 26 1 11 27
M  V30 27 1 11 28
M  V30 END BOND
M  V30 END CTAB
M  END
>  <Structure No>
2625

>  <LogS>
-2.475043149

>  <MMFF94 Energy>
16.415

$$$$
Compound 2626
Actelion Java MolfileCreator 2.0

  0  0  0  0  0  0              0 V3000
M  V30 BEGIN CTAB
M  V30 COUNTS 36 37 0 0 0
M  V30 BEGIN ATOM
M  V30 1 O -5.6992 -0.8691 0.632 0
M  V30 2 C -5.2031 -0.2838 -0.5565 0
M  V30 3 C -5.9234 0.1244 1.6087 0
M  V30 4 C -3.702 -0.1756 -0.5051 0
M  V30 5 C -3.0805 1.0755 -0.3794 0
M  V30 6 C -2.9128 -1.3336 -0.5499 0
M  V30 7 C -1.6876 1.1683 -0.3107 0
M  V30 8 C -1.5197 -1.2425 -0.4827 0
M  V30 9 C -0.8908 0.0102 -0.363 0
M  V30 10 C 0.5894 0.1082 -0.2894 0
M  V30 11 C 1.4013 -0.7035 -1.1021 0
M  V30 12 C 1.2029 1.0106 0.5983 0
M  V30 13 C 2.7944 -0.6105 -1.032 0
M  V30 14 C 2.5961 1.1017 0.6681 0
M  V30 15 C 3.401 0.3031 -0.1574 0
M  V30 16 C 4.8975 0.3735 -0.0538 0
M  V30 17 O 5.3304 -0.5474 0.9242 0
M  V30 18 C 6.7349 -0.4898 1.0319 0
M  V30 19 H -5.4747 -0.9481 -1.4041 0
M  V30 20 H -5.6779 0.6993 -0.7878 0
M  V30 21 H -4.993 0.6903 1.8361 0
M  V30 22 H -6.2523 -0.3692 2.546 0
M  V30 23 H -6.7334 0.8183 1.2923 0
M  V30 24 H -3.6737 1.9806 -0.335 0
M  V30 25 H -3.3781 -2.3083 -0.6325 0
M  V30 26 H -1.2329 2.1479 -0.2325 0
M  V30 27 H -0.9354 -2.1538 -0.5043 0
M  V30 28 H 0.9593 -1.4007 -1.8027 0
M  V30 29 H 0.6056 1.6311 1.2548 0
M  V30 30 H 3.4 -1.2495 -1.6628 0
M  V30 31 H 3.0472 1.7933 1.3692 0
M  V30 32 H 5.3434 0.136 -1.0473 0
M  V30 33 H 5.1954 1.4123 0.22 0
M  V30 34 H 7.2249 -0.773 0.0738 0
M  V30 35 H 7.0733 0.5186 1.3591 0
M  V30 36 H 7.0602 -1.2184 1.8027 0
M  V30 END ATOM
M  V30 BEGIN BOND
M  V30 1 1 1 2
M  V30 2 1 1 3
M  V30 3 1 2 4
M  V30 4 2 4 5
M  V30 5 1 4 6
M  V30 6 1 5 7
M  V30 7 2 6 8
M  V30 8 2 7 9
M  V30 9 1 9 10
M  V30 10 2 10 11
M  V30 11 1 10 12
M  V30 12 1 11 13
M  V30 13 2 12 14
M  V30 14 2 13 15
M  V30 15 1 15 16
M  V30 16 1 16 17
M  V30 17 1 17 18
M  V30 18 1 8 9
M  V30 19 1 14 15
M  V30 20 1 2 19
M  V30 21 1 2 20
M  V30 22 1 3 21
M  V30 23 1 3 22
M  V30 24 1 3 23
M  V30 25 1 5 24
M  V30 26 1 6 25
M  V30 27 1 7 26
M  V30 28 1 8 27
M  V30 29 1 11 28
M  V30 30 1 12 29
M  V30 31 1 13 30
M  V30 32 1 14 31
M  V30 33 1 16 32
M  V30 34 1 16 33
M  V30 35 1 18 34
M  V30 36 1 18 35
M  V30 37 1 18 36
M  V30 END BOND
M  V30 END CTAB
M  END
>  <Structure No>
2626

>  <LogS>
-4.002368633

>  <MMFF94 Energy>
62.361

$$$$
Compound 2627
Actelion Java MolfileCreator 2.0

  0  0  0  0  0  0              0 V3000
M  V30 BEGIN CTAB
M  V30 COUNTS 94 93 0 0 0
M  V30 BEGIN ATOM
M  V30 1 O 0.4708 0.0 -0.4708 0
M  V30 2 C -0.1206 0.5923 -1.4147 0
M  V30 3 O 0.2549 0.3615 -2.7414 0
M  V30 4 O -1.1336 1.5178 -1.1492 0
M  V30 5 O 1.0162 -0.7084 -3.1344 0
M  V30 6 C -1.6815 1.731 0.1516 0
M  V30 7 C 0.876 -1.9911 -2.5971 0
M  V30 8 C -2.5487 0.5434 0.6 0
M  V30 9 O -0.1582 -2.3007 -1.9454 0
M  V30 10 O 1.8815 -2.9345 -2.8251 0
M  V30 11 C -3.6013 0.1192 -0.4385 0
M  V30 12 C 1.9072 -4.2198 -2.2047 0
M  V30 13 C -4.6739 1.1934 -0.6703 0
M  V30 14 C 2.2396 -4.1168 -0.707 0
M  V30 15 C -5.7454 0.694 -1.6503 0
M  V30 16 C 3.488 -3.268 -0.4106 0
M  V30 17 C -6.7624 1.786 -2.0271 0
M  V30 18 C 4.7786 -3.9037 -0.9548 0
M  V30 19 C -7.5976 2.3357 -0.8524 0
M  V30 20 C 6.0383 -3.1206 -0.5515 0
M  V30 21 C -8.3692 1.2785 -0.0414 0
M  V30 22 C 6.1495 -1.7718 -1.2804 0
M  V30 23 C -9.4175 0.5298 -0.8799 0
M  V30 24 C 7.4994 -1.1003 -1.0002 0
M  V30 25 C -10.1736 -0.5384 -0.0725 0
M  V30 26 C 7.5949 0.2556 -1.7172 0
M  V30 27 C -11.0975 0.0474 1.0166 0
M  V30 28 C 8.9885 0.8927 -1.5998 0
M  V30 29 C -10.5217 -0.1442 2.4274 0
M  V30 30 C 9.2871 1.4109 -0.1852 0
M  V30 31 C -11.4294 0.497 3.4838 0
M  V30 32 C 10.6312 2.1535 -0.147 0
M  V30 33 C -10.891 0.2581 4.8912 0
M  V30 34 C 10.9337 2.7604 1.2322 0
M  V30 35 C 11.3073 1.6975 2.2759 0
M  V30 36 C 11.7369 2.3458 3.5894 0
M  V30 37 H -2.2954 2.6553 0.1339 0
M  V30 38 H -0.8631 1.8969 0.8858 0
M  V30 39 H -1.8882 -0.3267 0.8042 0
M  V30 40 H -3.0525 0.8012 1.5568 0
M  V30 41 H -4.0959 -0.8053 -0.0671 0
M  V30 42 H -3.1033 -0.1341 -1.3995 0
M  V30 43 H 0.9262 -4.7257 -2.339 0
M  V30 44 H 2.6687 -4.8464 -2.7132 0
M  V30 45 H -4.2038 2.1075 -1.0917 0
M  V30 46 H -5.1453 1.4462 0.3036 0
M  V30 47 H 2.3745 -5.1398 -0.2925 0
M  V30 48 H 1.3742 -3.6626 -0.178 0
M  V30 49 H -5.2463 0.3625 -2.5873 0
M  V30 50 H -6.2662 -0.1931 -1.2328 0
M  V30 51 H 3.3481 -2.2507 -0.8318 0
M  V30 52 H 3.5772 -3.1609 0.6921 0
M  V30 53 H -6.2169 2.635 -2.4938 0
M  V30 54 H -7.4412 1.3892 -2.8109 0
M  V30 55 H 4.7366 -3.9777 -2.062 0
M  V30 56 H 4.8674 -4.9355 -0.5496 0
M  V30 57 H -6.9326 2.8981 -0.1627 0
M  V30 58 H -8.3236 3.0747 -1.2563 0
M  V30 59 H 6.9235 -3.7434 -0.8084 0
M  V30 60 H 6.0481 -2.9589 0.5486 0
M  V30 61 H -8.8848 1.8152 0.7829 0
M  V30 62 H -7.6646 0.5601 0.4269 0
M  V30 63 H 5.3361 -1.0943 -0.9413 0
M  V30 64 H 6.0426 -1.9342 -2.3758 0
M  V30 65 H -8.9123 0.0087 -1.7197 0
M  V30 66 H -10.1414 1.2532 -1.3157 0
M  V30 67 H 8.3191 -1.7637 -1.3546 0
M  V30 68 H 7.6074 -0.9538 0.0963 0
M  V30 69 H -9.4497 -1.2666 0.3562 0
M  V30 70 H -10.8036 -1.1101 -0.7897 0
M  V30 71 H 7.3797 0.1058 -2.7984 0
M  V30 72 H 6.8256 0.9522 -1.3156 0
M  V30 73 H -11.2956 1.1261 0.8293 0
M  V30 74 H -12.0792 -0.4753 0.9681 0
M  V30 75 H 9.0351 1.7452 -2.3117 0
M  V30 76 H 9.765 0.1584 -1.9051 0
M  V30 77 H -9.5103 0.3113 2.4902 0
M  V30 78 H -10.4265 -1.2333 2.6356 0
M  V30 79 H 9.3225 0.554 0.5161 0
M  V30 80 H 8.4764 2.1008 0.1345 0
M  V30 81 H -11.4934 1.592 3.3039 0
M  V30 82 H -12.4529 0.0676 3.4124 0
M  V30 83 H 10.6004 2.9836 -0.8861 0
M  V30 84 H 11.4542 1.4674 -0.4459 0
M  V30 85 H -10.8594 -0.8297 5.1107 0
M  V30 86 H -9.871 0.6839 4.9922 0
M  V30 87 H -11.556 0.7494 5.6317 0
M  V30 88 H 10.0587 3.3494 1.586 0
M  V30 89 H 11.7877 3.4633 1.1164 0
M  V30 90 H 12.1445 1.0724 1.8951 0
M  V30 91 H 10.4371 1.0385 2.4792 0
M  V30 92 H 10.9106 2.9626 4.0041 0
M  V30 93 H 11.9952 1.5564 4.3264 0
M  V30 94 H 12.6301 2.987 3.4294 0
M  V30 END ATOM
M  V30 BEGIN BOND
M  V30 1 2 1 2
M  V30 2 1 2 3
M  V30 3 1 2 4
M  V30 4 1 3 5
M  V30 5 1 4 6
M  V30 6 1 5 7
M  V30 7 1 6 8
M  V30 8 2 7 9
M  V30 9 1 7 10
M  V30 10 1 8 11
M  V30 11 1 10 12
M  V30 12 1 11 13
M  V30 13 1 12 14
M  V30 14 1 13 15
M  V30 15 1 14 16
M  V30 16 1 15 17
M  V30 17 1 16 18
M  V30 18 1 17 19
M  V30 19 1 18 20
M  V30 20 1 19 21
M  V30 21 1 20 22
M  V30 22 1 21 23
M  V30 23 1 22 24
M  V30 24 1 23 25
M  V30 25 1 24 26
M  V30 26 1 25 27
M  V30 27 1 26 28
M  V30 28 1 27 29
M  V30 29 1 28 30
M  V30 30 1 29 31
M  V30 31 1 30 32
M  V30 32 1 31 33
M  V30 33 1 32 34
M  V30 34 1 34 35
M  V30 35 1 35 36
M  V30 36 1 6 37
M  V30 37 1 6 38
M  V30 38 1 8 39
M  V30 39 1 8 40
M  V30 40 1 11 41
M  V30 41 1 11 42
M  V30 42 1 12 43
M  V30 43 1 12 44
M  V30 44 1 13 45
M  V30 45 1 13 46
M  V30 46 1 14 47
M  V30 47 1 14 48
M  V30 48 1 15 49
M  V30 49 1 15 50
M  V30 50 1 16 51
M  V30 51 1 16 52
M  V30 52 1 17 53
M  V30 53 1 17 54
M  V30 54 1 18 55
M  V30 55 1 18 56
M  V30 56 1 19 57
M  V30 57 1 19 58
M  V30 58 1 20 59
M  V30 59 1 20 60
M  V30 60 1 21 61
M  V30 61 1 21 62
M  V30 62 1 22 63
M  V30 63 1 22 64
M  V30 64 1 23 65
M  V30 65 1 23 66
M  V30 66 1 24 67
M  V30 67 1 24 68
M  V30 68 1 25 69
M  V30 69 1 25 70
M  V30 70 1 26 71
M  V30 71 1 26 72
M  V30 72 1 27 73
M  V30 73 1 27 74
M  V30 74 1 28 75
M  V30 75 1 28 76
M  V30 76 1 29 77
M  V30 77 1 29 78
M  V30 78 1 30 79
M  V30 79 1 30 80
M  V30 80 1 31 81
M  V30 81 1 31 82
M  V30 82 1 32 83
M  V30 83 1 32 84
M  V30 84 1 33 85
M  V30 85 1 33 86
M  V30 86 1 33 87
M  V30 87 1 34 88
M  V30 88 1 34 89
M  V30 89 1 35 90
M  V30 90 1 35 91
M  V30 91 1 36 92
M  V30 92 1 36 93
M  V30 93 1 36 94
M  V30 END BOND
M  V30 END CTAB
M  END
>  <Structure No>
2627

>  <LogS>
-4.349900579

>  <MMFF94 Energy>
-18.88

$$$$
Compound 2628
Actelion Java MolfileCreator 2.0

  0  0  0  0  0  0              0 V3000
M  V30 BEGIN CTAB
M  V30 COUNTS 22 24 0 0 0
M  V30 BEGIN ATOM
M  V30 1 C -1.2167 1.5414 -0.081 0
M  V30 2 C -2.0149 0.7214 -0.7508 0
M  V30 3 C -0.2896 0.8032 0.8277 0 CFG=2
M  V30 4 C -1.7836 -0.7149 -0.4184 0
M  V30 5 C 1.212 0.88 0.4415 0 CFG=2
M  V30 6 C -0.6232 -0.687 0.5952 0 CFG=1
M  V30 7 C 1.3579 0.6298 -1.0394 0
M  V30 8 C 1.7017 -0.4612 0.9612 0
M  V30 9 C 0.7356 -1.2553 0.0972 0 CFG=2
M  V30 10 C 1.0692 -0.6541 -1.2465 0
M  V30 11 H -1.2362 2.6207 -0.1897 0
M  V30 12 H -2.7621 1.0654 -1.4583 0
M  V30 13 H -0.4553 1.0999 1.887 0
M  V30 14 H -2.6986 -1.1356 0.0506 0
M  V30 15 H -1.5406 -1.2949 -1.3336 0
M  V30 16 H 1.7566 1.7692 0.823 0
M  V30 17 H -0.9228 -1.1788 1.5486 0
M  V30 18 H 1.7102 1.3288 -1.7903 0
M  V30 19 H 1.5378 -0.6005 2.0558 0
M  V30 20 H 2.773 -0.6611 0.7192 0
M  V30 21 H 0.8388 -2.3593 0.1557 0
M  V30 22 H 1.149 -1.175 -2.1945 0
M  V30 END ATOM
M  V30 BEGIN BOND
M  V30 1 2 1 2
M  V30 2 1 1 3
M  V30 3 1 2 4
M  V30 4 1 3 5
M  V30 5 1 3 6
M  V30 6 1 5 7
M  V30 7 1 5 8
M  V30 8 1 6 9
M  V30 9 2 7 10
M  V30 10 1 4 6
M  V30 11 1 8 9
M  V30 12 1 9 10
M  V30 13 1 1 11
M  V30 14 1 2 12
M  V30 15 1 3 13
M  V30 16 1 4 14
M  V30 17 1 4 15
M  V30 18 1 5 16
M  V30 19 1 6 17
M  V30 20 1 7 18
M  V30 21 1 8 19
M  V30 22 1 8 20
M  V30 23 1 9 21
M  V30 24 1 10 22
M  V30 END BOND
M  V30 BEGIN COLLECTION
M  V30 MDLV30/STEABS ATOMS=(4 3 5 6 9)
M  V30 END COLLECTION
M  V30 END CTAB
M  END
>  <Structure No>
2628

>  <LogS>
-3.82022117

>  <MMFF94 Energy>
58.186

$$$$
Compound 2629
Actelion Java MolfileCreator 2.0

  0  0  0  0  0  0              0 V3000
M  V30 BEGIN CTAB
M  V30 COUNTS 40 39 0 0 0
M  V30 BEGIN ATOM
M  V30 1 O 4.9866 0.0 0.2333 0
M  V30 2 C 4.0578 0.1464 1.0134 0
M  V30 3 C 2.9561 -0.8818 1.0583 0
M  V30 4 C 4.0426 1.3455 1.9146 0
M  V30 5 C 2.1339 -0.8967 -0.2378 0
M  V30 6 C 1.3157 0.3981 -0.4137 0
M  V30 7 C 0.4222 0.4275 -1.6807 0 CFG=2
M  V30 8 C -0.612 -0.7246 -1.765 0
M  V30 9 C 1.2689 0.4696 -2.9618 0
M  V30 10 C -1.5255 -0.8799 -0.534 0
M  V30 11 C -2.408 0.3593 -0.285 0
M  V30 12 C -3.4413 0.1918 0.8542 0
M  V30 13 C -4.5042 -0.8686 0.5355 0
M  V30 14 C -2.7784 -0.0861 2.2103 0
M  V30 15 H 3.4154 -1.8829 1.2063 0
M  V30 16 H 2.2807 -0.7032 1.9231 0
M  V30 17 H 4.9398 1.3306 2.5682 0
M  V30 18 H 4.0555 2.2701 1.3004 0
M  V30 19 H 3.1351 1.3601 2.554 0
M  V30 20 H 2.8152 -1.046 -1.102 0
M  V30 21 H 1.4492 -1.7685 -0.1888 0
M  V30 22 H 2.0112 1.2643 -0.4574 0
M  V30 23 H 0.6833 0.5595 0.4852 0
M  V30 24 H -0.1385 1.3869 -1.6567 0
M  V30 25 H -0.0844 -1.688 -1.9337 0
M  V30 26 H -1.2561 -0.5622 -2.6575 0
M  V30 27 H 1.7941 -0.4941 -3.1277 0
M  V30 28 H 2.0202 1.2861 -2.9049 0
M  V30 29 H 0.6172 0.6654 -3.8401 0
M  V30 30 H -2.1737 -1.761 -0.7201 0
M  V30 31 H -0.914 -1.1095 0.3618 0
M  V30 32 H -1.7611 1.2257 -0.031 0
M  V30 33 H -2.948 0.618 -1.2222 0
M  V30 34 H -3.9732 1.1653 0.9455 0
M  V30 35 H -5.3242 -0.8155 1.2834 0
M  V30 36 H -4.0755 -1.8919 0.5668 0
M  V30 37 H -4.9418 -0.6877 -0.4691 0
M  V30 38 H -3.535 -0.019 3.021 0
M  V30 39 H -2.3304 -1.1017 2.2366 0
M  V30 40 H -1.9858 0.6652 2.4135 0
M  V30 END ATOM
M  V30 BEGIN BOND
M  V30 1 2 1 2
M  V30 2 1 2 3
M  V30 3 1 2 4
M  V30 4 1 3 5
M  V30 5 1 5 6
M  V30 6 1 6 7
M  V30 7 1 7 8
M  V30 8 1 7 9
M  V30 9 1 8 10
M  V30 10 1 10 11
M  V30 11 1 11 12
M  V30 12 1 12 13
M  V30 13 1 12 14
M  V30 14 1 3 15
M  V30 15 1 3 16
M  V30 16 1 4 17
M  V30 17 1 4 18
M  V30 18 1 4 19
M  V30 19 1 5 20
M  V30 20 1 5 21
M  V30 21 1 6 22
M  V30 22 1 6 23
M  V30 23 1 7 24
M  V30 24 1 8 25
M  V30 25 1 8 26
M  V30 26 1 9 27
M  V30 27 1 9 28
M  V30 28 1 9 29
M  V30 29 1 10 30
M  V30 30 1 10 31
M  V30 31 1 11 32
M  V30 32 1 11 33
M  V30 33 1 12 34
M  V30 34 1 13 35
M  V30 35 1 13 36
M  V30 36 1 13 37
M  V30 37 1 14 38
M  V30 38 1 14 39
M  V30 39 1 14 40
M  V30 END BOND
M  V30 BEGIN COLLECTION
M  V30 MDLV30/STEABS ATOMS=(1 7)
M  V30 END COLLECTION
M  V30 END CTAB
M  END
>  <Structure No>
2629

>  <LogS>
-4.005176134

>  <MMFF94 Energy>
11.021

$$$$
Compound 2630
Actelion Java MolfileCreator 2.0

  0  0  0  0  0  0              0 V3000
M  V30 BEGIN CTAB
M  V30 COUNTS 22 22 0 0 0
M  V30 BEGIN ATOM
M  V30 1 C 1.4109 1.4894 -0.3134 0
M  V30 2 C 0.2354 2.0198 0.0629 0
M  V30 3 C 1.8857 0.1047 0.0479 0
M  V30 4 C -0.8595 1.2535 0.7559 0
M  V30 5 C 1.0905 -1.0283 -0.6349 0
M  V30 6 C -1.6037 0.3445 -0.2418 0
M  V30 7 C 0.0102 -1.6461 0.2788 0
M  V30 8 C -1.4274 -1.1613 0.0129 0
M  V30 9 H 2.1065 2.1315 -0.8465 0
M  V30 10 H 0.0401 3.0589 -0.1876 0
M  V30 11 H 1.9097 -0.0065 1.1529 0
M  V30 12 H 2.9436 0.027 -0.2855 0
M  V30 13 H -0.4627 0.7025 1.6337 0
M  V30 14 H -1.5822 1.9946 1.1615 0
M  V30 15 H 1.8151 -1.8365 -0.8793 0
M  V30 16 H 0.6682 -0.7007 -1.6094 0
M  V30 17 H -1.3146 0.574 -1.2917 0
M  V30 18 H -2.6919 0.5674 -0.1819 0
M  V30 19 H 0.2597 -1.5066 1.3521 0
M  V30 20 H 0.0136 -2.7478 0.1246 0
M  V30 21 H -1.8284 -1.7062 -0.8695 0
M  V30 22 H -2.0571 -1.4519 0.8822 0
M  V30 END ATOM
M  V30 BEGIN BOND
M  V30 1 2 1 2
M  V30 2 1 1 3
M  V30 3 1 2 4
M  V30 4 1 3 5
M  V30 5 1 4 6
M  V30 6 1 5 7
M  V30 7 1 6 8
M  V30 8 1 7 8
M  V30 9 1 1 9
M  V30 10 1 2 10
M  V30 11 1 3 11
M  V30 12 1 3 12
M  V30 13 1 4 13
M  V30 14 1 4 14
M  V30 15 1 5 15
M  V30 16 1 5 16
M  V30 17 1 6 17
M  V30 18 1 6 18
M  V30 19 1 7 19
M  V30 20 1 7 20
M  V30 21 1 8 21
M  V30 22 1 8 22
M  V30 END BOND
M  V30 END CTAB
M  END
>  <Structure No>
2630

>  <LogS>
-3.770339988

>  <MMFF94 Energy>
15.83

$$$$
Compound 2631
Actelion Java MolfileCreator 2.0

  0  0  0  0  0  0              0 V3000
M  V30 BEGIN CTAB
M  V30 COUNTS 24 23 0 0 0
M  V30 BEGIN ATOM
M  V30 1 S -1.2682 0.4226 2.4529 0
M  V30 2 C -1.6401 0.5517 0.8595 0
M  V30 3 S -0.3542 1.1401 -0.25 0
M  V30 4 N -2.9802 0.2952 0.378 0
M  V30 5 S 0.179 -0.8282 -0.877 0
M  V30 6 C -3.3259 0.6048 -1.0135 0
M  V30 7 C -3.9949 -0.2816 1.2688 0
M  V30 8 C 1.6418 -0.878 0.1666 0
M  V30 9 S 1.5191 -1.6488 1.6105 0
M  V30 10 N 2.9045 -0.3421 -0.2936 0
M  V30 11 C 4.0657 -0.295 0.6035 0
M  V30 12 C 3.0233 0.1668 -1.6641 0
M  V30 13 H -4.3947 0.3974 -1.2305 0
M  V30 14 H -3.1402 1.6808 -1.2158 0
M  V30 15 H -2.7102 -0.0118 -1.7009 0
M  V30 16 H -3.6336 -1.2521 1.6698 0
M  V30 17 H -4.9533 -0.467 0.7398 0
M  V30 18 H -4.1959 0.4141 2.1105 0
M  V30 19 H 4.3594 -1.3259 0.893 0
M  V30 20 H 3.8119 0.2868 1.515 0
M  V30 21 H 4.941 0.1898 0.1227 0
M  V30 22 H 4.0556 0.506 -1.8917 0
M  V30 23 H 2.3393 1.0296 -1.8064 0
M  V30 24 H 2.7616 -0.635 -2.3862 0
M  V30 END ATOM
M  V30 BEGIN BOND
M  V30 1 2 1 2
M  V30 2 1 2 3
M  V30 3 1 2 4
M  V30 4 1 3 5
M  V30 5 1 4 6
M  V30 6 1 4 7
M  V30 7 1 5 8
M  V30 8 2 8 9
M  V30 9 1 8 10
M  V30 10 1 10 11
M  V30 11 1 10 12
M  V30 12 1 6 13
M  V30 13 1 6 14
M  V30 14 1 6 15
M  V30 15 1 7 16
M  V30 16 1 7 17
M  V30 17 1 7 18
M  V30 18 1 11 19
M  V30 19 1 11 20
M  V30 20 1 11 21
M  V30 21 1 12 22
M  V30 22 1 12 23
M  V30 23 1 12 24
M  V30 END BOND
M  V30 END CTAB
M  END
>  <Structure No>
2631

>  <LogS>
-4.116196121

>  <MMFF94 Energy>
-11.534

$$$$
Compound 2632
Actelion Java MolfileCreator 2.0

  0  0  0  0  0  0              0 V3000
M  V30 BEGIN CTAB
M  V30 COUNTS 60 63 0 0 0
M  V30 BEGIN ATOM
M  V30 1 O 0 0 0 0
M  V30 2 C 0 0 0 0
M  V30 3 O 0 0 0 0
M  V30 4 C 0 0 0 0
M  V30 5 C 0 0 0 0
M  V30 6 C 0 0 0 0
M  V30 7 C 0 0 0 0
M  V30 8 C 0 0 0 0
M  V30 9 C 0 0 0 0
M  V30 10 C 0 0 0 0
M  V30 11 C 0 0 0 0
M  V30 12 C 0 0 0 0
M  V30 13 C 0 0 0 0
M  V30 14 C 0 0 0 0
M  V30 15 O 0 0 0 0
M  V30 16 O 0 0 0 0
M  V30 17 C 0 0 0 0
M  V30 18 O 0 0 0 0
M  V30 19 O 0 0 0 0
M  V30 20 N 0 0 0 0 CHG=1
M  V30 21 C 0 0 0 0
M  V30 22 C 0 0 0 0
M  V30 23 C 0 0 0 0
M  V30 24 C 0 0 0 0
M  V30 25 C 0 0 0 0
M  V30 26 O 0 0 0 0
M  V30 27 O 0 0 0 0
M  V30 28 C 0 0 0 0
M  V30 29 C 0 0 0 0
M  V30 30 C 0 0 0 0
M  V30 31 C 0 0 0 0
M  V30 32 C 0 0 0 0
M  V30 33 C 0 0 0 0
M  V30 34 C 0 0 0 0
M  V30 35 C 0 0 0 0
M  V30 36 C 0 0 0 0
M  V30 37 C 0 0 0 0
M  V30 38 C 0 0 0 0
M  V30 39 C 0 0 0 0
M  V30 40 C 0 0 0 0
M  V30 41 N 0 0 0 0 CHG=1
M  V30 42 C 0 0 0 0
M  V30 43 C 0 0 0 0
M  V30 44 C 0 0 0 0
M  V30 45 C 0 0 0 0
M  V30 46 C 0 0 0 0
M  V30 47 C 0 0 0 0
M  V30 48 N 0 0 0 0 CHG=1
M  V30 49 C 0 0 0 0
M  V30 50 C 0 0 0 0
M  V30 51 C 0 0 0 0
M  V30 52 C 0 0 0 0
M  V30 53 C 0 0 0 0
M  V30 54 N 0 0 0 0 CHG=1
M  V30 55 C 0 0 0 0
M  V30 56 C 0 0 0 0
M  V30 57 C 0 0 0 0
M  V30 58 C 0 0 0 0
M  V30 59 C 0 0 0 0
M  V30 60 C 0 0 0 0
M  V30 END ATOM
M  V30 BEGIN BOND
M  V30 1 2 1 2
M  V30 2 1 2 3
M  V30 3 1 2 4
M  V30 4 1 3 5
M  V30 5 1 4 6
M  V30 6 1 4 7
M  V30 7 1 5 8
M  V30 8 1 5 9
M  V30 9 1 6 10
M  V30 10 1 6 11
M  V30 11 1 7 12
M  V30 12 1 8 13
M  V30 13 1 9 14
M  V30 14 2 10 15
M  V30 15 1 10 16
M  V30 16 1 11 17
M  V30 17 2 12 18
M  V30 18 1 12 19
M  V30 19 1 13 20
M  V30 20 1 13 21
M  V30 21 1 13 22
M  V30 22 1 14 23
M  V30 23 1 14 24
M  V30 24 1 16 25
M  V30 25 2 17 26
M  V30 26 1 17 27
M  V30 27 1 19 28
M  V30 28 1 20 29
M  V30 29 1 25 30
M  V30 30 1 25 31
M  V30 31 1 27 32
M  V30 32 1 28 33
M  V30 33 1 28 34
M  V30 34 1 30 35
M  V30 35 1 31 36
M  V30 36 1 32 37
M  V30 37 1 32 38
M  V30 38 1 33 39
M  V30 39 1 34 40
M  V30 40 1 35 41
M  V30 41 1 35 42
M  V30 42 1 35 43
M  V30 43 1 36 44
M  V30 44 1 36 45
M  V30 45 1 37 46
M  V30 46 1 38 47
M  V30 47 1 39 48
M  V30 48 1 39 49
M  V30 49 1 39 50
M  V30 50 1 40 51
M  V30 51 1 40 52
M  V30 52 1 41 53
M  V30 53 1 46 54
M  V30 54 1 46 55
M  V30 55 1 46 56
M  V30 56 1 47 57
M  V30 57 1 47 58
M  V30 58 1 48 59
M  V30 59 1 54 60
M  V30 60 1 14 20
M  V30 61 1 36 41
M  V30 62 1 40 48
M  V30 63 1 47 54
M  V30 END BOND
M  V30 END CTAB
M  END
>  <Structure No>
2632

>  <LogS>
-4.672731896

>  <MMFF94 Energy>
217.69

$$$$
Compound 2633
Actelion Java MolfileCreator 2.0

  0  0  0  0  0  0              0 V3000
M  V30 BEGIN CTAB
M  V30 COUNTS 20 20 0 0 0
M  V30 BEGIN ATOM
M  V30 1 O 2.9345 0.3169 1.0302 0
M  V30 2 C 2.4879 0.4987 -0.1339 0
M  V30 3 O 3.3514 0.9121 -1.1406 0 CHG=-1
M  V30 4 C 1.0334 0.2726 -0.4398 0
M  V30 5 C 0.6418 -1.191 -0.179 0
M  V30 6 C 0.1479 1.2194 0.3868 0
M  V30 7 C -0.8606 -1.394 -0.4203 0
M  V30 8 C -1.3365 0.9286 0.1249 0
M  V30 9 N -1.6597 -0.4785 0.4099 0 CHG=1
M  V30 10 H 0.8679 0.492 -1.5189 0
M  V30 11 H 0.8821 -1.4738 0.8701 0
M  V30 12 H 1.2142 -1.8596 -0.8585 0
M  V30 13 H 0.3562 1.093 1.4726 0
M  V30 14 H 0.3671 2.2743 0.1118 0
M  V30 15 H -1.1262 -2.445 -0.1715 0
M  V30 16 H -1.0938 -1.236 -1.4977 0
M  V30 17 H -1.9526 1.5881 0.7752 0
M  V30 18 H -1.5874 1.1728 -0.9322 0
M  V30 19 H -2.6735 -0.638 0.2045 0
M  V30 20 H -1.4941 -0.6825 1.4239 0
M  V30 END ATOM
M  V30 BEGIN BOND
M  V30 1 2 1 2
M  V30 2 1 2 3
M  V30 3 1 2 4
M  V30 4 1 4 5
M  V30 5 1 4 6
M  V30 6 1 5 7
M  V30 7 1 6 8
M  V30 8 1 7 9
M  V30 9 1 8 9
M  V30 10 1 4 10
M  V30 11 1 5 11
M  V30 12 1 5 12
M  V30 13 1 6 13
M  V30 14 1 6 14
M  V30 15 1 7 15
M  V30 16 1 7 16
M  V30 17 1 8 17
M  V30 18 1 8 18
M  V30 19 1 9 19
M  V30 20 1 9 20
M  V30 END BOND
M  V30 END CTAB
M  END
>  <Structure No>
2633

>  <LogS>
0.384031592

>  <MMFF94 Energy>
-78.156

$$$$
Compound 2634
Actelion Java MolfileCreator 2.0

  0  0  0  0  0  0              0 V3000
M  V30 BEGIN CTAB
M  V30 COUNTS 65 68 0 0 0
M  V30 BEGIN ATOM
M  V30 1 Cl -4.8765 -0.3245 0.568 0
M  V30 2 C -4.4108 1.3664 0.3965 0
M  V30 3 C -3.3289 1.8024 -0.4185 0
M  V30 4 C -5.1704 2.3047 1.1069 0
M  V30 5 C -3.0289 3.1799 -0.4527 0
M  V30 6 C -2.4051 0.8551 -1.1934 0 CFG=2
M  V30 7 C -4.867 3.6634 1.0396 0
M  V30 8 C -3.7938 4.0998 0.2655 0
M  V30 9 C -3.116 -0.2924 -1.93 0
M  V30 10 C -1.1895 0.4437 -0.3097 0 CFG=2
M  V30 11 C -2.5229 -1.5177 -2.01 0
M  V30 12 C -4.3327 0.0429 -2.7475 0
M  V30 13 C -0.4126 -0.6635 -0.9615 0
M  V30 14 C -1.5552 0.0369 1.0969 0
M  V30 15 N -1.1466 -1.6886 -1.6335 0
M  V30 16 C -3.2242 -2.7292 -2.5678 0
M  V30 17 O -4.9265 1.1424 -2.5743 0
M  V30 18 O -4.7819 -0.8119 -3.7598 0
M  V30 19 C 0.9128 -0.7828 -0.8073 0
M  V30 20 O -1.9714 -1.1301 1.3388 0
M  V30 21 O -1.4208 0.973 2.129 0
M  V30 22 C -5.909 -0.5177 -4.5763 0
M  V30 23 O 1.6409 0.163 -0.0816 0
M  V30 24 C -1.648 0.6716 3.5039 0
M  V30 25 C 3.0426 0.0372 0.1347 0
M  V30 26 C -3.139 0.6119 3.8103 0
M  V30 27 C 3.3263 -1.0347 1.1877 0
M  V30 28 N 4.763 -1.1444 1.4253 0
M  V30 29 C 5.5612 -0.2646 2.2215 0
M  V30 30 C 5.7051 -1.8497 0.6135 0
M  V30 31 O 5.0943 0.5764 3.0349 0
M  V30 32 C 6.9753 -0.4674 1.927 0
M  V30 33 O 5.3898 -2.6892 -0.2705 0
M  V30 34 C 7.0631 -1.4336 0.9466 0
M  V30 35 C 8.1119 0.1465 2.4499 0
M  V30 36 C 8.2924 -1.8433 0.4338 0
M  V30 37 C 9.3654 -0.252 1.9515 0
M  V30 38 C 9.4551 -1.2426 0.9489 0
M  V30 39 H -6.0007 1.9781 1.7204 0
M  V30 40 H -2.1929 3.5456 -1.0364 0
M  V30 41 H -1.9644 1.4448 -2.0305 0
M  V30 42 H -5.46 4.3789 1.5955 0
M  V30 43 H -3.5509 5.154 0.2239 0
M  V30 44 H -0.5402 1.3452 -0.231 0
M  V30 45 H -0.6593 -2.5762 -1.8939 0
M  V30 46 H -4.2897 -2.7514 -2.2544 0
M  V30 47 H -3.1383 -2.7438 -3.6746 0
M  V30 48 H -2.7561 -3.6559 -2.1745 0
M  V30 49 H 1.4298 -1.6268 -1.2493 0
M  V30 50 H -6.8165 -0.404 -3.9464 0
M  V30 51 H -5.7301 0.4169 -5.1487 0
M  V30 52 H -6.0682 -1.3516 -5.2901 0
M  V30 53 H -1.1597 -0.2894 3.775 0
M  V30 54 H -1.1916 1.4746 4.1198 0
M  V30 55 H 3.5543 -0.2116 -0.8208 0
M  V30 56 H 3.432 1.0136 0.4942 0
M  V30 57 H -3.6306 1.5577 3.5023 0
M  V30 58 H -3.2889 0.4688 4.9006 0
M  V30 59 H -3.6085 -0.2382 3.2769 0
M  V30 60 H 2.9333 -2.0162 0.8459 0
M  V30 61 H 2.8117 -0.7705 2.1367 0
M  V30 62 H 8.0338 0.9083 3.2146 0
M  V30 63 H 8.3521 -2.5983 -0.3394 0
M  V30 64 H 10.2665 0.2046 2.3388 0
M  V30 65 H 10.4251 -1.5398 0.5713 0
M  V30 END ATOM
M  V30 BEGIN BOND
M  V30 1 1 1 2
M  V30 2 2 2 3
M  V30 3 1 2 4
M  V30 4 1 3 5
M  V30 5 1 3 6
M  V30 6 2 4 7
M  V30 7 2 5 8
M  V30 8 1 6 9
M  V30 9 1 6 10
M  V30 10 2 9 11
M  V30 11 1 9 12
M  V30 12 1 10 13
M  V30 13 1 10 14
M  V30 14 1 11 15
M  V30 15 1 11 16
M  V30 16 2 12 17
M  V30 17 1 12 18
M  V30 18 2 13 19
M  V30 19 2 14 20
M  V30 20 1 14 21
M  V30 21 1 18 22
M  V30 22 1 19 23
M  V30 23 1 21 24
M  V30 24 1 23 25
M  V30 25 1 24 26
M  V30 26 1 25 27
M  V30 27 1 27 28
M  V30 28 1 28 29
M  V30 29 1 28 30
M  V30 30 2 29 31
M  V30 31 1 29 32
M  V30 32 2 30 33
M  V30 33 1 30 34
M  V30 34 1 32 35
M  V30 35 1 34 36
M  V30 36 2 35 37
M  V30 37 2 36 38
M  V30 38 1 7 8
M  V30 39 1 13 15
M  V30 40 2 32 34
M  V30 41 1 37 38
M  V30 42 1 4 39
M  V30 43 1 5 40
M  V30 44 1 6 41
M  V30 45 1 7 42
M  V30 46 1 8 43
M  V30 47 1 10 44
M  V30 48 1 15 45
M  V30 49 1 16 46
M  V30 50 1 16 47
M  V30 51 1 16 48
M  V30 52 1 19 49
M  V30 53 1 22 50
M  V30 54 1 22 51
M  V30 55 1 22 52
M  V30 56 1 24 53
M  V30 57 1 24 54
M  V30 58 1 25 55
M  V30 59 1 25 56
M  V30 60 1 26 57
M  V30 61 1 26 58
M  V30 62 1 26 59
M  V30 63 1 27 60
M  V30 64 1 27 61
M  V30 65 1 35 62
M  V30 66 1 36 63
M  V30 67 1 37 64
M  V30 68 1 38 65
M  V30 END BOND
M  V30 BEGIN COLLECTION
M  V30 MDLV30/STEABS ATOMS=(2 6 10)
M  V30 END COLLECTION
M  V30 END CTAB
M  END
>  <Structure No>
2634

>  <LogS>
-4.501126952

>  <MMFF94 Energy>
44.916

$$$$
Compound 2635
Actelion Java MolfileCreator 2.0

  0  0  0  0  0  0              0 V3000
M  V30 BEGIN CTAB
M  V30 COUNTS 34 34 0 0 0
M  V30 BEGIN ATOM
M  V30 1 O 2.2874 -2.5243 1.4982 0
M  V30 2 C 2.068 -1.717 0.5541 0
M  V30 3 O 3.0922 -0.909 0.0534 0
M  V30 4 C 0.6876 -1.5837 -0.0058 0
M  V30 5 C 4.4218 -0.9519 0.5606 0
M  V30 6 C -0.0428 -0.405 0.6527 0
M  V30 7 C 5.2727 0.0404 -0.1715 0
M  V30 8 C -1.5252 -0.3039 0.2269 0
M  V30 9 C 5.0334 1.3521 -0.0933 0
M  V30 10 C -2.2595 0.7081 1.1324 0
M  V30 11 C -1.6686 0.1105 -1.2554 0
M  V30 12 C -3.7313 0.855 0.7289 0
M  V30 13 C -3.1426 0.2661 -1.6513 0
M  V30 14 C -3.8575 1.2687 -0.7402 0
M  V30 15 H 0.7714 -1.4233 -1.1004 0
M  V30 16 H 0.1242 -2.5265 0.1681 0
M  V30 17 H 4.4228 -0.7142 1.6468 0
M  V30 18 H 4.8415 -1.9704 0.4149 0
M  V30 19 H 0.0029 -0.5434 1.7564 0
M  V30 20 H 0.4857 0.5438 0.4104 0
M  V30 21 H 6.1046 -0.3141 -0.7726 0
M  V30 22 H -2.0018 -1.3005 0.3678 0
M  V30 23 H 5.665 2.0524 -0.6299 0
M  V30 24 H 4.2104 1.7347 0.503 0
M  V30 25 H -2.2157 0.366 2.1895 0
M  V30 26 H -1.7618 1.7018 1.0738 0
M  V30 27 H -1.22 -0.6613 -1.9145 0
M  V30 28 H -1.1357 1.0703 -1.4362 0
M  V30 29 H -4.263 -0.1077 0.8944 0
M  V30 30 H -4.2121 1.6258 1.369 0
M  V30 31 H -3.6513 -0.7211 -1.5917 0
M  V30 32 H -3.2045 0.6192 -2.7031 0
M  V30 33 H -4.9325 1.3153 -1.0175 0
M  V30 34 H -3.4217 2.2821 -0.8833 0
M  V30 END ATOM
M  V30 BEGIN BOND
M  V30 1 2 1 2
M  V30 2 1 2 3
M  V30 3 1 2 4
M  V30 4 1 3 5
M  V30 5 1 4 6
M  V30 6 1 5 7
M  V30 7 1 6 8
M  V30 8 2 7 9
M  V30 9 1 8 10
M  V30 10 1 8 11
M  V30 11 1 10 12
M  V30 12 1 11 13
M  V30 13 1 12 14
M  V30 14 1 13 14
M  V30 15 1 4 15
M  V30 16 1 4 16
M  V30 17 1 5 17
M  V30 18 1 5 18
M  V30 19 1 6 19
M  V30 20 1 6 20
M  V30 21 1 7 21
M  V30 22 1 8 22
M  V30 23 1 9 23
M  V30 24 1 9 24
M  V30 25 1 10 25
M  V30 26 1 10 26
M  V30 27 1 11 27
M  V30 28 1 11 28
M  V30 29 1 12 29
M  V30 30 1 12 30
M  V30 31 1 13 31
M  V30 32 1 13 32
M  V30 33 1 14 33
M  V30 34 1 14 34
M  V30 END BOND
M  V30 END CTAB
M  END
>  <Structure No>
2635

>  <LogS>
-4.062449254

>  <MMFF94 Energy>
-1.6864

$$$$
Compound 2636
Actelion Java MolfileCreator 2.0

  0  0  0  0  0  0              0 V3000
M  V30 BEGIN CTAB
M  V30 COUNTS 45 46 0 0 0
M  V30 BEGIN ATOM
M  V30 1 S 2.6155 0.9802 -2.2065 0
M  V30 2 O 2.4132 -0.386 -2.8009 0
M  V30 3 O 3.7123 1.6823 -2.956 0
M  V30 4 N 1.1586 1.8983 -2.4239 0 CHG=-1
M  V30 5 C 3.0827 0.8558 -0.4956 0
M  V30 6 C -0.1558 1.4747 -2.0413 0
M  V30 7 C 4.3215 0.2861 -0.0744 0
M  V30 8 C 2.2143 1.3896 0.4753 0
M  V30 9 O -1.1295 2.2254 -2.3158 0
M  V30 10 N -0.3708 0.2258 -1.3562 0
M  V30 11 C 5.3359 -0.2712 -1.0063 0
M  V30 12 C 4.6284 0.2649 1.3007 0
M  V30 13 C 2.5372 1.3444 1.8308 0
M  V30 14 C -1.6109 -0.1516 -0.7384 0
M  V30 15 O 4.998 -0.7694 -2.1134 0
M  V30 16 O 6.6839 -0.2726 -0.629 0
M  V30 17 C 3.7408 0.7822 2.2429 0
M  V30 18 N -2.6544 0.7172 -0.6707 0
M  V30 19 N -1.7338 -1.3878 -0.1884 0
M  V30 20 C 7.7141 -0.7974 -1.4584 0
M  V30 21 C -3.8128 0.3548 -0.0654 0
M  V30 22 C -2.8894 -1.7594 0.419 0
M  V30 23 O -4.8724 1.2643 -0.0097 0
M  V30 24 N -3.9277 -0.8849 0.4796 0
M  V30 25 N -3.0037 -3.0674 0.9906 0
M  V30 26 C -6.1135 0.962 0.6197 0
M  V30 27 C -4.2073 -3.5035 1.6875 0
M  V30 28 C -7.0465 2.1575 0.5086 0
M  V30 29 H 1.2844 1.86 0.1949 0
M  V30 30 H 0.4197 -0.4482 -1.2654 0
M  V30 31 H 5.5574 -0.1654 1.6531 0
M  V30 32 H 1.8529 1.7532 2.5643 0
M  V30 33 H 3.9906 0.7518 3.2962 0
M  V30 34 H 7.5425 -1.8806 -1.6342 0
M  V30 35 H 8.6926 -0.6675 -0.9524 0
M  V30 36 H 7.7361 -0.256 -2.4277 0
M  V30 37 H -2.1983 -3.7287 0.9125 0
M  V30 38 H -5.9426 0.7285 1.693 0
M  V30 39 H -6.5817 0.083 0.125 0
M  V30 40 H -5.0781 -3.4602 0.9997 0
M  V30 41 H -4.3918 -2.8472 2.5644 0
M  V30 42 H -4.0807 -4.5491 2.0414 0
M  V30 43 H -7.2322 2.3967 -0.5608 0
M  V30 44 H -8.0144 1.9229 1.0002 0
M  V30 45 H -6.5921 3.0402 1.0079 0
M  V30 END ATOM
M  V30 BEGIN BOND
M  V30 1 2 1 2
M  V30 2 2 1 3
M  V30 3 1 1 4
M  V30 4 1 1 5
M  V30 5 1 4 6
M  V30 6 2 5 7
M  V30 7 1 5 8
M  V30 8 2 6 9
M  V30 9 1 6 10
M  V30 10 1 7 11
M  V30 11 1 7 12
M  V30 12 2 8 13
M  V30 13 1 10 14
M  V30 14 2 11 15
M  V30 15 1 11 16
M  V30 16 2 12 17
M  V30 17 2 14 18
M  V30 18 1 14 19
M  V30 19 1 16 20
M  V30 20 1 18 21
M  V30 21 2 19 22
M  V30 22 1 21 23
M  V30 23 2 21 24
M  V30 24 1 22 25
M  V30 25 1 23 26
M  V30 26 1 25 27
M  V30 27 1 26 28
M  V30 28 1 13 17
M  V30 29 1 22 24
M  V30 30 1 8 29
M  V30 31 1 10 30
M  V30 32 1 12 31
M  V30 33 1 13 32
M  V30 34 1 17 33
M  V30 35 1 20 34
M  V30 36 1 20 35
M  V30 37 1 20 36
M  V30 38 1 25 37
M  V30 39 1 26 38
M  V30 40 1 26 39
M  V30 41 1 27 40
M  V30 42 1 27 41
M  V30 43 1 27 42
M  V30 44 1 28 43
M  V30 45 1 28 44
M  V30 46 1 28 45
M  V30 END BOND
M  V30 END CTAB
M  END
>  <Structure No>
2636

>  <LogS>
-4.387910769

>  <MMFF94 Energy>
-226.18

$$$$
Compound 2637
Actelion Java MolfileCreator 2.0

  0  0  0  0  0  0              0 V3000
M  V30 BEGIN CTAB
M  V30 COUNTS 5 4 0 0 0
M  V30 BEGIN ATOM
M  V30 1 O -0.4735 1.2631 -0.3156 0
M  V30 2 C -0.4287 0.0384 -0.0274 0
M  V30 3 O 0.7931 -0.6211 0.0404 0
M  V30 4 O -1.6039 -0.6561 0.2237 0 CHG=-1
M  V30 5 H 1.6597 -0.1287 -0.14 0
M  V30 END ATOM
M  V30 BEGIN BOND
M  V30 1 2 1 2
M  V30 2 1 2 3
M  V30 3 1 2 4
M  V30 4 1 3 5
M  V30 END BOND
M  V30 END CTAB
M  END
>  <Structure No>
2637

>  <LogS>
-3.780265245

>  <MMFF94 Energy>
-89.96

$$$$
Compound 2638
Actelion Java MolfileCreator 2.0

  0  0  0  0  0  0              0 V3000
M  V30 BEGIN CTAB
M  V30 COUNTS 35 36 0 0 0
M  V30 BEGIN ATOM
M  V30 1 N -4.3322 -0.4718 2.2036 0
M  V30 2 C -3.2599 -0.7438 1.2906 0
M  V30 3 C -3.0271 0.0709 0.1573 0
M  V30 4 C -2.4224 -1.8423 1.5339 0
M  V30 5 C -1.9622 -0.2382 -0.7068 0
M  V30 6 C -3.8936 1.2651 -0.1389 0
M  V30 7 C -1.3681 -2.1388 0.6695 0
M  V30 8 C -1.1373 -1.346 -0.4618 0
M  V30 9 C 0.0247 -1.6427 -1.3706 0
M  V30 10 C 1.2509 -0.9066 -0.9022 0
M  V30 11 C 1.5049 0.3994 -1.3461 0
M  V30 12 C 2.1165 -1.4977 0.0269 0
M  V30 13 C 2.6265 1.111 -0.8853 0
M  V30 14 C 3.2333 -0.8019 0.491 0
M  V30 15 C 3.5018 0.5 0.0436 0
M  V30 16 C 2.8692 2.5091 -1.386 0
M  V30 17 N 4.6598 1.1821 0.5453 0
M  V30 18 H -4.4869 -1.0839 3.0357 0
M  V30 19 H -4.9849 0.331 2.0727 0
M  V30 20 H -2.5859 -2.4701 2.4009 0
M  V30 21 H -1.7704 0.3845 -1.5725 0
M  V30 22 H -3.8382 1.9876 0.7024 0
M  V30 23 H -3.5693 1.7899 -1.0626 0
M  V30 24 H -4.9456 0.9402 -0.2814 0
M  V30 25 H -0.7295 -2.9867 0.884 0
M  V30 26 H -0.2218 -1.3493 -2.4148 0
M  V30 27 H 0.2213 -2.7371 -1.3956 0
M  V30 28 H 0.8237 0.8618 -2.0508 0
M  V30 29 H 1.925 -2.4983 0.3946 0
M  V30 30 H 3.8916 -1.2786 1.2063 0
M  V30 31 H 3.8501 2.5581 -1.9036 0
M  V30 32 H 2.8625 3.2201 -0.5333 0
M  V30 33 H 2.0861 2.8303 -2.1055 0
M  V30 34 H 5.2929 0.715 1.2321 0
M  V30 35 H 4.9076 2.1508 0.2483 0
M  V30 END ATOM
M  V30 BEGIN BOND
M  V30 1 1 1 2
M  V30 2 2 2 3
M  V30 3 1 2 4
M  V30 4 1 3 5
M  V30 5 1 3 6
M  V30 6 2 4 7
M  V30 7 2 5 8
M  V30 8 1 8 9
M  V30 9 1 9 10
M  V30 10 2 10 11
M  V30 11 1 10 12
M  V30 12 1 11 13
M  V30 13 2 12 14
M  V30 14 2 13 15
M  V30 15 1 13 16
M  V30 16 1 15 17
M  V30 17 1 7 8
M  V30 18 1 14 15
M  V30 19 1 1 18
M  V30 20 1 1 19
M  V30 21 1 4 20
M  V30 22 1 5 21
M  V30 23 1 6 22
M  V30 24 1 6 23
M  V30 25 1 6 24
M  V30 26 1 7 25
M  V30 27 1 9 26
M  V30 28 1 9 27
M  V30 29 1 11 28
M  V30 30 1 12 29
M  V30 31 1 14 30
M  V30 32 1 16 31
M  V30 33 1 16 32
M  V30 34 1 16 33
M  V30 35 1 17 34
M  V30 36 1 17 35
M  V30 END BOND
M  V30 END CTAB
M  END
>  <Structure No>
2638

>  <LogS>
-4.150608709

>  <MMFF94 Energy>
38.932

$$$$
Compound 2639
Actelion Java MolfileCreator 2.0

  0  0  0  0  0  0              0 V3000
M  V30 BEGIN CTAB
M  V30 COUNTS 44 43 0 0 0
M  V30 BEGIN ATOM
M  V30 1 S 1.2515 -2.2692 -0.9385 0
M  V30 2 C 0.8397 -0.766 -0.3991 0
M  V30 3 N -0.2846 -0.5995 0.5018 0
M  V30 4 N 1.5836 0.3848 -0.8475 0
M  V30 5 C -1.384 -1.5819 0.5247 0
M  V30 6 C -0.2542 0.4477 1.5381 0
M  V30 7 C 2.8501 0.3143 -1.5802 0
M  V30 8 C -2.2392 -1.4638 -0.7451 0
M  V30 9 C -1.4229 1.438 1.3992 0
M  V30 10 C 4.0089 -0.1227 -0.6671 0
M  V30 11 C -3.448 -2.4111 -0.7337 0
M  V30 12 C -1.3186 2.2951 0.1324 0
M  V30 13 C 4.6203 1.0293 0.147 0
M  V30 14 C -3.0509 -3.8754 -0.9176 0
M  V30 15 C -2.5198 3.2259 -0.002 0
M  V30 16 C 3.6888 1.5527 1.2382 0
M  V30 17 H 1.162 1.3302 -0.7285 0
M  V30 18 H -0.9709 -2.6057 0.6291 0
M  V30 19 H -2.0324 -1.421 1.4135 0
M  V30 20 H 0.7059 1.0034 1.5287 0
M  V30 21 H -0.3156 -0.0362 2.5368 0
M  V30 22 H 3.0767 1.3063 -2.0283 0
M  V30 23 H 2.7489 -0.3979 -2.4267 0
M  V30 24 H -2.6196 -0.4229 -0.8205 0
M  V30 25 H -1.6192 -1.6579 -1.6464 0
M  V30 26 H -1.4164 2.109 2.2858 0
M  V30 27 H -2.3896 0.8914 1.4067 0
M  V30 28 H 3.6912 -0.9413 0.0132 0
M  V30 29 H 4.8122 -0.537 -1.314 0
M  V30 30 H -4.0183 -2.2947 0.2133 0
M  V30 31 H -4.1239 -2.127 -1.5692 0
M  V30 32 H -0.3944 2.9109 0.1756 0
M  V30 33 H -1.2727 1.6444 -0.7664 0
M  V30 34 H 4.911 1.8642 -0.5268 0
M  V30 35 H 5.5473 0.6557 0.6335 0
M  V30 36 H -2.4359 -3.9995 -1.8341 0
M  V30 37 H -3.9664 -4.4952 -1.0205 0
M  V30 38 H -2.483 -4.2431 -0.0384 0
M  V30 39 H -2.5822 3.9052 0.8747 0
M  V30 40 H -2.4127 3.8404 -0.9205 0
M  V30 41 H -3.4581 2.6359 -0.0772 0
M  V30 42 H 4.2515 2.2384 1.9059 0
M  V30 43 H 3.2895 0.7146 1.8479 0
M  V30 44 H 2.8509 2.1252 0.7916 0
M  V30 END ATOM
M  V30 BEGIN BOND
M  V30 1 2 1 2
M  V30 2 1 2 3
M  V30 3 1 2 4
M  V30 4 1 3 5
M  V30 5 1 3 6
M  V30 6 1 4 7
M  V30 7 1 5 8
M  V30 8 1 6 9
M  V30 9 1 7 10
M  V30 10 1 8 11
M  V30 11 1 9 12
M  V30 12 1 10 13
M  V30 13 1 11 14
M  V30 14 1 12 15
M  V30 15 1 13 16
M  V30 16 1 4 17
M  V30 17 1 5 18
M  V30 18 1 5 19
M  V30 19 1 6 20
M  V30 20 1 6 21
M  V30 21 1 7 22
M  V30 22 1 7 23
M  V30 23 1 8 24
M  V30 24 1 8 25
M  V30 25 1 9 26
M  V30 26 1 9 27
M  V30 27 1 10 28
M  V30 28 1 10 29
M  V30 29 1 11 30
M  V30 30 1 11 31
M  V30 31 1 12 32
M  V30 32 1 12 33
M  V30 33 1 13 34
M  V30 34 1 13 35
M  V30 35 1 14 36
M  V30 36 1 14 37
M  V30 37 1 14 38
M  V30 38 1 15 39
M  V30 39 1 15 40
M  V30 40 1 15 41
M  V30 41 1 16 42
M  V30 42 1 16 43
M  V30 43 1 16 44
M  V30 END BOND
M  V30 END CTAB
M  END
>  <Structure No>
2639

>  <LogS>
-4.184066506

>  <MMFF94 Energy>
-52.658

$$$$
Compound 2640
Actelion Java MolfileCreator 2.0

  0  0  0  0  0  0              0 V3000
M  V30 BEGIN CTAB
M  V30 COUNTS 53 52 0 0 0
M  V30 BEGIN ATOM
M  V30 1 N 0.0 0.3871 1.7042 0 CHG=1
M  V30 2 C 0.5701 -0.9753 1.679 0
M  V30 3 C -1.4788 0.3845 1.8248 0
M  V30 4 C 2.1145 -0.9593 1.8486 0 CFG=2
M  V30 5 C -2.2508 0.7726 0.5304 0 CFG=2
M  V30 6 C 2.898 -0.221 0.7265 0
M  V30 7 C 2.688 -2.3617 2.1806 0
M  V30 8 C -1.8496 -0.0976 -0.6883 0
M  V30 9 C -2.2946 2.3057 0.267 0
M  V30 10 C 2.4129 -0.4753 -0.7174 0
M  V30 11 C 2.6477 -3.3736 1.0357 0
M  V30 12 C -2.7688 0.0396 -1.9188 0
M  V30 13 C -0.9805 2.9569 -0.1642 0
M  V30 14 C 3.449 -0.0477 -1.7658 0
M  V30 15 C -4.1858 -0.5374 -1.7074 0
M  V30 16 C 3.6699 1.4639 -1.7899 0
M  V30 17 C -5.2446 0.5514 -1.5305 0
M  V30 18 H 0.3127 0.8968 0.8536 0
M  V30 19 H 0.3883 0.8977 2.5319 0
M  V30 20 H 0.2868 -1.4908 0.7377 0
M  V30 21 H 0.1471 -1.568 2.5224 0
M  V30 22 H -1.7831 1.0881 2.633 0
M  V30 23 H -1.8538 -0.6087 2.1641 0
M  V30 24 H 2.31 -0.374 2.7752 0
M  V30 25 H -3.3034 0.499 0.7627 0
M  V30 26 H 2.8284 0.8712 0.9217 0
M  V30 27 H 3.9753 -0.4852 0.8117 0
M  V30 28 H 3.744 -2.2534 2.5146 0
M  V30 29 H 2.1285 -2.7878 3.0439 0
M  V30 30 H -1.8422 -1.1668 -0.3794 0
M  V30 31 H -0.8175 0.1455 -1.0075 0
M  V30 32 H -3.0581 2.5234 -0.5082 0
M  V30 33 H -2.6492 2.8201 1.1858 0
M  V30 34 H 2.186 -1.5442 -0.8776 0
M  V30 35 H 1.4751 0.0803 -0.9063 0
M  V30 36 H 2.9336 -4.3721 1.4259 0
M  V30 37 H 3.3825 -3.1004 0.2508 0
M  V30 38 H 1.6296 -3.4505 0.6034 0
M  V30 39 H -2.2898 -0.5325 -2.7426 0
M  V30 40 H -2.8032 1.0912 -2.2691 0
M  V30 41 H -0.4918 2.3972 -0.9822 0
M  V30 42 H -0.2944 3.0468 0.6968 0
M  V30 43 H -1.1836 3.9851 -0.5299 0
M  V30 44 H 3.0881 -0.3643 -2.7688 0
M  V30 45 H 4.4174 -0.5619 -1.5794 0
M  V30 46 H -4.2165 -1.2253 -0.8347 0
M  V30 47 H -4.4669 -1.1363 -2.6022 0
M  V30 48 H 4.1862 1.7974 -0.8659 0
M  V30 49 H 4.3098 1.7291 -2.6577 0
M  V30 50 H 2.7024 2.0 -1.8876 0
M  V30 51 H -6.2474 0.0798 -1.439 0
M  V30 52 H -5.2503 1.2272 -2.4105 0
M  V30 53 H -5.057 1.1459 -0.6143 0
M  V30 END ATOM
M  V30 BEGIN BOND
M  V30 1 1 1 2
M  V30 2 1 1 3
M  V30 3 1 2 4
M  V30 4 1 3 5
M  V30 5 1 4 6
M  V30 6 1 4 7
M  V30 7 1 5 8
M  V30 8 1 5 9
M  V30 9 1 6 10
M  V30 10 1 7 11
M  V30 11 1 8 12
M  V30 12 1 9 13
M  V30 13 1 10 14
M  V30 14 1 12 15
M  V30 15 1 14 16
M  V30 16 1 15 17
M  V30 17 1 1 18
M  V30 18 1 1 19
M  V30 19 1 2 20
M  V30 20 1 2 21
M  V30 21 1 3 22
M  V30 22 1 3 23
M  V30 23 1 4 24
M  V30 24 1 5 25
M  V30 25 1 6 26
M  V30 26 1 6 27
M  V30 27 1 7 28
M  V30 28 1 7 29
M  V30 29 1 8 30
M  V30 30 1 8 31
M  V30 31 1 9 32
M  V30 32 1 9 33
M  V30 33 1 10 34
M  V30 34 1 10 35
M  V30 35 1 11 36
M  V30 36 1 11 37
M  V30 37 1 11 38
M  V30 38 1 12 39
M  V30 39 1 12 40
M  V30 40 1 13 41
M  V30 41 1 13 42
M  V30 42 1 13 43
M  V30 43 1 14 44
M  V30 44 1 14 45
M  V30 45 1 15 46
M  V30 46 1 15 47
M  V30 47 1 16 48
M  V30 48 1 16 49
M  V30 49 1 16 50
M  V30 50 1 17 51
M  V30 51 1 17 52
M  V30 52 1 17 53
M  V30 END BOND
M  V30 BEGIN COLLECTION
M  V30 MDLV30/STEABS ATOMS=(2 4 5)
M  V30 END COLLECTION
M  V30 END CTAB
M  END
>  <Structure No>
2640

>  <LogS>
-4.236722556

>  <MMFF94 Energy>
11.199

$$$$
Compound 2641
Actelion Java MolfileCreator 2.0

  0  0  0  0  0  0              0 V3000
M  V30 BEGIN CTAB
M  V30 COUNTS 29 30 0 0 0
M  V30 BEGIN ATOM
M  V30 1 Cl -3.5093 0.2445 -2.9374 0
M  V30 2 C -2.8915 0.2878 -1.2905 0
M  V30 3 C -3.515 -0.4235 -0.2448 0
M  V30 4 C -1.7464 1.0501 -1.0301 0
M  V30 5 N -4.6881 -1.2134 -0.4761 0
M  V30 6 C -2.9735 -0.3597 1.0476 0
M  V30 7 C -1.2154 1.1208 0.2667 0
M  V30 8 C -1.8307 0.4019 1.3014 0
M  V30 9 C 0.0387 1.9088 0.5313 0
M  V30 10 C 1.2506 1.0426 0.3198 0
M  V30 11 C 1.7601 0.2687 1.3735 0
M  V30 12 C 1.8453 0.9554 -0.9469 0
M  V30 13 C 2.8643 -0.5683 1.1735 0
M  V30 14 C 2.9473 0.1225 -1.1521 0
M  V30 15 Cl 3.457 -1.509 2.537 0
M  V30 16 C 3.4677 -0.6437 -0.0986 0
M  V30 17 N 4.5987 -1.4901 -0.3383 0
M  V30 18 H -1.2675 1.5871 -1.84 0
M  V30 19 H -5.1379 -1.7367 0.3081 0
M  V30 20 H -5.1253 -1.29 -1.42 0
M  V30 21 H -3.4368 -0.9049 1.8604 0
M  V30 22 H -1.4242 0.4296 2.305 0
M  V30 23 H 0.0295 2.3055 1.5705 0
M  V30 24 H 0.0806 2.7962 -0.138 0
M  V30 25 H 1.2961 0.3149 2.3514 0
M  V30 26 H 1.454 1.5313 -1.7766 0
M  V30 27 H 3.3953 0.0714 -2.1365 0
M  V30 28 H 5.019 -2.0772 0.4146 0
M  V30 29 H 5.0338 -1.5371 -1.2867 0
M  V30 END ATOM
M  V30 BEGIN BOND
M  V30 1 1 1 2
M  V30 2 2 2 3
M  V30 3 1 2 4
M  V30 4 1 3 5
M  V30 5 1 3 6
M  V30 6 2 4 7
M  V30 7 2 6 8
M  V30 8 1 7 9
M  V30 9 1 9 10
M  V30 10 2 10 11
M  V30 11 1 10 12
M  V30 12 1 11 13
M  V30 13 2 12 14
M  V30 14 1 13 15
M  V30 15 2 13 16
M  V30 16 1 16 17
M  V30 17 1 7 8
M  V30 18 1 14 16
M  V30 19 1 4 18
M  V30 20 1 5 19
M  V30 21 1 5 20
M  V30 22 1 6 21
M  V30 23 1 8 22
M  V30 24 1 9 23
M  V30 25 1 9 24
M  V30 26 1 11 25
M  V30 27 1 12 26
M  V30 28 1 14 27
M  V30 29 1 17 28
M  V30 30 1 17 29
M  V30 END BOND
M  V30 END CTAB
M  END
>  <Structure No>
2641

>  <LogS>
-4.286890723

>  <MMFF94 Energy>
74.452

$$$$
Compound 2642
Actelion Java MolfileCreator 2.0

  0  0  0  0  0  0              0 V3000
M  V30 BEGIN CTAB
M  V30 COUNTS 42 42 0 0 0
M  V30 BEGIN ATOM
M  V30 1 O -4.7141 0.2352 0.706 0
M  V30 2 C -3.5402 -0.2057 0.0685 0 CFG=1
M  V30 3 C -2.386 0.8242 0.3159 0
M  V30 4 C -3.2367 -1.6423 0.5259 0
M  V30 5 C -1.0997 0.3925 -0.3894 0
M  V30 6 C -2.1374 1.0659 1.8265 0
M  V30 7 C -2.81 2.1793 -0.2996 0
M  V30 8 C -0.2417 -0.5201 0.1013 0
M  V30 9 C 1.0363 -0.8702 -0.6334 0 CFG=1
M  V30 10 C 2.2064 0.1538 -0.4644 0
M  V30 11 C 1.6138 -2.2216 -0.1833 0
M  V30 12 C 3.4135 -0.7471 -0.4081 0
M  V30 13 C 2.1223 0.9655 0.8481 0
M  V30 14 C 2.2856 1.1064 -1.674 0
M  V30 15 C 3.0828 -2.0237 -0.2633 0
M  V30 16 C 4.8453 -0.2871 -0.4074 0
M  V30 17 H -5.4792 -0.1924 0.239 0
M  V30 18 H -3.719 -0.252 -1.0328 0
M  V30 19 H -2.4115 -2.0831 -0.069 0
M  V30 20 H -2.9895 -1.6832 1.6055 0
M  V30 21 H -4.1306 -2.2802 0.3593 0
M  V30 22 H -0.8514 0.8645 -1.3366 0
M  V30 23 H -1.3031 1.7865 1.9698 0
M  V30 24 H -3.0428 1.4885 2.3129 0
M  V30 25 H -1.8754 0.1353 2.3662 0
M  V30 26 H -2.0017 2.9342 -0.1817 0
M  V30 27 H -3.7228 2.5778 0.1938 0
M  V30 28 H -3.0255 2.0719 -1.3852 0
M  V30 29 H -0.4606 -1.0239 1.0361 0
M  V30 30 H 0.7887 -0.9827 -1.715 0
M  V30 31 H 1.2923 -3.0449 -0.8571 0
M  V30 32 H 1.3485 -2.4677 0.8678 0
M  V30 33 H 3.035 1.5833 0.9882 0
M  V30 34 H 1.2503 1.6536 0.8306 0
M  V30 35 H 2.0231 0.2868 1.723 0
M  V30 36 H 2.4471 0.5361 -2.6141 0
M  V30 37 H 3.1188 1.8309 -1.5585 0
M  V30 38 H 1.3451 1.6876 -1.7707 0
M  V30 39 H 3.8063 -2.8238 -0.1402 0
M  V30 40 H 5.3503 -0.6357 0.5179 0
M  V30 41 H 5.3712 -0.7067 -1.2903 0
M  V30 42 H 4.9123 0.8187 -0.445 0
M  V30 END ATOM
M  V30 BEGIN BOND
M  V30 1 1 1 2
M  V30 2 1 2 3
M  V30 3 1 2 4
M  V30 4 1 3 5
M  V30 5 1 3 6
M  V30 6 1 3 7
M  V30 7 2 5 8
M  V30 8 1 8 9
M  V30 9 1 9 10
M  V30 10 1 9 11
M  V30 11 1 10 12
M  V30 12 1 10 13
M  V30 13 1 10 14
M  V30 14 1 11 15
M  V30 15 1 12 16
M  V30 16 2 12 15
M  V30 17 1 1 17
M  V30 18 1 2 18
M  V30 19 1 4 19
M  V30 20 1 4 20
M  V30 21 1 4 21
M  V30 22 1 5 22
M  V30 23 1 6 23
M  V30 24 1 6 24
M  V30 25 1 6 25
M  V30 26 1 7 26
M  V30 27 1 7 27
M  V30 28 1 7 28
M  V30 29 1 8 29
M  V30 30 1 9 30
M  V30 31 1 11 31
M  V30 32 1 11 32
M  V30 33 1 13 33
M  V30 34 1 13 34
M  V30 35 1 13 35
M  V30 36 1 14 36
M  V30 37 1 14 37
M  V30 38 1 14 38
M  V30 39 1 15 39
M  V30 40 1 16 40
M  V30 41 1 16 41
M  V30 42 1 16 42
M  V30 END BOND
M  V30 BEGIN COLLECTION
M  V30 MDLV30/STEABS ATOMS=(2 2 9)
M  V30 END COLLECTION
M  V30 END CTAB
M  END
>  <Structure No>
2642

>  <LogS>
-4.216746334

>  <MMFF94 Energy>
71.091

$$$$
Compound 2643
Actelion Java MolfileCreator 2.0

  0  0  0  0  0  0              0 V3000
M  V30 BEGIN CTAB
M  V30 COUNTS 33 34 0 0 0
M  V30 BEGIN ATOM
M  V30 1 S 4.0496 -2.8086 -1.8993 0
M  V30 2 O 4.2808 -2.1504 -3.2307 0
M  V30 3 O 3.6028 -4.2244 -2.1341 0
M  V30 4 N 5.5222 -2.8116 -0.9943 0
M  V30 5 C 2.8095 -1.9317 -1.0079 0
M  V30 6 C 1.9784 -2.6079 -0.1057 0
M  V30 7 C 2.66 -0.5497 -1.1831 0
M  V30 8 C 1.0022 -1.9095 0.611 0
M  V30 9 C 1.6846 0.1495 -0.4662 0
M  V30 10 C 0.8574 -0.5235 0.4505 0
M  V30 11 N -0.1712 0.1684 1.1789 0
M  V30 12 C -0.1095 1.5574 1.5427 0
M  V30 13 S 1.2982 2.1948 2.0957 0
M  V30 14 N -1.3216 2.305 1.7242 0
M  V30 15 C -2.5477 2.0193 1.0297 0
M  V30 16 C -2.5461 1.4557 -0.2604 0
M  V30 17 C -3.7726 2.3591 1.6252 0
M  V30 18 C -3.7523 1.2064 -0.9224 0
M  V30 19 C -4.9769 2.1082 0.9601 0
M  V30 20 C -4.9673 1.5286 -0.3114 0
M  V30 21 F -6.1356 1.2876 -0.9559 0
M  V30 22 H 5.7735 -1.813 -0.8177 0
M  V30 23 H 5.3077 -3.2368 -0.0645 0
M  V30 24 H 2.0852 -3.6747 0.0442 0
M  V30 25 H 3.2943 -0.0138 -1.8776 0
M  V30 26 H 0.3638 -2.4468 1.3013 0
M  V30 27 H 1.5657 1.2107 -0.6415 0
M  V30 28 H -1.0179 -0.3711 1.4692 0
M  V30 29 H -1.3189 3.0898 2.4153 0
M  V30 30 H -1.6162 1.2271 -0.7642 0
M  V30 31 H -3.7934 2.8098 2.6097 0
M  V30 32 H -3.7435 0.7705 -1.9131 0
M  V30 33 H -5.9171 2.3651 1.4311 0
M  V30 END ATOM
M  V30 BEGIN BOND
M  V30 1 2 1 2
M  V30 2 2 1 3
M  V30 3 1 1 4
M  V30 4 1 1 5
M  V30 5 2 5 6
M  V30 6 1 5 7
M  V30 7 1 6 8
M  V30 8 2 7 9
M  V30 9 2 8 10
M  V30 10 1 10 11
M  V30 11 1 11 12
M  V30 12 2 12 13
M  V30 13 1 12 14
M  V30 14 1 14 15
M  V30 15 2 15 16
M  V30 16 1 15 17
M  V30 17 1 16 18
M  V30 18 2 17 19
M  V30 19 2 18 20
M  V30 20 1 20 21
M  V30 21 1 9 10
M  V30 22 1 19 20
M  V30 23 1 4 22
M  V30 24 1 4 23
M  V30 25 1 6 24
M  V30 26 1 7 25
M  V30 27 1 8 26
M  V30 28 1 9 27
M  V30 29 1 11 28
M  V30 30 1 14 29
M  V30 31 1 16 30
M  V30 32 1 17 31
M  V30 33 1 18 32
M  V30 34 1 19 33
M  V30 END BOND
M  V30 END CTAB
M  END
>  <Structure No>
2643

>  <LogS>
-2.989959968

>  <MMFF94 Energy>
-76.151

$$$$
Compound 2644
Actelion Java MolfileCreator 2.0

  0  0  0  0  0  0              0 V3000
M  V30 BEGIN CTAB
M  V30 COUNTS 64 68 0 0 0
M  V30 BEGIN ATOM
M  V30 1 O -0.7253 -1.2091 -0.4029 0
M  V30 2 C -1.0284 0.013 -0.4527 0
M  V30 3 N -0.0144 1.0217 -0.6496 0
M  V30 4 C -2.4226 0.458 -0.3658 0
M  V30 5 C 1.3803 0.6946 -0.4837 0
M  V30 6 C -0.4076 2.3276 -1.2235 0
M  V30 7 N -3.5521 -0.2651 -0.2025 0
M  V30 8 C -2.7492 1.7753 -0.5185 0
M  V30 9 C 2.3241 1.0627 -1.4581 0
M  V30 10 C 1.8144 0.0061 0.6614 0
M  V30 11 C -1.7271 2.8686 -0.6258 0
M  V30 12 N -4.5943 0.555 -0.2363 0
M  V30 13 C -3.6777 -1.6745 0.0297 0
M  V30 14 C -4.1317 1.8128 -0.4148 0
M  V30 15 C 3.6745 0.743 -1.2914 0
M  V30 16 C 3.1649 -0.3136 0.8266 0
M  V30 17 C -4.5614 -2.4341 -0.7482 0
M  V30 18 C -2.9807 -2.291 1.0793 0
M  V30 19 C -5.0016 2.9975 -0.4448 0
M  V30 20 C 4.1038 0.056 -0.146 0
M  V30 21 C -4.7147 -3.8024 -0.5075 0
M  V30 22 C -3.1339 -3.6592 1.3215 0
M  V30 23 O -6.2515 2.8483 -0.3676 0
M  V30 24 O -4.4455 4.2768 -0.5554 0
M  V30 25 N 5.4893 -0.2895 0.0213 0
M  V30 26 C -4.0032 -4.4275 0.5233 0
M  V30 27 C -5.2175 5.4755 -0.5293 0
M  V30 28 C 6.5004 0.7432 0.0084 0
M  V30 29 C 5.8586 -1.7111 -0.0474 0
M  V30 30 O -4.1899 -5.8033 0.7233 0
M  V30 31 C -5.6613 5.7981 0.8927 0
M  V30 32 O 6.1725 1.9517 -0.1433 0
M  V30 33 C 7.9411 0.4198 0.2871 0
M  V30 34 C 7.2354 -1.975 0.5654 0
M  V30 35 C -3.5333 -6.565 1.7312 0
M  V30 36 C 8.2731 -1.0346 -0.0447 0
M  V30 37 H -0.5286 2.2115 -2.3225 0
M  V30 38 H 0.3887 3.0832 -1.0456 0
M  V30 39 H 2.0135 1.5812 -2.3558 0
M  V30 40 H 1.1071 -0.2727 1.4321 0
M  V30 41 H -2.1029 3.6864 -1.2747 0
M  V30 42 H -1.5345 3.2758 0.3895 0
M  V30 43 H 4.3854 1.0189 -2.0599 0
M  V30 44 H 3.4829 -0.8401 1.7176 0
M  V30 45 H -5.1227 -1.966 -1.5472 0
M  V30 46 H -2.3274 -1.7079 1.7164 0
M  V30 47 H -5.3919 -4.3803 -1.1237 0
M  V30 48 H -2.5783 -4.1071 2.1339 0
M  V30 49 H -4.5869 6.3093 -0.9034 0
M  V30 50 H -6.1003 5.3834 -1.1986 0
M  V30 51 H 5.109 -2.3312 0.4905 0
M  V30 52 H 5.8624 -2.0305 -1.1122 0
M  V30 53 H -4.7744 5.8829 1.556 0
M  V30 54 H -6.3304 5.0017 1.2799 0
M  V30 55 H -6.2122 6.7623 0.9023 0
M  V30 56 H 8.598 1.0879 -0.3107 0
M  V30 57 H 8.144 0.6087 1.3634 0
M  V30 58 H 7.1917 -1.829 1.6673 0
M  V30 59 H 7.5293 -3.0281 0.3669 0
M  V30 60 H -3.863 -7.6217 1.6594 0
M  V30 61 H -2.4334 -6.5245 1.5844 0
M  V30 62 H -3.7993 -6.1769 2.7372 0
M  V30 63 H 9.2786 -1.282 0.3582 0
M  V30 64 H 8.3031 -1.171 -1.1485 0
M  V30 END ATOM
M  V30 BEGIN BOND
M  V30 1 2 1 2
M  V30 2 1 2 3
M  V30 3 1 2 4
M  V30 4 1 3 5
M  V30 5 1 3 6
M  V30 6 1 4 7
M  V30 7 2 4 8
M  V30 8 2 5 9
M  V30 9 1 5 10
M  V30 10 1 6 11
M  V30 11 1 7 12
M  V30 12 1 7 13
M  V30 13 1 8 14
M  V30 14 1 9 15
M  V30 15 2 10 16
M  V30 16 2 13 17
M  V30 17 1 13 18
M  V30 18 1 14 19
M  V30 19 2 15 20
M  V30 20 1 17 21
M  V30 21 2 18 22
M  V30 22 2 19 23
M  V30 23 1 19 24
M  V30 24 1 20 25
M  V30 25 2 21 26
M  V30 26 1 24 27
M  V30 27 1 25 28
M  V30 28 1 25 29
M  V30 29 1 26 30
M  V30 30 1 27 31
M  V30 31 2 28 32
M  V30 32 1 28 33
M  V30 33 1 29 34
M  V30 34 1 30 35
M  V30 35 1 33 36
M  V30 36 1 8 11
M  V30 37 2 12 14
M  V30 38 1 16 20
M  V30 39 1 22 26
M  V30 40 1 34 36
M  V30 41 1 6 37
M  V30 42 1 6 38
M  V30 43 1 9 39
M  V30 44 1 10 40
M  V30 45 1 11 41
M  V30 46 1 11 42
M  V30 47 1 15 43
M  V30 48 1 16 44
M  V30 49 1 17 45
M  V30 50 1 18 46
M  V30 51 1 21 47
M  V30 52 1 22 48
M  V30 53 1 27 49
M  V30 54 1 27 50
M  V30 55 1 29 51
M  V30 56 1 29 52
M  V30 57 1 31 53
M  V30 58 1 31 54
M  V30 59 1 31 55
M  V30 60 1 33 56
M  V30 61 1 33 57
M  V30 62 1 34 58
M  V30 63 1 34 59
M  V30 64 1 35 60
M  V30 65 1 35 61
M  V30 66 1 35 62
M  V30 67 1 36 63
M  V30 68 1 36 64
M  V30 END BOND
M  V30 END CTAB
M  END
>  <Structure No>
2644

>  <LogS>
-4.628205844

>  <MMFF94 Energy>
86.452

$$$$
Compound 2645
Actelion Java MolfileCreator 2.0

  0  0  0  0  0  0              0 V3000
M  V30 BEGIN CTAB
M  V30 COUNTS 31 33 0 0 0
M  V30 BEGIN ATOM
M  V30 1 Cl 1.7401 -0.994 -2.4865 0
M  V30 2 C 2.2896 -0.2964 -0.9673 0
M  V30 3 C 1.4029 -0.0878 0.1083 0
M  V30 4 C 3.6346 0.072 -0.8419 0
M  V30 5 C -0.0251 -0.4915 0.0141 0
M  V30 6 C 1.8845 0.4749 1.302 0
M  V30 7 C 4.1021 0.6389 0.3466 0
M  V30 8 N -0.2579 -1.9025 0.0956 0
M  V30 9 C -1.0329 0.442 -0.0791 0
M  V30 10 C 3.2283 0.8397 1.4175 0
M  V30 11 O 0.529 -2.6721 0.8904 0
M  V30 12 C -1.2225 -2.5437 -0.7662 0
M  V30 13 C -2.453 0.1736 0.0474 0
M  V30 14 C -0.6576 1.8095 -0.2346 0
M  V30 15 C -2.5513 -2.3164 -0.1813 0
M  V30 16 N -3.033 -0.9979 0.0598 0
M  V30 17 C -3.345 1.2545 0.1643 0
M  V30 18 C -1.5831 2.8483 -0.1652 0
M  V30 19 O -3.3014 -3.2981 0.0624 0
M  V30 20 C -2.9203 2.5715 0.0601 0
M  V30 21 Cl -1.053 4.5126 -0.3392 0
M  V30 22 H 4.3192 -0.0799 -1.6666 0
M  V30 23 H 1.217 0.6305 2.141 0
M  V30 24 H 5.1428 0.9218 0.438 0
M  V30 25 H 3.5928 1.2761 2.3385 0
M  V30 26 H 1.2953 -2.9377 0.3194 0
M  V30 27 H -1.0105 -3.6338 -0.8304 0
M  V30 28 H -1.1745 -2.1161 -1.791 0
M  V30 29 H 0.3694 2.1029 -0.4069 0
M  V30 30 H -4.4054 1.0704 0.3006 0
M  V30 31 H -3.6406 3.3769 0.1316 0
M  V30 END ATOM
M  V30 BEGIN BOND
M  V30 1 1 1 2
M  V30 2 2 2 3
M  V30 3 1 2 4
M  V30 4 1 3 5
M  V30 5 1 3 6
M  V30 6 2 4 7
M  V30 7 1 5 8
M  V30 8 2 5 9
M  V30 9 2 6 10
M  V30 10 1 8 11
M  V30 11 1 8 12
M  V30 12 1 9 13
M  V30 13 1 9 14
M  V30 14 1 12 15
M  V30 15 2 13 16
M  V30 16 1 13 17
M  V30 17 2 14 18
M  V30 18 2 15 19
M  V30 19 2 17 20
M  V30 20 1 18 21
M  V30 21 1 7 10
M  V30 22 1 15 16
M  V30 23 1 18 20
M  V30 24 1 4 22
M  V30 25 1 6 23
M  V30 26 1 7 24
M  V30 27 1 10 25
M  V30 28 1 11 26
M  V30 29 1 12 27
M  V30 30 1 12 28
M  V30 31 1 14 29
M  V30 32 1 17 30
M  V30 33 1 20 31
M  V30 END BOND
M  V30 END CTAB
M  END
>  <Structure No>
2645

>  <LogS>
-4.465332821

>  <MMFF94 Energy>
124.99

$$$$
Compound 2646
Actelion Java MolfileCreator 2.0

  0  0  0  0  0  0              0 V3000
M  V30 BEGIN CTAB
M  V30 COUNTS 20 19 0 0 0
M  V30 BEGIN ATOM
M  V30 1 C -0.764 -0.6111 -0.4583 0
M  V30 2 C 0.6484 -0.7897 0.1204 0
M  V30 3 C -1.6023 0.4043 0.3319 0
M  V30 4 C 1.546 0.4322 -0.1236 0
M  V30 5 C -3.0354 0.4582 -0.1901 0
M  V30 6 C 2.9734 0.168 0.3472 0
M  V30 7 H -1.2744 -1.5989 -0.4265 0
M  V30 8 H -0.6981 -0.3006 -1.5243 0
M  V30 9 H 0.5851 -1.002 1.2105 0
M  V30 10 H 1.109 -1.6761 -0.3686 0
M  V30 11 H -1.1589 1.4183 0.2413 0
M  V30 12 H -1.6232 0.1215 1.407 0
M  V30 13 H 1.1526 1.3114 0.429 0
M  V30 14 H 1.5656 0.6754 -1.2083 0
M  V30 15 H -3.0449 0.7558 -1.2604 0
M  V30 16 H -3.5243 -0.5331 -0.0801 0
M  V30 17 H -3.6153 1.2057 0.3915 0
M  V30 18 H 3.4135 -0.6845 -0.2126 0
M  V30 19 H 3.5969 1.0693 0.1679 0
M  V30 20 H 2.9846 -0.0613 1.4341 0
M  V30 END ATOM
M  V30 BEGIN BOND
M  V30 1 1 1 2
M  V30 2 1 1 3
M  V30 3 1 2 4
M  V30 4 1 3 5
M  V30 5 1 4 6
M  V30 6 1 1 7
M  V30 7 1 1 8
M  V30 8 1 2 9
M  V30 9 1 2 10
M  V30 10 1 3 11
M  V30 11 1 3 12
M  V30 12 1 4 13
M  V30 13 1 4 14
M  V30 14 1 5 15
M  V30 15 1 5 16
M  V30 16 1 5 17
M  V30 17 1 6 18
M  V30 18 1 6 19
M  V30 19 1 6 20
M  V30 END BOND
M  V30 END CTAB
M  END
>  <Structure No>
2646

>  <LogS>
-3.944170335

>  <MMFF94 Energy>
-5.4744

$$$$
Compound 2647
Actelion Java MolfileCreator 2.0

  0  0  0  0  0  0              0 V3000
M  V30 BEGIN CTAB
M  V30 COUNTS 36 35 0 0 0
M  V30 BEGIN ATOM
M  V30 1 N -5.1583 3.5148 -2.4202 0
M  V30 2 C -4.9167 2.4072 -2.1876 0
M  V30 3 N -4.6237 1.0636 -1.9063 0
M  V30 4 C -3.9042 0.6459 -0.7341 0
M  V30 5 N -3.49 1.511 0.1423 0
M  V30 6 N -3.6388 -0.7528 -0.5419 0
M  V30 7 C -2.8716 -1.2866 0.585 0
M  V30 8 C -1.4652 -1.7034 0.1411 0
M  V30 9 C -0.6029 -0.4935 -0.2524 0
M  V30 10 C 0.7856 -0.8948 -0.7813 0
M  V30 11 C 1.6854 -1.6246 0.2355 0
M  V30 12 C 1.9594 -0.8262 1.52 0
M  V30 13 N 2.4975 0.5017 1.2224 0
M  V30 14 C 3.8404 0.7226 0.7651 0
M  V30 15 N 4.6596 -0.2796 0.6575 0
M  V30 16 N 4.2563 2.0605 0.4435 0
M  V30 17 C 5.5465 2.3729 -0.0125 0
M  V30 18 N 6.61 2.631 -0.3886 0
M  V30 19 H -4.9449 0.343 -2.5902 0
M  V30 20 H -3.651 2.5383 0.0544 0
M  V30 21 H -3.9421 -1.4237 -1.2833 0
M  V30 22 H -3.3999 -2.1815 0.9782 0
M  V30 23 H -2.8097 -0.5547 1.419 0
M  V30 24 H -0.9889 -2.2381 0.9896 0
M  V30 25 H -1.5421 -2.4092 -0.7147 0
M  V30 26 H -1.1148 0.0665 -1.0639 0
M  V30 27 H -0.5027 0.2011 0.608 0
M  V30 28 H 0.6556 -1.5495 -1.6704 0
M  V30 29 H 1.3073 0.021 -1.1342 0
M  V30 30 H 1.2373 -2.604 0.5043 0
M  V30 31 H 2.6531 -1.8516 -0.2602 0
M  V30 32 H 2.6751 -1.3851 2.1606 0
M  V30 33 H 1.0201 -0.7245 2.1042 0
M  V30 34 H 1.8821 1.3296 1.3884 0
M  V30 35 H 5.647 -0.1811 0.3344 0
M  V30 36 H 3.5733 2.8437 0.5445 0
M  V30 END ATOM
M  V30 BEGIN BOND
M  V30 1 3 1 2
M  V30 2 1 2 3
M  V30 3 1 3 4
M  V30 4 2 4 5
M  V30 5 1 4 6
M  V30 6 1 6 7
M  V30 7 1 7 8
M  V30 8 1 8 9
M  V30 9 1 9 10
M  V30 10 1 10 11
M  V30 11 1 11 12
M  V30 12 1 12 13
M  V30 13 1 13 14
M  V30 14 2 14 15
M  V30 15 1 14 16
M  V30 16 1 16 17
M  V30 17 3 17 18
M  V30 18 1 3 19
M  V30 19 1 5 20
M  V30 20 1 6 21
M  V30 21 1 7 22
M  V30 22 1 7 23
M  V30 23 1 8 24
M  V30 24 1 8 25
M  V30 25 1 9 26
M  V30 26 1 9 27
M  V30 27 1 10 28
M  V30 28 1 10 29
M  V30 29 1 11 30
M  V30 30 1 11 31
M  V30 31 1 12 32
M  V30 32 1 12 33
M  V30 33 1 13 34
M  V30 34 1 15 35
M  V30 35 1 16 36
M  V30 END BOND
M  V30 END CTAB
M  END
>  <Structure No>
2647

>  <LogS>
-4.434690373

>  <MMFF94 Energy>
-332.87

$$$$
Compound 2648
Actelion Java MolfileCreator 2.0

  0  0  0  0  0  0              0 V3000
M  V30 BEGIN CTAB
M  V30 COUNTS 37 36 0 0 0
M  V30 BEGIN ATOM
M  V30 1 O -3.7412 -0.3113 1.1679 0
M  V30 2 C -3.1534 0.0618 0.1166 0
M  V30 3 O -1.7744 -0.1319 -0.0514 0
M  V30 4 C -3.9268 0.7554 -0.9579 0
M  V30 5 C -0.8868 -0.6939 0.9275 0 CFG=1
M  V30 6 C -3.7663 2.2663 -0.8389 0
M  V30 7 C -1.351 -2.0867 1.326 0
M  V30 8 C 0.5274 -0.8086 0.2998 0
M  V30 9 C -0.8434 0.2105 2.1791 0
M  V30 10 C -1.6971 -3.0097 0.4211 0
M  V30 11 C 1.0828 0.5275 -0.2247 0
M  V30 12 C 2.4106 0.3183 -0.91 0
M  V30 13 C 3.6072 0.3384 -0.282 0
M  V30 14 C 4.8487 0.0725 -1.0937 0
M  V30 15 C 3.7326 0.6354 1.1943 0
M  V30 16 H -5.0038 0.4899 -0.8833 0
M  V30 17 H -3.5549 0.4217 -1.9503 0
M  V30 18 H -4.1491 2.6185 0.143 0
M  V30 19 H -4.3431 2.766 -1.6456 0
M  V30 20 H -2.6964 2.5498 -0.9385 0
M  V30 21 H -1.4061 -2.3539 2.3783 0
M  V30 22 H 0.487 -1.5193 -0.5556 0
M  V30 23 H 1.2303 -1.2379 1.0464 0
M  V30 24 H -0.0063 -0.0825 2.849 0
M  V30 25 H -1.7861 0.1341 2.7607 0
M  V30 26 H -0.7192 1.2751 1.8907 0
M  V30 27 H -1.6645 -2.793 -0.642 0
M  V30 28 H -2.0221 -3.9927 0.7458 0
M  V30 29 H 0.3766 0.9494 -0.9714 0
M  V30 30 H 1.1811 1.2721 0.5904 0
M  V30 31 H 2.3814 0.1133 -1.9775 0
M  V30 32 H 5.7666 0.1254 -0.472 0
M  V30 33 H 4.9353 0.8261 -1.9052 0
M  V30 34 H 4.7919 -0.941 -1.5443 0
M  V30 35 H 4.7883 0.5794 1.5319 0
M  V30 36 H 3.1501 -0.0983 1.7874 0
M  V30 37 H 3.3638 1.6607 1.407 0
M  V30 END ATOM
M  V30 BEGIN BOND
M  V30 1 2 1 2
M  V30 2 1 2 3
M  V30 3 1 2 4
M  V30 4 1 3 5
M  V30 5 1 4 6
M  V30 6 1 5 7
M  V30 7 1 5 8
M  V30 8 1 5 9
M  V30 9 2 7 10
M  V30 10 1 8 11
M  V30 11 1 11 12
M  V30 12 2 12 13
M  V30 13 1 13 14
M  V30 14 1 13 15
M  V30 15 1 4 16
M  V30 16 1 4 17
M  V30 17 1 6 18
M  V30 18 1 6 19
M  V30 19 1 6 20
M  V30 20 1 7 21
M  V30 21 1 8 22
M  V30 22 1 8 23
M  V30 23 1 9 24
M  V30 24 1 9 25
M  V30 25 1 9 26
M  V30 26 1 10 27
M  V30 27 1 10 28
M  V30 28 1 11 29
M  V30 29 1 11 30
M  V30 30 1 12 31
M  V30 31 1 14 32
M  V30 32 1 14 33
M  V30 33 1 14 34
M  V30 34 1 15 35
M  V30 35 1 15 36
M  V30 36 1 15 37
M  V30 END BOND
M  V30 BEGIN COLLECTION
M  V30 MDLV30/STEABS ATOMS=(1 5)
M  V30 END COLLECTION
M  V30 END CTAB
M  END
>  <Structure No>
2648

>  <LogS>
-4.382357893

>  <MMFF94 Energy>
15.545

$$$$
Compound 2649
Actelion Java MolfileCreator 2.0

  0  0  0  0  0  0              0 V3000
M  V30 BEGIN CTAB
M  V30 COUNTS 44 47 0 0 0
M  V30 BEGIN ATOM
M  V30 1 S -6.5304 -0.0824 -1.9806 0
M  V30 2 O -7.2783 1.139 -1.5251 0
M  V30 3 O -7.2592 -1.3197 -1.5373 0
M  V30 4 O -6.4651 -0.0734 -3.66 0 CHG=-1
M  V30 5 C -4.8961 -0.0731 -1.2922 0
M  V30 6 C -4.657 -0.0779 0.1047 0
M  V30 7 C -3.8112 -0.0604 -2.1746 0
M  V30 8 C -3.3159 -0.0699 0.5864 0
M  V30 9 C -5.7159 -0.0902 1.0397 0
M  V30 10 C -2.4941 -0.0526 -1.7091 0
M  V30 11 C -2.2321 -0.0571 -0.3223 0
M  V30 12 C -3.0844 -0.0745 1.9785 0
M  V30 13 C -5.459 -0.0946 2.4105 0
M  V30 14 O -1.4493 -0.0402 -2.6337 0
M  V30 15 N -0.8867 -0.0495 0.192 0
M  V30 16 C -4.1488 -0.0866 2.8781 0
M  V30 17 N 0.1462 -0.035 -0.5488 0
M  V30 18 C 1.4692 -0.0279 -0.0045 0
M  V30 19 C 2.6376 0.0035 -0.722 0
M  V30 20 C 1.8716 -0.0149 1.3229 0
M  V30 21 O 2.7239 0.0529 -1.978 0
M  V30 22 N 3.6853 0.0228 0.1305 0
M  V30 23 N 3.2215 0.021 1.3749 0 CHG=-1
M  V30 24 C 0.9991 -0.0207 2.5355 0
M  V30 25 C 5.089 0.0737 -0.1895 0
M  V30 26 C 5.9848 0.7028 0.6933 0
M  V30 27 C 5.594 -0.5271 -1.3584 0
M  V30 28 C 7.3513 0.7516 0.4018 0
M  V30 29 C 6.9619 -0.4765 -1.645 0
M  V30 30 C 7.8391 0.165 -0.7677 0
M  V30 31 H -3.9836 -0.0566 -3.2426 0
M  V30 32 H -6.7504 -0.0966 0.7307 0
M  V30 33 H -2.0812 -0.0685 2.3827 0
M  V30 34 H -6.2816 -0.104 3.1141 0
M  V30 35 H -1.6184 -0.0365 -3.6328 0
M  V30 36 H -3.9562 -0.0901 3.9433 0
M  V30 37 H 0.3673 -0.9331 2.5385 0
M  V30 38 H 0.3538 0.8824 2.5374 0
M  V30 39 H 1.6219 -0.0159 3.4547 0
M  V30 40 H 5.6231 1.1661 1.6025 0
M  V30 41 H 4.942 -1.0591 -2.0368 0
M  V30 42 H 8.0321 1.2445 1.0837 0
M  V30 43 H 7.343 -0.9421 -2.5445 0
M  V30 44 H 8.8974 0.2021 -0.9911 0
M  V30 END ATOM
M  V30 BEGIN BOND
M  V30 1 2 1 2
M  V30 2 2 1 3
M  V30 3 1 1 4
M  V30 4 1 1 5
M  V30 5 1 5 6
M  V30 6 2 5 7
M  V30 7 1 6 8
M  V30 8 2 6 9
M  V30 9 1 7 10
M  V30 10 1 8 11
M  V30 11 2 8 12
M  V30 12 1 9 13
M  V30 13 1 10 14
M  V30 14 1 11 15
M  V30 15 1 12 16
M  V30 16 2 15 17
M  V30 17 1 17 18
M  V30 18 1 18 19
M  V30 19 2 18 20
M  V30 20 2 19 21
M  V30 21 1 19 22
M  V30 22 1 20 23
M  V30 23 1 20 24
M  V30 24 1 22 25
M  V30 25 2 25 26
M  V30 26 1 25 27
M  V30 27 1 26 28
M  V30 28 2 27 29
M  V30 29 2 28 30
M  V30 30 2 10 11
M  V30 31 2 13 16
M  V30 32 1 22 23
M  V30 33 1 29 30
M  V30 34 1 7 31
M  V30 35 1 9 32
M  V30 36 1 12 33
M  V30 37 1 13 34
M  V30 38 1 14 35
M  V30 39 1 16 36
M  V30 40 1 24 37
M  V30 41 1 24 38
M  V30 42 1 24 39
M  V30 43 1 26 40
M  V30 44 1 27 41
M  V30 45 1 28 42
M  V30 46 1 29 43
M  V30 47 1 30 44
M  V30 END BOND
M  V30 END CTAB
M  END
>  <Structure No>
2649

>  <LogS>
-1.212102898

>  <MMFF94 Energy>
175.62

$$$$
Compound 2650
Actelion Java MolfileCreator 2.0

  0  0  0  0  0  0              0 V3000
M  V30 BEGIN CTAB
M  V30 COUNTS 80 79 0 0 0
M  V30 BEGIN ATOM
M  V30 1 N -10.2245 0.3887 -1.6335 0 CHG=1
M  V30 2 C -9.1614 -0.6511 -1.4745 0
M  V30 3 C -11.4602 -0.289 -2.0968 0
M  V30 4 C -9.8419 1.4011 -2.6474 0
M  V30 5 C -10.5191 1.0613 -0.3448 0
M  V30 6 C -7.7866 -0.1216 -1.0022 0
M  V30 7 C -6.7808 -1.2762 -0.8637 0
M  V30 8 C -5.3637 -0.7931 -0.5129 0
M  V30 9 C -5.2368 -0.3503 0.9551 0
M  V30 10 C -3.8241 0.1476 1.3007 0
M  V30 11 C -2.7829 -0.986 1.3211 0
M  V30 12 C -1.4504 -0.5564 1.9559 0
M  V30 13 C -0.6834 0.4572 1.0888 0
M  V30 14 C 0.6782 0.8384 1.6931 0
M  V30 15 C 1.749 -0.2422 1.4607 0
M  V30 16 C 3.1055 0.1265 2.0842 0
M  V30 17 C 3.8747 1.1679 1.2531 0
M  V30 18 C 5.1876 1.6161 1.9212 0
M  V30 19 C 6.2331 0.5031 2.1186 0
M  V30 20 C 6.688 -0.1335 0.7971 0
M  V30 21 C 7.8778 -1.0778 1.024 0
M  V30 22 C 8.2515 -1.8866 -0.2315 0
M  V30 23 C 8.6754 -1.0418 -1.4468 0
M  V30 24 C 9.921 -0.1851 -1.1766 0
M  V30 25 C 10.4109 0.4917 -2.4619 0
M  V30 26 C 11.6367 1.3606 -2.195 0
M  V30 27 H -9.0081 -1.1804 -2.4434 0
M  V30 28 H -9.4979 -1.4233 -0.7444 0
M  V30 29 H -12.2947 0.4353 -2.234 0
M  V30 30 H -11.2955 -0.7998 -3.0723 0
M  V30 31 H -11.7973 -1.0543 -1.3614 0
M  V30 32 H -10.6945 2.0791 -2.8776 0
M  V30 33 H -9.0131 2.0479 -2.2883 0
M  V30 34 H -9.5233 0.9156 -3.5966 0
M  V30 35 H -9.6815 1.7157 -0.0221 0
M  V30 36 H -11.4155 1.7159 -0.4312 0
M  V30 37 H -10.7141 0.317 0.4591 0
M  V30 38 H -7.3836 0.6056 -1.7368 0
M  V30 39 H -7.8937 0.3753 -0.0186 0
M  V30 40 H -7.1339 -1.9985 -0.0951 0
M  V30 41 H -6.7258 -1.8187 -1.833 0
M  V30 42 H -5.0687 0.0383 -1.1898 0
M  V30 43 H -4.669 -1.6394 -0.6971 0
M  V30 44 H -5.9406 0.4858 1.1493 0
M  V30 45 H -5.5158 -1.1884 1.6306 0
M  V30 46 H -3.8657 0.619 2.307 0
M  V30 47 H -3.5247 0.9307 0.5718 0
M  V30 48 H -3.1842 -1.8369 1.9141 0
M  V30 49 H -2.5935 -1.3515 0.2894 0
M  V30 50 H -0.8351 -1.4701 2.0893 0
M  V30 51 H -1.6365 -0.1276 2.9651 0
M  V30 52 H -1.2854 1.3869 1.0067 0
M  V30 53 H -0.5428 0.0553 0.0614 0
M  V30 54 H 1.0043 1.784 1.2121 0
M  V30 55 H 0.5656 1.0381 2.7815 0
M  V30 56 H 1.8729 -0.4283 0.3713 0
M  V30 57 H 1.4147 -1.1929 1.9259 0
M  V30 58 H 2.9576 0.4965 3.1225 0
M  V30 59 H 3.7086 -0.8043 2.139 0
M  V30 60 H 4.0762 0.771 0.2358 0
M  V30 61 H 3.2483 2.0751 1.1268 0
M  V30 62 H 5.6387 2.4243 1.3051 0
M  V30 63 H 4.9526 2.0605 2.9131 0
M  V30 64 H 5.8409 -0.2778 2.8036 0
M  V30 65 H 7.1156 0.9588 2.6193 0
M  V30 66 H 5.849 -0.7123 0.3552 0
M  V30 67 H 6.9828 0.6728 0.0924 0
M  V30 68 H 8.7566 -0.5035 1.3866 0
M  V30 69 H 7.6118 -1.8034 1.8239 0
M  V30 70 H 9.0798 -2.5807 0.0293 0
M  V30 71 H 7.3829 -2.5157 -0.5245 0
M  V30 72 H 7.8347 -0.3968 -1.7793 0
M  V30 73 H 8.8958 -1.7428 -2.2815 0
M  V30 74 H 9.6764 0.6015 -0.4309 0
M  V30 75 H 10.7316 -0.827 -0.7669 0
M  V30 76 H 10.6764 -0.2809 -3.2158 0
M  V30 77 H 9.6022 1.1298 -2.8807 0
M  V30 78 H 12.4685 0.7419 -1.7962 0
M  V30 79 H 11.3912 2.1603 -1.464 0
M  V30 80 H 11.969 1.8357 -3.1419 0
M  V30 END ATOM
M  V30 BEGIN BOND
M  V30 1 1 1 2
M  V30 2 1 1 3
M  V30 3 1 1 4
M  V30 4 1 1 5
M  V30 5 1 2 6
M  V30 6 1 6 7
M  V30 7 1 7 8
M  V30 8 1 8 9
M  V30 9 1 9 10
M  V30 10 1 10 11
M  V30 11 1 11 12
M  V30 12 1 12 13
M  V30 13 1 13 14
M  V30 14 1 14 15
M  V30 15 1 15 16
M  V30 16 1 16 17
M  V30 17 1 17 18
M  V30 18 1 18 19
M  V30 19 1 19 20
M  V30 20 1 20 21
M  V30 21 1 21 22
M  V30 22 1 22 23
M  V30 23 1 23 24
M  V30 24 1 24 25
M  V30 25 1 25 26
M  V30 26 1 2 27
M  V30 27 1 2 28
M  V30 28 1 3 29
M  V30 29 1 3 30
M  V30 30 1 3 31
M  V30 31 1 4 32
M  V30 32 1 4 33
M  V30 33 1 4 34
M  V30 34 1 5 35
M  V30 35 1 5 36
M  V30 36 1 5 37
M  V30 37 1 6 38
M  V30 38 1 6 39
M  V30 39 1 7 40
M  V30 40 1 7 41
M  V30 41 1 8 42
M  V30 42 1 8 43
M  V30 43 1 9 44
M  V30 44 1 9 45
M  V30 45 1 10 46
M  V30 46 1 10 47
M  V30 47 1 11 48
M  V30 48 1 11 49
M  V30 49 1 12 50
M  V30 50 1 12 51
M  V30 51 1 13 52
M  V30 52 1 13 53
M  V30 53 1 14 54
M  V30 54 1 14 55
M  V30 55 1 15 56
M  V30 56 1 15 57
M  V30 57 1 16 58
M  V30 58 1 16 59
M  V30 59 1 17 60
M  V30 60 1 17 61
M  V30 61 1 18 62
M  V30 62 1 18 63
M  V30 63 1 19 64
M  V30 64 1 19 65
M  V30 65 1 20 66
M  V30 66 1 20 67
M  V30 67 1 21 68
M  V30 68 1 21 69
M  V30 69 1 22 70
M  V30 70 1 22 71
M  V30 71 1 23 72
M  V30 72 1 23 73
M  V30 73 1 24 74
M  V30 74 1 24 75
M  V30 75 1 25 76
M  V30 76 1 25 77
M  V30 77 1 26 78
M  V30 78 1 26 79
M  V30 79 1 26 80
M  V30 END BOND
M  V30 END CTAB
M  END
>  <Structure No>
2650

>  <LogS>
-4.835973065

>  <MMFF94 Energy>
14.546

$$$$
Compound 2651
Actelion Java MolfileCreator 2.0

  0  0  0  0  0  0              0 V3000
M  V30 BEGIN CTAB
M  V30 COUNTS 30 32 0 0 0
M  V30 BEGIN ATOM
M  V30 1 O -2.6416 -1.12 -0.3999 0
M  V30 2 C -1.3289 -0.6544 -0.1858 0
M  V30 3 C -3.0 -2.4143 -0.877 0
M  V30 4 C -1.215 0.7402 0.315 0
M  V30 5 C -0.2679 -1.4642 -0.3961 0
M  V30 6 C -0.2174 1.6371 -0.128 0
M  V30 7 C -2.2277 1.2217 1.1681 0
M  V30 8 C 1.1569 -1.123 -0.191 0
M  V30 9 N 0.8551 1.2058 -0.967 0
M  V30 10 C -0.2641 2.984 0.2673 0
M  V30 11 C -2.249 2.5579 1.5723 0
M  V30 12 C 1.6947 0.1329 -0.5379 0
M  V30 13 C 2.0268 -2.1482 0.2214 0
M  V30 14 C -1.2718 3.4401 1.1169 0
M  V30 15 C 3.0819 0.34 -0.4682 0
M  V30 16 C 3.4024 -1.9242 0.3088 0
M  V30 17 C 3.9302 -0.6817 -0.0394 0
M  V30 18 H -2.6633 -3.1932 -0.1607 0
M  V30 19 H -4.104 -2.473 -0.9671 0
M  V30 20 H -2.5537 -2.5906 -1.8785 0
M  V30 21 H -0.4493 -2.4901 -0.6851 0
M  V30 22 H -3.0108 0.5615 1.5208 0
M  V30 23 H 1.2756 1.9152 -1.6104 0
M  V30 24 H 0.4954 3.6774 -0.0712 0
M  V30 25 H -3.0322 2.9118 2.2305 0
M  V30 26 H 1.6393 -3.1289 0.4704 0
M  V30 27 H -1.2933 4.4777 1.4242 0
M  V30 28 H 3.5033 1.3014 -0.7346 0
M  V30 29 H 4.0607 -2.7195 0.6335 0
M  V30 30 H 4.9972 -0.5108 0.0199 0
M  V30 END ATOM
M  V30 BEGIN BOND
M  V30 1 1 1 2
M  V30 2 1 1 3
M  V30 3 1 2 4
M  V30 4 2 2 5
M  V30 5 2 4 6
M  V30 6 1 4 7
M  V30 7 1 5 8
M  V30 8 1 6 9
M  V30 9 1 6 10
M  V30 10 2 7 11
M  V30 11 2 8 12
M  V30 12 1 8 13
M  V30 13 2 10 14
M  V30 14 1 12 15
M  V30 15 2 13 16
M  V30 16 2 15 17
M  V30 17 1 9 12
M  V30 18 1 11 14
M  V30 19 1 16 17
M  V30 20 1 3 18
M  V30 21 1 3 19
M  V30 22 1 3 20
M  V30 23 1 5 21
M  V30 24 1 7 22
M  V30 25 1 9 23
M  V30 26 1 10 24
M  V30 27 1 11 25
M  V30 28 1 13 26
M  V30 29 1 14 27
M  V30 30 1 15 28
M  V30 31 1 16 29
M  V30 32 1 17 30
M  V30 END BOND
M  V30 END CTAB
M  END
>  <Structure No>
2651

>  <LogS>
-4.514419394

>  <MMFF94 Energy>
72.442

$$$$
Compound 2652
Actelion Java MolfileCreator 2.0

  0  0  0  0  0  0              0 V3000
M  V30 BEGIN CTAB
M  V30 COUNTS 61 60 0 0 0
M  V30 BEGIN ATOM
M  V30 1 O -4.4465 1.2465 -1.8703 0
M  V30 2 C -5.3091 1.6942 -0.8508 0 CFG=2
M  V30 3 C -4.6853 2.9286 -0.2231 0
M  V30 4 C -5.5289 0.5665 0.2041 0
M  V30 5 C -6.6594 2.0784 -1.4916 0
M  V30 6 C -5.2522 3.6047 0.7844 0
M  V30 7 C -4.3028 0.2083 1.0713 0
M  V30 8 C -3.1457 -0.4142 0.269 0
M  V30 9 C -2.0476 -1.0203 1.1799 0 CFG=2
M  V30 10 C -0.706 -1.0951 0.4097 0
M  V30 11 C -2.4691 -2.4111 1.6924 0
M  V30 12 C 0.4787 -1.5124 1.2977 0
M  V30 13 C 1.8103 -1.3682 0.5423 0
M  V30 14 C 3.0209 -1.8444 1.3843 0 CFG=1
M  V30 15 C 4.2315 -2.2745 0.5101 0
M  V30 16 C 3.4108 -0.8211 2.4634 0
M  V30 17 C 5.1396 -1.1551 -0.0425 0
M  V30 18 C 4.4559 -0.2559 -1.0874 0
M  V30 19 C 5.4672 0.4835 -1.9921 0
M  V30 20 C 4.7272 1.2159 -3.1187 0
M  V30 21 C 6.3233 1.4794 -1.1952 0
M  V30 22 H -4.8455 0.4348 -2.281 0
M  V30 23 H -3.7293 3.2806 -0.6014 0
M  V30 24 H -5.8904 -0.3547 -0.3037 0
M  V30 25 H -6.3438 0.8733 0.8962 0
M  V30 26 H -7.3786 2.4465 -0.7294 0
M  V30 27 H -6.5109 2.8748 -2.2525 0
M  V30 28 H -7.1147 1.1984 -1.9946 0
M  V30 29 H -4.7572 4.4781 1.1959 0
M  V30 30 H -6.2015 3.2962 1.2096 0
M  V30 31 H -3.9379 1.1064 1.6138 0
M  V30 32 H -4.6509 -0.5073 1.8437 0
M  V30 33 H -2.6979 0.3937 -0.3466 0
M  V30 34 H -3.5323 -1.1927 -0.4253 0
M  V30 35 H -1.9041 -0.3487 2.0561 0
M  V30 36 H -0.4805 -0.09 -0.0109 0
M  V30 37 H -0.8001 -1.804 -0.4426 0
M  V30 38 H -1.7602 -2.7741 2.4646 0
M  V30 39 H -3.4687 -2.38 2.1694 0
M  V30 40 H -2.5013 -3.143 0.8572 0
M  V30 41 H 0.4949 -0.8749 2.2071 0
M  V30 42 H 0.3556 -2.5723 1.605 0
M  V30 43 H 1.7439 -1.9719 -0.3892 0
M  V30 44 H 1.9346 -0.3061 0.2512 0
M  V30 45 H 2.7063 -2.7684 1.9203 0
M  V30 46 H 4.8767 -2.9292 1.1371 0
M  V30 47 H 3.8841 -2.9157 -0.3291 0
M  V30 48 H 4.3248 -1.1571 2.9979 0
M  V30 49 H 3.5992 0.1774 2.016 0
M  V30 50 H 2.6004 -0.7219 3.2146 0
M  V30 51 H 5.5387 -0.5382 0.7894 0
M  V30 52 H 6.0132 -1.6542 -0.5164 0
M  V30 53 H 3.828 0.4981 -0.5697 0
M  V30 54 H 3.7973 -0.8826 -1.7284 0
M  V30 55 H 6.1439 -0.2624 -2.4648 0
M  V30 56 H 4.1463 0.4931 -3.7306 0
M  V30 57 H 4.0299 1.9744 -2.7015 0
M  V30 58 H 5.4527 1.7256 -3.7886 0
M  V30 59 H 5.6796 2.212 -0.6626 0
M  V30 60 H 7.0044 2.0321 -1.8769 0
M  V30 61 H 6.9544 0.9463 -0.4544 0
M  V30 END ATOM
M  V30 BEGIN BOND
M  V30 1 1 1 2
M  V30 2 1 2 3
M  V30 3 1 2 4
M  V30 4 1 2 5
M  V30 5 2 3 6
M  V30 6 1 4 7
M  V30 7 1 7 8
M  V30 8 1 8 9
M  V30 9 1 9 10
M  V30 10 1 9 11
M  V30 11 1 10 12
M  V30 12 1 12 13
M  V30 13 1 13 14
M  V30 14 1 14 15
M  V30 15 1 14 16
M  V30 16 1 15 17
M  V30 17 1 17 18
M  V30 18 1 18 19
M  V30 19 1 19 20
M  V30 20 1 19 21
M  V30 21 1 1 22
M  V30 22 1 3 23
M  V30 23 1 4 24
M  V30 24 1 4 25
M  V30 25 1 5 26
M  V30 26 1 5 27
M  V30 27 1 5 28
M  V30 28 1 6 29
M  V30 29 1 6 30
M  V30 30 1 7 31
M  V30 31 1 7 32
M  V30 32 1 8 33
M  V30 33 1 8 34
M  V30 34 1 9 35
M  V30 35 1 10 36
M  V30 36 1 10 37
M  V30 37 1 11 38
M  V30 38 1 11 39
M  V30 39 1 11 40
M  V30 40 1 12 41
M  V30 41 1 12 42
M  V30 42 1 13 43
M  V30 43 1 13 44
M  V30 44 1 14 45
M  V30 45 1 15 46
M  V30 46 1 15 47
M  V30 47 1 16 48
M  V30 48 1 16 49
M  V30 49 1 16 50
M  V30 50 1 17 51
M  V30 51 1 17 52
M  V30 52 1 18 53
M  V30 53 1 18 54
M  V30 54 1 19 55
M  V30 55 1 20 56
M  V30 56 1 20 57
M  V30 57 1 20 58
M  V30 58 1 21 59
M  V30 59 1 21 60
M  V30 60 1 21 61
M  V30 END BOND
M  V30 BEGIN COLLECTION
M  V30 MDLV30/STEABS ATOMS=(3 2 9 14)
M  V30 END COLLECTION
M  V30 END CTAB
M  END
>  <Structure No>
2652

>  <LogS>
-4.708653825

>  <MMFF94 Energy>
25.766

$$$$
Compound 2653
Actelion Java MolfileCreator 2.0

  0  0  0  0  0  0              0 V3000
M  V30 BEGIN CTAB
M  V30 COUNTS 67 68 0 0 0
M  V30 BEGIN ATOM
M  V30 1 S 0.0801 0.0 0.0 0
M  V30 2 O 0.9994 0.2688 -1.1571 0
M  V30 3 O 0.8938 -0.2553 1.2365 0
M  V30 4 O -0.8646 -1.347 -0.3364 0 CHG=-1
M  V30 5 O -0.9117 1.3324 0.248 0 CHG=-1
M  V30 6 N -4.965 1.0569 1.159 0
M  V30 7 C -3.6983 0.6422 0.5971 0
M  V30 8 C -5.5833 0.2992 2.2595 0
M  V30 9 C -5.6521 2.2471 0.6357 0
M  V30 10 C -2.6417 0.2361 1.431 0
M  V30 11 C -3.5051 0.6283 -0.7952 0
M  V30 12 C -5.9037 -1.1275 1.8231 0
M  V30 13 C -6.889 1.8563 -0.1699 0
M  V30 14 C -1.4243 -0.1764 0.8849 0
M  V30 15 C -2.2872 0.2147 -1.341 0
M  V30 16 C -1.2352 -0.1944 -0.506 0
M  V30 17 C 0.0612 -0.6367 -1.0842 0 CHG=1
M  V30 18 C 1.3322 -0.2658 -0.4108 0
M  V30 19 C 0.0887 -1.4669 -2.3178 0
M  V30 20 C 1.5113 1.0263 0.1072 0
M  V30 21 C 2.3625 -1.2071 -0.267 0
M  V30 22 C 1.0975 -1.2802 -3.2802 0
M  V30 23 C -0.8878 -2.4559 -2.5362 0
M  V30 24 C 2.6989 1.3709 0.7582 0
M  V30 25 C 3.5478 -0.8644 0.3882 0
M  V30 26 C 1.1254 -2.0649 -4.437 0
M  V30 27 C -0.8561 -3.2369 -3.6953 0
M  V30 28 C 3.7308 0.4286 0.9068 0
M  V30 29 C 0.1492 -3.0415 -4.6449 0
M  V30 30 N 4.9574 0.7781 1.5865 0
M  V30 31 C 5.646 2.0441 1.286 0
M  V30 32 C 5.5228 -0.1256 2.5984 0
M  V30 33 C 6.1478 2.0576 -0.1555 0
M  V30 34 C 6.7926 -0.7999 2.0838 0
M  V30 35 H -4.9138 0.2827 3.1437 0
M  V30 36 H -6.5283 0.7853 2.5864 0
M  V30 37 H -4.9689 2.8438 -0.0072 0
M  V30 38 H -5.9552 2.9037 1.4797 0
M  V30 39 H -2.7463 0.2502 2.5066 0
M  V30 40 H -4.3002 0.9263 -1.4647 0
M  V30 41 H -4.9684 -1.6846 1.6038 0
M  V30 42 H -6.5431 -1.114 0.9153 0
M  V30 43 H -6.4457 -1.6541 2.6361 0
M  V30 44 H -7.6431 1.3741 0.4862 0
M  V30 45 H -7.3423 2.7654 -0.6178 0
M  V30 46 H -6.6199 1.1529 -0.9845 0
M  V30 47 H -0.6314 -0.4913 1.5515 0
M  V30 48 H -2.1648 0.2214 -2.4171 0
M  V30 49 H 0.7303 1.7704 0.0067 0
M  V30 50 H 2.243 -2.2136 -0.6479 0
M  V30 51 H 1.8564 -0.52 -3.142 0
M  V30 52 H -1.6669 -2.6326 -1.8048 0
M  V30 53 H 2.7959 2.3673 1.1662 0
M  V30 54 H 4.3238 -1.6106 0.4838 0
M  V30 55 H 1.9031 -1.9149 -5.1742 0
M  V30 56 H -1.6097 -3.9976 -3.8542 0
M  V30 57 H 0.1736 -3.6477 -5.541 0
M  V30 58 H 4.9691 2.9059 1.4584 0
M  V30 59 H 6.5182 2.1845 1.9611 0
M  V30 60 H 5.7577 0.4486 3.5208 0
M  V30 61 H 4.7836 -0.9073 2.8817 0
M  V30 62 H 6.8473 1.2098 -0.3222 0
M  V30 63 H 5.2966 1.9748 -0.8647 0
M  V30 64 H 6.6853 3.0094 -0.354 0
M  V30 65 H 7.152 -1.5355 2.8349 0
M  V30 66 H 7.592 -0.0466 1.9169 0
M  V30 67 H 6.5936 -1.3307 1.1293 0
M  V30 END ATOM
M  V30 BEGIN BOND
M  V30 1 2 1 2
M  V30 2 2 1 3
M  V30 3 1 1 4
M  V30 4 1 1 5
M  V30 5 1 6 7
M  V30 6 1 6 8
M  V30 7 1 6 9
M  V30 8 2 7 10
M  V30 9 1 7 11
M  V30 10 1 8 12
M  V30 11 1 9 13
M  V30 12 1 10 14
M  V30 13 2 11 15
M  V30 14 2 14 16
M  V30 15 1 16 17
M  V30 16 1 17 18
M  V30 17 1 17 19
M  V30 18 2 18 20
M  V30 19 1 18 21
M  V30 20 2 19 22
M  V30 21 1 19 23
M  V30 22 1 20 24
M  V30 23 2 21 25
M  V30 24 1 22 26
M  V30 25 2 23 27
M  V30 26 2 24 28
M  V30 27 2 26 29
M  V30 28 1 28 30
M  V30 29 1 30 31
M  V30 30 1 30 32
M  V30 31 1 31 33
M  V30 32 1 32 34
M  V30 33 1 15 16
M  V30 34 1 25 28
M  V30 35 1 27 29
M  V30 36 1 8 35
M  V30 37 1 8 36
M  V30 38 1 9 37
M  V30 39 1 9 38
M  V30 40 1 10 39
M  V30 41 1 11 40
M  V30 42 1 12 41
M  V30 43 1 12 42
M  V30 44 1 12 43
M  V30 45 1 13 44
M  V30 46 1 13 45
M  V30 47 1 13 46
M  V30 48 1 14 47
M  V30 49 1 15 48
M  V30 50 1 20 49
M  V30 51 1 21 50
M  V30 52 1 22 51
M  V30 53 1 23 52
M  V30 54 1 24 53
M  V30 55 1 25 54
M  V30 56 1 26 55
M  V30 57 1 27 56
M  V30 58 1 29 57
M  V30 59 1 31 58
M  V30 60 1 31 59
M  V30 61 1 32 60
M  V30 62 1 32 61
M  V30 63 1 33 62
M  V30 64 1 33 63
M  V30 65 1 33 64
M  V30 66 1 34 65
M  V30 67 1 34 66
M  V30 68 1 34 67
M  V30 END BOND
M  V30 END CTAB
M  END
>  <Structure No>
2653

>  <LogS>
-2.057288344

>  <MMFF94 Energy>
67.441

$$$$
Compound 2654
Actelion Java MolfileCreator 2.0

  0  0  0  0  0  0              0 V3000
M  V30 BEGIN CTAB
M  V30 COUNTS 46 49 0 0 0
M  V30 BEGIN ATOM
M  V30 1 O -4.6881 -1.2108 -1.5339 0
M  V30 2 C -3.8909 -1.0286 -0.6267 0
M  V30 3 C -2.6638 -0.1728 -0.754 0 CFG=1
M  V30 4 C -4.0266 -1.6962 0.6918 0
M  V30 5 C -2.1667 -0.1123 0.7143 0 CFG=1
M  V30 6 C -1.6298 -0.915 -1.63 0
M  V30 7 C -3.0051 1.2653 -1.2568 0
M  V30 8 C -2.7175 -1.3727 1.4005 0
M  V30 9 C -0.6616 0.03 0.8954 0
M  V30 10 C -0.2602 -0.2463 -1.5606 0
M  V30 11 C -3.3307 1.3825 -2.7498 0
M  V30 12 C 0.2177 -0.059 -0.1367 0
M  V30 13 C -0.1468 0.3244 2.2899 0
M  V30 14 C 1.6846 0.0587 0.1396 0
M  V30 15 C 1.1682 -0.4102 2.5586 0
M  V30 16 C 2.1516 -0.1089 1.4606 0
M  V30 17 C 2.6134 0.3448 -0.8782 0
M  V30 18 C 3.5249 -0.0434 1.7369 0
M  V30 19 C 3.9786 0.4273 -0.5921 0
M  V30 20 C 4.4447 0.2266 0.7193 0
M  V30 21 O 5.8062 0.2892 1.0518 0
M  V30 22 C 6.85 0.5548 0.1204 0
M  V30 23 H -4.892 -1.2666 1.2408 0
M  V30 24 H -4.1514 -2.7939 0.5707 0
M  V30 25 H -2.6436 0.7586 1.2217 0
M  V30 26 H -1.5181 -1.9648 -1.2745 0
M  V30 27 H -1.9671 -0.9777 -2.6861 0
M  V30 28 H -2.1518 1.9448 -1.0414 0
M  V30 29 H -3.8745 1.6566 -0.6829 0
M  V30 30 H -2.8883 -1.207 2.4863 0
M  V30 31 H -2.0087 -2.2212 1.2704 0
M  V30 32 H -0.2889 0.7406 -2.0682 0
M  V30 33 H 0.4522 -0.895 -2.1139 0
M  V30 34 H -3.6705 2.417 -2.9677 0
M  V30 35 H -4.1401 0.6869 -3.0461 0
M  V30 36 H -2.4293 1.1897 -3.367 0
M  V30 37 H -0.8905 0.035 3.0621 0
M  V30 38 H 0.0221 1.4196 2.3802 0
M  V30 39 H 1.5673 -0.0868 3.5448 0
M  V30 40 H 0.9856 -1.5061 2.594 0
M  V30 41 H 2.2921 0.5191 -1.8961 0
M  V30 42 H 3.8827 -0.1975 2.7477 0
M  V30 43 H 4.6636 0.6474 -1.3993 0
M  V30 44 H 6.7073 1.5564 -0.3375 0
M  V30 45 H 6.8667 -0.2273 -0.6676 0
M  V30 46 H 7.8228 0.5432 0.6531 0
M  V30 END ATOM
M  V30 BEGIN BOND
M  V30 1 2 1 2
M  V30 2 1 2 3
M  V30 3 1 2 4
M  V30 4 1 3 5
M  V30 5 1 3 6
M  V30 6 1 3 7
M  V30 7 1 4 8
M  V30 8 1 5 9
M  V30 9 1 6 10
M  V30 10 1 7 11
M  V30 11 2 9 12
M  V30 12 1 9 13
M  V30 13 1 12 14
M  V30 14 1 13 15
M  V30 15 2 14 16
M  V30 16 1 14 17
M  V30 17 1 16 18
M  V30 18 2 17 19
M  V30 19 2 18 20
M  V30 20 1 20 21
M  V30 21 1 21 22
M  V30 22 1 5 8
M  V30 23 1 10 12
M  V30 24 1 15 16
M  V30 25 1 19 20
M  V30 26 1 4 23
M  V30 27 1 4 24
M  V30 28 1 5 25
M  V30 29 1 6 26
M  V30 30 1 6 27
M  V30 31 1 7 28
M  V30 32 1 7 29
M  V30 33 1 8 30
M  V30 34 1 8 31
M  V30 35 1 10 32
M  V30 36 1 10 33
M  V30 37 1 11 34
M  V30 38 1 11 35
M  V30 39 1 11 36
M  V30 40 1 13 37
M  V30 41 1 13 38
M  V30 42 1 15 39
M  V30 43 1 15 40
M  V30 44 1 17 41
M  V30 45 1 18 42
M  V30 46 1 19 43
M  V30 47 1 22 44
M  V30 48 1 22 45
M  V30 49 1 22 46
M  V30 END BOND
M  V30 BEGIN COLLECTION
M  V30 MDLV30/STEABS ATOMS=(2 3 5)
M  V30 END COLLECTION
M  V30 END CTAB
M  END
>  <Structure No>
2654

>  <LogS>
-4.772922847

>  <MMFF94 Energy>
55.971

$$$$
Compound 2655
Actelion Java MolfileCreator 2.0

  0  0  0  0  0  0              0 V3000
M  V30 BEGIN CTAB
M  V30 COUNTS 49 52 0 0 0
M  V30 BEGIN ATOM
M  V30 1 O 5.5726 1.2094 0.0805 0
M  V30 2 C 4.2508 0.8875 -0.2592 0
M  V30 3 C 6.4998 0.2873 0.6421 0
M  V30 4 C 3.4963 1.8294 -0.8299 0
M  V30 5 C 3.6793 -0.4962 -0.0482 0
M  V30 6 C 2.1001 1.5356 -1.3045 0
M  V30 7 C 2.1825 -0.4547 0.1872 0
M  V30 8 C 1.415 0.4534 -0.483 0
M  V30 9 C 1.5856 -1.5367 1.0688 0
M  V30 10 C -0.1045 0.5105 -0.2978 0 CFG=2
M  V30 11 C 0.1395 -1.252 1.4787 0
M  V30 12 C -0.6611 -0.8233 0.2464 0 CFG=1
M  V30 13 C -0.8537 0.8545 -1.5999 0
M  V30 14 C -2.19 -0.7809 0.511 0 CFG=2
M  V30 15 C -2.3598 0.9962 -1.3345 0
M  V30 16 C -3.0104 -0.2717 -0.6954 0 CFG=2
M  V30 17 C -2.6347 0.0758 1.7065 0
M  V30 18 C -4.3646 0.1275 -0.0518 0 CFG=2
M  V30 19 C -3.1859 -1.368 -1.7754 0
M  V30 20 C -4.0277 0.6119 1.3673 0
M  V30 21 O -5.281 -0.9433 -0.0057 0
M  V30 22 H 6.6029 -0.6015 -0.0157 0
M  V30 23 H 7.4896 0.7794 0.7336 0
M  V30 24 H 6.165 -0.0217 1.6546 0
M  V30 25 H 3.9131 2.8129 -1.0106 0
M  V30 26 H 3.8829 -1.1064 -0.9534 0
M  V30 27 H 4.1715 -0.9882 0.815 0
M  V30 28 H 2.1457 1.2063 -2.3639 0
M  V30 29 H 1.5229 2.4821 -1.2509 0
M  V30 30 H 1.6272 -2.5009 0.5174 0
M  V30 31 H 2.1959 -1.6471 1.991 0
M  V30 32 H -0.2926 1.3239 0.4349 0
M  V30 33 H -0.2988 -2.1727 1.9218 0
M  V30 34 H 0.123 -0.4516 2.251 0
M  V30 35 H -0.5006 -1.6046 -0.5326 0
M  V30 36 H -0.6625 0.0805 -2.3734 0
M  V30 37 H -0.5016 1.823 -2.0108 0
M  V30 38 H -2.5078 -1.8257 0.7354 0
M  V30 39 H -2.5006 1.8763 -0.6679 0
M  V30 40 H -2.8722 1.2425 -2.2905 0
M  V30 41 H -2.6661 -0.5385 2.6329 0
M  V30 42 H -1.9491 0.9297 1.8833 0
M  V30 43 H -4.8478 0.9504 -0.6245 0
M  V30 44 H -3.8819 -1.0181 -2.5676 0
M  V30 45 H -3.5942 -2.3052 -1.3422 0
M  V30 46 H -2.2175 -1.6233 -2.2508 0
M  V30 47 H -4.0176 1.7241 1.3926 0
M  V30 48 H -4.7793 0.2591 2.1075 0
M  V30 49 H -4.9104 -1.644 0.5922 0
M  V30 END ATOM
M  V30 BEGIN BOND
M  V30 1 1 1 2
M  V30 2 1 1 3
M  V30 3 2 2 4
M  V30 4 1 2 5
M  V30 5 1 4 6
M  V30 6 1 5 7
M  V30 7 1 6 8
M  V30 8 1 7 9
M  V30 9 1 8 10
M  V30 10 1 9 11
M  V30 11 1 10 12
M  V30 12 1 10 13
M  V30 13 1 12 14
M  V30 14 1 13 15
M  V30 15 1 14 16
M  V30 16 1 14 17
M  V30 17 1 16 18
M  V30 18 1 16 19
M  V30 19 1 17 20
M  V30 20 1 18 21
M  V30 21 2 7 8
M  V30 22 1 11 12
M  V30 23 1 15 16
M  V30 24 1 18 20
M  V30 25 1 3 22
M  V30 26 1 3 23
M  V30 27 1 3 24
M  V30 28 1 4 25
M  V30 29 1 5 26
M  V30 30 1 5 27
M  V30 31 1 6 28
M  V30 32 1 6 29
M  V30 33 1 9 30
M  V30 34 1 9 31
M  V30 35 1 10 32
M  V30 36 1 11 33
M  V30 37 1 11 34
M  V30 38 1 12 35
M  V30 39 1 13 36
M  V30 40 1 13 37
M  V30 41 1 14 38
M  V30 42 1 15 39
M  V30 43 1 15 40
M  V30 44 1 17 41
M  V30 45 1 17 42
M  V30 46 1 18 43
M  V30 47 1 19 44
M  V30 48 1 19 45
M  V30 49 1 19 46
M  V30 50 1 20 47
M  V30 51 1 20 48
M  V30 52 1 21 49
M  V30 END BOND
M  V30 BEGIN COLLECTION
M  V30 MDLV30/STEABS ATOMS=(5 10 12 14 16 18)
M  V30 END COLLECTION
M  V30 END CTAB
M  END
>  <Structure No>
2655

>  <LogS>
-4.761071931

>  <MMFF94 Energy>
65.865

$$$$
Compound 2656
Actelion Java MolfileCreator 2.0

  0  0  0  0  0  0              0 V3000
M  V30 BEGIN CTAB
M  V30 COUNTS 47 49 0 0 0
M  V30 BEGIN ATOM
M  V30 1 O -2.4074 1.765 1.6044 0
M  V30 2 C -3.1833 1.4733 0.7067 0
M  V30 3 C -2.9248 0.3714 -0.2808 0
M  V30 4 C -4.4982 2.1613 0.5381 0
M  V30 5 C -4.2023 0.4011 -1.0659 0
M  V30 6 C -1.7419 0.7195 -1.2251 0
M  V30 7 C -2.7273 -1.0035 0.4172 0
M  V30 8 C -5.1766 1.4458 -0.6308 0
M  V30 9 O -4.4352 -0.3646 -1.9893 0
M  V30 10 C -0.4199 0.8525 -0.5001 0
M  V30 11 C -3.875 -1.4085 1.3507 0
M  V30 12 C 0.5821 -0.0569 -0.524 0
M  V30 13 C 1.8468 0.1794 0.2509 0
M  V30 14 C 0.5076 -1.2545 -1.4586 0
M  V30 15 C 3.0317 -0.4868 -0.1366 0
M  V30 16 C 1.8846 1.0097 1.391 0
M  V30 17 C 1.6927 -2.2138 -1.3083 0
M  V30 18 C 4.2348 -0.2441 0.5453 0
M  V30 19 C 3.0132 -1.4461 -1.2958 0
M  V30 20 C 3.0822 1.2285 2.0746 0
M  V30 21 C 4.2651 0.6176 1.6551 0
M  V30 22 O 5.4423 0.8846 2.3702 0
M  V30 23 C 6.7166 0.3313 2.0583 0
M  V30 24 H -5.1022 2.0593 1.4655 0
M  V30 25 H -4.3373 3.2361 0.3057 0
M  V30 26 H -1.691 -0.0219 -2.0485 0
M  V30 27 H -1.9456 1.6958 -1.719 0
M  V30 28 H -2.619 -1.7945 -0.3557 0
M  V30 29 H -1.7903 -0.9891 1.0149 0
M  V30 30 H -6.1249 0.9675 -0.304 0
M  V30 31 H -5.375 2.1524 -1.4654 0
M  V30 32 H -0.3037 1.7663 0.0632 0
M  V30 33 H -3.9903 -0.6749 2.1757 0
M  V30 34 H -3.6524 -2.4003 1.7975 0
M  V30 35 H -4.8305 -1.4871 0.7912 0
M  V30 36 H 0.4861 -0.8877 -2.5081 0
M  V30 37 H -0.4209 -1.8309 -1.2684 0
M  V30 38 H 0.9917 1.4769 1.7814 0
M  V30 39 H 1.5879 -2.7917 -0.363 0
M  V30 40 H 1.6913 -2.9364 -2.1528 0
M  V30 41 H 5.1376 -0.7396 0.2141 0
M  V30 42 H 3.1362 -0.8808 -2.2448 0
M  V30 43 H 3.8468 -2.1774 -1.2142 0
M  V30 44 H 3.0897 1.8762 2.9424 0
M  V30 45 H 7.4649 0.7144 2.782 0
M  V30 46 H 7.0242 0.6339 1.0351 0
M  V30 47 H 6.6816 -0.7757 2.136 0
M  V30 END ATOM
M  V30 BEGIN BOND
M  V30 1 2 1 2
M  V30 2 1 2 3
M  V30 3 1 2 4
M  V30 4 1 3 5
M  V30 5 1 3 6
M  V30 6 1 3 7
M  V30 7 1 4 8
M  V30 8 2 5 9
M  V30 9 1 6 10
M  V30 10 1 7 11
M  V30 11 2 10 12
M  V30 12 1 12 13
M  V30 13 1 12 14
M  V30 14 2 13 15
M  V30 15 1 13 16
M  V30 16 1 14 17
M  V30 17 1 15 18
M  V30 18 1 15 19
M  V30 19 2 16 20
M  V30 20 2 18 21
M  V30 21 1 21 22
M  V30 22 1 22 23
M  V30 23 1 5 8
M  V30 24 1 17 19
M  V30 25 1 20 21
M  V30 26 1 4 24
M  V30 27 1 4 25
M  V30 28 1 6 26
M  V30 29 1 6 27
M  V30 30 1 7 28
M  V30 31 1 7 29
M  V30 32 1 8 30
M  V30 33 1 8 31
M  V30 34 1 10 32
M  V30 35 1 11 33
M  V30 36 1 11 34
M  V30 37 1 11 35
M  V30 38 1 14 36
M  V30 39 1 14 37
M  V30 40 1 16 38
M  V30 41 1 17 39
M  V30 42 1 17 40
M  V30 43 1 18 41
M  V30 44 1 19 42
M  V30 45 1 19 43
M  V30 46 1 20 44
M  V30 47 1 23 45
M  V30 48 1 23 46
M  V30 49 1 23 47
M  V30 END BOND
M  V30 END CTAB
M  END
>  <Structure No>
2656

>  <LogS>
-4.838817119

>  <MMFF94 Energy>
26.151

$$$$
Compound 2657
Actelion Java MolfileCreator 2.0

  0  0  0  0  0  0              0 V3000
M  V30 BEGIN CTAB
M  V30 COUNTS 5 4 0 0 0
M  V30 BEGIN ATOM
M  V30 1 O -0.3946 1.1841 0.7103 0
M  V30 2 C -0.3968 -8.0E-4 0.2856 0
M  V30 3 O 0.7325 -0.526 -0.3318 0
M  V30 4 O -1.5315 -0.7863 0.434 0 CHG=-1
M  V30 5 H 1.5687 0.0341 -0.448 0
M  V30 END ATOM
M  V30 BEGIN BOND
M  V30 1 2 1 2
M  V30 2 1 2 3
M  V30 3 1 2 4
M  V30 4 1 3 5
M  V30 END BOND
M  V30 END CTAB
M  END
>  <Structure No>
2657

>  <LogS>
-4.500587238

>  <MMFF94 Energy>
-89.96

$$$$
Compound 2658
Actelion Java MolfileCreator 2.0

  0  0  0  0  0  0              0 V3000
M  V30 BEGIN CTAB
M  V30 COUNTS 35 37 0 0 0
M  V30 BEGIN ATOM
M  V30 1 Cl -2.6589 0.9134 -2.0768 0
M  V30 2 C -2.6676 -0.4538 -0.9663 0
M  V30 3 C -1.5159 -0.8382 -0.2414 0
M  V30 4 C -3.8468 -1.2003 -0.8487 0
M  V30 5 C -0.252 -0.0661 -0.3205 0
M  V30 6 C -1.5717 -1.9832 0.5735 0
M  V30 7 C -3.8907 -2.3267 -0.0247 0
M  V30 8 N 0.8469 -0.7356 -0.516 0
M  V30 9 C -0.2657 1.3939 -0.0176 0
M  V30 10 C -2.7538 -2.7196 0.6826 0
M  V30 11 C 2.1801 -0.2318 -0.6648 0 CHG=-1 CFG=1
M  V30 12 C 0.4947 2.3301 -0.7543 0
M  V30 13 C -1.141 1.8666 0.9815 0
M  V30 14 O 3.2762 -0.9672 -0.1924 0
M  V30 15 C 2.4502 0.9682 -1.465 0
M  V30 16 N 1.4288 1.9212 -1.7579 0
M  V30 17 C 0.331 3.7037 -0.5114 0
M  V30 18 C -1.2765 3.2347 1.2281 0
M  V30 19 C 3.1959 -2.1011 0.6263 0
M  V30 20 O 3.6094 1.1491 -1.9244 0
M  V30 21 C -0.5461 4.1529 0.4754 0
M  V30 22 Cl -2.3781 3.7983 2.4717 0
M  V30 23 O 2.0969 -2.4849 1.11 0
M  V30 24 C 4.4474 -2.8254 0.9892 0
M  V30 25 H -4.7304 -0.9125 -1.4045 0
M  V30 26 H -0.7038 -2.2971 1.1398 0
M  V30 27 H -4.8053 -2.8993 0.0604 0
M  V30 28 H -2.7889 -3.5947 1.3185 0
M  V30 29 H -1.7291 1.1708 1.5678 0
M  V30 30 H 1.6187 2.5869 -2.5415 0
M  V30 31 H 0.9006 4.4283 -1.0798 0
M  V30 32 H -0.6532 5.2149 0.6568 0
M  V30 33 H 4.8256 -2.4458 1.9612 0
M  V30 34 H 4.2479 -3.9146 1.0729 0
M  V30 35 H 5.2197 -2.6618 0.2087 0
M  V30 END ATOM
M  V30 BEGIN BOND
M  V30 1 1 1 2
M  V30 2 2 2 3
M  V30 3 1 2 4
M  V30 4 1 3 5
M  V30 5 1 3 6
M  V30 6 2 4 7
M  V30 7 2 5 8
M  V30 8 1 5 9
M  V30 9 2 6 10
M  V30 10 1 8 11
M  V30 11 2 9 12
M  V30 12 1 9 13
M  V30 13 1 11 14
M  V30 14 1 11 15
M  V30 15 1 12 16
M  V30 16 1 12 17
M  V30 17 2 13 18
M  V30 18 1 14 19
M  V30 19 2 15 20
M  V30 20 2 17 21
M  V30 21 1 18 22
M  V30 22 2 19 23
M  V30 23 1 19 24
M  V30 24 1 7 10
M  V30 25 1 15 16
M  V30 26 1 18 21
M  V30 27 1 4 25
M  V30 28 1 6 26
M  V30 29 1 7 27
M  V30 30 1 10 28
M  V30 31 1 13 29
M  V30 32 1 16 30
M  V30 33 1 17 31
M  V30 34 1 21 32
M  V30 35 1 24 33
M  V30 36 1 24 34
M  V30 37 1 24 35
M  V30 END BOND
M  V30 BEGIN COLLECTION
M  V30 MDLV30/STEABS ATOMS=(1 11)
M  V30 END COLLECTION
M  V30 END CTAB
M  END
>  <Structure No>
2658

>  <LogS>
-5.028666923

>  <MMFF94 Energy>
90.008

$$$$
Compound 2659
Actelion Java MolfileCreator 2.0

  0  0  0  0  0  0              0 V3000
M  V30 BEGIN CTAB
M  V30 COUNTS 47 50 0 0 0
M  V30 BEGIN ATOM
M  V30 1 O -5.3465 -0.8896 -0.2425 0
M  V30 2 C -4.3973 -0.1555 -0.4749 0
M  V30 3 C -3.104 -0.2312 0.2719 0 CFG=2
M  V30 4 C -4.4466 0.8926 -1.5181 0
M  V30 5 C -2.2563 0.9177 -0.359 0 CFG=2
M  V30 6 C -2.4509 -1.6194 0.0527 0
M  V30 7 C -3.3792 0.0161 1.7722 0
M  V30 8 C -3.0141 1.3997 -1.6179 0
M  V30 9 C -0.7941 0.497 -0.6911 0 CFG=2
M  V30 10 C -0.9989 -1.6947 0.5745 0
M  V30 11 C -0.2146 -0.3584 0.4558 0 CFG=1
M  V30 12 C 0.1019 1.716 -0.9376 0
M  V30 13 C 1.2916 -0.588 0.3252 0
M  V30 14 C 1.4872 1.2518 -1.385 0
M  V30 15 C 2.0723 0.1974 -0.4685 0
M  V30 16 C 1.9585 -1.6143 1.2275 0
M  V30 17 C 3.5659 -0.057 -0.5386 0
M  V30 18 C 3.343 -1.192 1.6339 0
M  V30 19 C 4.1156 -0.4816 0.807 0
M  V30 20 O 5.4286 -0.1929 1.2049 0
M  V30 21 C 6.3702 0.5085 0.4008 0
M  V30 22 H -4.7857 0.4659 -2.4868 0
M  V30 23 H -5.1335 1.7051 -1.1972 0
M  V30 24 H -2.2209 1.7745 0.3535 0
M  V30 25 H -3.0572 -2.4149 0.5395 0
M  V30 26 H -2.4422 -1.8482 -1.0369 0
M  V30 27 H -2.4378 0.052 2.3557 0
M  V30 28 H -3.9117 0.9812 1.9188 0
M  V30 29 H -4.0127 -0.7948 2.1917 0
M  V30 30 H -2.996 2.5092 -1.6893 0
M  V30 31 H -2.5581 0.9888 -2.5455 0
M  V30 32 H -0.7913 -0.1243 -1.6168 0
M  V30 33 H -1.0178 -2.0079 1.6411 0
M  V30 34 H -0.4788 -2.4968 0.0058 0
M  V30 35 H -0.35 0.2093 1.4024 0
M  V30 36 H 0.1922 2.322 -0.0086 0
M  V30 37 H -0.3334 2.3605 -1.7315 0
M  V30 38 H 2.1584 2.1366 -1.4205 0
M  V30 39 H 1.4233 0.8317 -2.412 0
M  V30 40 H 1.3549 -1.7821 2.1443 0
M  V30 41 H 2.0326 -2.5754 0.6765 0
M  V30 42 H 3.7582 -0.8671 -1.2733 0
M  V30 43 H 4.0786 0.8588 -0.8954 0
M  V30 44 H 3.7332 -1.517 2.5907 0
M  V30 45 H 7.3492 0.5257 0.9216 0
M  V30 46 H 6.4953 -0.0026 -0.577 0
M  V30 47 H 6.0349 1.5556 0.2462 0
M  V30 END ATOM
M  V30 BEGIN BOND
M  V30 1 2 1 2
M  V30 2 1 2 3
M  V30 3 1 2 4
M  V30 4 1 3 5
M  V30 5 1 3 6
M  V30 6 1 3 7
M  V30 7 1 4 8
M  V30 8 1 5 9
M  V30 9 1 6 10
M  V30 10 1 9 11
M  V30 11 1 9 12
M  V30 12 1 11 13
M  V30 13 1 12 14
M  V30 14 2 13 15
M  V30 15 1 13 16
M  V30 16 1 15 17
M  V30 17 1 16 18
M  V30 18 1 17 19
M  V30 19 1 19 20
M  V30 20 1 20 21
M  V30 21 1 5 8
M  V30 22 1 10 11
M  V30 23 1 14 15
M  V30 24 2 18 19
M  V30 25 1 4 22
M  V30 26 1 4 23
M  V30 27 1 5 24
M  V30 28 1 6 25
M  V30 29 1 6 26
M  V30 30 1 7 27
M  V30 31 1 7 28
M  V30 32 1 7 29
M  V30 33 1 8 30
M  V30 34 1 8 31
M  V30 35 1 9 32
M  V30 36 1 10 33
M  V30 37 1 10 34
M  V30 38 1 11 35
M  V30 39 1 12 36
M  V30 40 1 12 37
M  V30 41 1 14 38
M  V30 42 1 14 39
M  V30 43 1 16 40
M  V30 44 1 16 41
M  V30 45 1 17 42
M  V30 46 1 17 43
M  V30 47 1 18 44
M  V30 48 1 21 45
M  V30 49 1 21 46
M  V30 50 1 21 47
M  V30 END BOND
M  V30 BEGIN COLLECTION
M  V30 MDLV30/STEABS ATOMS=(4 3 5 9 11)
M  V30 END COLLECTION
M  V30 END CTAB
M  END
>  <Structure No>
2659

>  <LogS>
-4.979874504

>  <MMFF94 Energy>
54.949

$$$$
Compound 2660
Actelion Java MolfileCreator 2.0

  0  0  0  0  0  0              0 V3000
M  V30 BEGIN CTAB
M  V30 COUNTS 30 32 0 0 0
M  V30 BEGIN ATOM
M  V30 1 N 0.7165 -0.9554 0.398 0
M  V30 2 C -0.3973 -0.4927 -0.3861 0
M  V30 3 C 2.0473 -0.4192 0.2909 0
M  V30 4 C -1.6636 -0.2662 0.2056 0
M  V30 5 C -0.244 -0.3236 -1.7723 0
M  V30 6 C 2.2764 0.8852 -0.187 0
M  V30 7 C 3.1397 -1.1923 0.7155 0
M  V30 8 C -2.7542 0.1344 -0.6117 0
M  V30 9 C -1.8683 -0.4039 1.5937 0
M  V30 10 C -1.32 0.0753 -2.5652 0
M  V30 11 C 3.5781 1.39 -0.2632 0
M  V30 12 C 4.4398 -0.6837 0.6375 0
M  V30 13 C -2.57 0.3023 -1.9911 0
M  V30 14 C -4.0135 0.3657 -0.0361 0
M  V30 15 C -3.1281 -0.1689 2.1507 0
M  V30 16 C 4.6591 0.6054 0.1456 0
M  V30 17 C -4.1972 0.2114 1.3389 0
M  V30 18 H 0.5598 -1.7664 1.0382 0
M  V30 19 H 0.7118 -0.5174 -2.2424 0
M  V30 20 H 1.4516 1.5182 -0.4871 0
M  V30 21 H 2.9832 -2.1923 1.1001 0
M  V30 22 H -1.061 -0.6805 2.2583 0
M  V30 23 H -1.1858 0.2012 -3.6317 0
M  V30 24 H 3.7482 2.3926 -0.6339 0
M  V30 25 H 5.2772 -1.2887 0.96 0
M  V30 26 H -3.3933 0.6085 -2.6256 0
M  V30 27 H -4.8544 0.6684 -0.649 0
M  V30 28 H -3.2749 -0.2784 3.2175 0
M  V30 29 H 5.6659 0.9982 0.0871 0
M  V30 30 H -5.1701 0.3925 1.7774 0
M  V30 END ATOM
M  V30 BEGIN BOND
M  V30 1 1 1 2
M  V30 2 1 1 3
M  V30 3 1 2 4
M  V30 4 2 2 5
M  V30 5 2 3 6
M  V30 6 1 3 7
M  V30 7 1 4 8
M  V30 8 2 4 9
M  V30 9 1 5 10
M  V30 10 1 6 11
M  V30 11 2 7 12
M  V30 12 1 8 13
M  V30 13 2 8 14
M  V30 14 1 9 15
M  V30 15 2 11 16
M  V30 16 1 14 17
M  V30 17 2 10 13
M  V30 18 1 12 16
M  V30 19 2 15 17
M  V30 20 1 1 18
M  V30 21 1 5 19
M  V30 22 1 6 20
M  V30 23 1 7 21
M  V30 24 1 9 22
M  V30 25 1 10 23
M  V30 26 1 11 24
M  V30 27 1 12 25
M  V30 28 1 13 26
M  V30 29 1 14 27
M  V30 30 1 15 28
M  V30 31 1 16 29
M  V30 32 1 17 30
M  V30 END BOND
M  V30 END CTAB
M  END
>  <Structure No>
2660

>  <LogS>
-4.863891631

>  <MMFF94 Energy>
54.391

$$$$
Compound 2661
Actelion Java MolfileCreator 2.0

  0  0  0  0  0  0              0 V3000
M  V30 BEGIN CTAB
M  V30 COUNTS 34 35 0 0 0
M  V30 BEGIN ATOM
M  V30 1 O -2.0791 -1.1191 1.0391 0
M  V30 2 C -2.5586 -0.0915 0.4848 0
M  V30 3 O -1.7176 0.9684 0.1221 0
M  V30 4 C -4.0119 0.0 0.2226 0
M  V30 5 C -0.3016 0.9407 0.2891 0
M  V30 6 C -4.5513 1.1425 -0.396 0
M  V30 7 C -4.8755 -1.0512 0.5852 0
M  V30 8 C 0.3478 0.062 -0.781 0
M  V30 9 C -5.9246 1.2304 -0.6454 0
M  V30 10 C -6.248 -0.9578 0.3333 0
M  V30 11 O 1.7689 0.1111 -0.674 0
M  V30 12 C -6.7721 0.1816 -0.2812 0
M  V30 13 C 2.4924 -0.5647 0.317 0
M  V30 14 O 1.8927 -1.3072 1.1431 0
M  V30 15 C 3.962 -0.4113 0.3884 0
M  V30 16 C 4.7086 -1.0867 1.3724 0
M  V30 17 C 4.6349 0.4161 -0.5292 0
M  V30 18 C 6.0975 -0.936 1.4341 0
M  V30 19 C 6.024 0.563 -0.4626 0
M  V30 20 C 6.7545 -0.1121 0.5176 0
M  V30 21 H -0.0438 0.58 1.3082 0
M  V30 22 H 0.0847 1.9765 0.1846 0
M  V30 23 H -3.9145 1.9682 -0.6877 0
M  V30 24 H -4.492 -1.9443 1.0625 0
M  V30 25 H -0.0058 -0.9883 -0.6996 0
M  V30 26 H 0.0573 0.4443 -1.7823 0
M  V30 27 H -6.3321 2.1129 -1.1218 0
M  V30 28 H -6.9057 -1.7699 0.6151 0
M  V30 29 H -7.8346 0.2519 -0.4751 0
M  V30 30 H 4.2207 -1.7306 2.0938 0
M  V30 31 H 4.0901 0.95 -1.2976 0
M  V30 32 H 6.6646 -1.4587 2.1935 0
M  V30 33 H 6.5344 1.2015 -1.1722 0
M  V30 34 H 7.8296 0.0032 0.5672 0
M  V30 END ATOM
M  V30 BEGIN BOND
M  V30 1 2 1 2
M  V30 2 1 2 3
M  V30 3 1 2 4
M  V30 4 1 3 5
M  V30 5 2 4 6
M  V30 6 1 4 7
M  V30 7 1 5 8
M  V30 8 1 6 9
M  V30 9 2 7 10
M  V30 10 1 8 11
M  V30 11 2 9 12
M  V30 12 1 11 13
M  V30 13 2 13 14
M  V30 14 1 13 15
M  V30 15 2 15 16
M  V30 16 1 15 17
M  V30 17 1 16 18
M  V30 18 2 17 19
M  V30 19 2 18 20
M  V30 20 1 10 12
M  V30 21 1 19 20
M  V30 22 1 5 21
M  V30 23 1 5 22
M  V30 24 1 6 23
M  V30 25 1 7 24
M  V30 26 1 8 25
M  V30 27 1 8 26
M  V30 28 1 9 27
M  V30 29 1 10 28
M  V30 30 1 12 29
M  V30 31 1 16 30
M  V30 32 1 17 31
M  V30 33 1 18 32
M  V30 34 1 19 33
M  V30 35 1 20 34
M  V30 END BOND
M  V30 END CTAB
M  END
>  <Structure No>
2661

>  <LogS>
-5.070092502

>  <MMFF94 Energy>
65.24

$$$$
Compound 2662
Actelion Java MolfileCreator 2.0

  0  0  0  0  0  0              0 V3000
M  V30 BEGIN CTAB
M  V30 COUNTS 41 42 0 0 0
M  V30 BEGIN ATOM
M  V30 1 O 3.0395 -0.3196 -2.7192 0
M  V30 2 C 2.8607 0.8883 -2.4087 0
M  V30 3 O 2.1438 1.2483 -1.2617 0
M  V30 4 C 1.5238 0.3137 -0.3681 0 CFG=2
M  V30 5 C -0.0164 0.1887 -0.6816 0 CFG=1
M  V30 6 C 1.8162 0.7581 1.0846 0 CFG=1
M  V30 7 C -0.7739 -0.6808 0.4205 0 CFG=2
M  V30 8 C -0.6498 1.6114 -0.7381 0
M  V30 9 C -0.1607 -0.4624 -2.0905 0
M  V30 10 C 1.1233 -0.1712 2.0879 0
M  V30 11 C 3.3283 0.7778 1.3577 0
M  V30 12 C -2.3092 -0.5244 0.309 0
M  V30 13 C -0.3867 -0.2084 1.8529 0
M  V30 14 C -0.4114 -2.1915 0.271 0
M  V30 15 C -2.1362 1.5715 -1.0885 0
M  V30 16 C -2.8871 0.5233 -0.3203 0
M  V30 17 C -3.2442 -1.4554 1.0541 0
M  V30 18 H 3.2735 1.6643 -3.0379 0
M  V30 19 H 2.0047 -0.6807 -0.4937 0
M  V30 20 H 1.4453 1.7941 1.2408 0
M  V30 21 H -0.1376 2.2423 -1.4969 0
M  V30 22 H -0.5409 2.137 0.2314 0
M  V30 23 H 0.4729 -1.3691 -2.1863 0
M  V30 24 H -1.208 -0.7688 -2.2933 0
M  V30 25 H 0.1457 0.2443 -2.8908 0
M  V30 26 H 1.3077 0.1978 3.1208 0
M  V30 27 H 1.5446 -1.1979 2.0224 0
M  V30 28 H 3.836 1.4992 0.6833 0
M  V30 29 H 3.5251 1.0964 2.4038 0
M  V30 30 H 3.7701 -0.23 1.2026 0
M  V30 31 H -0.8039 0.8018 2.0561 0
M  V30 32 H -0.8367 -0.8806 2.6158 0
M  V30 33 H -0.6652 -2.7744 1.1798 0
M  V30 34 H 0.6714 -2.3477 0.1048 0
M  V30 35 H -0.9557 -2.6465 -0.584 0
M  V30 36 H -2.5849 2.5647 -0.8716 0
M  V30 37 H -2.2676 1.3824 -2.175 0
M  V30 38 H -3.9717 0.597 -0.3424 0
M  V30 39 H -2.7112 -2.153 1.7264 0
M  V30 40 H -3.9406 -0.867 1.6896 0
M  V30 41 H -3.8357 -2.0479 0.3248 0
M  V30 END ATOM
M  V30 BEGIN BOND
M  V30 1 2 1 2
M  V30 2 1 2 3
M  V30 3 1 3 4
M  V30 4 1 4 5
M  V30 5 1 4 6
M  V30 6 1 5 7
M  V30 7 1 5 8
M  V30 8 1 5 9
M  V30 9 1 6 10
M  V30 10 1 6 11
M  V30 11 1 7 12
M  V30 12 1 7 13
M  V30 13 1 7 14
M  V30 14 1 8 15
M  V30 15 2 12 16
M  V30 16 1 12 17
M  V30 17 1 10 13
M  V30 18 1 15 16
M  V30 19 1 2 18
M  V30 20 1 4 19
M  V30 21 1 6 20
M  V30 22 1 8 21
M  V30 23 1 8 22
M  V30 24 1 9 23
M  V30 25 1 9 24
M  V30 26 1 9 25
M  V30 27 1 10 26
M  V30 28 1 10 27
M  V30 29 1 11 28
M  V30 30 1 11 29
M  V30 31 1 11 30
M  V30 32 1 13 31
M  V30 33 1 13 32
M  V30 34 1 14 33
M  V30 35 1 14 34
M  V30 36 1 14 35
M  V30 37 1 15 36
M  V30 38 1 15 37
M  V30 39 1 16 38
M  V30 40 1 17 39
M  V30 41 1 17 40
M  V30 42 1 17 41
M  V30 END BOND
M  V30 BEGIN COLLECTION
M  V30 MDLV30/STEABS ATOMS=(4 4 5 6 7)
M  V30 END COLLECTION
M  V30 END CTAB
M  END
>  <Structure No>
2662

>  <LogS>
-5.031142113

>  <MMFF94 Energy>
39.397

$$$$
Compound 2663
Actelion Java MolfileCreator 2.0

  0  0  0  0  0  0              0 V3000
M  V30 BEGIN CTAB
M  V30 COUNTS 49 49 0 0 0
M  V30 BEGIN ATOM
M  V30 1 O 5.0595 -1.6579 -1.4209 0
M  V30 2 C 4.6624 -0.7079 -0.6919 0
M  V30 3 O 5.5127 0.3571 -0.3815 0
M  V30 4 C 3.2538 -0.6953 -0.1902 0
M  V30 5 C 6.8572 0.4226 -0.8409 0
M  V30 6 C 2.3423 0.0439 -1.1722 0
M  V30 7 C 0.92 0.052 -0.6691 0
M  V30 8 C 0.4797 1.0776 0.1633 0
M  V30 9 C 0.0653 -0.9992 -0.9843 0
M  V30 10 C -0.8314 1.1026 0.6927 0
M  V30 11 C -1.2628 -1.042 -0.5102 0
M  V30 12 C -1.712 0.0266 0.3257 0
M  V30 13 C -1.2778 2.2883 1.6048 0
M  V30 14 C -2.2052 -2.2233 -0.8955 0
M  V30 15 O -3.0361 -0.0233 0.769 0
M  V30 16 C -0.1084 3.2397 1.9892 0
M  V30 17 C -1.8816 1.7653 2.9459 0
M  V30 18 C -2.2979 3.163 0.8354 0
M  V30 19 C -3.4279 -1.6966 -1.6842 0
M  V30 20 C -1.5193 -3.2823 -1.7999 0
M  V30 21 C -2.6758 -2.9699 0.3756 0
M  V30 22 H 3.2265 -0.1909 0.8005 0
M  V30 23 H 2.899 -1.7411 -0.057 0
M  V30 24 H 7.4255 -0.4604 -0.4796 0
M  V30 25 H 6.8779 0.4533 -1.9505 0
M  V30 26 H 7.3345 1.3428 -0.4449 0
M  V30 27 H 2.3882 -0.4471 -2.1695 0
M  V30 28 H 2.7038 1.0874 -1.3066 0
M  V30 29 H 1.1981 1.8494 0.3855 0
M  V30 30 H 0.4709 -1.779 -1.6099 0
M  V30 31 H -3.5015 0.6514 1.3492 0
M  V30 32 H 0.6969 2.6829 2.5165 0
M  V30 33 H 0.3142 3.7515 1.0975 0
M  V30 34 H -0.4631 4.0446 2.6706 0
M  V30 35 H -2.9707 1.9689 3.0207 0
M  V30 36 H -1.4327 2.2496 3.8405 0
M  V30 37 H -1.7122 0.6748 3.0745 0
M  V30 38 H -2.6573 3.9986 1.4754 0
M  V30 39 H -3.1844 2.5989 0.4927 0
M  V30 40 H -1.8243 3.5995 -0.0707 0
M  V30 41 H -3.0926 -1.0832 -2.5486 0
M  V30 42 H -4.1058 -1.081 -1.0629 0
M  V30 43 H -4.0402 -2.5397 -2.0731 0
M  V30 44 H -0.6481 -3.7422 -1.2847 0
M  V30 45 H -1.1903 -2.8323 -2.7615 0
M  V30 46 H -2.2215 -4.1072 -2.051 0
M  V30 47 H -1.8005 -3.2704 0.9911 0
M  V30 48 H -3.3517 -2.3606 1.0054 0
M  V30 49 H -3.2431 -3.8881 0.1077 0
M  V30 END ATOM
M  V30 BEGIN BOND
M  V30 1 2 1 2
M  V30 2 1 2 3
M  V30 3 1 2 4
M  V30 4 1 3 5
M  V30 5 1 4 6
M  V30 6 1 6 7
M  V30 7 2 7 8
M  V30 8 1 7 9
M  V30 9 1 8 10
M  V30 10 2 9 11
M  V30 11 2 10 12
M  V30 12 1 10 13
M  V30 13 1 11 14
M  V30 14 1 12 15
M  V30 15 1 13 16
M  V30 16 1 13 17
M  V30 17 1 13 18
M  V30 18 1 14 19
M  V30 19 1 14 20
M  V30 20 1 14 21
M  V30 21 1 11 12
M  V30 22 1 4 22
M  V30 23 1 4 23
M  V30 24 1 5 24
M  V30 25 1 5 25
M  V30 26 1 5 26
M  V30 27 1 6 27
M  V30 28 1 6 28
M  V30 29 1 8 29
M  V30 30 1 9 30
M  V30 31 1 15 31
M  V30 32 1 16 32
M  V30 33 1 16 33
M  V30 34 1 16 34
M  V30 35 1 17 35
M  V30 36 1 17 36
M  V30 37 1 17 37
M  V30 38 1 18 38
M  V30 39 1 18 39
M  V30 40 1 18 40
M  V30 41 1 19 41
M  V30 42 1 19 42
M  V30 43 1 19 43
M  V30 44 1 20 44
M  V30 45 1 20 45
M  V30 46 1 20 46
M  V30 47 1 21 47
M  V30 48 1 21 48
M  V30 49 1 21 49
M  V30 END BOND
M  V30 END CTAB
M  END
>  <Structure No>
2663

>  <LogS>
-5.123582907

>  <MMFF94 Energy>
43.411

$$$$
Compound 2664
Actelion Java MolfileCreator 2.0

  0  0  0  0  0  0              0 V3000
M  V30 BEGIN CTAB
M  V30 COUNTS 51 54 0 0 0
M  V30 BEGIN ATOM
M  V30 1 O -1.7744 -0.4837 -0.6449 0
M  V30 2 C -2.3648 -0.3883 0.6473 0 CFG=1
M  V30 3 C -0.369 -0.4782 -0.5152 0
M  V30 4 O -1.9274 0.7413 1.4049 0
M  V30 5 C -3.9047 -0.3732 0.5305 0 CFG=2
M  V30 6 C 0.1186 0.8702 0.0862 0
M  V30 7 C -1.1105 1.6146 0.6505 0
M  V30 8 C -4.4252 -1.6925 -0.0773 0
M  V30 9 C -4.4162 0.8182 -0.3001 0
M  V30 10 C 0.8123 1.7374 -0.9854 0
M  V30 11 C 1.16 0.6248 1.1984 0
M  V30 12 C -5.9018 -1.6465 -0.3801 0
M  V30 13 C -5.9498 0.854 -0.2998 0
M  V30 14 O 2.0266 1.1461 -1.4018 0
M  V30 15 O 2.3458 0.0844 0.6549 0
M  V30 16 C -6.5652 -0.4949 -0.5736 0
M  V30 17 C 2.8947 0.9913 -0.2896 0 CFG=1
M  V30 18 C 4.2505 0.4454 -0.7859 0 CFG=2
M  V30 19 C 4.1043 -0.9702 -1.4226 0
M  V30 20 C 5.327 0.5143 0.3466 0
M  V30 21 C 4.3818 -2.0694 -0.4321 0
M  V30 22 C 6.2552 -0.7086 0.3703 0
M  V30 23 C 5.4248 -1.9601 0.3982 0
M  V30 24 H -2.1004 -1.2987 1.2336 0
M  V30 25 H 0.0693 -0.647 -1.5219 0
M  V30 26 H -0.0406 -1.3532 0.0924 0
M  V30 27 H -4.3191 -0.283 1.5609 0
M  V30 28 H -1.7055 2.067 -0.1745 0
M  V30 29 H -0.7901 2.4558 1.3018 0
M  V30 30 H -4.2315 -2.5276 0.6295 0
M  V30 31 H -3.8923 -1.9161 -1.0264 0
M  V30 32 H -4.0486 0.7405 -1.3472 0
M  V30 33 H -4.0475 1.7737 0.1292 0
M  V30 34 H 0.1487 1.8404 -1.871 0
M  V30 35 H 0.9978 2.7686 -0.6046 0
M  V30 36 H 1.387 1.5651 1.7526 0
M  V30 37 H 0.7548 -0.0886 1.9479 0
M  V30 38 H -6.4193 -2.5843 -0.558 0
M  V30 39 H -6.2991 1.5769 -1.0675 0
M  V30 40 H -6.3087 1.207 0.691 0
M  V30 41 H -7.6197 -0.5356 -0.8291 0
M  V30 42 H 3.0977 1.9853 0.1817 0
M  V30 43 H 4.5899 1.1264 -1.5992 0
M  V30 44 H 3.1002 -1.1197 -1.8741 0
M  V30 45 H 4.8449 -1.0663 -2.2464 0
M  V30 46 H 5.9403 1.4333 0.2227 0
M  V30 47 H 4.8413 0.5862 1.3454 0
M  V30 48 H 3.7264 -2.933 -0.3757 0
M  V30 49 H 6.913 -0.6712 1.2648 0
M  V30 50 H 6.895 -0.7098 -0.5386 0
M  V30 51 H 5.6179 -2.7306 1.1382 0
M  V30 END ATOM
M  V30 BEGIN BOND
M  V30 1 1 1 2
M  V30 2 1 1 3
M  V30 3 1 2 4
M  V30 4 1 2 5
M  V30 5 1 3 6
M  V30 6 1 4 7
M  V30 7 1 5 8
M  V30 8 1 5 9
M  V30 9 1 6 10
M  V30 10 1 6 11
M  V30 11 1 8 12
M  V30 12 1 9 13
M  V30 13 1 10 14
M  V30 14 1 11 15
M  V30 15 2 12 16
M  V30 16 1 14 17
M  V30 17 1 17 18
M  V30 18 1 18 19
M  V30 19 1 18 20
M  V30 20 1 19 21
M  V30 21 1 20 22
M  V30 22 2 21 23
M  V30 23 1 6 7
M  V30 24 1 13 16
M  V30 25 1 15 17
M  V30 26 1 22 23
M  V30 27 1 2 24
M  V30 28 1 3 25
M  V30 29 1 3 26
M  V30 30 1 5 27
M  V30 31 1 7 28
M  V30 32 1 7 29
M  V30 33 1 8 30
M  V30 34 1 8 31
M  V30 35 1 9 32
M  V30 36 1 9 33
M  V30 37 1 10 34
M  V30 38 1 10 35
M  V30 39 1 11 36
M  V30 40 1 11 37
M  V30 41 1 12 38
M  V30 42 1 13 39
M  V30 43 1 13 40
M  V30 44 1 16 41
M  V30 45 1 17 42
M  V30 46 1 18 43
M  V30 47 1 19 44
M  V30 48 1 19 45
M  V30 49 1 20 46
M  V30 50 1 20 47
M  V30 51 1 21 48
M  V30 52 1 22 49
M  V30 53 1 22 50
M  V30 54 1 23 51
M  V30 END BOND
M  V30 BEGIN COLLECTION
M  V30 MDLV30/STEABS ATOMS=(4 2 5 17 18)
M  V30 END COLLECTION
M  V30 END CTAB
M  END
>  <Structure No>
2664

>  <LogS>
-5.239735444

>  <MMFF94 Energy>
-7.4653

$$$$
Compound 2665
Actelion Java MolfileCreator 2.0

  0  0  0  0  0  0              0 V3000
M  V30 BEGIN CTAB
M  V30 COUNTS 43 43 0 0 0
M  V30 BEGIN ATOM
M  V30 1 O 7.1516 -0.2351 -0.1567 0
M  V30 2 C 5.7649 -0.3426 -0.0809 0
M  V30 3 C 5.1484 -0.4616 1.1689 0
M  V30 4 C 4.9825 -0.3296 -1.2436 0
M  V30 5 C 3.7574 -0.5705 1.26 0
M  V30 6 C 3.5913 -0.4385 -1.1552 0
M  V30 7 C 2.9699 -0.572 0.0972 0
M  V30 8 C 1.47 -0.6522 0.195 0
M  V30 9 C 0.8634 0.759 0.2849 0
M  V30 10 C -0.6837 0.7821 0.4476 0 CFG=1
M  V30 11 C -1.4614 0.1133 -0.7483 0 CFG=1
M  V30 12 C -1.0662 0.1913 1.8188 0
M  V30 13 C -3.0316 0.2155 -0.6811 0 CFG=1
M  V30 14 C -0.9722 0.669 -2.1066 0
M  V30 15 C -3.6768 -0.844 0.2536 0
M  V30 16 C -3.5362 1.635 -0.361 0
M  V30 17 C -5.1082 -1.1961 -0.1579 0
M  V30 18 H 7.6278 -0.1464 -1.0467 0
M  V30 19 H 5.7476 -0.466 2.0705 0
M  V30 20 H 5.4504 -0.2315 -2.2147 0
M  V30 21 H 3.2942 -0.6518 2.2356 0
M  V30 22 H 2.9983 -0.4166 -2.0612 0
M  V30 23 H 1.0784 -1.1886 -0.6939 0
M  V30 24 H 1.1891 -1.2482 1.0894 0
M  V30 25 H 1.1615 1.3524 -0.605 0
M  V30 26 H 1.3203 1.2883 1.1509 0
M  V30 27 H -0.9568 1.8595 0.4734 0
M  V30 28 H -1.2068 -0.9679 -0.7602 0
M  V30 29 H -0.3115 0.4484 2.5923 0
M  V30 30 H -2.0201 0.6236 2.1767 0
M  V30 31 H -1.1483 -0.9147 1.7685 0
M  V30 32 H -3.4104 -0.019 -1.701 0
M  V30 33 H -1.015 1.7783 -2.1201 0
M  V30 34 H 0.0676 0.3466 -2.3174 0
M  V30 35 H -1.5837 0.2783 -2.9471 0
M  V30 36 H -3.0864 -1.7849 0.2333 0
M  V30 37 H -3.7094 -0.4888 1.3019 0
M  V30 38 H -3.3493 1.9022 0.6987 0
M  V30 39 H -3.0408 2.3834 -1.0129 0
M  V30 40 H -4.628 1.7066 -0.5463 0
M  V30 41 H -5.1281 -1.5972 -1.1935 0
M  V30 42 H -5.5087 -1.9741 0.5256 0
M  V30 43 H -5.7673 -0.3058 -0.0945 0
M  V30 END ATOM
M  V30 BEGIN BOND
M  V30 1 1 1 2
M  V30 2 2 2 3
M  V30 3 1 2 4
M  V30 4 1 3 5
M  V30 5 2 4 6
M  V30 6 2 5 7
M  V30 7 1 7 8
M  V30 8 1 8 9
M  V30 9 1 9 10
M  V30 10 1 10 11
M  V30 11 1 10 12
M  V30 12 1 11 13
M  V30 13 1 11 14
M  V30 14 1 13 15
M  V30 15 1 13 16
M  V30 16 1 15 17
M  V30 17 1 6 7
M  V30 18 1 1 18
M  V30 19 1 3 19
M  V30 20 1 4 20
M  V30 21 1 5 21
M  V30 22 1 6 22
M  V30 23 1 8 23
M  V30 24 1 8 24
M  V30 25 1 9 25
M  V30 26 1 9 26
M  V30 27 1 10 27
M  V30 28 1 11 28
M  V30 29 1 12 29
M  V30 30 1 12 30
M  V30 31 1 12 31
M  V30 32 1 13 32
M  V30 33 1 14 33
M  V30 34 1 14 34
M  V30 35 1 14 35
M  V30 36 1 15 36
M  V30 37 1 15 37
M  V30 38 1 16 38
M  V30 39 1 16 39
M  V30 40 1 16 40
M  V30 41 1 17 41
M  V30 42 1 17 42
M  V30 43 1 17 43
M  V30 END BOND
M  V30 BEGIN COLLECTION
M  V30 MDLV30/STEABS ATOMS=(3 10 11 13)
M  V30 END COLLECTION
M  V30 END CTAB
M  END
>  <Structure No>
2665

>  <LogS>
-5.182405388

>  <MMFF94 Energy>
28.741

$$$$
Compound 2666
Actelion Java MolfileCreator 2.0

  0  0  0  0  0  0              0 V3000
M  V30 BEGIN CTAB
M  V30 COUNTS 50 53 0 0 0
M  V30 BEGIN ATOM
M  V30 1 O -3.0707 -1.5344 -1.7769 0
M  V30 2 C -2.9627 -0.4158 -1.2976 0
M  V30 3 C -2.7493 -0.1454 0.1618 0 CFG=2
M  V30 4 C -3.0668 0.8265 -2.1152 0
M  V30 5 C -2.1123 1.2802 0.1037 0 CFG=2
M  V30 6 C -1.8835 -1.2121 0.8971 0
M  V30 7 C -4.1458 -0.0609 0.8674 0
M  V30 8 C -2.8014 1.9515 -1.1076 0
M  V30 9 C -0.5403 1.333 0.0055 0 CFG=1
M  V30 10 C -0.3838 -1.1043 0.6664 0
M  V30 11 C -4.9292 -1.3789 0.9031 0
M  V30 12 C 0.1086 0.318 0.967 0 CFG=1
M  V30 13 C 0.0734 1.1713 -1.4106 0
M  V30 14 C 1.6247 0.3516 0.9072 0
M  V30 15 C 1.5928 1.3746 -1.3852 0
M  V30 16 C 2.2919 0.7138 -0.2179 0
M  V30 17 C 2.4077 -0.0943 2.1261 0
M  V30 18 C 3.8085 0.6664 -0.2406 0
M  V30 19 C 3.6728 -0.8033 1.7351 0
M  V30 20 C 4.3518 -0.4406 0.6423 0
M  V30 21 O 5.5725 -1.0762 0.3761 0
M  V30 22 C 6.4188 -0.7502 -0.7203 0
M  V30 23 H -4.0818 0.9181 -2.5575 0
M  V30 24 H -2.3062 0.82 -2.923 0
M  V30 25 H -2.3867 1.8424 1.0256 0
M  V30 26 H -2.2068 -2.235 0.6065 0
M  V30 27 H -2.0502 -1.125 1.9944 0
M  V30 28 H -4.0098 0.2863 1.9153 0
M  V30 29 H -4.793 0.6909 0.3679 0
M  V30 30 H -2.225 2.7937 -1.5413 0
M  V30 31 H -3.7724 2.3853 -0.784 0
M  V30 32 H -0.2466 2.35 0.354 0
M  V30 33 H -0.1337 -1.4257 -0.3645 0
M  V30 34 H 0.1182 -1.8242 1.3491 0
M  V30 35 H -5.1012 -1.7673 -0.1212 0
M  V30 36 H -4.3997 -2.1429 1.5083 0
M  V30 37 H -5.9196 -1.2022 1.3734 0
M  V30 38 H -0.1959 0.5873 2.0042 0
M  V30 39 H -0.3219 1.9307 -2.1119 0
M  V30 40 H -0.1625 0.1801 -1.8457 0
M  V30 41 H 2.0168 0.9915 -2.3382 0
M  V30 42 H 1.808 2.4644 -1.3365 0
M  V30 43 H 2.6785 0.806 2.7173 0
M  V30 44 H 1.7966 -0.7587 2.773 0
M  V30 45 H 4.1443 0.5179 -1.2868 0
M  V30 46 H 4.2067 1.6397 0.1168 0
M  V30 47 H 4.0609 -1.5834 2.3786 0
M  V30 48 H 6.6781 0.3295 -0.6967 0
M  V30 49 H 7.3534 -1.3426 -0.6448 0
M  V30 50 H 5.9174 -1.0031 -1.6778 0
M  V30 END ATOM
M  V30 BEGIN BOND
M  V30 1 2 1 2
M  V30 2 1 2 3
M  V30 3 1 2 4
M  V30 4 1 3 5
M  V30 5 1 3 6
M  V30 6 1 3 7
M  V30 7 1 4 8
M  V30 8 1 5 9
M  V30 9 1 6 10
M  V30 10 1 7 11
M  V30 11 1 9 12
M  V30 12 1 9 13
M  V30 13 1 12 14
M  V30 14 1 13 15
M  V30 15 2 14 16
M  V30 16 1 14 17
M  V30 17 1 16 18
M  V30 18 1 17 19
M  V30 19 1 18 20
M  V30 20 1 20 21
M  V30 21 1 21 22
M  V30 22 1 5 8
M  V30 23 1 10 12
M  V30 24 1 15 16
M  V30 25 2 19 20
M  V30 26 1 4 23
M  V30 27 1 4 24
M  V30 28 1 5 25
M  V30 29 1 6 26
M  V30 30 1 6 27
M  V30 31 1 7 28
M  V30 32 1 7 29
M  V30 33 1 8 30
M  V30 34 1 8 31
M  V30 35 1 9 32
M  V30 36 1 10 33
M  V30 37 1 10 34
M  V30 38 1 11 35
M  V30 39 1 11 36
M  V30 40 1 11 37
M  V30 41 1 12 38
M  V30 42 1 13 39
M  V30 43 1 13 40
M  V30 44 1 15 41
M  V30 45 1 15 42
M  V30 46 1 17 43
M  V30 47 1 17 44
M  V30 48 1 18 45
M  V30 49 1 18 46
M  V30 50 1 19 47
M  V30 51 1 22 48
M  V30 52 1 22 49
M  V30 53 1 22 50
M  V30 END BOND
M  V30 BEGIN COLLECTION
M  V30 MDLV30/STEABS ATOMS=(4 3 5 9 12)
M  V30 END COLLECTION
M  V30 END CTAB
M  END
>  <Structure No>
2666

>  <LogS>
-5.363817292

>  <MMFF94 Energy>
60.287

$$$$
Compound 2667
Actelion Java MolfileCreator 2.0

  0  0  0  0  0  0              0 V3000
M  V30 BEGIN CTAB
M  V30 COUNTS 45 45 0 0 0
M  V30 BEGIN ATOM
M  V30 1 O 0 0 0 0
M  V30 2 C 0 0 0 0
M  V30 3 O 0 0 0 0
M  V30 4 C 0 0 0 0
M  V30 5 C 0 0 0 0
M  V30 6 C 0 0 0 0
M  V30 7 C 0 0 0 0
M  V30 8 C 0 0 0 0
M  V30 9 C 0 0 0 0
M  V30 10 C 0 0 0 0
M  V30 11 C 0 0 0 0
M  V30 12 C 0 0 0 0
M  V30 13 O 0 0 0 0
M  V30 14 O 0 0 0 0
M  V30 15 C 0 0 0 0
M  V30 16 C 0 0 0 0
M  V30 17 C 0 0 0 0
M  V30 18 C 0 0 0 0
M  V30 19 O 0 0 0 0
M  V30 20 O 0 0 0 0
M  V30 21 C 0 0 0 0
M  V30 22 C 0 0 0 0
M  V30 23 C 0 0 0 0
M  V30 24 C 0 0 0 0
M  V30 25 C 0 0 0 0
M  V30 26 C 0 0 0 0
M  V30 27 C 0 0 0 0
M  V30 28 C 0 0 0 0
M  V30 29 C 0 0 0 0
M  V30 30 C 0 0 0 0
M  V30 31 C 0 0 0 0
M  V30 32 C 0 0 0 0
M  V30 33 C 0 0 0 0
M  V30 34 C 0 0 0 0
M  V30 35 C 0 0 0 0
M  V30 36 C 0 0 0 0
M  V30 37 C 0 0 0 0
M  V30 38 C 0 0 0 0
M  V30 39 C 0 0 0 0
M  V30 40 C 0 0 0 0
M  V30 41 C 0 0 0 0
M  V30 42 C 0 0 0 0
M  V30 43 C 0 0 0 0
M  V30 44 C 0 0 0 0
M  V30 45 C 0 0 0 0
M  V30 END ATOM
M  V30 BEGIN BOND
M  V30 1 2 1 2
M  V30 2 1 2 3
M  V30 3 1 2 4
M  V30 4 1 3 5
M  V30 5 2 4 6
M  V30 6 1 4 7
M  V30 7 1 5 8
M  V30 8 1 6 9
M  V30 9 1 6 10
M  V30 10 2 7 11
M  V30 11 1 8 12
M  V30 12 2 9 13
M  V30 13 1 9 14
M  V30 14 2 10 15
M  V30 15 1 11 16
M  V30 16 1 12 17
M  V30 17 1 14 18
M  V30 18 2 16 19
M  V30 19 1 16 20
M  V30 20 1 17 21
M  V30 21 1 18 22
M  V30 22 1 20 23
M  V30 23 1 21 24
M  V30 24 1 22 25
M  V30 25 1 23 26
M  V30 26 1 24 27
M  V30 27 1 25 28
M  V30 28 1 26 29
M  V30 29 1 27 30
M  V30 30 1 28 31
M  V30 31 1 29 32
M  V30 32 1 30 33
M  V30 33 1 30 34
M  V30 34 1 31 35
M  V30 35 1 32 36
M  V30 36 1 35 37
M  V30 37 1 36 38
M  V30 38 1 37 39
M  V30 39 1 38 40
M  V30 40 1 39 41
M  V30 41 1 39 42
M  V30 42 1 40 43
M  V30 43 1 43 44
M  V30 44 1 43 45
M  V30 45 1 11 15
M  V30 END BOND
M  V30 END CTAB
M  END
>  <Structure No>
2667

>  <LogS>
-5.706573948

>  <MMFF94 Energy>
34.798

$$$$
Compound 2668
Actelion Java MolfileCreator 2.0

  0  0  0  0  0  0              0 V3000
M  V30 BEGIN CTAB
M  V30 COUNTS 55 54 0 0 0
M  V30 BEGIN ATOM
M  V30 1 O -7.1144 -0.3898 -2.0286 0
M  V30 2 C -7.0081 0.3039 -1.0286 0
M  V30 3 C -6.7759 -0.3473 0.3095 0
M  V30 4 C -7.083 1.7958 -1.1588 0
M  V30 5 C -5.3169 -0.2151 0.7692 0
M  V30 6 C -4.3595 -1.0688 -0.0826 0
M  V30 7 C -2.8688 -0.8548 0.2782 0 CFG=2
M  V30 8 C -1.9524 -1.6102 -0.7288 0
M  V30 9 C -2.5761 -1.3085 1.7209 0
M  V30 10 C -0.7586 -0.7713 -1.2208 0
M  V30 11 C 0.2673 -0.4782 -0.1115 0
M  V30 12 C 1.5997 0.0957 -0.6528 0 CFG=2
M  V30 13 C 2.6524 0.1181 0.483 0
M  V30 14 C 1.3969 1.5014 -1.2488 0
M  V30 15 C 4.0786 0.3984 -0.0205 0
M  V30 16 C 5.1071 0.2125 1.107 0
M  V30 17 C 6.5317 0.6487 0.6964 0
M  V30 18 C 7.4482 0.6756 1.9264 0
M  V30 19 C 7.128 -0.2746 -0.3768 0
M  V30 20 H -7.4371 0.1356 1.0611 0
M  V30 21 H -7.0608 -1.4218 0.2667 0
M  V30 22 H -8.0645 2.0826 -1.5914 0
M  V30 23 H -6.2703 2.1517 -1.8259 0
M  V30 24 H -6.9725 2.2867 -0.1691 0
M  V30 25 H -5.2691 -0.5525 1.826 0
M  V30 26 H -5.0076 0.8526 0.737 0
M  V30 27 H -4.6226 -2.1443 0.0265 0
M  V30 28 H -4.5022 -0.7908 -1.1495 0
M  V30 29 H -2.6637 0.2373 0.2134 0
M  V30 30 H -2.5292 -1.8964 -1.6357 0
M  V30 31 H -1.5863 -2.5683 -0.2974 0
M  V30 32 H -1.4876 -1.2987 1.9294 0
M  V30 33 H -3.0516 -0.6215 2.4502 0
M  V30 34 H -2.9535 -2.3392 1.8914 0
M  V30 35 H -0.2579 -1.3356 -2.037 0
M  V30 36 H -1.1429 0.1766 -1.6525 0
M  V30 37 H 0.4796 -1.4326 0.4185 0
M  V30 38 H -0.1681 0.233 0.6234 0
M  V30 39 H 1.9686 -0.579 -1.4571 0
M  V30 40 H 2.6589 -0.8739 0.9872 0
M  V30 41 H 2.3692 0.8788 1.2446 0
M  V30 42 H 2.3426 1.8908 -1.6757 0
M  V30 43 H 0.6685 1.476 -2.0842 0
M  V30 44 H 1.0321 2.2083 -0.4729 0
M  V30 45 H 4.1459 1.4414 -0.3949 0
M  V30 46 H 4.3092 -0.299 -0.8532 0
M  V30 47 H 5.1174 -0.8518 1.4305 0
M  V30 48 H 4.7826 0.8263 1.9769 0
M  V30 49 H 6.4897 1.682 0.2864 0
M  V30 50 H 8.4656 1.0184 1.6414 0
M  V30 51 H 7.0506 1.3807 2.6875 0
M  V30 52 H 7.5242 -0.3358 2.3802 0
M  V30 53 H 6.5594 -0.192 -1.3256 0
M  V30 54 H 8.177 0.0178 -0.5957 0
M  V30 55 H 7.1164 -1.3324 -0.036 0
M  V30 END ATOM
M  V30 BEGIN BOND
M  V30 1 2 1 2
M  V30 2 1 2 3
M  V30 3 1 2 4
M  V30 4 1 3 5
M  V30 5 1 5 6
M  V30 6 1 6 7
M  V30 7 1 7 8
M  V30 8 1 7 9
M  V30 9 1 8 10
M  V30 10 1 10 11
M  V30 11 1 11 12
M  V30 12 1 12 13
M  V30 13 1 12 14
M  V30 14 1 13 15
M  V30 15 1 15 16
M  V30 16 1 16 17
M  V30 17 1 17 18
M  V30 18 1 17 19
M  V30 19 1 3 20
M  V30 20 1 3 21
M  V30 21 1 4 22
M  V30 22 1 4 23
M  V30 23 1 4 24
M  V30 24 1 5 25
M  V30 25 1 5 26
M  V30 26 1 6 27
M  V30 27 1 6 28
M  V30 28 1 7 29
M  V30 29 1 8 30
M  V30 30 1 8 31
M  V30 31 1 9 32
M  V30 32 1 9 33
M  V30 33 1 9 34
M  V30 34 1 10 35
M  V30 35 1 10 36
M  V30 36 1 11 37
M  V30 37 1 11 38
M  V30 38 1 12 39
M  V30 39 1 13 40
M  V30 40 1 13 41
M  V30 41 1 14 42
M  V30 42 1 14 43
M  V30 43 1 14 44
M  V30 44 1 15 45
M  V30 45 1 15 46
M  V30 46 1 16 47
M  V30 47 1 16 48
M  V30 48 1 17 49
M  V30 49 1 18 50
M  V30 50 1 18 51
M  V30 51 1 18 52
M  V30 52 1 19 53
M  V30 53 1 19 54
M  V30 54 1 19 55
M  V30 END BOND
M  V30 BEGIN COLLECTION
M  V30 MDLV30/STEABS ATOMS=(2 7 12)
M  V30 END COLLECTION
M  V30 END CTAB
M  END
>  <Structure No>
2668

>  <LogS>
-5.474677518

>  <MMFF94 Energy>
17.532

$$$$
Compound 2669
Actelion Java MolfileCreator 2.0

  0  0  0  0  0  0              0 V3000
M  V30 BEGIN CTAB
M  V30 COUNTS 59 60 0 0 0
M  V30 BEGIN ATOM
M  V30 1 O 0 0 0 0
M  V30 2 C 0 0 0 0
M  V30 3 O 0 0 0 0
M  V30 4 C 0 0 0 0
M  V30 5 C 0 0 0 0
M  V30 6 C 0 0 0 0
M  V30 7 C 0 0 0 0
M  V30 8 C 0 0 0 0
M  V30 9 C 0 0 0 0
M  V30 10 O 0 0 0 0
M  V30 11 O 0 0 0 0
M  V30 12 O 0 0 0 0
M  V30 13 C 0 0 0 0
M  V30 14 C 0 0 0 0
M  V30 15 C 0 0 0 0
M  V30 16 C 0 0 0 0
M  V30 17 O 0 0 0 0
M  V30 18 C 0 0 0 0
M  V30 19 O 0 0 0 0
M  V30 20 C 0 0 0 0
M  V30 21 C 0 0 0 0
M  V30 22 O 0 0 0 0
M  V30 23 C 0 0 0 0
M  V30 24 C 0 0 0 0
M  V30 25 O 0 0 0 0
M  V30 26 C 0 0 0 0
M  V30 27 O 0 0 0 0
M  V30 28 C 0 0 0 0
M  V30 29 O 0 0 0 0
M  V30 30 C 0 0 0 0
M  V30 31 C 0 0 0 0
M  V30 32 O 0 0 0 0
M  V30 33 C 0 0 0 0
M  V30 34 C 0 0 0 0
M  V30 35 C 0 0 0 0
M  V30 36 C 0 0 0 0
M  V30 37 O 0 0 0 0
M  V30 38 C 0 0 0 0
M  V30 39 C 0 0 0 0
M  V30 40 C 0 0 0 0
M  V30 41 O 0 0 0 0
M  V30 42 C 0 0 0 0
M  V30 43 O 0 0 0 0
M  V30 44 O 0 0 0 0
M  V30 45 C 0 0 0 0
M  V30 46 C 0 0 0 0
M  V30 47 O 0 0 0 0
M  V30 48 C 0 0 0 0
M  V30 49 C 0 0 0 0
M  V30 50 C 0 0 0 0
M  V30 51 C 0 0 0 0
M  V30 52 O 0 0 0 0
M  V30 53 C 0 0 0 0
M  V30 54 O 0 0 0 0
M  V30 55 C 0 0 0 0
M  V30 56 C 0 0 0 0
M  V30 57 C 0 0 0 0
M  V30 58 C 0 0 0 0
M  V30 59 C 0 0 0 0
M  V30 END ATOM
M  V30 BEGIN BOND
M  V30 1 2 1 2
M  V30 2 1 2 3
M  V30 3 1 2 4
M  V30 4 1 3 5
M  V30 5 1 4 6
M  V30 6 1 4 7
M  V30 7 1 5 8
M  V30 8 1 5 9
M  V30 9 1 8 10
M  V30 10 1 8 11
M  V30 11 1 9 12
M  V30 12 1 9 13
M  V30 13 1 10 14
M  V30 14 1 11 15
M  V30 15 1 12 16
M  V30 16 1 13 17
M  V30 17 1 14 18
M  V30 18 1 15 19
M  V30 19 1 15 20
M  V30 20 1 15 21
M  V30 21 2 16 22
M  V30 22 1 16 23
M  V30 23 1 17 24
M  V30 24 1 18 25
M  V30 25 1 19 26
M  V30 26 1 20 27
M  V30 27 1 20 28
M  V30 28 1 21 29
M  V30 29 1 23 30
M  V30 30 1 23 31
M  V30 31 2 24 32
M  V30 32 1 24 33
M  V30 33 1 25 34
M  V30 34 1 26 35
M  V30 35 1 27 36
M  V30 36 1 28 37
M  V30 37 1 29 38
M  V30 38 1 33 39
M  V30 39 1 33 40
M  V30 40 2 34 41
M  V30 41 1 34 42
M  V30 42 1 35 43
M  V30 43 2 36 44
M  V30 44 1 36 45
M  V30 45 1 37 46
M  V30 46 2 38 47
M  V30 47 1 38 48
M  V30 48 1 43 49
M  V30 49 1 45 50
M  V30 50 1 45 51
M  V30 51 2 46 52
M  V30 52 1 46 53
M  V30 53 2 49 54
M  V30 54 1 49 55
M  V30 55 1 53 56
M  V30 56 1 53 57
M  V30 57 1 55 58
M  V30 58 1 55 59
M  V30 59 1 13 14
M  V30 60 1 26 28
M  V30 END BOND
M  V30 END CTAB
M  END
>  <Structure No>
2669

>  <LogS>
-6.073534809

>  <MMFF94 Energy>
39.987

$$$$
Compound 2670
Actelion Java MolfileCreator 2.0

  0  0  0  0  0  0              0 V3000
M  V30 BEGIN CTAB
M  V30 COUNTS 28 29 0 0 0
M  V30 BEGIN ATOM
M  V30 1 O 0.0 0.721 -1.1217 0
M  V30 2 C 0.664 -0.198 -0.5683 0
M  V30 3 C 2.0675 0.0647 -0.1596 0
M  V30 4 C 0.054 -1.538 -0.3997 0
M  V30 5 C 2.7527 1.1844 -0.6698 0
M  V30 6 C 2.7311 -0.776 0.7561 0
M  V30 7 C -1.26 -1.7752 -0.2487 0
M  V30 8 C 4.0715 1.4458 -0.2856 0
M  V30 9 C 4.0499 -0.5089 1.1369 0
M  V30 10 O -1.6963 -3.0958 -0.2708 0 CHG=-1
M  V30 11 C -2.2727 -0.7146 -0.0469 0
M  V30 12 C 4.7199 0.5991 0.6152 0
M  V30 13 C -3.467 -0.7465 -0.7847 0
M  V30 14 C -2.0957 0.2821 0.9304 0
M  V30 15 C -4.4496 0.2272 -0.5791 0
M  V30 16 C -3.0807 1.2538 1.1324 0
M  V30 17 C -4.2551 1.2287 0.3757 0
M  V30 18 H 0.7152 -2.394 -0.4594 0
M  V30 19 H 2.2727 1.8544 -1.3722 0
M  V30 20 H 2.2311 -1.6299 1.1938 0
M  V30 21 H 4.5909 2.3062 -0.6873 0
M  V30 22 H 4.5509 -1.1597 1.8418 0
M  V30 23 H 5.7403 0.8038 0.9121 0
M  V30 24 H -3.6332 -1.5185 -1.526 0
M  V30 25 H -1.2013 0.3021 1.5406 0
M  V30 26 H -5.3635 0.2035 -1.1586 0
M  V30 27 H -2.9365 2.0223 1.8809 0
M  V30 28 H -5.0174 1.9806 0.5344 0
M  V30 END ATOM
M  V30 BEGIN BOND
M  V30 1 2 1 2
M  V30 2 1 2 3
M  V30 3 1 2 4
M  V30 4 2 3 5
M  V30 5 1 3 6
M  V30 6 2 4 7
M  V30 7 1 5 8
M  V30 8 2 6 9
M  V30 9 1 7 10
M  V30 10 1 7 11
M  V30 11 2 8 12
M  V30 12 2 11 13
M  V30 13 1 11 14
M  V30 14 1 13 15
M  V30 15 2 14 16
M  V30 16 2 15 17
M  V30 17 1 9 12
M  V30 18 1 16 17
M  V30 19 1 4 18
M  V30 20 1 5 19
M  V30 21 1 6 20
M  V30 22 1 8 21
M  V30 23 1 9 22
M  V30 24 1 12 23
M  V30 25 1 13 24
M  V30 26 1 14 25
M  V30 27 1 15 26
M  V30 28 1 16 27
M  V30 29 1 17 28
M  V30 END BOND
M  V30 END CTAB
M  END
>  <Structure No>
2670

>  <LogS>
-5.657902962

>  <MMFF94 Energy>
65.897

$$$$
Compound 2671
Actelion Java MolfileCreator 2.0

  0  0  0  0  0  0              0 V3000
M  V30 BEGIN CTAB
M  V30 COUNTS 30 31 0 0 0
M  V30 BEGIN ATOM
M  V30 1 O -2.0912 -1.3669 -2.0912 0
M  V30 2 N -3.1854 -1.1958 -1.5155 0 CHG=1
M  V30 3 O -4.2843 -1.8827 -1.9789 0 CHG=-1
M  V30 4 C -3.3247 -0.2453 -0.4381 0
M  V30 5 C -2.2009 0.262 0.2638 0
M  V30 6 C -4.6119 0.1874 -0.0663 0
M  V30 7 N -0.8801 -0.1902 -0.0662 0
M  V30 8 C -2.3959 1.1935 1.3027 0
M  V30 9 C -4.7861 1.11 0.9663 0
M  V30 10 N 0.1564 0.2212 0.5451 0
M  V30 11 C -3.6806 1.6135 1.6479 0
M  V30 12 C 1.477 -0.2308 0.2179 0
M  V30 13 C 1.7498 -1.5239 -0.2981 0
M  V30 14 C 2.5361 0.6674 0.4081 0
M  V30 15 O 0.7766 -2.5198 -0.4014 0
M  V30 16 C 3.0551 -1.8483 -0.6854 0
M  V30 17 C 3.8424 0.3314 0.0253 0
M  V30 18 C 4.0956 -0.9329 -0.5202 0
M  V30 19 C 4.9686 1.2958 0.2537 0
M  V30 20 H -5.4882 -0.1813 -0.5835 0
M  V30 21 H -1.5541 1.5943 1.8526 0
M  V30 22 H -5.7819 1.4365 1.2373 0
M  V30 23 H -3.8192 2.329 2.4484 0
M  V30 24 H 2.3339 1.6449 0.8301 0
M  V30 25 H -0.1281 -2.4657 0.0446 0
M  V30 26 H 3.2697 -2.8303 -1.0876 0
M  V30 27 H 5.1011 -1.2156 -0.8064 0
M  V30 28 H 4.6107 2.3438 0.1665 0
M  V30 29 H 5.3876 1.1396 1.2696 0
M  V30 30 H 5.7732 1.1452 -0.497 0
M  V30 END ATOM
M  V30 BEGIN BOND
M  V30 1 2 1 2
M  V30 2 1 2 3
M  V30 3 1 2 4
M  V30 4 2 4 5
M  V30 5 1 4 6
M  V30 6 1 5 7
M  V30 7 1 5 8
M  V30 8 2 6 9
M  V30 9 2 7 10
M  V30 10 2 8 11
M  V30 11 1 10 12
M  V30 12 2 12 13
M  V30 13 1 12 14
M  V30 14 1 13 15
M  V30 15 1 13 16
M  V30 16 2 14 17
M  V30 17 2 16 18
M  V30 18 1 17 19
M  V30 19 1 9 11
M  V30 20 1 17 18
M  V30 21 1 6 20
M  V30 22 1 8 21
M  V30 23 1 9 22
M  V30 24 1 11 23
M  V30 25 1 14 24
M  V30 26 1 15 25
M  V30 27 1 16 26
M  V30 28 1 18 27
M  V30 29 1 19 28
M  V30 30 1 19 29
M  V30 31 1 19 30
M  V30 END BOND
M  V30 END CTAB
M  END
>  <Structure No>
2671

>  <LogS>
-5.747595864

>  <MMFF94 Energy>
73.317

$$$$
Compound 2672
Actelion Java MolfileCreator 2.0

  0  0  0  0  0  0              0 V3000
M  V30 BEGIN CTAB
M  V30 COUNTS 164 163 0 0 0
M  V30 BEGIN ATOM
M  V30 1 O -3.4525 -2.353 -0.8622 0
M  V30 2 C -3.1446 -1.1337 -0.7432 0
M  V30 3 O -3.3709 -0.2384 -1.7944 0
M  V30 4 C -2.4706 -0.6316 0.4993 0
M  V30 5 C -4.0478 -0.5986 -2.9979 0
M  V30 6 C -2.694 -1.5536 1.71 0
M  V30 7 C -5.5602 -0.7398 -2.7712 0
M  V30 8 C -2.0046 -1.0336 2.9861 0
M  V30 9 C -6.2078 0.4742 -2.0733 0
M  V30 10 C -0.6337 -1.6795 3.2735 0
M  V30 11 C -6.1345 1.7924 -2.8684 0
M  V30 12 C 0.5039 -1.179 2.3605 0
M  V30 13 C -7.0316 1.8165 -4.1268 0
M  V30 14 C 0.8275 -2.1706 1.2277 0
M  V30 15 C -8.3206 2.6443 -3.9558 0
M  V30 16 C 1.817 -1.5948 0.1941 0
M  V30 17 C -9.31 2.0854 -2.9188 0
M  V30 18 C 3.2915 -1.8761 0.5269 0
M  V30 19 C -9.9214 0.7388 -3.3456 0
M  V30 20 C 3.7646 -1.1174 1.726 0
M  V30 21 C -11.0216 0.2566 -2.3854 0
M  V30 22 O 3.8196 0.1427 1.6894 0
M  V30 23 O 4.126 -1.8186 2.8829 0
M  V30 24 C -10.4702 -0.1286 -1.0023 0
M  V30 25 C 4.5603 -1.185 4.0849 0
M  V30 26 C -11.4364 -1.0074 -0.19 0
M  V30 27 C 5.9812 -0.6273 3.9448 0
M  V30 28 C -12.7341 -0.2894 0.2369 0
M  V30 29 C 6.998 -1.7236 3.5857 0
M  V30 30 C -13.9145 -0.5984 -0.701 0
M  V30 31 C 8.4545 -1.2421 3.7092 0
M  V30 32 C -15.2628 -0.1228 -0.1362 0
M  V30 33 C 8.8287 -0.0676 2.7829 0
M  V30 34 C -15.3684 1.4096 -0.055 0
M  V30 35 C 8.6814 -0.3542 1.275 0
M  V30 36 C -16.8084 1.8874 0.2003 0
M  V30 37 C 9.5279 -1.528 0.7491 0
M  V30 38 C -17.3317 1.4777 1.5887 0
M  V30 39 C 11.0351 -1.3186 0.9726 0
M  V30 40 C -18.6784 2.1352 1.9311 0
M  V30 41 C 11.8918 -2.3946 0.2877 0
M  V30 42 C -19.8405 1.5657 1.1018 0
M  V30 43 C 12.0822 -2.1251 -1.2147 0
M  V30 44 C -21.1828 2.1597 1.5574 0
M  V30 45 C 12.9112 -3.2142 -1.9222 0
M  V30 46 C -22.3543 1.7251 0.6635 0
M  V30 47 C 14.3315 -3.4268 -1.3652 0
M  V30 48 C -22.7314 0.2556 0.8517 0
M  V30 49 C 15.2015 -2.1626 -1.4281 0
M  V30 50 C 16.6227 -2.4451 -0.9169 0
M  V30 51 C 17.5774 -1.2602 -1.1265 0
M  V30 52 C 17.2007 -0.0309 -0.2842 0
M  V30 53 C 18.2792 1.0563 -0.3948 0
M  V30 54 C 17.9634 2.3097 0.4421 0
M  V30 55 C 16.6908 3.0732 0.0275 0
M  V30 56 C 16.6445 3.5344 -1.4429 0
M  V30 57 C 17.6819 4.6213 -1.795 0
M  V30 58 C 18.9376 4.0557 -2.4589 0
M  V30 59 H -1.3919 -0.5214 0.2859 0
M  V30 60 H -2.8755 0.377 0.7309 0
M  V30 61 H -3.8517 0.1738 -3.7695 0
M  V30 62 H -3.6392 -1.556 -3.3917 0
M  V30 63 H -2.3578 -2.588 1.484 0
M  V30 64 H -3.7885 -1.6061 1.9011 0
M  V30 65 H -6.0558 -0.9425 -3.7428 0
M  V30 66 H -5.739 -1.6339 -2.1356 0
M  V30 67 H -1.9145 0.0758 2.9744 0
M  V30 68 H -2.6642 -1.2769 3.8491 0
M  V30 69 H -7.2665 0.2288 -1.8571 0
M  V30 70 H -5.7169 0.6269 -1.0876 0
M  V30 71 H -0.3642 -1.419 4.321 0
M  V30 72 H -0.7152 -2.7891 3.2457 0
M  V30 73 H -5.083 1.9926 -3.1604 0
M  V30 74 H -6.4101 2.6288 -2.1883 0
M  V30 75 H 0.2602 -0.1752 1.949 0
M  V30 76 H 1.4119 -1.0541 2.9855 0
M  V30 77 H -6.4506 2.2879 -4.9495 0
M  V30 78 H -7.28 0.7986 -4.4842 0
M  V30 79 H 1.2224 -3.1178 1.658 0
M  V30 80 H -0.1073 -2.4327 0.6936 0
M  V30 81 H -8.832 2.7165 -4.9414 0
M  V30 82 H -8.0459 3.6831 -3.6638 0
M  V30 83 H 1.6531 -0.5036 0.0496 0
M  V30 84 H 1.6045 -2.0765 -0.7854 0
M  V30 85 H -8.8098 1.9971 -1.9333 0
M  V30 86 H -10.133 2.8259 -2.8003 0
M  V30 87 H 3.9192 -1.5818 -0.3422 0
M  V30 88 H 3.4409 -2.9666 0.6873 0
M  V30 89 H -10.3697 0.8512 -4.3577 0
M  V30 90 H -9.1337 -0.0419 -3.4157 0
M  V30 91 H -11.5082 -0.6294 -2.8481 0
M  V30 92 H -11.7895 1.0532 -2.2766 0
M  V30 93 H -10.2299 0.7863 -0.4204 0
M  V30 94 H -9.5271 -0.703 -1.1305 0
M  V30 95 H 4.5376 -1.9317 4.9077 0
M  V30 96 H 3.8576 -0.3679 4.3569 0
M  V30 97 H -11.6549 -1.9463 -0.7445 0
M  V30 98 H -10.8978 -1.3135 0.7336 0
M  V30 99 H 5.9861 0.1624 3.1659 0
M  V30 100 H 6.266 -0.1579 4.9114 0
M  V30 101 H -12.9995 -0.6362 1.2594 0
M  V30 102 H -12.568 0.8077 0.2955 0
M  V30 103 H 6.8048 -2.1028 2.5601 0
M  V30 104 H 6.8664 -2.5797 4.2835 0
M  V30 105 H -13.7505 -0.1413 -1.6977 0
M  V30 106 H -13.986 -1.6995 -0.8458 0
M  V30 107 H 8.6385 -0.928 4.7589 0
M  V30 108 H 9.136 -2.0992 3.5195 0
M  V30 109 H -16.0665 -0.509 -0.7999 0
M  V30 110 H -15.4146 -0.5673 0.871 0
M  V30 111 H 9.8743 0.2369 2.9993 0
M  V30 112 H 8.2074 0.8165 3.0372 0
M  V30 113 H -14.7052 1.7958 0.7487 0
M  V30 114 H -15.0271 1.8517 -1.0165 0
M  V30 115 H 7.6132 -0.543 1.0348 0
M  V30 116 H 8.9676 0.5647 0.7177 0
M  V30 117 H -16.8216 2.997 0.1195 0
M  V30 118 H -17.4708 1.4833 -0.5951 0
M  V30 119 H 9.2018 -2.4789 1.224 0
M  V30 120 H 9.322 -1.6222 -0.3371 0
M  V30 121 H -17.4383 0.3734 1.6476 0
M  V30 122 H -16.5915 1.7885 2.3582 0
M  V30 123 H 11.3424 -0.3088 0.6203 0
M  V30 124 H 11.2436 -1.3721 2.0627 0
M  V30 125 H -18.6094 3.2356 1.7836 0
M  V30 126 H -18.8851 1.9535 3.0082 0
M  V30 127 H 11.4427 -3.3999 0.4439 0
M  V30 128 H 12.8852 -2.3858 0.7835 0
M  V30 129 H -19.8641 0.4614 1.2224 0
M  V30 130 H -19.686 1.8054 0.0288 0
M  V30 131 H 11.0895 -2.0909 -1.7114 0
M  V30 132 H 12.5506 -1.1299 -1.369 0
M  V30 133 H -21.115 3.2694 1.5179 0
M  V30 134 H -21.3874 1.8719 2.6125 0
M  V30 135 H 12.3609 -4.1783 -1.8585 0
M  V30 136 H 12.9853 -2.9549 -3.0012 0
M  V30 137 H -23.2407 2.3462 0.9196 0
M  V30 138 H -22.1115 1.9141 -0.4055 0
M  V30 139 H 14.2821 -3.8056 -0.3226 0
M  V30 140 H 14.8155 -4.2231 -1.9723 0
M  V30 141 H -22.9499 0.0447 1.9204 0
M  V30 142 H -21.9148 -0.409 0.5026 0
M  V30 143 H -23.6408 0.0287 0.2558 0
M  V30 144 H 14.7464 -1.3763 -0.7916 0
M  V30 145 H 15.2449 -1.7983 -2.477 0
M  V30 146 H 16.5879 -2.7134 0.1612 0
M  V30 147 H 17.0381 -3.3171 -1.4677 0
M  V30 148 H 17.5966 -0.984 -2.2025 0
M  V30 149 H 18.6001 -1.5932 -0.8442 0
M  V30 150 H 17.0819 -0.3255 0.7816 0
M  V30 151 H 16.2367 0.374 -0.6551 0
M  V30 152 H 18.4332 1.3272 -1.4601 0
M  V30 153 H 19.2424 0.6396 -0.0274 0
M  V30 154 H 17.8548 2.0064 1.5074 0
M  V30 155 H 18.831 3.0005 0.4046 0
M  V30 156 H 16.5868 3.9641 0.6856 0
M  V30 157 H 15.8007 2.4402 0.2299 0
M  V30 158 H 16.7079 2.6672 -2.135 0
M  V30 159 H 15.6343 3.9708 -1.607 0
M  V30 160 H 17.9659 5.2111 -0.8953 0
M  V30 161 H 17.2154 5.3283 -2.5173 0
M  V30 162 H 18.6665 3.4281 -3.3359 0
M  V30 163 H 19.5741 4.894 -2.8142 0
M  V30 164 H 19.533 3.4541 -1.7449 0
M  V30 END ATOM
M  V30 BEGIN BOND
M  V30 1 2 1 2
M  V30 2 1 2 3
M  V30 3 1 2 4
M  V30 4 1 3 5
M  V30 5 1 4 6
M  V30 6 1 5 7
M  V30 7 1 6 8
M  V30 8 1 7 9
M  V30 9 1 8 10
M  V30 10 1 9 11
M  V30 11 1 10 12
M  V30 12 1 11 13
M  V30 13 1 12 14
M  V30 14 1 13 15
M  V30 15 1 14 16
M  V30 16 1 15 17
M  V30 17 1 16 18
M  V30 18 1 17 19
M  V30 19 1 18 20
M  V30 20 1 19 21
M  V30 21 2 20 22
M  V30 22 1 20 23
M  V30 23 1 21 24
M  V30 24 1 23 25
M  V30 25 1 24 26
M  V30 26 1 25 27
M  V30 27 1 26 28
M  V30 28 1 27 29
M  V30 29 1 28 30
M  V30 30 1 29 31
M  V30 31 1 30 32
M  V30 32 1 31 33
M  V30 33 1 32 34
M  V30 34 1 33 35
M  V30 35 1 34 36
M  V30 36 1 35 37
M  V30 37 1 36 38
M  V30 38 1 37 39
M  V30 39 1 38 40
M  V30 40 1 39 41
M  V30 41 1 40 42
M  V30 42 1 41 43
M  V30 43 1 42 44
M  V30 44 1 43 45
M  V30 45 1 44 46
M  V30 46 1 45 47
M  V30 47 1 46 48
M  V30 48 1 47 49
M  V30 49 1 49 50
M  V30 50 1 50 51
M  V30 51 1 51 52
M  V30 52 1 52 53
M  V30 53 1 53 54
M  V30 54 1 54 55
M  V30 55 1 55 56
M  V30 56 1 56 57
M  V30 57 1 57 58
M  V30 58 1 4 59
M  V30 59 1 4 60
M  V30 60 1 5 61
M  V30 61 1 5 62
M  V30 62 1 6 63
M  V30 63 1 6 64
M  V30 64 1 7 65
M  V30 65 1 7 66
M  V30 66 1 8 67
M  V30 67 1 8 68
M  V30 68 1 9 69
M  V30 69 1 9 70
M  V30 70 1 10 71
M  V30 71 1 10 72
M  V30 72 1 11 73
M  V30 73 1 11 74
M  V30 74 1 12 75
M  V30 75 1 12 76
M  V30 76 1 13 77
M  V30 77 1 13 78
M  V30 78 1 14 79
M  V30 79 1 14 80
M  V30 80 1 15 81
M  V30 81 1 15 82
M  V30 82 1 16 83
M  V30 83 1 16 84
M  V30 84 1 17 85
M  V30 85 1 17 86
M  V30 86 1 18 87
M  V30 87 1 18 88
M  V30 88 1 19 89
M  V30 89 1 19 90
M  V30 90 1 21 91
M  V30 91 1 21 92
M  V30 92 1 24 93
M  V30 93 1 24 94
M  V30 94 1 25 95
M  V30 95 1 25 96
M  V30 96 1 26 97
M  V30 97 1 26 98
M  V30 98 1 27 99
M  V30 99 1 27 100
M  V30 100 1 28 101
M  V30 101 1 28 102
M  V30 102 1 29 103
M  V30 103 1 29 104
M  V30 104 1 30 105
M  V30 105 1 30 106
M  V30 106 1 31 107
M  V30 107 1 31 108
M  V30 108 1 32 109
M  V30 109 1 32 110
M  V30 110 1 33 111
M  V30 111 1 33 112
M  V30 112 1 34 113
M  V30 113 1 34 114
M  V30 114 1 35 115
M  V30 115 1 35 116
M  V30 116 1 36 117
M  V30 117 1 36 118
M  V30 118 1 37 119
M  V30 119 1 37 120
M  V30 120 1 38 121
M  V30 121 1 38 122
M  V30 122 1 39 123
M  V30 123 1 39 124
M  V30 124 1 40 125
M  V30 125 1 40 126
M  V30 126 1 41 127
M  V30 127 1 41 128
M  V30 128 1 42 129
M  V30 129 1 42 130
M  V30 130 1 43 131
M  V30 131 1 43 132
M  V30 132 1 44 133
M  V30 133 1 44 134
M  V30 134 1 45 135
M  V30 135 1 45 136
M  V30 136 1 46 137
M  V30 137 1 46 138
M  V30 138 1 47 139
M  V30 139 1 47 140
M  V30 140 1 48 141
M  V30 141 1 48 142
M  V30 142 1 48 143
M  V30 143 1 49 144
M  V30 144 1 49 145
M  V30 145 1 50 146
M  V30 146 1 50 147
M  V30 147 1 51 148
M  V30 148 1 51 149
M  V30 149 1 52 150
M  V30 150 1 52 151
M  V30 151 1 53 152
M  V30 152 1 53 153
M  V30 153 1 54 154
M  V30 154 1 54 155
M  V30 155 1 55 156
M  V30 156 1 55 157
M  V30 157 1 56 158
M  V30 158 1 56 159
M  V30 159 1 57 160
M  V30 160 1 57 161
M  V30 161 1 58 162
M  V30 162 1 58 163
M  V30 163 1 58 164
M  V30 END BOND
M  V30 END CTAB
M  END
>  <Structure No>
2672

>  <LogS>
-6.405660228

>  <MMFF94 Energy>
-25.055

$$$$
Compound 2673
Actelion Java MolfileCreator 2.0

  0  0  0  0  0  0              0 V3000
M  V30 BEGIN CTAB
M  V30 COUNTS 60 63 0 0 0
M  V30 BEGIN ATOM
M  V30 1 O -6.3312 -0.5669 2.0259 0
M  V30 2 C -5.2643 -0.2035 1.464 0
M  V30 3 C -4.4659 -1.1882 0.7159 0
M  V30 4 C -4.8495 1.2333 1.5223 0
M  V30 5 C -3.3273 -0.8528 0.0728 0
M  V30 6 C -3.3347 1.35 1.3304 0
M  V30 7 C -2.637 -1.8475 -0.7856 0
M  V30 8 C -2.8114 0.5896 0.0664 0 CFG=1
M  V30 9 C -3.313 -2.7495 -1.5114 0
M  V30 10 C -1.1394 -1.824 -0.8172 0
M  V30 11 C -1.2243 0.6522 -0.0212 0 CFG=2
M  V30 12 C -3.398 1.2763 -1.1967 0
M  V30 13 C -0.6245 -0.3862 -1.0279 0 CFG=1
M  V30 14 C -0.4665 0.6243 1.3426 0
M  V30 15 C 0.9175 -0.2275 -1.0739 0 CFG=1
M  V30 16 C 1.0714 0.7802 1.1857 0
M  V30 17 C 1.6965 -0.2955 0.2574 0 CFG=2
M  V30 18 C 1.717 -1.0475 -2.0655 0
M  V30 19 C 3.1767 -0.0527 -0.2787 0 CFG=1
M  V30 20 C 1.6108 -1.6728 0.9854 0
M  V30 21 C 3.1752 -0.7826 -1.6667 0
M  V30 22 O 3.3921 1.342 -0.6048 0
M  V30 23 C 4.3466 -0.5828 0.5926 0
M  V30 24 C 3.6238 2.4307 0.2558 0
M  V30 25 O 5.0475 0.2022 1.2097 0
M  V30 26 C 4.7339 -2.039 0.707 0
M  V30 27 O 3.5777 2.3076 1.5095 0
M  V30 28 C 3.8561 3.779 -0.3346 0
M  V30 29 H -4.8222 -2.2111 0.6995 0
M  V30 30 H -5.122 1.6578 2.5131 0
M  V30 31 H -5.3945 1.8142 0.75 0
M  V30 32 H -3.0498 2.424 1.2839 0
M  V30 33 H -2.8877 0.9152 2.2495 0
M  V30 34 H -2.7942 -3.4762 -2.1238 0
M  V30 35 H -4.3949 -2.7636 -1.531 0
M  V30 36 H -0.7562 -2.4705 -1.6353 0
M  V30 37 H -0.8102 -2.2633 0.1313 0
M  V30 38 H -0.9811 1.6577 -0.4368 0
M  V30 39 H -3.1421 2.3575 -1.2134 0
M  V30 40 H -3.0118 0.8151 -2.1278 0
M  V30 41 H -4.5027 1.1797 -1.2397 0
M  V30 42 H -0.9715 -0.0977 -2.0446 0
M  V30 43 H -0.7798 1.4951 1.9559 0
M  V30 44 H -0.7417 -0.2813 1.9169 0
M  V30 45 H 1.0385 0.8197 -1.4505 0
M  V30 46 H 1.2234 1.7929 0.7648 0
M  V30 47 H 1.5503 0.7447 2.1882 0
M  V30 48 H 1.489 -2.1296 -1.9744 0
M  V30 49 H 1.5165 -0.7225 -3.11 0
M  V30 50 H 1.7588 -2.5246 0.2932 0
M  V30 51 H 2.356 -1.7241 1.8027 0
M  V30 52 H 0.6705 -1.8379 1.5294 0
M  V30 53 H 3.7289 -1.7404 -1.6874 0
M  V30 54 H 3.6576 -0.1456 -2.4417 0
M  V30 55 H 5.7306 -2.189 0.2422 0
M  V30 56 H 4.8004 -2.3195 1.7794 0
M  V30 57 H 4.0187 -2.7292 0.2247 0
M  V30 58 H 2.8921 4.3258 -0.3953 0
M  V30 59 H 4.5667 4.3552 0.2946 0
M  V30 60 H 4.282 3.677 -1.3545 0
M  V30 END ATOM
M  V30 BEGIN BOND
M  V30 1 2 1 2
M  V30 2 1 2 3
M  V30 3 1 2 4
M  V30 4 2 3 5
M  V30 5 1 4 6
M  V30 6 1 5 7
M  V30 7 1 5 8
M  V30 8 2 7 9
M  V30 9 1 7 10
M  V30 10 1 8 11
M  V30 11 1 8 12
M  V30 12 1 10 13
M  V30 13 1 11 14
M  V30 14 1 13 15
M  V30 15 1 14 16
M  V30 16 1 15 17
M  V30 17 1 15 18
M  V30 18 1 17 19
M  V30 19 1 17 20
M  V30 20 1 18 21
M  V30 21 1 19 22
M  V30 22 1 19 23
M  V30 23 1 22 24
M  V30 24 2 23 25
M  V30 25 1 23 26
M  V30 26 2 24 27
M  V30 27 1 24 28
M  V30 28 1 6 8
M  V30 29 1 11 13
M  V30 30 1 16 17
M  V30 31 1 19 21
M  V30 32 1 3 29
M  V30 33 1 4 30
M  V30 34 1 4 31
M  V30 35 1 6 32
M  V30 36 1 6 33
M  V30 37 1 9 34
M  V30 38 1 9 35
M  V30 39 1 10 36
M  V30 40 1 10 37
M  V30 41 1 11 38
M  V30 42 1 12 39
M  V30 43 1 12 40
M  V30 44 1 12 41
M  V30 45 1 13 42
M  V30 46 1 14 43
M  V30 47 1 14 44
M  V30 48 1 15 45
M  V30 49 1 16 46
M  V30 50 1 16 47
M  V30 51 1 18 48
M  V30 52 1 18 49
M  V30 53 1 20 50
M  V30 54 1 20 51
M  V30 55 1 20 52
M  V30 56 1 21 53
M  V30 57 1 21 54
M  V30 58 1 26 55
M  V30 59 1 26 56
M  V30 60 1 26 57
M  V30 61 1 28 58
M  V30 62 1 28 59
M  V30 63 1 28 60
M  V30 END BOND
M  V30 BEGIN COLLECTION
M  V30 MDLV30/STEABS ATOMS=(6 8 11 13 15 17 19)
M  V30 END COLLECTION
M  V30 END CTAB
M  END
>  <Structure No>
2673

>  <LogS>
-6.107793161

>  <MMFF94 Energy>
93.831

$$$$
Compound 2674
Actelion Java MolfileCreator 2.0

  0  0  0  0  0  0              0 V3000
M  V30 BEGIN CTAB
M  V30 COUNTS 63 62 0 0 0
M  V30 BEGIN ATOM
M  V30 1 S -2.5808 0.4029 2.1773 0
M  V30 2 C -2.4288 -0.4016 0.7547 0
M  V30 3 S -1.1056 -1.6183 0.6437 0
M  V30 4 N -3.2747 -0.0918 -0.3828 0
M  V30 5 C 0.0545 -0.5034 -0.2172 0
M  V30 6 C -3.7951 1.277 -0.5632 0
M  V30 7 C -3.4131 -1.049 -1.4979 0
M  V30 8 S 0.7235 0.7542 0.9254 0
M  V30 9 C -5.1314 1.4826 0.1734 0
M  V30 10 C -4.8672 -1.5063 -1.6877 0
M  V30 11 C 2.0282 -0.2877 1.5952 0
M  V30 12 C -5.5316 2.9629 0.2567 0
M  V30 13 C -5.478 -2.1548 -0.4331 0
M  V30 14 S 1.6771 -1.2026 2.9115 0
M  V30 15 N 3.3833 -0.1766 1.1027 0
M  V30 16 C -5.8922 3.5525 -1.1067 0
M  V30 17 C -4.8404 -3.5013 -0.094 0
M  V30 18 C 4.5337 -0.2955 2.0141 0
M  V30 19 C 3.6373 -0.0201 -0.3367 0
M  V30 20 C 4.6005 0.9177 2.9519 0
M  V30 21 C 3.8777 -1.3913 -0.9825 0
M  V30 22 C 5.7546 0.822 3.9618 0
M  V30 23 C 3.8264 -1.3433 -2.5164 0
M  V30 24 C 7.1216 1.0509 3.3182 0
M  V30 25 C 4.9546 -0.5078 -3.1205 0
M  V30 26 H -0.4642 0.0064 -1.0559 0
M  V30 27 H 0.8728 -1.1115 -0.6527 0
M  V30 28 H -3.9515 1.4834 -1.6442 0
M  V30 29 H -3.0386 2.0109 -0.2083 0
M  V30 30 H -2.7837 -1.9483 -1.3581 0
M  V30 31 H -3.056 -0.574 -2.437 0
M  V30 32 H -5.9387 0.9139 -0.3312 0
M  V30 33 H -5.0616 1.0906 1.2077 0
M  V30 34 H -4.9098 -2.2293 -2.5312 0
M  V30 35 H -5.4875 -0.6371 -1.9894 0
M  V30 36 H -4.7085 3.5552 0.7104 0
M  V30 37 H -6.4165 3.0502 0.9234 0
M  V30 38 H -5.3891 -1.4759 0.4412 0
M  V30 39 H -6.5612 -2.3205 -0.619 0
M  V30 40 H -6.304 4.5741 -0.9703 0
M  V30 41 H -4.9917 3.626 -1.7516 0
M  V30 42 H -6.6568 2.927 -1.6146 0
M  V30 43 H -4.8683 -4.1777 -0.9736 0
M  V30 44 H -3.7905 -3.3653 0.2419 0
M  V30 45 H -5.4066 -3.978 0.7338 0
M  V30 46 H 5.4762 -0.3547 1.4313 0
M  V30 47 H 4.4608 -1.2369 2.5972 0
M  V30 48 H 2.7886 0.4914 -0.8338 0
M  V30 49 H 4.5257 0.6305 -0.4899 0
M  V30 50 H 4.6964 1.8496 2.3529 0
M  V30 51 H 3.6497 0.9873 3.5226 0
M  V30 52 H 4.8588 -1.795 -0.6518 0
M  V30 53 H 3.0954 -2.0991 -0.6351 0
M  V30 54 H 5.7415 -0.1672 4.4674 0
M  V30 55 H 5.6049 1.6001 4.7408 0
M  V30 56 H 3.9164 -2.3826 -2.9013 0
M  V30 57 H 2.844 -0.9439 -2.8521 0
M  V30 58 H 7.8974 1.0992 4.1114 0
M  V30 59 H 7.3793 0.2174 2.6324 0
M  V30 60 H 7.1334 2.0096 2.757 0
M  V30 61 H 5.9397 -0.8555 -2.7428 0
M  V30 62 H 4.9394 -0.614 -4.2254 0
M  V30 63 H 4.8213 0.5668 -2.8745 0
M  V30 END ATOM
M  V30 BEGIN BOND
M  V30 1 2 1 2
M  V30 2 1 2 3
M  V30 3 1 2 4
M  V30 4 1 3 5
M  V30 5 1 4 6
M  V30 6 1 4 7
M  V30 7 1 5 8
M  V30 8 1 6 9
M  V30 9 1 7 10
M  V30 10 1 8 11
M  V30 11 1 9 12
M  V30 12 1 10 13
M  V30 13 2 11 14
M  V30 14 1 11 15
M  V30 15 1 12 16
M  V30 16 1 13 17
M  V30 17 1 15 18
M  V30 18 1 15 19
M  V30 19 1 18 20
M  V30 20 1 19 21
M  V30 21 1 20 22
M  V30 22 1 21 23
M  V30 23 1 22 24
M  V30 24 1 23 25
M  V30 25 1 5 26
M  V30 26 1 5 27
M  V30 27 1 6 28
M  V30 28 1 6 29
M  V30 29 1 7 30
M  V30 30 1 7 31
M  V30 31 1 9 32
M  V30 32 1 9 33
M  V30 33 1 10 34
M  V30 34 1 10 35
M  V30 35 1 12 36
M  V30 36 1 12 37
M  V30 37 1 13 38
M  V30 38 1 13 39
M  V30 39 1 16 40
M  V30 40 1 16 41
M  V30 41 1 16 42
M  V30 42 1 17 43
M  V30 43 1 17 44
M  V30 44 1 17 45
M  V30 45 1 18 46
M  V30 46 1 18 47
M  V30 47 1 19 48
M  V30 48 1 19 49
M  V30 49 1 20 50
M  V30 50 1 20 51
M  V30 51 1 21 52
M  V30 52 1 21 53
M  V30 53 1 22 54
M  V30 54 1 22 55
M  V30 55 1 23 56
M  V30 56 1 23 57
M  V30 57 1 24 58
M  V30 58 1 24 59
M  V30 59 1 24 60
M  V30 60 1 25 61
M  V30 61 1 25 62
M  V30 62 1 25 63
M  V30 END BOND
M  V30 END CTAB
M  END
>  <Structure No>
2674

>  <LogS>
-6.240523569

>  <MMFF94 Energy>
-53.109

$$$$
Compound 2675
Actelion Java MolfileCreator 2.0

  0  0  0  0  0  0              0 V3000
M  V30 BEGIN CTAB
M  V30 COUNTS 52 55 0 0 0
M  V30 BEGIN ATOM
M  V30 1 O -7.7017 -2.7512 -0.5659 0
M  V30 2 N -6.7395 -3.0546 0.1695 0 CHG=1
M  V30 3 O -6.8394 -4.1743 0.9634 0 CHG=-1
M  V30 4 C -5.5466 -2.2491 0.1878 0
M  V30 5 C -4.4673 -2.5954 1.0194 0
M  V30 6 C -5.4406 -1.1037 -0.6226 0
M  V30 7 C -3.3076 -1.8152 1.0388 0
M  V30 8 C -4.2803 -0.3245 -0.6015 0
M  V30 9 C -3.2048 -0.6768 0.2254 0
M  V30 10 N -2.0168 0.1334 0.248 0
M  V30 11 C -0.7177 -0.4614 0.0351 0
M  V30 12 C -2.1105 1.5314 0.7221 0
M  V30 13 O -0.6031 -1.6812 -0.2605 0
M  V30 14 C 0.4511 0.4246 0.0674 0
M  V30 15 C -1.0501 2.4494 0.0729 0
M  V30 16 N 1.7582 0.1281 -0.1047 0
M  V30 17 C 0.2937 1.7821 0.0808 0
M  V30 18 N 2.4389 1.2595 -0.2355 0
M  V30 19 C 2.3774 -1.1665 -0.1435 0
M  V30 20 C 1.5664 2.2875 -0.1371 0
M  V30 21 C 3.351 -1.4479 -1.1124 0
M  V30 22 C 2.0709 -2.1365 0.8232 0
M  V30 23 C 1.9533 3.6957 -0.3026 0
M  V30 24 C 3.982 -2.6952 -1.1402 0
M  V30 25 C 2.7015 -3.3835 0.7963 0
M  V30 26 O 3.1677 3.9867 -0.4793 0
M  V30 27 O 0.9798 4.7004 -0.2771 0
M  V30 28 C 3.6573 -3.6761 -0.1833 0
M  V30 29 C 1.2807 6.091 -0.3738 0
M  V30 30 O 4.2603 -4.9425 -0.1691 0
M  V30 31 C 1.8431 6.6118 0.9436 0
M  V30 32 C 5.2455 -5.3739 -1.1022 0
M  V30 33 H -4.5197 -3.4678 1.6579 0
M  V30 34 H -6.2542 -0.8109 -1.2739 0
M  V30 35 H -2.4925 -2.0914 1.6959 0
M  V30 36 H -4.2141 0.5487 -1.2381 0
M  V30 37 H -1.9699 1.5405 1.8248 0
M  V30 38 H -3.1176 1.9515 0.5111 0
M  V30 39 H -1.3385 2.6624 -0.9784 0
M  V30 40 H -1.0081 3.4046 0.6367 0
M  V30 41 H 3.6122 -0.7029 -1.8535 0
M  V30 42 H 1.3531 -1.9219 1.6051 0
M  V30 43 H 4.7207 -2.8855 -1.9067 0
M  V30 44 H 2.4511 -4.1245 1.545 0
M  V30 45 H 1.9996 6.2759 -1.2015 0
M  V30 46 H 0.3432 6.64 -0.6027 0
M  V30 47 H 2.806 6.112 1.1783 0
M  V30 48 H 1.122 6.418 1.7659 0
M  V30 49 H 2.0183 7.7057 0.8684 0
M  V30 50 H 4.8299 -5.3554 -2.1319 0
M  V30 51 H 6.1421 -4.7216 -1.0397 0
M  V30 52 H 5.5449 -6.4138 -0.8584 0
M  V30 END ATOM
M  V30 BEGIN BOND
M  V30 1 2 1 2
M  V30 2 1 2 3
M  V30 3 1 2 4
M  V30 4 2 4 5
M  V30 5 1 4 6
M  V30 6 1 5 7
M  V30 7 2 6 8
M  V30 8 2 7 9
M  V30 9 1 9 10
M  V30 10 1 10 11
M  V30 11 1 10 12
M  V30 12 2 11 13
M  V30 13 1 11 14
M  V30 14 1 12 15
M  V30 15 1 14 16
M  V30 16 2 14 17
M  V30 17 1 16 18
M  V30 18 1 16 19
M  V30 19 1 17 20
M  V30 20 2 19 21
M  V30 21 1 19 22
M  V30 22 1 20 23
M  V30 23 1 21 24
M  V30 24 2 22 25
M  V30 25 2 23 26
M  V30 26 1 23 27
M  V30 27 2 24 28
M  V30 28 1 27 29
M  V30 29 1 28 30
M  V30 30 1 29 31
M  V30 31 1 30 32
M  V30 32 1 8 9
M  V30 33 1 15 17
M  V30 34 2 18 20
M  V30 35 1 25 28
M  V30 36 1 5 33
M  V30 37 1 6 34
M  V30 38 1 7 35
M  V30 39 1 8 36
M  V30 40 1 12 37
M  V30 41 1 12 38
M  V30 42 1 15 39
M  V30 43 1 15 40
M  V30 44 1 21 41
M  V30 45 1 22 42
M  V30 46 1 24 43
M  V30 47 1 25 44
M  V30 48 1 29 45
M  V30 49 1 29 46
M  V30 50 1 31 47
M  V30 51 1 31 48
M  V30 52 1 31 49
M  V30 53 1 32 50
M  V30 54 1 32 51
M  V30 55 1 32 52
M  V30 END BOND
M  V30 END CTAB
M  END
>  <Structure No>
2675

>  <LogS>
-6.618719326

>  <MMFF94 Energy>
124.37

$$$$
Compound 2676
Actelion Java MolfileCreator 2.0

  0  0  0  0  0  0              0 V3000
M  V30 BEGIN CTAB
M  V30 COUNTS 75 74 0 0 0
M  V30 BEGIN ATOM
M  V30 1 O -3.4246 -0.2332 0.8553 0
M  V30 2 C -4.7918 -0.5151 1.0886 0
M  V30 3 C -2.6067 -1.3614 1.11 0
M  V30 4 C -5.1807 -0.1247 2.5205 0
M  V30 5 C -2.4813 -2.2631 -0.1275 0
M  V30 6 C -6.6573 -0.4361 2.8352 0
M  V30 7 C -2.1462 -1.5108 -1.428 0
M  V30 8 N -7.5981 0.5001 2.1545 0 CHG=1
M  V30 9 C -0.7415 -0.8738 -1.4419 0
M  V30 10 C -8.3419 -0.1816 1.0766 0
M  V30 11 C -8.5533 1.0822 3.1144 0
M  V30 12 C -0.7686 0.6258 -1.1154 0
M  V30 13 C 0.6232 1.245 -1.2968 0
M  V30 14 C 0.6431 2.7188 -0.8699 0
M  V30 15 C 2.0628 3.3176 -0.8619 0
M  V30 16 C 2.6428 3.5785 -2.2707 0
M  V30 17 C 3.5604 2.4502 -2.7741 0
M  V30 18 C 4.9643 2.4974 -2.1423 0
M  V30 19 C 5.8152 1.2742 -2.5362 0
M  V30 20 C 5.4925 0.0218 -1.6961 0
M  V30 21 C 6.2069 0.0367 -0.3315 0
M  V30 22 C 5.5767 -0.9389 0.6761 0
M  V30 23 C 5.7391 -2.4111 0.2578 0
M  V30 24 C 5.2269 -3.386 1.3288 0
M  V30 25 C 3.7038 -3.3561 1.481 0
M  V30 26 H -5.3774 0.1027 0.3771 0
M  V30 27 H -5.0643 -1.5764 0.8816 0
M  V30 28 H -1.5952 -1.0009 1.3926 0
M  V30 29 H -2.9622 -1.9639 1.9788 0
M  V30 30 H -4.9769 0.9552 2.6811 0
M  V30 31 H -4.5485 -0.6895 3.2349 0
M  V30 32 H -1.7064 -3.0384 0.0646 0
M  V30 33 H -3.4413 -2.8029 -0.279 0
M  V30 34 H -6.8686 -1.4993 2.5745 0
M  V30 35 H -6.7682 -0.3861 3.9454 0
M  V30 36 H -2.934 -0.7614 -1.655 0
M  V30 37 H -2.1878 -2.2579 -2.2503 0
M  V30 38 H -7.0798 1.2988 1.7178 0
M  V30 39 H -0.0633 -1.4016 -0.738 0
M  V30 40 H -0.3156 -1.0003 -2.4616 0
M  V30 41 H -7.6426 -0.649 0.3512 0
M  V30 42 H -9.0021 -0.9801 1.4858 0
M  V30 43 H -8.9693 0.5465 0.5147 0
M  V30 44 H -9.2441 1.7832 2.5987 0
M  V30 45 H -8.0114 1.6616 3.8934 0
M  V30 46 H -9.1529 0.2868 3.6126 0
M  V30 47 H -1.1089 0.7792 -0.0708 0
M  V30 48 H -1.4821 1.1415 -1.7937 0
M  V30 49 H 0.8956 1.1683 -2.3689 0
M  V30 50 H 1.3626 0.678 -0.6909 0
M  V30 51 H -0.0225 3.3175 -1.5319 0
M  V30 52 H 0.2396 2.7945 0.1648 0
M  V30 53 H 2.0055 4.2949 -0.3379 0
M  V30 54 H 2.7342 2.6773 -0.2509 0
M  V30 55 H 3.2235 4.5288 -2.2576 0
M  V30 56 H 1.8177 3.7269 -3.0011 0
M  V30 57 H 3.0915 1.4648 -2.5927 0
M  V30 58 H 3.6684 2.5553 -3.8776 0
M  V30 59 H 4.8908 2.5757 -1.0377 0
M  V30 60 H 5.4817 3.4157 -2.4913 0
M  V30 61 H 5.6522 1.0434 -3.6127 0
M  V30 62 H 6.8932 1.5258 -2.4263 0
M  V30 63 H 5.8346 -0.8705 -2.2623 0
M  V30 64 H 4.3945 -0.0759 -1.5592 0
M  V30 65 H 7.2839 -0.2053 -0.4739 0
M  V30 66 H 6.1546 1.0539 0.113 0
M  V30 67 H 6.0714 -0.7862 1.6615 0
M  V30 68 H 4.5013 -0.6875 0.7959 0
M  V30 69 H 6.8203 -2.6157 0.091 0
M  V30 70 H 5.2092 -2.6067 -0.6968 0
M  V30 71 H 5.5274 -4.417 1.0372 0
M  V30 72 H 5.7023 -3.1628 2.3087 0
M  V30 73 H 3.3726 -2.3891 1.9138 0
M  V30 74 H 3.2086 -3.5122 0.4966 0
M  V30 75 H 3.3879 -4.1687 2.171 0
M  V30 END ATOM
M  V30 BEGIN BOND
M  V30 1 1 1 2
M  V30 2 1 1 3
M  V30 3 1 2 4
M  V30 4 1 3 5
M  V30 5 1 4 6
M  V30 6 1 5 7
M  V30 7 1 6 8
M  V30 8 1 7 9
M  V30 9 1 8 10
M  V30 10 1 8 11
M  V30 11 1 9 12
M  V30 12 1 12 13
M  V30 13 1 13 14
M  V30 14 1 14 15
M  V30 15 1 15 16
M  V30 16 1 16 17
M  V30 17 1 17 18
M  V30 18 1 18 19
M  V30 19 1 19 20
M  V30 20 1 20 21
M  V30 21 1 21 22
M  V30 22 1 22 23
M  V30 23 1 23 24
M  V30 24 1 24 25
M  V30 25 1 2 26
M  V30 26 1 2 27
M  V30 27 1 3 28
M  V30 28 1 3 29
M  V30 29 1 4 30
M  V30 30 1 4 31
M  V30 31 1 5 32
M  V30 32 1 5 33
M  V30 33 1 6 34
M  V30 34 1 6 35
M  V30 35 1 7 36
M  V30 36 1 7 37
M  V30 37 1 8 38
M  V30 38 1 9 39
M  V30 39 1 9 40
M  V30 40 1 10 41
M  V30 41 1 10 42
M  V30 42 1 10 43
M  V30 43 1 11 44
M  V30 44 1 11 45
M  V30 45 1 11 46
M  V30 46 1 12 47
M  V30 47 1 12 48
M  V30 48 1 13 49
M  V30 49 1 13 50
M  V30 50 1 14 51
M  V30 51 1 14 52
M  V30 52 1 15 53
M  V30 53 1 15 54
M  V30 54 1 16 55
M  V30 55 1 16 56
M  V30 56 1 17 57
M  V30 57 1 17 58
M  V30 58 1 18 59
M  V30 59 1 18 60
M  V30 60 1 19 61
M  V30 61 1 19 62
M  V30 62 1 20 63
M  V30 63 1 20 64
M  V30 64 1 21 65
M  V30 65 1 21 66
M  V30 66 1 22 67
M  V30 67 1 22 68
M  V30 68 1 23 69
M  V30 69 1 23 70
M  V30 70 1 24 71
M  V30 71 1 24 72
M  V30 72 1 25 73
M  V30 73 1 25 74
M  V30 74 1 25 75
M  V30 END BOND
M  V30 END CTAB
M  END
>  <Structure No>
2676

>  <LogS>
-6.85205403

>  <MMFF94 Energy>
5.8653

$$$$
Compound 2677
Actelion Java MolfileCreator 2.0

  0  0  0  0  0  0              0 V3000
M  V30 BEGIN CTAB
M  V30 COUNTS 29 30 0 0 0
M  V30 BEGIN ATOM
M  V30 1 O -0.8846 -2.4946 -0.5628 0
M  V30 2 C -0.8209 -1.2843 -0.2137 0
M  V30 3 C -2.0732 -0.4931 -0.1093 0
M  V30 4 C 0.5116 -0.686 0.0407 0
M  V30 5 C -3.2775 -1.091 0.3219 0
M  V30 6 C -2.0776 0.8669 -0.4733 0
M  V30 7 C 0.7336 0.1937 1.1201 0
M  V30 8 C 1.589 -1.026 -0.7931 0
M  V30 9 O -3.3046 -2.4346 0.696 0
M  V30 10 C -4.4524 -0.3271 0.3898 0
M  V30 11 C -3.2529 1.6183 -0.3986 0
M  V30 12 O -0.2904 0.5093 2.0072 0 CHG=-1
M  V30 13 C 2.0023 0.7457 1.3262 0
M  V30 14 C 2.8554 -0.4753 -0.5799 0
M  V30 15 C -4.4385 1.0223 0.0325 0
M  V30 16 C 3.0696 0.4206 0.4829 0
M  V30 17 O 4.3206 1.003 0.736 0
M  V30 18 C 5.4907 0.7622 -0.0383 0
M  V30 19 H -1.1735 1.3462 -0.8274 0
M  V30 20 H 1.4461 -1.7082 -1.6224 0
M  V30 21 H -4.1572 -2.8814 1.0128 0
M  V30 22 H -5.3779 -0.7794 0.7232 0
M  V30 23 H -3.2453 2.6634 -0.6804 0
M  V30 24 H 2.1623 1.4248 2.1546 0
M  V30 25 H 3.6596 -0.7516 -1.2479 0
M  V30 26 H -5.3482 1.6063 0.0882 0
M  V30 27 H 5.7574 -0.3152 -0.0024 0
M  V30 28 H 6.3316 1.3504 0.3827 0
M  V30 29 H 5.3253 1.0805 -1.0893 0
M  V30 END ATOM
M  V30 BEGIN BOND
M  V30 1 2 1 2
M  V30 2 1 2 3
M  V30 3 1 2 4
M  V30 4 2 3 5
M  V30 5 1 3 6
M  V30 6 2 4 7
M  V30 7 1 4 8
M  V30 8 1 5 9
M  V30 9 1 5 10
M  V30 10 2 6 11
M  V30 11 1 7 12
M  V30 12 1 7 13
M  V30 13 2 8 14
M  V30 14 2 10 15
M  V30 15 2 13 16
M  V30 16 1 16 17
M  V30 17 1 17 18
M  V30 18 1 11 15
M  V30 19 1 14 16
M  V30 20 1 6 19
M  V30 21 1 8 20
M  V30 22 1 9 21
M  V30 23 1 10 22
M  V30 24 1 11 23
M  V30 25 1 13 24
M  V30 26 1 14 25
M  V30 27 1 15 26
M  V30 28 1 18 27
M  V30 29 1 18 28
M  V30 30 1 18 29
M  V30 END BOND
M  V30 END CTAB
M  END
>  <Structure No>
2677

>  <LogS>
-7.273884108

>  <MMFF94 Energy>
73.555

$$$$
Compound 2678
Actelion Java MolfileCreator 2.0

  0  0  0  0  0  0              0 V3000
M  V30 BEGIN CTAB
M  V30 COUNTS 67 70 0 0 0
M  V30 BEGIN ATOM
M  V30 1 O -6.9202 -1.6864 2.0883 0
M  V30 2 C -7.285 -1.7965 0.8866 0
M  V30 3 N -6.6153 -1.0483 -0.1517 0
M  V30 4 C -8.4473 -2.6902 0.554 0
M  V30 5 C -5.658 -0.034 0.203 0
M  V30 6 C -6.9653 -1.2782 -1.5643 0
M  V30 7 C -9.6738 -1.9016 0.0593 0
M  V30 8 O -5.9408 0.789 1.1167 0
M  V30 9 N -4.3936 0.0467 -0.4783 0
M  V30 10 C -8.4028 -0.8211 -1.9176 0
M  V30 11 C -9.3561 -0.6148 -0.7266 0
M  V30 12 C -3.3445 0.9583 -0.1122 0
M  V30 13 C -3.0423 1.2225 1.2353 0
M  V30 14 C -2.5617 1.5463 -1.1163 0
M  V30 15 C -2.0022 2.0954 1.5677 0
M  V30 16 C -1.524 2.4224 -0.7845 0
M  V30 17 C -1.2466 2.7148 0.56 0
M  V30 18 C -0.1112 3.6361 0.9177 0
M  V30 19 C 1.1899 2.8801 0.9432 0
M  V30 20 C 2.0377 2.8874 -0.1742 0
M  V30 21 C 1.55 2.1305 2.0737 0
M  V30 22 C 3.2328 2.1625 -0.1589 0
M  V30 23 C 2.7438 1.4037 2.0881 0
M  V30 24 C 3.5863 1.3971 0.9668 0
M  V30 25 N 4.8182 0.6557 1.0149 0
M  V30 26 C 5.3848 -0.0328 -0.1177 0
M  V30 27 O 4.7254 -0.1258 -1.1899 0
M  V30 28 N 6.6965 -0.6303 -0.0492 0
M  V30 29 C 7.5072 -0.5857 -1.2382 0
M  V30 30 C 7.2679 -1.0065 1.2585 0
M  V30 31 O 7.5983 0.4855 -1.8983 0
M  V30 32 C 8.2216 -1.8094 -1.7192 0
M  V30 33 C 8.3325 -2.1178 1.2005 0
M  V30 34 C 9.5896 -1.9851 -1.0472 0
M  V30 35 C 9.6111 -1.6821 0.4632 0
M  V30 36 H -8.7364 -3.2831 1.4491 0
M  V30 37 H -8.1366 -3.4245 -0.2184 0
M  V30 38 H -6.2632 -0.7465 -2.2411 0
M  V30 39 H -6.8461 -2.3572 -1.799 0
M  V30 40 H -10.2997 -2.5706 -0.5708 0
M  V30 41 H -10.2901 -1.6159 0.9399 0
M  V30 42 H -4.2329 -0.5601 -1.3125 0
M  V30 43 H -8.3396 0.147 -2.4636 0
M  V30 44 H -8.8549 -1.5541 -2.6225 0
M  V30 45 H -10.3146 -0.2081 -1.1162 0
M  V30 46 H -8.9473 0.1596 -0.0417 0
M  V30 47 H -3.5888 0.7338 2.0316 0
M  V30 48 H -2.7647 1.3325 -2.1581 0
M  V30 49 H -1.7807 2.2825 2.6114 0
M  V30 50 H -0.9358 2.8714 -1.5751 0
M  V30 51 H -0.2913 4.1048 1.9101 0
M  V30 52 H -0.0608 4.4724 0.186 0
M  V30 53 H 1.778 3.4608 -1.0557 0
M  V30 54 H 0.9051 2.1078 2.9436 0
M  V30 55 H 3.8871 2.2204 -1.0194 0
M  V30 56 H 3.0075 0.8323 2.9698 0
M  V30 57 H 5.2795 0.5697 1.9478 0
M  V30 58 H 7.6983 -0.1028 1.7433 0
M  V30 59 H 6.4554 -1.3868 1.9166 0
M  V30 60 H 7.5865 -2.7004 -1.5253 0
M  V30 61 H 8.3624 -1.7508 -2.8207 0
M  V30 62 H 7.9069 -3.0483 0.7663 0
M  V30 63 H 8.6106 -2.3616 2.2494 0
M  V30 64 H 9.9231 -3.0334 -1.2119 0
M  V30 65 H 10.3296 -1.3235 -1.5494 0
M  V30 66 H 9.7949 -0.5967 0.6219 0
M  V30 67 H 10.4807 -2.2145 0.9064 0
M  V30 END ATOM
M  V30 BEGIN BOND
M  V30 1 2 1 2
M  V30 2 1 2 3
M  V30 3 1 2 4
M  V30 4 1 3 5
M  V30 5 1 3 6
M  V30 6 1 4 7
M  V30 7 2 5 8
M  V30 8 1 5 9
M  V30 9 1 6 10
M  V30 10 1 7 11
M  V30 11 1 9 12
M  V30 12 2 12 13
M  V30 13 1 12 14
M  V30 14 1 13 15
M  V30 15 2 14 16
M  V30 16 2 15 17
M  V30 17 1 17 18
M  V30 18 1 18 19
M  V30 19 2 19 20
M  V30 20 1 19 21
M  V30 21 1 20 22
M  V30 22 2 21 23
M  V30 23 2 22 24
M  V30 24 1 24 25
M  V30 25 1 25 26
M  V30 26 2 26 27
M  V30 27 1 26 28
M  V30 28 1 28 29
M  V30 29 1 28 30
M  V30 30 2 29 31
M  V30 31 1 29 32
M  V30 32 1 30 33
M  V30 33 1 32 34
M  V30 34 1 33 35
M  V30 35 1 10 11
M  V30 36 1 16 17
M  V30 37 1 23 24
M  V30 38 1 34 35
M  V30 39 1 4 36
M  V30 40 1 4 37
M  V30 41 1 6 38
M  V30 42 1 6 39
M  V30 43 1 7 40
M  V30 44 1 7 41
M  V30 45 1 9 42
M  V30 46 1 10 43
M  V30 47 1 10 44
M  V30 48 1 11 45
M  V30 49 1 11 46
M  V30 50 1 13 47
M  V30 51 1 14 48
M  V30 52 1 15 49
M  V30 53 1 16 50
M  V30 54 1 18 51
M  V30 55 1 18 52
M  V30 56 1 20 53
M  V30 57 1 21 54
M  V30 58 1 22 55
M  V30 59 1 23 56
M  V30 60 1 25 57
M  V30 61 1 30 58
M  V30 62 1 30 59
M  V30 63 1 32 60
M  V30 64 1 32 61
M  V30 65 1 33 62
M  V30 66 1 33 63
M  V30 67 1 34 64
M  V30 68 1 34 65
M  V30 69 1 35 66
M  V30 70 1 35 67
M  V30 END BOND
M  V30 END CTAB
M  END
>  <Structure No>
2678

>  <LogS>
-7.763261262

>  <MMFF94 Energy>
-93.024

$$$$
Compound 2679
Actelion Java MolfileCreator 2.0

  0  0  0  0  0  0              0 V3000
M  V30 BEGIN CTAB
M  V30 COUNTS 38 40 0 0 0
M  V30 BEGIN ATOM
M  V30 1 S 2.5179 -3.0058 -0.4869 0
M  V30 2 C 0.8636 -2.3347 -0.6508 0
M  V30 3 C 3.2539 -1.3835 -0.2848 0
M  V30 4 C 0.0663 -2.1508 0.4835 0
M  V30 5 C 0.3659 -1.9967 -1.9135 0
M  V30 6 C 3.691 -0.6671 -1.4048 0
M  V30 7 C 3.3862 -0.8277 0.9929 0
M  V30 8 C -1.2189 -1.6161 0.3589 0
M  V30 9 C -0.9195 -1.4625 -2.0414 0
M  V30 10 C 4.2561 0.6021 -1.249 0
M  V30 11 C 3.9509 0.4414 1.1507 0
M  V30 12 C -1.7195 -1.2517 -0.9045 0
M  V30 13 C 4.4029 1.1584 0.0316 0
M  V30 14 C -3.0858 -0.6948 -1.0525 0
M  V30 15 C 4.9707 2.5369 0.1961 0
M  V30 16 O -3.7441 -0.9674 -2.0935 0
M  V30 17 C -3.7053 0.1724 -0.0209 0
M  V30 18 C -2.9241 1.0551 0.7488 0
M  V30 19 C -5.0989 0.154 0.1686 0
M  V30 20 C -3.5239 1.8797 1.7056 0
M  V30 21 C -5.694 0.9806 1.127 0
M  V30 22 C -4.907 1.8405 1.8967 0
M  V30 23 H 0.4414 -2.4211 1.4624 0
M  V30 24 H 0.976 -2.142 -2.7958 0
M  V30 25 H 3.5852 -1.0887 -2.3963 0
M  V30 26 H 3.044 -1.3739 1.8627 0
M  V30 27 H -1.8255 -1.4998 1.2483 0
M  V30 28 H -1.2841 -1.2008 -3.027 0
M  V30 29 H 4.5783 1.1505 -2.1256 0
M  V30 30 H 4.0354 0.8646 2.1441 0
M  V30 31 H 5.4852 2.6342 1.1758 0
M  V30 32 H 4.1503 3.2826 0.1421 0
M  V30 33 H 5.7108 2.7536 -0.6032 0
M  V30 34 H -1.8536 1.1191 0.6008 0
M  V30 35 H -5.7256 -0.5077 -0.4163 0
M  V30 36 H -2.9163 2.5541 2.295 0
M  V30 37 H -6.7662 0.9546 1.2725 0
M  V30 38 H -5.3695 2.4803 2.6371 0
M  V30 END ATOM
M  V30 BEGIN BOND
M  V30 1 1 1 2
M  V30 2 1 1 3
M  V30 3 2 2 4
M  V30 4 1 2 5
M  V30 5 2 3 6
M  V30 6 1 3 7
M  V30 7 1 4 8
M  V30 8 2 5 9
M  V30 9 1 6 10
M  V30 10 2 7 11
M  V30 11 2 8 12
M  V30 12 2 10 13
M  V30 13 1 12 14
M  V30 14 1 13 15
M  V30 15 2 14 16
M  V30 16 1 14 17
M  V30 17 2 17 18
M  V30 18 1 17 19
M  V30 19 1 18 20
M  V30 20 2 19 21
M  V30 21 2 20 22
M  V30 22 1 9 12
M  V30 23 1 11 13
M  V30 24 1 21 22
M  V30 25 1 4 23
M  V30 26 1 5 24
M  V30 27 1 6 25
M  V30 28 1 7 26
M  V30 29 1 8 27
M  V30 30 1 9 28
M  V30 31 1 10 29
M  V30 32 1 11 30
M  V30 33 1 15 31
M  V30 34 1 15 32
M  V30 35 1 15 33
M  V30 36 1 18 34
M  V30 37 1 19 35
M  V30 38 1 20 36
M  V30 39 1 21 37
M  V30 40 1 22 38
M  V30 END BOND
M  V30 END CTAB
M  END
>  <Structure No>
2679

>  <LogS>
-7.61540826

>  <MMFF94 Energy>
91.456

$$$$
Compound 2680
Actelion Java MolfileCreator 2.0

  0  0  0  0  0  0              0 V3000
M  V30 BEGIN CTAB
M  V30 COUNTS 59 58 0 0 0
M  V30 BEGIN ATOM
M  V30 1 S 0.648 -1.0532 0.2429 0
M  V30 2 S 1.3891 0.7508 -0.6409 0
M  V30 3 S -1.0829 -0.0745 1.0389 0
M  V30 4 C 2.6976 1.1802 0.6005 0
M  V30 5 C -2.3851 -0.6866 -0.1419 0
M  V30 6 C 3.821 0.0477 0.7433 0 CFG=1
M  V30 7 C 3.2807 2.5428 0.1708 0
M  V30 8 C 1.9655 1.4174 1.9471 0
M  V30 9 C -3.7864 -0.1903 0.444 0 CFG=1
M  V30 10 C -2.0559 -0.0888 -1.5218 0
M  V30 11 C -2.3005 -2.2333 -0.2224 0
M  V30 12 C 4.7847 -0.2789 -0.4954 0
M  V30 13 C 4.6388 0.2326 2.0542 0
M  V30 14 C -5.0746 -0.05 -0.5028 0
M  V30 15 C -4.1136 -0.9644 1.7539 0
M  V30 16 C 5.9894 0.6918 -0.5944 0
M  V30 17 C 5.3633 -1.7135 -0.3333 0
M  V30 18 C 4.0525 -0.2815 -1.8569 0
M  V30 19 C -6.3303 0.2845 0.3528 0
M  V30 20 C -4.9312 1.1306 -1.5045 0
M  V30 21 C -5.3978 -1.3385 -1.2892 0
M  V30 22 H 3.2546 -0.8879 0.9233 0
M  V30 23 H 4.1313 2.8459 0.8141 0
M  V30 24 H 3.6052 2.5395 -0.8855 0
M  V30 25 H 2.506 3.3369 0.2467 0
M  V30 26 H 1.653 0.459 2.4111 0
M  V30 27 H 2.6131 1.9573 2.6711 0
M  V30 28 H 1.0592 2.0439 1.799 0
M  V30 29 H -3.5966 0.8505 0.7917 0
M  V30 30 H -1.019 -0.3263 -1.8263 0
M  V30 31 H -2.1505 1.017 -1.5039 0
M  V30 32 H -2.6835 -0.5301 -2.3167 0
M  V30 33 H -2.2026 -2.6804 0.7888 0
M  V30 34 H -3.1879 -2.6776 -0.7037 0
M  V30 35 H -1.4231 -2.5607 -0.8175 0
M  V30 36 H 5.0988 1.2397 2.1066 0
M  V30 37 H 5.4458 -0.5144 2.1602 0
M  V30 38 H 3.9987 0.087 2.9483 0
M  V30 39 H -3.2109 -1.1357 2.3741 0
M  V30 40 H -4.8044 -0.3847 2.4005 0
M  V30 41 H -4.5662 -1.9523 1.5309 0
M  V30 42 H 5.6755 1.7402 -0.7389 0
M  V30 43 H 6.6301 0.6414 0.3102 0
M  V30 44 H 6.6337 0.4231 -1.4598 0
M  V30 45 H 6.0443 -1.8025 0.5351 0
M  V30 46 H 5.9616 -2.0053 -1.2242 0
M  V30 47 H 4.5475 -2.4595 -0.2183 0
M  V30 48 H 4.7339 -0.6106 -2.6716 0
M  V30 49 H 3.704 0.7265 -2.1467 0
M  V30 50 H 3.1977 -0.99 -1.8415 0
M  V30 51 H -6.6303 -0.5715 0.9937 0
M  V30 52 H -7.2125 0.5075 -0.2861 0
M  V30 53 H -6.1416 1.1716 0.9956 0
M  V30 54 H -5.9186 1.4352 -1.9147 0
M  V30 55 H -4.4874 2.022 -1.0121 0
M  V30 56 H -4.3358 0.8735 -2.3973 0
M  V30 57 H -6.355 -1.2239 -1.8432 0
M  V30 58 H -5.5097 -2.206 -0.6064 0
M  V30 59 H -4.6255 -1.5681 -2.0464 0
M  V30 END ATOM
M  V30 BEGIN BOND
M  V30 1 1 1 2
M  V30 2 1 1 3
M  V30 3 1 2 4
M  V30 4 1 3 5
M  V30 5 1 4 6
M  V30 6 1 4 7
M  V30 7 1 4 8
M  V30 8 1 5 9
M  V30 9 1 5 10
M  V30 10 1 5 11
M  V30 11 1 6 12
M  V30 12 1 6 13
M  V30 13 1 9 14
M  V30 14 1 9 15
M  V30 15 1 12 16
M  V30 16 1 12 17
M  V30 17 1 12 18
M  V30 18 1 14 19
M  V30 19 1 14 20
M  V30 20 1 14 21
M  V30 21 1 6 22
M  V30 22 1 7 23
M  V30 23 1 7 24
M  V30 24 1 7 25
M  V30 25 1 8 26
M  V30 26 1 8 27
M  V30 27 1 8 28
M  V30 28 1 9 29
M  V30 29 1 10 30
M  V30 30 1 10 31
M  V30 31 1 10 32
M  V30 32 1 11 33
M  V30 33 1 11 34
M  V30 34 1 11 35
M  V30 35 1 13 36
M  V30 36 1 13 37
M  V30 37 1 13 38
M  V30 38 1 15 39
M  V30 39 1 15 40
M  V30 40 1 15 41
M  V30 41 1 16 42
M  V30 42 1 16 43
M  V30 43 1 16 44
M  V30 44 1 17 45
M  V30 45 1 17 46
M  V30 46 1 17 47
M  V30 47 1 18 48
M  V30 48 1 18 49
M  V30 49 1 18 50
M  V30 50 1 19 51
M  V30 51 1 19 52
M  V30 52 1 19 53
M  V30 53 1 20 54
M  V30 54 1 20 55
M  V30 55 1 20 56
M  V30 56 1 21 57
M  V30 57 1 21 58
M  V30 58 1 21 59
M  V30 END BOND
M  V30 BEGIN COLLECTION
M  V30 MDLV30/STEABS ATOMS=(2 6 9)
M  V30 END COLLECTION
M  V30 END CTAB
M  END
>  <Structure No>
2680

>  <LogS>
-9.129966133

>  <MMFF94 Energy>
76.561

$$$$
Compound 2681
Actelion Java MolfileCreator 2.0

  0  0  0  0  0  0              0 V3000
M  V30 BEGIN CTAB
M  V30 COUNTS 4 3 0 0 0
M  V30 BEGIN ATOM
M  V30 1 O 1.249 0.0 0.0 0
M  V30 2 N 0.0025 0.0254 -0.018 0 CHG=1
M  V30 3 O -0.7085 -1.1503 -0.0286 0 CHG=-1
M  V30 4 O -0.6601 1.2292 -0.0271 0 CHG=-1
M  V30 END ATOM
M  V30 BEGIN BOND
M  V30 1 2 1 2
M  V30 2 1 2 3
M  V30 3 1 2 4
M  V30 END BOND
M  V30 END CTAB
M  END
>  <Structure No>
2681

>  <LogS>
0.721755153

>  <MMFF94 Energy>
6.4146

$$$$
Compound 2682
Actelion Java MolfileCreator 2.0

  0  0  0  0  0  0              0 V3000
M  V30 BEGIN CTAB
M  V30 COUNTS 31 30 0 0 0
M  V30 BEGIN ATOM
M  V30 1 O 2.5155 2.5155 0.6284 0
M  V30 2 C 2.8266 1.5459 -0.1123 0
M  V30 3 O 3.4595 1.7849 -1.3256 0 CHG=-1
M  V30 4 C 2.5017 0.1387 0.305 0
M  V30 5 C 1.1194 -0.3765 -0.2138 0
M  V30 6 C -0.01 0.5658 0.354 0
M  V30 7 C 1.1459 -0.374 -1.7637 0
M  V30 8 C 0.9769 -1.8309 0.2799 0
M  V30 9 C -1.5362 0.1816 0.3367 0
M  V30 10 C -2.0172 -0.3261 -1.0359 0
M  V30 11 C -1.886 -0.8562 1.4298 0
M  V30 12 C -2.3337 1.4688 0.6622 0
M  V30 13 H 2.5327 0.0824 1.4161 0
M  V30 14 H 3.3191 -0.5208 -0.0613 0
M  V30 15 H 0.0924 1.536 -0.1809 0
M  V30 16 H 0.2442 0.802 1.4119 0
M  V30 17 H 2.0949 -0.8149 -2.138 0
M  V30 18 H 0.3313 -0.9805 -2.2007 0
M  V30 19 H 1.0643 0.6583 -2.1647 0
M  V30 20 H 0.8572 -1.8606 1.3841 0
M  V30 21 H 1.8812 -2.4232 0.0201 0
M  V30 22 H 0.1253 -2.3464 -0.2037 0
M  V30 23 H -3.1271 -0.3819 -1.0644 0
M  V30 24 H -1.6502 -1.3496 -1.2426 0
M  V30 25 H -1.689 0.3608 -1.8449 0
M  V30 26 H -1.5465 -1.8753 1.1722 0
M  V30 27 H -2.9875 -0.9268 1.5633 0
M  V30 28 H -1.4422 -0.5678 2.4067 0
M  V30 29 H -2.1619 2.2481 -0.1118 0
M  V30 30 H -3.4266 1.2677 0.7008 0
M  V30 31 H -2.0263 1.883 1.6472 0
M  V30 END ATOM
M  V30 BEGIN BOND
M  V30 1 2 1 2
M  V30 2 1 2 3
M  V30 3 1 2 4
M  V30 4 1 4 5
M  V30 5 1 5 6
M  V30 6 1 5 7
M  V30 7 1 5 8
M  V30 8 1 6 9
M  V30 9 1 9 10
M  V30 10 1 9 11
M  V30 11 1 9 12
M  V30 12 1 4 13
M  V30 13 1 4 14
M  V30 14 1 6 15
M  V30 15 1 6 16
M  V30 16 1 7 17
M  V30 17 1 7 18
M  V30 18 1 7 19
M  V30 19 1 8 20
M  V30 20 1 8 21
M  V30 21 1 8 22
M  V30 22 1 10 23
M  V30 23 1 10 24
M  V30 24 1 10 25
M  V30 25 1 11 26
M  V30 26 1 11 27
M  V30 27 1 11 28
M  V30 28 1 12 29
M  V30 29 1 12 30
M  V30 30 1 12 31
M  V30 END BOND
M  V30 END CTAB
M  END
>  <Structure No>
2682

>  <LogS>
-1.698832456

>  <MMFF94 Energy>
39.71

$$$$
Compound 2683
Actelion Java MolfileCreator 2.0

  0  0  0  0  0  0              0 V3000
M  V30 BEGIN CTAB
M  V30 COUNTS 16 15 0 0 0
M  V30 BEGIN ATOM
M  V30 1 O -2.4085 0.0751 -0.3008 0
M  V30 2 C -1.1981 -0.5541 -0.6253 0
M  V30 3 C -0.0452 -0.0075 0.2401 0
M  V30 4 N 0.1428 1.4312 0.0056 0 CHG=1
M  V30 5 C 1.2538 -0.7824 -0.0582 0
M  V30 6 O 2.2915 -0.3621 0.7863 0
M  V30 7 H -2.7016 -0.304 0.5686 0
M  V30 8 H -1.2977 -1.655 -0.485 0
M  V30 9 H -0.9805 -0.3719 -1.6996 0
M  V30 10 H -0.3078 -0.1684 1.3105 0
M  V30 11 H 0.9054 1.7984 0.6197 0
M  V30 12 H -0.7335 1.9509 0.2407 0
M  V30 13 H 0.3909 1.6113 -0.9947 0
M  V30 14 H 1.5612 -0.6085 -1.1117 0
M  V30 15 H 1.0875 -1.877 0.0667 0
M  V30 16 H 2.1052 -0.7514 1.6805 0
M  V30 END ATOM
M  V30 BEGIN BOND
M  V30 1 1 1 2
M  V30 2 1 2 3
M  V30 3 1 3 4
M  V30 4 1 3 5
M  V30 5 1 5 6
M  V30 6 1 1 7
M  V30 7 1 2 8
M  V30 8 1 2 9
M  V30 9 1 3 10
M  V30 10 1 4 11
M  V30 11 1 4 12
M  V30 12 1 4 13
M  V30 13 1 5 14
M  V30 14 1 5 15
M  V30 15 1 6 16
M  V30 END BOND
M  V30 END CTAB
M  END
>  <Structure No>
2683

>  <LogS>
0.974427117

>  <MMFF94 Energy>
30.23

$$$$
Compound 2684
Actelion Java MolfileCreator 2.0

  0  0  0  0  0  0              0 V3000
M  V30 BEGIN CTAB
M  V30 COUNTS 5 4 0 0 0
M  V30 BEGIN ATOM
M  V30 1 S 0.0 0.0 0.0 0
M  V30 2 O 1.0441 -0.0407 -1.0792 0
M  V30 3 O 0.67 0.0198 1.3443 0
M  V30 4 O -0.9797 -1.3589 -0.1172 0 CHG=-1
M  V30 5 O -0.9366 1.3825 -0.1791 0 CHG=-1
M  V30 END ATOM
M  V30 BEGIN BOND
M  V30 1 2 1 2
M  V30 2 2 1 3
M  V30 3 1 1 4
M  V30 4 1 1 5
M  V30 END BOND
M  V30 END CTAB
M  END
>  <Structure No>
2684

>  <LogS>
-1.58498354

>  <MMFF94 Energy>
27.585

$$$$
Compound 2685
Actelion Java MolfileCreator 2.0

  0  0  0  0  0  0              0 V3000
M  V30 BEGIN CTAB
M  V30 COUNTS 20 19 0 0 0
M  V30 BEGIN ATOM
M  V30 1 O -0.4568 -2.3623 0.2284 0
M  V30 2 C -1.0441 -1.1529 -0.1697 0
M  V30 3 C -0.0599 0.0353 0.0054 0
M  V30 4 N 0.3742 0.1248 1.4138 0 CHG=1
M  V30 5 C 1.1699 -0.1388 -0.9307 0
M  V30 6 C -0.8089 1.3366 -0.3863 0
M  V30 7 O 1.9034 -1.2941 -0.6174 0
M  V30 8 O 0.0152 2.4588 -0.218 0
M  V30 9 H -1.1419 -3.0647 0.0794 0
M  V30 10 H -1.3584 -1.228 -1.2358 0
M  V30 11 H -1.9562 -0.975 0.4445 0
M  V30 12 H -0.4461 0.31 2.0366 0
M  V30 13 H 1.0668 0.8991 1.5373 0
M  V30 14 H 0.8241 -0.7656 1.7262 0
M  V30 15 H 0.8264 -0.2222 -1.9844 0
M  V30 16 H 1.8304 0.7582 -0.8804 0
M  V30 17 H -1.7169 1.454 0.2483 0
M  V30 18 H -1.1396 1.2774 -1.4485 0
M  V30 19 H 2.5743 -1.035 0.067 0
M  V30 20 H -0.5272 3.2439 -0.4911 0
M  V30 END ATOM
M  V30 BEGIN BOND
M  V30 1 1 1 2
M  V30 2 1 2 3
M  V30 3 1 3 4
M  V30 4 1 3 5
M  V30 5 1 3 6
M  V30 6 1 5 7
M  V30 7 1 6 8
M  V30 8 1 1 9
M  V30 9 1 2 10
M  V30 10 1 2 11
M  V30 11 1 4 12
M  V30 12 1 4 13
M  V30 13 1 4 14
M  V30 14 1 5 15
M  V30 15 1 5 16
M  V30 16 1 6 17
M  V30 17 1 6 18
M  V30 18 1 7 19
M  V30 19 1 8 20
M  V30 END BOND
M  V30 END CTAB
M  END
>  <Structure No>
2685

>  <LogS>
0.790628369

>  <MMFF94 Energy>
51.262

$$$$
Compound 2686
Actelion Java MolfileCreator 2.0

  0  0  0  0  0  0              0 V3000
M  V30 BEGIN CTAB
M  V30 COUNTS 23 22 0 0 0
M  V30 BEGIN ATOM
M  V30 1 N 0.0 -0.4565 0.6087 0 CHG=1
M  V30 2 C -0.8581 -0.9401 -0.5046 0
M  V30 3 C 1.4012 -0.9408 0.495 0
M  V30 4 C -0.0984 1.003 0.9085 0
M  V30 5 C -2.3502 -0.8805 -0.1558 0
M  V30 6 C 2.1968 -0.3444 -0.6704 0
M  V30 7 C -0.2354 1.9327 -0.3107 0
M  V30 8 H -0.3538 -0.9381 1.471 0
M  V30 9 H -0.6247 -2.0048 -0.731 0
M  V30 10 H -0.6746 -0.3751 -1.4419 0
M  V30 11 H 1.952 -0.7259 1.4387 0
M  V30 12 H 1.4077 -2.0493 0.39 0
M  V30 13 H 0.7819 1.3349 1.5031 0
M  V30 14 H -0.9814 1.1862 1.5617 0
M  V30 15 H -2.9456 -1.2621 -1.0119 0
M  V30 16 H -2.5637 -1.5148 0.7305 0
M  V30 17 H -2.6729 0.1583 0.0576 0
M  V30 18 H 3.155 -0.8958 -0.7739 0
M  V30 19 H 2.449 0.7163 -0.4669 0
M  V30 20 H 1.647 -0.436 -1.6288 0
M  V30 21 H -1.2425 1.8433 -0.7665 0
M  V30 22 H 0.5266 1.7314 -1.0854 0
M  V30 23 H -0.1156 2.9855 0.021 0
M  V30 END ATOM
M  V30 BEGIN BOND
M  V30 1 1 1 2
M  V30 2 1 1 3
M  V30 3 1 1 4
M  V30 4 1 2 5
M  V30 5 1 3 6
M  V30 6 1 4 7
M  V30 7 1 1 8
M  V30 8 1 2 9
M  V30 9 1 2 10
M  V30 10 1 3 11
M  V30 11 1 3 12
M  V30 12 1 4 13
M  V30 13 1 4 14
M  V30 14 1 5 15
M  V30 15 1 5 16
M  V30 16 1 5 17
M  V30 17 1 6 18
M  V30 18 1 6 19
M  V30 19 1 6 20
M  V30 20 1 7 21
M  V30 21 1 7 22
M  V30 22 1 7 23
M  V30 END BOND
M  V30 END CTAB
M  END
>  <Structure No>
2686

>  <LogS>
0.595197285

>  <MMFF94 Energy>
8.5126

$$$$
Compound 2687
Actelion Java MolfileCreator 2.0

  0  0  0  0  0  0              0 V3000
M  V30 BEGIN CTAB
M  V30 COUNTS 29 28 0 0 0
M  V30 BEGIN ATOM
M  V30 1 O -2.3129 -2.2358 0.6934 0
M  V30 2 C -0.9797 -2.4479 0.3118 0
M  V30 3 C -0.5552 -1.4665 -0.8113 0
M  V30 4 N -0.0323 -0.1292 -0.3596 0 CHG=1
M  V30 5 C 1.2078 -0.3452 0.4746 0
M  V30 6 C -1.116 0.5631 0.4157 0
M  V30 7 C 0.2505 0.6242 -1.6148 0
M  V30 8 C 2.3114 0.7357 0.3978 0
M  V30 9 C -0.7756 1.9699 0.9487 0
M  V30 10 O 3.07 0.5762 -0.7697 0
M  V30 11 O -1.8933 2.5137 1.5977 0
M  V30 12 H -2.8813 -2.6162 -0.026 0
M  V30 13 H -0.8647 -3.4931 -0.0565 0
M  V30 14 H -0.3319 -2.3628 1.2057 0
M  V30 15 H 0.2206 -1.9865 -1.4204 0
M  V30 16 H -1.4242 -1.3382 -1.4984 0
M  V30 17 H 1.7056 -1.3068 0.2115 0
M  V30 18 H 0.9312 -0.4512 1.5477 0
M  V30 19 H -1.3916 -0.0333 1.3111 0
M  V30 20 H -2.036 0.6441 -0.2078 0
M  V30 21 H 0.661 1.635 -1.4331 0
M  V30 22 H -0.6752 0.7647 -2.2172 0
M  V30 23 H 0.9847 0.0809 -2.2506 0
M  V30 24 H 1.9011 1.7637 0.4506 0
M  V30 25 H 2.983 0.6069 1.2761 0
M  V30 26 H -0.4535 2.6581 0.1396 0
M  V30 27 H 0.0362 1.8984 1.6996 0
M  V30 28 H 3.7523 1.2968 -0.7572 0
M  V30 29 H -2.5174 2.8165 0.8872 0
M  V30 END ATOM
M  V30 BEGIN BOND
M  V30 1 1 1 2
M  V30 2 1 2 3
M  V30 3 1 3 4
M  V30 4 1 4 5
M  V30 5 1 4 6
M  V30 6 1 4 7
M  V30 7 1 5 8
M  V30 8 1 6 9
M  V30 9 1 8 10
M  V30 10 1 9 11
M  V30 11 1 1 12
M  V30 12 1 2 13
M  V30 13 1 2 14
M  V30 14 1 3 15
M  V30 15 1 3 16
M  V30 16 1 5 17
M  V30 17 1 5 18
M  V30 18 1 6 19
M  V30 19 1 6 20
M  V30 20 1 7 21
M  V30 21 1 7 22
M  V30 22 1 7 23
M  V30 23 1 8 24
M  V30 24 1 8 25
M  V30 25 1 9 26
M  V30 26 1 9 27
M  V30 27 1 10 28
M  V30 28 1 11 29
M  V30 END BOND
M  V30 END CTAB
M  END
>  <Structure No>
2687

>  <LogS>
0.39266642

>  <MMFF94 Energy>
95.927

$$$$
Compound 2688
Actelion Java MolfileCreator 2.0

  0  0  0  0  0  0              0 V3000
M  V30 BEGIN CTAB
M  V30 COUNTS 77 78 0 0 0
M  V30 BEGIN ATOM
M  V30 1 S -6.8433 -0.5689 -1.6261 0
M  V30 2 O -6.4486 -2.0023 -1.8411 0
M  V30 3 O -7.9148 -0.2275 -2.6236 0
M  V30 4 O -7.4674 -0.367 -0.0803 0 CHG=-1
M  V30 5 C -5.4419 0.4853 -1.8688 0
M  V30 6 C -4.1302 0.1362 -1.4458 0
M  V30 7 C -5.6268 1.6624 -2.6156 0
M  V30 8 O -3.841 -0.958 -0.6135 0
M  V30 9 C -3.0437 0.9106 -1.8791 0
M  V30 10 C -4.5367 2.4513 -2.9868 0
M  V30 11 C -4.5693 -1.3614 0.5173 0
M  V30 12 C -3.2454 2.0661 -2.6345 0
M  V30 13 C -4.9389 -0.4796 1.5778 0
M  V30 14 C -4.8906 -2.7195 0.6021 0
M  V30 15 C -5.7797 -0.9795 2.6164 0
M  V30 16 C -4.3251 0.9079 1.6902 0
M  V30 17 C -5.6584 -3.2063 1.6528 0
M  V30 18 S -6.4932 0.0704 3.8599 0
M  V30 19 C -6.1222 -2.3404 2.6363 0
M  V30 20 C -3.0422 0.9205 2.546 0
M  V30 21 O -5.4231 0.6674 4.7277 0
M  V30 22 O -7.4314 -0.7154 4.7328 0
M  V30 23 O -7.3716 1.2964 3.1195 0 CHG=-1
M  V30 24 C -1.8338 0.253 1.8617 0
M  V30 25 C -1.614 -1.1939 2.3323 0
M  V30 26 C -0.6626 -1.9837 1.4163 0
M  V30 27 C 0.7936 -1.4743 1.4492 0
M  V30 28 C 1.1218 -0.5507 0.2607 0
M  V30 29 C 2.5059 0.1064 0.3879 0
M  V30 30 C 3.6497 -0.8621 0.0426 0
M  V30 31 C 5.0392 -0.2516 0.2878 0
M  V30 32 C 5.4036 0.8318 -0.7424 0
M  V30 33 C 6.7933 1.447 -0.4921 0
M  V30 34 C 7.9793 0.474 -0.655 0
M  V30 35 C 8.0763 -0.2151 -2.0314 0
M  V30 36 C 8.1628 0.7458 -3.2315 0
M  V30 37 C 9.3972 1.6476 -3.1866 0
M  V30 38 H -6.616 1.9621 -2.9368 0
M  V30 39 H -2.0353 0.63 -1.6034 0
M  V30 40 H -4.6929 3.3504 -3.57 0
M  V30 41 H -2.3987 2.6671 -2.9408 0
M  V30 42 H -4.5626 -3.3992 -0.1743 0
M  V30 43 H -5.0504 1.6138 2.1384 0
M  V30 44 H -4.1081 1.3592 0.709 0
M  V30 45 H -5.9177 -4.2565 1.691 0
M  V30 46 H -6.7495 -2.7422 3.421 0
M  V30 47 H -2.784 1.9859 2.7344 0
M  V30 48 H -3.2252 0.4621 3.5402 0
M  V30 49 H -0.9231 0.8384 2.1135 0
M  V30 50 H -1.9515 0.2886 0.7614 0
M  V30 51 H -1.2184 -1.1904 3.3712 0
M  V30 52 H -2.5822 -1.7333 2.3621 0
M  V30 53 H -1.0594 -2.0013 0.3776 0
M  V30 54 H -0.6677 -3.0373 1.771 0
M  V30 55 H 1.4666 -2.357 1.4047 0
M  V30 56 H 1.0005 -0.9548 2.4108 0
M  V30 57 H 0.3696 0.2608 0.2 0
M  V30 58 H 1.0603 -1.1245 -0.6903 0
M  V30 59 H 2.5348 0.9658 -0.3154 0
M  V30 60 H 2.6399 0.5097 1.4163 0
M  V30 61 H 3.5682 -1.7686 0.6786 0
M  V30 62 H 3.5629 -1.1859 -1.0179 0
M  V30 63 H 5.0897 0.1688 1.3164 0
M  V30 64 H 5.7769 -1.0786 0.223 0
M  V30 65 H 5.3399 0.4212 -1.7719 0
M  V30 66 H 4.6679 1.6603 -0.6767 0
M  V30 67 H 6.9298 2.3094 -1.178 0
M  V30 68 H 6.8207 1.863 0.5386 0
M  V30 69 H 7.9265 -0.3096 0.13 0
M  V30 70 H 8.921 1.0303 -0.458 0
M  V30 71 H 8.9768 -0.868 -2.0319 0
M  V30 72 H 7.2049 -0.8901 -2.1714 0
M  V30 73 H 7.2465 1.3672 -3.3022 0
M  V30 74 H 8.2119 0.1349 -4.1593 0
M  V30 75 H 9.4855 2.2017 -4.1455 0
M  V30 76 H 10.3169 1.0425 -3.042 0
M  V30 77 H 9.3095 2.3906 -2.3664 0
M  V30 END ATOM
M  V30 BEGIN BOND
M  V30 1 2 1 2
M  V30 2 2 1 3
M  V30 3 1 1 4
M  V30 4 1 1 5
M  V30 5 2 5 6
M  V30 6 1 5 7
M  V30 7 1 6 8
M  V30 8 1 6 9
M  V30 9 2 7 10
M  V30 10 1 8 11
M  V30 11 2 9 12
M  V30 12 2 11 13
M  V30 13 1 11 14
M  V30 14 1 13 15
M  V30 15 1 13 16
M  V30 16 2 14 17
M  V30 17 1 15 18
M  V30 18 2 15 19
M  V30 19 1 16 20
M  V30 20 2 18 21
M  V30 21 2 18 22
M  V30 22 1 18 23
M  V30 23 1 20 24
M  V30 24 1 24 25
M  V30 25 1 25 26
M  V30 26 1 26 27
M  V30 27 1 27 28
M  V30 28 1 28 29
M  V30 29 1 29 30
M  V30 30 1 30 31
M  V30 31 1 31 32
M  V30 32 1 32 33
M  V30 33 1 33 34
M  V30 34 1 34 35
M  V30 35 1 35 36
M  V30 36 1 36 37
M  V30 37 1 10 12
M  V30 38 1 17 19
M  V30 39 1 7 38
M  V30 40 1 9 39
M  V30 41 1 10 40
M  V30 42 1 12 41
M  V30 43 1 14 42
M  V30 44 1 16 43
M  V30 45 1 16 44
M  V30 46 1 17 45
M  V30 47 1 19 46
M  V30 48 1 20 47
M  V30 49 1 20 48
M  V30 50 1 24 49
M  V30 51 1 24 50
M  V30 52 1 25 51
M  V30 53 1 25 52
M  V30 54 1 26 53
M  V30 55 1 26 54
M  V30 56 1 27 55
M  V30 57 1 27 56
M  V30 58 1 28 57
M  V30 59 1 28 58
M  V30 60 1 29 59
M  V30 61 1 29 60
M  V30 62 1 30 61
M  V30 63 1 30 62
M  V30 64 1 31 63
M  V30 65 1 31 64
M  V30 66 1 32 65
M  V30 67 1 32 66
M  V30 68 1 33 67
M  V30 69 1 33 68
M  V30 70 1 34 69
M  V30 71 1 34 70
M  V30 72 1 35 71
M  V30 73 1 35 72
M  V30 74 1 36 73
M  V30 75 1 36 74
M  V30 76 1 37 75
M  V30 77 1 37 76
M  V30 78 1 37 77
M  V30 END BOND
M  V30 END CTAB
M  END
>  <Structure No>
2688

>  <LogS>
0.222765354

>  <MMFF94 Energy>
129.4

$$$$
Compound 2689
Actelion Java MolfileCreator 2.0

  0  0  0  0  0  0              0 V3000
M  V30 BEGIN CTAB
M  V30 COUNTS 14 13 0 0 0
M  V30 BEGIN ATOM
M  V30 1 S 0.0889 1.3355 0.267 0
M  V30 2 S 0.0597 -0.0028 -1.4017 0
M  V30 3 C 1.2922 0.3513 1.2192 0
M  V30 4 C -1.3974 -0.9291 -0.8172 0
M  V30 5 C 2.668 0.5466 0.6709 0
M  V30 6 C -2.6426 -0.1403 -1.0602 0
M  V30 7 O 3.1953 -0.3397 -0.0511 0
M  V30 8 O 3.3584 1.7236 0.9304 0 CHG=-1
M  V30 9 O -3.2075 0.463 -0.1103 0
M  V30 10 O -3.1638 -0.0436 -2.3441 0 CHG=-1
M  V30 11 H 1.0135 -0.7239 1.2076 0
M  V30 12 H 1.2732 0.6969 2.2737 0
M  V30 13 H -1.4591 -1.8816 -1.3834 0
M  V30 14 H -1.2947 -1.1792 0.2603 0
M  V30 END ATOM
M  V30 BEGIN BOND
M  V30 1 1 1 2
M  V30 2 1 1 3
M  V30 3 1 2 4
M  V30 4 1 3 5
M  V30 5 1 4 6
M  V30 6 2 5 7
M  V30 7 1 5 8
M  V30 8 2 6 9
M  V30 9 1 6 10
M  V30 10 1 3 11
M  V30 11 1 3 12
M  V30 12 1 4 13
M  V30 13 1 4 14
M  V30 END BOND
M  V30 END CTAB
M  END
>  <Structure No>
2689

>  <LogS>
0.459603052

>  <MMFF94 Energy>
114.28

$$$$
Compound 2690
Actelion Java MolfileCreator 2.0

  0  0  0  0  0  0              0 V3000
M  V30 BEGIN CTAB
M  V30 COUNTS 86 85 0 0 0
M  V30 BEGIN ATOM
M  V30 1 O -0.3915 -2.8215 0.2348 0
M  V30 2 C -0.9372 -1.5251 0.0241 0 CFG=2
M  V30 3 C -1.2333 -3.8565 -0.2399 0
M  V30 4 C 0.1463 -0.6386 -0.6842 0 CFG=2
M  V30 5 C -1.4702 -0.9703 1.3837 0 CFG=2
M  V30 6 C -0.9857 -4.1175 -1.7295 0
M  V30 7 O 0.3474 -1.1172 -2.0094 0
M  V30 8 C 1.5166 -0.6521 0.0591 0 CFG=2
M  V30 9 O -2.6124 -1.717 1.7782 0
M  V30 10 C -1.8949 0.5089 1.3208 0
M  V30 11 C -1.6055 -5.4467 -2.1734 0
M  V30 12 C -0.5793 -0.5564 -2.9309 0
M  V30 13 O 1.3887 -0.01 1.3169 0
M  V30 14 C 2.6302 0.0544 -0.75 0
M  V30 15 C -2.3165 -2.7141 2.7418 0
M  V30 16 O -2.7984 0.7169 0.2526 0
M  V30 17 O -1.464 -5.6162 -3.5579 0
M  V30 18 C -0.0096 0.687 -3.6262 0
M  V30 19 C 2.1292 -0.6873 2.3138 0
M  V30 20 O 2.1894 1.2653 -1.3344 0
M  V30 21 C -2.7933 -2.284 4.1364 0
M  V30 22 C -3.0644 2.0975 0.0875 0
M  V30 23 C 1.2654 0.3933 -4.4231 0
M  V30 24 C 2.0484 0.0861 3.6316 0
M  V30 25 C 2.3885 2.3623 -0.467 0
M  V30 26 C -1.81 -1.3556 4.8581 0
M  V30 27 C -2.1575 2.6828 -1.0008 0
M  V30 28 O 0.9705 -0.3678 -5.5634 0
M  V30 29 C 2.7507 1.4481 3.5612 0
M  V30 30 C 2.0146 3.656 -1.1919 0
M  V30 31 O -0.647 -2.0487 5.2233 0
M  V30 32 C -2.4459 4.1653 -1.2543 0
M  V30 33 O 4.1085 1.3046 3.2403 0
M  V30 34 C 2.9416 3.9312 -2.3799 0
M  V30 35 O -2.1108 4.9355 -0.1313 0
M  V30 36 O 2.5621 5.1172 -3.0237 0
M  V30 37 H -1.8199 -1.5457 -0.6562 0
M  V30 38 H -2.313 -3.6578 -0.0506 0
M  V30 39 H -0.9785 -4.7739 0.3329 0
M  V30 40 H -0.1906 0.417 -0.7083 0
M  V30 41 H -0.6599 -1.0217 2.1411 0
M  V30 42 H 0.1093 -4.142 -1.9222 0
M  V30 43 H -1.4331 -3.2941 -2.3259 0
M  V30 44 H 1.8283 -1.7202 0.1543 0
M  V30 45 H -2.3923 0.7684 2.2824 0
M  V30 46 H -0.9942 1.1577 1.2336 0
M  V30 47 H -2.6892 -5.4523 -1.9277 0
M  V30 48 H -1.1222 -6.2953 -1.6371 0
M  V30 49 H -1.5572 -0.2921 -2.4692 0
M  V30 50 H -0.8077 -1.3217 -3.7009 0
M  V30 51 H 3.5483 0.1816 -0.1314 0
M  V30 52 H 2.9343 -0.6217 -1.5768 0
M  V30 53 H -2.898 -3.6168 2.4621 0
M  V30 54 H -1.2541 -3.0478 2.7534 0
M  V30 55 H -0.4922 -5.7217 -3.7352 0
M  V30 56 H 0.1955 1.4713 -2.8702 0
M  V30 57 H -0.7786 1.0983 -4.3169 0
M  V30 58 H 3.1959 -0.8036 2.0206 0
M  V30 59 H 1.6989 -1.6993 2.4851 0
M  V30 60 H -3.7769 -1.7741 4.043 0
M  V30 61 H -2.9466 -3.1904 4.7622 0
M  V30 62 H -2.973 2.6848 1.0329 0
M  V30 63 H -4.1218 2.2005 -0.2404 0
M  V30 64 H 1.7036 1.3577 -4.7528 0
M  V30 65 H 2.0266 -0.1113 -3.7873 0
M  V30 66 H 2.51 -0.5218 4.44 0
M  V30 67 H 0.9809 0.2467 3.8952 0
M  V30 68 H 1.7258 2.2763 0.4188 0
M  V30 69 H 3.4483 2.4343 -0.1303 0
M  V30 70 H -2.2949 -0.9879 5.7873 0
M  V30 71 H -1.5741 -0.4599 4.2431 0
M  V30 72 H -2.3165 2.1196 -1.9457 0
M  V30 73 H -1.095 2.5713 -0.7042 0
M  V30 74 H 1.1017 -1.3195 -5.3187 0
M  V30 75 H 2.6471 1.9699 4.5388 0
M  V30 76 H 2.262 2.0847 2.7943 0
M  V30 77 H 2.0807 4.5021 -0.4731 0
M  V30 78 H 0.9654 3.592 -1.5512 0
M  V30 79 H -0.0193 -1.9797 4.4591 0
M  V30 80 H -1.8671 4.5119 -2.1415 0
M  V30 81 H -3.5233 4.3083 -1.482 0
M  V30 82 H 4.5381 0.862 4.017 0
M  V30 83 H 4.0004 3.9978 -2.0401 0
M  V30 84 H 2.8662 3.0993 -3.111 0
M  V30 85 H -1.12 4.9975 -0.1161 0
M  V30 86 H 2.8852 5.8656 -2.4562 0
M  V30 END ATOM
M  V30 BEGIN BOND
M  V30 1 1 1 2
M  V30 2 1 1 3
M  V30 3 1 2 4
M  V30 4 1 2 5
M  V30 5 1 3 6
M  V30 6 1 4 7
M  V30 7 1 4 8
M  V30 8 1 5 9
M  V30 9 1 5 10
M  V30 10 1 6 11
M  V30 11 1 7 12
M  V30 12 1 8 13
M  V30 13 1 8 14
M  V30 14 1 9 15
M  V30 15 1 10 16
M  V30 16 1 11 17
M  V30 17 1 12 18
M  V30 18 1 13 19
M  V30 19 1 14 20
M  V30 20 1 15 21
M  V30 21 1 16 22
M  V30 22 1 18 23
M  V30 23 1 19 24
M  V30 24 1 20 25
M  V30 25 1 21 26
M  V30 26 1 22 27
M  V30 27 1 23 28
M  V30 28 1 24 29
M  V30 29 1 25 30
M  V30 30 1 26 31
M  V30 31 1 27 32
M  V30 32 1 29 33
M  V30 33 1 30 34
M  V30 34 1 32 35
M  V30 35 1 34 36
M  V30 36 1 2 37
M  V30 37 1 3 38
M  V30 38 1 3 39
M  V30 39 1 4 40
M  V30 40 1 5 41
M  V30 41 1 6 42
M  V30 42 1 6 43
M  V30 43 1 8 44
M  V30 44 1 10 45
M  V30 45 1 10 46
M  V30 46 1 11 47
M  V30 47 1 11 48
M  V30 48 1 12 49
M  V30 49 1 12 50
M  V30 50 1 14 51
M  V30 51 1 14 52
M  V30 52 1 15 53
M  V30 53 1 15 54
M  V30 54 1 17 55
M  V30 55 1 18 56
M  V30 56 1 18 57
M  V30 57 1 19 58
M  V30 58 1 19 59
M  V30 59 1 21 60
M  V30 60 1 21 61
M  V30 61 1 22 62
M  V30 62 1 22 63
M  V30 63 1 23 64
M  V30 64 1 23 65
M  V30 65 1 24 66
M  V30 66 1 24 67
M  V30 67 1 25 68
M  V30 68 1 25 69
M  V30 69 1 26 70
M  V30 70 1 26 71
M  V30 71 1 27 72
M  V30 72 1 27 73
M  V30 73 1 28 74
M  V30 74 1 29 75
M  V30 75 1 29 76
M  V30 76 1 30 77
M  V30 77 1 30 78
M  V30 78 1 31 79
M  V30 79 1 32 80
M  V30 80 1 32 81
M  V30 81 1 33 82
M  V30 82 1 34 83
M  V30 83 1 34 84
M  V30 84 1 35 85
M  V30 85 1 36 86
M  V30 END BOND
M  V30 BEGIN COLLECTION
M  V30 MDLV30/STEABS ATOMS=(4 2 4 5 8)
M  V30 END COLLECTION
M  V30 END CTAB
M  END
>  <Structure No>
2690

>  <LogS>
0.053341445

>  <MMFF94 Energy>
113.89

$$$$
Compound 2691
Actelion Java MolfileCreator 2.0

  0  0  0  0  0  0              0 V3000
M  V30 BEGIN CTAB
M  V30 COUNTS 17 18 0 0 0
M  V30 BEGIN ATOM
M  V30 1 O 1.0344 2.787 -0.0795 0
M  V30 2 C 0.5858 1.611 -0.0229 0
M  V30 3 N 1.4199 0.5443 -0.0295 0
M  V30 4 C -0.7925 1.3647 0.0455 0
M  V30 5 N 2.7358 0.5355 -0.093 0
M  V30 6 C 0.9849 -0.713 0.0213 0
M  V30 7 C -1.2428 0.0245 0.1141 0
M  V30 8 C 3.0678 -0.7793 -0.0773 0
M  V30 9 N 1.9892 -1.6056 -0.0066 0
M  V30 10 N -0.3382 -1.0049 0.0873 0
M  V30 11 C -2.7125 -0.2682 0.1494 0
M  V30 12 H -1.4968 2.1881 0.045 0
M  V30 13 H 4.0882 -1.1354 -0.1182 0
M  V30 14 H -0.6536 -2.0008 0.1165 0
M  V30 15 H -3.2533 0.5175 0.7186 0
M  V30 16 H -3.1066 -0.3034 -0.8875 0
M  V30 17 H -2.9021 -1.2447 0.6426 0
M  V30 END ATOM
M  V30 BEGIN BOND
M  V30 1 2 1 2
M  V30 2 1 2 3
M  V30 3 1 2 4
M  V30 4 1 3 5
M  V30 5 1 3 6
M  V30 6 2 4 7
M  V30 7 2 5 8
M  V30 8 2 6 9
M  V30 9 1 6 10
M  V30 10 1 7 11
M  V30 11 1 7 10
M  V30 12 1 8 9
M  V30 13 1 4 12
M  V30 14 1 8 13
M  V30 15 1 10 14
M  V30 16 1 11 15
M  V30 17 1 11 16
M  V30 18 1 11 17
M  V30 END BOND
M  V30 END CTAB
M  END
>  <Structure No>
2691

>  <LogS>
-1.347195531

>  <MMFF94 Energy>
54.891

$$$$
Compound 2692
Actelion Java MolfileCreator 2.0

  0  0  0  0  0  0              0 V3000
M  V30 BEGIN CTAB
M  V30 COUNTS 28 27 0 0 0
M  V30 BEGIN ATOM
M  V30 1 O 4.3498 -0.6317 -0.7107 0
M  V30 2 C 3.2371 -0.45 -1.2727 0
M  V30 3 O 3.1956 -0.1381 -2.6256 0 CHG=-1
M  V30 4 C 1.9617 -0.5138 -0.4788 0 CFG=1
M  V30 5 O 2.0561 -1.5177 0.4994 0
M  V30 6 C 1.668 0.8592 0.1761 0 CFG=2
M  V30 7 O 2.7215 1.2453 1.0268 0
M  V30 8 C 0.3112 0.9397 0.9308 0 CFG=2
M  V30 9 O 0.2713 -0.0081 1.9694 0
M  V30 10 C -0.9327 0.834 -0.0189 0 CFG=2
M  V30 11 O -1.7662 1.9457 0.1967 0
M  V30 12 C -1.771 -0.4588 0.172 0 CFG=2
M  V30 13 O -0.9447 -1.5857 0.0364 0
M  V30 14 C -2.9119 -0.5582 -0.8603 0
M  V30 15 O -3.8765 0.4382 -0.6524 0
M  V30 16 H 1.139 -0.7568 -1.1873 0
M  V30 17 H 1.9689 -2.3875 0.0283 0
M  V30 18 H 1.6275 1.6141 -0.6408 0
M  V30 19 H 2.7677 0.5904 1.7709 0
M  V30 20 H 0.3035 1.9572 1.3924 0
M  V30 21 H -0.3799 0.3257 2.6408 0
M  V30 22 H -0.5929 0.8508 -1.0813 0
M  V30 23 H -1.3414 2.7192 -0.259 0
M  V30 24 H -2.2199 -0.4435 1.1935 0
M  V30 25 H -1.4011 -2.3376 0.4971 0
M  V30 26 H -2.5019 -0.4534 -1.8874 0
M  V30 27 H -3.3918 -1.5616 -0.7981 0
M  V30 28 H -4.3955 0.1687 0.1498 0
M  V30 END ATOM
M  V30 BEGIN BOND
M  V30 1 2 1 2
M  V30 2 1 2 3
M  V30 3 1 2 4
M  V30 4 1 4 5
M  V30 5 1 4 6
M  V30 6 1 6 7
M  V30 7 1 6 8
M  V30 8 1 8 9
M  V30 9 1 8 10
M  V30 10 1 10 11
M  V30 11 1 10 12
M  V30 12 1 12 13
M  V30 13 1 12 14
M  V30 14 1 14 15
M  V30 15 1 4 16
M  V30 16 1 5 17
M  V30 17 1 6 18
M  V30 18 1 7 19
M  V30 19 1 8 20
M  V30 20 1 9 21
M  V30 21 1 10 22
M  V30 22 1 11 23
M  V30 23 1 12 24
M  V30 24 1 13 25
M  V30 25 1 14 26
M  V30 26 1 14 27
M  V30 27 1 15 28
M  V30 END BOND
M  V30 BEGIN COLLECTION
M  V30 MDLV30/STEABS ATOMS=(5 4 6 8 10 12)
M  V30 END COLLECTION
M  V30 END CTAB
M  END
>  <Structure No>
2692

>  <LogS>
0.317070198

>  <MMFF94 Energy>
129.16

$$$$
Compound 2693
Actelion Java MolfileCreator 2.0

  0  0  0  0  0  0              0 V3000
M  V30 BEGIN CTAB
M  V30 COUNTS 14 13 0 0 0
M  V30 BEGIN ATOM
M  V30 1 O 1.9636 1.3906 0.9814 0
M  V30 2 C 2.0326 0.158 1.2304 0
M  V30 3 O 2.9173 -0.2935 2.2018 0 CHG=-1
M  V30 4 C 1.1855 -0.8016 0.5047 0
M  V30 5 O 1.2535 -2.0263 0.794 0
M  V30 6 C 0.2091 -0.3476 -0.5432 0
M  V30 7 C -1.1106 0.083 0.1005 0
M  V30 8 C -2.0845 0.5238 -0.9457 0
M  V30 9 O -2.1134 1.7264 -1.318 0
M  V30 10 O -2.9273 -0.4029 -1.5459 0 CHG=-1
M  V30 11 H 0.6439 0.4971 -1.1212 0
M  V30 12 H 0.0219 -1.1815 -1.2552 0
M  V30 13 H -0.9315 0.9187 0.8124 0
M  V30 14 H -1.5481 -0.7675 0.6676 0
M  V30 END ATOM
M  V30 BEGIN BOND
M  V30 1 2 1 2
M  V30 2 1 2 3
M  V30 3 1 2 4
M  V30 4 2 4 5
M  V30 5 1 4 6
M  V30 6 1 6 7
M  V30 7 1 7 8
M  V30 8 2 8 9
M  V30 9 1 8 10
M  V30 10 1 6 11
M  V30 11 1 6 12
M  V30 12 1 7 13
M  V30 13 1 7 14
M  V30 END BOND
M  V30 END CTAB
M  END
>  <Structure No>
2693

>  <LogS>
0.429525605

>  <MMFF94 Energy>
126.38

$$$$
Compound 2694
Actelion Java MolfileCreator 2.0

  0  0  0  0  0  0              0 V3000
M  V30 BEGIN CTAB
M  V30 COUNTS 38 37 0 0 0
M  V30 BEGIN ATOM
M  V30 1 N -4.1375 1.301 -0.7651 0 CHG=1
M  V30 2 C -4.7219 -0.0219 -0.9882 0
M  V30 3 C -4.2816 -1.0445 0.075 0
M  V30 4 C -2.7731 -1.3643 0.0348 0
M  V30 5 C -1.9861 -0.5903 1.1077 0
M  V30 6 C -0.4815 -0.9053 1.0797 0
M  V30 7 C 0.2463 -0.1869 -0.0704 0
M  V30 8 C 1.7515 -0.5003 -0.103 0
M  V30 9 C 2.5408 0.2831 0.96 0
M  V30 10 C 4.0314 -0.0988 0.9992 0
M  V30 11 C 4.8165 0.2229 -0.2866 0
M  V30 12 N 4.7898 1.6501 -0.6132 0 CHG=1
M  V30 13 H -3.1154 1.2849 -0.9832 0
M  V30 14 H -4.5977 1.9876 -1.4055 0
M  V30 15 H -4.2932 1.6075 0.2225 0
M  V30 16 H -5.8311 0.0611 -0.9544 0
M  V30 17 H -4.4469 -0.388 -2.0023 0
M  V30 18 H -4.8405 -1.9854 -0.1224 0
M  V30 19 H -4.5945 -0.6992 1.0851 0
M  V30 20 H -2.6393 -2.4518 0.2267 0
M  V30 21 H -2.3665 -1.1619 -0.9777 0
M  V30 22 H -2.379 -0.8817 2.1068 0
M  V30 23 H -2.1404 0.5034 1.0019 0
M  V30 24 H -0.3265 -2.0038 1.0036 0
M  V30 25 H -0.0525 -0.5731 2.048 0
M  V30 26 H 0.0911 0.9118 0.0057 0
M  V30 27 H -0.1857 -0.5183 -1.0376 0
M  V30 28 H 1.9143 -1.5929 0.0248 0
M  V30 29 H 2.1278 -0.2179 -1.109 0
M  V30 30 H 2.122 0.0665 1.9646 0
M  V30 31 H 2.4284 1.3752 0.7912 0
M  V30 32 H 4.5093 0.4332 1.8506 0
M  V30 33 H 4.1205 -1.1873 1.2072 0
M  V30 34 H 5.8722 -0.0927 -0.1324 0
M  V30 35 H 4.4257 -0.3693 -1.1416 0
M  V30 36 H 5.0422 2.2223 0.2251 0
M  V30 37 H 3.8438 1.9239 -0.9634 0
M  V30 38 H 5.486 1.8384 -1.3703 0
M  V30 END ATOM
M  V30 BEGIN BOND
M  V30 1 1 1 2
M  V30 2 1 2 3
M  V30 3 1 3 4
M  V30 4 1 4 5
M  V30 5 1 5 6
M  V30 6 1 6 7
M  V30 7 1 7 8
M  V30 8 1 8 9
M  V30 9 1 9 10
M  V30 10 1 10 11
M  V30 11 1 11 12
M  V30 12 1 1 13
M  V30 13 1 1 14
M  V30 14 1 1 15
M  V30 15 1 2 16
M  V30 16 1 2 17
M  V30 17 1 3 18
M  V30 18 1 3 19
M  V30 19 1 4 20
M  V30 20 1 4 21
M  V30 21 1 5 22
M  V30 22 1 5 23
M  V30 23 1 6 24
M  V30 24 1 6 25
M  V30 25 1 7 26
M  V30 26 1 7 27
M  V30 27 1 8 28
M  V30 28 1 8 29
M  V30 29 1 9 30
M  V30 30 1 9 31
M  V30 31 1 10 32
M  V30 32 1 10 33
M  V30 33 1 11 34
M  V30 34 1 11 35
M  V30 35 1 12 36
M  V30 36 1 12 37
M  V30 37 1 12 38
M  V30 END BOND
M  V30 END CTAB
M  END
>  <Structure No>
2694

>  <LogS>
1.527701003

>  <MMFF94 Energy>
26.956

$$$$
Compound 2695
Actelion Java MolfileCreator 2.0

  0  0  0  0  0  0              0 V3000
M  V30 BEGIN CTAB
M  V30 COUNTS 15 14 0 0 0
M  V30 BEGIN ATOM
M  V30 1 S -1.9312 -0.4386 -0.2631 0
M  V30 2 O -2.9765 0.1414 0.6475 0
M  V30 3 O -2.0913 -1.9321 -0.3079 0
M  V30 4 O -2.1343 0.1866 -1.8095 0 CHG=-1
M  V30 5 C -0.3014 -0.0266 0.3535 0 CFG=2
M  V30 6 C -0.1876 1.4626 0.5275 0
M  V30 7 C 0.7823 -0.5727 -0.5916 0
M  V30 8 O -0.241 2.231 -0.4694 0
M  V30 9 O -0.0307 2.0009 1.7985 0 CHG=-1
M  V30 10 C 2.1544 -0.3845 -0.0192 0
M  V30 11 O 2.8623 0.5935 -0.3764 0
M  V30 12 O 2.6343 -1.2674 0.9398 0 CHG=-1
M  V30 13 H -0.1896 -0.5146 1.3467 0
M  V30 14 H 0.7164 -0.0764 -1.5848 0
M  V30 15 H 0.6212 -1.6606 -0.7507 0
M  V30 END ATOM
M  V30 BEGIN BOND
M  V30 1 2 1 2
M  V30 2 2 1 3
M  V30 3 1 1 4
M  V30 4 1 1 5
M  V30 5 1 5 6
M  V30 6 1 5 7
M  V30 7 2 6 8
M  V30 8 1 6 9
M  V30 9 1 7 10
M  V30 10 2 10 11
M  V30 11 1 10 12
M  V30 12 1 5 13
M  V30 13 1 7 14
M  V30 14 1 7 15
M  V30 END BOND
M  V30 BEGIN COLLECTION
M  V30 MDLV30/STEABS ATOMS=(1 5)
M  V30 END COLLECTION
M  V30 END CTAB
M  END
>  <Structure No>
2695

>  <LogS>
0.08106542

>  <MMFF94 Energy>
164.49

$$$$
Compound 2696
Actelion Java MolfileCreator 2.0

  0  0  0  0  0  0              0 V3000
M  V30 BEGIN CTAB
M  V30 COUNTS 18 17 0 0 0
M  V30 BEGIN ATOM
M  V30 1 O -0.7924 -2.4581 0.1584 0
M  V30 2 C -0.8063 -1.5752 -0.7399 0
M  V30 3 O -0.6659 -1.9495 -2.0703 0 CHG=-1
M  V30 4 C -0.9635 -0.12 -0.3802 0 CFG=1
M  V30 5 N -2.2193 0.0866 0.3512 0 CHG=1
M  V30 6 C 0.2358 0.3822 0.4523 0
M  V30 7 C 1.544 0.372 -0.3499 0
M  V30 8 C 2.6687 0.91 0.4768 0
M  V30 9 O 2.9312 2.1415 0.465 0
M  V30 10 O 3.3962 0.0589 1.299 0 CHG=-1
M  V30 11 H -1.0093 0.4721 -1.3225 0
M  V30 12 H -2.2007 -0.4173 1.2682 0
M  V30 13 H -3.0243 -0.2637 -0.218 0
M  V30 14 H -2.3639 1.1078 0.5256 0
M  V30 15 H 0.0313 1.4253 0.7813 0
M  V30 16 H 0.3505 -0.2442 1.3649 0
M  V30 17 H 1.794 -0.6646 -0.6611 0
M  V30 18 H 1.431 0.9915 -1.2662 0
M  V30 END ATOM
M  V30 BEGIN BOND
M  V30 1 2 1 2
M  V30 2 1 2 3
M  V30 3 1 2 4
M  V30 4 1 4 5
M  V30 5 1 4 6
M  V30 6 1 6 7
M  V30 7 1 7 8
M  V30 8 2 8 9
M  V30 9 1 8 10
M  V30 10 1 4 11
M  V30 11 1 5 12
M  V30 12 1 5 13
M  V30 13 1 5 14
M  V30 14 1 6 15
M  V30 15 1 6 16
M  V30 16 1 7 17
M  V30 17 1 7 18
M  V30 END BOND
M  V30 BEGIN COLLECTION
M  V30 MDLV30/STEABS ATOMS=(1 4)
M  V30 END COLLECTION
M  V30 END CTAB
M  END
>  <Structure No>
2696

>  <LogS>
0.371965463

>  <MMFF94 Energy>
-46.719

$$$$
Compound 2697
Actelion Java MolfileCreator 2.0

  0  0  0  0  0  0              0 V3000
M  V30 BEGIN CTAB
M  V30 COUNTS 14 14 0 0 0
M  V30 BEGIN ATOM
M  V30 1 O 3.1286 -0.2404 -0.4006 0
M  V30 2 C 2.2569 0.5449 0.0584 0
M  V30 3 O 2.6619 1.7613 0.5963 0 CHG=-1
M  V30 4 C 0.8235 0.1797 0.0266 0
M  V30 5 C 0.4077 -1.0505 -0.5167 0
M  V30 6 C -0.1458 1.0604 0.5407 0
M  V30 7 C -0.9489 -1.3894 -0.5436 0
M  V30 8 C -1.5011 0.7163 0.5111 0
M  V30 9 C -1.9023 -0.5071 -0.0303 0
M  V30 10 H 1.129 -1.7501 -0.9203 0
M  V30 11 H 0.1414 2.0141 0.9654 0
M  V30 12 H -1.2609 -2.3372 -0.963 0
M  V30 13 H -2.241 1.3992 0.9086 0
M  V30 14 H -2.9518 -0.7713 -0.0521 0
M  V30 END ATOM
M  V30 BEGIN BOND
M  V30 1 2 1 2
M  V30 2 1 2 3
M  V30 3 1 2 4
M  V30 4 2 4 5
M  V30 5 1 4 6
M  V30 6 1 5 7
M  V30 7 2 6 8
M  V30 8 2 7 9
M  V30 9 1 8 9
M  V30 10 1 5 10
M  V30 11 1 6 11
M  V30 12 1 7 12
M  V30 13 1 8 13
M  V30 14 1 9 14
M  V30 END BOND
M  V30 END CTAB
M  END
>  <Structure No>
2697

>  <LogS>
-1.816841725

>  <MMFF94 Energy>
37.053

$$$$
Compound 2698
Actelion Java MolfileCreator 2.0

  0  0  0  0  0  0              0 V3000
M  V30 BEGIN CTAB
M  V30 COUNTS 10 10 0 0 0
M  V30 BEGIN ATOM
M  V30 1 O -0.9366 -0.156 -1.0928 0
M  V30 2 C -0.0758 -0.5908 -0.0675 0 CFG=2
M  V30 3 C -1.3643 0.0716 0.2317 0
M  V30 4 C 1.1755 0.2757 0.0282 0
M  V30 5 H -0.0241 -1.6974 0.0036 0
M  V30 6 H -1.3465 1.1539 0.4805 0
M  V30 7 H -2.2068 -0.598 0.5022 0
M  V30 8 H 1.9497 -0.1252 -0.6579 0
M  V30 9 H 0.972 1.3338 -0.2461 0
M  V30 10 H 1.5654 0.2407 1.0665 0
M  V30 END ATOM
M  V30 BEGIN BOND
M  V30 1 1 1 2
M  V30 2 1 1 3
M  V30 3 1 2 4
M  V30 4 1 2 3
M  V30 5 1 2 5
M  V30 6 1 3 6
M  V30 7 1 3 7
M  V30 8 1 4 8
M  V30 9 1 4 9
M  V30 10 1 4 10
M  V30 END BOND
M  V30 BEGIN COLLECTION
M  V30 MDLV30/STEABS ATOMS=(1 2)
M  V30 END COLLECTION
M  V30 END CTAB
M  END
>  <Structure No>
2698

>  <LogS>
0.832570488

>  <MMFF94 Energy>
7.5401

$$$$
Compound 2699
Actelion Java MolfileCreator 2.0

  0  0  0  0  0  0              0 V3000
M  V30 BEGIN CTAB
M  V30 COUNTS 26 25 0 0 0
M  V30 BEGIN ATOM
M  V30 1 O 1.7012 1.4691 0.3091 0
M  V30 2 C 2.6424 0.6706 0.0526 0
M  V30 3 N 2.3439 -0.6947 -0.2854 0
M  V30 4 C 4.028 1.1752 0.1366 0
M  V30 5 C 0.9727 -1.1519 -0.4854 0
M  V30 6 C 5.082 0.5413 -0.3754 0
M  V30 7 O 0.2692 -1.065 0.7368 0
M  V30 8 C -1.1111 -1.3037 0.5353 0
M  V30 9 C -1.8615 0.026 0.41 0
M  V30 10 C -3.371 -0.201 0.2696 0
M  V30 11 C -4.1184 1.1237 0.146 0
M  V30 12 H 3.1084 -1.3988 -0.3771 0
M  V30 13 H 4.1908 2.1361 0.6102 0
M  V30 14 H 0.5019 -0.5268 -1.2784 0
M  V30 15 H 0.994 -2.2101 -0.8312 0
M  V30 16 H 4.9941 -0.3933 -0.9096 0
M  V30 17 H 6.0663 0.9825 -0.2857 0
M  V30 18 H -1.3261 -1.958 -0.3438 0
M  V30 19 H -1.4932 -1.843 1.4285 0
M  V30 20 H -1.4877 0.5785 -0.4791 0
M  V30 21 H -1.6606 0.6417 1.3144 0
M  V30 22 H -3.753 -0.7471 1.1597 0
M  V30 23 H -3.5752 -0.8147 -0.6348 0
M  V30 24 H -3.9507 1.7472 1.0501 0
M  V30 25 H -3.7733 1.6791 -0.752 0
M  V30 26 H -5.207 0.9286 0.0462 0
M  V30 END ATOM
M  V30 BEGIN BOND
M  V30 1 2 1 2
M  V30 2 1 2 3
M  V30 3 1 2 4
M  V30 4 1 3 5
M  V30 5 2 4 6
M  V30 6 1 5 7
M  V30 7 1 7 8
M  V30 8 1 8 9
M  V30 9 1 9 10
M  V30 10 1 10 11
M  V30 11 1 3 12
M  V30 12 1 4 13
M  V30 13 1 5 14
M  V30 14 1 5 15
M  V30 15 1 6 16
M  V30 16 1 6 17
M  V30 17 1 8 18
M  V30 18 1 8 19
M  V30 19 1 9 20
M  V30 20 1 9 21
M  V30 21 1 10 22
M  V30 22 1 10 23
M  V30 23 1 11 24
M  V30 24 1 11 25
M  V30 25 1 11 26
M  V30 END BOND
M  V30 END CTAB
M  END
>  <Structure No>
2699

>  <LogS>
-0.653663028

>  <MMFF94 Energy>
-57.426

$$$$
Compound 2700
Actelion Java MolfileCreator 2.0

  0  0  0  0  0  0              0 V3000
M  V30 BEGIN CTAB
M  V30 COUNTS 57 56 0 0 0
M  V30 BEGIN ATOM
M  V30 1 O -6.072 -4.4131 0.3934 0
M  V30 2 C -5.1142 -3.9062 1.0346 0
M  V30 3 O -4.903 -4.2697 2.3587 0 CHG=-1
M  V30 4 C -4.239 -2.8767 0.3923 0
M  V30 5 C -4.7938 -1.4631 0.6476 0
M  V30 6 N -4.0008 -0.413 -0.043 0 CHG=1
M  V30 7 C -4.7448 0.8733 -0.0089 0
M  V30 8 C -2.6411 -0.2685 0.5666 0
M  V30 9 C -4.1953 1.8867 -1.0302 0
M  V30 10 C -1.5309 -0.6859 -0.4168 0
M  V30 11 C -4.9693 3.1655 -0.967 0
M  V30 12 C -0.1356 -0.7399 0.2307 0
M  V30 13 O -5.996 3.3211 -1.6795 0
M  V30 14 O -4.5863 4.1667 -0.0835 0 CHG=-1
M  V30 15 C 0.377 0.5999 0.7987 0
M  V30 16 C 0.4265 1.7615 -0.2108 0
M  V30 17 C 1.3467 1.5275 -1.4239 0
M  V30 18 C 2.848 1.4829 -1.0653 0
M  V30 19 C 3.4007 0.0473 -1.0209 0
M  V30 20 C 4.9205 0.0044 -0.7931 0
M  V30 21 C 5.3068 0.3239 0.6617 0
M  V30 22 C 6.8261 0.2816 0.8895 0
M  V30 23 C 7.3861 -1.1406 0.8893 0
M  V30 24 H -4.1872 -3.0696 -0.7012 0
M  V30 25 H -3.2154 -2.9789 0.8081 0
M  V30 26 H -4.8336 -1.263 1.7432 0
M  V30 27 H -5.8438 -1.4554 0.2742 0
M  V30 28 H -3.929 -0.697 -1.05 0
M  V30 29 H -4.7191 1.3105 1.0159 0
M  V30 30 H -5.8166 0.7086 -0.2652 0
M  V30 31 H -2.4454 0.7763 0.89 0
M  V30 32 H -2.5382 -0.8688 1.4984 0
M  V30 33 H -4.2685 1.4636 -2.0557 0
M  V30 34 H -3.1278 2.1113 -0.8317 0
M  V30 35 H -1.5247 -0.0037 -1.2926 0
M  V30 36 H -1.7586 -1.7025 -0.8036 0
M  V30 37 H -0.1546 -1.4839 1.0566 0
M  V30 38 H 0.5845 -1.127 -0.519 0
M  V30 39 H 1.3886 0.4454 1.2284 0
M  V30 40 H -0.2649 0.9025 1.6529 0
M  V30 41 H -0.599 1.9815 -0.5731 0
M  V30 42 H 0.7619 2.6773 0.3232 0
M  V30 43 H 1.0318 0.6249 -1.989 0
M  V30 44 H 1.1889 2.3841 -2.1156 0
M  V30 45 H 3.0277 1.9997 -0.0995 0
M  V30 46 H 3.4087 2.0455 -1.8441 0
M  V30 47 H 3.1881 -0.4442 -1.9957 0
M  V30 48 H 2.8947 -0.5453 -0.2323 0
M  V30 49 H 5.2666 -1.0202 -1.0438 0
M  V30 50 H 5.4277 0.7101 -1.4872 0
M  V30 51 H 4.8024 -0.3849 1.3547 0
M  V30 52 H 4.9601 1.347 0.9171 0
M  V30 53 H 7.0454 0.7389 1.879 0
M  V30 54 H 7.347 0.8883 0.1169 0
M  V30 55 H 8.4604 -1.113 1.1701 0
M  V30 56 H 7.3059 -1.5971 -0.1185 0
M  V30 57 H 6.8452 -1.7717 1.6266 0
M  V30 END ATOM
M  V30 BEGIN BOND
M  V30 1 2 1 2
M  V30 2 1 2 3
M  V30 3 1 2 4
M  V30 4 1 4 5
M  V30 5 1 5 6
M  V30 6 1 6 7
M  V30 7 1 6 8
M  V30 8 1 7 9
M  V30 9 1 8 10
M  V30 10 1 9 11
M  V30 11 1 10 12
M  V30 12 2 11 13
M  V30 13 1 11 14
M  V30 14 1 12 15
M  V30 15 1 15 16
M  V30 16 1 16 17
M  V30 17 1 17 18
M  V30 18 1 18 19
M  V30 19 1 19 20
M  V30 20 1 20 21
M  V30 21 1 21 22
M  V30 22 1 22 23
M  V30 23 1 4 24
M  V30 24 1 4 25
M  V30 25 1 5 26
M  V30 26 1 5 27
M  V30 27 1 6 28
M  V30 28 1 7 29
M  V30 29 1 7 30
M  V30 30 1 8 31
M  V30 31 1 8 32
M  V30 32 1 9 33
M  V30 33 1 9 34
M  V30 34 1 10 35
M  V30 35 1 10 36
M  V30 36 1 12 37
M  V30 37 1 12 38
M  V30 38 1 15 39
M  V30 39 1 15 40
M  V30 40 1 16 41
M  V30 41 1 16 42
M  V30 42 1 17 43
M  V30 43 1 17 44
M  V30 44 1 18 45
M  V30 45 1 18 46
M  V30 46 1 19 47
M  V30 47 1 19 48
M  V30 48 1 20 49
M  V30 49 1 20 50
M  V30 50 1 21 51
M  V30 51 1 21 52
M  V30 52 1 22 53
M  V30 53 1 22 54
M  V30 54 1 23 55
M  V30 55 1 23 56
M  V30 56 1 23 57
M  V30 END BOND
M  V30 END CTAB
M  END
>  <Structure No>
2700

>  <LogS>
-0.040729633

>  <MMFF94 Energy>
-115.32

$$$$
Compound 2701
Actelion Java MolfileCreator 2.0

  0  0  0  0  0  0              0 V3000
M  V30 BEGIN CTAB
M  V30 COUNTS 63 62 0 0 0
M  V30 BEGIN ATOM
M  V30 1 O -6.9208 1.9623 -3.0626 0
M  V30 2 C -6.9217 2.6389 -2.0016 0
M  V30 3 O -6.0444 3.7065 -1.8658 0 CHG=-1
M  V30 4 C -7.8409 2.2729 -0.8796 0
M  V30 5 N -7.3807 1.0336 -0.2362 0
M  V30 6 C -6.2004 1.0614 0.5998 0
M  V30 7 C -8.1402 -0.208 -0.4328 0
M  V30 8 O -5.722 2.1716 0.9586 0
M  V30 9 C -5.5366 -0.2007 1.1005 0
M  V30 10 C -4.0109 -0.1669 0.9291 0
M  V30 11 C -3.596 -0.1466 -0.5523 0
M  V30 12 C -2.071 -0.084 -0.735 0
M  V30 13 C -1.3888 -1.4298 -0.4494 0
M  V30 14 C 0.119 -1.3474 -0.714 0
M  V30 15 C 0.7978 -2.6973 -0.4566 0
M  V30 16 C 2.2841 -2.5981 -0.6881 0
M  V30 17 C 3.1754 -2.2501 0.2558 0
M  V30 18 C 2.8023 -1.9795 1.6952 0
M  V30 19 C 3.9959 -1.4812 2.5326 0
M  V30 20 C 4.161 0.0524 2.5272 0
M  V30 21 C 4.5256 0.6651 1.1644 0
M  V30 22 C 5.958 0.3208 0.722 0
M  V30 23 C 6.2946 0.8705 -0.6733 0
M  V30 24 C 6.4449 2.3993 -0.687 0
M  V30 25 C 6.9042 2.8927 -2.0558 0
M  V30 26 H -8.8684 2.1613 -1.288 0
M  V30 27 H -7.8844 3.0963 -0.1332 0
M  V30 28 H -9.0913 -0.0272 -0.9732 0
M  V30 29 H -8.39 -0.6582 0.5506 0
M  V30 30 H -7.5443 -0.9247 -1.035 0
M  V30 31 H -5.9221 -1.1044 0.5886 0
M  V30 32 H -5.7721 -0.3097 2.1808 0
M  V30 33 H -3.5987 -1.0734 1.4194 0
M  V30 34 H -3.5919 0.7191 1.4537 0
M  V30 35 H -4.0326 0.7537 -1.0362 0
M  V30 36 H -4.0054 -1.0393 -1.0737 0
M  V30 37 H -1.6447 0.7069 -0.0797 0
M  V30 38 H -1.8607 0.2051 -1.7881 0
M  V30 39 H -1.8335 -2.2137 -1.1014 0
M  V30 40 H -1.55 -1.7156 0.6114 0
M  V30 41 H 0.2926 -1.0486 -1.7715 0
M  V30 42 H 0.5637 -0.5704 -0.055 0
M  V30 43 H 0.5789 -3.0569 0.5711 0
M  V30 44 H 0.3852 -3.4492 -1.1624 0
M  V30 45 H 2.6491 -2.7854 -1.6939 0
M  V30 46 H 4.2176 -2.1823 -0.0412 0
M  V30 47 H 2.4379 -2.9313 2.138 0
M  V30 48 H 1.9728 -1.2431 1.75 0
M  V30 49 H 3.8124 -1.7792 3.5884 0
M  V30 50 H 4.9374 -1.9907 2.2369 0
M  V30 51 H 3.2114 0.5143 2.8772 0
M  V30 52 H 4.9414 0.3299 3.2702 0
M  V30 53 H 3.7921 0.3558 0.3919 0
M  V30 54 H 4.4391 1.7667 1.27 0
M  V30 55 H 6.6869 0.7077 1.4663 0
M  V30 56 H 6.0768 -0.78 0.6798 0
M  V30 57 H 5.5108 0.5588 -1.4002 0
M  V30 58 H 7.2572 0.4138 -0.999 0
M  V30 59 H 5.4731 2.8815 -0.4509 0
M  V30 60 H 7.1913 2.7114 0.0758 0
M  V30 61 H 6.1664 2.6077 -2.8355 0
M  V30 62 H 6.992 4.0004 -2.0419 0
M  V30 63 H 7.8955 2.4601 -2.31 0
M  V30 END ATOM
M  V30 BEGIN BOND
M  V30 1 2 1 2
M  V30 2 1 2 3
M  V30 3 1 2 4
M  V30 4 1 4 5
M  V30 5 1 5 6
M  V30 6 1 5 7
M  V30 7 2 6 8
M  V30 8 1 6 9
M  V30 9 1 9 10
M  V30 10 1 10 11
M  V30 11 1 11 12
M  V30 12 1 12 13
M  V30 13 1 13 14
M  V30 14 1 14 15
M  V30 15 1 15 16
M  V30 16 2 16 17
M  V30 17 1 17 18
M  V30 18 1 18 19
M  V30 19 1 19 20
M  V30 20 1 20 21
M  V30 21 1 21 22
M  V30 22 1 22 23
M  V30 23 1 23 24
M  V30 24 1 24 25
M  V30 25 1 4 26
M  V30 26 1 4 27
M  V30 27 1 7 28
M  V30 28 1 7 29
M  V30 29 1 7 30
M  V30 30 1 9 31
M  V30 31 1 9 32
M  V30 32 1 10 33
M  V30 33 1 10 34
M  V30 34 1 11 35
M  V30 35 1 11 36
M  V30 36 1 12 37
M  V30 37 1 12 38
M  V30 38 1 13 39
M  V30 39 1 13 40
M  V30 40 1 14 41
M  V30 41 1 14 42
M  V30 42 1 15 43
M  V30 43 1 15 44
M  V30 44 1 16 45
M  V30 45 1 17 46
M  V30 46 1 18 47
M  V30 47 1 18 48
M  V30 48 1 19 49
M  V30 49 1 19 50
M  V30 50 1 20 51
M  V30 51 1 20 52
M  V30 52 1 21 53
M  V30 53 1 21 54
M  V30 54 1 22 55
M  V30 55 1 22 56
M  V30 56 1 23 57
M  V30 57 1 23 58
M  V30 58 1 24 59
M  V30 59 1 24 60
M  V30 60 1 25 61
M  V30 61 1 25 62
M  V30 62 1 25 63
M  V30 END BOND
M  V30 END CTAB
M  END
>  <Structure No>
2701

>  <LogS>
-0.097522226

>  <MMFF94 Energy>
43.481

$$$$
Compound 2702
Actelion Java MolfileCreator 2.0

  0  0  0  0  0  0              0 V3000
M  V30 BEGIN CTAB
M  V30 COUNTS 20 19 0 0 0
M  V30 BEGIN ATOM
M  V30 1 O 1.0032 1.8528 0.0 0
M  V30 2 C 0.8056 0.6366 0.2715 0
M  V30 3 N -0.4943 0.0605 0.0874 0
M  V30 4 C 1.9515 -0.22 0.7307 0 CFG=2
M  V30 5 C -1.6254 0.864 -0.3753 0
M  V30 6 O 2.8306 0.5486 1.5099 0
M  V30 7 C 2.6889 -0.7955 -0.4786 0
M  V30 8 C -2.8911 0.0124 -0.4907 0
M  V30 9 O -3.9571 0.7885 -0.9657 0
M  V30 10 H -0.6249 -0.9575 0.2867 0
M  V30 11 H 1.548 -1.0597 1.3426 0
M  V30 12 H -1.8047 1.693 0.3431 0
M  V30 13 H -1.3853 1.2981 -1.3702 0
M  V30 14 H 3.41 -0.0895 2.003 0
M  V30 15 H 3.5182 -1.451 -0.1384 0
M  V30 16 H 1.9948 -1.4023 -1.0989 0
M  V30 17 H 3.1123 0.022 -1.1009 0
M  V30 18 H -2.7116 -0.8173 -1.207 0
M  V30 19 H -3.1464 -0.4326 0.498 0
M  V30 20 H -4.267 1.3429 -0.2026 0
M  V30 END ATOM
M  V30 BEGIN BOND
M  V30 1 2 1 2
M  V30 2 1 2 3
M  V30 3 1 2 4
M  V30 4 1 3 5
M  V30 5 1 4 6
M  V30 6 1 4 7
M  V30 7 1 5 8
M  V30 8 1 8 9
M  V30 9 1 3 10
M  V30 10 1 4 11
M  V30 11 1 5 12
M  V30 12 1 5 13
M  V30 13 1 6 14
M  V30 14 1 7 15
M  V30 15 1 7 16
M  V30 16 1 7 17
M  V30 17 1 8 18
M  V30 18 1 8 19
M  V30 19 1 9 20
M  V30 END BOND
M  V30 BEGIN COLLECTION
M  V30 MDLV30/STEABS ATOMS=(1 4)
M  V30 END COLLECTION
M  V30 END CTAB
M  END
>  <Structure No>
2702

>  <LogS>
1.307032379

>  <MMFF94 Energy>
24.674

$$$$
Compound 2703
Actelion Java MolfileCreator 2.0

  0  0  0  0  0  0              0 V3000
M  V30 BEGIN CTAB
M  V30 COUNTS 17 17 0 0 0
M  V30 BEGIN ATOM
M  V30 1 O 0.2348 1.0965 -0.5481 0
M  V30 2 C 0.5063 -0.2718 -0.3415 0 CFG=2
M  V30 3 C -1.153 1.2878 -0.3825 0
M  V30 4 C -0.6891 -0.9061 0.3506 0
M  V30 5 C 1.7927 -0.4399 0.4758 0
M  V30 6 C -1.823 -0.0449 -0.1077 0
M  V30 7 O 2.895 0.0439 -0.243 0
M  V30 8 H 0.6467 -0.7564 -1.3343 0
M  V30 9 H -1.3182 1.976 0.4746 0
M  V30 10 H -1.578 1.7547 -1.2967 0
M  V30 11 H -0.5982 -0.8389 1.4584 0
M  V30 12 H -0.8279 -1.9668 0.0474 0
M  V30 13 H 1.7048 0.086 1.4547 0
M  V30 14 H 1.9574 -1.5191 0.6824 0
M  V30 15 H -2.616 0.0411 0.6671 0
M  V30 16 H -2.256 -0.4545 -1.0474 0
M  V30 17 H 2.8936 1.0312 -0.1382 0
M  V30 END ATOM
M  V30 BEGIN BOND
M  V30 1 1 1 2
M  V30 2 1 1 3
M  V30 3 1 2 4
M  V30 4 1 2 5
M  V30 5 1 3 6
M  V30 6 1 5 7
M  V30 7 1 4 6
M  V30 8 1 2 8
M  V30 9 1 3 9
M  V30 10 1 3 10
M  V30 11 1 4 11
M  V30 12 1 4 12
M  V30 13 1 5 13
M  V30 14 1 5 14
M  V30 15 1 6 15
M  V30 16 1 6 16
M  V30 17 1 7 17
M  V30 END BOND
M  V30 BEGIN COLLECTION
M  V30 MDLV30/STEABS ATOMS=(1 2)
M  V30 END COLLECTION
M  V30 END CTAB
M  END
>  <Structure No>
2703

>  <LogS>
0.38877392

>  <MMFF94 Energy>
28.843

$$$$
Compound 2704
Actelion Java MolfileCreator 2.0

  0  0  0  0  0  0              0 V3000
M  V30 BEGIN CTAB
M  V30 COUNTS 19 18 0 0 0
M  V30 BEGIN ATOM
M  V30 1 O 0.0773 -1.5479 0.9285 0
M  V30 2 C -0.4153 -0.4269 0.6205 0
M  V30 3 O 0.425 0.6525 0.3202 0
M  V30 4 C -1.883 -0.2388 0.5797 0
M  V30 5 C 1.8475 0.5557 0.2795 0
M  V30 6 C -2.7149 -1.2664 0.7889 0
M  V30 7 C -2.4391 1.1124 0.2241 0
M  V30 8 C 2.3025 -0.1392 -1.0006 0
M  V30 9 O 3.7016 -0.165 -1.0467 0
M  V30 10 H 2.2694 1.583 0.3005 0
M  V30 11 H 2.223 0.0108 1.1731 0
M  V30 12 H -3.7885 -1.136 0.7291 0
M  V30 13 H -2.3433 -2.2565 1.0211 0
M  V30 14 H -1.8732 1.9091 0.7515 0
M  V30 15 H -3.5073 1.2073 0.5167 0
M  V30 16 H -2.3516 1.2706 -0.8711 0
M  V30 17 H 1.9073 0.4174 -1.8797 0
M  V30 18 H 1.9085 -1.1791 -1.0237 0
M  V30 19 H 3.9401 -0.6189 -1.8963 0
M  V30 END ATOM
M  V30 BEGIN BOND
M  V30 1 2 1 2
M  V30 2 1 2 3
M  V30 3 1 2 4
M  V30 4 1 3 5
M  V30 5 2 4 6
M  V30 6 1 4 7
M  V30 7 1 5 8
M  V30 8 1 8 9
M  V30 9 1 5 10
M  V30 10 1 5 11
M  V30 11 1 6 12
M  V30 12 1 6 13
M  V30 13 1 7 14
M  V30 14 1 7 15
M  V30 15 1 7 16
M  V30 16 1 8 17
M  V30 17 1 8 18
M  V30 18 1 9 19
M  V30 END BOND
M  V30 END CTAB
M  END
>  <Structure No>
2704

>  <LogS>
-0.960255718

>  <MMFF94 Energy>
15.99

$$$$
Compound 2705
Actelion Java MolfileCreator 2.0

  0  0  0  0  0  0              0 V3000
M  V30 BEGIN CTAB
M  V30 COUNTS 19 19 0 0 0
M  V30 BEGIN ATOM
M  V30 1 S 3.3264 -0.4984 0.4153 0
M  V30 2 O 3.8696 -1.4635 -0.6005 0
M  V30 3 O 3.5482 -1.0674 1.7886 0
M  V30 4 O 4.1321 0.9689 0.2805 0 CHG=-1
M  V30 5 C 1.6053 -0.2489 0.1426 0
M  V30 6 C 0.7597 0.0624 1.2141 0
M  V30 7 C 1.0777 -0.331 -1.1512 0
M  V30 8 C -0.6059 0.2721 0.9987 0
M  V30 9 C -0.2868 -0.1213 -1.3702 0
M  V30 10 C -1.1477 0.1703 -0.2987 0
M  V30 11 C -2.587 0.3916 -0.5863 0
M  V30 12 C -3.5496 0.3662 0.3366 0
M  V30 13 H 1.1578 0.1512 2.217 0
M  V30 14 H 1.7216 -0.5547 -1.9923 0
M  V30 15 H -1.2206 0.534 1.848 0
M  V30 16 H -0.6726 -0.1926 -2.3799 0
M  V30 17 H -2.8854 0.5493 -1.6162 0
M  V30 18 H -3.3506 0.1646 1.379 0
M  V30 19 H -4.5784 0.5248 0.0403 0
M  V30 END ATOM
M  V30 BEGIN BOND
M  V30 1 2 1 2
M  V30 2 2 1 3
M  V30 3 1 1 4
M  V30 4 1 1 5
M  V30 5 2 5 6
M  V30 6 1 5 7
M  V30 7 1 6 8
M  V30 8 2 7 9
M  V30 9 2 8 10
M  V30 10 1 10 11
M  V30 11 2 11 12
M  V30 12 1 9 10
M  V30 13 1 6 13
M  V30 14 1 7 14
M  V30 15 1 8 15
M  V30 16 1 9 16
M  V30 17 1 11 17
M  V30 18 1 12 18
M  V30 19 1 12 19
M  V30 END BOND
M  V30 END CTAB
M  END
>  <Structure No>
2705

>  <LogS>
-0.033251081

>  <MMFF94 Energy>
52.628

$$$$
Compound 2706
Actelion Java MolfileCreator 2.0

  0  0  0  0  0  0              0 V3000
M  V30 BEGIN CTAB
M  V30 COUNTS 15 14 0 0 0
M  V30 BEGIN ATOM
M  V30 1 O -0.5388 -1.5402 -0.7698 0
M  V30 2 C 0.4458 -1.1385 -0.0942 0
M  V30 3 C 0.5436 0.2597 0.3885 0
M  V30 4 C 1.5451 -2.0989 0.2289 0
M  V30 5 C -0.3558 1.2375 0.1829 0
M  V30 6 O -0.0841 2.4956 0.7205 0
M  V30 7 C -1.6296 1.0394 -0.5925 0
M  V30 8 H 1.4283 0.5117 0.9621 0
M  V30 9 H 1.3286 -3.1009 -0.1991 0
M  V30 10 H 2.5019 -1.7283 -0.1951 0
M  V30 11 H 1.6457 -2.195 1.3304 0
M  V30 12 H -0.7199 3.2755 0.6023 0
M  V30 13 H -2.2138 1.9823 -0.6317 0
M  V30 14 H -1.3991 0.7389 -1.6361 0
M  V30 15 H -2.2606 0.2692 -0.101 0
M  V30 END ATOM
M  V30 BEGIN BOND
M  V30 1 2 1 2
M  V30 2 1 2 3
M  V30 3 1 2 4
M  V30 4 2 3 5
M  V30 5 1 5 6
M  V30 6 1 5 7
M  V30 7 1 3 8
M  V30 8 1 4 9
M  V30 9 1 4 10
M  V30 10 1 4 11
M  V30 11 1 6 12
M  V30 12 1 7 13
M  V30 13 1 7 14
M  V30 14 1 7 15
M  V30 END BOND
M  V30 END CTAB
M  END
>  <Structure No>
2706

>  <LogS>
0.186448508

>  <MMFF94 Energy>
13.107

$$$$
Compound 2707
Actelion Java MolfileCreator 2.0

  0  0  0  0  0  0              0 V3000
M  V30 BEGIN CTAB
M  V30 COUNTS 17 16 0 0 0
M  V30 BEGIN ATOM
M  V30 1 O 0.5479 1.4094 1.4878 0
M  V30 2 C 0.9114 0.9706 0.3623 0
M  V30 3 O 2.132 0.3052 0.216 0
M  V30 4 C 0.0098 1.1207 -0.8191 0
M  V30 5 C 3.0286 0.1031 1.3015 0
M  V30 6 C -0.8683 -0.0811 -0.9426 0
M  V30 7 O -0.4955 -1.0602 -1.6453 0
M  V30 8 O -2.0767 -0.125 -0.241 0
M  V30 9 C -2.9506 -1.2463 -0.2909 0
M  V30 10 H -0.6184 2.0302 -0.7039 0
M  V30 11 H 0.6203 1.2408 -1.7399 0
M  V30 12 H 2.5358 -0.4983 2.0947 0
M  V30 13 H 3.9228 -0.4439 0.9388 0
M  V30 14 H 3.3494 1.0818 1.7173 0
M  V30 15 H -3.2852 -1.4214 -1.3353 0
M  V30 16 H -2.4319 -2.1498 0.0937 0
M  V30 17 H -3.8389 -1.0446 0.3422 0
M  V30 END ATOM
M  V30 BEGIN BOND
M  V30 1 2 1 2
M  V30 2 1 2 3
M  V30 3 1 2 4
M  V30 4 1 3 5
M  V30 5 1 4 6
M  V30 6 2 6 7
M  V30 7 1 6 8
M  V30 8 1 8 9
M  V30 9 1 4 10
M  V30 10 1 4 11
M  V30 11 1 5 12
M  V30 12 1 5 13
M  V30 13 1 5 14
M  V30 14 1 9 15
M  V30 15 1 9 16
M  V30 16 1 9 17
M  V30 END BOND
M  V30 END CTAB
M  END
>  <Structure No>
2707

>  <LogS>
0.027341968

>  <MMFF94 Energy>
-32.492

$$$$
Compound 2708
Actelion Java MolfileCreator 2.0

  0  0  0  0  0  0              0 V3000
M  V30 BEGIN CTAB
M  V30 COUNTS 18 17 0 0 0
M  V30 BEGIN ATOM
M  V30 1 O 0.0 -2.2276 1.3196 0
M  V30 2 C 0.1573 -0.9932 1.5191 0
M  V30 3 O 0.618 -0.5603 2.7574 0 CHG=-1
M  V30 4 C -0.0998 0.0039 0.4048 0
M  V30 5 O -0.058 1.3162 0.92 0
M  V30 6 C -1.4978 -0.275 -0.2148 0
M  V30 7 C 1.0024 -0.1384 -0.6744 0
M  V30 8 C -1.9061 0.7629 -1.219 0
M  V30 9 C 2.3746 0.1375 -0.1316 0
M  V30 10 O -1.7503 0.5504 -2.4503 0
M  V30 11 O -2.4371 1.9737 -0.7928 0 CHG=-1
M  V30 12 O 3.1026 -0.8102 0.2645 0
M  V30 13 O 2.8333 1.445 -0.0313 0 CHG=-1
M  V30 14 H -0.787 1.4063 1.5895 0
M  V30 15 H -1.5094 -1.2764 -0.6995 0
M  V30 16 H -2.2654 -0.2953 0.5897 0
M  V30 17 H 0.8163 0.5781 -1.5023 0
M  V30 18 H 0.9796 -1.1607 -1.113 0
M  V30 END ATOM
M  V30 BEGIN BOND
M  V30 1 2 1 2
M  V30 2 1 2 3
M  V30 3 1 2 4
M  V30 4 1 4 5
M  V30 5 1 4 6
M  V30 6 1 4 7
M  V30 7 1 6 8
M  V30 8 1 7 9
M  V30 9 2 8 10
M  V30 10 1 8 11
M  V30 11 2 9 12
M  V30 12 1 9 13
M  V30 13 1 5 14
M  V30 14 1 6 15
M  V30 15 1 6 16
M  V30 16 1 7 17
M  V30 17 1 7 18
M  V30 END BOND
M  V30 END CTAB
M  END
>  <Structure No>
2708

>  <LogS>
-1.546125822

>  <MMFF94 Energy>
234.11

$$$$
Compound 2709
Actelion Java MolfileCreator 2.0

  0  0  0  0  0  0              0 V3000
M  V30 BEGIN CTAB
M  V30 COUNTS 28 27 0 0 0
M  V30 BEGIN ATOM
M  V30 1 O 2.5284 0.0789 -2.9239 0
M  V30 2 C 3.001 0.3133 -1.7804 0
M  V30 3 O 3.642 1.5225 -1.5387 0 CHG=-1
M  V30 4 C 2.8402 -0.6924 -0.6761 0 CFG=1
M  V30 5 O 4.0569 -0.799 0.016 0
M  V30 6 C 1.7046 -0.2905 0.3018 0 CFG=1
M  V30 7 O 2.0046 0.9527 0.8868 0
M  V30 8 C 0.313 -0.2239 -0.3917 0 CFG=1
M  V30 9 O 0.0949 -1.3854 -1.1552 0
M  V30 10 C -0.8495 -0.0149 0.6278 0 CFG=1
M  V30 11 O -0.6191 1.1338 1.4064 0
M  V30 12 C -2.2383 0.0727 -0.0658 0 CFG=1
M  V30 13 O -2.5215 -1.1467 -0.7033 0
M  V30 14 C -3.3649 0.3711 0.94 0
M  V30 15 O -3.2943 1.7007 1.3762 0
M  V30 16 H 2.6044 -1.6813 -1.1339 0
M  V30 17 H 4.0103 -1.6322 0.5542 0
M  V30 18 H 1.6447 -1.0726 1.096 0
M  V30 19 H 2.6447 0.7805 1.6258 0
M  V30 20 H 0.3144 0.6404 -1.0912 0
M  V30 21 H 0.1027 -2.158 -0.531 0
M  V30 22 H -0.8657 -0.887 1.3182 0
M  V30 23 H -0.6005 1.9124 0.7899 0
M  V30 24 H -2.207 0.8933 -0.8218 0
M  V30 25 H -3.1912 -0.9557 -1.4113 0
M  V30 26 H -3.2918 -0.3218 1.8085 0
M  V30 27 H -4.349 0.2075 0.4459 0
M  V30 28 H -4.029 1.8148 2.0336 0
M  V30 END ATOM
M  V30 BEGIN BOND
M  V30 1 2 1 2
M  V30 2 1 2 3
M  V30 3 1 2 4
M  V30 4 1 4 5
M  V30 5 1 4 6
M  V30 6 1 6 7
M  V30 7 1 6 8
M  V30 8 1 8 9
M  V30 9 1 8 10
M  V30 10 1 10 11
M  V30 11 1 10 12
M  V30 12 1 12 13
M  V30 13 1 12 14
M  V30 14 1 14 15
M  V30 15 1 4 16
M  V30 16 1 5 17
M  V30 17 1 6 18
M  V30 18 1 7 19
M  V30 19 1 8 20
M  V30 20 1 9 21
M  V30 21 1 10 22
M  V30 22 1 11 23
M  V30 23 1 12 24
M  V30 24 1 13 25
M  V30 25 1 14 26
M  V30 26 1 14 27
M  V30 27 1 15 28
M  V30 END BOND
M  V30 BEGIN COLLECTION
M  V30 MDLV30/STEABS ATOMS=(5 4 6 8 10 12)
M  V30 END COLLECTION
M  V30 END CTAB
M  END
>  <Structure No>
2709

>  <LogS>
0.70666632

>  <MMFF94 Energy>
127.67

$$$$
Compound 2710
Actelion Java MolfileCreator 2.0

  0  0  0  0  0  0              0 V3000
M  V30 BEGIN CTAB
M  V30 COUNTS 22 21 0 0 0
M  V30 BEGIN ATOM
M  V30 1 N 0.0757 -1.8954 -0.682 0 CHG=1
M  V30 2 C 0.0357 -0.666 -0.2589 0
M  V30 3 N -1.2356 -0.0284 -0.0161 0
M  V30 4 N 1.2628 0.0586 -0.0332 0
M  V30 5 C -1.4337 1.3814 -0.3554 0
M  V30 6 C -2.2918 -0.7445 0.7022 0
M  V30 7 C 1.3853 0.9706 1.1048 0
M  V30 8 C 2.344 -0.0019 -1.0188 0
M  V30 9 H 0.9827 -2.3868 -0.8385 0
M  V30 10 H -0.7979 -2.4309 -0.8785 0
M  V30 11 H -0.6568 1.7307 -1.0689 0
M  V30 12 H -1.3902 1.9994 0.5658 0
M  V30 13 H -2.4249 1.5176 -0.8374 0
M  V30 14 H -2.7269 -1.5325 0.0537 0
M  V30 15 H -1.8753 -1.2079 1.6217 0
M  V30 16 H -3.1085 -0.0527 1.0013 0
M  V30 17 H 0.6038 0.7617 1.8667 0
M  V30 18 H 2.3764 0.8389 1.5884 0
M  V30 19 H 1.2875 2.0204 0.7573 0
M  V30 20 H 2.837 -0.9952 -0.9829 0
M  V30 21 H 3.1132 0.7734 -0.8131 0
M  V30 22 H 1.9369 0.1745 -2.0368 0
M  V30 END ATOM
M  V30 BEGIN BOND
M  V30 1 2 1 2
M  V30 2 1 2 3
M  V30 3 1 2 4
M  V30 4 1 3 5
M  V30 5 1 3 6
M  V30 6 1 4 7
M  V30 7 1 4 8
M  V30 8 1 1 9
M  V30 9 1 1 10
M  V30 10 1 5 11
M  V30 11 1 5 12
M  V30 12 1 5 13
M  V30 13 1 6 14
M  V30 14 1 6 15
M  V30 15 1 6 16
M  V30 16 1 7 17
M  V30 17 1 7 18
M  V30 18 1 7 19
M  V30 19 1 8 20
M  V30 20 1 8 21
M  V30 21 1 8 22
M  V30 END BOND
M  V30 END CTAB
M  END
>  <Structure No>
2710

>  <LogS>
0.938622926

>  <MMFF94 Energy>
-111.91

$$$$
Compound 2711
Actelion Java MolfileCreator 2.0

  0  0  0  0  0  0              0 V3000
M  V30 BEGIN CTAB
M  V30 COUNTS 20 19 0 0 0
M  V30 BEGIN ATOM
M  V30 1 S 3.06 1.9318 0.0 0
M  V30 2 C 2.924 0.3752 -0.9277 0
M  V30 3 C 1.9351 -0.5238 -0.2642 0
M  V30 4 O 2.335 -1.4241 0.5235 0
M  V30 5 O 0.5701 -0.3276 -0.4901 0
M  V30 6 C -0.4345 -1.1207 0.135 0
M  V30 7 C -1.8287 -0.6465 -0.3049 0 CFG=1
M  V30 8 O -2.8256 -1.5072 0.1872 0
M  V30 9 C -2.1136 0.8074 0.1081 0
M  V30 10 O -2.0505 0.9486 1.5011 0
M  V30 11 H 3.6264 1.3022 1.1253 0
M  V30 12 H 2.5856 0.5984 -1.961 0
M  V30 13 H 3.9201 -0.1138 -0.9793 0
M  V30 14 H -0.3346 -1.05 1.2404 0
M  V30 15 H -0.3009 -2.1831 -0.1644 0
M  V30 16 H -1.8663 -0.6936 -1.415 0
M  V30 17 H -2.7585 -1.5136 1.1779 0
M  V30 18 H -1.3725 1.4846 -0.3728 0
M  V30 19 H -3.1279 1.0928 -0.2504 0
M  V30 20 H -2.2396 1.9045 1.6897 0
M  V30 END ATOM
M  V30 BEGIN BOND
M  V30 1 1 1 2
M  V30 2 1 2 3
M  V30 3 2 3 4
M  V30 4 1 3 5
M  V30 5 1 5 6
M  V30 6 1 6 7
M  V30 7 1 7 8
M  V30 8 1 7 9
M  V30 9 1 9 10
M  V30 10 1 1 11
M  V30 11 1 2 12
M  V30 12 1 2 13
M  V30 13 1 6 14
M  V30 14 1 6 15
M  V30 15 1 7 16
M  V30 16 1 8 17
M  V30 17 1 9 18
M  V30 18 1 9 19
M  V30 19 1 10 20
M  V30 END BOND
M  V30 BEGIN COLLECTION
M  V30 MDLV30/STEABS ATOMS=(1 7)
M  V30 END COLLECTION
M  V30 END CTAB
M  END
>  <Structure No>
2711

>  <LogS>
0.779374207

>  <MMFF94 Energy>
50.504

$$$$
Compound 2712
Actelion Java MolfileCreator 2.0

  0  0  0  0  0  0              0 V3000
M  V30 BEGIN CTAB
M  V30 COUNTS 31 30 0 0 0
M  V30 BEGIN ATOM
M  V30 1 O -0.31 -0.5425 0.5425 0
M  V30 2 C 1.0318 -0.8826 0.8371 0
M  V30 3 C -1.0633 -1.7011 0.2479 0
M  V30 4 C 1.9101 -0.6796 -0.3994 0
M  V30 5 C -2.4589 -1.2932 -0.2057 0
M  V30 6 O 3.2565 -1.0038 -0.1039 0
M  V30 7 O -3.1069 -0.5975 0.8397 0
M  V30 8 C 3.9944 0.1443 0.2727 0
M  V30 9 C -4.341 -0.0659 0.3933 0
M  V30 10 C 4.6811 0.759 -0.9483 0
M  V30 11 C -4.1772 1.3969 -0.0134 0
M  V30 12 O 5.4961 1.831 -0.5596 0
M  V30 13 O -3.6853 2.1389 1.0679 0
M  V30 14 H 1.1579 -1.9204 1.2293 0
M  V30 15 H 1.3843 -0.2017 1.6397 0
M  V30 16 H -0.5902 -2.2893 -0.5711 0
M  V30 17 H -1.1577 -2.3426 1.1535 0
M  V30 18 H 1.7797 0.3529 -0.8009 0
M  V30 19 H 1.5641 -1.3691 -1.1974 0
M  V30 20 H -3.0281 -2.2153 -0.4612 0
M  V30 21 H -2.3602 -0.659 -1.1165 0
M  V30 22 H 3.3797 0.9103 0.8015 0
M  V30 23 H 4.7798 -0.1761 0.9898 0
M  V30 24 H -5.062 -0.1155 1.237 0
M  V30 25 H -4.801 -0.6432 -0.444 0
M  V30 26 H 5.3163 -0.0106 -1.4356 0
M  V30 27 H 3.9246 1.0988 -1.6912 0
M  V30 28 H -5.1671 1.799 -0.3245 0
M  V30 29 H -3.4768 1.4719 -0.8743 0
M  V30 30 H 4.8902 2.5958 -0.3754 0
M  V30 31 H -3.5982 3.0728 0.7435 0
M  V30 END ATOM
M  V30 BEGIN BOND
M  V30 1 1 1 2
M  V30 2 1 1 3
M  V30 3 1 2 4
M  V30 4 1 3 5
M  V30 5 1 4 6
M  V30 6 1 5 7
M  V30 7 1 6 8
M  V30 8 1 7 9
M  V30 9 1 8 10
M  V30 10 1 9 11
M  V30 11 1 10 12
M  V30 12 1 11 13
M  V30 13 1 2 14
M  V30 14 1 2 15
M  V30 15 1 3 16
M  V30 16 1 3 17
M  V30 17 1 4 18
M  V30 18 1 4 19
M  V30 19 1 5 20
M  V30 20 1 5 21
M  V30 21 1 8 22
M  V30 22 1 8 23
M  V30 23 1 9 24
M  V30 24 1 9 25
M  V30 25 1 10 26
M  V30 26 1 10 27
M  V30 27 1 11 28
M  V30 28 1 11 29
M  V30 29 1 12 30
M  V30 30 1 13 31
M  V30 END BOND
M  V30 END CTAB
M  END
>  <Structure No>
2712

>  <LogS>
0.711690398

>  <MMFF94 Energy>
84.933

$$$$
Compound 2713
Actelion Java MolfileCreator 2.0

  0  0  0  0  0  0              0 V3000
M  V30 BEGIN CTAB
M  V30 COUNTS 22 21 0 0 0
M  V30 BEGIN ATOM
M  V30 1 O 2.2319 1.0769 1.5388 0
M  V30 2 C 2.3718 0.4348 0.3002 0
M  V30 3 C 1.0167 0.2997 -0.4115 0
M  V30 4 C -0.0766 -0.3983 0.4388 0
M  V30 5 C -1.4375 -0.4198 -0.3025 0
M  V30 6 C 0.329 -1.8396 0.7923 0
M  V30 7 C -2.0952 0.9617 -0.4488 0
M  V30 8 O -2.2457 1.5871 0.7972 0
M  V30 9 H 2.0616 2.0354 1.3437 0
M  V30 10 H 3.0729 1.0077 -0.348 0
M  V30 11 H 2.8278 -0.564 0.4569 0
M  V30 12 H 0.6873 1.3246 -0.6783 0
M  V30 13 H 1.1662 -0.2582 -1.3615 0
M  V30 14 H -0.2042 0.1554 1.3945 0
M  V30 15 H -2.1512 -1.0686 0.2516 0
M  V30 16 H -1.3075 -0.8659 -1.3128 0
M  V30 17 H 0.562 -2.4183 -0.127 0
M  V30 18 H 1.2122 -1.8473 1.4633 0
M  V30 19 H -0.4924 -2.3519 1.3373 0
M  V30 20 H -3.0894 0.8443 -0.9367 0
M  V30 21 H -1.4925 1.6137 -1.1122 0
M  V30 22 H -2.982 1.1134 1.2653 0
M  V30 END ATOM
M  V30 BEGIN BOND
M  V30 1 1 1 2
M  V30 2 1 2 3
M  V30 3 1 3 4
M  V30 4 1 4 5
M  V30 5 1 4 6
M  V30 6 1 5 7
M  V30 7 1 7 8
M  V30 8 1 1 9
M  V30 9 1 2 10
M  V30 10 1 2 11
M  V30 11 1 3 12
M  V30 12 1 3 13
M  V30 13 1 4 14
M  V30 14 1 5 15
M  V30 15 1 5 16
M  V30 16 1 6 17
M  V30 17 1 6 18
M  V30 18 1 6 19
M  V30 19 1 7 20
M  V30 20 1 7 21
M  V30 21 1 8 22
M  V30 END BOND
M  V30 END CTAB
M  END
>  <Structure No>
2713

>  <LogS>
0.927470714

>  <MMFF94 Energy>
9.5574

$$$$
Compound 2714
Actelion Java MolfileCreator 2.0

  0  0  0  0  0  0              0 V3000
M  V30 BEGIN CTAB
M  V30 COUNTS 19 18 0 0 0
M  V30 BEGIN ATOM
M  V30 1 O -3.4104 0.0 0.1513 0
M  V30 2 C -2.0987 0.2769 -0.2536 0
M  V30 3 C -1.2029 -0.9256 0.0685 0
M  V30 4 N 0.1628 -0.7713 -0.4653 0 CHG=1
M  V30 5 C 0.9733 0.1611 0.3362 0
M  V30 6 C 2.4167 0.2077 -0.1775 0
M  V30 7 O 3.1823 1.0842 0.6038 0
M  V30 8 H -3.9473 0.8002 -0.0862 0
M  V30 9 H -1.7342 1.1793 0.2829 0
M  V30 10 H -2.0829 0.4728 -1.3493 0
M  V30 11 H -1.1799 -1.094 1.1688 0
M  V30 12 H -1.6644 -1.8299 -0.3882 0
M  V30 13 H 0.6201 -1.7133 -0.4481 0
M  V30 14 H 0.1239 -0.4466 -1.4601 0
M  V30 15 H 0.5501 1.1871 0.2785 0
M  V30 16 H 0.9866 -0.1583 1.4026 0
M  V30 17 H 2.8662 -0.8057 -0.1114 0
M  V30 18 H 2.4362 0.5243 -1.2454 0
M  V30 19 H 2.9387 2.0042 0.3205 0
M  V30 END ATOM
M  V30 BEGIN BOND
M  V30 1 1 1 2
M  V30 2 1 2 3
M  V30 3 1 3 4
M  V30 4 1 4 5
M  V30 5 1 5 6
M  V30 6 1 6 7
M  V30 7 1 1 8
M  V30 8 1 2 9
M  V30 9 1 2 10
M  V30 10 1 3 11
M  V30 11 1 3 12
M  V30 12 1 4 13
M  V30 13 1 4 14
M  V30 14 1 5 15
M  V30 15 1 5 16
M  V30 16 1 6 17
M  V30 17 1 6 18
M  V30 18 1 7 19
M  V30 END BOND
M  V30 END CTAB
M  END
>  <Structure No>
2714

>  <LogS>
0.782018876

>  <MMFF94 Energy>
32.629

$$$$
Compound 2715
Actelion Java MolfileCreator 2.0

  0  0  0  0  0  0              0 V3000
M  V30 BEGIN CTAB
M  V30 COUNTS 6 5 0 0 0
M  V30 BEGIN ATOM
M  V30 1 O 0.9304 -0.143 0.5724 0
M  V30 2 C -0.3609 -0.0368 0.0463 0
M  V30 3 H 1.5479 0.0772 -0.1723 0
M  V30 4 H -1.0982 -0.274 0.8406 0
M  V30 5 H -0.5442 0.9985 -0.3142 0
M  V30 6 H -0.494 -0.7553 -0.7912 0
M  V30 END ATOM
M  V30 BEGIN BOND
M  V30 1 1 1 2
M  V30 2 1 1 3
M  V30 3 1 2 4
M  V30 4 1 2 5
M  V30 5 1 2 6
M  V30 END BOND
M  V30 END CTAB
M  END
>  <Structure No>
2715

>  <LogS>
1.494280384

>  <MMFF94 Energy>
0.66577

$$$$
Compound 2716
Actelion Java MolfileCreator 2.0

  0  0  0  0  0  0              0 V3000
M  V30 BEGIN CTAB
M  V30 COUNTS 26 25 0 0 0
M  V30 BEGIN ATOM
M  V30 1 O -1.3034 3.0692 0.9966 0
M  V30 2 C -0.6623 2.2208 0.0853 0
M  V30 3 C -0.612 0.7978 0.6608 0
M  V30 4 N -0.191 -0.2218 -0.3375 0 CHG=1
M  V30 5 C 1.1651 0.0236 -0.9015 0
M  V30 6 C -0.2916 -1.5952 0.2303 0
M  V30 7 C 2.2947 0.0622 0.1427 0
M  V30 8 C -1.7216 -2.1626 0.194 0
M  V30 9 O 3.528 0.1405 -0.5162 0
M  V30 10 O -2.1369 -2.3714 -1.1301 0
M  V30 11 H -1.32 3.9668 0.5735 0
M  V30 12 H -1.2235 2.2169 -0.8757 0
M  V30 13 H 0.3688 2.5964 -0.0923 0
M  V30 14 H -1.6359 0.5635 1.0224 0
M  V30 15 H 0.0457 0.7813 1.5566 0
M  V30 16 H -0.85 -0.1554 -1.1488 0
M  V30 17 H 1.4035 -0.7659 -1.6498 0
M  V30 18 H 1.176 0.9724 -1.4803 0
M  V30 19 H 0.3517 -2.3087 -0.3327 0
M  V30 20 H 0.0668 -1.6115 1.2843 0
M  V30 21 H 2.274 -0.8553 0.7691 0
M  V30 22 H 2.18 0.9538 0.7961 0
M  V30 23 H -1.7195 -3.1449 0.712 0
M  V30 24 H -2.434 -1.5126 0.7491 0
M  V30 25 H 4.2205 0.1608 0.1945 0
M  V30 26 H -2.7233 -1.6089 -1.3757 0
M  V30 END ATOM
M  V30 BEGIN BOND
M  V30 1 1 1 2
M  V30 2 1 2 3
M  V30 3 1 3 4
M  V30 4 1 4 5
M  V30 5 1 4 6
M  V30 6 1 5 7
M  V30 7 1 6 8
M  V30 8 1 7 9
M  V30 9 1 8 10
M  V30 10 1 1 11
M  V30 11 1 2 12
M  V30 12 1 2 13
M  V30 13 1 3 14
M  V30 14 1 3 15
M  V30 15 1 4 16
M  V30 16 1 5 17
M  V30 17 1 5 18
M  V30 18 1 6 19
M  V30 19 1 6 20
M  V30 20 1 7 21
M  V30 21 1 7 22
M  V30 22 1 8 23
M  V30 23 1 8 24
M  V30 24 1 9 25
M  V30 25 1 10 26
M  V30 END BOND
M  V30 END CTAB
M  END
>  <Structure No>
2716

>  <LogS>
0.679351138

>  <MMFF94 Energy>
63.205

$$$$
Compound 2717
Actelion Java MolfileCreator 2.0

  0  0  0  0  0  0              0 V3000
M  V30 BEGIN CTAB
M  V30 COUNTS 15 15 0 0 0
M  V30 BEGIN ATOM
M  V30 1 S -0.9177 1.0012 0.3336 0
M  V30 2 O -1.2479 1.4609 1.7259 0
M  V30 3 O -1.7122 1.7699 -0.6844 0
M  V30 4 C -1.1438 -0.742 0.152 0
M  V30 5 C 0.8176 1.0963 0.0134 0
M  V30 6 C 0.2658 -1.3244 0.0959 0
M  V30 7 C 1.2005 -0.2789 -0.5267 0
M  V30 8 H -1.6801 -0.9473 -0.799 0
M  V30 9 H -1.7171 -1.16 1.0064 0
M  V30 10 H 1.0427 1.8945 -0.7252 0
M  V30 11 H 1.3575 1.2975 0.9632 0
M  V30 12 H 0.6107 -1.5485 1.1294 0
M  V30 13 H 0.2797 -2.2658 -0.4944 0
M  V30 14 H 1.069 -0.2879 -1.6312 0
M  V30 15 H 2.2618 -0.5119 -0.2939 0
M  V30 END ATOM
M  V30 BEGIN BOND
M  V30 1 2 1 2
M  V30 2 2 1 3
M  V30 3 1 1 4
M  V30 4 1 1 5
M  V30 5 1 4 6
M  V30 6 1 5 7
M  V30 7 1 6 7
M  V30 8 1 4 8
M  V30 9 1 4 9
M  V30 10 1 5 10
M  V30 11 1 5 11
M  V30 12 1 6 12
M  V30 13 1 6 13
M  V30 14 1 7 14
M  V30 15 1 7 15
M  V30 END BOND
M  V30 END CTAB
M  END
>  <Structure No>
2717

>  <LogS>
-0.079806903

>  <MMFF94 Energy>
4.6113

$$$$
Compound 2718
Actelion Java MolfileCreator 2.0

  0  0  0  0  0  0              0 V3000
M  V30 BEGIN CTAB
M  V30 COUNTS 19 18 0 0 0
M  V30 BEGIN ATOM
M  V30 1 O 0.0 -1.7805 0.2321 0
M  V30 2 C -0.5022 -0.6489 -0.0162 0
M  V30 3 O 0.2563 0.329 -0.6716 0
M  V30 4 C -1.8971 -0.3456 0.3757 0
M  V30 5 C 1.6227 0.1506 -1.039 0
M  V30 6 C -2.6255 -1.2297 1.068 0
M  V30 7 C -2.4715 1.0059 0.0525 0
M  V30 8 C 2.5306 0.2838 0.184 0
M  V30 9 O 3.8732 0.1345 -0.1891 0
M  V30 10 H 1.8921 0.9367 -1.7759 0
M  V30 11 H 1.766 -0.8395 -1.5241 0
M  V30 12 H -2.2296 -2.2007 1.3378 0
M  V30 13 H -3.6357 -0.9963 1.3814 0
M  V30 14 H -2.1941 1.3017 -0.9811 0
M  V30 15 H -2.0695 1.7573 0.7641 0
M  V30 16 H -3.5811 1.0073 0.1175 0
M  V30 17 H 2.2805 -0.5062 0.9224 0
M  V30 18 H 2.3699 1.2722 0.672 0
M  V30 19 H 4.1466 0.989 -0.6146 0
M  V30 END ATOM
M  V30 BEGIN BOND
M  V30 1 2 1 2
M  V30 2 1 2 3
M  V30 3 1 2 4
M  V30 4 1 3 5
M  V30 5 2 4 6
M  V30 6 1 4 7
M  V30 7 1 5 8
M  V30 8 1 8 9
M  V30 9 1 5 10
M  V30 10 1 5 11
M  V30 11 1 6 12
M  V30 12 1 6 13
M  V30 13 1 7 14
M  V30 14 1 7 15
M  V30 15 1 7 16
M  V30 16 1 8 17
M  V30 17 1 8 18
M  V30 18 1 9 19
M  V30 END BOND
M  V30 END CTAB
M  END
>  <Structure No>
2718

>  <LogS>
-0.114420814

>  <MMFF94 Energy>
15.99

$$$$
Compound 2719
Actelion Java MolfileCreator 2.0

  0  0  0  0  0  0              0 V3000
M  V30 BEGIN CTAB
M  V30 COUNTS 26 26 0 0 0
M  V30 BEGIN ATOM
M  V30 1 O 4.2792 -1.1656 0.7769 0
M  V30 2 C 3.2593 -0.3318 0.3239 0
M  V30 3 C 1.9784 -0.8427 0.0691 0
M  V30 4 C 3.5186 1.0269 0.123 0
M  V30 5 C 0.9507 0.0017 -0.3897 0
M  V30 6 C 2.5049 1.8747 -0.3285 0
M  V30 7 C 1.2274 1.3686 -0.5833 0
M  V30 8 C -0.4333 -0.5585 -0.6552 0 CFG=2
M  V30 9 O -0.8008 -0.3514 -1.9975 0
M  V30 10 C -1.475 0.0301 0.322 0
M  V30 11 N -2.7893 -0.6066 0.1442 0 CHG=1
M  V30 12 C -3.7627 -0.0627 1.0946 0
M  V30 13 H 4.1248 -2.1549 0.9332 0
M  V30 14 H 1.7874 -1.8965 0.2305 0
M  V30 15 H 4.5057 1.4259 0.3188 0
M  V30 16 H 2.7091 2.9268 -0.4802 0
M  V30 17 H 0.4567 2.0459 -0.9271 0
M  V30 18 H -0.414 -1.6583 -0.4911 0
M  V30 19 H -0.9933 0.6143 -2.1203 0
M  V30 20 H -1.1163 -0.1368 1.3635 0
M  V30 21 H -1.5625 1.1285 0.1616 0
M  V30 22 H -3.1401 -0.4333 -0.8266 0
M  V30 23 H -2.7077 -1.6382 0.3034 0
M  V30 24 H -4.7481 -0.554 0.9435 0
M  V30 25 H -3.8926 1.0309 0.9402 0
M  V30 26 H -3.4372 -0.2522 2.1412 0
M  V30 END ATOM
M  V30 BEGIN BOND
M  V30 1 1 1 2
M  V30 2 2 2 3
M  V30 3 1 2 4
M  V30 4 1 3 5
M  V30 5 2 4 6
M  V30 6 2 5 7
M  V30 7 1 5 8
M  V30 8 1 8 9
M  V30 9 1 8 10
M  V30 10 1 10 11
M  V30 11 1 11 12
M  V30 12 1 6 7
M  V30 13 1 1 13
M  V30 14 1 3 14
M  V30 15 1 4 15
M  V30 16 1 6 16
M  V30 17 1 7 17
M  V30 18 1 8 18
M  V30 19 1 9 19
M  V30 20 1 10 20
M  V30 21 1 10 21
M  V30 22 1 11 22
M  V30 23 1 11 23
M  V30 24 1 12 24
M  V30 25 1 12 25
M  V30 26 1 12 26
M  V30 END BOND
M  V30 BEGIN COLLECTION
M  V30 MDLV30/STEABS ATOMS=(1 8)
M  V30 END COLLECTION
M  V30 END CTAB
M  END
>  <Structure No>
2719

>  <LogS>
-0.308924931

>  <MMFF94 Energy>
36.566

$$$$
Compound 2720
Actelion Java MolfileCreator 2.0

  0  0  0  0  0  0              0 V3000
M  V30 BEGIN CTAB
M  V30 COUNTS 22 21 0 0 0
M  V30 BEGIN ATOM
M  V30 1 O -1.5413 0.6933 -0.7704 0
M  V30 2 C -0.5729 -0.1447 -0.1361 0
M  V30 3 C -1.3745 2.0756 -0.5146 0
M  V30 4 C 0.89 0.2968 -0.4907 0
M  V30 5 C -0.8124 -0.1754 1.3943 0
M  V30 6 C -0.8431 -1.5589 -0.6874 0
M  V30 7 C 2.0176 -0.6862 -0.1214 0
M  V30 8 O 2.0885 -0.8958 1.2623 0
M  V30 9 H -1.2117 2.3052 0.5577 0
M  V30 10 H -2.3045 2.5988 -0.8172 0
M  V30 11 H -0.5536 2.493 -1.1347 0
M  V30 12 H 0.9463 0.4715 -1.5876 0
M  V30 13 H 1.1223 1.2662 0.0011 0
M  V30 14 H -1.9024 -0.1975 1.609 0
M  V30 15 H -0.3709 0.7117 1.8943 0
M  V30 16 H -0.3609 -1.0757 1.8613 0
M  V30 17 H -0.603 -1.6037 -1.7714 0
M  V30 18 H -0.2516 -2.3337 -0.1557 0
M  V30 19 H -1.9171 -1.8176 -0.563 0
M  V30 20 H 2.9869 -0.277 -0.4866 0
M  V30 21 H 1.8789 -1.6591 -0.6345 0
M  V30 22 H 2.4599 -0.0641 1.6574 0
M  V30 END ATOM
M  V30 BEGIN BOND
M  V30 1 1 1 2
M  V30 2 1 1 3
M  V30 3 1 2 4
M  V30 4 1 2 5
M  V30 5 1 2 6
M  V30 6 1 4 7
M  V30 7 1 7 8
M  V30 8 1 3 9
M  V30 9 1 3 10
M  V30 10 1 3 11
M  V30 11 1 4 12
M  V30 12 1 4 13
M  V30 13 1 5 14
M  V30 14 1 5 15
M  V30 15 1 5 16
M  V30 16 1 6 17
M  V30 17 1 6 18
M  V30 18 1 6 19
M  V30 19 1 7 20
M  V30 20 1 7 21
M  V30 21 1 8 22
M  V30 END BOND
M  V30 END CTAB
M  END
>  <Structure No>
2720

>  <LogS>
-0.072529286

>  <MMFF94 Energy>
18.678

$$$$
Compound 2721
Actelion Java MolfileCreator 2.0

  0  0  0  0  0  0              0 V3000
M  V30 BEGIN CTAB
M  V30 COUNTS 40 43 0 0 0
M  V30 BEGIN ATOM
M  V30 1 S 5.0661 0.1658 -2.8214 0
M  V30 2 O 5.219 1.5715 -3.3303 0
M  V30 3 O 4.9849 -0.7666 -3.9975 0
M  V30 4 O 6.4057 -0.2548 -1.8987 0 CHG=-1
M  V30 5 C 3.5996 0.0478 -1.8293 0
M  V30 6 C 3.4235 0.7981 -0.6372 0
M  V30 7 C 2.5904 -0.8276 -2.2443 0
M  V30 8 C 2.2198 0.6519 0.1188 0
M  V30 9 C 4.4182 1.6864 -0.1716 0
M  V30 10 C 1.4136 -0.9595 -1.5163 0
M  V30 11 C 1.202 -0.2226 -0.3448 0
M  V30 12 C 2.0858 1.3627 1.3327 0
M  V30 13 C 4.2452 2.3946 1.0159 0
M  V30 14 N -0.0651 -0.3446 0.3248 0
M  V30 15 C 3.0883 2.2276 1.7685 0
M  V30 16 N -0.753 -1.5701 0.3159 0
M  V30 17 C -2.0307 -1.7251 0.5324 0
M  V30 18 C -2.5227 -3.0841 0.8183 0
M  V30 19 C -3.0179 -0.6065 0.64 0
M  V30 20 O -1.8352 -4.0945 0.5111 0
M  V30 21 C -3.7934 -3.2539 1.5394 0
M  V30 22 C -4.2284 -0.8421 1.3376 0
M  V30 23 C -2.8578 0.6203 -0.0358 0
M  V30 24 C -4.5628 -2.2001 1.8287 0
M  V30 25 C -5.1652 0.1919 1.4848 0
M  V30 26 C -3.8029 1.639 0.1098 0
M  V30 27 C -4.9419 1.4336 0.8883 0
M  V30 28 H 2.7034 -1.4108 -3.1486 0
M  V30 29 H 5.3404 1.8441 -0.7105 0
M  V30 30 H 0.6462 -1.6269 -1.8881 0
M  V30 31 H 1.2258 1.2478 1.9745 0
M  V30 32 H 5.019 3.0687 1.3605 0
M  V30 33 H -0.4343 0.4434 0.8986 0
M  V30 34 H 2.9693 2.767 2.6995 0
M  V30 35 H -4.0978 -4.2424 1.8605 0
M  V30 36 H -2.0279 0.7898 -0.7066 0
M  V30 37 H -5.4849 -2.3601 2.3746 0
M  V30 38 H -6.0849 0.0268 2.0327 0
M  V30 39 H -3.6599 2.5847 -0.3969 0
M  V30 40 H -5.6736 2.2241 0.9946 0
M  V30 END ATOM
M  V30 BEGIN BOND
M  V30 1 2 1 2
M  V30 2 2 1 3
M  V30 3 1 1 4
M  V30 4 1 1 5
M  V30 5 1 5 6
M  V30 6 2 5 7
M  V30 7 1 6 8
M  V30 8 2 6 9
M  V30 9 1 7 10
M  V30 10 1 8 11
M  V30 11 2 8 12
M  V30 12 1 9 13
M  V30 13 1 11 14
M  V30 14 1 12 15
M  V30 15 1 14 16
M  V30 16 2 16 17
M  V30 17 1 17 18
M  V30 18 1 17 19
M  V30 19 2 18 20
M  V30 20 1 18 21
M  V30 21 2 19 22
M  V30 22 1 19 23
M  V30 23 2 21 24
M  V30 24 1 22 25
M  V30 25 2 23 26
M  V30 26 2 25 27
M  V30 27 2 10 11
M  V30 28 2 13 15
M  V30 29 1 22 24
M  V30 30 1 26 27
M  V30 31 1 7 28
M  V30 32 1 9 29
M  V30 33 1 10 30
M  V30 34 1 12 31
M  V30 35 1 13 32
M  V30 36 1 14 33
M  V30 37 1 15 34
M  V30 38 1 21 35
M  V30 39 1 23 36
M  V30 40 1 24 37
M  V30 41 1 25 38
M  V30 42 1 26 39
M  V30 43 1 27 40
M  V30 END BOND
M  V30 END CTAB
M  END
>  <Structure No>
2721

>  <LogS>
-2.426393048

>  <MMFF94 Energy>
173.01

$$$$
Compound 2722
Actelion Java MolfileCreator 2.0

  0  0  0  0  0  0              0 V3000
M  V30 BEGIN CTAB
M  V30 COUNTS 25 24 0 0 0
M  V30 BEGIN ATOM
M  V30 1 O 1.6441 1.5658 -1.7225 0
M  V30 2 C 1.4185 1.3152 -0.5092 0
M  V30 3 O 1.3986 2.3556 0.4127 0 CHG=-1
M  V30 4 C 1.172 -0.1035 -0.0631 0 CFG=2
M  V30 5 C -0.2348 -0.2435 0.5569 0
M  V30 6 C 2.2491 -0.5508 0.9476 0
M  V30 7 C -1.3521 0.0087 -0.4681 0
M  V30 8 C 3.6451 -0.6076 0.3254 0
M  V30 9 C -2.7339 -0.1966 0.1632 0
M  V30 10 C -3.8465 0.0572 -0.8498 0
M  V30 11 H 1.2273 -0.78 -0.9463 0
M  V30 12 H -0.3439 0.4621 1.4105 0
M  V30 13 H -0.3531 -1.276 0.9546 0
M  V30 14 H 2.2651 0.1359 1.8225 0
M  V30 15 H 2.0034 -1.5685 1.3227 0
M  V30 16 H -1.2799 1.0502 -0.8509 0
M  V30 17 H -1.2315 -0.6914 -1.3238 0
M  V30 18 H 3.65 -1.2897 -0.5512 0
M  V30 19 H 3.9735 0.4038 0.0062 0
M  V30 20 H 4.3693 -0.9899 1.0753 0
M  V30 21 H -2.8231 -1.2386 0.5408 0
M  V30 22 H -2.8619 0.5005 1.0199 0
M  V30 23 H -3.7967 1.1021 -1.2241 0
M  V30 24 H -3.7558 -0.6442 -1.7064 0
M  V30 25 H -4.8332 -0.0995 -0.3654 0
M  V30 END ATOM
M  V30 BEGIN BOND
M  V30 1 2 1 2
M  V30 2 1 2 3
M  V30 3 1 2 4
M  V30 4 1 4 5
M  V30 5 1 4 6
M  V30 6 1 5 7
M  V30 7 1 6 8
M  V30 8 1 7 9
M  V30 9 1 9 10
M  V30 10 1 4 11
M  V30 11 1 5 12
M  V30 12 1 5 13
M  V30 13 1 6 14
M  V30 14 1 6 15
M  V30 15 1 7 16
M  V30 16 1 7 17
M  V30 17 1 8 18
M  V30 18 1 8 19
M  V30 19 1 8 20
M  V30 20 1 9 21
M  V30 21 1 9 22
M  V30 22 1 10 23
M  V30 23 1 10 24
M  V30 24 1 10 25
M  V30 END BOND
M  V30 BEGIN COLLECTION
M  V30 MDLV30/STEABS ATOMS=(1 4)
M  V30 END COLLECTION
M  V30 END CTAB
M  END
>  <Structure No>
2722

>  <LogS>
0.455435409

>  <MMFF94 Energy>
7.1249

$$$$
Compound 2723
Actelion Java MolfileCreator 2.0

  0  0  0  0  0  0              0 V3000
M  V30 BEGIN CTAB
M  V30 COUNTS 47 46 0 0 0
M  V30 BEGIN ATOM
M  V30 1 O -5.0337 -3.3798 -2.7503 0
M  V30 2 C -5.7323 -3.1357 -1.7315 0
M  V30 3 O -5.568 -3.9045 -0.5853 0 CHG=-1
M  V30 4 C -6.6975 -1.9892 -1.7328 0
M  V30 5 C -6.1184 -0.768 -1.0041 0
M  V30 6 C -4.9818 -0.1019 -1.8008 0
M  V30 7 C -4.4718 1.1867 -1.1325 0
M  V30 8 C -3.5881 0.927 0.0976 0
M  V30 9 N -2.3086 0.3227 -0.2759 0
M  V30 10 C -1.3848 -0.1427 0.7168 0
M  V30 11 O -1.7026 -0.1232 1.9375 0
M  V30 12 C -0.0334 -0.6602 0.3165 0
M  V30 13 C 1.0767 0.2337 0.8806 0
M  V30 14 C 2.4626 -0.2633 0.4525 0
M  V30 15 C 3.5695 0.5866 1.0918 0
M  V30 16 C 4.9615 0.1214 0.6345 0
M  V30 17 C 6.104 0.8068 1.4167 0
M  V30 18 C 7.4436 0.1314 1.0933 0
M  V30 19 C 6.1905 2.3089 1.1062 0
M  V30 20 H -7.6248 -2.3119 -1.2123 0
M  V30 21 H -6.9757 -1.7216 -2.7766 0
M  V30 22 H -6.9374 -0.0302 -0.857 0
M  V30 23 H -5.7576 -1.0833 -0.003 0
M  V30 24 H -5.3664 0.1649 -2.8101 0
M  V30 25 H -4.143 -0.816 -1.9412 0
M  V30 26 H -3.8862 1.7692 -1.877 0
M  V30 27 H -5.3349 1.8202 -0.8348 0
M  V30 28 H -3.3899 1.8957 0.6047 0
M  V30 29 H -4.1183 0.2735 0.8212 0
M  V30 30 H -2.0436 0.249 -1.284 0
M  V30 31 H 0.0478 -0.6995 -0.7913 0
M  V30 32 H 0.0823 -1.6953 0.7064 0
M  V30 33 H 1.0156 0.2369 1.9928 0
M  V30 34 H 0.9326 1.2759 0.5175 0
M  V30 35 H 2.5462 -0.2082 -0.6553 0
M  V30 36 H 2.5875 -1.3236 0.765 0
M  V30 37 H 3.4179 1.6494 0.8026 0
M  V30 38 H 3.4961 0.5045 2.1995 0
M  V30 39 H 5.0322 -0.9777 0.7899 0
M  V30 40 H 5.0795 0.317 -0.4539 0
M  V30 41 H 5.9199 0.6828 2.507 0
M  V30 42 H 7.4033 -0.9492 1.349 0
M  V30 43 H 8.2592 0.5929 1.6892 0
M  V30 44 H 7.6844 0.2363 0.0127 0
M  V30 45 H 5.2811 2.8359 1.4609 0
M  V30 46 H 7.0588 2.7614 1.6309 0
M  V30 47 H 6.3074 2.4772 0.0133 0
M  V30 END ATOM
M  V30 BEGIN BOND
M  V30 1 2 1 2
M  V30 2 1 2 3
M  V30 3 1 2 4
M  V30 4 1 4 5
M  V30 5 1 5 6
M  V30 6 1 6 7
M  V30 7 1 7 8
M  V30 8 1 8 9
M  V30 9 1 9 10
M  V30 10 2 10 11
M  V30 11 1 10 12
M  V30 12 1 12 13
M  V30 13 1 13 14
M  V30 14 1 14 15
M  V30 15 1 15 16
M  V30 16 1 16 17
M  V30 17 1 17 18
M  V30 18 1 17 19
M  V30 19 1 4 20
M  V30 20 1 4 21
M  V30 21 1 5 22
M  V30 22 1 5 23
M  V30 23 1 6 24
M  V30 24 1 6 25
M  V30 25 1 7 26
M  V30 26 1 7 27
M  V30 27 1 8 28
M  V30 28 1 8 29
M  V30 29 1 9 30
M  V30 30 1 12 31
M  V30 31 1 12 32
M  V30 32 1 13 33
M  V30 33 1 13 34
M  V30 34 1 14 35
M  V30 35 1 14 36
M  V30 36 1 15 37
M  V30 37 1 15 38
M  V30 38 1 16 39
M  V30 39 1 16 40
M  V30 40 1 17 41
M  V30 41 1 18 42
M  V30 42 1 18 43
M  V30 43 1 18 44
M  V30 44 1 19 45
M  V30 45 1 19 46
M  V30 46 1 19 47
M  V30 END BOND
M  V30 END CTAB
M  END
>  <Structure No>
2723

>  <LogS>
-2.770853612

>  <MMFF94 Energy>
-18.1

$$$$
Compound 2724
Actelion Java MolfileCreator 2.0

  0  0  0  0  0  0              0 V3000
M  V30 BEGIN CTAB
M  V30 COUNTS 28 27 0 0 0
M  V30 BEGIN ATOM
M  V30 1 O -5.0156 0.4693 -0.9389 0
M  V30 2 C -4.0945 0.8592 -0.1742 0
M  V30 3 O -4.034 2.1938 0.2062 0 CHG=-1
M  V30 4 C -3.0383 -0.0974 0.281 0
M  V30 5 C -1.8456 -0.0756 -0.6829 0
M  V30 6 C -0.7921 -1.1482 -0.3533 0
M  V30 7 C -0.1231 -0.9997 1.0279 0
M  V30 8 C 0.5623 0.3578 1.2822 0
M  V30 9 C 1.6364 0.746 0.2505 0
M  V30 10 C 2.8167 -0.2351 0.2222 0
M  V30 11 C 3.928 0.2684 -0.6942 0
M  V30 12 H -3.4662 -1.1224 0.3338 0
M  V30 13 H -2.7123 0.1985 1.3002 0
M  V30 14 H -1.3805 0.933 -0.6913 0
M  V30 15 H -2.2147 -0.2718 -1.7139 0
M  V30 16 H -0.012 -1.1402 -1.1436 0
M  V30 17 H -1.2741 -2.1489 -0.4023 0
M  V30 18 H 0.6217 -1.8143 1.1488 0
M  V30 19 H -0.8816 -1.1664 1.8218 0
M  V30 20 H -0.2067 1.1582 1.3188 0
M  V30 21 H 1.0296 0.3297 2.2908 0
M  V30 22 H 1.1871 0.831 -0.7614 0
M  V30 23 H 2.0156 1.7553 0.5234 0
M  V30 24 H 2.4791 -1.2253 -0.1504 0
M  V30 25 H 3.2265 -0.3623 1.2479 0
M  V30 26 H 3.5474 0.3891 -1.7309 0
M  V30 27 H 4.3175 1.243 -0.3301 0
M  V30 28 H 4.7619 -0.4646 -0.705 0
M  V30 END ATOM
M  V30 BEGIN BOND
M  V30 1 2 1 2
M  V30 2 1 2 3
M  V30 3 1 2 4
M  V30 4 1 4 5
M  V30 5 1 5 6
M  V30 6 1 6 7
M  V30 7 1 7 8
M  V30 8 1 8 9
M  V30 9 1 9 10
M  V30 10 1 10 11
M  V30 11 1 4 12
M  V30 12 1 4 13
M  V30 13 1 5 14
M  V30 14 1 5 15
M  V30 15 1 6 16
M  V30 16 1 6 17
M  V30 17 1 7 18
M  V30 18 1 7 19
M  V30 19 1 8 20
M  V30 20 1 8 21
M  V30 21 1 9 22
M  V30 22 1 9 23
M  V30 23 1 10 24
M  V30 24 1 10 25
M  V30 25 1 11 26
M  V30 26 1 11 27
M  V30 27 1 11 28
M  V30 END BOND
M  V30 END CTAB
M  END
>  <Structure No>
2724

>  <LogS>
-2.722197764

>  <MMFF94 Energy>
2.0124

$$$$
Compound 2725
Actelion Java MolfileCreator 2.0

  0  0  0  0  0  0              0 V3000
M  V30 BEGIN CTAB
M  V30 COUNTS 21 22 0 0 0
M  V30 BEGIN ATOM
M  V30 1 O -4.1314 -1.2947 -0.4853 0
M  V30 2 C -3.7308 -0.1493 -0.1464 0
M  V30 3 O -4.6697 0.841 0.1192 0 CHG=-1
M  V30 4 C -2.2837 0.1391 -0.0321 0
M  V30 5 C -1.3305 -0.8603 -0.2999 0
M  V30 6 C -1.8459 1.4198 0.3466 0
M  V30 7 C 0.0413 -0.5844 -0.1909 0
M  V30 8 C -0.4821 1.7025 0.4574 0
M  V30 9 C 0.4691 0.7087 0.1912 0
M  V30 10 C 0.9942 -1.5795 -0.4575 0
M  V30 11 C 1.8412 0.9839 0.2999 0
M  V30 12 C 2.358 -1.2945 -0.3461 0
M  V30 13 C 2.7839 -0.0141 0.0322 0
M  V30 14 O 4.1417 0.2762 0.1452 0
M  V30 15 H -1.6538 -1.8525 -0.5931 0
M  V30 16 H -2.5584 2.2071 0.5584 0
M  V30 17 H -0.1717 2.6983 0.7513 0
M  V30 18 H 0.6854 -2.5756 -0.7514 0
M  V30 19 H 2.1819 1.9706 0.5919 0
M  V30 20 H 3.0838 -2.0701 -0.5541 0
M  V30 21 H 4.8503 -0.4235 -0.0414 0
M  V30 END ATOM
M  V30 BEGIN BOND
M  V30 1 2 1 2
M  V30 2 1 2 3
M  V30 3 1 2 4
M  V30 4 2 4 5
M  V30 5 1 4 6
M  V30 6 1 5 7
M  V30 7 2 6 8
M  V30 8 1 7 9
M  V30 9 2 7 10
M  V30 10 2 9 11
M  V30 11 1 10 12
M  V30 12 1 11 13
M  V30 13 1 13 14
M  V30 14 1 8 9
M  V30 15 2 12 13
M  V30 16 1 5 15
M  V30 17 1 6 16
M  V30 18 1 8 17
M  V30 19 1 10 18
M  V30 20 1 11 19
M  V30 21 1 12 20
M  V30 22 1 14 21
M  V30 END BOND
M  V30 END CTAB
M  END
>  <Structure No>
2725

>  <LogS>
-3.278942885

>  <MMFF94 Energy>
36.642

$$$$
Compound 2726
Actelion Java MolfileCreator 2.0

  0  0  0  0  0  0              0 V3000
M  V30 BEGIN CTAB
M  V30 COUNTS 28 28 0 0 0
M  V30 BEGIN ATOM
M  V30 1 C 2.4239 0.3906 -0.2343 0
M  V30 2 C 1.57 1.2664 -0.9175 0
M  V30 3 C 1.857 -0.6302 0.5477 0
M  V30 4 C 3.8894 0.5997 -0.3419 0
M  V30 5 C 0.1824 1.1184 -0.8448 0
M  V30 6 C 0.4699 -0.7799 0.6228 0
M  V30 7 C 4.8042 -0.3151 -0.0178 0
M  V30 8 C -0.4001 0.0863 -0.074 0
M  V30 9 C -1.926 -0.1145 0.0363 0
M  V30 10 C -2.298 -1.5252 -0.47 0
M  V30 11 C -2.735 0.9103 -0.7948 0
M  V30 12 C -2.3589 0.0314 1.5113 0
M  V30 13 H 1.9792 2.0691 -1.5195 0
M  V30 14 H 2.4727 -1.3066 1.1231 0
M  V30 15 H 4.2445 1.542 -0.7426 0
M  V30 16 H -0.416 1.8243 -1.4007 0
M  V30 17 H 0.0796 -1.579 1.2381 0
M  V30 18 H 4.5405 -1.2997 0.3396 0
M  V30 19 H 5.855 -0.0863 -0.1388 0
M  V30 20 H -3.3989 -1.6772 -0.4412 0
M  V30 21 H -1.8379 -2.3186 0.155 0
M  V30 22 H -1.9538 -1.6626 -1.5178 0
M  V30 23 H -3.8269 0.7271 -0.6923 0
M  V30 24 H -2.5383 1.9472 -0.4461 0
M  V30 25 H -2.4836 0.8311 -1.8745 0
M  V30 26 H -3.4618 -0.068 1.6103 0
M  V30 27 H -2.0614 1.0276 1.9044 0
M  V30 28 H -1.8965 -0.7482 2.1517 0
M  V30 END ATOM
M  V30 BEGIN BOND
M  V30 1 2 1 2
M  V30 2 1 1 3
M  V30 3 1 1 4
M  V30 4 1 2 5
M  V30 5 2 3 6
M  V30 6 2 4 7
M  V30 7 2 5 8
M  V30 8 1 8 9
M  V30 9 1 9 10
M  V30 10 1 9 11
M  V30 11 1 9 12
M  V30 12 1 6 8
M  V30 13 1 2 13
M  V30 14 1 3 14
M  V30 15 1 4 15
M  V30 16 1 5 16
M  V30 17 1 6 17
M  V30 18 1 7 18
M  V30 19 1 7 19
M  V30 20 1 10 20
M  V30 21 1 10 21
M  V30 22 1 10 22
M  V30 23 1 11 23
M  V30 24 1 11 24
M  V30 25 1 11 25
M  V30 26 1 12 26
M  V30 27 1 12 27
M  V30 28 1 12 28
M  V30 END BOND
M  V30 END CTAB
M  END
>  <Structure No>
2726

>  <LogS>
-4.563351028

>  <MMFF94 Energy>
40.337

$$$$
Compound 2727
Actelion Java MolfileCreator 2.0

  0  0  0  0  0  0              0 V3000
M  V30 BEGIN CTAB
M  V30 COUNTS 20 20 0 0 0
M  V30 BEGIN ATOM
M  V30 1 Cl 2.5865 -3.3149 -0.2422 0
M  V30 2 C 2.5869 -1.5581 -0.1645 0
M  V30 3 O 3.699 -0.9673 -0.2058 0
M  V30 4 C 1.3294 -0.7769 -0.0528 0
M  V30 5 C 1.3739 0.6284 0.0069 0
M  V30 6 C 0.078 -1.4194 -0.0116 0
M  V30 7 C 0.1941 1.3799 0.1131 0
M  V30 8 C -1.1064 -0.6751 0.0945 0
M  V30 9 C -1.044 0.7243 0.1338 0
M  V30 10 C 0.2536 2.8792 0.126 0
M  V30 11 C -2.4365 -1.3699 0.0876 0
M  V30 12 H 2.3257 1.1445 -0.0331 0
M  V30 13 H 0.0129 -2.4982 -0.0661 0
M  V30 14 H -1.9591 1.3032 0.1821 0
M  V30 15 H 0.2264 3.2586 -0.9167 0
M  V30 16 H -0.6067 3.3017 0.6878 0
M  V30 17 H 1.1869 3.2302 0.6155 0
M  V30 18 H -3.1925 -0.7776 0.6462 0
M  V30 19 H -2.7799 -1.4991 -0.9599 0
M  V30 20 H -2.3598 -2.3677 0.5698 0
M  V30 END ATOM
M  V30 BEGIN BOND
M  V30 1 1 1 2
M  V30 2 2 2 3
M  V30 3 1 2 4
M  V30 4 2 4 5
M  V30 5 1 4 6
M  V30 6 1 5 7
M  V30 7 2 6 8
M  V30 8 2 7 9
M  V30 9 1 7 10
M  V30 10 1 8 11
M  V30 11 1 8 9
M  V30 12 1 5 12
M  V30 13 1 6 13
M  V30 14 1 9 14
M  V30 15 1 10 15
M  V30 16 1 10 16
M  V30 17 1 10 17
M  V30 18 1 11 18
M  V30 19 1 11 19
M  V30 20 1 11 20
M  V30 END BOND
M  V30 END CTAB
M  END
>  <Structure No>
2727

>  <LogS>
-3.32928972

>  <MMFF94 Energy>
45.189

$$$$
Compound 2728
Actelion Java MolfileCreator 2.0

  0  0  0  0  0  0              0 V3000
M  V30 BEGIN CTAB
M  V30 COUNTS 5 4 0 0 0
M  V30 BEGIN ATOM
M  V30 1 O -0.5524 1.2631 -0.1578 0
M  V30 2 C -0.4211 0.0215 0.0026 0
M  V30 3 O 0.8453 -0.5507 0.0356 0
M  V30 4 O -1.5453 -0.7796 0.1475 0 CHG=-1
M  V30 5 H 1.6759 0.0198 -0.0684 0
M  V30 END ATOM
M  V30 BEGIN BOND
M  V30 1 2 1 2
M  V30 2 1 2 3
M  V30 3 1 2 4
M  V30 4 1 3 5
M  V30 END BOND
M  V30 END CTAB
M  END
>  <Structure No>
2728

>  <LogS>
-5.143219117

>  <MMFF94 Energy>
-89.96

$$$$
Compound 2729
Actelion Java MolfileCreator 2.0

  0  0  0  0  0  0              0 V3000
M  V30 BEGIN CTAB
M  V30 COUNTS 28 30 0 0 0
M  V30 BEGIN ATOM
M  V30 1 O 0.0799 0.0799 0.1598 0
M  V30 2 C 1.1114 -0.6837 0.4433 0
M  V30 3 C -1.0002 -0.62 0.4052 0
M  V30 4 N 0.7436 -1.907 0.8828 0
M  V30 5 C 2.5152 -0.2501 0.2967 0
M  V30 6 C -2.3794 -0.1178 0.2139 0
M  V30 7 C -0.6018 -1.8629 0.8572 0
M  V30 8 C 3.5724 -1.1199 0.6186 0
M  V30 9 C 2.8098 1.0433 -0.1685 0
M  V30 10 C -3.5002 -0.9218 0.4965 0
M  V30 11 C -2.5821 1.1905 -0.2601 0
M  V30 12 C 4.899 -0.7006 0.4766 0
M  V30 13 C 4.1379 1.4576 -0.3086 0
M  V30 14 C -4.7931 -0.4233 0.3072 0
M  V30 15 C -3.877 1.6837 -0.4476 0
M  V30 16 C 5.1816 0.5867 0.0135 0
M  V30 17 C -4.9815 0.8777 -0.1642 0
M  V30 18 H -1.2356 -2.6878 1.1508 0
M  V30 19 H 3.3749 -2.1215 0.9792 0
M  V30 20 H 2.0146 1.7329 -0.4233 0
M  V30 21 H -3.3854 -1.9326 0.8626 0
M  V30 22 H -1.7395 1.8323 -0.486 0
M  V30 23 H 5.7083 -1.3745 0.7261 0
M  V30 24 H 4.358 2.4548 -0.6674 0
M  V30 25 H -5.6502 -1.0469 0.5265 0
M  V30 26 H -4.0238 2.6919 -0.8128 0
M  V30 27 H 6.2088 0.9092 -0.0956 0
M  V30 28 H -5.9831 1.261 -0.3097 0
M  V30 END ATOM
M  V30 BEGIN BOND
M  V30 1 1 1 2
M  V30 2 1 1 3
M  V30 3 2 2 4
M  V30 4 1 2 5
M  V30 5 1 3 6
M  V30 6 2 3 7
M  V30 7 2 5 8
M  V30 8 1 5 9
M  V30 9 2 6 10
M  V30 10 1 6 11
M  V30 11 1 8 12
M  V30 12 2 9 13
M  V30 13 1 10 14
M  V30 14 2 11 15
M  V30 15 2 12 16
M  V30 16 2 14 17
M  V30 17 1 4 7
M  V30 18 1 13 16
M  V30 19 1 15 17
M  V30 20 1 7 18
M  V30 21 1 8 19
M  V30 22 1 9 20
M  V30 23 1 10 21
M  V30 24 1 11 22
M  V30 25 1 12 23
M  V30 26 1 13 24
M  V30 27 1 14 25
M  V30 28 1 15 26
M  V30 29 1 16 27
M  V30 30 1 17 28
M  V30 END BOND
M  V30 END CTAB
M  END
>  <Structure No>
2729

>  <LogS>
-5.553210296

>  <MMFF94 Energy>
55.094

$$$$
Compound 2730
Actelion Java MolfileCreator 2.0

  0  0  0  0  0  0              0 V3000
M  V30 BEGIN CTAB
M  V30 COUNTS 22 21 0 0 0
M  V30 BEGIN ATOM
M  V30 1 O 0.0762 2.5947 -0.1524 0
M  V30 2 C -0.5018 1.3846 -0.5688 0
M  V30 3 C 0.2268 0.159 0.0544 0
M  V30 4 N 0.069 0.1728 1.5231 0 CHG=1
M  V30 5 C 1.7368 0.2411 -0.3033 0
M  V30 6 C -0.3457 -1.1659 -0.5449 0
M  V30 7 O 2.4406 -0.8344 0.2576 0
M  V30 8 C -1.8263 -1.4313 -0.2507 0
M  V30 9 H -0.3413 2.8313 0.7164 0
M  V30 10 H -1.5842 1.3803 -0.3093 0
M  V30 11 H -0.4349 1.3336 -1.6768 0
M  V30 12 H 0.6235 0.9523 1.9467 0
M  V30 13 H -0.9319 0.3124 1.7905 0
M  V30 14 H 0.4031 -0.727 1.9389 0
M  V30 15 H 2.1712 1.1918 0.0795 0
M  V30 16 H 1.8631 0.2301 -1.4101 0
M  V30 17 H -0.2085 -1.1638 -1.6487 0
M  V30 18 H 0.2289 -2.0322 -0.151 0
M  V30 19 H 3.3854 -0.7246 -0.0253 0
M  V30 20 H -2.1119 -2.4113 -0.6879 0
M  V30 21 H -2.0154 -1.4818 0.8408 0
M  V30 22 H -2.4738 -0.6591 -0.7122 0
M  V30 END ATOM
M  V30 BEGIN BOND
M  V30 1 1 1 2
M  V30 2 1 2 3
M  V30 3 1 3 4
M  V30 4 1 3 5
M  V30 5 1 3 6
M  V30 6 1 5 7
M  V30 7 1 6 8
M  V30 8 1 1 9
M  V30 9 1 2 10
M  V30 10 1 2 11
M  V30 11 1 4 12
M  V30 12 1 4 13
M  V30 13 1 4 14
M  V30 14 1 5 15
M  V30 15 1 5 16
M  V30 16 1 6 17
M  V30 17 1 6 18
M  V30 18 1 7 19
M  V30 19 1 8 20
M  V30 20 1 8 21
M  V30 21 1 8 22
M  V30 END BOND
M  V30 END CTAB
M  END
>  <Structure No>
2730

>  <LogS>
0.901578533

>  <MMFF94 Energy>
50.585

$$$$
Compound 2731
Actelion Java MolfileCreator 2.0

  0  0  0  0  0  0              0 V3000
M  V30 BEGIN CTAB
M  V30 COUNTS 24 24 0 0 0
M  V30 BEGIN ATOM
M  V30 1 N -0.9247 -1.6959 -1.0789 0 CHG=1
M  V30 2 C -0.1203 -1.1958 0.0465 0 CFG=1
M  V30 3 C 1.0731 -0.3287 -0.4555 0 CFG=2
M  V30 4 C -1.0007 -0.4356 1.0667 0
M  V30 5 N 2.1313 -0.24 0.5625 0 CHG=1
M  V30 6 C 0.6175 1.0781 -0.91 0
M  V30 7 C -1.4391 0.9421 0.5556 0
M  V30 8 C -0.2336 1.792 0.147 0
M  V30 9 H -1.3296 -0.9125 -1.6383 0
M  V30 10 H -0.3288 -2.285 -1.7047 0
M  V30 11 H -1.7033 -2.2958 -0.7212 0
M  V30 12 H 0.2957 -2.0841 0.5738 0
M  V30 13 H 1.5146 -0.8316 -1.3459 0
M  V30 14 H -1.903 -1.0377 1.3091 0
M  V30 15 H -0.4396 -0.3069 2.0174 0
M  V30 16 H 2.9324 0.3231 0.1953 0
M  V30 17 H 2.4887 -1.1974 0.7846 0
M  V30 18 H 1.7809 0.2013 1.4416 0
M  V30 19 H 1.505 1.7042 -1.146 0
M  V30 20 H 0.0301 0.992 -1.8495 0
M  V30 21 H -2.1313 0.8297 -0.3062 0
M  V30 22 H -1.9953 1.4672 1.3618 0
M  V30 23 H 0.3823 2.0279 1.0411 0
M  V30 24 H -0.5957 2.7562 -0.2703 0
M  V30 END ATOM
M  V30 BEGIN BOND
M  V30 1 1 1 2
M  V30 2 1 2 3
M  V30 3 1 2 4
M  V30 4 1 3 5
M  V30 5 1 3 6
M  V30 6 1 4 7
M  V30 7 1 6 8
M  V30 8 1 7 8
M  V30 9 1 1 9
M  V30 10 1 1 10
M  V30 11 1 1 11
M  V30 12 1 2 12
M  V30 13 1 3 13
M  V30 14 1 4 14
M  V30 15 1 4 15
M  V30 16 1 5 16
M  V30 17 1 5 17
M  V30 18 1 5 18
M  V30 19 1 6 19
M  V30 20 1 6 20
M  V30 21 1 7 21
M  V30 22 1 7 22
M  V30 23 1 8 23
M  V30 24 1 8 24
M  V30 END BOND
M  V30 BEGIN COLLECTION
M  V30 MDLV30/STEABS ATOMS=(2 2 3)
M  V30 END COLLECTION
M  V30 END CTAB
M  END
>  <Structure No>
2731

>  <LogS>
0.889006483

>  <MMFF94 Energy>
119.99

$$$$
Compound 2732
Actelion Java MolfileCreator 2.0

  0  0  0  0  0  0              0 V3000
M  V30 BEGIN CTAB
M  V30 COUNTS 10 9 0 0 0
M  V30 BEGIN ATOM
M  V30 1 S -1.4506 0.2416 1.2087 0
M  V30 2 C -0.6371 -0.5711 -0.2037 0
M  V30 3 C 0.7323 0.0451 -0.4851 0
M  V30 4 O 1.621 -0.2247 0.5658 0
M  V30 5 H -1.6015 1.4615 0.5219 0
M  V30 6 H -1.2836 -0.4626 -1.1004 0
M  V30 7 H -0.5227 -1.6535 0.0172 0
M  V30 8 H 0.6386 1.1417 -0.6604 0
M  V30 9 H 1.1408 -0.4069 -1.4133 0
M  V30 10 H 1.4941 0.4915 1.2411 0
M  V30 END ATOM
M  V30 BEGIN BOND
M  V30 1 1 1 2
M  V30 2 1 2 3
M  V30 3 1 3 4
M  V30 4 1 1 5
M  V30 5 1 2 6
M  V30 6 1 2 7
M  V30 7 1 3 8
M  V30 8 1 3 9
M  V30 9 1 4 10
M  V30 END BOND
M  V30 END CTAB
M  END
>  <Structure No>
2732

>  <LogS>
0.953730344

>  <MMFF94 Energy>
12.199

$$$$
Compound 2733
Actelion Java MolfileCreator 2.0

  0  0  0  0  0  0              0 V3000
M  V30 BEGIN CTAB
M  V30 COUNTS 36 39 0 0 0
M  V30 BEGIN ATOM
M  V30 1 O 0.7297 -2.5965 0.1621 0
M  V30 2 C 0.4874 -1.3558 0.1392 0
M  V30 3 N -0.5731 -0.8578 0.8462 0
M  V30 4 N 1.2847 -0.5214 -0.5957 0
M  V30 5 C -0.8415 0.483 0.8027 0
M  V30 6 C -1.4592 -1.7696 1.5976 0
M  V30 7 C 1.0352 0.8238 -0.5932 0
M  V30 8 C 2.4395 -1.0624 -1.3403 0
M  V30 9 O -1.8545 0.9402 1.4053 0
M  V30 10 N -0.0221 1.3324 0.1108 0
M  V30 11 C -2.5554 -2.309 0.6758 0 CFG=2
M  V30 12 O 1.7838 1.6024 -1.2501 0
M  V30 13 C 3.6672 -1.121 -0.4283 0 CFG=2
M  V30 14 C -0.3147 2.7794 0.0704 0
M  V30 15 O -3.6984 -1.4872 0.6769 0
M  V30 16 C -3.8146 -2.7336 1.3265 0
M  V30 17 O 4.4281 0.0617 -0.4894 0
M  V30 18 C 4.9866 -1.0821 -1.0965 0
M  V30 19 C -1.1958 3.1001 -1.1392 0 CFG=1
M  V30 20 O -2.5669 3.0178 -0.8312 0
M  V30 21 C -2.0411 4.3101 -1.0373 0
M  V30 22 H -1.8896 -1.256 2.4869 0
M  V30 23 H -0.8842 -2.6279 2.0069 0
M  V30 24 H 2.6379 -0.4574 -2.2535 0
M  V30 25 H 2.2231 -2.0872 -1.7116 0
M  V30 26 H -2.3244 -2.7202 -0.3292 0
M  V30 27 H 3.6154 -1.5453 0.5964 0
M  V30 28 H 0.6243 3.3685 -0.0071 0
M  V30 29 H -0.7898 3.1117 1.0209 0
M  V30 30 H -4.4542 -3.4299 0.7457 0
M  V30 31 H -3.8996 -2.6076 2.4266 0
M  V30 32 H 5.844 -1.4696 -0.5081 0
M  V30 33 H 5.0066 -0.9816 -2.2022 0
M  V30 34 H -0.9604 2.7137 -2.1532 0
M  V30 35 H -2.3977 4.7396 -1.9963 0
M  V30 36 H -2.0098 4.8878 -0.0893 0
M  V30 END ATOM
M  V30 BEGIN BOND
M  V30 1 2 1 2
M  V30 2 1 2 3
M  V30 3 1 2 4
M  V30 4 1 3 5
M  V30 5 1 3 6
M  V30 6 1 4 7
M  V30 7 1 4 8
M  V30 8 2 5 9
M  V30 9 1 5 10
M  V30 10 1 6 11
M  V30 11 2 7 12
M  V30 12 1 8 13
M  V30 13 1 10 14
M  V30 14 1 11 15
M  V30 15 1 11 16
M  V30 16 1 13 17
M  V30 17 1 13 18
M  V30 18 1 14 19
M  V30 19 1 19 20
M  V30 20 1 19 21
M  V30 21 1 7 10
M  V30 22 1 15 16
M  V30 23 1 17 18
M  V30 24 1 20 21
M  V30 25 1 6 22
M  V30 26 1 6 23
M  V30 27 1 8 24
M  V30 28 1 8 25
M  V30 29 1 11 26
M  V30 30 1 13 27
M  V30 31 1 14 28
M  V30 32 1 14 29
M  V30 33 1 16 30
M  V30 34 1 16 31
M  V30 35 1 18 32
M  V30 36 1 18 33
M  V30 37 1 19 34
M  V30 38 1 21 35
M  V30 39 1 21 36
M  V30 END BOND
M  V30 BEGIN COLLECTION
M  V30 MDLV30/STEABS ATOMS=(2 13 19)
M  V30 MDLV30/STERAC1 ATOMS=(1 11)
M  V30 END COLLECTION
M  V30 END CTAB
M  END
>  <Structure No>
2733

>  <LogS>
-1.495423095

>  <MMFF94 Energy>
-185.85

$$$$
Compound 2734
Actelion Java MolfileCreator 2.0

  0  0  0  0  0  0              0 V3000
M  V30 BEGIN CTAB
M  V30 COUNTS 48 48 0 0 0
M  V30 BEGIN ATOM
M  V30 1 O 0.0776 -2.3329 1.7103 0 CHG=-1
M  V30 2 C 0.0359 -1.103 1.0587 0
M  V30 3 C -1.1611 -0.3588 1.0314 0
M  V30 4 C 1.1954 -0.6052 0.4342 0
M  V30 5 C -1.1745 0.8963 0.4026 0
M  V30 6 C -2.4299 -0.8851 1.6812 0
M  V30 7 C 1.1536 0.6421 -0.2065 0
M  V30 8 C 2.4752 -1.4143 0.4199 0
M  V30 9 C -0.0258 1.397 -0.2246 0
M  V30 10 N -3.3157 -1.6379 0.7577 0 CHG=1
M  V30 11 N 2.4215 -2.519 -0.5664 0 CHG=1
M  V30 12 C -0.0483 2.7511 -0.896 0
M  V30 13 C -3.8291 -0.8003 -0.3407 0
M  V30 14 C -2.6741 -2.8535 0.227 0
M  V30 15 C 2.4135 -2.0068 -1.9494 0
M  V30 16 C 3.5731 -3.4177 -0.3767 0
M  V30 17 N 0.6224 3.7866 -0.0761 0 CHG=1
M  V30 18 C 0.7952 5.0183 -0.8656 0
M  V30 19 C -0.1449 4.0847 1.1478 0
M  V30 20 H -2.0838 1.4856 0.4001 0
M  V30 21 H -2.169 -1.5268 2.552 0
M  V30 22 H -2.9938 -0.0313 2.1209 0
M  V30 23 H 2.041 1.0272 -0.6951 0
M  V30 24 H 3.3495 -0.754 0.217 0
M  V30 25 H 2.6329 -1.8211 1.4443 0
M  V30 26 H -4.1447 -1.9485 1.3186 0
M  V30 27 H 1.5504 -3.0814 -0.416 0
M  V30 28 H 0.4668 2.6477 -1.878 0
M  V30 29 H -1.0962 3.0534 -1.1257 0
M  V30 30 H -4.2768 0.1366 0.057 0
M  V30 31 H -4.6276 -1.3416 -0.8944 0
M  V30 32 H -3.0251 -0.5413 -1.063 0
M  V30 33 H -1.8299 -2.6025 -0.4516 0
M  V30 34 H -3.4112 -3.4579 -0.346 0
M  V30 35 H -2.2983 -3.4898 1.0576 0
M  V30 36 H 3.2992 -1.3618 -2.144 0
M  V30 37 H 1.4906 -1.4198 -2.1446 0
M  V30 38 H 2.4189 -2.8475 -2.6774 0
M  V30 39 H 4.5332 -2.8746 -0.5257 0
M  V30 40 H 3.5634 -3.8521 0.6471 0
M  V30 41 H 3.5278 -4.2671 -1.0935 0
M  V30 42 H 1.575 3.4492 0.2015 0
M  V30 43 H 1.3236 5.7941 -0.2687 0
M  V30 44 H -0.1879 5.4259 -1.1914 0
M  V30 45 H 1.416 4.819 -1.7666 0
M  V30 46 H -1.1826 4.4041 0.9033 0
M  V30 47 H -0.1891 3.1935 1.8095 0
M  V30 48 H 0.348 4.8937 1.7308 0
M  V30 END ATOM
M  V30 BEGIN BOND
M  V30 1 1 1 2
M  V30 2 2 2 3
M  V30 3 1 2 4
M  V30 4 1 3 5
M  V30 5 1 3 6
M  V30 6 2 4 7
M  V30 7 1 4 8
M  V30 8 2 5 9
M  V30 9 1 6 10
M  V30 10 1 8 11
M  V30 11 1 9 12
M  V30 12 1 10 13
M  V30 13 1 10 14
M  V30 14 1 11 15
M  V30 15 1 11 16
M  V30 16 1 12 17
M  V30 17 1 17 18
M  V30 18 1 17 19
M  V30 19 1 7 9
M  V30 20 1 5 20
M  V30 21 1 6 21
M  V30 22 1 6 22
M  V30 23 1 7 23
M  V30 24 1 8 24
M  V30 25 1 8 25
M  V30 26 1 10 26
M  V30 27 1 11 27
M  V30 28 1 12 28
M  V30 29 1 12 29
M  V30 30 1 13 30
M  V30 31 1 13 31
M  V30 32 1 13 32
M  V30 33 1 14 33
M  V30 34 1 14 34
M  V30 35 1 14 35
M  V30 36 1 15 36
M  V30 37 1 15 37
M  V30 38 1 15 38
M  V30 39 1 16 39
M  V30 40 1 16 40
M  V30 41 1 16 41
M  V30 42 1 17 42
M  V30 43 1 18 43
M  V30 44 1 18 44
M  V30 45 1 18 45
M  V30 46 1 19 46
M  V30 47 1 19 47
M  V30 48 1 19 48
M  V30 END BOND
M  V30 END CTAB
M  END
>  <Structure No>
2734

>  <LogS>
0.505516371

>  <MMFF94 Energy>
-75.498

$$$$
Compound 2735
Actelion Java MolfileCreator 2.0

  0  0  0  0  0  0              0 V3000
M  V30 BEGIN CTAB
M  V30 COUNTS 20 19 0 0 0
M  V30 BEGIN ATOM
M  V30 1 O -4.0947 0.6414 1.524 0
M  V30 2 C -3.2063 1.4613 1.1721 0
M  V30 3 O -2.9056 2.544 1.9886 0 CHG=-1
M  V30 4 C -2.453 1.2557 -0.1041 0
M  V30 5 O -1.1143 0.8917 0.1701 0
M  V30 6 C -0.9993 -0.5127 0.281 0
M  V30 7 C 0.4196 -0.8718 0.7032 0
M  V30 8 O 1.3281 -0.4273 -0.2825 0
M  V30 9 C 2.6439 -0.7503 0.1107 0
M  V30 10 C 3.5905 -0.2798 -0.9423 0
M  V30 11 O 4.0248 0.9017 -0.921 0
M  V30 12 O 3.9522 -1.1276 -1.9816 0 CHG=-1
M  V30 13 H -2.9812 0.5279 -0.765 0
M  V30 14 H -2.4414 2.2202 -0.6534 0
M  V30 15 H -1.2108 -0.9995 -0.6982 0
M  V30 16 H -1.701 -0.9119 1.0489 0
M  V30 17 H 0.4772 -1.9783 0.8205 0
M  V30 18 H 0.6278 -0.3865 1.6848 0
M  V30 19 H 2.7652 -1.8515 0.225 0
M  V30 20 H 2.9056 -0.2524 1.0726 0
M  V30 END ATOM
M  V30 BEGIN BOND
M  V30 1 2 1 2
M  V30 2 1 2 3
M  V30 3 1 2 4
M  V30 4 1 4 5
M  V30 5 1 5 6
M  V30 6 1 6 7
M  V30 7 1 7 8
M  V30 8 1 8 9
M  V30 9 1 9 10
M  V30 10 2 10 11
M  V30 11 1 10 12
M  V30 12 1 4 13
M  V30 13 1 4 14
M  V30 14 1 6 15
M  V30 15 1 6 16
M  V30 16 1 7 17
M  V30 17 1 7 18
M  V30 18 1 9 19
M  V30 19 1 9 20
M  V30 END BOND
M  V30 END CTAB
M  END
>  <Structure No>
2735

>  <LogS>
0.670925028

>  <MMFF94 Energy>
180.39

$$$$
Compound 2736
Actelion Java MolfileCreator 2.0

  0  0  0  0  0  0              0 V3000
M  V30 BEGIN CTAB
M  V30 COUNTS 20 19 0 0 0
M  V30 BEGIN ATOM
M  V30 1 O -0.154 -0.7702 1.3867 0
M  V30 2 C -0.6006 -0.0323 0.4662 0
M  V30 3 N 0.3013 0.8196 -0.2589 0
M  V30 4 C -2.0544 -0.0457 0.1729 0
M  V30 5 C 1.747 0.7418 -0.0773 0
M  V30 6 C -2.5199 0.2703 -1.0408 0
M  V30 7 C -3.012 -0.5478 1.2185 0
M  V30 8 O 2.2048 -0.5145 -0.5294 0
M  V30 9 C 3.5963 -0.6065 -0.3238 0
M  V30 10 H -0.0744 1.5636 -0.8881 0
M  V30 11 H 1.98 0.8909 1.0021 0
M  V30 12 H 2.2234 1.5617 -0.6624 0
M  V30 13 H -1.861 0.5575 -1.8486 0
M  V30 14 H -3.5794 0.2157 -1.2595 0
M  V30 15 H -2.637 -0.3067 2.2357 0
M  V30 16 H -3.1197 -1.6486 1.1244 0
M  V30 17 H -4.0112 -0.074 1.1067 0
M  V30 18 H 4.1419 0.177 -0.8953 0
M  V30 19 H 3.8482 -0.5453 0.7584 0
M  V30 20 H 3.9434 -1.5932 -0.693 0
M  V30 END ATOM
M  V30 BEGIN BOND
M  V30 1 2 1 2
M  V30 2 1 2 3
M  V30 3 1 2 4
M  V30 4 1 3 5
M  V30 5 2 4 6
M  V30 6 1 4 7
M  V30 7 1 5 8
M  V30 8 1 8 9
M  V30 9 1 3 10
M  V30 10 1 5 11
M  V30 11 1 5 12
M  V30 12 1 6 13
M  V30 13 1 6 14
M  V30 14 1 7 15
M  V30 15 1 7 16
M  V30 16 1 7 17
M  V30 17 1 9 18
M  V30 18 1 9 19
M  V30 19 1 9 20
M  V30 END BOND
M  V30 END CTAB
M  END
>  <Structure No>
2736

>  <LogS>
0.791965313

>  <MMFF94 Energy>
-51.667

$$$$
Compound 2737
Actelion Java MolfileCreator 2.0

  0  0  0  0  0  0              0 V3000
M  V30 BEGIN CTAB
M  V30 COUNTS 46 45 0 0 0
M  V30 BEGIN ATOM
M  V30 1 O 0.1618 -4.2947 -1.943 0
M  V30 2 C 0.1084 -3.8845 -0.7538 0
M  V30 3 O 0.8687 -4.5109 0.2258 0 CHG=-1
M  V30 4 C -0.7513 -2.7042 -0.4032 0
M  V30 5 N -0.0847 -1.4182 -0.7325 0 CHG=1
M  V30 6 C -1.0831 -0.3196 -0.8636 0
M  V30 7 C 1.0211 -1.1336 0.2228 0
M  V30 8 C -1.8817 -0.0153 0.4262 0
M  V30 9 C 1.7698 0.1772 -0.0881 0
M  V30 10 N -2.6652 1.2384 0.3054 0
M  V30 11 N 3.0617 0.2186 0.6338 0
M  V30 12 C -3.2004 1.6613 1.619 0
M  V30 13 C -3.7189 1.1967 -0.7433 0
M  V30 14 C 4.1493 -0.4143 -0.1462 0
M  V30 15 C 3.4095 1.5868 1.0921 0
M  V30 16 C -3.5184 3.1233 1.6107 0
M  V30 17 C -4.6934 0.0598 -0.5859 0
M  V30 18 C 5.2512 -0.8596 0.7627 0
M  V30 19 C 3.5635 2.5745 -0.0348 0
M  V30 20 O -4.7138 3.5137 1.6575 0
M  V30 21 O -2.4926 4.0555 1.5216 0 CHG=-1
M  V30 22 O -4.4834 -1.0391 -1.1643 0
M  V30 23 O -5.8357 0.2191 0.1882 0 CHG=-1
M  V30 24 O 6.3336 -0.2183 0.8121 0
M  V30 25 O 5.0661 -1.9629 1.5865 0 CHG=-1
M  V30 26 O 4.707 2.8555 -0.4805 0
M  V30 27 O 2.4449 3.1661 -0.6043 0 CHG=-1
M  V30 28 H -1.0084 -2.7513 0.6788 0
M  V30 29 H -1.7054 -2.8088 -0.9671 0
M  V30 30 H 0.3496 -1.5219 -1.6818 0
M  V30 31 H -1.7972 -0.5903 -1.671 0
M  V30 32 H -0.5919 0.6107 -1.2202 0
M  V30 33 H 1.7549 -1.9675 0.1844 0
M  V30 34 H 0.657 -1.1098 1.2725 0
M  V30 35 H -2.543 -0.8682 0.6888 0
M  V30 36 H -1.1584 0.1037 1.256 0
M  V30 37 H 1.1151 1.0149 0.2399 0
M  V30 38 H 1.9275 0.2857 -1.1851 0
M  V30 39 H -2.446 1.5105 2.4219 0
M  V30 40 H -4.0941 1.0659 1.9033 0
M  V30 41 H -3.2479 1.1472 -1.7474 0
M  V30 42 H -4.2889 2.1499 -0.7518 0
M  V30 43 H 3.7807 -1.3179 -0.6769 0
M  V30 44 H 4.5431 0.268 -0.9309 0
M  V30 45 H 2.6225 1.9552 1.7853 0
M  V30 46 H 4.3454 1.5592 1.6909 0
M  V30 END ATOM
M  V30 BEGIN BOND
M  V30 1 2 1 2
M  V30 2 1 2 3
M  V30 3 1 2 4
M  V30 4 1 4 5
M  V30 5 1 5 6
M  V30 6 1 5 7
M  V30 7 1 6 8
M  V30 8 1 7 9
M  V30 9 1 8 10
M  V30 10 1 9 11
M  V30 11 1 10 12
M  V30 12 1 10 13
M  V30 13 1 11 14
M  V30 14 1 11 15
M  V30 15 1 12 16
M  V30 16 1 13 17
M  V30 17 1 14 18
M  V30 18 1 15 19
M  V30 19 2 16 20
M  V30 20 1 16 21
M  V30 21 2 17 22
M  V30 22 1 17 23
M  V30 23 2 18 24
M  V30 24 1 18 25
M  V30 25 2 19 26
M  V30 26 1 19 27
M  V30 27 1 4 28
M  V30 28 1 4 29
M  V30 29 1 5 30
M  V30 30 1 6 31
M  V30 31 1 6 32
M  V30 32 1 7 33
M  V30 33 1 7 34
M  V30 34 1 8 35
M  V30 35 1 8 36
M  V30 36 1 9 37
M  V30 37 1 9 38
M  V30 38 1 12 39
M  V30 39 1 12 40
M  V30 40 1 13 41
M  V30 41 1 13 42
M  V30 42 1 14 43
M  V30 43 1 14 44
M  V30 44 1 15 45
M  V30 45 1 15 46
M  V30 END BOND
M  V30 END CTAB
M  END
>  <Structure No>
2737

>  <LogS>
0.201298437

>  <MMFF94 Energy>
576.26

$$$$
Compound 2738
Actelion Java MolfileCreator 2.0

  0  0  0  0  0  0              0 V3000
M  V30 BEGIN CTAB
M  V30 COUNTS 45 45 0 0 0
M  V30 BEGIN ATOM
M  V30 1 N -2.1815 0.9344 -0.545 0 CHG=1
M  V30 2 C -2.4757 -0.5242 -0.4185 0
M  V30 3 C -1.4242 1.5803 0.5768 0
M  V30 4 C -1.174 -1.3549 -0.15 0
M  V30 5 C -3.5206 -0.7914 0.6956 0
M  V30 6 C -3.107 -1.0128 -1.7471 0
M  V30 7 C -0.4869 0.5742 1.3061 0
M  V30 8 C -0.5594 2.7344 0.0021 0
M  V30 9 C -2.3908 2.225 1.6025 0
M  V30 10 C 0.0213 -0.509 0.337 0
M  V30 11 N 1.0461 -1.3738 0.9731 0 CHG=1
M  V30 12 C 2.4021 -0.7868 0.9399 0
M  V30 13 C 3.1152 -1.0467 -0.3991 0
M  V30 14 C 4.5385 -0.4777 -0.3816 0
M  V30 15 C 5.2149 -0.638 -1.7387 0
M  V30 16 H -1.6314 1.0526 -1.4297 0
M  V30 17 H -3.0754 1.4545 -0.7123 0
M  V30 18 H -0.8427 -1.8862 -1.0708 0
M  V30 19 H -1.3824 -2.1561 0.5945 0
M  V30 20 H -3.9189 -1.8273 0.6189 0
M  V30 21 H -4.3769 -0.0877 0.6113 0
M  V30 22 H -3.0796 -0.7076 1.7066 0
M  V30 23 H -2.4177 -0.8331 -2.6001 0
M  V30 24 H -4.0561 -0.4716 -1.9515 0
M  V30 25 H -3.3256 -2.1021 -1.7061 0
M  V30 26 H 0.3654 1.1153 1.7705 0
M  V30 27 H -1.0122 0.0803 2.1526 0
M  V30 28 H -1.1979 3.4589 -0.5487 0
M  V30 29 H 0.2074 2.3473 -0.7021 0
M  V30 30 H -0.0322 3.2833 0.8127 0
M  V30 31 H -1.8176 2.7444 2.4017 0
M  V30 32 H -3.0456 2.9747 1.1072 0
M  V30 33 H -3.0411 1.4804 2.0968 0
M  V30 34 H 0.4527 -0.0082 -0.5568 0
M  V30 35 H 1.0736 -2.3109 0.5059 0
M  V30 36 H 0.7818 -1.5496 1.9717 0
M  V30 37 H 2.3717 0.3058 1.1385 0
M  V30 38 H 3.0099 -1.2437 1.7522 0
M  V30 39 H 2.5447 -0.5796 -1.2282 0
M  V30 40 H 3.167 -2.1411 -0.5831 0
M  V30 41 H 5.1426 -1.0098 0.3866 0
M  V30 42 H 4.5092 0.6024 -0.1189 0
M  V30 43 H 4.6672 -0.0537 -2.513 0
M  V30 44 H 6.2573 -0.2613 -1.6784 0
M  V30 45 H 5.2392 -1.7089 -2.0376 0
M  V30 END ATOM
M  V30 BEGIN BOND
M  V30 1 1 1 2
M  V30 2 1 1 3
M  V30 3 1 2 4
M  V30 4 1 2 5
M  V30 5 1 2 6
M  V30 6 1 3 7
M  V30 7 1 3 8
M  V30 8 1 3 9
M  V30 9 1 4 10
M  V30 10 1 10 11
M  V30 11 1 11 12
M  V30 12 1 12 13
M  V30 13 1 13 14
M  V30 14 1 14 15
M  V30 15 1 7 10
M  V30 16 1 1 16
M  V30 17 1 1 17
M  V30 18 1 4 18
M  V30 19 1 4 19
M  V30 20 1 5 20
M  V30 21 1 5 21
M  V30 22 1 5 22
M  V30 23 1 6 23
M  V30 24 1 6 24
M  V30 25 1 6 25
M  V30 26 1 7 26
M  V30 27 1 7 27
M  V30 28 1 8 28
M  V30 29 1 8 29
M  V30 30 1 8 30
M  V30 31 1 9 31
M  V30 32 1 9 32
M  V30 33 1 9 33
M  V30 34 1 10 34
M  V30 35 1 11 35
M  V30 36 1 11 36
M  V30 37 1 12 37
M  V30 38 1 12 38
M  V30 39 1 13 39
M  V30 40 1 13 40
M  V30 41 1 14 41
M  V30 42 1 14 42
M  V30 43 1 15 43
M  V30 44 1 15 44
M  V30 45 1 15 45
M  V30 END BOND
M  V30 END CTAB
M  END
>  <Structure No>
2738

>  <LogS>
0.57461503

>  <MMFF94 Energy>
81.715

$$$$
Compound 2739
Actelion Java MolfileCreator 2.0

  0  0  0  0  0  0              0 V3000
M  V30 BEGIN CTAB
M  V30 COUNTS 56 59 0 0 0
M  V30 BEGIN ATOM
M  V30 1 Cl -10.5057 -0.6865 -1.5451 0
M  V30 2 C -8.8672 -0.1106 -1.3293 0
M  V30 3 N -7.9075 -0.9525 -0.8695 0
M  V30 4 N -8.5579 1.1779 -1.6191 0
M  V30 5 C -6.6328 -0.5128 -0.7062 0
M  V30 6 C -7.2886 1.6268 -1.4468 0
M  V30 7 N -6.3303 0.7827 -0.9863 0
M  V30 8 N -5.6354 -1.408 -0.1929 0
M  V30 9 N -6.9622 2.9817 -1.7473 0
M  V30 10 C -4.2253 -1.1272 -0.182 0
M  V30 11 C -3.4394 -1.5982 0.8787 0
M  V30 12 C -3.6088 -0.4371 -1.2377 0
M  V30 13 C -2.0536 -1.3599 0.9119 0
M  V30 14 C -2.2377 -0.1785 -1.2062 0
M  V30 15 N -1.2588 -1.8093 2.0248 0
M  V30 16 C -1.453 -0.6256 -0.1287 0
M  V30 17 C -1.4307 -3.0817 2.6664 0
M  V30 18 N -0.0428 -0.3708 -0.0849 0
M  V30 19 O -2.1982 -3.9516 2.1737 0
M  V30 20 N -0.6995 -3.3834 3.8542 0
M  V30 21 N 0.5586 0.2952 -0.987 0
M  V30 22 C 1.97 0.55 -0.9374 0
M  V30 23 C 2.5709 1.3103 -1.9547 0
M  V30 24 C 2.7569 0.0506 0.1159 0
M  V30 25 S 1.5999 1.9446 -3.2884 0
M  V30 26 C 3.9468 1.5648 -1.9117 0
M  V30 27 C 4.1426 0.3022 0.1729 0
M  V30 28 O 1.0294 0.8017 -4.0797 0
M  V30 29 O 2.4416 2.7966 -4.1965 0
M  V30 30 O 0.3501 2.8831 -2.6714 0 CHG=-1
M  V30 31 C 4.7343 1.0718 -0.8612 0
M  V30 32 C 4.9592 -0.1913 1.2255 0
M  V30 33 C 6.1094 1.3412 -0.8373 0
M  V30 34 S 4.3036 -1.1611 2.5588 0
M  V30 35 C 6.3345 0.091 1.2196 0
M  V30 36 C 6.908 0.8578 0.2006 0
M  V30 37 O 5.385 -1.5022 3.5461 0
M  V30 38 O 3.724 -2.4372 2.0165 0
M  V30 39 O 3.1097 -0.2881 3.3569 0 CHG=-1
M  V30 40 S 8.6362 1.1968 0.2031 0
M  V30 41 O 9.1997 1.0094 1.5843 0
M  V30 42 O 8.8724 2.6176 -0.2261 0
M  V30 43 O 9.4108 0.1517 -0.8593 0 CHG=-1
M  V30 44 H -5.9679 -2.2794 0.2796 0
M  V30 45 H -7.6936 3.635 -2.1056 0
M  V30 46 H -5.9862 3.3301 -1.62 0
M  V30 47 H -3.9191 -2.1205 1.6968 0
M  V30 48 H -4.1818 -0.1127 -2.0962 0
M  V30 49 H -1.7895 0.3635 -2.0292 0
M  V30 50 H -0.4535 -1.2187 2.3334 0
M  V30 51 H -0.8029 -4.3143 4.3158 0
M  V30 52 H -0.0571 -2.677 4.2761 0
M  V30 53 H 2.2738 -0.5344 0.8834 0
M  V30 54 H 4.4079 2.1504 -2.698 0
M  V30 55 H 6.5633 1.9269 -1.6291 0
M  V30 56 H 6.9666 -0.2884 2.0109 0
M  V30 END ATOM
M  V30 BEGIN BOND
M  V30 1 1 1 2
M  V30 2 2 2 3
M  V30 3 1 2 4
M  V30 4 1 3 5
M  V30 5 2 4 6
M  V30 6 2 5 7
M  V30 7 1 5 8
M  V30 8 1 6 9
M  V30 9 1 8 10
M  V30 10 2 10 11
M  V30 11 1 10 12
M  V30 12 1 11 13
M  V30 13 2 12 14
M  V30 14 1 13 15
M  V30 15 2 13 16
M  V30 16 1 15 17
M  V30 17 1 16 18
M  V30 18 2 17 19
M  V30 19 1 17 20
M  V30 20 2 18 21
M  V30 21 1 21 22
M  V30 22 1 22 23
M  V30 23 2 22 24
M  V30 24 1 23 25
M  V30 25 2 23 26
M  V30 26 1 24 27
M  V30 27 2 25 28
M  V30 28 2 25 29
M  V30 29 1 25 30
M  V30 30 1 26 31
M  V30 31 2 27 32
M  V30 32 2 31 33
M  V30 33 1 32 34
M  V30 34 1 32 35
M  V30 35 1 33 36
M  V30 36 2 34 37
M  V30 37 2 34 38
M  V30 38 1 34 39
M  V30 39 1 36 40
M  V30 40 2 40 41
M  V30 41 2 40 42
M  V30 42 1 40 43
M  V30 43 1 6 7
M  V30 44 1 14 16
M  V30 45 1 27 31
M  V30 46 2 35 36
M  V30 47 1 8 44
M  V30 48 1 9 45
M  V30 49 1 9 46
M  V30 50 1 11 47
M  V30 51 1 12 48
M  V30 52 1 14 49
M  V30 53 1 15 50
M  V30 54 1 20 51
M  V30 55 1 20 52
M  V30 56 1 24 53
M  V30 57 1 26 54
M  V30 58 1 33 55
M  V30 59 1 35 56
M  V30 END BOND
M  V30 END CTAB
M  END
>  <Structure No>
2739

>  <LogS>
-1.000000587

>  <MMFF94 Energy>
-109.62

$$$$
Compound 2740
Actelion Java MolfileCreator 2.0

  0  0  0  0  0  0              0 V3000
M  V30 BEGIN CTAB
M  V30 COUNTS 16 15 0 0 0
M  V30 BEGIN ATOM
M  V30 1 O 1.1479 -0.9182 0.5355 0
M  V30 2 O 1.7396 -0.1696 1.4513 0
M  V30 3 C 0.0435 -0.1959 0.0182 0
M  V30 4 C -0.9809 0.1144 1.1312 0
M  V30 5 C -0.6305 -1.0886 -1.0353 0
M  V30 6 C 0.507 1.1094 -0.6644 0
M  V30 7 H 2.6218 0.0582 1.0606 0
M  V30 8 H -1.2764 -0.8208 1.6534 0
M  V30 9 H -1.8926 0.5861 0.7046 0
M  V30 10 H -0.5549 0.8138 1.8818 0
M  V30 11 H 0.0863 -1.335 -1.848 0
M  V30 12 H -1.512 -0.5808 -1.484 0
M  V30 13 H -0.9692 -2.0416 -0.5741 0
M  V30 14 H -0.3472 1.6151 -1.1646 0
M  V30 15 H 0.9342 1.8177 0.0772 0
M  V30 16 H 1.285 0.8893 -1.4264 0
M  V30 END ATOM
M  V30 BEGIN BOND
M  V30 1 1 1 2
M  V30 2 1 1 3
M  V30 3 1 3 4
M  V30 4 1 3 5
M  V30 5 1 3 6
M  V30 6 1 2 7
M  V30 7 1 4 8
M  V30 8 1 4 9
M  V30 9 1 4 10
M  V30 10 1 5 11
M  V30 11 1 5 12
M  V30 12 1 5 13
M  V30 13 1 6 14
M  V30 14 1 6 15
M  V30 15 1 6 16
M  V30 END BOND
M  V30 END CTAB
M  END
>  <Structure No>
2740

>  <LogS>
0.884647226

>  <MMFF94 Energy>
19.332

$$$$
Compound 2741
Actelion Java MolfileCreator 2.0

  0  0  0  0  0  0              0 V3000
M  V30 BEGIN CTAB
M  V30 COUNTS 40 42 0 0 0
M  V30 BEGIN ATOM
M  V30 1 Cl -5.003 2.9657 2.0329 0
M  V30 2 C -4.988 1.5857 0.9452 0
M  V30 3 C -3.8143 0.8437 0.7547 0
M  V30 4 C -6.1605 1.2349 0.2702 0
M  V30 5 O -2.6597 1.2129 1.4378 0 CHG=-1
M  V30 6 C -3.8176 -0.2631 -0.1228 0
M  V30 7 C -6.1794 0.1377 -0.6052 0
M  V30 8 N -2.652 -1.0651 -0.3652 0
M  V30 9 C -4.9994 -0.6036 -0.7933 0
M  V30 10 N -7.3898 -0.2194 -1.2977 0 CHG=1
M  V30 11 N -1.5298 -0.8431 0.1899 0
M  V30 12 O -7.4135 -1.1934 -2.0788 0
M  V30 13 O -8.544 0.506 -1.1091 0 CHG=-1
M  V30 14 C -0.3758 -1.6831 -0.094 0 CFG=2
M  V30 15 C 0.7672 -1.2794 0.7626 0
M  V30 16 C 0.2177 -1.36 -1.4432 0
M  V30 17 O 0.8335 -1.4468 2.0092 0
M  V30 18 N 1.8155 -0.7586 -0.0403 0
M  V30 19 N 1.4124 -0.8606 -1.3734 0
M  V30 20 C -0.455 -1.619 -2.7513 0
M  V30 21 C 3.1055 -0.2733 0.3718 0
M  V30 22 C 3.3001 0.2822 1.6489 0
M  V30 23 C 4.1889 -0.3235 -0.5208 0
M  V30 24 C 4.5585 0.7581 2.029 0
M  V30 25 C 5.447 0.1507 -0.1383 0
M  V30 26 C 5.6366 0.6941 1.1384 0
M  V30 27 S 7.216 1.2915 1.6325 0
M  V30 28 O 7.803 0.3648 2.6588 0
M  V30 29 O 7.0713 2.6673 2.2192 0
M  V30 30 O 8.2477 1.3738 0.3088 0 CHG=-1
M  V30 31 H -7.0557 1.8216 0.4319 0
M  V30 32 H -4.9931 -1.4531 -1.4648 0
M  V30 33 H -0.6098 -2.7638 0.0165 0
M  V30 34 H -0.627 -0.6569 -3.2774 0
M  V30 35 H 0.1884 -2.2703 -3.3788 0
M  V30 36 H -1.4295 -2.1261 -2.5949 0
M  V30 37 H 2.4797 0.3751 2.3462 0
M  V30 38 H 4.0635 -0.7425 -1.511 0
M  V30 39 H 4.6911 1.1827 3.0163 0
M  V30 40 H 6.2694 0.0914 -0.839 0
M  V30 END ATOM
M  V30 BEGIN BOND
M  V30 1 1 1 2
M  V30 2 2 2 3
M  V30 3 1 2 4
M  V30 4 1 3 5
M  V30 5 1 3 6
M  V30 6 2 4 7
M  V30 7 1 6 8
M  V30 8 2 6 9
M  V30 9 1 7 10
M  V30 10 2 8 11
M  V30 11 2 10 12
M  V30 12 1 10 13
M  V30 13 1 11 14
M  V30 14 1 14 15
M  V30 15 1 14 16
M  V30 16 2 15 17
M  V30 17 1 15 18
M  V30 18 2 16 19
M  V30 19 1 16 20
M  V30 20 1 18 21
M  V30 21 2 21 22
M  V30 22 1 21 23
M  V30 23 1 22 24
M  V30 24 2 23 25
M  V30 25 2 24 26
M  V30 26 1 26 27
M  V30 27 2 27 28
M  V30 28 2 27 29
M  V30 29 1 27 30
M  V30 30 1 7 9
M  V30 31 1 18 19
M  V30 32 1 25 26
M  V30 33 1 4 31
M  V30 34 1 9 32
M  V30 35 1 14 33
M  V30 36 1 20 34
M  V30 37 1 20 35
M  V30 38 1 20 36
M  V30 39 1 22 37
M  V30 40 1 23 38
M  V30 41 1 24 39
M  V30 42 1 25 40
M  V30 END BOND
M  V30 BEGIN COLLECTION
M  V30 MDLV30/STEABS ATOMS=(1 14)
M  V30 END COLLECTION
M  V30 END CTAB
M  END
>  <Structure No>
2741

>  <LogS>
-0.838577173

>  <MMFF94 Energy>
172.52

$$$$
Compound 2742
Actelion Java MolfileCreator 2.0

  0  0  0  0  0  0              0 V3000
M  V30 BEGIN CTAB
M  V30 COUNTS 4 3 0 0 0
M  V30 BEGIN ATOM
M  V30 1 O 1.249 -0.0832 0.0832 0
M  V30 2 N 0.007 0.0123 0.0292 0 CHG=1
M  V30 3 O -0.7686 -1.1214 -0.002 0 CHG=-1
M  V30 4 O -0.5861 1.2516 0.001 0 CHG=-1
M  V30 END ATOM
M  V30 BEGIN BOND
M  V30 1 2 1 2
M  V30 2 1 2 3
M  V30 3 1 2 4
M  V30 END BOND
M  V30 END CTAB
M  END
>  <Structure No>
2742

>  <LogS>
0.361876193

>  <MMFF94 Energy>
6.4146

$$$$
Compound 2743
Actelion Java MolfileCreator 2.0

  0  0  0  0  0  0              0 V3000
M  V30 BEGIN CTAB
M  V30 COUNTS 62 61 0 0 0
M  V30 BEGIN ATOM
M  V30 1 O -1.8008 -1.0958 -1.3308 0
M  V30 2 C -2.3496 -0.5613 -0.3269 0
M  V30 3 N -3.6899 -0.9612 0.0426 0
M  V30 4 C -1.6272 0.5419 0.4136 0
M  V30 5 C -4.1091 -0.963 1.4546 0
M  V30 6 C -4.5667 -1.5777 -0.9685 0
M  V30 7 C -0.1363 0.6203 0.0551 0
M  V30 8 C -4.7735 0.371 1.846 0 CFG=1
M  V30 9 C -4.8799 -0.5993 -2.1147 0 CFG=2
M  V30 10 C 0.5681 1.7241 0.8587 0
M  V30 11 O -6.0028 0.5335 1.185 0
M  V30 12 C -4.9716 0.4637 3.3626 0
M  V30 13 O -5.4821 0.5575 -1.5971 0
M  V30 14 C -5.8145 -1.2529 -3.1359 0
M  V30 15 C 2.0495 1.8654 0.473 0
M  V30 16 C 2.8738 0.6529 0.8335 0
M  V30 17 O 2.5879 -0.002 1.8731 0
M  V30 18 N 4.0134 0.2594 0.0402 0
M  V30 19 C 4.8752 1.2621 -0.6076 0
M  V30 20 C 4.3043 -1.168 -0.1536 0
M  V30 21 C 5.6442 2.0989 0.4319 0 CFG=2
M  V30 22 C 3.7206 -1.6646 -1.4863 0 CFG=2
M  V30 23 O 6.3959 3.0871 -0.2222 0
M  V30 24 C 6.5917 1.2266 1.2572 0
M  V30 25 O 2.3216 -1.5438 -1.477 0
M  V30 26 C 4.0877 -3.1292 -1.719 0
M  V30 27 H -1.7135 0.3854 1.5081 0
M  V30 28 H -2.1139 1.5076 0.1589 0
M  V30 29 H -4.818 -1.7983 1.6471 0
M  V30 30 H -3.2343 -1.1716 2.1071 0
M  V30 31 H -5.5247 -1.9059 -0.5078 0
M  V30 32 H -4.0712 -2.4859 -1.376 0
M  V30 33 H 0.3391 -0.3603 0.2734 0
M  V30 34 H -0.0294 0.8352 -1.0309 0
M  V30 35 H -4.1121 1.2095 1.5454 0
M  V30 36 H -3.9308 -0.3328 -2.6336 0
M  V30 37 H 0.4781 1.5208 1.9484 0
M  V30 38 H 0.0637 2.6947 0.6572 0
M  V30 39 H -6.5989 -0.2088 1.4673 0
M  V30 40 H -5.467 1.4241 3.6192 0
M  V30 41 H -5.6042 -0.3739 3.7266 0
M  V30 42 H -3.9893 0.4262 3.8802 0
M  V30 43 H -5.3903 1.2642 -2.2884 0
M  V30 44 H -6.7829 -1.5207 -2.6612 0
M  V30 45 H -6.0107 -0.5495 -3.9726 0
M  V30 46 H -5.3473 -2.1707 -3.5526 0
M  V30 47 H 2.472 2.7482 0.9974 0
M  V30 48 H 2.1065 2.0561 -0.6188 0
M  V30 49 H 5.6075 0.7685 -1.2843 0
M  V30 50 H 4.2651 1.9283 -1.2512 0
M  V30 51 H 5.4054 -1.3255 -0.1456 0
M  V30 52 H 3.8915 -1.7715 0.6842 0
M  V30 53 H 4.9258 2.5825 1.1326 0
M  V30 54 H 4.1559 -1.0701 -2.324 0
M  V30 55 H 5.7583 3.7963 -0.4991 0
M  V30 56 H 7.1614 1.8614 1.9686 0
M  V30 57 H 6.0193 0.4775 1.8442 0
M  V30 58 H 7.3115 0.6992 0.5956 0
M  V30 59 H 2.1092 -0.6212 -1.7762 0
M  V30 60 H 3.6674 -3.4718 -2.6883 0
M  V30 61 H 3.6768 -3.767 -0.9071 0
M  V30 62 H 5.1916 -3.2495 -1.753 0
M  V30 END ATOM
M  V30 BEGIN BOND
M  V30 1 2 1 2
M  V30 2 1 2 3
M  V30 3 1 2 4
M  V30 4 1 3 5
M  V30 5 1 3 6
M  V30 6 1 4 7
M  V30 7 1 5 8
M  V30 8 1 6 9
M  V30 9 1 7 10
M  V30 10 1 8 11
M  V30 11 1 8 12
M  V30 12 1 9 13
M  V30 13 1 9 14
M  V30 14 1 10 15
M  V30 15 1 15 16
M  V30 16 2 16 17
M  V30 17 1 16 18
M  V30 18 1 18 19
M  V30 19 1 18 20
M  V30 20 1 19 21
M  V30 21 1 20 22
M  V30 22 1 21 23
M  V30 23 1 21 24
M  V30 24 1 22 25
M  V30 25 1 22 26
M  V30 26 1 4 27
M  V30 27 1 4 28
M  V30 28 1 5 29
M  V30 29 1 5 30
M  V30 30 1 6 31
M  V30 31 1 6 32
M  V30 32 1 7 33
M  V30 33 1 7 34
M  V30 34 1 8 35
M  V30 35 1 9 36
M  V30 36 1 10 37
M  V30 37 1 10 38
M  V30 38 1 11 39
M  V30 39 1 12 40
M  V30 40 1 12 41
M  V30 41 1 12 42
M  V30 42 1 13 43
M  V30 43 1 14 44
M  V30 44 1 14 45
M  V30 45 1 14 46
M  V30 46 1 15 47
M  V30 47 1 15 48
M  V30 48 1 19 49
M  V30 49 1 19 50
M  V30 50 1 20 51
M  V30 51 1 20 52
M  V30 52 1 21 53
M  V30 53 1 22 54
M  V30 54 1 23 55
M  V30 55 1 24 56
M  V30 56 1 24 57
M  V30 57 1 24 58
M  V30 58 1 25 59
M  V30 59 1 26 60
M  V30 60 1 26 61
M  V30 61 1 26 62
M  V30 END BOND
M  V30 BEGIN COLLECTION
M  V30 MDLV30/STEABS ATOMS=(4 8 9 21 22)
M  V30 END COLLECTION
M  V30 END CTAB
M  END
>  <Structure No>
2743

>  <LogS>
0.210993363

>  <MMFF94 Energy>
62.481

$$$$
Compound 2744
Actelion Java MolfileCreator 2.0

  0  0  0  0  0  0              0 V3000
M  V30 BEGIN CTAB
M  V30 COUNTS 11 10 0 0 0
M  V30 BEGIN ATOM
M  V30 1 S 1.6699 0.4172 -1.2522 0
M  V30 2 C 0.8745 -0.7135 -0.064 0
M  V30 3 C -0.6476 -0.554 -0.0685 0
M  V30 4 C -1.0696 0.756 0.5213 0
M  V30 5 O -1.0738 0.9161 1.7702 0
M  V30 6 O -1.4279 1.8108 -0.3086 0 CHG=-1
M  V30 7 H 1.5086 1.5418 -0.4209 0
M  V30 8 H 1.1256 -1.7535 -0.3607 0
M  V30 9 H 1.2841 -0.5386 0.9541 0
M  V30 10 H -1.0323 -0.6409 -1.1075 0
M  V30 11 H -1.0989 -1.3767 0.5268 0
M  V30 END ATOM
M  V30 BEGIN BOND
M  V30 1 1 1 2
M  V30 2 1 2 3
M  V30 3 1 3 4
M  V30 4 2 4 5
M  V30 5 1 4 6
M  V30 6 1 1 7
M  V30 7 1 2 8
M  V30 8 1 2 9
M  V30 9 1 3 10
M  V30 10 1 3 11
M  V30 END BOND
M  V30 END CTAB
M  END
>  <Structure No>
2744

>  <LogS>
0.754917543

>  <MMFF94 Energy>
-7.837

$$$$
Compound 2745
Actelion Java MolfileCreator 2.0

  0  0  0  0  0  0              0 V3000
M  V30 BEGIN CTAB
M  V30 COUNTS 17 16 0 0 0
M  V30 BEGIN ATOM
M  V30 1 O 1.0803 -0.6944 1.0031 0
M  V30 2 C 0.6583 -0.1388 -0.0487 0
M  V30 3 O 1.548 0.4859 -0.9274 0
M  V30 4 C -0.8136 -0.1423 -0.3664 0 CFG=1
M  V30 5 C 2.9503 0.5316 -0.6935 0
M  V30 6 N -1.3134 -1.512 -0.5077 0
M  V30 7 C -1.603 0.6094 0.7152 0
M  V30 8 O -2.951 0.7278 0.346 0
M  V30 9 H -0.966 0.3887 -1.3324 0
M  V30 10 H 3.3617 -0.4989 -0.6469 0
M  V30 11 H 3.1598 1.0629 0.259 0
M  V30 12 H 3.4411 1.0774 -1.5251 0
M  V30 13 H -1.1248 -2.0468 0.3717 0
M  V30 14 H -0.7869 -1.9824 -1.2798 0
M  V30 15 H -1.5108 0.0957 1.7005 0
M  V30 16 H -1.1845 1.6325 0.8298 0
M  V30 17 H -3.392 -0.1263 0.5933 0
M  V30 END ATOM
M  V30 BEGIN BOND
M  V30 1 2 1 2
M  V30 2 1 2 3
M  V30 3 1 2 4
M  V30 4 1 3 5
M  V30 5 1 4 6
M  V30 6 1 4 7
M  V30 7 1 7 8
M  V30 8 1 4 9
M  V30 9 1 5 10
M  V30 10 1 5 11
M  V30 11 1 5 12
M  V30 12 1 6 13
M  V30 13 1 6 14
M  V30 14 1 7 15
M  V30 15 1 7 16
M  V30 16 1 8 17
M  V30 END BOND
M  V30 BEGIN COLLECTION
M  V30 MDLV30/STEABS ATOMS=(1 4)
M  V30 END COLLECTION
M  V30 END CTAB
M  END
>  <Structure No>
2745

>  <LogS>
0.577420768

>  <MMFF94 Energy>
57.248

$$$$
Compound 2746
Actelion Java MolfileCreator 2.0

  0  0  0  0  0  0              0 V3000
M  V30 BEGIN CTAB
M  V30 COUNTS 19 19 0 0 0
M  V30 BEGIN ATOM
M  V30 1 O 2.1454 2.3045 0.9531 0
M  V30 2 C 1.3126 1.3639 0.8706 0
M  V30 3 O 0.5093 0.9839 1.9219 0
M  V30 4 C 1.1147 0.5298 -0.3332 0 CFG=2
M  V30 5 C -0.2726 -0.1469 1.5831 0
M  V30 6 O 0.958 1.3401 -1.4686 0
M  V30 7 C -0.1705 -0.2753 0.035 0
M  V30 8 C -1.4389 0.3291 -0.6111 0
M  V30 9 C -0.0364 -1.7491 -0.3901 0
M  V30 10 H 2.0066 -0.1298 -0.4433 0
M  V30 11 H -1.3151 -0.0112 1.9442 0
M  V30 12 H 0.1609 -1.0354 2.0922 0
M  V30 13 H 1.0436 0.7377 -2.2526 0
M  V30 14 H -1.5466 1.4003 -0.3343 0
M  V30 15 H -1.3947 0.2507 -1.7185 0
M  V30 16 H -2.3468 -0.2127 -0.2681 0
M  V30 17 H 0.858 -2.2151 0.0767 0
M  V30 18 H -0.933 -2.3263 -0.0771 0
M  V30 19 H 0.0676 -1.8241 -1.494 0
M  V30 END ATOM
M  V30 BEGIN BOND
M  V30 1 2 1 2
M  V30 2 1 2 3
M  V30 3 1 2 4
M  V30 4 1 3 5
M  V30 5 1 4 6
M  V30 6 1 4 7
M  V30 7 1 7 8
M  V30 8 1 7 9
M  V30 9 1 5 7
M  V30 10 1 4 10
M  V30 11 1 5 11
M  V30 12 1 5 12
M  V30 13 1 6 13
M  V30 14 1 8 14
M  V30 15 1 8 15
M  V30 16 1 8 16
M  V30 17 1 9 17
M  V30 18 1 9 18
M  V30 19 1 9 19
M  V30 END BOND
M  V30 BEGIN COLLECTION
M  V30 MDLV30/STEABS ATOMS=(1 4)
M  V30 END COLLECTION
M  V30 END CTAB
M  END
>  <Structure No>
2746

>  <LogS>
0.651530723

>  <MMFF94 Energy>
35.414

$$$$
Compound 2747
Actelion Java MolfileCreator 2.0

  0  0  0  0  0  0              0 V3000
M  V30 BEGIN CTAB
M  V30 COUNTS 39 41 0 0 0
M  V30 BEGIN ATOM
M  V30 1 Cl -6.0053 1.9155 1.6655 0
M  V30 2 C -4.9088 0.8037 0.8526 0
M  V30 3 C -5.3746 -0.2777 0.0776 0
M  V30 4 C -3.5335 1.0226 0.9884 0
M  V30 5 S -7.1037 -0.5919 -0.1325 0
M  V30 6 C -4.4449 -1.1136 -0.5579 0
M  V30 7 C -2.6052 0.1848 0.361 0
M  V30 8 O -7.8 -0.5403 1.1982 0
M  V30 9 O -7.3101 -1.9591 -0.7223 0
M  V30 10 N -7.7898 0.585 -1.1975 0
M  V30 11 C -3.0711 -0.8928 -0.4212 0
M  V30 12 N -1.2102 0.4675 0.5434 0
M  V30 13 O -2.1882 -1.7501 -1.0684 0 CHG=-1
M  V30 14 N -0.2861 -0.2303 0.0191 0
M  V30 15 C 1.0965 0.0769 0.2197 0
M  V30 16 C 2.1623 -0.621 -0.2875 0
M  V30 17 C 1.6674 1.0906 0.9754 0
M  V30 18 O 2.0862 -1.6597 -0.9965 0
M  V30 19 N 3.3117 -0.0489 0.1327 0
M  V30 20 N 3.0131 0.9864 0.9089 0 CHG=-1
M  V30 21 C 0.958 2.1392 1.7692 0
M  V30 22 C 4.6627 -0.4638 -0.1462 0
M  V30 23 C 5.0 -1.0819 -1.3654 0
M  V30 24 C 5.6776 -0.2194 0.796 0
M  V30 25 C 6.3199 -1.4668 -1.6214 0
M  V30 26 C 6.9953 -0.6071 0.5359 0
M  V30 27 C 7.3158 -1.2329 -0.6706 0
M  V30 28 H -3.1811 1.8543 1.5867 0
M  V30 29 H -4.7829 -1.9421 -1.167 0
M  V30 30 H -7.6522 1.5216 -0.7572 0
M  V30 31 H -7.2176 0.5759 -2.0713 0
M  V30 32 H 0.3064 2.74 1.1009 0
M  V30 33 H 1.6937 2.8161 2.2522 0
M  V30 34 H 0.3417 1.6599 2.5582 0
M  V30 35 H 4.2551 -1.2438 -2.1318 0
M  V30 36 H 5.4461 0.261 1.7383 0
M  V30 37 H 6.5719 -1.9399 -2.5616 0
M  V30 38 H 7.7685 -0.4218 1.2703 0
M  V30 39 H 8.3366 -1.5308 -0.8714 0
M  V30 END ATOM
M  V30 BEGIN BOND
M  V30 1 1 1 2
M  V30 2 2 2 3
M  V30 3 1 2 4
M  V30 4 1 3 5
M  V30 5 1 3 6
M  V30 6 2 4 7
M  V30 7 2 5 8
M  V30 8 2 5 9
M  V30 9 1 5 10
M  V30 10 2 6 11
M  V30 11 1 7 12
M  V30 12 1 11 13
M  V30 13 2 12 14
M  V30 14 1 14 15
M  V30 15 1 15 16
M  V30 16 2 15 17
M  V30 17 2 16 18
M  V30 18 1 16 19
M  V30 19 1 17 20
M  V30 20 1 17 21
M  V30 21 1 19 22
M  V30 22 2 22 23
M  V30 23 1 22 24
M  V30 24 1 23 25
M  V30 25 2 24 26
M  V30 26 2 25 27
M  V30 27 1 7 11
M  V30 28 1 19 20
M  V30 29 1 26 27
M  V30 30 1 4 28
M  V30 31 1 6 29
M  V30 32 1 10 30
M  V30 33 1 10 31
M  V30 34 1 21 32
M  V30 35 1 21 33
M  V30 36 1 21 34
M  V30 37 1 23 35
M  V30 38 1 24 36
M  V30 39 1 25 37
M  V30 40 1 26 38
M  V30 41 1 27 39
M  V30 END BOND
M  V30 END CTAB
M  END
>  <Structure No>
2747

>  <LogS>
-2.692470897

>  <MMFF94 Energy>
48.669

$$$$
Compound 2748
Actelion Java MolfileCreator 2.0

  0  0  0  0  0  0              0 V3000
M  V30 BEGIN CTAB
M  V30 COUNTS 37 36 0 0 0
M  V30 BEGIN ATOM
M  V30 1 O 0.6138 -0.2301 0.0 0
M  V30 2 C 0.0591 -0.7704 1.1858 0
M  V30 3 C 1.2272 1.0241 0.2374 0
M  V30 4 C -1.4129 -0.346 1.3643 0
M  V30 5 C 2.724 0.8626 0.5654 0
M  V30 6 N -2.2424 -0.5265 0.1441 0 CHG=1 CFG=2
M  V30 7 N 3.4545 0.0222 -0.4149 0 CHG=1
M  V30 8 C -3.5919 0.0533 0.3737 0
M  V30 9 C -2.345 -1.9572 -0.2151 0
M  V30 10 C 3.5354 0.6695 -1.7381 0
M  V30 11 C 4.814 -0.2522 0.0833 0
M  V30 12 C -4.342 0.3512 -0.9372 0
M  V30 13 O -5.5479 1.0117 -0.6627 0
M  V30 14 H 0.6383 -0.5004 2.0994 0
M  V30 15 H 0.1199 -1.8762 1.1268 0
M  V30 16 H 0.7297 1.6074 1.0468 0
M  V30 17 H 1.1143 1.6449 -0.6745 0
M  V30 18 H -1.4072 0.726 1.6623 0
M  V30 19 H -1.8487 -0.9142 2.2173 0
M  V30 20 H 3.1862 1.8737 0.6324 0
M  V30 21 H 2.797 0.4091 1.5791 0
M  V30 22 H -1.7876 -0.013 -0.6472 0
M  V30 23 H 2.9676 -0.8987 -0.5216 0
M  V30 24 H -4.2093 -0.6215 1.0094 0
M  V30 25 H -3.5089 1.0216 0.9178 0
M  V30 26 H -1.3582 -2.3567 -0.5288 0
M  V30 27 H -3.0156 -2.1089 -1.0843 0
M  V30 28 H -2.7278 -2.5599 0.6379 0
M  V30 29 H 2.5323 0.725 -2.2106 0
M  V30 30 H 4.1739 0.0748 -2.428 0
M  V30 31 H 3.9597 1.6951 -1.6591 0
M  V30 32 H 4.772 -0.7825 1.0602 0
M  V30 33 H 5.3636 -0.913 -0.6228 0
M  V30 34 H 5.3906 0.6911 0.2129 0
M  V30 35 H -4.5857 -0.5908 -1.467 0
M  V30 36 H -3.7112 0.9719 -1.6137 0
M  V30 37 H -5.3185 1.9599 -0.4779 0
M  V30 END ATOM
M  V30 BEGIN BOND
M  V30 1 1 1 2
M  V30 2 1 1 3
M  V30 3 1 2 4
M  V30 4 1 3 5
M  V30 5 1 4 6
M  V30 6 1 5 7
M  V30 7 1 6 8
M  V30 8 1 6 9
M  V30 9 1 7 10
M  V30 10 1 7 11
M  V30 11 1 8 12
M  V30 12 1 12 13
M  V30 13 1 2 14
M  V30 14 1 2 15
M  V30 15 1 3 16
M  V30 16 1 3 17
M  V30 17 1 4 18
M  V30 18 1 4 19
M  V30 19 1 5 20
M  V30 20 1 5 21
M  V30 21 1 6 22
M  V30 22 1 7 23
M  V30 23 1 8 24
M  V30 24 1 8 25
M  V30 25 1 9 26
M  V30 26 1 9 27
M  V30 27 1 9 28
M  V30 28 1 10 29
M  V30 29 1 10 30
M  V30 30 1 10 31
M  V30 31 1 11 32
M  V30 32 1 11 33
M  V30 33 1 11 34
M  V30 34 1 12 35
M  V30 35 1 12 36
M  V30 36 1 13 37
M  V30 END BOND
M  V30 BEGIN COLLECTION
M  V30 MDLV30/STEABS ATOMS=(1 6)
M  V30 END COLLECTION
M  V30 END CTAB
M  END
>  <Structure No>
2748

>  <LogS>
0.476465736

>  <MMFF94 Energy>
125.35

$$$$
Compound 2749
Actelion Java MolfileCreator 2.0

  0  0  0  0  0  0              0 V3000
M  V30 BEGIN CTAB
M  V30 COUNTS 5 4 0 0 0
M  V30 BEGIN ATOM
M  V30 1 N 1.7425 0.0725 0.9435 0
M  V30 2 C 0.726 0.041 0.3915 0
M  V30 3 N -0.5033 0.0028 -0.2759 0
M  V30 4 H -1.3917 0.1146 0.2598 0
M  V30 5 H -0.5316 -0.1374 -1.3094 0
M  V30 END ATOM
M  V30 BEGIN BOND
M  V30 1 3 1 2
M  V30 2 1 2 3
M  V30 3 1 3 4
M  V30 4 1 3 5
M  V30 END BOND
M  V30 END CTAB
M  END
>  <Structure No>
2749

>  <LogS>
1.124514989

>  <MMFF94 Energy>
-36.231

$$$$
Compound 2750
Actelion Java MolfileCreator 2.0

  0  0  0  0  0  0              0 V3000
M  V30 BEGIN CTAB
M  V30 COUNTS 21 21 0 0 0
M  V30 BEGIN ATOM
M  V30 1 O -0.5433 0.0 2.4079 0
M  V30 2 C -1.1467 -0.0581 1.3041 0
M  V30 3 N -0.5151 -0.3356 0.0728 0
M  V30 4 N -2.5346 0.1315 1.1668 0
M  V30 5 C -1.5423 -0.3712 -0.9616 0
M  V30 6 C 0.8968 -0.6551 -0.1232 0
M  V30 7 C -2.8729 -0.0312 -0.2413 0
M  V30 8 C 1.7544 0.6047 0.0343 0
M  V30 9 N 3.1682 0.3071 -0.1916 0 CHG=1
M  V30 10 H -3.203 0.3555 1.9372 0
M  V30 11 H -1.5909 -1.3867 -1.4104 0
M  V30 12 H -1.3145 0.3804 -1.7477 0
M  V30 13 H 1.0442 -1.0732 -1.1428 0
M  V30 14 H 1.2072 -1.4259 0.6148 0
M  V30 15 H -3.6073 -0.8565 -0.359 0
M  V30 16 H -3.3022 0.9147 -0.635 0
M  V30 17 H 1.6253 1.0197 1.058 0
M  V30 18 H 1.4168 1.3727 -0.6965 0
M  V30 19 H 3.7253 1.1841 -0.0734 0
M  V30 20 H 3.3086 -0.0544 -1.1629 0
M  V30 21 H 3.5011 -0.4015 0.5019 0
M  V30 END ATOM
M  V30 BEGIN BOND
M  V30 1 2 1 2
M  V30 2 1 2 3
M  V30 3 1 2 4
M  V30 4 1 3 5
M  V30 5 1 3 6
M  V30 6 1 4 7
M  V30 7 1 6 8
M  V30 8 1 8 9
M  V30 9 1 5 7
M  V30 10 1 4 10
M  V30 11 1 5 11
M  V30 12 1 5 12
M  V30 13 1 6 13
M  V30 14 1 6 14
M  V30 15 1 7 15
M  V30 16 1 7 16
M  V30 17 1 8 17
M  V30 18 1 8 18
M  V30 19 1 9 19
M  V30 20 1 9 20
M  V30 21 1 9 21
M  V30 END BOND
M  V30 END CTAB
M  END
>  <Structure No>
2750

>  <LogS>
0.63354594

>  <MMFF94 Energy>
-60.042

$$$$
Compound 2751
Actelion Java MolfileCreator 2.0

  0  0  0  0  0  0              0 V3000
M  V30 BEGIN CTAB
M  V30 COUNTS 77 80 0 0 0
M  V30 BEGIN ATOM
M  V30 1 S -11.1478 0.6941 1.3887 0
M  V30 2 O -11.7294 1.8404 2.169 0
M  V30 3 O -11.8672 -0.5695 1.7618 0
M  V30 4 O -11.3404 0.9605 -0.2726 0
M  V30 5 O -9.5179 0.5199 1.7666 0 CHG=-1
M  V30 6 C -10.6519 2.1395 -0.6144 0
M  V30 7 C -10.6489 2.3151 -2.1325 0
M  V30 8 S -9.8506 0.9461 -2.9649 0
M  V30 9 O -9.5623 1.335 -4.3872 0
M  V30 10 O -10.7704 -0.242 -2.974 0
M  V30 11 C -8.343 0.519 -2.1582 0
M  V30 12 C -8.3306 -0.4771 -1.1712 0
M  V30 13 C -7.1599 1.2075 -2.4652 0
M  V30 14 C -7.1483 -0.777 -0.4894 0
M  V30 15 C -5.9721 0.8962 -1.7958 0
M  V30 16 C -5.9625 -0.0983 -0.7999 0
M  V30 17 N -4.7742 -0.4196 -0.0709 0
M  V30 18 N -3.6261 0.0012 -0.4195 0
M  V30 19 C -2.4601 -0.3193 0.3486 0
M  V30 20 C -1.3493 -0.8987 -0.3028 0
M  V30 21 C -2.4015 -0.0367 1.732 0
M  V30 22 N -1.3658 -1.0183 -1.7342 0
M  V30 23 C -0.225 -1.3156 0.4614 0
M  V30 24 S -3.704 0.8291 2.5645 0
M  V30 25 C -1.262 -0.3898 2.4585 0
M  V30 26 C 0.9067 -2.0893 -0.1095 0
M  V30 27 C -0.1823 -1.0274 1.8386 0
M  V30 28 O -4.195 1.9638 1.7079 0
M  V30 29 O -3.2032 1.3951 3.8633 0
M  V30 30 O -4.9696 -0.2288 2.8834 0 CHG=-1
M  V30 31 O 0.8133 -2.6456 -1.2363 0
M  V30 32 C 2.1438 -2.2695 0.6754 0
M  V30 33 C 0.9895 -1.4035 2.6606 0
M  V30 34 N 3.2183 -2.5688 -9.0E-4 0
M  V30 35 C 2.0885 -1.9914 2.1536 0
M  V30 36 N 4.4974 -2.798 0.5201 0
M  V30 37 S 3.3524 -2.478 3.3082 0
M  V30 38 C 5.6334 -2.0733 0.0268 0
M  V30 39 O 3.5955 -3.9577 3.2037 0
M  V30 40 O 2.9217 -2.1805 4.7182 0
M  V30 41 O 4.7727 -1.6281 3.018 0 CHG=-1
M  V30 42 C 6.9269 -2.4941 0.3693 0
M  V30 43 C 5.4733 -0.9252 -0.7677 0
M  V30 44 C 8.0442 -1.7862 -0.081 0
M  V30 45 C 6.592 -0.2182 -1.2191 0
M  V30 46 C 7.8819 -0.649 -0.8816 0
M  V30 47 S 9.2969 0.2443 -1.428 0
M  V30 48 O 10.3503 -0.7259 -1.8874 0
M  V30 49 O 8.9264 1.1386 -2.579 0
M  V30 50 C 9.9177 1.2329 -0.0761 0
M  V30 51 C 11.1913 1.9699 -0.4736 0
M  V30 52 O 11.6401 2.73 0.6213 0
M  V30 53 S 13.0607 3.5317 0.1652 0
M  V30 54 O 13.5212 4.3928 1.3075 0
M  V30 55 O 14.1373 2.5339 -0.1578 0
M  V30 56 O 12.7768 4.5092 -1.1703 0 CHG=-1
M  V30 57 H -9.597 2.1169 -0.2621 0
M  V30 58 H -11.1621 3.0207 -0.1639 0
M  V30 59 H -10.1087 3.2522 -2.3868 0
M  V30 60 H -11.6929 2.4026 -2.5003 0
M  V30 61 H -9.2392 -1.0091 -0.916 0
M  V30 62 H -7.1593 1.9889 -3.2166 0
M  V30 63 H -7.152 -1.5393 0.2802 0
M  V30 64 H -5.069 1.443 -2.0406 0
M  V30 65 H -2.2519 -0.9305 -2.2755 0
M  V30 66 H -0.4866 -0.9911 -2.2929 0
M  V30 67 H -1.213 -0.1723 3.5197 0
M  V30 68 H 0.9361 -1.1912 3.7184 0
M  V30 69 H 4.663 -3.6773 1.055 0
M  V30 70 H 7.0693 -3.3677 0.9918 0
M  V30 71 H 4.4856 -0.5671 -1.0283 0
M  V30 72 H 9.0343 -2.1229 0.1987 0
M  V30 73 H 6.4506 0.6668 -1.8268 0
M  V30 74 H 9.137 1.9679 0.217 0
M  V30 75 H 10.1261 0.5677 0.7897 0
M  V30 76 H 11.9608 1.2217 -0.7666 0
M  V30 77 H 10.9612 2.6313 -1.3378 0
M  V30 END ATOM
M  V30 BEGIN BOND
M  V30 1 2 1 2
M  V30 2 2 1 3
M  V30 3 1 1 4
M  V30 4 1 1 5
M  V30 5 1 4 6
M  V30 6 1 6 7
M  V30 7 1 7 8
M  V30 8 2 8 9
M  V30 9 2 8 10
M  V30 10 1 8 11
M  V30 11 2 11 12
M  V30 12 1 11 13
M  V30 13 1 12 14
M  V30 14 2 13 15
M  V30 15 2 14 16
M  V30 16 1 16 17
M  V30 17 2 17 18
M  V30 18 1 18 19
M  V30 19 2 19 20
M  V30 20 1 19 21
M  V30 21 1 20 22
M  V30 22 1 20 23
M  V30 23 1 21 24
M  V30 24 2 21 25
M  V30 25 1 23 26
M  V30 26 2 23 27
M  V30 27 2 24 28
M  V30 28 2 24 29
M  V30 29 1 24 30
M  V30 30 2 26 31
M  V30 31 1 26 32
M  V30 32 1 27 33
M  V30 33 2 32 34
M  V30 34 1 32 35
M  V30 35 1 34 36
M  V30 36 1 35 37
M  V30 37 1 36 38
M  V30 38 2 37 39
M  V30 39 2 37 40
M  V30 40 1 37 41
M  V30 41 2 38 42
M  V30 42 1 38 43
M  V30 43 1 42 44
M  V30 44 2 43 45
M  V30 45 2 44 46
M  V30 46 1 46 47
M  V30 47 2 47 48
M  V30 48 2 47 49
M  V30 49 1 47 50
M  V30 50 1 50 51
M  V30 51 1 51 52
M  V30 52 1 52 53
M  V30 53 2 53 54
M  V30 54 2 53 55
M  V30 55 1 53 56
M  V30 56 1 15 16
M  V30 57 1 25 27
M  V30 58 2 33 35
M  V30 59 1 45 46
M  V30 60 1 6 57
M  V30 61 1 6 58
M  V30 62 1 7 59
M  V30 63 1 7 60
M  V30 64 1 12 61
M  V30 65 1 13 62
M  V30 66 1 14 63
M  V30 67 1 15 64
M  V30 68 1 22 65
M  V30 69 1 22 66
M  V30 70 1 25 67
M  V30 71 1 33 68
M  V30 72 1 36 69
M  V30 73 1 42 70
M  V30 74 1 43 71
M  V30 75 1 44 72
M  V30 76 1 45 73
M  V30 77 1 50 74
M  V30 78 1 50 75
M  V30 79 1 51 76
M  V30 80 1 51 77
M  V30 END BOND
M  V30 END CTAB
M  END
>  <Structure No>
2751

>  <LogS>
-0.255286517

>  <MMFF94 Energy>
181.38

$$$$
Compound 2752
Actelion Java MolfileCreator 2.0

  0  0  0  0  0  0              0 V3000
M  V30 BEGIN CTAB
M  V30 COUNTS 72 73 0 0 0
M  V30 BEGIN ATOM
M  V30 1 O 0.2361 1.9689 -2.1266 0
M  V30 2 C 1.3618 1.5696 -1.3847 0
M  V30 3 C -0.6076 1.0984 -2.881 0
M  V30 4 C 1.762 0.2293 -1.269 0
M  V30 5 C 2.1109 2.5529 -0.7388 0
M  V30 6 C -1.6255 0.3983 -1.9741 0
M  V30 7 C 2.9082 -0.111 -0.5459 0
M  V30 8 C 3.2607 2.2187 -0.0185 0
M  V30 9 O -2.5599 1.3194 -1.4435 0
M  V30 10 C 3.7203 0.8804 0.0616 0
M  V30 11 C -3.6408 1.5328 -2.3311 0
M  V30 12 C 5.0043 0.5366 0.8768 0
M  V30 13 C -4.8749 2.0758 -1.5759 0
M  V30 14 C 5.428 -0.9727 0.6553 0
M  V30 15 C 6.1514 1.4776 0.4382 0
M  V30 16 C 4.6644 0.7935 2.3659 0
M  V30 17 N -5.4801 1.1743 -0.538 0 CHG=1
M  V30 18 C 6.8149 -1.5833 1.0961 0
M  V30 19 C -5.769 -0.1771 -1.1188 0
M  V30 20 C -6.7447 1.8223 -0.0944 0
M  V30 21 C -4.5802 1.0609 0.641 0
M  V30 22 C 6.6815 -3.1238 0.9896 0
M  V30 23 C 7.9688 -1.169 0.148 0
M  V30 24 C 7.1964 -1.2556 2.5523 0
M  V30 25 C -6.5572 -1.1011 -0.2074 0
M  V30 26 C -5.8953 -1.9213 0.7226 0
M  V30 27 C -7.9577 -1.1789 -0.3122 0
M  V30 28 C -6.6232 -2.774 1.5585 0
M  V30 29 C -8.6809 -2.0387 0.5194 0
M  V30 30 C -8.0148 -2.8329 1.4576 0
M  V30 31 H -1.1399 1.6999 -3.6452 0
M  V30 32 H -0.0027 0.3526 -3.4391 0
M  V30 33 H 1.1937 -0.5661 -1.7289 0
M  V30 34 H 1.7972 3.5879 -0.7915 0
M  V30 35 H -2.1027 -0.4494 -2.5162 0
M  V30 36 H -1.0907 -0.0648 -1.1204 0
M  V30 37 H 3.1315 -1.1634 -0.4787 0
M  V30 38 H 3.7709 3.0219 0.4922 0
M  V30 39 H -3.9342 0.6358 -2.9185 0
M  V30 40 H -3.3409 2.3081 -3.0704 0
M  V30 41 H -5.6371 2.3128 -2.3555 0
M  V30 42 H -4.5944 3.0556 -1.1233 0
M  V30 43 H 4.6363 -1.5906 1.1358 0
M  V30 44 H 5.3572 -1.1772 -0.4358 0
M  V30 45 H 6.4697 1.2441 -0.5999 0
M  V30 46 H 5.8732 2.5468 0.4749 0
M  V30 47 H 7.0133 1.4021 1.1257 0
M  V30 48 H 5.5545 0.7688 3.0182 0
M  V30 49 H 3.9313 0.0449 2.7345 0
M  V30 50 H 4.2196 1.8013 2.5069 0
M  V30 51 H -4.8211 -0.7021 -1.3701 0
M  V30 52 H -6.3243 -0.0684 -2.0784 0
M  V30 53 H -7.2094 1.2856 0.7615 0
M  V30 54 H -6.5622 2.8676 0.245 0
M  V30 55 H -7.4906 1.8552 -0.9208 0
M  V30 56 H -4.1741 2.0538 0.9379 0
M  V30 57 H -5.1172 0.6577 1.5258 0
M  V30 58 H -3.7287 0.3748 0.4483 0
M  V30 59 H 5.8933 -3.502 1.6774 0
M  V30 60 H 7.6323 -3.6335 1.2613 0
M  V30 61 H 6.4143 -3.4238 -0.0485 0
M  V30 62 H 8.8543 -1.8219 0.2996 0
M  V30 63 H 7.6638 -1.2551 -0.9158 0
M  V30 64 H 8.3228 -0.1396 0.3288 0
M  V30 65 H 8.0601 -1.8759 2.8771 0
M  V30 66 H 6.3464 -1.4668 3.2367 0
M  V30 67 H 7.5171 -0.202 2.6663 0
M  V30 68 H -4.8159 -1.9011 0.8024 0
M  V30 69 H -8.492 -0.5652 -1.0249 0
M  V30 70 H -6.1063 -3.4033 2.2703 0
M  V30 71 H -9.759 -2.0839 0.4417 0
M  V30 72 H -8.5764 -3.5008 2.0993 0
M  V30 END ATOM
M  V30 BEGIN BOND
M  V30 1 1 1 2
M  V30 2 1 1 3
M  V30 3 2 2 4
M  V30 4 1 2 5
M  V30 5 1 3 6
M  V30 6 1 4 7
M  V30 7 2 5 8
M  V30 8 1 6 9
M  V30 9 2 7 10
M  V30 10 1 9 11
M  V30 11 1 10 12
M  V30 12 1 11 13
M  V30 13 1 12 14
M  V30 14 1 12 15
M  V30 15 1 12 16
M  V30 16 1 13 17
M  V30 17 1 14 18
M  V30 18 1 17 19
M  V30 19 1 17 20
M  V30 20 1 17 21
M  V30 21 1 18 22
M  V30 22 1 18 23
M  V30 23 1 18 24
M  V30 24 1 19 25
M  V30 25 2 25 26
M  V30 26 1 25 27
M  V30 27 1 26 28
M  V30 28 2 27 29
M  V30 29 2 28 30
M  V30 30 1 8 10
M  V30 31 1 29 30
M  V30 32 1 3 31
M  V30 33 1 3 32
M  V30 34 1 4 33
M  V30 35 1 5 34
M  V30 36 1 6 35
M  V30 37 1 6 36
M  V30 38 1 7 37
M  V30 39 1 8 38
M  V30 40 1 11 39
M  V30 41 1 11 40
M  V30 42 1 13 41
M  V30 43 1 13 42
M  V30 44 1 14 43
M  V30 45 1 14 44
M  V30 46 1 15 45
M  V30 47 1 15 46
M  V30 48 1 15 47
M  V30 49 1 16 48
M  V30 50 1 16 49
M  V30 51 1 16 50
M  V30 52 1 19 51
M  V30 53 1 19 52
M  V30 54 1 20 53
M  V30 55 1 20 54
M  V30 56 1 20 55
M  V30 57 1 21 56
M  V30 58 1 21 57
M  V30 59 1 21 58
M  V30 60 1 22 59
M  V30 61 1 22 60
M  V30 62 1 22 61
M  V30 63 1 23 62
M  V30 64 1 23 63
M  V30 65 1 23 64
M  V30 66 1 24 65
M  V30 67 1 24 66
M  V30 68 1 24 67
M  V30 69 1 26 68
M  V30 70 1 27 69
M  V30 71 1 28 70
M  V30 72 1 29 71
M  V30 73 1 30 72
M  V30 END BOND
M  V30 END CTAB
M  END
>  <Structure No>
2752

>  <LogS>
0.072909649

>  <MMFF94 Energy>
132.74

$$$$
Compound 2753
Actelion Java MolfileCreator 2.0

  0  0  0  0  0  0              0 V3000
M  V30 BEGIN CTAB
M  V30 COUNTS 33 32 0 0 0
M  V30 BEGIN ATOM
M  V30 1 O 0.2336 2.6504 -0.6231 0
M  V30 2 C 0.1952 1.4094 -0.846 0
M  V30 3 N 1.3525 0.5999 -0.5925 0
M  V30 4 C -1.0878 0.79 -1.3554 0 CFG=1
M  V30 5 C 2.5654 1.169 -0.004 0
M  V30 6 O -0.7912 -0.2361 -2.2701 0
M  V30 7 C -2.003 0.2444 -0.2077 0
M  V30 8 C 3.6094 0.0859 0.2967 0
M  V30 9 C -3.297 -0.3683 -0.8127 0
M  V30 10 C -1.283 -0.8599 0.601 0
M  V30 11 C -2.3933 1.3864 0.7599 0
M  V30 12 C 3.1781 -0.8217 1.4549 0
M  V30 13 O -3.9909 0.5644 -1.6012 0
M  V30 14 O 4.1573 -1.7949 1.6963 0
M  V30 15 H 1.3157 -0.4182 -0.8247 0
M  V30 16 H -1.6524 1.5883 -1.8933 0
M  V30 17 H 2.3097 1.7103 0.9332 0
M  V30 18 H 3.002 1.9007 -0.7175 0
M  V30 19 H -0.4574 0.2005 -3.0974 0
M  V30 20 H 3.79 -0.5252 -0.6144 0
M  V30 21 H 4.5657 0.5833 0.5684 0
M  V30 22 H -3.9584 -0.7628 -0.0052 0
M  V30 23 H -3.0386 -1.2373 -1.4551 0
M  V30 24 H -0.9419 -1.6808 -0.0651 0
M  V30 25 H -1.9662 -1.295 1.3622 0
M  V30 26 H -0.402 -0.454 1.1412 0
M  V30 27 H -3.1294 1.0291 1.5122 0
M  V30 28 H -1.5055 1.764 1.3106 0
M  V30 29 H -2.8432 2.2386 0.2071 0
M  V30 30 H 2.2294 -1.3382 1.1991 0
M  V30 31 H 3.0008 -0.2178 2.3744 0
M  V30 32 H -4.6267 1.0353 -1.0019 0
M  V30 33 H 4.8954 -1.3413 2.1815 0
M  V30 END ATOM
M  V30 BEGIN BOND
M  V30 1 2 1 2
M  V30 2 1 2 3
M  V30 3 1 2 4
M  V30 4 1 3 5
M  V30 5 1 4 6
M  V30 6 1 4 7
M  V30 7 1 5 8
M  V30 8 1 7 9
M  V30 9 1 7 10
M  V30 10 1 7 11
M  V30 11 1 8 12
M  V30 12 1 9 13
M  V30 13 1 12 14
M  V30 14 1 3 15
M  V30 15 1 4 16
M  V30 16 1 5 17
M  V30 17 1 5 18
M  V30 18 1 6 19
M  V30 19 1 8 20
M  V30 20 1 8 21
M  V30 21 1 9 22
M  V30 22 1 9 23
M  V30 23 1 10 24
M  V30 24 1 10 25
M  V30 25 1 10 26
M  V30 26 1 11 27
M  V30 27 1 11 28
M  V30 28 1 11 29
M  V30 29 1 12 30
M  V30 30 1 12 31
M  V30 31 1 13 32
M  V30 32 1 14 33
M  V30 END BOND
M  V30 BEGIN COLLECTION
M  V30 MDLV30/STEABS ATOMS=(1 4)
M  V30 END COLLECTION
M  V30 END CTAB
M  END
>  <Structure No>
2753

>  <LogS>
0.394426153

>  <MMFF94 Energy>
21.473

$$$$
Compound 2754
Actelion Java MolfileCreator 2.0

  0  0  0  0  0  0              0 V3000
M  V30 BEGIN CTAB
M  V30 COUNTS 69 69 0 0 0
M  V30 BEGIN ATOM
M  V30 1 N 5.9163 -1.632 -0.9323 0 CHG=1
M  V30 2 C 4.4995 -1.9749 -1.2083 0
M  V30 3 C 6.3978 -2.2648 0.3108 0
M  V30 4 C 6.763 -2.0567 -2.0614 0
M  V30 5 C 3.5273 -1.2637 -0.2484 0
M  V30 6 C 2.0647 -1.5035 -0.656 0
M  V30 7 N 1.1343 -0.9141 0.3317 0
M  V30 8 C 1.1684 0.5708 0.2999 0
M  V30 9 C -0.2407 -1.403 0.1111 0
M  V30 10 N -0.0989 1.1678 0.7814 0
M  V30 11 N -1.1386 -0.9755 1.215 0
M  V30 12 C -0.6917 0.3021 1.817 0
M  V30 13 C 0.1207 2.5484 1.2616 0
M  V30 14 C -2.5462 -0.8799 0.7638 0
M  V30 15 C -1.1927 3.3521 1.2383 0
M  V30 16 C -3.1156 -2.2574 0.3872 0
M  V30 17 C -0.9464 4.8755 1.2911 0
M  V30 18 C -4.6308 -2.1634 0.0987 0
M  V30 19 N -0.6316 5.4496 -0.0436 0 CHG=1
M  V30 20 N -5.2672 -3.448 -0.2849 0 CHG=1
M  V30 21 C -1.8615 5.7257 -0.8116 0
M  V30 22 C 0.1421 6.6952 0.1053 0
M  V30 23 C -4.7548 -3.9782 -1.5611 0
M  V30 24 C -5.1803 -4.4634 0.7795 0
M  V30 25 H 6.0136 -0.5925 -0.8377 0
M  V30 26 H 4.2326 -1.6586 -2.2436 0
M  V30 27 H 4.3439 -3.0767 -1.1512 0
M  V30 28 H 5.8881 -1.8322 1.1952 0
M  V30 29 H 7.4842 -2.0753 0.4509 0
M  V30 30 H 6.2314 -3.3646 0.2955 0
M  V30 31 H 7.8247 -1.7805 -1.8795 0
M  V30 32 H 6.7 -3.1578 -2.2165 0
M  V30 33 H 6.4497 -1.5452 -2.9982 0
M  V30 34 H 3.7459 -0.1749 -0.2613 0
M  V30 35 H 3.6672 -1.6416 0.7859 0
M  V30 36 H 1.8749 -1.0943 -1.6745 0
M  V30 37 H 1.9105 -2.6047 -0.7051 0
M  V30 38 H 1.351 0.9456 -0.7321 0
M  V30 39 H 2.017 0.9045 0.9404 0
M  V30 40 H -0.2403 -2.515 0.0905 0
M  V30 41 H -0.6089 -1.0439 -0.8797 0
M  V30 42 H 0.0575 0.0822 2.6119 0
M  V30 43 H -1.53 0.8141 2.3365 0
M  V30 44 H 0.5484 2.5504 2.2905 0
M  V30 45 H 0.8579 3.0583 0.602 0
M  V30 46 H -2.6377 -0.1776 -0.0955 0
M  V30 47 H -3.1749 -0.482 1.5916 0
M  V30 48 H -1.7977 3.0739 2.1282 0
M  V30 49 H -1.7858 3.08 0.3399 0
M  V30 50 H -2.9283 -2.9527 1.2321 0
M  V30 51 H -2.5893 -2.632 -0.5136 0
M  V30 52 H -1.845 5.3717 1.724 0
M  V30 53 H -0.1191 5.065 2.0147 0
M  V30 54 H -5.1429 -1.7595 1.0018 0
M  V30 55 H -4.7963 -1.4154 -0.7104 0
M  V30 56 H -0.0458 4.7812 -0.5957 0
M  V30 57 H -6.2872 -3.2453 -0.4246 0
M  V30 58 H -1.6078 6.1017 -1.8283 0
M  V30 59 H -2.4931 6.4865 -0.2994 0
M  V30 60 H -2.4639 4.8027 -0.9485 0
M  V30 61 H 0.359 7.1451 -0.8899 0
M  V30 62 H -0.4148 7.4381 0.7181 0
M  V30 63 H 1.1198 6.4885 0.5935 0
M  V30 64 H -3.7235 -4.3786 -1.4515 0
M  V30 65 H -4.7569 -3.1896 -2.3449 0
M  V30 66 H -5.4054 -4.8076 -1.9177 0
M  V30 67 H -5.4954 -4.0375 1.7584 0
M  V30 68 H -4.1489 -4.8652 0.877 0
M  V30 69 H -5.8574 -5.3156 0.5504 0
M  V30 END ATOM
M  V30 BEGIN BOND
M  V30 1 1 1 2
M  V30 2 1 1 3
M  V30 3 1 1 4
M  V30 4 1 2 5
M  V30 5 1 5 6
M  V30 6 1 6 7
M  V30 7 1 7 8
M  V30 8 1 7 9
M  V30 9 1 8 10
M  V30 10 1 9 11
M  V30 11 1 10 12
M  V30 12 1 10 13
M  V30 13 1 11 14
M  V30 14 1 13 15
M  V30 15 1 14 16
M  V30 16 1 15 17
M  V30 17 1 16 18
M  V30 18 1 17 19
M  V30 19 1 18 20
M  V30 20 1 19 21
M  V30 21 1 19 22
M  V30 22 1 20 23
M  V30 23 1 20 24
M  V30 24 1 11 12
M  V30 25 1 1 25
M  V30 26 1 2 26
M  V30 27 1 2 27
M  V30 28 1 3 28
M  V30 29 1 3 29
M  V30 30 1 3 30
M  V30 31 1 4 31
M  V30 32 1 4 32
M  V30 33 1 4 33
M  V30 34 1 5 34
M  V30 35 1 5 35
M  V30 36 1 6 36
M  V30 37 1 6 37
M  V30 38 1 8 38
M  V30 39 1 8 39
M  V30 40 1 9 40
M  V30 41 1 9 41
M  V30 42 1 12 42
M  V30 43 1 12 43
M  V30 44 1 13 44
M  V30 45 1 13 45
M  V30 46 1 14 46
M  V30 47 1 14 47
M  V30 48 1 15 48
M  V30 49 1 15 49
M  V30 50 1 16 50
M  V30 51 1 16 51
M  V30 52 1 17 52
M  V30 53 1 17 53
M  V30 54 1 18 54
M  V30 55 1 18 55
M  V30 56 1 19 56
M  V30 57 1 20 57
M  V30 58 1 21 58
M  V30 59 1 21 59
M  V30 60 1 21 60
M  V30 61 1 22 61
M  V30 62 1 22 62
M  V30 63 1 22 63
M  V30 64 1 23 64
M  V30 65 1 23 65
M  V30 66 1 23 66
M  V30 67 1 24 67
M  V30 68 1 24 68
M  V30 69 1 24 69
M  V30 END BOND
M  V30 END CTAB
M  END
>  <Structure No>
2754

>  <LogS>
0.16421307

>  <MMFF94 Energy>
-10.528

$$$$
Compound 2755
Actelion Java MolfileCreator 2.0

  0  0  0  0  0  0              0 V3000
M  V30 BEGIN CTAB
M  V30 COUNTS 7 6 0 0 0
M  V30 BEGIN ATOM
M  V30 1 O 1.3233 1.0896 -0.5447 0
M  V30 2 C 0.7769 0.0166 -0.1778 0
M  V30 3 O 1.5424 -1.1336 -0.0379 0 CHG=-1
M  V30 4 C -0.6748 -0.006 0.1612 0
M  V30 5 H -1.0719 -1.0376 0.0593 0
M  V30 6 H -0.8159 0.3371 1.207 0
M  V30 7 H -1.2367 0.6635 -0.5234 0
M  V30 END ATOM
M  V30 BEGIN BOND
M  V30 1 2 1 2
M  V30 2 1 2 3
M  V30 3 1 2 4
M  V30 4 1 4 5
M  V30 5 1 4 6
M  V30 6 1 4 7
M  V30 END BOND
M  V30 END CTAB
M  END
>  <Structure No>
2755

>  <LogS>
0.653490551

>  <MMFF94 Energy>
1.0491

$$$$
Compound 2756
Actelion Java MolfileCreator 2.0

  0  0  0  0  0  0              0 V3000
M  V30 BEGIN CTAB
M  V30 COUNTS 127 131 0 0 0
M  V30 BEGIN ATOM
M  V30 1 S 2.2445 -1.7262 -2.0717 0
M  V30 2 O 2.5371 -2.5112 -0.8274 0
M  V30 3 O 1.0048 -2.2603 -2.7345 0
M  V30 4 O 2.0463 -0.0821 -1.7012 0
M  V30 5 O 3.5346 -1.8845 -3.132 0 CHG=-1
M  V30 6 C 0.9794 0.0832 -0.7813 0 CFG=1
M  V30 7 C 1.5115 0.3338 0.6651 0 CFG=2
M  V30 8 C 0.1159 1.262 -1.2513 0 CFG=1
M  V30 9 O 1.0085 1.5476 1.2125 0
M  V30 10 O 2.9262 0.4054 0.6437 0
M  V30 11 O -0.4509 0.9345 -2.5077 0
M  V30 12 C -0.9924 1.5339 -0.215 0 CFG=2
M  V30 13 C -0.408 1.5335 1.2286 0 CFG=2
M  V30 14 C 3.5041 0.1321 1.917 0 CFG=1
M  V30 15 S -0.4717 2.3 -3.5151 0
M  V30 16 O -1.9696 0.5039 -0.2888 0
M  V30 17 C -0.9023 2.745 2.0197 0
M  V30 18 C 4.6217 -0.9278 1.7254 0 CFG=2
M  V30 19 C 4.0798 1.4337 2.5061 0 CFG=1
M  V30 20 O -1.1284 1.9386 -4.815 0
M  V30 21 O -1.2522 3.412 -2.8703 0
M  V30 22 O 1.0976 2.8136 -3.8248 0 CHG=-1
M  V30 23 C -3.248 0.976 -0.6893 0 CFG=1
M  V30 24 O 4.7903 -1.6843 2.9127 0
M  V30 25 C 5.9756 -0.2615 1.3671 0 CFG=2
M  V30 26 O 4.5077 1.1869 3.8231 0
M  V30 27 C 5.2754 1.9455 1.6423 0 CFG=1
M  V30 28 O -3.3643 0.901 -2.1089 0
M  V30 29 C -4.3426 0.1717 0.0699 0 CFG=1
M  V30 30 S 3.9283 -3.1412 2.8054 0
M  V30 31 O 5.7388 0.9729 0.7173 0
M  V30 32 O 6.6712 -1.1229 0.4804 0
M  V30 33 C 4.8855 3.1967 0.8551 0
M  V30 34 C -3.7307 -0.4024 -2.5262 0 CFG=1
M  V30 35 O -4.6748 0.8575 1.2627 0
M  V30 36 C -5.5839 0.0518 -0.8229 0 CFG=1
M  V30 37 O 4.4942 -3.9968 1.7064 0
M  V30 38 O 4.0522 -3.878 4.1126 0
M  V30 39 O 2.2998 -2.8439 2.5051 0 CHG=-1
M  V30 40 C 8.0872 -1.0201 0.5856 0 CFG=2
M  V30 41 C -5.2033 -0.6954 -2.1309 0 CFG=2
M  V30 42 C -3.534 -0.5204 -4.0362 0
M  V30 43 S -4.4475 -0.14 2.6166 0
M  V30 44 O -6.6121 -0.6226 -0.1128 0
M  V30 45 C 8.6394 0.0863 -0.3526 0 CFG=1
M  V30 46 C 8.7046 -2.3785 0.1819 0 CFG=2
M  V30 47 O -5.36 -2.0847 -1.9588 0
M  V30 48 O -5.3512 -1.3375 2.5344 0
M  V30 49 O -3.0151 -0.5907 2.696 0
M  V30 50 O -4.8221 0.7326 4.0032 0 CHG=-1
M  V30 51 C -7.8889 -0.4278 -0.7046 0 CFG=1
M  V30 52 O 9.7787 0.667 0.2624 0
M  V30 53 C 9.0427 -0.4746 -1.7448 0 CFG=1
M  V30 54 O 8.3127 -2.7951 -1.1198 0
M  V30 55 C 8.3233 -3.4674 1.1898 0
M  V30 56 O -8.4428 -1.6929 -1.05 0
M  V30 57 C -8.7799 0.4415 0.2223 0 CFG=1
M  V30 58 S 9.6309 2.3574 0.3296 0
M  V30 59 O 10.4251 -0.7946 -1.7587 0
M  V30 60 C 8.2297 -1.7525 -2.087 0 CFG=1
M  V30 61 C -9.1744 -2.3205 -0.0047 0 CFG=2
M  V30 62 O -8.6328 1.8006 -0.1495 0
M  V30 63 C -10.2431 0.0137 0.0499 0 CFG=1
M  V30 64 O 9.5071 2.9276 -1.0575 0
M  V30 65 O 8.432 2.7452 1.1499 0
M  V30 66 O 11.0087 2.9882 1.0546 0 CHG=-1
M  V30 67 S 11.1636 -0.1844 -3.1614 0
M  V30 68 O 6.8775 -1.4294 -2.2888 0
M  V30 69 C -10.3786 -1.4612 0.4827 0 CFG=1
M  V30 70 C -8.2568 -2.7827 1.1396 0
M  V30 71 S -8.2854 2.766 1.2071 0
M  V30 72 O -11.0818 0.8055 0.8714 0
M  V30 73 O 10.4172 -0.6347 -4.3866 0
M  V30 74 O 11.1858 1.3201 -3.1058 0
M  V30 75 O 12.7418 -0.755 -3.2425 0 CHG=-1
M  V30 76 O -11.5963 -1.9949 0.0222 0
M  V30 77 O -7.0741 2.2424 1.9285 0
M  V30 78 O -8.0136 4.168 0.7417 0
M  V30 79 O -9.5976 2.786 2.253 0 CHG=-1
M  V30 80 S -12.114 1.7578 -0.0811 0
M  V30 81 O -13.0215 2.5461 0.8215 0
M  V30 82 O -11.311 2.7134 -0.9224 0
M  V30 83 O -13.0526 0.7801 -1.0804 0 CHG=-1
M  V30 84 H 0.2934 -0.7997 -0.7507 0
M  V30 85 H 1.1673 -0.5372 1.2754 0
M  V30 86 H 0.7855 2.156 -1.2989 0
M  V30 87 H -1.3855 2.5521 -0.4551 0
M  V30 88 H -0.7636 0.6342 1.7862 0
M  V30 89 H 2.7708 -0.2586 2.6642 0
M  V30 90 H -0.5683 3.6892 1.5288 0
M  V30 91 H -0.4894 2.7193 3.0491 0
M  V30 92 H -2.011 2.7385 2.0809 0
M  V30 93 H 4.3331 -1.5642 0.8574 0
M  V30 94 H 3.2597 2.1887 2.5352 0
M  V30 95 H -3.422 2.0418 -0.4116 0
M  V30 96 H 6.541 -0.098 2.3202 0
M  V30 97 H 4.6225 2.0741 4.2581 0
M  V30 98 H 6.1174 2.2404 2.31 0
M  V30 99 H -3.9561 -0.8633 0.2475 0
M  V30 100 H 5.746 3.5398 0.2438 0
M  V30 101 H 4.0291 2.9797 0.1779 0
M  V30 102 H 4.6026 4.0164 1.5497 0
M  V30 103 H -3.0559 -1.1617 -2.0599 0
M  V30 104 H -5.8971 1.0968 -1.0707 0
M  V30 105 H 8.4173 -0.8102 1.6304 0
M  V30 106 H -5.874 -0.3145 -2.9394 0
M  V30 107 H -3.8539 -1.5253 -4.391 0
M  V30 108 H -2.4627 -0.3821 -4.2898 0
M  V30 109 H -4.1296 0.2526 -4.5696 0
M  V30 110 H 7.8236 0.8186 -0.5287 0
M  V30 111 H 9.812 -2.298 0.2143 0
M  V30 112 H -6.1557 -2.3569 -2.4838 0
M  V30 113 H -7.8356 0.1172 -1.6794 0
M  V30 114 H 8.7823 0.3149 -2.4912 0
M  V30 115 H 8.7172 -4.4493 0.8459 0
M  V30 116 H 8.7707 -3.2474 2.1804 0
M  V30 117 H 7.2221 -3.5489 1.2908 0
M  V30 118 H -8.4909 0.2451 1.281 0
M  V30 119 H 8.6408 -2.1665 -3.0352 0
M  V30 120 H -9.5817 -3.2605 -0.4397 0
M  V30 121 H -10.4884 0.0845 -1.04 0
M  V30 122 H 6.8156 -0.9784 -3.1749 0
M  V30 123 H -10.415 -1.4915 1.5956 0
M  V30 124 H -7.3399 -3.2375 0.7196 0
M  V30 125 H -7.975 -1.9409 1.8024 0
M  V30 126 H -8.7792 -3.5458 1.7512 0
M  V30 127 H -11.5687 -1.9989 -0.9698 0
M  V30 END ATOM
M  V30 BEGIN BOND
M  V30 1 2 1 2
M  V30 2 2 1 3
M  V30 3 1 1 4
M  V30 4 1 1 5
M  V30 5 1 4 6
M  V30 6 1 6 7
M  V30 7 1 6 8
M  V30 8 1 7 9
M  V30 9 1 7 10
M  V30 10 1 8 11
M  V30 11 1 8 12
M  V30 12 1 9 13
M  V30 13 1 10 14
M  V30 14 1 11 15
M  V30 15 1 12 16
M  V30 16 1 13 17
M  V30 17 1 14 18
M  V30 18 1 14 19
M  V30 19 2 15 20
M  V30 20 2 15 21
M  V30 21 1 15 22
M  V30 22 1 16 23
M  V30 23 1 18 24
M  V30 24 1 18 25
M  V30 25 1 19 26
M  V30 26 1 19 27
M  V30 27 1 23 28
M  V30 28 1 23 29
M  V30 29 1 24 30
M  V30 30 1 25 31
M  V30 31 1 25 32
M  V30 32 1 27 33
M  V30 33 1 28 34
M  V30 34 1 29 35
M  V30 35 1 29 36
M  V30 36 2 30 37
M  V30 37 2 30 38
M  V30 38 1 30 39
M  V30 39 1 32 40
M  V30 40 1 34 41
M  V30 41 1 34 42
M  V30 42 1 35 43
M  V30 43 1 36 44
M  V30 44 1 40 45
M  V30 45 1 40 46
M  V30 46 1 41 47
M  V30 47 2 43 48
M  V30 48 2 43 49
M  V30 49 1 43 50
M  V30 50 1 44 51
M  V30 51 1 45 52
M  V30 52 1 45 53
M  V30 53 1 46 54
M  V30 54 1 46 55
M  V30 55 1 51 56
M  V30 56 1 51 57
M  V30 57 1 52 58
M  V30 58 1 53 59
M  V30 59 1 53 60
M  V30 60 1 56 61
M  V30 61 1 57 62
M  V30 62 1 57 63
M  V30 63 2 58 64
M  V30 64 2 58 65
M  V30 65 1 58 66
M  V30 66 1 59 67
M  V30 67 1 60 68
M  V30 68 1 61 69
M  V30 69 1 61 70
M  V30 70 1 62 71
M  V30 71 1 63 72
M  V30 72 2 67 73
M  V30 73 2 67 74
M  V30 74 1 67 75
M  V30 75 1 69 76
M  V30 76 2 71 77
M  V30 77 2 71 78
M  V30 78 1 71 79
M  V30 79 1 72 80
M  V30 80 2 80 81
M  V30 81 2 80 82
M  V30 82 1 80 83
M  V30 83 1 12 13
M  V30 84 1 27 31
M  V30 85 1 36 41
M  V30 86 1 54 60
M  V30 87 1 63 69
M  V30 88 1 6 84
M  V30 89 1 7 85
M  V30 90 1 8 86
M  V30 91 1 12 87
M  V30 92 1 13 88
M  V30 93 1 14 89
M  V30 94 1 17 90
M  V30 95 1 17 91
M  V30 96 1 17 92
M  V30 97 1 18 93
M  V30 98 1 19 94
M  V30 99 1 23 95
M  V30 100 1 25 96
M  V30 101 1 26 97
M  V30 102 1 27 98
M  V30 103 1 29 99
M  V30 104 1 33 100
M  V30 105 1 33 101
M  V30 106 1 33 102
M  V30 107 1 34 103
M  V30 108 1 36 104
M  V30 109 1 40 105
M  V30 110 1 41 106
M  V30 111 1 42 107
M  V30 112 1 42 108
M  V30 113 1 42 109
M  V30 114 1 45 110
M  V30 115 1 46 111
M  V30 116 1 47 112
M  V30 117 1 51 113
M  V30 118 1 53 114
M  V30 119 1 55 115
M  V30 120 1 55 116
M  V30 121 1 55 117
M  V30 122 1 57 118
M  V30 123 1 60 119
M  V30 124 1 61 120
M  V30 125 1 63 121
M  V30 126 1 68 122
M  V30 127 1 69 123
M  V30 128 1 70 124
M  V30 129 1 70 125
M  V30 130 1 70 126
M  V30 131 1 76 127
M  V30 END BOND
M  V30 BEGIN COLLECTION
M  V30 MDLV30/STEABS ATOMS=(25 6 7 8 12 13 14 18 19 23 25 27 29 34 36 40 41 45 46 51 53 57 60 61 63 69)
M  V30 END COLLECTION
M  V30 END CTAB
M  END
>  <Structure No>
2756

>  <LogS>
-0.589205864

>  <MMFF94 Energy>
608.59

$$$$
Compound 2757
Actelion Java MolfileCreator 2.0

  0  0  0  0  0  0              0 V3000
M  V30 BEGIN CTAB
M  V30 COUNTS 35 34 0 0 0
M  V30 BEGIN ATOM
M  V30 1 O -1.3895 3.4767 1.0033 0
M  V30 2 C -0.641 2.5689 0.2324 0 CFG=2
M  V30 3 C -0.3744 1.2602 1.035 0
M  V30 4 C 0.6599 3.2412 -0.23 0
M  V30 5 N -0.6646 0.0128 0.2734 0 CHG=1
M  V30 6 C -0.6512 -1.1494 1.2049 0
M  V30 7 C 0.1963 -0.165 -0.9334 0
M  V30 8 C -1.0969 -2.4974 0.5849 0 CFG=1
M  V30 9 C 1.7101 -0.3781 -0.6624 0 CFG=1
M  V30 10 O -1.0348 -3.4798 1.5871 0
M  V30 11 C -2.5256 -2.4388 0.0284 0
M  V30 12 O 1.9372 -1.6757 -0.178 0
M  V30 13 C 2.5065 -0.1923 -1.9581 0
M  V30 14 H -0.8513 3.7029 1.8074 0
M  V30 15 H -1.2487 2.3428 -0.6691 0
M  V30 16 H -1.0381 1.29 1.9299 0
M  V30 17 H 0.6524 1.2491 1.4568 0
M  V30 18 H 0.4218 4.1739 -0.784 0
M  V30 19 H 1.2966 3.5011 0.6425 0
M  V30 20 H 1.2367 2.5784 -0.9035 0
M  V30 21 H -1.6484 0.1136 -0.0696 0
M  V30 22 H -1.3399 -0.9491 2.0578 0
M  V30 23 H 0.3555 -1.2681 1.6598 0
M  V30 24 H -0.1808 -1.0088 -1.549 0
M  V30 25 H 0.0679 0.7089 -1.605 0
M  V30 26 H -0.4037 -2.7838 -0.2352 0
M  V30 27 H 2.0828 0.3738 0.0649 0
M  V30 28 H -1.0221 -4.3619 1.1307 0
M  V30 29 H -3.2273 -2.0409 0.7924 0
M  V30 30 H -2.8601 -3.4572 -0.2618 0
M  V30 31 H -2.569 -1.804 -0.8806 0
M  V30 32 H 2.8221 -1.6665 0.2723 0
M  V30 33 H 3.5878 -0.3573 -1.765 0
M  V30 34 H 2.3786 0.8391 -2.349 0
M  V30 35 H 2.1675 -0.9172 -2.7287 0
M  V30 END ATOM
M  V30 BEGIN BOND
M  V30 1 1 1 2
M  V30 2 1 2 3
M  V30 3 1 2 4
M  V30 4 1 3 5
M  V30 5 1 5 6
M  V30 6 1 5 7
M  V30 7 1 6 8
M  V30 8 1 7 9
M  V30 9 1 8 10
M  V30 10 1 8 11
M  V30 11 1 9 12
M  V30 12 1 9 13
M  V30 13 1 1 14
M  V30 14 1 2 15
M  V30 15 1 3 16
M  V30 16 1 3 17
M  V30 17 1 4 18
M  V30 18 1 4 19
M  V30 19 1 4 20
M  V30 20 1 5 21
M  V30 21 1 6 22
M  V30 22 1 6 23
M  V30 23 1 7 24
M  V30 24 1 7 25
M  V30 25 1 8 26
M  V30 26 1 9 27
M  V30 27 1 10 28
M  V30 28 1 11 29
M  V30 29 1 11 30
M  V30 30 1 11 31
M  V30 31 1 12 32
M  V30 32 1 13 33
M  V30 33 1 13 34
M  V30 34 1 13 35
M  V30 END BOND
M  V30 BEGIN COLLECTION
M  V30 MDLV30/STEABS ATOMS=(3 2 8 9)
M  V30 END COLLECTION
M  V30 END CTAB
M  END
>  <Structure No>
2757

>  <LogS>
0.417320876

>  <MMFF94 Energy>
70.105

$$$$
Compound 2758
Actelion Java MolfileCreator 2.0

  0  0  0  0  0  0              0 V3000
M  V30 BEGIN CTAB
M  V30 COUNTS 25 24 0 0 0
M  V30 BEGIN ATOM
M  V30 1 O -3.0806 1.6163 -0.6924 0
M  V30 2 C -2.7949 0.8945 0.2992 0
M  V30 3 O -3.49 1.0624 1.4912 0 CHG=-1
M  V30 4 C -1.6842 -0.1177 0.2036 0 CFG=2
M  V30 5 N -2.151 -1.4252 0.6851 0 CHG=1
M  V30 6 C -0.4633 0.3876 1.0081 0
M  V30 7 C 0.7752 -0.5291 0.9517 0
M  V30 8 C 1.3148 -0.8178 -0.4629 0
M  V30 9 C 1.685 0.434 -1.28 0
M  V30 10 N 2.7404 1.2215 -0.6396 0 CHG=1
M  V30 11 H -1.4026 -0.2106 -0.8685 0
M  V30 12 H -1.4525 -2.1654 0.4484 0
M  V30 13 H -2.3016 -1.4081 1.7205 0
M  V30 14 H -3.0499 -1.6788 0.2131 0
M  V30 15 H -0.7543 0.5006 2.076 0
M  V30 16 H -0.1806 1.4019 0.6526 0
M  V30 17 H 0.5389 -1.4956 1.4453 0
M  V30 18 H 1.582 -0.0694 1.5615 0
M  V30 19 H 2.2172 -1.4599 -0.3674 0
M  V30 20 H 0.5697 -1.4128 -1.0319 0
M  V30 21 H 0.7887 1.0684 -1.4507 0
M  V30 22 H 2.0398 0.1004 -2.2804 0
M  V30 23 H 3.0639 1.9605 -1.3049 0
M  V30 24 H 3.5532 0.6109 -0.3943 0
M  V30 25 H 2.3731 1.6909 0.2188 0
M  V30 END ATOM
M  V30 BEGIN BOND
M  V30 1 2 1 2
M  V30 2 1 2 3
M  V30 3 1 2 4
M  V30 4 1 4 5
M  V30 5 1 4 6
M  V30 6 1 6 7
M  V30 7 1 7 8
M  V30 8 1 8 9
M  V30 9 1 9 10
M  V30 10 1 4 11
M  V30 11 1 5 12
M  V30 12 1 5 13
M  V30 13 1 5 14
M  V30 14 1 6 15
M  V30 15 1 6 16
M  V30 16 1 7 17
M  V30 17 1 7 18
M  V30 18 1 8 19
M  V30 19 1 8 20
M  V30 20 1 9 21
M  V30 21 1 9 22
M  V30 22 1 10 23
M  V30 23 1 10 24
M  V30 24 1 10 25
M  V30 END BOND
M  V30 BEGIN COLLECTION
M  V30 MDLV30/STEABS ATOMS=(1 4)
M  V30 END COLLECTION
M  V30 END CTAB
M  END
>  <Structure No>
2758

>  <LogS>
0.43734795

>  <MMFF94 Energy>
-41.471

$$$$
Compound 2759
Actelion Java MolfileCreator 2.0

  0  0  0  0  0  0              0 V3000
M  V30 BEGIN CTAB
M  V30 COUNTS 25 24 0 0 0
M  V30 BEGIN ATOM
M  V30 1 S -1.957 1.7123 0.0814 0
M  V30 2 O -2.3589 2.5787 1.2413 0
M  V30 3 O -3.1271 1.5789 -0.8517 0
M  V30 4 O -0.682 2.4483 -0.7274 0 CHG=-1
M  V30 5 C -1.4876 0.0952 0.7066 0
M  V30 6 C -0.6807 -0.781 -0.2941 0
M  V30 7 N 0.5563 -0.0992 -0.7263 0
M  V30 8 C -1.5453 -1.0969 -1.5357 0
M  V30 9 C -0.3236 -2.1235 0.3783 0
M  V30 10 C 1.6172 0.3294 0.1476 0
M  V30 11 O 1.5515 0.1215 1.3896 0
M  V30 12 C 2.7892 1.0215 -0.422 0
M  V30 13 C 3.8041 1.4482 0.3278 0
M  V30 14 H -2.4178 -0.4374 1.0011 0
M  V30 15 H -0.9096 0.2481 1.6402 0
M  V30 16 H 0.6858 0.0906 -1.7468 0
M  V30 17 H -2.5223 -1.5362 -1.2388 0
M  V30 18 H -1.023 -1.8207 -2.198 0
M  V30 19 H -1.7343 -0.1813 -2.1334 0
M  V30 20 H 0.3299 -2.7274 -0.2873 0
M  V30 21 H -1.243 -2.71 0.5947 0
M  V30 22 H 0.2069 -1.9714 1.3401 0
M  V30 23 H 2.8275 1.192 -1.4907 0
M  V30 24 H 3.8158 1.3046 1.4009 0
M  V30 25 H 4.6422 1.9519 -0.1359 0
M  V30 END ATOM
M  V30 BEGIN BOND
M  V30 1 2 1 2
M  V30 2 2 1 3
M  V30 3 1 1 4
M  V30 4 1 1 5
M  V30 5 1 5 6
M  V30 6 1 6 7
M  V30 7 1 6 8
M  V30 8 1 6 9
M  V30 9 1 7 10
M  V30 10 2 10 11
M  V30 11 1 10 12
M  V30 12 2 12 13
M  V30 13 1 5 14
M  V30 14 1 5 15
M  V30 15 1 7 16
M  V30 16 1 8 17
M  V30 17 1 8 18
M  V30 18 1 8 19
M  V30 19 1 9 20
M  V30 20 1 9 21
M  V30 21 1 9 22
M  V30 22 1 12 23
M  V30 23 1 13 24
M  V30 24 1 13 25
M  V30 END BOND
M  V30 END CTAB
M  END
>  <Structure No>
2759

>  <LogS>
0.338692866

>  <MMFF94 Energy>
-7.9915

$$$$
Compound 2760
Actelion Java MolfileCreator 2.0

  0  0  0  0  0  0              0 V3000
M  V30 BEGIN CTAB
M  V30 COUNTS 19 19 0 0 0
M  V30 BEGIN ATOM
M  V30 1 O -0.315 0.0 -1.4971 0
M  V30 2 O 0.6819 0.7969 -1.1183 0
M  V30 3 C -1.0858 -0.2506 -0.3471 0 CFG=1
M  V30 4 C 1.1262 0.3172 0.1274 0 CFG=2
M  V30 5 O -1.6922 -1.5146 -0.4459 0
M  V30 6 C -0.1046 -0.246 0.8061 0
M  V30 7 C -2.1631 0.8361 -0.1921 0
M  V30 8 O 1.6419 1.3788 0.8906 0
M  V30 9 C 2.2107 -0.7532 -0.0808 0
M  V30 10 H -2.1684 -1.5445 -1.317 0
M  V30 11 H -0.4473 0.3998 1.6465 0
M  V30 12 H 0.0687 -1.2703 1.2075 0
M  V30 13 H -2.7862 0.6338 0.7052 0
M  V30 14 H -1.6948 1.8385 -0.0872 0
M  V30 15 H -2.8226 0.8491 -1.0858 0
M  V30 16 H 2.3135 1.8461 0.3275 0
M  V30 17 H 1.8071 -1.6103 -0.6615 0
M  V30 18 H 3.0682 -0.3229 -0.6404 0
M  V30 19 H 2.5777 -1.1235 0.9003 0
M  V30 END ATOM
M  V30 BEGIN BOND
M  V30 1 1 1 2
M  V30 2 1 1 3
M  V30 3 1 2 4
M  V30 4 1 3 5
M  V30 5 1 3 6
M  V30 6 1 3 7
M  V30 7 1 4 8
M  V30 8 1 4 9
M  V30 9 1 4 6
M  V30 10 1 5 10
M  V30 11 1 6 11
M  V30 12 1 6 12
M  V30 13 1 7 13
M  V30 14 1 7 14
M  V30 15 1 7 15
M  V30 16 1 8 16
M  V30 17 1 9 17
M  V30 18 1 9 18
M  V30 19 1 9 19
M  V30 END BOND
M  V30 BEGIN COLLECTION
M  V30 MDLV30/STEABS ATOMS=(2 3 4)
M  V30 END COLLECTION
M  V30 END CTAB
M  END
>  <Structure No>
2760

>  <LogS>
0.571440842

>  <MMFF94 Energy>
-2.4266

$$$$
Compound 2761
Actelion Java MolfileCreator 2.0

  0  0  0  0  0  0              0 V3000
M  V30 BEGIN CTAB
M  V30 COUNTS 47 46 0 0 0
M  V30 BEGIN ATOM
M  V30 1 N -1.6795 0.6868 -1.3739 0 CHG=1
M  V30 2 C -0.3267 1.2423 -1.1815 0
M  V30 3 C -2.6535 1.2444 -0.418 0
M  V30 4 C 0.4131 0.581 0.0019 0
M  V30 5 C -4.0779 0.7586 -0.7227 0
M  V30 6 N 1.7526 1.1516 0.2156 0
M  V30 7 N -4.1735 -0.7008 -0.5812 0
M  V30 8 C 2.7188 0.7179 -0.8034 0
M  V30 9 C -5.5244 -1.1999 -0.9037 0
M  V30 10 C 4.1526 1.0365 -0.349 0
M  V30 11 C -6.3259 -1.6211 0.3432 0
M  V30 12 N 4.5679 0.2437 0.8226 0
M  V30 13 N -6.6537 -0.4796 1.1984 0 CHG=1
M  V30 14 C 5.0896 -1.0827 0.457 0
M  V30 15 C 6.6036 -1.0253 0.2096 0
M  V30 16 N 7.332 -0.634 1.4174 0 CHG=1
M  V30 17 H -1.6495 -0.3564 -1.292 0
M  V30 18 H -1.9897 0.9274 -2.3449 0
M  V30 19 H 0.2577 1.0627 -2.1093 0
M  V30 20 H -0.372 2.345 -1.036 0
M  V30 21 H -2.6507 2.356 -0.4746 0
M  V30 22 H -2.3948 0.9522 0.6221 0
M  V30 23 H 0.4797 -0.5184 -0.1526 0
M  V30 24 H -0.1674 0.737 0.9334 0
M  V30 25 H -4.7822 1.2615 -0.0251 0
M  V30 26 H -4.3437 1.0589 -1.7605 0
M  V30 27 H 1.6916 2.1973 0.2095 0
M  V30 28 H -3.8956 -0.9748 0.3903 0
M  V30 29 H 2.5314 1.2562 -1.7579 0
M  V30 30 H 2.6276 -0.3723 -0.9979 0
M  V30 31 H -5.4071 -2.0969 -1.5479 0
M  V30 32 H -6.1157 -0.4671 -1.4986 0
M  V30 33 H 4.2151 2.114 -0.0851 0
M  V30 34 H 4.8507 0.8812 -1.2007 0
M  V30 35 H -5.7535 -2.3767 0.9254 0
M  V30 36 H -7.2695 -2.1048 0.0064 0
M  V30 37 H 3.7624 0.1263 1.4809 0
M  V30 38 H -5.7898 -0.109 1.6551 0
M  V30 39 H -7.1164 0.2732 0.6391 0
M  V30 40 H -7.3125 -0.7943 1.9468 0
M  V30 41 H 4.584 -1.4893 -0.446 0
M  V30 42 H 4.8934 -1.8004 1.2845 0
M  V30 43 H 6.8296 -0.3101 -0.6107 0
M  V30 44 H 6.9493 -2.031 -0.1163 0
M  V30 45 H 7.1242 -1.3003 2.1964 0
M  V30 46 H 7.0684 0.3373 1.701 0
M  V30 47 H 8.3583 -0.6577 1.2187 0
M  V30 END ATOM
M  V30 BEGIN BOND
M  V30 1 1 1 2
M  V30 2 1 1 3
M  V30 3 1 2 4
M  V30 4 1 3 5
M  V30 5 1 4 6
M  V30 6 1 5 7
M  V30 7 1 6 8
M  V30 8 1 7 9
M  V30 9 1 8 10
M  V30 10 1 9 11
M  V30 11 1 10 12
M  V30 12 1 11 13
M  V30 13 1 12 14
M  V30 14 1 14 15
M  V30 15 1 15 16
M  V30 16 1 1 17
M  V30 17 1 1 18
M  V30 18 1 2 19
M  V30 19 1 2 20
M  V30 20 1 3 21
M  V30 21 1 3 22
M  V30 22 1 4 23
M  V30 23 1 4 24
M  V30 24 1 5 25
M  V30 25 1 5 26
M  V30 26 1 6 27
M  V30 27 1 7 28
M  V30 28 1 8 29
M  V30 29 1 8 30
M  V30 30 1 9 31
M  V30 31 1 9 32
M  V30 32 1 10 33
M  V30 33 1 10 34
M  V30 34 1 11 35
M  V30 35 1 11 36
M  V30 36 1 12 37
M  V30 37 1 13 38
M  V30 38 1 13 39
M  V30 39 1 13 40
M  V30 40 1 14 41
M  V30 41 1 14 42
M  V30 42 1 15 43
M  V30 43 1 15 44
M  V30 44 1 16 45
M  V30 45 1 16 46
M  V30 46 1 16 47
M  V30 END BOND
M  V30 END CTAB
M  END
>  <Structure No>
2761

>  <LogS>
0.332778733

>  <MMFF94 Energy>
231.07

$$$$
Compound 2762
Actelion Java MolfileCreator 2.0

  0  0  0  0  0  0              0 V3000
M  V30 BEGIN CTAB
M  V30 COUNTS 51 51 0 0 0
M  V30 BEGIN ATOM
M  V30 1 N 5.1315 -0.1551 -0.0775 0 CHG=1
M  V30 2 C 3.6883 0.0788 -0.3327 0
M  V30 3 C 5.74 0.8977 0.7556 0
M  V30 4 C 5.3981 -1.4906 0.4857 0
M  V30 5 C 2.7923 -0.0143 0.9243 0
M  V30 6 C 1.3383 0.4046 0.64 0
M  V30 7 N 0.6674 -0.521 -0.2978 0 CHG=1
M  V30 8 C -0.8118 -0.4056 -0.3608 0
M  V30 9 C -1.5042 -1.0014 0.8801 0
M  V30 10 C -1.2949 1.0382 -0.5953 0
M  V30 11 C -3.0539 -0.9259 0.7947 0
M  V30 12 C -2.8401 1.1412 -0.7079 0
M  V30 13 N -3.5111 0.4511 0.4354 0 CHG=1
M  V30 14 C -3.6181 -1.2735 2.1978 0
M  V30 15 C -3.6169 -1.9989 -0.1761 0
M  V30 16 C -3.3419 0.6195 -2.0815 0
M  V30 17 C -3.2143 2.6461 -0.6536 0
M  V30 18 H 5.6089 -0.1171 -1.0099 0
M  V30 19 H 3.3336 -0.6632 -1.0818 0
M  V30 20 H 3.5555 1.0806 -0.8005 0
M  V30 21 H 5.4256 0.8144 1.8179 0
M  V30 22 H 5.4695 1.9072 0.3755 0
M  V30 23 H 6.8488 0.8152 0.7235 0
M  V30 24 H 4.8911 -2.2776 -0.1145 0
M  V30 25 H 5.0555 -1.5636 1.5407 0
M  V30 26 H 6.4897 -1.7033 0.4645 0
M  V30 27 H 3.179 0.6596 1.7156 0
M  V30 28 H 2.7955 -1.0495 1.326 0
M  V30 29 H 0.8105 0.4352 1.6143 0
M  V30 30 H 1.3415 1.4368 0.2245 0
M  V30 31 H 1.0392 -0.3379 -1.2591 0
M  V30 32 H 0.9122 -1.5098 -0.0546 0
M  V30 33 H -1.122 -1.0121 -1.235 0
M  V30 34 H -1.1758 -0.4481 1.784 0
M  V30 35 H -1.1867 -2.0598 1.0092 0
M  V30 36 H -0.9681 1.6691 0.2595 0
M  V30 37 H -0.8174 1.4433 -1.5149 0
M  V30 38 H -3.3644 1.0516 1.2823 0
M  V30 39 H -4.5468 0.4432 0.2768 0
M  V30 40 H -4.7294 -1.2517 2.1861 0
M  V30 41 H -3.2699 -0.545 2.9616 0
M  V30 42 H -3.2893 -2.2849 2.5221 0
M  V30 43 H -4.6909 -1.8122 -0.3899 0
M  V30 44 H -3.5319 -3.0139 0.2691 0
M  V30 45 H -3.0709 -2.058 -1.1304 0
M  V30 46 H -3.0765 1.3323 -2.8923 0
M  V30 47 H -4.4468 0.5054 -2.0795 0
M  V30 48 H -2.8878 -0.3374 -2.3814 0
M  V30 49 H -2.897 3.104 0.3081 0
M  V30 50 H -4.3143 2.7766 -0.7477 0
M  V30 51 H -2.7214 3.2111 -1.4746 0
M  V30 END ATOM
M  V30 BEGIN BOND
M  V30 1 1 1 2
M  V30 2 1 1 3
M  V30 3 1 1 4
M  V30 4 1 2 5
M  V30 5 1 5 6
M  V30 6 1 6 7
M  V30 7 1 7 8
M  V30 8 1 8 9
M  V30 9 1 8 10
M  V30 10 1 9 11
M  V30 11 1 10 12
M  V30 12 1 11 13
M  V30 13 1 11 14
M  V30 14 1 11 15
M  V30 15 1 12 16
M  V30 16 1 12 17
M  V30 17 1 12 13
M  V30 18 1 1 18
M  V30 19 1 2 19
M  V30 20 1 2 20
M  V30 21 1 3 21
M  V30 22 1 3 22
M  V30 23 1 3 23
M  V30 24 1 4 24
M  V30 25 1 4 25
M  V30 26 1 4 26
M  V30 27 1 5 27
M  V30 28 1 5 28
M  V30 29 1 6 29
M  V30 30 1 6 30
M  V30 31 1 7 31
M  V30 32 1 7 32
M  V30 33 1 8 33
M  V30 34 1 9 34
M  V30 35 1 9 35
M  V30 36 1 10 36
M  V30 37 1 10 37
M  V30 38 1 13 38
M  V30 39 1 13 39
M  V30 40 1 14 40
M  V30 41 1 14 41
M  V30 42 1 14 42
M  V30 43 1 15 43
M  V30 44 1 15 44
M  V30 45 1 15 45
M  V30 46 1 16 46
M  V30 47 1 16 47
M  V30 48 1 16 48
M  V30 49 1 17 49
M  V30 50 1 17 50
M  V30 51 1 17 51
M  V30 END BOND
M  V30 END CTAB
M  END
>  <Structure No>
2762

>  <LogS>
0.316191362

>  <MMFF94 Energy>
186.61

$$$$
Compound 2763
Actelion Java MolfileCreator 2.0

  0  0  0  0  0  0              0 V3000
M  V30 BEGIN CTAB
M  V30 COUNTS 41 40 0 0 0
M  V30 BEGIN ATOM
M  V30 1 S 0.5661 1.6182 -0.9707 0
M  V30 2 O 1.7612 2.1964 -1.6753 0
M  V30 3 O 0.6332 1.9727 0.4885 0
M  V30 4 O -0.8277 2.2777 -1.6375 0 CHG=-1
M  V30 5 C 0.5527 -0.1655 -1.1743 0 CFG=1
M  V30 6 C 1.9152 -0.7103 -0.8596 0
M  V30 7 C -0.5026 -0.8384 -0.2781 0
M  V30 8 O 2.5961 -1.2554 -1.771 0
M  V30 9 O 2.4209 -0.6027 0.4418 0
M  V30 10 C -1.8959 -0.4699 -0.6839 0
M  V30 11 C 3.7404 -1.0038 0.8075 0
M  V30 12 O -2.4047 -0.9895 -1.7145 0
M  V30 13 O -2.6051 0.4715 0.0717 0
M  V30 14 C 4.7856 0.0142 0.3145 0
M  V30 15 C -3.9401 0.8843 -0.2216 0
M  V30 16 C 4.5468 1.3955 0.9386 0
M  V30 17 C 6.2012 -0.4773 0.6367 0
M  V30 18 C -4.9615 0.0959 0.6191 0
M  V30 19 C -6.3649 0.6884 0.4401 0
M  V30 20 C -4.9685 -1.3944 0.2555 0
M  V30 21 H 0.316 -0.3865 -2.239 0
M  V30 22 H -0.4006 -1.9437 -0.3503 0
M  V30 23 H -0.3414 -0.5583 0.7856 0
M  V30 24 H 3.79 -1.0813 1.9151 0
M  V30 25 H 3.9526 -2.0135 0.3916 0
M  V30 26 H 4.7015 0.1119 -0.7898 0
M  V30 27 H -4.1598 0.7939 -1.3085 0
M  V30 28 H -4.0198 1.9618 0.0382 0
M  V30 29 H 4.6151 1.343 2.0466 0
M  V30 30 H 5.3028 2.1195 0.5667 0
M  V30 31 H 3.5427 1.7777 0.6589 0
M  V30 32 H 6.338 -0.5885 1.7341 0
M  V30 33 H 6.9543 0.2433 0.2522 0
M  V30 34 H 6.3852 -1.4592 0.1506 0
M  V30 35 H -4.683 0.192 1.692 0
M  V30 36 H -6.3732 1.7568 0.7451 0
M  V30 37 H -7.0958 0.1454 1.0768 0
M  V30 38 H -6.6885 0.6152 -0.6206 0
M  V30 39 H -3.9923 -1.8587 0.5061 0
M  V30 40 H -5.7501 -1.9281 0.8372 0
M  V30 41 H -5.1724 -1.5335 -0.8279 0
M  V30 END ATOM
M  V30 BEGIN BOND
M  V30 1 2 1 2
M  V30 2 2 1 3
M  V30 3 1 1 4
M  V30 4 1 1 5
M  V30 5 1 5 6
M  V30 6 1 5 7
M  V30 7 2 6 8
M  V30 8 1 6 9
M  V30 9 1 7 10
M  V30 10 1 9 11
M  V30 11 2 10 12
M  V30 12 1 10 13
M  V30 13 1 11 14
M  V30 14 1 13 15
M  V30 15 1 14 16
M  V30 16 1 14 17
M  V30 17 1 15 18
M  V30 18 1 18 19
M  V30 19 1 18 20
M  V30 20 1 5 21
M  V30 21 1 7 22
M  V30 22 1 7 23
M  V30 23 1 11 24
M  V30 24 1 11 25
M  V30 25 1 14 26
M  V30 26 1 15 27
M  V30 27 1 15 28
M  V30 28 1 16 29
M  V30 29 1 16 30
M  V30 30 1 16 31
M  V30 31 1 17 32
M  V30 32 1 17 33
M  V30 33 1 17 34
M  V30 34 1 18 35
M  V30 35 1 19 36
M  V30 36 1 19 37
M  V30 37 1 19 38
M  V30 38 1 20 39
M  V30 39 1 20 40
M  V30 40 1 20 41
M  V30 END BOND
M  V30 BEGIN COLLECTION
M  V30 MDLV30/STEABS ATOMS=(1 5)
M  V30 END COLLECTION
M  V30 END CTAB
M  END
>  <Structure No>
2763

>  <LogS>
0.177374321

>  <MMFF94 Energy>
-75.332

$$$$
Compound 2764
Actelion Java MolfileCreator 2.0

  0  0  0  0  0  0              0 V3000
M  V30 BEGIN CTAB
M  V30 COUNTS 53 52 0 0 0
M  V30 BEGIN ATOM
M  V30 1 S -0.0803 -2.1702 -0.5623 0
M  V30 2 O -0.8011 -2.8246 0.5826 0
M  V30 3 O 1.3951 -2.408 -0.4097 0
M  V30 4 O -0.6057 -2.8509 -2.0055 0 CHG=-1
M  V30 5 C -0.4211 -0.4085 -0.5563 0 CFG=2
M  V30 6 C -1.9025 -0.193 -0.4504 0
M  V30 7 C 0.1354 0.2879 -1.8119 0
M  V30 8 O -2.6575 -0.5027 -1.4131 0
M  V30 9 O -2.4351 0.3287 0.7341 0
M  V30 10 C 1.6326 0.3156 -1.8128 0
M  V30 11 C -3.8361 0.4765 0.9711 0 CFG=1
M  V30 12 O 2.2725 -0.3685 -2.6575 0
M  V30 13 O 2.3042 1.1021 -0.8694 0
M  V30 14 C -4.4662 -0.9051 1.3029 0
M  V30 15 C -4.0168 1.4658 2.1255 0
M  V30 16 C 3.7263 1.1438 -0.7387 0 CFG=2
M  V30 17 C -5.8645 -1.1664 0.6895 0
M  V30 18 C 4.2064 -0.1378 -0.0106 0
M  V30 19 C 4.0903 2.4248 0.0135 0
M  V30 20 C -6.9081 -0.1271 1.1159 0
M  V30 21 C -5.8175 -1.3039 -0.839 0
M  V30 22 C 5.7378 -0.3604 0.1228 0
M  V30 23 C 6.5149 -0.05 -1.1627 0
M  V30 24 C 6.3513 0.3565 1.3345 0
M  V30 25 H 0.0579 0.032 0.3456 0
M  V30 26 H -0.2371 -0.2164 -2.7304 0
M  V30 27 H -0.2219 1.3405 -1.8398 0
M  V30 28 H -4.3036 0.9291 0.0712 0
M  V30 29 H -4.5296 -1.0427 2.4052 0
M  V30 30 H -3.7887 -1.7139 0.9515 0
M  V30 31 H -3.5159 1.0876 3.0424 0
M  V30 32 H -5.0904 1.6339 2.3444 0
M  V30 33 H -3.5617 2.4422 1.8545 0
M  V30 34 H 4.1729 1.2028 -1.7553 0
M  V30 35 H -6.2062 -2.1483 1.0873 0
M  V30 36 H 3.7299 -0.1901 0.993 0
M  V30 37 H 3.8074 -1.0074 -0.5752 0
M  V30 38 H 3.4833 3.2717 -0.3724 0
M  V30 39 H 3.891 2.3181 1.1013 0
M  V30 40 H 5.1528 2.6884 -0.156 0
M  V30 41 H -6.9312 -0.0386 2.2228 0
M  V30 42 H -6.6884 0.8662 0.6714 0
M  V30 43 H -7.9174 -0.444 0.7764 0
M  V30 44 H -5.5758 -0.3378 -1.3279 0
M  V30 45 H -5.0588 -2.0593 -1.1346 0
M  V30 46 H -6.8048 -1.6452 -1.2171 0
M  V30 47 H 5.8728 -1.4484 0.3176 0
M  V30 48 H 6.5395 1.0414 -1.3624 0
M  V30 49 H 7.5619 -0.4087 -1.0669 0
M  V30 50 H 6.0487 -0.5695 -2.0269 0
M  V30 51 H 7.3761 -0.0315 1.5175 0
M  V30 52 H 6.4306 1.4485 1.1766 0
M  V30 53 H 5.7479 0.1652 2.2473 0
M  V30 END ATOM
M  V30 BEGIN BOND
M  V30 1 2 1 2
M  V30 2 2 1 3
M  V30 3 1 1 4
M  V30 4 1 1 5
M  V30 5 1 5 6
M  V30 6 1 5 7
M  V30 7 2 6 8
M  V30 8 1 6 9
M  V30 9 1 7 10
M  V30 10 1 9 11
M  V30 11 2 10 12
M  V30 12 1 10 13
M  V30 13 1 11 14
M  V30 14 1 11 15
M  V30 15 1 13 16
M  V30 16 1 14 17
M  V30 17 1 16 18
M  V30 18 1 16 19
M  V30 19 1 17 20
M  V30 20 1 17 21
M  V30 21 1 18 22
M  V30 22 1 22 23
M  V30 23 1 22 24
M  V30 24 1 5 25
M  V30 25 1 7 26
M  V30 26 1 7 27
M  V30 27 1 11 28
M  V30 28 1 14 29
M  V30 29 1 14 30
M  V30 30 1 15 31
M  V30 31 1 15 32
M  V30 32 1 15 33
M  V30 33 1 16 34
M  V30 34 1 17 35
M  V30 35 1 18 36
M  V30 36 1 18 37
M  V30 37 1 19 38
M  V30 38 1 19 39
M  V30 39 1 19 40
M  V30 40 1 20 41
M  V30 41 1 20 42
M  V30 42 1 20 43
M  V30 43 1 21 44
M  V30 44 1 21 45
M  V30 45 1 21 46
M  V30 46 1 22 47
M  V30 47 1 23 48
M  V30 48 1 23 49
M  V30 49 1 23 50
M  V30 50 1 24 51
M  V30 51 1 24 52
M  V30 52 1 24 53
M  V30 END BOND
M  V30 BEGIN COLLECTION
M  V30 MDLV30/STEABS ATOMS=(3 5 11 16)
M  V30 END COLLECTION
M  V30 END CTAB
M  END
>  <Structure No>
2764

>  <LogS>
0.109625935

>  <MMFF94 Energy>
-64.351

$$$$
Compound 2765
Actelion Java MolfileCreator 2.0

  0  0  0  0  0  0              0 V3000
M  V30 BEGIN CTAB
M  V30 COUNTS 30 29 0 0 0
M  V30 BEGIN ATOM
M  V30 1 S 3.7189 -1.2923 -0.3229 0
M  V30 2 O 3.1929 -2.6866 -0.1234 0
M  V30 3 O 4.7929 -1.3218 -1.3723 0
M  V30 4 O 2.4761 -0.2655 -0.8428 0
M  V30 5 O 4.3807 -0.7253 1.1145 0 CHG=-1
M  V30 6 C 1.4836 -0.2219 0.1551 0
M  V30 7 C 0.3835 0.7898 -0.2458 0 CFG=1
M  V30 8 C -0.9336 0.5092 0.5233 0
M  V30 9 C 0.8309 2.2509 0.0167 0
M  V30 10 C -1.7328 -0.6617 -0.0737 0
M  V30 11 C 2.0384 2.6816 -0.8171 0
M  V30 12 C -3.0467 -0.8738 0.6882 0
M  V30 13 C -3.8453 -2.0334 0.0998 0
M  V30 14 H 1.9116 0.0801 1.1377 0
M  V30 15 H 1.0432 -1.2346 0.2686 0
M  V30 16 H 0.1784 0.6861 -1.3353 0
M  V30 17 H -0.7091 0.3085 1.5946 0
M  V30 18 H -1.5868 1.4093 0.4866 0
M  V30 19 H -0.0054 2.9381 -0.2384 0
M  V30 20 H 1.0625 2.3929 1.0952 0
M  V30 21 H -1.9616 -0.4433 -1.14 0
M  V30 22 H -1.1389 -1.5979 -0.0286 0
M  V30 23 H 1.8825 2.4335 -1.8883 0
M  V30 24 H 2.1768 3.7797 -0.726 0
M  V30 25 H 2.9636 2.1924 -0.4483 0
M  V30 26 H -2.8288 -1.0929 1.7563 0
M  V30 27 H -3.6643 0.0492 0.6371 0
M  V30 28 H -4.7895 -2.1616 0.67 0
M  V30 29 H -4.0971 -1.8286 -0.9626 0
M  V30 30 H -3.2612 -2.9761 0.1636 0
M  V30 END ATOM
M  V30 BEGIN BOND
M  V30 1 2 1 2
M  V30 2 2 1 3
M  V30 3 1 1 4
M  V30 4 1 1 5
M  V30 5 1 4 6
M  V30 6 1 6 7
M  V30 7 1 7 8
M  V30 8 1 7 9
M  V30 9 1 8 10
M  V30 10 1 9 11
M  V30 11 1 10 12
M  V30 12 1 12 13
M  V30 13 1 6 14
M  V30 14 1 6 15
M  V30 15 1 7 16
M  V30 16 1 8 17
M  V30 17 1 8 18
M  V30 18 1 9 19
M  V30 19 1 9 20
M  V30 20 1 10 21
M  V30 21 1 10 22
M  V30 22 1 11 23
M  V30 23 1 11 24
M  V30 24 1 11 25
M  V30 25 1 12 26
M  V30 26 1 12 27
M  V30 27 1 13 28
M  V30 28 1 13 29
M  V30 29 1 13 30
M  V30 END BOND
M  V30 BEGIN COLLECTION
M  V30 MDLV30/STEABS ATOMS=(1 7)
M  V30 END COLLECTION
M  V30 END CTAB
M  END
>  <Structure No>
2765

>  <LogS>
0.332963796

>  <MMFF94 Energy>
-39.524

$$$$
Compound 2766
Actelion Java MolfileCreator 2.0

  0  0  0  0  0  0              0 V3000
M  V30 BEGIN CTAB
M  V30 COUNTS 10 9 0 0 0
M  V30 BEGIN ATOM
M  V30 1 O 1.3256 -1.0915 1.4816 0
M  V30 2 C 1.2597 -0.3158 0.492 0
M  V30 3 O 2.2835 -0.3092 -0.4465 0 CHG=-1
M  V30 4 C 0.061 0.5574 0.2987 0
M  V30 5 C -1.0008 -0.1624 -0.5238 0
M  V30 6 H -0.3632 0.8377 1.2871 0
M  V30 7 H 0.3641 1.4892 -0.2248 0
M  V30 8 H -1.3312 -1.0868 -0.0033 0
M  V30 9 H -0.5991 -0.4282 -1.5249 0
M  V30 10 H -1.8799 0.5023 -0.6589 0
M  V30 END ATOM
M  V30 BEGIN BOND
M  V30 1 2 1 2
M  V30 2 1 2 3
M  V30 3 1 2 4
M  V30 4 1 4 5
M  V30 5 1 4 6
M  V30 6 1 4 7
M  V30 7 1 5 8
M  V30 8 1 5 9
M  V30 9 1 5 10
M  V30 END BOND
M  V30 END CTAB
M  END
>  <Structure No>
2766

>  <LogS>
0.716422901

>  <MMFF94 Energy>
1.8575

$$$$
Compound 2767
Actelion Java MolfileCreator 2.0

  0  0  0  0  0  0              0 V3000
M  V30 BEGIN CTAB
M  V30 COUNTS 92 98 0 0 0
M  V30 BEGIN ATOM
M  V30 1 S 12.7664 2.4426 1.5156 0
M  V30 2 O 11.9234 1.4822 2.3054 0
M  V30 3 O 12.7208 3.8015 2.1551 0
M  V30 4 O 14.3532 1.8886 1.523 0 CHG=-1
M  V30 5 C 12.1577 2.5495 -0.1399 0
M  V30 6 C 10.7787 2.695 -0.4038 0
M  V30 7 C 13.0607 2.4579 -1.2109 0
M  V30 8 N 9.8303 2.8196 0.6697 0
M  V30 9 C 10.3338 2.7644 -1.7323 0
M  V30 10 C 12.6098 2.5102 -2.5423 0
M  V30 11 C 8.567 2.1347 0.6913 0
M  V30 12 C 11.2379 2.6708 -2.7903 0
M  V30 13 N 13.5373 2.3964 -3.6373 0 CHG=1
M  V30 14 C 7.5017 2.6712 1.4281 0
M  V30 15 C 8.3931 0.9065 0.0297 0
M  V30 16 O 14.7474 2.1722 -3.4268 0
M  V30 17 O 13.0972 2.4964 -4.9381 0 CHG=-1
M  V30 18 C 6.2754 1.9989 1.4911 0
M  V30 19 C 7.1706 0.2341 0.0996 0
M  V30 20 C 6.1046 0.7736 0.8368 0
M  V30 21 N 4.8459 0.0992 0.9422 0
M  V30 22 N 4.708 -1.1362 0.6659 0
M  V30 23 C 3.441 -1.8004 0.7683 0
M  V30 24 C 3.3396 -3.2104 0.9908 0
M  V30 25 C 2.276 -1.019 0.7032 0
M  V30 26 C 4.4613 -4.1108 1.0039 0
M  V30 27 C 2.0373 -3.7549 1.2502 0
M  V30 28 C 1.0219 -1.5766 0.8928 0
M  V30 29 S 6.1174 -3.6762 0.519 0
M  V30 30 C 4.2611 -5.4573 1.3497 0
M  V30 31 C 0.8874 -2.9348 1.1924 0
M  V30 32 C 1.8953 -5.1185 1.5634 0
M  V30 33 O 6.0924 -3.0339 -0.84 0
M  V30 34 O 6.9795 -4.9054 0.4351 0
M  V30 35 O 6.8013 -2.6372 1.6522 0 CHG=-1
M  V30 36 C 2.9984 -5.9515 1.6262 0
M  V30 37 N -0.4095 -3.4913 1.4604 0
M  V30 38 N -1.4832 -2.8307 1.29 0
M  V30 39 C -2.7793 -3.3671 1.5931 0
M  V30 40 C -2.9408 -4.6737 2.3086 0
M  V30 41 C -3.855 -2.635 1.2574 0
M  V30 42 O -1.8275 -5.4422 2.635 0 CHG=-1
M  V30 43 C -4.1511 -5.1242 2.6614 0
M  V30 44 C -5.2267 -3.0975 1.5846 0
M  V30 45 C -5.3594 -4.3553 2.3359 0
M  V30 46 N -6.3002 -2.4344 1.2609 0
M  V30 47 O -6.492 -4.7824 2.6854 0
M  V30 48 N -6.3227 -1.2788 0.462 0
M  V30 49 C -7.5097 -0.477 0.3724 0
M  V30 50 C -8.5066 -0.5508 1.3599 0
M  V30 51 C -7.6754 0.4088 -0.7037 0
M  V30 52 C -9.6528 0.245 1.2677 0
M  V30 53 C -8.8286 1.1938 -0.8035 0
M  V30 54 C -9.8327 1.1087 0.1775 0
M  V30 55 N -11.0117 1.9292 0.1075 0
M  V30 56 C -11.5894 2.3823 -1.1299 0
M  V30 57 C -12.0815 3.6997 -1.2618 0
M  V30 58 C -11.722 1.4876 -2.2037 0
M  V30 59 S -11.9099 4.8742 0.0498 0
M  V30 60 C -12.6989 4.0916 -2.4607 0
M  V30 61 C -12.3322 1.887 -3.3927 0
M  V30 62 O -12.9247 4.5849 1.1193 0
M  V30 63 O -12.1235 6.2693 -0.4674 0
M  V30 64 O -10.3624 4.7771 0.697 0 CHG=-1
M  V30 65 C -12.8312 3.1924 -3.5325 0
M  V30 66 N -13.4663 3.6094 -4.7558 0 CHG=1
M  V30 67 O -13.6281 2.8044 -5.6944 0
M  V30 68 O -13.8985 4.906 -4.9123 0 CHG=-1
M  V30 69 H 14.118 2.3428 -1.0117 0
M  V30 70 H 10.0621 3.4549 1.4657 0
M  V30 71 H 9.281 2.9042 -1.9459 0
M  V30 72 H 10.8623 2.7241 -3.804 0
M  V30 73 H 7.6228 3.611 1.9531 0
M  V30 74 H 9.2054 0.457 -0.5278 0
M  V30 75 H 5.4623 2.4237 2.0634 0
M  V30 76 H 7.0597 -0.7013 -0.4256 0
M  V30 77 H 2.3392 0.0429 0.503 0
M  V30 78 H 0.1539 -0.9306 0.8354 0
M  V30 79 H 5.0898 -6.151 1.3873 0
M  V30 80 H 0.9262 -5.5552 1.763 0
M  V30 81 H 2.8741 -6.9975 1.8749 0
M  V30 82 H -3.6961 -1.6811 0.7755 0
M  V30 83 H -4.2459 -6.0646 3.1907 0
M  V30 84 H -5.5379 -1.0728 -0.1924 0
M  V30 85 H -8.39 -1.2072 2.2122 0
M  V30 86 H -6.9149 0.4831 -1.4704 0
M  V30 87 H -10.4079 0.1796 2.0426 0
M  V30 88 H -8.9278 1.8804 -1.6346 0
M  V30 89 H -11.5009 2.1729 0.9985 0
M  V30 90 H -11.3742 0.4668 -2.1083 0
M  V30 91 H -13.0826 5.0995 -2.5557 0
M  V30 92 H -12.4146 1.1718 -4.204 0
M  V30 END ATOM
M  V30 BEGIN BOND
M  V30 1 2 1 2
M  V30 2 2 1 3
M  V30 3 1 1 4
M  V30 4 1 1 5
M  V30 5 2 5 6
M  V30 6 1 5 7
M  V30 7 1 6 8
M  V30 8 1 6 9
M  V30 9 2 7 10
M  V30 10 1 8 11
M  V30 11 2 9 12
M  V30 12 1 10 13
M  V30 13 2 11 14
M  V30 14 1 11 15
M  V30 15 2 13 16
M  V30 16 1 13 17
M  V30 17 1 14 18
M  V30 18 2 15 19
M  V30 19 2 18 20
M  V30 20 1 20 21
M  V30 21 2 21 22
M  V30 22 1 22 23
M  V30 23 1 23 24
M  V30 24 2 23 25
M  V30 25 2 24 26
M  V30 26 1 24 27
M  V30 27 1 25 28
M  V30 28 1 26 29
M  V30 29 1 26 30
M  V30 30 1 27 31
M  V30 31 2 27 32
M  V30 32 2 29 33
M  V30 33 2 29 34
M  V30 34 1 29 35
M  V30 35 2 30 36
M  V30 36 1 31 37
M  V30 37 2 37 38
M  V30 38 1 38 39
M  V30 39 1 39 40
M  V30 40 2 39 41
M  V30 41 1 40 42
M  V30 42 2 40 43
M  V30 43 1 41 44
M  V30 44 1 43 45
M  V30 45 2 44 46
M  V30 46 2 45 47
M  V30 47 1 46 48
M  V30 48 1 48 49
M  V30 49 2 49 50
M  V30 50 1 49 51
M  V30 51 1 50 52
M  V30 52 2 51 53
M  V30 53 2 52 54
M  V30 54 1 54 55
M  V30 55 1 55 56
M  V30 56 2 56 57
M  V30 57 1 56 58
M  V30 58 1 57 59
M  V30 59 1 57 60
M  V30 60 2 58 61
M  V30 61 2 59 62
M  V30 62 2 59 63
M  V30 63 1 59 64
M  V30 64 2 60 65
M  V30 65 1 65 66
M  V30 66 2 66 67
M  V30 67 1 66 68
M  V30 68 1 10 12
M  V30 69 1 19 20
M  V30 70 2 28 31
M  V30 71 1 32 36
M  V30 72 1 44 45
M  V30 73 1 53 54
M  V30 74 1 61 65
M  V30 75 1 7 69
M  V30 76 1 8 70
M  V30 77 1 9 71
M  V30 78 1 12 72
M  V30 79 1 14 73
M  V30 80 1 15 74
M  V30 81 1 18 75
M  V30 82 1 19 76
M  V30 83 1 25 77
M  V30 84 1 28 78
M  V30 85 1 30 79
M  V30 86 1 32 80
M  V30 87 1 36 81
M  V30 88 1 41 82
M  V30 89 1 43 83
M  V30 90 1 48 84
M  V30 91 1 50 85
M  V30 92 1 51 86
M  V30 93 1 52 87
M  V30 94 1 53 88
M  V30 95 1 55 89
M  V30 96 1 58 90
M  V30 97 1 60 91
M  V30 98 1 61 92
M  V30 END BOND
M  V30 END CTAB
M  END
>  <Structure No>
2767

>  <LogS>
-0.322577337

>  <MMFF94 Energy>
432.21

$$$$
Compound 2768
Actelion Java MolfileCreator 2.0

  0  0  0  0  0  0              0 V3000
M  V30 BEGIN CTAB
M  V30 COUNTS 36 36 0 0 0
M  V30 BEGIN ATOM
M  V30 1 N -1.3989 2.6436 -0.9324 0 CHG=1
M  V30 2 C -0.8199 1.3041 -0.7669 0 CFG=1
M  V30 3 C 0.4762 1.3872 0.0653 0
M  V30 4 C -1.8385 0.3695 -0.0838 0
M  V30 5 C 1.152 0.0087 0.3128 0 CFG=1
M  V30 6 C -1.2922 -1.0587 0.1718 0
M  V30 7 C 0.097 -0.9977 0.8825 0
M  V30 8 C 1.8235 -0.5624 -0.987 0
M  V30 9 C 2.2372 0.1963 1.4059 0
M  V30 10 C -1.2428 -1.8785 -1.1416 0
M  V30 11 C -2.2778 -1.7884 1.1169 0
M  V30 12 N 3.0903 0.0876 -1.3467 0 CHG=1
M  V30 13 H -1.6381 3.0624 -0.0038 0
M  V30 14 H -0.7173 3.2669 -1.4234 0
M  V30 15 H -2.2655 2.5866 -1.5154 0
M  V30 16 H -0.5868 0.9181 -1.7797 0
M  V30 17 H 0.2242 1.8502 1.0463 0
M  V30 18 H 1.1846 2.0807 -0.4335 0
M  V30 19 H -2.7578 0.3102 -0.708 0
M  V30 20 H -2.1347 0.8298 0.8859 0
M  V30 21 H 0.5375 -2.0181 0.9346 0
M  V30 22 H -0.0972 -0.7113 1.9413 0
M  V30 23 H 2.0171 -1.6506 -0.858 0
M  V30 24 H 1.1482 -0.4656 -1.853 0
M  V30 25 H 1.7869 0.5054 2.3741 0
M  V30 26 H 2.7924 -0.752 1.5719 0
M  V30 27 H 2.9596 0.9924 1.1271 0
M  V30 28 H -2.2688 -2.1507 -1.4714 0
M  V30 29 H -0.6713 -2.8202 -0.9978 0
M  V30 30 H -0.803 -1.3213 -1.9842 0
M  V30 31 H -3.2933 -1.8419 0.6674 0
M  V30 32 H -1.9302 -2.8248 1.3196 0
M  V30 33 H -2.3694 -1.2588 2.09 0
M  V30 34 H 2.9936 1.1269 -1.3605 0
M  V30 35 H 3.8504 -0.1978 -0.6885 0
M  V30 36 H 3.3696 -0.2253 -2.3044 0
M  V30 END ATOM
M  V30 BEGIN BOND
M  V30 1 1 1 2
M  V30 2 1 2 3
M  V30 3 1 2 4
M  V30 4 1 3 5
M  V30 5 1 4 6
M  V30 6 1 5 7
M  V30 7 1 5 8
M  V30 8 1 5 9
M  V30 9 1 6 10
M  V30 10 1 6 11
M  V30 11 1 8 12
M  V30 12 1 6 7
M  V30 13 1 1 13
M  V30 14 1 1 14
M  V30 15 1 1 15
M  V30 16 1 2 16
M  V30 17 1 3 17
M  V30 18 1 3 18
M  V30 19 1 4 19
M  V30 20 1 4 20
M  V30 21 1 7 21
M  V30 22 1 7 22
M  V30 23 1 8 23
M  V30 24 1 8 24
M  V30 25 1 9 25
M  V30 26 1 9 26
M  V30 27 1 9 27
M  V30 28 1 10 28
M  V30 29 1 10 29
M  V30 30 1 10 30
M  V30 31 1 11 31
M  V30 32 1 11 32
M  V30 33 1 11 33
M  V30 34 1 12 34
M  V30 35 1 12 35
M  V30 36 1 12 36
M  V30 END BOND
M  V30 BEGIN COLLECTION
M  V30 MDLV30/STEABS ATOMS=(2 2 5)
M  V30 END COLLECTION
M  V30 END CTAB
M  END
>  <Structure No>
2768

>  <LogS>
0.157298187

>  <MMFF94 Energy>
99.783

$$$$
Compound 2769
Actelion Java MolfileCreator 2.0

  0  0  0  0  0  0              0 V3000
M  V30 BEGIN CTAB
M  V30 COUNTS 8 7 0 0 0
M  V30 BEGIN ATOM
M  V30 1 O 2.2543 -0.6991 0.1553 0
M  V30 2 C 1.2608 0.0301 -0.1 0
M  V30 3 O 1.4619 1.2856 -0.6628 0 CHG=-1
M  V30 4 C -0.0936 -0.4562 0.2004 0
M  V30 5 C -1.1799 0.2714 -0.0483 0
M  V30 6 H -0.2109 -1.4398 0.6388 0
M  V30 7 H -1.1118 1.2595 -0.4854 0
M  V30 8 H -2.1594 -0.1239 0.188 0
M  V30 END ATOM
M  V30 BEGIN BOND
M  V30 1 2 1 2
M  V30 2 1 2 3
M  V30 3 1 2 4
M  V30 4 2 4 5
M  V30 5 1 4 6
M  V30 6 1 5 7
M  V30 7 1 5 8
M  V30 END BOND
M  V30 END CTAB
M  END
>  <Structure No>
2769

>  <LogS>
0.715084111

>  <MMFF94 Energy>
3.3546

$$$$
Compound 2770
Actelion Java MolfileCreator 2.0

  0  0  0  0  0  0              0 V3000
M  V30 BEGIN CTAB
M  V30 COUNTS 21 20 0 0 0
M  V30 BEGIN ATOM
M  V30 1 O 3.1234 -0.3804 0.1521 0
M  V30 2 C 1.882 0.186 0.474 0
M  V30 3 C 0.7612 -0.5277 -0.3124 0
M  V30 4 N -0.6241 -0.0343 -0.0408 0 CHG=1
M  V30 5 C -1.5622 -0.8271 -0.8727 0
M  V30 6 C -0.994 -0.2208 1.3831 0
M  V30 7 C -0.7691 1.3946 -0.4098 0
M  V30 8 H 3.3714 -0.0347 -0.7449 0
M  V30 9 H 1.9039 1.2745 0.2493 0
M  V30 10 H 1.7304 0.0587 1.5643 0
M  V30 11 H 0.829 -1.6154 -0.0789 0
M  V30 12 H 0.9927 -0.4248 -1.3977 0
M  V30 13 H -2.6166 -0.5054 -0.7151 0
M  V30 14 H -1.5007 -1.9107 -0.6239 0
M  V30 15 H -1.3337 -0.7104 -1.9561 0
M  V30 16 H -0.8047 -1.2672 1.7114 0
M  V30 17 H -0.4252 0.464 2.0477 0
M  V30 18 H -2.0724 0.0013 1.5486 0
M  V30 19 H -0.2019 2.0558 0.2794 0
M  V30 20 H -0.4104 1.5779 -1.4472 0
M  V30 21 H -1.8335 1.7164 -0.3525 0
M  V30 END ATOM
M  V30 BEGIN BOND
M  V30 1 1 1 2
M  V30 2 1 2 3
M  V30 3 1 3 4
M  V30 4 1 4 5
M  V30 5 1 4 6
M  V30 6 1 4 7
M  V30 7 1 1 8
M  V30 8 1 2 9
M  V30 9 1 2 10
M  V30 10 1 3 11
M  V30 11 1 3 12
M  V30 12 1 5 13
M  V30 13 1 5 14
M  V30 14 1 5 15
M  V30 15 1 6 16
M  V30 16 1 6 17
M  V30 17 1 6 18
M  V30 18 1 7 19
M  V30 19 1 7 20
M  V30 20 1 7 21
M  V30 END BOND
M  V30 END CTAB
M  END
>  <Structure No>
2770

>  <LogS>
0.603205321

>  <MMFF94 Energy>
39.062

$$$$
Compound 2771
Actelion Java MolfileCreator 2.0

  0  0  0  0  0  0              0 V3000
M  V30 BEGIN CTAB
M  V30 COUNTS 70 75 0 0 0
M  V30 BEGIN ATOM
M  V30 1 S 6.5821 -0.9263 2.1905 0
M  V30 2 O 5.4392 -1.9009 2.1567 0
M  V30 3 O 6.3384 0.11 3.2525 0
M  V30 4 O 7.9875 -1.7634 2.5773 0 CHG=-1
M  V30 5 C 6.7418 -0.1341 0.6123 0
M  V30 6 C 5.7364 0.7191 0.0812 0
M  V30 7 C 7.9194 -0.349 -0.119 0
M  V30 8 C 5.9608 1.3617 -1.163 0
M  V30 9 C 4.5164 0.9542 0.75 0
M  V30 10 C 8.1209 0.2694 -1.3575 0
M  V30 11 C 7.1493 1.1322 -1.8687 0
M  V30 12 C 4.995 2.2332 -1.6873 0
M  V30 13 C 3.5454 1.8155 0.2097 0
M  V30 14 S 9.6042 -0.0159 -2.2665 0
M  V30 15 C 3.8032 2.4642 -1.0022 0
M  V30 16 N 2.2943 2.0448 0.8786 0
M  V30 17 O 9.2798 -0.1711 -3.7264 0
M  V30 18 O 10.2746 -1.2745 -1.7851 0
M  V30 19 O 10.6477 1.2834 -2.0587 0 CHG=-1
M  V30 20 S 1.5474 0.8582 1.9002 0
M  V30 21 O 2.2354 0.8459 3.2365 0
M  V30 22 O 0.1015 1.2106 2.0987 0
M  V30 23 C 1.6452 -0.7179 1.1233 0
M  V30 24 C 1.2232 -0.8513 -0.2045 0
M  V30 25 C 2.1748 -1.8273 1.7991 0
M  V30 26 C 1.3053 -2.0921 -0.8579 0
M  V30 27 C 2.2941 -3.0548 1.1393 0
M  V30 28 N 0.9008 -2.2342 -2.2309 0
M  V30 29 C 1.8698 -3.1844 -0.1884 0
M  V30 30 N -0.1825 -1.7718 -2.7327 0
M  V30 31 C -1.2613 -1.1886 -1.9815 0
M  V30 32 C -1.8222 -1.8579 -0.8822 0
M  V30 33 C -1.8457 0.0026 -2.4337 0
M  V30 34 C -2.9325 -1.3249 -0.2221 0
M  V30 35 C -2.948 0.5457 -1.7639 0
M  V30 36 C -3.5128 -0.1224 -0.6671 0
M  V30 37 N -4.6888 0.406 -0.0368 0
M  V30 38 N -5.3336 -0.3024 0.9916 0
M  V30 39 C -6.5864 -0.1851 1.3371 0
M  V30 40 C -7.0095 -0.7945 2.6128 0
M  V30 41 C -7.6082 0.6141 0.5902 0
M  V30 42 O -6.2903 -1.6619 3.1802 0
M  V30 43 C -8.254 -0.341 3.2577 0
M  V30 44 C -8.762 1.0477 1.2904 0
M  V30 45 C -7.5449 0.8351 -0.8011 0
M  V30 46 C -9.0409 0.5609 2.666 0
M  V30 47 C -9.7196 1.841 0.6394 0
M  V30 48 C -8.5157 1.6111 -1.4413 0
M  V30 49 C -9.5803 2.1406 -0.7175 0
M  V30 50 H 8.6879 -0.9999 0.2763 0
M  V30 51 H 4.3115 0.4775 1.6922 0
M  V30 52 H 7.3188 1.6211 -2.8213 0
M  V30 53 H 5.1621 2.7402 -2.6302 0
M  V30 54 H 3.0676 3.136 -1.428 0
M  V30 55 H 1.7082 2.8612 0.5932 0
M  V30 56 H 0.8441 0.013 -0.7343 0
M  V30 57 H 2.5043 -1.7418 2.826 0
M  V30 58 H 2.7156 -3.9082 1.6559 0
M  V30 59 H 1.9678 -4.1385 -0.6915 0
M  V30 60 H -1.4157 -2.8061 -0.5515 0
M  V30 61 H -1.4418 0.5086 -3.3007 0
M  V30 62 H -3.3539 -1.8707 0.6101 0
M  V30 63 H -3.3804 1.4725 -2.1214 0
M  V30 64 H -5.0418 1.3442 -0.3274 0
M  V30 65 H -8.5361 -0.7374 4.2275 0
M  V30 66 H -6.7668 0.3939 -1.408 0
M  V30 67 H -9.9462 0.877 3.1735 0
M  V30 68 H -10.598 2.19 1.1693 0
M  V30 69 H -8.4458 1.7938 -2.5054 0
M  V30 70 H -10.3283 2.741 -1.219 0
M  V30 END ATOM
M  V30 BEGIN BOND
M  V30 1 2 1 2
M  V30 2 2 1 3
M  V30 3 1 1 4
M  V30 4 1 1 5
M  V30 5 1 5 6
M  V30 6 2 5 7
M  V30 7 1 6 8
M  V30 8 2 6 9
M  V30 9 1 7 10
M  V30 10 1 8 11
M  V30 11 2 8 12
M  V30 12 1 9 13
M  V30 13 1 10 14
M  V30 14 1 12 15
M  V30 15 1 13 16
M  V30 16 2 14 17
M  V30 17 2 14 18
M  V30 18 1 14 19
M  V30 19 1 16 20
M  V30 20 2 20 21
M  V30 21 2 20 22
M  V30 22 1 20 23
M  V30 23 2 23 24
M  V30 24 1 23 25
M  V30 25 1 24 26
M  V30 26 2 25 27
M  V30 27 1 26 28
M  V30 28 2 26 29
M  V30 29 2 28 30
M  V30 30 1 30 31
M  V30 31 2 31 32
M  V30 32 1 31 33
M  V30 33 1 32 34
M  V30 34 2 33 35
M  V30 35 2 34 36
M  V30 36 1 36 37
M  V30 37 1 37 38
M  V30 38 2 38 39
M  V30 39 1 39 40
M  V30 40 1 39 41
M  V30 41 2 40 42
M  V30 42 1 40 43
M  V30 43 2 41 44
M  V30 44 1 41 45
M  V30 45 2 43 46
M  V30 46 1 44 47
M  V30 47 2 45 48
M  V30 48 2 47 49
M  V30 49 2 10 11
M  V30 50 2 13 15
M  V30 51 1 27 29
M  V30 52 1 35 36
M  V30 53 1 44 46
M  V30 54 1 48 49
M  V30 55 1 7 50
M  V30 56 1 9 51
M  V30 57 1 11 52
M  V30 58 1 12 53
M  V30 59 1 15 54
M  V30 60 1 16 55
M  V30 61 1 24 56
M  V30 62 1 25 57
M  V30 63 1 27 58
M  V30 64 1 29 59
M  V30 65 1 32 60
M  V30 66 1 33 61
M  V30 67 1 34 62
M  V30 68 1 35 63
M  V30 69 1 37 64
M  V30 70 1 43 65
M  V30 71 1 45 66
M  V30 72 1 46 67
M  V30 73 1 47 68
M  V30 74 1 48 69
M  V30 75 1 49 70
M  V30 END BOND
M  V30 END CTAB
M  END
>  <Structure No>
2771

>  <LogS>
-1.209646244

>  <MMFF94 Energy>
189.99

$$$$
Compound 2772
Actelion Java MolfileCreator 2.0

  0  0  0  0  0  0              0 V3000
M  V30 BEGIN CTAB
M  V30 COUNTS 35 34 0 0 0
M  V30 BEGIN ATOM
M  V30 1 N -3.2168 -0.6121 -0.8417 0 CHG=1
M  V30 2 C -2.3776 0.5794 -0.6681 0
M  V30 3 C -1.2831 0.4497 0.4459 0
M  V30 4 C -0.3494 -0.8079 0.2861 0
M  V30 5 C -0.4714 1.7614 0.4705 0
M  V30 6 C -1.9852 0.3349 1.8241 0
M  V30 7 C 0.7796 -0.8677 -0.7958 0 CFG=2
M  V30 8 C 2.0791 -0.082 -0.4761 0
M  V30 9 C 0.3019 -0.5547 -2.2181 0
M  V30 10 C 2.7237 -0.4658 0.8676 0
M  V30 11 N 4.0736 0.0874 0.9762 0 CHG=1
M  V30 12 H -3.9868 -0.3809 -1.5104 0
M  V30 13 H -3.6546 -0.9054 0.0588 0
M  V30 14 H -2.6706 -1.3994 -1.2541 0
M  V30 15 H -3.04 1.4398 -0.4197 0
M  V30 16 H -1.9246 0.8431 -1.6433 0
M  V30 17 H 0.1262 -1.0152 1.2663 0
M  V30 18 H -0.9891 -1.7026 0.142 0
M  V30 19 H -0.0781 2.0103 -0.535 0
M  V30 20 H -1.1158 2.6142 0.7774 0
M  V30 21 H 0.368 1.6954 1.1948 0
M  V30 22 H -1.2479 0.4377 2.6502 0
M  V30 23 H -2.4769 -0.6523 1.9494 0
M  V30 24 H -2.7517 1.1296 1.9534 0
M  V30 25 H 1.0873 -1.938 -0.826 0
M  V30 26 H 2.814 -0.3069 -1.2807 0
M  V30 27 H 1.9177 1.0113 -0.5099 0
M  V30 28 H 0.1734 0.5358 -2.367 0
M  V30 29 H -0.6432 -1.089 -2.4429 0
M  V30 30 H 1.0605 -0.9013 -2.9523 0
M  V30 31 H 2.7744 -1.5736 0.9589 0
M  V30 32 H 2.1113 -0.0708 1.7063 0
M  V30 33 H 4.4711 -0.1612 1.9109 0
M  V30 34 H 4.043 1.1292 0.8878 0
M  V30 35 H 4.6885 -0.3137 0.2313 0
M  V30 END ATOM
M  V30 BEGIN BOND
M  V30 1 1 1 2
M  V30 2 1 2 3
M  V30 3 1 3 4
M  V30 4 1 3 5
M  V30 5 1 3 6
M  V30 6 1 4 7
M  V30 7 1 7 8
M  V30 8 1 7 9
M  V30 9 1 8 10
M  V30 10 1 10 11
M  V30 11 1 1 12
M  V30 12 1 1 13
M  V30 13 1 1 14
M  V30 14 1 2 15
M  V30 15 1 2 16
M  V30 16 1 4 17
M  V30 17 1 4 18
M  V30 18 1 5 19
M  V30 19 1 5 20
M  V30 20 1 5 21
M  V30 21 1 6 22
M  V30 22 1 6 23
M  V30 23 1 6 24
M  V30 24 1 7 25
M  V30 25 1 8 26
M  V30 26 1 8 27
M  V30 27 1 9 28
M  V30 28 1 9 29
M  V30 29 1 9 30
M  V30 30 1 10 31
M  V30 31 1 10 32
M  V30 32 1 11 33
M  V30 33 1 11 34
M  V30 34 1 11 35
M  V30 END BOND
M  V30 BEGIN COLLECTION
M  V30 MDLV30/STEABS ATOMS=(1 7)
M  V30 END COLLECTION
M  V30 END CTAB
M  END
>  <Structure No>
2772

>  <LogS>
0.478156217

>  <MMFF94 Energy>
73.027

$$$$
Compound 2773
Actelion Java MolfileCreator 2.0

  0  0  0  0  0  0              0 V3000
M  V30 BEGIN CTAB
M  V30 COUNTS 30 29 0 0 0
M  V30 BEGIN ATOM
M  V30 1 S 4.8489 -0.9683 0.242 0
M  V30 2 O 5.6328 -1.9178 -0.6182 0
M  V30 3 O 5.7085 0.2222 0.5639 0
M  V30 4 O 3.4665 -0.4787 -0.6049 0
M  V30 5 O 4.4167 -1.7553 1.6632 0 CHG=-1
M  V30 6 C 2.7021 0.3517 0.2364 0
M  V30 7 C 1.4422 0.8115 -0.4991 0
M  V30 8 C 0.4944 -0.3628 -0.7911 0
M  V30 9 C -0.7151 0.0455 -1.6508 0
M  V30 10 C -1.6377 1.1083 -1.0198 0
M  V30 11 C -2.2017 0.744 0.3651 0
M  V30 12 C -3.0681 -0.5232 0.3411 0
M  V30 13 C -3.7323 -0.7603 1.6943 0
M  V30 14 H 2.3997 -0.1866 1.1628 0
M  V30 15 H 3.284 1.2587 0.5157 0
M  V30 16 H 1.7352 1.3084 -1.4497 0
M  V30 17 H 0.9242 1.558 0.1397 0
M  V30 18 H 1.0507 -1.1469 -1.3493 0
M  V30 19 H 0.1535 -0.8246 0.1593 0
M  V30 20 H -1.3087 -0.8628 -1.8871 0
M  V30 21 H -0.345 0.4378 -2.6229 0
M  V30 22 H -1.0904 2.0715 -0.9412 0
M  V30 23 H -2.4873 1.2887 -1.714 0
M  V30 24 H -1.3766 0.6294 1.0995 0
M  V30 25 H -2.8252 1.5981 0.7095 0
M  V30 26 H -3.858 -0.4253 -0.4349 0
M  V30 27 H -2.4414 -1.4077 0.1004 0
M  V30 28 H -2.9621 -0.8773 2.4864 0
M  V30 29 H -4.3984 0.0903 1.9526 0
M  V30 30 H -4.342 -1.6874 1.652 0
M  V30 END ATOM
M  V30 BEGIN BOND
M  V30 1 2 1 2
M  V30 2 2 1 3
M  V30 3 1 1 4
M  V30 4 1 1 5
M  V30 5 1 4 6
M  V30 6 1 6 7
M  V30 7 1 7 8
M  V30 8 1 8 9
M  V30 9 1 9 10
M  V30 10 1 10 11
M  V30 11 1 11 12
M  V30 12 1 12 13
M  V30 13 1 6 14
M  V30 14 1 6 15
M  V30 15 1 7 16
M  V30 16 1 7 17
M  V30 17 1 8 18
M  V30 18 1 8 19
M  V30 19 1 9 20
M  V30 20 1 9 21
M  V30 21 1 10 22
M  V30 22 1 10 23
M  V30 23 1 11 24
M  V30 24 1 11 25
M  V30 25 1 12 26
M  V30 26 1 12 27
M  V30 27 1 13 28
M  V30 28 1 13 29
M  V30 29 1 13 30
M  V30 END BOND
M  V30 END CTAB
M  END
>  <Structure No>
2773

>  <LogS>
0.287206306

>  <MMFF94 Energy>
-47.575

$$$$
Compound 2774
Actelion Java MolfileCreator 2.0

  0  0  0  0  0  0              0 V3000
M  V30 BEGIN CTAB
M  V30 COUNTS 67 69 0 0 0
M  V30 BEGIN ATOM
M  V30 1 N -1.42 5.0559 1.7357 0 CHG=1
M  V30 2 C -0.9659 3.8279 1.8313 0
M  V30 3 C -0.7201 6.2205 1.1808 0
M  V30 4 C 0.4616 3.4199 1.6106 0
M  V30 5 C -1.9444 2.741 2.0638 0
M  V30 6 C -0.4806 6.0564 -0.3211 0
M  V30 7 C 0.722 2.1626 1.2084 0
M  V30 8 C 1.6229 4.3052 1.9799 0
M  V30 9 C -1.6725 1.4884 1.6952 0
M  V30 10 C -0.358 1.1454 1.0894 0
M  V30 11 C -0.1398 -0.0569 0.4946 0
M  V30 12 C -1.1695 -1.1191 0.5009 0
M  V30 13 C 1.1172 -0.359 -0.2325 0
M  V30 14 C -1.8671 -1.4255 -0.6728 0
M  V30 15 C -1.4373 -1.8345 1.6722 0
M  V30 16 C 1.5283 0.4397 -1.309 0
M  V30 17 C 1.8851 -1.4703 0.1295 0
M  V30 18 C -2.8503 -2.4306 -0.6831 0
M  V30 19 C -2.4097 -2.8345 1.6788 0
M  V30 20 C 2.723 0.1645 -1.9952 0
M  V30 21 C 3.0704 -1.7596 -0.5469 0
M  V30 22 C -3.1388 -3.1429 0.5109 0
M  V30 23 C -3.5755 -2.7232 -1.9695 0
M  V30 24 C 3.5129 -0.9454 -1.607 0
M  V30 25 C 3.1422 1.067 -3.1248 0
M  V30 26 N -4.1627 -4.1633 0.5337 0
M  V30 27 N 4.7479 -1.2423 -2.2939 0
M  V30 28 C -4.3684 -5.0654 1.6708 0
M  V30 29 C 5.8762 -1.9534 -1.6886 0
M  V30 30 C -5.4425 -6.1044 1.3626 0
M  V30 31 C 6.4413 -1.1707 -0.5068 0
M  V30 32 H -2.429 5.2248 1.9588 0
M  V30 33 H 0.2139 6.4442 1.726 0
M  V30 34 H -1.3619 7.1199 1.3185 0
M  V30 35 H -2.9286 2.9728 2.4538 0
M  V30 36 H 0.1556 5.173 -0.5294 0
M  V30 37 H 0.031 6.9599 -0.7155 0
M  V30 38 H -1.4515 5.9352 -0.8478 0
M  V30 39 H 1.751 1.8601 1.0549 0
M  V30 40 H 2.5151 3.704 2.2596 0
M  V30 41 H 1.3674 4.9166 2.8692 0
M  V30 42 H 1.9042 4.9518 1.1229 0
M  V30 43 H -2.4474 0.7426 1.8141 0
M  V30 44 H -1.6454 -0.8714 -1.5777 0
M  V30 45 H -0.8949 -1.611 2.5831 0
M  V30 46 H 0.9153 1.2828 -1.6062 0
M  V30 47 H 1.5718 -2.1077 0.9466 0
M  V30 48 H -2.5932 -3.3562 2.6071 0
M  V30 49 H 3.6344 -2.6278 -0.2392 0
M  V30 50 H -3.1714 -2.1271 -2.8153 0
M  V30 51 H -4.6517 -2.4749 -1.8574 0
M  V30 52 H -3.4658 -3.7965 -2.2306 0
M  V30 53 H 4.1741 1.4392 -2.9493 0
M  V30 54 H 3.1067 0.5083 -4.0846 0
M  V30 55 H 2.4726 1.9504 -3.2146 0
M  V30 56 H -4.7786 -4.2879 -0.3009 0
M  V30 57 H 4.8888 -0.8904 -3.2682 0
M  V30 58 H -3.4177 -5.5919 1.9021 0
M  V30 59 H -4.6856 -4.478 2.5598 0
M  V30 60 H 6.681 -2.0712 -2.4466 0
M  V30 61 H 5.5703 -2.9719 -1.3734 0
M  V30 62 H -5.1523 -6.7031 0.4715 0
M  V30 63 H -6.4141 -5.6014 1.1665 0
M  V30 64 H -5.5625 -6.7878 2.2304 0
M  V30 65 H 6.6872 -0.1347 -0.8168 0
M  V30 66 H 5.7051 -1.1307 0.3219 0
M  V30 67 H 7.3638 -1.6643 -0.1349 0
M  V30 END ATOM
M  V30 BEGIN BOND
M  V30 1 2 1 2
M  V30 2 1 1 3
M  V30 3 1 2 4
M  V30 4 1 2 5
M  V30 5 1 3 6
M  V30 6 2 4 7
M  V30 7 1 4 8
M  V30 8 2 5 9
M  V30 9 1 7 10
M  V30 10 2 10 11
M  V30 11 1 11 12
M  V30 12 1 11 13
M  V30 13 2 12 14
M  V30 14 1 12 15
M  V30 15 2 13 16
M  V30 16 1 13 17
M  V30 17 1 14 18
M  V30 18 2 15 19
M  V30 19 1 16 20
M  V30 20 2 17 21
M  V30 21 2 18 22
M  V30 22 1 18 23
M  V30 23 2 20 24
M  V30 24 1 20 25
M  V30 25 1 22 26
M  V30 26 1 24 27
M  V30 27 1 26 28
M  V30 28 1 27 29
M  V30 29 1 28 30
M  V30 30 1 29 31
M  V30 31 1 9 10
M  V30 32 1 19 22
M  V30 33 1 21 24
M  V30 34 1 1 32
M  V30 35 1 3 33
M  V30 36 1 3 34
M  V30 37 1 5 35
M  V30 38 1 6 36
M  V30 39 1 6 37
M  V30 40 1 6 38
M  V30 41 1 7 39
M  V30 42 1 8 40
M  V30 43 1 8 41
M  V30 44 1 8 42
M  V30 45 1 9 43
M  V30 46 1 14 44
M  V30 47 1 15 45
M  V30 48 1 16 46
M  V30 49 1 17 47
M  V30 50 1 19 48
M  V30 51 1 21 49
M  V30 52 1 23 50
M  V30 53 1 23 51
M  V30 54 1 23 52
M  V30 55 1 25 53
M  V30 56 1 25 54
M  V30 57 1 25 55
M  V30 58 1 26 56
M  V30 59 1 27 57
M  V30 60 1 28 58
M  V30 61 1 28 59
M  V30 62 1 29 60
M  V30 63 1 29 61
M  V30 64 1 30 62
M  V30 65 1 30 63
M  V30 66 1 30 64
M  V30 67 1 31 65
M  V30 68 1 31 66
M  V30 69 1 31 67
M  V30 END BOND
M  V30 END CTAB
M  END
>  <Structure No>
2774

>  <LogS>
-1.023221287

>  <MMFF94 Energy>
84.635

$$$$
Compound 2775
Actelion Java MolfileCreator 2.0

  0  0  0  0  0  0              0 V3000
M  V30 BEGIN CTAB
M  V30 COUNTS 60 59 0 0 0
M  V30 BEGIN ATOM
M  V30 1 O -2.955 1.3211 2.7215 0
M  V30 2 C -2.4567 0.203 2.4194 0
M  V30 3 N -3.2751 -0.8252 1.8454 0
M  V30 4 C -0.9898 -0.0284 2.6231 0
M  V30 5 C -4.7052 -0.6497 1.6035 0
M  V30 6 C -0.2123 0.3169 1.3504 0
M  V30 7 C -4.9358 0.2202 0.3617 0
M  V30 8 C 1.2845 0.0353 1.5295 0
M  V30 9 C -6.4475 0.434 0.116 0
M  V30 10 C 2.0768 0.4456 0.2792 0
M  V30 11 N -6.7876 1.2051 -1.1197 0 CHG=1
M  V30 12 C 3.5802 0.1534 0.4191 0
M  V30 13 C -6.1738 2.5554 -1.1022 0
M  V30 14 C -6.3581 0.4806 -2.3414 0
M  V30 15 C -8.2623 1.3644 -1.1674 0
M  V30 16 C 3.9174 -1.3189 0.1291 0
M  V30 17 C 5.3799 -1.6676 0.4501 0
M  V30 18 C 6.3788 -0.9683 -0.4847 0
M  V30 19 C 7.8051 -1.4857 -0.2476 0
M  V30 20 C 8.8613 -0.6929 -1.0328 0
M  V30 21 C 8.7769 -0.927 -2.5393 0
M  V30 22 H -2.8433 -1.7486 1.6281 0
M  V30 23 H -0.6299 0.601 3.4667 0
M  V30 24 H -0.82 -1.0938 2.8946 0
M  V30 25 H -5.1676 -1.6476 1.4379 0
M  V30 26 H -5.184 -0.1949 2.4986 0
M  V30 27 H -0.3638 1.3919 1.1092 0
M  V30 28 H -0.5999 -0.293 0.5052 0
M  V30 29 H -4.4353 1.198 0.5174 0
M  V30 30 H -4.4644 -0.2903 -0.503 0
M  V30 31 H 1.664 0.6087 2.4039 0
M  V30 32 H 1.4242 -1.0478 1.733 0
M  V30 33 H -6.8627 0.9544 1.0106 0
M  V30 34 H -6.9374 -0.5663 0.0796 0
M  V30 35 H 1.6717 -0.0665 -0.6217 0
M  V30 36 H 1.948 1.54 0.1273 0
M  V30 37 H 4.1198 0.7926 -0.3108 0
M  V30 38 H 3.9282 0.4362 1.4364 0
M  V30 39 H -6.405 3.0879 -0.1532 0
M  V30 40 H -6.5502 3.1765 -1.9458 0
M  V30 41 H -5.0694 2.5037 -1.2156 0
M  V30 42 H -6.7542 0.9715 -3.2594 0
M  V30 43 H -5.2528 0.4697 -2.4445 0
M  V30 44 H -6.7209 -0.5718 -2.3325 0
M  V30 45 H -8.771 0.3742 -1.1849 0
M  V30 46 H -8.6346 1.9249 -0.2801 0
M  V30 47 H -8.5815 1.9247 -2.0757 0
M  V30 48 H 3.2734 -1.9778 0.7474 0
M  V30 49 H 3.7024 -1.5488 -0.9369 0
M  V30 50 H 5.6034 -1.4035 1.5084 0
M  V30 51 H 5.5 -2.7694 0.3455 0
M  V30 52 H 6.085 -1.1592 -1.5389 0
M  V30 53 H 6.3569 0.1266 -0.2981 0
M  V30 54 H 8.0445 -1.3973 0.8339 0
M  V30 55 H 7.8664 -2.5618 -0.5179 0
M  V30 56 H 9.8674 -1.0118 -0.6874 0
M  V30 57 H 8.7624 0.3922 -0.8187 0
M  V30 58 H 8.8128 -2.0129 -2.7676 0
M  V30 59 H 7.843 -0.4932 -2.9524 0
M  V30 60 H 9.6371 -0.4329 -3.0378 0
M  V30 END ATOM
M  V30 BEGIN BOND
M  V30 1 2 1 2
M  V30 2 1 2 3
M  V30 3 1 2 4
M  V30 4 1 3 5
M  V30 5 1 4 6
M  V30 6 1 5 7
M  V30 7 1 6 8
M  V30 8 1 7 9
M  V30 9 1 8 10
M  V30 10 1 9 11
M  V30 11 1 10 12
M  V30 12 1 11 13
M  V30 13 1 11 14
M  V30 14 1 11 15
M  V30 15 1 12 16
M  V30 16 1 16 17
M  V30 17 1 17 18
M  V30 18 1 18 19
M  V30 19 1 19 20
M  V30 20 1 20 21
M  V30 21 1 3 22
M  V30 22 1 4 23
M  V30 23 1 4 24
M  V30 24 1 5 25
M  V30 25 1 5 26
M  V30 26 1 6 27
M  V30 27 1 6 28
M  V30 28 1 7 29
M  V30 29 1 7 30
M  V30 30 1 8 31
M  V30 31 1 8 32
M  V30 32 1 9 33
M  V30 33 1 9 34
M  V30 34 1 10 35
M  V30 35 1 10 36
M  V30 36 1 12 37
M  V30 37 1 12 38
M  V30 38 1 13 39
M  V30 39 1 13 40
M  V30 40 1 13 41
M  V30 41 1 14 42
M  V30 42 1 14 43
M  V30 43 1 14 44
M  V30 44 1 15 45
M  V30 45 1 15 46
M  V30 46 1 15 47
M  V30 47 1 16 48
M  V30 48 1 16 49
M  V30 49 1 17 50
M  V30 50 1 17 51
M  V30 51 1 18 52
M  V30 52 1 18 53
M  V30 53 1 19 54
M  V30 54 1 19 55
M  V30 55 1 20 56
M  V30 56 1 20 57
M  V30 57 1 21 58
M  V30 58 1 21 59
M  V30 59 1 21 60
M  V30 END BOND
M  V30 END CTAB
M  END
>  <Structure No>
2775

>  <LogS>
-0.011381165

>  <MMFF94 Energy>
-14.687

$$$$
Compound 2776
Actelion Java MolfileCreator 2.0

  0  0  0  0  0  0              0 V3000
M  V30 BEGIN CTAB
M  V30 COUNTS 42 41 0 0 0
M  V30 BEGIN ATOM
M  V30 1 S -4.0082 -2.9649 0.8807 0
M  V30 2 O -4.5971 -2.8384 -0.4966 0
M  V30 3 O -3.2925 -4.2812 1.0075 0
M  V30 4 O -2.9455 -1.6797 1.1821 0
M  V30 5 O -5.2505 -2.9124 2.0096 0 CHG=-1
M  V30 6 C -1.8504 -1.7823 0.302 0
M  V30 7 C -0.9555 -0.5266 0.4271 0 CFG=1
M  V30 8 C 0.4611 -0.8467 -0.1175 0
M  V30 9 C -1.5708 0.6934 -0.3117 0
M  V30 10 C 1.5009 0.2393 0.2093 0
M  V30 11 C -2.9563 1.1028 0.222 0
M  V30 12 C 2.9189 -0.2328 -0.1375 0
M  V30 13 C -3.3939 2.4912 -0.2705 0
M  V30 14 C 3.9544 0.8581 0.1743 0
M  V30 15 C -3.6645 2.5247 -1.7743 0
M  V30 16 C 5.3731 0.4695 -0.2692 0
M  V30 17 C 5.9806 -0.6361 0.5935 0
M  V30 18 H -1.2629 -2.6872 0.5747 0
M  V30 19 H -2.1828 -1.884 -0.7564 0
M  V30 20 H -0.8573 -0.28 1.5084 0
M  V30 21 H 0.4162 -0.9996 -1.2186 0
M  V30 22 H 0.8138 -1.7983 0.3383 0
M  V30 23 H -1.6444 0.467 -1.3975 0
M  V30 24 H -0.8968 1.5659 -0.191 0
M  V30 25 H 1.2841 1.1566 -0.3771 0
M  V30 26 H 1.4538 0.4869 1.2926 0
M  V30 27 H -3.7198 0.3567 -0.0866 0
M  V30 28 H -2.9259 1.128 1.3332 0
M  V30 29 H 3.1498 -1.1444 0.4539 0
M  V30 30 H 2.9651 -0.4891 -1.2189 0
M  V30 31 H -2.6228 3.2498 -0.0138 0
M  V30 32 H -4.3298 2.773 0.2593 0
M  V30 33 H 3.9492 1.0853 1.2632 0
M  V30 34 H 3.6702 1.7883 -0.3649 0
M  V30 35 H -4.08 3.5161 -2.0525 0
M  V30 36 H -4.4009 1.7415 -2.0541 0
M  V30 37 H -2.7253 2.3705 -2.3448 0
M  V30 38 H 6.0231 1.368 -0.1911 0
M  V30 39 H 5.3677 0.151 -1.3342 0
M  V30 40 H 7.0417 -0.7884 0.3039 0
M  V30 41 H 5.945 -0.3553 1.6678 0
M  V30 42 H 5.4415 -1.594 0.4428 0
M  V30 END ATOM
M  V30 BEGIN BOND
M  V30 1 2 1 2
M  V30 2 2 1 3
M  V30 3 1 1 4
M  V30 4 1 1 5
M  V30 5 1 4 6
M  V30 6 1 6 7
M  V30 7 1 7 8
M  V30 8 1 7 9
M  V30 9 1 8 10
M  V30 10 1 9 11
M  V30 11 1 10 12
M  V30 12 1 11 13
M  V30 13 1 12 14
M  V30 14 1 13 15
M  V30 15 1 14 16
M  V30 16 1 16 17
M  V30 17 1 6 18
M  V30 18 1 6 19
M  V30 19 1 7 20
M  V30 20 1 8 21
M  V30 21 1 8 22
M  V30 22 1 9 23
M  V30 23 1 9 24
M  V30 24 1 10 25
M  V30 25 1 10 26
M  V30 26 1 11 27
M  V30 27 1 11 28
M  V30 28 1 12 29
M  V30 29 1 12 30
M  V30 30 1 13 31
M  V30 31 1 13 32
M  V30 32 1 14 33
M  V30 33 1 14 34
M  V30 34 1 15 35
M  V30 35 1 15 36
M  V30 36 1 15 37
M  V30 37 1 16 38
M  V30 38 1 16 39
M  V30 39 1 17 40
M  V30 40 1 17 41
M  V30 41 1 17 42
M  V30 END BOND
M  V30 BEGIN COLLECTION
M  V30 MDLV30/STEABS ATOMS=(1 7)
M  V30 END COLLECTION
M  V30 END CTAB
M  END
>  <Structure No>
2776

>  <LogS>
0.142087324

>  <MMFF94 Energy>
-40.263

$$$$
Compound 2777
Actelion Java MolfileCreator 2.0

  0  0  0  0  0  0              0 V3000
M  V30 BEGIN CTAB
M  V30 COUNTS 96 101 0 0 0
M  V30 BEGIN ATOM
M  V30 1 Cl 2.3182 0.2573 4.8986 0
M  V30 2 C 1.6528 -0.2012 3.3774 0
M  V30 3 N 2.2532 -1.1495 2.6376 0
M  V30 4 N 0.5494 0.3994 2.9152 0
M  V30 5 C 1.7067 -1.5173 1.4299 0
M  V30 6 C 0.0094 0.0468 1.7256 0
M  V30 7 N 0.5813 -0.9151 0.943 0
M  V30 8 N 2.3635 -2.4716 0.6442 0
M  V30 9 N -1.1228 0.7705 1.2833 0
M  V30 10 C 3.4093 -3.2604 1.2476 0
M  V30 11 C -1.9604 0.3908 0.1744 0
M  V30 12 C 4.5493 -3.5553 0.5207 0
M  V30 13 C 3.2178 -3.8547 2.4705 0
M  V30 14 C -2.7151 1.3962 -0.435 0
M  V30 15 C -2.205 -0.9708 -0.1492 0
M  V30 16 N 5.2375 -2.7744 -0.5082 0
M  V30 17 C 5.5575 -4.3535 1.0811 0
M  V30 18 C 4.2085 -4.7044 3.0118 0
M  V30 19 C -3.7979 1.0753 -1.2616 0
M  V30 20 C -3.2619 -1.2789 -1.0123 0
M  V30 21 N 5.0642 -1.9423 -1.5153 0
M  V30 22 C 5.3819 -4.9774 2.2912 0
M  V30 23 N 3.9241 -5.3654 4.2277 0
M  V30 24 N -4.6811 2.0753 -1.8019 0
M  V30 25 C -4.0507 -0.299 -1.5867 0
M  V30 26 C 6.3578 -1.3106 -1.5532 0
M  V30 27 S 6.6135 -6.0143 2.9688 0
M  V30 28 C -4.6793 3.4776 -1.4886 0
M  V30 29 N -5.2556 -0.6195 -2.278 0
M  V30 30 C 7.4095 -1.5446 -0.5383 0
M  V30 31 C 6.5878 -0.2562 -2.4158 0
M  V30 32 O 7.8372 -5.9969 2.1142 0
M  V30 33 O 6.0654 -7.4197 3.0532 0
M  V30 34 O 7.0171 -5.4671 4.5 0 CHG=-1
M  V30 35 O -3.9907 3.9701 -0.5297 0
M  V30 36 N -5.4691 4.3504 -2.2768 0
M  V30 37 N -6.1392 -0.2683 -1.4146 0
M  V30 38 C 8.5711 -0.7482 -0.5072 0
M  V30 39 C 7.7456 0.5202 -2.3767 0
M  V30 40 C -7.5031 -0.0261 -1.0178 0
M  V30 41 C 8.7487 0.2729 -1.4287 0
M  V30 42 C -7.6841 -0.1057 0.3543 0
M  V30 43 C -8.4701 0.5391 -1.8333 0
M  V30 44 S 10.1599 1.2927 -1.3045 0
M  V30 45 S -6.4425 -0.8704 1.4412 0
M  V30 46 C -8.8513 0.2638 0.9402 0
M  V30 47 C -9.6437 0.9272 -1.2362 0
M  V30 48 O 11.2945 0.4504 -0.766 0
M  V30 49 O 10.5319 1.7968 -2.6812 0
M  V30 50 C 9.7971 2.6203 -0.2108 0
M  V30 51 O -5.094 -0.1851 1.3488 0
M  V30 52 O -6.3092 -2.3241 1.0634 0
M  V30 53 O -6.9888 -0.7616 2.9841 0 CHG=-1
M  V30 54 C -9.8553 0.8001 0.1545 0
M  V30 55 C -10.6537 1.4705 -2.0157 0
M  V30 56 C 10.9903 3.5627 0.0478 0
M  V30 57 C -11.0451 1.1717 0.7394 0
M  V30 58 S -10.4195 1.6262 -3.7673 0
M  V30 59 C -11.8706 1.8723 -1.4276 0
M  V30 60 O 12.0855 2.8029 0.5315 0
M  V30 61 C -12.0603 1.7 -0.0505 0
M  V30 62 O -9.2518 2.5336 -4.0315 0
M  V30 63 O -11.6567 2.2015 -4.3727 0
M  V30 64 O -10.1052 0.1054 -4.4211 0 CHG=-1
M  V30 65 S 13.4129 3.8342 0.6123 0
M  V30 66 S -13.5165 2.2361 0.7255 0
M  V30 67 O 13.1811 4.8994 1.6673 0
M  V30 68 O 14.6238 3.0329 0.9929 0
M  V30 69 O 13.6566 4.5446 -0.8762 0 CHG=-1
M  V30 70 O -13.8246 1.3145 1.8675 0
M  V30 71 O -14.6745 2.2122 -0.2214 0
M  V30 72 O -13.3315 3.7933 1.3078 0 CHG=-1
M  V30 73 H 2.042 -2.7066 -0.3405 0
M  V30 74 H -1.4168 1.5904 1.8439 0
M  V30 75 H 2.3323 -3.651 3.0087 0
M  V30 76 H -2.3975 2.3878 -0.2425 0
M  V30 77 H -1.6007 -1.7663 0.2922 0
M  V30 78 H 6.4794 -4.5261 0.5147 0
M  V30 79 H -3.4893 -2.2901 -1.2765 0
M  V30 80 H 4.4297 -5.1018 5.1042 0
M  V30 81 H 3.1092 -5.9859 4.2455 0
M  V30 82 H -5.4025 1.7716 -2.4928 0
M  V30 83 H 7.3144 -2.3312 0.1741 0
M  V30 84 H 5.8117 -0.0666 -3.1454 0
M  V30 85 H -5.5878 4.1955 -3.3177 0
M  V30 86 H -5.9051 5.1688 -1.8014 0
M  V30 87 H 9.3243 -0.9493 0.2187 0
M  V30 88 H 7.8493 1.315 -3.0728 0
M  V30 89 H -8.2891 0.652 -2.8359 0
M  V30 90 H -9.0043 0.1491 1.9873 0
M  V30 91 H 9.5292 2.1848 0.794 0
M  V30 92 H 8.9615 3.1809 -0.6328 0
M  V30 93 H 10.6989 4.2985 0.7728 0
M  V30 94 H 11.2348 4.1292 -0.9041 0
M  V30 95 H -11.1476 1.0349 1.7749 0
M  V30 96 H -12.6389 2.2929 -2.0443 0
M  V30 END ATOM
M  V30 BEGIN BOND
M  V30 1 1 1 2
M  V30 2 2 2 3
M  V30 3 1 2 4
M  V30 4 1 3 5
M  V30 5 2 4 6
M  V30 6 2 5 7
M  V30 7 1 5 8
M  V30 8 1 6 9
M  V30 9 1 8 10
M  V30 10 1 9 11
M  V30 11 2 10 12
M  V30 12 1 10 13
M  V30 13 2 11 14
M  V30 14 1 11 15
M  V30 15 1 12 16
M  V30 16 1 12 17
M  V30 17 2 13 18
M  V30 18 1 14 19
M  V30 19 2 15 20
M  V30 20 2 16 21
M  V30 21 2 17 22
M  V30 22 1 18 23
M  V30 23 1 19 24
M  V30 24 2 19 25
M  V30 25 1 21 26
M  V30 26 1 22 27
M  V30 27 1 24 28
M  V30 28 1 25 29
M  V30 29 2 26 30
M  V30 30 1 26 31
M  V30 31 2 27 32
M  V30 32 2 27 33
M  V30 33 1 27 34
M  V30 34 2 28 35
M  V30 35 1 28 36
M  V30 36 2 29 37
M  V30 37 1 30 38
M  V30 38 2 31 39
M  V30 39 1 37 40
M  V30 40 2 38 41
M  V30 41 1 40 42
M  V30 42 2 40 43
M  V30 43 1 41 44
M  V30 44 1 42 45
M  V30 45 2 42 46
M  V30 46 1 43 47
M  V30 47 2 44 48
M  V30 48 2 44 49
M  V30 49 1 44 50
M  V30 50 2 45 51
M  V30 51 2 45 52
M  V30 52 1 45 53
M  V30 53 1 46 54
M  V30 54 2 47 55
M  V30 55 1 50 56
M  V30 56 2 54 57
M  V30 57 1 55 58
M  V30 58 1 55 59
M  V30 59 1 56 60
M  V30 60 1 57 61
M  V30 61 2 58 62
M  V30 62 2 58 63
M  V30 63 1 58 64
M  V30 64 1 60 65
M  V30 65 1 61 66
M  V30 66 2 65 67
M  V30 67 2 65 68
M  V30 68 1 65 69
M  V30 69 2 66 70
M  V30 70 2 66 71
M  V30 71 1 66 72
M  V30 72 1 6 7
M  V30 73 1 18 22
M  V30 74 1 20 25
M  V30 75 1 39 41
M  V30 76 1 47 54
M  V30 77 2 59 61
M  V30 78 1 8 73
M  V30 79 1 9 74
M  V30 80 1 13 75
M  V30 81 1 14 76
M  V30 82 1 15 77
M  V30 83 1 17 78
M  V30 84 1 20 79
M  V30 85 1 23 80
M  V30 86 1 23 81
M  V30 87 1 24 82
M  V30 88 1 30 83
M  V30 89 1 31 84
M  V30 90 1 36 85
M  V30 91 1 36 86
M  V30 92 1 38 87
M  V30 93 1 39 88
M  V30 94 1 43 89
M  V30 95 1 46 90
M  V30 96 1 50 91
M  V30 97 1 50 92
M  V30 98 1 56 93
M  V30 99 1 56 94
M  V30 100 1 57 95
M  V30 101 1 59 96
M  V30 END BOND
M  V30 END CTAB
M  END
>  <Structure No>
2777

>  <LogS>
-0.510557544

>  <MMFF94 Energy>
70.29

$$$$
Compound 2778
Actelion Java MolfileCreator 2.0

  0  0  0  0  0  0              0 V3000
M  V30 BEGIN CTAB
M  V30 COUNTS 108 115 0 0 0
M  V30 BEGIN ATOM
M  V30 1 S 5.6763 5.3316 0.6868 0
M  V30 2 O 6.2677 5.4864 2.0593 0
M  V30 3 O 4.2374 5.7758 0.7147 0
M  V30 4 O 6.5137 6.3143 -0.3919 0 CHG=-1
M  V30 5 C 5.7984 3.6447 0.1646 0
M  V30 6 C 7.1308 3.0615 -0.1411 0
M  V30 7 C 4.6771 2.933 -0.0354 0
M  V30 8 N 8.1991 3.7535 0.1437 0
M  V30 9 C 7.1855 1.7076 -0.7522 0
M  V30 10 C 4.7053 1.5571 -0.5799 0
M  V30 11 N 9.5094 3.3607 -0.1702 0
M  V30 12 O 8.2754 1.2047 -1.1357 0
M  V30 13 C 5.9293 0.9503 -0.9192 0
M  V30 14 C 3.5023 0.8663 -0.7951 0
M  V30 15 C 10.296 2.5224 0.6949 0
M  V30 16 C 5.9349 -0.3495 -1.4483 0
M  V30 17 C 3.5088 -0.4362 -1.3265 0
M  V30 18 C 10.2792 2.6313 2.1071 0
M  V30 19 C 11.1207 1.5584 0.0992 0
M  V30 20 C 4.7353 -1.0312 -1.651 0
M  V30 21 N 2.2903 -1.1376 -1.6381 0
M  V30 22 S 9.3656 3.8783 2.9644 0
M  V30 23 C 11.0447 1.7349 2.8714 0
M  V30 24 C 11.8768 0.6761 0.8712 0
M  V30 25 C 1.0153 -0.9071 -1.02 0
M  V30 26 O 9.9505 4.0903 4.3322 0
M  V30 27 O 7.9358 3.4396 3.1071 0
M  V30 28 O 9.4506 5.3389 2.1383 0 CHG=-1
M  V30 29 C 11.8466 0.7515 2.2772 0
M  V30 30 O 0.9444 -0.3626 0.1141 0
M  V30 31 N -0.1779 -1.3059 -1.7102 0
M  V30 32 N 12.5671 -0.1262 3.175 0
M  V30 33 C -1.4829 -1.4135 -1.1128 0
M  V30 34 N 13.3975 -1.0697 2.9324 0
M  V30 35 C -2.6175 -1.2482 -1.9222 0
M  V30 36 C -1.6517 -1.7763 0.2352 0
M  V30 37 C 13.8519 -1.5114 1.6531 0
M  V30 38 C -3.9067 -1.4151 -1.3981 0
M  V30 39 C -2.934 -1.9463 0.7661 0
M  V30 40 C 14.9642 -0.9077 1.0542 0
M  V30 41 C 13.2399 -2.6105 1.0366 0
M  V30 42 C -4.0678 -1.7692 -0.044 0
M  V30 43 C -5.0817 -1.3368 -2.2968 0
M  V30 44 C 15.4284 -1.3656 -0.1831 0
M  V30 45 C 13.7033 -3.0672 -0.2014 0
M  V30 46 C -5.4322 -1.9529 0.4897 0
M  V30 47 C -6.3386 -1.5057 -1.8516 0
M  V30 48 C 14.7946 -2.4411 -0.8221 0
M  V30 49 O -5.6136 -2.324 1.6827 0
M  V30 50 C -6.5844 -1.6431 -0.3785 0
M  V30 51 S -7.5908 -1.846 -3.064 0
M  V30 52 S 15.3946 -3.033 -2.3698 0
M  V30 53 N -7.7424 -1.4565 0.1933 0
M  V30 54 O -8.617 -2.7869 -2.4978 0
M  V30 55 O -6.9681 -2.5043 -4.2638 0
M  V30 56 O -8.3326 -0.4218 -3.5575 0 CHG=-1
M  V30 57 O 16.0248 -1.9027 -3.1354 0
M  V30 58 O 14.2574 -3.5922 -3.1798 0
M  V30 59 O 16.538 -4.2345 -2.099 0 CHG=-1
M  V30 60 N -8.8658 -0.897 -0.4305 0
M  V30 61 C -10.2285 -1.2978 -0.1662 0
M  V30 62 C -10.6132 -2.3166 0.7597 0
M  V30 63 C -11.228 -0.6801 -0.9396 0
M  V30 64 S -9.4786 -3.1855 1.8137 0
M  V30 65 C -11.9735 -2.6723 0.8541 0
M  V30 66 C -12.5682 -1.0495 -0.8275 0
M  V30 67 O -10.2193 -4.1248 2.7258 0
M  V30 68 O -8.7149 -2.2101 2.6649 0
M  V30 69 O -8.4179 -4.0919 0.8789 0 CHG=-1
M  V30 70 C -12.951 -2.0405 0.0833 0
M  V30 71 N -14.307 -2.5174 0.1532 0
M  V30 72 N -15.3662 -1.8002 0.108 0
M  V30 73 C -15.4166 -0.3646 0.1512 0
M  V30 74 C -16.3075 0.3124 -0.6916 0
M  V30 75 C -14.6794 0.3618 1.1019 0
M  V30 76 C -16.4288 1.7036 -0.6194 0
M  V30 77 C -14.8034 1.7542 1.1742 0
M  V30 78 C -15.6747 2.4311 0.3108 0
M  V30 79 S -15.8555 4.179 0.4235 0
M  V30 80 O -16.1343 4.7501 -0.939 0
M  V30 81 O -14.5877 4.79 0.9549 0
M  V30 82 O -17.1317 4.5414 1.4561 0 CHG=-1
M  V30 83 H 3.7132 3.3786 0.1753 0
M  V30 84 H 9.8111 3.4716 -1.1643 0
M  V30 85 H 2.5677 1.3662 -0.5874 0
M  V30 86 H 6.8627 -0.8403 -1.7162 0
M  V30 87 H 11.1579 1.4726 -0.9808 0
M  V30 88 H 4.7605 -2.0296 -2.07 0
M  V30 89 H 2.3289 -1.8787 -2.3748 0
M  V30 90 H 11.021 1.7931 3.9518 0
M  V30 91 H 12.4512 -0.0451 0.3285 0
M  V30 92 H -0.097 -1.4764 -2.7389 0
M  V30 93 H -2.4921 -1.0035 -2.9702 0
M  V30 94 H -0.797 -1.9701 0.87 0
M  V30 95 H -3.0387 -2.2268 1.8043 0
M  V30 96 H 15.4589 -0.079 1.5438 0
M  V30 97 H 12.3959 -3.1002 1.508 0
M  V30 98 H -4.9005 -1.2398 -3.3616 0
M  V30 99 H 16.2851 -0.8877 -0.6371 0
M  V30 100 H 13.2193 -3.915 -0.6688 0
M  V30 101 H -8.7058 -0.1092 -1.0953 0
M  V30 102 H -10.9597 0.0785 -1.6647 0
M  V30 103 H -12.2868 -3.4585 1.5298 0
M  V30 104 H -13.2974 -0.5864 -1.4809 0
M  V30 105 H -16.906 -0.2401 -1.4059 0
M  V30 106 H -14.0266 -0.1503 1.7998 0
M  V30 107 H -17.1212 2.2103 -1.2782 0
M  V30 108 H -14.235 2.3008 1.9155 0
M  V30 END ATOM
M  V30 BEGIN BOND
M  V30 1 2 1 2
M  V30 2 2 1 3
M  V30 3 1 1 4
M  V30 4 1 1 5
M  V30 5 1 5 6
M  V30 6 2 5 7
M  V30 7 2 6 8
M  V30 8 1 6 9
M  V30 9 1 7 10
M  V30 10 1 8 11
M  V30 11 2 9 12
M  V30 12 1 9 13
M  V30 13 1 10 14
M  V30 14 1 11 15
M  V30 15 1 13 16
M  V30 16 2 14 17
M  V30 17 2 15 18
M  V30 18 1 15 19
M  V30 19 2 16 20
M  V30 20 1 17 21
M  V30 21 1 18 22
M  V30 22 1 18 23
M  V30 23 2 19 24
M  V30 24 1 21 25
M  V30 25 2 22 26
M  V30 26 2 22 27
M  V30 27 1 22 28
M  V30 28 2 23 29
M  V30 29 2 25 30
M  V30 30 1 25 31
M  V30 31 1 29 32
M  V30 32 1 31 33
M  V30 33 2 32 34
M  V30 34 2 33 35
M  V30 35 1 33 36
M  V30 36 1 34 37
M  V30 37 1 35 38
M  V30 38 2 36 39
M  V30 39 2 37 40
M  V30 40 1 37 41
M  V30 41 2 38 42
M  V30 42 1 38 43
M  V30 43 1 40 44
M  V30 44 2 41 45
M  V30 45 1 42 46
M  V30 46 2 43 47
M  V30 47 2 44 48
M  V30 48 2 46 49
M  V30 49 1 46 50
M  V30 50 1 47 51
M  V30 51 1 48 52
M  V30 52 2 50 53
M  V30 53 2 51 54
M  V30 54 2 51 55
M  V30 55 1 51 56
M  V30 56 2 52 57
M  V30 57 2 52 58
M  V30 58 1 52 59
M  V30 59 1 53 60
M  V30 60 1 60 61
M  V30 61 2 61 62
M  V30 62 1 61 63
M  V30 63 1 62 64
M  V30 64 1 62 65
M  V30 65 2 63 66
M  V30 66 2 64 67
M  V30 67 2 64 68
M  V30 68 1 64 69
M  V30 69 2 65 70
M  V30 70 1 70 71
M  V30 71 2 71 72
M  V30 72 1 72 73
M  V30 73 2 73 74
M  V30 74 1 73 75
M  V30 75 1 74 76
M  V30 76 2 75 77
M  V30 77 2 76 78
M  V30 78 1 78 79
M  V30 79 2 79 80
M  V30 80 2 79 81
M  V30 81 1 79 82
M  V30 82 2 10 13
M  V30 83 1 17 20
M  V30 84 1 24 29
M  V30 85 1 39 42
M  V30 86 1 45 48
M  V30 87 1 47 50
M  V30 88 1 66 70
M  V30 89 1 77 78
M  V30 90 1 7 83
M  V30 91 1 11 84
M  V30 92 1 14 85
M  V30 93 1 16 86
M  V30 94 1 19 87
M  V30 95 1 20 88
M  V30 96 1 21 89
M  V30 97 1 23 90
M  V30 98 1 24 91
M  V30 99 1 31 92
M  V30 100 1 35 93
M  V30 101 1 36 94
M  V30 102 1 39 95
M  V30 103 1 40 96
M  V30 104 1 41 97
M  V30 105 1 43 98
M  V30 106 1 44 99
M  V30 107 1 45 100
M  V30 108 1 60 101
M  V30 109 1 63 102
M  V30 110 1 65 103
M  V30 111 1 66 104
M  V30 112 1 74 105
M  V30 113 1 75 106
M  V30 114 1 76 107
M  V30 115 1 77 108
M  V30 END BOND
M  V30 END CTAB
M  END
>  <Structure No>
2778

>  <LogS>
-0.569498545

>  <MMFF94 Energy>
574.73

$$$$
Compound 2779
Actelion Java MolfileCreator 2.0

  0  0  0  0  0  0              0 V3000
M  V30 BEGIN CTAB
M  V30 COUNTS 42 41 0 0 0
M  V30 BEGIN ATOM
M  V30 1 S 6.8166 2.0012 -0.56 0
M  V30 2 O 6.3889 2.9284 -1.6631 0
M  V30 3 O 8.095 2.5113 0.0416 0
M  V30 4 O 5.6232 1.9548 0.6443 0
M  V30 5 O 7.0869 0.4653 -1.1881 0 CHG=-1
M  V30 6 C 4.493 1.2534 0.1718 0
M  V30 7 C 4.4665 -0.1552 0.7775 0
M  V30 8 C 3.3447 -1.0324 0.1997 0
M  V30 9 C 1.9472 -0.5734 0.6421 0
M  V30 10 C 0.8694 -1.5499 0.1558 0
M  V30 11 C -0.5281 -1.0878 0.5866 0
M  V30 12 C -1.6068 -2.0615 0.0884 0
M  V30 13 C -3.0089 -1.7122 0.6128 0
M  V30 14 C -3.5849 -0.4436 -0.0346 0
M  V30 15 C -5.0309 -0.2019 0.4243 0
M  V30 16 C -5.6825 0.9965 -0.2829 0
M  V30 17 C -5.1046 2.3372 0.1699 0
M  V30 18 H 3.5944 1.807 0.5144 0
M  V30 19 H 4.4239 1.2035 -0.9399 0
M  V30 20 H 5.4365 -0.6544 0.568 0
M  V30 21 H 4.3623 -0.0847 1.8825 0
M  V30 22 H 3.5094 -2.0741 0.5526 0
M  V30 23 H 3.4073 -1.0396 -0.9107 0
M  V30 24 H 1.912 -0.5112 1.7522 0
M  V30 25 H 1.7349 0.4332 0.2225 0
M  V30 26 H 1.0696 -2.559 0.5789 0
M  V30 27 H 0.9083 -1.6175 -0.9539 0
M  V30 28 H -0.7154 -0.0759 0.1681 0
M  V30 29 H -0.5681 -1.027 1.6966 0
M  V30 30 H -1.6145 -2.0817 -1.0235 0
M  V30 31 H -1.3555 -3.0858 0.4416 0
M  V30 32 H -2.9793 -1.5932 1.7184 0
M  V30 33 H -3.6811 -2.5686 0.3851 0
M  V30 34 H -2.962 0.4279 0.2523 0
M  V30 35 H -3.5625 -0.5513 -1.1413 0
M  V30 36 H -5.0584 -0.0497 1.5258 0
M  V30 37 H -5.6374 -1.1052 0.1939 0
M  V30 38 H -5.5739 0.8967 -1.3847 0
M  V30 39 H -6.7699 0.9913 -0.0513 0
M  V30 40 H -5.6945 3.1635 -0.2799 0
M  V30 41 H -4.0518 2.445 -0.1633 0
M  V30 42 H -5.155 2.4293 1.2758 0
M  V30 END ATOM
M  V30 BEGIN BOND
M  V30 1 2 1 2
M  V30 2 2 1 3
M  V30 3 1 1 4
M  V30 4 1 1 5
M  V30 5 1 4 6
M  V30 6 1 6 7
M  V30 7 1 7 8
M  V30 8 1 8 9
M  V30 9 1 9 10
M  V30 10 1 10 11
M  V30 11 1 11 12
M  V30 12 1 12 13
M  V30 13 1 13 14
M  V30 14 1 14 15
M  V30 15 1 15 16
M  V30 16 1 16 17
M  V30 17 1 6 18
M  V30 18 1 6 19
M  V30 19 1 7 20
M  V30 20 1 7 21
M  V30 21 1 8 22
M  V30 22 1 8 23
M  V30 23 1 9 24
M  V30 24 1 9 25
M  V30 25 1 10 26
M  V30 26 1 10 27
M  V30 27 1 11 28
M  V30 28 1 11 29
M  V30 29 1 12 30
M  V30 30 1 12 31
M  V30 31 1 13 32
M  V30 32 1 13 33
M  V30 33 1 14 34
M  V30 34 1 14 35
M  V30 35 1 15 36
M  V30 36 1 15 37
M  V30 37 1 16 38
M  V30 38 1 16 39
M  V30 39 1 17 40
M  V30 40 1 17 41
M  V30 41 1 17 42
M  V30 END BOND
M  V30 END CTAB
M  END
>  <Structure No>
2779

>  <LogS>
0.10896299

>  <MMFF94 Energy>
-45.814

$$$$
Compound 2780
Actelion Java MolfileCreator 2.0

  0  0  0  0  0  0              0 V3000
M  V30 BEGIN CTAB
M  V30 COUNTS 36 35 0 0 0
M  V30 BEGIN ATOM
M  V30 1 S 5.4694 1.6866 -0.3211 0
M  V30 2 O 6.7931 1.4454 -0.9912 0
M  V30 3 O 4.5633 2.4466 -1.2492 0
M  V30 4 O 4.7668 0.2076 0.1233 0
M  V30 5 O 5.7189 2.6031 1.0636 0 CHG=-1
M  V30 6 C 4.4116 -0.5259 -1.0306 0
M  V30 7 C 2.908 -0.4099 -1.3044 0
M  V30 8 C 2.0717 -0.9768 -0.1491 0
M  V30 9 C 0.5726 -0.8813 -0.4568 0
M  V30 10 C -0.2636 -1.4351 0.7063 0
M  V30 11 C -1.7661 -1.4824 0.3859 0
M  V30 12 C -2.4039 -0.0862 0.3261 0
M  V30 13 C -3.9268 -0.1868 0.1537 0
M  V30 14 C -4.5907 1.1839 -0.0478 0
M  V30 15 C -4.5794 2.0385 1.2192 0
M  V30 16 H 4.9798 -0.2335 -1.9434 0
M  V30 17 H 4.6602 -1.5934 -0.8506 0
M  V30 18 H 2.6751 -0.9707 -2.2358 0
M  V30 19 H 2.6422 0.6556 -1.471 0
M  V30 20 H 2.2899 -0.4072 0.7808 0
M  V30 21 H 2.3467 -2.0419 0.0155 0
M  V30 22 H 0.3105 0.1838 -0.6318 0
M  V30 23 H 0.3503 -1.459 -1.3807 0
M  V30 24 H 0.0713 -2.4722 0.927 0
M  V30 25 H -0.0924 -0.825 1.6204 0
M  V30 26 H -1.9288 -2.0152 -0.5764 0
M  V30 27 H -2.2676 -2.0712 1.1852 0
M  V30 28 H -1.9809 0.4804 -0.5302 0
M  V30 29 H -2.1711 0.4585 1.2657 0
M  V30 30 H -4.1462 -0.8087 -0.7419 0
M  V30 31 H -4.3757 -0.6955 1.035 0
M  V30 32 H -4.0897 1.7346 -0.8733 0
M  V30 33 H -5.6486 1.0205 -0.3474 0
M  V30 34 H -3.5443 2.3406 1.4807 0
M  V30 35 H -5.0292 1.4816 2.0684 0
M  V30 36 H -5.1743 2.9602 1.0474 0
M  V30 END ATOM
M  V30 BEGIN BOND
M  V30 1 2 1 2
M  V30 2 2 1 3
M  V30 3 1 1 4
M  V30 4 1 1 5
M  V30 5 1 4 6
M  V30 6 1 6 7
M  V30 7 1 7 8
M  V30 8 1 8 9
M  V30 9 1 9 10
M  V30 10 1 10 11
M  V30 11 1 11 12
M  V30 12 1 12 13
M  V30 13 1 13 14
M  V30 14 1 14 15
M  V30 15 1 6 16
M  V30 16 1 6 17
M  V30 17 1 7 18
M  V30 18 1 7 19
M  V30 19 1 8 20
M  V30 20 1 8 21
M  V30 21 1 9 22
M  V30 22 1 9 23
M  V30 23 1 10 24
M  V30 24 1 10 25
M  V30 25 1 11 26
M  V30 26 1 11 27
M  V30 27 1 12 28
M  V30 28 1 12 29
M  V30 29 1 13 30
M  V30 30 1 13 31
M  V30 31 1 14 32
M  V30 32 1 14 33
M  V30 33 1 15 34
M  V30 34 1 15 35
M  V30 35 1 15 36
M  V30 END BOND
M  V30 END CTAB
M  END
>  <Structure No>
2780

>  <LogS>
0.102988053

>  <MMFF94 Energy>
-47.115

$$$$
Compound 2781
Actelion Java MolfileCreator 2.0

  0  0  0  0  0  0              0 V3000
M  V30 BEGIN CTAB
M  V30 COUNTS 32 31 0 0 0
M  V30 BEGIN ATOM
M  V30 1 O 3.5856 2.8514 -0.8955 0
M  V30 2 C 2.6633 2.1945 -1.4463 0
M  V30 3 O 1.6077 2.8673 -2.0486 0 CHG=-1
M  V30 4 C 2.6998 0.6897 -1.4441 0
M  V30 5 N 1.8946 0.0814 -0.3566 0
M  V30 6 C 2.4297 0.3854 0.9898 0
M  V30 7 C 0.4583 0.4205 -0.4691 0
M  V30 8 C 3.7093 -0.3527 1.2298 0
M  V30 9 C -0.4081 -0.7285 0.0721 0
M  V30 10 O 3.7027 -1.606 1.3493 0
M  V30 11 O 4.9112 0.3397 1.2989 0 CHG=-1
M  V30 12 N -1.8256 -0.594 -0.3396 0
M  V30 13 C -2.5701 -1.843 -0.0653 0
M  V30 14 C -2.4985 0.6045 0.2284 0
M  V30 15 C -3.8585 -1.8769 -0.8284 0
M  V30 16 C -2.497 0.6498 1.7326 0
M  V30 17 O -4.959 -1.8774 -0.2166 0
M  V30 18 O -3.8422 -1.8975 -2.2169 0 CHG=-1
M  V30 19 O -1.5545 1.2122 2.3498 0
M  V30 20 O -3.5381 0.0731 2.4491 0 CHG=-1
M  V30 21 H 3.7543 0.3459 -1.3743 0
M  V30 22 H 2.3327 0.3211 -2.4263 0
M  V30 23 H 2.5843 1.4768 1.1293 0
M  V30 24 H 1.7158 0.0638 1.7775 0
M  V30 25 H 0.1737 0.5704 -1.535 0
M  V30 26 H 0.2397 1.3663 0.0744 0
M  V30 27 H -0.3225 -0.8061 1.1764 0
M  V30 28 H 0.0104 -1.6691 -0.3507 0
M  V30 29 H -1.9841 -2.7261 -0.4015 0
M  V30 30 H -2.7535 -1.9724 1.0233 0
M  V30 31 H -3.5499 0.6549 -0.1255 0
M  V30 32 H -2.0273 1.5271 -0.1694 0
M  V30 END ATOM
M  V30 BEGIN BOND
M  V30 1 2 1 2
M  V30 2 1 2 3
M  V30 3 1 2 4
M  V30 4 1 4 5
M  V30 5 1 5 6
M  V30 6 1 5 7
M  V30 7 1 6 8
M  V30 8 1 7 9
M  V30 9 2 8 10
M  V30 10 1 8 11
M  V30 11 1 9 12
M  V30 12 1 12 13
M  V30 13 1 12 14
M  V30 14 1 13 15
M  V30 15 1 14 16
M  V30 16 2 15 17
M  V30 17 1 15 18
M  V30 18 2 16 19
M  V30 19 1 16 20
M  V30 20 1 4 21
M  V30 21 1 4 22
M  V30 22 1 6 23
M  V30 23 1 6 24
M  V30 24 1 7 25
M  V30 25 1 7 26
M  V30 26 1 9 27
M  V30 27 1 9 28
M  V30 28 1 13 29
M  V30 29 1 13 30
M  V30 30 1 14 31
M  V30 31 1 14 32
M  V30 END BOND
M  V30 END CTAB
M  END
>  <Structure No>
2781

>  <LogS>
-0.092012803

>  <MMFF94 Energy>
599.58

$$$$
Compound 2782
Actelion Java MolfileCreator 2.0

  0  0  0  0  0  0              0 V3000
M  V30 BEGIN CTAB
M  V30 COUNTS 63 62 0 0 0
M  V30 BEGIN ATOM
M  V30 1 O -9.5291 0.2354 1.3345 0
M  V30 2 C -8.4525 0.5102 1.9276 0
M  V30 3 O -8.1154 1.8379 2.1602 0 CHG=-1
M  V30 4 C -7.5561 -0.587 2.4101 0
M  V30 5 N -7.2149 -1.4979 1.3072 0
M  V30 6 C -6.1075 -1.2354 0.4148 0
M  V30 7 C -8.0295 -2.6984 1.0907 0
M  V30 8 O -5.775 -2.1127 -0.4303 0
M  V30 9 C -5.2975 0.037 0.5137 0
M  V30 10 C -4.4814 0.3198 -0.759 0
M  V30 11 C -3.8116 1.7057 -0.7429 0
M  V30 12 C -2.7892 1.9199 0.391 0
M  V30 13 C -1.6353 0.8983 0.4339 0
M  V30 14 C -0.8033 0.8079 -0.8571 0
M  V30 15 C -0.1075 2.1321 -1.208 0
M  V30 16 C 0.8753 1.944 -2.3347 0
M  V30 17 C 2.1248 1.4625 -2.1922 0
M  V30 18 C 2.765 1.1038 -0.869 0
M  V30 19 C 3.5778 -0.1961 -0.9596 0
M  V30 20 C 4.8961 -0.0205 -1.7357 0
M  V30 21 C 5.7934 -1.2735 -1.6456 0
M  V30 22 C 6.9774 -1.1166 -0.6756 0
M  V30 23 C 6.5345 -0.9968 0.7917 0
M  V30 24 C 7.7242 -0.9242 1.7618 0
M  V30 25 C 8.4246 -2.2709 1.9425 0
M  V30 26 H -6.6349 -0.1646 2.8647 0
M  V30 27 H -8.077 -1.137 3.2233 0
M  V30 28 H -7.4019 -3.6056 1.2182 0
M  V30 29 H -8.4511 -2.6847 0.0633 0
M  V30 30 H -8.8759 -2.7529 1.8084 0
M  V30 31 H -5.98 0.8943 0.6876 0
M  V30 32 H -4.6146 -0.0582 1.3834 0
M  V30 33 H -5.1651 0.2868 -1.6358 0
M  V30 34 H -3.7179 -0.4727 -0.9083 0
M  V30 35 H -4.6013 2.4833 -0.6524 0
M  V30 36 H -3.3183 1.8777 -1.7227 0
M  V30 37 H -3.3165 1.8992 1.3684 0
M  V30 38 H -2.3677 2.9435 0.2977 0
M  V30 39 H -2.04 -0.1076 0.6734 0
M  V30 40 H -0.9594 1.1695 1.2742 0
M  V30 41 H -1.4414 0.4817 -1.7055 0
M  V30 42 H -0.0417 0.0123 -0.7107 0
M  V30 43 H -0.8743 2.8612 -1.5459 0
M  V30 44 H 0.3962 2.5744 -0.3218 0
M  V30 45 H 0.5529 2.2351 -3.3307 0
M  V30 46 H 2.7426 1.4242 -3.0836 0
M  V30 47 H 2.004 0.9615 -0.0763 0
M  V30 48 H 3.4185 1.941 -0.544 0
M  V30 49 H 3.8004 -0.5328 0.0745 0
M  V30 50 H 2.9619 -0.9894 -1.4381 0
M  V30 51 H 5.4409 0.8781 -1.3714 0
M  V30 52 H 4.656 0.1574 -2.8056 0
M  V30 53 H 5.2015 -2.1763 -1.3765 0
M  V30 54 H 6.2182 -1.4689 -2.6547 0
M  V30 55 H 7.6251 -2.0103 -0.7944 0
M  V30 56 H 7.5786 -0.2257 -0.9616 0
M  V30 57 H 5.9496 -0.0606 0.9141 0
M  V30 58 H 5.8758 -1.8504 1.0647 0
M  V30 59 H 7.3469 -0.5956 2.7547 0
M  V30 60 H 8.458 -0.1649 1.414 0
M  V30 61 H 9.1868 -2.1844 2.7455 0
M  V30 62 H 7.6933 -3.0548 2.2341 0
M  V30 63 H 8.942 -2.5761 1.0097 0
M  V30 END ATOM
M  V30 BEGIN BOND
M  V30 1 2 1 2
M  V30 2 1 2 3
M  V30 3 1 2 4
M  V30 4 1 4 5
M  V30 5 1 5 6
M  V30 6 1 5 7
M  V30 7 2 6 8
M  V30 8 1 6 9
M  V30 9 1 9 10
M  V30 10 1 10 11
M  V30 11 1 11 12
M  V30 12 1 12 13
M  V30 13 1 13 14
M  V30 14 1 14 15
M  V30 15 1 15 16
M  V30 16 2 16 17
M  V30 17 1 17 18
M  V30 18 1 18 19
M  V30 19 1 19 20
M  V30 20 1 20 21
M  V30 21 1 21 22
M  V30 22 1 22 23
M  V30 23 1 23 24
M  V30 24 1 24 25
M  V30 25 1 4 26
M  V30 26 1 4 27
M  V30 27 1 7 28
M  V30 28 1 7 29
M  V30 29 1 7 30
M  V30 30 1 9 31
M  V30 31 1 9 32
M  V30 32 1 10 33
M  V30 33 1 10 34
M  V30 34 1 11 35
M  V30 35 1 11 36
M  V30 36 1 12 37
M  V30 37 1 12 38
M  V30 38 1 13 39
M  V30 39 1 13 40
M  V30 40 1 14 41
M  V30 41 1 14 42
M  V30 42 1 15 43
M  V30 43 1 15 44
M  V30 44 1 16 45
M  V30 45 1 17 46
M  V30 46 1 18 47
M  V30 47 1 18 48
M  V30 48 1 19 49
M  V30 49 1 19 50
M  V30 50 1 20 51
M  V30 51 1 20 52
M  V30 52 1 21 53
M  V30 53 1 21 54
M  V30 54 1 22 55
M  V30 55 1 22 56
M  V30 56 1 23 57
M  V30 57 1 23 58
M  V30 58 1 24 59
M  V30 59 1 24 60
M  V30 60 1 25 61
M  V30 61 1 25 62
M  V30 62 1 25 63
M  V30 END BOND
M  V30 END CTAB
M  END
>  <Structure No>
2782

>  <LogS>
0.775780405

>  <MMFF94 Energy>
41.904

$$$$
Compound 2783
Actelion Java MolfileCreator 2.0

  0  0  0  0  0  0              0 V3000
M  V30 BEGIN CTAB
M  V30 COUNTS 8 7 0 0 0
M  V30 BEGIN ATOM
M  V30 1 O 1.3303 0.3129 1.3303 0
M  V30 2 C 1.0035 -0.0197 0.1609 0
M  V30 3 O 1.963 -0.0403 -0.8429 0 CHG=-1
M  V30 4 C -0.4215 -0.3367 -0.1594 0
M  V30 5 O -1.0823 0.8168 -0.6007 0
M  V30 6 H -0.9335 -0.7657 0.7318 0
M  V30 7 H -0.4523 -1.0981 -0.9666 0
M  V30 8 H -1.2757 1.3604 0.2076 0
M  V30 END ATOM
M  V30 BEGIN BOND
M  V30 1 2 1 2
M  V30 2 1 2 3
M  V30 3 1 2 4
M  V30 4 1 4 5
M  V30 5 1 4 6
M  V30 6 1 4 7
M  V30 7 1 5 8
M  V30 END BOND
M  V30 END CTAB
M  END
>  <Structure No>
2783

>  <LogS>
0.596016326

>  <MMFF94 Energy>
49.955

$$$$
Compound 2784
Actelion Java MolfileCreator 2.0

  0  0  0  0  0  0              0 V3000
M  V30 BEGIN CTAB
M  V30 COUNTS 22 21 0 0 0
M  V30 BEGIN ATOM
M  V30 1 N 0.7522 -0.3008 0.5265 0 CHG=1
M  V30 2 C 2.1496 -0.222 0.1983 0
M  V30 3 C -0.2233 0.0861 -0.2588 0
M  V30 4 N 2.6661 0.8854 -0.2438 0 CHG=1
M  V30 5 N 2.9945 -1.341 0.4755 0
M  V30 6 N -1.5924 0.0548 0.2137 0
M  V30 7 N 0.0437 0.4855 -1.6146 0
M  V30 8 C -2.697 -0.052 -0.7441 0
M  V30 9 C -1.8954 0.1681 1.645 0
M  V30 10 H 0.5322 -0.7354 1.4492 0
M  V30 11 H 3.6876 0.9553 -0.4498 0
M  V30 12 H 2.0794 1.7389 -0.3786 0
M  V30 13 H 4.0208 -1.3007 0.287 0
M  V30 14 H 2.589 -2.221 0.8643 0
M  V30 15 H -0.6817 0.97 -2.1861 0
M  V30 16 H 0.9425 0.2531 -2.0908 0
M  V30 17 H -2.477 -0.8461 -1.4889 0
M  V30 18 H -2.8417 0.9181 -1.2636 0
M  V30 19 H -3.6473 -0.3224 -0.2365 0
M  V30 20 H -1.2864 0.9791 2.0983 0
M  V30 21 H -1.6778 -0.7932 2.155 0
M  V30 22 H -2.9647 0.4176 1.8133 0
M  V30 END ATOM
M  V30 BEGIN BOND
M  V30 1 1 1 2
M  V30 2 2 1 3
M  V30 3 2 2 4
M  V30 4 1 2 5
M  V30 5 1 3 6
M  V30 6 1 3 7
M  V30 7 1 6 8
M  V30 8 1 6 9
M  V30 9 1 1 10
M  V30 10 1 4 11
M  V30 11 1 4 12
M  V30 12 1 5 13
M  V30 13 1 5 14
M  V30 14 1 7 15
M  V30 15 1 7 16
M  V30 16 1 8 17
M  V30 17 1 8 18
M  V30 18 1 8 19
M  V30 19 1 9 20
M  V30 20 1 9 21
M  V30 21 1 9 22
M  V30 END BOND
M  V30 END CTAB
M  END
>  <Structure No>
2784

>  <LogS>
0.257987497

>  <MMFF94 Energy>
-237.19

$$$$
Compound 2785
Actelion Java MolfileCreator 2.0

  0  0  0  0  0  0              0 V3000
M  V30 BEGIN CTAB
M  V30 COUNTS 16 15 0 0 0
M  V30 BEGIN ATOM
M  V30 1 N 2.2973 -1.4254 1.4254 0
M  V30 2 C 1.5561 -1.2426 0.5558 0
M  V30 3 C 0.6115 -1.0098 -0.5528 0
M  V30 4 N -0.3347 0.1077 -0.2951 0
M  V30 5 C -1.2232 -0.1538 0.859 0
M  V30 6 C 0.3501 1.4117 -0.1528 0
M  V30 7 C -2.179 -1.2244 0.5471 0
M  V30 8 C 0.9091 1.8483 -1.4389 0
M  V30 9 N -2.932 -2.0679 0.3015 0
M  V30 10 N 1.3498 2.1923 -2.452 0
M  V30 11 H 0.05 -1.9486 -0.7417 0
M  V30 12 H 1.1934 -0.811 -1.477 0
M  V30 13 H -0.6442 -0.4227 1.7683 0
M  V30 14 H -1.8271 0.7478 1.0988 0
M  V30 15 H 1.1566 1.3691 0.6101 0
M  V30 16 H -0.3694 2.1982 0.1614 0
M  V30 END ATOM
M  V30 BEGIN BOND
M  V30 1 3 1 2
M  V30 2 1 2 3
M  V30 3 1 3 4
M  V30 4 1 4 5
M  V30 5 1 4 6
M  V30 6 1 5 7
M  V30 7 1 6 8
M  V30 8 3 7 9
M  V30 9 3 8 10
M  V30 10 1 3 11
M  V30 11 1 3 12
M  V30 12 1 5 13
M  V30 13 1 5 14
M  V30 14 1 6 15
M  V30 15 1 6 16
M  V30 END BOND
M  V30 END CTAB
M  END
>  <Structure No>
2785

>  <LogS>
-1.647557834

>  <MMFF94 Energy>
66.883

$$$$
Compound 2786
Actelion Java MolfileCreator 2.0

  0  0  0  0  0  0              0 V3000
M  V30 BEGIN CTAB
M  V30 COUNTS 63 62 0 0 0
M  V30 BEGIN ATOM
M  V30 1 O 7.7913 -1.8844 3.2209 0
M  V30 2 C 7.154 -0.8345 2.9447 0
M  V30 3 O 6.2802 -0.2927 3.8796 0 CHG=-1
M  V30 4 C 7.3412 -0.1666 1.6182 0
M  V30 5 N 7.0275 -1.0962 0.5196 0
M  V30 6 C 5.6776 -1.5554 0.2637 0
M  V30 7 C 8.1118 -1.5956 -0.3345 0
M  V30 8 O 5.4863 -2.4446 -0.6118 0
M  V30 9 C 4.4969 -1.0621 1.0752 0
M  V30 10 C 3.1428 -1.2544 0.3708 0
M  V30 11 C 2.9881 -0.3352 -0.8503 0
M  V30 12 C 1.6334 -0.5658 -1.5366 0
M  V30 13 C 1.4344 0.3255 -2.7745 0
M  V30 14 C 1.23 1.8234 -2.4705 0
M  V30 15 C -0.0555 2.1215 -1.6737 0
M  V30 16 C 0.1771 2.1191 -0.1802 0
M  V30 17 C -0.8139 2.1852 0.7264 0
M  V30 18 C -2.2809 2.1816 0.3821 0
M  V30 19 C -2.8099 0.7445 0.3046 0
M  V30 20 C -4.3102 0.7223 -0.0099 0
M  V30 21 C -4.8323 -0.7201 -0.0886 0
M  V30 22 C -6.303 -0.8053 -0.5383 0
M  V30 23 C -7.3137 -0.1329 0.4099 0
M  V30 24 C -7.3331 -0.7628 1.8106 0
M  V30 25 C -8.4702 -0.1934 2.6552 0
M  V30 26 H 8.3928 0.1852 1.5596 0
M  V30 27 H 6.7128 0.7449 1.542 0
M  V30 28 H 7.9192 -1.3069 -1.3896 0
M  V30 29 H 9.0997 -1.1846 -0.0365 0
M  V30 30 H 8.1663 -2.7023 -0.2612 0
M  V30 31 H 4.6095 0.0143 1.3202 0
M  V30 32 H 4.4768 -1.6283 2.0315 0
M  V30 33 H 2.3357 -1.017 1.0986 0
M  V30 34 H 3.0179 -2.3185 0.0719 0
M  V30 35 H 3.0733 0.7198 -0.5156 0
M  V30 36 H 3.803 -0.5366 -1.5791 0
M  V30 37 H 1.5871 -1.6256 -1.8717 0
M  V30 38 H 0.8009 -0.4211 -0.8164 0
M  V30 39 H 0.5512 -0.0469 -3.3388 0
M  V30 40 H 2.3126 0.2138 -3.448 0
M  V30 41 H 1.1458 2.3423 -3.4507 0
M  V30 42 H 2.1255 2.2562 -1.9754 0
M  V30 43 H -0.8423 1.3873 -1.9478 0
M  V30 44 H -0.4259 3.1301 -1.9582 0
M  V30 45 H 1.1957 2.0815 0.1953 0
M  V30 46 H -0.5462 2.1935 1.7794 0
M  V30 47 H -2.8257 2.7265 1.1832 0
M  V30 48 H -2.4683 2.7217 -0.5707 0
M  V30 49 H -2.2602 0.1848 -0.4827 0
M  V30 50 H -2.6337 0.2363 1.279 0
M  V30 51 H -4.49 1.2338 -0.981 0
M  V30 52 H -4.8482 1.2705 0.792 0
M  V30 53 H -4.2211 -1.2797 -0.8308 0
M  V30 54 H -4.6972 -1.2283 0.8898 0
M  V30 55 H -6.4005 -0.343 -1.545 0
M  V30 56 H -6.5755 -1.8778 -0.6487 0
M  V30 57 H -7.1099 0.9556 0.4836 0
M  V30 58 H -8.3227 -0.2411 -0.0449 0
M  V30 59 H -6.376 -0.5566 2.334 0
M  V30 60 H -7.4631 -1.8636 1.7284 0
M  V30 61 H -8.3551 0.9066 2.7633 0
M  V30 62 H -9.4511 -0.416 2.1834 0
M  V30 63 H -8.4503 -0.6545 3.666 0
M  V30 END ATOM
M  V30 BEGIN BOND
M  V30 1 2 1 2
M  V30 2 1 2 3
M  V30 3 1 2 4
M  V30 4 1 4 5
M  V30 5 1 5 6
M  V30 6 1 5 7
M  V30 7 2 6 8
M  V30 8 1 6 9
M  V30 9 1 9 10
M  V30 10 1 10 11
M  V30 11 1 11 12
M  V30 12 1 12 13
M  V30 13 1 13 14
M  V30 14 1 14 15
M  V30 15 1 15 16
M  V30 16 2 16 17
M  V30 17 1 17 18
M  V30 18 1 18 19
M  V30 19 1 19 20
M  V30 20 1 20 21
M  V30 21 1 21 22
M  V30 22 1 22 23
M  V30 23 1 23 24
M  V30 24 1 24 25
M  V30 25 1 4 26
M  V30 26 1 4 27
M  V30 27 1 7 28
M  V30 28 1 7 29
M  V30 29 1 7 30
M  V30 30 1 9 31
M  V30 31 1 9 32
M  V30 32 1 10 33
M  V30 33 1 10 34
M  V30 34 1 11 35
M  V30 35 1 11 36
M  V30 36 1 12 37
M  V30 37 1 12 38
M  V30 38 1 13 39
M  V30 39 1 13 40
M  V30 40 1 14 41
M  V30 41 1 14 42
M  V30 42 1 15 43
M  V30 43 1 15 44
M  V30 44 1 16 45
M  V30 45 1 17 46
M  V30 46 1 18 47
M  V30 47 1 18 48
M  V30 48 1 19 49
M  V30 49 1 19 50
M  V30 50 1 20 51
M  V30 51 1 20 52
M  V30 52 1 21 53
M  V30 53 1 21 54
M  V30 54 1 22 55
M  V30 55 1 22 56
M  V30 56 1 23 57
M  V30 57 1 23 58
M  V30 58 1 24 59
M  V30 59 1 24 60
M  V30 60 1 25 61
M  V30 61 1 25 62
M  V30 62 1 25 63
M  V30 END BOND
M  V30 END CTAB
M  END
>  <Structure No>
2786

>  <LogS>
-0.121592004

>  <MMFF94 Energy>
48.3

$$$$
Compound 2787
Actelion Java MolfileCreator 2.0

  0  0  0  0  0  0              0 V3000
M  V30 BEGIN CTAB
M  V30 COUNTS 17 16 0 0 0
M  V30 BEGIN ATOM
M  V30 1 O 1.4664 -0.0771 1.6208 0
M  V30 2 C 1.5178 0.2149 0.3952 0
M  V30 3 O 0.3492 0.3207 -0.3675 0
M  V30 4 C 2.8422 0.4134 -0.2596 0
M  V30 5 C -0.9584 0.084 0.1552 0
M  V30 6 C -1.9883 0.6933 -0.794 0
M  V30 7 C -1.2006 -1.4196 0.3144 0
M  V30 8 H 3.2812 -0.5739 -0.5123 0
M  V30 9 H 2.7206 1.0069 -1.1899 0
M  V30 10 H 3.5279 0.9562 0.4247 0
M  V30 11 H -1.0641 0.5814 1.1453 0
M  V30 12 H -3.0153 0.5444 -0.3967 0
M  V30 13 H -1.8055 1.7843 -0.8945 0
M  V30 14 H -1.915 0.2258 -1.7992 0
M  V30 15 H -1.0795 -1.9364 -0.6616 0
M  V30 16 H -2.226 -1.6055 0.6995 0
M  V30 17 H -0.4765 -1.8507 1.0368 0
M  V30 END ATOM
M  V30 BEGIN BOND
M  V30 1 2 1 2
M  V30 2 1 2 3
M  V30 3 1 2 4
M  V30 4 1 3 5
M  V30 5 1 5 6
M  V30 6 1 5 7
M  V30 7 1 4 8
M  V30 8 1 4 9
M  V30 9 1 4 10
M  V30 10 1 5 11
M  V30 11 1 6 12
M  V30 12 1 6 13
M  V30 13 1 6 14
M  V30 14 1 7 15
M  V30 15 1 7 16
M  V30 16 1 7 17
M  V30 END BOND
M  V30 END CTAB
M  END
>  <Structure No>
2787

>  <LogS>
-0.546768091

>  <MMFF94 Energy>
-8.1623

$$$$
Compound 2788
Actelion Java MolfileCreator 2.0

  0  0  0  0  0  0              0 V3000
M  V30 BEGIN CTAB
M  V30 COUNTS 24 23 0 0 0
M  V30 BEGIN ATOM
M  V30 1 O 3.212 -0.7826 0.6261 0
M  V30 2 C 2.9876 0.1825 -0.1537 0
M  V30 3 O 1.8121 0.2341 -0.9108 0
M  V30 4 C 3.9635 1.3064 -0.236 0
M  V30 5 C 0.7989 -0.7672 -0.8502 0
M  V30 6 C 0.0535 -0.687 0.461 0
M  V30 7 C 0.07 -1.7206 1.3171 0
M  V30 8 C -0.7141 0.5703 0.7942 0
M  V30 9 O -1.7576 0.784 -0.1536 0
M  V30 10 C -2.913 -0.003 -0.2125 0
M  V30 11 O -3.1128 -0.9209 0.6288 0
M  V30 12 C -3.9434 0.2828 -1.2511 0
M  V30 13 H 3.8486 1.8382 -1.2037 0
M  V30 14 H 3.7779 2.0182 0.5949 0
M  V30 15 H 5.0007 0.9173 -0.1617 0
M  V30 16 H 1.2525 -1.7699 -1.0135 0
M  V30 17 H 0.0805 -0.5943 -1.6786 0
M  V30 18 H 0.6188 -2.6287 1.0881 0
M  V30 19 H -0.4651 -1.6749 2.2607 0
M  V30 20 H -1.1404 0.541 1.8215 0
M  V30 21 H -0.0177 1.4338 0.7543 0
M  V30 22 H -3.4745 0.7899 -2.1202 0
M  V30 23 H -4.7267 0.9424 -0.8232 0
M  V30 24 H -4.4092 -0.6638 -1.5971 0
M  V30 END ATOM
M  V30 BEGIN BOND
M  V30 1 2 1 2
M  V30 2 1 2 3
M  V30 3 1 2 4
M  V30 4 1 3 5
M  V30 5 1 5 6
M  V30 6 2 6 7
M  V30 7 1 6 8
M  V30 8 1 8 9
M  V30 9 1 9 10
M  V30 10 2 10 11
M  V30 11 1 10 12
M  V30 12 1 4 13
M  V30 13 1 4 14
M  V30 14 1 4 15
M  V30 15 1 5 16
M  V30 16 1 5 17
M  V30 17 1 7 18
M  V30 18 1 7 19
M  V30 19 1 8 20
M  V30 20 1 8 21
M  V30 21 1 12 22
M  V30 22 1 12 23
M  V30 23 1 12 24
M  V30 END BOND
M  V30 END CTAB
M  END
>  <Structure No>
2788

>  <LogS>
-0.77961667

>  <MMFF94 Energy>
-22.921

$$$$
Compound 2789
Actelion Java MolfileCreator 2.0

  0  0  0  0  0  0              0 V3000
M  V30 BEGIN CTAB
M  V30 COUNTS 53 53 0 0 0
M  V30 BEGIN ATOM
M  V30 1 O -3.1368 2.195 -1.097 0
M  V30 2 C -1.9739 1.4058 -1.229 0
M  V30 3 C -4.2338 1.5462 -1.7175 0
M  V30 4 C -2.0914 0.1158 -0.364 0 CFG=2
M  V30 5 C -4.3115 0.0391 -1.375 0
M  V30 6 N -3.5235 -0.264 -0.1594 0 CHG=1 CFG=1
M  V30 7 C -1.3672 0.3013 1.0061 0
M  V30 8 C -3.6537 -1.7092 0.1966 0
M  V30 9 C 0.0653 -0.262 1.0254 0
M  V30 10 C -4.7288 -1.9627 1.2643 0
M  V30 11 C 1.0366 0.5383 0.1384 0
M  V30 12 O -6.006 -1.6482 0.7803 0
M  V30 13 C 2.5127 0.0872 0.3076 0
M  V30 14 C 2.7795 -1.2267 -0.4733 0
M  V30 15 C 3.4766 1.2043 -0.1741 0
M  V30 16 C 3.9572 -2.0217 0.1155 0
M  V30 17 C 3.7027 2.2809 0.8993 0
M  V30 18 C 4.232 -3.2828 -0.7015 0
M  V30 19 C 4.6277 3.3849 0.3932 0
M  V30 20 H -1.8 1.1384 -2.2982 0
M  V30 21 H -1.1003 2.0217 -0.9311 0
M  V30 22 H -4.1856 1.6898 -2.821 0
M  V30 23 H -5.1663 2.0423 -1.3646 0
M  V30 24 H -1.5816 -0.6952 -0.9367 0
M  V30 25 H -5.3779 -0.2445 -1.2429 0
M  V30 26 H -3.9169 -0.5448 -2.2387 0
M  V30 27 H -3.9123 0.3261 0.6165 0
M  V30 28 H -1.9269 -0.2307 1.8051 0
M  V30 29 H -1.3623 1.3696 1.3165 0
M  V30 30 H -2.7024 -2.1118 0.6085 0
M  V30 31 H -3.8731 -2.3351 -0.697 0
M  V30 32 H 0.0367 -1.3285 0.7181 0
M  V30 33 H 0.4291 -0.2293 2.0762 0
M  V30 34 H -4.7142 -3.041 1.531 0
M  V30 35 H -4.4943 -1.3901 2.1917 0
M  V30 36 H 0.9362 1.609 0.414 0
M  V30 37 H 0.7449 0.4399 -0.9305 0
M  V30 38 H -6.1851 -0.7013 1.0323 0
M  V30 39 H 2.7018 -0.0995 1.3898 0
M  V30 40 H 1.8852 -1.8842 -0.443 0
M  V30 41 H 2.974 -0.9962 -1.5453 0
M  V30 42 H 3.0746 1.6731 -1.1005 0
M  V30 43 H 4.4678 0.7754 -0.4361 0
M  V30 44 H 4.8819 -1.4028 0.1326 0
M  V30 45 H 3.7168 -2.3161 1.1638 0
M  V30 46 H 4.1618 1.8155 1.8042 0
M  V30 47 H 2.7362 2.7434 1.1968 0
M  V30 48 H 3.3175 -3.9163 -0.7567 0
M  V30 49 H 4.5562 -3.0103 -1.7322 0
M  V30 50 H 5.0442 -3.868 -0.2168 0
M  V30 51 H 5.6049 2.9609 0.0767 0
M  V30 52 H 4.1665 3.9114 -0.47 0
M  V30 53 H 4.8077 4.119 1.2052 0
M  V30 END ATOM
M  V30 BEGIN BOND
M  V30 1 1 1 2
M  V30 2 1 1 3
M  V30 3 1 2 4
M  V30 4 1 3 5
M  V30 5 1 4 6
M  V30 6 1 4 7
M  V30 7 1 6 8
M  V30 8 1 7 9
M  V30 9 1 8 10
M  V30 10 1 9 11
M  V30 11 1 10 12
M  V30 12 1 11 13
M  V30 13 1 13 14
M  V30 14 1 13 15
M  V30 15 1 14 16
M  V30 16 1 15 17
M  V30 17 1 16 18
M  V30 18 1 17 19
M  V30 19 1 5 6
M  V30 20 1 2 20
M  V30 21 1 2 21
M  V30 22 1 3 22
M  V30 23 1 3 23
M  V30 24 1 4 24
M  V30 25 1 5 25
M  V30 26 1 5 26
M  V30 27 1 6 27
M  V30 28 1 7 28
M  V30 29 1 7 29
M  V30 30 1 8 30
M  V30 31 1 8 31
M  V30 32 1 9 32
M  V30 33 1 9 33
M  V30 34 1 10 34
M  V30 35 1 10 35
M  V30 36 1 11 36
M  V30 37 1 11 37
M  V30 38 1 12 38
M  V30 39 1 13 39
M  V30 40 1 14 40
M  V30 41 1 14 41
M  V30 42 1 15 42
M  V30 43 1 15 43
M  V30 44 1 16 44
M  V30 45 1 16 45
M  V30 46 1 17 46
M  V30 47 1 17 47
M  V30 48 1 18 48
M  V30 49 1 18 49
M  V30 50 1 18 50
M  V30 51 1 19 51
M  V30 52 1 19 52
M  V30 53 1 19 53
M  V30 END BOND
M  V30 BEGIN COLLECTION
M  V30 MDLV30/STEABS ATOMS=(2 4 6)
M  V30 END COLLECTION
M  V30 END CTAB
M  END
>  <Structure No>
2789

>  <LogS>
0.964258162

>  <MMFF94 Energy>
110.03

$$$$
Compound 2790
Actelion Java MolfileCreator 2.0

  0  0  0  0  0  0              0 V3000
M  V30 BEGIN CTAB
M  V30 COUNTS 17 16 0 0 0
M  V30 BEGIN ATOM
M  V30 1 S 2.5234 0.2439 -0.3253 0
M  V30 2 O 3.1231 -1.0012 0.2642 0
M  V30 3 O 3.3483 1.432 0.0809 0
M  V30 4 O 2.516 0.1214 -2.0006 0 CHG=-1
M  V30 5 C 0.8541 0.4534 0.2708 0
M  V30 6 C -0.0337 -0.7174 -0.1763 0
M  V30 7 N -1.3885 -0.6424 0.3984 0 CHG=1
M  V30 8 C -2.215 0.3828 -0.248 0
M  V30 9 H 0.878 0.512 1.3798 0
M  V30 10 H 0.463 1.4103 -0.1309 0
M  V30 11 H -0.0824 -0.7544 -1.2877 0
M  V30 12 H 0.4404 -1.6659 0.1609 0
M  V30 13 H -1.3384 -0.4536 1.4269 0
M  V30 14 H -1.8557 -1.569 0.2615 0
M  V30 15 H -2.2393 0.2365 -1.35 0
M  V30 16 H -3.2575 0.3136 0.131 0
M  V30 17 H -1.839 1.4009 -0.0142 0
M  V30 END ATOM
M  V30 BEGIN BOND
M  V30 1 2 1 2
M  V30 2 2 1 3
M  V30 3 1 1 4
M  V30 4 1 1 5
M  V30 5 1 5 6
M  V30 6 1 6 7
M  V30 7 1 7 8
M  V30 8 1 5 9
M  V30 9 1 5 10
M  V30 10 1 6 11
M  V30 11 1 6 12
M  V30 12 1 7 13
M  V30 13 1 7 14
M  V30 14 1 8 15
M  V30 15 1 8 16
M  V30 16 1 8 17
M  V30 END BOND
M  V30 END CTAB
M  END
>  <Structure No>
2790

>  <LogS>
0.19068814

>  <MMFF94 Energy>
-72.217

$$$$
Compound 2791
Actelion Java MolfileCreator 2.0

  0  0  0  0  0  0              0 V3000
M  V30 BEGIN CTAB
M  V30 COUNTS 54 57 0 0 0
M  V30 BEGIN ATOM
M  V30 1 S 6.5756 2.2168 1.1932 0
M  V30 2 O 7.4703 1.5375 2.1929 0
M  V30 3 O 7.3464 2.5027 -0.0649 0
M  V30 4 O 5.2297 1.2498 0.8412 0
M  V30 5 O 6.0403 3.6686 1.8451 0 CHG=-1
M  V30 6 C 5.6828 -0.0226 0.4452 0
M  V30 7 C 4.4991 -0.8673 -0.0202 0
M  V30 8 S 3.782 -0.2251 -1.5262 0
M  V30 9 O 4.8218 -0.1784 -2.6108 0
M  V30 10 O 3.2603 1.1664 -1.2977 0
M  V30 11 C 2.4603 -1.2763 -2.022 0
M  V30 12 C 1.1544 -1.0196 -1.5829 0
M  V30 13 C 2.7138 -2.3915 -2.8306 0
M  V30 14 C 0.093 -1.8583 -1.9719 0
M  V30 15 C 1.668 -3.2374 -3.2059 0
M  V30 16 N -1.2542 -1.6143 -1.5289 0
M  V30 17 C 0.3643 -2.9746 -2.7771 0
M  V30 18 C -1.7137 -0.3361 -1.0597 0
M  V30 19 C -2.4034 -0.2029 0.1695 0
M  V30 20 C -1.5234 0.7805 -1.8762 0
M  V30 21 C -2.5898 -1.3666 1.0879 0
M  V30 22 C -2.9038 1.0698 0.5534 0
M  V30 23 C -2.0334 2.0302 -1.5273 0
M  V30 24 O -1.9807 -2.4518 0.8859 0
M  V30 25 C -3.4709 -1.2493 2.2688 0
M  V30 26 C -3.5326 1.2145 1.9009 0
M  V30 27 C -2.7554 2.1808 -0.3239 0
M  V30 28 S -1.8015 3.3777 -2.6519 0
M  V30 29 C -3.9343 0.0168 2.6669 0
M  V30 30 C -3.831 -2.3863 3.0156 0
M  V30 31 O -3.6701 2.351 2.43 0
M  V30 32 N -3.386 3.4371 -0.0287 0
M  V30 33 O -0.9334 4.4239 -2.0127 0
M  V30 34 O -3.1332 3.9735 -3.0134 0
M  V30 35 O -1.0555 2.8475 -4.0615 0 CHG=-1
M  V30 36 C -4.7498 0.1314 3.8079 0
M  V30 37 C -4.6458 -2.2613 4.1431 0
M  V30 38 C -5.1045 -1.0045 4.5387 0
M  V30 39 H 6.154 -0.5411 1.309 0
M  V30 40 H 6.4222 0.0459 -0.3842 0
M  V30 41 H 4.8425 -1.9063 -0.2085 0
M  V30 42 H 3.721 -0.8947 0.7715 0
M  V30 43 H 0.9709 -0.1769 -0.9291 0
M  V30 44 H 3.7202 -2.6099 -3.1639 0
M  V30 45 H 1.8681 -4.0999 -3.8286 0
M  V30 46 H -1.9604 -2.3793 -1.624 0
M  V30 47 H -0.4364 -3.6388 -3.0763 0
M  V30 48 H -1.0002 0.6561 -2.815 0
M  V30 49 H -3.4846 -3.3711 2.7277 0
M  V30 50 H -4.3291 3.4709 0.416 0
M  V30 51 H -2.986 4.3431 -0.3546 0
M  V30 52 H -5.1161 1.0978 4.1323 0
M  V30 53 H -4.9202 -3.1402 4.7119 0
M  V30 54 H -5.734 -0.9097 5.414 0
M  V30 END ATOM
M  V30 BEGIN BOND
M  V30 1 2 1 2
M  V30 2 2 1 3
M  V30 3 1 1 4
M  V30 4 1 1 5
M  V30 5 1 4 6
M  V30 6 1 6 7
M  V30 7 1 7 8
M  V30 8 2 8 9
M  V30 9 2 8 10
M  V30 10 1 8 11
M  V30 11 2 11 12
M  V30 12 1 11 13
M  V30 13 1 12 14
M  V30 14 2 13 15
M  V30 15 1 14 16
M  V30 16 2 14 17
M  V30 17 1 16 18
M  V30 18 2 18 19
M  V30 19 1 18 20
M  V30 20 1 19 21
M  V30 21 1 19 22
M  V30 22 2 20 23
M  V30 23 2 21 24
M  V30 24 1 21 25
M  V30 25 1 22 26
M  V30 26 2 22 27
M  V30 27 1 23 28
M  V30 28 2 25 29
M  V30 29 1 25 30
M  V30 30 2 26 31
M  V30 31 1 27 32
M  V30 32 2 28 33
M  V30 33 2 28 34
M  V30 34 1 28 35
M  V30 35 1 29 36
M  V30 36 2 30 37
M  V30 37 2 36 38
M  V30 38 1 15 17
M  V30 39 1 23 27
M  V30 40 1 26 29
M  V30 41 1 37 38
M  V30 42 1 6 39
M  V30 43 1 6 40
M  V30 44 1 7 41
M  V30 45 1 7 42
M  V30 46 1 12 43
M  V30 47 1 13 44
M  V30 48 1 15 45
M  V30 49 1 16 46
M  V30 50 1 17 47
M  V30 51 1 20 48
M  V30 52 1 30 49
M  V30 53 1 32 50
M  V30 54 1 32 51
M  V30 55 1 36 52
M  V30 56 1 37 53
M  V30 57 1 38 54
M  V30 END BOND
M  V30 END CTAB
M  END
>  <Structure No>
2791

>  <LogS>
-0.454535826

>  <MMFF94 Energy>
99.46

$$$$
Compound 2792
Actelion Java MolfileCreator 2.0

  0  0  0  0  0  0              0 V3000
M  V30 BEGIN CTAB
M  V30 COUNTS 20 21 0 0 0
M  V30 BEGIN ATOM
M  V30 1 O 0.5606 1.5224 0.2402 0
M  V30 2 C -0.34 0.5065 0.6284 0 CFG=2
M  V30 3 C 1.6043 0.9022 -0.4709 0
M  V30 4 C 0.2843 -0.8562 0.3985 0 CFG=2
M  V30 5 C -1.5724 0.5094 -0.2522 0 CFG=2
M  V30 6 C 1.6963 -0.5472 -0.0303 0 CFG=2
M  V30 7 O -0.4157 -1.5166 -0.6327 0
M  V30 8 O -2.7126 0.9187 0.4558 0
M  V30 9 C -1.6969 -0.941 -0.6722 0
M  V30 10 O 2.5628 -0.6681 1.0683 0
M  V30 11 H -0.6021 0.6331 1.7028 0
M  V30 12 H 2.5579 1.442 -0.2863 0
M  V30 13 H 1.3802 0.9532 -1.5594 0
M  V30 14 H 0.2588 -1.4802 1.321 0
M  V30 15 H -1.422 1.1434 -1.1581 0
M  V30 16 H 2.0272 -1.2093 -0.8649 0
M  V30 17 H -2.6398 1.9037 0.557 0
M  V30 18 H -2.108 -1.0132 -1.7018 0
M  V30 19 H -2.3681 -1.5009 0.0176 0
M  V30 20 H 3.4858 -0.6646 0.7026 0
M  V30 END ATOM
M  V30 BEGIN BOND
M  V30 1 1 1 2
M  V30 2 1 1 3
M  V30 3 1 2 4
M  V30 4 1 2 5
M  V30 5 1 3 6
M  V30 6 1 4 7
M  V30 7 1 5 8
M  V30 8 1 5 9
M  V30 9 1 6 10
M  V30 10 1 4 6
M  V30 11 1 7 9
M  V30 12 1 2 11
M  V30 13 1 3 12
M  V30 14 1 3 13
M  V30 15 1 4 14
M  V30 16 1 5 15
M  V30 17 1 6 16
M  V30 18 1 8 17
M  V30 19 1 9 18
M  V30 20 1 9 19
M  V30 21 1 10 20
M  V30 END BOND
M  V30 BEGIN COLLECTION
M  V30 MDLV30/STEABS ATOMS=(4 2 4 5 6)
M  V30 END COLLECTION
M  V30 END CTAB
M  END
>  <Structure No>
2792

>  <LogS>
1.177450183

>  <MMFF94 Energy>
94.994

$$$$
Compound 2793
Actelion Java MolfileCreator 2.0

  0  0  0  0  0  0              0 V3000
M  V30 BEGIN CTAB
M  V30 COUNTS 24 24 0 0 0
M  V30 BEGIN ATOM
M  V30 1 N 3.6045 -0.6894 0.5361 0 CHG=1
M  V30 2 C 2.8889 0.5289 0.1603 0
M  V30 3 C 1.4097 0.2643 0.0489 0
M  V30 4 C 0.8572 -0.166 -1.1672 0
M  V30 5 C 0.5806 0.394 1.1741 0
M  V30 6 C -0.5098 -0.4427 -1.2624 0
M  V30 7 C -0.7864 0.1172 1.0789 0
M  V30 8 C -1.3389 -0.3131 -0.1373 0
M  V30 9 C -2.8181 -0.5777 -0.2487 0
M  V30 10 N -3.5338 0.6406 -0.6244 0 CHG=1
M  V30 11 H 3.4599 -1.4287 -0.1896 0
M  V30 12 H 3.2647 -1.0333 1.4639 0
M  V30 13 H 4.6262 -0.4784 0.6064 0
M  V30 14 H 3.0772 1.3207 0.9195 0
M  V30 15 H 3.2815 0.9071 -0.8097 0
M  V30 16 H 1.4845 -0.2846 -2.042 0
M  V30 17 H 0.9925 0.7116 2.1241 0
M  V30 18 H -0.9218 -0.7603 -2.2124 0
M  V30 19 H -1.4138 0.236 1.9538 0
M  V30 20 H -3.0066 -1.3694 -1.0076 0
M  V30 21 H -3.2109 -0.9558 0.7215 0
M  V30 22 H -3.3892 1.38 0.1013 0
M  V30 23 H -4.5556 0.4298 -0.6947 0
M  V30 24 H -3.1939 0.9846 -1.5521 0
M  V30 END ATOM
M  V30 BEGIN BOND
M  V30 1 1 1 2
M  V30 2 1 2 3
M  V30 3 2 3 4
M  V30 4 1 3 5
M  V30 5 1 4 6
M  V30 6 2 5 7
M  V30 7 2 6 8
M  V30 8 1 8 9
M  V30 9 1 9 10
M  V30 10 1 7 8
M  V30 11 1 1 11
M  V30 12 1 1 12
M  V30 13 1 1 13
M  V30 14 1 2 14
M  V30 15 1 2 15
M  V30 16 1 4 16
M  V30 17 1 5 17
M  V30 18 1 6 18
M  V30 19 1 7 19
M  V30 20 1 9 20
M  V30 21 1 9 21
M  V30 22 1 10 22
M  V30 23 1 10 23
M  V30 24 1 10 24
M  V30 END BOND
M  V30 END CTAB
M  END
>  <Structure No>
2793

>  <LogS>
1.175071806

>  <MMFF94 Energy>
48.276

$$$$
Compound 2794
Actelion Java MolfileCreator 2.0

  0  0  0  0  0  0              0 V3000
M  V30 BEGIN CTAB
M  V30 COUNTS 26 27 0 0 0
M  V30 BEGIN ATOM
M  V30 1 O 0.0 0.2392 1.4358 0
M  V30 2 C -0.5496 0.557 0.1725 0 CFG=1
M  V30 3 C 1.1902 -0.48 1.2176 0
M  V30 4 C 0.3858 0.0952 -0.9223 0 CFG=1
M  V30 5 C -1.822 -0.2141 -0.0938 0 CFG=2
M  V30 6 C 1.6714 -0.2267 -0.198 0 CFG=1
M  V30 7 O -0.1393 -1.0599 -1.5456 0
M  V30 8 O -2.4696 -0.6267 1.0973 0
M  V30 9 C -1.3173 -1.4182 -0.8621 0
M  V30 10 O 2.5326 0.8997 -0.1995 0
M  V30 11 C -3.3243 0.395 1.5616 0
M  V30 12 C 3.4502 0.811 -1.2674 0
M  V30 13 H -0.7292 1.6534 0.1143 0
M  V30 14 H 0.9845 -1.5637 1.3614 0
M  V30 15 H 1.9562 -0.1732 1.9617 0
M  V30 16 H 0.5265 0.8889 -1.6891 0
M  V30 17 H -2.4896 0.3712 -0.7731 0
M  V30 18 H 2.1569 -1.1533 -0.5927 0
M  V30 19 H -2.0825 -1.7624 -1.5903 0
M  V30 20 H -1.0871 -2.2589 -0.1706 0
M  V30 21 H -2.7708 1.3455 1.7306 0
M  V30 22 H -3.7554 0.0807 2.5342 0
M  V30 23 H -4.1682 0.5573 0.8555 0
M  V30 24 H 4.1666 -0.0231 -1.1011 0
M  V30 25 H 4.0337 1.7533 -1.3122 0
M  V30 26 H 2.932 0.6873 -2.2445 0
M  V30 END ATOM
M  V30 BEGIN BOND
M  V30 1 1 1 2
M  V30 2 1 1 3
M  V30 3 1 2 4
M  V30 4 1 2 5
M  V30 5 1 3 6
M  V30 6 1 4 7
M  V30 7 1 5 8
M  V30 8 1 5 9
M  V30 9 1 6 10
M  V30 10 1 8 11
M  V30 11 1 10 12
M  V30 12 1 4 6
M  V30 13 1 7 9
M  V30 14 1 2 13
M  V30 15 1 3 14
M  V30 16 1 3 15
M  V30 17 1 4 16
M  V30 18 1 5 17
M  V30 19 1 6 18
M  V30 20 1 9 19
M  V30 21 1 9 20
M  V30 22 1 11 21
M  V30 23 1 11 22
M  V30 24 1 11 23
M  V30 25 1 12 24
M  V30 26 1 12 25
M  V30 27 1 12 26
M  V30 END BOND
M  V30 BEGIN COLLECTION
M  V30 MDLV30/STEABS ATOMS=(4 2 4 5 6)
M  V30 END COLLECTION
M  V30 END CTAB
M  END
>  <Structure No>
2794

>  <LogS>
1.059991817

>  <MMFF94 Energy>
101.3

$$$$
Compound 2795
Actelion Java MolfileCreator 2.0

  0  0  0  0  0  0              0 V3000
M  V30 BEGIN CTAB
M  V30 COUNTS 38 41 0 0 0
M  V30 BEGIN ATOM
M  V30 1 S -2.6592 -1.6292 2.0583 0
M  V30 2 O -3.941 -2.097 2.6893 0
M  V30 3 O -1.7464 -1.1226 3.1394 0
M  V30 4 O -1.9439 -2.9306 1.2726 0 CHG=-1
M  V30 5 C -2.976 -0.3332 0.8923 0
M  V30 6 C -1.9363 0.2818 0.1455 0
M  V30 7 C -4.3015 0.0936 0.7092 0
M  V30 8 N -0.6253 -0.0952 0.2835 0 CHG=1
M  V30 9 C -2.2631 1.3118 -0.7708 0
M  V30 10 C -4.6109 1.1171 -0.1919 0
M  V30 11 C 0.3792 0.4928 -0.4325 0
M  V30 12 C -3.593 1.7193 -0.9346 0
M  V30 13 C -1.2443 1.9178 -1.5118 0
M  V30 14 S -6.2831 1.6246 -0.4111 0
M  V30 15 C 0.0754 1.5113 -1.3446 0
M  V30 16 C 1.7828 0.0608 -0.2428 0 CHG=-1
M  V30 17 O -6.3303 3.0712 -0.8164 0
M  V30 18 O -7.0397 1.4602 0.8771 0
M  V30 19 O -6.9995 0.6855 -1.6049 0 CHG=-1
M  V30 20 C 2.3971 -0.4524 0.9898 0
M  V30 21 C 2.8592 0.0468 -1.2441 0
M  V30 22 O 1.8339 -0.5645 2.1107 0
M  V30 23 C 3.796 -0.7594 0.7118 0
M  V30 24 O 2.7519 0.3717 -2.456 0
M  V30 25 C 4.07 -0.4616 -0.6086 0
M  V30 26 C 4.7798 -1.2655 1.5613 0
M  V30 27 C 5.3405 -0.6598 -1.1491 0
M  V30 28 C 6.0678 -1.4717 1.0381 0
M  V30 29 C 6.3469 -1.1706 -0.3112 0
M  V30 30 H -5.1024 -0.3715 1.2687 0
M  V30 31 H -0.3695 -0.8695 0.9307 0
M  V30 32 H -3.8376 2.5036 -1.6416 0
M  V30 33 H -1.4676 2.7107 -2.2162 0
M  V30 34 H 0.8535 2.008 -1.9088 0
M  V30 35 H 4.5588 -1.4946 2.5959 0
M  V30 36 H 5.5479 -0.4264 -2.1853 0
M  V30 37 H 6.8501 -1.8641 1.6746 0
M  V30 38 H 7.3419 -1.3335 -0.7041 0
M  V30 END ATOM
M  V30 BEGIN BOND
M  V30 1 2 1 2
M  V30 2 2 1 3
M  V30 3 1 1 4
M  V30 4 1 1 5
M  V30 5 1 5 6
M  V30 6 2 5 7
M  V30 7 2 6 8
M  V30 8 1 6 9
M  V30 9 1 7 10
M  V30 10 1 8 11
M  V30 11 1 9 12
M  V30 12 2 9 13
M  V30 13 1 10 14
M  V30 14 2 11 15
M  V30 15 1 11 16
M  V30 16 2 14 17
M  V30 17 2 14 18
M  V30 18 1 14 19
M  V30 19 1 16 20
M  V30 20 1 16 21
M  V30 21 2 20 22
M  V30 22 1 20 23
M  V30 23 2 21 24
M  V30 24 1 21 25
M  V30 25 1 23 26
M  V30 26 1 25 27
M  V30 27 2 26 28
M  V30 28 2 27 29
M  V30 29 2 10 12
M  V30 30 1 13 15
M  V30 31 2 23 25
M  V30 32 1 28 29
M  V30 33 1 7 30
M  V30 34 1 8 31
M  V30 35 1 12 32
M  V30 36 1 13 33
M  V30 37 1 15 34
M  V30 38 1 26 35
M  V30 39 1 27 36
M  V30 40 1 28 37
M  V30 41 1 29 38
M  V30 END BOND
M  V30 END CTAB
M  END
>  <Structure No>
2795

>  <LogS>
-0.377836954

>  <MMFF94 Energy>
-43.169

$$$$
Compound 2796
Actelion Java MolfileCreator 2.0

  0  0  0  0  0  0              0 V3000
M  V30 BEGIN CTAB
M  V30 COUNTS 34 34 0 0 0
M  V30 BEGIN ATOM
M  V30 1 S -4.5075 0.9002 0.0 0
M  V30 2 O -4.9147 1.5278 1.3039 0
M  V30 3 O -5.3302 -0.3375 -0.2205 0
M  V30 4 O -4.8019 2.0036 -1.2321 0 CHG=-1
M  V30 5 C -2.788 0.473 0.0303 0
M  V30 6 C -2.1151 0.0187 -1.127 0
M  V30 7 C -2.0821 0.5877 1.2375 0
M  V30 8 C -0.7472 -0.2873 -1.0512 0
M  V30 9 C -2.8136 -0.0974 -2.4568 0
M  V30 10 C -0.7148 0.2653 1.312 0
M  V30 11 C -0.0478 -0.187 0.1618 0
M  V30 12 O 0.0088 0.3735 2.5114 0
M  V30 13 N 1.3582 -0.4856 0.2239 0
M  V30 14 C -0.5369 0.8157 3.7502 0
M  V30 15 C 1.9768 -1.5677 -0.4897 0
M  V30 16 O 1.2745 -2.4474 -1.0579 0
M  V30 17 C 3.4701 -1.6609 -0.5576 0
M  V30 18 C 4.0068 -0.6503 -1.5305 0
M  V30 19 O 3.7867 -0.7824 -2.7254 0
M  V30 20 C 4.8149 0.5155 -1.0467 0
M  V30 21 H -2.6023 0.9296 2.1207 0
M  V30 22 H -0.2178 -0.5833 -1.948 0
M  V30 23 H -3.0083 0.915 -2.8665 0
M  V30 24 H -2.1972 -0.6561 -3.1929 0
M  V30 25 H -3.7711 -0.6465 -2.3474 0
M  V30 26 H 1.9567 0.0738 0.8729 0
M  V30 27 H 0.2599 0.8039 4.5217 0
M  V30 28 H -1.3532 0.1352 4.0727 0
M  V30 29 H -0.9193 1.8536 3.6505 0
M  V30 30 H 3.7797 -2.6797 -0.8766 0
M  V30 31 H 3.8909 -1.4842 0.4557 0
M  V30 32 H 5.1143 1.1656 -1.8964 0
M  V30 33 H 4.2128 1.1151 -0.3323 0
M  V30 34 H 5.7298 0.1487 -0.536 0
M  V30 END ATOM
M  V30 BEGIN BOND
M  V30 1 2 1 2
M  V30 2 2 1 3
M  V30 3 1 1 4
M  V30 4 1 1 5
M  V30 5 2 5 6
M  V30 6 1 5 7
M  V30 7 1 6 8
M  V30 8 1 6 9
M  V30 9 2 7 10
M  V30 10 2 8 11
M  V30 11 1 10 12
M  V30 12 1 11 13
M  V30 13 1 12 14
M  V30 14 1 13 15
M  V30 15 2 15 16
M  V30 16 1 15 17
M  V30 17 1 17 18
M  V30 18 2 18 19
M  V30 19 1 18 20
M  V30 20 1 10 11
M  V30 21 1 7 21
M  V30 22 1 8 22
M  V30 23 1 9 23
M  V30 24 1 9 24
M  V30 25 1 9 25
M  V30 26 1 13 26
M  V30 27 1 14 27
M  V30 28 1 14 28
M  V30 29 1 14 29
M  V30 30 1 17 30
M  V30 31 1 17 31
M  V30 32 1 20 32
M  V30 33 1 20 33
M  V30 34 1 20 34
M  V30 END BOND
M  V30 END CTAB
M  END
>  <Structure No>
2796

>  <LogS>
-0.201876223

>  <MMFF94 Energy>
29.555

$$$$
Compound 2797
Actelion Java MolfileCreator 2.0

  0  0  0  0  0  0              0 V3000
M  V30 BEGIN CTAB
M  V30 COUNTS 96 102 0 0 0
M  V30 BEGIN ATOM
M  V30 1 S 6.0508 0.9357 -4.3437 0
M  V30 2 O 6.0342 1.3138 -5.8004 0
M  V30 3 O 6.3779 -0.5241 -4.2289 0
M  V30 4 O 7.2302 1.8407 -3.5585 0 CHG=-1
M  V30 5 C 4.4765 1.2496 -3.5989 0
M  V30 6 C 4.1667 0.688 -2.2596 0
M  V30 7 C 3.5622 1.9627 -4.2705 0
M  V30 8 N 5.1125 0.0288 -1.6429 0
M  V30 9 C 2.815 0.9468 -1.6815 0
M  V30 10 C 2.232 2.2764 -3.7056 0
M  V30 11 N 5.0037 -0.6623 -0.4224 0
M  V30 12 O 2.4501 0.3769 -0.6228 0
M  V30 13 C 1.8739 1.8491 -2.4068 0
M  V30 14 C 1.3293 3.0145 -4.4821 0
M  V30 15 C 6.1901 -1.051 0.2864 0
M  V30 16 C 0.6115 2.2422 -1.8786 0
M  V30 17 C 0.0679 3.3443 -3.9835 0
M  V30 18 C 6.122 -2.0492 1.2716 0
M  V30 19 C 7.4316 -0.4598 -0.0087 0
M  V30 20 N 0.2418 1.987 -0.5145 0
M  V30 21 C -0.2837 2.9615 -2.6885 0
M  V30 22 S -1.0829 4.242 -4.9708 0
M  V30 23 C 7.2776 -2.4759 1.9287 0
M  V30 24 C 8.5862 -0.8841 0.652 0
M  V30 25 N -1.1034 1.7182 -0.2007 0
M  V30 26 O -0.3914 4.8564 -6.1547 0
M  V30 27 O -1.6973 5.3395 -4.151 0
M  V30 28 O -2.2849 3.1994 -5.5099 0 CHG=-1
M  V30 29 C 8.5211 -1.9183 1.6059 0
M  V30 30 C -1.67 1.7008 0.975 0
M  V30 31 N 9.7058 -2.4055 2.2592 0
M  V30 32 C -0.9808 1.9955 2.2749 0
M  V30 33 C -3.1243 1.4277 1.0012 0
M  V30 34 C 10.9963 -2.4554 1.6212 0
M  V30 35 O 0.3881 2.2063 2.3661 0 CHG=-1
M  V30 36 C -1.6957 2.0636 3.4058 0
M  V30 37 C -3.8363 1.5189 2.138 0
M  V30 38 C 12.1803 -2.2 2.3487 0
M  V30 39 C 11.0896 -2.7956 0.2611 0
M  V30 40 C -3.1509 1.8511 3.3992 0
M  V30 41 N -5.26 1.3388 2.1485 0
M  V30 42 S 12.1272 -1.7662 4.0617 0
M  V30 43 C 13.4255 -2.2719 1.6963 0
M  V30 44 C 12.327 -2.8393 -0.3803 0
M  V30 45 O -3.8065 1.9499 4.4715 0
M  V30 46 N -5.8918 0.8502 1.1577 0
M  V30 47 O 11.0793 -0.7096 4.2873 0
M  V30 48 O 13.4577 -1.2254 4.5025 0
M  V30 49 O 11.7609 -3.1263 4.9768 0 CHG=-1
M  V30 50 C 13.5079 -2.5776 0.3281 0
M  V30 51 C -7.3184 0.7216 1.1551 0
M  V30 52 N 14.7843 -2.6113 -0.3405 0 CHG=1
M  V30 53 C -8.1199 1.4239 2.0741 0
M  V30 54 C -7.929 -0.0791 0.1833 0
M  V30 55 O 14.8467 -2.6676 -1.5886 0
M  V30 56 O 15.9554 -2.5391 0.3787 0 CHG=-1
M  V30 57 C -9.5114 1.3164 2.0175 0
M  V30 58 C -9.3192 -0.2109 0.1487 0
M  V30 59 C -10.1224 0.4815 1.0732 0
M  V30 60 N -11.5552 0.3932 1.0289 0
M  V30 61 C -12.2565 -0.7744 0.564 0
M  V30 62 C -13.4022 -0.6522 -0.2471 0
M  V30 63 C -11.8296 -2.0506 0.965 0
M  V30 64 S -13.9505 0.93 -0.8066 0
M  V30 65 C -14.0977 -1.8055 -0.6458 0
M  V30 66 C -12.5223 -3.1909 0.5601 0
M  V30 67 O -14.5741 1.6867 0.3337 0
M  V30 68 O -14.965 0.7709 -1.9038 0
M  V30 69 O -12.6459 1.7911 -1.4149 0 CHG=-1
M  V30 70 C -13.6625 -3.0811 -0.2504 0
M  V30 71 N -14.3828 -4.2592 -0.6601 0 CHG=1
M  V30 72 O -13.9815 -5.3954 -0.3324 0
M  V30 73 O -15.5459 -4.1533 -1.3872 0 CHG=-1
M  V30 74 H 3.8019 2.3419 -5.2581 0
M  V30 75 H 4.1097 -1.1243 -0.1569 0
M  V30 76 H 1.6083 3.3224 -5.4817 0
M  V30 77 H 5.1737 -2.5118 1.5164 0
M  V30 78 H 7.508 0.3265 -0.7497 0
M  V30 79 H 0.9818 2.0335 0.2094 0
M  V30 80 H -1.2494 3.2559 -2.2981 0
M  V30 81 H 7.2056 -3.2584 2.6737 0
M  V30 82 H 9.5335 -0.4121 0.4213 0
M  V30 83 H 9.6081 -2.829 3.21 0
M  V30 84 H -3.6226 1.1964 0.0669 0
M  V30 85 H -1.1977 2.2799 4.346 0
M  V30 86 H 10.1976 -3.0277 -0.3106 0
M  V30 87 H 14.3319 -2.0625 2.2504 0
M  V30 88 H 12.3579 -3.0883 -1.4367 0
M  V30 89 H -7.6705 2.0759 2.8129 0
M  V30 90 H -7.3259 -0.6097 -0.5429 0
M  V30 91 H -10.1143 1.8751 2.7223 0
M  V30 92 H -9.7656 -0.8229 -0.6239 0
M  V30 93 H -12.1096 1.1787 1.4261 0
M  V30 94 H -10.9671 -2.1651 1.6131 0
M  V30 95 H -14.9766 -1.7134 -1.2715 0
M  V30 96 H -12.1657 -4.1568 0.8899 0
M  V30 END ATOM
M  V30 BEGIN BOND
M  V30 1 2 1 2
M  V30 2 2 1 3
M  V30 3 1 1 4
M  V30 4 1 1 5
M  V30 5 1 5 6
M  V30 6 2 5 7
M  V30 7 2 6 8
M  V30 8 1 6 9
M  V30 9 1 7 10
M  V30 10 1 8 11
M  V30 11 2 9 12
M  V30 12 1 9 13
M  V30 13 1 10 14
M  V30 14 1 11 15
M  V30 15 1 13 16
M  V30 16 2 14 17
M  V30 17 2 15 18
M  V30 18 1 15 19
M  V30 19 1 16 20
M  V30 20 2 16 21
M  V30 21 1 17 22
M  V30 22 1 18 23
M  V30 23 2 19 24
M  V30 24 1 20 25
M  V30 25 2 22 26
M  V30 26 2 22 27
M  V30 27 1 22 28
M  V30 28 2 23 29
M  V30 29 2 25 30
M  V30 30 1 29 31
M  V30 31 1 30 32
M  V30 32 1 30 33
M  V30 33 1 31 34
M  V30 34 1 32 35
M  V30 35 2 32 36
M  V30 36 2 33 37
M  V30 37 2 34 38
M  V30 38 1 34 39
M  V30 39 1 36 40
M  V30 40 1 37 41
M  V30 41 1 38 42
M  V30 42 1 38 43
M  V30 43 2 39 44
M  V30 44 2 40 45
M  V30 45 2 41 46
M  V30 46 2 42 47
M  V30 47 2 42 48
M  V30 48 1 42 49
M  V30 49 2 43 50
M  V30 50 1 46 51
M  V30 51 1 50 52
M  V30 52 2 51 53
M  V30 53 1 51 54
M  V30 54 2 52 55
M  V30 55 1 52 56
M  V30 56 1 53 57
M  V30 57 2 54 58
M  V30 58 2 57 59
M  V30 59 1 59 60
M  V30 60 1 60 61
M  V30 61 2 61 62
M  V30 62 1 61 63
M  V30 63 1 62 64
M  V30 64 1 62 65
M  V30 65 2 63 66
M  V30 66 2 64 67
M  V30 67 2 64 68
M  V30 68 1 64 69
M  V30 69 2 65 70
M  V30 70 1 70 71
M  V30 71 2 71 72
M  V30 72 1 71 73
M  V30 73 2 10 13
M  V30 74 1 17 21
M  V30 75 1 24 29
M  V30 76 1 37 40
M  V30 77 1 44 50
M  V30 78 1 58 59
M  V30 79 1 66 70
M  V30 80 1 7 74
M  V30 81 1 11 75
M  V30 82 1 14 76
M  V30 83 1 18 77
M  V30 84 1 19 78
M  V30 85 1 20 79
M  V30 86 1 21 80
M  V30 87 1 23 81
M  V30 88 1 24 82
M  V30 89 1 31 83
M  V30 90 1 33 84
M  V30 91 1 36 85
M  V30 92 1 39 86
M  V30 93 1 43 87
M  V30 94 1 44 88
M  V30 95 1 53 89
M  V30 96 1 54 90
M  V30 97 1 57 91
M  V30 98 1 58 92
M  V30 99 1 60 93
M  V30 100 1 63 94
M  V30 101 1 65 95
M  V30 102 1 66 96
M  V30 END BOND
M  V30 END CTAB
M  END
>  <Structure No>
2797

>  <LogS>
-0.76675145

>  <MMFF94 Energy>
554.56

$$$$
Compound 2798
Actelion Java MolfileCreator 2.0

  0  0  0  0  0  0              0 V3000
M  V30 BEGIN CTAB
M  V30 COUNTS 66 71 0 0 0
M  V30 BEGIN ATOM
M  V30 1 S -6.5898 -0.1664 2.2486 0
M  V30 2 O -7.0062 0.4348 0.9358 0
M  V30 3 O -7.2305 0.6429 3.3429 0
M  V30 4 O -7.1421 -1.7522 2.3629 0 CHG=-1
M  V30 5 C -4.8202 -0.1135 2.4269 0
M  V30 6 C -3.8954 -0.2273 1.339 0
M  V30 7 C -4.343 0.215 3.7048 0
M  V30 8 C -4.2435 -0.7514 0.0581 0
M  V30 9 C -2.5485 0.208 1.549 0
M  V30 10 C -3.0078 0.5265 3.9131 0
M  V30 11 N -5.4004 -1.5835 -0.1244 0
M  V30 12 C -3.3247 -0.6675 -0.9985 0
M  V30 13 C -1.6476 0.288 0.463 0
M  V30 14 C -2.1241 0.563 2.8426 0
M  V30 15 C -6.2361 -1.5606 -1.2979 0
M  V30 16 C -2.064 -0.1221 -0.8099 0
M  V30 17 N -0.3055 0.7595 0.6615 0
M  V30 18 C -6.3039 -0.4264 -2.1317 0
M  V30 19 C -7.0389 -2.6737 -1.5944 0
M  V30 20 N 0.4197 1.1273 -0.3181 0
M  V30 21 C -7.1377 -0.4243 -3.2554 0
M  V30 22 C -7.8714 -2.6681 -2.7204 0
M  V30 23 C 1.7817 1.5503 -0.1655 0
M  V30 24 C -7.9173 -1.5461 -3.5515 0
M  V30 25 C 2.428 2.2294 -1.222 0
M  V30 26 C 2.4924 1.2671 1.0126 0
M  V30 27 C 3.7895 2.6135 -1.0867 0
M  V30 28 C 1.7369 2.5495 -2.4087 0
M  V30 29 C 3.8333 1.6295 1.135 0
M  V30 30 C 4.4941 2.2875 0.0904 0
M  V30 31 C 4.4203 3.2999 -2.143 0
M  V30 32 C 2.379 3.2345 -3.4396 0
M  V30 33 N 5.8705 2.669 0.2484 0
M  V30 34 C 3.715 3.6096 -3.308 0
M  V30 35 N 6.8292 1.8617 0.5109 0
M  V30 36 C 6.7227 0.4286 0.5446 0
M  V30 37 C 7.3835 -0.2814 1.5561 0
M  V30 38 C 6.0556 -0.2806 -0.4716 0
M  V30 39 C 7.3325 -1.682 1.5918 0
M  V30 40 C 6.0069 -1.6762 -0.4397 0
M  V30 41 S 8.1629 -2.5577 2.8734 0
M  V30 42 C 6.6402 -2.3762 0.5899 0
M  V30 43 O 7.5998 -3.9453 2.9983 0
M  V30 44 O 7.9727 -1.8395 4.1806 0
M  V30 45 O 9.8016 -2.6506 2.5168 0 CHG=-1
M  V30 46 H -5.0199 0.2641 4.5487 0
M  V30 47 H -2.6619 0.7891 4.9031 0
M  V30 48 H -5.5425 -2.3501 0.5698 0
M  V30 49 H -3.5623 -1.0881 -1.9681 0
M  V30 50 H -1.1026 0.8632 3.041 0
M  V30 51 H -1.384 -0.0937 -1.6515 0
M  V30 52 H -5.727 0.4606 -1.9066 0
M  V30 53 H -7.01 -3.5458 -0.9535 0
M  V30 54 H -7.183 0.4506 -3.8931 0
M  V30 55 H -8.4816 -3.5311 -2.9511 0
M  V30 56 H -8.5631 -1.5444 -4.4215 0
M  V30 57 H 2.0132 0.7496 1.8368 0
M  V30 58 H 0.6988 2.277 -2.5445 0
M  V30 59 H 4.3645 1.3931 2.0494 0
M  V30 60 H 5.4567 3.604 -2.0738 0
M  V30 61 H 1.8356 3.4836 -4.3431 0
M  V30 62 H 4.209 4.1376 -4.1127 0
M  V30 63 H 7.9294 0.2573 2.3206 0
M  V30 64 H 5.5928 0.2375 -1.3024 0
M  V30 65 H 5.4856 -2.2153 -1.2206 0
M  V30 66 H 6.6016 -3.4579 0.5958 0
M  V30 END ATOM
M  V30 BEGIN BOND
M  V30 1 2 1 2
M  V30 2 2 1 3
M  V30 3 1 1 4
M  V30 4 1 1 5
M  V30 5 1 5 6
M  V30 6 2 5 7
M  V30 7 2 6 8
M  V30 8 1 6 9
M  V30 9 1 7 10
M  V30 10 1 8 11
M  V30 11 1 8 12
M  V30 12 2 9 13
M  V30 13 1 9 14
M  V30 14 1 11 15
M  V30 15 2 12 16
M  V30 16 1 13 17
M  V30 17 2 15 18
M  V30 18 1 15 19
M  V30 19 2 17 20
M  V30 20 1 18 21
M  V30 21 2 19 22
M  V30 22 1 20 23
M  V30 23 2 21 24
M  V30 24 1 23 25
M  V30 25 2 23 26
M  V30 26 1 25 27
M  V30 27 2 25 28
M  V30 28 1 26 29
M  V30 29 1 27 30
M  V30 30 2 27 31
M  V30 31 1 28 32
M  V30 32 1 30 33
M  V30 33 1 31 34
M  V30 34 2 33 35
M  V30 35 1 35 36
M  V30 36 2 36 37
M  V30 37 1 36 38
M  V30 38 1 37 39
M  V30 39 2 38 40
M  V30 40 1 39 41
M  V30 41 2 39 42
M  V30 42 2 41 43
M  V30 43 2 41 44
M  V30 44 1 41 45
M  V30 45 2 10 14
M  V30 46 1 13 16
M  V30 47 1 22 24
M  V30 48 2 29 30
M  V30 49 2 32 34
M  V30 50 1 40 42
M  V30 51 1 7 46
M  V30 52 1 10 47
M  V30 53 1 11 48
M  V30 54 1 12 49
M  V30 55 1 14 50
M  V30 56 1 16 51
M  V30 57 1 18 52
M  V30 58 1 19 53
M  V30 59 1 21 54
M  V30 60 1 22 55
M  V30 61 1 24 56
M  V30 62 1 26 57
M  V30 63 1 28 58
M  V30 64 1 29 59
M  V30 65 1 31 60
M  V30 66 1 32 61
M  V30 67 1 34 62
M  V30 68 1 37 63
M  V30 69 1 38 64
M  V30 70 1 40 65
M  V30 71 1 42 66
M  V30 END BOND
M  V30 END CTAB
M  END
>  <Structure No>
2798

>  <LogS>
-0.532539726

>  <MMFF94 Energy>
187.25

$$$$
Compound 2799
Actelion Java MolfileCreator 2.0

  0  0  0  0  0  0              0 V3000
M  V30 BEGIN CTAB
M  V30 COUNTS 64 63 0 0 0
M  V30 BEGIN ATOM
M  V30 1 N -3.5606 -0.3092 -0.2319 0
M  V30 2 C -4.5441 -1.2404 -0.8477 0
M  V30 3 C -4.0671 0.9938 0.2561 0
M  V30 4 C -2.4333 -0.9056 0.5062 0
M  V30 5 C -5.7882 -1.5497 0.034 0
M  V30 6 C -3.2085 2.1351 -0.3105 0
M  V30 7 C -1.249 -1.0491 -0.4473 0
M  V30 8 C -5.4928 -2.3799 1.2989 0
M  V30 9 C -3.2903 2.1805 -1.8514 0
M  V30 10 C 0.0107 -1.6238 0.2242 0
M  V30 11 N -5.1047 -3.7565 0.9734 0 CHG=1
M  V30 12 N -2.5188 3.3027 -2.3929 0 CHG=1
M  V30 13 C 0.707 -0.611 1.1495 0
M  V30 14 C 2.0951 -1.1146 1.5691 0
M  V30 15 C 2.8069 -0.1655 2.5493 0
M  V30 16 C 3.0568 1.2626 2.0202 0
M  V30 17 C 3.8261 1.3433 0.6906 0
M  V30 18 C 5.2639 0.8146 0.7979 0
M  V30 19 C 6.0261 1.0205 -0.5161 0
M  V30 20 C 7.4616 0.5023 -0.4072 0
M  V30 21 C 8.2409 0.7755 -1.6978 0
M  V30 22 H -4.0451 -2.1903 -1.1464 0
M  V30 23 H -4.898 -0.7724 -1.8042 0
M  V30 24 H -5.1104 1.174 -0.076 0
M  V30 25 H -4.057 1.0292 1.369 0
M  V30 26 H -2.7021 -1.9044 0.8963 0
M  V30 27 H -2.1378 -0.2698 1.3691 0
M  V30 28 H -6.2999 -0.6152 0.346 0
M  V30 29 H -6.5206 -2.0991 -0.6026 0
M  V30 30 H -2.1527 2.0094 0.0125 0
M  V30 31 H -3.5731 3.0972 0.1135 0
M  V30 32 H -1.0124 -0.0673 -0.9025 0
M  V30 33 H -1.5568 -1.7237 -1.2744 0
M  V30 34 H -4.7068 -1.8915 1.9244 0
M  V30 35 H -6.4212 -2.4016 1.9217 0
M  V30 36 H -4.3543 2.2797 -2.1721 0
M  V30 37 H -2.8983 1.2304 -2.2799 0
M  V30 38 H 0.7187 -1.9025 -0.5896 0
M  V30 39 H -0.236 -2.5519 0.7897 0
M  V30 40 H -5.0756 -4.3193 1.8524 0
M  V30 41 H -4.1483 -3.7839 0.5445 0
M  V30 42 H -5.8031 -4.1869 0.3183 0
M  V30 43 H -2.8455 4.211 -1.9777 0
M  V30 44 H -1.5028 3.1615 -2.1834 0
M  V30 45 H -2.6532 3.3372 -3.4302 0
M  V30 46 H 0.82 0.3518 0.6034 0
M  V30 47 H 0.094 -0.4544 2.0651 0
M  V30 48 H 1.9711 -2.1003 2.0686 0
M  V30 49 H 2.7346 -1.2753 0.6764 0
M  V30 50 H 3.7757 -0.6257 2.8361 0
M  V30 51 H 2.2049 -0.0877 3.4819 0
M  V30 52 H 2.0862 1.7896 1.8943 0
M  V30 53 H 3.6167 1.823 2.7988 0
M  V30 54 H 3.2716 0.8086 -0.1053 0
M  V30 55 H 3.8597 2.4106 0.3855 0
M  V30 56 H 5.25 -0.2692 1.0355 0
M  V30 57 H 5.797 1.3482 1.6138 0
M  V30 58 H 5.5028 0.4711 -1.3262 0
M  V30 59 H 6.0523 2.1021 -0.769 0
M  V30 60 H 7.4446 -0.5937 -0.2078 0
M  V30 61 H 7.9784 1.0032 0.4436 0
M  V30 62 H 8.3508 1.8813 -1.8637 0
M  V30 63 H 7.7162 0.3235 -2.5846 0
M  V30 64 H 9.261 0.326 -1.617 0
M  V30 END ATOM
M  V30 BEGIN BOND
M  V30 1 1 1 2
M  V30 2 1 1 3
M  V30 3 1 1 4
M  V30 4 1 2 5
M  V30 5 1 3 6
M  V30 6 1 4 7
M  V30 7 1 5 8
M  V30 8 1 6 9
M  V30 9 1 7 10
M  V30 10 1 8 11
M  V30 11 1 9 12
M  V30 12 1 10 13
M  V30 13 1 13 14
M  V30 14 1 14 15
M  V30 15 1 15 16
M  V30 16 1 16 17
M  V30 17 1 17 18
M  V30 18 1 18 19
M  V30 19 1 19 20
M  V30 20 1 20 21
M  V30 21 1 2 22
M  V30 22 1 2 23
M  V30 23 1 3 24
M  V30 24 1 3 25
M  V30 25 1 4 26
M  V30 26 1 4 27
M  V30 27 1 5 28
M  V30 28 1 5 29
M  V30 29 1 6 30
M  V30 30 1 6 31
M  V30 31 1 7 32
M  V30 32 1 7 33
M  V30 33 1 8 34
M  V30 34 1 8 35
M  V30 35 1 9 36
M  V30 36 1 9 37
M  V30 37 1 10 38
M  V30 38 1 10 39
M  V30 39 1 11 40
M  V30 40 1 11 41
M  V30 41 1 11 42
M  V30 42 1 12 43
M  V30 43 1 12 44
M  V30 44 1 12 45
M  V30 45 1 13 46
M  V30 46 1 13 47
M  V30 47 1 14 48
M  V30 48 1 14 49
M  V30 49 1 15 50
M  V30 50 1 15 51
M  V30 51 1 16 52
M  V30 52 1 16 53
M  V30 53 1 17 54
M  V30 54 1 17 55
M  V30 55 1 18 56
M  V30 56 1 18 57
M  V30 57 1 19 58
M  V30 58 1 19 59
M  V30 59 1 20 60
M  V30 60 1 20 61
M  V30 61 1 21 62
M  V30 62 1 21 63
M  V30 63 1 21 64
M  V30 END BOND
M  V30 END CTAB
M  END
>  <Structure No>
2799

>  <LogS>
-0.197711374

>  <MMFF94 Energy>
56.796

$$$$
Compound 2800
Actelion Java MolfileCreator 2.0

  0  0  0  0  0  0              0 V3000
M  V30 BEGIN CTAB
M  V30 COUNTS 146 147 0 0 0
M  V30 BEGIN ATOM
M  V30 1 S -7.7944 3.1283 -0.8014 0
M  V30 2 O -8.6784 4.2545 -1.2596 0
M  V30 3 O -7.289 2.3886 -2.008 0
M  V30 4 O -6.5002 3.7793 0.0516 0 CHG=-1
M  V30 5 C -8.6964 2.0129 0.2447 0
M  V30 6 C -8.0907 0.8748 0.8415 0
M  V30 7 C -10.0593 2.2636 0.4667 0
M  V30 8 C -8.8766 0.0225 1.6614 0
M  V30 9 C -6.7317 0.5521 0.6419 0
M  V30 10 C -10.8235 1.4224 1.2818 0
M  V30 11 C -10.232 0.3059 1.8763 0
M  V30 12 C -8.3039 -1.1132 2.2499 0
M  V30 13 C -6.1723 -0.5988 1.2263 0
M  V30 14 S -12.5395 1.7334 1.5258 0
M  V30 15 C -6.9651 -1.4231 2.0256 0
M  V30 16 N -4.8026 -0.9603 1.0146 0
M  V30 17 O -12.8361 3.1915 1.3228 0
M  V30 18 O -12.9274 1.3568 2.9283 0
M  V30 19 O -13.4346 0.8243 0.4339 0 CHG=-1
M  V30 20 N -3.9785 -0.1899 0.4239 0
M  V30 21 C -2.6132 -0.56 0.2017 0
M  V30 22 C -1.727 0.3991 -0.3003 0
M  V30 23 C -2.1485 -1.8582 0.4749 0
M  V30 24 C -0.3735 0.0793 -0.5197 0
M  V30 25 C -0.8096 -2.186 0.254 0
M  V30 26 O 0.5446 1.0255 -1.0049 0
M  V30 27 C 0.0846 -1.2216 -0.2344 0
M  V30 28 C 0.2409 2.3957 -1.2452 0
M  V30 29 N 1.4624 -1.5513 -0.4649 0
M  V30 30 C 2.3076 -2.116 0.5555 0
M  V30 31 O 1.798 -2.5708 1.6144 0
M  V30 32 C 3.7818 -2.0578 0.4269 0
M  V30 33 C 4.4021 -2.0924 -0.8341 0
M  V30 34 C 4.5775 -1.884 1.5738 0
M  V30 35 C 5.7787 -1.8835 -0.9505 0
M  V30 36 C 5.9536 -1.6691 1.454 0
M  V30 37 C 6.5569 -1.6387 0.1905 0
M  V30 38 N 7.9367 -1.2794 0.0847 0 CHG=-1
M  V30 39 N 8.6207 -1.3011 -1.1397 0
M  V30 40 C 9.7635 -0.707 -1.3376 0
M  V30 41 C 10.4078 -0.8244 -2.6555 0
M  V30 42 C 10.4295 0.1338 -0.3126 0
M  V30 43 O 9.8842 -1.5317 -3.5592 0
M  V30 44 N 11.6398 -0.1436 -2.9176 0
M  V30 45 O 9.9449 0.2602 0.8439 0
M  V30 46 N 11.6364 0.833 -0.6395 0
M  V30 47 C 12.2616 0.6807 -1.9274 0
M  V30 48 N 13.3935 1.2602 -2.2094 0
M  V30 49 C 14.0688 2.1277 -1.3382 0
M  V30 50 N 14.6287 2.8428 -0.6194 0
M  V30 51 O -1.1957 2.0181 1.7206 0
M  V30 52 C -1.4613 2.1824 0.3529 0
M  V30 53 C -0.3487 1.5662 -0.5198 0
M  V30 54 N -0.0123 0.1557 -0.1767 0 CHG=1
M  V30 55 C -1.1131 -0.7659 -0.5668 0
M  V30 56 C 1.2736 -0.231 -0.8412 0
M  V30 57 C -0.9277 -2.1796 0.0158 0
M  V30 58 C 2.3351 -0.6884 0.1712 0
M  V30 59 O -1.9896 -3.0075 -0.3724 0
M  V30 60 O 2.6736 0.3567 1.0429 0
M  V30 61 O 2.9778 -0.5319 0.873 0
M  V30 62 C 2.257 -1.5806 0.2828 0
M  V30 63 C 0.7432 -1.4054 0.4966 0
M  V30 64 N 0.1856 -0.2244 -0.2256 0 CHG=1
M  V30 65 C 0.109 0.958 0.6751 0
M  V30 66 C -1.1117 -0.554 -0.879 0
M  V30 67 C -0.2036 2.2715 -0.0572 0
M  V30 68 C -2.2694 -0.8705 0.0939 0
M  V30 69 O 0.7735 2.5335 -1.0257 0
M  V30 70 O -2.8905 0.3022 0.5465 0
M  V30 71 O 3.7516 0.0084 0.1064 0
M  V30 72 C 2.4805 -0.339 -0.3725 0
M  V30 73 C 1.3936 0.3951 0.4314 0
M  V30 74 N 0.0214 0.0368 -0.0228 0 CHG=1
M  V30 75 C -0.9285 1.1424 0.2884 0
M  V30 76 C -0.4218 -1.2282 0.6263 0
M  V30 77 C -0.9508 2.2096 -0.8173 0
M  V30 78 C -1.4832 -1.9641 -0.2083 0
M  V30 79 O -1.7867 3.2717 -0.4469 0
M  V30 80 O -1.8558 -3.1564 0.427 0
M  V30 81 H -10.5372 3.1174 0.0032 0
M  V30 82 H -6.1008 1.1684 0.0193 0
M  V30 83 H -10.8325 -0.3475 2.4957 0
M  V30 84 H -8.8947 -1.7677 2.8792 0
M  V30 85 H -6.5388 -2.3084 2.4802 0
M  V30 86 H -2.1029 1.3912 -0.508 0
M  V30 87 H -2.8223 -2.6227 0.8441 0
M  V30 88 H -0.4741 -3.1968 0.4482 0
M  V30 89 H -0.5388 2.4861 -2.0306 0
M  V30 90 H -0.098 2.8818 -0.3065 0
M  V30 91 H 1.1584 2.9088 -1.5978 0
M  V30 92 H 1.907 -1.1421 -1.3143 0
M  V30 93 H 3.8256 -2.2629 -1.7356 0
M  V30 94 H 4.125 -1.8559 2.5564 0
M  V30 95 H 6.2245 -1.8702 -1.9388 0
M  V30 96 H 6.5459 -1.4891 2.343 0
M  V30 97 H 12.0889 -0.248 -3.8544 0
M  V30 98 H 12.0643 1.439 0.0954 0
M  V30 99 H -0.4219 2.6058 1.9306 0
M  V30 100 H -1.5501 3.2666 0.1153 0
M  V30 101 H -2.4477 1.7348 0.1175 0
M  V30 102 H 0.5488 2.2097 -0.3743 0
M  V30 103 H -0.6396 1.6441 -1.591 0
M  V30 104 H 0.0962 0.1013 0.8647 0
M  V30 105 H -1.2002 -0.8229 -1.6764 0
M  V30 106 H -2.0861 -0.3968 -0.1794 0
M  V30 107 H 1.1315 -1.0478 -1.5837 0
M  V30 108 H 1.7103 0.6012 -1.4396 0
M  V30 109 H 0.0133 -2.6322 -0.3535 0
M  V30 110 H -0.8695 -2.1293 1.1278 0
M  V30 111 H 1.9437 -1.5395 0.7639 0
M  V30 112 H 3.2415 -1.0423 -0.3711 0
M  V30 113 H -2.7872 -2.7034 0.1323 0
M  V30 114 H 3.203 1.0068 0.515 0
M  V30 115 H 3.0946 0.1627 0.1724 0
M  V30 116 H 2.4893 -1.6743 -0.8031 0
M  V30 117 H 2.5722 -2.5312 0.765 0
M  V30 118 H 0.2727 -2.3527 0.1468 0
M  V30 119 H 0.5313 -1.3527 1.5889 0
M  V30 120 H 0.8386 0.0156 -1.0087 0
M  V30 121 H -0.6376 0.7972 1.4828 0
M  V30 122 H 1.081 1.106 1.1917 0
M  V30 123 H -0.9691 -1.4363 -1.5418 0
M  V30 124 H -1.4177 0.2577 -1.5726 0
M  V30 125 H -0.2083 3.0969 0.6869 0
M  V30 126 H -1.2109 2.2372 -0.523 0
M  V30 127 H -1.9083 -1.447 0.9696 0
M  V30 128 H -3.0193 -1.5105 -0.4244 0
M  V30 129 H 0.4728 3.3436 -1.5101 0
M  V30 130 H -3.4314 0.6498 -0.2094 0
M  V30 131 H 3.8893 -0.5151 0.9406 0
M  V30 132 H 2.3467 -1.4415 -0.3281 0
M  V30 133 H 2.4152 -0.0375 -1.4414 0
M  V30 134 H 1.5851 1.4842 0.3112 0
M  V30 135 H 1.5212 0.1705 1.5161 0
M  V30 136 H 0.0403 -0.1083 -1.0603 0
M  V30 137 H -1.9704 0.7634 0.3915 0
M  V30 138 H -0.6779 1.6206 1.2628 0
M  V30 139 H 0.4272 -1.9327 0.7582 0
M  V30 140 H -0.8225 -1.0276 1.6463 0
M  V30 141 H 0.0679 2.6104 -0.9888 0
M  V30 142 H -1.3001 1.7575 -1.7745 0
M  V30 143 H -1.0582 -2.2198 -1.2023 0
M  V30 144 H -2.3775 -1.3269 -0.3801 0
M  V30 145 H -2.7176 2.9832 -0.6412 0
M  V30 146 H -2.4642 -2.9007 1.1722 0
M  V30 END ATOM
M  V30 BEGIN BOND
M  V30 1 2 1 2
M  V30 2 2 1 3
M  V30 3 1 1 4
M  V30 4 1 1 5
M  V30 5 1 5 6
M  V30 6 2 5 7
M  V30 7 1 6 8
M  V30 8 2 6 9
M  V30 9 1 7 10
M  V30 10 1 8 11
M  V30 11 2 8 12
M  V30 12 1 9 13
M  V30 13 1 10 14
M  V30 14 1 12 15
M  V30 15 1 13 16
M  V30 16 2 14 17
M  V30 17 2 14 18
M  V30 18 1 14 19
M  V30 19 2 16 20
M  V30 20 1 20 21
M  V30 21 2 21 22
M  V30 22 1 21 23
M  V30 23 1 22 24
M  V30 24 2 23 25
M  V30 25 1 24 26
M  V30 26 2 24 27
M  V30 27 1 26 28
M  V30 28 1 27 29
M  V30 29 1 29 30
M  V30 30 2 30 31
M  V30 31 1 30 32
M  V30 32 2 32 33
M  V30 33 1 32 34
M  V30 34 1 33 35
M  V30 35 2 34 36
M  V30 36 2 35 37
M  V30 37 1 37 38
M  V30 38 1 38 39
M  V30 39 2 39 40
M  V30 40 1 40 41
M  V30 41 1 40 42
M  V30 42 2 41 43
M  V30 43 1 41 44
M  V30 44 2 42 45
M  V30 45 1 42 46
M  V30 46 1 44 47
M  V30 47 2 47 48
M  V30 48 1 48 49
M  V30 49 3 49 50
M  V30 50 1 51 52
M  V30 51 1 52 53
M  V30 52 1 53 54
M  V30 53 1 54 55
M  V30 54 1 54 56
M  V30 55 1 55 57
M  V30 56 1 56 58
M  V30 57 1 57 59
M  V30 58 1 58 60
M  V30 59 1 61 62
M  V30 60 1 62 63
M  V30 61 1 63 64
M  V30 62 1 64 65
M  V30 63 1 64 66
M  V30 64 1 65 67
M  V30 65 1 66 68
M  V30 66 1 67 69
M  V30 67 1 68 70
M  V30 68 1 71 72
M  V30 69 1 72 73
M  V30 70 1 73 74
M  V30 71 1 74 75
M  V30 72 1 74 76
M  V30 73 1 75 77
M  V30 74 1 76 78
M  V30 75 1 77 79
M  V30 76 1 78 80
M  V30 77 2 10 11
M  V30 78 2 13 15
M  V30 79 1 25 27
M  V30 80 1 36 37
M  V30 81 1 46 47
M  V30 82 1 7 81
M  V30 83 1 9 82
M  V30 84 1 11 83
M  V30 85 1 12 84
M  V30 86 1 15 85
M  V30 87 1 22 86
M  V30 88 1 23 87
M  V30 89 1 25 88
M  V30 90 1 28 89
M  V30 91 1 28 90
M  V30 92 1 28 91
M  V30 93 1 29 92
M  V30 94 1 33 93
M  V30 95 1 34 94
M  V30 96 1 35 95
M  V30 97 1 36 96
M  V30 98 1 44 97
M  V30 99 1 46 98
M  V30 100 1 51 99
M  V30 101 1 52 100
M  V30 102 1 52 101
M  V30 103 1 53 102
M  V30 104 1 53 103
M  V30 105 1 54 104
M  V30 106 1 55 105
M  V30 107 1 55 106
M  V30 108 1 56 107
M  V30 109 1 56 108
M  V30 110 1 57 109
M  V30 111 1 57 110
M  V30 112 1 58 111
M  V30 113 1 58 112
M  V30 114 1 59 113
M  V30 115 1 60 114
M  V30 116 1 61 115
M  V30 117 1 62 116
M  V30 118 1 62 117
M  V30 119 1 63 118
M  V30 120 1 63 119
M  V30 121 1 64 120
M  V30 122 1 65 121
M  V30 123 1 65 122
M  V30 124 1 66 123
M  V30 125 1 66 124
M  V30 126 1 67 125
M  V30 127 1 67 126
M  V30 128 1 68 127
M  V30 129 1 68 128
M  V30 130 1 69 129
M  V30 131 1 70 130
M  V30 132 1 71 131
M  V30 133 1 72 132
M  V30 134 1 72 133
M  V30 135 1 73 134
M  V30 136 1 73 135
M  V30 137 1 74 136
M  V30 138 1 75 137
M  V30 139 1 75 138
M  V30 140 1 76 139
M  V30 141 1 76 140
M  V30 142 1 77 141
M  V30 143 1 77 142
M  V30 144 1 78 143
M  V30 145 1 78 144
M  V30 146 1 79 145
M  V30 147 1 80 146
M  V30 END BOND
M  V30 END CTAB
M  END
>  <Structure No>
2800

>  <LogS>
-0.821648982

>  <MMFF94 Energy>
149.15

$$$$
Compound 2801
Actelion Java MolfileCreator 2.0

  0  0  0  0  0  0              0 V3000
M  V30 BEGIN CTAB
M  V30 COUNTS 77 76 0 0 0
M  V30 BEGIN ATOM
M  V30 1 S -1.7545 -1.1162 0.877 0
M  V30 2 O -3.1136 -1.5954 0.4557 0
M  V30 3 O -1.6457 0.3606 0.6185 0
M  V30 4 O -1.5636 -1.4049 2.5214 0 CHG=-1
M  V30 5 C -0.4853 -2.0055 -0.0375 0 CFG=2
M  V30 6 C 0.8552 -1.8483 0.6212 0
M  V30 7 C -0.3861 -1.5411 -1.5051 0
M  V30 8 O 1.1876 -0.7484 1.143 0
M  V30 9 O 1.764 -2.9111 0.5638 0
M  V30 10 C -1.631 -1.7984 -2.302 0
M  V30 11 C 3.1295 -2.8041 0.9621 0
M  V30 12 O -2.3052 -2.8482 -2.1096 0
M  V30 13 O -1.9816 -0.8977 -3.3149 0
M  V30 14 C 3.9147 -1.9572 -0.0438 0
M  V30 15 C -3.2108 -0.9524 -4.0389 0
M  V30 16 C 5.4122 -1.9458 0.2921 0
M  V30 17 C -4.1165 0.214 -3.6381 0
M  V30 18 C 6.2357 -1.0874 -0.6867 0
M  V30 19 C -4.4404 0.2001 -2.1386 0
M  V30 20 C 5.943 0.4271 -0.6279 0
M  V30 21 C -5.4266 1.3205 -1.7771 0
M  V30 22 C 6.1208 1.0767 0.7602 0
M  V30 23 C -5.6124 1.4774 -0.259 0
M  V30 24 C 7.4992 0.8507 1.4166 0
M  V30 25 C -6.35 0.2853 0.3757 0
M  V30 26 C 8.7054 1.3657 0.5949 0
M  V30 27 C -6.6573 0.515 1.8741 0
M  V30 28 C 8.674 2.8932 0.4283 0
M  V30 29 C 10.0151 0.9427 1.274 0
M  V30 30 C -8.1048 0.9646 2.1967 0
M  V30 31 C -8.4931 2.272 1.4945 0
M  V30 32 C -9.1373 -0.1375 1.915 0
M  V30 33 H -0.7467 -3.0869 -0.0124 0
M  V30 34 H -0.1529 -0.4533 -1.5363 0
M  V30 35 H 0.4495 -2.0775 -2.0055 0
M  V30 36 H 3.1969 -2.3643 1.9819 0
M  V30 37 H 3.5614 -3.8277 0.997 0
M  V30 38 H 3.767 -2.3739 -1.0633 0
M  V30 39 H 3.514 -0.9235 -0.0268 0
M  V30 40 H -2.9824 -0.8643 -5.1209 0
M  V30 41 H -3.7396 -1.9186 -3.8878 0
M  V30 42 H 5.7958 -2.9887 0.2344 0
M  V30 43 H 5.5694 -1.6043 1.3368 0
M  V30 44 H -5.0595 0.1482 -4.2237 0
M  V30 45 H -3.6102 1.1698 -3.8995 0
M  V30 46 H 7.3154 -1.2613 -0.4917 0
M  V30 47 H 6.0459 -1.4407 -1.7239 0
M  V30 48 H -3.5013 0.3437 -1.5623 0
M  V30 49 H -4.8795 -0.7853 -1.872 0
M  V30 50 H 4.9063 0.6168 -0.9765 0
M  V30 51 H 6.6 0.9428 -1.3597 0
M  V30 52 H -6.4107 1.1275 -2.2585 0
M  V30 53 H -5.04 2.2854 -2.1749 0
M  V30 54 H 5.9274 2.1665 0.6704 0
M  V30 55 H 5.3344 0.6936 1.4452 0
M  V30 56 H -6.191 2.4086 -0.0857 0
M  V30 57 H -4.6198 1.6079 0.2273 0
M  V30 58 H 7.6262 -0.2336 1.6221 0
M  V30 59 H 7.4944 1.3566 2.408 0
M  V30 60 H -7.2727 0.0652 -0.197 0
M  V30 61 H -5.6987 -0.6094 0.2961 0
M  V30 62 H 8.6983 0.9002 -0.4142 0
M  V30 63 H -5.946 1.2552 2.3016 0
M  V30 64 H -6.4615 -0.433 2.4226 0
M  V30 65 H 7.8086 3.2007 -0.1949 0
M  V30 66 H 9.5932 3.2416 -0.0872 0
M  V30 67 H 8.6087 3.3941 1.4191 0
M  V30 68 H 10.0857 1.3755 2.2963 0
M  V30 69 H 10.0684 -0.165 1.3491 0
M  V30 70 H 10.8877 1.2863 0.6779 0
M  V30 71 H -8.1384 1.1634 3.2918 0
M  V30 72 H -7.7427 3.0605 1.7139 0
M  V30 73 H -9.4798 2.6212 1.8663 0
M  V30 74 H -8.5676 2.1281 0.3957 0
M  V30 75 H -8.8319 -1.0864 2.4063 0
M  V30 76 H -10.1269 0.1571 2.3259 0
M  V30 77 H -9.2563 -0.3168 0.827 0
M  V30 END ATOM
M  V30 BEGIN BOND
M  V30 1 2 1 2
M  V30 2 2 1 3
M  V30 3 1 1 4
M  V30 4 1 1 5
M  V30 5 1 5 6
M  V30 6 1 5 7
M  V30 7 2 6 8
M  V30 8 1 6 9
M  V30 9 1 7 10
M  V30 10 1 9 11
M  V30 11 2 10 12
M  V30 12 1 10 13
M  V30 13 1 11 14
M  V30 14 1 13 15
M  V30 15 1 14 16
M  V30 16 1 15 17
M  V30 17 1 16 18
M  V30 18 1 17 19
M  V30 19 1 18 20
M  V30 20 1 19 21
M  V30 21 1 20 22
M  V30 22 1 21 23
M  V30 23 1 22 24
M  V30 24 1 23 25
M  V30 25 1 24 26
M  V30 26 1 25 27
M  V30 27 1 26 28
M  V30 28 1 26 29
M  V30 29 1 27 30
M  V30 30 1 30 31
M  V30 31 1 30 32
M  V30 32 1 5 33
M  V30 33 1 7 34
M  V30 34 1 7 35
M  V30 35 1 11 36
M  V30 36 1 11 37
M  V30 37 1 14 38
M  V30 38 1 14 39
M  V30 39 1 15 40
M  V30 40 1 15 41
M  V30 41 1 16 42
M  V30 42 1 16 43
M  V30 43 1 17 44
M  V30 44 1 17 45
M  V30 45 1 18 46
M  V30 46 1 18 47
M  V30 47 1 19 48
M  V30 48 1 19 49
M  V30 49 1 20 50
M  V30 50 1 20 51
M  V30 51 1 21 52
M  V30 52 1 21 53
M  V30 53 1 22 54
M  V30 54 1 22 55
M  V30 55 1 23 56
M  V30 56 1 23 57
M  V30 57 1 24 58
M  V30 58 1 24 59
M  V30 59 1 25 60
M  V30 60 1 25 61
M  V30 61 1 26 62
M  V30 62 1 27 63
M  V30 63 1 27 64
M  V30 64 1 28 65
M  V30 65 1 28 66
M  V30 66 1 28 67
M  V30 67 1 29 68
M  V30 68 1 29 69
M  V30 69 1 29 70
M  V30 70 1 30 71
M  V30 71 1 31 72
M  V30 72 1 31 73
M  V30 73 1 31 74
M  V30 74 1 32 75
M  V30 75 1 32 76
M  V30 76 1 32 77
M  V30 END BOND
M  V30 BEGIN COLLECTION
M  V30 MDLV30/STEABS ATOMS=(1 5)
M  V30 END COLLECTION
M  V30 END CTAB
M  END
>  <Structure No>
2801

>  <LogS>
-0.469106118

>  <MMFF94 Energy>
-72.224

$$$$
Compound 2802
Actelion Java MolfileCreator 2.0

  0  0  0  0  0  0              0 V3000
M  V30 BEGIN CTAB
M  V30 COUNTS 34 33 0 0 0
M  V30 BEGIN ATOM
M  V30 1 N 0.5376 0.3071 0.0 0
M  V30 2 N -0.5717 -0.2666 0.0079 0
M  V30 3 C 1.1344 0.8041 -1.2277 0
M  V30 4 C -1.1686 -0.7633 1.2344 0
M  V30 5 C 2.4884 1.4584 -0.9354 0
M  V30 6 C 1.3393 -0.3765 -2.1972 0
M  V30 7 C 0.1903 1.8489 -1.855 0
M  V30 8 C -2.5194 -1.4125 0.9218 0
M  V30 9 C -0.2244 -1.8094 1.8613 0
M  V30 10 C -1.3746 0.4186 2.2039 0
M  V30 11 N 2.9742 1.5234 0.2724 0 CHG=1
M  V30 12 N 3.2511 2.0181 -2.0146 0
M  V30 13 N -3.2383 -1.9303 1.8759 0 CHG=1
M  V30 14 N -3.0207 -1.4642 -0.4238 0
M  V30 15 H 0.3717 -0.8783 -2.4144 0
M  V30 16 H 2.0268 -1.1255 -1.7486 0
M  V30 17 H 1.7664 -0.0386 -3.1645 0
M  V30 18 H 0.5922 2.2356 -2.8147 0
M  V30 19 H 0.0496 2.7045 -1.1596 0
M  V30 20 H -0.8058 1.4026 -2.0636 0
M  V30 21 H -0.085 -2.6651 1.1659 0
M  V30 22 H 0.7721 -1.3635 2.0688 0
M  V30 23 H -0.6248 -2.1955 2.822 0
M  V30 24 H -0.4074 0.9213 2.4202 0
M  V30 25 H -2.0632 1.1667 1.7552 0
M  V30 26 H -1.8003 0.0814 3.1722 0
M  V30 27 H 3.9 1.9746 0.4467 0
M  V30 28 H 2.4803 1.14 1.1074 0
M  V30 29 H 4.1764 2.4685 -1.8366 0
M  V30 30 H 2.9072 1.9921 -2.999 0
M  V30 31 H -4.1606 -2.3746 1.6691 0
M  V30 32 H -2.9265 -1.9225 2.8718 0
M  V30 33 H -3.9433 -1.9093 -0.6271 0
M  V30 34 H -2.4961 -1.0688 -1.2341 0
M  V30 END ATOM
M  V30 BEGIN BOND
M  V30 1 2 1 2
M  V30 2 1 1 3
M  V30 3 1 2 4
M  V30 4 1 3 5
M  V30 5 1 3 6
M  V30 6 1 3 7
M  V30 7 1 4 8
M  V30 8 1 4 9
M  V30 9 1 4 10
M  V30 10 2 5 11
M  V30 11 1 5 12
M  V30 12 2 8 13
M  V30 13 1 8 14
M  V30 14 1 6 15
M  V30 15 1 6 16
M  V30 16 1 6 17
M  V30 17 1 7 18
M  V30 18 1 7 19
M  V30 19 1 7 20
M  V30 20 1 9 21
M  V30 21 1 9 22
M  V30 22 1 9 23
M  V30 23 1 10 24
M  V30 24 1 10 25
M  V30 25 1 10 26
M  V30 26 1 11 27
M  V30 27 1 11 28
M  V30 28 1 12 29
M  V30 29 1 12 30
M  V30 30 1 13 31
M  V30 31 1 13 32
M  V30 32 1 14 33
M  V30 33 1 14 34
M  V30 END BOND
M  V30 END CTAB
M  END
>  <Structure No>
2802

>  <LogS>
-0.145139333

>  <MMFF94 Energy>
98.027

$$$$
Compound 2803
Actelion Java MolfileCreator 2.0

  0  0  0  0  0  0              0 V3000
M  V30 BEGIN CTAB
M  V30 COUNTS 7 6 0 0 0
M  V30 BEGIN ATOM
M  V30 1 O 1.3234 1.2455 -0.3112 0
M  V30 2 C 0.8326 0.1374 0.0294 0
M  V30 3 O 1.6742 -0.9111 0.3777 0 CHG=-1
M  V30 4 C -0.6443 -0.0665 0.0036 0
M  V30 5 H -0.9641 -0.3252 -1.027 0
M  V30 6 H -0.9252 -0.8921 0.6906 0
M  V30 7 H -1.1631 0.8608 0.3267 0
M  V30 END ATOM
M  V30 BEGIN BOND
M  V30 1 2 1 2
M  V30 2 1 2 3
M  V30 3 1 2 4
M  V30 4 1 4 5
M  V30 5 1 4 6
M  V30 6 1 4 7
M  V30 END BOND
M  V30 END CTAB
M  END
>  <Structure No>
2803

>  <LogS>
0.541425963

>  <MMFF94 Energy>
1.0491

$$$$
Compound 2804
Actelion Java MolfileCreator 2.0

  0  0  0  0  0  0              0 V3000
M  V30 BEGIN CTAB
M  V30 COUNTS 18 17 0 0 0
M  V30 BEGIN ATOM
M  V30 1 O -0.3869 0.3095 -2.4788 0
M  V30 2 C -0.6451 -0.4104 -1.5261 0
M  V30 3 C -0.0628 -0.1208 -0.1561 0
M  V30 4 C 1.4806 -0.1894 -0.2506 0
M  V30 5 C -0.5021 1.2905 0.3125 0
M  V30 6 C -0.5667 -1.1856 0.8423 0
M  V30 7 O 2.0693 0.0393 1.0017 0
M  V30 8 O -1.9007 1.3896 0.3973 0
M  V30 9 H -1.3017 -1.2622 -1.6783 0
M  V30 10 H 1.8498 0.5738 -0.9734 0
M  V30 11 H 1.7892 -1.1926 -0.625 0
M  V30 12 H -0.0986 2.0736 -0.3717 0
M  V30 13 H -0.0823 1.5002 1.3197 0
M  V30 14 H -0.1915 -0.9772 1.8672 0
M  V30 15 H -1.6775 -1.1986 0.8786 0
M  V30 16 H -0.2195 -2.1981 0.5422 0
M  V30 17 H 3.0498 -0.024 0.8619 0
M  V30 18 H -2.2288 1.6338 -0.507 0
M  V30 END ATOM
M  V30 BEGIN BOND
M  V30 1 2 1 2
M  V30 2 1 2 3
M  V30 3 1 3 4
M  V30 4 1 3 5
M  V30 5 1 3 6
M  V30 6 1 4 7
M  V30 7 1 5 8
M  V30 8 1 2 9
M  V30 9 1 4 10
M  V30 10 1 4 11
M  V30 11 1 5 12
M  V30 12 1 5 13
M  V30 13 1 6 14
M  V30 14 1 6 15
M  V30 15 1 6 16
M  V30 16 1 7 17
M  V30 17 1 8 18
M  V30 END BOND
M  V30 END CTAB
M  END
>  <Structure No>
2804

>  <LogS>
0.928933376

>  <MMFF94 Energy>
6.3277

$$$$
Compound 2805
Actelion Java MolfileCreator 2.0

  0  0  0  0  0  0              0 V3000
M  V30 BEGIN CTAB
M  V30 COUNTS 30 29 0 0 0
M  V30 BEGIN ATOM
M  V30 1 N 1.9702 0.6816 0.6816 0
M  V30 2 C 0.7109 -0.0803 0.7492 0
M  V30 3 C 2.7493 0.3871 -0.5316 0
M  V30 4 C -0.4249 0.6018 -0.0297 0
M  V30 5 C 3.7089 -0.7869 -0.2932 0
M  V30 6 N -1.6567 -0.1861 0.0916 0
M  V30 7 N 4.6957 -0.4744 0.7415 0 CHG=1
M  V30 8 C -2.7717 0.5027 -0.5698 0
M  V30 9 C -4.0804 -0.2729 -0.371 0
M  V30 10 N -4.466 -0.325 1.04 0 CHG=1
M  V30 11 H 1.7656 1.7081 0.7188 0
M  V30 12 H 0.8548 -1.1198 0.3802 0
M  V30 13 H 0.4093 -0.1562 1.8159 0
M  V30 14 H 3.3477 1.2813 -0.8152 0
M  V30 15 H 2.0911 0.1547 -1.3973 0
M  V30 16 H -0.1437 0.7062 -1.1008 0
M  V30 17 H -0.5856 1.6176 0.3961 0
M  V30 18 H 3.137 -1.6946 -0.0021 0
M  V30 19 H 4.2371 -1.0138 -1.2457 0
M  V30 20 H -1.5046 -1.0966 -0.4038 0
M  V30 21 H 5.3571 -1.2786 0.8355 0
M  V30 22 H 5.2386 0.3793 0.4767 0
M  V30 23 H 4.2209 -0.3222 1.6608 0
M  V30 24 H -2.5722 0.5921 -1.6617 0
M  V30 25 H -2.8965 1.5272 -0.1528 0
M  V30 26 H -4.8853 0.2284 -0.9526 0
M  V30 27 H -3.9685 -1.3062 -0.7678 0
M  V30 28 H -3.7479 -0.8463 1.5931 0
M  V30 29 H -4.573 0.6432 1.4208 0
M  V30 30 H -5.3812 -0.8235 1.1248 0
M  V30 END ATOM
M  V30 BEGIN BOND
M  V30 1 1 1 2
M  V30 2 1 1 3
M  V30 3 1 2 4
M  V30 4 1 3 5
M  V30 5 1 4 6
M  V30 6 1 5 7
M  V30 7 1 6 8
M  V30 8 1 8 9
M  V30 9 1 9 10
M  V30 10 1 1 11
M  V30 11 1 2 12
M  V30 12 1 2 13
M  V30 13 1 3 14
M  V30 14 1 3 15
M  V30 15 1 4 16
M  V30 16 1 4 17
M  V30 17 1 5 18
M  V30 18 1 5 19
M  V30 19 1 6 20
M  V30 20 1 7 21
M  V30 21 1 7 22
M  V30 22 1 7 23
M  V30 23 1 8 24
M  V30 24 1 8 25
M  V30 25 1 9 26
M  V30 26 1 9 27
M  V30 27 1 10 28
M  V30 28 1 10 29
M  V30 29 1 10 30
M  V30 END BOND
M  V30 END CTAB
M  END
>  <Structure No>
2805

>  <LogS>
0.533909766

>  <MMFF94 Energy>
97.978

$$$$
Compound 2806
Actelion Java MolfileCreator 2.0

  0  0  0  0  0  0              0 V3000
M  V30 BEGIN CTAB
M  V30 COUNTS 39 38 0 0 0
M  V30 BEGIN ATOM
M  V30 1 N 0.2278 -1.9761 -0.3797 0 CHG=1
M  V30 2 C -0.8466 -2.2197 0.6012 0
M  V30 3 C 0.7879 -0.6173 -0.2835 0
M  V30 4 C -2.1361 -1.4373 0.2926 0
M  V30 5 C 2.0667 -0.4932 -1.1276 0
M  V30 6 N -2.0448 -0.0676 0.8179 0
M  V30 7 N 2.4804 0.9095 -1.2964 0
M  V30 8 C -3.0652 0.8233 0.2445 0
M  V30 9 C 2.9301 1.5782 -0.0608 0
M  V30 10 C -4.4816 0.5056 0.7584 0
M  V30 11 C 4.157 0.9285 0.6139 0
M  V30 12 N -5.4449 1.4944 0.2748 0 CHG=1
M  V30 13 N 5.3059 0.8339 -0.2884 0 CHG=1
M  V30 14 H 0.9891 -2.6703 -0.1912 0
M  V30 15 H -0.1315 -2.1447 -1.3487 0
M  V30 16 H -1.0975 -3.3039 0.5802 0
M  V30 17 H -0.4945 -1.9998 1.6343 0
M  V30 18 H 1.0275 -0.3825 0.7767 0
M  V30 19 H 0.0502 0.123 -0.6624 0
M  V30 20 H -2.9874 -1.9647 0.7775 0
M  V30 21 H -2.3154 -1.4369 -0.8053 0
M  V30 22 H 2.8825 -1.11 -0.6967 0
M  V30 23 H 1.8561 -0.9101 -2.1369 0
M  V30 24 H -2.1486 -0.0907 1.86 0
M  V30 25 H 3.2414 0.9547 -2.0125 0
M  V30 26 H -2.8075 1.8667 0.5275 0
M  V30 27 H -3.0409 0.7757 -0.8665 0
M  V30 28 H 2.0953 1.6363 0.6683 0
M  V30 29 H 3.1854 2.6313 -0.3091 0
M  V30 30 H -4.485 0.5053 1.871 0
M  V30 31 H -4.7931 -0.502 0.4082 0
M  V30 32 H 4.437 1.5559 1.4891 0
M  V30 33 H 3.902 -0.0752 1.0152 0
M  V30 34 H -6.3976 1.2447 0.6261 0
M  V30 35 H -5.46 1.4992 -0.7709 0
M  V30 36 H -5.1929 2.4455 0.6297 0
M  V30 37 H 5.4829 1.7548 -0.7518 0
M  V30 38 H 6.152 0.5687 0.2656 0
M  V30 39 H 5.1415 0.0948 -1.0087 0
M  V30 END ATOM
M  V30 BEGIN BOND
M  V30 1 1 1 2
M  V30 2 1 1 3
M  V30 3 1 2 4
M  V30 4 1 3 5
M  V30 5 1 4 6
M  V30 6 1 5 7
M  V30 7 1 6 8
M  V30 8 1 7 9
M  V30 9 1 8 10
M  V30 10 1 9 11
M  V30 11 1 10 12
M  V30 12 1 11 13
M  V30 13 1 1 14
M  V30 14 1 1 15
M  V30 15 1 2 16
M  V30 16 1 2 17
M  V30 17 1 3 18
M  V30 18 1 3 19
M  V30 19 1 4 20
M  V30 20 1 4 21
M  V30 21 1 5 22
M  V30 22 1 5 23
M  V30 23 1 6 24
M  V30 24 1 7 25
M  V30 25 1 8 26
M  V30 26 1 8 27
M  V30 27 1 9 28
M  V30 28 1 9 29
M  V30 29 1 10 30
M  V30 30 1 10 31
M  V30 31 1 11 32
M  V30 32 1 11 33
M  V30 33 1 12 34
M  V30 34 1 12 35
M  V30 35 1 12 36
M  V30 36 1 13 37
M  V30 37 1 13 38
M  V30 38 1 13 39
M  V30 END BOND
M  V30 END CTAB
M  END
>  <Structure No>
2806

>  <LogS>
0.421803331

>  <MMFF94 Energy>
229.88

$$$$
Compound 2807
Actelion Java MolfileCreator 2.0

  0  0  0  0  0  0              0 V3000
M  V30 BEGIN CTAB
M  V30 COUNTS 23 22 0 0 0
M  V30 BEGIN ATOM
M  V30 1 N -1.5822 -0.0752 -0.3765 0 CHG=1
M  V30 2 C -0.2583 -0.6371 -0.0148 0
M  V30 3 C -2.6018 -1.1392 -0.3461 0
M  V30 4 C -1.9807 1.0144 0.5352 0
M  V30 5 C 0.8978 0.333 -0.3232 0
M  V30 6 C 2.2584 -0.3458 -0.1136 0
M  V30 7 N 3.3546 0.5829 -0.3875 0 CHG=1
M  V30 8 H -1.546 0.3022 -1.3532 0
M  V30 9 H -0.0779 -1.5687 -0.599 0
M  V30 10 H -0.2322 -0.9152 1.0635 0
M  V30 11 H -3.5963 -0.7373 -0.6412 0
M  V30 12 H -2.6833 -1.5856 0.6703 0
M  V30 13 H -2.3482 -1.9438 -1.071 0
M  V30 14 H -1.9495 0.6829 1.5969 0
M  V30 15 H -3.012 1.3616 0.3041 0
M  V30 16 H -1.3189 1.8964 0.4093 0
M  V30 17 H 0.8391 1.2161 0.3468 0
M  V30 18 H 0.8222 0.6793 -1.3769 0
M  V30 19 H 2.3456 -1.2247 -0.7906 0
M  V30 20 H 2.3363 -0.7066 0.9363 0
M  V30 21 H 4.265 0.0904 -0.24 0
M  V30 22 H 3.3034 1.4009 0.2623 0
M  V30 23 H 3.3056 0.9141 -1.3784 0
M  V30 END ATOM
M  V30 BEGIN BOND
M  V30 1 1 1 2
M  V30 2 1 1 3
M  V30 3 1 1 4
M  V30 4 1 2 5
M  V30 5 1 5 6
M  V30 6 1 6 7
M  V30 7 1 1 8
M  V30 8 1 2 9
M  V30 9 1 2 10
M  V30 10 1 3 11
M  V30 11 1 3 12
M  V30 12 1 3 13
M  V30 13 1 4 14
M  V30 14 1 4 15
M  V30 15 1 4 16
M  V30 16 1 5 17
M  V30 17 1 5 18
M  V30 18 1 6 19
M  V30 19 1 6 20
M  V30 20 1 7 21
M  V30 21 1 7 22
M  V30 22 1 7 23
M  V30 END BOND
M  V30 END CTAB
M  END
>  <Structure No>
2807

>  <LogS>
0.990629851

>  <MMFF94 Energy>
67.907

$$$$
Compound 2808
Actelion Java MolfileCreator 2.0

  0  0  0  0  0  0              0 V3000
M  V30 BEGIN CTAB
M  V30 COUNTS 29 28 0 0 0
M  V30 BEGIN ATOM
M  V30 1 N 2.6966 -0.5388 -3.0824 0
M  V30 2 C 2.2987 -0.3194 -2.0181 0
M  V30 3 N 1.8147 -0.0528 -0.7248 0
M  V30 4 C 1.0019 1.1466 -0.4905 0
M  V30 5 C 2.169 -0.9559 0.3736 0
M  V30 6 C -0.3331 1.0876 -1.2523 0
M  V30 7 C 3.2076 -0.3136 1.2876 0
M  V30 8 C -1.2092 -0.1371 -0.9043 0
M  V30 9 N -1.6868 -0.1643 0.5013 0 CHG=1
M  V30 10 C -2.6525 0.9171 0.7753 0
M  V30 11 C -2.3154 -1.4673 0.7829 0
M  V30 12 H 0.8096 1.2906 0.5927 0
M  V30 13 H 1.5701 2.0398 -0.8297 0
M  V30 14 H 1.2603 -1.2146 0.9574 0
M  V30 15 H 2.5885 -1.9059 -0.0256 0
M  V30 16 H -0.8935 2.0296 -1.0843 0
M  V30 17 H -0.115 1.056 -2.3418 0
M  V30 18 H 4.112 -0.0417 0.7031 0
M  V30 19 H 2.7958 0.5979 1.7684 0
M  V30 20 H 3.498 -1.0319 2.0829 0
M  V30 21 H -0.6171 -1.0535 -1.1255 0
M  V30 22 H -2.0775 -0.1527 -1.6015 0
M  V30 23 H -0.8803 -0.0639 1.1582 0
M  V30 24 H -3.4788 0.9184 0.0303 0
M  V30 25 H -3.0935 0.8033 1.7903 0
M  V30 26 H -2.1494 1.9061 0.7666 0
M  V30 27 H -1.5867 -2.2934 0.6286 0
M  V30 28 H -3.1956 -1.6379 0.1231 0
M  V30 29 H -2.6477 -1.5213 1.8433 0
M  V30 END ATOM
M  V30 BEGIN BOND
M  V30 1 3 1 2
M  V30 2 1 2 3
M  V30 3 1 3 4
M  V30 4 1 3 5
M  V30 5 1 4 6
M  V30 6 1 5 7
M  V30 7 1 6 8
M  V30 8 1 8 9
M  V30 9 1 9 10
M  V30 10 1 9 11
M  V30 11 1 4 12
M  V30 12 1 4 13
M  V30 13 1 5 14
M  V30 14 1 5 15
M  V30 15 1 6 16
M  V30 16 1 6 17
M  V30 17 1 7 18
M  V30 18 1 7 19
M  V30 19 1 7 20
M  V30 20 1 8 21
M  V30 21 1 8 22
M  V30 22 1 9 23
M  V30 23 1 10 24
M  V30 24 1 10 25
M  V30 25 1 10 26
M  V30 26 1 11 27
M  V30 27 1 11 28
M  V30 28 1 11 29
M  V30 END BOND
M  V30 END CTAB
M  END
>  <Structure No>
2808

>  <LogS>
0.717364294

>  <MMFF94 Energy>
-18.833

$$$$
Compound 2809
Actelion Java MolfileCreator 2.0

  0  0  0  0  0  0              0 V3000
M  V30 BEGIN CTAB
M  V30 COUNTS 24 24 0 0 0
M  V30 BEGIN ATOM
M  V30 1 O 1.8132 1.0245 0.788 0
M  V30 2 C 2.6436 0.4824 -0.221 0
M  V30 3 C 0.8012 0.0927 1.1119 0
M  V30 4 O 1.9256 0.3061 -1.4273 0
M  V30 5 C -0.0718 -0.2316 -0.1259 0
M  V30 6 C 0.9192 -0.6675 -1.2344 0
M  V30 7 C -1.0304 -1.4147 0.1742 0
M  V30 8 C -0.8487 1.0271 -0.6346 0
M  V30 9 O -1.7483 -1.1997 1.3594 0
M  V30 10 C -1.9395 1.5656 0.297 0
M  V30 11 H 3.4621 1.2056 -0.4139 0
M  V30 12 H 3.1363 -0.4626 0.1103 0
M  V30 13 H 1.2562 -0.8376 1.5252 0
M  V30 14 H 0.1858 0.5133 1.9316 0
M  V30 15 H 0.3764 -0.8084 -2.194 0
M  V30 16 H 1.3871 -1.6513 -0.9965 0
M  V30 17 H -0.4475 -2.3572 0.2838 0
M  V30 18 H -1.7372 -1.5496 -0.6758 0
M  V30 19 H -0.1317 1.8546 -0.8281 0
M  V30 20 H -1.3313 0.7917 -1.6087 0
M  V30 21 H -2.3571 -1.9771 1.4594 0
M  V30 22 H -2.3455 2.5075 -0.1286 0
M  V30 23 H -2.7822 0.8491 0.3755 0
M  V30 24 H -1.5411 1.7965 1.3045 0
M  V30 END ATOM
M  V30 BEGIN BOND
M  V30 1 1 1 2
M  V30 2 1 1 3
M  V30 3 1 2 4
M  V30 4 1 3 5
M  V30 5 1 4 6
M  V30 6 1 5 7
M  V30 7 1 5 8
M  V30 8 1 7 9
M  V30 9 1 8 10
M  V30 10 1 5 6
M  V30 11 1 2 11
M  V30 12 1 2 12
M  V30 13 1 3 13
M  V30 14 1 3 14
M  V30 15 1 6 15
M  V30 16 1 6 16
M  V30 17 1 7 17
M  V30 18 1 7 18
M  V30 19 1 8 19
M  V30 20 1 8 20
M  V30 21 1 9 21
M  V30 22 1 10 22
M  V30 23 1 10 23
M  V30 24 1 10 24
M  V30 END BOND
M  V30 END CTAB
M  END
>  <Structure No>
2809

>  <LogS>
0.835094217

>  <MMFF94 Energy>
-4.7767

$$$$
Compound 2810
Actelion Java MolfileCreator 2.0

  0  0  0  0  0  0              0 V3000
M  V30 BEGIN CTAB
M  V30 COUNTS 37 36 0 0 0
M  V30 BEGIN ATOM
M  V30 1 O 6.2814 1.489 1.6459 0
M  V30 2 C 5.7186 0.3627 1.6417 0
M  V30 3 O 5.6186 -0.3612 2.823 0 CHG=-1
M  V30 4 C 5.1127 -0.1714 0.3825 0
M  V30 5 C 3.6527 0.2746 0.258 0
M  V30 6 C 3.016 -0.2818 -1.0241 0
M  V30 7 C 1.5935 0.2506 -1.2588 0
M  V30 8 C 0.5728 -0.3295 -0.2679 0
M  V30 9 C -0.8515 0.1197 -0.619 0
M  V30 10 C -1.8703 -0.4546 0.3845 0
M  V30 11 C -3.3556 -0.0615 0.1229 0
M  V30 12 C -3.8325 -0.5717 -1.2535 0
M  V30 13 C -4.2256 -0.719 1.2152 0
M  V30 14 C -3.5485 1.468 0.2004 0
M  V30 15 H 5.6966 0.1935 -0.4905 0
M  V30 16 H 5.1673 -1.2816 0.3971 0
M  V30 17 H 3.0901 -0.0897 1.1443 0
M  V30 18 H 3.6093 1.3861 0.2412 0
M  V30 19 H 3.0012 -1.3932 -0.9883 0
M  V30 20 H 3.6409 0.0182 -1.8939 0
M  V30 21 H 1.2901 -0.0294 -2.2914 0
M  V30 22 H 1.5919 1.3612 -1.1976 0
M  V30 23 H 0.8137 0.014 0.7604 0
M  V30 24 H 0.6237 -1.4404 -0.2928 0
M  V30 25 H -0.8854 1.2293 -0.6014 0
M  V30 26 H -1.0903 -0.2319 -1.6443 0
M  V30 27 H -1.7839 -1.5643 0.3734 0
M  V30 28 H -1.5832 -0.1174 1.4057 0
M  V30 29 H -3.3256 -0.0336 -2.0813 0
M  V30 30 H -3.6302 -1.6592 -1.3597 0
M  V30 31 H -4.9253 -0.4071 -1.3738 0
M  V30 32 H -4.1233 -1.8254 1.1857 0
M  V30 33 H -3.9206 -0.3676 2.2249 0
M  V30 34 H -5.2992 -0.468 1.0727 0
M  V30 35 H -3.1397 1.8667 1.1538 0
M  V30 36 H -4.628 1.7286 0.1482 0
M  V30 37 H -3.0447 1.9819 -0.6444 0
M  V30 END ATOM
M  V30 BEGIN BOND
M  V30 1 2 1 2
M  V30 2 1 2 3
M  V30 3 1 2 4
M  V30 4 1 4 5
M  V30 5 1 5 6
M  V30 6 1 6 7
M  V30 7 1 7 8
M  V30 8 1 8 9
M  V30 9 1 9 10
M  V30 10 1 10 11
M  V30 11 1 11 12
M  V30 12 1 11 13
M  V30 13 1 11 14
M  V30 14 1 4 15
M  V30 15 1 4 16
M  V30 16 1 5 17
M  V30 17 1 5 18
M  V30 18 1 6 19
M  V30 19 1 6 20
M  V30 20 1 7 21
M  V30 21 1 7 22
M  V30 22 1 8 23
M  V30 23 1 8 24
M  V30 24 1 9 25
M  V30 25 1 9 26
M  V30 26 1 10 27
M  V30 27 1 10 28
M  V30 28 1 12 29
M  V30 29 1 12 30
M  V30 30 1 12 31
M  V30 31 1 13 32
M  V30 32 1 13 33
M  V30 33 1 13 34
M  V30 34 1 14 35
M  V30 35 1 14 36
M  V30 36 1 14 37
M  V30 END BOND
M  V30 END CTAB
M  END
>  <Structure No>
2810

>  <LogS>
-2.111396949

>  <MMFF94 Energy>
15.791

$$$$
Compound 2811
Actelion Java MolfileCreator 2.0

  0  0  0  0  0  0              0 V3000
M  V30 BEGIN CTAB
M  V30 COUNTS 21 21 0 0 0
M  V30 BEGIN ATOM
M  V30 1 O 0.1571 2.2805 -0.3143 0
M  V30 2 C 0.0838 1.0378 -0.1052 0
M  V30 3 N 1.2793 0.2835 0.1717 0
M  V30 4 N -1.1921 0.3722 -0.168 0
M  V30 5 C 1.1888 -1.1418 0.5082 0
M  V30 6 C 2.5704 0.9695 0.2558 0
M  V30 7 C -1.2962 -1.0527 0.1664 0
M  V30 8 C -2.4067 1.1479 -0.4286 0
M  V30 9 C -0.0067 -1.7947 -0.1864 0
M  V30 10 H 1.0886 -1.2513 1.61 0
M  V30 11 H 2.1125 -1.6717 0.1884 0
M  V30 12 H 2.8256 1.407 -0.7322 0
M  V30 13 H 3.3806 0.2694 0.5518 0
M  V30 14 H 2.518 1.7796 1.0139 0
M  V30 15 H -1.5048 -1.1584 1.2533 0
M  V30 16 H -2.1344 -1.5194 -0.3956 0
M  V30 17 H -2.3547 1.5928 -1.4446 0
M  V30 18 H -3.3139 0.5095 -0.3687 0
M  V30 19 H -2.5037 1.9596 0.3233 0
M  V30 20 H 0.1455 -1.7727 -1.2878 0
M  V30 21 H -0.0888 -2.8556 0.1342 0
M  V30 END ATOM
M  V30 BEGIN BOND
M  V30 1 2 1 2
M  V30 2 1 2 3
M  V30 3 1 2 4
M  V30 4 1 3 5
M  V30 5 1 3 6
M  V30 6 1 4 7
M  V30 7 1 4 8
M  V30 8 1 5 9
M  V30 9 1 7 9
M  V30 10 1 5 10
M  V30 11 1 5 11
M  V30 12 1 6 12
M  V30 13 1 6 13
M  V30 14 1 6 14
M  V30 15 1 7 15
M  V30 16 1 7 16
M  V30 17 1 8 17
M  V30 18 1 8 18
M  V30 19 1 8 19
M  V30 20 1 9 20
M  V30 21 1 9 21
M  V30 END BOND
M  V30 END CTAB
M  END
>  <Structure No>
2811

>  <LogS>
0.892196674

>  <MMFF94 Energy>
-81.615

$$$$
Compound 2812
Actelion Java MolfileCreator 2.0

  0  0  0  0  0  0              0 V3000
M  V30 BEGIN CTAB
M  V30 COUNTS 25 26 0 0 0
M  V30 BEGIN ATOM
M  V30 1 O 2.7795 -0.1586 1.7464 0
M  V30 2 C 2.2524 0.1701 0.4904 0
M  V30 3 C 0.9074 -0.5498 0.2877 0 CFG=2
M  V30 4 N 0.4568 -0.4926 -1.1301 0 CFG=2
M  V30 5 C -0.2126 -0.0055 1.223 0
M  V30 6 C -0.7296 -1.3703 -1.2675 0
M  V30 7 C 0.0433 0.886 -1.4926 0
M  V30 8 N -1.4164 0.313 0.4237 0 CHG=1 CFG=1
M  V30 9 C -1.8556 -0.8964 -0.3106 0
M  V30 10 C -1.0793 1.3775 -0.5463 0
M  V30 11 H 3.6463 0.3197 1.8157 0
M  V30 12 H 2.1233 1.2727 0.4253 0
M  V30 13 H 2.9616 -0.1543 -0.3035 0
M  V30 14 H 1.0913 -1.6173 0.5529 0
M  V30 15 H 0.1223 0.9006 1.7773 0
M  V30 16 H -0.4613 -0.7686 1.9947 0
M  V30 17 H -0.4535 -2.4241 -1.0422 0
M  V30 18 H -1.0923 -1.3587 -2.3195 0
M  V30 19 H 0.9112 1.5767 -1.461 0
M  V30 20 H -0.3175 0.9054 -2.5451 0
M  V30 21 H -2.184 0.6414 1.0559 0
M  V30 22 H -2.1093 -1.7084 0.4073 0
M  V30 23 H -2.7791 -0.6764 -0.892 0
M  V30 24 H -1.9807 1.6546 -1.1383 0
M  V30 25 H -0.7489 2.2959 -0.0107 0
M  V30 END ATOM
M  V30 BEGIN BOND
M  V30 1 1 1 2
M  V30 2 1 2 3
M  V30 3 1 3 4
M  V30 4 1 3 5
M  V30 5 1 4 6
M  V30 6 1 4 7
M  V30 7 1 5 8
M  V30 8 1 6 9
M  V30 9 1 7 10
M  V30 10 1 8 9
M  V30 11 1 8 10
M  V30 12 1 1 11
M  V30 13 1 2 12
M  V30 14 1 2 13
M  V30 15 1 3 14
M  V30 16 1 5 15
M  V30 17 1 5 16
M  V30 18 1 6 17
M  V30 19 1 6 18
M  V30 20 1 7 19
M  V30 21 1 7 20
M  V30 22 1 8 21
M  V30 23 1 9 22
M  V30 24 1 9 23
M  V30 25 1 10 24
M  V30 26 1 10 25
M  V30 END BOND
M  V30 BEGIN COLLECTION
M  V30 MDLV30/STEABS ATOMS=(3 3 4 8)
M  V30 END COLLECTION
M  V30 END CTAB
M  END
>  <Structure No>
2812

>  <LogS>
0.847094295

>  <MMFF94 Energy>
184.43

$$$$
Compound 2813
Actelion Java MolfileCreator 2.0

  0  0  0  0  0  0              0 V3000
M  V30 BEGIN CTAB
M  V30 COUNTS 23 23 0 0 0
M  V30 BEGIN ATOM
M  V30 1 N -1.2429 -0.1553 -0.4659 0 CHG=1
M  V30 2 C -0.7774 1.1897 -0.0548 0
M  V30 3 C -0.6124 -1.205 0.3593 0
M  V30 4 C -2.7101 -0.2401 -0.3718 0
M  V30 5 C 0.7492 1.2362 0.1704 0
M  V30 6 C 0.9264 -1.1792 0.2195 0
M  V30 7 N 1.397 0.0597 -0.4339 0
M  V30 8 C 2.8598 0.1681 -0.3281 0
M  V30 9 H -0.983 -0.3127 -1.4696 0
M  V30 10 H -1.0489 1.9273 -0.8437 0
M  V30 11 H -1.2815 1.5129 0.8851 0
M  V30 12 H -0.9848 -2.2098 0.0557 0
M  V30 13 H -0.8828 -1.0602 1.4309 0
M  V30 14 H -3.0662 -1.2228 -0.7518 0
M  V30 15 H -3.0532 -0.1206 0.6802 0
M  V30 16 H -3.1842 0.5509 -0.9936 0
M  V30 17 H 0.9629 1.2753 1.2639 0
M  V30 18 H 1.1485 2.1702 -0.2845 0
M  V30 19 H 1.3826 -1.2963 1.2297 0
M  V30 20 H 1.2434 -2.0491 -0.3967 0
M  V30 21 H 3.1837 0.2578 0.7328 0
M  V30 22 H 3.2165 1.0572 -0.8912 0
M  V30 23 H 3.3427 -0.7248 -0.7802 0
M  V30 END ATOM
M  V30 BEGIN BOND
M  V30 1 1 1 2
M  V30 2 1 1 3
M  V30 3 1 1 4
M  V30 4 1 2 5
M  V30 5 1 3 6
M  V30 6 1 5 7
M  V30 7 1 7 8
M  V30 8 1 6 7
M  V30 9 1 1 9
M  V30 10 1 2 10
M  V30 11 1 2 11
M  V30 12 1 3 12
M  V30 13 1 3 13
M  V30 14 1 4 14
M  V30 15 1 4 15
M  V30 16 1 4 16
M  V30 17 1 5 17
M  V30 18 1 5 18
M  V30 19 1 6 19
M  V30 20 1 6 20
M  V30 21 1 8 21
M  V30 22 1 8 22
M  V30 23 1 8 23
M  V30 END BOND
M  V30 END CTAB
M  END
>  <Structure No>
2813

>  <LogS>
0.942364321

>  <MMFF94 Energy>
86.673

$$$$
Compound 2814
Actelion Java MolfileCreator 2.0

  0  0  0  0  0  0              0 V3000
M  V30 BEGIN CTAB
M  V30 COUNTS 26 25 0 0 0
M  V30 BEGIN ATOM
M  V30 1 O -0.54 -0.6943 0.0 0
M  V30 2 C 0.3532 -1.7872 -0.0338 0
M  V30 3 C -1.8687 -1.171 -0.0221 0
M  V30 4 C 1.7847 -1.2671 -0.0171 0
M  V30 5 C -2.8292 0.0108 0.0217 0
M  V30 6 O 2.0112 -0.4817 -1.1697 0
M  V30 7 O -2.6374 0.726 1.2241 0
M  V30 8 C 3.2788 0.1436 -1.103 0
M  V30 9 C -3.5173 1.8269 1.2574 0
M  V30 10 C 3.1365 1.5703 -0.5847 0
M  V30 11 H 0.2083 -2.3915 -0.9586 0
M  V30 12 H 0.2106 -2.4394 0.858 0
M  V30 13 H -2.0725 -1.8235 0.8579 0
M  V30 14 H -2.0655 -1.7433 -0.9575 0
M  V30 15 H 1.9322 -0.6737 0.9143 0
M  V30 16 H 2.4751 -2.1406 -0.0083 0
M  V30 17 H -2.6306 0.6584 -0.8634 0
M  V30 18 H -3.8692 -0.3845 -0.0384 0
M  V30 19 H 3.6924 0.1898 -2.1325 0
M  V30 20 H 4.0246 -0.4135 -0.4874 0
M  V30 21 H -4.5794 1.4957 1.2325 0
M  V30 22 H -3.3103 2.5335 0.4231 0
M  V30 23 H -3.36 2.3763 2.2083 0
M  V30 24 H 4.1242 2.0769 -0.6074 0
M  V30 25 H 2.4266 2.1375 -1.2234 0
M  V30 26 H 2.7617 1.5666 0.46 0
M  V30 END ATOM
M  V30 BEGIN BOND
M  V30 1 1 1 2
M  V30 2 1 1 3
M  V30 3 1 2 4
M  V30 4 1 3 5
M  V30 5 1 4 6
M  V30 6 1 5 7
M  V30 7 1 6 8
M  V30 8 1 7 9
M  V30 9 1 8 10
M  V30 10 1 2 11
M  V30 11 1 2 12
M  V30 12 1 3 13
M  V30 13 1 3 14
M  V30 14 1 4 15
M  V30 15 1 4 16
M  V30 16 1 5 17
M  V30 17 1 5 18
M  V30 18 1 8 19
M  V30 19 1 8 20
M  V30 20 1 9 21
M  V30 21 1 9 22
M  V30 22 1 9 23
M  V30 23 1 10 24
M  V30 24 1 10 25
M  V30 25 1 10 26
M  V30 END BOND
M  V30 END CTAB
M  END
>  <Structure No>
2814

>  <LogS>
0.829145935

>  <MMFF94 Energy>
50.249

$$$$
Compound 2815
Actelion Java MolfileCreator 2.0

  0  0  0  0  0  0              0 V3000
M  V30 BEGIN CTAB
M  V30 COUNTS 19 19 0 0 0
M  V30 BEGIN ATOM
M  V30 1 O 0.0 0.0785 -2.3595 0
M  V30 2 C -0.5105 0.0283 -1.2089 0
M  V30 3 N 0.2206 0.2802 -0.0251 0
M  V30 4 C -1.9331 -0.2696 -0.9547 0
M  V30 5 C -0.6668 0.2212 1.1216 0
M  V30 6 C 1.6208 0.6962 0.0336 0
M  V30 7 C -2.0305 -0.2513 0.5795 0
M  V30 8 C 2.5388 -0.4812 -0.2712 0
M  V30 9 H -2.5722 0.5212 -1.4025 0
M  V30 10 H -2.2018 -1.267 -1.364 0
M  V30 11 H -0.7599 1.2323 1.5741 0
M  V30 12 H -0.2699 -0.4929 1.8749 0
M  V30 13 H 1.8578 1.0817 1.049 0
M  V30 14 H 1.7997 1.5149 -0.6961 0
M  V30 15 H -2.2501 -1.2749 0.9547 0
M  V30 16 H -2.8422 0.4316 0.9124 0
M  V30 17 H 2.3567 -1.3026 0.454 0
M  V30 18 H 2.3589 -0.8564 -1.3004 0
M  V30 19 H 3.598 -0.1588 -0.1898 0
M  V30 END ATOM
M  V30 BEGIN BOND
M  V30 1 2 1 2
M  V30 2 1 2 3
M  V30 3 1 2 4
M  V30 4 1 3 5
M  V30 5 1 3 6
M  V30 6 1 4 7
M  V30 7 1 6 8
M  V30 8 1 5 7
M  V30 9 1 4 9
M  V30 10 1 4 10
M  V30 11 1 5 11
M  V30 12 1 5 12
M  V30 13 1 6 13
M  V30 14 1 6 14
M  V30 15 1 7 15
M  V30 16 1 7 16
M  V30 17 1 8 17
M  V30 18 1 8 18
M  V30 19 1 8 19
M  V30 END BOND
M  V30 END CTAB
M  END
>  <Structure No>
2815

>  <LogS>
0.946307061

>  <MMFF94 Energy>
-18.842

$$$$
Compound 2816
Actelion Java MolfileCreator 2.0

  0  0  0  0  0  0              0 V3000
M  V30 BEGIN CTAB
M  V30 COUNTS 19 18 0 0 0
M  V30 BEGIN ATOM
M  V30 1 O -1.7788 -1.5467 -1.7014 0
M  V30 2 C -1.9464 -0.6514 -0.8294 0
M  V30 3 O -0.8527 -0.1321 -0.1278 0
M  V30 4 C -3.3053 -0.16 -0.559 0
M  V30 5 C 0.4828 -0.5723 -0.3507 0
M  V30 6 C -3.5511 0.7826 0.3479 0
M  V30 7 C 1.4294 0.1918 0.5722 0
M  V30 8 C 2.8809 -0.2485 0.3664 0
M  V30 9 O 3.726 0.4435 1.2444 0
M  V30 10 H -4.1341 -0.5793 -1.1164 0
M  V30 11 H 0.7615 -0.3855 -1.4111 0
M  V30 12 H 0.5527 -1.6621 -0.1406 0
M  V30 13 H -4.5666 1.1166 0.5165 0
M  V30 14 H -2.7552 1.2309 0.9291 0
M  V30 15 H 1.1366 0.01 1.6295 0
M  V30 16 H 1.3412 1.2807 0.3652 0
M  V30 17 H 2.9717 -1.3359 0.5754 0
M  V30 18 H 3.1934 -0.0728 -0.6884 0
M  V30 19 H 3.8337 1.3582 0.8735 0
M  V30 END ATOM
M  V30 BEGIN BOND
M  V30 1 2 1 2
M  V30 2 1 2 3
M  V30 3 1 2 4
M  V30 4 1 3 5
M  V30 5 2 4 6
M  V30 6 1 5 7
M  V30 7 1 7 8
M  V30 8 1 8 9
M  V30 9 1 4 10
M  V30 10 1 5 11
M  V30 11 1 5 12
M  V30 12 1 6 13
M  V30 13 1 6 14
M  V30 14 1 7 15
M  V30 15 1 7 16
M  V30 16 1 8 17
M  V30 17 1 8 18
M  V30 18 1 9 19
M  V30 END BOND
M  V30 END CTAB
M  END
>  <Structure No>
2816

>  <LogS>
0.885579186

>  <MMFF94 Energy>
-1.5956

$$$$
Compound 2817
Actelion Java MolfileCreator 2.0

  0  0  0  0  0  0              0 V3000
M  V30 BEGIN CTAB
M  V30 COUNTS 12 12 0 0 0
M  V30 BEGIN ATOM
M  V30 1 N 1.6197 1.2339 0.0 0
M  V30 2 C 0.2814 1.2445 0.1736 0
M  V30 3 C 1.9179 -0.0645 -0.2162 0
M  V30 4 N -0.2563 0.0136 0.0864 0
M  V30 5 C 0.7651 -0.8165 -0.1745 0
M  V30 6 C -1.6719 -0.3284 0.1334 0
M  V30 7 H -0.292 2.1454 0.3518 0
M  V30 8 H 2.9155 -0.4372 -0.405 0
M  V30 9 H 0.6786 -1.8836 -0.334 0
M  V30 10 H -2.1058 -0.2544 -0.8855 0
M  V30 11 H -1.802 -1.3646 0.512 0
M  V30 12 H -2.2105 0.367 0.8118 0
M  V30 END ATOM
M  V30 BEGIN BOND
M  V30 1 2 1 2
M  V30 2 1 1 3
M  V30 3 1 2 4
M  V30 4 2 3 5
M  V30 5 1 4 6
M  V30 6 1 4 5
M  V30 7 1 2 7
M  V30 8 1 3 8
M  V30 9 1 5 9
M  V30 10 1 6 10
M  V30 11 1 6 11
M  V30 12 1 6 12
M  V30 END BOND
M  V30 END CTAB
M  END
>  <Structure No>
2817

>  <LogS>
1.085625105

>  <MMFF94 Energy>
2.1628

$$$$
Compound 2818
Actelion Java MolfileCreator 2.0

  0  0  0  0  0  0              0 V3000
M  V30 BEGIN CTAB
M  V30 COUNTS 51 50 0 0 0
M  V30 BEGIN ATOM
M  V30 1 O 1.4613 3.3867 0.3075 0
M  V30 2 C 0.1332 3.3373 -0.1521 0 CFG=2
M  V30 3 C -0.1516 2.01 -0.9119 0
M  V30 4 C -0.1537 4.5535 -1.0416 0
M  V30 5 N -0.4544 0.8404 -0.0404 0 CHG=1
M  V30 6 C 0.6454 0.4923 0.8979 0
M  V30 7 C -1.7375 1.0321 0.695 0
M  V30 8 C 1.9234 0.02 0.1761 0
M  V30 9 C -2.5157 -0.2857 0.9051 0
M  V30 10 C 2.9582 -0.5186 1.1829 0
M  V30 11 C -3.2497 -0.748 -0.3728 0
M  V30 12 N 4.2712 -0.7989 0.5529 0 CHG=1
M  V30 13 N -4.1827 -1.8714 -0.114 0 CHG=1
M  V30 14 C 5.2874 -1.025 1.5963 0
M  V30 15 C 4.2098 -1.9734 -0.3377 0
M  V30 16 C -5.0565 -2.0748 -1.2837 0
M  V30 17 C -3.4602 -3.1229 0.1842 0
M  V30 18 H 2.0575 3.3745 -0.4865 0
M  V30 19 H -0.536 3.4202 0.7285 0
M  V30 20 H 0.6961 1.7774 -1.5915 0
M  V30 21 H -1.012 2.164 -1.6029 0
M  V30 22 H 0.4543 4.5104 -1.9704 0
M  V30 23 H -1.23 4.5834 -1.3154 0
M  V30 24 H 0.0936 5.4878 -0.494 0
M  V30 25 H -0.569 0.0292 -0.6915 0
M  V30 26 H 0.8801 1.3428 1.5724 0
M  V30 27 H 0.3167 -0.3392 1.5594 0
M  V30 28 H -1.5477 1.4844 1.6951 0
M  V30 29 H -2.4085 1.7494 0.1701 0
M  V30 30 H 1.6505 -0.7792 -0.544 0
M  V30 31 H 2.3773 0.8649 -0.3805 0
M  V30 32 H -1.8241 -1.0755 1.2596 0
M  V30 33 H -3.2686 -0.1147 1.7051 0
M  V30 34 H 3.0842 0.2531 1.977 0
M  V30 35 H 2.5572 -1.4343 1.6746 0
M  V30 36 H -2.5135 -1.0332 -1.1562 0
M  V30 37 H -3.8218 0.1234 -0.7654 0
M  V30 38 H 4.573 0.0322 -0.0093 0
M  V30 39 H -4.7956 -1.6358 0.7025 0
M  V30 40 H 5.0186 -1.8972 2.2335 0
M  V30 41 H 5.3886 -0.1263 2.2439 0
M  V30 42 H 6.2842 -1.2099 1.1384 0
M  V30 43 H 3.5743 -1.7642 -1.2235 0
M  V30 44 H 5.2209 -2.2216 -0.7296 0
M  V30 45 H 3.8096 -2.8637 0.1965 0
M  V30 46 H -5.7815 -2.8967 -1.0926 0
M  V30 47 H -4.46 -2.3267 -2.1891 0
M  V30 48 H -5.6515 -1.1581 -1.4907 0
M  V30 49 H -2.9286 -3.0495 1.1558 0
M  V30 50 H -4.1711 -3.9732 0.2803 0
M  V30 51 H -2.7259 -3.3651 -0.616 0
M  V30 END ATOM
M  V30 BEGIN BOND
M  V30 1 1 1 2
M  V30 2 1 2 3
M  V30 3 1 2 4
M  V30 4 1 3 5
M  V30 5 1 5 6
M  V30 6 1 5 7
M  V30 7 1 6 8
M  V30 8 1 7 9
M  V30 9 1 8 10
M  V30 10 1 9 11
M  V30 11 1 10 12
M  V30 12 1 11 13
M  V30 13 1 12 14
M  V30 14 1 12 15
M  V30 15 1 13 16
M  V30 16 1 13 17
M  V30 17 1 1 18
M  V30 18 1 2 19
M  V30 19 1 3 20
M  V30 20 1 3 21
M  V30 21 1 4 22
M  V30 22 1 4 23
M  V30 23 1 4 24
M  V30 24 1 5 25
M  V30 25 1 6 26
M  V30 26 1 6 27
M  V30 27 1 7 28
M  V30 28 1 7 29
M  V30 29 1 8 30
M  V30 30 1 8 31
M  V30 31 1 9 32
M  V30 32 1 9 33
M  V30 33 1 10 34
M  V30 34 1 10 35
M  V30 35 1 11 36
M  V30 36 1 11 37
M  V30 37 1 12 38
M  V30 38 1 13 39
M  V30 39 1 14 40
M  V30 40 1 14 41
M  V30 41 1 14 42
M  V30 42 1 15 43
M  V30 43 1 15 44
M  V30 44 1 15 45
M  V30 45 1 16 46
M  V30 46 1 16 47
M  V30 47 1 16 48
M  V30 48 1 17 49
M  V30 49 1 17 50
M  V30 50 1 17 51
M  V30 END BOND
M  V30 BEGIN COLLECTION
M  V30 MDLV30/STEABS ATOMS=(1 2)
M  V30 END COLLECTION
M  V30 END CTAB
M  END
>  <Structure No>
2818

>  <LogS>
0.610105975

>  <MMFF94 Energy>
197.41

$$$$
Compound 2819
Actelion Java MolfileCreator 2.0

  0  0  0  0  0  0              0 V3000
M  V30 BEGIN CTAB
M  V30 COUNTS 21 20 0 0 0
M  V30 BEGIN ATOM
M  V30 1 O -0.2249 -0.1499 -0.2249 0
M  V30 2 C 1.0571 -0.1324 0.3652 0
M  V30 3 C -1.1232 -0.8411 0.6176 0
M  V30 4 C 2.0214 0.6099 -0.5609 0
M  V30 5 C -2.5191 -0.8423 -0.0103 0
M  V30 6 N 3.3679 0.6567 0.0082 0 CHG=1
M  V30 7 N -3.0638 0.5124 -0.1081 0 CHG=1
M  V30 8 H 1.0293 0.3968 1.3455 0
M  V30 9 H 1.4351 -1.1701 0.513 0
M  V30 10 H -1.1828 -0.3608 1.6215 0
M  V30 11 H -0.8028 -1.9006 0.7414 0
M  V30 12 H 1.6511 1.6468 -0.7222 0
M  V30 13 H 2.0535 0.0952 -1.5468 0
M  V30 14 H -3.1956 -1.4667 0.6143 0
M  V30 15 H -2.4685 -1.2995 -1.0233 0
M  V30 16 H 3.3536 1.16 0.925 0
M  V30 17 H 3.7355 -0.3132 0.1422 0
M  V30 18 H 3.999 1.1696 -0.6489 0
M  V30 19 H -2.4648 1.0997 -0.7323 0
M  V30 20 H -3.1201 0.9476 0.8412 0
M  V30 21 H -4.026 0.4642 -0.5142 0
M  V30 END ATOM
M  V30 BEGIN BOND
M  V30 1 1 1 2
M  V30 2 1 1 3
M  V30 3 1 2 4
M  V30 4 1 3 5
M  V30 5 1 4 6
M  V30 6 1 5 7
M  V30 7 1 2 8
M  V30 8 1 2 9
M  V30 9 1 3 10
M  V30 10 1 3 11
M  V30 11 1 4 12
M  V30 12 1 4 13
M  V30 13 1 5 14
M  V30 14 1 5 15
M  V30 15 1 6 16
M  V30 16 1 6 17
M  V30 17 1 6 18
M  V30 18 1 7 19
M  V30 19 1 7 20
M  V30 20 1 7 21
M  V30 END BOND
M  V30 END CTAB
M  END
>  <Structure No>
2819

>  <LogS>
0.982328216

>  <MMFF94 Energy>
94.754

$$$$
Compound 2820
Actelion Java MolfileCreator 2.0

  0  0  0  0  0  0              0 V3000
M  V30 BEGIN CTAB
M  V30 COUNTS 37 36 0 0 0
M  V30 BEGIN ATOM
M  V30 1 O -0.3883 -0.5437 -1.2431 0
M  V30 2 C 1.0102 -0.6562 -1.4265 0
M  V30 3 C -0.9921 0.0473 -2.3756 0
M  V30 4 C 1.7267 0.5081 -0.7389 0
M  V30 5 C -2.4625 0.3129 -2.0811 0
M  V30 6 O 3.1278 0.3905 -0.9059 0
M  V30 7 O -2.5666 1.2334 -1.0141 0
M  V30 8 C 3.7258 -0.2783 0.1894 0
M  V30 9 C -3.9157 1.3777 -0.6112 0
M  V30 10 C 4.22 0.7349 1.2248 0
M  V30 11 C -4.1981 0.5022 0.6072 0
M  V30 12 O 4.8037 0.0635 2.3257 0
M  V30 13 O -5.522 0.7283 1.0421 0
M  V30 14 C 6.2078 0.0284 2.1936 0
M  V30 15 C -5.7865 -0.0746 2.1704 0
M  V30 16 H 1.3376 -1.6051 -0.9529 0
M  V30 17 H 1.3198 -0.7175 -2.4973 0
M  V30 18 H -0.9281 -0.6433 -3.2465 0
M  V30 19 H -0.5053 1.0146 -2.6378 0
M  V30 20 H 1.4116 0.58 0.3287 0
M  V30 21 H 1.4076 1.4556 -1.2208 0
M  V30 22 H -2.9328 0.7358 -2.9974 0
M  V30 23 H -2.9523 -0.6562 -1.8315 0
M  V30 24 H 4.5983 -0.8448 -0.1969 0
M  V30 25 H 3.055 -1.0281 0.671 0
M  V30 26 H -4.0729 2.4388 -0.3226 0
M  V30 27 H -4.653 1.1586 -1.4207 0
M  V30 28 H 4.8974 1.4779 0.739 0
M  V30 29 H 3.3492 1.31 1.6034 0
M  V30 30 H -4.0565 -0.5644 0.3207 0
M  V30 31 H -3.4698 0.7698 1.4071 0
M  V30 32 H 6.5167 -0.4486 1.2374 0
M  V30 33 H 6.6262 -0.5779 3.0229 0
M  V30 34 H 6.6369 1.0515 2.2735 0
M  V30 35 H -6.8285 0.113 2.5013 0
M  V30 36 H -5.702 -1.1565 1.924 0
M  V30 37 H -5.113 0.1853 3.0173 0
M  V30 END ATOM
M  V30 BEGIN BOND
M  V30 1 1 1 2
M  V30 2 1 1 3
M  V30 3 1 2 4
M  V30 4 1 3 5
M  V30 5 1 4 6
M  V30 6 1 5 7
M  V30 7 1 6 8
M  V30 8 1 7 9
M  V30 9 1 8 10
M  V30 10 1 9 11
M  V30 11 1 10 12
M  V30 12 1 11 13
M  V30 13 1 12 14
M  V30 14 1 13 15
M  V30 15 1 2 16
M  V30 16 1 2 17
M  V30 17 1 3 18
M  V30 18 1 3 19
M  V30 19 1 4 20
M  V30 20 1 4 21
M  V30 21 1 5 22
M  V30 22 1 5 23
M  V30 23 1 8 24
M  V30 24 1 8 25
M  V30 25 1 9 26
M  V30 26 1 9 27
M  V30 27 1 10 28
M  V30 28 1 10 29
M  V30 29 1 11 30
M  V30 30 1 11 31
M  V30 31 1 14 32
M  V30 32 1 14 33
M  V30 33 1 14 34
M  V30 34 1 15 35
M  V30 35 1 15 36
M  V30 36 1 15 37
M  V30 END BOND
M  V30 END CTAB
M  END
>  <Structure No>
2820

>  <LogS>
0.653097658

>  <MMFF94 Energy>
97.528

$$$$
Compound 2821
Actelion Java MolfileCreator 2.0

  0  0  0  0  0  0              0 V3000
M  V30 BEGIN CTAB
M  V30 COUNTS 30 29 0 0 0
M  V30 BEGIN ATOM
M  V30 1 O -1.5494 -0.2322 -1.0843 0
M  V30 2 C -0.6639 -1.2726 -0.7236 0
M  V30 3 C -2.8412 -0.4738 -0.5588 0
M  V30 4 C 0.7499 -0.9054 -1.1551 0
M  V30 5 C -3.0383 0.3138 0.7383 0
M  V30 6 O 1.1534 0.2705 -0.4834 0
M  V30 7 O -4.3293 0.0715 1.2662 0
M  V30 8 C 2.5103 0.5617 -0.7613 0
M  V30 9 C -5.2123 1.1112 0.9063 0
M  V30 10 C 3.4004 0.0624 0.3787 0
M  V30 11 O 4.758 0.3521 0.1018 0
M  V30 12 C 5.1565 1.5302 0.7678 0
M  V30 13 H -0.9535 -2.2164 -1.2386 0
M  V30 14 H -0.6623 -1.4414 0.3778 0
M  V30 15 H -3.0625 -1.5549 -0.388 0
M  V30 16 H -3.5814 -0.1183 -1.3058 0
M  V30 17 H 0.7539 -0.7432 -2.2569 0
M  V30 18 H 1.4211 -1.7591 -0.907 0
M  V30 19 H -2.817 1.3948 0.5664 0
M  V30 20 H -2.2967 -0.0402 1.4845 0
M  V30 21 H 2.8692 0.1503 -1.7352 0
M  V30 22 H 2.6108 1.6649 -0.8329 0
M  V30 23 H -5.2603 1.2434 -0.1972 0
M  V30 24 H -4.9202 2.0648 1.399 0
M  V30 25 H -6.2311 0.8485 1.2583 0
M  V30 26 H 3.0411 0.474 1.3527 0
M  V30 27 H 3.2986 -1.0405 0.4508 0
M  V30 28 H 5.1571 1.3791 1.8699 0
M  V30 29 H 4.5096 2.3933 0.4948 0
M  V30 30 H 6.1936 1.7768 0.461 0
M  V30 END ATOM
M  V30 BEGIN BOND
M  V30 1 1 1 2
M  V30 2 1 1 3
M  V30 3 1 2 4
M  V30 4 1 3 5
M  V30 5 1 4 6
M  V30 6 1 5 7
M  V30 7 1 6 8
M  V30 8 1 7 9
M  V30 9 1 8 10
M  V30 10 1 10 11
M  V30 11 1 11 12
M  V30 12 1 2 13
M  V30 13 1 2 14
M  V30 14 1 3 15
M  V30 15 1 3 16
M  V30 16 1 4 17
M  V30 17 1 4 18
M  V30 18 1 5 19
M  V30 19 1 5 20
M  V30 20 1 8 21
M  V30 21 1 8 22
M  V30 22 1 9 23
M  V30 23 1 9 24
M  V30 24 1 9 25
M  V30 25 1 10 26
M  V30 26 1 10 27
M  V30 27 1 12 28
M  V30 28 1 12 29
M  V30 29 1 12 30
M  V30 END BOND
M  V30 END CTAB
M  END
>  <Structure No>
2821

>  <LogS>
0.749024066

>  <MMFF94 Energy>
73.53

$$$$
Compound 2822
Actelion Java MolfileCreator 2.0

  0  0  0  0  0  0              0 V3000
M  V30 BEGIN CTAB
M  V30 COUNTS 22 22 0 0 0
M  V30 BEGIN ATOM
M  V30 1 O 0.1554 1.0106 0.3886 0
M  V30 2 C 1.1979 0.2968 -0.2519 0 CFG=2
M  V30 3 C -1.0945 0.6657 -0.182 0 CFG=1
M  V30 4 C 1.0076 -1.2209 -0.0546 0
M  V30 5 C 2.5351 0.7462 0.3333 0
M  V30 6 C -1.3782 -0.8369 0.0181 0
M  V30 7 C -2.1863 1.5061 0.4773 0
M  V30 8 N -0.301 -1.6424 -0.5715 0 CHG=1
M  V30 9 H 1.2163 0.5311 -1.342 0
M  V30 10 H -1.1034 0.9044 -1.2713 0
M  V30 11 H 1.8109 -1.7717 -0.5924 0
M  V30 12 H 1.0829 -1.475 1.0274 0
M  V30 13 H 2.5699 0.5429 1.4252 0
M  V30 14 H 3.3727 0.2115 -0.1633 0
M  V30 15 H 2.6682 1.8368 0.1703 0
M  V30 16 H -2.3444 -1.103 -0.4657 0
M  V30 17 H -1.4651 -1.0649 1.1051 0
M  V30 18 H -3.1774 1.2656 0.0365 0
M  V30 19 H -2.2182 1.3135 1.5713 0
M  V30 20 H -1.9804 2.585 0.3122 0
M  V30 21 H -0.4558 -2.6494 -0.3324 0
M  V30 22 H -0.3166 -1.5416 -1.614 0
M  V30 END ATOM
M  V30 BEGIN BOND
M  V30 1 1 1 2
M  V30 2 1 1 3
M  V30 3 1 2 4
M  V30 4 1 2 5
M  V30 5 1 3 6
M  V30 6 1 3 7
M  V30 7 1 4 8
M  V30 8 1 6 8
M  V30 9 1 2 9
M  V30 10 1 3 10
M  V30 11 1 4 11
M  V30 12 1 4 12
M  V30 13 1 5 13
M  V30 14 1 5 14
M  V30 15 1 5 15
M  V30 16 1 6 16
M  V30 17 1 6 17
M  V30 18 1 7 18
M  V30 19 1 7 19
M  V30 20 1 7 20
M  V30 21 1 8 21
M  V30 22 1 8 22
M  V30 END BOND
M  V30 BEGIN COLLECTION
M  V30 MDLV30/STEABS ATOMS=(2 2 3)
M  V30 END COLLECTION
M  V30 END CTAB
M  END
>  <Structure No>
2822

>  <LogS>
0.938638008

>  <MMFF94 Energy>
72.462

$$$$
Compound 2823
Actelion Java MolfileCreator 2.0

  0  0  0  0  0  0              0 V3000
M  V30 BEGIN CTAB
M  V30 COUNTS 8 7 0 0 0
M  V30 BEGIN ATOM
M  V30 1 S 1.456 -0.5137 0.7706 0
M  V30 2 C 0.1069 -0.5807 -0.4453 0
M  V30 3 C -0.9612 0.3937 -0.0745 0
M  V30 4 O -1.8756 0.0579 0.7231 0
M  V30 5 O -0.9223 1.6905 -0.5707 0 CHG=-1
M  V30 6 H 1.8231 0.7966 0.4076 0
M  V30 7 H -0.311 -1.6093 -0.468 0
M  V30 8 H 0.5059 -0.3394 -1.453 0
M  V30 END ATOM
M  V30 BEGIN BOND
M  V30 1 1 1 2
M  V30 2 1 2 3
M  V30 3 2 3 4
M  V30 4 1 3 5
M  V30 5 1 1 6
M  V30 6 1 2 7
M  V30 7 1 2 8
M  V30 END BOND
M  V30 END CTAB
M  END
>  <Structure No>
2823

>  <LogS>
0.81473273

>  <MMFF94 Energy>
39.221

$$$$
Compound 2824
Actelion Java MolfileCreator 2.0

  0  0  0  0  0  0              0 V3000
M  V30 BEGIN CTAB
M  V30 COUNTS 18 17 0 0 0
M  V30 BEGIN ATOM
M  V30 1 O -2.488 -1.123 -1.2835 0
M  V30 2 C -1.8878 -0.7162 -0.2538 0
M  V30 3 O -1.9296 -1.4822 0.9059 0 CHG=-1
M  V30 4 C -1.09 0.5605 -0.3063 0 CFG=2
M  V30 5 C 0.3519 0.3118 -0.8025 0
M  V30 6 C -1.1341 1.3099 1.0328 0
M  V30 7 C 1.1884 -0.597 0.1125 0
M  V30 8 C 2.5443 -0.822 -0.4783 0
M  V30 9 O 3.4875 -0.0286 -0.2208 0
M  V30 10 O 2.7543 -1.8799 -1.3537 0 CHG=-1
M  V30 11 H -1.5762 1.2257 -1.0549 0
M  V30 12 H 0.3019 -0.1423 -1.8173 0
M  V30 13 H 0.8674 1.2922 -0.9092 0
M  V30 14 H -0.7354 0.6881 1.8612 0
M  V30 15 H -0.5389 2.2456 0.9678 0
M  V30 16 H -2.183 1.5837 1.2763 0
M  V30 17 H 0.6899 -1.5809 0.2387 0
M  V30 18 H 1.3072 -0.1338 1.1146 0
M  V30 END ATOM
M  V30 BEGIN BOND
M  V30 1 2 1 2
M  V30 2 1 2 3
M  V30 3 1 2 4
M  V30 4 1 4 5
M  V30 5 1 4 6
M  V30 6 1 5 7
M  V30 7 1 7 8
M  V30 8 2 8 9
M  V30 9 1 8 10
M  V30 10 1 4 11
M  V30 11 1 5 12
M  V30 12 1 5 13
M  V30 13 1 6 14
M  V30 14 1 6 15
M  V30 15 1 6 16
M  V30 16 1 7 17
M  V30 17 1 7 18
M  V30 END BOND
M  V30 BEGIN COLLECTION
M  V30 MDLV30/STEABS ATOMS=(1 4)
M  V30 END COLLECTION
M  V30 END CTAB
M  END
>  <Structure No>
2824

>  <LogS>
0.835224953

>  <MMFF94 Energy>
68.76

$$$$
Compound 2825
Actelion Java MolfileCreator 2.0

  0  0  0  0  0  0              0 V3000
M  V30 BEGIN CTAB
M  V30 COUNTS 11 10 0 0 0
M  V30 BEGIN ATOM
M  V30 1 O -2.9483 0.1636 -0.0818 0
M  V30 2 C -1.8334 0.6603 0.2269 0
M  V30 3 O -1.793 1.9181 0.8194 0 CHG=-1
M  V30 4 C -0.5951 -0.0941 -0.0468 0
M  V30 5 O -0.7296 -1.3476 -0.6522 0
M  V30 6 C 0.6022 0.4167 0.3057 0
M  V30 7 C 1.9156 -0.1706 -0.0191 0
M  V30 8 O 2.0715 -0.9349 -1.0072 0
M  V30 9 O 3.0238 0.1968 0.7326 0 CHG=-1
M  V30 10 H 0.0127 -2.0308 -0.7077 0
M  V30 11 H 0.6342 1.3437 0.8655 0
M  V30 END ATOM
M  V30 BEGIN BOND
M  V30 1 2 1 2
M  V30 2 1 2 3
M  V30 3 1 2 4
M  V30 4 1 4 5
M  V30 5 2 4 6
M  V30 6 1 6 7
M  V30 7 2 7 8
M  V30 8 1 7 9
M  V30 9 1 5 10
M  V30 10 1 6 11
M  V30 END BOND
M  V30 END CTAB
M  END
>  <Structure No>
2825

>  <LogS>
0.879192534

>  <MMFF94 Energy>
86.434

$$$$
Compound 2826
Actelion Java MolfileCreator 2.0

  0  0  0  0  0  0              0 V3000
M  V30 BEGIN CTAB
M  V30 COUNTS 25 24 0 0 0
M  V30 BEGIN ATOM
M  V30 1 O -0.232 -0.9283 -0.1546 0
M  V30 2 C -1.4698 -0.6413 -0.7808 0
M  V30 3 C 0.7774 -0.0549 -0.6188 0
M  V30 4 C -2.3362 0.2652 0.1067 0 CFG=1
M  V30 5 C 2.0542 -0.2837 0.1944 0 CFG=1
M  V30 6 O -3.5355 0.5431 -0.5692 0
M  V30 7 C -2.6432 -0.4088 1.4553 0
M  V30 8 O 2.471 -1.615 0.029 0
M  V30 9 C 3.1651 0.674 -0.2622 0
M  V30 10 O -3.4207 0.4337 2.2624 0
M  V30 11 O 4.2952 0.5414 0.5574 0
M  V30 12 H -2.004 -1.6023 -0.9418 0
M  V30 13 H -1.3572 -0.1826 -1.7926 0
M  V30 14 H 0.9916 -0.2571 -1.6934 0
M  V30 15 H 0.4657 1.0084 -0.5008 0
M  V30 16 H -1.778 1.2123 0.2916 0
M  V30 17 H 1.8199 -0.0803 1.2667 0
M  V30 18 H -3.8969 1.3845 -0.1852 0
M  V30 19 H -1.6988 -0.6716 1.9843 0
M  V30 20 H -3.2078 -1.3499 1.2814 0
M  V30 21 H 2.9911 -1.8585 0.8388 0
M  V30 22 H 3.4282 0.4846 -1.3289 0
M  V30 23 H 2.8046 1.7222 -0.1849 0
M  V30 24 H -2.8126 1.1408 2.6033 0
M  V30 25 H 4.8226 -0.219 0.1982 0
M  V30 END ATOM
M  V30 BEGIN BOND
M  V30 1 1 1 2
M  V30 2 1 1 3
M  V30 3 1 2 4
M  V30 4 1 3 5
M  V30 5 1 4 6
M  V30 6 1 4 7
M  V30 7 1 5 8
M  V30 8 1 5 9
M  V30 9 1 7 10
M  V30 10 1 9 11
M  V30 11 1 2 12
M  V30 12 1 2 13
M  V30 13 1 3 14
M  V30 14 1 3 15
M  V30 15 1 4 16
M  V30 16 1 5 17
M  V30 17 1 6 18
M  V30 18 1 7 19
M  V30 19 1 7 20
M  V30 20 1 8 21
M  V30 21 1 9 22
M  V30 22 1 9 23
M  V30 23 1 10 24
M  V30 24 1 11 25
M  V30 END BOND
M  V30 BEGIN COLLECTION
M  V30 MDLV30/STEABS ATOMS=(2 4 5)
M  V30 END COLLECTION
M  V30 END CTAB
M  END
>  <Structure No>
2826

>  <LogS>
0.77943954

>  <MMFF94 Energy>
76.298

$$$$
Compound 2827
Actelion Java MolfileCreator 2.0

  0  0  0  0  0  0              0 V3000
M  V30 BEGIN CTAB
M  V30 COUNTS 30 31 0 0 0
M  V30 BEGIN ATOM
M  V30 1 Cl 3.4026 0.3236 -2.3485 0
M  V30 2 C 3.7362 0.5311 -0.6087 0
M  V30 3 C 2.9522 -0.4732 0.2432 0
M  V30 4 C 1.4689 -0.147 0.289 0
M  V30 5 C 0.5775 -0.7321 -0.6355 0
M  V30 6 C 0.9394 0.7698 1.2243 0
M  V30 7 O 1.015 -1.5517 -1.4902 0
M  V30 8 N -0.7564 -0.417 -0.6073 0
M  V30 9 N -0.3859 1.0565 1.2004 0
M  V30 10 C 1.7832 1.4199 2.2833 0
M  V30 11 C -1.2267 0.4829 0.3056 0
M  V30 12 C -1.7088 -0.9741 -1.585 0
M  V30 13 C -2.6779 0.8612 0.2978 0
M  V30 14 C -3.0054 -1.4182 -0.8876 0
M  V30 15 C -3.5553 -0.3879 0.1294 0
M  V30 16 H 4.8233 0.373 -0.4474 0
M  V30 17 H 3.4923 1.5738 -0.3188 0
M  V30 18 H 3.3732 -0.4789 1.27 0
M  V30 19 H 3.12 -1.4992 -0.1489 0
M  V30 20 H 1.187 2.1659 2.8508 0
M  V30 21 H 2.1476 0.6529 2.9978 0
M  V30 22 H 2.6454 1.9481 1.8296 0
M  V30 23 H -1.2879 -1.8509 -2.1222 0
M  V30 24 H -1.9447 -0.1972 -2.3447 0
M  V30 25 H -2.9508 1.3832 1.2408 0
M  V30 26 H -2.858 1.5585 -0.5483 0
M  V30 27 H -3.7763 -1.6291 -1.6602 0
M  V30 28 H -2.805 -2.3744 -0.3562 0
M  V30 29 H -3.6566 -0.8831 1.1204 0
M  V30 30 H -4.575 -0.0685 -0.1774 0
M  V30 END ATOM
M  V30 BEGIN BOND
M  V30 1 1 1 2
M  V30 2 1 2 3
M  V30 3 1 3 4
M  V30 4 1 4 5
M  V30 5 2 4 6
M  V30 6 2 5 7
M  V30 7 1 5 8
M  V30 8 1 6 9
M  V30 9 1 6 10
M  V30 10 1 8 11
M  V30 11 1 8 12
M  V30 12 1 11 13
M  V30 13 1 12 14
M  V30 14 1 13 15
M  V30 15 2 9 11
M  V30 16 1 14 15
M  V30 17 1 2 16
M  V30 18 1 2 17
M  V30 19 1 3 18
M  V30 20 1 3 19
M  V30 21 1 10 20
M  V30 22 1 10 21
M  V30 23 1 10 22
M  V30 24 1 12 23
M  V30 25 1 12 24
M  V30 26 1 13 25
M  V30 27 1 13 26
M  V30 28 1 14 27
M  V30 29 1 14 28
M  V30 30 1 15 29
M  V30 31 1 15 30
M  V30 END BOND
M  V30 END CTAB
M  END
>  <Structure No>
2827

>  <LogS>
0.57976692

>  <MMFF94 Energy>
-37.756

$$$$
Compound 2828
Actelion Java MolfileCreator 2.0

  0  0  0  0  0  0              0 V3000
M  V30 BEGIN CTAB
M  V30 COUNTS 43 44 0 0 0
M  V30 BEGIN ATOM
M  V30 1 O -5.9476 0.5614 -2.4883 0
M  V30 2 C -5.2287 -0.419 -2.16 0
M  V30 3 N -4.5763 -0.5341 -0.8979 0
M  V30 4 N -5.0068 -1.5322 -3.0025 0
M  V30 5 C -3.9132 -1.8385 -0.8562 0 CFG=1
M  V30 6 C -4.8838 0.2761 0.2781 0
M  V30 7 C -4.2088 -2.4024 -2.2149 0
M  V30 8 N -2.4727 -1.6663 -0.669 0
M  V30 9 O -5.9571 -0.2851 0.9812 0
M  V30 10 O -3.8173 -3.5283 -2.6199 0
M  V30 11 C -1.8462 -1.7752 0.616 0
M  V30 12 O -2.5194 -2.1262 1.6236 0
M  V30 13 N -0.4511 -1.4816 0.7532 0
M  V30 14 C 0.2259 -1.5646 2.0456 0
M  V30 15 N 1.622 -1.1558 1.9139 0
M  V30 16 C 1.9981 0.1995 1.638 0
M  V30 17 O 1.113 1.0941 1.547 0
M  V30 18 N 3.3816 0.5321 1.4641 0
M  V30 19 C 3.8204 1.8544 1.0174 0 CFG=2
M  V30 20 N 4.0863 1.8382 -0.421 0
M  V30 21 C 5.1667 2.1867 1.5926 0
M  V30 22 C 5.4627 2.1454 -0.6199 0
M  V30 23 C 3.0821 1.6929 -1.4722 0
M  V30 24 O 5.4032 2.317 2.8224 0
M  V30 25 N 6.1603 2.3552 0.5917 0
M  V30 26 O 6.0027 2.2404 -1.7535 0
M  V30 27 O 3.2616 0.4751 -2.1402 0
M  V30 28 H -5.3821 -1.6968 -3.9627 0
M  V30 29 H -4.3639 -2.4877 -0.0743 0
M  V30 30 H -5.1198 1.3213 -0.0234 0
M  V30 31 H -3.9968 0.3118 0.9441 0
M  V30 32 H -1.9026 -1.3114 -1.4703 0
M  V30 33 H -6.766 -0.1318 0.4268 0
M  V30 34 H 0.0901 -1.2045 -0.0969 0
M  V30 35 H 0.1821 -2.6125 2.4131 0
M  V30 36 H -0.2851 -0.9109 2.7853 0
M  V30 37 H 2.3683 -1.8781 2.0264 0
M  V30 38 H 4.0848 -0.2404 1.5036 0
M  V30 39 H 3.0889 2.6508 1.2747 0
M  V30 40 H 3.1478 2.548 -2.182 0
M  V30 41 H 2.0659 1.7038 -1.0259 0
M  V30 42 H 7.1653 2.6067 0.7196 0
M  V30 43 H 4.0371 0.5963 -2.7472 0
M  V30 END ATOM
M  V30 BEGIN BOND
M  V30 1 2 1 2
M  V30 2 1 2 3
M  V30 3 1 2 4
M  V30 4 1 3 5
M  V30 5 1 3 6
M  V30 6 1 4 7
M  V30 7 1 5 8
M  V30 8 1 6 9
M  V30 9 2 7 10
M  V30 10 1 8 11
M  V30 11 2 11 12
M  V30 12 1 11 13
M  V30 13 1 13 14
M  V30 14 1 14 15
M  V30 15 1 15 16
M  V30 16 2 16 17
M  V30 17 1 16 18
M  V30 18 1 18 19
M  V30 19 1 19 20
M  V30 20 1 19 21
M  V30 21 1 20 22
M  V30 22 1 20 23
M  V30 23 2 21 24
M  V30 24 1 21 25
M  V30 25 2 22 26
M  V30 26 1 23 27
M  V30 27 1 5 7
M  V30 28 1 22 25
M  V30 29 1 4 28
M  V30 30 1 5 29
M  V30 31 1 6 30
M  V30 32 1 6 31
M  V30 33 1 8 32
M  V30 34 1 9 33
M  V30 35 1 13 34
M  V30 36 1 14 35
M  V30 37 1 14 36
M  V30 38 1 15 37
M  V30 39 1 18 38
M  V30 40 1 19 39
M  V30 41 1 23 40
M  V30 42 1 23 41
M  V30 43 1 25 42
M  V30 44 1 27 43
M  V30 END BOND
M  V30 BEGIN COLLECTION
M  V30 MDLV30/STEABS ATOMS=(2 5 19)
M  V30 END COLLECTION
M  V30 END CTAB
M  END
>  <Structure No>
2828

>  <LogS>
0.410835965

>  <MMFF94 Energy>
-475.73

$$$$
Compound 2829
Actelion Java MolfileCreator 2.0

  0  0  0  0  0  0              0 V3000
M  V30 BEGIN CTAB
M  V30 COUNTS 16 15 0 0 0
M  V30 BEGIN ATOM
M  V30 1 O 0.9023 0.6014 1.73 0
M  V30 2 C 0.3945 -0.0297 0.5826 0 CFG=2
M  V30 3 C 1.3111 0.296 -0.6068 0
M  V30 4 C -1.054 0.4461 0.3399 0
M  V30 5 O 2.6384 -0.0465 -0.3106 0
M  V30 6 N -1.7129 -0.3038 -0.7319 0 CHG=1
M  V30 7 H 0.5116 0.1332 2.5138 0
M  V30 8 H 0.398 -1.135 0.7335 0
M  V30 9 H 1.2698 1.3851 -0.8231 0
M  V30 10 H 0.9808 -0.2474 -1.5197 0
M  V30 11 H -1.6353 0.3104 1.2794 0
M  V30 12 H -1.0626 1.5324 0.098 0
M  V30 13 H 2.6948 -1.0364 -0.3628 0
M  V30 14 H -1.6175 -1.3326 -0.5712 0
M  V30 15 H -2.7297 -0.0596 -0.7411 0
M  V30 16 H -1.3071 -0.0464 -1.6597 0
M  V30 END ATOM
M  V30 BEGIN BOND
M  V30 1 1 1 2
M  V30 2 1 2 3
M  V30 3 1 2 4
M  V30 4 1 3 5
M  V30 5 1 4 6
M  V30 6 1 1 7
M  V30 7 1 2 8
M  V30 8 1 3 9
M  V30 9 1 3 10
M  V30 10 1 4 11
M  V30 11 1 4 12
M  V30 12 1 5 13
M  V30 13 1 6 14
M  V30 14 1 6 15
M  V30 15 1 6 16
M  V30 END BOND
M  V30 BEGIN COLLECTION
M  V30 MDLV30/STEABS ATOMS=(1 2)
M  V30 END COLLECTION
M  V30 END CTAB
M  END
>  <Structure No>
2829

>  <LogS>
1.040433953

>  <MMFF94 Energy>
32.056

$$$$
Compound 2830
Actelion Java MolfileCreator 2.0

  0  0  0  0  0  0              0 V3000
M  V30 BEGIN CTAB
M  V30 COUNTS 12 12 0 0 0
M  V30 BEGIN ATOM
M  V30 1 N 1.6977 1.0801 -0.1542 0
M  V30 2 N 0.3866 1.2304 -0.0602 0
M  V30 3 C 1.9661 -0.2397 -0.0925 0
M  V30 4 C -0.1898 0.0232 0.07 0
M  V30 5 C 0.7874 -0.9482 0.041 0
M  V30 6 C -1.6636 -0.2095 0.1261 0
M  V30 7 H -0.103 2.152 -0.0944 0
M  V30 8 H 2.9599 -0.6624 -0.1518 0
M  V30 9 H 0.6621 -2.0214 0.0978 0
M  V30 10 H -2.1645 0.6494 0.6199 0
M  V30 11 H -1.8829 -1.132 0.704 0
M  V30 12 H -2.0598 -0.3203 -0.9044 0
M  V30 END ATOM
M  V30 BEGIN BOND
M  V30 1 1 1 2
M  V30 2 2 1 3
M  V30 3 1 2 4
M  V30 4 1 3 5
M  V30 5 1 4 6
M  V30 6 2 4 5
M  V30 7 1 2 7
M  V30 8 1 3 8
M  V30 9 1 5 9
M  V30 10 1 6 10
M  V30 11 1 6 11
M  V30 12 1 6 12
M  V30 END BOND
M  V30 END CTAB
M  END
>  <Structure No>
2830

>  <LogS>
1.085625105

>  <MMFF94 Energy>
6.642

$$$$
Compound 2831
Actelion Java MolfileCreator 2.0

  0  0  0  0  0  0              0 V3000
M  V30 BEGIN CTAB
M  V30 COUNTS 14 13 0 0 0
M  V30 BEGIN ATOM
M  V30 1 O 2.1626 -1.0808 -1.1581 0
M  V30 2 C 1.4785 -0.5175 -0.2624 0
M  V30 3 N 1.9938 0.6355 0.4028 0
M  V30 4 C 0.1137 -1.0358 0.0707 0
M  V30 5 C -0.9358 -0.2101 -0.6205 0
M  V30 6 O -1.0809 -0.3119 -1.8294 0
M  V30 7 C -1.8083 0.7416 0.1429 0
M  V30 8 H 1.4292 1.1254 1.132 0
M  V30 9 H 2.9406 1.004 0.1622 0
M  V30 10 H 0.0177 -2.0964 -0.2478 0
M  V30 11 H -0.0248 -1.0087 1.1726 0
M  V30 12 H -1.6753 1.7685 -0.2575 0
M  V30 13 H -1.5516 0.7486 1.2229 0
M  V30 14 H -2.8715 0.4427 0.0307 0
M  V30 END ATOM
M  V30 BEGIN BOND
M  V30 1 2 1 2
M  V30 2 1 2 3
M  V30 3 1 2 4
M  V30 4 1 4 5
M  V30 5 2 5 6
M  V30 6 1 5 7
M  V30 7 1 3 8
M  V30 8 1 3 9
M  V30 9 1 4 10
M  V30 10 1 4 11
M  V30 11 1 7 12
M  V30 12 1 7 13
M  V30 13 1 7 14
M  V30 END BOND
M  V30 END CTAB
M  END
>  <Structure No>
2831

>  <LogS>
0.995227367

>  <MMFF94 Energy>
-32.112

$$$$
Compound 2832
Actelion Java MolfileCreator 2.0

  0  0  0  0  0  0              0 V3000
M  V30 BEGIN CTAB
M  V30 COUNTS 14 14 0 0 0
M  V30 BEGIN ATOM
M  V30 1 O 3.1985 -0.0798 0.8788 0
M  V30 2 C 2.0883 -0.1177 0.2884 0
M  V30 3 O 1.0251 0.6926 0.6085 0
M  V30 4 O 1.8023 -0.9757 -0.7461 0
M  V30 5 C -0.0615 0.3906 -0.259 0 CFG=1
M  V30 6 C 0.4642 -0.754 -1.1706 0
M  V30 7 C -1.2866 -0.0291 0.5551 0
M  V30 8 O -1.7043 1.0379 1.36 0
M  V30 9 H -0.3032 1.2864 -0.8726 0
M  V30 10 H -0.1207 -1.6926 -1.0585 0
M  V30 11 H 0.4588 -0.4397 -2.2362 0
M  V30 12 H -1.0301 -0.9039 1.1947 0
M  V30 13 H -2.1081 -0.3155 -0.1392 0
M  V30 14 H -2.4954 0.7103 1.8621 0
M  V30 END ATOM
M  V30 BEGIN BOND
M  V30 1 2 1 2
M  V30 2 1 2 3
M  V30 3 1 2 4
M  V30 4 1 3 5
M  V30 5 1 4 6
M  V30 6 1 5 7
M  V30 7 1 7 8
M  V30 8 1 5 6
M  V30 9 1 5 9
M  V30 10 1 6 10
M  V30 11 1 6 11
M  V30 12 1 7 12
M  V30 13 1 7 13
M  V30 14 1 8 14
M  V30 END BOND
M  V30 BEGIN COLLECTION
M  V30 MDLV30/STEABS ATOMS=(1 5)
M  V30 END COLLECTION
M  V30 END CTAB
M  END
>  <Structure No>
2832

>  <LogS>
0.927794233

>  <MMFF94 Energy>
-4.0399

$$$$
Compound 2833
Actelion Java MolfileCreator 2.0

  0  0  0  0  0  0              0 V3000
M  V30 BEGIN CTAB
M  V30 COUNTS 20 20 0 0 0
M  V30 BEGIN ATOM
M  V30 1 O 1.896 1.1847 -1.6589 0
M  V30 2 C 1.5771 0.2414 -0.8844 0
M  V30 3 N 0.2975 0.2618 -0.2099 0
M  V30 4 C 2.5475 -0.8879 -0.7043 0
M  V30 5 C -0.505 1.4932 -0.2381 0
M  V30 6 C -0.0359 -0.7586 0.7955 0
M  V30 7 C -1.9826 1.1809 0.0139 0
M  V30 8 C -1.5539 -0.8751 0.9651 0
M  V30 9 O -2.1371 0.3943 1.1773 0
M  V30 10 H 3.506 -0.6631 -1.2188 0
M  V30 11 H 2.759 -1.0387 0.3748 0
M  V30 12 H 2.1251 -1.8179 -1.1381 0
M  V30 13 H -0.4217 1.9967 -1.2255 0
M  V30 14 H -0.1336 2.1875 0.5464 0
M  V30 15 H 0.4263 -0.4781 1.7665 0
M  V30 16 H 0.3468 -1.7554 0.4922 0
M  V30 17 H -2.5281 2.1371 0.1598 0
M  V30 18 H -2.4338 0.6832 -0.8751 0
M  V30 19 H -2.0069 -1.3861 0.0843 0
M  V30 20 H -1.7646 -1.512 1.85 0
M  V30 END ATOM
M  V30 BEGIN BOND
M  V30 1 2 1 2
M  V30 2 1 2 3
M  V30 3 1 2 4
M  V30 4 1 3 5
M  V30 5 1 3 6
M  V30 6 1 5 7
M  V30 7 1 6 8
M  V30 8 1 7 9
M  V30 9 1 8 9
M  V30 10 1 4 10
M  V30 11 1 4 11
M  V30 12 1 4 12
M  V30 13 1 5 13
M  V30 14 1 5 14
M  V30 15 1 6 15
M  V30 16 1 6 16
M  V30 17 1 7 17
M  V30 18 1 7 18
M  V30 19 1 8 19
M  V30 20 1 8 20
M  V30 END BOND
M  V30 END CTAB
M  END
>  <Structure No>
2833

>  <LogS>
0.888875326

>  <MMFF94 Energy>
32.431

$$$$
Compound 2834
Actelion Java MolfileCreator 2.0

  0  0  0  0  0  0              0 V3000
M  V30 BEGIN CTAB
M  V30 COUNTS 35 34 0 0 0
M  V30 BEGIN ATOM
M  V30 1 O -1.0101 0.8547 0.7769 0
M  V30 2 C 0.1296 0.5605 -0.0154 0
M  V30 3 C -1.7032 1.9923 0.299 0
M  V30 4 C 1.3802 1.115 0.6809 0
M  V30 5 C 0.2292 -0.9632 -0.1812 0
M  V30 6 C -2.7665 1.5788 -0.7205 0
M  V30 7 O 2.5112 0.9233 -0.1454 0
M  V30 8 O -0.8607 -1.4324 -0.955 0
M  V30 9 O -3.5197 2.6923 -1.1165 0
M  V30 10 C 3.7006 1.228 0.5587 0
M  V30 11 C -1.7746 -2.1502 -0.1531 0
M  V30 12 C 4.3209 -0.0436 1.1335 0
M  V30 13 C -2.9889 -2.5266 -0.996 0
M  V30 14 O 4.5764 -0.9558 0.1019 0
M  V30 15 O -3.9326 -3.2076 -0.215 0
M  V30 16 H 0.0752 0.9957 -1.0432 0
M  V30 17 H -1.0255 2.7688 -0.1271 0
M  V30 18 H -2.2157 2.4656 1.1632 0
M  V30 19 H 1.2331 2.2037 0.8592 0
M  V30 20 H 1.4984 0.606 1.6657 0
M  V30 21 H 0.3255 -1.4511 0.8194 0
M  V30 22 H 1.1593 -1.2084 -0.7369 0
M  V30 23 H -3.4489 0.8369 -0.2541 0
M  V30 24 H -2.2935 1.098 -1.6061 0
M  V30 25 H -2.953 3.2076 -1.7481 0
M  V30 26 H 3.5593 1.9826 1.369 0
M  V30 27 H 4.4205 1.6746 -0.1595 0
M  V30 28 H -2.1221 -1.5331 0.7065 0
M  V30 29 H -1.3 -3.0835 0.2263 0
M  V30 30 H 3.629 -0.497 1.8772 0
M  V30 31 H 5.2728 0.2181 1.6468 0
M  V30 32 H -2.6749 -3.1534 -1.8617 0
M  V30 33 H -3.4588 -1.6021 -1.3941 0
M  V30 34 H 4.9699 -1.7571 0.535 0
M  V30 35 H -3.5923 -4.1333 -0.101 0
M  V30 END ATOM
M  V30 BEGIN BOND
M  V30 1 1 1 2
M  V30 2 1 1 3
M  V30 3 1 2 4
M  V30 4 1 2 5
M  V30 5 1 3 6
M  V30 6 1 4 7
M  V30 7 1 5 8
M  V30 8 1 6 9
M  V30 9 1 7 10
M  V30 10 1 8 11
M  V30 11 1 10 12
M  V30 12 1 11 13
M  V30 13 1 12 14
M  V30 14 1 13 15
M  V30 15 1 2 16
M  V30 16 1 3 17
M  V30 17 1 3 18
M  V30 18 1 4 19
M  V30 19 1 4 20
M  V30 20 1 5 21
M  V30 21 1 5 22
M  V30 22 1 6 23
M  V30 23 1 6 24
M  V30 24 1 9 25
M  V30 25 1 10 26
M  V30 26 1 10 27
M  V30 27 1 11 28
M  V30 28 1 11 29
M  V30 29 1 12 30
M  V30 30 1 12 31
M  V30 31 1 13 32
M  V30 32 1 13 33
M  V30 33 1 14 34
M  V30 34 1 15 35
M  V30 END BOND
M  V30 END CTAB
M  END
>  <Structure No>
2834

>  <LogS>
0.649261738

>  <MMFF94 Energy>
109.72

$$$$
Compound 2835
Actelion Java MolfileCreator 2.0

  0  0  0  0  0  0              0 V3000
M  V30 BEGIN CTAB
M  V30 COUNTS 17 16 0 0 0
M  V30 BEGIN ATOM
M  V30 1 N 0.0 0.0 0.0 0 CHG=1
M  V30 2 C 1.1626 0.348 -0.8462 0
M  V30 3 C -1.072 -0.5706 -0.8452 0
M  V30 4 C 0.4094 -0.9948 1.0158 0
M  V30 5 C -0.5003 1.2175 0.6758 0
M  V30 6 H 1.5601 -0.5514 -1.3676 0
M  V30 7 H 0.8824 1.0966 -1.621 0
M  V30 8 H 1.986 0.7806 -0.2347 0
M  V30 9 H -1.3999 0.1582 -1.6199 0
M  V30 10 H -0.7223 -1.4898 -1.3665 0
M  V30 11 H -1.9611 -0.842 -0.2328 0
M  V30 12 H -0.4479 -1.2752 1.668 0
M  V30 13 H 1.2166 -0.5909 1.6671 0
M  V30 14 H 0.7907 -1.923 0.5342 0
M  V30 15 H -1.3771 0.9844 1.3206 0
M  V30 16 H 0.2874 1.6687 1.3199 0
M  V30 17 H -0.816 1.9847 -0.0664 0
M  V30 END ATOM
M  V30 BEGIN BOND
M  V30 1 1 1 2
M  V30 2 1 1 3
M  V30 3 1 1 4
M  V30 4 1 1 5
M  V30 5 1 2 6
M  V30 6 1 2 7
M  V30 7 1 2 8
M  V30 8 1 3 9
M  V30 9 1 3 10
M  V30 10 1 3 11
M  V30 11 1 4 12
M  V30 12 1 4 13
M  V30 13 1 4 14
M  V30 14 1 5 15
M  V30 15 1 5 16
M  V30 16 1 5 17
M  V30 END BOND
M  V30 END CTAB
M  END
>  <Structure No>
2835

>  <LogS>
0.960189446

>  <MMFF94 Energy>
14.934

$$$$
Compound 2836
Actelion Java MolfileCreator 2.0

  0  0  0  0  0  0              0 V3000
M  V30 BEGIN CTAB
M  V30 COUNTS 20 19 0 0 0
M  V30 BEGIN ATOM
M  V30 1 O 0.0 0.5433 1.6308 0
M  V30 2 C -0.2646 0.2062 0.4427 0
M  V30 3 N -1.6326 -0.0777 0.0745 0
M  V30 4 C 0.8663 0.0351 -0.5444 0
M  V30 5 C -2.6961 0.1387 1.0612 0
M  V30 6 C -1.9617 -0.5995 -1.2566 0
M  V30 7 C 2.0997 0.7958 -0.1341 0
M  V30 8 O 2.0906 2.0178 -0.1482 0
M  V30 9 C 3.3411 0.0649 0.279 0
M  V30 10 H 0.5606 0.3978 -1.5477 0
M  V30 11 H 1.0979 -1.0482 -0.6272 0
M  V30 12 H -3.6992 -0.0929 0.6457 0
M  V30 13 H -2.6954 1.2012 1.3849 0
M  V30 14 H -2.526 -0.5125 1.9445 0
M  V30 15 H -1.3677 -1.5151 -1.461 0
M  V30 16 H -3.0359 -0.8675 -1.339 0
M  V30 17 H -1.7409 0.1683 -2.0271 0
M  V30 18 H 4.1386 0.7804 0.5732 0
M  V30 19 H 3.1148 -0.594 1.1433 0
M  V30 20 H 3.7081 -0.5535 -0.5664 0
M  V30 END ATOM
M  V30 BEGIN BOND
M  V30 1 2 1 2
M  V30 2 1 2 3
M  V30 3 1 2 4
M  V30 4 1 3 5
M  V30 5 1 3 6
M  V30 6 1 4 7
M  V30 7 2 7 8
M  V30 8 1 7 9
M  V30 9 1 4 10
M  V30 10 1 4 11
M  V30 11 1 5 12
M  V30 12 1 5 13
M  V30 13 1 5 14
M  V30 14 1 6 15
M  V30 15 1 6 16
M  V30 16 1 6 17
M  V30 17 1 9 18
M  V30 18 1 9 19
M  V30 19 1 9 20
M  V30 END BOND
M  V30 END CTAB
M  END
>  <Structure No>
2836

>  <LogS>
0.888875326

>  <MMFF94 Energy>
-17.847

$$$$
Compound 2837
Actelion Java MolfileCreator 2.0

  0  0  0  0  0  0              0 V3000
M  V30 BEGIN CTAB
M  V30 COUNTS 24 23 0 0 0
M  V30 BEGIN ATOM
M  V30 1 O 3.4509 1.2259 -1.0726 0
M  V30 2 C 3.3036 -0.0144 -1.2352 0
M  V30 3 N 2.625 -0.8093 -0.2572 0
M  V30 4 C 2.0566 -0.2453 0.9667 0
M  V30 5 C 0.7678 0.536 0.6767 0
M  V30 6 C -0.3639 -0.3854 0.1787 0
M  V30 7 N -1.5669 0.3721 -0.244 0 CHG=1
M  V30 8 C -2.4801 -0.514 -0.9879 0
M  V30 9 C -2.2788 0.9558 0.9092 0
M  V30 10 H 3.7024 -0.4847 -2.1241 0
M  V30 11 H 2.5877 -1.8436 -0.3992 0
M  V30 12 H 2.8013 0.425 1.4478 0
M  V30 13 H 1.8358 -1.0657 1.6842 0
M  V30 14 H 0.971 1.3284 -0.0749 0
M  V30 15 H 0.4589 1.0312 1.6205 0
M  V30 16 H 0.0292 -0.9669 -0.6856 0
M  V30 17 H -0.6236 -1.119 0.9759 0
M  V30 18 H -1.2816 1.1476 -0.8885 0
M  V30 19 H -1.9795 -0.9175 -1.8955 0
M  V30 20 H -3.376 0.0477 -1.3337 0
M  V30 21 H -2.8141 -1.3661 -0.3543 0
M  V30 22 H -3.2242 1.4419 0.5814 0
M  V30 23 H -2.5256 0.1782 1.6659 0
M  V30 24 H -1.6699 1.7504 1.3884 0
M  V30 END ATOM
M  V30 BEGIN BOND
M  V30 1 2 1 2
M  V30 2 1 2 3
M  V30 3 1 3 4
M  V30 4 1 4 5
M  V30 5 1 5 6
M  V30 6 1 6 7
M  V30 7 1 7 8
M  V30 8 1 7 9
M  V30 9 1 2 10
M  V30 10 1 3 11
M  V30 11 1 4 12
M  V30 12 1 4 13
M  V30 13 1 5 14
M  V30 14 1 5 15
M  V30 15 1 6 16
M  V30 16 1 6 17
M  V30 17 1 7 18
M  V30 18 1 8 19
M  V30 19 1 8 20
M  V30 20 1 8 21
M  V30 21 1 9 22
M  V30 22 1 9 23
M  V30 23 1 9 24
M  V30 END BOND
M  V30 END CTAB
M  END
>  <Structure No>
2837

>  <LogS>
0.885419037

>  <MMFF94 Energy>
-33.349

$$$$
Compound 2838
Actelion Java MolfileCreator 2.0

  0  0  0  0  0  0              0 V3000
M  V30 BEGIN CTAB
M  V30 COUNTS 9 8 0 0 0
M  V30 BEGIN ATOM
M  V30 1 O 1.3513 1.4265 0.3001 0
M  V30 2 C 1.3866 0.1872 0.0771 0
M  V30 3 N 0.1801 -0.5591 -0.101 0
M  V30 4 C -1.1328 0.0696 -0.0338 0
M  V30 5 H 2.3423 -0.3165 0.02 0
M  V30 6 H 0.246 -1.5854 -0.2844 0
M  V30 7 H -1.2801 0.5287 0.9664 0
M  V30 8 H -1.2165 0.8517 -0.8176 0
M  V30 9 H -1.9243 -0.6912 -0.1998 0
M  V30 END ATOM
M  V30 BEGIN BOND
M  V30 1 2 1 2
M  V30 2 1 2 3
M  V30 3 1 3 4
M  V30 4 1 2 5
M  V30 5 1 3 6
M  V30 6 1 4 7
M  V30 7 1 4 8
M  V30 8 1 4 9
M  V30 END BOND
M  V30 END CTAB
M  END
>  <Structure No>
2838

>  <LogS>
1.228647734

>  <MMFF94 Energy>
-28.152

$$$$
Compound 2839
Actelion Java MolfileCreator 2.0

  0  0  0  0  0  0              0 V3000
M  V30 BEGIN CTAB
M  V30 COUNTS 8 7 0 0 0
M  V30 BEGIN ATOM
M  V30 1 S 1.7131 0.428 -0.428 0
M  V30 2 C 0.2255 -0.5632 -0.0998 0
M  V30 3 C -0.9703 0.3265 -0.017 0
M  V30 4 O -1.334 0.7973 1.0926 0
M  V30 5 O -1.6572 0.6772 -1.1722 0 CHG=-1
M  V30 6 H 1.6593 1.0667 0.826 0
M  V30 7 H 0.0886 -1.2936 -0.9242 0
M  V30 8 H 0.3554 -1.1232 0.8505 0
M  V30 END ATOM
M  V30 BEGIN BOND
M  V30 1 1 1 2
M  V30 2 1 2 3
M  V30 3 2 3 4
M  V30 4 1 3 5
M  V30 5 1 1 6
M  V30 6 1 2 7
M  V30 7 1 2 8
M  V30 END BOND
M  V30 END CTAB
M  END
>  <Structure No>
2839

>  <LogS>
0.96197626

>  <MMFF94 Energy>
39.221

$$$$
Compound 2840
Actelion Java MolfileCreator 2.0

  0  0  0  0  0  0              0 V3000
M  V30 BEGIN CTAB
M  V30 COUNTS 36 35 0 0 0
M  V30 BEGIN ATOM
M  V30 1 O 5.7947 -1.1885 1.03 0
M  V30 2 C 5.7358 -0.3131 0.1268 0
M  V30 3 O 6.1781 -0.6157 -1.1546 0 CHG=-1
M  V30 4 C 5.1562 1.0363 0.4222 0
M  V30 5 C 3.622 1.0055 0.4388 0
M  V30 6 C 3.0316 0.7361 -0.9562 0
M  V30 7 C 1.5031 0.8914 -0.9916 0
M  V30 8 C 0.7769 -0.2344 -0.2402 0
M  V30 9 C -0.7426 -0.1179 -0.4115 0
M  V30 10 C -1.4699 -1.2305 0.3582 0
M  V30 11 C -2.9859 -1.2304 0.1064 0
M  V30 12 C -3.6946 -0.0312 0.7603 0
M  V30 13 C -5.2222 -0.1405 0.6665 0
M  V30 14 C -5.7015 -0.005 -0.7462 0
M  V30 15 O -6.0252 -1.0266 -1.407 0
M  V30 16 O -5.7578 1.2477 -1.3438 0 CHG=-1
M  V30 17 H 5.515 1.7725 -0.3293 0
M  V30 18 H 5.5206 1.3723 1.4171 0
M  V30 19 H 3.2817 0.2302 1.1583 0
M  V30 20 H 3.2601 1.9917 0.8033 0
M  V30 21 H 3.4659 1.4634 -1.6766 0
M  V30 22 H 3.3098 -0.2841 -1.2989 0
M  V30 23 H 1.1824 0.877 -2.0564 0
M  V30 24 H 1.2144 1.8781 -0.567 0
M  V30 25 H 1.0203 -0.1795 0.8422 0
M  V30 26 H 1.116 -1.2187 -0.6317 0
M  V30 27 H -0.9968 -0.189 -1.492 0
M  V30 28 H -1.0704 0.874 -0.0339 0
M  V30 29 H -1.2687 -1.1318 1.4477 0
M  V30 30 H -1.0688 -2.2147 0.0303 0
M  V30 31 H -3.1811 -1.2402 -0.9878 0
M  V30 32 H -3.4032 -2.1695 0.5313 0
M  V30 33 H -3.368 0.9174 0.2832 0
M  V30 34 H -3.4166 0.0141 1.8359 0
M  V30 35 H -5.5641 -1.1074 1.0967 0
M  V30 36 H -5.678 0.6723 1.2718 0
M  V30 END ATOM
M  V30 BEGIN BOND
M  V30 1 2 1 2
M  V30 2 1 2 3
M  V30 3 1 2 4
M  V30 4 1 4 5
M  V30 5 1 5 6
M  V30 6 1 6 7
M  V30 7 1 7 8
M  V30 8 1 8 9
M  V30 9 1 9 10
M  V30 10 1 10 11
M  V30 11 1 11 12
M  V30 12 1 12 13
M  V30 13 1 13 14
M  V30 14 2 14 15
M  V30 15 1 14 16
M  V30 16 1 4 17
M  V30 17 1 4 18
M  V30 18 1 5 19
M  V30 19 1 5 20
M  V30 20 1 6 21
M  V30 21 1 6 22
M  V30 22 1 7 23
M  V30 23 1 7 24
M  V30 24 1 8 25
M  V30 25 1 8 26
M  V30 26 1 9 27
M  V30 27 1 9 28
M  V30 28 1 10 29
M  V30 29 1 10 30
M  V30 30 1 11 31
M  V30 31 1 11 32
M  V30 32 1 12 33
M  V30 33 1 12 34
M  V30 34 1 13 35
M  V30 35 1 13 36
M  V30 END BOND
M  V30 END CTAB
M  END
>  <Structure No>
2840

>  <LogS>
0.276803833

>  <MMFF94 Energy>
28.005

$$$$
Compound 2841
Actelion Java MolfileCreator 2.0

  0  0  0  0  0  0              0 V3000
M  V30 BEGIN CTAB
M  V30 COUNTS 32 31 0 0 0
M  V30 BEGIN ATOM
M  V30 1 N 0.1513 -1.4386 0.227 0 CHG=1
M  V30 2 C -0.8848 -1.0148 -0.753 0
M  V30 3 C 1.0498 -0.3522 0.6928 0
M  V30 4 C -0.4529 -2.1257 1.3852 0
M  V30 5 C -1.7793 0.1523 -0.2819 0
M  V30 6 C 1.8486 0.2963 -0.4561 0
M  V30 7 C -2.8865 0.438 -1.306 0
M  V30 8 C 2.8608 1.3417 0.0443 0
M  V30 9 N -3.7259 1.5545 -0.8723 0 CHG=1
M  V30 10 N 4.0206 0.7259 0.6926 0 CHG=1
M  V30 11 H 0.7482 -2.152 -0.2563 0
M  V30 12 H -0.4011 -0.7361 -1.7144 0
M  V30 13 H -1.5339 -1.8851 -1.0012 0
M  V30 14 H 0.4813 0.4264 1.2463 0
M  V30 15 H 1.7771 -0.7815 1.4158 0
M  V30 16 H 0.3353 -2.6266 1.9895 0
M  V30 17 H -1.1615 -2.9164 1.0543 0
M  V30 18 H -0.9894 -1.4131 2.0475 0
M  V30 19 H -1.1716 1.0734 -0.1633 0
M  V30 20 H -2.2525 -0.0928 0.691 0
M  V30 21 H 1.1486 0.8223 -1.1381 0
M  V30 22 H 2.374 -0.486 -1.0453 0
M  V30 23 H -2.4289 0.6837 -2.2903 0
M  V30 24 H -3.5196 -0.4682 -1.4334 0
M  V30 25 H 3.2113 1.9344 -0.8298 0
M  V30 26 H 2.3651 2.0476 0.7474 0
M  V30 27 H -3.149 2.4215 -0.7752 0
M  V30 28 H -4.4693 1.7217 -1.5882 0
M  V30 29 H -4.1814 1.3281 0.0416 0
M  V30 30 H 3.7492 0.3084 1.6108 0
M  V30 31 H 4.7405 1.4634 0.8696 0
M  V30 32 H 4.4388 -0.0071 0.0753 0
M  V30 END ATOM
M  V30 BEGIN BOND
M  V30 1 1 1 2
M  V30 2 1 1 3
M  V30 3 1 1 4
M  V30 4 1 2 5
M  V30 5 1 3 6
M  V30 6 1 5 7
M  V30 7 1 6 8
M  V30 8 1 7 9
M  V30 9 1 8 10
M  V30 10 1 1 11
M  V30 11 1 2 12
M  V30 12 1 2 13
M  V30 13 1 3 14
M  V30 14 1 3 15
M  V30 15 1 4 16
M  V30 16 1 4 17
M  V30 17 1 4 18
M  V30 18 1 5 19
M  V30 19 1 5 20
M  V30 20 1 6 21
M  V30 21 1 6 22
M  V30 22 1 7 23
M  V30 23 1 7 24
M  V30 24 1 8 25
M  V30 25 1 8 26
M  V30 26 1 9 27
M  V30 27 1 9 28
M  V30 28 1 9 29
M  V30 29 1 10 30
M  V30 30 1 10 31
M  V30 31 1 10 32
M  V30 END BOND
M  V30 END CTAB
M  END
>  <Structure No>
2841

>  <LogS>
0.837883859

>  <MMFF94 Energy>
163.99

$$$$
Compound 2842
Actelion Java MolfileCreator 2.0

  0  0  0  0  0  0              0 V3000
M  V30 BEGIN CTAB
M  V30 COUNTS 12 11 0 0 0
M  V30 BEGIN ATOM
M  V30 1 O 1.5495 -0.959 0.295 0
M  V30 2 C 1.0061 0.3135 0.5225 0
M  V30 3 C -0.2357 0.5412 -0.3478 0
M  V30 4 N -1.303 -0.4033 -0.0159 0 CHG=1
M  V30 5 H 2.0122 -0.9172 -0.5823 0
M  V30 6 H 1.7643 1.0996 0.3047 0
M  V30 7 H 0.7309 0.4011 1.595 0
M  V30 8 H 0.0373 0.4364 -1.4211 0
M  V30 9 H -0.6006 1.5799 -0.1879 0
M  V30 10 H -1.5682 -0.3077 0.9912 0
M  V30 11 H -0.9922 -1.3827 -0.2097 0
M  V30 12 H -2.1398 -0.1932 -0.6066 0
M  V30 END ATOM
M  V30 BEGIN BOND
M  V30 1 1 1 2
M  V30 2 1 2 3
M  V30 3 1 3 4
M  V30 4 1 1 5
M  V30 5 1 2 6
M  V30 6 1 2 7
M  V30 7 1 3 8
M  V30 8 1 3 9
M  V30 9 1 4 10
M  V30 10 1 4 11
M  V30 11 1 4 12
M  V30 END BOND
M  V30 END CTAB
M  END
>  <Structure No>
2842

>  <LogS>
0.734729236

>  <MMFF94 Energy>
13.27

$$$$
Compound 2843
Actelion Java MolfileCreator 2.0

  0  0  0  0  0  0              0 V3000
M  V30 BEGIN CTAB
M  V30 COUNTS 5 4 0 0 0
M  V30 BEGIN ATOM
M  V30 1 S 0.0 0.0 0.0 0
M  V30 2 O -0.1861 -0.9152 -1.1765 0
M  V30 3 O 0.0461 -0.8115 1.2633 0
M  V30 4 O -1.2825 1.0817 0.0762 0 CHG=-1
M  V30 5 O 1.4387 0.8488 -0.1729 0 CHG=-1
M  V30 END ATOM
M  V30 BEGIN BOND
M  V30 1 2 1 2
M  V30 2 2 1 3
M  V30 3 1 1 4
M  V30 4 1 1 5
M  V30 END BOND
M  V30 END CTAB
M  END
>  <Structure No>
2843

>  <LogS>
0.441443819

>  <MMFF94 Energy>
27.585

$$$$
Compound 2844
Actelion Java MolfileCreator 2.0

  0  0  0  0  0  0              0 V3000
M  V30 BEGIN CTAB
M  V30 COUNTS 18 17 0 0 0
M  V30 BEGIN ATOM
M  V30 1 O -3.2089 -0.0801 -0.561 0
M  V30 2 C -2.6066 -0.4547 0.4793 0
M  V30 3 O -2.888 -1.7001 1.0268 0 CHG=-1
M  V30 4 C -1.567 0.4224 1.1072 0
M  V30 5 C -0.1464 -0.0592 0.7852 0
M  V30 6 C 0.2146 0.1452 -0.6961 0
M  V30 7 C 1.6351 -0.3373 -1.0185 0
M  V30 8 C 2.6766 0.5319 -0.3829 0
M  V30 9 O 2.9583 1.6523 -0.884 0
M  V30 10 O 3.3131 0.1189 0.7807 0 CHG=-1
M  V30 11 H -1.7114 0.4036 2.2087 0
M  V30 12 H -1.6984 1.4747 0.7717 0
M  V30 13 H -0.0448 -1.1333 1.0566 0
M  V30 14 H 0.5619 0.5183 1.4175 0
M  V30 15 H -0.4941 -0.4315 -1.3284 0
M  V30 16 H 0.1137 1.2195 -0.967 0
M  V30 17 H 1.7655 -1.3887 -0.6819 0
M  V30 18 H 1.7801 -0.3197 -2.1204 0
M  V30 END ATOM
M  V30 BEGIN BOND
M  V30 1 2 1 2
M  V30 2 1 2 3
M  V30 3 1 2 4
M  V30 4 1 4 5
M  V30 5 1 5 6
M  V30 6 1 6 7
M  V30 7 1 7 8
M  V30 8 2 8 9
M  V30 9 1 8 10
M  V30 10 1 4 11
M  V30 11 1 4 12
M  V30 12 1 5 13
M  V30 13 1 5 14
M  V30 14 1 6 15
M  V30 15 1 6 16
M  V30 16 1 7 17
M  V30 17 1 7 18
M  V30 END BOND
M  V30 END CTAB
M  END
>  <Structure No>
2844

>  <LogS>
0.732265228

>  <MMFF94 Energy>
48.013

$$$$
Compound 2845
Actelion Java MolfileCreator 2.0

  0  0  0  0  0  0              0 V3000
M  V30 BEGIN CTAB
M  V30 COUNTS 69 73 0 0 0
M  V30 BEGIN ATOM
M  V30 1 S -9.791 -2.3997 -1.1579 0
M  V30 2 O -10.3322 -3.2729 -0.0616 0
M  V30 3 O -9.2299 -3.2581 -2.2561 0
M  V30 4 O -11.0434 -1.466 -1.7774 0 CHG=-1
M  V30 5 C -8.5198 -1.3687 -0.5122 0
M  V30 6 C -7.4158 -1.9468 0.1289 0
M  V30 7 C -8.6041 0.0259 -0.6255 0
M  V30 8 C -6.3885 -1.1424 0.6393 0
M  V30 9 C -7.5989 0.8349 -0.0888 0
M  V30 10 N -5.2935 -1.7651 1.3312 0
M  V30 11 C -6.5005 0.2564 0.5525 0
M  V30 12 N -4.0628 -1.4274 1.2411 0
M  V30 13 C -3.524 -0.4704 0.3117 0
M  V30 14 C -2.628 0.5269 0.7532 0
M  V30 15 C -3.8424 -0.5612 -1.0503 0
M  V30 16 C -2.0836 1.4517 -0.181 0
M  V30 17 C -2.2862 0.6402 2.1154 0
M  V30 18 C -3.2946 0.3305 -1.9687 0
M  V30 19 C -2.3926 1.3153 -1.5571 0
M  V30 20 C -1.2624 2.4965 0.2894 0
M  V30 21 C -1.4406 1.661 2.5514 0
M  V30 22 N -1.8068 2.1599 -2.5628 0
M  V30 23 C -0.9383 2.5906 1.6434 0
M  V30 24 N -0.553 2.2607 -2.7981 0
M  V30 25 C 0.4762 1.4725 -2.1769 0
M  V30 26 C 1.6497 2.1024 -1.7534 0
M  V30 27 C 0.3548 0.0827 -2.0368 0
M  V30 28 C 2.6584 1.3692 -1.1235 0
M  V30 29 C 1.3611 -0.6542 -1.4071 0
M  V30 30 C 2.5238 -0.0198 -0.9247 0
M  V30 31 N 3.5594 -0.7763 -0.2441 0
M  V30 32 C 4.3702 -0.1548 0.8184 0
M  V30 33 C 3.823 -2.1823 -0.591 0
M  V30 34 C 5.7766 0.1664 0.3619 0
M  V30 35 C 3.1577 -3.1293 0.4062 0
M  V30 36 C 6.7908 0.2944 1.3263 0
M  V30 37 C 6.085 0.4177 -0.989 0
M  V30 38 C 8.0981 0.6329 0.9484 0
M  V30 39 C 7.3863 0.7603 -1.3644 0
M  V30 40 S 9.3596 0.7999 2.1652 0
M  V30 41 C 8.3905 0.8683 -0.4003 0
M  V30 42 O 10.6795 0.3662 1.5923 0
M  V30 43 O 9.0427 -0.0628 3.3542 0
M  V30 44 O 9.4587 2.4045 2.65 0 CHG=-1
M  V30 45 H -7.3511 -3.023 0.2266 0
M  V30 46 H -9.4501 0.4901 -1.116 0
M  V30 47 H -7.6759 1.9118 -0.162 0
M  V30 48 H -5.7506 0.8991 0.9957 0
M  V30 49 H -4.5044 -1.3407 -1.4059 0
M  V30 50 H -2.6766 -0.0515 2.8509 0
M  V30 51 H -3.5434 0.2303 -3.0177 0
M  V30 52 H -0.8727 3.2508 -0.3807 0
M  V30 53 H -1.185 1.7397 3.6001 0
M  V30 54 H -0.2981 3.3914 1.9907 0
M  V30 55 H 1.7703 3.1702 -1.8874 0
M  V30 56 H -0.5154 -0.4344 -2.4168 0
M  V30 57 H 3.548 1.8936 -0.8029 0
M  V30 58 H 1.2173 -1.7187 -1.2937 0
M  V30 59 H 3.8882 0.7713 1.1968 0
M  V30 60 H 4.4146 -0.8437 1.6887 0
M  V30 61 H 3.4644 -2.4053 -1.619 0
M  V30 62 H 4.9181 -2.3731 -0.5921 0
M  V30 63 H 3.6507 -3.0566 1.3978 0
M  V30 64 H 2.0819 -2.888 0.5245 0
M  V30 65 H 3.2507 -4.1739 0.0447 0
M  V30 66 H 6.5601 0.1355 2.3727 0
M  V30 67 H 5.3272 0.3487 -1.7575 0
M  V30 68 H 7.6157 0.9496 -2.4054 0
M  V30 69 H 9.3926 1.1435 -0.7041 0
M  V30 END ATOM
M  V30 BEGIN BOND
M  V30 1 2 1 2
M  V30 2 2 1 3
M  V30 3 1 1 4
M  V30 4 1 1 5
M  V30 5 2 5 6
M  V30 6 1 5 7
M  V30 7 1 6 8
M  V30 8 2 7 9
M  V30 9 1 8 10
M  V30 10 2 8 11
M  V30 11 2 10 12
M  V30 12 1 12 13
M  V30 13 1 13 14
M  V30 14 2 13 15
M  V30 15 1 14 16
M  V30 16 2 14 17
M  V30 17 1 15 18
M  V30 18 1 16 19
M  V30 19 2 16 20
M  V30 20 1 17 21
M  V30 21 1 19 22
M  V30 22 1 20 23
M  V30 23 2 22 24
M  V30 24 1 24 25
M  V30 25 2 25 26
M  V30 26 1 25 27
M  V30 27 1 26 28
M  V30 28 2 27 29
M  V30 29 2 28 30
M  V30 30 1 30 31
M  V30 31 1 31 32
M  V30 32 1 31 33
M  V30 33 1 32 34
M  V30 34 1 33 35
M  V30 35 2 34 36
M  V30 36 1 34 37
M  V30 37 1 36 38
M  V30 38 2 37 39
M  V30 39 1 38 40
M  V30 40 2 38 41
M  V30 41 2 40 42
M  V30 42 2 40 43
M  V30 43 1 40 44
M  V30 44 1 9 11
M  V30 45 2 18 19
M  V30 46 2 21 23
M  V30 47 1 29 30
M  V30 48 1 39 41
M  V30 49 1 6 45
M  V30 50 1 7 46
M  V30 51 1 9 47
M  V30 52 1 11 48
M  V30 53 1 15 49
M  V30 54 1 17 50
M  V30 55 1 18 51
M  V30 56 1 20 52
M  V30 57 1 21 53
M  V30 58 1 23 54
M  V30 59 1 26 55
M  V30 60 1 27 56
M  V30 61 1 28 57
M  V30 62 1 29 58
M  V30 63 1 32 59
M  V30 64 1 32 60
M  V30 65 1 33 61
M  V30 66 1 33 62
M  V30 67 1 35 63
M  V30 68 1 35 64
M  V30 69 1 35 65
M  V30 70 1 36 66
M  V30 71 1 37 67
M  V30 72 1 39 68
M  V30 73 1 41 69
M  V30 END BOND
M  V30 END CTAB
M  END
>  <Structure No>
2845

>  <LogS>
0.171543767

>  <MMFF94 Energy>
175.19

$$$$
Compound 2846
Actelion Java MolfileCreator 2.0

  0  0  0  0  0  0              0 V3000
M  V30 BEGIN CTAB
M  V30 COUNTS 41 43 0 0 0
M  V30 BEGIN ATOM
M  V30 1 S -4.4799 -0.7597 -2.0268 0
M  V30 2 O -4.5043 -2.2351 -2.3086 0
M  V30 3 O -3.697 -0.0536 -3.0967 0
M  V30 4 O -6.0557 -0.176 -2.0515 0 CHG=-1
M  V30 5 C -3.7441 -0.4726 -0.4435 0
M  V30 6 C -2.3589 -0.666 -0.217 0
M  V30 7 C -4.5659 -0.0471 0.6122 0
M  V30 8 N -1.4894 -1.1131 -1.2783 0
M  V30 9 C -1.8418 -0.4461 1.0739 0
M  V30 10 C -4.034 0.1852 1.8861 0
M  V30 11 N -0.0866 -1.0324 -1.1959 0
M  V30 12 C -2.6702 -0.0183 2.1117 0
M  V30 13 N -4.882 0.6204 2.9524 0
M  V30 14 C 0.6021 0.0561 -0.9786 0
M  V30 15 C 2.049 -0.0477 -0.6455 0
M  V30 16 C -0.0118 1.411 -0.9032 0
M  V30 17 C 2.8191 -1.1887 -0.9662 0
M  V30 18 C 2.6597 1.0248 0.047 0
M  V30 19 N -1.0108 1.7652 -1.6489 0
M  V30 20 C 0.6441 2.4293 -0.0695 0
M  V30 21 O 2.256 -2.2534 -1.6702 0
M  V30 22 C 4.1663 -1.2527 -0.5849 0
M  V30 23 C 4.0074 0.9407 0.4215 0
M  V30 24 C 1.887 2.2446 0.3829 0
M  V30 25 C 4.7624 -0.1924 0.1062 0
M  V30 26 S 6.4531 -0.2748 0.5918 0
M  V30 27 O 7.1443 1.0071 0.2218 0
M  V30 28 O 7.1413 -1.4153 -0.1044 0
M  V30 29 O 6.545 -0.5054 2.2528 0 CHG=-1
M  V30 30 H -5.6255 0.1023 0.4494 0
M  V30 31 H -1.8816 -1.7436 -2.0107 0
M  V30 32 H -0.7957 -0.6179 1.2887 0
M  V30 33 H -2.2486 0.1478 3.095 0
M  V30 34 H -5.9031 0.7752 2.795 0
M  V30 35 H -4.4952 0.7926 3.9072 0
M  V30 36 H -1.4607 1.1289 -2.3403 0
M  V30 37 H 0.1321 3.3599 0.1425 0
M  V30 38 H 2.794 -3.0778 -1.9103 0
M  V30 39 H 4.7467 -2.1324 -0.8307 0
M  V30 40 H 4.4723 1.76 0.9571 0
M  V30 41 H 2.3499 3.0272 0.9719 0
M  V30 END ATOM
M  V30 BEGIN BOND
M  V30 1 2 1 2
M  V30 2 2 1 3
M  V30 3 1 1 4
M  V30 4 1 1 5
M  V30 5 2 5 6
M  V30 6 1 5 7
M  V30 7 1 6 8
M  V30 8 1 6 9
M  V30 9 2 7 10
M  V30 10 1 8 11
M  V30 11 2 9 12
M  V30 12 1 10 13
M  V30 13 2 11 14
M  V30 14 1 14 15
M  V30 15 1 14 16
M  V30 16 2 15 17
M  V30 17 1 15 18
M  V30 18 2 16 19
M  V30 19 1 16 20
M  V30 20 1 17 21
M  V30 21 1 17 22
M  V30 22 2 18 23
M  V30 23 1 18 24
M  V30 24 2 22 25
M  V30 25 1 25 26
M  V30 26 2 26 27
M  V30 27 2 26 28
M  V30 28 1 26 29
M  V30 29 1 10 12
M  V30 30 2 20 24
M  V30 31 1 23 25
M  V30 32 1 7 30
M  V30 33 1 8 31
M  V30 34 1 9 32
M  V30 35 1 12 33
M  V30 36 1 13 34
M  V30 37 1 13 35
M  V30 38 1 19 36
M  V30 39 1 20 37
M  V30 40 1 21 38
M  V30 41 1 22 39
M  V30 42 1 23 40
M  V30 43 1 24 41
M  V30 END BOND
M  V30 END CTAB
M  END
>  <Structure No>
2846

>  <LogS>
0.316586399

>  <MMFF94 Energy>
173.21

$$$$
Compound 2847
Actelion Java MolfileCreator 2.0

  0  0  0  0  0  0              0 V3000
M  V30 BEGIN CTAB
M  V30 COUNTS 34 33 0 0 0
M  V30 BEGIN ATOM
M  V30 1 O 5.9735 -0.9413 2.119 0
M  V30 2 C 5.7853 -0.1674 1.141 0
M  V30 3 O 4.6549 -0.3026 0.3304 0
M  V30 4 C 6.7529 0.9352 0.875 0
M  V30 5 C 3.6783 -1.3185 0.538 0
M  V30 6 C 2.5778 -1.1975 -0.5073 0
M  V30 7 O 1.9447 0.0591 -0.3773 0
M  V30 8 C 0.8333 0.1487 -1.2493 0
M  V30 9 C -0.4561 -0.1636 -0.4943 0
M  V30 10 O -1.5558 0.0131 -1.3634 0
M  V30 11 C -2.7752 -0.1346 -0.6599 0
M  V30 12 C -3.334 1.2384 -0.2812 0
M  V30 13 O -4.5734 1.1032 0.4119 0
M  V30 14 C -5.7819 0.7954 -0.2229 0
M  V30 15 O -5.8451 0.6929 -1.4782 0
M  V30 16 C -7.0213 0.6451 0.5921 0
M  V30 17 H 7.789 0.5901 1.0766 0
M  V30 18 H 6.5193 1.7986 1.532 0
M  V30 19 H 6.6815 1.2547 -0.1857 0
M  V30 20 H 4.1565 -2.3185 0.4516 0
M  V30 21 H 3.2373 -1.2153 1.5538 0
M  V30 22 H 1.8546 -2.0292 -0.3469 0
M  V30 23 H 3.0365 -1.298 -1.5171 0
M  V30 24 H 0.7754 1.1944 -1.6201 0
M  V30 25 H 0.9161 -0.5019 -2.153 0
M  V30 26 H -0.4174 -1.2172 -0.1378 0
M  V30 27 H -0.5241 0.5206 0.3822 0
M  V30 28 H -3.4961 -0.6387 -1.3367 0
M  V30 29 H -2.6959 -0.7777 0.2492 0
M  V30 30 H -2.6146 1.7533 0.3891 0
M  V30 31 H -3.4663 1.8674 -1.1887 0
M  V30 32 H -7.6725 -0.1409 0.1549 0
M  V30 33 H -7.5711 1.609 0.6103 0
M  V30 34 H -6.7586 0.3556 1.6312 0
M  V30 END ATOM
M  V30 BEGIN BOND
M  V30 1 2 1 2
M  V30 2 1 2 3
M  V30 3 1 2 4
M  V30 4 1 3 5
M  V30 5 1 5 6
M  V30 6 1 6 7
M  V30 7 1 7 8
M  V30 8 1 8 9
M  V30 9 1 9 10
M  V30 10 1 10 11
M  V30 11 1 11 12
M  V30 12 1 12 13
M  V30 13 1 13 14
M  V30 14 2 14 15
M  V30 15 1 14 16
M  V30 16 1 4 17
M  V30 17 1 4 18
M  V30 18 1 4 19
M  V30 19 1 5 20
M  V30 20 1 5 21
M  V30 21 1 6 22
M  V30 22 1 6 23
M  V30 23 1 8 24
M  V30 24 1 8 25
M  V30 25 1 9 26
M  V30 26 1 9 27
M  V30 27 1 11 28
M  V30 28 1 11 29
M  V30 29 1 12 30
M  V30 30 1 12 31
M  V30 31 1 16 32
M  V30 32 1 16 33
M  V30 33 1 16 34
M  V30 END BOND
M  V30 END CTAB
M  END
>  <Structure No>
2847

>  <LogS>
0.630324108

>  <MMFF94 Energy>
33.599

$$$$
Compound 2848
Actelion Java MolfileCreator 2.0

  0  0  0  0  0  0              0 V3000
M  V30 BEGIN CTAB
M  V30 COUNTS 25 25 0 0 0
M  V30 BEGIN ATOM
M  V30 1 O -4.0531 1.429 0.5555 0
M  V30 2 C -3.0774 0.7927 0.189 0
M  V30 3 C -2.6617 -0.4424 0.9349 0
M  V30 4 C -2.3124 1.2326 -1.0277 0
M  V30 5 C -1.1322 -0.5093 1.0415 0
M  V30 6 C -1.2473 0.2007 -1.4162 0
M  V30 7 N -0.4643 -0.21 -0.2378 0
M  V30 8 C 0.9576 -0.4149 -0.3361 0
M  V30 9 O 1.5422 -0.2975 -1.4486 0
M  V30 10 O 1.6902 -0.7559 0.8085 0
M  V30 11 C 3.1061 -0.9258 0.8157 0
M  V30 12 C 3.8101 0.4256 0.7753 0
M  V30 13 H -3.104 -0.4479 1.9551 0
M  V30 14 H -3.0363 -1.3341 0.3878 0
M  V30 15 H -3.0137 1.3711 -1.8786 0
M  V30 16 H -1.8227 2.2064 -0.8107 0
M  V30 17 H -0.789 0.2206 1.8067 0
M  V30 18 H -0.8486 -1.5289 1.3824 0
M  V30 19 H -0.5973 0.652 -2.1962 0
M  V30 20 H -1.7371 -0.6949 -1.8561 0
M  V30 21 H 3.3942 -1.4497 1.7513 0
M  V30 22 H 3.4259 -1.5544 -0.0436 0
M  V30 23 H 3.5766 0.9562 -0.1711 0
M  V30 24 H 4.9084 0.2762 0.8386 0
M  V30 25 H 3.4814 1.0494 1.6333 0
M  V30 END ATOM
M  V30 BEGIN BOND
M  V30 1 2 1 2
M  V30 2 1 2 3
M  V30 3 1 2 4
M  V30 4 1 3 5
M  V30 5 1 4 6
M  V30 6 1 5 7
M  V30 7 1 7 8
M  V30 8 2 8 9
M  V30 9 1 8 10
M  V30 10 1 10 11
M  V30 11 1 11 12
M  V30 12 1 6 7
M  V30 13 1 3 13
M  V30 14 1 3 14
M  V30 15 1 4 15
M  V30 16 1 4 16
M  V30 17 1 5 17
M  V30 18 1 5 18
M  V30 19 1 6 19
M  V30 20 1 6 20
M  V30 21 1 11 21
M  V30 22 1 11 22
M  V30 23 1 12 23
M  V30 24 1 12 24
M  V30 25 1 12 25
M  V30 END BOND
M  V30 END CTAB
M  END
>  <Structure No>
2848

>  <LogS>
0.766506387

>  <MMFF94 Energy>
-63.721

$$$$
Compound 2849
Actelion Java MolfileCreator 2.0

  0  0  0  0  0  0              0 V3000
M  V30 BEGIN CTAB
M  V30 COUNTS 20 19 0 0 0
M  V30 BEGIN ATOM
M  V30 1 N -0.8314 0.6802 0.0 0 CHG=1
M  V30 2 C 0.6094 0.7574 -0.3024 0
M  V30 3 C -1.4488 -0.5452 -0.5341 0
M  V30 4 C 1.4474 -0.1644 0.6007 0
M  V30 5 C -2.9593 -0.5377 -0.3043 0
M  V30 6 C 2.9403 0.0348 0.3549 0
M  V30 7 H -0.9834 0.7352 1.0348 0
M  V30 8 H -1.2955 1.5089 -0.4414 0
M  V30 9 H 0.9483 1.806 -0.1427 0
M  V30 10 H 0.7985 0.5154 -1.3726 0
M  V30 11 H -1.0297 -1.4426 -0.0312 0
M  V30 12 H -1.2598 -0.6293 -1.6276 0
M  V30 13 H 1.2287 0.0536 1.6686 0
M  V30 14 H 1.2003 -1.2274 0.3998 0
M  V30 15 H -3.402 -1.4745 -0.7034 0
M  V30 16 H -3.1821 -0.4722 0.7818 0
M  V30 17 H -3.4239 0.3256 -0.826 0
M  V30 18 H 3.5197 -0.6476 1.0116 0
M  V30 19 H 3.2336 1.0814 0.5847 0
M  V30 20 H 3.1903 -0.1925 -0.7031 0
M  V30 END ATOM
M  V30 BEGIN BOND
M  V30 1 1 1 2
M  V30 2 1 1 3
M  V30 3 1 2 4
M  V30 4 1 3 5
M  V30 5 1 4 6
M  V30 6 1 1 7
M  V30 7 1 1 8
M  V30 8 1 2 9
M  V30 9 1 2 10
M  V30 10 1 3 11
M  V30 11 1 3 12
M  V30 12 1 4 13
M  V30 13 1 4 14
M  V30 14 1 5 15
M  V30 15 1 5 16
M  V30 16 1 5 17
M  V30 17 1 6 18
M  V30 18 1 6 19
M  V30 19 1 6 20
M  V30 END BOND
M  V30 END CTAB
M  END
>  <Structure No>
2849

>  <LogS>
1.054659457

>  <MMFF94 Energy>
-0.30393

$$$$
Compound 2850
Actelion Java MolfileCreator 2.0

  0  0  0  0  0  0              0 V3000
M  V30 BEGIN CTAB
M  V30 COUNTS 18 18 0 0 0
M  V30 BEGIN ATOM
M  V30 1 O 1.587 2.3813 1.0313 0
M  V30 2 C 0.8685 1.5761 0.3825 0
M  V30 3 O -0.5122 1.7919 0.3368 0
M  V30 4 C 1.5139 0.408 -0.307 0
M  V30 5 C -1.4272 0.9631 -0.3752 0
M  V30 6 C 1.0324 -0.9239 0.2811 0
M  V30 7 C -1.489 -0.4431 0.2321 0
M  V30 8 C -0.3453 -1.3471 -0.248 0
M  V30 9 H 2.6165 0.4733 -0.1764 0
M  V30 10 H 1.3112 0.4545 -1.3984 0
M  V30 11 H -1.1602 0.9283 -1.4538 0
M  V30 12 H -2.4344 1.4244 -0.2985 0
M  V30 13 H 1.0224 -0.8798 1.3929 0
M  V30 14 H 1.7619 -1.7116 -0.0074 0
M  V30 15 H -2.448 -0.9134 -0.0766 0
M  V30 16 H -1.492 -0.3803 1.3422 0
M  V30 17 H -0.549 -2.3786 0.1132 0
M  V30 18 H -0.332 -1.3901 -1.3592 0
M  V30 END ATOM
M  V30 BEGIN BOND
M  V30 1 2 1 2
M  V30 2 1 2 3
M  V30 3 1 2 4
M  V30 4 1 3 5
M  V30 5 1 4 6
M  V30 6 1 5 7
M  V30 7 1 6 8
M  V30 8 1 7 8
M  V30 9 1 4 9
M  V30 10 1 4 10
M  V30 11 1 5 11
M  V30 12 1 5 12
M  V30 13 1 6 13
M  V30 14 1 6 14
M  V30 15 1 7 15
M  V30 16 1 7 16
M  V30 17 1 8 17
M  V30 18 1 8 18
M  V30 END BOND
M  V30 END CTAB
M  END
>  <Structure No>
2850

>  <LogS>
0.942546912

>  <MMFF94 Energy>
1.0967

$$$$
Compound 2851
Actelion Java MolfileCreator 2.0

  0  0  0  0  0  0              0 V3000
M  V30 BEGIN CTAB
M  V30 COUNTS 12 12 0 0 0
M  V30 BEGIN ATOM
M  V30 1 O 2.5469 0.6362 0.2385 0
M  V30 2 C 1.3113 0.4309 0.1152 0
M  V30 3 O 0.4053 1.4423 -0.103 0
M  V30 4 C 0.6841 -0.9015 0.1884 0
M  V30 5 C -0.9138 0.9393 -0.2004 0
M  V30 6 C -0.8013 -0.5884 -0.0315 0
M  V30 7 H 1.0802 -1.5598 -0.6141 0
M  V30 8 H 0.8558 -1.3538 1.1888 0
M  V30 9 H -1.3402 1.1976 -1.1933 0
M  V30 10 H -1.5414 1.3801 0.6034 0
M  V30 11 H -1.1727 -1.1048 -0.9436 0
M  V30 12 H -1.4012 -0.926 0.8416 0
M  V30 END ATOM
M  V30 BEGIN BOND
M  V30 1 2 1 2
M  V30 2 1 2 3
M  V30 3 1 2 4
M  V30 4 1 3 5
M  V30 5 1 4 6
M  V30 6 1 5 6
M  V30 7 1 4 7
M  V30 8 1 4 8
M  V30 9 1 5 9
M  V30 10 1 5 10
M  V30 11 1 6 11
M  V30 12 1 6 12
M  V30 END BOND
M  V30 END CTAB
M  END
>  <Structure No>
2851

>  <LogS>
1.065047292

>  <MMFF94 Energy>
-10.047

$$$$
Compound 2852
Actelion Java MolfileCreator 2.0

  0  0  0  0  0  0              0 V3000
M  V30 BEGIN CTAB
M  V30 COUNTS 18 18 0 0 0
M  V30 BEGIN ATOM
M  V30 1 N -0.155 -1.3184 0.6202 0 CHG=1
M  V30 2 C 1.0546 -0.974 -0.1601 0
M  V30 3 C -1.1685 -0.2425 0.7005 0
M  V30 4 C 1.3704 0.526 -0.1109 0
M  V30 5 C -1.1522 0.6647 -0.5358 0
M  V30 6 C 0.2139 1.3544 -0.6976 0
M  V30 7 H -0.5941 -2.1666 0.1913 0
M  V30 8 H 0.1315 -1.575 1.5941 0
M  V30 9 H 0.9181 -1.2772 -1.2231 0
M  V30 10 H 1.9277 -1.5418 0.2309 0
M  V30 11 H -2.1819 -0.689 0.8097 0
M  V30 12 H -0.988 0.3809 1.6056 0
M  V30 13 H 2.304 0.7326 -0.6774 0
M  V30 14 H 1.5423 0.8219 0.9472 0
M  V30 15 H -1.3684 0.0484 -1.436 0
M  V30 16 H -1.9514 1.4324 -0.4496 0
M  V30 17 H 0.3973 1.535 -1.7793 0
M  V30 18 H 0.192 2.3453 -0.1937 0
M  V30 END ATOM
M  V30 BEGIN BOND
M  V30 1 1 1 2
M  V30 2 1 1 3
M  V30 3 1 2 4
M  V30 4 1 3 5
M  V30 5 1 4 6
M  V30 6 1 5 6
M  V30 7 1 1 7
M  V30 8 1 1 8
M  V30 9 1 2 9
M  V30 10 1 2 10
M  V30 11 1 3 11
M  V30 12 1 3 12
M  V30 13 1 4 13
M  V30 14 1 4 14
M  V30 15 1 5 15
M  V30 16 1 5 16
M  V30 17 1 6 17
M  V30 18 1 6 18
M  V30 END BOND
M  V30 END CTAB
M  END
>  <Structure No>
2852

>  <LogS>
1.069815348

>  <MMFF94 Energy>
-0.22295

$$$$
Compound 2853
Actelion Java MolfileCreator 2.0

  0  0  0  0  0  0              0 V3000
M  V30 BEGIN CTAB
M  V30 COUNTS 3 2 0 0 0
M  V30 BEGIN ATOM
M  V30 1 S 0 0 0 0 CHG=-1 VAL=2
M  V30 2 C 0 0 0 0
M  V30 3 N 0 0 0 0
M  V30 END ATOM
M  V30 BEGIN BOND
M  V30 1 1 1 2
M  V30 2 3 2 3
M  V30 END BOND
M  V30 END CTAB
M  END
>  <Structure No>
2853

>  <LogS>
1.012409699

>  <MMFF94 Energy>
MMFF94 error code 2

$$$$
Compound 2854
Actelion Java MolfileCreator 2.0

  0  0  0  0  0  0              0 V3000
M  V30 BEGIN CTAB
M  V30 COUNTS 8 7 0 0 0
M  V30 BEGIN ATOM
M  V30 1 O -1.4167 0.4472 0.5963 0
M  V30 2 C -0.3975 -0.4873 0.3734 0
M  V30 3 C 0.452 -0.048 -0.738 0
M  V30 4 C 1.1509 0.3131 -1.6516 0
M  V30 5 H -1.0063 1.2045 1.0909 0
M  V30 6 H 0.2213 -0.6233 1.2883 0
M  V30 7 H -0.8545 -1.4636 0.1108 0
M  V30 8 H 1.7644 0.6301 -2.4535 0
M  V30 END ATOM
M  V30 BEGIN BOND
M  V30 1 1 1 2
M  V30 2 1 2 3
M  V30 3 3 3 4
M  V30 4 1 1 5
M  V30 5 1 2 6
M  V30 6 1 2 7
M  V30 7 1 4 8
M  V30 END BOND
M  V30 END CTAB
M  END
>  <Structure No>
2854

>  <LogS>
1.25131592

>  <MMFF94 Energy>
-1.1715

$$$$
Compound 2855
Actelion Java MolfileCreator 2.0

  0  0  0  0  0  0              0 V3000
M  V30 BEGIN CTAB
M  V30 COUNTS 13 12 0 0 0
M  V30 BEGIN ATOM
M  V30 1 O -1.8175 -0.5298 -0.7569 0
M  V30 2 C -1.1447 0.5469 -0.1614 0
M  V30 3 C 0.0673 0.0598 0.6423 0
M  V30 4 C 1.1117 -0.6396 -0.2363 0
M  V30 5 O 1.6293 0.2404 -1.1976 0
M  V30 6 H -2.3151 -0.99 -0.0315 0
M  V30 7 H -0.8144 1.2495 -0.9553 0
M  V30 8 H -1.8354 1.1055 0.5102 0
M  V30 9 H 0.539 0.9287 1.1502 0
M  V30 10 H -0.2753 -0.6454 1.4302 0
M  V30 11 H 0.6506 -1.5078 -0.7531 0
M  V30 12 H 1.9332 -1.0325 0.4046 0
M  V30 13 H 2.2469 0.8527 -0.7187 0
M  V30 END ATOM
M  V30 BEGIN BOND
M  V30 1 1 1 2
M  V30 2 1 2 3
M  V30 3 1 3 4
M  V30 4 1 4 5
M  V30 5 1 1 6
M  V30 6 1 2 7
M  V30 7 1 2 8
M  V30 8 1 3 9
M  V30 9 1 3 10
M  V30 10 1 4 11
M  V30 11 1 4 12
M  V30 12 1 5 13
M  V30 END BOND
M  V30 END CTAB
M  END
>  <Structure No>
2855

>  <LogS>
1.118643879

>  <MMFF94 Energy>
0.28425

$$$$
Compound 2856
Actelion Java MolfileCreator 2.0

  0  0  0  0  0  0              0 V3000
M  V30 BEGIN CTAB
M  V30 COUNTS 15 15 0 0 0
M  V30 BEGIN ATOM
M  V30 1 O 2.3481 0.4692 -1.0169 0
M  V30 2 C 1.8478 0.0171 0.2096 0
M  V30 3 C 0.3581 -0.1372 0.1115 0
M  V30 4 C -0.2077 -1.3437 -0.3276 0
M  V30 5 C -0.4916 0.9416 0.3954 0
M  V30 6 N -1.5575 -1.4625 -0.447 0
M  V30 7 C -1.874 0.7938 0.2659 0
M  V30 8 C -2.3942 -0.4303 -0.1587 0
M  V30 9 H 3.3299 0.5544 -0.8992 0
M  V30 10 H 2.3148 -0.9589 0.4716 0
M  V30 11 H 2.1023 0.7445 1.0131 0
M  V30 12 H 0.4225 -2.1882 -0.5749 0
M  V30 13 H -0.0851 1.893 0.7157 0
M  V30 14 H -2.5357 1.6209 0.4891 0
M  V30 15 H -3.4633 -0.5584 -0.2642 0
M  V30 END ATOM
M  V30 BEGIN BOND
M  V30 1 1 1 2
M  V30 2 1 2 3
M  V30 3 2 3 4
M  V30 4 1 3 5
M  V30 5 1 4 6
M  V30 6 2 5 7
M  V30 7 2 6 8
M  V30 8 1 7 8
M  V30 9 1 1 9
M  V30 10 1 2 10
M  V30 11 1 2 11
M  V30 12 1 4 12
M  V30 13 1 5 13
M  V30 14 1 7 14
M  V30 15 1 8 15
M  V30 END BOND
M  V30 END CTAB
M  END
>  <Structure No>
2856

>  <LogS>
0.962063804

>  <MMFF94 Energy>
16.919

$$$$
Compound 2857
Actelion Java MolfileCreator 2.0

  0  0  0  0  0  0              0 V3000
M  V30 BEGIN CTAB
M  V30 COUNTS 25 24 0 0 0
M  V30 BEGIN ATOM
M  V30 1 O -1.2526 -0.7827 -2.977 0
M  V30 2 C -1.0646 0.1209 -2.1204 0
M  V30 3 O -0.696 1.3944 -2.5384 0 CHG=-1
M  V30 4 C -1.2405 -0.1773 -0.6542 0 CFG=1
M  V30 5 C 0.0837 0.0569 0.109 0
M  V30 6 C -2.3891 0.6928 -0.0971 0
M  V30 7 C 1.2095 -0.8736 -0.3788 0
M  V30 8 C -2.8695 0.239 1.2824 0
M  V30 9 C 2.4692 -0.7865 0.4964 0
M  V30 10 C 3.2011 0.5467 0.3468 0
M  V30 11 H -1.529 -1.2474 -0.5447 0
M  V30 12 H 0.3932 1.118 -0.0063 0
M  V30 13 H -0.0757 -0.1364 1.1902 0
M  V30 14 H -2.0748 1.7585 -0.0435 0
M  V30 15 H -3.2593 0.6339 -0.7883 0
M  V30 16 H 1.475 -0.637 -1.432 0
M  V30 17 H 0.8451 -1.9237 -0.3509 0
M  V30 18 H -3.1163 -0.8437 1.2736 0
M  V30 19 H -3.7844 0.805 1.5577 0
M  V30 20 H -2.1011 0.4386 2.0567 0
M  V30 21 H 3.1632 -1.6004 0.1941 0
M  V30 22 H 2.2064 -0.9495 1.5642 0
M  V30 23 H 3.4246 0.75 -0.7219 0
M  V30 24 H 2.594 1.3772 0.7628 0
M  V30 25 H 4.1593 0.506 0.9063 0
M  V30 END ATOM
M  V30 BEGIN BOND
M  V30 1 2 1 2
M  V30 2 1 2 3
M  V30 3 1 2 4
M  V30 4 1 4 5
M  V30 5 1 4 6
M  V30 6 1 5 7
M  V30 7 1 6 8
M  V30 8 1 7 9
M  V30 9 1 9 10
M  V30 10 1 4 11
M  V30 11 1 5 12
M  V30 12 1 5 13
M  V30 13 1 6 14
M  V30 14 1 6 15
M  V30 15 1 7 16
M  V30 16 1 7 17
M  V30 17 1 8 18
M  V30 18 1 8 19
M  V30 19 1 8 20
M  V30 20 1 9 21
M  V30 21 1 9 22
M  V30 22 1 10 23
M  V30 23 1 10 24
M  V30 24 1 10 25
M  V30 END BOND
M  V30 BEGIN COLLECTION
M  V30 MDLV30/STEABS ATOMS=(1 4)
M  V30 END COLLECTION
M  V30 END CTAB
M  END
>  <Structure No>
2857

>  <LogS>
0.779379433

>  <MMFF94 Energy>
9.1704

$$$$
Compound 2858
Actelion Java MolfileCreator 2.0

  0  0  0  0  0  0              0 V3000
M  V30 BEGIN CTAB
M  V30 COUNTS 68 71 0 0 0
M  V30 BEGIN ATOM
M  V30 1 S -1.2224 3.6706 -2.2827 0
M  V30 2 O -2.0619 4.8242 -2.7554 0
M  V30 3 O -0.8366 2.8757 -3.4973 0
M  V30 4 O 0.1809 4.263 -1.5697 0 CHG=-1
M  V30 5 C -2.126 2.7133 -1.0614 0
M  V30 6 C -2.0589 1.2877 -1.0179 0
M  V30 7 C -2.8629 3.3962 -0.0558 0
M  V30 8 C -2.6968 0.5841 0.0396 0
M  V30 9 C -1.3408 0.5126 -2.0999 0
M  V30 10 C -3.5688 2.6698 0.9091 0
M  V30 11 C -2.9443 4.9021 0.0064 0
M  V30 12 N -2.4774 -0.8276 0.2265 0
M  V30 13 C -3.4826 1.2795 0.9761 0
M  V30 14 C -1.1675 -1.3677 0.4958 0
M  V30 15 C -4.1951 0.5476 2.0832 0
M  V30 16 C -0.808 -2.6818 0.1003 0
M  V30 17 C -0.235 -0.5702 1.1694 0
M  V30 18 C -1.729 -3.5352 -0.7108 0
M  V30 19 C 0.4756 -3.1885 0.4434 0
M  V30 20 C 1.0417 -1.0443 1.4814 0
M  V30 21 O -2.7337 -3.0363 -1.288 0
M  V30 22 C -1.4395 -4.9717 -0.894 0
M  V30 23 C 0.8625 -4.5469 -0.044 0
M  V30 24 C 1.3801 -2.3733 1.1792 0
M  V30 25 O 1.9961 -0.2271 2.115 0
M  V30 26 C -0.1673 -5.4697 -0.5629 0
M  V30 27 C -2.4097 -5.8403 -1.4267 0
M  V30 28 O 2.0727 -4.8974 -0.0873 0
M  V30 29 N 2.6288 -2.8889 1.6671 0
M  V30 30 C 1.9065 1.1907 2.2831 0
M  V30 31 C 0.1203 -6.8314 -0.766 0
M  V30 32 C -2.1156 -7.1924 -1.6177 0
M  V30 33 C 1.9984 1.9184 0.9397 0
M  V30 34 C -0.8528 -7.6874 -1.2872 0
M  V30 35 O 3.1756 1.5169 0.2699 0
M  V30 36 C 3.2726 2.1496 -0.9933 0
M  V30 37 C 4.0757 3.4468 -0.8915 0
M  V30 38 O 5.3484 3.1712 -0.344 0
M  V30 39 C 6.0896 4.3676 -0.2613 0
M  V30 40 H -0.2634 0.7834 -2.1109 0
M  V30 41 H -1.8148 0.7185 -3.0815 0
M  V30 42 H -1.4111 -0.5834 -1.9804 0
M  V30 43 H -4.1612 3.1996 1.6462 0
M  V30 44 H -3.6428 5.2723 -0.7718 0
M  V30 45 H -3.321 5.25 0.9928 0
M  V30 46 H -1.9413 5.3566 -0.1313 0
M  V30 47 H -3.3085 -1.4322 0.4159 0
M  V30 48 H -3.4731 -0.0715 2.6552 0
M  V30 49 H -4.9786 -0.109 1.6516 0
M  V30 50 H -4.6813 1.2485 2.7948 0
M  V30 51 H -0.5258 0.4224 1.4781 0
M  V30 52 H -3.3935 -5.4743 -1.6941 0
M  V30 53 H 2.7297 -3.8884 1.9451 0
M  V30 54 H 3.4042 -2.2499 1.9483 0
M  V30 55 H 2.7556 1.5185 2.9202 0
M  V30 56 H 0.9712 1.4643 2.8165 0
M  V30 57 H 1.0951 -7.234 -0.5189 0
M  V30 58 H -2.8655 -7.8553 -2.0288 0
M  V30 59 H 1.0977 1.6807 0.333 0
M  V30 60 H 2.0135 3.0123 1.1392 0
M  V30 61 H -0.6254 -8.7345 -1.4397 0
M  V30 62 H 2.2842 2.3446 -1.4731 0
M  V30 63 H 3.8117 1.4605 -1.6792 0
M  V30 64 H 3.5161 4.1692 -0.254 0
M  V30 65 H 4.1737 3.8698 -1.9173 0
M  V30 66 H 7.0815 4.1391 0.1815 0
M  V30 67 H 6.2634 4.8052 -1.2688 0
M  V30 68 H 5.5896 5.1088 0.4005 0
M  V30 END ATOM
M  V30 BEGIN BOND
M  V30 1 2 1 2
M  V30 2 2 1 3
M  V30 3 1 1 4
M  V30 4 1 1 5
M  V30 5 2 5 6
M  V30 6 1 5 7
M  V30 7 1 6 8
M  V30 8 1 6 9
M  V30 9 2 7 10
M  V30 10 1 7 11
M  V30 11 1 8 12
M  V30 12 2 8 13
M  V30 13 1 12 14
M  V30 14 1 13 15
M  V30 15 2 14 16
M  V30 16 1 14 17
M  V30 17 1 16 18
M  V30 18 1 16 19
M  V30 19 2 17 20
M  V30 20 2 18 21
M  V30 21 1 18 22
M  V30 22 1 19 23
M  V30 23 2 19 24
M  V30 24 1 20 25
M  V30 25 2 22 26
M  V30 26 1 22 27
M  V30 27 2 23 28
M  V30 28 1 24 29
M  V30 29 1 25 30
M  V30 30 1 26 31
M  V30 31 2 27 32
M  V30 32 1 30 33
M  V30 33 2 31 34
M  V30 34 1 33 35
M  V30 35 1 35 36
M  V30 36 1 36 37
M  V30 37 1 37 38
M  V30 38 1 38 39
M  V30 39 1 10 13
M  V30 40 1 20 24
M  V30 41 1 23 26
M  V30 42 1 32 34
M  V30 43 1 9 40
M  V30 44 1 9 41
M  V30 45 1 9 42
M  V30 46 1 10 43
M  V30 47 1 11 44
M  V30 48 1 11 45
M  V30 49 1 11 46
M  V30 50 1 12 47
M  V30 51 1 15 48
M  V30 52 1 15 49
M  V30 53 1 15 50
M  V30 54 1 17 51
M  V30 55 1 27 52
M  V30 56 1 29 53
M  V30 57 1 29 54
M  V30 58 1 30 55
M  V30 59 1 30 56
M  V30 60 1 31 57
M  V30 61 1 32 58
M  V30 62 1 33 59
M  V30 63 1 33 60
M  V30 64 1 34 61
M  V30 65 1 36 62
M  V30 66 1 36 63
M  V30 67 1 37 64
M  V30 68 1 37 65
M  V30 69 1 39 66
M  V30 70 1 39 67
M  V30 71 1 39 68
M  V30 END BOND
M  V30 END CTAB
M  END
>  <Structure No>
2858

>  <LogS>
0.239123102

>  <MMFF94 Energy>
186.44

$$$$
Compound 2859
Actelion Java MolfileCreator 2.0

  0  0  0  0  0  0              0 V3000
M  V30 BEGIN CTAB
M  V30 COUNTS 22 22 0 0 0
M  V30 BEGIN ATOM
M  V30 1 O 0.7896 1.4216 -1.7377 0
M  V30 2 C 0.6543 0.6439 -0.7528 0
M  V30 3 O 1.7835 0.1079 -0.1243 0
M  V30 4 C -0.6969 0.2966 -0.2602 0
M  V30 5 C 3.1112 0.4003 -0.5468 0
M  V30 6 C -1.8452 0.8252 -0.8785 0
M  V30 7 C -0.8513 -0.5695 0.8369 0
M  V30 8 C 4.1015 -0.3365 0.3403 0
M  V30 9 C -3.1194 0.4929 -0.4078 0
M  V30 10 C -2.1272 -0.8994 1.3046 0
M  V30 11 C -3.2632 -0.3706 0.6855 0
M  V30 12 O -4.5277 -0.7084 1.1628 0
M  V30 13 H 3.2962 1.4941 -0.4741 0
M  V30 14 H 3.2499 0.0754 -1.6009 0
M  V30 15 H -1.7602 1.495 -1.7252 0
M  V30 16 H 0.0118 -0.9929 1.3346 0
M  V30 17 H 5.1382 -0.1106 0.0134 0
M  V30 18 H 3.9773 -0.0145 1.396 0
M  V30 19 H 3.9311 -1.4317 0.2704 0
M  V30 20 H -3.9937 0.9072 -0.8934 0
M  V30 21 H -2.233 -1.5674 2.1501 0
M  V30 22 H -5.3703 -0.3416 0.7357 0
M  V30 END ATOM
M  V30 BEGIN BOND
M  V30 1 2 1 2
M  V30 2 1 2 3
M  V30 3 1 2 4
M  V30 4 1 3 5
M  V30 5 2 4 6
M  V30 6 1 4 7
M  V30 7 1 5 8
M  V30 8 1 6 9
M  V30 9 2 7 10
M  V30 10 2 9 11
M  V30 11 1 11 12
M  V30 12 1 10 11
M  V30 13 1 5 13
M  V30 14 1 5 14
M  V30 15 1 6 15
M  V30 16 1 7 16
M  V30 17 1 8 17
M  V30 18 1 8 18
M  V30 19 1 8 19
M  V30 20 1 9 20
M  V30 21 1 10 21
M  V30 22 1 12 22
M  V30 END BOND
M  V30 END CTAB
M  END
>  <Structure No>
2859

>  <LogS>
0.725477312

>  <MMFF94 Energy>
16.251

$$$$
Compound 2860
Actelion Java MolfileCreator 2.0

  0  0  0  0  0  0              0 V3000
M  V30 BEGIN CTAB
M  V30 COUNTS 3 2 0 0 0
M  V30 BEGIN ATOM
M  V30 1 S 0 0 0 0 CHG=-1 VAL=2
M  V30 2 C 0 0 0 0
M  V30 3 N 0 0 0 0
M  V30 END ATOM
M  V30 BEGIN BOND
M  V30 1 1 1 2
M  V30 2 3 2 3
M  V30 END BOND
M  V30 END CTAB
M  END
>  <Structure No>
2860

>  <LogS>
1.091113043

>  <MMFF94 Energy>
MMFF94 error code 2

$$$$
Compound 2861
Actelion Java MolfileCreator 2.0

  0  0  0  0  0  0              0 V3000
M  V30 BEGIN CTAB
M  V30 COUNTS 27 26 0 0 0
M  V30 BEGIN ATOM
M  V30 1 O -0.3085 -0.4628 0.3085 0
M  V30 2 C -1.6164 -0.3231 -0.2464 0
M  V30 3 C 0.6804 0.3434 -0.3093 0
M  V30 4 C -1.7207 -1.0557 -1.6023 0
M  V30 5 C -2.5752 -1.0118 0.7398 0
M  V30 6 C -2.0663 1.152 -0.3926 0
M  V30 7 C 2.0753 -0.1555 0.1016 0
M  V30 8 C 3.1668 0.6223 -0.6438 0
M  V30 9 C 2.2817 -0.0379 1.618 0
M  V30 10 H 0.57 1.4005 0.0198 0
M  V30 11 H 0.6135 0.3027 -1.4166 0
M  V30 12 H -2.7821 -1.1418 -1.921 0
M  V30 13 H -1.1846 -0.5127 -2.4069 0
M  V30 14 H -1.2929 -2.0777 -1.5198 0
M  V30 15 H -2.2946 -2.0795 0.8697 0
M  V30 16 H -3.6264 -0.9658 0.3807 0
M  V30 17 H -2.5218 -0.5196 1.7352 0
M  V30 18 H -3.1423 1.2082 -0.6655 0
M  V30 19 H -1.9165 1.6971 0.5639 0
M  V30 20 H -1.4976 1.6711 -1.1929 0
M  V30 21 H 2.1627 -1.228 -0.1812 0
M  V30 22 H 3.0448 0.4988 -1.7411 0
M  V30 23 H 4.1707 0.2375 -0.3646 0
M  V30 24 H 3.1155 1.7047 -0.3964 0
M  V30 25 H 1.5287 -0.6481 2.1602 0
M  V30 26 H 3.2894 -0.413 1.8973 0
M  V30 27 H 2.19 1.02 1.9458 0
M  V30 END ATOM
M  V30 BEGIN BOND
M  V30 1 1 1 2
M  V30 2 1 1 3
M  V30 3 1 2 4
M  V30 4 1 2 5
M  V30 5 1 2 6
M  V30 6 1 3 7
M  V30 7 1 7 8
M  V30 8 1 7 9
M  V30 9 1 3 10
M  V30 10 1 3 11
M  V30 11 1 4 12
M  V30 12 1 4 13
M  V30 13 1 4 14
M  V30 14 1 5 15
M  V30 15 1 5 16
M  V30 16 1 5 17
M  V30 17 1 6 18
M  V30 18 1 6 19
M  V30 19 1 6 20
M  V30 20 1 7 21
M  V30 21 1 8 22
M  V30 22 1 8 23
M  V30 23 1 8 24
M  V30 24 1 9 25
M  V30 25 1 9 26
M  V30 26 1 9 27
M  V30 END BOND
M  V30 END CTAB
M  END
>  <Structure No>
2861

>  <LogS>
0.885285625

>  <MMFF94 Energy>
18.862

$$$$
Compound 2862
Actelion Java MolfileCreator 2.0

  0  0  0  0  0  0              0 V3000
M  V30 BEGIN CTAB
M  V30 COUNTS 16 16 0 0 0
M  V30 BEGIN ATOM
M  V30 1 O 2.0536 -2.3003 0.7389 0
M  V30 2 C 1.8739 -1.1902 0.1709 0
M  V30 3 O 2.9632 -0.5362 -0.3922 0 CHG=-1
M  V30 4 C 0.509 -0.6284 0.0472 0
M  V30 5 C 0.2547 0.7703 0.0263 0
M  V30 6 C -0.5644 -1.5221 -0.127 0
M  V30 7 C 1.296 1.776 0.3393 0
M  V30 8 C -1.0523 1.2248 -0.2313 0
M  V30 9 C -1.8563 -1.0492 -0.3593 0
M  V30 10 O 1.2626 2.9129 -0.202 0
M  V30 11 O 2.2831 1.5052 1.2795 0 CHG=-1
M  V30 12 C -2.0977 0.3209 -0.4231 0
M  V30 13 H -0.3979 -2.5924 -0.1151 0
M  V30 14 H -1.2727 2.2853 -0.2529 0
M  V30 15 H -2.6703 -1.7482 -0.5033 0
M  V30 16 H -3.1001 0.6848 -0.6087 0
M  V30 END ATOM
M  V30 BEGIN BOND
M  V30 1 2 1 2
M  V30 2 1 2 3
M  V30 3 1 2 4
M  V30 4 2 4 5
M  V30 5 1 4 6
M  V30 6 1 5 7
M  V30 7 1 5 8
M  V30 8 2 6 9
M  V30 9 2 7 10
M  V30 10 1 7 11
M  V30 11 2 8 12
M  V30 12 1 9 12
M  V30 13 1 6 13
M  V30 14 1 8 14
M  V30 15 1 9 15
M  V30 16 1 12 16
M  V30 END BOND
M  V30 END CTAB
M  END
>  <Structure No>
2862

>  <LogS>
0.621109935

>  <MMFF94 Energy>
124.43

$$$$
Compound 2863
Actelion Java MolfileCreator 2.0

  0  0  0  0  0  0              0 V3000
M  V30 BEGIN CTAB
M  V30 COUNTS 17 16 0 0 0
M  V30 BEGIN ATOM
M  V30 1 N 0.0 0.0 0.0 0 CHG=1
M  V30 2 C 0.2476 -1.4469 0.1843 0
M  V30 3 C -0.7484 0.5244 1.1637 0
M  V30 4 C -0.7919 0.2119 -1.2317 0
M  V30 5 C 1.2925 0.7108 -0.1161 0
M  V30 6 H 0.8104 -1.8685 -0.6785 0
M  V30 7 H 0.8427 -1.6357 1.1059 0
M  V30 8 H -0.7098 -2.0074 0.2748 0
M  V30 9 H -1.7272 0.0061 1.2752 0
M  V30 10 H -0.949 1.6136 1.0514 0
M  V30 11 H -0.1746 0.3778 2.1062 0
M  V30 12 H -0.2513 -0.1741 -2.1249 0
M  V30 13 H -0.9933 1.2944 -1.3953 0
M  V30 14 H -1.7717 -0.313 -1.1715 0
M  V30 15 H 1.9099 0.5682 0.799 0
M  V30 16 H 1.1355 1.804 -0.2557 0
M  V30 17 H 1.8775 0.3354 -0.9853 0
M  V30 END ATOM
M  V30 BEGIN BOND
M  V30 1 1 1 2
M  V30 2 1 1 3
M  V30 3 1 1 4
M  V30 4 1 1 5
M  V30 5 1 2 6
M  V30 6 1 2 7
M  V30 7 1 2 8
M  V30 8 1 3 9
M  V30 9 1 3 10
M  V30 10 1 3 11
M  V30 11 1 4 12
M  V30 12 1 4 13
M  V30 13 1 4 14
M  V30 14 1 5 15
M  V30 15 1 5 16
M  V30 16 1 5 17
M  V30 END BOND
M  V30 END CTAB
M  END
>  <Structure No>
2863

>  <LogS>
1.040224269

>  <MMFF94 Energy>
14.934

$$$$
Compound 2864
Actelion Java MolfileCreator 2.0

  0  0  0  0  0  0              0 V3000
M  V30 BEGIN CTAB
M  V30 COUNTS 60 62 0 0 0
M  V30 BEGIN ATOM
M  V30 1 S 4.954 -0.1676 2.6007 0
M  V30 2 O 4.6103 -1.6305 2.587 0
M  V30 3 O 3.7121 0.6481 2.8305 0
M  V30 4 O 6.0169 0.1305 3.8691 0 CHG=-1
M  V30 5 C 5.7045 0.2855 1.0626 0
M  V30 6 C 4.9487 0.5662 -0.1039 0
M  V30 7 C 7.1009 0.431 1.0261 0
M  V30 8 N 3.5271 0.3989 -0.1766 0
M  V30 9 C 5.6016 1.0488 -1.2433 0
M  V30 10 C 7.7546 0.8821 -0.134 0
M  V30 11 N 2.9268 -0.5871 0.3586 0
M  V30 12 C 6.9881 1.2001 -1.2639 0
M  V30 13 N 9.1864 1.0302 -0.1609 0 CHG=1
M  V30 14 C 1.5009 -0.7417 0.2941 0
M  V30 15 O 9.873 0.7753 0.8503 0
M  V30 16 O 9.8222 1.4713 -1.2986 0 CHG=-1
M  V30 17 C 0.9007 -1.9002 0.8247 0
M  V30 18 C 0.6921 0.2548 -0.2815 0
M  V30 19 C -0.4958 -2.0324 0.7968 0
M  V30 20 C 1.7325 -2.9706 1.4769 0
M  V30 21 C -0.7075 0.1152 -0.3167 0
M  V30 22 C -1.3011 -1.0331 0.2243 0
M  V30 23 O -1.5408 1.0974 -0.8767 0
M  V30 24 N -2.7294 -1.1565 0.1897 0
M  V30 25 C -1.0808 2.3119 -1.4624 0
M  V30 26 N -3.334 -2.194 0.6118 0
M  V30 27 C -2.282 3.1294 -1.9395 0
M  V30 28 C -4.7616 -2.3092 0.5805 0
M  V30 29 C -1.8758 4.3532 -2.7711 0
M  V30 30 C -5.3559 -3.4886 1.0411 0
M  V30 31 C -5.574 -1.2639 0.1156 0
M  V30 32 S -1.0118 5.5908 -1.8097 0
M  V30 33 C -6.7547 -3.6424 1.0442 0
M  V30 34 C -6.9613 -1.4098 0.0966 0
M  V30 35 O -1.6878 5.7831 -0.4815 0
M  V30 36 O -1.0229 6.8915 -2.5617 0
M  V30 37 O 0.5807 5.1153 -1.564 0 CHG=-1
M  V30 38 C -7.5614 -2.5956 0.5347 0
M  V30 39 C -7.3304 -4.8805 1.6134 0
M  V30 40 O -8.948 -2.7061 0.4147 0
M  V30 41 O -6.7206 -5.976 1.4907 0
M  V30 42 O -8.5097 -4.8437 2.347 0 CHG=-1
M  V30 43 H 7.6819 0.2009 1.9098 0
M  V30 44 H 5.031 1.2871 -2.1318 0
M  V30 45 H 7.4607 1.56 -2.1691 0
M  V30 46 H 1.1556 1.1413 -0.6908 0
M  V30 47 H -0.9559 -2.9138 1.227 0
M  V30 48 H 1.1768 -3.9301 1.5388 0
M  V30 49 H 2.0047 -2.6497 2.5035 0
M  V30 50 H 2.6577 -3.1561 0.8923 0
M  V30 51 H -0.4192 2.0775 -2.3249 0
M  V30 52 H -0.5158 2.8909 -0.7019 0
M  V30 53 H -2.9234 2.4778 -2.5728 0
M  V30 54 H -2.8898 3.4474 -1.0648 0
M  V30 55 H -2.7949 4.8189 -3.1861 0
M  V30 56 H -1.237 4.0424 -3.6249 0
M  V30 57 H -4.7214 -4.2795 1.4231 0
M  V30 58 H -5.1382 -0.3392 -0.2399 0
M  V30 59 H -7.5755 -0.6032 -0.2833 0
M  V30 60 H -9.45 -3.5738 0.5414 0
M  V30 END ATOM
M  V30 BEGIN BOND
M  V30 1 2 1 2
M  V30 2 2 1 3
M  V30 3 1 1 4
M  V30 4 1 1 5
M  V30 5 2 5 6
M  V30 6 1 5 7
M  V30 7 1 6 8
M  V30 8 1 6 9
M  V30 9 2 7 10
M  V30 10 2 8 11
M  V30 11 2 9 12
M  V30 12 1 10 13
M  V30 13 1 11 14
M  V30 14 2 13 15
M  V30 15 1 13 16
M  V30 16 2 14 17
M  V30 17 1 14 18
M  V30 18 1 17 19
M  V30 19 1 17 20
M  V30 20 2 18 21
M  V30 21 2 19 22
M  V30 22 1 21 23
M  V30 23 1 22 24
M  V30 24 1 23 25
M  V30 25 2 24 26
M  V30 26 1 25 27
M  V30 27 1 26 28
M  V30 28 1 27 29
M  V30 29 2 28 30
M  V30 30 1 28 31
M  V30 31 1 29 32
M  V30 32 1 30 33
M  V30 33 2 31 34
M  V30 34 2 32 35
M  V30 35 2 32 36
M  V30 36 1 32 37
M  V30 37 2 33 38
M  V30 38 1 33 39
M  V30 39 1 38 40
M  V30 40 2 39 41
M  V30 41 1 39 42
M  V30 42 1 10 12
M  V30 43 1 21 22
M  V30 44 1 34 38
M  V30 45 1 7 43
M  V30 46 1 9 44
M  V30 47 1 12 45
M  V30 48 1 18 46
M  V30 49 1 19 47
M  V30 50 1 20 48
M  V30 51 1 20 49
M  V30 52 1 20 50
M  V30 53 1 25 51
M  V30 54 1 25 52
M  V30 55 1 27 53
M  V30 56 1 27 54
M  V30 57 1 29 55
M  V30 58 1 29 56
M  V30 59 1 30 57
M  V30 60 1 31 58
M  V30 61 1 34 59
M  V30 62 1 40 60
M  V30 END BOND
M  V30 END CTAB
M  END
>  <Structure No>
2864

>  <LogS>
0.161450613

>  <MMFF94 Energy>
172.95

$$$$
Compound 2865
Actelion Java MolfileCreator 2.0

  0  0  0  0  0  0              0 V3000
M  V30 BEGIN CTAB
M  V30 COUNTS 31 31 0 0 0
M  V30 BEGIN ATOM
M  V30 1 O 0.3127 2.1123 1.4861 0
M  V30 2 C 0.121 1.9185 0.1083 0
M  V30 3 C 1.221 1.0231 -0.4741 0
M  V30 4 C -1.2729 1.3198 -0.1408 0
M  V30 5 C 1.2154 -0.4095 0.1402 0
M  V30 6 C -1.3179 -0.2447 -0.1298 0
M  V30 7 N -0.1505 -0.8229 0.5981 0 CHG=1
M  V30 8 C 2.1867 -0.4458 1.3512 0
M  V30 9 C 1.7832 -1.4163 -0.8944 0
M  V30 10 C -1.4062 -0.7858 -1.5794 0
M  V30 11 C -2.6139 -0.6935 0.592 0
M  V30 12 H 1.081 2.7336 1.5847 0
M  V30 13 H 0.1626 2.9087 -0.4039 0
M  V30 14 H 1.0778 0.981 -1.5751 0
M  V30 15 H 2.2086 1.5141 -0.328 0
M  V30 16 H -1.6542 1.703 -1.1138 0
M  V30 17 H -1.9631 1.7455 0.6222 0
M  V30 18 H -0.2611 -0.5515 1.6047 0
M  V30 19 H -0.2228 -1.8682 0.5907 0
M  V30 20 H 1.8814 0.27 2.1412 0
M  V30 21 H 2.2 -1.4607 1.8042 0
M  V30 22 H 3.2237 -0.1906 1.0418 0
M  V30 23 H 2.816 -1.1287 -1.1886 0
M  V30 24 H 1.8211 -2.4413 -0.4663 0
M  V30 25 H 1.1828 -1.4595 -1.8203 0
M  V30 26 H -1.2626 -1.8873 -1.5989 0
M  V30 27 H -0.6642 -0.3071 -2.2456 0
M  V30 28 H -2.4016 -0.5634 -2.0217 0
M  V30 29 H -2.7034 -1.8014 0.5828 0
M  V30 30 H -3.513 -0.2644 0.0981 0
M  V30 31 H -2.612 -0.3578 1.6516 0
M  V30 END ATOM
M  V30 BEGIN BOND
M  V30 1 1 1 2
M  V30 2 1 2 3
M  V30 3 1 2 4
M  V30 4 1 3 5
M  V30 5 1 4 6
M  V30 6 1 5 7
M  V30 7 1 5 8
M  V30 8 1 5 9
M  V30 9 1 6 10
M  V30 10 1 6 11
M  V30 11 1 6 7
M  V30 12 1 1 12
M  V30 13 1 2 13
M  V30 14 1 3 14
M  V30 15 1 3 15
M  V30 16 1 4 16
M  V30 17 1 4 17
M  V30 18 1 7 18
M  V30 19 1 7 19
M  V30 20 1 8 20
M  V30 21 1 8 21
M  V30 22 1 8 22
M  V30 23 1 9 23
M  V30 24 1 9 24
M  V30 25 1 9 25
M  V30 26 1 10 26
M  V30 27 1 10 27
M  V30 28 1 10 28
M  V30 29 1 11 29
M  V30 30 1 11 30
M  V30 31 1 11 31
M  V30 END BOND
M  V30 END CTAB
M  END
>  <Structure No>
2865

>  <LogS>
-0.196609986

>  <MMFF94 Energy>
23.367

$$$$
Compound 2866
Actelion Java MolfileCreator 2.0

  0  0  0  0  0  0              0 V3000
M  V30 BEGIN CTAB
M  V30 COUNTS 26 26 0 0 0
M  V30 BEGIN ATOM
M  V30 1 N 0.1539 0.0 -0.2309 0
M  V30 2 C -0.6266 0.6611 -1.2951 0
M  V30 3 C -0.689 -0.9959 0.4631 0
M  V30 4 C 1.3658 -0.6309 -0.7997 0
M  V30 5 C -1.8644 1.3438 -0.6988 0
M  V30 6 C -1.923 -0.3138 1.066 0
M  V30 7 C 2.467 -0.7902 0.2609 0
M  V30 8 N -2.6981 0.3741 0.0244 0 CHG=1
M  V30 9 N 2.8325 0.4961 0.8561 0 CHG=1
M  V30 10 H -0.9405 -0.0746 -2.0708 0
M  V30 11 H -0.0097 1.4454 -1.7865 0
M  V30 12 H -1.016 -1.7987 -0.2368 0
M  V30 13 H -0.124 -1.4686 1.2934 0
M  V30 14 H 1.7896 -0.0061 -1.6183 0
M  V30 15 H 1.1318 -1.6243 -1.2453 0
M  V30 16 H -1.5444 2.1594 -0.0114 0
M  V30 17 H -2.4573 1.8047 -1.5193 0
M  V30 18 H -1.6029 0.4128 1.8467 0
M  V30 19 H -2.5607 -1.0813 1.5575 0
M  V30 20 H 2.1432 -1.4932 1.0574 0
M  V30 21 H 3.3631 -1.2358 -0.2245 0
M  V30 22 H -3.0889 -0.3276 -0.6477 0
M  V30 23 H -3.4957 0.8811 0.4742 0
M  V30 24 H 3.6333 0.3525 1.5128 0
M  V30 25 H 2.0258 0.8885 1.3935 0
M  V30 26 H 3.1238 1.1695 0.1107 0
M  V30 END ATOM
M  V30 BEGIN BOND
M  V30 1 1 1 2
M  V30 2 1 1 3
M  V30 3 1 1 4
M  V30 4 1 2 5
M  V30 5 1 3 6
M  V30 6 1 4 7
M  V30 7 1 5 8
M  V30 8 1 7 9
M  V30 9 1 6 8
M  V30 10 1 2 10
M  V30 11 1 2 11
M  V30 12 1 3 12
M  V30 13 1 3 13
M  V30 14 1 4 14
M  V30 15 1 4 15
M  V30 16 1 5 16
M  V30 17 1 5 17
M  V30 18 1 6 18
M  V30 19 1 6 19
M  V30 20 1 7 20
M  V30 21 1 7 21
M  V30 22 1 8 22
M  V30 23 1 8 23
M  V30 24 1 9 24
M  V30 25 1 9 25
M  V30 26 1 9 26
M  V30 END BOND
M  V30 END CTAB
M  END
>  <Structure No>
2866

>  <LogS>
-0.111286043

>  <MMFF94 Energy>
155.58

$$$$
Compound 2867
Actelion Java MolfileCreator 2.0

  0  0  0  0  0  0              0 V3000
M  V30 BEGIN CTAB
M  V30 COUNTS 19 18 0 0 0
M  V30 BEGIN ATOM
M  V30 1 O -0.0765 0.0765 -0.919 0
M  V30 2 C -0.854 0.0351 0.2659 0
M  V30 3 C 1.0695 -0.7522 -0.8287 0
M  V30 4 C -1.541 1.3889 0.4402 0
M  V30 5 C -1.9024 -1.0775 0.1621 0
M  V30 6 C 2.3147 0.0929 -0.5734 0
M  V30 7 O 2.2401 0.6901 0.6909 0
M  V30 8 H -0.2371 -0.1304 1.1811 0
M  V30 9 H 0.9913 -1.562 -0.0654 0
M  V30 10 H 1.1961 -1.2624 -1.8069 0
M  V30 11 H -0.7748 2.1889 0.5235 0
M  V30 12 H -2.1931 1.6108 -0.4317 0
M  V30 13 H -2.1565 1.395 1.3655 0
M  V30 14 H -2.5369 -1.0955 1.074 0
M  V30 15 H -2.5493 -0.9194 -0.7272 0
M  V30 16 H -1.4046 -2.0651 0.0668 0
M  V30 17 H 2.3963 0.8768 -1.3594 0
M  V30 18 H 3.2133 -0.5612 -0.6248 0
M  V30 19 H 3.0681 1.2281 0.79 0
M  V30 END ATOM
M  V30 BEGIN BOND
M  V30 1 1 1 2
M  V30 2 1 1 3
M  V30 3 1 2 4
M  V30 4 1 2 5
M  V30 5 1 3 6
M  V30 6 1 6 7
M  V30 7 1 2 8
M  V30 8 1 3 9
M  V30 9 1 3 10
M  V30 10 1 4 11
M  V30 11 1 4 12
M  V30 12 1 4 13
M  V30 13 1 5 14
M  V30 14 1 5 15
M  V30 15 1 5 16
M  V30 16 1 6 17
M  V30 17 1 6 18
M  V30 18 1 7 19
M  V30 END BOND
M  V30 END CTAB
M  END
>  <Structure No>
2867

>  <LogS>
-0.017655104

>  <MMFF94 Energy>
26.821

$$$$
Compound 2868
Actelion Java MolfileCreator 2.0

  0  0  0  0  0  0              0 V3000
M  V30 BEGIN CTAB
M  V30 COUNTS 22 21 0 0 0
M  V30 BEGIN ATOM
M  V30 1 O 3.2909 -0.6116 -1.3765 0
M  V30 2 C 2.8536 -0.0236 -0.3514 0
M  V30 3 N 3.7136 0.1775 0.77 0
M  V30 4 C 1.422 0.4175 -0.2983 0
M  V30 5 C 0.5496 -0.669 0.3511 0
M  V30 6 N -0.8436 -0.2276 0.5469 0 CHG=1
M  V30 7 C -1.6099 -0.2226 -0.7117 0
M  V30 8 C -3.0915 0.0864 -0.4596 0
M  V30 9 O -3.2478 1.3614 0.1027 0
M  V30 10 H 3.3595 0.6407 1.6362 0
M  V30 11 H 4.7068 -0.1429 0.7368 0
M  V30 12 H 1.0733 0.6269 -1.3312 0
M  V30 13 H 1.3525 1.3603 0.2861 0
M  V30 14 H 0.9838 -0.9186 1.3459 0
M  V30 15 H 0.5839 -1.5992 -0.2598 0
M  V30 16 H -0.8563 0.7257 0.9795 0
M  V30 17 H -1.2983 -0.8942 1.2146 0
M  V30 18 H -1.5438 -1.2177 -1.2055 0
M  V30 19 H -1.2067 0.5411 -1.4107 0
M  V30 20 H -3.5179 -0.6679 0.235 0
M  V30 21 H -3.6562 0.0173 -1.4169 0
M  V30 22 H -3.0995 2.015 -0.6297 0
M  V30 END ATOM
M  V30 BEGIN BOND
M  V30 1 2 1 2
M  V30 2 1 2 3
M  V30 3 1 2 4
M  V30 4 1 4 5
M  V30 5 1 5 6
M  V30 6 1 6 7
M  V30 7 1 7 8
M  V30 8 1 8 9
M  V30 9 1 3 10
M  V30 10 1 3 11
M  V30 11 1 4 12
M  V30 12 1 4 13
M  V30 13 1 5 14
M  V30 14 1 5 15
M  V30 15 1 6 16
M  V30 16 1 6 17
M  V30 17 1 7 18
M  V30 18 1 7 19
M  V30 19 1 8 20
M  V30 20 1 8 21
M  V30 21 1 9 22
M  V30 END BOND
M  V30 END CTAB
M  END
>  <Structure No>
2868

>  <LogS>
-0.121109888

>  <MMFF94 Energy>
-3.6281

$$$$
Compound 2869
Actelion Java MolfileCreator 2.0

  0  0  0  0  0  0              0 V3000
M  V30 BEGIN CTAB
M  V30 COUNTS 69 70 0 0 0
M  V30 BEGIN ATOM
M  V30 1 O 1.2622 1.3412 -0.1577 0
M  V30 2 C 0.8005 0.1805 -0.0011 0
M  V30 3 O 1.6648 -0.8777 0.2434 0 CHG=-1
M  V30 4 C -0.6727 -0.0482 -0.0231 0
M  V30 5 N 5.0006 -0.6723 -0.6562 0
M  V30 6 C 3.7236 -0.0664 -0.3444 0
M  V30 7 C 5.4619 -0.7525 -2.0512 0
M  V30 8 C 5.8591 -1.2115 0.4131 0
M  V30 9 C 3.5866 0.8028 0.7524 0
M  V30 10 C 2.5945 -0.3366 -1.1373 0
M  V30 11 C 5.4119 -2.1897 -2.5629 0
M  V30 12 C 5.1847 -2.3936 1.1062 0
M  V30 13 C 2.3508 1.382 1.0512 0
M  V30 14 C 1.3602 0.245 -0.8408 0
M  V30 15 C 1.2236 1.1082 0.2594 0
M  V30 16 C -0.0919 1.7301 0.5716 0 CHG=1
M  V30 17 C -1.3458 0.9689 0.3385 0
M  V30 18 C -0.163 3.1309 1.0635 0
M  V30 19 C -1.4355 -0.3865 0.6981 0
M  V30 20 C -2.4476 1.5892 -0.2749 0
M  V30 21 C 0.683 4.1204 0.5297 0
M  V30 22 C -1.0949 3.4896 2.0561 0
M  V30 23 C -2.6014 -1.1121 0.4358 0
M  V30 24 C -3.6091 0.8596 -0.5434 0
M  V30 25 C 0.5985 5.4415 0.9811 0
M  V30 26 C -1.1742 4.8123 2.504 0
M  V30 27 C -3.6864 -0.4948 -0.1993 0
M  V30 28 C -0.3264 5.7867 1.9701 0
M  V30 29 N -4.8698 -1.2433 -0.5073 0
M  V30 30 C -6.0436 -1.1175 0.3655 0
M  V30 31 C -4.9593 -1.9618 -1.7837 0
M  V30 32 C -6.1146 -2.2957 1.3297 0
M  V30 33 C -4.089 -3.215 -1.767 0
M  V30 34 H -1.0942 0.1379 0.9872 0
M  V30 35 H -0.8872 -1.0967 -0.3186 0
M  V30 36 H -1.1542 0.6356 -0.7532 0
M  V30 37 H 6.5035 -0.3736 -2.1213 0
M  V30 38 H 4.8402 -0.1088 -2.71 0
M  V30 39 H 6.8321 -1.555 -0.0027 0
M  V30 40 H 6.0981 -0.4255 1.1571 0
M  V30 41 H 4.4357 1.0575 1.369 0
M  V30 42 H 2.6627 -1.0044 -1.9839 0
M  V30 43 H 5.6823 -2.2109 -3.6387 0
M  V30 44 H 6.1356 -2.8222 -2.009 0
M  V30 45 H 4.3929 -2.6121 -2.4401 0
M  V30 46 H 4.9941 -3.2049 0.3708 0
M  V30 47 H 4.2218 -2.0811 1.5625 0
M  V30 48 H 5.8484 -2.7862 1.9061 0
M  V30 49 H 2.276 2.0464 1.9027 0
M  V30 50 H 0.5125 0.0261 -1.4786 0
M  V30 51 H -0.6021 -0.8815 1.1822 0
M  V30 52 H -2.3996 2.6317 -0.5684 0
M  V30 53 H 1.3959 3.8751 -0.2493 0
M  V30 54 H -1.7576 2.747 2.4836 0
M  V30 55 H -2.6584 -2.1554 0.7175 0
M  V30 56 H -4.4457 1.3431 -1.032 0
M  V30 57 H 1.2453 6.1997 0.5574 0
M  V30 58 H -1.8952 5.0827 3.2637 0
M  V30 59 H -0.3924 6.8113 2.3135 0
M  V30 60 H -6.9753 -1.0805 -0.2416 0
M  V30 61 H -5.9947 -0.171 0.9474 0
M  V30 62 H -6.0101 -2.2671 -1.9879 0
M  V30 63 H -4.6379 -1.2957 -2.6142 0
M  V30 64 H -5.194 -2.3385 1.9514 0
M  V30 65 H -6.2214 -3.2461 0.7653 0
M  V30 66 H -6.997 -2.1796 1.9949 0
M  V30 67 H -4.2571 -3.7938 -2.6983 0
M  V30 68 H -4.3564 -3.8514 -0.8946 0
M  V30 69 H -3.0145 -2.9404 -1.7129 0
M  V30 END ATOM
M  V30 BEGIN BOND
M  V30 1 2 1 2
M  V30 2 1 2 3
M  V30 3 1 2 4
M  V30 4 1 5 6
M  V30 5 1 5 7
M  V30 6 1 5 8
M  V30 7 2 6 9
M  V30 8 1 6 10
M  V30 9 1 7 11
M  V30 10 1 8 12
M  V30 11 1 9 13
M  V30 12 2 10 14
M  V30 13 2 13 15
M  V30 14 1 15 16
M  V30 15 1 16 17
M  V30 16 1 16 18
M  V30 17 2 17 19
M  V30 18 1 17 20
M  V30 19 2 18 21
M  V30 20 1 18 22
M  V30 21 1 19 23
M  V30 22 2 20 24
M  V30 23 1 21 25
M  V30 24 2 22 26
M  V30 25 2 23 27
M  V30 26 2 25 28
M  V30 27 1 27 29
M  V30 28 1 29 30
M  V30 29 1 29 31
M  V30 30 1 30 32
M  V30 31 1 31 33
M  V30 32 1 14 15
M  V30 33 1 24 27
M  V30 34 1 26 28
M  V30 35 1 4 34
M  V30 36 1 4 35
M  V30 37 1 4 36
M  V30 38 1 7 37
M  V30 39 1 7 38
M  V30 40 1 8 39
M  V30 41 1 8 40
M  V30 42 1 9 41
M  V30 43 1 10 42
M  V30 44 1 11 43
M  V30 45 1 11 44
M  V30 46 1 11 45
M  V30 47 1 12 46
M  V30 48 1 12 47
M  V30 49 1 12 48
M  V30 50 1 13 49
M  V30 51 1 14 50
M  V30 52 1 19 51
M  V30 53 1 20 52
M  V30 54 1 21 53
M  V30 55 1 22 54
M  V30 56 1 23 55
M  V30 57 1 24 56
M  V30 58 1 25 57
M  V30 59 1 26 58
M  V30 60 1 28 59
M  V30 61 1 30 60
M  V30 62 1 30 61
M  V30 63 1 31 62
M  V30 64 1 31 63
M  V30 65 1 32 64
M  V30 66 1 32 65
M  V30 67 1 32 66
M  V30 68 1 33 67
M  V30 69 1 33 68
M  V30 70 1 33 69
M  V30 END BOND
M  V30 END CTAB
M  END
>  <Structure No>
2869

>  <LogS>
-0.647988018

>  <MMFF94 Energy>
66.793

$$$$
Compound 2870
Actelion Java MolfileCreator 2.0

  0  0  0  0  0  0              0 V3000
M  V30 BEGIN CTAB
M  V30 COUNTS 19 18 0 0 0
M  V30 BEGIN ATOM
M  V30 1 F 3.1928 -0.5316 -0.8862 0
M  V30 2 C 2.532 -0.0916 0.2476 0
M  V30 3 F 3.4068 0.6727 0.9989 0
M  V30 4 F 2.1422 -1.1861 0.9983 0
M  V30 5 C 1.3103 0.7548 -0.1343 0
M  V30 6 F 1.7319 1.822 -0.909 0
M  V30 7 F 0.7597 1.2687 1.0217 0
M  V30 8 C 0.3054 -0.0551 -0.9402 0
M  V30 9 O 0.6732 -0.4798 -2.027 0
M  V30 10 C -1.1343 -0.3523 -0.5075 0
M  V30 11 F -1.732 -1.0695 -1.5372 0
M  V30 12 C -1.9778 0.9369 -0.3366 0
M  V30 13 C -1.1854 -1.2685 0.7376 0
M  V30 14 F -1.7333 1.8062 -1.3859 0
M  V30 15 F -3.325 0.6183 -0.3479 0
M  V30 16 F -1.7063 1.5874 0.8519 0
M  V30 17 F -0.4487 -2.4164 0.5025 0
M  V30 18 F -0.6829 -0.6447 1.8636 0
M  V30 19 F -2.4934 -1.6409 0.9941 0
M  V30 END ATOM
M  V30 BEGIN BOND
M  V30 1 1 1 2
M  V30 2 1 2 3
M  V30 3 1 2 4
M  V30 4 1 2 5
M  V30 5 1 5 6
M  V30 6 1 5 7
M  V30 7 1 5 8
M  V30 8 2 8 9
M  V30 9 1 8 10
M  V30 10 1 10 11
M  V30 11 1 10 12
M  V30 12 1 10 13
M  V30 13 1 12 14
M  V30 14 1 12 15
M  V30 15 1 12 16
M  V30 16 1 13 17
M  V30 17 1 13 18
M  V30 18 1 13 19
M  V30 END BOND
M  V30 END CTAB
M  END
>  <Structure No>
2870

>  <LogS>
-1.499743427

>  <MMFF94 Energy>
-34.271

$$$$
Compound 2871
Actelion Java MolfileCreator 2.0

  0  0  0  0  0  0              0 V3000
M  V30 BEGIN CTAB
M  V30 COUNTS 4 3 0 0 0
M  V30 BEGIN ATOM
M  V30 1 O 1.249 -0.0832 0.0 0
M  V30 2 N 0.0042 -0.0117 0.0072 0 CHG=1
M  V30 3 O -0.6135 1.2158 0.002 0 CHG=-1
M  V30 4 O -0.7498 -1.1603 0.0203 0 CHG=-1
M  V30 END ATOM
M  V30 BEGIN BOND
M  V30 1 2 1 2
M  V30 2 1 2 3
M  V30 3 1 2 4
M  V30 END BOND
M  V30 END CTAB
M  END
>  <Structure No>
2871

>  <LogS>
-1.36253525

>  <MMFF94 Energy>
6.4146

$$$$
Compound 2872
Actelion Java MolfileCreator 2.0

  0  0  0  0  0  0              0 V3000
M  V30 BEGIN CTAB
M  V30 COUNTS 91 98 0 0 0
M  V30 BEGIN ATOM
M  V30 1 S 5.2567 -2.965 -2.7954 0
M  V30 2 O 3.8739 -3.5346 -2.9565 0
M  V30 3 O 6.0482 -3.8756 -1.9015 0
M  V30 4 O 6.0072 -2.8904 -4.2927 0 CHG=-1
M  V30 5 C 5.1492 -1.3397 -2.0919 0
M  V30 6 C 4.3342 -0.3438 -2.6728 0
M  V30 7 C 5.9049 -1.0365 -0.9559 0
M  V30 8 O 3.7116 -0.5477 -3.9067 0
M  V30 9 C 4.1769 0.9034 -2.034 0
M  V30 10 C 5.849 0.2378 -0.3808 0
M  V30 11 N 3.298 1.8998 -2.5919 0
M  V30 12 C 4.9672 1.2136 -0.9045 0
M  V30 13 C 6.6851 0.5541 0.7003 0
M  V30 14 N 2.0529 1.7285 -2.823 0
M  V30 15 C 4.9117 2.4808 -0.2907 0
M  V30 16 C 6.6809 1.8448 1.2519 0
M  V30 17 C 1.3211 0.5431 -2.4768 0
M  V30 18 C 5.7556 2.7889 0.7837 0
M  V30 19 N 7.6002 2.2043 2.298 0
M  V30 20 C 1.0607 0.188 -1.1329 0
M  V30 21 C 0.8571 -0.2715 -3.5097 0
M  V30 22 C 8.9661 1.7497 2.3657 0
M  V30 23 C 0.3859 -1.0327 -0.8471 0
M  V30 24 C 1.4387 1.0338 -0.0711 0
M  V30 25 C 0.2214 -1.4756 -3.2302 0
M  V30 26 C 9.6235 1.7084 3.6082 0
M  V30 27 C 9.6774 1.3906 1.2045 0
M  V30 28 C -0.0387 -1.8573 -1.9106 0
M  V30 29 C 0.1589 -1.3966 0.4945 0
M  V30 30 C 1.1824 0.6635 1.2487 0
M  V30 31 C 10.9568 1.2883 3.6918 0
M  V30 32 C 11.0065 0.9651 1.2929 0
M  V30 33 N -0.6757 -3.1242 -1.6865 0
M  V30 34 C 0.5487 -0.5486 1.5302 0
M  V30 35 C 11.6453 0.9145 2.5334 0
M  V30 36 N -1.8464 -3.2966 -1.2029 0
M  V30 37 C -2.8018 -2.268 -0.8677 0
M  V30 38 C -3.6525 -2.4376 0.2478 0
M  V30 39 C -2.9826 -1.1516 -1.7047 0
M  V30 40 C -4.6371 -1.454 0.5431 0
M  V30 41 C -3.5515 -3.5799 1.0668 0
M  V30 42 C -3.9301 -0.179 -1.4054 0
M  V30 43 C -4.7634 -0.322 -0.2939 0
M  V30 44 C -5.4719 -1.6326 1.6622 0
M  V30 45 C -4.4064 -3.7536 2.1642 0
M  V30 46 N -5.7806 0.6565 -0.0806 0
M  V30 47 C -5.3539 -2.7709 2.4658 0
M  V30 48 S -4.298 -5.2068 3.1623 0
M  V30 49 N -6.9765 0.4086 -0.4247 0
M  V30 50 O -3.6967 -6.3371 2.3693 0
M  V30 51 O -5.6743 -5.6175 3.61 0
M  V30 52 O -3.3336 -4.9005 4.508 0 CHG=-1
M  V30 53 C -8.073 1.3215 -0.2714 0
M  V30 54 C -8.0318 2.5202 0.4973 0
M  V30 55 C -9.2533 0.9795 -0.9458 0
M  V30 56 S -6.6265 3.025 1.457 0
M  V30 57 C -9.1715 3.3448 0.528 0
M  V30 58 C -10.3736 1.8114 -0.91 0
M  V30 59 O -6.2273 1.9244 2.4031 0
M  V30 60 O -6.9681 4.2409 2.272 0
M  V30 61 O -5.3496 3.4059 0.4317 0 CHG=-1
M  V30 62 C -10.3303 2.996 -0.1684 0
M  V30 63 S -11.8302 1.3582 -1.7927 0
M  V30 64 O -11.4519 0.7123 -3.0959 0
M  V30 65 O -12.6528 2.5823 -2.0845 0
M  V30 66 O -12.7369 0.2818 -0.8777 0 CHG=-1
M  V30 67 H 6.5619 -1.7856 -0.5334 0
M  V30 68 H 3.8148 -1.3903 -4.4582 0
M  V30 69 H 7.3575 -0.196 1.1007 0
M  V30 70 H 4.2446 3.2521 -0.6577 0
M  V30 71 H 5.7161 3.7808 1.2259 0
M  V30 72 H 7.2672 2.8739 3.0332 0
M  V30 73 H 1.0365 0.0168 -4.538 0
M  V30 74 H 1.9189 1.9877 -0.2561 0
M  V30 75 H -0.0829 -2.1146 -4.0503 0
M  V30 76 H 9.0972 1.9868 4.5158 0
M  V30 77 H 9.2097 1.4425 0.2336 0
M  V30 78 H -0.3301 -2.329 0.7481 0
M  V30 79 H 1.4753 1.3195 2.0549 0
M  V30 80 H 11.4615 1.2574 4.6482 0
M  V30 81 H 11.538 0.6673 0.4014 0
M  V30 82 H 0.3534 -0.8308 2.5553 0
M  V30 83 H 12.6752 0.5867 2.5968 0
M  V30 84 H -2.4227 -1.0481 -2.6206 0
M  V30 85 H -2.8139 -4.3431 0.8509 0
M  V30 86 H -4.0455 0.6701 -2.0673 0
M  V30 87 H -6.2286 -0.9013 1.912 0
M  V30 88 H -6.0164 -2.9006 3.3072 0
M  V30 89 H -9.2879 0.0624 -1.5177 0
M  V30 90 H -9.1698 4.2719 1.0912 0
M  V30 91 H -11.1959 3.6416 -0.1137 0
M  V30 END ATOM
M  V30 BEGIN BOND
M  V30 1 2 1 2
M  V30 2 2 1 3
M  V30 3 1 1 4
M  V30 4 1 1 5
M  V30 5 1 5 6
M  V30 6 2 5 7
M  V30 7 1 6 8
M  V30 8 2 6 9
M  V30 9 1 7 10
M  V30 10 1 9 11
M  V30 11 1 9 12
M  V30 12 2 10 13
M  V30 13 2 11 14
M  V30 14 2 12 15
M  V30 15 1 13 16
M  V30 16 1 14 17
M  V30 17 1 15 18
M  V30 18 1 16 19
M  V30 19 1 17 20
M  V30 20 2 17 21
M  V30 21 1 19 22
M  V30 22 1 20 23
M  V30 23 2 20 24
M  V30 24 1 21 25
M  V30 25 2 22 26
M  V30 26 1 22 27
M  V30 27 1 23 28
M  V30 28 2 23 29
M  V30 29 1 24 30
M  V30 30 1 26 31
M  V30 31 2 27 32
M  V30 32 1 28 33
M  V30 33 1 29 34
M  V30 34 2 31 35
M  V30 35 2 33 36
M  V30 36 1 36 37
M  V30 37 1 37 38
M  V30 38 2 37 39
M  V30 39 1 38 40
M  V30 40 2 38 41
M  V30 41 1 39 42
M  V30 42 1 40 43
M  V30 43 2 40 44
M  V30 44 1 41 45
M  V30 45 1 43 46
M  V30 46 1 44 47
M  V30 47 1 45 48
M  V30 48 2 46 49
M  V30 49 2 48 50
M  V30 50 2 48 51
M  V30 51 1 48 52
M  V30 52 1 49 53
M  V30 53 2 53 54
M  V30 54 1 53 55
M  V30 55 1 54 56
M  V30 56 1 54 57
M  V30 57 2 55 58
M  V30 58 2 56 59
M  V30 59 2 56 60
M  V30 60 1 56 61
M  V30 61 2 57 62
M  V30 62 1 58 63
M  V30 63 2 63 64
M  V30 64 2 63 65
M  V30 65 1 63 66
M  V30 66 1 10 12
M  V30 67 2 16 18
M  V30 68 2 25 28
M  V30 69 2 30 34
M  V30 70 1 32 35
M  V30 71 2 42 43
M  V30 72 2 45 47
M  V30 73 1 58 62
M  V30 74 1 7 67
M  V30 75 1 8 68
M  V30 76 1 13 69
M  V30 77 1 15 70
M  V30 78 1 18 71
M  V30 79 1 19 72
M  V30 80 1 21 73
M  V30 81 1 24 74
M  V30 82 1 25 75
M  V30 83 1 26 76
M  V30 84 1 27 77
M  V30 85 1 29 78
M  V30 86 1 30 79
M  V30 87 1 31 80
M  V30 88 1 32 81
M  V30 89 1 34 82
M  V30 90 1 35 83
M  V30 91 1 39 84
M  V30 92 1 41 85
M  V30 93 1 42 86
M  V30 94 1 44 87
M  V30 95 1 47 88
M  V30 96 1 55 89
M  V30 97 1 57 90
M  V30 98 1 62 91
M  V30 END BOND
M  V30 END CTAB
M  END
>  <Structure No>
2872

>  <LogS>
-2.023633484

>  <MMFF94 Energy>
393.44

$$$$
Compound 2873
Actelion Java MolfileCreator 2.0

  0  0  0  0  0  0              0 V3000
M  V30 BEGIN CTAB
M  V30 COUNTS 48 47 0 0 0
M  V30 BEGIN ATOM
M  V30 1 O -3.118 2.3377 0.0778 0
M  V30 2 C -2.8963 1.0999 -0.0338 0
M  V30 3 N -4.0071 0.1742 0.0056 0
M  V30 4 C -1.4764 0.6094 -0.1987 0
M  V30 5 C -3.8153 -1.234 0.3879 0
M  V30 6 C -5.3667 0.662 -0.273 0
M  V30 7 C -0.4811 1.7462 -0.4893 0
M  V30 8 C -3.674 -1.3716 1.9065 0
M  V30 9 C -5.5393 0.938 -1.7647 0
M  V30 10 C 0.9316 1.23 -0.8056 0
M  V30 11 O -4.8297 -0.9141 2.5554 0
M  V30 12 O -6.8483 1.3689 -2.0124 0
M  V30 13 C 1.6396 0.648 0.4272 0
M  V30 14 C 3.0903 0.2732 0.1007 0
M  V30 15 C 3.7886 -0.3429 1.3219 0
M  V30 16 C 5.3034 -0.529 1.1216 0
M  V30 17 C 5.6711 -1.6939 0.1834 0
M  V30 18 C 5.5582 -1.3327 -1.2734 0
M  V30 19 C 6.3812 -0.4504 -1.8478 0
M  V30 20 H -1.4479 -0.1112 -1.0436 0
M  V30 21 H -1.1775 0.0838 0.7304 0
M  V30 22 H -4.6749 -1.852 0.0475 0
M  V30 23 H -2.9209 -1.6581 -0.1126 0
M  V30 24 H -6.1266 -0.0863 0.0424 0
M  V30 25 H -5.5665 1.5865 0.3113 0
M  V30 26 H -0.8405 2.3189 -1.3727 0
M  V30 27 H -0.4396 2.445 0.375 0
M  V30 28 H -2.8076 -0.7762 2.2613 0
M  V30 29 H -3.4804 -2.4361 2.1695 0
M  V30 30 H -5.3368 0.0046 -2.3361 0
M  V30 31 H -4.8205 1.7239 -2.087 0
M  V30 32 H 0.8813 0.464 -1.6103 0
M  V30 33 H 1.529 2.0848 -1.1921 0
M  V30 34 H -5.5241 -1.6114 2.424 0
M  V30 35 H -6.9054 1.5262 -2.9907 0
M  V30 36 H 1.6298 1.399 1.2477 0
M  V30 37 H 1.1041 -0.2622 0.7718 0
M  V30 38 H 3.6408 1.1838 -0.2232 0
M  V30 39 H 3.0863 -0.459 -0.7327 0
M  V30 40 H 3.6458 0.3338 2.1931 0
M  V30 41 H 3.3158 -1.3167 1.5766 0
M  V30 42 H 5.7682 0.4214 0.7803 0
M  V30 43 H 5.7428 -0.7538 2.118 0
M  V30 44 H 5.0224 -2.5707 0.3967 0
M  V30 45 H 6.7183 -2.0069 0.3877 0
M  V30 46 H 4.8112 -1.8323 -1.8831 0
M  V30 47 H 6.2828 -0.2253 -2.9047 0
M  V30 48 H 7.1567 0.0474 -1.274 0
M  V30 END ATOM
M  V30 BEGIN BOND
M  V30 1 2 1 2
M  V30 2 1 2 3
M  V30 3 1 2 4
M  V30 4 1 3 5
M  V30 5 1 3 6
M  V30 6 1 4 7
M  V30 7 1 5 8
M  V30 8 1 6 9
M  V30 9 1 7 10
M  V30 10 1 8 11
M  V30 11 1 9 12
M  V30 12 1 10 13
M  V30 13 1 13 14
M  V30 14 1 14 15
M  V30 15 1 15 16
M  V30 16 1 16 17
M  V30 17 1 17 18
M  V30 18 2 18 19
M  V30 19 1 4 20
M  V30 20 1 4 21
M  V30 21 1 5 22
M  V30 22 1 5 23
M  V30 23 1 6 24
M  V30 24 1 6 25
M  V30 25 1 7 26
M  V30 26 1 7 27
M  V30 27 1 8 28
M  V30 28 1 8 29
M  V30 29 1 9 30
M  V30 30 1 9 31
M  V30 31 1 10 32
M  V30 32 1 10 33
M  V30 33 1 11 34
M  V30 34 1 12 35
M  V30 35 1 13 36
M  V30 36 1 13 37
M  V30 37 1 14 38
M  V30 38 1 14 39
M  V30 39 1 15 40
M  V30 40 1 15 41
M  V30 41 1 16 42
M  V30 42 1 16 43
M  V30 43 1 17 44
M  V30 44 1 17 45
M  V30 45 1 18 46
M  V30 46 1 19 47
M  V30 47 1 19 48
M  V30 END BOND
M  V30 END CTAB
M  END
>  <Structure No>
2873

>  <LogS>
-2.761513586

>  <MMFF94 Energy>
26.274

$$$$
Compound 2874
Actelion Java MolfileCreator 2.0

  0  0  0  0  0  0              0 V3000
M  V30 BEGIN CTAB
M  V30 COUNTS 31 30 0 0 0
M  V30 BEGIN ATOM
M  V30 1 O -3.193 -2.2577 -0.3111 0
M  V30 2 C -3.4258 -1.2568 -1.0386 0
M  V30 3 O -2.8333 -0.0093 -0.7938 0
M  V30 4 C -1.9009 0.3017 0.2551 0 CFG=2
M  V30 5 C -1.5852 1.7839 0.1407 0
M  V30 6 C -0.602 -0.5388 0.0789 0
M  V30 7 C -2.5568 0.0387 1.6282 0
M  V30 8 C -1.1529 2.3344 -0.9998 0
M  V30 9 C 0.509 -0.2033 1.0924 0
M  V30 10 C 1.7801 -0.9418 0.7537 0
M  V30 11 C 2.7153 -0.4887 -0.1121 0
M  V30 12 C 3.9399 -1.3197 -0.3949 0
M  V30 13 C 2.6029 0.8597 -0.7807 0
M  V30 14 H -4.1039 -1.3592 -1.8743 0
M  V30 15 H -1.7124 2.4331 1.0035 0
M  V30 16 H -0.8345 -1.6197 0.1782 0
M  V30 17 H -0.2215 -0.3956 -0.9547 0
M  V30 18 H -1.9494 0.47 2.4525 0
M  V30 19 H -2.6657 -1.0475 1.8236 0
M  V30 20 H -3.565 0.505 1.6634 0
M  V30 21 H -0.9365 3.3969 -1.0415 0
M  V30 22 H -1.0135 1.7366 -1.895 0
M  V30 23 H 0.1861 -0.5303 2.1033 0
M  V30 24 H 0.6974 0.8881 1.1491 0
M  V30 25 H 1.9241 -1.9053 1.2355 0
M  V30 26 H 4.0434 -1.4669 -1.4905 0
M  V30 27 H 4.8397 -0.7918 -0.0154 0
M  V30 28 H 3.889 -2.3207 0.0849 0
M  V30 29 H 1.6795 0.9149 -1.392 0
M  V30 30 H 3.4685 1.0395 -1.4531 0
M  V30 31 H 2.5933 1.6651 -0.0167 0
M  V30 END ATOM
M  V30 BEGIN BOND
M  V30 1 2 1 2
M  V30 2 1 2 3
M  V30 3 1 3 4
M  V30 4 1 4 5
M  V30 5 1 4 6
M  V30 6 1 4 7
M  V30 7 2 5 8
M  V30 8 1 6 9
M  V30 9 1 9 10
M  V30 10 2 10 11
M  V30 11 1 11 12
M  V30 12 1 11 13
M  V30 13 1 2 14
M  V30 14 1 5 15
M  V30 15 1 6 16
M  V30 16 1 6 17
M  V30 17 1 7 18
M  V30 18 1 7 19
M  V30 19 1 7 20
M  V30 20 1 8 21
M  V30 21 1 8 22
M  V30 22 1 9 23
M  V30 23 1 9 24
M  V30 24 1 10 25
M  V30 25 1 12 26
M  V30 26 1 12 27
M  V30 27 1 12 28
M  V30 28 1 13 29
M  V30 29 1 13 30
M  V30 30 1 13 31
M  V30 END BOND
M  V30 BEGIN COLLECTION
M  V30 MDLV30/STEABS ATOMS=(1 4)
M  V30 END COLLECTION
M  V30 END CTAB
M  END
>  <Structure No>
2874

>  <LogS>
-4.040590426

>  <MMFF94 Energy>
19.88

$$$$
Compound 2875
Actelion Java MolfileCreator 2.0

  0  0  0  0  0  0              0 V3000
M  V30 BEGIN CTAB
M  V30 COUNTS 25 26 0 0 0
M  V30 BEGIN ATOM
M  V30 1 O -4.475 2.2356 -0.7181 0
M  V30 2 C -4.0132 1.1504 -0.2764 0
M  V30 3 N -4.8608 0.1365 0.0375 0
M  V30 4 N -2.6704 0.9966 -0.1074 0
M  V30 5 C -4.3915 -1.0381 0.5293 0
M  V30 6 C -2.1545 -0.1769 0.3639 0
M  V30 7 C -3.0223 -1.2172 0.7124 0
M  V30 8 N -0.7406 -0.3402 0.562 0
M  V30 9 C 0.2535 0.1906 -0.3338 0
M  V30 10 O -0.1024 0.7409 -1.4118 0
M  V30 11 C 1.7006 0.097 -0.0217 0
M  V30 12 C 2.2215 -0.9644 0.7438 0
M  V30 13 C 2.585 1.0726 -0.5197 0
M  V30 14 C 3.591 -1.0322 1.0196 0
M  V30 15 C 3.9529 0.9999 -0.2396 0
M  V30 16 C 4.4551 -0.0498 0.5317 0
M  V30 17 H -2.0412 1.8044 -0.3131 0
M  V30 18 H -5.0825 -1.8321 0.7794 0
M  V30 19 H -2.642 -2.1516 1.1058 0
M  V30 20 H -0.441 -0.9191 1.3768 0
M  V30 21 H 1.5859 -1.7599 1.1067 0
M  V30 22 H 2.216 1.8985 -1.1155 0
M  V30 23 H 3.9838 -1.8527 1.6063 0
M  V30 24 H 4.6238 1.7589 -0.6211 0
M  V30 25 H 5.5146 -0.1056 0.7461 0
M  V30 END ATOM
M  V30 BEGIN BOND
M  V30 1 2 1 2
M  V30 2 1 2 3
M  V30 3 1 2 4
M  V30 4 2 3 5
M  V30 5 1 4 6
M  V30 6 1 5 7
M  V30 7 1 6 8
M  V30 8 1 8 9
M  V30 9 2 9 10
M  V30 10 1 9 11
M  V30 11 2 11 12
M  V30 12 1 11 13
M  V30 13 1 12 14
M  V30 14 2 13 15
M  V30 15 2 14 16
M  V30 16 2 6 7
M  V30 17 1 15 16
M  V30 18 1 4 17
M  V30 19 1 5 18
M  V30 20 1 7 19
M  V30 21 1 8 20
M  V30 22 1 12 21
M  V30 23 1 13 22
M  V30 24 1 14 23
M  V30 25 1 15 24
M  V30 26 1 16 25
M  V30 END BOND
M  V30 END CTAB
M  END
>  <Structure No>
2875

>  <LogS>
-5.159680215

>  <MMFF94 Energy>
-65.547

$$$$
Compound 2876
Actelion Java MolfileCreator 2.0

  0  0  0  0  0  0              0 V3000
M  V30 BEGIN CTAB
M  V30 COUNTS 51 51 0 0 0
M  V30 BEGIN ATOM
M  V30 1 S -6.6682 -1.4432 1.4432 0
M  V30 2 O -7.7725 -0.9274 2.3228 0
M  V30 3 O -5.6578 -2.1392 2.309 0
M  V30 4 O -7.3268 -2.5359 0.3503 0 CHG=-1
M  V30 5 C -5.9106 -0.1046 0.5592 0
M  V30 6 C -4.8118 -0.2957 -0.3235 0
M  V30 7 C -6.463 1.181 0.6972 0
M  V30 8 C -4.3258 0.8039 -1.056 0
M  V30 9 C -4.1233 -1.6336 -0.5037 0
M  V30 10 C -5.9516 2.2597 -0.0242 0
M  V30 11 C -4.8888 2.0704 -0.9033 0
M  V30 12 C -2.9527 -1.8402 0.4779 0
M  V30 13 C -1.748 -0.9057 0.2646 0
M  V30 14 C -0.98 -1.2048 -1.0345 0
M  V30 15 C 0.2153 -0.2612 -1.2426 0
M  V30 16 C 1.3848 -0.5645 -0.2939 0
M  V30 17 C 2.6034 0.3028 -0.6309 0
M  V30 18 C 3.7684 0.0112 0.3224 0
M  V30 19 C 4.987 0.8787 -0.0148 0
M  V30 20 C 6.1559 0.5774 0.9347 0
M  V30 21 C 7.3548 1.5114 0.7101 0
M  V30 22 C 8.0832 1.233 -0.6043 0
M  V30 23 H -7.3015 1.3544 1.3586 0
M  V30 24 H -3.4993 0.6822 -1.7448 0
M  V30 25 H -3.7733 -1.744 -1.5507 0
M  V30 26 H -4.8464 -2.4611 -0.3662 0
M  V30 27 H -6.3879 3.2434 0.0915 0
M  V30 28 H -4.4988 2.9074 -1.468 0
M  V30 29 H -2.6084 -2.8947 0.4052 0
M  V30 30 H -3.3177 -1.6936 1.5153 0
M  V30 31 H -1.0655 -1.0542 1.1272 0
M  V30 32 H -2.0717 0.155 0.2886 0
M  V30 33 H -1.6574 -1.0724 -1.9026 0
M  V30 34 H -0.6326 -2.261 -1.0366 0
M  V30 35 H 0.5663 -0.3811 -2.2912 0
M  V30 36 H -0.1113 0.7944 -1.1168 0
M  V30 37 H 1.6638 -1.6376 -0.381 0
M  V30 38 H 1.0803 -0.3606 0.7544 0
M  V30 39 H 2.924 0.0973 -1.676 0
M  V30 40 H 2.3232 1.3766 -0.5519 0
M  V30 41 H 4.0484 -1.0623 0.2435 0
M  V30 42 H 3.4479 0.2171 1.3676 0
M  V30 43 H 4.708 1.952 0.0708 0
M  V30 44 H 5.2946 0.674 -1.0624 0
M  V30 45 H 6.4762 -0.4811 0.8174 0
M  V30 46 H 5.8104 0.7104 1.9834 0
M  V30 47 H 7.0239 2.5724 0.7355 0
M  V30 48 H 8.0747 1.3644 1.5442 0
M  V30 49 H 7.4437 1.4962 -1.4719 0
M  V30 50 H 8.3741 0.1631 -0.6689 0
M  V30 51 H 9.0033 1.8525 -0.6539 0
M  V30 END ATOM
M  V30 BEGIN BOND
M  V30 1 2 1 2
M  V30 2 2 1 3
M  V30 3 1 1 4
M  V30 4 1 1 5
M  V30 5 2 5 6
M  V30 6 1 5 7
M  V30 7 1 6 8
M  V30 8 1 6 9
M  V30 9 2 7 10
M  V30 10 2 8 11
M  V30 11 1 9 12
M  V30 12 1 12 13
M  V30 13 1 13 14
M  V30 14 1 14 15
M  V30 15 1 15 16
M  V30 16 1 16 17
M  V30 17 1 17 18
M  V30 18 1 18 19
M  V30 19 1 19 20
M  V30 20 1 20 21
M  V30 21 1 21 22
M  V30 22 1 10 11
M  V30 23 1 7 23
M  V30 24 1 8 24
M  V30 25 1 9 25
M  V30 26 1 9 26
M  V30 27 1 10 27
M  V30 28 1 11 28
M  V30 29 1 12 29
M  V30 30 1 12 30
M  V30 31 1 13 31
M  V30 32 1 13 32
M  V30 33 1 14 33
M  V30 34 1 14 34
M  V30 35 1 15 35
M  V30 36 1 15 36
M  V30 37 1 16 37
M  V30 38 1 16 38
M  V30 39 1 17 39
M  V30 40 1 17 40
M  V30 41 1 18 41
M  V30 42 1 18 42
M  V30 43 1 19 43
M  V30 44 1 19 44
M  V30 45 1 20 45
M  V30 46 1 20 46
M  V30 47 1 21 47
M  V30 48 1 21 48
M  V30 49 1 22 49
M  V30 50 1 22 50
M  V30 51 1 22 51
M  V30 END BOND
M  V30 END CTAB
M  END
>  <Structure No>
2876

>  <LogS>
0.213791577

>  <MMFF94 Energy>
53.739

$$$$
Compound 2877
Actelion Java MolfileCreator 2.0

  0  0  0  0  0  0              0 V3000
M  V30 BEGIN CTAB
M  V30 COUNTS 40 39 0 0 0
M  V30 BEGIN ATOM
M  V30 1 O 5.6967 -0.8008 1.2014 0
M  V30 2 C 5.9675 -0.0305 0.2387 0
M  V30 3 O 5.0352 0.918 -0.1961 0
M  V30 4 C 7.2706 -0.1072 -0.441 0
M  V30 5 C 3.7261 1.0455 0.3563 0
M  V30 6 C 8.2144 -0.9859 -0.0843 0
M  V30 7 C 2.8117 -0.0664 -0.1613 0
M  V30 8 C 9.5136 -1.0553 -0.7705 0
M  V30 9 O 1.5224 0.0587 0.4091 0
M  V30 10 O 10.3689 -1.9 -0.3978 0
M  V30 11 O 9.813 -0.2013 -1.8263 0 CHG=-1
M  V30 12 C 0.6463 0.7173 -0.4827 0
M  V30 13 C -0.689 0.9623 0.208 0
M  V30 14 O -1.2634 -0.2763 0.5722 0
M  V30 15 C -2.5635 -0.0858 1.0985 0
M  V30 16 C -3.611 -0.3262 0.0153 0
M  V30 17 O -4.9138 -0.2189 0.5805 0
M  V30 18 C -6.0788 -0.3918 -0.1716 0
M  V30 19 O -6.0101 -0.655 -1.4044 0
M  V30 20 C -7.3829 -0.2614 0.4983 0
M  V30 21 C -8.5425 -0.4124 -0.1536 0
M  V30 22 C -9.8459 -0.2817 0.5178 0
M  V30 23 O -9.922 -0.0195 1.7481 0
M  V30 24 O -11.0122 -0.4501 -0.2168 0 CHG=-1
M  V30 25 H 7.4512 0.5812 -1.2576 0
M  V30 26 H 3.3134 2.0294 0.0505 0
M  V30 27 H 3.7724 1.0246 1.4672 0
M  V30 28 H 8.0343 -1.6754 0.7322 0
M  V30 29 H 3.2268 -1.046 0.155 0
M  V30 30 H 2.8121 -0.0713 -1.2777 0
M  V30 31 H 0.4678 0.0895 -1.3853 0
M  V30 32 H 1.0607 1.7024 -0.7966 0
M  V30 33 H -0.5103 1.5878 1.1123 0
M  V30 34 H -1.3482 1.5175 -0.4977 0
M  V30 35 H -2.718 0.9166 1.5652 0
M  V30 36 H -2.7177 -0.8346 1.9045 0
M  V30 37 H -3.4947 0.4266 -0.7935 0
M  V30 38 H -3.4731 -1.3434 -0.4124 0
M  V30 39 H -7.382 -0.0348 1.5578 0
M  V30 40 H -8.5441 -0.6389 -1.2129 0
M  V30 END ATOM
M  V30 BEGIN BOND
M  V30 1 2 1 2
M  V30 2 1 2 3
M  V30 3 1 2 4
M  V30 4 1 3 5
M  V30 5 2 4 6
M  V30 6 1 5 7
M  V30 7 1 6 8
M  V30 8 1 7 9
M  V30 9 2 8 10
M  V30 10 1 8 11
M  V30 11 1 9 12
M  V30 12 1 12 13
M  V30 13 1 13 14
M  V30 14 1 14 15
M  V30 15 1 15 16
M  V30 16 1 16 17
M  V30 17 1 17 18
M  V30 18 2 18 19
M  V30 19 1 18 20
M  V30 20 2 20 21
M  V30 21 1 21 22
M  V30 22 2 22 23
M  V30 23 1 22 24
M  V30 24 1 4 25
M  V30 25 1 5 26
M  V30 26 1 5 27
M  V30 27 1 6 28
M  V30 28 1 7 29
M  V30 29 1 7 30
M  V30 30 1 12 31
M  V30 31 1 12 32
M  V30 32 1 13 33
M  V30 33 1 13 34
M  V30 34 1 15 35
M  V30 35 1 15 36
M  V30 36 1 16 37
M  V30 37 1 16 38
M  V30 38 1 20 39
M  V30 39 1 21 40
M  V30 END BOND
M  V30 END CTAB
M  END
>  <Structure No>
2877

>  <LogS>
0.159532562

>  <MMFF94 Energy>
23.171

$$$$
Compound 2878
Actelion Java MolfileCreator 2.0

  0  0  0  0  0  0              0 V3000
M  V30 BEGIN CTAB
M  V30 COUNTS 80 84 0 0 0
M  V30 BEGIN ATOM
M  V30 1 S 5.7468 2.2957 2.3778 0
M  V30 2 O 5.2014 3.4826 3.1256 0
M  V30 3 O 5.5743 1.0626 3.223 0
M  V30 4 O 4.9547 2.1275 0.8889 0
M  V30 5 C 7.4603 2.5382 2.0574 0
M  V30 6 C 3.6274 1.7242 1.127 0
M  V30 7 C 7.9767 3.8339 1.9028 0
M  V30 8 C 8.3105 1.4335 1.9032 0
M  V30 9 C 2.8604 1.6543 -0.1967 0
M  V30 10 C 9.3339 4.0221 1.6142 0
M  V30 11 C 9.666 1.6243 1.6118 0
M  V30 12 C 3.1977 0.4075 -1.047 0 CFG=1
M  V30 13 C 10.1769 2.917 1.467 0
M  V30 14 N 2.2471 0.2978 -2.1596 0
M  V30 15 C 4.6261 0.4558 -1.6031 0
M  V30 16 C 0.9369 -0.243 -1.9392 0
M  V30 17 C 0.7148 -1.6359 -1.7733 0
M  V30 18 C -0.1308 0.6502 -1.8366 0
M  V30 19 C 1.7825 -2.6405 -2.0593 0
M  V30 20 C -0.572 -2.089 -1.3808 0
M  V30 21 C -1.4059 0.1966 -1.5317 0
M  V30 22 O 2.9174 -2.2686 -2.4648 0
M  V30 23 C 1.5037 -4.0908 -1.9324 0
M  V30 24 C -0.7476 -3.5245 -1.018 0
M  V30 25 C -1.6472 -1.1644 -1.2939 0
M  V30 26 C 0.2659 -4.5225 -1.4209 0
M  V30 27 C 2.464 -5.0462 -2.3204 0
M  V30 28 O -1.7208 -3.8903 -0.3052 0
M  V30 29 N -2.9932 -1.61 -1.0421 0
M  V30 30 C 0.0083 -5.9019 -1.2959 0
M  V30 31 C 2.1925 -6.413 -2.2022 0
M  V30 32 C -3.9276 -0.9028 -0.1529 0 CFG=1
M  V30 33 C 0.9684 -6.839 -1.688 0
M  V30 34 C -5.3328 -1.543 -0.253 0
M  V30 35 C -3.3905 -0.9291 1.2851 0
M  V30 36 C -6.4436 -0.6943 0.3735 0
M  V30 37 O -6.3657 -0.7508 1.7773 0
M  V30 38 S -7.7148 0.0389 2.4325 0
M  V30 39 O -8.9538 -0.77 2.1642 0
M  V30 40 O -7.5354 0.1437 3.9227 0
M  V30 41 C -7.8912 1.6653 1.7739 0
M  V30 42 C -7.048 2.6939 2.2171 0
M  V30 43 C -8.8459 1.9321 0.781 0
M  V30 44 C -7.161 3.9786 1.6754 0
M  V30 45 C -8.9568 3.2181 0.2415 0
M  V30 46 C -8.115 4.2408 0.6874 0
M  V30 47 H 3.11 2.4654 1.7766 0
M  V30 48 H 3.5969 0.7303 1.6262 0
M  V30 49 H 7.3337 4.6984 2.0051 0
M  V30 50 H 7.9269 0.4273 2.0038 0
M  V30 51 H 3.0403 2.5834 -0.7818 0
M  V30 52 H 1.7761 1.6295 0.0525 0
M  V30 53 H 9.7309 5.0234 1.502 0
M  V30 54 H 10.3175 0.7689 1.4915 0
M  V30 55 H 3.1096 -0.4973 -0.4056 0
M  V30 56 H 11.2252 3.0635 1.2393 0
M  V30 57 H 2.3591 0.9639 -2.959 0
M  V30 58 H 4.7791 -0.3632 -2.3368 0
M  V30 59 H 5.3663 0.3136 -0.7903 0
M  V30 60 H 4.8203 1.4252 -2.1094 0
M  V30 61 H 0.0346 1.7114 -1.9797 0
M  V30 62 H -2.2097 0.918 -1.5004 0
M  V30 63 H 3.4231 -4.7401 -2.7207 0
M  V30 64 H -3.3144 -2.4846 -1.5219 0
M  V30 65 H -0.9372 -6.2547 -0.9037 0
M  V30 66 H 2.9338 -7.1398 -2.5096 0
M  V30 67 H -4.0147 0.1535 -0.4802 0
M  V30 68 H 0.7626 -7.8977 -1.5908 0
M  V30 69 H -5.5818 -1.6639 -1.3299 0
M  V30 70 H -5.3325 -2.5591 0.1974 0
M  V30 71 H -2.32 -0.6394 1.3054 0
M  V30 72 H -3.4856 -1.9437 1.7231 0
M  V30 73 H -3.9333 -0.2042 1.9218 0
M  V30 74 H -7.4178 -1.1033 0.0203 0
M  V30 75 H -6.3409 0.3511 0.0137 0
M  V30 76 H -6.3021 2.4998 2.9761 0
M  V30 77 H -9.4947 1.1455 0.417 0
M  V30 78 H -6.5064 4.7688 2.0197 0
M  V30 79 H -9.6922 3.4187 -0.5246 0
M  V30 80 H -8.1987 5.2351 0.2659 0
M  V30 END ATOM
M  V30 BEGIN BOND
M  V30 1 2 1 2
M  V30 2 2 1 3
M  V30 3 1 1 4
M  V30 4 1 1 5
M  V30 5 1 4 6
M  V30 6 2 5 7
M  V30 7 1 5 8
M  V30 8 1 6 9
M  V30 9 1 7 10
M  V30 10 2 8 11
M  V30 11 1 9 12
M  V30 12 2 10 13
M  V30 13 1 12 14
M  V30 14 1 12 15
M  V30 15 1 14 16
M  V30 16 2 16 17
M  V30 17 1 16 18
M  V30 18 1 17 19
M  V30 19 1 17 20
M  V30 20 2 18 21
M  V30 21 2 19 22
M  V30 22 1 19 23
M  V30 23 1 20 24
M  V30 24 2 20 25
M  V30 25 2 23 26
M  V30 26 1 23 27
M  V30 27 2 24 28
M  V30 28 1 25 29
M  V30 29 1 26 30
M  V30 30 2 27 31
M  V30 31 1 29 32
M  V30 32 2 30 33
M  V30 33 1 32 34
M  V30 34 1 32 35
M  V30 35 1 34 36
M  V30 36 1 36 37
M  V30 37 1 37 38
M  V30 38 2 38 39
M  V30 39 2 38 40
M  V30 40 1 38 41
M  V30 41 2 41 42
M  V30 42 1 41 43
M  V30 43 1 42 44
M  V30 44 2 43 45
M  V30 45 2 44 46
M  V30 46 1 11 13
M  V30 47 1 21 25
M  V30 48 1 24 26
M  V30 49 1 31 33
M  V30 50 1 45 46
M  V30 51 1 6 47
M  V30 52 1 6 48
M  V30 53 1 7 49
M  V30 54 1 8 50
M  V30 55 1 9 51
M  V30 56 1 9 52
M  V30 57 1 10 53
M  V30 58 1 11 54
M  V30 59 1 12 55
M  V30 60 1 13 56
M  V30 61 1 14 57
M  V30 62 1 15 58
M  V30 63 1 15 59
M  V30 64 1 15 60
M  V30 65 1 18 61
M  V30 66 1 21 62
M  V30 67 1 27 63
M  V30 68 1 29 64
M  V30 69 1 30 65
M  V30 70 1 31 66
M  V30 71 1 32 67
M  V30 72 1 33 68
M  V30 73 1 34 69
M  V30 74 1 34 70
M  V30 75 1 35 71
M  V30 76 1 35 72
M  V30 77 1 35 73
M  V30 78 1 36 74
M  V30 79 1 36 75
M  V30 80 1 42 76
M  V30 81 1 43 77
M  V30 82 1 44 78
M  V30 83 1 45 79
M  V30 84 1 46 80
M  V30 END BOND
M  V30 BEGIN COLLECTION
M  V30 MDLV30/STEABS ATOMS=(2 12 32)
M  V30 END COLLECTION
M  V30 END CTAB
M  END
>  <Structure No>
2878

>  <LogS>
-0.437646111

>  <MMFF94 Energy>
126.48

$$$$
Compound 2879
Actelion Java MolfileCreator 2.0

  0  0  0  0  0  0              0 V3000
M  V30 BEGIN CTAB
M  V30 COUNTS 44 47 0 0 0
M  V30 BEGIN ATOM
M  V30 1 S 3.5596 2.2025 2.8809 0
M  V30 2 O 2.7847 2.215 4.1691 0
M  V30 3 O 3.4 3.5378 2.21 0
M  V30 4 O 5.1798 1.9329 3.2346 0 CHG=-1
M  V30 5 C 2.9645 0.9221 1.8072 0
M  V30 6 C 3.5299 0.6795 0.5293 0
M  V30 7 C 1.9045 0.1223 2.2529 0
M  V30 8 C 2.9947 -0.3571 -0.2875 0
M  V30 9 C 4.6106 1.4434 0.0359 0
M  V30 10 C 1.3867 -0.9016 1.4624 0
M  V30 11 C 1.9018 -1.1246 0.1709 0
M  V30 12 C 3.5495 -0.5897 -1.5626 0
M  V30 13 C 5.1452 1.1908 -1.2276 0
M  V30 14 O 0.3709 -1.6974 1.9952 0
M  V30 15 N 1.3313 -2.1392 -0.6747 0
M  V30 16 C 4.6168 0.1791 -2.0238 0
M  V30 17 N 0.1203 -2.148 -1.0868 0
M  V30 18 C -0.8358 -1.0938 -0.8733 0
M  V30 19 C -2.1461 -1.4098 -0.4545 0
M  V30 20 C -0.491 0.2314 -1.1529 0
M  V30 21 O -2.4766 -2.7492 -0.2521 0
M  V30 22 C -3.1055 -0.3729 -0.2436 0
M  V30 23 C -1.4124 1.2519 -0.9723 0
M  V30 24 C -4.444 -0.5964 0.2262 0
M  V30 25 C -2.7065 0.9703 -0.5196 0
M  V30 26 S -5.1004 -2.1879 0.6733 0
M  V30 27 C -5.3129 0.4998 0.3736 0
M  V30 28 C -3.6048 2.0316 -0.352 0
M  V30 29 O -5.1461 -3.0806 -0.5348 0
M  V30 30 O -6.4974 -2.0499 1.2117 0
M  V30 31 O -4.1507 -2.8822 1.8739 0 CHG=-1
M  V30 32 C -4.8985 1.7946 0.0874 0
M  V30 33 H 1.477 0.2804 3.2345 0
M  V30 34 H 5.0552 2.2411 0.6122 0
M  V30 35 H 3.1623 -1.3655 -2.2109 0
M  V30 36 H 5.9735 1.7852 -1.5918 0
M  V30 37 H 0.008 -2.514 1.5205 0
M  V30 38 H 5.035 -0.0096 -3.0042 0
M  V30 39 H 0.4918 0.4753 -1.5336 0
M  V30 40 H -1.823 -3.5105 -0.3872 0
M  V30 41 H -1.1125 2.2695 -1.1951 0
M  V30 42 H -6.3284 0.361 0.7198 0
M  V30 43 H -3.3049 3.0514 -0.5648 0
M  V30 44 H -5.5861 2.6216 0.2115 0
M  V30 END ATOM
M  V30 BEGIN BOND
M  V30 1 2 1 2
M  V30 2 2 1 3
M  V30 3 1 1 4
M  V30 4 1 1 5
M  V30 5 1 5 6
M  V30 6 2 5 7
M  V30 7 1 6 8
M  V30 8 2 6 9
M  V30 9 1 7 10
M  V30 10 1 8 11
M  V30 11 2 8 12
M  V30 12 1 9 13
M  V30 13 1 10 14
M  V30 14 1 11 15
M  V30 15 1 12 16
M  V30 16 2 15 17
M  V30 17 1 17 18
M  V30 18 2 18 19
M  V30 19 1 18 20
M  V30 20 1 19 21
M  V30 21 1 19 22
M  V30 22 2 20 23
M  V30 23 2 22 24
M  V30 24 1 22 25
M  V30 25 1 24 26
M  V30 26 1 24 27
M  V30 27 2 25 28
M  V30 28 2 26 29
M  V30 29 2 26 30
M  V30 30 1 26 31
M  V30 31 2 27 32
M  V30 32 2 10 11
M  V30 33 2 13 16
M  V30 34 1 23 25
M  V30 35 1 28 32
M  V30 36 1 7 33
M  V30 37 1 9 34
M  V30 38 1 12 35
M  V30 39 1 13 36
M  V30 40 1 14 37
M  V30 41 1 16 38
M  V30 42 1 20 39
M  V30 43 1 21 40
M  V30 44 1 23 41
M  V30 45 1 27 42
M  V30 46 1 28 43
M  V30 47 1 32 44
M  V30 END BOND
M  V30 END CTAB
M  END
>  <Structure No>
2879

>  <LogS>
-1.171951452

>  <MMFF94 Energy>
173.66

$$$$
Compound 2880
Actelion Java MolfileCreator 2.0

  0  0  0  0  0  0              0 V3000
M  V30 BEGIN CTAB
M  V30 COUNTS 17 18 0 0 0
M  V30 BEGIN ATOM
M  V30 1 F -1.5414 -2.5158 -0.2432 0
M  V30 2 C -1.2691 -1.1954 -0.0991 0
M  V30 3 C 0.0458 -0.7301 -0.0959 0
M  V30 4 C -2.3071 -0.2606 0.0512 0
M  V30 5 N 1.2174 -1.5123 -0.2334 0
M  V30 6 C 0.3363 0.611 0.0499 0
M  V30 7 C -2.0133 1.1098 0.2004 0
M  V30 8 C 2.2852 -0.5731 -0.165 0
M  V30 9 C -0.6804 1.555 0.2005 0
M  V30 10 C 1.8136 0.839 0.0189 0
M  V30 11 O 3.4956 -0.9078 -0.2516 0
M  V30 12 H -3.337 -0.5932 0.0524 0
M  V30 13 H 1.2854 -2.5468 -0.3572 0
M  V30 14 H -2.8187 1.8236 0.3157 0
M  V30 15 H -0.4484 2.6059 0.3147 0
M  V30 16 H 2.1732 1.2573 0.9826 0
M  V30 17 H 2.1016 1.4719 -0.8466 0
M  V30 END ATOM
M  V30 BEGIN BOND
M  V30 1 1 1 2
M  V30 2 2 2 3
M  V30 3 1 2 4
M  V30 4 1 3 5
M  V30 5 1 3 6
M  V30 6 2 4 7
M  V30 7 1 5 8
M  V30 8 2 6 9
M  V30 9 1 6 10
M  V30 10 2 8 11
M  V30 11 1 7 9
M  V30 12 1 8 10
M  V30 13 1 4 12
M  V30 14 1 5 13
M  V30 15 1 7 14
M  V30 16 1 9 15
M  V30 17 1 10 16
M  V30 18 1 10 17
M  V30 END BOND
M  V30 END CTAB
M  END
>  <Structure No>
2880

>  <LogS>
-2.225136908

>  <MMFF94 Energy>
21.688

$$$$
Compound 2881
Actelion Java MolfileCreator 2.0

  0  0  0  0  0  0              0 V3000
M  V30 BEGIN CTAB
M  V30 COUNTS 57 56 0 0 0
M  V30 BEGIN ATOM
M  V30 1 O 1.39 -0.4631 2.0855 0
M  V30 2 C 2.6357 -1.1232 2.2186 0
M  V30 3 C 0.3482 -1.3981 1.8975 0
M  V30 4 C 3.3629 -1.2018 0.8701 0
M  V30 5 C -0.939 -0.6461 1.5624 0
M  V30 6 C 3.6108 0.1954 0.2705 0
M  V30 7 C -2.1039 -1.619 1.3255 0
M  V30 8 N 4.3589 0.1265 -1.0008 0 CHG=1
M  V30 9 C -3.4465 -0.9004 1.116 0
M  V30 10 C 5.8217 0.0592 -0.8068 0
M  V30 11 C -3.5272 -0.1831 -0.243 0
M  V30 12 C 6.4457 1.4596 -0.648 0
M  V30 13 C -4.8882 0.4948 -0.4743 0
M  V30 14 C 7.9375 1.4027 -0.2781 0
M  V30 15 C -6.0031 -0.5169 -0.8089 0
M  V30 16 N 8.7581 0.8782 -1.3716 0 CHG=1
M  V30 17 C -7.3621 0.1247 -1.1776 0
M  V30 18 C -7.9445 0.9642 -0.0318 0
M  V30 19 C -7.296 0.9407 -2.4763 0
M  V30 20 H 2.5495 -2.1445 2.6601 0
M  V30 21 H 3.2618 -0.5383 2.9257 0
M  V30 22 H 0.5795 -2.0945 1.0593 0
M  V30 23 H 0.1917 -1.9829 2.8323 0
M  V30 24 H 2.763 -1.8105 0.1606 0
M  V30 25 H 4.3298 -1.7239 1.027 0
M  V30 26 H -0.7614 -0.038 0.6506 0
M  V30 27 H -1.1873 0.0387 2.4025 0
M  V30 28 H 2.624 0.6732 0.0793 0
M  V30 29 H 4.1397 0.8332 1.0118 0
M  V30 30 H -2.2047 -2.2786 2.2153 0
M  V30 31 H -1.8844 -2.2678 0.4496 0
M  V30 32 H 4.1196 0.9643 -1.5817 0
M  V30 33 H 4.049 -0.7118 -1.5463 0
M  V30 34 H -3.6172 -0.1734 1.9402 0
M  V30 35 H -4.2457 -1.6685 1.1742 0
M  V30 36 H 6.2746 -0.4281 -1.6977 0
M  V30 37 H 6.0788 -0.5707 0.0723 0
M  V30 38 H -2.7504 0.6095 -0.2798 0
M  V30 39 H -3.3165 -0.8991 -1.0676 0
M  V30 40 H 6.3167 2.0365 -1.5892 0
M  V30 41 H 5.9175 2.0133 0.1559 0
M  V30 42 H -5.1599 1.0889 0.4242 0
M  V30 43 H -4.7668 1.1993 -1.3229 0
M  V30 44 H 8.2773 2.4337 -0.0331 0
M  V30 45 H 8.0802 0.7798 0.6327 0
M  V30 46 H -6.1669 -1.1868 0.061 0
M  V30 47 H -5.6732 -1.1583 -1.6554 0
M  V30 48 H 9.7674 0.999 -1.126 0
M  V30 49 H 8.5636 1.4001 -2.257 0
M  V30 50 H 8.573 -0.1412 -1.5086 0
M  V30 51 H -8.0707 -0.7146 -1.3588 0
M  V30 52 H -8.9912 1.2519 -0.2696 0
M  V30 53 H -7.3554 1.8926 0.1245 0
M  V30 54 H -7.9536 0.3765 0.9108 0
M  V30 55 H -6.7194 1.8793 -2.3346 0
M  V30 56 H -8.3231 1.2131 -2.801 0
M  V30 57 H -6.8247 0.3427 -3.2857 0
M  V30 END ATOM
M  V30 BEGIN BOND
M  V30 1 1 1 2
M  V30 2 1 1 3
M  V30 3 1 2 4
M  V30 4 1 3 5
M  V30 5 1 4 6
M  V30 6 1 5 7
M  V30 7 1 6 8
M  V30 8 1 7 9
M  V30 9 1 8 10
M  V30 10 1 9 11
M  V30 11 1 10 12
M  V30 12 1 11 13
M  V30 13 1 12 14
M  V30 14 1 13 15
M  V30 15 1 14 16
M  V30 16 1 15 17
M  V30 17 1 17 18
M  V30 18 1 17 19
M  V30 19 1 2 20
M  V30 20 1 2 21
M  V30 21 1 3 22
M  V30 22 1 3 23
M  V30 23 1 4 24
M  V30 24 1 4 25
M  V30 25 1 5 26
M  V30 26 1 5 27
M  V30 27 1 6 28
M  V30 28 1 6 29
M  V30 29 1 7 30
M  V30 30 1 7 31
M  V30 31 1 8 32
M  V30 32 1 8 33
M  V30 33 1 9 34
M  V30 34 1 9 35
M  V30 35 1 10 36
M  V30 36 1 10 37
M  V30 37 1 11 38
M  V30 38 1 11 39
M  V30 39 1 12 40
M  V30 40 1 12 41
M  V30 41 1 13 42
M  V30 42 1 13 43
M  V30 43 1 14 44
M  V30 44 1 14 45
M  V30 45 1 15 46
M  V30 46 1 15 47
M  V30 47 1 16 48
M  V30 48 1 16 49
M  V30 49 1 16 50
M  V30 50 1 17 51
M  V30 51 1 18 52
M  V30 52 1 18 53
M  V30 53 1 18 54
M  V30 54 1 19 55
M  V30 55 1 19 56
M  V30 56 1 19 57
M  V30 END BOND
M  V30 END CTAB
M  END
>  <Structure No>
2881

>  <LogS>
-3.204880928

>  <MMFF94 Energy>
67.298

$$$$
Compound 2882
Actelion Java MolfileCreator 2.0

  0  0  0  0  0  0              0 V3000
M  V30 BEGIN CTAB
M  V30 COUNTS 81 86 0 0 0
M  V30 BEGIN ATOM
M  V30 1 S -10.7048 1.9024 0.496 0
M  V30 2 O -10.5 3.3728 0.7226 0
M  V30 3 O -11.2565 1.3135 1.7628 0
M  V30 4 O -11.8025 1.6951 -0.7571 0 CHG=-1
M  V30 5 C -9.1528 1.1445 0.079 0
M  V30 6 C -8.7535 -0.2113 0.5708 0
M  V30 7 C -8.2314 1.9247 -0.5039 0
M  V30 8 N -9.5968 -1.1708 0.8324 0
M  V30 9 C -7.3137 -0.4928 0.7386 0
M  V30 10 C -6.797 1.5596 -0.5608 0
M  V30 11 N -10.9585 -1.1573 0.4942 0
M  V30 12 O -6.9546 -1.4625 1.462 0
M  V30 13 C -6.3183 0.378 0.0527 0
M  V30 14 C -5.9001 2.4688 -1.1312 0
M  V30 15 C -11.9347 -1.8262 1.3065 0
M  V30 16 C -4.9189 0.1119 0.0526 0
M  V30 17 C -4.524 2.2481 -1.0659 0
M  V30 18 C -13.289 -1.7887 0.9365 0
M  V30 19 C -11.5646 -2.4818 2.4957 0
M  V30 20 N -4.3936 -1.1047 0.6026 0
M  V30 21 C -4.0272 1.0753 -0.4714 0
M  V30 22 S -3.4206 3.4429 -1.7557 0
M  V30 23 C -14.2581 -2.3915 1.7441 0
M  V30 24 C -12.5381 -3.0829 3.3001 0
M  V30 25 N -2.6119 0.9303 -0.317 0
M  V30 26 O -2.612 2.8063 -2.8493 0
M  V30 27 O -2.503 3.9571 -0.6826 0
M  V30 28 O -4.281 4.7336 -2.4002 0 CHG=-1
M  V30 29 C -13.884 -3.0348 2.9253 0
M  V30 30 N -1.9712 -0.0565 -0.7994 0
M  V30 31 C -0.5633 -0.1938 -0.5702 0
M  V30 32 C 0.0765 0.5338 0.4472 0
M  V30 33 C 0.1853 -1.0784 -1.356 0
M  V30 34 C 1.4432 0.3827 0.6694 0
M  V30 35 C 1.5629 -1.2194 -1.1446 0
M  V30 36 C 2.2048 -0.4828 -0.13 0
M  V30 37 C 3.6531 -0.6154 0.1345 0
M  V30 38 O 4.0581 -0.5832 1.3299 0
M  V30 39 N 4.5981 -0.763 -0.941 0
M  V30 40 C 5.9998 -0.4781 -0.7966 0
M  V30 41 C 6.9395 -1.2013 -1.5472 0
M  V30 42 C 6.4502 0.5432 0.0598 0
M  V30 43 C 8.31 -0.9547 -1.3953 0
M  V30 44 C 7.8166 0.7906 0.2107 0
M  V30 45 C 8.756 0.0351 -0.4989 0
M  V30 46 N 10.1501 0.273 -0.2674 0
M  V30 47 N 11.0618 -0.433 -0.8063 0
M  V30 48 C 12.4555 -0.2158 -0.5437 0
M  V30 49 C 13.4181 -0.9956 -1.2148 0
M  V30 50 C 12.877 0.7427 0.3998 0
M  V30 51 N 13.0226 -1.9648 -2.1934 0
M  V30 52 C 14.7807 -0.813 -0.9325 0
M  V30 53 C 14.2361 0.9187 0.6722 0
M  V30 54 C 15.1922 0.1404 0.0086 0
M  V30 55 N 16.5828 0.3151 0.2909 0
M  V30 56 H -8.519 2.9094 -0.8549 0
M  V30 57 H -11.2597 -0.7229 -0.4055 0
M  V30 58 H -6.2766 3.3782 -1.5815 0
M  V30 59 H -13.5964 -1.2831 0.0294 0
M  V30 60 H -10.5289 -2.5241 2.8061 0
M  V30 61 H -4.8722 -2.0176 0.4435 0
M  V30 62 H -3.4522 -1.1379 1.0527 0
M  V30 63 H -15.301 -2.3535 1.4558 0
M  V30 64 H -12.2523 -3.5804 4.2179 0
M  V30 65 H -14.6347 -3.4909 3.5548 0
M  V30 66 H -0.4834 1.2106 1.0791 0
M  V30 67 H -0.3006 -1.6542 -2.1341 0
M  V30 68 H 1.9101 0.958 1.4625 0
M  V30 69 H 2.1152 -1.9238 -1.7538 0
M  V30 70 H 4.267 -1.1251 -1.86 0
M  V30 71 H 6.6129 -1.9747 -2.2337 0
M  V30 72 H 5.7466 1.1529 0.6097 0
M  V30 73 H 9.0174 -1.5426 -1.968 0
M  V30 74 H 8.1428 1.5671 0.8931 0
M  V30 75 H 12.1543 1.3494 0.9318 0
M  V30 76 H 12.0331 -2.0459 -2.5099 0
M  V30 77 H 13.7401 -2.5438 -2.6857 0
M  V30 78 H 15.5232 -1.4096 -1.4484 0
M  V30 79 H 14.5443 1.6566 1.4063 0
M  V30 80 H 17.3046 -0.2501 -0.2092 0
M  V30 81 H 16.9019 0.999 1.0111 0
M  V30 END ATOM
M  V30 BEGIN BOND
M  V30 1 2 1 2
M  V30 2 2 1 3
M  V30 3 1 1 4
M  V30 4 1 1 5
M  V30 5 1 5 6
M  V30 6 2 5 7
M  V30 7 2 6 8
M  V30 8 1 6 9
M  V30 9 1 7 10
M  V30 10 1 8 11
M  V30 11 2 9 12
M  V30 12 1 9 13
M  V30 13 1 10 14
M  V30 14 1 11 15
M  V30 15 1 13 16
M  V30 16 2 14 17
M  V30 17 2 15 18
M  V30 18 1 15 19
M  V30 19 1 16 20
M  V30 20 2 16 21
M  V30 21 1 17 22
M  V30 22 1 18 23
M  V30 23 2 19 24
M  V30 24 1 21 25
M  V30 25 2 22 26
M  V30 26 2 22 27
M  V30 27 1 22 28
M  V30 28 2 23 29
M  V30 29 2 25 30
M  V30 30 1 30 31
M  V30 31 2 31 32
M  V30 32 1 31 33
M  V30 33 1 32 34
M  V30 34 2 33 35
M  V30 35 2 34 36
M  V30 36 1 36 37
M  V30 37 2 37 38
M  V30 38 1 37 39
M  V30 39 1 39 40
M  V30 40 2 40 41
M  V30 41 1 40 42
M  V30 42 1 41 43
M  V30 43 2 42 44
M  V30 44 2 43 45
M  V30 45 1 45 46
M  V30 46 2 46 47
M  V30 47 1 47 48
M  V30 48 2 48 49
M  V30 49 1 48 50
M  V30 50 1 49 51
M  V30 51 1 49 52
M  V30 52 2 50 53
M  V30 53 2 52 54
M  V30 54 1 54 55
M  V30 55 2 10 13
M  V30 56 1 17 21
M  V30 57 1 24 29
M  V30 58 1 35 36
M  V30 59 1 44 45
M  V30 60 1 53 54
M  V30 61 1 7 56
M  V30 62 1 11 57
M  V30 63 1 14 58
M  V30 64 1 18 59
M  V30 65 1 19 60
M  V30 66 1 20 61
M  V30 67 1 20 62
M  V30 68 1 23 63
M  V30 69 1 24 64
M  V30 70 1 29 65
M  V30 71 1 32 66
M  V30 72 1 33 67
M  V30 73 1 34 68
M  V30 74 1 35 69
M  V30 75 1 39 70
M  V30 76 1 41 71
M  V30 77 1 42 72
M  V30 78 1 43 73
M  V30 79 1 44 74
M  V30 80 1 50 75
M  V30 81 1 51 76
M  V30 82 1 51 77
M  V30 83 1 52 78
M  V30 84 1 53 79
M  V30 85 1 55 80
M  V30 86 1 55 81
M  V30 END BOND
M  V30 END CTAB
M  END
>  <Structure No>
2882

>  <LogS>
-1.340682714

>  <MMFF94 Energy>
213.56

$$$$
Compound 2883
Actelion Java MolfileCreator 2.0

  0  0  0  0  0  0              0 V3000
M  V30 BEGIN CTAB
M  V30 COUNTS 6 5 0 0 0
M  V30 BEGIN ATOM
M  V30 1 O 1.2683 0.2535 -1.1837 0
M  V30 2 C 0.7189 0.0707 -0.066 0
M  V30 3 O 1.4985 0.0224 1.083 0 CHG=-1
M  V30 4 C -0.7345 -0.0903 0.0222 0
M  V30 5 O -1.2839 -0.2732 1.1399 0
M  V30 6 O -1.5142 -0.042 -1.1267 0 CHG=-1
M  V30 END ATOM
M  V30 BEGIN BOND
M  V30 1 2 1 2
M  V30 2 1 2 3
M  V30 3 1 2 4
M  V30 4 2 4 5
M  V30 5 1 4 6
M  V30 END BOND
M  V30 END CTAB
M  END
>  <Structure No>
2883

>  <LogS>
-4.873295836

>  <MMFF94 Energy>
278.93

$$$$
Compound 2884
Actelion Java MolfileCreator 2.0

  0  0  0  0  0  0              0 V3000
M  V30 BEGIN CTAB
M  V30 COUNTS 57 56 0 0 0
M  V30 BEGIN ATOM
M  V30 1 O 3.4557 -2.7481 -1.02 0
M  V30 2 C 3.2227 -2.1172 0.0463 0
M  V30 3 O 1.9219 -1.7262 0.3739 0
M  V30 4 C 4.3509 -1.7666 0.9682 0
M  V30 5 C 0.8021 -1.9833 -0.4692 0
M  V30 6 C 4.4706 -0.2483 1.1668 0
M  V30 7 C -0.4861 -1.3244 0.1004 0 CFG=1
M  V30 8 C 4.8839 0.4744 -0.123 0
M  V30 9 C -1.6399 -1.691 -0.8754 0
M  V30 10 C -0.7336 -1.9255 1.5174 0
M  V30 11 C -0.2293 0.2204 0.155 0
M  V30 12 C 5.0556 1.9795 0.1251 0
M  V30 13 O -2.9067 -1.2417 -0.4031 0
M  V30 14 O -1.9572 -1.5143 2.0715 0
M  V30 15 C -1.4186 1.1127 0.5251 0
M  V30 16 C 5.369 2.7591 -1.1621 0
M  V30 17 C -4.1036 -1.5161 -1.0698 0
M  V30 18 C 6.7706 2.4712 -1.7022 0
M  V30 19 O -4.1134 -2.2251 -2.1127 0
M  V30 20 C -5.3783 -0.9283 -0.5586 0
M  V30 21 C -5.5878 0.4734 -1.1426 0
M  V30 22 C -6.9062 1.1116 -0.6767 0
M  V30 23 C -6.8344 1.6219 0.7607 0
M  V30 24 H 4.1599 -2.2449 1.9527 0
M  V30 25 H 5.3105 -2.173 0.5777 0
M  V30 26 H 0.6685 -3.0839 -0.5618 0
M  V30 27 H 1.0136 -1.5843 -1.487 0
M  V30 28 H 3.5027 0.1585 1.5361 0
M  V30 29 H 5.2381 -0.0589 1.9498 0
M  V30 30 H 4.1064 0.3184 -0.9026 0
M  V30 31 H 5.8413 0.043 -0.4848 0
M  V30 32 H -1.6819 -2.7963 -1.0026 0
M  V30 33 H -1.4451 -1.2385 -1.8732 0
M  V30 34 H -0.6812 -3.0395 1.4719 0
M  V30 35 H 0.0757 -1.6026 2.2059 0
M  V30 36 H 0.1376 0.5652 -0.8374 0
M  V30 37 H 0.5854 0.4306 0.8828 0
M  V30 38 H 5.8597 2.1508 0.8743 0
M  V30 39 H 4.1094 2.3824 0.5481 0
M  V30 40 H -2.5819 -2.2831 2.0162 0
M  V30 41 H -1.8554 0.8359 1.5025 0
M  V30 42 H -1.0666 2.1629 0.6032 0
M  V30 43 H -2.1953 1.0927 -0.2661 0
M  V30 44 H 5.2994 3.8473 -0.9402 0
M  V30 45 H 4.6116 2.5264 -1.9441 0
M  V30 46 H 6.8399 1.4291 -2.0792 0
M  V30 47 H 6.9882 3.159 -2.5472 0
M  V30 48 H 7.5349 2.6316 -0.911 0
M  V30 49 H -5.3275 -0.8816 0.5481 0
M  V30 50 H -6.2283 -1.5863 -0.8403 0
M  V30 51 H -4.7337 1.1288 -0.8695 0
M  V30 52 H -5.6129 0.396 -2.2513 0
M  V30 53 H -7.742 0.3836 -0.7723 0
M  V30 54 H -7.1359 1.9732 -1.3404 0
M  V30 55 H -6.0046 2.3527 0.8692 0
M  V30 56 H -6.6852 0.783 1.4709 0
M  V30 57 H -7.7891 2.1295 1.0185 0
M  V30 END ATOM
M  V30 BEGIN BOND
M  V30 1 2 1 2
M  V30 2 1 2 3
M  V30 3 1 2 4
M  V30 4 1 3 5
M  V30 5 1 4 6
M  V30 6 1 5 7
M  V30 7 1 6 8
M  V30 8 1 7 9
M  V30 9 1 7 10
M  V30 10 1 7 11
M  V30 11 1 8 12
M  V30 12 1 9 13
M  V30 13 1 10 14
M  V30 14 1 11 15
M  V30 15 1 12 16
M  V30 16 1 13 17
M  V30 17 1 16 18
M  V30 18 2 17 19
M  V30 19 1 17 20
M  V30 20 1 20 21
M  V30 21 1 21 22
M  V30 22 1 22 23
M  V30 23 1 4 24
M  V30 24 1 4 25
M  V30 25 1 5 26
M  V30 26 1 5 27
M  V30 27 1 6 28
M  V30 28 1 6 29
M  V30 29 1 8 30
M  V30 30 1 8 31
M  V30 31 1 9 32
M  V30 32 1 9 33
M  V30 33 1 10 34
M  V30 34 1 10 35
M  V30 35 1 11 36
M  V30 36 1 11 37
M  V30 37 1 12 38
M  V30 38 1 12 39
M  V30 39 1 14 40
M  V30 40 1 15 41
M  V30 41 1 15 42
M  V30 42 1 15 43
M  V30 43 1 16 44
M  V30 44 1 16 45
M  V30 45 1 18 46
M  V30 46 1 18 47
M  V30 47 1 18 48
M  V30 48 1 20 49
M  V30 49 1 20 50
M  V30 50 1 21 51
M  V30 51 1 21 52
M  V30 52 1 22 53
M  V30 53 1 22 54
M  V30 54 1 23 55
M  V30 55 1 23 56
M  V30 56 1 23 57
M  V30 END BOND
M  V30 BEGIN COLLECTION
M  V30 MDLV30/STEABS ATOMS=(1 7)
M  V30 END COLLECTION
M  V30 END CTAB
M  END
>  <Structure No>
2884

>  <LogS>
-5.982567027

>  <MMFF94 Energy>
-10.14

$$$$
Compound 2885
Actelion Java MolfileCreator 2.0

  0  0  0  0  0  0              0 V3000
M  V30 BEGIN CTAB
M  V30 COUNTS 36 36 0 0 0
M  V30 BEGIN ATOM
M  V30 1 O 2.861 1.3502 0.1587 0
M  V30 2 C 2.8564 0.1505 -0.2332 0
M  V30 3 O 4.0571 -0.5126 -0.5112 0
M  V30 4 C 1.552 -0.573 -0.4309 0 CFG=1
M  V30 5 C 5.3417 0.072 -0.3073 0
M  V30 6 C 0.7009 -0.5688 0.8673 0
M  V30 7 C 0.7988 0.0047 -1.6541 0
M  V30 8 C 5.6937 0.0936 1.1756 0
M  V30 9 C -0.3576 0.5425 0.8636 0
M  V30 10 C -0.7022 -0.2837 -1.5643 0
M  V30 11 C -1.3331 0.4197 -0.3378 0 CFG=1
M  V30 12 C -2.6091 -0.2724 0.0584 0
M  V30 13 O -2.5707 -1.4176 0.5879 0
M  V30 14 O -3.834 0.3552 -0.1858 0
M  V30 15 C -5.0823 -0.2407 0.1507 0
M  V30 16 C -6.2154 0.6934 -0.242 0
M  V30 17 H 1.7923 -1.6361 -0.6563 0
M  V30 18 H 6.0973 -0.5392 -0.8442 0
M  V30 19 H 5.3701 1.1014 -0.7262 0
M  V30 20 H 1.3471 -0.4637 1.7669 0
M  V30 21 H 0.181 -1.5472 0.9648 0
M  V30 22 H 0.9404 1.1066 -1.7243 0
M  V30 23 H 1.2067 -0.444 -2.586 0
M  V30 24 H 6.718 0.5 1.3103 0
M  V30 25 H 5.6577 -0.9367 1.5883 0
M  V30 26 H 4.9799 0.7344 1.7342 0
M  V30 27 H -0.9111 0.5322 1.8286 0
M  V30 28 H 0.1644 1.5231 0.8097 0
M  V30 29 H -0.8448 -1.3862 -1.5067 0
M  V30 30 H -1.2031 0.0694 -2.4919 0
M  V30 31 H -1.5989 1.4561 -0.6453 0
M  V30 32 H -5.125 -0.4299 1.2454 0
M  V30 33 H -5.1964 -1.2045 -0.3912 0
M  V30 34 H -7.1906 0.231 0.0192 0
M  V30 35 H -6.1167 1.6581 0.2992 0
M  V30 36 H -6.1878 0.8842 -1.3358 0
M  V30 END ATOM
M  V30 BEGIN BOND
M  V30 1 2 1 2
M  V30 2 1 2 3
M  V30 3 1 2 4
M  V30 4 1 3 5
M  V30 5 1 4 6
M  V30 6 1 4 7
M  V30 7 1 5 8
M  V30 8 1 6 9
M  V30 9 1 7 10
M  V30 10 1 9 11
M  V30 11 1 11 12
M  V30 12 2 12 13
M  V30 13 1 12 14
M  V30 14 1 14 15
M  V30 15 1 15 16
M  V30 16 1 10 11
M  V30 17 1 4 17
M  V30 18 1 5 18
M  V30 19 1 5 19
M  V30 20 1 6 20
M  V30 21 1 6 21
M  V30 22 1 7 22
M  V30 23 1 7 23
M  V30 24 1 8 24
M  V30 25 1 8 25
M  V30 26 1 8 26
M  V30 27 1 9 27
M  V30 28 1 9 28
M  V30 29 1 10 29
M  V30 30 1 10 30
M  V30 31 1 11 31
M  V30 32 1 15 32
M  V30 33 1 15 33
M  V30 34 1 16 34
M  V30 35 1 16 35
M  V30 36 1 16 36
M  V30 END BOND
M  V30 BEGIN COLLECTION
M  V30 MDLV30/STEABS ATOMS=(2 4 11)
M  V30 END COLLECTION
M  V30 END CTAB
M  END
>  <Structure No>
2885

>  <LogS>
-2.251273114

>  <MMFF94 Energy>
-10.464

$$$$
Compound 2886
Actelion Java MolfileCreator 2.0

  0  0  0  0  0  0              0 V3000
M  V30 BEGIN CTAB
M  V30 COUNTS 24 24 0 0 0
M  V30 BEGIN ATOM
M  V30 1 Cl 3.8495 1.5224 -0.3203 0
M  V30 2 C 3.2197 0.4693 0.9754 0
M  V30 3 C 2.1093 -0.4494 0.459 0
M  V30 4 C 0.8206 0.3207 0.1411 0
M  V30 5 N -0.2183 -0.6158 -0.3473 0
M  V30 6 C -1.0363 -1.185 0.7466 0
M  V30 7 C -1.081 -0.0226 -1.3889 0
M  V30 8 C -2.1197 -0.2025 1.2327 0
M  V30 9 C -2.1157 0.9315 -0.7782 0
M  V30 10 O -2.9211 0.2475 0.1592 0
M  V30 11 H 4.0598 -0.1513 1.3522 0
M  V30 12 H 2.8478 1.0955 1.8143 0
M  V30 13 H 1.901 -1.2131 1.2379 0
M  V30 14 H 2.4616 -0.9812 -0.4516 0
M  V30 15 H 0.4822 0.8733 1.0441 0
M  V30 16 H 1.0615 1.0846 -0.6303 0
M  V30 17 H -0.3989 -1.4866 1.6054 0
M  V30 18 H -1.5325 -2.1087 0.377 0
M  V30 19 H -0.4767 0.5078 -2.1569 0
M  V30 20 H -1.6167 -0.8396 -1.9201 0
M  V30 21 H -1.6742 0.6565 1.7811 0
M  V30 22 H -2.7734 -0.7333 1.9564 0
M  V30 23 H -1.6192 1.8145 -0.3154 0
M  V30 24 H -2.7693 1.313 -1.5907 0
M  V30 END ATOM
M  V30 BEGIN BOND
M  V30 1 1 1 2
M  V30 2 1 2 3
M  V30 3 1 3 4
M  V30 4 1 4 5
M  V30 5 1 5 6
M  V30 6 1 5 7
M  V30 7 1 6 8
M  V30 8 1 7 9
M  V30 9 1 8 10
M  V30 10 1 9 10
M  V30 11 1 2 11
M  V30 12 1 2 12
M  V30 13 1 3 13
M  V30 14 1 3 14
M  V30 15 1 4 15
M  V30 16 1 4 16
M  V30 17 1 6 17
M  V30 18 1 6 18
M  V30 19 1 7 19
M  V30 20 1 7 20
M  V30 21 1 8 21
M  V30 22 1 8 22
M  V30 23 1 9 23
M  V30 24 1 9 24
M  V30 END BOND
M  V30 END CTAB
M  END
>  <Structure No>
2886

>  <LogS>
0.786089298

>  <MMFF94 Energy>
56.731

$$$$
Compound 2887
Actelion Java MolfileCreator 2.0

  0  0  0  0  0  0              0 V3000
M  V30 BEGIN CTAB
M  V30 COUNTS 4 3 0 0 0
M  V30 BEGIN ATOM
M  V30 1 O 1.249 -0.0832 0.0 0
M  V30 2 N 0.0052 0.0041 0.0032 0 CHG=1
M  V30 3 O -0.7635 -1.1349 0.0113 0 CHG=-1
M  V30 4 O -0.5968 1.2392 -0.0012 0 CHG=-1
M  V30 END ATOM
M  V30 BEGIN BOND
M  V30 1 2 1 2
M  V30 2 1 2 3
M  V30 3 1 2 4
M  V30 END BOND
M  V30 END CTAB
M  END
>  <Structure No>
2887

>  <LogS>
0.545324138

>  <MMFF94 Energy>
6.4146

$$$$
Compound 2888
Actelion Java MolfileCreator 2.0

  0  0  0  0  0  0              0 V3000
M  V30 BEGIN CTAB
M  V30 COUNTS 25 25 0 0 0
M  V30 BEGIN ATOM
M  V30 1 O 0.0803 2.2527 -0.6432 0
M  V30 2 C -0.3945 1.1 -0.4371 0
M  V30 3 N 0.4119 -0.0085 -0.5402 0
M  V30 4 C -1.7534 0.9668 -0.0982 0
M  V30 5 C -0.0903 -1.258 -0.2761 0
M  V30 6 C 1.8402 0.1443 -0.8785 0
M  V30 7 C -2.5912 2.1432 -8.0E-4 0
M  V30 8 C -2.2818 -0.3126 0.1484 0
M  V30 9 O 0.7388 -2.38 -0.3384 0
M  V30 10 C -1.4371 -1.4225 0.0627 0
M  V30 11 C 2.6711 0.3255 0.3943 0
M  V30 12 N -3.2614 3.0836 0.077 0
M  V30 13 C -3.73 -0.5034 0.5184 0
M  V30 14 C 4.1211 0.4753 0.0597 0
M  V30 15 O 4.6052 1.6162 -0.1629 0
M  V30 16 O 4.9278 -0.6495 -0.0551 0 CHG=-1
M  V30 17 H 2.2055 -0.7407 -1.4451 0
M  V30 18 H 1.9923 1.0149 -1.5545 0
M  V30 19 H 0.3913 -3.3121 -0.145 0
M  V30 20 H -1.8191 -2.4164 0.2622 0
M  V30 21 H 2.5394 -0.5572 1.0562 0
M  V30 22 H 2.3222 1.2256 0.9457 0
M  V30 23 H -3.985 -1.5774 0.6427 0
M  V30 24 H -4.3798 -0.0846 -0.2785 0
M  V30 25 H -3.9431 0.018 1.4753 0
M  V30 END ATOM
M  V30 BEGIN BOND
M  V30 1 2 1 2
M  V30 2 1 2 3
M  V30 3 1 2 4
M  V30 4 1 3 5
M  V30 5 1 3 6
M  V30 6 1 4 7
M  V30 7 2 4 8
M  V30 8 1 5 9
M  V30 9 2 5 10
M  V30 10 1 6 11
M  V30 11 3 7 12
M  V30 12 1 8 13
M  V30 13 1 11 14
M  V30 14 2 14 15
M  V30 15 1 14 16
M  V30 16 1 8 10
M  V30 17 1 6 17
M  V30 18 1 6 18
M  V30 19 1 9 19
M  V30 20 1 10 20
M  V30 21 1 11 21
M  V30 22 1 11 22
M  V30 23 1 13 23
M  V30 24 1 13 24
M  V30 25 1 13 25
M  V30 END BOND
M  V30 END CTAB
M  END
>  <Structure No>
2888

>  <LogS>
-1.443654068

>  <MMFF94 Energy>
-25.531

$$$$
Compound 2889
Actelion Java MolfileCreator 2.0

  0  0  0  0  0  0              0 V3000
M  V30 BEGIN CTAB
M  V30 COUNTS 28 28 0 0 0
M  V30 BEGIN ATOM
M  V30 1 O -0.5598 0.6398 -2.1606 0
M  V30 2 C -0.1208 0.2096 -1.0564 0
M  V30 3 N -0.7586 -0.8305 -0.4227 0
M  V30 4 C 1.0327 0.7985 -0.4967 0
M  V30 5 C -0.2843 -1.3089 0.7725 0
M  V30 6 C -1.9771 -1.4175 -1.019 0
M  V30 7 C 1.5046 0.3275 0.7475 0
M  V30 8 C 1.7135 1.9021 -1.2152 0
M  V30 9 O -0.9313 -2.3634 1.4208 0
M  V30 10 C 0.8487 -0.7423 1.361 0
M  V30 11 C -3.2177 -0.5734 -0.6991 0
M  V30 12 C 2.6985 0.9349 1.4394 0
M  V30 13 O 1.0474 2.8977 -1.6066 0
M  V30 14 N 3.1111 1.8366 -1.5013 0
M  V30 15 C -3.5205 -0.5715 0.7669 0
M  V30 16 O -4.1626 -1.5241 1.2822 0
M  V30 17 O -3.0558 0.4608 1.572 0 CHG=-1
M  V30 18 H -1.8646 -1.4869 -2.1233 0
M  V30 19 H -2.136 -2.4643 -0.6789 0
M  V30 20 H -0.6017 -2.7289 2.3067 0
M  V30 21 H 1.207 -1.1295 2.3075 0
M  V30 22 H -4.09 -0.9879 -1.2493 0
M  V30 23 H -3.0673 0.4704 -1.0477 0
M  V30 24 H 2.6462 0.7718 2.5373 0
M  V30 25 H 2.7384 2.032 1.275 0
M  V30 26 H 3.6297 0.466 1.06 0
M  V30 27 H 3.5881 2.6346 -1.9765 0
M  V30 28 H 3.6585 0.9707 -1.3016 0
M  V30 END ATOM
M  V30 BEGIN BOND
M  V30 1 2 1 2
M  V30 2 1 2 3
M  V30 3 1 2 4
M  V30 4 1 3 5
M  V30 5 1 3 6
M  V30 6 2 4 7
M  V30 7 1 4 8
M  V30 8 1 5 9
M  V30 9 2 5 10
M  V30 10 1 6 11
M  V30 11 1 7 12
M  V30 12 2 8 13
M  V30 13 1 8 14
M  V30 14 1 11 15
M  V30 15 2 15 16
M  V30 16 1 15 17
M  V30 17 1 7 10
M  V30 18 1 6 18
M  V30 19 1 6 19
M  V30 20 1 9 20
M  V30 21 1 10 21
M  V30 22 1 11 22
M  V30 23 1 11 23
M  V30 24 1 12 24
M  V30 25 1 12 25
M  V30 26 1 12 26
M  V30 27 1 14 27
M  V30 28 1 14 28
M  V30 END BOND
M  V30 END CTAB
M  END
>  <Structure No>
2889

>  <LogS>
-1.602448873

>  <MMFF94 Energy>
-68.558

$$$$
Compound 2890
Actelion Java MolfileCreator 2.0

  0  0  0  0  0  0              0 V3000
M  V30 BEGIN CTAB
M  V30 COUNTS 47 46 0 0 0
M  V30 BEGIN ATOM
M  V30 1 O -5.4046 1.9555 2.5036 0
M  V30 2 C -4.5042 1.7883 1.6397 0
M  V30 3 O -3.1786 1.7058 2.0469 0 CHG=-1
M  V30 4 C -4.8795 1.639 0.1866 0 CFG=1
M  V30 5 N -3.8303 2.1683 -0.6943 0 CHG=1
M  V30 6 C -5.2517 0.176 -0.156 0
M  V30 7 C -4.0843 -0.8328 -0.0708 0
M  V30 8 C -3.4905 -1.1582 -1.4521 0
M  V30 9 C -2.2929 -2.1105 -1.3441 0
M  V30 10 N -1.1171 -1.4347 -0.7943 0
M  V30 11 C 0.1087 -2.1389 -0.561 0
M  V30 12 O 0.1816 -3.3794 -0.7806 0
M  V30 13 C 1.3297 -1.3977 -0.1061 0
M  V30 14 C 2.1933 -1.0068 -1.3122 0
M  V30 15 C 3.3415 -0.0556 -0.9406 0
M  V30 16 C 4.3465 -0.6891 0.0382 0
M  V30 17 C 5.6634 0.1018 0.1364 0
M  V30 18 C 5.5078 1.5515 0.63 0
M  V30 19 C 4.9613 1.6416 2.0547 0
M  V30 20 H -5.7972 2.2487 0.0213 0
M  V30 21 H -2.9165 1.6801 -0.5437 0
M  V30 22 H -4.1204 2.0624 -1.6934 0
M  V30 23 H -3.6991 3.1886 -0.5031 0
M  V30 24 H -6.0476 -0.1489 0.5508 0
M  V30 25 H -5.7163 0.1464 -1.1657 0
M  V30 26 H -3.2921 -0.4671 0.6135 0
M  V30 27 H -4.4717 -1.7798 0.3669 0
M  V30 28 H -3.1787 -0.2311 -1.9777 0
M  V30 29 H -4.273 -1.6486 -2.0718 0
M  V30 30 H -2.5601 -2.979 -0.7037 0
M  V30 31 H -2.0457 -2.4926 -2.3576 0
M  V30 32 H -1.1526 -0.4104 -0.5839 0
M  V30 33 H 1.911 -2.05 0.5802 0
M  V30 34 H 1.0254 -0.489 0.457 0
M  V30 35 H 2.6062 -1.9225 -1.789 0
M  V30 36 H 1.5551 -0.4933 -2.0645 0
M  V30 37 H 2.9163 0.872 -0.501 0
M  V30 38 H 3.8712 0.2226 -1.8782 0
M  V30 39 H 3.8887 -0.7844 1.0463 0
M  V30 40 H 4.5968 -1.7164 -0.3096 0
M  V30 41 H 6.3535 -0.4408 0.8211 0
M  V30 42 H 6.1488 0.1174 -0.8634 0
M  V30 43 H 6.509 2.0307 0.6123 0
M  V30 44 H 4.8567 2.1321 -0.0581 0
M  V30 45 H 5.5639 1.0113 2.7423 0
M  V30 46 H 3.9001 1.3199 2.0892 0
M  V30 47 H 5.0129 2.695 2.4029 0
M  V30 END ATOM
M  V30 BEGIN BOND
M  V30 1 2 1 2
M  V30 2 1 2 3
M  V30 3 1 2 4
M  V30 4 1 4 5
M  V30 5 1 4 6
M  V30 6 1 6 7
M  V30 7 1 7 8
M  V30 8 1 8 9
M  V30 9 1 9 10
M  V30 10 1 10 11
M  V30 11 2 11 12
M  V30 12 1 11 13
M  V30 13 1 13 14
M  V30 14 1 14 15
M  V30 15 1 15 16
M  V30 16 1 16 17
M  V30 17 1 17 18
M  V30 18 1 18 19
M  V30 19 1 4 20
M  V30 20 1 5 21
M  V30 21 1 5 22
M  V30 22 1 5 23
M  V30 23 1 6 24
M  V30 24 1 6 25
M  V30 25 1 7 26
M  V30 26 1 7 27
M  V30 27 1 8 28
M  V30 28 1 8 29
M  V30 29 1 9 30
M  V30 30 1 9 31
M  V30 31 1 10 32
M  V30 32 1 13 33
M  V30 33 1 13 34
M  V30 34 1 14 35
M  V30 35 1 14 36
M  V30 36 1 15 37
M  V30 37 1 15 38
M  V30 38 1 16 39
M  V30 39 1 16 40
M  V30 40 1 17 41
M  V30 41 1 17 42
M  V30 42 1 18 43
M  V30 43 1 18 44
M  V30 44 1 19 45
M  V30 45 1 19 46
M  V30 46 1 19 47
M  V30 END BOND
M  V30 BEGIN COLLECTION
M  V30 MDLV30/STEABS ATOMS=(1 4)
M  V30 END COLLECTION
M  V30 END CTAB
M  END
>  <Structure No>
2890

>  <LogS>
0.057570824

>  <MMFF94 Energy>
-36.345

$$$$
Compound 2891
Actelion Java MolfileCreator 2.0

  0  0  0  0  0  0              0 V3000
M  V30 BEGIN CTAB
M  V30 COUNTS 48 49 0 0 0
M  V30 BEGIN ATOM
M  V30 1 N -0.2356 0.9429 -1.0216 0 CHG=1 CFG=2
M  V30 2 C -1.2854 1.5276 -0.1477 0
M  V30 3 C 0.4539 1.9928 -1.8142 0
M  V30 4 C -0.8061 -0.0552 -1.9493 0
M  V30 5 C -1.9568 0.4869 0.7371 0
M  V30 6 C 1.1375 3.0386 -0.9595 0
M  V30 7 C -3.2479 -0.063 0.4733 0
M  V30 8 C -1.2436 0.0424 1.8644 0
M  V30 9 C 2.2289 2.8154 -0.2175 0
M  V30 10 C -3.7967 -1.0138 1.3812 0
M  V30 11 C -4.0108 0.2852 -0.666 0
M  V30 12 C -1.7921 -0.8923 2.7395 0
M  V30 13 C 2.8648 1.5272 -0.1301 0
M  V30 14 C -3.064 -1.4123 2.507 0
M  V30 15 C -5.0704 -1.5603 1.1536 0
M  V30 16 C -5.2739 -0.274 -0.8792 0
M  V30 17 C 3.3823 0.442 -0.0476 0
M  V30 18 C -5.8037 -1.1891 0.0287 0
M  V30 19 C 4.0041 -0.8916 0.0625 0
M  V30 20 C 5.397 -0.8499 -0.5889 0
M  V30 21 C 4.1328 -1.2586 1.5503 0
M  V30 22 C 3.114 -1.9202 -0.659 0
M  V30 23 H 0.4664 0.449 -0.4236 0
M  V30 24 H -0.8222 2.2662 0.5418 0
M  V30 25 H -2.0079 2.1275 -0.7338 0
M  V30 26 H -0.2777 2.5108 -2.4744 0
M  V30 27 H 1.221 1.5352 -2.479 0
M  V30 28 H -1.2269 -0.9234 -1.3953 0
M  V30 29 H -0.0182 -0.4632 -2.6171 0
M  V30 30 H -1.6035 0.3958 -2.5797 0
M  V30 31 H 0.7329 4.0443 -0.9792 0
M  V30 32 H -0.2558 0.4301 2.072 0
M  V30 33 H 2.6574 3.6345 0.3467 0
M  V30 34 H -3.6509 0.973 -1.4136 0
M  V30 35 H -1.2281 -1.2128 3.606 0
M  V30 36 H -3.4708 -2.1363 3.2039 0
M  V30 37 H -5.499 -2.2812 1.8416 0
M  V30 38 H -5.8443 0.0015 -1.7567 0
M  V30 39 H -6.7835 -1.6157 -0.143 0
M  V30 40 H 5.3175 -0.5997 -1.6693 0
M  V30 41 H 5.9046 -1.8358 -0.4938 0
M  V30 42 H 6.0347 -0.0799 -0.0994 0
M  V30 43 H 3.1341 -1.2802 2.0374 0
M  V30 44 H 4.7607 -0.5118 2.0823 0
M  V30 45 H 4.6059 -2.2579 1.6692 0
M  V30 46 H 2.1029 -1.9581 -0.1983 0
M  V30 47 H 3.5666 -2.9337 -0.5998 0
M  V30 48 H 2.9944 -1.6515 -1.7314 0
M  V30 END ATOM
M  V30 BEGIN BOND
M  V30 1 1 1 2
M  V30 2 1 1 3
M  V30 3 1 1 4
M  V30 4 1 2 5
M  V30 5 1 3 6
M  V30 6 1 5 7
M  V30 7 2 5 8
M  V30 8 2 6 9
M  V30 9 1 7 10
M  V30 10 2 7 11
M  V30 11 1 8 12
M  V30 12 1 9 13
M  V30 13 1 10 14
M  V30 14 2 10 15
M  V30 15 1 11 16
M  V30 16 3 13 17
M  V30 17 1 15 18
M  V30 18 1 17 19
M  V30 19 1 19 20
M  V30 20 1 19 21
M  V30 21 1 19 22
M  V30 22 2 12 14
M  V30 23 2 16 18
M  V30 24 1 1 23
M  V30 25 1 2 24
M  V30 26 1 2 25
M  V30 27 1 3 26
M  V30 28 1 3 27
M  V30 29 1 4 28
M  V30 30 1 4 29
M  V30 31 1 4 30
M  V30 32 1 6 31
M  V30 33 1 8 32
M  V30 34 1 9 33
M  V30 35 1 11 34
M  V30 36 1 12 35
M  V30 37 1 14 36
M  V30 38 1 15 37
M  V30 39 1 16 38
M  V30 40 1 18 39
M  V30 41 1 20 40
M  V30 42 1 20 41
M  V30 43 1 20 42
M  V30 44 1 21 43
M  V30 45 1 21 44
M  V30 46 1 21 45
M  V30 47 1 22 46
M  V30 48 1 22 47
M  V30 49 1 22 48
M  V30 END BOND
M  V30 BEGIN COLLECTION
M  V30 MDLV30/STEABS ATOMS=(1 1)
M  V30 END COLLECTION
M  V30 END CTAB
M  END
>  <Structure No>
2891

>  <LogS>
-1.719860075

>  <MMFF94 Energy>
14.99

$$$$
Compound 2892
Actelion Java MolfileCreator 2.0

  0  0  0  0  0  0              0 V3000
M  V30 BEGIN CTAB
M  V30 COUNTS 74 79 0 0 0
M  V30 BEGIN ATOM
M  V30 1 S -7.0434 2.0329 3.7294 0
M  V30 2 O -7.409 3.4413 3.3481 0
M  V30 3 O -6.0919 2.0832 4.8965 0
M  V30 4 O -8.4268 1.1995 4.1899 0 CHG=-1
M  V30 5 C -6.2924 1.2172 2.3476 0
M  V30 6 C -6.9087 1.204 1.0793 0
M  V30 7 C -5.0713 0.5684 2.5303 0
M  V30 8 N -8.1569 1.8899 0.8922 0
M  V30 9 C -6.2735 0.541 -0.0067 0
M  V30 10 C -4.3947 -0.0274 1.4593 0
M  V30 11 C -6.9816 0.2891 -1.3011 0
M  V30 12 C -4.9675 0.0181 0.1637 0
M  V30 13 N -3.1899 -0.7812 1.7081 0
M  V30 14 O -8.2165 0.5224 -1.4112 0
M  V30 15 C -6.2692 -0.327 -2.444 0
M  V30 16 C -4.2095 -0.4364 -1.0357 0
M  V30 17 C -2.2115 -0.4634 2.7643 0 CFG=2
M  V30 18 C -4.9114 -0.6725 -2.315 0
M  V30 19 C -6.9371 -0.5816 -3.6604 0
M  V30 20 O -2.9535 -0.5571 -0.9894 0
M  V30 21 C -1.0575 -1.4894 2.77 0
M  V30 22 C -1.656 0.9672 2.603 0
M  V30 23 C -4.2339 -1.2468 -3.4071 0
M  V30 24 C -6.257 -1.1629 -4.7333 0
M  V30 25 C -0.1509 -1.3459 1.5381 0
M  V30 26 C -0.7473 1.0964 1.3748 0
M  V30 27 C -4.9064 -1.491 -4.609 0
M  V30 28 C 0.4094 0.0811 1.4384 0 CFG=1
M  V30 29 N 1.2722 0.2132 0.2581 0
M  V30 30 C 2.6306 -0.2513 0.2451 0
M  V30 31 N 3.0813 -1.1011 1.2042 0
M  V30 32 N 3.4815 0.1816 -0.7207 0
M  V30 33 C 4.3689 -1.5262 1.1902 0
M  V30 34 C 4.7795 -0.219 -0.7238 0
M  V30 35 F 4.8108 -2.3802 2.1417 0
M  V30 36 N 5.2144 -1.0891 0.2248 0
M  V30 37 N 5.6737 0.2793 -1.7293 0
M  V30 38 C 7.1046 0.1303 -1.6727 0
M  V30 39 C 7.8587 -0.0726 -2.8554 0
M  V30 40 C 7.7785 0.2549 -0.4425 0
M  V30 41 S 7.0856 -0.2164 -4.4387 0
M  V30 42 C 9.2558 -0.1694 -2.7738 0
M  V30 43 C 9.1699 0.1291 -0.3735 0
M  V30 44 O 6.6229 1.1412 -4.8916 0
M  V30 45 O 5.9104 -1.1521 -4.3509 0
M  V30 46 O 8.1704 -0.8299 -5.5688 0 CHG=-1
M  V30 47 C 9.9059 -0.0828 -1.5436 0
M  V30 48 S 9.9856 0.2493 1.1841 0
M  V30 49 O 11.308 -0.4617 1.1315 0
M  V30 50 O 9.1352 -0.396 2.2437 0
M  V30 51 O 10.239 1.8665 1.5702 0 CHG=-1
M  V30 52 H -4.6508 0.5212 3.5232 0
M  V30 53 H -8.3411 2.441 0.0269 0
M  V30 54 H -8.8773 1.9321 1.6431 0
M  V30 55 H -3.0492 -1.6528 1.1495 0
M  V30 56 H -2.7133 -0.5404 3.7556 0
M  V30 57 H -7.9848 -0.3328 -3.7788 0
M  V30 58 H -0.4419 -1.3563 3.6871 0
M  V30 59 H -1.4731 -2.5179 2.8074 0
M  V30 60 H -1.0741 1.2332 3.5108 0
M  V30 61 H -2.4856 1.7013 2.5226 0
M  V30 62 H -3.1867 -1.5108 -3.3324 0
M  V30 63 H -6.7794 -1.3585 -5.6599 0
M  V30 64 H -0.7147 -1.5946 0.6144 0
M  V30 65 H 0.6801 -2.0764 1.6265 0
M  V30 66 H -1.3504 0.9374 0.4555 0
M  V30 67 H -0.3302 2.1262 1.3423 0
M  V30 68 H -4.3796 -1.9388 -5.4432 0
M  V30 69 H 1.0123 0.2976 2.3492 0
M  V30 70 H 0.9483 0.7859 -0.5557 0
M  V30 71 H 5.2551 0.789 -2.5384 0
M  V30 72 H 7.223 0.4712 0.4596 0
M  V30 73 H 9.847 -0.3188 -3.666 0
M  V30 74 H 10.9848 -0.1699 -1.5051 0
M  V30 END ATOM
M  V30 BEGIN BOND
M  V30 1 2 1 2
M  V30 2 2 1 3
M  V30 3 1 1 4
M  V30 4 1 1 5
M  V30 5 2 5 6
M  V30 6 1 5 7
M  V30 7 1 6 8
M  V30 8 1 6 9
M  V30 9 2 7 10
M  V30 10 1 9 11
M  V30 11 2 9 12
M  V30 12 1 10 13
M  V30 13 2 11 14
M  V30 14 1 11 15
M  V30 15 1 12 16
M  V30 16 1 13 17
M  V30 17 2 15 18
M  V30 18 1 15 19
M  V30 19 2 16 20
M  V30 20 1 17 21
M  V30 21 1 17 22
M  V30 22 1 18 23
M  V30 23 2 19 24
M  V30 24 1 21 25
M  V30 25 1 22 26
M  V30 26 2 23 27
M  V30 27 1 25 28
M  V30 28 1 28 29
M  V30 29 1 29 30
M  V30 30 2 30 31
M  V30 31 1 30 32
M  V30 32 1 31 33
M  V30 33 2 32 34
M  V30 34 1 33 35
M  V30 35 2 33 36
M  V30 36 1 34 37
M  V30 37 1 37 38
M  V30 38 2 38 39
M  V30 39 1 38 40
M  V30 40 1 39 41
M  V30 41 1 39 42
M  V30 42 2 40 43
M  V30 43 2 41 44
M  V30 44 2 41 45
M  V30 45 1 41 46
M  V30 46 2 42 47
M  V30 47 1 43 48
M  V30 48 2 48 49
M  V30 49 2 48 50
M  V30 50 1 48 51
M  V30 51 1 10 12
M  V30 52 1 16 18
M  V30 53 1 24 27
M  V30 54 1 26 28
M  V30 55 1 34 36
M  V30 56 1 43 47
M  V30 57 1 7 52
M  V30 58 1 8 53
M  V30 59 1 8 54
M  V30 60 1 13 55
M  V30 61 1 17 56
M  V30 62 1 19 57
M  V30 63 1 21 58
M  V30 64 1 21 59
M  V30 65 1 22 60
M  V30 66 1 22 61
M  V30 67 1 23 62
M  V30 68 1 24 63
M  V30 69 1 25 64
M  V30 70 1 25 65
M  V30 71 1 26 66
M  V30 72 1 26 67
M  V30 73 1 27 68
M  V30 74 1 28 69
M  V30 75 1 29 70
M  V30 76 1 37 71
M  V30 77 1 40 72
M  V30 78 1 42 73
M  V30 79 1 47 74
M  V30 END BOND
M  V30 BEGIN COLLECTION
M  V30 MDLV30/STEABS ATOMS=(2 17 28)
M  V30 END COLLECTION
M  V30 END CTAB
M  END
>  <Structure No>
2892

>  <LogS>
-0.75694657

>  <MMFF94 Energy>
46.974

$$$$
Compound 2893
Actelion Java MolfileCreator 2.0

  0  0  0  0  0  0              0 V3000
M  V30 BEGIN CTAB
M  V30 COUNTS 90 91 0 0 0
M  V30 BEGIN ATOM
M  V30 1 O -1.1072 2.6114 -0.3953 0
M  V30 2 C -2.2062 2.9586 0.1199 0
M  V30 3 O -2.965 2.041 0.8601 0
M  V30 4 C -2.6684 4.3557 -0.0167 0
M  V30 5 C -2.5976 0.6734 1.0147 0
M  V30 6 C -1.6723 5.3975 -0.0578 0
M  V30 7 C -3.969 4.7021 -0.0484 0
M  V30 8 C -3.0157 -0.1418 -0.2355 0
M  V30 9 N -0.8718 6.234 -0.0941 0
M  V30 10 C -5.0795 3.7357 -0.1729 0
M  V30 11 N -2.2369 -1.4034 -0.4657 0 CHG=1
M  V30 12 C -6.1767 3.816 0.696 0
M  V30 13 C -5.0731 2.7652 -1.1882 0
M  V30 14 C -0.8999 -1.0434 -1.0415 0
M  V30 15 C -2.1194 -2.1813 0.793 0
M  V30 16 C -3.0009 -2.2141 -1.4507 0
M  V30 17 C -7.2306 2.9026 0.5821 0
M  V30 18 C -6.1302 1.8613 -1.3061 0
M  V30 19 C 0.1354 -2.199 -1.1709 0
M  V30 20 C -7.2105 1.9211 -0.4184 0
M  V30 21 C 1.1392 -2.279 -0.0137 0
M  V30 22 N -8.2914 0.9859 -0.5345 0
M  V30 23 O 1.7185 -1.0011 0.2334 0
M  V30 24 C -8.479 -0.0405 0.5004 0
M  V30 25 C -9.2677 1.1355 -1.6181 0
M  V30 26 C 2.8133 -0.8085 1.0804 0
M  V30 27 C -7.3249 -1.0397 0.4868 0
M  V30 28 C -9.0257 0.1044 -2.7157 0
M  V30 29 O 3.4682 -1.7985 1.5104 0
M  V30 30 C 3.1645 0.5629 1.5034 0
M  V30 31 C 2.0847 1.4991 1.69 0
M  V30 32 C 4.4213 0.9626 1.7763 0
M  V30 33 N 1.2165 2.2499 1.8389 0
M  V30 34 C 5.6379 0.1795 1.4696 0
M  V30 35 C 5.8195 -0.4158 0.2106 0
M  V30 36 C 6.6741 0.1184 2.4097 0
M  V30 37 C 7.0048 -1.0936 -0.0883 0
M  V30 38 C 7.8581 -0.5639 2.1139 0
M  V30 39 C 8.0398 -1.1767 0.8604 0
M  V30 40 N 9.2807 -1.8531 0.543 0
M  V30 41 C 9.9249 -2.7259 1.5375 0
M  V30 42 C 9.9178 -1.6806 -0.774 0
M  V30 43 C 11.184 -2.0771 2.1068 0
M  V30 44 C 10.3063 -0.2238 -1.0003 0
M  V30 45 H -3.1392 0.2725 1.8981 0
M  V30 46 H -1.5142 0.6097 1.243 0
M  V30 47 H -4.2357 5.7537 -0.012 0
M  V30 48 H -2.9419 0.5132 -1.1341 0
M  V30 49 H -4.1002 -0.365 -0.1183 0
M  V30 50 H -6.2072 4.5739 1.4701 0
M  V30 51 H -4.2502 2.708 -1.8889 0
M  V30 52 H -1.0464 -0.6236 -2.0646 0
M  V30 53 H -0.439 -0.206 -0.4811 0
M  V30 54 H -3.1103 -2.2819 1.2898 0
M  V30 55 H -1.7434 -3.2102 0.6023 0
M  V30 56 H -1.424 -1.6951 1.5093 0
M  V30 57 H -4.0104 -2.478 -1.0579 0
M  V30 58 H -2.4942 -3.1715 -1.6928 0
M  V30 59 H -3.1426 -1.6595 -2.4074 0
M  V30 60 H -8.0666 2.9623 1.2671 0
M  V30 61 H -6.1006 1.1074 -2.0799 0
M  V30 62 H 0.7245 -2.0238 -2.0978 0
M  V30 63 H -0.345 -3.1889 -1.2963 0
M  V30 64 H 1.9348 -3.0065 -0.2918 0
M  V30 65 H 0.6496 -2.6442 0.9116 0
M  V30 66 H -9.4269 -0.6001 0.3308 0
M  V30 67 H -8.5508 0.4425 1.4989 0
M  V30 68 H -10.2972 1.0139 -1.2164 0
M  V30 69 H -9.2056 2.1573 -2.0578 0
M  V30 70 H -7.4873 -1.8142 1.2664 0
M  V30 71 H -7.2699 -1.5364 -0.5039 0
M  V30 72 H -6.3659 -0.5275 0.6946 0
M  V30 73 H -9.8305 0.1832 -3.4794 0
M  V30 74 H -9.0346 -0.926 -2.295 0
M  V30 75 H -8.0513 0.2926 -3.2099 0
M  V30 76 H 4.5757 1.939 2.2233 0
M  V30 77 H 5.0493 -0.3445 -0.5486 0
M  V30 78 H 6.566 0.5992 3.3751 0
M  V30 79 H 7.1045 -1.5523 -1.0605 0
M  V30 80 H 8.6396 -0.5913 2.8587 0
M  V30 81 H 9.2274 -2.9569 2.371 0
M  V30 82 H 10.1932 -3.6949 1.0644 0
M  V30 83 H 9.2376 -2.0189 -1.5819 0
M  V30 84 H 10.836 -2.3067 -0.853 0
M  V30 85 H 11.9265 -1.8825 1.3046 0
M  V30 86 H 10.9349 -1.1192 2.607 0
M  V30 87 H 11.6465 -2.7571 2.8532 0
M  V30 88 H 10.969 0.1274 -0.1823 0
M  V30 89 H 9.4013 0.4174 -1.0339 0
M  V30 90 H 10.8468 -0.1273 -1.9641 0
M  V30 END ATOM
M  V30 BEGIN BOND
M  V30 1 2 1 2
M  V30 2 1 2 3
M  V30 3 1 2 4
M  V30 4 1 3 5
M  V30 5 1 4 6
M  V30 6 2 4 7
M  V30 7 1 5 8
M  V30 8 3 6 9
M  V30 9 1 7 10
M  V30 10 1 8 11
M  V30 11 2 10 12
M  V30 12 1 10 13
M  V30 13 1 11 14
M  V30 14 1 11 15
M  V30 15 1 11 16
M  V30 16 1 12 17
M  V30 17 2 13 18
M  V30 18 1 14 19
M  V30 19 2 17 20
M  V30 20 1 19 21
M  V30 21 1 20 22
M  V30 22 1 21 23
M  V30 23 1 22 24
M  V30 24 1 22 25
M  V30 25 1 23 26
M  V30 26 1 24 27
M  V30 27 1 25 28
M  V30 28 2 26 29
M  V30 29 1 26 30
M  V30 30 1 30 31
M  V30 31 2 30 32
M  V30 32 3 31 33
M  V30 33 1 32 34
M  V30 34 2 34 35
M  V30 35 1 34 36
M  V30 36 1 35 37
M  V30 37 2 36 38
M  V30 38 2 37 39
M  V30 39 1 39 40
M  V30 40 1 40 41
M  V30 41 1 40 42
M  V30 42 1 41 43
M  V30 43 1 42 44
M  V30 44 1 18 20
M  V30 45 1 38 39
M  V30 46 1 5 45
M  V30 47 1 5 46
M  V30 48 1 7 47
M  V30 49 1 8 48
M  V30 50 1 8 49
M  V30 51 1 12 50
M  V30 52 1 13 51
M  V30 53 1 14 52
M  V30 54 1 14 53
M  V30 55 1 15 54
M  V30 56 1 15 55
M  V30 57 1 15 56
M  V30 58 1 16 57
M  V30 59 1 16 58
M  V30 60 1 16 59
M  V30 61 1 17 60
M  V30 62 1 18 61
M  V30 63 1 19 62
M  V30 64 1 19 63
M  V30 65 1 21 64
M  V30 66 1 21 65
M  V30 67 1 24 66
M  V30 68 1 24 67
M  V30 69 1 25 68
M  V30 70 1 25 69
M  V30 71 1 27 70
M  V30 72 1 27 71
M  V30 73 1 27 72
M  V30 74 1 28 73
M  V30 75 1 28 74
M  V30 76 1 28 75
M  V30 77 1 32 76
M  V30 78 1 35 77
M  V30 79 1 36 78
M  V30 80 1 37 79
M  V30 81 1 38 80
M  V30 82 1 41 81
M  V30 83 1 41 82
M  V30 84 1 42 83
M  V30 85 1 42 84
M  V30 86 1 43 85
M  V30 87 1 43 86
M  V30 88 1 43 87
M  V30 89 1 44 88
M  V30 90 1 44 89
M  V30 91 1 44 90
M  V30 END BOND
M  V30 END CTAB
M  END
>  <Structure No>
2893

>  <LogS>
-0.803618922

>  <MMFF94 Energy>
59.204

$$$$
Compound 2894
Actelion Java MolfileCreator 2.0

  0  0  0  0  0  0              0 V3000
M  V30 BEGIN CTAB
M  V30 COUNTS 15 14 0 0 0
M  V30 BEGIN ATOM
M  V30 1 S -1.4292 -0.4762 0.0952 0
M  V30 2 O -1.5738 -1.3882 -1.0909 0
M  V30 3 O -1.368 -1.2949 1.3544 0
M  V30 4 N 0.0064 0.4863 -0.0622 0 CHG=-1
M  V30 5 C -2.8409 0.6044 0.1729 0
M  V30 6 S 1.3957 -0.551 -0.1395 0
M  V30 7 F -2.9092 1.3594 -0.9824 0
M  V30 8 F -2.7202 1.445 1.263 0
M  V30 9 F -3.9938 -0.1469 0.2986 0
M  V30 10 O 1.5001 -1.3707 1.1161 0
M  V30 11 O 1.2944 -1.464 -1.3292 0
M  V30 12 C 2.8555 0.4538 -0.3006 0
M  V30 13 F 2.9607 1.2948 0.7908 0
M  V30 14 F 2.7717 1.2092 -1.4547 0
M  V30 15 F 3.9722 -0.3577 -0.3636 0
M  V30 END ATOM
M  V30 BEGIN BOND
M  V30 1 2 1 2
M  V30 2 2 1 3
M  V30 3 1 1 4
M  V30 4 1 1 5
M  V30 5 1 4 6
M  V30 6 1 5 7
M  V30 7 1 5 8
M  V30 8 1 5 9
M  V30 9 2 6 10
M  V30 10 2 6 11
M  V30 11 1 6 12
M  V30 12 1 12 13
M  V30 13 1 12 14
M  V30 14 1 12 15
M  V30 END BOND
M  V30 END CTAB
M  END
>  <Structure No>
2894

>  <LogS>
0.454144176

>  <MMFF94 Energy>
196.27

$$$$
Compound 2895
Actelion Java MolfileCreator 2.0

  0  0  0  0  0  0              0 V3000
M  V30 BEGIN CTAB
M  V30 COUNTS 41 43 0 0 0
M  V30 BEGIN ATOM
M  V30 1 Cl -6.7719 -3.1675 1.1121 0
M  V30 2 C -5.7603 -1.8221 0.6178 0
M  V30 3 C -6.2953 -0.5352 0.5497 0
M  V30 4 C -4.4167 -2.0369 0.3082 0
M  V30 5 C -5.4971 0.5425 0.1427 0
M  V30 6 C -3.5908 -0.971 -0.0682 0
M  V30 7 S -6.1979 2.1583 0.0202 0
M  V30 8 C -4.1478 0.3282 -0.2 0
M  V30 9 N -2.202 -1.254 -0.283 0
M  V30 10 O -5.4376 3.1021 0.9086 0
M  V30 11 O -7.6392 2.1418 0.4469 0
M  V30 12 O -6.1084 2.6858 -1.5719 0 CHG=-1
M  V30 13 O -3.4103 1.405 -0.7006 0
M  V30 14 N -1.284 -0.4096 -0.0388 0
M  V30 15 C 0.0964 -0.7107 -0.2609 0
M  V30 16 C 1.1531 0.1393 -0.0561 0
M  V30 17 C 0.6706 -1.8732 -0.7544 0
M  V30 18 O 1.0669 1.3314 0.3431 0
M  V30 19 N 2.3012 -0.485 -0.3981 0
M  V30 20 N 2.0093 -1.7056 -0.8324 0 CHG=-1
M  V30 21 C -0.031 -3.1261 -1.1677 0
M  V30 22 C 3.6419 0.0406 -0.3584 0
M  V30 23 C 4.03 0.9763 0.6189 0
M  V30 24 C 4.595 -0.4084 -1.288 0
M  V30 25 C 5.3425 1.4689 0.6519 0
M  V30 26 C 5.9003 0.0885 -1.2606 0
M  V30 27 S 5.8114 2.6493 1.8715 0
M  V30 28 C 6.273 1.0287 -0.2978 0
M  V30 29 O 7.2874 2.5526 2.1383 0
M  V30 30 O 5.0711 2.3802 3.1515 0
M  V30 31 O 5.4427 4.1938 1.3245 0 CHG=-1
M  V30 32 H -7.3365 -0.382 0.8025 0
M  V30 33 H -4.0026 -3.0347 0.3897 0
M  V30 34 H -2.5251 1.3034 -1.1769 0
M  V30 35 H 0.7072 -3.8858 -1.4996 0
M  V30 36 H -0.6038 -3.5365 -0.31 0
M  V30 37 H -0.7228 -2.9086 -2.008 0
M  V30 38 H 3.3254 1.3054 1.3702 0
M  V30 39 H 4.3228 -1.1331 -2.0448 0
M  V30 40 H 6.624 -0.2544 -1.9885 0
M  V30 41 H 7.2866 1.4087 -0.2917 0
M  V30 END ATOM
M  V30 BEGIN BOND
M  V30 1 1 1 2
M  V30 2 2 2 3
M  V30 3 1 2 4
M  V30 4 1 3 5
M  V30 5 2 4 6
M  V30 6 1 5 7
M  V30 7 2 5 8
M  V30 8 1 6 9
M  V30 9 2 7 10
M  V30 10 2 7 11
M  V30 11 1 7 12
M  V30 12 1 8 13
M  V30 13 2 9 14
M  V30 14 1 14 15
M  V30 15 1 15 16
M  V30 16 2 15 17
M  V30 17 2 16 18
M  V30 18 1 16 19
M  V30 19 1 17 20
M  V30 20 1 17 21
M  V30 21 1 19 22
M  V30 22 2 22 23
M  V30 23 1 22 24
M  V30 24 1 23 25
M  V30 25 2 24 26
M  V30 26 1 25 27
M  V30 27 2 25 28
M  V30 28 2 27 29
M  V30 29 2 27 30
M  V30 30 1 27 31
M  V30 31 1 6 8
M  V30 32 1 19 20
M  V30 33 1 26 28
M  V30 34 1 3 32
M  V30 35 1 4 33
M  V30 36 1 13 34
M  V30 37 1 21 35
M  V30 38 1 21 36
M  V30 39 1 21 37
M  V30 40 1 23 38
M  V30 41 1 24 39
M  V30 42 1 26 40
M  V30 43 1 28 41
M  V30 END BOND
M  V30 END CTAB
M  END
>  <Structure No>
2895

>  <LogS>
-1.133167485

>  <MMFF94 Energy>
227.2

$$$$
Compound 2896
Actelion Java MolfileCreator 2.0

  0  0  0  0  0  0              0 V3000
M  V30 BEGIN CTAB
M  V30 COUNTS 62 61 0 0 0
M  V30 BEGIN ATOM
M  V30 1 O -6.4731 -0.0777 -1.0116 0
M  V30 2 C -7.0489 0.3252 -2.2405 0
M  V30 3 C -5.6153 0.9273 -0.5117 0
M  V30 4 C -6.2526 -0.2418 -3.4178 0
M  V30 5 C -4.8963 0.396 0.7275 0
M  V30 6 O -6.1611 -1.6377 -3.3253 0
M  V30 7 C -3.9259 1.441 1.2979 0
M  V30 8 C -3.3266 1.0293 2.6554 0
M  V30 9 C -2.5317 -0.2892 2.6491 0
M  V30 10 C -1.2902 -0.238 1.7424 0
M  V30 11 C -0.4927 -1.5556 1.7528 0
M  V30 12 C 0.2772 -1.817 3.0599 0
M  V30 13 C 1.3221 -0.7637 3.3308 0
M  V30 14 C 2.5405 -0.7231 2.7608 0
M  V30 15 C 3.0909 -1.7711 1.821 0
M  V30 16 C 3.8936 -1.1328 0.6804 0
M  V30 17 C 2.9943 -0.3312 -0.2768 0
M  V30 18 C 3.7632 0.2116 -1.4915 0
M  V30 19 C 4.7476 1.3328 -1.1143 0
M  V30 20 C 5.3118 2.0695 -2.3426 0
M  V30 21 C 6.1267 1.1874 -3.3054 0
M  V30 22 C 7.3656 0.5762 -2.6528 0
M  V30 23 H -7.1475 1.4324 -2.3482 0
M  V30 24 H -8.0812 -0.0828 -2.2866 0
M  V30 25 H -6.209 1.8249 -0.2243 0
M  V30 26 H -4.8516 1.214 -1.2708 0
M  V30 27 H -5.2282 0.1848 -3.4166 0
M  V30 28 H -6.7379 0.0513 -4.3757 0
M  V30 29 H -4.3356 -0.5191 0.4407 0
M  V30 30 H -5.6522 0.1254 1.4972 0
M  V30 31 H -7.0447 -1.9995 -3.596 0
M  V30 32 H -3.1175 1.6492 0.5658 0
M  V30 33 H -4.4758 2.3957 1.4511 0
M  V30 34 H -2.6634 1.8473 3.0122 0
M  V30 35 H -4.1517 0.937 3.3952 0
M  V30 36 H -2.2139 -0.4794 3.6948 0
M  V30 37 H -3.1895 -1.1327 2.3515 0
M  V30 38 H -0.6373 0.6118 2.0362 0
M  V30 39 H -1.6143 -0.0635 0.6953 0
M  V30 40 H -1.184 -2.4056 1.5662 0
M  V30 41 H 0.2217 -1.5334 0.9039 0
M  V30 42 H 0.7471 -2.8228 3.0276 0
M  V30 43 H -0.4307 -1.8448 3.9132 0
M  V30 44 H 1.0695 0.0127 4.0479 0
M  V30 45 H 3.2112 0.0735 3.0696 0
M  V30 46 H 2.302 -2.4159 1.3861 0
M  V30 47 H 3.7678 -2.4304 2.4047 0
M  V30 48 H 4.3975 -1.9448 0.1119 0
M  V30 49 H 4.6824 -0.4793 1.1104 0
M  V30 50 H 2.1868 -0.9976 -0.6517 0
M  V30 51 H 2.5093 0.5103 0.2645 0
M  V30 52 H 4.3049 -0.6244 -1.9841 0
M  V30 53 H 3.0211 0.6108 -2.2176 0
M  V30 54 H 5.5821 0.9273 -0.5062 0
M  V30 55 H 4.219 2.0831 -0.4855 0
M  V30 56 H 4.4701 2.5262 -2.907 0
M  V30 57 H 5.9549 2.9049 -1.9898 0
M  V30 58 H 6.4598 1.8216 -4.1554 0
M  V30 59 H 5.4913 0.3824 -3.7304 0
M  V30 60 H 7.0757 -0.1991 -1.9133 0
M  V30 61 H 7.9691 1.3623 -2.152 0
M  V30 62 H 7.9916 0.0918 -3.4315 0
M  V30 END ATOM
M  V30 BEGIN BOND
M  V30 1 1 1 2
M  V30 2 1 1 3
M  V30 3 1 2 4
M  V30 4 1 3 5
M  V30 5 1 4 6
M  V30 6 1 5 7
M  V30 7 1 7 8
M  V30 8 1 8 9
M  V30 9 1 9 10
M  V30 10 1 10 11
M  V30 11 1 11 12
M  V30 12 1 12 13
M  V30 13 2 13 14
M  V30 14 1 14 15
M  V30 15 1 15 16
M  V30 16 1 16 17
M  V30 17 1 17 18
M  V30 18 1 18 19
M  V30 19 1 19 20
M  V30 20 1 20 21
M  V30 21 1 21 22
M  V30 22 1 2 23
M  V30 23 1 2 24
M  V30 24 1 3 25
M  V30 25 1 3 26
M  V30 26 1 4 27
M  V30 27 1 4 28
M  V30 28 1 5 29
M  V30 29 1 5 30
M  V30 30 1 6 31
M  V30 31 1 7 32
M  V30 32 1 7 33
M  V30 33 1 8 34
M  V30 34 1 8 35
M  V30 35 1 9 36
M  V30 36 1 9 37
M  V30 37 1 10 38
M  V30 38 1 10 39
M  V30 39 1 11 40
M  V30 40 1 11 41
M  V30 41 1 12 42
M  V30 42 1 12 43
M  V30 43 1 13 44
M  V30 44 1 14 45
M  V30 45 1 15 46
M  V30 46 1 15 47
M  V30 47 1 16 48
M  V30 48 1 16 49
M  V30 49 1 17 50
M  V30 50 1 17 51
M  V30 51 1 18 52
M  V30 52 1 18 53
M  V30 53 1 19 54
M  V30 54 1 19 55
M  V30 55 1 20 56
M  V30 56 1 20 57
M  V30 57 1 21 58
M  V30 58 1 21 59
M  V30 59 1 22 60
M  V30 60 1 22 61
M  V30 61 1 22 62
M  V30 END BOND
M  V30 END CTAB
M  END
>  <Structure No>
2896

>  <LogS>
-2.494902829

>  <MMFF94 Energy>
29.255

$$$$
Compound 2897
Actelion Java MolfileCreator 2.0

  0  0  0  0  0  0              0 V3000
M  V30 BEGIN CTAB
M  V30 COUNTS 45 47 0 0 0
M  V30 BEGIN ATOM
M  V30 1 O -0.8829 4.9842 0.2407 0
M  V30 2 C -1.5764 3.9452 0.3985 0
M  V30 3 O -1.4747 3.2228 1.5807 0 CHG=-1
M  V30 4 C -2.4716 3.4627 -0.7012 0
M  V30 5 C -1.6933 2.6687 -1.7576 0
M  V30 6 C -1.1568 1.3723 -1.2012 0
M  V30 7 C 0.1591 1.2966 -0.7472 0
M  V30 8 C -1.9965 0.26 -1.076 0
M  V30 9 C 0.6557 0.1161 -0.1894 0
M  V30 10 C -1.5344 -0.964 -0.5316 0
M  V30 11 N 1.9919 0.113 0.3372 0
M  V30 12 C -0.1705 -1.031 -0.1219 0
M  V30 13 C -2.4739 -2.197 -0.4124 0
M  V30 14 N 2.3188 -0.4095 1.519 0
M  V30 15 N 3.0143 0.7219 -0.2625 0
M  V30 16 O 0.362 -2.2456 0.3146 0
M  V30 17 C -2.5382 -2.6789 1.0564 0
M  V30 18 C -1.9656 -3.3401 -1.3196 0
M  V30 19 C -3.9327 -1.8929 -0.8436 0
M  V30 20 C 3.6242 -0.1387 1.6629 0
M  V30 21 C 4.0498 0.5539 0.5728 0
M  V30 22 C 4.4732 -0.459 2.7174 0
M  V30 23 C 5.3638 0.9904 0.4368 0
M  V30 24 C 5.8145 -0.0379 2.6175 0
M  V30 25 C 6.2578 0.6835 1.4823 0
M  V30 26 H -3.2836 2.8347 -0.2743 0
M  V30 27 H -2.9496 4.3399 -1.1884 0
M  V30 28 H -2.372 2.4475 -2.6102 0
M  V30 29 H -0.867 3.293 -2.1646 0
M  V30 30 H 0.7947 2.1727 -0.7983 0
M  V30 31 H -3.0132 0.3801 -1.4167 0
M  V30 32 H 1.3513 -2.4072 0.4458 0
M  V30 33 H -1.5767 -3.098 1.4097 0
M  V30 34 H -3.2941 -3.4854 1.1752 0
M  V30 35 H -2.8207 -1.8373 1.7253 0
M  V30 36 H -0.9905 -3.7437 -0.9852 0
M  V30 37 H -1.8543 -2.9806 -2.3653 0
M  V30 38 H -2.6811 -4.1911 -1.3188 0
M  V30 39 H -4.3683 -1.079 -0.2239 0
M  V30 40 H -4.5802 -2.7879 -0.7162 0
M  V30 41 H -3.9813 -1.6099 -1.9174 0
M  V30 42 H 4.1186 -1.0082 3.5799 0
M  V30 43 H 5.6866 1.5436 -0.4353 0
M  V30 44 H 6.5097 -0.2663 3.4147 0
M  V30 45 H 7.2896 1.003 1.4176 0
M  V30 END ATOM
M  V30 BEGIN BOND
M  V30 1 2 1 2
M  V30 2 1 2 3
M  V30 3 1 2 4
M  V30 4 1 4 5
M  V30 5 1 5 6
M  V30 6 2 6 7
M  V30 7 1 6 8
M  V30 8 1 7 9
M  V30 9 2 8 10
M  V30 10 1 9 11
M  V30 11 2 9 12
M  V30 12 1 10 13
M  V30 13 1 11 14
M  V30 14 1 11 15
M  V30 15 1 12 16
M  V30 16 1 13 17
M  V30 17 1 13 18
M  V30 18 1 13 19
M  V30 19 2 14 20
M  V30 20 2 15 21
M  V30 21 1 20 22
M  V30 22 1 21 23
M  V30 23 2 22 24
M  V30 24 2 23 25
M  V30 25 1 10 12
M  V30 26 1 20 21
M  V30 27 1 24 25
M  V30 28 1 4 26
M  V30 29 1 4 27
M  V30 30 1 5 28
M  V30 31 1 5 29
M  V30 32 1 7 30
M  V30 33 1 8 31
M  V30 34 1 16 32
M  V30 35 1 17 33
M  V30 36 1 17 34
M  V30 37 1 17 35
M  V30 38 1 18 36
M  V30 39 1 18 37
M  V30 40 1 18 38
M  V30 41 1 19 39
M  V30 42 1 19 40
M  V30 43 1 19 41
M  V30 44 1 22 42
M  V30 45 1 23 43
M  V30 46 1 24 44
M  V30 47 1 25 45
M  V30 END BOND
M  V30 END CTAB
M  END
>  <Structure No>
2897

>  <LogS>
-5.53070544

>  <MMFF94 Energy>
73.789

$$$$
Compound 2898
Actelion Java MolfileCreator 2.0

  0  0  0  0  0  0              0 V3000
M  V30 BEGIN CTAB
M  V30 COUNTS 68 67 0 0 0
M  V30 BEGIN ATOM
M  V30 1 O -6.8182 1.0947 0.9382 0
M  V30 2 C -6.2906 1.1168 -0.2067 0
M  V30 3 O -7.0471 1.436 -1.3403 0
M  V30 4 C -4.837 0.8008 -0.3639 0
M  V30 5 C -8.4503 1.6908 -1.3053 0
M  V30 6 C -4.5729 -0.6891 -0.1028 0
M  V30 7 C -9.241 0.3835 -1.1658 0 CFG=2
M  V30 8 C -3.179 -1.1399 -0.5732 0
M  V30 9 O -8.9216 -0.4588 -2.2441 0
M  V30 10 C -10.7476 0.6709 -1.1621 0
M  V30 11 C -1.9991 -0.4068 0.0901 0
M  V30 12 O -11.4636 -0.5206 -0.9735 0
M  V30 13 C -1.8875 -0.6961 1.5973 0
M  V30 14 C -0.6639 -0.0206 2.2384 0
M  V30 15 C 0.6547 -0.7239 1.8841 0
M  V30 16 C 1.8444 -0.0578 2.5906 0
M  V30 17 C 3.1642 -0.8211 2.3912 0
M  V30 18 C 3.6659 -0.7744 0.9377 0
M  V30 19 C 5.0279 -1.4802 0.7481 0 CFG=1
M  V30 20 O 5.3287 -1.5671 -0.6202 0
M  V30 21 C 6.2091 -0.8136 1.4928 0
M  V30 22 C 6.3683 0.7115 1.3071 0
M  V30 23 C 6.553 1.1896 -0.1444 0
M  V30 24 C 7.837 0.6556 -0.7951 0
M  V30 25 C 8.0225 1.2435 -2.1996 0
M  V30 26 C 9.2978 0.7185 -2.8526 0
M  V30 27 H -4.5185 1.069 -1.3951 0
M  V30 28 H -4.2592 1.4223 0.3519 0
M  V30 29 H -8.6912 2.3872 -0.4756 0
M  V30 30 H -8.7343 2.1851 -2.2568 0
M  V30 31 H -4.7101 -0.9158 0.9766 0
M  V30 32 H -5.3234 -1.2937 -0.6593 0
M  V30 33 H -8.964 -0.1004 -0.1994 0
M  V30 34 H -3.1104 -0.9877 -1.6724 0
M  V30 35 H -3.0787 -2.2318 -0.3925 0
M  V30 36 H -9.0909 -1.3881 -1.9433 0
M  V30 37 H -11.0419 1.1351 -2.1324 0
M  V30 38 H -10.9901 1.3809 -0.3409 0
M  V30 39 H -2.0752 0.6855 -0.0868 0
M  V30 40 H -1.0771 -0.7515 -0.4205 0
M  V30 41 H -12.4242 -0.275 -1.0195 0
M  V30 42 H -2.7911 -0.3023 2.1095 0
M  V30 43 H -1.8485 -1.7933 1.7739 0
M  V30 44 H -0.6201 1.0462 1.9319 0
M  V30 45 H -0.7955 -0.0497 3.3422 0
M  V30 46 H 0.5944 -1.7923 2.1853 0
M  V30 47 H 0.8116 -0.6701 0.7899 0
M  V30 48 H 1.9597 0.9861 2.2301 0
M  V30 49 H 1.6379 -0.0146 3.6818 0
M  V30 50 H 3.92 -0.3542 3.0576 0
M  V30 51 H 3.0367 -1.8769 2.7123 0
M  V30 52 H 3.7161 0.2742 0.5805 0
M  V30 53 H 2.929 -1.2972 0.2934 0
M  V30 54 H 4.941 -2.5137 1.1592 0
M  V30 55 H 4.7914 -2.3154 -0.9919 0
M  V30 56 H 7.1515 -1.3212 1.1976 0
M  V30 57 H 6.0997 -1.0133 2.5825 0
M  V30 58 H 5.4911 1.2314 1.7465 0
M  V30 59 H 7.248 1.0407 1.9015 0
M  V30 60 H 6.6031 2.3002 -0.1242 0
M  V30 61 H 5.6697 0.9187 -0.7579 0
M  V30 62 H 8.7107 0.9259 -0.1622 0
M  V30 63 H 7.7859 -0.4509 -0.8753 0
M  V30 64 H 8.0786 2.3536 -2.142 0
M  V30 65 H 7.1529 0.9658 -2.8378 0
M  V30 66 H 10.1863 0.9964 -2.2466 0
M  V30 67 H 9.4055 1.1595 -3.866 0
M  V30 68 H 9.2538 -0.3873 -2.9506 0
M  V30 END ATOM
M  V30 BEGIN BOND
M  V30 1 2 1 2
M  V30 2 1 2 3
M  V30 3 1 2 4
M  V30 4 1 3 5
M  V30 5 1 4 6
M  V30 6 1 5 7
M  V30 7 1 6 8
M  V30 8 1 7 9
M  V30 9 1 7 10
M  V30 10 1 8 11
M  V30 11 1 10 12
M  V30 12 1 11 13
M  V30 13 1 13 14
M  V30 14 1 14 15
M  V30 15 1 15 16
M  V30 16 1 16 17
M  V30 17 1 17 18
M  V30 18 1 18 19
M  V30 19 1 19 20
M  V30 20 1 19 21
M  V30 21 1 21 22
M  V30 22 1 22 23
M  V30 23 1 23 24
M  V30 24 1 24 25
M  V30 25 1 25 26
M  V30 26 1 4 27
M  V30 27 1 4 28
M  V30 28 1 5 29
M  V30 29 1 5 30
M  V30 30 1 6 31
M  V30 31 1 6 32
M  V30 32 1 7 33
M  V30 33 1 8 34
M  V30 34 1 8 35
M  V30 35 1 9 36
M  V30 36 1 10 37
M  V30 37 1 10 38
M  V30 38 1 11 39
M  V30 39 1 11 40
M  V30 40 1 12 41
M  V30 41 1 13 42
M  V30 42 1 13 43
M  V30 43 1 14 44
M  V30 44 1 14 45
M  V30 45 1 15 46
M  V30 46 1 15 47
M  V30 47 1 16 48
M  V30 48 1 16 49
M  V30 49 1 17 50
M  V30 50 1 17 51
M  V30 51 1 18 52
M  V30 52 1 18 53
M  V30 53 1 19 54
M  V30 54 1 20 55
M  V30 55 1 21 56
M  V30 56 1 21 57
M  V30 57 1 22 58
M  V30 58 1 22 59
M  V30 59 1 23 60
M  V30 60 1 23 61
M  V30 61 1 24 62
M  V30 62 1 24 63
M  V30 63 1 25 64
M  V30 64 1 25 65
M  V30 65 1 26 66
M  V30 66 1 26 67
M  V30 67 1 26 68
M  V30 END BOND
M  V30 BEGIN COLLECTION
M  V30 MDLV30/STEABS ATOMS=(2 7 19)
M  V30 END COLLECTION
M  V30 END CTAB
M  END
>  <Structure No>
2898

>  <LogS>
-3.397432456

>  <MMFF94 Energy>
27.768

$$$$
Compound 2899
Actelion Java MolfileCreator 2.0

  0  0  0  0  0  0              0 V3000
M  V30 BEGIN CTAB
M  V30 COUNTS 75 78 0 0 0
M  V30 BEGIN ATOM
M  V30 1 O 0.3977 2.9461 -1.5916 0
M  V30 2 C 0.1 3.8467 -0.7593 0
M  V30 3 O -0.3159 5.1039 -1.2159 0
M  V30 4 C 0.2015 3.5947 0.7024 0
M  V30 5 C -0.4468 5.4131 -2.5982 0
M  V30 6 C 0.2681 2.2869 1.2564 0
M  V30 7 C 0.2259 4.6998 1.5757 0
M  V30 8 C 0.2172 1.0635 0.4189 0
M  V30 9 C 0.3715 2.1245 2.6476 0
M  V30 10 C 0.3297 4.5191 2.9564 0
M  V30 11 C 1.4826 0.3446 0.1035 0
M  V30 12 C -0.9677 0.5469 0.0122 0
M  V30 13 C 0.4029 3.2346 3.4915 0
M  V30 14 C 1.4023 -0.9276 -0.4757 0
M  V30 15 C 2.7462 0.8758 0.4191 0
M  V30 16 C -2.2644 1.1885 0.3203 0
M  V30 17 C -1.0074 -0.639 -0.9246 0 CFG=1
M  V30 18 O 0.1525 -1.4618 -0.7924 0
M  V30 19 C 2.5585 -1.6716 -0.7122 0
M  V30 20 C 3.9181 0.1437 0.1669 0
M  V30 21 C -3.4215 0.514 0.1858 0
M  V30 22 C -2.238 -1.4677 -0.6901 0
M  V30 23 C 3.8195 -1.1526 -0.3879 0
M  V30 24 C 5.2413 0.7456 0.5577 0
M  V30 25 C -3.3962 -0.948 -0.2177 0
M  V30 26 C -4.7058 1.2956 0.358 0
M  V30 27 N 4.9853 -1.9626 -0.6197 0
M  V30 28 N -4.5231 -1.8552 0.0156 0 CHG=1
M  V30 29 C 5.6582 -2.6159 0.5107 0
M  V30 30 C 5.4148 -2.2411 -1.9951 0
M  V30 31 C -4.7081 -2.0426 1.477 0
M  V30 32 C -5.7527 -1.4151 -0.7052 0
M  V30 33 C 4.8111 -3.7661 1.0477 0
M  V30 34 C 6.608 -1.3695 -2.3716 0
M  V30 35 C -5.7079 -3.1524 1.8195 0
M  V30 36 C -6.4379 -2.5625 -1.4597 0
M  V30 37 H -1.1972 4.7411 -3.0686 0
M  V30 38 H 0.5343 5.2978 -3.1084 0
M  V30 39 H -0.7867 6.4644 -2.7052 0
M  V30 40 H 0.1785 5.7113 1.1909 0
M  V30 41 H 0.4212 1.1317 3.0786 0
M  V30 42 H 0.357 5.3788 3.6134 0
M  V30 43 H 0.4813 3.0985 4.5622 0
M  V30 44 H 2.8282 1.8587 0.8676 0
M  V30 45 H -2.2799 2.2257 0.6318 0
M  V30 46 H -1.0431 -0.2486 -1.9638 0
M  V30 47 H 2.4764 -2.6624 -1.1419 0
M  V30 48 H -2.1827 -2.5143 -0.9644 0
M  V30 49 H 5.2345 1.8422 0.3789 0
M  V30 50 H 5.4274 0.5613 1.6364 0
M  V30 51 H 6.0795 0.3198 -0.0292 0
M  V30 52 H -5.4285 0.779 1.0108 0
M  V30 53 H -5.1648 1.4836 -0.6347 0
M  V30 54 H -4.5294 2.2878 0.8286 0
M  V30 55 H -4.2621 -2.8008 -0.3545 0
M  V30 56 H 6.6458 -3.018 0.1944 0
M  V30 57 H 5.8418 -1.883 1.3237 0
M  V30 58 H 4.5836 -2.0481 -2.7111 0
M  V30 59 H 5.6963 -3.3132 -2.0925 0
M  V30 60 H -5.0393 -1.1113 1.9746 0
M  V30 61 H -3.7344 -2.3229 1.9408 0
M  V30 62 H -6.4946 -0.9651 -0.0107 0
M  V30 63 H -5.5134 -0.6498 -1.4768 0
M  V30 64 H 3.8483 -3.3835 1.4498 0
M  V30 65 H 4.5988 -4.4943 0.2386 0
M  V30 66 H 5.3567 -4.2815 1.8652 0
M  V30 67 H 7.4448 -1.5317 -1.6586 0
M  V30 68 H 6.3198 -0.2957 -2.3639 0
M  V30 69 H 6.9558 -1.637 -3.3914 0
M  V30 70 H -5.4444 -4.0942 1.2946 0
M  V30 71 H -5.6823 -3.3422 2.9128 0
M  V30 72 H -6.7402 -2.8416 1.5515 0
M  V30 73 H -5.7611 -2.9588 -2.2466 0
M  V30 74 H -7.3603 -2.1849 -1.9504 0
M  V30 75 H -6.719 -3.387 -0.7743 0
M  V30 END ATOM
M  V30 BEGIN BOND
M  V30 1 2 1 2
M  V30 2 1 2 3
M  V30 3 1 2 4
M  V30 4 1 3 5
M  V30 5 2 4 6
M  V30 6 1 4 7
M  V30 7 1 6 8
M  V30 8 1 6 9
M  V30 9 2 7 10
M  V30 10 1 8 11
M  V30 11 2 8 12
M  V30 12 2 9 13
M  V30 13 2 11 14
M  V30 14 1 11 15
M  V30 15 1 12 16
M  V30 16 1 12 17
M  V30 17 1 14 18
M  V30 18 1 14 19
M  V30 19 2 15 20
M  V30 20 2 16 21
M  V30 21 1 17 22
M  V30 22 2 19 23
M  V30 23 1 20 24
M  V30 24 1 21 25
M  V30 25 1 21 26
M  V30 26 1 23 27
M  V30 27 1 25 28
M  V30 28 1 27 29
M  V30 29 1 27 30
M  V30 30 1 28 31
M  V30 31 1 28 32
M  V30 32 1 29 33
M  V30 33 1 30 34
M  V30 34 1 31 35
M  V30 35 1 32 36
M  V30 36 1 10 13
M  V30 37 1 17 18
M  V30 38 1 20 23
M  V30 39 2 22 25
M  V30 40 1 5 37
M  V30 41 1 5 38
M  V30 42 1 5 39
M  V30 43 1 7 40
M  V30 44 1 9 41
M  V30 45 1 10 42
M  V30 46 1 13 43
M  V30 47 1 15 44
M  V30 48 1 16 45
M  V30 49 1 17 46
M  V30 50 1 19 47
M  V30 51 1 22 48
M  V30 52 1 24 49
M  V30 53 1 24 50
M  V30 54 1 24 51
M  V30 55 1 26 52
M  V30 56 1 26 53
M  V30 57 1 26 54
M  V30 58 1 28 55
M  V30 59 1 29 56
M  V30 60 1 29 57
M  V30 61 1 30 58
M  V30 62 1 30 59
M  V30 63 1 31 60
M  V30 64 1 31 61
M  V30 65 1 32 62
M  V30 66 1 32 63
M  V30 67 1 33 64
M  V30 68 1 33 65
M  V30 69 1 33 66
M  V30 70 1 34 67
M  V30 71 1 34 68
M  V30 72 1 34 69
M  V30 73 1 35 70
M  V30 74 1 35 71
M  V30 75 1 35 72
M  V30 76 1 36 73
M  V30 77 1 36 74
M  V30 78 1 36 75
M  V30 END BOND
M  V30 BEGIN COLLECTION
M  V30 MDLV30/STEABS ATOMS=(1 17)
M  V30 END COLLECTION
M  V30 END CTAB
M  END
>  <Structure No>
2899

>  <LogS>
-7.687222082

>  <MMFF94 Energy>
79.451

$$$$
Compound 2900
Actelion Java MolfileCreator 2.0

  0  0  0  0  0  0              0 V3000
M  V30 BEGIN CTAB
M  V30 COUNTS 89 90 0 0 0
M  V30 BEGIN ATOM
M  V30 1 O -5.0255 -2.8693 1.1151 0
M  V30 2 C -5.8411 -2.083 0.5626 0
M  V30 3 O -6.5851 -2.5094 -0.5471 0
M  V30 4 C -6.0714 -0.7068 1.1571 0 CFG=1
M  V30 5 C -6.2835 -3.6845 -1.2929 0
M  V30 6 N -4.8471 -0.162 1.7883 0
M  V30 7 C -6.6636 0.3098 0.1504 0
M  V30 8 C -5.0438 -3.4652 -2.1548 0
M  V30 9 C -3.6741 -0.0228 0.8861 0 CFG=1
M  V30 10 C -8.0701 -0.0307 -0.2516 0
M  V30 11 C -3.4597 1.4755 0.5391 0
M  V30 12 C -2.4056 -0.6633 1.5147 0
M  V30 13 O -8.3657 -0.1268 -1.4744 0
M  V30 14 O -9.0441 -0.2245 0.7358 0
M  V30 15 C -2.3592 2.1273 1.3867 0
M  V30 16 C -1.1345 -0.0884 0.8856 0
M  V30 17 C -10.3933 -0.5597 0.4296 0
M  V30 18 C -0.9826 1.4212 1.2011 0 CFG=1
M  V30 19 C -11.1827 -0.6917 1.7208 0
M  V30 20 C -0.1295 2.1447 0.1301 0
M  V30 21 C 1.3744 1.7376 0.1439 0 CFG=1
M  V30 22 C 1.6857 0.6603 -0.9257 0
M  V30 23 C 2.2682 2.9857 -0.0716 0
M  V30 24 C 3.1812 0.3008 -0.953 0
M  V30 25 C 3.7537 2.6097 -0.0726 0
M  V30 26 C 4.0413 1.5638 -1.1692 0 CFG=1
M  V30 27 N 5.4782 1.2583 -1.3746 0
M  V30 28 C 6.3917 1.2282 -0.2063 0 CFG=2
M  V30 29 C 7.8201 1.4002 -0.6631 0
M  V30 30 C 6.2461 -0.0495 0.655 0
M  V30 31 O 8.1236 1.2817 -1.8845 0
M  V30 32 O 8.8046 1.7009 0.283 0
M  V30 33 C 6.3046 -1.3274 -0.1378 0
M  V30 34 C 10.1827 1.8774 -0.0391 0
M  V30 35 O 7.2563 -1.5201 -0.9486 0
M  V30 36 O 5.3133 -2.3015 0.0479 0
M  V30 37 C 10.4139 3.2361 -0.6854 0
M  V30 38 C 5.2909 -3.5154 -0.6979 0
M  V30 39 C 4.13 -4.3835 -0.221 0
M  V30 40 H -6.8192 -0.841 1.9731 0
M  V30 41 H -7.1471 -3.9074 -1.9557 0
M  V30 42 H -6.1468 -4.5527 -0.6037 0
M  V30 43 H -4.6305 -0.7564 2.6211 0
M  V30 44 H -6.6957 1.3117 0.6306 0
M  V30 45 H -6.0193 0.3836 -0.7554 0
M  V30 46 H -5.2151 -2.6136 -2.8444 0
M  V30 47 H -4.1611 -3.2447 -1.5183 0
M  V30 48 H -4.8276 -4.3809 -2.7429 0
M  V30 49 H -3.8463 -0.5491 -0.08 0
M  V30 50 H -4.4003 2.0489 0.6692 0
M  V30 51 H -3.1788 1.5683 -0.5342 0
M  V30 52 H -2.4286 -1.7625 1.3642 0
M  V30 53 H -2.3719 -0.4765 2.6094 0
M  V30 54 H -2.6509 2.0715 2.4596 0
M  V30 55 H -2.2997 3.2121 1.1484 0
M  V30 56 H -0.2514 -0.6385 1.28 0
M  V30 57 H -1.1889 -0.2535 -0.2137 0
M  V30 58 H -10.4198 -1.5195 -0.1251 0
M  V30 59 H -10.8496 0.2358 -0.1972 0
M  V30 60 H -0.4562 1.5138 2.1783 0
M  V30 61 H -12.2366 -0.9762 1.4985 0
M  V30 62 H -10.726 -1.4716 2.369 0
M  V30 63 H -11.1809 0.2758 2.2651 0
M  V30 64 H -0.5806 1.9915 -0.8792 0
M  V30 65 H -0.2038 3.2376 0.3318 0
M  V30 66 H 1.632 1.3124 1.1422 0
M  V30 67 H 1.3764 1.0205 -1.9319 0
M  V30 68 H 1.1135 -0.2676 -0.7136 0
M  V30 69 H 2.0104 3.4772 -1.0386 0
M  V30 70 H 2.0894 3.7196 0.7496 0
M  V30 71 H 3.4404 -0.1972 0.0032 0
M  V30 72 H 3.3635 -0.4218 -1.7817 0
M  V30 73 H 4.0074 2.2022 0.9289 0
M  V30 74 H 4.3613 3.5223 -0.2586 0
M  V30 75 H 3.6983 2.0151 -2.1279 0
M  V30 76 H 5.5968 0.4156 -1.9837 0
M  V30 77 H 6.2062 2.105 0.4476 0
M  V30 78 H 7.0557 -0.0729 1.4205 0
M  V30 79 H 5.2935 -0.0043 1.2276 0
M  V30 80 H 10.5346 1.0558 -0.7053 0
M  V30 81 H 10.7696 1.8329 0.9 0
M  V30 82 H 11.4984 3.3847 -0.8601 0
M  V30 83 H 10.0339 4.0418 -0.0241 0
M  V30 84 H 9.8914 3.2908 -1.6625 0
M  V30 85 H 5.1571 -3.2783 -1.7781 0
M  V30 86 H 6.256 -4.068 -0.5551 0
M  V30 87 H 3.1612 -3.8399 -0.3312 0
M  V30 88 H 4.0949 -5.317 -0.8278 0
M  V30 89 H 4.277 -4.6517 0.8521 0
M  V30 END ATOM
M  V30 BEGIN BOND
M  V30 1 2 1 2
M  V30 2 1 2 3
M  V30 3 1 2 4
M  V30 4 1 3 5
M  V30 5 1 4 6
M  V30 6 1 4 7
M  V30 7 1 5 8
M  V30 8 1 6 9
M  V30 9 1 7 10
M  V30 10 1 9 11
M  V30 11 1 9 12
M  V30 12 2 10 13
M  V30 13 1 10 14
M  V30 14 1 11 15
M  V30 15 1 12 16
M  V30 16 1 14 17
M  V30 17 1 15 18
M  V30 18 1 17 19
M  V30 19 1 18 20
M  V30 20 1 20 21
M  V30 21 1 21 22
M  V30 22 1 21 23
M  V30 23 1 22 24
M  V30 24 1 23 25
M  V30 25 1 24 26
M  V30 26 1 26 27
M  V30 27 1 27 28
M  V30 28 1 28 29
M  V30 29 1 28 30
M  V30 30 2 29 31
M  V30 31 1 29 32
M  V30 32 1 30 33
M  V30 33 1 32 34
M  V30 34 2 33 35
M  V30 35 1 33 36
M  V30 36 1 34 37
M  V30 37 1 36 38
M  V30 38 1 38 39
M  V30 39 1 16 18
M  V30 40 1 25 26
M  V30 41 1 4 40
M  V30 42 1 5 41
M  V30 43 1 5 42
M  V30 44 1 6 43
M  V30 45 1 7 44
M  V30 46 1 7 45
M  V30 47 1 8 46
M  V30 48 1 8 47
M  V30 49 1 8 48
M  V30 50 1 9 49
M  V30 51 1 11 50
M  V30 52 1 11 51
M  V30 53 1 12 52
M  V30 54 1 12 53
M  V30 55 1 15 54
M  V30 56 1 15 55
M  V30 57 1 16 56
M  V30 58 1 16 57
M  V30 59 1 17 58
M  V30 60 1 17 59
M  V30 61 1 18 60
M  V30 62 1 19 61
M  V30 63 1 19 62
M  V30 64 1 19 63
M  V30 65 1 20 64
M  V30 66 1 20 65
M  V30 67 1 21 66
M  V30 68 1 22 67
M  V30 69 1 22 68
M  V30 70 1 23 69
M  V30 71 1 23 70
M  V30 72 1 24 71
M  V30 73 1 24 72
M  V30 74 1 25 73
M  V30 75 1 25 74
M  V30 76 1 26 75
M  V30 77 1 27 76
M  V30 78 1 28 77
M  V30 79 1 30 78
M  V30 80 1 30 79
M  V30 81 1 34 80
M  V30 82 1 34 81
M  V30 83 1 37 82
M  V30 84 1 37 83
M  V30 85 1 37 84
M  V30 86 1 38 85
M  V30 87 1 38 86
M  V30 88 1 39 87
M  V30 89 1 39 88
M  V30 90 1 39 89
M  V30 END BOND
M  V30 BEGIN COLLECTION
M  V30 MDLV30/STEABS ATOMS=(6 4 9 18 21 26 28)
M  V30 END COLLECTION
M  V30 END CTAB
M  END
>  <Structure No>
2900

>  <LogS>
-3.744077739

>  <MMFF94 Energy>
49.545

$$$$
Compound 2901
Actelion Java MolfileCreator 2.0

  0  0  0  0  0  0              0 V3000
M  V30 BEGIN CTAB
M  V30 COUNTS 50 49 0 0 0
M  V30 BEGIN ATOM
M  V30 1 C -1.0913 -0.7014 -0.0779 0
M  V30 2 C -1.9155 0.4802 -0.7447 0
M  V30 3 C 0.4151 -0.4875 -0.5019 0
M  V30 4 C -1.1948 -0.6912 1.461 0
M  V30 5 C -1.6087 -2.0543 -0.638 0
M  V30 6 C -3.335 0.9565 -0.2463 0
M  V30 7 C 1.5694 -1.2899 0.1778 0 CFG=2
M  V30 8 C -3.8645 1.9674 -1.2949 0
M  V30 9 C -3.2578 1.709 1.1051 0
M  V30 10 C -4.3716 -0.1798 -0.1493 0
M  V30 11 C 2.9608 -0.9468 -0.4508 0
M  V30 12 C 1.3645 -2.8147 0.088 0
M  V30 13 C 3.5729 0.4889 -0.2527 0
M  V30 14 C 3.2355 1.0899 1.1288 0
M  V30 15 C 5.1136 0.3705 -0.3491 0
M  V30 16 C 3.1268 1.4579 -1.3742 0
M  V30 17 H -2.0009 0.23 -1.8268 0
M  V30 18 H -1.2909 1.4003 -0.7367 0
M  V30 19 H 0.5032 -0.592 -1.6063 0
M  V30 20 H 0.6372 0.5641 -0.2644 0
M  V30 21 H -0.5425 -1.4597 1.9181 0
M  V30 22 H -2.2146 -0.9489 1.7992 0
M  V30 23 H -0.8909 0.2971 1.8665 0
M  V30 24 H -1.2133 -2.2402 -1.6593 0
M  V30 25 H -2.7061 -2.0872 -0.7169 0
M  V30 26 H -1.3472 -2.9096 0.0102 0
M  V30 27 H 1.6097 -1.0337 1.2569 0
M  V30 28 H -4.8666 2.3566 -1.01 0
M  V30 29 H -3.1751 2.8344 -1.3902 0
M  V30 30 H -3.961 1.4893 -2.294 0
M  V30 31 H -4.1818 2.3025 1.2784 0
M  V30 32 H -3.1807 1.0245 1.9693 0
M  V30 33 H -2.3965 2.4105 1.1215 0
M  V30 34 H -4.4747 -0.7001 -1.1254 0
M  V30 35 H -4.1099 -0.9142 0.6357 0
M  V30 36 H -5.3698 0.2299 0.1182 0
M  V30 37 H 3.6866 -1.6661 -0.01 0
M  V30 38 H 2.9351 -1.1921 -1.5359 0
M  V30 39 H 1.0522 -3.1146 -0.9346 0
M  V30 40 H 2.296 -3.366 0.3362 0
M  V30 41 H 0.6284 -3.1565 0.8393 0
M  V30 42 H 3.5294 0.3889 1.9395 0
M  V30 43 H 2.1546 1.3133 1.2281 0
M  V30 44 H 3.7818 2.0456 1.2831 0
M  V30 45 H 5.4112 -0.0765 -1.3226 0
M  V30 46 H 5.5992 1.3671 -0.2626 0
M  V30 47 H 5.5143 -0.271 0.4656 0
M  V30 48 H 2.0565 1.7199 -1.3224 0
M  V30 49 H 3.6859 2.4163 -1.3044 0
M  V30 50 H 3.3288 1.0193 -2.375 0
M  V30 END ATOM
M  V30 BEGIN BOND
M  V30 1 1 1 2
M  V30 2 1 1 3
M  V30 3 1 1 4
M  V30 4 1 1 5
M  V30 5 1 2 6
M  V30 6 1 3 7
M  V30 7 1 6 8
M  V30 8 1 6 9
M  V30 9 1 6 10
M  V30 10 1 7 11
M  V30 11 1 7 12
M  V30 12 1 11 13
M  V30 13 1 13 14
M  V30 14 1 13 15
M  V30 15 1 13 16
M  V30 16 1 2 17
M  V30 17 1 2 18
M  V30 18 1 3 19
M  V30 19 1 3 20
M  V30 20 1 4 21
M  V30 21 1 4 22
M  V30 22 1 4 23
M  V30 23 1 5 24
M  V30 24 1 5 25
M  V30 25 1 5 26
M  V30 26 1 7 27
M  V30 27 1 8 28
M  V30 28 1 8 29
M  V30 29 1 8 30
M  V30 30 1 9 31
M  V30 31 1 9 32
M  V30 32 1 9 33
M  V30 33 1 10 34
M  V30 34 1 10 35
M  V30 35 1 10 36
M  V30 36 1 11 37
M  V30 37 1 11 38
M  V30 38 1 12 39
M  V30 39 1 12 40
M  V30 40 1 12 41
M  V30 41 1 14 42
M  V30 42 1 14 43
M  V30 43 1 14 44
M  V30 44 1 15 45
M  V30 45 1 15 46
M  V30 46 1 15 47
M  V30 47 1 16 48
M  V30 48 1 16 49
M  V30 49 1 16 50
M  V30 END BOND
M  V30 BEGIN COLLECTION
M  V30 MDLV30/STEABS ATOMS=(1 7)
M  V30 END COLLECTION
M  V30 END CTAB
M  END
>  <Structure No>
2901

>  <LogS>
-3.354968489

>  <MMFF94 Energy>
62.089

$$$$
Compound 2902
Actelion Java MolfileCreator 2.0

  0  0  0  0  0  0              0 V3000
M  V30 BEGIN CTAB
M  V30 COUNTS 36 36 0 0 0
M  V30 BEGIN ATOM
M  V30 1 O 0.9447 -0.7872 -1.8113 0
M  V30 2 C 0.5748 -0.1174 -0.8078 0
M  V30 3 N -0.7523 -0.2758 -0.2928 0
M  V30 4 C 1.5348 0.822 -0.1199 0 CFG=1
M  V30 5 C -1.7225 -1.1571 -0.9409 0
M  V30 6 N 2.1369 0.1812 1.0535 0
M  V30 7 C 2.6102 1.3758 -1.0682 0
M  V30 8 C -3.099 -0.9409 -0.3704 0
M  V30 9 C 2.9382 -1.0085 1.0069 0
M  V30 10 O 3.4489 2.2642 -0.3589 0
M  V30 11 C -3.6296 -1.8323 0.5775 0
M  V30 12 C -3.8493 0.1825 -0.7557 0
M  V30 13 O 3.1239 -1.6177 -0.0798 0
M  V30 14 C 3.5387 -1.5486 2.2637 0
M  V30 15 C 4.3551 2.8678 -1.2544 0
M  V30 16 C -4.9031 -1.6133 1.1129 0
M  V30 17 C -5.1212 0.3986 -0.2165 0
M  V30 18 C -5.6484 -0.4992 0.7163 0
M  V30 19 H -1.0255 0.2593 0.5635 0
M  V30 20 H 0.9426 1.6962 0.2308 0
M  V30 21 H -1.4024 -2.2145 -0.8104 0
M  V30 22 H -1.7482 -0.944 -2.0329 0
M  V30 23 H 1.9732 0.6275 1.984 0
M  V30 24 H 2.0881 1.9069 -1.8998 0
M  V30 25 H 3.2091 0.5408 -1.4968 0
M  V30 26 H -3.0604 -2.6958 0.8998 0
M  V30 27 H -3.4466 0.8899 -1.4709 0
M  V30 28 H 4.0991 -0.7438 2.7844 0
M  V30 29 H 4.2378 -2.3818 2.0373 0
M  V30 30 H 2.7327 -1.9242 2.9288 0
M  V30 31 H 3.8222 3.5174 -1.985 0
M  V30 32 H 4.9695 2.1079 -1.7885 0
M  V30 33 H 5.048 3.5115 -0.6753 0
M  V30 34 H -5.3139 -2.3078 1.8357 0
M  V30 35 H -5.6962 1.2644 -0.5184 0
M  V30 36 H -6.6333 -0.3308 1.1335 0
M  V30 END ATOM
M  V30 BEGIN BOND
M  V30 1 2 1 2
M  V30 2 1 2 3
M  V30 3 1 2 4
M  V30 4 1 3 5
M  V30 5 1 4 6
M  V30 6 1 4 7
M  V30 7 1 5 8
M  V30 8 1 6 9
M  V30 9 1 7 10
M  V30 10 2 8 11
M  V30 11 1 8 12
M  V30 12 2 9 13
M  V30 13 1 9 14
M  V30 14 1 10 15
M  V30 15 1 11 16
M  V30 16 2 12 17
M  V30 17 2 16 18
M  V30 18 1 17 18
M  V30 19 1 3 19
M  V30 20 1 4 20
M  V30 21 1 5 21
M  V30 22 1 5 22
M  V30 23 1 6 23
M  V30 24 1 7 24
M  V30 25 1 7 25
M  V30 26 1 11 26
M  V30 27 1 12 27
M  V30 28 1 14 28
M  V30 29 1 14 29
M  V30 30 1 14 30
M  V30 31 1 15 31
M  V30 32 1 15 32
M  V30 33 1 15 33
M  V30 34 1 16 34
M  V30 35 1 17 35
M  V30 36 1 18 36
M  V30 END BOND
M  V30 BEGIN COLLECTION
M  V30 MDLV30/STEABS ATOMS=(1 4)
M  V30 END COLLECTION
M  V30 END CTAB
M  END
>  <Structure No>
2902

>  <LogS>
-3.398457379

>  <MMFF94 Energy>
12.787

$$$$
Compound 2903
Actelion Java MolfileCreator 2.0

  0  0  0  0  0  0              0 V3000
M  V30 BEGIN CTAB
M  V30 COUNTS 35 34 0 0 0
M  V30 BEGIN ATOM
M  V30 1 O -1.9383 0.0774 1.4729 0
M  V30 2 C -0.5879 0.4996 1.3858 0 CFG=2
M  V30 3 C -2.6032 0.2596 0.2388 0
M  V30 4 C 0.3134 -0.7243 1.1395 0
M  V30 5 C -0.2156 1.1884 2.7005 0
M  V30 6 C -3.9985 -0.3747 0.3179 0 CFG=2
M  V30 7 O 1.6724 -0.3379 1.0375 0
M  V30 8 O -3.9081 -1.7429 0.6278 0
M  V30 9 C -4.779 -0.1701 -0.9846 0
M  V30 10 C 2.0447 -0.1791 -0.316 0
M  V30 11 C 3.4538 0.4151 -0.3763 0
M  V30 12 C 3.8971 0.7525 -1.8083 0
M  V30 13 C 4.1585 -0.4926 -2.655 0
M  V30 14 H -0.419 1.2492 0.5749 0
M  V30 15 H -2.7168 1.3481 0.031 0
M  V30 16 H -2.037 -0.2128 -0.5971 0
M  V30 17 H -0.0474 -1.2967 0.2523 0
M  V30 18 H 0.2176 -1.4196 2.0011 0
M  V30 19 H -0.8867 2.0573 2.8695 0
M  V30 20 H 0.8308 1.5594 2.6647 0
M  V30 21 H -0.3243 0.4855 3.5542 0
M  V30 22 H -4.5618 0.1258 1.1356 0
M  V30 23 H -3.3989 -2.1837 -0.1023 0
M  V30 24 H -5.7836 -0.6358 -0.8972 0
M  V30 25 H -4.2427 -0.6343 -1.8398 0
M  V30 26 H -4.9104 0.9142 -1.1867 0
M  V30 27 H 2.0453 -1.1705 -0.8206 0
M  V30 28 H 1.3444 0.5069 -0.8454 0
M  V30 29 H 3.4653 1.3534 0.2204 0
M  V30 30 H 4.1778 -0.2884 0.0899 0
M  V30 31 H 4.8389 1.3405 -1.754 0
M  V30 32 H 3.1331 1.3883 -2.3064 0
M  V30 33 H 4.8813 -1.1647 -2.1456 0
M  V30 34 H 4.5874 -0.1896 -3.6333 0
M  V30 35 H 3.214 -1.0421 -2.8481 0
M  V30 END ATOM
M  V30 BEGIN BOND
M  V30 1 1 1 2
M  V30 2 1 1 3
M  V30 3 1 2 4
M  V30 4 1 2 5
M  V30 5 1 3 6
M  V30 6 1 4 7
M  V30 7 1 6 8
M  V30 8 1 6 9
M  V30 9 1 7 10
M  V30 10 1 10 11
M  V30 11 1 11 12
M  V30 12 1 12 13
M  V30 13 1 2 14
M  V30 14 1 3 15
M  V30 15 1 3 16
M  V30 16 1 4 17
M  V30 17 1 4 18
M  V30 18 1 5 19
M  V30 19 1 5 20
M  V30 20 1 5 21
M  V30 21 1 6 22
M  V30 22 1 8 23
M  V30 23 1 9 24
M  V30 24 1 9 25
M  V30 25 1 9 26
M  V30 26 1 10 27
M  V30 27 1 10 28
M  V30 28 1 11 29
M  V30 29 1 11 30
M  V30 30 1 12 31
M  V30 31 1 12 32
M  V30 32 1 13 33
M  V30 33 1 13 34
M  V30 34 1 13 35
M  V30 END BOND
M  V30 BEGIN COLLECTION
M  V30 MDLV30/STEABS ATOMS=(2 2 6)
M  V30 END COLLECTION
M  V30 END CTAB
M  END
>  <Structure No>
2903

>  <LogS>
-0.653059623

>  <MMFF94 Energy>
50.467

$$$$
Compound 2904
Actelion Java MolfileCreator 2.0

  0  0  0  0  0  0              0 V3000
M  V30 BEGIN CTAB
M  V30 COUNTS 58 57 0 0 0
M  V30 BEGIN ATOM
M  V30 1 O 7.1442 -3.6849 2.8215 0
M  V30 2 C 7.5691 -2.503 2.726 0
M  V30 3 O 8.5831 -2.0657 3.5693 0 CHG=-1
M  V30 4 C 6.9547 -1.558 1.7421 0
M  V30 5 C 5.9089 -0.6718 2.4326 0
M  V30 6 C 5.3021 0.3744 1.4828 0
M  V30 7 C 4.2497 -0.2322 0.5366 0
M  V30 8 C 3.7125 0.7837 -0.4852 0
M  V30 9 C 2.7628 1.8168 0.1461 0
M  V30 10 C 2.2621 2.8645 -0.8655 0
M  V30 11 C 1.3534 2.3133 -1.98 0
M  V30 12 C 0.0302 1.743 -1.4472 0
M  V30 13 C -0.9137 1.3779 -2.6027 0
M  V30 14 C -2.2108 0.7108 -2.1173 0
M  V30 15 C -3.1486 1.6978 -1.3994 0
M  V30 16 C -4.5436 1.1056 -1.1417 0
M  V30 17 C -4.5312 0.0168 -0.058 0
M  V30 18 C -5.9534 -0.4841 0.2337 0
M  V30 19 C -6.0176 -1.4432 1.4364 0
M  V30 20 C -5.2091 -2.7427 1.2731 0
M  V30 21 C -5.6813 -3.5977 0.0977 0
M  V30 22 H 6.4888 -2.1424 0.9207 0
M  V30 23 H 7.7573 -0.9248 1.3053 0
M  V30 24 H 6.4017 -0.1306 3.2712 0
M  V30 25 H 5.1019 -1.3024 2.8685 0
M  V30 26 H 6.1097 0.8666 0.8964 0
M  V30 27 H 4.8197 1.1534 2.1105 0
M  V30 28 H 4.708 -1.0668 -0.0344 0
M  V30 29 H 3.4062 -0.6538 1.1275 0
M  V30 30 H 3.1608 0.21 -1.2595 0
M  V30 31 H 4.5613 1.2999 -0.9856 0
M  V30 32 H 1.9066 1.3043 0.632 0
M  V30 33 H 3.303 2.3698 0.9423 0
M  V30 34 H 3.1404 3.3584 -1.3358 0
M  V30 35 H 1.7087 3.6545 -0.312 0
M  V30 36 H 1.1255 3.1548 -2.6705 0
M  V30 37 H 1.8886 1.5448 -2.5754 0
M  V30 38 H -0.4528 2.5006 -0.7942 0
M  V30 39 H 0.232 0.829 -0.8494 0
M  V30 40 H -0.392 0.6646 -3.2779 0
M  V30 41 H -1.1569 2.2857 -3.1972 0
M  V30 42 H -2.7347 0.2957 -3.0058 0
M  V30 43 H -1.9581 -0.1379 -1.4468 0
M  V30 44 H -2.703 2.0205 -0.4342 0
M  V30 45 H -3.2744 2.6029 -2.0334 0
M  V30 46 H -5.2104 1.9326 -0.812 0
M  V30 47 H -4.9607 0.6948 -2.0875 0
M  V30 48 H -4.0852 0.4283 0.874 0
M  V30 49 H -3.912 -0.8345 -0.407 0
M  V30 50 H -6.6023 0.3882 0.467 0
M  V30 51 H -6.377 -0.9718 -0.6698 0
M  V30 52 H -7.0822 -1.7046 1.6236 0
M  V30 53 H -5.652 -0.9106 2.3415 0
M  V30 54 H -4.127 -2.5196 1.1644 0
M  V30 55 H -5.3243 -3.3391 2.2041 0
M  V30 56 H -5.4286 -3.1103 -0.867 0
M  V30 57 H -5.1701 -4.5826 0.129 0
M  V30 58 H -6.778 -3.7656 0.1542 0
M  V30 END ATOM
M  V30 BEGIN BOND
M  V30 1 2 1 2
M  V30 2 1 2 3
M  V30 3 1 2 4
M  V30 4 1 4 5
M  V30 5 1 5 6
M  V30 6 1 6 7
M  V30 7 1 7 8
M  V30 8 1 8 9
M  V30 9 1 9 10
M  V30 10 1 10 11
M  V30 11 1 11 12
M  V30 12 1 12 13
M  V30 13 1 13 14
M  V30 14 1 14 15
M  V30 15 1 15 16
M  V30 16 1 16 17
M  V30 17 1 17 18
M  V30 18 1 18 19
M  V30 19 1 19 20
M  V30 20 1 20 21
M  V30 21 1 4 22
M  V30 22 1 4 23
M  V30 23 1 5 24
M  V30 24 1 5 25
M  V30 25 1 6 26
M  V30 26 1 6 27
M  V30 27 1 7 28
M  V30 28 1 7 29
M  V30 29 1 8 30
M  V30 30 1 8 31
M  V30 31 1 9 32
M  V30 32 1 9 33
M  V30 33 1 10 34
M  V30 34 1 10 35
M  V30 35 1 11 36
M  V30 36 1 11 37
M  V30 37 1 12 38
M  V30 38 1 12 39
M  V30 39 1 13 40
M  V30 40 1 13 41
M  V30 41 1 14 42
M  V30 42 1 14 43
M  V30 43 1 15 44
M  V30 44 1 15 45
M  V30 45 1 16 46
M  V30 46 1 16 47
M  V30 47 1 17 48
M  V30 48 1 17 49
M  V30 49 1 18 50
M  V30 50 1 18 51
M  V30 51 1 19 52
M  V30 52 1 19 53
M  V30 53 1 20 54
M  V30 54 1 20 55
M  V30 55 1 21 56
M  V30 56 1 21 57
M  V30 57 1 21 58
M  V30 END BOND
M  V30 END CTAB
M  END
>  <Structure No>
2904

>  <LogS>
-3.775990335

>  <MMFF94 Energy>
1.0702

$$$$
Compound 2905
Actelion Java MolfileCreator 2.0

  0  0  0  0  0  0              0 V3000
M  V30 BEGIN CTAB
M  V30 COUNTS 24 23 0 0 0
M  V30 BEGIN ATOM
M  V30 1 O 0.6933 1.0787 -0.6163 0
M  V30 2 C -0.4852 0.275 -0.616 0
M  V30 3 C 1.4811 0.9763 0.5586 0
M  V30 4 C -1.482 0.7133 0.5262 0
M  V30 5 C -1.1686 0.5579 -1.9689 0
M  V30 6 C -0.122 -1.2354 -0.616 0
M  V30 7 C 2.8765 0.4918 0.1931 0
M  V30 8 C -1.7575 -0.3189 1.6267 0
M  V30 9 H 1.5683 1.9886 1.0071 0
M  V30 10 H 1.0675 0.3136 1.3442 0
M  V30 11 H -1.1127 1.6437 1.009 0
M  V30 12 H -2.4751 0.9864 0.1045 0
M  V30 13 H -1.4268 1.636 -2.0533 0
M  V30 14 H -0.4888 0.3059 -2.8119 0
M  V30 15 H -2.1008 -0.0384 -2.0783 0
M  V30 16 H 0.3477 -1.5599 0.3335 0
M  V30 17 H -1.0273 -1.8584 -0.7809 0
M  V30 18 H 0.5986 -1.4538 -1.4332 0
M  V30 19 H 3.3372 1.181 -0.546 0
M  V30 20 H 3.5136 0.4605 1.1022 0
M  V30 21 H 2.8233 -0.5275 -0.2435 0
M  V30 22 H -0.831 -0.6018 2.1643 0
M  V30 23 H -2.4588 0.1175 2.3693 0
M  V30 24 H -2.2359 -1.2254 1.2008 0
M  V30 END ATOM
M  V30 BEGIN BOND
M  V30 1 1 1 2
M  V30 2 1 1 3
M  V30 3 1 2 4
M  V30 4 1 2 5
M  V30 5 1 2 6
M  V30 6 1 3 7
M  V30 7 1 4 8
M  V30 8 1 3 9
M  V30 9 1 3 10
M  V30 10 1 4 11
M  V30 11 1 4 12
M  V30 12 1 5 13
M  V30 13 1 5 14
M  V30 14 1 5 15
M  V30 15 1 6 16
M  V30 16 1 6 17
M  V30 17 1 6 18
M  V30 18 1 7 19
M  V30 19 1 7 20
M  V30 20 1 7 21
M  V30 21 1 8 22
M  V30 22 1 8 23
M  V30 23 1 8 24
M  V30 END BOND
M  V30 END CTAB
M  END
>  <Structure No>
2905

>  <LogS>
-1.471935011

>  <MMFF94 Energy>
16.222

$$$$
Compound 2906
Actelion Java MolfileCreator 2.0

  0  0  0  0  0  0              0 V3000
M  V30 BEGIN CTAB
M  V30 COUNTS 31 31 0 0 0
M  V30 BEGIN ATOM
M  V30 1 O -2.1914 2.4264 0.5475 0
M  V30 2 C -2.7404 1.395 -0.2262 0
M  V30 3 C -2.4315 0.0306 0.4137 0 CFG=2
M  V30 4 C -0.9209 -0.2174 0.691 0
M  V30 5 C -3.0915 -1.1116 -0.3737 0
M  V30 6 C 0.0905 0.1636 -0.4239 0 CFG=1
M  V30 7 C 1.5068 0.0463 0.1145 0
M  V30 8 C -0.0624 -0.6778 -1.7004 0
M  V30 9 C 2.2854 1.2017 0.3139 0
M  V30 10 C 2.0535 -1.2087 0.4482 0
M  V30 11 C 3.5839 1.1017 0.8232 0
M  V30 12 C 3.3524 -1.3026 0.9569 0
M  V30 13 C 4.1171 -0.1487 1.1432 0
M  V30 14 H -2.4039 3.271 0.0717 0
M  V30 15 H -2.3411 1.4393 -1.2633 0
M  V30 16 H -3.8443 1.5297 -0.2805 0
M  V30 17 H -2.9286 0.0296 1.4105 0
M  V30 18 H -0.774 -1.2806 0.9821 0
M  V30 19 H -0.6568 0.3787 1.5936 0
M  V30 20 H -4.1968 -1.0123 -0.3195 0
M  V30 21 H -2.8185 -2.0961 0.0619 0
M  V30 22 H -2.8072 -1.0976 -1.4425 0
M  V30 23 H -0.0803 1.2232 -0.7107 0
M  V30 24 H 0.8437 -0.5843 -2.3372 0
M  V30 25 H -0.2178 -1.7507 -1.4584 0
M  V30 26 H -0.9128 -0.3072 -2.3064 0
M  V30 27 H 1.8894 2.1814 0.077 0
M  V30 28 H 1.4756 -2.1142 0.3153 0
M  V30 29 H 4.1764 1.9953 0.9714 0
M  V30 30 H 3.7655 -2.2709 1.2085 0
M  V30 31 H 5.1222 -0.2236 1.5379 0
M  V30 END ATOM
M  V30 BEGIN BOND
M  V30 1 1 1 2
M  V30 2 1 2 3
M  V30 3 1 3 4
M  V30 4 1 3 5
M  V30 5 1 4 6
M  V30 6 1 6 7
M  V30 7 1 6 8
M  V30 8 2 7 9
M  V30 9 1 7 10
M  V30 10 1 9 11
M  V30 11 2 10 12
M  V30 12 2 11 13
M  V30 13 1 12 13
M  V30 14 1 1 14
M  V30 15 1 2 15
M  V30 16 1 2 16
M  V30 17 1 3 17
M  V30 18 1 4 18
M  V30 19 1 4 19
M  V30 20 1 5 20
M  V30 21 1 5 21
M  V30 22 1 5 22
M  V30 23 1 6 23
M  V30 24 1 8 24
M  V30 25 1 8 25
M  V30 26 1 8 26
M  V30 27 1 9 27
M  V30 28 1 10 28
M  V30 29 1 11 29
M  V30 30 1 12 30
M  V30 31 1 13 31
M  V30 END BOND
M  V30 BEGIN COLLECTION
M  V30 MDLV30/STEABS ATOMS=(2 3 6)
M  V30 END COLLECTION
M  V30 END CTAB
M  END
>  <Structure No>
2906

>  <LogS>
-2.346916077

>  <MMFF94 Energy>
32.647

$$$$
Compound 2907
Actelion Java MolfileCreator 2.0

  0  0  0  0  0  0              0 V3000
M  V30 BEGIN CTAB
M  V30 COUNTS 38 41 0 0 0
M  V30 BEGIN ATOM
M  V30 1 O 1.3816 2.4391 -0.65 0
M  V30 2 C 1.7717 1.2755 -0.3619 0
M  V30 3 C 0.8873 0.0957 -0.5966 0
M  V30 4 C 3.1504 1.0877 0.1384 0
M  V30 5 C -0.5081 0.2363 -0.8385 0
M  V30 6 C 1.4747 -1.1966 -0.6334 0
M  V30 7 C 3.7105 -0.2024 0.1766 0
M  V30 8 C 3.9183 2.1904 0.557 0
M  V30 9 N -1.164 1.5066 -0.7169 0
M  V30 10 C -1.2738 -0.8949 -1.1847 0
M  V30 11 C 2.9137 -1.3627 -0.2777 0
M  V30 12 C 0.6862 -2.3089 -1.0057 0
M  V30 13 C 5.0304 -0.3716 0.6358 0
M  V30 14 C 5.2254 2.0089 1.0133 0
M  V30 15 O -2.6513 -0.8046 -1.4227 0
M  V30 16 C -0.667 -2.1408 -1.3006 0
M  V30 17 O 3.4636 -2.4957 -0.3499 0
M  V30 18 O 1.241 -3.587 -1.0833 0
M  V30 19 C 5.7805 0.7299 1.0528 0
M  V30 20 C -3.5976 -0.4 -0.4682 0
M  V30 21 C -4.8949 -0.0951 -0.8994 0
M  V30 22 C -3.2896 -0.3104 0.9037 0
M  V30 23 C -5.8693 0.3097 0.0183 0
M  V30 24 C -4.2662 0.0949 1.8186 0
M  V30 25 C -5.5547 0.4066 1.3763 0
M  V30 26 H 3.5074 3.1921 0.5355 0
M  V30 27 H -0.8916 2.1848 0.0276 0
M  V30 28 H -2.0344 1.7142 -1.2547 0
M  V30 29 H 5.4829 -1.3545 0.6744 0
M  V30 30 H 5.8089 2.8614 1.3362 0
M  V30 31 H -1.2673 -2.9973 -1.5816 0
M  V30 32 H 0.6888 -4.3946 -1.348 0
M  V30 33 H 6.7942 0.5918 1.406 0
M  V30 34 H -5.1464 -0.1674 -1.9498 0
M  V30 35 H -2.3022 -0.5598 1.2687 0
M  V30 36 H -6.8682 0.5478 -0.3233 0
M  V30 37 H -4.0251 0.1644 2.8716 0
M  V30 38 H -6.3096 0.7197 2.0859 0
M  V30 END ATOM
M  V30 BEGIN BOND
M  V30 1 2 1 2
M  V30 2 1 2 3
M  V30 3 1 2 4
M  V30 4 2 3 5
M  V30 5 1 3 6
M  V30 6 2 4 7
M  V30 7 1 4 8
M  V30 8 1 5 9
M  V30 9 1 5 10
M  V30 10 1 6 11
M  V30 11 2 6 12
M  V30 12 1 7 13
M  V30 13 2 8 14
M  V30 14 1 10 15
M  V30 15 2 10 16
M  V30 16 2 11 17
M  V30 17 1 12 18
M  V30 18 2 13 19
M  V30 19 1 15 20
M  V30 20 2 20 21
M  V30 21 1 20 22
M  V30 22 1 21 23
M  V30 23 2 22 24
M  V30 24 2 23 25
M  V30 25 1 7 11
M  V30 26 1 12 16
M  V30 27 1 14 19
M  V30 28 1 24 25
M  V30 29 1 8 26
M  V30 30 1 9 27
M  V30 31 1 9 28
M  V30 32 1 13 29
M  V30 33 1 14 30
M  V30 34 1 16 31
M  V30 35 1 18 32
M  V30 36 1 19 33
M  V30 37 1 21 34
M  V30 38 1 22 35
M  V30 39 1 23 36
M  V30 40 1 24 37
M  V30 41 1 25 38
M  V30 END BOND
M  V30 END CTAB
M  END
>  <Structure No>
2907

>  <LogS>
-4.219226833

>  <MMFF94 Energy>
110.65

$$$$
Compound 2908
Actelion Java MolfileCreator 2.0

  0  0  0  0  0  0              0 V3000
M  V30 BEGIN CTAB
M  V30 COUNTS 60 67 0 0 0
M  V30 BEGIN ATOM
M  V30 1 O -3.3482 2.9394 1.7955 0
M  V30 2 C -3.8103 1.974 1.1293 0
M  V30 3 C -5.2927 1.7825 0.9696 0
M  V30 4 C -2.8954 1.0063 0.4901 0
M  V30 5 C -5.8053 0.6809 0.2086 0
M  V30 6 C -6.1857 2.6814 1.5756 0
M  V30 7 C -3.478 -0.0113 -0.2224 0
M  V30 8 C -1.486 1.0332 0.5384 0
M  V30 9 C -4.8009 -0.2383 -0.4162 0
M  V30 10 C -7.1996 0.5191 0.1065 0
M  V30 11 C -7.5627 2.5037 1.4474 0
M  V30 12 C -2.7948 -0.9706 -0.8762 0
M  V30 13 C -0.7264 0.0286 -0.1396 0
M  V30 14 N -4.8921 -1.3475 -1.2129 0
M  V30 15 C -8.0661 1.4268 0.7199 0
M  V30 16 N -3.6634 -1.7981 -1.4869 0
M  V30 17 C -1.4021 -0.9954 -0.8639 0
M  V30 18 C 0.7561 0.0539 -0.0929 0
M  V30 19 C -6.0803 -2.0284 -1.7215 0
M  V30 20 C 1.4931 -1.1649 0.0379 0
M  V30 21 C 1.4543 1.2932 -0.1766 0
M  V30 22 C -6.6721 -2.9437 -0.6537 0
M  V30 23 C 2.9026 -1.1373 0.0804 0
M  V30 24 C 2.846 1.2582 -0.1286 0
M  V30 25 C 3.7956 -2.3054 0.2228 0
M  V30 26 C 3.5076 0.091 -0.0095 0
M  V30 27 N 3.7329 2.2696 -0.1805 0
M  V30 28 O 3.312 -3.4655 0.3219 0
M  V30 29 C 5.2818 -2.0815 0.2442 0
M  V30 30 C 4.8352 0.3666 0.0115 0
M  V30 31 N 4.9513 1.727 -0.0861 0
M  V30 32 C 5.8188 -0.7569 0.1322 0
M  V30 33 C 6.1545 -3.1752 0.366 0
M  V30 34 C 6.1545 2.5549 -0.1186 0
M  V30 35 C 7.2163 -0.5911 0.1277 0
M  V30 36 C 7.535 -2.9802 0.3704 0
M  V30 37 C 6.7643 2.5602 -1.5171 0
M  V30 38 C 8.0623 -1.6959 0.2486 0
M  V30 39 H -5.8191 3.5213 2.1522 0
M  V30 40 H -0.9881 1.81 1.1048 0
M  V30 41 H -7.6478 -0.2971 -0.4235 0
M  V30 42 H -8.2432 3.2008 1.9194 0
M  V30 43 H -9.1367 1.2916 0.6335 0
M  V30 44 H -0.865 -1.7617 -1.4078 0
M  V30 45 H -6.8179 -1.2987 -2.1074 0
M  V30 46 H -5.7966 -2.6557 -2.5945 0
M  V30 47 H 0.9768 -2.1126 0.1234 0
M  V30 48 H 0.9356 2.2365 -0.2896 0
M  V30 49 H -6.8834 -2.3832 0.2798 0
M  V30 50 H -7.6162 -3.392 -1.0276 0
M  V30 51 H -5.9561 -3.7598 -0.4198 0
M  V30 52 H 5.7691 -4.1831 0.4546 0
M  V30 53 H 5.8852 3.6015 0.1438 0
M  V30 54 H 6.8765 2.2314 0.6554 0
M  V30 55 H 7.6826 0.3677 0.0203 0
M  V30 56 H 8.1996 -3.8293 0.463 0
M  V30 57 H 7.718 3.1282 -1.5063 0
M  V30 58 H 6.0655 3.0473 -2.2297 0
M  V30 59 H 6.9628 1.5275 -1.8695 0
M  V30 60 H 9.1355 -1.555 0.2441 0
M  V30 END ATOM
M  V30 BEGIN BOND
M  V30 1 2 1 2
M  V30 2 1 2 3
M  V30 3 1 2 4
M  V30 4 2 3 5
M  V30 5 1 3 6
M  V30 6 1 4 7
M  V30 7 2 4 8
M  V30 8 1 5 9
M  V30 9 1 5 10
M  V30 10 2 6 11
M  V30 11 1 7 12
M  V30 12 1 8 13
M  V30 13 1 9 14
M  V30 14 2 10 15
M  V30 15 2 12 16
M  V30 16 1 12 17
M  V30 17 1 13 18
M  V30 18 1 14 19
M  V30 19 1 18 20
M  V30 20 2 18 21
M  V30 21 1 19 22
M  V30 22 2 20 23
M  V30 23 1 21 24
M  V30 24 1 23 25
M  V30 25 1 23 26
M  V30 26 2 24 27
M  V30 27 2 25 28
M  V30 28 1 25 29
M  V30 29 2 26 30
M  V30 30 1 27 31
M  V30 31 2 29 32
M  V30 32 1 29 33
M  V30 33 1 31 34
M  V30 34 1 32 35
M  V30 35 2 33 36
M  V30 36 1 34 37
M  V30 37 2 35 38
M  V30 38 2 7 9
M  V30 39 1 11 15
M  V30 40 2 13 17
M  V30 41 1 14 16
M  V30 42 1 24 26
M  V30 43 1 30 31
M  V30 44 1 30 32
M  V30 45 1 36 38
M  V30 46 1 6 39
M  V30 47 1 8 40
M  V30 48 1 10 41
M  V30 49 1 11 42
M  V30 50 1 15 43
M  V30 51 1 17 44
M  V30 52 1 19 45
M  V30 53 1 19 46
M  V30 54 1 20 47
M  V30 55 1 21 48
M  V30 56 1 22 49
M  V30 57 1 22 50
M  V30 58 1 22 51
M  V30 59 1 33 52
M  V30 60 1 34 53
M  V30 61 1 34 54
M  V30 62 1 35 55
M  V30 63 1 36 56
M  V30 64 1 37 57
M  V30 65 1 37 58
M  V30 66 1 37 59
M  V30 67 1 38 60
M  V30 END BOND
M  V30 END CTAB
M  END
>  <Structure No>
2908

>  <LogS>
-4.393183723

>  <MMFF94 Energy>
147.18

$$$$
Compound 2909
Actelion Java MolfileCreator 2.0

  0  0  0  0  0  0              0 V3000
M  V30 BEGIN CTAB
M  V30 COUNTS 68 78 0 0 0
M  V30 BEGIN ATOM
M  V30 1 O -2.883 3.4603 -0.7407 0
M  V30 2 C -1.6476 3.5414 -0.5055 0
M  V30 3 C -0.8819 2.3743 -0.2606 0
M  V30 4 C -1.036 4.8093 -0.5215 0
M  V30 5 C 0.5463 2.4869 -0.1297 0
M  V30 6 C -1.4667 1.0756 -0.1311 0
M  V30 7 C 0.3568 4.9269 -0.3049 0
M  V30 8 C -1.8 5.9762 -0.7428 0
M  V30 9 C 1.1389 3.7741 -0.1035 0
M  V30 10 C 1.3078 1.28 -0.0352 0
M  V30 11 N -2.7824 0.7577 -0.0235 0
M  V30 12 C -0.6895 -0.0567 0.0473 0
M  V30 13 C 0.9478 6.2092 -0.3032 0
M  V30 14 C -1.1954 7.2334 -0.7411 0
M  V30 15 O 2.3699 3.9088 0.1293 0
M  V30 16 N 2.656 1.1345 -0.1006 0
M  V30 17 C 0.6982 0.0367 -0.002 0
M  V30 18 C -2.837 -0.5667 0.2602 0
M  V30 19 C -1.5604 -1.0856 0.3631 0
M  V30 20 C 0.1743 7.3497 -0.5202 0
M  V30 21 C 2.8982 -0.1985 -0.1467 0
M  V30 22 C 1.7078 -0.9001 -0.1415 0
M  V30 23 C -3.9811 -1.3481 0.5726 0
M  V30 24 C -1.3289 -2.3285 0.9446 0
M  V30 25 C 4.1439 -0.8553 -0.3295 0
M  V30 26 C 1.6593 -2.2461 -0.4918 0
M  V30 27 C -5.3114 -0.9053 0.3714 0
M  V30 28 C -3.754 -2.6564 1.0969 0
M  V30 29 C -2.4276 -3.1188 1.2913 0
M  V30 30 C 5.3966 -0.2029 -0.2233 0
M  V30 31 C 4.1084 -2.254 -0.6129 0
M  V30 32 C 2.8619 -2.9239 -0.7067 0
M  V30 33 O -5.5408 0.2148 -0.1595 0
M  V30 34 C -6.3987 -1.7273 0.7338 0
M  V30 35 C -4.8464 -3.4747 1.45 0
M  V30 36 O 5.4605 1.0137 0.1008 0
M  V30 37 C 6.5925 -0.9161 -0.4475 0
M  V30 38 C 5.3085 -2.9608 -0.8301 0
M  V30 39 C -6.1652 -3.0148 1.2776 0
M  V30 40 C -7.7278 -1.2873 0.5557 0
M  V30 41 O -4.6416 -4.6277 1.9249 0
M  V30 42 C 6.5478 -2.2984 -0.7559 0
M  V30 43 C 7.8448 -0.2712 -0.3621 0
M  V30 44 O 5.2727 -4.1958 -1.0941 0
M  V30 45 C -7.2645 -3.824 1.6333 0
M  V30 46 C -8.8012 -2.1038 0.9138 0
M  V30 47 C 7.7536 -2.9956 -0.9775 0
M  V30 48 C 9.0262 -0.9798 -0.5834 0
M  V30 49 C -8.5704 -3.3676 1.4519 0
M  V30 50 C 8.9806 -2.3372 -0.8917 0
M  V30 51 H -2.8686 5.9225 -0.9125 0
M  V30 52 H -3.5821 1.4181 -0.0051 0
M  V30 53 H 2.0109 6.3357 -0.1404 0
M  V30 54 H -1.7922 8.1206 -0.91 0
M  V30 55 H 3.3561 1.8863 -0.2448 0
M  V30 56 H 0.6396 8.327 -0.5194 0
M  V30 57 H -0.3385 -2.6565 1.2168 0
M  V30 58 H 0.7276 -2.7516 -0.69 0
M  V30 59 H -2.2358 -4.0859 1.7394 0
M  V30 60 H 2.8129 -3.9722 -0.9747 0
M  V30 61 H -7.9429 -0.3101 0.1415 0
M  V30 62 H 7.916 0.7832 -0.126 0
M  V30 63 H -7.1191 -4.8121 2.0518 0
M  V30 64 H -9.816 -1.7545 0.7735 0
M  V30 65 H 7.7526 -4.0517 -1.2166 0
M  V30 66 H 9.9804 -0.4736 -0.5164 0
M  V30 67 H -9.4063 -3.997 1.7283 0
M  V30 68 H 9.8995 -2.8824 -1.0632 0
M  V30 END ATOM
M  V30 BEGIN BOND
M  V30 1 2 1 2
M  V30 2 1 2 3
M  V30 3 1 2 4
M  V30 4 2 3 5
M  V30 5 1 3 6
M  V30 6 2 4 7
M  V30 7 1 4 8
M  V30 8 1 5 9
M  V30 9 1 5 10
M  V30 10 1 6 11
M  V30 11 2 6 12
M  V30 12 1 7 13
M  V30 13 2 8 14
M  V30 14 2 9 15
M  V30 15 1 10 16
M  V30 16 2 10 17
M  V30 17 1 11 18
M  V30 18 1 12 19
M  V30 19 2 13 20
M  V30 20 1 16 21
M  V30 21 1 17 22
M  V30 22 1 18 23
M  V30 23 1 19 24
M  V30 24 1 21 25
M  V30 25 1 22 26
M  V30 26 1 23 27
M  V30 27 2 23 28
M  V30 28 2 24 29
M  V30 29 1 25 30
M  V30 30 2 25 31
M  V30 31 2 26 32
M  V30 32 2 27 33
M  V30 33 1 27 34
M  V30 34 1 28 35
M  V30 35 2 30 36
M  V30 36 1 30 37
M  V30 37 1 31 38
M  V30 38 2 34 39
M  V30 39 1 34 40
M  V30 40 2 35 41
M  V30 41 2 37 42
M  V30 42 1 37 43
M  V30 43 2 38 44
M  V30 44 1 39 45
M  V30 45 2 40 46
M  V30 46 1 42 47
M  V30 47 2 43 48
M  V30 48 2 45 49
M  V30 49 2 47 50
M  V30 50 1 7 9
M  V30 51 1 12 17
M  V30 52 1 14 20
M  V30 53 2 18 19
M  V30 54 2 21 22
M  V30 55 1 28 29
M  V30 56 1 31 32
M  V30 57 1 35 39
M  V30 58 1 38 42
M  V30 59 1 46 49
M  V30 60 1 48 50
M  V30 61 1 8 51
M  V30 62 1 11 52
M  V30 63 1 13 53
M  V30 64 1 14 54
M  V30 65 1 16 55
M  V30 66 1 20 56
M  V30 67 1 24 57
M  V30 68 1 26 58
M  V30 69 1 29 59
M  V30 70 1 32 60
M  V30 71 1 40 61
M  V30 72 1 43 62
M  V30 73 1 45 63
M  V30 74 1 46 64
M  V30 75 1 47 65
M  V30 76 1 48 66
M  V30 77 1 49 67
M  V30 78 1 50 68
M  V30 END BOND
M  V30 END CTAB
M  END
>  <Structure No>
2909

>  <LogS>
-4.509615108

>  <MMFF94 Energy>
197.15

$$$$
Compound 2910
Actelion Java MolfileCreator 2.0

  0  0  0  0  0  0              0 V3000
M  V30 BEGIN CTAB
M  V30 COUNTS 54 62 0 0 0
M  V30 BEGIN ATOM
M  V30 1 O 0.083 -3.2432 -1.2464 0
M  V30 2 N 0.9678 -3.1091 -0.3756 0 CHG=1
M  V30 3 O 1.5327 -4.2346 0.1789 0 CHG=-1
M  V30 4 C 1.5426 -1.8145 -0.1267 0
M  V30 5 C 0.7508 -0.6331 -0.0839 0
M  V30 6 C 2.9358 -1.7184 -0.0976 0
M  V30 7 C 1.3882 0.6103 -0.3235 0
M  V30 8 C -0.6483 -0.6469 0.1765 0
M  V30 9 C 3.5909 -0.4785 -0.1229 0
M  V30 10 C 2.8128 0.6877 -0.3318 0
M  V30 11 C 0.6085 1.7764 -0.5597 0
M  V30 12 C -1.4375 0.4834 -0.142 0
M  V30 13 C -1.2698 -1.723 0.8356 0
M  V30 14 C 5.0889 -0.3893 -0.0218 0
M  V30 15 C 3.4421 1.9296 -0.5641 0
M  V30 16 C -0.8128 1.6832 -0.5719 0
M  V30 17 C 1.28 3.003 -0.7581 0
M  V30 18 C -2.8587 0.4188 -0.0107 0
M  V30 19 C -2.6488 -1.7779 0.9914 0
M  V30 20 C 5.7298 0.8394 -0.2941 0
M  V30 21 C 5.8864 -1.4878 0.3769 0
M  V30 22 C 4.916 2.0263 -0.6064 0
M  V30 23 C 2.6661 3.0729 -0.7656 0
M  V30 24 C -1.6352 2.7565 -0.9786 0
M  V30 25 C -3.6402 1.5328 -0.3841 0
M  V30 26 C -3.4766 -0.7486 0.5129 0
M  V30 27 C 7.132 0.9346 -0.2332 0
M  V30 28 C 7.277 -1.3774 0.4383 0
M  V30 29 O 5.4749 3.1202 -0.8964 0
M  V30 30 C -3.0185 2.6789 -0.8862 0
M  V30 31 C -5.1099 1.4988 -0.2397 0
M  V30 32 C -4.9767 -0.8471 0.5966 0
M  V30 33 C 7.8992 -0.1724 0.1236 0
M  V30 34 O -5.8019 2.5126 -0.5346 0
M  V30 35 C -5.765 0.2718 0.2447 0
M  V30 36 C -5.6392 -2.0354 0.9877 0
M  V30 37 C -7.1677 0.2063 0.3342 0
M  V30 38 C -7.0323 -2.086 1.0683 0
M  V30 39 C -7.7945 -0.9659 0.7502 0
M  V30 40 H 3.4988 -2.6373 -0.1368 0
M  V30 41 H -0.6934 -2.5214 1.28 0
M  V30 42 H 0.7609 3.9397 -0.8768 0
M  V30 43 H -3.0423 -2.636 1.5111 0
M  V30 44 H 5.4563 -2.4327 0.6696 0
M  V30 45 H 3.1337 4.0369 -0.9252 0
M  V30 46 H -1.2396 3.6667 -1.3985 0
M  V30 47 H 7.6352 1.869 -0.4482 0
M  V30 48 H 7.8738 -2.2287 0.7398 0
M  V30 49 H -3.6056 3.5326 -1.2021 0
M  V30 50 H 8.9773 -0.0908 0.1739 0
M  V30 51 H -5.1074 -2.9439 1.2174 0
M  V30 52 H -7.7816 1.0594 0.0737 0
M  V30 53 H -7.523 -3.0015 1.3733 0
M  V30 54 H -8.8742 -1.0103 0.8131 0
M  V30 END ATOM
M  V30 BEGIN BOND
M  V30 1 2 1 2
M  V30 2 1 2 3
M  V30 3 1 2 4
M  V30 4 2 4 5
M  V30 5 1 4 6
M  V30 6 1 5 7
M  V30 7 1 5 8
M  V30 8 2 6 9
M  V30 9 1 7 10
M  V30 10 2 7 11
M  V30 11 1 8 12
M  V30 12 2 8 13
M  V30 13 1 9 14
M  V30 14 2 10 15
M  V30 15 1 11 16
M  V30 16 1 11 17
M  V30 17 1 12 18
M  V30 18 1 13 19
M  V30 19 2 14 20
M  V30 20 1 14 21
M  V30 21 1 15 22
M  V30 22 1 15 23
M  V30 23 1 16 24
M  V30 24 2 18 25
M  V30 25 1 18 26
M  V30 26 1 20 27
M  V30 27 2 21 28
M  V30 28 2 22 29
M  V30 29 2 24 30
M  V30 30 1 25 31
M  V30 31 1 26 32
M  V30 32 2 27 33
M  V30 33 2 31 34
M  V30 34 1 31 35
M  V30 35 1 32 36
M  V30 36 1 35 37
M  V30 37 2 36 38
M  V30 38 2 37 39
M  V30 39 1 9 10
M  V30 40 2 12 16
M  V30 41 2 17 23
M  V30 42 2 19 26
M  V30 43 1 20 22
M  V30 44 1 25 30
M  V30 45 1 28 33
M  V30 46 2 32 35
M  V30 47 1 38 39
M  V30 48 1 6 40
M  V30 49 1 13 41
M  V30 50 1 17 42
M  V30 51 1 19 43
M  V30 52 1 21 44
M  V30 53 1 23 45
M  V30 54 1 24 46
M  V30 55 1 27 47
M  V30 56 1 28 48
M  V30 57 1 30 49
M  V30 58 1 33 50
M  V30 59 1 36 51
M  V30 60 1 37 52
M  V30 61 1 38 53
M  V30 62 1 39 54
M  V30 END BOND
M  V30 END CTAB
M  END
>  <Structure No>
2910

>  <LogS>
-4.399238344

>  <MMFF94 Energy>
205.31

$$$$
Compound 2911
Actelion Java MolfileCreator 2.0

  0  0  0  0  0  0              0 V3000
M  V30 BEGIN CTAB
M  V30 COUNTS 44 45 0 0 0
M  V30 BEGIN ATOM
M  V30 1 S -4.5514 -0.4869 -0.974 0
M  V30 2 O -4.3135 -1.6274 -1.9243 0
M  V30 3 O -5.2727 0.6074 -1.7128 0
M  V30 4 N -5.5111 -1.0356 0.3774 0
M  V30 5 C -2.9924 0.103 -0.4011 0
M  V30 6 C -5.7598 0.0873 1.2905 0
M  V30 7 C -6.7849 -1.5721 -0.1176 0
M  V30 8 C -2.7467 1.4775 -0.2922 0
M  V30 9 C -2.0022 -0.808 -0.0257 0
M  V30 10 C -1.5066 1.9535 0.1725 0
M  V30 11 C -0.7728 -0.3524 0.4497 0
M  V30 12 N -1.2672 3.372 0.2302 0 CHG=1
M  V30 13 C -0.5077 1.0239 0.5476 0
M  V30 14 O -2.223 4.1682 0.3386 0
M  V30 15 O -0.0057 3.8791 0.0185 0 CHG=-1
M  V30 16 N 0.7285 1.4691 1.1308 0
M  V30 17 C 2.0139 0.9043 0.8166 0
M  V30 18 C 2.2531 0.2669 -0.4138 0
M  V30 19 C 3.067 1.0339 1.7331 0
M  V30 20 C 3.516 -0.2567 -0.7058 0
M  V30 21 C 4.3293 0.5099 1.4409 0
M  V30 22 C 4.5655 -0.1404 0.2249 0
M  V30 23 O 5.849 -0.6504 -0.0198 0
M  V30 24 C 6.2302 -1.3335 -1.2111 0
M  V30 25 C 7.6917 -1.741 -1.1167 0
M  V30 26 H -4.8 0.4613 1.7044 0
M  V30 27 H -6.2846 0.9223 0.7752 0
M  V30 28 H -6.3762 -0.2492 2.1518 0
M  V30 29 H -7.3638 -0.7993 -0.6706 0
M  V30 30 H -6.598 -2.4362 -0.7898 0
M  V30 31 H -7.3981 -1.9441 0.7312 0
M  V30 32 H -3.5177 2.1801 -0.5816 0
M  V30 33 H -2.1877 -1.8729 -0.0867 0
M  V30 34 H -0.0323 -1.0755 0.7677 0
M  V30 35 H 0.6809 2.2168 1.86 0
M  V30 36 H 1.4695 0.1864 -1.1557 0
M  V30 37 H 2.9069 1.5349 2.6796 0
M  V30 38 H 3.6667 -0.7438 -1.6594 0
M  V30 39 H 5.1296 0.611 2.1632 0
M  V30 40 H 6.0953 -0.6644 -2.0884 0
M  V30 41 H 5.6062 -2.2443 -1.3391 0
M  V30 42 H 7.9931 -2.2737 -2.0431 0
M  V30 43 H 7.842 -2.4155 -0.2472 0
M  V30 44 H 8.3296 -0.8402 -0.9944 0
M  V30 END ATOM
M  V30 BEGIN BOND
M  V30 1 2 1 2
M  V30 2 2 1 3
M  V30 3 1 1 4
M  V30 4 1 1 5
M  V30 5 1 4 6
M  V30 6 1 4 7
M  V30 7 2 5 8
M  V30 8 1 5 9
M  V30 9 1 8 10
M  V30 10 2 9 11
M  V30 11 1 10 12
M  V30 12 2 10 13
M  V30 13 2 12 14
M  V30 14 1 12 15
M  V30 15 1 13 16
M  V30 16 1 16 17
M  V30 17 2 17 18
M  V30 18 1 17 19
M  V30 19 1 18 20
M  V30 20 2 19 21
M  V30 21 2 20 22
M  V30 22 1 22 23
M  V30 23 1 23 24
M  V30 24 1 24 25
M  V30 25 1 11 13
M  V30 26 1 21 22
M  V30 27 1 6 26
M  V30 28 1 6 27
M  V30 29 1 6 28
M  V30 30 1 7 29
M  V30 31 1 7 30
M  V30 32 1 7 31
M  V30 33 1 8 32
M  V30 34 1 9 33
M  V30 35 1 11 34
M  V30 36 1 16 35
M  V30 37 1 18 36
M  V30 38 1 19 37
M  V30 39 1 20 38
M  V30 40 1 21 39
M  V30 41 1 24 40
M  V30 42 1 24 41
M  V30 43 1 25 42
M  V30 44 1 25 43
M  V30 45 1 25 44
M  V30 END BOND
M  V30 END CTAB
M  END
>  <Structure No>
2911

>  <LogS>
-4.261751621

>  <MMFF94 Energy>
24.534

$$$$
Compound 2912
Actelion Java MolfileCreator 2.0

  0  0  0  0  0  0              0 V3000
M  V30 BEGIN CTAB
M  V30 COUNTS 74 82 0 0 0
M  V30 BEGIN ATOM
M  V30 1 O -5.6402 0.4079 0.0 0
M  V30 2 C -4.7952 1.3453 0.0193 0
M  V30 3 C -3.4039 1.0612 0.0573 0
M  V30 4 C -5.2581 2.6738 -0.0203 0
M  V30 5 C -2.4688 2.1507 -0.0175 0
M  V30 6 C -2.9162 -0.2892 0.1412 0
M  V30 7 C -4.3355 3.7445 -0.0491 0
M  V30 8 C -6.6421 2.9556 -0.033 0
M  V30 9 C -2.9525 3.4836 -0.0547 0
M  V30 10 C -1.0853 1.8246 -0.0502 0
M  V30 11 N -3.8018 -1.3995 0.3584 0
M  V30 12 C -1.5377 -0.5474 0.107 0
M  V30 13 C -4.8201 5.0706 -0.0822 0
M  V30 14 C -7.0997 4.273 -0.0675 0
M  V30 15 O -2.1537 4.4572 -0.0898 0
M  V30 16 N -0.0085 2.6515 -0.1348 0
M  V30 17 C -0.6638 0.5182 0.0022 0
M  V30 18 C -3.8025 -2.5673 -0.4813 0
M  V30 19 C -6.1912 5.3277 -0.0908 0
M  V30 20 C 1.092 1.8522 -0.132 0
M  V30 21 C 0.709 0.5361 -0.0438 0
M  V30 22 O -3.0133 -2.6325 -1.4634 0
M  V30 23 C -4.7155 -3.7028 -0.2115 0
M  V30 24 C 2.4655 2.2138 -0.1987 0
M  V30 25 C 1.6143 -0.5081 -0.0301 0
M  V30 26 C -5.9553 -3.5054 0.4258 0
M  V30 27 C -4.3557 -5.0028 -0.6131 0
M  V30 28 C 2.9095 3.5564 -0.3084 0
M  V30 29 C 3.4326 1.1509 -0.1522 0
M  V30 30 C 2.9849 -0.2144 -0.0881 0
M  V30 31 C -6.8047 -4.589 0.6717 0
M  V30 32 C -5.2078 -6.0827 -0.3624 0
M  V30 33 O 2.0823 4.5035 -0.3857 0
M  V30 34 C 4.2842 3.8565 -0.3395 0
M  V30 35 C 4.8147 1.4791 -0.1434 0
M  V30 36 N 3.9039 -1.3153 -0.1734 0
M  V30 37 C -6.4299 -5.8763 0.2811 0
M  V30 38 C 5.2378 2.8172 -0.2491 0
M  V30 39 C 4.729 5.1923 -0.4504 0
M  V30 40 O 5.687 0.5753 -0.0195 0
M  V30 41 C 3.9306 -2.3802 0.793 0
M  V30 42 C 6.6125 3.14 -0.2644 0
M  V30 43 C 6.0919 5.4896 -0.4677 0
M  V30 44 O 3.1348 -2.3561 1.7726 0
M  V30 45 C 4.8743 -3.5147 0.6571 0
M  V30 46 C 7.0312 4.4663 -0.3733 0
M  V30 47 C 6.1083 -3.3626 -0.003 0
M  V30 48 C 4.551 -4.7663 1.2133 0
M  V30 49 C 6.986 -4.4453 -0.1191 0
M  V30 50 C 5.4317 -5.8454 1.0926 0
M  V30 51 C 6.6471 -5.6859 0.4248 0
M  V30 52 H -7.377 2.1599 -0.0118 0
M  V30 53 H -4.4047 -1.3731 1.2103 0
M  V30 54 H -1.161 -1.5588 0.1931 0
M  V30 55 H -4.1423 5.9152 -0.105 0
M  V30 56 H -8.163 4.4762 -0.0753 0
M  V30 57 H -0.0234 3.6855 -0.1881 0
M  V30 58 H -6.5495 6.3488 -0.118 0
M  V30 59 H 1.2677 -1.5334 -0.0036 0
M  V30 60 H -6.2845 -2.5163 0.7135 0
M  V30 61 H -3.41 -5.1855 -1.1083 0
M  V30 62 H -7.7576 -4.4289 1.16 0
M  V30 63 H -4.9202 -7.0801 -0.6681 0
M  V30 64 H 4.5115 -1.3688 -1.0206 0
M  V30 65 H -7.0892 -6.7128 0.4722 0
M  V30 66 H 4.0254 6.0126 -0.5227 0
M  V30 67 H 7.3694 2.3685 -0.1949 0
M  V30 68 H 6.4202 6.5177 -0.5531 0
M  V30 69 H 8.088 4.7006 -0.3857 0
M  V30 70 H 6.4118 -2.4064 -0.4072 0
M  V30 71 H 3.611 -4.9133 1.7302 0
M  V30 72 H 7.9337 -4.3202 -0.6262 0
M  V30 73 H 5.1702 -6.8063 1.5167 0
M  V30 74 H 7.3281 -6.5222 0.333 0
M  V30 END ATOM
M  V30 BEGIN BOND
M  V30 1 2 1 2
M  V30 2 1 2 3
M  V30 3 1 2 4
M  V30 4 2 3 5
M  V30 5 1 3 6
M  V30 6 2 4 7
M  V30 7 1 4 8
M  V30 8 1 5 9
M  V30 9 1 5 10
M  V30 10 1 6 11
M  V30 11 2 6 12
M  V30 12 1 7 13
M  V30 13 2 8 14
M  V30 14 2 9 15
M  V30 15 1 10 16
M  V30 16 2 10 17
M  V30 17 1 11 18
M  V30 18 2 13 19
M  V30 19 1 16 20
M  V30 20 1 17 21
M  V30 21 2 18 22
M  V30 22 1 18 23
M  V30 23 1 20 24
M  V30 24 1 21 25
M  V30 25 2 23 26
M  V30 26 1 23 27
M  V30 27 1 24 28
M  V30 28 2 24 29
M  V30 29 2 25 30
M  V30 30 1 26 31
M  V30 31 2 27 32
M  V30 32 2 28 33
M  V30 33 1 28 34
M  V30 34 1 29 35
M  V30 35 1 30 36
M  V30 36 2 31 37
M  V30 37 2 34 38
M  V30 38 1 34 39
M  V30 39 2 35 40
M  V30 40 1 36 41
M  V30 41 1 38 42
M  V30 42 2 39 43
M  V30 43 2 41 44
M  V30 44 1 41 45
M  V30 45 2 42 46
M  V30 46 2 45 47
M  V30 47 1 45 48
M  V30 48 1 47 49
M  V30 49 2 48 50
M  V30 50 2 49 51
M  V30 51 1 7 9
M  V30 52 1 12 17
M  V30 53 1 14 19
M  V30 54 2 20 21
M  V30 55 1 29 30
M  V30 56 1 32 37
M  V30 57 1 35 38
M  V30 58 1 43 46
M  V30 59 1 50 51
M  V30 60 1 8 52
M  V30 61 1 11 53
M  V30 62 1 12 54
M  V30 63 1 13 55
M  V30 64 1 14 56
M  V30 65 1 16 57
M  V30 66 1 19 58
M  V30 67 1 25 59
M  V30 68 1 26 60
M  V30 69 1 27 61
M  V30 70 1 31 62
M  V30 71 1 32 63
M  V30 72 1 36 64
M  V30 73 1 37 65
M  V30 74 1 39 66
M  V30 75 1 42 67
M  V30 76 1 43 68
M  V30 77 1 46 69
M  V30 78 1 47 70
M  V30 79 1 48 71
M  V30 80 1 49 72
M  V30 81 1 50 73
M  V30 82 1 51 74
M  V30 END BOND
M  V30 END CTAB
M  END
>  <Structure No>
2912

>  <LogS>
-4.522223117

>  <MMFF94 Energy>
148.74

$$$$
Compound 2913
Actelion Java MolfileCreator 2.0

  0  0  0  0  0  0              0 V3000
M  V30 BEGIN CTAB
M  V30 COUNTS 48 49 0 0 0
M  V30 BEGIN ATOM
M  V30 1 O 5.1399 -1.6583 -0.1578 0
M  V30 2 C 3.8509 -1.109 -0.088 0
M  V30 3 C 6.0269 -1.7702 0.9503 0
M  V30 4 C 3.0842 -1.062 -1.2564 0
M  V30 5 C 3.3074 -0.608 1.109 0
M  V30 6 C 1.7942 -0.5259 -1.2401 0
M  V30 7 C 2.0173 -0.0708 1.1279 0
M  V30 8 C 1.2438 -0.0217 -0.0461 0
M  V30 9 C -0.1731 0.5508 -0.0095 0 CFG=2
M  V30 10 C -1.2692 -0.5728 -0.2256 0
M  V30 11 C -0.2353 1.7446 -1.0292 0
M  V30 12 O -1.286 -0.9035 -1.598 0
M  V30 13 C -2.683 -0.0489 0.2246 0
M  V30 14 C -0.9056 -1.8521 0.5935 0
M  V30 15 N -1.2736 2.7746 -0.7656 0 CHG=1
M  V30 16 C -3.5345 -1.0546 1.0215 0
M  V30 17 C -1.9592 -2.974 0.4927 0
M  V30 18 C -1.0227 3.5134 0.4887 0
M  V30 19 C -1.3089 3.7293 -1.8899 0
M  V30 20 C -3.4116 -2.4675 0.461 0
M  V30 21 H 5.5749 -2.4092 1.7381 0
M  V30 22 H 6.2558 -0.7634 1.3592 0
M  V30 23 H 6.9729 -2.2395 0.6115 0
M  V30 24 H 3.491 -1.4448 -2.1837 0
M  V30 25 H 3.8723 -0.6304 2.0308 0
M  V30 26 H 1.2277 -0.5056 -2.1611 0
M  V30 27 H 1.6212 0.3023 2.0641 0
M  V30 28 H -0.3174 0.9535 1.0119 0
M  V30 29 H -0.3744 1.3291 -2.0513 0
M  V30 30 H 0.7596 2.2491 -1.0531 0
M  V30 31 H -2.0619 -1.4913 -1.7811 0
M  V30 32 H -3.2633 0.2695 -0.669 0
M  V30 33 H -2.5879 0.8392 0.8829 0
M  V30 34 H 0.0589 -2.2822 0.2503 0
M  V30 35 H -0.7792 -1.5729 1.6633 0
M  V30 36 H -2.2183 2.3382 -0.7229 0
M  V30 37 H -4.5997 -0.7376 0.9956 0
M  V30 38 H -3.2135 -1.0562 2.0868 0
M  V30 39 H -1.77 -3.5773 -0.4218 0
M  V30 40 H -1.8273 -3.6554 1.3614 0
M  V30 41 H -1.2533 2.8874 1.3741 0
M  V30 42 H -1.6893 4.4007 0.567 0
M  V30 43 H 0.0319 3.8617 0.5487 0
M  V30 44 H -1.531 3.2029 -2.8444 0
M  V30 45 H -0.3378 4.2635 -1.9933 0
M  V30 46 H -2.1154 4.4813 -1.7413 0
M  V30 47 H -4.0551 -3.1533 1.0538 0
M  V30 48 H -3.7978 -2.4803 -0.5811 0
M  V30 END ATOM
M  V30 BEGIN BOND
M  V30 1 1 1 2
M  V30 2 1 1 3
M  V30 3 2 2 4
M  V30 4 1 2 5
M  V30 5 1 4 6
M  V30 6 2 5 7
M  V30 7 2 6 8
M  V30 8 1 8 9
M  V30 9 1 9 10
M  V30 10 1 9 11
M  V30 11 1 10 12
M  V30 12 1 10 13
M  V30 13 1 10 14
M  V30 14 1 11 15
M  V30 15 1 13 16
M  V30 16 1 14 17
M  V30 17 1 15 18
M  V30 18 1 15 19
M  V30 19 1 16 20
M  V30 20 1 7 8
M  V30 21 1 17 20
M  V30 22 1 3 21
M  V30 23 1 3 22
M  V30 24 1 3 23
M  V30 25 1 4 24
M  V30 26 1 5 25
M  V30 27 1 6 26
M  V30 28 1 7 27
M  V30 29 1 9 28
M  V30 30 1 11 29
M  V30 31 1 11 30
M  V30 32 1 12 31
M  V30 33 1 13 32
M  V30 34 1 13 33
M  V30 35 1 14 34
M  V30 36 1 14 35
M  V30 37 1 15 36
M  V30 38 1 16 37
M  V30 39 1 16 38
M  V30 40 1 17 39
M  V30 41 1 17 40
M  V30 42 1 18 41
M  V30 43 1 18 42
M  V30 44 1 18 43
M  V30 45 1 19 44
M  V30 46 1 19 45
M  V30 47 1 19 46
M  V30 48 1 20 47
M  V30 49 1 20 48
M  V30 END BOND
M  V30 BEGIN COLLECTION
M  V30 MDLV30/STEABS ATOMS=(1 9)
M  V30 END COLLECTION
M  V30 END CTAB
M  END
>  <Structure No>
2913

>  <LogS>
0.256718745

>  <MMFF94 Energy>
61.433

$$$$
Compound 2914
Actelion Java MolfileCreator 2.0

  0  0  0  0  0  0              0 V3000
M  V30 BEGIN CTAB
M  V30 COUNTS 43 46 0 0 0
M  V30 BEGIN ATOM
M  V30 1 S 4.593 -3.0881 1.2511 0
M  V30 2 O 5.3968 -3.3197 0.0029 0
M  V30 3 O 4.1809 -4.4187 1.8166 0
M  V30 4 O 5.5344 -2.2948 2.3944 0 CHG=-1
M  V30 5 C 3.1713 -2.0989 0.8665 0
M  V30 6 C 3.3129 -0.6762 0.4097 0
M  V30 7 C 1.956 -2.6571 0.9829 0
M  V30 8 C 2.1595 0.1214 0.2031 0
M  V30 9 C 4.583 -0.1085 0.1739 0
M  V30 10 C 0.7262 -1.9052 0.7043 0
M  V30 11 C 0.8104 -0.4483 0.4447 0
M  V30 12 C 2.3046 1.4561 -0.2172 0
M  V30 13 C 4.7203 1.2246 -0.2463 0
M  V30 14 O -0.3629 -2.532 0.6309 0
M  V30 15 N -0.2287 0.3418 0.406 0
M  V30 16 C 3.568 1.9994 -0.4385 0
M  V30 17 N 6.0265 1.7859 -0.4767 0 CHG=1
M  V30 18 N -1.5473 -0.0059 0.7479 0
M  V30 19 O 6.1537 2.9693 -0.8553 0
M  V30 20 O 7.1595 1.0343 -0.2658 0 CHG=-1
M  V30 21 C -2.6409 0.8189 0.3243 0
M  V30 22 C -2.635 2.2083 0.5894 0
M  V30 23 C -3.7364 0.2464 -0.3677 0
M  V30 24 O -1.622 2.8158 1.3339 0
M  V30 25 C -3.6808 3.0116 0.1283 0
M  V30 26 C -4.7987 1.0782 -0.8087 0
M  V30 27 C -3.791 -1.1337 -0.6536 0
M  V30 28 C -4.7553 2.4552 -0.5622 0
M  V30 29 C -5.8866 0.5208 -1.4995 0
M  V30 30 C -4.8811 -1.6732 -1.3413 0
M  V30 31 C -5.926 -0.8496 -1.7608 0
M  V30 32 H 1.8551 -3.6944 1.2751 0
M  V30 33 H 5.4769 -0.6969 0.3091 0
M  V30 34 H 1.4384 2.0854 -0.38 0
M  V30 35 H 3.6429 3.0296 -0.7628 0
M  V30 36 H -1.7536 -0.8131 1.3752 0
M  V30 37 H -0.8983 2.2945 1.8106 0
M  V30 38 H -3.669 4.0767 0.3246 0
M  V30 39 H -2.9959 -1.8033 -0.3549 0
M  V30 40 H -5.5567 3.1027 -0.8991 0
M  V30 41 H -6.7045 1.1453 -1.8392 0
M  V30 42 H -4.9147 -2.7343 -1.5514 0
M  V30 43 H -6.767 -1.2739 -2.2941 0
M  V30 END ATOM
M  V30 BEGIN BOND
M  V30 1 2 1 2
M  V30 2 2 1 3
M  V30 3 1 1 4
M  V30 4 1 1 5
M  V30 5 1 5 6
M  V30 6 2 5 7
M  V30 7 2 6 8
M  V30 8 1 6 9
M  V30 9 1 7 10
M  V30 10 1 8 11
M  V30 11 1 8 12
M  V30 12 2 9 13
M  V30 13 2 10 14
M  V30 14 2 11 15
M  V30 15 2 12 16
M  V30 16 1 13 17
M  V30 17 1 15 18
M  V30 18 2 17 19
M  V30 19 1 17 20
M  V30 20 1 18 21
M  V30 21 2 21 22
M  V30 22 1 21 23
M  V30 23 1 22 24
M  V30 24 1 22 25
M  V30 25 1 23 26
M  V30 26 2 23 27
M  V30 27 2 25 28
M  V30 28 2 26 29
M  V30 29 1 27 30
M  V30 30 1 29 31
M  V30 31 1 10 11
M  V30 32 1 13 16
M  V30 33 1 26 28
M  V30 34 2 30 31
M  V30 35 1 7 32
M  V30 36 1 9 33
M  V30 37 1 12 34
M  V30 38 1 16 35
M  V30 39 1 18 36
M  V30 40 1 24 37
M  V30 41 1 25 38
M  V30 42 1 27 39
M  V30 43 1 28 40
M  V30 44 1 29 41
M  V30 45 1 30 42
M  V30 46 1 31 43
M  V30 END BOND
M  V30 END CTAB
M  END
>  <Structure No>
2914

>  <LogS>
-5.166184625

>  <MMFF94 Energy>
161.26

$$$$
Compound 2915
Actelion Java MolfileCreator 2.0

  0  0  0  0  0  0              0 V3000
M  V30 BEGIN CTAB
M  V30 COUNTS 45 44 0 0 0
M  V30 BEGIN ATOM
M  V30 1 O 6.324 1.0128 2.3386 0
M  V30 2 C 5.9673 0.5421 1.2248 0
M  V30 3 O 4.9929 -0.4617 1.1557 0
M  V30 4 C 6.5917 1.0561 -0.0023 0
M  V30 5 C 4.2822 -0.9493 2.293 0
M  V30 6 C 6.246 0.6175 -1.2105 0
M  V30 7 C 3.2355 0.0645 2.7783 0
M  V30 8 C 2.2752 0.5366 1.6732 0
M  V30 9 C 1.3595 -0.5858 1.1632 0
M  V30 10 C 0.3266 -0.0424 0.1683 0
M  V30 11 C -0.5879 -1.1654 -0.3434 0
M  V30 12 C -1.5488 -0.692 -1.4455 0
M  V30 13 C -2.6378 0.2572 -0.9146 0
M  V30 14 C -3.6914 0.5859 -1.9876 0
M  V30 15 C -4.7386 -0.5349 -2.176 0
M  V30 16 C -6.0812 -0.2405 -1.4861 0
M  V30 17 C -5.9793 -0.2409 0.0378 0
M  V30 18 H 7.3553 1.8201 0.0791 0
M  V30 19 H 3.7831 -1.9022 2.0219 0
M  V30 20 H 4.9937 -1.1778 3.1161 0
M  V30 21 H 5.4852 -0.1417 -1.3413 0
M  V30 22 H 6.7289 1.0236 -2.0898 0
M  V30 23 H 2.6528 -0.3849 3.6117 0
M  V30 24 H 3.7606 0.953 3.19 0
M  V30 25 H 2.8525 0.9678 0.8265 0
M  V30 26 H 1.6459 1.3508 2.0952 0
M  V30 27 H 1.971 -1.3627 0.6565 0
M  V30 28 H 0.8307 -1.0524 2.0234 0
M  V30 29 H 0.8562 0.4248 -0.6909 0
M  V30 30 H -0.2848 0.7347 0.6746 0
M  V30 31 H -1.1684 -1.5959 0.5021 0
M  V30 32 H 0.0429 -1.978 -0.7661 0
M  V30 33 H -2.0256 -1.5922 -1.888 0
M  V30 34 H -0.9735 -0.19 -2.2541 0
M  V30 35 H -3.1248 -0.1849 -0.0198 0
M  V30 36 H -2.162 1.2113 -0.6028 0
M  V30 37 H -3.1766 0.7749 -2.9554 0
M  V30 38 H -4.1955 1.54 -1.7181 0
M  V30 39 H -4.9412 -0.6389 -3.2644 0
M  V30 40 H -4.353 -1.5187 -1.8324 0
M  V30 41 H -6.8097 -1.0244 -1.7874 0
M  V30 42 H -6.4813 0.7375 -1.8317 0
M  V30 43 H -5.3711 0.6191 0.3875 0
M  V30 44 H -6.9953 -0.146 0.4759 0
M  V30 45 H -5.5264 -1.1895 0.3969 0
M  V30 END ATOM
M  V30 BEGIN BOND
M  V30 1 2 1 2
M  V30 2 1 2 3
M  V30 3 1 2 4
M  V30 4 1 3 5
M  V30 5 2 4 6
M  V30 6 1 5 7
M  V30 7 1 7 8
M  V30 8 1 8 9
M  V30 9 1 9 10
M  V30 10 1 10 11
M  V30 11 1 11 12
M  V30 12 1 12 13
M  V30 13 1 13 14
M  V30 14 1 14 15
M  V30 15 1 15 16
M  V30 16 1 16 17
M  V30 17 1 4 18
M  V30 18 1 5 19
M  V30 19 1 5 20
M  V30 20 1 6 21
M  V30 21 1 6 22
M  V30 22 1 7 23
M  V30 23 1 7 24
M  V30 24 1 8 25
M  V30 25 1 8 26
M  V30 26 1 9 27
M  V30 27 1 9 28
M  V30 28 1 10 29
M  V30 29 1 10 30
M  V30 30 1 11 31
M  V30 31 1 11 32
M  V30 32 1 12 33
M  V30 33 1 12 34
M  V30 34 1 13 35
M  V30 35 1 13 36
M  V30 36 1 14 37
M  V30 37 1 14 38
M  V30 38 1 15 39
M  V30 39 1 15 40
M  V30 40 1 16 41
M  V30 41 1 16 42
M  V30 42 1 17 43
M  V30 43 1 17 44
M  V30 44 1 17 45
M  V30 END BOND
M  V30 END CTAB
M  END
>  <Structure No>
2915

>  <LogS>
-4.380910978

>  <MMFF94 Energy>
-3.9239

$$$$
Compound 2916
Actelion Java MolfileCreator 2.0

  0  0  0  0  0  0              0 V3000
M  V30 BEGIN CTAB
M  V30 COUNTS 51 50 0 0 0
M  V30 BEGIN ATOM
M  V30 1 O 6.1697 0.3116 -1.7931 0
M  V30 2 C 6.6681 0.6994 -0.7026 0
M  V30 3 O 6.3185 0.0793 0.504 0
M  V30 4 C 7.6328 1.8083 -0.714 0
M  V30 5 C 5.3286 -0.9427 0.6219 0
M  V30 6 C 8.1924 2.2731 0.4005 0
M  V30 7 C 3.9895 -0.3557 1.0865 0
M  V30 8 C 3.2833 0.5175 0.0334 0
M  V30 9 C 2.8106 -0.2334 -1.2286 0
M  V30 10 C 1.8582 -1.4151 -0.9721 0
M  V30 11 C 0.5627 -0.9976 -0.2606 0
M  V30 12 C -0.4281 -2.1695 -0.1941 0
M  V30 13 C -1.6739 -1.8458 0.6458 0
M  V30 14 C -2.6007 -0.829 -0.0369 0
M  V30 15 C -3.8926 -0.6379 0.7667 0
M  V30 16 C -4.8142 0.3861 0.0935 0
M  V30 17 C -6.1062 0.5762 0.8967 0
M  V30 18 C -7.0268 1.6005 0.2234 0
M  V30 19 C -8.314 1.7925 1.0199 0
M  V30 20 H 7.8952 2.264 -1.661 0
M  V30 21 H 5.2232 -1.5258 -0.3167 0
M  V30 22 H 5.6726 -1.656 1.4004 0
M  V30 23 H 7.9596 1.851 1.3701 0
M  V30 24 H 8.8974 3.0924 0.3485 0
M  V30 25 H 4.178 0.2687 1.9868 0
M  V30 26 H 3.3192 -1.1771 1.4137 0
M  V30 27 H 3.9631 1.3394 -0.2754 0
M  V30 28 H 2.41 1.0104 0.5107 0
M  V30 29 H 2.2997 0.4955 -1.8946 0
M  V30 30 H 3.6894 -0.6062 -1.7928 0
M  V30 31 H 1.5981 -1.8564 -1.9592 0
M  V30 32 H 2.3762 -2.2077 -0.3921 0
M  V30 33 H 0.7976 -0.666 0.7731 0
M  V30 34 H 0.104 -0.151 -0.8142 0
M  V30 35 H 0.0803 -3.0426 0.2708 0
M  V30 36 H -0.734 -2.4661 -1.2213 0
M  V30 37 H -2.2348 -2.793 0.8038 0
M  V30 38 H -1.3663 -1.4666 1.645 0
M  V30 39 H -2.8543 -1.1869 -1.059 0
M  V30 40 H -2.0835 0.1504 -0.1213 0
M  V30 41 H -4.4236 -1.612 0.8475 0
M  V30 42 H -3.6393 -0.2872 1.7916 0
M  V30 43 H -4.2844 1.3611 0.0134 0
M  V30 44 H -5.0666 0.0357 -0.9316 0
M  V30 45 H -5.854 0.9268 1.922 0
M  V30 46 H -6.6367 -0.3982 0.9767 0
M  V30 47 H -7.2863 1.255 -0.801 0
M  V30 48 H -6.5044 2.5788 0.1433 0
M  V30 49 H -8.8692 0.8332 1.0934 0
M  V30 50 H -8.9594 2.538 0.5095 0
M  V30 51 H -8.084 2.1626 2.0418 0
M  V30 END ATOM
M  V30 BEGIN BOND
M  V30 1 2 1 2
M  V30 2 1 2 3
M  V30 3 1 2 4
M  V30 4 1 3 5
M  V30 5 2 4 6
M  V30 6 1 5 7
M  V30 7 1 7 8
M  V30 8 1 8 9
M  V30 9 1 9 10
M  V30 10 1 10 11
M  V30 11 1 11 12
M  V30 12 1 12 13
M  V30 13 1 13 14
M  V30 14 1 14 15
M  V30 15 1 15 16
M  V30 16 1 16 17
M  V30 17 1 17 18
M  V30 18 1 18 19
M  V30 19 1 4 20
M  V30 20 1 5 21
M  V30 21 1 5 22
M  V30 22 1 6 23
M  V30 23 1 6 24
M  V30 24 1 7 25
M  V30 25 1 7 26
M  V30 26 1 8 27
M  V30 27 1 8 28
M  V30 28 1 9 29
M  V30 29 1 9 30
M  V30 30 1 10 31
M  V30 31 1 10 32
M  V30 32 1 11 33
M  V30 33 1 11 34
M  V30 34 1 12 35
M  V30 35 1 12 36
M  V30 36 1 13 37
M  V30 37 1 13 38
M  V30 38 1 14 39
M  V30 39 1 14 40
M  V30 40 1 15 41
M  V30 41 1 15 42
M  V30 42 1 16 43
M  V30 43 1 16 44
M  V30 44 1 17 45
M  V30 45 1 17 46
M  V30 46 1 18 47
M  V30 47 1 18 48
M  V30 48 1 19 49
M  V30 49 1 19 50
M  V30 50 1 19 51
M  V30 END BOND
M  V30 END CTAB
M  END
>  <Structure No>
2916

>  <LogS>
-4.428848848

>  <MMFF94 Energy>
-4.8386

$$$$
Compound 2917
Actelion Java MolfileCreator 2.0

  0  0  0  0  0  0              0 V3000
M  V30 BEGIN CTAB
M  V30 COUNTS 20 22 0 0 0
M  V30 BEGIN ATOM
M  V30 1 Cl -2.8433 0.5682 2.2742 0
M  V30 2 C -1.6544 0.4485 0.9834 0
M  V30 3 C -1.4048 1.3828 0.0552 0
M  V30 4 C -0.7949 -0.7513 0.6376 0 CFG=1
M  V30 5 Cl -2.2092 2.9411 -0.083 0
M  V30 6 C -0.3825 0.7916 -0.8953 0 CFG=1
M  V30 7 Cl -1.3394 -2.2954 1.3577 0
M  V30 8 C -0.8658 -0.6674 -0.8954 0
M  V30 9 C 0.6589 -0.3114 0.996 0 CFG=2
M  V30 10 Cl -0.3024 1.5841 -2.4968 0
M  V30 11 C 0.9487 0.7725 -0.0808 0 CFG=1
M  V30 12 Cl 0.1442 -1.8421 -1.8059 0
M  V30 13 Cl -2.5398 -0.8725 -1.552 0
M  V30 14 C 1.7421 -1.3206 0.7641 0
M  V30 15 C 2.1589 0.2386 -0.785 0
M  V30 16 O 1.8871 -2.3735 1.4384 0
M  V30 17 O 2.6004 -0.9611 -0.2584 0
M  V30 18 O 2.7412 0.8218 -1.7362 0
M  V30 19 H 0.7343 0.0977 2.0286 0
M  V30 20 H 1.1789 1.7613 0.3757 0
M  V30 END ATOM
M  V30 BEGIN BOND
M  V30 1 1 1 2
M  V30 2 2 2 3
M  V30 3 1 2 4
M  V30 4 1 3 5
M  V30 5 1 3 6
M  V30 6 1 4 7
M  V30 7 1 4 8
M  V30 8 1 4 9
M  V30 9 1 6 10
M  V30 10 1 6 11
M  V30 11 1 8 12
M  V30 12 1 8 13
M  V30 13 1 9 14
M  V30 14 1 11 15
M  V30 15 2 14 16
M  V30 16 1 14 17
M  V30 17 2 15 18
M  V30 18 1 6 8
M  V30 19 1 9 11
M  V30 20 1 15 17
M  V30 21 1 9 19
M  V30 22 1 11 20
M  V30 END BOND
M  V30 BEGIN COLLECTION
M  V30 MDLV30/STEABS ATOMS=(4 4 6 9 11)
M  V30 END COLLECTION
M  V30 END CTAB
M  END
>  <Structure No>
2917

>  <LogS>
-5.171234853

>  <MMFF94 Energy>
-13.244

$$$$
Compound 2918
Actelion Java MolfileCreator 2.0

  0  0  0  0  0  0              0 V3000
M  V30 BEGIN CTAB
M  V30 COUNTS 65 66 0 0 0
M  V30 BEGIN ATOM
M  V30 1 Cl 4.9551 2.0285 -2.4346 0
M  V30 2 C 5.8324 1.4799 -1.0076 0
M  V30 3 C 5.2281 0.7427 0.0462 0
M  V30 4 C 7.2032 1.7553 -0.9757 0
M  V30 5 N 3.8228 0.4247 0.0471 0
M  V30 6 C 6.0406 0.279 1.117 0
M  V30 7 C 8.0076 1.2964 0.0699 0
M  V30 8 N 2.9608 1.0381 -0.6591 0
M  V30 9 N 5.4958 -0.4877 2.2157 0 CHG=1
M  V30 10 C 7.4176 0.5647 1.1103 0
M  V30 11 N 9.4242 1.5364 0.0535 0 CHG=1
M  V30 12 C 1.5662 0.6961 -0.6716 0
M  V30 13 O 4.3856 -1.0519 2.1229 0
M  V30 14 O 6.2747 -0.7712 3.3112 0 CHG=-1
M  V30 15 O 10.1653 1.0518 0.9341 0
M  V30 16 O 9.9912 2.3076 -0.9354 0 CHG=-1
M  V30 17 C 1.0731 -0.5513 -0.2279 0
M  V30 18 C 0.6713 1.6521 -1.1545 0
M  V30 19 N 1.9679 -1.6396 0.0613 0
M  V30 20 C -0.3135 -0.7708 -0.2062 0
M  V30 21 C -0.7162 1.4215 -1.1614 0
M  V30 22 C 1.7398 -2.5992 1.1056 0
M  V30 23 C -1.2305 0.2159 -0.6198 0
M  V30 24 O -1.5956 2.3606 -1.7224 0
M  V30 25 O 0.9219 -2.3533 2.0339 0
M  V30 26 C 2.5232 -3.8713 1.1358 0
M  V30 27 N -2.6649 -0.0259 -0.5101 0
M  V30 28 C -1.2116 3.6065 -2.2945 0
M  V30 29 C -3.2202 -1.392 -0.6053 0
M  V30 30 C -3.6045 1.0699 -0.1993 0
M  V30 31 C -3.4321 -2.0089 0.784 0
M  V30 32 C -4.4624 1.426 -1.4216 0
M  V30 33 O -4.1619 -3.2301 0.6652 0
M  V30 34 O -5.0632 2.7109 -1.2611 0
M  V30 35 C -4.4658 -4.0241 1.7762 0
M  V30 36 C -6.1686 2.9429 -0.4387 0
M  V30 37 O -4.0434 -3.711 2.9261 0
M  V30 38 C -5.3386 -5.2239 1.6059 0
M  V30 39 O -6.6709 2.0117 0.2519 0
M  V30 40 C -6.7393 4.3185 -0.3459 0
M  V30 41 H 7.6466 2.3034 -1.7963 0
M  V30 42 H 8.0406 0.2055 1.9187 0
M  V30 43 H 1.072 2.5847 -1.5271 0
M  V30 44 H 2.7714 -1.8 -0.5849 0
M  V30 45 H -0.6646 -1.7408 0.103 0
M  V30 46 H 1.9707 -4.6494 1.706 0
M  V30 47 H 3.5069 -3.6899 1.615 0
M  V30 48 H 2.684 -4.2357 0.0993 0
M  V30 49 H -2.1203 4.1324 -2.6503 0
M  V30 50 H -0.5361 3.4361 -3.1608 0
M  V30 51 H -0.7115 4.2383 -1.53 0
M  V30 52 H -4.1944 -1.3624 -1.1374 0
M  V30 53 H -2.5589 -2.0452 -1.2116 0
M  V30 54 H -4.276 0.7715 0.6296 0
M  V30 55 H -3.0641 1.9662 0.1729 0
M  V30 56 H -4.0042 -1.3091 1.4342 0
M  V30 57 H -2.4545 -2.2117 1.2741 0
M  V30 58 H -5.249 0.6597 -1.5828 0
M  V30 59 H -3.8351 1.4453 -2.3359 0
M  V30 60 H -5.0055 -5.8093 0.7218 0
M  V30 61 H -5.2941 -5.8707 2.5088 0
M  V30 62 H -6.3892 -4.8909 1.4588 0
M  V30 63 H -7.8497 4.268 -0.3396 0
M  V30 64 H -6.4178 4.92 -1.2225 0
M  V30 65 H -6.3853 4.8045 0.5883 0
M  V30 END ATOM
M  V30 BEGIN BOND
M  V30 1 1 1 2
M  V30 2 2 2 3
M  V30 3 1 2 4
M  V30 4 1 3 5
M  V30 5 1 3 6
M  V30 6 2 4 7
M  V30 7 2 5 8
M  V30 8 1 6 9
M  V30 9 2 6 10
M  V30 10 1 7 11
M  V30 11 1 8 12
M  V30 12 2 9 13
M  V30 13 1 9 14
M  V30 14 2 11 15
M  V30 15 1 11 16
M  V30 16 2 12 17
M  V30 17 1 12 18
M  V30 18 1 17 19
M  V30 19 1 17 20
M  V30 20 2 18 21
M  V30 21 1 19 22
M  V30 22 2 20 23
M  V30 23 1 21 24
M  V30 24 2 22 25
M  V30 25 1 22 26
M  V30 26 1 23 27
M  V30 27 1 24 28
M  V30 28 1 27 29
M  V30 29 1 27 30
M  V30 30 1 29 31
M  V30 31 1 30 32
M  V30 32 1 31 33
M  V30 33 1 32 34
M  V30 34 1 33 35
M  V30 35 1 34 36
M  V30 36 2 35 37
M  V30 37 1 35 38
M  V30 38 2 36 39
M  V30 39 1 36 40
M  V30 40 1 7 10
M  V30 41 1 21 23
M  V30 42 1 4 41
M  V30 43 1 10 42
M  V30 44 1 18 43
M  V30 45 1 19 44
M  V30 46 1 20 45
M  V30 47 1 26 46
M  V30 48 1 26 47
M  V30 49 1 26 48
M  V30 50 1 28 49
M  V30 51 1 28 50
M  V30 52 1 28 51
M  V30 53 1 29 52
M  V30 54 1 29 53
M  V30 55 1 30 54
M  V30 56 1 30 55
M  V30 57 1 31 56
M  V30 58 1 31 57
M  V30 59 1 32 58
M  V30 60 1 32 59
M  V30 61 1 38 60
M  V30 62 1 38 61
M  V30 63 1 38 62
M  V30 64 1 40 63
M  V30 65 1 40 64
M  V30 66 1 40 65
M  V30 END BOND
M  V30 END CTAB
M  END
>  <Structure No>
2918

>  <LogS>
-5.46309979

>  <MMFF94 Energy>
99.758

$$$$
Compound 2919
Actelion Java MolfileCreator 2.0

  0  0  0  0  0  0              0 V3000
M  V30 BEGIN CTAB
M  V30 COUNTS 21 21 0 0 0
M  V30 BEGIN ATOM
M  V30 1 S 0.4079 1.714 0.0815 0
M  V30 2 C 1.938 1.1296 0.4375 0
M  V30 3 C -0.3222 0.2046 -0.0908 0
M  V30 4 N 3.0748 1.9516 0.7039 0
M  V30 5 C 1.9172 -0.2607 0.4307 0
M  V30 6 C 0.6426 -0.7927 0.1327 0
M  V30 7 C -1.7483 0.0295 -0.4236 0
M  V30 8 C 3.0862 -1.0609 0.7022 0
M  V30 9 C 0.3479 -2.2669 0.062 0
M  V30 10 O -2.2446 -1.1236 -0.541 0
M  V30 11 O -2.5488 1.1611 -0.6086 0
M  V30 12 N 4.0243 -1.7025 0.9201 0
M  V30 13 C -3.9318 1.0787 -0.9311 0
M  V30 14 H 2.9843 2.9914 0.6844 0
M  V30 15 H 4.005 1.5304 0.9203 0
M  V30 16 H -0.0153 -2.5267 -0.9542 0
M  V30 17 H -0.4272 -2.5292 0.8119 0
M  V30 18 H 1.2476 -2.8806 0.2709 0
M  V30 19 H -4.4787 0.5427 -0.1266 0
M  V30 20 H -4.3458 2.1035 -1.0262 0
M  V30 21 H -4.066 0.5453 -1.896 0
M  V30 END ATOM
M  V30 BEGIN BOND
M  V30 1 1 1 2
M  V30 2 1 1 3
M  V30 3 1 2 4
M  V30 4 2 2 5
M  V30 5 2 3 6
M  V30 6 1 3 7
M  V30 7 1 5 8
M  V30 8 1 6 9
M  V30 9 2 7 10
M  V30 10 1 7 11
M  V30 11 3 8 12
M  V30 12 1 11 13
M  V30 13 1 5 6
M  V30 14 1 4 14
M  V30 15 1 4 15
M  V30 16 1 9 16
M  V30 17 1 9 17
M  V30 18 1 9 18
M  V30 19 1 13 19
M  V30 20 1 13 20
M  V30 21 1 13 21
M  V30 END BOND
M  V30 END CTAB
M  END
>  <Structure No>
2919

>  <LogS>
-4.991737621

>  <MMFF94 Energy>
19.2

$$$$
Compound 2920
Actelion Java MolfileCreator 2.0

  0  0  0  0  0  0              0 V3000
M  V30 BEGIN CTAB
M  V30 COUNTS 65 64 0 0 0
M  V30 BEGIN ATOM
M  V30 1 O -6.4859 1.2477 0.8576 0
M  V30 2 C -6.167 0.0546 0.5973 0
M  V30 3 N -7.1734 -0.9658 0.5097 0
M  V30 4 C -4.7298 -0.2761 0.3262 0
M  V30 5 C -8.6035 -0.6774 0.6105 0
M  V30 6 C -4.3475 0.1414 -1.0994 0
M  V30 7 C -9.2356 -0.614 -0.7899 0 CFG=2
M  V30 8 C -2.9414 -0.329 -1.5021 0
M  V30 9 O -8.6036 0.3611 -1.582 0
M  V30 10 C -10.7435 -0.3468 -0.7063 0
M  V30 11 C -1.8316 0.3279 -0.667 0
M  V30 12 C -0.4441 0.016 -1.2508 0
M  V30 13 C 0.702 0.4329 -0.3157 0
M  V30 14 C 0.7697 1.9534 -0.095 0
M  V30 15 C 2.0263 2.3354 0.637 0
M  V30 16 C 2.2213 2.0022 1.9212 0
M  V30 17 C 3.4933 2.3488 2.6459 0
M  V30 18 C 4.5581 1.2511 2.4915 0
M  V30 19 C 5.1774 1.2261 1.0844 0
M  V30 20 C 6.3031 0.1883 0.9942 0
M  V30 21 C 6.9273 0.1762 -0.4107 0
M  V30 22 C 8.0877 -0.824 -0.5354 0
M  V30 23 C 7.6094 -2.2841 -0.5446 0
M  V30 24 C 8.763 -3.2404 -0.8334 0
M  V30 25 H -6.8881 -1.939 0.2551 0
M  V30 26 H -4.5624 -1.3671 0.4603 0
M  V30 27 H -4.0989 0.2645 1.0636 0
M  V30 28 H -8.7772 0.2756 1.1568 0
M  V30 29 H -9.0878 -1.4873 1.1981 0
M  V30 30 H -4.4116 1.2482 -1.1954 0
M  V30 31 H -5.0746 -0.3042 -1.815 0
M  V30 32 H -9.0926 -1.6015 -1.2825 0
M  V30 33 H -2.8758 -1.4354 -1.4086 0
M  V30 34 H -2.7897 -0.0716 -2.5744 0
M  V30 35 H -8.7583 1.2461 -1.1543 0
M  V30 36 H -11.1744 -0.2966 -1.7289 0
M  V30 37 H -11.2473 -1.1688 -0.1536 0
M  V30 38 H -10.9439 0.6151 -0.1862 0
M  V30 39 H -1.8815 -0.0521 0.3753 0
M  V30 40 H -1.9876 1.4277 -0.6541 0
M  V30 41 H -0.3603 -1.079 -1.4249 0
M  V30 42 H -0.328 0.5224 -2.2341 0
M  V30 43 H 0.5902 -0.0877 0.6608 0
M  V30 44 H 1.658 0.0913 -0.7707 0
M  V30 45 H -0.1093 2.3021 0.4899 0
M  V30 46 H 0.7627 2.4723 -1.079 0
M  V30 47 H 2.7815 2.9108 0.1065 0
M  V30 48 H 1.457 1.4473 2.4595 0
M  V30 49 H 3.8867 3.3325 2.3062 0
M  V30 50 H 3.2519 2.4513 3.7267 0
M  V30 51 H 4.1122 0.2584 2.7266 0
M  V30 52 H 5.3639 1.4452 3.2338 0
M  V30 53 H 4.3969 0.9665 0.337 0
M  V30 54 H 5.5839 2.2349 0.8446 0
M  V30 55 H 5.8822 -0.8141 1.2282 0
M  V30 56 H 7.0896 0.4303 1.7438 0
M  V30 57 H 7.3223 1.1934 -0.6331 0
M  V30 58 H 6.1496 -0.0568 -1.1722 0
M  V30 59 H 8.8112 -0.6676 0.2949 0
M  V30 60 H 8.6173 -0.6146 -1.4902 0
M  V30 61 H 6.8269 -2.4214 -1.3231 0
M  V30 62 H 7.1756 -2.5496 0.4427 0
M  V30 63 H 9.5465 -3.1444 -0.0507 0
M  V30 64 H 8.3877 -4.2859 -0.8345 0
M  V30 65 H 9.207 -3.0211 -1.8295 0
M  V30 END ATOM
M  V30 BEGIN BOND
M  V30 1 2 1 2
M  V30 2 1 2 3
M  V30 3 1 2 4
M  V30 4 1 3 5
M  V30 5 1 4 6
M  V30 6 1 5 7
M  V30 7 1 6 8
M  V30 8 1 7 9
M  V30 9 1 7 10
M  V30 10 1 8 11
M  V30 11 1 11 12
M  V30 12 1 12 13
M  V30 13 1 13 14
M  V30 14 1 14 15
M  V30 15 2 15 16
M  V30 16 1 16 17
M  V30 17 1 17 18
M  V30 18 1 18 19
M  V30 19 1 19 20
M  V30 20 1 20 21
M  V30 21 1 21 22
M  V30 22 1 22 23
M  V30 23 1 23 24
M  V30 24 1 3 25
M  V30 25 1 4 26
M  V30 26 1 4 27
M  V30 27 1 5 28
M  V30 28 1 5 29
M  V30 29 1 6 30
M  V30 30 1 6 31
M  V30 31 1 7 32
M  V30 32 1 8 33
M  V30 33 1 8 34
M  V30 34 1 9 35
M  V30 35 1 10 36
M  V30 36 1 10 37
M  V30 37 1 10 38
M  V30 38 1 11 39
M  V30 39 1 11 40
M  V30 40 1 12 41
M  V30 41 1 12 42
M  V30 42 1 13 43
M  V30 43 1 13 44
M  V30 44 1 14 45
M  V30 45 1 14 46
M  V30 46 1 15 47
M  V30 47 1 16 48
M  V30 48 1 17 49
M  V30 49 1 17 50
M  V30 50 1 18 51
M  V30 51 1 18 52
M  V30 52 1 19 53
M  V30 53 1 19 54
M  V30 54 1 20 55
M  V30 55 1 20 56
M  V30 56 1 21 57
M  V30 57 1 21 58
M  V30 58 1 22 59
M  V30 59 1 22 60
M  V30 60 1 23 61
M  V30 61 1 23 62
M  V30 62 1 24 63
M  V30 63 1 24 64
M  V30 64 1 24 65
M  V30 END BOND
M  V30 BEGIN COLLECTION
M  V30 MDLV30/STEABS ATOMS=(1 7)
M  V30 END COLLECTION
M  V30 END CTAB
M  END
>  <Structure No>
2920

>  <LogS>
-5.530921641

>  <MMFF94 Energy>
-4.5271

$$$$
Compound 2921
Actelion Java MolfileCreator 2.0

  0  0  0  0  0  0              0 V3000
M  V30 BEGIN CTAB
M  V30 COUNTS 62 64 0 0 0
M  V30 BEGIN ATOM
M  V30 1 O -4.7179 0.7185 2.4767 0
M  V30 2 C -4.5322 1.0407 1.2716 0
M  V30 3 C -3.3458 0.4842 0.5812 0
M  V30 4 C -5.5446 1.9688 0.6059 0
M  V30 5 C -3.0881 -0.8971 0.6678 0
M  V30 6 C -2.4412 1.3125 -0.1166 0
M  V30 7 O -6.8313 1.6711 1.0968 0
M  V30 8 C -5.5625 1.8262 -0.9321 0
M  V30 9 C -5.2332 3.4229 0.9875 0
M  V30 10 C -1.9541 -1.4269 0.039 0
M  V30 11 C -1.318 0.7633 -0.7477 0
M  V30 12 C -1.0922 -0.6144 -0.6587 0
M  V30 13 C -1.537 -2.8625 0.0024 0
M  V30 14 C 0.0422 -1.3721 -1.2764 0 CFG=2
M  V30 15 C -0.1701 -2.8249 -0.7472 0
M  V30 16 C -1.372 -3.4207 1.4292 0
M  V30 17 C -2.5715 -3.6928 -0.7794 0
M  V30 18 C 1.392 -0.8093 -0.7963 0
M  V30 19 C -0.1405 -1.3346 -2.812 0
M  V30 20 C 2.4802 -0.6015 -1.6696 0
M  V30 21 C 1.589 -0.5508 0.5762 0
M  V30 22 C 3.7002 -0.1122 -1.1937 0
M  V30 23 C 2.809 -0.0645 1.0499 0
M  V30 24 C 3.8757 0.1763 0.1702 0
M  V30 25 C 5.1668 0.6872 0.708 0
M  V30 26 O 5.4858 0.3741 1.889 0
M  V30 27 C 6.1347 1.5425 -0.1058 0
M  V30 28 O 5.466 2.2129 -1.1478 0
M  V30 29 C 7.2135 0.6386 -0.7197 0
M  V30 30 C 6.8161 2.5928 0.7961 0
M  V30 31 H -3.7659 -1.5496 1.2039 0
M  V30 32 H -2.59 2.3808 -0.1647 0
M  V30 33 H -7.0429 0.7314 0.8501 0
M  V30 34 H -4.6412 2.234 -1.3953 0
M  V30 35 H -5.6673 0.759 -1.2223 0
M  V30 36 H -6.4252 2.3846 -1.3539 0
M  V30 37 H -4.2389 3.7391 0.6125 0
M  V30 38 H -5.2465 3.5426 2.0926 0
M  V30 39 H -5.9995 4.1044 0.5584 0
M  V30 40 H -0.6305 1.4007 -1.2886 0
M  V30 41 H 0.6575 -3.117 -0.0624 0
M  V30 42 H -0.1376 -3.5718 -1.5721 0
M  V30 43 H -0.969 -4.4557 1.3917 0
M  V30 44 H -2.3479 -3.4462 1.9598 0
M  V30 45 H -0.67 -2.7907 2.0176 0
M  V30 46 H -2.2351 -4.749 -0.8612 0
M  V30 47 H -3.5566 -3.679 -0.2647 0
M  V30 48 H -2.7067 -3.2856 -1.8049 0
M  V30 49 H 0.0223 -0.3064 -3.2022 0
M  V30 50 H -1.1692 -1.6506 -3.0929 0
M  V30 51 H 0.5662 -2.0303 -3.312 0
M  V30 52 H 2.4079 -0.8155 -2.7258 0
M  V30 53 H 0.7924 -0.7279 1.2882 0
M  V30 54 H 4.5067 0.016 -1.8998 0
M  V30 55 H 2.9146 0.1333 2.1096 0
M  V30 56 H 4.7619 2.7834 -0.7399 0
M  V30 57 H 7.7877 0.1171 0.075 0
M  V30 58 H 7.9204 1.2419 -1.3278 0
M  V30 59 H 6.762 -0.1289 -1.3808 0
M  V30 60 H 6.0534 3.2265 1.2981 0
M  V30 61 H 7.4713 3.2537 0.1888 0
M  V30 62 H 7.4391 2.1068 1.5775 0
M  V30 END ATOM
M  V30 BEGIN BOND
M  V30 1 2 1 2
M  V30 2 1 2 3
M  V30 3 1 2 4
M  V30 4 2 3 5
M  V30 5 1 3 6
M  V30 6 1 4 7
M  V30 7 1 4 8
M  V30 8 1 4 9
M  V30 9 1 5 10
M  V30 10 2 6 11
M  V30 11 2 10 12
M  V30 12 1 10 13
M  V30 13 1 12 14
M  V30 14 1 13 15
M  V30 15 1 13 16
M  V30 16 1 13 17
M  V30 17 1 14 18
M  V30 18 1 14 19
M  V30 19 2 18 20
M  V30 20 1 18 21
M  V30 21 1 20 22
M  V30 22 2 21 23
M  V30 23 2 22 24
M  V30 24 1 24 25
M  V30 25 2 25 26
M  V30 26 1 25 27
M  V30 27 1 27 28
M  V30 28 1 27 29
M  V30 29 1 27 30
M  V30 30 1 11 12
M  V30 31 1 14 15
M  V30 32 1 23 24
M  V30 33 1 5 31
M  V30 34 1 6 32
M  V30 35 1 7 33
M  V30 36 1 8 34
M  V30 37 1 8 35
M  V30 38 1 8 36
M  V30 39 1 9 37
M  V30 40 1 9 38
M  V30 41 1 9 39
M  V30 42 1 11 40
M  V30 43 1 15 41
M  V30 44 1 15 42
M  V30 45 1 16 43
M  V30 46 1 16 44
M  V30 47 1 16 45
M  V30 48 1 17 46
M  V30 49 1 17 47
M  V30 50 1 17 48
M  V30 51 1 19 49
M  V30 52 1 19 50
M  V30 53 1 19 51
M  V30 54 1 20 52
M  V30 55 1 21 53
M  V30 56 1 22 54
M  V30 57 1 23 55
M  V30 58 1 28 56
M  V30 59 1 29 57
M  V30 60 1 29 58
M  V30 61 1 29 59
M  V30 62 1 30 60
M  V30 63 1 30 61
M  V30 64 1 30 62
M  V30 END BOND
M  V30 BEGIN COLLECTION
M  V30 MDLV30/STEABS ATOMS=(1 14)
M  V30 END COLLECTION
M  V30 END CTAB
M  END
>  <Structure No>
2921

>  <LogS>
-5.93729046

>  <MMFF94 Energy>
178.61

$$$$
Compound 2922
Actelion Java MolfileCreator 2.0

  0  0  0  0  0  0              0 V3000
M  V30 BEGIN CTAB
M  V30 COUNTS 62 64 0 0 0
M  V30 BEGIN ATOM
M  V30 1 O -3.1971 -0.0798 -2.877 0
M  V30 2 C -3.2136 0.7302 -1.9102 0
M  V30 3 C -2.749 0.2488 -0.5835 0
M  V30 4 C -3.7328 2.1411 -2.1451 0
M  V30 5 C -1.7049 -0.6941 -0.5186 0
M  V30 6 C -3.36 0.6778 0.6171 0
M  V30 7 O -3.2476 2.9947 -1.1352 0
M  V30 8 C -5.2766 2.1175 -2.1416 0
M  V30 9 C -3.2233 2.6623 -3.5065 0
M  V30 10 C -1.2804 -1.1699 0.7285 0
M  V30 11 C -2.9273 0.182 1.8545 0
M  V30 12 C -1.8792 -0.7444 1.8902 0
M  V30 13 C -0.1999 -2.1782 0.9721 0 CFG=1
M  V30 14 C -1.3151 -1.4165 3.1024 0
M  V30 15 C 1.1347 -1.6739 0.3912 0
M  V30 16 C -0.1347 -2.2603 2.5313 0
M  V30 17 C -0.6621 -3.5363 0.3927 0
M  V30 18 C -0.8132 -0.3761 4.1211 0
M  V30 19 C -2.3791 -2.3259 3.7468 0
M  V30 20 C 1.6036 -0.3937 0.7541 0
M  V30 21 C 1.9467 -2.4582 -0.455 0
M  V30 22 C 2.8285 0.0851 0.2904 0
M  V30 23 C 3.1588 -1.9625 -0.9413 0
M  V30 24 C 3.6056 -0.682 -0.5896 0
M  V30 25 C 4.9044 -0.1978 -1.1252 0
M  V30 26 O 5.8615 -1.0181 -1.1779 0
M  V30 27 C 5.1482 1.2189 -1.6428 0
M  V30 28 O 6.0581 1.1604 -2.7182 0
M  V30 29 C 5.7996 2.0616 -0.5384 0
M  V30 30 C 3.8579 1.9108 -2.1358 0
M  V30 31 H -1.2242 -1.0502 -1.4202 0
M  V30 32 H -4.1868 1.3746 0.6037 0
M  V30 33 H -3.6998 3.876 -1.2344 0
M  V30 34 H -5.6817 3.1262 -2.365 0
M  V30 35 H -5.6643 1.7985 -1.1495 0
M  V30 36 H -5.657 1.4098 -2.9142 0
M  V30 37 H -3.6462 2.0692 -4.3449 0
M  V30 38 H -3.5078 3.7237 -3.6493 0
M  V30 39 H -2.1156 2.6 -3.5508 0
M  V30 40 H -3.4133 0.5041 2.7655 0
M  V30 41 H -0.1758 -3.3155 2.8898 0
M  V30 42 H 0.8404 -1.872 2.9049 0
M  V30 43 H 0.0493 -4.3436 0.6721 0
M  V30 44 H -1.6655 -3.8117 0.7811 0
M  V30 45 H -0.7328 -3.483 -0.7139 0
M  V30 46 H -0.3114 -0.8831 4.9731 0
M  V30 47 H -0.0845 0.3153 3.6427 0
M  V30 48 H -1.6547 0.2293 4.5261 0
M  V30 49 H -1.9466 -2.8808 4.6061 0
M  V30 50 H -2.7592 -3.0669 3.0111 0
M  V30 51 H -3.2371 -1.7225 4.1131 0
M  V30 52 H 1.0287 0.2314 1.4287 0
M  V30 53 H 1.6548 -3.4538 -0.7597 0
M  V30 54 H 3.1699 1.0471 0.6431 0
M  V30 55 H 3.7425 -2.5797 -1.6165 0
M  V30 56 H 5.6372 0.629 -3.4451 0
M  V30 57 H 5.1842 2.075 0.3836 0
M  V30 58 H 6.8 1.6495 -0.2814 0
M  V30 59 H 5.9331 3.1055 -0.8815 0
M  V30 60 H 3.2134 2.2407 -1.2966 0
M  V30 61 H 3.2756 1.2351 -2.792 0
M  V30 62 H 4.1196 2.8159 -2.7214 0
M  V30 END ATOM
M  V30 BEGIN BOND
M  V30 1 2 1 2
M  V30 2 1 2 3
M  V30 3 1 2 4
M  V30 4 2 3 5
M  V30 5 1 3 6
M  V30 6 1 4 7
M  V30 7 1 4 8
M  V30 8 1 4 9
M  V30 9 1 5 10
M  V30 10 2 6 11
M  V30 11 2 10 12
M  V30 12 1 10 13
M  V30 13 1 12 14
M  V30 14 1 13 15
M  V30 15 1 13 16
M  V30 16 1 13 17
M  V30 17 1 14 18
M  V30 18 1 14 19
M  V30 19 2 15 20
M  V30 20 1 15 21
M  V30 21 1 20 22
M  V30 22 2 21 23
M  V30 23 2 22 24
M  V30 24 1 24 25
M  V30 25 2 25 26
M  V30 26 1 25 27
M  V30 27 1 27 28
M  V30 28 1 27 29
M  V30 29 1 27 30
M  V30 30 1 11 12
M  V30 31 1 14 16
M  V30 32 1 23 24
M  V30 33 1 5 31
M  V30 34 1 6 32
M  V30 35 1 7 33
M  V30 36 1 8 34
M  V30 37 1 8 35
M  V30 38 1 8 36
M  V30 39 1 9 37
M  V30 40 1 9 38
M  V30 41 1 9 39
M  V30 42 1 11 40
M  V30 43 1 16 41
M  V30 44 1 16 42
M  V30 45 1 17 43
M  V30 46 1 17 44
M  V30 47 1 17 45
M  V30 48 1 18 46
M  V30 49 1 18 47
M  V30 50 1 18 48
M  V30 51 1 19 49
M  V30 52 1 19 50
M  V30 53 1 19 51
M  V30 54 1 20 52
M  V30 55 1 21 53
M  V30 56 1 22 54
M  V30 57 1 23 55
M  V30 58 1 28 56
M  V30 59 1 29 57
M  V30 60 1 29 58
M  V30 61 1 29 59
M  V30 62 1 30 60
M  V30 63 1 30 61
M  V30 64 1 30 62
M  V30 END BOND
M  V30 BEGIN COLLECTION
M  V30 MDLV30/STEABS ATOMS=(1 13)
M  V30 END COLLECTION
M  V30 END CTAB
M  END
>  <Structure No>
2922

>  <LogS>
-5.963849488

>  <MMFF94 Energy>
179.61

$$$$
Compound 2923
Actelion Java MolfileCreator 2.0

  0  0  0  0  0  0              0 V3000
M  V30 BEGIN CTAB
M  V30 COUNTS 39 38 0 0 0
M  V30 BEGIN ATOM
M  V30 1 C 4.178 -0.0772 1.1591 0
M  V30 2 C 4.9867 0.86 0.3346 0
M  V30 3 C 4.7128 -1.1156 1.8182 0
M  V30 4 C 2.6875 0.1468 1.2244 0
M  V30 5 C 6.2432 0.6402 -0.0579 0
M  V30 6 C 1.9863 -0.5611 0.0608 0
M  V30 7 C 0.5013 -0.2999 0.0923 0
M  V30 8 C -0.1022 0.7584 -0.4962 0
M  V30 9 C -1.5993 0.9224 -0.3499 0
M  V30 10 C 0.675 1.7737 -1.3014 0
M  V30 11 C -2.3474 -0.0589 -1.2594 0
M  V30 12 C -3.8392 0.086 -1.0906 0
M  V30 13 C -4.5703 -0.5742 -0.1653 0
M  V30 14 C -6.0501 -0.2995 -0.0891 0
M  V30 15 C -3.9512 -1.584 0.7728 0
M  V30 16 H 4.5111 1.7721 -0.0061 0
M  V30 17 H 5.7743 -1.3125 1.8287 0
M  V30 18 H 4.0851 -1.7881 2.3902 0
M  V30 19 H 2.2781 -0.2288 2.1892 0
M  V30 20 H 2.4753 1.2367 1.1932 0
M  V30 21 H 6.7836 -0.2613 0.189 0
M  V30 22 H 6.7466 1.3764 -0.6712 0
M  V30 23 H 2.1482 -1.6566 0.1586 0
M  V30 24 H 2.4265 -0.2522 -0.9108 0
M  V30 25 H -0.1057 -1.0069 0.6527 0
M  V30 26 H -1.9029 1.9592 -0.6125 0
M  V30 27 H -1.8846 0.7671 0.7127 0
M  V30 28 H 1.4483 2.2581 -0.6711 0
M  V30 29 H 1.1586 1.2788 -2.1692 0
M  V30 30 H 0.0113 2.5698 -1.6981 0
M  V30 31 H -2.0257 -1.1043 -1.0684 0
M  V30 32 H -2.0929 0.1717 -2.3168 0
M  V30 33 H -4.3397 0.7899 -1.7513 0
M  V30 34 H -6.2208 0.7735 0.1413 0
M  V30 35 H -6.5278 -0.5421 -1.0621 0
M  V30 36 H -6.5418 -0.9065 0.6992 0
M  V30 37 H -4.7022 -1.9984 1.477 0
M  V30 38 H -3.5284 -2.4305 0.1925 0
M  V30 39 H -3.1492 -1.1111 1.3755 0
M  V30 END ATOM
M  V30 BEGIN BOND
M  V30 1 1 1 2
M  V30 2 2 1 3
M  V30 3 1 1 4
M  V30 4 2 2 5
M  V30 5 1 4 6
M  V30 6 1 6 7
M  V30 7 2 7 8
M  V30 8 1 8 9
M  V30 9 1 8 10
M  V30 10 1 9 11
M  V30 11 1 11 12
M  V30 12 2 12 13
M  V30 13 1 13 14
M  V30 14 1 13 15
M  V30 15 1 2 16
M  V30 16 1 3 17
M  V30 17 1 3 18
M  V30 18 1 4 19
M  V30 19 1 4 20
M  V30 20 1 5 21
M  V30 21 1 5 22
M  V30 22 1 6 23
M  V30 23 1 6 24
M  V30 24 1 7 25
M  V30 25 1 9 26
M  V30 26 1 9 27
M  V30 27 1 10 28
M  V30 28 1 10 29
M  V30 29 1 10 30
M  V30 30 1 11 31
M  V30 31 1 11 32
M  V30 32 1 12 33
M  V30 33 1 14 34
M  V30 34 1 14 35
M  V30 35 1 14 36
M  V30 36 1 15 37
M  V30 37 1 15 38
M  V30 38 1 15 39
M  V30 END BOND
M  V30 END CTAB
M  END
>  <Structure No>
2923

>  <LogS>
-6.310389519

>  <MMFF94 Energy>
39.466

$$$$
Compound 2924
Actelion Java MolfileCreator 2.0

  0  0  0  0  0  0              0 V3000
M  V30 BEGIN CTAB
M  V30 COUNTS 45 46 0 0 0
M  V30 BEGIN ATOM
M  V30 1 O -6.5343 0.7155 -0.8746 0
M  V30 2 C -5.4941 0.4918 -0.275 0
M  V30 3 C -4.8276 1.5781 0.5206 0
M  V30 4 C -4.9152 -0.8944 -0.2499 0
M  V30 5 C -3.3169 1.5766 0.2584 0
M  V30 6 C -3.4008 -0.848 -0.4935 0
M  V30 7 C -2.7088 0.167 0.4538 0
M  V30 8 C -1.1539 0.1989 0.3349 0 CFG=1
M  V30 9 C -0.6275 0.7518 -1.0188 0
M  V30 10 C -0.5089 -1.1639 0.6556 0
M  V30 11 C 0.8067 0.2907 -1.3526 0
M  V30 12 C 1.0206 -1.041 0.8092 0
M  V30 13 C 1.6497 0.0668 -0.0816 0 CFG=2
M  V30 14 C 3.113 -0.2566 -0.4568 0
M  V30 15 C 4.0421 -0.2674 0.77 0
M  V30 16 C 5.4928 -0.6216 0.4077 0
M  V30 17 C 6.2092 0.5031 -0.3392 0
M  V30 18 H -5.2478 2.5706 0.2479 0
M  V30 19 H -5.0197 1.4035 1.601 0
M  V30 20 H -5.3945 -1.5271 -1.0284 0
M  V30 21 H -5.1197 -1.3507 0.7425 0
M  V30 22 H -3.1356 1.9307 -0.7798 0
M  V30 23 H -2.8345 2.2964 0.955 0
M  V30 24 H -3.2251 -0.5793 -1.5557 0
M  V30 25 H -3.0013 -1.8695 -0.3266 0
M  V30 26 H -2.9393 -0.146 1.4982 0
M  V30 27 H -0.8025 0.8987 1.1282 0
M  V30 28 H -1.282 0.452 -1.8611 0
M  V30 29 H -0.6434 1.863 -0.9761 0
M  V30 30 H -0.9354 -1.5836 1.5928 0
M  V30 31 H -0.7227 -1.8802 -0.1668 0
M  V30 32 H 1.285 1.0563 -2.0022 0
M  V30 33 H 0.7622 -0.6581 -1.9322 0
M  V30 34 H 1.2559 -0.8158 1.8725 0
M  V30 35 H 1.4685 -2.032 0.5763 0
M  V30 36 H 1.6469 1.0236 0.4889 0
M  V30 37 H 3.1596 -1.2403 -0.9738 0
M  V30 38 H 3.4727 0.5173 -1.1675 0
M  V30 39 H 3.6829 -1.0293 1.4942 0
M  V30 40 H 4.0113 0.7209 1.2787 0
M  V30 41 H 6.0498 -0.8218 1.3486 0
M  V30 42 H 5.5197 -1.5508 -0.2017 0
M  V30 43 H 6.1412 1.4541 0.2306 0
M  V30 44 H 7.2812 0.2405 -0.4594 0
M  V30 45 H 5.7749 0.645 -1.3501 0
M  V30 END ATOM
M  V30 BEGIN BOND
M  V30 1 2 1 2
M  V30 2 1 2 3
M  V30 3 1 2 4
M  V30 4 1 3 5
M  V30 5 1 4 6
M  V30 6 1 5 7
M  V30 7 1 7 8
M  V30 8 1 8 9
M  V30 9 1 8 10
M  V30 10 1 9 11
M  V30 11 1 10 12
M  V30 12 1 11 13
M  V30 13 1 13 14
M  V30 14 1 14 15
M  V30 15 1 15 16
M  V30 16 1 16 17
M  V30 17 1 6 7
M  V30 18 1 12 13
M  V30 19 1 3 18
M  V30 20 1 3 19
M  V30 21 1 4 20
M  V30 22 1 4 21
M  V30 23 1 5 22
M  V30 24 1 5 23
M  V30 25 1 6 24
M  V30 26 1 6 25
M  V30 27 1 7 26
M  V30 28 1 8 27
M  V30 29 1 9 28
M  V30 30 1 9 29
M  V30 31 1 10 30
M  V30 32 1 10 31
M  V30 33 1 11 32
M  V30 34 1 11 33
M  V30 35 1 12 34
M  V30 36 1 12 35
M  V30 37 1 13 36
M  V30 38 1 14 37
M  V30 39 1 14 38
M  V30 40 1 15 39
M  V30 41 1 15 40
M  V30 42 1 16 41
M  V30 43 1 16 42
M  V30 44 1 17 43
M  V30 45 1 17 44
M  V30 46 1 17 45
M  V30 END BOND
M  V30 BEGIN COLLECTION
M  V30 MDLV30/STEABS ATOMS=(2 8 13)
M  V30 END COLLECTION
M  V30 END CTAB
M  END
>  <Structure No>
2924

>  <LogS>
-6.373645635

>  <MMFF94 Energy>
19.457

$$$$
Compound 2925
Actelion Java MolfileCreator 2.0

  0  0  0  0  0  0              0 V3000
M  V30 BEGIN CTAB
M  V30 COUNTS 86 86 0 0 0
M  V30 BEGIN ATOM
M  V30 1 S -1.9841 2.3018 -1.0313 0
M  V30 2 C -2.6881 1.6933 0.5451 0
M  V30 3 C -1.9379 0.697 -1.9131 0
M  V30 4 C -4.1268 1.2759 0.3804 0
M  V30 5 C -0.9913 -0.2712 -1.2753 0
M  V30 6 C -4.4745 -0.072 0.4074 0
M  V30 7 C -5.1088 2.2402 0.1762 0
M  V30 8 O -1.2365 -1.5072 -1.3363 0
M  V30 9 O 0.1757 0.1938 -0.6582 0
M  V30 10 C -5.8134 -0.5024 0.2571 0
M  V30 11 C -6.4696 1.8936 0.0318 0
M  V30 12 C 1.1361 -0.6649 -0.0476 0
M  V30 13 C -6.8219 0.5131 0.1339 0
M  V30 14 C -6.1422 -2.0275 0.1983 0
M  V30 15 C -7.5494 2.9926 -0.2031 0
M  V30 16 C 2.0656 -1.2669 -1.1082 0
M  V30 17 O -8.1818 0.1947 0.1261 0
M  V30 18 C -7.0429 -2.445 1.3993 0
M  V30 19 C -6.8298 -2.3541 -1.1521 0
M  V30 20 C -4.8744 -2.9281 0.2444 0
M  V30 21 C -8.5085 3.0669 1.0068 0
M  V30 22 C -8.3481 2.6929 -1.4951 0
M  V30 23 C -6.9462 4.4118 -0.3811 0
M  V30 24 C 2.9912 -2.3594 -0.5435 0
M  V30 25 C 3.9378 -1.8922 0.5793 0
M  V30 26 C 4.8779 -0.7317 0.2004 0
M  V30 27 C 5.7976 -1.0008 -1.0082 0
M  V30 28 C 6.7105 -2.2343 -0.8717 0
M  V30 29 C 7.7205 -2.1708 0.2905 0
M  V30 30 C 8.8294 -1.1142 0.0939 0
M  V30 31 C 8.5977 0.1444 0.9483 0
M  V30 32 C 9.6317 1.2597 0.6715 0
M  V30 33 C 9.1702 2.5751 1.3155 0
M  V30 34 C 11.0293 0.8899 1.1932 0
M  V30 35 H -2.0653 0.8694 0.9524 0
M  V30 36 H -2.6367 2.5192 1.2849 0
M  V30 37 H -2.9593 0.2649 -1.9648 0
M  V30 38 H -1.5979 0.884 -2.9525 0
M  V30 39 H -3.6653 -0.771 0.5436 0
M  V30 40 H -4.7769 3.266 0.1416 0
M  V30 41 H 1.7334 -0.0575 0.6634 0
M  V30 42 H 0.6221 -1.4652 0.53 0
M  V30 43 H 2.6632 -0.4607 -1.5832 0
M  V30 44 H 1.4479 -1.727 -1.9095 0
M  V30 45 H -8.58 -0.6877 0.3907 0
M  V30 46 H -7.1138 -1.635 2.1565 0
M  V30 47 H -8.0701 -2.7166 1.0768 0
M  V30 48 H -6.6576 -3.3402 1.934 0
M  V30 49 H -7.0549 -3.4408 -1.2262 0
M  V30 50 H -7.7839 -1.8169 -1.301 0
M  V30 51 H -6.163 -2.0802 -1.9979 0
M  V30 52 H -5.1494 -4.0027 0.154 0
M  V30 53 H -4.1845 -2.6963 -0.5969 0
M  V30 54 H -4.3365 -2.8123 1.2111 0
M  V30 55 H -9.1026 2.1434 1.1401 0
M  V30 56 H -7.9362 3.2506 1.9409 0
M  V30 57 H -9.2369 3.895 0.8778 0
M  V30 58 H -9.0253 3.5375 -1.7492 0
M  V30 59 H -8.9938 1.7995 -1.4039 0
M  V30 60 H -7.6532 2.5374 -2.3483 0
M  V30 61 H -6.2398 4.4386 -1.2394 0
M  V30 62 H -6.4241 4.7446 0.5423 0
M  V30 63 H -7.7435 5.1604 -0.5861 0
M  V30 64 H 2.3625 -3.1865 -0.1475 0
M  V30 65 H 3.5874 -2.7913 -1.3749 0
M  V30 66 H 4.5419 -2.7592 0.9197 0
M  V30 67 H 3.3361 -1.5859 1.4606 0
M  V30 68 H 5.4928 -0.4796 1.0885 0
M  V30 69 H 4.2731 0.1756 -0.0103 0
M  V30 70 H 6.4214 -0.1015 -1.1937 0
M  V30 71 H 5.1732 -1.1255 -1.918 0
M  V30 72 H 7.2686 -2.3629 -1.8248 0
M  V30 73 H 6.0875 -3.1462 -0.76 0
M  V30 74 H 8.2088 -3.1687 0.3438 0
M  V30 75 H 7.1974 -2.0407 1.262 0
M  V30 76 H 9.7951 -1.5747 0.3938 0
M  V30 77 H 8.9198 -0.8339 -0.9783 0
M  V30 78 H 7.5868 0.5416 0.7257 0
M  V30 79 H 8.6142 -0.127 2.0273 0
M  V30 80 H 9.6984 1.4279 -0.4259 0
M  V30 81 H 9.893 3.3886 1.0909 0
M  V30 82 H 8.1792 2.8761 0.9112 0
M  V30 83 H 9.0892 2.4639 2.4176 0
M  V30 84 H 11.4392 0.0194 0.6406 0
M  V30 85 H 11.7329 1.7354 1.0411 0
M  V30 86 H 10.9926 0.649 2.2772 0
M  V30 END ATOM
M  V30 BEGIN BOND
M  V30 1 1 1 2
M  V30 2 1 1 3
M  V30 3 1 2 4
M  V30 4 1 3 5
M  V30 5 2 4 6
M  V30 6 1 4 7
M  V30 7 2 5 8
M  V30 8 1 5 9
M  V30 9 1 6 10
M  V30 10 2 7 11
M  V30 11 1 9 12
M  V30 12 2 10 13
M  V30 13 1 10 14
M  V30 14 1 11 15
M  V30 15 1 12 16
M  V30 16 1 13 17
M  V30 17 1 14 18
M  V30 18 1 14 19
M  V30 19 1 14 20
M  V30 20 1 15 21
M  V30 21 1 15 22
M  V30 22 1 15 23
M  V30 23 1 16 24
M  V30 24 1 24 25
M  V30 25 1 25 26
M  V30 26 1 26 27
M  V30 27 1 27 28
M  V30 28 1 28 29
M  V30 29 1 29 30
M  V30 30 1 30 31
M  V30 31 1 31 32
M  V30 32 1 32 33
M  V30 33 1 32 34
M  V30 34 1 11 13
M  V30 35 1 2 35
M  V30 36 1 2 36
M  V30 37 1 3 37
M  V30 38 1 3 38
M  V30 39 1 6 39
M  V30 40 1 7 40
M  V30 41 1 12 41
M  V30 42 1 12 42
M  V30 43 1 16 43
M  V30 44 1 16 44
M  V30 45 1 17 45
M  V30 46 1 18 46
M  V30 47 1 18 47
M  V30 48 1 18 48
M  V30 49 1 19 49
M  V30 50 1 19 50
M  V30 51 1 19 51
M  V30 52 1 20 52
M  V30 53 1 20 53
M  V30 54 1 20 54
M  V30 55 1 21 55
M  V30 56 1 21 56
M  V30 57 1 21 57
M  V30 58 1 22 58
M  V30 59 1 22 59
M  V30 60 1 22 60
M  V30 61 1 23 61
M  V30 62 1 23 62
M  V30 63 1 23 63
M  V30 64 1 24 64
M  V30 65 1 24 65
M  V30 66 1 25 66
M  V30 67 1 25 67
M  V30 68 1 26 68
M  V30 69 1 26 69
M  V30 70 1 27 70
M  V30 71 1 27 71
M  V30 72 1 28 72
M  V30 73 1 28 73
M  V30 74 1 29 74
M  V30 75 1 29 75
M  V30 76 1 30 76
M  V30 77 1 30 77
M  V30 78 1 31 78
M  V30 79 1 31 79
M  V30 80 1 32 80
M  V30 81 1 33 81
M  V30 82 1 33 82
M  V30 83 1 33 83
M  V30 84 1 34 84
M  V30 85 1 34 85
M  V30 86 1 34 86
M  V30 END BOND
M  V30 END CTAB
M  END
>  <Structure No>
2925

>  <LogS>
-6.789589525

>  <MMFF94 Energy>
74.198

$$$$
Compound 2926
Actelion Java MolfileCreator 2.0

  0  0  0  0  0  0              0 V3000
M  V30 BEGIN CTAB
M  V30 COUNTS 47 51 0 0 0
M  V30 BEGIN ATOM
M  V30 1 Cl 4.1056 2.7905 -1.2303 0
M  V30 2 C 3.4451 1.3478 -0.4699 0
M  V30 3 C 4.2698 0.4055 0.1722 0
M  V30 4 C 2.062 1.144 -0.5232 0
M  V30 5 N 5.6898 0.5837 0.2457 0
M  V30 6 C 3.6907 -0.7358 0.7396 0
M  V30 7 C 1.4653 0.0189 0.0817 0
M  V30 8 C 2.3101 -0.9362 0.6848 0
M  V30 9 C -0.049 -0.2076 -0.0455 0
M  V30 10 C -0.8762 1.0787 0.1025 0
M  V30 11 C -0.3101 -0.9424 -1.3498 0
M  V30 12 C -0.5876 -1.2333 0.9377 0
M  V30 13 C -2.0647 1.2852 -0.6307 0
M  V30 14 C -0.5262 2.0321 1.0793 0
M  V30 15 C -0.8977 -2.1763 -1.1325 0
M  V30 16 C -0.0391 -0.5088 -2.6534 0
M  V30 17 C -1.0712 -2.357 0.2907 0
M  V30 18 C -0.6278 -1.1507 2.335 0
M  V30 19 C -2.8375 2.4375 -0.4449 0
M  V30 20 C -1.2945 3.1818 1.267 0
M  V30 21 C -1.2351 -3.0274 -2.1853 0
M  V30 22 C -0.3698 -1.3493 -3.7284 0
M  V30 23 C -1.6132 -3.4348 0.9916 0
M  V30 24 C -1.1691 -2.2237 3.061 0
M  V30 25 Cl -4.294 2.63 -1.4133 0
M  V30 26 C -2.4489 3.4 0.5057 0
M  V30 27 C -0.9646 -2.6036 -3.4952 0
M  V30 28 C -1.6605 -3.3606 2.3921 0
M  V30 29 N -3.217 4.5909 0.7196 0
M  V30 30 H 1.4493 1.871 -1.0412 0
M  V30 31 H 6.1641 1.418 -0.1629 0
M  V30 32 H 6.2893 -0.1277 0.7205 0
M  V30 33 H 4.3136 -1.48 1.22 0
M  V30 34 H 1.9128 -1.8476 1.1104 0
M  V30 35 H -2.4076 0.5506 -1.3468 0
M  V30 36 H 0.3474 1.8879 1.7017 0
M  V30 37 H 0.4088 0.4583 -2.8353 0
M  V30 38 H -0.2432 -0.2816 2.8512 0
M  V30 39 H -0.9913 3.9034 2.0153 0
M  V30 40 H -1.6951 -3.9893 -2.0016 0
M  V30 41 H -0.1685 -1.0293 -4.7423 0
M  V30 42 H -1.9875 -4.3077 0.4736 0
M  V30 43 H -1.2068 -2.177 4.1415 0
M  V30 44 H -1.2166 -3.2437 -4.3306 0
M  V30 45 H -2.0752 -4.1828 2.9607 0
M  V30 46 H -2.9189 5.2927 1.4335 0
M  V30 47 H -4.0834 4.795 0.1757 0
M  V30 END ATOM
M  V30 BEGIN BOND
M  V30 1 1 1 2
M  V30 2 2 2 3
M  V30 3 1 2 4
M  V30 4 1 3 5
M  V30 5 1 3 6
M  V30 6 2 4 7
M  V30 7 2 6 8
M  V30 8 1 7 9
M  V30 9 1 9 10
M  V30 10 1 9 11
M  V30 11 1 9 12
M  V30 12 2 10 13
M  V30 13 1 10 14
M  V30 14 2 11 15
M  V30 15 1 11 16
M  V30 16 2 12 17
M  V30 17 1 12 18
M  V30 18 1 13 19
M  V30 19 2 14 20
M  V30 20 1 15 21
M  V30 21 2 16 22
M  V30 22 1 17 23
M  V30 23 2 18 24
M  V30 24 1 19 25
M  V30 25 2 19 26
M  V30 26 2 21 27
M  V30 27 2 23 28
M  V30 28 1 26 29
M  V30 29 1 7 8
M  V30 30 1 15 17
M  V30 31 1 20 26
M  V30 32 1 22 27
M  V30 33 1 24 28
M  V30 34 1 4 30
M  V30 35 1 5 31
M  V30 36 1 5 32
M  V30 37 1 6 33
M  V30 38 1 8 34
M  V30 39 1 13 35
M  V30 40 1 14 36
M  V30 41 1 16 37
M  V30 42 1 18 38
M  V30 43 1 20 39
M  V30 44 1 21 40
M  V30 45 1 22 41
M  V30 46 1 23 42
M  V30 47 1 24 43
M  V30 48 1 27 44
M  V30 49 1 28 45
M  V30 50 1 29 46
M  V30 51 1 29 47
M  V30 END BOND
M  V30 END CTAB
M  END
>  <Structure No>
2926

>  <LogS>
-6.904485627

>  <MMFF94 Energy>
158.92

$$$$
Compound 2927
Actelion Java MolfileCreator 2.0

  0  0  0  0  0  0              0 V3000
M  V30 BEGIN CTAB
M  V30 COUNTS 31 35 0 0 0
M  V30 BEGIN ATOM
M  V30 1 Cl 6.6146 -1.39 -0.7817 0
M  V30 2 C 4.9775 -0.759 -0.5984 0
M  V30 3 C 4.7541 0.6432 -0.5891 0
M  V30 4 C 3.8935 -1.6553 -0.4614 0
M  V30 5 Cl 6.1134 1.7542 -0.7607 0
M  V30 6 C 3.4458 1.1563 -0.4429 0
M  V30 7 Cl 4.1421 -3.3989 -0.4696 0
M  V30 8 C 2.6103 -1.1216 -0.3183 0
M  V30 9 Cl 3.1389 2.8907 -0.4277 0
M  V30 10 C 2.3945 0.2468 -0.3095 0
M  V30 11 C 1.3087 -1.784 -0.1587 0
M  V30 12 C 0.956 0.4527 -0.1444 0
M  V30 13 O 1.1113 -3.0266 -0.1209 0
M  V30 14 N 0.2849 -0.795 -0.0513 0
M  V30 15 N 0.3171 1.5814 -0.0834 0
M  V30 16 C -1.1381 -0.8585 0.1152 0
M  V30 17 C -1.1154 1.5841 0.0834 0
M  V30 18 C -1.8327 0.3652 0.1815 0
M  V30 19 C -1.844 -2.0667 0.2119 0
M  V30 20 C -1.8083 2.7972 0.1496 0
M  V30 21 C -3.2349 0.3779 0.3447 0
M  V30 22 C -3.2341 -2.0513 0.3737 0
M  V30 23 C -3.1981 2.807 0.3114 0
M  V30 24 C -3.9104 1.6061 0.4087 0
M  V30 25 C -3.9288 -0.8378 0.4401 0
M  V30 26 H -1.3355 -3.0177 0.1641 0
M  V30 27 H -1.2705 3.734 0.0758 0
M  V30 28 H -3.7765 -2.9849 0.4479 0
M  V30 29 H -3.7264 3.7505 0.3618 0
M  V30 30 H -4.9862 1.6377 0.5337 0
M  V30 31 H -5.0049 -0.8501 0.5657 0
M  V30 END ATOM
M  V30 BEGIN BOND
M  V30 1 1 1 2
M  V30 2 2 2 3
M  V30 3 1 2 4
M  V30 4 1 3 5
M  V30 5 1 3 6
M  V30 6 1 4 7
M  V30 7 2 4 8
M  V30 8 1 6 9
M  V30 9 2 6 10
M  V30 10 1 8 11
M  V30 11 1 10 12
M  V30 12 2 11 13
M  V30 13 1 11 14
M  V30 14 2 12 15
M  V30 15 1 14 16
M  V30 16 1 15 17
M  V30 17 1 16 18
M  V30 18 2 16 19
M  V30 19 1 17 20
M  V30 20 1 18 21
M  V30 21 1 19 22
M  V30 22 2 20 23
M  V30 23 2 21 24
M  V30 24 1 21 25
M  V30 25 1 8 10
M  V30 26 1 12 14
M  V30 27 2 17 18
M  V30 28 2 22 25
M  V30 29 1 23 24
M  V30 30 1 19 26
M  V30 31 1 20 27
M  V30 32 1 22 28
M  V30 33 1 23 29
M  V30 34 1 24 30
M  V30 35 1 25 31
M  V30 END BOND
M  V30 END CTAB
M  END
>  <Structure No>
2927

>  <LogS>
-7.133614478

>  <MMFF94 Energy>
36.517

$$$$
Compound 2928
Actelion Java MolfileCreator 2.0

  0  0  0  0  0  0              0 V3000
M  V30 BEGIN CTAB
M  V30 COUNTS 33 36 0 0 0
M  V30 BEGIN ATOM
M  V30 1 O 1.219 0.4874 -2.195 0
M  V30 2 C 1.6525 0.1035 -1.0767 0
M  V30 3 C 3.036 0.1947 -0.6231 0
M  V30 4 C 0.8545 -0.5127 -0.0106 0 CHG=-1
M  V30 5 C 3.1208 -0.2993 0.6636 0
M  V30 6 C 4.158 0.6923 -1.2855 0
M  V30 7 C -0.6187 -0.5212 0.0852 0
M  V30 8 C 1.7949 -0.7276 1.0966 0
M  V30 9 C 4.3313 -0.3182 1.3562 0
M  V30 10 C 5.3897 0.6779 -0.6084 0
M  V30 11 N -1.3164 0.5977 -0.2726 0 CHG=1
M  V30 12 C -1.3138 -1.6569 0.5561 0
M  V30 13 O 1.4995 -1.1482 2.2464 0
M  V30 14 C 5.4758 0.1752 0.7065 0
M  V30 15 C -2.6747 0.6656 -0.1633 0
M  V30 16 O -0.6649 -2.8528 0.8692 0
M  V30 17 C -2.7025 -1.6004 0.6885 0
M  V30 18 C -3.3977 -0.4424 0.3299 0
M  V30 19 C -3.364 1.833 -0.5301 0
M  V30 20 C -4.7943 -0.3709 0.4475 0
M  V30 21 C -4.7554 1.8952 -0.4091 0
M  V30 22 C -5.4685 0.7966 0.0782 0
M  V30 23 H 4.084 1.0808 -2.2929 0
M  V30 24 H 4.3894 -0.7014 2.3666 0
M  V30 25 H 6.2768 1.0572 -1.0985 0
M  V30 26 H -0.7928 1.4352 -0.6168 0
M  V30 27 H 6.4287 0.1711 1.2195 0
M  V30 28 H 0.3205 -3.0052 0.6987 0
M  V30 29 H -3.237 -2.4689 1.0556 0
M  V30 30 H -2.8257 2.6931 -0.9087 0
M  V30 31 H -5.3616 -1.2142 0.8231 0
M  V30 32 H -5.2822 2.7971 -0.6934 0
M  V30 33 H -6.5457 0.8499 0.1699 0
M  V30 END ATOM
M  V30 BEGIN BOND
M  V30 1 2 1 2
M  V30 2 1 2 3
M  V30 3 1 2 4
M  V30 4 2 3 5
M  V30 5 1 3 6
M  V30 6 1 4 7
M  V30 7 1 4 8
M  V30 8 1 5 9
M  V30 9 2 6 10
M  V30 10 2 7 11
M  V30 11 1 7 12
M  V30 12 2 8 13
M  V30 13 2 9 14
M  V30 14 1 11 15
M  V30 15 1 12 16
M  V30 16 2 12 17
M  V30 17 1 15 18
M  V30 18 2 15 19
M  V30 19 2 18 20
M  V30 20 1 19 21
M  V30 21 1 20 22
M  V30 22 1 5 8
M  V30 23 1 10 14
M  V30 24 1 17 18
M  V30 25 2 21 22
M  V30 26 1 6 23
M  V30 27 1 9 24
M  V30 28 1 10 25
M  V30 29 1 11 26
M  V30 30 1 14 27
M  V30 31 1 16 28
M  V30 32 1 17 29
M  V30 33 1 19 30
M  V30 34 1 20 31
M  V30 35 1 21 32
M  V30 36 1 22 33
M  V30 END BOND
M  V30 END CTAB
M  END
>  <Structure No>
2928

>  <LogS>
-7.046360074

>  <MMFF94 Energy>
43.348

$$$$
Compound 2929
Actelion Java MolfileCreator 2.0

  0  0  0  0  0  0              0 V3000
M  V30 BEGIN CTAB
M  V30 COUNTS 108 111 0 0 0
M  V30 BEGIN ATOM
M  V30 1 O -2.4681 0.0 -0.0795 0
M  V30 2 C -1.2822 0.3854 -0.2706 0
M  V30 3 N -0.7496 1.3637 0.5276 0
M  V30 4 N -0.5453 -0.1709 -1.2835 0
M  V30 5 C 0.5639 1.7113 0.3698 0
M  V30 6 C -1.562 2.0301 1.5734 0
M  V30 7 C 0.7492 0.2364 -1.4628 0
M  V30 8 C -1.1778 -1.107 -2.2461 0
M  V30 9 O 1.0716 2.5905 1.1184 0
M  V30 10 N 1.3334 1.1103 -0.5867 0
M  V30 11 C -1.7263 3.5236 1.2776 0
M  V30 12 O 1.4134 -0.1933 -2.447 0
M  V30 13 C -1.8001 -2.3219 -1.5553 0
M  V30 14 C 2.7776 1.4174 -0.7127 0
M  V30 15 C -2.4042 3.9593 0.1083 0
M  V30 16 C -1.1463 4.4982 2.1291 0
M  V30 17 C -1.0006 -3.2198 -0.7933 0
M  V30 18 C -3.193 -2.5618 -1.6553 0
M  V30 19 C 3.6275 0.1637 -0.4834 0
M  V30 20 C -2.2952 5.3088 -0.3097 0
M  V30 21 C -3.2469 3.0036 -0.7068 0
M  V30 22 C -1.1314 5.8447 1.7436 0
M  V30 23 C -0.5586 4.1403 3.4769 0
M  V30 24 C -1.6214 -4.2417 -0.0258 0
M  V30 25 C 0.5092 -3.0941 -0.7696 0
M  V30 26 C -3.7729 -3.6275 -0.9563 0
M  V30 27 C -4.0964 -1.704 -2.5149 0
M  V30 28 C 4.3528 -0.436 -1.5487 0
M  V30 29 C 3.6223 -0.4793 0.7766 0
M  V30 30 O -2.8048 5.6999 -1.5495 0
M  V30 31 C -1.6667 6.281 0.5131 0
M  V30 32 O -0.8609 -5.0337 0.8368 0
M  V30 33 C -3.0204 -4.4764 -0.1156 0
M  V30 34 C 4.7883 -1.7788 -1.4315 0
M  V30 35 C 4.6611 0.3402 -2.8119 0
M  V30 36 C 4.1813 -1.7558 0.9116 0
M  V30 37 C 2.9798 0.1392 1.9934 0
M  V30 38 C -1.5874 7.7781 0.0835 0
M  V30 39 C -3.7035 -5.6232 0.6861 0
M  V30 40 O 5.2373 -2.4658 -2.5615 0
M  V30 41 C 4.7441 -2.4498 -0.1801 0
M  V30 42 C -0.8361 7.9167 -1.264 0
M  V30 43 C -0.8265 8.6686 1.1028 0
M  V30 44 C -3.0147 8.363 -0.0488 0
M  V30 45 C -3.1309 -6.9898 0.2428 0
M  V30 46 C -3.4839 -5.4271 2.2048 0
M  V30 47 C -5.2391 -5.6862 0.4685 0
M  V30 48 C 5.2717 -3.9055 -0.0226 0
M  V30 49 C 5.233 -4.4104 1.4456 0
M  V30 50 C 4.4003 -4.8721 -0.8587 0
M  V30 51 C 6.7477 -4.0017 -0.4858 0
M  V30 52 H -2.5625 1.5706 1.6915 0
M  V30 53 H -1.081 1.8394 2.5517 0
M  V30 54 H -0.4659 -1.4842 -3.0095 0
M  V30 55 H -1.8995 -0.5208 -2.8448 0
M  V30 56 H 3.116 2.2072 -0.0167 0
M  V30 57 H 2.927 1.869 -1.7095 0
M  V30 58 H -3.6841 2.2068 -0.0812 0
M  V30 59 H -4.1312 3.5138 -1.1412 0
M  V30 60 H -2.6336 2.5598 -1.5176 0
M  V30 61 H -0.6695 6.5444 2.4219 0
M  V30 62 H 0.2991 3.4546 3.3628 0
M  V30 63 H -1.3331 3.6574 4.1012 0
M  V30 64 H -0.1911 5.0345 4.025 0
M  V30 65 H 0.911 -2.6024 -1.6735 0
M  V30 66 H 0.9774 -4.0969 -0.7762 0
M  V30 67 H 0.8313 -2.5298 0.132 0
M  V30 68 H -4.839 -3.7628 -1.0776 0
M  V30 69 H -4.0754 -0.6469 -2.1726 0
M  V30 70 H -3.7715 -1.7626 -3.5745 0
M  V30 71 H -5.1588 -2.0359 -2.4735 0
M  V30 72 H -3.0717 5.0572 -2.2832 0
M  V30 73 H 0.1019 -4.8491 1.0802 0
M  V30 74 H 3.8231 0.2536 -3.5335 0
M  V30 75 H 4.865 1.408 -2.5831 0
M  V30 76 H 5.5997 -0.0142 -3.2872 0
M  V30 77 H 4.1301 -2.2103 1.89 0
M  V30 78 H 1.8855 -0.0583 1.9866 0
M  V30 79 H 3.1787 1.228 2.0405 0
M  V30 80 H 3.3959 -0.2866 2.9296 0
M  V30 81 H 5.1147 -2.142 -3.5103 0
M  V30 82 H -1.4203 7.534 -2.121 0
M  V30 83 H 0.1275 7.3655 -1.2221 0
M  V30 84 H -0.6211 8.984 -1.4897 0
M  V30 85 H -0.783 9.7263 0.7567 0
M  V30 86 H -1.34 8.6748 2.0903 0
M  V30 87 H 0.2233 8.3177 1.2299 0
M  V30 88 H -3.5759 8.2187 0.9026 0
M  V30 89 H -2.9738 9.453 -0.2751 0
M  V30 90 H -3.5874 7.8829 -0.8702 0
M  V30 91 H -3.6723 -7.8214 0.7423 0
M  V30 92 H -2.0587 -7.0969 0.4941 0
M  V30 93 H -3.2428 -7.1117 -0.8534 0
M  V30 94 H -3.7469 -4.3906 2.5059 0
M  V30 95 H -2.4402 -5.6313 2.5089 0
M  V30 96 H -4.1174 -6.1247 2.7902 0
M  V30 97 H -5.4867 -5.8696 -0.5978 0
M  V30 98 H -5.6892 -6.5195 1.0497 0
M  V30 99 H -5.7293 -4.7504 0.8102 0
M  V30 100 H 4.1869 -4.4504 1.8297 0
M  V30 101 H 5.8563 -3.7624 2.1017 0
M  V30 102 H 5.64 -5.4424 1.5211 0
M  V30 103 H 4.4682 -4.6637 -1.9474 0
M  V30 104 H 4.7286 -5.9252 -0.7108 0
M  V30 105 H 3.336 -4.7901 -0.5472 0
M  V30 106 H 7.171 -5.0011 -0.2365 0
M  V30 107 H 6.8636 -3.886 -1.5838 0
M  V30 108 H 7.3633 -3.2273 0.0254 0
M  V30 END ATOM
M  V30 BEGIN BOND
M  V30 1 2 1 2
M  V30 2 1 2 3
M  V30 3 1 2 4
M  V30 4 1 3 5
M  V30 5 1 3 6
M  V30 6 1 4 7
M  V30 7 1 4 8
M  V30 8 2 5 9
M  V30 9 1 5 10
M  V30 10 1 6 11
M  V30 11 2 7 12
M  V30 12 1 8 13
M  V30 13 1 10 14
M  V30 14 2 11 15
M  V30 15 1 11 16
M  V30 16 2 13 17
M  V30 17 1 13 18
M  V30 18 1 14 19
M  V30 19 1 15 20
M  V30 20 1 15 21
M  V30 21 2 16 22
M  V30 22 1 16 23
M  V30 23 1 17 24
M  V30 24 1 17 25
M  V30 25 2 18 26
M  V30 26 1 18 27
M  V30 27 2 19 28
M  V30 28 1 19 29
M  V30 29 1 20 30
M  V30 30 2 20 31
M  V30 31 1 24 32
M  V30 32 2 24 33
M  V30 33 1 28 34
M  V30 34 1 28 35
M  V30 35 2 29 36
M  V30 36 1 29 37
M  V30 37 1 31 38
M  V30 38 1 33 39
M  V30 39 1 34 40
M  V30 40 2 34 41
M  V30 41 1 38 42
M  V30 42 1 38 43
M  V30 43 1 38 44
M  V30 44 1 39 45
M  V30 45 1 39 46
M  V30 46 1 39 47
M  V30 47 1 41 48
M  V30 48 1 48 49
M  V30 49 1 48 50
M  V30 50 1 48 51
M  V30 51 1 7 10
M  V30 52 1 22 31
M  V30 53 1 26 33
M  V30 54 1 36 41
M  V30 55 1 6 52
M  V30 56 1 6 53
M  V30 57 1 8 54
M  V30 58 1 8 55
M  V30 59 1 14 56
M  V30 60 1 14 57
M  V30 61 1 21 58
M  V30 62 1 21 59
M  V30 63 1 21 60
M  V30 64 1 22 61
M  V30 65 1 23 62
M  V30 66 1 23 63
M  V30 67 1 23 64
M  V30 68 1 25 65
M  V30 69 1 25 66
M  V30 70 1 25 67
M  V30 71 1 26 68
M  V30 72 1 27 69
M  V30 73 1 27 70
M  V30 74 1 27 71
M  V30 75 1 30 72
M  V30 76 1 32 73
M  V30 77 1 35 74
M  V30 78 1 35 75
M  V30 79 1 35 76
M  V30 80 1 36 77
M  V30 81 1 37 78
M  V30 82 1 37 79
M  V30 83 1 37 80
M  V30 84 1 40 81
M  V30 85 1 42 82
M  V30 86 1 42 83
M  V30 87 1 42 84
M  V30 88 1 43 85
M  V30 89 1 43 86
M  V30 90 1 43 87
M  V30 91 1 44 88
M  V30 92 1 44 89
M  V30 93 1 44 90
M  V30 94 1 45 91
M  V30 95 1 45 92
M  V30 96 1 45 93
M  V30 97 1 46 94
M  V30 98 1 46 95
M  V30 99 1 46 96
M  V30 100 1 47 97
M  V30 101 1 47 98
M  V30 102 1 47 99
M  V30 103 1 49 100
M  V30 104 1 49 101
M  V30 105 1 49 102
M  V30 106 1 50 103
M  V30 107 1 50 104
M  V30 108 1 50 105
M  V30 109 1 51 106
M  V30 110 1 51 107
M  V30 111 1 51 108
M  V30 END BOND
M  V30 END CTAB
M  END
>  <Structure No>
2929

>  <LogS>
-7.544026474

>  <MMFF94 Energy>
-79.131

$$$$
Compound 2930
Actelion Java MolfileCreator 2.0

  0  0  0  0  0  0              0 V3000
M  V30 BEGIN CTAB
M  V30 COUNTS 78 82 0 0 0
M  V30 BEGIN ATOM
M  V30 1 O 2.2405 -3.282 1.4399 0
M  V30 2 C 1.0356 -2.961 1.6263 0
M  V30 3 C 0.5206 -1.6319 1.1799 0
M  V30 4 C 0.1205 -3.9455 2.2385 0
M  V30 5 C -0.8856 -1.4403 1.0753 0
M  V30 6 C 1.4011 -0.5738 0.8263 0
M  V30 7 C -1.2688 -3.7531 2.147 0
M  V30 8 C 0.6225 -5.0896 2.8857 0
M  V30 9 C -1.7975 -2.5656 1.4439 0
M  V30 10 C -1.3898 -0.1995 0.5993 0
M  V30 11 N 2.8197 -0.6684 1.0593 0
M  V30 12 C 0.8743 0.6186 0.3152 0
M  V30 13 C -2.1398 -4.7085 2.7025 0
M  V30 14 C -0.2513 -6.0282 3.4386 0
M  V30 15 O -3.0183 -2.5375 1.1298 0
M  V30 16 N -2.8011 0.0829 0.5939 0
M  V30 17 C -0.4958 0.803 0.2046 0
M  V30 18 C 3.7929 0.0013 0.2389 0
M  V30 19 C -1.6303 -5.838 3.347 0
M  V30 20 C -3.4124 0.9533 -0.373 0
M  V30 21 C 3.9525 -0.3556 -1.1248 0
M  V30 22 C 4.6199 1.0065 0.7998 0
M  V30 23 C -3.8974 2.2201 0.0294 0
M  V30 24 C -3.5578 0.5422 -1.7209 0
M  V30 25 C 4.8789 0.3406 -1.9162 0
M  V30 26 C 3.1941 -1.5028 -1.7564 0
M  V30 27 C 5.5245 1.6956 -0.0231 0
M  V30 28 C 4.523 1.4065 2.256 0
M  V30 29 C -4.5125 3.058 -0.913 0
M  V30 30 C -3.7955 2.6895 1.4621 0
M  V30 31 C -4.1613 1.4094 -2.6454 0
M  V30 32 C -3.1012 -0.8167 -2.2016 0
M  V30 33 C 5.6436 1.3809 -1.3802 0
M  V30 34 C 2.1169 -1.0005 -2.7133 0
M  V30 35 C 3.4204 2.4365 2.4765 0
M  V30 36 C -4.6257 2.6689 -2.2515 0
M  V30 37 C -5.058 2.3338 2.2412 0
M  V30 38 C -1.7802 -0.7186 -2.9582 0
M  V30 39 C 6.6494 2.0946 -2.2348 0
M  V30 40 C -5.3152 3.5633 -3.2397 0
M  V30 41 H 1.6893 -5.2565 2.9662 0
M  V30 42 H 3.1495 -1.1132 1.9442 0
M  V30 43 H 1.5289 1.433 0.0332 0
M  V30 44 H -3.2134 -4.5812 2.642 0
M  V30 45 H 0.1411 -6.9058 3.9368 0
M  V30 46 H -3.3495 -0.149 1.451 0
M  V30 47 H -0.8623 1.7567 -0.1536 0
M  V30 48 H -2.306 -6.5684 3.7736 0
M  V30 49 H 5.009 0.0652 -2.9565 0
M  V30 50 H 3.9051 -2.1431 -2.3223 0
M  V30 51 H 2.7285 -2.158 -0.9936 0
M  V30 52 H 6.1413 2.4826 0.3953 0
M  V30 53 H 5.488 1.8432 2.5952 0
M  V30 54 H 4.3439 0.5246 2.9042 0
M  V30 55 H -4.9032 4.0203 -0.6026 0
M  V30 56 H -2.91 2.2461 1.965 0
M  V30 57 H -3.6529 3.7921 1.4897 0
M  V30 58 H -4.2793 1.0959 -3.6765 0
M  V30 59 H -2.9898 -1.5298 -1.3603 0
M  V30 60 H -3.8709 -1.2479 -2.8782 0
M  V30 61 H 2.5778 -0.4661 -3.5706 0
M  V30 62 H 1.5335 -1.8607 -3.103 0
M  V30 63 H 1.4244 -0.3112 -2.1922 0
M  V30 64 H 3.5749 3.3169 1.8171 0
M  V30 65 H 3.4381 2.7763 3.5335 0
M  V30 66 H 2.4258 1.9913 2.2717 0
M  V30 67 H -5.9425 2.8287 1.7868 0
M  V30 68 H -5.2173 1.2349 2.2455 0
M  V30 69 H -4.9579 2.6823 3.2902 0
M  V30 70 H -1.8961 -0.0821 -3.8612 0
M  V30 71 H -1.4562 -1.7315 -3.2766 0
M  V30 72 H -0.9956 -0.2843 -2.3085 0
M  V30 73 H 7.621 1.5596 -2.1859 0
M  V30 74 H 6.7915 3.1392 -1.8843 0
M  V30 75 H 6.3092 2.1318 -3.2919 0
M  V30 76 H -5.1425 4.6316 -2.9871 0
M  V30 77 H -6.4064 3.3601 -3.2236 0
M  V30 78 H -4.929 3.3873 -4.2663 0
M  V30 END ATOM
M  V30 BEGIN BOND
M  V30 1 2 1 2
M  V30 2 1 2 3
M  V30 3 1 2 4
M  V30 4 2 3 5
M  V30 5 1 3 6
M  V30 6 2 4 7
M  V30 7 1 4 8
M  V30 8 1 5 9
M  V30 9 1 5 10
M  V30 10 1 6 11
M  V30 11 2 6 12
M  V30 12 1 7 13
M  V30 13 2 8 14
M  V30 14 2 9 15
M  V30 15 1 10 16
M  V30 16 2 10 17
M  V30 17 1 11 18
M  V30 18 2 13 19
M  V30 19 1 16 20
M  V30 20 2 18 21
M  V30 21 1 18 22
M  V30 22 2 20 23
M  V30 23 1 20 24
M  V30 24 1 21 25
M  V30 25 1 21 26
M  V30 26 2 22 27
M  V30 27 1 22 28
M  V30 28 1 23 29
M  V30 29 1 23 30
M  V30 30 2 24 31
M  V30 31 1 24 32
M  V30 32 2 25 33
M  V30 33 1 26 34
M  V30 34 1 28 35
M  V30 35 2 29 36
M  V30 36 1 30 37
M  V30 37 1 32 38
M  V30 38 1 33 39
M  V30 39 1 36 40
M  V30 40 1 7 9
M  V30 41 1 12 17
M  V30 42 1 14 19
M  V30 43 1 27 33
M  V30 44 1 31 36
M  V30 45 1 8 41
M  V30 46 1 11 42
M  V30 47 1 12 43
M  V30 48 1 13 44
M  V30 49 1 14 45
M  V30 50 1 16 46
M  V30 51 1 17 47
M  V30 52 1 19 48
M  V30 53 1 25 49
M  V30 54 1 26 50
M  V30 55 1 26 51
M  V30 56 1 27 52
M  V30 57 1 28 53
M  V30 58 1 28 54
M  V30 59 1 29 55
M  V30 60 1 30 56
M  V30 61 1 30 57
M  V30 62 1 31 58
M  V30 63 1 32 59
M  V30 64 1 32 60
M  V30 65 1 34 61
M  V30 66 1 34 62
M  V30 67 1 34 63
M  V30 68 1 35 64
M  V30 69 1 35 65
M  V30 70 1 35 66
M  V30 71 1 37 67
M  V30 72 1 37 68
M  V30 73 1 37 69
M  V30 74 1 38 70
M  V30 75 1 38 71
M  V30 76 1 38 72
M  V30 77 1 39 73
M  V30 78 1 39 74
M  V30 79 1 39 75
M  V30 80 1 40 76
M  V30 81 1 40 77
M  V30 82 1 40 78
M  V30 END BOND
M  V30 END CTAB
M  END
>  <Structure No>
2930

>  <LogS>
-7.423828912

>  <MMFF94 Energy>
122.59

$$$$
Compound 2931
Actelion Java MolfileCreator 2.0

  0  0  0  0  0  0              0 V3000
M  V30 BEGIN CTAB
M  V30 COUNTS 66 70 0 0 0
M  V30 BEGIN ATOM
M  V30 1 O -3.213 2.0876 -0.1604 0
M  V30 2 C -1.9905 2.3784 -0.0567 0
M  V30 3 C -0.9866 1.3373 0.3181 0
M  V30 4 C -1.5574 3.7588 -0.3576 0
M  V30 5 C 0.3969 1.6184 0.141 0
M  V30 6 C -1.3852 0.0684 0.819 0
M  V30 7 C -0.1903 4.0382 -0.5288 0
M  V30 8 C -2.5006 4.7939 -0.4994 0
M  V30 9 C 0.8008 2.9491 -0.406 0
M  V30 10 C 1.3599 0.6234 0.4612 0
M  V30 11 N -2.7604 -0.2125 1.137 0
M  V30 12 C -0.4143 -0.9018 1.0938 0
M  V30 13 C 0.2163 5.3494 -0.8396 0
M  V30 14 C -2.0846 6.0919 -0.803 0
M  V30 15 O 1.9799 3.1523 -0.8035 0
M  V30 16 N 2.7705 0.9026 0.4121 0
M  V30 17 C 0.9338 -0.6297 0.9164 0
M  V30 18 C -3.3279 -1.529 1.0305 0
M  V30 19 C -0.7282 6.3691 -0.973 0
M  V30 20 C 3.7469 -0.0964 0.0722 0
M  V30 21 C -3.5332 -2.1309 -0.2369 0
M  V30 22 C -3.7096 -2.2199 2.2037 0
M  V30 23 C 3.8333 -0.6079 -1.2475 0
M  V30 24 C 4.6493 -0.5526 1.0603 0
M  V30 25 C -4.0917 -3.4177 -0.304 0
M  V30 26 C -3.1916 -1.4263 -1.5301 0
M  V30 27 C -4.2777 -3.4988 2.1033 0
M  V30 28 C -3.52 -1.5974 3.5604 0
M  V30 29 C 4.8018 -1.5801 -1.5456 0
M  V30 30 C 2.9286 -0.1286 -2.3599 0
M  V30 31 C 5.6145 -1.515 0.7286 0
M  V30 32 C 4.5893 -0.0159 2.4649 0
M  V30 33 C -4.4597 -4.0946 0.8572 0
M  V30 34 C -1.9046 -1.9778 -2.1352 0
M  V30 35 C 5.6841 -2.0288 -0.5646 0
M  V30 36 C 1.8364 -1.1503 -2.6607 0
M  V30 37 H -3.5586 4.6015 -0.372 0
M  V30 38 H -3.2888 0.4978 1.6914 0
M  V30 39 H -0.7 -1.8684 1.4881 0
M  V30 40 H 1.2637 5.5872 -0.9766 0
M  V30 41 H -2.8153 6.8835 -0.908 0
M  V30 42 H 3.1117 1.7778 0.8695 0
M  V30 43 H 1.6555 -1.3932 1.1772 0
M  V30 44 H -0.4081 7.3757 -1.2096 0
M  V30 45 H -4.2531 -3.8944 -1.2631 0
M  V30 46 H -3.0882 -0.3324 -1.3838 0
M  V30 47 H -4.0203 -1.5676 -2.2575 0
M  V30 48 H -4.5779 -4.04 2.9923 0
M  V30 49 H -4.2364 -0.7593 3.6883 0
M  V30 50 H -2.4833 -1.2122 3.6612 0
M  V30 51 H -3.6901 -2.3333 4.375 0
M  V30 52 H 4.88 -1.9848 -2.5472 0
M  V30 53 H 2.4616 0.8458 -2.114 0
M  V30 54 H 3.5298 0.0365 -3.2803 0
M  V30 55 H 6.3141 -1.8733 1.4737 0
M  V30 56 H 4.9236 1.0425 2.4739 0
M  V30 57 H 3.5493 -0.075 2.85 0
M  V30 58 H 5.2408 -0.5959 3.1526 0
M  V30 59 H -4.8944 -5.0836 0.7903 0
M  V30 60 H -1.649 -1.4073 -3.0526 0
M  V30 61 H -1.0686 -1.8847 -1.4147 0
M  V30 62 H -2.0301 -3.048 -2.4051 0
M  V30 63 H 6.4295 -2.7741 -0.8097 0
M  V30 64 H 2.2829 -2.0889 -3.0515 0
M  V30 65 H 1.1427 -0.7415 -3.425 0
M  V30 66 H 1.2596 -1.3814 -1.744 0
M  V30 END ATOM
M  V30 BEGIN BOND
M  V30 1 2 1 2
M  V30 2 1 2 3
M  V30 3 1 2 4
M  V30 4 2 3 5
M  V30 5 1 3 6
M  V30 6 2 4 7
M  V30 7 1 4 8
M  V30 8 1 5 9
M  V30 9 1 5 10
M  V30 10 1 6 11
M  V30 11 2 6 12
M  V30 12 1 7 13
M  V30 13 2 8 14
M  V30 14 2 9 15
M  V30 15 1 10 16
M  V30 16 2 10 17
M  V30 17 1 11 18
M  V30 18 2 13 19
M  V30 19 1 16 20
M  V30 20 2 18 21
M  V30 21 1 18 22
M  V30 22 2 20 23
M  V30 23 1 20 24
M  V30 24 1 21 25
M  V30 25 1 21 26
M  V30 26 2 22 27
M  V30 27 1 22 28
M  V30 28 1 23 29
M  V30 29 1 23 30
M  V30 30 2 24 31
M  V30 31 1 24 32
M  V30 32 2 25 33
M  V30 33 1 26 34
M  V30 34 2 29 35
M  V30 35 1 30 36
M  V30 36 1 7 9
M  V30 37 1 12 17
M  V30 38 1 14 19
M  V30 39 1 27 33
M  V30 40 1 31 35
M  V30 41 1 8 37
M  V30 42 1 11 38
M  V30 43 1 12 39
M  V30 44 1 13 40
M  V30 45 1 14 41
M  V30 46 1 16 42
M  V30 47 1 17 43
M  V30 48 1 19 44
M  V30 49 1 25 45
M  V30 50 1 26 46
M  V30 51 1 26 47
M  V30 52 1 27 48
M  V30 53 1 28 49
M  V30 54 1 28 50
M  V30 55 1 28 51
M  V30 56 1 29 52
M  V30 57 1 30 53
M  V30 58 1 30 54
M  V30 59 1 31 55
M  V30 60 1 32 56
M  V30 61 1 32 57
M  V30 62 1 32 58
M  V30 63 1 33 59
M  V30 64 1 34 60
M  V30 65 1 34 61
M  V30 66 1 34 62
M  V30 67 1 35 63
M  V30 68 1 36 64
M  V30 69 1 36 65
M  V30 70 1 36 66
M  V30 END BOND
M  V30 END CTAB
M  END
>  <Structure No>
2931

>  <LogS>
-7.375301399

>  <MMFF94 Energy>
118.63

$$$$
Compound 2932
Actelion Java MolfileCreator 2.0

  0  0  0  0  0  0              0 V3000
M  V30 BEGIN CTAB
M  V30 COUNTS 37 42 0 0 0
M  V30 BEGIN ATOM
M  V30 1 O 0.816 -2.6948 0.4895 0
M  V30 2 C 0.9641 -1.4823 0.1733 0
M  V30 3 N -0.1333 -0.6585 -0.0276 0
M  V30 4 C 2.2759 -0.9716 0.1151 0
M  V30 5 C 0.0605 0.7161 -0.0337 0
M  V30 6 C -1.4321 -1.1453 -0.1689 0
M  V30 7 C 2.4704 0.4129 -0.0211 0
M  V30 8 C 3.401 -1.8167 0.2116 0
M  V30 9 N -1.004 1.561 0.021 0
M  V30 10 C 1.3576 1.2698 -0.0684 0
M  V30 11 C -2.5279 -0.2522 -0.0733 0
M  V30 12 C -1.7349 -2.4962 -0.4905 0
M  V30 13 C 3.783 0.9462 -0.063 0
M  V30 14 C 4.6927 -1.2886 0.1547 0
M  V30 15 C -2.2765 1.1173 0.0452 0
M  V30 16 C 1.5692 2.6623 -0.1581 0
M  V30 17 C -3.865 -0.7128 -0.1357 0
M  V30 18 C -3.0563 -2.9488 -0.5497 0
M  V30 19 C 4.8862 0.0858 0.0161 0
M  V30 20 C 3.9681 2.3311 -0.1667 0
M  V30 21 C -3.3362 2.0261 0.1448 0
M  V30 22 C 2.8642 3.1826 -0.2112 0
M  V30 23 C -4.9229 0.2025 -0.0179 0
M  V30 24 C -4.1172 -2.0704 -0.3461 0
M  V30 25 C -4.6559 1.567 0.1259 0
M  V30 26 H 3.2871 -2.8883 0.3199 0
M  V30 27 H -0.9808 -3.2129 -0.7701 0
M  V30 28 H 5.548 -1.9486 0.2224 0
M  V30 29 H 0.7378 3.355 -0.1985 0
M  V30 30 H -3.259 -3.987 -0.7806 0
M  V30 31 H 5.8964 0.4767 -0.0177 0
M  V30 32 H 4.9646 2.7553 -0.2026 0
M  V30 33 H -3.1393 3.0874 0.2348 0
M  V30 34 H 3.0124 4.2523 -0.2858 0
M  V30 35 H -5.9523 -0.1339 -0.0545 0
M  V30 36 H -5.1332 -2.4433 -0.403 0
M  V30 37 H -5.4735 2.2716 0.2066 0
M  V30 END ATOM
M  V30 BEGIN BOND
M  V30 1 2 1 2
M  V30 2 1 2 3
M  V30 3 1 2 4
M  V30 4 1 3 5
M  V30 5 1 3 6
M  V30 6 1 4 7
M  V30 7 2 4 8
M  V30 8 2 5 9
M  V30 9 1 5 10
M  V30 10 1 6 11
M  V30 11 2 6 12
M  V30 12 1 7 13
M  V30 13 1 8 14
M  V30 14 1 9 15
M  V30 15 1 10 16
M  V30 16 1 11 17
M  V30 17 1 12 18
M  V30 18 1 13 19
M  V30 19 2 13 20
M  V30 20 1 15 21
M  V30 21 2 16 22
M  V30 22 2 17 23
M  V30 23 1 17 24
M  V30 24 2 21 25
M  V30 25 2 7 10
M  V30 26 2 11 15
M  V30 27 2 14 19
M  V30 28 2 18 24
M  V30 29 1 20 22
M  V30 30 1 23 25
M  V30 31 1 8 26
M  V30 32 1 12 27
M  V30 33 1 14 28
M  V30 34 1 16 29
M  V30 35 1 18 30
M  V30 36 1 19 31
M  V30 37 1 20 32
M  V30 38 1 21 33
M  V30 39 1 22 34
M  V30 40 1 23 35
M  V30 41 1 24 36
M  V30 42 1 25 37
M  V30 END BOND
M  V30 END CTAB
M  END
>  <Structure No>
2932

>  <LogS>
-7.204596088

>  <MMFF94 Energy>
79.606

$$$$
Compound 2933
Actelion Java MolfileCreator 2.0

  0  0  0  0  0  0              0 V3000
M  V30 BEGIN CTAB
M  V30 COUNTS 72 72 0 0 0
M  V30 BEGIN ATOM
M  V30 1 S 3.1956 -1.9164 0.9578 0
M  V30 2 C 1.626 -1.2386 1.6119 0
M  V30 3 C 3.8593 -0.3749 0.2314 0
M  V30 4 C 0.605 -1.0308 0.5182 0
M  V30 5 C 4.4653 0.5372 1.3089 0
M  V30 6 C 0.038 -2.117 -0.1943 0
M  V30 7 C 0.1734 0.2755 0.2348 0
M  V30 8 C 5.4994 1.5191 0.726 0
M  V30 9 O 0.3952 -3.4405 0.0801 0
M  V30 10 C -0.925 -1.8721 -1.1936 0
M  V30 11 C -0.7849 0.5185 -0.7582 0
M  V30 12 C 6.8926 0.8812 0.5927 0
M  V30 13 C -1.3161 -0.5566 -1.4799 0
M  V30 14 C -1.5087 -3.0088 -1.986 0
M  V30 15 C -1.3074 1.9133 -0.9728 0
M  V30 16 C 7.8922 1.8667 -0.034 0
M  V30 17 S -2.6546 2.2485 0.2193 0
M  V30 18 C 9.3298 1.321 -0.0503 0
M  V30 19 C -4.0502 1.8379 -0.8943 0
M  V30 20 C 9.5191 0.1711 -1.0499 0
M  V30 21 C -5.2377 1.2775 -0.1057 0
M  V30 22 C 10.9884 -0.2303 -1.1533 0
M  V30 23 C -4.9567 -0.1408 0.4153 0
M  V30 24 C -6.1166 -0.71 1.249 0
M  V30 25 C -7.3811 -1.0135 0.4157 0
M  V30 26 C -8.5053 0.0 0.6768 0
M  V30 27 C -9.7299 -0.3034 -0.1955 0
M  V30 28 C -10.8774 0.6538 0.1074 0
M  V30 29 H 1.2146 -1.9521 2.3551 0
M  V30 30 H 1.8263 -0.2995 2.1677 0
M  V30 31 H 4.6393 -0.6778 -0.4979 0
M  V30 32 H 3.0741 0.1683 -0.3331 0
M  V30 33 H 3.6462 1.129 1.7718 0
M  V30 34 H 4.9341 -0.0695 2.1154 0
M  V30 35 H 0.5734 1.1108 0.7982 0
M  V30 36 H 5.1521 1.8995 -0.2606 0
M  V30 37 H 5.5759 2.3903 1.4127 0
M  V30 38 H 1.0429 -3.7066 0.8109 0
M  V30 39 H 6.8269 -0.0321 -0.035 0
M  V30 40 H 7.2521 0.588 1.6058 0
M  V30 41 H -2.0487 -0.3724 -2.2567 0
M  V30 42 H -0.7837 -3.3233 -2.7655 0
M  V30 43 H -1.7257 -3.8742 -1.3255 0
M  V30 44 H -2.4603 -2.7109 -2.474 0
M  V30 45 H -1.6397 2.0604 -2.0219 0
M  V30 46 H -0.4943 2.6497 -0.7876 0
M  V30 47 H 7.8917 2.8065 0.562 0
M  V30 48 H 7.5744 2.1253 -1.0684 0
M  V30 49 H 9.6172 0.9846 0.9715 0
M  V30 50 H 10.0097 2.1558 -0.334 0
M  V30 51 H -3.7576 1.111 -1.6788 0
M  V30 52 H -4.3622 2.7742 -1.4029 0
M  V30 53 H 9.1612 0.481 -2.0568 0
M  V30 54 H 8.9375 -0.7159 -0.7273 0
M  V30 55 H -5.4809 1.9567 0.7414 0
M  V30 56 H -6.1152 1.2505 -0.7879 0
M  V30 57 H 11.0914 -1.1031 -1.8328 0
M  V30 58 H 11.3794 -0.5188 -0.1538 0
M  V30 59 H 11.5887 0.6131 -1.5524 0
M  V30 60 H -4.7439 -0.8226 -0.4379 0
M  V30 61 H -4.0497 -0.1196 1.0583 0
M  V30 62 H -5.7609 -1.6657 1.6953 0
M  V30 63 H -6.3422 -0.0329 2.1055 0
M  V30 64 H -7.1428 -1.0437 -0.6707 0
M  V30 65 H -7.7538 -2.0248 0.6954 0
M  V30 66 H -8.7945 -0.0474 1.7489 0
M  V30 67 H -8.1432 1.0269 0.4564 0
M  V30 68 H -10.0746 -1.3453 -0.0162 0
M  V30 69 H -9.4535 -0.2009 -1.2676 0
M  V30 70 H -10.5629 1.7061 -0.0652 0
M  V30 71 H -11.2088 0.5352 1.1607 0
M  V30 72 H -11.7352 0.423 -0.558 0
M  V30 END ATOM
M  V30 BEGIN BOND
M  V30 1 1 1 2
M  V30 2 1 1 3
M  V30 3 1 2 4
M  V30 4 1 3 5
M  V30 5 2 4 6
M  V30 6 1 4 7
M  V30 7 1 5 8
M  V30 8 1 6 9
M  V30 9 1 6 10
M  V30 10 2 7 11
M  V30 11 1 8 12
M  V30 12 2 10 13
M  V30 13 1 10 14
M  V30 14 1 11 15
M  V30 15 1 12 16
M  V30 16 1 15 17
M  V30 17 1 16 18
M  V30 18 1 17 19
M  V30 19 1 18 20
M  V30 20 1 19 21
M  V30 21 1 20 22
M  V30 22 1 21 23
M  V30 23 1 23 24
M  V30 24 1 24 25
M  V30 25 1 25 26
M  V30 26 1 26 27
M  V30 27 1 27 28
M  V30 28 1 11 13
M  V30 29 1 2 29
M  V30 30 1 2 30
M  V30 31 1 3 31
M  V30 32 1 3 32
M  V30 33 1 5 33
M  V30 34 1 5 34
M  V30 35 1 7 35
M  V30 36 1 8 36
M  V30 37 1 8 37
M  V30 38 1 9 38
M  V30 39 1 12 39
M  V30 40 1 12 40
M  V30 41 1 13 41
M  V30 42 1 14 42
M  V30 43 1 14 43
M  V30 44 1 14 44
M  V30 45 1 15 45
M  V30 46 1 15 46
M  V30 47 1 16 47
M  V30 48 1 16 48
M  V30 49 1 18 49
M  V30 50 1 18 50
M  V30 51 1 19 51
M  V30 52 1 19 52
M  V30 53 1 20 53
M  V30 54 1 20 54
M  V30 55 1 21 55
M  V30 56 1 21 56
M  V30 57 1 22 57
M  V30 58 1 22 58
M  V30 59 1 22 59
M  V30 60 1 23 60
M  V30 61 1 23 61
M  V30 62 1 24 62
M  V30 63 1 24 63
M  V30 64 1 25 64
M  V30 65 1 25 65
M  V30 66 1 26 66
M  V30 67 1 26 67
M  V30 68 1 27 68
M  V30 69 1 27 69
M  V30 70 1 28 70
M  V30 71 1 28 71
M  V30 72 1 28 72
M  V30 END BOND
M  V30 END CTAB
M  END
>  <Structure No>
2933

>  <LogS>
-7.327113617

>  <MMFF94 Energy>
23.589

$$$$
Compound 2934
Actelion Java MolfileCreator 2.0

  0  0  0  0  0  0              0 V3000
M  V30 BEGIN CTAB
M  V30 COUNTS 96 97 0 0 0
M  V30 BEGIN ATOM
M  V30 1 S 3.2019 -0.3998 1.4399 0
M  V30 2 C 1.8962 0.6858 0.87 0
M  V30 3 C 3.6121 -1.0461 -0.2216 0
M  V30 4 N 2.1566 1.9923 0.6073 0
M  V30 5 N 0.6337 0.2114 0.7414 0
M  V30 6 C 4.5259 -0.0954 -1.0042 0
M  V30 7 C 1.1482 2.8242 0.2312 0
M  V30 8 C -0.371 1.0261 0.3263 0
M  V30 9 C 5.8717 0.1347 -0.2929 0
M  V30 10 S 1.4804 4.568 -0.0372 0
M  V30 11 N -0.1123 2.3386 0.1008 0
M  V30 12 N -1.7048 0.5311 0.1329 0
M  V30 13 C 6.9024 0.8119 -1.2101 0
M  V30 14 C 0.74 4.6488 -1.7099 0
M  V30 15 C -2.1761 -0.759 0.5583 0
M  V30 16 C 7.5628 -0.17 -2.2071 0
M  V30 17 C -0.7126 5.1215 -1.5839 0
M  V30 18 C -1.3954 -1.9054 0.4104 0
M  V30 19 C -3.4549 -0.8669 1.0928 0
M  V30 20 C 8.9989 -0.5734 -1.8232 0
M  V30 21 C -1.4622 5.0448 -2.9205 0
M  V30 22 C -1.8073 -3.1578 0.9111 0
M  V30 23 C -3.9931 -2.1116 1.4851 0
M  V30 24 C 9.1123 -1.3688 -0.5103 0
M  V30 25 C -2.8824 5.6352 -2.8383 0
M  V30 26 C -3.1693 -3.2699 1.3411 0
M  V30 27 C -0.775 -4.326 0.9887 0
M  V30 28 C -5.4603 -2.2127 2.0048 0
M  V30 29 C 8.538 -2.7822 -0.622 0
M  V30 30 C -3.826 4.8605 -1.8902 0
M  V30 31 O -3.7451 -4.5117 1.5979 0
M  V30 32 C 0.6938 -3.8064 0.9768 0
M  V30 33 C -0.9355 -5.2619 -0.229 0
M  V30 34 C -0.9271 -5.1212 2.3143 0
M  V30 35 C -5.4938 -2.8675 3.4062 0
M  V30 36 C -6.3184 -3.0349 1.0134 0
M  V30 37 C -6.152 -0.831 2.1494 0
M  V30 38 C -3.9759 5.5411 -0.5202 0
M  V30 39 C -4.919 4.7803 0.4297 0
M  V30 40 C -4.3376 3.4443 0.8987 0
M  V30 41 H 2.6839 -1.233 -0.8012 0
M  V30 42 H 4.1238 -2.026 -0.0985 0
M  V30 43 H 4.0141 0.8791 -1.158 0
M  V30 44 H 4.6976 -0.5402 -2.0062 0
M  V30 45 H 6.2748 -0.8242 0.0915 0
M  V30 46 H 5.6961 0.796 0.5863 0
M  V30 47 H -2.4226 1.2287 -0.1711 0
M  V30 48 H 7.6778 1.3019 -0.5813 0
M  V30 49 H 6.3997 1.6275 -1.7722 0
M  V30 50 H 1.313 5.3814 -2.3165 0
M  V30 51 H 0.7936 3.6589 -2.2134 0
M  V30 52 H 7.6212 0.3379 -3.1941 0
M  V30 53 H 6.9434 -1.0774 -2.3666 0
M  V30 54 H -0.7198 6.1689 -1.2119 0
M  V30 55 H -1.236 4.4806 -0.8432 0
M  V30 56 H -0.458 -1.806 -0.1038 0
M  V30 57 H -4.0217 0.05 1.1724 0
M  V30 58 H 9.6137 0.349 -1.7333 0
M  V30 59 H 9.4361 -1.1746 -2.6509 0
M  V30 60 H -1.518 3.9843 -3.2543 0
M  V30 61 H -0.8935 5.6137 -3.6901 0
M  V30 62 H 8.6188 -0.8269 0.3258 0
M  V30 63 H 10.1955 -1.451 -0.2545 0
M  V30 64 H -2.8302 6.709 -2.5624 0
M  V30 65 H -3.3105 5.5941 -3.8655 0
M  V30 66 H 7.4415 -2.751 -0.8049 0
M  V30 67 H 9.0373 -3.3382 -1.4427 0
M  V30 68 H 8.7177 -3.3264 0.3309 0
M  V30 69 H -4.8349 4.8097 -2.3631 0
M  V30 70 H -3.473 3.8162 -1.7744 0
M  V30 71 H -3.5098 -5.3454 1.0926 0
M  V30 72 H 0.9886 -3.4145 -0.0227 0
M  V30 73 H 1.4127 -4.6272 1.1935 0
M  V30 74 H 0.8426 -3.0142 1.7454 0
M  V30 75 H -1.8691 -5.8532 -0.198 0
M  V30 76 H -0.9331 -4.6715 -1.1713 0
M  V30 77 H -0.0911 -5.9842 -0.2802 0
M  V30 78 H -1.7904 -5.8123 2.3112 0
M  V30 79 H -0.0477 -5.7747 2.4988 0
M  V30 80 H -1.0217 -4.4208 3.1766 0
M  V30 81 H -6.5232 -2.8554 3.8263 0
M  V30 82 H -4.8313 -2.3167 4.1043 0
M  V30 83 H -5.1792 -3.925 3.3914 0
M  V30 84 H -6.2311 -2.6111 -0.0129 0
M  V30 85 H -7.3934 -3.0096 1.3014 0
M  V30 86 H -6.0253 -4.103 0.9758 0
M  V30 87 H -6.2438 -0.3222 1.1669 0
M  V30 88 H -7.1832 -0.9396 2.5514 0
M  V30 89 H -5.593 -0.1801 2.8569 0
M  V30 90 H -2.9881 5.6769 -0.0245 0
M  V30 91 H -4.4051 6.5558 -0.6815 0
M  V30 92 H -5.9025 4.6058 -0.0634 0
M  V30 93 H -5.1054 5.4139 1.3255 0
M  V30 94 H -3.2861 3.562 1.2493 0
M  V30 95 H -4.9487 3.0407 1.7388 0
M  V30 96 H -4.3691 2.7048 0.0744 0
M  V30 END ATOM
M  V30 BEGIN BOND
M  V30 1 1 1 2
M  V30 2 1 1 3
M  V30 3 2 2 4
M  V30 4 1 2 5
M  V30 5 1 3 6
M  V30 6 1 4 7
M  V30 7 2 5 8
M  V30 8 1 6 9
M  V30 9 1 7 10
M  V30 10 2 7 11
M  V30 11 1 8 12
M  V30 12 1 9 13
M  V30 13 1 10 14
M  V30 14 1 12 15
M  V30 15 1 13 16
M  V30 16 1 14 17
M  V30 17 2 15 18
M  V30 18 1 15 19
M  V30 19 1 16 20
M  V30 20 1 17 21
M  V30 21 1 18 22
M  V30 22 2 19 23
M  V30 23 1 20 24
M  V30 24 1 21 25
M  V30 25 2 22 26
M  V30 26 1 22 27
M  V30 27 1 23 28
M  V30 28 1 24 29
M  V30 29 1 25 30
M  V30 30 1 26 31
M  V30 31 1 27 32
M  V30 32 1 27 33
M  V30 33 1 27 34
M  V30 34 1 28 35
M  V30 35 1 28 36
M  V30 36 1 28 37
M  V30 37 1 30 38
M  V30 38 1 38 39
M  V30 39 1 39 40
M  V30 40 1 8 11
M  V30 41 1 23 26
M  V30 42 1 3 41
M  V30 43 1 3 42
M  V30 44 1 6 43
M  V30 45 1 6 44
M  V30 46 1 9 45
M  V30 47 1 9 46
M  V30 48 1 12 47
M  V30 49 1 13 48
M  V30 50 1 13 49
M  V30 51 1 14 50
M  V30 52 1 14 51
M  V30 53 1 16 52
M  V30 54 1 16 53
M  V30 55 1 17 54
M  V30 56 1 17 55
M  V30 57 1 18 56
M  V30 58 1 19 57
M  V30 59 1 20 58
M  V30 60 1 20 59
M  V30 61 1 21 60
M  V30 62 1 21 61
M  V30 63 1 24 62
M  V30 64 1 24 63
M  V30 65 1 25 64
M  V30 66 1 25 65
M  V30 67 1 29 66
M  V30 68 1 29 67
M  V30 69 1 29 68
M  V30 70 1 30 69
M  V30 71 1 30 70
M  V30 72 1 31 71
M  V30 73 1 32 72
M  V30 74 1 32 73
M  V30 75 1 32 74
M  V30 76 1 33 75
M  V30 77 1 33 76
M  V30 78 1 33 77
M  V30 79 1 34 78
M  V30 80 1 34 79
M  V30 81 1 34 80
M  V30 82 1 35 81
M  V30 83 1 35 82
M  V30 84 1 35 83
M  V30 85 1 36 84
M  V30 86 1 36 85
M  V30 87 1 36 86
M  V30 88 1 37 87
M  V30 89 1 37 88
M  V30 90 1 37 89
M  V30 91 1 38 90
M  V30 92 1 38 91
M  V30 93 1 39 92
M  V30 94 1 39 93
M  V30 95 1 40 94
M  V30 96 1 40 95
M  V30 97 1 40 96
M  V30 END BOND
M  V30 END CTAB
M  END
>  <Structure No>
2934

>  <LogS>
-7.469064653

>  <MMFF94 Energy>
-134.93

$$$$
Compound 2935
Actelion Java MolfileCreator 2.0

  0  0  0  0  0  0              0 V3000
M  V30 BEGIN CTAB
M  V30 COUNTS 56 55 0 0 0
M  V30 BEGIN ATOM
M  V30 1 O 8.3733 1.0143 0.0 0
M  V30 2 C 7.4276 1.1641 -0.8204 0
M  V30 3 O 6.6269 0.081 -1.1983 0
M  V30 4 C 7.1277 2.5202 -1.3615 0
M  V30 5 C 6.7808 -1.2343 -0.6667 0
M  V30 6 C 6.2566 -1.3244 0.7745 0
M  V30 7 C 4.8102 -0.8263 0.9347 0
M  V30 8 C 3.7948 -1.7082 0.1872 0
M  V30 9 C 2.3393 -1.3828 0.5596 0
M  V30 10 C 1.8756 -0.0283 -0.0037 0
M  V30 11 C 0.4142 0.2889 0.3527 0
M  V30 12 C -0.5882 -0.5912 -0.4154 0
M  V30 13 C -2.035 -0.0874 -0.2913 0
M  V30 14 C -2.6039 -0.2698 1.1269 0
M  V30 15 C -4.0763 0.1609 1.224 0
M  V30 16 C -5.0404 -0.9072 0.6778 0
M  V30 17 C -6.5098 -0.4376 0.7161 0
M  V30 18 C -7.0442 0.0228 -0.6509 0
M  V30 19 C -6.3521 1.2911 -1.1672 0
M  V30 20 C -7.0261 1.809 -2.4344 0
M  V30 21 H 8.0678 3.0966 -1.4923 0
M  V30 22 H 6.4614 3.0595 -0.6566 0
M  V30 23 H 6.6214 2.4319 -2.3454 0
M  V30 24 H 7.8513 -1.5327 -0.6965 0
M  V30 25 H 6.2262 -1.9477 -1.3108 0
M  V30 26 H 6.3291 -2.3778 1.1222 0
M  V30 27 H 6.9126 -0.718 1.4351 0
M  V30 28 H 4.5669 -0.8319 2.0196 0
M  V30 29 H 4.7413 0.2239 0.5817 0
M  V30 30 H 3.9841 -2.7731 0.4448 0
M  V30 31 H 3.9259 -1.5966 -0.9103 0
M  V30 32 H 2.2206 -1.3962 1.6652 0
M  V30 33 H 1.7009 -2.1899 0.1428 0
M  V30 34 H 2.007 -0.0089 -1.1076 0
M  V30 35 H 2.5058 0.7796 0.4242 0
M  V30 36 H 0.27 0.1693 1.4478 0
M  V30 37 H 0.2258 1.3554 0.1007 0
M  V30 38 H -0.5352 -1.6402 -0.054 0
M  V30 39 H -0.3189 -0.5906 -1.4943 0
M  V30 40 H -2.0864 0.984 -0.5845 0
M  V30 41 H -2.6521 -0.6597 -1.0149 0
M  V30 42 H -2.0217 0.3613 1.8315 0
M  V30 43 H -2.4956 -1.3276 1.4525 0
M  V30 44 H -4.2182 1.1297 0.7014 0
M  V30 45 H -4.3176 0.3304 2.2963 0
M  V30 46 H -4.7593 -1.2059 -0.3532 0
M  V30 47 H -4.9427 -1.8148 1.3132 0
M  V30 48 H -7.1386 -1.2945 1.044 0
M  V30 49 H -6.6579 0.3665 1.4706 0
M  V30 50 H -8.1328 0.2234 -0.5416 0
M  V30 51 H -6.9276 -0.7972 -1.3931 0
M  V30 52 H -5.2894 1.0704 -1.4033 0
M  V30 53 H -6.3902 2.0854 -0.3901 0
M  V30 54 H -6.989 1.0381 -3.2334 0
M  V30 55 H -8.0851 2.0741 -2.2285 0
M  V30 56 H -6.4969 2.7173 -2.7918 0
M  V30 END ATOM
M  V30 BEGIN BOND
M  V30 1 2 1 2
M  V30 2 1 2 3
M  V30 3 1 2 4
M  V30 4 1 3 5
M  V30 5 1 5 6
M  V30 6 1 6 7
M  V30 7 1 7 8
M  V30 8 1 8 9
M  V30 9 1 9 10
M  V30 10 1 10 11
M  V30 11 1 11 12
M  V30 12 1 12 13
M  V30 13 1 13 14
M  V30 14 1 14 15
M  V30 15 1 15 16
M  V30 16 1 16 17
M  V30 17 1 17 18
M  V30 18 1 18 19
M  V30 19 1 19 20
M  V30 20 1 4 21
M  V30 21 1 4 22
M  V30 22 1 4 23
M  V30 23 1 5 24
M  V30 24 1 5 25
M  V30 25 1 6 26
M  V30 26 1 6 27
M  V30 27 1 7 28
M  V30 28 1 7 29
M  V30 29 1 8 30
M  V30 30 1 8 31
M  V30 31 1 9 32
M  V30 32 1 9 33
M  V30 33 1 10 34
M  V30 34 1 10 35
M  V30 35 1 11 36
M  V30 36 1 11 37
M  V30 37 1 12 38
M  V30 38 1 12 39
M  V30 39 1 13 40
M  V30 40 1 13 41
M  V30 41 1 14 42
M  V30 42 1 14 43
M  V30 43 1 15 44
M  V30 44 1 15 45
M  V30 45 1 16 46
M  V30 46 1 16 47
M  V30 47 1 17 48
M  V30 48 1 17 49
M  V30 49 1 18 50
M  V30 50 1 18 51
M  V30 51 1 19 52
M  V30 52 1 19 53
M  V30 53 1 20 54
M  V30 54 1 20 55
M  V30 55 1 20 56
M  V30 END BOND
M  V30 END CTAB
M  END
>  <Structure No>
2935

>  <LogS>
-7.397152994

>  <MMFF94 Energy>
-11.324

$$$$
Compound 2936
Actelion Java MolfileCreator 2.0

  0  0  0  0  0  0              0 V3000
M  V30 BEGIN CTAB
M  V30 COUNTS 62 61 0 0 0
M  V30 BEGIN ATOM
M  V30 1 O -1.5678 -0.3917 2.4309 0
M  V30 2 C -1.2854 -0.0507 1.2486 0
M  V30 3 O -2.2962 0.2006 0.3161 0
M  V30 4 C 0.1452 0.0753 0.8301 0
M  V30 5 C -3.6807 0.0726 0.6254 0
M  V30 6 C 0.4734 -0.9389 -0.2669 0
M  V30 7 C -4.5296 0.2889 -0.644 0 CFG=2
M  V30 8 C 1.9033 -0.8142 -0.6848 0
M  V30 9 C -6.0402 0.0899 -0.3655 0
M  V30 10 C -4.0526 -0.5937 -1.8269 0
M  V30 11 O 2.2379 0.0796 -1.5101 0
M  V30 12 O 2.8592 -1.6701 -0.1273 0
M  V30 13 C -6.6462 1.2329 0.4645 0
M  V30 14 C -4.1207 -2.1002 -1.5616 0
M  V30 15 C 4.2553 -1.5781 -0.4085 0
M  V30 16 C -8.1643 1.0682 0.5998 0
M  V30 17 C 4.8999 -0.3674 0.3056 0 CFG=2
M  V30 18 C -8.7722 2.2069 1.4134 0
M  V30 19 C 6.4404 -0.3464 0.1278 0
M  V30 20 C 4.5075 -0.282 1.8034 0
M  V30 21 C 6.9313 -0.204 -1.3285 0
M  V30 22 C 4.9045 -1.5009 2.64 0
M  V30 23 C 6.4342 1.0489 -2.0705 0
M  V30 24 C 6.8446 2.3508 -1.3836 0
M  V30 25 H 0.8096 -0.093 1.7061 0
M  V30 26 H 0.3167 1.1072 0.4561 0
M  V30 27 H -3.9411 0.8337 1.391 0
M  V30 28 H -3.88 -0.9332 1.0548 0
M  V30 29 H -0.1816 -0.7739 -1.1511 0
M  V30 30 H 0.2916 -1.9695 0.11 0
M  V30 31 H -4.3776 1.3432 -0.9673 0
M  V30 32 H -6.2074 -0.8734 0.1634 0
M  V30 33 H -6.5829 0.0416 -1.3354 0
M  V30 34 H -4.6682 -0.3651 -2.7243 0
M  V30 35 H -3.0056 -0.3282 -2.09 0
M  V30 36 H -6.4273 2.2053 -0.0279 0
M  V30 37 H -6.1964 1.2394 1.4795 0
M  V30 38 H -3.438 -2.3881 -0.7359 0
M  V30 39 H -5.1563 -2.4141 -1.3185 0
M  V30 40 H -3.8005 -2.6462 -2.4738 0
M  V30 41 H 4.7444 -2.5167 -0.0753 0
M  V30 42 H 4.3996 -1.5044 -1.5072 0
M  V30 43 H -8.3929 0.1043 1.1035 0
M  V30 44 H -8.632 1.0593 -0.4081 0
M  V30 45 H 4.4894 0.5544 -0.1548 0
M  V30 46 H -8.3409 2.2246 2.4366 0
M  V30 47 H -8.5799 3.1816 0.9171 0
M  V30 48 H -9.8696 2.062 1.4941 0
M  V30 49 H 6.8688 -1.2894 0.5283 0
M  V30 50 H 6.8738 0.4786 0.7327 0
M  V30 51 H 4.9746 0.6217 2.2518 0
M  V30 52 H 3.4086 -0.1398 1.8888 0
M  V30 53 H 6.6401 -1.1042 -1.9099 0
M  V30 54 H 8.0432 -0.189 -1.3181 0
M  V30 55 H 6.0039 -1.643 2.6409 0
M  V30 56 H 4.5802 -1.3428 3.6899 0
M  V30 57 H 4.4081 -2.419 2.2651 0
M  V30 58 H 5.3319 1.0198 -2.199 0
M  V30 59 H 6.8752 1.0413 -3.0908 0
M  V30 60 H 6.2998 2.4754 -0.4251 0
M  V30 61 H 6.5901 3.2099 -2.0386 0
M  V30 62 H 7.9389 2.3621 -1.1942 0
M  V30 END ATOM
M  V30 BEGIN BOND
M  V30 1 2 1 2
M  V30 2 1 2 3
M  V30 3 1 2 4
M  V30 4 1 3 5
M  V30 5 1 4 6
M  V30 6 1 5 7
M  V30 7 1 6 8
M  V30 8 1 7 9
M  V30 9 1 7 10
M  V30 10 2 8 11
M  V30 11 1 8 12
M  V30 12 1 9 13
M  V30 13 1 10 14
M  V30 14 1 12 15
M  V30 15 1 13 16
M  V30 16 1 15 17
M  V30 17 1 16 18
M  V30 18 1 17 19
M  V30 19 1 17 20
M  V30 20 1 19 21
M  V30 21 1 20 22
M  V30 22 1 21 23
M  V30 23 1 23 24
M  V30 24 1 4 25
M  V30 25 1 4 26
M  V30 26 1 5 27
M  V30 27 1 5 28
M  V30 28 1 6 29
M  V30 29 1 6 30
M  V30 30 1 7 31
M  V30 31 1 9 32
M  V30 32 1 9 33
M  V30 33 1 10 34
M  V30 34 1 10 35
M  V30 35 1 13 36
M  V30 36 1 13 37
M  V30 37 1 14 38
M  V30 38 1 14 39
M  V30 39 1 14 40
M  V30 40 1 15 41
M  V30 41 1 15 42
M  V30 42 1 16 43
M  V30 43 1 16 44
M  V30 44 1 17 45
M  V30 45 1 18 46
M  V30 46 1 18 47
M  V30 47 1 18 48
M  V30 48 1 19 49
M  V30 49 1 19 50
M  V30 50 1 20 51
M  V30 51 1 20 52
M  V30 52 1 21 53
M  V30 53 1 21 54
M  V30 54 1 22 55
M  V30 55 1 22 56
M  V30 56 1 22 57
M  V30 57 1 23 58
M  V30 58 1 23 59
M  V30 59 1 24 60
M  V30 60 1 24 61
M  V30 61 1 24 62
M  V30 END BOND
M  V30 BEGIN COLLECTION
M  V30 MDLV30/STEABS ATOMS=(2 7 17)
M  V30 END COLLECTION
M  V30 END CTAB
M  END
>  <Structure No>
2936

>  <LogS>
-7.835715931

>  <MMFF94 Energy>
-24.292

$$$$
Compound 2937
Actelion Java MolfileCreator 2.0

  0  0  0  0  0  0              0 V3000
M  V30 BEGIN CTAB
M  V30 COUNTS 75 76 0 0 0
M  V30 BEGIN ATOM
M  V30 1 O 4.4347 0.4744 -1.1072 0
M  V30 2 C 3.343 0.4892 -0.2352 0
M  V30 3 C 3.043 -0.7231 0.4593 0
M  V30 4 C 2.5503 1.6721 -0.0378 0
M  V30 5 C 1.9739 -0.7122 1.3794 0
M  V30 6 C 3.8623 -2.026 0.2117 0
M  V30 7 C 1.5039 1.6016 0.9092 0
M  V30 8 C 2.764 2.9785 -0.864 0
M  V30 9 C 1.2216 0.4341 1.6121 0
M  V30 10 C 3.3374 -3.242 1.0226 0
M  V30 11 C 5.3351 -1.8156 0.6327 0
M  V30 12 C 3.7894 -2.4313 -1.2808 0
M  V30 13 C 4.2133 3.5243 -0.6763 0
M  V30 14 C 1.7978 4.1285 -0.4592 0
M  V30 15 C 2.463 2.6882 -2.3554 0
M  V30 16 C 0.0168 0.3746 2.5164 0
M  V30 17 C -1.2048 0.0467 1.6971 0
M  V30 18 C -1.9288 1.07 1.088 0
M  V30 19 C -1.5239 -1.2817 1.4249 0
M  V30 20 C -2.9895 0.8014 0.1969 0
M  V30 21 C -2.6241 -1.6234 0.6104 0
M  V30 22 C -3.4207 -0.56 0.0898 0
M  V30 23 C -3.6199 1.9738 -0.6161 0
M  V30 24 C -2.9809 -3.1133 0.3372 0
M  V30 25 O -4.649 -0.8852 -0.4829 0
M  V30 26 C -4.8592 2.5187 0.1206 0
M  V30 27 C -2.6238 3.1581 -0.7901 0
M  V30 28 C -3.9935 1.54 -2.0604 0
M  V30 29 C -1.8893 -4.0987 0.8349 0
M  V30 30 C -3.1296 -3.3605 -1.1846 0
M  V30 31 C -4.2936 -3.4852 1.0622 0
M  V30 32 H 4.8083 1.2579 -1.612 0
M  V30 33 H 1.689 -1.595 1.9292 0
M  V30 34 H 0.8648 2.4445 1.1138 0
M  V30 35 H 3.4121 -3.0555 2.1163 0
M  V30 36 H 2.2832 -3.4744 0.754 0
M  V30 37 H 3.937 -4.1537 0.8073 0
M  V30 38 H 5.8608 -1.0805 -0.0056 0
M  V30 39 H 5.906 -2.7657 0.5551 0
M  V30 40 H 5.3867 -1.4642 1.6853 0
M  V30 41 H 2.7293 -2.4718 -1.6163 0
M  V30 42 H 4.3403 -1.7354 -1.9431 0
M  V30 43 H 4.243 -3.4342 -1.4417 0
M  V30 44 H 4.2355 4.5924 -0.3665 0
M  V30 45 H 4.7991 3.4771 -1.6189 0
M  V30 46 H 4.7649 2.9665 0.1106 0
M  V30 47 H 1.941 4.4091 0.6068 0
M  V30 48 H 0.7349 3.8488 -0.6294 0
M  V30 49 H 1.9906 5.0375 -1.0708 0
M  V30 50 H 1.4022 2.3772 -2.4808 0
M  V30 51 H 2.6323 3.597 -2.9742 0
M  V30 52 H 3.0877 1.8802 -2.7787 0
M  V30 53 H -0.1169 1.3456 3.042 0
M  V30 54 H 0.1628 -0.3869 3.3137 0
M  V30 55 H -1.6209 2.0803 1.3036 0
M  V30 56 H -0.8965 -2.0348 1.876 0
M  V30 57 H -5.4599 -0.2888 -0.4346 0
M  V30 58 H -5.3013 3.3713 -0.4396 0
M  V30 59 H -4.5767 2.8781 1.1344 0
M  V30 60 H -5.6463 1.7525 0.2436 0
M  V30 61 H -3.0103 3.9141 -1.5085 0
M  V30 62 H -1.6454 2.7923 -1.172 0
M  V30 63 H -2.4643 3.7139 0.1583 0
M  V30 64 H -3.1359 1.0167 -2.5396 0
M  V30 65 H -4.251 2.4213 -2.6891 0
M  V30 66 H -4.8859 0.8918 -2.1182 0
M  V30 67 H -0.9037 -3.8599 0.3783 0
M  V30 68 H -1.8021 -4.0766 1.943 0
M  V30 69 H -2.1418 -5.1458 0.5587 0
M  V30 70 H -4.0213 -2.8651 -1.6146 0
M  V30 71 H -3.2467 -4.4447 -1.402 0
M  V30 72 H -2.229 -2.9948 -1.7239 0
M  V30 73 H -4.5125 -4.5686 0.947 0
M  V30 74 H -4.2114 -3.2613 2.1477 0
M  V30 75 H -5.1681 -2.9371 0.6604 0
M  V30 END ATOM
M  V30 BEGIN BOND
M  V30 1 1 1 2
M  V30 2 2 2 3
M  V30 3 1 2 4
M  V30 4 1 3 5
M  V30 5 1 3 6
M  V30 6 2 4 7
M  V30 7 1 4 8
M  V30 8 2 5 9
M  V30 9 1 6 10
M  V30 10 1 6 11
M  V30 11 1 6 12
M  V30 12 1 8 13
M  V30 13 1 8 14
M  V30 14 1 8 15
M  V30 15 1 9 16
M  V30 16 1 16 17
M  V30 17 2 17 18
M  V30 18 1 17 19
M  V30 19 1 18 20
M  V30 20 2 19 21
M  V30 21 2 20 22
M  V30 22 1 20 23
M  V30 23 1 21 24
M  V30 24 1 22 25
M  V30 25 1 23 26
M  V30 26 1 23 27
M  V30 27 1 23 28
M  V30 28 1 24 29
M  V30 29 1 24 30
M  V30 30 1 24 31
M  V30 31 1 7 9
M  V30 32 1 21 22
M  V30 33 1 1 32
M  V30 34 1 5 33
M  V30 35 1 7 34
M  V30 36 1 10 35
M  V30 37 1 10 36
M  V30 38 1 10 37
M  V30 39 1 11 38
M  V30 40 1 11 39
M  V30 41 1 11 40
M  V30 42 1 12 41
M  V30 43 1 12 42
M  V30 44 1 12 43
M  V30 45 1 13 44
M  V30 46 1 13 45
M  V30 47 1 13 46
M  V30 48 1 14 47
M  V30 49 1 14 48
M  V30 50 1 14 49
M  V30 51 1 15 50
M  V30 52 1 15 51
M  V30 53 1 15 52
M  V30 54 1 16 53
M  V30 55 1 16 54
M  V30 56 1 18 55
M  V30 57 1 19 56
M  V30 58 1 25 57
M  V30 59 1 26 58
M  V30 60 1 26 59
M  V30 61 1 26 60
M  V30 62 1 27 61
M  V30 63 1 27 62
M  V30 64 1 27 63
M  V30 65 1 28 64
M  V30 66 1 28 65
M  V30 67 1 28 66
M  V30 68 1 29 67
M  V30 69 1 29 68
M  V30 70 1 29 69
M  V30 71 1 30 70
M  V30 72 1 30 71
M  V30 73 1 30 72
M  V30 74 1 31 73
M  V30 75 1 31 74
M  V30 76 1 31 75
M  V30 END BOND
M  V30 END CTAB
M  END
>  <Structure No>
2937

>  <LogS>
-8.62805056

>  <MMFF94 Energy>
120.12

$$$$
Compound 2938
Actelion Java MolfileCreator 2.0

  0  0  0  0  0  0              0 V3000
M  V30 BEGIN CTAB
M  V30 COUNTS 28 27 0 0 0
M  V30 BEGIN ATOM
M  V30 1 O -4.6231 0.3129 1.4869 0
M  V30 2 C -4.3503 -0.0785 0.3218 0
M  V30 3 O -5.008 -1.1829 -0.2045 0 CHG=-1
M  V30 4 C -3.3009 0.6235 -0.4844 0
M  V30 5 C -1.9948 -0.1796 -0.5425 0
M  V30 6 C -1.2633 -0.1969 0.8105 0
M  V30 7 C -0.028 -1.1158 0.8139 0
M  V30 8 C 1.0768 -0.7329 -0.1879 0
M  V30 9 C 1.6781 0.6563 0.085 0
M  V30 10 C 2.8484 0.9855 -0.8551 0
M  V30 11 C 4.1262 0.2253 -0.5003 0
M  V30 12 H -3.1077 1.6361 -0.0665 0
M  V30 13 H -3.6861 0.7576 -1.5178 0
M  V30 14 H -2.2078 -1.2191 -0.8762 0
M  V30 15 H -1.3423 0.2977 -1.3037 0
M  V30 16 H -0.9782 0.8356 1.103 0
M  V30 17 H -1.9558 -0.5735 1.5937 0
M  V30 18 H -0.3563 -2.1555 0.5962 0
M  V30 19 H 0.4042 -1.1221 1.8384 0
M  V30 20 H 1.8737 -1.5005 -0.1022 0
M  V30 21 H 0.6896 -0.7838 -1.2272 0
M  V30 22 H 0.8958 1.427 -0.0788 0
M  V30 23 H 2.0112 0.7289 1.1436 0
M  V30 24 H 2.5662 0.7717 -1.9089 0
M  V30 25 H 3.0627 2.0738 -0.7801 0
M  V30 26 H 4.3949 0.3912 0.5645 0
M  V30 27 H 4.9605 0.5919 -1.1347 0
M  V30 28 H 4.0054 -0.8614 -0.6864 0
M  V30 END ATOM
M  V30 BEGIN BOND
M  V30 1 2 1 2
M  V30 2 1 2 3
M  V30 3 1 2 4
M  V30 4 1 4 5
M  V30 5 1 5 6
M  V30 6 1 6 7
M  V30 7 1 7 8
M  V30 8 1 8 9
M  V30 9 1 9 10
M  V30 10 1 10 11
M  V30 11 1 4 12
M  V30 12 1 4 13
M  V30 13 1 5 14
M  V30 14 1 5 15
M  V30 15 1 6 16
M  V30 16 1 6 17
M  V30 17 1 7 18
M  V30 18 1 7 19
M  V30 19 1 8 20
M  V30 20 1 8 21
M  V30 21 1 9 22
M  V30 22 1 9 23
M  V30 23 1 10 24
M  V30 24 1 10 25
M  V30 25 1 11 26
M  V30 26 1 11 27
M  V30 27 1 11 28
M  V30 END BOND
M  V30 END CTAB
M  END
>  <Structure No>
2938

>  <LogS>
-8.765531466

>  <MMFF94 Energy>
2.9145

$$$$
Compound 2939
Actelion Java MolfileCreator 2.0

  0  0  0  0  0  0              0 V3000
M  V30 BEGIN CTAB
M  V30 COUNTS 50 49 0 0 0
M  V30 BEGIN ATOM
M  V30 1 O -1.6468 2.3532 0.2351 0
M  V30 2 C -1.6423 1.3275 -0.4982 0
M  V30 3 O -0.5485 0.4656 -0.4919 0
M  V30 4 C -2.8266 1.0164 -1.3612 0
M  V30 5 O 0.5303 0.7139 0.3023 0
M  V30 6 C -3.6671 -0.1286 -0.78 0
M  V30 7 C 1.6278 -0.143 0.2999 0
M  V30 8 C -4.4299 0.2985 0.4862 0
M  V30 9 O 1.6393 -1.157 -0.4491 0
M  V30 10 C 2.8089 0.1604 1.169 0
M  V30 11 C -5.1782 -0.8677 1.1566 0
M  V30 12 C 3.6088 1.3657 0.6499 0
M  V30 13 C -6.2586 -1.5404 0.2852 0
M  V30 14 C 4.18 1.1898 -0.7717 0
M  V30 15 C -7.3504 -0.5931 -0.2429 0
M  V30 16 C 5.131 -0.0076 -0.9481 0
M  V30 17 C -8.1471 0.0805 0.8747 0
M  V30 18 C 6.3839 0.089 -0.0654 0
M  V30 19 C 7.3827 -1.0225 -0.4085 0
M  V30 20 C 8.6267 -0.9376 0.4712 0
M  V30 21 H -2.4575 0.7175 -2.3658 0
M  V30 22 H -3.4565 1.9236 -1.4935 0
M  V30 23 H -3.0126 -1.0004 -0.5574 0
M  V30 24 H -4.3958 -0.4388 -1.5588 0
M  V30 25 H -5.1356 1.122 0.2463 0
M  V30 26 H -3.7068 0.6984 1.2296 0
M  V30 27 H 3.4641 -0.732 1.2614 0
M  V30 28 H 2.4387 0.3938 2.1903 0
M  V30 29 H -4.4377 -1.6423 1.4547 0
M  V30 30 H -5.6416 -0.5009 2.0969 0
M  V30 31 H 4.4332 1.5866 1.36 0
M  V30 32 H 2.9471 2.2594 0.6514 0
M  V30 33 H -6.7413 -2.3423 0.8856 0
M  V30 34 H -5.7755 -2.0468 -0.5769 0
M  V30 35 H 4.7214 2.1203 -1.05 0
M  V30 36 H 3.3399 1.0845 -1.4918 0
M  V30 37 H -6.9111 0.1789 -0.9092 0
M  V30 38 H -8.0555 -1.1906 -0.8607 0
M  V30 39 H 5.4441 -0.0324 -2.0155 0
M  V30 40 H 4.5949 -0.9596 -0.7462 0
M  V30 41 H -8.5404 -0.6785 1.5847 0
M  V30 42 H -9.0051 0.6329 0.4355 0
M  V30 43 H -7.5131 0.8086 1.4225 0
M  V30 44 H 6.0947 -0.0072 1.0034 0
M  V30 45 H 6.8687 1.079 -0.217 0
M  V30 46 H 6.9039 -2.0149 -0.2593 0
M  V30 47 H 7.6902 -0.9365 -1.4736 0
M  V30 48 H 8.3507 -1.0439 1.5421 0
M  V30 49 H 9.3288 -1.7548 0.2019 0
M  V30 50 H 9.1401 0.0357 0.3192 0
M  V30 END ATOM
M  V30 BEGIN BOND
M  V30 1 2 1 2
M  V30 2 1 2 3
M  V30 3 1 2 4
M  V30 4 1 3 5
M  V30 5 1 4 6
M  V30 6 1 5 7
M  V30 7 1 6 8
M  V30 8 2 7 9
M  V30 9 1 7 10
M  V30 10 1 8 11
M  V30 11 1 10 12
M  V30 12 1 11 13
M  V30 13 1 12 14
M  V30 14 1 13 15
M  V30 15 1 14 16
M  V30 16 1 15 17
M  V30 17 1 16 18
M  V30 18 1 18 19
M  V30 19 1 19 20
M  V30 20 1 4 21
M  V30 21 1 4 22
M  V30 22 1 6 23
M  V30 23 1 6 24
M  V30 24 1 8 25
M  V30 25 1 8 26
M  V30 26 1 10 27
M  V30 27 1 10 28
M  V30 28 1 11 29
M  V30 29 1 11 30
M  V30 30 1 12 31
M  V30 31 1 12 32
M  V30 32 1 13 33
M  V30 33 1 13 34
M  V30 34 1 14 35
M  V30 35 1 14 36
M  V30 36 1 15 37
M  V30 37 1 15 38
M  V30 38 1 16 39
M  V30 39 1 16 40
M  V30 40 1 17 41
M  V30 41 1 17 42
M  V30 42 1 17 43
M  V30 43 1 18 44
M  V30 44 1 18 45
M  V30 45 1 19 46
M  V30 46 1 19 47
M  V30 47 1 20 48
M  V30 48 1 20 49
M  V30 49 1 20 50
M  V30 END BOND
M  V30 END CTAB
M  END
>  <Structure No>
2939

>  <LogS>
-7.61189317

>  <MMFF94 Energy>
3.9294

$$$$
Compound 2940
Actelion Java MolfileCreator 2.0

  0  0  0  0  0  0              0 V3000
M  V30 BEGIN CTAB
M  V30 COUNTS 24 26 0 0 0
M  V30 BEGIN ATOM
M  V30 1 C 1.2005 0.7201 -0.24 0
M  V30 2 C 1.1939 -0.6943 -0.1667 0
M  V30 3 C 9.0E-4 1.4324 -0.0937 0
M  V30 4 C 2.4104 1.398 -0.4586 0
M  V30 5 C -0.0121 -1.3765 0.0516 0
M  V30 6 C 2.3974 -1.4021 -0.3137 0
M  V30 7 C -1.2051 0.7501 0.1246 0
M  V30 8 C 3.6012 0.6807 -0.6032 0
M  V30 9 C -1.2116 -0.6643 0.1979 0
M  V30 10 C 3.5947 -0.7145 -0.5309 0
M  V30 11 C -2.4087 1.4581 0.2717 0
M  V30 12 C -2.4217 -1.342 0.4166 0
M  V30 13 C -3.6061 0.7705 0.489 0
M  V30 14 C -3.6126 -0.6247 0.5613 0
M  V30 15 H 0.0058 2.5158 -0.1497 0
M  V30 16 H 2.4352 2.4797 -0.5175 0
M  V30 17 H -0.0171 -2.4599 0.1077 0
M  V30 18 H 2.4122 -2.4843 -0.2607 0
M  V30 19 H 4.5315 1.2077 -0.7715 0
M  V30 20 H 4.52 -1.2645 -0.6437 0
M  V30 21 H -2.4236 2.5403 0.2187 0
M  V30 22 H -2.4465 -2.4237 0.4755 0
M  V30 23 H -4.5315 1.3206 0.6018 0
M  V30 24 H -4.5429 -1.1516 0.7297 0
M  V30 END ATOM
M  V30 BEGIN BOND
M  V30 1 1 1 2
M  V30 2 1 1 3
M  V30 3 2 1 4
M  V30 4 1 2 5
M  V30 5 2 2 6
M  V30 6 2 3 7
M  V30 7 1 4 8
M  V30 8 2 5 9
M  V30 9 1 6 10
M  V30 10 1 7 11
M  V30 11 1 9 12
M  V30 12 2 11 13
M  V30 13 2 12 14
M  V30 14 1 7 9
M  V30 15 2 8 10
M  V30 16 1 13 14
M  V30 17 1 3 15
M  V30 18 1 4 16
M  V30 19 1 5 17
M  V30 20 1 6 18
M  V30 21 1 8 19
M  V30 22 1 10 20
M  V30 23 1 11 21
M  V30 24 1 12 22
M  V30 25 1 13 23
M  V30 26 1 14 24
M  V30 END BOND
M  V30 END CTAB
M  END
>  <Structure No>
2940

>  <LogS>
-6.44481058

>  <MMFF94 Energy>
43.283

$$$$
Compound 2941
Actelion Java MolfileCreator 2.0

  0  0  0  0  0  0              0 V3000
M  V30 BEGIN CTAB
M  V30 COUNTS 78 84 0 0 0
M  V30 BEGIN ATOM
M  V30 1 Cl -1.4255 1.8451 0.7545 0
M  V30 2 C -0.8204 0.2821 0.2183 0
M  V30 3 C -1.693 -0.7523 -0.1706 0
M  V30 4 C 0.5647 0.0863 0.1718 0
M  V30 5 N -3.1199 -0.5699 -0.099 0
M  V30 6 C -1.1493 -1.9855 -0.5702 0
M  V30 7 C 1.1079 -1.1305 -0.2788 0
M  V30 8 C -4.0519 -1.2129 -0.9842 0
M  V30 9 C 0.234 -2.1747 -0.633 0
M  V30 10 N 2.5322 -1.3415 -0.3038 0
M  V30 11 O -3.6579 -1.6594 -2.0982 0
M  V30 12 C -5.4965 -1.2522 -0.6607 0
M  V30 13 Cl 0.839 -3.7314 -1.1898 0
M  V30 14 C 3.496 -0.3576 -0.7149 0
M  V30 15 C -5.97 -1.4807 0.6523 0
M  V30 16 C -6.4189 -1.0123 -1.69 0
M  V30 17 O 3.1372 0.8136 -1.0109 0
M  V30 18 C 4.9213 -0.7286 -0.8325 0
M  V30 19 O -5.1139 -1.8476 1.6938 0
M  V30 20 C -7.3374 -1.3516 0.9406 0
M  V30 21 C -7.7922 -0.9607 -1.4277 0
M  V30 22 C 5.9216 0.0554 -0.2278 0
M  V30 23 C 5.2671 -1.8967 -1.5209 0
M  V30 24 N -7.7655 -1.4627 2.3095 0
M  V30 25 C -8.2646 -1.1263 -0.1031 0
M  V30 26 C -8.7026 -0.7374 -2.4753 0
M  V30 27 O 5.5183 1.1412 0.5571 0
M  V30 28 C 7.2894 -0.3051 -0.3723 0
M  V30 29 C 6.6033 -2.2899 -1.6349 0
M  V30 30 N -8.2958 -0.5087 2.9776 0
M  V30 31 C -9.6547 -1.091 0.1333 0
M  V30 32 C -10.0739 -0.6963 -2.2187 0
M  V30 33 N 8.348 0.4894 0.1872 0
M  V30 34 C 7.6256 -1.494 -1.0622 0
M  V30 35 C 6.9333 -3.4662 -2.3273 0
M  V30 36 C -8.4401 0.8448 2.5116 0
M  V30 37 C -10.5486 -0.874 -0.9185 0
M  V30 38 N 8.2972 1.7576 0.2531 0
M  V30 39 C 8.9689 -1.9 -1.2147 0
M  V30 40 C 8.2675 -3.8536 -2.4595 0
M  V30 41 C -9.661 1.5185 2.693 0
M  V30 42 C -7.3528 1.5309 1.939 0
M  V30 43 C 9.3314 2.5677 0.8356 0
M  V30 44 C 9.2812 -3.0714 -1.9071 0
M  V30 45 Cl -11.0319 0.7098 3.4413 0
M  V30 46 C -9.8061 2.8371 2.2448 0
M  V30 47 C -7.5023 2.8475 1.4922 0
M  V30 48 C 10.4987 2.0386 1.4494 0
M  V30 49 C 9.1467 3.9579 0.8115 0
M  V30 50 C -8.7315 3.4967 1.6399 0
M  V30 51 Cl -6.1468 3.6857 0.754 0
M  V30 52 Cl 10.8432 0.3145 1.5686 0
M  V30 53 C 11.4369 2.9116 2.0158 0
M  V30 54 C 10.0901 4.8172 1.3821 0
M  V30 55 C 11.2345 4.2926 1.9844 0
M  V30 56 Cl 9.8356 6.5534 1.3398 0
M  V30 57 H 1.2115 0.8817 0.5127 0
M  V30 58 H -3.5072 0.0932 0.6077 0
M  V30 59 H -1.7986 -2.8149 -0.8179 0
M  V30 60 H 2.8886 -2.3025 -0.0998 0
M  V30 61 H -6.063 -0.8477 -2.7019 0
M  V30 62 H -4.1503 -2.1198 1.5528 0
M  V30 63 H 4.4903 -2.4974 -1.9798 0
M  V30 64 H -8.3527 -0.6019 -3.4918 0
M  V30 65 H 6.1175 1.6117 1.2225 0
M  V30 66 H -10.0625 -1.2492 1.1236 0
M  V30 67 H -10.7716 -0.5318 -3.0304 0
M  V30 68 H 6.161 -4.0847 -2.7689 0
M  V30 69 H -11.6121 -0.8555 -0.7245 0
M  V30 70 H 9.7829 -1.3152 -0.8049 0
M  V30 71 H 8.516 -4.759 -2.9968 0
M  V30 72 H -6.3878 1.0507 1.8522 0
M  V30 73 H 10.3141 -3.3732 -2.019 0
M  V30 74 H -10.7517 3.3519 2.3653 0
M  V30 75 H 8.2575 4.3717 0.3508 0
M  V30 76 H -8.8529 4.5133 1.2948 0
M  V30 77 H 12.3273 2.5172 2.4879 0
M  V30 78 H 11.9679 4.9547 2.4267 0
M  V30 END ATOM
M  V30 BEGIN BOND
M  V30 1 1 1 2
M  V30 2 2 2 3
M  V30 3 1 2 4
M  V30 4 1 3 5
M  V30 5 1 3 6
M  V30 6 2 4 7
M  V30 7 1 5 8
M  V30 8 2 6 9
M  V30 9 1 7 10
M  V30 10 2 8 11
M  V30 11 1 8 12
M  V30 12 1 9 13
M  V30 13 1 10 14
M  V30 14 1 12 15
M  V30 15 2 12 16
M  V30 16 2 14 17
M  V30 17 1 14 18
M  V30 18 1 15 19
M  V30 19 2 15 20
M  V30 20 1 16 21
M  V30 21 1 18 22
M  V30 22 2 18 23
M  V30 23 1 20 24
M  V30 24 1 20 25
M  V30 25 2 21 26
M  V30 26 1 22 27
M  V30 27 2 22 28
M  V30 28 1 23 29
M  V30 29 2 24 30
M  V30 30 2 25 31
M  V30 31 1 26 32
M  V30 32 1 28 33
M  V30 33 1 28 34
M  V30 34 2 29 35
M  V30 35 1 30 36
M  V30 36 1 31 37
M  V30 37 2 33 38
M  V30 38 2 34 39
M  V30 39 1 35 40
M  V30 40 2 36 41
M  V30 41 1 36 42
M  V30 42 1 38 43
M  V30 43 1 39 44
M  V30 44 1 41 45
M  V30 45 1 41 46
M  V30 46 2 42 47
M  V30 47 2 43 48
M  V30 48 1 43 49
M  V30 49 2 46 50
M  V30 50 1 47 51
M  V30 51 1 48 52
M  V30 52 1 48 53
M  V30 53 2 49 54
M  V30 54 2 53 55
M  V30 55 1 54 56
M  V30 56 1 7 9
M  V30 57 1 21 25
M  V30 58 1 29 34
M  V30 59 2 32 37
M  V30 60 2 40 44
M  V30 61 1 47 50
M  V30 62 1 54 55
M  V30 63 1 4 57
M  V30 64 1 5 58
M  V30 65 1 6 59
M  V30 66 1 10 60
M  V30 67 1 16 61
M  V30 68 1 19 62
M  V30 69 1 23 63
M  V30 70 1 26 64
M  V30 71 1 27 65
M  V30 72 1 31 66
M  V30 73 1 32 67
M  V30 74 1 35 68
M  V30 75 1 37 69
M  V30 76 1 39 70
M  V30 77 1 40 71
M  V30 78 1 42 72
M  V30 79 1 44 73
M  V30 80 1 46 74
M  V30 81 1 49 75
M  V30 82 1 50 76
M  V30 83 1 53 77
M  V30 84 1 55 78
M  V30 END BOND
M  V30 END CTAB
M  END
>  <Structure No>
2941

>  <LogS>
-8.150868125

>  <MMFF94 Energy>
165.64

$$$$
Compound 2942
Actelion Java MolfileCreator 2.0

  0  0  0  0  0  0              0 V3000
M  V30 BEGIN CTAB
M  V30 COUNTS 39 38 0 0 0
M  V30 BEGIN ATOM
M  V30 1 S 3.9464 2.7612 -1.0249 0
M  V30 2 C 4.3643 1.7975 0.4648 0
M  V30 3 C 4.5225 0.302 0.1564 0
M  V30 4 C 3.2317 -0.3793 -0.3323 0
M  V30 5 C 2.1394 -0.4301 0.7507 0
M  V30 6 C 0.9765 -1.3633 0.3776 0
M  V30 7 C 0.1033 -0.7933 -0.753 0
M  V30 8 C -1.0494 -1.7333 -1.1501 0
M  V30 9 C -2.076 -2.024 -0.036 0
M  V30 10 C -2.7152 -0.7779 0.6022 0
M  V30 11 C -3.4876 0.0807 -0.4137 0
M  V30 12 C -4.3125 1.1881 0.2592 0
M  V30 13 C -3.4399 2.2863 0.8665 0
M  V30 14 H 5.1841 2.4961 -1.6412 0
M  V30 15 H 3.587 1.9604 1.2387 0
M  V30 16 H 5.3229 2.1842 0.8711 0
M  V30 17 H 5.3072 0.1778 -0.6209 0
M  V30 18 H 4.8869 -0.2163 1.0698 0
M  V30 19 H 3.492 -1.4176 -0.6326 0
M  V30 20 H 2.8534 0.1423 -1.2354 0
M  V30 21 H 1.7415 0.5892 0.9428 0
M  V30 22 H 2.5867 -0.8037 1.6979 0
M  V30 23 H 1.3698 -2.3624 0.0891 0
M  V30 24 H 0.3538 -1.4947 1.2875 0
M  V30 25 H -0.2927 0.2037 -0.4671 0
M  V30 26 H 0.7293 -0.6454 -1.6576 0
M  V30 27 H -1.5759 -1.2997 -2.0268 0
M  V30 28 H -0.6199 -2.7006 -1.4905 0
M  V30 29 H -1.5947 -2.6284 0.7615 0
M  V30 30 H -2.8824 -2.6596 -0.4625 0
M  V30 31 H -3.4195 -1.1258 1.3891 0
M  V30 32 H -1.9349 -0.1739 1.1087 0
M  V30 33 H -4.186 -0.5724 -0.9811 0
M  V30 34 H -2.7853 0.5401 -1.1419 0
M  V30 35 H -4.9675 0.7546 1.0458 0
M  V30 36 H -4.9707 1.6508 -0.5077 0
M  V30 37 H -2.8591 1.8957 1.7275 0
M  V30 38 H -4.0868 3.1114 1.2323 0
M  V30 39 H -2.7428 2.6954 0.1047 0
M  V30 END ATOM
M  V30 BEGIN BOND
M  V30 1 1 1 2
M  V30 2 1 2 3
M  V30 3 1 3 4
M  V30 4 1 4 5
M  V30 5 1 5 6
M  V30 6 1 6 7
M  V30 7 1 7 8
M  V30 8 1 8 9
M  V30 9 1 9 10
M  V30 10 1 10 11
M  V30 11 1 11 12
M  V30 12 1 12 13
M  V30 13 1 1 14
M  V30 14 1 2 15
M  V30 15 1 2 16
M  V30 16 1 3 17
M  V30 17 1 3 18
M  V30 18 1 4 19
M  V30 19 1 4 20
M  V30 20 1 5 21
M  V30 21 1 5 22
M  V30 22 1 6 23
M  V30 23 1 6 24
M  V30 24 1 7 25
M  V30 25 1 7 26
M  V30 26 1 8 27
M  V30 27 1 8 28
M  V30 28 1 9 29
M  V30 29 1 9 30
M  V30 30 1 10 31
M  V30 31 1 10 32
M  V30 32 1 11 33
M  V30 33 1 11 34
M  V30 34 1 12 35
M  V30 35 1 12 36
M  V30 36 1 13 37
M  V30 37 1 13 38
M  V30 38 1 13 39
M  V30 END BOND
M  V30 END CTAB
M  END
>  <Structure No>
2942

>  <LogS>
-7.573831768

>  <MMFF94 Energy>
1.557

$$$$
Compound 2943
Actelion Java MolfileCreator 2.0

  0  0  0  0  0  0              0 V3000
M  V30 BEGIN CTAB
M  V30 COUNTS 24 26 0 0 0
M  V30 BEGIN ATOM
M  V30 1 O 0.3263 2.5316 0.8161 0
M  V30 2 C 0.1808 1.3371 0.4362 0
M  V30 3 C -1.1801 0.7763 0.2643 0
M  V30 4 C 1.3712 0.4977 0.1631 0
M  V30 5 C -1.343 -0.5604 -0.1606 0
M  V30 6 C -2.3173 1.5644 0.521 0
M  V30 7 C 1.2083 -0.839 -0.2619 0
M  V30 8 C 2.668 1.02 0.3231 0
M  V30 9 C -0.1526 -1.3999 -0.4338 0
M  V30 10 C -2.6399 -1.0827 -0.3205 0
M  V30 11 C -3.598 1.032 0.3578 0
M  V30 12 C 2.3455 -1.6271 -0.5184 0
M  V30 13 C 3.787 0.2256 0.0646 0
M  V30 14 O -0.2981 -2.5944 -0.8136 0
M  V30 15 C -3.759 -0.2883 -0.0619 0
M  V30 16 C 3.6261 -1.0946 -0.3551 0
M  V30 17 H -2.2176 2.5919 0.8479 0
M  V30 18 H 2.8178 2.0421 0.6479 0
M  V30 19 H -2.7897 -2.1047 -0.6453 0
M  V30 20 H -4.4677 1.645 0.5573 0
M  V30 21 H 2.2456 -2.6545 -0.8452 0
M  V30 22 H 4.7811 0.6351 0.1901 0
M  V30 23 H -4.7531 -0.6975 -0.1875 0
M  V30 24 H 4.4957 -1.7075 -0.5545 0
M  V30 END ATOM
M  V30 BEGIN BOND
M  V30 1 2 1 2
M  V30 2 1 2 3
M  V30 3 1 2 4
M  V30 4 2 3 5
M  V30 5 1 3 6
M  V30 6 2 4 7
M  V30 7 1 4 8
M  V30 8 1 5 9
M  V30 9 1 5 10
M  V30 10 2 6 11
M  V30 11 1 7 12
M  V30 12 2 8 13
M  V30 13 2 9 14
M  V30 14 2 10 15
M  V30 15 2 12 16
M  V30 16 1 7 9
M  V30 17 1 11 15
M  V30 18 1 13 16
M  V30 19 1 6 17
M  V30 20 1 8 18
M  V30 21 1 10 19
M  V30 22 1 11 20
M  V30 23 1 12 21
M  V30 24 1 13 22
M  V30 25 1 15 23
M  V30 26 1 16 24
M  V30 END BOND
M  V30 END CTAB
M  END
>  <Structure No>
2943

>  <LogS>
-6.039760498

>  <MMFF94 Energy>
63.789

$$$$
Compound 2944
Actelion Java MolfileCreator 2.0

  0  0  0  0  0  0              0 V3000
M  V30 BEGIN CTAB
M  V30 COUNTS 43 44 0 0 0
M  V30 BEGIN ATOM
M  V30 1 S -7.5339 1.4869 -1.2389 0
M  V30 2 O -8.4888 1.5078 -0.0791 0
M  V30 3 O -8.0761 0.5931 -2.319 0
M  V30 4 O -7.371 3.0402 -1.8592 0 CHG=-1
M  V30 5 C -5.967 0.8935 -0.6992 0
M  V30 6 C -5.6829 -0.4766 -0.7283 0
M  V30 7 C -5.0081 1.7888 -0.2196 0
M  V30 8 C -4.4356 -0.9656 -0.294 0
M  V30 9 C -3.772 1.3214 0.2268 0
M  V30 10 N -4.1674 -2.381 -0.3544 0 CHG=1
M  V30 11 C -3.4736 -0.0524 0.1997 0
M  V30 12 O -5.1084 -3.198 -0.4335 0
M  V30 13 O -2.8784 -2.8541 -0.4378 0 CHG=-1
M  V30 14 N -2.2191 -0.527 0.7051 0 CHG=-1
M  V30 15 N -1.2488 0.3362 1.2359 0
M  V30 16 C -0.1083 -0.0704 1.7088 0
M  V30 17 C 0.3157 -1.4892 1.7475 0
M  V30 18 O -0.4221 -2.4037 1.2925 0
M  V30 19 C 1.6636 -1.8476 2.2954 0
M  V30 20 C 2.7153 -1.6166 1.2545 0
M  V30 21 O 3.038 -2.5593 0.4816 0
M  V30 22 N 3.337 -0.3274 1.1334 0
M  V30 23 C 4.14 0.0659 0.0058 0
M  V30 24 C 5.2897 0.8708 0.188 0
M  V30 25 C 3.7541 -0.296 -1.2981 0
M  V30 26 C 6.0267 1.2888 -0.9336 0
M  V30 27 C 5.7284 1.2985 1.5625 0
M  V30 28 C 4.5028 0.1184 -2.4011 0
M  V30 29 C 5.637 0.9092 -2.2192 0
M  V30 30 H -6.4321 -1.1633 -1.1011 0
M  V30 31 H -5.2197 2.8499 -0.1822 0
M  V30 32 H -3.0521 2.0367 0.6022 0
M  V30 33 H 0.5736 0.6747 2.0971 0
M  V30 34 H 1.6734 -2.9147 2.6077 0
M  V30 35 H 1.8802 -1.2378 3.1989 0
M  V30 36 H 3.2186 0.347 1.9224 0
M  V30 37 H 2.856 -0.8761 -1.4657 0
M  V30 38 H 6.9057 1.9104 -0.8143 0
M  V30 39 H 5.0251 2.0613 1.9572 0
M  V30 40 H 5.7466 0.4241 2.2466 0
M  V30 41 H 6.7493 1.7366 1.5461 0
M  V30 42 H 4.195 -0.1636 -3.3998 0
M  V30 43 H 6.2107 1.2356 -3.0768 0
M  V30 END ATOM
M  V30 BEGIN BOND
M  V30 1 2 1 2
M  V30 2 2 1 3
M  V30 3 1 1 4
M  V30 4 1 1 5
M  V30 5 2 5 6
M  V30 6 1 5 7
M  V30 7 1 6 8
M  V30 8 2 7 9
M  V30 9 1 8 10
M  V30 10 2 8 11
M  V30 11 2 10 12
M  V30 12 1 10 13
M  V30 13 1 11 14
M  V30 14 1 14 15
M  V30 15 2 15 16
M  V30 16 1 16 17
M  V30 17 2 17 18
M  V30 18 1 17 19
M  V30 19 1 19 20
M  V30 20 2 20 21
M  V30 21 1 20 22
M  V30 22 1 22 23
M  V30 23 2 23 24
M  V30 24 1 23 25
M  V30 25 1 24 26
M  V30 26 1 24 27
M  V30 27 2 25 28
M  V30 28 2 26 29
M  V30 29 1 9 11
M  V30 30 1 28 29
M  V30 31 1 6 30
M  V30 32 1 7 31
M  V30 33 1 9 32
M  V30 34 1 16 33
M  V30 35 1 19 34
M  V30 36 1 19 35
M  V30 37 1 22 36
M  V30 38 1 25 37
M  V30 39 1 26 38
M  V30 40 1 27 39
M  V30 41 1 27 40
M  V30 42 1 27 41
M  V30 43 1 28 42
M  V30 44 1 29 43
M  V30 END BOND
M  V30 END CTAB
M  END
>  <Structure No>
2944

>  <LogS>
-7.739803669

>  <MMFF94 Energy>
117.15

$$$$
Compound 2945
Actelion Java MolfileCreator 2.0

  0  0  0  0  0  0              0 V3000
M  V30 BEGIN CTAB
M  V30 COUNTS 33 32 0 0 0
M  V30 BEGIN ATOM
M  V30 1 O 3.5842 -0.934 1.3234 0
M  V30 2 C 3.2041 0.1294 0.7622 0
M  V30 3 O 4.1284 1.0388 0.2295 0
M  V30 4 C 1.7427 0.436 0.6727 0
M  V30 5 C 5.4798 0.768 -0.0334 0
M  V30 6 C 1.1618 -0.1213 -0.6333 0
M  V30 7 C 5.9329 -0.4425 -0.3593 0
M  V30 8 C -0.3021 0.2922 -0.8577 0
M  V30 9 C -1.2717 -0.421 0.1089 0
M  V30 10 C -2.7855 -0.1598 -0.1569 0
M  V30 11 C -3.1123 1.3464 -0.0765 0
M  V30 12 C -3.2127 -0.7071 -1.5361 0
M  V30 13 C -3.5981 -0.8949 0.9304 0
M  V30 14 H 1.6023 1.538 0.7105 0
M  V30 15 H 1.226 -0.0113 1.5481 0
M  V30 16 H 6.1794 1.5935 -0.0116 0
M  V30 17 H 1.7617 0.2681 -1.4858 0
M  V30 18 H 1.2473 -1.2303 -0.6428 0
M  V30 19 H 5.2698 -1.2893 -0.4662 0
M  V30 20 H 6.9858 -0.5848 -0.5654 0
M  V30 21 H -0.559 0.0299 -1.9042 0
M  V30 22 H -0.3879 1.3943 -0.7503 0
M  V30 23 H -1.0812 -1.5163 0.0591 0
M  V30 24 H -1.0375 -0.0962 1.1456 0
M  V30 25 H -2.7496 1.775 0.8826 0
M  V30 26 H -4.2096 1.5123 -0.1404 0
M  V30 27 H -2.6437 1.9047 -0.9139 0
M  V30 28 H -4.3165 -0.6479 -1.6545 0
M  V30 29 H -2.9076 -1.7698 -1.6478 0
M  V30 30 H -2.7637 -0.1194 -2.3633 0
M  V30 31 H -3.3314 -0.5192 1.9422 0
M  V30 32 H -3.3957 -1.9876 0.8999 0
M  V30 33 H -4.6893 -0.7414 0.7831 0
M  V30 END ATOM
M  V30 BEGIN BOND
M  V30 1 2 1 2
M  V30 2 1 2 3
M  V30 3 1 2 4
M  V30 4 1 3 5
M  V30 5 1 4 6
M  V30 6 2 5 7
M  V30 7 1 6 8
M  V30 8 1 8 9
M  V30 9 1 9 10
M  V30 10 1 10 11
M  V30 11 1 10 12
M  V30 12 1 10 13
M  V30 13 1 4 14
M  V30 14 1 4 15
M  V30 15 1 5 16
M  V30 16 1 6 17
M  V30 17 1 6 18
M  V30 18 1 7 19
M  V30 19 1 7 20
M  V30 20 1 8 21
M  V30 21 1 8 22
M  V30 22 1 9 23
M  V30 23 1 9 24
M  V30 24 1 11 25
M  V30 25 1 11 26
M  V30 26 1 11 27
M  V30 27 1 12 28
M  V30 28 1 12 29
M  V30 29 1 12 30
M  V30 30 1 13 31
M  V30 31 1 13 32
M  V30 32 1 13 33
M  V30 END BOND
M  V30 END CTAB
M  END
>  <Structure No>
2945

>  <LogS>
-7.122461047

>  <MMFF94 Energy>
29.845

$$$$
Compound 2946
Actelion Java MolfileCreator 2.0

  0  0  0  0  0  0              0 V3000
M  V30 BEGIN CTAB
M  V30 COUNTS 104 109 0 0 0
M  V30 BEGIN ATOM
M  V30 1 O -4.6512 -3.6876 -2.083 0
M  V30 2 C -4.0043 -2.7923 -1.2101 0
M  V30 3 C -2.9825 -3.2584 -0.3564 0
M  V30 4 C -4.4342 -1.4767 -1.0899 0
M  V30 5 C -2.0591 -2.3423 0.1672 0
M  V30 6 C -2.9409 -4.6984 0.1695 0
M  V30 7 C -3.6134 -0.5661 -0.3838 0
M  V30 8 C -2.3091 -0.959 -0.0476 0
M  V30 9 C -4.2927 -5.4982 0.2234 0
M  V30 10 C -1.6877 -5.4401 -0.3926 0
M  V30 11 C -4.1187 0.8446 -0.258 0
M  V30 12 C -1.1394 0.022 0.042 0
M  V30 13 C -4.3213 -6.8319 -0.5172 0
M  V30 14 C -1.9291 -6.7561 -1.0959 0
M  V30 15 C -1.1016 1.1391 1.1584 0
M  V30 16 C 0.2534 -0.586 -0.3345 0
M  V30 17 C -2.9781 -7.5489 -0.3355 0
M  V30 18 C -1.7346 1.1297 2.4286 0
M  V30 19 C -0.4166 2.2701 0.7582 0
M  V30 20 C 1.1409 -0.9908 0.8913 0 CFG=2
M  V30 21 C -1.9182 2.3359 3.1165 0
M  V30 22 C -2.4329 -0.1098 2.9078 0
M  V30 23 C -0.7438 3.5497 1.3056 0
M  V30 24 C 2.3688 -0.0771 0.9714 0
M  V30 25 C 1.634 -2.4726 0.9837 0
M  V30 26 C -1.4289 3.5329 2.5737 0
M  V30 27 C -0.6917 4.8152 0.3702 0
M  V30 28 C 2.6447 0.6825 2.0893 0
M  V30 29 C 3.272 -0.0394 -0.1123 0
M  V30 30 O -1.6638 4.7073 3.3392 0
M  V30 31 C -0.4072 4.4997 -1.1216 0
M  V30 32 C -2.0314 5.6566 0.5117 0
M  V30 33 C 3.5353 1.7728 2.0046 0
M  V30 34 C 1.9938 0.5028 3.4261 0
M  V30 35 C 4.2452 0.9962 -0.2032 0
M  V30 36 C -1.6798 3.8812 -1.7362 0
M  V30 37 C -2.6693 6.078 -0.8264 0
M  V30 38 C 4.3551 1.8726 0.9082 0
M  V30 39 C 5.2126 1.1416 -1.3924 0
M  V30 40 C -2.8621 4.8611 -1.7454 0
M  V30 41 O 5.2822 2.9201 0.9621 0
M  V30 42 C 6.6714 0.745 -0.913 0
M  V30 43 C 4.7111 0.6634 -2.783 0
M  V30 44 C 7.5977 0.0805 -1.898 0
M  V30 45 C 5.794 -0.1208 -3.5561 0
M  V30 46 C 7.173 0.449 -3.3007 0
M  V30 47 H -5.4552 -3.3909 -2.6557 0
M  V30 48 H -5.3809 -1.1892 -1.496 0
M  V30 49 H -1.179 -2.7022 0.676 0
M  V30 50 H -2.7237 -4.5451 1.2409 0
M  V30 51 H -4.571 -5.6812 1.271 0
M  V30 52 H -5.1447 -4.8814 -0.0891 0
M  V30 53 H -1.1406 -4.7793 -1.0754 0
M  V30 54 H -0.9879 -5.6711 0.4449 0
M  V30 55 H -3.4877 1.4874 0.3702 0
M  V30 56 H -5.0669 0.7269 0.357 0
M  V30 57 H -4.2025 1.3034 -1.278 0
M  V30 58 H -1.3644 0.6288 -0.8514 0
M  V30 59 H -5.1739 -7.4361 -0.1352 0
M  V30 60 H -4.5225 -6.6274 -1.5853 0
M  V30 61 H -0.9888 -7.3612 -1.1541 0
M  V30 62 H -2.2915 -6.5889 -2.1349 0
M  V30 63 H 0.708 0.1975 -0.9666 0
M  V30 64 H 0.0918 -1.4393 -1.0196 0
M  V30 65 H -3.072 -8.5483 -0.7302 0
M  V30 66 H -2.7409 -7.645 0.7415 0
M  V30 67 H 0.2229 2.1711 -0.0845 0
M  V30 68 H 0.4681 -0.7913 1.7749 0
M  V30 69 H -2.5635 2.3637 3.9262 0
M  V30 70 H -1.9488 -1.0209 2.5802 0
M  V30 71 H -2.6089 -0.0947 3.9897 0
M  V30 72 H -3.4474 -0.1291 2.4275 0
M  V30 73 H 1.2753 -2.8799 1.9514 0
M  V30 74 H 2.74 -2.5738 0.9752 0
M  V30 75 H 1.158 -3.0559 0.1366 0
M  V30 76 H 0.1495 5.4661 0.7609 0
M  V30 77 H 3.1449 -0.7526 -0.8932 0
M  V30 78 H -1.3821 5.6255 2.98 0
M  V30 79 H 0.5149 3.8938 -1.315 0
M  V30 80 H -0.1631 5.4043 -1.6536 0
M  V30 81 H -2.8273 5.0843 1.0142 0
M  V30 82 H -1.852 6.5748 1.0903 0
M  V30 83 H 3.4149 2.5807 2.6481 0
M  V30 84 H 2.7067 0.8067 4.2342 0
M  V30 85 H 1.0458 1.1377 3.5478 0
M  V30 86 H 1.6867 -0.5613 3.6052 0
M  V30 87 H -2.0165 3.0212 -1.1248 0
M  V30 88 H -1.4928 3.429 -2.7537 0
M  V30 89 H -3.6242 6.5825 -0.6669 0
M  V30 90 H -1.9979 6.7995 -1.3424 0
M  V30 91 H 5.3871 2.2147 -1.5136 0
M  V30 92 H -3.7574 4.3126 -1.3942 0
M  V30 93 H -3.0988 5.186 -2.8045 0
M  V30 94 H 5.6005 3.2923 1.857 0
M  V30 95 H 7.2111 1.6468 -0.559 0
M  V30 96 H 6.6949 0.0062 -0.0573 0
M  V30 97 H 3.8694 -0.0283 -2.75 0
M  V30 98 H 4.426 1.6012 -3.4099 0
M  V30 99 H 7.5913 -1.0276 -1.7123 0
M  V30 100 H 8.6216 0.4244 -1.7024 0
M  V30 101 H 5.8499 -1.1627 -3.3057 0
M  V30 102 H 5.5679 -0.0688 -4.6678 0
M  V30 103 H 7.3052 1.5427 -3.4039 0
M  V30 104 H 7.899 0.0533 -3.9774 0
M  V30 END ATOM
M  V30 BEGIN BOND
M  V30 1 1 1 2
M  V30 2 2 2 3
M  V30 3 1 2 4
M  V30 4 1 3 5
M  V30 5 1 3 6
M  V30 6 2 4 7
M  V30 7 2 5 8
M  V30 8 1 6 9
M  V30 9 1 6 10
M  V30 10 1 7 11
M  V30 11 1 8 12
M  V30 12 1 9 13
M  V30 13 1 10 14
M  V30 14 1 12 15
M  V30 15 1 12 16
M  V30 16 1 13 17
M  V30 17 2 15 18
M  V30 18 1 15 19
M  V30 19 1 16 20
M  V30 20 1 18 21
M  V30 21 1 18 22
M  V30 22 2 19 23
M  V30 23 1 20 24
M  V30 24 1 20 25
M  V30 25 2 21 26
M  V30 26 1 23 27
M  V30 27 2 24 28
M  V30 28 1 24 29
M  V30 29 1 26 30
M  V30 30 1 27 31
M  V30 31 1 27 32
M  V30 32 1 28 33
M  V30 33 1 28 34
M  V30 34 2 29 35
M  V30 35 1 31 36
M  V30 36 1 32 37
M  V30 37 2 33 38
M  V30 38 1 35 39
M  V30 39 1 36 40
M  V30 40 1 38 41
M  V30 41 1 39 42
M  V30 42 1 39 43
M  V30 43 1 42 44
M  V30 44 1 43 45
M  V30 45 1 44 46
M  V30 46 1 7 8
M  V30 47 1 14 17
M  V30 48 1 23 26
M  V30 49 1 35 38
M  V30 50 1 37 40
M  V30 51 1 45 46
M  V30 52 1 1 47
M  V30 53 1 4 48
M  V30 54 1 5 49
M  V30 55 1 6 50
M  V30 56 1 9 51
M  V30 57 1 9 52
M  V30 58 1 10 53
M  V30 59 1 10 54
M  V30 60 1 11 55
M  V30 61 1 11 56
M  V30 62 1 11 57
M  V30 63 1 12 58
M  V30 64 1 13 59
M  V30 65 1 13 60
M  V30 66 1 14 61
M  V30 67 1 14 62
M  V30 68 1 16 63
M  V30 69 1 16 64
M  V30 70 1 17 65
M  V30 71 1 17 66
M  V30 72 1 19 67
M  V30 73 1 20 68
M  V30 74 1 21 69
M  V30 75 1 22 70
M  V30 76 1 22 71
M  V30 77 1 22 72
M  V30 78 1 25 73
M  V30 79 1 25 74
M  V30 80 1 25 75
M  V30 81 1 27 76
M  V30 82 1 29 77
M  V30 83 1 30 78
M  V30 84 1 31 79
M  V30 85 1 31 80
M  V30 86 1 32 81
M  V30 87 1 32 82
M  V30 88 1 33 83
M  V30 89 1 34 84
M  V30 90 1 34 85
M  V30 91 1 34 86
M  V30 92 1 36 87
M  V30 93 1 36 88
M  V30 94 1 37 89
M  V30 95 1 37 90
M  V30 96 1 39 91
M  V30 97 1 40 92
M  V30 98 1 40 93
M  V30 99 1 41 94
M  V30 100 1 42 95
M  V30 101 1 42 96
M  V30 102 1 43 97
M  V30 103 1 43 98
M  V30 104 1 44 99
M  V30 105 1 44 100
M  V30 106 1 45 101
M  V30 107 1 45 102
M  V30 108 1 46 103
M  V30 109 1 46 104
M  V30 END BOND
M  V30 BEGIN COLLECTION
M  V30 MDLV30/STEABS ATOMS=(1 20)
M  V30 END COLLECTION
M  V30 END CTAB
M  END
>  <Structure No>
2946

>  <LogS>
-7.396502027

>  <MMFF94 Energy>
86.462

$$$$
Compound 2947
Actelion Java MolfileCreator 2.0

  0  0  0  0  0  0              0 V3000
M  V30 BEGIN CTAB
M  V30 COUNTS 24 24 0 0 0
M  V30 BEGIN ATOM
M  V30 1 F -0.9017 2.9778 0.1803 0
M  V30 2 C -0.4989 1.6621 0.347 0
M  V30 3 F -0.4859 1.4308 1.7081 0
M  V30 4 C -1.5411 0.7547 -0.3388 0
M  V30 5 C 0.9175 1.5174 -0.2596 0
M  V30 6 F -2.7368 0.8518 0.3544 0
M  V30 7 F -1.7725 1.2568 -1.6114 0
M  V30 8 C -1.1139 -0.7389 -0.469 0 CFG=1
M  V30 9 F 0.8998 2.0966 -1.5205 0
M  V30 10 F 1.8116 2.2485 0.5069 0
M  V30 11 C 1.4193 0.0478 -0.3989 0 CFG=1
M  V30 12 F -1.9644 -1.305 -1.4103 0
M  V30 13 C 0.3224 -0.8438 -1.0695 0
M  V30 14 C -1.3487 -1.5781 0.822 0
M  V30 15 F 2.4632 0.084 -1.3169 0
M  V30 16 C 2.0591 -0.5163 0.9196 0
M  V30 17 F 0.7335 -2.165 -1.1211 0
M  V30 18 F 0.2298 -0.4382 -2.3948 0
M  V30 19 F -0.9297 -2.8832 0.6372 0
M  V30 20 F -2.7017 -1.6201 1.112 0
M  V30 21 F -0.7 -1.0659 1.9195 0
M  V30 22 F 1.9381 -1.8901 1.0118 0
M  V30 23 F 3.4121 -0.2191 0.9381 0
M  V30 24 F 1.5227 0.0416 2.0605 0
M  V30 END ATOM
M  V30 BEGIN BOND
M  V30 1 1 1 2
M  V30 2 1 2 3
M  V30 3 1 2 4
M  V30 4 1 2 5
M  V30 5 1 4 6
M  V30 6 1 4 7
M  V30 7 1 4 8
M  V30 8 1 5 9
M  V30 9 1 5 10
M  V30 10 1 5 11
M  V30 11 1 8 12
M  V30 12 1 8 13
M  V30 13 1 8 14
M  V30 14 1 11 15
M  V30 15 1 11 16
M  V30 16 1 13 17
M  V30 17 1 13 18
M  V30 18 1 14 19
M  V30 19 1 14 20
M  V30 20 1 14 21
M  V30 21 1 16 22
M  V30 22 1 16 23
M  V30 23 1 16 24
M  V30 24 1 11 13
M  V30 END BOND
M  V30 BEGIN COLLECTION
M  V30 MDLV30/STEABS ATOMS=(2 8 11)
M  V30 END COLLECTION
M  V30 END CTAB
M  END
>  <Structure No>
2947

>  <LogS>
-7.602120788

>  <MMFF94 Energy>
-102.56

$$$$
Compound 2948
Actelion Java MolfileCreator 2.0

  0  0  0  0  0  0              0 V3000
M  V30 BEGIN CTAB
M  V30 COUNTS 28 29 0 0 0
M  V30 BEGIN ATOM
M  V30 1 F -3.6296 1.4507 -0.3625 0
M  V30 2 C -2.5151 0.8353 0.1859 0
M  V30 3 F -2.625 0.9517 1.563 0
M  V30 4 C -2.503 -0.6589 -0.2373 0
M  V30 5 C -1.2566 1.5756 -0.2883 0
M  V30 6 F -3.2965 -1.3641 0.6552 0
M  V30 7 F -3.0871 -0.7805 -1.4893 0
M  V30 8 C -1.0828 -1.3023 -0.2872 0
M  V30 9 F -1.3029 1.6006 -1.6735 0
M  V30 10 F -1.3357 2.892 0.1399 0
M  V30 11 C 0.0815 0.9356 0.2504 0 CFG=2
M  V30 12 F -1.2079 -2.6362 0.0673 0
M  V30 13 F -0.6085 -1.2655 -1.5856 0
M  V30 14 C -0.0915 -0.5768 0.669 0 CFG=1
M  V30 15 F 0.4237 1.6218 1.4099 0
M  V30 16 C 1.2456 1.1787 -0.7701 0
M  V30 17 F -0.6933 -0.6079 1.9216 0
M  V30 18 C 1.2796 -1.3055 0.8878 0
M  V30 19 F 1.4783 2.5421 -0.8629 0
M  V30 20 F 0.9234 0.7262 -2.0394 0
M  V30 21 C 2.5527 0.4958 -0.355 0
M  V30 22 F 1.1017 -2.6765 0.962 0
M  V30 23 F 1.7916 -0.9079 2.1154 0
M  V30 24 C 2.3462 -1.0128 -0.1767 0
M  V30 25 F 3.0287 1.0573 0.8197 0
M  V30 26 F 3.5035 0.7042 -1.3411 0
M  V30 27 F 1.9917 -1.5977 -1.3807 0
M  V30 28 F 3.5451 -1.5786 0.2261 0
M  V30 END ATOM
M  V30 BEGIN BOND
M  V30 1 1 1 2
M  V30 2 1 2 3
M  V30 3 1 2 4
M  V30 4 1 2 5
M  V30 5 1 4 6
M  V30 6 1 4 7
M  V30 7 1 4 8
M  V30 8 1 5 9
M  V30 9 1 5 10
M  V30 10 1 5 11
M  V30 11 1 8 12
M  V30 12 1 8 13
M  V30 13 1 8 14
M  V30 14 1 11 15
M  V30 15 1 11 16
M  V30 16 1 14 17
M  V30 17 1 14 18
M  V30 18 1 16 19
M  V30 19 1 16 20
M  V30 20 1 16 21
M  V30 21 1 18 22
M  V30 22 1 18 23
M  V30 23 1 18 24
M  V30 24 1 21 25
M  V30 25 1 21 26
M  V30 26 1 24 27
M  V30 27 1 24 28
M  V30 28 1 11 14
M  V30 29 1 21 24
M  V30 END BOND
M  V30 BEGIN COLLECTION
M  V30 MDLV30/STEABS ATOMS=(2 11 14)
M  V30 END COLLECTION
M  V30 END CTAB
M  END
>  <Structure No>
2948

>  <LogS>
-7.664711532

>  <MMFF94 Energy>
1.2704

$$$$
Compound 2949
Actelion Java MolfileCreator 2.0

  0  0  0  0  0  0              0 V3000
M  V30 BEGIN CTAB
M  V30 COUNTS 26 25 0 0 0
M  V30 BEGIN ATOM
M  V30 1 F -4.569 0.8947 -0.7157 0
M  V30 2 C -4.2565 0.4782 0.5662 0
M  V30 3 F -4.7162 1.4269 1.4623 0
M  V30 4 F -4.9038 -0.7168 0.827 0
M  V30 5 C -2.7349 0.3188 0.7275 0
M  V30 6 F -2.1682 1.5771 0.6095 0
M  V30 7 F -2.4827 -0.1629 2.0015 0
M  V30 8 C -2.118 -0.6311 -0.3366 0
M  V30 9 F -2.8889 -1.7799 -0.4225 0
M  V30 10 F -2.1583 -0.0109 -1.5755 0
M  V30 11 C -0.6598 -1.083 -0.0436 0
M  V30 12 F -0.6522 -1.8553 1.1075 0
M  V30 13 F -0.2721 -1.9002 -1.0936 0
M  V30 14 C 0.3672 0.0757 0.1144 0
M  V30 15 F 0.1506 0.6994 1.3321 0
M  V30 16 F 0.1791 1.0025 -0.8984 0
M  V30 17 C 1.8378 -0.426 0.0663 0
M  V30 18 F 2.1005 -0.9245 -1.1999 0
M  V30 19 F 1.9978 -1.4524 0.9838 0
M  V30 20 C 2.8598 0.6987 0.3854 0
M  V30 21 F 2.6686 1.1482 1.6821 0
M  V30 22 F 2.6688 1.7645 -0.4786 0
M  V30 23 C 4.3193 0.2298 0.2552 0
M  V30 24 F 4.5955 -0.1541 -1.045 0
M  V30 25 F 4.5689 -0.8325 1.1056 0
M  V30 26 F 5.166 1.2704 0.5928 0
M  V30 END ATOM
M  V30 BEGIN BOND
M  V30 1 1 1 2
M  V30 2 1 2 3
M  V30 3 1 2 4
M  V30 4 1 2 5
M  V30 5 1 5 6
M  V30 6 1 5 7
M  V30 7 1 5 8
M  V30 8 1 8 9
M  V30 9 1 8 10
M  V30 10 1 8 11
M  V30 11 1 11 12
M  V30 12 1 11 13
M  V30 13 1 11 14
M  V30 14 1 14 15
M  V30 15 1 14 16
M  V30 16 1 14 17
M  V30 17 1 17 18
M  V30 18 1 17 19
M  V30 19 1 17 20
M  V30 20 1 20 21
M  V30 21 1 20 22
M  V30 22 1 20 23
M  V30 23 1 23 24
M  V30 24 1 23 25
M  V30 25 1 23 26
M  V30 END BOND
M  V30 END CTAB
M  END
>  <Structure No>
2949

>  <LogS>
-7.641525668

>  <MMFF94 Energy>
69.702

$$$$
Compound 2950
Actelion Java MolfileCreator 2.0

  0  0  0  0  0  0              0 V3000
M  V30 BEGIN CTAB
M  V30 COUNTS 42 45 0 0 0
M  V30 BEGIN ATOM
M  V30 1 S -3.4723 -1.354 -0.1691 0
M  V30 2 C -2.1068 -0.7707 0.6445 0
M  V30 3 C -4.2789 0.1079 -0.0064 0
M  V30 4 S -0.6484 -1.75 1.0341 0
M  V30 5 N -2.2648 0.5084 1.0643 0
M  V30 6 C -3.4736 0.9965 0.6882 0
M  V30 7 C -5.55 0.457 -0.4554 0
M  V30 8 N 0.3736 -1.3699 -0.3988 0
M  V30 9 C -3.9221 2.2898 0.9615 0
M  V30 10 C -6.0112 1.7561 -0.1883 0
M  V30 11 S 0.0832 0.2566 -1.0751 0
M  V30 12 C 0.4546 -2.4556 -1.4136 0
M  V30 13 C -5.2009 2.6687 0.517 0
M  V30 14 C 1.4026 0.9679 -0.1064 0
M  V30 15 C -0.9098 -2.7217 -2.0808 0
M  V30 16 C 0.9541 -3.7565 -0.744 0
M  V30 17 C 1.487 -2.0812 -2.5037 0
M  V30 18 S 1.1921 1.6456 1.4299 0
M  V30 19 N 2.6895 1.0103 -0.5256 0
M  V30 20 C 2.8255 2.0081 1.561 0
M  V30 21 C 3.4798 1.5927 0.4112 0
M  V30 22 C 3.4989 2.6217 2.6142 0
M  V30 23 C 4.8561 1.7817 0.2756 0
M  V30 24 C 4.8835 2.8173 2.4888 0
M  V30 25 C 5.5592 2.3992 1.3247 0
M  V30 26 H -6.1651 -0.2512 -0.9948 0
M  V30 27 H -3.2989 2.9891 1.5042 0
M  V30 28 H -6.9944 2.0579 -0.5251 0
M  V30 29 H -5.5658 3.6674 0.7187 0
M  V30 30 H -1.3394 -1.7871 -2.4982 0
M  V30 31 H -1.6256 -3.1557 -1.3538 0
M  V30 32 H -0.8 -3.4515 -2.9117 0
M  V30 33 H 1.1314 -4.5504 -1.5015 0
M  V30 34 H 1.9056 -3.5689 -0.201 0
M  V30 35 H 0.2113 -4.1553 -0.0216 0
M  V30 36 H 1.677 -2.9391 -3.1848 0
M  V30 37 H 2.4508 -1.7848 -2.0362 0
M  V30 38 H 1.127 -1.2411 -3.1342 0
M  V30 39 H 2.9711 2.9394 3.5041 0
M  V30 40 H 5.3739 1.4598 -0.6187 0
M  V30 41 H 5.4347 3.2914 3.2906 0
M  V30 42 H 6.6268 2.5541 1.2379 0
M  V30 END ATOM
M  V30 BEGIN BOND
M  V30 1 1 1 2
M  V30 2 1 1 3
M  V30 3 1 2 4
M  V30 4 2 2 5
M  V30 5 2 3 6
M  V30 6 1 3 7
M  V30 7 1 4 8
M  V30 8 1 6 9
M  V30 9 2 7 10
M  V30 10 1 8 11
M  V30 11 1 8 12
M  V30 12 2 9 13
M  V30 13 1 11 14
M  V30 14 1 12 15
M  V30 15 1 12 16
M  V30 16 1 12 17
M  V30 17 1 14 18
M  V30 18 2 14 19
M  V30 19 1 18 20
M  V30 20 1 19 21
M  V30 21 1 20 22
M  V30 22 1 21 23
M  V30 23 2 22 24
M  V30 24 2 23 25
M  V30 25 1 5 6
M  V30 26 1 10 13
M  V30 27 2 20 21
M  V30 28 1 24 25
M  V30 29 1 7 26
M  V30 30 1 9 27
M  V30 31 1 10 28
M  V30 32 1 13 29
M  V30 33 1 15 30
M  V30 34 1 15 31
M  V30 35 1 15 32
M  V30 36 1 16 33
M  V30 37 1 16 34
M  V30 38 1 16 35
M  V30 39 1 17 36
M  V30 40 1 17 37
M  V30 41 1 17 38
M  V30 42 1 22 39
M  V30 43 1 23 40
M  V30 44 1 24 41
M  V30 45 1 25 42
M  V30 END BOND
M  V30 END CTAB
M  END
>  <Structure No>
2950

>  <LogS>
-8.362937857

>  <MMFF94 Energy>
60.941

$$$$
Compound 2951
Actelion Java MolfileCreator 2.0

  0  0  0  0  0  0              0 V3000
M  V30 BEGIN CTAB
M  V30 COUNTS 66 66 0 0 0
M  V30 BEGIN ATOM
M  V30 1 O -3.0775 -2.6826 1.814 0
M  V30 2 C -2.5125 -2.1655 0.811 0
M  V30 3 O -3.0097 -2.3978 -0.4763 0
M  V30 4 C -1.3203 -1.3084 0.9905 0
M  V30 5 C -4.254 -3.04 -0.758 0
M  V30 6 C -0.8002 -1.0586 2.2715 0
M  V30 7 C -0.6997 -0.7165 -0.1218 0
M  V30 8 C -5.4037 -2.0143 -0.9115 0 CFG=2
M  V30 9 C 0.3116 -0.2265 2.4367 0
M  V30 10 C 0.4153 0.1115 0.0426 0
M  V30 11 C -5.0119 -0.9394 -1.9573 0
M  V30 12 C -5.8185 -1.3721 0.4365 0
M  V30 13 C 0.9285 0.3702 1.324 0
M  V30 14 C -6.1938 -0.0569 -2.4219 0
M  V30 15 C -6.4403 -2.3725 1.4136 0
M  V30 16 C 2.0933 1.2659 1.4946 0
M  V30 17 C -6.0745 1.386 -1.9075 0
M  V30 18 O 2.471 1.5998 2.6519 0
M  V30 19 O 2.7669 1.749 0.3657 0
M  V30 20 C -7.2605 2.2325 -2.3625 0
M  V30 21 C 3.9138 2.596 0.431 0
M  V30 22 C 5.169 1.8126 0.8834 0 CFG=1
M  V30 23 C 5.4771 0.6666 -0.1164 0
M  V30 24 C 6.3854 2.7649 1.0139 0
M  V30 25 C 6.3026 -0.463 0.5276 0
M  V30 26 C 6.3194 3.6451 2.2648 0
M  V30 27 C 6.6107 -1.6005 -0.4596 0
M  V30 28 C 7.7329 -1.2392 -1.4338 0
M  V30 29 H -4.1437 -3.5825 -1.7207 0
M  V30 30 H -4.4842 -3.8185 -0.0028 0
M  V30 31 H -1.2568 -1.5015 3.1474 0
M  V30 32 H -1.0787 -0.888 -1.1208 0
M  V30 33 H -6.2817 -2.5697 -1.3129 0
M  V30 34 H 0.6868 -0.0489 3.4369 0
M  V30 35 H 0.8681 0.5593 -0.8333 0
M  V30 36 H -4.1818 -0.3147 -1.5588 0
M  V30 37 H -4.6076 -1.4587 -2.8561 0
M  V30 38 H -6.592 -0.5978 0.2529 0
M  V30 39 H -4.9551 -0.8641 0.916 0
M  V30 40 H -7.1656 -0.4926 -2.1019 0
M  V30 41 H -6.2063 -0.0286 -3.5337 0
M  V30 42 H -6.8348 -1.8239 2.2971 0
M  V30 43 H -5.6898 -3.1054 1.7763 0
M  V30 44 H -7.2825 -2.9151 0.9314 0
M  V30 45 H -5.1393 1.8454 -2.2996 0
M  V30 46 H -6.0279 1.3986 -0.7982 0
M  V30 47 H -7.156 3.2642 -1.9666 0
M  V30 48 H -7.2933 2.2836 -3.4709 0
M  V30 49 H -8.2104 1.8005 -1.9873 0
M  V30 50 H 3.6975 3.441 1.1173 0
M  V30 51 H 4.0887 3.0237 -0.5786 0
M  V30 52 H 4.9577 1.3654 1.8798 0
M  V30 53 H 6.0028 1.0821 -1.0023 0
M  V30 54 H 4.5304 0.2145 -0.4815 0
M  V30 55 H 7.3264 2.1792 1.0773 0
M  V30 56 H 6.4657 3.4101 0.1101 0
M  V30 57 H 7.2544 -0.0738 0.9426 0
M  V30 58 H 5.7199 -0.8865 1.3737 0
M  V30 59 H 5.4602 4.344 2.2241 0
M  V30 60 H 6.2432 3.013 3.1727 0
M  V30 61 H 7.2468 4.2501 2.338 0
M  V30 62 H 6.9308 -2.4936 0.1202 0
M  V30 63 H 5.6946 -1.8812 -1.0261 0
M  V30 64 H 7.4378 -0.3893 -2.0825 0
M  V30 65 H 7.9496 -2.1124 -2.0837 0
M  V30 66 H 8.6566 -0.9726 -0.8769 0
M  V30 END ATOM
M  V30 BEGIN BOND
M  V30 1 2 1 2
M  V30 2 1 2 3
M  V30 3 1 2 4
M  V30 4 1 3 5
M  V30 5 2 4 6
M  V30 6 1 4 7
M  V30 7 1 5 8
M  V30 8 1 6 9
M  V30 9 2 7 10
M  V30 10 1 8 11
M  V30 11 1 8 12
M  V30 12 2 9 13
M  V30 13 1 11 14
M  V30 14 1 12 15
M  V30 15 1 13 16
M  V30 16 1 14 17
M  V30 17 2 16 18
M  V30 18 1 16 19
M  V30 19 1 17 20
M  V30 20 1 19 21
M  V30 21 1 21 22
M  V30 22 1 22 23
M  V30 23 1 22 24
M  V30 24 1 23 25
M  V30 25 1 24 26
M  V30 26 1 25 27
M  V30 27 1 27 28
M  V30 28 1 10 13
M  V30 29 1 5 29
M  V30 30 1 5 30
M  V30 31 1 6 31
M  V30 32 1 7 32
M  V30 33 1 8 33
M  V30 34 1 9 34
M  V30 35 1 10 35
M  V30 36 1 11 36
M  V30 37 1 11 37
M  V30 38 1 12 38
M  V30 39 1 12 39
M  V30 40 1 14 40
M  V30 41 1 14 41
M  V30 42 1 15 42
M  V30 43 1 15 43
M  V30 44 1 15 44
M  V30 45 1 17 45
M  V30 46 1 17 46
M  V30 47 1 20 47
M  V30 48 1 20 48
M  V30 49 1 20 49
M  V30 50 1 21 50
M  V30 51 1 21 51
M  V30 52 1 22 52
M  V30 53 1 23 53
M  V30 54 1 23 54
M  V30 55 1 24 55
M  V30 56 1 24 56
M  V30 57 1 25 57
M  V30 58 1 25 58
M  V30 59 1 26 59
M  V30 60 1 26 60
M  V30 61 1 26 61
M  V30 62 1 27 62
M  V30 63 1 27 63
M  V30 64 1 28 64
M  V30 65 1 28 65
M  V30 66 1 28 66
M  V30 END BOND
M  V30 BEGIN COLLECTION
M  V30 MDLV30/STEABS ATOMS=(2 8 22)
M  V30 END COLLECTION
M  V30 END CTAB
M  END
>  <Structure No>
2951

>  <LogS>
-8.989632219

>  <MMFF94 Energy>
54.846

$$$$
Compound 2952
Actelion Java MolfileCreator 2.0

  0  0  0  0  0  0              0 V3000
M  V30 BEGIN CTAB
M  V30 COUNTS 31 30 0 0 0
M  V30 BEGIN ATOM
M  V30 1 O 3.4469 2.114 -0.1564 0
M  V30 2 C 3.2115 1.2544 -1.0457 0
M  V30 3 O 2.5188 1.6251 -2.1916 0 CHG=-1
M  V30 4 C 3.7073 -0.1508 -0.8885 0
M  V30 5 C 2.563 -1.1807 -0.8806 0
M  V30 6 C 1.9624 -1.4377 0.5151 0
M  V30 7 C 1.1937 -0.2537 1.1326 0
M  V30 8 C 0.0106 0.2702 0.2981 0
M  V30 9 C -1.09 -0.7842 0.0927 0
M  V30 10 C -2.3041 -0.228 -0.6688 0
M  V30 11 C -3.183 0.6827 0.2012 0
M  V30 12 C -4.44 1.1124 -0.5497 0
M  V30 13 H 4.3229 -0.2452 0.0326 0
M  V30 14 H 4.3746 -0.3668 -1.7502 0
M  V30 15 H 2.9855 -2.1476 -1.2309 0
M  V30 16 H 1.7729 -0.9143 -1.6139 0
M  V30 17 H 2.7817 -1.7227 1.2104 0
M  V30 18 H 1.2913 -2.3204 0.4581 0
M  V30 19 H 0.8116 -0.5695 2.1279 0
M  V30 20 H 1.8983 0.5809 1.3242 0
M  V30 21 H -0.4112 1.1402 0.8427 0
M  V30 22 H 0.3642 0.6455 -0.6836 0
M  V30 23 H -1.4141 -1.1965 1.0731 0
M  V30 24 H -0.678 -1.622 -0.5084 0
M  V30 25 H -2.917 -1.0902 -1.0125 0
M  V30 26 H -1.9632 0.323 -1.5728 0
M  V30 27 H -3.4854 0.1439 1.1254 0
M  V30 28 H -2.6217 1.595 0.4922 0
M  V30 29 H -5.049 0.2248 -0.8242 0
M  V30 30 H -5.0519 1.7752 0.0978 0
M  V30 31 H -4.167 1.6695 -1.4711 0
M  V30 END ATOM
M  V30 BEGIN BOND
M  V30 1 2 1 2
M  V30 2 1 2 3
M  V30 3 1 2 4
M  V30 4 1 4 5
M  V30 5 1 5 6
M  V30 6 1 6 7
M  V30 7 1 7 8
M  V30 8 1 8 9
M  V30 9 1 9 10
M  V30 10 1 10 11
M  V30 11 1 11 12
M  V30 12 1 4 13
M  V30 13 1 4 14
M  V30 14 1 5 15
M  V30 15 1 5 16
M  V30 16 1 6 17
M  V30 17 1 6 18
M  V30 18 1 7 19
M  V30 19 1 7 20
M  V30 20 1 8 21
M  V30 21 1 8 22
M  V30 22 1 9 23
M  V30 23 1 9 24
M  V30 24 1 10 25
M  V30 25 1 10 26
M  V30 26 1 11 27
M  V30 27 1 11 28
M  V30 28 1 12 29
M  V30 29 1 12 30
M  V30 30 1 12 31
M  V30 END BOND
M  V30 END CTAB
M  END
>  <Structure No>
2952

>  <LogS>
-6.655885563

>  <MMFF94 Energy>
1.3096

$$$$
Compound 2953
Actelion Java MolfileCreator 2.0

  0  0  0  0  0  0              0 V3000
M  V30 BEGIN CTAB
M  V30 COUNTS 108 114 0 0 0
M  V30 BEGIN ATOM
M  V30 1 Cl -0.4874 -2.1136 2.195 0
M  V30 2 C -0.4628 -0.6531 1.211 0
M  V30 3 C -1.5866 0.1929 1.1101 0
M  V30 4 C 0.7129 -0.3471 0.5173 0
M  V30 5 N -2.8164 -0.1482 1.7881 0
M  V30 6 C -1.5022 1.3318 0.2856 0
M  V30 7 C 0.8168 0.8216 -0.2587 0
M  V30 8 C -3.9003 0.7624 2.0404 0
M  V30 9 C -0.3137 1.6541 -0.3801 0
M  V30 10 N 2.0312 1.1278 -0.9772 0
M  V30 11 O -3.6611 1.9864 2.2217 0
M  V30 12 C -5.2936 0.2628 2.1807 0
M  V30 13 Cl -0.2733 3.122 -1.3497 0
M  V30 14 C 3.3479 0.7566 -0.5363 0
M  V30 15 C -5.7373 -0.8948 1.5039 0
M  V30 16 C -6.1958 0.9699 2.9921 0
M  V30 17 O 3.5269 0.3918 0.6584 0
M  V30 18 C 4.4922 0.7477 -1.4853 0
M  V30 19 O -4.8741 -1.555 0.6258 0
M  V30 20 C -7.0578 -1.361 1.6749 0
M  V30 21 C -7.4924 0.4892 3.2119 0
M  V30 22 C 5.83 0.9403 -1.051 0
M  V30 23 C 4.2515 0.4317 -2.836 0
M  V30 24 N -7.4835 -2.5178 0.9289 0
M  V30 25 C -7.9182 -0.7104 2.5919 0
M  V30 26 C -8.3609 1.1771 4.0764 0
M  V30 27 O 6.1367 1.384 0.2376 0
M  V30 28 C 6.8954 0.7094 -1.9397 0
M  V30 29 C 5.3102 0.2555 -3.7365 0
M  V30 30 N -8.4736 -2.5517 0.1189 0
M  V30 31 C -9.1807 -1.2381 2.9318 0
M  V30 32 C -9.6287 0.6635 4.355 0
M  V30 33 N 8.2397 0.7735 -1.4591 0
M  V30 34 C 6.6449 0.3612 -3.2818 0
M  V30 35 C 5.0529 -0.0725 -5.0781 0
M  V30 36 C -9.2952 -1.4256 -0.2369 0
M  V30 37 C -10.0308 -0.549 3.7965 0
M  V30 38 N 8.8011 1.8923 -1.2229 0
M  V30 39 C 7.6967 0.143 -4.193 0
M  V30 40 C 6.1069 -0.2952 -5.9664 0
M  V30 41 C -8.7799 -0.3011 -0.9228 0
M  V30 42 C -10.6649 -1.491 0.0542 0
M  V30 43 C 10.1579 1.9711 -0.7556 0
M  V30 44 C 7.4259 -0.1867 -5.5222 0
M  V30 45 C -9.6346 0.7748 -1.2042 0
M  V30 46 C -7.3495 -0.218 -1.3819 0
M  V30 47 C -11.5192 -0.4161 -0.2358 0
M  V30 48 C 10.7529 3.229 -0.5369 0
M  V30 49 C 10.9198 0.8038 -0.5571 0
M  V30 50 C -10.9882 0.725 -0.8565 0
M  V30 51 C -12.9504 -0.4819 0.1347 0
M  V30 52 C 12.0872 3.2991 -0.1004 0
M  V30 53 C 9.9762 4.4953 -0.765 0
M  V30 54 C 12.2632 0.877 -0.1493 0
M  V30 55 O -13.7385 0.4423 -0.2128 0
M  V30 56 O -13.4244 -1.5649 0.8882 0
M  V30 57 C 12.8355 2.1357 0.0877 0
M  V30 58 C 13.0715 -0.3533 -0.0156 0
M  V30 59 C -14.788 -1.7205 1.2767 0
M  V30 60 O 12.6071 -1.4602 -0.412 0
M  V30 61 O 14.3532 -0.2928 0.5456 0
M  V30 62 C -15.6231 -2.2079 0.0892 0
M  V30 63 C -14.8582 -2.7256 2.4259 0
M  V30 64 C 15.3326 -1.3123 0.3663 0
M  V30 65 C 15.9391 -1.2034 -1.0326 0
M  V30 66 C 16.4142 -1.1675 1.4372 0
M  V30 67 H 1.537 -1.0465 0.5683 0
M  V30 68 H -2.9392 -1.1209 2.1429 0
M  V30 69 H -2.3614 1.9699 0.1357 0
M  V30 70 H 1.9567 1.701 -1.8466 0
M  V30 71 H -5.8735 1.8803 3.4872 0
M  V30 72 H -5.1372 -2.3951 0.1257 0
M  V30 73 H 3.2373 0.2726 -3.1816 0
M  V30 74 H -8.0566 2.1066 4.5437 0
M  V30 75 H 5.4512 1.7699 0.8718 0
M  V30 76 H -9.5074 -2.1945 2.5492 0
M  V30 77 H -10.2952 1.1962 5.0238 0
M  V30 78 H 4.0374 -0.1748 -5.4375 0
M  V30 79 H -11.0035 -0.9603 4.0394 0
M  V30 80 H 8.735 0.2156 -3.8805 0
M  V30 81 H 5.9049 -0.5684 -6.9895 0
M  V30 82 H -11.0543 -2.3789 0.537 0
M  V30 83 H 8.2435 -0.3639 -6.2116 0
M  V30 84 H -9.2546 1.6589 -1.7028 0
M  V30 85 H -7.3018 0.2002 -2.4085 0
M  V30 86 H -6.8682 -1.2153 -1.4134 0
M  V30 87 H -6.7796 0.4529 -0.7065 0
M  V30 88 H 10.4701 -0.1639 -0.7379 0
M  V30 89 H -11.6188 1.575 -1.0847 0
M  V30 90 H 12.5581 4.2579 0.0797 0
M  V30 91 H 9.5335 4.4891 -1.785 0
M  V30 92 H 10.6244 5.3945 -0.6774 0
M  V30 93 H 9.1604 4.5712 -0.0188 0
M  V30 94 H 13.8682 2.2211 0.3994 0
M  V30 95 H -15.192 -0.7495 1.6414 0
M  V30 96 H -15.5955 -1.4589 -0.7296 0
M  V30 97 H -16.682 -2.3529 0.3948 0
M  V30 98 H -15.218 -3.1696 -0.2952 0
M  V30 99 H -15.9022 -2.8149 2.7954 0
M  V30 100 H -14.5072 -3.725 2.0861 0
M  V30 101 H -14.2124 -2.3858 3.2634 0
M  V30 102 H 14.8629 -2.3155 0.487 0
M  V30 103 H 16.4415 -0.2219 -1.154 0
M  V30 104 H 16.6804 -2.0143 -1.1991 0
M  V30 105 H 15.1427 -1.2961 -1.8029 0
M  V30 106 H 16.8688 -0.1541 1.3935 0
M  V30 107 H 17.2067 -1.9311 1.2845 0
M  V30 108 H 15.9628 -1.3066 2.4432 0
M  V30 END ATOM
M  V30 BEGIN BOND
M  V30 1 1 1 2
M  V30 2 2 2 3
M  V30 3 1 2 4
M  V30 4 1 3 5
M  V30 5 1 3 6
M  V30 6 2 4 7
M  V30 7 1 5 8
M  V30 8 2 6 9
M  V30 9 1 7 10
M  V30 10 2 8 11
M  V30 11 1 8 12
M  V30 12 1 9 13
M  V30 13 1 10 14
M  V30 14 1 12 15
M  V30 15 2 12 16
M  V30 16 2 14 17
M  V30 17 1 14 18
M  V30 18 1 15 19
M  V30 19 2 15 20
M  V30 20 1 16 21
M  V30 21 1 18 22
M  V30 22 2 18 23
M  V30 23 1 20 24
M  V30 24 1 20 25
M  V30 25 2 21 26
M  V30 26 1 22 27
M  V30 27 2 22 28
M  V30 28 1 23 29
M  V30 29 2 24 30
M  V30 30 2 25 31
M  V30 31 1 26 32
M  V30 32 1 28 33
M  V30 33 1 28 34
M  V30 34 2 29 35
M  V30 35 1 30 36
M  V30 36 1 31 37
M  V30 37 2 33 38
M  V30 38 2 34 39
M  V30 39 1 35 40
M  V30 40 2 36 41
M  V30 41 1 36 42
M  V30 42 1 38 43
M  V30 43 1 39 44
M  V30 44 1 41 45
M  V30 45 1 41 46
M  V30 46 2 42 47
M  V30 47 2 43 48
M  V30 48 1 43 49
M  V30 49 2 45 50
M  V30 50 1 47 51
M  V30 51 1 48 52
M  V30 52 1 48 53
M  V30 53 2 49 54
M  V30 54 2 51 55
M  V30 55 1 51 56
M  V30 56 2 52 57
M  V30 57 1 54 58
M  V30 58 1 56 59
M  V30 59 2 58 60
M  V30 60 1 58 61
M  V30 61 1 59 62
M  V30 62 1 59 63
M  V30 63 1 61 64
M  V30 64 1 64 65
M  V30 65 1 64 66
M  V30 66 1 7 9
M  V30 67 1 21 25
M  V30 68 1 29 34
M  V30 69 2 32 37
M  V30 70 2 40 44
M  V30 71 1 47 50
M  V30 72 1 54 57
M  V30 73 1 4 67
M  V30 74 1 5 68
M  V30 75 1 6 69
M  V30 76 1 10 70
M  V30 77 1 16 71
M  V30 78 1 19 72
M  V30 79 1 23 73
M  V30 80 1 26 74
M  V30 81 1 27 75
M  V30 82 1 31 76
M  V30 83 1 32 77
M  V30 84 1 35 78
M  V30 85 1 37 79
M  V30 86 1 39 80
M  V30 87 1 40 81
M  V30 88 1 42 82
M  V30 89 1 44 83
M  V30 90 1 45 84
M  V30 91 1 46 85
M  V30 92 1 46 86
M  V30 93 1 46 87
M  V30 94 1 49 88
M  V30 95 1 50 89
M  V30 96 1 52 90
M  V30 97 1 53 91
M  V30 98 1 53 92
M  V30 99 1 53 93
M  V30 100 1 57 94
M  V30 101 1 59 95
M  V30 102 1 62 96
M  V30 103 1 62 97
M  V30 104 1 62 98
M  V30 105 1 63 99
M  V30 106 1 63 100
M  V30 107 1 63 101
M  V30 108 1 64 102
M  V30 109 1 65 103
M  V30 110 1 65 104
M  V30 111 1 65 105
M  V30 112 1 66 106
M  V30 113 1 66 107
M  V30 114 1 66 108
M  V30 END BOND
M  V30 END CTAB
M  END
>  <Structure No>
2953

>  <LogS>
-7.007487981

>  <MMFF94 Energy>
164.75

$$$$
Compound 2954
Actelion Java MolfileCreator 2.0

  0  0  0  0  0  0              0 V3000
M  V30 BEGIN CTAB
M  V30 COUNTS 48 51 0 0 0
M  V30 BEGIN ATOM
M  V30 1 Cl 8.6336 2.4848 2.6506 0
M  V30 2 C 7.0567 1.9602 2.0758 0
M  V30 3 C 6.8353 1.6699 0.7199 0
M  V30 4 C 6.009 1.8326 2.9936 0
M  V30 5 Cl 8.1256 1.8172 -0.4657 0
M  V30 6 C 5.5683 1.2548 0.2944 0
M  V30 7 C 4.7421 1.4175 2.5699 0
M  V30 8 C 4.5128 1.1256 1.2158 0
M  V30 9 Cl 3.449 1.2714 3.7525 0
M  V30 10 N 3.2088 0.7005 0.7991 0
M  V30 11 N 2.9328 0.4514 -0.4172 0
M  V30 12 C 1.6282 0.023 -0.8392 0
M  V30 13 C 0.446 0.5208 -0.2314 0
M  V30 14 C 1.5299 -0.9366 -1.8711 0
M  V30 15 O 0.4865 1.5629 0.7005 0
M  V30 16 C -0.8092 -0.02 -0.5818 0
M  V30 17 C 0.2614 -1.4467 -2.2387 0
M  V30 18 C 2.6768 -1.4182 -2.5367 0
M  V30 19 C -2.0537 0.4683 0.0599 0
M  V30 20 C -0.8889 -0.9972 -1.5835 0
M  V30 21 C 0.1603 -2.4089 -3.2571 0
M  V30 22 C 2.5607 -2.375 -3.5478 0
M  V30 23 O -2.1816 1.6986 0.3068 0
M  V30 24 N -3.1214 -0.4434 0.3736 0
M  V30 25 C 1.3064 -2.8682 -3.9075 0
M  V30 26 C -4.347 -0.038 1.0084 0
M  V30 27 C -5.5896 -0.5319 0.5472 0
M  V30 28 C -4.3164 0.8088 2.131 0
M  V30 29 C -6.771 -0.1637 1.2139 0
M  V30 30 C -5.664 -1.4577 -0.6362 0
M  V30 31 C -5.4996 1.1747 2.7757 0
M  V30 32 C -6.7246 0.69 2.3177 0
M  V30 33 H 6.1794 2.0569 4.0393 0
M  V30 34 H 5.4108 1.0328 -0.7533 0
M  V30 35 H 1.2911 2.1584 0.8394 0
M  V30 36 H 3.666 -1.0577 -2.2843 0
M  V30 37 H -1.8559 -1.3826 -1.8855 0
M  V30 38 H -0.8045 -2.8068 -3.5484 0
M  V30 39 H 3.4468 -2.7357 -4.0538 0
M  V30 40 H -3.0237 -1.4465 0.1011 0
M  V30 41 H 1.2224 -3.6099 -4.6912 0
M  V30 42 H -3.3738 1.1663 2.5248 0
M  V30 43 H -7.7311 -0.5366 0.879 0
M  V30 44 H -5.2946 -2.4631 -0.3452 0
M  V30 45 H -6.7056 -1.5578 -1.0088 0
M  V30 46 H -5.0427 -1.0648 -1.4687 0
M  V30 47 H -5.4654 1.8261 3.6395 0
M  V30 48 H -7.6396 0.9703 2.8234 0
M  V30 END ATOM
M  V30 BEGIN BOND
M  V30 1 1 1 2
M  V30 2 2 2 3
M  V30 3 1 2 4
M  V30 4 1 3 5
M  V30 5 1 3 6
M  V30 6 2 4 7
M  V30 7 2 6 8
M  V30 8 1 7 9
M  V30 9 1 8 10
M  V30 10 2 10 11
M  V30 11 1 11 12
M  V30 12 2 12 13
M  V30 13 1 12 14
M  V30 14 1 13 15
M  V30 15 1 13 16
M  V30 16 1 14 17
M  V30 17 2 14 18
M  V30 18 1 16 19
M  V30 19 2 16 20
M  V30 20 2 17 21
M  V30 21 1 18 22
M  V30 22 2 19 23
M  V30 23 1 19 24
M  V30 24 1 21 25
M  V30 25 1 24 26
M  V30 26 2 26 27
M  V30 27 1 26 28
M  V30 28 1 27 29
M  V30 29 1 27 30
M  V30 30 2 28 31
M  V30 31 2 29 32
M  V30 32 1 7 8
M  V30 33 1 17 20
M  V30 34 2 22 25
M  V30 35 1 31 32
M  V30 36 1 4 33
M  V30 37 1 6 34
M  V30 38 1 15 35
M  V30 39 1 18 36
M  V30 40 1 20 37
M  V30 41 1 21 38
M  V30 42 1 22 39
M  V30 43 1 24 40
M  V30 44 1 25 41
M  V30 45 1 28 42
M  V30 46 1 29 43
M  V30 47 1 30 44
M  V30 48 1 30 45
M  V30 49 1 30 46
M  V30 50 1 31 47
M  V30 51 1 32 48
M  V30 END BOND
M  V30 END CTAB
M  END
>  <Structure No>
2954

>  <LogS>
-7.69430966

>  <MMFF94 Energy>
82.561

$$$$
Compound 2955
Actelion Java MolfileCreator 2.0

  0  0  0  0  0  0              0 V3000
M  V30 BEGIN CTAB
M  V30 COUNTS 40 41 0 0 0
M  V30 BEGIN ATOM
M  V30 1 Cl 7.0229 2.364 2.364 0
M  V30 2 C 5.7419 1.3867 1.6711 0
M  V30 3 C 4.4194 1.84 1.7037 0
M  V30 4 C 6.0398 0.1478 1.0955 0
M  V30 5 C 3.3965 1.0616 1.1532 0
M  V30 6 C 5.0189 -0.6328 0.5453 0
M  V30 7 C 3.6922 -0.1751 0.5509 0
M  V30 8 N 2.6584 -1.0085 0.0015 0
M  V30 9 C 1.5191 -0.5085 -0.7182 0
M  V30 10 O 1.4179 0.7202 -0.9822 0
M  V30 11 C 0.4572 -1.4344 -1.1743 0
M  V30 12 N -0.7944 -1.1777 -0.9324 0
M  V30 13 C 0.7904 -2.6644 -1.9273 0
M  V30 14 N -1.2066 -0.0454 -0.213 0 CHG=-1
M  V30 15 O -0.0793 -3.5693 -2.0461 0
M  V30 16 C 2.1349 -2.8759 -2.5565 0
M  V30 17 C -2.5847 0.2389 0.0562 0
M  V30 18 C -2.9463 1.398 0.7874 0
M  V30 19 C -3.5882 -0.6227 -0.4195 0
M  V30 20 N -1.9554 2.306 1.3153 0 CHG=1
M  V30 21 C -4.311 1.6694 1.0025 0
M  V30 22 C -4.9346 -0.341 -0.1894 0
M  V30 23 O -0.7606 1.9644 1.4322 0
M  V30 24 O -2.3283 3.551 1.7685 0 CHG=-1
M  V30 25 C -5.305 0.8147 0.5061 0
M  V30 26 C -6.7518 1.0976 0.7859 0
M  V30 27 H 4.1815 2.7907 2.1638 0
M  V30 28 H 7.0607 -0.2116 1.0752 0
M  V30 29 H 2.3765 1.4144 1.2246 0
M  V30 30 H 5.2614 -1.5913 0.1038 0
M  V30 31 H 2.7744 -2.0425 0.0895 0
M  V30 32 H 2.7942 -3.4299 -1.8571 0
M  V30 33 H 2.0259 -3.4722 -3.487 0
M  V30 34 H 2.6055 -1.9065 -2.823 0
M  V30 35 H -3.3325 -1.5167 -0.9731 0
M  V30 36 H -4.6057 2.5448 1.5681 0
M  V30 37 H -5.6895 -1.0245 -0.5582 0
M  V30 38 H -6.9379 2.1925 0.8102 0
M  V30 39 H -7.3991 0.6579 -0.0025 0
M  V30 40 H -7.0303 0.6608 1.7676 0
M  V30 END ATOM
M  V30 BEGIN BOND
M  V30 1 1 1 2
M  V30 2 2 2 3
M  V30 3 1 2 4
M  V30 4 1 3 5
M  V30 5 2 4 6
M  V30 6 2 5 7
M  V30 7 1 7 8
M  V30 8 1 8 9
M  V30 9 2 9 10
M  V30 10 1 9 11
M  V30 11 2 11 12
M  V30 12 1 11 13
M  V30 13 1 12 14
M  V30 14 2 13 15
M  V30 15 1 13 16
M  V30 16 1 14 17
M  V30 17 2 17 18
M  V30 18 1 17 19
M  V30 19 1 18 20
M  V30 20 1 18 21
M  V30 21 2 19 22
M  V30 22 2 20 23
M  V30 23 1 20 24
M  V30 24 2 21 25
M  V30 25 1 25 26
M  V30 26 1 6 7
M  V30 27 1 22 25
M  V30 28 1 3 27
M  V30 29 1 4 28
M  V30 30 1 5 29
M  V30 31 1 6 30
M  V30 32 1 8 31
M  V30 33 1 16 32
M  V30 34 1 16 33
M  V30 35 1 16 34
M  V30 36 1 19 35
M  V30 37 1 21 36
M  V30 38 1 22 37
M  V30 39 1 26 38
M  V30 40 1 26 39
M  V30 41 1 26 40
M  V30 END BOND
M  V30 END CTAB
M  END
>  <Structure No>
2955

>  <LogS>
-7.605298094

>  <MMFF94 Energy>
122.92

$$$$
Compound 2956
Actelion Java MolfileCreator 2.0

  0  0  0  0  0  0              0 V3000
M  V30 BEGIN CTAB
M  V30 COUNTS 75 79 0 0 0
M  V30 BEGIN ATOM
M  V30 1 Cl -8.8498 0.3237 -3.8898 0
M  V30 2 C -7.1568 -0.114 -3.6972 0
M  V30 3 C -6.5006 -0.8675 -4.68 0
M  V30 4 C -6.4759 0.2882 -2.545 0
M  V30 5 O -7.2287 -1.2807 -5.8087 0
M  V30 6 C -5.1396 -1.1877 -4.5065 0
M  V30 7 C -5.1277 -0.059 -2.3513 0
M  V30 8 C -6.7186 -2.1279 -6.8325 0
M  V30 9 C -4.4437 -0.7747 -3.3514 0
M  V30 10 N -4.4335 0.3417 -1.1561 0
M  V30 11 O -3.0832 -1.065 -3.1593 0
M  V30 12 C -4.9987 0.212 0.1614 0
M  V30 13 C -2.2532 -1.722 -4.1127 0
M  V30 14 O -6.1654 -0.2426 0.3138 0
M  V30 15 C -4.2346 0.6266 1.3564 0
M  V30 16 C -2.922 0.1668 1.611 0
M  V30 17 C -4.8617 1.4787 2.2757 0
M  V30 18 O -2.3156 -0.7815 0.7801 0
M  V30 19 C -2.2253 0.6248 2.7537 0
M  V30 20 C -4.2025 1.8942 3.4343 0
M  V30 21 N -0.8685 0.2227 3.0118 0
M  V30 22 C -2.8772 1.467 3.6824 0
M  V30 23 C -4.8492 2.7432 4.3478 0
M  V30 24 N -0.0704 -0.1393 2.0881 0
M  V30 25 C -2.2304 1.9023 4.8578 0
M  V30 26 C -4.1919 3.1645 5.505 0
M  V30 27 C 1.2808 -0.5416 2.3588 0
M  V30 28 C -2.8871 2.744 5.7597 0
M  V30 29 C 1.6979 -0.967 3.6401 0
M  V30 30 C 2.2062 -0.4921 1.3064 0
M  V30 31 O 0.7619 -1.0345 4.686 0
M  V30 32 C 3.045 -1.3233 3.8343 0
M  V30 33 C 3.5586 -0.8247 1.5042 0
M  V30 34 C 1.0622 -1.435 6.0178 0
M  V30 35 C 3.9627 -1.2539 2.7815 0
M  V30 36 C 4.5181 -0.6958 0.3715 0
M  V30 37 O 4.0652 -0.6707 -0.8069 0
M  V30 38 N 5.9412 -0.5925 0.5827 0
M  V30 39 C 6.8539 -0.0954 -0.4114 0
M  V30 40 C 6.4875 0.9335 -1.295 0
M  V30 41 C 8.1603 -0.5956 -0.456 0
M  V30 42 C 7.4021 1.4197 -2.2337 0
M  V30 43 C 9.0755 -0.112 -1.3949 0
M  V30 44 C 8.7029 0.8934 -2.3042 0
M  V30 45 C 9.6664 1.4265 -3.2995 0
M  V30 46 O 9.4657 2.5581 -3.8226 0
M  V30 47 N 10.8149 0.6743 -3.702 0
M  V30 48 H -6.9969 0.8849 -1.8045 0
M  V30 49 H -4.6273 -1.7637 -5.2623 0
M  V30 50 H -7.5163 -2.3056 -7.5828 0
M  V30 51 H -5.8589 -1.6376 -7.3389 0
M  V30 52 H -6.406 -3.1002 -6.4011 0
M  V30 53 H -3.4411 0.661 -1.2474 0
M  V30 54 H -1.2159 -1.7637 -3.72 0
M  V30 55 H -2.6097 -2.7585 -4.2839 0
M  V30 56 H -2.2448 -1.1575 -5.069 0
M  V30 57 H -5.8719 1.8241 2.081 0
M  V30 58 H -2.7937 -1.2408 0.0177 0
M  V30 59 H -5.859 3.0882 4.1644 0
M  V30 60 H -1.2177 1.5968 5.0901 0
M  V30 61 H -4.6954 3.819 6.2064 0
M  V30 62 H -2.3813 3.0701 6.658 0
M  V30 63 H 1.87 -0.1464 0.3374 0
M  V30 64 H 3.3987 -1.6632 4.7994 0
M  V30 65 H 0.137 -1.376 6.6297 0
M  V30 66 H 1.8185 -0.7537 6.4582 0
M  V30 67 H 1.4362 -2.4804 6.0286 0
M  V30 68 H 4.9788 -1.5572 2.984 0
M  V30 69 H 6.3656 -0.9579 1.4616 0
M  V30 70 H 5.5051 1.3842 -1.2425 0
M  V30 71 H 8.4678 -1.372 0.2335 0
M  V30 72 H 7.0905 2.2148 -2.9042 0
M  V30 73 H 10.0786 -0.5144 -1.3874 0
M  V30 74 H 10.8935 -0.3451 -3.5023 0
M  V30 75 H 11.5459 1.1132 -4.3049 0
M  V30 END ATOM
M  V30 BEGIN BOND
M  V30 1 1 1 2
M  V30 2 2 2 3
M  V30 3 1 2 4
M  V30 4 1 3 5
M  V30 5 1 3 6
M  V30 6 2 4 7
M  V30 7 1 5 8
M  V30 8 2 6 9
M  V30 9 1 7 10
M  V30 10 1 9 11
M  V30 11 1 10 12
M  V30 12 1 11 13
M  V30 13 2 12 14
M  V30 14 1 12 15
M  V30 15 1 15 16
M  V30 16 2 15 17
M  V30 17 1 16 18
M  V30 18 2 16 19
M  V30 19 1 17 20
M  V30 20 1 19 21
M  V30 21 1 19 22
M  V30 22 2 20 23
M  V30 23 2 21 24
M  V30 24 2 22 25
M  V30 25 1 23 26
M  V30 26 1 24 27
M  V30 27 1 25 28
M  V30 28 2 27 29
M  V30 29 1 27 30
M  V30 30 1 29 31
M  V30 31 1 29 32
M  V30 32 2 30 33
M  V30 33 1 31 34
M  V30 34 2 32 35
M  V30 35 1 33 36
M  V30 36 2 36 37
M  V30 37 1 36 38
M  V30 38 1 38 39
M  V30 39 2 39 40
M  V30 40 1 39 41
M  V30 41 1 40 42
M  V30 42 2 41 43
M  V30 43 2 42 44
M  V30 44 1 44 45
M  V30 45 2 45 46
M  V30 46 1 45 47
M  V30 47 1 7 9
M  V30 48 1 20 22
M  V30 49 2 26 28
M  V30 50 1 33 35
M  V30 51 1 43 44
M  V30 52 1 4 48
M  V30 53 1 6 49
M  V30 54 1 8 50
M  V30 55 1 8 51
M  V30 56 1 8 52
M  V30 57 1 10 53
M  V30 58 1 13 54
M  V30 59 1 13 55
M  V30 60 1 13 56
M  V30 61 1 17 57
M  V30 62 1 18 58
M  V30 63 1 23 59
M  V30 64 1 25 60
M  V30 65 1 26 61
M  V30 66 1 28 62
M  V30 67 1 30 63
M  V30 68 1 32 64
M  V30 69 1 34 65
M  V30 70 1 34 66
M  V30 71 1 34 67
M  V30 72 1 35 68
M  V30 73 1 38 69
M  V30 74 1 40 70
M  V30 75 1 41 71
M  V30 76 1 42 72
M  V30 77 1 43 73
M  V30 78 1 47 74
M  V30 79 1 47 75
M  V30 END BOND
M  V30 END CTAB
M  END
>  <Structure No>
2956

>  <LogS>
-7.866240199

>  <MMFF94 Energy>
115.08

$$$$
Compound 2957
Actelion Java MolfileCreator 2.0

  0  0  0  0  0  0              0 V3000
M  V30 BEGIN CTAB
M  V30 COUNTS 71 75 0 0 0
M  V30 BEGIN ATOM
M  V30 1 Cl 9.7416 1.3757 1.7806 0
M  V30 2 C 8.0921 1.0598 1.2624 0
M  V30 3 C 7.4628 -0.1467 1.5958 0
M  V30 4 C 7.4119 2.0309 0.5224 0
M  V30 5 O 8.1739 -1.0916 2.353 0
M  V30 6 C 6.1415 -0.3723 1.1672 0
M  V30 7 C 6.0919 1.8067 0.0902 0
M  V30 8 C 7.6587 -2.3562 2.7565 0
M  V30 9 C 5.461 0.5891 0.4003 0
M  V30 10 O 5.3822 2.7623 -0.6556 0
M  V30 11 N 4.1044 0.3679 -0.0216 0
M  V30 12 C 5.8968 4.0326 -1.0405 0
M  V30 13 C 3.6293 -0.8709 -0.5763 0
M  V30 14 O 4.3928 -1.8721 -0.6466 0
M  V30 15 C 2.2416 -0.9926 -1.0731 0
M  V30 16 C 1.6668 -0.0038 -1.8963 0
M  V30 17 C 1.5012 -2.1331 -0.7381 0
M  V30 18 O 2.4285 1.107 -2.2694 0
M  V30 19 C 0.338 -0.1417 -2.3487 0
M  V30 20 C 0.1999 -2.3092 -1.2211 0
M  V30 21 N -0.2433 0.9144 -3.1364 0
M  V30 22 C -0.3844 -1.3246 -2.0559 0
M  V30 23 C -0.5202 -3.4697 -0.894 0
M  V30 24 N -1.2798 1.5856 -2.8007 0
M  V30 25 C -1.6605 -1.5708 -2.603 0
M  V30 26 C -1.8014 -3.671 -1.4089 0
M  V30 27 C -1.9624 1.4528 -1.5438 0
M  V30 28 C -2.3658 -2.729 -2.2685 0
M  V30 29 C -1.3005 1.704 -0.3285 0
M  V30 30 C -3.316 1.0955 -1.5429 0
M  V30 31 O 0.0227 2.1706 -0.3609 0
M  V30 32 C -1.9903 1.5019 0.8809 0
M  V30 33 C -4.0098 0.9016 -0.3367 0
M  V30 34 C 0.7953 2.4875 0.7918 0
M  V30 35 C -3.3264 1.094 0.8757 0
M  V30 36 C -5.4265 0.4608 -0.3549 0
M  V30 37 O -5.9168 -0.007 -1.419 0
M  V30 38 N -6.2588 0.5989 0.8093 0
M  V30 39 C -7.4513 -0.1734 1.0331 0
M  V30 40 C -7.5784 -1.4874 0.5429 0
M  V30 41 C -8.492 0.371 1.8027 0
M  V30 42 C -8.7407 -2.2238 0.7914 0
M  V30 43 C -9.6526 -0.369 2.0493 0
M  V30 44 C -9.7785 -1.6641 1.5405 0
M  V30 45 H 7.9206 2.9559 0.2874 0
M  V30 46 H 5.6284 -1.28 1.4504 0
M  V30 47 H 8.4385 -2.8989 3.3294 0
M  V30 48 H 6.7706 -2.2166 3.4084 0
M  V30 49 H 7.3874 -2.9597 1.8648 0
M  V30 50 H 3.4496 1.1795 0.0136 0
M  V30 51 H 6.7892 3.9025 -1.6884 0
M  V30 52 H 6.1585 4.6276 -0.14 0
M  V30 53 H 5.1196 4.5794 -1.6125 0
M  V30 54 H 1.9467 -2.8914 -0.103 0
M  V30 55 H 2.0669 1.8471 -2.8581 0
M  V30 56 H -0.0891 -4.2246 -0.247 0
M  V30 57 H -2.1167 -0.8797 -3.2984 0
M  V30 58 H -2.3514 -4.5678 -1.1541 0
M  V30 59 H -3.351 -2.8997 -2.6831 0
M  V30 60 H -3.8164 0.9404 -2.4912 0
M  V30 61 H -1.5033 1.6592 1.8333 0
M  V30 62 H 0.2832 3.2679 1.3933 0
M  V30 63 H 1.7793 2.8837 0.4696 0
M  V30 64 H 0.9576 1.5752 1.4037 0
M  V30 65 H -3.8163 0.922 1.8248 0
M  V30 66 H -6.0478 1.3765 1.4749 0
M  V30 67 H -6.7748 -1.9526 -0.0116 0
M  V30 68 H -8.4062 1.373 2.2043 0
M  V30 69 H -8.8337 -3.2322 0.4093 0
M  V30 70 H -10.4535 0.0615 2.6365 0
M  V30 71 H -10.6767 -2.2369 1.7325 0
M  V30 END ATOM
M  V30 BEGIN BOND
M  V30 1 1 1 2
M  V30 2 2 2 3
M  V30 3 1 2 4
M  V30 4 1 3 5
M  V30 5 1 3 6
M  V30 6 2 4 7
M  V30 7 1 5 8
M  V30 8 2 6 9
M  V30 9 1 7 10
M  V30 10 1 9 11
M  V30 11 1 10 12
M  V30 12 1 11 13
M  V30 13 2 13 14
M  V30 14 1 13 15
M  V30 15 1 15 16
M  V30 16 2 15 17
M  V30 17 1 16 18
M  V30 18 2 16 19
M  V30 19 1 17 20
M  V30 20 1 19 21
M  V30 21 1 19 22
M  V30 22 2 20 23
M  V30 23 2 21 24
M  V30 24 2 22 25
M  V30 25 1 23 26
M  V30 26 1 24 27
M  V30 27 1 25 28
M  V30 28 2 27 29
M  V30 29 1 27 30
M  V30 30 1 29 31
M  V30 31 1 29 32
M  V30 32 2 30 33
M  V30 33 1 31 34
M  V30 34 2 32 35
M  V30 35 1 33 36
M  V30 36 2 36 37
M  V30 37 1 36 38
M  V30 38 1 38 39
M  V30 39 2 39 40
M  V30 40 1 39 41
M  V30 41 1 40 42
M  V30 42 2 41 43
M  V30 43 2 42 44
M  V30 44 1 7 9
M  V30 45 1 20 22
M  V30 46 2 26 28
M  V30 47 1 33 35
M  V30 48 1 43 44
M  V30 49 1 4 45
M  V30 50 1 6 46
M  V30 51 1 8 47
M  V30 52 1 8 48
M  V30 53 1 8 49
M  V30 54 1 11 50
M  V30 55 1 12 51
M  V30 56 1 12 52
M  V30 57 1 12 53
M  V30 58 1 17 54
M  V30 59 1 18 55
M  V30 60 1 23 56
M  V30 61 1 25 57
M  V30 62 1 26 58
M  V30 63 1 28 59
M  V30 64 1 30 60
M  V30 65 1 32 61
M  V30 66 1 34 62
M  V30 67 1 34 63
M  V30 68 1 34 64
M  V30 69 1 35 65
M  V30 70 1 38 66
M  V30 71 1 40 67
M  V30 72 1 41 68
M  V30 73 1 42 69
M  V30 74 1 43 70
M  V30 75 1 44 71
M  V30 END BOND
M  V30 END CTAB
M  END
>  <Structure No>
2957

>  <LogS>
-7.846560339

>  <MMFF94 Energy>
141.33

$$$$
Compound 2958
Actelion Java MolfileCreator 2.0

  0  0  0  0  0  0              0 V3000
M  V30 BEGIN CTAB
M  V30 COUNTS 43 45 0 0 0
M  V30 BEGIN ATOM
M  V30 1 O 8.0316 0.2402 -1.1214 0
M  V30 2 C 6.8011 0.4167 -0.9201 0
M  V30 3 N 5.9521 -0.5873 -0.5953 0
M  V30 4 N 6.2029 1.6289 -1.0051 0
M  V30 5 C 4.7654 0.0306 -0.4741 0
M  V30 6 C 4.917 1.3656 -0.7193 0
M  V30 7 C 3.5333 -0.5244 -0.1391 0
M  V30 8 C 3.8499 2.2546 -0.6431 0
M  V30 9 C 2.4147 0.3416 -0.0713 0
M  V30 10 C 2.5877 1.7304 -0.3074 0
M  V30 11 N 1.114 -0.1476 0.2939 0
M  V30 12 C 0.5817 -1.4149 -0.1286 0
M  V30 13 O 1.2329 -2.1521 -0.9166 0
M  V30 14 C -0.7486 -1.8628 0.342 0
M  V30 15 N -1.7956 -1.1012 0.2185 0
M  V30 16 C -0.92 -3.2055 0.9401 0
M  V30 17 N -1.7493 0.1627 -0.3878 0 CHG=-1
M  V30 18 O -2.0801 -3.6218 1.2067 0
M  V30 19 C 0.2501 -4.0974 1.2258 0
M  V30 20 C -2.8908 1.0203 -0.5212 0
M  V30 21 C -4.1795 0.6508 -0.0657 0
M  V30 22 C -2.7023 2.2691 -1.1279 0
M  V30 23 O -4.3693 -0.6012 0.541 0
M  V30 24 C -5.2497 1.5543 -0.2338 0
M  V30 25 C -3.7712 3.1517 -1.2869 0
M  V30 26 C -5.6138 -1.0834 1.0371 0
M  V30 27 C -5.0427 2.7947 -0.8405 0
M  V30 28 H 6.1692 -1.6009 -0.4673 0
M  V30 29 H 6.6391 2.5503 -1.2326 0
M  V30 30 H 3.456 -1.5791 0.0879 0
M  V30 31 H 3.9853 3.3118 -0.8303 0
M  V30 32 H 1.7396 2.3999 -0.2384 0
M  V30 33 H 0.4994 0.4884 0.85 0
M  V30 34 H 0.6255 -4.5364 0.2783 0
M  V30 35 H 1.0623 -3.5195 1.715 0
M  V30 36 H -0.0496 -4.9224 1.9064 0
M  V30 37 H -1.7188 2.5579 -1.4778 0
M  V30 38 H -6.2476 1.3076 0.1011 0
M  V30 39 H -3.6134 4.1139 -1.7568 0
M  V30 40 H -6.3546 -1.148 0.2125 0
M  V30 41 H -5.99 -0.4147 1.8398 0
M  V30 42 H -5.4654 -2.0975 1.4609 0
M  V30 43 H -5.8707 3.4808 -0.9648 0
M  V30 END ATOM
M  V30 BEGIN BOND
M  V30 1 2 1 2
M  V30 2 1 2 3
M  V30 3 1 2 4
M  V30 4 1 3 5
M  V30 5 1 4 6
M  V30 6 1 5 7
M  V30 7 1 6 8
M  V30 8 2 7 9
M  V30 9 2 8 10
M  V30 10 1 9 11
M  V30 11 1 11 12
M  V30 12 2 12 13
M  V30 13 1 12 14
M  V30 14 2 14 15
M  V30 15 1 14 16
M  V30 16 1 15 17
M  V30 17 2 16 18
M  V30 18 1 16 19
M  V30 19 1 17 20
M  V30 20 2 20 21
M  V30 21 1 20 22
M  V30 22 1 21 23
M  V30 23 1 21 24
M  V30 24 2 22 25
M  V30 25 1 23 26
M  V30 26 2 24 27
M  V30 27 2 5 6
M  V30 28 1 9 10
M  V30 29 1 25 27
M  V30 30 1 3 28
M  V30 31 1 4 29
M  V30 32 1 7 30
M  V30 33 1 8 31
M  V30 34 1 10 32
M  V30 35 1 11 33
M  V30 36 1 19 34
M  V30 37 1 19 35
M  V30 38 1 19 36
M  V30 39 1 22 37
M  V30 40 1 24 38
M  V30 41 1 25 39
M  V30 42 1 26 40
M  V30 43 1 26 41
M  V30 44 1 26 42
M  V30 45 1 27 43
M  V30 END BOND
M  V30 END CTAB
M  END
>  <Structure No>
2958

>  <LogS>
-7.630599326

>  <MMFF94 Energy>
28.086

$$$$
Compound 2959
Actelion Java MolfileCreator 2.0

  0  0  0  0  0  0              0 V3000
M  V30 BEGIN CTAB
M  V30 COUNTS 84 87 0 0 0
M  V30 BEGIN ATOM
M  V30 1 Cl 11.8058 1.2335 -3.9512 0
M  V30 2 C 10.715 0.6296 -2.7122 0
M  V30 3 C 11.1452 -0.3454 -1.8024 0
M  V30 4 C 9.41 1.1295 -2.6485 0
M  V30 5 O 12.4593 -0.8279 -1.9012 0
M  V30 6 C 10.25 -0.8122 -0.8224 0
M  V30 7 C 8.5115 0.6612 -1.6717 0
M  V30 8 C 13.0166 -1.83 -1.0567 0
M  V30 9 C 8.9396 -0.3145 -0.7563 0
M  V30 10 O 7.2015 1.1561 -1.5672 0
M  V30 11 N 8.0298 -0.8245 0.2292 0
M  V30 12 C 6.6705 2.2049 -2.3728 0
M  V30 13 C 8.3382 -0.7998 1.6346 0
M  V30 14 O 9.3776 -0.2041 2.0298 0
M  V30 15 C 7.4793 -1.4853 2.6393 0
M  V30 16 N 6.179 -1.4463 2.5869 0
M  V30 17 C 8.1136 -2.2067 3.7695 0
M  V30 18 N 5.4546 -0.7777 1.5888 0 CHG=-1
M  V30 19 O 9.37 -2.3015 3.8348 0
M  V30 20 C 7.2815 -2.8523 4.8367 0
M  V30 21 C 4.024 -0.7316 1.6027 0
M  V30 22 C 3.3272 -0.4202 0.425 0
M  V30 23 C 3.3037 -1.0196 2.7726 0
M  V30 24 Cl 4.1887 -0.1116 -1.0761 0
M  V30 25 C 1.9289 -0.399 0.421 0
M  V30 26 C 1.9059 -0.9924 2.7692 0
M  V30 27 C 1.2017 -0.6867 1.59 0
M  V30 28 C -0.2826 -0.7113 1.5627 0
M  V30 29 C -0.9925 -1.7348 2.2181 0
M  V30 30 C -1.0001 0.2626 0.8457 0
M  V30 31 C -2.3881 -1.7989 2.1347 0
M  V30 32 C -2.3945 0.2029 0.7671 0
M  V30 33 Cl -3.2315 -3.1205 2.9303 0
M  V30 34 C -3.0966 -0.8336 1.4027 0
M  V30 35 N -4.5168 -0.9523 1.2719 0 CHG=-1
M  V30 36 N -5.2878 -0.0543 0.5191 0
M  V30 37 C -6.5471 -0.2546 0.2542 0
M  V30 38 C -7.2909 0.7939 -0.4728 0
M  V30 39 C -7.2607 -1.4846 0.6843 0
M  V30 40 O -6.906 1.9891 -0.3905 0
M  V30 41 N -8.431 0.4465 -1.2784 0
M  V30 42 O -8.4576 -1.399 1.0719 0
M  V30 43 C -6.6146 -2.8343 0.6553 0
M  V30 44 C -9.5485 1.3225 -1.5055 0
M  V30 45 C -10.8545 0.8201 -1.3564 0
M  V30 46 C -9.358 2.6525 -1.9197 0
M  V30 47 O -11.019 -0.5115 -0.9404 0
M  V30 48 C -11.9535 1.6615 -1.6076 0
M  V30 49 C -10.4604 3.4964 -2.1586 0
M  V30 50 C -12.2769 -1.1497 -0.7392 0
M  V30 51 C -11.7572 2.9881 -2.0013 0
M  V30 52 O -10.3065 4.8361 -2.5533 0
M  V30 53 Cl -13.1581 4.0099 -2.297 0
M  V30 54 C -9.0543 5.4926 -2.7229 0
M  V30 55 H 9.1046 1.8816 -3.3649 0
M  V30 56 H 10.5551 -1.5733 -0.1132 0
M  V30 57 H 12.4423 -2.7769 -1.153 0
M  V30 58 H 13.0113 -1.4836 -0.0021 0
M  V30 59 H 14.0655 -2.0189 -1.3637 0
M  V30 60 H 7.1461 -1.2623 -0.1124 0
M  V30 61 H 7.2748 3.1272 -2.243 0
M  V30 62 H 6.6608 1.8992 -3.4422 0
M  V30 63 H 5.6297 2.4182 -2.0522 0
M  V30 64 H 6.6882 -2.08 5.3693 0
M  V30 65 H 7.9272 -3.3783 5.5728 0
M  V30 66 H 6.5928 -3.5928 4.3788 0
M  V30 67 H 3.8209 -1.2608 3.6915 0
M  V30 68 H 1.4109 -0.1904 -0.5075 0
M  V30 69 H 1.3763 -1.2059 3.6882 0
M  V30 70 H -0.4633 -2.509 2.7625 0
M  V30 71 H -0.484 1.0741 0.3426 0
M  V30 72 H -2.9184 0.9546 0.1924 0
M  V30 73 H -8.5507 -0.5606 -1.5315 0
M  V30 74 H -5.8195 -2.8693 -0.1178 0
M  V30 75 H -6.1798 -3.0631 1.6496 0
M  V30 76 H -7.3686 -3.6112 0.4094 0
M  V30 77 H -8.3559 3.0176 -2.0833 0
M  V30 78 H -12.9665 1.296 -1.4954 0
M  V30 79 H -12.1048 -2.1888 -0.3916 0
M  V30 80 H -12.8423 -1.1805 -1.6925 0
M  V30 81 H -12.8615 -0.6122 0.0376 0
M  V30 82 H -8.4803 5.4783 -1.7702 0
M  V30 83 H -8.4706 4.9984 -3.5286 0
M  V30 84 H -9.236 6.5501 -3.0113 0
M  V30 END ATOM
M  V30 BEGIN BOND
M  V30 1 1 1 2
M  V30 2 2 2 3
M  V30 3 1 2 4
M  V30 4 1 3 5
M  V30 5 1 3 6
M  V30 6 2 4 7
M  V30 7 1 5 8
M  V30 8 2 6 9
M  V30 9 1 7 10
M  V30 10 1 9 11
M  V30 11 1 10 12
M  V30 12 1 11 13
M  V30 13 2 13 14
M  V30 14 1 13 15
M  V30 15 2 15 16
M  V30 16 1 15 17
M  V30 17 1 16 18
M  V30 18 2 17 19
M  V30 19 1 17 20
M  V30 20 1 18 21
M  V30 21 2 21 22
M  V30 22 1 21 23
M  V30 23 1 22 24
M  V30 24 1 22 25
M  V30 25 2 23 26
M  V30 26 2 25 27
M  V30 27 1 27 28
M  V30 28 2 28 29
M  V30 29 1 28 30
M  V30 30 1 29 31
M  V30 31 2 30 32
M  V30 32 1 31 33
M  V30 33 2 31 34
M  V30 34 1 34 35
M  V30 35 1 35 36
M  V30 36 2 36 37
M  V30 37 1 37 38
M  V30 38 1 37 39
M  V30 39 2 38 40
M  V30 40 1 38 41
M  V30 41 2 39 42
M  V30 42 1 39 43
M  V30 43 1 41 44
M  V30 44 2 44 45
M  V30 45 1 44 46
M  V30 46 1 45 47
M  V30 47 1 45 48
M  V30 48 2 46 49
M  V30 49 1 47 50
M  V30 50 2 48 51
M  V30 51 1 49 52
M  V30 52 1 51 53
M  V30 53 1 52 54
M  V30 54 1 7 9
M  V30 55 1 26 27
M  V30 56 1 32 34
M  V30 57 1 49 51
M  V30 58 1 4 55
M  V30 59 1 6 56
M  V30 60 1 8 57
M  V30 61 1 8 58
M  V30 62 1 8 59
M  V30 63 1 11 60
M  V30 64 1 12 61
M  V30 65 1 12 62
M  V30 66 1 12 63
M  V30 67 1 20 64
M  V30 68 1 20 65
M  V30 69 1 20 66
M  V30 70 1 23 67
M  V30 71 1 25 68
M  V30 72 1 26 69
M  V30 73 1 29 70
M  V30 74 1 30 71
M  V30 75 1 32 72
M  V30 76 1 41 73
M  V30 77 1 43 74
M  V30 78 1 43 75
M  V30 79 1 43 76
M  V30 80 1 46 77
M  V30 81 1 48 78
M  V30 82 1 50 79
M  V30 83 1 50 80
M  V30 84 1 50 81
M  V30 85 1 54 82
M  V30 86 1 54 83
M  V30 87 1 54 84
M  V30 END BOND
M  V30 END CTAB
M  END
>  <Structure No>
2959

>  <LogS>
-8.004532604

>  <MMFF94 Energy>
239.34

$$$$
Compound 2960
Actelion Java MolfileCreator 2.0

  0  0  0  0  0  0              0 V3000
M  V30 BEGIN CTAB
M  V30 COUNTS 35 37 0 0 0
M  V30 BEGIN ATOM
M  V30 1 O 1.0442 2.411 -0.7228 0
M  V30 2 C 0.8278 1.6603 0.2651 0
M  V30 3 N 1.7436 0.6989 0.769 0
M  V30 4 C -0.3755 1.7149 1.1372 0 CFG=1
M  V30 5 N 1.1964 0.1698 1.941 0
M  V30 6 C 3.0322 0.3268 0.2485 0
M  V30 7 N -1.5766 1.2971 0.42 0
M  V30 8 C 0.0358 0.6997 2.1737 0
M  V30 9 C 3.3312 0.4585 -1.1203 0
M  V30 10 C 4.0053 -0.209 1.1099 0
M  V30 11 N -1.6484 0.167 -0.1625 0
M  V30 12 C -0.7833 0.3293 3.3653 0
M  V30 13 C 4.5863 0.0816 -1.6087 0
M  V30 14 C 5.2591 -0.5833 0.6172 0
M  V30 15 C -2.8216 -0.2546 -0.8675 0
M  V30 16 C 5.5505 -0.4356 -0.7406 0
M  V30 17 C -2.8254 -1.5114 -1.4865 0
M  V30 18 C -3.9665 0.5603 -0.9518 0
M  V30 19 C -3.9558 -1.9524 -2.1822 0
M  V30 20 C -5.095 0.1157 -1.6484 0
M  V30 21 C -5.0898 -1.1394 -2.263 0
M  V30 22 H -0.5087 2.7221 1.5851 0
M  V30 23 H 2.593 0.8251 -1.8192 0
M  V30 24 H 3.798 -0.327 2.1659 0
M  V30 25 H -1.0239 -0.7535 3.3295 0
M  V30 26 H -1.7303 0.909 3.3773 0
M  V30 27 H -0.2139 0.5493 4.2924 0
M  V30 28 H 4.8088 0.1839 -2.6631 0
M  V30 29 H 6.005 -0.9885 1.2889 0
M  V30 30 H 6.5208 -0.7275 -1.121 0
M  V30 31 H -1.9514 -2.1479 -1.4288 0
M  V30 32 H -3.9891 1.5351 -0.4819 0
M  V30 33 H -3.9525 -2.9243 -2.6584 0
M  V30 34 H -5.9739 0.7444 -1.7115 0
M  V30 35 H -5.9639 -1.4818 -2.8017 0
M  V30 END ATOM
M  V30 BEGIN BOND
M  V30 1 2 1 2
M  V30 2 1 2 3
M  V30 3 1 2 4
M  V30 4 1 3 5
M  V30 5 1 3 6
M  V30 6 1 4 7
M  V30 7 1 4 8
M  V30 8 2 6 9
M  V30 9 1 6 10
M  V30 10 2 7 11
M  V30 11 1 8 12
M  V30 12 1 9 13
M  V30 13 2 10 14
M  V30 14 1 11 15
M  V30 15 2 13 16
M  V30 16 2 15 17
M  V30 17 1 15 18
M  V30 18 1 17 19
M  V30 19 2 18 20
M  V30 20 2 19 21
M  V30 21 2 5 8
M  V30 22 1 14 16
M  V30 23 1 20 21
M  V30 24 1 4 22
M  V30 25 1 9 23
M  V30 26 1 10 24
M  V30 27 1 12 25
M  V30 28 1 12 26
M  V30 29 1 12 27
M  V30 30 1 13 28
M  V30 31 1 14 29
M  V30 32 1 16 30
M  V30 33 1 17 31
M  V30 34 1 18 32
M  V30 35 1 19 33
M  V30 36 1 20 34
M  V30 37 1 21 35
M  V30 END BOND
M  V30 BEGIN COLLECTION
M  V30 MDLV30/STEABS ATOMS=(1 4)
M  V30 END COLLECTION
M  V30 END CTAB
M  END
>  <Structure No>
2960

>  <LogS>
-7.541446627

>  <MMFF94 Energy>
95.224

$$$$
Compound 2961
Actelion Java MolfileCreator 2.0

  0  0  0  0  0  0              0 V3000
M  V30 BEGIN CTAB
M  V30 COUNTS 18 18 0 0 0
M  V30 BEGIN ATOM
M  V30 1 F 1.5136 2.4048 1.2464 0
M  V30 2 C 1.1412 1.3871 0.3854 0
M  V30 3 F 1.4102 1.8219 -0.9059 0
M  V30 4 O 1.911 0.2413 0.691 0
M  V30 5 C -0.3688 1.0879 0.5631 0
M  V30 6 C 1.6891 -0.8102 -0.239 0
M  V30 7 F -1.0917 1.8698 -0.3276 0
M  V30 8 F -0.742 1.4392 1.8508 0
M  V30 9 N -0.662 -0.355 0.369 0
M  V30 10 F 2.4947 -0.621 -1.3504 0
M  V30 11 F 2.0896 -1.9875 0.3691 0
M  V30 12 C 0.204 -0.9481 -0.6719 0
M  V30 13 C -2.1029 -0.6271 0.1533 0
M  V30 14 F -0.0914 -2.2921 -0.8455 0
M  V30 15 F 0.006 -0.3059 -1.8871 0
M  V30 16 F -2.3553 -1.9777 0.3142 0
M  V30 17 F -2.8695 0.0517 1.0857 0
M  V30 18 F -2.5037 -0.2436 -1.1163 0
M  V30 END ATOM
M  V30 BEGIN BOND
M  V30 1 1 1 2
M  V30 2 1 2 3
M  V30 3 1 2 4
M  V30 4 1 2 5
M  V30 5 1 4 6
M  V30 6 1 5 7
M  V30 7 1 5 8
M  V30 8 1 5 9
M  V30 9 1 6 10
M  V30 10 1 6 11
M  V30 11 1 6 12
M  V30 12 1 9 13
M  V30 13 1 12 14
M  V30 14 1 12 15
M  V30 15 1 13 16
M  V30 16 1 13 17
M  V30 17 1 13 18
M  V30 18 1 9 12
M  V30 END BOND
M  V30 END CTAB
M  END
>  <Structure No>
2961

>  <LogS>
-5.596058626

>  <MMFF94 Energy>
-67.451

$$$$
Compound 2962
Actelion Java MolfileCreator 2.0

  0  0  0  0  0  0              0 V3000
M  V30 BEGIN CTAB
M  V30 COUNTS 67 66 0 0 0
M  V30 BEGIN ATOM
M  V30 1 O 1.4888 3.215 -3.1365 0
M  V30 2 C 2.4797 2.4904 -2.8503 0
M  V30 3 O 3.4433 2.2306 -3.8165 0 CHG=-1
M  V30 4 C 2.6519 1.9666 -1.4587 0
M  V30 5 C 3.4019 2.9855 -0.5916 0
M  V30 6 C 3.494 2.5628 0.8924 0
M  V30 7 C 4.8827 2.0374 1.3038 0
M  V30 8 C 5.2011 0.613 0.8151 0
M  V30 9 C 4.3923 -0.4848 1.5433 0
M  V30 10 C 3.2954 -1.0925 0.6523 0
M  V30 11 C 2.5677 -2.2677 1.3218 0
M  V30 12 C 1.6345 -1.8117 2.4575 0
M  V30 13 C 0.8164 -2.967 3.0622 0
M  V30 14 C -0.1505 -3.6765 2.0908 0
M  V30 15 C -1.0917 -2.748 1.3016 0
M  V30 16 C -2.0815 -1.9904 2.2038 0
M  V30 17 C -2.902 -0.9488 1.4285 0
M  V30 18 C -3.857 -1.583 0.4023 0
M  V30 19 C -4.8807 -0.5803 -0.162 0
M  V30 20 C -4.2734 0.662 -0.8411 0
M  V30 21 C -3.4178 0.3175 -2.0719 0
M  V30 22 C -2.794 1.5612 -2.7324 0
M  V30 23 C -3.8027 2.5428 -3.3563 0
M  V30 24 C -4.6268 1.9198 -4.4833 0
M  V30 25 H 1.6521 1.7578 -1.0211 0
M  V30 26 H 3.2155 1.0159 -1.5102 0
M  V30 27 H 4.4135 3.1682 -1.017 0
M  V30 28 H 2.8515 3.9515 -0.6421 0
M  V30 29 H 3.2992 3.4671 1.5095 0
M  V30 30 H 2.7 1.8389 1.1698 0
M  V30 31 H 4.9608 2.0626 2.4133 0
M  V30 32 H 5.665 2.7309 0.9245 0
M  V30 33 H 5.0982 0.5484 -0.2875 0
M  V30 34 H 6.2791 0.4339 1.0222 0
M  V30 35 H 3.9482 -0.0829 2.478 0
M  V30 36 H 5.0893 -1.2999 1.8401 0
M  V30 37 H 3.7652 -1.4676 -0.284 0
M  V30 38 H 2.5513 -0.3205 0.3696 0
M  V30 39 H 3.3065 -3.0022 1.7087 0
M  V30 40 H 1.9706 -2.7711 0.5335 0
M  V30 41 H 2.2453 -1.3788 3.2772 0
M  V30 42 H 0.9569 -1.0053 2.1047 0
M  V30 43 H 0.2423 -2.5791 3.9296 0
M  V30 44 H 1.5183 -3.7251 3.4708 0
M  V30 45 H -0.7639 -4.3982 2.6724 0
M  V30 46 H 0.4383 -4.2822 1.3693 0
M  V30 47 H -0.505 -2.0363 0.6841 0
M  V30 48 H -1.667 -3.3855 0.5975 0
M  V30 49 H -1.5248 -1.4439 2.9932 0
M  V30 50 H -2.7636 -2.7119 2.7055 0
M  V30 51 H -2.2046 -0.2491 0.9192 0
M  V30 52 H -3.4962 -0.3636 2.1631 0
M  V30 53 H -4.4243 -2.4035 0.8936 0
M  V30 54 H -3.2838 -2.0393 -0.4306 0
M  V30 55 H -5.5408 -0.2415 0.6669 0
M  V30 56 H -5.5284 -1.1099 -0.8941 0
M  V30 57 H -3.6739 1.2444 -0.1094 0
M  V30 58 H -5.1219 1.3051 -1.1563 0
M  V30 59 H -2.577 -0.3362 -1.7592 0
M  V30 60 H -4.0196 -0.253 -2.81 0
M  V30 61 H -2.1893 2.1092 -1.9764 0
M  V30 62 H -2.0905 1.2232 -3.5238 0
M  V30 63 H -4.4801 2.9583 -2.5807 0
M  V30 64 H -3.2323 3.3999 -3.7786 0
M  V30 65 H -5.2064 2.7152 -4.9985 0
M  V30 66 H -5.3461 1.1769 -4.0766 0
M  V30 67 H -3.9628 1.4295 -5.2279 0
M  V30 END ATOM
M  V30 BEGIN BOND
M  V30 1 2 1 2
M  V30 2 1 2 3
M  V30 3 1 2 4
M  V30 4 1 4 5
M  V30 5 1 5 6
M  V30 6 1 6 7
M  V30 7 1 7 8
M  V30 8 1 8 9
M  V30 9 1 9 10
M  V30 10 1 10 11
M  V30 11 1 11 12
M  V30 12 1 12 13
M  V30 13 1 13 14
M  V30 14 1 14 15
M  V30 15 1 15 16
M  V30 16 1 16 17
M  V30 17 1 17 18
M  V30 18 1 18 19
M  V30 19 1 19 20
M  V30 20 1 20 21
M  V30 21 1 21 22
M  V30 22 1 22 23
M  V30 23 1 23 24
M  V30 24 1 4 25
M  V30 25 1 4 26
M  V30 26 1 5 27
M  V30 27 1 5 28
M  V30 28 1 6 29
M  V30 29 1 6 30
M  V30 30 1 7 31
M  V30 31 1 7 32
M  V30 32 1 8 33
M  V30 33 1 8 34
M  V30 34 1 9 35
M  V30 35 1 9 36
M  V30 36 1 10 37
M  V30 37 1 10 38
M  V30 38 1 11 39
M  V30 39 1 11 40
M  V30 40 1 12 41
M  V30 41 1 12 42
M  V30 42 1 13 43
M  V30 43 1 13 44
M  V30 44 1 14 45
M  V30 45 1 14 46
M  V30 46 1 15 47
M  V30 47 1 15 48
M  V30 48 1 16 49
M  V30 49 1 16 50
M  V30 50 1 17 51
M  V30 51 1 17 52
M  V30 52 1 18 53
M  V30 53 1 18 54
M  V30 54 1 19 55
M  V30 55 1 19 56
M  V30 56 1 20 57
M  V30 57 1 20 58
M  V30 58 1 21 59
M  V30 59 1 21 60
M  V30 60 1 22 61
M  V30 61 1 22 62
M  V30 62 1 23 63
M  V30 63 1 23 64
M  V30 64 1 24 65
M  V30 65 1 24 66
M  V30 66 1 24 67
M  V30 END BOND
M  V30 END CTAB
M  END
>  <Structure No>
2962

>  <LogS>
-6.782690092

>  <MMFF94 Energy>
-1.1785

$$$$
Compound 2963
Actelion Java MolfileCreator 2.0

  0  0  0  0  0  0              0 V3000
M  V30 BEGIN CTAB
M  V30 COUNTS 74 77 0 0 0
M  V30 BEGIN ATOM
M  V30 1 Cl 8.244 2.2803 1.9543 0
M  V30 2 C 7.8159 1.0766 0.7454 0
M  V30 3 C 8.758 0.1295 0.3186 0
M  V30 4 C 6.5251 1.0762 0.2098 0
M  V30 5 O 10.0411 0.1534 0.8912 0
M  V30 6 C 8.3911 -0.8108 -0.6644 0
M  V30 7 C 6.15 0.1259 -0.7513 0
M  V30 8 C 11.1136 -0.7057 0.5179 0
M  V30 9 C 7.0912 -0.8134 -1.2073 0
M  V30 10 N 4.8201 0.1241 -1.2947 0
M  V30 11 O 6.6954 -1.7368 -2.1894 0
M  V30 12 C 3.6411 0.1366 -0.467 0
M  V30 13 C 7.5317 -2.7551 -2.7295 0
M  V30 14 O 3.7573 0.2797 0.7819 0
M  V30 15 C 2.2854 -0.0686 -1.0482 0
M  V30 16 C 1.1457 0.4928 -0.4284 0
M  V30 17 C 2.1232 -0.8592 -2.197 0
M  V30 18 O 1.3285 1.4069 0.6147 0
M  V30 19 C -0.1517 0.1689 -0.8971 0
M  V30 20 C 0.8535 -1.089 -2.7376 0
M  V30 21 N -1.3307 0.5207 -0.1526 0
M  V30 22 C -0.2961 -0.5789 -2.0868 0
M  V30 23 C 0.714 -1.8514 -3.9092 0
M  V30 24 N -1.3459 0.5647 1.1179 0
M  V30 25 C -1.5697 -0.8593 -2.6288 0
M  V30 26 C -0.5532 -2.1072 -4.4373 0
M  V30 27 C -2.5305 0.879 1.8627 0
M  V30 28 C -1.6908 -1.6138 -3.7987 0
M  V30 29 C -2.5375 0.7821 3.2805 0
M  V30 30 C -3.7242 1.211 1.189 0
M  V30 31 O -1.4107 0.4486 4.0559 0
M  V30 32 C -3.7352 0.9997 3.974 0
M  V30 33 C -4.9084 1.4367 1.9032 0
M  V30 34 C -0.0478 0.5964 3.6711 0
M  V30 35 C -4.9081 1.3224 3.2957 0
M  V30 36 S -6.4159 1.7823 1.062 0
M  V30 37 O -6.1239 2.2821 -0.3249 0
M  V30 38 O -7.1387 2.8684 1.8115 0
M  V30 39 N -7.3754 0.3146 1.019 0
M  V30 40 C -6.8281 -0.6881 0.0768 0
M  V30 41 C -8.8204 0.5766 0.8726 0
M  V30 42 C -7.2252 -0.4781 -1.3944 0
M  V30 43 C -9.469 0.7186 2.2473 0
M  V30 44 H 5.8184 1.8291 0.534 0
M  V30 45 H 9.1103 -1.5407 -1.0042 0
M  V30 46 H 11.3977 -0.5218 -0.5372 0
M  V30 47 H 10.8238 -1.7681 0.6561 0
M  V30 48 H 11.9895 -0.4949 1.1639 0
M  V30 49 H 4.7234 0.0177 -2.3281 0
M  V30 50 H 7.8105 -3.481 -1.9379 0
M  V30 51 H 6.9805 -3.2918 -3.5261 0
M  V30 52 H 8.442 -2.3063 -3.1788 0
M  V30 53 H 2.9803 -1.3227 -2.6661 0
M  V30 54 H 0.6032 2.0381 0.9271 0
M  V30 55 H 1.5842 -2.2495 -4.4163 0
M  V30 56 H -2.4753 -0.4921 -2.1598 0
M  V30 57 H -0.6537 -2.6916 -5.3432 0
M  V30 58 H -2.6712 -1.8163 -4.2115 0
M  V30 59 H -3.7391 1.2688 0.1078 0
M  V30 60 H -3.7516 0.9144 5.0539 0
M  V30 61 H 0.5917 0.4348 4.5638 0
M  V30 62 H 0.1277 1.6246 3.2879 0
M  V30 63 H 0.2317 -0.1678 2.9154 0
M  V30 64 H -5.8223 1.4723 3.8582 0
M  V30 65 H -7.1738 -1.6958 0.3929 0
M  V30 66 H -5.7193 -0.7095 0.1507 0
M  V30 67 H -9.3324 -0.2753 0.3754 0
M  V30 68 H -9.0073 1.4909 0.2658 0
M  V30 69 H -6.5725 -1.1015 -2.0412 0
M  V30 70 H -7.1226 0.5761 -1.7098 0
M  V30 71 H -8.2738 -0.7995 -1.5694 0
M  V30 72 H -10.5619 0.8839 2.1334 0
M  V30 73 H -9.041 1.5724 2.808 0
M  V30 74 H -9.3112 -0.2097 2.8365 0
M  V30 END ATOM
M  V30 BEGIN BOND
M  V30 1 1 1 2
M  V30 2 2 2 3
M  V30 3 1 2 4
M  V30 4 1 3 5
M  V30 5 1 3 6
M  V30 6 2 4 7
M  V30 7 1 5 8
M  V30 8 2 6 9
M  V30 9 1 7 10
M  V30 10 1 9 11
M  V30 11 1 10 12
M  V30 12 1 11 13
M  V30 13 2 12 14
M  V30 14 1 12 15
M  V30 15 1 15 16
M  V30 16 2 15 17
M  V30 17 1 16 18
M  V30 18 2 16 19
M  V30 19 1 17 20
M  V30 20 1 19 21
M  V30 21 1 19 22
M  V30 22 2 20 23
M  V30 23 2 21 24
M  V30 24 2 22 25
M  V30 25 1 23 26
M  V30 26 1 24 27
M  V30 27 1 25 28
M  V30 28 2 27 29
M  V30 29 1 27 30
M  V30 30 1 29 31
M  V30 31 1 29 32
M  V30 32 2 30 33
M  V30 33 1 31 34
M  V30 34 2 32 35
M  V30 35 1 33 36
M  V30 36 2 36 37
M  V30 37 2 36 38
M  V30 38 1 36 39
M  V30 39 1 39 40
M  V30 40 1 39 41
M  V30 41 1 40 42
M  V30 42 1 41 43
M  V30 43 1 7 9
M  V30 44 1 20 22
M  V30 45 2 26 28
M  V30 46 1 33 35
M  V30 47 1 4 44
M  V30 48 1 6 45
M  V30 49 1 8 46
M  V30 50 1 8 47
M  V30 51 1 8 48
M  V30 52 1 10 49
M  V30 53 1 13 50
M  V30 54 1 13 51
M  V30 55 1 13 52
M  V30 56 1 17 53
M  V30 57 1 18 54
M  V30 58 1 23 55
M  V30 59 1 25 56
M  V30 60 1 26 57
M  V30 61 1 28 58
M  V30 62 1 30 59
M  V30 63 1 32 60
M  V30 64 1 34 61
M  V30 65 1 34 62
M  V30 66 1 34 63
M  V30 67 1 35 64
M  V30 68 1 40 65
M  V30 69 1 40 66
M  V30 70 1 41 67
M  V30 71 1 41 68
M  V30 72 1 42 69
M  V30 73 1 42 70
M  V30 74 1 42 71
M  V30 75 1 43 72
M  V30 76 1 43 73
M  V30 77 1 43 74
M  V30 END BOND
M  V30 END CTAB
M  END
>  <Structure No>
2963

>  <LogS>
-7.905255356

>  <MMFF94 Energy>
74.449

$$$$
Compound 2964
Actelion Java MolfileCreator 2.0

  0  0  0  0  0  0              0 V3000
M  V30 BEGIN CTAB
M  V30 COUNTS 37 38 0 0 0
M  V30 BEGIN ATOM
M  V30 1 Cl 1.5739 2.486 1.2424 0
M  V30 2 C 3.0175 1.481 1.2078 0
M  V30 3 C 3.0063 0.2087 0.6023 0
M  V30 4 C 4.183 1.9537 1.8232 0
M  V30 5 N 1.8203 -0.2675 -0.0541 0
M  V30 6 C 4.1838 -0.5603 0.6002 0
M  V30 7 C 5.3418 1.1741 1.8287 0
M  V30 8 C 1.3 -1.5976 0.1117 0
M  V30 9 C 5.3429 -0.0799 1.2155 0
M  V30 10 O 1.9362 -2.4519 0.7863 0
M  V30 11 C 0.0098 -1.983 -0.5055 0
M  V30 12 N -1.0441 -1.228 -0.3979 0
M  V30 13 C -0.1011 -3.2638 -1.237 0
M  V30 14 N -1.0535 -0.0295 0.3302 0 CHG=-1
M  V30 15 O 0.9159 -3.9924 -1.392 0
M  V30 16 C -1.4087 -3.7049 -1.8205 0
M  V30 17 C -2.2056 0.8171 0.4252 0
M  V30 18 C -3.2488 0.8081 -0.5365 0
M  V30 19 C -2.3109 1.6501 1.5466 0
M  V30 20 N -3.1325 0.0908 -1.7734 0 CHG=1
M  V30 21 C -4.4009 1.5784 -0.3046 0
M  V30 22 C -3.4522 2.4271 1.7519 0
M  V30 23 O -2.1045 0.2144 -2.4705 0
M  V30 24 O -4.2425 -0.5055 -2.3255 0 CHG=-1
M  V30 25 C -4.5027 2.3822 0.8341 0
M  V30 26 Cl -5.9397 3.3533 1.098 0
M  V30 27 H 4.1912 2.9263 2.2988 0
M  V30 28 H 1.2788 0.4112 -0.6348 0
M  V30 29 H 4.2139 -1.5204 0.102 0
M  V30 30 H 6.2407 1.5446 2.3041 0
M  V30 31 H 6.2454 -0.6774 1.2096 0
M  V30 32 H -1.7408 -2.9751 -2.5885 0
M  V30 33 H -2.175 -3.769 -1.0197 0
M  V30 34 H -1.3073 -4.7034 -2.2966 0
M  V30 35 H -1.5145 1.6738 2.2802 0
M  V30 36 H -5.2066 1.5803 -1.0281 0
M  V30 37 H -3.5231 3.0553 2.6308 0
M  V30 END ATOM
M  V30 BEGIN BOND
M  V30 1 1 1 2
M  V30 2 2 2 3
M  V30 3 1 2 4
M  V30 4 1 3 5
M  V30 5 1 3 6
M  V30 6 2 4 7
M  V30 7 1 5 8
M  V30 8 2 6 9
M  V30 9 2 8 10
M  V30 10 1 8 11
M  V30 11 2 11 12
M  V30 12 1 11 13
M  V30 13 1 12 14
M  V30 14 2 13 15
M  V30 15 1 13 16
M  V30 16 1 14 17
M  V30 17 2 17 18
M  V30 18 1 17 19
M  V30 19 1 18 20
M  V30 20 1 18 21
M  V30 21 2 19 22
M  V30 22 2 20 23
M  V30 23 1 20 24
M  V30 24 2 21 25
M  V30 25 1 25 26
M  V30 26 1 7 9
M  V30 27 1 22 25
M  V30 28 1 4 27
M  V30 29 1 5 28
M  V30 30 1 6 29
M  V30 31 1 7 30
M  V30 32 1 9 31
M  V30 33 1 16 32
M  V30 34 1 16 33
M  V30 35 1 16 34
M  V30 36 1 19 35
M  V30 37 1 21 36
M  V30 38 1 22 37
M  V30 END BOND
M  V30 END CTAB
M  END
>  <Structure No>
2964

>  <LogS>
-7.72175787

>  <MMFF94 Energy>
121.12

$$$$
Compound 2965
Actelion Java MolfileCreator 2.0

  0  0  0  0  0  0              0 V3000
M  V30 BEGIN CTAB
M  V30 COUNTS 44 51 0 0 0
M  V30 BEGIN ATOM
M  V30 1 O -3.4507 1.0671 -2.0529 0
M  V30 2 C -2.799 0.5501 -1.1047 0
M  V30 3 N -3.4424 -0.017 -0.0449 0
M  V30 4 C -1.3866 0.545 -1.1158 0
M  V30 5 C -2.8002 -0.5878 1.0027 0
M  V30 6 C -4.7494 -0.1613 0.2414 0
M  V30 7 C -0.6897 -0.0484 -0.0268 0
M  V30 8 C -0.6559 1.1117 -2.1757 0
M  V30 9 N -3.6347 -1.0923 1.9492 0
M  V30 10 C -1.4027 -0.6252 1.0516 0
M  V30 11 C -4.8538 -0.8103 1.4446 0
M  V30 12 C -5.8797 0.2371 -0.4799 0
M  V30 13 C 0.7226 -0.0646 -0.0173 0
M  V30 14 C 0.7411 1.0954 -2.1657 0
M  V30 15 C -0.7082 -1.2083 2.1216 0
M  V30 16 C -6.0896 -1.1078 2.0139 0
M  V30 17 C -7.1414 -0.0514 0.0729 0
M  V30 18 C 1.4196 -0.6581 1.0716 0
M  V30 19 C 1.4356 0.5122 -1.0957 0
M  V30 20 C 0.6887 -1.2247 2.1316 0
M  V30 21 C -7.246 -0.7202 1.3129 0
M  V30 22 C 2.832 -0.6631 1.0605 0
M  V30 23 C 2.833 0.4748 -1.0468 0
M  V30 24 O 3.4836 -1.1801 2.0087 0
M  V30 25 N 3.4752 -0.0958 8.0E-4 0
M  V30 26 N 3.6675 0.9794 -1.9932 0
M  V30 27 C 4.7822 0.0485 -0.2854 0
M  V30 28 C 4.8865 0.6973 -1.4886 0
M  V30 29 C 5.9124 -0.3499 0.4359 0
M  V30 30 C 6.1222 0.9951 -2.0578 0
M  V30 31 C 7.174 -0.0612 -0.1167 0
M  V30 32 C 7.2786 0.6075 -1.3567 0
M  V30 33 H -1.1628 1.5697 -3.0163 0
M  V30 34 H -5.8087 0.7487 -1.4284 0
M  V30 35 H 1.2764 1.5396 -2.9959 0
M  V30 36 H -1.2436 -1.6524 2.952 0
M  V30 37 H -6.1591 -1.6206 2.9645 0
M  V30 38 H -8.039 0.2414 -0.4562 0
M  V30 39 H 1.1956 -1.6825 2.9723 0
M  V30 40 H -8.2225 -0.9359 1.7268 0
M  V30 41 H 5.8413 -0.8614 1.3845 0
M  V30 42 H 6.1916 1.5078 -3.0083 0
M  V30 43 H 8.0715 -0.354 0.4124 0
M  V30 44 H 8.2549 0.8232 -1.7705 0
M  V30 END ATOM
M  V30 BEGIN BOND
M  V30 1 2 1 2
M  V30 2 1 2 3
M  V30 3 1 2 4
M  V30 4 1 3 5
M  V30 5 1 3 6
M  V30 6 1 4 7
M  V30 7 2 4 8
M  V30 8 2 5 9
M  V30 9 1 5 10
M  V30 10 2 6 11
M  V30 11 1 6 12
M  V30 12 1 7 13
M  V30 13 1 8 14
M  V30 14 1 10 15
M  V30 15 1 11 16
M  V30 16 2 12 17
M  V30 17 2 13 18
M  V30 18 1 13 19
M  V30 19 2 15 20
M  V30 20 2 16 21
M  V30 21 1 18 22
M  V30 22 1 19 23
M  V30 23 2 22 24
M  V30 24 1 22 25
M  V30 25 2 23 26
M  V30 26 1 25 27
M  V30 27 1 26 28
M  V30 28 1 27 29
M  V30 29 1 28 30
M  V30 30 2 29 31
M  V30 31 2 30 32
M  V30 32 2 7 10
M  V30 33 1 9 11
M  V30 34 2 14 19
M  V30 35 1 17 21
M  V30 36 1 18 20
M  V30 37 1 23 25
M  V30 38 2 27 28
M  V30 39 1 31 32
M  V30 40 1 8 33
M  V30 41 1 12 34
M  V30 42 1 14 35
M  V30 43 1 15 36
M  V30 44 1 16 37
M  V30 45 1 17 38
M  V30 46 1 20 39
M  V30 47 1 21 40
M  V30 48 1 29 41
M  V30 49 1 30 42
M  V30 50 1 31 43
M  V30 51 1 32 44
M  V30 END BOND
M  V30 END CTAB
M  END
>  <Structure No>
2965

>  <LogS>
-7.757994585

>  <MMFF94 Energy>
117.5

$$$$
Compound 2966
Actelion Java MolfileCreator 2.0

  0  0  0  0  0  0              0 V3000
M  V30 BEGIN CTAB
M  V30 COUNTS 66 70 0 0 0
M  V30 BEGIN ATOM
M  V30 1 O 2.7315 -2.8924 0.0 0
M  V30 2 C 1.4718 -2.8852 0.0479 0
M  V30 3 C 0.7222 -1.5951 0.1283 0
M  V30 4 C 0.7487 -4.1719 -0.0423 0
M  V30 5 C -0.6863 -1.6023 -0.0647 0
M  V30 6 C 1.3917 -0.359 0.3389 0
M  V30 7 C -0.6558 -4.1839 -0.1201 0
M  V30 8 C 1.4539 -5.3906 -0.0555 0
M  V30 9 C -1.4073 -2.9104 -0.0985 0
M  V30 10 C -1.3838 -0.3675 -0.1647 0
M  V30 11 N 2.7874 -0.3107 0.6859 0
M  V30 12 C 0.6705 0.8388 0.2753 0
M  V30 13 C -1.3349 -5.4147 -0.2087 0
M  V30 14 C 0.7688 -6.6039 -0.1436 0
M  V30 15 O -2.6668 -2.9496 -0.0497 0
M  V30 16 N -2.7812 -0.3204 -0.5054 0
M  V30 17 C -0.6893 0.8357 0.0053 0
M  V30 18 C 3.6597 0.7541 0.2648 0
M  V30 19 C -0.6235 -6.616 -0.2204 0
M  V30 20 C -3.6753 0.6848 0.0081 0
M  V30 21 C 3.8421 1.0387 -1.1104 0
M  V30 22 C 4.3494 1.5186 1.233 0
M  V30 23 C -4.396 1.5057 -0.8887 0
M  V30 24 C -3.8555 0.8478 1.4035 0
M  V30 25 C 4.6731 2.1028 -1.4929 0
M  V30 26 C 3.1507 0.2349 -2.1798 0
M  V30 27 C 5.1976 2.5588 0.8236 0
M  V30 28 C 4.1818 1.2359 2.7019 0
M  V30 29 C -5.2647 2.4877 -0.3885 0
M  V30 30 C -4.2476 1.3398 -2.3775 0
M  V30 31 C -4.7075 1.8566 1.8784 0
M  V30 32 C -3.1467 -0.0334 2.3979 0
M  V30 33 C 5.3667 2.8502 -0.5344 0
M  V30 34 C -5.4035 2.6837 0.9899 0
M  V30 35 C 6.2317 4.002 -0.9551 0
M  V30 36 C -6.3543 3.7201 1.5134 0
M  V30 37 H 2.5351 -5.4074 0.0056 0
M  V30 38 H 3.1272 -0.9578 1.4323 0
M  V30 39 H 1.1658 1.7875 0.4392 0
M  V30 40 H -2.4157 -5.4498 -0.2709 0
M  V30 41 H 1.319 -7.536 -0.1512 0
M  V30 42 H -3.1059 -0.9049 -1.3076 0
M  V30 43 H -1.2064 1.7837 -0.0727 0
M  V30 44 H -1.1535 -7.5576 -0.2889 0
M  V30 45 H 4.7908 2.3431 -2.543 0
M  V30 46 H 3.6691 0.3367 -3.1566 0
M  V30 47 H 3.1501 -0.843 -1.9177 0
M  V30 48 H 2.1056 0.5885 -2.2977 0
M  V30 49 H 5.722 3.1514 1.5645 0
M  V30 50 H 4.6805 0.2772 2.9554 0
M  V30 51 H 3.1028 1.1679 2.956 0
M  V30 52 H 4.6268 2.0392 3.3271 0
M  V30 53 H -5.8284 3.1098 -1.0738 0
M  V30 54 H -3.1721 1.3169 -2.6529 0
M  V30 55 H -4.7301 0.3922 -2.6961 0
M  V30 56 H -4.7208 2.178 -2.9325 0
M  V30 57 H -4.8402 1.9921 2.9454 0
M  V30 58 H -3.6658 -0.0288 3.3803 0
M  V30 59 H -2.1087 0.3292 2.5468 0
M  V30 60 H -3.1249 -1.0847 2.0423 0
M  V30 61 H 5.6296 4.9345 -0.9574 0
M  V30 62 H 6.644 3.8343 -1.973 0
M  V30 63 H 7.0863 4.1244 -0.2562 0
M  V30 64 H -5.9942 4.128 2.4824 0
M  V30 65 H -6.4477 4.5655 0.7987 0
M  V30 66 H -7.3541 3.2617 1.6629 0
M  V30 END ATOM
M  V30 BEGIN BOND
M  V30 1 2 1 2
M  V30 2 1 2 3
M  V30 3 1 2 4
M  V30 4 2 3 5
M  V30 5 1 3 6
M  V30 6 2 4 7
M  V30 7 1 4 8
M  V30 8 1 5 9
M  V30 9 1 5 10
M  V30 10 1 6 11
M  V30 11 2 6 12
M  V30 12 1 7 13
M  V30 13 2 8 14
M  V30 14 2 9 15
M  V30 15 1 10 16
M  V30 16 2 10 17
M  V30 17 1 11 18
M  V30 18 2 13 19
M  V30 19 1 16 20
M  V30 20 2 18 21
M  V30 21 1 18 22
M  V30 22 2 20 23
M  V30 23 1 20 24
M  V30 24 1 21 25
M  V30 25 1 21 26
M  V30 26 2 22 27
M  V30 27 1 22 28
M  V30 28 1 23 29
M  V30 29 1 23 30
M  V30 30 2 24 31
M  V30 31 1 24 32
M  V30 32 2 25 33
M  V30 33 2 29 34
M  V30 34 1 33 35
M  V30 35 1 34 36
M  V30 36 1 7 9
M  V30 37 1 12 17
M  V30 38 1 14 19
M  V30 39 1 27 33
M  V30 40 1 31 34
M  V30 41 1 8 37
M  V30 42 1 11 38
M  V30 43 1 12 39
M  V30 44 1 13 40
M  V30 45 1 14 41
M  V30 46 1 16 42
M  V30 47 1 17 43
M  V30 48 1 19 44
M  V30 49 1 25 45
M  V30 50 1 26 46
M  V30 51 1 26 47
M  V30 52 1 26 48
M  V30 53 1 27 49
M  V30 54 1 28 50
M  V30 55 1 28 51
M  V30 56 1 28 52
M  V30 57 1 29 53
M  V30 58 1 30 54
M  V30 59 1 30 55
M  V30 60 1 30 56
M  V30 61 1 31 57
M  V30 62 1 32 58
M  V30 63 1 32 59
M  V30 64 1 32 60
M  V30 65 1 35 61
M  V30 66 1 35 62
M  V30 67 1 35 63
M  V30 68 1 36 64
M  V30 69 1 36 65
M  V30 70 1 36 66
M  V30 END BOND
M  V30 END CTAB
M  END
>  <Structure No>
2966

>  <LogS>
-7.825073045

>  <MMFF94 Energy>
123.61

$$$$
Compound 2967
Actelion Java MolfileCreator 2.0

  0  0  0  0  0  0              0 V3000
M  V30 BEGIN CTAB
M  V30 COUNTS 27 27 0 0 0
M  V30 BEGIN ATOM
M  V30 1 C -0.157 0.157 0.157 0
M  V30 2 C -1.6836 0.18 -0.1807 0
M  V30 3 C 0.3208 -1.2837 0.51 0
M  V30 4 C 0.7136 0.7356 -0.9847 0
M  V30 5 C -2.5235 -0.3772 0.9843 0
M  V30 6 C -2.1879 1.5954 -0.5199 0
M  V30 7 C 1.823 -1.5307 0.2697 0
M  V30 8 C 2.2065 0.8143 -0.5984 0
M  V30 9 C 2.6355 -0.2469 0.4292 0
M  V30 10 H 0.0032 0.8006 1.0523 0
M  V30 11 H -1.8652 -0.4645 -1.0695 0
M  V30 12 H 0.0991 -1.4769 1.5827 0
M  V30 13 H -0.243 -2.0349 -0.0856 0
M  V30 14 H 0.3916 1.762 -1.2537 0
M  V30 15 H 0.5977 0.0975 -1.8886 0
M  V30 16 H -3.6075 -0.3146 0.7482 0
M  V30 17 H -2.2961 -1.448 1.1638 0
M  V30 18 H -2.3277 0.1964 1.9158 0
M  V30 19 H -3.297 1.6128 -0.5854 0
M  V30 20 H -1.813 1.9208 -1.5117 0
M  V30 21 H -1.8679 2.3234 0.2562 0
M  V30 22 H 1.9758 -1.9293 -0.7577 0
M  V30 23 H 2.1933 -2.2972 0.9848 0
M  V30 24 H 2.4281 1.8199 -0.178 0
M  V30 25 H 2.8177 0.7018 -1.5204 0
M  V30 26 H 3.7169 -0.471 0.3026 0
M  V30 27 H 2.4916 0.1488 1.459 0
M  V30 END ATOM
M  V30 BEGIN BOND
M  V30 1 1 1 2
M  V30 2 1 1 3
M  V30 3 1 1 4
M  V30 4 1 2 5
M  V30 5 1 2 6
M  V30 6 1 3 7
M  V30 7 1 4 8
M  V30 8 1 7 9
M  V30 9 1 8 9
M  V30 10 1 1 10
M  V30 11 1 2 11
M  V30 12 1 3 12
M  V30 13 1 3 13
M  V30 14 1 4 14
M  V30 15 1 4 15
M  V30 16 1 5 16
M  V30 17 1 5 17
M  V30 18 1 5 18
M  V30 19 1 6 19
M  V30 20 1 6 20
M  V30 21 1 6 21
M  V30 22 1 7 22
M  V30 23 1 7 23
M  V30 24 1 8 24
M  V30 25 1 8 25
M  V30 26 1 9 26
M  V30 27 1 9 27
M  V30 END BOND
M  V30 END CTAB
M  END
>  <Structure No>
2967

>  <LogS>
-5.311626594

>  <MMFF94 Energy>
7.671

$$$$
Compound 2968
Actelion Java MolfileCreator 2.0

  0  0  0  0  0  0              0 V3000
M  V30 BEGIN CTAB
M  V30 COUNTS 85 89 0 0 0
M  V30 BEGIN ATOM
M  V30 1 S 9.1663 1.042 3.0483 0
M  V30 2 C 7.9858 1.2212 1.8802 0
M  V30 3 C 10.0895 -0.3311 2.8155 0
M  V30 4 C 7.8157 0.2091 0.9091 0
M  V30 5 C 7.1582 2.3442 1.9137 0
M  V30 6 C 9.8299 -1.1617 1.6925 0
M  V30 7 C 11.1145 -0.6294 3.7196 0
M  V30 8 C 6.7173 0.3365 0.0075 0
M  V30 9 C 8.6821 -0.9486 0.8307 0
M  V30 10 C 6.1325 2.4847 0.9916 0
M  V30 11 C 10.7638 -2.205 1.4536 0
M  V30 12 C 11.9471 -1.7183 3.501 0
M  V30 13 C 5.8834 1.4785 0.0479 0
M  V30 14 C 6.4319 -0.6771 -0.9185 0
M  V30 15 C 8.3396 -1.934 -0.1234 0
M  V30 16 C 11.7885 -2.4948 2.3572 0
M  V30 17 C 4.7854 1.5671 -0.8218 0
M  V30 18 C 5.2838 -0.5752 -1.7357 0
M  V30 19 C 7.2531 -1.8011 -0.9774 0
M  V30 20 O 4.071 2.6045 -0.8073 0
M  V30 21 N 4.4677 0.5249 -1.6571 0
M  V30 22 O 5.0096 -1.5116 -2.5362 0
M  V30 23 C 3.175 0.5497 -2.3727 0
M  V30 24 C 2.0287 0.2987 -1.3824 0
M  V30 25 C 0.6908 0.0686 -2.0934 0
M  V30 26 C -0.466 0.2259 -1.0951 0
M  V30 27 C -1.8252 -0.2197 -1.6578 0
M  V30 28 C -2.2965 0.5292 -2.9195 0
M  V30 29 C -2.2411 2.0688 -2.8443 0
M  V30 30 C -3.1353 2.6832 -1.7554 0
M  V30 31 C -4.6237 2.7193 -2.1614 0
M  V30 32 C -5.5619 2.5359 -0.9623 0
M  V30 33 C -5.6321 1.069 -0.5193 0
M  V30 34 C -6.6134 0.8788 0.6349 0
M  V30 35 C -6.6696 -0.6015 1.0291 0
M  V30 36 C -7.593 -0.8786 2.227 0
M  V30 37 C -9.0773 -0.5319 1.9916 0
M  V30 38 C -9.7189 -1.1816 0.7449 0
M  V30 39 C -9.6037 -2.7143 0.6839 0
M  V30 40 C -10.3272 -3.4129 1.8293 0
M  V30 41 H 7.3094 3.1071 2.6611 0
M  V30 42 H 11.2684 -0.006 4.5895 0
M  V30 43 H 5.5045 3.3665 1.0427 0
M  V30 44 H 10.7716 -2.7861 0.5479 0
M  V30 45 H 12.7437 -1.9438 4.2003 0
M  V30 46 H 8.8539 -2.8685 -0.2087 0
M  V30 47 H 12.4777 -3.2958 2.1485 0
M  V30 48 H 7.0482 -2.6026 -1.6763 0
M  V30 49 H 3.0342 1.538 -2.8671 0
M  V30 50 H 3.1388 -0.2095 -3.1856 0
M  V30 51 H 2.2651 -0.5931 -0.7537 0
M  V30 52 H 1.9469 1.1801 -0.7037 0
M  V30 53 H 0.6866 -0.9585 -2.5221 0
M  V30 54 H 0.5719 0.7957 -2.9235 0
M  V30 55 H -0.5337 1.2807 -0.7459 0
M  V30 56 H -0.2604 -0.3961 -0.1978 0
M  V30 57 H -2.5819 -0.1082 -0.8598 0
M  V30 58 H -1.7834 -1.3076 -1.8867 0
M  V30 59 H -1.6684 0.2005 -3.7735 0
M  V30 60 H -3.3333 0.2012 -3.1403 0
M  V30 61 H -1.1936 2.3949 -2.6759 0
M  V30 62 H -2.5354 2.4722 -3.8354 0
M  V30 63 H -2.9769 2.1641 -0.7921 0
M  V30 64 H -2.8037 3.7282 -1.596 0
M  V30 65 H -4.8595 1.9538 -2.9288 0
M  V30 66 H -4.8322 3.7064 -2.6271 0
M  V30 67 H -6.5814 2.863 -1.259 0
M  V30 68 H -5.2291 3.1793 -0.1155 0
M  V30 69 H -5.9526 0.4416 -1.3787 0
M  V30 70 H -4.6295 0.724 -0.1908 0
M  V30 71 H -6.2881 1.4857 1.5084 0
M  V30 72 H -7.6197 1.2225 0.3101 0
M  V30 73 H -6.9759 -1.2121 0.1576 0
M  V30 74 H -5.6473 -0.9357 1.3123 0
M  V30 75 H -7.5071 -1.9492 2.5016 0
M  V30 76 H -7.2282 -0.2973 3.0978 0
M  V30 77 H -9.644 -0.8372 2.8944 0
M  V30 78 H -9.1831 0.5683 1.915 0
M  V30 79 H -9.2697 -0.7473 -0.1701 0
M  V30 80 H -10.7943 -0.9022 0.7306 0
M  V30 81 H -8.5389 -3.0302 0.6705 0
M  V30 82 H -10.0543 -3.0558 -0.2721 0
M  V30 83 H -9.8323 -3.191 2.7972 0
M  V30 84 H -10.3028 -4.5114 1.666 0
M  V30 85 H -11.3861 -3.0822 1.8739 0
M  V30 END ATOM
M  V30 BEGIN BOND
M  V30 1 1 1 2
M  V30 2 1 1 3
M  V30 3 1 2 4
M  V30 4 2 2 5
M  V30 5 2 3 6
M  V30 6 1 3 7
M  V30 7 1 4 8
M  V30 8 2 4 9
M  V30 9 1 5 10
M  V30 10 1 6 11
M  V30 11 2 7 12
M  V30 12 1 8 13
M  V30 13 2 8 14
M  V30 14 1 9 15
M  V30 15 2 11 16
M  V30 16 1 13 17
M  V30 17 1 14 18
M  V30 18 1 14 19
M  V30 19 2 17 20
M  V30 20 1 17 21
M  V30 21 2 18 22
M  V30 22 1 21 23
M  V30 23 1 23 24
M  V30 24 1 24 25
M  V30 25 1 25 26
M  V30 26 1 26 27
M  V30 27 1 27 28
M  V30 28 1 28 29
M  V30 29 1 29 30
M  V30 30 1 30 31
M  V30 31 1 31 32
M  V30 32 1 32 33
M  V30 33 1 33 34
M  V30 34 1 34 35
M  V30 35 1 35 36
M  V30 36 1 36 37
M  V30 37 1 37 38
M  V30 38 1 38 39
M  V30 39 1 39 40
M  V30 40 1 6 9
M  V30 41 2 10 13
M  V30 42 1 12 16
M  V30 43 2 15 19
M  V30 44 1 18 21
M  V30 45 1 5 41
M  V30 46 1 7 42
M  V30 47 1 10 43
M  V30 48 1 11 44
M  V30 49 1 12 45
M  V30 50 1 15 46
M  V30 51 1 16 47
M  V30 52 1 19 48
M  V30 53 1 23 49
M  V30 54 1 23 50
M  V30 55 1 24 51
M  V30 56 1 24 52
M  V30 57 1 25 53
M  V30 58 1 25 54
M  V30 59 1 26 55
M  V30 60 1 26 56
M  V30 61 1 27 57
M  V30 62 1 27 58
M  V30 63 1 28 59
M  V30 64 1 28 60
M  V30 65 1 29 61
M  V30 66 1 29 62
M  V30 67 1 30 63
M  V30 68 1 30 64
M  V30 69 1 31 65
M  V30 70 1 31 66
M  V30 71 1 32 67
M  V30 72 1 32 68
M  V30 73 1 33 69
M  V30 74 1 33 70
M  V30 75 1 34 71
M  V30 76 1 34 72
M  V30 77 1 35 73
M  V30 78 1 35 74
M  V30 79 1 36 75
M  V30 80 1 36 76
M  V30 81 1 37 77
M  V30 82 1 37 78
M  V30 83 1 38 79
M  V30 84 1 38 80
M  V30 85 1 39 81
M  V30 86 1 39 82
M  V30 87 1 40 83
M  V30 88 1 40 84
M  V30 89 1 40 85
M  V30 END BOND
M  V30 END CTAB
M  END
>  <Structure No>
2968

>  <LogS>
-7.96678917

>  <MMFF94 Energy>
43.393

$$$$
Compound 2969
Actelion Java MolfileCreator 2.0

  0  0  0  0  0  0              0 V3000
M  V30 BEGIN CTAB
M  V30 COUNTS 47 46 0 0 0
M  V30 BEGIN ATOM
M  V30 1 C 0.3106 -0.3882 0.699 0 CFG=1
M  V30 2 C -0.8683 0.0818 1.6016 0
M  V30 3 C 1.5908 0.4242 1.0139 0
M  V30 4 C 0.5544 -1.8991 0.8728 0
M  V30 5 C -2.1857 0.2924 0.8328 0
M  V30 6 C 2.7493 0.1266 0.0471 0
M  V30 7 C -2.7825 -1.0215 0.301 0
M  V30 8 C 3.9249 1.0911 0.2878 0
M  V30 9 C -4.2196 -0.9069 -0.2666 0 CFG=2
M  V30 10 C 5.1529 0.8485 -0.6216 0
M  V30 11 C -4.3468 0.0772 -1.4626 0
M  V30 12 C -5.2746 -0.6937 0.8321 0
M  V30 13 C 5.8024 -0.5209 -0.3796 0
M  V30 14 C 4.8306 1.0466 -2.1089 0
M  V30 15 C -4.7423 1.5134 -1.0988 0
M  V30 16 H 0.0532 -0.2031 -0.3679 0
M  V30 17 H -1.036 -0.6254 2.4443 0
M  V30 18 H -0.6236 1.0561 2.0796 0
M  V30 19 H 1.3478 1.5076 0.9363 0
M  V30 20 H 1.9167 0.2232 2.0587 0
M  V30 21 H 1.2401 -2.2777 0.0873 0
M  V30 22 H -0.3924 -2.468 0.7793 0
M  V30 23 H 0.9914 -2.1125 1.8721 0
M  V30 24 H -1.9993 0.9914 -0.01 0
M  V30 25 H -2.9048 0.7734 1.528 0
M  V30 26 H 3.0942 -0.9151 0.2052 0
M  V30 27 H 2.3842 0.2337 -0.996 0
M  V30 28 H -2.1242 -1.4115 -0.5049 0
M  V30 29 H -2.7849 -1.7785 1.1161 0
M  V30 30 H 4.2479 1.0108 1.3494 0
M  V30 31 H 3.5735 2.1354 0.1345 0
M  V30 32 H -4.437 -1.9149 -0.6875 0
M  V30 33 H 5.908 1.6188 -0.347 0
M  V30 34 H -3.3937 0.0986 -2.0346 0
M  V30 35 H -5.1224 -0.3115 -2.1586 0
M  V30 36 H -6.2929 -0.7253 0.3893 0
M  V30 37 H -5.2053 -1.503 1.5899 0
M  V30 38 H -5.1415 0.2794 1.3467 0
M  V30 39 H 6.7769 -0.5743 -0.9104 0
M  V30 40 H 5.991 -0.6728 0.7044 0
M  V30 41 H 5.1585 -1.3435 -0.7552 0
M  V30 42 H 5.7702 1.0443 -2.7016 0
M  V30 43 H 4.3244 2.0227 -2.2674 0
M  V30 44 H 4.1784 0.2329 -2.4899 0
M  V30 45 H -4.6838 2.1502 -2.0066 0
M  V30 46 H -5.7884 1.5456 -0.7282 0
M  V30 47 H -4.0729 1.9447 -0.3303 0
M  V30 END ATOM
M  V30 BEGIN BOND
M  V30 1 1 1 2
M  V30 2 1 1 3
M  V30 3 1 1 4
M  V30 4 1 2 5
M  V30 5 1 3 6
M  V30 6 1 5 7
M  V30 7 1 6 8
M  V30 8 1 7 9
M  V30 9 1 8 10
M  V30 10 1 9 11
M  V30 11 1 9 12
M  V30 12 1 10 13
M  V30 13 1 10 14
M  V30 14 1 11 15
M  V30 15 1 1 16
M  V30 16 1 2 17
M  V30 17 1 2 18
M  V30 18 1 3 19
M  V30 19 1 3 20
M  V30 20 1 4 21
M  V30 21 1 4 22
M  V30 22 1 4 23
M  V30 23 1 5 24
M  V30 24 1 5 25
M  V30 25 1 6 26
M  V30 26 1 6 27
M  V30 27 1 7 28
M  V30 28 1 7 29
M  V30 29 1 8 30
M  V30 30 1 8 31
M  V30 31 1 9 32
M  V30 32 1 10 33
M  V30 33 1 11 34
M  V30 34 1 11 35
M  V30 35 1 12 36
M  V30 36 1 12 37
M  V30 37 1 12 38
M  V30 38 1 13 39
M  V30 39 1 13 40
M  V30 40 1 13 41
M  V30 41 1 14 42
M  V30 42 1 14 43
M  V30 43 1 14 44
M  V30 44 1 15 45
M  V30 45 1 15 46
M  V30 46 1 15 47
M  V30 END BOND
M  V30 BEGIN COLLECTION
M  V30 MDLV30/STEABS ATOMS=(2 1 9)
M  V30 END COLLECTION
M  V30 END CTAB
M  END
>  <Structure No>
2969

>  <LogS>
-6.61539022

>  <MMFF94 Energy>
12.354

$$$$
Compound 2970
Actelion Java MolfileCreator 2.0

  0  0  0  0  0  0              0 V3000
M  V30 BEGIN CTAB
M  V30 COUNTS 36 37 0 0 0
M  V30 BEGIN ATOM
M  V30 1 O 1.4655 2.1173 2.4434 0
M  V30 2 N 2.7087 2.0103 2.4195 0 CHG=1
M  V30 3 O 3.4645 3.0049 2.9973 0 CHG=-1
M  V30 4 C 3.3467 0.8328 1.8829 0
M  V30 5 C 2.6696 -0.0515 1.0045 0
M  V30 6 C 4.6809 0.5538 2.2351 0
M  V30 7 N 1.326 0.226 0.5887 0 CHG=-1
M  V30 8 C 3.3365 -1.1919 0.5191 0
M  V30 9 C 5.3277 -0.581 1.743 0
M  V30 10 N 0.6221 -0.6203 -0.2812 0
M  V30 11 C 4.6561 -1.4533 0.8889 0
M  V30 12 C -0.5957 -0.401 -0.6918 0
M  V30 13 C -1.3731 0.7938 -0.2703 0
M  V30 14 C -1.2256 -1.375 -1.6284 0
M  V30 15 O -0.9138 1.5889 0.5943 0
M  V30 16 N -2.6666 1.0399 -0.8486 0
M  V30 17 C -2.4542 -1.1322 -2.1434 0
M  V30 18 C -0.4559 -2.6142 -2.044 0
M  V30 19 C -3.2214 0.0752 -1.7615 0
M  V30 20 C -3.4545 2.212 -0.4372 0
M  V30 21 C -3.06 -2.0452 -3.0913 0
M  V30 22 O -4.3754 0.2535 -2.2417 0
M  V30 23 C -4.3099 1.8769 0.7794 0
M  V30 24 N -3.5444 -2.7742 -3.8486 0
M  V30 25 H 5.2231 1.2099 2.9036 0
M  V30 26 H 2.8399 -1.8802 -0.1525 0
M  V30 27 H 6.3521 -0.7851 2.0268 0
M  V30 28 H 5.1603 -2.3325 0.509 0
M  V30 29 H 0.4165 -2.811 -1.3882 0
M  V30 30 H -1.1055 -3.5133 -1.9849 0
M  V30 31 H -0.0927 -2.4933 -3.0861 0
M  V30 32 H -4.1101 2.5524 -1.2679 0
M  V30 33 H -2.7855 3.0661 -0.1953 0
M  V30 34 H -5.0104 1.0492 0.5385 0
M  V30 35 H -3.6636 1.5718 1.6295 0
M  V30 36 H -4.8991 2.7691 1.0794 0
M  V30 END ATOM
M  V30 BEGIN BOND
M  V30 1 2 1 2
M  V30 2 1 2 3
M  V30 3 1 2 4
M  V30 4 2 4 5
M  V30 5 1 4 6
M  V30 6 1 5 7
M  V30 7 1 5 8
M  V30 8 2 6 9
M  V30 9 1 7 10
M  V30 10 2 8 11
M  V30 11 2 10 12
M  V30 12 1 12 13
M  V30 13 1 12 14
M  V30 14 2 13 15
M  V30 15 1 13 16
M  V30 16 2 14 17
M  V30 17 1 14 18
M  V30 18 1 16 19
M  V30 19 1 16 20
M  V30 20 1 17 21
M  V30 21 2 19 22
M  V30 22 1 20 23
M  V30 23 3 21 24
M  V30 24 1 9 11
M  V30 25 1 17 19
M  V30 26 1 6 25
M  V30 27 1 8 26
M  V30 28 1 9 27
M  V30 29 1 11 28
M  V30 30 1 18 29
M  V30 31 1 18 30
M  V30 32 1 18 31
M  V30 33 1 20 32
M  V30 34 1 20 33
M  V30 35 1 23 34
M  V30 36 1 23 35
M  V30 37 1 23 36
M  V30 END BOND
M  V30 END CTAB
M  END
>  <Structure No>
2970

>  <LogS>
-6.815976001

>  <MMFF94 Energy>
60.214

$$$$
Compound 2971
Actelion Java MolfileCreator 2.0

  0  0  0  0  0  0              0 V3000
M  V30 BEGIN CTAB
M  V30 COUNTS 98 102 0 0 0
M  V30 BEGIN ATOM
M  V30 1 Cl 3.1162 0.3276 -2.4596 0
M  V30 2 C 4.7891 -0.2035 -2.3358 0
M  V30 3 C 5.4322 -0.2762 -1.0926 0
M  V30 4 C 5.4772 -0.5572 -3.4991 0
M  V30 5 N 4.722 0.1058 0.0879 0 CHG=-1
M  V30 6 C 6.7668 -0.7049 -1.0268 0
M  V30 7 C 6.8001 -0.9933 -3.4317 0
M  V30 8 N 5.3141 0.1204 1.3588 0
M  V30 9 C 7.4651 -1.0614 -2.1956 0
M  V30 10 C 4.6827 0.5126 2.4262 0
M  V30 11 C 8.8673 -1.5362 -2.127 0
M  V30 12 C 3.2887 1.0207 2.354 0
M  V30 13 C 5.3798 0.4359 3.7301 0
M  V30 14 O 9.3262 -2.2532 -3.058 0
M  V30 15 N 9.7131 -1.1742 -1.0247 0
M  V30 16 O 2.4869 0.7697 3.2945 0
M  V30 17 N 2.871 1.8435 1.2515 0
M  V30 18 O 4.8446 0.9224 4.7646 0
M  V30 19 C 6.7358 -0.1947 3.8366 0
M  V30 20 C 10.8805 -1.9239 -0.6379 0
M  V30 21 C 1.4978 2.0113 0.8432 0
M  V30 22 C 12.0104 -1.2709 -0.0881 0
M  V30 23 C 10.8785 -3.3268 -0.728 0
M  V30 24 C 1.0851 3.1921 0.1845 0
M  V30 25 C 0.5688 0.9696 1.0268 0
M  V30 26 C 13.1099 -2.0349 0.3379 0
M  V30 27 C 12.0559 0.2263 0.0591 0
M  V30 28 C 11.9847 -4.0719 -0.3124 0
M  V30 29 C -0.2453 3.3214 -0.2396 0
M  V30 30 C 2.0511 4.3149 -0.0814 0
M  V30 31 C -0.7668 1.1108 0.62 0
M  V30 32 C 13.0981 -3.4253 0.2188 0
M  V30 33 Cl 11.9652 -5.8226 -0.4491 0
M  V30 34 C -1.1791 2.3004 -0.0162 0
M  V30 35 C -1.738 -0.0194 0.8411 0
M  V30 36 N -2.5241 2.4373 -0.511 0
M  V30 37 C -3.2606 3.6706 -0.4397 0
M  V30 38 O -2.9049 4.5713 0.367 0
M  V30 39 C -4.4112 3.9204 -1.3386 0
M  V30 40 N -5.3572 3.0436 -1.501 0
M  V30 41 C -4.4888 5.1948 -2.084 0
M  V30 42 N -5.4418 1.8522 -0.766 0 CHG=-1
M  V30 43 O -3.5388 6.0224 -2.022 0
M  V30 44 C -5.6813 5.5146 -2.9327 0
M  V30 45 C -6.3751 0.8283 -1.1152 0
M  V30 46 C -6.6097 0.4642 -2.4583 0
M  V30 47 C -7.0779 0.181 -0.0896 0
M  V30 48 Cl -5.6824 1.1472 -3.7871 0
M  V30 49 C -7.5544 -0.5222 -2.7505 0
M  V30 50 C -8.0586 -0.7832 -0.3876 0
M  V30 51 C -8.2761 -1.1387 -1.7287 0
M  V30 52 C -8.8436 -1.4104 0.7041 0
M  V30 53 O -8.3384 -1.4909 1.8569 0
M  V30 54 N -10.1672 -1.9209 0.4665 0
M  V30 55 C -10.9578 -2.5731 1.4743 0
M  V30 56 C -11.6409 -3.7741 1.1798 0
M  V30 57 C -11.1147 -1.9799 2.7399 0
M  V30 58 C -12.4571 -4.3632 2.1593 0
M  V30 59 C -11.5199 -4.4233 -0.172 0
M  V30 60 C -11.9224 -2.5809 3.7081 0
M  V30 61 C -12.5869 -3.7754 3.4194 0
M  V30 62 Cl -12.0969 -1.8357 5.2872 0
M  V30 63 H 4.9848 -0.491 -4.4577 0
M  V30 64 H 7.254 -0.7804 -0.064 0
M  V30 65 H 7.3129 -1.2624 -4.3467 0
M  V30 66 H 9.4906 -0.2937 -0.5087 0
M  V30 67 H 3.6169 2.3703 0.7456 0
M  V30 68 H 6.7012 -1.2342 3.448 0
M  V30 69 H 7.4728 0.3918 3.2498 0
M  V30 70 H 7.067 -0.2298 4.8922 0
M  V30 71 H 10.0059 -3.8453 -1.0972 0
M  V30 72 H 0.8933 0.0271 1.4571 0
M  V30 73 H 13.981 -1.5538 0.7611 0
M  V30 74 H 11.3509 0.5431 0.8554 0
M  V30 75 H 11.7729 0.7117 -0.8977 0
M  V30 76 H 13.0749 0.5785 0.332 0
M  V30 77 H -0.5512 4.2111 -0.7754 0
M  V30 78 H 2.8275 3.9753 -0.7931 0
M  V30 79 H 2.5231 4.6356 0.8695 0
M  V30 80 H 1.5471 5.1998 -0.5243 0
M  V30 81 H 13.9529 -3.9982 0.5542 0
M  V30 82 H -2.6883 0.3756 1.2632 0
M  V30 83 H -1.9517 -0.5211 -0.1275 0
M  V30 84 H -1.3325 -0.7675 1.5524 0
M  V30 85 H -2.935 1.633 -1.031 0
M  V30 86 H -5.7377 4.797 -3.7772 0
M  V30 87 H -6.6071 5.4399 -2.323 0
M  V30 88 H -5.6035 6.5434 -3.3432 0
M  V30 89 H -6.8904 0.4662 0.9407 0
M  V30 90 H -7.7268 -0.8242 -3.7754 0
M  V30 91 H -8.9852 -1.9103 -1.9968 0
M  V30 92 H -10.5851 -1.8311 -0.4839 0
M  V30 93 H -10.6246 -1.0421 2.9671 0
M  V30 94 H -12.9933 -5.2787 1.9481 0
M  V30 95 H -12.1315 -3.8628 -0.9118 0
M  V30 96 H -11.8712 -5.4781 -0.1492 0
M  V30 97 H -10.4587 -4.4309 -0.5058 0
M  V30 98 H -13.21 -4.2441 4.1687 0
M  V30 END ATOM
M  V30 BEGIN BOND
M  V30 1 1 1 2
M  V30 2 2 2 3
M  V30 3 1 2 4
M  V30 4 1 3 5
M  V30 5 1 3 6
M  V30 6 2 4 7
M  V30 7 1 5 8
M  V30 8 2 6 9
M  V30 9 2 8 10
M  V30 10 1 9 11
M  V30 11 1 10 12
M  V30 12 1 10 13
M  V30 13 2 11 14
M  V30 14 1 11 15
M  V30 15 2 12 16
M  V30 16 1 12 17
M  V30 17 2 13 18
M  V30 18 1 13 19
M  V30 19 1 15 20
M  V30 20 1 17 21
M  V30 21 2 20 22
M  V30 22 1 20 23
M  V30 23 2 21 24
M  V30 24 1 21 25
M  V30 25 1 22 26
M  V30 26 1 22 27
M  V30 27 2 23 28
M  V30 28 1 24 29
M  V30 29 1 24 30
M  V30 30 2 25 31
M  V30 31 2 26 32
M  V30 32 1 28 33
M  V30 33 2 29 34
M  V30 34 1 31 35
M  V30 35 1 34 36
M  V30 36 1 36 37
M  V30 37 2 37 38
M  V30 38 1 37 39
M  V30 39 2 39 40
M  V30 40 1 39 41
M  V30 41 1 40 42
M  V30 42 2 41 43
M  V30 43 1 41 44
M  V30 44 1 42 45
M  V30 45 2 45 46
M  V30 46 1 45 47
M  V30 47 1 46 48
M  V30 48 1 46 49
M  V30 49 2 47 50
M  V30 50 2 49 51
M  V30 51 1 50 52
M  V30 52 2 52 53
M  V30 53 1 52 54
M  V30 54 1 54 55
M  V30 55 2 55 56
M  V30 56 1 55 57
M  V30 57 1 56 58
M  V30 58 1 56 59
M  V30 59 2 57 60
M  V30 60 2 58 61
M  V30 61 1 60 62
M  V30 62 1 7 9
M  V30 63 1 28 32
M  V30 64 1 31 34
M  V30 65 1 50 51
M  V30 66 1 60 61
M  V30 67 1 4 63
M  V30 68 1 6 64
M  V30 69 1 7 65
M  V30 70 1 15 66
M  V30 71 1 17 67
M  V30 72 1 19 68
M  V30 73 1 19 69
M  V30 74 1 19 70
M  V30 75 1 23 71
M  V30 76 1 25 72
M  V30 77 1 26 73
M  V30 78 1 27 74
M  V30 79 1 27 75
M  V30 80 1 27 76
M  V30 81 1 29 77
M  V30 82 1 30 78
M  V30 83 1 30 79
M  V30 84 1 30 80
M  V30 85 1 32 81
M  V30 86 1 35 82
M  V30 87 1 35 83
M  V30 88 1 35 84
M  V30 89 1 36 85
M  V30 90 1 44 86
M  V30 91 1 44 87
M  V30 92 1 44 88
M  V30 93 1 47 89
M  V30 94 1 49 90
M  V30 95 1 51 91
M  V30 96 1 54 92
M  V30 97 1 57 93
M  V30 98 1 58 94
M  V30 99 1 59 95
M  V30 100 1 59 96
M  V30 101 1 59 97
M  V30 102 1 61 98
M  V30 END BOND
M  V30 END CTAB
M  END
>  <Structure No>
2971

>  <LogS>
-7.263233538

>  <MMFF94 Energy>
200.6

$$$$
Compound 2972
Actelion Java MolfileCreator 2.0

  0  0  0  0  0  0              0 V3000
M  V30 BEGIN CTAB
M  V30 COUNTS 74 73 0 0 0
M  V30 BEGIN ATOM
M  V30 1 Cl 1.3853 3.0986 -2.7721 0
M  V30 2 C 1.2389 2.7228 -1.0254 0 CFG=1
M  V30 3 C -0.1496 3.1198 -0.4796 0
M  V30 4 C 1.5746 1.2423 -0.7419 0
M  V30 5 C -1.3338 2.4932 -1.2473 0
M  V30 6 C 3.0351 0.8511 -1.0434 0
M  V30 7 C -2.7114 2.729 -0.5918 0 CFG=2
M  V30 8 C 4.0726 1.554 -0.1329 0 CFG=2
M  V30 9 Cl -3.0358 4.4758 -0.3654 0
M  V30 10 C -2.8684 1.9534 0.7352 0
M  V30 11 Cl 4.7071 3.0404 -0.9102 0
M  V30 12 C 5.2398 0.6278 0.2686 0
M  V30 13 C -4.3079 1.9302 1.2945 0
M  V30 14 C 6.0742 0.1221 -0.9276 0
M  V30 15 C -5.3653 1.2686 0.3814 0 CFG=2
M  V30 16 C 7.1659 -0.8785 -0.504 0
M  V30 17 Cl -6.9558 1.3073 1.1928 0
M  V30 18 C -5.0095 -0.1519 -0.1297 0
M  V30 19 C 8.3873 -0.2146 0.1683 0 CFG=2
M  V30 20 C -4.6189 -1.1993 0.9379 0
M  V30 21 Cl 9.314 0.7766 -1.0007 0
M  V30 22 C 9.306 -1.2255 0.896 0
M  V30 23 C -5.7744 -1.8253 1.7522 0
M  V30 24 C 9.7061 -2.4901 0.1068 0
M  V30 25 C -6.81 -2.6949 0.9836 0 CFG=2
M  V30 26 C 10.627 -2.2085 -1.0793 0
M  V30 27 Cl -6.0964 -3.568 -0.4119 0
M  V30 28 C -8.0701 -1.9068 0.5688 0
M  V30 29 C -9.212 -2.8302 0.1175 0
M  V30 30 C -10.4788 -2.0298 -0.1762 0
M  V30 31 H 1.9743 3.362 -0.4931 0
M  V30 32 H -0.1954 2.8458 0.5952 0
M  V30 33 H -0.2351 4.2261 -0.5326 0
M  V30 34 H 0.9186 0.59 -1.3576 0
M  V30 35 H 1.358 1.0108 0.325 0
M  V30 36 H -1.3668 2.926 -2.2704 0
M  V30 37 H -1.1854 1.3992 -1.3621 0
M  V30 38 H 3.2684 1.0336 -2.1141 0
M  V30 39 H 3.0997 -0.2496 -0.8936 0
M  V30 40 H -3.4594 2.3554 -1.3199 0
M  V30 41 H 3.5766 1.8707 0.812 0
M  V30 42 H -2.2247 2.4204 1.5087 0
M  V30 43 H -2.5047 0.9128 0.607 0
M  V30 44 H 5.8921 1.1893 0.9674 0
M  V30 45 H 4.8283 -0.2412 0.8297 0
M  V30 46 H -4.6261 2.9759 1.5021 0
M  V30 47 H -4.2956 1.4109 2.2781 0
M  V30 48 H 5.4036 -0.4003 -1.6422 0
M  V30 49 H 6.5319 0.9754 -1.4714 0
M  V30 50 H -5.5027 1.9151 -0.5118 0
M  V30 51 H 7.5076 -1.4182 -1.414 0
M  V30 52 H 6.7206 -1.6343 0.1788 0
M  V30 53 H -4.1473 -0.0502 -0.8236 0
M  V30 54 H -5.8247 -0.5373 -0.7679 0
M  V30 55 H 8.0314 0.4904 0.9466 0
M  V30 56 H -4.0551 -2.0136 0.435 0
M  V30 57 H -3.8926 -0.7595 1.6521 0
M  V30 58 H 10.2235 -0.7026 1.249 0
M  V30 59 H 8.7727 -1.5646 1.8121 0
M  V30 60 H -5.2912 -2.4909 2.5017 0
M  V30 61 H -6.2822 -1.047 2.3566 0
M  V30 62 H 8.8082 -3.0426 -0.2396 0
M  V30 63 H 10.2465 -3.1655 0.8037 0
M  V30 64 H -7.1444 -3.4821 1.6948 0
M  V30 65 H 11.0588 -3.1643 -1.4464 0
M  V30 66 H 10.0551 -1.7505 -1.9136 0
M  V30 67 H 11.4613 -1.5366 -0.7805 0
M  V30 68 H -8.4277 -1.3121 1.4375 0
M  V30 69 H -7.8379 -1.2075 -0.2571 0
M  V30 70 H -8.9162 -3.3771 -0.8051 0
M  V30 71 H -9.4367 -3.5749 0.9145 0
M  V30 72 H -10.8086 -1.4819 0.734 0
M  V30 73 H -10.2934 -1.3037 -0.9974 0
M  V30 74 H -11.2933 -2.7189 -0.49 0
M  V30 END ATOM
M  V30 BEGIN BOND
M  V30 1 1 1 2
M  V30 2 1 2 3
M  V30 3 1 2 4
M  V30 4 1 3 5
M  V30 5 1 4 6
M  V30 6 1 5 7
M  V30 7 1 6 8
M  V30 8 1 7 9
M  V30 9 1 7 10
M  V30 10 1 8 11
M  V30 11 1 8 12
M  V30 12 1 10 13
M  V30 13 1 12 14
M  V30 14 1 13 15
M  V30 15 1 14 16
M  V30 16 1 15 17
M  V30 17 1 15 18
M  V30 18 1 16 19
M  V30 19 1 18 20
M  V30 20 1 19 21
M  V30 21 1 19 22
M  V30 22 1 20 23
M  V30 23 1 22 24
M  V30 24 1 23 25
M  V30 25 1 24 26
M  V30 26 1 25 27
M  V30 27 1 25 28
M  V30 28 1 28 29
M  V30 29 1 29 30
M  V30 30 1 2 31
M  V30 31 1 3 32
M  V30 32 1 3 33
M  V30 33 1 4 34
M  V30 34 1 4 35
M  V30 35 1 5 36
M  V30 36 1 5 37
M  V30 37 1 6 38
M  V30 38 1 6 39
M  V30 39 1 7 40
M  V30 40 1 8 41
M  V30 41 1 10 42
M  V30 42 1 10 43
M  V30 43 1 12 44
M  V30 44 1 12 45
M  V30 45 1 13 46
M  V30 46 1 13 47
M  V30 47 1 14 48
M  V30 48 1 14 49
M  V30 49 1 15 50
M  V30 50 1 16 51
M  V30 51 1 16 52
M  V30 52 1 18 53
M  V30 53 1 18 54
M  V30 54 1 19 55
M  V30 55 1 20 56
M  V30 56 1 20 57
M  V30 57 1 22 58
M  V30 58 1 22 59
M  V30 59 1 23 60
M  V30 60 1 23 61
M  V30 61 1 24 62
M  V30 62 1 24 63
M  V30 63 1 25 64
M  V30 64 1 26 65
M  V30 65 1 26 66
M  V30 66 1 26 67
M  V30 67 1 28 68
M  V30 68 1 28 69
M  V30 69 1 29 70
M  V30 70 1 29 71
M  V30 71 1 30 72
M  V30 72 1 30 73
M  V30 73 1 30 74
M  V30 END BOND
M  V30 BEGIN COLLECTION
M  V30 MDLV30/STEABS ATOMS=(6 2 7 8 15 19 25)
M  V30 END COLLECTION
M  V30 END CTAB
M  END
>  <Structure No>
2972

>  <LogS>
-7.965810564

>  <MMFF94 Energy>
24.418

$$$$
Compound 2973
Actelion Java MolfileCreator 2.0

  0  0  0  0  0  0              0 V3000
M  V30 BEGIN CTAB
M  V30 COUNTS 76 79 0 0 0
M  V30 BEGIN ATOM
M  V30 1 Cl 2.7688 0.0 3.4212 0
M  V30 2 C 2.2816 0.7036 1.8817 0
M  V30 3 C 3.2138 1.1542 0.9195 0
M  V30 4 C 0.9115 0.7565 1.5973 0
M  V30 5 N 4.6287 1.1418 1.1465 0 CHG=-1
M  V30 6 C 2.7493 1.623 -0.3152 0
M  V30 7 C 0.4501 1.2606 0.3716 0
M  V30 8 N 5.1922 1.288 2.4216 0
M  V30 9 C 1.3806 1.6918 -0.5839 0
M  V30 10 C -1.0012 1.3344 0.0949 0
M  V30 11 C 6.4697 1.1967 2.6439 0
M  V30 12 C -1.8289 0.2253 0.3372 0
M  V30 13 C -1.5698 2.5193 -0.3967 0
M  V30 14 C 7.4134 0.8413 1.5656 0
M  V30 15 C 6.9842 1.4478 4.0064 0
M  V30 16 C -3.2043 0.2985 0.0901 0
M  V30 17 C -2.9461 2.6019 -0.6223 0
M  V30 18 O 8.3772 1.613 1.3139 0
M  V30 19 N 7.2317 -0.3716 0.8166 0
M  V30 20 O 8.2134 1.3113 4.2495 0
M  V30 21 C 6.0618 1.8377 5.1198 0
M  V30 22 Cl -4.2075 -1.1146 0.3917 0
M  V30 23 C -3.7719 1.4936 -0.3766 0
M  V30 24 C 8.268 -1.0213 0.058 0
M  V30 25 N -5.1847 1.5664 -0.5876 0 CHG=-1
M  V30 26 C 9.6246 -0.9054 0.4104 0
M  V30 27 C 7.9122 -1.8592 -1.0095 0
M  V30 28 N -5.847 2.778 -0.8334 0
M  V30 29 C 10.6037 -1.5941 -0.3111 0
M  V30 30 C 8.8918 -2.5501 -1.7293 0
M  V30 31 C -7.1293 2.8434 -1.0428 0
M  V30 32 C 10.2495 -2.4218 -1.3817 0
M  V30 33 C -7.9539 1.6148 -1.1103 0
M  V30 34 C -7.7663 4.1722 -1.1814 0
M  V30 35 O 11.2686 -3.1036 -2.0628 0
M  V30 36 O -9.0817 1.5899 -0.5473 0
M  V30 37 N -7.4994 0.4799 -1.8625 0
M  V30 38 O -8.9935 4.2588 -1.4572 0
M  V30 39 C -6.968 5.429 -1.0098 0
M  V30 40 C 11.0495 -3.9993 -3.1463 0
M  V30 41 C -8.0115 -0.85 -1.6854 0
M  V30 42 C -8.0814 -1.7145 -2.7865 0
M  V30 43 C -8.3825 -1.3248 -0.4168 0
M  V30 44 C -8.5498 -3.0219 -2.6312 0
M  V30 45 C -8.8399 -2.6368 -0.2593 0
M  V30 46 C -8.9296 -3.4962 -1.3708 0
M  V30 47 O -9.383 -4.8201 -1.2644 0
M  V30 48 C -9.7324 -5.4523 -0.0389 0
M  V30 49 H 0.2023 0.4132 2.3407 0
M  V30 50 H 3.454 1.9564 -1.0659 0
M  V30 51 H 1.048 2.0673 -1.5437 0
M  V30 52 H -1.4044 -0.7006 0.7037 0
M  V30 53 H -0.9524 3.3892 -0.5842 0
M  V30 54 H -3.3638 3.5306 -0.9892 0
M  V30 55 H 6.2983 -0.8398 0.8548 0
M  V30 56 H 6.6379 2.0634 6.0426 0
M  V30 57 H 5.4842 2.7415 4.8344 0
M  V30 58 H 5.36 1.0042 5.33 0
M  V30 59 H 9.9304 -0.3168 1.2634 0
M  V30 60 H 6.8715 -1.979 -1.2822 0
M  V30 61 H 11.6434 -1.4992 -0.0234 0
M  V30 62 H 8.5825 -3.1865 -2.5472 0
M  V30 63 H -6.8134 0.6468 -2.6334 0
M  V30 64 H -6.4819 5.429 -0.0128 0
M  V30 65 H -7.6225 6.3232 -1.0841 0
M  V30 66 H -6.1876 5.486 -1.7976 0
M  V30 67 H 10.4166 -4.8496 -2.817 0
M  V30 68 H 10.5646 -3.4665 -3.9903 0
M  V30 69 H 12.0261 -4.3964 -3.4905 0
M  V30 70 H -7.7826 -1.3705 -3.7692 0
M  V30 71 H -8.295 -0.6912 0.456 0
M  V30 72 H -8.61 -3.674 -3.4932 0
M  V30 73 H -9.115 -2.9738 0.7306 0
M  V30 74 H -8.8568 -5.4707 0.6429 0
M  V30 75 H -10.0452 -6.4968 -0.2451 0
M  V30 76 H -10.5795 -4.9175 0.4382 0
M  V30 END ATOM
M  V30 BEGIN BOND
M  V30 1 1 1 2
M  V30 2 2 2 3
M  V30 3 1 2 4
M  V30 4 1 3 5
M  V30 5 1 3 6
M  V30 6 2 4 7
M  V30 7 1 5 8
M  V30 8 2 6 9
M  V30 9 1 7 10
M  V30 10 2 8 11
M  V30 11 2 10 12
M  V30 12 1 10 13
M  V30 13 1 11 14
M  V30 14 1 11 15
M  V30 15 1 12 16
M  V30 16 2 13 17
M  V30 17 2 14 18
M  V30 18 1 14 19
M  V30 19 2 15 20
M  V30 20 1 15 21
M  V30 21 1 16 22
M  V30 22 2 16 23
M  V30 23 1 19 24
M  V30 24 1 23 25
M  V30 25 2 24 26
M  V30 26 1 24 27
M  V30 27 1 25 28
M  V30 28 1 26 29
M  V30 29 2 27 30
M  V30 30 2 28 31
M  V30 31 2 29 32
M  V30 32 1 31 33
M  V30 33 1 31 34
M  V30 34 1 32 35
M  V30 35 2 33 36
M  V30 36 1 33 37
M  V30 37 2 34 38
M  V30 38 1 34 39
M  V30 39 1 35 40
M  V30 40 1 37 41
M  V30 41 2 41 42
M  V30 42 1 41 43
M  V30 43 1 42 44
M  V30 44 2 43 45
M  V30 45 2 44 46
M  V30 46 1 46 47
M  V30 47 1 47 48
M  V30 48 1 7 9
M  V30 49 1 17 23
M  V30 50 1 30 32
M  V30 51 1 45 46
M  V30 52 1 4 49
M  V30 53 1 6 50
M  V30 54 1 9 51
M  V30 55 1 12 52
M  V30 56 1 13 53
M  V30 57 1 17 54
M  V30 58 1 19 55
M  V30 59 1 21 56
M  V30 60 1 21 57
M  V30 61 1 21 58
M  V30 62 1 26 59
M  V30 63 1 27 60
M  V30 64 1 29 61
M  V30 65 1 30 62
M  V30 66 1 37 63
M  V30 67 1 39 64
M  V30 68 1 39 65
M  V30 69 1 39 66
M  V30 70 1 40 67
M  V30 71 1 40 68
M  V30 72 1 40 69
M  V30 73 1 42 70
M  V30 74 1 43 71
M  V30 75 1 44 72
M  V30 76 1 45 73
M  V30 77 1 48 74
M  V30 78 1 48 75
M  V30 79 1 48 76
M  V30 END BOND
M  V30 END CTAB
M  END
>  <Structure No>
2973

>  <LogS>
-8.540480954

>  <MMFF94 Energy>
191.75

$$$$
Compound 2974
Actelion Java MolfileCreator 2.0

  0  0  0  0  0  0              0 V3000
M  V30 BEGIN CTAB
M  V30 COUNTS 42 46 0 0 0
M  V30 BEGIN ATOM
M  V30 1 O 2.6631 -1.9363 1.3712 0
M  V30 2 C 2.5274 -0.8957 0.668 0
M  V30 3 C 1.2418 -0.452 0.3024 0
M  V30 4 C 3.6609 -0.175 0.2477 0
M  V30 5 C 1.1157 0.7146 -0.4848 0
M  V30 6 C 0.0845 -1.1436 0.7033 0
M  V30 7 C 3.483 0.9859 -0.5399 0
M  V30 8 C 4.9644 -0.5844 0.591 0
M  V30 9 N 2.2286 1.3966 -0.8819 0
M  V30 10 C -0.158 1.1704 -0.8577 0
M  V30 11 C -1.1891 -0.6879 0.3304 0
M  V30 12 C 4.6045 1.7106 -0.9718 0
M  V30 13 C 6.0785 0.1566 0.1697 0
M  V30 14 C -1.3153 0.4788 -0.4568 0
M  V30 15 N -2.3021 -1.3698 0.7276 0
M  V30 16 C 5.8913 1.2953 -0.6252 0
M  V30 17 C 7.4646 -0.3077 0.507 0
M  V30 18 C -2.6009 0.9224 -0.8224 0
M  V30 19 C -3.5566 -0.9591 0.3856 0
M  V30 20 O -2.7366 1.963 -1.5256 0
M  V30 21 C -3.7345 0.2019 -0.402 0
M  V30 22 C -4.6782 -1.6837 0.8176 0
M  V30 23 C -5.0381 0.6113 -0.7452 0
M  V30 24 C -5.9651 -1.2683 0.4711 0
M  V30 25 C -6.1522 -0.1297 -0.3238 0
M  V30 26 C -7.5384 0.3349 -0.661 0
M  V30 27 H 0.1673 -2.0397 1.3073 0
M  V30 28 H 5.1194 -1.4769 1.1858 0
M  V30 29 H 2.1173 2.2582 -1.4658 0
M  V30 30 H -0.2409 2.0665 -1.4616 0
M  V30 31 H 4.4829 2.5974 -1.5815 0
M  V30 32 H -2.191 -2.2313 1.3115 0
M  V30 33 H 6.7434 1.8637 -0.9769 0
M  V30 34 H 7.8154 -1.0172 -0.271 0
M  V30 35 H 7.4771 -0.8168 1.4943 0
M  V30 36 H 8.1664 0.5518 0.5563 0
M  V30 37 H -4.5567 -2.5704 1.4275 0
M  V30 38 H -5.1932 1.5038 -1.3399 0
M  V30 39 H -6.8173 -1.8367 0.823 0
M  V30 40 H -7.551 0.8439 -1.6482 0
M  V30 41 H -8.2403 -0.5247 -0.7102 0
M  V30 42 H -7.8892 1.0445 0.1169 0
M  V30 END ATOM
M  V30 BEGIN BOND
M  V30 1 2 1 2
M  V30 2 1 2 3
M  V30 3 1 2 4
M  V30 4 2 3 5
M  V30 5 1 3 6
M  V30 6 2 4 7
M  V30 7 1 4 8
M  V30 8 1 5 9
M  V30 9 1 5 10
M  V30 10 2 6 11
M  V30 11 1 7 12
M  V30 12 2 8 13
M  V30 13 2 10 14
M  V30 14 1 11 15
M  V30 15 2 12 16
M  V30 16 1 13 17
M  V30 17 1 14 18
M  V30 18 1 15 19
M  V30 19 2 18 20
M  V30 20 1 18 21
M  V30 21 1 19 22
M  V30 22 1 21 23
M  V30 23 2 22 24
M  V30 24 2 23 25
M  V30 25 1 25 26
M  V30 26 1 7 9
M  V30 27 1 11 14
M  V30 28 1 13 16
M  V30 29 2 19 21
M  V30 30 1 24 25
M  V30 31 1 6 27
M  V30 32 1 8 28
M  V30 33 1 9 29
M  V30 34 1 10 30
M  V30 35 1 12 31
M  V30 36 1 15 32
M  V30 37 1 16 33
M  V30 38 1 17 34
M  V30 39 1 17 35
M  V30 40 1 17 36
M  V30 41 1 22 37
M  V30 42 1 23 38
M  V30 43 1 24 39
M  V30 44 1 26 40
M  V30 45 1 26 41
M  V30 46 1 26 42
M  V30 END BOND
M  V30 END CTAB
M  END
>  <Structure No>
2974

>  <LogS>
-7.783778559

>  <MMFF94 Energy>
102.72

$$$$
Compound 2975
Actelion Java MolfileCreator 2.0

  0  0  0  0  0  0              0 V3000
M  V30 BEGIN CTAB
M  V30 COUNTS 45 48 0 0 0
M  V30 BEGIN ATOM
M  V30 1 Cl -5.4309 -0.4106 2.0546 0
M  V30 2 C -5.3465 0.9328 0.9232 0
M  V30 3 C -4.2308 1.0971 0.0848 0
M  V30 4 C -6.4102 1.8408 0.8621 0
M  V30 5 N -3.1502 0.1585 0.1605 0
M  V30 6 C -4.1966 2.1808 -0.8135 0
M  V30 7 C -6.3687 2.914 -0.0313 0
M  V30 8 N -2.1332 0.2303 -0.6002 0
M  V30 9 C -5.2631 3.0848 -0.8692 0
M  V30 10 C -1.0532 -0.7116 -0.5212 0
M  V30 11 Cl -5.2128 4.4333 -1.9904 0
M  V30 12 C 0.2656 -0.2129 -0.5686 0
M  V30 13 C -1.2728 -2.1106 -0.3974 0
M  V30 14 O 0.4996 1.1466 -0.7969 0
M  V30 15 C 1.3609 -1.0805 -0.3966 0
M  V30 16 C -0.1583 -2.9743 -0.2351 0
M  V30 17 C -2.5612 -2.6849 -0.4809 0
M  V30 18 C 2.7516 -0.5774 -0.4017 0
M  V30 19 C 1.1396 -2.4523 -0.2325 0
M  V30 20 C -0.353 -4.358 -0.093 0
M  V30 21 C -2.7374 -4.0638 -0.342 0
M  V30 22 O 3.6181 -1.1875 -1.0851 0
M  V30 23 N 3.1147 0.5856 0.3641 0
M  V30 24 C -1.6385 -4.8964 -0.1383 0
M  V30 25 C 4.4473 1.1201 0.4342 0
M  V30 26 C 4.6272 2.5115 0.4821 0
M  V30 27 C 5.5732 0.2802 0.5229 0
M  V30 28 C 5.9116 3.0566 0.5748 0
M  V30 29 C 6.8562 0.8292 0.6166 0
M  V30 30 C 7.0257 2.216 0.6375 0
M  V30 31 H -7.2707 1.7151 1.5071 0
M  V30 32 H -3.3462 2.3264 -1.4675 0
M  V30 33 H -7.1959 3.6114 -0.0716 0
M  V30 34 H -0.2456 1.8175 -0.9387 0
M  V30 35 H -3.4398 -2.0923 -0.686 0
M  V30 36 H 1.987 -3.1175 -0.1042 0
M  V30 37 H 0.4905 -5.0246 0.0431 0
M  V30 38 H -3.7309 -4.4896 -0.4034 0
M  V30 39 H 2.3616 1.1125 0.8606 0
M  V30 40 H -1.7818 -5.9641 -0.0331 0
M  V30 41 H 3.7707 3.1728 0.4365 0
M  V30 42 H 5.4629 -0.7953 0.5493 0
M  V30 43 H 6.0427 4.1308 0.6006 0
M  V30 44 H 7.7188 0.1787 0.6834 0
M  V30 45 H 8.0193 2.6389 0.7119 0
M  V30 END ATOM
M  V30 BEGIN BOND
M  V30 1 1 1 2
M  V30 2 2 2 3
M  V30 3 1 2 4
M  V30 4 1 3 5
M  V30 5 1 3 6
M  V30 6 2 4 7
M  V30 7 2 5 8
M  V30 8 2 6 9
M  V30 9 1 8 10
M  V30 10 1 9 11
M  V30 11 2 10 12
M  V30 12 1 10 13
M  V30 13 1 12 14
M  V30 14 1 12 15
M  V30 15 1 13 16
M  V30 16 2 13 17
M  V30 17 1 15 18
M  V30 18 2 15 19
M  V30 19 2 16 20
M  V30 20 1 17 21
M  V30 21 2 18 22
M  V30 22 1 18 23
M  V30 23 1 20 24
M  V30 24 1 23 25
M  V30 25 2 25 26
M  V30 26 1 25 27
M  V30 27 1 26 28
M  V30 28 2 27 29
M  V30 29 2 28 30
M  V30 30 1 7 9
M  V30 31 1 16 19
M  V30 32 2 21 24
M  V30 33 1 29 30
M  V30 34 1 4 31
M  V30 35 1 6 32
M  V30 36 1 7 33
M  V30 37 1 14 34
M  V30 38 1 17 35
M  V30 39 1 19 36
M  V30 40 1 20 37
M  V30 41 1 21 38
M  V30 42 1 23 39
M  V30 43 1 24 40
M  V30 44 1 26 41
M  V30 45 1 27 42
M  V30 46 1 28 43
M  V30 47 1 29 44
M  V30 48 1 30 45
M  V30 END BOND
M  V30 END CTAB
M  END
>  <Structure No>
2975

>  <LogS>
-7.907389462

>  <MMFF94 Energy>
78.236

$$$$
Compound 2976
Actelion Java MolfileCreator 2.0

  0  0  0  0  0  0              0 V3000
M  V30 BEGIN CTAB
M  V30 COUNTS 74 77 0 0 0
M  V30 BEGIN ATOM
M  V30 1 Cl -2.7701 0.4884 2.6886 0
M  V30 2 C -2.3987 0.2931 0.9791 0
M  V30 3 C -3.4032 0.244 -0.0117 0
M  V30 4 C -1.0548 0.127 0.6167 0
M  V30 5 N -4.7916 0.4432 0.2793 0 CHG=-1
M  V30 6 C -3.0417 -0.005 -1.3395 0
M  V30 7 C -0.6887 -0.0791 -0.7268 0
M  V30 8 N -5.2371 1.2812 1.3133 0
M  V30 9 C -1.7007 -0.1502 -1.6987 0
M  V30 10 C 0.7418 -0.2086 -1.1163 0
M  V30 11 C -6.4967 1.4995 1.5562 0
M  V30 12 C 1.7283 0.5694 -0.4858 0
M  V30 13 C 1.1292 -1.0857 -2.1428 0
M  V30 14 C -7.5563 0.8851 0.7155 0
M  V30 15 C -6.8385 2.3932 2.6852 0
M  V30 16 C 3.0727 0.4861 -0.8739 0
M  V30 17 C 2.4634 -1.1626 -2.5455 0
M  V30 18 O -7.3803 0.7901 -0.5302 0
M  V30 19 N -8.7898 0.4348 1.3054 0
M  V30 20 O -6.0384 2.4946 3.6539 0
M  V30 21 C -8.0982 3.2085 2.7041 0
M  V30 22 Cl 4.2101 1.5634 -0.0683 0
M  V30 23 C 3.4479 -0.391 -1.9189 0
M  V30 24 C -9.8315 -0.2151 0.561 0
M  V30 25 N 4.7897 -0.4943 -2.4151 0 CHG=-1
M  V30 26 C -9.5369 -1.2193 -0.3789 0
M  V30 27 C -11.1711 0.1017 0.8289 0
M  V30 28 N 5.9212 -0.1079 -1.6844 0
M  V30 29 C -10.5689 -1.8587 -1.0743 0
M  V30 30 C -12.2022 -0.5324 0.1286 0
M  V30 31 C 7.12 -0.0628 -2.1908 0
M  V30 32 C -11.9076 -1.5018 -0.842 0
M  V30 33 C 8.2393 0.2993 -1.2925 0
M  V30 34 C 7.3715 -0.3633 -3.6301 0
M  V30 35 C -13.0201 -2.2055 -1.5607 0
M  V30 36 O 9.2889 0.8074 -1.7736 0
M  V30 37 N 8.1226 0.1108 0.1289 0
M  V30 38 O 6.4614 -0.1863 -4.4833 0
M  V30 39 C 8.7078 -0.8453 -4.1106 0
M  V30 40 C 9.2507 -0.0109 1.0131 0
M  V30 41 C 10.4713 -0.5587 0.577 0
M  V30 42 C 9.1146 0.3661 2.3581 0
M  V30 43 C 11.54 -0.7031 1.4674 0
M  V30 44 C 10.1846 0.2228 3.2464 0
M  V30 45 C 11.3999 -0.3227 2.8092 0
M  V30 46 C 12.5556 -0.4418 3.7575 0
M  V30 47 H -0.2993 0.1406 1.3927 0
M  V30 48 H -3.8036 -0.0523 -2.1079 0
M  V30 49 H -1.4551 -0.288 -2.7447 0
M  V30 50 H 1.4504 1.2754 0.2878 0
M  V30 51 H 0.4016 -1.7149 -2.6386 0
M  V30 52 H 2.7339 -1.8325 -3.3522 0
M  V30 53 H -8.9694 0.6231 2.3154 0
M  V30 54 H -8.5414 3.2835 1.6851 0
M  V30 55 H -7.871 4.2372 3.0605 0
M  V30 56 H -8.8403 2.7469 3.392 0
M  V30 57 H -8.5125 -1.5245 -0.555 0
M  V30 58 H -11.4151 0.8537 1.5716 0
M  V30 59 H -10.3247 -2.6343 -1.7919 0
M  V30 60 H -13.2303 -0.2669 0.3434 0
M  V30 61 H -13.4375 -2.9985 -0.9067 0
M  V30 62 H -13.8248 -1.4848 -1.8165 0
M  V30 63 H -12.6573 -2.6675 -2.502 0
M  V30 64 H 7.166 0.0801 0.5517 0
M  V30 65 H 9.198 -1.475 -3.3386 0
M  V30 66 H 8.5859 -1.4577 -5.0303 0
M  V30 67 H 9.3539 0.0255 -4.3486 0
M  V30 68 H 10.5935 -0.9008 -0.4435 0
M  V30 69 H 8.1782 0.7777 2.7174 0
M  V30 70 H 12.4743 -1.1196 1.1113 0
M  V30 71 H 10.0634 0.5336 4.2764 0
M  V30 72 H 13.0684 0.5389 3.8385 0
M  V30 73 H 12.1975 -0.7508 4.7622 0
M  V30 74 H 13.2857 -1.2006 3.4029 0
M  V30 END ATOM
M  V30 BEGIN BOND
M  V30 1 1 1 2
M  V30 2 2 2 3
M  V30 3 1 2 4
M  V30 4 1 3 5
M  V30 5 1 3 6
M  V30 6 2 4 7
M  V30 7 1 5 8
M  V30 8 2 6 9
M  V30 9 1 7 10
M  V30 10 2 8 11
M  V30 11 2 10 12
M  V30 12 1 10 13
M  V30 13 1 11 14
M  V30 14 1 11 15
M  V30 15 1 12 16
M  V30 16 2 13 17
M  V30 17 2 14 18
M  V30 18 1 14 19
M  V30 19 2 15 20
M  V30 20 1 15 21
M  V30 21 1 16 22
M  V30 22 2 16 23
M  V30 23 1 19 24
M  V30 24 1 23 25
M  V30 25 2 24 26
M  V30 26 1 24 27
M  V30 27 1 25 28
M  V30 28 1 26 29
M  V30 29 2 27 30
M  V30 30 2 28 31
M  V30 31 2 29 32
M  V30 32 1 31 33
M  V30 33 1 31 34
M  V30 34 1 32 35
M  V30 35 2 33 36
M  V30 36 1 33 37
M  V30 37 2 34 38
M  V30 38 1 34 39
M  V30 39 1 37 40
M  V30 40 2 40 41
M  V30 41 1 40 42
M  V30 42 1 41 43
M  V30 43 2 42 44
M  V30 44 2 43 45
M  V30 45 1 45 46
M  V30 46 1 7 9
M  V30 47 1 17 23
M  V30 48 1 30 32
M  V30 49 1 44 45
M  V30 50 1 4 47
M  V30 51 1 6 48
M  V30 52 1 9 49
M  V30 53 1 12 50
M  V30 54 1 13 51
M  V30 55 1 17 52
M  V30 56 1 19 53
M  V30 57 1 21 54
M  V30 58 1 21 55
M  V30 59 1 21 56
M  V30 60 1 26 57
M  V30 61 1 27 58
M  V30 62 1 29 59
M  V30 63 1 30 60
M  V30 64 1 35 61
M  V30 65 1 35 62
M  V30 66 1 35 63
M  V30 67 1 37 64
M  V30 68 1 39 65
M  V30 69 1 39 66
M  V30 70 1 39 67
M  V30 71 1 41 68
M  V30 72 1 42 69
M  V30 73 1 43 70
M  V30 74 1 44 71
M  V30 75 1 46 72
M  V30 76 1 46 73
M  V30 77 1 46 74
M  V30 END BOND
M  V30 END CTAB
M  END
>  <Structure No>
2976

>  <LogS>
-8.101930722

>  <MMFF94 Energy>
191.98

$$$$
Compound 2977
Actelion Java MolfileCreator 2.0

  0  0  0  0  0  0              0 V3000
M  V30 BEGIN CTAB
M  V30 COUNTS 58 62 0 0 0
M  V30 BEGIN ATOM
M  V30 1 O 1.3704 0.4029 3.55 0
M  V30 2 C 1.8534 0.2811 2.3936 0
M  V30 3 C 3.3226 0.3502 2.216 0
M  V30 4 C 0.9305 0.0887 1.2513 0
M  V30 5 C 3.9569 -0.3468 1.1708 0
M  V30 6 C 4.1096 1.0869 3.1167 0
M  V30 7 C -0.1949 -0.7378 1.388 0
M  V30 8 C 1.1433 0.7585 0.0368 0
M  V30 9 C 5.3441 -0.2848 1.0172 0
M  V30 10 C 5.4958 1.1565 2.9555 0
M  V30 11 C -1.0882 -0.8988 0.3233 0
M  V30 12 C 0.2429 0.61 -1.024 0
M  V30 13 C 6.1237 0.4824 1.9012 0
M  V30 14 C -0.8931 -0.2064 -0.8855 0
M  V30 15 O 7.5221 0.5498 1.7993 0
M  V30 16 C -1.8377 -0.3585 -2.0228 0
M  V30 17 C 8.2654 0.4153 0.6165 0
M  V30 18 O -1.3958 -0.2411 -3.1991 0
M  V30 19 C -3.2828 -0.6424 -1.8295 0
M  V30 20 C 9.561 -0.11 0.6955 0
M  V30 21 C 7.7675 0.832 -0.6332 0
M  V30 22 C -3.9833 -0.1335 -0.7178 0
M  V30 23 C -3.9802 -1.4027 -2.7859 0
M  V30 24 C 10.3343 -0.2619 -0.4587 0
M  V30 25 C 8.5433 0.6786 -1.7872 0
M  V30 26 C -5.3444 -0.404 -0.5524 0
M  V30 27 C -5.3439 -1.6657 -2.6222 0
M  V30 28 C 9.8239 0.1271 -1.7011 0
M  V30 29 C -6.0384 -1.1606 -1.5139 0
M  V30 30 O -7.4011 -1.4641 -1.3782 0
M  V30 31 C -8.3461 -0.6756 -0.7062 0
M  V30 32 C -9.4081 -1.3089 -0.0488 0
M  V30 33 C -8.2765 0.7299 -0.7075 0
M  V30 34 C -10.361 -0.5542 0.64 0
M  V30 35 C -9.2299 1.4808 -0.0185 0
M  V30 36 C -10.2678 0.8392 0.6617 0
M  V30 37 H 3.3841 -0.9567 0.4824 0
M  V30 38 H 3.6501 1.6225 3.9374 0
M  V30 39 H -0.3733 -1.2738 2.3121 0
M  V30 40 H 1.9949 1.4159 -0.0881 0
M  V30 41 H 5.8069 -0.8534 0.222 0
M  V30 42 H 6.0876 1.7341 3.6539 0
M  V30 43 H -1.9266 -1.5724 0.4458 0
M  V30 44 H 0.4248 1.1501 -1.9461 0
M  V30 45 H 9.9635 -0.4104 1.6552 0
M  V30 46 H 6.7908 1.2886 -0.7122 0
M  V30 47 H -3.4816 0.4804 0.0193 0
M  V30 48 H -3.467 -1.8002 -3.6586 0
M  V30 49 H 11.3275 -0.6813 -0.3912 0
M  V30 50 H 8.1531 0.9946 -2.7474 0
M  V30 51 H -5.8485 -0.034 0.3312 0
M  V30 52 H -5.8655 -2.2586 -3.3645 0
M  V30 53 H 10.4227 0.0104 -2.5941 0
M  V30 54 H -9.4842 -2.3883 -0.0567 0
M  V30 55 H -7.4914 1.2433 -1.246 0
M  V30 56 H -11.1688 -1.05 1.1611 0
M  V30 57 H -9.1661 2.5607 -0.0134 0
M  V30 58 H -11.0018 1.4209 1.2015 0
M  V30 END ATOM
M  V30 BEGIN BOND
M  V30 1 2 1 2
M  V30 2 1 2 3
M  V30 3 1 2 4
M  V30 4 2 3 5
M  V30 5 1 3 6
M  V30 6 2 4 7
M  V30 7 1 4 8
M  V30 8 1 5 9
M  V30 9 2 6 10
M  V30 10 1 7 11
M  V30 11 2 8 12
M  V30 12 2 9 13
M  V30 13 2 11 14
M  V30 14 1 13 15
M  V30 15 1 14 16
M  V30 16 1 15 17
M  V30 17 2 16 18
M  V30 18 1 16 19
M  V30 19 2 17 20
M  V30 20 1 17 21
M  V30 21 2 19 22
M  V30 22 1 19 23
M  V30 23 1 20 24
M  V30 24 2 21 25
M  V30 25 1 22 26
M  V30 26 2 23 27
M  V30 27 2 24 28
M  V30 28 2 26 29
M  V30 29 1 29 30
M  V30 30 1 30 31
M  V30 31 2 31 32
M  V30 32 1 31 33
M  V30 33 1 32 34
M  V30 34 2 33 35
M  V30 35 2 34 36
M  V30 36 1 10 13
M  V30 37 1 12 14
M  V30 38 1 25 28
M  V30 39 1 27 29
M  V30 40 1 35 36
M  V30 41 1 5 37
M  V30 42 1 6 38
M  V30 43 1 7 39
M  V30 44 1 8 40
M  V30 45 1 9 41
M  V30 46 1 10 42
M  V30 47 1 11 43
M  V30 48 1 12 44
M  V30 49 1 20 45
M  V30 50 1 21 46
M  V30 51 1 22 47
M  V30 52 1 23 48
M  V30 53 1 24 49
M  V30 54 1 25 50
M  V30 55 1 26 51
M  V30 56 1 27 52
M  V30 57 1 28 53
M  V30 58 1 32 54
M  V30 59 1 33 55
M  V30 60 1 34 56
M  V30 61 1 35 57
M  V30 62 1 36 58
M  V30 END BOND
M  V30 END CTAB
M  END
>  <Structure No>
2977

>  <LogS>
-7.973611776

>  <MMFF94 Energy>
175.31

$$$$
Compound 2978
Actelion Java MolfileCreator 2.0

  0  0  0  0  0  0              0 V3000
M  V30 BEGIN CTAB
M  V30 COUNTS 56 60 0 0 0
M  V30 BEGIN ATOM
M  V30 1 O -3.8917 -2.4309 -4.0541 0
M  V30 2 C -3.5342 -1.7933 -3.0289 0
M  V30 3 O -2.2284 -1.5091 -2.6856 0
M  V30 4 C -4.382 -1.2332 -2.0035 0
M  V30 5 C -2.306 -0.803 -1.4797 0
M  V30 6 N -3.5212 -0.6237 -1.0461 0
M  V30 7 C -5.714 -1.3342 -1.9159 0
M  V30 8 C -1.1155 -0.3061 -0.76 0
M  V30 9 C -6.5179 -0.7596 -0.8131 0
M  V30 10 C 0.1672 -0.5403 -1.279 0
M  V30 11 C -1.2458 0.4042 0.4456 0
M  V30 12 C -7.6671 -1.4419 -0.3865 0
M  V30 13 C -6.2004 0.4768 -0.2216 0
M  V30 14 C 1.3 -0.0739 -0.6059 0
M  V30 15 C -0.113 0.8707 1.1187 0
M  V30 16 C -8.4627 -0.9232 0.6394 0
M  V30 17 C -6.9969 0.9949 0.8035 0
M  V30 18 C 1.1697 0.636 0.6 0
M  V30 19 C -8.1287 0.3019 1.2461 0
M  V30 20 C 2.36 1.1338 1.3192 0
M  V30 21 O -8.8929 0.8635 2.2797 0
M  V30 22 O 2.282 1.8502 2.519 0
M  V30 23 N 3.576 0.9428 0.8926 0
M  V30 24 C -10.0664 0.2697 2.8257 0
M  V30 25 C 3.588 2.1287 2.8656 0
M  V30 26 C 4.4359 1.5675 1.8412 0
M  V30 27 O 3.9461 2.7562 3.8969 0
M  V30 28 C 5.7741 1.557 1.8199 0
M  V30 29 C 6.581 0.9314 0.7477 0
M  V30 30 C 6.1893 0.9711 -0.6029 0
M  V30 31 C 7.8047 0.3327 1.0832 0
M  V30 32 C 6.9896 0.3859 -1.5882 0
M  V30 33 C 8.604 -0.2528 0.0971 0
M  V30 34 C 8.1976 -0.2329 -1.25 0
M  V30 35 O 8.9627 -0.8076 -2.2758 0
M  V30 36 C 10.2087 -1.4668 -2.076 0
M  V30 37 H -6.2324 -1.9237 -2.663 0
M  V30 38 H 0.2958 -1.0845 -2.2063 0
M  V30 39 H -2.2232 0.6004 0.8692 0
M  V30 40 H -7.943 -2.3859 -0.841 0
M  V30 41 H -5.3574 1.06 -0.5665 0
M  V30 42 H 2.2772 -0.269 -1.03 0
M  V30 43 H -0.2417 1.4154 2.0459 0
M  V30 44 H -9.3349 -1.4812 0.9516 0
M  V30 45 H -6.7384 1.9465 1.2509 0
M  V30 46 H -10.841 0.1603 2.0375 0
M  V30 47 H -10.4651 0.9248 3.627 0
M  V30 48 H -9.8241 -0.7213 3.2641 0
M  V30 49 H 6.3024 1.9775 2.6677 0
M  V30 50 H 5.2828 1.4774 -0.9062 0
M  V30 51 H 8.1367 0.308 2.1142 0
M  V30 52 H 6.6737 0.4223 -2.6231 0
M  V30 53 H 9.5356 -0.7158 0.3925 0
M  V30 54 H 10.0749 -2.3411 -1.4047 0
M  V30 55 H 10.5902 -1.8248 -3.0541 0
M  V30 56 H 10.9487 -0.7613 -1.6424 0
M  V30 END ATOM
M  V30 BEGIN BOND
M  V30 1 2 1 2
M  V30 2 1 2 3
M  V30 3 1 2 4
M  V30 4 1 3 5
M  V30 5 1 4 6
M  V30 6 2 4 7
M  V30 7 1 5 8
M  V30 8 1 7 9
M  V30 9 2 8 10
M  V30 10 1 8 11
M  V30 11 2 9 12
M  V30 12 1 9 13
M  V30 13 1 10 14
M  V30 14 2 11 15
M  V30 15 1 12 16
M  V30 16 2 13 17
M  V30 17 2 14 18
M  V30 18 2 16 19
M  V30 19 1 18 20
M  V30 20 1 19 21
M  V30 21 1 20 22
M  V30 22 2 20 23
M  V30 23 1 21 24
M  V30 24 1 22 25
M  V30 25 1 23 26
M  V30 26 2 25 27
M  V30 27 2 26 28
M  V30 28 1 28 29
M  V30 29 2 29 30
M  V30 30 1 29 31
M  V30 31 1 30 32
M  V30 32 2 31 33
M  V30 33 2 32 34
M  V30 34 1 34 35
M  V30 35 1 35 36
M  V30 36 2 5 6
M  V30 37 1 15 18
M  V30 38 1 17 19
M  V30 39 1 25 26
M  V30 40 1 33 34
M  V30 41 1 7 37
M  V30 42 1 10 38
M  V30 43 1 11 39
M  V30 44 1 12 40
M  V30 45 1 13 41
M  V30 46 1 14 42
M  V30 47 1 15 43
M  V30 48 1 16 44
M  V30 49 1 17 45
M  V30 50 1 24 46
M  V30 51 1 24 47
M  V30 52 1 24 48
M  V30 53 1 28 49
M  V30 54 1 30 50
M  V30 55 1 31 51
M  V30 56 1 32 52
M  V30 57 1 33 53
M  V30 58 1 36 54
M  V30 59 1 36 55
M  V30 60 1 36 56
M  V30 END BOND
M  V30 END CTAB
M  END
>  <Structure No>
2978

>  <LogS>
-6.983571154

>  <MMFF94 Energy>
129.38

$$$$
Compound 2979
Actelion Java MolfileCreator 2.0

  0  0  0  0  0  0              0 V3000
M  V30 BEGIN CTAB
M  V30 COUNTS 32 34 0 0 0
M  V30 BEGIN ATOM
M  V30 1 S -2.8703 1.8855 0.2457 0
M  V30 2 C -1.2138 1.6319 0.3929 0
M  V30 3 C -3.6966 0.4763 -0.1531 0
M  V30 4 C -0.7027 0.3318 0.1793 0
M  V30 5 C -0.3728 2.6979 0.7208 0
M  V30 6 C -2.9589 -0.7199 -0.3173 0
M  V30 7 C -5.0862 0.5023 -0.316 0
M  V30 8 C -1.5376 -0.7822 -0.1581 0
M  V30 9 C 0.6952 0.1495 0.3101 0
M  V30 10 C 0.9994 2.4941 0.8439 0
M  V30 11 C -3.6816 -1.89 -0.653 0
M  V30 12 C -5.771 -0.6658 -0.6468 0
M  V30 13 O -0.979 -1.9033 -0.3282 0
M  V30 14 C 1.5482 1.2189 0.6405 0
M  V30 15 C -5.0703 -1.8591 -0.8148 0
M  V30 16 C 3.007 0.9996 0.7697 0
M  V30 17 O 3.768 1.963 1.0638 0
M  V30 18 O 3.5404 -0.2805 0.572 0
M  V30 19 C 4.9362 -0.5687 0.623 0
M  V30 20 C 5.6307 -0.0906 -0.6466 0
M  V30 21 H -0.7801 3.6888 0.8814 0
M  V30 22 H -5.6379 1.4256 -0.187 0
M  V30 23 H 1.1294 -0.8302 0.1545 0
M  V30 24 H 1.6309 3.3361 1.0987 0
M  V30 25 H -3.1787 -2.8388 -0.7933 0
M  V30 26 H -6.8459 -0.6464 -0.7729 0
M  V30 27 H -5.604 -2.7652 -1.0717 0
M  V30 28 H 5.3975 -0.0965 1.5177 0
M  V30 29 H 5.0668 -1.6681 0.7082 0
M  V30 30 H 5.5557 1.013 -0.7374 0
M  V30 31 H 5.1609 -0.562 -1.5355 0
M  V30 32 H 6.7039 -0.3732 -0.614 0
M  V30 END ATOM
M  V30 BEGIN BOND
M  V30 1 1 1 2
M  V30 2 1 1 3
M  V30 3 2 2 4
M  V30 4 1 2 5
M  V30 5 2 3 6
M  V30 6 1 3 7
M  V30 7 1 4 8
M  V30 8 1 4 9
M  V30 9 2 5 10
M  V30 10 1 6 11
M  V30 11 2 7 12
M  V30 12 2 8 13
M  V30 13 2 9 14
M  V30 14 2 11 15
M  V30 15 1 14 16
M  V30 16 2 16 17
M  V30 17 1 16 18
M  V30 18 1 18 19
M  V30 19 1 19 20
M  V30 20 1 6 8
M  V30 21 1 10 14
M  V30 22 1 12 15
M  V30 23 1 5 21
M  V30 24 1 7 22
M  V30 25 1 9 23
M  V30 26 1 10 24
M  V30 27 1 11 25
M  V30 28 1 12 26
M  V30 29 1 15 27
M  V30 30 1 19 28
M  V30 31 1 19 29
M  V30 32 1 20 30
M  V30 33 1 20 31
M  V30 34 1 20 32
M  V30 END BOND
M  V30 END CTAB
M  END
>  <Structure No>
2979

>  <LogS>
-6.756602507

>  <MMFF94 Energy>
61.045

$$$$
Compound 2980
Actelion Java MolfileCreator 2.0

  0  0  0  0  0  0              0 V3000
M  V30 BEGIN CTAB
M  V30 COUNTS 72 72 0 0 0
M  V30 BEGIN ATOM
M  V30 1 O 2.5281 -3.3983 -0.5526 0
M  V30 2 C 2.3242 -2.2682 -0.0272 0
M  V30 3 O 3.1957 -1.2082 -0.293 0
M  V30 4 C 1.1796 -2.0924 0.9487 0 CFG=1
M  V30 5 C 4.3107 -1.3184 -1.1728 0
M  V30 6 C 0.8767 -0.597 1.252 0
M  V30 7 C -0.079 -2.8569 0.4504 0
M  V30 8 C 5.1283 -0.0133 -1.1577 0 CFG=2
M  V30 9 C -0.1932 -0.0422 0.3068 0
M  V30 10 C -1.3801 -2.2381 0.9783 0
M  V30 11 C 5.6453 0.2888 0.2785 0
M  V30 12 C 4.276 1.1417 -1.7376 0
M  V30 13 C -1.5456 -0.7647 0.5167 0 CFG=2
M  V30 14 C 7.1148 0.7391 0.2946 0
M  V30 15 C 5.0677 2.4326 -1.9408 0
M  V30 16 C -2.389 -0.657 -0.7246 0
M  V30 17 C 7.5929 0.9866 1.7295 0
M  V30 18 O -2.2435 -1.4821 -1.6685 0
M  V30 19 O -3.3018 0.3962 -0.8338 0
M  V30 20 C 9.0479 1.4431 1.7635 0
M  V30 21 C -4.2934 0.4906 -1.8563 0
M  V30 22 C -5.6526 -0.081 -1.3937 0 CFG=2
M  V30 23 C -6.348 0.8254 -0.3409 0
M  V30 24 C -5.5393 -1.5711 -0.9868 0
M  V30 25 C -5.6702 0.8652 1.0437 0
M  V30 26 C -6.8938 -2.2158 -0.6896 0
M  V30 27 C -6.5086 1.6254 2.0837 0
M  V30 28 C -6.5542 3.1314 1.8222 0
M  V30 29 H 1.5048 -2.5575 1.9059 0
M  V30 30 H 3.952 -1.5332 -2.2038 0
M  V30 31 H 4.9598 -2.1658 -0.8556 0
M  V30 32 H 1.7877 0.0363 1.2064 0
M  V30 33 H 0.5014 -0.5092 2.2959 0
M  V30 34 H -0.1227 -2.8541 -0.6612 0
M  V30 35 H -0.0194 -3.9185 0.7752 0
M  V30 36 H 5.9915 -0.1808 -1.8415 0
M  V30 37 H -0.3228 1.0463 0.4918 0
M  V30 38 H 0.1646 -0.1642 -0.74 0
M  V30 39 H -1.3595 -2.2747 2.0905 0
M  V30 40 H -2.2482 -2.8559 0.6581 0
M  V30 41 H 5.01 1.0606 0.7667 0
M  V30 42 H 5.5712 -0.6223 0.9133 0
M  V30 43 H 3.4072 1.3503 -1.0747 0
M  V30 44 H 3.8751 0.8338 -2.728 0
M  V30 45 H -2.0911 -0.2337 1.3287 0
M  V30 46 H 7.2375 1.6686 -0.2974 0
M  V30 47 H 7.7436 -0.0551 -0.165 0
M  V30 48 H 5.9975 2.2348 -2.5152 0
M  V30 49 H 5.3195 2.8935 -0.9632 0
M  V30 50 H 4.4507 3.1581 -2.5107 0
M  V30 51 H 6.9562 1.763 2.2094 0
M  V30 52 H 7.4993 0.0484 2.3169 0
M  V30 53 H 9.1512 2.4348 1.2767 0
M  V30 54 H 9.6983 0.7083 1.2432 0
M  V30 55 H 9.3857 1.5248 2.8165 0
M  V30 56 H -4.4208 1.5617 -2.1218 0
M  V30 57 H -3.9563 -0.0241 -2.7826 0
M  V30 58 H -6.3068 -0.0513 -2.2944 0
M  V30 59 H -7.401 0.4915 -0.2216 0
M  V30 60 H -6.3965 1.8571 -0.7503 0
M  V30 61 H -4.8793 -1.6975 -0.1049 0
M  V30 62 H -5.0748 -2.1332 -1.8268 0
M  V30 63 H -4.6704 1.3409 0.9733 0
M  V30 64 H -5.5329 -0.1669 1.4248 0
M  V30 65 H -7.6039 -2.0349 -1.5237 0
M  V30 66 H -6.7627 -3.3119 -0.5662 0
M  V30 67 H -7.3203 -1.8144 0.2538 0
M  V30 68 H -7.5438 1.2197 2.1124 0
M  V30 69 H -6.0562 1.4615 3.0861 0
M  V30 70 H -7.0701 3.6366 2.6662 0
M  V30 71 H -7.1169 3.3535 0.8918 0
M  V30 72 H -5.5261 3.5433 1.7395 0
M  V30 END ATOM
M  V30 BEGIN BOND
M  V30 1 2 1 2
M  V30 2 1 2 3
M  V30 3 1 2 4
M  V30 4 1 3 5
M  V30 5 1 4 6
M  V30 6 1 4 7
M  V30 7 1 5 8
M  V30 8 1 6 9
M  V30 9 1 7 10
M  V30 10 1 8 11
M  V30 11 1 8 12
M  V30 12 1 9 13
M  V30 13 1 11 14
M  V30 14 1 12 15
M  V30 15 1 13 16
M  V30 16 1 14 17
M  V30 17 2 16 18
M  V30 18 1 16 19
M  V30 19 1 17 20
M  V30 20 1 19 21
M  V30 21 1 21 22
M  V30 22 1 22 23
M  V30 23 1 22 24
M  V30 24 1 23 25
M  V30 25 1 24 26
M  V30 26 1 25 27
M  V30 27 1 27 28
M  V30 28 1 10 13
M  V30 29 1 4 29
M  V30 30 1 5 30
M  V30 31 1 5 31
M  V30 32 1 6 32
M  V30 33 1 6 33
M  V30 34 1 7 34
M  V30 35 1 7 35
M  V30 36 1 8 36
M  V30 37 1 9 37
M  V30 38 1 9 38
M  V30 39 1 10 39
M  V30 40 1 10 40
M  V30 41 1 11 41
M  V30 42 1 11 42
M  V30 43 1 12 43
M  V30 44 1 12 44
M  V30 45 1 13 45
M  V30 46 1 14 46
M  V30 47 1 14 47
M  V30 48 1 15 48
M  V30 49 1 15 49
M  V30 50 1 15 50
M  V30 51 1 17 51
M  V30 52 1 17 52
M  V30 53 1 20 53
M  V30 54 1 20 54
M  V30 55 1 20 55
M  V30 56 1 21 56
M  V30 57 1 21 57
M  V30 58 1 22 58
M  V30 59 1 23 59
M  V30 60 1 23 60
M  V30 61 1 24 61
M  V30 62 1 24 62
M  V30 63 1 25 63
M  V30 64 1 25 64
M  V30 65 1 26 65
M  V30 66 1 26 66
M  V30 67 1 26 67
M  V30 68 1 27 68
M  V30 69 1 27 69
M  V30 70 1 28 70
M  V30 71 1 28 71
M  V30 72 1 28 72
M  V30 END BOND
M  V30 BEGIN COLLECTION
M  V30 MDLV30/STEABS ATOMS=(4 4 8 13 22)
M  V30 END COLLECTION
M  V30 END CTAB
M  END
>  <Structure No>
2980

>  <LogS>
-6.926267992

>  <MMFF94 Energy>
2.9571

$$$$
Compound 2981
Actelion Java MolfileCreator 2.0

  0  0  0  0  0  0              0 V3000
M  V30 BEGIN CTAB
M  V30 COUNTS 110 109 0 0 0
M  V30 BEGIN ATOM
M  V30 1 O -0.4691 1.0949 2.6609 0
M  V30 2 C -0.3364 1.1007 1.4063 0
M  V30 3 O 0.5717 1.9655 0.789 0
M  V30 4 C -1.169 0.1845 0.5663 0
M  V30 5 C 1.3691 2.8922 1.5211 0
M  V30 6 C -2.6262 0.6576 0.5328 0
M  V30 7 C 2.3515 3.6055 0.5862 0
M  V30 8 C -3.4729 -0.2291 -0.3927 0
M  V30 9 C 3.2631 2.6474 -0.2013 0
M  V30 10 C -4.9347 0.24 -0.4777 0
M  V30 11 C 4.2414 1.8781 0.7033 0
M  V30 12 C -5.7597 -0.1783 0.7484 0
M  V30 13 C 5.1766 0.9454 -0.088 0
M  V30 14 C -7.2041 0.327 0.6374 0
M  V30 15 C 6.269 1.6596 -0.905 0
M  V30 16 C -8.0477 -0.1445 1.8314 0
M  V30 17 C 7.3329 2.3293 -0.0175 0
M  V30 18 C -9.4915 0.3993 1.7817 0
M  V30 19 C 8.4883 2.9462 -0.8272 0
M  V30 20 C -10.5373 -0.646 1.3575 0
M  V30 21 C 9.3244 1.9496 -1.6577 0
M  V30 22 C -10.4079 -1.052 -0.1193 0
M  V30 23 C 9.8662 0.734 -0.8837 0
M  V30 24 C -11.4675 -2.0793 -0.5658 0
M  V30 25 C 10.8422 1.1271 0.2383 0
M  V30 26 C -12.9373 -1.6361 -0.4246 0
M  V30 27 C 11.3291 -0.0851 1.0485 0
M  V30 28 C -13.3066 -0.4511 -1.3312 0
M  V30 29 C 12.2767 -0.9943 0.2505 0
M  V30 30 C -14.6708 0.1884 -0.9949 0
M  V30 31 C 12.8853 -2.0783 1.151 0
M  V30 32 C -15.9471 -0.6539 -1.2636 0
M  V30 33 C 13.5303 -3.2474 0.3765 0
M  V30 34 C -15.904 -1.4312 -2.585 0
M  V30 35 C -16.3232 -1.5661 -0.0872 0
M  V30 36 C 14.8104 -2.9393 -0.4465 0
M  V30 37 C 14.5055 -2.4314 -1.8624 0
M  V30 38 C 15.7987 -2.0151 0.2763 0
M  V30 39 H -0.7555 0.1614 -0.4652 0
M  V30 40 H -1.115 -0.8434 0.9863 0
M  V30 41 H 0.7073 3.6503 1.9934 0
M  V30 42 H 1.9196 2.3689 2.3315 0
M  V30 43 H -2.6625 1.7081 0.1688 0
M  V30 44 H -3.0364 0.6279 1.5646 0
M  V30 45 H 1.7669 4.2109 -0.1405 0
M  V30 46 H 2.9749 4.3092 1.18 0
M  V30 47 H -3.038 -0.1892 -1.4158 0
M  V30 48 H -3.4319 -1.2864 -0.051 0
M  V30 49 H 3.8362 3.2597 -0.9272 0
M  V30 50 H 2.6444 1.9305 -0.7842 0
M  V30 51 H -4.9706 1.344 -0.6052 0
M  V30 52 H -5.393 -0.2158 -1.3822 0
M  V30 53 H 3.6577 1.2348 1.3941 0
M  V30 54 H 4.8236 2.5836 1.3308 0
M  V30 55 H -5.3054 0.2385 1.6718 0
M  V30 56 H -5.7622 -1.2875 0.8266 0
M  V30 57 H 4.565 0.3226 -0.7764 0
M  V30 58 H 5.6651 0.2439 0.6231 0
M  V30 59 H -7.1968 1.4392 0.6109 0
M  V30 60 H -7.6511 -0.0403 -0.3094 0
M  V30 61 H 6.7543 0.8839 -1.5332 0
M  V30 62 H 5.8242 2.4066 -1.5942 0
M  V30 63 H -8.0457 -1.2549 1.8828 0
M  V30 64 H -7.5652 0.2244 2.7639 0
M  V30 65 H 6.8605 3.1553 0.5545 0
M  V30 66 H 7.7299 1.606 0.7253 0
M  V30 67 H -9.7641 0.7405 2.8048 0
M  V30 68 H -9.5666 1.295 1.1261 0
M  V30 69 H 9.1588 3.4915 -0.1298 0
M  V30 70 H 8.0712 3.7114 -1.5176 0
M  V30 71 H -10.46 -1.545 2.0075 0
M  V30 72 H -11.534 -0.1886 1.528 0
M  V30 73 H 10.1812 2.4998 -2.1036 0
M  V30 74 H 8.7161 1.5857 -2.5119 0
M  V30 75 H -9.417 -1.5291 -0.2696 0
M  V30 76 H -10.4359 -0.1535 -0.7695 0
M  V30 77 H 10.3978 0.091 -1.6168 0
M  V30 78 H 9.027 0.1329 -0.4743 0
M  V30 79 H -11.2758 -2.3422 -1.6293 0
M  V30 80 H -11.3277 -3.0099 0.027 0
M  V30 81 H 10.3315 1.8126 0.9468 0
M  V30 82 H 11.7131 1.6694 -0.1908 0
M  V30 83 H -13.5532 -2.5073 -0.7234 0
M  V30 84 H -13.1787 -1.4126 0.6349 0
M  V30 85 H 11.8695 0.2967 1.9429 0
M  V30 86 H 10.4545 -0.671 1.4081 0
M  V30 87 H -13.2692 -0.762 -2.3967 0
M  V30 88 H -12.5536 0.3525 -1.2087 0
M  V30 89 H 13.0908 -0.3685 -0.1673 0
M  V30 90 H 11.7185 -1.4774 -0.5789 0
M  V30 91 H -14.6612 0.5368 0.0612 0
M  V30 92 H -14.7511 1.11 -1.6133 0
M  V30 93 H 12.075 -2.5144 1.7757 0
M  V30 94 H 13.615 -1.623 1.854 0
M  V30 95 H -16.7831 0.0754 -1.3553 0
M  V30 96 H 12.7652 -3.7219 -0.276 0
M  V30 97 H 13.8014 -4.0183 1.1319 0
M  V30 98 H -16.9048 -1.8614 -2.8045 0
M  V30 99 H -15.1713 -2.2632 -2.5347 0
M  V30 100 H -15.6306 -0.751 -3.4193 0
M  V30 101 H -15.6271 -2.4169 0.0216 0
M  V30 102 H -16.3386 -0.9896 0.8617 0
M  V30 103 H -17.3408 -1.9816 -0.2468 0
M  V30 104 H 15.3314 -3.9133 -0.5814 0
M  V30 105 H 15.4404 -2.411 -2.4623 0
M  V30 106 H 13.7904 -3.1115 -2.3708 0
M  V30 107 H 14.0863 -1.4093 -1.855 0
M  V30 108 H 16.0017 -2.3957 1.2999 0
M  V30 109 H 15.4018 -0.9813 0.3443 0
M  V30 110 H 16.762 -1.983 -0.2767 0
M  V30 END ATOM
M  V30 BEGIN BOND
M  V30 1 2 1 2
M  V30 2 1 2 3
M  V30 3 1 2 4
M  V30 4 1 3 5
M  V30 5 1 4 6
M  V30 6 1 5 7
M  V30 7 1 6 8
M  V30 8 1 7 9
M  V30 9 1 8 10
M  V30 10 1 9 11
M  V30 11 1 10 12
M  V30 12 1 11 13
M  V30 13 1 12 14
M  V30 14 1 13 15
M  V30 15 1 14 16
M  V30 16 1 15 17
M  V30 17 1 16 18
M  V30 18 1 17 19
M  V30 19 1 18 20
M  V30 20 1 19 21
M  V30 21 1 20 22
M  V30 22 1 21 23
M  V30 23 1 22 24
M  V30 24 1 23 25
M  V30 25 1 24 26
M  V30 26 1 25 27
M  V30 27 1 26 28
M  V30 28 1 27 29
M  V30 29 1 28 30
M  V30 30 1 29 31
M  V30 31 1 30 32
M  V30 32 1 31 33
M  V30 33 1 32 34
M  V30 34 1 32 35
M  V30 35 1 33 36
M  V30 36 1 36 37
M  V30 37 1 36 38
M  V30 38 1 4 39
M  V30 39 1 4 40
M  V30 40 1 5 41
M  V30 41 1 5 42
M  V30 42 1 6 43
M  V30 43 1 6 44
M  V30 44 1 7 45
M  V30 45 1 7 46
M  V30 46 1 8 47
M  V30 47 1 8 48
M  V30 48 1 9 49
M  V30 49 1 9 50
M  V30 50 1 10 51
M  V30 51 1 10 52
M  V30 52 1 11 53
M  V30 53 1 11 54
M  V30 54 1 12 55
M  V30 55 1 12 56
M  V30 56 1 13 57
M  V30 57 1 13 58
M  V30 58 1 14 59
M  V30 59 1 14 60
M  V30 60 1 15 61
M  V30 61 1 15 62
M  V30 62 1 16 63
M  V30 63 1 16 64
M  V30 64 1 17 65
M  V30 65 1 17 66
M  V30 66 1 18 67
M  V30 67 1 18 68
M  V30 68 1 19 69
M  V30 69 1 19 70
M  V30 70 1 20 71
M  V30 71 1 20 72
M  V30 72 1 21 73
M  V30 73 1 21 74
M  V30 74 1 22 75
M  V30 75 1 22 76
M  V30 76 1 23 77
M  V30 77 1 23 78
M  V30 78 1 24 79
M  V30 79 1 24 80
M  V30 80 1 25 81
M  V30 81 1 25 82
M  V30 82 1 26 83
M  V30 83 1 26 84
M  V30 84 1 27 85
M  V30 85 1 27 86
M  V30 86 1 28 87
M  V30 87 1 28 88
M  V30 88 1 29 89
M  V30 89 1 29 90
M  V30 90 1 30 91
M  V30 91 1 30 92
M  V30 92 1 31 93
M  V30 93 1 31 94
M  V30 94 1 32 95
M  V30 95 1 33 96
M  V30 96 1 33 97
M  V30 97 1 34 98
M  V30 98 1 34 99
M  V30 99 1 34 100
M  V30 100 1 35 101
M  V30 101 1 35 102
M  V30 102 1 35 103
M  V30 103 1 36 104
M  V30 104 1 37 105
M  V30 105 1 37 106
M  V30 106 1 37 107
M  V30 107 1 38 108
M  V30 108 1 38 109
M  V30 109 1 38 110
M  V30 END BOND
M  V30 END CTAB
M  END
>  <Structure No>
2981

>  <LogS>
-7.086497346

>  <MMFF94 Energy>
-6.0188

$$$$
Compound 2982
Actelion Java MolfileCreator 2.0

  0  0  0  0  0  0              0 V3000
M  V30 BEGIN CTAB
M  V30 COUNTS 47 47 0 0 0
M  V30 BEGIN ATOM
M  V30 1 O 2.7561 -3.2292 0.1573 0
M  V30 2 C 1.8414 -2.5664 -0.3052 0
M  V30 3 C 2.1346 -1.2812 -1.0397 0
M  V30 4 C 0.424 -3.0492 -0.1495 0
M  V30 5 C 2.8801 -0.2467 -0.1549 0 CFG=2
M  V30 6 C -0.206 -2.4958 1.1368 0
M  V30 7 C 2.5167 1.1966 -0.5822 0
M  V30 8 C 4.3994 -0.4561 -0.2384 0
M  V30 9 C -1.7254 -2.7469 1.1813 0
M  V30 10 C 1.1883 1.6607 0.0453 0
M  V30 11 C -2.5253 -1.6759 0.413 0
M  V30 12 C 0.4701 2.6933 -0.8383 0
M  V30 13 C -2.8121 -0.4391 1.2823 0
M  V30 14 C -0.6652 3.4379 -0.1095 0
M  V30 15 C -3.4449 0.7118 0.4751 0
M  V30 16 C -1.669 2.5397 0.6363 0
M  V30 17 C -2.4138 1.5623 -0.2905 0
M  V30 18 H 1.1729 -0.8509 -1.397 0
M  V30 19 H 2.7245 -1.5127 -1.9538 0
M  V30 20 H 0.411 -4.1616 -0.1209 0
M  V30 21 H -0.1667 -2.7401 -1.0382 0
M  V30 22 H 2.5854 -0.3829 0.9102 0
M  V30 23 H 0.0045 -1.4098 1.2344 0
M  V30 24 H 0.2675 -3.0007 2.005 0
M  V30 25 H 2.4694 1.2483 -1.6936 0
M  V30 26 H 3.3099 1.9096 -0.2635 0
M  V30 27 H 4.6695 -1.4891 0.0648 0
M  V30 28 H 4.7639 -0.2774 -1.2726 0
M  V30 29 H 4.9198 0.2451 0.4476 0
M  V30 30 H -2.0627 -2.7786 2.2411 0
M  V30 31 H -1.9482 -3.7485 0.7495 0
M  V30 32 H 1.3995 2.0975 1.046 0
M  V30 33 H 0.5117 0.7929 0.1918 0
M  V30 34 H -3.4975 -2.117 0.1002 0
M  V30 35 H -1.9872 -1.3853 -0.513 0
M  V30 36 H 1.2043 3.4533 -1.1863 0
M  V30 37 H 0.067 2.1869 -1.7427 0
M  V30 38 H -3.526 -0.7364 2.0812 0
M  V30 39 H -1.8868 -0.0991 1.789 0
M  V30 40 H -0.2111 4.1344 0.6281 0
M  V30 41 H -1.2143 4.0606 -0.8484 0
M  V30 42 H -4.0198 1.367 1.1663 0
M  V30 43 H -4.1802 0.2952 -0.2481 0
M  V30 44 H -1.1432 1.9955 1.4468 0
M  V30 45 H -2.4155 3.2018 1.1278 0
M  V30 46 H -2.9527 2.1524 -1.0634 0
M  V30 47 H -1.6981 0.8999 -0.8181 0
M  V30 END ATOM
M  V30 BEGIN BOND
M  V30 1 2 1 2
M  V30 2 1 2 3
M  V30 3 1 2 4
M  V30 4 1 3 5
M  V30 5 1 4 6
M  V30 6 1 5 7
M  V30 7 1 5 8
M  V30 8 1 6 9
M  V30 9 1 7 10
M  V30 10 1 9 11
M  V30 11 1 10 12
M  V30 12 1 11 13
M  V30 13 1 12 14
M  V30 14 1 13 15
M  V30 15 1 14 16
M  V30 16 1 15 17
M  V30 17 1 16 17
M  V30 18 1 3 18
M  V30 19 1 3 19
M  V30 20 1 4 20
M  V30 21 1 4 21
M  V30 22 1 5 22
M  V30 23 1 6 23
M  V30 24 1 6 24
M  V30 25 1 7 25
M  V30 26 1 7 26
M  V30 27 1 8 27
M  V30 28 1 8 28
M  V30 29 1 8 29
M  V30 30 1 9 30
M  V30 31 1 9 31
M  V30 32 1 10 32
M  V30 33 1 10 33
M  V30 34 1 11 34
M  V30 35 1 11 35
M  V30 36 1 12 36
M  V30 37 1 12 37
M  V30 38 1 13 38
M  V30 39 1 13 39
M  V30 40 1 14 40
M  V30 41 1 14 41
M  V30 42 1 15 42
M  V30 43 1 15 43
M  V30 44 1 16 44
M  V30 45 1 16 45
M  V30 46 1 17 46
M  V30 47 1 17 47
M  V30 END BOND
M  V30 BEGIN COLLECTION
M  V30 MDLV30/STEABS ATOMS=(1 5)
M  V30 END COLLECTION
M  V30 END CTAB
M  END
>  <Structure No>
2982

>  <LogS>
-5.74386512

>  <MMFF94 Energy>
18.171

$$$$
Compound 2983
Actelion Java MolfileCreator 2.0

  0  0  0  0  0  0              0 V3000
M  V30 BEGIN CTAB
M  V30 COUNTS 30 30 0 0 0
M  V30 BEGIN ATOM
M  V30 1 C -1.406 -0.1561 0.078 0
M  V30 2 C -0.8289 0.8646 -0.6991 0
M  V30 3 C -0.5636 -1.0155 0.8027 0
M  V30 4 C -2.9113 -0.3372 0.1417 0
M  V30 5 C 0.5587 1.021 -0.7492 0
M  V30 6 C 0.824 -0.8592 0.7525 0
M  V30 7 C -3.5919 0.8992 0.7411 0
M  V30 8 C -3.487 -0.6685 -1.2401 0
M  V30 9 C 1.4011 0.1615 -0.0245 0
M  V30 10 C 2.9063 0.3427 -0.0881 0
M  V30 11 C 3.4819 0.6741 1.2938 0
M  V30 12 C 3.5868 -0.8936 -0.6874 0
M  V30 13 H -1.4516 1.5426 -1.2684 0
M  V30 14 H -0.9791 -1.8103 1.4097 0
M  V30 15 H -3.153 -1.1955 0.8081 0
M  V30 16 H 0.9741 1.8158 -1.3561 0
M  V30 17 H 1.4466 -1.537 1.3219 0
M  V30 18 H -3.1609 1.1241 1.7403 0
M  V30 19 H -4.6796 0.7107 0.8671 0
M  V30 20 H -3.4617 1.7863 0.0856 0
M  V30 21 H -2.981 -1.565 -1.6581 0
M  V30 22 H -4.5725 -0.8903 -1.1564 0
M  V30 23 H -3.3543 0.1802 -1.9442 0
M  V30 24 H 3.1479 1.2011 -0.7544 0
M  V30 25 H 3.3491 -0.1744 1.9979 0
M  V30 26 H 2.9758 1.5708 1.7119 0
M  V30 27 H 4.5673 0.8961 1.2102 0
M  V30 28 H 3.4565 -1.7806 -0.0318 0
M  V30 29 H 4.6744 -0.705 -0.8134 0
M  V30 30 H 3.1557 -1.1184 -1.6865 0
M  V30 END ATOM
M  V30 BEGIN BOND
M  V30 1 2 1 2
M  V30 2 1 1 3
M  V30 3 1 1 4
M  V30 4 1 2 5
M  V30 5 2 3 6
M  V30 6 1 4 7
M  V30 7 1 4 8
M  V30 8 2 5 9
M  V30 9 1 9 10
M  V30 10 1 10 11
M  V30 11 1 10 12
M  V30 12 1 6 9
M  V30 13 1 2 13
M  V30 14 1 3 14
M  V30 15 1 4 15
M  V30 16 1 5 16
M  V30 17 1 6 17
M  V30 18 1 7 18
M  V30 19 1 7 19
M  V30 20 1 7 20
M  V30 21 1 8 21
M  V30 22 1 8 22
M  V30 23 1 8 23
M  V30 24 1 10 24
M  V30 25 1 11 25
M  V30 26 1 11 26
M  V30 27 1 11 27
M  V30 28 1 12 28
M  V30 29 1 12 29
M  V30 30 1 12 30
M  V30 END BOND
M  V30 END CTAB
M  END
>  <Structure No>
2983

>  <LogS>
-6.602799271

>  <MMFF94 Energy>
29.641

$$$$
Compound 2984
Actelion Java MolfileCreator 2.0

  0  0  0  0  0  0              0 V3000
M  V30 BEGIN CTAB
M  V30 COUNTS 45 48 0 0 0
M  V30 BEGIN ATOM
M  V30 1 O -1.0408 0.16 -0.5603 0
M  V30 2 C -1.5882 -0.4316 0.407 0
M  V30 3 N -2.9647 -0.3332 0.7536 0
M  V30 4 C -0.9541 -1.3463 1.3475 0
M  V30 5 N -3.18 -1.1558 1.8689 0
M  V30 6 C -3.9896 0.4768 0.15 0
M  V30 7 C -2.0746 -1.7432 2.2143 0
M  V30 8 C 0.3067 -1.7955 1.4017 0
M  V30 9 C -3.9168 0.862 -1.2018 0
M  V30 10 C -5.1042 0.8714 0.9109 0
M  V30 11 C -1.9891 -2.69 3.3676 0
M  V30 12 C 1.3872 -1.308 0.5284 0
M  V30 13 C -4.9285 1.6434 -1.7695 0
M  V30 14 C -6.1126 1.6535 0.3391 0
M  V30 15 C 1.8146 -0.0065 0.3371 0
M  V30 16 C 2.3267 -2.0731 -0.1448 0
M  V30 17 C -6.0234 2.0417 -0.9993 0
M  V30 18 O 1.2724 1.0231 0.8218 0
M  V30 19 N 2.9259 3.0E-4 -0.4303 0
M  V30 20 N 3.2339 -1.2566 -0.7201 0
M  V30 21 C 2.4086 -3.5657 -0.1623 0
M  V30 22 C 3.6919 1.1411 -0.8623 0
M  V30 23 C 4.2779 1.1514 -2.1402 0
M  V30 24 C 3.884 2.2474 -0.0139 0
M  V30 25 C 5.0281 2.2519 -2.5661 0
M  V30 26 C 4.6361 3.3453 -0.4438 0
M  V30 27 C 5.2058 3.3487 -1.7192 0
M  V30 28 H 0.5515 -2.5839 2.1021 0
M  V30 29 H -3.0996 0.5409 -1.8309 0
M  V30 30 H -5.1878 0.5837 1.9513 0
M  V30 31 H -1.6769 -3.6911 3.0041 0
M  V30 32 H -1.2443 -2.3167 4.101 0
M  V30 33 H -2.9752 -2.7809 3.8708 0
M  V30 34 H -4.867 1.9339 -2.8105 0
M  V30 35 H -6.9635 1.9587 0.9347 0
M  V30 36 H -6.8055 2.6456 -1.4411 0
M  V30 37 H 4.0729 -1.5588 -1.2645 0
M  V30 38 H 1.3925 -4.0005 -0.2672 0
M  V30 39 H 2.8643 -3.922 0.7847 0
M  V30 40 H 3.0311 -3.9044 -1.0168 0
M  V30 41 H 4.1401 0.3151 -2.8133 0
M  V30 42 H 3.4755 2.2541 0.9876 0
M  V30 43 H 5.4704 2.2549 -3.5539 0
M  V30 44 H 4.7824 4.1916 0.2151 0
M  V30 45 H 5.7878 4.1993 -2.0499 0
M  V30 END ATOM
M  V30 BEGIN BOND
M  V30 1 2 1 2
M  V30 2 1 2 3
M  V30 3 1 2 4
M  V30 4 1 3 5
M  V30 5 1 3 6
M  V30 6 1 4 7
M  V30 7 2 4 8
M  V30 8 2 6 9
M  V30 9 1 6 10
M  V30 10 1 7 11
M  V30 11 1 8 12
M  V30 12 1 9 13
M  V30 13 2 10 14
M  V30 14 1 12 15
M  V30 15 2 12 16
M  V30 16 2 13 17
M  V30 17 2 15 18
M  V30 18 1 15 19
M  V30 19 1 16 20
M  V30 20 1 16 21
M  V30 21 1 19 22
M  V30 22 2 22 23
M  V30 23 1 22 24
M  V30 24 1 23 25
M  V30 25 2 24 26
M  V30 26 2 25 27
M  V30 27 2 5 7
M  V30 28 1 14 17
M  V30 29 1 19 20
M  V30 30 1 26 27
M  V30 31 1 8 28
M  V30 32 1 9 29
M  V30 33 1 10 30
M  V30 34 1 11 31
M  V30 35 1 11 32
M  V30 36 1 11 33
M  V30 37 1 13 34
M  V30 38 1 14 35
M  V30 39 1 17 36
M  V30 40 1 20 37
M  V30 41 1 21 38
M  V30 42 1 21 39
M  V30 43 1 21 40
M  V30 44 1 23 41
M  V30 45 1 24 42
M  V30 46 1 25 43
M  V30 47 1 26 44
M  V30 48 1 27 45
M  V30 END BOND
M  V30 END CTAB
M  END
>  <Structure No>
2984

>  <LogS>
-7.882271355

>  <MMFF94 Energy>
143.72

$$$$
Compound 2985
Actelion Java MolfileCreator 2.0

  0  0  0  0  0  0              0 V3000
M  V30 BEGIN CTAB
M  V30 COUNTS 53 56 0 0 0
M  V30 BEGIN ATOM
M  V30 1 O 9.3051 -0.1612 1.6943 0
M  V30 2 N 8.3013 0.345 2.2376 0 CHG=1
M  V30 3 O 8.4571 0.9975 3.4392 0 CHG=-1
M  V30 4 C 7.0042 0.2487 1.6204 0
M  V30 5 C 6.8408 -0.4165 0.3921 0
M  V30 6 C 5.881 0.8204 2.2385 0
M  V30 7 C 5.5758 -0.512 -0.2124 0
M  V30 8 C 4.6208 0.7303 1.6446 0
M  V30 9 C 4.4564 0.0649 0.4178 0
M  V30 10 C 5.4235 -1.2237 -1.5291 0
M  V30 11 N 3.1669 -0.0352 -0.2022 0
M  V30 12 N 2.1286 0.5088 0.2921 0
M  V30 13 C 0.8412 0.4058 -0.3338 0
M  V30 14 C -0.2757 0.1443 0.4873 0
M  V30 15 C 0.6653 0.5468 -1.7369 0
M  V30 16 O -0.1302 0.0726 1.8765 0
M  V30 17 C -1.5502 -0.0502 -0.08 0
M  V30 18 C -0.6182 0.3232 -2.2986 0
M  V30 19 C 1.7145 0.9444 -2.5955 0
M  V30 20 C -2.7218 -0.3592 0.7745 0
M  V30 21 C -1.7037 0.017 -1.4708 0
M  V30 22 C -0.8076 0.4245 -3.6868 0
M  V30 23 C 1.5079 1.0474 -3.9732 0
M  V30 24 O -2.5755 -1.1148 1.7737 0
M  V30 25 N -4.021 0.1719 0.4581 0
M  V30 26 C 0.2543 0.7773 -4.5184 0
M  V30 27 C -5.1947 -0.0846 1.2492 0
M  V30 28 C -6.4246 -0.3977 0.6247 0
M  V30 29 C -5.1433 0.0302 2.6501 0
M  V30 30 C -7.5711 -0.5942 1.4137 0
M  V30 31 C -6.5272 -0.5072 -0.8722 0
M  V30 32 C -6.2883 -0.1793 3.4212 0
M  V30 33 C -7.4996 -0.4917 2.8044 0
M  V30 34 H 7.699 -0.8611 -0.0959 0
M  V30 35 H 5.9754 1.3386 3.184 0
M  V30 36 H 3.774 1.1802 2.147 0
M  V30 37 H 5.0218 -0.5213 -2.2896 0
M  V30 38 H 6.3937 -1.619 -1.8978 0
M  V30 39 H 4.721 -2.0759 -1.4144 0
M  V30 40 H 0.7566 0.21 2.3454 0
M  V30 41 H 2.6907 1.212 -2.2205 0
M  V30 42 H -2.673 -0.1757 -1.9162 0
M  V30 43 H -1.7809 0.2427 -4.1273 0
M  V30 44 H 2.3223 1.348 -4.6197 0
M  V30 45 H -4.134 0.7478 -0.4053 0
M  V30 46 H 0.1005 0.8598 -5.5865 0
M  V30 47 H -4.2223 0.3078 3.1458 0
M  V30 48 H -8.5228 -0.8288 0.9531 0
M  V30 49 H -7.4815 -0.9851 -1.1802 0
M  V30 50 H -6.4778 0.5058 -1.3233 0
M  V30 51 H -5.695 -1.1267 -1.2683 0
M  V30 52 H -6.2387 -0.0878 4.4986 0
M  V30 53 H -8.387 -0.6473 3.4044 0
M  V30 END ATOM
M  V30 BEGIN BOND
M  V30 1 2 1 2
M  V30 2 1 2 3
M  V30 3 1 2 4
M  V30 4 2 4 5
M  V30 5 1 4 6
M  V30 6 1 5 7
M  V30 7 2 6 8
M  V30 8 2 7 9
M  V30 9 1 7 10
M  V30 10 1 9 11
M  V30 11 2 11 12
M  V30 12 1 12 13
M  V30 13 2 13 14
M  V30 14 1 13 15
M  V30 15 1 14 16
M  V30 16 1 14 17
M  V30 17 1 15 18
M  V30 18 2 15 19
M  V30 19 1 17 20
M  V30 20 2 17 21
M  V30 21 2 18 22
M  V30 22 1 19 23
M  V30 23 2 20 24
M  V30 24 1 20 25
M  V30 25 1 22 26
M  V30 26 1 25 27
M  V30 27 2 27 28
M  V30 28 1 27 29
M  V30 29 1 28 30
M  V30 30 1 28 31
M  V30 31 2 29 32
M  V30 32 2 30 33
M  V30 33 1 8 9
M  V30 34 1 18 21
M  V30 35 2 23 26
M  V30 36 1 32 33
M  V30 37 1 5 34
M  V30 38 1 6 35
M  V30 39 1 8 36
M  V30 40 1 10 37
M  V30 41 1 10 38
M  V30 42 1 10 39
M  V30 43 1 16 40
M  V30 44 1 19 41
M  V30 45 1 21 42
M  V30 46 1 22 43
M  V30 47 1 23 44
M  V30 48 1 25 45
M  V30 49 1 26 46
M  V30 50 1 29 47
M  V30 51 1 30 48
M  V30 52 1 31 49
M  V30 53 1 31 50
M  V30 54 1 31 51
M  V30 55 1 32 52
M  V30 56 1 33 53
M  V30 END BOND
M  V30 END CTAB
M  END
>  <Structure No>
2985

>  <LogS>
-7.981147657

>  <MMFF94 Energy>
118.08

$$$$
Compound 2986
Actelion Java MolfileCreator 2.0

  0  0  0  0  0  0              0 V3000
M  V30 BEGIN CTAB
M  V30 COUNTS 66 71 0 0 0
M  V30 BEGIN ATOM
M  V30 1 Cl 3.6215 0.9044 -2.4681 0
M  V30 2 C 2.8381 0.4394 -0.9607 0
M  V30 3 C 3.5905 0.2026 0.2019 0
M  V30 4 C 1.4463 0.2985 -0.9374 0
M  V30 5 N 5.0158 0.3275 0.156 0 CHG=-1
M  V30 6 C 2.9319 -0.1694 1.3872 0
M  V30 7 C 0.7826 -0.0768 0.2459 0
M  V30 8 N 5.8206 0.1428 1.2906 0
M  V30 9 C 1.5414 -0.3084 1.4074 0
M  V30 10 C -0.6947 -0.2356 0.263 0
M  V30 11 C 7.1127 0.195 1.2211 0
M  V30 12 C -1.5179 0.6658 -0.4329 0
M  V30 13 C -1.2921 -1.2994 0.9554 0
M  V30 14 C 7.9525 0.398 0.0595 0
M  V30 15 C 8.0634 -0.0293 2.3088 0
M  V30 16 C -2.9108 0.5029 -0.4581 0
M  V30 17 C -2.6793 -1.4648 0.943 0
M  V30 18 O 7.5788 0.7484 -1.0879 0
M  V30 19 N 9.3056 0.2526 0.4876 0
M  V30 20 N 9.2875 -0.0069 1.8699 0
M  V30 21 C 7.7081 -0.3471 3.7248 0
M  V30 22 Cl -3.8339 1.6419 -1.4373 0
M  V30 23 C -3.5015 -0.576 0.2427 0
M  V30 24 C 10.5137 0.3267 -0.2933 0
M  V30 25 N -4.9129 -0.8319 0.2528 0 CHG=-1
M  V30 26 C 11.745 0.5621 0.345 0
M  V30 27 C 10.4977 0.1359 -1.6891 0
M  V30 28 N -5.8849 0.1066 -0.1146 0
M  V30 29 C 12.9311 0.618 -0.3972 0
M  V30 30 C 11.686 0.1932 -2.4261 0
M  V30 31 C -7.1456 -0.1976 -0.1829 0
M  V30 32 C 12.9017 0.4327 -1.7823 0
M  V30 33 C -8.2286 0.7021 -0.5007 0
M  V30 34 C -7.8192 -1.4791 0.0918 0
M  V30 35 O -8.1366 1.9359 -0.7286 0
M  V30 36 N -9.4404 -0.041 -0.4091 0
M  V30 37 N -9.1047 -1.3526 -0.0343 0
M  V30 38 C -7.1709 -2.7621 0.4964 0
M  V30 39 C -10.7896 0.4072 -0.6241 0
M  V30 40 C -11.8567 -0.306 -0.0527 0
M  V30 41 C -11.0726 1.5322 -1.4214 0
M  V30 42 C -13.1762 0.109 -0.2543 0
M  V30 43 C -12.3951 1.9409 -1.6207 0
M  V30 44 C -13.4453 1.233 -1.0335 0
M  V30 45 H 0.8873 0.4617 -1.853 0
M  V30 46 H 3.489 -0.3507 2.2981 0
M  V30 47 H 1.0559 -0.582 2.3347 0
M  V30 48 H -1.0785 1.4997 -0.9629 0
M  V30 49 H -0.6846 -2.0232 1.4825 0
M  V30 50 H -3.1183 -2.2992 1.476 0
M  V30 51 H 7.4481 -1.4246 3.8104 0
M  V30 52 H 8.5669 -0.1269 4.3953 0
M  V30 53 H 6.8359 0.2653 4.0408 0
M  V30 54 H 11.7871 0.7136 1.4168 0
M  V30 55 H 9.58 -0.0831 -2.216 0
M  V30 56 H 13.8751 0.7987 0.1009 0
M  V30 57 H 11.6641 0.0452 -3.4975 0
M  V30 58 H 13.8209 0.4713 -2.3537 0
M  V30 59 H -6.4029 -3.0489 -0.252 0
M  V30 60 H -6.6998 -2.6478 1.4961 0
M  V30 61 H -7.9272 -3.5747 0.5522 0
M  V30 62 H -11.6666 -1.1765 0.5606 0
M  V30 63 H -10.2847 2.0837 -1.9127 0
M  V30 64 H -13.9923 -0.4398 0.1937 0
M  V30 65 H -12.6064 2.8072 -2.2352 0
M  V30 66 H -14.4672 1.5526 -1.1842 0
M  V30 END ATOM
M  V30 BEGIN BOND
M  V30 1 1 1 2
M  V30 2 2 2 3
M  V30 3 1 2 4
M  V30 4 1 3 5
M  V30 5 1 3 6
M  V30 6 2 4 7
M  V30 7 1 5 8
M  V30 8 2 6 9
M  V30 9 1 7 10
M  V30 10 2 8 11
M  V30 11 2 10 12
M  V30 12 1 10 13
M  V30 13 1 11 14
M  V30 14 1 11 15
M  V30 15 1 12 16
M  V30 16 2 13 17
M  V30 17 2 14 18
M  V30 18 1 14 19
M  V30 19 2 15 20
M  V30 20 1 15 21
M  V30 21 1 16 22
M  V30 22 2 16 23
M  V30 23 1 19 24
M  V30 24 1 23 25
M  V30 25 2 24 26
M  V30 26 1 24 27
M  V30 27 1 25 28
M  V30 28 1 26 29
M  V30 29 2 27 30
M  V30 30 2 28 31
M  V30 31 2 29 32
M  V30 32 1 31 33
M  V30 33 1 31 34
M  V30 34 2 33 35
M  V30 35 1 33 36
M  V30 36 2 34 37
M  V30 37 1 34 38
M  V30 38 1 36 39
M  V30 39 2 39 40
M  V30 40 1 39 41
M  V30 41 1 40 42
M  V30 42 2 41 43
M  V30 43 2 42 44
M  V30 44 1 7 9
M  V30 45 1 17 23
M  V30 46 1 19 20
M  V30 47 1 30 32
M  V30 48 1 36 37
M  V30 49 1 43 44
M  V30 50 1 4 45
M  V30 51 1 6 46
M  V30 52 1 9 47
M  V30 53 1 12 48
M  V30 54 1 13 49
M  V30 55 1 17 50
M  V30 56 1 21 51
M  V30 57 1 21 52
M  V30 58 1 21 53
M  V30 59 1 26 54
M  V30 60 1 27 55
M  V30 61 1 29 56
M  V30 62 1 30 57
M  V30 63 1 32 58
M  V30 64 1 38 59
M  V30 65 1 38 60
M  V30 66 1 38 61
M  V30 67 1 40 62
M  V30 68 1 41 63
M  V30 69 1 42 64
M  V30 70 1 43 65
M  V30 71 1 44 66
M  V30 END BOND
M  V30 END CTAB
M  END
>  <Structure No>
2986

>  <LogS>
-8.14162673

>  <MMFF94 Energy>
319.96

$$$$
Compound 2987
Actelion Java MolfileCreator 2.0

  0  0  0  0  0  0              0 V3000
M  V30 BEGIN CTAB
M  V30 COUNTS 69 73 0 0 0
M  V30 BEGIN ATOM
M  V30 1 Cl -5.2404 -1.6354 -3.9284 0
M  V30 2 C -6.5199 -1.2683 -2.7793 0
M  V30 3 C -6.3806 -0.2438 -1.8155 0
M  V30 4 C -7.7149 -1.9932 -2.8649 0
M  V30 5 N -5.1397 0.4798 -1.6946 0
M  V30 6 C -7.4484 0.011 -0.9344 0
M  V30 7 C -8.7745 -1.711 -2.0019 0
M  V30 8 C -5.0403 1.8199 -1.1871 0
M  V30 9 C -8.6411 -0.7109 -1.0353 0
M  V30 10 O -6.0242 2.6017 -1.3006 0
M  V30 11 C -3.7759 2.3129 -0.5846 0
M  V30 12 Cl -9.9781 -0.3486 0.0441 0
M  V30 13 C -2.7876 1.4164 -0.1478 0
M  V30 14 C -3.5486 3.6897 -0.4437 0
M  V30 15 C -1.5698 1.8771 0.3885 0
M  V30 16 C -2.3528 4.1606 0.0993 0
M  V30 17 N -0.5537 0.9381 0.7685 0
M  V30 18 C -1.344 3.2706 0.516 0
M  V30 19 N -0.7664 -0.3154 0.8121 0
M  V30 20 C -0.087 3.8239 1.093 0
M  V30 21 C 0.2615 -1.249 1.1644 0
M  V30 22 O 0.0578 5.0758 1.1925 0
M  V30 23 O 0.9365 2.973 1.5298 0
M  V30 24 C 1.5483 -1.1741 0.5786 0
M  V30 25 C -0.0324 -2.2771 2.0862 0
M  V30 26 C 2.1154 3.4483 2.1778 0
M  V30 27 O 1.8105 -0.2848 -0.469 0
M  V30 28 C 2.5667 -2.0555 1.0004 0
M  V30 29 C 0.9812 -3.1907 2.4637 0
M  V30 30 C -1.3193 -2.4117 2.6497 0
M  V30 31 C 3.9336 -1.988 0.4308 0
M  V30 32 C 2.2688 -3.0657 1.928 0
M  V30 33 C 0.6943 -4.2152 3.3818 0
M  V30 34 C -1.5899 -3.4346 3.5627 0
M  V30 35 O 4.5332 -3.0636 0.1561 0
M  V30 36 N 4.5735 -0.7206 0.1913 0
M  V30 37 C -0.5859 -4.3328 3.9287 0
M  V30 38 C 5.823 -0.5812 -0.5067 0
M  V30 39 C 5.9612 0.4163 -1.4917 0
M  V30 40 C 6.9239 -1.3941 -0.1807 0
M  V30 41 O 4.8545 1.2304 -1.7846 0
M  V30 42 C 7.1941 0.5633 -2.1593 0
M  V30 43 C 8.1401 -1.2389 -0.8502 0
M  V30 44 C 4.8487 2.2706 -2.7538 0
M  V30 45 C 8.2743 -0.2646 -1.8388 0
M  V30 46 H -7.8309 -2.7688 -3.6102 0
M  V30 47 H -4.2614 0.0197 -2.0253 0
M  V30 48 H -7.3585 0.7673 -0.162 0
M  V30 49 H -9.6974 -2.2729 -2.0837 0
M  V30 50 H -2.962 0.3509 -0.2164 0
M  V30 51 H -4.2913 4.4091 -0.7669 0
M  V30 52 H -2.2168 5.2318 0.1869 0
M  V30 53 H 1.8462 3.9301 3.1428 0
M  V30 54 H 2.79 2.593 2.3886 0
M  V30 55 H 2.6489 4.1728 1.5245 0
M  V30 56 H 1.0902 0.2448 -0.9413 0
M  V30 57 H -2.1212 -1.7316 2.3897 0
M  V30 58 H 3.0457 -3.7579 2.2369 0
M  V30 59 H 1.4611 -4.9226 3.6764 0
M  V30 60 H -2.5825 -3.5304 3.9853 0
M  V30 61 H 4.0612 0.1572 0.4379 0
M  V30 62 H -0.8014 -5.1249 4.6349 0
M  V30 63 H 6.8494 -2.1334 0.605 0
M  V30 64 H 7.3266 1.3147 -2.9265 0
M  V30 65 H 8.9829 -1.8713 -0.5973 0
M  V30 66 H 3.8527 2.7583 -2.7494 0
M  V30 67 H 5.0326 1.8511 -3.7662 0
M  V30 68 H 5.6174 3.0335 -2.4992 0
M  V30 69 H 9.2201 -0.1447 -2.3529 0
M  V30 END ATOM
M  V30 BEGIN BOND
M  V30 1 1 1 2
M  V30 2 2 2 3
M  V30 3 1 2 4
M  V30 4 1 3 5
M  V30 5 1 3 6
M  V30 6 2 4 7
M  V30 7 1 5 8
M  V30 8 2 6 9
M  V30 9 2 8 10
M  V30 10 1 8 11
M  V30 11 1 9 12
M  V30 12 2 11 13
M  V30 13 1 11 14
M  V30 14 1 13 15
M  V30 15 2 14 16
M  V30 16 1 15 17
M  V30 17 2 15 18
M  V30 18 2 17 19
M  V30 19 1 18 20
M  V30 20 1 19 21
M  V30 21 2 20 22
M  V30 22 1 20 23
M  V30 23 2 21 24
M  V30 24 1 21 25
M  V30 25 1 23 26
M  V30 26 1 24 27
M  V30 27 1 24 28
M  V30 28 1 25 29
M  V30 29 2 25 30
M  V30 30 1 28 31
M  V30 31 2 28 32
M  V30 32 2 29 33
M  V30 33 1 30 34
M  V30 34 2 31 35
M  V30 35 1 31 36
M  V30 36 1 33 37
M  V30 37 1 36 38
M  V30 38 2 38 39
M  V30 39 1 38 40
M  V30 40 1 39 41
M  V30 41 1 39 42
M  V30 42 2 40 43
M  V30 43 1 41 44
M  V30 44 2 42 45
M  V30 45 1 7 9
M  V30 46 1 16 18
M  V30 47 1 29 32
M  V30 48 2 34 37
M  V30 49 1 43 45
M  V30 50 1 4 46
M  V30 51 1 5 47
M  V30 52 1 6 48
M  V30 53 1 7 49
M  V30 54 1 13 50
M  V30 55 1 14 51
M  V30 56 1 16 52
M  V30 57 1 26 53
M  V30 58 1 26 54
M  V30 59 1 26 55
M  V30 60 1 27 56
M  V30 61 1 30 57
M  V30 62 1 32 58
M  V30 63 1 33 59
M  V30 64 1 34 60
M  V30 65 1 36 61
M  V30 66 1 37 62
M  V30 67 1 40 63
M  V30 68 1 42 64
M  V30 69 1 43 65
M  V30 70 1 44 66
M  V30 71 1 44 67
M  V30 72 1 44 68
M  V30 73 1 45 69
M  V30 END BOND
M  V30 END CTAB
M  END
>  <Structure No>
2987

>  <LogS>
-8.175068622

>  <MMFF94 Energy>
112.27

$$$$
Compound 2988
Actelion Java MolfileCreator 2.0

  0  0  0  0  0  0              0 V3000
M  V30 BEGIN CTAB
M  V30 COUNTS 52 54 0 0 0
M  V30 BEGIN ATOM
M  V30 1 O -2.5546 2.1551 0.4786 0
M  V30 2 C -1.3144 2.1762 0.2509 0
M  V30 3 C -0.6283 0.9917 -0.3458 0
M  V30 4 C -0.5361 3.3736 0.6316 0
M  V30 5 C 0.7914 0.9224 -0.2992 0
M  V30 6 C -1.3631 -0.0778 -0.9238 0
M  V30 7 C 0.8676 3.305 0.6779 0
M  V30 8 C -1.1842 4.5748 0.974 0
M  V30 9 C 1.549 2.0363 0.3456 0
M  V30 10 C 1.4549 -0.2151 -0.8317 0
M  V30 11 N -2.7877 0.0064 -1.1019 0
M  V30 12 C -0.684 -1.2064 -1.3974 0
M  V30 13 C 1.6057 4.4385 1.066 0
M  V30 14 C -0.4409 5.6952 1.3519 0
M  V30 15 O 2.7633 1.8951 0.6548 0
M  V30 16 N 2.8896 -0.2697 -0.9168 0
M  V30 17 C 0.7015 -1.2739 -1.3523 0
M  V30 18 C -3.6687 -1.1529 -0.9666 0
M  V30 19 C 0.9517 5.6272 1.398 0
M  V30 20 C 3.6433 -1.5095 -0.7326 0
M  V30 21 C -5.0274 -0.7196 -0.4027 0
M  V30 22 C 4.9989 -1.2103 -0.0815 0
M  V30 23 C -6.0331 -1.8784 -0.3262 0
M  V30 24 C 5.8809 -2.4613 0.0498 0
M  V30 25 C -5.6893 -2.8888 0.7679 0
M  V30 26 C 5.3716 -3.4355 1.1117 0
M  V30 27 H -2.2642 4.6494 0.9461 0
M  V30 28 H -3.1787 0.8765 -1.5296 0
M  V30 29 H -1.2281 -2.0235 -1.8537 0
M  V30 30 H 2.6872 4.4073 1.1094 0
M  V30 31 H -0.9457 6.617 1.6112 0
M  V30 32 H 3.39 0.558 -1.3131 0
M  V30 33 H 1.1921 -2.1412 -1.775 0
M  V30 34 H -3.8054 -1.6213 -1.9651 0
M  V30 35 H -3.2046 -1.8938 -0.2812 0
M  V30 36 H 1.5257 6.4963 1.6928 0
M  V30 37 H 3.7967 -1.9894 -1.7229 0
M  V30 38 H 3.0667 -2.2011 -0.082 0
M  V30 39 H -4.8891 -0.2688 0.6045 0
M  V30 40 H -5.4552 0.0636 -1.0658 0
M  V30 41 H 4.8414 -0.7493 0.9183 0
M  V30 42 H 5.5416 -0.4716 -0.7108 0
M  V30 43 H -6.0947 -2.3975 -1.3072 0
M  V30 44 H -7.0376 -1.4565 -0.106 0
M  V30 45 H 5.9552 -2.982 -0.9293 0
M  V30 46 H 6.9053 -2.1389 0.3372 0
M  V30 47 H -5.5719 -2.3773 1.7469 0
M  V30 48 H -6.5104 -3.6314 0.8545 0
M  V30 49 H -4.7558 -3.4349 0.5207 0
M  V30 50 H 4.4079 -3.8888 0.8006 0
M  V30 51 H 6.1099 -4.254 1.2451 0
M  V30 52 H 5.2404 -2.9167 2.0851 0
M  V30 END ATOM
M  V30 BEGIN BOND
M  V30 1 2 1 2
M  V30 2 1 2 3
M  V30 3 1 2 4
M  V30 4 2 3 5
M  V30 5 1 3 6
M  V30 6 2 4 7
M  V30 7 1 4 8
M  V30 8 1 5 9
M  V30 9 1 5 10
M  V30 10 1 6 11
M  V30 11 2 6 12
M  V30 12 1 7 13
M  V30 13 2 8 14
M  V30 14 2 9 15
M  V30 15 1 10 16
M  V30 16 2 10 17
M  V30 17 1 11 18
M  V30 18 2 13 19
M  V30 19 1 16 20
M  V30 20 1 18 21
M  V30 21 1 20 22
M  V30 22 1 21 23
M  V30 23 1 22 24
M  V30 24 1 23 25
M  V30 25 1 24 26
M  V30 26 1 7 9
M  V30 27 1 12 17
M  V30 28 1 14 19
M  V30 29 1 8 27
M  V30 30 1 11 28
M  V30 31 1 12 29
M  V30 32 1 13 30
M  V30 33 1 14 31
M  V30 34 1 16 32
M  V30 35 1 17 33
M  V30 36 1 18 34
M  V30 37 1 18 35
M  V30 38 1 19 36
M  V30 39 1 20 37
M  V30 40 1 20 38
M  V30 41 1 21 39
M  V30 42 1 21 40
M  V30 43 1 22 41
M  V30 44 1 22 42
M  V30 45 1 23 43
M  V30 46 1 23 44
M  V30 47 1 24 45
M  V30 48 1 24 46
M  V30 49 1 25 47
M  V30 50 1 25 48
M  V30 51 1 25 49
M  V30 52 1 26 50
M  V30 53 1 26 51
M  V30 54 1 26 52
M  V30 END BOND
M  V30 END CTAB
M  END
>  <Structure No>
2988

>  <LogS>
-7.931857078

>  <MMFF94 Energy>
78.287

$$$$
Compound 2989
Actelion Java MolfileCreator 2.0

  0  0  0  0  0  0              0 V3000
M  V30 BEGIN CTAB
M  V30 COUNTS 61 60 0 0 0
M  V30 BEGIN ATOM
M  V30 1 O 6.4783 -0.1557 1.8698 0
M  V30 2 C 6.1976 1.1651 1.4918 0
M  V30 3 C 6.5988 1.4056 0.0583 0
M  V30 4 C 5.9713 0.8656 -1.0118 0
M  V30 5 C 4.7486 -0.0227 -0.8863 0
M  V30 6 C 6.4682 1.2233 -2.3901 0
M  V30 7 C 3.4633 0.8072 -0.991 0
M  V30 8 C 2.1977 0.0275 -0.5924 0
M  V30 9 C 1.8653 -1.1654 -1.5337 0 CFG=2
M  V30 10 C 0.353 -1.245 -1.8605 0
M  V30 11 C 2.3838 -2.5029 -0.9712 0
M  V30 12 C -0.5462 -1.5086 -0.6386 0
M  V30 13 C -2.0288 -1.5421 -1.0496 0
M  V30 14 C -3.0151 -1.7008 0.1331 0 CFG=2
M  V30 15 C -2.9751 -0.4716 1.0805 0
M  V30 16 C -2.7835 -3.0195 0.8927 0
M  V30 17 C -4.2504 -0.3094 1.9315 0
M  V30 18 C -5.4642 0.1955 1.1176 0
M  V30 19 C -5.8788 1.6402 1.4742 0
M  V30 20 C -4.8215 2.66 1.0165 0
M  V30 21 C -7.2362 1.9749 0.837 0
M  V30 22 H 7.4659 -0.2201 1.9675 0
M  V30 23 H 5.1129 1.3644 1.6231 0
M  V30 24 H 6.7483 1.873 2.1528 0
M  V30 25 H 7.4427 2.0728 -0.1082 0
M  V30 26 H 4.7698 -0.7696 -1.7077 0
M  V30 27 H 4.7607 -0.5942 0.0639 0
M  V30 28 H 7.5073 0.8502 -2.5251 0
M  V30 29 H 6.4561 2.3251 -2.52 0
M  V30 30 H 5.8284 0.7771 -3.1797 0
M  V30 31 H 3.5439 1.6883 -0.3164 0
M  V30 32 H 3.3504 1.1944 -2.0281 0
M  V30 33 H 2.282 -0.3108 0.4635 0
M  V30 34 H 1.3656 0.7647 -0.6141 0
M  V30 35 H 2.3753 -1.0024 -2.5092 0
M  V30 36 H 0.0441 -0.2911 -2.3417 0
M  V30 37 H 0.1896 -2.0497 -2.6105 0
M  V30 38 H 3.4897 -2.5248 -0.9574 0
M  V30 39 H 2.0416 -3.3469 -1.6064 0
M  V30 40 H 2.0273 -2.6696 0.0665 0
M  V30 41 H -0.3851 -0.7133 0.1173 0
M  V30 42 H -0.2773 -2.4869 -0.191 0
M  V30 43 H -2.279 -0.6071 -1.5971 0
M  V30 44 H -2.1847 -2.3833 -1.7605 0
M  V30 45 H -4.0268 -1.7692 -0.3226 0
M  V30 46 H -2.105 -0.5622 1.7661 0
M  V30 47 H -2.8199 0.4606 0.4939 0
M  V30 48 H -1.8554 -2.9746 1.4999 0
M  V30 49 H -2.7043 -3.8675 0.1792 0
M  V30 50 H -3.6366 -3.2333 1.5693 0
M  V30 51 H -4.504 -1.2746 2.4137 0
M  V30 52 H -4.0268 0.3881 2.7666 0
M  V30 53 H -6.3201 -0.4815 1.3268 0
M  V30 54 H -5.2752 0.1335 0.0239 0
M  V30 55 H -5.9968 1.7217 2.5785 0
M  V30 56 H -5.1651 3.6949 1.234 0
M  V30 57 H -4.6379 2.5688 -0.0765 0
M  V30 58 H -3.8622 2.5014 1.5583 0
M  V30 59 H -7.5574 2.9971 1.135 0
M  V30 60 H -8.0119 1.2584 1.1814 0
M  V30 61 H -7.1714 1.9301 -0.2723 0
M  V30 END ATOM
M  V30 BEGIN BOND
M  V30 1 1 1 2
M  V30 2 1 2 3
M  V30 3 2 3 4
M  V30 4 1 4 5
M  V30 5 1 4 6
M  V30 6 1 5 7
M  V30 7 1 7 8
M  V30 8 1 8 9
M  V30 9 1 9 10
M  V30 10 1 9 11
M  V30 11 1 10 12
M  V30 12 1 12 13
M  V30 13 1 13 14
M  V30 14 1 14 15
M  V30 15 1 14 16
M  V30 16 1 15 17
M  V30 17 1 17 18
M  V30 18 1 18 19
M  V30 19 1 19 20
M  V30 20 1 19 21
M  V30 21 1 1 22
M  V30 22 1 2 23
M  V30 23 1 2 24
M  V30 24 1 3 25
M  V30 25 1 5 26
M  V30 26 1 5 27
M  V30 27 1 6 28
M  V30 28 1 6 29
M  V30 29 1 6 30
M  V30 30 1 7 31
M  V30 31 1 7 32
M  V30 32 1 8 33
M  V30 33 1 8 34
M  V30 34 1 9 35
M  V30 35 1 10 36
M  V30 36 1 10 37
M  V30 37 1 11 38
M  V30 38 1 11 39
M  V30 39 1 11 40
M  V30 40 1 12 41
M  V30 41 1 12 42
M  V30 42 1 13 43
M  V30 43 1 13 44
M  V30 44 1 14 45
M  V30 45 1 15 46
M  V30 46 1 15 47
M  V30 47 1 16 48
M  V30 48 1 16 49
M  V30 49 1 16 50
M  V30 50 1 17 51
M  V30 51 1 17 52
M  V30 52 1 18 53
M  V30 53 1 18 54
M  V30 54 1 19 55
M  V30 55 1 20 56
M  V30 56 1 20 57
M  V30 57 1 20 58
M  V30 58 1 21 59
M  V30 59 1 21 60
M  V30 60 1 21 61
M  V30 END BOND
M  V30 BEGIN COLLECTION
M  V30 MDLV30/STEABS ATOMS=(2 9 14)
M  V30 END COLLECTION
M  V30 END CTAB
M  END
>  <Structure No>
2989

>  <LogS>
-4.861741107

>  <MMFF94 Energy>
14.526

$$$$
Compound 2990
Actelion Java MolfileCreator 2.0

  0  0  0  0  0  0              0 V3000
M  V30 BEGIN CTAB
M  V30 COUNTS 62 61 0 0 0
M  V30 BEGIN ATOM
M  V30 1 N 3.8038 1.0856 -3.1042 0 CHG=1
M  V30 2 C 4.3597 -0.2164 -2.7382 0
M  V30 3 C 4.3958 -0.388 -1.2126 0
M  V30 4 C 4.8146 -1.812 -0.8268 0
M  V30 5 C 5.0622 -1.9778 0.6831 0
M  V30 6 C 3.7963 -1.7912 1.5505 0
M  V30 7 C 3.7566 -0.4077 2.2241 0
M  V30 8 C 2.5335 -0.2312 3.1503 0
M  V30 9 C 1.4051 0.6222 2.5366 0
M  V30 10 C 0.6816 -0.0056 1.3282 0
M  V30 11 C -0.0555 -1.332 1.611 0
M  V30 12 C -1.2772 -1.205 2.5471 0
M  V30 13 C -2.6225 -1.0757 1.8119 0
M  V30 14 C -2.791 0.2739 1.0976 0
M  V30 15 C -4.2464 0.4896 0.6549 0
M  V30 16 C -4.4927 1.897 0.0811 0
M  V30 17 C -3.7068 2.2263 -1.2046 0
M  V30 18 C -3.9448 1.2625 -2.3817 0
M  V30 19 C -5.4148 1.2136 -2.8247 0
M  V30 20 C -5.579 0.3949 -4.1013 0
M  V30 21 H 3.8378 1.1934 -4.145 0
M  V30 22 H 4.3636 1.8523 -2.6643 0
M  V30 23 H 2.8093 1.1489 -2.7874 0
M  V30 24 H 5.39 -0.306 -3.1486 0
M  V30 25 H 3.7347 -1.0185 -3.1894 0
M  V30 26 H 3.3834 -0.1844 -0.809 0
M  V30 27 H 5.1087 0.346 -0.7762 0
M  V30 28 H 4.0361 -2.5336 -1.159 0
M  V30 29 H 5.7589 -2.0673 -1.357 0
M  V30 30 H 5.8785 -1.2947 1.0073 0
M  V30 31 H 5.4433 -3.0111 0.8426 0
M  V30 32 H 2.8792 -1.9634 0.9488 0
M  V30 33 H 3.8063 -2.5646 2.3503 0
M  V30 34 H 4.6755 -0.3031 2.8436 0
M  V30 35 H 3.7912 0.3999 1.4626 0
M  V30 36 H 2.8751 0.307 4.0634 0
M  V30 37 H 2.1482 -1.2079 3.5114 0
M  V30 38 H 1.833 1.5968 2.2143 0
M  V30 39 H 0.6712 0.8685 3.3314 0
M  V30 40 H -0.034 0.7439 0.9348 0
M  V30 41 H 1.4162 -0.178 0.5162 0
M  V30 42 H -0.3735 -1.7704 0.6393 0
M  V30 43 H 0.6566 -2.064 2.0443 0
M  V30 44 H -1.1654 -0.3735 3.27 0
M  V30 45 H -1.3299 -2.1349 3.1546 0
M  V30 46 H -2.7386 -1.9054 1.0803 0
M  V30 47 H -3.4283 -1.1881 2.5703 0
M  V30 48 H -2.4893 1.0986 1.7802 0
M  V30 49 H -2.1391 0.2829 0.1994 0
M  V30 50 H -4.9135 0.3703 1.537 0
M  V30 51 H -4.5414 -0.2881 -0.0799 0
M  V30 52 H -5.5804 2.0208 -0.1105 0
M  V30 53 H -4.2258 2.6493 0.8549 0
M  V30 54 H -2.6197 2.2522 -0.9759 0
M  V30 55 H -3.9825 3.2558 -1.5245 0
M  V30 56 H -3.3259 1.6123 -3.2377 0
M  V30 57 H -3.5905 0.2425 -2.1191 0
M  V30 58 H -6.0341 0.7458 -2.0278 0
M  V30 59 H -5.7873 2.2449 -3.0119 0
M  V30 60 H -5.2118 -0.641 -3.94 0
M  V30 61 H -5.0124 0.8607 -4.9364 0
M  V30 62 H -6.6542 0.355 -4.3807 0
M  V30 END ATOM
M  V30 BEGIN BOND
M  V30 1 1 1 2
M  V30 2 1 2 3
M  V30 3 1 3 4
M  V30 4 1 4 5
M  V30 5 1 5 6
M  V30 6 1 6 7
M  V30 7 1 7 8
M  V30 8 1 8 9
M  V30 9 1 9 10
M  V30 10 1 10 11
M  V30 11 1 11 12
M  V30 12 1 12 13
M  V30 13 1 13 14
M  V30 14 1 14 15
M  V30 15 1 15 16
M  V30 16 1 16 17
M  V30 17 1 17 18
M  V30 18 1 18 19
M  V30 19 1 19 20
M  V30 20 1 1 21
M  V30 21 1 1 22
M  V30 22 1 1 23
M  V30 23 1 2 24
M  V30 24 1 2 25
M  V30 25 1 3 26
M  V30 26 1 3 27
M  V30 27 1 4 28
M  V30 28 1 4 29
M  V30 29 1 5 30
M  V30 30 1 5 31
M  V30 31 1 6 32
M  V30 32 1 6 33
M  V30 33 1 7 34
M  V30 34 1 7 35
M  V30 35 1 8 36
M  V30 36 1 8 37
M  V30 37 1 9 38
M  V30 38 1 9 39
M  V30 39 1 10 40
M  V30 40 1 10 41
M  V30 41 1 11 42
M  V30 42 1 11 43
M  V30 43 1 12 44
M  V30 44 1 12 45
M  V30 45 1 13 46
M  V30 46 1 13 47
M  V30 47 1 14 48
M  V30 48 1 14 49
M  V30 49 1 15 50
M  V30 50 1 15 51
M  V30 51 1 16 52
M  V30 52 1 16 53
M  V30 53 1 17 54
M  V30 54 1 17 55
M  V30 55 1 18 56
M  V30 56 1 18 57
M  V30 57 1 19 58
M  V30 58 1 19 59
M  V30 59 1 20 60
M  V30 60 1 20 61
M  V30 61 1 20 62
M  V30 END BOND
M  V30 END CTAB
M  END
>  <Structure No>
2990

>  <LogS>
-5.85712424

>  <MMFF94 Energy>
-1.8158

$$$$
Compound 2991
Actelion Java MolfileCreator 2.0

  0  0  0  0  0  0              0 V3000
M  V30 BEGIN CTAB
M  V30 COUNTS 30 31 0 0 0
M  V30 BEGIN ATOM
M  V30 1 Cl 0.0 2.4995 1.4992 0
M  V30 2 C -1.3731 1.5152 1.0077 0
M  V30 3 C -1.2414 0.512 0.0287 0
M  V30 4 C -2.6082 1.7306 1.6266 0
M  V30 5 N 0.0158 0.3135 -0.6404 0
M  V30 6 C -2.3673 -0.2522 -0.3269 0
M  V30 7 C -3.7173 0.9571 1.2791 0
M  V30 8 C 0.5511 -0.9811 -0.9545 0
M  V30 9 C -3.6031 -0.0559 0.3136 0
M  V30 10 O -0.0036 -2.0279 -0.523 0
M  V30 11 C 1.8302 -1.0918 -1.724 0
M  V30 12 C -4.8142 -0.8501 -0.1077 0
M  V30 13 N 2.9614 -0.8383 -0.8396 0
M  V30 14 F -5.4363 -0.2067 -1.1611 0
M  V30 15 F -4.4464 -2.1226 -0.5097 0
M  V30 16 F -5.7109 -0.9706 0.9401 0
M  V30 17 N 3.4666 0.3567 -0.5968 0
M  V30 18 C 3.5971 -1.737 -0.0677 0
M  V30 19 C 4.4294 0.1477 0.3216 0
M  V30 20 N 4.547 -1.1491 0.6863 0
M  V30 21 N 5.2341 1.1948 0.8657 0 CHG=1
M  V30 22 O 6.1079 0.9386 1.7188 0
M  V30 23 O 5.048 2.4935 0.4533 0 CHG=-1
M  V30 24 H -2.7116 2.5029 2.3784 0
M  V30 25 H 0.6106 1.1483 -0.8425 0
M  V30 26 H -2.2869 -0.9838 -1.1207 0
M  V30 27 H -4.6662 1.1557 1.7616 0
M  V30 28 H 1.8302 -0.3522 -2.5534 0
M  V30 29 H 1.9206 -2.1049 -2.1738 0
M  V30 30 H 3.3703 -2.7951 -0.0427 0
M  V30 END ATOM
M  V30 BEGIN BOND
M  V30 1 1 1 2
M  V30 2 2 2 3
M  V30 3 1 2 4
M  V30 4 1 3 5
M  V30 5 1 3 6
M  V30 6 2 4 7
M  V30 7 1 5 8
M  V30 8 2 6 9
M  V30 9 2 8 10
M  V30 10 1 8 11
M  V30 11 1 9 12
M  V30 12 1 11 13
M  V30 13 1 12 14
M  V30 14 1 12 15
M  V30 15 1 12 16
M  V30 16 1 13 17
M  V30 17 1 13 18
M  V30 18 2 17 19
M  V30 19 2 18 20
M  V30 20 1 19 21
M  V30 21 2 21 22
M  V30 22 1 21 23
M  V30 23 1 7 9
M  V30 24 1 19 20
M  V30 25 1 4 24
M  V30 26 1 5 25
M  V30 27 1 6 26
M  V30 28 1 7 27
M  V30 29 1 11 28
M  V30 30 1 11 29
M  V30 31 1 18 30
M  V30 END BOND
M  V30 END CTAB
M  END
>  <Structure No>
2991

>  <LogS>
-5.968106767

>  <MMFF94 Energy>
155.99

$$$$
Compound 2992
Actelion Java MolfileCreator 2.0

  0  0  0  0  0  0              0 V3000
M  V30 BEGIN CTAB
M  V30 COUNTS 56 56 0 0 0
M  V30 BEGIN ATOM
M  V30 1 O -2.2105 2.4476 -1.8945 0
M  V30 2 C -1.5177 1.7243 -1.1288 0
M  V30 3 O -1.9766 1.3625 0.1473 0
M  V30 4 C -0.1897 1.2103 -1.5888 0
M  V30 5 C -3.2508 1.6859 0.7262 0
M  V30 6 O -0.2448 0.5584 -2.7978 0
M  V30 7 O 0.3035 1.7889 -2.735 0
M  V30 8 C 0.8395 0.6443 -0.5967 0
M  V30 9 C -4.432 1.0557 -0.089 0
M  V30 10 C -3.2309 1.1932 2.1838 0
M  V30 11 C -3.4311 3.2219 0.7662 0
M  V30 12 C 2.201 0.3103 -1.2291 0
M  V30 13 C -4.5619 -0.505 -0.2362 0
M  V30 14 C 3.1692 -0.2573 -0.1831 0
M  V30 15 C -3.2163 -1.1933 -0.5434 0
M  V30 16 C -5.5156 -0.7854 -1.422 0
M  V30 17 C -5.1964 -1.1467 1.0205 0
M  V30 18 C 4.5297 -0.5956 -0.8231 0
M  V30 19 C 5.5944 -1.1845 0.1508 0
M  V30 20 C 5.936 -0.1821 1.2742 0
M  V30 21 C 6.8786 -1.4682 -0.6572 0
M  V30 22 C 5.1071 -2.5104 0.7739 0
M  V30 23 H 0.9883 1.3917 0.2132 0
M  V30 24 H 0.4105 -0.2746 -0.1404 0
M  V30 25 H -4.3868 1.4923 -1.1094 0
M  V30 26 H -5.3877 1.4406 0.333 0
M  V30 27 H -4.2507 1.2093 2.6252 0
M  V30 28 H -2.8036 0.1736 2.2515 0
M  V30 29 H -2.5735 1.8389 2.8059 0
M  V30 30 H -4.3097 3.4965 1.3899 0
M  V30 31 H -2.5282 3.7066 1.1965 0
M  V30 32 H -3.6019 3.6439 -0.2449 0
M  V30 33 H 2.0588 -0.439 -2.0385 0
M  V30 34 H 2.6391 1.2333 -1.6689 0
M  V30 35 H 3.3044 0.4977 0.6196 0
M  V30 36 H 2.7179 -1.1722 0.2549 0
M  V30 37 H -3.3685 -2.279 -0.729 0
M  V30 38 H -2.5104 -1.1056 0.3064 0
M  V30 39 H -2.7512 -0.7564 -1.4517 0
M  V30 40 H -5.0976 -0.3828 -2.3705 0
M  V30 41 H -6.506 -0.3101 -1.2487 0
M  V30 42 H -5.6754 -1.8774 -1.5597 0
M  V30 43 H -6.1195 -0.6052 1.3181 0
M  V30 44 H -4.5046 -1.1665 1.881 0
M  V30 45 H -5.4721 -2.2053 0.8215 0
M  V30 46 H 4.9382 0.3308 -1.2866 0
M  V30 47 H 4.3561 -1.3216 -1.6492 0
M  V30 48 H 6.2184 0.8038 0.8464 0
M  V30 49 H 5.0771 -0.0378 1.9619 0
M  V30 50 H 6.7875 -0.5541 1.884 0
M  V30 51 H 6.6764 -2.1958 -1.473 0
M  V30 52 H 7.6722 -1.893 -0.0048 0
M  V30 53 H 7.2705 -0.5328 -1.1131 0
M  V30 54 H 4.7832 -3.2197 -0.0183 0
M  V30 55 H 4.2583 -2.3423 1.4693 0
M  V30 56 H 5.9219 -2.9897 1.3588 0
M  V30 END ATOM
M  V30 BEGIN BOND
M  V30 1 2 1 2
M  V30 2 1 2 3
M  V30 3 1 2 4
M  V30 4 1 3 5
M  V30 5 1 4 6
M  V30 6 1 4 7
M  V30 7 1 4 8
M  V30 8 1 5 9
M  V30 9 1 5 10
M  V30 10 1 5 11
M  V30 11 1 8 12
M  V30 12 1 9 13
M  V30 13 1 12 14
M  V30 14 1 13 15
M  V30 15 1 13 16
M  V30 16 1 13 17
M  V30 17 1 14 18
M  V30 18 1 18 19
M  V30 19 1 19 20
M  V30 20 1 19 21
M  V30 21 1 19 22
M  V30 22 1 6 7
M  V30 23 1 8 23
M  V30 24 1 8 24
M  V30 25 1 9 25
M  V30 26 1 9 26
M  V30 27 1 10 27
M  V30 28 1 10 28
M  V30 29 1 10 29
M  V30 30 1 11 30
M  V30 31 1 11 31
M  V30 32 1 11 32
M  V30 33 1 12 33
M  V30 34 1 12 34
M  V30 35 1 14 35
M  V30 36 1 14 36
M  V30 37 1 15 37
M  V30 38 1 15 38
M  V30 39 1 15 39
M  V30 40 1 16 40
M  V30 41 1 16 41
M  V30 42 1 16 42
M  V30 43 1 17 43
M  V30 44 1 17 44
M  V30 45 1 17 45
M  V30 46 1 18 46
M  V30 47 1 18 47
M  V30 48 1 20 48
M  V30 49 1 20 49
M  V30 50 1 20 50
M  V30 51 1 21 51
M  V30 52 1 21 52
M  V30 53 1 21 53
M  V30 54 1 22 54
M  V30 55 1 22 55
M  V30 56 1 22 56
M  V30 END BOND
M  V30 END CTAB
M  END
>  <Structure No>
2992

>  <LogS>
-6.971234419

>  <MMFF94 Energy>
60.108

$$$$
Compound 2993
Actelion Java MolfileCreator 2.0

  0  0  0  0  0  0              0 V3000
M  V30 BEGIN CTAB
M  V30 COUNTS 36 40 0 0 0
M  V30 BEGIN ATOM
M  V30 1 Cl 5.1648 -2.9132 -0.6653 0
M  V30 2 C 4.9076 -1.3523 0.1294 0
M  V30 3 C 3.6229 -0.7358 0.2284 0
M  V30 4 C 6.0344 -0.7104 0.6803 0
M  V30 5 C 2.4355 -1.3096 -0.2967 0
M  V30 6 C 3.5178 0.52 0.8863 0
M  V30 7 Cl 7.6411 -1.4255 0.5868 0
M  V30 8 C 5.903 0.5202 1.3199 0
M  V30 9 O 2.4625 -2.4213 -0.891 0
M  V30 10 C 1.2037 -0.6392 -0.1591 0
M  V30 11 N 2.3111 1.144 1.0034 0
M  V30 12 C 4.6592 1.1306 1.423 0
M  V30 13 C 1.1661 0.6036 0.5041 0
M  V30 14 C 0.0097 -1.184 -0.6698 0
M  V30 15 C -0.053 1.284 0.6493 0
M  V30 16 C -1.2098 -0.5055 -0.5256 0
M  V30 17 C -1.2453 0.7402 0.1395 0
M  V30 18 N -2.3572 -1.0478 -1.0265 0
M  V30 19 C -2.4769 1.4093 0.2765 0
M  V30 20 C -3.5611 -0.4188 -0.9062 0
M  V30 21 O -2.5315 2.5243 0.8676 0
M  V30 22 C -3.6474 0.831 -0.2479 0
M  V30 23 C -4.7219 -1.0076 -1.4345 0
M  V30 24 C -4.9 1.4655 -0.1335 0
M  V30 25 C -5.9562 -0.366 -1.313 0
M  V30 26 C -6.045 0.8666 -0.6644 0
M  V30 27 H 6.7722 1.0092 1.7415 0
M  V30 28 H 2.2625 2.0682 1.4929 0
M  V30 29 H 4.5853 2.0875 1.9254 0
M  V30 30 H 0.021 -2.1387 -1.1824 0
M  V30 31 H -0.0661 2.2389 1.1618 0
M  V30 32 H -2.3134 -1.9715 -1.5165 0
M  V30 33 H -4.6711 -1.9636 -1.9407 0
M  V30 34 H -4.9975 2.4224 0.3645 0
M  V30 35 H -6.8465 -0.8256 -1.7225 0
M  V30 36 H -7.0041 1.36 -0.5729 0
M  V30 END ATOM
M  V30 BEGIN BOND
M  V30 1 1 1 2
M  V30 2 2 2 3
M  V30 3 1 2 4
M  V30 4 1 3 5
M  V30 5 1 3 6
M  V30 6 1 4 7
M  V30 7 2 4 8
M  V30 8 2 5 9
M  V30 9 1 5 10
M  V30 10 1 6 11
M  V30 11 2 6 12
M  V30 12 2 10 13
M  V30 13 1 10 14
M  V30 14 1 13 15
M  V30 15 2 14 16
M  V30 16 2 15 17
M  V30 17 1 16 18
M  V30 18 1 17 19
M  V30 19 1 18 20
M  V30 20 2 19 21
M  V30 21 1 19 22
M  V30 22 1 20 23
M  V30 23 1 22 24
M  V30 24 2 23 25
M  V30 25 2 24 26
M  V30 26 1 8 12
M  V30 27 1 11 13
M  V30 28 1 16 17
M  V30 29 2 20 22
M  V30 30 1 25 26
M  V30 31 1 8 27
M  V30 32 1 11 28
M  V30 33 1 12 29
M  V30 34 1 14 30
M  V30 35 1 15 31
M  V30 36 1 18 32
M  V30 37 1 23 33
M  V30 38 1 24 34
M  V30 39 1 25 35
M  V30 40 1 26 36
M  V30 END BOND
M  V30 END CTAB
M  END
>  <Structure No>
2993

>  <LogS>
-7.066625646

>  <MMFF94 Energy>
100.51

$$$$
Compound 2994
Actelion Java MolfileCreator 2.0

  0  0  0  0  0  0              0 V3000
M  V30 BEGIN CTAB
M  V30 COUNTS 42 43 0 0 0
M  V30 BEGIN ATOM
M  V30 1 Cl 2.884 1.7296 -4.287 0
M  V30 2 C 3.0704 1.7898 -2.5395 0
M  V30 3 C 3.2567 0.6129 -1.7976 0
M  V30 4 C 2.9957 3.0266 -1.8905 0
M  V30 5 N 3.3151 -0.65 -2.4801 0
M  V30 6 C 3.4267 0.6945 -0.4013 0
M  V30 7 C 3.1248 3.1116 -0.4946 0
M  V30 8 N 2.5147 -1.6285 -2.2838 0
M  V30 9 Cl 3.8003 -0.7285 0.5633 0
M  V30 10 C 3.3491 1.9349 0.241 0
M  V30 11 N 3.0385 4.3867 0.1679 0 CHG=1
M  V30 12 C 1.3463 -1.5979 -1.4464 0
M  V30 13 O 3.1434 4.468 1.4094 0
M  V30 14 O 2.8284 5.5382 -0.5557 0 CHG=-1
M  V30 15 C 0.4495 -0.5151 -1.4715 0
M  V30 16 C 1.0613 -2.7056 -0.6381 0
M  V30 17 C -0.6778 -0.5161 -0.6464 0
M  V30 18 C -0.0667 -2.706 0.1874 0
M  V30 19 C -0.9341 -1.6061 0.1938 0
M  V30 20 N -2.0838 -1.6003 1.0517 0
M  V30 21 C -3.3202 -2.2432 0.5859 0
M  V30 22 C -1.9128 -1.2717 2.4747 0
M  V30 23 C -4.4787 -1.2458 0.4976 0
M  V30 24 C -1.4401 0.173 2.6769 0
M  V30 25 C -4.2581 -0.2665 -0.5727 0
M  V30 26 C -2.4305 1.14 2.1898 0
M  V30 27 N -4.0872 0.5059 -1.4171 0
M  V30 28 N -3.2089 1.9062 1.8077 0
M  V30 29 H 2.8326 3.9198 -2.4795 0
M  V30 30 H 3.4759 1.979 1.3153 0
M  V30 31 H 0.6098 0.3212 -2.1375 0
M  V30 32 H 1.7273 -3.5592 -0.6331 0
M  V30 33 H -1.348 0.3328 -0.6573 0
M  V30 34 H -0.2667 -3.5594 0.8229 0
M  V30 35 H -3.5952 -3.0588 1.2896 0
M  V30 36 H -3.1662 -2.7177 -0.4096 0
M  V30 37 H -1.1575 -1.9574 2.9162 0
M  V30 38 H -2.8617 -1.4312 3.033 0
M  V30 39 H -5.4157 -1.799 0.2763 0
M  V30 40 H -4.6137 -0.7154 1.4628 0
M  V30 41 H -0.4745 0.342 2.1556 0
M  V30 42 H -1.278 0.3523 3.7608 0
M  V30 END ATOM
M  V30 BEGIN BOND
M  V30 1 1 1 2
M  V30 2 2 2 3
M  V30 3 1 2 4
M  V30 4 1 3 5
M  V30 5 1 3 6
M  V30 6 2 4 7
M  V30 7 2 5 8
M  V30 8 1 6 9
M  V30 9 2 6 10
M  V30 10 1 7 11
M  V30 11 1 8 12
M  V30 12 2 11 13
M  V30 13 1 11 14
M  V30 14 2 12 15
M  V30 15 1 12 16
M  V30 16 1 15 17
M  V30 17 2 16 18
M  V30 18 2 17 19
M  V30 19 1 19 20
M  V30 20 1 20 21
M  V30 21 1 20 22
M  V30 22 1 21 23
M  V30 23 1 22 24
M  V30 24 1 23 25
M  V30 25 1 24 26
M  V30 26 3 25 27
M  V30 27 3 26 28
M  V30 28 1 7 10
M  V30 29 1 18 19
M  V30 30 1 4 29
M  V30 31 1 10 30
M  V30 32 1 15 31
M  V30 33 1 16 32
M  V30 34 1 17 33
M  V30 35 1 18 34
M  V30 36 1 21 35
M  V30 37 1 21 36
M  V30 38 1 22 37
M  V30 39 1 22 38
M  V30 40 1 23 39
M  V30 41 1 23 40
M  V30 42 1 24 41
M  V30 43 1 24 42
M  V30 END BOND
M  V30 END CTAB
M  END
>  <Structure No>
2994

>  <LogS>
-7.115252612

>  <MMFF94 Energy>
93.275

$$$$
Compound 2995
Actelion Java MolfileCreator 2.0

  0  0  0  0  0  0              0 V3000
M  V30 BEGIN CTAB
M  V30 COUNTS 6 5 0 0 0
M  V30 BEGIN ATOM
M  V30 1 O -1.3529 -0.2535 -1.0991 0
M  V30 2 C -0.7496 0.0233 -0.0296 0
M  V30 3 O -1.4774 0.4043 1.0909 0 CHG=-1
M  V30 4 C 0.7119 -0.0559 0.0326 0
M  V30 5 O 1.3153 0.2209 1.1021 0
M  V30 6 O 1.4397 -0.4368 -1.0878 0 CHG=-1
M  V30 END ATOM
M  V30 BEGIN BOND
M  V30 1 2 1 2
M  V30 2 1 2 3
M  V30 3 1 2 4
M  V30 4 2 4 5
M  V30 5 1 4 6
M  V30 END BOND
M  V30 END CTAB
M  END
>  <Structure No>
2995

>  <LogS>
-4.667787925

>  <MMFF94 Energy>
278.93

$$$$
Compound 2996
Actelion Java MolfileCreator 2.0

  0  0  0  0  0  0              0 V3000
M  V30 BEGIN CTAB
M  V30 COUNTS 51 50 0 0 0
M  V30 BEGIN ATOM
M  V30 1 O 1.096 -2.7417 -0.5478 0
M  V30 2 C 1.3586 -1.6602 0.0482 0
M  V30 3 O 0.3321 -0.7844 0.3961 0
M  V30 4 C 2.7851 -1.2738 0.3365 0 CFG=2
M  V30 5 O -0.9536 -1.0955 0.1543 0
M  V30 6 C 3.5082 -0.8733 -0.9721 0
M  V30 7 C 3.503 -2.4322 1.068 0
M  V30 8 C -1.7603 0.0436 0.4211 0
M  V30 9 C 2.9113 0.401 -1.5983 0
M  V30 10 C 4.7876 -1.9858 1.769 0
M  V30 11 C -3.2399 -0.4607 0.2659 0
M  V30 12 C -1.4991 0.5374 1.8698 0
M  V30 13 C -1.3994 1.15 -0.5946 0
M  V30 14 C 3.5767 0.7814 -2.9296 0
M  V30 15 C -4.4757 0.4956 0.0738 0
M  V30 16 C 5.0269 1.2361 -2.7635 0
M  V30 17 C -5.7516 -0.3634 0.2695 0
M  V30 18 C -4.5389 1.0782 -1.358 0
M  V30 19 C -4.5303 1.6411 1.1046 0
M  V30 20 H 2.7666 -0.3914 1.0159 0
M  V30 21 H 3.4595 -1.712 -1.7008 0
M  V30 22 H 4.5753 -0.6792 -0.7512 0
M  V30 23 H 2.8274 -2.8508 1.8503 0
M  V30 24 H 3.739 -3.2542 0.3537 0
M  V30 25 H 2.9987 1.2472 -0.883 0
M  V30 26 H 1.8304 0.2409 -1.7981 0
M  V30 27 H 5.2001 -2.835 2.3546 0
M  V30 28 H 5.5572 -1.6671 1.0346 0
M  V30 29 H 4.5777 -1.1484 2.47 0
M  V30 30 H -3.2537 -1.1643 -0.5974 0
M  V30 31 H -3.4411 -1.112 1.1461 0
M  V30 32 H -0.4481 0.8745 1.9961 0
M  V30 33 H -1.6865 -0.2835 2.5955 0
M  V30 34 H -2.1251 1.4044 2.144 0
M  V30 35 H -1.6497 0.8223 -1.6281 0
M  V30 36 H -1.9092 2.1024 -0.358 0
M  V30 37 H -0.3114 1.3771 -0.5697 0
M  V30 38 H 3.0 1.6193 -3.38 0
M  V30 39 H 3.5331 -0.0772 -3.6362 0
M  V30 40 H 5.3876 1.6761 -3.7188 0
M  V30 41 H 5.1096 2.0061 -1.9648 0
M  V30 42 H 5.6805 0.3716 -2.5127 0
M  V30 43 H -5.7977 -0.7773 1.3032 0
M  V30 44 H -5.7693 -1.215 -0.4485 0
M  V30 45 H -6.671 0.2392 0.1061 0
M  V30 46 H -4.3923 0.2817 -2.1167 0
M  V30 47 H -3.79 1.8726 -1.5276 0
M  V30 48 H -5.5295 1.5453 -1.5439 0
M  V30 49 H -3.7331 2.3899 0.9273 0
M  V30 50 H -4.4498 1.2409 2.1398 0
M  V30 51 H -5.4959 2.1876 1.0282 0
M  V30 END ATOM
M  V30 BEGIN BOND
M  V30 1 2 1 2
M  V30 2 1 2 3
M  V30 3 1 2 4
M  V30 4 1 3 5
M  V30 5 1 4 6
M  V30 6 1 4 7
M  V30 7 1 5 8
M  V30 8 1 6 9
M  V30 9 1 7 10
M  V30 10 1 8 11
M  V30 11 1 8 12
M  V30 12 1 8 13
M  V30 13 1 9 14
M  V30 14 1 11 15
M  V30 15 1 14 16
M  V30 16 1 15 17
M  V30 17 1 15 18
M  V30 18 1 15 19
M  V30 19 1 4 20
M  V30 20 1 6 21
M  V30 21 1 6 22
M  V30 22 1 7 23
M  V30 23 1 7 24
M  V30 24 1 9 25
M  V30 25 1 9 26
M  V30 26 1 10 27
M  V30 27 1 10 28
M  V30 28 1 10 29
M  V30 29 1 11 30
M  V30 30 1 11 31
M  V30 31 1 12 32
M  V30 32 1 12 33
M  V30 33 1 12 34
M  V30 34 1 13 35
M  V30 35 1 13 36
M  V30 36 1 13 37
M  V30 37 1 14 38
M  V30 38 1 14 39
M  V30 39 1 16 40
M  V30 40 1 16 41
M  V30 41 1 16 42
M  V30 42 1 17 43
M  V30 43 1 17 44
M  V30 44 1 17 45
M  V30 45 1 18 46
M  V30 46 1 18 47
M  V30 47 1 18 48
M  V30 48 1 19 49
M  V30 49 1 19 50
M  V30 50 1 19 51
M  V30 END BOND
M  V30 BEGIN COLLECTION
M  V30 MDLV30/STEABS ATOMS=(1 4)
M  V30 END COLLECTION
M  V30 END CTAB
M  END
>  <Structure No>
2996

>  <LogS>
-5.94953191

>  <MMFF94 Energy>
49.128

$$$$
Compound 2997
Actelion Java MolfileCreator 2.0

  0  0  0  0  0  0              0 V3000
M  V30 BEGIN CTAB
M  V30 COUNTS 74 77 0 0 0
M  V30 BEGIN ATOM
M  V30 1 O -7.3838 -1.0408 -1.0408 0
M  V30 2 C -6.7894 0.2041 -0.7736 0 CFG=1
M  V30 3 C -6.4253 0.3059 0.7352 0
M  V30 4 C -5.5713 0.4231 -1.7086 0
M  V30 5 C -4.9209 0.3196 0.9254 0
M  V30 6 C -4.352 -0.4775 -1.3746 0
M  V30 7 C -4.345 1.4615 1.3411 0
M  V30 8 C -4.1185 -0.7232 0.1559 0 CFG=1
M  V30 9 C -3.0167 1.9011 0.8041 0
M  V30 10 C -2.5997 -0.6594 0.5863 0 CFG=2
M  V30 11 C -4.6533 -2.1362 0.5357 0
M  V30 12 C -1.9649 0.7747 0.6546 0 CFG=1
M  V30 13 C -1.7059 -1.6781 -0.1665 0
M  V30 14 C -0.9704 1.0716 -0.521 0 CFG=2
M  V30 15 C -0.2232 -1.3504 0.0058 0
M  V30 16 C 0.1576 -0.0039 -0.6819 0 CFG=2
M  V30 17 C -0.2156 2.3965 -0.3264 0
M  V30 18 C 1.4654 0.6822 -0.1169 0 CFG=1
M  V30 19 C 0.3638 -0.2878 -2.1981 0
M  V30 20 C 1.0373 2.0426 0.4431 0
M  V30 21 C 2.4195 -0.1534 0.8172 0 CFG=1
M  V30 22 C 3.8988 0.2617 0.5956 0
M  V30 23 C 2.0668 -0.0715 2.3222 0
M  V30 24 C 4.9 -0.6624 1.3154 0
M  V30 25 C 6.3598 -0.3749 0.9022 0
M  V30 26 C 6.9346 -1.3996 -0.1046 0
M  V30 27 C 6.2111 -1.3512 -1.458 0
M  V30 28 C 8.4348 -1.1506 -0.3081 0
M  V30 29 H -7.8605 -0.9545 -1.9078 0
M  V30 30 H -7.5319 1.007 -0.9947 0
M  V30 31 H -6.8611 -0.5421 1.3047 0
M  V30 32 H -6.8944 1.2207 1.1613 0
M  V30 33 H -5.8719 0.2594 -2.766 0
M  V30 34 H -5.2583 1.4876 -1.6268 0
M  V30 35 H -4.4705 -1.4439 -1.9117 0
M  V30 36 H -3.4656 0.0063 -1.8261 0
M  V30 37 H -4.9563 2.2341 1.8006 0
M  V30 38 H -2.6231 2.6921 1.4784 0
M  V30 39 H -3.2117 2.374 -0.1834 0
M  V30 40 H -2.586 -1.0035 1.6482 0
M  V30 41 H -4.5499 -2.3185 1.6267 0
M  V30 42 H -4.109 -2.9342 -0.0084 0
M  V30 43 H -5.7175 -2.2745 0.2726 0
M  V30 44 H -1.3578 0.7994 1.5892 0
M  V30 45 H -1.8723 -2.6952 0.2484 0
M  V30 46 H -1.963 -1.7253 -1.2424 0
M  V30 47 H -1.57 1.1581 -1.4528 0
M  V30 48 H 0.3807 -2.1871 -0.4093 0
M  V30 49 H -0.0281 -1.3313 1.0907 0
M  V30 50 H -0.7934 3.1844 0.1963 0
M  V30 51 H 0.0738 2.8014 -1.3219 0
M  V30 52 H 2.0818 0.958 -1.0033 0
M  V30 53 H 1.2169 -0.9835 -2.3494 0
M  V30 54 H 0.582 0.6512 -2.7515 0
M  V30 55 H -0.5379 -0.7364 -2.6615 0
M  V30 56 H 1.8264 2.8124 0.2959 0
M  V30 57 H 0.7768 2.004 1.5196 0
M  V30 58 H 2.3518 -1.217 0.5057 0
M  V30 59 H 4.1215 0.2372 -0.491 0
M  V30 60 H 4.0502 1.3093 0.9387 0
M  V30 61 H 0.9765 -0.0773 2.5076 0
M  V30 62 H 2.4738 0.8584 2.7733 0
M  V30 63 H 2.5002 -0.9394 2.8623 0
M  V30 64 H 4.6435 -1.7286 1.1278 0
M  V30 65 H 4.8102 -0.4936 2.4105 0
M  V30 66 H 6.9826 -0.4112 1.8229 0
M  V30 67 H 6.4611 0.6568 0.4977 0
M  V30 68 H 6.8194 -2.424 0.3165 0
M  V30 69 H 5.1629 -1.6995 -1.3499 0
M  V30 70 H 6.2149 -0.3184 -1.8686 0
M  V30 71 H 6.7083 -2.0264 -2.1865 0
M  V30 72 H 8.6086 -0.142 -0.7409 0
M  V30 73 H 8.8618 -1.9142 -0.9927 0
M  V30 74 H 8.9726 -1.2227 0.6609 0
M  V30 END ATOM
M  V30 BEGIN BOND
M  V30 1 1 1 2
M  V30 2 1 2 3
M  V30 3 1 2 4
M  V30 4 1 3 5
M  V30 5 1 4 6
M  V30 6 2 5 7
M  V30 7 1 5 8
M  V30 8 1 7 9
M  V30 9 1 8 10
M  V30 10 1 8 11
M  V30 11 1 9 12
M  V30 12 1 10 13
M  V30 13 1 12 14
M  V30 14 1 13 15
M  V30 15 1 14 16
M  V30 16 1 14 17
M  V30 17 1 16 18
M  V30 18 1 16 19
M  V30 19 1 17 20
M  V30 20 1 18 21
M  V30 21 1 21 22
M  V30 22 1 21 23
M  V30 23 1 22 24
M  V30 24 1 24 25
M  V30 25 1 25 26
M  V30 26 1 26 27
M  V30 27 1 26 28
M  V30 28 1 6 8
M  V30 29 1 10 12
M  V30 30 1 15 16
M  V30 31 1 18 20
M  V30 32 1 1 29
M  V30 33 1 2 30
M  V30 34 1 3 31
M  V30 35 1 3 32
M  V30 36 1 4 33
M  V30 37 1 4 34
M  V30 38 1 6 35
M  V30 39 1 6 36
M  V30 40 1 7 37
M  V30 41 1 9 38
M  V30 42 1 9 39
M  V30 43 1 10 40
M  V30 44 1 11 41
M  V30 45 1 11 42
M  V30 46 1 11 43
M  V30 47 1 12 44
M  V30 48 1 13 45
M  V30 49 1 13 46
M  V30 50 1 14 47
M  V30 51 1 15 48
M  V30 52 1 15 49
M  V30 53 1 17 50
M  V30 54 1 17 51
M  V30 55 1 18 52
M  V30 56 1 19 53
M  V30 57 1 19 54
M  V30 58 1 19 55
M  V30 59 1 20 56
M  V30 60 1 20 57
M  V30 61 1 21 58
M  V30 62 1 22 59
M  V30 63 1 22 60
M  V30 64 1 23 61
M  V30 65 1 23 62
M  V30 66 1 23 63
M  V30 67 1 24 64
M  V30 68 1 24 65
M  V30 69 1 25 66
M  V30 70 1 25 67
M  V30 71 1 26 68
M  V30 72 1 27 69
M  V30 73 1 27 70
M  V30 74 1 27 71
M  V30 75 1 28 72
M  V30 76 1 28 73
M  V30 77 1 28 74
M  V30 END BOND
M  V30 BEGIN COLLECTION
M  V30 MDLV30/STEABS ATOMS=(8 2 8 10 12 14 16 18 21)
M  V30 END COLLECTION
M  V30 END CTAB
M  END
>  <Structure No>
2997

>  <LogS>
-7.100195364

>  <MMFF94 Energy>
100

$$$$
Compound 2998
Actelion Java MolfileCreator 2.0

  0  0  0  0  0  0              0 V3000
M  V30 BEGIN CTAB
M  V30 COUNTS 39 38 0 0 0
M  V30 BEGIN ATOM
M  V30 1 S 1.1928 2.2275 0.5565 0
M  V30 2 C 1.7441 0.5126 0.2337 0
M  V30 3 C 0.513 -0.5732 0.1342 0
M  V30 4 C 2.6457 0.5674 -1.0356 0
M  V30 5 C 2.7152 0.2042 1.4153 0
M  V30 6 C -0.8414 -0.1904 -0.748 0
M  V30 7 C 1.1443 -1.8926 -0.4394 0
M  V30 8 C 0.0663 -0.9594 1.5689 0
M  V30 9 C -2.0818 0.5554 -0.0234 0
M  V30 10 C -0.4736 0.6457 -2.0031 0
M  V30 11 C -1.4833 -1.4879 -1.3624 0
M  V30 12 C -2.9149 -0.2457 1.0101 0
M  V30 13 C -1.8594 1.9665 0.5314 0
M  V30 14 H 2.4722 2.8158 0.5837 0
M  V30 15 H 3.1435 -0.402 -1.2385 0
M  V30 16 H 3.4692 1.3014 -0.9016 0
M  V30 17 H 2.1141 0.8945 -1.9408 0
M  V30 18 H 2.2221 0.3587 2.3982 0
M  V30 19 H 3.126 -0.822 1.3803 0
M  V30 20 H 3.5907 0.8895 1.407 0
M  V30 21 H 0.502 -2.7818 -0.2714 0
M  V30 22 H 1.3362 -1.8061 -1.5287 0
M  V30 23 H 2.1029 -2.1582 0.0428 0
M  V30 24 H 0.8667 -1.4856 2.1303 0
M  V30 25 H -0.2142 -0.0601 2.1521 0
M  V30 26 H -0.7694 -1.6861 1.5464 0
M  V30 27 H -2.8202 0.7356 -0.8391 0
M  V30 28 H -0.0369 1.6272 -1.7549 0
M  V30 29 H 0.2223 0.0885 -2.6633 0
M  V30 30 H -1.3737 0.8566 -2.621 0
M  V30 31 H -1.6541 -2.2722 -0.5992 0
M  V30 32 H -0.8571 -1.9369 -2.162 0
M  V30 33 H -2.4622 -1.2761 -1.8455 0
M  V30 34 H -2.4699 -0.219 2.0234 0
M  V30 35 H -3.9194 0.2205 1.11 0
M  V30 36 H -3.0978 -1.2937 0.7123 0
M  V30 37 H -1.2877 1.9367 1.4791 0
M  V30 38 H -2.8401 2.4311 0.7739 0
M  V30 39 H -1.3909 2.6314 -0.2194 0
M  V30 END ATOM
M  V30 BEGIN BOND
M  V30 1 1 1 2
M  V30 2 1 2 3
M  V30 3 1 2 4
M  V30 4 1 2 5
M  V30 5 1 3 6
M  V30 6 1 3 7
M  V30 7 1 3 8
M  V30 8 1 6 9
M  V30 9 1 6 10
M  V30 10 1 6 11
M  V30 11 1 9 12
M  V30 12 1 9 13
M  V30 13 1 1 14
M  V30 14 1 4 15
M  V30 15 1 4 16
M  V30 16 1 4 17
M  V30 17 1 5 18
M  V30 18 1 5 19
M  V30 19 1 5 20
M  V30 20 1 7 21
M  V30 21 1 7 22
M  V30 22 1 7 23
M  V30 23 1 8 24
M  V30 24 1 8 25
M  V30 25 1 8 26
M  V30 26 1 9 27
M  V30 27 1 10 28
M  V30 28 1 10 29
M  V30 29 1 10 30
M  V30 30 1 11 31
M  V30 31 1 11 32
M  V30 32 1 11 33
M  V30 33 1 12 34
M  V30 34 1 12 35
M  V30 35 1 12 36
M  V30 36 1 13 37
M  V30 37 1 13 38
M  V30 38 1 13 39
M  V30 END BOND
M  V30 END CTAB
M  END
>  <Structure No>
2998

>  <LogS>
-7.711832978

>  <MMFF94 Energy>
81.093

$$$$
Compound 2999
Actelion Java MolfileCreator 2.0

  0  0  0  0  0  0              0 V3000
M  V30 BEGIN CTAB
M  V30 COUNTS 67 71 0 0 0
M  V30 BEGIN ATOM
M  V30 1 Cl 7.9586 0.1619 -4.1357 0
M  V30 2 C 7.9725 0.4803 -2.4105 0
M  V30 3 C 6.7691 0.5676 -1.7055 0
M  V30 4 C 9.186 0.6575 -1.7435 0
M  V30 5 C 6.7701 0.8209 -0.3218 0
M  V30 6 C 9.2004 0.9286 -0.3735 0
M  V30 7 N 5.5336 0.9425 0.4027 0
M  V30 8 C 7.9935 1.018 0.3486 0
M  V30 9 C 4.4045 0.0721 0.2019 0
M  V30 10 O 7.972 1.2882 1.7267 0
M  V30 11 O 4.5017 -0.919 -0.5717 0
M  V30 12 C 3.1268 0.3077 0.9175 0
M  V30 13 C 9.1313 1.4936 2.5273 0
M  V30 14 C 1.8924 0.0897 0.2705 0
M  V30 15 C 3.1439 0.7573 2.2454 0
M  V30 16 O 1.9022 -0.2476 -1.0869 0
M  V30 17 C 0.6767 0.2687 0.9793 0
M  V30 18 C 1.9515 1.0085 2.932 0
M  V30 19 N -0.5919 -0.059 0.3919 0
M  V30 20 C 0.7073 0.7688 2.3001 0
M  V30 21 C 1.9867 1.4831 4.2537 0
M  V30 22 N -0.7513 -1.0725 -0.3602 0
M  V30 23 C -0.4812 1.0127 3.0202 0
M  V30 24 C 0.7994 1.7231 4.9475 0
M  V30 25 C -2.0183 -1.3982 -0.9469 0
M  V30 26 C -0.4303 1.489 4.3326 0
M  V30 27 C -2.1172 -2.5381 -1.7588 0
M  V30 28 C -3.154 -0.5981 -0.7221 0
M  V30 29 O -0.9675 -3.3181 -1.9638 0
M  V30 30 C -3.3548 -2.8644 -2.343 0
M  V30 31 C -4.3933 -0.9315 -1.2939 0
M  V30 32 C -0.9233 -4.4963 -2.7622 0
M  V30 33 C -4.4791 -2.0678 -2.1148 0
M  V30 34 C -5.5729 -0.0678 -1.046 0
M  V30 35 O -5.3949 1.1676 -0.8625 0
M  V30 36 N -6.9058 -0.6141 -1.0219 0
M  V30 37 C -8.0784 0.15 -0.6917 0
M  V30 38 C -8.0628 1.1164 0.332 0
M  V30 39 C -9.2838 -0.1178 -1.3595 0
M  V30 40 C -9.2255 1.8258 0.6494 0
M  V30 41 C -10.4439 0.5946 -1.0401 0
M  V30 42 C -10.4139 1.5689 -0.0392 0
M  V30 43 H 5.8353 0.4634 -2.2427 0
M  V30 44 H 10.12 0.5927 -2.2872 0
M  V30 45 H 10.1552 1.068 0.1144 0
M  V30 46 H 5.4764 1.6843 1.1355 0
M  V30 47 H 9.7752 0.5897 2.5047 0
M  V30 48 H 9.6967 2.3765 2.1615 0
M  V30 49 H 8.8193 1.6808 3.5749 0
M  V30 50 H 4.0887 0.9012 2.7559 0
M  V30 51 H 1.0844 -0.2027 -1.6796 0
M  V30 52 H 2.9323 1.6681 4.7499 0
M  V30 53 H -1.4533 0.8404 2.5754 0
M  V30 54 H 0.8326 2.0904 5.9652 0
M  V30 55 H -1.3483 1.6756 4.8753 0
M  V30 56 H -3.0769 0.2786 -0.0907 0
M  V30 57 H -3.4581 -3.7298 -2.9829 0
M  V30 58 H 0.1057 -4.9097 -2.7412 0
M  V30 59 H -1.1878 -4.2548 -3.8133 0
M  V30 60 H -1.6213 -5.259 -2.357 0
M  V30 61 H -5.4037 -2.3318 -2.6096 0
M  V30 62 H -7.0545 -1.6064 -1.3084 0
M  V30 63 H -7.1645 1.3041 0.9047 0
M  V30 64 H -9.3201 -0.873 -2.135 0
M  V30 65 H -9.2071 2.5689 1.4367 0
M  V30 66 H -11.3671 0.3893 -1.5667 0
M  V30 67 H -11.3132 2.1177 0.2091 0
M  V30 END ATOM
M  V30 BEGIN BOND
M  V30 1 1 1 2
M  V30 2 2 2 3
M  V30 3 1 2 4
M  V30 4 1 3 5
M  V30 5 2 4 6
M  V30 6 1 5 7
M  V30 7 2 5 8
M  V30 8 1 7 9
M  V30 9 1 8 10
M  V30 10 2 9 11
M  V30 11 1 9 12
M  V30 12 1 10 13
M  V30 13 1 12 14
M  V30 14 2 12 15
M  V30 15 1 14 16
M  V30 16 2 14 17
M  V30 17 1 15 18
M  V30 18 1 17 19
M  V30 19 1 17 20
M  V30 20 2 18 21
M  V30 21 2 19 22
M  V30 22 2 20 23
M  V30 23 1 21 24
M  V30 24 1 22 25
M  V30 25 1 23 26
M  V30 26 2 25 27
M  V30 27 1 25 28
M  V30 28 1 27 29
M  V30 29 1 27 30
M  V30 30 2 28 31
M  V30 31 1 29 32
M  V30 32 2 30 33
M  V30 33 1 31 34
M  V30 34 2 34 35
M  V30 35 1 34 36
M  V30 36 1 36 37
M  V30 37 2 37 38
M  V30 38 1 37 39
M  V30 39 1 38 40
M  V30 40 2 39 41
M  V30 41 2 40 42
M  V30 42 1 6 8
M  V30 43 1 18 20
M  V30 44 2 24 26
M  V30 45 1 31 33
M  V30 46 1 41 42
M  V30 47 1 3 43
M  V30 48 1 4 44
M  V30 49 1 6 45
M  V30 50 1 7 46
M  V30 51 1 13 47
M  V30 52 1 13 48
M  V30 53 1 13 49
M  V30 54 1 15 50
M  V30 55 1 16 51
M  V30 56 1 21 52
M  V30 57 1 23 53
M  V30 58 1 24 54
M  V30 59 1 26 55
M  V30 60 1 28 56
M  V30 61 1 30 57
M  V30 62 1 32 58
M  V30 63 1 32 59
M  V30 64 1 32 60
M  V30 65 1 33 61
M  V30 66 1 36 62
M  V30 67 1 38 63
M  V30 68 1 39 64
M  V30 69 1 40 65
M  V30 70 1 41 66
M  V30 71 1 42 67
M  V30 END BOND
M  V30 END CTAB
M  END
>  <Structure No>
2999

>  <LogS>
-8.184413465

>  <MMFF94 Energy>
110.44

$$$$
Compound 3000
Actelion Java MolfileCreator 2.0

  0  0  0  0  0  0              0 V3000
M  V30 BEGIN CTAB
M  V30 COUNTS 48 51 0 0 0
M  V30 BEGIN ATOM
M  V30 1 O -5.1196 -0.8113 -1.8668 0
M  V30 2 C -4.6805 -0.7142 -0.6888 0
M  V30 3 C -3.2118 -0.7136 -0.4225 0
M  V30 4 C -5.6393 -0.5113 0.418 0
M  V30 5 C -2.2718 -1.1587 -1.3932 0
M  V30 6 C -2.7471 -0.2024 0.816 0
M  V30 7 C -5.1746 -0.0788 1.6739 0
M  V30 8 C -7.0169 -0.7222 0.2225 0
M  V30 9 N -2.6941 -1.8459 -2.5814 0
M  V30 10 C -0.8938 -0.9828 -1.1727 0
M  V30 11 C -3.7294 0.1615 1.8784 0
M  V30 12 C -1.3593 -0.0539 1.029 0
M  V30 13 C -6.0947 0.1331 2.7179 0
M  V30 14 C -7.9192 -0.5115 1.2673 0
M  V30 15 O 0.0064 -1.4044 -2.1692 0
M  V30 16 C -0.4527 -0.4222 0.0339 0
M  V30 17 O -3.3382 0.6683 2.9654 0
M  V30 18 O -0.8712 0.4619 2.2306 0
M  V30 19 C -7.4588 -0.0846 2.5129 0
M  V30 20 C 1.4201 -1.2043 -2.1601 0
M  V30 21 C 1.7617 0.2519 -2.4834 0
M  V30 22 O 3.175 0.4402 -2.5118 0
M  V30 23 C 3.9623 0.5273 -1.3593 0
M  V30 24 O 3.4324 0.4515 -0.2162 0
M  V30 25 O 5.3497 0.6503 -1.4999 0
M  V30 26 C 6.2399 1.0204 -0.4805 0
M  V30 27 C 5.8642 1.8736 0.5756 0
M  V30 28 C 7.5593 0.5534 -0.5449 0
M  V30 29 C 6.7921 2.2227 1.5622 0
M  V30 30 C 8.4843 0.9036 0.4436 0
M  V30 31 C 8.0998 1.7346 1.499 0
M  V30 32 H -7.396 -1.0539 -0.736 0
M  V30 33 H -2.0669 -1.9218 -3.4126 0
M  V30 34 H -3.5479 -2.4452 -2.5852 0
M  V30 35 H -5.7607 0.4657 3.6928 0
M  V30 36 H -8.977 -0.6785 1.1105 0
M  V30 37 H 0.6014 -0.2904 0.2287 0
M  V30 38 H 0.1211 0.5765 2.4008 0
M  V30 39 H -8.1602 0.079 3.3211 0
M  V30 40 H 1.8548 -1.5233 -1.1899 0
M  V30 41 H 1.8659 -1.8506 -2.9453 0
M  V30 42 H 1.2994 0.9466 -1.7502 0
M  V30 43 H 1.3534 0.499 -3.4862 0
M  V30 44 H 4.8695 2.2949 0.6251 0
M  V30 45 H 7.8657 -0.0897 -1.36 0
M  V30 46 H 6.4996 2.8795 2.3714 0
M  V30 47 H 9.4994 0.5318 0.3904 0
M  V30 48 H 8.8169 2.007 2.2625 0
M  V30 END ATOM
M  V30 BEGIN BOND
M  V30 1 2 1 2
M  V30 2 1 2 3
M  V30 3 1 2 4
M  V30 4 2 3 5
M  V30 5 1 3 6
M  V30 6 2 4 7
M  V30 7 1 4 8
M  V30 8 1 5 9
M  V30 9 1 5 10
M  V30 10 1 6 11
M  V30 11 2 6 12
M  V30 12 1 7 13
M  V30 13 2 8 14
M  V30 14 1 10 15
M  V30 15 2 10 16
M  V30 16 2 11 17
M  V30 17 1 12 18
M  V30 18 2 13 19
M  V30 19 1 15 20
M  V30 20 1 20 21
M  V30 21 1 21 22
M  V30 22 1 22 23
M  V30 23 2 23 24
M  V30 24 1 23 25
M  V30 25 1 25 26
M  V30 26 2 26 27
M  V30 27 1 26 28
M  V30 28 1 27 29
M  V30 29 2 28 30
M  V30 30 2 29 31
M  V30 31 1 7 11
M  V30 32 1 12 16
M  V30 33 1 14 19
M  V30 34 1 30 31
M  V30 35 1 8 32
M  V30 36 1 9 33
M  V30 37 1 9 34
M  V30 38 1 13 35
M  V30 39 1 14 36
M  V30 40 1 16 37
M  V30 41 1 18 38
M  V30 42 1 19 39
M  V30 43 1 20 40
M  V30 44 1 20 41
M  V30 45 1 21 42
M  V30 46 1 21 43
M  V30 47 1 27 44
M  V30 48 1 28 45
M  V30 49 1 29 46
M  V30 50 1 30 47
M  V30 51 1 31 48
M  V30 END BOND
M  V30 END CTAB
M  END
>  <Structure No>
3000

>  <LogS>
-8.054415311

>  <MMFF94 Energy>
109.6

$$$$
Compound 3001
Actelion Java MolfileCreator 2.0

  0  0  0  0  0  0              0 V3000
M  V30 BEGIN CTAB
M  V30 COUNTS 151 150 0 0 0
M  V30 BEGIN ATOM
M  V30 1 O 0.8627 -1.1766 -0.7843 0
M  V30 2 C 0.8282 -1.0698 0.4722 0
M  V30 3 O -0.1242 -0.2592 1.0953 0
M  V30 4 C 1.8406 -1.7869 1.3104 0
M  V30 5 C -1.145 0.4292 0.3783 0
M  V30 6 C 3.146 -0.9909 1.4438 0
M  V30 7 C -2.0055 1.312 1.3233 0
M  V30 8 C 2.9476 0.3424 2.1876 0
M  V30 9 C -3.061 2.0612 0.4671 0
M  V30 10 C -1.126 2.3877 2.0203 0
M  V30 11 C -2.755 0.4426 2.3745 0
M  V30 12 C 4.2724 0.971 2.6476 0
M  V30 13 O -3.9289 1.1406 -0.1911 0
M  V30 14 O -0.1381 1.8077 2.8287 0
M  V30 15 O -1.8705 -0.2165 3.243 0
M  V30 16 C 5.1645 1.4113 1.4769 0
M  V30 17 C -5.0046 1.5434 -0.9917 0
M  V30 18 C 6.4184 2.1361 1.9883 0
M  V30 19 O -5.2333 2.7692 -1.1838 0
M  V30 20 C -5.9095 0.5218 -1.62 0
M  V30 21 C 7.2868 2.7039 0.8518 0
M  V30 22 C -5.4725 -0.9125 -1.2988 0
M  V30 23 C 7.9395 1.6465 -0.0622 0
M  V30 24 C -6.4302 -1.9389 -1.9219 0
M  V30 25 C 8.8519 0.6316 0.6551 0
M  V30 26 C -6.0073 -3.3936 -1.6534 0
M  V30 27 C 9.9919 1.2523 1.4874 0
M  V30 28 C -5.9377 -3.8051 -0.1669 0
M  V30 29 C 10.9371 2.1872 0.7057 0
M  V30 30 C -7.2994 -3.7956 0.5598 0
M  V30 31 C 11.6682 1.5318 -0.4792 0
M  V30 32 C -7.5633 -2.4849 1.3246 0
M  V30 33 C 12.6353 0.418 -0.0394 0
M  V30 34 C -8.801 -2.5481 2.2397 0
M  V30 35 C 13.4856 -0.1268 -1.1993 0
M  V30 36 C -10.106 -2.9921 1.5535 0
M  V30 37 C 14.6342 0.8223 -1.5846 0
M  V30 38 C -10.5336 -2.139 0.346 0
M  V30 39 C 15.4923 0.2859 -2.7454 0
M  V30 40 C -11.0239 -0.7239 0.7196 0
M  V30 41 C 16.2944 -0.9917 -2.4307 0
M  V30 42 C -9.9753 0.3613 0.4244 0
M  V30 43 C 17.2957 -0.8053 -1.2795 0
M  V30 44 C -10.4955 1.7902 0.6798 0
M  V30 45 C 18.2168 -2.0246 -1.148 0
M  V30 46 C -11.6776 2.2319 -0.207 0
M  V30 47 C 19.1588 -1.8751 0.0515 0
M  V30 48 C -11.351 2.2148 -1.7114 0
M  V30 49 C 20.0691 -3.091 0.1941 0
M  V30 50 C -12.513 2.765 -2.5673 0
M  V30 51 C -13.3114 1.6749 -3.3104 0
M  V30 52 C -14.0317 0.6617 -2.4039 0
M  V30 53 C -15.1873 1.2895 -1.607 0
M  V30 54 C -15.8646 0.2816 -0.6657 0
M  V30 55 C -16.7321 -0.7342 -1.4107 0
M  V30 56 H 2.064 -2.7718 0.8455 0
M  V30 57 H 1.4141 -1.9858 2.3178 0
M  V30 58 H -1.787 -0.3194 -0.1351 0
M  V30 59 H -0.6711 1.0672 -0.4012 0
M  V30 60 H 3.5641 -0.802 0.4316 0
M  V30 61 H 3.8733 -1.6194 2.0021 0
M  V30 62 H 2.4011 1.0594 1.5372 0
M  V30 63 H 2.3254 0.1656 3.0929 0
M  V30 64 H -3.6692 2.7294 1.1152 0
M  V30 65 H -2.5563 2.6948 -0.2958 0
M  V30 66 H -1.7663 3.0439 2.6515 0
M  V30 67 H -0.6411 3.0277 1.2477 0
M  V30 68 H -3.4248 -0.2918 1.8666 0
M  V30 69 H -3.4121 1.0947 2.9896 0
M  V30 70 H 4.8231 0.2513 3.2917 0
M  V30 71 H 4.0287 1.861 3.27 0
M  V30 72 H 0.4284 2.555 3.1527 0
M  V30 73 H -1.777 -1.1493 2.9172 0
M  V30 74 H 4.5905 2.0907 0.8101 0
M  V30 75 H 5.4724 0.5149 0.8988 0
M  V30 76 H 6.1015 2.9909 2.6255 0
M  V30 77 H 7.0162 1.4578 2.6327 0
M  V30 78 H -5.9073 0.6728 -2.7204 0
M  V30 79 H -6.9429 0.6866 -1.244 0
M  V30 80 H 6.6597 3.3731 0.2222 0
M  V30 81 H 8.0772 3.3471 1.2932 0
M  V30 82 H -5.4531 -1.0327 -0.1965 0
M  V30 83 H -4.4463 -1.0846 -1.6918 0
M  V30 84 H 7.1469 1.0884 -0.6038 0
M  V30 85 H 8.5248 2.1721 -0.846 0
M  V30 86 H -7.4701 -1.7747 -1.5754 0
M  V30 87 H -6.4382 -1.7889 -3.0239 0
M  V30 88 H 8.2347 -0.0083 1.3194 0
M  V30 89 H 9.2839 -0.055 -0.1028 0
M  V30 90 H -6.7155 -4.0703 -2.1805 0
M  V30 91 H -5.0062 -3.5611 -2.1109 0
M  V30 92 H 10.5821 0.4331 1.9498 0
M  V30 93 H 9.5561 1.8216 2.3354 0
M  V30 94 H -5.555 -4.8497 -0.1465 0
M  V30 95 H -5.1802 -3.2055 0.3795 0
M  V30 96 H 11.6942 2.5906 1.4134 0
M  V30 97 H 10.3659 3.0628 0.3329 0
M  V30 98 H -8.1144 -3.9948 -0.1688 0
M  V30 99 H -7.3036 -4.6306 1.2956 0
M  V30 100 H 12.2353 2.3348 -0.993 0
M  V30 101 H 10.9374 1.1334 -1.2138 0
M  V30 102 H -6.6851 -2.2599 1.9678 0
M  V30 103 H -7.671 -1.6376 0.6259 0
M  V30 104 H 12.0405 -0.4278 0.3665 0
M  V30 105 H 13.3002 0.7847 0.7743 0
M  V30 106 H -8.9547 -1.552 2.7077 0
M  V30 107 H -8.5886 -3.2574 3.0691 0
M  V30 108 H 12.8407 -0.3262 -2.0831 0
M  V30 109 H 13.9143 -1.0949 -0.8664 0
M  V30 110 H -10.0013 -4.0483 1.226 0
M  V30 111 H -10.9222 -2.9877 2.309 0
M  V30 112 H 15.2698 1.0359 -0.7008 0
M  V30 113 H 14.2108 1.7929 -1.9173 0
M  V30 114 H -9.7312 -2.1041 -0.421 0
M  V30 115 H -11.3805 -2.6737 -0.1369 0
M  V30 116 H 16.2034 1.0824 -3.0544 0
M  V30 117 H 14.8341 0.0862 -3.6187 0
M  V30 118 H -11.3299 -0.673 1.7875 0
M  V30 119 H -11.9303 -0.5222 0.114 0
M  V30 120 H 16.8527 -1.2695 -3.3515 0
M  V30 121 H 15.6064 -1.8331 -2.2038 0
M  V30 122 H -9.1011 0.2046 1.0889 0
M  V30 123 H -9.6039 0.2719 -0.6168 0
M  V30 124 H 17.9118 0.1019 -1.4649 0
M  V30 125 H 16.7404 -0.6742 -0.326 0
M  V30 126 H -9.6534 2.5022 0.5308 0
M  V30 127 H -10.804 1.8731 1.7454 0
M  V30 128 H 18.8192 -2.1313 -2.0778 0
M  V30 129 H 17.5994 -2.9403 -1.0189 0
M  V30 130 H -12.5702 1.6148 0.0091 0
M  V30 131 H -11.9389 3.2739 0.0837 0
M  V30 132 H 19.7871 -0.9668 -0.0734 0
M  V30 133 H 18.5642 -1.7637 0.9847 0
M  V30 134 H -10.453 2.8495 -1.8792 0
M  V30 135 H -11.0923 1.1871 -2.0415 0
M  V30 136 H 19.4648 -4.0116 0.336 0
M  V30 137 H 20.7032 -3.206 -0.7102 0
M  V30 138 H 20.7299 -2.9607 1.0769 0
M  V30 139 H -13.1937 3.4099 -1.9712 0
M  V30 140 H -12.0776 3.4301 -3.3455 0
M  V30 141 H -12.6147 1.1176 -3.9747 0
M  V30 142 H -14.0589 2.1656 -3.9704 0
M  V30 143 H -13.3076 0.1751 -1.7215 0
M  V30 144 H -14.4422 -0.1338 -3.0607 0
M  V30 145 H -15.9386 1.7219 -2.3045 0
M  V30 146 H -14.7986 2.1186 -0.9796 0
M  V30 147 H -15.0991 -0.2539 -0.0615 0
M  V30 148 H -16.5167 0.8406 0.0389 0
M  V30 149 H -16.1107 -1.3918 -2.0509 0
M  V30 150 H -17.2673 -1.3721 -0.6744 0
M  V30 151 H -17.487 -0.2121 -2.0371 0
M  V30 END ATOM
M  V30 BEGIN BOND
M  V30 1 2 1 2
M  V30 2 1 2 3
M  V30 3 1 2 4
M  V30 4 1 3 5
M  V30 5 1 4 6
M  V30 6 1 5 7
M  V30 7 1 6 8
M  V30 8 1 7 9
M  V30 9 1 7 10
M  V30 10 1 7 11
M  V30 11 1 8 12
M  V30 12 1 9 13
M  V30 13 1 10 14
M  V30 14 1 11 15
M  V30 15 1 12 16
M  V30 16 1 13 17
M  V30 17 1 16 18
M  V30 18 2 17 19
M  V30 19 1 17 20
M  V30 20 1 18 21
M  V30 21 1 20 22
M  V30 22 1 21 23
M  V30 23 1 22 24
M  V30 24 1 23 25
M  V30 25 1 24 26
M  V30 26 1 25 27
M  V30 27 1 26 28
M  V30 28 1 27 29
M  V30 29 1 28 30
M  V30 30 1 29 31
M  V30 31 1 30 32
M  V30 32 1 31 33
M  V30 33 1 32 34
M  V30 34 1 33 35
M  V30 35 1 34 36
M  V30 36 1 35 37
M  V30 37 1 36 38
M  V30 38 1 37 39
M  V30 39 1 38 40
M  V30 40 1 39 41
M  V30 41 1 40 42
M  V30 42 1 41 43
M  V30 43 1 42 44
M  V30 44 1 43 45
M  V30 45 1 44 46
M  V30 46 1 45 47
M  V30 47 1 46 48
M  V30 48 1 47 49
M  V30 49 1 48 50
M  V30 50 1 50 51
M  V30 51 1 51 52
M  V30 52 1 52 53
M  V30 53 1 53 54
M  V30 54 1 54 55
M  V30 55 1 4 56
M  V30 56 1 4 57
M  V30 57 1 5 58
M  V30 58 1 5 59
M  V30 59 1 6 60
M  V30 60 1 6 61
M  V30 61 1 8 62
M  V30 62 1 8 63
M  V30 63 1 9 64
M  V30 64 1 9 65
M  V30 65 1 10 66
M  V30 66 1 10 67
M  V30 67 1 11 68
M  V30 68 1 11 69
M  V30 69 1 12 70
M  V30 70 1 12 71
M  V30 71 1 14 72
M  V30 72 1 15 73
M  V30 73 1 16 74
M  V30 74 1 16 75
M  V30 75 1 18 76
M  V30 76 1 18 77
M  V30 77 1 20 78
M  V30 78 1 20 79
M  V30 79 1 21 80
M  V30 80 1 21 81
M  V30 81 1 22 82
M  V30 82 1 22 83
M  V30 83 1 23 84
M  V30 84 1 23 85
M  V30 85 1 24 86
M  V30 86 1 24 87
M  V30 87 1 25 88
M  V30 88 1 25 89
M  V30 89 1 26 90
M  V30 90 1 26 91
M  V30 91 1 27 92
M  V30 92 1 27 93
M  V30 93 1 28 94
M  V30 94 1 28 95
M  V30 95 1 29 96
M  V30 96 1 29 97
M  V30 97 1 30 98
M  V30 98 1 30 99
M  V30 99 1 31 100
M  V30 100 1 31 101
M  V30 101 1 32 102
M  V30 102 1 32 103
M  V30 103 1 33 104
M  V30 104 1 33 105
M  V30 105 1 34 106
M  V30 106 1 34 107
M  V30 107 1 35 108
M  V30 108 1 35 109
M  V30 109 1 36 110
M  V30 110 1 36 111
M  V30 111 1 37 112
M  V30 112 1 37 113
M  V30 113 1 38 114
M  V30 114 1 38 115
M  V30 115 1 39 116
M  V30 116 1 39 117
M  V30 117 1 40 118
M  V30 118 1 40 119
M  V30 119 1 41 120
M  V30 120 1 41 121
M  V30 121 1 42 122
M  V30 122 1 42 123
M  V30 123 1 43 124
M  V30 124 1 43 125
M  V30 125 1 44 126
M  V30 126 1 44 127
M  V30 127 1 45 128
M  V30 128 1 45 129
M  V30 129 1 46 130
M  V30 130 1 46 131
M  V30 131 1 47 132
M  V30 132 1 47 133
M  V30 133 1 48 134
M  V30 134 1 48 135
M  V30 135 1 49 136
M  V30 136 1 49 137
M  V30 137 1 49 138
M  V30 138 1 50 139
M  V30 139 1 50 140
M  V30 140 1 51 141
M  V30 141 1 51 142
M  V30 142 1 52 143
M  V30 143 1 52 144
M  V30 144 1 53 145
M  V30 145 1 53 146
M  V30 146 1 54 147
M  V30 147 1 54 148
M  V30 148 1 55 149
M  V30 149 1 55 150
M  V30 150 1 55 151
M  V30 END BOND
M  V30 END CTAB
M  END
>  <Structure No>
3001

>  <LogS>
-8.348750336

>  <MMFF94 Energy>
-17.922

$$$$
Compound 3002
Actelion Java MolfileCreator 2.0

  0  0  0  0  0  0              0 V3000
M  V30 BEGIN CTAB
M  V30 COUNTS 74 79 0 0 0
M  V30 BEGIN ATOM
M  V30 1 Cl -3.1094 5.4872 0.7357 0
M  V30 2 C -2.7396 4.0072 -0.1337 0
M  V30 3 C -3.7678 3.2106 -0.6582 0
M  V30 4 C -1.4036 3.6233 -0.292 0
M  V30 5 N -5.132 3.6438 -0.561 0
M  V30 6 C -3.4458 2.039 -1.353 0
M  V30 7 C -1.0774 2.4398 -0.9776 0
M  V30 8 N -6.0643 3.0095 0.0439 0
M  V30 9 C -2.1137 1.6485 -1.5032 0
M  V30 10 C 0.3406 2.0461 -1.1742 0
M  V30 11 C -5.8966 1.7586 0.7863 0 CFG=2
M  V30 12 C 0.7426 0.7084 -1.0124 0
M  V30 13 C 1.2957 3.0039 -1.5469 0
M  V30 14 C -6.5875 0.6384 0.0911 0
M  V30 15 C -6.7281 1.7969 2.0421 0
M  V30 16 C 2.077 0.3268 -1.2129 0
M  V30 17 C 2.6255 2.6335 -1.7492 0
M  V30 18 O -6.2031 0.0975 -0.9793 0
M  V30 19 N -7.6729 0.1739 0.8802 0
M  V30 20 N -7.6799 0.9152 2.0634 0
M  V30 21 C -6.4566 2.7102 3.1921 0
M  V30 22 Cl 2.4618 -1.3771 -0.9796 0
M  V30 23 C 3.0356 1.3026 -1.5932 0
M  V30 24 C -8.605 -0.8835 0.5904 0
M  V30 25 N 4.4178 1.0098 -1.8516 0
M  V30 26 C -9.2412 -1.5619 1.6418 0
M  V30 27 C -8.9219 -1.2327 -0.7328 0
M  V30 28 N 4.9198 -0.1548 -1.7817 0
M  V30 29 C -10.1641 -2.5803 1.3804 0
M  V30 30 C -9.8441 -2.2519 -0.9957 0
M  V30 31 C 6.3263 -0.3734 -2.0772 0 CFG=1
M  V30 32 C -10.4809 -2.9211 0.0584 0
M  V30 33 C 7.1877 0.0292 -0.9341 0
M  V30 34 C 6.6353 -1.8431 -2.0968 0
M  V30 35 C -11.4542 -4.0269 -0.2166 0
M  V30 36 O 7.3432 1.2115 -0.5314 0
M  V30 37 N 7.8752 -1.1042 -0.4173 0
M  V30 38 N 7.497 -2.2002 -1.1959 0
M  V30 39 C 6.1118 -2.7929 -3.1194 0
M  V30 40 C 8.9682 -1.1478 0.5233 0
M  V30 41 C 9.8365 -2.2528 0.5305 0
M  V30 42 C 9.1822 -0.1146 1.4562 0
M  V30 43 C 10.9126 -2.3108 1.4245 0
M  V30 44 C 10.2579 -0.1722 2.3503 0
M  V30 45 C 11.1401 -1.2622 2.3279 0
M  V30 46 C 12.2774 -1.3463 3.3031 0
M  V30 47 H -0.6192 4.2442 0.1247 0
M  V30 48 H -4.2243 1.4409 -1.8051 0
M  V30 49 H -1.8923 0.7427 -2.0564 0
M  V30 50 H -4.8406 1.5212 1.0322 0
M  V30 51 H 0.0167 -0.0393 -0.7109 0
M  V30 52 H 1.0138 4.0399 -1.6875 0
M  V30 53 H 3.3451 3.3898 -2.0376 0
M  V30 54 H -7.2624 2.6323 3.9513 0
M  V30 55 H -5.4913 2.4354 3.6631 0
M  V30 56 H -6.4031 3.7593 2.8335 0
M  V30 57 H -9.0172 -1.3077 2.6686 0
M  V30 58 H -8.4769 -0.7118 -1.5667 0
M  V30 59 H -10.6395 -3.0936 2.2073 0
M  V30 60 H -10.067 -2.5073 -2.024 0
M  V30 61 H 6.6322 0.1197 -3.024 0
M  V30 62 H -12.308 -3.9751 0.4931 0
M  V30 63 H -10.9452 -5.0061 -0.1087 0
M  V30 64 H -11.8642 -3.9497 -1.2464 0
M  V30 65 H 6.3899 -3.8354 -2.8592 0
M  V30 66 H 6.5414 -2.5404 -4.1118 0
M  V30 67 H 5.0068 -2.7149 -3.1714 0
M  V30 68 H 9.7006 -3.0673 -0.1712 0
M  V30 69 H 8.5151 0.73 1.5159 0
M  V30 70 H 11.5718 -3.1734 1.4045 0
M  V30 71 H 10.3994 0.6345 3.061 0
M  V30 72 H 13.1831 -1.7499 2.797 0
M  V30 73 H 11.9979 -2.0207 4.1418 0
M  V30 74 H 12.527 -0.3455 3.7161 0
M  V30 END ATOM
M  V30 BEGIN BOND
M  V30 1 1 1 2
M  V30 2 2 2 3
M  V30 3 1 2 4
M  V30 4 1 3 5
M  V30 5 1 3 6
M  V30 6 2 4 7
M  V30 7 2 5 8
M  V30 8 2 6 9
M  V30 9 1 7 10
M  V30 10 1 8 11
M  V30 11 2 10 12
M  V30 12 1 10 13
M  V30 13 1 11 14
M  V30 14 1 11 15
M  V30 15 1 12 16
M  V30 16 2 13 17
M  V30 17 2 14 18
M  V30 18 1 14 19
M  V30 19 2 15 20
M  V30 20 1 15 21
M  V30 21 1 16 22
M  V30 22 2 16 23
M  V30 23 1 19 24
M  V30 24 1 23 25
M  V30 25 2 24 26
M  V30 26 1 24 27
M  V30 27 2 25 28
M  V30 28 1 26 29
M  V30 29 2 27 30
M  V30 30 1 28 31
M  V30 31 2 29 32
M  V30 32 1 31 33
M  V30 33 1 31 34
M  V30 34 1 32 35
M  V30 35 2 33 36
M  V30 36 1 33 37
M  V30 37 2 34 38
M  V30 38 1 34 39
M  V30 39 1 37 40
M  V30 40 2 40 41
M  V30 41 1 40 42
M  V30 42 1 41 43
M  V30 43 2 42 44
M  V30 44 2 43 45
M  V30 45 1 45 46
M  V30 46 1 7 9
M  V30 47 1 17 23
M  V30 48 1 19 20
M  V30 49 1 30 32
M  V30 50 1 37 38
M  V30 51 1 44 45
M  V30 52 1 4 47
M  V30 53 1 6 48
M  V30 54 1 9 49
M  V30 55 1 11 50
M  V30 56 1 12 51
M  V30 57 1 13 52
M  V30 58 1 17 53
M  V30 59 1 21 54
M  V30 60 1 21 55
M  V30 61 1 21 56
M  V30 62 1 26 57
M  V30 63 1 27 58
M  V30 64 1 29 59
M  V30 65 1 30 60
M  V30 66 1 31 61
M  V30 67 1 35 62
M  V30 68 1 35 63
M  V30 69 1 35 64
M  V30 70 1 39 65
M  V30 71 1 39 66
M  V30 72 1 39 67
M  V30 73 1 41 68
M  V30 74 1 42 69
M  V30 75 1 43 70
M  V30 76 1 44 71
M  V30 77 1 46 72
M  V30 78 1 46 73
M  V30 79 1 46 74
M  V30 END BOND
M  V30 BEGIN COLLECTION
M  V30 MDLV30/STEABS ATOMS=(2 11 31)
M  V30 END COLLECTION
M  V30 END CTAB
M  END
>  <Structure No>
3002

>  <LogS>
-8.269885037

>  <MMFF94 Energy>
222.78

$$$$
Compound 3003
Actelion Java MolfileCreator 2.0

  0  0  0  0  0  0              0 V3000
M  V30 BEGIN CTAB
M  V30 COUNTS 37 42 0 0 0
M  V30 BEGIN ATOM
M  V30 1 S 2.4862 -1.657 -1.7399 0
M  V30 2 C 0.9427 -1.2834 -1.2184 0
M  V30 3 C 3.6442 -0.6281 -1.1141 0
M  V30 4 C 0.7487 -0.1941 -0.3431 0
M  V30 5 C -0.1139 -2.0633 -1.6659 0
M  V30 6 C 3.2447 0.4189 -0.2409 0
M  V30 7 C 4.9812 -0.8328 -1.4735 0
M  V30 8 C -0.5995 0.0809 0.0725 0
M  V30 9 C 1.8495 0.6277 0.1303 0
M  V30 10 C -1.409 -1.7926 -1.2615 0
M  V30 11 C 4.3004 1.249 0.2456 0
M  V30 12 C 5.9739 -2.0E-4 -0.9755 0
M  V30 13 C -0.8559 1.1577 0.9474 0
M  V30 14 C -1.6911 -0.7218 -0.3873 0
M  V30 15 C 1.5086 1.6883 1.0053 0
M  V30 16 C 5.6336 1.0374 -0.1185 0
M  V30 17 C -2.1669 1.4456 1.3675 0
M  V30 18 C 0.2055 1.9421 1.3978 0
M  V30 19 C -3.0239 -0.4272 0.0411 0
M  V30 20 O -2.3769 2.4149 2.1519 0
M  V30 21 C -3.2462 0.6654 0.9232 0
M  V30 22 C -4.1532 -1.1819 -0.3758 0
M  V30 23 C -4.5567 0.9668 1.3538 0
M  V30 24 C -5.4382 -0.8635 0.064 0
M  V30 25 C -5.6398 0.2065 0.9254 0
M  V30 26 H 0.0658 -2.8942 -2.3382 0
M  V30 27 H 5.2546 -1.6405 -2.1418 0
M  V30 28 H -2.1648 -2.4478 -1.6572 0
M  V30 29 H 4.154 2.0781 0.9115 0
M  V30 30 H 7.0077 -0.1591 -1.2539 0
M  V30 31 H 2.2244 2.3676 1.4257 0
M  V30 32 H 6.4087 1.6865 0.2694 0
M  V30 33 H 0.0344 2.7751 2.0704 0
M  V30 34 H -4.0865 -2.025 -1.0407 0
M  V30 35 H -4.7508 1.7942 2.0255 0
M  V30 36 H -6.2841 -1.4527 -0.2668 0
M  V30 37 H -6.6395 0.4483 1.2631 0
M  V30 END ATOM
M  V30 BEGIN BOND
M  V30 1 1 1 2
M  V30 2 1 1 3
M  V30 3 1 2 4
M  V30 4 2 2 5
M  V30 5 2 3 6
M  V30 6 1 3 7
M  V30 7 1 4 8
M  V30 8 2 4 9
M  V30 9 1 5 10
M  V30 10 1 6 11
M  V30 11 2 7 12
M  V30 12 2 8 13
M  V30 13 1 8 14
M  V30 14 1 9 15
M  V30 15 2 11 16
M  V30 16 1 13 17
M  V30 17 1 13 18
M  V30 18 1 14 19
M  V30 19 2 17 20
M  V30 20 1 17 21
M  V30 21 1 19 22
M  V30 22 1 21 23
M  V30 23 2 22 24
M  V30 24 2 23 25
M  V30 25 1 6 9
M  V30 26 2 10 14
M  V30 27 1 12 16
M  V30 28 2 15 18
M  V30 29 2 19 21
M  V30 30 1 24 25
M  V30 31 1 5 26
M  V30 32 1 7 27
M  V30 33 1 10 28
M  V30 34 1 11 29
M  V30 35 1 12 30
M  V30 36 1 15 31
M  V30 37 1 16 32
M  V30 38 1 18 33
M  V30 39 1 22 34
M  V30 40 1 23 35
M  V30 41 1 24 36
M  V30 42 1 25 37
M  V30 END BOND
M  V30 END CTAB
M  END
>  <Structure No>
3003

>  <LogS>
-7.982807307

>  <MMFF94 Energy>
112.69

$$$$
Compound 3004
Actelion Java MolfileCreator 2.0

  0  0  0  0  0  0              0 V3000
M  V30 BEGIN CTAB
M  V30 COUNTS 57 58 0 0 0
M  V30 BEGIN ATOM
M  V30 1 O -7.6524 1.3518 2.2273 0
M  V30 2 C -6.6715 0.6542 2.6031 0
M  V30 3 O -5.4147 0.8025 2.0068 0
M  V30 4 C -6.8612 -0.3686 3.6707 0
M  V30 5 C -5.1571 1.6995 0.9278 0
M  V30 6 C -5.7147 1.1457 -0.3861 0
M  V30 7 O -5.2276 -0.174 -0.6321 0
M  V30 8 C -3.9266 -0.5016 -1.0472 0
M  V30 9 C -2.9784 0.4662 -1.4198 0
M  V30 10 C -3.5728 -1.8519 -1.0999 0
M  V30 11 C -1.6974 0.0807 -1.8206 0
M  V30 12 C -2.2921 -2.2419 -1.5004 0
M  V30 13 C -1.3204 -1.2785 -1.8507 0
M  V30 14 C 0.0976 -1.6536 -2.3232 0
M  V30 15 C 1.1339 -0.8074 -1.5581 0
M  V30 16 C 0.1378 -1.425 -3.8535 0
M  V30 17 C 0.45 -3.1386 -2.0656 0
M  V30 18 C 1.067 -0.7473 -0.1498 0
M  V30 19 C 2.1951 -0.1298 -2.1994 0
M  V30 20 C 1.9995 -0.0122 0.5846 0
M  V30 21 C 3.1269 0.6047 -1.4601 0
M  V30 22 C 3.033 0.6705 -0.0595 0
M  V30 23 O 3.943 1.3954 0.7237 0
M  V30 24 C 5.0493 2.1285 0.2036 0
M  V30 25 C 5.8168 2.7808 1.3499 0
M  V30 26 O 6.265 1.8002 2.2842 0
M  V30 27 C 7.3396 0.9381 2.0403 0
M  V30 28 O 8.0291 1.0456 0.99 0
M  V30 29 C 7.7079 -0.082 3.0629 0
M  V30 30 H -5.8825 -0.63 4.1246 0
M  V30 31 H -7.5298 0.0281 4.4634 0
M  V30 32 H -7.314 -1.2815 3.2314 0
M  V30 33 H -4.0601 1.8349 0.8388 0
M  V30 34 H -5.6014 2.696 1.1409 0
M  V30 35 H -6.8213 1.1002 -0.3171 0
M  V30 36 H -5.4719 1.8206 -1.2336 0
M  V30 37 H -3.2177 1.5196 -1.4122 0
M  V30 38 H -4.2983 -2.608 -0.827 0
M  V30 39 H -0.9922 0.8506 -2.1087 0
M  V30 40 H -2.0805 -3.3002 -1.5281 0
M  V30 41 H -0.6896 -1.9785 -4.3489 0
M  V30 42 H 1.09 -1.7937 -4.2921 0
M  V30 43 H 0.0224 -0.3475 -4.0996 0
M  V30 44 H 1.512 -3.3352 -2.3298 0
M  V30 45 H -0.175 -3.8156 -2.6867 0
M  V30 46 H 0.3106 -3.4024 -0.9951 0
M  V30 47 H 0.2846 -1.2718 0.3847 0
M  V30 48 H 2.3204 -0.1555 -3.2715 0
M  V30 49 H 1.9202 0.0236 1.6639 0
M  V30 50 H 3.9195 1.1157 -1.9894 0
M  V30 51 H 5.7231 1.4466 -0.3575 0
M  V30 52 H 4.6827 2.9223 -0.4823 0
M  V30 53 H 5.1428 3.4895 1.8762 0
M  V30 54 H 6.6797 3.3595 0.9545 0
M  V30 55 H 8.5108 0.3205 3.7146 0
M  V30 56 H 8.0676 -1.0075 2.5659 0
M  V30 57 H 6.8231 -0.3307 3.6855 0
M  V30 END ATOM
M  V30 BEGIN BOND
M  V30 1 2 1 2
M  V30 2 1 2 3
M  V30 3 1 2 4
M  V30 4 1 3 5
M  V30 5 1 5 6
M  V30 6 1 6 7
M  V30 7 1 7 8
M  V30 8 2 8 9
M  V30 9 1 8 10
M  V30 10 1 9 11
M  V30 11 2 10 12
M  V30 12 2 11 13
M  V30 13 1 13 14
M  V30 14 1 14 15
M  V30 15 1 14 16
M  V30 16 1 14 17
M  V30 17 2 15 18
M  V30 18 1 15 19
M  V30 19 1 18 20
M  V30 20 2 19 21
M  V30 21 2 20 22
M  V30 22 1 22 23
M  V30 23 1 23 24
M  V30 24 1 24 25
M  V30 25 1 25 26
M  V30 26 1 26 27
M  V30 27 2 27 28
M  V30 28 1 27 29
M  V30 29 1 12 13
M  V30 30 1 21 22
M  V30 31 1 4 30
M  V30 32 1 4 31
M  V30 33 1 4 32
M  V30 34 1 5 33
M  V30 35 1 5 34
M  V30 36 1 6 35
M  V30 37 1 6 36
M  V30 38 1 9 37
M  V30 39 1 10 38
M  V30 40 1 11 39
M  V30 41 1 12 40
M  V30 42 1 16 41
M  V30 43 1 16 42
M  V30 44 1 16 43
M  V30 45 1 17 44
M  V30 46 1 17 45
M  V30 47 1 17 46
M  V30 48 1 18 47
M  V30 49 1 19 48
M  V30 50 1 20 49
M  V30 51 1 21 50
M  V30 52 1 24 51
M  V30 53 1 24 52
M  V30 54 1 25 53
M  V30 55 1 25 54
M  V30 56 1 29 55
M  V30 57 1 29 56
M  V30 58 1 29 57
M  V30 END BOND
M  V30 END CTAB
M  END
>  <Structure No>
3004

>  <LogS>
-8.058503028

>  <MMFF94 Energy>
69.865

$$$$
Compound 3005
Actelion Java MolfileCreator 2.0

  0  0  0  0  0  0              0 V3000
M  V30 BEGIN CTAB
M  V30 COUNTS 33 35 0 0 0
M  V30 BEGIN ATOM
M  V30 1 Cl 3.2158 -0.659 -3.3809 0
M  V30 2 C 3.3168 0.1013 -1.7963 0
M  V30 3 C 2.1898 0.2277 -0.9555 0
M  V30 4 C 4.5635 0.5812 -1.3769 0
M  V30 5 N 0.9001 -0.2607 -1.3685 0
M  V30 6 C 2.3481 0.8333 0.3041 0
M  V30 7 C 4.7155 1.1901 -0.1195 0
M  V30 8 N -0.2345 -0.0554 -0.5631 0
M  V30 9 C 3.5946 1.3094 0.7157 0
M  V30 10 N 5.9984 1.6829 0.3088 0 CHG=1
M  V30 11 C -1.3645 -0.7035 -0.6512 0
M  V30 12 O 6.9996 1.5802 -0.4298 0
M  V30 13 O 6.1428 2.2787 1.541 0 CHG=-1
M  V30 14 C -1.572 -1.8868 -1.5308 0
M  V30 15 C -2.5137 -0.2649 0.1833 0
M  V30 16 O -0.6111 -2.4788 -2.0881 0
M  V30 17 C -2.9293 -2.4313 -1.6966 0
M  V30 18 C -3.7762 -0.8772 0.008 0
M  V30 19 C -2.3761 0.7638 1.1357 0
M  V30 20 C -3.9555 -1.9605 -0.9836 0
M  V30 21 C -4.8698 -0.455 0.7791 0
M  V30 22 C -3.473 1.1723 1.8986 0
M  V30 23 C -4.7166 0.565 1.7204 0
M  V30 24 H 5.4155 0.4755 -2.0364 0
M  V30 25 H 0.7814 -0.6178 -2.3399 0
M  V30 26 H 1.5072 0.9409 0.9768 0
M  V30 27 H 3.6799 1.7714 1.6908 0
M  V30 28 H -3.0946 -3.2448 -2.3922 0
M  V30 29 H -1.4229 1.2525 1.2932 0
M  V30 30 H -4.9359 -2.3991 -1.1256 0
M  V30 31 H -5.8416 -0.9164 0.6532 0
M  V30 32 H -3.3584 1.9628 2.629 0
M  V30 33 H -5.564 0.8855 2.3127 0
M  V30 END ATOM
M  V30 BEGIN BOND
M  V30 1 1 1 2
M  V30 2 2 2 3
M  V30 3 1 2 4
M  V30 4 1 3 5
M  V30 5 1 3 6
M  V30 6 2 4 7
M  V30 7 1 5 8
M  V30 8 2 6 9
M  V30 9 1 7 10
M  V30 10 2 8 11
M  V30 11 2 10 12
M  V30 12 1 10 13
M  V30 13 1 11 14
M  V30 14 1 11 15
M  V30 15 2 14 16
M  V30 16 1 14 17
M  V30 17 2 15 18
M  V30 18 1 15 19
M  V30 19 2 17 20
M  V30 20 1 18 21
M  V30 21 2 19 22
M  V30 22 2 21 23
M  V30 23 1 7 9
M  V30 24 1 18 20
M  V30 25 1 22 23
M  V30 26 1 4 24
M  V30 27 1 5 25
M  V30 28 1 6 26
M  V30 29 1 9 27
M  V30 30 1 17 28
M  V30 31 1 19 29
M  V30 32 1 20 30
M  V30 33 1 21 31
M  V30 34 1 22 32
M  V30 35 1 23 33
M  V30 END BOND
M  V30 END CTAB
M  END
>  <Structure No>
3005

>  <LogS>
-7.996998283

>  <MMFF94 Energy>
139.73

$$$$
Compound 3006
Actelion Java MolfileCreator 2.0

  0  0  0  0  0  0              0 V3000
M  V30 BEGIN CTAB
M  V30 COUNTS 36 38 0 0 0
M  V30 BEGIN ATOM
M  V30 1 O 2.0245 -0.5665 3.4841 0
M  V30 2 N 3.0244 -0.4767 2.7423 0 CHG=1
M  V30 3 O 4.2755 -0.6124 3.299 0 CHG=-1
M  V30 4 C 2.8735 -0.4257 1.3122 0
M  V30 5 C 1.7716 0.2266 0.7044 0
M  V30 6 C 3.8259 -1.0674 0.5012 0
M  V30 7 N 0.8278 0.9724 1.4981 0
M  V30 8 C 1.636 0.1864 -0.6952 0
M  V30 9 C 3.6917 -1.0816 -0.8935 0
M  V30 10 N -0.4221 1.3719 0.9927 0
M  V30 11 C 2.5806 -0.47 -1.4841 0
M  V30 12 C 4.6891 -1.8153 -1.7409 0
M  V30 13 C -1.3836 0.5607 0.642 0
M  V30 14 C -1.3315 -0.9089 0.8672 0
M  V30 15 C -2.6053 1.1137 0.002 0
M  V30 16 O -0.4219 -1.441 1.5566 0
M  V30 17 C -2.3975 -1.7615 0.3178 0
M  V30 18 C -3.6079 0.231 -0.4623 0
M  V30 19 C -2.7788 2.501 -0.1683 0
M  V30 20 C -3.4554 -1.2325 -0.3024 0
M  V30 21 C -4.7574 0.7448 -1.0821 0
M  V30 22 C -3.9291 2.9988 -0.7857 0
M  V30 23 C -4.9157 2.1231 -1.2416 0
M  V30 24 H 4.6644 -1.5786 0.9585 0
M  V30 25 H 1.1915 1.4893 2.3291 0
M  V30 26 H 0.808 0.6818 -1.1849 0
M  V30 27 H 2.4505 -0.4905 -2.5592 0
M  V30 28 H 5.6983 -1.7785 -1.278 0
M  V30 29 H 4.3764 -2.8753 -1.8445 0
M  V30 30 H 4.7586 -1.3576 -2.7508 0
M  V30 31 H -2.3318 -2.8364 0.4338 0
M  V30 32 H -2.0281 3.2018 0.1745 0
M  V30 33 H -4.2234 -1.8952 -0.6833 0
M  V30 34 H -5.5318 0.0785 -1.442 0
M  V30 35 H -4.0552 4.0665 -0.912 0
M  V30 36 H -5.8049 2.5132 -1.72 0
M  V30 END ATOM
M  V30 BEGIN BOND
M  V30 1 2 1 2
M  V30 2 1 2 3
M  V30 3 1 2 4
M  V30 4 2 4 5
M  V30 5 1 4 6
M  V30 6 1 5 7
M  V30 7 1 5 8
M  V30 8 2 6 9
M  V30 9 1 7 10
M  V30 10 2 8 11
M  V30 11 1 9 12
M  V30 12 2 10 13
M  V30 13 1 13 14
M  V30 14 1 13 15
M  V30 15 2 14 16
M  V30 16 1 14 17
M  V30 17 2 15 18
M  V30 18 1 15 19
M  V30 19 2 17 20
M  V30 20 1 18 21
M  V30 21 2 19 22
M  V30 22 2 21 23
M  V30 23 1 9 11
M  V30 24 1 18 20
M  V30 25 1 22 23
M  V30 26 1 6 24
M  V30 27 1 7 25
M  V30 28 1 8 26
M  V30 29 1 11 27
M  V30 30 1 12 28
M  V30 31 1 12 29
M  V30 32 1 12 30
M  V30 33 1 17 31
M  V30 34 1 19 32
M  V30 35 1 20 33
M  V30 36 1 21 34
M  V30 37 1 22 35
M  V30 38 1 23 36
M  V30 END BOND
M  V30 END CTAB
M  END
>  <Structure No>
3006

>  <LogS>
-7.96906134

>  <MMFF94 Energy>
147.81

$$$$
Compound 3007
Actelion Java MolfileCreator 2.0

  0  0  0  0  0  0              0 V3000
M  V30 BEGIN CTAB
M  V30 COUNTS 63 62 0 0 0
M  V30 BEGIN ATOM
M  V30 1 O 0 0 0 0
M  V30 2 C 0 0 0 0
M  V30 3 O 0 0 0 0
M  V30 4 C 0 0 0 0
M  V30 5 C 0 0 0 0
M  V30 6 C 0 0 0 0
M  V30 7 C 0 0 0 0
M  V30 8 C 0 0 0 0
M  V30 9 C 0 0 0 0
M  V30 10 O 0 0 0 0
M  V30 11 O 0 0 0 0
M  V30 12 C 0 0 0 0
M  V30 13 C 0 0 0 0
M  V30 14 C 0 0 0 0
M  V30 15 C 0 0 0 0
M  V30 16 O 0 0 0 0
M  V30 17 C 0 0 0 0
M  V30 18 O 0 0 0 0
M  V30 19 C 0 0 0 0
M  V30 20 C 0 0 0 0
M  V30 21 C 0 0 0 0
M  V30 22 C 0 0 0 0
M  V30 23 C 0 0 0 0
M  V30 24 C 0 0 0 0
M  V30 25 C 0 0 0 0
M  V30 26 C 0 0 0 0
M  V30 27 C 0 0 0 0
M  V30 28 C 0 0 0 0
M  V30 29 C 0 0 0 0
M  V30 30 C 0 0 0 0
M  V30 31 C 0 0 0 0
M  V30 32 C 0 0 0 0
M  V30 33 C 0 0 0 0
M  V30 34 C 0 0 0 0
M  V30 35 C 0 0 0 0
M  V30 36 C 0 0 0 0
M  V30 37 C 0 0 0 0
M  V30 38 C 0 0 0 0
M  V30 39 C 0 0 0 0
M  V30 40 C 0 0 0 0
M  V30 41 C 0 0 0 0
M  V30 42 C 0 0 0 0
M  V30 43 C 0 0 0 0
M  V30 44 C 0 0 0 0
M  V30 45 C 0 0 0 0
M  V30 46 C 0 0 0 0
M  V30 47 C 0 0 0 0
M  V30 48 C 0 0 0 0
M  V30 49 C 0 0 0 0
M  V30 50 C 0 0 0 0
M  V30 51 C 0 0 0 0
M  V30 52 C 0 0 0 0
M  V30 53 C 0 0 0 0
M  V30 54 C 0 0 0 0
M  V30 55 C 0 0 0 0
M  V30 56 C 0 0 0 0
M  V30 57 C 0 0 0 0
M  V30 58 C 0 0 0 0
M  V30 59 C 0 0 0 0
M  V30 60 C 0 0 0 0
M  V30 61 C 0 0 0 0
M  V30 62 C 0 0 0 0
M  V30 63 C 0 0 0 0
M  V30 END ATOM
M  V30 BEGIN BOND
M  V30 1 2 1 2
M  V30 2 1 2 3
M  V30 3 1 2 4
M  V30 4 1 3 5
M  V30 5 1 4 6
M  V30 6 1 5 7
M  V30 7 1 5 8
M  V30 8 1 6 9
M  V30 9 1 7 10
M  V30 10 1 8 11
M  V30 11 1 9 12
M  V30 12 1 10 13
M  V30 13 1 11 14
M  V30 14 1 12 15
M  V30 15 2 13 16
M  V30 16 1 13 17
M  V30 17 2 14 18
M  V30 18 1 14 19
M  V30 19 1 15 20
M  V30 20 1 17 21
M  V30 21 1 19 22
M  V30 22 1 20 23
M  V30 23 1 21 24
M  V30 24 1 22 25
M  V30 25 1 23 26
M  V30 26 1 24 27
M  V30 27 1 25 28
M  V30 28 1 26 29
M  V30 29 1 27 30
M  V30 30 1 28 31
M  V30 31 1 29 32
M  V30 32 1 30 33
M  V30 33 1 31 34
M  V30 34 1 32 35
M  V30 35 1 33 36
M  V30 36 1 34 37
M  V30 37 1 35 38
M  V30 38 1 36 39
M  V30 39 1 37 40
M  V30 40 1 38 41
M  V30 41 1 39 42
M  V30 42 1 40 43
M  V30 43 1 41 44
M  V30 44 1 42 45
M  V30 45 1 43 46
M  V30 46 1 44 47
M  V30 47 1 45 48
M  V30 48 1 46 49
M  V30 49 1 47 50
M  V30 50 1 47 51
M  V30 51 1 48 52
M  V30 52 1 49 53
M  V30 53 1 52 54
M  V30 54 1 53 55
M  V30 55 1 54 56
M  V30 56 1 55 57
M  V30 57 1 56 58
M  V30 58 1 57 59
M  V30 59 1 58 60
M  V30 60 1 58 61
M  V30 61 1 59 62
M  V30 62 1 59 63
M  V30 END BOND
M  V30 END CTAB
M  END
>  <Structure No>
3007

>  <LogS>
-8.458760141

>  <MMFF94 Energy>
-11.381

$$$$
Compound 3008
Actelion Java MolfileCreator 2.0

  0  0  0  0  0  0              0 V3000
M  V30 BEGIN CTAB
M  V30 COUNTS 93 93 0 0 0
M  V30 BEGIN ATOM
M  V30 1 O -0.71 -0.4733 -2.5264 0
M  V30 2 C -0.4354 0.0133 -1.3957 0
M  V30 3 O -0.8583 1.2988 -1.0541 0
M  V30 4 C 0.3771 -0.7601 -0.4426 0
M  V30 5 C -1.5648 2.1416 -1.9596 0
M  V30 6 C 0.0665 -2.098 -0.0976 0
M  V30 7 C 1.5354 -0.1592 0.0726 0
M  V30 8 C -2.0938 3.3861 -1.22 0 CFG=1
M  V30 9 C -1.2158 -2.7329 -0.4862 0
M  V30 10 C 0.9663 -2.8194 0.7057 0
M  V30 11 C 2.4242 -0.883 0.8828 0
M  V30 12 C -2.8301 4.3497 -2.1851 0
M  V30 13 C -2.9806 3.0088 -0.0051 0
M  V30 14 O -1.2918 -3.988 -0.5788 0
M  V30 15 O -2.3478 -1.9367 -0.7042 0
M  V30 16 C 2.133 -2.2213 1.1852 0
M  V30 17 C 3.6673 -0.2572 1.3848 0
M  V30 18 C -1.8535 5.1712 -3.0486 0
M  V30 19 C -4.2324 2.2001 -0.3585 0
M  V30 20 C -3.6583 -2.4468 -0.9448 0
M  V30 21 O 3.9068 0.9577 1.1419 0
M  V30 22 O 4.5806 -1.0183 2.1246 0
M  V30 23 C -2.5726 6.2032 -3.9309 0
M  V30 24 C -4.5432 -2.2924 0.3093 0 CFG=1
M  V30 25 C 5.8802 -0.5504 2.4852 0
M  V30 26 C -3.3025 5.561 -5.1102 0
M  V30 27 C -6.0142 -2.6247 -0.0381 0
M  V30 28 C -3.9946 -3.0898 1.5244 0
M  V30 29 C 6.8245 -0.5187 1.2602 0 CFG=1
M  V30 30 C -6.983 -2.3518 1.127 0
M  V30 31 C -4.1024 -4.6126 1.3943 0
M  V30 32 C 8.2695 -0.1238 1.6553 0
M  V30 33 C 6.8006 -1.8503 0.4648 0
M  V30 34 C -8.4567 -2.446 0.7021 0
M  V30 35 C 8.3943 1.362 2.0404 0
M  V30 36 C 7.2954 -3.0671 1.2515 0
M  V30 37 C -8.8774 -3.871 0.3425 0
M  V30 38 C 9.8447 1.771 2.3445 0
M  V30 39 C 10.6948 1.9143 1.0817 0
M  V30 40 H -0.8674 2.4425 -2.7686 0
M  V30 41 H -2.4062 1.5847 -2.4266 0
M  V30 42 H 1.7619 0.8663 -0.1961 0
M  V30 43 H -1.2127 3.9226 -0.8028 0
M  V30 44 H 0.7551 -3.8443 0.9876 0
M  V30 45 H -3.5159 3.7696 -2.8389 0
M  V30 46 H -3.4481 5.0614 -1.5937 0
M  V30 47 H -2.3791 2.4277 0.7261 0
M  V30 48 H -3.2946 3.9389 0.5163 0
M  V30 49 H 2.8024 -2.805 1.8036 0
M  V30 50 H -1.1607 5.7219 -2.3754 0
M  V30 51 H -1.2391 4.5048 -3.6904 0
M  V30 52 H -3.959 1.1971 -0.7503 0
M  V30 53 H -4.8563 2.7389 -1.1022 0
M  V30 54 H -4.842 2.0515 0.5571 0
M  V30 55 H -3.6337 -3.4979 -1.3016 0
M  V30 56 H -4.0977 -1.8431 -1.7666 0
M  V30 57 H -1.8139 6.9063 -4.3362 0
M  V30 58 H -3.29 6.7979 -3.3238 0
M  V30 59 H -4.5079 -1.2156 0.5886 0
M  V30 60 H 5.7896 0.4582 2.9382 0
M  V30 61 H 6.2941 -1.2206 3.2668 0
M  V30 62 H -3.7142 6.3569 -5.765 0
M  V30 63 H -4.1436 4.9292 -4.7591 0
M  V30 64 H -2.601 4.9419 -5.7091 0
M  V30 65 H -6.0935 -3.6824 -0.3624 0
M  V30 66 H -6.3244 -1.9952 -0.9018 0
M  V30 67 H -2.9311 -2.8209 1.6958 0
M  V30 68 H -4.5315 -2.7763 2.444 0
M  V30 69 H 6.4434 0.2594 0.563 0
M  V30 70 H -6.8015 -3.068 1.9564 0
M  V30 71 H -6.8025 -1.3257 1.5153 0
M  V30 72 H -3.6128 -5.0873 2.2698 0
M  V30 73 H -5.1631 -4.9373 1.3832 0
M  V30 74 H -3.5967 -4.9755 0.4778 0
M  V30 75 H 8.6175 -0.7518 2.5037 0
M  V30 76 H 8.9364 -0.3244 0.7905 0
M  V30 77 H 7.4265 -1.7412 -0.448 0
M  V30 78 H 5.7671 -2.0545 0.1101 0
M  V30 79 H -8.652 -1.7719 -0.1593 0
M  V30 80 H -9.0894 -2.0993 1.5475 0
M  V30 81 H 7.7953 1.5513 2.9565 0
M  V30 82 H 7.9849 2.0044 1.23 0
M  V30 83 H 7.2393 -3.9673 0.6043 0
M  V30 84 H 8.3511 -2.9355 1.5646 0
M  V30 85 H 6.6615 -3.2486 2.1433 0
M  V30 86 H -8.3804 -4.2031 -0.5909 0
M  V30 87 H -9.9736 -3.9007 0.1775 0
M  V30 88 H -8.6249 -4.5713 1.1657 0
M  V30 89 H 9.8304 2.7543 2.8649 0
M  V30 90 H 10.3158 1.0344 3.0311 0
M  V30 91 H 10.8437 0.9305 0.5917 0
M  V30 92 H 11.6932 2.3193 1.3527 0
M  V30 93 H 10.2132 2.614 0.3649 0
M  V30 END ATOM
M  V30 BEGIN BOND
M  V30 1 2 1 2
M  V30 2 1 2 3
M  V30 3 1 2 4
M  V30 4 1 3 5
M  V30 5 2 4 6
M  V30 6 1 4 7
M  V30 7 1 5 8
M  V30 8 1 6 9
M  V30 9 1 6 10
M  V30 10 2 7 11
M  V30 11 1 8 12
M  V30 12 1 8 13
M  V30 13 2 9 14
M  V30 14 1 9 15
M  V30 15 2 10 16
M  V30 16 1 11 17
M  V30 17 1 12 18
M  V30 18 1 13 19
M  V30 19 1 15 20
M  V30 20 2 17 21
M  V30 21 1 17 22
M  V30 22 1 18 23
M  V30 23 1 20 24
M  V30 24 1 22 25
M  V30 25 1 23 26
M  V30 26 1 24 27
M  V30 27 1 24 28
M  V30 28 1 25 29
M  V30 29 1 27 30
M  V30 30 1 28 31
M  V30 31 1 29 32
M  V30 32 1 29 33
M  V30 33 1 30 34
M  V30 34 1 32 35
M  V30 35 1 33 36
M  V30 36 1 34 37
M  V30 37 1 35 38
M  V30 38 1 38 39
M  V30 39 1 11 16
M  V30 40 1 5 40
M  V30 41 1 5 41
M  V30 42 1 7 42
M  V30 43 1 8 43
M  V30 44 1 10 44
M  V30 45 1 12 45
M  V30 46 1 12 46
M  V30 47 1 13 47
M  V30 48 1 13 48
M  V30 49 1 16 49
M  V30 50 1 18 50
M  V30 51 1 18 51
M  V30 52 1 19 52
M  V30 53 1 19 53
M  V30 54 1 19 54
M  V30 55 1 20 55
M  V30 56 1 20 56
M  V30 57 1 23 57
M  V30 58 1 23 58
M  V30 59 1 24 59
M  V30 60 1 25 60
M  V30 61 1 25 61
M  V30 62 1 26 62
M  V30 63 1 26 63
M  V30 64 1 26 64
M  V30 65 1 27 65
M  V30 66 1 27 66
M  V30 67 1 28 67
M  V30 68 1 28 68
M  V30 69 1 29 69
M  V30 70 1 30 70
M  V30 71 1 30 71
M  V30 72 1 31 72
M  V30 73 1 31 73
M  V30 74 1 31 74
M  V30 75 1 32 75
M  V30 76 1 32 76
M  V30 77 1 33 77
M  V30 78 1 33 78
M  V30 79 1 34 79
M  V30 80 1 34 80
M  V30 81 1 35 81
M  V30 82 1 35 82
M  V30 83 1 36 83
M  V30 84 1 36 84
M  V30 85 1 36 85
M  V30 86 1 37 86
M  V30 87 1 37 87
M  V30 88 1 37 88
M  V30 89 1 38 89
M  V30 90 1 38 90
M  V30 91 1 39 91
M  V30 92 1 39 92
M  V30 93 1 39 93
M  V30 END BOND
M  V30 BEGIN COLLECTION
M  V30 MDLV30/STEABS ATOMS=(3 8 24 29)
M  V30 END COLLECTION
M  V30 END CTAB
M  END
>  <Structure No>
3008

>  <LogS>
-8.252098343

>  <MMFF94 Energy>
37.331

$$$$
Compound 3009
Actelion Java MolfileCreator 2.0

  0  0  0  0  0  0              0 V3000
M  V30 BEGIN CTAB
M  V30 COUNTS 53 56 0 0 0
M  V30 BEGIN ATOM
M  V30 1 O -4.1037 -0.0803 -2.01 0
M  V30 2 C -3.1991 -0.3825 -1.185 0
M  V30 3 N -3.5307 -0.6642 0.1862 0
M  V30 4 C -1.7972 -0.45 -1.6515 0
M  V30 5 C -4.8644 -0.5865 0.7174 0
M  V30 6 C -0.7494 0.1315 -0.9125 0
M  V30 7 C -1.5176 -1.0935 -2.8621 0
M  V30 8 C -5.0752 -0.0143 1.9874 0
M  V30 9 C -5.9527 -1.1292 0.011 0
M  V30 10 O -1.0463 0.8291 0.2625 0
M  V30 11 C 0.5842 0.0205 -1.3582 0
M  V30 12 C -0.2078 -1.1692 -3.3476 0
M  V30 13 O -3.9718 0.5039 2.6848 0
M  V30 14 C -6.3804 0.0327 2.5173 0
M  V30 15 C -7.2408 -1.0749 0.5466 0
M  V30 16 N 1.6226 0.5466 -0.5188 0
M  V30 17 C 0.8596 -0.5972 -2.6079 0
M  V30 18 C 0.0441 -1.7989 -4.5773 0
M  V30 19 C -4.0422 1.1132 3.9696 0
M  V30 20 C -7.4547 -0.4918 1.7955 0
M  V30 21 N 2.6934 -0.0984 -0.283 0
M  V30 22 C 2.155 -0.6197 -3.1707 0
M  V30 23 C 1.3386 -1.8425 -5.0934 0
M  V30 24 C 3.7304 0.4263 0.5537 0
M  V30 25 C 2.3883 -1.2461 -4.3973 0
M  V30 26 C 3.6114 1.6787 1.1794 0
M  V30 27 C 4.8878 -0.3323 0.754 0
M  V30 28 C 4.6426 2.1615 1.9903 0
M  V30 29 C 5.9208 0.1492 1.5636 0
M  V30 30 C 5.8137 1.4073 2.1846 0
M  V30 31 C 6.8971 1.9321 3.0517 0
M  V30 32 O 6.6341 2.8148 3.9125 0
M  V30 33 N 8.2452 1.4715 2.9261 0
M  V30 34 H -2.7579 -0.8892 0.8518 0
M  V30 35 H -2.3286 -1.5367 -3.4303 0
M  V30 36 H -5.8035 -1.6186 -0.9421 0
M  V30 37 H -0.3381 1.2769 0.8312 0
M  V30 38 H -6.5751 0.4721 3.486 0
M  V30 39 H -8.0733 -1.4944 -0.0032 0
M  V30 40 H -0.7624 -2.2488 -5.1442 0
M  V30 41 H -3.0241 1.4279 4.2774 0
M  V30 42 H -4.695 2.0108 3.9313 0
M  V30 43 H -4.431 0.3881 4.7154 0
M  V30 44 H -8.4543 -0.4533 2.2092 0
M  V30 45 H 2.9929 -0.1322 -2.6957 0
M  V30 46 H 1.5257 -2.3248 -6.044 0
M  V30 47 H 3.3868 -1.2596 -4.8148 0
M  V30 48 H 2.7239 2.2834 1.0427 0
M  V30 49 H 4.9862 -1.3032 0.2847 0
M  V30 50 H 4.5276 3.132 2.4576 0
M  V30 51 H 6.7876 -0.4784 1.7176 0
M  V30 52 H 8.9756 1.8147 3.5888 0
M  V30 53 H 8.5481 0.8663 2.1325 0
M  V30 END ATOM
M  V30 BEGIN BOND
M  V30 1 2 1 2
M  V30 2 1 2 3
M  V30 3 1 2 4
M  V30 4 1 3 5
M  V30 5 1 4 6
M  V30 6 2 4 7
M  V30 7 2 5 8
M  V30 8 1 5 9
M  V30 9 1 6 10
M  V30 10 2 6 11
M  V30 11 1 7 12
M  V30 12 1 8 13
M  V30 13 1 8 14
M  V30 14 2 9 15
M  V30 15 1 11 16
M  V30 16 1 11 17
M  V30 17 2 12 18
M  V30 18 1 13 19
M  V30 19 2 14 20
M  V30 20 2 16 21
M  V30 21 2 17 22
M  V30 22 1 18 23
M  V30 23 1 21 24
M  V30 24 1 22 25
M  V30 25 2 24 26
M  V30 26 1 24 27
M  V30 27 1 26 28
M  V30 28 2 27 29
M  V30 29 2 28 30
M  V30 30 1 30 31
M  V30 31 2 31 32
M  V30 32 1 31 33
M  V30 33 1 12 17
M  V30 34 1 15 20
M  V30 35 2 23 25
M  V30 36 1 29 30
M  V30 37 1 3 34
M  V30 38 1 7 35
M  V30 39 1 9 36
M  V30 40 1 10 37
M  V30 41 1 14 38
M  V30 42 1 15 39
M  V30 43 1 18 40
M  V30 44 1 19 41
M  V30 45 1 19 42
M  V30 46 1 19 43
M  V30 47 1 20 44
M  V30 48 1 22 45
M  V30 49 1 23 46
M  V30 50 1 25 47
M  V30 51 1 26 48
M  V30 52 1 27 49
M  V30 53 1 28 50
M  V30 54 1 29 51
M  V30 55 1 33 52
M  V30 56 1 33 53
M  V30 END BOND
M  V30 END CTAB
M  END
>  <Structure No>
3009

>  <LogS>
-8.166784234

>  <MMFF94 Energy>
80.016

$$$$
Compound 3010
Actelion Java MolfileCreator 2.0

  0  0  0  0  0  0              0 V3000
M  V30 BEGIN CTAB
M  V30 COUNTS 76 75 0 0 0
M  V30 BEGIN ATOM
M  V30 1 O -3.8548 1.572 1.0216 0
M  V30 2 C -4.3939 0.6989 0.2895 0
M  V30 3 O -3.6611 0.0874 -0.7242 0
M  V30 4 C -5.8359 0.321 0.5021 0 CFG=1
M  V30 5 O -2.3558 0.3608 -0.8957 0
M  V30 6 C -6.67 0.8891 -0.6712 0
M  V30 7 C -5.9851 -1.2133 0.6321 0
M  V30 8 C -1.8562 -0.5135 -1.8909 0
M  V30 9 C -8.1953 0.7135 -0.5422 0
M  V30 10 C -5.1546 -1.7924 1.7796 0
M  V30 11 C -0.331 -0.2555 -2.0357 0
M  V30 12 C -2.116 -1.9945 -1.5143 0
M  V30 13 C -2.5279 -0.2036 -3.2477 0
M  V30 14 C -8.7807 1.4203 0.6895 0
M  V30 15 C 0.4471 -0.383 -0.7023 0
M  V30 16 C -10.3061 1.4313 0.6453 0
M  V30 17 C 1.9827 -0.1456 -0.7806 0
M  V30 18 O 2.4488 -0.1976 0.5577 0
M  V30 19 C 2.2906 1.2465 -1.3817 0
M  V30 20 C 2.6503 -1.2569 -1.6299 0
M  V30 21 O 3.7888 -0.0829 0.5466 0
M  V30 22 C 4.4961 0.1565 1.7208 0
M  V30 23 O 3.8741 0.3665 2.7988 0
M  V30 24 C 5.9995 0.2508 1.6661 0 CFG=1
M  V30 25 C 6.3926 1.7233 1.4034 0
M  V30 26 C 6.6556 -0.3074 2.9519 0
M  V30 27 C 7.8709 1.9471 1.0255 0
M  V30 28 C 6.375 -1.7986 3.1481 0
M  V30 29 C 8.2818 1.2695 -0.2992 0
M  V30 30 C 9.1442 0.0276 -0.0736 0
M  V30 31 H -6.1762 0.791 1.4501 0
M  V30 32 H -6.4558 1.9767 -0.7759 0
M  V30 33 H -6.3456 0.4034 -1.6184 0
M  V30 34 H -5.6901 -1.7101 -0.3177 0
M  V30 35 H -7.0455 -1.4686 0.8367 0
M  V30 36 H -8.6571 1.1464 -1.4568 0
M  V30 37 H -8.4651 -0.3632 -0.528 0
M  V30 38 H -5.3692 -2.8772 1.8812 0
M  V30 39 H -5.4116 -1.2886 2.7353 0
M  V30 40 H -4.0685 -1.6716 1.5803 0
M  V30 41 H -0.1972 0.775 -2.427 0
M  V30 42 H 0.0822 -0.9588 -2.7879 0
M  V30 43 H -1.8436 -2.1865 -0.4555 0
M  V30 44 H -3.1912 -2.2524 -1.6289 0
M  V30 45 H -1.5337 -2.6774 -2.1694 0
M  V30 46 H -2.3887 0.8668 -3.5127 0
M  V30 47 H -3.6199 -0.4085 -3.2118 0
M  V30 48 H -2.0883 -0.8299 -4.0536 0
M  V30 49 H -8.4639 0.8938 1.6148 0
M  V30 50 H -8.4162 2.4696 0.7342 0
M  V30 51 H 0.0209 0.3421 0.0254 0
M  V30 52 H 0.2839 -1.3955 -0.2761 0
M  V30 53 H -10.7009 1.9276 1.557 0
M  V30 54 H -10.6989 0.3932 0.6073 0
M  V30 55 H -10.6631 1.9921 -0.2442 0
M  V30 56 H 2.0058 1.2956 -2.4534 0
M  V30 57 H 1.7438 2.0369 -0.8242 0
M  V30 58 H 3.3759 1.4739 -1.3278 0
M  V30 59 H 2.4304 -2.2569 -1.1989 0
M  V30 60 H 2.2971 -1.2326 -2.6805 0
M  V30 61 H 3.7524 -1.127 -1.6651 0
M  V30 62 H 6.3288 -0.3686 0.8052 0
M  V30 63 H 6.1626 2.3296 2.3075 0
M  V30 64 H 5.7664 2.1297 0.5766 0
M  V30 65 H 7.7569 -0.1873 2.9001 0
M  V30 66 H 6.2998 0.2546 3.8428 0
M  V30 67 H 8.5421 1.6533 1.8602 0
M  V30 68 H 8.0104 3.0436 0.9044 0
M  V30 69 H 5.2886 -1.9806 3.2874 0
M  V30 70 H 6.9076 -2.1599 4.0531 0
M  V30 71 H 6.7353 -2.3778 2.2709 0
M  V30 72 H 8.8755 1.9875 -0.9059 0
M  V30 73 H 7.3899 0.997 -0.9046 0
M  V30 74 H 10.1183 0.3171 0.3727 0
M  V30 75 H 9.3381 -0.4692 -1.047 0
M  V30 76 H 8.6404 -0.6954 0.5968 0
M  V30 END ATOM
M  V30 BEGIN BOND
M  V30 1 2 1 2
M  V30 2 1 2 3
M  V30 3 1 2 4
M  V30 4 1 3 5
M  V30 5 1 4 6
M  V30 6 1 4 7
M  V30 7 1 5 8
M  V30 8 1 6 9
M  V30 9 1 7 10
M  V30 10 1 8 11
M  V30 11 1 8 12
M  V30 12 1 8 13
M  V30 13 1 9 14
M  V30 14 1 11 15
M  V30 15 1 14 16
M  V30 16 1 15 17
M  V30 17 1 17 18
M  V30 18 1 17 19
M  V30 19 1 17 20
M  V30 20 1 18 21
M  V30 21 1 21 22
M  V30 22 2 22 23
M  V30 23 1 22 24
M  V30 24 1 24 25
M  V30 25 1 24 26
M  V30 26 1 25 27
M  V30 27 1 26 28
M  V30 28 1 27 29
M  V30 29 1 29 30
M  V30 30 1 4 31
M  V30 31 1 6 32
M  V30 32 1 6 33
M  V30 33 1 7 34
M  V30 34 1 7 35
M  V30 35 1 9 36
M  V30 36 1 9 37
M  V30 37 1 10 38
M  V30 38 1 10 39
M  V30 39 1 10 40
M  V30 40 1 11 41
M  V30 41 1 11 42
M  V30 42 1 12 43
M  V30 43 1 12 44
M  V30 44 1 12 45
M  V30 45 1 13 46
M  V30 46 1 13 47
M  V30 47 1 13 48
M  V30 48 1 14 49
M  V30 49 1 14 50
M  V30 50 1 15 51
M  V30 51 1 15 52
M  V30 52 1 16 53
M  V30 53 1 16 54
M  V30 54 1 16 55
M  V30 55 1 19 56
M  V30 56 1 19 57
M  V30 57 1 19 58
M  V30 58 1 20 59
M  V30 59 1 20 60
M  V30 60 1 20 61
M  V30 61 1 24 62
M  V30 62 1 25 63
M  V30 63 1 25 64
M  V30 64 1 26 65
M  V30 65 1 26 66
M  V30 66 1 27 67
M  V30 67 1 27 68
M  V30 68 1 28 69
M  V30 69 1 28 70
M  V30 70 1 28 71
M  V30 71 1 29 72
M  V30 72 1 29 73
M  V30 73 1 30 74
M  V30 74 1 30 75
M  V30 75 1 30 76
M  V30 END BOND
M  V30 BEGIN COLLECTION
M  V30 MDLV30/STEABS ATOMS=(2 4 24)
M  V30 END COLLECTION
M  V30 END CTAB
M  END
>  <Structure No>
3010

>  <LogS>
-7.188496045

>  <MMFF94 Energy>
67.02

$$$$
Compound 3011
Actelion Java MolfileCreator 2.0

  0  0  0  0  0  0              0 V3000
M  V30 BEGIN CTAB
M  V30 COUNTS 55 56 0 0 0
M  V30 BEGIN ATOM
M  V30 1 S 0.0 -1.5211 2.2423 0
M  V30 2 C -1.0647 -0.1643 1.7092 0
M  V30 3 C 1.0265 -1.4785 0.758 0
M  V30 4 C -0.7822 1.1795 2.0201 0
M  V30 5 C -2.2238 -0.4814 0.9912 0
M  V30 6 C 0.7322 -2.2442 -0.3828 0
M  V30 7 C 2.1761 -0.6832 0.7784 0
M  V30 8 C -1.622 2.1809 1.523 0
M  V30 9 C 0.4276 1.5901 2.8172 0
M  V30 10 C -3.0982 0.5175 0.4964 0
M  V30 11 C 1.5209 -2.0851 -1.5236 0
M  V30 12 C -0.4423 -3.1821 -0.4503 0
M  V30 13 C 3.0353 -0.557 -0.3438 0
M  V30 14 C -2.7581 1.8702 0.7655 0
M  V30 15 C -4.3615 0.1537 -0.3297 0
M  V30 16 C 2.6269 -1.229 -1.5398 0
M  V30 17 C 4.3517 0.2715 -0.2295 0
M  V30 18 O -3.539 2.92 0.2847 0
M  V30 19 C -4.2358 0.7267 -1.7589 0
M  V30 20 C -4.5741 -1.3757 -0.472 0
M  V30 21 C -5.6285 0.7186 0.353 0
M  V30 22 O 3.2605 -1.0907 -2.776 0
M  V30 23 C 4.7331 0.5849 1.2454 0
M  V30 24 C 5.557 -0.5131 -0.8132 0
M  V30 25 C 4.183 1.6326 -0.9382 0
M  V30 26 H -2.4222 -1.5277 0.8346 0
M  V30 27 H 2.3919 -0.1901 1.7105 0
M  V30 28 H -1.3895 3.2202 1.723 0
M  V30 29 H 0.2037 2.494 3.4243 0
M  V30 30 H 1.2607 1.8343 2.1246 0
M  V30 31 H 0.745 0.7966 3.525 0
M  V30 32 H 1.2609 -2.6184 -2.4306 0
M  V30 33 H -1.2921 -2.6743 -0.949 0
M  V30 34 H -0.1771 -4.0842 -1.0402 0
M  V30 35 H -0.7547 -3.5319 0.5533 0
M  V30 36 H -3.3096 3.8887 0.4711 0
M  V30 37 H -3.3005 0.3645 -2.2368 0
M  V30 38 H -4.2241 1.834 -1.7676 0
M  V30 39 H -5.0946 0.407 -2.3883 0
M  V30 40 H -5.4948 -1.5957 -1.0552 0
M  V30 41 H -4.6917 -1.8544 0.5244 0
M  V30 42 H -3.7263 -1.8477 -1.0136 0
M  V30 43 H -6.5463 0.3739 -0.1713 0
M  V30 44 H -5.6589 1.8255 0.3426 0
M  V30 45 H -5.6814 0.3764 1.4094 0
M  V30 46 H 3.8328 -0.3089 -3.0474 0
M  V30 47 H 4.0068 1.2804 1.7179 0
M  V30 48 H 4.7966 -0.3497 1.844 0
M  V30 49 H 5.7198 1.0936 1.3066 0
M  V30 50 H 6.5227 -0.0502 -0.5082 0
M  V30 51 H 5.5901 -0.5259 -1.9168 0
M  V30 52 H 5.5491 -1.5629 -0.442 0
M  V30 53 H 5.1159 2.2319 -0.8614 0
M  V30 54 H 3.9389 1.5371 -2.0099 0
M  V30 55 H 3.3594 2.2097 -0.4649 0
M  V30 END ATOM
M  V30 BEGIN BOND
M  V30 1 1 1 2
M  V30 2 1 1 3
M  V30 3 2 2 4
M  V30 4 1 2 5
M  V30 5 2 3 6
M  V30 6 1 3 7
M  V30 7 1 4 8
M  V30 8 1 4 9
M  V30 9 2 5 10
M  V30 10 1 6 11
M  V30 11 1 6 12
M  V30 12 2 7 13
M  V30 13 2 8 14
M  V30 14 1 10 15
M  V30 15 2 11 16
M  V30 16 1 13 17
M  V30 17 1 14 18
M  V30 18 1 15 19
M  V30 19 1 15 20
M  V30 20 1 15 21
M  V30 21 1 16 22
M  V30 22 1 17 23
M  V30 23 1 17 24
M  V30 24 1 17 25
M  V30 25 1 10 14
M  V30 26 1 13 16
M  V30 27 1 5 26
M  V30 28 1 7 27
M  V30 29 1 8 28
M  V30 30 1 9 29
M  V30 31 1 9 30
M  V30 32 1 9 31
M  V30 33 1 11 32
M  V30 34 1 12 33
M  V30 35 1 12 34
M  V30 36 1 12 35
M  V30 37 1 18 36
M  V30 38 1 19 37
M  V30 39 1 19 38
M  V30 40 1 19 39
M  V30 41 1 20 40
M  V30 42 1 20 41
M  V30 43 1 20 42
M  V30 44 1 21 43
M  V30 45 1 21 44
M  V30 46 1 21 45
M  V30 47 1 22 46
M  V30 48 1 23 47
M  V30 49 1 23 48
M  V30 50 1 23 49
M  V30 51 1 24 50
M  V30 52 1 24 51
M  V30 53 1 24 52
M  V30 54 1 25 53
M  V30 55 1 25 54
M  V30 56 1 25 55
M  V30 END BOND
M  V30 END CTAB
M  END
>  <Structure No>
3011

>  <LogS>
-7.112066324

>  <MMFF94 Energy>
65.171

$$$$
Compound 3012
Actelion Java MolfileCreator 2.0

  0  0  0  0  0  0              0 V3000
M  V30 BEGIN CTAB
M  V30 COUNTS 39 41 0 0 0
M  V30 BEGIN ATOM
M  V30 1 Cl 4.383 2.5269 -1.5998 0
M  V30 2 C 3.4241 1.2276 -0.8988 0
M  V30 3 C 3.4639 0.9445 0.4782 0
M  V30 4 C 2.603 0.4743 -1.7413 0
M  V30 5 C 2.7031 -0.122 0.9813 0
M  V30 6 C 4.3365 1.7459 1.4045 0
M  V30 7 C 1.7915 -0.546 -1.2308 0
M  V30 8 C 1.8836 -0.8873 0.1387 0
M  V30 9 N 0.9265 -1.2436 -2.1411 0
M  V30 10 S 1.0763 -2.2979 0.8376 0
M  V30 11 N -0.3522 -1.2055 -2.1131 0
M  V30 12 O 2.0362 -3.0098 1.7487 0
M  V30 13 O 0.6387 -3.261 -0.2289 0
M  V30 14 O -0.2561 -1.7992 1.7292 0 CHG=-1
M  V30 15 C -1.1425 -0.3967 -1.2205 0
M  V30 16 C -0.9441 0.9978 -1.1531 0
M  V30 17 C -2.1944 -0.9887 -0.4892 0
M  V30 18 O -0.085 1.5921 -2.0808 0
M  V30 19 C -1.6607 1.7713 -0.2087 0
M  V30 20 C -2.956 -0.1989 0.4055 0
M  V30 21 C -2.497 -2.3598 -0.6168 0
M  V30 22 C -1.3669 3.202 0.0296 0
M  V30 23 C -2.6697 1.1628 0.5514 0
M  V30 24 C -3.9858 -0.7876 1.1574 0
M  V30 25 C -3.5264 -2.931 0.135 0
M  V30 26 O -0.1929 3.6451 -0.0766 0
M  V30 27 O -2.3781 4.0625 0.4416 0 CHG=-1
M  V30 28 C -4.2674 -2.148 1.0205 0
M  V30 29 H 2.566 0.7072 -2.7985 0
M  V30 30 H 2.7602 -0.3707 2.0344 0
M  V30 31 H 4.2085 1.4325 2.4625 0
M  V30 32 H 4.0741 2.8223 1.3313 0
M  V30 33 H 5.4023 1.6085 1.1255 0
M  V30 34 H -0.0205 2.5906 -2.2245 0
M  V30 35 H -1.9423 -2.996 -1.2945 0
M  V30 36 H -3.2314 1.7516 1.2686 0
M  V30 37 H -4.5726 -0.1961 1.8504 0
M  V30 38 H -3.7495 -3.9851 0.0315 0
M  V30 39 H -5.0629 -2.5962 1.6019 0
M  V30 END ATOM
M  V30 BEGIN BOND
M  V30 1 1 1 2
M  V30 2 2 2 3
M  V30 3 1 2 4
M  V30 4 1 3 5
M  V30 5 1 3 6
M  V30 6 2 4 7
M  V30 7 2 5 8
M  V30 8 1 7 9
M  V30 9 1 8 10
M  V30 10 2 9 11
M  V30 11 2 10 12
M  V30 12 2 10 13
M  V30 13 1 10 14
M  V30 14 1 11 15
M  V30 15 2 15 16
M  V30 16 1 15 17
M  V30 17 1 16 18
M  V30 18 1 16 19
M  V30 19 1 17 20
M  V30 20 2 17 21
M  V30 21 1 19 22
M  V30 22 2 19 23
M  V30 23 2 20 24
M  V30 24 1 21 25
M  V30 25 2 22 26
M  V30 26 1 22 27
M  V30 27 1 24 28
M  V30 28 1 7 8
M  V30 29 1 20 23
M  V30 30 2 25 28
M  V30 31 1 4 29
M  V30 32 1 5 30
M  V30 33 1 6 31
M  V30 34 1 6 32
M  V30 35 1 6 33
M  V30 36 1 18 34
M  V30 37 1 21 35
M  V30 38 1 23 36
M  V30 39 1 24 37
M  V30 40 1 25 38
M  V30 41 1 28 39
M  V30 END BOND
M  V30 END CTAB
M  END
>  <Structure No>
3012

>  <LogS>
-6.263770478

>  <MMFF94 Energy>
137.19

$$$$
Compound 3013
Actelion Java MolfileCreator 2.0

  0  0  0  0  0  0              0 V3000
M  V30 BEGIN CTAB
M  V30 COUNTS 42 45 0 0 0
M  V30 BEGIN ATOM
M  V30 1 S 2.752 0.0833 2.919 0
M  V30 2 O 2.666 -1.3643 3.3129 0
M  V30 3 O 1.8506 0.8757 3.8226 0
M  V30 4 O 4.3232 0.6357 3.1421 0 CHG=-1
M  V30 5 C 2.3099 0.2507 1.197 0
M  V30 6 C 1.1577 0.9854 0.8198 0
M  V30 7 C 3.0905 -0.3786 0.1836 0
M  V30 8 N 0.3399 1.6308 1.8108 0
M  V30 9 C 0.8378 1.1415 -0.5358 0
M  V30 10 C 2.7222 -0.2257 -1.181 0
M  V30 11 C 4.2277 -1.1644 0.4827 0
M  V30 12 N -0.9359 1.5614 1.8713 0
M  V30 13 C 1.6046 0.5384 -1.5239 0
M  V30 14 C 3.4804 -0.8373 -2.1923 0
M  V30 15 C 4.9698 -1.767 -0.5358 0
M  V30 16 C -1.7535 0.7189 1.0389 0
M  V30 17 C 4.5985 -1.6034 -1.8682 0
M  V30 18 C -1.5647 -0.6783 1.0509 0
M  V30 19 C -2.7536 1.2916 0.2266 0
M  V30 20 O -0.5633 -1.2016 1.8748 0
M  V30 21 C -2.3671 -1.5089 0.2307 0
M  V30 22 C -3.5291 0.4604 -0.6159 0
M  V30 23 C -2.9789 2.6828 0.2113 0
M  V30 24 C -2.2703 -2.9852 0.2523 0
M  V30 25 C -3.322 -0.9235 -0.6136 0
M  V30 26 C -4.5095 1.0263 -1.4474 0
M  V30 27 C -3.9581 3.2318 -0.6203 0
M  V30 28 O -2.0468 -3.6025 1.3266 0
M  V30 29 O -2.4982 -3.7134 -0.9094 0 CHG=-1
M  V30 30 C -4.721 2.4065 -1.4471 0
M  V30 31 H -0.0094 1.747 -0.831 0
M  V30 32 H 4.5588 -1.3314 1.4959 0
M  V30 33 H 1.323 0.6729 -2.5618 0
M  V30 34 H 3.2067 -0.7231 -3.2347 0
M  V30 35 H 5.8373 -2.3654 -0.2891 0
M  V30 36 H 5.1781 -2.0731 -2.6524 0
M  V30 37 H -0.2257 -2.152 1.814 0
M  V30 38 H -2.4008 3.3515 0.8366 0
M  V30 39 H -3.9357 -1.554 -1.2479 0
M  V30 40 H -5.1119 0.402 -2.0964 0
M  V30 41 H -4.1245 4.3015 -0.6251 0
M  V30 42 H -5.4778 2.8372 -2.0899 0
M  V30 END ATOM
M  V30 BEGIN BOND
M  V30 1 2 1 2
M  V30 2 2 1 3
M  V30 3 1 1 4
M  V30 4 1 1 5
M  V30 5 2 5 6
M  V30 6 1 5 7
M  V30 7 1 6 8
M  V30 8 1 6 9
M  V30 9 1 7 10
M  V30 10 2 7 11
M  V30 11 2 8 12
M  V30 12 2 9 13
M  V30 13 2 10 14
M  V30 14 1 11 15
M  V30 15 1 12 16
M  V30 16 1 14 17
M  V30 17 2 16 18
M  V30 18 1 16 19
M  V30 19 1 18 20
M  V30 20 1 18 21
M  V30 21 1 19 22
M  V30 22 2 19 23
M  V30 23 1 21 24
M  V30 24 2 21 25
M  V30 25 2 22 26
M  V30 26 1 23 27
M  V30 27 2 24 28
M  V30 28 1 24 29
M  V30 29 1 26 30
M  V30 30 1 10 13
M  V30 31 2 15 17
M  V30 32 1 22 25
M  V30 33 2 27 30
M  V30 34 1 9 31
M  V30 35 1 11 32
M  V30 36 1 13 33
M  V30 37 1 14 34
M  V30 38 1 15 35
M  V30 39 1 17 36
M  V30 40 1 20 37
M  V30 41 1 23 38
M  V30 42 1 25 39
M  V30 43 1 26 40
M  V30 44 1 27 41
M  V30 45 1 30 42
M  V30 END BOND
M  V30 END CTAB
M  END
>  <Structure No>
3013

>  <LogS>
-6.279395406

>  <MMFF94 Energy>
164.37

$$$$
Compound 3014
Actelion Java MolfileCreator 2.0

  0  0  0  0  0  0              0 V3000
M  V30 BEGIN CTAB
M  V30 COUNTS 56 59 0 0 0
M  V30 BEGIN ATOM
M  V30 1 Cl -5.7692 -0.8921 -2.5971 0
M  V30 2 C -5.7725 0.6073 -1.6719 0
M  V30 3 C -4.703 1.0148 -0.8334 0
M  V30 4 C -6.8962 1.4308 -1.8041 0
M  V30 5 N -3.5027 0.249 -0.6395 0
M  V30 6 C -4.7943 2.2414 -0.1598 0
M  V30 7 C -6.9763 2.6452 -1.1231 0
M  V30 8 N -3.3194 -0.913 -1.121 0
M  V30 9 C -5.928 3.062 -0.2879 0
M  V30 10 C -2.0998 -1.642 -0.915 0
M  V30 11 C -5.989 4.3581 0.4307 0
M  V30 12 C -0.8358 -0.9994 -0.9585 0
M  V30 13 C -2.1687 -3.0281 -0.6517 0
M  V30 14 O -4.9208 4.9249 0.7857 0
M  V30 15 N -7.238 4.983 0.7397 0
M  V30 16 O -0.713 0.3419 -1.3365 0
M  V30 17 C 0.3344 -1.72 -0.6407 0
M  V30 18 C -0.9841 -3.7486 -0.3641 0
M  V30 19 C -3.4013 -3.7142 -0.649 0
M  V30 20 C 1.6612 -1.0584 -0.6645 0
M  V30 21 C 0.2487 -3.0883 -0.3475 0
M  V30 22 C -1.0491 -5.1252 -0.0916 0
M  V30 23 C -3.4501 -5.0836 -0.3768 0
M  V30 24 O 1.9219 -0.2337 -1.5827 0
M  V30 25 N 2.6554 -1.3718 0.328 0
M  V30 26 C -2.2779 -5.7871 -0.0998 0
M  V30 27 C 3.9252 -0.7053 0.4306 0
M  V30 28 C 5.0577 -1.4397 0.8093 0
M  V30 29 C 4.0485 0.678 0.2121 0
M  V30 30 C 6.3002 -0.8121 0.9357 0
M  V30 31 C 5.2911 1.3062 0.3401 0
M  V30 32 C 6.4264 0.5672 0.7168 0
M  V30 33 N 7.721 1.183 0.8311 0
M  V30 34 C 7.9371 2.5301 1.28 0
M  V30 35 O 7.0129 3.1779 1.8416 0
M  V30 36 C 9.2966 3.1397 1.1725 0
M  V30 37 H -7.712 1.1341 -2.4527 0
M  V30 38 H -3.9735 2.5491 0.4777 0
M  V30 39 H -7.849 3.2655 -1.2774 0
M  V30 40 H -7.2511 5.9252 1.1898 0
M  V30 41 H -8.1469 4.4871 0.6095 0
M  V30 42 H -1.4554 0.8692 -1.7759 0
M  V30 43 H -4.331 -3.2005 -0.8587 0
M  V30 44 H 1.1504 -3.6547 -0.146 0
M  V30 45 H -0.1501 -5.6883 0.13 0
M  V30 46 H -4.401 -5.6006 -0.38 0
M  V30 47 H 2.4784 -2.1646 0.9845 0
M  V30 48 H -2.3218 -6.8477 0.1112 0
M  V30 49 H 4.9786 -2.504 0.9933 0
M  V30 50 H 3.1846 1.2789 -0.0391 0
M  V30 51 H 7.1652 -1.3998 1.2166 0
M  V30 52 H 5.3632 2.3642 0.1268 0
M  V30 53 H 8.5641 0.5902 0.6548 0
M  V30 54 H 9.9271 2.7868 2.015 0
M  V30 55 H 9.2268 4.2477 1.2089 0
M  V30 56 H 9.7694 2.8446 0.2127 0
M  V30 END ATOM
M  V30 BEGIN BOND
M  V30 1 1 1 2
M  V30 2 2 2 3
M  V30 3 1 2 4
M  V30 4 1 3 5
M  V30 5 1 3 6
M  V30 6 2 4 7
M  V30 7 2 5 8
M  V30 8 2 6 9
M  V30 9 1 8 10
M  V30 10 1 9 11
M  V30 11 2 10 12
M  V30 12 1 10 13
M  V30 13 2 11 14
M  V30 14 1 11 15
M  V30 15 1 12 16
M  V30 16 1 12 17
M  V30 17 1 13 18
M  V30 18 2 13 19
M  V30 19 1 17 20
M  V30 20 2 17 21
M  V30 21 2 18 22
M  V30 22 1 19 23
M  V30 23 2 20 24
M  V30 24 1 20 25
M  V30 25 1 22 26
M  V30 26 1 25 27
M  V30 27 2 27 28
M  V30 28 1 27 29
M  V30 29 1 28 30
M  V30 30 2 29 31
M  V30 31 2 30 32
M  V30 32 1 32 33
M  V30 33 1 33 34
M  V30 34 2 34 35
M  V30 35 1 34 36
M  V30 36 1 7 9
M  V30 37 1 18 21
M  V30 38 2 23 26
M  V30 39 1 31 32
M  V30 40 1 4 37
M  V30 41 1 6 38
M  V30 42 1 7 39
M  V30 43 1 15 40
M  V30 44 1 15 41
M  V30 45 1 16 42
M  V30 46 1 19 43
M  V30 47 1 21 44
M  V30 48 1 22 45
M  V30 49 1 23 46
M  V30 50 1 25 47
M  V30 51 1 26 48
M  V30 52 1 28 49
M  V30 53 1 29 50
M  V30 54 1 30 51
M  V30 55 1 31 52
M  V30 56 1 33 53
M  V30 57 1 36 54
M  V30 58 1 36 55
M  V30 59 1 36 56
M  V30 END BOND
M  V30 END CTAB
M  END
>  <Structure No>
3014

>  <LogS>
-7.304443807

>  <MMFF94 Energy>
48.163

$$$$
Compound 3015
Actelion Java MolfileCreator 2.0

  0  0  0  0  0  0              0 V3000
M  V30 BEGIN CTAB
M  V30 COUNTS 16 15 0 0 0
M  V30 BEGIN ATOM
M  V30 1 O 0.7029 1.7971 0.8591 0
M  V30 2 C -9.0E-4 1.0445 0.1301 0
M  V30 3 O 0.181 -0.3424 0.1717 0
M  V30 4 C -1.0168 1.6328 -0.7664 0
M  V30 5 C 1.1432 -0.9673 1.0148 0
M  V30 6 C -1.1956 3.064 -0.8007 0
M  V30 7 C -1.7771 0.8646 -1.5496 0
M  V30 8 C 1.0868 -2.4741 0.822 0
M  V30 9 N -1.3387 4.2122 -0.828 0
M  V30 10 H 0.9253 -0.7245 2.0777 0
M  V30 11 H 2.1611 -0.6019 0.7578 0
M  V30 12 H -2.5205 1.3032 -2.2051 0
M  V30 13 H -1.6747 -0.2131 -1.5539 0
M  V30 14 H 1.8362 -2.9646 1.4783 0
M  V30 15 H 0.0755 -2.8523 1.083 0
M  V30 16 H 1.3103 -2.7297 -0.2353 0
M  V30 END ATOM
M  V30 BEGIN BOND
M  V30 1 2 1 2
M  V30 2 1 2 3
M  V30 3 1 2 4
M  V30 4 1 3 5
M  V30 5 1 4 6
M  V30 6 2 4 7
M  V30 7 1 5 8
M  V30 8 3 6 9
M  V30 9 1 5 10
M  V30 10 1 5 11
M  V30 11 1 7 12
M  V30 12 1 7 13
M  V30 13 1 8 14
M  V30 14 1 8 15
M  V30 15 1 8 16
M  V30 END BOND
M  V30 END CTAB
M  END
>  <Structure No>
3015

>  <LogS>
-6.71713979

>  <MMFF94 Energy>
0.15272

$$$$
Compound 3016
Actelion Java MolfileCreator 2.0

  0  0  0  0  0  0              0 V3000
M  V30 BEGIN CTAB
M  V30 COUNTS 56 55 0 0 0
M  V30 BEGIN ATOM
M  V30 1 O 8.568 0.7052 0.3917 0
M  V30 2 C 8.2512 -0.3056 -0.2897 0
M  V30 3 O 8.3006 -1.5681 0.2871 0 CHG=-1
M  V30 4 C 7.8052 -0.147 -1.7091 0
M  V30 5 C 6.4202 0.5129 -1.8206 0
M  V30 6 C 5.2603 -0.4009 -1.3746 0
M  V30 7 C 4.8995 -0.2155 0.1093 0
M  V30 8 C 3.8465 -1.2246 0.6033 0
M  V30 9 C 2.4855 -1.1607 -0.1144 0
M  V30 10 C 1.7677 0.186 0.0787 0
M  V30 11 C 0.4034 0.2462 -0.6327 0
M  V30 12 C -0.663 -0.7268 -0.0937 0
M  V30 13 C -1.0141 -0.5703 1.4017 0
M  V30 14 C -1.6045 0.7983 1.83 0 CFG=1
M  V30 15 O -0.6075 1.7869 1.8201 0
M  V30 16 C -2.7922 1.2796 0.9729 0
M  V30 17 C -3.9959 0.3259 1.0258 0
M  V30 18 C -5.1894 0.9074 0.2585 0
M  V30 19 C -6.3825 -0.0551 0.2823 0
M  V30 20 C -7.5748 0.5283 -0.4849 0
M  V30 21 C -8.7621 -0.4302 -0.4705 0
M  V30 22 H 8.547 0.4889 -2.2382 0
M  V30 23 H 7.799 -1.1357 -2.217 0
M  V30 24 H 6.4038 1.4778 -1.2661 0
M  V30 25 H 6.2633 0.7632 -2.8925 0
M  V30 26 H 5.5025 -1.4661 -1.5818 0
M  V30 27 H 4.3715 -0.1354 -1.986 0
M  V30 28 H 4.5533 0.8234 0.2897 0
M  V30 29 H 5.8051 -0.3585 0.7315 0
M  V30 30 H 4.2573 -2.2516 0.4887 0
M  V30 31 H 3.6849 -1.0621 1.6914 0
M  V30 32 H 2.6074 -1.3799 -1.196 0
M  V30 33 H 1.8592 -1.9705 0.3141 0
M  V30 34 H 1.6562 0.4064 1.1602 0
M  V30 35 H 2.3903 0.9946 -0.3575 0
M  V30 36 H 0.5573 0.0296 -1.7124 0
M  V30 37 H 0.0148 1.2844 -0.5805 0
M  V30 38 H -0.3274 -1.7699 -0.268 0
M  V30 39 H -1.5829 -0.6137 -0.7039 0
M  V30 40 H -1.7476 -1.3634 1.6614 0
M  V30 41 H -0.1184 -0.7919 2.019 0
M  V30 42 H -1.9809 0.6862 2.8747 0
M  V30 43 H -0.037 1.6323 2.6181 0
M  V30 44 H -2.4733 1.434 -0.0794 0
M  V30 45 H -3.1116 2.2718 1.3617 0
M  V30 46 H -3.7212 -0.6503 0.5737 0
M  V30 47 H -4.288 0.1565 2.0853 0
M  V30 48 H -4.891 1.0963 -0.7963 0
M  V30 49 H -5.4879 1.8746 0.7201 0
M  V30 50 H -6.6811 -0.2456 1.337 0
M  V30 51 H -6.0844 -1.0217 -0.1808 0
M  V30 52 H -7.884 1.4914 -0.0218 0
M  V30 53 H -7.2831 0.723 -1.5403 0
M  V30 54 H -8.4878 -1.3922 -0.9545 0
M  V30 55 H -9.0887 -0.6239 0.5738 0
M  V30 56 H -9.6096 0.0195 -1.03 0
M  V30 END ATOM
M  V30 BEGIN BOND
M  V30 1 2 1 2
M  V30 2 1 2 3
M  V30 3 1 2 4
M  V30 4 1 4 5
M  V30 5 1 5 6
M  V30 6 1 6 7
M  V30 7 1 7 8
M  V30 8 1 8 9
M  V30 9 1 9 10
M  V30 10 1 10 11
M  V30 11 1 11 12
M  V30 12 1 12 13
M  V30 13 1 13 14
M  V30 14 1 14 15
M  V30 15 1 14 16
M  V30 16 1 16 17
M  V30 17 1 17 18
M  V30 18 1 18 19
M  V30 19 1 19 20
M  V30 20 1 20 21
M  V30 21 1 4 22
M  V30 22 1 4 23
M  V30 23 1 5 24
M  V30 24 1 5 25
M  V30 25 1 6 26
M  V30 26 1 6 27
M  V30 27 1 7 28
M  V30 28 1 7 29
M  V30 29 1 8 30
M  V30 30 1 8 31
M  V30 31 1 9 32
M  V30 32 1 9 33
M  V30 33 1 10 34
M  V30 34 1 10 35
M  V30 35 1 11 36
M  V30 36 1 11 37
M  V30 37 1 12 38
M  V30 38 1 12 39
M  V30 39 1 13 40
M  V30 40 1 13 41
M  V30 41 1 14 42
M  V30 42 1 15 43
M  V30 43 1 16 44
M  V30 44 1 16 45
M  V30 45 1 17 46
M  V30 46 1 17 47
M  V30 47 1 18 48
M  V30 48 1 18 49
M  V30 49 1 19 50
M  V30 50 1 19 51
M  V30 51 1 20 52
M  V30 52 1 20 53
M  V30 53 1 21 54
M  V30 54 1 21 55
M  V30 55 1 21 56
M  V30 END BOND
M  V30 BEGIN COLLECTION
M  V30 MDLV30/STEABS ATOMS=(1 14)
M  V30 END COLLECTION
M  V30 END CTAB
M  END
>  <Structure No>
3016

>  <LogS>
-5.454848129

>  <MMFF94 Energy>
7.5426

$$$$
Compound 3017
Actelion Java MolfileCreator 2.0

  0  0  0  0  0  0              0 V3000
M  V30 BEGIN CTAB
M  V30 COUNTS 50 55 0 0 0
M  V30 BEGIN ATOM
M  V30 1 O 4.1893 0.0 -2.7092 0
M  V30 2 C 3.5624 -0.0559 -1.6166 0
M  V30 3 C 2.5689 -1.1401 -1.3675 0
M  V30 4 C 3.7576 1.021 -0.6249 0
M  V30 5 C 1.5952 -0.9589 -0.3462 0
M  V30 6 C 2.535 -2.3168 -2.1651 0
M  V30 7 C 2.8623 1.1491 0.4522 0
M  V30 8 C 4.8192 1.9354 -0.7589 0
M  V30 9 C 1.7355 0.2 0.592 0
M  V30 10 C 0.5259 -1.8939 -0.2368 0
M  V30 11 N 3.5906 -2.6541 -3.0758 0
M  V30 12 C 1.4766 -3.2179 -2.0265 0
M  V30 13 C 3.0446 2.19 1.3834 0
M  V30 14 C 4.9901 2.9615 0.1724 0
M  V30 15 O 0.9145 0.3706 1.5335 0
M  V30 16 C -0.5758 -1.7491 0.742 0
M  V30 17 C 0.4798 -3.0037 -1.0854 0
M  V30 18 C 4.1041 3.0885 1.242 0
M  V30 19 C -1.672 -0.8621 0.5473 0
M  V30 20 C -0.5041 -2.5246 1.9027 0
M  V30 21 C -1.8043 -0.0254 -0.6865 0
M  V30 22 C -2.6666 -0.7564 1.5596 0
M  V30 23 C -1.458 -2.3936 2.9023 0
M  V30 24 O -1.0533 -0.2158 -1.6811 0
M  V30 25 C -2.8354 1.0319 -0.763 0
M  V30 26 C -3.8637 0.0958 1.3039 0
M  V30 27 C -2.518 -1.4933 2.7664 0
M  V30 28 C -3.8455 1.091 0.2133 0
M  V30 29 C -2.8324 1.9668 -1.8149 0
M  V30 30 O -4.925 -0.0698 1.9642 0
M  V30 31 N -3.388 -1.3037 3.8911 0
M  V30 32 C -4.8421 2.0801 0.1242 0
M  V30 33 C -3.8225 2.9492 -1.8894 0
M  V30 34 C -4.8262 3.0054 -0.9217 0
M  V30 35 H 5.5194 1.8552 -1.581 0
M  V30 36 H 4.57 -2.3308 -2.9208 0
M  V30 37 H 3.4499 -3.4009 -3.7924 0
M  V30 38 H 1.4353 -4.1087 -2.641 0
M  V30 39 H 2.3693 2.3105 2.2211 0
M  V30 40 H 5.8101 3.6596 0.0641 0
M  V30 41 H -0.3296 -3.7198 -1.0056 0
M  V30 42 H 4.2377 3.8853 1.9625 0
M  V30 43 H 0.3213 -3.211 2.0514 0
M  V30 44 H -1.3477 -2.9718 3.8115 0
M  V30 45 H -2.064 1.9409 -2.5774 0
M  V30 46 H -3.3911 -1.9921 4.6768 0
M  V30 47 H -3.8715 -0.3955 4.062 0
M  V30 48 H -5.6295 2.141 0.8653 0
M  V30 49 H -3.8128 3.6668 -2.6997 0
M  V30 50 H -5.5936 3.7663 -0.9825 0
M  V30 END ATOM
M  V30 BEGIN BOND
M  V30 1 2 1 2
M  V30 2 1 2 3
M  V30 3 1 2 4
M  V30 4 2 3 5
M  V30 5 1 3 6
M  V30 6 2 4 7
M  V30 7 1 4 8
M  V30 8 1 5 9
M  V30 9 1 5 10
M  V30 10 1 6 11
M  V30 11 2 6 12
M  V30 12 1 7 13
M  V30 13 2 8 14
M  V30 14 2 9 15
M  V30 15 1 10 16
M  V30 16 2 10 17
M  V30 17 2 13 18
M  V30 18 2 16 19
M  V30 19 1 16 20
M  V30 20 1 19 21
M  V30 21 1 19 22
M  V30 22 2 20 23
M  V30 23 2 21 24
M  V30 24 1 21 25
M  V30 25 1 22 26
M  V30 26 2 22 27
M  V30 27 2 25 28
M  V30 28 1 25 29
M  V30 29 2 26 30
M  V30 30 1 27 31
M  V30 31 1 28 32
M  V30 32 2 29 33
M  V30 33 2 32 34
M  V30 34 1 7 9
M  V30 35 1 12 17
M  V30 36 1 14 18
M  V30 37 1 23 27
M  V30 38 1 26 28
M  V30 39 1 33 34
M  V30 40 1 8 35
M  V30 41 1 11 36
M  V30 42 1 11 37
M  V30 43 1 12 38
M  V30 44 1 13 39
M  V30 45 1 14 40
M  V30 46 1 17 41
M  V30 47 1 18 42
M  V30 48 1 20 43
M  V30 49 1 23 44
M  V30 50 1 29 45
M  V30 51 1 31 46
M  V30 52 1 31 47
M  V30 53 1 32 48
M  V30 54 1 33 49
M  V30 55 1 34 50
M  V30 END BOND
M  V30 END CTAB
M  END
>  <Structure No>
3017

>  <LogS>
-6.293710563

>  <MMFF94 Energy>
149.6

$$$$
Compound 3018
Actelion Java MolfileCreator 2.0

  0  0  0  0  0  0              0 V3000
M  V30 BEGIN CTAB
M  V30 COUNTS 46 45 0 0 0
M  V30 BEGIN ATOM
M  V30 1 O -1.4866 -0.7039 -2.1131 0
M  V30 2 C -1.3384 -0.3507 -0.911 0
M  V30 3 O -2.4512 -0.1042 -0.1133 0
M  V30 4 O -0.0627 -0.1984 -0.3644 0
M  V30 5 O -3.6958 -0.2348 -0.6068 0
M  V30 6 C 1.1285 -0.4141 -1.1156 0
M  V30 7 C -4.6119 0.1017 0.4194 0
M  V30 8 C 2.3721 -0.1238 -0.2454 0 CFG=1
M  V30 9 C -6.0459 -0.0364 -0.156 0
M  V30 10 C -4.4752 -0.8848 1.601 0
M  V30 11 C -4.376 1.5471 0.9208 0
M  V30 12 C 3.6123 -0.8073 -0.8768 0
M  V30 13 C 2.6077 1.4008 -0.0725 0
M  V30 14 C -6.305 0.8325 -1.3907 0
M  V30 15 C 4.8353 -0.8318 0.0563 0
M  V30 16 C 1.4558 2.1265 0.6248 0
M  V30 17 C 5.9518 -1.7087 -0.5239 0
M  V30 18 C 7.1761 -1.7186 0.387 0
M  V30 19 H 1.1318 -1.4732 -1.4547 0
M  V30 20 H 1.1325 0.2372 -2.0176 0
M  V30 21 H 2.2026 -0.5783 0.7567 0
M  V30 22 H -6.2209 -1.0962 -0.4458 0
M  V30 23 H -6.7981 0.2214 0.6221 0
M  V30 24 H -5.2531 -0.6856 2.3697 0
M  V30 25 H -4.5879 -1.9312 1.2444 0
M  V30 26 H -3.4819 -0.7914 2.0895 0
M  V30 27 H -3.4301 1.6181 1.4993 0
M  V30 28 H -5.2059 1.874 1.5837 0
M  V30 29 H -4.2987 2.2507 0.0657 0
M  V30 30 H 3.3557 -1.8617 -1.1222 0
M  V30 31 H 3.8799 -0.2978 -1.829 0
M  V30 32 H 3.5096 1.5687 0.5504 0
M  V30 33 H 2.7891 1.8745 -1.062 0
M  V30 34 H -6.2921 1.9097 -1.1251 0
M  V30 35 H -7.3087 0.595 -1.8021 0
M  V30 36 H -5.5494 0.6347 -2.1797 0
M  V30 37 H 5.2309 0.197 0.1881 0
M  V30 38 H 4.5373 -1.2309 1.0507 0
M  V30 39 H 1.7793 3.1519 0.903 0
M  V30 40 H 1.157 1.5885 1.5496 0
M  V30 41 H 0.5837 2.222 -0.0546 0
M  V30 42 H 6.2497 -1.3228 -1.5233 0
M  V30 43 H 5.5868 -2.752 -0.6438 0
M  V30 44 H 7.5806 -0.6902 0.5014 0
M  V30 45 H 7.9643 -2.3625 -0.0567 0
M  V30 46 H 6.9095 -2.1216 1.3872 0
M  V30 END ATOM
M  V30 BEGIN BOND
M  V30 1 2 1 2
M  V30 2 1 2 3
M  V30 3 1 2 4
M  V30 4 1 3 5
M  V30 5 1 4 6
M  V30 6 1 5 7
M  V30 7 1 6 8
M  V30 8 1 7 9
M  V30 9 1 7 10
M  V30 10 1 7 11
M  V30 11 1 8 12
M  V30 12 1 8 13
M  V30 13 1 9 14
M  V30 14 1 12 15
M  V30 15 1 13 16
M  V30 16 1 15 17
M  V30 17 1 17 18
M  V30 18 1 6 19
M  V30 19 1 6 20
M  V30 20 1 8 21
M  V30 21 1 9 22
M  V30 22 1 9 23
M  V30 23 1 10 24
M  V30 24 1 10 25
M  V30 25 1 10 26
M  V30 26 1 11 27
M  V30 27 1 11 28
M  V30 28 1 11 29
M  V30 29 1 12 30
M  V30 30 1 12 31
M  V30 31 1 13 32
M  V30 32 1 13 33
M  V30 33 1 14 34
M  V30 34 1 14 35
M  V30 35 1 14 36
M  V30 36 1 15 37
M  V30 37 1 15 38
M  V30 38 1 16 39
M  V30 39 1 16 40
M  V30 40 1 16 41
M  V30 41 1 17 42
M  V30 42 1 17 43
M  V30 43 1 18 44
M  V30 44 1 18 45
M  V30 45 1 18 46
M  V30 END BOND
M  V30 BEGIN COLLECTION
M  V30 MDLV30/STEABS ATOMS=(1 8)
M  V30 END COLLECTION
M  V30 END CTAB
M  END
>  <Structure No>
3018

>  <LogS>
-6.088238681

>  <MMFF94 Energy>
24.362

$$$$
Compound 3019
Actelion Java MolfileCreator 2.0

  0  0  0  0  0  0              0 V3000
M  V30 BEGIN CTAB
M  V30 COUNTS 30 29 0 0 0
M  V30 BEGIN ATOM
M  V30 1 F 3.3756 0.0864 1.2973 0
M  V30 2 C 3.2596 -1.1408 0.6698 0
M  V30 3 F 2.6756 -2.0395 1.5451 0
M  V30 4 F 4.534 -1.6051 0.3928 0
M  V30 5 C 2.4451 -1.0437 -0.6474 0
M  V30 6 F 3.3405 -0.7684 -1.6703 0
M  V30 7 F 1.9075 -2.283 -0.921 0
M  V30 8 C 1.3525 0.0769 -0.6996 0
M  V30 9 F 2.0394 1.2658 -0.5034 0
M  V30 10 F 0.8629 0.133 -1.9934 0
M  V30 11 C 0.1333 -0.0029 0.3239 0 CFG=1
M  V30 12 F 0.5454 -0.7684 1.3952 0
M  V30 13 O -0.143 1.285 0.8879 0
M  V30 14 C -1.22 -0.6765 -0.1898 0
M  V30 15 C -0.4042 2.3269 -0.046 0
M  V30 16 F -1.7776 0.0997 -1.1918 0
M  V30 17 C -2.2713 -0.7614 0.9682 0
M  V30 18 C -1.0375 -2.1041 -0.7882 0
M  V30 19 C -1.713 3.028 0.2926 0
M  V30 20 F -3.5192 -1.0827 0.4617 0
M  V30 21 F -1.912 -1.7291 1.8908 0
M  V30 22 F -2.4048 0.4364 1.6415 0
M  V30 23 F -2.2667 -2.686 -1.0461 0
M  V30 24 F -0.354 -2.9282 0.0883 0
M  V30 25 F -0.3692 -2.0569 -1.9955 0
M  V30 26 H -0.4336 2.0103 -1.1079 0
M  V30 27 H 0.4068 3.0805 0.0435 0
M  V30 28 H -1.8089 3.9527 -0.3149 0
M  V30 29 H -1.7341 3.3031 1.3684 0
M  V30 30 H -2.5753 2.3703 0.0606 0
M  V30 END ATOM
M  V30 BEGIN BOND
M  V30 1 1 1 2
M  V30 2 1 2 3
M  V30 3 1 2 4
M  V30 4 1 2 5
M  V30 5 1 5 6
M  V30 6 1 5 7
M  V30 7 1 5 8
M  V30 8 1 8 9
M  V30 9 1 8 10
M  V30 10 1 8 11
M  V30 11 1 11 12
M  V30 12 1 11 13
M  V30 13 1 11 14
M  V30 14 1 13 15
M  V30 15 1 14 16
M  V30 16 1 14 17
M  V30 17 1 14 18
M  V30 18 1 15 19
M  V30 19 1 17 20
M  V30 20 1 17 21
M  V30 21 1 17 22
M  V30 22 1 18 23
M  V30 23 1 18 24
M  V30 24 1 18 25
M  V30 25 1 15 26
M  V30 26 1 15 27
M  V30 27 1 19 28
M  V30 28 1 19 29
M  V30 29 1 19 30
M  V30 END BOND
M  V30 BEGIN COLLECTION
M  V30 MDLV30/STEABS ATOMS=(1 11)
M  V30 END COLLECTION
M  V30 END CTAB
M  END
>  <Structure No>
3019

>  <LogS>
-7.288734017

>  <MMFF94 Energy>
-9.5108

$$$$
Compound 3020
Actelion Java MolfileCreator 2.0

  0  0  0  0  0  0              0 V3000
M  V30 BEGIN CTAB
M  V30 COUNTS 37 39 0 0 0
M  V30 BEGIN ATOM
M  V30 1 Cl 6.2976 -0.7541 0.9218 0
M  V30 2 C 4.6356 -0.2379 0.6531 0
M  V30 3 C 3.616 -1.1636 0.3739 0
M  V30 4 C 4.3402 1.1249 0.7262 0
M  V30 5 C 2.3081 -0.702 0.1632 0
M  V30 6 C 3.9145 -2.6357 0.2939 0
M  V30 7 C 3.0336 1.5934 0.522 0
M  V30 8 C 2.0003 0.6706 0.2261 0
M  V30 9 S 2.7212 3.33 0.667 0
M  V30 10 N 0.6488 1.1126 -0.0076 0
M  V30 11 O 3.9565 4.0501 1.1304 0
M  V30 12 O 1.6253 3.5642 1.6684 0
M  V30 13 O 2.2667 3.9467 -0.828 0 CHG=-1
M  V30 14 N -0.3904 0.1814 -0.1837 0
M  V30 15 C -1.6679 0.4306 -0.0798 0
M  V30 16 C -2.2205 1.7257 0.4044 0
M  V30 17 C -2.6409 -0.6344 -0.4376 0
M  V30 18 O -1.4947 2.5964 0.9522 0
M  V30 19 C -3.6689 1.9701 0.3117 0
M  V30 20 C -4.024 -0.3399 -0.4473 0
M  V30 21 C -2.2123 -1.9299 -0.7864 0
M  V30 22 C -4.5081 1.0111 -0.0867 0
M  V30 23 C -4.947 -1.3354 -0.802 0
M  V30 24 C -3.1426 -2.9121 -1.135 0
M  V30 25 C -4.5063 -2.6156 -1.1433 0
M  V30 26 H 5.1395 1.82 0.9479 0
M  V30 27 H 1.5287 -1.4194 -0.0594 0
M  V30 28 H 4.3318 -2.9867 1.261 0
M  V30 29 H 4.6524 -2.8247 -0.5136 0
M  V30 30 H 3.0016 -3.2296 0.0755 0
M  V30 31 H 0.4722 2.1162 -0.2192 0
M  V30 32 H -4.0642 2.938 0.5948 0
M  V30 33 H -1.1605 -2.1863 -0.7891 0
M  V30 34 H -5.5689 1.2281 -0.1272 0
M  V30 35 H -6.0088 -1.1212 -0.8132 0
M  V30 36 H -2.805 -3.9055 -1.4006 0
M  V30 37 H -5.2234 -3.3793 -1.415 0
M  V30 END ATOM
M  V30 BEGIN BOND
M  V30 1 1 1 2
M  V30 2 2 2 3
M  V30 3 1 2 4
M  V30 4 1 3 5
M  V30 5 1 3 6
M  V30 6 2 4 7
M  V30 7 2 5 8
M  V30 8 1 7 9
M  V30 9 1 8 10
M  V30 10 2 9 11
M  V30 11 2 9 12
M  V30 12 1 9 13
M  V30 13 1 10 14
M  V30 14 2 14 15
M  V30 15 1 15 16
M  V30 16 1 15 17
M  V30 17 2 16 18
M  V30 18 1 16 19
M  V30 19 2 17 20
M  V30 20 1 17 21
M  V30 21 2 19 22
M  V30 22 1 20 23
M  V30 23 2 21 24
M  V30 24 2 23 25
M  V30 25 1 7 8
M  V30 26 1 20 22
M  V30 27 1 24 25
M  V30 28 1 4 26
M  V30 29 1 5 27
M  V30 30 1 6 28
M  V30 31 1 6 29
M  V30 32 1 6 30
M  V30 33 1 10 31
M  V30 34 1 19 32
M  V30 35 1 21 33
M  V30 36 1 22 34
M  V30 37 1 23 35
M  V30 38 1 24 36
M  V30 39 1 25 37
M  V30 END BOND
M  V30 END CTAB
M  END
>  <Structure No>
3020

>  <LogS>
-7.622859284

>  <MMFF94 Energy>
131.87

$$$$
Compound 3021
Actelion Java MolfileCreator 2.0

  0  0  0  0  0  0              0 V3000
M  V30 BEGIN CTAB
M  V30 COUNTS 100 100 0 0 0
M  V30 BEGIN ATOM
M  V30 1 O -2.5179 -3.621 0.7863 0
M  V30 2 C -3.5077 -2.8689 0.5643 0
M  V30 3 O -3.4539 -1.5103 0.8887 0
M  V30 4 C -4.7318 -3.4299 -0.0946 0
M  V30 5 C -2.2687 -0.8513 1.3282 0
M  V30 6 C -5.9875 -3.2789 0.7776 0
M  V30 7 C -1.4996 -0.3158 0.1181 0
M  V30 8 C -6.4683 -1.8469 0.8404 0
M  V30 9 C -0.1737 0.3584 0.5151 0
M  V30 10 C -7.0214 -1.2514 -0.2901 0
M  V30 11 C -6.3271 -1.1051 2.0121 0
M  V30 12 C 0.9964 -0.6269 0.693 0
M  V30 13 C -7.4725 0.0855 -0.2788 0
M  V30 14 C -6.7197 0.2507 2.09 0
M  V30 15 C 1.4858 -1.207 -0.6465 0
M  V30 16 C -7.391 0.8048 0.9503 0
M  V30 17 C -8.0918 0.728 -1.5552 0
M  V30 18 C -6.4087 1.07 3.3819 0
M  V30 19 C 2.8581 -1.885 -0.4944 0
M  V30 20 O -8.0134 2.0502 1.012 0
M  V30 21 C -9.6033 0.97 -1.3457 0
M  V30 22 C -7.9466 -0.1676 -2.815 0
M  V30 23 C -7.381 2.0653 -1.8872 0
M  V30 24 C -5.2662 0.4307 4.2237 0
M  V30 25 C -7.6566 1.1243 4.2907 0
M  V30 26 C -5.9166 2.504 3.0361 0
M  V30 27 C 3.3521 -2.5194 -1.8102 0
M  V30 28 C 3.849 -1.4939 -2.8562 0
M  V30 29 C 5.3753 -1.2775 -2.8601 0
M  V30 30 C 5.8885 -0.4228 -1.684 0
M  V30 31 C 6.5202 -1.279 -0.5714 0
M  V30 32 C 6.7332 -0.4999 0.7399 0
M  V30 33 C 7.5913 0.7709 0.6104 0
M  V30 34 C 9.0217 0.4882 0.1303 0
M  V30 35 C 9.8724 1.7648 0.171 0
M  V30 36 C 11.2947 1.5025 -0.3451 0
M  V30 37 C 12.1354 2.7871 -0.4289 0
M  V30 38 C 12.5488 3.3123 0.9454 0
M  V30 39 H -4.875 -2.9318 -1.0779 0
M  V30 40 H -4.574 -4.5114 -0.2984 0
M  V30 41 H -2.5591 0.0043 1.9728 0
M  V30 42 H -1.6396 -1.5351 1.9365 0
M  V30 43 H -5.7879 -3.6805 1.796 0
M  V30 44 H -6.7992 -3.9048 0.347 0
M  V30 45 H -1.3325 -1.1318 -0.6144 0
M  V30 46 H -2.1412 0.4416 -0.3812 0
M  V30 47 H 0.098 1.1069 -0.2596 0
M  V30 48 H -0.3121 0.9292 1.4603 0
M  V30 49 H -7.0963 -1.868 -1.1719 0
M  V30 50 H -5.8853 -1.6099 2.8561 0
M  V30 51 H 0.7089 -1.4516 1.3795 0
M  V30 52 H 1.8302 -0.0705 1.1756 0
M  V30 53 H 0.7534 -1.9568 -1.0134 0
M  V30 54 H 1.554 -0.3903 -1.3949 0
M  V30 55 H 3.599 -1.1522 -0.1164 0
M  V30 56 H 2.771 -2.69 0.2654 0
M  V30 57 H -8.4648 2.4126 1.8355 0
M  V30 58 H -10.0642 1.3684 -2.2744 0
M  V30 59 H -10.1095 0.0163 -1.0844 0
M  V30 60 H -9.81 1.7016 -0.5428 0
M  V30 61 H -6.8796 -0.4132 -3.0061 0
M  V30 62 H -8.3411 0.345 -3.7206 0
M  V30 63 H -8.5296 -1.107 -2.7074 0
M  V30 64 H -6.2793 1.9258 -1.9003 0
M  V30 65 H -7.6266 2.8713 -1.1696 0
M  V30 66 H -7.6883 2.444 -2.8838 0
M  V30 67 H -4.9645 1.0895 5.0655 0
M  V30 68 H -5.5819 -0.5224 4.6987 0
M  V30 69 H -4.3698 0.2492 3.5943 0
M  V30 70 H -8.5364 1.562 3.7874 0
M  V30 71 H -7.451 1.731 5.2001 0
M  V30 72 H -7.9422 0.101 4.6156 0
M  V30 73 H -5.4011 2.981 3.8956 0
M  V30 74 H -6.7358 3.2008 2.7887 0
M  V30 75 H -5.1969 2.4711 2.1907 0
M  V30 76 H 2.517 -3.1081 -2.2533 0
M  V30 77 H 4.1575 -3.2535 -1.5822 0
M  V30 78 H 3.3345 -0.5166 -2.7595 0
M  V30 79 H 3.5776 -1.8872 -3.8601 0
M  V30 80 H 5.6236 -0.7361 -3.8008 0
M  V30 81 H 5.9062 -2.2537 -2.9163 0
M  V30 82 H 5.0747 0.2161 -1.2765 0
M  V30 83 H 6.6702 0.2651 -2.0742 0
M  V30 84 H 7.4846 -1.7018 -0.9277 0
M  V30 85 H 5.8578 -2.1403 -0.3398 0
M  V30 86 H 5.7389 -0.2116 1.1502 0
M  V30 87 H 7.2058 -1.1797 1.4815 0
M  V30 88 H 7.1017 1.4979 -0.0722 0
M  V30 89 H 7.6364 1.2475 1.6138 0
M  V30 90 H 8.9951 0.1077 -0.9132 0
M  V30 91 H 9.4864 -0.2859 0.7795 0
M  V30 92 H 9.9177 2.134 1.2183 0
M  V30 93 H 9.392 2.5451 -0.4602 0
M  V30 94 H 11.8055 0.7584 0.3049 0
M  V30 95 H 11.2315 1.0681 -1.3662 0
M  V30 96 H 13.0592 2.5654 -1.0049 0
M  V30 97 H 11.5796 3.5781 -0.9786 0
M  V30 98 H 13.2222 4.186 0.8201 0
M  V30 99 H 11.6655 3.6426 1.5272 0
M  V30 100 H 13.0911 2.5298 1.5151 0
M  V30 END ATOM
M  V30 BEGIN BOND
M  V30 1 2 1 2
M  V30 2 1 2 3
M  V30 3 1 2 4
M  V30 4 1 3 5
M  V30 5 1 4 6
M  V30 6 1 5 7
M  V30 7 1 6 8
M  V30 8 1 7 9
M  V30 9 2 8 10
M  V30 10 1 8 11
M  V30 11 1 9 12
M  V30 12 1 10 13
M  V30 13 2 11 14
M  V30 14 1 12 15
M  V30 15 2 13 16
M  V30 16 1 13 17
M  V30 17 1 14 18
M  V30 18 1 15 19
M  V30 19 1 16 20
M  V30 20 1 17 21
M  V30 21 1 17 22
M  V30 22 1 17 23
M  V30 23 1 18 24
M  V30 24 1 18 25
M  V30 25 1 18 26
M  V30 26 1 19 27
M  V30 27 1 27 28
M  V30 28 1 28 29
M  V30 29 1 29 30
M  V30 30 1 30 31
M  V30 31 1 31 32
M  V30 32 1 32 33
M  V30 33 1 33 34
M  V30 34 1 34 35
M  V30 35 1 35 36
M  V30 36 1 36 37
M  V30 37 1 37 38
M  V30 38 1 14 16
M  V30 39 1 4 39
M  V30 40 1 4 40
M  V30 41 1 5 41
M  V30 42 1 5 42
M  V30 43 1 6 43
M  V30 44 1 6 44
M  V30 45 1 7 45
M  V30 46 1 7 46
M  V30 47 1 9 47
M  V30 48 1 9 48
M  V30 49 1 10 49
M  V30 50 1 11 50
M  V30 51 1 12 51
M  V30 52 1 12 52
M  V30 53 1 15 53
M  V30 54 1 15 54
M  V30 55 1 19 55
M  V30 56 1 19 56
M  V30 57 1 20 57
M  V30 58 1 21 58
M  V30 59 1 21 59
M  V30 60 1 21 60
M  V30 61 1 22 61
M  V30 62 1 22 62
M  V30 63 1 22 63
M  V30 64 1 23 64
M  V30 65 1 23 65
M  V30 66 1 23 66
M  V30 67 1 24 67
M  V30 68 1 24 68
M  V30 69 1 24 69
M  V30 70 1 25 70
M  V30 71 1 25 71
M  V30 72 1 25 72
M  V30 73 1 26 73
M  V30 74 1 26 74
M  V30 75 1 26 75
M  V30 76 1 27 76
M  V30 77 1 27 77
M  V30 78 1 28 78
M  V30 79 1 28 79
M  V30 80 1 29 80
M  V30 81 1 29 81
M  V30 82 1 30 82
M  V30 83 1 30 83
M  V30 84 1 31 84
M  V30 85 1 31 85
M  V30 86 1 32 86
M  V30 87 1 32 87
M  V30 88 1 33 88
M  V30 89 1 33 89
M  V30 90 1 34 90
M  V30 91 1 34 91
M  V30 92 1 35 92
M  V30 93 1 35 93
M  V30 94 1 36 94
M  V30 95 1 36 95
M  V30 96 1 37 96
M  V30 97 1 37 97
M  V30 98 1 38 98
M  V30 99 1 38 99
M  V30 100 1 38 100
M  V30 END BOND
M  V30 END CTAB
M  END
>  <Structure No>
3021

>  <LogS>
-8.270149868

>  <MMFF94 Energy>
39.923

$$$$
Compound 3022
Actelion Java MolfileCreator 2.0

  0  0  0  0  0  0              0 V3000
M  V30 BEGIN CTAB
M  V30 COUNTS 80 83 0 0 0
M  V30 BEGIN ATOM
M  V30 1 Cl 4.6923 -0.6575 -1.8091 0
M  V30 2 C 3.3758 -0.4616 -0.6597 0
M  V30 3 C 3.5767 -0.6951 0.7081 0
M  V30 4 C 2.1104 -0.1 -1.13 0
M  V30 5 N 4.8751 -1.0744 1.1747 0 CHG=-1
M  V30 6 C 2.5007 -0.5505 1.599 0
M  V30 7 C 1.0316 0.0506 -0.2432 0
M  V30 8 N 5.0883 -1.6142 2.4529 0
M  V30 9 C 1.2354 -0.1751 1.1331 0
M  V30 10 C -0.3014 0.4098 -0.7825 0
M  V30 11 C 6.2759 -1.9195 2.886 0
M  V30 12 Cl -0.0608 0.046 2.3053 0
M  V30 13 C -0.5088 1.6181 -1.477 0
M  V30 14 C -1.3651 -0.4947 -0.6481 0
M  V30 15 C 7.4716 -1.6241 2.0709 0
M  V30 16 C 6.4103 -2.5855 4.2015 0
M  V30 17 Cl 0.7688 2.8212 -1.6439 0
M  V30 18 C -1.7616 1.8953 -2.0323 0
M  V30 19 C -2.6263 -0.2092 -1.1885 0
M  V30 20 O 8.2165 -2.5705 1.7014 0
M  V30 21 N 7.7543 -0.2693 1.6816 0
M  V30 22 O 5.3847 -2.7656 4.9134 0
M  V30 23 C 7.7348 -3.0664 4.7098 0
M  V30 24 C -2.8278 1.0011 -1.8867 0
M  V30 25 Cl -3.8773 -1.4364 -1.0496 0
M  V30 26 C 8.9151 0.1263 0.9263 0
M  V30 27 N -4.0694 1.3322 -2.5229 0 CHG=-1
M  V30 28 C 8.8149 1.1212 -0.0743 0
M  V30 29 C 10.1725 -0.4361 1.2104 0
M  V30 30 N -5.3195 0.9278 -2.0302 0
M  V30 31 C 9.9653 1.5152 -0.7805 0
M  V30 32 C 7.5005 1.7877 -0.3824 0
M  V30 33 C 11.3032 -0.0474 0.493 0
M  V30 34 C -6.409 1.0127 -2.7373 0
M  V30 35 C 11.2096 0.9384 -0.497 0
M  V30 36 C -7.6933 0.5982 -2.1256 0
M  V30 37 C -6.367 1.5132 -4.1366 0
M  V30 38 C 12.4242 1.333 -1.2835 0
M  V30 39 O -8.7192 0.4681 -2.8483 0
M  V30 40 N -7.801 0.415 -0.7025 0
M  V30 41 O -5.7084 2.5524 -4.4077 0
M  V30 42 C -7.0924 0.8121 -5.244 0
M  V30 43 C -8.9971 -0.0863 -0.0849 0
M  V30 44 C -9.6002 0.6064 0.9905 0
M  V30 45 C -9.5755 -1.2801 -0.5515 0
M  V30 46 C -10.7699 0.0903 1.5766 0
M  V30 47 C -9.0141 1.8948 1.5096 0
M  V30 48 C -10.7409 -1.7785 0.0326 0
M  V30 49 C -11.3362 -1.1046 1.1086 0
M  V30 50 C -12.618 -1.6155 1.7012 0
M  V30 51 H 1.9636 0.0567 -2.1919 0
M  V30 52 H 2.6482 -0.7105 2.658 0
M  V30 53 H -1.2059 -1.4388 -0.1407 0
M  V30 54 H -1.913 2.8219 -2.5725 0
M  V30 55 H 7.0424 0.4584 1.9162 0
M  V30 56 H 7.6401 -3.4501 5.7478 0
M  V30 57 H 8.1088 -3.8889 4.0658 0
M  V30 58 H 8.4668 -2.2332 4.7038 0
M  V30 59 H 10.2854 -1.1641 2.003 0
M  V30 60 H 9.8898 2.2706 -1.5538 0
M  V30 61 H 7.524 2.2887 -1.3751 0
M  V30 62 H 6.6835 1.0385 -0.4057 0
M  V30 63 H 7.2796 2.5501 0.3947 0
M  V30 64 H 12.2583 -0.5033 0.7216 0
M  V30 65 H 12.518 0.6758 -2.1709 0
M  V30 66 H 12.348 2.3885 -1.6211 0
M  V30 67 H 13.3398 1.2384 -0.6643 0
M  V30 68 H -7.0472 0.7954 -0.0843 0
M  V30 69 H -6.478 0.8367 -6.1721 0
M  V30 70 H -8.0673 1.3145 -5.4315 0
M  V30 71 H -7.2743 -0.2504 -4.9797 0
M  V30 72 H -9.1182 -1.8272 -1.3682 0
M  V30 73 H -11.2484 0.6257 2.3894 0
M  V30 74 H -8.073 1.6843 2.0599 0
M  V30 75 H -8.7986 2.5878 0.6668 0
M  V30 76 H -9.7136 2.4104 2.2021 0
M  V30 77 H -11.1811 -2.6928 -0.3511 0
M  V30 78 H -12.7115 -1.3061 2.7617 0
M  V30 79 H -13.4788 -1.2059 1.1306 0
M  V30 80 H -12.6536 -2.7239 1.6623 0
M  V30 END ATOM
M  V30 BEGIN BOND
M  V30 1 1 1 2
M  V30 2 2 2 3
M  V30 3 1 2 4
M  V30 4 1 3 5
M  V30 5 1 3 6
M  V30 6 2 4 7
M  V30 7 1 5 8
M  V30 8 2 6 9
M  V30 9 1 7 10
M  V30 10 2 8 11
M  V30 11 1 9 12
M  V30 12 2 10 13
M  V30 13 1 10 14
M  V30 14 1 11 15
M  V30 15 1 11 16
M  V30 16 1 13 17
M  V30 17 1 13 18
M  V30 18 2 14 19
M  V30 19 2 15 20
M  V30 20 1 15 21
M  V30 21 2 16 22
M  V30 22 1 16 23
M  V30 23 2 18 24
M  V30 24 1 19 25
M  V30 25 1 21 26
M  V30 26 1 24 27
M  V30 27 2 26 28
M  V30 28 1 26 29
M  V30 29 1 27 30
M  V30 30 1 28 31
M  V30 31 1 28 32
M  V30 32 2 29 33
M  V30 33 2 30 34
M  V30 34 2 31 35
M  V30 35 1 34 36
M  V30 36 1 34 37
M  V30 37 1 35 38
M  V30 38 2 36 39
M  V30 39 1 36 40
M  V30 40 2 37 41
M  V30 41 1 37 42
M  V30 42 1 40 43
M  V30 43 2 43 44
M  V30 44 1 43 45
M  V30 45 1 44 46
M  V30 46 1 44 47
M  V30 47 2 45 48
M  V30 48 2 46 49
M  V30 49 1 49 50
M  V30 50 1 7 9
M  V30 51 1 19 24
M  V30 52 1 33 35
M  V30 53 1 48 49
M  V30 54 1 4 51
M  V30 55 1 6 52
M  V30 56 1 14 53
M  V30 57 1 18 54
M  V30 58 1 21 55
M  V30 59 1 23 56
M  V30 60 1 23 57
M  V30 61 1 23 58
M  V30 62 1 29 59
M  V30 63 1 31 60
M  V30 64 1 32 61
M  V30 65 1 32 62
M  V30 66 1 32 63
M  V30 67 1 33 64
M  V30 68 1 38 65
M  V30 69 1 38 66
M  V30 70 1 38 67
M  V30 71 1 40 68
M  V30 72 1 42 69
M  V30 73 1 42 70
M  V30 74 1 42 71
M  V30 75 1 45 72
M  V30 76 1 46 73
M  V30 77 1 47 74
M  V30 78 1 47 75
M  V30 79 1 47 76
M  V30 80 1 48 77
M  V30 81 1 50 78
M  V30 82 1 50 79
M  V30 83 1 50 80
M  V30 END BOND
M  V30 END CTAB
M  END
>  <Structure No>
3022

>  <LogS>
-8.462687047

>  <MMFF94 Energy>
211.88

$$$$
Compound 3023
Actelion Java MolfileCreator 2.0

  0  0  0  0  0  0              0 V3000
M  V30 BEGIN CTAB
M  V30 COUNTS 76 79 0 0 0
M  V30 BEGIN ATOM
M  V30 1 Cl -3.0971 0.6514 -2.3629 0
M  V30 2 C -2.5726 0.4341 -0.6952 0
M  V30 3 C -3.4625 0.169 0.3754 0
M  V30 4 C -1.1949 0.4916 -0.4531 0
M  V30 5 N -4.8863 0.0947 0.2135 0 CHG=-1
M  V30 6 C -2.939 -0.0466 1.657 0
M  V30 7 C -0.677 0.284 0.8351 0
M  V30 8 N -5.5598 0.6044 -0.9055 0
M  V30 9 C -1.5625 0.0169 1.8885 0
M  V30 10 C 0.7857 0.3467 1.0711 0
M  V30 11 C -6.8411 0.4767 -1.0907 0
M  V30 12 C 1.6754 -0.2518 0.165 0
M  V30 13 C 1.3045 1.0431 2.1736 0
M  V30 14 C -7.6838 -0.2795 -0.1329 0
M  V30 15 C -7.4279 1.0823 -2.3106 0
M  V30 16 C 3.0608 -0.1481 0.3387 0
M  V30 17 C 2.6852 1.1551 2.3527 0
M  V30 18 O -7.2805 -1.3906 0.3054 0
M  V30 19 N -8.9622 0.2371 0.2676 0
M  V30 20 O -6.7633 1.9388 -2.9541 0
M  V30 21 C -8.7949 0.7175 -2.8101 0
M  V30 22 Cl 4.0729 -0.8705 -0.9081 0
M  V30 23 C 3.5784 0.5665 1.4474 0
M  V30 24 C -10.0025 -0.5809 0.8254 0
M  V30 25 N 4.982 0.765 1.6725 0 CHG=-1
M  V30 26 C -11.2984 -0.5315 0.2741 0
M  V30 27 C -9.7514 -1.3944 1.9426 0
M  V30 28 N 5.9816 0.0245 1.0276 0
M  V30 29 O -11.5238 0.2883 -0.8423 0
M  V30 30 C -12.3226 -1.3143 0.8419 0
M  V30 31 C -10.7749 -2.1669 2.4956 0
M  V30 32 C 7.2453 0.3304 1.0706 0
M  V30 33 C -12.7716 0.4208 -1.5142 0
M  V30 34 C -12.057 -2.1291 1.9443 0
M  V30 35 C 8.1967 -0.572 0.3916 0
M  V30 36 C 7.7382 1.5443 1.7657 0
M  V30 37 O 7.9032 -1.795 0.2807 0
M  V30 38 N 9.4291 -0.0723 -0.1605 0
M  V30 39 O 8.7813 1.4736 2.4694 0
M  V30 40 C 7.0272 2.8587 1.6573 0
M  V30 41 C 10.2151 -0.7884 -1.1336 0
M  V30 42 C 11.6168 -0.6301 -1.1532 0
M  V30 43 C 9.5962 -1.5885 -2.1149 0
M  V30 44 O 12.2175 0.1908 -0.185 0
M  V30 45 C 12.3765 -1.2987 -2.1356 0
M  V30 46 C 10.3611 -2.2492 -3.0783 0
M  V30 47 C 13.6141 0.4694 -0.1172 0
M  V30 48 C 11.7491 -2.1044 -3.0876 0
M  V30 49 H -0.5251 0.7066 -1.2759 0
M  V30 50 H -3.6044 -0.2626 2.4852 0
M  V30 51 H -1.1878 -0.1622 2.8887 0
M  V30 52 H 1.2919 -0.7987 -0.6887 0
M  V30 53 H 0.6433 1.5318 2.88 0
M  V30 54 H 3.0648 1.7101 3.2018 0
M  V30 55 H -9.2107 1.2083 -0.023 0
M  V30 56 H -8.8233 0.7841 -3.9181 0
M  V30 57 H -9.0634 -0.3202 -2.522 0
M  V30 58 H -9.5439 1.4247 -2.4012 0
M  V30 59 H -8.7707 -1.4116 2.4 0
M  V30 60 H -13.3244 -1.3038 0.4359 0
M  V30 61 H -10.5765 -2.7904 3.3572 0
M  V30 62 H -13.5319 0.8384 -0.824 0
M  V30 63 H -13.105 -0.564 -1.9009 0
M  V30 64 H -12.6516 1.1146 -2.3704 0
M  V30 65 H -12.8479 -2.7302 2.374 0
M  V30 66 H 9.7689 0.8688 0.1435 0
M  V30 67 H 7.7665 3.6869 1.631 0
M  V30 68 H 6.4222 2.9006 0.7275 0
M  V30 69 H 6.3645 3.0051 2.5374 0
M  V30 70 H 8.5192 -1.6822 -2.1574 0
M  V30 71 H 13.4524 -1.1987 -2.1743 0
M  V30 72 H 9.8768 -2.8596 -3.8303 0
M  V30 73 H 13.9536 0.9508 -1.0601 0
M  V30 74 H 13.8094 1.1653 0.7272 0
M  V30 75 H 14.1797 -0.4711 0.0581 0
M  V30 76 H 12.34 -2.6134 -3.8384 0
M  V30 END ATOM
M  V30 BEGIN BOND
M  V30 1 1 1 2
M  V30 2 2 2 3
M  V30 3 1 2 4
M  V30 4 1 3 5
M  V30 5 1 3 6
M  V30 6 2 4 7
M  V30 7 1 5 8
M  V30 8 2 6 9
M  V30 9 1 7 10
M  V30 10 2 8 11
M  V30 11 2 10 12
M  V30 12 1 10 13
M  V30 13 1 11 14
M  V30 14 1 11 15
M  V30 15 1 12 16
M  V30 16 2 13 17
M  V30 17 2 14 18
M  V30 18 1 14 19
M  V30 19 2 15 20
M  V30 20 1 15 21
M  V30 21 1 16 22
M  V30 22 2 16 23
M  V30 23 1 19 24
M  V30 24 1 23 25
M  V30 25 2 24 26
M  V30 26 1 24 27
M  V30 27 1 25 28
M  V30 28 1 26 29
M  V30 29 1 26 30
M  V30 30 2 27 31
M  V30 31 2 28 32
M  V30 32 1 29 33
M  V30 33 2 30 34
M  V30 34 1 32 35
M  V30 35 1 32 36
M  V30 36 2 35 37
M  V30 37 1 35 38
M  V30 38 2 36 39
M  V30 39 1 36 40
M  V30 40 1 38 41
M  V30 41 2 41 42
M  V30 42 1 41 43
M  V30 43 1 42 44
M  V30 44 1 42 45
M  V30 45 2 43 46
M  V30 46 1 44 47
M  V30 47 2 45 48
M  V30 48 1 7 9
M  V30 49 1 17 23
M  V30 50 1 31 34
M  V30 51 1 46 48
M  V30 52 1 4 49
M  V30 53 1 6 50
M  V30 54 1 9 51
M  V30 55 1 12 52
M  V30 56 1 13 53
M  V30 57 1 17 54
M  V30 58 1 19 55
M  V30 59 1 21 56
M  V30 60 1 21 57
M  V30 61 1 21 58
M  V30 62 1 27 59
M  V30 63 1 30 60
M  V30 64 1 31 61
M  V30 65 1 33 62
M  V30 66 1 33 63
M  V30 67 1 33 64
M  V30 68 1 34 65
M  V30 69 1 38 66
M  V30 70 1 40 67
M  V30 71 1 40 68
M  V30 72 1 40 69
M  V30 73 1 43 70
M  V30 74 1 45 71
M  V30 75 1 46 72
M  V30 76 1 47 73
M  V30 77 1 47 74
M  V30 78 1 47 75
M  V30 79 1 48 76
M  V30 END BOND
M  V30 END CTAB
M  END
>  <Structure No>
3023

>  <LogS>
-8.423596194

>  <MMFF94 Energy>
223.79

$$$$
Compound 3024
Actelion Java MolfileCreator 2.0

  0  0  0  0  0  0              0 V3000
M  V30 BEGIN CTAB
M  V30 COUNTS 73 78 0 0 0
M  V30 BEGIN ATOM
M  V30 1 S 7.6452 -2.3539 0.73 0
M  V30 2 O 8.471 -1.5853 -0.2622 0
M  V30 3 O 8.5549 -2.9661 1.7581 0
M  V30 4 O 6.5824 -1.3114 1.5089 0 CHG=-1
M  V30 5 C 6.733 -3.6121 -0.109 0
M  V30 6 C 5.6363 -3.2816 -0.9331 0
M  V30 7 C 7.0924 -4.9594 0.0552 0
M  V30 8 N 5.2806 -1.908 -1.1616 0 CHG=1
M  V30 9 C 4.9336 -4.3027 -1.5943 0
M  V30 10 C 6.3751 -5.967 -0.5944 0
M  V30 11 C 4.1314 -1.3766 -0.8316 0
M  V30 12 C 5.2974 -5.6392 -1.4185 0
M  V30 13 C 3.8643 0.04 -1.1601 0
M  V30 14 C 3.086 -2.1327 -0.0958 0
M  V30 15 C 2.7025 0.6159 -0.8415 0
M  V30 16 C 1.9226 -1.5599 0.2233 0
M  V30 17 C 1.6305 -0.143 -0.1365 0
M  V30 18 C 0.4366 0.434 0.1708 0
M  V30 19 C -0.7086 -0.3583 0.6824 0
M  V30 20 C 0.2044 1.8903 0.0098 0
M  V30 21 C -1.2521 -1.4029 -0.0826 0
M  V30 22 C -1.2957 -0.031 1.9138 0
M  V30 23 C -0.837 2.3489 -0.8104 0
M  V30 24 C 0.9797 2.8199 0.7215 0
M  V30 25 C -2.3529 -2.1235 0.3882 0
M  V30 26 C -2.3969 -0.7521 2.3841 0
M  V30 27 C -1.0879 3.7181 -0.9333 0
M  V30 28 C 0.7291 4.1891 0.597 0
M  V30 29 C -2.9454 -1.7913 1.6192 0
M  V30 30 C -0.3172 4.649 -0.2149 0
M  V30 31 N -4.0618 -2.5359 2.1359 0
M  V30 32 N -0.5436 6.0632 -0.3433 0
M  V30 33 C -5.0803 -3.1427 1.3219 0
M  V30 34 C -1.8324 6.6617 -0.5653 0
M  V30 35 C -5.7336 -4.297 1.7809 0
M  V30 36 C -5.4838 -2.5652 0.1033 0
M  V30 37 C -3.0067 6.0845 -0.0463 0
M  V30 38 C -1.9172 7.8804 -1.2565 0
M  V30 39 C -6.7459 -4.8876 1.0181 0
M  V30 40 C -6.4967 -3.1583 -0.6565 0
M  V30 41 C -4.2452 6.7003 -0.2521 0
M  V30 42 C -3.1577 8.4932 -1.4599 0
M  V30 43 C -7.1246 -4.3209 -0.2017 0
M  V30 44 C -4.3212 7.9015 -0.9615 0
M  V30 45 H 7.9288 -5.2337 0.6847 0
M  V30 46 H 6.0099 -1.3072 -1.609 0
M  V30 47 H 4.1064 -4.0574 -2.2487 0
M  V30 48 H 6.6581 -7.0034 -0.4621 0
M  V30 49 H 4.7478 -6.4208 -1.9269 0
M  V30 50 H 4.6131 0.6217 -1.6842 0
M  V30 51 H 3.2587 -3.1525 0.2213 0
M  V30 52 H 2.5514 1.6439 -1.1432 0
M  V30 53 H 1.2115 -2.1463 0.7904 0
M  V30 54 H -0.8198 -1.6604 -1.0419 0
M  V30 55 H -0.8955 0.7775 2.5135 0
M  V30 56 H -1.4471 1.6456 -1.3639 0
M  V30 57 H 1.7754 2.4825 1.3743 0
M  V30 58 H -2.7336 -2.9462 -0.2027 0
M  V30 59 H -2.8323 -0.493 3.3411 0
M  V30 60 H -1.8749 4.0498 -1.5981 0
M  V30 61 H 1.3405 4.8935 1.1472 0
M  V30 62 H -4.1391 -2.6414 3.1732 0
M  V30 63 H 0.2826 6.6987 -0.2641 0
M  V30 64 H -5.4508 -4.7432 2.726 0
M  V30 65 H -5.0287 -1.6495 -0.251 0
M  V30 66 H -2.9646 5.1703 0.5314 0
M  V30 67 H -1.0222 8.3494 -1.6454 0
M  V30 68 H -7.2385 -5.7831 1.3744 0
M  V30 69 H -6.8002 -2.7119 -1.5947 0
M  V30 70 H -5.1455 6.2504 0.1463 0
M  V30 71 H -3.2166 9.428 -2.0026 0
M  V30 72 H -7.9096 -4.7777 -0.7904 0
M  V30 73 H -5.2806 8.3776 -1.1182 0
M  V30 END ATOM
M  V30 BEGIN BOND
M  V30 1 2 1 2
M  V30 2 2 1 3
M  V30 3 1 1 4
M  V30 4 1 1 5
M  V30 5 2 5 6
M  V30 6 1 5 7
M  V30 7 1 6 8
M  V30 8 1 6 9
M  V30 9 2 7 10
M  V30 10 2 8 11
M  V30 11 2 9 12
M  V30 12 1 11 13
M  V30 13 1 11 14
M  V30 14 2 13 15
M  V30 15 2 14 16
M  V30 16 1 15 17
M  V30 17 2 17 18
M  V30 18 1 18 19
M  V30 19 1 18 20
M  V30 20 2 19 21
M  V30 21 1 19 22
M  V30 22 2 20 23
M  V30 23 1 20 24
M  V30 24 1 21 25
M  V30 25 2 22 26
M  V30 26 1 23 27
M  V30 27 2 24 28
M  V30 28 2 25 29
M  V30 29 2 27 30
M  V30 30 1 29 31
M  V30 31 1 30 32
M  V30 32 1 31 33
M  V30 33 1 32 34
M  V30 34 2 33 35
M  V30 35 1 33 36
M  V30 36 2 34 37
M  V30 37 1 34 38
M  V30 38 1 35 39
M  V30 39 2 36 40
M  V30 40 1 37 41
M  V30 41 2 38 42
M  V30 42 2 39 43
M  V30 43 2 41 44
M  V30 44 1 10 12
M  V30 45 1 16 17
M  V30 46 1 26 29
M  V30 47 1 28 30
M  V30 48 1 40 43
M  V30 49 1 42 44
M  V30 50 1 7 45
M  V30 51 1 8 46
M  V30 52 1 9 47
M  V30 53 1 10 48
M  V30 54 1 12 49
M  V30 55 1 13 50
M  V30 56 1 14 51
M  V30 57 1 15 52
M  V30 58 1 16 53
M  V30 59 1 21 54
M  V30 60 1 22 55
M  V30 61 1 23 56
M  V30 62 1 24 57
M  V30 63 1 25 58
M  V30 64 1 26 59
M  V30 65 1 27 60
M  V30 66 1 28 61
M  V30 67 1 31 62
M  V30 68 1 32 63
M  V30 69 1 35 64
M  V30 70 1 36 65
M  V30 71 1 37 66
M  V30 72 1 38 67
M  V30 73 1 39 68
M  V30 74 1 40 69
M  V30 75 1 41 70
M  V30 76 1 42 71
M  V30 77 1 43 72
M  V30 78 1 44 73
M  V30 END BOND
M  V30 END CTAB
M  END
>  <Structure No>
3024

>  <LogS>
-8.377105088

>  <MMFF94 Energy>
51.731

$$$$
Compound 3025
Actelion Java MolfileCreator 2.0

  0  0  0  0  0  0              0 V3000
M  V30 BEGIN CTAB
M  V30 COUNTS 52 55 0 0 0
M  V30 BEGIN ATOM
M  V30 1 O -5.307 -0.4815 -2.0077 0
M  V30 2 C -4.9011 0.0135 -0.9205 0
M  V30 3 C -3.5093 0.1333 -0.6548 0
M  V30 4 C -5.8554 0.4712 0.0059 0
M  V30 5 C -3.083 0.8009 0.5516 0
M  V30 6 C -2.5263 -0.3537 -1.5785 0
M  V30 7 C -5.4382 1.1244 1.1863 0
M  V30 8 C -7.2368 0.3052 -0.2387 0
M  V30 9 C -4.068 1.3183 1.4374 0
M  V30 10 C -1.6821 0.968 0.81 0
M  V30 11 N -2.8727 -1.1286 -2.7345 0
M  V30 12 C -1.1799 -0.0991 -1.3066 0
M  V30 13 C -6.4122 1.5962 2.0943 0
M  V30 14 C -8.1828 0.7739 0.673 0
M  V30 15 O -3.7309 1.9866 2.453 0
M  V30 16 N -1.1854 1.5135 2.0399 0
M  V30 17 C -0.7747 0.5355 -0.1599 0
M  V30 18 C -0.0234 -0.4741 -1.9781 0
M  V30 19 C -7.7715 1.4178 1.8368 0
M  V30 20 C 0.6139 0.5244 -0.174 0
M  V30 21 O 0.0265 -1.1267 -3.0548 0
M  V30 22 N 1.0712 -0.0718 -1.2966 0
M  V30 23 O 1.3654 0.97 0.734 0
M  V30 24 C 2.4677 -0.3532 -1.6331 0
M  V30 25 C 2.8957 -1.6942 -1.0277 0
M  V30 26 C 4.351 -2.0368 -1.3682 0
M  V30 27 O 5.2329 -1.0437 -0.877 0
M  V30 28 C 5.739 -1.4102 0.3899 0
M  V30 29 C 6.5394 -0.2481 0.9626 0
M  V30 30 O 7.0504 -0.6155 2.2263 0
M  V30 31 C 7.7871 0.4603 2.7622 0
M  V30 32 H -7.5919 -0.1893 -1.1343 0
M  V30 33 H -3.5355 -1.9312 -2.6593 0
M  V30 34 H -2.36 -1.0096 -3.6349 0
M  V30 35 H -6.1277 2.1028 3.0085 0
M  V30 36 H -9.2385 0.6385 0.4751 0
M  V30 37 H -0.3499 2.1379 2.0527 0
M  V30 38 H -1.5502 1.1772 2.9582 0
M  V30 39 H -8.5082 1.7819 2.5416 0
M  V30 40 H 2.5879 -0.3817 -2.7381 0
M  V30 41 H 3.114 0.4641 -1.245 0
M  V30 42 H 2.2386 -2.4984 -1.4243 0
M  V30 43 H 2.7657 -1.6625 0.0751 0
M  V30 44 H 4.4574 -2.0769 -2.4732 0
M  V30 45 H 4.5911 -3.0627 -1.0004 0
M  V30 46 H 6.4128 -2.2914 0.2922 0
M  V30 47 H 4.9151 -1.6511 1.1 0
M  V30 48 H 7.3679 -0.01 0.2564 0
M  V30 49 H 5.8623 0.6327 1.0518 0
M  V30 50 H 7.1417 1.3536 2.917 0
M  V30 51 H 8.6563 0.7157 2.1159 0
M  V30 52 H 8.1838 0.1581 3.7532 0
M  V30 END ATOM
M  V30 BEGIN BOND
M  V30 1 2 1 2
M  V30 2 1 2 3
M  V30 3 1 2 4
M  V30 4 2 3 5
M  V30 5 1 3 6
M  V30 6 2 4 7
M  V30 7 1 4 8
M  V30 8 1 5 9
M  V30 9 1 5 10
M  V30 10 1 6 11
M  V30 11 2 6 12
M  V30 12 1 7 13
M  V30 13 2 8 14
M  V30 14 2 9 15
M  V30 15 1 10 16
M  V30 16 2 10 17
M  V30 17 1 12 18
M  V30 18 2 13 19
M  V30 19 1 17 20
M  V30 20 2 18 21
M  V30 21 1 18 22
M  V30 22 2 20 23
M  V30 23 1 22 24
M  V30 24 1 24 25
M  V30 25 1 25 26
M  V30 26 1 26 27
M  V30 27 1 27 28
M  V30 28 1 28 29
M  V30 29 1 29 30
M  V30 30 1 30 31
M  V30 31 1 7 9
M  V30 32 1 12 17
M  V30 33 1 14 19
M  V30 34 1 20 22
M  V30 35 1 8 32
M  V30 36 1 11 33
M  V30 37 1 11 34
M  V30 38 1 13 35
M  V30 39 1 14 36
M  V30 40 1 16 37
M  V30 41 1 16 38
M  V30 42 1 19 39
M  V30 43 1 24 40
M  V30 44 1 24 41
M  V30 45 1 25 42
M  V30 46 1 25 43
M  V30 47 1 26 44
M  V30 48 1 26 45
M  V30 49 1 28 46
M  V30 50 1 28 47
M  V30 51 1 29 48
M  V30 52 1 29 49
M  V30 53 1 31 50
M  V30 54 1 31 51
M  V30 55 1 31 52
M  V30 END BOND
M  V30 END CTAB
M  END
>  <Structure No>
3025

>  <LogS>
-8.26504866

>  <MMFF94 Energy>
100.64

$$$$
Compound 3026
Actelion Java MolfileCreator 2.0

  0  0  0  0  0  0              0 V3000
M  V30 BEGIN CTAB
M  V30 COUNTS 50 54 0 0 0
M  V30 BEGIN ATOM
M  V30 1 O 3.4861 -1.3771 -2.1879 0
M  V30 2 C 3.3293 -0.7343 -1.1144 0
M  V30 3 C 1.9721 -0.5927 -0.5083 0
M  V30 4 C 4.4919 -0.0391 -0.5215 0
M  V30 5 C 0.883 -1.407 -0.9168 0
M  V30 6 C 1.7591 0.4226 0.458 0
M  V30 7 C 4.3037 0.8428 0.5582 0
M  V30 8 C 5.7875 -0.2423 -1.0331 0
M  V30 9 N 1.0869 -2.5862 -1.7107 0
M  V30 10 C -0.4167 -1.1093 -0.4801 0
M  V30 11 C 2.9458 1.0605 1.1029 0
M  V30 12 C 0.4318 0.7621 0.83 0
M  V30 13 C 5.4149 1.5044 1.1148 0
M  V30 14 C 6.881 0.4208 -0.473 0
M  V30 15 O -1.4829 -1.913 -0.9156 0
M  V30 16 C -0.6469 0.0094 0.3328 0
M  V30 17 O 2.8163 1.7257 2.1663 0
M  V30 18 N 0.1567 1.8922 1.671 0
M  V30 19 C 6.6951 1.2928 0.5992 0
M  V30 20 C -2.5338 -2.3701 -0.1066 0
M  V30 21 O -1.9668 0.3659 0.6385 0
M  V30 22 C -3.7519 -2.7044 -0.7113 0
M  V30 23 C -2.3878 -2.5311 1.2844 0
M  V30 24 C -2.5945 1.5403 0.1982 0
M  V30 25 C -4.8222 -3.1647 0.0621 0
M  V30 26 C -3.4599 -2.9911 2.0552 0
M  V30 27 C -3.85 1.8639 0.7275 0
M  V30 28 C -2.014 2.3881 -0.7657 0
M  V30 29 C -4.6774 -3.3044 1.445 0
M  V30 30 C -4.515 3.0226 0.3148 0
M  V30 31 C -2.6817 3.5463 -1.1759 0
M  V30 32 C -3.9305 3.8644 -0.635 0
M  V30 33 H 5.9567 -0.9162 -1.8636 0
M  V30 34 H 1.972 -3.1346 -1.6473 0
M  V30 35 H 0.2964 -3.0323 -2.2266 0
M  V30 36 H 5.2951 2.1878 1.9461 0
M  V30 37 H 7.8743 0.2582 -0.8711 0
M  V30 38 H -0.7229 1.9431 2.231 0
M  V30 39 H 0.735 2.7587 1.6164 0
M  V30 40 H 7.5441 1.8061 1.0318 0
M  V30 41 H -3.8715 -2.5974 -1.7818 0
M  V30 42 H -1.4463 -2.3102 1.7702 0
M  V30 43 H -5.7636 -3.413 -0.4107 0
M  V30 44 H -3.3454 -3.1089 3.1251 0
M  V30 45 H -4.3098 1.2156 1.4628 0
M  V30 46 H -1.0539 2.1545 -1.2059 0
M  V30 47 H -5.5065 -3.6607 2.0426 0
M  V30 48 H -5.4837 3.2675 0.731 0
M  V30 49 H -2.2322 4.196 -1.9156 0
M  V30 50 H -4.4461 4.7609 -0.9541 0
M  V30 END ATOM
M  V30 BEGIN BOND
M  V30 1 2 1 2
M  V30 2 1 2 3
M  V30 3 1 2 4
M  V30 4 2 3 5
M  V30 5 1 3 6
M  V30 6 2 4 7
M  V30 7 1 4 8
M  V30 8 1 5 9
M  V30 9 1 5 10
M  V30 10 1 6 11
M  V30 11 2 6 12
M  V30 12 1 7 13
M  V30 13 2 8 14
M  V30 14 1 10 15
M  V30 15 2 10 16
M  V30 16 2 11 17
M  V30 17 1 12 18
M  V30 18 2 13 19
M  V30 19 1 15 20
M  V30 20 1 16 21
M  V30 21 2 20 22
M  V30 22 1 20 23
M  V30 23 1 21 24
M  V30 24 1 22 25
M  V30 25 2 23 26
M  V30 26 2 24 27
M  V30 27 1 24 28
M  V30 28 2 25 29
M  V30 29 1 27 30
M  V30 30 2 28 31
M  V30 31 2 30 32
M  V30 32 1 7 11
M  V30 33 1 12 16
M  V30 34 1 14 19
M  V30 35 1 26 29
M  V30 36 1 31 32
M  V30 37 1 8 33
M  V30 38 1 9 34
M  V30 39 1 9 35
M  V30 40 1 13 36
M  V30 41 1 14 37
M  V30 42 1 18 38
M  V30 43 1 18 39
M  V30 44 1 19 40
M  V30 45 1 22 41
M  V30 46 1 23 42
M  V30 47 1 25 43
M  V30 48 1 26 44
M  V30 49 1 27 45
M  V30 50 1 28 46
M  V30 51 1 29 47
M  V30 52 1 30 48
M  V30 53 1 31 49
M  V30 54 1 32 50
M  V30 END BOND
M  V30 END CTAB
M  END
>  <Structure No>
3026

>  <LogS>
-8.271656595

>  <MMFF94 Energy>
162.56

$$$$
Compound 3027
Actelion Java MolfileCreator 2.0

  0  0  0  0  0  0              0 V3000
M  V30 BEGIN CTAB
M  V30 COUNTS 78 83 0 0 0
M  V30 BEGIN ATOM
M  V30 1 Cl -4.2568 -3.2732 -3.601 0
M  V30 2 C -3.5718 -1.7671 -3.0048 0
M  V30 3 C -4.303 -0.5713 -3.0615 0
M  V30 4 C -2.2835 -1.7775 -2.4602 0
M  V30 5 N -5.6064 -0.5627 -3.67 0
M  V30 6 C -3.7022 0.62 -2.6242 0
M  V30 7 C -1.6735 -0.588 -2.0171 0
M  V30 8 N -6.6363 0.045 -3.2192 0
M  V30 9 C -2.4015 0.6133 -2.1116 0
M  V30 10 C -0.2729 -0.5951 -1.4971 0
M  V30 11 C -6.7193 0.6987 -1.9452 0
M  V30 12 C 0.6782 -1.4993 -2.0069 0
M  V30 13 C 0.137 0.3188 -0.511 0
M  V30 14 C -7.2269 1.9492 -1.7069 0
M  V30 15 C -6.4226 0.1944 -0.6862 0
M  V30 16 C 2.0003 -1.5 -1.5432 0
M  V30 17 C 1.4587 0.3374 -0.0606 0
M  V30 18 O -7.6208 2.7552 -2.5886 0
M  V30 19 N -7.2061 2.1964 -0.3772 0
M  V30 20 N -6.7119 1.1327 0.243 0 CHG=-1
M  V30 21 C -5.9989 -1.1685 -0.344 0
M  V30 22 Cl 3.1239 -2.6221 -2.2967 0
M  V30 23 C 2.3979 -0.5726 -0.5542 0
M  V30 24 C -7.6206 3.3926 0.3122 0
M  V30 25 O -6.137 -2.1012 -1.182 0
M  V30 26 O -5.4738 -1.427 0.9288 0
M  V30 27 N 3.7416 -0.4853 -0.0571 0
M  V30 28 C -8.6498 4.2093 -0.1967 0
M  V30 29 C -7.0105 3.748 1.5279 0
M  V30 30 C -5.0056 -2.7115 1.3321 0
M  V30 31 N 4.5351 -1.4778 -0.0339 0
M  V30 32 C -9.036 5.3703 0.4816 0
M  V30 33 C -7.4028 4.9082 2.205 0
M  V30 34 C -6.1803 -3.6447 1.6286 0
M  V30 35 C 5.8863 -1.3507 0.4153 0
M  V30 36 C -8.4078 5.7232 1.6758 0
M  V30 37 C 6.5843 -2.2973 1.1239 0
M  V30 38 C 6.8223 -0.3577 0.1325 0
M  V30 39 O 6.1234 -3.3984 1.5293 0
M  V30 40 N 7.8556 -1.8807 1.2946 0
M  V30 41 N 8.006 -0.7136 0.6813 0 CHG=-1
M  V30 42 C 6.6765 0.8336 -0.7227 0
M  V30 43 C 8.9233 -2.5526 1.9924 0
M  V30 44 O 7.6966 1.5342 -0.9749 0
M  V30 45 O 5.4358 1.1787 -1.2687 0
M  V30 46 C 10.2516 -2.3966 1.5578 0
M  V30 47 C 8.6671 -3.3197 3.1442 0
M  V30 48 C 5.2204 2.334 -2.0771 0
M  V30 49 C 11.3 -3.0101 2.2489 0
M  V30 50 C 9.7205 -3.9252 3.8369 0
M  V30 51 C 5.2773 3.6072 -1.2365 0
M  V30 52 C 11.036 -3.7716 3.389 0
M  V30 53 H -1.7641 -2.7215 -2.3852 0
M  V30 54 H -4.2244 1.5637 -2.7153 0
M  V30 55 H -1.9581 1.5591 -1.8232 0
M  V30 56 H 0.4068 -2.1887 -2.7955 0
M  V30 57 H -0.5612 1.0208 -0.0816 0
M  V30 58 H 1.7522 1.0633 0.6887 0
M  V30 59 H -9.1814 3.9389 -1.0989 0
M  V30 60 H -6.2193 3.135 1.9437 0
M  V30 61 H -4.3469 -3.1472 0.5468 0
M  V30 62 H -4.4023 -2.5935 2.2581 0
M  V30 63 H -9.8254 5.9931 0.0791 0
M  V30 64 H -6.9215 5.1778 3.1348 0
M  V30 65 H -5.8074 -4.6172 2.0102 0
M  V30 66 H -6.772 -3.8298 0.7078 0
M  V30 67 H -6.8379 -3.1865 2.3973 0
M  V30 68 H -8.7049 6.6228 2.1975 0
M  V30 69 H 10.4773 -1.8083 0.6758 0
M  V30 70 H 7.661 -3.4183 3.5311 0
M  V30 71 H 4.2099 2.2595 -2.5336 0
M  V30 72 H 5.9737 2.3763 -2.8963 0
M  V30 73 H 12.3179 -2.8962 1.8975 0
M  V30 74 H 9.5186 -4.5071 4.7272 0
M  V30 75 H 5.0306 4.4834 -1.8722 0
M  V30 76 H 6.2955 3.7491 -0.8135 0
M  V30 77 H 4.5455 3.5445 -0.4023 0
M  V30 78 H 11.8483 -4.251 3.9215 0
M  V30 END ATOM
M  V30 BEGIN BOND
M  V30 1 1 1 2
M  V30 2 2 2 3
M  V30 3 1 2 4
M  V30 4 1 3 5
M  V30 5 1 3 6
M  V30 6 2 4 7
M  V30 7 2 5 8
M  V30 8 2 6 9
M  V30 9 1 7 10
M  V30 10 1 8 11
M  V30 11 2 10 12
M  V30 12 1 10 13
M  V30 13 1 11 14
M  V30 14 2 11 15
M  V30 15 1 12 16
M  V30 16 2 13 17
M  V30 17 2 14 18
M  V30 18 1 14 19
M  V30 19 1 15 20
M  V30 20 1 15 21
M  V30 21 1 16 22
M  V30 22 2 16 23
M  V30 23 1 19 24
M  V30 24 2 21 25
M  V30 25 1 21 26
M  V30 26 1 23 27
M  V30 27 2 24 28
M  V30 28 1 24 29
M  V30 29 1 26 30
M  V30 30 2 27 31
M  V30 31 1 28 32
M  V30 32 2 29 33
M  V30 33 1 30 34
M  V30 34 1 31 35
M  V30 35 2 32 36
M  V30 36 1 35 37
M  V30 37 2 35 38
M  V30 38 2 37 39
M  V30 39 1 37 40
M  V30 40 1 38 41
M  V30 41 1 38 42
M  V30 42 1 40 43
M  V30 43 2 42 44
M  V30 44 1 42 45
M  V30 45 2 43 46
M  V30 46 1 43 47
M  V30 47 1 45 48
M  V30 48 1 46 49
M  V30 49 2 47 50
M  V30 50 1 48 51
M  V30 51 2 49 52
M  V30 52 1 7 9
M  V30 53 1 17 23
M  V30 54 1 19 20
M  V30 55 1 33 36
M  V30 56 1 40 41
M  V30 57 1 50 52
M  V30 58 1 4 53
M  V30 59 1 6 54
M  V30 60 1 9 55
M  V30 61 1 12 56
M  V30 62 1 13 57
M  V30 63 1 17 58
M  V30 64 1 28 59
M  V30 65 1 29 60
M  V30 66 1 30 61
M  V30 67 1 30 62
M  V30 68 1 32 63
M  V30 69 1 33 64
M  V30 70 1 34 65
M  V30 71 1 34 66
M  V30 72 1 34 67
M  V30 73 1 36 68
M  V30 74 1 46 69
M  V30 75 1 47 70
M  V30 76 1 48 71
M  V30 77 1 48 72
M  V30 78 1 49 73
M  V30 79 1 50 74
M  V30 80 1 51 75
M  V30 81 1 51 76
M  V30 82 1 51 77
M  V30 83 1 52 78
M  V30 END BOND
M  V30 END CTAB
M  END
>  <Structure No>
3027

>  <LogS>
-8.526560129

>  <MMFF94 Energy>
257.74

$$$$
Compound 3028
Actelion Java MolfileCreator 2.0

  0  0  0  0  0  0              0 V3000
M  V30 BEGIN CTAB
M  V30 COUNTS 84 87 0 0 0
M  V30 BEGIN ATOM
M  V30 1 Cl 14.0432 2.4676 0.0 0
M  V30 2 C 12.4668 1.6963 -0.0777 0
M  V30 3 C 12.3639 0.3256 -0.3435 0
M  V30 4 C 11.3185 2.4683 0.106 0
M  V30 5 O 13.5422 -0.4152 -0.5356 0
M  V30 6 C 11.0888 -0.2646 -0.4144 0
M  V30 7 C 10.0401 1.8754 0.0627 0
M  V30 8 C 13.5845 -1.8271 -0.7326 0
M  V30 9 C 9.9239 0.4919 -0.1738 0
M  V30 10 O 8.8702 2.6304 0.2528 0
M  V30 11 N 8.6162 -0.1157 -0.2341 0
M  V30 12 C 8.843 4.05 0.3867 0
M  V30 13 C 8.3688 -1.5144 -0.0034 0
M  V30 14 O 9.1864 -2.2082 0.6616 0
M  V30 15 C 7.1704 -2.1659 -0.5552 0
M  V30 16 N 6.0139 -1.5789 -0.4288 0
M  V30 17 C 7.3345 -3.4858 -1.2222 0
M  V30 18 N 4.8437 -2.1029 -0.9963 0 CHG=-1
M  V30 19 O 8.3642 -3.6957 -1.9187 0
M  V30 20 C 6.3192 -4.5808 -1.0876 0
M  V30 21 C 3.5303 -1.6604 -0.6425 0
M  V30 22 C 2.4228 -2.1859 -1.3246 0
M  V30 23 C 3.3234 -0.7737 0.4249 0
M  V30 24 Cl 2.6382 -3.2994 -2.6722 0
M  V30 25 C 1.1255 -1.8412 -0.9321 0
M  V30 26 C 2.0237 -0.4294 0.8132 0
M  V30 27 C 0.9094 -0.9668 0.1463 0
M  V30 28 C -0.4742 -0.6572 0.5946 0
M  V30 29 C -0.7795 -0.5728 1.9661 0
M  V30 30 C -1.5055 -0.4736 -0.3415 0
M  V30 31 C -2.09 -0.3301 2.3898 0
M  V30 32 C -2.8148 -0.2244 0.0801 0
M  V30 33 Cl -2.4255 -0.2378 4.115 0
M  V30 34 C -3.1172 -0.1577 1.4494 0
M  V30 35 N -4.455 0.0859 1.896 0 CHG=-1
M  V30 36 N -5.5296 0.2391 1.006 0
M  V30 37 C -6.7422 0.4889 1.3977 0
M  V30 38 C -7.7996 0.5863 0.3733 0
M  V30 39 C -7.0701 0.6479 2.838 0
M  V30 40 O -7.6412 0.0051 -0.7326 0
M  V30 41 N -8.9664 1.3953 0.6016 0
M  V30 42 O -6.2841 1.2737 3.5979 0
M  V30 43 C -8.3385 0.0955 3.4064 0
M  V30 44 C -10.1204 1.3671 -0.2552 0
M  V30 45 C -10.7731 2.569 -0.5837 0
M  V30 46 C -10.6296 0.1426 -0.7256 0
M  V30 47 O -10.2485 3.7785 -0.0976 0
M  V30 48 C -11.9212 2.5283 -1.3967 0
M  V30 49 C -11.7786 0.1077 -1.539 0
M  V30 50 C -10.7943 5.0664 -0.3668 0
M  V30 51 C -12.4141 1.3104 -1.8749 0
M  V30 52 O -12.3212 -1.095 -2.0196 0
M  V30 53 Cl -13.84 1.3111 -2.9001 0
M  V30 54 C -11.7927 -2.3861 -1.7417 0
M  V30 55 H 11.4328 3.5294 0.2852 0
M  V30 56 H 11.0028 -1.3048 -0.6855 0
M  V30 57 H 13.0622 -2.1007 -1.6718 0
M  V30 58 H 13.1144 -2.3439 0.1324 0
M  V30 59 H 14.6423 -2.1519 -0.8128 0
M  V30 60 H 7.8042 0.4839 -0.5008 0
M  V30 61 H 9.3929 4.3661 1.299 0
M  V30 62 H 9.2963 4.5276 -0.5088 0
M  V30 63 H 7.7906 4.3864 0.4806 0
M  V30 64 H 5.8174 -4.534 -0.0988 0
M  V30 65 H 6.8126 -5.5697 -1.1693 0
M  V30 66 H 5.5613 -4.4931 -1.8921 0
M  V30 67 H 4.1624 -0.3628 0.9713 0
M  V30 68 H 0.2863 -2.2822 -1.4516 0
M  V30 69 H 1.8901 0.263 1.636 0
M  V30 70 H -0.0047 -0.7259 2.7055 0
M  V30 71 H -1.2976 -0.5128 -1.4037 0
M  V30 72 H -3.5877 -0.0845 -0.6667 0
M  V30 73 H -8.9088 2.1375 1.3338 0
M  V30 74 H -8.7498 -0.6988 2.7564 0
M  V30 75 H -8.1405 -0.3419 4.4076 0
M  V30 76 H -9.0834 0.906 3.5163 0
M  V30 77 H -10.1453 -0.7794 -0.4312 0
M  V30 78 H -12.4369 3.438 -1.6643 0
M  V30 79 H -10.7931 5.2578 -1.464 0
M  V30 80 H -11.8287 5.1335 0.0341 0
M  V30 81 H -10.1769 5.8365 0.1367 0
M  V30 82 H -12.4239 -3.1476 -2.2418 0
M  V30 83 H -11.8083 -2.5732 -0.6482 0
M  V30 84 H -10.7584 -2.4667 -2.1363 0
M  V30 END ATOM
M  V30 BEGIN BOND
M  V30 1 1 1 2
M  V30 2 2 2 3
M  V30 3 1 2 4
M  V30 4 1 3 5
M  V30 5 1 3 6
M  V30 6 2 4 7
M  V30 7 1 5 8
M  V30 8 2 6 9
M  V30 9 1 7 10
M  V30 10 1 9 11
M  V30 11 1 10 12
M  V30 12 1 11 13
M  V30 13 2 13 14
M  V30 14 1 13 15
M  V30 15 2 15 16
M  V30 16 1 15 17
M  V30 17 1 16 18
M  V30 18 2 17 19
M  V30 19 1 17 20
M  V30 20 1 18 21
M  V30 21 2 21 22
M  V30 22 1 21 23
M  V30 23 1 22 24
M  V30 24 1 22 25
M  V30 25 2 23 26
M  V30 26 2 25 27
M  V30 27 1 27 28
M  V30 28 2 28 29
M  V30 29 1 28 30
M  V30 30 1 29 31
M  V30 31 2 30 32
M  V30 32 1 31 33
M  V30 33 2 31 34
M  V30 34 1 34 35
M  V30 35 1 35 36
M  V30 36 2 36 37
M  V30 37 1 37 38
M  V30 38 1 37 39
M  V30 39 2 38 40
M  V30 40 1 38 41
M  V30 41 2 39 42
M  V30 42 1 39 43
M  V30 43 1 41 44
M  V30 44 2 44 45
M  V30 45 1 44 46
M  V30 46 1 45 47
M  V30 47 1 45 48
M  V30 48 2 46 49
M  V30 49 1 47 50
M  V30 50 2 48 51
M  V30 51 1 49 52
M  V30 52 1 51 53
M  V30 53 1 52 54
M  V30 54 1 7 9
M  V30 55 1 26 27
M  V30 56 1 32 34
M  V30 57 1 49 51
M  V30 58 1 4 55
M  V30 59 1 6 56
M  V30 60 1 8 57
M  V30 61 1 8 58
M  V30 62 1 8 59
M  V30 63 1 11 60
M  V30 64 1 12 61
M  V30 65 1 12 62
M  V30 66 1 12 63
M  V30 67 1 20 64
M  V30 68 1 20 65
M  V30 69 1 20 66
M  V30 70 1 23 67
M  V30 71 1 25 68
M  V30 72 1 26 69
M  V30 73 1 29 70
M  V30 74 1 30 71
M  V30 75 1 32 72
M  V30 76 1 41 73
M  V30 77 1 43 74
M  V30 78 1 43 75
M  V30 79 1 43 76
M  V30 80 1 46 77
M  V30 81 1 48 78
M  V30 82 1 50 79
M  V30 83 1 50 80
M  V30 84 1 50 81
M  V30 85 1 54 82
M  V30 86 1 54 83
M  V30 87 1 54 84
M  V30 END BOND
M  V30 END CTAB
M  END
>  <Structure No>
3028

>  <LogS>
-9.052340862

>  <MMFF94 Energy>
243.52

$$$$
Compound 3029
Actelion Java MolfileCreator 2.0

  0  0  0  0  0  0              0 V3000
M  V30 BEGIN CTAB
M  V30 COUNTS 42 41 0 0 0
M  V30 BEGIN ATOM
M  V30 1 O 3.7433 -0.3894 -2.0263 0
M  V30 2 C 4.2974 0.0849 -0.9966 0
M  V30 3 O 3.9402 1.3556 -0.5248 0
M  V30 4 C 5.3303 -0.7047 -0.2906 0
M  V30 5 C 2.9085 2.1578 -1.0999 0
M  V30 6 C 5.9812 -0.1889 0.7578 0
M  V30 7 C 5.6998 -2.0709 -0.8011 0
M  V30 8 C 1.5828 1.9725 -0.3536 0
M  V30 9 C 0.9887 0.5694 -0.5545 0
M  V30 10 C -0.3673 0.3968 0.1492 0
M  V30 11 C -1.5229 1.0489 -0.6297 0
M  V30 12 C -2.8705 0.9223 0.0991 0
M  V30 13 C -3.3998 -0.5235 0.1248 0
M  V30 14 C -4.8741 -0.6106 0.5795 0
M  V30 15 C -5.4047 -2.0351 0.3732 0
M  V30 16 C -5.0454 -0.1983 2.0495 0
M  V30 17 H 3.2107 3.2221 -1.0032 0
M  V30 18 H 2.7878 1.9499 -2.1855 0
M  V30 19 H 6.7588 -0.7492 1.2617 0
M  V30 20 H 5.7545 0.8006 1.1337 0
M  V30 21 H 6.361 -1.9675 -1.6866 0
M  V30 22 H 4.7863 -2.6301 -1.0943 0
M  V30 23 H 6.2268 -2.6692 -0.0268 0
M  V30 24 H 0.8736 2.739 -0.7291 0
M  V30 25 H 1.7465 2.1584 0.7302 0
M  V30 26 H 1.688 -0.1773 -0.122 0
M  V30 27 H 0.8835 0.3482 -1.6393 0
M  V30 28 H -0.3152 0.8134 1.1791 0
M  V30 29 H -0.5626 -0.6929 0.2364 0
M  V30 30 H -1.5996 0.597 -1.6428 0
M  V30 31 H -1.3158 2.1312 -0.7619 0
M  V30 32 H -2.7623 1.3098 1.1347 0
M  V30 33 H -3.6057 1.5677 -0.4295 0
M  V30 34 H -3.3188 -0.9466 -0.9007 0
M  V30 35 H -2.7705 -1.1434 0.7992 0
M  V30 36 H -5.4884 0.0709 -0.0499 0
M  V30 37 H -5.3282 -2.3229 -0.6969 0
M  V30 38 H -6.4747 -2.0941 0.6666 0
M  V30 39 H -4.8246 -2.7613 0.9826 0
M  V30 40 H -4.3904 -0.8087 2.7077 0
M  V30 41 H -4.7994 0.8747 2.1862 0
M  V30 42 H -6.1006 -0.3386 2.3677 0
M  V30 END ATOM
M  V30 BEGIN BOND
M  V30 1 2 1 2
M  V30 2 1 2 3
M  V30 3 1 2 4
M  V30 4 1 3 5
M  V30 5 2 4 6
M  V30 6 1 4 7
M  V30 7 1 5 8
M  V30 8 1 8 9
M  V30 9 1 9 10
M  V30 10 1 10 11
M  V30 11 1 11 12
M  V30 12 1 12 13
M  V30 13 1 13 14
M  V30 14 1 14 15
M  V30 15 1 14 16
M  V30 16 1 5 17
M  V30 17 1 5 18
M  V30 18 1 6 19
M  V30 19 1 6 20
M  V30 20 1 7 21
M  V30 21 1 7 22
M  V30 22 1 7 23
M  V30 23 1 8 24
M  V30 24 1 8 25
M  V30 25 1 9 26
M  V30 26 1 9 27
M  V30 27 1 10 28
M  V30 28 1 10 29
M  V30 29 1 11 30
M  V30 30 1 11 31
M  V30 31 1 12 32
M  V30 32 1 12 33
M  V30 33 1 13 34
M  V30 34 1 13 35
M  V30 35 1 14 36
M  V30 36 1 15 37
M  V30 37 1 15 38
M  V30 38 1 15 39
M  V30 39 1 16 40
M  V30 40 1 16 41
M  V30 41 1 16 42
M  V30 END BOND
M  V30 END CTAB
M  END
>  <Structure No>
3029

>  <LogS>
-6.055946609

>  <MMFF94 Energy>
4.3904

$$$$
Compound 3030
Actelion Java MolfileCreator 2.0

  0  0  0  0  0  0              0 V3000
M  V30 BEGIN CTAB
M  V30 COUNTS 41 42 0 0 0
M  V30 BEGIN ATOM
M  V30 1 Cl 6.1261 -3.5906 0.5705 0
M  V30 2 C 5.0373 -2.2213 0.4357 0
M  V30 3 C 5.5461 -0.9199 0.4431 0
M  V30 4 C 3.6629 -2.4322 0.3255 0
M  V30 5 C 4.6861 0.1896 0.3445 0
M  V30 6 C 2.7948 -1.3454 0.2142 0
M  V30 7 N 5.2434 1.5182 0.3781 0 CHG=1
M  V30 8 C 3.2922 -0.0292 0.2165 0
M  V30 9 O 4.5595 2.4917 0.7558 0
M  V30 10 O 6.5779 1.7162 0.1067 0 CHG=-1
M  V30 11 N 2.3981 1.0785 0.0485 0 CHG=-1
M  V30 12 N 1.0073 0.9095 -0.0249 0
M  V30 13 C 0.1738 1.8872 -0.2307 0
M  V30 14 C -1.2787 1.5976 -0.2066 0
M  V30 15 C 0.6401 3.2777 -0.4657 0
M  V30 16 O -2.1012 2.519 -0.4639 0
M  V30 17 N -1.7552 0.2665 0.0626 0
M  V30 18 O 0.0417 4.2347 0.0951 0
M  V30 19 C 1.7978 3.5824 -1.3658 0
M  V30 20 C -3.1319 -0.0442 0.3449 0
M  V30 21 C -3.6848 -1.2562 -0.1166 0
M  V30 22 C -3.9181 0.8224 1.1266 0
M  V30 23 O -2.8808 -2.1185 -0.88 0
M  V30 24 C -5.0256 -1.5663 0.1889 0
M  V30 25 C -5.2451 0.5035 1.4204 0
M  V30 26 C -3.3112 -3.369 -1.4075 0
M  V30 27 C -5.7986 -0.6867 0.9498 0
M  V30 28 H 6.6145 -0.7754 0.5419 0
M  V30 29 H 3.2654 -3.4393 0.3196 0
M  V30 30 H 1.7339 -1.5365 0.1155 0
M  V30 31 H -1.0835 -0.5288 -0.0249 0
M  V30 32 H 2.7082 3.7586 -0.7578 0
M  V30 33 H 1.9775 2.7457 -2.0735 0
M  V30 34 H 1.5819 4.4965 -1.9582 0
M  V30 35 H -3.4994 1.7348 1.5305 0
M  V30 36 H -5.4798 -2.4847 -0.1566 0
M  V30 37 H -5.8427 1.1764 2.022 0
M  V30 38 H -3.6126 -4.0483 -0.5821 0
M  V30 39 H -2.4723 -3.8358 -1.9629 0
M  V30 40 H -4.1598 -3.2165 -2.1074 0
M  V30 41 H -6.8272 -0.9323 1.1811 0
M  V30 END ATOM
M  V30 BEGIN BOND
M  V30 1 1 1 2
M  V30 2 2 2 3
M  V30 3 1 2 4
M  V30 4 1 3 5
M  V30 5 2 4 6
M  V30 6 1 5 7
M  V30 7 2 5 8
M  V30 8 2 7 9
M  V30 9 1 7 10
M  V30 10 1 8 11
M  V30 11 1 11 12
M  V30 12 2 12 13
M  V30 13 1 13 14
M  V30 14 1 13 15
M  V30 15 2 14 16
M  V30 16 1 14 17
M  V30 17 2 15 18
M  V30 18 1 15 19
M  V30 19 1 17 20
M  V30 20 2 20 21
M  V30 21 1 20 22
M  V30 22 1 21 23
M  V30 23 1 21 24
M  V30 24 2 22 25
M  V30 25 1 23 26
M  V30 26 2 24 27
M  V30 27 1 6 8
M  V30 28 1 25 27
M  V30 29 1 3 28
M  V30 30 1 4 29
M  V30 31 1 6 30
M  V30 32 1 17 31
M  V30 33 1 19 32
M  V30 34 1 19 33
M  V30 35 1 19 34
M  V30 36 1 22 35
M  V30 37 1 24 36
M  V30 38 1 25 37
M  V30 39 1 26 38
M  V30 40 1 26 39
M  V30 41 1 26 40
M  V30 42 1 27 41
M  V30 END BOND
M  V30 END CTAB
M  END
>  <Structure No>
3030

>  <LogS>
-7.306378354

>  <MMFF94 Energy>
121.87

$$$$
Compound 3031
Actelion Java MolfileCreator 2.0

  0  0  0  0  0  0              0 V3000
M  V30 BEGIN CTAB
M  V30 COUNTS 40 42 0 0 0
M  V30 BEGIN ATOM
M  V30 1 Cl 5.5978 2.3366 0.0833 0
M  V30 2 C 3.9979 1.7014 0.4563 0
M  V30 3 C 2.9676 1.6718 -0.5018 0
M  V30 4 C 3.767 1.2099 1.7432 0
M  V30 5 C 1.7234 1.1254 -0.1518 0
M  V30 6 C 3.1839 2.1621 -1.9139 0
M  V30 7 C 2.5217 0.6724 2.1005 0
M  V30 8 C 1.4791 0.6323 1.1435 0
M  V30 9 C 3.7568 1.0535 -2.7904 0
M  V30 10 S 2.3127 0.0292 3.7368 0
M  V30 11 N 0.1829 0.0953 1.4721 0
M  V30 12 O 1.3414 0.8882 4.4963 0
M  V30 13 O 3.6255 0.016 4.4685 0
M  V30 14 O 1.7357 -1.5464 3.6545 0 CHG=-1
M  V30 15 N -0.8061 -0.0463 0.4824 0
M  V30 16 C -1.8657 -0.8053 0.5605 0
M  V30 17 C -2.1109 -1.7719 1.6667 0
M  V30 18 C -2.8821 -0.735 -0.5215 0
M  V30 19 O -1.2182 -2.0668 2.5033 0
M  V30 20 C -3.4083 -2.4621 1.7463 0
M  V30 21 C -4.0831 -1.4714 -0.3989 0
M  V30 22 C -2.681 0.0651 -1.663 0
M  V30 23 C -4.3262 -2.3227 0.7869 0
M  V30 24 C -5.0545 -1.3954 -1.4082 0
M  V30 25 C -3.6558 0.1295 -2.6612 0
M  V30 26 C -4.8399 -0.5977 -2.5341 0
M  V30 27 H 4.5723 1.243 2.4655 0
M  V30 28 H 0.9404 1.0927 -0.8984 0
M  V30 29 H 3.8662 3.0381 -1.9261 0
M  V30 30 H 2.222 2.5067 -2.352 0
M  V30 31 H 3.9027 1.4339 -3.823 0
M  V30 32 H 3.0575 0.1904 -2.8248 0
M  V30 33 H 4.7376 0.7139 -2.3948 0
M  V30 34 H -0.0797 -0.0219 2.472 0
M  V30 35 H -3.6133 -3.1141 2.5867 0
M  V30 36 H -1.7723 0.6405 -1.7869 0
M  V30 37 H -5.2626 -2.8604 0.8772 0
M  V30 38 H -5.9785 -1.9544 -1.3247 0
M  V30 39 H -3.4934 0.7466 -3.5352 0
M  V30 40 H -5.5934 -0.5435 -3.3089 0
M  V30 END ATOM
M  V30 BEGIN BOND
M  V30 1 1 1 2
M  V30 2 2 2 3
M  V30 3 1 2 4
M  V30 4 1 3 5
M  V30 5 1 3 6
M  V30 6 2 4 7
M  V30 7 2 5 8
M  V30 8 1 6 9
M  V30 9 1 7 10
M  V30 10 1 8 11
M  V30 11 2 10 12
M  V30 12 2 10 13
M  V30 13 1 10 14
M  V30 14 1 11 15
M  V30 15 2 15 16
M  V30 16 1 16 17
M  V30 17 1 16 18
M  V30 18 2 17 19
M  V30 19 1 17 20
M  V30 20 2 18 21
M  V30 21 1 18 22
M  V30 22 2 20 23
M  V30 23 1 21 24
M  V30 24 2 22 25
M  V30 25 2 24 26
M  V30 26 1 7 8
M  V30 27 1 21 23
M  V30 28 1 25 26
M  V30 29 1 4 27
M  V30 30 1 5 28
M  V30 31 1 6 29
M  V30 32 1 6 30
M  V30 33 1 9 31
M  V30 34 1 9 32
M  V30 35 1 9 33
M  V30 36 1 11 34
M  V30 37 1 20 35
M  V30 38 1 22 36
M  V30 39 1 23 37
M  V30 40 1 24 38
M  V30 41 1 25 39
M  V30 42 1 26 40
M  V30 END BOND
M  V30 END CTAB
M  END
>  <Structure No>
3031

>  <LogS>
-5.69286018

>  <MMFF94 Energy>
131.84

$$$$
Compound 3032
Actelion Java MolfileCreator 2.0

  0  0  0  0  0  0              0 V3000
M  V30 BEGIN CTAB
M  V30 COUNTS 84 90 0 0 0
M  V30 BEGIN ATOM
M  V30 1 Cl -1.9253 3.4339 -0.8367 0
M  V30 2 C -1.0351 2.0106 -0.3089 0
M  V30 3 C -1.701 0.8994 0.238 0
M  V30 4 C 0.3608 2.0161 -0.4003 0
M  V30 5 N -3.1334 0.895 0.358 0
M  V30 6 C -0.9532 -0.2131 0.6516 0
M  V30 7 C 1.1124 0.9052 0.0241 0
M  V30 8 C -3.8099 0.5122 1.5679 0
M  V30 9 C 0.4406 -0.2118 0.5564 0
M  V30 10 N 2.5512 0.934 -0.0044 0
M  V30 11 O -3.1457 0.1625 2.583 0
M  V30 12 C -5.2858 0.4797 1.6324 0
M  V30 13 Cl 1.3192 -1.6423 1.0833 0
M  V30 14 C 3.3297 1.5459 -1.0472 0
M  V30 15 C -6.0857 1.5665 1.2127 0
M  V30 16 C -5.902 -0.6792 2.1236 0
M  V30 17 O 2.7739 1.9938 -2.088 0
M  V30 18 C 4.7926 1.6709 -0.901 0
M  V30 19 O -5.5216 2.7784 0.803 0
M  V30 20 C -7.4864 1.4544 1.2182 0
M  V30 21 C -7.2962 -0.7759 2.1987 0
M  V30 22 C 5.6122 0.5549 -0.629 0
M  V30 23 C 5.3676 2.9403 -1.0135 0
M  V30 24 N -8.2599 2.5404 0.6766 0
M  V30 25 C -8.1038 0.3024 1.764 0
M  V30 26 C -7.8957 -1.9369 2.716 0
M  V30 27 O 5.0887 -0.7426 -0.611 0
M  V30 28 C 6.9919 0.7208 -0.4138 0
M  V30 29 C 6.7332 3.1313 -0.7736 0
M  V30 30 N -9.0832 2.4375 -0.2991 0
M  V30 31 C -9.5028 0.2084 1.9166 0
M  V30 32 C -9.2848 -2.0234 2.8248 0
M  V30 33 N 7.7744 -0.4695 -0.2265 0
M  V30 34 C 7.5591 2.0264 -0.4329 0
M  V30 35 C 7.276 4.4259 -0.8366 0
M  V30 36 C -9.2983 1.251 -1.0848 0
M  V30 37 C -10.0852 -0.9508 2.4334 0
M  V30 38 N 8.9524 -0.5948 -0.689 0
M  V30 39 C 8.9064 2.2807 -0.0857 0
M  V30 40 C 8.6203 4.6421 -0.5369 0
M  V30 41 C -10.609 0.8462 -1.3863 0
M  V30 42 C -8.2151 0.5028 -1.5777 0
M  V30 43 C 9.7267 -1.7866 -0.5024 0
M  V30 44 C 9.4283 3.5757 -0.1511 0
M  V30 45 Cl -11.9916 1.7713 -0.8183 0
M  V30 46 C -10.828 -0.332 -2.1055 0
M  V30 47 C -8.4309 -0.6732 -2.3156 0
M  V30 48 C 11.0712 -1.7997 -0.9004 0
M  V30 49 C 9.1611 -2.9439 0.0659 0
M  V30 50 C -9.7489 -1.0981 -2.5511 0
M  V30 51 C -7.2581 -1.5118 -2.7596 0
M  V30 52 Cl 11.8154 -0.3699 -1.6048 0
M  V30 53 C 11.8417 -2.9535 -0.7296 0
M  V30 54 C 9.9368 -4.1007 0.2554 0
M  V30 55 F -7.5998 -2.3127 -3.837 0
M  V30 56 F -6.2026 -0.7012 -3.1401 0
M  V30 57 F -6.8512 -2.3131 -1.709 0
M  V30 58 C 11.2782 -4.1003 -0.1642 0
M  V30 59 C 9.3073 -5.3559 0.8088 0
M  V30 60 F 8.3316 -5.0394 1.7389 0
M  V30 61 F 8.7317 -6.0729 -0.2247 0
M  V30 62 F 10.2559 -6.1496 1.4294 0
M  V30 63 H 0.8573 2.9065 -0.7627 0
M  V30 64 H -3.6989 1.2335 -0.4517 0
M  V30 65 H -1.4575 -1.0904 1.0381 0
M  V30 66 H 3.0654 0.483 0.7864 0
M  V30 67 H -5.2894 -1.5107 2.4504 0
M  V30 68 H -4.5392 2.9909 0.9052 0
M  V30 69 H 4.7366 3.7937 -1.2411 0
M  V30 70 H -7.289 -2.773 3.0435 0
M  V30 71 H 4.1444 -0.9597 -0.9004 0
M  V30 72 H -10.153 1.0312 1.6538 0
M  V30 73 H -9.7421 -2.9181 3.228 0
M  V30 74 H 6.656 5.2725 -1.1034 0
M  V30 75 H -11.1623 -1.0152 2.5358 0
M  V30 76 H 9.5644 1.5041 0.2753 0
M  V30 77 H 9.0329 5.6425 -0.5865 0
M  V30 78 H -7.2039 0.8335 -1.3852 0
M  V30 79 H 10.4655 3.7547 0.1051 0
M  V30 80 H -11.838 -0.6638 -2.3113 0
M  V30 81 H 8.1164 -2.9472 0.3516 0
M  V30 82 H -9.9467 -2.0193 -3.0853 0
M  V30 83 H 12.879 -2.9626 -1.037 0
M  V30 84 H 11.8937 -4.9841 -0.0536 0
M  V30 END ATOM
M  V30 BEGIN BOND
M  V30 1 1 1 2
M  V30 2 2 2 3
M  V30 3 1 2 4
M  V30 4 1 3 5
M  V30 5 1 3 6
M  V30 6 2 4 7
M  V30 7 1 5 8
M  V30 8 2 6 9
M  V30 9 1 7 10
M  V30 10 2 8 11
M  V30 11 1 8 12
M  V30 12 1 9 13
M  V30 13 1 10 14
M  V30 14 1 12 15
M  V30 15 2 12 16
M  V30 16 2 14 17
M  V30 17 1 14 18
M  V30 18 1 15 19
M  V30 19 2 15 20
M  V30 20 1 16 21
M  V30 21 1 18 22
M  V30 22 2 18 23
M  V30 23 1 20 24
M  V30 24 1 20 25
M  V30 25 2 21 26
M  V30 26 1 22 27
M  V30 27 2 22 28
M  V30 28 1 23 29
M  V30 29 2 24 30
M  V30 30 2 25 31
M  V30 31 1 26 32
M  V30 32 1 28 33
M  V30 33 1 28 34
M  V30 34 2 29 35
M  V30 35 1 30 36
M  V30 36 1 31 37
M  V30 37 2 33 38
M  V30 38 2 34 39
M  V30 39 1 35 40
M  V30 40 2 36 41
M  V30 41 1 36 42
M  V30 42 1 38 43
M  V30 43 1 39 44
M  V30 44 1 41 45
M  V30 45 1 41 46
M  V30 46 2 42 47
M  V30 47 2 43 48
M  V30 48 1 43 49
M  V30 49 2 46 50
M  V30 50 1 47 51
M  V30 51 1 48 52
M  V30 52 1 48 53
M  V30 53 2 49 54
M  V30 54 1 51 55
M  V30 55 1 51 56
M  V30 56 1 51 57
M  V30 57 2 53 58
M  V30 58 1 54 59
M  V30 59 1 59 60
M  V30 60 1 59 61
M  V30 61 1 59 62
M  V30 62 1 7 9
M  V30 63 1 21 25
M  V30 64 1 29 34
M  V30 65 2 32 37
M  V30 66 2 40 44
M  V30 67 1 47 50
M  V30 68 1 54 58
M  V30 69 1 4 63
M  V30 70 1 5 64
M  V30 71 1 6 65
M  V30 72 1 10 66
M  V30 73 1 16 67
M  V30 74 1 19 68
M  V30 75 1 23 69
M  V30 76 1 26 70
M  V30 77 1 27 71
M  V30 78 1 31 72
M  V30 79 1 32 73
M  V30 80 1 35 74
M  V30 81 1 37 75
M  V30 82 1 39 76
M  V30 83 1 40 77
M  V30 84 1 42 78
M  V30 85 1 44 79
M  V30 86 1 46 80
M  V30 87 1 49 81
M  V30 88 1 50 82
M  V30 89 1 53 83
M  V30 90 1 58 84
M  V30 END BOND
M  V30 END CTAB
M  END
>  <Structure No>
3032

>  <LogS>
-7.692243372

>  <MMFF94 Energy>
211.6

$$$$
Compound 3033
Actelion Java MolfileCreator 2.0

  0  0  0  0  0  0              0 V3000
M  V30 BEGIN CTAB
M  V30 COUNTS 41 43 0 0 0
M  V30 BEGIN ATOM
M  V30 1 C 0.1588 -0.8741 0.0794 0
M  V30 2 C -0.614 -0.7807 -1.1172 0
M  V30 3 C 0.5527 -2.1615 0.5465 0
M  V30 4 C 0.5948 0.3722 0.8389 0
M  V30 5 C -0.9658 -1.9553 -1.804 0
M  V30 6 C -1.1193 0.5366 -1.6778 0
M  V30 7 C 0.1855 -3.3072 -0.1757 0
M  V30 8 C 1.3785 -2.3413 1.7971 0
M  V30 9 C 2.0604 0.6767 0.6381 0
M  V30 10 C -0.5671 -3.2027 -1.3389 0
M  V30 11 C -2.3395 1.0291 -0.9366 0
M  V30 12 C 2.6086 0.7677 -0.6546 0
M  V30 13 C 2.8855 0.9287 1.7488 0
M  V30 14 C -3.4925 0.2278 -0.8467 0
M  V30 15 C -2.3591 2.3188 -0.3761 0
M  V30 16 C 3.961 1.0759 -0.8282 0
M  V30 17 C 4.2376 1.2364 1.5699 0
M  V30 18 C -4.6278 0.6953 -0.1776 0
M  V30 19 C -3.4967 2.782 0.2922 0
M  V30 20 C 4.7753 1.3081 0.2827 0
M  V30 21 C -4.6287 1.9699 0.3945 0
M  V30 22 H 0.0183 1.2691 0.5556 0
M  V30 23 H 0.3641 0.2368 1.9162 0
M  V30 24 H -1.5597 -1.9068 -2.7087 0
M  V30 25 H -0.3066 1.2925 -1.669 0
M  V30 26 H -1.3911 0.4251 -2.7501 0
M  V30 27 H 0.483 -4.2923 0.1622 0
M  V30 28 H 1.513 -3.4145 2.0501 0
M  V30 29 H 0.8797 -1.8617 2.664 0
M  V30 30 H 2.3867 -1.9033 1.6516 0
M  V30 31 H -0.8463 -4.0959 -1.8831 0
M  V30 32 H 1.995 0.5935 -1.5281 0
M  V30 33 H 2.4848 0.8819 2.7538 0
M  V30 34 H -3.5146 -0.7573 -1.294 0
M  V30 35 H -1.4952 2.9671 -0.4548 0
M  V30 36 H 4.3776 1.1367 -1.8253 0
M  V30 37 H 4.868 1.4219 2.4299 0
M  V30 38 H -5.5089 0.0707 -0.1063 0
M  V30 39 H -3.5017 3.7729 0.7277 0
M  V30 40 H 5.8221 1.5471 0.1461 0
M  V30 41 H -5.5089 2.3307 0.911 0
M  V30 END ATOM
M  V30 BEGIN BOND
M  V30 1 2 1 2
M  V30 2 1 1 3
M  V30 3 1 1 4
M  V30 4 1 2 5
M  V30 5 1 2 6
M  V30 6 2 3 7
M  V30 7 1 3 8
M  V30 8 1 4 9
M  V30 9 2 5 10
M  V30 10 1 6 11
M  V30 11 2 9 12
M  V30 12 1 9 13
M  V30 13 2 11 14
M  V30 14 1 11 15
M  V30 15 1 12 16
M  V30 16 2 13 17
M  V30 17 1 14 18
M  V30 18 2 15 19
M  V30 19 2 16 20
M  V30 20 2 18 21
M  V30 21 1 7 10
M  V30 22 1 17 20
M  V30 23 1 19 21
M  V30 24 1 4 22
M  V30 25 1 4 23
M  V30 26 1 5 24
M  V30 27 1 6 25
M  V30 28 1 6 26
M  V30 29 1 7 27
M  V30 30 1 8 28
M  V30 31 1 8 29
M  V30 32 1 8 30
M  V30 33 1 10 31
M  V30 34 1 12 32
M  V30 35 1 13 33
M  V30 36 1 14 34
M  V30 37 1 15 35
M  V30 38 1 16 36
M  V30 39 1 17 37
M  V30 40 1 18 38
M  V30 41 1 19 39
M  V30 42 1 20 40
M  V30 43 1 21 41
M  V30 END BOND
M  V30 END CTAB
M  END
>  <Structure No>
3033

>  <LogS>
-7.179920249

>  <MMFF94 Energy>
81.449

$$$$
Compound 3034
Actelion Java MolfileCreator 2.0

  0  0  0  0  0  0              0 V3000
M  V30 BEGIN CTAB
M  V30 COUNTS 5 4 0 0 0
M  V30 BEGIN ATOM
M  V30 1 O -0.4735 1.2631 0.0789 0
M  V30 2 C -0.3974 0.0084 0.0114 0
M  V30 3 O 0.8431 -0.6165 -0.0422 0
M  V30 4 O -1.5569 -0.7544 -0.0096 0 CHG=-1
M  V30 5 H 1.6987 -0.0742 -0.0276 0
M  V30 END ATOM
M  V30 BEGIN BOND
M  V30 1 2 1 2
M  V30 2 1 2 3
M  V30 3 1 2 4
M  V30 4 1 3 5
M  V30 END BOND
M  V30 END CTAB
M  END
>  <Structure No>
3034

>  <LogS>
-4.837536592

>  <MMFF94 Energy>
-89.96

$$$$
Compound 3035
Actelion Java MolfileCreator 2.0

  0  0  0  0  0  0              0 V3000
M  V30 BEGIN CTAB
M  V30 COUNTS 41 43 0 0 0
M  V30 BEGIN ATOM
M  V30 1 O 7.4613 2.9146 -0.8089 0
M  V30 2 C 6.5854 2.0351 -0.5968 0
M  V30 3 N 5.2714 2.3218 -0.4351 0
M  V30 4 N 6.8691 0.7138 -0.5062 0
M  V30 5 C 4.7088 1.1182 -0.2357 0
M  V30 6 C 5.6713 0.1502 -0.2769 0
M  V30 7 C 3.3692 0.8198 -6.0E-4 0
M  V30 8 C 5.3733 -1.194 -0.0799 0
M  V30 9 C 3.0172 -0.5397 0.1836 0
M  V30 10 C 4.029 -1.535 0.1601 0
M  V30 11 N 1.6613 -0.9289 0.4587 0
M  V30 12 C 0.5099 -0.3382 -0.1716 0
M  V30 13 O 0.6546 0.5666 -1.0382 0
M  V30 14 C -0.8581 -0.7727 0.1823 0
M  V30 15 N -1.8283 0.0807 0.0327 0
M  V30 16 C -1.1193 -2.152 0.6656 0
M  V30 17 N -3.1695 -0.2352 0.2988 0 CHG=-1
M  V30 18 O -1.9307 -2.3417 1.6112 0
M  V30 19 C -0.4462 -3.3379 0.0454 0
M  V30 20 C -4.2312 0.7139 0.1351 0
M  V30 21 C -5.5749 0.3458 0.4072 0
M  V30 22 C -3.944 2.0229 -0.2949 0
M  V30 23 C -5.9519 -1.0198 0.8618 0
M  V30 24 C -6.59 1.3082 0.2402 0
M  V30 25 C -4.9664 2.9582 -0.454 0
M  V30 26 O -5.088 -1.9259 0.9958 0
M  V30 27 O -7.2795 -1.3209 1.1459 0 CHG=-1
M  V30 28 C -6.2862 2.6019 -0.1867 0
M  V30 29 H 4.8067 3.2569 -0.4576 0
M  V30 30 H 7.799 0.2455 -0.5884 0
M  V30 31 H 2.639 1.615 0.066 0
M  V30 32 H 6.1469 -1.9503 -0.105 0
M  V30 33 H 3.7686 -2.5737 0.3199 0
M  V30 34 H 1.5213 -1.7312 1.1116 0
M  V30 35 H -1.2111 -4.0903 -0.2394 0
M  V30 36 H 0.2527 -3.7965 0.7754 0
M  V30 37 H 0.1155 -3.0483 -0.8674 0
M  V30 38 H -2.9269 2.3251 -0.5078 0
M  V30 39 H -7.6258 1.0628 0.4383 0
M  V30 40 H -4.7343 3.9624 -0.7851 0
M  V30 41 H -7.0775 3.33 -0.311 0
M  V30 END ATOM
M  V30 BEGIN BOND
M  V30 1 2 1 2
M  V30 2 1 2 3
M  V30 3 1 2 4
M  V30 4 1 3 5
M  V30 5 1 4 6
M  V30 6 1 5 7
M  V30 7 1 6 8
M  V30 8 2 7 9
M  V30 9 2 8 10
M  V30 10 1 9 11
M  V30 11 1 11 12
M  V30 12 2 12 13
M  V30 13 1 12 14
M  V30 14 2 14 15
M  V30 15 1 14 16
M  V30 16 1 15 17
M  V30 17 2 16 18
M  V30 18 1 16 19
M  V30 19 1 17 20
M  V30 20 2 20 21
M  V30 21 1 20 22
M  V30 22 1 21 23
M  V30 23 1 21 24
M  V30 24 2 22 25
M  V30 25 2 23 26
M  V30 26 1 23 27
M  V30 27 2 24 28
M  V30 28 2 5 6
M  V30 29 1 9 10
M  V30 30 1 25 28
M  V30 31 1 3 29
M  V30 32 1 4 30
M  V30 33 1 7 31
M  V30 34 1 8 32
M  V30 35 1 10 33
M  V30 36 1 11 34
M  V30 37 1 19 35
M  V30 38 1 19 36
M  V30 39 1 19 37
M  V30 40 1 22 38
M  V30 41 1 24 39
M  V30 42 1 25 40
M  V30 43 1 28 41
M  V30 END BOND
M  V30 END CTAB
M  END
>  <Structure No>
3035

>  <LogS>
-7.330901471

>  <MMFF94 Energy>
112.47

$$$$
Compound 3036
Actelion Java MolfileCreator 2.0

  0  0  0  0  0  0              0 V3000
M  V30 BEGIN CTAB
M  V30 COUNTS 84 89 0 0 0
M  V30 BEGIN ATOM
M  V30 1 O -13.3527 -4.7591 0.8859 0
M  V30 2 C -12.4094 -3.9295 0.8335 0
M  V30 3 N -11.1246 -4.2826 0.5911 0
M  V30 4 N -12.5832 -2.599 1.0181 0
M  V30 5 C -10.4658 -3.1111 0.6296 0
M  V30 6 C -11.3453 -2.099 0.883 0
M  V30 7 C -9.1042 -2.8756 0.4405 0
M  V30 8 C -10.9397 -0.7706 0.9512 0
M  V30 9 C -8.6433 -1.5378 0.5223 0
M  V30 10 C -9.5734 -0.4921 0.7597 0
M  V30 11 N -7.2577 -1.2089 0.3211 0
M  V30 12 C -6.1637 -2.0158 0.7976 0
M  V30 13 O -6.3883 -3.0183 1.5301 0
M  V30 14 C -4.7646 -1.6451 0.4817 0
M  V30 15 N -4.546 -0.6813 -0.3644 0
M  V30 16 C -3.648 -2.3478 1.1676 0
M  V30 17 N -3.2678 -0.1672 -0.625 0 CHG=-1
M  V30 18 O -3.7291 -2.5867 2.4013 0
M  V30 19 C -2.4203 -2.7794 0.4267 0
M  V30 20 C -3.0564 0.8901 -1.5657 0
M  V30 21 C -1.8563 1.6164 -1.523 0
M  V30 22 C -4.0538 1.2411 -2.4886 0
M  V30 23 O -0.8832 1.2472 -0.578 0
M  V30 24 C -1.6757 2.6969 -2.4085 0
M  V30 25 C -3.8538 2.3019 -3.3749 0
M  V30 26 C 0.1676 2.0888 -0.1005 0
M  V30 27 C -2.6642 3.0273 -3.3359 0
M  V30 28 C 1.4277 1.9649 -0.9698 0
M  V30 29 O 2.5374 2.6231 -0.353 0
M  V30 30 C 2.6609 4.0115 -0.1523 0
M  V30 31 C 3.6756 4.5068 0.7027 0
M  V30 32 C 1.787 4.9289 -0.771 0
M  V30 33 N 4.6775 3.6607 1.2814 0 CHG=-1
M  V30 34 C 3.7402 5.8787 0.9842 0
M  V30 35 C 1.8745 6.2946 -0.4876 0
M  V30 36 N 4.912 2.3436 0.8572 0
M  V30 37 C 2.838 6.768 0.401 0
M  V30 38 C 5.9385 1.6454 1.2475 0
M  V30 39 C 6.0864 0.2791 0.7199 0
M  V30 40 C 6.9769 2.2162 2.1467 0
M  V30 41 O 5.0699 -0.4662 0.6687 0
M  V30 42 N 7.3686 -0.1876 0.2572 0
M  V30 43 O 7.2376 3.4485 2.1174 0
M  V30 44 C 7.7814 1.3402 3.0644 0
M  V30 45 C 7.6152 -1.4881 -0.3037 0
M  V30 46 C 8.8682 -2.1009 -0.0785 0
M  V30 47 C 6.6578 -2.1319 -1.1383 0
M  V30 48 C 9.104 -3.3445 -0.6572 0
M  V30 49 C 6.933 -3.3905 -1.7099 0
M  V30 50 N 10.2098 -4.1058 -0.5748 0
M  V30 51 C 8.1716 -3.9683 -1.4378 0
M  V30 52 C 9.9028 -5.1917 -1.325 0
M  V30 53 N 8.6606 -5.1446 -1.8679 0
M  V30 54 O 10.6996 -6.1524 -1.5063 0
M  V30 55 H -10.7332 -5.2379 0.4264 0
M  V30 56 H -13.4681 -2.0824 1.22 0
M  V30 57 H -8.4366 -3.6952 0.2118 0
M  V30 58 H -11.65 0.0233 1.1378 0
M  V30 59 H -9.2308 0.5359 0.8001 0
M  V30 60 H -7.0455 -0.264 -0.0726 0
M  V30 61 H -2.0503 -3.7441 0.8371 0
M  V30 62 H -1.625 -2.0118 0.533 0
M  V30 63 H -2.6581 -2.9253 -0.6493 0
M  V30 64 H -4.9855 0.6914 -2.5295 0
M  V30 65 H -0.7707 3.2803 -2.4023 0
M  V30 66 H -4.6248 2.5626 -4.0889 0
M  V30 67 H 0.4188 1.7587 0.9302 0
M  V30 68 H -0.1834 3.141 -0.0268 0
M  V30 69 H -2.5067 3.8422 -4.0287 0
M  V30 70 H 1.2705 2.3622 -1.992 0
M  V30 71 H 1.6767 0.8875 -1.0715 0
M  V30 72 H 1.0307 4.6011 -1.4688 0
M  V30 73 H 4.5078 6.2613 1.6454 0
M  V30 74 H 1.1919 6.9868 -0.9608 0
M  V30 75 H 2.8944 7.8267 0.6263 0
M  V30 76 H 8.1973 0.4335 0.3933 0
M  V30 77 H 7.9361 1.8628 4.0324 0
M  V30 78 H 7.2509 0.3831 3.268 0
M  V30 79 H 8.7684 1.1162 2.6049 0
M  V30 80 H 9.6272 -1.621 0.5279 0
M  V30 81 H 5.7201 -1.6474 -1.3816 0
M  V30 82 H 6.2113 -3.8807 -2.347 0
M  V30 83 H 11.0979 -3.9035 -0.0593 0
M  V30 84 H 8.1977 -5.8505 -2.4831 0
M  V30 END ATOM
M  V30 BEGIN BOND
M  V30 1 2 1 2
M  V30 2 1 2 3
M  V30 3 1 2 4
M  V30 4 1 3 5
M  V30 5 1 4 6
M  V30 6 1 5 7
M  V30 7 1 6 8
M  V30 8 2 7 9
M  V30 9 2 8 10
M  V30 10 1 9 11
M  V30 11 1 11 12
M  V30 12 2 12 13
M  V30 13 1 12 14
M  V30 14 2 14 15
M  V30 15 1 14 16
M  V30 16 1 15 17
M  V30 17 2 16 18
M  V30 18 1 16 19
M  V30 19 1 17 20
M  V30 20 2 20 21
M  V30 21 1 20 22
M  V30 22 1 21 23
M  V30 23 1 21 24
M  V30 24 2 22 25
M  V30 25 1 23 26
M  V30 26 2 24 27
M  V30 27 1 26 28
M  V30 28 1 28 29
M  V30 29 1 29 30
M  V30 30 2 30 31
M  V30 31 1 30 32
M  V30 32 1 31 33
M  V30 33 1 31 34
M  V30 34 2 32 35
M  V30 35 1 33 36
M  V30 36 2 34 37
M  V30 37 2 36 38
M  V30 38 1 38 39
M  V30 39 1 38 40
M  V30 40 2 39 41
M  V30 41 1 39 42
M  V30 42 2 40 43
M  V30 43 1 40 44
M  V30 44 1 42 45
M  V30 45 2 45 46
M  V30 46 1 45 47
M  V30 47 1 46 48
M  V30 48 2 47 49
M  V30 49 1 48 50
M  V30 50 2 48 51
M  V30 51 1 50 52
M  V30 52 1 51 53
M  V30 53 2 52 54
M  V30 54 2 5 6
M  V30 55 1 9 10
M  V30 56 1 25 27
M  V30 57 1 35 37
M  V30 58 1 49 51
M  V30 59 1 52 53
M  V30 60 1 3 55
M  V30 61 1 4 56
M  V30 62 1 7 57
M  V30 63 1 8 58
M  V30 64 1 10 59
M  V30 65 1 11 60
M  V30 66 1 19 61
M  V30 67 1 19 62
M  V30 68 1 19 63
M  V30 69 1 22 64
M  V30 70 1 24 65
M  V30 71 1 25 66
M  V30 72 1 26 67
M  V30 73 1 26 68
M  V30 74 1 27 69
M  V30 75 1 28 70
M  V30 76 1 28 71
M  V30 77 1 32 72
M  V30 78 1 34 73
M  V30 79 1 35 74
M  V30 80 1 37 75
M  V30 81 1 42 76
M  V30 82 1 44 77
M  V30 83 1 44 78
M  V30 84 1 44 79
M  V30 85 1 46 80
M  V30 86 1 47 81
M  V30 87 1 49 82
M  V30 88 1 50 83
M  V30 89 1 53 84
M  V30 END BOND
M  V30 END CTAB
M  END
>  <Structure No>
3036

>  <LogS>
-7.634485568

>  <MMFF94 Energy>
95.603

$$$$
Compound 3037
Actelion Java MolfileCreator 2.0

  0  0  0  0  0  0              0 V3000
M  V30 BEGIN CTAB
M  V30 COUNTS 40 41 0 0 0
M  V30 BEGIN ATOM
M  V30 1 Cl -5.3809 -0.2517 -2.6878 0
M  V30 2 C -5.4879 -0.5202 -0.9527 0
M  V30 3 C -4.3777 -0.3066 -0.1114 0
M  V30 4 C -6.6953 -0.9826 -0.4151 0
M  V30 5 N -3.1456 0.1952 -0.6552 0
M  V30 6 C -4.5103 -0.5346 1.2702 0
M  V30 7 C -6.8099 -1.2212 0.9562 0
M  V30 8 C -1.8529 -0.3322 -0.3089 0
M  V30 9 C -5.7198 -0.9946 1.7982 0
M  V30 10 O -1.753 -1.2545 0.5455 0
M  V30 11 C -0.6235 0.1967 -0.9361 0
M  V30 12 N 0.4895 0.1081 -0.2686 0
M  V30 13 C -0.6559 0.782 -2.3004 0
M  V30 14 N 1.723 0.5397 -0.7797 0 CHG=-1
M  V30 15 O 0.0256 1.8101 -2.5581 0
M  V30 16 C -1.483 0.1751 -3.3922 0
M  V30 17 C 2.9418 0.4389 -0.0326 0
M  V30 18 C 4.1676 0.8726 -0.5978 0
M  V30 19 C 2.9314 -0.1119 1.261 0
M  V30 20 N 4.2351 1.4565 -1.9162 0 CHG=1
M  V30 21 C 5.3518 0.7248 0.1491 0
M  V30 22 C 4.1147 -0.2433 1.987 0
M  V30 23 O 3.2138 1.8964 -2.4827 0
M  V30 24 O 5.4494 1.6053 -2.5467 0 CHG=-1
M  V30 25 C 5.329 0.1671 1.4324 0
M  V30 26 S 6.8185 0.0079 2.3558 0
M  V30 27 O 6.7648 -1.2355 3.198 0
M  V30 28 O 6.9899 1.2083 3.2427 0
M  V30 29 O 8.1295 -0.1072 1.3112 0 CHG=-1
M  V30 30 H -7.5465 -1.1581 -1.0609 0
M  V30 31 H -3.2061 0.9549 -1.368 0
M  V30 32 H -3.6872 -0.3337 1.9434 0
M  V30 33 H -7.7461 -1.5767 1.3671 0
M  V30 34 H -5.8141 -1.1675 2.8625 0
M  V30 35 H -2.3282 0.8497 -3.6418 0
M  V30 36 H -0.8568 0.0365 -4.2982 0
M  V30 37 H -1.8823 -0.8155 -3.0892 0
M  V30 38 H 2.0064 -0.4458 1.7126 0
M  V30 39 H 6.2958 1.0573 -0.2625 0
M  V30 40 H 4.0828 -0.6668 2.9829 0
M  V30 END ATOM
M  V30 BEGIN BOND
M  V30 1 1 1 2
M  V30 2 2 2 3
M  V30 3 1 2 4
M  V30 4 1 3 5
M  V30 5 1 3 6
M  V30 6 2 4 7
M  V30 7 1 5 8
M  V30 8 2 6 9
M  V30 9 2 8 10
M  V30 10 1 8 11
M  V30 11 2 11 12
M  V30 12 1 11 13
M  V30 13 1 12 14
M  V30 14 2 13 15
M  V30 15 1 13 16
M  V30 16 1 14 17
M  V30 17 2 17 18
M  V30 18 1 17 19
M  V30 19 1 18 20
M  V30 20 1 18 21
M  V30 21 2 19 22
M  V30 22 2 20 23
M  V30 23 1 20 24
M  V30 24 2 21 25
M  V30 25 1 25 26
M  V30 26 2 26 27
M  V30 27 2 26 28
M  V30 28 1 26 29
M  V30 29 1 7 9
M  V30 30 1 22 25
M  V30 31 1 4 30
M  V30 32 1 5 31
M  V30 33 1 6 32
M  V30 34 1 7 33
M  V30 35 1 9 34
M  V30 36 1 16 35
M  V30 37 1 16 36
M  V30 38 1 16 37
M  V30 39 1 19 38
M  V30 40 1 21 39
M  V30 41 1 22 40
M  V30 END BOND
M  V30 END CTAB
M  END
>  <Structure No>
3037

>  <LogS>
-5.451460763

>  <MMFF94 Energy>
192.12

$$$$
Compound 3038
Actelion Java MolfileCreator 2.0

  0  0  0  0  0  0              0 V3000
M  V30 BEGIN CTAB
M  V30 COUNTS 36 36 0 0 0
M  V30 BEGIN ATOM
M  V30 1 C 0.0 -1.8042 0.2351 0
M  V30 2 C 1.403 -2.1988 -0.2744 0
M  V30 3 C -1.0387 -1.5844 -0.8813 0
M  V30 4 C 2.1438 -1.1365 -1.1228 0
M  V30 5 C -2.4298 -1.1688 -0.3502 0
M  V30 6 C 2.9663 -0.088 -0.3335 0
M  V30 7 C -2.4674 0.1331 0.4818 0
M  V30 8 C 2.1933 0.7926 0.6666 0
M  V30 9 C -2.1042 1.4036 -0.3236 0
M  V30 10 C 1.0356 1.5857 0.0272 0
M  V30 11 C -1.3474 2.4816 0.489 0
M  V30 12 C 0.0166 2.0578 1.0809 0
M  V30 13 H -0.3669 -2.6234 0.891 0
M  V30 14 H 0.0753 -0.9132 0.8698 0
M  V30 15 H 2.0364 -2.4721 0.5971 0
M  V30 16 H 1.2932 -3.1209 -0.8861 0
M  V30 17 H -0.6909 -0.837 -1.6154 0
M  V30 18 H -1.1565 -2.5378 -1.4402 0
M  V30 19 H 2.8789 -1.689 -1.7482 0
M  V30 20 H 1.4793 -0.65 -1.8599 0
M  V30 21 H -2.8277 -1.9957 0.2774 0
M  V30 22 H -3.1199 -1.0587 -1.2149 0
M  V30 23 H 3.4688 0.5788 -1.0675 0
M  V30 24 H 3.7716 -0.6166 0.2214 0
M  V30 25 H -1.8532 0.0115 1.3908 0
M  V30 26 H -3.5041 0.2587 0.8641 0
M  V30 27 H 2.9051 1.5209 1.1128 0
M  V30 28 H 1.8506 0.1583 1.5086 0
M  V30 29 H -3.0532 1.8605 -0.6809 0
M  V30 30 H -1.5522 1.1722 -1.2522 0
M  V30 31 H 1.4411 2.4636 -0.5207 0
M  V30 32 H 0.5279 0.9538 -0.7105 0
M  V30 33 H -2.0008 2.8161 1.3239 0
M  V30 34 H -1.1855 3.3633 -0.1684 0
M  V30 35 H -0.1401 1.2815 1.8553 0
M  V30 36 H 0.4505 2.9317 1.6137 0
M  V30 END ATOM
M  V30 BEGIN BOND
M  V30 1 1 1 2
M  V30 2 1 1 3
M  V30 3 1 2 4
M  V30 4 1 3 5
M  V30 5 1 4 6
M  V30 6 1 5 7
M  V30 7 1 6 8
M  V30 8 1 7 9
M  V30 9 1 8 10
M  V30 10 1 9 11
M  V30 11 1 10 12
M  V30 12 1 11 12
M  V30 13 1 1 13
M  V30 14 1 1 14
M  V30 15 1 2 15
M  V30 16 1 2 16
M  V30 17 1 3 17
M  V30 18 1 3 18
M  V30 19 1 4 19
M  V30 20 1 4 20
M  V30 21 1 5 21
M  V30 22 1 5 22
M  V30 23 1 6 23
M  V30 24 1 6 24
M  V30 25 1 7 25
M  V30 26 1 7 26
M  V30 27 1 8 27
M  V30 28 1 8 28
M  V30 29 1 9 29
M  V30 30 1 9 30
M  V30 31 1 10 31
M  V30 32 1 10 32
M  V30 33 1 11 33
M  V30 34 1 11 34
M  V30 35 1 12 35
M  V30 36 1 12 36
M  V30 END BOND
M  V30 END CTAB
M  END
>  <Structure No>
3038

>  <LogS>
-7.02202606

>  <MMFF94 Energy>
19.936

$$$$
Compound 3039
Actelion Java MolfileCreator 2.0

  0  0  0  0  0  0              0 V3000
M  V30 BEGIN CTAB
M  V30 COUNTS 60 61 0 0 0
M  V30 BEGIN ATOM
M  V30 1 O 1.1089 -1.1881 -0.6335 0
M  V30 2 C 1.8807 -0.1905 -0.6656 0
M  V30 3 O 3.2629 -0.3811 -0.7598 0
M  V30 4 C 1.3404 1.1868 -0.5559 0
M  V30 5 C 3.8602 -1.6714 -0.8434 0
M  V30 6 C 0.0068 1.5239 -0.9166 0
M  V30 7 C 2.1762 2.1884 -0.0274 0
M  V30 8 C 5.3814 -1.5394 -0.9077 0
M  V30 9 C -0.9046 0.5609 -1.5771 0
M  V30 10 C -0.454 2.8358 -0.7065 0
M  V30 11 C 1.7014 3.4865 0.1666 0
M  V30 12 C 5.9522 -0.9336 0.3816 0
M  V30 13 O -0.5016 -0.0411 -2.6092 0
M  V30 14 C -2.2763 0.3081 -1.0594 0
M  V30 15 C 0.387 3.8077 -0.1655 0
M  V30 16 C 7.4829 -0.8357 0.3113 0
M  V30 17 C -3.3051 -0.1596 -1.906 0
M  V30 18 C -2.5603 0.5143 0.3033 0
M  V30 19 C 8.0851 -0.1202 1.5302 0
M  V30 20 O -3.0654 -0.3663 -3.2646 0
M  V30 21 C -4.5831 -0.4105 -1.385 0
M  V30 22 C -3.8354 0.2646 0.8126 0
M  V30 23 C 7.9894 -0.9499 2.8104 0
M  V30 24 C -4.8564 -0.2015 -0.0259 0
M  V30 25 N -6.1709 -0.4659 0.504 0
M  V30 26 C -7.3455 0.193 -0.0862 0
M  V30 27 C -6.3308 -1.3965 1.6314 0
M  V30 28 C -7.3123 1.6924 0.1881 0
M  V30 29 C -6.0179 -2.8233 1.1945 0
M  V30 30 H 3.5019 -2.1839 -1.7624 0
M  V30 31 H 3.5706 -2.282 0.0397 0
M  V30 32 H 3.1956 1.9624 0.2607 0
M  V30 33 H 5.8187 -2.5492 -1.0663 0
M  V30 34 H 5.6539 -0.9018 -1.7771 0
M  V30 35 H -1.4645 3.1129 -0.9827 0
M  V30 36 H 2.3532 4.2437 0.583 0
M  V30 37 H 5.5257 0.0821 0.5334 0
M  V30 38 H 5.6577 -1.5742 1.2399 0
M  V30 39 H 0.0217 4.8152 -0.0129 0
M  V30 40 H 7.9236 -1.8525 0.2163 0
M  V30 41 H 7.7648 -0.2597 -0.5972 0
M  V30 42 H -1.7913 0.8586 0.9834 0
M  V30 43 H 9.1593 0.0789 1.3243 0
M  V30 44 H 7.5856 0.8611 1.6836 0
M  V30 45 H -3.7903 -0.7015 -3.8887 0
M  V30 46 H -5.3585 -0.7847 -2.04 0
M  V30 47 H -4.028 0.4486 1.8612 0
M  V30 48 H 6.9323 -1.0593 3.1302 0
M  V30 49 H 8.4364 -1.9551 2.6571 0
M  V30 50 H 8.5444 -0.4375 3.6243 0
M  V30 51 H -7.3764 0.0153 -1.181 0
M  V30 52 H -8.2873 -0.222 0.3325 0
M  V30 53 H -5.6593 -1.1087 2.4668 0
M  V30 54 H -7.3681 -1.3664 2.0294 0
M  V30 55 H -7.2734 1.8775 1.2825 0
M  V30 56 H -6.4237 2.1537 -0.2927 0
M  V30 57 H -8.2267 2.1682 -0.2242 0
M  V30 58 H -6.6872 -3.1207 0.3597 0
M  V30 59 H -4.9613 -2.9023 0.8608 0
M  V30 60 H -6.1745 -3.5182 2.0463 0
M  V30 END ATOM
M  V30 BEGIN BOND
M  V30 1 2 1 2
M  V30 2 1 2 3
M  V30 3 1 2 4
M  V30 4 1 3 5
M  V30 5 2 4 6
M  V30 6 1 4 7
M  V30 7 1 5 8
M  V30 8 1 6 9
M  V30 9 1 6 10
M  V30 10 2 7 11
M  V30 11 1 8 12
M  V30 12 2 9 13
M  V30 13 1 9 14
M  V30 14 2 10 15
M  V30 15 1 12 16
M  V30 16 2 14 17
M  V30 17 1 14 18
M  V30 18 1 16 19
M  V30 19 1 17 20
M  V30 20 1 17 21
M  V30 21 2 18 22
M  V30 22 1 19 23
M  V30 23 2 21 24
M  V30 24 1 24 25
M  V30 25 1 25 26
M  V30 26 1 25 27
M  V30 27 1 26 28
M  V30 28 1 27 29
M  V30 29 1 11 15
M  V30 30 1 22 24
M  V30 31 1 5 30
M  V30 32 1 5 31
M  V30 33 1 7 32
M  V30 34 1 8 33
M  V30 35 1 8 34
M  V30 36 1 10 35
M  V30 37 1 11 36
M  V30 38 1 12 37
M  V30 39 1 12 38
M  V30 40 1 15 39
M  V30 41 1 16 40
M  V30 42 1 16 41
M  V30 43 1 18 42
M  V30 44 1 19 43
M  V30 45 1 19 44
M  V30 46 1 20 45
M  V30 47 1 21 46
M  V30 48 1 22 47
M  V30 49 1 23 48
M  V30 50 1 23 49
M  V30 51 1 23 50
M  V30 52 1 26 51
M  V30 53 1 26 52
M  V30 54 1 27 53
M  V30 55 1 27 54
M  V30 56 1 28 55
M  V30 57 1 28 56
M  V30 58 1 28 57
M  V30 59 1 29 58
M  V30 60 1 29 59
M  V30 61 1 29 60
M  V30 END BOND
M  V30 END CTAB
M  END
>  <Structure No>
3039

>  <LogS>
-7.395233539

>  <MMFF94 Energy>
66.439

$$$$
Compound 3040
Actelion Java MolfileCreator 2.0

  0  0  0  0  0  0              0 V3000
M  V30 BEGIN CTAB
M  V30 COUNTS 25 24 0 0 0
M  V30 BEGIN ATOM
M  V30 1 O -0.861 2.1145 1.2526 0
M  V30 2 C -1.0966 0.8788 1.3059 0
M  V30 3 O -1.4497 0.3004 2.5196 0 CHG=-1
M  V30 4 C -0.9921 0.035 0.0613 0 CFG=1
M  V30 5 C 0.0878 -1.0591 0.227 0
M  V30 6 C -2.3538 -0.6107 -0.2722 0
M  V30 7 C 1.5021 -0.518 0.5122 0
M  V30 8 C -3.4185 0.4256 -0.6355 0
M  V30 9 C 2.0935 0.2581 -0.6735 0
M  V30 10 C 3.5536 0.6217 -0.4187 0
M  V30 11 H -0.7101 0.6813 -0.7982 0
M  V30 12 H 0.1265 -1.6833 -0.6927 0
M  V30 13 H -0.2019 -1.7335 1.0631 0
M  V30 14 H -2.7132 -1.2189 0.587 0
M  V30 15 H -2.234 -1.2938 -1.1416 0
M  V30 16 H 2.1578 -1.3889 0.7329 0
M  V30 17 H 1.4936 0.1251 1.4185 0
M  V30 18 H -3.0802 1.0425 -1.495 0
M  V30 19 H -4.3581 -0.0929 -0.9204 0
M  V30 20 H -3.633 1.0874 0.2299 0
M  V30 21 H 2.0329 -0.3576 -1.5969 0
M  V30 22 H 1.5247 1.198 -0.835 0
M  V30 23 H 4.164 -0.2973 -0.2902 0
M  V30 24 H 3.6407 1.2509 0.4928 0
M  V30 25 H 3.9509 1.193 -1.284 0
M  V30 END ATOM
M  V30 BEGIN BOND
M  V30 1 2 1 2
M  V30 2 1 2 3
M  V30 3 1 2 4
M  V30 4 1 4 5
M  V30 5 1 4 6
M  V30 6 1 5 7
M  V30 7 1 6 8
M  V30 8 1 7 9
M  V30 9 1 9 10
M  V30 10 1 4 11
M  V30 11 1 5 12
M  V30 12 1 5 13
M  V30 13 1 6 14
M  V30 14 1 6 15
M  V30 15 1 7 16
M  V30 16 1 7 17
M  V30 17 1 8 18
M  V30 18 1 8 19
M  V30 19 1 8 20
M  V30 20 1 9 21
M  V30 21 1 9 22
M  V30 22 1 10 23
M  V30 23 1 10 24
M  V30 24 1 10 25
M  V30 END BOND
M  V30 BEGIN COLLECTION
M  V30 MDLV30/STEABS ATOMS=(1 4)
M  V30 END COLLECTION
M  V30 END CTAB
M  END
>  <Structure No>
3040

>  <LogS>
-5.347977516

>  <MMFF94 Energy>
8.0288

$$$$
Compound 3041
Actelion Java MolfileCreator 2.0

  0  0  0  0  0  0              0 V3000
M  V30 BEGIN CTAB
M  V30 COUNTS 47 48 0 0 0
M  V30 BEGIN ATOM
M  V30 1 Cl 2.4734 -3.5837 2.3027 0
M  V30 2 C 1.1475 -3.65 1.1478 0
M  V30 3 C -0.1508 -3.6876 1.4551 0
M  V30 4 C 1.2498 -3.8583 -0.3489 0 CFG=1
M  V30 5 Cl -0.8248 -3.666 3.0805 0
M  V30 6 C -0.9027 -3.9094 0.1601 0 CFG=1
M  V30 7 Cl 2.8338 -4.4485 -0.9369 0
M  V30 8 C 0.0863 -4.8369 -0.5538 0
M  V30 9 C 0.7277 -2.5622 -1.0464 0 CFG=1
M  V30 10 Cl -2.56 -4.558 0.3381 0
M  V30 11 C -0.8017 -2.6027 -0.6816 0 CFG=2
M  V30 12 Cl -0.3122 -5.1918 -2.2761 0
M  V30 13 Cl 0.3176 -6.4281 0.2701 0
M  V30 14 C 1.4853 -1.2996 -0.6864 0
M  V30 15 C -1.3889 -1.3952 0.0163 0
M  V30 16 O 2.6304 -1.3739 -0.1615 0
M  V30 17 O 0.9596 -0.0534 -1.049 0
M  V30 18 O -0.8525 -0.9248 1.0576 0
M  V30 19 O -2.565 -0.8299 -0.4907 0
M  V30 20 C 1.634 1.1841 -0.8231 0
M  V30 21 C -3.1416 0.3708 0.0181 0
M  V30 22 C 1.6666 1.5289 0.6737 0
M  V30 23 C -2.375 1.5874 -0.505 0
M  V30 24 C 2.1358 2.9674 0.9368 0
M  V30 25 C -2.9466 2.8914 0.06 0
M  V30 26 C 3.6161 3.1709 0.6166 0
M  V30 27 C -2.1543 4.0973 -0.4366 0
M  V30 28 H 0.8371 -2.6792 -2.1472 0
M  V30 29 H -1.3807 -2.7387 -1.6225 0
M  V30 30 H 2.6641 1.1267 -1.2353 0
M  V30 31 H 1.0853 1.9785 -1.3724 0
M  V30 32 H -4.1953 0.4284 -0.3287 0
M  V30 33 H -3.1454 0.3529 1.1303 0
M  V30 34 H 0.6444 1.4187 1.0922 0
M  V30 35 H 2.3243 0.8174 1.2169 0
M  V30 36 H -2.4331 1.6028 -1.6154 0
M  V30 37 H -1.3094 1.4998 -0.2144 0
M  V30 38 H 1.976 3.1983 2.0124 0
M  V30 39 H 1.5248 3.6837 0.3457 0
M  V30 40 H -2.9055 2.8687 1.171 0
M  V30 41 H -4.0081 3.0017 -0.2521 0
M  V30 42 H 4.2377 2.4333 1.1675 0
M  V30 43 H 3.7992 3.0688 -0.4731 0
M  V30 44 H 3.9232 4.1925 0.9251 0
M  V30 45 H -2.1963 4.1566 -1.545 0
M  V30 46 H -2.589 5.0277 -0.0139 0
M  V30 47 H -1.0942 4.0218 -0.1132 0
M  V30 END ATOM
M  V30 BEGIN BOND
M  V30 1 1 1 2
M  V30 2 2 2 3
M  V30 3 1 2 4
M  V30 4 1 3 5
M  V30 5 1 3 6
M  V30 6 1 4 7
M  V30 7 1 4 8
M  V30 8 1 4 9
M  V30 9 1 6 10
M  V30 10 1 6 11
M  V30 11 1 8 12
M  V30 12 1 8 13
M  V30 13 1 9 14
M  V30 14 1 11 15
M  V30 15 2 14 16
M  V30 16 1 14 17
M  V30 17 2 15 18
M  V30 18 1 15 19
M  V30 19 1 17 20
M  V30 20 1 19 21
M  V30 21 1 20 22
M  V30 22 1 21 23
M  V30 23 1 22 24
M  V30 24 1 23 25
M  V30 25 1 24 26
M  V30 26 1 25 27
M  V30 27 1 6 8
M  V30 28 1 9 11
M  V30 29 1 9 28
M  V30 30 1 11 29
M  V30 31 1 20 30
M  V30 32 1 20 31
M  V30 33 1 21 32
M  V30 34 1 21 33
M  V30 35 1 22 34
M  V30 36 1 22 35
M  V30 37 1 23 36
M  V30 38 1 23 37
M  V30 39 1 24 38
M  V30 40 1 24 39
M  V30 41 1 25 40
M  V30 42 1 25 41
M  V30 43 1 26 42
M  V30 44 1 26 43
M  V30 45 1 26 44
M  V30 46 1 27 45
M  V30 47 1 27 46
M  V30 48 1 27 47
M  V30 END BOND
M  V30 BEGIN COLLECTION
M  V30 MDLV30/STEABS ATOMS=(4 4 6 9 11)
M  V30 END COLLECTION
M  V30 END CTAB
M  END
>  <Structure No>
3041

>  <LogS>
-7.509558903

>  <MMFF94 Energy>
-19.441

$$$$
Compound 3042
Actelion Java MolfileCreator 2.0

  0  0  0  0  0  0              0 V3000
M  V30 BEGIN CTAB
M  V30 COUNTS 31 35 0 0 0
M  V30 BEGIN ATOM
M  V30 1 O 1.3932 2.8699 0.8193 0
M  V30 2 C 1.4894 1.6514 0.5187 0
M  V30 3 N 0.3852 0.7724 0.2905 0
M  V30 4 C 2.739 0.9081 0.3467 0
M  V30 5 C -1.0382 0.942 0.3187 0
M  V30 6 C 0.9647 -0.4886 -0.016 0
M  V30 7 C 2.4185 -0.3983 0.0203 0
M  V30 8 C 4.0645 1.3226 0.4622 0
M  V30 9 C -1.826 -0.1901 0.031 0
M  V30 10 C -1.6564 2.1654 0.6157 0
M  V30 11 N 0.2421 -1.5337 -0.2816 0
M  V30 12 C 3.4025 -1.3575 -0.2076 0
M  V30 13 C 5.0764 0.3717 0.2365 0
M  V30 14 C -1.1966 -1.4255 -0.2687 0
M  V30 15 C -3.2346 -0.095 0.041 0
M  V30 16 C -3.0529 2.2565 0.6248 0
M  V30 17 C 4.7472 -0.9607 -0.0964 0
M  V30 18 C -1.9833 -2.5463 -0.5536 0
M  V30 19 C -4.0043 -1.232 -0.2478 0
M  V30 20 C -3.8406 1.135 0.3397 0
M  V30 21 C -3.3792 -2.449 -0.543 0
M  V30 22 H 4.3093 2.3454 0.7178 0
M  V30 23 H -1.074 3.0468 0.8396 0
M  V30 24 H 3.1413 -2.3764 -0.4623 0
M  V30 25 H 6.115 0.6639 0.319 0
M  V30 26 H -3.528 3.2018 0.8544 0
M  V30 27 H 5.5355 -1.6821 -0.2673 0
M  V30 28 H -1.5138 -3.4944 -0.7838 0
M  V30 29 H -5.0865 -1.18 -0.2453 0
M  V30 30 H -4.92 1.2291 0.3526 0
M  V30 31 H -3.98 -3.3215 -0.7648 0
M  V30 END ATOM
M  V30 BEGIN BOND
M  V30 1 2 1 2
M  V30 2 1 2 3
M  V30 3 1 2 4
M  V30 4 1 3 5
M  V30 5 1 3 6
M  V30 6 2 4 7
M  V30 7 1 4 8
M  V30 8 1 5 9
M  V30 9 2 5 10
M  V30 10 2 6 11
M  V30 11 1 7 12
M  V30 12 2 8 13
M  V30 13 2 9 14
M  V30 14 1 9 15
M  V30 15 1 10 16
M  V30 16 2 12 17
M  V30 17 1 14 18
M  V30 18 2 15 19
M  V30 19 1 15 20
M  V30 20 2 18 21
M  V30 21 1 6 7
M  V30 22 1 11 14
M  V30 23 1 13 17
M  V30 24 2 16 20
M  V30 25 1 19 21
M  V30 26 1 8 22
M  V30 27 1 10 23
M  V30 28 1 12 24
M  V30 29 1 13 25
M  V30 30 1 16 26
M  V30 31 1 17 27
M  V30 32 1 18 28
M  V30 33 1 19 29
M  V30 34 1 20 30
M  V30 35 1 21 31
M  V30 END BOND
M  V30 END CTAB
M  END
>  <Structure No>
3042

>  <LogS>
-7.255740326

>  <MMFF94 Energy>
55.977

$$$$
Compound 3043
Actelion Java MolfileCreator 2.0

  0  0  0  0  0  0              0 V3000
M  V30 BEGIN CTAB
M  V30 COUNTS 36 40 0 0 0
M  V30 BEGIN ATOM
M  V30 1 Cl 7.6648 -0.5816 1.413 0
M  V30 2 C 6.1206 -0.1952 0.6753 0
M  V30 3 C 4.9316 -0.6024 1.2888 0
M  V30 4 C 6.081 0.5191 -0.5244 0
M  V30 5 C 3.6873 -0.2961 0.703 0
M  V30 6 C 4.8549 0.8298 -1.1165 0
M  V30 7 C 2.4748 -0.6928 1.2974 0
M  V30 8 C 3.6525 0.4277 -0.5123 0
M  V30 9 O 2.4831 -1.3397 2.3826 0
M  V30 10 C 1.253 -0.3657 0.678 0
M  V30 11 N 2.4573 0.733 -1.0937 0
M  V30 12 C 1.2698 0.3587 -0.5353 0
M  V30 13 C 0.0202 -0.7438 1.2402 0
M  V30 14 C 0.061 0.6927 -1.1654 0
M  V30 15 C -1.1885 -0.41 0.6103 0
M  V30 16 C -1.1717 0.3144 -0.6031 0
M  V30 17 N -2.376 -0.7843 1.1684 0
M  V30 18 C -2.3935 0.6416 -1.2226 0
M  V30 19 C -3.5712 -0.4789 0.587 0
M  V30 20 O -2.4019 1.2885 -2.3075 0
M  V30 21 C -3.606 0.2449 -0.6282 0
M  V30 22 C -4.7737 -0.8811 1.1912 0
M  V30 23 C -4.8503 0.5512 -1.214 0
M  V30 24 C -5.9997 -0.5704 0.5992 0
M  V30 25 C -6.0393 0.1439 -0.6004 0
M  V30 26 Cl -7.5835 0.5304 -1.3382 0
M  V30 27 H 4.9849 -1.1553 2.2189 0
M  V30 28 H 7.0008 0.8348 -1.0 0
M  V30 29 H 4.8433 1.3843 -2.0467 0
M  V30 30 H 2.4519 1.2692 -1.9926 0
M  V30 31 H -0.0065 -1.2996 2.1704 0
M  V30 32 H 0.0877 1.2484 -2.0955 0
M  V30 33 H -2.3708 -1.3203 2.0675 0
M  V30 34 H -4.7622 -1.4355 2.1216 0
M  V30 35 H -4.9037 1.1041 -2.144 0
M  V30 36 H -6.9198 -0.8861 1.0747 0
M  V30 END ATOM
M  V30 BEGIN BOND
M  V30 1 1 1 2
M  V30 2 2 2 3
M  V30 3 1 2 4
M  V30 4 1 3 5
M  V30 5 2 4 6
M  V30 6 1 5 7
M  V30 7 2 5 8
M  V30 8 2 7 9
M  V30 9 1 7 10
M  V30 10 1 8 11
M  V30 11 2 10 12
M  V30 12 1 10 13
M  V30 13 1 12 14
M  V30 14 2 13 15
M  V30 15 2 14 16
M  V30 16 1 15 17
M  V30 17 1 16 18
M  V30 18 1 17 19
M  V30 19 2 18 20
M  V30 20 1 18 21
M  V30 21 1 19 22
M  V30 22 1 21 23
M  V30 23 2 22 24
M  V30 24 2 23 25
M  V30 25 1 25 26
M  V30 26 1 6 8
M  V30 27 1 11 12
M  V30 28 1 15 16
M  V30 29 2 19 21
M  V30 30 1 24 25
M  V30 31 1 3 27
M  V30 32 1 4 28
M  V30 33 1 6 29
M  V30 34 1 11 30
M  V30 35 1 13 31
M  V30 36 1 14 32
M  V30 37 1 17 33
M  V30 38 1 22 34
M  V30 39 1 23 35
M  V30 40 1 24 36
M  V30 END BOND
M  V30 END CTAB
M  END
>  <Structure No>
3043

>  <LogS>
-7.419805396

>  <MMFF94 Energy>
78.516

$$$$
Compound 3044
Actelion Java MolfileCreator 2.0

  0  0  0  0  0  0              0 V3000
M  V30 BEGIN CTAB
M  V30 COUNTS 42 44 0 0 0
M  V30 BEGIN ATOM
M  V30 1 F -1.5435 -2.0313 -2.1127 0
M  V30 2 C -2.7399 -1.4429 -2.4821 0
M  V30 3 F -2.5528 -0.0779 -2.6061 0
M  V30 4 F -3.1111 -1.947 -3.7169 0
M  V30 5 C -3.7874 -1.7159 -1.4241 0
M  V30 6 C -3.5832 -1.2857 -0.0929 0
M  V30 7 C -4.9775 -2.3971 -1.7483 0
M  V30 8 N -2.3789 -0.5903 0.2518 0 CHG=-1
M  V30 9 C -4.5633 -1.5439 0.8817 0
M  V30 10 C -5.9421 -2.6463 -0.7694 0
M  V30 11 N -2.1121 -0.141 1.5541 0
M  V30 12 C -5.7356 -2.2208 0.5422 0
M  V30 13 C -1.016 0.4867 1.8635 0
M  V30 14 C -7.0E-4 0.7842 0.8276 0
M  V30 15 C -0.8172 0.906 3.2693 0
M  V30 16 O -0.3607 1.3467 -0.2417 0
M  V30 17 N 1.3793 0.4482 1.046 0
M  V30 18 O -1.5386 0.4009 4.1715 0
M  V30 19 C 0.2203 1.9147 3.6627 0
M  V30 20 C 2.409 0.5991 0.0553 0
M  V30 21 C 3.7052 0.9812 0.4662 0
M  V30 22 C 2.1621 0.3112 -1.3164 0
M  V30 23 C 4.6914 1.0971 -0.5093 0
M  V30 24 C 3.1862 0.4386 -2.2738 0
M  V30 25 N 5.9786 1.4499 -0.3554 0
M  V30 26 C 4.441 0.8394 -1.8267 0
M  V30 27 C 6.4758 1.3923 -1.614 0
M  V30 28 N 5.5628 1.021 -2.5433 0
M  V30 29 O 7.6745 1.6575 -1.8937 0
M  V30 30 H -5.1677 -2.7395 -2.7571 0
M  V30 31 H -4.4239 -1.2223 1.9057 0
M  V30 32 H -6.8527 -3.1706 -1.0293 0
M  V30 33 H -6.4856 -2.4159 1.2979 0
M  V30 34 H 1.6663 0.1185 1.9944 0
M  V30 35 H -0.1403 2.5081 4.5294 0
M  V30 36 H 1.1567 1.3963 3.9545 0
M  V30 37 H 0.4279 2.6174 2.8286 0
M  V30 38 H 3.9274 1.1879 1.5057 0
M  V30 39 H 1.191 -0.0375 -1.6407 0
M  V30 40 H 3.006 0.2205 -3.3185 0
M  V30 41 H 6.4779 1.706 0.5255 0
M  V30 42 H 5.6994 0.9012 -3.5717 0
M  V30 END ATOM
M  V30 BEGIN BOND
M  V30 1 1 1 2
M  V30 2 1 2 3
M  V30 3 1 2 4
M  V30 4 1 2 5
M  V30 5 2 5 6
M  V30 6 1 5 7
M  V30 7 1 6 8
M  V30 8 1 6 9
M  V30 9 2 7 10
M  V30 10 1 8 11
M  V30 11 2 9 12
M  V30 12 2 11 13
M  V30 13 1 13 14
M  V30 14 1 13 15
M  V30 15 2 14 16
M  V30 16 1 14 17
M  V30 17 2 15 18
M  V30 18 1 15 19
M  V30 19 1 17 20
M  V30 20 2 20 21
M  V30 21 1 20 22
M  V30 22 1 21 23
M  V30 23 2 22 24
M  V30 24 1 23 25
M  V30 25 2 23 26
M  V30 26 1 25 27
M  V30 27 1 26 28
M  V30 28 2 27 29
M  V30 29 1 10 12
M  V30 30 1 24 26
M  V30 31 1 27 28
M  V30 32 1 7 30
M  V30 33 1 9 31
M  V30 34 1 10 32
M  V30 35 1 12 33
M  V30 36 1 17 34
M  V30 37 1 19 35
M  V30 38 1 19 36
M  V30 39 1 19 37
M  V30 40 1 21 38
M  V30 41 1 22 39
M  V30 42 1 24 40
M  V30 43 1 25 41
M  V30 44 1 28 42
M  V30 END BOND
M  V30 END CTAB
M  END
>  <Structure No>
3044

>  <LogS>
-7.455526833

>  <MMFF94 Energy>
50.566

$$$$
Compound 3045
Actelion Java MolfileCreator 2.0

  0  0  0  0  0  0              0 V3000
M  V30 BEGIN CTAB
M  V30 COUNTS 108 114 0 0 0
M  V30 BEGIN ATOM
M  V30 1 Cl -10.8515 3.6617 4.0691 0
M  V30 2 C -10.5584 2.0648 3.3323 0
M  V30 3 C -9.1439 1.6069 3.6212 0
M  V30 4 O -8.8772 0.4021 2.934 0
M  V30 5 C -7.693 -0.3247 3.1036 0
M  V30 6 O -6.8438 0.0573 3.9582 0
M  V30 7 C -7.423 -1.5393 2.2866 0
M  V30 8 C -8.0324 -1.7513 1.0176 0
M  V30 9 C -6.5176 -2.4999 2.7828 0
M  V30 10 N -8.9087 -0.7494 0.4703 0
M  V30 11 C -7.8221 -2.9853 0.3515 0
M  V30 12 C -6.2544 -3.6685 2.072 0
M  V30 13 N -8.7141 -0.1222 -0.6283 0
M  V30 14 C -6.909 -3.9153 0.874 0
M  V30 15 C -8.5372 -3.3597 -0.9119 0
M  V30 16 C -7.5495 -0.2935 -1.4523 0
M  V30 17 C -6.2662 0.049 -0.969 0
M  V30 18 C -7.6919 -0.7749 -2.7755 0
M  V30 19 O -6.1551 0.7421 0.2405 0
M  V30 20 C -5.1155 -0.2474 -1.744 0
M  V30 21 C -6.5436 -1.1011 -3.5315 0
M  V30 22 C -8.9625 -0.9505 -3.3632 0
M  V30 23 C -3.7311 0.1706 -1.3788 0
M  V30 24 C -5.278 -0.863 -2.999 0
M  V30 25 C -6.6718 -1.6095 -4.8376 0
M  V30 26 C -9.0755 -1.4441 -4.6722 0
M  V30 27 O -2.8908 0.3139 -2.3245 0
M  V30 28 N -3.2926 0.4245 -0.025 0
M  V30 29 C -7.9375 -1.7728 -5.4005 0
M  V30 30 C -1.9559 0.8831 0.2102 0
M  V30 31 C -1.7133 2.1295 0.8173 0
M  V30 32 C -0.8909 0.1711 -0.354 0
M  V30 33 C -0.3982 2.6384 0.8467 0
M  V30 34 C -2.8424 2.938 1.404 0
M  V30 35 C 0.3854 0.7215 -0.4344 0
M  V30 36 C 0.6511 1.9637 0.1953 0
M  V30 37 C 1.4335 -0.0295 -1.2262 0
M  V30 38 N 1.9693 2.5482 0.1158 0
M  V30 39 C 2.5541 3.3769 1.1332 0
M  V30 40 O 1.9798 4.4404 1.5031 0
M  V30 41 C 3.9197 3.0817 1.6199 0
M  V30 42 C 4.4492 1.7648 1.5611 0
M  V30 43 C 4.7409 4.142 2.0626 0
M  V30 44 O 3.6341 0.6758 1.254 0
M  V30 45 C 5.8061 1.5323 1.8385 0
M  V30 46 C 6.0758 3.9064 2.4231 0
M  V30 47 N 6.4925 0.4469 1.1816 0
M  V30 48 C 6.6038 2.5865 2.3236 0
M  V30 49 C 6.9109 4.962 2.8272 0
M  V30 50 N 6.5334 0.467 -0.0893 0
M  V30 51 C 7.9545 2.3565 2.6528 0
M  V30 52 C 8.248 4.716 3.1368 0
M  V30 53 C 7.3692 -0.4174 -0.8504 0
M  V30 54 C 8.7742 3.4231 3.0497 0
M  V30 55 C 7.2909 -0.4294 -2.2557 0
M  V30 56 C 8.3836 -1.1479 -0.212 0
M  V30 57 C 8.3038 -1.0681 -3.0039 0
M  V30 58 C 6.1841 0.2807 -2.9748 0
M  V30 59 C 9.3669 -1.8228 -0.9523 0
M  V30 60 C 9.3325 -1.7551 -2.3555 0
M  V30 61 C 10.4297 -2.5502 -0.233 0
M  V30 62 O 10.2281 -2.9506 0.9518 0
M  V30 63 O 11.6569 -2.7907 -0.8498 0
M  V30 64 C 12.7517 -3.402 -0.1571 0
M  V30 65 C 12.5406 -4.9119 -0.0579 0
M  V30 66 Cl 13.9027 -5.6728 0.7972 0
M  V30 67 H -11.2916 1.344 3.7587 0
M  V30 68 H -10.736 2.1438 2.2455 0
M  V30 69 H -9.0288 1.4484 4.714 0
M  V30 70 H -8.4234 2.3777 3.2845 0
M  V30 71 H -6.0073 -2.3381 3.7337 0
M  V30 72 H -5.5562 -4.3911 2.4823 0
M  V30 73 H -6.7128 -4.8507 0.3623 0
M  V30 74 H -8.9644 -4.3775 -0.8134 0
M  V30 75 H -9.3729 -2.6844 -1.1417 0
M  V30 76 H -7.8306 -3.366 -1.7612 0
M  V30 77 H -6.9483 1.0775 0.7776 0
M  V30 78 H -9.8707 -0.7031 -2.8373 0
M  V30 79 H -4.4162 -1.1085 -3.5983 0
M  V30 80 H -5.7937 -1.8611 -5.4261 0
M  V30 81 H -10.053 -1.5796 -5.1246 0
M  V30 82 H -3.9293 0.3668 0.7948 0
M  V30 83 H -8.0428 -2.1582 -6.4059 0
M  V30 84 H -1.0815 -0.7918 -0.815 0
M  V30 85 H -0.2266 3.5997 1.32 0
M  V30 86 H -3.1714 2.4708 2.3588 0
M  V30 87 H -3.6927 2.9909 0.6936 0
M  V30 88 H -2.5146 3.9834 1.6174 0
M  V30 89 H 1.0146 -0.9793 -1.6326 0
M  V30 90 H 2.2954 -0.2998 -0.5825 0
M  V30 91 H 1.7334 0.5903 -2.0928 0
M  V30 92 H 2.6426 2.1554 -0.5836 0
M  V30 93 H 4.3588 5.16 2.0952 0
M  V30 94 H 3.9598 -0.2786 1.2999 0
M  V30 95 H 6.516 5.9712 2.8904 0
M  V30 96 H 8.4018 1.3707 2.5591 0
M  V30 97 H 8.8709 5.5465 3.4535 0
M  V30 98 H 9.8199 3.254 3.2752 0
M  V30 99 H 8.4464 -1.1415 0.8747 0
M  V30 100 H 8.2895 -1.0373 -4.0929 0
M  V30 101 H 5.219 0.1249 -2.4389 0
M  V30 102 H 6.4253 1.3699 -3.0406 0
M  V30 103 H 6.0578 -0.1177 -4.0109 0
M  V30 104 H 10.1029 -2.2307 -2.9542 0
M  V30 105 H 13.6884 -3.2132 -0.7187 0
M  V30 106 H 12.8628 -2.963 0.8501 0
M  V30 107 H 12.4773 -5.3563 -1.0758 0
M  V30 108 H 11.6086 -5.1463 0.4934 0
M  V30 END ATOM
M  V30 BEGIN BOND
M  V30 1 1 1 2
M  V30 2 1 2 3
M  V30 3 1 3 4
M  V30 4 1 4 5
M  V30 5 2 5 6
M  V30 6 1 5 7
M  V30 7 2 7 8
M  V30 8 1 7 9
M  V30 9 1 8 10
M  V30 10 1 8 11
M  V30 11 2 9 12
M  V30 12 2 10 13
M  V30 13 2 11 14
M  V30 14 1 11 15
M  V30 15 1 13 16
M  V30 16 2 16 17
M  V30 17 1 16 18
M  V30 18 1 17 19
M  V30 19 1 17 20
M  V30 20 1 18 21
M  V30 21 2 18 22
M  V30 22 1 20 23
M  V30 23 2 20 24
M  V30 24 2 21 25
M  V30 25 1 22 26
M  V30 26 2 23 27
M  V30 27 1 23 28
M  V30 28 1 25 29
M  V30 29 1 28 30
M  V30 30 2 30 31
M  V30 31 1 30 32
M  V30 32 1 31 33
M  V30 33 1 31 34
M  V30 34 2 32 35
M  V30 35 2 33 36
M  V30 36 1 35 37
M  V30 37 1 36 38
M  V30 38 1 38 39
M  V30 39 2 39 40
M  V30 40 1 39 41
M  V30 41 1 41 42
M  V30 42 2 41 43
M  V30 43 1 42 44
M  V30 44 2 42 45
M  V30 45 1 43 46
M  V30 46 1 45 47
M  V30 47 1 45 48
M  V30 48 2 46 49
M  V30 49 2 47 50
M  V30 50 2 48 51
M  V30 51 1 49 52
M  V30 52 1 50 53
M  V30 53 1 51 54
M  V30 54 2 53 55
M  V30 55 1 53 56
M  V30 56 1 55 57
M  V30 57 1 55 58
M  V30 58 2 56 59
M  V30 59 2 57 60
M  V30 60 1 59 61
M  V30 61 2 61 62
M  V30 62 1 61 63
M  V30 63 1 63 64
M  V30 64 1 64 65
M  V30 65 1 65 66
M  V30 66 1 12 14
M  V30 67 1 21 24
M  V30 68 2 26 29
M  V30 69 1 35 36
M  V30 70 1 46 48
M  V30 71 2 52 54
M  V30 72 1 59 60
M  V30 73 1 2 67
M  V30 74 1 2 68
M  V30 75 1 3 69
M  V30 76 1 3 70
M  V30 77 1 9 71
M  V30 78 1 12 72
M  V30 79 1 14 73
M  V30 80 1 15 74
M  V30 81 1 15 75
M  V30 82 1 15 76
M  V30 83 1 19 77
M  V30 84 1 22 78
M  V30 85 1 24 79
M  V30 86 1 25 80
M  V30 87 1 26 81
M  V30 88 1 28 82
M  V30 89 1 29 83
M  V30 90 1 32 84
M  V30 91 1 33 85
M  V30 92 1 34 86
M  V30 93 1 34 87
M  V30 94 1 34 88
M  V30 95 1 37 89
M  V30 96 1 37 90
M  V30 97 1 37 91
M  V30 98 1 38 92
M  V30 99 1 43 93
M  V30 100 1 44 94
M  V30 101 1 49 95
M  V30 102 1 51 96
M  V30 103 1 52 97
M  V30 104 1 54 98
M  V30 105 1 56 99
M  V30 106 1 57 100
M  V30 107 1 58 101
M  V30 108 1 58 102
M  V30 109 1 58 103
M  V30 110 1 60 104
M  V30 111 1 64 105
M  V30 112 1 64 106
M  V30 113 1 65 107
M  V30 114 1 65 108
M  V30 END BOND
M  V30 END CTAB
M  END
>  <Structure No>
3045

>  <LogS>
-7.814241029

>  <MMFF94 Energy>
173.66

$$$$
Compound 3046
Actelion Java MolfileCreator 2.0

  0  0  0  0  0  0              0 V3000
M  V30 BEGIN CTAB
M  V30 COUNTS 41 43 0 0 0
M  V30 BEGIN ATOM
M  V30 1 Cl -6.966 2.2907 0.0 0
M  V30 2 C -5.4305 1.4743 0.2315 0
M  V30 3 C -4.2423 2.2096 0.243 0
M  V30 4 C -5.3967 0.0908 0.4076 0
M  V30 5 C -3.0021 1.5708 0.4355 0
M  V30 6 C -4.1767 -0.5616 0.5886 0
M  V30 7 N -1.7924 2.3556 0.4592 0 CHG=1
M  V30 8 C -2.9727 0.1652 0.6004 0
M  V30 9 O -1.7751 3.5014 -0.0367 0
M  V30 10 O -0.6676 1.9042 1.1106 0 CHG=-1
M  V30 11 N -1.7207 -0.5154 0.7387 0 CHG=-1
M  V30 12 N -1.6301 -1.9059 0.9022 0
M  V30 13 C -0.4927 -2.5297 0.9993 0
M  V30 14 C 0.7941 -1.8041 0.894 0
M  V30 15 C -0.4936 -3.9869 1.2526 0
M  V30 16 O 1.6739 -1.9897 1.7773 0
M  V30 17 N 1.0319 -0.8962 -0.1968 0
M  V30 18 O 0.5961 -4.6191 1.3013 0
M  V30 19 C -1.7785 -4.7353 1.4366 0
M  V30 20 C 2.2282 -0.1153 -0.353 0
M  V30 21 C 2.1256 1.1996 -0.8596 0
M  V30 22 C 3.5117 -0.6601 -0.0676 0
M  V30 23 C 3.2989 1.9306 -1.0214 0
M  V30 24 C 4.6764 0.1103 -0.2463 0
M  V30 25 N 3.4418 3.1879 -1.4729 0
M  V30 26 C 4.5247 1.4083 -0.7232 0
M  V30 27 C 4.7808 3.389 -1.4321 0
M  V30 28 N 5.478 2.3199 -0.9784 0
M  V30 29 O 5.3262 4.4679 -1.7845 0
M  V30 30 H -4.2892 3.2838 0.1152 0
M  V30 31 H -6.3156 -0.4816 0.3994 0
M  V30 32 H -4.1751 -1.637 0.7116 0
M  V30 33 H 0.2584 -0.7277 -0.8787 0
M  V30 34 H -1.5793 -5.8055 1.6577 0
M  V30 35 H -2.3859 -4.6691 0.5097 0
M  V30 36 H -2.3502 -4.2982 2.2823 0
M  V30 37 H 1.1651 1.6333 -1.1077 0
M  V30 38 H 3.6158 -1.6846 0.2621 0
M  V30 39 H 5.6556 -0.2976 -0.032 0
M  V30 40 H 2.6976 3.8519 -1.7834 0
M  V30 41 H 6.5113 2.2258 -0.859 0
M  V30 END ATOM
M  V30 BEGIN BOND
M  V30 1 1 1 2
M  V30 2 2 2 3
M  V30 3 1 2 4
M  V30 4 1 3 5
M  V30 5 2 4 6
M  V30 6 1 5 7
M  V30 7 2 5 8
M  V30 8 2 7 9
M  V30 9 1 7 10
M  V30 10 1 8 11
M  V30 11 1 11 12
M  V30 12 2 12 13
M  V30 13 1 13 14
M  V30 14 1 13 15
M  V30 15 2 14 16
M  V30 16 1 14 17
M  V30 17 2 15 18
M  V30 18 1 15 19
M  V30 19 1 17 20
M  V30 20 2 20 21
M  V30 21 1 20 22
M  V30 22 1 21 23
M  V30 23 2 22 24
M  V30 24 1 23 25
M  V30 25 2 23 26
M  V30 26 1 25 27
M  V30 27 1 26 28
M  V30 28 2 27 29
M  V30 29 1 6 8
M  V30 30 1 24 26
M  V30 31 1 27 28
M  V30 32 1 3 30
M  V30 33 1 4 31
M  V30 34 1 6 32
M  V30 35 1 17 33
M  V30 36 1 19 34
M  V30 37 1 19 35
M  V30 38 1 19 36
M  V30 39 1 21 37
M  V30 40 1 22 38
M  V30 41 1 24 39
M  V30 42 1 25 40
M  V30 43 1 28 41
M  V30 END BOND
M  V30 END CTAB
M  END
>  <Structure No>
3046

>  <LogS>
-7.473779877

>  <MMFF94 Energy>
55.944

$$$$
Compound 3047
Actelion Java MolfileCreator 2.0

  0  0  0  0  0  0              0 V3000
M  V30 BEGIN CTAB
M  V30 COUNTS 52 51 0 0 0
M  V30 BEGIN ATOM
M  V30 1 O 6.2755 0.5478 -1.1743 0
M  V30 2 C 6.9561 0.5421 -0.1117 0
M  V30 3 O 6.3322 0.7576 1.1245 0
M  V30 4 C 8.4164 0.3129 -0.1766 0
M  V30 5 C 4.9243 0.9285 1.2766 0
M  V30 6 C 9.1403 0.2233 0.9444 0
M  V30 7 C 9.078 0.0999 -1.5111 0
M  V30 8 C 4.2048 -0.418 1.1579 0
M  V30 9 C 2.6947 -0.2578 1.3691 0
M  V30 10 C 1.9754 -1.6084 1.2372 0
M  V30 11 C 0.4783 -1.5178 1.5728 0
M  V30 12 C -0.3242 -0.7652 0.5009 0
M  V30 13 C -1.8265 -0.8148 0.8045 0
M  V30 14 C -2.6289 -0.0542 -0.2578 0
M  V30 15 C -4.1307 -0.1053 0.0461 0
M  V30 16 C -4.9333 0.6513 -1.01 0
M  V30 17 O -6.3192 0.5802 -0.6915 0
M  V30 18 C -7.3079 1.1817 -1.477 0
M  V30 19 O -6.987 1.8198 -2.5183 0
M  V30 20 C -8.728 1.0618 -1.0773 0
M  V30 21 C -9.7042 1.5569 -1.8476 0
M  V30 22 C -9.0752 0.3072 0.1761 0
M  V30 23 H 4.5421 1.6474 0.5188 0
M  V30 24 H 4.7333 1.3566 2.2837 0
M  V30 25 H 8.6886 0.344 1.9209 0
M  V30 26 H 10.204 0.0238 0.9064 0
M  V30 27 H 8.8955 -0.9406 -1.8515 0
M  V30 28 H 10.1744 0.2737 -1.4566 0
M  V30 29 H 8.6627 0.8047 -2.2621 0
M  V30 30 H 4.6164 -1.1147 1.9208 0
M  V30 31 H 4.3915 -0.85 0.1511 0
M  V30 32 H 2.301 0.4517 0.6107 0
M  V30 33 H 2.5085 0.1635 2.3815 0
M  V30 34 H 2.4403 -2.3324 1.9421 0
M  V30 35 H 2.1073 -2.0092 0.2082 0
M  V30 36 H 0.3426 -1.0273 2.5617 0
M  V30 37 H 0.0832 -2.5542 1.6546 0
M  V30 38 H -5.0E-4 0.2969 0.4682 0
M  V30 39 H -0.1359 -1.2255 -0.4938 0
M  V30 40 H -2.1625 -1.875 0.8291 0
M  V30 41 H -2.0148 -0.361 1.8027 0
M  V30 42 H -2.2947 1.0064 -0.2821 0
M  V30 43 H -2.44 -0.5076 -1.2559 0
M  V30 44 H -4.3252 0.349 1.0424 0
M  V30 45 H -4.4708 -1.1639 0.069 0
M  V30 46 H -4.7597 0.1964 -2.0099 0
M  V30 47 H -4.6132 1.7163 -1.0322 0
M  V30 48 H -9.486 2.0824 -2.7687 0
M  V30 49 H -10.745 1.4429 -1.5707 0
M  V30 50 H -10.1013 0.5476 0.5292 0
M  V30 51 H -8.3681 0.5723 0.9903 0
M  V30 52 H -9.0092 -0.7834 -0.0195 0
M  V30 END ATOM
M  V30 BEGIN BOND
M  V30 1 2 1 2
M  V30 2 1 2 3
M  V30 3 1 2 4
M  V30 4 1 3 5
M  V30 5 2 4 6
M  V30 6 1 4 7
M  V30 7 1 5 8
M  V30 8 1 8 9
M  V30 9 1 9 10
M  V30 10 1 10 11
M  V30 11 1 11 12
M  V30 12 1 12 13
M  V30 13 1 13 14
M  V30 14 1 14 15
M  V30 15 1 15 16
M  V30 16 1 16 17
M  V30 17 1 17 18
M  V30 18 2 18 19
M  V30 19 1 18 20
M  V30 20 2 20 21
M  V30 21 1 20 22
M  V30 22 1 5 23
M  V30 23 1 5 24
M  V30 24 1 6 25
M  V30 25 1 6 26
M  V30 26 1 7 27
M  V30 27 1 7 28
M  V30 28 1 7 29
M  V30 29 1 8 30
M  V30 30 1 8 31
M  V30 31 1 9 32
M  V30 32 1 9 33
M  V30 33 1 10 34
M  V30 34 1 10 35
M  V30 35 1 11 36
M  V30 36 1 11 37
M  V30 37 1 12 38
M  V30 38 1 12 39
M  V30 39 1 13 40
M  V30 40 1 13 41
M  V30 41 1 14 42
M  V30 42 1 14 43
M  V30 43 1 15 44
M  V30 44 1 15 45
M  V30 45 1 16 46
M  V30 46 1 16 47
M  V30 47 1 21 48
M  V30 48 1 21 49
M  V30 49 1 22 50
M  V30 50 1 22 51
M  V30 51 1 22 52
M  V30 END BOND
M  V30 END CTAB
M  END
>  <Structure No>
3047

>  <LogS>
-6.350206051

>  <MMFF94 Energy>
3.6376

$$$$
Compound 3048
Actelion Java MolfileCreator 2.0

  0  0  0  0  0  0              0 V3000
M  V30 BEGIN CTAB
M  V30 COUNTS 36 40 0 0 0
M  V30 BEGIN ATOM
M  V30 1 Cl 4.6625 -2.246 -2.9122 0
M  V30 2 C 4.7385 -1.2084 -1.4907 0
M  V30 3 C 3.5758 -0.742 -0.8319 0
M  V30 4 C 6.0034 -0.8471 -1.0161 0
M  V30 5 N 2.3278 -1.0809 -1.2762 0
M  V30 6 C 3.7112 0.0909 0.308 0
M  V30 7 C 6.1314 -0.0284 0.1042 0
M  V30 8 C 1.1947 -0.6417 -0.6551 0
M  V30 9 C 2.555 0.5547 0.963 0
M  V30 10 C 4.9965 0.4397 0.7649 0
M  V30 11 C 1.2846 0.1891 0.4825 0
M  V30 12 C -0.066 -1.0153 -1.1467 0
M  V30 13 O 2.6576 1.2974 1.9798 0
M  V30 14 C 0.1063 0.6326 1.1102 0
M  V30 15 C -1.2443 -0.5717 -0.519 0
M  V30 16 C -1.1544 0.2589 0.6187 0
M  V30 17 C -2.5147 -0.9374 -0.9995 0
M  V30 18 N -2.2875 0.6982 1.2396 0
M  V30 19 O -2.6174 -1.6801 -2.0162 0
M  V30 20 C -3.6709 -0.4737 -0.3445 0
M  V30 21 C -3.5355 0.3592 0.7954 0
M  V30 22 C -4.9563 -0.8223 -0.8013 0
M  V30 23 C -4.6982 0.8257 1.4542 0
M  V30 24 C -6.0912 -0.3541 -0.1406 0
M  V30 25 Cl -4.6222 1.8633 2.8757 0
M  V30 26 C -5.9632 0.4644 0.9797 0
M  V30 27 H 6.8941 -1.2026 -1.5184 0
M  V30 28 H 2.2233 -1.694 -2.1153 0
M  V30 29 H 7.1155 0.2448 0.4626 0
M  V30 30 H 5.1279 1.0742 1.6328 0
M  V30 31 H -0.1225 -1.6534 -2.0208 0
M  V30 32 H 0.1627 1.2708 1.9844 0
M  V30 33 H -2.1831 1.3114 2.0788 0
M  V30 34 H -5.0879 -1.4568 -1.6691 0
M  V30 35 H -7.0754 -0.6274 -0.4989 0
M  V30 36 H -6.854 0.8201 1.4821 0
M  V30 END ATOM
M  V30 BEGIN BOND
M  V30 1 1 1 2
M  V30 2 2 2 3
M  V30 3 1 2 4
M  V30 4 1 3 5
M  V30 5 1 3 6
M  V30 6 2 4 7
M  V30 7 1 5 8
M  V30 8 1 6 9
M  V30 9 2 6 10
M  V30 10 2 8 11
M  V30 11 1 8 12
M  V30 12 2 9 13
M  V30 13 1 11 14
M  V30 14 2 12 15
M  V30 15 2 14 16
M  V30 16 1 15 17
M  V30 17 1 16 18
M  V30 18 2 17 19
M  V30 19 1 17 20
M  V30 20 1 18 21
M  V30 21 1 20 22
M  V30 22 1 21 23
M  V30 23 2 22 24
M  V30 24 1 23 25
M  V30 25 2 23 26
M  V30 26 1 7 10
M  V30 27 1 9 11
M  V30 28 1 15 16
M  V30 29 2 20 21
M  V30 30 1 24 26
M  V30 31 1 4 27
M  V30 32 1 5 28
M  V30 33 1 7 29
M  V30 34 1 10 30
M  V30 35 1 12 31
M  V30 36 1 14 32
M  V30 37 1 18 33
M  V30 38 1 22 34
M  V30 39 1 24 35
M  V30 40 1 26 36
M  V30 END BOND
M  V30 END CTAB
M  END
>  <Structure No>
3048

>  <LogS>
-6.457321758

>  <MMFF94 Energy>
115.68

$$$$
Compound 3049
Actelion Java MolfileCreator 2.0

  0  0  0  0  0  0              0 V3000
M  V30 BEGIN CTAB
M  V30 COUNTS 40 41 0 0 0
M  V30 BEGIN ATOM
M  V30 1 O -5.2386 -2.1735 2.0929 0
M  V30 2 N -4.1771 -1.5543 1.8686 0 CHG=1
M  V30 3 O -3.0302 -1.9696 2.5054 0 CHG=-1
M  V30 4 C -4.1847 -0.3717 1.0413 0
M  V30 5 C -2.9921 0.1473 0.4822 0
M  V30 6 C -5.4025 0.2891 0.7863 0
M  V30 7 N -1.7448 -0.5274 0.687 0 CHG=-1
M  V30 8 C -3.0418 1.318 -0.2946 0
M  V30 9 C -5.4446 1.4447 -0.006 0
M  V30 10 N -0.5337 -0.0477 0.1654 0
M  V30 11 C -4.2559 1.9634 -0.5303 0
M  V30 12 C -6.7432 2.1647 -0.2246 0
M  V30 13 C 0.6047 -0.6477 0.3553 0
M  V30 14 C 1.8219 -0.0211 -0.2024 0
M  V30 15 C 0.6858 -1.9072 1.1389 0
M  V30 16 O 1.8391 1.2288 -0.3695 0
M  V30 17 N 2.9694 -0.8173 -0.5547 0
M  V30 18 O -0.1955 -2.7959 0.9902 0
M  V30 19 C 1.7918 -2.1484 2.1205 0
M  V30 20 C 4.2036 -0.2714 -1.0486 0
M  V30 21 C 4.2211 0.7662 -1.9993 0
M  V30 22 C 5.4195 -0.8225 -0.6161 0
M  V30 23 C 5.4383 1.2674 -2.4734 0
M  V30 24 C 6.6342 -0.3199 -1.0923 0
M  V30 25 C 6.6436 0.7271 -2.0174 0
M  V30 26 H -6.3224 -0.088 1.2168 0
M  V30 27 H -2.1403 1.7352 -0.725 0
M  V30 28 H -4.268 2.8686 -1.1248 0
M  V30 29 H -6.7374 2.6985 -1.1986 0
M  V30 30 H -7.593 1.4487 -0.2306 0
M  V30 31 H -6.8967 2.9014 0.5917 0
M  V30 32 H 2.9472 -1.8439 -0.3628 0
M  V30 33 H 2.406 -1.235 2.2647 0
M  V30 34 H 2.4416 -2.9725 1.7583 0
M  V30 35 H 1.3593 -2.4351 3.1021 0
M  V30 36 H 3.3001 1.172 -2.3949 0
M  V30 37 H 5.4238 -1.6337 0.1013 0
M  V30 38 H 5.4466 2.0681 -3.2021 0
M  V30 39 H 7.568 -0.7429 -0.7449 0
M  V30 40 H 7.5845 1.1153 -2.3852 0
M  V30 END ATOM
M  V30 BEGIN BOND
M  V30 1 2 1 2
M  V30 2 1 2 3
M  V30 3 1 2 4
M  V30 4 2 4 5
M  V30 5 1 4 6
M  V30 6 1 5 7
M  V30 7 1 5 8
M  V30 8 2 6 9
M  V30 9 1 7 10
M  V30 10 2 8 11
M  V30 11 1 9 12
M  V30 12 2 10 13
M  V30 13 1 13 14
M  V30 14 1 13 15
M  V30 15 2 14 16
M  V30 16 1 14 17
M  V30 17 2 15 18
M  V30 18 1 15 19
M  V30 19 1 17 20
M  V30 20 2 20 21
M  V30 21 1 20 22
M  V30 22 1 21 23
M  V30 23 2 22 24
M  V30 24 2 23 25
M  V30 25 1 9 11
M  V30 26 1 24 25
M  V30 27 1 6 26
M  V30 28 1 8 27
M  V30 29 1 11 28
M  V30 30 1 12 29
M  V30 31 1 12 30
M  V30 32 1 12 31
M  V30 33 1 17 32
M  V30 34 1 19 33
M  V30 35 1 19 34
M  V30 36 1 19 35
M  V30 37 1 21 36
M  V30 38 1 22 37
M  V30 39 1 23 38
M  V30 40 1 24 39
M  V30 41 1 25 40
M  V30 END BOND
M  V30 END CTAB
M  END
>  <Structure No>
3049

>  <LogS>
-7.417968366

>  <MMFF94 Energy>
124.41

$$$$
Compound 3050
Actelion Java MolfileCreator 2.0

  0  0  0  0  0  0              0 V3000
M  V30 BEGIN CTAB
M  V30 COUNTS 62 61 0 0 0
M  V30 BEGIN ATOM
M  V30 1 O -0.8624 0.2351 0.4703 0
M  V30 2 C -0.0486 -0.0873 1.3796 0
M  V30 3 O -0.2684 -1.2217 2.1704 0
M  V30 4 C 1.2132 0.6944 1.5568 0
M  V30 5 O -1.4585 -1.8998 2.2125 0
M  V30 6 C 2.2448 0.2975 0.4956 0
M  V30 7 C -2.7107 -1.2742 2.1774 0
M  V30 8 C 3.5829 1.0063 0.7348 0
M  V30 9 O -2.8182 -0.045 2.4349 0
M  V30 10 C -3.9449 -2.0921 1.9364 0
M  V30 11 C 4.5863 0.6778 -0.3771 0
M  V30 12 C -3.756 -3.1335 0.822 0
M  V30 13 C 5.9594 1.2935 -0.0821 0
M  V30 14 C -3.4195 -2.5355 -0.5568 0
M  V30 15 C 6.9507 1.0005 -1.2172 0
M  V30 16 C -4.5631 -1.6935 -1.1614 0
M  V30 17 C 8.3729 1.5054 -0.8937 0
M  V30 18 C -4.3035 -0.1826 -1.0305 0
M  V30 19 C 9.3343 0.3855 -0.4634 0
M  V30 20 C -5.4388 0.6674 -1.62 0
M  V30 21 C 8.9481 -0.2525 0.8699 0
M  V30 22 C -6.6933 0.6682 -0.7331 0
M  V30 23 C -7.7462 1.644 -1.2717 0
M  V30 24 C -9.0064 1.6263 -0.4101 0
M  V30 25 H 0.9845 1.7785 1.4722 0
M  V30 26 H 1.6194 0.5048 2.5731 0
M  V30 27 H 2.4045 -0.8039 0.5241 0
M  V30 28 H 1.8548 0.5706 -0.51 0
M  V30 29 H 3.4186 2.1061 0.7677 0
M  V30 30 H 3.9966 0.6808 1.7152 0
M  V30 31 H -4.1959 -2.6222 2.8789 0
M  V30 32 H -4.8063 -1.4323 1.6954 0
M  V30 33 H 4.6914 -0.4268 -0.4643 0
M  V30 34 H 4.202 1.0753 -1.3434 0
M  V30 35 H -4.6849 -3.7394 0.7413 0
M  V30 36 H -2.9409 -3.8326 1.1122 0
M  V30 37 H 6.345 0.8818 0.8739 0
M  V30 38 H 5.8529 2.3949 0.031 0
M  V30 39 H -3.2217 -3.3882 -1.2422 0
M  V30 40 H -2.4708 -1.959 -0.5039 0
M  V30 41 H 6.9641 -0.0893 -1.4412 0
M  V30 42 H 6.5891 1.5168 -2.1338 0
M  V30 43 H -4.6472 -1.9347 -2.2438 0
M  V30 44 H -5.5308 -1.9698 -0.6932 0
M  V30 45 H 8.7948 1.9672 -1.814 0
M  V30 46 H 8.3541 2.3053 -0.1206 0
M  V30 47 H -4.1405 0.1013 0.0287 0
M  V30 48 H -3.3714 0.0614 -1.5857 0
M  V30 49 H 9.3842 -0.3989 -1.2504 0
M  V30 50 H 10.3515 0.8157 -0.3593 0
M  V30 51 H -5.6929 0.3036 -2.6396 0
M  V30 52 H -5.0696 1.7113 -1.7184 0
M  V30 53 H 8.8188 0.5246 1.6524 0
M  V30 54 H 8.0112 -0.8406 0.7681 0
M  V30 55 H 9.7537 -0.9457 1.1934 0
M  V30 56 H -6.4139 0.9654 0.3021 0
M  V30 57 H -7.133 -0.3508 -0.7033 0
M  V30 58 H -7.3306 2.6762 -1.2819 0
M  V30 59 H -8.018 1.3638 -2.3148 0
M  V30 60 H -9.454 0.6104 -0.4008 0
M  V30 61 H -8.764 1.9294 0.631 0
M  V30 62 H -9.7528 2.3367 -0.8243 0
M  V30 END ATOM
M  V30 BEGIN BOND
M  V30 1 2 1 2
M  V30 2 1 2 3
M  V30 3 1 2 4
M  V30 4 1 3 5
M  V30 5 1 4 6
M  V30 6 1 5 7
M  V30 7 1 6 8
M  V30 8 2 7 9
M  V30 9 1 7 10
M  V30 10 1 8 11
M  V30 11 1 10 12
M  V30 12 1 11 13
M  V30 13 1 12 14
M  V30 14 1 13 15
M  V30 15 1 14 16
M  V30 16 1 15 17
M  V30 17 1 16 18
M  V30 18 1 17 19
M  V30 19 1 18 20
M  V30 20 1 19 21
M  V30 21 1 20 22
M  V30 22 1 22 23
M  V30 23 1 23 24
M  V30 24 1 4 25
M  V30 25 1 4 26
M  V30 26 1 6 27
M  V30 27 1 6 28
M  V30 28 1 8 29
M  V30 29 1 8 30
M  V30 30 1 10 31
M  V30 31 1 10 32
M  V30 32 1 11 33
M  V30 33 1 11 34
M  V30 34 1 12 35
M  V30 35 1 12 36
M  V30 36 1 13 37
M  V30 37 1 13 38
M  V30 38 1 14 39
M  V30 39 1 14 40
M  V30 40 1 15 41
M  V30 41 1 15 42
M  V30 42 1 16 43
M  V30 43 1 16 44
M  V30 44 1 17 45
M  V30 45 1 17 46
M  V30 46 1 18 47
M  V30 47 1 18 48
M  V30 48 1 19 49
M  V30 49 1 19 50
M  V30 50 1 20 51
M  V30 51 1 20 52
M  V30 52 1 21 53
M  V30 53 1 21 54
M  V30 54 1 21 55
M  V30 55 1 22 56
M  V30 56 1 22 57
M  V30 57 1 23 58
M  V30 58 1 23 59
M  V30 59 1 24 60
M  V30 60 1 24 61
M  V30 61 1 24 62
M  V30 END BOND
M  V30 END CTAB
M  END
>  <Structure No>
3050

>  <LogS>
-6.44975236

>  <MMFF94 Energy>
13.796

$$$$
Compound 3051
Actelion Java MolfileCreator 2.0

  0  0  0  0  0  0              0 V3000
M  V30 BEGIN CTAB
M  V30 COUNTS 50 53 0 0 0
M  V30 BEGIN ATOM
M  V30 1 Cl 7.3599 -3.8384 1.4687 0
M  V30 2 C 5.9163 -2.8556 1.3008 0
M  V30 3 C 4.691 -3.3265 1.7787 0
M  V30 4 C 5.9931 -1.6033 0.6932 0
M  V30 5 C 3.5224 -2.55 1.6608 0
M  V30 6 C 4.8468 -0.8206 0.5566 0
M  V30 7 N 2.2754 -3.0719 2.1676 0 CHG=1
M  V30 8 C 3.6035 -1.2802 1.0333 0
M  V30 9 O 1.2922 -2.3275 2.3593 0
M  V30 10 O 2.1702 -4.3991 2.5152 0 CHG=-1
M  V30 11 N 2.4235 -0.4822 0.8651 0
M  V30 12 N 2.4281 0.62 0.2303 0
M  V30 13 C 1.2483 1.4236 0.0638 0
M  V30 14 C -0.0432 0.8452 -0.0617 0
M  V30 15 C 1.3832 2.8306 0.0617 0
M  V30 16 O -0.221 -0.5374 -0.1669 0
M  V30 17 C -1.1843 1.6733 -0.0944 0
M  V30 18 C 0.2285 3.649 0.0206 0
M  V30 19 C 2.651 3.4459 0.1278 0
M  V30 20 C -2.5467 1.1047 -0.19 0
M  V30 21 C -1.0398 3.0641 -0.0318 0
M  V30 22 C 0.358 5.0473 0.04 0
M  V30 23 C 2.7643 4.8381 0.1433 0
M  V30 24 O -3.4489 1.5487 0.5713 0
M  V30 25 N -2.8463 0.0694 -1.1414 0
M  V30 26 C 1.6216 5.6364 0.0993 0
M  V30 27 C -4.1221 -0.589 -1.2166 0
M  V30 28 C -4.1947 -1.9981 -1.3089 0
M  V30 29 C -5.3076 0.1666 -1.252 0
M  V30 30 C -5.4499 -2.6199 -1.4249 0
M  V30 31 C -2.9476 -2.839 -1.2877 0
M  V30 32 C -6.5478 -0.4656 -1.3591 0
M  V30 33 C -6.6188 -1.8563 -1.4446 0
M  V30 34 H 4.6556 -4.2988 2.2523 0
M  V30 35 H 6.9415 -1.2349 0.3232 0
M  V30 36 H 4.9325 0.145 0.0749 0
M  V30 37 H 0.5208 -1.184 -0.3982 0
M  V30 38 H 3.5595 2.8586 0.163 0
M  V30 39 H -1.9221 3.6945 -0.0578 0
M  V30 40 H -0.5177 5.6842 0.0089 0
M  V30 41 H 3.7421 5.2996 0.1905 0
M  V30 42 H -2.0903 -0.2567 -1.7827 0
M  V30 43 H 1.7153 6.7148 0.112 0
M  V30 44 H -5.2711 1.248 -1.2225 0
M  V30 45 H -5.5259 -3.6978 -1.4982 0
M  V30 46 H -2.3842 -2.6934 -2.2326 0
M  V30 47 H -2.3068 -2.5464 -0.4294 0
M  V30 48 H -3.1853 -3.9187 -1.1829 0
M  V30 49 H -7.4547 0.1244 -1.3875 0
M  V30 50 H -7.5813 -2.3433 -1.5321 0
M  V30 END ATOM
M  V30 BEGIN BOND
M  V30 1 1 1 2
M  V30 2 2 2 3
M  V30 3 1 2 4
M  V30 4 1 3 5
M  V30 5 2 4 6
M  V30 6 1 5 7
M  V30 7 2 5 8
M  V30 8 2 7 9
M  V30 9 1 7 10
M  V30 10 1 8 11
M  V30 11 2 11 12
M  V30 12 1 12 13
M  V30 13 2 13 14
M  V30 14 1 13 15
M  V30 15 1 14 16
M  V30 16 1 14 17
M  V30 17 1 15 18
M  V30 18 2 15 19
M  V30 19 1 17 20
M  V30 20 2 17 21
M  V30 21 2 18 22
M  V30 22 1 19 23
M  V30 23 2 20 24
M  V30 24 1 20 25
M  V30 25 1 22 26
M  V30 26 1 25 27
M  V30 27 2 27 28
M  V30 28 1 27 29
M  V30 29 1 28 30
M  V30 30 1 28 31
M  V30 31 2 29 32
M  V30 32 2 30 33
M  V30 33 1 6 8
M  V30 34 1 18 21
M  V30 35 2 23 26
M  V30 36 1 32 33
M  V30 37 1 3 34
M  V30 38 1 4 35
M  V30 39 1 6 36
M  V30 40 1 16 37
M  V30 41 1 19 38
M  V30 42 1 21 39
M  V30 43 1 22 40
M  V30 44 1 23 41
M  V30 45 1 25 42
M  V30 46 1 26 43
M  V30 47 1 29 44
M  V30 48 1 30 45
M  V30 49 1 31 46
M  V30 50 1 31 47
M  V30 51 1 31 48
M  V30 52 1 32 49
M  V30 53 1 33 50
M  V30 END BOND
M  V30 END CTAB
M  END
>  <Structure No>
3051

>  <LogS>
-7.56321449

>  <MMFF94 Energy>
90.969

$$$$
Compound 3052
Actelion Java MolfileCreator 2.0

  0  0  0  0  0  0              0 V3000
M  V30 BEGIN CTAB
M  V30 COUNTS 69 73 0 0 0
M  V30 BEGIN ATOM
M  V30 1 S 9.668 -0.3265 2.2877 0
M  V30 2 O 10.7823 0.3766 3.0117 0
M  V30 3 O 10.112 -0.6124 0.8807 0
M  V30 4 O 9.3171 -1.7714 3.0699 0 CHG=-1
M  V30 5 C 8.2312 0.6921 2.258 0
M  V30 6 C 7.2843 0.5384 1.2351 0
M  V30 7 C 8.0223 1.6503 3.2593 0
M  V30 8 C 6.1471 1.3668 1.1864 0
M  V30 9 C 6.883 2.4567 3.2316 0
M  V30 10 N 5.1586 1.2286 0.1508 0
M  V30 11 C 5.9497 2.3154 2.2023 0
M  V30 12 C 5.4487 0.7735 -1.1824 0
M  V30 13 O 6.6256 0.8585 -1.63 0
M  V30 14 C 4.3665 0.2721 -2.0663 0
M  V30 15 C 3.1385 -0.1595 -1.5336 0
M  V30 16 C 4.5563 0.2267 -3.4573 0
M  V30 17 C 2.0992 -0.5934 -2.3783 0
M  V30 18 C 3.5339 -0.2123 -4.3001 0
M  V30 19 N 0.8232 -0.9725 -1.8426 0
M  V30 20 C 2.3017 -0.623 -3.7719 0
M  V30 21 N 0.6171 -1.0903 -0.5928 0
M  V30 22 C 1.1899 -1.0345 -4.698 0
M  V30 23 C -0.6755 -1.4284 -0.0714 0
M  V30 24 C -1.8482 -0.7973 -0.5569 0
M  V30 25 C -0.7748 -2.3907 0.9575 0
M  V30 26 O -1.7783 0.2614 -1.4692 0
M  V30 27 C -3.1142 -1.1925 -0.0788 0
M  V30 28 C -2.0503 -2.7681 1.4449 0
M  V30 29 C 0.3727 -3.0042 1.5009 0
M  V30 30 C -4.3438 -0.5412 -0.5918 0
M  V30 31 C -3.2041 -2.1815 0.9121 0
M  V30 32 C -2.1556 -3.7374 2.4555 0
M  V30 33 C 0.2521 -3.9631 2.509 0
M  V30 34 O -4.4372 -0.2824 -1.8231 0
M  V30 35 N -5.4186 -0.1935 0.2963 0
M  V30 36 C -1.0082 -4.3289 2.9846 0
M  V30 37 C -6.4822 0.7092 -0.0527 0
M  V30 38 C -7.7614 0.5066 0.4837 0
M  V30 39 C -6.2521 1.8322 -0.8665 0
M  V30 40 C -8.805 1.3878 0.1856 0
M  V30 41 C -7.2942 2.7154 -1.1619 0
M  V30 42 C -8.5764 2.5019 -0.6444 0
M  V30 43 O -9.5886 3.416 -0.9723 0
M  V30 44 C -10.9394 3.3101 -0.5324 0
M  V30 45 H 7.4309 -0.2348 0.4924 0
M  V30 46 H 8.739 1.7724 4.0612 0
M  V30 47 H 6.7226 3.1941 4.0076 0
M  V30 48 H 4.2037 1.6058 0.3413 0
M  V30 49 H 5.0753 2.9532 2.1926 0
M  V30 50 H 2.9849 -0.155 -0.4622 0
M  V30 51 H 5.489 0.5525 -3.9012 0
M  V30 52 H 3.7031 -0.2154 -5.3704 0
M  V30 53 H 0.4168 -0.2385 -4.7196 0
M  V30 54 H 1.5589 -1.1935 -5.7343 0
M  V30 55 H 0.7268 -1.9798 -4.3459 0
M  V30 56 H -0.9191 0.734 -1.7119 0
M  V30 57 H 1.3659 -2.7438 1.1558 0
M  V30 58 H -4.1761 -2.507 1.2642 0
M  V30 59 H -3.1256 -4.037 2.8356 0
M  V30 60 H 1.1402 -4.4248 2.9236 0
M  V30 61 H -5.4559 -0.6346 1.2422 0
M  V30 62 H -1.0965 -5.0723 3.7659 0
M  V30 63 H -7.9503 -0.3422 1.1276 0
M  V30 64 H -5.2639 2.0437 -1.2517 0
M  V30 65 H -9.782 1.1982 0.6095 0
M  V30 66 H -7.1023 3.5768 -1.7896 0
M  V30 67 H -10.9858 3.3488 0.5766 0
M  V30 68 H -11.3861 2.3622 -0.9007 0
M  V30 69 H -11.5214 4.162 -0.9398 0
M  V30 END ATOM
M  V30 BEGIN BOND
M  V30 1 2 1 2
M  V30 2 2 1 3
M  V30 3 1 1 4
M  V30 4 1 1 5
M  V30 5 2 5 6
M  V30 6 1 5 7
M  V30 7 1 6 8
M  V30 8 2 7 9
M  V30 9 1 8 10
M  V30 10 2 8 11
M  V30 11 1 10 12
M  V30 12 2 12 13
M  V30 13 1 12 14
M  V30 14 2 14 15
M  V30 15 1 14 16
M  V30 16 1 15 17
M  V30 17 2 16 18
M  V30 18 1 17 19
M  V30 19 2 17 20
M  V30 20 2 19 21
M  V30 21 1 20 22
M  V30 22 1 21 23
M  V30 23 2 23 24
M  V30 24 1 23 25
M  V30 25 1 24 26
M  V30 26 1 24 27
M  V30 27 1 25 28
M  V30 28 2 25 29
M  V30 29 1 27 30
M  V30 30 2 27 31
M  V30 31 2 28 32
M  V30 32 1 29 33
M  V30 33 2 30 34
M  V30 34 1 30 35
M  V30 35 1 32 36
M  V30 36 1 35 37
M  V30 37 2 37 38
M  V30 38 1 37 39
M  V30 39 1 38 40
M  V30 40 2 39 41
M  V30 41 2 40 42
M  V30 42 1 42 43
M  V30 43 1 43 44
M  V30 44 1 9 11
M  V30 45 1 18 20
M  V30 46 1 28 31
M  V30 47 2 33 36
M  V30 48 1 41 42
M  V30 49 1 6 45
M  V30 50 1 7 46
M  V30 51 1 9 47
M  V30 52 1 10 48
M  V30 53 1 11 49
M  V30 54 1 15 50
M  V30 55 1 16 51
M  V30 56 1 18 52
M  V30 57 1 22 53
M  V30 58 1 22 54
M  V30 59 1 22 55
M  V30 60 1 26 56
M  V30 61 1 29 57
M  V30 62 1 31 58
M  V30 63 1 32 59
M  V30 64 1 33 60
M  V30 65 1 35 61
M  V30 66 1 36 62
M  V30 67 1 38 63
M  V30 68 1 39 64
M  V30 69 1 40 65
M  V30 70 1 41 66
M  V30 71 1 44 67
M  V30 72 1 44 68
M  V30 73 1 44 69
M  V30 END BOND
M  V30 END CTAB
M  END
>  <Structure No>
3052

>  <LogS>
-7.050931183

>  <MMFF94 Energy>
116.1

$$$$
Compound 3053
Actelion Java MolfileCreator 2.0

  0  0  0  0  0  0              0 V3000
M  V30 BEGIN CTAB
M  V30 COUNTS 56 59 0 0 0
M  V30 BEGIN ATOM
M  V30 1 O -1.7664 -1.8467 -1.2844 0
M  V30 2 C -1.9282 -0.7481 -0.6866 0
M  V30 3 N -3.1827 -0.4439 -0.0539 0
M  V30 4 C -0.8379 0.2497 -0.6995 0
M  V30 5 C -4.2409 -1.4024 0.1226 0
M  V30 6 C 0.4863 -0.0928 -0.3394 0
M  V30 7 C -1.1294 1.5544 -1.1158 0
M  V30 8 C -5.5831 -0.99 0.0017 0
M  V30 9 C -3.9522 -2.7326 0.477 0
M  V30 10 O 0.7855 -1.3713 0.1414 0
M  V30 11 C 1.5195 0.8731 -0.4386 0
M  V30 12 C -0.1233 2.5205 -1.2014 0
M  V30 13 O -5.8447 0.3494 -0.3365 0
M  V30 14 C -6.615 -1.9298 0.2032 0
M  V30 15 C -4.9837 -3.6511 0.6759 0
M  V30 16 N 2.8847 0.5621 -0.1015 0
M  V30 17 C 1.2105 2.1837 -0.8683 0
M  V30 18 C -0.4332 3.8225 -1.6282 0
M  V30 19 C -7.1326 0.9641 -0.379 0
M  V30 20 C -6.3119 -3.2514 0.5353 0
M  V30 21 N 3.2702 -0.5817 0.2997 0
M  V30 22 C 2.2089 3.1755 -0.9719 0
M  V30 23 C 0.5689 4.7889 -1.7243 0
M  V30 24 C -7.6489 1.2342 1.0297 0
M  V30 25 C 4.6389 -0.8526 0.6235 0
M  V30 26 C 1.8855 4.4663 -1.3971 0
M  V30 27 C 4.9885 -2.1288 1.075 0
M  V30 28 C 5.6364 0.1286 0.4937 0
M  V30 29 C 6.315 -2.4264 1.4003 0
M  V30 30 C 6.9642 -0.1671 0.8169 0
M  V30 31 C 7.3176 -1.4466 1.2829 0
M  V30 32 C 8.7217 -1.7799 1.6268 0
M  V30 33 O 9.0944 -2.9841 1.6248 0
M  V30 34 N 9.6683 -0.7655 1.9748 0
M  V30 35 H -3.3543 0.5379 0.2591 0
M  V30 36 H -2.1436 1.8125 -1.4011 0
M  V30 37 H -2.9303 -3.0553 0.6256 0
M  V30 38 H 0.0849 -2.0718 0.3436 0
M  V30 39 H -7.655 -1.6542 0.1055 0
M  V30 40 H -4.7527 -4.6728 0.9481 0
M  V30 41 H -1.45 4.0923 -1.8881 0
M  V30 42 H -7.0362 1.9357 -0.9074 0
M  V30 43 H -7.8506 0.344 -0.9559 0
M  V30 44 H -7.1098 -3.966 0.6908 0
M  V30 45 H 3.2416 2.9621 -0.7267 0
M  V30 46 H 0.3242 5.7906 -2.0538 0
M  V30 47 H -6.9327 1.884 1.5756 0
M  V30 48 H -8.6305 1.7497 0.9752 0
M  V30 49 H -7.7756 0.286 1.5913 0
M  V30 50 H 2.6596 5.2191 -1.4734 0
M  V30 51 H 4.2292 -2.8946 1.177 0
M  V30 52 H 5.3927 1.121 0.1354 0
M  V30 53 H 6.5544 -3.4219 1.7536 0
M  V30 54 H 7.7109 0.6025 0.6754 0
M  V30 55 H 10.6637 -1.0237 2.155 0
M  V30 56 H 9.3814 0.2246 2.1352 0
M  V30 END ATOM
M  V30 BEGIN BOND
M  V30 1 2 1 2
M  V30 2 1 2 3
M  V30 3 1 2 4
M  V30 4 1 3 5
M  V30 5 1 4 6
M  V30 6 2 4 7
M  V30 7 2 5 8
M  V30 8 1 5 9
M  V30 9 1 6 10
M  V30 10 2 6 11
M  V30 11 1 7 12
M  V30 12 1 8 13
M  V30 13 1 8 14
M  V30 14 2 9 15
M  V30 15 1 11 16
M  V30 16 1 11 17
M  V30 17 2 12 18
M  V30 18 1 13 19
M  V30 19 2 14 20
M  V30 20 2 16 21
M  V30 21 2 17 22
M  V30 22 1 18 23
M  V30 23 1 19 24
M  V30 24 1 21 25
M  V30 25 1 22 26
M  V30 26 2 25 27
M  V30 27 1 25 28
M  V30 28 1 27 29
M  V30 29 2 28 30
M  V30 30 2 29 31
M  V30 31 1 31 32
M  V30 32 2 32 33
M  V30 33 1 32 34
M  V30 34 1 12 17
M  V30 35 1 15 20
M  V30 36 2 23 26
M  V30 37 1 30 31
M  V30 38 1 3 35
M  V30 39 1 7 36
M  V30 40 1 9 37
M  V30 41 1 10 38
M  V30 42 1 14 39
M  V30 43 1 15 40
M  V30 44 1 18 41
M  V30 45 1 19 42
M  V30 46 1 19 43
M  V30 47 1 20 44
M  V30 48 1 22 45
M  V30 49 1 23 46
M  V30 50 1 24 47
M  V30 51 1 24 48
M  V30 52 1 24 49
M  V30 53 1 26 50
M  V30 54 1 27 51
M  V30 55 1 28 52
M  V30 56 1 29 53
M  V30 57 1 30 54
M  V30 58 1 34 55
M  V30 59 1 34 56
M  V30 END BOND
M  V30 END CTAB
M  END
>  <Structure No>
3053

>  <LogS>
-7.581973548

>  <MMFF94 Energy>
77.357

$$$$
Compound 3054
Actelion Java MolfileCreator 2.0

  0  0  0  0  0  0              0 V3000
M  V30 BEGIN CTAB
M  V30 COUNTS 50 53 0 0 0
M  V30 BEGIN ATOM
M  V30 1 O 5.2605 -0.2423 4.774 0
M  V30 2 N 6.0158 0.3343 3.9638 0 CHG=1
M  V30 3 O 7.2761 0.7 4.3786 0 CHG=-1
M  V30 4 C 5.5786 0.6108 2.6202 0
M  V30 5 C 4.2906 0.2457 2.1947 0
M  V30 6 C 6.4364 1.2469 1.7132 0
M  V30 7 C 3.854 0.5 0.8869 0
M  V30 8 C 6.0147 1.5222 0.4126 0
M  V30 9 N 2.5227 0.0709 0.5528 0
M  V30 10 C 4.7246 1.1686 -0.0187 0
M  V30 11 N 2.0684 0.024 -0.6334 0
M  V30 12 C 4.3201 1.5273 -1.425 0
M  V30 13 C 0.7281 -0.4014 -0.9248 0
M  V30 14 C -0.361 -0.0498 -0.0865 0
M  V30 15 C 0.4971 -1.1952 -2.0704 0
M  V30 16 O -0.2092 0.8618 0.9634 0
M  V30 17 C -1.6447 -0.5774 -0.3366 0
M  V30 18 C -0.8018 -1.697 -2.3274 0
M  V30 19 C 1.5427 -1.5245 -2.9582 0
M  V30 20 C -2.7772 -0.2613 0.5667 0
M  V30 21 C -1.8512 -1.4015 -1.4516 0
M  V30 22 C -1.0316 -2.5048 -3.4535 0
M  V30 23 C 1.298 -2.3253 -4.0765 0
M  V30 24 O -2.579 -0.2335 1.812 0
M  V30 25 N -4.0944 -0.0164 0.0391 0
M  V30 26 C 0.015 -2.8136 -4.3236 0
M  V30 27 C -5.2169 0.392 0.8392 0
M  V30 28 C -5.07 1.3031 1.9022 0
M  V30 29 C -6.4997 -0.0767 0.5138 0
M  V30 30 C -6.1843 1.703 2.647 0
M  V30 31 C -7.611 0.3245 1.2616 0
M  V30 32 C -7.4529 1.2104 2.3303 0
M  V30 33 H 3.6163 -0.2515 2.8815 0
M  V30 34 H 7.436 1.5376 2.0097 0
M  V30 35 H 6.7018 2.0227 -0.2587 0
M  V30 36 H 3.3725 2.1058 -1.4145 0
M  V30 37 H 4.2019 0.6049 -2.0301 0
M  V30 38 H 5.0842 2.1613 -1.9235 0
M  V30 39 H 0.6034 1.4519 1.0782 0
M  V30 40 H 2.551 -1.1669 -2.7961 0
M  V30 41 H -2.8304 -1.8283 -1.6346 0
M  V30 42 H -2.0204 -2.897 -3.6605 0
M  V30 43 H 2.1072 -2.5698 -4.7525 0
M  V30 44 H -4.2709 -0.1898 -0.9753 0
M  V30 45 H -0.1685 -3.4352 -5.1904 0
M  V30 46 H -4.1038 1.7275 2.1402 0
M  V30 47 H -6.6349 -0.7619 -0.3136 0
M  V30 48 H -6.0655 2.4029 3.4642 0
M  V30 49 H -8.5953 -0.0492 1.0107 0
M  V30 50 H -8.3142 1.5224 2.9069 0
M  V30 END ATOM
M  V30 BEGIN BOND
M  V30 1 2 1 2
M  V30 2 1 2 3
M  V30 3 1 2 4
M  V30 4 2 4 5
M  V30 5 1 4 6
M  V30 6 1 5 7
M  V30 7 2 6 8
M  V30 8 1 7 9
M  V30 9 2 7 10
M  V30 10 2 9 11
M  V30 11 1 10 12
M  V30 12 1 11 13
M  V30 13 2 13 14
M  V30 14 1 13 15
M  V30 15 1 14 16
M  V30 16 1 14 17
M  V30 17 1 15 18
M  V30 18 2 15 19
M  V30 19 1 17 20
M  V30 20 2 17 21
M  V30 21 2 18 22
M  V30 22 1 19 23
M  V30 23 2 20 24
M  V30 24 1 20 25
M  V30 25 1 22 26
M  V30 26 1 25 27
M  V30 27 2 27 28
M  V30 28 1 27 29
M  V30 29 1 28 30
M  V30 30 2 29 31
M  V30 31 2 30 32
M  V30 32 1 8 10
M  V30 33 1 18 21
M  V30 34 2 23 26
M  V30 35 1 31 32
M  V30 36 1 5 33
M  V30 37 1 6 34
M  V30 38 1 8 35
M  V30 39 1 12 36
M  V30 40 1 12 37
M  V30 41 1 12 38
M  V30 42 1 16 39
M  V30 43 1 19 40
M  V30 44 1 21 41
M  V30 45 1 22 42
M  V30 46 1 23 43
M  V30 47 1 25 44
M  V30 48 1 26 45
M  V30 49 1 28 46
M  V30 50 1 29 47
M  V30 51 1 30 48
M  V30 52 1 31 49
M  V30 53 1 32 50
M  V30 END BOND
M  V30 END CTAB
M  END
>  <Structure No>
3054

>  <LogS>
-7.55796778

>  <MMFF94 Energy>
101.38

$$$$
Compound 3055
Actelion Java MolfileCreator 2.0

  0  0  0  0  0  0              0 V3000
M  V30 BEGIN CTAB
M  V30 COUNTS 41 43 0 0 0
M  V30 BEGIN ATOM
M  V30 1 O 6.3144 -2.8296 4.6114 0
M  V30 2 N 6.6452 -1.9275 3.8136 0 CHG=1
M  V30 3 O 7.9499 -1.4898 3.8125 0 CHG=-1
M  V30 4 C 5.6835 -1.3641 2.9027 0
M  V30 5 C 6.0707 -0.3738 1.9829 0
M  V30 6 C 4.3431 -1.7928 2.9161 0
M  V30 7 C 5.1386 0.175 1.097 0
M  V30 8 C 3.4125 -1.2422 2.0295 0
M  V30 9 C 3.8076 -0.254 1.1143 0
M  V30 10 N 2.8773 0.3266 0.1958 0 CHG=-1
M  V30 11 N 1.5295 -0.0598 0.1522 0
M  V30 12 C 0.6673 0.4494 -0.6795 0
M  V30 13 C -0.7429 0.015 -0.5772 0
M  V30 14 C 1.0552 1.4797 -1.6764 0
M  V30 15 O -1.1093 -0.6548 0.427 0
M  V30 16 N -1.678 0.2935 -1.6331 0
M  V30 17 O 0.3022 2.4732 -1.8627 0
M  V30 18 C 2.322 1.3783 -2.4691 0
M  V30 19 C -3.1061 0.2339 -1.4754 0
M  V30 20 C -3.7226 0.5526 -0.2401 0
M  V30 21 C -3.9132 -0.0968 -2.5959 0
M  V30 22 C -5.1122 0.4959 -0.1727 0
M  V30 23 C -5.3159 -0.1432 -2.4885 0
M  V30 24 N -5.9067 0.7556 0.8793 0
M  V30 25 C -5.8778 0.1589 -1.2525 0
M  V30 26 C -7.1548 0.5617 0.3901 0
M  V30 27 N -7.1774 0.1948 -0.9136 0
M  V30 28 O -8.1966 0.7113 1.0818 0
M  V30 29 H 7.0938 -0.0227 1.9476 0
M  V30 30 H 4.0142 -2.5537 3.6124 0
M  V30 31 H 5.4533 0.9375 0.3951 0
M  V30 32 H 2.3875 -1.5888 2.061 0
M  V30 33 H -1.3006 0.4499 -2.5948 0
M  V30 34 H 2.1561 1.7678 -3.4958 0
M  V30 35 H 2.6501 0.32 -2.5479 0
M  V30 36 H 3.1176 1.9802 -1.9818 0
M  V30 37 H -3.1485 0.8565 0.6251 0
M  V30 38 H -3.4505 -0.3247 -3.5477 0
M  V30 39 H -5.9343 -0.3999 -3.3388 0
M  V30 40 H -5.6285 1.0431 1.8442 0
M  V30 41 H -8.0082 -0.0057 -1.5141 0
M  V30 END ATOM
M  V30 BEGIN BOND
M  V30 1 2 1 2
M  V30 2 1 2 3
M  V30 3 1 2 4
M  V30 4 2 4 5
M  V30 5 1 4 6
M  V30 6 1 5 7
M  V30 7 2 6 8
M  V30 8 2 7 9
M  V30 9 1 9 10
M  V30 10 1 10 11
M  V30 11 2 11 12
M  V30 12 1 12 13
M  V30 13 1 12 14
M  V30 14 2 13 15
M  V30 15 1 13 16
M  V30 16 2 14 17
M  V30 17 1 14 18
M  V30 18 1 16 19
M  V30 19 2 19 20
M  V30 20 1 19 21
M  V30 21 1 20 22
M  V30 22 2 21 23
M  V30 23 1 22 24
M  V30 24 2 22 25
M  V30 25 1 24 26
M  V30 26 1 25 27
M  V30 27 2 26 28
M  V30 28 1 8 9
M  V30 29 1 23 25
M  V30 30 1 26 27
M  V30 31 1 5 29
M  V30 32 1 6 30
M  V30 33 1 7 31
M  V30 34 1 8 32
M  V30 35 1 16 33
M  V30 36 1 18 34
M  V30 37 1 18 35
M  V30 38 1 18 36
M  V30 39 1 20 37
M  V30 40 1 21 38
M  V30 41 1 23 39
M  V30 42 1 24 40
M  V30 43 1 27 41
M  V30 END BOND
M  V30 END CTAB
M  END
>  <Structure No>
3055

>  <LogS>
-7.525540341

>  <MMFF94 Energy>
33.708

$$$$
Compound 3056
Actelion Java MolfileCreator 2.0

  0  0  0  0  0  0              0 V3000
M  V30 BEGIN CTAB
M  V30 COUNTS 78 84 0 0 0
M  V30 BEGIN ATOM
M  V30 1 Cl 0.9997 -2.3338 1.9168 0
M  V30 2 C 0.4727 -1.0804 0.7996 0
M  V30 3 C 1.3857 -0.4438 -0.0611 0
M  V30 4 C -0.8855 -0.7447 0.7516 0
M  V30 5 N 2.783 -0.7704 -0.0026 0
M  V30 6 C 0.9226 0.5471 -0.9426 0
M  V30 7 C -1.3445 0.2491 -0.1231 0
M  V30 8 C 3.5902 -0.9892 -1.1722 0
M  V30 9 C -0.4315 0.8859 -0.9786 0
M  V30 10 N -2.7477 0.5499 -0.1769 0
M  V30 11 O 3.0681 -0.9479 -2.3192 0
M  V30 12 C 5.0408 -1.2477 -1.0517 0
M  V30 13 C -3.2722 1.8789 -0.3477 0
M  V30 14 C 5.5508 -2.1492 -0.0969 0
M  V30 15 C 5.9193 -0.5768 -1.9126 0
M  V30 16 O -2.5009 2.8756 -0.2969 0
M  V30 17 C -4.7128 2.0975 -0.6076 0
M  V30 18 O 4.6666 -2.8687 0.7117 0
M  V30 19 C 6.9428 -2.3253 0.0363 0
M  V30 20 C 7.3009 -0.7796 -1.8251 0
M  V30 21 C -5.7056 1.4053 0.1147 0
M  V30 22 C -5.0872 3.0402 -1.5733 0
M  V30 23 N 7.4422 -3.172 1.0864 0
M  V30 24 C 7.8256 -1.6666 -0.8532 0
M  V30 25 C 8.1676 -0.1059 -2.7006 0
M  V30 26 O -5.318 0.6335 1.2138 0
M  V30 27 C -7.0715 1.557 -0.236 0
M  V30 28 C -6.4356 3.2694 -1.8646 0
M  V30 29 N 8.1599 -2.7654 2.0647 0
M  V30 30 C 9.2179 -1.8854 -0.814 0
M  V30 31 C 9.5452 -0.3168 -2.6279 0
M  V30 32 N -8.0941 0.7334 0.3462 0
M  V30 33 C -7.4386 2.5205 -1.2019 0
M  V30 34 C -6.7953 4.2241 -2.8296 0
M  V30 35 C 8.4867 -1.39 2.3338 0
M  V30 36 C 10.0681 -1.2073 -1.6907 0
M  V30 37 N -7.8824 -0.4749 0.6834 0
M  V30 38 C -8.7895 2.7445 -1.5375 0
M  V30 39 C -8.1386 4.4365 -3.1423 0
M  V30 40 C 9.8081 -1.0382 2.6592 0
M  V30 41 C 7.4912 -0.3968 2.3312 0
M  V30 42 C -8.9015 -1.2996 1.2615 0
M  V30 43 C -9.1321 3.6981 -2.499 0
M  V30 44 Cl 11.0758 -2.2541 2.7103 0
M  V30 45 C 10.1338 0.2982 2.9208 0
M  V30 46 C 7.8227 0.9371 2.5878 0
M  V30 47 C -8.5772 -2.6009 1.6821 0
M  V30 48 C -10.2195 -0.8314 1.4203 0
M  V30 49 C 9.1452 1.2849 2.8777 0
M  V30 50 Cl 6.5761 2.1708 2.5554 0
M  V30 51 Cl -6.9402 -3.2195 1.5085 0
M  V30 52 C -9.5586 -3.4197 2.2529 0
M  V30 53 C -11.1964 -1.6552 1.9895 0
M  V30 54 C -10.8641 -2.9478 2.4073 0
M  V30 55 Cl -12.8379 -1.0672 2.1816 0
M  V30 56 H -1.5867 -1.2502 1.4046 0
M  V30 57 H 3.2213 -0.8583 0.9405 0
M  V30 58 H 1.6117 1.0716 -1.5923 0
M  V30 59 H -0.767 1.6276 -1.6916 0
M  V30 60 H -3.4117 -0.2492 -0.0691 0
M  V30 61 H 5.523 0.1145 -2.649 0
M  V30 62 H 4.9791 -3.5283 1.4133 0
M  V30 63 H -4.3207 3.5918 -2.1071 0
M  V30 64 H 7.7793 0.5816 -3.4432 0
M  V30 65 H -5.9613 0.307 1.922 0
M  V30 66 H 9.6568 -2.5861 -0.1174 0
M  V30 67 H 10.2085 0.2053 -3.3058 0
M  V30 68 H -6.0371 4.8041 -3.3425 0
M  V30 69 H 11.1364 -1.3774 -1.6457 0
M  V30 70 H -9.5868 2.1897 -1.0586 0
M  V30 71 H -8.4108 5.174 -3.8868 0
M  V30 72 H 6.4585 -0.6578 2.1435 0
M  V30 73 H -10.1723 3.8641 -2.7471 0
M  V30 74 H 11.1544 0.5736 3.1557 0
M  V30 75 H -10.4912 0.166 1.0973 0
M  V30 76 H 9.4062 2.3169 3.0767 0
M  V30 77 H -9.3097 -4.4219 2.5801 0
M  V30 78 H -11.6168 -3.5862 2.8517 0
M  V30 END ATOM
M  V30 BEGIN BOND
M  V30 1 1 1 2
M  V30 2 2 2 3
M  V30 3 1 2 4
M  V30 4 1 3 5
M  V30 5 1 3 6
M  V30 6 2 4 7
M  V30 7 1 5 8
M  V30 8 2 6 9
M  V30 9 1 7 10
M  V30 10 2 8 11
M  V30 11 1 8 12
M  V30 12 1 10 13
M  V30 13 1 12 14
M  V30 14 2 12 15
M  V30 15 2 13 16
M  V30 16 1 13 17
M  V30 17 1 14 18
M  V30 18 2 14 19
M  V30 19 1 15 20
M  V30 20 1 17 21
M  V30 21 2 17 22
M  V30 22 1 19 23
M  V30 23 1 19 24
M  V30 24 2 20 25
M  V30 25 1 21 26
M  V30 26 2 21 27
M  V30 27 1 22 28
M  V30 28 2 23 29
M  V30 29 2 24 30
M  V30 30 1 25 31
M  V30 31 1 27 32
M  V30 32 1 27 33
M  V30 33 2 28 34
M  V30 34 1 29 35
M  V30 35 1 30 36
M  V30 36 2 32 37
M  V30 37 2 33 38
M  V30 38 1 34 39
M  V30 39 2 35 40
M  V30 40 1 35 41
M  V30 41 1 37 42
M  V30 42 1 38 43
M  V30 43 1 40 44
M  V30 44 1 40 45
M  V30 45 2 41 46
M  V30 46 2 42 47
M  V30 47 1 42 48
M  V30 48 2 45 49
M  V30 49 1 46 50
M  V30 50 1 47 51
M  V30 51 1 47 52
M  V30 52 2 48 53
M  V30 53 2 52 54
M  V30 54 1 53 55
M  V30 55 1 7 9
M  V30 56 1 20 24
M  V30 57 1 28 33
M  V30 58 2 31 36
M  V30 59 2 39 43
M  V30 60 1 46 49
M  V30 61 1 53 54
M  V30 62 1 4 56
M  V30 63 1 5 57
M  V30 64 1 6 58
M  V30 65 1 9 59
M  V30 66 1 10 60
M  V30 67 1 15 61
M  V30 68 1 18 62
M  V30 69 1 22 63
M  V30 70 1 25 64
M  V30 71 1 26 65
M  V30 72 1 30 66
M  V30 73 1 31 67
M  V30 74 1 34 68
M  V30 75 1 36 69
M  V30 76 1 38 70
M  V30 77 1 39 71
M  V30 78 1 41 72
M  V30 79 1 43 73
M  V30 80 1 45 74
M  V30 81 1 48 75
M  V30 82 1 49 76
M  V30 83 1 52 77
M  V30 84 1 54 78
M  V30 END BOND
M  V30 END CTAB
M  END
>  <Structure No>
3056

>  <LogS>
-7.869298263

>  <MMFF94 Energy>
145.18

$$$$
Compound 3057
Actelion Java MolfileCreator 2.0

  0  0  0  0  0  0              0 V3000
M  V30 BEGIN CTAB
M  V30 COUNTS 58 57 0 0 0
M  V30 BEGIN ATOM
M  V30 1 O -6.3557 -2.5071 -5.0977 0
M  V30 2 C -6.7793 -1.5561 -4.383 0
M  V30 3 O -5.8871 -0.819 -3.5971 0
M  V30 4 C -8.2185 -1.2108 -4.3684 0
M  V30 5 C -4.4912 -1.0952 -3.5525 0
M  V30 6 C -9.086 -1.8416 -5.1692 0
M  V30 7 C -8.6933 -0.0851 -3.4913 0
M  V30 8 C -3.8088 -0.1091 -2.6068 0
M  V30 9 C -2.302 -0.3781 -2.5193 0
M  V30 10 C -1.6184 0.6189 -1.5759 0
M  V30 11 C -0.1126 0.3322 -1.471 0
M  V30 12 C 0.6405 1.3944 -0.6539 0
M  V30 13 C 0.3565 1.2916 0.8543 0
M  V30 14 C 1.0904 2.3677 1.6751 0
M  V30 15 C 2.6306 2.3051 1.6162 0
M  V30 16 C 3.2461 0.9515 2.0137 0
M  V30 17 C 2.9214 0.5518 3.4619 0
M  V30 18 C 3.648 -0.7302 3.8679 0
M  V30 19 O 5.0554 -0.511 3.8799 0
M  V30 20 C 5.975 -1.5113 4.2109 0
M  V30 21 O 5.569 -2.6618 4.5357 0
M  V30 22 C 7.423 -1.2075 4.1752 0
M  V30 23 C 8.3267 -2.1142 4.5664 0
M  V30 24 C 7.8721 0.1657 3.7578 0
M  V30 25 H -4.061 -0.9939 -4.5731 0
M  V30 26 H -4.3317 -2.1344 -3.1897 0
M  V30 27 H -8.7688 -2.6387 -5.8298 0
M  V30 28 H -10.1343 -1.5692 -5.1806 0
M  V30 29 H -9.7925 -0.1245 -3.3314 0
M  V30 30 H -8.4338 0.8854 -3.9636 0
M  V30 31 H -8.2056 -0.145 -2.4955 0
M  V30 32 H -3.9825 0.9254 -2.9762 0
M  V30 33 H -4.2635 -0.2035 -1.5962 0
M  V30 34 H -2.1342 -1.4124 -2.1454 0
M  V30 35 H -1.8538 -0.2917 -3.5339 0
M  V30 36 H -2.0864 0.5389 -0.5719 0
M  V30 37 H -1.7737 1.6513 -1.9596 0
M  V30 38 H 0.3202 0.3199 -2.4954 0
M  V30 39 H 0.0516 -0.6731 -1.0247 0
M  V30 40 H 1.7254 1.2377 -0.8305 0
M  V30 41 H 0.38 2.4107 -1.0227 0
M  V30 42 H -0.7301 1.4325 1.0321 0
M  V30 43 H 0.6162 0.2782 1.2266 0
M  V30 44 H 0.7617 2.2944 2.7338 0
M  V30 45 H 0.7681 3.3703 1.3177 0
M  V30 46 H 3.0371 3.0917 2.2888 0
M  V30 47 H 2.9717 2.5669 0.5924 0
M  V30 48 H 2.9143 0.1564 1.3131 0
M  V30 49 H 4.3487 1.0408 1.9015 0
M  V30 50 H 1.8296 0.376 3.5665 0
M  V30 51 H 3.2128 1.3708 4.1554 0
M  V30 52 H 3.3132 -1.0283 4.8852 0
M  V30 53 H 3.3977 -1.5481 3.1571 0
M  V30 54 H 8.0302 -3.1025 4.8951 0
M  V30 55 H 9.3851 -1.8833 4.5659 0
M  V30 56 H 7.2965 0.5014 2.8691 0
M  V30 57 H 7.6997 0.8796 4.5905 0
M  V30 58 H 8.9503 0.1816 3.4883 0
M  V30 END ATOM
M  V30 BEGIN BOND
M  V30 1 2 1 2
M  V30 2 1 2 3
M  V30 3 1 2 4
M  V30 4 1 3 5
M  V30 5 2 4 6
M  V30 6 1 4 7
M  V30 7 1 5 8
M  V30 8 1 8 9
M  V30 9 1 9 10
M  V30 10 1 10 11
M  V30 11 1 11 12
M  V30 12 1 12 13
M  V30 13 1 13 14
M  V30 14 1 14 15
M  V30 15 1 15 16
M  V30 16 1 16 17
M  V30 17 1 17 18
M  V30 18 1 18 19
M  V30 19 1 19 20
M  V30 20 2 20 21
M  V30 21 1 20 22
M  V30 22 2 22 23
M  V30 23 1 22 24
M  V30 24 1 5 25
M  V30 25 1 5 26
M  V30 26 1 6 27
M  V30 27 1 6 28
M  V30 28 1 7 29
M  V30 29 1 7 30
M  V30 30 1 7 31
M  V30 31 1 8 32
M  V30 32 1 8 33
M  V30 33 1 9 34
M  V30 34 1 9 35
M  V30 35 1 10 36
M  V30 36 1 10 37
M  V30 37 1 11 38
M  V30 38 1 11 39
M  V30 39 1 12 40
M  V30 40 1 12 41
M  V30 41 1 13 42
M  V30 42 1 13 43
M  V30 43 1 14 44
M  V30 44 1 14 45
M  V30 45 1 15 46
M  V30 46 1 15 47
M  V30 47 1 16 48
M  V30 48 1 16 49
M  V30 49 1 17 50
M  V30 50 1 17 51
M  V30 51 1 18 52
M  V30 52 1 18 53
M  V30 53 1 23 54
M  V30 54 1 23 55
M  V30 55 1 24 56
M  V30 56 1 24 57
M  V30 57 1 24 58
M  V30 END BOND
M  V30 END CTAB
M  END
>  <Structure No>
3057

>  <LogS>
-7.484220298

>  <MMFF94 Energy>
2.7315

$$$$
Compound 3058
Actelion Java MolfileCreator 2.0

  0  0  0  0  0  0              0 V3000
M  V30 BEGIN CTAB
M  V30 COUNTS 57 60 0 0 0
M  V30 BEGIN ATOM
M  V30 1 O -8.305 5.0735 -0.6431 0
M  V30 2 C -7.8984 3.8987 -0.4426 0
M  V30 3 N -6.6046 3.5975 -0.1778 0
M  V30 4 N -8.714 2.8174 -0.4711 0
M  V30 5 C -6.6155 2.2616 -0.0353 0
M  V30 6 C -7.8855 1.792 -0.2121 0
M  V30 7 C -5.5478 1.4147 0.2489 0
M  V30 8 C -8.1917 0.4389 -0.11 0
M  V30 9 C -5.8071 0.0289 0.338 0
M  V30 10 C -7.1377 -0.449 0.1764 0
M  V30 11 N -4.7255 -0.8632 0.6518 0
M  V30 12 C -4.5623 -2.1686 0.0695 0
M  V30 13 O -5.3997 -2.606 -0.765 0
M  V30 14 C -3.4056 -3.0176 0.4368 0
M  V30 15 N -2.191 -2.552 0.4213 0
M  V30 16 C -3.6234 -4.4364 0.7932 0
M  V30 17 N -1.8814 -1.2426 0.0245 0 CHG=-1
M  V30 18 O -4.7953 -4.896 0.8652 0
M  V30 19 C -2.4665 -5.3429 1.0853 0
M  V30 20 C -0.541 -0.744 0.024 0
M  V30 21 C 0.537 -1.5439 0.4335 0
M  V30 22 C -0.3043 0.5711 -0.3867 0
M  V30 23 C 1.8383 -1.0323 0.4224 0
M  V30 24 C 0.9955 1.0847 -0.3983 0
M  V30 25 C 2.0842 0.2854 -0.0065 0
M  V30 26 C 3.455 0.8523 -0.0239 0
M  V30 27 O 3.6028 2.0934 0.1478 0
M  V30 28 N 4.6089 0.0137 -0.224 0
M  V30 29 C 5.9499 0.5172 -0.3464 0
M  V30 30 C 7.0102 -0.2087 0.2125 0
M  V30 31 C 6.2306 1.6851 -1.0747 0
M  V30 32 C 8.3266 0.2454 0.0891 0
M  V30 33 C 7.5465 2.1393 -1.2021 0
M  V30 34 C 8.6089 1.4334 -0.6091 0
M  V30 35 C 10.0002 1.9272 -0.7552 0
M  V30 36 O 10.2883 2.7084 -1.702 0
M  V30 37 N 11.0278 1.551 0.1658 0
M  V30 38 H -5.7915 4.2493 -0.1032 0
M  V30 39 H -9.7424 2.7883 -0.6501 0
M  V30 40 H -4.5488 1.8097 0.3857 0
M  V30 41 H -9.2059 0.0824 -0.2348 0
M  V30 42 H -7.3652 -1.4991 0.299 0
M  V30 43 H -3.9778 -0.5049 1.2878 0
M  V30 44 H -2.8226 -6.3701 1.3136 0
M  V30 45 H -1.9008 -4.9587 1.96 0
M  V30 46 H -1.7934 -5.3875 0.2034 0
M  V30 47 H 0.3746 -2.5602 0.7694 0
M  V30 48 H -1.1298 1.1988 -0.698 0
M  V30 49 H 2.6391 -1.665 0.7782 0
M  V30 50 H 1.1512 2.105 -0.7271 0
M  V30 51 H 4.4924 -1.0227 -0.2356 0
M  V30 52 H 6.814 -1.1277 0.7505 0
M  V30 53 H 5.4388 2.2329 -1.5685 0
M  V30 54 H 9.1189 -0.3513 0.5201 0
M  V30 55 H 7.7327 3.0465 -1.764 0
M  V30 56 H 10.8135 1.0426 1.0512 0
M  V30 57 H 12.0106 1.8648 0.0047 0
M  V30 END ATOM
M  V30 BEGIN BOND
M  V30 1 2 1 2
M  V30 2 1 2 3
M  V30 3 1 2 4
M  V30 4 1 3 5
M  V30 5 1 4 6
M  V30 6 1 5 7
M  V30 7 1 6 8
M  V30 8 2 7 9
M  V30 9 2 8 10
M  V30 10 1 9 11
M  V30 11 1 11 12
M  V30 12 2 12 13
M  V30 13 1 12 14
M  V30 14 2 14 15
M  V30 15 1 14 16
M  V30 16 1 15 17
M  V30 17 2 16 18
M  V30 18 1 16 19
M  V30 19 1 17 20
M  V30 20 2 20 21
M  V30 21 1 20 22
M  V30 22 1 21 23
M  V30 23 2 22 24
M  V30 24 2 23 25
M  V30 25 1 25 26
M  V30 26 2 26 27
M  V30 27 1 26 28
M  V30 28 1 28 29
M  V30 29 2 29 30
M  V30 30 1 29 31
M  V30 31 1 30 32
M  V30 32 2 31 33
M  V30 33 2 32 34
M  V30 34 1 34 35
M  V30 35 2 35 36
M  V30 36 1 35 37
M  V30 37 2 5 6
M  V30 38 1 9 10
M  V30 39 1 24 25
M  V30 40 1 33 34
M  V30 41 1 3 38
M  V30 42 1 4 39
M  V30 43 1 7 40
M  V30 44 1 8 41
M  V30 45 1 10 42
M  V30 46 1 11 43
M  V30 47 1 19 44
M  V30 48 1 19 45
M  V30 49 1 19 46
M  V30 50 1 21 47
M  V30 51 1 22 48
M  V30 52 1 23 49
M  V30 53 1 24 50
M  V30 54 1 28 51
M  V30 55 1 30 52
M  V30 56 1 31 53
M  V30 57 1 32 54
M  V30 58 1 33 55
M  V30 59 1 37 56
M  V30 60 1 37 57
M  V30 END BOND
M  V30 END CTAB
M  END
>  <Structure No>
3058

>  <LogS>
-6.672808806

>  <MMFF94 Energy>
9.1457

$$$$
Compound 3059
Actelion Java MolfileCreator 2.0

  0  0  0  0  0  0              0 V3000
M  V30 BEGIN CTAB
M  V30 COUNTS 82 85 0 0 0
M  V30 BEGIN ATOM
M  V30 1 Cl 2.9251 1.218 1.2992 0
M  V30 2 C 2.1796 -0.2108 0.5983 0
M  V30 3 C 2.9438 -1.1389 -0.1273 0
M  V30 4 C 0.8025 -0.4127 0.7618 0
M  V30 5 N 4.3503 -0.9115 -0.3078 0 CHG=-1
M  V30 6 C 2.3171 -2.2736 -0.6706 0
M  V30 7 C 0.1782 -1.5465 0.2192 0
M  V30 8 N 5.163 -1.8 -1.0234 0
M  V30 9 C 0.9477 -2.482 -0.4896 0
M  V30 10 C -1.2797 -1.7436 0.3702 0
M  V30 11 C 6.4377 -1.6135 -1.218 0
M  V30 12 C -1.7877 -2.968 0.8318 0
M  V30 13 C -2.1713 -0.7031 0.0625 0
M  V30 14 C 7.1232 -0.3782 -0.7536 0
M  V30 15 C 7.1837 -2.6326 -1.9924 0
M  V30 16 C -3.1662 -3.1581 0.979 0
M  V30 17 C -3.5479 -0.8961 0.1805 0
M  V30 18 O 6.533 0.7329 -0.8468 0
M  V30 19 N 8.4709 -0.4398 -0.2474 0
M  V30 20 O 8.3505 -2.3902 -2.4002 0
M  V30 21 C 6.5556 -3.9476 -2.3467 0
M  V30 22 Cl -3.6994 -4.6874 1.6835 0
M  V30 23 C -4.0614 -2.1201 0.6259 0
M  V30 24 C 9.317 0.7085 -0.0699 0
M  V30 25 N -5.487 -2.257 0.6855 0 CHG=-1
M  V30 26 C 8.8445 1.8904 0.5332 0
M  V30 27 C 10.6625 0.6302 -0.4539 0
M  V30 28 N -6.1538 -3.4902 0.7156 0
M  V30 29 C 9.692 2.9916 0.6922 0
M  V30 30 C 11.5053 1.7334 -0.2999 0
M  V30 31 C -7.451 -3.5918 0.7128 0
M  V30 32 C 11.0302 2.926 0.2592 0
M  V30 33 C -8.3235 -2.3918 0.6435 0
M  V30 34 C -8.0617 -4.934 0.8387 0
M  V30 35 O 11.9124 4.0119 0.366 0
M  V30 36 O -9.2843 -2.2927 1.4502 0
M  V30 37 N -8.0578 -1.3361 -0.3009 0
M  V30 38 O -9.3107 -5.07 0.7329 0
M  V30 39 C -7.2215 -6.1477 1.0864 0
M  V30 40 C 11.5919 5.2544 0.9908 0
M  V30 41 C -8.8578 -0.1492 -0.4083 0
M  V30 42 C 12.7866 6.1888 0.901 0
M  V30 43 C -10.2628 -0.2122 -0.3915 0
M  V30 44 C -8.2256 1.0856 -0.6345 0
M  V30 45 C -11.0221 0.948 -0.5645 0
M  V30 46 C -8.9839 2.2478 -0.8098 0
M  V30 47 C -10.3936 2.1883 -0.7716 0
M  V30 48 O -11.2103 3.3191 -0.9378 0
M  V30 49 C -10.7494 4.656 -1.122 0
M  V30 50 C -10.2454 5.2472 0.1895 0
M  V30 51 H 0.221 0.3113 1.3188 0
M  V30 52 H 2.8906 -3.0045 -1.2281 0
M  V30 53 H 0.4828 -3.3561 -0.923 0
M  V30 54 H -1.1092 -3.7667 1.1076 0
M  V30 55 H -1.8036 0.2525 -0.2986 0
M  V30 56 H -4.2181 -0.0947 -0.0994 0
M  V30 57 H 8.92 -1.3786 -0.1563 0
M  V30 58 H 5.6321 -3.7823 -2.9341 0
M  V30 59 H 6.3131 -4.5197 -1.425 0
M  V30 60 H 7.2508 -4.5586 -2.9614 0
M  V30 61 H 7.8281 1.9629 0.8973 0
M  V30 62 H 11.0599 -0.2797 -0.8853 0
M  V30 63 H 9.2929 3.884 1.1544 0
M  V30 64 H 12.5369 1.658 -0.6149 0
M  V30 65 H -7.2494 -1.4251 -0.9501 0
M  V30 66 H -6.466 -6.2535 0.2824 0
M  V30 67 H -7.8563 -7.0599 1.1124 0
M  V30 68 H -6.7075 -6.0458 2.0626 0
M  V30 69 H 11.332 5.0914 2.0622 0
M  V30 70 H 10.7337 5.7249 0.4664 0
M  V30 71 H 13.0217 6.397 -0.162 0
M  V30 72 H 13.6642 5.7146 1.3844 0
M  V30 73 H 12.5603 7.1411 1.4183 0
M  V30 74 H -10.7716 -1.1605 -0.2761 0
M  V30 75 H -7.1453 1.1422 -0.6682 0
M  V30 76 H -12.1098 0.8854 -0.5415 0
M  V30 77 H -8.4631 3.1766 -0.9784 0
M  V30 78 H -9.9668 4.7065 -1.9064 0
M  V30 79 H -11.608 5.2655 -1.4765 0
M  V30 80 H -9.1918 4.9558 0.3745 0
M  V30 81 H -10.8702 4.9063 1.045 0
M  V30 82 H -10.2901 6.3556 0.13 0
M  V30 END ATOM
M  V30 BEGIN BOND
M  V30 1 1 1 2
M  V30 2 2 2 3
M  V30 3 1 2 4
M  V30 4 1 3 5
M  V30 5 1 3 6
M  V30 6 2 4 7
M  V30 7 1 5 8
M  V30 8 2 6 9
M  V30 9 1 7 10
M  V30 10 2 8 11
M  V30 11 2 10 12
M  V30 12 1 10 13
M  V30 13 1 11 14
M  V30 14 1 11 15
M  V30 15 1 12 16
M  V30 16 2 13 17
M  V30 17 2 14 18
M  V30 18 1 14 19
M  V30 19 2 15 20
M  V30 20 1 15 21
M  V30 21 1 16 22
M  V30 22 2 16 23
M  V30 23 1 19 24
M  V30 24 1 23 25
M  V30 25 2 24 26
M  V30 26 1 24 27
M  V30 27 1 25 28
M  V30 28 1 26 29
M  V30 29 2 27 30
M  V30 30 2 28 31
M  V30 31 2 29 32
M  V30 32 1 31 33
M  V30 33 1 31 34
M  V30 34 1 32 35
M  V30 35 2 33 36
M  V30 36 1 33 37
M  V30 37 2 34 38
M  V30 38 1 34 39
M  V30 39 1 35 40
M  V30 40 1 37 41
M  V30 41 1 40 42
M  V30 42 2 41 43
M  V30 43 1 41 44
M  V30 44 1 43 45
M  V30 45 2 44 46
M  V30 46 2 45 47
M  V30 47 1 47 48
M  V30 48 1 48 49
M  V30 49 1 49 50
M  V30 50 1 7 9
M  V30 51 1 17 23
M  V30 52 1 30 32
M  V30 53 1 46 47
M  V30 54 1 4 51
M  V30 55 1 6 52
M  V30 56 1 9 53
M  V30 57 1 12 54
M  V30 58 1 13 55
M  V30 59 1 17 56
M  V30 60 1 19 57
M  V30 61 1 21 58
M  V30 62 1 21 59
M  V30 63 1 21 60
M  V30 64 1 26 61
M  V30 65 1 27 62
M  V30 66 1 29 63
M  V30 67 1 30 64
M  V30 68 1 37 65
M  V30 69 1 39 66
M  V30 70 1 39 67
M  V30 71 1 39 68
M  V30 72 1 40 69
M  V30 73 1 40 70
M  V30 74 1 42 71
M  V30 75 1 42 72
M  V30 76 1 42 73
M  V30 77 1 43 74
M  V30 78 1 44 75
M  V30 79 1 45 76
M  V30 80 1 46 77
M  V30 81 1 49 78
M  V30 82 1 49 79
M  V30 83 1 50 80
M  V30 84 1 50 81
M  V30 85 1 50 82
M  V30 END BOND
M  V30 END CTAB
M  END
>  <Structure No>
3059

>  <LogS>
-7.830582617

>  <MMFF94 Energy>
187.36

$$$$
Compound 3060
Actelion Java MolfileCreator 2.0

  0  0  0  0  0  0              0 V3000
M  V30 BEGIN CTAB
M  V30 COUNTS 42 43 0 0 0
M  V30 BEGIN ATOM
M  V30 1 S 3.5398 2.4769 0.0883 0
M  V30 2 C 4.1046 1.4017 -1.0153 0
M  V30 3 S 3.8109 1.7747 -2.7492 0
M  V30 4 N 4.9326 0.283 -0.6136 0
M  V30 5 S 2.0574 0.5639 -2.8643 0
M  V30 6 C 5.5037 0.2382 0.7458 0
M  V30 7 C 5.2795 -0.7826 -1.5691 0
M  V30 8 S 0.7538 2.2396 -2.7016 0
M  V30 9 C 6.5966 -0.8294 0.8719 0
M  V30 10 C 5.2369 -2.1472 -0.8745 0
M  V30 11 S 0.1842 1.7213 -0.7174 0
M  V30 12 C 6.1028 -2.2046 0.4012 0
M  V30 13 S -1.4582 0.5541 -1.403 0
M  V30 14 S -2.7963 2.2121 -1.307 0
M  V30 15 C -3.4208 1.7522 0.3149 0
M  V30 16 S -2.5931 2.2733 1.6322 0
M  V30 17 N -4.6426 0.993 0.4555 0
M  V30 18 C -5.1068 0.1361 -0.6461 0
M  V30 19 C -5.6294 1.3576 1.4864 0
M  V30 20 C -5.8045 -1.1142 -0.1008 0
M  V30 21 C -6.3166 0.1062 2.0387 0
M  V30 22 C -6.8977 -0.7393 0.9027 0
M  V30 23 H 4.694 0.0274 1.478 0
M  V30 24 H 5.9589 1.2213 0.9944 0
M  V30 25 H 6.2942 -0.5958 -1.9822 0
M  V30 26 H 4.5668 -0.8177 -2.4169 0
M  V30 27 H 7.4727 -0.5243 0.2583 0
M  V30 28 H 6.9331 -0.8963 1.9291 0
M  V30 29 H 4.1797 -2.3679 -0.6058 0
M  V30 30 H 5.5679 -2.9327 -1.5882 0
M  V30 31 H 5.5123 -2.6748 1.2181 0
M  V30 32 H 6.9861 -2.854 0.2196 0
M  V30 33 H -4.2565 -0.2 -1.2742 0
M  V30 34 H -5.8086 0.7102 -1.2894 0
M  V30 35 H -5.1609 1.8974 2.3344 0
M  V30 36 H -6.39 2.0336 1.0389 0
M  V30 37 H -6.2552 -1.6825 -0.943 0
M  V30 38 H -5.0543 -1.7686 0.3952 0
M  V30 39 H -7.1328 0.4071 2.7304 0
M  V30 40 H -5.5803 -0.4967 2.614 0
M  V30 41 H -7.7041 -0.1735 0.3861 0
M  V30 42 H -7.3434 -1.6658 1.3246 0
M  V30 END ATOM
M  V30 BEGIN BOND
M  V30 1 2 1 2
M  V30 2 1 2 3
M  V30 3 1 2 4
M  V30 4 1 3 5
M  V30 5 1 4 6
M  V30 6 1 4 7
M  V30 7 1 5 8
M  V30 8 1 6 9
M  V30 9 1 7 10
M  V30 10 1 8 11
M  V30 11 1 9 12
M  V30 12 1 11 13
M  V30 13 1 13 14
M  V30 14 1 14 15
M  V30 15 2 15 16
M  V30 16 1 15 17
M  V30 17 1 17 18
M  V30 18 1 17 19
M  V30 19 1 18 20
M  V30 20 1 19 21
M  V30 21 1 20 22
M  V30 22 1 10 12
M  V30 23 1 21 22
M  V30 24 1 6 23
M  V30 25 1 6 24
M  V30 26 1 7 25
M  V30 27 1 7 26
M  V30 28 1 9 27
M  V30 29 1 9 28
M  V30 30 1 10 29
M  V30 31 1 10 30
M  V30 32 1 12 31
M  V30 33 1 12 32
M  V30 34 1 18 33
M  V30 35 1 18 34
M  V30 36 1 19 35
M  V30 37 1 19 36
M  V30 38 1 20 37
M  V30 39 1 20 38
M  V30 40 1 21 39
M  V30 41 1 21 40
M  V30 42 1 22 41
M  V30 43 1 22 42
M  V30 END BOND
M  V30 END CTAB
M  END
>  <Structure No>
3060

>  <LogS>
-7.631732206

>  <MMFF94 Energy>
-53.013

$$$$
Compound 3061
Actelion Java MolfileCreator 2.0

  0  0  0  0  0  0              0 V3000
M  V30 BEGIN CTAB
M  V30 COUNTS 36 40 0 0 0
M  V30 BEGIN ATOM
M  V30 1 O 2.1068 -1.3771 2.6746 0
M  V30 2 C 2.2607 -0.8946 1.5174 0
M  V30 3 C 1.1435 -0.465 0.7752 0
M  V30 4 C 3.5502 -0.7841 0.9652 0
M  V30 5 C 1.3419 0.0712 -0.5173 0
M  V30 6 C -0.1613 -0.5586 1.292 0
M  V30 7 C 3.6977 -0.2403 -0.333 0
M  V30 8 C 4.6946 -1.2013 1.6727 0
M  V30 9 N 2.6013 0.1688 -1.0328 0
M  V30 10 C 0.2391 0.5037 -1.2698 0
M  V30 11 C -1.2641 -0.1261 0.5395 0
M  V30 12 C 4.9794 -0.1243 -0.8964 0
M  V30 13 C 5.9623 -1.0792 1.0981 0
M  V30 14 C -1.0657 0.4102 -0.753 0
M  V30 15 N -2.5236 -0.2236 1.0551 0
M  V30 16 C 6.1042 -0.5423 -0.1822 0
M  V30 17 C -2.183 0.8397 -1.4952 0
M  V30 18 C -3.62 0.1855 0.3552 0
M  V30 19 O -2.029 1.3222 -2.6524 0
M  V30 20 C -3.4724 0.7294 -0.9429 0
M  V30 21 C -4.9017 0.0695 0.9188 0
M  V30 22 C -4.617 1.1466 -1.6504 0
M  V30 23 C -6.0266 0.4877 0.2046 0
M  V30 24 C -5.8848 1.0245 -1.0757 0
M  V30 25 H -0.3272 -0.9679 2.2817 0
M  V30 26 H 4.6135 -1.6213 2.6679 0
M  V30 27 H 2.7306 0.5685 -1.9915 0
M  V30 28 H 0.4049 0.9131 -2.2595 0
M  V30 29 H 5.1075 0.2897 -1.8888 0
M  V30 30 H 6.8373 -1.4017 1.6476 0
M  V30 31 H -2.6529 -0.6232 2.0138 0
M  V30 32 H 7.0885 -0.45 -0.6226 0
M  V30 33 H -5.03 -0.3445 1.9112 0
M  V30 34 H -4.536 1.5666 -2.6454 0
M  V30 35 H -7.0111 0.3954 0.6451 0
M  V30 36 H -6.7599 1.3472 -1.6252 0
M  V30 END ATOM
M  V30 BEGIN BOND
M  V30 1 2 1 2
M  V30 2 1 2 3
M  V30 3 1 2 4
M  V30 4 2 3 5
M  V30 5 1 3 6
M  V30 6 2 4 7
M  V30 7 1 4 8
M  V30 8 1 5 9
M  V30 9 1 5 10
M  V30 10 2 6 11
M  V30 11 1 7 12
M  V30 12 2 8 13
M  V30 13 2 10 14
M  V30 14 1 11 15
M  V30 15 2 12 16
M  V30 16 1 14 17
M  V30 17 1 15 18
M  V30 18 2 17 19
M  V30 19 1 17 20
M  V30 20 1 18 21
M  V30 21 1 20 22
M  V30 22 2 21 23
M  V30 23 2 22 24
M  V30 24 1 7 9
M  V30 25 1 11 14
M  V30 26 1 13 16
M  V30 27 2 18 20
M  V30 28 1 23 24
M  V30 29 1 6 25
M  V30 30 1 8 26
M  V30 31 1 9 27
M  V30 32 1 10 28
M  V30 33 1 12 29
M  V30 34 1 13 30
M  V30 35 1 15 31
M  V30 36 1 16 32
M  V30 37 1 21 33
M  V30 38 1 22 34
M  V30 39 1 23 35
M  V30 40 1 24 36
M  V30 END BOND
M  V30 END CTAB
M  END
>  <Structure No>
3061

>  <LogS>
-7.481773695

>  <MMFF94 Energy>
99.205

$$$$
Compound 3062
Actelion Java MolfileCreator 2.0

  0  0  0  0  0  0              0 V3000
M  V30 BEGIN CTAB
M  V30 COUNTS 95 99 0 0 0
M  V30 BEGIN ATOM
M  V30 1 Cl -1.9813 0.0824 2.6423 0
M  V30 2 C -0.7982 0.0734 1.3401 0
M  V30 3 C -1.1893 -0.0618 -0.004 0
M  V30 4 C 0.5552 0.1657 1.6719 0
M  V30 5 N -2.586 -0.1187 -0.3473 0
M  V30 6 C -0.2027 -0.0773 -1.0041 0
M  V30 7 C 1.5454 0.1526 0.6756 0
M  V30 8 C -3.1307 -0.9891 -1.357 0
M  V30 9 C 1.1603 0.0201 -0.6762 0
M  V30 10 N 2.9371 0.2188 1.0399 0
M  V30 11 O -2.3843 -1.8211 -1.9399 0
M  V30 12 C -4.5744 -0.9397 -1.6923 0
M  V30 13 C 2.1901 -0.0166 -1.7729 0
M  V30 14 C 3.4345 1.0443 2.1054 0
M  V30 15 N -5.3237 -0.072 -1.0757 0
M  V30 16 C -5.1338 -1.8887 -2.6907 0
M  V30 17 O 2.7241 1.9741 2.5754 0
M  V30 18 C 4.7738 0.7971 2.6801 0
M  V30 19 N -6.7119 0.0127 -1.2459 0 CHG=-1
M  V30 20 O -4.7283 -3.0818 -2.7089 0
M  V30 21 C -6.171 -1.4688 -3.688 0
M  V30 22 N 5.8359 0.7898 1.9307 0
M  V30 23 C 4.928 0.5514 4.131 0
M  V30 24 C -7.5362 0.9608 -0.5542 0
M  V30 25 N 5.8052 1.0782 0.558 0 CHG=-1
M  V30 26 O 6.0846 0.4568 4.6244 0
M  V30 27 C 3.7413 0.4285 5.0379 0
M  V30 28 C -7.0303 2.1499 0.0233 0
M  V30 29 C -8.9075 0.682 -0.4614 0
M  V30 30 C 6.9787 0.9877 -0.2579 0
M  V30 31 Cl -5.3482 2.6536 -0.12 0
M  V30 32 C -7.9003 3.0111 0.7003 0
M  V30 33 C -9.7775 1.5389 0.2361 0
M  V30 34 C 6.9511 1.4747 -1.5735 0
M  V30 35 C 8.1595 0.4113 0.2411 0
M  V30 36 C -9.2579 2.7096 0.8109 0
M  V30 37 C -11.2243 1.2319 0.356 0
M  V30 38 Cl 5.4948 2.2065 -2.235 0
M  V30 39 C 8.0939 1.3898 -2.3739 0
M  V30 40 C 9.3119 0.3263 -0.5582 0
M  V30 41 O -12.0335 2.1601 0.6302 0
M  V30 42 N -11.7105 -0.1136 0.2121 0
M  V30 43 C 9.2666 0.8181 -1.8743 0
M  V30 44 C 10.5376 -0.3039 -0.0172 0
M  V30 45 C -13.1024 -0.4262 0.0201 0
M  V30 46 O 10.4244 -1.2278 0.8353 0
M  V30 47 N 11.8429 0.1174 -0.4545 0
M  V30 48 C -13.6924 -1.5438 0.6648 0
M  V30 49 C -13.8716 0.3473 -0.8661 0
M  V30 50 C 13.0643 -0.4493 0.0524 0
M  V30 51 C -15.0371 -1.8772 0.3721 0
M  V30 52 C -12.8796 -2.3884 1.6181 0
M  V30 53 C -15.2033 0.0261 -1.1177 0
M  V30 54 C 14.1275 -0.7755 -0.8252 0
M  V30 55 C 13.2327 -0.617 1.4384 0
M  V30 56 Cl -15.8286 -3.2887 1.0689 0
M  V30 57 C -15.7821 -1.0825 -0.5055 0
M  V30 58 C 15.3491 -1.2436 -0.2852 0
M  V30 59 C 13.9668 -0.5789 -2.3138 0
M  V30 60 C 14.429 -1.1133 1.9523 0
M  V30 61 Cl 16.7426 -1.6146 -1.2995 0
M  V30 62 C 15.4833 -1.4212 1.0961 0
M  V30 63 H 0.837 0.2236 2.7151 0
M  V30 64 H -3.2474 0.4406 0.235 0
M  V30 65 H -0.4966 -0.1399 -2.0436 0
M  V30 66 H 3.612 -0.3914 0.5274 0
M  V30 67 H 2.9021 0.8263 -1.6533 0
M  V30 68 H 1.7243 0.0723 -2.7776 0
M  V30 69 H 2.7449 -0.9768 -1.7284 0
M  V30 70 H -6.0194 -2.0148 -4.6424 0
M  V30 71 H -7.1835 -1.7053 -3.2998 0
M  V30 72 H -6.0947 -0.3812 -3.8965 0
M  V30 73 H 2.9883 -0.2538 4.589 0
M  V30 74 H 4.0458 0.0128 6.0223 0
M  V30 75 H 3.2879 1.4286 5.196 0
M  V30 76 H -9.2874 -0.2111 -0.9411 0
M  V30 77 H -7.5238 3.925 1.1422 0
M  V30 78 H 8.1849 0.0304 1.2543 0
M  V30 79 H -9.9022 3.3927 1.3513 0
M  V30 80 H 8.072 1.7634 -3.3898 0
M  V30 81 H -11.0376 -0.9025 0.3351 0
M  V30 82 H 10.1222 0.7373 -2.5316 0
M  V30 83 H 11.9209 0.8629 -1.182 0
M  V30 84 H -13.4322 1.1906 -1.3824 0
M  V30 85 H -13.5166 -2.9213 2.3516 0
M  V30 86 H -12.2879 -3.1327 1.0447 0
M  V30 87 H -12.1924 -1.7539 2.2166 0
M  V30 88 H -15.783 0.6282 -1.8054 0
M  V30 89 H 12.4446 -0.3403 2.1262 0
M  V30 90 H -16.8121 -1.3338 -0.7257 0
M  V30 91 H 14.6128 -1.2702 -2.8945 0
M  V30 92 H 14.2211 0.469 -2.58 0
M  V30 93 H 12.9232 -0.7907 -2.6306 0
M  V30 94 H 14.5445 -1.2407 3.0208 0
M  V30 95 H 16.4137 -1.7908 1.509 0
M  V30 END ATOM
M  V30 BEGIN BOND
M  V30 1 1 1 2
M  V30 2 2 2 3
M  V30 3 1 2 4
M  V30 4 1 3 5
M  V30 5 1 3 6
M  V30 6 2 4 7
M  V30 7 1 5 8
M  V30 8 2 6 9
M  V30 9 1 7 10
M  V30 10 2 8 11
M  V30 11 1 8 12
M  V30 12 1 9 13
M  V30 13 1 10 14
M  V30 14 2 12 15
M  V30 15 1 12 16
M  V30 16 2 14 17
M  V30 17 1 14 18
M  V30 18 1 15 19
M  V30 19 2 16 20
M  V30 20 1 16 21
M  V30 21 2 18 22
M  V30 22 1 18 23
M  V30 23 1 19 24
M  V30 24 1 22 25
M  V30 25 2 23 26
M  V30 26 1 23 27
M  V30 27 2 24 28
M  V30 28 1 24 29
M  V30 29 1 25 30
M  V30 30 1 28 31
M  V30 31 1 28 32
M  V30 32 2 29 33
M  V30 33 2 30 34
M  V30 34 1 30 35
M  V30 35 2 32 36
M  V30 36 1 33 37
M  V30 37 1 34 38
M  V30 38 1 34 39
M  V30 39 2 35 40
M  V30 40 2 37 41
M  V30 41 1 37 42
M  V30 42 2 39 43
M  V30 43 1 40 44
M  V30 44 1 42 45
M  V30 45 2 44 46
M  V30 46 1 44 47
M  V30 47 2 45 48
M  V30 48 1 45 49
M  V30 49 1 47 50
M  V30 50 1 48 51
M  V30 51 1 48 52
M  V30 52 2 49 53
M  V30 53 2 50 54
M  V30 54 1 50 55
M  V30 55 1 51 56
M  V30 56 2 51 57
M  V30 57 1 54 58
M  V30 58 1 54 59
M  V30 59 2 55 60
M  V30 60 1 58 61
M  V30 61 2 58 62
M  V30 62 1 7 9
M  V30 63 1 33 36
M  V30 64 1 40 43
M  V30 65 1 53 57
M  V30 66 1 60 62
M  V30 67 1 4 63
M  V30 68 1 5 64
M  V30 69 1 6 65
M  V30 70 1 10 66
M  V30 71 1 13 67
M  V30 72 1 13 68
M  V30 73 1 13 69
M  V30 74 1 21 70
M  V30 75 1 21 71
M  V30 76 1 21 72
M  V30 77 1 27 73
M  V30 78 1 27 74
M  V30 79 1 27 75
M  V30 80 1 29 76
M  V30 81 1 32 77
M  V30 82 1 35 78
M  V30 83 1 36 79
M  V30 84 1 39 80
M  V30 85 1 42 81
M  V30 86 1 43 82
M  V30 87 1 47 83
M  V30 88 1 49 84
M  V30 89 1 52 85
M  V30 90 1 52 86
M  V30 91 1 52 87
M  V30 92 1 53 88
M  V30 93 1 55 89
M  V30 94 1 57 90
M  V30 95 1 59 91
M  V30 96 1 59 92
M  V30 97 1 59 93
M  V30 98 1 60 94
M  V30 99 1 62 95
M  V30 END BOND
M  V30 END CTAB
M  END
>  <Structure No>
3062

>  <LogS>
-7.971771107

>  <MMFF94 Energy>
208.93

$$$$
Compound 3063
Actelion Java MolfileCreator 2.0

  0  0  0  0  0  0              0 V3000
M  V30 BEGIN CTAB
M  V30 COUNTS 66 70 0 0 0
M  V30 BEGIN ATOM
M  V30 1 Cl -2.8365 -6.1671 0.0809 0
M  V30 2 C -3.5973 -4.751 -0.6221 0
M  V30 3 C -3.3252 -3.4815 -0.1045 0
M  V30 4 C -4.4869 -4.8937 -1.689 0
M  V30 5 C -3.9281 -2.3383 -0.6606 0
M  V30 6 C -5.1066 -3.77 -2.2402 0
M  V30 7 N -3.6716 -1.0384 -0.0993 0
M  V30 8 C -4.8322 -2.486 -1.7385 0
M  V30 9 C -2.3557 -0.5702 0.2455 0
M  V30 10 C -5.519 -1.2911 -2.3434 0
M  V30 11 O -1.3507 -1.3079 0.0526 0
M  V30 12 C -2.1603 0.7868 0.807 0
M  V30 13 C -1.2048 1.0143 1.8172 0
M  V30 14 C -2.9264 1.8582 0.3243 0
M  V30 15 O -0.5142 -0.0752 2.3556 0
M  V30 16 C -0.9829 2.3233 2.3032 0
M  V30 17 C -2.7654 3.1462 0.8481 0
M  V30 18 N 0.0645 2.5825 3.2562 0
M  V30 19 C -1.7978 3.3846 1.854 0
M  V30 20 C -3.549 4.2071 0.3652 0
M  V30 21 N 1.3057 2.3473 3.0531 0
M  V30 22 C -1.6432 4.6921 2.3583 0
M  V30 23 C -3.3804 5.4955 0.8759 0
M  V30 24 C 1.8594 1.8869 1.8089 0
M  V30 25 C -2.4316 5.7368 1.8698 0
M  V30 26 C 1.677 2.6115 0.6152 0
M  V30 27 C 2.6329 0.7199 1.8065 0
M  V30 28 O 0.9854 3.8323 0.6588 0
M  V30 29 C 2.2094 2.1026 -0.5833 0
M  V30 30 C 3.183 0.222 0.6134 0
M  V30 31 C 0.6658 4.6232 -0.4811 0
M  V30 32 C 2.9479 0.9176 -0.5839 0
M  V30 33 C 3.9789 -1.029 0.6234 0
M  V30 34 O 3.8662 -1.8275 1.5937 0
M  V30 35 N 4.9153 -1.3136 -0.4301 0
M  V30 36 C 5.4724 -2.6172 -0.6751 0
M  V30 37 C 6.7694 -2.7243 -1.2027 0
M  V30 38 C 4.7264 -3.7899 -0.4479 0
M  V30 39 C 7.3266 -3.9805 -1.4638 0
M  V30 40 C 5.2866 -5.0445 -0.7127 0
M  V30 41 C 6.5869 -5.1399 -1.2156 0
M  V30 42 H -2.6646 -3.3902 0.7481 0
M  V30 43 H -4.7061 -5.8764 -2.0871 0
M  V30 44 H -5.8017 -3.9035 -3.0608 0
M  V30 45 H -4.484 -0.3943 0.0288 0
M  V30 46 H -6.2968 -0.9167 -1.6446 0
M  V30 47 H -6.0055 -1.5472 -3.3093 0
M  V30 48 H -4.7816 -0.4838 -2.5388 0
M  V30 49 H -3.6432 1.6945 -0.4721 0
M  V30 50 H 0.0909 0.0028 3.1632 0
M  V30 51 H -4.2904 4.0404 -0.4073 0
M  V30 52 H -0.9105 4.9151 3.1239 0
M  V30 53 H -3.9863 6.3095 0.4993 0
M  V30 54 H -2.303 6.7381 2.2606 0
M  V30 55 H 2.7908 0.1944 2.7408 0
M  V30 56 H 2.0664 2.621 -1.5213 0
M  V30 57 H 0.0975 5.5178 -0.1531 0
M  V30 58 H 1.5954 4.9584 -0.9869 0
M  V30 59 H 0.0334 4.0399 -1.1835 0
M  V30 60 H 3.3266 0.5457 -1.5268 0
M  V30 61 H 5.3127 -0.5076 -0.9636 0
M  V30 62 H 7.3523 -1.833 -1.4009 0
M  V30 63 H 3.7068 -3.7377 -0.089 0
M  V30 64 H 8.3313 -4.0543 -1.8602 0
M  V30 65 H 4.7096 -5.9433 -0.5343 0
M  V30 66 H 7.0183 -6.1119 -1.4194 0
M  V30 END ATOM
M  V30 BEGIN BOND
M  V30 1 1 1 2
M  V30 2 2 2 3
M  V30 3 1 2 4
M  V30 4 1 3 5
M  V30 5 2 4 6
M  V30 6 1 5 7
M  V30 7 2 5 8
M  V30 8 1 7 9
M  V30 9 1 8 10
M  V30 10 2 9 11
M  V30 11 1 9 12
M  V30 12 1 12 13
M  V30 13 2 12 14
M  V30 14 1 13 15
M  V30 15 2 13 16
M  V30 16 1 14 17
M  V30 17 1 16 18
M  V30 18 1 16 19
M  V30 19 2 17 20
M  V30 20 2 18 21
M  V30 21 2 19 22
M  V30 22 1 20 23
M  V30 23 1 21 24
M  V30 24 1 22 25
M  V30 25 2 24 26
M  V30 26 1 24 27
M  V30 27 1 26 28
M  V30 28 1 26 29
M  V30 29 2 27 30
M  V30 30 1 28 31
M  V30 31 2 29 32
M  V30 32 1 30 33
M  V30 33 2 33 34
M  V30 34 1 33 35
M  V30 35 1 35 36
M  V30 36 2 36 37
M  V30 37 1 36 38
M  V30 38 1 37 39
M  V30 39 2 38 40
M  V30 40 2 39 41
M  V30 41 1 6 8
M  V30 42 1 17 19
M  V30 43 2 23 25
M  V30 44 1 30 32
M  V30 45 1 40 41
M  V30 46 1 3 42
M  V30 47 1 4 43
M  V30 48 1 6 44
M  V30 49 1 7 45
M  V30 50 1 10 46
M  V30 51 1 10 47
M  V30 52 1 10 48
M  V30 53 1 14 49
M  V30 54 1 15 50
M  V30 55 1 20 51
M  V30 56 1 22 52
M  V30 57 1 23 53
M  V30 58 1 25 54
M  V30 59 1 27 55
M  V30 60 1 29 56
M  V30 61 1 31 57
M  V30 62 1 31 58
M  V30 63 1 31 59
M  V30 64 1 32 60
M  V30 65 1 35 61
M  V30 66 1 37 62
M  V30 67 1 38 63
M  V30 68 1 39 64
M  V30 69 1 40 65
M  V30 70 1 41 66
M  V30 END BOND
M  V30 END CTAB
M  END
>  <Structure No>
3063

>  <LogS>
-7.752070739

>  <MMFF94 Energy>
116.76

$$$$
Compound 3064
Actelion Java MolfileCreator 2.0

  0  0  0  0  0  0              0 V3000
M  V30 BEGIN CTAB
M  V30 COUNTS 55 56 0 0 0
M  V30 BEGIN ATOM
M  V30 1 O -3.8921 -1.6666 -0.0793 0
M  V30 2 C -3.228 -0.9062 0.6779 0
M  V30 3 O -2.627 0.2498 0.1647 0
M  V30 4 C -3.1261 -1.2138 2.1223 0
M  V30 5 C -2.6952 0.6277 -1.2079 0
M  V30 6 C -1.979 -0.8847 2.8948 0
M  V30 7 C -4.2395 -1.7908 2.761 0
M  V30 8 C -4.0743 1.1234 -1.5467 0
M  V30 9 C -0.7204 -0.4007 2.2837 0
M  V30 10 C -2.0089 -1.0884 4.287 0
M  V30 11 C -4.24 -2.0035 4.14 0
M  V30 12 C -4.5468 2.3192 -0.9822 0
M  V30 13 C -4.9104 0.3876 -2.4031 0
M  V30 14 O 0.0112 0.4103 2.9159 0
M  V30 15 O -0.3264 -0.8744 1.0262 0
M  V30 16 C -3.1317 -1.6427 4.9027 0
M  V30 17 C -5.8351 2.7764 -1.2769 0
M  V30 18 C -6.1983 0.8482 -2.6951 0
M  V30 19 C 0.8743 -0.4701 0.3724 0
M  V30 20 C -6.66 2.0418 -2.1332 0
M  V30 21 C 2.0811 -1.2065 0.9668 0
M  V30 22 C 3.4162 -0.7226 0.3801 0
M  V30 23 C 3.5923 -1.1213 -1.0956 0
M  V30 24 C 5.0221 -0.8813 -1.6056 0
M  V30 25 C 5.3652 0.6112 -1.7213 0
M  V30 26 C 6.7461 0.8084 -2.3574 0
M  V30 27 C 7.0977 2.2895 -2.4644 0
M  V30 28 H -1.9648 1.4446 -1.387 0
M  V30 29 H -2.3957 -0.2283 -1.8518 0
M  V30 30 H -5.1263 -2.0496 2.1949 0
M  V30 31 H -1.1476 -0.8462 4.8978 0
M  V30 32 H -5.1076 -2.4377 4.6199 0
M  V30 33 H -3.9181 2.8942 -0.3132 0
M  V30 34 H -4.5683 -0.5412 -2.8418 0
M  V30 35 H -3.1369 -1.8043 5.9731 0
M  V30 36 H -6.1946 3.699 -0.8399 0
M  V30 37 H -6.8391 0.2787 -3.3557 0
M  V30 38 H 1.0011 0.6317 0.4553 0
M  V30 39 H 0.7775 -0.7253 -0.7028 0
M  V30 40 H -7.6574 2.3963 -2.3595 0
M  V30 41 H 2.1053 -1.034 2.0641 0
M  V30 42 H 1.9674 -2.3005 0.8041 0
M  V30 43 H 4.2364 -1.1754 0.9789 0
M  V30 44 H 3.4849 0.3806 0.4906 0
M  V30 45 H 2.877 -0.5585 -1.7329 0
M  V30 46 H 3.3669 -2.2043 -1.2078 0
M  V30 47 H 5.7511 -1.3866 -0.9346 0
M  V30 48 H 5.1097 -1.3495 -2.6105 0
M  V30 49 H 4.598 1.1207 -2.3453 0
M  V30 50 H 5.3662 1.0737 -0.7111 0
M  V30 51 H 7.5186 0.2991 -1.7408 0
M  V30 52 H 6.7577 0.3624 -3.3757 0
M  V30 53 H 7.1202 2.7549 -1.4558 0
M  V30 54 H 6.3524 2.8184 -3.0962 0
M  V30 55 H 8.0999 2.401 -2.9291 0
M  V30 END ATOM
M  V30 BEGIN BOND
M  V30 1 2 1 2
M  V30 2 1 2 3
M  V30 3 1 2 4
M  V30 4 1 3 5
M  V30 5 2 4 6
M  V30 6 1 4 7
M  V30 7 1 5 8
M  V30 8 1 6 9
M  V30 9 1 6 10
M  V30 10 2 7 11
M  V30 11 2 8 12
M  V30 12 1 8 13
M  V30 13 2 9 14
M  V30 14 1 9 15
M  V30 15 2 10 16
M  V30 16 1 12 17
M  V30 17 2 13 18
M  V30 18 1 15 19
M  V30 19 2 17 20
M  V30 20 1 19 21
M  V30 21 1 21 22
M  V30 22 1 22 23
M  V30 23 1 23 24
M  V30 24 1 24 25
M  V30 25 1 25 26
M  V30 26 1 26 27
M  V30 27 1 11 16
M  V30 28 1 18 20
M  V30 29 1 5 28
M  V30 30 1 5 29
M  V30 31 1 7 30
M  V30 32 1 10 31
M  V30 33 1 11 32
M  V30 34 1 12 33
M  V30 35 1 13 34
M  V30 36 1 16 35
M  V30 37 1 17 36
M  V30 38 1 18 37
M  V30 39 1 19 38
M  V30 40 1 19 39
M  V30 41 1 20 40
M  V30 42 1 21 41
M  V30 43 1 21 42
M  V30 44 1 22 43
M  V30 45 1 22 44
M  V30 46 1 23 45
M  V30 47 1 23 46
M  V30 48 1 24 47
M  V30 49 1 24 48
M  V30 50 1 25 49
M  V30 51 1 25 50
M  V30 52 1 26 51
M  V30 53 1 26 52
M  V30 54 1 27 53
M  V30 55 1 27 54
M  V30 56 1 27 55
M  V30 END BOND
M  V30 END CTAB
M  END
>  <Structure No>
3064

>  <LogS>
-8.287652069

>  <MMFF94 Energy>
37.68

$$$$
Compound 3065
Actelion Java MolfileCreator 2.0

  0  0  0  0  0  0              0 V3000
M  V30 BEGIN CTAB
M  V30 COUNTS 45 46 0 0 0
M  V30 BEGIN ATOM
M  V30 1 O 5.8814 1.5282 1.4477 0
M  V30 2 N 4.7788 0.9551 1.3246 0 CHG=1
M  V30 3 O 3.77 1.2772 2.2029 0 CHG=-1
M  V30 4 C 4.6064 -0.0891 0.3447 0
M  V30 5 C 3.3214 -0.4703 -0.1084 0
M  V30 6 C 5.7388 -0.7437 -0.1784 0
M  V30 7 N 2.1546 0.2105 0.3698 0 CHG=-1
M  V30 8 C 3.1986 -1.5011 -1.0555 0
M  V30 9 C 5.6054 -1.7733 -1.1275 0
M  V30 10 N 0.8617 -0.12 -0.0647 0
M  V30 11 C 4.3301 -2.1441 -1.5558 0
M  V30 12 O 6.7104 -2.4493 -1.6667 0
M  V30 13 C -0.2064 0.4901 0.3586 0
M  V30 14 C 8.0659 -2.1792 -1.3247 0
M  V30 15 C -1.5094 0.081 -0.2066 0
M  V30 16 C -0.1205 1.5885 1.3544 0
M  V30 17 O -1.542 -0.4168 -1.3648 0
M  V30 18 N -2.7249 0.2424 0.546 0
M  V30 19 O 0.6714 1.4905 2.3296 0
M  V30 20 C -0.958 2.8248 1.2289 0
M  V30 21 C -4.0282 -0.0745 0.0298 0
M  V30 22 C -5.1014 0.8077 0.2616 0
M  V30 23 C -4.2564 -1.2829 -0.6519 0
M  V30 24 O -4.8535 2.0012 0.9591 0
M  V30 25 C -6.3846 0.4776 -0.2189 0
M  V30 26 C -5.5321 -1.5973 -1.1241 0
M  V30 27 C -5.8405 2.9841 1.2541 0
M  V30 28 C -6.5932 -0.7174 -0.9109 0
M  V30 29 H 6.7217 -0.4551 0.1674 0
M  V30 30 H 2.2255 -1.8079 -1.4162 0
M  V30 31 H 4.2151 -2.9339 -2.2878 0
M  V30 32 H 8.7277 -2.8557 -1.9034 0
M  V30 33 H 8.23 -2.3613 -0.2416 0
M  V30 34 H 8.322 -1.129 -1.5791 0
M  V30 35 H -2.676 0.6723 1.496 0
M  V30 36 H -1.4663 2.8664 0.2426 0
M  V30 37 H -0.3115 3.7221 1.3253 0
M  V30 38 H -1.7206 2.8454 2.0351 0
M  V30 39 H -3.4543 -1.9945 -0.7971 0
M  V30 40 H -7.2269 1.1374 -0.0623 0
M  V30 41 H -5.7003 -2.5296 -1.6479 0
M  V30 42 H -6.6391 2.5444 1.8881 0
M  V30 43 H -5.3657 3.8191 1.8089 0
M  V30 44 H -6.2745 3.3836 0.313 0
M  V30 45 H -7.5816 -0.9652 -1.2762 0
M  V30 END ATOM
M  V30 BEGIN BOND
M  V30 1 2 1 2
M  V30 2 1 2 3
M  V30 3 1 2 4
M  V30 4 2 4 5
M  V30 5 1 4 6
M  V30 6 1 5 7
M  V30 7 1 5 8
M  V30 8 2 6 9
M  V30 9 1 7 10
M  V30 10 2 8 11
M  V30 11 1 9 12
M  V30 12 2 10 13
M  V30 13 1 12 14
M  V30 14 1 13 15
M  V30 15 1 13 16
M  V30 16 2 15 17
M  V30 17 1 15 18
M  V30 18 2 16 19
M  V30 19 1 16 20
M  V30 20 1 18 21
M  V30 21 2 21 22
M  V30 22 1 21 23
M  V30 23 1 22 24
M  V30 24 1 22 25
M  V30 25 2 23 26
M  V30 26 1 24 27
M  V30 27 2 25 28
M  V30 28 1 9 11
M  V30 29 1 26 28
M  V30 30 1 6 29
M  V30 31 1 8 30
M  V30 32 1 11 31
M  V30 33 1 14 32
M  V30 34 1 14 33
M  V30 35 1 14 34
M  V30 36 1 18 35
M  V30 37 1 20 36
M  V30 38 1 20 37
M  V30 39 1 20 38
M  V30 40 1 23 39
M  V30 41 1 25 40
M  V30 42 1 26 41
M  V30 43 1 27 42
M  V30 44 1 27 43
M  V30 45 1 27 44
M  V30 46 1 28 45
M  V30 END BOND
M  V30 END CTAB
M  END
>  <Structure No>
3065

>  <LogS>
-8.308243053

>  <MMFF94 Energy>
143.26

$$$$
Compound 3066
Actelion Java MolfileCreator 2.0

  0  0  0  0  0  0              0 V3000
M  V30 BEGIN CTAB
M  V30 COUNTS 54 56 0 0 0
M  V30 BEGIN ATOM
M  V30 1 N 0.4752 0.2376 -0.2376 0
M  V30 2 C 1.4385 -0.3567 0.6617 0
M  V30 3 C 0.6073 1.6624 -0.4474 0
M  V30 4 C -0.761 -0.4985 -0.6541 0
M  V30 5 C 2.6594 -0.8877 0.1783 0
M  V30 6 C 1.1772 -0.3812 2.042 0
M  V30 7 C 1.0813 2.164 -1.6726 0
M  V30 8 C 0.3254 2.5659 0.5936 0
M  V30 9 C -1.9013 -0.1645 0.3796 0
M  V30 10 C -1.1266 -0.0868 -2.096 0
M  V30 11 C -0.4687 -2.0246 -0.6718 0
M  V30 12 C 3.6002 -1.4258 1.0964 0
M  V30 13 C 2.9633 -0.9091 -1.1967 0
M  V30 14 C 2.1049 -0.918 2.9344 0
M  V30 15 C 1.2367 3.5405 -1.8619 0
M  V30 16 C 0.4818 3.9415 0.4001 0
M  V30 17 C -3.4282 -0.4412 0.1133 0
M  V30 18 C 3.3119 -1.4356 2.4678 0
M  V30 19 C 4.8156 -1.9499 0.6282 0
M  V30 20 C 4.1764 -1.435 -1.6473 0
M  V30 21 C 0.9343 4.4289 -0.8276 0
M  V30 22 C -4.1652 -0.2383 1.4609 0
M  V30 23 C -4.0367 0.5668 -0.8913 0
M  V30 24 C -3.7128 -1.8812 -0.355 0
M  V30 25 C 5.1007 -1.9505 -0.7382 0
M  V30 26 H 0.2576 0.0285 2.4344 0
M  V30 27 H 1.3341 1.4969 -2.4833 0
M  V30 28 H -0.0209 2.2097 1.5536 0
M  V30 29 H -1.631 -0.6877 1.3218 0
M  V30 30 H -1.8271 0.9137 0.6279 0
M  V30 31 H -1.9117 -0.7379 -2.5255 0
M  V30 32 H -1.4642 0.9701 -2.1366 0
M  V30 33 H -0.2434 -0.2015 -2.7584 0
M  V30 34 H 0.4572 -2.2319 -1.247 0
M  V30 35 H -0.3345 -2.4217 0.3568 0
M  V30 36 H -1.2676 -2.6084 -1.1634 0
M  V30 37 H 2.2621 -0.5413 -1.9307 0
M  V30 38 H 1.8891 -0.9267 3.995 0
M  V30 39 H 1.5962 3.9184 -2.8104 0
M  V30 40 H 0.2545 4.6298 1.204 0
M  V30 41 H 4.0199 -1.8446 3.179 0
M  V30 42 H 5.543 -2.3605 1.3185 0
M  V30 43 H 4.3983 -1.4476 -2.7066 0
M  V30 44 H 1.0562 5.4942 -0.9757 0
M  V30 45 H -3.9995 0.7904 1.8491 0
M  V30 46 H -3.8022 -0.9608 2.2242 0
M  V30 47 H -5.2613 -0.3894 1.3487 0
M  V30 48 H -3.7608 0.343 -1.9376 0
M  V30 49 H -5.1474 0.5311 -0.8576 0
M  V30 50 H -3.7218 1.6051 -0.6515 0
M  V30 51 H -3.198 -2.6155 0.3008 0
M  V30 52 H -3.4045 -2.0374 -1.4064 0
M  V30 53 H -4.8031 -2.0954 -0.3174 0
M  V30 54 H 6.0386 -2.3573 -1.0939 0
M  V30 END ATOM
M  V30 BEGIN BOND
M  V30 1 1 1 2
M  V30 2 1 1 3
M  V30 3 1 1 4
M  V30 4 1 2 5
M  V30 5 2 2 6
M  V30 6 2 3 7
M  V30 7 1 3 8
M  V30 8 1 4 9
M  V30 9 1 4 10
M  V30 10 1 4 11
M  V30 11 1 5 12
M  V30 12 2 5 13
M  V30 13 1 6 14
M  V30 14 1 7 15
M  V30 15 2 8 16
M  V30 16 1 9 17
M  V30 17 1 12 18
M  V30 18 2 12 19
M  V30 19 1 13 20
M  V30 20 2 15 21
M  V30 21 1 17 22
M  V30 22 1 17 23
M  V30 23 1 17 24
M  V30 24 1 19 25
M  V30 25 2 14 18
M  V30 26 1 16 21
M  V30 27 2 20 25
M  V30 28 1 6 26
M  V30 29 1 7 27
M  V30 30 1 8 28
M  V30 31 1 9 29
M  V30 32 1 9 30
M  V30 33 1 10 31
M  V30 34 1 10 32
M  V30 35 1 10 33
M  V30 36 1 11 34
M  V30 37 1 11 35
M  V30 38 1 11 36
M  V30 39 1 13 37
M  V30 40 1 14 38
M  V30 41 1 15 39
M  V30 42 1 16 40
M  V30 43 1 18 41
M  V30 44 1 19 42
M  V30 45 1 20 43
M  V30 46 1 21 44
M  V30 47 1 22 45
M  V30 48 1 22 46
M  V30 49 1 22 47
M  V30 50 1 23 48
M  V30 51 1 23 49
M  V30 52 1 23 50
M  V30 53 1 24 51
M  V30 54 1 24 52
M  V30 55 1 24 53
M  V30 56 1 25 54
M  V30 END BOND
M  V30 END CTAB
M  END
>  <Structure No>
3066

>  <LogS>
-8.290038542

>  <MMFF94 Energy>
113.32

$$$$
Compound 3067
Actelion Java MolfileCreator 2.0

  0  0  0  0  0  0              0 V3000
M  V30 BEGIN CTAB
M  V30 COUNTS 49 52 0 0 0
M  V30 BEGIN ATOM
M  V30 1 Cl 3.4455 3.3633 2.9527 0
M  V30 2 C 4.8692 2.624 2.2332 0
M  V30 3 C 4.7431 1.6461 1.2318 0
M  V30 4 C 6.138 3.0158 2.6762 0
M  V30 5 N 3.4363 1.2464 0.7986 0
M  V30 6 C 5.9037 1.0735 0.6769 0
M  V30 7 C 7.2847 2.4411 2.1225 0
M  V30 8 N 3.2603 0.3574 -0.0941 0
M  V30 9 C 7.1688 1.4723 1.1216 0
M  V30 10 C 1.9632 -0.0725 -0.5482 0
M  V30 11 Cl 8.6098 0.7471 0.432 0
M  V30 12 C 0.766 0.4475 0.0068 0
M  V30 13 C 1.8934 -1.0552 -1.562 0
M  V30 14 O 0.8396 1.3779 1.0485 0
M  V30 15 C -0.4876 0.0025 -0.4747 0
M  V30 16 C 0.6323 -1.5071 -2.0202 0
M  V30 17 C 3.0616 -1.6051 -2.1315 0
M  V30 18 C -1.7584 0.5629 0.0299 0
M  V30 19 C -0.5399 -0.9748 -1.4764 0
M  V30 20 C 0.56 -2.485 -3.0255 0
M  V30 21 C 2.974 -2.5785 -3.1299 0
M  V30 22 O -1.9188 1.8138 0.047 0
M  V30 23 N -2.8244 -0.3127 0.4352 0
M  V30 24 C 1.7273 -3.0171 -3.5754 0
M  V30 25 C -4.0534 0.1427 1.0281 0
M  V30 26 C -5.264 -0.5045 0.7088 0
M  V30 27 C -4.0537 1.188 1.9704 0
M  V30 28 O -5.2408 -1.56 -0.2179 0
M  V30 29 C -6.4609 -0.0734 1.3161 0
M  V30 30 C -5.2467 1.6051 2.5644 0
M  V30 31 C -6.385 -2.3041 -0.6232 0
M  V30 32 C -6.4483 0.9785 2.235 0
M  V30 33 H 6.2363 3.7679 3.4495 0
M  V30 34 H 5.8298 0.3178 -0.0947 0
M  V30 35 H 8.2622 2.7495 2.4712 0
M  V30 36 H 0.0341 1.7091 1.5639 0
M  V30 37 H 4.0462 -1.2893 -1.8112 0
M  V30 38 H -1.5019 -1.3067 -1.8521 0
M  V30 39 H -0.3991 -2.838 -3.3855 0
M  V30 40 H 3.8766 -2.9942 -3.5595 0
M  V30 41 H -2.7243 -1.3347 0.2414 0
M  V30 42 H 1.6653 -3.7711 -4.3487 0
M  V30 43 H -3.129 1.6642 2.2683 0
M  V30 44 H -7.4063 -0.545 1.0857 0
M  V30 45 H -5.238 2.4102 3.2876 0
M  V30 46 H -7.1256 -1.6323 -1.1075 0
M  V30 47 H -6.0735 -3.0763 -1.3564 0
M  V30 48 H -6.8415 -2.8098 0.2537 0
M  V30 49 H -7.3715 1.3036 2.698 0
M  V30 END ATOM
M  V30 BEGIN BOND
M  V30 1 1 1 2
M  V30 2 2 2 3
M  V30 3 1 2 4
M  V30 4 1 3 5
M  V30 5 1 3 6
M  V30 6 2 4 7
M  V30 7 2 5 8
M  V30 8 2 6 9
M  V30 9 1 8 10
M  V30 10 1 9 11
M  V30 11 2 10 12
M  V30 12 1 10 13
M  V30 13 1 12 14
M  V30 14 1 12 15
M  V30 15 1 13 16
M  V30 16 2 13 17
M  V30 17 1 15 18
M  V30 18 2 15 19
M  V30 19 2 16 20
M  V30 20 1 17 21
M  V30 21 2 18 22
M  V30 22 1 18 23
M  V30 23 1 20 24
M  V30 24 1 23 25
M  V30 25 2 25 26
M  V30 26 1 25 27
M  V30 27 1 26 28
M  V30 28 1 26 29
M  V30 29 2 27 30
M  V30 30 1 28 31
M  V30 31 2 29 32
M  V30 32 1 7 9
M  V30 33 1 16 19
M  V30 34 2 21 24
M  V30 35 1 30 32
M  V30 36 1 4 33
M  V30 37 1 6 34
M  V30 38 1 7 35
M  V30 39 1 14 36
M  V30 40 1 17 37
M  V30 41 1 19 38
M  V30 42 1 20 39
M  V30 43 1 21 40
M  V30 44 1 23 41
M  V30 45 1 24 42
M  V30 46 1 27 43
M  V30 47 1 29 44
M  V30 48 1 30 45
M  V30 49 1 31 46
M  V30 50 1 31 47
M  V30 51 1 31 48
M  V30 52 1 32 49
M  V30 END BOND
M  V30 END CTAB
M  END
>  <Structure No>
3067

>  <LogS>
-8.464567785

>  <MMFF94 Energy>
93.46

$$$$
Compound 3068
Actelion Java MolfileCreator 2.0

  0  0  0  0  0  0              0 V3000
M  V30 BEGIN CTAB
M  V30 COUNTS 110 111 0 0 0
M  V30 BEGIN ATOM
M  V30 1 O -1.8265 3.0191 1.2703 0
M  V30 2 C -1.471 2.1435 0.4347 0
M  V30 3 N -2.3467 1.7912 -0.6465 0
M  V30 4 C -0.1529 1.4947 0.5729 0
M  V30 5 C -3.6254 2.4749 -0.8454 0
M  V30 6 O 0.2072 0.6314 -0.273 0
M  V30 7 N 0.7202 1.8405 1.6604 0
M  V30 8 C -4.3618 1.9179 -2.0664 0
M  V30 9 C 2.0903 1.3398 1.7588 0
M  V30 10 O -4.6895 0.5413 -1.8781 0
M  V30 11 C 2.991 2.0459 0.7489 0
M  V30 12 C -5.748 0.1032 -1.0736 0
M  V30 13 O 4.3271 1.5729 0.8863 0
M  V30 14 O -6.5359 0.9354 -0.5459 0
M  V30 15 C -5.9831 -1.3744 -0.9332 0
M  V30 16 C 5.39 2.0922 0.1416 0
M  V30 17 C -6.7158 -1.7714 0.3615 0
M  V30 18 O 5.2035 3.0419 -0.6689 0
M  V30 19 C 6.7663 1.5352 0.3347 0
M  V30 20 C -8.1739 -1.3621 0.3532 0
M  V30 21 C 7.3731 1.0836 -0.9979 0
M  V30 22 C -8.6379 -0.395 1.2401 0
M  V30 23 C -9.0578 -1.9523 -0.5469 0
M  V30 24 C 8.7306 0.4607 -0.7805 0
M  V30 25 C -9.9846 0.0268 1.2414 0
M  V30 26 C -10.4144 -1.5628 -0.6321 0
M  V30 27 C 8.8788 -0.9229 -0.7751 0
M  V30 28 C 9.8315 1.2758 -0.5301 0
M  V30 29 C -10.8683 -0.5485 0.2788 0
M  V30 30 C -10.4806 1.102 2.2565 0
M  V30 31 C -11.3589 -2.2464 -1.6698 0
M  V30 32 C 10.1356 -1.5324 -0.5674 0
M  V30 33 C 11.1174 0.7449 -0.2813 0
M  V30 34 O -12.184 -0.078 0.2599 0
M  V30 35 C -11.6525 0.5466 3.104 0
M  V30 36 C -10.9333 2.3764 1.507 0
M  V30 37 C -9.3834 1.5448 3.2604 0
M  V30 38 C -12.0215 -1.1818 -2.6009 0
M  V30 39 C -12.4283 -3.0767 -0.9155 0
M  V30 40 C -10.624 -3.2553 -2.5979 0
M  V30 41 C 11.263 -0.6837 -0.3409 0
M  V30 42 C 10.2819 -3.085 -0.5939 0
M  V30 43 C 12.299 1.6996 0.0825 0
M  V30 44 O 12.5076 -1.2997 -0.1916 0
M  V30 45 C 10.8311 -3.5968 0.7604 0
M  V30 46 C 11.2261 -3.5141 -1.7427 0
M  V30 47 C 8.9349 -3.82 -0.8311 0
M  V30 48 C 12.7835 1.382 1.5215 0
M  V30 49 C 11.8899 3.2006 0.1048 0
M  V30 50 C 13.4637 1.5642 -0.949 0
M  V30 51 H -2.055 1.0401 -1.313 0
M  V30 52 H -3.4396 3.5597 -1.005 0
M  V30 53 H -4.2595 2.3557 0.0611 0
M  V30 54 H 0.368 2.4563 2.4267 0
M  V30 55 H -3.7104 2.0151 -2.962 0
M  V30 56 H -5.2845 2.5056 -2.2567 0
M  V30 57 H 2.4798 1.5365 2.783 0
M  V30 58 H 2.1068 0.2409 1.5894 0
M  V30 59 H 2.9622 3.142 0.9362 0
M  V30 60 H 2.6344 1.8457 -0.2847 0
M  V30 61 H -6.5389 -1.7363 -1.8229 0
M  V30 62 H -4.9944 -1.8818 -0.9387 0
M  V30 63 H -6.1769 -1.3395 1.2343 0
M  V30 64 H -6.6668 -2.8766 0.4725 0
M  V30 65 H 6.7145 0.6684 1.0273 0
M  V30 66 H 7.4048 2.3156 0.8015 0
M  V30 67 H 6.6887 0.36 -1.4941 0
M  V30 68 H 7.4764 1.9581 -1.6765 0
M  V30 69 H -7.9151 0.0216 1.9228 0
M  V30 70 H -8.6452 -2.7176 -1.1831 0
M  V30 71 H 7.9875 -1.5045 -0.9452 0
M  V30 72 H 9.6445 2.337 -0.5262 0
M  V30 73 H -12.9065 -0.3353 -0.3904 0
M  V30 74 H -11.895 1.231 3.9464 0
M  V30 75 H -12.5883 0.4384 2.5215 0
M  V30 76 H -11.3829 -0.4437 3.5303 0
M  V30 77 H -10.0978 2.7839 0.8971 0
M  V30 78 H -11.2512 3.1615 2.2257 0
M  V30 79 H -11.7916 2.1953 0.8345 0
M  V30 80 H -9.7814 2.292 3.9802 0
M  V30 81 H -8.5308 2.0304 2.7366 0
M  V30 82 H -9.0159 0.6804 3.8547 0
M  V30 83 H -13.1209 -1.1239 -2.4493 0
M  V30 84 H -11.8838 -1.4098 -3.6807 0
M  V30 85 H -11.5871 -0.1697 -2.4427 0
M  V30 86 H -11.942 -3.8814 -0.3201 0
M  V30 87 H -13.0281 -2.4771 -0.2084 0
M  V30 88 H -13.1364 -3.5489 -1.6319 0
M  V30 89 H -10.1871 -4.1002 -2.0194 0
M  V30 90 H -11.3328 -3.7057 -3.3296 0
M  V30 91 H -9.8234 -2.7477 -3.1798 0
M  V30 92 H 13.4005 -0.8374 -0.1576 0
M  V30 93 H 11.8733 -3.2775 0.9502 0
M  V30 94 H 10.1977 -3.2293 1.5952 0
M  V30 95 H 10.8331 -4.7084 0.7918 0
M  V30 96 H 10.8906 -3.0679 -2.7041 0
M  V30 97 H 12.2772 -3.2138 -1.5693 0
M  V30 98 H 11.2325 -4.6204 -1.8573 0
M  V30 99 H 8.497 -3.5429 -1.8147 0
M  V30 100 H 9.0792 -4.9226 -0.8407 0
M  V30 101 H 8.2073 -3.593 -0.0222 0
M  V30 102 H 13.1246 0.3392 1.6508 0
M  V30 103 H 13.6312 2.0441 1.8042 0
M  V30 104 H 11.9574 1.548 2.2485 0
M  V30 105 H 12.7548 3.838 0.3954 0
M  V30 106 H 11.0842 3.3907 0.8497 0
M  V30 107 H 11.556 3.533 -0.904 0
M  V30 108 H 13.1668 0.9407 -1.8199 0
M  V30 109 H 14.376 1.1252 -0.4911 0
M  V30 110 H 13.7811 2.5456 -1.3663 0
M  V30 END ATOM
M  V30 BEGIN BOND
M  V30 1 2 1 2
M  V30 2 1 2 3
M  V30 3 1 2 4
M  V30 4 1 3 5
M  V30 5 2 4 6
M  V30 6 1 4 7
M  V30 7 1 5 8
M  V30 8 1 7 9
M  V30 9 1 8 10
M  V30 10 1 9 11
M  V30 11 1 10 12
M  V30 12 1 11 13
M  V30 13 2 12 14
M  V30 14 1 12 15
M  V30 15 1 13 16
M  V30 16 1 15 17
M  V30 17 2 16 18
M  V30 18 1 16 19
M  V30 19 1 17 20
M  V30 20 1 19 21
M  V30 21 2 20 22
M  V30 22 1 20 23
M  V30 23 1 21 24
M  V30 24 1 22 25
M  V30 25 2 23 26
M  V30 26 2 24 27
M  V30 27 1 24 28
M  V30 28 2 25 29
M  V30 29 1 25 30
M  V30 30 1 26 31
M  V30 31 1 27 32
M  V30 32 2 28 33
M  V30 33 1 29 34
M  V30 34 1 30 35
M  V30 35 1 30 36
M  V30 36 1 30 37
M  V30 37 1 31 38
M  V30 38 1 31 39
M  V30 39 1 31 40
M  V30 40 2 32 41
M  V30 41 1 32 42
M  V30 42 1 33 43
M  V30 43 1 41 44
M  V30 44 1 42 45
M  V30 45 1 42 46
M  V30 46 1 42 47
M  V30 47 1 43 48
M  V30 48 1 43 49
M  V30 49 1 43 50
M  V30 50 1 26 29
M  V30 51 1 33 41
M  V30 52 1 3 51
M  V30 53 1 5 52
M  V30 54 1 5 53
M  V30 55 1 7 54
M  V30 56 1 8 55
M  V30 57 1 8 56
M  V30 58 1 9 57
M  V30 59 1 9 58
M  V30 60 1 11 59
M  V30 61 1 11 60
M  V30 62 1 15 61
M  V30 63 1 15 62
M  V30 64 1 17 63
M  V30 65 1 17 64
M  V30 66 1 19 65
M  V30 67 1 19 66
M  V30 68 1 21 67
M  V30 69 1 21 68
M  V30 70 1 22 69
M  V30 71 1 23 70
M  V30 72 1 27 71
M  V30 73 1 28 72
M  V30 74 1 34 73
M  V30 75 1 35 74
M  V30 76 1 35 75
M  V30 77 1 35 76
M  V30 78 1 36 77
M  V30 79 1 36 78
M  V30 80 1 36 79
M  V30 81 1 37 80
M  V30 82 1 37 81
M  V30 83 1 37 82
M  V30 84 1 38 83
M  V30 85 1 38 84
M  V30 86 1 38 85
M  V30 87 1 39 86
M  V30 88 1 39 87
M  V30 89 1 39 88
M  V30 90 1 40 89
M  V30 91 1 40 90
M  V30 92 1 40 91
M  V30 93 1 44 92
M  V30 94 1 45 93
M  V30 95 1 45 94
M  V30 96 1 45 95
M  V30 97 1 46 96
M  V30 98 1 46 97
M  V30 99 1 46 98
M  V30 100 1 47 99
M  V30 101 1 47 100
M  V30 102 1 47 101
M  V30 103 1 48 102
M  V30 104 1 48 103
M  V30 105 1 48 104
M  V30 106 1 49 105
M  V30 107 1 49 106
M  V30 108 1 49 107
M  V30 109 1 50 108
M  V30 110 1 50 109
M  V30 111 1 50 110
M  V30 END BOND
M  V30 END CTAB
M  END
>  <Structure No>
3068

>  <LogS>
-8.667095408

>  <MMFF94 Energy>
105.76

$$$$
Compound 3069
Actelion Java MolfileCreator 2.0

  0  0  0  0  0  0              0 V3000
M  V30 BEGIN CTAB
M  V30 COUNTS 56 55 0 0 0
M  V30 BEGIN ATOM
M  V30 1 O 0 0 0 0
M  V30 2 C 0 0 0 0
M  V30 3 O 0 0 0 0
M  V30 4 C 0 0 0 0
M  V30 5 C 0 0 0 0
M  V30 6 C 0 0 0 0
M  V30 7 C 0 0 0 0
M  V30 8 C 0 0 0 0
M  V30 9 C 0 0 0 0
M  V30 10 C 0 0 0 0
M  V30 11 C 0 0 0 0
M  V30 12 C 0 0 0 0
M  V30 13 C 0 0 0 0
M  V30 14 C 0 0 0 0
M  V30 15 C 0 0 0 0
M  V30 16 C 0 0 0 0
M  V30 17 C 0 0 0 0
M  V30 18 C 0 0 0 0
M  V30 19 C 0 0 0 0
M  V30 20 C 0 0 0 0
M  V30 21 C 0 0 0 0
M  V30 22 C 0 0 0 0
M  V30 23 C 0 0 0 0
M  V30 24 C 0 0 0 0
M  V30 25 C 0 0 0 0
M  V30 26 C 0 0 0 0
M  V30 27 C 0 0 0 0
M  V30 28 C 0 0 0 0
M  V30 29 C 0 0 0 0
M  V30 30 C 0 0 0 0
M  V30 31 C 0 0 0 0
M  V30 32 C 0 0 0 0
M  V30 33 C 0 0 0 0
M  V30 34 C 0 0 0 0
M  V30 35 O 0 0 0 0
M  V30 36 O 0 0 0 0
M  V30 37 C 0 0 0 0
M  V30 38 C 0 0 0 0
M  V30 39 C 0 0 0 0
M  V30 40 C 0 0 0 0
M  V30 41 C 0 0 0 0
M  V30 42 C 0 0 0 0
M  V30 43 C 0 0 0 0
M  V30 44 C 0 0 0 0
M  V30 45 C 0 0 0 0
M  V30 46 C 0 0 0 0
M  V30 47 C 0 0 0 0
M  V30 48 C 0 0 0 0
M  V30 49 C 0 0 0 0
M  V30 50 C 0 0 0 0
M  V30 51 C 0 0 0 0
M  V30 52 C 0 0 0 0
M  V30 53 C 0 0 0 0
M  V30 54 C 0 0 0 0
M  V30 55 C 0 0 0 0
M  V30 56 C 0 0 0 0
M  V30 END ATOM
M  V30 BEGIN BOND
M  V30 1 2 1 2
M  V30 2 1 2 3
M  V30 3 1 2 4
M  V30 4 1 3 5
M  V30 5 1 4 6
M  V30 6 1 5 7
M  V30 7 1 5 8
M  V30 8 1 6 9
M  V30 9 1 7 10
M  V30 10 1 8 11
M  V30 11 1 9 12
M  V30 12 1 10 13
M  V30 13 1 11 14
M  V30 14 1 12 15
M  V30 15 1 13 16
M  V30 16 1 14 17
M  V30 17 1 15 18
M  V30 18 1 16 19
M  V30 19 1 17 20
M  V30 20 1 18 21
M  V30 21 1 19 22
M  V30 22 1 20 23
M  V30 23 1 21 24
M  V30 24 1 22 25
M  V30 25 1 24 26
M  V30 26 1 25 27
M  V30 27 1 26 28
M  V30 28 1 27 29
M  V30 29 1 28 30
M  V30 30 1 29 31
M  V30 31 1 30 32
M  V30 32 1 31 33
M  V30 33 1 32 34
M  V30 34 2 33 35
M  V30 35 1 33 36
M  V30 36 1 34 37
M  V30 37 1 36 38
M  V30 38 1 37 39
M  V30 39 1 38 40
M  V30 40 1 39 41
M  V30 41 1 40 42
M  V30 42 1 41 43
M  V30 43 1 42 44
M  V30 44 1 44 45
M  V30 45 1 45 46
M  V30 46 1 46 47
M  V30 47 1 47 48
M  V30 48 1 48 49
M  V30 49 1 49 50
M  V30 50 1 50 51
M  V30 51 1 51 52
M  V30 52 1 52 53
M  V30 53 1 53 54
M  V30 54 1 54 55
M  V30 55 1 54 56
M  V30 END BOND
M  V30 END CTAB
M  END
>  <Structure No>
3069

>  <LogS>
-8.755372465

>  <MMFF94 Energy>
-18.107

$$$$
Compound 3070
Actelion Java MolfileCreator 2.0

  0  0  0  0  0  0              0 V3000
M  V30 BEGIN CTAB
M  V30 COUNTS 81 82 0 0 0
M  V30 BEGIN ATOM
M  V30 1 O -4.0306 -0.2367 0.0789 0
M  V30 2 C -5.3009 0.3556 0.0222 0
M  V30 3 C -3.4432 -0.7518 1.2729 0 CFG=2
M  V30 4 C -5.9934 0.6711 1.2108 0
M  V30 5 C -5.862 0.6439 -1.2349 0
M  V30 6 C -3.8171 0.1784 2.4488 0
M  V30 7 C -1.898 -0.7592 1.112 0
M  V30 8 C -3.9708 -2.1819 1.5262 0
M  V30 9 C -7.3059 1.2035 1.136 0
M  V30 10 C -5.3317 0.4032 2.5513 0
M  V30 11 C -7.1622 1.1945 -1.3118 0
M  V30 12 C -5.0844 0.3169 -2.4914 0
M  V30 13 C -1.4047 -1.4262 -0.1894 0
M  V30 14 C -7.8583 1.5158 -0.1288 0
M  V30 15 C -8.1208 1.4653 2.3852 0
M  V30 16 C -7.7901 1.5014 -2.654 0
M  V30 17 C 0.1314 -1.515 -0.2721 0
M  V30 18 O -9.0989 2.1572 -0.2373 0
M  V30 19 C 0.8525 -0.1597 -0.4928 0 CFG=1
M  V30 20 C 2.3776 -0.2829 -0.2504 0
M  V30 21 C 0.5411 0.4449 -1.8732 0
M  V30 22 C 3.0918 -1.2802 -1.1847 0
M  V30 23 C 4.6264 -1.2231 -1.0599 0
M  V30 24 C 5.1976 -1.6528 0.3184 0 CFG=2
M  V30 25 C 6.7328 -1.3931 0.3776 0
M  V30 26 C 4.8941 -3.1338 0.6073 0
M  V30 27 C 7.1176 -0.1525 1.2091 0
M  V30 28 C 6.6351 1.1944 0.6354 0
M  V30 29 C 7.2756 1.5933 -0.7168 0
M  V30 30 C 6.5833 2.8472 -1.267 0
M  V30 31 C 8.7861 1.8455 -0.5877 0
M  V30 32 H -3.4376 -0.2362 3.4085 0
M  V30 33 H -3.3381 1.1722 2.3012 0
M  V30 34 H -1.5442 0.2927 1.1138 0
M  V30 35 H -1.4367 -1.2669 1.988 0
M  V30 36 H -3.7665 -2.8451 0.6625 0
M  V30 37 H -5.0715 -2.1854 1.6606 0
M  V30 38 H -3.5019 -2.6175 2.4342 0
M  V30 39 H -5.8086 -0.4809 3.0249 0
M  V30 40 H -5.4874 1.2736 3.2253 0
M  V30 41 H -3.9985 0.194 -2.2966 0
M  V30 42 H -5.4725 -0.6245 -2.933 0
M  V30 43 H -5.1764 1.1371 -3.2335 0
M  V30 44 H -1.8085 -0.8924 -1.0745 0
M  V30 45 H -1.7848 -2.4667 -0.2373 0
M  V30 46 H -9.1649 1.1152 2.2431 0
M  V30 47 H -7.7508 0.9147 3.2717 0
M  V30 48 H -8.1197 2.5523 2.6117 0
M  V30 49 H -7.603 0.677 -3.3733 0
M  V30 50 H -7.3654 2.4454 -3.0552 0
M  V30 51 H -8.8924 1.6078 -2.5865 0
M  V30 52 H 0.508 -1.9913 0.6598 0
M  V30 53 H 0.3849 -2.2012 -1.1091 0
M  V30 54 H -9.6189 2.52 0.5505 0
M  V30 55 H 0.4925 0.5645 0.2669 0
M  V30 56 H 2.8422 0.7216 -0.3608 0
M  V30 57 H 2.5295 -0.5959 0.804 0
M  V30 58 H 1.2061 1.3106 -2.078 0
M  V30 59 H 0.6701 -0.3063 -2.68 0
M  V30 60 H -0.5036 0.8181 -1.9036 0
M  V30 61 H 2.8434 -1.0358 -2.2381 0
M  V30 62 H 2.7329 -2.3122 -1.001 0
M  V30 63 H 5.0617 -1.8752 -1.8487 0
M  V30 64 H 4.948 -0.1883 -1.2962 0
M  V30 65 H 4.7068 -1.0634 1.1207 0
M  V30 66 H 7.1741 -1.3305 -0.6395 0
M  V30 67 H 7.2489 -2.2551 0.855 0
M  V30 68 H 5.2827 -3.781 -0.2084 0
M  V30 69 H 3.8029 -3.2999 0.7195 0
M  V30 70 H 5.3638 -3.4434 1.5658 0
M  V30 71 H 6.6934 -0.2687 2.2308 0
M  V30 72 H 8.2191 -0.131 1.3398 0
M  V30 73 H 6.8579 1.9861 1.3844 0
M  V30 74 H 5.5289 1.1685 0.5373 0
M  V30 75 H 7.123 0.7842 -1.4607 0
M  V30 76 H 5.4978 2.655 -1.4085 0
M  V30 77 H 7.0126 3.1236 -2.2534 0
M  V30 78 H 6.7083 3.7027 -0.5685 0
M  V30 79 H 9.3234 0.899 -0.3725 0
M  V30 80 H 9.1936 2.2429 -1.5412 0
M  V30 81 H 8.9962 2.5786 0.2207 0
M  V30 END ATOM
M  V30 BEGIN BOND
M  V30 1 1 1 2
M  V30 2 1 1 3
M  V30 3 2 2 4
M  V30 4 1 2 5
M  V30 5 1 3 6
M  V30 6 1 3 7
M  V30 7 1 3 8
M  V30 8 1 4 9
M  V30 9 1 4 10
M  V30 10 2 5 11
M  V30 11 1 5 12
M  V30 12 1 7 13
M  V30 13 2 9 14
M  V30 14 1 9 15
M  V30 15 1 11 16
M  V30 16 1 13 17
M  V30 17 1 14 18
M  V30 18 1 17 19
M  V30 19 1 19 20
M  V30 20 1 19 21
M  V30 21 1 20 22
M  V30 22 1 22 23
M  V30 23 1 23 24
M  V30 24 1 24 25
M  V30 25 1 24 26
M  V30 26 1 25 27
M  V30 27 1 27 28
M  V30 28 1 28 29
M  V30 29 1 29 30
M  V30 30 1 29 31
M  V30 31 1 6 10
M  V30 32 1 11 14
M  V30 33 1 6 32
M  V30 34 1 6 33
M  V30 35 1 7 34
M  V30 36 1 7 35
M  V30 37 1 8 36
M  V30 38 1 8 37
M  V30 39 1 8 38
M  V30 40 1 10 39
M  V30 41 1 10 40
M  V30 42 1 12 41
M  V30 43 1 12 42
M  V30 44 1 12 43
M  V30 45 1 13 44
M  V30 46 1 13 45
M  V30 47 1 15 46
M  V30 48 1 15 47
M  V30 49 1 15 48
M  V30 50 1 16 49
M  V30 51 1 16 50
M  V30 52 1 16 51
M  V30 53 1 17 52
M  V30 54 1 17 53
M  V30 55 1 18 54
M  V30 56 1 19 55
M  V30 57 1 20 56
M  V30 58 1 20 57
M  V30 59 1 21 58
M  V30 60 1 21 59
M  V30 61 1 21 60
M  V30 62 1 22 61
M  V30 63 1 22 62
M  V30 64 1 23 63
M  V30 65 1 23 64
M  V30 66 1 24 65
M  V30 67 1 25 66
M  V30 68 1 25 67
M  V30 69 1 26 68
M  V30 70 1 26 69
M  V30 71 1 26 70
M  V30 72 1 27 71
M  V30 73 1 27 72
M  V30 74 1 28 73
M  V30 75 1 28 74
M  V30 76 1 29 75
M  V30 77 1 30 76
M  V30 78 1 30 77
M  V30 79 1 30 78
M  V30 80 1 31 79
M  V30 81 1 31 80
M  V30 82 1 31 81
M  V30 END BOND
M  V30 BEGIN COLLECTION
M  V30 MDLV30/STEABS ATOMS=(3 3 19 24)
M  V30 END COLLECTION
M  V30 END CTAB
M  END
>  <Structure No>
3070

>  <LogS>
-8.520248661

>  <MMFF94 Energy>
50.208

$$$$
Compound 3071
Actelion Java MolfileCreator 2.0

  0  0  0  0  0  0              0 V3000
M  V30 BEGIN CTAB
M  V30 COUNTS 78 79 0 0 0
M  V30 BEGIN ATOM
M  V30 1 O -3.7927 0.3156 -0.3945 0
M  V30 2 C -5.0863 0.7121 -0.0272 0
M  V30 3 C -3.2916 -1.0139 -0.2281 0 CFG=2
M  V30 4 C -5.8872 -0.1425 0.7519 0
M  V30 5 C -5.5701 1.9772 -0.4222 0
M  V30 6 C -3.8603 -1.615 1.0828 0
M  V30 7 C -1.7455 -0.9515 -0.1123 0
M  V30 8 C -3.714 -1.8695 -1.4427 0
M  V30 9 C -7.1809 0.2507 1.1037 0
M  V30 10 C -5.39 -1.5059 1.1602 0
M  V30 11 C -6.8617 2.3933 -0.0064 0
M  V30 12 C -4.6901 2.8917 -1.2429 0
M  V30 13 C -1.0485 -0.3087 -1.3306 0
M  V30 14 C -7.6716 1.5063 0.7323 0
M  V30 15 C -7.4 3.7501 -0.3949 0
M  V30 16 C 0.4492 -0.0132 -1.0763 0
M  V30 17 O -8.9673 1.8727 1.0987 0
M  V30 18 C 1.4537 -1.041 -1.6663 0 CFG=1
M  V30 19 C 1.2702 -2.4832 -1.139 0
M  V30 20 C 1.4411 -1.0271 -3.2033 0
M  V30 21 C 1.542 -2.6526 0.3696 0
M  V30 22 C 3.0305 -2.4779 0.7524 0
M  V30 23 C 3.3407 -1.1062 1.4106 0 CFG=2
M  V30 24 C 4.8447 -0.7539 1.3193 0
M  V30 25 C 2.9005 -1.1059 2.8847 0
M  V30 26 C 5.2741 -0.3297 -0.0995 0
M  V30 27 C 6.7079 0.2425 -0.1284 0
M  V30 28 C 6.7558 1.7826 -0.2615 0
M  V30 29 C 6.1533 2.488 0.9619 0
M  V30 30 C 8.203 2.2471 -0.4725 0
M  V30 31 H -3.4373 -1.0667 1.9542 0
M  V30 32 H -3.5614 -2.682 1.1831 0
M  V30 33 H -1.49 -0.3558 0.7922 0
M  V30 34 H -1.3538 -1.9776 0.0448 0
M  V30 35 H -3.2748 -2.8879 -1.3776 0
M  V30 36 H -4.8171 -1.96 -1.5064 0
M  V30 37 H -3.3897 -1.3955 -2.3913 0
M  V30 38 H -7.8103 -0.4208 1.6759 0
M  V30 39 H -5.8615 -2.2749 0.5125 0
M  V30 40 H -5.7044 -1.7208 2.205 0
M  V30 41 H -4.2649 3.6815 -0.5888 0
M  V30 42 H -5.2759 3.3652 -2.0586 0
M  V30 43 H -3.853 2.3473 -1.7276 0
M  V30 44 H -1.5526 0.6559 -1.557 0
M  V30 45 H -1.1726 -0.9553 -2.2202 0
M  V30 46 H -8.2693 4.048 0.2262 0
M  V30 47 H -7.7155 3.7329 -1.4586 0
M  V30 48 H -6.625 4.5317 -0.253 0
M  V30 49 H 0.6381 0.1191 0.0081 0
M  V30 50 H 0.6848 0.9779 -1.5227 0
M  V30 51 H -9.5677 1.2511 1.6282 0
M  V30 52 H 2.4695 -0.7007 -1.3781 0
M  V30 53 H 1.9523 -3.1651 -1.6926 0
M  V30 54 H 0.244 -2.837 -1.3671 0
M  V30 55 H 0.519 -1.4928 -3.608 0
M  V30 56 H 1.5202 0.0129 -3.5853 0
M  V30 57 H 2.3112 -1.5978 -3.5919 0
M  V30 58 H 1.2402 -3.688 0.6396 0
M  V30 59 H 0.8854 -1.9839 0.9605 0
M  V30 60 H 3.3193 -3.2877 1.4589 0
M  V30 61 H 3.6594 -2.6421 -0.1453 0
M  V30 62 H 2.769 -0.3034 0.9019 0
M  V30 63 H 5.0625 0.0843 2.0156 0
M  V30 64 H 5.4561 -1.6229 1.6503 0
M  V30 65 H 3.0647 -0.1029 3.3336 0
M  V30 66 H 1.8195 -1.3412 2.9767 0
M  V30 67 H 3.4788 -1.8549 3.467 0
M  V30 68 H 5.2453 -1.2158 -0.767 0
M  V30 69 H 4.5527 0.408 -0.5148 0
M  V30 70 H 7.2854 -0.0818 0.7658 0
M  V30 71 H 7.2274 -0.1941 -1.0101 0
M  V30 72 H 6.1734 2.0826 -1.1605 0
M  V30 73 H 5.0669 2.2753 1.0384 0
M  V30 74 H 6.2673 3.5891 0.8665 0
M  V30 75 H 6.6578 2.1561 1.8944 0
M  V30 76 H 8.8332 1.9768 0.4024 0
M  V30 77 H 8.2371 3.3488 -0.6123 0
M  V30 78 H 8.6317 1.7739 -1.3822 0
M  V30 END ATOM
M  V30 BEGIN BOND
M  V30 1 1 1 2
M  V30 2 1 1 3
M  V30 3 2 2 4
M  V30 4 1 2 5
M  V30 5 1 3 6
M  V30 6 1 3 7
M  V30 7 1 3 8
M  V30 8 1 4 9
M  V30 9 1 4 10
M  V30 10 2 5 11
M  V30 11 1 5 12
M  V30 12 1 7 13
M  V30 13 2 9 14
M  V30 14 1 11 15
M  V30 15 1 13 16
M  V30 16 1 14 17
M  V30 17 1 16 18
M  V30 18 1 18 19
M  V30 19 1 18 20
M  V30 20 1 19 21
M  V30 21 1 21 22
M  V30 22 1 22 23
M  V30 23 1 23 24
M  V30 24 1 23 25
M  V30 25 1 24 26
M  V30 26 1 26 27
M  V30 27 1 27 28
M  V30 28 1 28 29
M  V30 29 1 28 30
M  V30 30 1 6 10
M  V30 31 1 11 14
M  V30 32 1 6 31
M  V30 33 1 6 32
M  V30 34 1 7 33
M  V30 35 1 7 34
M  V30 36 1 8 35
M  V30 37 1 8 36
M  V30 38 1 8 37
M  V30 39 1 9 38
M  V30 40 1 10 39
M  V30 41 1 10 40
M  V30 42 1 12 41
M  V30 43 1 12 42
M  V30 44 1 12 43
M  V30 45 1 13 44
M  V30 46 1 13 45
M  V30 47 1 15 46
M  V30 48 1 15 47
M  V30 49 1 15 48
M  V30 50 1 16 49
M  V30 51 1 16 50
M  V30 52 1 17 51
M  V30 53 1 18 52
M  V30 54 1 19 53
M  V30 55 1 19 54
M  V30 56 1 20 55
M  V30 57 1 20 56
M  V30 58 1 20 57
M  V30 59 1 21 58
M  V30 60 1 21 59
M  V30 61 1 22 60
M  V30 62 1 22 61
M  V30 63 1 23 62
M  V30 64 1 24 63
M  V30 65 1 24 64
M  V30 66 1 25 65
M  V30 67 1 25 66
M  V30 68 1 25 67
M  V30 69 1 26 68
M  V30 70 1 26 69
M  V30 71 1 27 70
M  V30 72 1 27 71
M  V30 73 1 28 72
M  V30 74 1 29 73
M  V30 75 1 29 74
M  V30 76 1 29 75
M  V30 77 1 30 76
M  V30 78 1 30 77
M  V30 79 1 30 78
M  V30 END BOND
M  V30 BEGIN COLLECTION
M  V30 MDLV30/STEABS ATOMS=(3 3 18 23)
M  V30 END COLLECTION
M  V30 END CTAB
M  END
>  <Structure No>
3071

>  <LogS>
-8.505869726

>  <MMFF94 Energy>
42.653

$$$$
Compound 3072
Actelion Java MolfileCreator 2.0

  0  0  0  0  0  0              0 V3000
M  V30 BEGIN CTAB
M  V30 COUNTS 125 124 0 0 0
M  V30 BEGIN ATOM
M  V30 1 O 4.1623 1.7261 0.7058 0
M  V30 2 C 4.3405 1.5247 -0.5295 0
M  V30 3 O 3.4401 0.7452 -1.2654 0
M  V30 4 C 5.5299 2.1205 -1.216 0
M  V30 5 C 2.4537 -0.0989 -0.6713 0
M  V30 6 C 5.1316 2.7913 -2.539 0
M  V30 7 C 1.2469 -0.2937 -1.6298 0 CFG=2
M  V30 8 C 6.357 3.296 -3.3325 0
M  V30 9 C 0.2066 -1.2175 -0.9206 0
M  V30 10 C 1.7642 -0.9899 -2.9243 0
M  V30 11 C 0.6248 1.0904 -2.0075 0
M  V30 12 C 6.6965 2.434 -4.5634 0
M  V30 13 O -0.9571 -1.4291 -1.7254 0
M  V30 14 O 0.7304 -1.2104 -3.848 0
M  V30 15 C 0.2833 2.0023 -0.8218 0
M  V30 16 C 7.1812 1.001 -4.258 0
M  V30 17 C -2.1725 -0.7618 -1.5359 0
M  V30 18 C 8.688 0.8935 -3.919 0
M  V30 19 O -2.3765 -0.0669 -0.5035 0
M  V30 20 C -3.226 -0.8469 -2.5993 0
M  V30 21 C 9.0109 0.933 -2.416 0
M  V30 22 C -4.5303 -1.4717 -2.0813 0
M  V30 23 C 8.5124 -0.2938 -1.688 0
M  V30 24 C -4.3743 -2.9665 -1.7559 0
M  V30 25 C 8.6818 -0.4881 -0.3659 0
M  V30 26 C -5.7225 -3.6756 -1.5256 0
M  V30 27 C 9.4296 0.4537 0.546 0
M  V30 28 C -6.4701 -3.1933 -0.2638 0
M  V30 29 C 10.8841 -0.0036 0.7087 0
M  V30 30 C -7.568 -2.163 -0.5882 0
M  V30 31 C 11.6511 0.9409 1.6496 0
M  V30 32 C -8.3511 -1.7687 0.6739 0
M  V30 33 C 13.1485 0.587 1.7621 0
M  V30 34 C -9.2852 -0.6175 0.4161 0
M  V30 35 C 13.4505 -0.7797 2.4076 0
M  V30 36 C -10.3457 -0.735 -0.3976 0
M  V30 37 C 12.9874 -0.8728 3.8721 0
M  V30 38 C -11.2541 0.4348 -0.6707 0
M  V30 39 C 13.4585 -2.1823 4.5194 0
M  V30 40 C -12.1528 0.7737 0.5298 0
M  V30 41 C 12.988 -2.2805 5.9695 0
M  V30 42 C -13.1788 -0.3337 0.8197 0
M  V30 43 C -14.2167 0.0801 1.8783 0
M  V30 44 C -13.6192 0.1634 3.2925 0
M  V30 45 C -14.6933 0.3713 4.3762 0
M  V30 46 C -15.3707 1.7582 4.3219 0
M  V30 47 C -16.7695 1.7053 3.7028 0
M  V30 48 H 6.0147 2.8702 -0.5531 0
M  V30 49 H 6.2539 1.3092 -1.3927 0
M  V30 50 H 2.921 -1.0787 -0.4337 0
M  V30 51 H 2.1027 0.3291 0.2936 0
M  V30 52 H 4.5303 2.0947 -3.1591 0
M  V30 53 H 4.4781 3.6613 -2.296 0
M  V30 54 H 6.1154 4.3135 -3.7082 0
M  V30 55 H 7.242 3.4323 -2.6864 0
M  V30 56 H 0.6717 -2.2107 -0.7353 0
M  V30 57 H -0.0696 -0.8252 0.0816 0
M  V30 58 H 2.2135 -1.9743 -2.6623 0
M  V30 59 H 2.5786 -0.3915 -3.3986 0
M  V30 60 H 1.3239 1.6463 -2.662 0
M  V30 61 H -0.2982 0.9419 -2.5998 0
M  V30 62 H 7.4585 2.962 -5.1768 0
M  V30 63 H 5.7868 2.3699 -5.1975 0
M  V30 64 H 0.6872 -0.4098 -4.4323 0
M  V30 65 H -0.3175 2.8631 -1.1742 0
M  V30 66 H -0.3073 1.4767 -0.0508 0
M  V30 67 H 1.2008 2.4045 -0.3554 0
M  V30 68 H 6.5478 0.5171 -3.4923 0
M  V30 69 H 7.0202 0.4114 -5.1861 0
M  V30 70 H 9.0772 -0.0658 -4.3286 0
M  V30 71 H 9.2552 1.6989 -4.43 0
M  V30 72 H -2.8447 -1.434 -3.4647 0
M  V30 73 H -3.4437 0.1837 -2.9621 0
M  V30 74 H 8.5766 1.8407 -1.9603 0
M  V30 75 H 10.1167 0.9912 -2.3002 0
M  V30 76 H -4.8631 -0.9195 -1.1751 0
M  V30 77 H -5.3081 -1.3439 -2.869 0
M  V30 78 H 7.9815 -1.0604 -2.2452 0
M  V30 79 H -3.8703 -3.4722 -2.6101 0
M  V30 80 H -3.725 -3.094 -0.8615 0
M  V30 81 H 8.2995 -1.4068 0.0702 0
M  V30 82 H -6.3586 -3.5839 -2.4365 0
M  V30 83 H -5.5 -4.7582 -1.4031 0
M  V30 84 H 8.9286 0.442 1.5409 0
M  V30 85 H 9.389 1.4985 0.172 0
M  V30 86 H -6.9554 -4.0789 0.2132 0
M  V30 87 H -5.7588 -2.7672 0.4814 0
M  V30 88 H 11.3809 -0.0123 -0.2876 0
M  V30 89 H 10.8898 -1.0363 1.1249 0
M  V30 90 H -7.1183 -1.2523 -1.0353 0
M  V30 91 H -8.2724 -2.6055 -1.3259 0
M  V30 92 H 11.1761 0.9546 2.6537 0
M  V30 93 H 11.5801 1.9751 1.2439 0
M  V30 94 H -8.93 -2.6399 1.0518 0
M  V30 95 H -7.6332 -1.4623 1.4642 0
M  V30 96 H 13.6474 1.3784 2.3629 0
M  V30 97 H 13.606 0.6086 0.7472 0
M  V30 98 H -9.1013 0.3247 0.934 0
M  V30 99 H 14.5508 -0.9322 2.374 0
M  V30 100 H 12.9967 -1.5974 1.8111 0
M  V30 101 H -10.5244 -1.669 -0.9301 0
M  V30 102 H 11.8776 -0.8356 3.9188 0
M  V30 103 H 13.3966 -0.0112 4.443 0
M  V30 104 H -10.64 1.3269 -0.9304 0
M  V30 105 H -11.8882 0.2079 -1.5544 0
M  V30 106 H 13.055 -3.0467 3.9481 0
M  V30 107 H 14.5712 -2.2347 4.4941 0
M  V30 108 H -11.5206 0.9563 1.4232 0
M  V30 109 H -12.6956 1.7171 0.3021 0
M  V30 110 H 11.8773 -2.2472 6.0164 0
M  V30 111 H 13.4043 -1.4416 6.5687 0
M  V30 112 H 13.3337 -3.2392 6.4133 0
M  V30 113 H -13.7228 -0.5684 -0.118 0
M  V30 114 H -12.656 -1.2585 1.1423 0
M  V30 115 H -15.0313 -0.6773 1.8759 0
M  V30 116 H -14.6584 1.0582 1.596 0
M  V30 117 H -13.0808 -0.785 3.5165 0
M  V30 118 H -12.8815 0.9931 3.3512 0
M  V30 119 H -14.1924 0.2652 5.3624 0
M  V30 120 H -15.4459 -0.446 4.3236 0
M  V30 121 H -14.7423 2.4872 3.7583 0
M  V30 122 H -15.4705 2.1496 5.3595 0
M  V30 123 H -16.7292 1.2899 2.6722 0
M  V30 124 H -17.4394 1.0771 4.3303 0
M  V30 125 H -17.1851 2.7352 3.6552 0
M  V30 END ATOM
M  V30 BEGIN BOND
M  V30 1 2 1 2
M  V30 2 1 2 3
M  V30 3 1 2 4
M  V30 4 1 3 5
M  V30 5 1 4 6
M  V30 6 1 5 7
M  V30 7 1 6 8
M  V30 8 1 7 9
M  V30 9 1 7 10
M  V30 10 1 7 11
M  V30 11 1 8 12
M  V30 12 1 9 13
M  V30 13 1 10 14
M  V30 14 1 11 15
M  V30 15 1 12 16
M  V30 16 1 13 17
M  V30 17 1 16 18
M  V30 18 2 17 19
M  V30 19 1 17 20
M  V30 20 1 18 21
M  V30 21 1 20 22
M  V30 22 1 21 23
M  V30 23 1 22 24
M  V30 24 2 23 25
M  V30 25 1 24 26
M  V30 26 1 25 27
M  V30 27 1 26 28
M  V30 28 1 27 29
M  V30 29 1 28 30
M  V30 30 1 29 31
M  V30 31 1 30 32
M  V30 32 1 31 33
M  V30 33 1 32 34
M  V30 34 1 33 35
M  V30 35 2 34 36
M  V30 36 1 35 37
M  V30 37 1 36 38
M  V30 38 1 37 39
M  V30 39 1 38 40
M  V30 40 1 39 41
M  V30 41 1 40 42
M  V30 42 1 42 43
M  V30 43 1 43 44
M  V30 44 1 44 45
M  V30 45 1 45 46
M  V30 46 1 46 47
M  V30 47 1 4 48
M  V30 48 1 4 49
M  V30 49 1 5 50
M  V30 50 1 5 51
M  V30 51 1 6 52
M  V30 52 1 6 53
M  V30 53 1 8 54
M  V30 54 1 8 55
M  V30 55 1 9 56
M  V30 56 1 9 57
M  V30 57 1 10 58
M  V30 58 1 10 59
M  V30 59 1 11 60
M  V30 60 1 11 61
M  V30 61 1 12 62
M  V30 62 1 12 63
M  V30 63 1 14 64
M  V30 64 1 15 65
M  V30 65 1 15 66
M  V30 66 1 15 67
M  V30 67 1 16 68
M  V30 68 1 16 69
M  V30 69 1 18 70
M  V30 70 1 18 71
M  V30 71 1 20 72
M  V30 72 1 20 73
M  V30 73 1 21 74
M  V30 74 1 21 75
M  V30 75 1 22 76
M  V30 76 1 22 77
M  V30 77 1 23 78
M  V30 78 1 24 79
M  V30 79 1 24 80
M  V30 80 1 25 81
M  V30 81 1 26 82
M  V30 82 1 26 83
M  V30 83 1 27 84
M  V30 84 1 27 85
M  V30 85 1 28 86
M  V30 86 1 28 87
M  V30 87 1 29 88
M  V30 88 1 29 89
M  V30 89 1 30 90
M  V30 90 1 30 91
M  V30 91 1 31 92
M  V30 92 1 31 93
M  V30 93 1 32 94
M  V30 94 1 32 95
M  V30 95 1 33 96
M  V30 96 1 33 97
M  V30 97 1 34 98
M  V30 98 1 35 99
M  V30 99 1 35 100
M  V30 100 1 36 101
M  V30 101 1 37 102
M  V30 102 1 37 103
M  V30 103 1 38 104
M  V30 104 1 38 105
M  V30 105 1 39 106
M  V30 106 1 39 107
M  V30 107 1 40 108
M  V30 108 1 40 109
M  V30 109 1 41 110
M  V30 110 1 41 111
M  V30 111 1 41 112
M  V30 112 1 42 113
M  V30 113 1 42 114
M  V30 114 1 43 115
M  V30 115 1 43 116
M  V30 116 1 44 117
M  V30 117 1 44 118
M  V30 118 1 45 119
M  V30 119 1 45 120
M  V30 120 1 46 121
M  V30 121 1 46 122
M  V30 122 1 47 123
M  V30 123 1 47 124
M  V30 124 1 47 125
M  V30 END BOND
M  V30 BEGIN COLLECTION
M  V30 MDLV30/STEABS ATOMS=(1 7)
M  V30 END COLLECTION
M  V30 END CTAB
M  END
>  <Structure No>
3072

>  <LogS>
-8.721196039

>  <MMFF94 Energy>
2.8236

$$$$
Compound 3073
Actelion Java MolfileCreator 2.0

  0  0  0  0  0  0              0 V3000
M  V30 BEGIN CTAB
M  V30 COUNTS 74 77 0 0 0
M  V30 BEGIN ATOM
M  V30 1 Cl -3.0141 2.1988 0.0 0
M  V30 2 C -2.2735 0.6394 -0.3304 0
M  V30 3 C -3.0643 -0.5061 -0.5041 0
M  V30 4 C -0.8785 0.5496 -0.4012 0
M  V30 5 N -4.4889 -0.4019 -0.4207 0 CHG=-1
M  V30 6 C -2.4443 -1.7376 -0.7628 0
M  V30 7 C -0.2498 -0.6818 -0.6661 0
M  V30 8 N -5.3215 -1.5322 -0.3838 0
M  V30 9 C -1.0526 -1.8235 -0.8504 0
M  V30 10 C 1.2338 -0.7776 -0.7448 0
M  V30 11 C -6.6186 -1.4413 -0.3696 0
M  V30 12 C 1.9047 -1.9165 -0.2637 0
M  V30 13 C 1.9925 0.2711 -1.2932 0
M  V30 14 C -7.279 -0.1195 -0.4687 0
M  V30 15 C -7.4128 -2.6879 -0.2763 0
M  V30 16 C 3.3003 -2.0185 -0.3399 0
M  V30 17 C 3.3845 0.1826 -1.3553 0
M  V30 18 O -6.9552 0.659 -1.4079 0
M  V30 19 N -8.2704 0.2722 0.4924 0
M  V30 20 O -6.827 -3.7713 -0.0025 0
M  V30 21 C -8.8977 -2.7107 -0.4805 0
M  V30 22 Cl 4.0549 -3.4472 0.3616 0
M  V30 23 C 4.0496 -0.9616 -0.9027 0
M  V30 24 C -8.9167 1.5578 0.479 0
M  V30 25 N 5.4783 -0.9893 -0.9946 0 CHG=-1
M  V30 26 C -10.3121 1.6593 0.6853 0
M  V30 27 C -8.1571 2.7299 0.3126 0
M  V30 28 N 6.2138 -2.1743 -1.1361 0
M  V30 29 C -10.9173 2.928 0.7067 0
M  V30 30 C -11.1576 0.429 0.8745 0
M  V30 31 C -8.7733 3.9829 0.3294 0
M  V30 32 C 7.5144 -2.1976 -1.0777 0
M  V30 33 C -10.1515 4.0814 0.523 0
M  V30 34 C 8.2779 -0.9712 -0.7667 0
M  V30 35 C 8.2136 -3.4756 -1.3285 0
M  V30 36 O 9.1531 -0.5641 -1.5764 0
M  V30 37 N 7.993 -0.2375 0.4356 0
M  V30 38 O 7.5492 -4.4908 -1.6684 0
M  V30 39 C 9.7027 -3.593 -1.2087 0
M  V30 40 C 8.7386 0.9139 0.8676 0
M  V30 41 C 8.0723 2.0266 1.4336 0
M  V30 42 C 10.1433 0.9159 0.795 0
M  V30 43 C 8.824 3.108 1.9249 0
M  V30 44 C 6.5689 2.0664 1.5279 0
M  V30 45 C 10.8762 2.0065 1.2714 0
M  V30 46 C 10.218 3.0997 1.836 0
M  V30 47 H -0.2899 1.4418 -0.2296 0
M  V30 48 H -3.0356 -2.6321 -0.9073 0
M  V30 49 H -0.6073 -2.7832 -1.0799 0
M  V30 50 H 1.3465 -2.7207 0.2009 0
M  V30 51 H 1.5121 1.1562 -1.6901 0
M  V30 52 H 3.9493 1.0054 -1.7761 0
M  V30 53 H -8.5518 -0.4156 1.2269 0
M  V30 54 H -9.2131 -3.7055 -0.8666 0
M  V30 55 H -9.2076 -1.9393 -1.2181 0
M  V30 56 H -9.411 -2.532 0.4881 0
M  V30 57 H -7.0829 2.676 0.1925 0
M  V30 58 H -11.9851 3.0275 0.8618 0
M  V30 59 H -12.2426 0.672 0.8653 0
M  V30 60 H -10.9165 -0.0479 1.8473 0
M  V30 61 H -10.9625 -0.2936 0.0552 0
M  V30 62 H -8.1801 4.8806 0.2001 0
M  V30 63 H -10.6269 5.0536 0.537 0
M  V30 64 H 7.1962 -0.5561 1.0308 0
M  V30 65 H 10.0539 -3.1086 -0.2721 0
M  V30 66 H 10.1843 -3.1047 -2.0817 0
M  V30 67 H 10.0066 -4.6624 -1.1867 0
M  V30 68 H 10.6754 0.0617 0.3985 0
M  V30 69 H 8.3321 3.9641 2.3722 0
M  V30 70 H 6.2363 1.4224 2.3683 0
M  V30 71 H 6.1995 3.099 1.7055 0
M  V30 72 H 6.1119 1.7043 0.5837 0
M  V30 73 H 11.9572 2.0015 1.2129 0
M  V30 74 H 10.7897 3.9396 2.2129 0
M  V30 END ATOM
M  V30 BEGIN BOND
M  V30 1 1 1 2
M  V30 2 2 2 3
M  V30 3 1 2 4
M  V30 4 1 3 5
M  V30 5 1 3 6
M  V30 6 2 4 7
M  V30 7 1 5 8
M  V30 8 2 6 9
M  V30 9 1 7 10
M  V30 10 2 8 11
M  V30 11 2 10 12
M  V30 12 1 10 13
M  V30 13 1 11 14
M  V30 14 1 11 15
M  V30 15 1 12 16
M  V30 16 2 13 17
M  V30 17 2 14 18
M  V30 18 1 14 19
M  V30 19 2 15 20
M  V30 20 1 15 21
M  V30 21 1 16 22
M  V30 22 2 16 23
M  V30 23 1 19 24
M  V30 24 1 23 25
M  V30 25 2 24 26
M  V30 26 1 24 27
M  V30 27 1 25 28
M  V30 28 1 26 29
M  V30 29 1 26 30
M  V30 30 2 27 31
M  V30 31 2 28 32
M  V30 32 2 29 33
M  V30 33 1 32 34
M  V30 34 1 32 35
M  V30 35 2 34 36
M  V30 36 1 34 37
M  V30 37 2 35 38
M  V30 38 1 35 39
M  V30 39 1 37 40
M  V30 40 2 40 41
M  V30 41 1 40 42
M  V30 42 1 41 43
M  V30 43 1 41 44
M  V30 44 2 42 45
M  V30 45 2 43 46
M  V30 46 1 7 9
M  V30 47 1 17 23
M  V30 48 1 31 33
M  V30 49 1 45 46
M  V30 50 1 4 47
M  V30 51 1 6 48
M  V30 52 1 9 49
M  V30 53 1 12 50
M  V30 54 1 13 51
M  V30 55 1 17 52
M  V30 56 1 19 53
M  V30 57 1 21 54
M  V30 58 1 21 55
M  V30 59 1 21 56
M  V30 60 1 27 57
M  V30 61 1 29 58
M  V30 62 1 30 59
M  V30 63 1 30 60
M  V30 64 1 30 61
M  V30 65 1 31 62
M  V30 66 1 33 63
M  V30 67 1 37 64
M  V30 68 1 39 65
M  V30 69 1 39 66
M  V30 70 1 39 67
M  V30 71 1 42 68
M  V30 72 1 43 69
M  V30 73 1 44 70
M  V30 74 1 44 71
M  V30 75 1 44 72
M  V30 76 1 45 73
M  V30 77 1 46 74
M  V30 END BOND
M  V30 END CTAB
M  END
>  <Structure No>
3073

>  <LogS>
-8.914844079

>  <MMFF94 Energy>
198.31

$$$$
Compound 3074
Actelion Java MolfileCreator 2.0

  0  0  0  0  0  0              0 V3000
M  V30 BEGIN CTAB
M  V30 COUNTS 70 71 0 0 0
M  V30 BEGIN ATOM
M  V30 1 S 1.6902 -1.368 -2.9794 0
M  V30 2 O 1.1815 -1.0071 -4.3452 0
M  V30 3 O 1.529 -2.8461 -2.7685 0
M  V30 4 N 3.3753 -0.9364 -2.8738 0
M  V30 5 C 0.7324 -0.5061 -1.7767 0
M  V30 6 C 4.0202 -1.6926 -1.7938 0
M  V30 7 C -0.594 -0.8891 -1.5373 0
M  V30 8 C 1.2716 0.5765 -1.071 0
M  V30 9 C 5.4691 -1.2105 -1.5355 0 CFG=2
M  V30 10 C -1.3669 -0.2092 -0.5914 0
M  V30 11 C 0.5092 1.2403 -0.1064 0
M  V30 12 C 5.5025 0.2928 -1.1323 0
M  V30 13 C 6.3821 -1.5171 -2.7502 0
M  V30 14 C -0.817 0.8601 0.1335 0
M  V30 15 C 6.3438 0.5447 0.1275 0
M  V30 16 C 7.8681 -1.3514 -2.4282 0
M  V30 17 N -1.5853 1.5413 1.1342 0
M  V30 18 C 6.3066 2.0237 0.53 0
M  V30 19 N -2.9801 1.6323 1.0206 0
M  V30 20 C 7.1263 2.2722 1.7931 0
M  V30 21 C -3.8597 1.0541 1.7979 0
M  V30 22 C -5.2786 1.3056 1.4812 0
M  V30 23 C -3.5239 0.1139 2.9289 0
M  V30 24 O -5.5765 2.1663 0.6063 0
M  V30 25 N -6.3131 0.5685 2.1514 0
M  V30 26 C -4.5232 -0.5939 3.5244 0
M  V30 27 C -2.0874 -0.053 3.3937 0
M  V30 28 C -5.9417 -0.406 3.1404 0
M  V30 29 C -7.7355 0.7982 1.8344 0
M  V30 30 C -4.2569 -1.5652 4.5689 0
M  V30 31 O -6.8347 -1.099 3.7052 0
M  V30 32 C -8.2925 -0.2983 0.908 0
M  V30 33 N -4.0496 -2.342 5.4039 0
M  V30 34 C -7.6766 -0.2989 -0.5022 0
M  V30 35 C -8.1469 0.8837 -1.3512 0
M  V30 36 H 3.8055 -1.2287 -3.7797 0
M  V30 37 H 4.0329 -2.7776 -2.0415 0
M  V30 38 H 3.4417 -1.5726 -0.8523 0
M  V30 39 H -1.0317 -1.7143 -2.0817 0
M  V30 40 H 2.2732 0.9219 -1.2763 0
M  V30 41 H 5.8345 -1.8292 -0.6834 0
M  V30 42 H -2.3869 -0.5267 -0.4158 0
M  V30 43 H 0.9445 2.0722 0.4339 0
M  V30 44 H 5.8896 0.9153 -1.9651 0
M  V30 45 H 4.48 0.6572 -0.9159 0
M  V30 46 H 6.2197 -2.5697 -3.0747 0
M  V30 47 H 6.1281 -0.8581 -3.6091 0
M  V30 48 H 5.9455 -0.0698 0.9644 0
M  V30 49 H 7.3954 0.24 -0.0539 0
M  V30 50 H 8.1328 -1.924 -1.513 0
M  V30 51 H 8.4811 -1.7337 -3.2726 0
M  V30 52 H 8.1108 -0.2788 -2.2798 0
M  V30 53 H -1.1025 2.226 1.7588 0
M  V30 54 H 5.2558 2.3368 0.7226 0
M  V30 55 H 6.7131 2.6496 -0.2953 0
M  V30 56 H 8.1894 1.9996 1.6271 0
M  V30 57 H 7.0716 3.3476 2.0642 0
M  V30 58 H 6.7154 1.676 2.6337 0
M  V30 59 H -1.4956 -0.584 2.6189 0
M  V30 60 H -1.6461 0.9397 3.6153 0
M  V30 61 H -1.9815 -0.6297 4.3333 0
M  V30 62 H -8.3269 0.7978 2.7767 0
M  V30 63 H -7.8932 1.8021 1.3905 0
M  V30 64 H -8.104 -1.288 1.3698 0
M  V30 65 H -9.395 -0.1818 0.8322 0
M  V30 66 H -7.9839 -1.2365 -1.0156 0
M  V30 67 H -6.5669 -0.3101 -0.4438 0
M  V30 68 H -7.7492 0.7817 -2.3848 0
M  V30 69 H -7.7751 1.8415 -0.9366 0
M  V30 70 H -9.2572 0.9101 -1.4008 0
M  V30 END ATOM
M  V30 BEGIN BOND
M  V30 1 2 1 2
M  V30 2 2 1 3
M  V30 3 1 1 4
M  V30 4 1 1 5
M  V30 5 1 4 6
M  V30 6 2 5 7
M  V30 7 1 5 8
M  V30 8 1 6 9
M  V30 9 1 7 10
M  V30 10 2 8 11
M  V30 11 1 9 12
M  V30 12 1 9 13
M  V30 13 2 10 14
M  V30 14 1 12 15
M  V30 15 1 13 16
M  V30 16 1 14 17
M  V30 17 1 15 18
M  V30 18 1 17 19
M  V30 19 1 18 20
M  V30 20 2 19 21
M  V30 21 1 21 22
M  V30 22 1 21 23
M  V30 23 2 22 24
M  V30 24 1 22 25
M  V30 25 2 23 26
M  V30 26 1 23 27
M  V30 27 1 25 28
M  V30 28 1 25 29
M  V30 29 1 26 30
M  V30 30 2 28 31
M  V30 31 1 29 32
M  V30 32 3 30 33
M  V30 33 1 32 34
M  V30 34 1 34 35
M  V30 35 1 11 14
M  V30 36 1 26 28
M  V30 37 1 4 36
M  V30 38 1 6 37
M  V30 39 1 6 38
M  V30 40 1 7 39
M  V30 41 1 8 40
M  V30 42 1 9 41
M  V30 43 1 10 42
M  V30 44 1 11 43
M  V30 45 1 12 44
M  V30 46 1 12 45
M  V30 47 1 13 46
M  V30 48 1 13 47
M  V30 49 1 15 48
M  V30 50 1 15 49
M  V30 51 1 16 50
M  V30 52 1 16 51
M  V30 53 1 16 52
M  V30 54 1 17 53
M  V30 55 1 18 54
M  V30 56 1 18 55
M  V30 57 1 20 56
M  V30 58 1 20 57
M  V30 59 1 20 58
M  V30 60 1 27 59
M  V30 61 1 27 60
M  V30 62 1 27 61
M  V30 63 1 29 62
M  V30 64 1 29 63
M  V30 65 1 32 64
M  V30 66 1 32 65
M  V30 67 1 34 66
M  V30 68 1 34 67
M  V30 69 1 35 68
M  V30 70 1 35 69
M  V30 71 1 35 70
M  V30 END BOND
M  V30 BEGIN COLLECTION
M  V30 MDLV30/STEABS ATOMS=(1 9)
M  V30 END COLLECTION
M  V30 END CTAB
M  END
>  <Structure No>
3074

>  <LogS>
-8.797313427

>  <MMFF94 Energy>
-13.809

$$$$
Compound 3075
Actelion Java MolfileCreator 2.0

  0  0  0  0  0  0              0 V3000
M  V30 BEGIN CTAB
M  V30 COUNTS 84 91 0 0 0
M  V30 BEGIN ATOM
M  V30 1 Cl 5.7219 -2.1532 1.9046 0
M  V30 2 C 7.4255 -2.3936 1.5239 0
M  V30 3 C 7.8006 -3.3465 0.5586 0
M  V30 4 C 8.4216 -1.6877 2.2308 0
M  V30 5 Cl 6.5961 -4.2323 -0.3677 0
M  V30 6 C 9.1546 -3.6124 0.3288 0
M  V30 7 N 8.0826 -0.675 3.1923 0
M  V30 8 C 9.7707 -2.0033 2.0254 0
M  V30 9 C 10.1358 -2.9516 1.069 0
M  V30 10 N 7.5463 0.4486 2.8971 0
M  V30 11 C 7.2782 0.8908 1.5538 0
M  V30 12 C 5.9418 1.089 1.1517 0
M  V30 13 C 8.3302 1.1442 0.6422 0
M  V30 14 O 4.9023 0.991 2.0809 0
M  V30 15 C 5.6449 1.3977 -0.1899 0
M  V30 16 C 8.0237 1.4773 -0.6999 0
M  V30 17 C 9.681 1.1113 1.0427 0
M  V30 18 C 4.2485 1.5279 -0.659 0
M  V30 19 C 6.6887 1.5898 -1.1042 0
M  V30 20 C 9.0597 1.7035 -1.6202 0
M  V30 21 C 10.7015 1.3413 0.1175 0
M  V30 22 O 3.9475 2.4723 -1.4394 0
M  V30 23 N 3.2462 0.5815 -0.2511 0
M  V30 24 C 10.3922 1.6274 -1.2119 0
M  V30 25 C 1.8803 0.6478 -0.6936 0
M  V30 26 C 0.8097 0.5474 0.2287 0
M  V30 27 C 1.6034 0.75 -2.0649 0
M  V30 28 C -0.5332 0.5511 -0.245 0
M  V30 29 C 1.0474 0.4719 1.6148 0
M  V30 30 C 0.2893 0.771 -2.5245 0
M  V30 31 C -1.6042 0.4581 0.6773 0
M  V30 32 C -0.7722 0.6748 -1.6273 0
M  V30 33 C -0.015 0.3817 2.5122 0
M  V30 34 N -2.967 0.3953 0.2243 0
M  V30 35 C -1.3286 0.3678 2.0496 0
M  V30 36 C -4.0041 1.2411 0.7505 0
M  V30 37 O -3.732 2.0854 1.6474 0
M  V30 38 C -5.3912 1.1468 0.2353 0
M  V30 39 C -6.4935 1.3197 1.0966 0
M  V30 40 C -5.6122 0.8919 -1.126 0
M  V30 41 O -6.2695 1.5784 2.4523 0
M  V30 42 C -7.8087 1.2006 0.602 0
M  V30 43 C -6.9112 0.8447 -1.6443 0
M  V30 44 N -8.9106 1.2788 1.5256 0
M  V30 45 C -8.0229 1.0278 -0.7861 0
M  V30 46 C -7.1129 0.6413 -3.0194 0
M  V30 47 N -9.7525 0.3382 1.7362 0
M  V30 48 C -9.3144 1.0728 -1.3486 0
M  V30 49 C -8.4038 0.6449 -3.5496 0
M  V30 50 C -9.6816 -0.9692 1.1439 0
M  V30 51 C -9.5004 0.87 -2.7179 0
M  V30 52 C -8.6313 -1.8618 1.4464 0
M  V30 53 C -10.7127 -1.38 0.2894 0
M  V30 54 Cl -7.4389 -1.4548 2.6782 0
M  V30 55 C -8.5846 -3.1197 0.8165 0
M  V30 56 C -10.6625 -2.6301 -0.3285 0
M  V30 57 Cl -7.282 -4.2566 1.1397 0
M  V30 58 C -9.595 -3.4921 -0.0763 0
M  V30 59 H 9.447 -4.3447 -0.4128 0
M  V30 60 H 10.541 -1.4927 2.5893 0
M  V30 61 H 11.1816 -3.1721 0.8988 0
M  V30 62 H 5.0599 0.787 3.0601 0
M  V30 63 H 9.9558 0.9213 2.0714 0
M  V30 64 H 6.458 1.8319 -2.1359 0
M  V30 65 H 8.8386 1.9465 -2.6527 0
M  V30 66 H 11.7356 1.3035 0.4347 0
M  V30 67 H 3.5189 -0.2114 0.3712 0
M  V30 68 H 11.1868 1.8054 -1.9245 0
M  V30 69 H 2.4114 0.796 -2.7838 0
M  V30 70 H 2.0509 0.4922 2.0181 0
M  V30 71 H 0.0918 0.8566 -3.5854 0
M  V30 72 H -1.7773 0.708 -2.0261 0
M  V30 73 H 0.1813 0.3164 3.5746 0
M  V30 74 H -3.2029 -0.3039 -0.5143 0
M  V30 75 H -2.1362 0.2689 2.764 0
M  V30 76 H -4.7695 0.7816 -1.7985 0
M  V30 77 H -7.022 1.7134 3.1162 0
M  V30 78 H -6.2719 0.4895 -3.6851 0
M  V30 79 H -10.184 1.2785 -0.7395 0
M  V30 80 H -8.5531 0.4911 -4.6107 0
M  V30 81 H -10.4981 0.8953 -3.1362 0
M  V30 82 H -11.5436 -0.7172 0.0826 0
M  V30 83 H -11.4521 -2.9301 -1.0052 0
M  V30 84 H -9.5635 -4.4594 -0.5616 0
M  V30 END ATOM
M  V30 BEGIN BOND
M  V30 1 1 1 2
M  V30 2 2 2 3
M  V30 3 1 2 4
M  V30 4 1 3 5
M  V30 5 1 3 6
M  V30 6 1 4 7
M  V30 7 2 4 8
M  V30 8 2 6 9
M  V30 9 2 7 10
M  V30 10 1 10 11
M  V30 11 2 11 12
M  V30 12 1 11 13
M  V30 13 1 12 14
M  V30 14 1 12 15
M  V30 15 1 13 16
M  V30 16 2 13 17
M  V30 17 1 15 18
M  V30 18 2 15 19
M  V30 19 2 16 20
M  V30 20 1 17 21
M  V30 21 2 18 22
M  V30 22 1 18 23
M  V30 23 1 20 24
M  V30 24 1 23 25
M  V30 25 1 25 26
M  V30 26 2 25 27
M  V30 27 1 26 28
M  V30 28 2 26 29
M  V30 29 1 27 30
M  V30 30 2 28 31
M  V30 31 1 28 32
M  V30 32 1 29 33
M  V30 33 1 31 34
M  V30 34 1 31 35
M  V30 35 1 34 36
M  V30 36 2 36 37
M  V30 37 1 36 38
M  V30 38 1 38 39
M  V30 39 2 38 40
M  V30 40 1 39 41
M  V30 41 2 39 42
M  V30 42 1 40 43
M  V30 43 1 42 44
M  V30 44 1 42 45
M  V30 45 2 43 46
M  V30 46 2 44 47
M  V30 47 2 45 48
M  V30 48 1 46 49
M  V30 49 1 47 50
M  V30 50 1 48 51
M  V30 51 2 50 52
M  V30 52 1 50 53
M  V30 53 1 52 54
M  V30 54 1 52 55
M  V30 55 2 53 56
M  V30 56 1 55 57
M  V30 57 2 55 58
M  V30 58 1 8 9
M  V30 59 1 16 19
M  V30 60 2 21 24
M  V30 61 2 30 32
M  V30 62 2 33 35
M  V30 63 1 43 45
M  V30 64 2 49 51
M  V30 65 1 56 58
M  V30 66 1 6 59
M  V30 67 1 8 60
M  V30 68 1 9 61
M  V30 69 1 14 62
M  V30 70 1 17 63
M  V30 71 1 19 64
M  V30 72 1 20 65
M  V30 73 1 21 66
M  V30 74 1 23 67
M  V30 75 1 24 68
M  V30 76 1 27 69
M  V30 77 1 29 70
M  V30 78 1 30 71
M  V30 79 1 32 72
M  V30 80 1 33 73
M  V30 81 1 34 74
M  V30 82 1 35 75
M  V30 83 1 40 76
M  V30 84 1 41 77
M  V30 85 1 46 78
M  V30 86 1 48 79
M  V30 87 1 49 80
M  V30 88 1 51 81
M  V30 89 1 53 82
M  V30 90 1 56 83
M  V30 91 1 58 84
M  V30 END BOND
M  V30 END CTAB
M  END
>  <Structure No>
3075

>  <LogS>
-9.227651248

>  <MMFF94 Energy>
226.01

$$$$
Compound 3076
Actelion Java MolfileCreator 2.0

  0  0  0  0  0  0              0 V3000
M  V30 BEGIN CTAB
M  V30 COUNTS 68 71 0 0 0
M  V30 BEGIN ATOM
M  V30 1 Cl 2.3693 -0.8165 -2.5328 0
M  V30 2 C 2.1123 0.0395 -1.0155 0
M  V30 3 C 3.1564 0.7007 -0.3335 0
M  V30 4 C 0.8324 -0.0078 -0.4475 0
M  V30 5 N 4.4883 0.7757 -0.8522 0 CHG=-1
M  V30 6 C 2.9022 1.2811 0.9121 0
M  V30 7 C 0.5665 0.6065 0.7907 0
M  V30 8 N 4.7609 0.8723 -2.226 0
M  V30 9 C 1.6201 1.2499 1.4644 0
M  V30 10 C -0.8014 0.5635 1.3804 0
M  V30 11 C 5.9678 0.8276 -2.7079 0
M  V30 12 C -0.983 0.4526 2.7731 0
M  V30 13 C -1.9386 0.6216 0.5543 0
M  V30 14 C 7.1321 0.6515 -1.8073 0
M  V30 15 C 6.1383 0.9457 -4.1754 0
M  V30 16 C -2.268 0.4013 3.3249 0
M  V30 17 C -3.2212 0.5533 1.103 0
M  V30 18 O 7.2255 1.369 -0.7727 0
M  V30 19 N 8.1382 -0.3341 -2.1 0
M  V30 20 O 5.1318 0.8115 -4.9237 0
M  V30 21 C 7.4648 1.2227 -4.814 0
M  V30 22 Cl -2.448 0.2574 5.0686 0
M  V30 23 C -3.3949 0.4408 2.4916 0
M  V30 24 C 9.1636 -0.7302 -1.1727 0
M  V30 25 N -4.7043 0.3631 3.0658 0 CHG=-1
M  V30 26 C 10.4322 -1.0825 -1.6605 0
M  V30 27 C 8.9078 -0.8283 0.2086 0
M  V30 28 N -5.854 0.2233 2.2739 0
M  V30 29 C 11.4387 -1.4928 -0.7819 0
M  V30 30 C 9.9169 -1.2419 1.0835 0
M  V30 31 C -7.0596 0.1879 2.7612 0
M  V30 32 C 11.1801 -1.5773 0.5901 0
M  V30 33 C -8.1847 -0.0638 1.8356 0
M  V30 34 C -7.3284 0.3782 4.2105 0
M  V30 35 O -9.3696 0.1025 2.2355 0
M  V30 36 N -7.9328 -0.5332 0.4991 0
M  V30 37 O -8.1878 -0.3477 4.7805 0
M  V30 38 C -6.6107 1.4142 5.0206 0
M  V30 39 C -8.9196 -0.5534 -0.5453 0
M  V30 40 C -9.9008 0.451 -0.6512 0
M  V30 41 C -8.8661 -1.5621 -1.5198 0
M  V30 42 C -10.8298 0.4198 -1.6967 0
M  V30 43 C -9.8 -1.5919 -2.56 0
M  V30 44 C -10.7816 -0.602 -2.6482 0
M  V30 45 H 0.0516 -0.5505 -0.9655 0
M  V30 46 H 3.6986 1.7833 1.4473 0
M  V30 47 H 1.4542 1.7466 2.4103 0
M  V30 48 H -0.1313 0.3822 3.4367 0
M  V30 49 H -1.841 0.7368 -0.518 0
M  V30 50 H -4.0771 0.5992 0.4403 0
M  V30 51 H 8.1497 -0.7735 -3.0473 0
M  V30 52 H 7.3326 1.9423 -5.65 0
M  V30 53 H 7.8878 0.2788 -5.2158 0
M  V30 54 H 8.1781 1.6659 -4.0858 0
M  V30 55 H 10.6456 -1.0291 -2.7219 0
M  V30 56 H 7.9241 -0.6163 0.6105 0
M  V30 57 H 12.4165 -1.7604 -1.1632 0
M  V30 58 H 9.714 -1.3179 2.1438 0
M  V30 59 H 11.9605 -1.9021 1.2666 0
M  V30 60 H -7.0056 -0.9709 0.2977 0
M  V30 61 H -5.7729 0.9376 5.5742 0
M  V30 62 H -6.2147 2.2203 4.3636 0
M  V30 63 H -7.3082 1.8794 5.7482 0
M  V30 64 H -9.9369 1.2706 0.0534 0
M  V30 65 H -8.1055 -2.3309 -1.4661 0
M  V30 66 H -11.5822 1.1937 -1.7749 0
M  V30 67 H -9.76 -2.3804 -3.3009 0
M  V30 68 H -11.4995 -0.6224 -3.4576 0
M  V30 END ATOM
M  V30 BEGIN BOND
M  V30 1 1 1 2
M  V30 2 2 2 3
M  V30 3 1 2 4
M  V30 4 1 3 5
M  V30 5 1 3 6
M  V30 6 2 4 7
M  V30 7 1 5 8
M  V30 8 2 6 9
M  V30 9 1 7 10
M  V30 10 2 8 11
M  V30 11 2 10 12
M  V30 12 1 10 13
M  V30 13 1 11 14
M  V30 14 1 11 15
M  V30 15 1 12 16
M  V30 16 2 13 17
M  V30 17 2 14 18
M  V30 18 1 14 19
M  V30 19 2 15 20
M  V30 20 1 15 21
M  V30 21 1 16 22
M  V30 22 2 16 23
M  V30 23 1 19 24
M  V30 24 1 23 25
M  V30 25 2 24 26
M  V30 26 1 24 27
M  V30 27 1 25 28
M  V30 28 1 26 29
M  V30 29 2 27 30
M  V30 30 2 28 31
M  V30 31 2 29 32
M  V30 32 1 31 33
M  V30 33 1 31 34
M  V30 34 2 33 35
M  V30 35 1 33 36
M  V30 36 2 34 37
M  V30 37 1 34 38
M  V30 38 1 36 39
M  V30 39 2 39 40
M  V30 40 1 39 41
M  V30 41 1 40 42
M  V30 42 2 41 43
M  V30 43 2 42 44
M  V30 44 1 7 9
M  V30 45 1 17 23
M  V30 46 1 30 32
M  V30 47 1 43 44
M  V30 48 1 4 45
M  V30 49 1 6 46
M  V30 50 1 9 47
M  V30 51 1 12 48
M  V30 52 1 13 49
M  V30 53 1 17 50
M  V30 54 1 19 51
M  V30 55 1 21 52
M  V30 56 1 21 53
M  V30 57 1 21 54
M  V30 58 1 26 55
M  V30 59 1 27 56
M  V30 60 1 29 57
M  V30 61 1 30 58
M  V30 62 1 32 59
M  V30 63 1 36 60
M  V30 64 1 38 61
M  V30 65 1 38 62
M  V30 66 1 38 63
M  V30 67 1 40 64
M  V30 68 1 41 65
M  V30 69 1 42 66
M  V30 70 1 43 67
M  V30 71 1 44 68
M  V30 END BOND
M  V30 END CTAB
M  END
>  <Structure No>
3076

>  <LogS>
-9.196938503

>  <MMFF94 Energy>
187.44

$$$$
Compound 3077
Actelion Java MolfileCreator 2.0

  0  0  0  0  0  0              0 V3000
M  V30 BEGIN CTAB
M  V30 COUNTS 31 30 0 0 0
M  V30 BEGIN ATOM
M  V30 1 F 0.0893 4.2929 0.5359 0
M  V30 2 C -1.1423 3.6617 0.5141 0
M  V30 3 F -1.6297 3.5669 1.806 0
M  V30 4 F -2.0146 4.4344 -0.2317 0
M  V30 5 C -1.0231 2.2654 -0.1198 0
M  V30 6 F -2.3078 1.7803 -0.2872 0
M  V30 7 F -0.4592 2.4106 -1.3751 0
M  V30 8 C -0.1943 1.2745 0.7635 0
M  V30 9 F -0.9915 0.827 1.8005 0
M  V30 10 F 0.8396 1.957 1.3882 0
M  V30 11 N 0.3714 0.103 0.0169 0
M  V30 12 C 1.6511 0.3783 -0.7225 0
M  V30 13 C -0.5867 -0.8231 -0.6735 0
M  V30 14 F 1.6117 -0.0905 -2.0279 0
M  V30 15 F 1.9013 1.7391 -0.8274 0
M  V30 16 C 2.8642 -0.2418 0.0146 0
M  V30 17 F -1.2603 -0.157 -1.6826 0
M  V30 18 F 0.1224 -1.8523 -1.2727 0
M  V30 19 C -1.6094 -1.4896 0.2962 0
M  V30 20 F 2.9304 0.2706 1.2992 0
M  V30 21 F 4.0182 0.1372 -0.6521 0
M  V30 22 C 2.8486 -1.7756 0.1036 0
M  V30 23 F -2.6383 -0.6116 0.5855 0
M  V30 24 F -0.9747 -1.8362 1.4777 0
M  V30 25 C -2.2561 -2.7583 -0.291 0
M  V30 26 F 1.778 -2.2116 0.8616 0
M  V30 27 F 2.7846 -2.3391 -1.158 0
M  V30 28 F 4.0131 -2.2064 0.7135 0
M  V30 29 F -3.2728 -3.186 0.5444 0
M  V30 30 F -1.3264 -3.7782 -0.3988 0
M  V30 31 F -2.7917 -2.4948 -1.5394 0
M  V30 END ATOM
M  V30 BEGIN BOND
M  V30 1 1 1 2
M  V30 2 1 2 3
M  V30 3 1 2 4
M  V30 4 1 2 5
M  V30 5 1 5 6
M  V30 6 1 5 7
M  V30 7 1 5 8
M  V30 8 1 8 9
M  V30 9 1 8 10
M  V30 10 1 8 11
M  V30 11 1 11 12
M  V30 12 1 11 13
M  V30 13 1 12 14
M  V30 14 1 12 15
M  V30 15 1 12 16
M  V30 16 1 13 17
M  V30 17 1 13 18
M  V30 18 1 13 19
M  V30 19 1 16 20
M  V30 20 1 16 21
M  V30 21 1 16 22
M  V30 22 1 19 23
M  V30 23 1 19 24
M  V30 24 1 19 25
M  V30 25 1 22 26
M  V30 26 1 22 27
M  V30 27 1 22 28
M  V30 28 1 25 29
M  V30 29 1 25 30
M  V30 30 1 25 31
M  V30 END BOND
M  V30 END CTAB
M  END
>  <Structure No>
3077

>  <LogS>
-9.135966093

>  <MMFF94 Energy>
37.01

$$$$
Compound 3078
Actelion Java MolfileCreator 2.0

  0  0  0  0  0  0              0 V3000
M  V30 BEGIN CTAB
M  V30 COUNTS 80 83 0 0 0
M  V30 BEGIN ATOM
M  V30 1 Cl -3.9816 0.2434 -3.8189 0
M  V30 2 C -3.3788 0.2929 -2.1667 0
M  V30 3 C -4.1906 0.6584 -1.0682 0
M  V30 4 C -2.0543 -0.1071 -1.9471 0
M  V30 5 N -5.5523 1.0803 -1.211 0 CHG=-1
M  V30 6 C -3.6598 0.597 0.2257 0
M  V30 7 C -1.5206 -0.1389 -0.6502 0
M  V30 8 N -6.0515 1.6949 -2.3692 0
M  V30 9 C -2.3333 0.2169 0.4339 0
M  V30 10 C -0.1198 -0.5563 -0.4269 0
M  V30 11 C -7.3047 2.0147 -2.5117 0
M  V30 12 C 0.7471 0.2422 0.336 0
M  V30 13 C 0.3519 -1.7623 -0.9646 0
M  V30 14 C -8.3037 1.6746 -1.4754 0
M  V30 15 C -7.7281 2.7436 -3.7253 0
M  V30 16 C 2.0771 -0.1426 0.5442 0
M  V30 17 C 1.669 -2.1656 -0.7378 0
M  V30 18 O -9.067 2.5767 -1.0386 0
M  V30 19 N -8.398 0.3318 -0.9705 0
M  V30 20 O -8.9478 3.0045 -3.9112 0
M  V30 21 C -6.7261 3.1694 -4.7559 0
M  V30 22 Cl 3.0845 0.8859 1.5562 0
M  V30 23 C 2.5468 -1.3566 -0.0059 0
M  V30 24 C -9.3712 -0.0872 0.0011 0
M  V30 25 N 3.8895 -1.8153 0.1796 0 CHG=-1
M  V30 26 C -8.9998 -0.9474 1.0591 0
M  V30 27 C -10.7147 0.3069 -0.1267 0
M  V30 28 N 4.9877 -0.9426 0.2166 0
M  V30 29 C -9.9777 -1.3983 1.9613 0
M  V30 30 C -7.5734 -1.3987 1.2257 0
M  V30 31 C -11.675 -0.1355 0.7851 0
M  V30 32 C 6.1936 -1.3448 0.4872 0
M  V30 33 C -11.3156 -1.0042 1.8225 0
M  V30 34 C 7.289 -0.3478 0.462 0
M  V30 35 C 6.455 -2.7647 0.8158 0
M  V30 36 C -12.3404 -1.4661 2.8165 0
M  V30 37 O 6.9945 0.8801 0.4317 0
M  V30 38 N 8.6709 -0.7529 0.4434 0
M  V30 39 O 6.0223 -3.671 0.0549 0
M  V30 40 C 7.1594 -3.1522 2.0782 0
M  V30 41 C 9.7558 0.1632 0.2196 0
M  V30 42 C 10.9302 0.0867 1.0008 0
M  V30 43 C 9.6803 1.1028 -0.8223 0
M  V30 44 C 12.0077 0.9428 0.7172 0
M  V30 45 C 11.0524 -0.9114 2.1193 0
M  V30 46 C 10.7528 1.9551 -1.0886 0
M  V30 47 C 11.9282 1.8698 -0.3327 0
M  V30 48 C 13.0696 2.8015 -0.6181 0
M  V30 49 H -1.4376 -0.3897 -2.7902 0
M  V30 50 H -4.2763 0.861 1.0767 0
M  V30 51 H -1.9466 0.1842 1.4457 0
M  V30 52 H 0.3899 1.1703 0.764 0
M  V30 53 H -0.3057 -2.3996 -1.5434 0
M  V30 54 H 2.0151 -3.104 -1.1522 0
M  V30 55 H -7.6991 -0.3721 -1.3005 0
M  V30 56 H -6.2372 2.2736 -5.1947 0
M  V30 57 H -5.9566 3.8167 -4.2849 0
M  V30 58 H -7.2217 3.7402 -5.5706 0
M  V30 59 H -11.0255 0.9366 -0.95 0
M  V30 60 H -9.7012 -2.0597 2.7749 0
M  V30 61 H -6.8863 -0.5291 1.1524 0
M  V30 62 H -7.4101 -1.8743 2.2173 0
M  V30 63 H -7.3233 -2.1363 0.434 0
M  V30 64 H -12.7022 0.1894 0.6739 0
M  V30 65 H -12.1279 -2.5082 3.1385 0
M  V30 66 H -13.3586 -1.448 2.3743 0
M  V30 67 H -12.3208 -0.8 3.7041 0
M  V30 68 H 8.9163 -1.7547 0.601 0
M  V30 69 H 8.032 -3.7924 1.8373 0
M  V30 70 H 7.5106 -2.2596 2.6378 0
M  V30 71 H 6.4606 -3.7194 2.7286 0
M  V30 72 H 8.7989 1.1571 -1.4487 0
M  V30 73 H 12.9112 0.884 1.3127 0
M  V30 74 H 11.9009 -0.6596 2.7963 0
M  V30 75 H 10.122 -0.9186 2.7317 0
M  V30 76 H 11.2219 -1.9264 1.6958 0
M  V30 77 H 10.6744 2.6704 -1.8981 0
M  V30 78 H 14.0218 2.4039 -0.2064 0
M  V30 79 H 12.8586 3.7896 -0.1588 0
M  V30 80 H 13.1987 2.9303 -1.7141 0
M  V30 END ATOM
M  V30 BEGIN BOND
M  V30 1 1 1 2
M  V30 2 2 2 3
M  V30 3 1 2 4
M  V30 4 1 3 5
M  V30 5 1 3 6
M  V30 6 2 4 7
M  V30 7 1 5 8
M  V30 8 2 6 9
M  V30 9 1 7 10
M  V30 10 2 8 11
M  V30 11 2 10 12
M  V30 12 1 10 13
M  V30 13 1 11 14
M  V30 14 1 11 15
M  V30 15 1 12 16
M  V30 16 2 13 17
M  V30 17 2 14 18
M  V30 18 1 14 19
M  V30 19 2 15 20
M  V30 20 1 15 21
M  V30 21 1 16 22
M  V30 22 2 16 23
M  V30 23 1 19 24
M  V30 24 1 23 25
M  V30 25 2 24 26
M  V30 26 1 24 27
M  V30 27 1 25 28
M  V30 28 1 26 29
M  V30 29 1 26 30
M  V30 30 2 27 31
M  V30 31 2 28 32
M  V30 32 2 29 33
M  V30 33 1 32 34
M  V30 34 1 32 35
M  V30 35 1 33 36
M  V30 36 2 34 37
M  V30 37 1 34 38
M  V30 38 2 35 39
M  V30 39 1 35 40
M  V30 40 1 38 41
M  V30 41 2 41 42
M  V30 42 1 41 43
M  V30 43 1 42 44
M  V30 44 1 42 45
M  V30 45 2 43 46
M  V30 46 2 44 47
M  V30 47 1 47 48
M  V30 48 1 7 9
M  V30 49 1 17 23
M  V30 50 1 31 33
M  V30 51 1 46 47
M  V30 52 1 4 49
M  V30 53 1 6 50
M  V30 54 1 9 51
M  V30 55 1 12 52
M  V30 56 1 13 53
M  V30 57 1 17 54
M  V30 58 1 19 55
M  V30 59 1 21 56
M  V30 60 1 21 57
M  V30 61 1 21 58
M  V30 62 1 27 59
M  V30 63 1 29 60
M  V30 64 1 30 61
M  V30 65 1 30 62
M  V30 66 1 30 63
M  V30 67 1 31 64
M  V30 68 1 36 65
M  V30 69 1 36 66
M  V30 70 1 36 67
M  V30 71 1 38 68
M  V30 72 1 40 69
M  V30 73 1 40 70
M  V30 74 1 40 71
M  V30 75 1 43 72
M  V30 76 1 44 73
M  V30 77 1 45 74
M  V30 78 1 45 75
M  V30 79 1 45 76
M  V30 80 1 46 77
M  V30 81 1 48 78
M  V30 82 1 48 79
M  V30 83 1 48 80
M  V30 END BOND
M  V30 END CTAB
M  END
>  <Structure No>
3078

>  <LogS>
-9.292010366

>  <MMFF94 Energy>
201.19

$$$$
Compound 3079
Actelion Java MolfileCreator 2.0

  0  0  0  0  0  0              0 V3000
M  V30 BEGIN CTAB
M  V30 COUNTS 44 46 0 0 0
M  V30 BEGIN ATOM
M  V30 1 O -3.884 2.1833 1.536 0
M  V30 2 C -3.8475 1.0359 1.0144 0
M  V30 3 C -2.5961 0.5299 0.3773 0
M  V30 4 C -5.0877 0.2328 0.9639 0
M  V30 5 C -1.3309 1.1327 0.6227 0
M  V30 6 C -2.6893 -0.549 -0.5381 0
M  V30 7 C -5.1597 -0.8877 0.1158 0
M  V30 8 C -6.2075 0.5916 1.7371 0
M  V30 9 N -1.1554 2.1007 1.6693 0
M  V30 10 C -0.2046 0.7365 -0.1211 0
M  V30 11 C -3.9909 -1.2574 -0.7123 0
M  V30 12 C -1.5456 -0.9418 -1.2669 0
M  V30 13 C -6.3505 -1.6362 0.0559 0
M  V30 14 C -7.382 -0.161 1.6713 0
M  V30 15 O 1.0232 1.3794 0.124 0
M  V30 16 C -0.3291 -0.2854 -1.0724 0
M  V30 17 O -4.1063 -2.1853 -1.5591 0
M  V30 18 O -1.6105 -1.9854 -2.1915 0
M  V30 19 C -7.4533 -1.273 0.8321 0
M  V30 20 C 2.2861 1.0246 -0.4407 0
M  V30 21 C 2.8438 -0.2334 0.2288 0
M  V30 22 O 4.0898 -0.6037 -0.3586 0
M  V30 23 C 5.2934 0.058 -0.0956 0
M  V30 24 O 5.3368 1.0078 0.7349 0
M  V30 25 O 6.4502 -0.3536 -0.7613 0
M  V30 26 C 7.7165 0.2634 -0.5532 0
M  V30 27 C 8.7627 -0.413 -1.4246 0
M  V30 28 H -6.1741 1.4508 2.3956 0
M  V30 29 H -0.3308 2.7411 1.6797 0
M  V30 30 H -1.7305 2.0675 2.5391 0
M  V30 31 H -6.4295 -2.5023 -0.5889 0
M  V30 32 H -8.2385 0.119 2.271 0
M  V30 33 H 0.5218 -0.6015 -1.6578 0
M  V30 34 H -0.8002 -2.2811 -2.7236 0
M  V30 35 H -8.365 -1.8543 0.7819 0
M  V30 36 H 2.2056 0.8933 -1.5404 0
M  V30 37 H 2.9877 1.866 -0.2632 0
M  V30 38 H 2.1332 -1.0742 0.0947 0
M  V30 39 H 2.9671 -0.0662 1.3213 0
M  V30 40 H 7.6576 1.3411 -0.8202 0
M  V30 41 H 8.0103 0.1673 0.5146 0
M  V30 42 H 9.7515 0.0664 -1.264 0
M  V30 43 H 8.4844 -0.3167 -2.4954 0
M  V30 44 H 8.8367 -1.4896 -1.1618 0
M  V30 END ATOM
M  V30 BEGIN BOND
M  V30 1 2 1 2
M  V30 2 1 2 3
M  V30 3 1 2 4
M  V30 4 2 3 5
M  V30 5 1 3 6
M  V30 6 2 4 7
M  V30 7 1 4 8
M  V30 8 1 5 9
M  V30 9 1 5 10
M  V30 10 1 6 11
M  V30 11 2 6 12
M  V30 12 1 7 13
M  V30 13 2 8 14
M  V30 14 1 10 15
M  V30 15 2 10 16
M  V30 16 2 11 17
M  V30 17 1 12 18
M  V30 18 2 13 19
M  V30 19 1 15 20
M  V30 20 1 20 21
M  V30 21 1 21 22
M  V30 22 1 22 23
M  V30 23 2 23 24
M  V30 24 1 23 25
M  V30 25 1 25 26
M  V30 26 1 26 27
M  V30 27 1 7 11
M  V30 28 1 12 16
M  V30 29 1 14 19
M  V30 30 1 8 28
M  V30 31 1 9 29
M  V30 32 1 9 30
M  V30 33 1 13 31
M  V30 34 1 14 32
M  V30 35 1 16 33
M  V30 36 1 18 34
M  V30 37 1 19 35
M  V30 38 1 20 36
M  V30 39 1 20 37
M  V30 40 1 21 38
M  V30 41 1 21 39
M  V30 42 1 26 40
M  V30 43 1 26 41
M  V30 44 1 27 42
M  V30 45 1 27 43
M  V30 46 1 27 44
M  V30 END BOND
M  V30 END CTAB
M  END
>  <Structure No>
3079

>  <LogS>
-9.219529562

>  <MMFF94 Energy>
65.525

$$$$
Compound 3080
Actelion Java MolfileCreator 2.0

  0  0  0  0  0  0              0 V3000
M  V30 BEGIN CTAB
M  V30 COUNTS 123 122 0 0 0
M  V30 BEGIN ATOM
M  V30 1 O 0.2352 1.6474 3.0611 0
M  V30 2 C -0.3396 0.5572 2.7918 0
M  V30 3 O 0.3979 -0.6255 2.6651 0
M  V30 4 C -1.8244 0.54 2.5764 0 CFG=2
M  V30 5 C 1.8227 -0.6621 2.7041 0
M  V30 6 O -2.2896 -0.7858 2.5386 0
M  V30 7 C -2.2061 1.2726 1.2798 0
M  V30 8 C 2.4019 -0.2282 1.3541 0
M  V30 9 C -1.5109 0.7192 0.0726 0
M  V30 10 C 3.9128 0.0116 1.452 0
M  V30 11 O -0.8571 1.4927 -0.6766 0
M  V30 12 O -1.6049 -0.6458 -0.2189 0
M  V30 13 C 4.5156 0.3157 0.0726 0
M  V30 14 C -1.1025 -1.2236 -1.4217 0
M  V30 15 C 5.9212 0.9342 0.148 0
M  V30 16 C -2.052 -0.9549 -2.6012 0
M  V30 17 C 7.0002 -0.0207 0.7071 0
M  V30 18 C -3.2432 -1.9298 -2.6609 0
M  V30 19 C 7.2955 0.2425 2.1964 0
M  V30 20 C -4.167 -1.9116 -1.4281 0
M  V30 21 C 8.3293 -0.7334 2.7924 0
M  V30 22 C -4.9164 -0.5803 -1.257 0
M  V30 23 C 9.7526 -0.6078 2.215 0
M  V30 24 C -5.8327 -0.6296 -0.0248 0
M  V30 25 C 10.4111 0.7456 2.538 0
M  V30 26 C -6.502 0.7211 0.2842 0
M  V30 27 C 11.8954 0.8144 2.1267 0
M  V30 28 C -7.443 1.2544 -0.8107 0
M  V30 29 C 12.1798 0.5064 0.6441 0
M  V30 30 C -8.652 0.3398 -1.0616 0
M  V30 31 C 11.4667 1.4576 -0.3314 0
M  V30 32 C -9.6299 0.9123 -2.1033 0
M  V30 33 C 11.5896 1.008 -1.7976 0
M  V30 34 C -10.3691 2.1936 -1.6738 0
M  V30 35 C 13.0062 1.1798 -2.3953 0
M  V30 36 C -11.2437 2.0547 -0.412 0
M  V30 37 C 13.8659 -0.1098 -2.3968 0
M  V30 38 C -12.4545 1.114 -0.5931 0
M  V30 39 C 13.2918 -1.1903 -3.3331 0
M  V30 40 C 15.3052 0.2297 -2.8183 0
M  V30 41 C -12.2281 -0.2701 0.0411 0
M  V30 42 C -13.4649 -1.186 -0.0972 0
M  V30 43 C -14.31 -1.3065 1.1926 0
M  V30 44 C -14.9455 0.0316 1.5926 0
M  V30 45 C -15.4031 -2.3703 1.008 0
M  V30 46 H -2.2938 1.0796 3.4325 0
M  V30 47 H 2.1959 -0.009 3.5221 0
M  V30 48 H 2.1464 -1.7036 2.9194 0
M  V30 49 H -3.2236 -0.7709 2.8699 0
M  V30 50 H -1.9687 2.354 1.3825 0
M  V30 51 H -3.3009 1.1949 1.1195 0
M  V30 52 H 1.9069 0.7119 1.0204 0
M  V30 53 H 2.1902 -1.0183 0.6033 0
M  V30 54 H 4.0897 0.8702 2.1345 0
M  V30 55 H 4.4042 -0.8935 1.8745 0
M  V30 56 H 4.5418 -0.6165 -0.5348 0
M  V30 57 H 3.86 1.0364 -0.4624 0
M  V30 58 H -0.0964 -0.8064 -1.6424 0
M  V30 59 H -0.9798 -2.3172 -1.2738 0
M  V30 60 H 6.207 1.2068 -0.893 0
M  V30 61 H 5.8879 1.8871 0.7205 0
M  V30 62 H -1.4734 -1.0764 -3.5433 0
M  V30 63 H -2.4096 0.0955 -2.5816 0
M  V30 64 H 6.7034 -1.0839 0.5561 0
M  V30 65 H 7.932 0.1573 0.1273 0
M  V30 66 H -3.843 -1.702 -3.5684 0
M  V30 67 H -2.8485 -2.9601 -2.7868 0
M  V30 68 H 7.6314 1.2906 2.3348 0
M  V30 69 H 6.3588 0.1307 2.781 0
M  V30 70 H -3.588 -2.1542 -0.5104 0
M  V30 71 H -4.9162 -2.7234 -1.5574 0
M  V30 72 H 7.9727 -1.7758 2.6329 0
M  V30 73 H 8.3754 -0.5713 3.8917 0
M  V30 74 H -5.5204 -0.392 -2.1714 0
M  V30 75 H -4.1931 0.2516 -1.1275 0
M  V30 76 H 10.3719 -1.4202 2.6531 0
M  V30 77 H 9.7301 -0.7811 1.1215 0
M  V30 78 H -6.6005 -1.4219 -0.1481 0
M  V30 79 H -5.2246 -0.9109 0.864 0
M  V30 80 H 10.3562 0.9154 3.6358 0
M  V30 81 H 9.8572 1.5751 2.0534 0
M  V30 82 H -5.7101 1.4769 0.4623 0
M  V30 83 H -7.0738 0.6255 1.235 0
M  V30 84 H 12.474 0.0926 2.7471 0
M  V30 85 H 12.2815 1.8304 2.3648 0
M  V30 86 H -6.8836 1.4158 -1.7557 0
M  V30 87 H -7.8009 2.247 -0.4682 0
M  V30 88 H 11.9153 -0.547 0.4189 0
M  V30 89 H 13.2745 0.6042 0.4957 0
M  V30 90 H -8.2945 -0.6339 -1.4549 0
M  V30 91 H -9.1696 0.1312 -0.1076 0
M  V30 92 H 10.3811 1.486 -0.1048 0
M  V30 93 H 11.8628 2.4907 -0.207 0
M  V30 94 H -10.3714 0.1338 -2.3769 0
M  V30 95 H -9.0645 1.1281 -3.034 0
M  V30 96 H 11.2092 -0.0279 -1.8999 0
M  V30 97 H 10.8947 1.6451 -2.3919 0
M  V30 98 H -9.6332 3.01 -1.5154 0
M  V30 99 H -11.0128 2.5228 -2.5183 0
M  V30 100 H 12.9024 1.5345 -3.4468 0
M  V30 101 H 13.541 1.9878 -1.8519 0
M  V30 102 H -10.6308 1.7741 0.4701 0
M  V30 103 H -11.638 3.0703 -0.1841 0
M  V30 104 H 13.908 -0.5348 -1.3687 0
M  V30 105 H -12.7054 0.9986 -1.6696 0
M  V30 106 H -13.3364 1.5914 -0.116 0
M  V30 107 H 14.018 -2.0213 -3.4554 0
M  V30 108 H 12.3689 -1.6366 -2.9011 0
M  V30 109 H 13.0563 -0.7727 -4.3353 0
M  V30 110 H 15.7351 0.9936 -2.1372 0
M  V30 111 H 15.3186 0.6212 -3.8599 0
M  V30 112 H 15.9419 -0.6804 -2.7627 0
M  V30 113 H -11.9438 -0.1565 1.1098 0
M  V30 114 H -11.3757 -0.7617 -0.4717 0
M  V30 115 H -14.1065 -0.8633 -0.9466 0
M  V30 116 H -13.0972 -2.2019 -0.3596 0
M  V30 117 H -13.6504 -1.642 2.0243 0
M  V30 118 H -14.1642 0.7436 1.9359 0
M  V30 119 H -15.6562 -0.113 2.437 0
M  V30 120 H -15.5003 0.4748 0.7372 0
M  V30 121 H -16.0991 -2.0803 0.1919 0
M  V30 122 H -15.9808 -2.4946 1.949 0
M  V30 123 H -14.9465 -3.3508 0.7551 0
M  V30 END ATOM
M  V30 BEGIN BOND
M  V30 1 2 1 2
M  V30 2 1 2 3
M  V30 3 1 2 4
M  V30 4 1 3 5
M  V30 5 1 4 6
M  V30 6 1 4 7
M  V30 7 1 5 8
M  V30 8 1 7 9
M  V30 9 1 8 10
M  V30 10 2 9 11
M  V30 11 1 9 12
M  V30 12 1 10 13
M  V30 13 1 12 14
M  V30 14 1 13 15
M  V30 15 1 14 16
M  V30 16 1 15 17
M  V30 17 1 16 18
M  V30 18 1 17 19
M  V30 19 1 18 20
M  V30 20 1 19 21
M  V30 21 1 20 22
M  V30 22 1 21 23
M  V30 23 1 22 24
M  V30 24 1 23 25
M  V30 25 1 24 26
M  V30 26 1 25 27
M  V30 27 1 26 28
M  V30 28 1 27 29
M  V30 29 1 28 30
M  V30 30 1 29 31
M  V30 31 1 30 32
M  V30 32 1 31 33
M  V30 33 1 32 34
M  V30 34 1 33 35
M  V30 35 1 34 36
M  V30 36 1 35 37
M  V30 37 1 36 38
M  V30 38 1 37 39
M  V30 39 1 37 40
M  V30 40 1 38 41
M  V30 41 1 41 42
M  V30 42 1 42 43
M  V30 43 1 43 44
M  V30 44 1 43 45
M  V30 45 1 4 46
M  V30 46 1 5 47
M  V30 47 1 5 48
M  V30 48 1 6 49
M  V30 49 1 7 50
M  V30 50 1 7 51
M  V30 51 1 8 52
M  V30 52 1 8 53
M  V30 53 1 10 54
M  V30 54 1 10 55
M  V30 55 1 13 56
M  V30 56 1 13 57
M  V30 57 1 14 58
M  V30 58 1 14 59
M  V30 59 1 15 60
M  V30 60 1 15 61
M  V30 61 1 16 62
M  V30 62 1 16 63
M  V30 63 1 17 64
M  V30 64 1 17 65
M  V30 65 1 18 66
M  V30 66 1 18 67
M  V30 67 1 19 68
M  V30 68 1 19 69
M  V30 69 1 20 70
M  V30 70 1 20 71
M  V30 71 1 21 72
M  V30 72 1 21 73
M  V30 73 1 22 74
M  V30 74 1 22 75
M  V30 75 1 23 76
M  V30 76 1 23 77
M  V30 77 1 24 78
M  V30 78 1 24 79
M  V30 79 1 25 80
M  V30 80 1 25 81
M  V30 81 1 26 82
M  V30 82 1 26 83
M  V30 83 1 27 84
M  V30 84 1 27 85
M  V30 85 1 28 86
M  V30 86 1 28 87
M  V30 87 1 29 88
M  V30 88 1 29 89
M  V30 89 1 30 90
M  V30 90 1 30 91
M  V30 91 1 31 92
M  V30 92 1 31 93
M  V30 93 1 32 94
M  V30 94 1 32 95
M  V30 95 1 33 96
M  V30 96 1 33 97
M  V30 97 1 34 98
M  V30 98 1 34 99
M  V30 99 1 35 100
M  V30 100 1 35 101
M  V30 101 1 36 102
M  V30 102 1 36 103
M  V30 103 1 37 104
M  V30 104 1 38 105
M  V30 105 1 38 106
M  V30 106 1 39 107
M  V30 107 1 39 108
M  V30 108 1 39 109
M  V30 109 1 40 110
M  V30 110 1 40 111
M  V30 111 1 40 112
M  V30 112 1 41 113
M  V30 113 1 41 114
M  V30 114 1 42 115
M  V30 115 1 42 116
M  V30 116 1 43 117
M  V30 117 1 44 118
M  V30 118 1 44 119
M  V30 119 1 44 120
M  V30 120 1 45 121
M  V30 121 1 45 122
M  V30 122 1 45 123
M  V30 END BOND
M  V30 BEGIN COLLECTION
M  V30 MDLV30/STEABS ATOMS=(1 4)
M  V30 END COLLECTION
M  V30 END CTAB
M  END
>  <Structure No>
3080

>  <LogS>
-7.992627599

>  <MMFF94 Energy>
1.1862

$$$$
Compound 3081
Actelion Java MolfileCreator 2.0

  0  0  0  0  0  0              0 V3000
M  V30 BEGIN CTAB
M  V30 COUNTS 55 54 0 0 0
M  V30 BEGIN ATOM
M  V30 1 O 9.1128 1.2531 -0.9397 0
M  V30 2 C 8.1804 1.1576 -0.0986 0
M  V30 3 O 8.4655 1.2447 1.2581 0 CHG=-1
M  V30 4 C 6.7752 0.9134 -0.5558 0
M  V30 5 C 6.546 -0.5544 -0.9507 0
M  V30 6 C 6.7219 -1.5573 0.2057 0
M  V30 7 C 5.7018 -1.4131 1.3515 0
M  V30 8 C 4.2502 -1.733 0.9353 0
M  V30 9 C 3.401 -0.4659 0.7545 0
M  V30 10 C 1.9686 -0.8181 0.3361 0
M  V30 11 C 1.12 0.4467 0.1581 0
M  V30 12 C -0.3113 0.0953 -0.2649 0
M  V30 13 C -1.1622 1.3635 -0.4313 0
M  V30 14 C -2.5642 1.0681 -0.9873 0
M  V30 15 C -3.468 0.3574 0.0315 0
M  V30 16 C -4.8946 0.2064 -0.511 0
M  V30 17 C -5.7999 -0.4997 0.5091 0
M  V30 18 C -7.1935 -0.8318 -0.0544 0
M  V30 19 C -8.0365 0.3911 -0.4578 0
M  V30 20 C -8.3449 1.319 0.7169 0
M  V30 21 H 6.5733 1.5547 -1.4409 0
M  V30 22 H 6.0636 1.226 0.2355 0
M  V30 23 H 5.5336 -0.6637 -1.3919 0
M  V30 24 H 7.2654 -0.8209 -1.7559 0
M  V30 25 H 7.746 -1.4584 0.6252 0
M  V30 26 H 6.6514 -2.5871 -0.2076 0
M  V30 27 H 5.9982 -2.1402 2.1391 0
M  V30 28 H 5.7808 -0.4114 1.8248 0
M  V30 29 H 4.232 -2.3398 0.0034 0
M  V30 30 H 3.7828 -2.3509 1.7338 0
M  V30 31 H 3.3745 0.0961 1.7142 0
M  V30 32 H 3.8531 0.1874 -0.0194 0
M  V30 33 H 1.5061 -1.4649 1.1143 0
M  V30 34 H 1.9939 -1.3813 -0.6227 0
M  V30 35 H 1.092 1.0093 1.1175 0
M  V30 36 H 1.5849 1.0943 -0.6178 0
M  V30 37 H -0.7635 -0.5594 0.5101 0
M  V30 38 H -0.2828 -0.4603 -1.228 0
M  V30 39 H -1.2472 1.8933 0.5429 0
M  V30 40 H -0.65 2.0482 -1.1426 0
M  V30 41 H -2.4816 0.456 -1.9122 0
M  V30 42 H -3.0319 2.0379 -1.2666 0
M  V30 43 H -3.4959 0.9448 0.9757 0
M  V30 44 H -3.0594 -0.6515 0.2525 0
M  V30 45 H -4.8682 -0.3825 -1.4542 0
M  V30 46 H -5.3013 1.2165 -0.7315 0
M  V30 47 H -5.8928 0.1181 1.4275 0
M  V30 48 H -5.3227 -1.4585 0.809 0
M  V30 49 H -7.0755 -1.4893 -0.9432 0
M  V30 50 H -7.7529 -1.4169 0.7078 0
M  V30 51 H -9.0008 0.0233 -0.8708 0
M  V30 52 H -7.5359 0.9632 -1.2667 0
M  V30 53 H -7.4265 1.8438 1.0528 0
M  V30 54 H -9.0813 2.0863 0.3975 0
M  V30 55 H -8.7769 0.7448 1.5639 0
M  V30 END ATOM
M  V30 BEGIN BOND
M  V30 1 2 1 2
M  V30 2 1 2 3
M  V30 3 1 2 4
M  V30 4 1 4 5
M  V30 5 1 5 6
M  V30 6 1 6 7
M  V30 7 1 7 8
M  V30 8 1 8 9
M  V30 9 1 9 10
M  V30 10 1 10 11
M  V30 11 1 11 12
M  V30 12 1 12 13
M  V30 13 1 13 14
M  V30 14 1 14 15
M  V30 15 1 15 16
M  V30 16 1 16 17
M  V30 17 1 17 18
M  V30 18 1 18 19
M  V30 19 1 19 20
M  V30 20 1 4 21
M  V30 21 1 4 22
M  V30 22 1 5 23
M  V30 23 1 5 24
M  V30 24 1 6 25
M  V30 25 1 6 26
M  V30 26 1 7 27
M  V30 27 1 7 28
M  V30 28 1 8 29
M  V30 29 1 8 30
M  V30 30 1 9 31
M  V30 31 1 9 32
M  V30 32 1 10 33
M  V30 33 1 10 34
M  V30 34 1 11 35
M  V30 35 1 11 36
M  V30 36 1 12 37
M  V30 37 1 12 38
M  V30 38 1 13 39
M  V30 39 1 13 40
M  V30 40 1 14 41
M  V30 41 1 14 42
M  V30 42 1 15 43
M  V30 43 1 15 44
M  V30 44 1 16 45
M  V30 45 1 16 46
M  V30 46 1 17 47
M  V30 47 1 17 48
M  V30 48 1 18 49
M  V30 49 1 18 50
M  V30 50 1 19 51
M  V30 51 1 19 52
M  V30 52 1 20 53
M  V30 53 1 20 54
M  V30 54 1 20 55
M  V30 END BOND
M  V30 END CTAB
M  END
>  <Structure No>
3081

>  <LogS>
-5.273398705

>  <MMFF94 Energy>
-0.34773

$$$$
Compound 3082
Actelion Java MolfileCreator 2.0

  0  0  0  0  0  0              0 V3000
M  V30 BEGIN CTAB
M  V30 COUNTS 56 55 0 0 0
M  V30 BEGIN ATOM
M  V30 1 O -1.8735 -3.1241 0.156 0
M  V30 2 C -2.1196 -1.9968 0.669 0
M  V30 3 O -1.6051 -1.6566 1.9254 0
M  V30 4 C -2.9467 -0.9873 -0.0851 0 CFG=1
M  V30 5 C -0.7339 -2.4959 2.6831 0
M  V30 6 C -2.0949 -0.3362 -1.2034 0
M  V30 7 C -4.2183 -1.6626 -0.6496 0
M  V30 8 C 0.7362 -2.1844 2.3778 0
M  V30 9 C -1.0195 0.6333 -0.672 0
M  V30 10 C -5.3034 -0.6541 -1.0338 0
M  V30 11 C 1.1906 -2.7547 1.0242 0
M  V30 12 C -1.5699 1.9974 -0.2183 0
M  V30 13 C 2.7103 -2.626 0.8022 0
M  V30 14 C -1.9828 2.8884 -1.3902 0
M  V30 15 C 3.2043 -1.1815 0.6013 0
M  V30 16 C 2.7665 -0.5916 -0.7499 0
M  V30 17 C 3.3279 0.8162 -1.001 0
M  V30 18 C 2.7856 1.8585 -0.0052 0
M  V30 19 C 3.1006 3.299 -0.4374 0
M  V30 20 C 2.1148 3.8236 -1.4814 0
M  V30 21 H -3.2709 -0.2125 0.6405 0
M  V30 22 H -0.9652 -3.5716 2.5216 0
M  V30 23 H -0.9131 -2.2833 3.7581 0
M  V30 24 H -2.7352 0.1957 -1.9329 0
M  V30 25 H -1.5847 -1.1398 -1.781 0
M  V30 26 H -3.9639 -2.2867 -1.5346 0
M  V30 27 H -4.6521 -2.3353 0.1233 0
M  V30 28 H 0.8746 -1.0832 2.4004 0
M  V30 29 H 1.3601 -2.6273 3.1843 0
M  V30 30 H -0.2667 0.7998 -1.4718 0
M  V30 31 H -0.4828 0.1641 0.1787 0
M  V30 32 H -4.9801 -0.0199 -1.8843 0
M  V30 33 H -5.5565 -0.006 -0.1672 0
M  V30 34 H -6.2198 -1.2001 -1.3422 0
M  V30 35 H 0.6399 -2.2646 0.1977 0
M  V30 36 H 0.9367 -3.8362 0.9918 0
M  V30 37 H -2.4291 1.8731 0.4719 0
M  V30 38 H -0.7709 2.5237 0.3466 0
M  V30 39 H 2.9954 -3.2331 -0.0839 0
M  V30 40 H 3.2415 -3.0668 1.6738 0
M  V30 41 H -2.2464 3.8983 -1.0103 0
M  V30 42 H -1.1467 2.9925 -2.1147 0
M  V30 43 H -2.8709 2.4732 -1.9097 0
M  V30 44 H 4.3158 -1.1898 0.6373 0
M  V30 45 H 2.8547 -0.5456 1.439 0
M  V30 46 H 1.6626 -0.5501 -0.8165 0
M  V30 47 H 3.1241 -1.2562 -1.5646 0
M  V30 48 H 4.4387 0.7921 -0.9505 0
M  V30 49 H 3.047 1.1068 -2.0354 0
M  V30 50 H 3.2648 1.6891 0.9822 0
M  V30 51 H 1.6896 1.7366 0.1295 0
M  V30 52 H 4.1374 3.3663 -0.8327 0
M  V30 53 H 3.039 3.9597 0.4552 0
M  V30 54 H 2.3798 4.8698 -1.7439 0
M  V30 55 H 2.1476 3.2117 -2.4066 0
M  V30 56 H 1.0826 3.8165 -1.0728 0
M  V30 END ATOM
M  V30 BEGIN BOND
M  V30 1 2 1 2
M  V30 2 1 2 3
M  V30 3 1 2 4
M  V30 4 1 3 5
M  V30 5 1 4 6
M  V30 6 1 4 7
M  V30 7 1 5 8
M  V30 8 1 6 9
M  V30 9 1 7 10
M  V30 10 1 8 11
M  V30 11 1 9 12
M  V30 12 1 11 13
M  V30 13 1 12 14
M  V30 14 1 13 15
M  V30 15 1 15 16
M  V30 16 1 16 17
M  V30 17 1 17 18
M  V30 18 1 18 19
M  V30 19 1 19 20
M  V30 20 1 4 21
M  V30 21 1 5 22
M  V30 22 1 5 23
M  V30 23 1 6 24
M  V30 24 1 6 25
M  V30 25 1 7 26
M  V30 26 1 7 27
M  V30 27 1 8 28
M  V30 28 1 8 29
M  V30 29 1 9 30
M  V30 30 1 9 31
M  V30 31 1 10 32
M  V30 32 1 10 33
M  V30 33 1 10 34
M  V30 34 1 11 35
M  V30 35 1 11 36
M  V30 36 1 12 37
M  V30 37 1 12 38
M  V30 38 1 13 39
M  V30 39 1 13 40
M  V30 40 1 14 41
M  V30 41 1 14 42
M  V30 42 1 14 43
M  V30 43 1 15 44
M  V30 44 1 15 45
M  V30 45 1 16 46
M  V30 46 1 16 47
M  V30 47 1 17 48
M  V30 48 1 17 49
M  V30 49 1 18 50
M  V30 50 1 18 51
M  V30 51 1 19 52
M  V30 52 1 19 53
M  V30 53 1 20 54
M  V30 54 1 20 55
M  V30 55 1 20 56
M  V30 END BOND
M  V30 BEGIN COLLECTION
M  V30 MDLV30/STEABS ATOMS=(1 4)
M  V30 END COLLECTION
M  V30 END CTAB
M  END
>  <Structure No>
3082

>  <LogS>
-8.193986458

>  <MMFF94 Energy>
-7.4546

$$$$
Compound 3083
Actelion Java MolfileCreator 2.0

  0  0  0  0  0  0              0 V3000
M  V30 BEGIN CTAB
M  V30 COUNTS 56 55 0 0 0
M  V30 BEGIN ATOM
M  V30 1 O 0.7821 -1.4864 -0.3127 0
M  V30 2 C 1.0221 -0.4822 0.4119 0
M  V30 3 O 0.0603 0.5187 0.591 0
M  V30 4 C 2.3679 -0.3337 1.0536 0
M  V30 5 C -1.2476 0.4593 0.0263 0
M  V30 6 C 3.4347 0.1721 0.0565 0 CFG=2
M  V30 7 C -2.1332 -0.5071 0.83 0
M  V30 8 C 4.8507 0.1555 0.7149 0
M  V30 9 C 3.0843 1.5858 -0.4454 0
M  V30 10 C -3.5504 -0.7193 0.2376 0 CFG=1
M  V30 11 C 5.9984 -0.4534 -0.1497 0
M  V30 12 C -4.3682 0.6074 0.2433 0
M  V30 13 C -3.4724 -1.3814 -1.1486 0
M  V30 14 C 6.1304 0.2713 -1.5051 0
M  V30 15 C 5.7681 -1.9629 -0.3857 0
M  V30 16 C 7.3258 -0.2841 0.621 0
M  V30 17 C -5.9139 0.5324 -0.0096 0
M  V30 18 C -6.236 0.4349 -1.5179 0
M  V30 19 C -6.546 1.8423 0.5155 0
M  V30 20 C -6.5696 -0.6483 0.7364 0
M  V30 21 H 2.2924 0.3623 1.9176 0
M  V30 22 H 2.6697 -1.3285 1.4492 0
M  V30 23 H -1.1818 0.1563 -1.0402 0
M  V30 24 H -1.6802 1.4798 0.0681 0
M  V30 25 H 3.4098 -0.5049 -0.8207 0
M  V30 26 H -1.6261 -1.4935 0.9028 0
M  V30 27 H -2.2233 -0.1243 1.8703 0
M  V30 28 H 4.8178 -0.411 1.6727 0
M  V30 29 H 5.1319 1.1906 1.0142 0
M  V30 30 H 2.9794 2.2895 0.408 0
M  V30 31 H 2.1325 1.5723 -1.017 0
M  V30 32 H 3.874 1.9684 -1.1234 0
M  V30 33 H -4.0399 -1.4417 0.9243 0
M  V30 34 H -3.9229 1.3172 -0.487 0
M  V30 35 H -4.2115 1.0672 1.245 0
M  V30 36 H -2.6245 -2.0977 -1.1986 0
M  V30 37 H -3.3398 -0.6228 -1.9489 0
M  V30 38 H -4.3882 -1.9739 -1.3431 0
M  V30 39 H 5.232 0.1161 -2.1377 0
M  V30 40 H 7.0056 -0.1158 -2.0703 0
M  V30 41 H 6.2735 1.3625 -1.3512 0
M  V30 42 H 5.6209 -2.4919 0.5805 0
M  V30 43 H 6.6449 -2.4151 -0.8975 0
M  V30 44 H 4.8823 -2.1514 -1.0251 0
M  V30 45 H 7.5411 0.7911 0.8029 0
M  V30 46 H 8.1756 -0.7127 0.0467 0
M  V30 47 H 7.2781 -0.8005 1.6043 0
M  V30 48 H -5.7133 1.2344 -2.0859 0
M  V30 49 H -7.3281 0.5495 -1.6914 0
M  V30 50 H -5.9508 -0.5433 -1.9439 0
M  V30 51 H -7.6418 1.8612 0.3284 0
M  V30 52 H -6.0934 2.7242 0.012 0
M  V30 53 H -6.3874 1.9468 1.6109 0
M  V30 54 H -7.6773 -0.5926 0.6615 0
M  V30 55 H -6.2601 -1.6208 0.2998 0
M  V30 56 H -6.2917 -0.6319 1.8123 0
M  V30 END ATOM
M  V30 BEGIN BOND
M  V30 1 2 1 2
M  V30 2 1 2 3
M  V30 3 1 2 4
M  V30 4 1 3 5
M  V30 5 1 4 6
M  V30 6 1 5 7
M  V30 7 1 6 8
M  V30 8 1 6 9
M  V30 9 1 7 10
M  V30 10 1 8 11
M  V30 11 1 10 12
M  V30 12 1 10 13
M  V30 13 1 11 14
M  V30 14 1 11 15
M  V30 15 1 11 16
M  V30 16 1 12 17
M  V30 17 1 17 18
M  V30 18 1 17 19
M  V30 19 1 17 20
M  V30 20 1 4 21
M  V30 21 1 4 22
M  V30 22 1 5 23
M  V30 23 1 5 24
M  V30 24 1 6 25
M  V30 25 1 7 26
M  V30 26 1 7 27
M  V30 27 1 8 28
M  V30 28 1 8 29
M  V30 29 1 9 30
M  V30 30 1 9 31
M  V30 31 1 9 32
M  V30 32 1 10 33
M  V30 33 1 12 34
M  V30 34 1 12 35
M  V30 35 1 13 36
M  V30 36 1 13 37
M  V30 37 1 13 38
M  V30 38 1 14 39
M  V30 39 1 14 40
M  V30 40 1 14 41
M  V30 41 1 15 42
M  V30 42 1 15 43
M  V30 43 1 15 44
M  V30 44 1 16 45
M  V30 45 1 16 46
M  V30 46 1 16 47
M  V30 47 1 18 48
M  V30 48 1 18 49
M  V30 49 1 18 50
M  V30 50 1 19 51
M  V30 51 1 19 52
M  V30 52 1 19 53
M  V30 53 1 20 54
M  V30 54 1 20 55
M  V30 55 1 20 56
M  V30 END BOND
M  V30 BEGIN COLLECTION
M  V30 MDLV30/STEABS ATOMS=(2 6 10)
M  V30 END COLLECTION
M  V30 END CTAB
M  END
>  <Structure No>
3083

>  <LogS>
-8.277966587

>  <MMFF94 Energy>
34.243

$$$$
Compound 3084
Actelion Java MolfileCreator 2.0

  0  0  0  0  0  0              0 V3000
M  V30 BEGIN CTAB
M  V30 COUNTS 98 97 0 0 0
M  V30 BEGIN ATOM
M  V30 1 O -1.2512 0.3908 -0.469 0
M  V30 2 C -1.0683 -0.6356 0.2423 0
M  V30 3 O -1.6864 -1.8437 -0.0886 0
M  V30 4 C -0.1213 -0.6047 1.4063 0
M  V30 5 C -2.5466 -1.9839 -1.2148 0
M  V30 6 C 0.1605 0.8229 1.9052 0
M  V30 7 C -3.0077 -3.4379 -1.3511 0
M  V30 8 C 1.0855 0.8541 3.1335 0
M  V30 9 C -3.7136 -3.9883 -0.0961 0
M  V30 10 C 2.5112 0.3173 2.894 0
M  V30 11 C -4.9851 -3.2249 0.3164 0
M  V30 12 C 3.3329 1.1379 1.8755 0
M  V30 13 C -6.0715 -3.2447 -0.772 0
M  V30 14 C 3.3848 0.4742 0.4878 0
M  V30 15 C -7.4312 -2.7242 -0.2729 0
M  V30 16 C 4.291 1.243 -0.4982 0
M  V30 17 C -7.4214 -1.279 0.26 0
M  V30 18 C 5.6049 0.5071 -0.819 0
M  V30 19 C -7.017 -0.248 -0.808 0
M  V30 20 C 6.5896 0.4218 0.3622 0
M  V30 21 C -7.0333 1.2 -0.2844 0
M  V30 22 C 7.1427 1.7767 0.8479 0
M  V30 23 C -8.4113 1.7173 0.1671 0
M  V30 24 C 7.8358 2.6321 -0.2312 0
M  V30 25 C -9.4675 1.6644 -0.9508 0
M  V30 26 C 8.9844 1.9332 -0.9807 0
M  V30 27 C -10.7456 2.4399 -0.595 0
M  V30 28 C 10.1569 1.5553 -0.0593 0
M  V30 29 C -11.5422 1.7753 0.5385 0
M  V30 30 C 11.3761 1.0281 -0.8478 0
M  V30 31 C -12.8742 2.4854 0.761 0
M  V30 32 C 11.5527 -0.5007 -0.7729 0
M  V30 33 C 10.4282 -1.3139 -1.4329 0
M  V30 34 C 10.3641 -1.1252 -2.9476 0
M  V30 35 H -0.5591 -1.2016 2.2351 0
M  V30 36 H 0.8185 -1.0976 1.0864 0
M  V30 37 H -1.9954 -1.6984 -2.1374 0
M  V30 38 H -3.4207 -1.3059 -1.114 0
M  V30 39 H 0.5911 1.4462 1.0945 0
M  V30 40 H -0.8062 1.291 2.1952 0
M  V30 41 H -3.6705 -3.5326 -2.2369 0
M  V30 42 H -2.1157 -4.0701 -1.5522 0
M  V30 43 H 0.616 0.2627 3.9495 0
M  V30 44 H 1.155 1.9017 3.4982 0
M  V30 45 H -3.0004 -3.975 0.7568 0
M  V30 46 H -3.9776 -5.0527 -0.2787 0
M  V30 47 H 2.4851 -0.76 2.6258 0
M  V30 48 H 3.0386 0.364 3.8721 0
M  V30 49 H -4.7212 -2.1805 0.5806 0
M  V30 50 H -5.3866 -3.7046 1.2355 0
M  V30 51 H 4.3686 1.2286 2.2626 0
M  V30 52 H 2.9307 2.1706 1.7862 0
M  V30 53 H -6.2162 -4.2911 -1.1172 0
M  V30 54 H -5.7485 -2.6546 -1.6533 0
M  V30 55 H 2.3625 0.4411 0.0618 0
M  V30 56 H 3.7198 -0.5811 0.5882 0
M  V30 57 H -8.1638 -2.7939 -1.1069 0
M  V30 58 H -7.7967 -3.3957 0.5344 0
M  V30 59 H 4.4963 2.2765 -0.1486 0
M  V30 60 H 3.7391 1.3547 -1.4569 0
M  V30 61 H -8.4518 -1.0594 0.6093 0
M  V30 62 H -6.7528 -1.1988 1.1427 0
M  V30 63 H 6.0954 1.0006 -1.684 0
M  V30 64 H 5.3657 -0.5262 -1.1537 0
M  V30 65 H -5.9781 -0.456 -1.139 0
M  V30 66 H -7.6709 -0.3421 -1.7003 0
M  V30 67 H 6.0985 -0.0899 1.2165 0
M  V30 68 H 7.4364 -0.2312 0.0694 0
M  V30 69 H -6.6479 1.868 -1.0861 0
M  V30 70 H -6.3261 1.282 0.5692 0
M  V30 71 H 6.3183 2.3737 1.2904 0
M  V30 72 H 7.8571 1.5881 1.6769 0
M  V30 73 H -8.7557 1.1446 1.0527 0
M  V30 74 H -8.2825 2.7722 0.4941 0
M  V30 75 H 7.08 2.9746 -0.9695 0
M  V30 76 H 8.2321 3.5514 0.2524 0
M  V30 77 H -9.7341 0.6087 -1.1738 0
M  V30 78 H -9.0401 2.1126 -1.8749 0
M  V30 79 H 9.353 2.6398 -1.7558 0
M  V30 80 H 8.6028 1.0419 -1.5158 0
M  V30 81 H -11.3835 2.4842 -1.5058 0
M  V30 82 H -10.4865 3.4853 -0.3129 0
M  V30 83 H 9.8299 0.8057 0.6918 0
M  V30 84 H 10.4676 2.4651 0.4998 0
M  V30 85 H -11.74 0.7094 0.2882 0
M  V30 86 H -10.9615 1.816 1.4856 0
M  V30 87 H 12.2902 1.4796 -0.4028 0
M  V30 88 H 11.3591 1.3666 -1.906 0
M  V30 89 H -13.4946 2.4412 -0.1595 0
M  V30 90 H -13.4282 1.9885 1.5848 0
M  V30 91 H -12.7046 3.5479 1.0377 0
M  V30 92 H 11.6288 -0.8017 0.2956 0
M  V30 93 H 12.52 -0.771 -1.2519 0
M  V30 94 H 9.4483 -1.0668 -0.9783 0
M  V30 95 H 10.6141 -2.3904 -1.227 0
M  V30 96 H 11.3454 -1.3594 -3.4084 0
M  V30 97 H 10.072 -0.0873 -3.2078 0
M  V30 98 H 9.6027 -1.8126 -3.3711 0
M  V30 END ATOM
M  V30 BEGIN BOND
M  V30 1 2 1 2
M  V30 2 1 2 3
M  V30 3 1 2 4
M  V30 4 1 3 5
M  V30 5 1 4 6
M  V30 6 1 5 7
M  V30 7 1 6 8
M  V30 8 1 7 9
M  V30 9 1 8 10
M  V30 10 1 9 11
M  V30 11 1 10 12
M  V30 12 1 11 13
M  V30 13 1 12 14
M  V30 14 1 13 15
M  V30 15 1 14 16
M  V30 16 1 15 17
M  V30 17 1 16 18
M  V30 18 1 17 19
M  V30 19 1 18 20
M  V30 20 1 19 21
M  V30 21 1 20 22
M  V30 22 1 21 23
M  V30 23 1 22 24
M  V30 24 1 23 25
M  V30 25 1 24 26
M  V30 26 1 25 27
M  V30 27 1 26 28
M  V30 28 1 27 29
M  V30 29 1 28 30
M  V30 30 1 29 31
M  V30 31 1 30 32
M  V30 32 1 32 33
M  V30 33 1 33 34
M  V30 34 1 4 35
M  V30 35 1 4 36
M  V30 36 1 5 37
M  V30 37 1 5 38
M  V30 38 1 6 39
M  V30 39 1 6 40
M  V30 40 1 7 41
M  V30 41 1 7 42
M  V30 42 1 8 43
M  V30 43 1 8 44
M  V30 44 1 9 45
M  V30 45 1 9 46
M  V30 46 1 10 47
M  V30 47 1 10 48
M  V30 48 1 11 49
M  V30 49 1 11 50
M  V30 50 1 12 51
M  V30 51 1 12 52
M  V30 52 1 13 53
M  V30 53 1 13 54
M  V30 54 1 14 55
M  V30 55 1 14 56
M  V30 56 1 15 57
M  V30 57 1 15 58
M  V30 58 1 16 59
M  V30 59 1 16 60
M  V30 60 1 17 61
M  V30 61 1 17 62
M  V30 62 1 18 63
M  V30 63 1 18 64
M  V30 64 1 19 65
M  V30 65 1 19 66
M  V30 66 1 20 67
M  V30 67 1 20 68
M  V30 68 1 21 69
M  V30 69 1 21 70
M  V30 70 1 22 71
M  V30 71 1 22 72
M  V30 72 1 23 73
M  V30 73 1 23 74
M  V30 74 1 24 75
M  V30 75 1 24 76
M  V30 76 1 25 77
M  V30 77 1 25 78
M  V30 78 1 26 79
M  V30 79 1 26 80
M  V30 80 1 27 81
M  V30 81 1 27 82
M  V30 82 1 28 83
M  V30 83 1 28 84
M  V30 84 1 29 85
M  V30 85 1 29 86
M  V30 86 1 30 87
M  V30 87 1 30 88
M  V30 88 1 31 89
M  V30 89 1 31 90
M  V30 90 1 31 91
M  V30 91 1 32 92
M  V30 92 1 32 93
M  V30 93 1 33 94
M  V30 94 1 33 95
M  V30 95 1 34 96
M  V30 96 1 34 97
M  V30 97 1 34 98
M  V30 END BOND
M  V30 END CTAB
M  END
>  <Structure No>
3084

>  <LogS>
-8.983050454

>  <MMFF94 Energy>
-11.861

$$$$
Compound 3085
Actelion Java MolfileCreator 2.0

  0  0  0  0  0  0              0 V3000
M  V30 BEGIN CTAB
M  V30 COUNTS 40 40 0 0 0
M  V30 BEGIN ATOM
M  V30 1 O -3.6177 -1.493 -1.9648 0
M  V30 2 C -3.4945 -0.8826 -0.8677 0
M  V30 3 C -4.6902 -0.2419 -0.2643 0
M  V30 4 C -2.162 -0.7815 -0.2235 0
M  V30 5 C -5.7805 0.117 -1.0795 0
M  V30 6 C -4.7735 -0.0051 1.1223 0
M  V30 7 C -1.0983 -1.5196 -0.581 0
M  V30 8 C -6.9158 0.7154 -0.5243 0
M  V30 9 C -5.9121 0.5927 1.6717 0
M  V30 10 O -1.1951 -2.4601 -1.6064 0
M  V30 11 C 0.2269 -1.3198 0.1063 0
M  V30 12 C -6.9806 0.9552 0.8494 0
M  V30 13 C 1.0436 -0.2376 -0.6068 0
M  V30 14 C 2.4017 -0.0326 0.0745 0
M  V30 15 C 3.2221 1.0455 -0.6488 0
M  V30 16 C 4.5357 1.3763 0.0767 0
M  V30 17 C 5.5692 0.2453 -0.0264 0
M  V30 18 C 6.9025 0.6622 0.5876 0
M  V30 19 H -2.0381 -0.0549 0.5701 0
M  V30 20 H -5.7509 -0.0547 -2.1484 0
M  V30 21 H -3.9741 -0.3001 1.7886 0
M  V30 22 H -7.7461 0.9935 -1.1605 0
M  V30 23 H -5.9683 0.7694 2.7382 0
M  V30 24 H -0.3942 -3.0077 -1.8971 0
M  V30 25 H 0.0711 -1.0372 1.1714 0
M  V30 26 H 0.7894 -2.2783 0.0972 0
M  V30 27 H -7.8609 1.4172 1.2774 0
M  V30 28 H 1.2045 -0.5373 -1.6662 0
M  V30 29 H 0.476 0.7192 -0.5926 0
M  V30 30 H 2.9565 -0.9948 0.0642 0
M  V30 31 H 2.2388 0.273 1.1314 0
M  V30 32 H 2.6184 1.9778 -0.7049 0
M  V30 33 H 3.4383 0.7218 -1.6907 0
M  V30 34 H 4.9607 2.2936 -0.3868 0
M  V30 35 H 4.329 1.6046 1.1455 0
M  V30 36 H 5.7334 -0.0194 -1.0935 0
M  V30 37 H 5.204 -0.6555 0.5098 0
M  V30 38 H 6.7697 0.9171 1.6607 0
M  V30 39 H 7.6265 -0.1757 0.5084 0
M  V30 40 H 7.3175 1.5413 0.0501 0
M  V30 END ATOM
M  V30 BEGIN BOND
M  V30 1 2 1 2
M  V30 2 1 2 3
M  V30 3 1 2 4
M  V30 4 2 3 5
M  V30 5 1 3 6
M  V30 6 2 4 7
M  V30 7 1 5 8
M  V30 8 2 6 9
M  V30 9 1 7 10
M  V30 10 1 7 11
M  V30 11 2 8 12
M  V30 12 1 11 13
M  V30 13 1 13 14
M  V30 14 1 14 15
M  V30 15 1 15 16
M  V30 16 1 16 17
M  V30 17 1 17 18
M  V30 18 1 9 12
M  V30 19 1 4 19
M  V30 20 1 5 20
M  V30 21 1 6 21
M  V30 22 1 8 22
M  V30 23 1 9 23
M  V30 24 1 10 24
M  V30 25 1 11 25
M  V30 26 1 11 26
M  V30 27 1 12 27
M  V30 28 1 13 28
M  V30 29 1 13 29
M  V30 30 1 14 30
M  V30 31 1 14 31
M  V30 32 1 15 32
M  V30 33 1 15 33
M  V30 34 1 16 34
M  V30 35 1 16 35
M  V30 36 1 17 36
M  V30 37 1 17 37
M  V30 38 1 18 38
M  V30 39 1 18 39
M  V30 40 1 18 40
M  V30 END BOND
M  V30 END CTAB
M  END
>  <Structure No>
3085

>  <LogS>
-5.883696695

>  <MMFF94 Energy>
38.391

$$$$
Compound 3086
Actelion Java MolfileCreator 2.0

  0  0  0  0  0  0              0 V3000
M  V30 BEGIN CTAB
M  V30 COUNTS 34 37 0 0 0
M  V30 BEGIN ATOM
M  V30 1 Cl -7.2028 0.5194 1.6456 0
M  V30 2 C -5.5789 0.3814 0.9973 0
M  V30 3 C -5.3836 -0.0964 -0.3077 0
M  V30 4 C -4.4808 0.7509 1.783 0
M  V30 5 C -4.0853 -0.2157 -0.8409 0
M  V30 6 C -3.1949 0.6403 1.2544 0
M  V30 7 C -2.9926 0.1655 -0.033 0
M  V30 8 C -3.8942 -0.7422 -2.2358 0
M  V30 9 S -1.7145 1.1166 2.1476 0
M  V30 10 C -1.5734 0.108 -0.3659 0
M  V30 11 C -0.7275 0.4571 0.7865 0
M  V30 12 O -1.143 -0.1048 -1.5291 0
M  V30 13 C 0.6065 0.284 0.9006 0
M  V30 14 S 1.5291 0.9475 2.3043 0
M  V30 15 C 1.5016 -0.3784 -0.0612 0
M  V30 16 C 3.0506 0.5781 1.4303 0
M  V30 17 O 1.1196 -1.1579 -0.9723 0
M  V30 18 C 2.9059 -0.1296 0.246 0
M  V30 19 C 4.3132 0.9436 1.8965 0
M  V30 20 C 4.0352 -0.4992 -0.5154 0
M  V30 21 C 5.4469 0.584 1.1583 0
M  V30 22 C 5.31 -0.1353 -0.0391 0
M  V30 23 C 3.9066 -1.2579 -1.8067 0
M  V30 24 Cl 7.0423 1.0315 1.7337 0
M  V30 25 H -6.2451 -0.3776 -0.901 0
M  V30 26 H -4.6262 1.1257 2.7881 0
M  V30 27 H -3.4455 0.0461 -2.8755 0
M  V30 28 H -3.2281 -1.6301 -2.2154 0
M  V30 29 H -4.8594 -1.0494 -2.6918 0
M  V30 30 H 4.4136 1.4933 2.8236 0
M  V30 31 H 6.1983 -0.405 -0.597 0
M  V30 32 H 3.4684 -2.2587 -1.6109 0
M  V30 33 H 4.8938 -1.4024 -2.2948 0
M  V30 34 H 3.2564 -0.697 -2.5103 0
M  V30 END ATOM
M  V30 BEGIN BOND
M  V30 1 1 1 2
M  V30 2 2 2 3
M  V30 3 1 2 4
M  V30 4 1 3 5
M  V30 5 2 4 6
M  V30 6 2 5 7
M  V30 7 1 5 8
M  V30 8 1 6 9
M  V30 9 1 7 10
M  V30 10 1 9 11
M  V30 11 2 10 12
M  V30 12 2 11 13
M  V30 13 1 13 14
M  V30 14 1 13 15
M  V30 15 1 14 16
M  V30 16 2 15 17
M  V30 17 1 15 18
M  V30 18 1 16 19
M  V30 19 1 18 20
M  V30 20 2 19 21
M  V30 21 2 20 22
M  V30 22 1 20 23
M  V30 23 1 21 24
M  V30 24 1 6 7
M  V30 25 1 10 11
M  V30 26 2 16 18
M  V30 27 1 21 22
M  V30 28 1 3 25
M  V30 29 1 4 26
M  V30 30 1 8 27
M  V30 31 1 8 28
M  V30 32 1 8 29
M  V30 33 1 19 30
M  V30 34 1 22 31
M  V30 35 1 23 32
M  V30 36 1 23 33
M  V30 37 1 23 34
M  V30 END BOND
M  V30 END CTAB
M  END
>  <Structure No>
3086

>  <LogS>
-7.931983782

>  <MMFF94 Energy>
70.706

$$$$
Compound 3087
Actelion Java MolfileCreator 2.0

  0  0  0  0  0  0              0 V3000
M  V30 BEGIN CTAB
M  V30 COUNTS 37 39 0 0 0
M  V30 BEGIN ATOM
M  V30 1 O 2.1061 -3.5661 -0.8096 0
M  V30 2 N 1.6876 -2.4602 -1.21 0 CHG=1
M  V30 3 O 0.8228 -2.424 -2.2796 0 CHG=-1
M  V30 4 C 2.2793 -1.2451 -0.724 0
M  V30 5 C 1.52 -0.0581 -0.582 0
M  V30 6 C 3.6583 -1.2143 -0.4518 0
M  V30 7 N 0.0923 -0.041 -0.7214 0
M  V30 8 C 2.1693 1.136 -0.2397 0
M  V30 9 C 4.2963 -0.0249 -0.0863 0
M  V30 10 N -0.6883 -1.1438 -0.3349 0
M  V30 11 C 3.5424 1.1567 0.0084 0
M  V30 12 O 5.6761 -0.0587 0.1642 0
M  V30 13 C -1.9451 -1.1014 0.0131 0
M  V30 14 C 6.4531 1.0732 0.5411 0
M  V30 15 C -2.6944 -2.3693 0.0476 0
M  V30 16 C -2.7199 0.1541 0.255 0
M  V30 17 O -2.0885 -3.4727 0.106 0
M  V30 18 C -4.1604 -2.343 -0.0689 0
M  V30 19 C -4.131 0.1069 0.1397 0
M  V30 20 C -2.122 1.3393 0.7292 0
M  V30 21 C -4.8255 -1.1837 -0.0806 0
M  V30 22 C -4.8889 1.2717 0.3318 0
M  V30 23 C -2.8888 2.4903 0.9273 0
M  V30 24 C -4.2655 2.4631 0.7052 0
M  V30 25 H 4.2499 -2.1154 -0.5557 0
M  V30 26 H -0.3604 0.8202 -1.1014 0
M  V30 27 H 1.5999 2.0513 -0.1339 0
M  V30 28 H 4.0052 2.0943 0.2838 0
M  V30 29 H 7.5084 0.7599 0.676 0
M  V30 30 H 6.4107 1.8472 -0.2537 0
M  V30 31 H 6.0804 1.4898 1.5008 0
M  V30 32 H -4.7052 -3.2733 -0.1702 0
M  V30 33 H -1.0727 1.3771 0.9847 0
M  V30 34 H -5.904 -1.2008 -0.1834 0
M  V30 35 H -5.9668 1.2499 0.2268 0
M  V30 36 H -2.4162 3.4014 1.2716 0
M  V30 37 H -4.8563 3.3559 0.8645 0
M  V30 END ATOM
M  V30 BEGIN BOND
M  V30 1 2 1 2
M  V30 2 1 2 3
M  V30 3 1 2 4
M  V30 4 2 4 5
M  V30 5 1 4 6
M  V30 6 1 5 7
M  V30 7 1 5 8
M  V30 8 2 6 9
M  V30 9 1 7 10
M  V30 10 2 8 11
M  V30 11 1 9 12
M  V30 12 2 10 13
M  V30 13 1 12 14
M  V30 14 1 13 15
M  V30 15 1 13 16
M  V30 16 2 15 17
M  V30 17 1 15 18
M  V30 18 2 16 19
M  V30 19 1 16 20
M  V30 20 2 18 21
M  V30 21 1 19 22
M  V30 22 2 20 23
M  V30 23 2 22 24
M  V30 24 1 9 11
M  V30 25 1 19 21
M  V30 26 1 23 24
M  V30 27 1 6 25
M  V30 28 1 7 26
M  V30 29 1 8 27
M  V30 30 1 11 28
M  V30 31 1 14 29
M  V30 32 1 14 30
M  V30 33 1 14 31
M  V30 34 1 18 32
M  V30 35 1 20 33
M  V30 36 1 21 34
M  V30 37 1 22 35
M  V30 38 1 23 36
M  V30 39 1 24 37
M  V30 END BOND
M  V30 END CTAB
M  END
>  <Structure No>
3087

>  <LogS>
-7.991102511

>  <MMFF94 Energy>
149.07

$$$$
Compound 3088
Actelion Java MolfileCreator 2.0

  0  0  0  0  0  0              0 V3000
M  V30 BEGIN CTAB
M  V30 COUNTS 71 74 0 0 0
M  V30 BEGIN ATOM
M  V30 1 O -2.2397 1.0394 1.4394 0
M  V30 2 C -2.1273 -0.3384 1.2394 0
M  V30 3 C -3.0421 -0.9864 0.3586 0
M  V30 4 C -1.1208 -1.0804 1.9086 0
M  V30 5 C -2.937 -2.3915 0.2169 0
M  V30 6 C -4.0787 -0.1592 -0.4586 0
M  V30 7 C -1.0898 -2.4742 1.7685 0
M  V30 8 C -0.0149 -0.4101 2.7049 0
M  V30 9 C -1.9979 -3.1317 0.9408 0
M  V30 10 C -4.9792 0.6964 0.5101 0
M  V30 11 C -3.294 0.7407 -1.4659 0
M  V30 12 C -5.0304 -1.0661 -1.2924 0
M  V30 13 C 0.95 0.3284 1.7959 0
M  V30 14 C -1.8896 -4.6172 0.7465 0
M  V30 15 C -5.0108 2.1953 0.169 0
M  V30 16 C -4.1808 1.7571 -2.2111 0
M  V30 17 C 1.7718 -0.3741 0.884 0
M  V30 18 C 0.9845 1.7252 1.8304 0
M  V30 19 C -5.2614 2.4104 -1.3246 0
M  V30 20 O 1.6375 -1.7631 0.8699 0
M  V30 21 C 2.669 0.3338 0.0149 0
M  V30 22 C 1.7561 2.4357 0.9147 0
M  V30 23 C 2.549 1.7466 -0.0048 0
M  V30 24 C 3.7113 -0.373 -0.914 0
M  V30 25 C 1.7162 3.9367 0.8864 0
M  V30 26 C 4.8277 0.5853 -1.461 0
M  V30 27 C 4.4883 -1.5183 -0.1834 0
M  V30 28 C 2.9734 -0.9273 -2.154 0
M  V30 29 C 5.7448 1.1405 -0.3542 0
M  V30 30 C 5.3581 -0.9797 0.9638 0
M  V30 31 C 6.4041 0.0059 0.4348 0
M  V30 32 H -1.7596 1.5428 2.1686 0
M  V30 33 H -3.5793 -2.9411 -0.4534 0
M  V30 34 H -0.3308 -3.0535 2.2816 0
M  V30 35 H -0.4577 0.2628 3.469 0
M  V30 36 H 0.5621 -1.1608 3.2875 0
M  V30 37 H -6.032 0.3304 0.5058 0
M  V30 38 H -4.6699 0.5868 1.5713 0
M  V30 39 H -2.5012 1.3166 -0.947 0
M  V30 40 H -2.7661 0.1063 -2.2111 0
M  V30 41 H -5.8119 -0.4673 -1.8049 0
M  V30 42 H -4.4749 -1.6222 -2.0789 0
M  V30 43 H -5.5602 -1.7893 -0.6345 0
M  V30 44 H -2.8619 -5.0488 0.43 0
M  V30 45 H -1.1295 -4.8307 -0.0334 0
M  V30 46 H -1.5885 -5.111 1.6947 0
M  V30 47 H -4.0511 2.6761 0.459 0
M  V30 48 H -5.8205 2.6864 0.7512 0
M  V30 49 H -3.5242 2.5499 -2.633 0
M  V30 50 H -4.671 1.2576 -3.075 0
M  V30 51 H 0.3828 2.2664 2.5503 0
M  V30 52 H -5.3002 3.5019 -1.5327 0
M  V30 53 H -6.2578 1.9914 -1.5855 0
M  V30 54 H 1.7351 -2.3337 0.048 0
M  V30 55 H 3.0922 2.3527 -0.7092 0
M  V30 56 H 2.75 4.3394 0.8949 0
M  V30 57 H 1.1777 4.3495 1.7666 0
M  V30 58 H 1.2002 4.2769 -0.0352 0
M  V30 59 H 5.4767 0.0248 -2.1714 0
M  V30 60 H 4.4109 1.4112 -2.0731 0
M  V30 61 H 5.1554 -2.034 -0.911 0
M  V30 62 H 3.8495 -2.3201 0.213 0
M  V30 63 H 2.4555 -0.1026 -2.6873 0
M  V30 64 H 3.6851 -1.4024 -2.8622 0
M  V30 65 H 2.2182 -1.6896 -1.9033 0
M  V30 66 H 6.5382 1.7631 -0.8213 0
M  V30 67 H 5.182 1.793 0.3444 0
M  V30 68 H 4.7211 -0.4815 1.7277 0
M  V30 69 H 5.8791 -1.8286 1.4577 0
M  V30 70 H 7.1232 -0.5335 -0.221 0
M  V30 71 H 6.9732 0.4352 1.2889 0
M  V30 END ATOM
M  V30 BEGIN BOND
M  V30 1 1 1 2
M  V30 2 2 2 3
M  V30 3 1 2 4
M  V30 4 1 3 5
M  V30 5 1 3 6
M  V30 6 2 4 7
M  V30 7 1 4 8
M  V30 8 2 5 9
M  V30 9 1 6 10
M  V30 10 1 6 11
M  V30 11 1 6 12
M  V30 12 1 8 13
M  V30 13 1 9 14
M  V30 14 1 10 15
M  V30 15 1 11 16
M  V30 16 2 13 17
M  V30 17 1 13 18
M  V30 18 1 15 19
M  V30 19 1 17 20
M  V30 20 1 17 21
M  V30 21 2 18 22
M  V30 22 2 21 23
M  V30 23 1 21 24
M  V30 24 1 22 25
M  V30 25 1 24 26
M  V30 26 1 24 27
M  V30 27 1 24 28
M  V30 28 1 26 29
M  V30 29 1 27 30
M  V30 30 1 29 31
M  V30 31 1 7 9
M  V30 32 1 16 19
M  V30 33 1 22 23
M  V30 34 1 30 31
M  V30 35 1 1 32
M  V30 36 1 5 33
M  V30 37 1 7 34
M  V30 38 1 8 35
M  V30 39 1 8 36
M  V30 40 1 10 37
M  V30 41 1 10 38
M  V30 42 1 11 39
M  V30 43 1 11 40
M  V30 44 1 12 41
M  V30 45 1 12 42
M  V30 46 1 12 43
M  V30 47 1 14 44
M  V30 48 1 14 45
M  V30 49 1 14 46
M  V30 50 1 15 47
M  V30 51 1 15 48
M  V30 52 1 16 49
M  V30 53 1 16 50
M  V30 54 1 18 51
M  V30 55 1 19 52
M  V30 56 1 19 53
M  V30 57 1 20 54
M  V30 58 1 23 55
M  V30 59 1 25 56
M  V30 60 1 25 57
M  V30 61 1 25 58
M  V30 62 1 26 59
M  V30 63 1 26 60
M  V30 64 1 27 61
M  V30 65 1 27 62
M  V30 66 1 28 63
M  V30 67 1 28 64
M  V30 68 1 28 65
M  V30 69 1 29 66
M  V30 70 1 29 67
M  V30 71 1 30 68
M  V30 72 1 30 69
M  V30 73 1 31 70
M  V30 74 1 31 71
M  V30 END BOND
M  V30 END CTAB
M  END
>  <Structure No>
3088

>  <LogS>
-8.146786217

>  <MMFF94 Energy>
81.284

$$$$
Compound 3089
Actelion Java MolfileCreator 2.0

  0  0  0  0  0  0              0 V3000
M  V30 BEGIN CTAB
M  V30 COUNTS 32 34 0 0 0
M  V30 BEGIN ATOM
M  V30 1 O 6.3681 -0.3217 -0.3217 0
M  V30 2 C 5.121 -0.2098 -0.1772 0
M  V30 3 N 4.6024 0.0768 1.0464 0
M  V30 4 N 4.2967 -0.3752 -1.2453 0
M  V30 5 C 3.2606 0.1953 1.2347 0
M  V30 6 C 2.9488 -0.2515 -1.1149 0
M  V30 7 O 2.7861 0.4553 2.5223 0
M  V30 8 C 2.3864 0.0324 0.142 0
M  V30 9 O 2.2138 -0.3711 -2.1324 0
M  V30 10 N 0.9679 0.2022 0.2951 0
M  V30 11 N 0.0561 -0.6647 -0.332 0
M  V30 12 C -1.3571 -0.4261 -0.2755 0
M  V30 13 C -1.919 0.838 -0.6338 0
M  V30 14 C -2.2023 -1.4837 0.1175 0
M  V30 15 C -3.3122 1.0411 -0.5215 0
M  V30 16 C -1.0651 1.9702 -1.137 0
M  V30 17 C -3.5718 -1.2507 0.1989 0
M  V30 18 C -4.1113 -0.0199 -0.1056 0
M  V30 19 N -4.4625 -2.1127 0.5587 0
M  V30 20 N -5.3945 0.0118 0.0308 0
M  V30 21 C -5.6453 -1.3241 0.4586 0
M  V30 22 O -6.7951 -1.7631 0.7213 0
M  V30 23 H 5.2445 0.1985 1.8623 0
M  V30 24 H 4.7066 -0.5884 -2.1836 0
M  V30 25 H 1.802 0.4788 2.7552 0
M  V30 26 H 0.6081 0.9444 0.9354 0
M  V30 27 H 0.3892 -1.6001 -0.6588 0
M  V30 28 H -1.7945 -2.4542 0.3727 0
M  V30 29 H -3.7609 1.996 -0.7683 0
M  V30 30 H -1.6517 2.6407 -1.8008 0
M  V30 31 H -0.6891 2.5661 -0.2799 0
M  V30 32 H -0.209 1.5875 -1.7311 0
M  V30 END ATOM
M  V30 BEGIN BOND
M  V30 1 2 1 2
M  V30 2 1 2 3
M  V30 3 1 2 4
M  V30 4 1 3 5
M  V30 5 1 4 6
M  V30 6 1 5 7
M  V30 7 2 5 8
M  V30 8 2 6 9
M  V30 9 1 8 10
M  V30 10 1 10 11
M  V30 11 1 11 12
M  V30 12 1 12 13
M  V30 13 2 12 14
M  V30 14 2 13 15
M  V30 15 1 13 16
M  V30 16 1 14 17
M  V30 17 1 15 18
M  V30 18 2 17 19
M  V30 19 2 18 20
M  V30 20 1 19 21
M  V30 21 2 21 22
M  V30 22 1 6 8
M  V30 23 1 17 18
M  V30 24 1 20 21
M  V30 25 1 3 23
M  V30 26 1 4 24
M  V30 27 1 7 25
M  V30 28 1 10 26
M  V30 29 1 11 27
M  V30 30 1 14 28
M  V30 31 1 15 29
M  V30 32 1 16 30
M  V30 33 1 16 31
M  V30 34 1 16 32
M  V30 END BOND
M  V30 END CTAB
M  END
>  <Structure No>
3089

>  <LogS>
-6.489140234

>  <MMFF94 Energy>
-74.822

$$$$
Compound 3090
Actelion Java MolfileCreator 2.0

  0  0  0  0  0  0              0 V3000
M  V30 BEGIN CTAB
M  V30 COUNTS 60 63 0 0 0
M  V30 BEGIN ATOM
M  V30 1 F -2.5859 -2.2624 2.9095 0
M  V30 2 C -3.6209 -3.1482 2.6682 0
M  V30 3 F -4.0621 -3.612 3.8962 0
M  V30 4 F -3.1513 -4.2248 1.9411 0
M  V30 5 C -4.7361 -2.4641 1.9001 0
M  V30 6 C -4.4859 -1.6007 0.7929 0
M  V30 7 C -6.0735 -2.688 2.2908 0
M  V30 8 N -3.176 -1.3727 0.2521 0
M  V30 9 C -5.5567 -0.9255 0.1893 0
M  V30 10 C -7.127 -2.0337 1.6503 0
M  V30 11 N -2.2902 -2.2832 0.2053 0
M  V30 12 C -6.8686 -1.1439 0.6105 0
M  V30 13 C -0.9732 -2.0572 -0.3192 0
M  V30 14 C -0.3176 -0.814 -0.1774 0
M  V30 15 C -0.3105 -3.1077 -0.9982 0
M  V30 16 N 0.9038 -0.6455 -0.7403 0
M  V30 17 N -0.8471 0.2417 0.6473 0
M  V30 18 C 0.9783 -2.8847 -1.5404 0
M  V30 19 C -0.9568 -4.4721 -1.1152 0
M  V30 20 C 1.5661 -1.6141 -1.417 0
M  V30 21 C -0.2619 1.5561 0.676 0
M  V30 22 C 1.6963 -3.9536 -2.2003 0
M  V30 23 N 2.8494 -1.3103 -2.0035 0
M  V30 24 C 0.1572 2.1908 -0.5065 0
M  V30 25 C -0.0813 2.2101 1.9036 0
M  V30 26 N 2.2703 -4.8091 -2.7277 0
M  V30 27 C 3.5448 -0.0761 -1.749 0
M  V30 28 C 0.794 3.4341 -0.4552 0
M  V30 29 C 0.5541 3.4552 1.9549 0
M  V30 30 C 3.6013 0.4752 -0.456 0
M  V30 31 C 4.1917 0.5865 -2.8026 0
M  V30 32 C 0.9919 4.0764 0.7754 0
M  V30 33 C 4.2404 1.6985 -0.2357 0
M  V30 34 C 4.8375 1.8078 -2.5806 0
M  V30 35 C 1.7314 5.3807 0.8371 0
M  V30 36 C 4.846 2.3818 -1.3009 0
M  V30 37 C 5.5461 3.6855 -1.0515 0
M  V30 38 H -6.3115 -3.3671 3.0999 0
M  V30 39 H -5.3732 -0.2468 -0.6345 0
M  V30 40 H -8.1466 -2.2138 1.9655 0
M  V30 41 H -7.6881 -0.6333 0.12 0
M  V30 42 H -1.4811 -0.0145 1.4369 0
M  V30 43 H -0.7975 -4.8941 -2.13 0
M  V30 44 H -2.055 -4.4382 -0.9596 0
M  V30 45 H -0.5133 -5.1567 -0.3626 0
M  V30 46 H 3.2122 -1.9164 -2.7726 0
M  V30 47 H 0.0025 1.7198 -1.4688 0
M  V30 48 H -0.4002 1.7385 2.8243 0
M  V30 49 H 1.1377 3.8928 -1.3746 0
M  V30 50 H 0.7165 3.9291 2.9154 0
M  V30 51 H 3.1564 -0.0418 0.3857 0
M  V30 52 H 4.1727 0.1684 -3.8015 0
M  V30 53 H 4.2623 2.1148 0.7637 0
M  V30 54 H 5.3181 2.3109 -3.4096 0
M  V30 55 H 2.8149 5.1833 0.9794 0
M  V30 56 H 1.3606 6.0008 1.6819 0
M  V30 57 H 1.5894 5.9586 -0.1015 0
M  V30 58 H 4.9313 4.3254 -0.3825 0
M  V30 59 H 6.5284 3.4921 -0.5683 0
M  V30 60 H 5.7144 4.2411 -2.0004 0
M  V30 END ATOM
M  V30 BEGIN BOND
M  V30 1 1 1 2
M  V30 2 1 2 3
M  V30 3 1 2 4
M  V30 4 1 2 5
M  V30 5 2 5 6
M  V30 6 1 5 7
M  V30 7 1 6 8
M  V30 8 1 6 9
M  V30 9 2 7 10
M  V30 10 2 8 11
M  V30 11 2 9 12
M  V30 12 1 11 13
M  V30 13 2 13 14
M  V30 14 1 13 15
M  V30 15 1 14 16
M  V30 16 1 14 17
M  V30 17 2 15 18
M  V30 18 1 15 19
M  V30 19 2 16 20
M  V30 20 1 17 21
M  V30 21 1 18 22
M  V30 22 1 20 23
M  V30 23 2 21 24
M  V30 24 1 21 25
M  V30 25 3 22 26
M  V30 26 1 23 27
M  V30 27 1 24 28
M  V30 28 2 25 29
M  V30 29 2 27 30
M  V30 30 1 27 31
M  V30 31 2 28 32
M  V30 32 1 30 33
M  V30 33 2 31 34
M  V30 34 1 32 35
M  V30 35 2 33 36
M  V30 36 1 36 37
M  V30 37 1 10 12
M  V30 38 1 18 20
M  V30 39 1 29 32
M  V30 40 1 34 36
M  V30 41 1 7 38
M  V30 42 1 9 39
M  V30 43 1 10 40
M  V30 44 1 12 41
M  V30 45 1 17 42
M  V30 46 1 19 43
M  V30 47 1 19 44
M  V30 48 1 19 45
M  V30 49 1 23 46
M  V30 50 1 24 47
M  V30 51 1 25 48
M  V30 52 1 28 49
M  V30 53 1 29 50
M  V30 54 1 30 51
M  V30 55 1 31 52
M  V30 56 1 33 53
M  V30 57 1 34 54
M  V30 58 1 35 55
M  V30 59 1 35 56
M  V30 60 1 35 57
M  V30 61 1 37 58
M  V30 62 1 37 59
M  V30 63 1 37 60
M  V30 END BOND
M  V30 END CTAB
M  END
>  <Structure No>
3090

>  <LogS>
-7.717157144

>  <MMFF94 Energy>
76.823

$$$$
Compound 3091
Actelion Java MolfileCreator 2.0

  0  0  0  0  0  0              0 V3000
M  V30 BEGIN CTAB
M  V30 COUNTS 46 52 0 0 0
M  V30 BEGIN ATOM
M  V30 1 O 5.7173 1.5719 1.6547 0
M  V30 2 C 5.0782 0.6921 1.0137 0
M  V30 3 N 5.7837 -0.3759 0.3617 0
M  V30 4 C 3.5992 0.7608 0.9317 0
M  V30 5 C 5.0421 -1.2985 -0.4523 0
M  V30 6 C 7.2485 -0.4374 0.4092 0
M  V30 7 C 2.8769 -0.1833 0.1719 0
M  V30 8 C 2.9122 1.7725 1.6024 0
M  V30 9 O 5.649 -2.1876 -1.1112 0
M  V30 10 C 3.5639 -1.2025 -0.5208 0
M  V30 11 C 1.4512 -0.1041 0.0993 0
M  V30 12 C 1.5269 1.8472 1.552 0
M  V30 13 C 2.8412 -2.1323 -1.2679 0
M  V30 14 C 0.7607 0.9037 0.8273 0
M  V30 15 C 0.7308 -1.0325 -0.7013 0
M  V30 16 C 1.4579 -2.0551 -1.3555 0
M  V30 17 C -0.6637 0.9451 0.8008 0
M  V30 18 C -0.6851 -0.9183 -0.8159 0
M  V30 19 C -1.3801 0.0509 -0.0412 0
M  V30 20 C -1.4045 1.8487 1.5992 0
M  V30 21 C -1.437 -1.737 -1.6916 0
M  V30 22 C -2.8062 0.1275 -0.1106 0
M  V30 23 C -2.79 1.9063 1.5353 0
M  V30 24 C -2.8201 -1.6433 -1.7648 0
M  V30 25 C -3.5027 1.0643 0.682 0
M  V30 26 C -3.5184 -0.7296 -0.9757 0
M  V30 27 C -4.9817 1.153 0.6223 0
M  V30 28 C -4.9972 -0.6595 -1.0596 0
M  V30 29 O -5.5908 2.0244 1.3029 0
M  V30 30 N -5.7212 0.2487 -0.2139 0
M  V30 31 O -5.62 -1.3957 -1.8741 0
M  V30 32 C -7.1816 0.3502 -0.3097 0
M  V30 33 H 7.6026 -1.4859 0.3185 0
M  V30 34 H 7.6727 0.1656 -0.4204 0
M  V30 35 H 7.6286 -0.0475 1.3772 0
M  V30 36 H 3.4493 2.5184 2.1756 0
M  V30 37 H 1.0915 2.6792 2.0775 0
M  V30 38 H 3.3481 -2.9343 -1.7905 0
M  V30 39 H 0.989 -2.8354 -1.929 0
M  V30 40 H -0.9487 2.5158 2.3098 0
M  V30 41 H -0.9881 -2.451 -2.3598 0
M  V30 42 H -3.3074 2.6185 2.1668 0
M  V30 43 H -3.3467 -2.2972 -2.4495 0
M  V30 44 H -7.4524 1.0839 -1.0973 0
M  V30 45 H -7.6302 -0.635 -0.5568 0
M  V30 46 H -7.6191 0.6737 0.6584 0
M  V30 END ATOM
M  V30 BEGIN BOND
M  V30 1 2 1 2
M  V30 2 1 2 3
M  V30 3 1 2 4
M  V30 4 1 3 5
M  V30 5 1 3 6
M  V30 6 1 4 7
M  V30 7 2 4 8
M  V30 8 2 5 9
M  V30 9 1 5 10
M  V30 10 1 7 11
M  V30 11 1 8 12
M  V30 12 1 10 13
M  V30 13 1 11 14
M  V30 14 2 11 15
M  V30 15 2 13 16
M  V30 16 1 14 17
M  V30 17 1 15 18
M  V30 18 1 17 19
M  V30 19 2 17 20
M  V30 20 1 18 21
M  V30 21 1 19 22
M  V30 22 1 20 23
M  V30 23 2 21 24
M  V30 24 1 22 25
M  V30 25 2 22 26
M  V30 26 1 25 27
M  V30 27 1 26 28
M  V30 28 2 27 29
M  V30 29 1 27 30
M  V30 30 2 28 31
M  V30 31 1 30 32
M  V30 32 2 7 10
M  V30 33 2 12 14
M  V30 34 1 15 16
M  V30 35 2 18 19
M  V30 36 2 23 25
M  V30 37 1 24 26
M  V30 38 1 28 30
M  V30 39 1 6 33
M  V30 40 1 6 34
M  V30 41 1 6 35
M  V30 42 1 8 36
M  V30 43 1 12 37
M  V30 44 1 13 38
M  V30 45 1 16 39
M  V30 46 1 20 40
M  V30 47 1 21 41
M  V30 48 1 23 42
M  V30 49 1 24 43
M  V30 50 1 32 44
M  V30 51 1 32 45
M  V30 52 1 32 46
M  V30 END BOND
M  V30 END CTAB
M  END
>  <Structure No>
3091

>  <LogS>
-7.718509993

>  <MMFF94 Energy>
47.024

$$$$
Compound 3092
Actelion Java MolfileCreator 2.0

  0  0  0  0  0  0              0 V3000
M  V30 BEGIN CTAB
M  V30 COUNTS 51 56 0 0 0
M  V30 BEGIN ATOM
M  V30 1 O -3.8277 -1.0576 2.4419 0
M  V30 2 C -3.0819 -0.2201 1.8631 0
M  V30 3 N -3.6083 1.0583 1.4576 0
M  V30 4 C -1.6644 -0.5565 1.5958 0
M  V30 5 C -2.7345 1.9964 0.8016 0
M  V30 6 C -5.0293 1.3876 1.6593 0
M  V30 7 C -0.8272 0.3762 0.9458 0
M  V30 8 C -1.1464 -1.8035 1.984 0
M  V30 9 O -3.1725 3.1257 0.4468 0
M  V30 10 C -1.3209 1.6379 0.5437 0
M  V30 11 C -5.8392 1.1904 0.3697 0
M  V30 12 C 0.5272 0.0424 0.6931 0
M  V30 13 C 0.1856 -2.1339 1.7363 0
M  V30 14 C -0.4648 2.5473 -0.1017 0
M  V30 15 C -5.8867 -0.2724 -0.0743 0
M  V30 16 C 1.0371 -1.2239 1.0922 0
M  V30 17 C 1.3714 0.9744 0.0412 0
M  V30 18 C 0.8677 2.2203 -0.3509 0
M  V30 19 O -6.7291 -0.3826 -1.2017 0
M  V30 20 C 2.3896 -1.5368 0.8308 0
M  V30 21 C 2.7008 0.6055 -0.1889 0
M  V30 22 C -6.7758 -1.7281 -1.6201 0
M  V30 23 O 2.8729 -2.6506 1.172 0
M  V30 24 N 3.1612 -0.6064 0.2013 0
M  V30 25 N 3.6377 1.3771 -0.7999 0
M  V30 26 C 4.453 -0.6143 -0.1754 0
M  V30 27 C 4.7294 0.585 -0.7768 0
M  V30 28 C 5.4242 -1.6097 -0.0393 0
M  V30 29 C 5.9926 0.8805 -1.2815 0
M  V30 30 C 6.7109 -1.3399 -0.5399 0
M  V30 31 C 7.0055 -0.0936 -1.1484 0
M  V30 32 C 8.3711 0.1622 -1.712 0
M  V30 33 H -5.1231 2.4467 1.9843 0
M  V30 34 H -5.4702 0.7789 2.4782 0
M  V30 35 H -1.7747 -2.5307 2.4829 0
M  V30 36 H -5.4074 1.8102 -0.4452 0
M  V30 37 H -6.8777 1.5441 0.5499 0
M  V30 38 H 0.5464 -3.1054 2.0512 0
M  V30 39 H -0.8268 3.5181 -0.4169 0
M  V30 40 H -4.8539 -0.602 -0.33 0
M  V30 41 H -6.2792 -0.8884 0.7674 0
M  V30 42 H 1.5014 2.9429 -0.8503 0
M  V30 43 H -7.4415 -1.8002 -2.5044 0
M  V30 44 H -5.7693 -2.0902 -1.9269 0
M  V30 45 H -7.1993 -2.3831 -0.8264 0
M  V30 46 H 5.2134 -2.5614 0.4257 0
M  V30 47 H 6.1844 1.8323 -1.7614 0
M  V30 48 H 7.4783 -2.0991 -0.4552 0
M  V30 49 H 8.4089 -0.1928 -2.7628 0
M  V30 50 H 9.1444 -0.3723 -1.1203 0
M  V30 51 H 8.6085 1.2471 -1.6872 0
M  V30 END ATOM
M  V30 BEGIN BOND
M  V30 1 2 1 2
M  V30 2 1 2 3
M  V30 3 1 2 4
M  V30 4 1 3 5
M  V30 5 1 3 6
M  V30 6 1 4 7
M  V30 7 2 4 8
M  V30 8 2 5 9
M  V30 9 1 5 10
M  V30 10 1 6 11
M  V30 11 1 7 12
M  V30 12 1 8 13
M  V30 13 1 10 14
M  V30 14 1 11 15
M  V30 15 1 12 16
M  V30 16 2 12 17
M  V30 17 2 14 18
M  V30 18 1 15 19
M  V30 19 1 16 20
M  V30 20 1 17 21
M  V30 21 1 19 22
M  V30 22 2 20 23
M  V30 23 1 20 24
M  V30 24 2 21 25
M  V30 25 1 24 26
M  V30 26 1 25 27
M  V30 27 1 26 28
M  V30 28 1 27 29
M  V30 29 2 28 30
M  V30 30 2 29 31
M  V30 31 1 31 32
M  V30 32 2 7 10
M  V30 33 2 13 16
M  V30 34 1 17 18
M  V30 35 1 21 24
M  V30 36 2 26 27
M  V30 37 1 30 31
M  V30 38 1 6 33
M  V30 39 1 6 34
M  V30 40 1 8 35
M  V30 41 1 11 36
M  V30 42 1 11 37
M  V30 43 1 13 38
M  V30 44 1 14 39
M  V30 45 1 15 40
M  V30 46 1 15 41
M  V30 47 1 18 42
M  V30 48 1 22 43
M  V30 49 1 22 44
M  V30 50 1 22 45
M  V30 51 1 28 46
M  V30 52 1 29 47
M  V30 53 1 30 48
M  V30 54 1 32 49
M  V30 55 1 32 50
M  V30 56 1 32 51
M  V30 END BOND
M  V30 END CTAB
M  END
>  <Structure No>
3092

>  <LogS>
-6.771509907

>  <MMFF94 Energy>
61.889

$$$$
Compound 3093
Actelion Java MolfileCreator 2.0

  0  0  0  0  0  0              0 V3000
M  V30 BEGIN CTAB
M  V30 COUNTS 76 82 0 0 0
M  V30 BEGIN ATOM
M  V30 1 Cl -6.2597 -2.8342 1.4997 0
M  V30 2 C -5.4418 -1.3321 1.9155 0
M  V30 3 C -6.1393 -0.2103 2.4098 0
M  V30 4 C -4.0639 -1.2501 1.688 0
M  V30 5 N -7.5439 -0.2548 2.6945 0
M  V30 6 C -5.4462 0.9909 2.6134 0
M  V30 7 C -3.3618 -0.0618 1.9414 0
M  V30 8 N -8.1172 -1.3834 3.3076 0
M  V30 9 C -4.0692 1.0731 2.3875 0
M  V30 10 C -1.8955 -0.0333 1.7451 0
M  V30 11 N -9.3761 -1.5326 3.4753 0
M  V30 12 Cl -3.2768 2.6273 2.6286 0
M  V30 13 C -1.3385 -0.3679 0.5003 0
M  V30 14 C -1.0444 0.2845 2.8154 0
M  V30 15 C -10.3851 -0.6464 2.9708 0
M  V30 16 C 0.0487 -0.3589 0.3225 0
M  V30 17 C 0.3413 0.2888 2.6387 0
M  V30 18 O -11.3592 -0.3562 3.7159 0
M  V30 19 C -10.3585 -0.1522 1.5715 0
M  V30 20 C 0.8981 -0.0206 1.3887 0
M  V30 21 C -10.909 1.1008 1.2333 0
M  V30 22 C -9.7846 -0.9454 0.5611 0
M  V30 23 C 2.3676 -0.0204 1.2134 0
M  V30 24 O -11.471 1.9187 2.2087 0 CHG=-1
M  V30 25 C -10.8821 1.5497 -0.0906 0
M  V30 26 C -9.7585 -0.5011 -0.7682 0
M  V30 27 C 2.9991 0.8041 0.2591 0
M  V30 28 C 3.1542 -0.8413 2.0373 0
M  V30 29 C -10.312 0.7584 -1.0971 0
M  V30 30 C -9.1942 -1.2968 -1.7781 0
M  V30 31 Cl 2.0878 1.9292 -0.7427 0
M  V30 32 C 4.3926 0.7862 0.1347 0
M  V30 33 C 4.5467 -0.8603 1.9089 0
M  V30 34 C -10.2888 1.2017 -2.4287 0
M  V30 35 C -9.1814 -0.8463 -3.1007 0
M  V30 36 C 5.1766 -0.0532 0.9439 0
M  V30 37 Cl 5.4753 -1.9329 2.951 0
M  V30 38 C -9.7262 0.3992 -3.4252 0
M  V30 39 N 6.6114 -0.0309 0.8415 0
M  V30 40 N 7.2943 0.0815 -0.3823 0
M  V30 41 N 6.7141 -0.1288 -1.4943 0
M  V30 42 C 7.3981 -0.0122 -2.7476 0
M  V30 43 O 6.7204 -0.0581 -3.808 0
M  V30 44 C 8.8692 0.1699 -2.8313 0
M  V30 45 C 9.4288 1.052 -3.778 0
M  V30 46 C 9.7231 -0.5595 -1.9843 0
M  V30 47 O 8.6133 1.7871 -4.6329 0 CHG=-1
M  V30 48 C 10.815 1.2151 -3.8596 0
M  V30 49 C 11.1136 -0.3917 -2.0554 0
M  V30 50 C 11.6645 0.5041 -3.0018 0
M  V30 51 C 11.9653 -1.1063 -1.1977 0
M  V30 52 C 13.0561 0.6703 -3.0733 0
M  V30 53 C 13.3494 -0.9306 -1.2768 0
M  V30 54 C 13.8928 -0.045 -2.2115 0
M  V30 55 H -3.5346 -2.1214 1.3203 0
M  V30 56 H -8.0821 0.6378 2.6538 0
M  V30 57 H -5.9805 1.8651 2.965 0
M  V30 58 H -1.9783 -0.6288 -0.3338 0
M  V30 59 H -1.4537 0.5197 3.7907 0
M  V30 60 H 0.4611 -0.6245 -0.643 0
M  V30 61 H 0.9808 0.5411 3.4757 0
M  V30 62 H -9.3709 -1.916 0.8083 0
M  V30 63 H -11.3065 2.5181 -0.3301 0
M  V30 64 H 2.6816 -1.4773 2.7771 0
M  V30 65 H -8.7656 -2.2642 -1.5453 0
M  V30 66 H 4.8665 1.4574 -0.5707 0
M  V30 67 H -10.7075 2.1646 -2.697 0
M  V30 68 H -8.7473 -1.4635 -3.8761 0
M  V30 69 H -9.7132 0.7438 -4.4511 0
M  V30 70 H 7.1832 -0.1084 1.7115 0
M  V30 71 H 9.3074 -1.2724 -1.2814 0
M  V30 72 H 11.2248 1.903 -4.59 0
M  V30 73 H 11.5612 -1.7964 -0.4672 0
M  V30 74 H 13.4952 1.3526 -3.7922 0
M  V30 75 H 14.0022 -1.4814 -0.6118 0
M  V30 76 H 14.9653 0.0882 -2.2679 0
M  V30 END ATOM
M  V30 BEGIN BOND
M  V30 1 1 1 2
M  V30 2 2 2 3
M  V30 3 1 2 4
M  V30 4 1 3 5
M  V30 5 1 3 6
M  V30 6 2 4 7
M  V30 7 1 5 8
M  V30 8 2 6 9
M  V30 9 1 7 10
M  V30 10 2 8 11
M  V30 11 1 9 12
M  V30 12 2 10 13
M  V30 13 1 10 14
M  V30 14 1 11 15
M  V30 15 1 13 16
M  V30 16 2 14 17
M  V30 17 2 15 18
M  V30 18 1 15 19
M  V30 19 2 16 20
M  V30 20 1 19 21
M  V30 21 2 19 22
M  V30 22 1 20 23
M  V30 23 1 21 24
M  V30 24 2 21 25
M  V30 25 1 22 26
M  V30 26 2 23 27
M  V30 27 1 23 28
M  V30 28 1 25 29
M  V30 29 2 26 30
M  V30 30 1 27 31
M  V30 31 1 27 32
M  V30 32 2 28 33
M  V30 33 2 29 34
M  V30 34 1 30 35
M  V30 35 2 32 36
M  V30 36 1 33 37
M  V30 37 1 34 38
M  V30 38 1 36 39
M  V30 39 1 39 40
M  V30 40 2 40 41
M  V30 41 1 41 42
M  V30 42 2 42 43
M  V30 43 1 42 44
M  V30 44 1 44 45
M  V30 45 2 44 46
M  V30 46 1 45 47
M  V30 47 2 45 48
M  V30 48 1 46 49
M  V30 49 1 48 50
M  V30 50 2 49 51
M  V30 51 2 50 52
M  V30 52 1 51 53
M  V30 53 1 52 54
M  V30 54 1 7 9
M  V30 55 1 17 20
M  V30 56 1 26 29
M  V30 57 1 33 36
M  V30 58 2 35 38
M  V30 59 1 49 50
M  V30 60 2 53 54
M  V30 61 1 4 55
M  V30 62 1 5 56
M  V30 63 1 6 57
M  V30 64 1 13 58
M  V30 65 1 14 59
M  V30 66 1 16 60
M  V30 67 1 17 61
M  V30 68 1 22 62
M  V30 69 1 25 63
M  V30 70 1 28 64
M  V30 71 1 30 65
M  V30 72 1 32 66
M  V30 73 1 34 67
M  V30 74 1 35 68
M  V30 75 1 38 69
M  V30 76 1 39 70
M  V30 77 1 46 71
M  V30 78 1 48 72
M  V30 79 1 51 73
M  V30 80 1 52 74
M  V30 81 1 53 75
M  V30 82 1 54 76
M  V30 END BOND
M  V30 END CTAB
M  END
>  <Structure No>
3093

>  <LogS>
-8.087170706

>  <MMFF94 Energy>
246

$$$$
Compound 3094
Actelion Java MolfileCreator 2.0

  0  0  0  0  0  0              0 V3000
M  V30 BEGIN CTAB
M  V30 COUNTS 37 36 0 0 0
M  V30 BEGIN ATOM
M  V30 1 O 0 0 0 0
M  V30 2 C 0 0 0 0
M  V30 3 C 0 0 0 0
M  V30 4 C 0 0 0 0
M  V30 5 C 0 0 0 0
M  V30 6 C 0 0 0 0
M  V30 7 C 0 0 0 0
M  V30 8 C 0 0 0 0
M  V30 9 C 0 0 0 0
M  V30 10 O 0 0 0 0
M  V30 11 O 0 0 0 0
M  V30 12 O 0 0 0 0
M  V30 13 C 0 0 0 0
M  V30 14 C 0 0 0 0
M  V30 15 C 0 0 0 0
M  V30 16 C 0 0 0 0
M  V30 17 C 0 0 0 0
M  V30 18 C 0 0 0 0
M  V30 19 C 0 0 0 0
M  V30 20 C 0 0 0 0
M  V30 21 C 0 0 0 0
M  V30 22 C 0 0 0 0
M  V30 23 C 0 0 0 0
M  V30 24 C 0 0 0 0
M  V30 25 C 0 0 0 0
M  V30 26 C 0 0 0 0
M  V30 27 C 0 0 0 0
M  V30 28 C 0 0 0 0
M  V30 29 C 0 0 0 0
M  V30 30 C 0 0 0 0
M  V30 31 C 0 0 0 0
M  V30 32 C 0 0 0 0
M  V30 33 C 0 0 0 0
M  V30 34 C 0 0 0 0
M  V30 35 C 0 0 0 0
M  V30 36 C 0 0 0 0
M  V30 37 C 0 0 0 0
M  V30 END ATOM
M  V30 BEGIN BOND
M  V30 1 1 1 2
M  V30 2 1 1 3
M  V30 3 1 2 4
M  V30 4 1 3 5
M  V30 5 1 4 6
M  V30 6 1 4 7
M  V30 7 1 4 8
M  V30 8 1 5 9
M  V30 9 1 6 10
M  V30 10 1 7 11
M  V30 11 1 8 12
M  V30 12 1 9 13
M  V30 13 1 10 14
M  V30 14 1 11 15
M  V30 15 1 12 16
M  V30 16 1 13 17
M  V30 17 1 14 18
M  V30 18 1 15 19
M  V30 19 1 16 20
M  V30 20 1 17 21
M  V30 21 1 18 22
M  V30 22 1 19 23
M  V30 23 1 20 24
M  V30 24 1 21 25
M  V30 25 1 22 26
M  V30 26 1 23 27
M  V30 27 1 24 28
M  V30 28 1 26 29
M  V30 29 1 27 30
M  V30 30 1 28 31
M  V30 31 1 29 32
M  V30 32 1 30 33
M  V30 33 1 31 34
M  V30 34 1 32 35
M  V30 35 1 33 36
M  V30 36 1 34 37
M  V30 END BOND
M  V30 END CTAB
M  END
>  <Structure No>
3094

>  <LogS>
-7.94522478

>  <MMFF94 Energy>
21.328

$$$$
Compound 3095
Actelion Java MolfileCreator 2.0

  0  0  0  0  0  0              0 V3000
M  V30 BEGIN CTAB
M  V30 COUNTS 30 33 0 0 0
M  V30 BEGIN ATOM
M  V30 1 O 0.8137 -2.3613 -0.8137 0
M  V30 2 C 1.3313 -1.3295 -0.3111 0
M  V30 3 C 0.6487 -0.1029 0.131 0
M  V30 4 C 2.7452 -1.1241 -0.0539 0
M  V30 5 N 1.6397 0.8035 0.6368 0
M  V30 6 C -0.671 0.1544 0.0828 0
M  V30 7 C 2.8886 0.13 0.4987 0
M  V30 8 C 3.8397 -1.9571 -0.2786 0
M  V30 9 N -1.6621 -0.7519 -0.4228 0
M  V30 10 C -1.3536 1.3811 0.525 0
M  V30 11 C 4.143 0.6214 0.8589 0
M  V30 12 C 5.1141 -1.482 0.0769 0
M  V30 13 C -2.911 -0.0782 -0.2847 0
M  V30 14 O -0.8361 2.4129 1.0277 0
M  V30 15 C -2.7675 1.1758 0.2679 0
M  V30 16 C 5.2651 -0.1982 0.6432 0
M  V30 17 C -4.1655 -0.5695 -0.6448 0
M  V30 18 C -3.8622 2.0089 0.4927 0
M  V30 19 C -5.2877 0.2501 -0.4291 0
M  V30 20 C -5.1366 1.5339 0.1372 0
M  V30 21 H 1.5064 1.7602 1.0294 0
M  V30 22 H 3.7138 -2.9401 -0.7135 0
M  V30 23 H -1.5289 -1.7085 -0.8154 0
M  V30 24 H 4.2507 1.607 1.2927 0
M  V30 25 H 5.9843 -2.1047 -0.0847 0
M  V30 26 H 6.2507 0.1579 0.9134 0
M  V30 27 H -4.2732 -1.5551 -1.0785 0
M  V30 28 H -3.7363 2.992 0.9276 0
M  V30 29 H -6.2733 -0.1059 -0.6992 0
M  V30 30 H -6.007 2.1566 0.2988 0
M  V30 END ATOM
M  V30 BEGIN BOND
M  V30 1 2 1 2
M  V30 2 1 2 3
M  V30 3 1 2 4
M  V30 4 1 3 5
M  V30 5 2 3 6
M  V30 6 2 4 7
M  V30 7 1 4 8
M  V30 8 1 6 9
M  V30 9 1 6 10
M  V30 10 1 7 11
M  V30 11 2 8 12
M  V30 12 1 9 13
M  V30 13 2 10 14
M  V30 14 1 10 15
M  V30 15 2 11 16
M  V30 16 1 13 17
M  V30 17 1 15 18
M  V30 18 2 17 19
M  V30 19 2 18 20
M  V30 20 1 5 7
M  V30 21 1 12 16
M  V30 22 2 13 15
M  V30 23 1 19 20
M  V30 24 1 5 21
M  V30 25 1 8 22
M  V30 26 1 9 23
M  V30 27 1 11 24
M  V30 28 1 12 25
M  V30 29 1 16 26
M  V30 30 1 17 27
M  V30 31 1 18 28
M  V30 32 1 19 29
M  V30 33 1 20 30
M  V30 END BOND
M  V30 END CTAB
M  END
>  <Structure No>
3095

>  <LogS>
-6.7197753

>  <MMFF94 Energy>
128.45

$$$$
Compound 3096
Actelion Java MolfileCreator 2.0

  0  0  0  0  0  0              0 V3000
M  V30 BEGIN CTAB
M  V30 COUNTS 53 52 0 0 0
M  V30 BEGIN ATOM
M  V30 1 O -5.7816 -1.3259 -1.3259 0
M  V30 2 C -5.5915 -0.8247 -0.1839 0
M  V30 3 O -6.3164 0.2959 0.2387 0
M  V30 4 C -4.5476 -1.4027 0.7171 0
M  V30 5 C -7.2631 0.9789 -0.5829 0
M  V30 6 C -3.2456 -0.6052 0.6012 0
M  V30 7 C -8.1417 1.86 0.3039 0
M  V30 8 C -6.5372 1.8297 -1.6298 0
M  V30 9 C -2.1651 -1.1771 1.5264 0
M  V30 10 C -0.8628 -0.3753 1.4136 0
M  V30 11 C 0.2239 -0.961 2.3276 0
M  V30 12 C 1.4992 -0.1033 2.3553 0
M  V30 13 C 2.2908 -0.1757 1.0408 0
M  V30 14 C 3.6247 0.5768 1.1633 0
M  V30 15 C 4.3823 0.6679 -0.1712 0
M  V30 16 C 4.986 -0.6804 -0.601 0
M  V30 17 C 5.7647 -0.5828 -1.9232 0
M  V30 18 C 7.1233 0.1153 -1.7606 0
M  V30 19 C 7.9097 0.0959 -3.0685 0
M  V30 20 H -4.9183 -1.3702 1.7646 0
M  V30 21 H -4.3666 -2.4658 0.4444 0
M  V30 22 H -7.9192 0.2402 -1.0963 0
M  V30 23 H -3.439 0.4562 0.8736 0
M  V30 24 H -2.8861 -0.64 -0.4512 0
M  V30 25 H -8.9064 2.3838 -0.3084 0
M  V30 26 H -7.5228 2.6139 0.8372 0
M  V30 27 H -8.6644 1.2316 1.0569 0
M  V30 28 H -5.9224 1.1847 -2.2912 0
M  V30 29 H -7.2724 2.3725 -2.2613 0
M  V30 30 H -5.8709 2.567 -1.1332 0
M  V30 31 H -1.9696 -2.2372 1.2524 0
M  V30 32 H -2.5274 -1.1446 2.5775 0
M  V30 33 H -0.5166 -0.4 0.3582 0
M  V30 34 H -1.0577 0.6819 1.6995 0
M  V30 35 H 0.4725 -1.9958 2.0045 0
M  V30 36 H -0.1719 -1.0188 3.3654 0
M  V30 37 H 2.1434 -0.4747 3.1822 0
M  V30 38 H 1.237 0.9532 2.5825 0
M  V30 39 H 2.4841 -1.2414 0.7958 0
M  V30 40 H 1.6941 0.2774 0.2212 0
M  V30 41 H 4.2671 0.088 1.9279 0
M  V30 42 H 3.419 1.613 1.5106 0
M  V30 43 H 5.1978 1.4097 -0.0402 0
M  V30 44 H 3.7035 1.0509 -0.9645 0
M  V30 45 H 4.1664 -1.4141 -0.7513 0
M  V30 46 H 5.6493 -1.075 0.1995 0
M  V30 47 H 5.9393 -1.6169 -2.2942 0
M  V30 48 H 5.1524 -0.0517 -2.685 0
M  V30 49 H 7.7198 -0.4003 -0.9766 0
M  V30 50 H 6.9787 1.1732 -1.4558 0
M  V30 51 H 8.1032 -0.9504 -3.3878 0
M  V30 52 H 8.8843 0.6085 -2.924 0
M  V30 53 H 7.345 0.625 -3.8659 0
M  V30 END ATOM
M  V30 BEGIN BOND
M  V30 1 2 1 2
M  V30 2 1 2 3
M  V30 3 1 2 4
M  V30 4 1 3 5
M  V30 5 1 4 6
M  V30 6 1 5 7
M  V30 7 1 5 8
M  V30 8 1 6 9
M  V30 9 1 9 10
M  V30 10 1 10 11
M  V30 11 1 11 12
M  V30 12 1 12 13
M  V30 13 1 13 14
M  V30 14 1 14 15
M  V30 15 1 15 16
M  V30 16 1 16 17
M  V30 17 1 17 18
M  V30 18 1 18 19
M  V30 19 1 4 20
M  V30 20 1 4 21
M  V30 21 1 5 22
M  V30 22 1 6 23
M  V30 23 1 6 24
M  V30 24 1 7 25
M  V30 25 1 7 26
M  V30 26 1 7 27
M  V30 27 1 8 28
M  V30 28 1 8 29
M  V30 29 1 8 30
M  V30 30 1 9 31
M  V30 31 1 9 32
M  V30 32 1 10 33
M  V30 33 1 10 34
M  V30 34 1 11 35
M  V30 35 1 11 36
M  V30 36 1 12 37
M  V30 37 1 12 38
M  V30 38 1 13 39
M  V30 39 1 13 40
M  V30 40 1 14 41
M  V30 41 1 14 42
M  V30 42 1 15 43
M  V30 43 1 15 44
M  V30 44 1 16 45
M  V30 45 1 16 46
M  V30 46 1 17 47
M  V30 47 1 17 48
M  V30 48 1 18 49
M  V30 49 1 18 50
M  V30 50 1 19 51
M  V30 51 1 19 52
M  V30 52 1 19 53
M  V30 END BOND
M  V30 END CTAB
M  END
>  <Structure No>
3096

>  <LogS>
-6.733128222

>  <MMFF94 Energy>
-10.116

$$$$
Compound 3097
Actelion Java MolfileCreator 2.0

  0  0  0  0  0  0              0 V3000
M  V30 BEGIN CTAB
M  V30 COUNTS 78 79 0 0 0
M  V30 BEGIN ATOM
M  V30 1 N 0.471 -2.3571 0.2355 0
M  V30 2 C 1.1477 -1.0954 0.369 0
M  V30 3 C -0.7136 -2.7243 0.9637 0
M  V30 4 C 1.8222 -0.5547 -0.7354 0
M  V30 5 C 1.2018 -0.4243 1.6032 0
M  V30 6 C -1.663 -1.7603 1.3487 0
M  V30 7 C -0.9629 -4.0769 1.2356 0
M  V30 8 C 2.5082 0.6659 -0.6272 0
M  V30 9 C 1.888 0.7867 1.7169 0
M  V30 10 C -2.8285 -2.14 2.0341 0
M  V30 11 C -2.123 -4.4597 1.9131 0
M  V30 12 C 2.5366 1.333 0.6076 0
M  V30 13 C 3.2395 1.2324 -1.8174 0
M  V30 14 C -3.0521 -3.4971 2.3137 0
M  V30 15 C -3.8467 -1.1002 2.4294 0
M  V30 16 C 4.5677 0.5042 -2.0892 0
M  V30 17 C -4.6752 -0.6166 1.23 0
M  V30 18 C 5.5767 0.5582 -0.9273 0
M  V30 19 C -5.6154 -1.7092 0.6928 0
M  V30 20 C 6.1474 1.9681 -0.6989 0
M  V30 21 C -6.3915 -1.2598 -0.5553 0
M  V30 22 C 7.0877 2.0428 0.5178 0
M  V30 23 C -7.4874 -0.2317 -0.2356 0
M  V30 24 C 8.3584 1.18 0.4131 0
M  V30 25 C -8.3071 0.1031 -1.4908 0
M  V30 26 C 9.2475 1.5679 -0.7806 0
M  V30 27 C -9.4863 1.0437 -1.1956 0
M  V30 28 C 10.6347 0.9107 -0.7194 0
M  V30 29 C -9.0349 2.4761 -0.8745 0
M  V30 30 C 10.5807 -0.5999 -0.9427 0
M  V30 31 C -10.2327 3.4109 -0.7329 0
M  V30 32 H 0.8608 -3.0496 -0.4436 0
M  V30 33 H 1.8048 -1.0809 -1.6823 0
M  V30 34 H 0.7286 -0.8447 2.481 0
M  V30 35 H -1.5093 -0.7177 1.1005 0
M  V30 36 H -0.2531 -4.8341 0.9274 0
M  V30 37 H 1.9247 1.2989 2.6697 0
M  V30 38 H -2.3046 -5.5056 2.1238 0
M  V30 39 H 3.0705 2.2689 0.7149 0
M  V30 40 H 3.4125 2.322 -1.6931 0
M  V30 41 H 2.5927 1.1286 -2.7157 0
M  V30 42 H -3.9506 -3.811 2.8302 0
M  V30 43 H -4.5245 -1.4912 3.2198 0
M  V30 44 H -3.3145 -0.2288 2.8696 0
M  V30 45 H 4.3487 -0.562 -2.3155 0
M  V30 46 H 5.035 0.9376 -3.0001 0
M  V30 47 H -3.9964 -0.2676 0.4214 0
M  V30 48 H -5.276 0.2538 1.567 0
M  V30 49 H 5.1108 0.1762 0.0058 0
M  V30 50 H 6.409 -0.1288 -1.1873 0
M  V30 51 H -6.3266 -2.0228 1.4882 0
M  V30 52 H -5.0133 -2.5989 0.4098 0
M  V30 53 H 6.6691 2.3209 -1.6131 0
M  V30 54 H 5.3155 2.6761 -0.5067 0
M  V30 55 H -5.6864 -0.8408 -1.3067 0
M  V30 56 H -6.8655 -2.1599 -1.0047 0
M  V30 57 H 7.387 3.1031 0.6676 0
M  V30 58 H 6.5248 1.7357 1.4263 0
M  V30 59 H -7.0173 0.6955 0.1492 0
M  V30 60 H -8.1621 -0.6429 0.5469 0
M  V30 61 H 8.9355 1.3186 1.3533 0
M  V30 62 H 8.0823 0.1071 0.3572 0
M  V30 63 H -8.7198 -0.8396 -1.9123 0
M  V30 64 H -7.6481 0.5568 -2.2633 0
M  V30 65 H 8.7527 1.2848 -1.7343 0
M  V30 66 H 9.3893 2.6707 -0.7837 0
M  V30 67 H -10.0899 0.6391 -0.3535 0
M  V30 68 H -10.1387 1.0667 -2.0961 0
M  V30 69 H 11.2703 1.3583 -1.5137 0
M  V30 70 H 11.1185 1.1261 0.2578 0
M  V30 71 H -8.3786 2.8566 -1.687 0
M  V30 72 H -8.4649 2.4923 0.0779 0
M  V30 73 H 11.6143 -1.0008 -1.0027 0
M  V30 74 H 10.055 -0.834 -1.8926 0
M  V30 75 H 10.0632 -1.1029 -0.1 0
M  V30 76 H -9.8789 4.4347 -0.4891 0
M  V30 77 H -10.8059 3.4513 -1.6834 0
M  V30 78 H -10.9001 3.0615 0.0834 0
M  V30 END ATOM
M  V30 BEGIN BOND
M  V30 1 1 1 2
M  V30 2 1 1 3
M  V30 3 2 2 4
M  V30 4 1 2 5
M  V30 5 2 3 6
M  V30 6 1 3 7
M  V30 7 1 4 8
M  V30 8 2 5 9
M  V30 9 1 6 10
M  V30 10 2 7 11
M  V30 11 2 8 12
M  V30 12 1 8 13
M  V30 13 2 10 14
M  V30 14 1 10 15
M  V30 15 1 13 16
M  V30 16 1 15 17
M  V30 17 1 16 18
M  V30 18 1 17 19
M  V30 19 1 18 20
M  V30 20 1 19 21
M  V30 21 1 20 22
M  V30 22 1 21 23
M  V30 23 1 22 24
M  V30 24 1 23 25
M  V30 25 1 24 26
M  V30 26 1 25 27
M  V30 27 1 26 28
M  V30 28 1 27 29
M  V30 29 1 28 30
M  V30 30 1 29 31
M  V30 31 1 9 12
M  V30 32 1 11 14
M  V30 33 1 1 32
M  V30 34 1 4 33
M  V30 35 1 5 34
M  V30 36 1 6 35
M  V30 37 1 7 36
M  V30 38 1 9 37
M  V30 39 1 11 38
M  V30 40 1 12 39
M  V30 41 1 13 40
M  V30 42 1 13 41
M  V30 43 1 14 42
M  V30 44 1 15 43
M  V30 45 1 15 44
M  V30 46 1 16 45
M  V30 47 1 16 46
M  V30 48 1 17 47
M  V30 49 1 17 48
M  V30 50 1 18 49
M  V30 51 1 18 50
M  V30 52 1 19 51
M  V30 53 1 19 52
M  V30 54 1 20 53
M  V30 55 1 20 54
M  V30 56 1 21 55
M  V30 57 1 21 56
M  V30 58 1 22 57
M  V30 59 1 22 58
M  V30 60 1 23 59
M  V30 61 1 23 60
M  V30 62 1 24 61
M  V30 63 1 24 62
M  V30 64 1 25 63
M  V30 65 1 25 64
M  V30 66 1 26 65
M  V30 67 1 26 66
M  V30 68 1 27 67
M  V30 69 1 27 68
M  V30 70 1 28 69
M  V30 71 1 28 70
M  V30 72 1 29 71
M  V30 73 1 29 72
M  V30 74 1 30 73
M  V30 75 1 30 74
M  V30 76 1 30 75
M  V30 77 1 31 76
M  V30 78 1 31 77
M  V30 79 1 31 78
M  V30 END BOND
M  V30 END CTAB
M  END
>  <Structure No>
3097

>  <LogS>
-7.926046985

>  <MMFF94 Energy>
30.837

$$$$
Compound 3098
Actelion Java MolfileCreator 2.0

  0  0  0  0  0  0              0 V3000
M  V30 BEGIN CTAB
M  V30 COUNTS 36 37 0 0 0
M  V30 BEGIN ATOM
M  V30 1 O 3.1145 0.8777 1.2768 0
M  V30 2 C 2.1724 0.4586 0.5487 0
M  V30 3 O 2.325 -0.7265 -0.1823 0
M  V30 4 C 0.9229 1.2511 0.441 0
M  V30 5 C 3.5054 -1.5254 -0.1536 0
M  V30 6 C 1.0264 2.6681 0.7217 0
M  V30 7 C -0.2747 0.7019 0.1006 0
M  V30 8 C 4.6013 -0.8953 -1.0048 0
M  V30 9 N 1.1095 3.8005 0.9465 0
M  V30 10 C -0.4755 -0.7675 0.0379 0
M  V30 11 C -1.4679 1.5479 -0.1712 0
M  V30 12 C -0.2081 -1.5759 1.1573 0
M  V30 13 C -0.9862 -1.3576 -1.13 0
M  V30 14 C -2.6702 1.3124 0.5181 0
M  V30 15 C -1.4263 2.5533 -1.1539 0
M  V30 16 C -0.4187 -2.9565 1.0951 0
M  V30 17 C -1.1964 -2.7388 -1.1872 0
M  V30 18 C -3.8027 2.0864 0.2463 0
M  V30 19 C -2.5613 3.3248 -1.4222 0
M  V30 20 C -0.91 -3.5379 -0.0768 0
M  V30 21 C -3.7478 3.0932 -0.7211 0
M  V30 22 H 3.263 -2.5267 -0.5679 0
M  V30 23 H 3.8566 -1.6612 0.8924 0
M  V30 24 H 5.4921 -1.5579 -1.0165 0
M  V30 25 H 4.2401 -0.7588 -2.0461 0
M  V30 26 H 4.8961 0.0908 -0.5896 0
M  V30 27 H 0.162 -1.136 2.0752 0
M  V30 28 H -1.2121 -0.7493 -1.9973 0
M  V30 29 H -2.728 0.5354 1.2706 0
M  V30 30 H -0.5194 2.732 -1.7182 0
M  V30 31 H -0.2046 -3.5753 1.9569 0
M  V30 32 H -1.5823 -3.1896 -2.0923 0
M  V30 33 H -4.7237 1.9044 0.7851 0
M  V30 34 H -2.5224 4.099 -2.1776 0
M  V30 35 H -1.0735 -4.6068 -0.1231 0
M  V30 36 H -4.6258 3.6904 -0.9309 0
M  V30 END ATOM
M  V30 BEGIN BOND
M  V30 1 2 1 2
M  V30 2 1 2 3
M  V30 3 1 2 4
M  V30 4 1 3 5
M  V30 5 1 4 6
M  V30 6 2 4 7
M  V30 7 1 5 8
M  V30 8 3 6 9
M  V30 9 1 7 10
M  V30 10 1 7 11
M  V30 11 2 10 12
M  V30 12 1 10 13
M  V30 13 2 11 14
M  V30 14 1 11 15
M  V30 15 1 12 16
M  V30 16 2 13 17
M  V30 17 1 14 18
M  V30 18 2 15 19
M  V30 19 2 16 20
M  V30 20 2 18 21
M  V30 21 1 17 20
M  V30 22 1 19 21
M  V30 23 1 5 22
M  V30 24 1 5 23
M  V30 25 1 8 24
M  V30 26 1 8 25
M  V30 27 1 8 26
M  V30 28 1 12 27
M  V30 29 1 13 28
M  V30 30 1 14 29
M  V30 31 1 15 30
M  V30 32 1 16 31
M  V30 33 1 17 32
M  V30 34 1 18 33
M  V30 35 1 19 34
M  V30 36 1 20 35
M  V30 37 1 21 36
M  V30 END BOND
M  V30 END CTAB
M  END
>  <Structure No>
3098

>  <LogS>
-7.744015885

>  <MMFF94 Energy>
36.612

$$$$
Compound 3099
Actelion Java MolfileCreator 2.0

  0  0  0  0  0  0              0 V3000
M  V30 BEGIN CTAB
M  V30 COUNTS 108 109 0 0 0
M  V30 BEGIN ATOM
M  V30 1 O 3.7278 -2.4576 0.5545 0
M  V30 2 C 3.7934 -3.3119 -0.3703 0
M  V30 3 O 2.9333 -4.4128 -0.3869 0
M  V30 4 C 4.8358 -3.1882 -1.442 0
M  V30 5 C 1.8722 -4.6021 0.5473 0
M  V30 6 C 4.7659 -1.8412 -2.1785 0
M  V30 7 C 0.6626 -3.73 0.1904 0
M  V30 8 C 5.4248 -0.7335 -1.3887 0
M  V30 9 C 0.1898 -3.9767 -1.2549 0
M  V30 10 C 4.6558 0.2157 -0.7229 0
M  V30 11 C 6.8124 -0.6791 -1.3072 0
M  V30 12 C -1.2586 -3.5193 -1.5117 0
M  V30 13 C 5.2465 1.241 0.0475 0
M  V30 14 C 7.483 0.3161 -0.5608 0
M  V30 15 C -1.3952 -2.0391 -1.9139 0
M  V30 16 C 6.6718 1.2753 0.1377 0
M  V30 17 C 4.3608 2.2884 0.7902 0
M  V30 18 C 9.0423 0.3077 -0.4849 0
M  V30 19 C -1.2889 -1.0468 -0.7527 0
M  V30 20 O 7.2387 2.2755 0.9315 0
M  V30 21 C 2.8415 2.0892 0.5383 0
M  V30 22 C 4.7007 3.721 0.3092 0
M  V30 23 C 4.5743 2.1778 2.3179 0
M  V30 24 C 9.6313 1.7049 -0.8561 0
M  V30 25 C 9.475 -0.1187 0.9378 0
M  V30 26 C 9.698 -0.7186 -1.4533 0
M  V30 27 O -2.1069 -1.461 0.3372 0
M  V30 28 C -2.2938 -0.6794 1.4811 0
M  V30 29 O -1.7228 0.4417 1.5947 0
M  V30 30 C -3.1461 -1.1928 2.6027 0
M  V30 31 C -4.4893 -1.7484 2.108 0
M  V30 32 C -5.3351 -0.6829 1.4499 0
M  V30 33 C -6.0849 0.1906 2.2324 0
M  V30 34 C -5.3283 -0.5418 0.064 0
M  V30 35 C -6.8729 1.2098 1.6558 0
M  V30 36 C -6.07 0.4675 -0.5901 0
M  V30 37 C -6.8669 1.3379 0.2321 0
M  V30 38 C -7.7235 2.1624 2.5518 0
M  V30 39 C -6.0269 0.5807 -2.1471 0
M  V30 40 O -7.6662 2.342 -0.3219 0
M  V30 41 C -7.2692 3.629 2.3535 0
M  V30 42 C -9.2274 2.0199 2.2102 0
M  V30 43 C -7.5868 1.8568 4.0675 0
M  V30 44 C -7.391 0.1282 -2.7258 0
M  V30 45 C -5.679 2.0372 -2.5896 0
M  V30 46 C -4.9571 -0.3404 -2.8004 0
M  V30 47 H 4.6763 -4.0005 -2.186 0
M  V30 48 H 5.8413 -3.3479 -0.9945 0
M  V30 49 H 1.5692 -5.6715 0.5268 0
M  V30 50 H 2.2196 -4.3709 1.5771 0
M  V30 51 H 3.7079 -1.5936 -2.4197 0
M  V30 52 H 5.2944 -1.9409 -3.1524 0
M  V30 53 H -0.1524 -3.9699 0.906 0
M  V30 54 H 0.9411 -2.6662 0.3274 0
M  V30 55 H 0.2266 -5.0699 -1.4593 0
M  V30 56 H 0.8859 -3.4875 -1.9709 0
M  V30 57 H 3.5853 0.1207 -0.8151 0
M  V30 58 H 7.3476 -1.4444 -1.8454 0
M  V30 59 H -1.6449 -4.1161 -2.3679 0
M  V30 60 H -1.9161 -3.7624 -0.6491 0
M  V30 61 H -0.6462 -1.781 -2.6928 0
M  V30 62 H -2.3959 -1.9122 -2.3774 0
M  V30 63 H -0.2361 -0.943 -0.4232 0
M  V30 64 H -1.629 -0.0498 -1.1089 0
M  V30 65 H 8.2149 2.407 1.1211 0
M  V30 66 H 2.4966 1.102 0.9184 0
M  V30 67 H 2.6022 2.1761 -0.544 0
M  V30 68 H 2.2446 2.8651 1.0651 0
M  V30 69 H 5.7073 4.0533 0.628 0
M  V30 70 H 4.6461 3.777 -0.801 0
M  V30 71 H 3.9804 4.4598 0.7262 0
M  V30 72 H 5.5945 2.4722 2.6284 0
M  V30 73 H 3.8722 2.8459 2.8643 0
M  V30 74 H 4.3969 1.1337 2.6545 0
M  V30 75 H 10.4388 1.6453 -1.6182 0
M  V30 76 H 8.8564 2.3727 -1.2858 0
M  V30 77 H 10.0911 2.2118 0.0172 0
M  V30 78 H 9.0642 0.5291 1.7336 0
M  V30 79 H 9.1245 -1.1526 1.1525 0
M  V30 80 H 10.5833 -0.1017 1.0303 0
M  V30 81 H 9.4005 -0.5135 -2.5061 0
M  V30 82 H 9.427 -1.7641 -1.1881 0
M  V30 83 H 10.8082 -0.6633 -1.3963 0
M  V30 84 H -2.5912 -2.0037 3.1195 0
M  V30 85 H -3.326 -0.3841 3.3448 0
M  V30 86 H -5.0414 -2.1668 2.9773 0
M  V30 87 H -4.3128 -2.5988 1.4126 0
M  V30 88 H -6.0344 0.0454 3.3008 0
M  V30 89 H -4.7213 -1.2418 -0.4846 0
M  V30 90 H -7.7877 2.5466 -1.2997 0
M  V30 91 H -7.5067 4.0214 1.3469 0
M  V30 92 H -6.1715 3.7132 2.5085 0
M  V30 93 H -7.7746 4.3024 3.0793 0
M  V30 94 H -9.5314 0.9519 2.2608 0
M  V30 95 H -9.4769 2.4059 1.2029 0
M  V30 96 H -9.8563 2.5947 2.9262 0
M  V30 97 H -6.534 1.978 4.4065 0
M  V30 98 H -7.9385 0.8274 4.2975 0
M  V30 99 H -8.2057 2.5564 4.672 0
M  V30 100 H -8.2453 0.7085 -2.3278 0
M  V30 101 H -7.5787 -0.9393 -2.4742 0
M  V30 102 H -7.4005 0.2271 -3.8355 0
M  V30 103 H -6.5221 2.5247 -3.1292 0
M  V30 104 H -4.8094 2.0841 -3.2869 0
M  V30 105 H -5.3968 2.674 -1.7215 0
M  V30 106 H -3.9441 -0.0993 -2.4076 0
M  V30 107 H -5.1785 -1.4178 -2.6342 0
M  V30 108 H -4.9335 -0.1928 -3.9033 0
M  V30 END ATOM
M  V30 BEGIN BOND
M  V30 1 2 1 2
M  V30 2 1 2 3
M  V30 3 1 2 4
M  V30 4 1 3 5
M  V30 5 1 4 6
M  V30 6 1 5 7
M  V30 7 1 6 8
M  V30 8 1 7 9
M  V30 9 2 8 10
M  V30 10 1 8 11
M  V30 11 1 9 12
M  V30 12 1 10 13
M  V30 13 2 11 14
M  V30 14 1 12 15
M  V30 15 2 13 16
M  V30 16 1 13 17
M  V30 17 1 14 18
M  V30 18 1 15 19
M  V30 19 1 16 20
M  V30 20 1 17 21
M  V30 21 1 17 22
M  V30 22 1 17 23
M  V30 23 1 18 24
M  V30 24 1 18 25
M  V30 25 1 18 26
M  V30 26 1 19 27
M  V30 27 1 27 28
M  V30 28 2 28 29
M  V30 29 1 28 30
M  V30 30 1 30 31
M  V30 31 1 31 32
M  V30 32 2 32 33
M  V30 33 1 32 34
M  V30 34 1 33 35
M  V30 35 2 34 36
M  V30 36 2 35 37
M  V30 37 1 35 38
M  V30 38 1 36 39
M  V30 39 1 37 40
M  V30 40 1 38 41
M  V30 41 1 38 42
M  V30 42 1 38 43
M  V30 43 1 39 44
M  V30 44 1 39 45
M  V30 45 1 39 46
M  V30 46 1 14 16
M  V30 47 1 36 37
M  V30 48 1 4 47
M  V30 49 1 4 48
M  V30 50 1 5 49
M  V30 51 1 5 50
M  V30 52 1 6 51
M  V30 53 1 6 52
M  V30 54 1 7 53
M  V30 55 1 7 54
M  V30 56 1 9 55
M  V30 57 1 9 56
M  V30 58 1 10 57
M  V30 59 1 11 58
M  V30 60 1 12 59
M  V30 61 1 12 60
M  V30 62 1 15 61
M  V30 63 1 15 62
M  V30 64 1 19 63
M  V30 65 1 19 64
M  V30 66 1 20 65
M  V30 67 1 21 66
M  V30 68 1 21 67
M  V30 69 1 21 68
M  V30 70 1 22 69
M  V30 71 1 22 70
M  V30 72 1 22 71
M  V30 73 1 23 72
M  V30 74 1 23 73
M  V30 75 1 23 74
M  V30 76 1 24 75
M  V30 77 1 24 76
M  V30 78 1 24 77
M  V30 79 1 25 78
M  V30 80 1 25 79
M  V30 81 1 25 80
M  V30 82 1 26 81
M  V30 83 1 26 82
M  V30 84 1 26 83
M  V30 85 1 30 84
M  V30 86 1 30 85
M  V30 87 1 31 86
M  V30 88 1 31 87
M  V30 89 1 33 88
M  V30 90 1 34 89
M  V30 91 1 40 90
M  V30 92 1 41 91
M  V30 93 1 41 92
M  V30 94 1 41 93
M  V30 95 1 42 94
M  V30 96 1 42 95
M  V30 97 1 42 96
M  V30 98 1 43 97
M  V30 99 1 43 98
M  V30 100 1 43 99
M  V30 101 1 44 100
M  V30 102 1 44 101
M  V30 103 1 44 102
M  V30 104 1 45 103
M  V30 105 1 45 104
M  V30 106 1 45 105
M  V30 107 1 46 106
M  V30 108 1 46 107
M  V30 109 1 46 108
M  V30 END BOND
M  V30 END CTAB
M  END
>  <Structure No>
3099

>  <LogS>
-8.106483276

>  <MMFF94 Energy>
86.926

$$$$
Compound 3100
Actelion Java MolfileCreator 2.0

  0  0  0  0  0  0              0 V3000
M  V30 BEGIN CTAB
M  V30 COUNTS 43 45 0 0 0
M  V30 BEGIN ATOM
M  V30 1 O 9.7123 -0.2419 -0.4032 0
M  V30 2 N 9.1089 0.7767 -0.8001 0 CHG=1
M  V30 3 O 9.8439 1.8412 -1.2698 0 CHG=-1
M  V30 4 C 7.6711 0.8383 -0.7672 0
M  V30 5 C 6.998 1.9885 -1.2149 0
M  V30 6 C 6.9162 -0.2479 -0.2878 0
M  V30 7 C 5.6016 2.0508 -1.184 0
M  V30 8 C 5.5198 -0.1838 -0.2575 0
M  V30 9 C 4.8536 0.9694 -0.7068 0
M  V30 10 N 3.4244 1.0678 -0.69 0
M  V30 11 N 2.685 0.1216 -0.2684 0
M  V30 12 C 1.2555 0.2189 -0.2515 0
M  V30 13 C 0.5095 -0.8629 0.2267 0
M  V30 14 C 0.5911 1.3693 -0.7023 0
M  V30 15 C -0.8996 -0.8129 0.2615 0
M  V30 16 C -0.8022 1.4316 -0.6732 0
M  V30 17 O -1.6566 -1.8952 0.7405 0
M  V30 18 C -1.5586 0.3541 -0.1967 0
M  V30 19 C -1.1111 -3.1172 1.2273 0
M  V30 20 N -2.9884 0.4909 -0.1978 0
M  V30 21 N -3.7758 -0.4203 0.2124 0
M  V30 22 C -5.1993 -0.2615 0.2014 0
M  V30 23 C -5.8081 0.9171 -0.2682 0
M  V30 24 C -6.0016 -1.3091 0.6709 0
M  V30 25 C -7.2015 1.0379 -0.2649 0
M  V30 26 C -7.3945 -1.1864 0.6735 0
M  V30 27 C -7.9982 -0.0113 0.2051 0
M  V30 28 O -9.3849 0.1229 0.2026 0
M  V30 29 H 7.55 2.8409 -1.5892 0
M  V30 30 H 7.4052 -1.1472 0.0638 0
M  V30 31 H 5.0996 2.9448 -1.5328 0
M  V30 32 H 4.9634 -1.034 0.1161 0
M  V30 33 H 1.0395 -1.7412 0.57 0
M  V30 34 H 1.1468 2.2195 -1.0769 0
M  V30 35 H -1.2997 2.3272 -1.025 0
M  V30 36 H -1.9404 -3.7852 1.5375 0
M  V30 37 H -0.5294 -3.6215 0.4271 0
M  V30 38 H -0.4638 -2.9224 2.1085 0
M  V30 39 H -5.2102 1.7408 -0.6364 0
M  V30 40 H -5.545 -2.2212 1.0349 0
M  V30 41 H -7.6628 1.9477 -0.628 0
M  V30 42 H -8.003 -2.0038 1.0393 0
M  V30 43 H -9.9891 -0.619 0.536 0
M  V30 END ATOM
M  V30 BEGIN BOND
M  V30 1 2 1 2
M  V30 2 1 2 3
M  V30 3 1 2 4
M  V30 4 2 4 5
M  V30 5 1 4 6
M  V30 6 1 5 7
M  V30 7 2 6 8
M  V30 8 2 7 9
M  V30 9 1 9 10
M  V30 10 2 10 11
M  V30 11 1 11 12
M  V30 12 2 12 13
M  V30 13 1 12 14
M  V30 14 1 13 15
M  V30 15 2 14 16
M  V30 16 1 15 17
M  V30 17 2 15 18
M  V30 18 1 17 19
M  V30 19 1 18 20
M  V30 20 2 20 21
M  V30 21 1 21 22
M  V30 22 2 22 23
M  V30 23 1 22 24
M  V30 24 1 23 25
M  V30 25 2 24 26
M  V30 26 2 25 27
M  V30 27 1 27 28
M  V30 28 1 8 9
M  V30 29 1 16 18
M  V30 30 1 26 27
M  V30 31 1 5 29
M  V30 32 1 6 30
M  V30 33 1 7 31
M  V30 34 1 8 32
M  V30 35 1 13 33
M  V30 36 1 14 34
M  V30 37 1 16 35
M  V30 38 1 19 36
M  V30 39 1 19 37
M  V30 40 1 19 38
M  V30 41 1 23 39
M  V30 42 1 24 40
M  V30 43 1 25 41
M  V30 44 1 26 42
M  V30 45 1 28 43
M  V30 END BOND
M  V30 END CTAB
M  END
>  <Structure No>
3100

>  <LogS>
-6.963972007

>  <MMFF94 Energy>
100.31

$$$$
Compound 3101
Actelion Java MolfileCreator 2.0

  0  0  0  0  0  0              0 V3000
M  V30 BEGIN CTAB
M  V30 COUNTS 47 48 0 0 0
M  V30 BEGIN ATOM
M  V30 1 Cl -4.7598 0.8194 -3.1166 0
M  V30 2 C -5.5104 -0.0173 -1.7625 0
M  V30 3 C -4.7646 -0.3359 -0.6141 0
M  V30 4 C -6.8622 -0.3613 -1.8537 0
M  V30 5 N -3.3771 0.0428 -0.5913 0
M  V30 6 C -5.411 -1.0043 0.4586 0
M  V30 7 C -7.5036 -1.0276 -0.8001 0
M  V30 8 N -2.5716 -0.2646 0.3431 0
M  V30 9 Cl -4.6041 -1.4322 1.9664 0
M  V30 10 C -6.7663 -1.3418 0.3529 0
M  V30 11 N -8.8967 -1.3779 -0.9003 0 CHG=1
M  V30 12 C -1.1962 0.1344 0.3254 0
M  V30 13 O -9.4799 -1.9502 0.0442 0
M  V30 14 O -9.6102 -1.0899 -2.0417 0 CHG=-1
M  V30 15 C -0.3647 -0.2527 1.3833 0
M  V30 16 C -0.6632 0.9019 -0.7267 0
M  V30 17 C 0.9827 0.1187 1.3955 0
M  V30 18 C 0.6844 1.2735 -0.7128 0
M  V30 19 C 1.5118 0.8845 0.3482 0
M  V30 20 N 2.8956 1.264 0.3567 0
M  V30 21 C 3.863 0.4472 -0.3868 0
M  V30 22 C 3.2783 2.5601 0.9308 0
M  V30 23 C 4.136 -0.8655 0.351 0
M  V30 24 C 3.2501 2.4981 2.4588 0
M  V30 25 O 5.1683 -1.6008 -0.3031 0
M  V30 26 C 3.7001 3.7702 3.0336 0
M  V30 27 C 4.9681 -2.3213 -1.4857 0
M  V30 28 N 4.0542 4.7742 3.4871 0
M  V30 29 O 3.8288 -2.3765 -2.0244 0
M  V30 30 C 6.1255 -2.9957 -2.1393 0
M  V30 31 H -7.4103 -0.1034 -2.7507 0
M  V30 32 H -7.2462 -1.8507 1.1797 0
M  V30 33 H -0.763 -0.8448 2.198 0
M  V30 34 H -1.2855 1.2132 -1.5559 0
M  V30 35 H 1.6161 -0.1905 2.217 0
M  V30 36 H 1.0867 1.8638 -1.5264 0
M  V30 37 H 3.4657 0.236 -1.4028 0
M  V30 38 H 4.8252 0.9881 -0.5133 0
M  V30 39 H 2.5788 3.3467 0.5699 0
M  V30 40 H 4.2994 2.8499 0.5986 0
M  V30 41 H 4.4694 -0.6366 1.3859 0
M  V30 42 H 3.2119 -1.481 0.4147 0
M  V30 43 H 2.2181 2.297 2.8142 0
M  V30 44 H 3.9184 1.686 2.8147 0
M  V30 45 H 6.5267 -2.345 -2.9439 0
M  V30 46 H 5.805 -3.9649 -2.5761 0
M  V30 47 H 6.9247 -3.1864 -1.3927 0
M  V30 END ATOM
M  V30 BEGIN BOND
M  V30 1 1 1 2
M  V30 2 2 2 3
M  V30 3 1 2 4
M  V30 4 1 3 5
M  V30 5 1 3 6
M  V30 6 2 4 7
M  V30 7 2 5 8
M  V30 8 1 6 9
M  V30 9 2 6 10
M  V30 10 1 7 11
M  V30 11 1 8 12
M  V30 12 2 11 13
M  V30 13 1 11 14
M  V30 14 2 12 15
M  V30 15 1 12 16
M  V30 16 1 15 17
M  V30 17 2 16 18
M  V30 18 2 17 19
M  V30 19 1 19 20
M  V30 20 1 20 21
M  V30 21 1 20 22
M  V30 22 1 21 23
M  V30 23 1 22 24
M  V30 24 1 23 25
M  V30 25 1 24 26
M  V30 26 1 25 27
M  V30 27 3 26 28
M  V30 28 2 27 29
M  V30 29 1 27 30
M  V30 30 1 7 10
M  V30 31 1 18 19
M  V30 32 1 4 31
M  V30 33 1 10 32
M  V30 34 1 15 33
M  V30 35 1 16 34
M  V30 36 1 17 35
M  V30 37 1 18 36
M  V30 38 1 21 37
M  V30 39 1 21 38
M  V30 40 1 22 39
M  V30 41 1 22 40
M  V30 42 1 23 41
M  V30 43 1 23 42
M  V30 44 1 24 43
M  V30 45 1 24 44
M  V30 46 1 30 45
M  V30 47 1 30 46
M  V30 48 1 30 47
M  V30 END BOND
M  V30 END CTAB
M  END
>  <Structure No>
3101

>  <LogS>
-7.051424595

>  <MMFF94 Energy>
78.93

$$$$
Compound 3102
Actelion Java MolfileCreator 2.0

  0  0  0  0  0  0              0 V3000
M  V30 BEGIN CTAB
M  V30 COUNTS 66 67 0 0 0
M  V30 BEGIN ATOM
M  V30 1 O -3.5599 -1.66 -2.6888 0
M  V30 2 C -2.7224 -0.8951 -1.8781 0
M  V30 3 C -2.728 -1.0481 -0.4694 0
M  V30 4 C -1.8729 0.0311 -2.4887 0
M  V30 5 C -1.8492 -0.226 0.2756 0
M  V30 6 C -3.6629 -2.0779 0.2238 0
M  V30 7 C -0.9986 0.8321 -1.7434 0
M  V30 8 C -0.9827 0.7091 -0.3298 0
M  V30 9 C -3.5158 -2.0933 1.7678 0
M  V30 10 C -5.1407 -1.7415 -0.081 0
M  V30 11 C -3.3358 -3.5058 -0.2701 0
M  V30 12 C -0.1221 1.7991 -2.4958 0
M  V30 13 C -0.0757 1.5381 0.5955 0
M  V30 14 C 1.4198 1.2855 0.3142 0
M  V30 15 C -0.5933 2.9834 0.7889 0
M  V30 16 C 2.4079 2.2425 -0.0725 0
M  V30 17 C 1.8272 -0.0575 0.4825 0
M  V30 18 C -2.0286 3.0208 1.3444 0
M  V30 19 C 3.732 1.814 -0.2531 0
M  V30 20 C 2.1397 3.7078 -0.3162 0
M  V30 21 C 3.1547 -0.4969 0.2771 0
M  V30 22 C -2.4744 4.4529 1.6264 0
M  V30 23 C 4.1093 0.4799 -0.0889 0
M  V30 24 C 3.5536 -1.9895 0.4482 0
M  V30 25 O 5.4455 0.139 -0.2948 0
M  V30 26 C 2.3593 -2.9006 0.836 0
M  V30 27 C 4.1216 -2.5413 -0.8796 0
M  V30 28 C 4.6079 -2.1308 1.5697 0
M  V30 29 H -3.5682 -1.5629 -3.6975 0
M  V30 30 H -1.8983 0.1217 -3.5681 0
M  V30 31 H -1.8226 -0.2967 1.3505 0
M  V30 32 H -4.1977 -2.8437 2.2244 0
M  V30 33 H -3.7798 -1.105 2.203 0
M  V30 34 H -2.4808 -2.3679 2.0663 0
M  V30 35 H -5.8231 -2.409 0.4888 0
M  V30 36 H -5.3632 -0.6908 0.2054 0
M  V30 37 H -5.392 -1.871 -1.1513 0
M  V30 38 H -2.257 -3.7271 -0.1192 0
M  V30 39 H -3.5737 -3.6475 -1.3419 0
M  V30 40 H -3.9275 -4.2624 0.2895 0
M  V30 41 H -0.2249 1.6758 -3.5948 0
M  V30 42 H -0.4143 2.8404 -2.2657 0
M  V30 43 H 0.9442 1.6217 -2.266 0
M  V30 44 H -0.1802 1.1248 1.6253 0
M  V30 45 H 0.0536 3.4936 1.5315 0
M  V30 46 H -0.5923 3.5449 -0.1606 0
M  V30 47 H 1.0666 -0.7605 0.7835 0
M  V30 48 H -2.0865 2.4366 2.2886 0
M  V30 49 H -2.7328 2.5735 0.6103 0
M  V30 50 H 4.4963 2.5281 -0.536 0
M  V30 51 H 1.8991 4.2264 0.631 0
M  V30 52 H 3.032 4.2266 -0.727 0
M  V30 53 H 1.3524 3.8455 -1.0772 0
M  V30 54 H -1.812 4.9217 2.385 0
M  V30 55 H -2.4485 5.0557 0.6937 0
M  V30 56 H -3.5137 4.4486 2.0177 0
M  V30 57 H 6.1423 0.8262 -0.5576 0
M  V30 58 H 2.6838 -3.9591 0.9381 0
M  V30 59 H 1.9272 -2.5972 1.8143 0
M  V30 60 H 1.5682 -2.8742 0.0552 0
M  V30 61 H 5.0829 -2.0684 -1.1581 0
M  V30 62 H 3.3974 -2.3748 -1.7062 0
M  V30 63 H 4.3159 -3.6331 -0.8026 0
M  V30 64 H 4.8313 -3.2016 1.7681 0
M  V30 65 H 5.5696 -1.6485 1.3085 0
M  V30 66 H 4.2322 -1.6739 2.5107 0
M  V30 END ATOM
M  V30 BEGIN BOND
M  V30 1 1 1 2
M  V30 2 2 2 3
M  V30 3 1 2 4
M  V30 4 1 3 5
M  V30 5 1 3 6
M  V30 6 2 4 7
M  V30 7 2 5 8
M  V30 8 1 6 9
M  V30 9 1 6 10
M  V30 10 1 6 11
M  V30 11 1 7 12
M  V30 12 1 8 13
M  V30 13 1 13 14
M  V30 14 1 13 15
M  V30 15 2 14 16
M  V30 16 1 14 17
M  V30 17 1 15 18
M  V30 18 1 16 19
M  V30 19 1 16 20
M  V30 20 2 17 21
M  V30 21 1 18 22
M  V30 22 2 19 23
M  V30 23 1 21 24
M  V30 24 1 23 25
M  V30 25 1 24 26
M  V30 26 1 24 27
M  V30 27 1 24 28
M  V30 28 1 7 8
M  V30 29 1 21 23
M  V30 30 1 1 29
M  V30 31 1 4 30
M  V30 32 1 5 31
M  V30 33 1 9 32
M  V30 34 1 9 33
M  V30 35 1 9 34
M  V30 36 1 10 35
M  V30 37 1 10 36
M  V30 38 1 10 37
M  V30 39 1 11 38
M  V30 40 1 11 39
M  V30 41 1 11 40
M  V30 42 1 12 41
M  V30 43 1 12 42
M  V30 44 1 12 43
M  V30 45 1 13 44
M  V30 46 1 15 45
M  V30 47 1 15 46
M  V30 48 1 17 47
M  V30 49 1 18 48
M  V30 50 1 18 49
M  V30 51 1 19 50
M  V30 52 1 20 51
M  V30 53 1 20 52
M  V30 54 1 20 53
M  V30 55 1 22 54
M  V30 56 1 22 55
M  V30 57 1 22 56
M  V30 58 1 25 57
M  V30 59 1 26 58
M  V30 60 1 26 59
M  V30 61 1 26 60
M  V30 62 1 27 61
M  V30 63 1 27 62
M  V30 64 1 27 63
M  V30 65 1 28 64
M  V30 66 1 28 65
M  V30 67 1 28 66
M  V30 END BOND
M  V30 END CTAB
M  END
>  <Structure No>
3102

>  <LogS>
-7.980671353

>  <MMFF94 Energy>
83.459

$$$$
Compound 3103
Actelion Java MolfileCreator 2.0

  0  0  0  0  0  0              0 V3000
M  V30 BEGIN CTAB
M  V30 COUNTS 129 128 0 0 0
M  V30 BEGIN ATOM
M  V30 1 S -1.0243 -2.7596 0.709 0
M  V30 2 C 0.7199 -2.2165 0.799 0
M  V30 3 C -1.2783 -2.9404 2.5133 0
M  V30 4 C 0.818 -0.7213 1.1243 0
M  V30 5 C -2.6915 -3.4487 2.8159 0
M  V30 6 C 2.2123 -0.1822 0.9793 0
M  V30 7 C -3.7606 -2.4215 2.5671 0
M  V30 8 O 3.2007 -0.962 0.8877 0
M  V30 9 O 2.4017 1.2033 0.9958 0
M  V30 10 O -4.925 -2.6367 3.001 0
M  V30 11 O -3.4799 -1.2575 1.8407 0
M  V30 12 C 3.6617 1.8272 0.7567 0
M  V30 13 C -4.4694 -0.2979 1.4719 0
M  V30 14 C 3.9685 1.8383 -0.7453 0
M  V30 15 C -5.3558 -0.8239 0.3367 0
M  V30 16 C 5.2658 2.6095 -1.0684 0
M  V30 17 C -4.5477 -1.084 -0.944 0
M  V30 18 C 6.4305 1.7029 -1.4921 0
M  V30 19 C -5.3744 -1.7754 -2.0408 0
M  V30 20 C 6.9731 0.8479 -0.335 0
M  V30 21 C -6.5174 -0.901 -2.5993 0
M  V30 22 C 8.1487 -0.0528 -0.7592 0
M  V30 23 C -7.8859 -1.3013 -2.025 0
M  V30 24 C 9.402 0.6919 -1.2643 0
M  V30 25 C -8.9972 -0.388 -2.5647 0
M  V30 26 C 10.0035 1.7023 -0.2671 0
M  V30 27 C -10.3909 -0.7897 -2.0523 0
M  V30 28 C 10.4827 1.0875 1.0633 0
M  V30 29 C -10.641 -0.3198 -0.6094 0
M  V30 30 C 11.5671 0.0022 0.9213 0
M  V30 31 C -11.965 -0.8424 -0.0268 0
M  V30 32 C 12.8548 0.5273 0.2683 0
M  V30 33 C -13.231 -0.4271 -0.7964 0
M  V30 34 C 13.9557 -0.5435 0.2664 0
M  V30 35 C -13.4091 1.0975 -0.8829 0
M  V30 36 C 15.2086 -0.0963 -0.5049 0
M  V30 37 C -14.7327 1.5086 -1.5526 0
M  V30 38 C 16.0457 0.9334 0.2743 0
M  V30 39 C -16.0009 1.1726 -0.7468 0
M  V30 40 C 17.3296 1.3407 -0.4766 0
M  V30 41 C -16.0333 1.8554 0.6314 0
M  V30 42 C 18.6012 0.6151 0.0051 0
M  V30 43 C -17.4228 1.8091 1.289 0
M  V30 44 C 18.6949 -0.856 -0.4456 0
M  V30 45 C -17.9487 0.3941 1.5839 0
M  V30 46 C 18.3027 -1.8321 0.6631 0
M  V30 47 C -17.0711 -0.3759 2.5696 0
M  V30 48 H 1.2771 -2.8139 1.5528 0
M  V30 49 H 1.1747 -2.4043 -0.1968 0
M  V30 50 H -0.5456 -3.6804 2.9027 0
M  V30 51 H -1.1095 -1.9738 3.0325 0
M  V30 52 H 0.1523 -0.1532 0.4413 0
M  V30 53 H 0.4844 -0.5359 2.1644 0
M  V30 54 H -2.904 -4.3509 2.2021 0
M  V30 55 H -2.7344 -3.7473 3.8866 0
M  V30 56 H 4.464 1.3102 1.3254 0
M  V30 57 H 3.601 2.8742 1.125 0
M  V30 58 H -3.9584 0.6305 1.1375 0
M  V30 59 H -5.0967 -0.0397 2.3536 0
M  V30 60 H 3.1186 2.3361 -1.2627 0
M  V30 61 H 4.0129 0.7967 -1.1294 0
M  V30 62 H -5.8625 -1.7589 0.6619 0
M  V30 63 H -6.1323 -0.0591 0.1314 0
M  V30 64 H 5.5843 3.2535 -0.2183 0
M  V30 65 H 5.056 3.2973 -1.9174 0
M  V30 66 H -4.1366 -0.1265 -1.3318 0
M  V30 67 H -3.687 -1.7482 -0.7045 0
M  V30 68 H 6.1132 1.0478 -2.332 0
M  V30 69 H 7.2368 2.3669 -1.8674 0
M  V30 70 H -4.6801 -2.0091 -2.8776 0
M  V30 71 H -5.757 -2.7526 -1.6689 0
M  V30 72 H 7.272 1.4948 0.5164 0
M  V30 73 H 6.1638 0.1816 0.0304 0
M  V30 74 H -6.3204 0.177 -2.4022 0
M  V30 75 H -6.554 -1.0301 -3.7056 0
M  V30 76 H 7.8013 -0.735 -1.5644 0
M  V30 77 H 8.4287 -0.7017 0.0959 0
M  V30 78 H -8.1073 -2.3549 -2.3084 0
M  V30 79 H -7.8569 -1.2425 -0.9195 0
M  V30 80 H 10.1722 -0.0562 -1.5445 0
M  V30 81 H 9.1599 1.2244 -2.2073 0
M  V30 82 H -8.7873 0.6717 -2.2983 0
M  V30 83 H -9.0046 -0.4605 -3.674 0
M  V30 84 H 9.2565 2.4938 -0.0457 0
M  V30 85 H 10.8487 2.227 -0.7597 0
M  V30 86 H -11.1415 -0.3148 -2.7175 0
M  V30 87 H -10.5214 -1.8909 -2.127 0
M  V30 88 H 10.8815 1.9056 1.7023 0
M  V30 89 H 9.6135 0.6586 1.6073 0
M  V30 90 H -9.8275 -0.6887 0.0486 0
M  V30 91 H -10.6115 0.7876 -0.5607 0
M  V30 92 H 11.1737 -0.8634 0.3489 0
M  V30 93 H 11.8092 -0.3687 1.9412 0
M  V30 94 H -11.9255 -1.9524 0.0109 0
M  V30 95 H -12.0531 -0.4872 1.0239 0
M  V30 96 H 12.6452 0.8196 -0.781 0
M  V30 97 H 13.2026 1.4211 0.8259 0
M  V30 98 H -13.2239 -0.8667 -1.8161 0
M  V30 99 H -14.0928 -0.8697 -0.2557 0
M  V30 100 H 14.2283 -0.8139 1.3097 0
M  V30 101 H 13.5593 -1.4586 -0.224 0
M  V30 102 H -13.3203 1.5568 0.1228 0
M  V30 103 H -12.59 1.5193 -1.5007 0
M  V30 104 H 15.8203 -0.9968 -0.7075 0
M  V30 105 H 14.9129 0.3247 -1.4909 0
M  V30 106 H -14.7088 2.6052 -1.7355 0
M  V30 107 H -14.802 1.0191 -2.547 0
M  V30 108 H 15.4311 1.8475 0.4154 0
M  V30 109 H 16.2887 0.5491 1.288 0
M  V30 110 H -16.8753 1.5166 -1.3414 0
M  V30 111 H -16.0994 0.0745 -0.6345 0
M  V30 112 H 17.4911 2.4278 -0.3037 0
M  V30 113 H 17.2113 1.2186 -1.5765 0
M  V30 114 H -15.287 1.3915 1.308 0
M  V30 115 H -15.7513 2.9244 0.5108 0
M  V30 116 H 19.4686 1.1575 -0.4304 0
M  V30 117 H 18.7043 0.7077 1.1095 0
M  V30 118 H -18.1518 2.3289 0.6297 0
M  V30 119 H -17.382 2.3837 2.24 0
M  V30 120 H 19.7466 -1.0751 -0.7319 0
M  V30 121 H 18.0767 -1.0381 -1.3496 0
M  V30 122 H -18.0582 -0.1856 0.6439 0
M  V30 123 H -18.9648 0.4912 2.0272 0
M  V30 124 H 17.2821 -1.6243 1.0429 0
M  V30 125 H 18.3321 -2.8709 0.2693 0
M  V30 126 H 19.0213 -1.7562 1.5064 0
M  V30 127 H -17.5869 -1.3134 2.8665 0
M  V30 128 H -16.8848 0.2295 3.4822 0
M  V30 129 H -16.1039 -0.6495 2.0998 0
M  V30 END ATOM
M  V30 BEGIN BOND
M  V30 1 1 1 2
M  V30 2 1 1 3
M  V30 3 1 2 4
M  V30 4 1 3 5
M  V30 5 1 4 6
M  V30 6 1 5 7
M  V30 7 2 6 8
M  V30 8 1 6 9
M  V30 9 2 7 10
M  V30 10 1 7 11
M  V30 11 1 9 12
M  V30 12 1 11 13
M  V30 13 1 12 14
M  V30 14 1 13 15
M  V30 15 1 14 16
M  V30 16 1 15 17
M  V30 17 1 16 18
M  V30 18 1 17 19
M  V30 19 1 18 20
M  V30 20 1 19 21
M  V30 21 1 20 22
M  V30 22 1 21 23
M  V30 23 1 22 24
M  V30 24 1 23 25
M  V30 25 1 24 26
M  V30 26 1 25 27
M  V30 27 1 26 28
M  V30 28 1 27 29
M  V30 29 1 28 30
M  V30 30 1 29 31
M  V30 31 1 30 32
M  V30 32 1 31 33
M  V30 33 1 32 34
M  V30 34 1 33 35
M  V30 35 1 34 36
M  V30 36 1 35 37
M  V30 37 1 36 38
M  V30 38 1 37 39
M  V30 39 1 38 40
M  V30 40 1 39 41
M  V30 41 1 40 42
M  V30 42 1 41 43
M  V30 43 1 42 44
M  V30 44 1 43 45
M  V30 45 1 44 46
M  V30 46 1 45 47
M  V30 47 1 2 48
M  V30 48 1 2 49
M  V30 49 1 3 50
M  V30 50 1 3 51
M  V30 51 1 4 52
M  V30 52 1 4 53
M  V30 53 1 5 54
M  V30 54 1 5 55
M  V30 55 1 12 56
M  V30 56 1 12 57
M  V30 57 1 13 58
M  V30 58 1 13 59
M  V30 59 1 14 60
M  V30 60 1 14 61
M  V30 61 1 15 62
M  V30 62 1 15 63
M  V30 63 1 16 64
M  V30 64 1 16 65
M  V30 65 1 17 66
M  V30 66 1 17 67
M  V30 67 1 18 68
M  V30 68 1 18 69
M  V30 69 1 19 70
M  V30 70 1 19 71
M  V30 71 1 20 72
M  V30 72 1 20 73
M  V30 73 1 21 74
M  V30 74 1 21 75
M  V30 75 1 22 76
M  V30 76 1 22 77
M  V30 77 1 23 78
M  V30 78 1 23 79
M  V30 79 1 24 80
M  V30 80 1 24 81
M  V30 81 1 25 82
M  V30 82 1 25 83
M  V30 83 1 26 84
M  V30 84 1 26 85
M  V30 85 1 27 86
M  V30 86 1 27 87
M  V30 87 1 28 88
M  V30 88 1 28 89
M  V30 89 1 29 90
M  V30 90 1 29 91
M  V30 91 1 30 92
M  V30 92 1 30 93
M  V30 93 1 31 94
M  V30 94 1 31 95
M  V30 95 1 32 96
M  V30 96 1 32 97
M  V30 97 1 33 98
M  V30 98 1 33 99
M  V30 99 1 34 100
M  V30 100 1 34 101
M  V30 101 1 35 102
M  V30 102 1 35 103
M  V30 103 1 36 104
M  V30 104 1 36 105
M  V30 105 1 37 106
M  V30 106 1 37 107
M  V30 107 1 38 108
M  V30 108 1 38 109
M  V30 109 1 39 110
M  V30 110 1 39 111
M  V30 111 1 40 112
M  V30 112 1 40 113
M  V30 113 1 41 114
M  V30 114 1 41 115
M  V30 115 1 42 116
M  V30 116 1 42 117
M  V30 117 1 43 118
M  V30 118 1 43 119
M  V30 119 1 44 120
M  V30 120 1 44 121
M  V30 121 1 45 122
M  V30 122 1 45 123
M  V30 123 1 46 124
M  V30 124 1 46 125
M  V30 125 1 46 126
M  V30 126 1 47 127
M  V30 127 1 47 128
M  V30 128 1 47 129
M  V30 END BOND
M  V30 END CTAB
M  END
>  <Structure No>
3103

>  <LogS>
-8.232475788

>  <MMFF94 Energy>
-29.735

$$$$
Compound 3104
Actelion Java MolfileCreator 2.0

  0  0  0  0  0  0              0 V3000
M  V30 BEGIN CTAB
M  V30 COUNTS 60 59 0 0 0
M  V30 BEGIN ATOM
M  V30 1 O -2.2745 4.0027 0.3918 0
M  V30 2 C -1.5749 2.9557 0.4478 0
M  V30 3 O -1.9978 1.7851 -0.1946 0
M  V30 4 C -0.3523 2.9611 1.2687 0
M  V30 5 C -3.2178 1.6835 -0.9286 0
M  V30 6 C 0.7342 2.2012 1.0616 0
M  V30 7 C -4.4443 1.6216 0.012 0 CFG=2
M  V30 8 C 1.0093 1.3818 -0.1338 0
M  V30 9 C -4.2857 0.553 1.1285 0
M  V30 10 C -5.7465 1.4571 -0.808 0
M  V30 11 O 0.4156 1.5978 -1.2253 0
M  V30 12 O 2.0128 0.4125 -0.0602 0
M  V30 13 C -4.21 -0.9147 0.638 0
M  V30 14 C -6.9988 1.8214 -0.0085 0
M  V30 15 C 2.3774 -0.4065 -1.1687 0
M  V30 16 C -5.4754 -1.7278 0.9545 0
M  V30 17 C 3.6044 -1.2633 -0.8066 0 CFG=2
M  V30 18 C -5.5575 -2.1299 2.4269 0
M  V30 19 C 4.8452 -0.3571 -0.549 0
M  V30 20 C 3.8566 -2.2932 -1.9352 0
M  V30 21 C 5.6377 -0.7955 0.6962 0
M  V30 22 C 4.9548 -3.3012 -1.5979 0
M  V30 23 C 6.8326 0.124 0.9917 0
M  V30 24 C 7.9628 -0.0278 -0.0277 0
M  V30 25 H -0.3485 3.6158 2.132 0
M  V30 26 H -3.3076 2.5528 -1.6175 0
M  V30 27 H -3.1698 0.7769 -1.566 0
M  V30 28 H 1.5128 2.23 1.8139 0
M  V30 29 H -4.4997 2.6093 0.521 0
M  V30 30 H -5.1028 0.683 1.8666 0
M  V30 31 H -3.3597 0.778 1.6995 0
M  V30 32 H -5.7128 2.1321 -1.6905 0
M  V30 33 H -5.8424 0.4221 -1.1963 0
M  V30 34 H -4.0363 -0.9621 -0.4548 0
M  V30 35 H -3.3317 -1.4134 1.1049 0
M  V30 36 H -7.89 1.7358 -0.6635 0
M  V30 37 H -6.9326 2.8673 0.358 0
M  V30 38 H -7.1377 1.1406 0.8542 0
M  V30 39 H 1.5151 -1.0608 -1.4256 0
M  V30 40 H 2.6131 0.2318 -2.0497 0
M  V30 41 H -5.462 -2.6563 0.3435 0
M  V30 42 H -6.3846 -1.1567 0.6714 0
M  V30 43 H 3.3406 -1.8246 0.119 0
M  V30 44 H -6.4876 -2.7076 2.6011 0
M  V30 45 H -4.689 -2.7672 2.7017 0
M  V30 46 H -5.5736 -1.2371 3.0849 0
M  V30 47 H 5.5039 -0.3538 -1.4429 0
M  V30 48 H 4.5339 0.6991 -0.3919 0
M  V30 49 H 2.9215 -2.8678 -2.1213 0
M  V30 50 H 4.1211 -1.7687 -2.8807 0
M  V30 51 H 5.9922 -1.8415 0.5898 0
M  V30 52 H 4.9584 -0.7637 1.5766 0
M  V30 53 H 5.9475 -2.8053 -1.5695 0
M  V30 54 H 4.7495 -3.7891 -0.6209 0
M  V30 55 H 4.9879 -4.0848 -2.384 0
M  V30 56 H 7.2342 -0.1355 1.9951 0
M  V30 57 H 6.5009 1.184 1.0269 0
M  V30 58 H 8.8441 0.5558 0.3099 0
M  V30 59 H 8.261 -1.094 -0.1236 0
M  V30 60 H 7.654 0.3615 -1.0209 0
M  V30 END ATOM
M  V30 BEGIN BOND
M  V30 1 2 1 2
M  V30 2 1 2 3
M  V30 3 1 2 4
M  V30 4 1 3 5
M  V30 5 2 4 6
M  V30 6 1 5 7
M  V30 7 1 6 8
M  V30 8 1 7 9
M  V30 9 1 7 10
M  V30 10 2 8 11
M  V30 11 1 8 12
M  V30 12 1 9 13
M  V30 13 1 10 14
M  V30 14 1 12 15
M  V30 15 1 13 16
M  V30 16 1 15 17
M  V30 17 1 16 18
M  V30 18 1 17 19
M  V30 19 1 17 20
M  V30 20 1 19 21
M  V30 21 1 20 22
M  V30 22 1 21 23
M  V30 23 1 23 24
M  V30 24 1 4 25
M  V30 25 1 5 26
M  V30 26 1 5 27
M  V30 27 1 6 28
M  V30 28 1 7 29
M  V30 29 1 9 30
M  V30 30 1 9 31
M  V30 31 1 10 32
M  V30 32 1 10 33
M  V30 33 1 13 34
M  V30 34 1 13 35
M  V30 35 1 14 36
M  V30 36 1 14 37
M  V30 37 1 14 38
M  V30 38 1 15 39
M  V30 39 1 15 40
M  V30 40 1 16 41
M  V30 41 1 16 42
M  V30 42 1 17 43
M  V30 43 1 18 44
M  V30 44 1 18 45
M  V30 45 1 18 46
M  V30 46 1 19 47
M  V30 47 1 19 48
M  V30 48 1 20 49
M  V30 49 1 20 50
M  V30 50 1 21 51
M  V30 51 1 21 52
M  V30 52 1 22 53
M  V30 53 1 22 54
M  V30 54 1 22 55
M  V30 55 1 23 56
M  V30 56 1 23 57
M  V30 57 1 24 58
M  V30 58 1 24 59
M  V30 59 1 24 60
M  V30 END BOND
M  V30 BEGIN COLLECTION
M  V30 MDLV30/STEABS ATOMS=(2 7 17)
M  V30 END COLLECTION
M  V30 END CTAB
M  END
>  <Structure No>
3104

>  <LogS>
-6.975819717

>  <MMFF94 Energy>
-18.768

$$$$
Compound 3105
Actelion Java MolfileCreator 2.0

  0  0  0  0  0  0              0 V3000
M  V30 BEGIN CTAB
M  V30 COUNTS 49 50 0 0 0
M  V30 BEGIN ATOM
M  V30 1 Cl 4.2219 -2.6777 -2.1092 0
M  V30 2 C 4.8153 -1.2659 -1.241 0
M  V30 3 C 3.9193 -0.3629 -0.6405 0
M  V30 4 C 6.195 -1.0651 -1.1484 0
M  V30 5 N 2.5134 -0.6551 -0.7231 0
M  V30 6 C 4.4367 0.7607 0.0554 0
M  V30 7 C 6.7144 0.0267 -0.4377 0
M  V30 8 N 1.6125 0.0584 -0.1761 0
M  V30 9 N 3.5824 1.7314 0.6591 0 CHG=1
M  V30 10 C 5.8251 0.9305 0.1633 0
M  V30 11 N 8.136 0.2245 -0.3303 0 CHG=1
M  V30 12 C 0.2189 -0.2692 -0.2601 0
M  V30 13 O 2.9415 2.5213 -0.0668 0
M  V30 14 O 3.7161 2.011 2.0054 0 CHG=-1
M  V30 15 O 8.926 -0.4615 -1.0091 0
M  V30 16 O 8.6478 1.1984 0.496 0 CHG=-1
M  V30 17 C -0.7251 0.5526 0.3802 0
M  V30 18 C -0.2178 -1.3942 -0.9778 0
M  V30 19 N -0.2851 1.6927 1.1451 0
M  V30 20 C -2.0893 0.2175 0.3192 0
M  V30 21 C -1.5758 -1.7067 -1.049 0
M  V30 22 C -0.9777 2.9519 1.1755 0
M  V30 23 C -2.5324 -0.9079 -0.3986 0
M  V30 24 O -1.9501 3.1712 0.4013 0
M  V30 25 C -0.5377 4.0206 2.1246 0
M  V30 26 N -3.9433 -1.2402 -0.4573 0
M  V30 27 C -4.381 -2.6466 -0.4651 0
M  V30 28 C -4.9601 -0.1755 -0.5218 0
M  V30 29 C -4.7711 -3.0993 -1.8716 0
M  V30 30 C -5.6437 0.0236 0.8288 0
M  V30 31 H 6.861 -1.7757 -1.6181 0
M  V30 32 H 6.2077 1.7838 0.7054 0
M  V30 33 H 0.4906 -2.0336 -1.4851 0
M  V30 34 H 0.6324 1.6364 1.643 0
M  V30 35 H -2.7993 0.8177 0.8657 0
M  V30 36 H -1.8721 -2.5758 -1.6172 0
M  V30 37 H 0.561 4.1738 2.0382 0
M  V30 38 H -1.0528 4.9819 1.9011 0
M  V30 39 H -0.7838 3.7162 3.1613 0
M  V30 40 H -5.252 -2.7801 0.2099 0
M  V30 41 H -3.5769 -3.308 -0.0741 0
M  V30 42 H -5.7291 -0.426 -1.28 0
M  V30 43 H -4.5018 0.7812 -0.8477 0
M  V30 44 H -3.9502 -2.9047 -2.5919 0
M  V30 45 H -4.9848 -4.1891 -1.8634 0
M  V30 46 H -5.6845 -2.5692 -2.214 0
M  V30 47 H -4.8957 0.1886 1.6295 0
M  V30 48 H -6.3138 0.9077 0.778 0
M  V30 49 H -6.2575 -0.8606 1.0893 0
M  V30 END ATOM
M  V30 BEGIN BOND
M  V30 1 1 1 2
M  V30 2 2 2 3
M  V30 3 1 2 4
M  V30 4 1 3 5
M  V30 5 1 3 6
M  V30 6 2 4 7
M  V30 7 2 5 8
M  V30 8 1 6 9
M  V30 9 2 6 10
M  V30 10 1 7 11
M  V30 11 1 8 12
M  V30 12 2 9 13
M  V30 13 1 9 14
M  V30 14 2 11 15
M  V30 15 1 11 16
M  V30 16 2 12 17
M  V30 17 1 12 18
M  V30 18 1 17 19
M  V30 19 1 17 20
M  V30 20 2 18 21
M  V30 21 1 19 22
M  V30 22 2 20 23
M  V30 23 2 22 24
M  V30 24 1 22 25
M  V30 25 1 23 26
M  V30 26 1 26 27
M  V30 27 1 26 28
M  V30 28 1 27 29
M  V30 29 1 28 30
M  V30 30 1 7 10
M  V30 31 1 21 23
M  V30 32 1 4 31
M  V30 33 1 10 32
M  V30 34 1 18 33
M  V30 35 1 19 34
M  V30 36 1 20 35
M  V30 37 1 21 36
M  V30 38 1 25 37
M  V30 39 1 25 38
M  V30 40 1 25 39
M  V30 41 1 27 40
M  V30 42 1 27 41
M  V30 43 1 28 42
M  V30 44 1 28 43
M  V30 45 1 29 44
M  V30 46 1 29 45
M  V30 47 1 29 46
M  V30 48 1 30 47
M  V30 49 1 30 48
M  V30 50 1 30 49
M  V30 END BOND
M  V30 END CTAB
M  END
>  <Structure No>
3105

>  <LogS>
-7.115885254

>  <MMFF94 Energy>
64.932

$$$$
Compound 3106
Actelion Java MolfileCreator 2.0

  0  0  0  0  0  0              0 V3000
M  V30 BEGIN CTAB
M  V30 COUNTS 54 56 0 0 0
M  V30 BEGIN ATOM
M  V30 1 O 10.0857 -3.3802 -0.1607 0
M  V30 2 N 9.1125 -3.8268 -0.8042 0 CHG=1
M  V30 3 O 9.3249 -4.8466 -1.7022 0 CHG=-1
M  V30 4 C 7.7966 -3.2719 -0.6252 0
M  V30 5 C 6.7132 -3.7529 -1.3798 0
M  V30 6 C 7.5725 -2.2375 0.3024 0
M  V30 7 C 5.4383 -3.2065 -1.2176 0
M  V30 8 C 6.2965 -1.6941 0.4654 0
M  V30 9 C 5.2194 -2.1763 -0.2973 0
M  V30 10 N 3.9016 -1.63 -0.1663 0
M  V30 11 N 3.645 -0.6671 0.6249 0
M  V30 12 C 2.3284 -0.1135 0.7495 0
M  V30 13 C 2.1268 0.9651 1.6168 0
M  V30 14 C 1.2408 -0.6171 0.0128 0
M  V30 15 C 0.8579 1.5389 1.7501 0
M  V30 16 C -0.0289 -0.0454 0.1483 0
M  V30 17 C -0.229 1.0372 1.0183 0
M  V30 18 N -1.534 1.6298 1.1599 0
M  V30 19 C -1.7255 3.0485 0.8266 0
M  V30 20 C -2.6809 0.7976 1.5506 0
M  V30 21 C -1.7475 3.2417 -0.6943 0
M  V30 22 C -2.5192 0.3053 2.9904 0
M  V30 23 O -2.7185 2.389 -1.2959 0
M  V30 24 C -3.6797 -0.4996 3.3887 0
M  V30 25 C -4.0977 2.6017 -1.1953 0
M  V30 26 N -4.5948 -1.1341 3.7039 0
M  V30 27 O -4.5367 3.6918 -0.7394 0
M  V30 28 C -5.0359 1.5365 -1.6091 0
M  V30 29 C -6.4272 1.7357 -1.5363 0
M  V30 30 C -4.5455 0.2977 -2.063 0
M  V30 31 C -7.3076 0.7177 -1.9147 0
M  V30 32 C -5.4315 -0.7166 -2.4388 0
M  V30 33 C -6.8105 -0.5071 -2.3655 0
M  V30 34 H 6.8527 -4.5455 -2.1021 0
M  V30 35 H 8.3846 -1.848 0.9018 0
M  V30 36 H 4.6159 -3.5848 -1.8112 0
M  V30 37 H 6.1535 -0.8989 1.1863 0
M  V30 38 H 2.9558 1.3622 2.1889 0
M  V30 39 H 1.3716 -1.4476 -0.6689 0
M  V30 40 H 0.7198 2.3638 2.4367 0
M  V30 41 H -0.8494 -0.4357 -0.4385 0
M  V30 42 H -2.6758 3.4307 1.2621 0
M  V30 43 H -0.9104 3.6604 1.2655 0
M  V30 44 H -3.6284 1.3769 1.4725 0
M  V30 45 H -2.775 -0.0656 0.8564 0
M  V30 46 H -1.961 4.3023 -0.9463 0
M  V30 47 H -0.7465 2.9888 -1.1059 0
M  V30 48 H -1.6037 -0.317 3.0835 0
M  V30 49 H -2.4333 1.1765 3.6756 0
M  V30 50 H -6.8367 2.6757 -1.1865 0
M  V30 51 H -3.482 0.1095 -2.1251 0
M  V30 52 H -8.3753 0.88 -1.8569 0
M  V30 53 H -5.0492 -1.6657 -2.7892 0
M  V30 54 H -7.4938 -1.2931 -2.6586 0
M  V30 END ATOM
M  V30 BEGIN BOND
M  V30 1 2 1 2
M  V30 2 1 2 3
M  V30 3 1 2 4
M  V30 4 2 4 5
M  V30 5 1 4 6
M  V30 6 1 5 7
M  V30 7 2 6 8
M  V30 8 2 7 9
M  V30 9 1 9 10
M  V30 10 2 10 11
M  V30 11 1 11 12
M  V30 12 2 12 13
M  V30 13 1 12 14
M  V30 14 1 13 15
M  V30 15 2 14 16
M  V30 16 2 15 17
M  V30 17 1 17 18
M  V30 18 1 18 19
M  V30 19 1 18 20
M  V30 20 1 19 21
M  V30 21 1 20 22
M  V30 22 1 21 23
M  V30 23 1 22 24
M  V30 24 1 23 25
M  V30 25 3 24 26
M  V30 26 2 25 27
M  V30 27 1 25 28
M  V30 28 2 28 29
M  V30 29 1 28 30
M  V30 30 1 29 31
M  V30 31 2 30 32
M  V30 32 2 31 33
M  V30 33 1 8 9
M  V30 34 1 16 17
M  V30 35 1 32 33
M  V30 36 1 5 34
M  V30 37 1 6 35
M  V30 38 1 7 36
M  V30 39 1 8 37
M  V30 40 1 13 38
M  V30 41 1 14 39
M  V30 42 1 15 40
M  V30 43 1 16 41
M  V30 44 1 19 42
M  V30 45 1 19 43
M  V30 46 1 20 44
M  V30 47 1 20 45
M  V30 48 1 21 46
M  V30 49 1 21 47
M  V30 50 1 22 48
M  V30 51 1 22 49
M  V30 52 1 29 50
M  V30 53 1 30 51
M  V30 54 1 31 52
M  V30 55 1 32 53
M  V30 56 1 33 54
M  V30 END BOND
M  V30 END CTAB
M  END
>  <Structure No>
3106

>  <LogS>
-7.169736136

>  <MMFF94 Energy>
123.45

$$$$
Compound 3107
Actelion Java MolfileCreator 2.0

  0  0  0  0  0  0              0 V3000
M  V30 BEGIN CTAB
M  V30 COUNTS 49 50 0 0 0
M  V30 BEGIN ATOM
M  V30 1 O 3.7783 4.6642 -3.054 0
M  V30 2 N 3.1452 3.612 -3.2797 0 CHG=1
M  V30 3 O 2.3602 3.5411 -4.4078 0 CHG=-1
M  V30 4 C 3.2306 2.4946 -2.3759 0
M  V30 5 C 2.5232 1.3111 -2.6422 0
M  V30 6 C 4.03 2.5656 -1.2221 0
M  V30 7 C 2.5971 0.2202 -1.7672 0
M  V30 8 C 4.1097 1.481 -0.3404 0
M  V30 9 C 1.912 -0.9996 -2.1193 0
M  V30 10 C 3.3708 0.3112 -0.5908 0
M  V30 11 C 4.9315 1.593 0.8396 0
M  V30 12 N 1.3633 -1.9775 -2.4047 0
M  V30 13 N 3.4552 -0.7911 0.3308 0
M  V30 14 N 5.5903 1.6828 1.7867 0
M  V30 15 N 2.4641 -1.3005 0.9592 0
M  V30 16 C 1.1202 -0.786 0.958 0
M  V30 17 C 0.0348 -1.6744 0.8277 0
M  V30 18 C 0.8752 0.5858 1.1368 0
M  V30 19 N 0.2736 -3.0886 0.7086 0
M  V30 20 C -1.2771 -1.1688 0.8442 0
M  V30 21 C -0.4293 1.0789 1.1314 0
M  V30 22 C -0.495 -3.9587 -0.136 0
M  V30 23 C -1.5148 0.2067 0.9789 0
M  V30 24 O -1.3012 -3.4861 -0.9822 0
M  V30 25 C -0.273 -5.4347 -0.081 0
M  V30 26 N -2.8627 0.7158 0.9691 0
M  V30 27 C -3.3568 1.5034 2.1078 0
M  V30 28 C -3.7365 0.4414 -0.1809 0
M  V30 29 C -3.508 0.6204 3.3419 0
M  V30 30 C -3.2356 1.1762 -1.4198 0
M  V30 31 H 1.9205 1.2311 -3.5391 0
M  V30 32 H 4.5913 3.467 -1.0061 0
M  V30 33 H 1.6935 1.2759 1.2913 0
M  V30 34 H 1.0984 -3.4979 1.2028 0
M  V30 35 H -2.1174 -1.8477 0.7912 0
M  V30 36 H -0.591 2.1434 1.2384 0
M  V30 37 H -0.1353 -5.757 0.9723 0
M  V30 38 H 0.6346 -5.6933 -0.6644 0
M  V30 39 H -1.1463 -5.9733 -0.5065 0
M  V30 40 H -2.6595 2.3379 2.3305 0
M  V30 41 H -4.3426 1.9613 1.8766 0
M  V30 42 H -4.7795 0.7645 0.0256 0
M  V30 43 H -3.7717 -0.6492 -0.3847 0
M  V30 44 H -4.2016 -0.2194 3.1251 0
M  V30 45 H -3.9195 1.2191 4.1817 0
M  V30 46 H -2.5218 0.211 3.6467 0
M  V30 47 H -3.187 2.2678 -1.2204 0
M  V30 48 H -3.9297 0.9961 -2.2673 0
M  V30 49 H -2.2259 0.8109 -1.7036 0
M  V30 END ATOM
M  V30 BEGIN BOND
M  V30 1 2 1 2
M  V30 2 1 2 3
M  V30 3 1 2 4
M  V30 4 2 4 5
M  V30 5 1 4 6
M  V30 6 1 5 7
M  V30 7 2 6 8
M  V30 8 1 7 9
M  V30 9 2 7 10
M  V30 10 1 8 11
M  V30 11 3 9 12
M  V30 12 1 10 13
M  V30 13 3 11 14
M  V30 14 2 13 15
M  V30 15 1 15 16
M  V30 16 2 16 17
M  V30 17 1 16 18
M  V30 18 1 17 19
M  V30 19 1 17 20
M  V30 20 2 18 21
M  V30 21 1 19 22
M  V30 22 2 20 23
M  V30 23 2 22 24
M  V30 24 1 22 25
M  V30 25 1 23 26
M  V30 26 1 26 27
M  V30 27 1 26 28
M  V30 28 1 27 29
M  V30 29 1 28 30
M  V30 30 1 8 10
M  V30 31 1 21 23
M  V30 32 1 5 31
M  V30 33 1 6 32
M  V30 34 1 18 33
M  V30 35 1 19 34
M  V30 36 1 20 35
M  V30 37 1 21 36
M  V30 38 1 25 37
M  V30 39 1 25 38
M  V30 40 1 25 39
M  V30 41 1 27 40
M  V30 42 1 27 41
M  V30 43 1 28 42
M  V30 44 1 28 43
M  V30 45 1 29 44
M  V30 46 1 29 45
M  V30 47 1 29 46
M  V30 48 1 30 47
M  V30 49 1 30 48
M  V30 50 1 30 49
M  V30 END BOND
M  V30 END CTAB
M  END
>  <Structure No>
3107

>  <LogS>
-8.102753049

>  <MMFF94 Energy>
75.636

$$$$
Compound 3108
Actelion Java MolfileCreator 2.0

  0  0  0  0  0  0              0 V3000
M  V30 BEGIN CTAB
M  V30 COUNTS 50 49 0 0 0
M  V30 BEGIN ATOM
M  V30 1 O -3.5905 1.4818 1.0917 0
M  V30 2 C -3.2671 1.2868 -0.1125 0
M  V30 3 O -3.5742 0.0798 -0.7505 0
M  V30 4 C -2.5249 2.3459 -0.8632 0
M  V30 5 C -4.2854 -0.984 -0.1189 0
M  V30 6 C -1.0982 1.9084 -1.2302 0
M  V30 7 C -5.7909 -0.6678 -0.0296 0
M  V30 8 C -0.1507 1.8095 -0.0172 0
M  V30 9 C -6.4032 -0.4995 -1.4262 0
M  V30 10 C -6.5212 -1.7718 0.7415 0
M  V30 11 C -0.1007 0.3916 0.5777 0
M  V30 12 C 0.7391 0.3118 1.8653 0
M  V30 13 C 2.2264 0.6718 1.6981 0
M  V30 14 C 2.9604 -0.2489 0.7133 0
M  V30 15 C 4.4695 0.0193 0.7304 0
M  V30 16 C 5.1993 -0.8779 -0.2748 0
M  V30 17 C 6.7088 -0.6138 -0.2542 0
M  V30 18 C 7.4371 -1.5083 -1.2516 0
M  V30 19 H -3.0843 2.5586 -1.7993 0
M  V30 20 H -2.4945 3.2892 -0.2747 0
M  V30 21 H -4.1326 -1.911 -0.714 0
M  V30 22 H -3.863 -1.1649 0.8948 0
M  V30 23 H -1.12 0.9522 -1.7985 0
M  V30 24 H -0.6888 2.6765 -1.922 0
M  V30 25 H -5.9287 0.2848 0.5274 0
M  V30 26 H 0.8687 2.0794 -0.3656 0
M  V30 27 H -0.4419 2.5444 0.7649 0
M  V30 28 H -5.8996 0.324 -1.9725 0
M  V30 29 H -6.2991 -1.4359 -2.0151 0
M  V30 30 H -7.4814 -0.2442 -1.3441 0
M  V30 31 H -6.1046 -1.862 1.7676 0
M  V30 32 H -6.4128 -2.7496 0.2239 0
M  V30 33 H -7.6022 -1.5286 0.8279 0
M  V30 34 H 0.2853 -0.3249 -0.1782 0
M  V30 35 H -1.1271 0.0604 0.8358 0
M  V30 36 H 0.6648 -0.7203 2.2715 0
M  V30 37 H 0.2946 0.9907 2.6257 0
M  V30 38 H 2.3324 1.7304 1.3814 0
M  V30 39 H 2.7062 0.5836 2.6971 0
M  V30 40 H 2.5783 -0.0717 -0.3145 0
M  V30 41 H 2.7733 -1.31 0.987 0
M  V30 42 H 4.867 -0.1743 1.751 0
M  V30 43 H 4.6554 1.0853 0.4748 0
M  V30 44 H 4.8055 -0.6813 -1.2964 0
M  V30 45 H 5.0096 -1.9441 -0.0217 0
M  V30 46 H 7.1107 -0.8096 0.7636 0
M  V30 47 H 6.9066 0.4489 -0.5128 0
M  V30 48 H 7.0713 -1.3122 -2.281 0
M  V30 49 H 7.2752 -2.5782 -1.0013 0
M  V30 50 H 8.5266 -1.2975 -1.2152 0
M  V30 END ATOM
M  V30 BEGIN BOND
M  V30 1 2 1 2
M  V30 2 1 2 3
M  V30 3 1 2 4
M  V30 4 1 3 5
M  V30 5 1 4 6
M  V30 6 1 5 7
M  V30 7 1 6 8
M  V30 8 1 7 9
M  V30 9 1 7 10
M  V30 10 1 8 11
M  V30 11 1 11 12
M  V30 12 1 12 13
M  V30 13 1 13 14
M  V30 14 1 14 15
M  V30 15 1 15 16
M  V30 16 1 16 17
M  V30 17 1 17 18
M  V30 18 1 4 19
M  V30 19 1 4 20
M  V30 20 1 5 21
M  V30 21 1 5 22
M  V30 22 1 6 23
M  V30 23 1 6 24
M  V30 24 1 7 25
M  V30 25 1 8 26
M  V30 26 1 8 27
M  V30 27 1 9 28
M  V30 28 1 9 29
M  V30 29 1 9 30
M  V30 30 1 10 31
M  V30 31 1 10 32
M  V30 32 1 10 33
M  V30 33 1 11 34
M  V30 34 1 11 35
M  V30 35 1 12 36
M  V30 36 1 12 37
M  V30 37 1 13 38
M  V30 38 1 13 39
M  V30 39 1 14 40
M  V30 40 1 14 41
M  V30 41 1 15 42
M  V30 42 1 15 43
M  V30 43 1 16 44
M  V30 44 1 16 45
M  V30 45 1 17 46
M  V30 46 1 17 47
M  V30 47 1 18 48
M  V30 48 1 18 49
M  V30 49 1 18 50
M  V30 END BOND
M  V30 END CTAB
M  END
>  <Structure No>
3108

>  <LogS>
-7.931847578

>  <MMFF94 Energy>
-9.5291

$$$$
Compound 3109
Actelion Java MolfileCreator 2.0

  0  0  0  0  0  0              0 V3000
M  V30 BEGIN CTAB
M  V30 COUNTS 69 68 0 0 0
M  V30 BEGIN ATOM
M  V30 1 O -6.1041 2.1878 -1.0153 0
M  V30 2 C -5.607 2.0883 0.1393 0
M  V30 3 O -6.3182 1.4741 1.1747 0
M  V30 4 C -4.2178 2.5844 0.3965 0
M  V30 5 C -7.5926 0.8591 0.9954 0
M  V30 6 C -3.1599 1.5622 -0.0405 0
M  V30 7 C -7.4284 -0.5148 0.3261 0
M  V30 8 C -3.1947 0.2858 0.816 0
M  V30 9 C -8.7525 -1.2749 0.0792 0
M  V30 10 C -2.1966 -0.7784 0.3355 0
M  V30 11 C -9.498 -1.6002 1.3824 0
M  V30 12 C -9.6698 -0.5442 -0.911 0
M  V30 13 C -0.7222 -0.3833 0.561 0
M  V30 14 C -0.0206 0.0149 -0.7453 0
M  V30 15 C 1.4251 0.4462 -0.4754 0
M  V30 16 C 2.1481 0.7914 -1.7535 0
M  V30 17 C 3.4175 1.2369 -1.7762 0
M  V30 18 C 4.2309 1.4717 -0.525 0
M  V30 19 C 5.7323 1.6324 -0.8156 0
M  V30 20 C 6.3893 0.4072 -1.4872 0
M  V30 21 C 6.1948 -0.9311 -0.7453 0
M  V30 22 C 6.6834 -0.9427 0.7168 0
M  V30 23 C 8.1824 -0.6476 0.8994 0
M  V30 24 C 9.0816 -1.696 0.226 0
M  V30 25 C 10.5431 -1.5023 0.6229 0
M  V30 26 H -4.0962 2.8203 1.4758 0
M  V30 27 H -4.0633 3.5272 -0.1707 0
M  V30 28 H -8.0511 0.7357 1.9966 0
M  V30 29 H -8.247 1.5244 0.3948 0
M  V30 30 H -2.1637 2.044 0.064 0
M  V30 31 H -3.3107 1.3051 -1.113 0
M  V30 32 H -6.9072 -0.3844 -0.6475 0
M  V30 33 H -6.7679 -1.1432 0.9615 0
M  V30 34 H -4.2087 -0.1643 0.7617 0
M  V30 35 H -2.9926 0.5385 1.8802 0
M  V30 36 H -8.4795 -2.2492 -0.3875 0
M  V30 37 H -2.3952 -1.0229 -0.7318 0
M  V30 38 H -2.399 -1.7085 0.9129 0
M  V30 39 H -9.8865 -0.6797 1.865 0
M  V30 40 H -8.8218 -2.128 2.086 0
M  V30 41 H -10.3612 -2.269 1.1692 0
M  V30 42 H -10.0836 0.3833 -0.4646 0
M  V30 43 H -10.5212 -1.201 -1.1931 0
M  V30 44 H -9.1107 -0.2878 -1.8366 0
M  V30 45 H -0.183 -1.2579 0.9892 0
M  V30 46 H -0.6424 0.439 1.3059 0
M  V30 47 H -0.5677 0.8467 -1.238 0
M  V30 48 H -0.0169 -0.8605 -1.4306 0
M  V30 49 H 1.4236 1.3328 0.1957 0
M  V30 50 H 1.9606 -0.3865 0.03 0
M  V30 51 H 1.6316 0.6733 -2.7024 0
M  V30 52 H 3.8638 1.4589 -2.743 0
M  V30 53 H 3.8613 2.3989 -0.0356 0
M  V30 54 H 4.0855 0.6444 0.1989 0
M  V30 55 H 5.8797 2.518 -1.4723 0
M  V30 56 H 6.2578 1.8554 0.137 0
M  V30 57 H 7.475 0.6059 -1.6084 0
M  V30 58 H 5.9841 0.2964 -2.5161 0
M  V30 59 H 5.1181 -1.206 -0.7593 0
M  V30 60 H 6.7137 -1.7311 -1.3155 0
M  V30 61 H 6.46 -1.9412 1.1528 0
M  V30 62 H 6.0987 -0.2077 1.3105 0
M  V30 63 H 8.392 -0.6417 1.9922 0
M  V30 64 H 8.4268 0.3659 0.5162 0
M  V30 65 H 8.7625 -2.7198 0.527 0
M  V30 66 H 9.0027 -1.6087 -0.8795 0
M  V30 67 H 10.6737 -1.6868 1.7096 0
M  V30 68 H 10.8775 -0.4712 0.3849 0
M  V30 69 H 11.1791 -2.2191 0.0635 0
M  V30 END ATOM
M  V30 BEGIN BOND
M  V30 1 2 1 2
M  V30 2 1 2 3
M  V30 3 1 2 4
M  V30 4 1 3 5
M  V30 5 1 4 6
M  V30 6 1 5 7
M  V30 7 1 6 8
M  V30 8 1 7 9
M  V30 9 1 8 10
M  V30 10 1 9 11
M  V30 11 1 9 12
M  V30 12 1 10 13
M  V30 13 1 13 14
M  V30 14 1 14 15
M  V30 15 1 15 16
M  V30 16 2 16 17
M  V30 17 1 17 18
M  V30 18 1 18 19
M  V30 19 1 19 20
M  V30 20 1 20 21
M  V30 21 1 21 22
M  V30 22 1 22 23
M  V30 23 1 23 24
M  V30 24 1 24 25
M  V30 25 1 4 26
M  V30 26 1 4 27
M  V30 27 1 5 28
M  V30 28 1 5 29
M  V30 29 1 6 30
M  V30 30 1 6 31
M  V30 31 1 7 32
M  V30 32 1 7 33
M  V30 33 1 8 34
M  V30 34 1 8 35
M  V30 35 1 9 36
M  V30 36 1 10 37
M  V30 37 1 10 38
M  V30 38 1 11 39
M  V30 39 1 11 40
M  V30 40 1 11 41
M  V30 41 1 12 42
M  V30 42 1 12 43
M  V30 43 1 12 44
M  V30 44 1 13 45
M  V30 45 1 13 46
M  V30 46 1 14 47
M  V30 47 1 14 48
M  V30 48 1 15 49
M  V30 49 1 15 50
M  V30 50 1 16 51
M  V30 51 1 17 52
M  V30 52 1 18 53
M  V30 53 1 18 54
M  V30 54 1 19 55
M  V30 55 1 19 56
M  V30 56 1 20 57
M  V30 57 1 20 58
M  V30 58 1 21 59
M  V30 59 1 21 60
M  V30 60 1 22 61
M  V30 61 1 22 62
M  V30 62 1 23 63
M  V30 63 1 23 64
M  V30 64 1 24 65
M  V30 65 1 24 66
M  V30 66 1 25 67
M  V30 67 1 25 68
M  V30 68 1 25 69
M  V30 END BOND
M  V30 END CTAB
M  END
>  <Structure No>
3109

>  <LogS>
-8.070164748

>  <MMFF94 Energy>
0.26708

$$$$
Compound 3110
Actelion Java MolfileCreator 2.0

  0  0  0  0  0  0              0 V3000
M  V30 BEGIN CTAB
M  V30 COUNTS 17 16 0 0 0
M  V30 BEGIN ATOM
M  V30 1 S -2.7643 0.0 0.0 0
M  V30 2 F -3.9234 1.1687 -0.3046 0
M  V30 3 O -2.9194 -0.485 1.4138 0
M  V30 4 O -2.9671 -1.1481 -0.9481 0
M  V30 5 C -1.1408 0.7194 -0.2347 0
M  V30 6 F -1.0626 1.1856 -1.5352 0
M  V30 7 F -1.0189 1.7933 0.6295 0
M  V30 8 C -0.0171 -0.3095 0.0314 0
M  V30 9 F -0.1341 -0.7728 1.3322 0
M  V30 10 F -0.1779 -1.3806 -0.8328 0
M  V30 11 C 1.3966 0.2974 -0.1673 0
M  V30 12 F 1.5708 1.3668 0.696 0
M  V30 13 F 1.5271 0.7596 -1.4668 0
M  V30 14 C 2.5208 -0.7188 0.0952 0
M  V30 15 F 3.7458 -0.1068 -0.1011 0
M  V30 16 F 2.4226 -1.7916 -0.7729 0
M  V30 17 F 2.4664 -1.1822 1.3978 0
M  V30 END ATOM
M  V30 BEGIN BOND
M  V30 1 1 1 2
M  V30 2 2 1 3
M  V30 3 2 1 4
M  V30 4 1 1 5
M  V30 5 1 5 6
M  V30 6 1 5 7
M  V30 7 1 5 8
M  V30 8 1 8 9
M  V30 9 1 8 10
M  V30 10 1 8 11
M  V30 11 1 11 12
M  V30 12 1 11 13
M  V30 13 1 11 14
M  V30 14 1 14 15
M  V30 15 1 14 16
M  V30 16 1 14 17
M  V30 END BOND
M  V30 END CTAB
M  END
>  <Structure No>
3110

>  <LogS>
-6.042384349

>  <MMFF94 Energy>
51.19

$$$$
Compound 3111
Actelion Java MolfileCreator 2.0

  0  0  0  0  0  0              0 V3000
M  V30 BEGIN CTAB
M  V30 COUNTS 25 26 0 0 0
M  V30 BEGIN ATOM
M  V30 1 F -4.5863 0.1606 1.7682 0
M  V30 2 C -3.4859 0.0667 0.9818 0
M  V30 3 C -2.9118 -1.1825 0.7289 0
M  V30 4 C -2.922 1.22 0.4279 0
M  V30 5 C -1.7757 -1.2812 -0.0804 0
M  V30 6 C -1.7859 1.1255 -0.3819 0
M  V30 7 C -1.2106 -0.1279 -0.6505 0
M  V30 8 C 0.0336 -0.2277 -1.4903 0
M  V30 9 C 1.2573 -0.1138 -0.6224 0
M  V30 10 C 1.8223 -1.2606 -0.0394 0
M  V30 11 C 1.8121 1.1461 -0.3409 0
M  V30 12 C 2.9386 -1.149 0.7956 0
M  V30 13 C 2.9284 1.2534 0.4945 0
M  V30 14 C 3.4926 0.1067 1.0613 0
M  V30 15 F 4.5738 0.2129 1.8725 0
M  V30 16 H -3.3445 -2.075 1.1625 0
M  V30 17 H -3.3625 2.1883 0.6283 0
M  V30 18 H -1.336 -2.2542 -0.2612 0
M  V30 19 H -1.3541 2.0276 -0.7976 0
M  V30 20 H 0.0453 -1.1932 -2.0426 0
M  V30 21 H 0.0378 0.5717 -2.2637 0
M  V30 22 H 1.3978 -2.2385 -0.23 0
M  V30 23 H 1.3796 2.0433 -0.7664 0
M  V30 24 H 3.3714 -2.0367 1.2388 0
M  V30 25 H 3.3532 2.2266 0.7048 0
M  V30 END ATOM
M  V30 BEGIN BOND
M  V30 1 1 1 2
M  V30 2 2 2 3
M  V30 3 1 2 4
M  V30 4 1 3 5
M  V30 5 2 4 6
M  V30 6 2 5 7
M  V30 7 1 7 8
M  V30 8 1 8 9
M  V30 9 2 9 10
M  V30 10 1 9 11
M  V30 11 1 10 12
M  V30 12 2 11 13
M  V30 13 2 12 14
M  V30 14 1 14 15
M  V30 15 1 6 7
M  V30 16 1 13 14
M  V30 17 1 3 16
M  V30 18 1 4 17
M  V30 19 1 5 18
M  V30 20 1 6 19
M  V30 21 1 8 20
M  V30 22 1 8 21
M  V30 23 1 10 22
M  V30 24 1 11 23
M  V30 25 1 12 24
M  V30 26 1 13 25
M  V30 END BOND
M  V30 END CTAB
M  END
>  <Structure No>
3111

>  <LogS>
-6.912156137

>  <MMFF94 Energy>
41.681

$$$$
Compound 3112
Actelion Java MolfileCreator 2.0

  0  0  0  0  0  0              0 V3000
M  V30 BEGIN CTAB
M  V30 COUNTS 117 123 0 0 0
M  V30 BEGIN ATOM
M  V30 1 Cl 2.6589 -1.5781 -3.4909 0
M  V30 2 C 1.4447 -0.882 -2.4239 0
M  V30 3 C 1.7656 0.1454 -1.5171 0
M  V30 4 C 0.1397 -1.39 -2.4647 0
M  V30 5 N 3.1037 0.6665 -1.4339 0
M  V30 6 C 0.7579 0.6733 -0.6904 0
M  V30 7 C -0.8577 -0.875 -1.6238 0
M  V30 8 C 3.702 1.0115 -0.179 0
M  V30 9 C -0.5529 0.1737 -0.7368 0
M  V30 10 N -2.1819 -1.4166 -1.6895 0
M  V30 11 O 3.3881 0.3544 0.8518 0
M  V30 12 C 4.6715 2.1205 -0.0427 0
M  V30 13 C -1.6243 0.784 0.1271 0
M  V30 14 C -2.468 -2.7246 -1.1775 0
M  V30 15 N 5.5906 1.9616 0.8671 0
M  V30 16 C 4.4932 3.4141 -0.7753 0
M  V30 17 O -1.7079 -3.2454 -0.3173 0
M  V30 18 C -3.617 -3.4934 -1.694 0
M  V30 19 N 6.4976 2.9505 1.2711 0 CHG=-1
M  V30 20 O 5.209 4.4071 -0.4842 0
M  V30 21 C 3.4531 3.598 -1.8408 0
M  V30 22 N -4.8052 -2.9696 -1.7714 0
M  V30 23 C -3.403 -4.8637 -2.2032 0
M  V30 24 C 7.5849 2.626 2.1436 0
M  V30 25 N -5.1279 -1.7074 -1.2499 0 CHG=-1
M  V30 26 O -2.2703 -5.4066 -2.0979 0
M  V30 27 C -4.5232 -5.6407 -2.8233 0
M  V30 28 C 8.0904 3.5938 3.0234 0
M  V30 29 C 8.1545 1.343 2.1189 0
M  V30 30 C -6.3459 -1.0463 -1.6077 0
M  V30 31 Cl 7.4047 5.2116 3.0677 0
M  V30 32 C 9.1368 3.2688 3.8948 0
M  V30 33 C 9.2379 1.0163 2.9619 0
M  V30 34 C -6.7879 -0.9933 -2.9437 0
M  V30 35 C -7.0995 -0.4212 -0.6053 0
M  V30 36 C 9.7005 1.9923 3.8688 0
M  V30 37 C 9.9394 -0.2953 2.8765 0
M  V30 38 Cl -5.8548 -1.6808 -4.266 0
M  V30 39 C -7.9714 -0.3219 -3.2552 0
M  V30 40 C -8.3098 0.2399 -0.9063 0
M  V30 41 O 10.7173 -0.6376 3.8145 0
M  V30 42 N 9.8037 -1.1565 1.7322 0
M  V30 43 C -8.7267 0.2896 -2.2524 0
M  V30 44 C -9.1067 0.8526 0.1982 0
M  V30 45 C 10.8625 -2.0149 1.2872 0
M  V30 46 O -8.6719 0.7651 1.3801 0
M  V30 47 N -10.3774 1.4949 -0.0299 0
M  V30 48 C 11.3185 -1.9388 -0.0474 0
M  V30 49 C 11.3679 -3.0155 2.1339 0
M  V30 50 C -11.1591 2.098 1.0189 0
M  V30 51 O 10.8324 -0.9734 -0.9475 0
M  V30 52 C 12.248 -2.8709 -0.5143 0
M  V30 53 C 12.3269 -3.9344 1.6703 0
M  V30 54 C -12.5643 1.9409 1.0431 0
M  V30 55 C -10.5473 2.9483 1.9591 0
M  V30 56 C 10.6711 0.389 -0.6536 0
M  V30 57 C 12.7498 -3.861 0.3315 0
M  V30 58 C 12.8119 -5.0357 2.5795 0
M  V30 59 O -13.2434 1.1496 0.1059 0
M  V30 60 C -13.3208 2.6212 2.0016 0
M  V30 61 C -11.3066 3.5963 2.9485 0
M  V30 62 C 11.5351 1.0591 0.2329 0
M  V30 63 C 9.6357 1.097 -1.2719 0
M  V30 64 F 13.9922 -5.589 2.1072 0
M  V30 65 F 11.852 -6.0285 2.6477 0
M  V30 66 F 13.0424 -4.5406 3.8505 0
M  V30 67 C -12.8891 -0.1602 -0.2453 0
M  V30 68 C -12.7021 3.438 2.9488 0
M  V30 69 C -10.645 4.5472 3.9128 0
M  V30 70 C 11.3539 2.4249 0.4961 0
M  V30 71 C 9.4453 2.4572 -0.9948 0
M  V30 72 C -12.1851 -1.0016 0.6335 0
M  V30 73 C -13.2781 -0.6465 -1.4985 0
M  V30 74 F -9.3731 4.1081 4.2331 0
M  V30 75 F -10.5535 5.7957 3.3264 0
M  V30 76 F -11.3782 4.6534 5.0837 0
M  V30 77 C 10.3062 3.1216 -0.1154 0
M  V30 78 C -11.8515 -2.3035 0.2441 0
M  V30 79 C -12.9405 -1.9451 -1.89 0
M  V30 80 Cl 10.078 4.827 0.2258 0
M  V30 81 C -12.2317 -2.7763 -1.016 0
M  V30 82 Cl -11.8191 -4.4113 -1.503 0
M  V30 83 H -0.1024 -2.1923 -3.1533 0
M  V30 84 H 3.6795 0.7501 -2.3065 0
M  V30 85 H 0.9951 1.4884 -0.0138 0
M  V30 86 H -2.8575 -0.9494 -2.3367 0
M  V30 87 H -1.1983 1.4875 0.8702 0
M  V30 88 H -2.3468 1.335 -0.5136 0
M  V30 89 H -2.1697 -0.0131 0.6759 0
M  V30 90 H 2.4664 3.2529 -1.4764 0
M  V30 91 H 3.7429 3.0343 -2.7502 0
M  V30 92 H 3.3612 4.6721 -2.1165 0
M  V30 93 H -5.0363 -5.0275 -3.5967 0
M  V30 94 H -4.1312 -6.5584 -3.311 0
M  V30 95 H -5.2561 -5.9365 -2.0425 0
M  V30 96 H 7.75 0.6213 1.4273 0
M  V30 97 H 9.5168 4.0102 4.5854 0
M  V30 98 H -6.7421 -0.4755 0.4166 0
M  V30 99 H 10.5272 1.7826 4.5345 0
M  V30 100 H -8.3022 -0.2597 -4.2841 0
M  V30 101 H 9.0327 -1.0068 1.0503 0
M  V30 102 H -9.6206 0.8019 -2.5607 0
M  V30 103 H -10.8317 1.4324 -0.9626 0
M  V30 104 H 10.9761 -3.1155 3.1387 0
M  V30 105 H 12.5844 -2.8255 -1.5422 0
M  V30 106 H -9.4853 3.1348 1.9006 0
M  V30 107 H 13.4555 -4.5774 -0.0675 0
M  V30 108 H -14.3992 2.5099 2.0153 0
M  V30 109 H 12.3548 0.534 0.7062 0
M  V30 110 H 8.9678 0.5895 -1.9533 0
M  V30 111 H -13.3198 3.9605 3.6712 0
M  V30 112 H 12.0268 2.9304 1.1766 0
M  V30 113 H 8.6286 2.9864 -1.4602 0
M  V30 114 H -11.8974 -0.6578 1.6173 0
M  V30 115 H -13.8287 -0.01 -2.1764 0
M  V30 116 H -11.3076 -2.947 0.927 0
M  V30 117 H -13.2349 -2.3057 -2.868 0
M  V30 END ATOM
M  V30 BEGIN BOND
M  V30 1 1 1 2
M  V30 2 2 2 3
M  V30 3 1 2 4
M  V30 4 1 3 5
M  V30 5 1 3 6
M  V30 6 2 4 7
M  V30 7 1 5 8
M  V30 8 2 6 9
M  V30 9 1 7 10
M  V30 10 2 8 11
M  V30 11 1 8 12
M  V30 12 1 9 13
M  V30 13 1 10 14
M  V30 14 2 12 15
M  V30 15 1 12 16
M  V30 16 2 14 17
M  V30 17 1 14 18
M  V30 18 1 15 19
M  V30 19 2 16 20
M  V30 20 1 16 21
M  V30 21 2 18 22
M  V30 22 1 18 23
M  V30 23 1 19 24
M  V30 24 1 22 25
M  V30 25 2 23 26
M  V30 26 1 23 27
M  V30 27 2 24 28
M  V30 28 1 24 29
M  V30 29 1 25 30
M  V30 30 1 28 31
M  V30 31 1 28 32
M  V30 32 2 29 33
M  V30 33 2 30 34
M  V30 34 1 30 35
M  V30 35 2 32 36
M  V30 36 1 33 37
M  V30 37 1 34 38
M  V30 38 1 34 39
M  V30 39 2 35 40
M  V30 40 2 37 41
M  V30 41 1 37 42
M  V30 42 2 39 43
M  V30 43 1 40 44
M  V30 44 1 42 45
M  V30 45 2 44 46
M  V30 46 1 44 47
M  V30 47 2 45 48
M  V30 48 1 45 49
M  V30 49 1 47 50
M  V30 50 1 48 51
M  V30 51 1 48 52
M  V30 52 2 49 53
M  V30 53 2 50 54
M  V30 54 1 50 55
M  V30 55 1 51 56
M  V30 56 2 52 57
M  V30 57 1 53 58
M  V30 58 1 54 59
M  V30 59 1 54 60
M  V30 60 2 55 61
M  V30 61 2 56 62
M  V30 62 1 56 63
M  V30 63 1 58 64
M  V30 64 1 58 65
M  V30 65 1 58 66
M  V30 66 1 59 67
M  V30 67 2 60 68
M  V30 68 1 61 69
M  V30 69 1 62 70
M  V30 70 2 63 71
M  V30 71 2 67 72
M  V30 72 1 67 73
M  V30 73 1 69 74
M  V30 74 1 69 75
M  V30 75 1 69 76
M  V30 76 2 70 77
M  V30 77 1 72 78
M  V30 78 2 73 79
M  V30 79 1 77 80
M  V30 80 2 78 81
M  V30 81 1 81 82
M  V30 82 1 7 9
M  V30 83 1 33 36
M  V30 84 1 40 43
M  V30 85 1 53 57
M  V30 86 1 61 68
M  V30 87 1 71 77
M  V30 88 1 79 81
M  V30 89 1 4 83
M  V30 90 1 5 84
M  V30 91 1 6 85
M  V30 92 1 10 86
M  V30 93 1 13 87
M  V30 94 1 13 88
M  V30 95 1 13 89
M  V30 96 1 21 90
M  V30 97 1 21 91
M  V30 98 1 21 92
M  V30 99 1 27 93
M  V30 100 1 27 94
M  V30 101 1 27 95
M  V30 102 1 29 96
M  V30 103 1 32 97
M  V30 104 1 35 98
M  V30 105 1 36 99
M  V30 106 1 39 100
M  V30 107 1 42 101
M  V30 108 1 43 102
M  V30 109 1 47 103
M  V30 110 1 49 104
M  V30 111 1 52 105
M  V30 112 1 55 106
M  V30 113 1 57 107
M  V30 114 1 60 108
M  V30 115 1 62 109
M  V30 116 1 63 110
M  V30 117 1 68 111
M  V30 118 1 70 112
M  V30 119 1 71 113
M  V30 120 1 72 114
M  V30 121 1 73 115
M  V30 122 1 78 116
M  V30 123 1 79 117
M  V30 END BOND
M  V30 END CTAB
M  END
>  <Structure No>
3112

>  <LogS>
-7.69168325

>  <MMFF94 Energy>
302.93

$$$$
Compound 3113
Actelion Java MolfileCreator 2.0

  0  0  0  0  0  0              0 V3000
M  V30 BEGIN CTAB
M  V30 COUNTS 61 62 0 0 0
M  V30 BEGIN ATOM
M  V30 1 O 3.9462 3.7043 0.1608 0
M  V30 2 N 5.0976 3.4107 0.5403 0 CHG=1
M  V30 3 O 5.8162 4.3415 1.2561 0 CHG=-1
M  V30 4 C 5.7009 2.1537 0.1785 0
M  V30 5 C 4.9176 1.0182 -0.135 0
M  V30 6 C 7.103 2.0497 0.149 0
M  V30 7 N 3.4876 1.0824 -0.0462 0
M  V30 8 C 5.5548 -0.1819 -0.4903 0
M  V30 9 C 7.736 0.8468 -0.202 0
M  V30 10 N 2.7445 0.0791 -0.2924 0
M  V30 11 C 6.9463 -0.2656 -0.5259 0
M  V30 12 N 9.1725 0.7611 -0.2305 0 CHG=1
M  V30 13 C 1.3151 0.1415 -0.192 0
M  V30 14 O 9.741 -0.2716 -0.6437 0
M  V30 15 O 9.9455 1.8134 0.2048 0 CHG=-1
M  V30 16 C 0.5581 -1.0328 -0.36 0
M  V30 17 C 0.6628 1.3495 0.1084 0
M  V30 18 N 1.213 -2.2682 -0.7052 0
M  V30 19 C -0.8403 -0.978 -0.2286 0
M  V30 20 C -0.7253 1.3906 0.2459 0
M  V30 21 C 0.7882 -3.5557 -0.232 0
M  V30 22 C -1.4917 0.2263 0.088 0
M  V30 23 O -0.0184 -3.6523 0.7313 0
M  V30 24 C 1.3699 -4.7949 -0.827 0
M  V30 25 N -2.9265 0.2592 0.2631 0
M  V30 26 C -3.5915 -0.7989 1.0414 0
M  V30 27 C -3.7228 1.3399 -0.342 0
M  V30 28 C -4.393 -1.7388 0.1326 0
M  V30 29 C -4.2126 2.3344 0.7171 0
M  V30 30 C -4.785 -2.9776 0.8741 0
M  V30 31 C -4.8536 3.5159 0.0621 0
M  V30 32 O -5.7028 -2.9292 1.7353 0
M  V30 33 O -4.0996 -4.1691 0.6332 0
M  V30 34 O -6.102 3.5332 -0.1178 0
M  V30 35 O -4.0519 4.5691 -0.3902 0
M  V30 36 C -4.3834 -5.3731 1.3346 0
M  V30 37 C -4.5864 5.7063 -1.0586 0
M  V30 38 H 7.7043 2.9169 0.3891 0
M  V30 39 H 4.9759 -1.0622 -0.7326 0
M  V30 40 H 7.4061 -1.2064 -0.7973 0
M  V30 41 H 1.2277 2.2619 0.2462 0
M  V30 42 H 2.0696 -2.2294 -1.3003 0
M  V30 43 H -1.4273 -1.8684 -0.4028 0
M  V30 44 H -1.1957 2.3321 0.493 0
M  V30 45 H 2.3684 -4.9858 -0.3816 0
M  V30 46 H 1.4786 -4.6721 -1.9252 0
M  V30 47 H 0.7093 -5.6661 -0.6289 0
M  V30 48 H -2.8365 -1.3823 1.6139 0
M  V30 49 H -4.2692 -0.3456 1.7949 0
M  V30 50 H -4.5971 0.9108 -0.8737 0
M  V30 51 H -3.12 1.873 -1.1099 0
M  V30 52 H -3.7887 -2.0216 -0.756 0
M  V30 53 H -5.3125 -1.2295 -0.2256 0
M  V30 54 H -4.947 1.8461 1.3883 0
M  V30 55 H -3.3632 2.6822 1.3385 0
M  V30 56 H -3.7347 -6.1831 0.943 0
M  V30 57 H -5.447 -5.6612 1.1854 0
M  V30 58 H -4.1806 -5.2383 2.4186 0
M  V30 59 H -5.1194 5.3898 -1.9835 0
M  V30 60 H -3.7566 6.389 -1.3389 0
M  V30 61 H -5.2882 6.2463 -0.386 0
M  V30 END ATOM
M  V30 BEGIN BOND
M  V30 1 2 1 2
M  V30 2 1 2 3
M  V30 3 1 2 4
M  V30 4 2 4 5
M  V30 5 1 4 6
M  V30 6 1 5 7
M  V30 7 1 5 8
M  V30 8 2 6 9
M  V30 9 2 7 10
M  V30 10 2 8 11
M  V30 11 1 9 12
M  V30 12 1 10 13
M  V30 13 2 12 14
M  V30 14 1 12 15
M  V30 15 2 13 16
M  V30 16 1 13 17
M  V30 17 1 16 18
M  V30 18 1 16 19
M  V30 19 2 17 20
M  V30 20 1 18 21
M  V30 21 2 19 22
M  V30 22 2 21 23
M  V30 23 1 21 24
M  V30 24 1 22 25
M  V30 25 1 25 26
M  V30 26 1 25 27
M  V30 27 1 26 28
M  V30 28 1 27 29
M  V30 29 1 28 30
M  V30 30 1 29 31
M  V30 31 2 30 32
M  V30 32 1 30 33
M  V30 33 2 31 34
M  V30 34 1 31 35
M  V30 35 1 33 36
M  V30 36 1 35 37
M  V30 37 1 9 11
M  V30 38 1 20 22
M  V30 39 1 6 38
M  V30 40 1 8 39
M  V30 41 1 11 40
M  V30 42 1 17 41
M  V30 43 1 18 42
M  V30 44 1 19 43
M  V30 45 1 20 44
M  V30 46 1 24 45
M  V30 47 1 24 46
M  V30 48 1 24 47
M  V30 49 1 26 48
M  V30 50 1 26 49
M  V30 51 1 27 50
M  V30 52 1 27 51
M  V30 53 1 28 52
M  V30 54 1 28 53
M  V30 55 1 29 54
M  V30 56 1 29 55
M  V30 57 1 36 56
M  V30 58 1 36 57
M  V30 59 1 36 58
M  V30 60 1 37 59
M  V30 61 1 37 60
M  V30 62 1 37 61
M  V30 END BOND
M  V30 END CTAB
M  END
>  <Structure No>
3113

>  <LogS>
-7.332831336

>  <MMFF94 Energy>
54.668

$$$$
Compound 3114
Actelion Java MolfileCreator 2.0

  0  0  0  0  0  0              0 V3000
M  V30 BEGIN CTAB
M  V30 COUNTS 74 75 0 0 0
M  V30 BEGIN ATOM
M  V30 1 O 0.1584 2.2206 0.7133 0
M  V30 2 C -0.2178 1.0721 0.3508 0
M  V30 3 O 0.7309 0.0793 0.0626 0
M  V30 4 C -1.6622 0.7848 0.1667 0
M  V30 5 C 2.0821 0.1174 0.4352 0
M  V30 6 C -2.6158 1.7906 0.3334 0
M  V30 7 C -2.077 -0.4983 -0.183 0
M  V30 8 C 3.0791 -0.4336 -0.4159 0
M  V30 9 C 2.4416 0.659 1.6779 0
M  V30 10 C -3.9984 1.5561 0.1451 0
M  V30 11 C -3.4383 -0.8227 -0.3546 0
M  V30 12 C 4.4277 -0.3785 0.0289 0
M  V30 13 C 2.7025 -1.0705 -1.7856 0
M  V30 14 C 3.7681 0.699 2.0856 0
M  V30 15 C -4.4034 0.2102 -0.1538 0
M  V30 16 C -5.0112 2.7366 0.2933 0
M  V30 17 C -3.867 -2.275 -0.7306 0
M  V30 18 C 4.7931 0.1908 1.2714 0
M  V30 19 C 3.9305 -1.5906 -2.5777 0
M  V30 20 C 1.7679 -2.2829 -1.565 0
M  V30 21 C 2.0042 -0.0247 -2.6876 0
M  V30 22 O -5.75 -0.1457 -0.2532 0
M  V30 23 C -5.7497 2.6081 1.6465 0
M  V30 24 C -6.0231 2.7647 -0.8959 0
M  V30 25 C -4.319 4.1309 0.3082 0
M  V30 26 C -4.6618 -2.2722 -2.0589 0
M  V30 27 C -4.7272 -2.8874 0.4001 0
M  V30 28 C -2.6634 -3.2348 -0.9405 0
M  V30 29 C 6.2563 0.2662 1.7644 0
M  V30 30 C 6.3963 -0.5336 3.0791 0
M  V30 31 C 6.6398 1.7421 2.0186 0
M  V30 32 C 7.2782 -0.3122 0.7533 0
M  V30 33 H -2.2472 2.7653 0.6052 0
M  V30 34 H -1.3113 -1.2432 -0.3026 0
M  V30 35 H 1.6834 1.0322 2.3538 0
M  V30 36 H 5.2022 -0.7815 -0.5926 0
M  V30 37 H 3.9868 1.1285 3.0536 0
M  V30 38 H 4.6367 -0.7623 -2.804 0
M  V30 39 H 3.6196 -2.029 -3.5518 0
M  V30 40 H 4.4587 -2.391 -2.0148 0
M  V30 41 H 0.7769 -1.984 -1.1784 0
M  V30 42 H 1.5858 -2.8226 -2.5193 0
M  V30 43 H 2.2233 -2.9941 -0.8437 0
M  V30 44 H 1.8225 -0.4381 -3.703 0
M  V30 45 H 1.018 0.2843 -2.2953 0
M  V30 46 H 2.6396 0.8819 -2.7894 0
M  V30 47 H -6.5359 0.4127 0.0267 0
M  V30 48 H -5.0288 2.6929 2.4895 0
M  V30 49 H -6.507 3.4152 1.7557 0
M  V30 50 H -6.2692 1.64 1.7655 0
M  V30 51 H -6.2049 3.7904 -1.2821 0
M  V30 52 H -7.0284 2.3979 -0.6048 0
M  V30 53 H -5.6532 2.1699 -1.7587 0
M  V30 54 H -3.6917 4.2746 1.2141 0
M  V30 55 H -3.6974 4.2718 -0.6027 0
M  V30 56 H -5.072 4.9488 0.3381 0
M  V30 57 H -4.0835 -1.7478 -2.8498 0
M  V30 58 H -4.8602 -3.3107 -2.404 0
M  V30 59 H -5.6495 -1.7807 -1.9676 0
M  V30 60 H -4.9384 -3.9605 0.1992 0
M  V30 61 H -5.7099 -2.3904 0.5084 0
M  V30 62 H -4.1917 -2.8165 1.3724 0
M  V30 63 H -2.0027 -2.8751 -1.7602 0
M  V30 64 H -3.0106 -4.2533 -1.2243 0
M  V30 65 H -2.0729 -3.3449 -0.0036 0
M  V30 66 H 6.0746 -1.5866 2.9262 0
M  V30 67 H 5.7817 -0.0951 3.8939 0
M  V30 68 H 7.4526 -0.5412 3.4268 0
M  V30 69 H 7.7044 1.8267 2.3285 0
M  V30 70 H 6.0253 2.1912 2.8272 0
M  V30 71 H 6.4949 2.3442 1.0952 0
M  V30 72 H 7.087 -1.3909 0.5667 0
M  V30 73 H 8.315 -0.2246 1.1455 0
M  V30 74 H 7.241 0.2434 -0.209 0
M  V30 END ATOM
M  V30 BEGIN BOND
M  V30 1 2 1 2
M  V30 2 1 2 3
M  V30 3 1 2 4
M  V30 4 1 3 5
M  V30 5 2 4 6
M  V30 6 1 4 7
M  V30 7 2 5 8
M  V30 8 1 5 9
M  V30 9 1 6 10
M  V30 10 2 7 11
M  V30 11 1 8 12
M  V30 12 1 8 13
M  V30 13 2 9 14
M  V30 14 2 10 15
M  V30 15 1 10 16
M  V30 16 1 11 17
M  V30 17 2 12 18
M  V30 18 1 13 19
M  V30 19 1 13 20
M  V30 20 1 13 21
M  V30 21 1 15 22
M  V30 22 1 16 23
M  V30 23 1 16 24
M  V30 24 1 16 25
M  V30 25 1 17 26
M  V30 26 1 17 27
M  V30 27 1 17 28
M  V30 28 1 18 29
M  V30 29 1 29 30
M  V30 30 1 29 31
M  V30 31 1 29 32
M  V30 32 1 11 15
M  V30 33 1 14 18
M  V30 34 1 6 33
M  V30 35 1 7 34
M  V30 36 1 9 35
M  V30 37 1 12 36
M  V30 38 1 14 37
M  V30 39 1 19 38
M  V30 40 1 19 39
M  V30 41 1 19 40
M  V30 42 1 20 41
M  V30 43 1 20 42
M  V30 44 1 20 43
M  V30 45 1 21 44
M  V30 46 1 21 45
M  V30 47 1 21 46
M  V30 48 1 22 47
M  V30 49 1 23 48
M  V30 50 1 23 49
M  V30 51 1 23 50
M  V30 52 1 24 51
M  V30 53 1 24 52
M  V30 54 1 24 53
M  V30 55 1 25 54
M  V30 56 1 25 55
M  V30 57 1 25 56
M  V30 58 1 26 57
M  V30 59 1 26 58
M  V30 60 1 26 59
M  V30 61 1 27 60
M  V30 62 1 27 61
M  V30 63 1 27 62
M  V30 64 1 28 63
M  V30 65 1 28 64
M  V30 66 1 28 65
M  V30 67 1 30 66
M  V30 68 1 30 67
M  V30 69 1 30 68
M  V30 70 1 31 69
M  V30 71 1 31 70
M  V30 72 1 31 71
M  V30 73 1 32 72
M  V30 74 1 32 73
M  V30 75 1 32 74
M  V30 END BOND
M  V30 END CTAB
M  END
>  <Structure No>
3114

>  <LogS>
-7.341090118

>  <MMFF94 Energy>
139.8

$$$$
Compound 3115
Actelion Java MolfileCreator 2.0

  0  0  0  0  0  0              0 V3000
M  V30 BEGIN CTAB
M  V30 COUNTS 28 29 0 0 0
M  V30 BEGIN ATOM
M  V30 1 Cl 3.3681 1.1218 -2.5902 0
M  V30 2 C 3.8439 0.4024 -1.0533 0
M  V30 3 C 2.9264 0.1368 -0.0024 0
M  V30 4 C 5.2051 0.1181 -0.8803 0
M  V30 5 C 1.4673 0.3991 -0.1131 0
M  V30 6 C 3.4199 -0.4032 1.2015 0
M  V30 7 C 5.6718 -0.4225 0.319 0
M  V30 8 O 0.934 0.6366 -1.2296 0
M  V30 9 O 0.677 0.4037 1.0434 0
M  V30 10 C 4.7792 -0.6809 1.3589 0
M  V30 11 Cl 7.3791 -0.772 0.5201 0
M  V30 12 O -0.6929 0.3941 1.0215 0
M  V30 13 C -1.4441 -0.406 0.1537 0
M  V30 14 O -0.8885 -1.3671 -0.4454 0
M  V30 15 C -2.9024 -0.1835 -0.0058 0
M  V30 16 C -3.5091 1.075 0.2325 0
M  V30 17 C -3.7152 -1.2605 -0.4107 0
M  V30 18 Cl -2.5857 2.5144 0.656 0
M  V30 19 C -4.8943 1.2224 0.0816 0
M  V30 20 C -5.0946 -1.0994 -0.5573 0
M  V30 21 C -5.6854 0.1397 -0.3082 0
M  V30 22 Cl -7.4184 0.3397 -0.4946 0
M  V30 23 H 5.905 0.3236 -1.6809 0
M  V30 24 H 2.7522 -0.6233 2.0253 0
M  V30 25 H 5.1368 -1.0994 2.2912 0
M  V30 26 H -3.2851 -2.2361 -0.6015 0
M  V30 27 H -5.3569 2.1855 0.2595 0
M  V30 28 H -5.7036 -1.9407 -0.8629 0
M  V30 END ATOM
M  V30 BEGIN BOND
M  V30 1 1 1 2
M  V30 2 2 2 3
M  V30 3 1 2 4
M  V30 4 1 3 5
M  V30 5 1 3 6
M  V30 6 2 4 7
M  V30 7 2 5 8
M  V30 8 1 5 9
M  V30 9 2 6 10
M  V30 10 1 7 11
M  V30 11 1 9 12
M  V30 12 1 12 13
M  V30 13 2 13 14
M  V30 14 1 13 15
M  V30 15 2 15 16
M  V30 16 1 15 17
M  V30 17 1 16 18
M  V30 18 1 16 19
M  V30 19 2 17 20
M  V30 20 2 19 21
M  V30 21 1 21 22
M  V30 22 1 7 10
M  V30 23 1 20 21
M  V30 24 1 4 23
M  V30 25 1 6 24
M  V30 26 1 10 25
M  V30 27 1 17 26
M  V30 28 1 19 27
M  V30 29 1 20 28
M  V30 END BOND
M  V30 END CTAB
M  END
>  <Structure No>
3115

>  <LogS>
-8.27876503

>  <MMFF94 Energy>
62.053

$$$$
Compound 3116
Actelion Java MolfileCreator 2.0

  0  0  0  0  0  0              0 V3000
M  V30 BEGIN CTAB
M  V30 COUNTS 77 76 0 0 0
M  V30 BEGIN ATOM
M  V30 1 N 0.3111 -0.2333 -0.4667 0 CHG=1 CFG=1
M  V30 2 C 1.5998 -0.5929 -1.1255 0
M  V30 3 C -0.0411 1.185 -0.775 0
M  V30 4 C -0.7859 -1.1586 -0.9049 0
M  V30 5 C 2.8504 -0.0905 -0.3366 0 CFG=2
M  V30 6 C -1.1157 1.7864 0.1802 0 CFG=2
M  V30 7 C -1.4522 -1.9324 0.2717 0 CFG=1
M  V30 8 C 4.0603 0.0576 -1.296 0
M  V30 9 C 3.188 -1.0348 0.8587 0
M  V30 10 C -1.7226 3.0634 -0.463 0
M  V30 11 C -0.5904 2.0204 1.6261 0
M  V30 12 C -2.819 -2.5696 -0.1113 0
M  V30 13 C -0.5128 -2.9306 1.0008 0
M  V30 14 C 5.2494 0.8289 -0.6895 0
M  V30 15 C 3.0428 -0.3325 2.2095 0
M  V30 16 C -2.8244 3.7641 0.3562 0
M  V30 17 C 0.5186 3.0681 1.7505 0
M  V30 18 C -2.883 -3.2016 -1.5199 0
M  V30 19 C -0.0468 -4.1266 0.1714 0
M  V30 20 C 4.9791 2.3373 -0.5717 0
M  V30 21 C -4.0367 2.8618 0.628 0
M  V30 22 C -4.1408 -4.0626 -1.7162 0
M  V30 23 C 6.2179 3.0815 -0.0847 0
M  V30 24 C -5.1651 3.6437 1.2948 0
M  V30 25 C -4.0004 -5.4497 -1.0897 0
M  V30 26 H 0.4566 -0.3226 0.5599 0
M  V30 27 H 1.7008 -1.6953 -1.2402 0
M  V30 28 H 1.6044 -0.1925 -2.1649 0
M  V30 29 H 0.8482 1.8439 -0.7672 0
M  V30 30 H -0.4011 1.2514 -1.8274 0
M  V30 31 H -1.5965 -0.5964 -1.422 0
M  V30 32 H -0.4449 -1.8789 -1.6787 0
M  V30 33 H 2.6229 0.9174 0.054 0
M  V30 34 H -1.9392 1.0489 0.2536 0
M  V30 35 H -1.7006 -1.1679 1.0416 0
M  V30 36 H 3.7514 0.581 -2.2275 0
M  V30 37 H 4.4049 -0.9552 -1.6001 0
M  V30 38 H 4.2257 -1.4266 0.7859 0
M  V30 39 H 2.5429 -1.9375 0.8628 0
M  V30 40 H -0.9139 3.7978 -0.6669 0
M  V30 41 H -2.1578 2.7934 -1.4502 0
M  V30 42 H -0.2287 1.0711 2.065 0
M  V30 43 H -1.4329 2.324 2.2814 0
M  V30 44 H -3.5972 -1.7752 -0.0666 0
M  V30 45 H -3.1 -3.3167 0.6601 0
M  V30 46 H 0.3758 -2.3949 1.3831 0
M  V30 47 H -1.0336 -3.3193 1.9029 0
M  V30 48 H 5.5237 0.4157 0.3045 0
M  V30 49 H 6.1247 0.6781 -1.3593 0
M  V30 50 H 3.7061 0.557 2.2533 0
M  V30 51 H 3.3337 -1.0288 3.0258 0
M  V30 52 H 1.9905 -0.0201 2.3733 0
M  V30 53 H -2.4124 4.1529 1.3111 0
M  V30 54 H -3.162 4.6473 -0.2268 0
M  V30 55 H 0.8 3.1734 2.8197 0
M  V30 56 H 1.4279 2.7639 1.1954 0
M  V30 57 H 0.1733 4.0595 1.3918 0
M  V30 58 H -1.9813 -3.8055 -1.741 0
M  V30 59 H -2.9143 -2.3851 -2.2735 0
M  V30 60 H 0.7242 -4.6843 0.743 0
M  V30 61 H 0.4043 -3.8055 -0.7871 0
M  V30 62 H -0.8908 -4.8214 -0.0148 0
M  V30 63 H 4.158 2.5301 0.1494 0
M  V30 64 H 4.6825 2.7458 -1.5622 0
M  V30 65 H -3.7494 2.0275 1.3015 0
M  V30 66 H -4.411 2.4346 -0.3264 0
M  V30 67 H -4.3148 -4.1926 -2.8062 0
M  V30 68 H -5.0312 -3.5471 -1.2946 0
M  V30 69 H 7.0636 2.9288 -0.7886 0
M  V30 70 H 5.9982 4.1675 -0.0267 0
M  V30 71 H 6.5101 2.7222 0.9247 0
M  V30 72 H -6.0298 2.9697 1.4742 0
M  V30 73 H -4.824 4.0548 2.2683 0
M  V30 74 H -5.4979 4.4766 0.64 0
M  V30 75 H -4.9129 -6.045 -1.3061 0
M  V30 76 H -3.8853 -5.3801 0.0112 0
M  V30 77 H -3.1227 -5.9803 -1.5157 0
M  V30 END ATOM
M  V30 BEGIN BOND
M  V30 1 1 1 2
M  V30 2 1 1 3
M  V30 3 1 1 4
M  V30 4 1 2 5
M  V30 5 1 3 6
M  V30 6 1 4 7
M  V30 7 1 5 8
M  V30 8 1 5 9
M  V30 9 1 6 10
M  V30 10 1 6 11
M  V30 11 1 7 12
M  V30 12 1 7 13
M  V30 13 1 8 14
M  V30 14 1 9 15
M  V30 15 1 10 16
M  V30 16 1 11 17
M  V30 17 1 12 18
M  V30 18 1 13 19
M  V30 19 1 14 20
M  V30 20 1 16 21
M  V30 21 1 18 22
M  V30 22 1 20 23
M  V30 23 1 21 24
M  V30 24 1 22 25
M  V30 25 1 1 26
M  V30 26 1 2 27
M  V30 27 1 2 28
M  V30 28 1 3 29
M  V30 29 1 3 30
M  V30 30 1 4 31
M  V30 31 1 4 32
M  V30 32 1 5 33
M  V30 33 1 6 34
M  V30 34 1 7 35
M  V30 35 1 8 36
M  V30 36 1 8 37
M  V30 37 1 9 38
M  V30 38 1 9 39
M  V30 39 1 10 40
M  V30 40 1 10 41
M  V30 41 1 11 42
M  V30 42 1 11 43
M  V30 43 1 12 44
M  V30 44 1 12 45
M  V30 45 1 13 46
M  V30 46 1 13 47
M  V30 47 1 14 48
M  V30 48 1 14 49
M  V30 49 1 15 50
M  V30 50 1 15 51
M  V30 51 1 15 52
M  V30 52 1 16 53
M  V30 53 1 16 54
M  V30 54 1 17 55
M  V30 55 1 17 56
M  V30 56 1 17 57
M  V30 57 1 18 58
M  V30 58 1 18 59
M  V30 59 1 19 60
M  V30 60 1 19 61
M  V30 61 1 19 62
M  V30 62 1 20 63
M  V30 63 1 20 64
M  V30 64 1 21 65
M  V30 65 1 21 66
M  V30 66 1 22 67
M  V30 67 1 22 68
M  V30 68 1 23 69
M  V30 69 1 23 70
M  V30 70 1 23 71
M  V30 71 1 24 72
M  V30 72 1 24 73
M  V30 73 1 24 74
M  V30 74 1 25 75
M  V30 75 1 25 76
M  V30 76 1 25 77
M  V30 END BOND
M  V30 BEGIN COLLECTION
M  V30 MDLV30/STEABS ATOMS=(3 1 6 7)
M  V30 MDLV30/STERAC1 ATOMS=(1 5)
M  V30 END COLLECTION
M  V30 END CTAB
M  END
>  <Structure No>
3116

>  <LogS>
-8.247579278

>  <MMFF94 Energy>
25.93

$$$$
Compound 3117
Actelion Java MolfileCreator 2.0

  0  0  0  0  0  0              0 V3000
M  V30 BEGIN CTAB
M  V30 COUNTS 72 80 0 0 0
M  V30 BEGIN ATOM
M  V30 1 O -5.5757 2.1291 1.4736 0
M  V30 2 C -4.9843 1.389 0.6396 0
M  V30 3 N -5.7474 0.5815 -0.2725 0
M  V30 4 C -3.5028 1.3479 0.6045 0
M  V30 5 C -5.0479 -0.3037 -1.1631 0
M  V30 6 C -7.2166 0.576 -0.2158 0
M  V30 7 C -2.8279 0.5002 -0.2988 0
M  V30 8 C -2.7654 2.1599 1.466 0
M  V30 9 O -5.6961 -1.0687 -1.9299 0
M  V30 10 C -3.5653 -0.3208 -1.1777 0
M  V30 11 C -7.7029 -0.4777 0.782 0
M  V30 12 C -1.3983 0.4706 -0.3207 0
M  V30 13 C -1.378 2.1282 1.4612 0
M  V30 14 C -2.8892 -1.1631 -2.0597 0
M  V30 15 C -9.2058 -0.4856 0.8565 0
M  V30 16 C -0.66 1.2713 0.5935 0
M  V30 17 C -0.7225 -0.3605 -1.2559 0
M  V30 18 C -1.5018 -1.1873 -2.0993 0
M  V30 19 C -9.9551 -1.2734 -0.0332 0
M  V30 20 C -9.8742 0.3362 1.7794 0
M  V30 21 C 0.7635 1.1989 0.6078 0
M  V30 22 C 0.7017 -0.3493 -1.3122 0
M  V30 23 C -11.3526 -1.2558 0.0166 0
M  V30 24 C -11.2719 0.35 1.8266 0
M  V30 25 C 1.4397 0.4099 -0.3628 0
M  V30 26 C 1.5414 1.8835 1.5717 0
M  V30 27 C 1.4209 -1.0689 -2.2957 0
M  V30 28 C -12.0104 -0.4467 0.9475 0
M  V30 29 C 2.8691 0.3785 -0.3833 0
M  V30 30 C 2.9284 1.8346 1.553 0
M  V30 31 C 2.8086 -1.0831 -2.3153 0
M  V30 32 C 3.6054 1.0997 0.5802 0
M  V30 33 C 3.5451 -0.3773 -1.3642 0
M  V30 34 C 5.0876 1.0738 0.5734 0
M  V30 35 C 5.0267 -0.4204 -1.3971 0
M  V30 36 O 5.7343 1.6956 1.4617 0
M  V30 37 N 5.7888 0.3382 -0.443 0
M  V30 38 O 5.6191 -1.1269 -2.2593 0
M  V30 39 C 7.2574 0.2739 -0.4386 0
M  V30 40 C 7.7333 -0.8858 0.4394 0
M  V30 41 C 9.2365 -0.9512 0.463 0
M  V30 42 C 9.9626 -0.2111 1.4113 0
M  V30 43 C 9.9286 -1.7065 -0.4981 0
M  V30 44 C 11.3607 -0.246 1.4111 0
M  V30 45 C 11.3267 -1.7386 -0.4947 0
M  V30 46 C 12.042 -1.0107 0.4603 0
M  V30 47 H -7.5937 1.5794 0.0807 0
M  V30 48 H -7.6389 0.3663 -1.2231 0
M  V30 49 H -3.2642 2.8319 2.1539 0
M  V30 50 H -7.3354 -1.4809 0.4737 0
M  V30 51 H -7.2754 -0.2648 1.7864 0
M  V30 52 H -0.9009 2.8121 2.1415 0
M  V30 53 H -3.4368 -1.815 -2.7296 0
M  V30 54 H -1.074 -1.8907 -2.7918 0
M  V30 55 H -9.4575 -1.8977 -0.7649 0
M  V30 56 H -9.3138 0.9651 2.4602 0
M  V30 57 H -11.9257 -1.8669 -0.6684 0
M  V30 58 H -11.7825 0.9809 2.5428 0
M  V30 59 H 1.1126 2.4537 2.3771 0
M  V30 60 H 0.9445 -1.6193 -3.0879 0
M  V30 61 H -13.092 -0.4337 0.9843 0
M  V30 62 H 3.4749 2.3805 2.3126 0
M  V30 63 H 3.3083 -1.6535 -3.0887 0
M  V30 64 H 7.6817 1.231 -0.0632 0
M  V30 65 H 7.6399 0.1454 -1.4748 0
M  V30 66 H 7.3186 -1.8415 0.0505 0
M  V30 67 H 7.3451 -0.7548 1.4732 0
M  V30 68 H 9.4464 0.393 2.1471 0
M  V30 69 H 9.3862 -2.2674 -1.2492 0
M  V30 70 H 11.9158 0.3225 2.146 0
M  V30 71 H 11.8555 -2.3253 -1.2347 0
M  V30 72 H 13.124 -1.0357 0.4608 0
M  V30 END ATOM
M  V30 BEGIN BOND
M  V30 1 2 1 2
M  V30 2 1 2 3
M  V30 3 1 2 4
M  V30 4 1 3 5
M  V30 5 1 3 6
M  V30 6 1 4 7
M  V30 7 2 4 8
M  V30 8 2 5 9
M  V30 9 1 5 10
M  V30 10 1 6 11
M  V30 11 1 7 12
M  V30 12 1 8 13
M  V30 13 1 10 14
M  V30 14 1 11 15
M  V30 15 1 12 16
M  V30 16 2 12 17
M  V30 17 2 14 18
M  V30 18 2 15 19
M  V30 19 1 15 20
M  V30 20 1 16 21
M  V30 21 1 17 22
M  V30 22 1 19 23
M  V30 23 2 20 24
M  V30 24 1 21 25
M  V30 25 2 21 26
M  V30 26 1 22 27
M  V30 27 2 23 28
M  V30 28 1 25 29
M  V30 29 1 26 30
M  V30 30 2 27 31
M  V30 31 1 29 32
M  V30 32 2 29 33
M  V30 33 1 32 34
M  V30 34 1 33 35
M  V30 35 2 34 36
M  V30 36 1 34 37
M  V30 37 2 35 38
M  V30 38 1 37 39
M  V30 39 1 39 40
M  V30 40 1 40 41
M  V30 41 2 41 42
M  V30 42 1 41 43
M  V30 43 1 42 44
M  V30 44 2 43 45
M  V30 45 2 44 46
M  V30 46 2 7 10
M  V30 47 2 13 16
M  V30 48 1 17 18
M  V30 49 2 22 25
M  V30 50 1 24 28
M  V30 51 2 30 32
M  V30 52 1 31 33
M  V30 53 1 35 37
M  V30 54 1 45 46
M  V30 55 1 6 47
M  V30 56 1 6 48
M  V30 57 1 8 49
M  V30 58 1 11 50
M  V30 59 1 11 51
M  V30 60 1 13 52
M  V30 61 1 14 53
M  V30 62 1 18 54
M  V30 63 1 19 55
M  V30 64 1 20 56
M  V30 65 1 23 57
M  V30 66 1 24 58
M  V30 67 1 26 59
M  V30 68 1 27 60
M  V30 69 1 28 61
M  V30 70 1 30 62
M  V30 71 1 31 63
M  V30 72 1 39 64
M  V30 73 1 39 65
M  V30 74 1 40 66
M  V30 75 1 40 67
M  V30 76 1 42 68
M  V30 77 1 43 69
M  V30 78 1 44 70
M  V30 79 1 45 71
M  V30 80 1 46 72
M  V30 END BOND
M  V30 END CTAB
M  END
>  <Structure No>
3117

>  <LogS>
-8.476148795

>  <MMFF94 Energy>
91.887

$$$$
Compound 3118
Actelion Java MolfileCreator 2.0

  0  0  0  0  0  0              0 V3000
M  V30 BEGIN CTAB
M  V30 COUNTS 61 61 0 0 0
M  V30 BEGIN ATOM
M  V30 1 N -8.9085 -0.1557 0.7789 0 CHG=1
M  V30 2 C -7.7836 0.3359 0.2243 0
M  V30 3 C -9.857 -0.0264 -0.1665 0
M  V30 4 N -7.981 0.7564 -1.0402 0
M  V30 5 C -6.4478 0.3301 0.902 0
M  V30 6 C -9.2849 0.5361 -1.2886 0
M  V30 7 C -5.6962 -0.9689 0.587 0
M  V30 8 C -4.3988 -1.1262 1.401 0
M  V30 9 C -3.3508 -0.0184 1.1873 0
M  V30 10 C -2.813 0.0295 -0.2527 0
M  V30 11 C -1.7761 1.1472 -0.4723 0
M  V30 12 C -0.4974 1.0435 0.3798 0
M  V30 13 C 0.3025 -0.242 0.1106 0
M  V30 14 C 1.5933 -0.3299 0.9456 0
M  V30 15 C 2.6456 0.7568 0.646 0
M  V30 16 C 3.0993 0.8393 -0.8245 0
M  V30 17 C 3.6698 -0.4701 -1.4052 0
M  V30 18 C 4.8694 -1.0535 -0.6369 0
M  V30 19 C 6.0852 -0.1154 -0.6251 0
M  V30 20 C 7.3021 -0.8021 0.0061 0
M  V30 21 C 8.5112 0.1398 0.0364 0
M  V30 22 C 9.7244 -0.5404 0.6638 0
M  V30 23 H -9.0217 -0.5633 1.7336 0
M  V30 24 H -10.8889 -0.33 -0.051 0
M  V30 25 H -7.2733 1.156 -1.6956 0
M  V30 26 H -5.8671 1.206 0.5438 0
M  V30 27 H -6.5939 0.4294 1.9995 0
M  V30 28 H -9.7813 0.7592 -2.2237 0
M  V30 29 H -6.3534 -1.8316 0.8355 0
M  V30 30 H -5.4824 -1.0311 -0.5007 0
M  V30 31 H -4.6596 -1.1594 2.4816 0
M  V30 32 H -3.9407 -2.1076 1.1498 0
M  V30 33 H -3.7665 0.97 1.4753 0
M  V30 34 H -2.5115 -0.2351 1.8805 0
M  V30 35 H -2.3883 -0.9558 -0.5372 0
M  V30 36 H -3.6534 0.2336 -0.9482 0
M  V30 37 H -2.2591 2.1268 -0.263 0
M  V30 38 H -1.4882 1.153 -1.5464 0
M  V30 39 H 0.1297 1.9225 0.1233 0
M  V30 40 H -0.7422 1.1245 1.4596 0
M  V30 41 H 0.5323 -0.3311 -0.9716 0
M  V30 42 H -0.318 -1.1196 0.3877 0
M  V30 43 H 1.3262 -0.2706 2.0234 0
M  V30 44 H 2.0483 -1.3314 0.7921 0
M  V30 45 H 3.5309 0.5792 1.2926 0
M  V30 46 H 2.2504 1.7483 0.9517 0
M  V30 47 H 2.2443 1.1648 -1.454 0
M  V30 48 H 3.8597 1.6434 -0.9157 0
M  V30 49 H 3.977 -0.2814 -2.457 0
M  V30 50 H 2.8665 -1.2357 -1.4471 0
M  V30 51 H 4.575 -1.3078 0.4032 0
M  V30 52 H 5.1557 -2.0058 -1.1349 0
M  V30 53 H 6.3317 0.1848 -1.6673 0
M  V30 54 H 5.8457 0.7969 -0.038 0
M  V30 55 H 7.0513 -1.1121 1.0449 0
M  V30 56 H 7.559 -1.7106 -0.5819 0
M  V30 57 H 8.2639 1.049 0.627 0
M  V30 58 H 8.7694 0.452 -0.9989 0
M  V30 59 H 9.5004 -0.8408 1.7097 0
M  V30 60 H 10.5825 0.1642 0.6729 0
M  V30 61 H 10.0093 -1.4394 0.0767 0
M  V30 END ATOM
M  V30 BEGIN BOND
M  V30 1 2 1 2
M  V30 2 1 1 3
M  V30 3 1 2 4
M  V30 4 1 2 5
M  V30 5 2 3 6
M  V30 6 1 5 7
M  V30 7 1 7 8
M  V30 8 1 8 9
M  V30 9 1 9 10
M  V30 10 1 10 11
M  V30 11 1 11 12
M  V30 12 1 12 13
M  V30 13 1 13 14
M  V30 14 1 14 15
M  V30 15 1 15 16
M  V30 16 1 16 17
M  V30 17 1 17 18
M  V30 18 1 18 19
M  V30 19 1 19 20
M  V30 20 1 20 21
M  V30 21 1 21 22
M  V30 22 1 4 6
M  V30 23 1 1 23
M  V30 24 1 3 24
M  V30 25 1 4 25
M  V30 26 1 5 26
M  V30 27 1 5 27
M  V30 28 1 6 28
M  V30 29 1 7 29
M  V30 30 1 7 30
M  V30 31 1 8 31
M  V30 32 1 8 32
M  V30 33 1 9 33
M  V30 34 1 9 34
M  V30 35 1 10 35
M  V30 36 1 10 36
M  V30 37 1 11 37
M  V30 38 1 11 38
M  V30 39 1 12 39
M  V30 40 1 12 40
M  V30 41 1 13 41
M  V30 42 1 13 42
M  V30 43 1 14 43
M  V30 44 1 14 44
M  V30 45 1 15 45
M  V30 46 1 15 46
M  V30 47 1 16 47
M  V30 48 1 16 48
M  V30 49 1 17 49
M  V30 50 1 17 50
M  V30 51 1 18 51
M  V30 52 1 18 52
M  V30 53 1 19 53
M  V30 54 1 19 54
M  V30 55 1 20 55
M  V30 56 1 20 56
M  V30 57 1 21 57
M  V30 58 1 21 58
M  V30 59 1 22 59
M  V30 60 1 22 60
M  V30 61 1 22 61
M  V30 END BOND
M  V30 END CTAB
M  END
>  <Structure No>
3118

>  <LogS>
-7.214642713

>  <MMFF94 Energy>
22.152

$$$$
Compound 3119
Actelion Java MolfileCreator 2.0

  0  0  0  0  0  0              0 V3000
M  V30 BEGIN CTAB
M  V30 COUNTS 71 72 0 0 0
M  V30 BEGIN ATOM
M  V30 1 O 9.0648 -2.6969 0.5547 0
M  V30 2 C 9.4688 -2.0056 -0.4217 0
M  V30 3 O 8.7574 -0.8662 -0.8201 0
M  V30 4 C 10.7001 -2.3851 -1.1495 0
M  V30 5 C 7.528 -0.4579 -0.2229 0
M  V30 6 C 11.4638 -3.4006 -0.728 0
M  V30 7 C 11.1296 -1.5698 -2.3383 0
M  V30 8 C 6.3734 -1.3316 -0.7255 0
M  V30 9 C 5.04 -0.9268 -0.0975 0
M  V30 10 O 4.69 0.3954 -0.4999 0
M  V30 11 C 3.5216 1.062 -0.1021 0
M  V30 12 C 3.3054 2.3605 -0.5707 0
M  V30 13 C 2.569 0.4746 0.7469 0
M  V30 14 C 2.1609 3.0724 -0.2013 0
M  V30 15 C 1.4227 1.1823 1.1169 0
M  V30 16 C 1.1886 2.491 0.644 0
M  V30 17 C -0.0739 3.2423 1.1108 0
M  V30 18 C -1.3153 2.3621 0.8672 0
M  V30 19 C -0.3074 4.5703 0.3506 0
M  V30 20 C 0.1363 3.5941 2.6039 0
M  V30 21 C -2.3218 2.1706 1.8403 0
M  V30 22 C -1.5037 1.7753 -0.4024 0
M  V30 23 C -3.4504 1.3954 1.559 0
M  V30 24 C -2.6331 1.0012 -0.6793 0
M  V30 25 C -3.6172 0.8058 0.304 0
M  V30 26 O -4.7714 0.0426 0.0743 0
M  V30 27 C -5.0772 -0.605 -1.1587 0
M  V30 28 C -6.4209 -1.3259 -1.0518 0
M  V30 29 C -7.5773 -0.3412 -0.845 0
M  V30 30 O -8.8272 -1.0282 -0.8606 0
M  V30 31 C -9.2934 -1.8103 0.2048 0
M  V30 32 O -8.6279 -1.8855 1.2744 0
M  V30 33 C -10.5721 -2.5449 0.0829 0
M  V30 34 C -11.3231 -2.4227 -1.017 0
M  V30 35 C -11.0627 -3.382 1.2335 0
M  V30 36 H 7.6064 -0.5068 0.8858 0
M  V30 37 H 7.3398 0.599 -0.5066 0
M  V30 38 H 11.1939 -3.9895 0.1397 0
M  V30 39 H 12.3795 -3.6605 -1.2441 0
M  V30 40 H 11.8588 -2.1202 -2.9711 0
M  V30 41 H 11.5977 -0.625 -1.9894 0
M  V30 42 H 10.2506 -1.326 -2.9718 0
M  V30 43 H 6.3007 -1.2478 -1.8319 0
M  V30 44 H 6.5752 -2.3947 -0.4734 0
M  V30 45 H 5.1164 -0.9786 1.0105 0
M  V30 46 H 4.2556 -1.6361 -0.4392 0
M  V30 47 H 4.0342 2.8251 -1.2228 0
M  V30 48 H 2.7056 -0.5268 1.1319 0
M  V30 49 H 2.0546 4.0758 -0.5859 0
M  V30 50 H 0.7109 0.705 1.7791 0
M  V30 51 H -0.3508 4.4003 -0.747 0
M  V30 52 H -1.2708 5.0304 0.6615 0
M  V30 53 H 0.496 5.3063 0.5697 0
M  V30 54 H 1.0973 4.136 2.7416 0
M  V30 55 H 0.1693 2.6773 3.2308 0
M  V30 56 H -0.6726 4.256 2.9812 0
M  V30 57 H -2.2551 2.6125 2.8231 0
M  V30 58 H -0.77 1.9187 -1.1861 0
M  V30 59 H -4.2059 1.2571 2.3222 0
M  V30 60 H -2.7325 0.564 -1.6636 0
M  V30 61 H -5.1178 0.1423 -1.9815 0
M  V30 62 H -4.2869 -1.3524 -1.3883 0
M  V30 63 H -6.3817 -2.0462 -0.2074 0
M  V30 64 H -6.5959 -1.8995 -1.9871 0
M  V30 65 H -7.5798 0.3992 -1.6732 0
M  V30 66 H -7.4586 0.213 0.1119 0
M  V30 67 H -11.0095 -1.8088 -1.8521 0
M  V30 68 H -12.2734 -2.9354 -1.1024 0
M  V30 69 H -11.8361 -4.1115 0.9094 0
M  V30 70 H -10.2217 -3.9571 1.6747 0
M  V30 71 H -11.4979 -2.721 2.0118 0
M  V30 END ATOM
M  V30 BEGIN BOND
M  V30 1 2 1 2
M  V30 2 1 2 3
M  V30 3 1 2 4
M  V30 4 1 3 5
M  V30 5 2 4 6
M  V30 6 1 4 7
M  V30 7 1 5 8
M  V30 8 1 8 9
M  V30 9 1 9 10
M  V30 10 1 10 11
M  V30 11 2 11 12
M  V30 12 1 11 13
M  V30 13 1 12 14
M  V30 14 2 13 15
M  V30 15 2 14 16
M  V30 16 1 16 17
M  V30 17 1 17 18
M  V30 18 1 17 19
M  V30 19 1 17 20
M  V30 20 2 18 21
M  V30 21 1 18 22
M  V30 22 1 21 23
M  V30 23 2 22 24
M  V30 24 2 23 25
M  V30 25 1 25 26
M  V30 26 1 26 27
M  V30 27 1 27 28
M  V30 28 1 28 29
M  V30 29 1 29 30
M  V30 30 1 30 31
M  V30 31 2 31 32
M  V30 32 1 31 33
M  V30 33 2 33 34
M  V30 34 1 33 35
M  V30 35 1 15 16
M  V30 36 1 24 25
M  V30 37 1 5 36
M  V30 38 1 5 37
M  V30 39 1 6 38
M  V30 40 1 6 39
M  V30 41 1 7 40
M  V30 42 1 7 41
M  V30 43 1 7 42
M  V30 44 1 8 43
M  V30 45 1 8 44
M  V30 46 1 9 45
M  V30 47 1 9 46
M  V30 48 1 12 47
M  V30 49 1 13 48
M  V30 50 1 14 49
M  V30 51 1 15 50
M  V30 52 1 19 51
M  V30 53 1 19 52
M  V30 54 1 19 53
M  V30 55 1 20 54
M  V30 56 1 20 55
M  V30 57 1 20 56
M  V30 58 1 21 57
M  V30 59 1 22 58
M  V30 60 1 23 59
M  V30 61 1 24 60
M  V30 62 1 27 61
M  V30 63 1 27 62
M  V30 64 1 28 63
M  V30 65 1 28 64
M  V30 66 1 29 65
M  V30 67 1 29 66
M  V30 68 1 34 67
M  V30 69 1 34 68
M  V30 70 1 35 69
M  V30 71 1 35 70
M  V30 72 1 35 71
M  V30 END BOND
M  V30 END CTAB
M  END
>  <Structure No>
3119

>  <LogS>
-7.456475388

>  <MMFF94 Energy>
67.803

$$$$
Compound 3120
Actelion Java MolfileCreator 2.0

  0  0  0  0  0  0              0 V3000
M  V30 BEGIN CTAB
M  V30 COUNTS 51 52 0 0 0
M  V30 BEGIN ATOM
M  V30 1 S 5.5525 -0.3259 -2.9367 0
M  V30 2 C 4.9765 -0.8186 -1.4365 0
M  V30 3 C 5.1224 1.2912 -2.7409 0
M  V30 4 N 5.0061 -2.18 -0.9846 0
M  V30 5 C 4.4682 0.2888 -0.7451 0
M  V30 6 N 5.342 2.3218 -3.7083 0 CHG=1
M  V30 7 C 4.5367 1.4743 -1.4932 0
M  V30 8 N 3.9969 -2.8302 -0.5422 0
M  V30 9 N 3.9909 0.258 0.6079 0 CHG=1
M  V30 10 O 5.8811 2.0535 -4.801 0
M  V30 11 O 4.9574 3.616 -3.4444 0 CHG=-1
M  V30 12 C 2.6375 -2.3625 -0.5445 0
M  V30 13 O 4.353 -0.645 1.3895 0
M  V30 14 O 3.2443 1.3044 1.0981 0 CHG=-1
M  V30 15 C 1.8387 -2.5885 0.5806 0
M  V30 16 C 2.0771 -1.7401 -1.671 0
M  V30 17 C 0.519 -2.13 0.6147 0
M  V30 18 C 0.7584 -1.2803 -1.6396 0
M  V30 19 C -0.0326 -1.4551 -0.4895 0
M  V30 20 N -1.3828 -0.9378 -0.437 0
M  V30 21 C -1.6916 0.4043 -0.9582 0
M  V30 22 C -2.4621 -1.7354 0.1646 0
M  V30 23 C -0.9257 1.4776 -0.1782 0
M  V30 24 C -2.8757 -1.1619 1.5201 0
M  V30 25 O -1.2804 2.7804 -0.637 0
M  V30 26 O -3.8475 -2.0127 2.1189 0
M  V30 27 C -2.4794 3.4161 -0.2951 0
M  V30 28 C -4.4147 -1.7449 3.3679 0
M  V30 29 O -3.292 2.8769 0.5045 0
M  V30 30 C -2.7693 4.7741 -0.8373 0
M  V30 31 O -4.0621 -0.7325 4.0321 0
M  V30 32 C -5.4086 -2.6962 3.9418 0
M  V30 33 H 4.1995 2.4352 -1.1269 0
M  V30 34 H 2.2509 -3.0932 1.4456 0
M  V30 35 H 2.6557 -1.6165 -2.5769 0
M  V30 36 H -0.0607 -2.2856 1.5137 0
M  V30 37 H 0.3563 -0.8044 -2.5228 0
M  V30 38 H -2.7815 0.6071 -0.8787 0
M  V30 39 H -1.4406 0.4679 -2.0369 0
M  V30 40 H -2.1432 -2.7931 0.2906 0
M  V30 41 H -3.341 -1.7437 -0.5159 0
M  V30 42 H -1.1278 1.3861 0.9112 0
M  V30 43 H 0.1645 1.3391 -0.3362 0
M  V30 44 H -1.9896 -1.085 2.1855 0
M  V30 45 H -3.3094 -0.148 1.3836 0
M  V30 46 H -3.8641 4.9081 -0.9703 0
M  V30 47 H -2.2702 4.9026 -1.8205 0
M  V30 48 H -2.3895 5.5421 -0.132 0
M  V30 49 H -4.8816 -3.4523 4.5604 0
M  V30 50 H -6.1411 -2.1507 4.5741 0
M  V30 51 H -5.9549 -3.2109 3.1237 0
M  V30 END ATOM
M  V30 BEGIN BOND
M  V30 1 1 1 2
M  V30 2 1 1 3
M  V30 3 1 2 4
M  V30 4 2 2 5
M  V30 5 1 3 6
M  V30 6 2 3 7
M  V30 7 2 4 8
M  V30 8 1 5 9
M  V30 9 2 6 10
M  V30 10 1 6 11
M  V30 11 1 8 12
M  V30 12 2 9 13
M  V30 13 1 9 14
M  V30 14 2 12 15
M  V30 15 1 12 16
M  V30 16 1 15 17
M  V30 17 2 16 18
M  V30 18 2 17 19
M  V30 19 1 19 20
M  V30 20 1 20 21
M  V30 21 1 20 22
M  V30 22 1 21 23
M  V30 23 1 22 24
M  V30 24 1 23 25
M  V30 25 1 24 26
M  V30 26 1 25 27
M  V30 27 1 26 28
M  V30 28 2 27 29
M  V30 29 1 27 30
M  V30 30 2 28 31
M  V30 31 1 28 32
M  V30 32 1 5 7
M  V30 33 1 18 19
M  V30 34 1 7 33
M  V30 35 1 15 34
M  V30 36 1 16 35
M  V30 37 1 17 36
M  V30 38 1 18 37
M  V30 39 1 21 38
M  V30 40 1 21 39
M  V30 41 1 22 40
M  V30 42 1 22 41
M  V30 43 1 23 42
M  V30 44 1 23 43
M  V30 45 1 24 44
M  V30 46 1 24 45
M  V30 47 1 30 46
M  V30 48 1 30 47
M  V30 49 1 30 48
M  V30 50 1 32 49
M  V30 51 1 32 50
M  V30 52 1 32 51
M  V30 END BOND
M  V30 END CTAB
M  END
>  <Structure No>
3120

>  <LogS>
-7.547293505

>  <MMFF94 Energy>
74.746

$$$$
Compound 3121
Actelion Java MolfileCreator 2.0

  0  0  0  0  0  0              0 V3000
M  V30 BEGIN CTAB
M  V30 COUNTS 46 51 0 0 0
M  V30 BEGIN ATOM
M  V30 1 Cl 4.7963 -3.818 3.4624 0
M  V30 2 C 4.4694 -2.8481 2.0259 0
M  V30 3 C 5.1289 -3.1436 0.8039 0
M  V30 4 C 3.5494 -1.7781 2.0982 0
M  V30 5 Cl 6.2769 -4.4801 0.7217 0
M  V30 6 C 4.8696 -2.3711 -0.3504 0
M  V30 7 Cl 2.7107 -1.3911 3.598 0
M  V30 8 C 3.3138 -1.0331 0.9403 0
M  V30 9 Cl 5.6718 -2.7143 -1.8802 0
M  V30 10 C 3.9534 -1.3213 -0.2482 0
M  V30 11 C 2.4413 0.117 0.7026 0
M  V30 12 C 3.4829 -0.3585 -1.2453 0
M  V30 13 O 1.7585 0.7157 1.5759 0
M  V30 14 N 2.5132 0.5167 -0.6675 0
M  V30 15 O 3.8599 -0.2963 -2.4455 0
M  V30 16 C 2.0326 1.7536 -1.2162 0
M  V30 17 C 0.6528 2.0715 -1.2075 0
M  V30 18 C 2.9518 2.676 -1.7396 0
M  V30 19 N -0.2812 1.1758 -0.7618 0 CHG=1
M  V30 20 C 0.2291 3.3313 -1.6945 0
M  V30 21 C 2.5207 3.9105 -2.2272 0
M  V30 22 C -1.6137 1.4758 -0.7265 0
M  V30 23 C -1.1323 3.6482 -1.6722 0
M  V30 24 C 1.1664 4.2429 -2.1994 0
M  V30 25 C -2.0541 2.726 -1.1827 0
M  V30 26 C -2.5844 0.4878 -0.2042 0 CHG=-1
M  V30 27 C -3.9769 0.2927 -0.6209 0
M  V30 28 C -2.3503 -0.5182 0.8362 0
M  V30 29 O -4.5665 0.9307 -1.5324 0
M  V30 30 C -4.5478 -0.8067 0.1615 0
M  V30 31 O -1.2855 -0.66 1.4935 0
M  V30 32 C -3.5805 -1.2906 1.0237 0
M  V30 33 C -5.8325 -1.3594 0.1235 0
M  V30 34 C -3.8461 -2.3516 1.896 0
M  V30 35 Cl -7.0498 -0.7274 -0.9826 0
M  V30 36 C -6.1268 -2.4317 0.9939 0
M  V30 37 Cl -2.5975 -2.9532 2.9845 0
M  V30 38 C -5.1354 -2.9269 1.8783 0
M  V30 39 Cl -7.7354 -3.1559 0.9777 0
M  V30 40 Cl -5.5104 -4.2674 2.9622 0
M  V30 41 H 4.0096 2.4458 -1.7474 0
M  V30 42 H 0.0175 0.2186 -0.4748 0
M  V30 43 H 3.2412 4.6164 -2.6197 0
M  V30 44 H -1.4831 4.6096 -2.0287 0
M  V30 45 H 0.851 5.2084 -2.5769 0
M  V30 46 H -3.1009 2.9972 -1.1477 0
M  V30 END ATOM
M  V30 BEGIN BOND
M  V30 1 1 1 2
M  V30 2 2 2 3
M  V30 3 1 2 4
M  V30 4 1 3 5
M  V30 5 1 3 6
M  V30 6 1 4 7
M  V30 7 2 4 8
M  V30 8 1 6 9
M  V30 9 2 6 10
M  V30 10 1 8 11
M  V30 11 1 10 12
M  V30 12 2 11 13
M  V30 13 1 11 14
M  V30 14 2 12 15
M  V30 15 1 14 16
M  V30 16 1 16 17
M  V30 17 2 16 18
M  V30 18 2 17 19
M  V30 19 1 17 20
M  V30 20 1 18 21
M  V30 21 1 19 22
M  V30 22 2 20 23
M  V30 23 1 20 24
M  V30 24 2 22 25
M  V30 25 1 22 26
M  V30 26 1 26 27
M  V30 27 1 26 28
M  V30 28 2 27 29
M  V30 29 1 27 30
M  V30 30 2 28 31
M  V30 31 1 28 32
M  V30 32 1 30 33
M  V30 33 1 32 34
M  V30 34 1 33 35
M  V30 35 2 33 36
M  V30 36 1 34 37
M  V30 37 2 34 38
M  V30 38 1 36 39
M  V30 39 1 38 40
M  V30 40 1 8 10
M  V30 41 1 12 14
M  V30 42 2 21 24
M  V30 43 1 23 25
M  V30 44 2 30 32
M  V30 45 1 36 38
M  V30 46 1 18 41
M  V30 47 1 19 42
M  V30 48 1 21 43
M  V30 49 1 23 44
M  V30 50 1 24 45
M  V30 51 1 25 46
M  V30 END BOND
M  V30 END CTAB
M  END
>  <Structure No>
3121

>  <LogS>
-7.727396093

>  <MMFF94 Energy>
15.991

$$$$
Compound 3122
Actelion Java MolfileCreator 2.0

  0  0  0  0  0  0              0 V3000
M  V30 BEGIN CTAB
M  V30 COUNTS 45 46 0 0 0
M  V30 BEGIN ATOM
M  V30 1 O 8.454 0.1605 1.6864 0
M  V30 2 N 7.9384 0.1114 0.5504 0 CHG=1
M  V30 3 O 8.7641 0.0862 -0.5501 0 CHG=-1
M  V30 4 C 6.5071 0.0869 0.3929 0
M  V30 5 C 5.6624 0.1172 1.5139 0
M  V30 6 C 5.936 0.0326 -0.8861 0
M  V30 7 C 4.2682 0.0948 1.369 0
M  V30 8 C 4.5462 0.0096 -1.0487 0
M  V30 9 C 3.4731 0.1304 2.5735 0
M  V30 10 C 3.6926 0.0401 0.0715 0
M  V30 11 C 4.004 -0.0459 -2.3853 0
M  V30 12 N 2.8395 0.1593 3.5418 0
M  V30 13 N 2.2707 0.0157 -0.1621 0
M  V30 14 N 3.5693 -0.0905 -3.4569 0
M  V30 15 N 1.398 0.0333 0.7612 0
M  V30 16 C -0.0218 0.0105 0.533 0
M  V30 17 C -0.6255 -0.0386 -0.7564 0
M  V30 18 C -0.8415 0.0405 1.6683 0
M  V30 19 C -2.0297 -0.0557 -0.8531 0
M  V30 20 C 0.1752 -0.0694 -2.0323 0
M  V30 21 C -2.2306 0.0239 1.5538 0
M  V30 22 C -2.835 -0.0251 0.2934 0
M  V30 23 N -4.271 -0.0428 0.1759 0
M  V30 24 C -4.9338 -1.1525 -0.5244 0
M  V30 25 C -5.0652 1.0483 0.7585 0
M  V30 26 C -4.8049 -2.4427 0.2775 0
M  V30 27 C -4.8422 2.3428 -0.0155 0
M  V30 28 H 6.0911 0.1592 2.5086 0
M  V30 29 H 6.5726 0.0083 -1.7624 0
M  V30 30 H -0.3952 0.0745 2.6548 0
M  V30 31 H -2.5032 -0.0739 -1.8265 0
M  V30 32 H 0.8182 -0.9738 -2.0545 0
M  V30 33 H 0.7955 0.8475 -2.113 0
M  V30 34 H -0.478 -0.1065 -2.93 0
M  V30 35 H -2.8346 0.031 2.4517 0
M  V30 36 H -6.013 -0.937 -0.6784 0
M  V30 37 H -4.4873 -1.2937 -1.5308 0
M  V30 38 H -6.1495 0.8053 0.7388 0
M  V30 39 H -4.7888 1.1991 1.8231 0
M  V30 40 H -3.7367 -2.7296 0.3775 0
M  V30 41 H -5.2435 -2.3069 1.2888 0
M  V30 42 H -5.3458 -3.2612 -0.242 0
M  V30 43 H -3.7791 2.6561 0.055 0
M  V30 44 H -5.1108 2.198 -1.0834 0
M  V30 45 H -5.4789 3.147 0.4095 0
M  V30 END ATOM
M  V30 BEGIN BOND
M  V30 1 2 1 2
M  V30 2 1 2 3
M  V30 3 1 2 4
M  V30 4 2 4 5
M  V30 5 1 4 6
M  V30 6 1 5 7
M  V30 7 2 6 8
M  V30 8 1 7 9
M  V30 9 2 7 10
M  V30 10 1 8 11
M  V30 11 3 9 12
M  V30 12 1 10 13
M  V30 13 3 11 14
M  V30 14 2 13 15
M  V30 15 1 15 16
M  V30 16 2 16 17
M  V30 17 1 16 18
M  V30 18 1 17 19
M  V30 19 1 17 20
M  V30 20 2 18 21
M  V30 21 2 19 22
M  V30 22 1 22 23
M  V30 23 1 23 24
M  V30 24 1 23 25
M  V30 25 1 24 26
M  V30 26 1 25 27
M  V30 27 1 8 10
M  V30 28 1 21 22
M  V30 29 1 5 28
M  V30 30 1 6 29
M  V30 31 1 18 30
M  V30 32 1 19 31
M  V30 33 1 20 32
M  V30 34 1 20 33
M  V30 35 1 20 34
M  V30 36 1 21 35
M  V30 37 1 24 36
M  V30 38 1 24 37
M  V30 39 1 25 38
M  V30 40 1 25 39
M  V30 41 1 26 40
M  V30 42 1 26 41
M  V30 43 1 26 42
M  V30 44 1 27 43
M  V30 45 1 27 44
M  V30 46 1 27 45
M  V30 END BOND
M  V30 END CTAB
M  END
>  <Structure No>
3122

>  <LogS>
-7.47281997

>  <MMFF94 Energy>
69.155

$$$$
Compound 3123
Actelion Java MolfileCreator 2.0

  0  0  0  0  0  0              0 V3000
M  V30 BEGIN CTAB
M  V30 COUNTS 55 54 0 0 0
M  V30 BEGIN ATOM
M  V30 1 O 5.0859 -2.6578 -0.9374 0
M  V30 2 C 4.6352 -2.4356 0.2195 0
M  V30 3 O 5.3195 -1.5976 1.1065 0
M  V30 4 C 3.3332 -3.0433 0.6408 0
M  V30 5 C 6.4823 -0.8556 0.744 0
M  V30 6 C 2.1381 -2.344 -0.0205 0
M  V30 7 C 6.0952 0.3864 -0.0694 0 CFG=1
M  V30 8 C 1.9906 -0.8827 0.4405 0
M  V30 9 O 5.2655 1.204 0.7143 0
M  V30 10 C 7.3483 1.1635 -0.4908 0
M  V30 11 C 0.7959 -0.1747 -0.2179 0
M  V30 12 O 6.9859 2.2532 -1.2938 0
M  V30 13 C -0.5454 -0.5636 0.428 0
M  V30 14 C -1.7456 0.1155 -0.2515 0
M  V30 15 C -1.8969 1.5917 0.1513 0
M  V30 16 C -3.0157 2.3099 -0.623 0
M  V30 17 C -4.4313 1.7877 -0.297 0
M  V30 18 C -4.9786 0.8683 -1.4012 0
M  V30 19 C -6.4264 0.4209 -1.1405 0
M  V30 20 C -6.5679 -0.5312 0.0662 0
M  V30 21 C -7.1849 0.161 1.2817 0
M  V30 22 H 3.235 -2.9921 1.7467 0
M  V30 23 H 3.3295 -4.1167 0.3532 0
M  V30 24 H 6.9994 -0.538 1.6758 0
M  V30 25 H 7.1828 -1.5025 0.1702 0
M  V30 26 H 2.2522 -2.3817 -1.1265 0
M  V30 27 H 1.2236 -2.9138 0.2454 0
M  V30 28 H 5.5529 0.054 -0.9857 0
M  V30 29 H 1.8964 -0.8381 1.5479 0
M  V30 30 H 2.9096 -0.3245 0.1599 0
M  V30 31 H 4.7632 1.7911 0.0908 0
M  V30 32 H 7.8859 1.5272 0.4142 0
M  V30 33 H 8.0261 0.4916 -1.0653 0
M  V30 34 H 0.7766 -0.4003 -1.3068 0
M  V30 35 H 0.9516 0.9185 -0.106 0
M  V30 36 H 7.833 2.707 -1.5408 0
M  V30 37 H -0.6874 -1.6611 0.3404 0
M  V30 38 H -0.5336 -0.3126 1.5117 0
M  V30 39 H -1.6573 0.0239 -1.3558 0
M  V30 40 H -2.6588 -0.4317 0.0642 0
M  V30 41 H -2.0924 1.6649 1.2434 0
M  V30 42 H -0.9514 2.1343 -0.0544 0
M  V30 43 H -2.9721 3.3855 -0.3428 0
M  V30 44 H -2.8063 2.2635 -1.7145 0
M  V30 45 H -5.1162 2.6573 -0.1965 0
M  V30 46 H -4.4272 1.2566 0.6769 0
M  V30 47 H -4.9619 1.4191 -2.3679 0
M  V30 48 H -4.332 -0.0263 -1.5214 0
M  V30 49 H -7.0843 1.3119 -1.0345 0
M  V30 50 H -6.7744 -0.1178 -2.0489 0
M  V30 51 H -7.231 -1.3777 -0.2164 0
M  V30 52 H -5.5864 -0.97 0.3497 0
M  V30 53 H -7.239 -0.5551 2.1296 0
M  V30 54 H -6.5763 1.0341 1.5948 0
M  V30 55 H -8.2142 0.5042 1.0445 0
M  V30 END ATOM
M  V30 BEGIN BOND
M  V30 1 2 1 2
M  V30 2 1 2 3
M  V30 3 1 2 4
M  V30 4 1 3 5
M  V30 5 1 4 6
M  V30 6 1 5 7
M  V30 7 1 6 8
M  V30 8 1 7 9
M  V30 9 1 7 10
M  V30 10 1 8 11
M  V30 11 1 10 12
M  V30 12 1 11 13
M  V30 13 1 13 14
M  V30 14 1 14 15
M  V30 15 1 15 16
M  V30 16 1 16 17
M  V30 17 1 17 18
M  V30 18 1 18 19
M  V30 19 1 19 20
M  V30 20 1 20 21
M  V30 21 1 4 22
M  V30 22 1 4 23
M  V30 23 1 5 24
M  V30 24 1 5 25
M  V30 25 1 6 26
M  V30 26 1 6 27
M  V30 27 1 7 28
M  V30 28 1 8 29
M  V30 29 1 8 30
M  V30 30 1 9 31
M  V30 31 1 10 32
M  V30 32 1 10 33
M  V30 33 1 11 34
M  V30 34 1 11 35
M  V30 35 1 12 36
M  V30 36 1 13 37
M  V30 37 1 13 38
M  V30 38 1 14 39
M  V30 39 1 14 40
M  V30 40 1 15 41
M  V30 41 1 15 42
M  V30 42 1 16 43
M  V30 43 1 16 44
M  V30 44 1 17 45
M  V30 45 1 17 46
M  V30 46 1 18 47
M  V30 47 1 18 48
M  V30 48 1 19 49
M  V30 49 1 19 50
M  V30 50 1 20 51
M  V30 51 1 20 52
M  V30 52 1 21 53
M  V30 53 1 21 54
M  V30 54 1 21 55
M  V30 END BOND
M  V30 BEGIN COLLECTION
M  V30 MDLV30/STEABS ATOMS=(1 7)
M  V30 END COLLECTION
M  V30 END CTAB
M  END
>  <Structure No>
3123

>  <LogS>
-7.397875398

>  <MMFF94 Energy>
21.745

$$$$
Compound 3124
Actelion Java MolfileCreator 2.0

  0  0  0  0  0  0              0 V3000
M  V30 BEGIN CTAB
M  V30 COUNTS 43 46 0 0 0
M  V30 BEGIN ATOM
M  V30 1 Cl 9.2657 0.486 -1.5398 0
M  V30 2 C 7.7919 0.0482 -0.6962 0
M  V30 3 C 6.5409 0.4038 -1.2403 0
M  V30 4 C 7.8634 -0.6601 0.5276 0
M  V30 5 C 5.4004 0.0331 -0.5322 0
M  V30 6 C 6.6872 -1.0173 1.2143 0
M  V30 7 N 4.1166 0.2617 -0.8544 0
M  V30 8 C 5.4732 -0.6474 0.6433 0
M  V30 9 C 3.4516 -0.3155 0.1843 0
M  V30 10 O 4.2621 -0.8594 1.0804 0
M  V30 11 C 1.9731 -0.3307 0.296 0
M  V30 12 C 1.3122 -0.9376 1.3862 0
M  V30 13 C 1.1865 0.2694 -0.6987 0
M  V30 14 O 1.9667 -1.4913 2.3092 0
M  V30 15 O -0.0162 -0.9343 1.4564 0
M  V30 16 C -0.2061 0.2531 -0.5895 0
M  V30 17 C -0.7866 -0.3747 0.5296 0
M  V30 18 C -1.0247 0.8434 -1.5616 0
M  V30 19 C -2.1782 -0.4076 0.6664 0
M  V30 20 C -2.4149 0.8087 -1.4188 0
M  V30 21 C -3.0018 0.1837 -0.3059 0
M  V30 22 N -4.4352 0.1493 -0.1633 0
M  V30 23 C -5.1988 1.4055 -0.1483 0
M  V30 24 C -5.1263 -1.1416 -0.0327 0
M  V30 25 C -4.9158 2.1868 1.1301 0
M  V30 26 C -5.062 -1.9164 -1.3443 0
M  V30 27 H 6.4661 0.9454 -2.1745 0
M  V30 28 H 8.8261 -0.931 0.9417 0
M  V30 29 H 6.7251 -1.5586 2.1504 0
M  V30 30 H 1.6529 0.7473 -1.5525 0
M  V30 31 H -0.5919 1.3265 -2.4295 0
M  V30 32 H -2.6151 -0.8774 1.5384 0
M  V30 33 H -3.0342 1.2536 -2.1866 0
M  V30 34 H -4.9354 2.0265 -1.03 0
M  V30 35 H -6.2907 1.2076 -0.209 0
M  V30 36 H -4.6663 -1.744 0.7783 0
M  V30 37 H -6.1934 -0.9951 0.2411 0
M  V30 38 H -5.1724 1.5695 2.0172 0
M  V30 39 H -5.5295 3.1121 1.1464 0
M  V30 40 H -3.8433 2.4703 1.1796 0
M  V30 41 H -5.6225 -2.8695 -1.2431 0
M  V30 42 H -4.0076 -2.1494 -1.6033 0
M  V30 43 H -5.5158 -1.3172 -2.162 0
M  V30 END ATOM
M  V30 BEGIN BOND
M  V30 1 1 1 2
M  V30 2 2 2 3
M  V30 3 1 2 4
M  V30 4 1 3 5
M  V30 5 2 4 6
M  V30 6 1 5 7
M  V30 7 2 5 8
M  V30 8 2 7 9
M  V30 9 1 8 10
M  V30 10 1 9 11
M  V30 11 1 11 12
M  V30 12 2 11 13
M  V30 13 2 12 14
M  V30 14 1 12 15
M  V30 15 1 13 16
M  V30 16 1 15 17
M  V30 17 1 16 18
M  V30 18 1 17 19
M  V30 19 2 18 20
M  V30 20 2 19 21
M  V30 21 1 21 22
M  V30 22 1 22 23
M  V30 23 1 22 24
M  V30 24 1 23 25
M  V30 25 1 24 26
M  V30 26 1 6 8
M  V30 27 1 9 10
M  V30 28 2 16 17
M  V30 29 1 20 21
M  V30 30 1 3 27
M  V30 31 1 4 28
M  V30 32 1 6 29
M  V30 33 1 13 30
M  V30 34 1 18 31
M  V30 35 1 19 32
M  V30 36 1 20 33
M  V30 37 1 23 34
M  V30 38 1 23 35
M  V30 39 1 24 36
M  V30 40 1 24 37
M  V30 41 1 25 38
M  V30 42 1 25 39
M  V30 43 1 25 40
M  V30 44 1 26 41
M  V30 45 1 26 42
M  V30 46 1 26 43
M  V30 END BOND
M  V30 END CTAB
M  END
>  <Structure No>
3124

>  <LogS>
-7.487633218

>  <MMFF94 Energy>
45.449

$$$$
Compound 3125
Actelion Java MolfileCreator 2.0

  0  0  0  0  0  0              0 V3000
M  V30 BEGIN CTAB
M  V30 COUNTS 33 35 0 0 0
M  V30 BEGIN ATOM
M  V30 1 O 3.2839 1.7611 -1.5208 0
M  V30 2 C 3.6172 0.6432 -0.7568 0
M  V30 3 C 2.6141 -0.0419 -0.0504 0
M  V30 4 C 4.9487 0.2078 -0.6903 0
M  V30 5 N 1.2592 0.4304 -0.1558 0
M  V30 6 C 2.9622 -1.1829 0.7031 0
M  V30 7 C 5.2842 -0.9131 0.0709 0
M  V30 8 C 0.2694 0.1156 0.6248 0
M  V30 9 C 4.2922 -1.6089 0.7636 0
M  V30 10 C -1.0864 0.6429 0.3576 0
M  V30 11 C -1.2881 2.033 0.1627 0
M  V30 12 C -2.2024 -0.2366 0.2923 0
M  V30 13 O -0.2537 2.9644 0.2869 0
M  V30 14 C -2.5627 2.52 -0.1346 0
M  V30 15 C -3.4917 0.2898 0.0108 0
M  V30 16 C -2.0707 -1.6326 0.4728 0
M  V30 17 C -3.6555 1.6618 -0.2067 0
M  V30 18 C -4.6028 -0.5658 -0.0609 0
M  V30 19 C -3.1868 -2.4693 0.3976 0
M  V30 20 C -4.4486 -1.938 0.1351 0
M  V30 21 H 3.9846 2.2774 -2.0397 0
M  V30 22 H 5.7232 0.738 -1.2296 0
M  V30 23 H 2.218 -1.7636 1.2282 0
M  V30 24 H 6.3128 -1.2468 0.1186 0
M  V30 25 H 0.4053 -0.5571 1.4592 0
M  V30 26 H 4.553 -2.4851 1.3431 0
M  V30 27 H 0.6714 2.7308 0.6217 0
M  V30 28 H -2.7104 3.5814 -0.2901 0
M  V30 29 H -1.1114 -2.093 0.665 0
M  V30 30 H -4.6332 2.0737 -0.4282 0
M  V30 31 H -5.5906 -0.1731 -0.2722 0
M  V30 32 H -3.0716 -3.5362 0.5405 0
M  V30 33 H -5.3088 -2.5923 0.0772 0
M  V30 END ATOM
M  V30 BEGIN BOND
M  V30 1 1 1 2
M  V30 2 2 2 3
M  V30 3 1 2 4
M  V30 4 1 3 5
M  V30 5 1 3 6
M  V30 6 2 4 7
M  V30 7 2 5 8
M  V30 8 2 6 9
M  V30 9 1 8 10
M  V30 10 2 10 11
M  V30 11 1 10 12
M  V30 12 1 11 13
M  V30 13 1 11 14
M  V30 14 1 12 15
M  V30 15 2 12 16
M  V30 16 2 14 17
M  V30 17 2 15 18
M  V30 18 1 16 19
M  V30 19 1 18 20
M  V30 20 1 7 9
M  V30 21 1 15 17
M  V30 22 2 19 20
M  V30 23 1 1 21
M  V30 24 1 4 22
M  V30 25 1 6 23
M  V30 26 1 7 24
M  V30 27 1 8 25
M  V30 28 1 9 26
M  V30 29 1 13 27
M  V30 30 1 14 28
M  V30 31 1 16 29
M  V30 32 1 17 30
M  V30 33 1 18 31
M  V30 34 1 19 32
M  V30 35 1 20 33
M  V30 END BOND
M  V30 END CTAB
M  END
>  <Structure No>
3125

>  <LogS>
-7.432469538

>  <MMFF94 Energy>
66.228

$$$$
Compound 3126
Actelion Java MolfileCreator 2.0

  0  0  0  0  0  0              0 V3000
M  V30 BEGIN CTAB
M  V30 COUNTS 102 102 0 0 0
M  V30 BEGIN ATOM
M  V30 1 O -0.1576 2.5243 -2.2874 0
M  V30 2 C 0.0082 1.3655 -1.8133 0
M  V30 3 O -0.9619 0.809 -0.9696 0
M  V30 4 C 1.2555 0.6213 -2.1141 0
M  V30 5 C -2.1512 1.4962 -0.5849 0
M  V30 6 C 1.3173 -0.7977 -2.1286 0
M  V30 7 C 2.4353 1.3599 -2.3246 0
M  V30 8 C -1.8512 2.4844 0.5497 0
M  V30 9 C 0.1168 -1.6545 -2.0251 0
M  V30 10 C 2.5608 -1.4278 -2.293 0
M  V30 11 C 3.6706 0.719 -2.5146 0
M  V30 12 C -3.0014 3.4716 0.7968 0
M  V30 13 O -0.9518 -1.3242 -2.6097 0
M  V30 14 O 0.1903 -2.8566 -1.3126 0
M  V30 15 C 3.7227 -0.6812 -2.4858 0
M  V30 16 C 4.9063 1.5062 -2.7245 0
M  V30 17 C -4.2826 2.7788 1.2937 0
M  V30 18 C -0.9426 -3.6801 -1.0429 0
M  V30 19 O 4.8616 2.7682 -2.7358 0
M  V30 20 O 6.1267 0.8479 -2.9094 0
M  V30 21 C -5.3254 3.7769 1.8221 0
M  V30 22 C -1.8104 -3.0472 0.0541 0
M  V30 23 C 7.3615 1.5396 -3.0734 0
M  V30 24 C -5.9084 4.6676 0.7142 0
M  V30 25 C -2.908 -3.9966 0.5605 0
M  V30 26 C 8.5122 0.5372 -3.209 0
M  V30 27 C -7.0095 5.5822 1.2656 0
M  V30 28 C -4.0936 -4.1001 -0.4137 0
M  V30 29 C 8.9485 -0.0763 -1.8674 0
M  V30 30 C -7.5796 6.4858 0.1649 0
M  V30 31 C -5.0965 -5.2016 -0.0221 0
M  V30 32 C 7.8888 -1.0116 -1.258 0
M  V30 33 C -8.6724 7.4002 0.7114 0
M  V30 34 C -5.7292 -5.0488 1.3737 0
M  V30 35 C 8.4385 -1.8555 -0.0847 0
M  V30 36 C -6.5714 -3.7695 1.5131 0
M  V30 37 C 7.9714 -1.3711 1.3009 0
M  V30 38 C -7.2403 -3.6531 2.8918 0
M  V30 39 C 8.6889 -0.1055 1.8006 0
M  V30 40 C -8.3946 -4.6385 3.0769 0
M  V30 41 C 10.1611 -0.3571 2.1975 0
M  V30 42 C 11.1438 0.3562 1.2726 0
M  V30 43 H -2.8866 0.7436 -0.2293 0
M  V30 44 H -2.59 2.0178 -1.4643 0
M  V30 45 H 2.3944 2.4436 -2.3103 0
M  V30 46 H -0.9454 3.0742 0.2912 0
M  V30 47 H -1.6264 1.921 1.4813 0
M  V30 48 H 2.6306 -2.509 -2.3039 0
M  V30 49 H -3.2076 4.0266 -0.1437 0
M  V30 50 H -2.6641 4.2063 1.5606 0
M  V30 51 H 4.6613 -1.2039 -2.6223 0
M  V30 52 H -4.023 2.0841 2.1226 0
M  V30 53 H -4.7324 2.1767 0.4748 0
M  V30 54 H -0.5725 -4.6693 -0.6964 0
M  V30 55 H -1.5264 -3.8372 -1.975 0
M  V30 56 H -6.1521 3.196 2.2874 0
M  V30 57 H -4.8698 4.408 2.6163 0
M  V30 58 H -2.2659 -2.1028 -0.315 0
M  V30 59 H -1.1518 -2.7868 0.9116 0
M  V30 60 H 7.3101 2.1549 -3.9983 0
M  V30 61 H 7.5401 2.2185 -2.2097 0
M  V30 62 H -5.1045 5.2996 0.2791 0
M  V30 63 H -6.3329 4.0263 -0.0896 0
M  V30 64 H -3.2757 -3.5967 1.5294 0
M  V30 65 H -2.4795 -5.0042 0.7515 0
M  V30 66 H 8.2336 -0.2647 -3.9277 0
M  V30 67 H 9.3869 1.0734 -3.6381 0
M  V30 68 H -6.5903 6.2159 2.0786 0
M  V30 69 H -7.8286 4.9593 1.688 0
M  V30 70 H -3.7181 -4.3468 -1.4288 0
M  V30 71 H -4.6071 -3.1185 -0.4895 0
M  V30 72 H 9.8778 -0.6553 -2.0551 0
M  V30 73 H 9.1969 0.7366 -1.1567 0
M  V30 74 H -8.0069 5.8613 -0.6484 0
M  V30 75 H -6.7685 7.1127 -0.2636 0
M  V30 76 H -5.9073 -5.2306 -0.783 0
M  V30 77 H -4.5781 -6.1847 -0.0663 0
M  V30 78 H 7.5354 -1.7064 -2.052 0
M  V30 79 H 7.0099 -0.419 -0.9276 0
M  V30 80 H -9.0682 8.0379 -0.1072 0
M  V30 81 H -9.5083 6.7981 1.1284 0
M  V30 82 H -8.2616 8.059 1.506 0
M  V30 83 H -4.9439 -5.0777 2.1583 0
M  V30 84 H -6.3792 -5.9344 1.5341 0
M  V30 85 H 8.0558 -2.892 -0.209 0
M  V30 86 H 9.5451 -1.9365 -0.1184 0
M  V30 87 H -7.3434 -3.7319 0.7138 0
M  V30 88 H -5.9116 -2.8853 1.3909 0
M  V30 89 H 8.1307 -2.1879 2.0386 0
M  V30 90 H 6.8756 -1.1832 1.2777 0
M  V30 91 H -7.6461 -2.6231 2.998 0
M  V30 92 H -6.4878 -3.8036 3.6973 0
M  V30 93 H 8.1448 0.2432 2.7056 0
M  V30 94 H 8.5917 0.7121 1.057 0
M  V30 95 H -8.9276 -4.4085 4.0245 0
M  V30 96 H -8.0179 -5.6802 3.1416 0
M  V30 97 H -9.1182 -4.557 2.2375 0
M  V30 98 H 10.3264 0.0193 3.23 0
M  V30 99 H 10.4007 -1.4434 2.2102 0
M  V30 100 H 10.9476 1.4495 1.2728 0
M  V30 101 H 11.0615 -0.036 0.2396 0
M  V30 102 H 12.1811 0.1841 1.6311 0
M  V30 END ATOM
M  V30 BEGIN BOND
M  V30 1 2 1 2
M  V30 2 1 2 3
M  V30 3 1 2 4
M  V30 4 1 3 5
M  V30 5 2 4 6
M  V30 6 1 4 7
M  V30 7 1 5 8
M  V30 8 1 6 9
M  V30 9 1 6 10
M  V30 10 2 7 11
M  V30 11 1 8 12
M  V30 12 2 9 13
M  V30 13 1 9 14
M  V30 14 2 10 15
M  V30 15 1 11 16
M  V30 16 1 12 17
M  V30 17 1 14 18
M  V30 18 2 16 19
M  V30 19 1 16 20
M  V30 20 1 17 21
M  V30 21 1 18 22
M  V30 22 1 20 23
M  V30 23 1 21 24
M  V30 24 1 22 25
M  V30 25 1 23 26
M  V30 26 1 24 27
M  V30 27 1 25 28
M  V30 28 1 26 29
M  V30 29 1 27 30
M  V30 30 1 28 31
M  V30 31 1 29 32
M  V30 32 1 30 33
M  V30 33 1 31 34
M  V30 34 1 32 35
M  V30 35 1 34 36
M  V30 36 1 35 37
M  V30 37 1 36 38
M  V30 38 1 37 39
M  V30 39 1 38 40
M  V30 40 1 39 41
M  V30 41 1 41 42
M  V30 42 1 11 15
M  V30 43 1 5 43
M  V30 44 1 5 44
M  V30 45 1 7 45
M  V30 46 1 8 46
M  V30 47 1 8 47
M  V30 48 1 10 48
M  V30 49 1 12 49
M  V30 50 1 12 50
M  V30 51 1 15 51
M  V30 52 1 17 52
M  V30 53 1 17 53
M  V30 54 1 18 54
M  V30 55 1 18 55
M  V30 56 1 21 56
M  V30 57 1 21 57
M  V30 58 1 22 58
M  V30 59 1 22 59
M  V30 60 1 23 60
M  V30 61 1 23 61
M  V30 62 1 24 62
M  V30 63 1 24 63
M  V30 64 1 25 64
M  V30 65 1 25 65
M  V30 66 1 26 66
M  V30 67 1 26 67
M  V30 68 1 27 68
M  V30 69 1 27 69
M  V30 70 1 28 70
M  V30 71 1 28 71
M  V30 72 1 29 72
M  V30 73 1 29 73
M  V30 74 1 30 74
M  V30 75 1 30 75
M  V30 76 1 31 76
M  V30 77 1 31 77
M  V30 78 1 32 78
M  V30 79 1 32 79
M  V30 80 1 33 80
M  V30 81 1 33 81
M  V30 82 1 33 82
M  V30 83 1 34 83
M  V30 84 1 34 84
M  V30 85 1 35 85
M  V30 86 1 35 86
M  V30 87 1 36 87
M  V30 88 1 36 88
M  V30 89 1 37 89
M  V30 90 1 37 90
M  V30 91 1 38 91
M  V30 92 1 38 92
M  V30 93 1 39 93
M  V30 94 1 39 94
M  V30 95 1 40 95
M  V30 96 1 40 96
M  V30 97 1 40 97
M  V30 98 1 41 98
M  V30 99 1 41 99
M  V30 100 1 42 100
M  V30 101 1 42 101
M  V30 102 1 42 102
M  V30 END BOND
M  V30 END CTAB
M  END
>  <Structure No>
3126

>  <LogS>
-6.757182205

>  <MMFF94 Energy>
17.763

$$$$
Compound 3127
Actelion Java MolfileCreator 2.0

  0  0  0  0  0  0              0 V3000
M  V30 BEGIN CTAB
M  V30 COUNTS 90 96 0 0 0
M  V30 BEGIN ATOM
M  V30 1 Cl -13.4944 2.851 -2.1173 0
M  V30 2 C -11.7419 2.8424 -2.2272 0
M  V30 3 C -11.0094 1.8317 -1.602 0
M  V30 4 C -11.08 3.8428 -2.9422 0
M  V30 5 C -9.6103 1.7976 -1.6929 0
M  V30 6 C -9.6858 3.8399 -3.023 0
M  V30 7 N -8.937 0.7134 -1.0375 0
M  V30 8 C -8.9321 2.834 -2.3917 0
M  V30 9 N -7.8193 0.243 -1.4188 0
M  V30 10 C -7.4323 2.9041 -2.4683 0
M  V30 11 C -7.181 -0.8518 -0.7378 0
M  V30 12 C -5.7721 -0.8406 -0.6289 0
M  V30 13 C -7.9207 -1.9168 -0.1481 0
M  V30 14 O -5.0146 0.1048 -1.3259 0
M  V30 15 C -5.1115 -1.7906 0.1735 0
M  V30 16 C -7.2396 -2.8683 0.6557 0
M  V30 17 C -9.3054 -2.101 -0.3748 0
M  V30 18 C -3.6396 -1.7886 0.3346 0
M  V30 19 C -5.8538 -2.7868 0.8173 0
M  V30 20 C -7.9532 -3.9064 1.2778 0
M  V30 21 C -9.9993 -3.1426 0.2456 0
M  V30 22 O -3.0224 -2.8888 0.3073 0
M  V30 23 N -2.9159 -0.5624 0.542 0
M  V30 24 C -9.3282 -4.0341 1.0797 0
M  V30 25 C -1.4997 -0.5207 0.7835 0
M  V30 26 C -0.6848 0.4055 0.1012 0
M  V30 27 C -0.9287 -1.3561 1.7556 0
M  V30 28 C 0.6815 0.4859 0.4129 0
M  V30 29 C -1.2679 1.3304 -0.932 0
M  V30 30 C 0.4418 -1.2943 2.0485 0
M  V30 31 C 1.2554 -0.361 1.3745 0
M  V30 32 C 1.0148 -2.1997 3.1056 0
M  V30 33 N 2.6441 -0.225 1.7239 0
M  V30 34 C 3.7063 -0.2241 0.754 0
M  V30 35 O 3.4389 -0.1447 -0.4761 0
M  V30 36 C 5.1204 -0.3506 1.186 0
M  V30 37 C 6.1519 0.3201 0.4956 0
M  V30 38 C 5.4347 -1.1516 2.2937 0
M  V30 39 O 5.801 1.2113 -0.5243 0
M  V30 40 C 7.5055 0.1262 0.8788 0
M  V30 41 C 6.7555 -1.2825 2.7337 0
M  V30 42 N 8.5979 0.6552 0.1093 0
M  V30 43 C 7.8007 -0.6391 2.0294 0
M  V30 44 C 7.0483 -2.0641 3.8637 0
M  V30 45 N 8.5416 0.8175 -1.1508 0
M  V30 46 C 9.1276 -0.8001 2.483 0
M  V30 47 C 8.3664 -2.2078 4.2986 0
M  V30 48 C 9.6522 1.3216 -1.9074 0
M  V30 49 C 9.4017 -1.575 3.6117 0
M  V30 50 C 9.4974 1.5653 -3.2887 0
M  V30 51 C 10.901 1.5552 -1.2974 0
M  V30 52 C 10.5885 2.0443 -4.0336 0
M  V30 53 C 8.1705 1.3389 -3.9623 0
M  V30 54 C 11.981 2.0248 -2.0523 0
M  V30 55 C 11.8236 2.2658 -3.4202 0
M  V30 56 Cl 13.5352 2.2958 -1.2856 0
M  V30 57 H -11.5318 1.0538 -1.0559 0
M  V30 58 H -11.6449 4.6307 -3.4254 0
M  V30 59 H -9.1951 4.6341 -3.5745 0
M  V30 60 H -7.0911 3.9093 -2.7959 0
M  V30 61 H -7.0613 2.1546 -3.1984 0
M  V30 62 H -6.987 2.7218 -1.4678 0
M  V30 63 H -5.4224 0.773 -1.9654 0
M  V30 64 H -9.8632 -1.4814 -1.061 0
M  V30 65 H -5.3433 -3.5128 1.4417 0
M  V30 66 H -7.4456 -4.6288 1.9061 0
M  V30 67 H -11.0605 -3.2643 0.0683 0
M  V30 68 H -3.432 0.3445 0.5333 0
M  V30 69 H -9.8711 -4.841 1.5558 0
M  V30 70 H -1.5617 -2.0391 2.3068 0
M  V30 71 H 1.2956 1.2291 -0.0766 0
M  V30 72 H -0.4731 1.7953 -1.5525 0
M  V30 73 H -1.8473 2.1325 -0.4272 0
M  V30 74 H -1.9384 0.7672 -1.6152 0
M  V30 75 H 0.3265 -3.0403 3.3359 0
M  V30 76 H 1.191 -1.6197 4.0356 0
M  V30 77 H 1.9755 -2.6364 2.7584 0
M  V30 78 H 2.8911 -0.222 2.7391 0
M  V30 79 H 4.6505 -1.6886 2.813 0
M  V30 80 H 6.4244 1.9201 -0.8883 0
M  V30 81 H 6.2584 -2.5666 4.4094 0
M  V30 82 H 9.9571 -0.3249 1.9753 0
M  V30 83 H 8.5873 -2.8112 5.1696 0
M  V30 84 H 10.4212 -1.6865 3.9549 0
M  V30 85 H 11.0386 1.3686 -0.2377 0
M  V30 86 H 10.4878 2.2429 -5.0931 0
M  V30 87 H 8.2367 1.4846 -5.0619 0
M  V30 88 H 7.4216 2.0527 -3.5585 0
M  V30 89 H 7.8231 0.3022 -3.7726 0
M  V30 90 H 12.6596 2.6296 -4.0054 0
M  V30 END ATOM
M  V30 BEGIN BOND
M  V30 1 1 1 2
M  V30 2 2 2 3
M  V30 3 1 2 4
M  V30 4 1 3 5
M  V30 5 2 4 6
M  V30 6 1 5 7
M  V30 7 2 5 8
M  V30 8 2 7 9
M  V30 9 1 8 10
M  V30 10 1 9 11
M  V30 11 2 11 12
M  V30 12 1 11 13
M  V30 13 1 12 14
M  V30 14 1 12 15
M  V30 15 1 13 16
M  V30 16 2 13 17
M  V30 17 1 15 18
M  V30 18 2 15 19
M  V30 19 2 16 20
M  V30 20 1 17 21
M  V30 21 2 18 22
M  V30 22 1 18 23
M  V30 23 1 20 24
M  V30 24 1 23 25
M  V30 25 2 25 26
M  V30 26 1 25 27
M  V30 27 1 26 28
M  V30 28 1 26 29
M  V30 29 2 27 30
M  V30 30 2 28 31
M  V30 31 1 30 32
M  V30 32 1 31 33
M  V30 33 1 33 34
M  V30 34 2 34 35
M  V30 35 1 34 36
M  V30 36 1 36 37
M  V30 37 2 36 38
M  V30 38 1 37 39
M  V30 39 2 37 40
M  V30 40 1 38 41
M  V30 41 1 40 42
M  V30 42 1 40 43
M  V30 43 2 41 44
M  V30 44 2 42 45
M  V30 45 2 43 46
M  V30 46 1 44 47
M  V30 47 1 45 48
M  V30 48 1 46 49
M  V30 49 2 48 50
M  V30 50 1 48 51
M  V30 51 1 50 52
M  V30 52 1 50 53
M  V30 53 2 51 54
M  V30 54 2 52 55
M  V30 55 1 54 56
M  V30 56 1 6 8
M  V30 57 1 16 19
M  V30 58 2 21 24
M  V30 59 1 30 31
M  V30 60 1 41 43
M  V30 61 2 47 49
M  V30 62 1 54 55
M  V30 63 1 3 57
M  V30 64 1 4 58
M  V30 65 1 6 59
M  V30 66 1 10 60
M  V30 67 1 10 61
M  V30 68 1 10 62
M  V30 69 1 14 63
M  V30 70 1 17 64
M  V30 71 1 19 65
M  V30 72 1 20 66
M  V30 73 1 21 67
M  V30 74 1 23 68
M  V30 75 1 24 69
M  V30 76 1 27 70
M  V30 77 1 28 71
M  V30 78 1 29 72
M  V30 79 1 29 73
M  V30 80 1 29 74
M  V30 81 1 32 75
M  V30 82 1 32 76
M  V30 83 1 32 77
M  V30 84 1 33 78
M  V30 85 1 38 79
M  V30 86 1 39 80
M  V30 87 1 44 81
M  V30 88 1 46 82
M  V30 89 1 47 83
M  V30 90 1 49 84
M  V30 91 1 51 85
M  V30 92 1 52 86
M  V30 93 1 53 87
M  V30 94 1 53 88
M  V30 95 1 53 89
M  V30 96 1 55 90
M  V30 END BOND
M  V30 END CTAB
M  END
>  <Structure No>
3127

>  <LogS>
-7.678196264

>  <MMFF94 Energy>
134.14

$$$$
Compound 3128
Actelion Java MolfileCreator 2.0

  0  0  0  0  0  0              0 V3000
M  V30 BEGIN CTAB
M  V30 COUNTS 67 74 0 0 0
M  V30 BEGIN ATOM
M  V30 1 O 4.1864 -0.4098 -0.9838 0
M  V30 2 C 4.6332 -1.2022 -0.1099 0
M  V30 3 C 4.087 -1.1858 1.278 0
M  V30 4 C 5.6688 -2.19 -0.4929 0
M  V30 5 C 3.2201 -0.1574 1.7363 0
M  V30 6 C 4.4093 -2.2554 2.1498 0
M  V30 7 C 6.0194 -3.2236 0.399 0
M  V30 8 C 6.3 -2.1161 -1.7485 0
M  V30 9 N 2.9412 0.9984 0.9308 0
M  V30 10 C 2.6723 -0.2344 3.0262 0
M  V30 11 C 5.3557 -3.3124 1.7185 0
M  V30 12 C 3.832 -2.3109 3.4307 0
M  V30 13 C 6.9943 -4.1656 0.0208 0
M  V30 14 C 7.2685 -3.0546 -2.1097 0
M  V30 15 C 1.6088 1.441 0.6399 0
M  V30 16 C 2.9676 -1.309 3.8603 0
M  V30 17 O 5.6024 -4.2873 2.4819 0
M  V30 18 C 7.6161 -4.0761 -1.2255 0
M  V30 19 N 0.5321 0.7547 1.1049 0
M  V30 20 N 1.419 2.5376 -0.1375 0
M  V30 21 C -0.725 1.1722 0.8138 0
M  V30 22 C 0.1634 2.9591 -0.4457 0
M  V30 23 N -0.9033 2.2697 0.035 0
M  V30 24 N -1.8515 0.4327 1.2999 0
M  V30 25 C -0.0433 4.15 -1.3055 0
M  V30 26 C -3.2028 0.8849 1.1284 0
M  V30 27 C -1.3449 4.5935 -1.6158 0
M  V30 28 C 1.0566 4.8536 -1.8329 0
M  V30 29 C -4.1918 0.0526 0.5408 0
M  V30 30 C -3.5577 2.1516 1.6141 0
M  V30 31 C -1.5373 5.7149 -2.4305 0
M  V30 32 C 0.8567 5.9741 -2.6465 0
M  V30 33 C -3.857 -1.2662 -0.0691 0
M  V30 34 C -5.5324 0.5071 0.4914 0
M  V30 35 C -4.8726 2.5994 1.5347 0
M  V30 36 C -0.4381 6.4043 -2.945 0
M  V30 37 O -2.6555 -1.6103 -0.2271 0
M  V30 38 C -4.9355 -2.1683 -0.54 0
M  V30 39 C -6.5957 -0.3601 -0.0716 0
M  V30 40 C -5.8569 1.7831 0.9853 0
M  V30 41 C -6.2728 -1.724 -0.5459 0
M  V30 42 C -4.6358 -3.466 -0.9967 0
M  V30 43 O -7.7835 0.06 -0.1359 0
M  V30 44 C -7.287 -2.5815 -1.0103 0
M  V30 45 C -5.6527 -4.3091 -1.4504 0
M  V30 46 C -6.9759 -3.8677 -1.458 0
M  V30 47 H 6.0487 -1.3299 -2.4488 0
M  V30 48 H 3.7416 1.5107 0.497 0
M  V30 49 H 2.0244 0.5524 3.3921 0
M  V30 50 H 4.0554 -3.1277 4.1061 0
M  V30 51 H 7.2801 -4.969 0.6881 0
M  V30 52 H 7.7528 -2.9893 -3.0758 0
M  V30 53 H 2.5337 -1.3598 4.8508 0
M  V30 54 H 8.3691 -4.8017 -1.5055 0
M  V30 55 H -1.6847 -0.4835 1.7739 0
M  V30 56 H -2.2165 4.0788 -1.2307 0
M  V30 57 H 2.0715 4.5398 -1.6217 0
M  V30 58 H -2.8121 2.787 2.0749 0
M  V30 59 H -2.5406 6.049 -2.6641 0
M  V30 60 H 1.7078 6.5082 -3.0474 0
M  V30 61 H -5.1312 3.5805 1.9133 0
M  V30 62 H -0.5899 7.2719 -3.5765 0
M  V30 63 H -6.875 2.1518 0.9507 0
M  V30 64 H -3.6157 -3.8287 -1.0003 0
M  V30 65 H -8.3216 -2.2618 -1.0195 0
M  V30 66 H -5.4135 -5.3061 -1.7955 0
M  V30 67 H -7.7616 -4.5224 -1.8105 0
M  V30 END ATOM
M  V30 BEGIN BOND
M  V30 1 2 1 2
M  V30 2 1 2 3
M  V30 3 1 2 4
M  V30 4 2 3 5
M  V30 5 1 3 6
M  V30 6 2 4 7
M  V30 7 1 4 8
M  V30 8 1 5 9
M  V30 9 1 5 10
M  V30 10 1 6 11
M  V30 11 2 6 12
M  V30 12 1 7 13
M  V30 13 2 8 14
M  V30 14 1 9 15
M  V30 15 2 10 16
M  V30 16 2 11 17
M  V30 17 2 13 18
M  V30 18 2 15 19
M  V30 19 1 15 20
M  V30 20 1 19 21
M  V30 21 2 20 22
M  V30 22 2 21 23
M  V30 23 1 21 24
M  V30 24 1 22 25
M  V30 25 1 24 26
M  V30 26 2 25 27
M  V30 27 1 25 28
M  V30 28 2 26 29
M  V30 29 1 26 30
M  V30 30 1 27 31
M  V30 31 2 28 32
M  V30 32 1 29 33
M  V30 33 1 29 34
M  V30 34 2 30 35
M  V30 35 2 31 36
M  V30 36 2 33 37
M  V30 37 1 33 38
M  V30 38 1 34 39
M  V30 39 2 34 40
M  V30 40 2 38 41
M  V30 41 1 38 42
M  V30 42 2 39 43
M  V30 43 1 41 44
M  V30 44 2 42 45
M  V30 45 2 44 46
M  V30 46 1 7 11
M  V30 47 1 12 16
M  V30 48 1 14 18
M  V30 49 1 22 23
M  V30 50 1 32 36
M  V30 51 1 35 40
M  V30 52 1 39 41
M  V30 53 1 45 46
M  V30 54 1 8 47
M  V30 55 1 9 48
M  V30 56 1 10 49
M  V30 57 1 12 50
M  V30 58 1 13 51
M  V30 59 1 14 52
M  V30 60 1 16 53
M  V30 61 1 18 54
M  V30 62 1 24 55
M  V30 63 1 27 56
M  V30 64 1 28 57
M  V30 65 1 30 58
M  V30 66 1 31 59
M  V30 67 1 32 60
M  V30 68 1 35 61
M  V30 69 1 36 62
M  V30 70 1 40 63
M  V30 71 1 42 64
M  V30 72 1 44 65
M  V30 73 1 45 66
M  V30 74 1 46 67
M  V30 END BOND
M  V30 END CTAB
M  END
>  <Structure No>
3128

>  <LogS>
-7.77786597

>  <MMFF94 Energy>
-22.525

$$$$
Compound 3129
Actelion Java MolfileCreator 2.0

  0  0  0  0  0  0              0 V3000
M  V30 BEGIN CTAB
M  V30 COUNTS 36 38 0 0 0
M  V30 BEGIN ATOM
M  V30 1 O -4.2862 -4.0433 0.4845 0
M  V30 2 C -3.4352 -3.1194 0.3799 0
M  V30 3 N -3.6149 -1.9517 1.0533 0
M  V30 4 N -2.3368 -3.2941 -0.402 0
M  V30 5 C -2.7083 -0.9403 0.9594 0
M  V30 6 C -1.408 -2.3092 -0.5349 0
M  V30 7 O -2.8922 0.2263 1.701 0
M  V30 8 C -1.5787 -1.0869 0.1378 0
M  V30 9 O -0.4037 -2.4982 -1.2744 0
M  V30 10 C -0.5795 -0.0043 0.0109 0
M  V30 11 N 0.6936 -0.2096 0.1513 0
M  V30 12 C -0.8538 1.3991 -0.2978 0
M  V30 13 C 1.3715 1.0396 -0.0324 0
M  V30 14 C 0.3523 2.0609 -0.3239 0
M  V30 15 C -2.0493 2.0392 -0.6309 0
M  V30 16 C 2.7033 1.1852 0.1276 0
M  V30 17 C 0.4235 3.4151 -0.6744 0
M  V30 18 C -2.0026 3.403 -0.9599 0
M  V30 19 C 3.3269 2.4861 0.1218 0
M  V30 20 C 3.5779 0.0205 0.3933 0
M  V30 21 C -0.7719 4.088 -0.9798 0
M  V30 22 N 3.8394 3.524 0.1218 0
M  V30 23 O 4.5476 0.1475 1.1905 0
M  V30 24 N 3.3677 -1.2316 -0.2764 0
M  V30 25 C 4.1186 -2.4274 0.0836 0
M  V30 26 H -4.4569 -1.8343 1.6616 0
M  V30 27 H -2.2062 -4.1979 -0.9115 0
M  V30 28 H -3.6976 0.3472 2.3032 0
M  V30 29 H -2.9878 1.5016 -0.6526 0
M  V30 30 H 1.3591 3.9462 -0.7371 0
M  V30 31 H -2.9145 3.9263 -1.2162 0
M  V30 32 H -0.7448 5.1355 -1.2513 0
M  V30 33 H 2.691 -1.29 -1.0703 0
M  V30 34 H 5.2052 -2.2482 -0.0585 0
M  V30 35 H 3.8078 -3.2765 -0.5609 0
M  V30 36 H 3.9202 -2.6903 1.144 0
M  V30 END ATOM
M  V30 BEGIN BOND
M  V30 1 2 1 2
M  V30 2 1 2 3
M  V30 3 1 2 4
M  V30 4 1 3 5
M  V30 5 1 4 6
M  V30 6 1 5 7
M  V30 7 2 5 8
M  V30 8 2 6 9
M  V30 9 1 8 10
M  V30 10 2 10 11
M  V30 11 1 10 12
M  V30 12 1 11 13
M  V30 13 2 12 14
M  V30 14 1 12 15
M  V30 15 2 13 16
M  V30 16 1 14 17
M  V30 17 2 15 18
M  V30 18 1 16 19
M  V30 19 1 16 20
M  V30 20 2 17 21
M  V30 21 3 19 22
M  V30 22 2 20 23
M  V30 23 1 20 24
M  V30 24 1 24 25
M  V30 25 1 6 8
M  V30 26 1 13 14
M  V30 27 1 18 21
M  V30 28 1 3 26
M  V30 29 1 4 27
M  V30 30 1 7 28
M  V30 31 1 15 29
M  V30 32 1 17 30
M  V30 33 1 18 31
M  V30 34 1 21 32
M  V30 35 1 24 33
M  V30 36 1 25 34
M  V30 37 1 25 35
M  V30 38 1 25 36
M  V30 END BOND
M  V30 END CTAB
M  END
>  <Structure No>
3129

>  <LogS>
-7.528009903

>  <MMFF94 Energy>
-90.059

$$$$
Compound 3130
Actelion Java MolfileCreator 2.0

  0  0  0  0  0  0              0 V3000
M  V30 BEGIN CTAB
M  V30 COUNTS 38 41 0 0 0
M  V30 BEGIN ATOM
M  V30 1 Cl 7.1528 -2.4621 0.41 0
M  V30 2 C 5.6577 -1.587 0.1328 0
M  V30 3 C 5.6876 -0.321 -0.4565 0
M  V30 4 C 4.4387 -2.1573 0.4974 0
M  V30 5 C 4.4963 0.3907 -0.6942 0
M  V30 6 C 3.2484 -1.4619 0.2822 0
M  V30 7 N 4.5578 1.6839 -1.324 0 CHG=1
M  V30 8 C 3.2607 -0.1825 -0.3086 0
M  V30 9 O 5.6046 2.3622 -1.2693 0
M  V30 10 O 3.5211 2.1337 -2.107 0 CHG=-1
M  V30 11 N 2.0387 0.554 -0.4743 0
M  V30 12 N 0.9129 0.0744 -0.1266 0
M  V30 13 C -0.3107 0.8014 -0.2707 0
M  V30 14 C -1.5647 0.348 0.0519 0
M  V30 15 C -0.5281 2.0981 -0.7417 0
M  V30 16 N -2.4603 1.3054 -0.2162 0
M  V30 17 N -1.9289 -0.8555 0.5599 0
M  V30 18 N -1.855 2.3784 -0.7029 0
M  V30 19 C 0.4952 3.0553 -1.2556 0
M  V30 20 C -3.7891 1.1428 -0.0016 0
M  V30 21 C -3.2544 -1.0941 0.8045 0
M  V30 22 O -4.598 2.0728 -0.2701 0
M  V30 23 C -4.2286 -0.0892 0.5265 0
M  V30 24 C -3.6671 -2.3276 1.3299 0
M  V30 25 C -5.5858 -0.35 0.783 0
M  V30 26 C -5.0207 -2.5696 1.5789 0
M  V30 27 C -5.9751 -1.5859 1.3069 0
M  V30 28 H 6.6418 0.1016 -0.7445 0
M  V30 29 H 4.4118 -3.1383 0.9544 0
M  V30 30 H 2.3175 -1.9222 0.5876 0
M  V30 31 H -1.2037 -1.5823 0.7578 0
M  V30 32 H 1.3122 3.1728 -0.5138 0
M  V30 33 H 0.9046 2.6774 -2.2146 0
M  V30 34 H 0.033 4.0492 -1.432 0
M  V30 35 H -2.9413 -3.1014 1.5469 0
M  V30 36 H -6.344 0.3963 0.5804 0
M  V30 37 H -5.3316 -3.5237 1.9844 0
M  V30 38 H -7.0213 -1.7823 1.5028 0
M  V30 END ATOM
M  V30 BEGIN BOND
M  V30 1 1 1 2
M  V30 2 2 2 3
M  V30 3 1 2 4
M  V30 4 1 3 5
M  V30 5 2 4 6
M  V30 6 1 5 7
M  V30 7 2 5 8
M  V30 8 2 7 9
M  V30 9 1 7 10
M  V30 10 1 8 11
M  V30 11 2 11 12
M  V30 12 1 12 13
M  V30 13 2 13 14
M  V30 14 1 13 15
M  V30 15 1 14 16
M  V30 16 1 14 17
M  V30 17 2 15 18
M  V30 18 1 15 19
M  V30 19 1 16 20
M  V30 20 1 17 21
M  V30 21 2 20 22
M  V30 22 1 20 23
M  V30 23 1 21 24
M  V30 24 1 23 25
M  V30 25 2 24 26
M  V30 26 2 25 27
M  V30 27 1 6 8
M  V30 28 1 16 18
M  V30 29 2 21 23
M  V30 30 1 26 27
M  V30 31 1 3 28
M  V30 32 1 4 29
M  V30 33 1 6 30
M  V30 34 1 17 31
M  V30 35 1 19 32
M  V30 36 1 19 33
M  V30 37 1 19 34
M  V30 38 1 24 35
M  V30 39 1 25 36
M  V30 40 1 26 37
M  V30 41 1 27 38
M  V30 END BOND
M  V30 END CTAB
M  END
>  <Structure No>
3130

>  <LogS>
-7.582934488

>  <MMFF94 Energy>
142.13

$$$$
Compound 3131
Actelion Java MolfileCreator 2.0

  0  0  0  0  0  0              0 V3000
M  V30 BEGIN CTAB
M  V30 COUNTS 35 38 0 0 0
M  V30 BEGIN ATOM
M  V30 1 O 6.0992 -1.728 -1.0694 0
M  V30 2 C 4.909 -1.365 -0.8683 0
M  V30 3 N 4.2635 -1.7523 0.2639 0
M  V30 4 N 4.2715 -0.5906 -1.7863 0
M  V30 5 C 2.9798 -1.3685 0.5056 0
M  V30 6 C 2.9862 -0.1891 -1.5928 0
M  V30 7 O 2.342 -1.7731 1.6782 0
M  V30 8 C 2.3055 -0.5563 -0.4192 0
M  V30 9 O 2.4083 0.4912 -2.4836 0
M  V30 10 C 0.9094 -0.14 -0.1703 0
M  V30 11 N -0.0311 -0.9888 0.1073 0
M  V30 12 C 0.3829 1.2224 -0.2379 0
M  V30 13 C -1.2568 -0.2641 0.2749 0
M  V30 14 C -0.97 1.1544 0.0026 0
M  V30 15 C 1.0128 2.4256 -0.5617 0
M  V30 16 C -2.4092 -0.8462 0.6881 0
M  V30 17 C -1.7914 2.2647 -0.2341 0
M  V30 18 C 0.2161 3.5719 -0.7078 0
M  V30 19 C -3.5369 -0.0787 1.2762 0
M  V30 20 C -2.6 -2.3211 0.6112 0
M  V30 21 C -1.1826 3.4872 -0.5654 0
M  V30 22 O -3.3383 1.0286 1.8427 0
M  V30 23 N -4.8435 -0.6595 1.3327 0
M  V30 24 O -1.6405 -3.0948 0.3516 0
M  V30 25 N -3.9017 -2.8818 0.7969 0 CHG=-1
M  V30 26 C -5.0255 -2.0578 1.104 0
M  V30 27 O -6.1718 -2.5696 1.1938 0
M  V30 28 H 4.7622 -2.3517 0.96 0
M  V30 29 H 4.7733 -0.3091 -2.6595 0
M  V30 30 H 2.8123 -2.3563 2.3597 0
M  V30 31 H 2.082 2.4766 -0.7165 0
M  V30 32 H -2.8685 2.1961 -0.2132 0
M  V30 33 H 0.6749 4.517 -0.9674 0
M  V30 34 H -1.7941 4.3641 -0.7339 0
M  V30 35 H -5.6549 -0.0779 1.6417 0
M  V30 END ATOM
M  V30 BEGIN BOND
M  V30 1 2 1 2
M  V30 2 1 2 3
M  V30 3 1 2 4
M  V30 4 1 3 5
M  V30 5 1 4 6
M  V30 6 1 5 7
M  V30 7 2 5 8
M  V30 8 2 6 9
M  V30 9 1 8 10
M  V30 10 2 10 11
M  V30 11 1 10 12
M  V30 12 1 11 13
M  V30 13 2 12 14
M  V30 14 1 12 15
M  V30 15 2 13 16
M  V30 16 1 14 17
M  V30 17 2 15 18
M  V30 18 1 16 19
M  V30 19 1 16 20
M  V30 20 2 17 21
M  V30 21 2 19 22
M  V30 22 1 19 23
M  V30 23 2 20 24
M  V30 24 1 20 25
M  V30 25 1 23 26
M  V30 26 2 26 27
M  V30 27 1 6 8
M  V30 28 1 13 14
M  V30 29 1 18 21
M  V30 30 1 25 26
M  V30 31 1 3 28
M  V30 32 1 4 29
M  V30 33 1 7 30
M  V30 34 1 15 31
M  V30 35 1 17 32
M  V30 36 1 18 33
M  V30 37 1 21 34
M  V30 38 1 23 35
M  V30 END BOND
M  V30 END CTAB
M  END
>  <Structure No>
3131

>  <LogS>
-7.564993732

>  <MMFF94 Energy>
-111.06

$$$$
Compound 3132
Actelion Java MolfileCreator 2.0

  0  0  0  0  0  0              0 V3000
M  V30 BEGIN CTAB
M  V30 COUNTS 56 56 0 0 0
M  V30 BEGIN ATOM
M  V30 1 O 7.174 -1.3371 -1.7307 0
M  V30 2 C 7.2622 -0.6312 -0.6902 0
M  V30 3 O 6.3345 -0.7655 0.3483 0
M  V30 4 C 8.3995 0.3227 -0.5399 0
M  V30 5 C 5.2066 -1.6352 0.2855 0
M  V30 6 C 4.2039 -1.1267 -0.7157 0
M  V30 7 C 3.4257 -0.0481 -0.5165 0
M  V30 8 C 3.5113 0.7383 0.7406 0
M  V30 9 C 2.507 0.3916 -1.627 0
M  V30 10 C 2.4567 1.1651 1.4494 0
M  V30 11 C 1.0558 0.7865 1.1516 0
M  V30 12 C -0.015 1.4307 1.664 0
M  V30 13 C -1.3997 0.9934 1.3547 0
M  V30 14 C 0.1417 2.5743 2.6313 0
M  V30 15 C -1.7588 0.4099 0.2037 0
M  V30 16 C -3.1664 0.0287 -0.0482 0
M  V30 17 C -4.0774 0.9801 -0.3746 0
M  V30 18 C -3.5322 -1.4642 -0.1208 0
M  V30 19 C -5.4939 0.5706 -0.6802 0
M  V30 20 C -3.726 2.4483 -0.4099 0
M  V30 21 C -5.0444 -1.7376 0.232 0
M  V30 22 C -3.2377 -1.9561 -1.5546 0
M  V30 23 C -2.6536 -2.2851 0.8553 0
M  V30 24 C -5.9313 -0.4848 0.326 0
M  V30 25 H 9.2669 -0.2021 -0.0831 0
M  V30 26 H 8.0992 1.1704 0.1153 0
M  V30 27 H 8.6972 0.7262 -1.532 0
M  V30 28 H 5.54 -2.6569 -0.0015 0
M  V30 29 H 4.7381 -1.7072 1.2901 0
M  V30 30 H 4.1163 -1.6764 -1.6461 0
M  V30 31 H 4.497 0.9881 1.1141 0
M  V30 32 H 2.0592 1.3837 -1.4129 0
M  V30 33 H 3.0782 0.4816 -2.5764 0
M  V30 34 H 1.6928 -0.351 -1.7665 0
M  V30 35 H 2.6613 1.7709 2.3252 0
M  V30 36 H 0.8997 -0.078 0.5218 0
M  V30 37 H -2.174 1.2328 2.0745 0
M  V30 38 H 0.4855 2.1873 3.6123 0
M  V30 39 H 0.8646 3.3248 2.2447 0
M  V30 40 H -0.824 3.0999 2.7871 0
M  V30 41 H -1.0285 0.1648 -0.5553 0
M  V30 42 H -5.5563 0.1617 -1.7113 0
M  V30 43 H -6.1858 1.4373 -0.6118 0
M  V30 44 H -3.4656 2.8009 0.6093 0
M  V30 45 H -2.8657 2.6206 -1.0901 0
M  V30 46 H -4.5751 3.0614 -0.7792 0
M  V30 47 H -5.4978 -2.4214 -0.5205 0
M  V30 48 H -5.1409 -2.2716 1.2065 0
M  V30 49 H -3.4801 -3.0354 -1.6595 0
M  V30 50 H -2.1645 -1.8178 -1.8098 0
M  V30 51 H -3.84 -1.3942 -2.2974 0
M  V30 52 H -2.945 -3.3579 0.8355 0
M  V30 53 H -1.5774 -2.2282 0.5828 0
M  V30 54 H -2.7729 -1.9058 1.8941 0
M  V30 55 H -6.9931 -0.7619 0.1426 0
M  V30 56 H -5.8667 -0.0582 1.3535 0
M  V30 END ATOM
M  V30 BEGIN BOND
M  V30 1 2 1 2
M  V30 2 1 2 3
M  V30 3 1 2 4
M  V30 4 1 3 5
M  V30 5 1 5 6
M  V30 6 2 6 7
M  V30 7 1 7 8
M  V30 8 1 7 9
M  V30 9 2 8 10
M  V30 10 1 10 11
M  V30 11 2 11 12
M  V30 12 1 12 13
M  V30 13 1 12 14
M  V30 14 2 13 15
M  V30 15 1 15 16
M  V30 16 2 16 17
M  V30 17 1 16 18
M  V30 18 1 17 19
M  V30 19 1 17 20
M  V30 20 1 18 21
M  V30 21 1 18 22
M  V30 22 1 18 23
M  V30 23 1 19 24
M  V30 24 1 21 24
M  V30 25 1 4 25
M  V30 26 1 4 26
M  V30 27 1 4 27
M  V30 28 1 5 28
M  V30 29 1 5 29
M  V30 30 1 6 30
M  V30 31 1 8 31
M  V30 32 1 9 32
M  V30 33 1 9 33
M  V30 34 1 9 34
M  V30 35 1 10 35
M  V30 36 1 11 36
M  V30 37 1 13 37
M  V30 38 1 14 38
M  V30 39 1 14 39
M  V30 40 1 14 40
M  V30 41 1 15 41
M  V30 42 1 19 42
M  V30 43 1 19 43
M  V30 44 1 20 44
M  V30 45 1 20 45
M  V30 46 1 20 46
M  V30 47 1 21 47
M  V30 48 1 21 48
M  V30 49 1 22 49
M  V30 50 1 22 50
M  V30 51 1 22 51
M  V30 52 1 23 52
M  V30 53 1 23 53
M  V30 54 1 23 54
M  V30 55 1 24 55
M  V30 56 1 24 56
M  V30 END BOND
M  V30 END CTAB
M  END
>  <Structure No>
3132

>  <LogS>
-7.516530086

>  <MMFF94 Energy>
29.464

$$$$
Compound 3133
Actelion Java MolfileCreator 2.0

  0  0  0  0  0  0              0 V3000
M  V30 BEGIN CTAB
M  V30 COUNTS 59 59 0 0 0
M  V30 BEGIN ATOM
M  V30 1 O 5.5926 0.393 -0.6289 0
M  V30 2 C 6.0293 1.5686 -0.4895 0
M  V30 3 O 5.4344 2.6377 -1.1699 0
M  V30 4 C 7.2186 1.8194 0.3804 0
M  V30 5 C 4.2839 2.485 -1.9982 0
M  V30 6 C 8.5086 1.5684 -0.388 0
M  V30 7 C 3.0815 2.1584 -1.1484 0
M  V30 8 C 2.254 1.1165 -1.3474 0
M  V30 9 C 1.1585 0.8995 -0.3728 0
M  V30 10 C 2.4312 0.1671 -2.507 0
M  V30 11 C 0.7511 -0.3248 -0.0126 0
M  V30 12 C -0.3364 -0.5042 0.9725 0
M  V30 13 C -0.6937 -1.7002 1.4815 0
M  V30 14 C -1.7914 -1.798 2.4707 0
M  V30 15 C 0.0883 -2.9521 1.1869 0
M  V30 16 C -3.0203 -1.282 2.3191 0
M  V30 17 C -3.5064 -0.57 1.1075 0
M  V30 18 C -3.7253 0.7676 1.1713 0
M  V30 19 C -3.9138 -1.3517 -0.16 0
M  V30 20 C -4.3151 1.4828 -0.018 0
M  V30 21 C -3.4604 1.5544 2.4365 0
M  V30 22 C -5.2681 -0.8064 -0.7284 0
M  V30 23 C -2.8103 -1.2442 -1.2404 0
M  V30 24 C -4.1107 -2.8594 0.1468 0
M  V30 25 C -5.5189 0.7104 -0.5572 0
M  V30 26 H 7.18 1.1484 1.2659 0
M  V30 27 H 7.1986 2.8716 0.7394 0
M  V30 28 H 4.4996 1.7247 -2.7759 0
M  V30 29 H 4.0871 3.4492 -2.5131 0
M  V30 30 H 8.5556 0.51 -0.7232 0
M  V30 31 H 8.5669 2.2401 -1.2741 0
M  V30 32 H 9.3786 1.7716 0.2723 0
M  V30 33 H 2.8966 2.8228 -0.3107 0
M  V30 34 H 0.7228 1.7644 0.1132 0
M  V30 35 H 2.5668 0.728 -3.4547 0
M  V30 36 H 3.3076 -0.4876 -2.3276 0
M  V30 37 H 1.531 -0.4674 -2.6486 0
M  V30 38 H 1.2461 -1.1923 -0.4307 0
M  V30 39 H -0.8671 0.3815 1.2947 0
M  V30 40 H -1.5919 -2.362 3.3741 0
M  V30 41 H 0.0652 -3.1672 0.0977 0
M  V30 42 H 1.1393 -2.8348 1.526 0
M  V30 43 H -0.353 -3.8271 1.7111 0
M  V30 44 H -3.7201 -1.3887 3.1408 0
M  V30 45 H -3.5528 1.6131 -0.8109 0
M  V30 46 H -4.6529 2.5047 0.2585 0
M  V30 47 H -4.083 1.1577 3.2676 0
M  V30 48 H -2.3921 1.4809 2.7189 0
M  V30 49 H -3.7011 2.6314 2.3109 0
M  V30 50 H -5.3591 -1.0669 -1.806 0
M  V30 51 H -6.1184 -1.3296 -0.2335 0
M  V30 52 H -1.8955 -1.787 -0.9309 0
M  V30 53 H -2.5235 -0.1986 -1.4534 0
M  V30 54 H -3.1455 -1.7151 -2.1919 0
M  V30 55 H -3.1566 -3.3354 0.4612 0
M  V30 56 H -4.8566 -3.0027 0.9586 0
M  V30 57 H -4.4733 -3.3974 -0.7586 0
M  V30 58 H -6.3632 0.8568 0.1503 0
M  V30 59 H -5.8303 1.1508 -1.5303 0
M  V30 END ATOM
M  V30 BEGIN BOND
M  V30 1 2 1 2
M  V30 2 1 2 3
M  V30 3 1 2 4
M  V30 4 1 3 5
M  V30 5 1 4 6
M  V30 6 1 5 7
M  V30 7 2 7 8
M  V30 8 1 8 9
M  V30 9 1 8 10
M  V30 10 2 9 11
M  V30 11 1 11 12
M  V30 12 2 12 13
M  V30 13 1 13 14
M  V30 14 1 13 15
M  V30 15 2 14 16
M  V30 16 1 16 17
M  V30 17 2 17 18
M  V30 18 1 17 19
M  V30 19 1 18 20
M  V30 20 1 18 21
M  V30 21 1 19 22
M  V30 22 1 19 23
M  V30 23 1 19 24
M  V30 24 1 20 25
M  V30 25 1 22 25
M  V30 26 1 4 26
M  V30 27 1 4 27
M  V30 28 1 5 28
M  V30 29 1 5 29
M  V30 30 1 6 30
M  V30 31 1 6 31
M  V30 32 1 6 32
M  V30 33 1 7 33
M  V30 34 1 9 34
M  V30 35 1 10 35
M  V30 36 1 10 36
M  V30 37 1 10 37
M  V30 38 1 11 38
M  V30 39 1 12 39
M  V30 40 1 14 40
M  V30 41 1 15 41
M  V30 42 1 15 42
M  V30 43 1 15 43
M  V30 44 1 16 44
M  V30 45 1 20 45
M  V30 46 1 20 46
M  V30 47 1 21 47
M  V30 48 1 21 48
M  V30 49 1 21 49
M  V30 50 1 22 50
M  V30 51 1 22 51
M  V30 52 1 23 52
M  V30 53 1 23 53
M  V30 54 1 23 54
M  V30 55 1 24 55
M  V30 56 1 24 56
M  V30 57 1 24 57
M  V30 58 1 25 58
M  V30 59 1 25 59
M  V30 END BOND
M  V30 END CTAB
M  END
>  <Structure No>
3133

>  <LogS>
-7.534689739

>  <MMFF94 Energy>
31.286

$$$$
Compound 3134
Actelion Java MolfileCreator 2.0

  0  0  0  0  0  0              0 V3000
M  V30 BEGIN CTAB
M  V30 COUNTS 42 45 0 0 0
M  V30 BEGIN ATOM
M  V30 1 S 1.6672 0.1666 -1.9175 0
M  V30 2 O 0.5787 -0.8193 -2.2368 0
M  V30 3 O 2.7191 0.0299 -2.9825 0
M  V30 4 O 1.036 1.7227 -1.9478 0 CHG=-1
M  V30 5 C 2.3748 -0.1599 -0.3108 0
M  V30 6 C 1.6577 -0.9288 0.6449 0
M  V30 7 C 3.7074 0.24 -0.0055 0
M  V30 8 N 0.2523 -1.1803 0.5383 0
M  V30 9 C 2.3168 -1.4443 1.7635 0
M  V30 10 C 4.3457 -0.2804 1.153 0
M  V30 11 C 4.4207 1.1631 -0.8029 0
M  V30 12 N -0.5645 -0.263 0.2073 0
M  V30 13 C 3.6513 -1.1414 2.0076 0
M  V30 14 C 5.6722 0.0727 1.4487 0
M  V30 15 C 5.7374 1.5102 -0.4905 0
M  V30 16 C -1.9839 -0.467 0.0747 0
M  V30 17 C 6.3646 0.9591 0.625 0
M  V30 18 C -2.5668 -1.7547 0.1875 0
M  V30 19 C -2.8036 0.6483 -0.2095 0
M  V30 20 O -1.7355 -2.8654 0.3606 0
M  V30 21 C -3.9708 -1.9078 0.0811 0
M  V30 22 C -4.1994 0.4751 -0.3673 0
M  V30 23 C -2.2586 1.9427 -0.3466 0
M  V30 24 C -4.642 -3.2059 0.3144 0
M  V30 25 C -4.7664 -0.7936 -0.2192 0
M  V30 26 C -5.0158 1.5807 -0.6586 0
M  V30 27 C -3.0826 3.0327 -0.6377 0
M  V30 28 O -5.6673 -3.5168 -0.3483 0
M  V30 29 O -4.1957 -4.0663 1.3105 0 CHG=-1
M  V30 30 C -4.4568 2.8524 -0.7941 0
M  V30 31 H 1.7775 -2.0623 2.4711 0
M  V30 32 H 3.9655 1.6568 -1.6482 0
M  V30 33 H 4.1292 -1.5481 2.8913 0
M  V30 34 H 6.1702 -0.3297 2.3232 0
M  V30 35 H 6.2705 2.2182 -1.1121 0
M  V30 36 H 7.3848 1.2326 0.8615 0
M  V30 37 H -2.0487 -3.821 0.2586 0
M  V30 38 H -1.1977 2.1216 -0.2296 0
M  V30 39 H -5.841 -0.9109 -0.311 0
M  V30 40 H -6.086 1.4615 -0.7803 0
M  V30 41 H -2.6536 4.0211 -0.7416 0
M  V30 42 H -5.0908 3.7004 -1.019 0
M  V30 END ATOM
M  V30 BEGIN BOND
M  V30 1 2 1 2
M  V30 2 2 1 3
M  V30 3 1 1 4
M  V30 4 1 1 5
M  V30 5 2 5 6
M  V30 6 1 5 7
M  V30 7 1 6 8
M  V30 8 1 6 9
M  V30 9 1 7 10
M  V30 10 2 7 11
M  V30 11 2 8 12
M  V30 12 2 9 13
M  V30 13 2 10 14
M  V30 14 1 11 15
M  V30 15 1 12 16
M  V30 16 1 14 17
M  V30 17 2 16 18
M  V30 18 1 16 19
M  V30 19 1 18 20
M  V30 20 1 18 21
M  V30 21 1 19 22
M  V30 22 2 19 23
M  V30 23 1 21 24
M  V30 24 2 21 25
M  V30 25 2 22 26
M  V30 26 1 23 27
M  V30 27 2 24 28
M  V30 28 1 24 29
M  V30 29 1 26 30
M  V30 30 1 10 13
M  V30 31 2 15 17
M  V30 32 1 22 25
M  V30 33 2 27 30
M  V30 34 1 9 31
M  V30 35 1 11 32
M  V30 36 1 13 33
M  V30 37 1 14 34
M  V30 38 1 15 35
M  V30 39 1 17 36
M  V30 40 1 20 37
M  V30 41 1 23 38
M  V30 42 1 25 39
M  V30 43 1 26 40
M  V30 44 1 27 41
M  V30 45 1 30 42
M  V30 END BOND
M  V30 END CTAB
M  END
>  <Structure No>
3134

>  <LogS>
-7.677004362

>  <MMFF94 Energy>
153.68

$$$$
Compound 3135
Actelion Java MolfileCreator 2.0

  0  0  0  0  0  0              0 V3000
M  V30 BEGIN CTAB
M  V30 COUNTS 51 50 0 0 0
M  V30 BEGIN ATOM
M  V30 1 O 0 0 0 0
M  V30 2 C 0 0 0 0
M  V30 3 O 0 0 0 0
M  V30 4 C 0 0 0 0
M  V30 5 C 0 0 0 0
M  V30 6 C 0 0 0 0
M  V30 7 C 0 0 0 0
M  V30 8 C 0 0 0 0
M  V30 9 C 0 0 0 0
M  V30 10 O 0 0 0 0
M  V30 11 O 0 0 0 0
M  V30 12 C 0 0 0 0
M  V30 13 C 0 0 0 0
M  V30 14 C 0 0 0 0
M  V30 15 C 0 0 0 0
M  V30 16 O 0 0 0 0
M  V30 17 C 0 0 0 0
M  V30 18 O 0 0 0 0
M  V30 19 C 0 0 0 0
M  V30 20 C 0 0 0 0
M  V30 21 C 0 0 0 0
M  V30 22 C 0 0 0 0
M  V30 23 C 0 0 0 0
M  V30 24 C 0 0 0 0
M  V30 25 C 0 0 0 0
M  V30 26 C 0 0 0 0
M  V30 27 C 0 0 0 0
M  V30 28 C 0 0 0 0
M  V30 29 C 0 0 0 0
M  V30 30 C 0 0 0 0
M  V30 31 C 0 0 0 0
M  V30 32 C 0 0 0 0
M  V30 33 C 0 0 0 0
M  V30 34 C 0 0 0 0
M  V30 35 C 0 0 0 0
M  V30 36 C 0 0 0 0
M  V30 37 C 0 0 0 0
M  V30 38 C 0 0 0 0
M  V30 39 C 0 0 0 0
M  V30 40 C 0 0 0 0
M  V30 41 C 0 0 0 0
M  V30 42 C 0 0 0 0
M  V30 43 C 0 0 0 0
M  V30 44 C 0 0 0 0
M  V30 45 C 0 0 0 0
M  V30 46 C 0 0 0 0
M  V30 47 C 0 0 0 0
M  V30 48 C 0 0 0 0
M  V30 49 C 0 0 0 0
M  V30 50 C 0 0 0 0
M  V30 51 C 0 0 0 0
M  V30 END ATOM
M  V30 BEGIN BOND
M  V30 1 2 1 2
M  V30 2 1 2 3
M  V30 3 1 2 4
M  V30 4 1 3 5
M  V30 5 1 4 6
M  V30 6 1 5 7
M  V30 7 1 5 8
M  V30 8 1 6 9
M  V30 9 1 7 10
M  V30 10 1 8 11
M  V30 11 1 9 12
M  V30 12 1 10 13
M  V30 13 1 11 14
M  V30 14 1 12 15
M  V30 15 2 13 16
M  V30 16 1 13 17
M  V30 17 2 14 18
M  V30 18 1 14 19
M  V30 19 1 15 20
M  V30 20 1 17 21
M  V30 21 1 19 22
M  V30 22 1 20 23
M  V30 23 1 21 24
M  V30 24 1 22 25
M  V30 25 1 23 26
M  V30 26 1 24 27
M  V30 27 1 25 28
M  V30 28 1 26 29
M  V30 29 1 27 30
M  V30 30 1 28 31
M  V30 31 1 29 32
M  V30 32 1 30 33
M  V30 33 1 31 34
M  V30 34 1 32 35
M  V30 35 1 33 36
M  V30 36 1 34 37
M  V30 37 1 35 38
M  V30 38 1 36 39
M  V30 39 1 37 40
M  V30 40 1 38 41
M  V30 41 1 39 42
M  V30 42 1 40 43
M  V30 43 1 42 44
M  V30 44 1 43 45
M  V30 45 1 44 46
M  V30 46 1 45 47
M  V30 47 1 46 48
M  V30 48 1 47 49
M  V30 49 1 48 50
M  V30 50 1 49 51
M  V30 END BOND
M  V30 END CTAB
M  END
>  <Structure No>
3135

>  <LogS>
-8.647057001

>  <MMFF94 Energy>
-23.728

$$$$
Compound 3136
Actelion Java MolfileCreator 2.0

  0  0  0  0  0  0              0 V3000
M  V30 BEGIN CTAB
M  V30 COUNTS 52 53 0 0 0
M  V30 BEGIN ATOM
M  V30 1 C -2.1325 0.7104 -0.7104 0
M  V30 2 C -2.6032 -0.6069 -0.8661 0
M  V30 3 C -3.041 1.7757 -0.8389 0
M  V30 4 C -0.6744 0.9881 -0.3927 0 CFG=1
M  V30 5 C -3.9491 -0.8505 -1.1521 0
M  V30 6 C -4.3869 1.5305 -1.1248 0
M  V30 7 C 0.2579 0.4237 -1.4821 0
M  V30 8 C -0.2917 0.4633 1.0166 0
M  V30 9 C -4.8494 0.2166 -1.2897 0
M  V30 10 C 1.7227 0.8451 -1.2466 0
M  V30 11 C 1.2009 0.0984 1.1473 0
M  V30 12 C -6.3074 -0.0446 -1.5707 0
M  V30 13 C 2.0848 0.9945 0.2563 0 CFG=2
M  V30 14 C -7.1644 0.053 -0.3005 0
M  V30 15 C 3.5975 0.8037 0.5215 0
M  V30 16 C -6.8657 -1.0689 0.6931 0
M  V30 17 C 4.0738 -0.6634 0.4816 0
M  V30 18 C 5.6053 -0.7845 0.4439 0
M  V30 19 C 6.2659 -0.3346 1.7553 0
M  V30 20 C 7.77 -0.5908 1.7289 0
M  V30 21 H -1.931 -1.4482 -0.7581 0
M  V30 22 H -2.7104 2.7996 -0.7158 0
M  V30 23 H -0.5165 2.0911 -0.3867 0
M  V30 24 H -4.2904 -1.8727 -1.2597 0
M  V30 25 H -5.0707 2.3657 -1.2152 0
M  V30 26 H -0.0672 0.7816 -2.4837 0
M  V30 27 H 0.2017 -0.6867 -1.4866 0
M  V30 28 H -0.8873 -0.4361 1.2855 0
M  V30 29 H -0.5412 1.2479 1.7647 0
M  V30 30 H 1.9022 1.8208 -1.7496 0
M  V30 31 H 2.3784 0.1057 -1.7509 0
M  V30 32 H 1.3326 -0.9649 0.8501 0
M  V30 33 H 1.5081 0.1953 2.2117 0
M  V30 34 H -6.6736 0.7048 -2.306 0
M  V30 35 H -6.4438 -1.0435 -2.0407 0
M  V30 36 H 1.8563 2.0478 0.5399 0
M  V30 37 H -7.0058 1.037 0.1923 0
M  V30 38 H -8.2356 -0.0098 -0.5908 0
M  V30 39 H 4.1664 1.4044 -0.222 0
M  V30 40 H 3.8262 1.2235 1.525 0
M  V30 41 H -5.8289 -0.9808 1.0806 0
M  V30 42 H -6.9957 -2.0601 0.2089 0
M  V30 43 H -7.5663 -0.9991 1.5517 0
M  V30 44 H 3.6868 -1.2107 1.3684 0
M  V30 45 H 3.6733 -1.1692 -0.4207 0
M  V30 46 H 5.8603 -1.8514 0.2603 0
M  V30 47 H 6.0085 -0.1912 -0.406 0
M  V30 48 H 5.8224 -0.8893 2.6109 0
M  V30 49 H 6.0982 0.7519 1.9126 0
M  V30 50 H 8.2413 -0.0332 0.8915 0
M  V30 51 H 8.2223 -0.2477 2.6833 0
M  V30 52 H 7.9751 -1.6759 1.6091 0
M  V30 END ATOM
M  V30 BEGIN BOND
M  V30 1 2 1 2
M  V30 2 1 1 3
M  V30 3 1 1 4
M  V30 4 1 2 5
M  V30 5 2 3 6
M  V30 6 1 4 7
M  V30 7 1 4 8
M  V30 8 2 5 9
M  V30 9 1 7 10
M  V30 10 1 8 11
M  V30 11 1 9 12
M  V30 12 1 10 13
M  V30 13 1 12 14
M  V30 14 1 13 15
M  V30 15 1 14 16
M  V30 16 1 15 17
M  V30 17 1 17 18
M  V30 18 1 18 19
M  V30 19 1 19 20
M  V30 20 1 6 9
M  V30 21 1 11 13
M  V30 22 1 2 21
M  V30 23 1 3 22
M  V30 24 1 4 23
M  V30 25 1 5 24
M  V30 26 1 6 25
M  V30 27 1 7 26
M  V30 28 1 7 27
M  V30 29 1 8 28
M  V30 30 1 8 29
M  V30 31 1 10 30
M  V30 32 1 10 31
M  V30 33 1 11 32
M  V30 34 1 11 33
M  V30 35 1 12 34
M  V30 36 1 12 35
M  V30 37 1 13 36
M  V30 38 1 14 37
M  V30 39 1 14 38
M  V30 40 1 15 39
M  V30 41 1 15 40
M  V30 42 1 16 41
M  V30 43 1 16 42
M  V30 44 1 16 43
M  V30 45 1 17 44
M  V30 46 1 17 45
M  V30 47 1 18 46
M  V30 48 1 18 47
M  V30 49 1 19 48
M  V30 50 1 19 49
M  V30 51 1 20 50
M  V30 52 1 20 51
M  V30 53 1 20 52
M  V30 END BOND
M  V30 BEGIN COLLECTION
M  V30 MDLV30/STEABS ATOMS=(2 4 13)
M  V30 END COLLECTION
M  V30 END CTAB
M  END
>  <Structure No>
3136

>  <LogS>
-6.772570424

>  <MMFF94 Energy>
31.208

$$$$
Compound 3137
Actelion Java MolfileCreator 2.0

  0  0  0  0  0  0              0 V3000
M  V30 BEGIN CTAB
M  V30 COUNTS 55 57 0 0 0
M  V30 BEGIN ATOM
M  V30 1 O 1.1126 -2.1467 -0.7151 0
M  V30 2 C 0.4023 -1.0076 -0.3301 0
M  V30 3 C 1.0997 0.1598 0.0485 0
M  V30 4 C -1.0203 -1.0245 -0.3428 0
M  V30 5 N 2.5307 0.1718 0.1674 0
M  V30 6 C 0.3953 1.3272 0.3514 0
M  V30 7 C -1.6926 0.1663 0.0293 0
M  V30 8 C -1.8082 -2.3194 -0.7097 0
M  V30 9 N 3.2913 1.1737 -0.2728 0
M  V30 10 N 3.2259 -0.7644 0.8127 0
M  V30 11 C -1.0097 1.3587 0.3404 0
M  V30 12 C -1.5539 -3.3756 0.412 0
M  V30 13 C -3.3378 -2.0644 -0.8275 0
M  V30 14 C -1.341 -2.8471 -2.0938 0
M  V30 15 C 4.5382 0.8413 0.0917 0
M  V30 16 C 4.4981 -0.3448 0.7559 0
M  V30 17 C -1.815 2.6306 0.6991 0
M  V30 18 C -2.2567 -4.7248 0.2167 0
M  V30 19 C 5.7257 1.5353 -0.1178 0
M  V30 20 C 5.6419 -0.9464 1.2711 0
M  V30 21 C -2.853 2.9709 -0.4173 0
M  V30 22 C -2.5803 2.369 2.0162 0
M  V30 23 C -0.9193 3.8755 0.9365 0
M  V30 24 C 6.9086 0.9582 0.3858 0
M  V30 25 C 6.8669 -0.2772 1.0773 0
M  V30 26 C -2.2458 3.1342 -1.8157 0
M  V30 27 H 2.1078 -2.1527 -0.8929 0
M  V30 28 H 0.9721 2.1956 0.6311 0
M  V30 29 H -2.766 0.1899 0.0812 0
M  V30 30 H -0.4685 -3.5846 0.5055 0
M  V30 31 H -1.88 -2.9551 1.3891 0
M  V30 32 H -3.5442 -1.2425 -1.5472 0
M  V30 33 H -3.876 -2.9573 -1.2091 0
M  V30 34 H -3.7805 -1.8166 0.1613 0
M  V30 35 H -2.0771 -3.5538 -2.5334 0
M  V30 36 H -1.2204 -2.0055 -2.8099 0
M  V30 37 H -0.3884 -3.4086 -2.0333 0
M  V30 38 H -1.9897 -5.1782 -0.7595 0
M  V30 39 H -1.9329 -5.4227 1.0176 0
M  V30 40 H -3.3578 -4.6165 0.2938 0
M  V30 41 H 5.7408 2.48 -0.6455 0
M  V30 42 H 5.5932 -1.8893 1.8001 0
M  V30 43 H -3.6376 2.1869 -0.4743 0
M  V30 44 H -3.3866 3.9125 -0.1595 0
M  V30 45 H -3.316 1.545 1.9044 0
M  V30 46 H -1.8733 2.0924 2.8285 0
M  V30 47 H -3.1395 3.2758 2.3344 0
M  V30 48 H -0.2696 3.7332 1.8272 0
M  V30 49 H -1.54 4.7785 1.1238 0
M  V30 50 H -0.2727 4.085 0.0592 0
M  V30 51 H 7.855 1.4636 0.2446 0
M  V30 52 H 7.7817 -0.7097 1.4608 0
M  V30 53 H -1.5531 3.9993 -1.8503 0
M  V30 54 H -1.7076 2.2152 -2.127 0
M  V30 55 H -3.0596 3.3206 -2.5476 0
M  V30 END ATOM
M  V30 BEGIN BOND
M  V30 1 1 1 2
M  V30 2 2 2 3
M  V30 3 1 2 4
M  V30 4 1 3 5
M  V30 5 1 3 6
M  V30 6 2 4 7
M  V30 7 1 4 8
M  V30 8 1 5 9
M  V30 9 1 5 10
M  V30 10 2 6 11
M  V30 11 1 8 12
M  V30 12 1 8 13
M  V30 13 1 8 14
M  V30 14 2 9 15
M  V30 15 2 10 16
M  V30 16 1 11 17
M  V30 17 1 12 18
M  V30 18 1 15 19
M  V30 19 1 16 20
M  V30 20 1 17 21
M  V30 21 1 17 22
M  V30 22 1 17 23
M  V30 23 2 19 24
M  V30 24 2 20 25
M  V30 25 1 21 26
M  V30 26 1 7 11
M  V30 27 1 15 16
M  V30 28 1 24 25
M  V30 29 1 1 27
M  V30 30 1 6 28
M  V30 31 1 7 29
M  V30 32 1 12 30
M  V30 33 1 12 31
M  V30 34 1 13 32
M  V30 35 1 13 33
M  V30 36 1 13 34
M  V30 37 1 14 35
M  V30 38 1 14 36
M  V30 39 1 14 37
M  V30 40 1 18 38
M  V30 41 1 18 39
M  V30 42 1 18 40
M  V30 43 1 19 41
M  V30 44 1 20 42
M  V30 45 1 21 43
M  V30 46 1 21 44
M  V30 47 1 22 45
M  V30 48 1 22 46
M  V30 49 1 22 47
M  V30 50 1 23 48
M  V30 51 1 23 49
M  V30 52 1 23 50
M  V30 53 1 24 51
M  V30 54 1 25 52
M  V30 55 1 26 53
M  V30 56 1 26 54
M  V30 57 1 26 55
M  V30 END BOND
M  V30 END CTAB
M  END
>  <Structure No>
3137

>  <LogS>
-8.545917916

>  <MMFF94 Energy>
96.231

$$$$
Compound 3138
Actelion Java MolfileCreator 2.0

  0  0  0  0  0  0              0 V3000
M  V30 BEGIN CTAB
M  V30 COUNTS 52 53 0 0 0
M  V30 BEGIN ATOM
M  V30 1 Cl -3.6757 -1.469 -2.7762 0
M  V30 2 C -2.8281 -0.8659 -1.3588 0
M  V30 3 C -3.5344 -0.2835 -0.2942 0
M  V30 4 C -1.4335 -0.9666 -1.3042 0
M  V30 5 N -4.9611 -0.1894 -0.3622 0 CHG=-1
M  V30 6 C -2.8287 0.202 0.8192 0
M  V30 7 C -0.729 -0.4944 -0.1855 0
M  V30 8 N -5.7275 0.3739 0.6689 0
M  V30 9 C -1.436 0.101 0.8701 0
M  V30 10 C 0.7469 -0.5871 -0.1335 0
M  V30 11 C -7.0235 0.4724 0.6111 0
M  V30 12 C 1.4172 -1.8247 -0.2475 0
M  V30 13 C 1.5004 0.5864 0.0349 0
M  V30 14 C -7.7716 0.0212 -0.587 0
M  V30 15 C -7.7387 1.0235 1.7852 0
M  V30 16 Cl 0.5425 -3.3481 -0.376 0
M  V30 17 C 2.8161 -1.8663 -0.2103 0
M  V30 18 C 2.8958 0.536 0.0699 0
M  V30 19 O -8.8014 -0.6917 -0.4453 0
M  V30 20 N -7.3439 0.4019 -1.9029 0
M  V30 21 O -7.1006 1.2448 2.8501 0
M  V30 22 C -9.2083 1.3155 1.7533 0
M  V30 23 C 3.5605 -0.6927 -0.0562 0
M  V30 24 N -7.9834 -0.0848 -3.054 0
M  V30 25 N 4.9881 -0.7745 -0.0259 0 CHG=-1
M  V30 26 N 5.7995 0.3595 0.1259 0
M  V30 27 C 7.0996 0.3057 0.1571 0
M  V30 28 C 7.8485 1.5786 0.2485 0
M  V30 29 C 7.8279 -0.9832 0.0522 0
M  V30 30 O 7.2468 2.6643 0.0236 0
M  V30 31 N 9.2379 1.6031 0.6129 0
M  V30 32 O 8.8216 -1.0708 -0.7176 0
M  V30 33 C 7.406 -2.1932 0.8274 0
M  V30 34 N 9.974 2.7987 0.6142 0
M  V30 35 H -0.8978 -1.4033 -2.1381 0
M  V30 36 H -3.3515 0.6592 1.6492 0
M  V30 37 H -0.9088 0.4783 1.7379 0
M  V30 38 H 1.0058 1.5461 0.1253 0
M  V30 39 H 3.328 -2.8174 -0.2932 0
M  V30 40 H 3.4521 1.4561 0.1938 0
M  V30 41 H -6.5605 1.0823 -2.0186 0
M  V30 42 H -9.4891 1.9767 2.6006 0
M  V30 43 H -9.7801 0.3682 1.8387 0
M  V30 44 H -9.4772 1.83 0.8068 0
M  V30 45 H -7.9175 -1.1281 -3.0363 0
M  V30 46 H -8.994 0.1758 -2.9927 0
M  V30 47 H 9.72 0.7288 0.9158 0
M  V30 48 H 6.8336 -1.8973 1.7319 0
M  V30 49 H 8.3015 -2.7628 1.1535 0
M  V30 50 H 6.7779 -2.8478 0.188 0
M  V30 51 H 9.5019 3.4645 1.2676 0
M  V30 52 H 9.9266 3.2031 -0.3486 0
M  V30 END ATOM
M  V30 BEGIN BOND
M  V30 1 1 1 2
M  V30 2 2 2 3
M  V30 3 1 2 4
M  V30 4 1 3 5
M  V30 5 1 3 6
M  V30 6 2 4 7
M  V30 7 1 5 8
M  V30 8 2 6 9
M  V30 9 1 7 10
M  V30 10 2 8 11
M  V30 11 2 10 12
M  V30 12 1 10 13
M  V30 13 1 11 14
M  V30 14 1 11 15
M  V30 15 1 12 16
M  V30 16 1 12 17
M  V30 17 2 13 18
M  V30 18 2 14 19
M  V30 19 1 14 20
M  V30 20 2 15 21
M  V30 21 1 15 22
M  V30 22 2 17 23
M  V30 23 1 20 24
M  V30 24 1 23 25
M  V30 25 1 25 26
M  V30 26 2 26 27
M  V30 27 1 27 28
M  V30 28 1 27 29
M  V30 29 2 28 30
M  V30 30 1 28 31
M  V30 31 2 29 32
M  V30 32 1 29 33
M  V30 33 1 31 34
M  V30 34 1 7 9
M  V30 35 1 18 23
M  V30 36 1 4 35
M  V30 37 1 6 36
M  V30 38 1 9 37
M  V30 39 1 13 38
M  V30 40 1 17 39
M  V30 41 1 18 40
M  V30 42 1 20 41
M  V30 43 1 22 42
M  V30 44 1 22 43
M  V30 45 1 22 44
M  V30 46 1 24 45
M  V30 47 1 24 46
M  V30 48 1 31 47
M  V30 49 1 33 48
M  V30 50 1 33 49
M  V30 51 1 33 50
M  V30 52 1 34 51
M  V30 53 1 34 52
M  V30 END BOND
M  V30 END CTAB
M  END
>  <Structure No>
3138

>  <LogS>
-8.705297393

>  <MMFF94 Energy>
291.97

$$$$
Compound 3139
Actelion Java MolfileCreator 2.0

  0  0  0  0  0  0              0 V3000
M  V30 BEGIN CTAB
M  V30 COUNTS 68 78 0 0 0
M  V30 BEGIN ATOM
M  V30 1 O 1.8112 -0.2468 -1.976 0
M  V30 2 C 0.9858 -0.1261 -1.0316 0
M  V30 3 C 1.4364 -0.008 0.3037 0
M  V30 4 C -0.3934 -0.1108 -1.3287 0
M  V30 5 C 0.4749 0.1273 1.3525 0
M  V30 6 C 2.8084 -0.0152 0.6792 0
M  V30 7 C -1.3549 0.0245 -0.2799 0
M  V30 8 C -0.8269 -0.2308 -2.6783 0
M  V30 9 C -0.9043 0.1425 1.0553 0
M  V30 10 C 0.9083 0.2474 2.7021 0
M  V30 11 N 3.9118 -0.129 -0.1068 0
M  V30 12 C 3.1834 0.1038 2.0008 0
M  V30 13 C -2.727 0.0318 -0.6554 0
M  V30 14 C -2.1844 -0.2194 -3.0072 0
M  V30 15 O -1.7297 0.2632 1.9997 0
M  V30 16 C 2.2657 0.2361 3.0311 0
M  V30 17 C 4.9824 -0.0807 0.7291 0
M  V30 18 C 4.5559 0.0625 2.0325 0
M  V30 19 N -3.8305 0.1457 0.1308 0
M  V30 20 C -3.1021 -0.0871 -1.9769 0
M  V30 21 C 6.3672 -0.1567 0.4165 0
M  V30 22 C 5.4323 0.1406 3.1045 0
M  V30 23 C -4.9012 0.0975 -0.7051 0
M  V30 24 C -4.4746 -0.0457 -2.0085 0
M  V30 25 C 6.8726 -0.3037 -0.8989 0
M  V30 26 C 7.2863 -0.0777 1.5108 0
M  V30 27 C 6.802 0.0699 2.8386 0
M  V30 28 C -6.2861 0.1736 -0.3924 0
M  V30 29 C -5.3511 -0.1237 -3.0804 0
M  V30 30 O 6.0897 -0.3761 -1.8834 0
M  V30 31 C 8.2631 -0.3713 -1.1261 0
M  V30 32 C 8.6741 -0.1463 1.2728 0
M  V30 33 C -6.7915 0.3207 0.9231 0
M  V30 34 C -7.2053 0.0948 -1.4866 0
M  V30 35 C -6.7209 -0.0528 -2.8144 0
M  V30 36 C 9.166 -0.2923 -0.037 0
M  V30 37 C 8.7747 -0.5177 -2.4334 0
M  V30 38 O 9.4828 -0.0762 2.2414 0
M  V30 39 O -6.0087 0.3932 1.9077 0
M  V30 40 C -8.1821 0.3885 1.1504 0
M  V30 41 C -8.5931 0.1635 -1.2485 0
M  V30 42 C 10.5533 -0.3618 -0.2834 0
M  V30 43 C 10.1506 -0.5844 -2.6556 0
M  V30 44 C -9.0851 0.3096 0.0614 0
M  V30 45 C -8.6938 0.5351 2.4578 0
M  V30 46 O -9.402 0.0936 -2.217 0
M  V30 47 C 11.037 -0.5066 -1.5839 0
M  V30 48 C -10.4725 0.3793 0.3079 0
M  V30 49 C -10.0698 0.6018 2.6799 0
M  V30 50 C -10.9563 0.5242 1.6084 0
M  V30 51 H -0.1138 -0.3343 -3.4866 0
M  V30 52 H 0.1951 0.3509 3.5106 0
M  V30 53 H 3.9336 -0.2321 -1.1377 0
M  V30 54 H -2.5035 -0.3113 -4.0371 0
M  V30 55 H 2.5847 0.3282 4.0611 0
M  V30 56 H -3.8524 0.249 1.1617 0
M  V30 57 H 5.0724 0.2531 4.119 0
M  V30 58 H 7.4847 0.131 3.6771 0
M  V30 59 H -4.9913 -0.2362 -4.0949 0
M  V30 60 H -7.4037 -0.1138 -3.6528 0
M  V30 61 H 8.114 -0.5813 -3.2892 0
M  V30 62 H 11.2689 -0.3043 0.5275 0
M  V30 63 H 10.5305 -0.6968 -3.6628 0
M  V30 64 H -8.0332 0.5986 3.3137 0
M  V30 65 H 12.1036 -0.5588 -1.761 0
M  V30 66 H -11.1882 0.322 -0.5029 0
M  V30 67 H -10.4498 0.7143 3.6873 0
M  V30 68 H -12.0229 0.5765 1.7857 0
M  V30 END ATOM
M  V30 BEGIN BOND
M  V30 1 2 1 2
M  V30 2 1 2 3
M  V30 3 1 2 4
M  V30 4 2 3 5
M  V30 5 1 3 6
M  V30 6 2 4 7
M  V30 7 1 4 8
M  V30 8 1 5 9
M  V30 9 1 5 10
M  V30 10 1 6 11
M  V30 11 2 6 12
M  V30 12 1 7 13
M  V30 13 2 8 14
M  V30 14 2 9 15
M  V30 15 2 10 16
M  V30 16 1 11 17
M  V30 17 1 12 18
M  V30 18 1 13 19
M  V30 19 2 13 20
M  V30 20 1 17 21
M  V30 21 1 18 22
M  V30 22 1 19 23
M  V30 23 1 20 24
M  V30 24 1 21 25
M  V30 25 2 21 26
M  V30 26 2 22 27
M  V30 27 1 23 28
M  V30 28 1 24 29
M  V30 29 2 25 30
M  V30 30 1 25 31
M  V30 31 1 26 32
M  V30 32 1 28 33
M  V30 33 2 28 34
M  V30 34 2 29 35
M  V30 35 2 31 36
M  V30 36 1 31 37
M  V30 37 2 32 38
M  V30 38 2 33 39
M  V30 39 1 33 40
M  V30 40 1 34 41
M  V30 41 1 36 42
M  V30 42 2 37 43
M  V30 43 2 40 44
M  V30 44 1 40 45
M  V30 45 2 41 46
M  V30 46 2 42 47
M  V30 47 1 44 48
M  V30 48 2 45 49
M  V30 49 2 48 50
M  V30 50 1 7 9
M  V30 51 1 12 16
M  V30 52 1 14 20
M  V30 53 2 17 18
M  V30 54 2 23 24
M  V30 55 1 26 27
M  V30 56 1 32 36
M  V30 57 1 34 35
M  V30 58 1 41 44
M  V30 59 1 43 47
M  V30 60 1 49 50
M  V30 61 1 8 51
M  V30 62 1 10 52
M  V30 63 1 11 53
M  V30 64 1 14 54
M  V30 65 1 16 55
M  V30 66 1 19 56
M  V30 67 1 22 57
M  V30 68 1 27 58
M  V30 69 1 29 59
M  V30 70 1 35 60
M  V30 71 1 37 61
M  V30 72 1 42 62
M  V30 73 1 43 63
M  V30 74 1 45 64
M  V30 75 1 47 65
M  V30 76 1 48 66
M  V30 77 1 49 67
M  V30 78 1 50 68
M  V30 END BOND
M  V30 END CTAB
M  END
>  <Structure No>
3139

>  <LogS>
-8.810645103

>  <MMFF94 Energy>
171.49

$$$$
Compound 3140
Actelion Java MolfileCreator 2.0

  0  0  0  0  0  0              0 V3000
M  V30 BEGIN CTAB
M  V30 COUNTS 1 0 0 0 0
M  V30 BEGIN ATOM
M  V30 1 O 0.0 0.0 0.0 0
M  V30 END ATOM
M  V30 BEGIN BOND
M  V30 END BOND
M  V30 END CTAB
M  END
>  <Structure No>
3140

>  <LogS>
-8.510435082

>  <MMFF94 Energy>
1.8135e-18

$$$$
Compound 3141
Actelion Java MolfileCreator 2.0

  0  0  0  0  0  0              0 V3000
M  V30 BEGIN CTAB
M  V30 COUNTS 48 47 0 0 0
M  V30 BEGIN ATOM
M  V30 1 O -5.3864 1.169 1.4029 0
M  V30 2 C -5.486 0.4409 0.3762 0
M  V30 3 O -5.197 -0.927 0.4528 0
M  V30 4 C -5.9107 1.0215 -0.9169 0
M  V30 5 C -4.6853 -1.5604 1.6248 0
M  V30 6 C -6.1429 2.3341 -1.0397 0
M  V30 7 C -6.0083 0.1277 -2.1222 0
M  V30 8 C -3.2063 -1.2188 1.8383 0
M  V30 9 C -2.341 -1.6851 0.66 0
M  V30 10 C -0.8621 -1.3602 0.901 0
M  V30 11 C 2.0E-4 -1.8128 -0.2866 0
M  V30 12 C 1.5043 -1.625 -0.0321 0
M  V30 13 C 1.9263 -0.1479 -0.0403 0
M  V30 14 C 3.449 -0.011 0.0815 0
M  V30 15 C 3.8709 1.4661 0.074 0
M  V30 16 C 5.3757 1.6535 0.3242 0
M  V30 17 C 6.2337 1.2025 -0.8669 0
M  V30 18 C 7.7069 1.5275 -0.6365 0
M  V30 19 H -4.7954 -2.6599 1.5122 0
M  V30 20 H -5.2782 -1.2534 2.5139 0
M  V30 21 H -6.4246 2.7641 -1.9929 0
M  V30 22 H -6.0553 3.0052 -0.1945 0
M  V30 23 H -4.9877 -0.1106 -2.4877 0
M  V30 24 H -6.5818 0.6063 -2.9453 0
M  V30 25 H -6.5265 -0.8171 -1.8541 0
M  V30 26 H -2.8605 -1.7174 2.77 0
M  V30 27 H -3.0943 -0.1217 1.9756 0
M  V30 28 H -2.4609 -2.7831 0.5283 0
M  V30 29 H -2.6782 -1.1784 -0.2709 0
M  V30 30 H -0.7557 -0.2637 1.0445 0
M  V30 31 H -0.5194 -1.8751 1.8255 0
M  V30 32 H -0.1828 -2.8943 -0.4706 0
M  V30 33 H -0.2984 -1.2602 -1.2043 0
M  V30 34 H 1.7841 -2.0938 0.9369 0
M  V30 35 H 2.0558 -2.1601 -0.8361 0
M  V30 36 H 1.4494 0.3815 0.8119 0
M  V30 37 H 1.5906 0.3282 -0.9877 0
M  V30 38 H 3.7848 -0.4874 1.029 0
M  V30 39 H 3.9262 -0.5398 -0.7707 0
M  V30 40 H 3.3214 2.0001 0.8803 0
M  V30 41 H 3.5883 1.9362 -0.8934 0
M  V30 42 H 5.6776 1.0996 1.2402 0
M  V30 43 H 5.5596 2.7349 0.5093 0
M  V30 44 H 6.1366 0.1063 -1.014 0
M  V30 45 H 5.894 1.7161 -1.7925 0
M  V30 46 H 8.0773 1.0125 0.2755 0
M  V30 47 H 7.8478 2.6236 -0.522 0
M  V30 48 H 8.3043 1.1825 -1.5066 0
M  V30 END ATOM
M  V30 BEGIN BOND
M  V30 1 2 1 2
M  V30 2 1 2 3
M  V30 3 1 2 4
M  V30 4 1 3 5
M  V30 5 2 4 6
M  V30 6 1 4 7
M  V30 7 1 5 8
M  V30 8 1 8 9
M  V30 9 1 9 10
M  V30 10 1 10 11
M  V30 11 1 11 12
M  V30 12 1 12 13
M  V30 13 1 13 14
M  V30 14 1 14 15
M  V30 15 1 15 16
M  V30 16 1 16 17
M  V30 17 1 17 18
M  V30 18 1 5 19
M  V30 19 1 5 20
M  V30 20 1 6 21
M  V30 21 1 6 22
M  V30 22 1 7 23
M  V30 23 1 7 24
M  V30 24 1 7 25
M  V30 25 1 8 26
M  V30 26 1 8 27
M  V30 27 1 9 28
M  V30 28 1 9 29
M  V30 29 1 10 30
M  V30 30 1 10 31
M  V30 31 1 11 32
M  V30 32 1 11 33
M  V30 33 1 12 34
M  V30 34 1 12 35
M  V30 35 1 13 36
M  V30 36 1 13 37
M  V30 37 1 14 38
M  V30 38 1 14 39
M  V30 39 1 15 40
M  V30 40 1 15 41
M  V30 41 1 16 42
M  V30 42 1 16 43
M  V30 43 1 17 44
M  V30 44 1 17 45
M  V30 45 1 18 46
M  V30 46 1 18 47
M  V30 47 1 18 48
M  V30 END BOND
M  V30 END CTAB
M  END
>  <Structure No>
3141

>  <LogS>
-8.405541006

>  <MMFF94 Energy>
-0.361

$$$$
Compound 3142
Actelion Java MolfileCreator 2.0

  0  0  0  0  0  0              0 V3000
M  V30 BEGIN CTAB
M  V30 COUNTS 66 65 0 0 0
M  V30 BEGIN ATOM
M  V30 1 O 7.202 -0.4684 -1.5622 0
M  V30 2 C 8.0349 0.0011 -0.7373 0
M  V30 3 O 7.6651 1.0471 0.1193 0
M  V30 4 C 9.4096 -0.5428 -0.6688 0
M  V30 5 C 6.3367 1.5601 0.2037 0
M  V30 6 C 9.7676 -1.6008 -1.4053 0
M  V30 7 C 10.3855 0.0498 0.3103 0
M  V30 8 C 5.4444 0.593 0.9916 0
M  V30 9 C 4.0425 1.1628 1.2711 0
M  V30 10 C 3.1933 1.4382 0.0134 0
M  V30 11 C 2.9584 0.216 -0.8963 0
M  V30 12 C 2.3198 -1.0041 -0.202 0
M  V30 13 C 0.9661 -0.7338 0.4797 0
M  V30 14 C -0.1385 -0.3519 -0.5205 0
M  V30 15 C -1.501 -0.1288 0.1568 0
M  V30 16 C -2.187 -1.4452 0.5583 0
M  V30 17 C -3.5321 -1.2208 1.271 0
M  V30 18 C -4.6332 -0.652 0.3493 0
M  V30 19 C -4.9172 0.8338 0.6336 0
M  V30 20 C -5.9623 1.4324 -0.3338 0
M  V30 21 C -7.3637 1.5912 0.2868 0
M  V30 22 C -8.0797 0.2711 0.6297 0
M  V30 23 C -8.3482 -0.6502 -0.5743 0
M  V30 24 C -9.2751 -0.019 -1.6117 0
M  V30 25 H 6.3735 2.5375 0.7313 0
M  V30 26 H 5.9353 1.7322 -0.8183 0
M  V30 27 H 9.0753 -2.0697 -2.0945 0
M  V30 28 H 10.7602 -2.0239 -1.3251 0
M  V30 29 H 11.435 -0.2057 0.0485 0
M  V30 30 H 10.2992 1.1572 0.3148 0
M  V30 31 H 10.1657 -0.3348 1.3287 0
M  V30 32 H 5.9326 0.3881 1.9687 0
M  V30 33 H 5.3682 -0.3781 0.4617 0
M  V30 34 H 3.4984 0.4603 1.9388 0
M  V30 35 H 4.1486 2.1138 1.8383 0
M  V30 36 H 3.6755 2.2387 -0.5864 0
M  V30 37 H 2.2126 1.8523 0.3304 0
M  V30 38 H 2.3236 0.5269 -1.7529 0
M  V30 39 H 3.9257 -0.0979 -1.3421 0
M  V30 40 H 3.0259 -1.4063 0.5552 0
M  V30 41 H 2.1859 -1.8063 -0.9601 0
M  V30 42 H 1.0727 0.0565 1.2513 0
M  V30 43 H 0.6777 -1.6644 1.0093 0
M  V30 44 H -0.2301 -1.1337 -1.3071 0
M  V30 45 H 0.1424 0.6001 -1.0198 0
M  V30 46 H -2.1488 0.4025 -0.5712 0
M  V30 47 H -1.3787 0.5263 1.0469 0
M  V30 48 H -1.5332 -2.0062 1.2574 0
M  V30 49 H -2.3421 -2.0811 -0.3407 0
M  V30 50 H -3.874 -2.2098 1.6493 0
M  V30 51 H -3.381 -0.5796 2.1679 0
M  V30 52 H -4.3585 -0.7881 -0.7195 0
M  V30 53 H -5.5621 -1.2339 0.5174 0
M  V30 54 H -3.9712 1.4055 0.5236 0
M  V30 55 H -5.2437 0.957 1.6893 0
M  V30 56 H -6.0153 0.8636 -1.2863 0
M  V30 57 H -5.6182 2.4528 -0.6152 0
M  V30 58 H -7.9973 2.1853 -0.4053 0
M  V30 59 H -7.277 2.1943 1.2167 0
M  V30 60 H -9.0511 0.5164 1.1115 0
M  V30 61 H -7.4906 -0.2834 1.3894 0
M  V30 62 H -7.3988 -0.9557 -1.0607 0
M  V30 63 H -8.8313 -1.5779 -0.1978 0
M  V30 64 H -8.7673 0.8189 -2.1307 0
M  V30 65 H -9.5489 -0.7792 -2.3725 0
M  V30 66 H -10.205 0.3496 -1.1295 0
M  V30 END ATOM
M  V30 BEGIN BOND
M  V30 1 2 1 2
M  V30 2 1 2 3
M  V30 3 1 2 4
M  V30 4 1 3 5
M  V30 5 2 4 6
M  V30 6 1 4 7
M  V30 7 1 5 8
M  V30 8 1 8 9
M  V30 9 1 9 10
M  V30 10 1 10 11
M  V30 11 1 11 12
M  V30 12 1 12 13
M  V30 13 1 13 14
M  V30 14 1 14 15
M  V30 15 1 15 16
M  V30 16 1 16 17
M  V30 17 1 17 18
M  V30 18 1 18 19
M  V30 19 1 19 20
M  V30 20 1 20 21
M  V30 21 1 21 22
M  V30 22 1 22 23
M  V30 23 1 23 24
M  V30 24 1 5 25
M  V30 25 1 5 26
M  V30 26 1 6 27
M  V30 27 1 6 28
M  V30 28 1 7 29
M  V30 29 1 7 30
M  V30 30 1 7 31
M  V30 31 1 8 32
M  V30 32 1 8 33
M  V30 33 1 9 34
M  V30 34 1 9 35
M  V30 35 1 10 36
M  V30 36 1 10 37
M  V30 37 1 11 38
M  V30 38 1 11 39
M  V30 39 1 12 40
M  V30 40 1 12 41
M  V30 41 1 13 42
M  V30 42 1 13 43
M  V30 43 1 14 44
M  V30 44 1 14 45
M  V30 45 1 15 46
M  V30 46 1 15 47
M  V30 47 1 16 48
M  V30 48 1 16 49
M  V30 49 1 17 50
M  V30 50 1 17 51
M  V30 51 1 18 52
M  V30 52 1 18 53
M  V30 53 1 19 54
M  V30 54 1 19 55
M  V30 55 1 20 56
M  V30 56 1 20 57
M  V30 57 1 21 58
M  V30 58 1 21 59
M  V30 59 1 22 60
M  V30 60 1 22 61
M  V30 61 1 23 62
M  V30 62 1 23 63
M  V30 63 1 24 64
M  V30 64 1 24 65
M  V30 65 1 24 66
M  V30 END BOND
M  V30 END CTAB
M  END
>  <Structure No>
3142

>  <LogS>
-8.52965617

>  <MMFF94 Energy>
0.093379

$$$$
Compound 3143
Actelion Java MolfileCreator 2.0

  0  0  0  0  0  0              0 V3000
M  V30 BEGIN CTAB
M  V30 COUNTS 39 42 0 0 0
M  V30 BEGIN ATOM
M  V30 1 O 2.6341 -4.0355 -0.7403 0
M  V30 2 N 2.3737 -3.2756 0.2148 0 CHG=1
M  V30 3 O 1.6312 -3.7567 1.268 0 CHG=-1
M  V30 4 C 3.1214 -2.0664 0.3794 0
M  V30 5 C 2.4928 -0.7926 0.3969 0
M  V30 6 C 4.5116 -2.1579 0.5201 0
M  V30 7 C 1.026 -0.6239 0.1973 0
M  V30 8 C 3.2834 0.3639 0.5871 0
M  V30 9 C 5.2833 -1.0143 0.7002 0
M  V30 10 O 0.2522 -1.6049 0.355 0
M  V30 11 C 0.4665 0.7151 -0.1486 0
M  V30 12 C 2.623 1.6892 0.6383 0
M  V30 13 C 4.6811 0.2421 0.7376 0
M  V30 14 C 1.2738 1.8652 0.0414 0
M  V30 15 C -0.8602 0.8654 -0.6302 0
M  V30 16 O 3.1708 2.6341 1.2675 0
M  V30 17 O 5.4858 1.3642 0.9079 0 CHG=-1
M  V30 18 C 0.7617 3.1434 -0.3045 0
M  V30 19 N -1.6774 -0.2757 -0.9389 0
M  V30 20 C -1.3613 2.1453 -0.8948 0
M  V30 21 O 1.5365 4.3058 -0.2806 0
M  V30 22 C -0.5607 3.2684 -0.7283 0
M  V30 23 C -3.04 -0.4249 -0.5012 0
M  V30 24 C -3.5364 0.2846 0.6094 0
M  V30 25 C -3.8838 -1.3292 -1.1659 0
M  V30 26 C -4.8596 0.1077 1.0255 0
M  V30 27 C -5.2064 -1.5029 -0.7463 0
M  V30 28 C -5.6948 -0.7829 0.3467 0
M  V30 29 H 4.9967 -3.126 0.501 0
M  V30 30 H 6.3564 -1.1042 0.8112 0
M  V30 31 H -1.2725 -1.0062 -1.5677 0
M  V30 32 H -2.3679 2.2686 -1.2748 0
M  V30 33 H 2.5459 4.307 -0.2384 0
M  V30 34 H -0.9575 4.2448 -0.977 0
M  V30 35 H -2.901 0.9633 1.1629 0
M  V30 36 H -3.5176 -1.8946 -2.0135 0
M  V30 37 H -5.236 0.6575 1.8787 0
M  V30 38 H -5.8524 -2.1972 -1.2682 0
M  V30 39 H -6.7184 -0.9194 0.6711 0
M  V30 END ATOM
M  V30 BEGIN BOND
M  V30 1 2 1 2
M  V30 2 1 2 3
M  V30 3 1 2 4
M  V30 4 2 4 5
M  V30 5 1 4 6
M  V30 6 1 5 7
M  V30 7 1 5 8
M  V30 8 2 6 9
M  V30 9 2 7 10
M  V30 10 1 7 11
M  V30 11 1 8 12
M  V30 12 2 8 13
M  V30 13 2 11 14
M  V30 14 1 11 15
M  V30 15 2 12 16
M  V30 16 1 13 17
M  V30 17 1 14 18
M  V30 18 1 15 19
M  V30 19 2 15 20
M  V30 20 1 18 21
M  V30 21 2 18 22
M  V30 22 1 19 23
M  V30 23 2 23 24
M  V30 24 1 23 25
M  V30 25 1 24 26
M  V30 26 2 25 27
M  V30 27 2 26 28
M  V30 28 1 9 13
M  V30 29 1 12 14
M  V30 30 1 20 22
M  V30 31 1 27 28
M  V30 32 1 6 29
M  V30 33 1 9 30
M  V30 34 1 19 31
M  V30 35 1 20 32
M  V30 36 1 21 33
M  V30 37 1 22 34
M  V30 38 1 24 35
M  V30 39 1 25 36
M  V30 40 1 26 37
M  V30 41 1 27 38
M  V30 42 1 28 39
M  V30 END BOND
M  V30 END CTAB
M  END
>  <Structure No>
3143

>  <LogS>
-8.646142991

>  <MMFF94 Energy>
95.78

$$$$
Compound 3144
Actelion Java MolfileCreator 2.0

  0  0  0  0  0  0              0 V3000
M  V30 BEGIN CTAB
M  V30 COUNTS 16 16 0 0 0
M  V30 BEGIN ATOM
M  V30 1 S 2.6161 -0.1686 -0.0843 0
M  V30 2 O 3.1447 0.2943 -1.4128 0
M  V30 3 O 3.0144 -1.6031 0.1202 0
M  V30 4 O 3.2736 0.775 1.1394 0 CHG=-1
M  V30 5 C 0.8619 -0.0252 -0.0559 0
M  V30 6 C 0.0951 -0.9016 0.7249 0
M  V30 7 C 0.2241 0.9804 -0.796 0
M  V30 8 C -1.2977 -0.7806 0.7554 0
M  V30 9 C -1.1688 1.1005 -0.7647 0
M  V30 10 C -1.9336 0.2213 0.009 0
M  V30 11 O -3.3203 0.3518 0.0309 0
M  V30 12 H 0.5736 -1.6758 1.3108 0
M  V30 13 H 0.8033 1.6719 -1.3947 0
M  V30 14 H -1.8811 -1.4635 1.3599 0
M  V30 15 H -1.654 1.8784 -1.3406 0
M  V30 16 H -3.9018 -0.2688 0.5817 0
M  V30 END ATOM
M  V30 BEGIN BOND
M  V30 1 2 1 2
M  V30 2 2 1 3
M  V30 3 1 1 4
M  V30 4 1 1 5
M  V30 5 2 5 6
M  V30 6 1 5 7
M  V30 7 1 6 8
M  V30 8 2 7 9
M  V30 9 2 8 10
M  V30 10 1 10 11
M  V30 11 1 9 10
M  V30 12 1 6 12
M  V30 13 1 7 13
M  V30 14 1 8 14
M  V30 15 1 9 15
M  V30 16 1 11 16
M  V30 END BOND
M  V30 END CTAB
M  END
>  <Structure No>
3144

>  <LogS>
-8.363189313

>  <MMFF94 Energy>
35.546

$$$$
Compound 3145
Actelion Java MolfileCreator 2.0

  0  0  0  0  0  0              0 V3000
M  V30 BEGIN CTAB
M  V30 COUNTS 98 97 0 0 0
M  V30 BEGIN ATOM
M  V30 1 O 0.5472 0.3908 -0.7818 0
M  V30 2 C 1.0065 -0.6621 -0.261 0
M  V30 3 O 0.2572 -1.3893 0.6706 0
M  V30 4 C 2.3873 -1.1276 -0.6108 0
M  V30 5 C -1.0343 -0.9972 1.132 0
M  V30 6 C 3.4445 -0.5098 0.3158 0
M  V30 7 C -2.0951 -1.2183 0.0448 0
M  V30 8 C 3.7167 0.9682 -0.0208 0
M  V30 9 C -3.5229 -0.9161 0.5387 0
M  V30 10 C 4.706 1.6332 0.9547 0
M  V30 11 C -4.1162 -1.965 1.5051 0
M  V30 12 C 6.1116 1.0025 0.9938 0
M  V30 13 C -4.2677 -3.3912 0.9333 0
M  V30 14 C 6.8253 0.9072 -0.3688 0
M  V30 15 C -5.2375 -3.5027 -0.258 0
M  V30 16 C 7.0289 2.2515 -1.0905 0
M  V30 17 C -6.712 -3.4568 0.1813 0
M  V30 18 C 7.9386 3.2505 -0.3514 0
M  V30 19 C -7.6731 -3.3264 -1.0145 0
M  V30 20 C 9.4147 2.8046 -0.2692 0
M  V30 21 C -7.817 -1.8793 -1.5264 0
M  V30 22 C 9.7992 2.2969 1.1322 0
M  V30 23 C -8.727 -1.0277 -0.6267 0
M  V30 24 C 11.2915 1.9068 1.2238 0
M  V30 25 C -8.8938 0.3895 -1.1985 0
M  V30 26 C 11.5383 0.3891 1.2091 0
M  V30 27 C -9.6764 1.3169 -0.2546 0
M  V30 28 C 11.1836 -0.2571 -0.1356 0
M  V30 29 C -11.1902 1.0508 -0.2897 0
M  V30 30 C 11.5787 -1.7371 -0.1536 0
M  V30 31 C -11.9588 1.8532 0.7751 0
M  V30 32 C 11.1958 -2.393 -1.477 0
M  V30 33 C -11.8642 3.3824 0.6304 0
M  V30 34 C -12.4006 3.892 -0.7066 0
M  V30 35 H 2.4221 -2.2339 -0.5023 0
M  V30 36 H 2.6137 -0.8925 -1.6744 0
M  V30 37 H -1.0136 0.0692 1.4475 0
M  V30 38 H -1.2732 -1.6139 2.0215 0
M  V30 39 H 3.1226 -0.6076 1.3781 0
M  V30 40 H 4.383 -1.0924 0.1876 0
M  V30 41 H -1.8761 -0.5347 -0.8037 0
M  V30 42 H -2.0189 -2.2512 -0.3551 0
M  V30 43 H 4.0861 1.0584 -1.0647 0
M  V30 44 H 2.765 1.537 0.0381 0
M  V30 45 H -4.1902 -0.7904 -0.3365 0
M  V30 46 H -3.5214 0.0682 1.0557 0
M  V30 47 H 4.7949 2.7106 0.6973 0
M  V30 48 H 4.278 1.5912 1.9796 0
M  V30 49 H -5.1066 -1.599 1.8465 0
M  V30 50 H -3.4856 -2.0208 2.4165 0
M  V30 51 H 6.0405 -0.0171 1.4268 0
M  V30 52 H 6.7368 1.5855 1.7014 0
M  V30 53 H -3.275 -3.7871 0.635 0
M  V30 54 H -4.6208 -4.0589 1.75 0
M  V30 55 H 6.2549 0.2285 -1.0357 0
M  V30 56 H 7.8074 0.4172 -0.2221 0
M  V30 57 H -5.0196 -2.7239 -1.0131 0
M  V30 58 H -5.0596 -4.4778 -0.7617 0
M  V30 59 H 7.4592 2.0488 -2.0956 0
M  V30 60 H 6.0448 2.7288 -1.2731 0
M  V30 61 H -6.9455 -4.4045 0.7169 0
M  V30 62 H -6.8861 -2.6357 0.903 0
M  V30 63 H 7.9033 4.2011 -0.9253 0
M  V30 64 H 7.5247 3.4904 0.6508 0
M  V30 65 H -8.6734 -3.7152 -0.7237 0
M  V30 66 H -7.3128 -3.97 -1.8469 0
M  V30 67 H 9.638 2.0344 -1.0365 0
M  V30 68 H 10.0557 3.6832 -0.5037 0
M  V30 69 H -8.2642 -1.9163 -2.5444 0
M  V30 70 H -6.8174 -1.4 -1.6155 0
M  V30 71 H 9.606 3.1158 1.8597 0
M  V30 72 H 9.1556 1.4437 1.4285 0
M  V30 73 H -9.7206 -1.5202 -0.5497 0
M  V30 74 H -8.2899 -0.9541 0.3917 0
M  V30 75 H 11.8897 2.3933 0.4217 0
M  V30 76 H 11.6908 2.297 2.1855 0
M  V30 77 H -9.3976 0.3435 -2.1899 0
M  V30 78 H -7.8853 0.8313 -1.3551 0
M  V30 79 H 12.6164 0.2156 1.4223 0
M  V30 80 H 10.9527 -0.0911 2.0248 0
M  V30 81 H -9.2918 1.2118 0.7842 0
M  V30 82 H -9.4875 2.3627 -0.5793 0
M  V30 83 H 10.0914 -0.1799 -0.3035 0
M  V30 84 H 11.7124 0.2758 -0.9557 0
M  V30 85 H -11.5914 1.2737 -1.3011 0
M  V30 86 H -11.3819 -0.0237 -0.092 0
M  V30 87 H 12.6772 -1.8335 -0.0084 0
M  V30 88 H 11.0635 -2.2728 0.6742 0
M  V30 89 H -11.5798 1.5708 1.7803 0
M  V30 90 H -13.0288 1.5562 0.7386 0
M  V30 91 H 11.6968 -1.8794 -2.3259 0
M  V30 92 H 11.5116 -3.4576 -1.4692 0
M  V30 93 H 10.095 -2.352 -1.6227 0
M  V30 94 H -10.8172 3.7259 0.7686 0
M  V30 95 H -12.4648 3.8425 1.4456 0
M  V30 96 H -11.6947 3.6463 -1.5283 0
M  V30 97 H -13.3961 3.4486 -0.923 0
M  V30 98 H -12.5098 4.9972 -0.6623 0
M  V30 END ATOM
M  V30 BEGIN BOND
M  V30 1 2 1 2
M  V30 2 1 2 3
M  V30 3 1 2 4
M  V30 4 1 3 5
M  V30 5 1 4 6
M  V30 6 1 5 7
M  V30 7 1 6 8
M  V30 8 1 7 9
M  V30 9 1 8 10
M  V30 10 1 9 11
M  V30 11 1 10 12
M  V30 12 1 11 13
M  V30 13 1 12 14
M  V30 14 1 13 15
M  V30 15 1 14 16
M  V30 16 1 15 17
M  V30 17 1 16 18
M  V30 18 1 17 19
M  V30 19 1 18 20
M  V30 20 1 19 21
M  V30 21 1 20 22
M  V30 22 1 21 23
M  V30 23 1 22 24
M  V30 24 1 23 25
M  V30 25 1 24 26
M  V30 26 1 25 27
M  V30 27 1 26 28
M  V30 28 1 27 29
M  V30 29 1 28 30
M  V30 30 1 29 31
M  V30 31 1 30 32
M  V30 32 1 31 33
M  V30 33 1 33 34
M  V30 34 1 4 35
M  V30 35 1 4 36
M  V30 36 1 5 37
M  V30 37 1 5 38
M  V30 38 1 6 39
M  V30 39 1 6 40
M  V30 40 1 7 41
M  V30 41 1 7 42
M  V30 42 1 8 43
M  V30 43 1 8 44
M  V30 44 1 9 45
M  V30 45 1 9 46
M  V30 46 1 10 47
M  V30 47 1 10 48
M  V30 48 1 11 49
M  V30 49 1 11 50
M  V30 50 1 12 51
M  V30 51 1 12 52
M  V30 52 1 13 53
M  V30 53 1 13 54
M  V30 54 1 14 55
M  V30 55 1 14 56
M  V30 56 1 15 57
M  V30 57 1 15 58
M  V30 58 1 16 59
M  V30 59 1 16 60
M  V30 60 1 17 61
M  V30 61 1 17 62
M  V30 62 1 18 63
M  V30 63 1 18 64
M  V30 64 1 19 65
M  V30 65 1 19 66
M  V30 66 1 20 67
M  V30 67 1 20 68
M  V30 68 1 21 69
M  V30 69 1 21 70
M  V30 70 1 22 71
M  V30 71 1 22 72
M  V30 72 1 23 73
M  V30 73 1 23 74
M  V30 74 1 24 75
M  V30 75 1 24 76
M  V30 76 1 25 77
M  V30 77 1 25 78
M  V30 78 1 26 79
M  V30 79 1 26 80
M  V30 80 1 27 81
M  V30 81 1 27 82
M  V30 82 1 28 83
M  V30 83 1 28 84
M  V30 84 1 29 85
M  V30 85 1 29 86
M  V30 86 1 30 87
M  V30 87 1 30 88
M  V30 88 1 31 89
M  V30 89 1 31 90
M  V30 90 1 32 91
M  V30 91 1 32 92
M  V30 92 1 32 93
M  V30 93 1 33 94
M  V30 94 1 33 95
M  V30 95 1 34 96
M  V30 96 1 34 97
M  V30 97 1 34 98
M  V30 END BOND
M  V30 END CTAB
M  END
>  <Structure No>
3145

>  <LogS>
-8.754650095

>  <MMFF94 Energy>
-15.363

$$$$
Compound 3146
Actelion Java MolfileCreator 2.0

  0  0  0  0  0  0              0 V3000
M  V30 BEGIN CTAB
M  V30 COUNTS 88 91 0 0 0
M  V30 BEGIN ATOM
M  V30 1 O 1.1195 -1.8397 3.4415 0
M  V30 2 C 1.9307 -1.0469 2.8951 0
M  V30 3 O 3.1006 -0.6157 3.512 0
M  V30 4 C 1.7435 -0.4482 1.5295 0 CFG=2
M  V30 5 C 3.7113 0.2501 2.6243 0
M  V30 6 C 1.7136 -1.5199 0.4517 0
M  V30 7 C 2.9778 0.3998 1.4708 0
M  V30 8 C 4.9236 0.9026 2.8028 0
M  V30 9 C 0.5099 -1.8256 -0.2105 0
M  V30 10 C 2.8768 -2.2544 0.1454 0
M  V30 11 C 3.4278 1.2073 0.4282 0
M  V30 12 C 5.4052 1.7186 1.7667 0
M  V30 13 O -0.6525 -1.1082 0.1139 0
M  V30 14 C 0.5049 -2.8085 -1.2116 0
M  V30 15 C 2.8808 -3.2504 -0.8564 0
M  V30 16 C 4.6689 1.8855 0.5545 0
M  V30 17 C -1.965 -1.5953 0.0359 0
M  V30 18 C 1.6683 -3.5081 -1.5275 0
M  V30 19 C 4.1477 -4.0471 -1.236 0
M  V30 20 C 5.1823 2.7425 -0.6195 0
M  V30 21 O -2.1789 -2.8354 -0.0496 0
M  V30 22 C -3.1039 -0.6463 0.1083 0
M  V30 23 C 4.4692 -3.8273 -2.7311 0
M  V30 24 C 3.9037 -5.5496 -0.9806 0
M  V30 25 C 5.3978 -3.6278 -0.4241 0
M  V30 26 C 5.3608 1.8464 -1.8643 0
M  V30 27 C 4.1618 3.8586 -0.9312 0
M  V30 28 C 6.543 3.4194 -0.3284 0
M  V30 29 C -2.8645 0.7255 0.1682 0
M  V30 30 C -4.4192 -1.1121 0.1088 0
M  V30 31 C -3.9162 1.6648 0.223 0
M  V30 32 C -5.5292 -0.2376 0.1763 0
M  V30 33 C -5.2571 1.1726 0.2275 0
M  V30 34 C -3.6136 3.1944 0.2727 0
M  V30 35 C -6.9795 -0.8164 0.1461 0
M  V30 36 O -6.2848 2.1181 0.2856 0
M  V30 37 C -2.0955 3.5194 0.2509 0
M  V30 38 C -4.1759 3.8096 1.5763 0
M  V30 39 C -4.2316 3.9018 -0.9571 0
M  V30 40 C -7.0249 -2.3698 0.2144 0
M  V30 41 C -7.6472 -0.4354 -1.1988 0
M  V30 42 C -7.8139 -0.2958 1.359 0
M  V30 43 H 0.8487 0.21 1.5176 0
M  V30 44 H 5.492 0.7716 3.7139 0
M  V30 45 H 3.7741 -2.027 0.6986 0
M  V30 46 H 2.8278 1.2832 -0.4682 0
M  V30 47 H 6.3556 2.2046 1.9288 0
M  V30 48 H -0.3937 -3.0195 -1.7737 0
M  V30 49 H 1.6133 -4.2573 -2.3058 0
M  V30 50 H 3.6511 -4.1947 -3.3855 0
M  V30 51 H 4.6221 -2.7448 -2.9379 0
M  V30 52 H 5.3954 -4.3725 -3.0185 0
M  V30 53 H 4.8186 -6.1411 -1.204 0
M  V30 54 H 3.6291 -5.7202 0.0832 0
M  V30 55 H 3.0852 -5.9437 -1.6195 0
M  V30 56 H 6.2869 -4.22 -0.7334 0
M  V30 57 H 5.2436 -3.8052 0.6627 0
M  V30 58 H 5.6386 -2.5553 -0.5915 0
M  V30 59 H 6.0639 1.0138 -1.6432 0
M  V30 60 H 4.3954 1.407 -2.1938 0
M  V30 61 H 5.7689 2.4318 -2.717 0
M  V30 62 H 4.0001 4.4964 -0.0348 0
M  V30 63 H 3.1801 3.4422 -1.2438 0
M  V30 64 H 4.5258 4.5049 -1.7586 0
M  V30 65 H 6.8716 4.0336 -1.1943 0
M  V30 66 H 7.3321 2.6587 -0.1411 0
M  V30 67 H 6.4689 4.0962 0.5503 0
M  V30 68 H -1.8349 1.0421 0.164 0
M  V30 69 H -4.5516 -2.1791 0.0569 0
M  V30 70 H -7.2718 1.934 0.309 0
M  V30 71 H -1.6206 3.1435 -0.6814 0
M  V30 72 H -1.9211 4.6173 0.2844 0
M  V30 73 H -1.5817 3.0822 1.1349 0
M  V30 74 H -3.7971 3.2505 2.4599 0
M  V30 75 H -5.2822 3.8072 1.6094 0
M  V30 76 H -3.8641 4.872 1.6767 0
M  V30 77 H -3.9159 4.9666 -1.0008 0
M  V30 78 H -3.8992 3.4037 -1.8936 0
M  V30 79 H -5.3381 3.9075 -0.938 0
M  V30 80 H -6.5415 -2.8348 -0.6717 0
M  V30 81 H -8.0761 -2.7332 0.224 0
M  V30 82 H -6.5356 -2.7393 1.1418 0
M  V30 83 H -7.0854 -0.884 -2.0472 0
M  V30 84 H -7.6782 0.6552 -1.3768 0
M  V30 85 H -8.6914 -0.8129 -1.2389 0
M  V30 86 H -8.296 -1.1153 1.9353 0
M  V30 87 H -8.6469 0.3654 1.0368 0
M  V30 88 H -7.1807 0.2556 2.088 0
M  V30 END ATOM
M  V30 BEGIN BOND
M  V30 1 2 1 2
M  V30 2 1 2 3
M  V30 3 1 2 4
M  V30 4 1 3 5
M  V30 5 1 4 6
M  V30 6 1 4 7
M  V30 7 1 5 8
M  V30 8 2 6 9
M  V30 9 1 6 10
M  V30 10 1 7 11
M  V30 11 2 8 12
M  V30 12 1 9 13
M  V30 13 1 9 14
M  V30 14 2 10 15
M  V30 15 2 11 16
M  V30 16 1 13 17
M  V30 17 2 14 18
M  V30 18 1 15 19
M  V30 19 1 16 20
M  V30 20 2 17 21
M  V30 21 1 17 22
M  V30 22 1 19 23
M  V30 23 1 19 24
M  V30 24 1 19 25
M  V30 25 1 20 26
M  V30 26 1 20 27
M  V30 27 1 20 28
M  V30 28 2 22 29
M  V30 29 1 22 30
M  V30 30 1 29 31
M  V30 31 2 30 32
M  V30 32 2 31 33
M  V30 33 1 31 34
M  V30 34 1 32 35
M  V30 35 1 33 36
M  V30 36 1 34 37
M  V30 37 1 34 38
M  V30 38 1 34 39
M  V30 39 1 35 40
M  V30 40 1 35 41
M  V30 41 1 35 42
M  V30 42 2 5 7
M  V30 43 1 12 16
M  V30 44 1 15 18
M  V30 45 1 32 33
M  V30 46 1 4 43
M  V30 47 1 8 44
M  V30 48 1 10 45
M  V30 49 1 11 46
M  V30 50 1 12 47
M  V30 51 1 14 48
M  V30 52 1 18 49
M  V30 53 1 23 50
M  V30 54 1 23 51
M  V30 55 1 23 52
M  V30 56 1 24 53
M  V30 57 1 24 54
M  V30 58 1 24 55
M  V30 59 1 25 56
M  V30 60 1 25 57
M  V30 61 1 25 58
M  V30 62 1 26 59
M  V30 63 1 26 60
M  V30 64 1 26 61
M  V30 65 1 27 62
M  V30 66 1 27 63
M  V30 67 1 27 64
M  V30 68 1 28 65
M  V30 69 1 28 66
M  V30 70 1 28 67
M  V30 71 1 29 68
M  V30 72 1 30 69
M  V30 73 1 36 70
M  V30 74 1 37 71
M  V30 75 1 37 72
M  V30 76 1 37 73
M  V30 77 1 38 74
M  V30 78 1 38 75
M  V30 79 1 38 76
M  V30 80 1 39 77
M  V30 81 1 39 78
M  V30 82 1 39 79
M  V30 83 1 40 80
M  V30 84 1 40 81
M  V30 85 1 40 82
M  V30 86 1 41 83
M  V30 87 1 41 84
M  V30 88 1 41 85
M  V30 89 1 42 86
M  V30 90 1 42 87
M  V30 91 1 42 88
M  V30 END BOND
M  V30 BEGIN COLLECTION
M  V30 MDLV30/STEABS ATOMS=(1 4)
M  V30 END COLLECTION
M  V30 END CTAB
M  END
>  <Structure No>
3146

>  <LogS>
-8.848512617

>  <MMFF94 Energy>
181.89

$$$$
Compound 3147
Actelion Java MolfileCreator 2.0

  0  0  0  0  0  0              0 V3000
M  V30 BEGIN CTAB
M  V30 COUNTS 25 24 0 0 0
M  V30 BEGIN ATOM
M  V30 1 O -1.6443 2.8986 -0.6261 0
M  V30 2 C -1.3848 1.7586 -1.0937 0
M  V30 3 O -1.4509 1.5503 -2.4664 0 CHG=-1
M  V30 4 C -1.0055 0.6297 -0.1702 0 CFG=2
M  V30 5 C 0.4195 0.1426 -0.5209 0
M  V30 6 C -2.0447 -0.5114 -0.264 0
M  V30 7 C 1.0661 -0.674 0.6133 0
M  V30 8 C -3.4333 -0.0746 0.2065 0
M  V30 9 C 2.4757 -1.1693 0.2525 0
M  V30 10 C 3.5155 -0.0488 0.2442 0
M  V30 11 H -0.9966 1.0181 0.8736 0
M  V30 12 H 0.3932 -0.4627 -1.4539 0
M  V30 13 H 1.0581 1.0314 -0.7146 0
M  V30 14 H -1.7342 -1.3637 0.3737 0
M  V30 15 H -2.1142 -0.8828 -1.3099 0
M  V30 16 H 0.4464 -1.5686 0.8272 0
M  V30 17 H 1.1091 -0.0655 1.5432 0
M  V30 18 H -3.3852 0.3084 1.248 0
M  V30 19 H -3.8431 0.7151 -0.4573 0
M  V30 20 H -4.1236 -0.9439 0.1808 0
M  V30 21 H 2.7861 -1.9227 1.0087 0
M  V30 22 H 2.463 -1.6743 -0.7375 0
M  V30 23 H 3.3303 0.6559 -0.592 0
M  V30 24 H 3.4993 0.505 1.2069 0
M  V30 25 H 4.5266 -0.4863 0.1068 0
M  V30 END ATOM
M  V30 BEGIN BOND
M  V30 1 2 1 2
M  V30 2 1 2 3
M  V30 3 1 2 4
M  V30 4 1 4 5
M  V30 5 1 4 6
M  V30 6 1 5 7
M  V30 7 1 6 8
M  V30 8 1 7 9
M  V30 9 1 9 10
M  V30 10 1 4 11
M  V30 11 1 5 12
M  V30 12 1 5 13
M  V30 13 1 6 14
M  V30 14 1 6 15
M  V30 15 1 7 16
M  V30 16 1 7 17
M  V30 17 1 8 18
M  V30 18 1 8 19
M  V30 19 1 8 20
M  V30 20 1 9 21
M  V30 21 1 9 22
M  V30 22 1 10 23
M  V30 23 1 10 24
M  V30 24 1 10 25
M  V30 END BOND
M  V30 BEGIN COLLECTION
M  V30 MDLV30/STEABS ATOMS=(1 4)
M  V30 END COLLECTION
M  V30 END CTAB
M  END
>  <Structure No>
3147

>  <LogS>
-8.702012126

>  <MMFF94 Energy>
7.1249

$$$$
Compound 3148
Actelion Java MolfileCreator 2.0

  0  0  0  0  0  0              0 V3000
M  V30 BEGIN CTAB
M  V30 COUNTS 46 48 0 0 0
M  V30 BEGIN ATOM
M  V30 1 S 4.8539 -1.2323 -2.0546 0
M  V30 2 O 5.573 -2.5419 -2.2099 0
M  V30 3 O 4.9661 -0.4599 -3.3384 0
M  V30 4 O 3.2025 -1.53 -1.7173 0
M  V30 5 C 5.5762 -0.3338 -0.7247 0
M  V30 6 C 2.2386 -0.5352 -1.4958 0
M  V30 7 C 5.4087 -0.7897 0.5898 0
M  V30 8 C 6.3005 0.8436 -0.9637 0
M  V30 9 C 0.9428 -0.9371 -1.1445 0
M  V30 10 C 2.5221 0.8392 -1.616 0
M  V30 11 C 5.958 -0.0728 1.6577 0
M  V30 12 C 6.8439 1.561 0.108 0
M  V30 13 C -0.0667 0.0099 -0.9097 0
M  V30 14 C 1.5237 1.7865 -1.3792 0
M  V30 15 C 6.6726 1.1036 1.4174 0
M  V30 16 N -1.3894 -0.4305 -0.5659 0
M  V30 17 C 0.2356 1.3776 -1.0239 0
M  V30 18 N -2.4347 0.4952 -0.4016 0
M  V30 19 C -3.6168 0.2387 0.0879 0
M  V30 20 C -4.6622 1.26 -0.0839 0
M  V30 21 C -4.0104 -1.0643 0.7125 0
M  V30 22 O -4.3382 2.4609 -0.2987 0
M  V30 23 N -6.044 0.8619 -0.0636 0
M  V30 24 C -5.3106 -1.4457 0.6785 0
M  V30 25 C -3.0059 -1.8771 1.5023 0
M  V30 26 C -6.3579 -0.5205 0.1833 0
M  V30 27 C -7.1231 1.8137 -0.3486 0
M  V30 28 C -5.7273 -2.7383 1.1798 0
M  V30 29 O -7.5355 -0.9413 0.0102 0
M  V30 30 N -6.0616 -3.7708 1.5789 0
M  V30 31 H 4.8502 -1.697 0.7875 0
M  V30 32 H 6.4383 1.2109 -1.9717 0
M  V30 33 H 0.7228 -1.9939 -1.0538 0
M  V30 34 H 3.5025 1.1901 -1.8973 0
M  V30 35 H 5.8268 -0.4275 2.6723 0
M  V30 36 H 7.3964 2.4718 -0.0756 0
M  V30 37 H 1.7463 2.8405 -1.4763 0
M  V30 38 H 7.0963 1.6589 2.2431 0
M  V30 39 H -1.595 -1.45 -0.6165 0
M  V30 40 H -0.521 2.1314 -0.8488 0
M  V30 41 H -3.4392 -2.1832 2.4767 0
M  V30 42 H -2.7213 -2.7894 0.938 0
M  V30 43 H -2.1018 -1.2825 1.7435 0
M  V30 44 H -7.6513 1.5137 -1.2798 0
M  V30 45 H -7.846 1.8234 0.4946 0
M  V30 46 H -6.7395 2.8469 -0.4829 0
M  V30 END ATOM
M  V30 BEGIN BOND
M  V30 1 2 1 2
M  V30 2 2 1 3
M  V30 3 1 1 4
M  V30 4 1 1 5
M  V30 5 1 4 6
M  V30 6 2 5 7
M  V30 7 1 5 8
M  V30 8 2 6 9
M  V30 9 1 6 10
M  V30 10 1 7 11
M  V30 11 2 8 12
M  V30 12 1 9 13
M  V30 13 2 10 14
M  V30 14 2 11 15
M  V30 15 1 13 16
M  V30 16 2 13 17
M  V30 17 1 16 18
M  V30 18 2 18 19
M  V30 19 1 19 20
M  V30 20 1 19 21
M  V30 21 2 20 22
M  V30 22 1 20 23
M  V30 23 2 21 24
M  V30 24 1 21 25
M  V30 25 1 23 26
M  V30 26 1 23 27
M  V30 27 1 24 28
M  V30 28 2 26 29
M  V30 29 3 28 30
M  V30 30 1 12 15
M  V30 31 1 14 17
M  V30 32 1 24 26
M  V30 33 1 7 31
M  V30 34 1 8 32
M  V30 35 1 9 33
M  V30 36 1 10 34
M  V30 37 1 11 35
M  V30 38 1 12 36
M  V30 39 1 14 37
M  V30 40 1 15 38
M  V30 41 1 16 39
M  V30 42 1 17 40
M  V30 43 1 25 41
M  V30 44 1 25 42
M  V30 45 1 25 43
M  V30 46 1 27 44
M  V30 47 1 27 45
M  V30 48 1 27 46
M  V30 END BOND
M  V30 END CTAB
M  END
>  <Structure No>
3148

>  <LogS>
-8.782716219

>  <MMFF94 Energy>
85.917

$$$$
Compound 3149
Actelion Java MolfileCreator 2.0

  0  0  0  0  0  0              0 V3000
M  V30 BEGIN CTAB
M  V30 COUNTS 45 44 0 0 0
M  V30 BEGIN ATOM
M  V30 1 O 0 0 0 0
M  V30 2 C 0 0 0 0
M  V30 3 O 0 0 0 0
M  V30 4 C 0 0 0 0
M  V30 5 C 0 0 0 0
M  V30 6 C 0 0 0 0
M  V30 7 C 0 0 0 0
M  V30 8 C 0 0 0 0
M  V30 9 C 0 0 0 0
M  V30 10 C 0 0 0 0
M  V30 11 C 0 0 0 0
M  V30 12 C 0 0 0 0
M  V30 13 C 0 0 0 0
M  V30 14 C 0 0 0 0
M  V30 15 O 0 0 0 0
M  V30 16 O 0 0 0 0
M  V30 17 O 0 0 0 0
M  V30 18 C 0 0 0 0
M  V30 19 C 0 0 0 0
M  V30 20 C 0 0 0 0
M  V30 21 C 0 0 0 0
M  V30 22 O 0 0 0 0
M  V30 23 C 0 0 0 0
M  V30 24 O 0 0 0 0
M  V30 25 C 0 0 0 0
M  V30 26 O 0 0 0 0
M  V30 27 C 0 0 0 0
M  V30 28 C 0 0 0 0
M  V30 29 C 0 0 0 0
M  V30 30 C 0 0 0 0
M  V30 31 C 0 0 0 0
M  V30 32 C 0 0 0 0
M  V30 33 C 0 0 0 0
M  V30 34 C 0 0 0 0
M  V30 35 C 0 0 0 0
M  V30 36 C 0 0 0 0
M  V30 37 C 0 0 0 0
M  V30 38 C 0 0 0 0
M  V30 39 C 0 0 0 0
M  V30 40 C 0 0 0 0
M  V30 41 C 0 0 0 0
M  V30 42 C 0 0 0 0
M  V30 43 C 0 0 0 0
M  V30 44 C 0 0 0 0
M  V30 45 C 0 0 0 0
M  V30 END ATOM
M  V30 BEGIN BOND
M  V30 1 2 1 2
M  V30 2 1 2 3
M  V30 3 1 2 4
M  V30 4 1 3 5
M  V30 5 1 4 6
M  V30 6 1 4 7
M  V30 7 1 5 8
M  V30 8 1 6 9
M  V30 9 1 7 10
M  V30 10 1 8 11
M  V30 11 1 8 12
M  V30 12 1 8 13
M  V30 13 1 9 14
M  V30 14 1 11 15
M  V30 15 1 12 16
M  V30 16 1 13 17
M  V30 17 1 14 18
M  V30 18 1 15 19
M  V30 19 1 16 20
M  V30 20 1 17 21
M  V30 21 2 19 22
M  V30 22 1 19 23
M  V30 23 2 20 24
M  V30 24 1 20 25
M  V30 25 2 21 26
M  V30 26 1 21 27
M  V30 27 1 23 28
M  V30 28 1 23 29
M  V30 29 1 25 30
M  V30 30 1 25 31
M  V30 31 1 27 32
M  V30 32 1 27 33
M  V30 33 1 28 34
M  V30 34 1 29 35
M  V30 35 1 30 36
M  V30 36 1 31 37
M  V30 37 1 32 38
M  V30 38 1 33 39
M  V30 39 1 34 40
M  V30 40 1 36 41
M  V30 41 1 38 42
M  V30 42 1 40 43
M  V30 43 1 41 44
M  V30 44 1 42 45
M  V30 END BOND
M  V30 END CTAB
M  END
>  <Structure No>
3149

>  <LogS>
-9.204759418

>  <MMFF94 Energy>
-29.814

$$$$
Compound 3150
Actelion Java MolfileCreator 2.0

  0  0  0  0  0  0              0 V3000
M  V30 BEGIN CTAB
M  V30 COUNTS 162 163 0 0 0
M  V30 BEGIN ATOM
M  V30 1 O -5.9895 -0.8651 -2.3609 0
M  V30 2 C -5.7255 -0.2453 -1.295 0
M  V30 3 N -4.879 -0.7742 -0.2908 0
M  V30 4 C -6.2317 1.1323 -0.9702 0 CFG=2
M  V30 5 C -4.7042 0.2553 0.6634 0
M  V30 6 C -4.426 -2.1615 -0.185 0
M  V30 7 C -5.4236 1.5117 0.303 0
M  V30 8 C -7.7519 1.1203 -0.6878 0
M  V30 9 O -4.0072 0.1197 1.7046 0
M  V30 10 C -3.1471 -2.3906 -1.0105 0
M  V30 11 C -8.5986 1.0728 -1.9736 0
M  V30 12 N -1.9276 -1.9431 -0.3126 0 CHG=1
M  V30 13 C -10.0477 0.628 -1.7081 0
M  V30 14 C -1.5832 -2.8076 0.8426 0
M  V30 15 C -10.8387 1.6362 -0.8618 0
M  V30 16 C -0.1387 -3.3329 0.7776 0
M  V30 17 C -12.2725 1.1451 -0.6201 0
M  V30 18 N 0.8435 -2.2373 0.7656 0
M  V30 19 C -13.0501 2.1244 0.2727 0
M  V30 20 C 1.1168 -1.7453 2.1249 0
M  V30 21 C -14.4252 1.5834 0.7084 0
M  V30 22 C 2.2515 -0.7084 2.1186 0
M  V30 23 C -15.3965 1.2532 -0.4392 0
M  V30 24 N 1.9243 0.4485 1.2661 0 CHG=1
M  V30 25 C -15.7519 2.4774 -1.2967 0
M  V30 26 C 2.9034 1.5462 1.4063 0
M  V30 27 C -16.7434 2.146 -2.4261 0
M  V30 28 C 4.1099 1.4145 0.4581 0
M  V30 29 C -18.1781 1.8552 -1.9321 0
M  V30 30 N 5.0087 0.332 0.8613 0
M  V30 31 C -18.5158 0.3548 -1.9666 0
M  V30 32 C 5.3272 -0.8298 0.1161 0
M  V30 33 C 5.8109 0.2853 2.0303 0
M  V30 34 C -19.9938 0.0635 -1.6449 0
M  V30 35 O 4.7857 -1.1126 -0.9871 0
M  V30 36 C 6.3353 -1.7035 0.8007 0 CFG=2
M  V30 37 O 5.8032 1.1858 2.9081 0
M  V30 38 C 6.642 -0.9516 2.1233 0
M  V30 39 C -20.4766 0.5461 -0.2608 0
M  V30 40 C 7.5901 -1.9692 -0.06 0
M  V30 41 C -19.6317 0.06 0.9302 0
M  V30 42 C 8.2524 -0.6947 -0.6251 0
M  V30 43 C -19.6016 -1.4718 1.0539 0
M  V30 44 C 9.5389 -0.9973 -1.4104 0
M  V30 45 C -18.9025 -1.9411 2.3382 0
M  V30 46 C 10.7242 -1.3373 -0.4897 0
M  V30 47 C -17.3938 -1.6872 2.3122 0
M  V30 48 C 12.0267 -1.5816 -1.2693 0
M  V30 49 C 12.653 -0.2842 -1.8017 0
M  V30 50 C 14.0325 -0.5593 -2.4194 0
M  V30 51 C 14.6867 0.6995 -3.02 0
M  V30 52 C 14.9547 1.8384 -2.0175 0
M  V30 53 C 15.7831 1.3913 -0.8032 0
M  V30 54 C 16.2512 2.5991 0.0251 0
M  V30 55 C 16.884 2.1815 1.3697 0
M  V30 56 C 18.4208 2.1523 1.3629 0
M  V30 57 C 18.9967 1.0758 0.4295 0
M  V30 58 C 20.5178 0.8926 0.5857 0
M  V30 59 C 20.9809 0.3464 1.9529 0
M  V30 60 C 20.3186 -0.9718 2.3901 0
M  V30 61 C 20.5871 -2.1247 1.4219 0
M  V30 62 H -5.9903 1.8362 -1.7979 0
M  V30 63 H -5.2246 -2.8307 -0.5713 0
M  V30 64 H -4.2726 -2.4308 0.8809 0
M  V30 65 H -4.6841 2.3075 0.0697 0
M  V30 66 H -6.0674 1.8372 1.1485 0
M  V30 67 H -7.9976 0.2572 -0.028 0
M  V30 68 H -8.0196 2.0497 -0.1405 0
M  V30 69 H -3.2387 -1.8508 -1.9796 0
M  V30 70 H -3.0606 -3.4721 -1.2645 0
M  V30 71 H -8.595 2.073 -2.4607 0
M  V30 72 H -8.1593 0.3534 -2.6942 0
M  V30 73 H -1.1511 -1.9353 -1.016 0
M  V30 74 H -2.0515 -0.9548 0.0107 0
M  V30 75 H -10.5593 0.505 -2.6883 0
M  V30 76 H -10.0415 -0.3653 -1.2072 0
M  V30 77 H -2.2451 -3.702 0.9015 0
M  V30 78 H -1.7398 -2.2518 1.7918 0
M  V30 79 H -10.3376 1.7734 0.1194 0
M  V30 80 H -10.8673 2.6162 -1.3866 0
M  V30 81 H 0.0442 -4.0328 1.6251 0
M  V30 82 H -0.03 -3.929 -0.1554 0
M  V30 83 H -12.2421 0.1465 -0.13 0
M  V30 84 H -12.7869 1.0461 -1.5994 0
M  V30 85 H 1.737 -2.6321 0.3876 0
M  V30 86 H -12.46 2.3151 1.1959 0
M  V30 87 H -13.1643 3.1025 -0.2413 0
M  V30 88 H 1.4231 -2.5853 2.7892 0
M  V30 89 H 0.2082 -1.2744 2.5542 0
M  V30 90 H -14.903 2.3324 1.3773 0
M  V30 91 H -14.2714 0.6628 1.3147 0
M  V30 92 H 3.1733 -1.2078 1.7619 0
M  V30 93 H 2.4229 -0.3806 3.1684 0
M  V30 94 H -14.9819 0.4445 -1.0768 0
M  V30 95 H -16.3219 0.8624 0.0289 0
M  V30 96 H 1.854 0.1511 0.265 0
M  V30 97 H 0.9898 0.8171 1.5591 0
M  V30 98 H -14.8289 2.8652 -1.7759 0
M  V30 99 H -16.1646 3.2859 -0.6557 0
M  V30 100 H 3.2442 1.6553 2.4588 0
M  V30 101 H 2.3976 2.5055 1.1526 0
M  V30 102 H -16.345 1.3104 -3.0421 0
M  V30 103 H -16.7852 3.035 -3.0954 0
M  V30 104 H 3.7568 1.2581 -0.5839 0
M  V30 105 H 4.6797 2.3691 0.4663 0
M  V30 106 H -18.3224 2.2577 -0.9077 0
M  V30 107 H -18.8937 2.3879 -2.597 0
M  V30 108 H -18.3169 -0.0313 -2.9898 0
M  V30 109 H -17.8585 -0.214 -1.2786 0
M  V30 110 H -20.1681 -1.0296 -1.7317 0
M  V30 111 H -20.629 0.5438 -2.42 0
M  V30 112 H 5.8543 -2.6771 1.0401 0
M  V30 113 H 6.3146 -1.5526 2.9971 0
M  V30 114 H 7.7146 -0.6906 2.2402 0
M  V30 115 H -21.5254 0.2052 -0.1179 0
M  V30 116 H -20.5024 1.6563 -0.2486 0
M  V30 117 H 8.3142 -2.5342 0.5633 0
M  V30 118 H 7.3039 -2.6284 -0.9084 0
M  V30 119 H -18.6038 0.4633 0.8459 0
M  V30 120 H -20.0743 0.4876 1.857 0
M  V30 121 H 7.5402 -0.201 -1.3202 0
M  V30 122 H 8.477 0.0313 0.1847 0
M  V30 123 H -20.6468 -1.8514 1.0703 0
M  V30 124 H -19.0903 -1.9216 0.1772 0
M  V30 125 H 9.3595 -1.8316 -2.1234 0
M  V30 126 H 9.7885 -0.0937 -2.0065 0
M  V30 127 H -19.3502 -1.4407 3.2254 0
M  V30 128 H -19.07 -3.0346 2.4508 0
M  V30 129 H 10.495 -2.266 0.0739 0
M  V30 130 H 10.8762 -0.5246 0.2541 0
M  V30 131 H -16.94 -2.1293 1.4001 0
M  V30 132 H -16.9243 -2.1547 3.2044 0
M  V30 133 H -17.1763 -0.5985 2.342 0
M  V30 134 H 11.8387 -2.2874 -2.1074 0
M  V30 135 H 12.7487 -2.0686 -0.5765 0
M  V30 136 H 12.7557 0.4334 -0.9616 0
M  V30 137 H 11.995 0.1639 -2.5757 0
M  V30 138 H 13.9159 -1.3052 -3.2345 0
M  V30 139 H 14.7076 -1.0104 -1.6609 0
M  V30 140 H 15.6511 0.4015 -3.4867 0
M  V30 141 H 14.0388 1.0902 -3.8354 0
M  V30 142 H 13.9918 2.2774 -1.6759 0
M  V30 143 H 15.505 2.64 -2.5592 0
M  V30 144 H 16.6593 0.807 -1.151 0
M  V30 145 H 15.1549 0.737 -0.1614 0
M  V30 146 H 15.3661 3.2362 0.244 0
M  V30 147 H 16.9599 3.217 -0.5678 0
M  V30 148 H 16.4924 1.1983 1.7115 0
M  V30 149 H 16.5757 2.9227 2.1394 0
M  V30 150 H 18.8149 3.1505 1.0731 0
M  V30 151 H 18.7422 1.9542 2.4065 0
M  V30 152 H 18.4746 0.1085 0.5803 0
M  V30 153 H 18.8158 1.3883 -0.6204 0
M  V30 154 H 21.0167 1.8712 0.4121 0
M  V30 155 H 20.8764 0.211 -0.2152 0
M  V30 156 H 20.8079 1.1109 2.7391 0
M  V30 157 H 22.0818 0.1932 1.9109 0
M  V30 158 H 20.7298 -1.2519 3.3838 0
M  V30 159 H 19.2244 -0.8365 2.521 0
M  V30 160 H 20.1985 -3.0704 1.855 0
M  V30 161 H 20.0749 -1.9508 0.4523 0
M  V30 162 H 21.6791 -2.2382 1.2475 0
M  V30 END ATOM
M  V30 BEGIN BOND
M  V30 1 2 1 2
M  V30 2 1 2 3
M  V30 3 1 2 4
M  V30 4 1 3 5
M  V30 5 1 3 6
M  V30 6 1 4 7
M  V30 7 1 4 8
M  V30 8 2 5 9
M  V30 9 1 6 10
M  V30 10 1 8 11
M  V30 11 1 10 12
M  V30 12 1 11 13
M  V30 13 1 12 14
M  V30 14 1 13 15
M  V30 15 1 14 16
M  V30 16 1 15 17
M  V30 17 1 16 18
M  V30 18 1 17 19
M  V30 19 1 18 20
M  V30 20 1 19 21
M  V30 21 1 20 22
M  V30 22 1 21 23
M  V30 23 1 22 24
M  V30 24 1 23 25
M  V30 25 1 24 26
M  V30 26 1 25 27
M  V30 27 1 26 28
M  V30 28 1 27 29
M  V30 29 1 28 30
M  V30 30 1 29 31
M  V30 31 1 30 32
M  V30 32 1 30 33
M  V30 33 1 31 34
M  V30 34 2 32 35
M  V30 35 1 32 36
M  V30 36 2 33 37
M  V30 37 1 33 38
M  V30 38 1 34 39
M  V30 39 1 36 40
M  V30 40 1 39 41
M  V30 41 1 40 42
M  V30 42 1 41 43
M  V30 43 1 42 44
M  V30 44 1 43 45
M  V30 45 1 44 46
M  V30 46 1 45 47
M  V30 47 1 46 48
M  V30 48 1 48 49
M  V30 49 1 49 50
M  V30 50 1 50 51
M  V30 51 1 51 52
M  V30 52 1 52 53
M  V30 53 1 53 54
M  V30 54 1 54 55
M  V30 55 1 55 56
M  V30 56 1 56 57
M  V30 57 1 57 58
M  V30 58 1 58 59
M  V30 59 1 59 60
M  V30 60 1 60 61
M  V30 61 1 5 7
M  V30 62 1 36 38
M  V30 63 1 4 62
M  V30 64 1 6 63
M  V30 65 1 6 64
M  V30 66 1 7 65
M  V30 67 1 7 66
M  V30 68 1 8 67
M  V30 69 1 8 68
M  V30 70 1 10 69
M  V30 71 1 10 70
M  V30 72 1 11 71
M  V30 73 1 11 72
M  V30 74 1 12 73
M  V30 75 1 12 74
M  V30 76 1 13 75
M  V30 77 1 13 76
M  V30 78 1 14 77
M  V30 79 1 14 78
M  V30 80 1 15 79
M  V30 81 1 15 80
M  V30 82 1 16 81
M  V30 83 1 16 82
M  V30 84 1 17 83
M  V30 85 1 17 84
M  V30 86 1 18 85
M  V30 87 1 19 86
M  V30 88 1 19 87
M  V30 89 1 20 88
M  V30 90 1 20 89
M  V30 91 1 21 90
M  V30 92 1 21 91
M  V30 93 1 22 92
M  V30 94 1 22 93
M  V30 95 1 23 94
M  V30 96 1 23 95
M  V30 97 1 24 96
M  V30 98 1 24 97
M  V30 99 1 25 98
M  V30 100 1 25 99
M  V30 101 1 26 100
M  V30 102 1 26 101
M  V30 103 1 27 102
M  V30 104 1 27 103
M  V30 105 1 28 104
M  V30 106 1 28 105
M  V30 107 1 29 106
M  V30 108 1 29 107
M  V30 109 1 31 108
M  V30 110 1 31 109
M  V30 111 1 34 110
M  V30 112 1 34 111
M  V30 113 1 36 112
M  V30 114 1 38 113
M  V30 115 1 38 114
M  V30 116 1 39 115
M  V30 117 1 39 116
M  V30 118 1 40 117
M  V30 119 1 40 118
M  V30 120 1 41 119
M  V30 121 1 41 120
M  V30 122 1 42 121
M  V30 123 1 42 122
M  V30 124 1 43 123
M  V30 125 1 43 124
M  V30 126 1 44 125
M  V30 127 1 44 126
M  V30 128 1 45 127
M  V30 129 1 45 128
M  V30 130 1 46 129
M  V30 131 1 46 130
M  V30 132 1 47 131
M  V30 133 1 47 132
M  V30 134 1 47 133
M  V30 135 1 48 134
M  V30 136 1 48 135
M  V30 137 1 49 136
M  V30 138 1 49 137
M  V30 139 1 50 138
M  V30 140 1 50 139
M  V30 141 1 51 140
M  V30 142 1 51 141
M  V30 143 1 52 142
M  V30 144 1 52 143
M  V30 145 1 53 144
M  V30 146 1 53 145
M  V30 147 1 54 146
M  V30 148 1 54 147
M  V30 149 1 55 148
M  V30 150 1 55 149
M  V30 151 1 56 150
M  V30 152 1 56 151
M  V30 153 1 57 152
M  V30 154 1 57 153
M  V30 155 1 58 154
M  V30 156 1 58 155
M  V30 157 1 59 156
M  V30 158 1 59 157
M  V30 159 1 60 158
M  V30 160 1 60 159
M  V30 161 1 61 160
M  V30 162 1 61 161
M  V30 163 1 61 162
M  V30 END BOND
M  V30 BEGIN COLLECTION
M  V30 MDLV30/STEABS ATOMS=(2 4 36)
M  V30 END COLLECTION
M  V30 END CTAB
M  END
>  <Structure No>
3150

>  <LogS>
-10.23471717

>  <MMFF94 Energy>
12.004

$$$$
Compound 3151
Actelion Java MolfileCreator 2.0

  0  0  0  0  0  0              0 V3000
M  V30 BEGIN CTAB
M  V30 COUNTS 28 29 0 0 0
M  V30 BEGIN ATOM
M  V30 1 Cl 5.6599 -1.3922 0.0818 0
M  V30 2 C 5.0853 0.2525 -0.2842 0
M  V30 3 C 3.5868 0.2951 -0.2075 0
M  V30 4 C 2.9482 0.5724 1.0099 0
M  V30 5 C 2.8118 5.0E-4 -1.3384 0
M  V30 6 C 1.5529 0.5806 1.0899 0
M  V30 7 C 1.4163 0.0074 -1.2598 0
M  V30 8 C 0.7706 0.2999 -0.0448 0
M  V30 9 C -0.7123 0.307 0.0396 0
M  V30 10 C -1.4711 -0.6741 -0.6236 0
M  V30 11 C -1.3813 1.2921 0.7885 0
M  V30 12 C -2.8665 -0.6674 -0.5425 0
M  V30 13 C -2.7768 1.2981 0.8677 0
M  V30 14 C -3.5291 0.326 0.1928 0
M  V30 15 C -5.0256 0.3119 0.3077 0
M  V30 16 Cl -5.512 -0.671 1.71 0
M  V30 17 H 5.4322 0.54 -1.2995 0
M  V30 18 H 5.5334 0.9632 0.4424 0
M  V30 19 H 3.5312 0.7786 1.8992 0
M  V30 20 H 3.2881 -0.2318 -2.2828 0
M  V30 21 H 1.0858 0.7858 2.0449 0
M  V30 22 H 0.8421 -0.2019 -2.1534 0
M  V30 23 H -0.9848 -1.4594 -1.188 0
M  V30 24 H -0.8262 2.0673 1.3015 0
M  V30 25 H -3.4304 -1.44 -1.0504 0
M  V30 26 H -3.271 2.0631 1.4538 0
M  V30 27 H -5.4833 -0.1145 -0.61 0
M  V30 28 H -5.4169 1.3437 0.4351 0
M  V30 END ATOM
M  V30 BEGIN BOND
M  V30 1 1 1 2
M  V30 2 1 2 3
M  V30 3 2 3 4
M  V30 4 1 3 5
M  V30 5 1 4 6
M  V30 6 2 5 7
M  V30 7 2 6 8
M  V30 8 1 8 9
M  V30 9 2 9 10
M  V30 10 1 9 11
M  V30 11 1 10 12
M  V30 12 2 11 13
M  V30 13 2 12 14
M  V30 14 1 14 15
M  V30 15 1 15 16
M  V30 16 1 7 8
M  V30 17 1 13 14
M  V30 18 1 2 17
M  V30 19 1 2 18
M  V30 20 1 4 19
M  V30 21 1 5 20
M  V30 22 1 6 21
M  V30 23 1 7 22
M  V30 24 1 10 23
M  V30 25 1 11 24
M  V30 26 1 12 25
M  V30 27 1 13 26
M  V30 28 1 15 27
M  V30 29 1 15 28
M  V30 END BOND
M  V30 END CTAB
M  END
>  <Structure No>
3151

>  <LogS>
-10.09891356

>  <MMFF94 Energy>
59.226

$$$$
Compound 3152
Actelion Java MolfileCreator 2.0

  0  0  0  0  0  0              0 V3000
M  V30 BEGIN CTAB
M  V30 COUNTS 20 19 0 0 0
M  V30 BEGIN ATOM
M  V30 1 O -0.4697 -2.7427 1.018 0
M  V30 2 N -0.9302 -2.5161 -0.1202 0 CHG=1
M  V30 3 O -0.9428 -1.2385 -0.6499 0
M  V30 4 O -1.4697 -3.5498 -0.8472 0 CHG=-1
M  V30 5 C -0.3692 -0.1087 0.0143 0
M  V30 6 C 1.0746 0.1142 -0.4823 0
M  V30 7 C -1.2592 1.1138 -0.279 0
M  V30 8 C 1.9902 -1.0677 -0.1714 0
M  V30 9 C -0.9404 2.3176 0.6094 0
M  V30 10 H -0.3656 -0.2759 1.1145 0
M  V30 11 H 1.5085 1.0106 0.0075 0
M  V30 12 H 1.0721 0.288 -1.5805 0
M  V30 13 H -1.1705 1.4071 -1.3479 0
M  V30 14 H -2.3194 0.8305 -0.098 0
M  V30 15 H 1.9793 -1.2908 0.9166 0
M  V30 16 H 1.6745 -1.9669 -0.7404 0
M  V30 17 H 3.0302 -0.8179 -0.4695 0
M  V30 18 H -0.9617 2.0284 1.6817 0
M  V30 19 H -1.7022 3.1085 0.4442 0
M  V30 20 H 0.0527 2.7434 0.3595 0
M  V30 END ATOM
M  V30 BEGIN BOND
M  V30 1 2 1 2
M  V30 2 1 2 3
M  V30 3 1 2 4
M  V30 4 1 3 5
M  V30 5 1 5 6
M  V30 6 1 5 7
M  V30 7 1 6 8
M  V30 8 1 7 9
M  V30 9 1 5 10
M  V30 10 1 6 11
M  V30 11 1 6 12
M  V30 12 1 7 13
M  V30 13 1 7 14
M  V30 14 1 8 15
M  V30 15 1 8 16
M  V30 16 1 8 17
M  V30 17 1 9 18
M  V30 18 1 9 19
M  V30 19 1 9 20
M  V30 END BOND
M  V30 END CTAB
M  END
>  <Structure No>
3152

>  <LogS>
-2.4522

>  <MMFF94 Energy>
-11.738

$$$$
Compound 3153
Actelion Java MolfileCreator 2.0

  0  0  0  0  0  0              0 V3000
M  V30 BEGIN CTAB
M  V30 COUNTS 40 41 0 0 0
M  V30 BEGIN ATOM
M  V30 1 O -1.7436 -1.9815 -1.1093 0
M  V30 2 C -1.2725 -1.3551 -0.1187 0
M  V30 3 O -1.9684 -1.3365 1.097 0
M  V30 4 C 0.0172 -0.5664 -0.2395 0 CFG=1
M  V30 5 C -3.2606 -1.9129 1.2714 0
M  V30 6 C -0.3752 0.9278 -0.1879 0
M  V30 7 C 0.7479 -0.9103 -1.5743 0
M  V30 8 C 0.9631 -1.0282 0.9099 0
M  V30 9 C -4.3295 -1.0284 0.6398 0
M  V30 10 C -0.1338 1.7492 0.9408 0
M  V30 11 C -1.1167 1.489 -1.2549 0
M  V30 12 C 2.1478 -0.2824 -1.6322 0
M  V30 13 C 2.3828 -0.4395 0.7837 0
M  V30 14 C -0.5429 3.086 0.9584 0
M  V30 15 C -1.5237 2.8254 -1.2287 0
M  V30 16 N 2.9885 -0.7743 -0.5215 0 CHG=1 CFG=1
M  V30 17 C -1.2283 3.6261 -0.1277 0
M  V30 18 C 4.3397 -0.1964 -0.6161 0
M  V30 19 H -3.2931 -2.9335 0.8323 0
M  V30 20 H -3.4654 -1.9985 2.3593 0
M  V30 21 H 0.862 -2.0143 -1.6631 0
M  V30 22 H 0.1717 -0.5909 -2.4658 0
M  V30 23 H 0.5399 -0.797 1.91 0
M  V30 24 H 1.0566 -2.1376 0.8789 0
M  V30 25 H -5.3339 -1.4602 0.8331 0
M  V30 26 H -4.2845 -0.0088 1.0783 0
M  V30 27 H -4.1759 -0.9585 -0.4572 0
M  V30 28 H 0.3613 1.3812 1.8247 0
M  V30 29 H -1.4104 0.8905 -2.1054 0
M  V30 30 H 2.609 -0.5579 -2.6073 0
M  V30 31 H 2.0616 0.8279 -1.6021 0
M  V30 32 H 2.3609 0.6622 0.9265 0
M  V30 33 H 3.0025 -0.8634 1.6056 0
M  V30 34 H -0.3365 3.7023 1.8241 0
M  V30 35 H -2.082 3.2365 -2.06 0
M  V30 36 H 3.0827 -1.8158 -0.5972 0
M  V30 37 H -1.5476 4.6601 -0.1079 0
M  V30 38 H 4.9857 -0.5836 0.2023 0
M  V30 39 H 4.3074 0.9142 -0.5496 0
M  V30 40 H 4.817 -0.4815 -1.5795 0
M  V30 END ATOM
M  V30 BEGIN BOND
M  V30 1 2 1 2
M  V30 2 1 2 3
M  V30 3 1 2 4
M  V30 4 1 3 5
M  V30 5 1 4 6
M  V30 6 1 4 7
M  V30 7 1 4 8
M  V30 8 1 5 9
M  V30 9 2 6 10
M  V30 10 1 6 11
M  V30 11 1 7 12
M  V30 12 1 8 13
M  V30 13 1 10 14
M  V30 14 2 11 15
M  V30 15 1 12 16
M  V30 16 2 14 17
M  V30 17 1 16 18
M  V30 18 1 13 16
M  V30 19 1 15 17
M  V30 20 1 5 19
M  V30 21 1 5 20
M  V30 22 1 7 21
M  V30 23 1 7 22
M  V30 24 1 8 23
M  V30 25 1 8 24
M  V30 26 1 9 25
M  V30 27 1 9 26
M  V30 28 1 9 27
M  V30 29 1 10 28
M  V30 30 1 11 29
M  V30 31 1 12 30
M  V30 32 1 12 31
M  V30 33 1 13 32
M  V30 34 1 13 33
M  V30 35 1 14 34
M  V30 36 1 15 35
M  V30 37 1 16 36
M  V30 38 1 17 37
M  V30 39 1 18 38
M  V30 40 1 18 39
M  V30 41 1 18 40
M  V30 END BOND
M  V30 BEGIN COLLECTION
M  V30 MDLV30/STEABS ATOMS=(2 4 16)
M  V30 END COLLECTION
M  V30 END CTAB
M  END
>  <Structure No>
3153

>  <LogS>
-1.6368

>  <MMFF94 Energy>
24.944

$$$$
Compound 3154
Actelion Java MolfileCreator 2.0

  0  0  0  0  0  0              0 V3000
M  V30 BEGIN CTAB
M  V30 COUNTS 30 30 0 0 0
M  V30 BEGIN ATOM
M  V30 1 O 3.3889 0.0 0.6298 0
M  V30 2 C 2.5972 0.9808 0.6131 0
M  V30 3 O 1.5512 1.0458 -0.3138 0
M  V30 4 N 2.7694 2.0414 1.5487 0
M  V30 5 C 1.2452 0.0114 -1.2519 0
M  V30 6 C 0.0518 -0.8557 -0.7851 0 CFG=2
M  V30 7 O -0.2316 -1.77 -1.8215 0
M  V30 8 C -1.1591 0.0689 -0.5719 0
M  V30 9 C 0.3985 -1.6618 0.5077 0
M  V30 10 C -2.0262 0.3581 -1.6485 0
M  V30 11 C -1.3761 0.7376 0.6543 0
M  V30 12 C 1.3765 -2.8188 0.2769 0
M  V30 13 C -3.1022 1.2352 -1.486 0
M  V30 14 C -2.4543 1.6139 0.8093 0
M  V30 15 C -3.3199 1.8576 -0.2568 0
M  V30 16 H 2.1159 2.8554 1.5443 0
M  V30 17 H 3.5446 2.0114 2.2474 0
M  V30 18 H 0.9709 0.4992 -2.2122 0
M  V30 19 H 2.1387 -0.6096 -1.4732 0
M  V30 20 H -1.0117 -2.3175 -1.5387 0
M  V30 21 H 0.8325 -1.0026 1.2863 0
M  V30 22 H -0.5371 -2.0921 0.928 0
M  V30 23 H -1.8702 -0.0885 -2.6219 0
M  V30 24 H -0.713 0.5992 1.4955 0
M  V30 25 H 1.564 -3.3371 1.241 0
M  V30 26 H 0.9537 -3.5591 -0.4337 0
M  V30 27 H 2.3483 -2.4516 -0.1089 0
M  V30 28 H -3.7638 1.4388 -2.3181 0
M  V30 29 H -2.6131 2.1123 1.7571 0
M  V30 30 H -4.1519 2.539 -0.1343 0
M  V30 END ATOM
M  V30 BEGIN BOND
M  V30 1 2 1 2
M  V30 2 1 2 3
M  V30 3 1 2 4
M  V30 4 1 3 5
M  V30 5 1 5 6
M  V30 6 1 6 7
M  V30 7 1 6 8
M  V30 8 1 6 9
M  V30 9 2 8 10
M  V30 10 1 8 11
M  V30 11 1 9 12
M  V30 12 1 10 13
M  V30 13 2 11 14
M  V30 14 2 13 15
M  V30 15 1 14 15
M  V30 16 1 4 16
M  V30 17 1 4 17
M  V30 18 1 5 18
M  V30 19 1 5 19
M  V30 20 1 7 20
M  V30 21 1 9 21
M  V30 22 1 9 22
M  V30 23 1 10 23
M  V30 24 1 11 24
M  V30 25 1 12 25
M  V30 26 1 12 26
M  V30 27 1 12 27
M  V30 28 1 13 28
M  V30 29 1 14 29
M  V30 30 1 15 30
M  V30 END BOND
M  V30 BEGIN COLLECTION
M  V30 MDLV30/STEABS ATOMS=(1 6)
M  V30 END COLLECTION
M  V30 END CTAB
M  END
>  <Structure No>
3154

>  <LogS>
-0.9227

>  <MMFF94 Energy>
-23.773

$$$$
Compound 3155
Actelion Java MolfileCreator 2.0

  0  0  0  0  0  0              0 V3000
M  V30 BEGIN CTAB
M  V30 COUNTS 11 10 0 0 0
M  V30 BEGIN ATOM
M  V30 1 O 1.9589 -0.7048 1.2533 0
M  V30 2 C 1.2943 -0.4393 0.2172 0
M  V30 3 O 1.6654 -1.0031 -0.9976 0 CHG=-1
M  V30 4 C 0.0992 0.469 0.2985 0 CFG=1
M  V30 5 O 0.25 1.5617 -0.5725 0
M  V30 6 C -1.1919 -0.297 -0.003 0
M  V30 7 H 0.0226 0.8691 1.3333 0
M  V30 8 H 0.2614 1.2111 -1.5018 0
M  V30 9 H -1.3277 -1.1203 0.7307 0
M  V30 10 H -2.0617 0.3895 0.0727 0
M  V30 11 H -1.1651 -0.7275 -1.0269 0
M  V30 END ATOM
M  V30 BEGIN BOND
M  V30 1 2 1 2
M  V30 2 1 2 3
M  V30 3 1 2 4
M  V30 4 1 4 5
M  V30 5 1 4 6
M  V30 6 1 4 7
M  V30 7 1 5 8
M  V30 8 1 6 9
M  V30 9 1 6 10
M  V30 10 1 6 11
M  V30 END BOND
M  V30 BEGIN COLLECTION
M  V30 MDLV30/STEABS ATOMS=(1 4)
M  V30 END COLLECTION
M  V30 END CTAB
M  END
>  <Structure No>
3155

>  <LogS>
1.0454

>  <MMFF94 Energy>
53.629

$$$$
Compound 3156
Actelion Java MolfileCreator 2.0

  0  0  0  0  0  0              0 V3000
M  V30 BEGIN CTAB
M  V30 COUNTS 44 47 0 0 0
M  V30 BEGIN ATOM
M  V30 1 O 6.071 0.727 -1.0503 0
M  V30 2 C 4.7455 0.3272 -0.8959 0
M  V30 3 C 4.2201 0.0717 0.3749 0
M  V30 4 C 3.937 0.1721 -2.0223 0
M  V30 5 C 2.881 -0.322 0.5201 0
M  V30 6 C 2.6069 -0.2332 -1.8867 0
M  V30 7 C 2.0484 -0.4572 -0.6085 0
M  V30 8 C 2.32 -0.6241 1.8757 0
M  V30 9 C 0.6303 -1.0002 -0.4078 0 CFG=1
M  V30 10 C 0.9428 0.0197 1.9919 0
M  V30 11 C -0.063 -0.5048 0.9239 0 CFG=1
M  V30 12 C -0.2731 -0.8247 -1.651 0
M  V30 13 C -1.1946 0.5463 0.6703 0 CFG=1
M  V30 14 C -1.7411 -1.0501 -1.2989 0
M  V30 15 C -2.2609 0.0776 -0.3668 0 CFG=1
M  V30 16 C -1.9918 0.877 1.9571 0
M  V30 17 C -3.4287 -0.4274 0.5054 0 CFG=1
M  V30 18 C -2.7074 1.2929 -1.2296 0
M  V30 19 C -3.4472 0.494 1.7137 0
M  V30 20 O -4.6548 -0.4024 -0.1801 0
M  V30 21 H 6.6846 0.8463 -0.2527 0
M  V30 22 H 4.8548 0.177 1.2461 0
M  V30 23 H 4.345 0.3518 -3.0089 0
M  V30 24 H 2.0322 -0.3775 -2.79 0
M  V30 25 H 2.9758 -0.2214 2.6784 0
M  V30 26 H 2.2398 -1.7246 2.0089 0
M  V30 27 H 0.766 -2.0993 -0.2893 0
M  V30 28 H 1.0649 1.1222 1.8994 0
M  V30 29 H 0.5571 -0.1858 3.0131 0
M  V30 30 H -0.5552 -1.4001 1.3693 0
M  V30 31 H 0.0201 -1.5626 -2.4297 0
M  V30 32 H -0.1491 0.1919 -2.0805 0
M  V30 33 H -0.6964 1.4753 0.3088 0
M  V30 34 H -1.8307 -2.0492 -0.8178 0
M  V30 35 H -2.3439 -1.0964 -2.2322 0
M  V30 36 H -1.6285 0.3111 2.8393 0
M  V30 37 H -1.9175 1.9614 2.1919 0
M  V30 38 H -3.2181 -1.4626 0.8661 0
M  V30 39 H -1.8542 1.7108 -1.8027 0
M  V30 40 H -3.4915 0.9991 -1.9595 0
M  V30 41 H -3.113 2.109 -0.5955 0
M  V30 42 H -3.8856 -0.018 2.5981 0
M  V30 43 H -4.0469 1.4056 1.4975 0
M  V30 44 H -5.308 -0.8854 0.3904 0
M  V30 END ATOM
M  V30 BEGIN BOND
M  V30 1 1 1 2
M  V30 2 2 2 3
M  V30 3 1 2 4
M  V30 4 1 3 5
M  V30 5 2 4 6
M  V30 6 2 5 7
M  V30 7 1 5 8
M  V30 8 1 7 9
M  V30 9 1 8 10
M  V30 10 1 9 11
M  V30 11 1 9 12
M  V30 12 1 11 13
M  V30 13 1 12 14
M  V30 14 1 13 15
M  V30 15 1 13 16
M  V30 16 1 15 17
M  V30 17 1 15 18
M  V30 18 1 16 19
M  V30 19 1 17 20
M  V30 20 1 6 7
M  V30 21 1 10 11
M  V30 22 1 14 15
M  V30 23 1 17 19
M  V30 24 1 1 21
M  V30 25 1 3 22
M  V30 26 1 4 23
M  V30 27 1 6 24
M  V30 28 1 8 25
M  V30 29 1 8 26
M  V30 30 1 9 27
M  V30 31 1 10 28
M  V30 32 1 10 29
M  V30 33 1 11 30
M  V30 34 1 12 31
M  V30 35 1 12 32
M  V30 36 1 13 33
M  V30 37 1 14 34
M  V30 38 1 14 35
M  V30 39 1 16 36
M  V30 40 1 16 37
M  V30 41 1 17 38
M  V30 42 1 18 39
M  V30 43 1 18 40
M  V30 44 1 18 41
M  V30 45 1 19 42
M  V30 46 1 19 43
M  V30 47 1 20 44
M  V30 END BOND
M  V30 BEGIN COLLECTION
M  V30 MDLV30/STEABS ATOMS=(5 9 11 13 15 17)
M  V30 END COLLECTION
M  V30 END CTAB
M  END
>  <Structure No>
3156

>  <LogS>
-4.8789

>  <MMFF94 Energy>
55.71

$$$$
Compound 3157
Actelion Java MolfileCreator 2.0

  0  0  0  0  0  0              0 V3000
M  V30 BEGIN CTAB
M  V30 COUNTS 14 14 0 0 0
M  V30 BEGIN ATOM
M  V30 1 Cl -1.3806 -2.2443 -1.208 0
M  V30 2 C -0.3184 -1.0398 -0.4826 0
M  V30 3 C -0.8029 0.1948 0.0145 0
M  V30 4 C 1.0524 -1.3186 -0.4532 0
M  V30 5 C 0.122 1.1309 0.5365 0
M  V30 6 C -2.2512 0.5047 -0.0123 0
M  V30 7 C 1.9516 -0.3875 0.063 0
M  V30 8 Cl -0.3864 2.6653 1.2377 0
M  V30 9 C 1.4888 0.8312 0.5555 0
M  V30 10 O -3.0986 -0.375 0.2936 0
M  V30 11 O -2.6945 1.7703 -0.3766 0 CHG=-1
M  V30 12 H 1.4246 -2.2589 -0.8398 0
M  V30 13 H 3.0104 -0.6112 0.0819 0
M  V30 14 H 2.1961 1.5431 0.962 0
M  V30 END ATOM
M  V30 BEGIN BOND
M  V30 1 1 1 2
M  V30 2 2 2 3
M  V30 3 1 2 4
M  V30 4 1 3 5
M  V30 5 1 3 6
M  V30 6 2 4 7
M  V30 7 1 5 8
M  V30 8 2 5 9
M  V30 9 2 6 10
M  V30 10 1 6 11
M  V30 11 1 7 9
M  V30 12 1 4 12
M  V30 13 1 7 13
M  V30 14 1 9 14
M  V30 END BOND
M  V30 END CTAB
M  END
>  <Structure No>
3157

>  <LogS>
-1.1309

>  <MMFF94 Energy>
13.905

$$$$
Compound 3158
Actelion Java MolfileCreator 2.0

  0  0  0  0  0  0              0 V3000
M  V30 BEGIN CTAB
M  V30 COUNTS 14 14 0 0 0
M  V30 BEGIN ATOM
M  V30 1 Cl 0.3573 2.8615 0.1786 0
M  V30 2 C -0.1366 1.174 -0.0023 0
M  V30 3 C 0.8117 0.1223 0.0615 0
M  V30 4 C -1.503 0.8769 -0.1636 0
M  V30 5 C 0.3623 -1.2153 -0.0349 0
M  V30 6 C 2.2544 0.4134 0.2289 0
M  V30 7 Cl -2.7161 2.1498 -0.2422 0
M  V30 8 C -1.925 -0.45 -0.2576 0
M  V30 9 Cl 1.4735 -2.583 -0.0278 0
M  V30 10 C -0.9992 -1.4881 -0.1929 0
M  V30 11 O 2.8017 1.3335 -0.4341 0
M  V30 12 O 3.0229 -0.3274 1.1186 0 CHG=-1
M  V30 13 H -2.976 -0.6792 -0.3818 0
M  V30 14 H -1.3427 -2.5117 -0.2753 0
M  V30 END ATOM
M  V30 BEGIN BOND
M  V30 1 1 1 2
M  V30 2 2 2 3
M  V30 3 1 2 4
M  V30 4 1 3 5
M  V30 5 1 3 6
M  V30 6 1 4 7
M  V30 7 2 4 8
M  V30 8 1 5 9
M  V30 9 2 5 10
M  V30 10 2 6 11
M  V30 11 1 6 12
M  V30 12 1 8 10
M  V30 13 1 8 13
M  V30 14 1 10 14
M  V30 END BOND
M  V30 END CTAB
M  END
>  <Structure No>
3158

>  <LogS>
-1.4666

>  <MMFF94 Energy>
14.802

$$$$
Compound 3159
Actelion Java MolfileCreator 2.0

  0  0  0  0  0  0              0 V3000
M  V30 BEGIN CTAB
M  V30 COUNTS 29 31 0 0 0
M  V30 BEGIN ATOM
M  V30 1 O -2.2096 -1.3908 -2.7011 0
M  V30 2 C -2.3421 -0.8086 -1.5915 0
M  V30 3 N -3.2023 -1.3714 -0.594 0
M  V30 4 C -1.5629 0.4506 -1.3135 0 CFG=2
M  V30 5 C -3.351 -0.7564 0.6902 0
M  V30 6 N -0.163 0.1506 -0.984 0
M  V30 7 C -2.2284 1.2885 -0.204 0
M  V30 8 O -4.1174 -1.2733 1.5459 0
M  V30 9 C -2.5547 0.4646 1.0466 0
M  V30 10 C 0.9323 1.0617 -1.1248 0
M  V30 11 C 0.3599 -0.9015 -0.1594 0
M  V30 12 O 0.8688 2.1541 -1.7488 0
M  V30 13 C 2.1065 0.5546 -0.4258 0
M  V30 14 O -0.2995 -1.9018 0.2285 0
M  V30 15 C 1.7577 -0.6408 0.1625 0
M  V30 16 C 3.3867 1.0889 -0.2904 0
M  V30 17 C 2.6686 -1.3741 0.9209 0
M  V30 18 C 4.3261 0.3669 0.4675 0
M  V30 19 C 3.9688 -0.8589 1.0702 0
M  V30 20 H -3.7341 -2.2446 -0.809 0
M  V30 21 H -1.577 1.0619 -2.2429 0
M  V30 22 H -3.1729 1.7237 -0.6001 0
M  V30 23 H -1.5673 2.137 0.0761 0
M  V30 24 H -1.6181 0.1567 1.5561 0
M  V30 25 H -3.1362 1.0958 1.7529 0
M  V30 26 H 3.6508 2.0309 -0.753 0
M  V30 27 H 2.385 -2.3109 1.3823 0
M  V30 28 H 5.3289 0.7546 0.5907 0
M  V30 29 H 4.6993 -1.4048 1.6526 0
M  V30 END ATOM
M  V30 BEGIN BOND
M  V30 1 2 1 2
M  V30 2 1 2 3
M  V30 3 1 2 4
M  V30 4 1 3 5
M  V30 5 1 4 6
M  V30 6 1 4 7
M  V30 7 2 5 8
M  V30 8 1 5 9
M  V30 9 1 6 10
M  V30 10 1 6 11
M  V30 11 2 10 12
M  V30 12 1 10 13
M  V30 13 2 11 14
M  V30 14 1 11 15
M  V30 15 1 13 16
M  V30 16 1 15 17
M  V30 17 2 16 18
M  V30 18 2 17 19
M  V30 19 1 7 9
M  V30 20 2 13 15
M  V30 21 1 18 19
M  V30 22 1 3 20
M  V30 23 1 4 21
M  V30 24 1 7 22
M  V30 25 1 7 23
M  V30 26 1 9 24
M  V30 27 1 9 25
M  V30 28 1 16 26
M  V30 29 1 17 27
M  V30 30 1 18 28
M  V30 31 1 19 29
M  V30 END BOND
M  V30 BEGIN COLLECTION
M  V30 MDLV30/STEABS ATOMS=(1 4)
M  V30 END COLLECTION
M  V30 END CTAB
M  END
>  <Structure No>
3159

>  <LogS>
-2.6758

>  <MMFF94 Energy>
-42.122

$$$$
Compound 3160
Actelion Java MolfileCreator 2.0

  0  0  0  0  0  0              0 V3000
M  V30 BEGIN CTAB
M  V30 COUNTS 85 90 0 0 0
M  V30 BEGIN ATOM
M  V30 1 O -3.3825 1.6902 -1.6096 0
M  V30 2 C -3.8515 0.8587 -0.7822 0
M  V30 3 O -3.0071 -0.0723 -0.1659 0
M  V30 4 C -5.2952 0.8614 -0.4611 0
M  V30 5 C -1.5832 -0.0254 -0.2497 0 CFG=2
M  V30 6 C -6.1965 1.6261 -1.2153 0
M  V30 7 C -5.7728 0.1059 0.6155 0
M  V30 8 C -1.0205 -1.3889 0.1897 0 CFG=1
M  V30 9 C -1.0611 1.1052 0.6549 0
M  V30 10 C -7.5714 1.6371 -0.9073 0
M  V30 11 C -7.1379 0.1103 0.9471 0
M  V30 12 O -1.4641 -2.3739 -0.7336 0
M  V30 13 C 0.5249 -1.3638 0.1894 0 CFG=2
M  V30 14 C 0.4763 1.1496 0.7343 0 CFG=1
M  V30 15 O -8.4739 2.4156 -1.6484 0
M  V30 16 C -8.0429 0.8592 0.179 0
M  V30 17 O -7.638 -0.6296 2.0319 0
M  V30 18 C -2.2814 -3.3315 -0.0965 0
M  V30 19 C 1.0552 -2.7108 0.6072 0
M  V30 20 C 1.0707 -0.2311 1.1098 0 CFG=2
M  V30 21 C 1.1182 1.7195 -0.554 0
M  V30 22 C -8.1223 3.2619 -2.7395 0
M  V30 23 O -9.3982 0.7866 0.5463 0
M  V30 24 C -6.8532 -1.4869 2.8557 0
M  V30 25 O 0.8864 -3.1209 1.7898 0
M  V30 26 O 1.7217 -3.5011 -0.3315 0
M  V30 27 C 2.6166 -0.1527 1.1215 0
M  V30 28 N 2.5856 1.8166 -0.4037 0 CHG=1 CFG=1
M  V30 29 C -10.5052 1.0441 -0.3187 0
M  V30 30 C 2.2836 -4.7674 -0.0129 0
M  V30 31 C 3.1666 0.4607 -0.1841 0 CFG=1
M  V30 32 C 3.1821 2.4778 -1.5945 0
M  V30 33 C 4.6697 0.5434 -0.1578 0
M  V30 34 C 4.6861 2.7661 -1.3896 0
M  V30 35 N 5.5245 -0.4308 0.2344 0
M  V30 36 C 5.3502 1.578 -0.7706 0
M  V30 37 C 6.752 0.0212 -0.0892 0
M  V30 38 C 6.6852 1.2492 -0.6988 0
M  V30 39 C 7.9671 -0.6304 0.1077 0
M  V30 40 C 7.824 1.9094 -1.1549 0
M  V30 41 C 9.1507 0.0125 -0.3351 0
M  V30 42 C 9.0671 1.2782 -0.963 0
M  V30 43 O 10.4178 -0.5645 -0.1744 0
M  V30 44 C 10.655 -1.8142 0.4666 0
M  V30 45 H -1.2843 0.1643 -1.3042 0
M  V30 46 H -5.8209 2.2131 -2.0422 0
M  V30 47 H -5.0761 -0.4785 1.2006 0
M  V30 48 H -1.3636 -1.5696 1.2408 0
M  V30 49 H -1.4663 0.9561 1.681 0
M  V30 50 H -1.4439 2.0851 0.29 0
M  V30 51 H 0.8562 -1.182 -0.8556 0
M  V30 52 H 0.7254 1.8538 1.5594 0
M  V30 53 H -2.6239 -4.065 -0.8571 0
M  V30 54 H -3.1844 -2.8528 0.3494 0
M  V30 55 H -1.709 -3.8932 0.6745 0
M  V30 56 H 0.7487 -0.461 2.1506 0
M  V30 57 H 0.6912 2.7307 -0.7389 0
M  V30 58 H 0.865 1.088 -1.4348 0
M  V30 59 H -7.423 4.0535 -2.3997 0
M  V30 60 H -9.0389 3.7463 -3.1319 0
M  V30 61 H -7.6612 2.665 -3.5531 0
M  V30 62 H -7.505 -1.9573 3.6199 0
M  V30 63 H -6.3935 -2.2881 2.2417 0
M  V30 64 H -6.0639 -0.9043 3.3748 0
M  V30 65 H 2.9347 0.4816 1.9777 0
M  V30 66 H 3.0507 -1.161 1.2947 0
M  V30 67 H 2.7884 2.4214 0.4295 0
M  V30 68 H -10.6313 2.1403 -0.4767 0
M  V30 69 H -10.369 0.5136 -1.2879 0
M  V30 70 H -11.4296 0.6608 0.1599 0
M  V30 71 H 1.494 -5.4525 0.3628 0
M  V30 72 H 3.0736 -4.6457 0.7571 0
M  V30 73 H 2.74 -5.2093 -0.9259 0
M  V30 74 H 2.9079 -0.204 -1.0361 0
M  V30 75 H 2.6749 3.4478 -1.7968 0
M  V30 76 H 3.0526 1.8349 -2.4963 0
M  V30 77 H 4.8177 3.6393 -0.7167 0
M  V30 78 H 5.156 2.9927 -2.3706 0
M  V30 79 H 5.2898 -1.3558 0.6612 0
M  V30 80 H 7.9873 -1.602 0.5785 0
M  V30 81 H 7.7589 2.8721 -1.6435 0
M  V30 82 H 9.9711 1.7673 -1.3054 0
M  V30 83 H 10.283 -1.7828 1.5137 0
M  V30 84 H 10.1509 -2.63 -0.0962 0
M  V30 85 H 11.7466 -2.0136 0.4843 0
M  V30 END ATOM
M  V30 BEGIN BOND
M  V30 1 2 1 2
M  V30 2 1 2 3
M  V30 3 1 2 4
M  V30 4 1 3 5
M  V30 5 2 4 6
M  V30 6 1 4 7
M  V30 7 1 5 8
M  V30 8 1 5 9
M  V30 9 1 6 10
M  V30 10 2 7 11
M  V30 11 1 8 12
M  V30 12 1 8 13
M  V30 13 1 9 14
M  V30 14 1 10 15
M  V30 15 2 10 16
M  V30 16 1 11 17
M  V30 17 1 12 18
M  V30 18 1 13 19
M  V30 19 1 13 20
M  V30 20 1 14 21
M  V30 21 1 15 22
M  V30 22 1 16 23
M  V30 23 1 17 24
M  V30 24 2 19 25
M  V30 25 1 19 26
M  V30 26 1 20 27
M  V30 27 1 21 28
M  V30 28 1 23 29
M  V30 29 1 26 30
M  V30 30 1 27 31
M  V30 31 1 28 32
M  V30 32 1 31 33
M  V30 33 1 32 34
M  V30 34 1 33 35
M  V30 35 2 33 36
M  V30 36 1 35 37
M  V30 37 1 36 38
M  V30 38 1 37 39
M  V30 39 1 38 40
M  V30 40 2 39 41
M  V30 41 2 40 42
M  V30 42 1 41 43
M  V30 43 1 43 44
M  V30 44 1 11 16
M  V30 45 1 14 20
M  V30 46 1 28 31
M  V30 47 1 34 36
M  V30 48 2 37 38
M  V30 49 1 41 42
M  V30 50 1 5 45
M  V30 51 1 6 46
M  V30 52 1 7 47
M  V30 53 1 8 48
M  V30 54 1 9 49
M  V30 55 1 9 50
M  V30 56 1 13 51
M  V30 57 1 14 52
M  V30 58 1 18 53
M  V30 59 1 18 54
M  V30 60 1 18 55
M  V30 61 1 20 56
M  V30 62 1 21 57
M  V30 63 1 21 58
M  V30 64 1 22 59
M  V30 65 1 22 60
M  V30 66 1 22 61
M  V30 67 1 24 62
M  V30 68 1 24 63
M  V30 69 1 24 64
M  V30 70 1 27 65
M  V30 71 1 27 66
M  V30 72 1 28 67
M  V30 73 1 29 68
M  V30 74 1 29 69
M  V30 75 1 29 70
M  V30 76 1 30 71
M  V30 77 1 30 72
M  V30 78 1 30 73
M  V30 79 1 31 74
M  V30 80 1 32 75
M  V30 81 1 32 76
M  V30 82 1 34 77
M  V30 83 1 34 78
M  V30 84 1 35 79
M  V30 85 1 39 80
M  V30 86 1 40 81
M  V30 87 1 42 82
M  V30 88 1 44 83
M  V30 89 1 44 84
M  V30 90 1 44 85
M  V30 END BOND
M  V30 BEGIN COLLECTION
M  V30 MDLV30/STEABS ATOMS=(7 5 8 13 14 20 28 31)
M  V30 END COLLECTION
M  V30 END CTAB
M  END
>  <Structure No>
3160

>  <LogS>
-3.9208

>  <MMFF94 Energy>
107.95

$$$$
Compound 3161
Actelion Java MolfileCreator 2.0

  0  0  0  0  0  0              0 V3000
M  V30 BEGIN CTAB
M  V30 COUNTS 28 29 0 0 0
M  V30 BEGIN ATOM
M  V30 1 Cl -1.3438 -2.8573 0.9237 0
M  V30 2 C -2.1018 -1.2832 0.7156 0
M  V30 3 C -1.3439 -0.1531 0.3572 0
M  V30 4 C -3.4873 -1.1757 0.8846 0
M  V30 5 N 0.0825 -0.2557 0.212 0
M  V30 6 C -1.9913 1.0837 0.2041 0
M  V30 7 C -4.1379 0.0591 0.7136 0
M  V30 8 C 0.8171 0.3522 -0.8649 0
M  V30 9 C -3.3739 1.1876 0.375 0
M  V30 10 N -5.5626 0.1701 0.8879 0 CHG=1
M  V30 11 O 0.2155 1.0365 -1.7371 0
M  V30 12 C 2.2845 0.1959 -0.9635 0
M  V30 13 O -6.2472 -0.8287 1.1926 0
M  V30 14 O -6.1957 1.3806 0.7197 0 CHG=-1
M  V30 15 C 2.9136 -1.0468 -0.7385 0
M  V30 16 C 3.0707 1.3062 -1.3179 0
M  V30 17 O 2.1683 -2.1869 -0.4577 0 CHG=-1
M  V30 18 C 4.3061 -1.1529 -0.828 0
M  V30 19 C 4.4617 1.1903 -1.4109 0
M  V30 20 C 5.0785 -0.038 -1.1604 0
M  V30 21 Cl 5.4322 2.5877 -1.8387 0
M  V30 22 H -4.0544 -2.0593 1.1491 0
M  V30 23 H 0.6022 -0.8232 0.9177 0
M  V30 24 H -1.4242 1.9768 -0.0236 0
M  V30 25 H -3.8436 2.1547 0.2496 0
M  V30 26 H 2.605 2.2663 -1.5063 0
M  V30 27 H 4.7889 -2.1058 -0.6515 0
M  V30 28 H 6.1546 -0.1319 -1.2308 0
M  V30 END ATOM
M  V30 BEGIN BOND
M  V30 1 1 1 2
M  V30 2 2 2 3
M  V30 3 1 2 4
M  V30 4 1 3 5
M  V30 5 1 3 6
M  V30 6 2 4 7
M  V30 7 1 5 8
M  V30 8 2 6 9
M  V30 9 1 7 10
M  V30 10 2 8 11
M  V30 11 1 8 12
M  V30 12 2 10 13
M  V30 13 1 10 14
M  V30 14 2 12 15
M  V30 15 1 12 16
M  V30 16 1 15 17
M  V30 17 1 15 18
M  V30 18 2 16 19
M  V30 19 2 18 20
M  V30 20 1 19 21
M  V30 21 1 7 9
M  V30 22 1 19 20
M  V30 23 1 4 22
M  V30 24 1 5 23
M  V30 25 1 6 24
M  V30 26 1 9 25
M  V30 27 1 16 26
M  V30 28 1 18 27
M  V30 29 1 20 28
M  V30 END BOND
M  V30 END CTAB
M  END
>  <Structure No>
3161

>  <LogS>
-5.3106

>  <MMFF94 Energy>
43.132

$$$$
Compound 3162
Actelion Java MolfileCreator 2.0

  0  0  0  0  0  0              0 V3000
M  V30 BEGIN CTAB
M  V30 COUNTS 26 27 0 0 0
M  V30 BEGIN ATOM
M  V30 1 O -3.2828 1.7967 -1.484 0
M  V30 2 C -2.6755 0.7211 -0.8404 0
M  V30 3 C -1.351 0.8272 -0.3666 0
M  V30 4 C -3.3979 -0.4818 -0.666 0
M  V30 5 C -0.796 -0.2819 0.2717 0
M  V30 6 C -2.8072 -1.5848 -0.0228 0
M  V30 7 C -1.4981 -1.4482 0.4354 0
M  V30 8 C 0.4532 -0.4868 0.8239 0
M  V30 9 N -0.7498 -2.3786 1.0538 0
M  V30 10 C 0.4498 -1.799 1.2876 0
M  V30 11 C 1.6149 0.4612 0.8333 0
M  V30 12 C 2.3723 0.3985 -0.4976 0
M  V30 13 N 3.5072 1.321 -0.4968 0 CHG=1
M  V30 14 H -2.7936 2.6728 -1.6258 0
M  V30 15 H -0.7828 1.7395 -0.4954 0
M  V30 16 H -4.4136 -0.5587 -1.0325 0
M  V30 17 H -3.3525 -2.5106 0.1083 0
M  V30 18 H -1.029 -3.356 1.2931 0
M  V30 19 H 1.2828 -2.3037 1.7593 0
M  V30 20 H 1.2458 1.4944 1.0104 0
M  V30 21 H 2.2999 0.1941 1.6671 0
M  V30 22 H 1.6843 0.6637 -1.3314 0
M  V30 23 H 2.7407 -0.638 -0.6671 0
M  V30 24 H 4.1754 1.0677 0.267 0
M  V30 25 H 4.0023 1.2548 -1.4153 0
M  V30 26 H 3.1716 2.3027 -0.3629 0
M  V30 END ATOM
M  V30 BEGIN BOND
M  V30 1 1 1 2
M  V30 2 2 2 3
M  V30 3 1 2 4
M  V30 4 1 3 5
M  V30 5 2 4 6
M  V30 6 2 5 7
M  V30 7 1 5 8
M  V30 8 1 7 9
M  V30 9 2 8 10
M  V30 10 1 8 11
M  V30 11 1 11 12
M  V30 12 1 12 13
M  V30 13 1 6 7
M  V30 14 1 9 10
M  V30 15 1 1 14
M  V30 16 1 3 15
M  V30 17 1 4 16
M  V30 18 1 6 17
M  V30 19 1 9 18
M  V30 20 1 10 19
M  V30 21 1 11 20
M  V30 22 1 11 21
M  V30 23 1 12 22
M  V30 24 1 12 23
M  V30 25 1 13 24
M  V30 26 1 13 25
M  V30 27 1 13 26
M  V30 END BOND
M  V30 END CTAB
M  END
>  <Structure No>
3162

>  <LogS>
-0.945

>  <MMFF94 Energy>
10.952

$$$$
Compound 3163
Actelion Java MolfileCreator 2.0

  0  0  0  0  0  0              0 V3000
M  V30 BEGIN CTAB
M  V30 COUNTS 14 14 0 0 0
M  V30 BEGIN ATOM
M  V30 1 Cl 3.4878 -1.1616 0.0 0
M  V30 2 C 1.828 -0.5808 -0.0257 0
M  V30 3 C 1.5214 0.7279 -0.4179 0
M  V30 4 C 0.8018 -1.4477 0.3537 0
M  V30 5 Cl 2.7841 1.8521 -0.9034 0
M  V30 6 C 0.1915 1.1584 -0.4274 0
M  V30 7 C -0.5339 -1.0272 0.3481 0
M  V30 8 C -0.8581 0.2969 -0.0472 0
M  V30 9 Cl -1.7363 -2.2138 0.848 0
M  V30 10 C -2.2546 0.8169 -0.0789 0
M  V30 11 O -2.4798 2.003 -0.44 0
M  V30 12 O -3.3368 0.0255 0.2822 0 CHG=-1
M  V30 13 H 1.045 -2.4588 0.6563 0
M  V30 14 H -0.0175 2.1756 -0.735 0
M  V30 END ATOM
M  V30 BEGIN BOND
M  V30 1 1 1 2
M  V30 2 2 2 3
M  V30 3 1 2 4
M  V30 4 1 3 5
M  V30 5 1 3 6
M  V30 6 2 4 7
M  V30 7 2 6 8
M  V30 8 1 7 9
M  V30 9 1 8 10
M  V30 10 2 10 11
M  V30 11 1 10 12
M  V30 12 1 7 8
M  V30 13 1 4 13
M  V30 14 1 6 14
M  V30 END BOND
M  V30 END CTAB
M  END
>  <Structure No>
3163

>  <LogS>
-2.4446

>  <MMFF94 Energy>
20.154

$$$$
Compound 3164
Actelion Java MolfileCreator 2.0

  0  0  0  0  0  0              0 V3000
M  V30 BEGIN CTAB
M  V30 COUNTS 14 14 0 0 0
M  V30 BEGIN ATOM
M  V30 1 Cl -1.6397 2.3306 -0.7764 0
M  V30 2 C -0.4916 1.061 -0.3571 0
M  V30 3 C -0.8833 -0.2269 0.0976 0
M  V30 4 C 0.8683 1.3713 -0.4905 0
M  V30 5 C -2.3052 -0.6343 0.2661 0
M  V30 6 C 0.1229 -1.1649 0.4044 0
M  V30 7 C 1.8474 0.4263 -0.1808 0
M  V30 8 O -3.2507 0.1555 0.0097 0
M  V30 9 O -2.6163 -1.9128 0.716 0 CHG=-1
M  V30 10 C 1.4737 -0.84 0.2661 0
M  V30 11 Cl 3.5455 0.8312 -0.3535 0
M  V30 12 H 1.1659 2.3533 -0.8372 0
M  V30 13 H -0.1309 -2.1576 0.7541 0
M  V30 14 H 2.2299 -1.5763 0.5075 0
M  V30 END ATOM
M  V30 BEGIN BOND
M  V30 1 1 1 2
M  V30 2 2 2 3
M  V30 3 1 2 4
M  V30 4 1 3 5
M  V30 5 1 3 6
M  V30 6 2 4 7
M  V30 7 2 5 8
M  V30 8 1 5 9
M  V30 9 2 6 10
M  V30 10 1 7 11
M  V30 11 1 7 10
M  V30 12 1 4 12
M  V30 13 1 6 13
M  V30 14 1 10 14
M  V30 END BOND
M  V30 END CTAB
M  END
>  <Structure No>
3164

>  <LogS>
-2.6003

>  <MMFF94 Energy>
19.755

$$$$
Compound 3165
Actelion Java MolfileCreator 2.0

  0  0  0  0  0  0              0 V3000
M  V30 BEGIN CTAB
M  V30 COUNTS 27 27 0 0 0
M  V30 BEGIN ATOM
M  V30 1 O -3.5095 2.1825 -0.2336 0
M  V30 2 C -2.7575 1.0107 -0.1719 0
M  V30 3 C -3.3805 -0.195 0.1713 0
M  V30 4 C -1.3834 1.0337 -0.4501 0
M  V30 5 O -4.7467 -0.2139 0.4466 0
M  V30 6 C -2.6272 -1.3736 0.2375 0
M  V30 7 C -0.6214 -0.1471 -0.3927 0
M  V30 8 C -1.258 -1.3511 -0.0395 0
M  V30 9 C 0.867 -0.1071 -0.6824 0 CFG=2
M  V30 10 O 1.1906 -1.0 -1.7207 0
M  V30 11 C 1.6898 -0.3853 0.6003 0
M  V30 12 N 3.1461 -0.3293 0.3722 0 CHG=1
M  V30 13 C 3.6412 1.044 0.2263 0
M  V30 14 H -3.088 3.0709 -0.4785 0
M  V30 15 H -0.9127 1.9738 -0.71 0
M  V30 16 H -5.2249 -1.0711 0.6982 0
M  V30 17 H -3.1019 -2.3086 0.5064 0
M  V30 18 H -0.6978 -2.2743 0.0277 0
M  V30 19 H 1.1259 0.9107 -1.0402 0
M  V30 20 H 1.1535 -1.9231 -1.359 0
M  V30 21 H 1.4302 -1.397 0.9841 0
M  V30 22 H 1.396 0.3368 1.3956 0
M  V30 23 H 3.6226 -0.7565 1.2006 0
M  V30 24 H 3.4102 -0.8874 -0.4721 0
M  V30 25 H 3.2988 1.4903 -0.7306 0
M  V30 26 H 4.7525 1.0392 0.2142 0
M  V30 27 H 3.3101 1.6799 1.0764 0
M  V30 END ATOM
M  V30 BEGIN BOND
M  V30 1 1 1 2
M  V30 2 2 2 3
M  V30 3 1 2 4
M  V30 4 1 3 5
M  V30 5 1 3 6
M  V30 6 2 4 7
M  V30 7 2 6 8
M  V30 8 1 7 9
M  V30 9 1 9 10
M  V30 10 1 9 11
M  V30 11 1 11 12
M  V30 12 1 12 13
M  V30 13 1 7 8
M  V30 14 1 1 14
M  V30 15 1 4 15
M  V30 16 1 5 16
M  V30 17 1 6 17
M  V30 18 1 8 18
M  V30 19 1 9 19
M  V30 20 1 10 20
M  V30 21 1 11 21
M  V30 22 1 11 22
M  V30 23 1 12 23
M  V30 24 1 12 24
M  V30 25 1 13 25
M  V30 26 1 13 26
M  V30 27 1 13 27
M  V30 END BOND
M  V30 BEGIN COLLECTION
M  V30 MDLV30/STEABS ATOMS=(1 9)
M  V30 END COLLECTION
M  V30 END CTAB
M  END
>  <Structure No>
3165

>  <LogS>
0.0

>  <MMFF94 Energy>
44.79

$$$$
Compound 3166
Actelion Java MolfileCreator 2.0

  0  0  0  0  0  0              0 V3000
M  V30 BEGIN CTAB
M  V30 COUNTS 27 27 0 0 0
M  V30 BEGIN ATOM
M  V30 1 O -3.1979 -1.091 -2.105 0
M  V30 2 C -2.6223 -0.5921 -0.9375 0
M  V30 3 C -3.3982 -0.4523 0.2251 0
M  V30 4 C -1.2679 -0.2282 -0.9194 0
M  V30 5 O -4.7472 -0.8052 0.2391 0
M  V30 6 C -2.8145 0.0485 1.3924 0
M  V30 7 C -0.6764 0.2747 0.2542 0
M  V30 8 C -1.4652 0.4105 1.4094 0
M  V30 9 C 0.7878 0.6727 0.2794 0 CFG=2
M  V30 10 O 1.0057 1.7596 -0.586 0
M  V30 11 C 1.7056 -0.5312 -0.0581 0
M  V30 12 N 3.1061 -0.3222 0.3548 0 CHG=1
M  V30 13 C 3.8204 0.6221 -0.5111 0
M  V30 14 H -2.6603 -1.2017 -2.9568 0
M  V30 15 H -0.6792 -0.3415 -1.8207 0
M  V30 16 H -5.216 -1.1724 -0.5802 0
M  V30 17 H -3.4095 0.1582 2.2903 0
M  V30 18 H -1.038 0.7964 2.3266 0
M  V30 19 H 1.0455 1.0144 1.3055 0
M  V30 20 H 0.9016 1.4373 -1.5187 0
M  V30 21 H 1.6518 -0.7786 -1.1418 0
M  V30 22 H 1.3183 -1.4233 0.4846 0
M  V30 23 H 3.1502 0.0093 1.3466 0
M  V30 24 H 3.6006 -1.2435 0.303 0
M  V30 25 H 3.6701 0.3747 -1.5847 0
M  V30 26 H 3.4909 1.6636 -0.3142 0
M  V30 27 H 4.9099 0.573 -0.2965 0
M  V30 END ATOM
M  V30 BEGIN BOND
M  V30 1 1 1 2
M  V30 2 2 2 3
M  V30 3 1 2 4
M  V30 4 1 3 5
M  V30 5 1 3 6
M  V30 6 2 4 7
M  V30 7 2 6 8
M  V30 8 1 7 9
M  V30 9 1 9 10
M  V30 10 1 9 11
M  V30 11 1 11 12
M  V30 12 1 12 13
M  V30 13 1 7 8
M  V30 14 1 1 14
M  V30 15 1 4 15
M  V30 16 1 5 16
M  V30 17 1 6 17
M  V30 18 1 8 18
M  V30 19 1 9 19
M  V30 20 1 10 20
M  V30 21 1 11 21
M  V30 22 1 11 22
M  V30 23 1 12 23
M  V30 24 1 12 24
M  V30 25 1 13 25
M  V30 26 1 13 26
M  V30 27 1 13 27
M  V30 END BOND
M  V30 BEGIN COLLECTION
M  V30 MDLV30/STEABS ATOMS=(1 9)
M  V30 END COLLECTION
M  V30 END CTAB
M  END
>  <Structure No>
3166

>  <LogS>
-3.0077

>  <MMFF94 Energy>
40.084

$$$$
Compound 3167
Actelion Java MolfileCreator 2.0

  0  0  0  0  0  0              0 V3000
M  V30 BEGIN CTAB
M  V30 COUNTS 21 21 0 0 0
M  V30 BEGIN ATOM
M  V30 1 S 3.3369 2.3031 -0.8731 0
M  V30 2 C 2.5013 1.0102 -0.3086 0
M  V30 3 N 3.1368 -0.1794 -0.1158 0
M  V30 4 N 1.1707 1.1252 -0.0366 0
M  V30 5 C 2.4575 -1.2648 0.343 0
M  V30 6 C 0.4579 0.0647 0.4391 0
M  V30 7 O 3.0565 -2.3607 0.5099 0
M  V30 8 C 1.0961 -1.1659 0.6273 0
M  V30 9 C -1.0178 0.2011 0.7005 0
M  V30 10 C -1.8163 -0.0845 -0.5747 0
M  V30 11 C -3.3158 0.0555 -0.3296 0
M  V30 12 H 4.1578 -0.2661 -0.3256 0
M  V30 13 H 0.6878 2.0393 -0.1958 0
M  V30 14 H 0.5461 -2.0285 0.9852 0
M  V30 15 H -1.3274 -0.5023 1.5048 0
M  V30 16 H -1.2358 1.2317 1.0572 0
M  V30 17 H -1.6039 -1.1182 -0.9257 0
M  V30 18 H -1.514 0.6275 -1.3737 0
M  V30 19 H -3.6486 -0.6643 0.4482 0
M  V30 20 H -3.5582 1.0888 -0.0014 0
M  V30 21 H -3.8674 -0.1569 -1.2695 0
M  V30 END ATOM
M  V30 BEGIN BOND
M  V30 1 2 1 2
M  V30 2 1 2 3
M  V30 3 1 2 4
M  V30 4 1 3 5
M  V30 5 1 4 6
M  V30 6 2 5 7
M  V30 7 1 5 8
M  V30 8 1 6 9
M  V30 9 1 9 10
M  V30 10 1 10 11
M  V30 11 2 6 8
M  V30 12 1 3 12
M  V30 13 1 4 13
M  V30 14 1 8 14
M  V30 15 1 9 15
M  V30 16 1 9 16
M  V30 17 1 10 17
M  V30 18 1 10 18
M  V30 19 1 11 19
M  V30 20 1 11 20
M  V30 21 1 11 21
M  V30 END BOND
M  V30 END CTAB
M  END
>  <Structure No>
3167

>  <LogS>
-2.1504

>  <MMFF94 Energy>
-78.442

$$$$
Compound 3168
Actelion Java MolfileCreator 2.0

  0  0  0  0  0  0              0 V3000
M  V30 BEGIN CTAB
M  V30 COUNTS 19 18 0 0 0
M  V30 BEGIN ATOM
M  V30 1 Cl -1.6184 2.3474 0.8899 0
M  V30 2 C -2.2473 0.6898 0.6979 0
M  V30 3 C -1.4575 -0.097 -0.3474 0
M  V30 4 N -0.0756 -0.3413 0.1346 0
M  V30 5 C 0.9152 0.4993 -0.5762 0
M  V30 6 C 0.271 -1.7701 0.0234 0
M  V30 7 C 2.1162 0.7901 0.3241 0
M  V30 8 Cl 3.2308 1.9207 -0.4849 0
M  V30 9 H -3.3106 0.7553 0.3839 0
M  V30 10 H -2.2026 0.1675 1.6774 0
M  V30 11 H -1.4807 0.4416 -1.322 0
M  V30 12 H -2.0109 -1.0489 -0.5198 0
M  V30 13 H 1.2532 0.0172 -1.5216 0
M  V30 14 H 0.4745 1.4834 -0.8508 0
M  V30 15 H 1.2908 -1.9611 0.4153 0
M  V30 16 H -0.4271 -2.3781 0.6383 0
M  V30 17 H 0.2169 -2.1135 -1.0337 0
M  V30 18 H 2.6733 -0.1409 0.553 0
M  V30 19 H 1.7716 1.2484 1.2756 0
M  V30 END ATOM
M  V30 BEGIN BOND
M  V30 1 1 1 2
M  V30 2 1 2 3
M  V30 3 1 3 4
M  V30 4 1 4 5
M  V30 5 1 4 6
M  V30 6 1 5 7
M  V30 7 1 7 8
M  V30 8 1 2 9
M  V30 9 1 2 10
M  V30 10 1 3 11
M  V30 11 1 3 12
M  V30 12 1 5 13
M  V30 13 1 5 14
M  V30 14 1 6 15
M  V30 15 1 6 16
M  V30 16 1 6 17
M  V30 17 1 7 18
M  V30 18 1 7 19
M  V30 END BOND
M  V30 END CTAB
M  END
>  <Structure No>
3168

>  <LogS>
-1.1141

>  <MMFF94 Energy>
38.439

$$$$
Compound 3169
Actelion Java MolfileCreator 2.0

  0  0  0  0  0  0              0 V3000
M  V30 BEGIN CTAB
M  V30 COUNTS 53 56 0 0 0
M  V30 BEGIN ATOM
M  V30 1 O -6.423 -0.4056 0.5678 0
M  V30 2 C -5.1851 -0.2541 0.3917 0
M  V30 3 C -4.2349 -0.8331 1.3501 0
M  V30 4 C -4.6854 0.4444 -0.8315 0
M  V30 5 C -2.9084 -0.6417 1.2354 0
M  V30 6 C -3.3447 1.1202 -0.5444 0
M  V30 7 C -2.3165 0.1246 0.0524 0 CFG=1
M  V30 8 C -1.991 -1.4304 2.1383 0
M  V30 9 C -1.008 0.8628 0.4834 0 CFG=1
M  V30 10 C -0.7 -0.6708 2.4553 0
M  V30 11 C -0.0169 -0.076 1.2018 0 CFG=1
M  V30 12 C -0.2677 1.5717 -0.6621 0
M  V30 13 C 0.5805 -1.1627 0.2475 0 CFG=1
M  V30 14 C 0.2733 0.5856 -1.7008 0
M  V30 15 C 1.0896 -0.6193 -1.1249 0 CFG=1
M  V30 16 C 1.8185 -1.8389 0.8816 0
M  V30 17 C 2.5845 -0.2657 -0.843 0 CFG=2
M  V30 18 C 0.9773 -1.7753 -2.1686 0
M  V30 19 C 3.0537 -1.3781 0.1053 0
M  V30 20 O 2.6632 1.0015 -0.1744 0
M  V30 21 C 3.4056 -0.2202 -2.0765 0
M  V30 22 C 3.843 1.6493 0.2216 0
M  V30 23 C 4.0745 -0.1808 -3.0789 0
M  V30 24 O 4.9745 1.1426 -0.0082 0
M  V30 25 C 3.7505 2.9361 0.9674 0
M  V30 26 H -4.631 -1.4391 2.157 0
M  V30 27 H -4.5638 -0.2995 -1.6481 0
M  V30 28 H -5.4213 1.2108 -1.1586 0
M  V30 29 H -3.5068 1.9668 0.1594 0
M  V30 30 H -2.9715 1.5315 -1.5048 0
M  V30 31 H -2.0798 -0.6283 -0.7287 0
M  V30 32 H -1.7566 -2.4026 1.6569 0
M  V30 33 H -2.4936 -1.6602 3.104 0
M  V30 34 H -1.2982 1.658 1.2084 0
M  V30 35 H -0.9434 0.1592 3.1555 0
M  V30 36 H -0.0128 -1.3481 3.0024 0
M  V30 37 H 0.8219 0.553 1.5767 0
M  V30 38 H -0.926 2.31 -1.1627 0
M  V30 39 H 0.5602 2.1784 -0.2422 0
M  V30 40 H -0.1991 -1.9346 0.0751 0
M  V30 41 H 0.9018 1.1461 -2.4264 0
M  V30 42 H -0.5979 0.2183 -2.286 0
M  V30 43 H 1.7224 -2.9448 0.8105 0
M  V30 44 H 1.9496 -1.5834 1.954 0
M  V30 45 H -0.077 -2.1141 -2.2651 0
M  V30 46 H 1.3066 -1.4399 -3.1753 0
M  V30 47 H 1.5858 -2.657 -1.8783 0
M  V30 48 H 3.8451 -1.0319 0.8032 0
M  V30 49 H 3.4677 -2.2393 -0.4662 0
M  V30 50 H 4.6613 -0.1463 -3.9587 0
M  V30 51 H 4.5859 3.6073 0.6764 0
M  V30 52 H 3.8024 2.7354 2.0575 0
M  V30 53 H 2.7885 3.4397 0.7357 0
M  V30 END ATOM
M  V30 BEGIN BOND
M  V30 1 2 1 2
M  V30 2 1 2 3
M  V30 3 1 2 4
M  V30 4 2 3 5
M  V30 5 1 4 6
M  V30 6 1 5 7
M  V30 7 1 5 8
M  V30 8 1 7 9
M  V30 9 1 8 10
M  V30 10 1 9 11
M  V30 11 1 9 12
M  V30 12 1 11 13
M  V30 13 1 12 14
M  V30 14 1 13 15
M  V30 15 1 13 16
M  V30 16 1 15 17
M  V30 17 1 15 18
M  V30 18 1 16 19
M  V30 19 1 17 20
M  V30 20 1 17 21
M  V30 21 1 20 22
M  V30 22 3 21 23
M  V30 23 2 22 24
M  V30 24 1 22 25
M  V30 25 1 6 7
M  V30 26 1 10 11
M  V30 27 1 14 15
M  V30 28 1 17 19
M  V30 29 1 3 26
M  V30 30 1 4 27
M  V30 31 1 4 28
M  V30 32 1 6 29
M  V30 33 1 6 30
M  V30 34 1 7 31
M  V30 35 1 8 32
M  V30 36 1 8 33
M  V30 37 1 9 34
M  V30 38 1 10 35
M  V30 39 1 10 36
M  V30 40 1 11 37
M  V30 41 1 12 38
M  V30 42 1 12 39
M  V30 43 1 13 40
M  V30 44 1 14 41
M  V30 45 1 14 42
M  V30 46 1 16 43
M  V30 47 1 16 44
M  V30 48 1 18 45
M  V30 49 1 18 46
M  V30 50 1 18 47
M  V30 51 1 19 48
M  V30 52 1 19 49
M  V30 53 1 23 50
M  V30 54 1 25 51
M  V30 55 1 25 52
M  V30 56 1 25 53
M  V30 END BOND
M  V30 BEGIN COLLECTION
M  V30 MDLV30/STEABS ATOMS=(6 7 9 11 13 15 17)
M  V30 END COLLECTION
M  V30 END CTAB
M  END
>  <Structure No>
3169

>  <LogS>
-4.8041

>  <MMFF94 Energy>
62.244

$$$$
Compound 3170
Actelion Java MolfileCreator 2.0

  0  0  0  0  0  0              0 V3000
M  V30 BEGIN CTAB
M  V30 COUNTS 61 65 0 0 0
M  V30 BEGIN ATOM
M  V30 1 S -1.6453 2.6335 -1.563 0
M  V30 2 C -1.6536 3.9118 -0.2969 0
M  V30 3 C -1.992 1.2347 -0.4162 0 CFG=2
M  V30 4 O -2.7126 4.417 0.0414 0
M  V30 5 C -0.3786 4.3395 0.3576 0
M  V30 6 C -0.7225 0.5671 0.2326 0 CFG=1
M  V30 7 C -2.8981 0.2361 -1.1256 0
M  V30 8 C -0.9207 -0.9045 0.8111 0 CFG=1
M  V30 9 C 0.6359 0.8011 -0.5111 0 CFG=1
M  V30 10 C -3.2853 -0.7936 -0.1089 0
M  V30 11 C -2.1864 -1.7518 0.3373 0 CFG=2
M  V30 12 C 0.3947 -1.7203 0.7589 0
M  V30 13 C 1.8928 0.3648 0.3012 0 CFG=1
M  V30 14 C 0.7494 0.1474 -1.8993 0
M  V30 15 C -4.4364 -0.6265 0.5703 0
M  V30 16 C -2.6848 -2.6958 1.4925 0
M  V30 17 C -1.88 -2.6981 -0.8584 0
M  V30 18 C 1.5956 -0.8875 1.2075 0
M  V30 19 C 2.9374 0.0932 -0.8303 0 CFG=1
M  V30 20 C 2.377 1.5162 1.2254 0
M  V30 21 C 2.1269 -0.5072 -1.9804 0
M  V30 22 C -4.6793 -1.2985 1.8485 0
M  V30 23 C -3.5546 -1.9952 2.5351 0
M  V30 24 O 3.5012 1.3127 -1.3047 0
M  V30 25 C 4.1792 -0.7688 -0.4542 0
M  V30 26 O -5.8041 -1.2052 2.407 0
M  V30 27 C 4.8469 1.1753 -1.5637 0
M  V30 28 C 5.3594 -0.1645 -1.2221 0
M  V30 29 O 5.549 2.0984 -2.0537 0
M  V30 30 H -2.6071 1.6492 0.4179 0
M  V30 31 H 0.4523 4.3116 -0.3784 0
M  V30 32 H -0.4727 5.3771 0.745 0
M  V30 33 H -0.1476 3.6569 1.2016 0
M  V30 34 H -0.5769 1.1938 1.1437 0
M  V30 35 H -3.7961 0.7575 -1.5283 0
M  V30 36 H -2.3785 -0.2148 -1.9924 0
M  V30 37 H -1.0881 -0.735 1.8984 0
M  V30 38 H 0.746 1.8926 -0.6836 0
M  V30 39 H 0.5904 -2.1132 -0.2522 0
M  V30 40 H 0.3154 -2.601 1.4313 0
M  V30 41 H 0.6596 0.9227 -2.6923 0
M  V30 42 H -0.0348 -0.5988 -2.0825 0
M  V30 43 H -5.1677 0.0997 0.2343 0
M  V30 44 H -3.2991 -3.5263 1.0734 0
M  V30 45 H -1.828 -3.1788 2.0075 0
M  V30 46 H -1.3887 -2.1926 -1.7022 0
M  V30 47 H -1.231 -3.5439 -0.5451 0
M  V30 48 H -2.8216 -3.1415 -1.252 0
M  V30 49 H 2.4669 -1.5645 1.2872 0
M  V30 50 H 1.3881 -0.5699 2.2538 0
M  V30 51 H 3.3172 1.2284 1.7417 0
M  V30 52 H 1.6143 1.7472 1.9992 0
M  V30 53 H 2.5633 2.4547 0.6614 0
M  V30 54 H 2.6034 -0.3085 -2.9661 0
M  V30 55 H 2.0332 -1.6078 -1.8699 0
M  V30 56 H -2.9615 -1.255 3.1108 0
M  V30 57 H -3.9541 -2.7493 3.2481 0
M  V30 58 H 4.4049 -0.6689 0.6291 0
M  V30 59 H 4.0501 -1.8463 -0.6949 0
M  V30 60 H 6.272 -0.0994 -0.591 0
M  V30 61 H 5.5607 -0.7375 -2.1526 0
M  V30 END ATOM
M  V30 BEGIN BOND
M  V30 1 1 1 2
M  V30 2 1 1 3
M  V30 3 2 2 4
M  V30 4 1 2 5
M  V30 5 1 3 6
M  V30 6 1 3 7
M  V30 7 1 6 8
M  V30 8 1 6 9
M  V30 9 1 7 10
M  V30 10 1 8 11
M  V30 11 1 8 12
M  V30 12 1 9 13
M  V30 13 1 9 14
M  V30 14 2 10 15
M  V30 15 1 11 16
M  V30 16 1 11 17
M  V30 17 1 12 18
M  V30 18 1 13 19
M  V30 19 1 13 20
M  V30 20 1 14 21
M  V30 21 1 15 22
M  V30 22 1 16 23
M  V30 23 1 19 24
M  V30 24 1 19 25
M  V30 25 2 22 26
M  V30 26 1 24 27
M  V30 27 1 25 28
M  V30 28 2 27 29
M  V30 29 1 10 11
M  V30 30 1 13 18
M  V30 31 1 19 21
M  V30 32 1 22 23
M  V30 33 1 27 28
M  V30 34 1 3 30
M  V30 35 1 5 31
M  V30 36 1 5 32
M  V30 37 1 5 33
M  V30 38 1 6 34
M  V30 39 1 7 35
M  V30 40 1 7 36
M  V30 41 1 8 37
M  V30 42 1 9 38
M  V30 43 1 12 39
M  V30 44 1 12 40
M  V30 45 1 14 41
M  V30 46 1 14 42
M  V30 47 1 15 43
M  V30 48 1 16 44
M  V30 49 1 16 45
M  V30 50 1 17 46
M  V30 51 1 17 47
M  V30 52 1 17 48
M  V30 53 1 18 49
M  V30 54 1 18 50
M  V30 55 1 20 51
M  V30 56 1 20 52
M  V30 57 1 20 53
M  V30 58 1 21 54
M  V30 59 1 21 55
M  V30 60 1 23 56
M  V30 61 1 23 57
M  V30 62 1 25 58
M  V30 63 1 25 59
M  V30 64 1 28 60
M  V30 65 1 28 61
M  V30 END BOND
M  V30 BEGIN COLLECTION
M  V30 MDLV30/STEABS ATOMS=(7 3 6 8 9 11 13 19)
M  V30 END COLLECTION
M  V30 END CTAB
M  END
>  <Structure No>
3170

>  <LogS>
-4.2773

>  <MMFF94 Energy>
88.15

$$$$
Compound 3171
Actelion Java MolfileCreator 2.0

  0  0  0  0  0  0              0 V3000
M  V30 BEGIN CTAB
M  V30 COUNTS 14 13 0 0 0
M  V30 BEGIN ATOM
M  V30 1 S 2.1109 0.4868 -0.4056 0
M  V30 2 C 0.8894 -0.0499 0.8399 0
M  V30 3 C -0.5441 -0.1231 0.2795 0 CFG=2
M  V30 4 N -0.6567 -1.1219 -0.7917 0 CHG=1
M  V30 5 C -1.019 1.2308 -0.1829 0
M  V30 6 O -1.5773 2.0122 0.6316 0
M  V30 7 O -0.8028 1.6497 -1.4907 0 CHG=-1
M  V30 8 H 3.1772 0.4042 0.5098 0
M  V30 9 H 0.9176 0.6611 1.6937 0
M  V30 10 H 1.1886 -1.0487 1.2232 0
M  V30 11 H -1.2055 -0.444 1.1166 0
M  V30 12 H -0.3594 -2.0589 -0.4343 0
M  V30 13 H -0.063 -0.8665 -1.6136 0
M  V30 14 H -1.6533 -1.1924 -1.1022 0
M  V30 END ATOM
M  V30 BEGIN BOND
M  V30 1 1 1 2
M  V30 2 1 2 3
M  V30 3 1 3 4
M  V30 4 1 3 5
M  V30 5 2 5 6
M  V30 6 1 5 7
M  V30 7 1 1 8
M  V30 8 1 2 9
M  V30 9 1 2 10
M  V30 10 1 3 11
M  V30 11 1 4 12
M  V30 12 1 4 13
M  V30 13 1 4 14
M  V30 END BOND
M  V30 BEGIN COLLECTION
M  V30 MDLV30/STEABS ATOMS=(1 3)
M  V30 END COLLECTION
M  V30 END CTAB
M  END
>  <Structure No>
3171

>  <LogS>
0.3597

>  <MMFF94 Energy>
-7.0696

$$$$
Compound 3172
Actelion Java MolfileCreator 2.0

  0  0  0  0  0  0              0 V3000
M  V30 BEGIN CTAB
M  V30 COUNTS 28 29 0 0 0
M  V30 BEGIN ATOM
M  V30 1 Cl -1.2741 -1.0191 1.954 0
M  V30 2 C -1.8347 -0.0215 0.6182 0
M  V30 3 C -1.1685 0.0461 -0.6345 0
M  V30 4 C -2.9944 0.734 0.8352 0
M  V30 5 C -1.7036 0.8859 -1.6335 0
M  V30 6 C 0.0991 -0.7441 -0.9563 0 CFG=1
M  V30 7 C -3.5048 1.5562 -0.1686 0
M  V30 8 C -2.8601 1.6322 -1.4009 0
M  V30 9 C 1.25 -0.3067 -0.0549 0
M  V30 10 C -0.1622 -2.2697 -1.0345 0
M  V30 11 C 1.7864 0.9827 -0.2352 0
M  V30 12 C 1.7889 -1.1226 0.9632 0
M  V30 13 Cl -1.4868 -2.6317 -2.1776 0
M  V30 14 Cl 1.2891 -3.1364 -1.6137 0
M  V30 15 C 2.8313 1.4419 0.5708 0
M  V30 16 C 2.8343 -0.6587 1.7671 0
M  V30 17 C 3.3564 0.6219 1.5719 0
M  V30 18 Cl 4.667 1.2003 2.5841 0
M  V30 19 H -3.5045 0.6852 1.7892 0
M  V30 20 H -1.226 0.9659 -2.602 0
M  V30 21 H 0.4241 -0.4727 -1.9867 0
M  V30 22 H -4.4013 2.1357 0.0096 0
M  V30 23 H -3.257 2.271 -2.1792 0
M  V30 24 H -0.4531 -2.6856 -0.0507 0
M  V30 25 H 1.3904 1.6358 -1.0034 0
M  V30 26 H 1.4076 -2.1157 1.1511 0
M  V30 27 H 3.2305 2.4363 0.4166 0
M  V30 28 H 3.2363 -1.2964 2.5441 0
M  V30 END ATOM
M  V30 BEGIN BOND
M  V30 1 1 1 2
M  V30 2 2 2 3
M  V30 3 1 2 4
M  V30 4 1 3 5
M  V30 5 1 3 6
M  V30 6 2 4 7
M  V30 7 2 5 8
M  V30 8 1 6 9
M  V30 9 1 6 10
M  V30 10 2 9 11
M  V30 11 1 9 12
M  V30 12 1 10 13
M  V30 13 1 10 14
M  V30 14 1 11 15
M  V30 15 2 12 16
M  V30 16 2 15 17
M  V30 17 1 17 18
M  V30 18 1 7 8
M  V30 19 1 16 17
M  V30 20 1 4 19
M  V30 21 1 5 20
M  V30 22 1 6 21
M  V30 23 1 7 22
M  V30 24 1 8 23
M  V30 25 1 10 24
M  V30 26 1 11 25
M  V30 27 1 12 26
M  V30 28 1 15 27
M  V30 29 1 16 28
M  V30 END BOND
M  V30 BEGIN COLLECTION
M  V30 MDLV30/STEABS ATOMS=(1 6)
M  V30 END COLLECTION
M  V30 END CTAB
M  END
>  <Structure No>
3172

>  <LogS>
-6.5052

>  <MMFF94 Energy>
71.65

$$$$
Compound 3173
Actelion Java MolfileCreator 2.0

  0  0  0  0  0  0              0 V3000
M  V30 BEGIN CTAB
M  V30 COUNTS 27 28 0 0 0
M  V30 BEGIN ATOM
M  V30 1 N 2.2909 0.3157 -1.8166 0
M  V30 2 C 1.086 -0.0481 -1.3023 0
M  V30 3 C 3.3983 0.4251 -1.0377 0
M  V30 4 C 0.954 -0.3322 0.0711 0
M  V30 5 C 3.3181 0.1639 0.3296 0
M  V30 6 C 2.0938 -0.2117 0.8838 0
M  V30 7 C -0.3888 -0.7104 0.7007 0 CFG=1
M  V30 8 N -1.3379 0.4181 0.8275 0 CHG=1 CFG=2
M  V30 9 C -1.1198 -1.7851 -0.1125 0
M  V30 10 C -2.1743 0.3935 -0.3783 0
M  V30 11 C -0.7288 1.7395 1.0668 0
M  V30 12 C -2.2412 -1.057 -0.8445 0
M  V30 13 H 0.2383 -0.1175 -1.9676 0
M  V30 14 H 4.3409 0.7179 -1.4802 0
M  V30 15 H 4.1963 0.255 0.9555 0
M  V30 16 H 2.0346 -0.4032 1.9479 0
M  V30 17 H -0.1918 -1.1323 1.7142 0
M  V30 18 H -1.9622 0.2155 1.6464 0
M  V30 19 H -0.4521 -2.3213 -0.8222 0
M  V30 20 H -1.5605 -2.5394 0.5765 0
M  V30 21 H -1.7344 1.0187 -1.1878 0
M  V30 22 H -3.1946 0.7821 -0.1594 0
M  V30 23 H -0.0607 1.6979 1.9543 0
M  V30 24 H -0.1434 2.0889 0.1888 0
M  V30 25 H -1.5223 2.4911 1.2715 0
M  V30 26 H -2.1052 -1.1223 -1.946 0
M  V30 27 H -3.225 -1.5012 -0.5766 0
M  V30 END ATOM
M  V30 BEGIN BOND
M  V30 1 2 1 2
M  V30 2 1 1 3
M  V30 3 1 2 4
M  V30 4 2 3 5
M  V30 5 2 4 6
M  V30 6 1 4 7
M  V30 7 1 7 8
M  V30 8 1 7 9
M  V30 9 1 8 10
M  V30 10 1 8 11
M  V30 11 1 9 12
M  V30 12 1 5 6
M  V30 13 1 10 12
M  V30 14 1 2 13
M  V30 15 1 3 14
M  V30 16 1 5 15
M  V30 17 1 6 16
M  V30 18 1 7 17
M  V30 19 1 8 18
M  V30 20 1 9 19
M  V30 21 1 9 20
M  V30 22 1 10 21
M  V30 23 1 10 22
M  V30 24 1 11 23
M  V30 25 1 11 24
M  V30 26 1 11 25
M  V30 27 1 12 26
M  V30 28 1 12 27
M  V30 END BOND
M  V30 BEGIN COLLECTION
M  V30 MDLV30/STEABS ATOMS=(2 7 8)
M  V30 END COLLECTION
M  V30 END CTAB
M  END
>  <Structure No>
3173

>  <LogS>
0.7898

>  <MMFF94 Energy>
25.658

$$$$
Compound 3174
Actelion Java MolfileCreator 2.0

  0  0  0  0  0  0              0 V3000
M  V30 BEGIN CTAB
M  V30 COUNTS 35 36 0 0 0
M  V30 BEGIN ATOM
M  V30 1 N 1.5811 -0.079 -0.158 0
M  V30 2 N 0.7124 0.819 -0.4011 0
M  V30 3 C 2.9851 0.1526 -0.3246 0
M  V30 4 C -0.6914 0.5874 -0.2344 0
M  V30 5 C 3.8816 -0.8841 -0.0356 0
M  V30 6 C 3.4812 1.3927 -0.7657 0
M  V30 7 C -1.1884 -0.6486 0.2085 0
M  V30 8 C -1.5869 1.621 -0.5212 0
M  V30 9 C 5.2641 -0.6973 -0.1952 0
M  V30 10 C 4.8575 1.5874 -0.9083 0
M  V30 11 C -2.5643 -0.843 0.3606 0
M  V30 12 C -2.9633 1.4306 -0.3698 0
M  V30 13 C 5.7475 0.5501 -0.6184 0
M  V30 14 C 6.2204 -1.7991 0.1539 0
M  V30 15 C -3.4773 0.1939 0.0741 0
M  V30 16 N -4.907 -0.0062 0.2319 0
M  V30 17 C -5.8112 1.1425 0.3697 0
M  V30 18 C -5.4732 -1.3609 0.2562 0
M  V30 19 H 3.5002 -1.8365 0.3132 0
M  V30 20 H 2.8086 2.2095 -0.9944 0
M  V30 21 H -0.5149 -1.4641 0.4393 0
M  V30 22 H -1.216 2.5784 -0.8656 0
M  V30 23 H 5.2356 2.5459 -1.2404 0
M  V30 24 H -2.9051 -1.8062 0.714 0
M  V30 25 H -3.6199 2.2544 -0.613 0
M  V30 26 H 6.8121 0.7189 -0.7246 0
M  V30 27 H 7.1449 -1.7244 -0.4572 0
M  V30 28 H 5.7609 -2.7919 -0.039 0
M  V30 29 H 6.4898 -1.7271 1.2284 0
M  V30 30 H -6.8272 0.8281 0.69 0
M  V30 31 H -5.4203 1.8407 1.1401 0
M  V30 32 H -5.9022 1.67 -0.6028 0
M  V30 33 H -5.2075 -1.8636 1.2096 0
M  V30 34 H -5.0814 -1.9494 -0.6004 0
M  V30 35 H -6.5803 -1.3437 0.1701 0
M  V30 END ATOM
M  V30 BEGIN BOND
M  V30 1 2 1 2
M  V30 2 1 1 3
M  V30 3 1 2 4
M  V30 4 2 3 5
M  V30 5 1 3 6
M  V30 6 2 4 7
M  V30 7 1 4 8
M  V30 8 1 5 9
M  V30 9 2 6 10
M  V30 10 1 7 11
M  V30 11 2 8 12
M  V30 12 2 9 13
M  V30 13 1 9 14
M  V30 14 2 11 15
M  V30 15 1 15 16
M  V30 16 1 16 17
M  V30 17 1 16 18
M  V30 18 1 10 13
M  V30 19 1 12 15
M  V30 20 1 5 19
M  V30 21 1 6 20
M  V30 22 1 7 21
M  V30 23 1 8 22
M  V30 24 1 10 23
M  V30 25 1 11 24
M  V30 26 1 12 25
M  V30 27 1 13 26
M  V30 28 1 14 27
M  V30 29 1 14 28
M  V30 30 1 14 29
M  V30 31 1 17 30
M  V30 32 1 17 31
M  V30 33 1 17 32
M  V30 34 1 18 33
M  V30 35 1 18 34
M  V30 36 1 18 35
M  V30 END BOND
M  V30 END CTAB
M  END
>  <Structure No>
3174

>  <LogS>
-5.7769

>  <MMFF94 Energy>
43.678

$$$$
Compound 3175
Actelion Java MolfileCreator 2.0

  0  0  0  0  0  0              0 V3000
M  V30 BEGIN CTAB
M  V30 COUNTS 15 15 0 0 0
M  V30 BEGIN ATOM
M  V30 1 S -2.5555 -2.2358 -0.0797 0
M  V30 2 C -1.5324 -0.9556 -0.0289 0
M  V30 3 N -2.0301 0.3119 0.0197 0
M  V30 4 N -0.1848 -1.1596 -0.0397 0
M  V30 5 C -1.1963 1.3861 0.0524 0
M  V30 6 C 0.6832 -0.1097 0.0107 0
M  V30 7 O -1.6704 2.5529 0.0894 0
M  V30 8 C 0.1849 1.1964 0.0429 0
M  V30 9 C 2.1628 -0.3496 -0.0395 0
M  V30 10 H -3.0646 0.467 0.0274 0
M  V30 11 H 0.1891 -2.1352 -0.0871 0
M  V30 12 H 0.8558 2.0475 0.0607 0
M  V30 13 H 2.5017 -0.3438 -1.0962 0
M  V30 14 H 2.7073 0.4392 0.5221 0
M  V30 15 H 2.4119 -1.3311 0.4159 0
M  V30 END ATOM
M  V30 BEGIN BOND
M  V30 1 2 1 2
M  V30 2 1 2 3
M  V30 3 1 2 4
M  V30 4 1 3 5
M  V30 5 1 4 6
M  V30 6 2 5 7
M  V30 7 1 5 8
M  V30 8 1 6 9
M  V30 9 2 6 8
M  V30 10 1 3 10
M  V30 11 1 4 11
M  V30 12 1 8 12
M  V30 13 1 9 13
M  V30 14 1 9 14
M  V30 15 1 9 15
M  V30 END BOND
M  V30 END CTAB
M  END
>  <Structure No>
3175

>  <LogS>
-2.4259

>  <MMFF94 Energy>
-77.587

$$$$
Compound 3176
Actelion Java MolfileCreator 2.0

  0  0  0  0  0  0              0 V3000
M  V30 BEGIN CTAB
M  V30 COUNTS 16 15 0 0 0
M  V30 BEGIN ATOM
M  V30 1 O 3.0073 -1.5413 -0.3081 0
M  V30 2 C 2.6231 -0.3488 -0.1822 0
M  V30 3 O 3.3903 0.5479 0.5504 0 CHG=-1
M  V30 4 C 1.3205 0.0889 -0.7735 0
M  V30 5 C 0.1812 -0.1138 0.2295 0
M  V30 6 C -1.1611 0.3355 -0.3627 0
M  V30 7 N -2.2475 0.141 0.5968 0 CHG=1
M  V30 8 H 1.3918 1.163 -1.0509 0
M  V30 9 H 1.1198 -0.4959 -1.6977 0
M  V30 10 H 0.3907 0.4744 1.1502 0
M  V30 11 H 0.1185 -1.1899 0.5043 0
M  V30 12 H -1.1043 1.412 -0.6396 0
M  V30 13 H -1.3762 -0.2498 -1.2844 0
M  V30 14 H -3.146 0.4557 0.1647 0
M  V30 15 H -2.3287 -0.8711 0.8472 0
M  V30 16 H -2.0707 0.706 1.4593 0
M  V30 END ATOM
M  V30 BEGIN BOND
M  V30 1 2 1 2
M  V30 2 1 2 3
M  V30 3 1 2 4
M  V30 4 1 4 5
M  V30 5 1 5 6
M  V30 6 1 6 7
M  V30 7 1 4 8
M  V30 8 1 4 9
M  V30 9 1 5 10
M  V30 10 1 5 11
M  V30 11 1 6 12
M  V30 12 1 6 13
M  V30 13 1 7 14
M  V30 14 1 7 15
M  V30 15 1 7 16
M  V30 END BOND
M  V30 END CTAB
M  END
>  <Structure No>
3176

>  <LogS>
1.1006

>  <MMFF94 Energy>
-105.02

$$$$
Compound 3177
Actelion Java MolfileCreator 2.0

  0  0  0  0  0  0              0 V3000
M  V30 BEGIN CTAB
M  V30 COUNTS 26 28 0 0 0
M  V30 BEGIN ATOM
M  V30 1 O 1.1495 2.2178 1.7246 0
M  V30 2 C 0.3833 1.2768 1.3872 0
M  V30 3 O -0.2519 0.4652 2.307 0
M  V30 4 C 0.0835 0.8948 -0.0373 0 CFG=2
M  V30 5 C -0.9842 -0.4781 1.6125 0
M  V30 6 C -0.8686 -0.3269 0.1193 0 CFG=2
M  V30 7 C 1.2504 0.2277 -0.8169 0 CFG=2
M  V30 8 C -0.4805 2.1043 -0.8108 0
M  V30 9 O -1.6528 -1.3782 2.1861 0
M  V30 10 C -0.03 -1.4154 -0.606 0 CFG=1
M  V30 11 C -2.267 -0.1881 -0.5167 0
M  V30 12 O 0.5808 -0.6895 -1.6347 0
M  V30 13 C 2.1103 -0.6935 0.0638 0
M  V30 14 C 1.1793 -1.8882 0.217 0
M  V30 15 H 1.8643 0.9429 -1.4063 0
M  V30 16 H -1.373 2.5217 -0.298 0
M  V30 17 H -0.7534 1.822 -1.8494 0
M  V30 18 H 0.2869 2.9056 -0.8691 0
M  V30 19 H -0.6344 -2.2637 -0.9949 0
M  V30 20 H -2.8293 0.6528 -0.0582 0
M  V30 21 H -2.8498 -1.1197 -0.3527 0
M  V30 22 H -2.1927 -0.0247 -1.6123 0
M  V30 23 H 2.4021 -0.2499 1.0381 0
M  V30 24 H 3.0299 -0.9901 -0.4868 0
M  V30 25 H 0.9471 -2.1171 1.2777 0
M  V30 26 H 1.628 -2.789 -0.2559 0
M  V30 END ATOM
M  V30 BEGIN BOND
M  V30 1 2 1 2
M  V30 2 1 2 3
M  V30 3 1 2 4
M  V30 4 1 3 5
M  V30 5 1 4 6
M  V30 6 1 4 7
M  V30 7 1 4 8
M  V30 8 2 5 9
M  V30 9 1 6 10
M  V30 10 1 6 11
M  V30 11 1 7 12
M  V30 12 1 7 13
M  V30 13 1 10 14
M  V30 14 1 5 6
M  V30 15 1 10 12
M  V30 16 1 13 14
M  V30 17 1 7 15
M  V30 18 1 8 16
M  V30 19 1 8 17
M  V30 20 1 8 18
M  V30 21 1 10 19
M  V30 22 1 11 20
M  V30 23 1 11 21
M  V30 24 1 11 22
M  V30 25 1 13 23
M  V30 26 1 13 24
M  V30 27 1 14 25
M  V30 28 1 14 26
M  V30 END BOND
M  V30 BEGIN COLLECTION
M  V30 MDLV30/STEABS ATOMS=(4 4 6 7 10)
M  V30 END COLLECTION
M  V30 END CTAB
M  END
>  <Structure No>
3177

>  <LogS>
-3.8156

>  <MMFF94 Energy>
-9.2287

$$$$
Compound 3178
Actelion Java MolfileCreator 2.0

  0  0  0  0  0  0              0 V3000
M  V30 BEGIN CTAB
M  V30 COUNTS 25 24 0 0 0
M  V30 BEGIN ATOM
M  V30 1 O 3.62 0.8463 1.3081 0
M  V30 2 C 2.5328 1.3328 0.8977 0
M  V30 3 O 2.1679 2.6165 1.2842 0 CHG=-1
M  V30 4 C 1.6147 0.5214 0.022 0 CFG=1
M  V30 5 N 2.3545 -0.0212 -1.1259 0 CHG=1
M  V30 6 C 0.9569 -0.5975 0.8641 0
M  V30 7 C -0.0492 -1.4815 0.0991 0
M  V30 8 C -1.2203 -0.7254 -0.5539 0
M  V30 9 C -2.0859 0.0337 0.4643 0
M  V30 10 N -3.2767 0.5912 -0.1765 0 CHG=1
M  V30 11 H 0.8247 1.2085 -0.3521 0
M  V30 12 H 2.8911 0.743 -1.598 0
M  V30 13 H 1.6886 -0.4171 -1.8273 0
M  V30 14 H 3.0204 -0.7677 -0.8193 0
M  V30 15 H 1.7523 -1.2616 1.2689 0
M  V30 16 H 0.4478 -0.1467 1.7434 0
M  V30 17 H 0.4872 -2.0578 -0.6842 0
M  V30 18 H -0.4629 -2.2312 0.8085 0
M  V30 19 H -0.8455 -0.0265 -1.3308 0
M  V30 20 H -1.8563 -1.4745 -1.0742 0
M  V30 21 H -2.3975 -0.6566 1.2794 0
M  V30 22 H -1.4981 0.8634 0.9136 0
M  V30 23 H -3.8676 -0.1775 -0.5688 0
M  V30 24 H -2.9983 1.2492 -0.9406 0
M  V30 25 H -3.8347 1.1158 0.5353 0
M  V30 END ATOM
M  V30 BEGIN BOND
M  V30 1 2 1 2
M  V30 2 1 2 3
M  V30 3 1 2 4
M  V30 4 1 4 5
M  V30 5 1 4 6
M  V30 6 1 6 7
M  V30 7 1 7 8
M  V30 8 1 8 9
M  V30 9 1 9 10
M  V30 10 1 4 11
M  V30 11 1 5 12
M  V30 12 1 5 13
M  V30 13 1 5 14
M  V30 14 1 6 15
M  V30 15 1 6 16
M  V30 16 1 7 17
M  V30 17 1 7 18
M  V30 18 1 8 19
M  V30 19 1 8 20
M  V30 20 1 9 21
M  V30 21 1 9 22
M  V30 22 1 10 23
M  V30 23 1 10 24
M  V30 24 1 10 25
M  V30 END BOND
M  V30 BEGIN COLLECTION
M  V30 MDLV30/STEABS ATOMS=(1 4)
M  V30 END COLLECTION
M  V30 END CTAB
M  END
>  <Structure No>
3178

>  <LogS>
0.8351

>  <MMFF94 Energy>
-40.006

$$$$
Compound 3179
Actelion Java MolfileCreator 2.0

  0  0  0  0  0  0              0 V3000
M  V30 BEGIN CTAB
M  V30 COUNTS 11 10 0 0 0
M  V30 BEGIN ATOM
M  V30 1 S 2.5352 2.0594 -0.1583 0
M  V30 2 C 1.9652 0.56 -0.3088 0
M  V30 3 N 1.5134 -0.624 -0.4274 0
M  V30 4 C 0.1082 -0.8923 -0.7151 0
M  V30 5 C -0.753 -0.597 0.4824 0
M  V30 6 C -1.1246 0.6486 0.791 0
M  V30 7 H 0.0045 -1.9699 -0.9602 0
M  V30 8 H -0.2283 -0.3106 -1.6021 0
M  V30 9 H -1.0879 -1.4198 1.1073 0
M  V30 10 H -0.8149 1.4922 0.1815 0
M  V30 11 H -1.7487 0.8294 1.66 0
M  V30 END ATOM
M  V30 BEGIN BOND
M  V30 1 2 1 2
M  V30 2 2 2 3
M  V30 3 1 3 4
M  V30 4 1 4 5
M  V30 5 2 5 6
M  V30 6 1 4 7
M  V30 7 1 4 8
M  V30 8 1 5 9
M  V30 9 1 6 10
M  V30 10 1 6 11
M  V30 END BOND
M  V30 END CTAB
M  END
>  <Structure No>
3179

>  <LogS>
-1.6953

>  <MMFF94 Energy>
-2.4213

$$$$
Compound 3180
Actelion Java MolfileCreator 2.0

  0  0  0  0  0  0              0 V3000
M  V30 BEGIN CTAB
M  V30 COUNTS 13 12 0 0 0
M  V30 BEGIN ATOM
M  V30 1 N 0.1476 0.2214 -0.4429 0
M  V30 2 N 1.3124 -0.3077 0.1664 0 CHG=1
M  V30 3 C -0.5145 1.1534 0.4849 0
M  V30 4 C -0.7697 -0.8767 -0.7902 0
M  V30 5 H 1.0746 -0.8291 1.0441 0
M  V30 6 H 1.9731 0.4738 0.3845 0
M  V30 7 H 1.7946 -0.9464 -0.5075 0
M  V30 8 H -0.8109 0.6429 1.4284 0
M  V30 9 H -1.4188 1.5895 0.0084 0
M  V30 10 H 0.1684 1.9944 0.7301 0
M  V30 11 H -0.2792 -1.5683 -1.5079 0
M  V30 12 H -1.074 -1.4507 0.1132 0
M  V30 13 H -1.678 -0.4733 -1.2874 0
M  V30 END ATOM
M  V30 BEGIN BOND
M  V30 1 1 1 2
M  V30 2 1 1 3
M  V30 3 1 1 4
M  V30 4 1 2 5
M  V30 5 1 2 6
M  V30 6 1 2 7
M  V30 7 1 3 8
M  V30 8 1 3 9
M  V30 9 1 3 10
M  V30 10 1 4 11
M  V30 11 1 4 12
M  V30 12 1 4 13
M  V30 END BOND
M  V30 END CTAB
M  END
>  <Structure No>
3180

>  <LogS>
1.2211

>  <MMFF94 Energy>
70.125

$$$$
Compound 3181
Actelion Java MolfileCreator 2.0

  0  0  0  0  0  0              0 V3000
M  V30 BEGIN CTAB
M  V30 COUNTS 40 41 0 0 0
M  V30 BEGIN ATOM
M  V30 1 O 0.9514 -1.2687 1.9829 0
M  V30 2 C 1.0402 -0.6651 0.8773 0
M  V30 3 O 2.2569 -0.6473 0.1861 0
M  V30 4 C -0.1816 -0.0156 0.2416 0 CFG=2
M  V30 5 C 3.444 -1.2382 0.7026 0
M  V30 6 C 0.2488 1.3477 -0.3391 0
M  V30 7 C -1.295 0.2579 1.305 0
M  V30 8 C -0.7054 -1.029 -0.8291 0
M  V30 9 C 4.5848 -1.0267 -0.2792 0
M  V30 10 C 0.9523 2.2518 0.4904 0
M  V30 11 C -0.0953 1.7808 -1.642 0
M  V30 12 C -2.2403 -0.9421 1.4638 0
M  V30 13 C -2.2273 -0.9152 -1.0316 0
M  V30 14 C 1.335 3.5115 0.0232 0
M  V30 15 C 0.2913 3.0436 -2.1019 0
M  V30 16 N -2.9911 -1.2219 0.211 0 CHG=1 CFG=1
M  V30 17 C 1.0088 3.9055 -1.2733 0
M  V30 18 C -3.4671 -2.6169 0.2085 0
M  V30 19 H 3.2856 -2.328 0.8541 0
M  V30 20 H 3.7048 -0.7673 1.6754 0
M  V30 21 H -1.9167 1.1299 0.9988 0
M  V30 22 H -0.8526 0.5214 2.291 0
M  V30 23 H -0.5073 -2.0757 -0.5035 0
M  V30 24 H -0.1655 -0.9259 -1.7937 0
M  V30 25 H 5.5137 -1.4851 0.1205 0
M  V30 26 H 4.7552 0.0599 -0.4337 0
M  V30 27 H 4.3387 -1.4995 -1.2536 0
M  V30 28 H 1.2058 1.9799 1.5076 0
M  V30 29 H -0.6635 1.165 -2.3205 0
M  V30 30 H -2.9561 -0.7262 2.2888 0
M  V30 31 H -1.6404 -1.8257 1.7801 0
M  V30 32 H -2.4711 0.1173 -1.3643 0
M  V30 33 H -2.5288 -1.5798 -1.8727 0
M  V30 34 H 1.8809 4.1854 0.6711 0
M  V30 35 H 0.0276 3.3568 -3.104 0
M  V30 36 H -3.8445 -0.6126 0.2126 0
M  V30 37 H 1.3041 4.8826 -1.6332 0
M  V30 38 H -4.1553 -2.7909 -0.6478 0
M  V30 39 H -4.0347 -2.8366 1.14 0
M  V30 40 H -2.6151 -3.328 0.1323 0
M  V30 END ATOM
M  V30 BEGIN BOND
M  V30 1 2 1 2
M  V30 2 1 2 3
M  V30 3 1 2 4
M  V30 4 1 3 5
M  V30 5 1 4 6
M  V30 6 1 4 7
M  V30 7 1 4 8
M  V30 8 1 5 9
M  V30 9 2 6 10
M  V30 10 1 6 11
M  V30 11 1 7 12
M  V30 12 1 8 13
M  V30 13 1 10 14
M  V30 14 2 11 15
M  V30 15 1 12 16
M  V30 16 2 14 17
M  V30 17 1 16 18
M  V30 18 1 13 16
M  V30 19 1 15 17
M  V30 20 1 5 19
M  V30 21 1 5 20
M  V30 22 1 7 21
M  V30 23 1 7 22
M  V30 24 1 8 23
M  V30 25 1 8 24
M  V30 26 1 9 25
M  V30 27 1 9 26
M  V30 28 1 9 27
M  V30 29 1 10 28
M  V30 30 1 11 29
M  V30 31 1 12 30
M  V30 32 1 12 31
M  V30 33 1 13 32
M  V30 34 1 13 33
M  V30 35 1 14 34
M  V30 36 1 15 35
M  V30 37 1 16 36
M  V30 38 1 17 37
M  V30 39 1 18 38
M  V30 40 1 18 39
M  V30 41 1 18 40
M  V30 END BOND
M  V30 BEGIN COLLECTION
M  V30 MDLV30/STEABS ATOMS=(2 4 16)
M  V30 END COLLECTION
M  V30 END CTAB
M  END
>  <Structure No>
3181

>  <LogS>
-1.8861

>  <MMFF94 Energy>
20.775

$$$$
Compound 3182
Actelion Java MolfileCreator 2.0

  0  0  0  0  0  0              0 V3000
M  V30 BEGIN CTAB
M  V30 COUNTS 24 23 0 0 0
M  V30 BEGIN ATOM
M  V30 1 O -1.4806 -2.0265 -0.7011 0
M  V30 2 C -1.5331 -1.0385 0.0168 0
M  V30 3 C -0.3821 -0.7152 0.9502 0 CFG=1
M  V30 4 C -2.7563 -0.1694 -0.0128 0
M  V30 5 O -0.1757 -1.7656 1.8627 0
M  V30 6 C 0.9291 -0.3752 0.1918 0 CFG=1
M  V30 7 O -3.4578 -0.3123 1.1899 0
M  V30 8 O 1.3225 -1.467 -0.6038 0
M  V30 9 C 0.7805 0.8868 -0.6943 0 CFG=1
M  V30 10 O 0.3546 1.9656 0.0995 0
M  V30 11 C 2.108 1.2649 -1.3734 0
M  V30 12 O 2.4459 0.3179 -2.3491 0
M  V30 13 H -0.663 0.1732 1.5562 0
M  V30 14 H -2.4481 0.8905 -0.1505 0
M  V30 15 H -3.41 -0.4609 -0.8656 0
M  V30 16 H 0.0265 -2.5886 1.3462 0
M  V30 17 H 1.7135 -0.1567 0.9567 0
M  V30 18 H -4.2406 0.2945 1.1253 0
M  V30 19 H 1.9238 -2.0325 -0.0522 0
M  V30 20 H 0.0238 0.6815 -1.4883 0
M  V30 21 H -0.07 2.6243 -0.5102 0
M  V30 22 H 2.9177 1.3362 -0.6123 0
M  V30 23 H 1.9975 2.2604 -1.8594 0
M  V30 24 H 3.314 0.612 -2.7295 0
M  V30 END ATOM
M  V30 BEGIN BOND
M  V30 1 2 1 2
M  V30 2 1 2 3
M  V30 3 1 2 4
M  V30 4 1 3 5
M  V30 5 1 3 6
M  V30 6 1 4 7
M  V30 7 1 6 8
M  V30 8 1 6 9
M  V30 9 1 9 10
M  V30 10 1 9 11
M  V30 11 1 11 12
M  V30 12 1 3 13
M  V30 13 1 4 14
M  V30 14 1 4 15
M  V30 15 1 5 16
M  V30 16 1 6 17
M  V30 17 1 7 18
M  V30 18 1 8 19
M  V30 19 1 9 20
M  V30 20 1 10 21
M  V30 21 1 11 22
M  V30 22 1 11 23
M  V30 23 1 12 24
M  V30 END BOND
M  V30 BEGIN COLLECTION
M  V30 MDLV30/STEABS ATOMS=(3 3 6 9)
M  V30 END COLLECTION
M  V30 END CTAB
M  END
>  <Structure No>
3182

>  <LogS>
0.6353

>  <MMFF94 Energy>
87.844

$$$$
Compound 3183
Actelion Java MolfileCreator 2.0

  0  0  0  0  0  0              0 V3000
M  V30 BEGIN CTAB
M  V30 COUNTS 45 46 0 0 0
M  V30 BEGIN ATOM
M  V30 1 O -1.3565 0.4786 -0.7978 0
M  V30 2 C -0.8331 -0.7672 -0.3505 0 CFG=1
M  V30 3 C -2.2083 1.0623 0.1719 0 CFG=2
M  V30 4 O 0.229 -0.5264 0.5656 0
M  V30 5 C -1.9113 -1.6596 0.3345 0 CFG=2
M  V30 6 C -3.5438 0.2716 0.256 0 CFG=1
M  V30 7 C -2.4432 2.5294 -0.2025 0
M  V30 8 C 1.5284 -0.8664 0.0884 0 CFG=2
M  V30 9 O -1.6924 -3.0263 0.0834 0
M  V30 10 C -3.3287 -1.2266 -0.0846 0 CFG=1
M  V30 11 O -4.0656 0.3961 1.5548 0
M  V30 12 O -3.2232 3.1593 0.7761 0
M  V30 13 O 2.439 -0.4422 1.0872 0
M  V30 14 C 1.8788 -0.1117 -1.2235 0 CFG=2
M  V30 15 C 1.6726 -2.4107 -0.0164 0
M  V30 16 O -3.4949 -1.4307 -1.4658 0
M  V30 17 C 3.3457 0.4875 0.5355 0 CFG=1
M  V30 18 O 1.8198 -0.9376 -2.3607 0
M  V30 19 C 3.268 0.4253 -0.9867 0 CFG=1
M  V30 20 O 2.9979 -2.7804 -0.2922 0
M  V30 21 C 3.0509 1.891 1.088 0
M  V30 22 O 4.2347 -0.4639 -1.4869 0
M  V30 23 O 1.741 2.2819 0.7786 0
M  V30 24 H -0.5045 -1.2948 -1.2703 0
M  V30 25 H -1.7071 1.0623 1.1698 0
M  V30 26 H -1.8404 -1.5166 1.4362 0
M  V30 27 H -4.2732 0.6986 -0.4734 0
M  V30 28 H -1.4588 3.044 -0.2779 0
M  V30 29 H -2.9493 2.5921 -1.1923 0
M  V30 30 H -1.7695 -3.1751 -0.8946 0
M  V30 31 H -4.0651 -1.8537 0.4716 0
M  V30 32 H -5.0288 0.1603 1.5028 0
M  V30 33 H -3.3415 4.0966 0.4722 0
M  V30 34 H 1.1902 0.7555 -1.3532 0
M  V30 35 H 1.0299 -2.8265 -0.8178 0
M  V30 36 H 1.3338 -2.8801 0.9361 0
M  V30 37 H -4.4726 -1.4408 -1.6391 0
M  V30 38 H 4.3713 0.2128 0.8671 0
M  V30 39 H 1.8718 -0.3374 -3.1496 0
M  V30 40 H 3.386 1.4258 -1.4669 0
M  V30 41 H 3.4841 -2.7796 0.5731 0
M  V30 42 H 3.7754 2.6198 0.6601 0
M  V30 43 H 3.1823 1.8773 2.1932 0
M  V30 44 H 5.0961 0.0296 -1.4949 0
M  V30 45 H 1.6252 3.1888 1.1641 0
M  V30 END ATOM
M  V30 BEGIN BOND
M  V30 1 1 1 2
M  V30 2 1 1 3
M  V30 3 1 2 4
M  V30 4 1 2 5
M  V30 5 1 3 6
M  V30 6 1 3 7
M  V30 7 1 4 8
M  V30 8 1 5 9
M  V30 9 1 5 10
M  V30 10 1 6 11
M  V30 11 1 7 12
M  V30 12 1 8 13
M  V30 13 1 8 14
M  V30 14 1 8 15
M  V30 15 1 10 16
M  V30 16 1 13 17
M  V30 17 1 14 18
M  V30 18 1 14 19
M  V30 19 1 15 20
M  V30 20 1 17 21
M  V30 21 1 19 22
M  V30 22 1 21 23
M  V30 23 1 6 10
M  V30 24 1 17 19
M  V30 25 1 2 24
M  V30 26 1 3 25
M  V30 27 1 5 26
M  V30 28 1 6 27
M  V30 29 1 7 28
M  V30 30 1 7 29
M  V30 31 1 9 30
M  V30 32 1 10 31
M  V30 33 1 11 32
M  V30 34 1 12 33
M  V30 35 1 14 34
M  V30 36 1 15 35
M  V30 37 1 15 36
M  V30 38 1 16 37
M  V30 39 1 17 38
M  V30 40 1 18 39
M  V30 41 1 19 40
M  V30 42 1 20 41
M  V30 43 1 21 42
M  V30 44 1 21 43
M  V30 45 1 22 44
M  V30 46 1 23 45
M  V30 END BOND
M  V30 BEGIN COLLECTION
M  V30 MDLV30/STEABS ATOMS=(9 2 3 5 6 8 10 14 17 19)
M  V30 END COLLECTION
M  V30 END CTAB
M  END
>  <Structure No>
3183

>  <LogS>
0.7878

>  <MMFF94 Energy>
197

$$$$
Compound 3184
Actelion Java MolfileCreator 2.0

  0  0  0  0  0  0              0 V3000
M  V30 BEGIN CTAB
M  V30 COUNTS 13 12 0 0 0
M  V30 BEGIN ATOM
M  V30 1 O -1.1357 -1.363 -0.3784 0
M  V30 2 C -0.2624 -0.2645 -0.3946 0 CFG=2
M  V30 3 C 1.0012 -0.6232 0.3986 0
M  V30 4 C -0.9628 0.9599 0.2038 0
M  V30 5 O 1.9419 0.4155 0.341 0
M  V30 6 H -1.7851 -1.2248 -1.1168 0
M  V30 7 H 0.0342 -0.0356 -1.4449 0
M  V30 8 H 0.738 -0.8098 1.4619 0
M  V30 9 H 1.4452 -1.5615 -0.0052 0
M  V30 10 H -0.2908 1.8437 0.1772 0
M  V30 11 H -1.8731 1.199 -0.3856 0
M  V30 12 H -1.2619 0.7611 1.2552 0
M  V30 13 H 2.3475 0.3818 -0.5644 0
M  V30 END ATOM
M  V30 BEGIN BOND
M  V30 1 1 1 2
M  V30 2 1 2 3
M  V30 3 1 2 4
M  V30 4 1 3 5
M  V30 5 1 1 6
M  V30 6 1 2 7
M  V30 7 1 3 8
M  V30 8 1 3 9
M  V30 9 1 4 10
M  V30 10 1 4 11
M  V30 11 1 4 12
M  V30 12 1 5 13
M  V30 END BOND
M  V30 BEGIN COLLECTION
M  V30 MDLV30/STEABS ATOMS=(1 2)
M  V30 END COLLECTION
M  V30 END CTAB
M  END
>  <Structure No>
3184

>  <LogS>
1.1186

>  <MMFF94 Energy>
19.509

$$$$
Compound 3185
Actelion Java MolfileCreator 2.0

  0  0  0  0  0  0              0 V3000
M  V30 BEGIN CTAB
M  V30 COUNTS 46 49 0 0 0
M  V30 BEGIN ATOM
M  V30 1 O 6.4849 0.1617 1.1325 0
M  V30 2 C 5.1333 0.2129 0.7987 0
M  V30 3 C 4.3558 -0.9426 0.8925 0
M  V30 4 C 4.5514 1.4069 0.3645 0
M  V30 5 C 2.9926 -0.919 0.555 0
M  V30 6 C 3.1941 1.4499 0.0421 0
M  V30 7 C 2.3835 0.3046 0.1747 0
M  V30 8 C 2.2002 -2.1974 0.6747 0
M  V30 9 C 0.9176 0.3629 -0.2476 0 CFG=1
M  V30 10 C 0.9129 -2.1614 -0.1486 0
M  V30 11 C 0.1175 -0.8901 0.1836 0 CFG=2
M  V30 12 C 0.2083 1.659 0.2386 0
M  V30 13 C -1.2668 -0.8737 -0.5223 0 CFG=2
M  V30 14 C -1.2863 1.4697 0.5706 0
M  V30 15 C -2.0282 0.4938 -0.3978 0 CFG=2
M  V30 16 C -2.2176 -1.9481 0.0087 0
M  V30 17 C -3.4678 0.1058 0.1368 0 CFG=1
M  V30 18 C -2.1003 1.1581 -1.8034 0
M  V30 19 C -3.6056 -1.3779 -0.1921 0
M  V30 20 O -3.5634 0.2298 1.54 0
M  V30 21 C -4.5898 0.8504 -0.491 0
M  V30 22 C -5.5024 1.4542 -0.9977 0
M  V30 23 H 7.0766 0.9822 1.0732 0
M  V30 24 H 4.8188 -1.8654 1.221 0
M  V30 25 H 5.1517 2.303 0.2707 0
M  V30 26 H 2.7779 2.3829 -0.3149 0
M  V30 27 H 1.95 -2.3622 1.7454 0
M  V30 28 H 2.814 -3.0583 0.3308 0
M  V30 29 H 0.9294 0.3822 -1.3607 0
M  V30 30 H 1.1595 -2.1901 -1.2333 0
M  V30 31 H 0.3166 -3.0667 0.0942 0
M  V30 32 H -0.0338 -0.8609 1.2874 0
M  V30 33 H 0.7046 2.0494 1.1548 0
M  V30 34 H 0.309 2.4441 -0.5422 0
M  V30 35 H -1.0947 -1.1111 -1.5986 0
M  V30 36 H -1.3274 1.081 1.6107 0
M  V30 37 H -1.791 2.4606 0.5792 0
M  V30 38 H -2.0507 -2.1279 1.0942 0
M  V30 39 H -2.1006 -2.9073 -0.541 0
M  V30 40 H -2.6876 0.528 -2.5057 0
M  V30 41 H -2.5763 2.1603 -1.745 0
M  V30 42 H -1.0895 1.2922 -2.2404 0
M  V30 43 H -4.3473 -1.886 0.4633 0
M  V30 44 H -3.9047 -1.5251 -1.2556 0
M  V30 45 H -3.6854 1.1904 1.765 0
M  V30 46 H -6.3028 1.9843 -1.4429 0
M  V30 END ATOM
M  V30 BEGIN BOND
M  V30 1 1 1 2
M  V30 2 2 2 3
M  V30 3 1 2 4
M  V30 4 1 3 5
M  V30 5 2 4 6
M  V30 6 2 5 7
M  V30 7 1 5 8
M  V30 8 1 7 9
M  V30 9 1 8 10
M  V30 10 1 9 11
M  V30 11 1 9 12
M  V30 12 1 11 13
M  V30 13 1 12 14
M  V30 14 1 13 15
M  V30 15 1 13 16
M  V30 16 1 15 17
M  V30 17 1 15 18
M  V30 18 1 16 19
M  V30 19 1 17 20
M  V30 20 1 17 21
M  V30 21 3 21 22
M  V30 22 1 6 7
M  V30 23 1 10 11
M  V30 24 1 14 15
M  V30 25 1 17 19
M  V30 26 1 1 23
M  V30 27 1 3 24
M  V30 28 1 4 25
M  V30 29 1 6 26
M  V30 30 1 8 27
M  V30 31 1 8 28
M  V30 32 1 9 29
M  V30 33 1 10 30
M  V30 34 1 10 31
M  V30 35 1 11 32
M  V30 36 1 12 33
M  V30 37 1 12 34
M  V30 38 1 13 35
M  V30 39 1 14 36
M  V30 40 1 14 37
M  V30 41 1 16 38
M  V30 42 1 16 39
M  V30 43 1 18 40
M  V30 44 1 18 41
M  V30 45 1 18 42
M  V30 46 1 19 43
M  V30 47 1 19 44
M  V30 48 1 20 45
M  V30 49 1 22 46
M  V30 END BOND
M  V30 BEGIN COLLECTION
M  V30 MDLV30/STEABS ATOMS=(5 9 11 13 15 17)
M  V30 END COLLECTION
M  V30 END CTAB
M  END
>  <Structure No>
3185

>  <LogS>
-4.4192

>  <MMFF94 Energy>
60.493

$$$$
Compound 3186
Actelion Java MolfileCreator 2.0

  0  0  0  0  0  0              0 V3000
M  V30 BEGIN CTAB
M  V30 COUNTS 25 25 0 0 0
M  V30 BEGIN ATOM
M  V30 1 S -1.045 -1.6886 -0.8842 0
M  V30 2 O -1.5029 -2.5778 0.2381 0
M  V30 3 O -0.8202 -2.5274 -2.1102 0
M  V30 4 N -2.2782 -0.5125 -1.2152 0
M  V30 5 C 0.4633 -0.8827 -0.4654 0
M  V30 6 C -2.711 0.494 -0.283 0
M  V30 7 C 1.3119 -1.4266 0.5086 0
M  V30 8 C 0.824 0.3068 -1.1119 0
M  V30 9 N -2.2669 0.5267 0.9387 0 CHG=1
M  V30 10 N -3.6567 1.4764 -0.7152 0
M  V30 11 C 2.5072 -0.7807 0.8392 0
M  V30 12 C 2.0189 0.9529 -0.7812 0
M  V30 13 C 2.866 0.4127 0.1968 0
M  V30 14 N 4.0882 1.0735 0.5354 0
M  V30 15 H -2.6969 -0.5186 -2.1716 0
M  V30 16 H 1.0501 -2.3483 1.0121 0
M  V30 17 H 0.1804 0.7344 -1.8703 0
M  V30 18 H -2.592 1.2657 1.6015 0
M  V30 19 H -1.5864 -0.1709 1.307 0
M  V30 20 H -4.0227 1.4641 -1.6928 0
M  V30 21 H -3.9948 2.2207 -0.0651 0
M  V30 22 H 3.1532 -1.21 1.5948 0
M  V30 23 H 2.2847 1.8729 -1.2865 0
M  V30 24 H 4.364 1.9626 0.062 0
M  V30 25 H 4.7257 0.6785 1.2622 0
M  V30 END ATOM
M  V30 BEGIN BOND
M  V30 1 2 1 2
M  V30 2 2 1 3
M  V30 3 1 1 4
M  V30 4 1 1 5
M  V30 5 1 4 6
M  V30 6 2 5 7
M  V30 7 1 5 8
M  V30 8 2 6 9
M  V30 9 1 6 10
M  V30 10 1 7 11
M  V30 11 2 8 12
M  V30 12 2 11 13
M  V30 13 1 13 14
M  V30 14 1 12 13
M  V30 15 1 4 15
M  V30 16 1 7 16
M  V30 17 1 8 17
M  V30 18 1 9 18
M  V30 19 1 9 19
M  V30 20 1 10 20
M  V30 21 1 10 21
M  V30 22 1 11 22
M  V30 23 1 12 23
M  V30 24 1 14 24
M  V30 25 1 14 25
M  V30 END BOND
M  V30 END CTAB
M  END
>  <Structure No>
3186

>  <LogS>
-1.9885

>  <MMFF94 Energy>
-263.2

$$$$
Compound 3187
Actelion Java MolfileCreator 2.0

  0  0  0  0  0  0              0 V3000
M  V30 BEGIN CTAB
M  V30 COUNTS 24 26 0 0 0
M  V30 BEGIN ATOM
M  V30 1 Cl 1.7914 2.4519 -1.6027 0
M  V30 2 C 1.3992 0.9654 -0.7482 0
M  V30 3 C 1.3124 -0.2506 -1.2915 0
M  V30 4 C 1.2046 0.7922 0.7424 0 CFG=2
M  V30 5 Cl 1.5693 -0.6447 -2.9862 0
M  V30 6 C 1.0587 -1.2187 -0.1561 0 CFG=2
M  V30 7 Cl 1.8269 2.1282 1.7532 0
M  V30 8 C 1.9083 -0.5573 0.9359 0
M  V30 9 C -0.2869 0.4172 1.0118 0 CFG=2
M  V30 10 Cl 1.4582 -2.9252 -0.5046 0
M  V30 11 C -0.3897 -0.9879 0.3791 0 CFG=1
M  V30 12 Cl 3.6768 -0.5211 0.5683 0
M  V30 13 Cl 1.7277 -1.281 2.5778 0
M  V30 14 C -1.349 1.3032 0.3315 0 CFG=2
M  V30 15 C -1.501 -0.9301 -0.6779 0
M  V30 16 Cl -2.7184 1.5574 1.4652 0
M  V30 17 C -1.7718 0.5491 -0.9418 0 CFG=1
M  V30 18 Cl -3.4617 0.8343 -1.4637 0
M  V30 19 H -0.4613 0.3636 2.1099 0
M  V30 20 H -0.6444 -1.7515 1.1484 0
M  V30 21 H -0.9375 2.3029 0.074 0
M  V30 22 H -1.221 -1.4657 -1.6106 0
M  V30 23 H -2.4153 -1.407 -0.2612 0
M  V30 24 H -1.1306 0.8849 -1.784 0
M  V30 END ATOM
M  V30 BEGIN BOND
M  V30 1 1 1 2
M  V30 2 2 2 3
M  V30 3 1 2 4
M  V30 4 1 3 5
M  V30 5 1 3 6
M  V30 6 1 4 7
M  V30 7 1 4 8
M  V30 8 1 4 9
M  V30 9 1 6 10
M  V30 10 1 6 11
M  V30 11 1 8 12
M  V30 12 1 8 13
M  V30 13 1 9 14
M  V30 14 1 11 15
M  V30 15 1 14 16
M  V30 16 1 14 17
M  V30 17 1 17 18
M  V30 18 1 6 8
M  V30 19 1 9 11
M  V30 20 1 15 17
M  V30 21 1 9 19
M  V30 22 1 11 20
M  V30 23 1 14 21
M  V30 24 1 15 22
M  V30 25 1 15 23
M  V30 26 1 17 24
M  V30 END BOND
M  V30 BEGIN COLLECTION
M  V30 MDLV30/STEABS ATOMS=(6 4 6 9 11 14 17)
M  V30 END COLLECTION
M  V30 END CTAB
M  END
>  <Structure No>
3187

>  <LogS>
-6.8644

>  <MMFF94 Energy>
93.52

$$$$
Compound 3188
Actelion Java MolfileCreator 2.0

  0  0  0  0  0  0              0 V3000
M  V30 BEGIN CTAB
M  V30 COUNTS 57 60 0 0 0
M  V30 BEGIN ATOM
M  V30 1 O -5.183 2.5889 -1.9412 0
M  V30 2 C -4.4513 1.8382 -1.2431 0
M  V30 3 C -4.3233 0.4188 -1.587 0
M  V30 4 C -3.6452 2.4101 -0.1252 0
M  V30 5 C -3.6223 -0.4379 -0.8232 0
M  V30 6 C -3.5061 1.3747 0.9913 0
M  V30 7 C -2.9849 -0.0299 0.5158 0 CFG=2
M  V30 8 C -3.2942 -1.8112 -1.3788 0
M  V30 9 C -1.3937 -0.1814 0.4142 0 CFG=1
M  V30 10 C -3.4985 -1.0331 1.5884 0
M  V30 11 C -1.8255 -2.2011 -1.1071 0
M  V30 12 C -0.9444 -0.9581 -0.8636 0 CFG=2
M  V30 13 C -0.5517 1.1116 0.4912 0
M  V30 14 C 0.5717 -1.2957 -0.8729 0 CFG=1
M  V30 15 C 0.9433 0.7741 0.6053 0
M  V30 16 C 1.4842 -0.0819 -0.583 0 CFG=1
M  V30 17 C 1.0113 -2.3934 0.106 0
M  V30 18 C 2.8227 -0.7601 -0.2024 0 CFG=2
M  V30 19 C 1.6561 0.7989 -1.8429 0
M  V30 20 C 2.4422 -2.053 0.5215 0
M  V30 21 O 3.6371 0.0556 0.6441 0
M  V30 22 C 4.5449 1.0077 0.1686 0
M  V30 23 O 4.8003 1.1016 -1.0625 0
M  V30 24 C 5.2668 1.8798 1.1445 0
M  V30 25 C 6.5089 1.1745 1.6755 0
M  V30 26 H -4.7588 0.0839 -2.5215 0
M  V30 27 H -4.1536 3.3126 0.2791 0
M  V30 28 H -2.6607 2.7286 -0.5126 0
M  V30 29 H -2.9052 1.7809 1.8283 0
M  V30 30 H -4.5299 1.2634 1.4183 0
M  V30 31 H -3.4602 -1.8363 -2.4789 0
M  V30 32 H -3.975 -2.564 -0.9278 0
M  V30 33 H -1.0711 -0.7758 1.2957 0
M  V30 34 H -4.6099 -1.0712 1.6002 0
M  V30 35 H -3.1509 -0.7297 2.6001 0
M  V30 36 H -3.1334 -2.0641 1.4112 0
M  V30 37 H -1.77 -2.8805 -0.2307 0
M  V30 38 H -1.438 -2.7701 -1.9805 0
M  V30 39 H -1.1106 -0.2882 -1.7384 0
M  V30 40 H -0.8076 1.7028 1.3915 0
M  V30 41 H -0.7126 1.7416 -0.4051 0
M  V30 42 H 0.8151 -1.674 -1.8939 0
M  V30 43 H 1.1007 0.2367 1.5671 0
M  V30 44 H 1.5178 1.7238 0.6802 0
M  V30 45 H 0.9734 -3.3896 -0.3869 0
M  V30 46 H 0.3673 -2.4342 1.0084 0
M  V30 47 H 3.3911 -1.0495 -1.1169 0
M  V30 48 H 2.3004 1.6752 -1.6241 0
M  V30 49 H 0.6789 1.1797 -2.2032 0
M  V30 50 H 2.12 0.2224 -2.6719 0
M  V30 51 H 2.4867 -1.9098 1.6242 0
M  V30 52 H 3.1398 -2.8742 0.2466 0
M  V30 53 H 4.5888 2.1213 1.9918 0
M  V30 54 H 5.5622 2.8327 0.6533 0
M  V30 55 H 6.2274 0.2284 2.1862 0
M  V30 56 H 7.209 0.948 0.8426 0
M  V30 57 H 7.0253 1.8321 2.4059 0
M  V30 END ATOM
M  V30 BEGIN BOND
M  V30 1 2 1 2
M  V30 2 1 2 3
M  V30 3 1 2 4
M  V30 4 2 3 5
M  V30 5 1 4 6
M  V30 6 1 5 7
M  V30 7 1 5 8
M  V30 8 1 7 9
M  V30 9 1 7 10
M  V30 10 1 8 11
M  V30 11 1 9 12
M  V30 12 1 9 13
M  V30 13 1 12 14
M  V30 14 1 13 15
M  V30 15 1 14 16
M  V30 16 1 14 17
M  V30 17 1 16 18
M  V30 18 1 16 19
M  V30 19 1 17 20
M  V30 20 1 18 21
M  V30 21 1 21 22
M  V30 22 2 22 23
M  V30 23 1 22 24
M  V30 24 1 24 25
M  V30 25 1 6 7
M  V30 26 1 11 12
M  V30 27 1 15 16
M  V30 28 1 18 20
M  V30 29 1 3 26
M  V30 30 1 4 27
M  V30 31 1 4 28
M  V30 32 1 6 29
M  V30 33 1 6 30
M  V30 34 1 8 31
M  V30 35 1 8 32
M  V30 36 1 9 33
M  V30 37 1 10 34
M  V30 38 1 10 35
M  V30 39 1 10 36
M  V30 40 1 11 37
M  V30 41 1 11 38
M  V30 42 1 12 39
M  V30 43 1 13 40
M  V30 44 1 13 41
M  V30 45 1 14 42
M  V30 46 1 15 43
M  V30 47 1 15 44
M  V30 48 1 17 45
M  V30 49 1 17 46
M  V30 50 1 18 47
M  V30 51 1 19 48
M  V30 52 1 19 49
M  V30 53 1 19 50
M  V30 54 1 20 51
M  V30 55 1 20 52
M  V30 56 1 24 53
M  V30 57 1 24 54
M  V30 58 1 25 55
M  V30 59 1 25 56
M  V30 60 1 25 57
M  V30 END BOND
M  V30 BEGIN COLLECTION
M  V30 MDLV30/STEABS ATOMS=(6 7 9 12 14 16 18)
M  V30 END COLLECTION
M  V30 END CTAB
M  END
>  <Structure No>
3188

>  <LogS>
-5.3669

>  <MMFF94 Energy>
63.861

$$$$
Compound 3189
Actelion Java MolfileCreator 2.0

  0  0  0  0  0  0              0 V3000
M  V30 BEGIN CTAB
M  V30 COUNTS 44 47 0 0 0
M  V30 BEGIN ATOM
M  V30 1 O 6.2289 -1.1303 -0.3228 0
M  V30 2 C 4.8501 -0.9352 -0.3693 0
M  V30 3 C 4.2683 0.1902 0.2205 0
M  V30 4 C 4.0451 -1.8673 -1.0206 0
M  V30 5 C 2.8789 0.3898 0.1688 0
M  V30 6 C 2.661 -1.6933 -1.0677 0
M  V30 7 C 2.0444 -0.5957 -0.4294 0
M  V30 8 C 2.3188 1.6353 0.8172 0
M  V30 9 C 0.5321 -0.3816 -0.5453 0 CFG=2
M  V30 10 C 0.8923 1.947 0.3644 0
M  V30 11 C 0.0351 0.6804 0.4649 0 CFG=1
M  V30 12 C -0.2904 -1.6712 -0.3345 0
M  V30 13 C -1.4817 0.9832 0.3359 0 CFG=2
M  V30 14 C -1.7879 -1.4044 -0.5501 0
M  V30 15 C -2.3666 -0.2806 0.3647 0 CFG=2
M  V30 16 C -1.9001 1.7525 -0.925 0
M  V30 17 C -3.7044 0.2225 -0.2337 0 CFG=2
M  V30 18 C -2.5453 -0.8212 1.8054 0
M  V30 19 C -3.314 1.2816 -1.2703 0
M  V30 20 O -4.5116 0.8321 0.7454 0
M  V30 21 H 6.8423 -0.4695 0.14 0
M  V30 22 H 4.9016 0.9192 0.7121 0
M  V30 23 H 4.4947 -2.7261 -1.5028 0
M  V30 24 H 2.0862 -2.4175 -1.6245 0
M  V30 25 H 2.9632 2.5093 0.5778 0
M  V30 26 H 2.3316 1.4958 1.9203 0
M  V30 27 H 0.3523 -0.0235 -1.5812 0
M  V30 28 H 0.4762 2.7461 1.0161 0
M  V30 29 H 0.9074 2.3247 -0.6816 0
M  V30 30 H 0.1831 0.2698 1.4908 0
M  V30 31 H -0.107 -2.0867 0.6792 0
M  V30 32 H -0.0024 -2.4499 -1.0677 0
M  V30 33 H -1.764 1.6243 1.2038 0
M  V30 34 H -2.3496 -2.3502 -0.3863 0
M  V30 35 H -1.9289 -1.1388 -1.6213 0
M  V30 36 H -1.8877 2.8478 -0.7323 0
M  V30 37 H -1.2269 1.5466 -1.7821 0
M  V30 38 H -4.2678 -0.6028 -0.7332 0
M  V30 39 H -1.5874 -1.1973 2.2171 0
M  V30 40 H -2.9093 -0.0286 2.4934 0
M  V30 41 H -3.2792 -1.6552 1.8143 0
M  V30 42 H -4.0272 2.1355 -1.2673 0
M  V30 43 H -3.3216 0.8327 -2.2881 0
M  V30 44 H -5.11 0.128 1.1085 0
M  V30 END ATOM
M  V30 BEGIN BOND
M  V30 1 1 1 2
M  V30 2 2 2 3
M  V30 3 1 2 4
M  V30 4 1 3 5
M  V30 5 2 4 6
M  V30 6 2 5 7
M  V30 7 1 5 8
M  V30 8 1 7 9
M  V30 9 1 8 10
M  V30 10 1 9 11
M  V30 11 1 9 12
M  V30 12 1 11 13
M  V30 13 1 12 14
M  V30 14 1 13 15
M  V30 15 1 13 16
M  V30 16 1 15 17
M  V30 17 1 15 18
M  V30 18 1 16 19
M  V30 19 1 17 20
M  V30 20 1 6 7
M  V30 21 1 10 11
M  V30 22 1 14 15
M  V30 23 1 17 19
M  V30 24 1 1 21
M  V30 25 1 3 22
M  V30 26 1 4 23
M  V30 27 1 6 24
M  V30 28 1 8 25
M  V30 29 1 8 26
M  V30 30 1 9 27
M  V30 31 1 10 28
M  V30 32 1 10 29
M  V30 33 1 11 30
M  V30 34 1 12 31
M  V30 35 1 12 32
M  V30 36 1 13 33
M  V30 37 1 14 34
M  V30 38 1 14 35
M  V30 39 1 16 36
M  V30 40 1 16 37
M  V30 41 1 17 38
M  V30 42 1 18 39
M  V30 43 1 18 40
M  V30 44 1 18 41
M  V30 45 1 19 42
M  V30 46 1 19 43
M  V30 47 1 20 44
M  V30 END BOND
M  V30 BEGIN COLLECTION
M  V30 MDLV30/STEABS ATOMS=(5 9 11 13 15 17)
M  V30 END COLLECTION
M  V30 END CTAB
M  END
>  <Structure No>
3189

>  <LogS>
-4.8441

>  <MMFF94 Energy>
55.235

$$$$
Compound 3190
Actelion Java MolfileCreator 2.0

  0  0  0  0  0  0              0 V3000
M  V30 BEGIN CTAB
M  V30 COUNTS 35 37 0 0 0
M  V30 BEGIN ATOM
M  V30 1 Cl -1.2136 4.699 -0.5662 0
M  V30 2 C -0.1262 3.3311 -0.4013 0
M  V30 3 C -0.6353 2.0351 -0.3591 0
M  V30 4 C 1.2374 3.5439 -0.2956 0
M  V30 5 C 0.2026 0.8918 -0.2028 0
M  V30 6 C 2.1004 2.461 -0.2048 0
M  V30 7 C -0.4047 -0.3244 0.0163 0
M  V30 8 C 1.6326 1.1349 -0.2138 0
M  V30 9 N 0.3111 -1.5631 0.0816 0
M  V30 10 C -1.8667 -0.4361 0.2594 0
M  V30 11 N 2.5817 0.2365 -0.241 0
M  V30 12 O -0.0604 -2.5127 0.978 0
M  V30 13 C 1.3526 -1.8667 -0.8704 0
M  V30 14 C -2.4404 0.1023 1.4239 0
M  V30 15 C -2.6755 -1.1341 -0.6503 0
M  V30 16 C 2.5722 -1.1817 -0.4144 0
M  V30 17 C -3.8122 -0.0334 1.6581 0
M  V30 18 C -4.0469 -1.2684 -0.4117 0
M  V30 19 N 3.6603 -1.8713 -0.241 0
M  V30 20 C -4.6152 -0.7164 0.7401 0
M  V30 21 C 4.9313 -1.2891 0.1728 0
M  V30 22 H -1.71 1.9455 -0.4485 0
M  V30 23 H 1.6361 4.5506 -0.3108 0
M  V30 24 H 3.1662 2.6599 -0.1684 0
M  V30 25 H -0.7344 -3.067 0.5064 0
M  V30 26 H 1.5138 -2.9669 -0.9176 0
M  V30 27 H 1.0676 -1.5129 -1.885 0
M  V30 28 H -1.825 0.6257 2.1454 0
M  V30 29 H -2.244 -1.5691 -1.5436 0
M  V30 30 H -4.2521 0.3878 2.5529 0
M  V30 31 H -4.6688 -1.8022 -1.1187 0
M  V30 32 H -5.6768 -0.8217 0.9235 0
M  V30 33 H 5.2717 -0.544 -0.5773 0
M  V30 34 H 5.6921 -2.0927 0.2507 0
M  V30 35 H 4.8218 -0.801 1.1648 0
M  V30 END ATOM
M  V30 BEGIN BOND
M  V30 1 1 1 2
M  V30 2 2 2 3
M  V30 3 1 2 4
M  V30 4 1 3 5
M  V30 5 2 4 6
M  V30 6 2 5 7
M  V30 7 1 5 8
M  V30 8 1 7 9
M  V30 9 1 7 10
M  V30 10 2 8 11
M  V30 11 1 9 12
M  V30 12 1 9 13
M  V30 13 2 10 14
M  V30 14 1 10 15
M  V30 15 1 11 16
M  V30 16 1 14 17
M  V30 17 2 15 18
M  V30 18 2 16 19
M  V30 19 2 17 20
M  V30 20 1 19 21
M  V30 21 1 6 8
M  V30 22 1 13 16
M  V30 23 1 18 20
M  V30 24 1 3 22
M  V30 25 1 4 23
M  V30 26 1 6 24
M  V30 27 1 12 25
M  V30 28 1 13 26
M  V30 29 1 13 27
M  V30 30 1 14 28
M  V30 31 1 15 29
M  V30 32 1 17 30
M  V30 33 1 18 31
M  V30 34 1 20 32
M  V30 35 1 21 33
M  V30 36 1 21 34
M  V30 37 1 21 35
M  V30 END BOND
M  V30 END CTAB
M  END
>  <Structure No>
3190

>  <LogS>
-2.1757

>  <MMFF94 Energy>
116.54

$$$$
Compound 3191
Actelion Java MolfileCreator 2.0

  0  0  0  0  0  0              0 V3000
M  V30 BEGIN CTAB
M  V30 COUNTS 50 53 0 0 0
M  V30 BEGIN ATOM
M  V30 1 Cl 0.0814 3.2622 -2.6091 0
M  V30 2 C -0.9576 2.7475 -1.2935 0
M  V30 3 C -0.865 1.4428 -0.7933 0
M  V30 4 C -1.8999 3.6357 -0.7651 0
M  V30 5 C -1.7171 1.0201 0.2415 0
M  V30 6 C -2.7364 3.2312 0.2774 0
M  V30 7 N -1.7619 -0.3632 0.6574 0
M  V30 8 C -2.6343 1.9353 0.792 0
M  V30 9 C -3.0589 -0.9329 0.9453 0
M  V30 10 C -0.523 -1.0686 1.0186 0
M  V30 11 S -3.5896 1.4636 2.2357 0
M  V30 12 C -4.0466 -0.1285 1.5475 0
M  V30 13 C -3.4091 -2.2166 0.493 0
M  V30 14 C -0.0023 -1.9551 -0.1286 0
M  V30 15 C -5.3609 -0.5913 1.6704 0
M  V30 16 C -4.7188 -2.6846 0.6407 0
M  V30 17 C 1.5105 -2.1891 -0.0251 0
M  V30 18 C -5.6947 -1.8707 1.2211 0
M  V30 19 N 2.2485 -0.9299 -0.2629 0
M  V30 20 C 3.4792 -0.8707 0.5516 0
M  V30 21 C 2.5674 -0.7451 -1.6877 0
M  V30 22 C 4.4344 0.2545 0.0898 0
M  V30 23 C 3.1025 0.6802 -1.931 0
M  V30 24 N 3.757 1.2767 -0.7372 0 CHG=1
M  V30 25 C 2.8192 2.0926 0.0604 0
M  V30 26 H -0.1552 0.7599 -1.235 0
M  V30 27 H -1.9776 4.6428 -1.1548 0
M  V30 28 H -3.4421 3.9333 0.7029 0
M  V30 29 H 0.2453 -0.3194 1.3108 0
M  V30 30 H -0.6976 -1.6991 1.918 0
M  V30 31 H -2.6947 -2.8417 -0.0157 0
M  V30 32 H -0.2551 -1.5191 -1.1162 0
M  V30 33 H -0.4925 -2.948 -0.0744 0
M  V30 34 H -6.1169 0.0284 2.1355 0
M  V30 35 H -4.9829 -3.6716 0.2837 0
M  V30 36 H 1.8162 -2.978 -0.7496 0
M  V30 37 H 1.7187 -2.5942 0.9922 0
M  V30 38 H -6.7094 -2.233 1.325 0
M  V30 39 H 4.0251 -1.8416 0.5163 0
M  V30 40 H 3.1929 -0.6802 1.6092 0
M  V30 41 H 3.3295 -1.4912 -2.0112 0
M  V30 42 H 1.6636 -0.8957 -2.3173 0
M  V30 43 H 5.257 -0.2022 -0.5061 0
M  V30 44 H 4.9186 0.7251 0.9751 0
M  V30 45 H 2.2706 1.3262 -2.2886 0
M  V30 46 H 3.8317 0.6345 -2.771 0
M  V30 47 H 4.4986 1.933 -1.0808 0
M  V30 48 H 1.9458 1.5016 0.4058 0
M  V30 49 H 2.4433 2.9472 -0.5435 0
M  V30 50 H 3.3318 2.5198 0.95 0
M  V30 END ATOM
M  V30 BEGIN BOND
M  V30 1 1 1 2
M  V30 2 2 2 3
M  V30 3 1 2 4
M  V30 4 1 3 5
M  V30 5 2 4 6
M  V30 6 1 5 7
M  V30 7 2 5 8
M  V30 8 1 7 9
M  V30 9 1 7 10
M  V30 10 1 8 11
M  V30 11 2 9 12
M  V30 12 1 9 13
M  V30 13 1 10 14
M  V30 14 1 12 15
M  V30 15 2 13 16
M  V30 16 1 14 17
M  V30 17 2 15 18
M  V30 18 1 17 19
M  V30 19 1 19 20
M  V30 20 1 19 21
M  V30 21 1 20 22
M  V30 22 1 21 23
M  V30 23 1 22 24
M  V30 24 1 24 25
M  V30 25 1 6 8
M  V30 26 1 11 12
M  V30 27 1 16 18
M  V30 28 1 23 24
M  V30 29 1 3 26
M  V30 30 1 4 27
M  V30 31 1 6 28
M  V30 32 1 10 29
M  V30 33 1 10 30
M  V30 34 1 13 31
M  V30 35 1 14 32
M  V30 36 1 14 33
M  V30 37 1 15 34
M  V30 38 1 16 35
M  V30 39 1 17 36
M  V30 40 1 17 37
M  V30 41 1 18 38
M  V30 42 1 20 39
M  V30 43 1 20 40
M  V30 44 1 21 41
M  V30 45 1 21 42
M  V30 46 1 22 43
M  V30 47 1 22 44
M  V30 48 1 23 45
M  V30 49 1 23 46
M  V30 50 1 24 47
M  V30 51 1 25 48
M  V30 52 1 25 49
M  V30 53 1 25 50
M  V30 END BOND
M  V30 END CTAB
M  END
>  <Structure No>
3191

>  <LogS>
-4.3979

>  <MMFF94 Energy>
148.77

$$$$
Compound 3192
Actelion Java MolfileCreator 2.0

  0  0  0  0  0  0              0 V3000
M  V30 BEGIN CTAB
M  V30 COUNTS 27 27 0 0 0
M  V30 BEGIN ATOM
M  V30 1 O -0.4712 1.9646 -0.864 0
M  V30 2 C -0.1185 0.8542 -0.381 0
M  V30 3 N -1.121 -0.0375 0.1396 0
M  V30 4 C 1.3146 0.481 -0.3823 0
M  V30 5 C -2.3537 -0.2626 -0.625 0
M  V30 6 C -1.0246 -0.5172 1.5241 0
M  V30 7 C 1.7106 -0.867 -0.3543 0
M  V30 8 C 2.3107 1.4684 -0.4489 0
M  V30 9 C -2.0672 -1.1227 -1.8506 0
M  V30 10 C -1.7159 0.4554 2.473 0
M  V30 11 N 3.0302 -1.195 -0.3729 0
M  V30 12 C 3.6582 1.1045 -0.4644 0
M  V30 13 C 4.0022 -0.2468 -0.4229 0
M  V30 14 H -3.1146 -0.7798 -4.0E-4 0
M  V30 15 H -2.789 0.7095 -0.9419 0
M  V30 16 H 0.0368 -0.6221 1.8323 0
M  V30 17 H -1.4946 -1.5207 1.6118 0
M  V30 18 H 0.9739 -1.6594 -0.3304 0
M  V30 19 H 2.0479 2.5186 -0.4789 0
M  V30 20 H -1.6314 -2.0953 -1.5382 0
M  V30 21 H -1.3557 -0.6043 -2.5275 0
M  V30 22 H -3.0113 -1.3123 -2.403 0
M  V30 23 H -1.238 1.4559 2.4078 0
M  V30 24 H -2.7918 0.5475 2.2141 0
M  V30 25 H -1.63 0.0845 3.5159 0
M  V30 26 H 4.4288 1.8633 -0.5087 0
M  V30 27 H 5.0427 -0.5427 -0.4352 0
M  V30 END ATOM
M  V30 BEGIN BOND
M  V30 1 2 1 2
M  V30 2 1 2 3
M  V30 3 1 2 4
M  V30 4 1 3 5
M  V30 5 1 3 6
M  V30 6 2 4 7
M  V30 7 1 4 8
M  V30 8 1 5 9
M  V30 9 1 6 10
M  V30 10 1 7 11
M  V30 11 2 8 12
M  V30 12 2 11 13
M  V30 13 1 12 13
M  V30 14 1 5 14
M  V30 15 1 5 15
M  V30 16 1 6 16
M  V30 17 1 6 17
M  V30 18 1 7 18
M  V30 19 1 8 19
M  V30 20 1 9 20
M  V30 21 1 9 21
M  V30 22 1 9 22
M  V30 23 1 10 23
M  V30 24 1 10 24
M  V30 25 1 10 25
M  V30 26 1 12 26
M  V30 27 1 13 27
M  V30 END BOND
M  V30 END CTAB
M  END
>  <Structure No>
3192

>  <LogS>
0.749

>  <MMFF94 Energy>
20.709

$$$$
Compound 3193
Actelion Java MolfileCreator 2.0

  0  0  0  0  0  0              0 V3000
M  V30 BEGIN CTAB
M  V30 COUNTS 18 19 0 0 0
M  V30 BEGIN ATOM
M  V30 1 O -3.3396 -1.5892 -0.0794 0
M  V30 2 C -2.3012 -0.8767 -0.0405 0
M  V30 3 N -1.0713 -1.4606 -0.1085 0
M  V30 4 C -2.4162 0.5122 0.0723 0
M  V30 5 C 0.0731 -0.7169 -0.069 0
M  V30 6 C -1.2642 1.2979 0.1151 0
M  V30 7 C -0.0049 0.6912 0.0448 0
M  V30 8 C 1.3313 -1.3357 -0.1403 0
M  V30 9 C 1.1708 1.4558 0.0853 0
M  V30 10 C 2.4969 -0.5647 -0.0989 0
M  V30 11 C 2.4169 0.8263 0.0135 0
M  V30 12 H -1.0118 -2.5017 -0.1926 0
M  V30 13 H -3.3914 0.9807 0.1268 0
M  V30 14 H -1.3571 2.374 0.2027 0
M  V30 15 H 1.4097 -2.4123 -0.2275 0
M  V30 16 H 1.1258 2.5349 0.1724 0
M  V30 17 H 3.4646 -1.0464 -0.1542 0
M  V30 18 H 3.3228 1.4178 0.045 0
M  V30 END ATOM
M  V30 BEGIN BOND
M  V30 1 2 1 2
M  V30 2 1 2 3
M  V30 3 1 2 4
M  V30 4 1 3 5
M  V30 5 2 4 6
M  V30 6 2 5 7
M  V30 7 1 5 8
M  V30 8 1 7 9
M  V30 9 2 8 10
M  V30 10 2 9 11
M  V30 11 1 6 7
M  V30 12 1 10 11
M  V30 13 1 3 12
M  V30 14 1 4 13
M  V30 15 1 6 14
M  V30 16 1 8 15
M  V30 17 1 9 16
M  V30 18 1 10 17
M  V30 19 1 11 18
M  V30 END BOND
M  V30 END CTAB
M  END
>  <Structure No>
3193

>  <LogS>
-2.1394

>  <MMFF94 Energy>
-0.97662

$$$$
Compound 3194
Actelion Java MolfileCreator 2.0

  0  0  0  0  0  0              0 V3000
M  V30 BEGIN CTAB
M  V30 COUNTS 32 34 0 0 0
M  V30 BEGIN ATOM
M  V30 1 S 1.1544 -2.0622 2.1448 0
M  V30 2 O 2.1609 -2.4118 3.2042 0
M  V30 3 O 0.5829 -3.3341 1.5834 0
M  V30 4 N -0.1189 -1.1244 2.8513 0 CHG=-1
M  V30 5 C 1.9518 -1.1267 0.8831 0
M  V30 6 C -1.1378 -0.4979 2.0695 0
M  V30 7 C 2.7121 -0.0018 1.2282 0
M  V30 8 C 1.8007 -1.4727 -0.4674 0
M  V30 9 N -1.1492 -0.6237 0.7142 0
M  V30 10 C -2.1322 0.2614 2.696 0
M  V30 11 C 3.3224 0.7677 0.2331 0
M  V30 12 C 2.4088 -0.702 -1.4628 0
M  V30 13 C -2.1036 -0.0229 -0.0421 0
M  V30 14 N -3.0924 0.864 1.9449 0
M  V30 15 C 3.1734 0.4214 -1.1173 0
M  V30 16 C -3.1044 0.7427 0.5909 0
M  V30 17 C -2.0979 -0.1546 -1.4346 0
M  V30 18 N 3.7941 1.2104 -2.1356 0
M  V30 19 C -4.094 1.3685 -0.1751 0
M  V30 20 C -3.0895 0.474 -2.1961 0
M  V30 21 C -4.0849 1.2329 -1.5681 0
M  V30 22 H 2.8268 0.2818 2.2669 0
M  V30 23 H 1.2051 -2.3301 -0.753 0
M  V30 24 H -2.1414 0.3746 3.7722 0
M  V30 25 H 3.9071 1.6347 0.5137 0
M  V30 26 H 2.2816 -0.9778 -2.5021 0
M  V30 27 H -1.3298 -0.739 -1.926 0
M  V30 28 H 4.3645 2.0498 -1.8882 0
M  V30 29 H 3.6875 0.9614 -3.1443 0
M  V30 30 H -4.8662 1.9581 0.3035 0
M  V30 31 H -3.0869 0.3735 -3.2737 0
M  V30 32 H -4.8495 1.717 -2.1621 0
M  V30 END ATOM
M  V30 BEGIN BOND
M  V30 1 2 1 2
M  V30 2 2 1 3
M  V30 3 1 1 4
M  V30 4 1 1 5
M  V30 5 1 4 6
M  V30 6 2 5 7
M  V30 7 1 5 8
M  V30 8 2 6 9
M  V30 9 1 6 10
M  V30 10 1 7 11
M  V30 11 2 8 12
M  V30 12 1 9 13
M  V30 13 2 10 14
M  V30 14 2 11 15
M  V30 15 1 13 16
M  V30 16 2 13 17
M  V30 17 1 15 18
M  V30 18 2 16 19
M  V30 19 1 17 20
M  V30 20 1 19 21
M  V30 21 1 12 15
M  V30 22 1 14 16
M  V30 23 2 20 21
M  V30 24 1 7 22
M  V30 25 1 8 23
M  V30 26 1 10 24
M  V30 27 1 11 25
M  V30 28 1 12 26
M  V30 29 1 17 27
M  V30 30 1 18 28
M  V30 31 1 18 29
M  V30 32 1 19 30
M  V30 33 1 20 31
M  V30 34 1 21 32
M  V30 END BOND
M  V30 END CTAB
M  END
>  <Structure No>
3194

>  <LogS>
-4.6026

>  <MMFF94 Energy>
108.48

$$$$
Compound 3195
Actelion Java MolfileCreator 2.0

  0  0  0  0  0  0              0 V3000
M  V30 BEGIN CTAB
M  V30 COUNTS 35 36 0 0 0
M  V30 BEGIN ATOM
M  V30 1 S -2.888 -1.1223 1.8444 0
M  V30 2 C -2.8652 -0.3231 0.3648 0
M  V30 3 C -1.3752 -1.8166 1.6354 0
M  V30 4 C -1.6408 -0.5934 -0.2595 0
M  V30 5 C -3.9602 0.5823 -0.1178 0
M  V30 6 N -0.8334 -1.4462 0.4497 0 CHG=1
M  V30 7 C -1.2669 -0.0548 -1.6151 0
M  V30 8 C -3.6937 2.0275 0.3071 0
M  V30 9 C 0.4933 -1.9068 0.0177 0
M  V30 10 O -4.7305 2.8609 -0.1338 0
M  V30 11 C 1.5912 -0.8929 0.2903 0
M  V30 12 C 2.891 -1.071 -0.237 0
M  V30 13 C 1.3713 0.2407 1.0958 0
M  V30 14 N 3.8523 -0.1443 0.0182 0
M  V30 15 N 3.2354 -2.2113 -1.032 0
M  V30 16 N 2.3708 1.1307 1.3177 0
M  V30 17 C 3.6062 0.9431 0.7913 0
M  V30 18 C 4.6766 1.9582 1.016 0
M  V30 19 H -0.889 -2.4692 2.349 0
M  V30 20 H -4.05 0.5171 -1.2228 0
M  V30 21 H -4.9273 0.247 0.3147 0
M  V30 22 H -1.502 -0.8131 -2.39 0
M  V30 23 H -0.185 0.1848 -1.6549 0
M  V30 24 H -1.8143 0.8806 -1.8466 0
M  V30 25 H -2.7172 2.3813 -0.0956 0
M  V30 26 H -3.645 2.0832 1.4159 0
M  V30 27 H 0.7511 -2.8553 0.5381 0
M  V30 28 H 0.4554 -2.1361 -1.0684 0
M  V30 29 H -4.5858 3.0035 -1.1057 0
M  V30 30 H 0.4085 0.4325 1.5475 0
M  V30 31 H 2.5756 -3.0012 -1.1997 0
M  V30 32 H 4.197 -2.2915 -1.4309 0
M  V30 33 H 5.6749 1.4721 1.0002 0
M  V30 34 H 4.5368 2.4505 2.0015 0
M  V30 35 H 4.6317 2.7254 0.2155 0
M  V30 END ATOM
M  V30 BEGIN BOND
M  V30 1 1 1 2
M  V30 2 1 1 3
M  V30 3 2 2 4
M  V30 4 1 2 5
M  V30 5 2 3 6
M  V30 6 1 4 7
M  V30 7 1 5 8
M  V30 8 1 6 9
M  V30 9 1 8 10
M  V30 10 1 9 11
M  V30 11 2 11 12
M  V30 12 1 11 13
M  V30 13 1 12 14
M  V30 14 1 12 15
M  V30 15 2 13 16
M  V30 16 2 14 17
M  V30 17 1 17 18
M  V30 18 1 4 6
M  V30 19 1 16 17
M  V30 20 1 3 19
M  V30 21 1 5 20
M  V30 22 1 5 21
M  V30 23 1 7 22
M  V30 24 1 7 23
M  V30 25 1 7 24
M  V30 26 1 8 25
M  V30 27 1 8 26
M  V30 28 1 9 27
M  V30 29 1 9 28
M  V30 30 1 10 29
M  V30 31 1 13 30
M  V30 32 1 15 31
M  V30 33 1 15 32
M  V30 34 1 18 33
M  V30 35 1 18 34
M  V30 36 1 18 35
M  V30 END BOND
M  V30 END CTAB
M  END
>  <Structure No>
3195

>  <LogS>
0.2207

>  <MMFF94 Energy>
-16.321

$$$$
Compound 3196
Actelion Java MolfileCreator 2.0

  0  0  0  0  0  0              0 V3000
M  V30 BEGIN CTAB
M  V30 COUNTS 27 27 0 0 0
M  V30 BEGIN ATOM
M  V30 1 O 0.235 1.0187 0.0783 0
M  V30 2 C -0.9856 0.3519 0.2911 0
M  V30 3 C 1.5374 0.5325 0.4089 0
M  V30 4 C -2.1435 0.8543 -0.3378 0
M  V30 5 C -1.0931 -0.7838 1.1202 0
M  V30 6 C 2.0601 -0.4177 -0.6844 0 CFG=2
M  V30 7 C -3.3779 0.2112 -0.147 0
M  V30 8 C -2.0561 2.0658 -1.2232 0
M  V30 9 C -2.3271 -1.4123 1.3023 0
M  V30 10 O 1.2372 -1.5509 -0.7983 0
M  V30 11 C 3.5185 -0.8397 -0.43 0
M  V30 12 C -3.4666 -0.9175 0.6688 0
M  V30 13 O 4.3846 0.2544 -0.5777 0
M  V30 14 H 1.5571 0.0595 1.4122 0
M  V30 15 H 2.2099 1.4138 0.4632 0
M  V30 16 H -0.238 -1.1891 1.6385 0
M  V30 17 H 2.0245 0.1224 -1.6557 0
M  V30 18 H -4.2735 0.5827 -0.6296 0
M  V30 19 H -3.0514 2.3541 -1.6236 0
M  V30 20 H -1.3819 1.8537 -2.0795 0
M  V30 21 H -1.6518 2.9237 -0.6455 0
M  V30 22 H -2.4004 -2.2843 1.9393 0
M  V30 23 H 1.3445 -2.0841 0.0324 0
M  V30 24 H 3.8043 -1.6088 -1.1787 0
M  V30 25 H 3.6225 -1.3034 0.579 0
M  V30 26 H -4.4209 -1.4076 0.8124 0
M  V30 27 H 4.5118 0.6474 0.3247 0
M  V30 END ATOM
M  V30 BEGIN BOND
M  V30 1 1 1 2
M  V30 2 1 1 3
M  V30 3 2 2 4
M  V30 4 1 2 5
M  V30 5 1 3 6
M  V30 6 1 4 7
M  V30 7 1 4 8
M  V30 8 2 5 9
M  V30 9 1 6 10
M  V30 10 1 6 11
M  V30 11 2 7 12
M  V30 12 1 11 13
M  V30 13 1 9 12
M  V30 14 1 3 14
M  V30 15 1 3 15
M  V30 16 1 5 16
M  V30 17 1 6 17
M  V30 18 1 7 18
M  V30 19 1 8 19
M  V30 20 1 8 20
M  V30 21 1 8 21
M  V30 22 1 9 22
M  V30 23 1 10 23
M  V30 24 1 11 24
M  V30 25 1 11 25
M  V30 26 1 12 26
M  V30 27 1 13 27
M  V30 END BOND
M  V30 BEGIN COLLECTION
M  V30 MDLV30/STEABS ATOMS=(1 6)
M  V30 END COLLECTION
M  V30 END CTAB
M  END
>  <Structure No>
3196

>  <LogS>
-1.1887

>  <MMFF94 Energy>
56.532

$$$$
Compound 3197
Actelion Java MolfileCreator 2.0

  0  0  0  0  0  0              0 V3000
M  V30 BEGIN CTAB
M  V30 COUNTS 16 16 0 0 0
M  V30 BEGIN ATOM
M  V30 1 Cl 1.696 2.5853 0.4843 0
M  V30 2 C 0.4938 1.3412 0.1584 0
M  V30 3 C 0.8283 -0.0288 0.1737 0
M  V30 4 C -0.82 1.7361 -0.1203 0
M  V30 5 C -0.1689 -0.9831 -0.0931 0
M  V30 6 C 2.2332 -0.4752 0.4709 0
M  V30 7 C -1.8032 0.7801 -0.3841 0
M  V30 8 C -1.4821 -0.5796 -0.3714 0
M  V30 9 O -2.4736 -1.5218 -0.6365 0
M  V30 10 H -1.0808 2.7869 -0.1329 0
M  V30 11 H 0.0708 -2.0394 -0.0854 0
M  V30 12 H 2.9289 -0.0495 -0.2823 0
M  V30 13 H 2.5309 -0.1271 1.4825 0
M  V30 14 H 2.3263 -1.5818 0.4434 0
M  V30 15 H -2.8163 1.0961 -0.5987 0
M  V30 16 H -2.2743 -2.5154 -0.6352 0
M  V30 END ATOM
M  V30 BEGIN BOND
M  V30 1 1 1 2
M  V30 2 2 2 3
M  V30 3 1 2 4
M  V30 4 1 3 5
M  V30 5 1 3 6
M  V30 6 2 4 7
M  V30 7 2 5 8
M  V30 8 1 8 9
M  V30 9 1 7 8
M  V30 10 1 4 10
M  V30 11 1 5 11
M  V30 12 1 6 12
M  V30 13 1 6 13
M  V30 14 1 6 14
M  V30 15 1 7 15
M  V30 16 1 9 16
M  V30 END BOND
M  V30 END CTAB
M  END
>  <Structure No>
3197

>  <LogS>
-1.5704

>  <MMFF94 Energy>
7.4794

$$$$
Compound 3198
Actelion Java MolfileCreator 2.0

  0  0  0  0  0  0              0 V3000
M  V30 BEGIN CTAB
M  V30 COUNTS 20 19 0 0 0
M  V30 BEGIN ATOM
M  V30 1 S 2.5686 0.6416 -1.1231 0
M  V30 2 C 0.7808 0.8334 -0.7898 0
M  V30 3 C 3.1169 0.9583 0.5862 0
M  V30 4 C 0.1628 -0.5104 -0.3869 0
M  V30 5 C -1.3164 -0.3812 0.0379 0 CFG=1
M  V30 6 N -2.1736 0.0139 -1.0883 0 CHG=1
M  V30 7 C -1.7902 -1.6905 0.6106 0
M  V30 8 O -2.0486 -1.788 1.8393 0
M  V30 9 O -1.9252 -2.8053 -0.2083 0 CHG=-1
M  V30 10 H 0.31 1.1926 -1.7279 0
M  V30 11 H 0.6068 1.5983 -0.0026 0
M  V30 12 H 2.6652 0.2232 1.2831 0
M  V30 13 H 4.2208 0.8622 0.6337 0
M  V30 14 H 2.8357 1.9875 0.892 0
M  V30 15 H 0.2541 -1.2246 -1.2347 0
M  V30 16 H 0.7412 -0.9258 0.4667 0
M  V30 17 H -1.3911 0.3954 0.8336 0
M  V30 18 H -3.1789 -0.022 -0.8002 0
M  V30 19 H -2.0301 -0.6226 -1.9062 0
M  V30 20 H -1.9635 0.9973 -1.3728 0
M  V30 END ATOM
M  V30 BEGIN BOND
M  V30 1 1 1 2
M  V30 2 1 1 3
M  V30 3 1 2 4
M  V30 4 1 4 5
M  V30 5 1 5 6
M  V30 6 1 5 7
M  V30 7 2 7 8
M  V30 8 1 7 9
M  V30 9 1 2 10
M  V30 10 1 2 11
M  V30 11 1 3 12
M  V30 12 1 3 13
M  V30 13 1 3 14
M  V30 14 1 4 15
M  V30 15 1 4 16
M  V30 16 1 5 17
M  V30 17 1 6 18
M  V30 18 1 6 19
M  V30 19 1 6 20
M  V30 END BOND
M  V30 BEGIN COLLECTION
M  V30 MDLV30/STEABS ATOMS=(1 5)
M  V30 END COLLECTION
M  V30 END CTAB
M  END
>  <Structure No>
3198

>  <LogS>
-0.6593

>  <MMFF94 Energy>
-5.7076

$$$$
Compound 3199
Actelion Java MolfileCreator 2.0

  0  0  0  0  0  0              0 V3000
M  V30 BEGIN CTAB
M  V30 COUNTS 14 13 0 0 0
M  V30 BEGIN ATOM
M  V30 1 S 0.2523 -1.6831 -1.0938 0
M  V30 2 C 0.0087 -0.0862 -0.2378 0 CFG=1
M  V30 3 C -1.3647 -0.0782 0.4518 0
M  V30 4 C 1.1516 0.1575 0.7586 0
M  V30 5 S -1.8206 1.5902 1.0294 0
M  V30 6 O 2.3763 0.1945 0.0789 0
M  V30 7 H 0.1552 -2.4475 0.0852 0
M  V30 8 H 0.029 0.7116 -1.0117 0
M  V30 9 H -2.1452 -0.417 -0.2627 0
M  V30 10 H -1.3658 -0.7729 1.3188 0
M  V30 11 H 1.1686 -0.6529 1.5218 0
M  V30 12 H 0.997 1.1285 1.2788 0
M  V30 13 H -1.9382 2.0983 -0.2785 0
M  V30 14 H 3.0722 0.3371 0.7721 0
M  V30 END ATOM
M  V30 BEGIN BOND
M  V30 1 1 1 2
M  V30 2 1 2 3
M  V30 3 1 2 4
M  V30 4 1 3 5
M  V30 5 1 4 6
M  V30 6 1 1 7
M  V30 7 1 2 8
M  V30 8 1 3 9
M  V30 9 1 3 10
M  V30 10 1 4 11
M  V30 11 1 4 12
M  V30 12 1 5 13
M  V30 13 1 6 14
M  V30 END BOND
M  V30 BEGIN COLLECTION
M  V30 MDLV30/STEABS ATOMS=(1 2)
M  V30 END COLLECTION
M  V30 END CTAB
M  END
>  <Structure No>
3199

>  <LogS>
-0.1547

>  <MMFF94 Energy>
28.12

$$$$
Compound 3200
Actelion Java MolfileCreator 2.0

  0  0  0  0  0  0              0 V3000
M  V30 BEGIN CTAB
M  V30 COUNTS 16 16 0 0 0
M  V30 BEGIN ATOM
M  V30 1 O -1.9111 -2.3096 -1.1941 0
M  V30 2 N -1.9816 -1.281 -0.4898 0
M  V30 3 N -0.831 -0.5615 -0.1236 0
M  V30 4 C 0.5071 -1.09 -0.4053 0
M  V30 5 C -0.9715 0.5266 0.8412 0
M  V30 6 C 1.5181 0.0589 -0.485 0
M  V30 7 C 0.1565 1.5445 0.6509 0
M  V30 8 O 1.4165 0.901 0.6476 0
M  V30 9 H 0.5145 -1.6383 -1.3715 0
M  V30 10 H 0.8004 -1.7907 0.4059 0
M  V30 11 H -1.9512 1.034 0.7043 0
M  V30 12 H -0.9277 0.1091 1.8703 0
M  V30 13 H 1.3785 0.6353 -1.4284 0
M  V30 14 H 2.5419 -0.3696 -0.516 0
M  V30 15 H -2.0E-4 2.1301 -0.284 0
M  V30 16 H 0.1302 2.2667 1.4941 0
M  V30 END ATOM
M  V30 BEGIN BOND
M  V30 1 2 1 2
M  V30 2 1 2 3
M  V30 3 1 3 4
M  V30 4 1 3 5
M  V30 5 1 4 6
M  V30 6 1 5 7
M  V30 7 1 6 8
M  V30 8 1 7 8
M  V30 9 1 4 9
M  V30 10 1 4 10
M  V30 11 1 5 11
M  V30 12 1 5 12
M  V30 13 1 6 13
M  V30 14 1 6 14
M  V30 15 1 7 15
M  V30 16 1 7 16
M  V30 END BOND
M  V30 END CTAB
M  END
>  <Structure No>
3200

>  <LogS>
0.9351

>  <MMFF94 Energy>
35.796

$$$$
Compound 3201
Actelion Java MolfileCreator 2.0

  0  0  0  0  0  0              0 V3000
M  V30 BEGIN CTAB
M  V30 COUNTS 25 25 0 0 0
M  V30 BEGIN ATOM
M  V30 1 O -4.0386 -0.6326 1.6614 0
M  V30 2 C -3.488 -0.7861 0.5395 0
M  V30 3 O -4.0926 -1.5952 -0.4153 0 CHG=-1
M  V30 4 C -2.1732 -0.1156 0.2437 0 CFG=2
M  V30 5 N -2.2778 0.6795 -0.987 0 CHG=1
M  V30 6 C -1.062 -1.1806 0.1355 0
M  V30 7 C 0.3053 -0.5565 0.0178 0
M  V30 8 C 0.9541 -0.0576 1.1586 0
M  V30 9 C 0.9268 -0.4361 -1.2347 0
M  V30 10 C 2.2132 0.5443 1.0545 0
M  V30 11 C 2.1837 0.164 -1.3427 0
M  V30 12 O 2.8309 1.0262 2.208 0
M  V30 13 C 2.8329 0.6555 -0.2019 0
M  V30 14 O 4.087 1.2536 -0.3125 0
M  V30 15 H -1.9307 0.5675 1.0901 0
M  V30 16 H -2.4118 0.0598 -1.8192 0
M  V30 17 H -1.4124 1.2511 -1.119 0
M  V30 18 H -3.0876 1.3385 -0.9165 0
M  V30 19 H -1.2579 -1.8467 -0.7337 0
M  V30 20 H -1.0797 -1.8256 1.0421 0
M  V30 21 H 0.4802 -0.1351 2.1297 0
M  V30 22 H 0.4364 -0.8026 -2.128 0
M  V30 23 H 2.652 0.2492 -2.315 0
M  V30 24 H 3.7411 1.4701 2.1855 0
M  V30 25 H 4.5538 1.346 -1.2071 0
M  V30 END ATOM
M  V30 BEGIN BOND
M  V30 1 2 1 2
M  V30 2 1 2 3
M  V30 3 1 2 4
M  V30 4 1 4 5
M  V30 5 1 4 6
M  V30 6 1 6 7
M  V30 7 2 7 8
M  V30 8 1 7 9
M  V30 9 1 8 10
M  V30 10 2 9 11
M  V30 11 1 10 12
M  V30 12 2 10 13
M  V30 13 1 13 14
M  V30 14 1 11 13
M  V30 15 1 4 15
M  V30 16 1 5 16
M  V30 17 1 5 17
M  V30 18 1 5 18
M  V30 19 1 6 19
M  V30 20 1 6 20
M  V30 21 1 8 21
M  V30 22 1 9 22
M  V30 23 1 11 23
M  V30 24 1 12 24
M  V30 25 1 14 25
M  V30 END BOND
M  V30 BEGIN COLLECTION
M  V30 MDLV30/STEABS ATOMS=(1 4)
M  V30 END COLLECTION
M  V30 END CTAB
M  END
>  <Structure No>
3201

>  <LogS>
-1.5959

>  <MMFF94 Energy>
-1.9183

$$$$
Compound 3202
Actelion Java MolfileCreator 2.0

  0  0  0  0  0  0              0 V3000
M  V30 BEGIN CTAB
M  V30 COUNTS 22 21 0 0 0
M  V30 BEGIN ATOM
M  V30 1 O 3.2555 -0.9293 -1.0067 0
M  V30 2 C 3.1605 -0.4297 0.1452 0
M  V30 3 O 3.6731 -1.1173 1.2379 0 CHG=-1
M  V30 4 C 2.4672 0.8832 0.3438 0
M  V30 5 C 1.0485 0.6986 0.8982 0
M  V30 6 C 0.1026 0.0541 -0.1263 0
M  V30 7 C -1.324 -0.0471 0.4323 0
M  V30 8 C -2.2719 -0.8145 -0.5043 0
M  V30 9 N -2.5423 -0.0783 -1.7407 0 CHG=1
M  V30 10 H 3.0583 1.4869 1.0655 0
M  V30 11 H 2.4328 1.4481 -0.6134 0
M  V30 12 H 0.6515 1.6996 1.1763 0
M  V30 13 H 1.0859 0.0801 1.8224 0
M  V30 14 H 0.0981 0.6722 -1.0495 0
M  V30 15 H 0.4693 -0.9639 -0.3802 0
M  V30 16 H -1.7288 0.9709 0.6227 0
M  V30 17 H -1.2933 -0.5857 1.4049 0
M  V30 18 H -3.2316 -0.9846 0.0324 0
M  V30 19 H -1.843 -1.8123 -0.7457 0
M  V30 20 H -1.6879 -0.0498 -2.3417 0
M  V30 21 H -2.8608 0.8942 -1.5246 0
M  V30 22 H -3.2993 -0.5692 -2.2691 0
M  V30 END ATOM
M  V30 BEGIN BOND
M  V30 1 2 1 2
M  V30 2 1 2 3
M  V30 3 1 2 4
M  V30 4 1 4 5
M  V30 5 1 5 6
M  V30 6 1 6 7
M  V30 7 1 7 8
M  V30 8 1 8 9
M  V30 9 1 4 10
M  V30 10 1 4 11
M  V30 11 1 5 12
M  V30 12 1 5 13
M  V30 13 1 6 14
M  V30 14 1 6 15
M  V30 15 1 7 16
M  V30 16 1 7 17
M  V30 17 1 8 18
M  V30 18 1 8 19
M  V30 19 1 9 20
M  V30 20 1 9 21
M  V30 21 1 9 22
M  V30 END BOND
M  V30 END CTAB
M  END
>  <Structure No>
3202

>  <LogS>
0.5854

>  <MMFF94 Energy>
-42.052

$$$$
Compound 3203
Actelion Java MolfileCreator 2.0

  0  0  0  0  0  0              0 V3000
M  V30 BEGIN CTAB
M  V30 COUNTS 9 8 0 0 0
M  V30 BEGIN ATOM
M  V30 1 O 0.0 0.1499 1.8011 0
M  V30 2 C 0.1178 0.0467 0.5511 0
M  V30 3 N 1.4135 -0.0916 -0.0298 0
M  V30 4 C -1.0995 0.0338 -0.3142 0
M  V30 5 H 2.2651 -0.0931 0.5742 0
M  V30 6 H 1.5241 -0.1946 -1.063 0
M  V30 7 H -1.2783 -0.9964 -0.6854 0
M  V30 8 H -1.9885 0.3728 0.2591 0
M  V30 9 H -0.9524 0.7138 -1.1792 0
M  V30 END ATOM
M  V30 BEGIN BOND
M  V30 1 2 1 2
M  V30 2 1 2 3
M  V30 3 1 2 4
M  V30 4 1 3 5
M  V30 5 1 3 6
M  V30 6 1 4 7
M  V30 7 1 4 8
M  V30 8 1 4 9
M  V30 END BOND
M  V30 END CTAB
M  END
>  <Structure No>
3203

>  <LogS>
1.5808

>  <MMFF94 Energy>
-28.457

$$$$
Compound 3204
Actelion Java MolfileCreator 2.0

  0  0  0  0  0  0              0 V3000
M  V30 BEGIN CTAB
M  V30 COUNTS 56 59 0 0 0
M  V30 BEGIN ATOM
M  V30 1 O 2.8451 3.0892 0.2436 0
M  V30 2 C 2.6437 1.847 0.1571 0
M  V30 3 C 3.7564 0.8805 0.2716 0
M  V30 4 C 1.285 1.3344 -0.0606 0
M  V30 5 C 5.1024 1.3231 0.2594 0
M  V30 6 C 3.4718 -0.5128 0.3148 0
M  V30 7 C 0.423 1.98 -0.8795 0
M  V30 8 C 0.9601 0.0568 0.682 0 CFG=2
M  V30 9 O 5.4085 2.6845 0.2412 0
M  V30 10 C 6.146 0.3931 0.2509 0
M  V30 11 C 4.5551 -1.418 0.245 0
M  V30 12 C 2.0268 -1.0645 0.3948 0 CFG=1
M  V30 13 O 0.8478 3.1552 -1.5091 0
M  V30 14 C -1.0011 1.4938 -1.1153 0 CFG=2
M  V30 15 C -0.5114 -0.4101 0.4858 0
M  V30 16 C 5.8723 -0.9681 0.2255 0
M  V30 17 O 1.702 -1.6747 -0.8334 0
M  V30 18 C 1.9616 -2.1105 1.5494 0
M  V30 19 O -1.3513 1.7462 -2.4607 0
M  V30 20 C -1.959 2.2147 -0.1739 0
M  V30 21 C -1.0924 -0.0378 -0.8942 0 CFG=1
M  V30 22 O -1.7185 3.4051 0.169 0
M  V30 23 C -3.2297 1.5746 0.2359 0 CHG=-1 CFG=2
M  V30 24 C -2.5595 -0.5495 -1.1279 0 CFG=2
M  V30 25 C -3.5908 0.2693 -0.3626 0
M  V30 26 C -4.1391 2.2391 1.1998 0
M  V30 27 N -2.6916 -2.0366 -0.9482 0 CHG=1
M  V30 28 O -4.7888 -0.1212 -0.3231 0
M  V30 29 O -5.3871 2.1222 1.0716 0
M  V30 30 N -3.6216 2.9969 2.2952 0
M  V30 31 C -3.1423 -2.4658 0.3974 0
M  V30 32 C -3.5773 -2.6243 -1.9726 0
M  V30 33 H 1.0556 0.3197 1.7609 0
M  V30 34 H 6.3659 3.0165 0.2275 0
M  V30 35 H 7.1754 0.7283 0.2385 0
M  V30 36 H 4.3921 -2.4852 0.2049 0
M  V30 37 H 0.2381 3.7214 -2.0843 0
M  V30 38 H -1.1376 0.0383 1.2872 0
M  V30 39 H -0.5755 -1.5025 0.6096 0
M  V30 40 H 6.6862 -1.6809 0.1894 0
M  V30 41 H 2.2913 -2.4624 -0.9623 0
M  V30 42 H 0.9372 -2.4767 1.7464 0
M  V30 43 H 2.3456 -1.6643 2.4923 0
M  V30 44 H 2.5618 -3.0146 1.3252 0
M  V30 45 H -1.7028 2.6713 -2.5446 0
M  V30 46 H -0.4555 -0.5259 -1.666 0
M  V30 47 H -2.7638 -0.3073 -2.1962 0
M  V30 48 H -1.7545 -2.4752 -1.1131 0
M  V30 49 H -2.6028 2.9938 2.5218 0
M  V30 50 H -4.2731 3.4996 2.938 0
M  V30 51 H -4.2503 -2.4425 0.489 0
M  V30 52 H -2.8132 -3.5097 0.5949 0
M  V30 53 H -2.7292 -1.8251 1.2013 0
M  V30 54 H -4.5958 -2.1816 -1.9262 0
M  V30 55 H -3.1615 -2.4547 -2.9903 0
M  V30 56 H -3.6617 -3.7251 -1.8329 0
M  V30 END ATOM
M  V30 BEGIN BOND
M  V30 1 2 1 2
M  V30 2 1 2 3
M  V30 3 1 2 4
M  V30 4 2 3 5
M  V30 5 1 3 6
M  V30 6 2 4 7
M  V30 7 1 4 8
M  V30 8 1 5 9
M  V30 9 1 5 10
M  V30 10 2 6 11
M  V30 11 1 6 12
M  V30 12 1 7 13
M  V30 13 1 7 14
M  V30 14 1 8 15
M  V30 15 2 10 16
M  V30 16 1 12 17
M  V30 17 1 12 18
M  V30 18 1 14 19
M  V30 19 1 14 20
M  V30 20 1 14 21
M  V30 21 2 20 22
M  V30 22 1 20 23
M  V30 23 1 21 24
M  V30 24 1 23 25
M  V30 25 1 23 26
M  V30 26 1 24 27
M  V30 27 2 25 28
M  V30 28 2 26 29
M  V30 29 1 26 30
M  V30 30 1 27 31
M  V30 31 1 27 32
M  V30 32 1 8 12
M  V30 33 1 11 16
M  V30 34 1 15 21
M  V30 35 1 24 25
M  V30 36 1 8 33
M  V30 37 1 9 34
M  V30 38 1 10 35
M  V30 39 1 11 36
M  V30 40 1 13 37
M  V30 41 1 15 38
M  V30 42 1 15 39
M  V30 43 1 16 40
M  V30 44 1 17 41
M  V30 45 1 18 42
M  V30 46 1 18 43
M  V30 47 1 18 44
M  V30 48 1 19 45
M  V30 49 1 21 46
M  V30 50 1 24 47
M  V30 51 1 27 48
M  V30 52 1 30 49
M  V30 53 1 30 50
M  V30 54 1 31 51
M  V30 55 1 31 52
M  V30 56 1 31 53
M  V30 57 1 32 54
M  V30 58 1 32 55
M  V30 59 1 32 56
M  V30 END BOND
M  V30 BEGIN COLLECTION
M  V30 MDLV30/STEABS ATOMS=(6 8 12 14 21 23 24)
M  V30 END COLLECTION
M  V30 END CTAB
M  END
>  <Structure No>
3204

>  <LogS>
-3.284

>  <MMFF94 Energy>
78.233

$$$$
Compound 3205
Actelion Java MolfileCreator 2.0

  0  0  0  0  0  0              0 V3000
M  V30 BEGIN CTAB
M  V30 COUNTS 27 31 0 0 0
M  V30 BEGIN ATOM
M  V30 1 Cl 2.2849 -0.1826 -3.0168 0
M  V30 2 C 1.8379 0.0315 -1.3287 0
M  V30 3 C 1.7791 1.1983 -0.6744 0
M  V30 4 C 1.5567 -1.0527 -0.3193 0 CFG=1
M  V30 5 Cl 2.1353 2.7811 -1.3546 0
M  V30 6 C 1.4593 0.8794 0.7643 0 CFG=1
M  V30 7 Cl 2.1287 -2.6829 -0.7743 0
M  V30 8 C 2.2618 -0.4275 0.8983 0
M  V30 9 C 0.0599 -0.9961 0.1341 0 CFG=1
M  V30 10 Cl 1.8849 2.1561 1.9396 0
M  V30 11 C -0.0079 0.3495 0.8888 0 CFG=2
M  V30 12 Cl 2.0269 -1.3119 2.454 0
M  V30 13 Cl 4.0468 -0.2218 0.6919 0
M  V30 14 C -1.1161 -0.868 -0.8841 0 CFG=1
M  V30 15 C -1.2134 1.0603 0.1975 0 CFG=1
M  V30 16 C -2.4023 -1.0109 -0.0153 0 CFG=1
M  V30 17 C -1.1596 0.6041 -1.2485 0
M  V30 18 C -2.4683 0.2962 0.7178 0 CFG=2
M  V30 19 O -3.449 -0.083 -0.2286 0
M  V30 20 H -0.1342 -1.8512 0.8222 0
M  V30 21 H -0.2372 0.1921 1.9682 0
M  V30 22 H -1.0679 -1.5662 -1.7454 0
M  V30 23 H -1.2556 2.1596 0.3443 0
M  V30 24 H -2.6345 -1.8916 0.6207 0
M  V30 25 H -0.3392 0.9904 -1.8632 0
M  V30 26 H -2.0658 0.8857 -1.8317 0
M  V30 27 H -2.7396 0.1937 1.7903 0
M  V30 END ATOM
M  V30 BEGIN BOND
M  V30 1 1 1 2
M  V30 2 2 2 3
M  V30 3 1 2 4
M  V30 4 1 3 5
M  V30 5 1 3 6
M  V30 6 1 4 7
M  V30 7 1 4 8
M  V30 8 1 4 9
M  V30 9 1 6 10
M  V30 10 1 6 11
M  V30 11 1 8 12
M  V30 12 1 8 13
M  V30 13 1 9 14
M  V30 14 1 11 15
M  V30 15 1 14 16
M  V30 16 1 14 17
M  V30 17 1 15 18
M  V30 18 1 16 19
M  V30 19 1 6 8
M  V30 20 1 9 11
M  V30 21 1 15 17
M  V30 22 1 16 18
M  V30 23 1 18 19
M  V30 24 1 9 20
M  V30 25 1 11 21
M  V30 26 1 14 22
M  V30 27 1 15 23
M  V30 28 1 16 24
M  V30 29 1 17 25
M  V30 30 1 17 26
M  V30 31 1 18 27
M  V30 END BOND
M  V30 BEGIN COLLECTION
M  V30 MDLV30/STEABS ATOMS=(8 4 6 9 11 14 15 16 18)
M  V30 END COLLECTION
M  V30 END CTAB
M  END
>  <Structure No>
3205

>  <LogS>
-6.2908

>  <MMFF94 Energy>
126.97

$$$$
Compound 3206
Actelion Java MolfileCreator 2.0

  0  0  0  0  0  0              0 V3000
M  V30 BEGIN CTAB
M  V30 COUNTS 48 50 0 0 0
M  V30 BEGIN ATOM
M  V30 1 S -3.6995 2.1702 -0.4016 0
M  V30 2 C -3.3652 0.5278 0.198 0
M  V30 3 C -2.0878 2.7812 0.0429 0
M  V30 4 C -2.1786 -0.1349 -0.1811 0
M  V30 5 C -4.392 -0.1548 0.8577 0
M  V30 6 C -0.9333 2.0613 -0.3302 0
M  V30 7 C -1.9922 4.0718 0.576 0
M  V30 8 N -1.02 0.6329 -0.6434 0
M  V30 9 C -2.1428 -1.5401 -0.0289 0
M  V30 10 C -4.2963 -1.528 1.075 0
M  V30 11 C 0.2997 2.758 -0.3216 0
M  V30 12 C -0.7524 4.7015 0.6649 0
M  V30 13 C 0.0987 -0.027 -1.3555 0
M  V30 14 C -3.181 -2.2363 0.6021 0
M  V30 15 C 0.3867 4.057 0.1869 0
M  V30 16 C 1.3173 -0.349 -0.4256 0 CFG=2
M  V30 17 O -3.0621 -3.6277 0.7398 0
M  V30 18 C 2.644 -0.3426 -1.2354 0
M  V30 19 C 1.1629 -1.6934 0.3027 0
M  V30 20 C -4.0521 -4.4674 1.3284 0
M  V30 21 N 3.8398 -0.1663 -0.358 0 CHG=1
M  V30 22 C 4.8664 -1.186 -0.6483 0
M  V30 23 C 4.42 1.1826 -0.5166 0
M  V30 24 H -5.2959 0.3672 1.1489 0
M  V30 25 H -2.8856 4.6113 0.8675 0
M  V30 26 H -1.3233 -2.1277 -0.3943 0
M  V30 27 H -5.1138 -2.034 1.5705 0
M  V30 28 H 1.2077 2.3196 -0.6991 0
M  V30 29 H -0.6821 5.7068 1.0604 0
M  V30 30 H 0.4095 0.6496 -2.1795 0
M  V30 31 H -0.2425 -0.9358 -1.8915 0
M  V30 32 H 1.3427 4.5632 0.2143 0
M  V30 33 H 1.3886 0.4217 0.3678 0
M  V30 34 H 2.6931 -1.2918 -1.8221 0
M  V30 35 H 2.612 0.4564 -2.0144 0
M  V30 36 H 2.0914 -1.9645 0.8449 0
M  V30 37 H 0.9463 -2.5121 -0.4167 0
M  V30 38 H 0.3612 -1.6265 1.0661 0
M  V30 39 H -3.6969 -5.5173 1.3055 0
M  V30 40 H -4.223 -4.1742 2.3866 0
M  V30 41 H -5.0007 -4.3997 0.7548 0
M  V30 42 H 3.5848 -0.2669 0.6545 0
M  V30 43 H 5.234 -1.0922 -1.6951 0
M  V30 44 H 5.7302 -1.0815 0.0462 0
M  V30 45 H 4.4499 -2.2074 -0.5015 0
M  V30 46 H 5.2634 1.3291 0.1942 0
M  V30 47 H 4.798 1.3363 -1.5545 0
M  V30 48 H 3.657 1.9638 -0.2946 0
M  V30 END ATOM
M  V30 BEGIN BOND
M  V30 1 1 1 2
M  V30 2 1 1 3
M  V30 3 2 2 4
M  V30 4 1 2 5
M  V30 5 2 3 6
M  V30 6 1 3 7
M  V30 7 1 4 8
M  V30 8 1 4 9
M  V30 9 2 5 10
M  V30 10 1 6 11
M  V30 11 2 7 12
M  V30 12 1 8 13
M  V30 13 2 9 14
M  V30 14 2 11 15
M  V30 15 1 13 16
M  V30 16 1 14 17
M  V30 17 1 16 18
M  V30 18 1 16 19
M  V30 19 1 17 20
M  V30 20 1 18 21
M  V30 21 1 21 22
M  V30 22 1 21 23
M  V30 23 1 6 8
M  V30 24 1 10 14
M  V30 25 1 12 15
M  V30 26 1 5 24
M  V30 27 1 7 25
M  V30 28 1 9 26
M  V30 29 1 10 27
M  V30 30 1 11 28
M  V30 31 1 12 29
M  V30 32 1 13 30
M  V30 33 1 13 31
M  V30 34 1 15 32
M  V30 35 1 16 33
M  V30 36 1 18 34
M  V30 37 1 18 35
M  V30 38 1 19 36
M  V30 39 1 19 37
M  V30 40 1 19 38
M  V30 41 1 20 39
M  V30 42 1 20 40
M  V30 43 1 20 41
M  V30 44 1 21 42
M  V30 45 1 22 43
M  V30 46 1 22 44
M  V30 47 1 22 45
M  V30 48 1 23 46
M  V30 49 1 23 47
M  V30 50 1 23 48
M  V30 END BOND
M  V30 BEGIN COLLECTION
M  V30 MDLV30/STEABS ATOMS=(1 16)
M  V30 END COLLECTION
M  V30 END CTAB
M  END
>  <Structure No>
3206

>  <LogS>
-4.2155

>  <MMFF94 Energy>
72.052

$$$$
Compound 3207
Actelion Java MolfileCreator 2.0

  0  0  0  0  0  0              0 V3000
M  V30 BEGIN CTAB
M  V30 COUNTS 32 33 0 0 0
M  V30 BEGIN ATOM
M  V30 1 O -1.5181 -1.5981 2.7179 0
M  V30 2 C -2.6546 -1.2389 2.3111 0
M  V30 3 O -3.7458 -1.3773 3.1613 0 CHG=-1
M  V30 4 C -2.8446 -0.7215 0.9339 0
M  V30 5 C -1.781 -0.1659 0.1755 0
M  V30 6 C -4.1194 -0.8262 0.3467 0
M  V30 7 N -0.4879 0.0649 0.7625 0
M  V30 8 C -2.0194 0.2474 -1.1477 0
M  V30 9 C -4.336 -0.4109 -0.9682 0
M  V30 10 C 0.7489 -0.1507 0.0556 0
M  V30 11 C -3.287 0.1198 -1.7157 0
M  V30 12 C 1.8738 0.6832 0.2841 0
M  V30 13 C 0.857 -1.2328 -0.833 0
M  V30 14 C 3.1091 0.3707 -0.3448 0
M  V30 15 C 1.7542 1.8687 1.2156 0
M  V30 16 C 2.0578 -1.5003 -1.4834 0
M  V30 17 C 3.1769 -0.7089 -1.2396 0
M  V30 18 C 4.3536 1.1853 -0.1018 0
M  V30 19 H -4.949 -1.2508 0.8985 0
M  V30 20 H -0.451 0.4298 1.7404 0
M  V30 21 H -1.2251 0.6932 -1.733 0
M  V30 22 H -5.3199 -0.5048 -1.4095 0
M  V30 23 H -3.4588 0.4447 -2.7337 0
M  V30 24 H 0.011 -1.8854 -1.0085 0
M  V30 25 H 1.9174 1.5365 2.262 0
M  V30 26 H 2.4825 2.6675 0.9709 0
M  V30 27 H 0.7522 2.3389 1.1305 0
M  V30 28 H 2.1266 -2.3366 -2.167 0
M  V30 29 H 4.1036 -0.947 -1.7471 0
M  V30 30 H 4.5129 1.3261 0.988 0
M  V30 31 H 5.2575 0.6822 -0.507 0
M  V30 32 H 4.2557 2.1745 -0.5961 0
M  V30 END ATOM
M  V30 BEGIN BOND
M  V30 1 2 1 2
M  V30 2 1 2 3
M  V30 3 1 2 4
M  V30 4 2 4 5
M  V30 5 1 4 6
M  V30 6 1 5 7
M  V30 7 1 5 8
M  V30 8 2 6 9
M  V30 9 1 7 10
M  V30 10 2 8 11
M  V30 11 2 10 12
M  V30 12 1 10 13
M  V30 13 1 12 14
M  V30 14 1 12 15
M  V30 15 2 13 16
M  V30 16 2 14 17
M  V30 17 1 14 18
M  V30 18 1 9 11
M  V30 19 1 16 17
M  V30 20 1 6 19
M  V30 21 1 7 20
M  V30 22 1 8 21
M  V30 23 1 9 22
M  V30 24 1 11 23
M  V30 25 1 13 24
M  V30 26 1 15 25
M  V30 27 1 15 26
M  V30 28 1 15 27
M  V30 29 1 16 28
M  V30 30 1 17 29
M  V30 31 1 18 30
M  V30 32 1 18 31
M  V30 33 1 18 32
M  V30 END BOND
M  V30 END CTAB
M  END
>  <Structure No>
3207

>  <LogS>
-4.0815

>  <MMFF94 Energy>
53.448

$$$$
Compound 3208
Actelion Java MolfileCreator 2.0

  0  0  0  0  0  0              0 V3000
M  V30 BEGIN CTAB
M  V30 COUNTS 38 40 0 0 0
M  V30 BEGIN ATOM
M  V30 1 S 0.0 0.0 1.1281 0 CHG=1 VAL=2
M  V30 2 C 1.3617 0.0067 0.1336 0
M  V30 3 C -1.4226 -0.0232 0.223 0
M  V30 4 C 1.1556 -0.0062 -1.2577 0
M  V30 5 C 2.6525 0.0263 0.6703 0
M  V30 6 C -1.306 -0.0347 -1.1786 0
M  V30 7 C -2.6765 -0.0327 0.8414 0
M  V30 8 N -0.0942 -0.0256 -1.8147 0
M  V30 9 C 2.2699 0.001 -2.1017 0
M  V30 10 C 3.7789 0.0337 -0.1785 0
M  V30 11 C -2.4721 -0.056 -1.9494 0
M  V30 12 C -3.855 -0.0543 0.0665 0
M  V30 13 C 3.5645 0.0209 -1.5734 0
M  V30 14 N 5.1237 0.0539 0.3683 0
M  V30 15 C -3.7303 -0.0659 -1.3392 0
M  V30 16 N -5.1622 -0.064 0.6985 0
M  V30 17 C 6.2541 0.5153 -0.4469 0
M  V30 18 C 5.3763 -0.3868 1.7458 0
M  V30 19 C -6.3422 -0.5389 -0.0346 0
M  V30 20 C -5.3265 0.401 2.0815 0
M  V30 21 H 2.7672 0.0468 1.7455 0
M  V30 22 H -2.7224 -0.0342 1.9219 0
M  V30 23 H 2.1357 -0.011 -3.1766 0
M  V30 24 H -2.4069 -0.0628 -3.0308 0
M  V30 25 H 4.3948 0.0151 -2.2656 0
M  V30 26 H -4.6033 -0.0715 -1.9768 0
M  V30 27 H 6.0018 1.4836 -0.9292 0
M  V30 28 H 7.1638 0.6772 0.1692 0
M  V30 29 H 6.4917 -0.2402 -1.2244 0
M  V30 30 H 6.4616 -0.5199 1.9403 0
M  V30 31 H 4.883 -1.3656 1.9258 0
M  V30 32 H 4.9856 0.3669 2.461 0
M  V30 33 H -7.2107 -0.6893 0.6412 0
M  V30 34 H -6.6295 0.2031 -0.8086 0
M  V30 35 H -6.1207 -1.5156 -0.5149 0
M  V30 36 H -6.3973 0.5382 2.3425 0
M  V30 37 H -4.8234 1.3826 2.2123 0
M  V30 38 H -4.8906 -0.3402 2.7833 0
M  V30 END ATOM
M  V30 BEGIN BOND
M  V30 1 1 1 2
M  V30 2 2 1 3
M  V30 3 1 2 4
M  V30 4 2 2 5
M  V30 5 1 3 6
M  V30 6 1 3 7
M  V30 7 1 4 8
M  V30 8 2 4 9
M  V30 9 1 5 10
M  V30 10 1 6 11
M  V30 11 2 7 12
M  V30 12 1 9 13
M  V30 13 1 10 14
M  V30 14 2 11 15
M  V30 15 1 12 16
M  V30 16 1 14 17
M  V30 17 1 14 18
M  V30 18 1 16 19
M  V30 19 1 16 20
M  V30 20 2 6 8
M  V30 21 2 10 13
M  V30 22 1 12 15
M  V30 23 1 5 21
M  V30 24 1 7 22
M  V30 25 1 9 23
M  V30 26 1 11 24
M  V30 27 1 13 25
M  V30 28 1 15 26
M  V30 29 1 17 27
M  V30 30 1 17 28
M  V30 31 1 17 29
M  V30 32 1 18 30
M  V30 33 1 18 31
M  V30 34 1 18 32
M  V30 35 1 19 33
M  V30 36 1 19 34
M  V30 37 1 19 35
M  V30 38 1 20 36
M  V30 39 1 20 37
M  V30 40 1 20 38
M  V30 END BOND
M  V30 END CTAB
M  END
>  <Structure No>
3208

>  <LogS>
-0.8655

>  <MMFF94 Energy>
53.621

$$$$
Compound 3209
Actelion Java MolfileCreator 2.0

  0  0  0  0  0  0              0 V3000
M  V30 BEGIN CTAB
M  V30 COUNTS 16 15 0 0 0
M  V30 BEGIN ATOM
M  V30 1 O 0.3089 2.2415 -1.0043 0
M  V30 2 C 0.769 1.3437 -0.2489 0
M  V30 3 O 1.9961 1.5485 0.3725 0 CHG=-1
M  V30 4 C 0.0057 0.0541 -0.0124 0
M  V30 5 N -1.2623 0.0511 -0.7663 0 CHG=1
M  V30 6 C -0.2937 -0.0801 1.4931 0
M  V30 7 C 0.8759 -1.1323 -0.4701 0
M  V30 8 H -1.7841 -0.8405 -0.5991 0
M  V30 9 H -1.0793 0.1365 -1.7933 0
M  V30 10 H -1.8705 0.8482 -0.4652 0
M  V30 11 H -0.9036 0.7796 1.8453 0
M  V30 12 H -0.8596 -1.0149 1.6955 0
M  V30 13 H 0.6472 -0.1086 2.0845 0
M  V30 14 H 1.1194 -1.0401 -1.5505 0
M  V30 15 H 1.8281 -1.1708 0.1023 0
M  V30 16 H 0.3379 -2.0921 -0.3146 0
M  V30 END ATOM
M  V30 BEGIN BOND
M  V30 1 2 1 2
M  V30 2 1 2 3
M  V30 3 1 2 4
M  V30 4 1 4 5
M  V30 5 1 4 6
M  V30 6 1 4 7
M  V30 7 1 5 8
M  V30 8 1 5 9
M  V30 9 1 5 10
M  V30 10 1 6 11
M  V30 11 1 6 12
M  V30 12 1 6 13
M  V30 13 1 7 14
M  V30 14 1 7 15
M  V30 15 1 7 16
M  V30 END BOND
M  V30 END CTAB
M  END
>  <Structure No>
3209

>  <LogS>
0.2453

>  <MMFF94 Energy>
-0.71374

$$$$
Compound 3210
Actelion Java MolfileCreator 2.0

  0  0  0  0  0  0              0 V3000
M  V30 BEGIN CTAB
M  V30 COUNTS 92 98 0 0 0
M  V30 BEGIN ATOM
M  V30 1 O 6.0156 0.0811 1.4607 0
M  V30 2 C 4.9182 -0.4186 1.8334 0
M  V30 3 O 3.9538 -0.7779 0.8847 0
M  V30 4 C 4.6173 -0.6163 3.2719 0
M  V30 5 C 4.0483 -0.4864 -0.5104 0 CFG=2
M  V30 6 C 5.5625 -0.7459 4.2248 0
M  V30 7 C 3.1725 -0.772 3.6702 0
M  V30 8 C 3.376 0.8786 -0.8191 0 CFG=1
M  V30 9 C 3.345 -1.6098 -1.2834 0
M  V30 10 C 7.0414 -0.7102 3.9789 0
M  V30 11 O 1.9776 0.7443 -0.6157 0
M  V30 12 O 3.8881 1.8729 0.0344 0
M  V30 13 C 3.562 1.2384 -2.309 0 CFG=1
M  V30 14 C 3.0109 -1.2006 -2.7269 0
M  V30 15 C 1.3716 0.6554 -1.9028 0 CFG=2
M  V30 16 C 2.5205 0.2813 -2.8946 0 CFG=1
M  V30 17 C 3.209 2.7513 -2.5606 0
M  V30 18 C 0.7744 2.0317 -2.2529 0 CFG=2
M  V30 19 C 0.161 -0.2833 -1.8415 0
M  V30 20 C 2.2545 0.4846 -4.4136 0
M  V30 21 C 1.8099 3.1603 -2.0164 0
M  V30 22 C -0.6018 2.0996 -1.5355 0 CFG=2
M  V30 23 C -1.1105 0.6059 -1.5932 0 CFG=1
M  V30 24 O -1.4808 2.9887 -2.2037 0
M  V30 25 C -0.495 2.6016 -0.0734 0
M  V30 26 O -2.0051 0.4394 -2.6757 0
M  V30 27 C -1.827 0.1713 -0.2547 0 CFG=1
M  V30 28 C -1.8542 2.5881 0.6628 0 CFG=1
M  V30 29 C -2.7401 1.3005 0.3707 0 CFG=1
M  V30 30 C -2.5046 -1.2362 -0.3474 0
M  V30 31 O -1.5891 2.7797 2.0346 0
M  V30 32 O -3.7376 1.749 -0.539 0
M  V30 33 C -3.4887 0.7187 1.6601 0 CFG=2
M  V30 34 N -3.9349 -1.2361 0.035 0 CHG=1 CFG=2
M  V30 35 O -2.6027 0.6248 2.7575 0
M  V30 36 C -4.1731 -0.7031 1.4057 0 CFG=1
M  V30 37 C -4.5936 1.7088 2.1029 0
M  V30 38 C -4.5719 -2.5631 -0.1866 0
M  V30 39 C -3.8124 -1.7502 2.5011 0
M  V30 40 C -4.2015 -3.6143 0.8825 0 CFG=1
M  V30 41 C -4.5366 -3.0728 2.2741 0
M  V30 42 C -4.9486 -4.9296 0.6286 0
M  V30 43 H 5.1159 -0.4633 -0.8294 0
M  V30 44 H 5.2539 -0.925 5.2495 0
M  V30 45 H 2.5112 -0.2096 2.9758 0
M  V30 46 H 2.9918 -0.3696 4.6928 0
M  V30 47 H 2.8932 -1.8469 3.6498 0
M  V30 48 H 3.9954 -2.5122 -1.2918 0
M  V30 49 H 2.4116 -1.8992 -0.7591 0
M  V30 50 H 7.581 -0.9258 4.9239 0
M  V30 51 H 7.3259 -1.4781 3.2318 0
M  V30 52 H 7.3527 0.296 3.6342 0
M  V30 53 H 4.8557 1.9737 -0.1706 0
M  V30 54 H 4.5891 1.0258 -2.6802 0
M  V30 55 H 3.9247 -1.3524 -3.3408 0
M  V30 56 H 2.2447 -1.9033 -3.119 0
M  V30 57 H 3.2764 2.9894 -3.6411 0
M  V30 58 H 3.9771 3.3946 -2.0755 0
M  V30 59 H 0.5404 2.0495 -3.3322 0
M  V30 60 H 0.0697 -0.8547 -2.7913 0
M  V30 61 H 0.3053 -1.0462 -1.0448 0
M  V30 62 H 2.0653 1.5277 -4.718 0
M  V30 63 H 3.1313 0.1474 -5.0055 0
M  V30 64 H 1.3821 -0.1212 -4.7306 0
M  V30 65 H 1.9169 3.3794 -0.9356 0
M  V30 66 H 1.4688 4.0965 -2.5107 0
M  V30 67 H -1.4673 2.8183 -3.1799 0
M  V30 68 H -0.1252 3.6525 -0.0627 0
M  V30 69 H 0.2326 1.9982 0.5032 0
M  V30 70 H -1.5031 0.5387 -3.5284 0
M  V30 71 H -1.0015 0.0304 0.4758 0
M  V30 72 H -2.4226 3.4772 0.2772 0
M  V30 73 H -1.9374 -1.9424 0.2995 0
M  V30 74 H -2.4006 -1.6437 -1.3785 0
M  V30 75 H -1.8298 3.7192 2.2643 0
M  V30 76 H -3.7689 1.2089 -1.3616 0
M  V30 77 H -4.4432 -0.6191 -0.635 0
M  V30 78 H -1.7999 0.1121 2.4832 0
M  V30 79 H -5.2806 -0.5757 1.4989 0
M  V30 80 H -4.1788 2.721 2.2972 0
M  V30 81 H -5.3894 1.7996 1.3347 0
M  V30 82 H -5.0676 1.3521 3.0454 0
M  V30 83 H -5.6818 -2.4371 -0.1895 0
M  V30 84 H -4.3021 -2.9588 -1.1935 0
M  V30 85 H -4.1023 -1.3618 3.5028 0
M  V30 86 H -2.7208 -1.9523 2.5143 0
M  V30 87 H -3.1138 -3.8353 0.828 0
M  V30 88 H -4.213 -3.8033 3.0501 0
M  V30 89 H -5.6343 -2.9197 2.3793 0
M  V30 90 H -6.047 -4.7749 0.6633 0
M  V30 91 H -4.6734 -5.6791 1.402 0
M  V30 92 H -4.6726 -5.3419 -0.3645 0
M  V30 END ATOM
M  V30 BEGIN BOND
M  V30 1 2 1 2
M  V30 2 1 2 3
M  V30 3 1 2 4
M  V30 4 1 3 5
M  V30 5 2 4 6
M  V30 6 1 4 7
M  V30 7 1 5 8
M  V30 8 1 5 9
M  V30 9 1 6 10
M  V30 10 1 8 11
M  V30 11 1 8 12
M  V30 12 1 8 13
M  V30 13 1 9 14
M  V30 14 1 11 15
M  V30 15 1 13 16
M  V30 16 1 13 17
M  V30 17 1 15 18
M  V30 18 1 15 19
M  V30 19 1 16 20
M  V30 20 1 17 21
M  V30 21 1 18 22
M  V30 22 1 19 23
M  V30 23 1 22 24
M  V30 24 1 22 25
M  V30 25 1 23 26
M  V30 26 1 23 27
M  V30 27 1 25 28
M  V30 28 1 27 29
M  V30 29 1 27 30
M  V30 30 1 28 31
M  V30 31 1 29 32
M  V30 32 1 29 33
M  V30 33 1 30 34
M  V30 34 1 33 35
M  V30 35 1 33 36
M  V30 36 1 33 37
M  V30 37 1 34 38
M  V30 38 1 36 39
M  V30 39 1 38 40
M  V30 40 1 39 41
M  V30 41 1 40 42
M  V30 42 1 14 16
M  V30 43 1 15 16
M  V30 44 1 18 21
M  V30 45 1 22 23
M  V30 46 1 28 29
M  V30 47 1 34 36
M  V30 48 1 40 41
M  V30 49 1 5 43
M  V30 50 1 6 44
M  V30 51 1 7 45
M  V30 52 1 7 46
M  V30 53 1 7 47
M  V30 54 1 9 48
M  V30 55 1 9 49
M  V30 56 1 10 50
M  V30 57 1 10 51
M  V30 58 1 10 52
M  V30 59 1 12 53
M  V30 60 1 13 54
M  V30 61 1 14 55
M  V30 62 1 14 56
M  V30 63 1 17 57
M  V30 64 1 17 58
M  V30 65 1 18 59
M  V30 66 1 19 60
M  V30 67 1 19 61
M  V30 68 1 20 62
M  V30 69 1 20 63
M  V30 70 1 20 64
M  V30 71 1 21 65
M  V30 72 1 21 66
M  V30 73 1 24 67
M  V30 74 1 25 68
M  V30 75 1 25 69
M  V30 76 1 26 70
M  V30 77 1 27 71
M  V30 78 1 28 72
M  V30 79 1 30 73
M  V30 80 1 30 74
M  V30 81 1 31 75
M  V30 82 1 32 76
M  V30 83 1 34 77
M  V30 84 1 35 78
M  V30 85 1 36 79
M  V30 86 1 37 80
M  V30 87 1 37 81
M  V30 88 1 37 82
M  V30 89 1 38 83
M  V30 90 1 38 84
M  V30 91 1 39 85
M  V30 92 1 39 86
M  V30 93 1 40 87
M  V30 94 1 41 88
M  V30 95 1 41 89
M  V30 96 1 42 90
M  V30 97 1 42 91
M  V30 98 1 42 92
M  V30 END BOND
M  V30 BEGIN COLLECTION
M  V30 MDLV30/STEABS ATOMS=(15 5 8 13 15 16 18 22 23 27 28 29 33 34 36 40)
M  V30 END COLLECTION
M  V30 END CTAB
M  END
>  <Structure No>
3210

>  <LogS>
-3.0163

>  <MMFF94 Energy>
192.25

$$$$
Compound 3211
Actelion Java MolfileCreator 2.0

  0  0  0  0  0  0              0 V3000
M  V30 BEGIN CTAB
M  V30 COUNTS 7 6 0 0 0
M  V30 BEGIN ATOM
M  V30 1 F -1.2101 -0.3225 1.1294 0
M  V30 2 C -0.6678 0.0307 -0.0914 0
M  V30 3 C 0.817 0.1019 0.0253 0
M  V30 4 O 1.3698 1.1595 0.4265 0
M  V30 5 O 1.5914 -1.016 -0.2564 0 CHG=-1
M  V30 6 H -1.0739 1.0163 -0.4025 0
M  V30 7 H -0.9508 -0.7277 -0.8509 0
M  V30 END ATOM
M  V30 BEGIN BOND
M  V30 1 1 1 2
M  V30 2 1 2 3
M  V30 3 2 3 4
M  V30 4 1 3 5
M  V30 5 1 2 6
M  V30 6 1 2 7
M  V30 END BOND
M  V30 END CTAB
M  END
>  <Structure No>
3211

>  <LogS>
1.0452

>  <MMFF94 Energy>
51.876

$$$$
Compound 3212
Actelion Java MolfileCreator 2.0

  0  0  0  0  0  0              0 V3000
M  V30 BEGIN CTAB
M  V30 COUNTS 25 25 0 0 0
M  V30 BEGIN ATOM
M  V30 1 O 2.7475 -1.5692 -0.549 0
M  V30 2 C 2.0693 -0.516 -0.3895 0
M  V30 3 O 2.6991 0.7327 -0.4225 0
M  V30 4 C 0.6063 -0.5902 -0.1664 0
M  V30 5 C 4.0981 0.882 -0.632 0
M  V30 6 C -0.0018 -1.7804 -0.0095 0
M  V30 7 C -0.1701 0.7001 0.008 0
M  V30 8 C -1.4866 -1.9128 0.1814 0
M  V30 9 N -1.6207 0.5186 -0.2147 0 CHG=1 CFG=1
M  V30 10 C -2.1315 -0.5914 0.6115 0
M  V30 11 C -2.3424 1.7629 0.1014 0
M  V30 12 H 4.382 0.4586 -1.6187 0
M  V30 13 H 4.3558 1.9609 -0.6162 0
M  V30 14 H 4.6605 0.3657 0.1743 0
M  V30 15 H 0.5632 -2.6992 -0.1082 0
M  V30 16 H 0.0226 1.0808 1.0369 0
M  V30 17 H 0.2174 1.4557 -0.7118 0
M  V30 18 H -1.6914 -2.6902 0.9482 0
M  V30 19 H -1.9354 -2.2465 -0.7786 0
M  V30 20 H -1.7862 0.3012 -1.2272 0
M  V30 21 H -3.2349 -0.6873 0.4968 0
M  V30 22 H -1.915 -0.4086 1.6895 0
M  V30 23 H -3.4262 1.6494 -0.1213 0
M  V30 24 H -2.2261 2.0335 1.1747 0
M  V30 25 H -1.9608 2.6017 -0.5213 0
M  V30 END ATOM
M  V30 BEGIN BOND
M  V30 1 2 1 2
M  V30 2 1 2 3
M  V30 3 1 2 4
M  V30 4 1 3 5
M  V30 5 2 4 6
M  V30 6 1 4 7
M  V30 7 1 6 8
M  V30 8 1 7 9
M  V30 9 1 8 10
M  V30 10 1 9 11
M  V30 11 1 9 10
M  V30 12 1 5 12
M  V30 13 1 5 13
M  V30 14 1 5 14
M  V30 15 1 6 15
M  V30 16 1 7 16
M  V30 17 1 7 17
M  V30 18 1 8 18
M  V30 19 1 8 19
M  V30 20 1 9 20
M  V30 21 1 10 21
M  V30 22 1 10 22
M  V30 23 1 11 23
M  V30 24 1 11 24
M  V30 25 1 11 25
M  V30 END BOND
M  V30 BEGIN COLLECTION
M  V30 MDLV30/STEABS ATOMS=(1 9)
M  V30 END COLLECTION
M  V30 END CTAB
M  END
>  <Structure No>
3212

>  <LogS>
0.8091

>  <MMFF94 Energy>
2.7413

$$$$
Compound 3213
Actelion Java MolfileCreator 2.0

  0  0  0  0  0  0              0 V3000
M  V30 BEGIN CTAB
M  V30 COUNTS 29 29 0 0 0
M  V30 BEGIN ATOM
M  V30 1 O 2.5939 0.157 0.864 0
M  V30 2 C 2.8956 0.5799 -0.2858 0
M  V30 3 O 2.1034 0.264 -1.3971 0
M  V30 4 N 4.0897 1.3437 -0.4777 0
M  V30 5 C 0.7894 -0.2253 -1.3442 0
M  V30 6 C 4.9695 1.692 0.6309 0
M  V30 7 C -0.0969 0.1113 -0.3032 0
M  V30 8 C 0.3413 -1.0415 -2.3881 0
M  V30 9 C -1.4108 -0.3924 -0.2887 0
M  V30 10 C -0.9602 -1.546 -2.383 0
M  V30 11 C -1.8319 -1.2291 -1.3392 0
M  V30 12 C -2.3533 -0.0225 0.8419 0
M  V30 13 C -3.5625 0.762 0.3189 0
M  V30 14 C -2.7974 -1.2662 1.6211 0
M  V30 15 H 4.3345 1.6651 -1.4412 0
M  V30 16 H 5.8285 2.2884 0.2575 0
M  V30 17 H 4.4122 2.2943 1.3791 0
M  V30 18 H 5.3551 0.7677 1.1104 0
M  V30 19 H 0.2212 0.7876 0.4787 0
M  V30 20 H 1.0089 -1.2929 -3.2024 0
M  V30 21 H -1.2948 -2.1838 -3.191 0
M  V30 22 H -2.8367 -1.6306 -1.357 0
M  V30 23 H -1.8247 0.6395 1.5639 0
M  V30 24 H -4.1904 1.1039 1.1694 0
M  V30 25 H -4.188 0.1352 -0.3514 0
M  V30 26 H -3.2207 1.6583 -0.242 0
M  V30 27 H -1.9085 -1.8222 1.9889 0
M  V30 28 H -3.407 -0.9662 2.5002 0
M  V30 29 H -3.4066 -1.9425 0.9845 0
M  V30 END ATOM
M  V30 BEGIN BOND
M  V30 1 2 1 2
M  V30 2 1 2 3
M  V30 3 1 2 4
M  V30 4 1 3 5
M  V30 5 1 4 6
M  V30 6 2 5 7
M  V30 7 1 5 8
M  V30 8 1 7 9
M  V30 9 2 8 10
M  V30 10 2 9 11
M  V30 11 1 9 12
M  V30 12 1 12 13
M  V30 13 1 12 14
M  V30 14 1 10 11
M  V30 15 1 4 15
M  V30 16 1 6 16
M  V30 17 1 6 17
M  V30 18 1 6 18
M  V30 19 1 7 19
M  V30 20 1 8 20
M  V30 21 1 10 21
M  V30 22 1 11 22
M  V30 23 1 12 23
M  V30 24 1 13 24
M  V30 25 1 13 25
M  V30 26 1 13 26
M  V30 27 1 14 27
M  V30 28 1 14 28
M  V30 29 1 14 29
M  V30 END BOND
M  V30 END CTAB
M  END
>  <Structure No>
3213

>  <LogS>
-3.3567

>  <MMFF94 Energy>
-12.965

$$$$
Compound 3214
Actelion Java MolfileCreator 2.0

  0  0  0  0  0  0              0 V3000
M  V30 BEGIN CTAB
M  V30 COUNTS 87 94 0 0 0
M  V30 BEGIN ATOM
M  V30 1 S 0.0 0.0 0.0 0
M  V30 2 O -0.0902 -0.9963 -1.1206 0
M  V30 3 O -0.0993 -0.7168 1.3165 0
M  V30 4 O -1.2572 1.1059 -0.1314 0 CHG=-1
M  V30 5 O 1.4691 0.8093 -0.0872 0 CHG=-1
M  V30 6 O 2.702 -0.2647 -1.0711 0
M  V30 7 C 2.2313 1.0098 -0.802 0
M  V30 8 C 1.6319 -1.2193 -1.0014 0 CFG=2
M  V30 9 C 2.9821 2.1739 -0.6422 0
M  V30 10 C 0.8904 1.0025 -0.5632 0
M  V30 11 C 0.3447 -0.3656 -0.6904 0 CFG=2
M  V30 12 C 1.8951 -2.3253 0.0595 0 CFG=1
M  V30 13 O 4.3413 2.1847 -0.9432 0
M  V30 14 C 2.3304 3.3198 -0.1362 0
M  V30 15 C 0.2565 2.0495 0.1137 0
M  V30 16 C -0.2824 -0.6592 0.6871 0 CFG=2
M  V30 17 C -0.7015 -0.4139 -1.855 0
M  V30 18 O 2.5904 -1.783 1.1529 0
M  V30 19 C 0.5816 -2.9344 0.5394 0
M  V30 20 C 0.9818 3.2457 0.28 0
M  V30 21 C -1.0181 1.7705 0.9075 0
M  V30 22 C -0.4609 -2.1423 0.8545 0
M  V30 23 C -1.522 0.272 0.839 0 CFG=1
M  V30 24 C -2.1148 -0.7642 -1.3753 0
M  V30 25 N -2.5461 0.0974 -0.2509 0 CHG=1 CFG=1
M  V30 26 C -3.8152 -0.4154 0.2985 0
M  V30 27 O -2.4844 -0.8339 -0.8882 0
M  V30 28 C -2.2323 0.5258 -0.8023 0
M  V30 29 C -1.2842 -1.5823 -0.6447 0 CFG=1
M  V30 30 C -3.1676 1.56 -0.8215 0
M  V30 31 C -0.9178 0.7728 -0.5383 0
M  V30 32 C -0.1672 -0.4977 -0.4394 0 CFG=1
M  V30 33 C -1.4169 -2.5533 0.564 0 CFG=2
M  V30 34 O -4.4957 1.305 -1.1525 0
M  V30 35 C -2.7344 2.8539 -0.4599 0
M  V30 36 C -0.4993 1.9881 0.0175 0
M  V30 37 C 0.4643 -0.4922 0.9616 0 CFG=1
M  V30 38 C 0.906 -0.6112 -1.5503 0
M  V30 39 O -2.2156 -1.9852 1.5704 0
M  V30 40 C -0.048 -2.8715 1.1484 0
M  V30 41 C -1.4142 3.0588 -2.0E-4 0
M  V30 42 C 0.7754 2.0382 0.8597 0
M  V30 43 C 0.8536 -1.8914 1.3518 0
M  V30 44 C 1.5228 0.6518 1.0026 0 CFG=2
M  V30 45 C 2.0223 0.4366 -1.4173 0
M  V30 46 N 2.5771 0.5205 -0.0464 0 CHG=1 CFG=2
M  V30 47 C 3.5327 -0.5736 0.2183 0
M  V30 48 H 1.5633 -1.7175 -1.9918 0
M  V30 49 H 2.516 -3.1233 -0.4092 0
M  V30 50 H 4.9014 3.0202 -0.8205 0
M  V30 51 H 2.8849 4.2375 0.0124 0
M  V30 52 H 0.4292 -0.3753 1.5004 0
M  V30 53 H -0.4274 -1.1635 -2.6263 0
M  V30 54 H -0.7511 0.5617 -2.3896 0
M  V30 55 H 2.9322 -2.5496 1.6836 0
M  V30 56 H 0.4764 -4.0132 0.5975 0
M  V30 57 H 0.5333 4.0875 0.7921 0
M  V30 58 H -0.7888 1.9944 1.9727 0
M  V30 59 H -1.8097 2.4912 0.6126 0
M  V30 60 H -1.4061 -2.5673 1.1769 0
M  V30 61 H -1.966 0.0463 1.8374 0
M  V30 62 H -2.8128 -0.639 -2.2346 0
M  V30 63 H -2.1565 -1.8407 -1.0998 0
M  V30 64 H -2.7792 1.0251 -0.6776 0
M  V30 65 H -3.6696 -1.4109 0.7732 0
M  V30 66 H -4.5817 -0.5106 -0.5027 0
M  V30 67 H -4.2183 0.2881 1.06 0
M  V30 68 H -1.0758 -2.1962 -1.5495 0
M  V30 69 H -1.8762 -3.5085 0.2182 0
M  V30 70 H -5.1887 2.0443 -1.1577 0
M  V30 71 H -3.4359 3.6783 -0.4523 0
M  V30 72 H -0.3115 -0.2155 1.716 0
M  V30 73 H 0.4289 -0.4922 -2.5485 0
M  V30 74 H 1.3532 -1.6279 -1.5286 0
M  V30 75 H -3.1614 -2.1227 1.3011 0
M  V30 76 H 0.2077 -3.8976 1.3937 0
M  V30 77 H -1.1321 4.0228 0.4038 0
M  V30 78 H 0.4833 2.3702 1.8801 0
M  V30 79 H 1.4508 2.8219 0.4557 0
M  V30 80 H 1.8166 -2.1149 1.797 0
M  V30 81 H 2.0042 0.6447 2.0073 0
M  V30 82 H 2.8273 0.2007 -2.1495 0
M  V30 83 H 1.6233 1.4288 -1.7238 0
M  V30 84 H 3.1561 1.3938 -0.0113 0
M  V30 85 H 3.8478 -0.5793 1.2845 0
M  V30 86 H 3.1148 -1.5654 -0.0444 0
M  V30 87 H 4.4509 -0.4335 -0.3939 0
M  V30 END ATOM
M  V30 BEGIN BOND
M  V30 1 2 1 2
M  V30 2 2 1 3
M  V30 3 1 1 4
M  V30 4 1 1 5
M  V30 5 1 6 7
M  V30 6 1 6 8
M  V30 7 2 7 9
M  V30 8 1 7 10
M  V30 9 1 8 11
M  V30 10 1 8 12
M  V30 11 1 9 13
M  V30 12 1 9 14
M  V30 13 2 10 15
M  V30 14 1 11 16
M  V30 15 1 11 17
M  V30 16 1 12 18
M  V30 17 1 12 19
M  V30 18 2 14 20
M  V30 19 1 15 21
M  V30 20 1 16 22
M  V30 21 1 16 23
M  V30 22 1 17 24
M  V30 23 1 23 25
M  V30 24 1 25 26
M  V30 25 1 27 28
M  V30 26 1 27 29
M  V30 27 2 28 30
M  V30 28 1 28 31
M  V30 29 1 29 32
M  V30 30 1 29 33
M  V30 31 1 30 34
M  V30 32 1 30 35
M  V30 33 2 31 36
M  V30 34 1 32 37
M  V30 35 1 32 38
M  V30 36 1 33 39
M  V30 37 1 33 40
M  V30 38 2 35 41
M  V30 39 1 36 42
M  V30 40 1 37 43
M  V30 41 1 37 44
M  V30 42 1 38 45
M  V30 43 1 44 46
M  V30 44 1 46 47
M  V30 45 1 10 11
M  V30 46 1 15 20
M  V30 47 2 19 22
M  V30 48 1 21 23
M  V30 49 1 24 25
M  V30 50 1 31 32
M  V30 51 1 36 41
M  V30 52 2 40 43
M  V30 53 1 42 44
M  V30 54 1 45 46
M  V30 55 1 8 48
M  V30 56 1 12 49
M  V30 57 1 13 50
M  V30 58 1 14 51
M  V30 59 1 16 52
M  V30 60 1 17 53
M  V30 61 1 17 54
M  V30 62 1 18 55
M  V30 63 1 19 56
M  V30 64 1 20 57
M  V30 65 1 21 58
M  V30 66 1 21 59
M  V30 67 1 22 60
M  V30 68 1 23 61
M  V30 69 1 24 62
M  V30 70 1 24 63
M  V30 71 1 25 64
M  V30 72 1 26 65
M  V30 73 1 26 66
M  V30 74 1 26 67
M  V30 75 1 29 68
M  V30 76 1 33 69
M  V30 77 1 34 70
M  V30 78 1 35 71
M  V30 79 1 37 72
M  V30 80 1 38 73
M  V30 81 1 38 74
M  V30 82 1 39 75
M  V30 83 1 40 76
M  V30 84 1 41 77
M  V30 85 1 42 78
M  V30 86 1 42 79
M  V30 87 1 43 80
M  V30 88 1 44 81
M  V30 89 1 45 82
M  V30 90 1 45 83
M  V30 91 1 46 84
M  V30 92 1 47 85
M  V30 93 1 47 86
M  V30 94 1 47 87
M  V30 END BOND
M  V30 BEGIN COLLECTION
M  V30 MDLV30/STEABS ATOMS=(12 8 11 12 16 23 25 29 32 33 37 44 46)
M  V30 END COLLECTION
M  V30 END CTAB
M  END
>  <Structure No>
3214

>  <LogS>
-1.0157

>  <MMFF94 Energy>
111.29

$$$$
Compound 3215
Actelion Java MolfileCreator 2.0

  0  0  0  0  0  0              0 V3000
M  V30 BEGIN CTAB
M  V30 COUNTS 36 35 0 0 0
M  V30 BEGIN ATOM
M  V30 1 O -3.9231 -2.3524 -1.0972 0
M  V30 2 C -3.6491 -1.7547 -0.0214 0
M  V30 3 O -2.3848 -1.1966 0.183 0
M  V30 4 N -4.6383 -1.6441 0.998 0
M  V30 5 C -1.3459 -1.2581 -0.7933 0
M  V30 6 C -0.0502 -0.5271 -0.3139 0
M  V30 7 C -0.2194 1.0559 -0.3743 0 CFG=2
M  V30 8 C 1.0705 -0.99 -1.3038 0
M  V30 9 C 0.2779 -1.0186 1.1188 0
M  V30 10 C 0.8763 1.8438 0.4084 0
M  V30 11 C -1.6078 1.5504 0.0945 0
M  V30 12 O 2.3625 -0.4706 -0.9916 0
M  V30 13 C 1.1289 3.24 -0.1666 0
M  V30 14 C 3.3262 -1.1614 -0.2476 0
M  V30 15 O 3.1123 -2.3357 0.1586 0
M  V30 16 N 4.5653 -0.5261 0.0531 0
M  V30 17 H -4.4185 -1.1482 1.89 0
M  V30 18 H -5.5884 -2.0552 0.8618 0
M  V30 19 H -1.1332 -2.333 -0.9897 0
M  V30 20 H -1.7009 -0.8102 -1.7481 0
M  V30 21 H -0.1456 1.3454 -1.4468 0
M  V30 22 H 1.1189 -2.1005 -1.3616 0
M  V30 23 H 0.8103 -0.6452 -2.3279 0
M  V30 24 H 1.2512 -0.6329 1.4802 0
M  V30 25 H 0.3255 -2.1287 1.147 0
M  V30 26 H -0.4978 -0.687 1.8401 0
M  V30 27 H 0.5886 1.9392 1.4786 0
M  V30 28 H 1.8491 1.3251 0.4 0
M  V30 29 H -1.8277 1.1987 1.1241 0
M  V30 30 H -1.6624 2.6574 0.0943 0
M  V30 31 H -2.4062 1.2112 -0.5969 0
M  V30 32 H 0.2273 3.8801 -0.087 0
M  V30 33 H 1.4362 3.1685 -1.2315 0
M  V30 34 H 1.9482 3.73 0.4009 0
M  V30 35 H 5.2965 -1.0253 0.6067 0
M  V30 36 H 4.7478 0.448 -0.2743 0
M  V30 END ATOM
M  V30 BEGIN BOND
M  V30 1 2 1 2
M  V30 2 1 2 3
M  V30 3 1 2 4
M  V30 4 1 3 5
M  V30 5 1 5 6
M  V30 6 1 6 7
M  V30 7 1 6 8
M  V30 8 1 6 9
M  V30 9 1 7 10
M  V30 10 1 7 11
M  V30 11 1 8 12
M  V30 12 1 10 13
M  V30 13 1 12 14
M  V30 14 2 14 15
M  V30 15 1 14 16
M  V30 16 1 4 17
M  V30 17 1 4 18
M  V30 18 1 5 19
M  V30 19 1 5 20
M  V30 20 1 7 21
M  V30 21 1 8 22
M  V30 22 1 8 23
M  V30 23 1 9 24
M  V30 24 1 9 25
M  V30 25 1 9 26
M  V30 26 1 10 27
M  V30 27 1 10 28
M  V30 28 1 11 29
M  V30 29 1 11 30
M  V30 30 1 11 31
M  V30 31 1 13 32
M  V30 32 1 13 33
M  V30 33 1 13 34
M  V30 34 1 16 35
M  V30 35 1 16 36
M  V30 END BOND
M  V30 BEGIN COLLECTION
M  V30 MDLV30/STEABS ATOMS=(1 7)
M  V30 END COLLECTION
M  V30 END CTAB
M  END
>  <Structure No>
3215

>  <LogS>
-2.366

>  <MMFF94 Energy>
-123.82

$$$$
Compound 3216
Actelion Java MolfileCreator 2.0

  0  0  0  0  0  0              0 V3000
M  V30 BEGIN CTAB
M  V30 COUNTS 54 56 0 0 0
M  V30 BEGIN ATOM
M  V30 1 O 4.3299 2.0028 -2.5641 0
M  V30 2 C 3.1364 1.6882 -2.2934 0
M  V30 3 C 2.1421 2.4661 -2.8933 0
M  V30 4 C 2.9816 0.592 -1.4416 0
M  V30 5 O 2.622 3.5102 -3.7141 0
M  V30 6 C 0.7625 2.2795 -2.7632 0
M  V30 7 C 1.8421 0.0026 -0.8624 0
M  V30 8 C 1.8265 4.4561 -4.4252 0
M  V30 9 C 0.0536 1.3879 -1.9747 0
M  V30 10 C 0.4946 0.4126 -1.0737 0
M  V30 11 C 2.132 -1.1942 0.0713 0 CFG=1
M  V30 12 C -0.6107 -0.2871 -0.3401 0
M  V30 13 N 1.6188 -0.95 1.429 0
M  V30 14 C 1.6181 -2.5412 -0.5151 0
M  V30 15 C -1.535 0.4423 0.4514 0
M  V30 16 C -0.736 -1.6874 -0.436 0
M  V30 17 C 1.9436 -1.7823 2.551 0
M  V30 18 C 0.2635 -2.4799 -1.2334 0
M  V30 19 O -1.4016 1.8286 0.5899 0
M  V30 20 C -2.5966 -0.2347 1.104 0
M  V30 21 C -1.7514 -2.3497 0.2599 0
M  V30 22 O 2.79 -2.7095 2.438 0
M  V30 23 C 1.3204 -1.5116 3.8807 0
M  V30 24 C -0.345 2.4274 1.3331 0
M  V30 25 O -3.589 0.4157 1.8621 0
M  V30 26 C -2.6852 -1.6313 1.021 0
M  V30 27 C -3.824 1.818 1.9229 0
M  V30 28 O -3.7262 -2.2716 1.7135 0
M  V30 29 C -3.9443 -3.6789 1.7291 0
M  V30 30 H 3.9323 0.1467 -1.1672 0
M  V30 31 H 0.1203 2.9329 -3.337 0
M  V30 32 H 1.1984 5.038 -3.7176 0
M  V30 33 H 1.1901 3.9376 -5.173 0
M  V30 34 H 2.4961 5.1586 -4.9621 0
M  V30 35 H -1.0229 1.4936 -2.0746 0
M  V30 36 H 3.2296 -1.3327 0.1896 0
M  V30 37 H 1.1046 -0.0667 1.6362 0
M  V30 38 H 1.5572 -3.3091 0.2843 0
M  V30 39 H 2.3672 -2.9156 -1.2465 0
M  V30 40 H -0.0988 -3.5151 -1.4146 0
M  V30 41 H 0.392 -2.0184 -2.2365 0
M  V30 42 H -1.8131 -3.4279 0.1981 0
M  V30 43 H 1.4439 -2.3858 4.5537 0
M  V30 44 H 1.804 -0.6263 4.3421 0
M  V30 45 H 0.2351 -1.31 3.7528 0
M  V30 46 H -0.5236 3.5208 1.3982 0
M  V30 47 H -0.3205 2.0081 2.3612 0
M  V30 48 H 0.6327 2.2618 0.839 0
M  V30 49 H -3.9423 2.2338 0.8999 0
M  V30 50 H -4.7639 1.9992 2.4841 0
M  V30 51 H -3.0003 2.3237 2.467 0
M  V30 52 H -4.1365 -4.0468 0.6993 0
M  V30 53 H -4.8315 -3.9009 2.3566 0
M  V30 54 H -3.0631 -4.1965 2.164 0
M  V30 END ATOM
M  V30 BEGIN BOND
M  V30 1 2 1 2
M  V30 2 1 2 3
M  V30 3 1 2 4
M  V30 4 1 3 5
M  V30 5 2 3 6
M  V30 6 2 4 7
M  V30 7 1 5 8
M  V30 8 1 6 9
M  V30 9 1 7 10
M  V30 10 1 7 11
M  V30 11 1 10 12
M  V30 12 1 11 13
M  V30 13 1 11 14
M  V30 14 2 12 15
M  V30 15 1 12 16
M  V30 16 1 13 17
M  V30 17 1 14 18
M  V30 18 1 15 19
M  V30 19 1 15 20
M  V30 20 2 16 21
M  V30 21 2 17 22
M  V30 22 1 17 23
M  V30 23 1 19 24
M  V30 24 1 20 25
M  V30 25 2 20 26
M  V30 26 1 25 27
M  V30 27 1 26 28
M  V30 28 1 28 29
M  V30 29 2 9 10
M  V30 30 1 16 18
M  V30 31 1 21 26
M  V30 32 1 4 30
M  V30 33 1 6 31
M  V30 34 1 8 32
M  V30 35 1 8 33
M  V30 36 1 8 34
M  V30 37 1 9 35
M  V30 38 1 11 36
M  V30 39 1 13 37
M  V30 40 1 14 38
M  V30 41 1 14 39
M  V30 42 1 18 40
M  V30 43 1 18 41
M  V30 44 1 21 42
M  V30 45 1 23 43
M  V30 46 1 23 44
M  V30 47 1 23 45
M  V30 48 1 24 46
M  V30 49 1 24 47
M  V30 50 1 24 48
M  V30 51 1 27 49
M  V30 52 1 27 50
M  V30 53 1 27 51
M  V30 54 1 29 52
M  V30 55 1 29 53
M  V30 56 1 29 54
M  V30 END BOND
M  V30 BEGIN COLLECTION
M  V30 MDLV30/STEABS ATOMS=(1 11)
M  V30 END COLLECTION
M  V30 END CTAB
M  END
>  <Structure No>
3216

>  <LogS>
-0.9482

>  <MMFF94 Energy>
116.23

$$$$
Compound 3217
Actelion Java MolfileCreator 2.0

  0  0  0  0  0  0              0 V3000
M  V30 BEGIN CTAB
M  V30 COUNTS 21 21 0 0 0
M  V30 BEGIN ATOM
M  V30 1 O 0.0 2.381 2.1427 0
M  V30 2 C 0.6595 1.9262 1.1711 0
M  V30 3 C 0.1875 0.753 0.385 0
M  V30 4 C -0.9212 -0.0119 0.8234 0
M  V30 5 C 0.8499 0.3767 -0.8126 0
M  V30 6 O -1.5875 0.3375 2.0028 0
M  V30 7 C -1.336 -1.1275 0.0654 0
M  V30 8 C 0.4002 -0.7513 -1.5115 0
M  V30 9 C 2.0424 1.1316 -1.3556 0
M  V30 10 N -0.6641 -1.4602 -1.0656 0
M  V30 11 C -2.5025 -1.9741 0.4785 0
M  V30 12 O 3.1734 0.8898 -0.564 0
M  V30 13 H 1.5864 2.4218 0.9225 0
M  V30 14 H -2.3816 -0.1733 2.3663 0
M  V30 15 H 0.8953 -1.0702 -2.4197 0
M  V30 16 H 2.2539 0.852 -2.4132 0
M  V30 17 H 1.8275 2.2205 -1.3667 0
M  V30 18 H -2.6701 -2.792 -0.2542 0
M  V30 19 H -2.3062 -2.4306 1.4713 0
M  V30 20 H -3.4229 -1.3546 0.5243 0
M  V30 21 H 3.4725 -0.0335 -0.7732 0
M  V30 END ATOM
M  V30 BEGIN BOND
M  V30 1 2 1 2
M  V30 2 1 2 3
M  V30 3 2 3 4
M  V30 4 1 3 5
M  V30 5 1 4 6
M  V30 6 1 4 7
M  V30 7 2 5 8
M  V30 8 1 5 9
M  V30 9 2 7 10
M  V30 10 1 7 11
M  V30 11 1 9 12
M  V30 12 1 8 10
M  V30 13 1 2 13
M  V30 14 1 6 14
M  V30 15 1 8 15
M  V30 16 1 9 16
M  V30 17 1 9 17
M  V30 18 1 11 18
M  V30 19 1 11 19
M  V30 20 1 11 20
M  V30 21 1 12 21
M  V30 END BOND
M  V30 END CTAB
M  END
>  <Structure No>
3217

>  <LogS>
0.3901

>  <MMFF94 Energy>
21.878

$$$$
Compound 3218
Actelion Java MolfileCreator 2.0

  0  0  0  0  0  0              0 V3000
M  V30 BEGIN CTAB
M  V30 COUNTS 22 24 0 0 0
M  V30 BEGIN ATOM
M  V30 1 N -1.4506 1.6119 0.3222 0
M  V30 2 C -0.6961 0.4945 0.1264 0
M  V30 3 C -2.8094 1.5656 0.3409 0
M  V30 4 C 0.7052 0.5745 0.1125 0
M  V30 5 C -1.331 -0.7549 -0.0638 0
M  V30 6 C -3.4732 0.3508 0.1567 0
M  V30 7 N 1.3316 1.7706 0.2944 0
M  V30 8 C 1.474 -0.595 -0.0919 0
M  V30 9 C -0.5602 -1.9089 -0.2658 0
M  V30 10 C -2.731 -0.814 -0.0463 0
M  V30 11 C 2.6868 1.8791 0.2859 0
M  V30 12 C 0.8352 -1.8294 -0.2798 0
M  V30 13 C 2.8716 -0.4946 -0.1025 0
M  V30 14 C 3.4805 0.7473 0.087 0
M  V30 15 H -3.3757 2.4738 0.4991 0
M  V30 16 H -4.5548 0.3128 0.1715 0
M  V30 17 H -1.0364 -2.871 -0.4126 0
M  V30 18 H -3.2477 -1.7556 -0.1891 0
M  V30 19 H 3.1491 2.8459 0.4338 0
M  V30 20 H 1.4147 -2.7312 -0.4372 0
M  V30 21 H 3.489 -1.3715 -0.2567 0
M  V30 22 H 4.5594 0.8325 0.08 0
M  V30 END ATOM
M  V30 BEGIN BOND
M  V30 1 1 1 2
M  V30 2 2 1 3
M  V30 3 2 2 4
M  V30 4 1 2 5
M  V30 5 1 3 6
M  V30 6 1 4 7
M  V30 7 1 4 8
M  V30 8 2 5 9
M  V30 9 1 5 10
M  V30 10 2 7 11
M  V30 11 2 8 12
M  V30 12 1 8 13
M  V30 13 1 11 14
M  V30 14 2 6 10
M  V30 15 1 9 12
M  V30 16 2 13 14
M  V30 17 1 3 15
M  V30 18 1 6 16
M  V30 19 1 9 17
M  V30 20 1 10 18
M  V30 21 1 11 19
M  V30 22 1 12 20
M  V30 23 1 13 21
M  V30 24 1 14 22
M  V30 END BOND
M  V30 END CTAB
M  END
>  <Structure No>
3218

>  <LogS>
-1.826

>  <MMFF94 Energy>
89.882

$$$$
Compound 3219
Actelion Java MolfileCreator 2.0

  0  0  0  0  0  0              0 V3000
M  V30 BEGIN CTAB
M  V30 COUNTS 21 21 0 0 0
M  V30 BEGIN ATOM
M  V30 1 O 0.793 3.0163 -0.6344 0
M  V30 2 C 1.1885 1.9973 -0.009 0
M  V30 3 C 0.3803 0.7575 0.0216 0
M  V30 4 C -1.0249 0.808 0.2044 0
M  V30 5 C 1.0126 -0.5037 -0.1301 0
M  V30 6 O -1.7065 2.0075 0.4378 0
M  V30 7 C -1.7623 -0.3865 0.1904 0
M  V30 8 C 0.2226 -1.6638 -0.0674 0
M  V30 9 C 2.5169 -0.6288 -0.2998 0
M  V30 10 N -1.1222 -1.5771 0.0739 0
M  V30 11 C -3.2498 -0.3735 0.3722 0
M  V30 12 O 2.8718 -1.8168 -0.9569 0
M  V30 13 H 2.1605 2.0225 0.4656 0
M  V30 14 H -1.2464 2.8885 0.6213 0
M  V30 15 H 0.6714 -2.6456 -0.141 0
M  V30 16 H 2.9298 0.2312 -0.8724 0
M  V30 17 H 2.9873 -0.6252 0.7056 0
M  V30 18 H -3.6702 -1.3909 0.2236 0
M  V30 19 H -3.4982 -0.0313 1.3989 0
M  V30 20 H -3.7168 0.3108 -0.3672 0
M  V30 21 H 2.6178 -1.7001 -1.9099 0
M  V30 END ATOM
M  V30 BEGIN BOND
M  V30 1 2 1 2
M  V30 2 1 2 3
M  V30 3 2 3 4
M  V30 4 1 3 5
M  V30 5 1 4 6
M  V30 6 1 4 7
M  V30 7 2 5 8
M  V30 8 1 5 9
M  V30 9 2 7 10
M  V30 10 1 7 11
M  V30 11 1 9 12
M  V30 12 1 8 10
M  V30 13 1 2 13
M  V30 14 1 6 14
M  V30 15 1 8 15
M  V30 16 1 9 16
M  V30 17 1 9 17
M  V30 18 1 11 18
M  V30 19 1 11 19
M  V30 20 1 11 20
M  V30 21 1 12 21
M  V30 END BOND
M  V30 END CTAB
M  END
>  <Structure No>
3219

>  <LogS>
0.4758

>  <MMFF94 Energy>
24.897

$$$$
Compound 3220
Actelion Java MolfileCreator 2.0

  0  0  0  0  0  0              0 V3000
M  V30 BEGIN CTAB
M  V30 COUNTS 21 21 0 0 0
M  V30 BEGIN ATOM
M  V30 1 O 4.0757 1.8365 0.1595 0
M  V30 2 N 2.8767 1.5555 0.3621 0 CHG=1
M  V30 3 O 2.0643 2.4661 0.9959 0 CHG=-1
M  V30 4 C 2.3428 0.2987 -0.06 0
M  V30 5 O 1.094 -0.0587 0.1236 0
M  V30 6 C 3.0453 -0.7002 -0.7047 0
M  V30 7 C 0.934 -1.2605 -0.3827 0
M  V30 8 C 2.131 -1.7128 -0.9089 0
M  V30 9 C -0.3168 -2.0438 -0.3562 0
M  V30 10 N -1.4941 -1.5468 -0.1072 0
M  V30 11 N -1.7803 -0.1784 0.0425 0
M  V30 12 C -3.0447 0.2329 0.5674 0
M  V30 13 O -3.8806 -0.6282 0.9526 0
M  V30 14 C -3.3894 1.6851 0.6379 0
M  V30 15 H 4.0897 -0.6965 -0.9869 0
M  V30 16 H 2.3174 -2.6675 -1.3828 0
M  V30 17 H -0.2413 -3.1106 -0.5214 0
M  V30 18 H -1.141 0.553 -0.3371 0
M  V30 19 H -3.5494 2.0773 -0.3878 0
M  V30 20 H -4.3145 1.8384 1.2335 0
M  V30 21 H -2.5587 2.2441 1.1175 0
M  V30 END ATOM
M  V30 BEGIN BOND
M  V30 1 2 1 2
M  V30 2 1 2 3
M  V30 3 1 2 4
M  V30 4 1 4 5
M  V30 5 2 4 6
M  V30 6 1 5 7
M  V30 7 1 6 8
M  V30 8 1 7 9
M  V30 9 2 9 10
M  V30 10 1 10 11
M  V30 11 1 11 12
M  V30 12 2 12 13
M  V30 13 1 12 14
M  V30 14 2 7 8
M  V30 15 1 6 15
M  V30 16 1 8 16
M  V30 17 1 9 17
M  V30 18 1 11 18
M  V30 19 1 14 19
M  V30 20 1 14 20
M  V30 21 1 14 21
M  V30 END BOND
M  V30 END CTAB
M  END
>  <Structure No>
3220

>  <LogS>
-2.5958

>  <MMFF94 Energy>
90.351

$$$$
Compound 3221
Actelion Java MolfileCreator 2.0

  0  0  0  0  0  0              0 V3000
M  V30 BEGIN CTAB
M  V30 COUNTS 10 9 0 0 0
M  V30 BEGIN ATOM
M  V30 1 O 0.3022 -1.739 0.3022 0
M  V30 2 C 0.1248 -0.5384 0.1655 0
M  V30 3 C -1.2191 0.0488 0.4706 0
M  V30 4 C 1.2494 0.3336 -0.3046 0
M  V30 5 H -1.9861 -0.4163 -0.1833 0
M  V30 6 H -1.2194 1.1461 0.2978 0
M  V30 7 H -1.4784 -0.1458 1.5324 0
M  V30 8 H 1.4694 1.1044 0.4633 0
M  V30 9 H 0.9616 0.8339 -1.2529 0
M  V30 10 H 2.1661 -0.2687 -0.4809 0
M  V30 END ATOM
M  V30 BEGIN BOND
M  V30 1 2 1 2
M  V30 2 1 2 3
M  V30 3 1 2 4
M  V30 4 1 3 5
M  V30 5 1 3 6
M  V30 6 1 3 7
M  V30 7 1 4 8
M  V30 8 1 4 9
M  V30 9 1 4 10
M  V30 END BOND
M  V30 END CTAB
M  END
>  <Structure No>
3221

>  <LogS>
1.236

>  <MMFF94 Energy>
1.6523

$$$$
Compound 3222
Actelion Java MolfileCreator 2.0

  0  0  0  0  0  0              0 V3000
M  V30 BEGIN CTAB
M  V30 COUNTS 10 9 0 0 0
M  V30 BEGIN ATOM
M  V30 1 S 0.0 0.0818 0.9823 0
M  V30 2 O -0.0302 -1.3359 1.537 0
M  V30 3 C 1.379 0.0529 -0.1768 0
M  V30 4 C -1.4587 0.154 -0.0728 0
M  V30 5 H 1.252 -0.7841 -0.8946 0
M  V30 6 H 1.415 1.0125 -0.7327 0
M  V30 7 H 2.3282 -0.0823 0.3815 0
M  V30 8 H -2.3718 0.0851 0.5537 0
M  V30 9 H -1.4669 1.1152 -0.627 0
M  V30 10 H -1.4444 -0.6879 -0.7958 0
M  V30 END ATOM
M  V30 BEGIN BOND
M  V30 1 2 1 2
M  V30 2 1 1 3
M  V30 3 1 1 4
M  V30 4 1 3 5
M  V30 5 1 3 6
M  V30 6 1 3 7
M  V30 7 1 4 8
M  V30 8 1 4 9
M  V30 9 1 4 10
M  V30 END BOND
M  V30 END CTAB
M  END
>  <Structure No>
3222

>  <LogS>
1.1072

>  <MMFF94 Energy>
1.1875

$$$$
Compound 3223
Actelion Java MolfileCreator 2.0

  0  0  0  0  0  0              0 V3000
M  V30 BEGIN CTAB
M  V30 COUNTS 35 38 0 0 0
M  V30 BEGIN ATOM
M  V30 1 S 2.7122 -0.254 2.0336 0
M  V30 2 S 1.2341 -1.8473 2.0813 0
M  V30 3 C 2.1176 0.6851 0.5678 0 CFG=1
M  V30 4 C 0.3147 -1.4264 0.5532 0 CFG=1
M  V30 5 N 2.1806 -0.2177 -0.6154 0
M  V30 6 C 0.6621 1.0075 0.8284 0
M  V30 7 C 2.9487 1.9857 0.4107 0
M  V30 8 N -0.2485 -0.0893 0.7107 0
M  V30 9 C 1.3119 -1.3712 -0.5726 0
M  V30 10 C -0.8875 -2.3726 0.3358 0
M  V30 11 C 3.1686 -0.081 -1.6941 0
M  V30 12 O 0.2763 2.1419 1.2203 0
M  V30 13 O 4.3175 1.7133 0.2572 0
M  V30 14 C -1.702 -0.0616 0.7777 0 CFG=2
M  V30 15 O 1.4452 -2.326 -1.3861 0
M  V30 16 C -2.0695 -1.4662 0.4254 0
M  V30 17 C -2.3602 0.9135 -0.2279 0 CFG=2
M  V30 18 C -3.2889 -1.7835 -0.0227 0
M  V30 19 O -2.2396 2.2323 0.2329 0
M  V30 20 C -3.831 0.57 -0.3831 0
M  V30 21 C -4.2506 -0.7018 -0.3082 0
M  V30 22 H 2.5935 2.5515 -0.4766 0
M  V30 23 H 2.7944 2.6491 1.294 0
M  V30 24 H -0.8667 -2.8559 -0.6644 0
M  V30 25 H -0.9561 -3.1573 1.1192 0
M  V30 26 H 4.1748 -0.3598 -1.3183 0
M  V30 27 H 3.1804 0.9566 -2.0838 0
M  V30 28 H 2.9217 -0.7377 -2.5542 0
M  V30 29 H 4.708 1.6542 1.1677 0
M  V30 30 H -2.0318 0.166 1.8152 0
M  V30 31 H -1.8597 0.8015 -1.2186 0
M  V30 32 H -3.5332 -2.8039 -0.2892 0
M  V30 33 H -2.3851 2.8243 -0.5508 0
M  V30 34 H -4.5446 1.3529 -0.6093 0
M  V30 35 H -5.2888 -0.9423 -0.4976 0
M  V30 END ATOM
M  V30 BEGIN BOND
M  V30 1 1 1 2
M  V30 2 1 1 3
M  V30 3 1 2 4
M  V30 4 1 3 5
M  V30 5 1 3 6
M  V30 6 1 3 7
M  V30 7 1 4 8
M  V30 8 1 4 9
M  V30 9 1 4 10
M  V30 10 1 5 11
M  V30 11 2 6 12
M  V30 12 1 7 13
M  V30 13 1 8 14
M  V30 14 2 9 15
M  V30 15 1 10 16
M  V30 16 1 14 17
M  V30 17 2 16 18
M  V30 18 1 17 19
M  V30 19 1 17 20
M  V30 20 1 18 21
M  V30 21 1 5 9
M  V30 22 1 6 8
M  V30 23 1 14 16
M  V30 24 2 20 21
M  V30 25 1 7 22
M  V30 26 1 7 23
M  V30 27 1 10 24
M  V30 28 1 10 25
M  V30 29 1 11 26
M  V30 30 1 11 27
M  V30 31 1 11 28
M  V30 32 1 13 29
M  V30 33 1 14 30
M  V30 34 1 17 31
M  V30 35 1 18 32
M  V30 36 1 19 33
M  V30 37 1 20 34
M  V30 38 1 21 35
M  V30 END BOND
M  V30 BEGIN COLLECTION
M  V30 MDLV30/STEABS ATOMS=(4 3 4 14 17)
M  V30 END COLLECTION
M  V30 END CTAB
M  END
>  <Structure No>
3223

>  <LogS>
-3.6687

>  <MMFF94 Energy>
178.28

$$$$
Compound 3224
Actelion Java MolfileCreator 2.0

  0  0  0  0  0  0              0 V3000
M  V30 BEGIN CTAB
M  V30 COUNTS 48 51 0 0 0
M  V30 BEGIN ATOM
M  V30 1 O 6.0985 0.8927 -0.1622 0
M  V30 2 C 4.8583 0.9469 0.0507 0
M  V30 3 C 3.9462 1.2924 -1.0496 0
M  V30 4 C 4.3293 0.6913 1.4308 0
M  V30 5 C 2.6229 1.3994 -0.8477 0
M  V30 6 C 2.8483 0.2886 1.3961 0
M  V30 7 C 2.0238 1.2895 0.5491 0 CFG=2
M  V30 8 C 1.6926 1.595 -2.0124 0
M  V30 9 C 0.4948 0.963 0.4624 0 CFG=1
M  V30 10 C 0.649 0.4667 -2.0697 0
M  V30 11 C 0.1954 -0.0685 -0.6755 0 CFG=2
M  V30 12 C -0.142 0.5863 1.835 0
M  V30 13 C -1.3194 -0.3802 -0.6813 0 CFG=2
M  V30 14 C -1.635 0.2067 1.7231 0
M  V30 15 C -1.8474 -0.9059 0.6612 0 CFG=1
M  V30 16 C -1.8548 -1.3613 -1.7181 0
M  V30 17 C -3.3247 -1.2471 0.2913 0 CFG=1
M  V30 18 C -1.1305 -2.2187 1.1288 0
M  V30 19 C -3.2101 -1.8241 -1.1496 0
M  V30 20 O -3.8684 -2.1943 1.1815 0
M  V30 21 C -4.198 -0.0467 0.2805 0
M  V30 22 C -4.9097 0.9267 0.2692 0
M  V30 23 H 4.3583 1.3959 -2.0464 0
M  V30 24 H 4.9171 -0.1186 1.9139 0
M  V30 25 H 4.4492 1.6169 2.0346 0
M  V30 26 H 2.4984 0.2831 2.4486 0
M  V30 27 H 2.7486 -0.738 0.9806 0
M  V30 28 H 2.1237 2.2871 1.033 0
M  V30 29 H 2.238 1.6387 -2.9809 0
M  V30 30 H 1.1752 2.5707 -1.8858 0
M  V30 31 H -0.0088 1.9122 0.1651 0
M  V30 32 H -0.2159 0.8527 -2.6524 0
M  V30 33 H 1.0698 -0.3814 -2.6534 0
M  V30 34 H 0.7718 -0.9963 -0.4808 0
M  V30 35 H 0.39 -0.2572 2.3117 0
M  V30 36 H -0.0472 1.4525 2.5252 0
M  V30 37 H -1.8285 0.5916 -0.8956 0
M  V30 38 H -2.198 1.1271 1.4576 0
M  V30 39 H -2.0081 -0.1359 2.7127 0
M  V30 40 H -1.9865 -0.87 -2.7066 0
M  V30 41 H -1.1627 -2.2242 -1.832 0
M  V30 42 H -0.0335 -2.119 1.2158 0
M  V30 43 H -1.5052 -2.5201 2.1304 0
M  V30 44 H -1.3191 -3.0639 0.4352 0
M  V30 45 H -4.0439 -1.485 -1.8047 0
M  V30 46 H -3.2352 -2.9361 -1.1281 0
M  V30 47 H -4.7462 -2.4831 0.8159 0
M  V30 48 H -5.5335 1.7814 0.2593 0
M  V30 END ATOM
M  V30 BEGIN BOND
M  V30 1 2 1 2
M  V30 2 1 2 3
M  V30 3 1 2 4
M  V30 4 2 3 5
M  V30 5 1 4 6
M  V30 6 1 5 7
M  V30 7 1 5 8
M  V30 8 1 7 9
M  V30 9 1 8 10
M  V30 10 1 9 11
M  V30 11 1 9 12
M  V30 12 1 11 13
M  V30 13 1 12 14
M  V30 14 1 13 15
M  V30 15 1 13 16
M  V30 16 1 15 17
M  V30 17 1 15 18
M  V30 18 1 16 19
M  V30 19 1 17 20
M  V30 20 1 17 21
M  V30 21 3 21 22
M  V30 22 1 6 7
M  V30 23 1 10 11
M  V30 24 1 14 15
M  V30 25 1 17 19
M  V30 26 1 3 23
M  V30 27 1 4 24
M  V30 28 1 4 25
M  V30 29 1 6 26
M  V30 30 1 6 27
M  V30 31 1 7 28
M  V30 32 1 8 29
M  V30 33 1 8 30
M  V30 34 1 9 31
M  V30 35 1 10 32
M  V30 36 1 10 33
M  V30 37 1 11 34
M  V30 38 1 12 35
M  V30 39 1 12 36
M  V30 40 1 13 37
M  V30 41 1 14 38
M  V30 42 1 14 39
M  V30 43 1 16 40
M  V30 44 1 16 41
M  V30 45 1 18 42
M  V30 46 1 18 43
M  V30 47 1 18 44
M  V30 48 1 19 45
M  V30 49 1 19 46
M  V30 50 1 20 47
M  V30 51 1 22 48
M  V30 END BOND
M  V30 BEGIN COLLECTION
M  V30 MDLV30/STEABS ATOMS=(6 7 9 11 13 15 17)
M  V30 END COLLECTION
M  V30 END CTAB
M  END
>  <Structure No>
3224

>  <LogS>
-4.6271

>  <MMFF94 Energy>
69.361

$$$$
Compound 3225
Actelion Java MolfileCreator 2.0

  0  0  0  0  0  0              0 V3000
M  V30 BEGIN CTAB
M  V30 COUNTS 14 15 0 0 0
M  V30 BEGIN ATOM
M  V30 1 O -0.2389 2.7107 0.0 0
M  V30 2 C -0.5647 1.4955 0.0431 0
M  V30 3 N -1.8742 1.1278 0.1637 0
M  V30 4 C 0.3851 0.4865 -0.0295 0
M  V30 5 C -2.2397 -0.1943 0.2116 0
M  V30 6 N 1.7155 0.5576 -0.1485 0
M  V30 7 C 0.0079 -0.8104 0.019 0
M  V30 8 N -1.2914 -1.1789 0.1387 0
M  V30 9 C 2.1053 -0.7424 -0.168 0
M  V30 10 N 1.0736 -1.6253 -0.0661 0
M  V30 11 H -3.285 -0.4569 0.3075 0
M  V30 12 H 2.316 1.4095 -0.2117 0
M  V30 13 H -1.5633 -2.1867 0.1747 0
M  V30 14 H 3.139 -1.0496 -0.2562 0
M  V30 END ATOM
M  V30 BEGIN BOND
M  V30 1 2 1 2
M  V30 2 1 2 3
M  V30 3 1 2 4
M  V30 4 2 3 5
M  V30 5 1 4 6
M  V30 6 2 4 7
M  V30 7 1 5 8
M  V30 8 1 6 9
M  V30 9 1 7 10
M  V30 10 1 7 8
M  V30 11 2 9 10
M  V30 12 1 5 11
M  V30 13 1 6 12
M  V30 14 1 8 13
M  V30 15 1 9 14
M  V30 END BOND
M  V30 END CTAB
M  END
>  <Structure No>
3225

>  <LogS>
-2.2888

>  <MMFF94 Energy>
-91.848

$$$$
Compound 3226
Actelion Java MolfileCreator 2.0

  0  0  0  0  0  0              0 V3000
M  V30 BEGIN CTAB
M  V30 COUNTS 45 46 0 0 0
M  V30 BEGIN ATOM
M  V30 1 O -1.3586 0.0798 0.719 0
M  V30 2 C -0.7512 0.1677 -0.5672 0 CFG=1
M  V30 3 C -2.7227 0.452 0.6713 0 CFG=1
M  V30 4 O 0.4892 -0.5163 -0.5195 0
M  V30 5 C -1.6319 -0.453 -1.6976 0 CFG=1
M  V30 6 C -3.5453 -0.6648 -0.0342 0 CFG=2
M  V30 7 C -3.2147 0.6931 2.1023 0
M  V30 8 C 1.49 0.2564 0.1264 0 CFG=2
M  V30 9 O -0.8489 -1.149 -2.634 0
M  V30 10 C -2.6804 -1.4035 -1.0902 0 CFG=1
M  V30 11 O -4.7209 -0.1335 -0.597 0
M  V30 12 O -4.5448 1.1331 2.0885 0
M  V30 13 C 2.286 1.0735 -0.9297 0 CFG=1
M  V30 14 C 2.4214 -0.7061 0.9139 0 CFG=1
M  V30 15 O -3.4748 -2.0162 -2.0776 0
M  V30 16 O 2.7263 2.2817 -0.3613 0
M  V30 17 C 3.5137 0.3002 -1.4525 0 CFG=2
M  V30 18 O 3.7323 -0.1775 0.982 0
M  V30 19 C 1.913 -0.9378 2.3422 0
M  V30 20 O 3.1301 -0.7058 -2.3606 0
M  V30 21 C 4.3804 -0.2563 -0.2813 0 CFG=1
M  V30 22 O 0.6508 -1.5453 2.3134 0
M  V30 23 O 4.7999 -1.5731 -0.5374 0
M  V30 24 H -0.5953 1.2431 -0.8274 0
M  V30 25 H -2.8318 1.4193 0.1242 0
M  V30 26 H -2.1746 0.3702 -2.2199 0
M  V30 27 H -3.8534 -1.4267 0.7157 0
M  V30 28 H -2.5741 1.4692 2.5782 0
M  V30 29 H -3.1291 -0.2446 2.6965 0
M  V30 30 H 1.05 0.9795 0.8575 0
M  V30 31 H -0.3469 -0.4641 -3.1486 0
M  V30 32 H -2.1248 -2.2143 -0.5668 0
M  V30 33 H -4.4545 0.54 -1.2757 0
M  V30 34 H -4.8019 1.262 3.0383 0
M  V30 35 H 1.6317 1.305 -1.8034 0
M  V30 36 H 2.4368 -1.7086 0.4243 0
M  V30 37 H -3.81 -1.3082 -2.6872 0
M  V30 38 H 1.9428 2.8916 -0.337 0
M  V30 39 H 4.1382 1.0182 -2.0295 0
M  V30 40 H 2.6283 -1.6019 2.8771 0
M  V30 41 H 1.8591 0.0308 2.8891 0
M  V30 42 H 2.5628 -1.36 -1.8793 0
M  V30 43 H 5.2878 0.3865 -0.2156 0
M  V30 44 H 0.3671 -1.6368 3.26 0
M  V30 45 H 5.4334 -1.8129 0.188 0
M  V30 END ATOM
M  V30 BEGIN BOND
M  V30 1 1 1 2
M  V30 2 1 1 3
M  V30 3 1 2 4
M  V30 4 1 2 5
M  V30 5 1 3 6
M  V30 6 1 3 7
M  V30 7 1 4 8
M  V30 8 1 5 9
M  V30 9 1 5 10
M  V30 10 1 6 11
M  V30 11 1 7 12
M  V30 12 1 8 13
M  V30 13 1 8 14
M  V30 14 1 10 15
M  V30 15 1 13 16
M  V30 16 1 13 17
M  V30 17 1 14 18
M  V30 18 1 14 19
M  V30 19 1 17 20
M  V30 20 1 17 21
M  V30 21 1 19 22
M  V30 22 1 21 23
M  V30 23 1 6 10
M  V30 24 1 18 21
M  V30 25 1 2 24
M  V30 26 1 3 25
M  V30 27 1 5 26
M  V30 28 1 6 27
M  V30 29 1 7 28
M  V30 30 1 7 29
M  V30 31 1 8 30
M  V30 32 1 9 31
M  V30 33 1 10 32
M  V30 34 1 11 33
M  V30 35 1 12 34
M  V30 36 1 13 35
M  V30 37 1 14 36
M  V30 38 1 15 37
M  V30 39 1 16 38
M  V30 40 1 17 39
M  V30 41 1 19 40
M  V30 42 1 19 41
M  V30 43 1 20 42
M  V30 44 1 21 43
M  V30 45 1 22 44
M  V30 46 1 23 45
M  V30 END BOND
M  V30 BEGIN COLLECTION
M  V30 MDLV30/STEABS ATOMS=(10 2 3 5 6 8 10 13 14 17 21)
M  V30 END COLLECTION
M  V30 END CTAB
M  END
>  <Structure No>
3226

>  <LogS>
0.3577

>  <MMFF94 Energy>
171.11

$$$$
Compound 3227
Actelion Java MolfileCreator 2.0

  0  0  0  0  0  0              0 V3000
M  V30 BEGIN CTAB
M  V30 COUNTS 26 27 0 0 0
M  V30 BEGIN ATOM
M  V30 1 Cl -0.7161 -1.0742 -2.4182 0
M  V30 2 C -1.5915 -0.4821 -1.004 0
M  V30 3 C -2.7814 -1.1247 -0.6224 0
M  V30 4 C -1.1211 0.6323 -0.2665 0
M  V30 5 Cl -3.3956 -2.518 -1.5051 0
M  V30 6 C -3.507 -0.6615 0.4742 0
M  V30 7 C -1.8778 1.1021 0.8338 0
M  V30 8 C 0.1714 1.3322 -0.6574 0
M  V30 9 C -3.0682 0.4451 1.1999 0
M  V30 10 O -1.4332 2.2168 1.5512 0
M  V30 11 C 1.3998 0.4656 -0.4203 0
M  V30 12 Cl -4.0378 0.9815 2.5665 0
M  V30 13 C 2.3307 0.1965 -1.4586 0
M  V30 14 C 1.6601 -0.0391 0.8748 0
M  V30 15 Cl 2.139 0.8833 -3.0767 0
M  V30 16 C 3.4493 -0.6181 -1.2026 0
M  V30 17 O 0.8146 0.2671 1.9363 0 CHG=-1
M  V30 18 C 2.778 -0.8473 1.1104 0
M  V30 19 Cl 4.6162 -0.9989 -2.4642 0
M  V30 20 C 3.6608 -1.1404 0.0733 0
M  V30 21 Cl 3.09 -1.495 2.7138 0
M  V30 22 H -4.4231 -1.1628 0.7615 0
M  V30 23 H 0.3139 2.2787 -0.0963 0
M  V30 24 H 0.0695 1.6449 -1.7142 0
M  V30 25 H -1.9295 2.5968 2.3468 0
M  V30 26 H 4.5239 -1.7662 0.2633 0
M  V30 END ATOM
M  V30 BEGIN BOND
M  V30 1 1 1 2
M  V30 2 2 2 3
M  V30 3 1 2 4
M  V30 4 1 3 5
M  V30 5 1 3 6
M  V30 6 2 4 7
M  V30 7 1 4 8
M  V30 8 2 6 9
M  V30 9 1 7 10
M  V30 10 1 8 11
M  V30 11 1 9 12
M  V30 12 2 11 13
M  V30 13 1 11 14
M  V30 14 1 13 15
M  V30 15 1 13 16
M  V30 16 1 14 17
M  V30 17 2 14 18
M  V30 18 1 16 19
M  V30 19 2 16 20
M  V30 20 1 18 21
M  V30 21 1 7 9
M  V30 22 1 18 20
M  V30 23 1 6 22
M  V30 24 1 8 23
M  V30 25 1 8 24
M  V30 26 1 10 25
M  V30 27 1 20 26
M  V30 END BOND
M  V30 END CTAB
M  END
>  <Structure No>
3227

>  <LogS>
-3.4634

>  <MMFF94 Energy>
59.231

$$$$
Compound 3228
Actelion Java MolfileCreator 2.0

  0  0  0  0  0  0              0 V3000
M  V30 BEGIN CTAB
M  V30 COUNTS 16 16 0 0 0
M  V30 BEGIN ATOM
M  V30 1 F -1.9022 2.2333 0.6613 0
M  V30 2 C -0.9254 1.3333 0.3838 0
M  V30 3 C -1.2264 -0.026 0.1546 0
M  V30 4 C 0.3966 1.7801 0.3285 0
M  V30 5 N -2.5833 -0.5128 0.2059 0 CHG=1
M  V30 6 C -0.1724 -0.9155 -0.1291 0
M  V30 7 C 1.4329 0.8898 0.0465 0
M  V30 8 O -3.5344 0.2562 0.4556 0
M  V30 9 O -2.8558 -1.8426 -0.0206 0 CHG=-1
M  V30 10 C 1.1608 -0.4674 -0.1854 0
M  V30 11 N 2.2329 -1.3836 -0.476 0 CHG=1
M  V30 12 O 1.9998 -2.5926 -0.6837 0
M  V30 13 O 3.535 -0.9416 -0.5301 0 CHG=-1
M  V30 14 H 0.6206 2.8245 0.5055 0
M  V30 15 H -0.3891 -1.9605 -0.3069 0
M  V30 16 H 2.4475 1.2646 0.0103 0
M  V30 END ATOM
M  V30 BEGIN BOND
M  V30 1 1 1 2
M  V30 2 2 2 3
M  V30 3 1 2 4
M  V30 4 1 3 5
M  V30 5 1 3 6
M  V30 6 2 4 7
M  V30 7 2 5 8
M  V30 8 1 5 9
M  V30 9 2 6 10
M  V30 10 1 10 11
M  V30 11 2 11 12
M  V30 12 1 11 13
M  V30 13 1 7 10
M  V30 14 1 4 14
M  V30 15 1 6 15
M  V30 16 1 7 16
M  V30 END BOND
M  V30 END CTAB
M  END
>  <Structure No>
3228

>  <LogS>
-2.6677

>  <MMFF94 Energy>
55.369

$$$$
Compound 3229
Actelion Java MolfileCreator 2.0

  0  0  0  0  0  0              0 V3000
M  V30 BEGIN CTAB
M  V30 COUNTS 88 87 0 0 0
M  V30 BEGIN ATOM
M  V30 1 O 4.1628 2.3546 0.0784 0
M  V30 2 C 3.2475 1.5461 -0.2381 0
M  V30 3 N 2.3731 1.049 0.7938 0
M  V30 4 C 3.0718 1.1537 -1.6884 0
M  V30 5 O 2.7537 1.1916 2.088 0
M  V30 6 C 1.0487 0.4809 0.5207 0
M  V30 7 C 4.361 1.2941 -2.5178 0
M  V30 8 C 0.0471 1.5936 0.1818 0
M  V30 9 C 5.4735 0.3802 -2.0713 0
M  V30 10 C -1.3241 1.052 -0.2532 0
M  V30 11 O 5.2389 -0.5834 -1.2909 0
M  V30 12 N 6.7971 0.5792 -2.5877 0
M  V30 13 C -2.0643 0.3314 0.8858 0
M  V30 14 C 7.9241 -0.267 -2.2018 0
M  V30 15 C -3.517 0.0096 0.5115 0
M  V30 16 C 8.4492 0.1385 -0.8208 0
M  V30 17 N -4.3148 1.2291 0.3809 0
M  V30 18 C 9.5897 -0.7828 -0.3717 0
M  V30 19 C -4.7197 2.0134 1.5129 0
M  V30 20 C 10.1984 -0.3013 0.9533 0
M  V30 21 O -4.4066 1.6559 2.6817 0
M  V30 22 C -5.5663 3.2375 1.3204 0
M  V30 23 C 11.2178 -1.2968 1.5197 0
M  V30 24 C -7.0418 2.9579 1.6261 0
M  V30 25 N 12.3641 -1.4571 0.6194 0
M  V30 26 C -7.6531 2.0225 0.6176 0
M  V30 27 O 13.3217 -0.4962 0.6058 0
M  V30 28 C 12.4973 -2.6024 -0.2428 0
M  V30 29 O -7.9862 2.4795 -0.5086 0
M  V30 30 N -7.8403 0.6251 0.9139 0
M  V30 31 O 11.6038 -3.4926 -0.266 0
M  V30 32 C 13.6881 -2.7402 -1.1371 0
M  V30 33 O -7.3888 0.1138 2.0861 0
M  V30 34 C -8.5254 -0.2685 -0.0224 0
M  V30 35 C -10.0395 -0.0199 0.0122 0
M  V30 36 C -10.8103 -0.9775 -0.914 0
M  V30 37 C -10.9975 -2.3892 -0.3159 0
M  V30 38 C -12.3842 -2.6097 0.3147 0
M  V30 39 N -12.5887 -1.7887 1.5083 0 CHG=1
M  V30 40 H 2.7274 0.1019 -1.7652 0
M  V30 41 H 2.2904 1.8006 -2.1387 0
M  V30 42 H 3.2427 0.3567 2.3044 0
M  V30 43 H 0.6973 -0.0566 1.4283 0
M  V30 44 H 1.1015 -0.2678 -0.2951 0
M  V30 45 H 4.1269 1.0584 -3.5776 0
M  V30 46 H 4.7133 2.348 -2.4843 0
M  V30 47 H -0.0759 2.2606 1.0641 0
M  V30 48 H 0.4503 2.2116 -0.6487 0
M  V30 49 H -1.1981 0.3612 -1.1158 0
M  V30 50 H -1.9328 1.9155 -0.5987 0
M  V30 51 H 6.952 1.3172 -3.3133 0
M  V30 52 H -2.0416 0.9515 1.8074 0
M  V30 53 H -1.5493 -0.6271 1.1093 0
M  V30 54 H 8.7396 -0.148 -2.9473 0
M  V30 55 H 7.6113 -1.3341 -2.2052 0
M  V30 56 H -3.9662 -0.6478 1.2875 0
M  V30 57 H -3.5336 -0.5497 -0.45 0
M  V30 58 H 7.6244 0.0869 -0.0766 0
M  V30 59 H 8.8142 1.1889 -0.8682 0
M  V30 60 H -4.6547 1.4991 -0.5697 0
M  V30 61 H 9.1952 -1.8154 -0.2464 0
M  V30 62 H 10.3803 -0.7976 -1.1542 0
M  V30 63 H 9.3885 -0.1694 1.706 0
M  V30 64 H 10.6875 0.6861 0.8021 0
M  V30 65 H -5.4584 3.6221 0.283 0
M  V30 66 H -5.203 4.0326 2.0073 0
M  V30 67 H 11.582 -0.9154 2.4978 0
M  V30 68 H 10.7252 -2.2732 1.7215 0
M  V30 69 H -7.1497 2.5557 2.6559 0
M  V30 70 H -7.5968 3.9207 1.5974 0
M  V30 71 H 13.0331 0.1448 -0.0918 0
M  V30 72 H 13.67 -3.7174 -1.6638 0
M  V30 73 H 13.6825 -1.9251 -1.8902 0
M  V30 74 H 14.618 -2.6781 -0.5348 0
M  V30 75 H -6.4796 -0.2228 1.885 0
M  V30 76 H -8.1272 -0.1148 -1.0488 0
M  V30 77 H -8.3134 -1.3209 0.2614 0
M  V30 78 H -10.2387 1.0204 -0.3208 0
M  V30 79 H -10.4043 -0.1111 1.0568 0
M  V30 80 H -10.2683 -1.0578 -1.8823 0
M  V30 81 H -11.8003 -0.5302 -1.1528 0
M  V30 82 H -10.2102 -2.6257 0.4294 0
M  V30 83 H -10.8862 -3.1302 -1.1377 0
M  V30 84 H -12.4736 -3.683 0.5941 0
M  V30 85 H -13.1817 -2.3934 -0.4316 0
M  V30 86 H -12.6842 -0.7818 1.2411 0
M  V30 87 H -11.7937 -1.9122 2.1775 0
M  V30 88 H -13.4734 -2.0897 1.9793 0
M  V30 END ATOM
M  V30 BEGIN BOND
M  V30 1 2 1 2
M  V30 2 1 2 3
M  V30 3 1 2 4
M  V30 4 1 3 5
M  V30 5 1 3 6
M  V30 6 1 4 7
M  V30 7 1 6 8
M  V30 8 1 7 9
M  V30 9 1 8 10
M  V30 10 2 9 11
M  V30 11 1 9 12
M  V30 12 1 10 13
M  V30 13 1 12 14
M  V30 14 1 13 15
M  V30 15 1 14 16
M  V30 16 1 15 17
M  V30 17 1 16 18
M  V30 18 1 17 19
M  V30 19 1 18 20
M  V30 20 2 19 21
M  V30 21 1 19 22
M  V30 22 1 20 23
M  V30 23 1 22 24
M  V30 24 1 23 25
M  V30 25 1 24 26
M  V30 26 1 25 27
M  V30 27 1 25 28
M  V30 28 2 26 29
M  V30 29 1 26 30
M  V30 30 2 28 31
M  V30 31 1 28 32
M  V30 32 1 30 33
M  V30 33 1 30 34
M  V30 34 1 34 35
M  V30 35 1 35 36
M  V30 36 1 36 37
M  V30 37 1 37 38
M  V30 38 1 38 39
M  V30 39 1 4 40
M  V30 40 1 4 41
M  V30 41 1 5 42
M  V30 42 1 6 43
M  V30 43 1 6 44
M  V30 44 1 7 45
M  V30 45 1 7 46
M  V30 46 1 8 47
M  V30 47 1 8 48
M  V30 48 1 10 49
M  V30 49 1 10 50
M  V30 50 1 12 51
M  V30 51 1 13 52
M  V30 52 1 13 53
M  V30 53 1 14 54
M  V30 54 1 14 55
M  V30 55 1 15 56
M  V30 56 1 15 57
M  V30 57 1 16 58
M  V30 58 1 16 59
M  V30 59 1 17 60
M  V30 60 1 18 61
M  V30 61 1 18 62
M  V30 62 1 20 63
M  V30 63 1 20 64
M  V30 64 1 22 65
M  V30 65 1 22 66
M  V30 66 1 23 67
M  V30 67 1 23 68
M  V30 68 1 24 69
M  V30 69 1 24 70
M  V30 70 1 27 71
M  V30 71 1 32 72
M  V30 72 1 32 73
M  V30 73 1 32 74
M  V30 74 1 33 75
M  V30 75 1 34 76
M  V30 76 1 34 77
M  V30 77 1 35 78
M  V30 78 1 35 79
M  V30 79 1 36 80
M  V30 80 1 36 81
M  V30 81 1 37 82
M  V30 82 1 37 83
M  V30 83 1 38 84
M  V30 84 1 38 85
M  V30 85 1 39 86
M  V30 86 1 39 87
M  V30 87 1 39 88
M  V30 END BOND
M  V30 END CTAB
M  END
>  <Structure No>
3229

>  <LogS>
-1.6695

>  <MMFF94 Energy>
-26.756

$$$$
Compound 3230
Actelion Java MolfileCreator 2.0

  0  0  0  0  0  0              0 V3000
M  V30 BEGIN CTAB
M  V30 COUNTS 20 20 0 0 0
M  V30 BEGIN ATOM
M  V30 1 O -2.8284 -0.3139 2.2779 0
M  V30 2 C -2.5156 0.1745 1.1601 0
M  V30 3 O -3.337 1.1321 0.5769 0 CHG=-1
M  V30 4 C -1.2507 -0.2619 0.4709 0 CFG=1
M  V30 5 N -1.5551 -0.7458 -0.8825 0 CHG=1
M  V30 6 C -0.2484 0.9089 0.4386 0
M  V30 7 C 1.095 0.4746 -0.067 0
M  V30 8 N 1.9854 -0.2329 0.6446 0
M  V30 9 C 1.5976 0.6699 -1.3338 0
M  V30 10 C 3.0145 -0.4453 -0.1965 0
M  V30 11 N 2.8126 0.0925 -1.419 0
M  V30 12 H -0.8022 -1.0975 1.0567 0
M  V30 13 H -1.8998 0.0354 -1.4873 0
M  V30 14 H -2.2871 -1.492 -0.8364 0
M  V30 15 H -0.6997 -1.1632 -1.3149 0
M  V30 16 H -0.1159 1.313 1.4662 0
M  V30 17 H -0.6398 1.7329 -0.1979 0
M  V30 18 H 1.8984 -0.5573 1.6332 0
M  V30 19 H 1.1095 1.1905 -2.1472 0
M  V30 20 H 3.9067 -0.9941 0.0747 0
M  V30 END ATOM
M  V30 BEGIN BOND
M  V30 1 2 1 2
M  V30 2 1 2 3
M  V30 3 1 2 4
M  V30 4 1 4 5
M  V30 5 1 4 6
M  V30 6 1 6 7
M  V30 7 1 7 8
M  V30 8 2 7 9
M  V30 9 1 8 10
M  V30 10 1 9 11
M  V30 11 2 10 11
M  V30 12 1 4 12
M  V30 13 1 5 13
M  V30 14 1 5 14
M  V30 15 1 5 15
M  V30 16 1 6 16
M  V30 17 1 6 17
M  V30 18 1 8 18
M  V30 19 1 9 19
M  V30 20 1 10 20
M  V30 END BOND
M  V30 BEGIN COLLECTION
M  V30 MDLV30/STEABS ATOMS=(1 4)
M  V30 END COLLECTION
M  V30 END CTAB
M  END
>  <Structure No>
3230

>  <LogS>
-0.5314

>  <MMFF94 Energy>
-5.7492

$$$$
Compound 3231
Actelion Java MolfileCreator 2.0

  0  0  0  0  0  0              0 V3000
M  V30 BEGIN CTAB
M  V30 COUNTS 13 13 0 0 0
M  V30 BEGIN ATOM
M  V30 1 O 1.7946 2.4194 0.2339 0
M  V30 2 C 1.1567 1.3341 0.2047 0
M  V30 3 N -0.2018 1.3505 0.1725 0
M  V30 4 N 1.8244 0.1476 0.2054 0
M  V30 5 C -0.9174 0.1951 0.1407 0
M  V30 6 C 1.1456 -1.03 0.1741 0
M  V30 7 N -2.344 0.2437 0.1074 0
M  V30 8 C -0.2484 -1.0318 0.1408 0
M  V30 9 H 2.8692 0.1354 0.2301 0
M  V30 10 H 1.6865 -1.968 0.1749 0
M  V30 11 H -2.839 1.1632 0.1075 0
M  V30 12 H -2.9109 -0.6332 0.0826 0
M  V30 13 H -0.7941 -1.9666 0.1159 0
M  V30 END ATOM
M  V30 BEGIN BOND
M  V30 1 2 1 2
M  V30 2 1 2 3
M  V30 3 1 2 4
M  V30 4 2 3 5
M  V30 5 1 4 6
M  V30 6 1 5 7
M  V30 7 1 5 8
M  V30 8 2 6 8
M  V30 9 1 4 9
M  V30 10 1 6 10
M  V30 11 1 7 11
M  V30 12 1 7 12
M  V30 13 1 8 13
M  V30 END BOND
M  V30 END CTAB
M  END
>  <Structure No>
3231

>  <LogS>
-1.1426

>  <MMFF94 Energy>
-88.275

$$$$
Compound 3232
Actelion Java MolfileCreator 2.0

  0  0  0  0  0  0              0 V3000
M  V30 BEGIN CTAB
M  V30 COUNTS 118 125 0 0 0
M  V30 BEGIN ATOM
M  V30 1 O -12.5221 4.4586 0.4047 0
M  V30 2 C -12.2823 3.2324 0.2582 0
M  V30 3 O -13.0966 2.2244 0.7213 0
M  V30 4 C -11.1312 2.6805 -0.4139 0
M  V30 5 C -12.4959 0.9732 0.4016 0
M  V30 6 C -11.2378 1.3576 -0.3444 0
M  V30 7 C -10.2078 0.4014 -0.9245 0 CFG=1
M  V30 8 C -8.7831 0.4935 -0.306 0 CFG=1
M  V30 9 C -10.5633 -1.1037 -0.8188 0
M  V30 10 C -8.1426 -0.8021 -0.8851 0 CFG=1
M  V30 11 C -7.9478 1.7362 -0.7652 0
M  V30 12 C -8.9331 0.4947 1.2585 0
M  V30 13 C -9.2289 -1.8634 -0.6359 0
M  V30 14 O -8.042 -0.6387 -2.2901 0
M  V30 15 C -6.6831 -1.0514 -0.3518 0 CFG=1
M  V30 16 C -6.4362 1.4355 -0.9936 0
M  V30 17 C -5.9171 0.282 -0.097 0 CFG=2
M  V30 18 C -6.5236 -1.977 0.8758 0
M  V30 19 C -4.3539 0.0706 -0.0792 0 CFG=2
M  V30 20 C -5.1092 -1.8786 1.509 0
M  V30 21 C -4.0267 -1.3701 0.5095 0 CFG=2
M  V30 22 C -3.7016 1.2384 0.7588 0
M  V30 23 C -3.7793 0.1293 -1.5177 0
M  V30 24 C -2.582 -1.5349 1.0706 0
M  V30 25 C -2.9891 0.7841 2.032 0
M  V30 26 C -1.9433 -0.2766 1.7029 0 CFG=2
M  V30 27 O -1.0121 0.3048 0.798 0
M  V30 28 C 0.322 -0.139 0.9895 0 CFG=1
M  V30 29 O 0.6841 -0.9153 -0.138 0
M  V30 30 C 1.2243 1.1138 1.1022 0
M  V30 31 C 1.9679 -1.5 0.0436 0 CFG=2
M  V30 32 C 2.4947 0.997 0.2456 0 CFG=1
M  V30 33 C 3.0764 -0.4264 0.344 0 CFG=2
M  V30 34 C 2.2729 -2.3562 -1.1909 0
M  V30 35 O 2.194 1.2877 -1.101 0
M  V30 36 O 4.1723 -0.5637 -0.5515 0
M  V30 37 C 5.3964 -0.0887 -0.0149 0 CFG=1
M  V30 38 O 6.3252 -1.1629 -0.064 0
M  V30 39 C 5.8832 1.0781 -0.8903 0
M  V30 40 C 7.6131 -0.8132 0.4266 0 CFG=1
M  V30 41 C 7.2439 1.5831 -0.4025 0 CFG=2
M  V30 42 C 8.2286 0.4047 -0.3221 0 CFG=1
M  V30 43 C 7.6444 -0.7169 1.9642 0
M  V30 44 O 7.1161 2.2019 0.8555 0
M  V30 45 O 9.4194 0.8401 0.3259 0
M  V30 46 C 10.5763 0.4719 -0.3985 0 CFG=2
M  V30 47 O 10.7153 -0.9409 -0.3798 0
M  V30 48 C 11.7904 1.1377 0.274 0
M  V30 49 C 11.8195 -1.3455 -1.1719 0 CFG=1
M  V30 50 C 13.1046 0.6971 -0.3903 0 CFG=1
M  V30 51 C 13.1475 -0.8411 -0.5547 0 CFG=1
M  V30 52 C 11.8111 -2.8727 -1.3006 0
M  V30 53 O 13.2211 1.3245 -1.6433 0
M  V30 54 O 13.4225 -1.4654 0.681 0
M  V30 55 H -10.3364 3.2437 -0.8775 0
M  V30 56 H -13.1738 0.3802 -0.2454 0
M  V30 57 H -12.2535 0.4265 1.3346 0
M  V30 58 H -10.1456 0.6478 -2.009 0
M  V30 59 H -11.2161 -1.3224 0.0502 0
M  V30 60 H -11.0822 -1.4423 -1.7405 0
M  V30 61 H -8.0369 2.5522 -0.0174 0
M  V30 62 H -8.3526 2.1434 -1.7178 0
M  V30 63 H -7.9902 0.4944 1.8172 0
M  V30 64 H -9.52 -0.3697 1.6274 0
M  V30 65 H -9.4599 1.4109 1.5949 0
M  V30 66 H -9.1766 -2.284 0.3914 0
M  V30 67 H -9.1536 -2.7151 -1.3469 0
M  V30 68 H -7.7878 -1.5099 -2.696 0
M  V30 69 H -6.1515 -1.5825 -1.1698 0
M  V30 70 H -6.2793 1.1713 -2.062 0
M  V30 71 H -5.8567 2.3641 -0.8031 0
M  V30 72 H -6.1491 0.6008 0.9345 0
M  V30 73 H -6.7099 -3.0267 0.5558 0
M  V30 74 H -7.2721 -1.7317 1.6546 0
M  V30 75 H -4.8323 -2.8845 1.8904 0
M  V30 76 H -5.1612 -1.2087 2.3915 0
M  V30 77 H -4.0804 -2.1036 -0.3283 0
M  V30 78 H -2.9706 1.8104 0.146 0
M  V30 79 H -4.4471 2.0055 1.0628 0
M  V30 80 H -3.8877 1.1392 -1.962 0
M  V30 81 H -4.286 -0.5968 -2.187 0
M  V30 82 H -2.694 -0.1078 -1.509 0
M  V30 83 H -2.5591 -2.3555 1.8193 0
M  V30 84 H -1.9249 -1.8836 0.2473 0
M  V30 85 H -3.7151 0.4064 2.779 0
M  V30 86 H -2.4861 1.6604 2.4928 0
M  V30 87 H -1.4859 -0.5511 2.6848 0
M  V30 88 H 0.464 -0.7427 1.9228 0
M  V30 89 H 0.6649 2.0322 0.7989 0
M  V30 90 H 1.5145 1.2585 2.1714 0
M  V30 91 H 1.924 -2.213 0.8995 0
M  V30 92 H 3.2495 1.7231 0.63 0
M  V30 93 H 3.3882 -0.605 1.4016 0
M  V30 94 H 3.2224 -2.9118 -1.0494 0
M  V30 95 H 2.345 -1.711 -2.097 0
M  V30 96 H 1.4555 -3.0934 -1.3451 0
M  V30 97 H 2.166 2.2765 -1.1819 0
M  V30 98 H 5.2947 0.2886 1.0319 0
M  V30 99 H 5.1421 1.9056 -0.8689 0
M  V30 100 H 5.9729 0.7345 -1.9465 0
M  V30 101 H 8.2706 -1.6763 0.183 0
M  V30 102 H 7.6417 2.3201 -1.1417 0
M  V30 103 H 8.4009 0.0777 -1.379 0
M  V30 104 H 7.1605 0.2043 2.3459 0
M  V30 105 H 7.1246 -1.5995 2.4005 0
M  V30 106 H 8.6996 -0.7345 2.3219 0
M  V30 107 H 6.7073 3.0951 0.6957 0
M  V30 108 H 10.5014 0.8633 -1.4422 0
M  V30 109 H 11.8098 0.8749 1.3538 0
M  V30 110 H 11.6945 2.2436 0.207 0
M  V30 111 H 11.7261 -0.9446 -2.2089 0
M  V30 112 H 13.9519 1.0207 0.2578 0
M  V30 113 H 13.9769 -1.1002 -1.2472 0
M  V30 114 H 12.6663 -3.2116 -1.9205 0
M  V30 115 H 11.868 -3.3529 -0.3043 0
M  V30 116 H 10.8724 -3.1966 -1.7922 0
M  V30 117 H 14.1467 1.1765 -1.9529 0
M  V30 118 H 12.6619 -1.2964 1.2916 0
M  V30 END ATOM
M  V30 BEGIN BOND
M  V30 1 2 1 2
M  V30 2 1 2 3
M  V30 3 1 2 4
M  V30 4 1 3 5
M  V30 5 2 4 6
M  V30 6 1 6 7
M  V30 7 1 7 8
M  V30 8 1 7 9
M  V30 9 1 8 10
M  V30 10 1 8 11
M  V30 11 1 8 12
M  V30 12 1 9 13
M  V30 13 1 10 14
M  V30 14 1 10 15
M  V30 15 1 11 16
M  V30 16 1 15 17
M  V30 17 1 15 18
M  V30 18 1 17 19
M  V30 19 1 18 20
M  V30 20 1 19 21
M  V30 21 1 19 22
M  V30 22 1 19 23
M  V30 23 1 21 24
M  V30 24 1 22 25
M  V30 25 1 24 26
M  V30 26 1 26 27
M  V30 27 1 27 28
M  V30 28 1 28 29
M  V30 29 1 28 30
M  V30 30 1 29 31
M  V30 31 1 30 32
M  V30 32 1 31 33
M  V30 33 1 31 34
M  V30 34 1 32 35
M  V30 35 1 33 36
M  V30 36 1 36 37
M  V30 37 1 37 38
M  V30 38 1 37 39
M  V30 39 1 38 40
M  V30 40 1 39 41
M  V30 41 1 40 42
M  V30 42 1 40 43
M  V30 43 1 41 44
M  V30 44 1 42 45
M  V30 45 1 45 46
M  V30 46 1 46 47
M  V30 47 1 46 48
M  V30 48 1 47 49
M  V30 49 1 48 50
M  V30 50 1 49 51
M  V30 51 1 49 52
M  V30 52 1 50 53
M  V30 53 1 51 54
M  V30 54 1 5 6
M  V30 55 1 10 13
M  V30 56 1 16 17
M  V30 57 1 20 21
M  V30 58 1 25 26
M  V30 59 1 32 33
M  V30 60 1 41 42
M  V30 61 1 50 51
M  V30 62 1 4 55
M  V30 63 1 5 56
M  V30 64 1 5 57
M  V30 65 1 7 58
M  V30 66 1 9 59
M  V30 67 1 9 60
M  V30 68 1 11 61
M  V30 69 1 11 62
M  V30 70 1 12 63
M  V30 71 1 12 64
M  V30 72 1 12 65
M  V30 73 1 13 66
M  V30 74 1 13 67
M  V30 75 1 14 68
M  V30 76 1 15 69
M  V30 77 1 16 70
M  V30 78 1 16 71
M  V30 79 1 17 72
M  V30 80 1 18 73
M  V30 81 1 18 74
M  V30 82 1 20 75
M  V30 83 1 20 76
M  V30 84 1 21 77
M  V30 85 1 22 78
M  V30 86 1 22 79
M  V30 87 1 23 80
M  V30 88 1 23 81
M  V30 89 1 23 82
M  V30 90 1 24 83
M  V30 91 1 24 84
M  V30 92 1 25 85
M  V30 93 1 25 86
M  V30 94 1 26 87
M  V30 95 1 28 88
M  V30 96 1 30 89
M  V30 97 1 30 90
M  V30 98 1 31 91
M  V30 99 1 32 92
M  V30 100 1 33 93
M  V30 101 1 34 94
M  V30 102 1 34 95
M  V30 103 1 34 96
M  V30 104 1 35 97
M  V30 105 1 37 98
M  V30 106 1 39 99
M  V30 107 1 39 100
M  V30 108 1 40 101
M  V30 109 1 41 102
M  V30 110 1 42 103
M  V30 111 1 43 104
M  V30 112 1 43 105
M  V30 113 1 43 106
M  V30 114 1 44 107
M  V30 115 1 46 108
M  V30 116 1 48 109
M  V30 117 1 48 110
M  V30 118 1 49 111
M  V30 119 1 50 112
M  V30 120 1 51 113
M  V30 121 1 52 114
M  V30 122 1 52 115
M  V30 123 1 52 116
M  V30 124 1 53 117
M  V30 125 1 54 118
M  V30 END BOND
M  V30 BEGIN COLLECTION
M  V30 MDLV30/STEABS ATOMS=(20 7 8 10 15 17 19 21 26 28 31 32 33 37 40 41 42 46 49 50 51)
M  V30 END COLLECTION
M  V30 END CTAB
M  END
>  <Structure No>
3232

>  <LogS>
-5.2926

>  <MMFF94 Energy>
166.74

$$$$
Compound 3233
Actelion Java MolfileCreator 2.0

  0  0  0  0  0  0              0 V3000
M  V30 BEGIN CTAB
M  V30 COUNTS 11 10 0 0 0
M  V30 BEGIN ATOM
M  V30 1 O 1.1743 -1.566 -1.3309 0
M  V30 2 C 1.0386 -0.848 -0.3054 0
M  V30 3 O 1.7399 -1.1643 0.8518 0 CHG=-1
M  V30 4 C 0.0899 0.3152 -0.3194 0 CFG=2
M  V30 5 O 0.6662 1.4119 0.3388 0
M  V30 6 C -1.2126 -0.0636 0.3791 0
M  V30 7 H -0.1486 0.592 -1.373 0
M  V30 8 H 1.3522 1.7851 -0.2745 0
M  V30 9 H -1.6898 -0.9242 -0.1368 0
M  V30 10 H -1.916 0.7956 0.3532 0
M  V30 11 H -1.022 -0.3356 1.4398 0
M  V30 END ATOM
M  V30 BEGIN BOND
M  V30 1 2 1 2
M  V30 2 1 2 3
M  V30 3 1 2 4
M  V30 4 1 4 5
M  V30 5 1 4 6
M  V30 6 1 4 7
M  V30 7 1 5 8
M  V30 8 1 6 9
M  V30 9 1 6 10
M  V30 10 1 6 11
M  V30 END BOND
M  V30 BEGIN COLLECTION
M  V30 MDLV30/STEABS ATOMS=(1 4)
M  V30 END COLLECTION
M  V30 END CTAB
M  END
>  <Structure No>
3233

>  <LogS>
0.9505

>  <MMFF94 Energy>
53.629

$$$$
Compound 3234
Actelion Java MolfileCreator 2.0

  0  0  0  0  0  0              0 V3000
M  V30 BEGIN CTAB
M  V30 COUNTS 36 37 0 0 0
M  V30 BEGIN ATOM
M  V30 1 Cl -0.1651 -0.1651 3.39 0
M  V30 2 C 0.0141 1.4116 2.5638 0
M  V30 3 Cl -1.3315 2.44 3.133 0
M  V30 4 Cl 1.5222 2.1856 3.13 0
M  V30 5 C -0.0201 1.3212 1.0059 0
M  V30 6 C 1.2658 0.8591 0.3189 0
M  V30 7 C -1.2253 0.5469 0.4877 0
M  V30 8 C 1.5913 1.4038 -0.9374 0
M  V30 9 C 2.1032 -0.1419 0.8505 0
M  V30 10 C -1.216 -0.8583 0.4011 0
M  V30 11 C -2.388 1.2382 0.1018 0
M  V30 12 C 2.734 0.9874 -1.6246 0
M  V30 13 C 3.2464 -0.5571 0.1617 0
M  V30 14 C -2.3371 -1.5491 -0.0657 0
M  V30 15 C -3.5085 0.5453 -0.3647 0
M  V30 16 C 3.5715 0.0085 -1.0835 0
M  V30 17 C -3.4897 -0.8584 -0.4521 0
M  V30 18 O 4.7075 -0.3746 -1.8119 0
M  V30 19 O -4.5881 -1.5989 -0.9136 0
M  V30 20 C 5.6437 -1.3576 -1.3823 0
M  V30 21 C -5.8217 -1.0278 -1.3377 0
M  V30 22 H -0.1469 2.3798 0.6814 0
M  V30 23 H 0.9552 2.1545 -1.3905 0
M  V30 24 H 1.8869 -0.6123 1.7949 0
M  V30 25 H -0.3442 -1.4255 0.6965 0
M  V30 26 H -2.4301 2.3188 0.1624 0
M  V30 27 H 2.9674 1.4256 -2.5867 0
M  V30 28 H 3.8682 -1.3228 0.6051 0
M  V30 29 H -2.3106 -2.6298 -0.1259 0
M  V30 30 H -4.3841 1.1109 -0.6533 0
M  V30 31 H 6.1095 -1.0477 -0.4229 0
M  V30 32 H 5.1386 -2.3394 -1.2625 0
M  V30 33 H 6.4401 -1.4588 -2.1477 0
M  V30 34 H -6.5091 -1.8402 -1.6501 0
M  V30 35 H -6.2906 -0.4673 -0.5013 0
M  V30 36 H -5.6524 -0.3526 -2.2031 0
M  V30 END ATOM
M  V30 BEGIN BOND
M  V30 1 1 1 2
M  V30 2 1 2 3
M  V30 3 1 2 4
M  V30 4 1 2 5
M  V30 5 1 5 6
M  V30 6 1 5 7
M  V30 7 2 6 8
M  V30 8 1 6 9
M  V30 9 2 7 10
M  V30 10 1 7 11
M  V30 11 1 8 12
M  V30 12 2 9 13
M  V30 13 1 10 14
M  V30 14 2 11 15
M  V30 15 2 12 16
M  V30 16 2 14 17
M  V30 17 1 16 18
M  V30 18 1 17 19
M  V30 19 1 18 20
M  V30 20 1 19 21
M  V30 21 1 13 16
M  V30 22 1 15 17
M  V30 23 1 5 22
M  V30 24 1 8 23
M  V30 25 1 9 24
M  V30 26 1 10 25
M  V30 27 1 11 26
M  V30 28 1 12 27
M  V30 29 1 13 28
M  V30 30 1 14 29
M  V30 31 1 15 30
M  V30 32 1 20 31
M  V30 33 1 20 32
M  V30 34 1 20 33
M  V30 35 1 21 34
M  V30 36 1 21 35
M  V30 37 1 21 36
M  V30 END BOND
M  V30 END CTAB
M  END
>  <Structure No>
3234

>  <LogS>
-6.5386

>  <MMFF94 Energy>
97.993

$$$$
Compound 3235
Actelion Java MolfileCreator 2.0

  0  0  0  0  0  0              0 V3000
M  V30 BEGIN CTAB
M  V30 COUNTS 26 28 0 0 0
M  V30 BEGIN ATOM
M  V30 1 O -0.0817 2.3723 -0.7357 0
M  V30 2 C -0.1718 1.154 -0.426 0
M  V30 3 C 1.0497 0.3531 -0.1242 0
M  V30 4 C -1.5155 0.5511 -0.2689 0
M  V30 5 C 2.3593 0.7837 -0.4802 0
M  V30 6 C 0.8974 -0.8586 0.5934 0
M  V30 7 C -1.6553 -0.693 0.3774 0
M  V30 8 C -2.6614 1.2211 -0.7365 0
M  V30 9 O 2.5885 1.875 -1.3231 0
M  V30 10 C 3.4794 0.0754 -0.0087 0
M  V30 11 C -0.4555 -1.3937 0.8835 0
M  V30 12 C 2.0336 -1.5606 1.0264 0
M  V30 13 C -2.9371 -1.2491 0.543 0
M  V30 14 C -3.9278 0.6568 -0.5687 0
M  V30 15 O 4.7764 0.5005 -0.2984 0
M  V30 16 C 3.3098 -1.0829 0.7463 0
M  V30 17 O -0.5847 -2.4565 1.5517 0
M  V30 18 C -4.0654 -0.5757 0.0698 0
M  V30 19 H -2.5782 2.1787 -1.235 0
M  V30 20 H 1.8919 2.2624 -1.9434 0
M  V30 21 H 1.9369 -2.4807 1.5891 0
M  V30 22 H -3.0677 -2.2039 1.0366 0
M  V30 23 H -4.8041 1.177 -0.9335 0
M  V30 24 H 4.9652 1.3344 -0.8413 0
M  V30 25 H 4.1751 -1.6306 1.098 0
M  V30 26 H -5.0483 -1.0101 0.1994 0
M  V30 END ATOM
M  V30 BEGIN BOND
M  V30 1 2 1 2
M  V30 2 1 2 3
M  V30 3 1 2 4
M  V30 4 2 3 5
M  V30 5 1 3 6
M  V30 6 2 4 7
M  V30 7 1 4 8
M  V30 8 1 5 9
M  V30 9 1 5 10
M  V30 10 1 6 11
M  V30 11 2 6 12
M  V30 12 1 7 13
M  V30 13 2 8 14
M  V30 14 1 10 15
M  V30 15 2 10 16
M  V30 16 2 11 17
M  V30 17 2 13 18
M  V30 18 1 7 11
M  V30 19 1 12 16
M  V30 20 1 14 18
M  V30 21 1 8 19
M  V30 22 1 9 20
M  V30 23 1 12 21
M  V30 24 1 13 22
M  V30 25 1 14 23
M  V30 26 1 15 24
M  V30 27 1 16 25
M  V30 28 1 18 26
M  V30 END BOND
M  V30 END CTAB
M  END
>  <Structure No>
3235

>  <LogS>
-2.7785

>  <MMFF94 Energy>
61.473

$$$$
Compound 3236
Actelion Java MolfileCreator 2.0

  0  0  0  0  0  0              0 V3000
M  V30 BEGIN CTAB
M  V30 COUNTS 15 16 0 0 0
M  V30 BEGIN ATOM
M  V30 1 N -2.0661 0.1588 0.0794 0
M  V30 2 C -0.8603 0.7992 0.0226 0
M  V30 3 C -2.1469 -1.2086 0.1523 0
M  V30 4 N -0.8009 2.2241 -0.0526 0
M  V30 5 C 0.2856 0.0092 0.0417 0
M  V30 6 N -1.0118 -1.971 0.17 0
M  V30 7 N 1.5792 0.3509 -0.0012 0
M  V30 8 C 0.1842 -1.3377 0.1139 0
M  V30 9 C 2.2288 -0.8394 0.0482 0
M  V30 10 N 1.3972 -1.9145 0.1204 0
M  V30 11 H -3.1154 -1.6873 0.196 0
M  V30 12 H -1.6822 2.7838 -0.0647 0
M  V30 13 H 0.1114 2.7288 -0.0967 0
M  V30 14 H 2.0014 1.3038 -0.059 0
M  V30 15 H 3.3071 -0.9268 0.0319 0
M  V30 END ATOM
M  V30 BEGIN BOND
M  V30 1 2 1 2
M  V30 2 1 1 3
M  V30 3 1 2 4
M  V30 4 1 2 5
M  V30 5 2 3 6
M  V30 6 1 5 7
M  V30 7 2 5 8
M  V30 8 1 7 9
M  V30 9 1 8 10
M  V30 10 1 6 8
M  V30 11 2 9 10
M  V30 12 1 3 11
M  V30 13 1 4 12
M  V30 14 1 4 13
M  V30 15 1 7 14
M  V30 16 1 9 15
M  V30 END BOND
M  V30 END CTAB
M  END
>  <Structure No>
3236

>  <LogS>
-2.1179

>  <MMFF94 Energy>
-83.259

$$$$
Compound 3237
Actelion Java MolfileCreator 2.0

  0  0  0  0  0  0              0 V3000
M  V30 BEGIN CTAB
M  V30 COUNTS 41 43 0 0 0
M  V30 BEGIN ATOM
M  V30 1 S 0.6748 -0.253 -2.786 0
M  V30 2 O 1.3256 -1.1831 -3.7706 0
M  V30 3 O 0.8377 1.1691 -3.243 0
M  V30 4 N -1.0124 -0.6359 -2.6614 0
M  V30 5 C 1.3943 -0.4581 -1.2002 0
M  V30 6 C -1.5285 -0.083 -1.4037 0 CFG=2
M  V30 7 C 0.5649 -0.6935 -0.0999 0
M  V30 8 C 2.7796 -0.4152 -1.0407 0
M  V30 9 N -0.8641 -0.7154 -0.2529 0
M  V30 10 C -3.0542 -0.2823 -1.346 0
M  V30 11 C 1.1371 -0.9287 1.1548 0
M  V30 12 C 3.3674 -0.6172 0.2183 0
M  V30 13 C -3.6742 0.4638 -0.1908 0
M  V30 14 C 2.5363 -0.9186 1.3356 0
M  V30 15 S 5.1368 -0.5117 0.3259 0
M  V30 16 C -4.0747 -0.2197 0.9701 0
M  V30 17 C -3.8382 1.8579 -0.2579 0
M  V30 18 C 3.094 -1.1643 2.7266 0
M  V30 19 O 5.718 -1.896 0.3827 0
M  V30 20 O 5.5477 0.2591 1.5484 0
M  V30 21 N 5.7742 0.3028 -1.0614 0
M  V30 22 C -4.6317 0.4814 2.0441 0
M  V30 23 C -4.396 2.555 0.8182 0
M  V30 24 F 4.1688 -2.0312 2.6783 0
M  V30 25 F 2.1455 -1.7324 3.5605 0
M  V30 26 F 3.4921 0.0367 3.2827 0
M  V30 27 C -4.7923 1.8674 1.9683 0
M  V30 28 H -1.0909 -1.6789 -2.6231 0
M  V30 29 H -1.3231 1.0114 -1.3807 0
M  V30 30 H 3.3975 -0.2283 -1.9088 0
M  V30 31 H -1.438 -1.1471 0.5061 0
M  V30 32 H -3.2877 -1.3679 -1.2819 0
M  V30 33 H -3.5065 0.089 -2.2917 0
M  V30 34 H 0.4764 -1.1104 1.993 0
M  V30 35 H -3.9549 -1.2932 1.0449 0
M  V30 36 H -3.5329 2.4031 -1.1424 0
M  V30 37 H 6.8115 0.3387 -0.9455 0
M  V30 38 H 5.4326 1.2893 -1.0209 0
M  V30 39 H -4.9381 -0.0498 2.9357 0
M  V30 40 H -4.5198 3.6287 0.761 0
M  V30 41 H -5.2232 2.4086 2.8008 0
M  V30 END ATOM
M  V30 BEGIN BOND
M  V30 1 2 1 2
M  V30 2 2 1 3
M  V30 3 1 1 4
M  V30 4 1 1 5
M  V30 5 1 4 6
M  V30 6 2 5 7
M  V30 7 1 5 8
M  V30 8 1 6 9
M  V30 9 1 6 10
M  V30 10 1 7 11
M  V30 11 2 8 12
M  V30 12 1 10 13
M  V30 13 2 11 14
M  V30 14 1 12 15
M  V30 15 2 13 16
M  V30 16 1 13 17
M  V30 17 1 14 18
M  V30 18 2 15 19
M  V30 19 2 15 20
M  V30 20 1 15 21
M  V30 21 1 16 22
M  V30 22 2 17 23
M  V30 23 1 18 24
M  V30 24 1 18 25
M  V30 25 1 18 26
M  V30 26 2 22 27
M  V30 27 1 7 9
M  V30 28 1 12 14
M  V30 29 1 23 27
M  V30 30 1 4 28
M  V30 31 1 6 29
M  V30 32 1 8 30
M  V30 33 1 9 31
M  V30 34 1 10 32
M  V30 35 1 10 33
M  V30 36 1 11 34
M  V30 37 1 16 35
M  V30 38 1 17 36
M  V30 39 1 21 37
M  V30 40 1 21 38
M  V30 41 1 22 39
M  V30 42 1 23 40
M  V30 43 1 27 41
M  V30 END BOND
M  V30 BEGIN COLLECTION
M  V30 MDLV30/STEABS ATOMS=(1 6)
M  V30 END COLLECTION
M  V30 END CTAB
M  END
>  <Structure No>
3237

>  <LogS>
-3.5913

>  <MMFF94 Energy>
-180.2

$$$$
Compound 3238
Actelion Java MolfileCreator 2.0

  0  0  0  0  0  0              0 V3000
M  V30 BEGIN CTAB
M  V30 COUNTS 30 31 0 0 0
M  V30 BEGIN ATOM
M  V30 1 Cl 3.3349 -2.417 -1.0829 0
M  V30 2 C 2.2442 -1.2069 -0.4153 0
M  V30 3 C 2.7137 -0.0864 0.3019 0
M  V30 4 C 0.8706 -1.378 -0.6197 0
M  V30 5 S 4.441 0.1776 0.5801 0
M  V30 6 C 1.7901 0.8524 0.7881 0
M  V30 7 C -0.0485 -0.4469 -0.1183 0
M  V30 8 O 5.0796 -1.0885 1.0786 0
M  V30 9 O 4.6375 1.2483 1.6169 0
M  V30 10 N 5.1969 0.6788 -0.8923 0
M  V30 11 C 0.4129 0.6748 0.5805 0
M  V30 12 N -1.4558 -0.6339 -0.3371 0
M  V30 13 C -0.5721 1.656 1.059 0
M  V30 14 C -2.4784 0.1147 0.4102 0 CFG=1
M  V30 15 O -0.2008 2.7102 1.6424 0
M  V30 16 N -1.9662 1.42 0.8448 0
M  V30 17 C -3.7375 0.3216 -0.4554 0
M  V30 18 C -4.5444 -0.9637 -0.6445 0
M  V30 19 H 0.5164 -2.241 -1.17 0
M  V30 20 H 2.1428 1.7244 1.3238 0
M  V30 21 H 5.1342 -0.1198 -1.5617 0
M  V30 22 H 6.2111 0.816 -0.6833 0
M  V30 23 H -1.7529 -1.4758 -0.8785 0
M  V30 24 H -2.7492 -0.4658 1.319 0
M  V30 25 H -2.6416 2.127 1.2153 0
M  V30 26 H -3.4492 0.7292 -1.4489 0
M  V30 27 H -4.4041 1.0646 0.0348 0
M  V30 28 H -4.8025 -1.4088 0.3399 0
M  V30 29 H -5.4878 -0.7298 -1.1815 0
M  V30 30 H -3.9822 -1.7045 -1.2483 0
M  V30 END ATOM
M  V30 BEGIN BOND
M  V30 1 1 1 2
M  V30 2 2 2 3
M  V30 3 1 2 4
M  V30 4 1 3 5
M  V30 5 1 3 6
M  V30 6 2 4 7
M  V30 7 2 5 8
M  V30 8 2 5 9
M  V30 9 1 5 10
M  V30 10 2 6 11
M  V30 11 1 7 12
M  V30 12 1 11 13
M  V30 13 1 12 14
M  V30 14 2 13 15
M  V30 15 1 13 16
M  V30 16 1 14 17
M  V30 17 1 17 18
M  V30 18 1 7 11
M  V30 19 1 14 16
M  V30 20 1 4 19
M  V30 21 1 6 20
M  V30 22 1 10 21
M  V30 23 1 10 22
M  V30 24 1 12 23
M  V30 25 1 14 24
M  V30 26 1 16 25
M  V30 27 1 17 26
M  V30 28 1 17 27
M  V30 29 1 18 28
M  V30 30 1 18 29
M  V30 31 1 18 30
M  V30 END BOND
M  V30 BEGIN COLLECTION
M  V30 MDLV30/STEABS ATOMS=(1 14)
M  V30 END COLLECTION
M  V30 END CTAB
M  END
>  <Structure No>
3238

>  <LogS>
-3.2859

>  <MMFF94 Energy>
-138.41

$$$$
Compound 3239
Actelion Java MolfileCreator 2.0

  0  0  0  0  0  0              0 V3000
M  V30 BEGIN CTAB
M  V30 COUNTS 5 4 0 0 0
M  V30 BEGIN ATOM
M  V30 1 C 0.0 0.0 0.0 0
M  V30 2 H 0.9738 -0.2743 -0.4549 0
M  V30 3 H -0.2745 1.0301 -0.307 0
M  V30 4 H 0.0818 -0.0468 1.1054 0
M  V30 5 H -0.7813 -0.7087 -0.3432 0
M  V30 END ATOM
M  V30 BEGIN BOND
M  V30 1 1 1 2
M  V30 2 1 1 3
M  V30 3 1 1 4
M  V30 4 1 1 5
M  V30 END BOND
M  V30 END CTAB
M  END
>  <Structure No>
3239

>  <LogS>
-2.8629

>  <MMFF94 Energy>
0.026383

$$$$
Compound 3240
Actelion Java MolfileCreator 2.0

  0  0  0  0  0  0              0 V3000
M  V30 BEGIN CTAB
M  V30 COUNTS 2 1 0 0 0
M  V30 BEGIN ATOM
M  V30 1 N 0 0 0 0
M  V30 2 C 0 0 0 0
M  V30 END ATOM
M  V30 BEGIN BOND
M  V30 1 3 1 2
M  V30 END BOND
M  V30 END CTAB
M  END
>  <Structure No>
3240

>  <LogS>
1.5682

>  <MMFF94 Energy>
MMFF94 error code 2

$$$$
Compound 3241
Actelion Java MolfileCreator 2.0

  0  0  0  0  0  0              0 V3000
M  V30 BEGIN CTAB
M  V30 COUNTS 7 6 0 0 0
M  V30 BEGIN ATOM
M  V30 1 C 0.441 -0.1469 0.1469 0
M  V30 2 C 1.5927 -0.4254 0.3683 0
M  V30 3 C -0.957 0.191 -0.1214 0
M  V30 4 H 2.6039 -0.6699 0.5625 0
M  V30 5 H -1.2617 -0.2414 -1.0966 0
M  V30 6 H -1.599 -0.2229 0.6832 0
M  V30 7 H -1.0713 1.2941 -0.1545 0
M  V30 END ATOM
M  V30 BEGIN BOND
M  V30 1 3 1 2
M  V30 2 1 1 3
M  V30 3 1 2 4
M  V30 4 1 3 5
M  V30 5 1 3 6
M  V30 6 1 3 7
M  V30 END BOND
M  V30 END CTAB
M  END
>  <Structure No>
3241

>  <LogS>
-1.0417

>  <MMFF94 Energy>
MMFF94 error code 2

$$$$
Compound 3242
Actelion Java MolfileCreator 2.0

  0  0  0  0  0  0              0 V3000
M  V30 BEGIN CTAB
M  V30 COUNTS 11 10 0 0 0
M  V30 BEGIN ATOM
M  V30 1 N -1.2419 0.2921 0.0 0 CHG=1
M  V30 2 C -0.0584 -0.4527 -0.4275 0
M  V30 3 C 1.1796 -0.0087 0.3483 0
M  V30 4 H -1.4232 0.1255 1.0166 0
M  V30 5 H -1.1046 1.3146 -0.1723 0
M  V30 6 H -2.0689 -0.0356 -0.5493 0
M  V30 7 H 0.1132 -0.2879 -1.514 0
M  V30 8 H -0.2224 -1.5402 -0.2618 0
M  V30 9 H 2.0619 -0.5885 0.0049 0
M  V30 10 H 1.0362 -0.187 1.4351 0
M  V30 11 H 1.3735 1.0713 0.1768 0
M  V30 END ATOM
M  V30 BEGIN BOND
M  V30 1 1 1 2
M  V30 2 1 2 3
M  V30 3 1 1 4
M  V30 4 1 1 5
M  V30 5 1 1 6
M  V30 6 1 2 7
M  V30 7 1 2 8
M  V30 8 1 3 9
M  V30 9 1 3 10
M  V30 10 1 3 11
M  V30 END BOND
M  V30 END CTAB
M  END
>  <Structure No>
3242

>  <LogS>
1.346

>  <MMFF94 Energy>
-1.6314

$$$$
Compound 3243
Actelion Java MolfileCreator 2.0

  0  0  0  0  0  0              0 V3000
M  V30 BEGIN CTAB
M  V30 COUNTS 6 5 0 0 0
M  V30 BEGIN ATOM
M  V30 1 O 1.3905 -0.5121 -0.4389 0
M  V30 2 N 0.1104 -0.8506 -0.054 0
M  V30 3 C -0.783 0.0485 0.2075 0
M  V30 4 H 1.6783 0.456 -0.531 0
M  V30 5 H -1.7772 -0.2535 0.5067 0
M  V30 6 H -0.5489 1.1029 0.1309 0
M  V30 END ATOM
M  V30 BEGIN BOND
M  V30 1 1 1 2
M  V30 2 2 2 3
M  V30 3 1 1 4
M  V30 4 1 3 5
M  V30 5 1 3 6
M  V30 END BOND
M  V30 END CTAB
M  END
>  <Structure No>
3243

>  <LogS>
0.5768

>  <MMFF94 Energy>
12.915

$$$$
Compound 3244
Actelion Java MolfileCreator 2.0

  0  0  0  0  0  0              0 V3000
M  V30 BEGIN CTAB
M  V30 COUNTS 7 7 0 0 0
M  V30 BEGIN ATOM
M  V30 1 O 0.0 -0.1559 1.0918 0
M  V30 2 C 0.7412 0.0427 -0.088 0
M  V30 3 C -0.7339 -0.0065 -0.0998 0
M  V30 4 H 1.2667 -0.884 -0.3992 0
M  V30 5 H 1.1996 1.0532 -0.1154 0
M  V30 6 H -1.2583 0.971 -0.135 0
M  V30 7 H -1.1912 -0.9663 -0.4189 0
M  V30 END ATOM
M  V30 BEGIN BOND
M  V30 1 1 1 2
M  V30 2 1 1 3
M  V30 3 1 2 3
M  V30 4 1 2 4
M  V30 5 1 2 5
M  V30 6 1 3 6
M  V30 7 1 3 7
M  V30 END BOND
M  V30 END CTAB
M  END
>  <Structure No>
3244

>  <LogS>
1.356

>  <MMFF94 Energy>
6.0513

$$$$
Compound 3245
Actelion Java MolfileCreator 2.0

  0  0  0  0  0  0              0 V3000
M  V30 BEGIN CTAB
M  V30 COUNTS 14 13 0 0 0
M  V30 BEGIN ATOM
M  V30 1 N -0.8174 1.1892 0.0 0 CHG=1
M  V30 2 C -0.0164 0.0302 -0.4101 0
M  V30 3 C 1.4152 0.1481 0.1271 0
M  V30 4 C -0.6665 -1.2719 0.0742 0
M  V30 5 H -1.7814 1.1134 -0.3988 0
M  V30 6 H -0.3819 2.0681 -0.3633 0
M  V30 7 H -0.8802 1.2423 1.0432 0
M  V30 8 H 0.0314 0.0011 -1.522 0
M  V30 9 H 1.4151 0.1765 1.2379 0
M  V30 10 H 2.0247 -0.7168 -0.2113 0
M  V30 11 H 1.8896 1.0771 -0.2543 0
M  V30 12 H -1.6907 -1.365 -0.3452 0
M  V30 13 H -0.7312 -1.2875 1.1834 0
M  V30 14 H -0.0719 -2.1468 -0.2645 0
M  V30 END ATOM
M  V30 BEGIN BOND
M  V30 1 1 1 2
M  V30 2 1 2 3
M  V30 3 1 2 4
M  V30 4 1 1 5
M  V30 5 1 1 6
M  V30 6 1 1 7
M  V30 7 1 2 8
M  V30 8 1 3 9
M  V30 9 1 3 10
M  V30 10 1 3 11
M  V30 11 1 4 12
M  V30 12 1 4 13
M  V30 13 1 4 14
M  V30 END BOND
M  V30 END CTAB
M  END
>  <Structure No>
3245

>  <LogS>
1.2283

>  <MMFF94 Energy>
0.9313

$$$$
Compound 3246
Actelion Java MolfileCreator 2.0

  0  0  0  0  0  0              0 V3000
M  V30 BEGIN CTAB
M  V30 COUNTS 12 12 0 0 0
M  V30 BEGIN ATOM
M  V30 1 N -1.0729 0.4597 -0.4597 0 CHG=1
M  V30 2 C 0.0419 0.2871 0.4914 0 CFG=1
M  V30 3 C -0.9116 -0.8075 0.281 0
M  V30 4 C 1.4061 0.1452 -0.1882 0
M  V30 5 H -0.8422 0.3607 -1.4755 0
M  V30 6 H -1.8669 1.0353 -0.0956 0
M  V30 7 H -0.0711 0.8951 1.4151 0
M  V30 8 H -0.5897 -1.647 -0.3736 0
M  V30 9 H -1.6747 -0.9338 1.0793 0
M  V30 10 H 1.3609 -0.4709 -1.1123 0
M  V30 11 H 2.1164 -0.3296 0.5198 0
M  V30 12 H 1.7878 1.1535 -0.4517 0
M  V30 END ATOM
M  V30 BEGIN BOND
M  V30 1 1 1 2
M  V30 2 1 1 3
M  V30 3 1 2 4
M  V30 4 1 2 3
M  V30 5 1 1 5
M  V30 6 1 1 6
M  V30 7 1 2 7
M  V30 8 1 3 8
M  V30 9 1 3 9
M  V30 10 1 4 10
M  V30 11 1 4 11
M  V30 12 1 4 12
M  V30 END BOND
M  V30 BEGIN COLLECTION
M  V30 MDLV30/STEABS ATOMS=(1 2)
M  V30 END COLLECTION
M  V30 END CTAB
M  END
>  <Structure No>
3246

>  <LogS>
1.2434

>  <MMFF94 Energy>
44.669

$$$$
Compound 3247
Actelion Java MolfileCreator 2.0

  0  0  0  0  0  0              0 V3000
M  V30 BEGIN CTAB
M  V30 COUNTS 13 12 0 0 0
M  V30 BEGIN ATOM
M  V30 1 O 0.3848 0.1539 1.6171 0
M  V30 2 C 0.0246 0.2134 0.2582 0
M  V30 3 C 0.0117 1.6193 -0.1924 0
M  V30 4 C 1.0215 -0.5936 -0.5899 0
M  V30 5 C -1.3835 -0.3714 0.1036 0
M  V30 6 N 0.0018 2.7217 -0.5455 0
M  V30 7 H 1.2995 0.5318 1.7102 0
M  V30 8 H 2.0437 -0.165 -0.5046 0
M  V30 9 H 1.0566 -1.648 -0.2409 0
M  V30 10 H 0.7252 -0.5838 -1.6616 0
M  V30 11 H -2.1104 0.2021 0.7192 0
M  V30 12 H -1.4004 -1.4289 0.4449 0
M  V30 13 H -1.7128 -0.3367 -0.958 0
M  V30 END ATOM
M  V30 BEGIN BOND
M  V30 1 1 1 2
M  V30 2 1 2 3
M  V30 3 1 2 4
M  V30 4 1 2 5
M  V30 5 3 3 6
M  V30 6 1 1 7
M  V30 7 1 4 8
M  V30 8 1 4 9
M  V30 9 1 4 10
M  V30 10 1 5 11
M  V30 11 1 5 12
M  V30 12 1 5 13
M  V30 END BOND
M  V30 END CTAB
M  END
>  <Structure No>
3247

>  <LogS>
1.07

>  <MMFF94 Energy>
28.033

$$$$
Compound 3248
Actelion Java MolfileCreator 2.0

  0  0  0  0  0  0              0 V3000
M  V30 BEGIN CTAB
M  V30 COUNTS 8 7 0 0 0
M  V30 BEGIN ATOM
M  V30 1 Cl 1.5564 0.0864 -1.4699 0
M  V30 2 C 0.776 0.0354 0.1331 0
M  V30 3 C -0.7425 0.0446 -0.0016 0
M  V30 4 F -1.3169 0.0044 1.2555 0
M  V30 5 F -1.1607 -1.0591 -0.7231 0
M  V30 6 F -1.1538 1.1966 -0.6479 0
M  V30 7 H 1.1001 -0.8861 0.6613 0
M  V30 8 H 1.1056 0.9179 0.7214 0
M  V30 END ATOM
M  V30 BEGIN BOND
M  V30 1 1 1 2
M  V30 2 1 2 3
M  V30 3 1 3 4
M  V30 4 1 3 5
M  V30 5 1 3 6
M  V30 6 1 2 7
M  V30 7 1 2 8
M  V30 END BOND
M  V30 END CTAB
M  END
>  <Structure No>
3248

>  <LogS>
-1.1098

>  <MMFF94 Energy>
25.01

$$$$
Compound 3249
Actelion Java MolfileCreator 2.0

  0  0  0  0  0  0              0 V3000
M  V30 BEGIN CTAB
M  V30 COUNTS 19 18 0 0 0
M  V30 BEGIN ATOM
M  V30 1 O 1.4666 1.4666 0.926 0
M  V30 2 C 1.1041 0.5102 0.2553 0
M  V30 3 C -0.3805 0.1477 0.1688 0
M  V30 4 C 2.1623 -0.2788 -0.4669 0
M  V30 5 C -0.8513 0.2258 -1.2971 0
M  V30 6 C -0.6013 -1.278 0.7122 0
M  V30 7 C -1.2336 1.127 1.008 0
M  V30 8 H 2.8837 -0.6895 0.2701 0
M  V30 9 H 1.7353 -1.1218 -1.0447 0
M  V30 10 H 2.7045 0.388 -1.1695 0
M  V30 11 H -1.941 0.0183 -1.3699 0
M  V30 12 H -0.3252 -0.5166 -1.9325 0
M  V30 13 H -0.6603 1.239 -1.7125 0
M  V30 14 H -0.0728 -2.034 0.0948 0
M  V30 15 H -0.2285 -1.3573 1.7564 0
M  V30 16 H -1.6825 -1.5359 0.7069 0
M  V30 17 H -0.932 1.0932 2.0776 0
M  V30 18 H -1.1109 2.1691 0.6403 0
M  V30 19 H -2.3122 0.865 0.9461 0
M  V30 END ATOM
M  V30 BEGIN BOND
M  V30 1 2 1 2
M  V30 2 1 2 3
M  V30 3 1 2 4
M  V30 4 1 3 5
M  V30 5 1 3 6
M  V30 6 1 3 7
M  V30 7 1 4 8
M  V30 8 1 4 9
M  V30 9 1 4 10
M  V30 10 1 5 11
M  V30 11 1 5 12
M  V30 12 1 5 13
M  V30 13 1 6 14
M  V30 14 1 6 15
M  V30 15 1 6 16
M  V30 16 1 7 17
M  V30 17 1 7 18
M  V30 18 1 7 19
M  V30 END BOND
M  V30 END CTAB
M  END
>  <Structure No>
3249

>  <LogS>
-0.7219

>  <MMFF94 Energy>
14.328

$$$$
Compound 3250
Actelion Java MolfileCreator 2.0

  0  0  0  0  0  0              0 V3000
M  V30 BEGIN CTAB
M  V30 COUNTS 10 9 0 0 0
M  V30 BEGIN ATOM
M  V30 1 Cl 0.2623 0.4373 2.1003 0
M  V30 2 C 0.0993 0.4522 0.3249 0
M  V30 3 Cl -0.1681 2.1405 -0.1993 0
M  V30 4 C 1.3668 -0.0906 -0.2824 0
M  V30 5 C -1.1169 -0.3845 -0.0816 0
M  V30 6 O 1.558 -1.3342 -0.3532 0
M  V30 7 O 2.3765 0.7719 -0.694 0 CHG=-1
M  V30 8 H -1.2208 -0.4027 -1.1878 0
M  V30 9 H -1.0169 -1.4281 0.2867 0
M  V30 10 H -2.0425 0.0496 0.3533 0
M  V30 END ATOM
M  V30 BEGIN BOND
M  V30 1 1 1 2
M  V30 2 1 2 3
M  V30 3 1 2 4
M  V30 4 1 2 5
M  V30 5 2 4 6
M  V30 6 1 4 7
M  V30 7 1 5 8
M  V30 8 1 5 9
M  V30 9 1 5 10
M  V30 END BOND
M  V30 END CTAB
M  END
>  <Structure No>
3250

>  <LogS>
0.5455

>  <MMFF94 Energy>
88.105

$$$$
Compound 3251
Actelion Java MolfileCreator 2.0

  0  0  0  0  0  0              0 V3000
M  V30 BEGIN CTAB
M  V30 COUNTS 12 11 0 0 0
M  V30 BEGIN ATOM
M  V30 1 Cl -2.6946 -0.5211 -0.0868 0
M  V30 2 C -1.2253 0.4088 0.3137 0
M  V30 3 Cl -1.1272 0.544 2.0927 0
M  V30 4 Cl -1.4302 2.0439 -0.3752 0
M  V30 5 C 0.0208 -0.2964 -0.2735 0 CFG=2
M  V30 6 O 0.153 -1.5822 0.2794 0
M  V30 7 C 1.3203 0.4765 -0.0164 0
M  V30 8 H -0.1026 -0.3682 -1.3807 0
M  V30 9 H -0.3707 -2.2037 -0.2905 0
M  V30 10 H 1.2885 1.4786 -0.4921 0
M  V30 11 H 2.1751 -0.0803 -0.4556 0
M  V30 12 H 1.5055 0.594 1.0717 0
M  V30 END ATOM
M  V30 BEGIN BOND
M  V30 1 1 1 2
M  V30 2 1 2 3
M  V30 3 1 2 4
M  V30 4 1 2 5
M  V30 5 1 5 6
M  V30 6 1 5 7
M  V30 7 1 5 8
M  V30 8 1 6 9
M  V30 9 1 7 10
M  V30 10 1 7 11
M  V30 11 1 7 12
M  V30 END BOND
M  V30 BEGIN COLLECTION
M  V30 MDLV30/STEABS ATOMS=(1 5)
M  V30 END COLLECTION
M  V30 END CTAB
M  END
>  <Structure No>
3251

>  <LogS>
-0.7574

>  <MMFF94 Energy>
49.119

$$$$
Compound 3252
Actelion Java MolfileCreator 2.0

  0  0  0  0  0  0              0 V3000
M  V30 BEGIN CTAB
M  V30 COUNTS 7 6 0 0 0
M  V30 BEGIN ATOM
M  V30 1 Cl -1.3583 -0.9959 -1.0865 0
M  V30 2 C -0.5845 0.0953 0.0866 0
M  V30 3 F -0.9298 1.4017 -0.2095 0
M  V30 4 F -1.0349 -0.2114 1.3576 0
M  V30 5 C 0.8994 -0.0711 0.0193 0
M  V30 6 O 1.5758 0.5953 -0.8078 0
M  V30 7 O 1.5333 -1.0076 0.8267 0 CHG=-1
M  V30 END ATOM
M  V30 BEGIN BOND
M  V30 1 1 1 2
M  V30 2 1 2 3
M  V30 3 1 2 4
M  V30 4 1 2 5
M  V30 5 2 5 6
M  V30 6 1 5 7
M  V30 END BOND
M  V30 END CTAB
M  END
>  <Structure No>
3252

>  <LogS>
0.8845

>  <MMFF94 Energy>
143.13

$$$$
Compound 3253
Actelion Java MolfileCreator 2.0

  0  0  0  0  0  0              0 V3000
M  V30 BEGIN CTAB
M  V30 COUNTS 8 7 0 0 0
M  V30 BEGIN ATOM
M  V30 1 Cl 1.1247 1.7385 -0.2044 0
M  V30 2 C 0.6763 0.0514 0.17 0
M  V30 3 Cl 1.0404 -0.2721 1.8877 0
M  V30 4 Cl 1.693 -1.0254 -0.824 0
M  V30 5 C -0.8094 -0.2028 -0.1341 0
M  V30 6 Cl -1.8745 0.8533 0.8381 0
M  V30 7 F -1.1273 -1.5202 0.1464 0
M  V30 8 F -1.0621 0.0367 -1.4736 0
M  V30 END ATOM
M  V30 BEGIN BOND
M  V30 1 1 1 2
M  V30 2 1 2 3
M  V30 3 1 2 4
M  V30 4 1 2 5
M  V30 5 1 5 6
M  V30 6 1 5 7
M  V30 7 1 5 8
M  V30 END BOND
M  V30 END CTAB
M  END
>  <Structure No>
3253

>  <LogS>
-3.3093

>  <MMFF94 Energy>
66.072

$$$$
Compound 3254
Actelion Java MolfileCreator 2.0

  0  0  0  0  0  0              0 V3000
M  V30 BEGIN CTAB
M  V30 COUNTS 8 7 0 0 0
M  V30 BEGIN ATOM
M  V30 1 Cl 1.6363 1.1248 -0.8179 0
M  V30 2 C 0.7167 0.0128 0.2339 0
M  V30 3 Cl 1.4188 -1.6185 0.048 0
M  V30 4 F 0.874 0.4154 1.5486 0
M  V30 5 C -0.7754 0.0131 -0.1399 0
M  V30 6 Cl -1.4776 1.6445 0.0461 0
M  V30 7 Cl -1.6951 -1.0988 0.912 0
M  V30 8 F -0.9328 -0.3893 -1.4544 0
M  V30 END ATOM
M  V30 BEGIN BOND
M  V30 1 1 1 2
M  V30 2 1 2 3
M  V30 3 1 2 4
M  V30 4 1 2 5
M  V30 5 1 5 6
M  V30 6 1 5 7
M  V30 7 1 5 8
M  V30 END BOND
M  V30 END CTAB
M  END
>  <Structure No>
3254

>  <LogS>
-3.2301

>  <MMFF94 Energy>
66.371

$$$$
Compound 3255
Actelion Java MolfileCreator 2.0

  0  0  0  0  0  0              0 V3000
M  V30 BEGIN CTAB
M  V30 COUNTS 27 28 0 0 0
M  V30 BEGIN ATOM
M  V30 1 O -1.6858 1.6055 -1.7662 0
M  V30 2 C -0.8862 0.8103 -1.2976 0
M  V30 3 C -0.7668 0.4252 0.1561 0 CFG=2
M  V30 4 C 0.0692 -0.024 -2.0931 0
M  V30 5 C 0.7419 0.1101 0.2448 0
M  V30 6 C -1.4298 -0.9698 0.2507 0
M  V30 7 C -1.308 1.462 1.1472 0
M  V30 8 C 0.6804 -0.8764 -0.9461 0 CFG=1
M  V30 9 C 1.6785 1.3329 -0.0045 0
M  V30 10 C 1.2139 -0.5416 1.5793 0
M  V30 11 C -0.4255 -1.8749 -0.5054 0
M  V30 12 H 0.8351 0.6039 -2.5946 0
M  V30 13 H -0.4605 -0.6392 -2.8521 0
M  V30 14 H -1.5541 -1.298 1.3051 0
M  V30 15 H -2.4309 -0.9838 -0.2361 0
M  V30 16 H -1.1404 1.1228 2.1906 0
M  V30 17 H -0.8027 2.4399 1.0013 0
M  V30 18 H -2.3992 1.5998 0.9928 0
M  V30 19 H 1.6456 -1.3597 -1.2092 0
M  V30 20 H 1.3594 1.9847 -0.8418 0
M  V30 21 H 2.7093 0.9795 -0.2194 0
M  V30 22 H 1.7153 1.9815 0.8968 0
M  V30 23 H 1.1829 0.2037 2.4021 0
M  V30 24 H 2.262 -0.8938 1.4721 0
M  V30 25 H 0.6112 -1.4059 1.9129 0
M  V30 26 H -0.0115 -2.6651 0.1561 0
M  V30 27 H -0.9065 -2.3774 -1.373 0
M  V30 END ATOM
M  V30 BEGIN BOND
M  V30 1 2 1 2
M  V30 2 1 2 3
M  V30 3 1 2 4
M  V30 4 1 3 5
M  V30 5 1 3 6
M  V30 6 1 3 7
M  V30 7 1 4 8
M  V30 8 1 5 9
M  V30 9 1 5 10
M  V30 10 1 6 11
M  V30 11 1 5 8
M  V30 12 1 8 11
M  V30 13 1 4 12
M  V30 14 1 4 13
M  V30 15 1 6 14
M  V30 16 1 6 15
M  V30 17 1 7 16
M  V30 18 1 7 17
M  V30 19 1 7 18
M  V30 20 1 8 19
M  V30 21 1 9 20
M  V30 22 1 9 21
M  V30 23 1 9 22
M  V30 24 1 10 23
M  V30 25 1 10 24
M  V30 26 1 10 25
M  V30 27 1 11 26
M  V30 28 1 11 27
M  V30 END BOND
M  V30 BEGIN COLLECTION
M  V30 MDLV30/STEABS ATOMS=(2 3 8)
M  V30 END COLLECTION
M  V30 END CTAB
M  END
>  <Structure No>
3255

>  <LogS>
-1.9784

>  <MMFF94 Energy>
45.556

$$$$
Compound 3256
Actelion Java MolfileCreator 2.0

  0  0  0  0  0  0              0 V3000
M  V30 BEGIN CTAB
M  V30 COUNTS 24 25 0 0 0
M  V30 BEGIN ATOM
M  V30 1 O 3.4447 0.4196 2.0994 0
M  V30 2 C 2.6691 0.3573 1.1101 0
M  V30 3 N 1.6327 1.321 0.948 0
M  V30 4 N 2.8446 -0.6609 0.1328 0 CHG=-1
M  V30 5 C 0.7327 1.2454 -0.162 0
M  V30 6 C 1.9351 -0.8008 -0.9602 0
M  V30 7 O -0.0296 2.2236 -0.3908 0
M  V30 8 C 0.6303 -0.0178 -1.0201 0 CFG=2
M  V30 9 O 2.2009 -1.6377 -1.864 0
M  V30 10 O 0.4556 0.3539 -2.3719 0
M  V30 11 C -0.5624 -0.942 -0.5358 0 CFG=2
M  V30 12 O -0.6194 -2.1173 -1.3163 0
M  V30 13 C -1.9057 -0.2207 -0.6411 0
M  V30 14 C -0.3359 -1.3789 0.9062 0
M  V30 15 O -2.5346 -0.2171 -1.7342 0
M  V30 16 N -2.4458 0.5054 0.4685 0
M  V30 17 O 0.4141 -2.3608 1.1538 0
M  V30 18 N -0.9096 -0.66 1.9999 0 CHG=-1
M  V30 19 C -1.921 0.3166 1.7802 0
M  V30 20 O -2.3693 0.9869 2.7466 0
M  V30 21 H 1.5648 2.1224 1.6153 0
M  V30 22 H -0.3565 0.9159 -2.4554 0
M  V30 23 H -0.6924 -1.8609 -2.2725 0
M  V30 24 H -3.2675 1.135 0.326 0
M  V30 END ATOM
M  V30 BEGIN BOND
M  V30 1 2 1 2
M  V30 2 1 2 3
M  V30 3 1 2 4
M  V30 4 1 3 5
M  V30 5 1 4 6
M  V30 6 2 5 7
M  V30 7 1 5 8
M  V30 8 2 6 9
M  V30 9 1 8 10
M  V30 10 1 8 11
M  V30 11 1 11 12
M  V30 12 1 11 13
M  V30 13 1 11 14
M  V30 14 2 13 15
M  V30 15 1 13 16
M  V30 16 2 14 17
M  V30 17 1 14 18
M  V30 18 1 16 19
M  V30 19 2 19 20
M  V30 20 1 6 8
M  V30 21 1 18 19
M  V30 22 1 3 21
M  V30 23 1 10 22
M  V30 24 1 12 23
M  V30 25 1 16 24
M  V30 END BOND
M  V30 BEGIN COLLECTION
M  V30 MDLV30/STEABS ATOMS=(2 8 11)
M  V30 END COLLECTION
M  V30 END CTAB
M  END
>  <Structure No>
3256

>  <LogS>
-1.9942

>  <MMFF94 Energy>
60.718

$$$$
Compound 3257
Actelion Java MolfileCreator 2.0

  0  0  0  0  0  0              0 V3000
M  V30 BEGIN CTAB
M  V30 COUNTS 62 66 0 0 0
M  V30 BEGIN ATOM
M  V30 1 F 2.9363 -1.7936 -0.2444 0
M  V30 2 C 2.1055 -0.6831 -0.1 0 CFG=2
M  V30 3 C 3.1407 0.5286 0.018 0 CFG=2
M  V30 4 C 1.2462 -1.0163 1.189 0 CFG=1
M  V30 5 C 1.2242 -0.6613 -1.4355 0 CFG=1
M  V30 6 C 3.8583 0.7609 -1.3335 0
M  V30 7 C 4.2275 0.2517 1.0776 0
M  V30 8 C 2.4413 1.8494 0.4102 0
M  V30 9 O 1.859 -0.5966 2.3868 0
M  V30 10 C -0.2295 -0.5774 1.1356 0
M  V30 11 C -0.3373 -0.5002 -1.3512 0 CFG=1
M  V30 12 C 1.7857 0.2348 -2.5655 0
M  V30 13 C 5.0489 1.3894 -1.3798 0
M  V30 14 C 3.2968 0.2109 -2.6143 0
M  V30 15 C 5.4096 0.8797 1.0516 0
M  V30 16 C -1.0053 -1.0871 -0.1085 0 CFG=2
M  V30 17 C -0.9011 0.9261 -1.458 0
M  V30 18 C 5.8007 1.626 -0.1435 0
M  V30 19 C -2.4565 -0.463 -0.151 0 CFG=2
M  V30 20 C -1.021 -2.6427 -0.1466 0
M  V30 21 C -2.3132 0.8686 -0.8741 0 CFG=1
M  V30 22 O 6.8082 2.3793 -0.133 0
M  V30 23 O -2.9198 -0.1498 1.1383 0
M  V30 24 C -3.4824 -1.3478 -0.8765 0
M  V30 25 O -2.507 1.8665 0.083 0
M  V30 26 C -3.1927 1.2356 1.1389 0
M  V30 27 O -3.3962 -1.4999 -2.0845 0
M  V30 28 C -4.6098 -2.0413 -0.1548 0
M  V30 29 C -4.7058 1.4652 0.9847 0
M  V30 30 C -2.7224 1.8359 2.4664 0
M  V30 31 O -4.407 -3.4241 -0.2001 0
M  V30 32 H 1.2239 -2.1208 1.2827 0
M  V30 33 H 1.337 -1.6934 -1.8477 0
M  V30 34 H 4.0629 -0.4143 1.9096 0
M  V30 35 H 1.8917 1.7618 1.3696 0
M  V30 36 H 1.7376 2.1854 -0.374 0
M  V30 37 H 3.19 2.6672 0.5327 0
M  V30 38 H 1.3129 0.0949 2.8418 0
M  V30 39 H -0.7327 -0.9535 2.0544 0
M  V30 40 H -0.2547 0.5299 1.1765 0
M  V30 41 H -0.7497 -1.0408 -2.237 0
M  V30 42 H 1.3921 -0.1163 -3.5472 0
M  V30 43 H 1.4724 1.2928 -2.4492 0
M  V30 44 H 5.5275 1.6095 -2.327 0
M  V30 45 H 3.6258 0.8189 -3.4865 0
M  V30 46 H 3.6596 -0.83 -2.7592 0
M  V30 47 H 6.1099 0.7581 1.867 0
M  V30 48 H -0.9346 1.2634 -2.5179 0
M  V30 49 H -0.2929 1.6434 -0.8782 0
M  V30 50 H -1.53 -3.0413 0.7568 0
M  V30 51 H -1.5412 -3.03 -1.0483 0
M  V30 52 H -0.0014 -3.0724 -0.2081 0
M  V30 53 H -3.0619 1.0089 -1.6862 0
M  V30 54 H -4.6907 -1.7094 0.8991 0
M  V30 55 H -5.5667 -1.789 -0.6607 0
M  V30 56 H -5.064 1.0275 0.0298 0
M  V30 57 H -4.9404 2.5509 0.9745 0
M  V30 58 H -5.259 0.9855 1.8207 0
M  V30 59 H -1.6338 1.6804 2.602 0
M  V30 60 H -2.9228 2.9271 2.4902 0
M  V30 61 H -3.2518 1.3575 3.3161 0
M  V30 62 H -5.1303 -3.8282 0.3427 0
M  V30 END ATOM
M  V30 BEGIN BOND
M  V30 1 1 1 2
M  V30 2 1 2 3
M  V30 3 1 2 4
M  V30 4 1 2 5
M  V30 5 1 3 6
M  V30 6 1 3 7
M  V30 7 1 3 8
M  V30 8 1 4 9
M  V30 9 1 4 10
M  V30 10 1 5 11
M  V30 11 1 5 12
M  V30 12 2 6 13
M  V30 13 1 6 14
M  V30 14 2 7 15
M  V30 15 1 10 16
M  V30 16 1 11 17
M  V30 17 1 13 18
M  V30 18 1 16 19
M  V30 19 1 16 20
M  V30 20 1 17 21
M  V30 21 2 18 22
M  V30 22 1 19 23
M  V30 23 1 19 24
M  V30 24 1 21 25
M  V30 25 1 23 26
M  V30 26 2 24 27
M  V30 27 1 24 28
M  V30 28 1 26 29
M  V30 29 1 26 30
M  V30 30 1 28 31
M  V30 31 1 11 16
M  V30 32 1 12 14
M  V30 33 1 15 18
M  V30 34 1 19 21
M  V30 35 1 25 26
M  V30 36 1 4 32
M  V30 37 1 5 33
M  V30 38 1 7 34
M  V30 39 1 8 35
M  V30 40 1 8 36
M  V30 41 1 8 37
M  V30 42 1 9 38
M  V30 43 1 10 39
M  V30 44 1 10 40
M  V30 45 1 11 41
M  V30 46 1 12 42
M  V30 47 1 12 43
M  V30 48 1 13 44
M  V30 49 1 14 45
M  V30 50 1 14 46
M  V30 51 1 15 47
M  V30 52 1 17 48
M  V30 53 1 17 49
M  V30 54 1 20 50
M  V30 55 1 20 51
M  V30 56 1 20 52
M  V30 57 1 21 53
M  V30 58 1 28 54
M  V30 59 1 28 55
M  V30 60 1 29 56
M  V30 61 1 29 57
M  V30 62 1 29 58
M  V30 63 1 30 59
M  V30 64 1 30 60
M  V30 65 1 30 61
M  V30 66 1 31 62
M  V30 END BOND
M  V30 BEGIN COLLECTION
M  V30 MDLV30/STEABS ATOMS=(8 2 3 4 5 11 16 19 21)
M  V30 END COLLECTION
M  V30 END CTAB
M  END
>  <Structure No>
3257

>  <LogS>
-4.3158

>  <MMFF94 Energy>
188.47

$$$$
Compound 3258
Actelion Java MolfileCreator 2.0

  0  0  0  0  0  0              0 V3000
M  V30 BEGIN CTAB
M  V30 COUNTS 17 16 0 0 0
M  V30 BEGIN ATOM
M  V30 1 O -1.4085 1.9566 -0.5475 0
M  V30 2 N -0.9534 1.2331 0.3634 0 CHG=1
M  V30 3 O -0.8891 1.7511 1.6377 0 CHG=-1
M  V30 4 C -0.2322 -0.0073 0.0294 0
M  V30 5 C 1.1907 0.3423 -0.456 0
M  V30 6 C -0.1575 -0.9285 1.2664 0
M  V30 7 C -0.9826 -0.7602 -1.0895 0
M  V30 8 O 1.883 1.0627 0.5277 0
M  V30 9 H 1.1283 0.9566 -1.3828 0
M  V30 10 H 1.7492 -0.5911 -0.6961 0
M  V30 11 H 0.3532 -1.8833 1.0155 0
M  V30 12 H -1.1795 -1.1625 1.6352 0
M  V30 13 H 0.407 -0.4454 2.0922 0
M  V30 14 H -0.4751 -1.7201 -1.3279 0
M  V30 15 H -1.0214 -0.153 -2.0194 0
M  V30 16 H -2.0252 -0.9812 -0.774 0
M  V30 17 H 2.7828 1.2479 0.1522 0
M  V30 END ATOM
M  V30 BEGIN BOND
M  V30 1 2 1 2
M  V30 2 1 2 3
M  V30 3 1 2 4
M  V30 4 1 4 5
M  V30 5 1 4 6
M  V30 6 1 4 7
M  V30 7 1 5 8
M  V30 8 1 5 9
M  V30 9 1 5 10
M  V30 10 1 6 11
M  V30 11 1 6 12
M  V30 12 1 6 13
M  V30 13 1 7 14
M  V30 14 1 7 15
M  V30 15 1 7 16
M  V30 16 1 8 17
M  V30 END BOND
M  V30 END CTAB
M  END
>  <Structure No>
3258

>  <LogS>
1.4681

>  <MMFF94 Energy>
18.268

$$$$
Compound 3259
Actelion Java MolfileCreator 2.0

  0  0  0  0  0  0              0 V3000
M  V30 BEGIN CTAB
M  V30 COUNTS 16 15 0 0 0
M  V30 BEGIN ATOM
M  V30 1 Cl -0.1698 0.9342 -2.2091 0
M  V30 2 C -0.4247 0.9004 -0.4333 0
M  V30 3 Cl -1.3011 2.4052 -0.0069 0
M  V30 4 C -1.3489 -0.2889 -0.0761 0
M  V30 5 C 0.9372 0.8895 0.3272 0 CFG=2
M  V30 6 O -0.8586 -1.4828 -0.63 0
M  V30 7 O -1.4554 -0.4171 1.3188 0
M  V30 8 Cl 1.9369 2.3097 -0.1206 0
M  V30 9 C 1.7719 -0.3777 0.1072 0
M  V30 10 H -2.3577 -0.0788 -0.5096 0
M  V30 11 H 0.7402 0.9778 1.4178 0
M  V30 12 H -1.5845 -2.1549 -0.5482 0
M  V30 13 H -2.2236 -1.0214 1.4916 0
M  V30 14 H 1.2961 -1.2505 0.5993 0
M  V30 15 H 1.9067 -0.5849 -0.9747 0
M  V30 16 H 2.7747 -0.2533 0.5682 0
M  V30 END ATOM
M  V30 BEGIN BOND
M  V30 1 1 1 2
M  V30 2 1 2 3
M  V30 3 1 2 4
M  V30 4 1 2 5
M  V30 5 1 4 6
M  V30 6 1 4 7
M  V30 7 1 5 8
M  V30 8 1 5 9
M  V30 9 1 4 10
M  V30 10 1 5 11
M  V30 11 1 6 12
M  V30 12 1 7 13
M  V30 13 1 9 14
M  V30 14 1 9 15
M  V30 15 1 9 16
M  V30 END BOND
M  V30 BEGIN COLLECTION
M  V30 MDLV30/STEABS ATOMS=(1 5)
M  V30 END COLLECTION
M  V30 END CTAB
M  END
>  <Structure No>
3259

>  <LogS>
-0.8666

>  <MMFF94 Energy>
37.899

$$$$
Compound 3260
Actelion Java MolfileCreator 2.0

  0  0  0  0  0  0              0 V3000
M  V30 BEGIN CTAB
M  V30 COUNTS 22 24 0 0 0
M  V30 BEGIN ATOM
M  V30 1 Cl -3.7537 1.0313 0.4687 0
M  V30 2 C -2.2034 0.2117 0.3323 0
M  V30 3 C -1.7528 -0.7604 1.1342 0
M  V30 4 C -1.1577 0.4025 -0.7424 0 CFG=2
M  V30 5 Cl -2.6117 -1.428 2.5178 0
M  V30 6 C -0.4079 -1.2071 0.582 0 CFG=2
M  V30 7 Cl -1.7429 1.2226 -2.221 0
M  V30 8 C -0.7136 -1.0568 -0.9179 0
M  V30 9 C 0.0332 1.096 -0.0134 0 CFG=1
M  V30 10 Cl 0.0415 -2.8488 1.1372 0
M  V30 11 C 0.567 -0.0202 0.925 0 CFG=2
M  V30 12 Cl -2.0367 -2.1472 -1.4983 0
M  V30 13 Cl 0.6446 -1.3266 -2.0576 0
M  V30 14 C 1.1952 1.464 -0.8736 0
M  V30 15 C 2.0961 -0.0814 0.6431 0 CFG=2
M  V30 16 C 2.3047 0.8383 -0.5113 0
M  V30 17 Cl 2.8234 -1.6803 0.321 0
M  V30 18 H -0.2971 1.9927 0.5585 0
M  V30 19 H 0.4279 0.2755 1.9913 0
M  V30 20 H 1.154 2.1888 -1.6799 0
M  V30 21 H 2.6387 0.3489 1.5126 0
M  V30 22 H 3.2643 1.0061 -0.9895 0
M  V30 END ATOM
M  V30 BEGIN BOND
M  V30 1 1 1 2
M  V30 2 2 2 3
M  V30 3 1 2 4
M  V30 4 1 3 5
M  V30 5 1 3 6
M  V30 6 1 4 7
M  V30 7 1 4 8
M  V30 8 1 4 9
M  V30 9 1 6 10
M  V30 10 1 6 11
M  V30 11 1 8 12
M  V30 12 1 8 13
M  V30 13 1 9 14
M  V30 14 1 11 15
M  V30 15 2 14 16
M  V30 16 1 15 17
M  V30 17 1 6 8
M  V30 18 1 9 11
M  V30 19 1 15 16
M  V30 20 1 9 18
M  V30 21 1 11 19
M  V30 22 1 14 20
M  V30 23 1 15 21
M  V30 24 1 16 22
M  V30 END BOND
M  V30 BEGIN COLLECTION
M  V30 MDLV30/STEABS ATOMS=(5 4 6 9 11 15)
M  V30 END COLLECTION
M  V30 END CTAB
M  END
>  <Structure No>
3260

>  <LogS>
-6.3168

>  <MMFF94 Energy>
91.662

$$$$
Compound 3261
Actelion Java MolfileCreator 2.0

  0  0  0  0  0  0              0 V3000
M  V30 BEGIN CTAB
M  V30 COUNTS 44 48 0 0 0
M  V30 BEGIN ATOM
M  V30 1 O -1.8691 1.5439 0.8123 0
M  V30 2 C -2.0225 0.2419 0.365 0
M  V30 3 C -0.4795 1.8505 1.0007 0 CFG=1
M  V30 4 C -3.2028 -0.3729 -0.0539 0
M  V30 5 C -0.8186 -0.3833 0.2448 0
M  V30 6 C 0.2812 0.5153 0.655 0 CFG=1
M  V30 7 C -0.0171 3.0534 0.1305 0 CFG=2
M  V30 8 O -4.4259 0.2823 0.1444 0
M  V30 9 C -3.0937 -1.6327 -0.6959 0
M  V30 10 C -0.656 -1.5234 -0.5467 0
M  V30 11 C 1.1825 0.6145 -0.5918 0 CFG=1
M  V30 12 C 1.0255 -0.0875 1.8943 0
M  V30 13 O -0.7027 3.0483 -1.0952 0
M  V30 14 C 1.4854 2.9878 -0.1228 0
M  V30 15 C -5.6868 -0.2437 -0.2549 0
M  V30 16 C -1.8228 -2.1824 -0.9774 0
M  V30 17 C 0.7067 -1.8213 -1.1684 0
M  V30 18 C 2.0647 1.8266 -0.4819 0
M  V30 19 C 1.8411 -0.7819 -0.7984 0 CFG=2
M  V30 20 C 2.4926 -0.4245 1.6051 0
M  V30 21 N 2.6391 -1.2547 0.3877 0 CHG=1 CFG=2
M  V30 22 C 4.0689 -1.3714 0.0456 0
M  V30 23 H -0.3414 2.1369 2.0651 0
M  V30 24 H -0.2527 3.9957 0.6773 0
M  V30 25 H -3.9733 -2.1523 -1.0506 0
M  V30 26 H 0.5607 0.8095 -1.4994 0
M  V30 27 H 0.5228 -1.015 2.2511 0
M  V30 28 H 1.0183 0.6074 2.7598 0
M  V30 29 H -0.553 3.9377 -1.5108 0
M  V30 30 H 2.0955 3.8746 0.0173 0
M  V30 31 H -5.7084 -0.3887 -1.3556 0
M  V30 32 H -6.4847 0.4745 0.0247 0
M  V30 33 H -5.8788 -1.2081 0.2611 0
M  V30 34 H -1.7497 -3.0743 -1.5868 0
M  V30 35 H 0.5712 -1.7847 -2.2717 0
M  V30 36 H 1.0051 -2.8654 -0.9366 0
M  V30 37 H 3.136 1.7653 -0.6441 0
M  V30 38 H 2.4904 -0.6943 -1.7013 0
M  V30 39 H 3.0804 0.5161 1.5273 0
M  V30 40 H 2.9021 -0.9714 2.4852 0
M  V30 41 H 2.3365 -2.2187 0.6637 0
M  V30 42 H 4.6517 -1.754 0.9129 0
M  V30 43 H 4.208 -2.092 -0.7903 0
M  V30 44 H 4.4868 -0.3862 -0.2584 0
M  V30 END ATOM
M  V30 BEGIN BOND
M  V30 1 1 1 2
M  V30 2 1 1 3
M  V30 3 2 2 4
M  V30 4 1 2 5
M  V30 5 1 3 6
M  V30 6 1 3 7
M  V30 7 1 4 8
M  V30 8 1 4 9
M  V30 9 2 5 10
M  V30 10 1 6 11
M  V30 11 1 6 12
M  V30 12 1 7 13
M  V30 13 1 7 14
M  V30 14 1 8 15
M  V30 15 2 9 16
M  V30 16 1 10 17
M  V30 17 1 11 18
M  V30 18 1 11 19
M  V30 19 1 12 20
M  V30 20 1 19 21
M  V30 21 1 21 22
M  V30 22 1 5 6
M  V30 23 1 10 16
M  V30 24 2 14 18
M  V30 25 1 17 19
M  V30 26 1 20 21
M  V30 27 1 3 23
M  V30 28 1 7 24
M  V30 29 1 9 25
M  V30 30 1 11 26
M  V30 31 1 12 27
M  V30 32 1 12 28
M  V30 33 1 13 29
M  V30 34 1 14 30
M  V30 35 1 15 31
M  V30 36 1 15 32
M  V30 37 1 15 33
M  V30 38 1 16 34
M  V30 39 1 17 35
M  V30 40 1 17 36
M  V30 41 1 18 37
M  V30 42 1 19 38
M  V30 43 1 20 39
M  V30 44 1 20 40
M  V30 45 1 21 41
M  V30 46 1 22 42
M  V30 47 1 22 43
M  V30 48 1 22 44
M  V30 END BOND
M  V30 BEGIN COLLECTION
M  V30 MDLV30/STEABS ATOMS=(6 3 6 7 11 19 21)
M  V30 END COLLECTION
M  V30 END CTAB
M  END
>  <Structure No>
3261

>  <LogS>
-1.522

>  <MMFF94 Energy>
123.83

$$$$
Compound 3262
Actelion Java MolfileCreator 2.0

  0  0  0  0  0  0              0 V3000
M  V30 BEGIN CTAB
M  V30 COUNTS 47 51 0 0 0
M  V30 BEGIN ATOM
M  V30 1 O -1.6218 1.4595 -0.162 0
M  V30 2 C -1.6056 0.07 -0.379 0
M  V30 3 C -0.4433 1.7075 0.62 0 CFG=1
M  V30 4 C -2.6586 -0.7984 -0.6661 0
M  V30 5 C -0.3632 -0.4306 -0.1114 0
M  V30 6 C 0.5558 0.6658 0.1175 0 CFG=2
M  V30 7 C 0.2197 3.0836 0.802 0 CFG=2
M  V30 8 O -3.9219 -0.273 -0.9681 0
M  V30 9 C -2.388 -2.1976 -0.5983 0
M  V30 10 C -0.0636 -1.7665 0.0518 0
M  V30 11 C 1.5262 0.3586 1.2279 0 CFG=2
M  V30 12 C 1.2847 0.9724 -1.2443 0
M  V30 13 O 0.2345 3.8053 -0.3992 0
M  V30 14 C 1.6551 2.8873 1.3645 0
M  V30 15 C -5.0669 -1.0681 -1.2619 0
M  V30 16 C -1.1075 -2.6757 -0.2043 0
M  V30 17 C 1.2753 -2.1292 0.7 0
M  V30 18 C 2.2601 1.6645 1.5389 0
M  V30 19 C 2.3016 -0.9164 0.7572 0 CFG=1
M  V30 20 C 2.7669 0.553 -1.2379 0
M  V30 21 C -6.254 -0.1624 -1.5472 0
M  V30 22 N 2.979 -0.7567 -0.579 0 CHG=1 CFG=1
M  V30 23 C 4.4251 -1.0193 -0.4638 0
M  V30 24 H -0.7459 1.4375 1.6654 0
M  V30 25 H -0.3729 3.6558 1.553 0
M  V30 26 H -3.1689 -2.9194 -0.7948 0
M  V30 27 H 0.9856 0.0825 2.1636 0
M  V30 28 H 0.7863 0.4571 -2.0976 0
M  V30 29 H 1.2538 2.0408 -1.5112 0
M  V30 30 H 0.5141 4.7305 -0.1724 0
M  V30 31 H 2.2229 3.7785 1.6122 0
M  V30 32 H -5.3061 -1.7189 -0.3932 0
M  V30 33 H -4.8676 -1.6996 -2.1547 0
M  V30 34 H -0.9444 -3.7381 -0.0775 0
M  V30 35 H 1.7257 -3.0 0.1772 0
M  V30 36 H 1.0642 -2.4562 1.7411 0
M  V30 37 H 3.2726 1.6199 1.9274 0
M  V30 38 H 3.0395 -1.1549 1.5582 0
M  V30 39 H 3.1172 0.5053 -2.2945 0
M  V30 40 H 3.3789 1.3449 -0.7531 0
M  V30 41 H -6.0324 0.4908 -2.4176 0
M  V30 42 H -6.4694 0.4713 -0.6608 0
M  V30 43 H -7.1491 -0.7781 -1.7767 0
M  V30 44 H 2.6129 -1.4717 -1.2521 0
M  V30 45 H 4.9178 -0.954 -1.4594 0
M  V30 46 H 4.6007 -2.046 -0.0732 0
M  V30 47 H 4.9074 -0.2879 0.2225 0
M  V30 END ATOM
M  V30 BEGIN BOND
M  V30 1 1 1 2
M  V30 2 1 1 3
M  V30 3 2 2 4
M  V30 4 1 2 5
M  V30 5 1 3 6
M  V30 6 1 3 7
M  V30 7 1 4 8
M  V30 8 1 4 9
M  V30 9 2 5 10
M  V30 10 1 6 11
M  V30 11 1 6 12
M  V30 12 1 7 13
M  V30 13 1 7 14
M  V30 14 1 8 15
M  V30 15 2 9 16
M  V30 16 1 10 17
M  V30 17 1 11 18
M  V30 18 1 11 19
M  V30 19 1 12 20
M  V30 20 1 15 21
M  V30 21 1 19 22
M  V30 22 1 22 23
M  V30 23 1 5 6
M  V30 24 1 10 16
M  V30 25 2 14 18
M  V30 26 1 17 19
M  V30 27 1 20 22
M  V30 28 1 3 24
M  V30 29 1 7 25
M  V30 30 1 9 26
M  V30 31 1 11 27
M  V30 32 1 12 28
M  V30 33 1 12 29
M  V30 34 1 13 30
M  V30 35 1 14 31
M  V30 36 1 15 32
M  V30 37 1 15 33
M  V30 38 1 16 34
M  V30 39 1 17 35
M  V30 40 1 17 36
M  V30 41 1 18 37
M  V30 42 1 19 38
M  V30 43 1 20 39
M  V30 44 1 20 40
M  V30 45 1 21 41
M  V30 46 1 21 42
M  V30 47 1 21 43
M  V30 48 1 22 44
M  V30 49 1 23 45
M  V30 50 1 23 46
M  V30 51 1 23 47
M  V30 END BOND
M  V30 BEGIN COLLECTION
M  V30 MDLV30/STEABS ATOMS=(6 3 6 7 11 19 22)
M  V30 END COLLECTION
M  V30 END CTAB
M  END
>  <Structure No>
3262

>  <LogS>
-2.079

>  <MMFF94 Energy>
122.05

$$$$
Compound 3263
Actelion Java MolfileCreator 2.0

  0  0  0  0  0  0              0 V3000
M  V30 BEGIN CTAB
M  V30 COUNTS 45 47 0 0 0
M  V30 BEGIN ATOM
M  V30 1 O -0.4755 0.7926 -2.6175 0
M  V30 2 C -0.3458 0.3886 -1.2711 0
M  V30 3 C 1.1127 -0.0083 -1.0079 0
M  V30 4 C -0.7867 1.5923 -0.414 0
M  V30 5 C -1.1795 -0.8775 -1.0155 0
M  V30 6 C 1.607 -0.1091 0.3091 0
M  V30 7 C 1.9566 -0.3916 -2.0673 0
M  V30 8 C 0.1188 2.6339 -0.1151 0
M  V30 9 C -2.1456 1.7831 -0.0803 0
M  V30 10 C -1.5035 -1.7492 -2.0763 0
M  V30 11 C -1.5256 -1.267 0.2963 0
M  V30 12 C 2.9243 -0.526 0.5653 0
M  V30 13 C 3.2654 -0.808 -1.8227 0
M  V30 14 C -0.2966 3.765 0.5925 0
M  V30 15 C -2.5587 2.9153 0.6269 0
M  V30 16 C -2.2033 -2.9355 -1.8389 0
M  V30 17 C -2.2257 -2.4533 0.5299 0
M  V30 18 C 3.764 -0.8752 -0.5158 0
M  V30 19 C 3.4112 -0.5974 1.9879 0
M  V30 20 C -1.6346 3.9058 0.9767 0
M  V30 21 C -2.5724 -3.2903 -0.5364 0
M  V30 22 N 5.116 -1.3075 -0.3087 0
M  V30 23 N -2.0589 5.0648 1.6991 0
M  V30 24 N -3.2871 -4.5053 -0.2957 0
M  V30 25 H -1.4338 0.9952 -2.788 0
M  V30 26 H 0.965 0.1488 1.1411 0
M  V30 27 H 1.6071 -0.3788 -3.0913 0
M  V30 28 H 1.1517 2.5795 -0.4329 0
M  V30 29 H -2.8957 1.0603 -0.3731 0
M  V30 30 H -1.2095 -1.5213 -3.0925 0
M  V30 31 H -1.2618 -0.6493 1.1443 0
M  V30 32 H 3.8938 -1.0876 -2.6592 0
M  V30 33 H 0.4228 4.5388 0.8291 0
M  V30 34 H -3.6033 3.0268 0.8898 0
M  V30 35 H -2.4497 -3.5833 -2.6709 0
M  V30 36 H -2.4927 -2.7227 1.5441 0
M  V30 37 H 2.6238 -0.2909 2.7092 0
M  V30 38 H 3.7107 -1.6386 2.2307 0
M  V30 39 H 4.2798 0.0808 2.1221 0
M  V30 40 H 5.7197 -1.5648 -1.1214 0
M  V30 41 H 5.5388 -1.3781 0.6421 0
M  V30 42 H -3.0573 5.1822 1.9828 0
M  V30 43 H -1.3776 5.8132 1.9573 0
M  V30 44 H -3.5465 -5.1384 -1.0849 0
M  V30 45 H -3.5631 -4.7804 0.6733 0
M  V30 END ATOM
M  V30 BEGIN BOND
M  V30 1 1 1 2
M  V30 2 1 2 3
M  V30 3 1 2 4
M  V30 4 1 2 5
M  V30 5 2 3 6
M  V30 6 1 3 7
M  V30 7 2 4 8
M  V30 8 1 4 9
M  V30 9 2 5 10
M  V30 10 1 5 11
M  V30 11 1 6 12
M  V30 12 2 7 13
M  V30 13 1 8 14
M  V30 14 2 9 15
M  V30 15 1 10 16
M  V30 16 2 11 17
M  V30 17 2 12 18
M  V30 18 1 12 19
M  V30 19 2 14 20
M  V30 20 2 16 21
M  V30 21 1 18 22
M  V30 22 1 20 23
M  V30 23 1 21 24
M  V30 24 1 13 18
M  V30 25 1 15 20
M  V30 26 1 17 21
M  V30 27 1 1 25
M  V30 28 1 6 26
M  V30 29 1 7 27
M  V30 30 1 8 28
M  V30 31 1 9 29
M  V30 32 1 10 30
M  V30 33 1 11 31
M  V30 34 1 13 32
M  V30 35 1 14 33
M  V30 36 1 15 34
M  V30 37 1 16 35
M  V30 38 1 17 36
M  V30 39 1 19 37
M  V30 40 1 19 38
M  V30 41 1 19 39
M  V30 42 1 22 40
M  V30 43 1 22 41
M  V30 44 1 23 42
M  V30 45 1 23 43
M  V30 46 1 24 44
M  V30 47 1 24 45
M  V30 END BOND
M  V30 END CTAB
M  END
>  <Structure No>
3263

>  <LogS>
-3.0272

>  <MMFF94 Energy>
70.341

$$$$
Compound 3264
Actelion Java MolfileCreator 2.0

  0  0  0  0  0  0              0 V3000
M  V30 BEGIN CTAB
M  V30 COUNTS 36 38 0 0 0
M  V30 BEGIN ATOM
M  V30 1 O -1.2764 0.3189 -1.9151 0
M  V30 2 C -0.4655 0.1694 -0.7695 0
M  V30 3 C -0.8411 -1.1382 -0.0615 0
M  V30 4 C 1.0081 0.0184 -1.1795 0
M  V30 5 C -0.7291 1.4063 0.1122 0
M  V30 6 C -1.4737 -2.1855 -0.766 0
M  V30 7 C -0.4615 -1.3701 1.2792 0
M  V30 8 C 2.0467 0.2223 -0.2441 0
M  V30 9 C 1.3517 -0.4544 -2.4644 0
M  V30 10 C -1.8412 1.4462 0.983 0
M  V30 11 C 0.0066 2.5981 -0.0742 0
M  V30 12 C -1.762 -3.3986 -0.134 0
M  V30 13 C -0.7538 -2.5848 1.9049 0
M  V30 14 C 3.3817 0.0205 -0.6036 0
M  V30 15 C 2.6892 -0.655 -2.8171 0
M  V30 16 C -2.1312 2.5964 1.7223 0
M  V30 17 C -0.288 3.7454 0.6674 0
M  V30 18 C -1.4071 -3.5963 1.2007 0
M  V30 19 C 3.7033 -0.4124 -1.89 0
M  V30 20 C -1.3485 3.7411 1.5735 0
M  V30 21 H -0.9887 1.1427 -2.3915 0
M  V30 22 H -1.7406 -2.0749 -1.8087 0
M  V30 23 H 0.0533 -0.6074 1.8477 0
M  V30 24 H 1.827 0.5457 0.7642 0
M  V30 25 H 0.5879 -0.6789 -3.1973 0
M  V30 26 H -2.4939 0.5898 1.09 0
M  V30 27 H 0.8064 2.6494 -0.8012 0
M  V30 28 H -2.2549 -4.19 -0.6836 0
M  V30 29 H -0.4682 -2.7434 2.9368 0
M  V30 30 H 4.1679 0.1945 0.1196 0
M  V30 31 H 2.9388 -1.0086 -3.8091 0
M  V30 32 H -2.9741 2.6039 2.4013 0
M  V30 33 H 0.2982 4.6444 0.5278 0
M  V30 34 H -1.63 -4.5374 1.6866 0
M  V30 35 H 4.7378 -0.5709 -2.1653 0
M  V30 36 H -1.578 4.6323 2.1432 0
M  V30 END ATOM
M  V30 BEGIN BOND
M  V30 1 1 1 2
M  V30 2 1 2 3
M  V30 3 1 2 4
M  V30 4 1 2 5
M  V30 5 2 3 6
M  V30 6 1 3 7
M  V30 7 2 4 8
M  V30 8 1 4 9
M  V30 9 2 5 10
M  V30 10 1 5 11
M  V30 11 1 6 12
M  V30 12 2 7 13
M  V30 13 1 8 14
M  V30 14 2 9 15
M  V30 15 1 10 16
M  V30 16 2 11 17
M  V30 17 2 12 18
M  V30 18 2 14 19
M  V30 19 2 16 20
M  V30 20 1 13 18
M  V30 21 1 15 19
M  V30 22 1 17 20
M  V30 23 1 1 21
M  V30 24 1 6 22
M  V30 25 1 7 23
M  V30 26 1 8 24
M  V30 27 1 9 25
M  V30 28 1 10 26
M  V30 29 1 11 27
M  V30 30 1 12 28
M  V30 31 1 13 29
M  V30 32 1 14 30
M  V30 33 1 15 31
M  V30 34 1 16 32
M  V30 35 1 17 33
M  V30 36 1 18 34
M  V30 37 1 19 35
M  V30 38 1 20 36
M  V30 END BOND
M  V30 END CTAB
M  END
>  <Structure No>
3264

>  <LogS>
-2.2596

>  <MMFF94 Energy>
90.561

$$$$
Compound 3265
Actelion Java MolfileCreator 2.0

  0  0  0  0  0  0              0 V3000
M  V30 BEGIN CTAB
M  V30 COUNTS 26 27 0 0 0
M  V30 BEGIN ATOM
M  V30 1 O -3.313 2.9085 -1.1303 0
M  V30 2 C -2.5112 1.9828 -0.8367 0
M  V30 3 N -2.3727 1.5633 0.5168 0
M  V30 4 N -1.7335 1.3643 -1.8566 0
M  V30 5 C -1.483 0.5041 0.8792 0
M  V30 6 C -0.8268 0.2999 -1.557 0
M  V30 7 O -1.3534 0.2111 2.0994 0
M  V30 8 C -0.7295 -0.3082 -0.1647 0
M  V30 9 O -0.1182 -0.1733 -2.4872 0
M  V30 10 C 0.753 -0.3531 0.2383 0
M  V30 11 C -1.3993 -1.6982 -0.2285 0
M  V30 12 C 1.4406 -1.5557 0.5243 0
M  V30 13 C 1.4702 0.8602 0.3297 0
M  V30 14 C 2.7911 -1.5355 0.8863 0
M  V30 15 C 2.8193 0.8716 0.6922 0
M  V30 16 C 3.4793 -0.3249 0.9702 0
M  V30 17 H -2.919 2.0515 1.2622 0
M  V30 18 H -1.8142 1.7076 -2.8404 0
M  V30 19 H -1.3688 -2.2026 0.7616 0
M  V30 20 H -0.9 -2.3485 -0.9791 0
M  V30 21 H -2.4669 -1.5988 -0.5243 0
M  V30 22 H 0.9523 -2.5176 0.4734 0
M  V30 23 H 0.9788 1.8023 0.1185 0
M  V30 24 H 3.3057 -2.4629 1.1027 0
M  V30 25 H 3.3535 1.8107 0.7573 0
M  V30 26 H 4.5245 -0.3143 1.2508 0
M  V30 END ATOM
M  V30 BEGIN BOND
M  V30 1 2 1 2
M  V30 2 1 2 3
M  V30 3 1 2 4
M  V30 4 1 3 5
M  V30 5 1 4 6
M  V30 6 2 5 7
M  V30 7 1 5 8
M  V30 8 2 6 9
M  V30 9 1 8 10
M  V30 10 1 8 11
M  V30 11 2 10 12
M  V30 12 1 10 13
M  V30 13 1 12 14
M  V30 14 2 13 15
M  V30 15 2 14 16
M  V30 16 1 6 8
M  V30 17 1 15 16
M  V30 18 1 3 17
M  V30 19 1 4 18
M  V30 20 1 11 19
M  V30 21 1 11 20
M  V30 22 1 11 21
M  V30 23 1 12 22
M  V30 24 1 13 23
M  V30 25 1 14 24
M  V30 26 1 15 25
M  V30 27 1 16 26
M  V30 END BOND
M  V30 END CTAB
M  END
>  <Structure No>
3265

>  <LogS>
-2.4581

>  <MMFF94 Energy>
-76.068

$$$$
Compound 3266
Actelion Java MolfileCreator 2.0

  0  0  0  0  0  0              0 V3000
M  V30 BEGIN CTAB
M  V30 COUNTS 38 41 0 0 0
M  V30 BEGIN ATOM
M  V30 1 O -0.4049 2.7557 -3.0803 0
M  V30 2 C -0.2752 2.1046 -2.011 0
M  V30 3 O -0.2577 0.7186 -1.9361 0
M  V30 4 C -0.1139 2.6612 -0.6955 0
M  V30 5 C -0.0985 0.2837 -0.5747 0
M  V30 6 C -0.0031 1.6017 0.176 0
M  V30 7 C -0.0432 3.9866 -0.271 0
M  V30 8 C -1.3211 -0.5626 -0.2143 0
M  V30 9 C 1.2104 -0.4832 -0.3976 0
M  V30 10 C 0.1988 1.8284 1.543 0
M  V30 11 C 0.1487 4.2302 1.0985 0
M  V30 12 C -1.4488 -1.8495 -0.7748 0
M  V30 13 C -2.3769 -0.0734 0.5862 0
M  V30 14 C 1.4243 -1.2723 0.7511 0
M  V30 15 C 2.2597 -0.3546 -1.3302 0
M  V30 16 C 0.2701 3.155 2.0022 0
M  V30 17 C -2.5661 -2.6426 -0.5002 0
M  V30 18 C -3.4928 -0.8707 0.8578 0
M  V30 19 C 2.6354 -1.9433 0.9399 0
M  V30 20 C 3.4696 -1.0275 -1.137 0
M  V30 21 C -3.5894 -2.1561 0.3207 0
M  V30 22 C 3.6593 -1.8256 -0.0027 0
M  V30 23 O -4.7072 -2.9382 0.6028 0
M  V30 24 O 4.8611 -2.5009 0.1984 0
M  V30 25 H -0.1294 4.8044 -0.9747 0
M  V30 26 H 0.2898 1.0035 2.2364 0
M  V30 27 H 0.2074 5.2482 1.4613 0
M  V30 28 H -0.6778 -2.2418 -1.4264 0
M  V30 29 H -2.356 0.9244 1.0009 0
M  V30 30 H 0.6513 -1.3709 1.5029 0
M  V30 31 H 2.1515 0.2683 -2.2083 0
M  V30 32 H 0.4203 3.3519 3.0557 0
M  V30 33 H -2.6376 -3.6331 -0.9314 0
M  V30 34 H -4.2891 -0.4843 1.4817 0
M  V30 35 H 2.7797 -2.5522 1.8234 0
M  V30 36 H 4.2618 -0.9226 -1.8675 0
M  V30 37 H -4.8074 -3.8738 0.2266 0
M  V30 38 H 5.6232 -2.4345 -0.466 0
M  V30 END ATOM
M  V30 BEGIN BOND
M  V30 1 2 1 2
M  V30 2 1 2 3
M  V30 3 1 2 4
M  V30 4 1 3 5
M  V30 5 2 4 6
M  V30 6 1 4 7
M  V30 7 1 5 8
M  V30 8 1 5 9
M  V30 9 1 6 10
M  V30 10 2 7 11
M  V30 11 2 8 12
M  V30 12 1 8 13
M  V30 13 2 9 14
M  V30 14 1 9 15
M  V30 15 2 10 16
M  V30 16 1 12 17
M  V30 17 2 13 18
M  V30 18 1 14 19
M  V30 19 2 15 20
M  V30 20 2 17 21
M  V30 21 2 19 22
M  V30 22 1 21 23
M  V30 23 1 22 24
M  V30 24 1 5 6
M  V30 25 1 11 16
M  V30 26 1 18 21
M  V30 27 1 20 22
M  V30 28 1 7 25
M  V30 29 1 10 26
M  V30 30 1 11 27
M  V30 31 1 12 28
M  V30 32 1 13 29
M  V30 33 1 14 30
M  V30 34 1 15 31
M  V30 35 1 16 32
M  V30 36 1 17 33
M  V30 37 1 18 34
M  V30 38 1 19 35
M  V30 39 1 20 36
M  V30 40 1 23 37
M  V30 41 1 24 38
M  V30 END BOND
M  V30 END CTAB
M  END
>  <Structure No>
3266

>  <LogS>
-2.9008

>  <MMFF94 Energy>
69.622

$$$$
Compound 3267
Actelion Java MolfileCreator 2.0

  0  0  0  0  0  0              0 V3000
M  V30 BEGIN CTAB
M  V30 COUNTS 32 32 0 0 0
M  V30 BEGIN ATOM
M  V30 1 O -1.5122 -4.063 1.6714 0
M  V30 2 C -1.4012 -2.9287 1.1356 0
M  V30 3 N -1.8051 -1.7608 1.8431 0
M  V30 4 N -0.9029 -2.8112 -0.1924 0
M  V30 5 C -1.6202 -0.4579 1.2798 0
M  V30 6 C -0.7546 -1.5269 -0.8037 0
M  V30 7 O -2.0923 0.5335 1.8988 0
M  V30 8 C -0.758 -0.2475 0.0326 0
M  V30 9 O -0.5405 -1.4732 -2.046 0
M  V30 10 C -1.3598 0.9155 -0.8304 0
M  V30 11 C 0.6945 0.0472 0.5277 0
M  V30 12 C -1.2449 2.2896 -0.2114 0
M  V30 13 C 1.7746 0.2224 -0.5826 0
M  V30 14 C -2.3207 3.0102 0.1198 0
M  V30 15 C 2.7338 1.3695 -0.2346 0
M  V30 16 C 2.5829 -1.0688 -0.7906 0
M  V30 17 H -2.2649 -1.8588 2.7764 0
M  V30 18 H -0.7087 -3.6744 -0.7482 0
M  V30 19 H -0.8623 0.9766 -1.8197 0
M  V30 20 H -2.4261 0.6803 -1.0492 0
M  V30 21 H 1.0115 -0.7683 1.2171 0
M  V30 22 H 0.6653 0.9508 1.1754 0
M  V30 23 H -0.2624 2.7246 -0.0638 0
M  V30 24 H 1.3015 0.4825 -1.5505 0
M  V30 25 H -2.1992 4.0009 0.5456 0
M  V30 26 H -3.3243 2.6225 -0.0249 0
M  V30 27 H 3.2445 1.1726 0.7326 0
M  V30 28 H 2.1767 2.327 -0.1575 0
M  V30 29 H 3.5015 1.4861 -1.0292 0
M  V30 30 H 1.9195 -1.9175 -1.0503 0
M  V30 31 H 3.1458 -1.3315 0.131 0
M  V30 32 H 3.3069 -0.9367 -1.6228 0
M  V30 END ATOM
M  V30 BEGIN BOND
M  V30 1 2 1 2
M  V30 2 1 2 3
M  V30 3 1 2 4
M  V30 4 1 3 5
M  V30 5 1 4 6
M  V30 6 2 5 7
M  V30 7 1 5 8
M  V30 8 2 6 9
M  V30 9 1 8 10
M  V30 10 1 8 11
M  V30 11 1 10 12
M  V30 12 1 11 13
M  V30 13 2 12 14
M  V30 14 1 13 15
M  V30 15 1 13 16
M  V30 16 1 6 8
M  V30 17 1 3 17
M  V30 18 1 4 18
M  V30 19 1 10 19
M  V30 20 1 10 20
M  V30 21 1 11 21
M  V30 22 1 11 22
M  V30 23 1 12 23
M  V30 24 1 13 24
M  V30 25 1 14 25
M  V30 26 1 14 26
M  V30 27 1 15 27
M  V30 28 1 15 28
M  V30 29 1 15 29
M  V30 30 1 16 30
M  V30 31 1 16 31
M  V30 32 1 16 32
M  V30 END BOND
M  V30 END CTAB
M  END
>  <Structure No>
3267

>  <LogS>
-2.1193

>  <MMFF94 Energy>
-113.55

$$$$
Compound 3268
Actelion Java MolfileCreator 2.0

  0  0  0  0  0  0              0 V3000
M  V30 BEGIN CTAB
M  V30 COUNTS 33 35 0 0 0
M  V30 BEGIN ATOM
M  V30 1 Cl 4.7735 -0.7526 -1.8404 0
M  V30 2 C 3.1167 -0.932 -1.2724 0
M  V30 3 C 2.4378 0.1104 -0.6113 0
M  V30 4 C 2.4738 -2.1542 -1.4866 0
M  V30 5 S 3.2272 1.6633 -0.3059 0
M  V30 6 C 1.1135 -0.0895 -0.1918 0
M  V30 7 C 1.1581 -2.3472 -1.0637 0
M  V30 8 O 3.5656 2.3137 -1.6177 0
M  V30 9 O 4.4859 1.4395 0.4845 0
M  V30 10 N 2.1876 2.7189 0.5885 0
M  V30 11 C 0.4488 -1.3077 -0.435 0
M  V30 12 C -0.9754 -1.5221 0.068 0 CFG=1
M  V30 13 O -1.5849 -2.6508 -0.5095 0
M  V30 14 N -0.9602 -1.6821 1.5264 0
M  V30 15 C -1.8548 -0.3008 -0.1296 0
M  V30 16 C -1.7601 -0.6624 2.11 0
M  V30 17 C -2.3047 0.1838 1.0802 0
M  V30 18 C -2.2042 0.3364 -1.3238 0
M  V30 19 O -1.9483 -0.5346 3.3483 0
M  V30 20 C -3.1174 1.3123 1.1713 0
M  V30 21 C -3.0252 1.4757 -1.2627 0
M  V30 22 C -3.4806 1.9613 -0.02 0
M  V30 23 H 2.9975 -2.9629 -1.9804 0
M  V30 24 H 0.5935 0.7036 0.3273 0
M  V30 25 H 0.6999 -3.3133 -1.2296 0
M  V30 26 H 2.6832 3.6343 0.6755 0
M  V30 27 H 2.111 2.3278 1.5544 0
M  V30 28 H -1.6605 -2.4829 -1.4857 0
M  V30 29 H -0.4672 -2.4384 2.0514 0
M  V30 30 H -1.8459 -0.0342 -2.2751 0
M  V30 31 H -3.4564 1.6811 2.1307 0
M  V30 32 H -3.3068 1.9848 -2.1753 0
M  V30 33 H -4.1104 2.8408 0.0166 0
M  V30 END ATOM
M  V30 BEGIN BOND
M  V30 1 1 1 2
M  V30 2 2 2 3
M  V30 3 1 2 4
M  V30 4 1 3 5
M  V30 5 1 3 6
M  V30 6 2 4 7
M  V30 7 2 5 8
M  V30 8 2 5 9
M  V30 9 1 5 10
M  V30 10 2 6 11
M  V30 11 1 11 12
M  V30 12 1 12 13
M  V30 13 1 12 14
M  V30 14 1 12 15
M  V30 15 1 14 16
M  V30 16 2 15 17
M  V30 17 1 15 18
M  V30 18 2 16 19
M  V30 19 1 17 20
M  V30 20 2 18 21
M  V30 21 2 20 22
M  V30 22 1 7 11
M  V30 23 1 16 17
M  V30 24 1 21 22
M  V30 25 1 4 23
M  V30 26 1 6 24
M  V30 27 1 7 25
M  V30 28 1 10 26
M  V30 29 1 10 27
M  V30 30 1 13 28
M  V30 31 1 14 29
M  V30 32 1 18 30
M  V30 33 1 20 31
M  V30 34 1 21 32
M  V30 35 1 22 33
M  V30 END BOND
M  V30 BEGIN COLLECTION
M  V30 MDLV30/STEABS ATOMS=(1 12)
M  V30 END COLLECTION
M  V30 END CTAB
M  END
>  <Structure No>
3268

>  <LogS>
-3.4507

>  <MMFF94 Energy>
-105.43

$$$$
Compound 3269
Actelion Java MolfileCreator 2.0

  0  0  0  0  0  0              0 V3000
M  V30 BEGIN CTAB
M  V30 COUNTS 18 17 0 0 0
M  V30 BEGIN ATOM
M  V30 1 O -0.4705 2.3543 1.0197 0
M  V30 2 N 0.1023 1.7252 0.1049 0 CHG=1
M  V30 3 O 0.5942 2.4373 -0.9659 0 CHG=-1
M  V30 4 C -0.0444 0.2622 0.0076 0
M  V30 5 C -1.3658 -0.0442 -0.7372 0
M  V30 6 C 1.1521 -0.3333 -0.7796 0
M  V30 7 C -0.0831 -0.357 1.4244 0
M  V30 8 O -1.5544 -1.4257 -0.907 0
M  V30 9 O 2.3748 0.0663 -0.2164 0
M  V30 10 H -1.3412 0.4287 -1.7426 0
M  V30 11 H -2.2294 0.4066 -0.1937 0
M  V30 12 H 1.0848 -1.446 -0.8209 0
M  V30 13 H 1.1248 0.0232 -1.8318 0
M  V30 14 H -1.0032 -0.0464 1.9652 0
M  V30 15 H 0.7937 -0.0228 2.0191 0
M  V30 16 H -0.0686 -1.4669 1.3756 0
M  V30 17 H -2.0532 -1.7499 -0.1123 0
M  V30 18 H 2.6191 -0.6169 0.4609 0
M  V30 END ATOM
M  V30 BEGIN BOND
M  V30 1 2 1 2
M  V30 2 1 2 3
M  V30 3 1 2 4
M  V30 4 1 4 5
M  V30 5 1 4 6
M  V30 6 1 4 7
M  V30 7 1 5 8
M  V30 8 1 6 9
M  V30 9 1 5 10
M  V30 10 1 5 11
M  V30 11 1 6 12
M  V30 12 1 6 13
M  V30 13 1 7 14
M  V30 14 1 7 15
M  V30 15 1 7 16
M  V30 16 1 8 17
M  V30 17 1 9 18
M  V30 END BOND
M  V30 END CTAB
M  END
>  <Structure No>
3269

>  <LogS>
0.7724

>  <MMFF94 Energy>
20.761

$$$$
Compound 3270
Actelion Java MolfileCreator 2.0

  0  0  0  0  0  0              0 V3000
M  V30 BEGIN CTAB
M  V30 COUNTS 21 20 0 0 0
M  V30 BEGIN ATOM
M  V30 1 O -0.6142 -0.7678 1.6898 0
M  V30 2 C -0.0335 -0.3549 0.4739 0
M  V30 3 C -0.7989 0.8826 -0.0829 0
M  V30 4 C 1.4607 -0.0058 0.7441 0
M  V30 5 C -0.1349 -1.5395 -0.5076 0
M  V30 6 C -2.3176 0.6928 -0.1426 0
M  V30 7 C 2.2692 0.4042 -0.4918 0
M  V30 8 H -0.5796 -0.0023 2.3225 0
M  V30 9 H -0.4445 1.1269 -1.1072 0
M  V30 10 H -0.5901 1.7658 0.56 0
M  V30 11 H 1.5176 0.824 1.4824 0
M  V30 12 H 1.9603 -0.8829 1.211 0
M  V30 13 H 0.544 -2.362 -0.1961 0
M  V30 14 H 0.1266 -1.232 -1.5421 0
M  V30 15 H -1.1668 -1.949 -0.5202 0
M  V30 16 H -2.7912 1.6342 -0.4929 0
M  V30 17 H -2.5874 -0.1123 -0.8564 0
M  V30 18 H -2.7268 0.4523 0.8608 0
M  V30 19 H 3.3137 0.6237 -0.1855 0
M  V30 20 H 2.3006 -0.4144 -1.2393 0
M  V30 21 H 1.8529 1.3217 -0.9553 0
M  V30 END ATOM
M  V30 BEGIN BOND
M  V30 1 1 1 2
M  V30 2 1 2 3
M  V30 3 1 2 4
M  V30 4 1 2 5
M  V30 5 1 3 6
M  V30 6 1 4 7
M  V30 7 1 1 8
M  V30 8 1 3 9
M  V30 9 1 3 10
M  V30 10 1 4 11
M  V30 11 1 4 12
M  V30 12 1 5 13
M  V30 13 1 5 14
M  V30 14 1 5 15
M  V30 15 1 6 16
M  V30 16 1 6 17
M  V30 17 1 6 18
M  V30 18 1 7 19
M  V30 19 1 7 20
M  V30 20 1 7 21
M  V30 END BOND
M  V30 END CTAB
M  END
>  <Structure No>
3270

>  <LogS>
-0.38

>  <MMFF94 Energy>
10.095

$$$$
Compound 3271
Actelion Java MolfileCreator 2.0

  0  0  0  0  0  0              0 V3000
M  V30 BEGIN CTAB
M  V30 COUNTS 62 61 0 0 0
M  V30 BEGIN ATOM
M  V30 1 O -1.0267 -1.1057 -1.6589 0
M  V30 2 C -0.3744 -1.3012 -0.5954 0
M  V30 3 O -0.0329 -2.6046 -0.2158 0
M  V30 4 C 0.0354 -0.1174 0.2678 0
M  V30 5 C -0.4242 -3.7682 -0.944 0
M  V30 6 O 1.0558 -0.5046 1.2085 0
M  V30 7 C -1.1936 0.4527 1.0365 0
M  V30 8 C 0.6591 0.9887 -0.627 0
M  V30 9 C -1.926 -4.0468 -0.8011 0
M  V30 10 C 0.932 -1.416 2.2698 0
M  V30 11 C -2.2458 1.0489 0.1457 0
M  V30 12 C 1.94 0.5415 -1.2677 0
M  V30 13 C -2.3407 -4.2125 0.666 0
M  V30 14 O -0.1545 -2.0083 2.507 0
M  V30 15 C 2.1201 -1.6879 3.1282 0
M  V30 16 O -3.1916 0.329 -0.2774 0
M  V30 17 O -2.1526 2.3935 -0.2261 0
M  V30 18 O 1.9199 0.0197 -2.4165 0
M  V30 19 O 3.1388 0.6644 -0.5614 0
M  V30 20 C -3.8196 -4.5693 0.7823 0
M  V30 21 C -3.0583 2.999 -1.1424 0
M  V30 22 C 4.3816 0.1851 -1.0643 0
M  V30 23 C -2.6479 4.4545 -1.3728 0
M  V30 24 C 5.4939 0.4478 -0.0497 0
M  V30 25 C -3.4804 5.1364 -2.4691 0
M  V30 26 C 5.2437 -0.2972 1.268 0
M  V30 27 C -4.9179 5.4164 -2.0297 0
M  V30 28 C 6.3798 -0.0623 2.2595 0
M  V30 29 H 0.1467 -4.6376 -0.5545 0
M  V30 30 H -0.1632 -3.6478 -2.0177 0
M  V30 31 H -1.6777 -0.3399 1.6424 0
M  V30 32 H -0.8491 1.2352 1.7471 0
M  V30 33 H -0.0465 1.3063 -1.4253 0
M  V30 34 H 0.8771 1.8863 -0.0073 0
M  V30 35 H -2.5072 -3.2187 -1.2606 0
M  V30 36 H -2.1631 -4.9783 -1.3598 0
M  V30 37 H -1.7365 -5.016 1.1408 0
M  V30 38 H -2.1628 -3.2634 1.2153 0
M  V30 39 H 1.8846 -2.4616 3.8916 0
M  V30 40 H 2.4278 -0.7515 3.6427 0
M  V30 41 H 2.9582 -2.0505 2.4951 0
M  V30 42 H -4.4453 -3.7728 0.3252 0
M  V30 43 H -4.096 -4.6667 1.8533 0
M  V30 44 H -4.0249 -5.5349 0.2729 0
M  V30 45 H -4.087 2.952 -0.7241 0
M  V30 46 H -3.029 2.4452 -2.107 0
M  V30 47 H 4.3098 -0.9045 -1.2716 0
M  V30 48 H 4.6247 0.7122 -2.0119 0
M  V30 49 H -2.7303 5.0234 -0.4213 0
M  V30 50 H -1.5806 4.4726 -1.6841 0
M  V30 51 H 5.5591 1.541 0.1432 0
M  V30 52 H 6.46 0.1138 -0.4876 0
M  V30 53 H -2.9987 6.1055 -2.7251 0
M  V30 54 H -3.4868 4.5118 -3.3889 0
M  V30 55 H 4.294 0.0559 1.724 0
M  V30 56 H 5.1571 -1.3885 1.0725 0
M  V30 57 H -4.9274 6.022 -1.0982 0
M  V30 58 H -5.4417 5.9862 -2.8259 0
M  V30 59 H -5.4706 4.4687 -1.8612 0
M  V30 60 H 7.3384 -0.4393 1.8448 0
M  V30 61 H 6.4777 1.0219 2.484 0
M  V30 62 H 6.1647 -0.6033 3.2058 0
M  V30 END ATOM
M  V30 BEGIN BOND
M  V30 1 2 1 2
M  V30 2 1 2 3
M  V30 3 1 2 4
M  V30 4 1 3 5
M  V30 5 1 4 6
M  V30 6 1 4 7
M  V30 7 1 4 8
M  V30 8 1 5 9
M  V30 9 1 6 10
M  V30 10 1 7 11
M  V30 11 1 8 12
M  V30 12 1 9 13
M  V30 13 2 10 14
M  V30 14 1 10 15
M  V30 15 2 11 16
M  V30 16 1 11 17
M  V30 17 2 12 18
M  V30 18 1 12 19
M  V30 19 1 13 20
M  V30 20 1 17 21
M  V30 21 1 19 22
M  V30 22 1 21 23
M  V30 23 1 22 24
M  V30 24 1 23 25
M  V30 25 1 24 26
M  V30 26 1 25 27
M  V30 27 1 26 28
M  V30 28 1 5 29
M  V30 29 1 5 30
M  V30 30 1 7 31
M  V30 31 1 7 32
M  V30 32 1 8 33
M  V30 33 1 8 34
M  V30 34 1 9 35
M  V30 35 1 9 36
M  V30 36 1 13 37
M  V30 37 1 13 38
M  V30 38 1 15 39
M  V30 39 1 15 40
M  V30 40 1 15 41
M  V30 41 1 20 42
M  V30 42 1 20 43
M  V30 43 1 20 44
M  V30 44 1 21 45
M  V30 45 1 21 46
M  V30 46 1 22 47
M  V30 47 1 22 48
M  V30 48 1 23 49
M  V30 49 1 23 50
M  V30 50 1 24 51
M  V30 51 1 24 52
M  V30 52 1 25 53
M  V30 53 1 25 54
M  V30 54 1 26 55
M  V30 55 1 26 56
M  V30 56 1 27 57
M  V30 57 1 27 58
M  V30 58 1 27 59
M  V30 59 1 28 60
M  V30 60 1 28 61
M  V30 61 1 28 62
M  V30 END BOND
M  V30 END CTAB
M  END
>  <Structure No>
3271

>  <LogS>
-4.9058

>  <MMFF94 Energy>
-61.502

$$$$
Compound 3272
Actelion Java MolfileCreator 2.0

  0  0  0  0  0  0              0 V3000
M  V30 BEGIN CTAB
M  V30 COUNTS 39 38 0 0 0
M  V30 BEGIN ATOM
M  V30 1 O 0.7891 2.2108 0.947 0
M  V30 2 C 0.5726 1.4792 -0.0586 0
M  V30 3 O 1.2073 1.7476 -1.2784 0
M  V30 4 C -0.3877 0.3137 0.0402 0
M  V30 5 C 2.0917 2.8476 -1.4789 0
M  V30 6 O -0.7589 0.1515 1.3929 0
M  V30 7 C 0.3059 -0.9731 -0.4925 0
M  V30 8 C -1.6369 0.6687 -0.8081 0
M  V30 9 C 1.3082 4.1478 -1.6171 0
M  V30 10 C 1.5419 -1.3132 0.2869 0
M  V30 11 C -2.7009 -0.3889 -0.7729 0
M  V30 12 O 1.4492 -2.0018 1.3397 0
M  V30 13 O 2.7803 -0.8204 -0.1404 0
M  V30 14 O -2.7518 -1.2579 -1.6862 0
M  V30 15 O -3.6134 -0.414 0.2857 0
M  V30 16 C 4.0078 -1.0884 0.5337 0
M  V30 17 C -4.6272 -1.4068 0.4005 0
M  V30 18 C 4.48 -2.5093 0.2472 0
M  V30 19 C -5.4301 -1.1706 1.6697 0
M  V30 20 H 2.6634 2.6743 -2.4146 0
M  V30 21 H 2.8174 2.9195 -0.6397 0
M  V30 22 H -1.2495 -0.7065 1.4841 0
M  V30 23 H 0.5785 -0.8459 -1.5629 0
M  V30 24 H -0.3901 -1.8379 -0.4386 0
M  V30 25 H -1.3401 0.845 -1.8663 0
M  V30 26 H -2.0808 1.6169 -0.4319 0
M  V30 27 H 0.7587 4.3706 -0.6787 0
M  V30 28 H 0.5822 4.0649 -2.4534 0
M  V30 29 H 2.0073 4.9844 -1.8281 0
M  V30 30 H 3.8908 -0.9326 1.6284 0
M  V30 31 H 4.7756 -0.3761 0.1643 0
M  V30 32 H -4.1616 -2.4157 0.4439 0
M  V30 33 H -5.3047 -1.3544 -0.479 0
M  V30 34 H 5.4658 -2.6791 0.7288 0
M  V30 35 H 3.7553 -3.2473 0.6498 0
M  V30 36 H 4.583 -2.6607 -0.8482 0
M  V30 37 H -6.2237 -1.9424 1.7602 0
M  V30 38 H -4.7643 -1.2313 2.5568 0
M  V30 39 H -5.9045 -0.1666 1.6375 0
M  V30 END ATOM
M  V30 BEGIN BOND
M  V30 1 2 1 2
M  V30 2 1 2 3
M  V30 3 1 2 4
M  V30 4 1 3 5
M  V30 5 1 4 6
M  V30 6 1 4 7
M  V30 7 1 4 8
M  V30 8 1 5 9
M  V30 9 1 7 10
M  V30 10 1 8 11
M  V30 11 2 10 12
M  V30 12 1 10 13
M  V30 13 2 11 14
M  V30 14 1 11 15
M  V30 15 1 13 16
M  V30 16 1 15 17
M  V30 17 1 16 18
M  V30 18 1 17 19
M  V30 19 1 5 20
M  V30 20 1 5 21
M  V30 21 1 6 22
M  V30 22 1 7 23
M  V30 23 1 7 24
M  V30 24 1 8 25
M  V30 25 1 8 26
M  V30 26 1 9 27
M  V30 27 1 9 28
M  V30 28 1 9 29
M  V30 29 1 16 30
M  V30 30 1 16 31
M  V30 31 1 17 32
M  V30 32 1 17 33
M  V30 33 1 18 34
M  V30 34 1 18 35
M  V30 35 1 18 36
M  V30 36 1 19 37
M  V30 37 1 19 38
M  V30 38 1 19 39
M  V30 END BOND
M  V30 END CTAB
M  END
>  <Structure No>
3272

>  <LogS>
-0.6285

>  <MMFF94 Energy>
-24.488

$$$$
Compound 3273
Actelion Java MolfileCreator 2.0

  0  0  0  0  0  0              0 V3000
M  V30 BEGIN CTAB
M  V30 COUNTS 23 22 0 0 0
M  V30 BEGIN ATOM
M  V30 1 O -0.7725 1.4683 -2.1644 0
M  V30 2 C 0.2864 1.0354 -1.3489 0
M  V30 3 C -0.1801 -0.0346 -0.3188 0
M  V30 4 C -0.8853 -1.1861 -1.0944 0
M  V30 5 C -1.1823 0.6157 0.6762 0
M  V30 6 C 1.063 -0.623 0.4261 0
M  V30 7 O -1.3128 -2.2095 -0.2322 0
M  V30 8 O -1.4808 -0.2534 1.7356 0
M  V30 9 C 1.8914 0.3894 1.2261 0
M  V30 10 H -1.2119 2.2241 -1.694 0
M  V30 11 H 1.0694 0.601 -2.0072 0
M  V30 12 H 0.7467 1.9105 -0.8365 0
M  V30 13 H -1.7813 -0.7967 -1.6237 0
M  V30 14 H -0.2059 -1.5932 -1.8808 0
M  V30 15 H -0.7604 1.5612 1.084 0
M  V30 16 H -2.125 0.8796 0.1457 0
M  V30 17 H 1.738 -1.1101 -0.3117 0
M  V30 18 H 0.7411 -1.4176 1.133 0
M  V30 19 H -0.6093 -2.9098 -0.2376 0
M  V30 20 H -2.1157 0.2332 2.3229 0
M  V30 21 H 2.7079 -0.1474 1.7536 0
M  V30 22 H 1.2729 0.8994 1.9921 0
M  V30 23 H 2.3627 1.1394 0.5594 0
M  V30 END ATOM
M  V30 BEGIN BOND
M  V30 1 1 1 2
M  V30 2 1 2 3
M  V30 3 1 3 4
M  V30 4 1 3 5
M  V30 5 1 3 6
M  V30 6 1 4 7
M  V30 7 1 5 8
M  V30 8 1 6 9
M  V30 9 1 1 10
M  V30 10 1 2 11
M  V30 11 1 2 12
M  V30 12 1 4 13
M  V30 13 1 4 14
M  V30 14 1 5 15
M  V30 15 1 5 16
M  V30 16 1 6 17
M  V30 17 1 6 18
M  V30 18 1 7 19
M  V30 19 1 8 20
M  V30 20 1 9 21
M  V30 21 1 9 22
M  V30 22 1 9 23
M  V30 END BOND
M  V30 END CTAB
M  END
>  <Structure No>
3273

>  <LogS>
0.8723

>  <MMFF94 Energy>
15.212

$$$$
Compound 3274
Actelion Java MolfileCreator 2.0

  0  0  0  0  0  0              0 V3000
M  V30 BEGIN CTAB
M  V30 COUNTS 29 28 0 0 0
M  V30 BEGIN ATOM
M  V30 1 O -0.5754 -2.3032 -3.8683 0
M  V30 2 N -0.5197 -1.0584 -3.7843 0 CHG=1
M  V30 3 O -0.2782 -0.4367 -2.5752 0
M  V30 4 O -0.702 -0.2944 -4.9118 0 CHG=-1
M  V30 5 C -0.0816 -1.1746 -1.3705 0
M  V30 6 C 0.1692 -0.2245 -0.1706 0
M  V30 7 C 0.3409 -1.0921 1.1044 0
M  V30 8 C 1.4643 0.5863 -0.4398 0
M  V30 9 C -1.0319 0.7433 -0.0058 0
M  V30 10 O 0.4875 -0.2813 2.2667 0
M  V30 11 O 1.7345 1.4966 0.6238 0
M  V30 12 O -2.2407 0.0184 0.2106 0
M  V30 13 N 0.6589 -0.8325 3.5197 0 CHG=1
M  V30 14 N 2.8391 2.3249 0.6173 0 CHG=1
M  V30 15 N -3.4547 0.6528 0.3846 0 CHG=1
M  V30 16 O 0.7846 -0.0835 4.5085 0
M  V30 17 O 0.6938 -2.1975 3.6932 0 CHG=-1
M  V30 18 O 3.6507 2.308 -0.3315 0
M  V30 19 O 3.0482 3.18 1.6725 0 CHG=-1
M  V30 20 O -3.5397 1.8985 0.3582 0
M  V30 21 O -4.5864 -0.099 0.5898 0 CHG=-1
M  V30 22 H 0.7875 -1.8565 -1.5018 0
M  V30 23 H -0.9796 -1.8036 -1.183 0
M  V30 24 H 1.2366 -1.7437 1.001 0
M  V30 25 H -0.5444 -1.7518 1.2395 0
M  V30 26 H 1.3633 1.165 -1.384 0
M  V30 27 H 2.3278 -0.1056 -0.553 0
M  V30 28 H -1.1438 1.3727 -0.9157 0
M  V30 29 H -0.8639 1.4268 0.8546 0
M  V30 END ATOM
M  V30 BEGIN BOND
M  V30 1 2 1 2
M  V30 2 1 2 3
M  V30 3 1 2 4
M  V30 4 1 3 5
M  V30 5 1 5 6
M  V30 6 1 6 7
M  V30 7 1 6 8
M  V30 8 1 6 9
M  V30 9 1 7 10
M  V30 10 1 8 11
M  V30 11 1 9 12
M  V30 12 1 10 13
M  V30 13 1 11 14
M  V30 14 1 12 15
M  V30 15 2 13 16
M  V30 16 1 13 17
M  V30 17 2 14 18
M  V30 18 1 14 19
M  V30 19 2 15 20
M  V30 20 1 15 21
M  V30 21 1 5 22
M  V30 22 1 5 23
M  V30 23 1 7 24
M  V30 24 1 7 25
M  V30 25 1 8 26
M  V30 26 1 8 27
M  V30 27 1 9 28
M  V30 28 1 9 29
M  V30 END BOND
M  V30 END CTAB
M  END
>  <Structure No>
3274

>  <LogS>
-3.8664

>  <MMFF94 Energy>
-58.961

$$$$
Compound 3275
Actelion Java MolfileCreator 2.0

  0  0  0  0  0  0              0 V3000
M  V30 BEGIN CTAB
M  V30 COUNTS 25 24 0 0 0
M  V30 BEGIN ATOM
M  V30 1 O 2.5619 0.7758 -0.543 0
M  V30 2 C 2.2 -0.3074 -0.0102 0
M  V30 3 O 0.8524 -0.6984 -1.0E-4 0
M  V30 4 N 3.1723 -1.1432 0.6104 0
M  V30 5 C -0.2364 -0.0062 -0.6354 0
M  V30 6 C -1.5166 -0.877 -0.4778 0
M  V30 7 C -0.4443 1.4281 -0.0455 0
M  V30 8 C 0.0368 0.1004 -2.1547 0
M  V30 9 C -1.9308 -1.1635 0.9654 0
M  V30 10 C -0.0476 1.5964 1.4278 0
M  V30 11 H 4.1794 -0.868 0.6205 0
M  V30 12 H 2.8822 -2.0388 1.0617 0
M  V30 13 H -1.3448 -1.8585 -0.9731 0
M  V30 14 H -2.3746 -0.3962 -0.9981 0
M  V30 15 H 0.1511 2.1704 -0.6209 0
M  V30 16 H -1.5072 1.7325 -0.1659 0
M  V30 17 H 0.9028 0.7564 -2.3748 0
M  V30 18 H -0.8443 0.527 -2.6815 0
M  V30 19 H 0.2524 -0.903 -2.5805 0
M  V30 20 H -1.0702 -1.5336 1.5611 0
M  V30 21 H -2.3622 -0.2544 1.4328 0
M  V30 22 H -2.7184 -1.9464 0.9717 0
M  V30 23 H -0.4461 2.5613 1.8063 0
M  V30 24 H -0.4401 0.7855 2.0678 0
M  V30 25 H 1.0554 1.626 1.5355 0
M  V30 END ATOM
M  V30 BEGIN BOND
M  V30 1 2 1 2
M  V30 2 1 2 3
M  V30 3 1 2 4
M  V30 4 1 3 5
M  V30 5 1 5 6
M  V30 6 1 5 7
M  V30 7 1 5 8
M  V30 8 1 6 9
M  V30 9 1 7 10
M  V30 10 1 4 11
M  V30 11 1 4 12
M  V30 12 1 6 13
M  V30 13 1 6 14
M  V30 14 1 7 15
M  V30 15 1 7 16
M  V30 16 1 8 17
M  V30 17 1 8 18
M  V30 18 1 8 19
M  V30 19 1 9 20
M  V30 20 1 9 21
M  V30 21 1 9 22
M  V30 22 1 10 23
M  V30 23 1 10 24
M  V30 24 1 10 25
M  V30 END BOND
M  V30 END CTAB
M  END
>  <Structure No>
3275

>  <LogS>
-1.5599

>  <MMFF94 Energy>
-59.643

$$$$
Compound 3276
Actelion Java MolfileCreator 2.0

  0  0  0  0  0  0              0 V3000
M  V30 BEGIN CTAB
M  V30 COUNTS 42 41 0 0 0
M  V30 BEGIN ATOM
M  V30 1 O -2.1138 1.7221 -1.3305 0
M  V30 2 C -2.0013 0.5958 -0.7721 0
M  V30 3 O -0.7425 0.1052 -0.4173 0
M  V30 4 N -3.1626 -0.1971 -0.5001 0
M  V30 5 C 0.4631 0.8301 -0.6535 0
M  V30 6 C -4.52 0.2566 -0.82 0
M  V30 7 C 1.6966 0.0285 -0.1583 0 CFG=2
M  V30 8 C -5.4853 -0.9328 -0.8456 0
M  V30 9 C -4.9816 1.297 0.2048 0
M  V30 10 C 2.9832 0.8517 -0.455 0
M  V30 11 C 1.7372 -1.331 -0.9278 0
M  V30 12 C 1.557 -0.2164 1.362 0
M  V30 13 O 2.8913 2.1896 0.0414 0
M  V30 14 C 2.9286 -2.2466 -0.5854 0
M  V30 15 C 3.3561 2.592 1.2986 0
M  V30 16 C 2.8362 -3.5684 -1.3434 0
M  V30 17 O 3.9625 1.7851 2.0541 0
M  V30 18 N 3.1473 3.9353 1.7253 0
M  V30 19 H -3.0167 -1.1443 -0.0822 0
M  V30 20 H 0.5586 1.0352 -1.7431 0
M  V30 21 H 0.3992 1.8079 -0.1267 0
M  V30 22 H -4.5251 0.7182 -1.8323 0
M  V30 23 H -6.5046 -0.5944 -1.1304 0
M  V30 24 H -5.1436 -1.6792 -1.5938 0
M  V30 25 H -5.5326 -1.4207 0.1516 0
M  V30 26 H -4.3092 2.18 0.1872 0
M  V30 27 H -4.9735 0.8636 1.2279 0
M  V30 28 H -6.0104 1.6417 -0.034 0
M  V30 29 H 3.8878 0.3565 -0.0421 0
M  V30 30 H 3.1263 0.9119 -1.5554 0
M  V30 31 H 0.8004 -1.8951 -0.7227 0
M  V30 32 H 1.7575 -1.1279 -2.0219 0
M  V30 33 H 0.7398 -0.9394 1.5717 0
M  V30 34 H 1.3176 0.728 1.8953 0
M  V30 35 H 2.4977 -0.6183 1.7927 0
M  V30 36 H 3.8847 -1.7584 -0.8659 0
M  V30 37 H 2.946 -2.472 0.5009 0
M  V30 38 H 3.7081 -4.2064 -1.0868 0
M  V30 39 H 2.8401 -3.3864 -2.4393 0
M  V30 40 H 1.907 -4.1099 -1.0647 0
M  V30 41 H 2.6465 4.6103 1.1061 0
M  V30 42 H 3.4893 4.2543 2.659 0
M  V30 END ATOM
M  V30 BEGIN BOND
M  V30 1 2 1 2
M  V30 2 1 2 3
M  V30 3 1 2 4
M  V30 4 1 3 5
M  V30 5 1 4 6
M  V30 6 1 5 7
M  V30 7 1 6 8
M  V30 8 1 6 9
M  V30 9 1 7 10
M  V30 10 1 7 11
M  V30 11 1 7 12
M  V30 12 1 10 13
M  V30 13 1 11 14
M  V30 14 1 13 15
M  V30 15 1 14 16
M  V30 16 2 15 17
M  V30 17 1 15 18
M  V30 18 1 4 19
M  V30 19 1 5 20
M  V30 20 1 5 21
M  V30 21 1 6 22
M  V30 22 1 8 23
M  V30 23 1 8 24
M  V30 24 1 8 25
M  V30 25 1 9 26
M  V30 26 1 9 27
M  V30 27 1 9 28
M  V30 28 1 10 29
M  V30 29 1 10 30
M  V30 30 1 11 31
M  V30 31 1 11 32
M  V30 32 1 12 33
M  V30 33 1 12 34
M  V30 34 1 12 35
M  V30 35 1 14 36
M  V30 36 1 14 37
M  V30 37 1 16 38
M  V30 38 1 16 39
M  V30 39 1 16 40
M  V30 40 1 18 41
M  V30 41 1 18 42
M  V30 END BOND
M  V30 BEGIN COLLECTION
M  V30 MDLV30/STEABS ATOMS=(1 7)
M  V30 END COLLECTION
M  V30 END CTAB
M  END
>  <Structure No>
3276

>  <LogS>
-2.9384

>  <MMFF94 Energy>
-119.41

$$$$
Compound 3277
Actelion Java MolfileCreator 2.0

  0  0  0  0  0  0              0 V3000
M  V30 BEGIN CTAB
M  V30 COUNTS 29 28 0 0 0
M  V30 BEGIN ATOM
M  V30 1 O -1.6208 -1.6981 0.6172 0
M  V30 2 C -1.8883 -0.3413 0.3446 0 CFG=2
M  V30 3 C -2.7104 -0.2487 -0.9287 0
M  V30 4 C -0.557 0.4437 0.1837 0
M  V30 5 C -2.7018 0.2674 1.5046 0
M  V30 6 C -3.803 -0.9955 -1.1277 0
M  V30 7 C 0.3904 -0.1779 -0.8575 0
M  V30 8 C 1.679 0.6028 -0.9373 0
M  V30 9 C 2.7601 0.3715 -0.158 0
M  V30 10 C 3.9865 1.2352 -0.3018 0
M  V30 11 C 2.8036 -0.7616 0.8373 0
M  V30 12 H -1.0809 -1.7414 1.4501 0
M  V30 13 H -2.4158 0.4429 -1.7134 0
M  V30 14 H -0.0366 0.48 1.1652 0
M  V30 15 H -0.7771 1.496 -0.1058 0
M  V30 16 H -3.6375 -0.3079 1.6714 0
M  V30 17 H -2.9687 1.3236 1.283 0
M  V30 18 H -2.1153 0.2444 2.4483 0
M  V30 19 H -4.143 -1.7041 -0.3788 0
M  V30 20 H -4.3648 -0.8998 -2.0511 0
M  V30 21 H -0.0883 -0.1463 -1.8586 0
M  V30 22 H 0.589 -1.2453 -0.6283 0
M  V30 23 H 1.7072 1.4169 -1.6569 0
M  V30 24 H 4.8326 0.6166 -0.6678 0
M  V30 25 H 3.8296 2.0741 -1.0135 0
M  V30 26 H 4.2551 1.6655 0.6858 0
M  V30 27 H 1.9914 -0.6536 1.5846 0
M  V30 28 H 3.7711 -0.7702 1.3828 0
M  V30 29 H 2.7007 -1.734 0.3119 0
M  V30 END ATOM
M  V30 BEGIN BOND
M  V30 1 1 1 2
M  V30 2 1 2 3
M  V30 3 1 2 4
M  V30 4 1 2 5
M  V30 5 2 3 6
M  V30 6 1 4 7
M  V30 7 1 7 8
M  V30 8 2 8 9
M  V30 9 1 9 10
M  V30 10 1 9 11
M  V30 11 1 1 12
M  V30 12 1 3 13
M  V30 13 1 4 14
M  V30 14 1 4 15
M  V30 15 1 5 16
M  V30 16 1 5 17
M  V30 17 1 5 18
M  V30 18 1 6 19
M  V30 19 1 6 20
M  V30 20 1 7 21
M  V30 21 1 7 22
M  V30 22 1 8 23
M  V30 23 1 10 24
M  V30 24 1 10 25
M  V30 25 1 10 26
M  V30 26 1 11 27
M  V30 27 1 11 28
M  V30 28 1 11 29
M  V30 END BOND
M  V30 BEGIN COLLECTION
M  V30 MDLV30/STEABS ATOMS=(1 2)
M  V30 END COLLECTION
M  V30 END CTAB
M  END
>  <Structure No>
3277

>  <LogS>
-1.9871

>  <MMFF94 Energy>
18.576

$$$$
Compound 3278
Actelion Java MolfileCreator 2.0

  0  0  0  0  0  0              0 V3000
M  V30 BEGIN CTAB
M  V30 COUNTS 17 16 0 0 0
M  V30 BEGIN ATOM
M  V30 1 N 2.0288 -0.075 -0.3754 0 CHG=1
M  V30 2 C 0.7792 0.6889 -0.3547 0
M  V30 3 C -0.3259 -0.0206 0.4608 0
M  V30 4 C -1.5387 0.905 0.6189 0
M  V30 5 C -0.7581 -1.342 -0.1912 0
M  V30 6 H 2.3104 -0.3424 0.5955 0
M  V30 7 H 2.7826 0.5184 -0.791 0
M  V30 8 H 1.9234 -0.93 -0.9666 0
M  V30 9 H 0.9814 1.6851 0.0994 0
M  V30 10 H 0.4319 0.8625 -1.3979 0
M  V30 11 H 0.0635 -0.2428 1.4789 0
M  V30 12 H -2.3209 0.4132 1.2358 0
M  V30 13 H -1.241 1.8448 1.1311 0
M  V30 14 H -1.9704 1.1582 -0.3733 0
M  V30 15 H -1.6028 -1.7911 0.3735 0
M  V30 16 H -1.0803 -1.1749 -1.2414 0
M  V30 17 H 0.0745 -2.075 -0.1778 0
M  V30 END ATOM
M  V30 BEGIN BOND
M  V30 1 1 1 2
M  V30 2 1 2 3
M  V30 3 1 3 4
M  V30 4 1 3 5
M  V30 5 1 1 6
M  V30 6 1 1 7
M  V30 7 1 1 8
M  V30 8 1 2 9
M  V30 9 1 2 10
M  V30 10 1 3 11
M  V30 11 1 4 12
M  V30 12 1 4 13
M  V30 13 1 4 14
M  V30 14 1 5 15
M  V30 15 1 5 16
M  V30 16 1 5 17
M  V30 END BOND
M  V30 END CTAB
M  END
>  <Structure No>
3278

>  <LogS>
1.1359

>  <MMFF94 Energy>
2.6812

$$$$
Compound 3279
Actelion Java MolfileCreator 2.0

  0  0  0  0  0  0              0 V3000
M  V30 BEGIN CTAB
M  V30 COUNTS 9 8 0 0 0
M  V30 BEGIN ATOM
M  V30 1 Cl 0.0 1.8528 -1.263 0
M  V30 2 C 0.1645 0.3728 -0.3259 0
M  V30 3 C 1.3733 -0.1789 -0.176 0
M  V30 4 C -1.0578 -0.2676 0.2666 0
M  V30 5 Cl -1.0026 -0.1829 2.0461 0
M  V30 6 H 1.4995 -1.0991 0.3867 0
M  V30 7 H 2.2494 0.2859 -0.6167 0
M  V30 8 H -1.1244 -1.3294 -0.0526 0
M  V30 9 H -1.9707 0.2596 -0.0811 0
M  V30 END ATOM
M  V30 BEGIN BOND
M  V30 1 1 1 2
M  V30 2 2 2 3
M  V30 3 1 2 4
M  V30 4 1 4 5
M  V30 5 1 3 6
M  V30 6 1 3 7
M  V30 7 1 4 8
M  V30 8 1 4 9
M  V30 END BOND
M  V30 END CTAB
M  END
>  <Structure No>
3279

>  <LogS>
-1.7128

>  <MMFF94 Energy>
10.682

$$$$
Compound 3280
Actelion Java MolfileCreator 2.0

  0  0  0  0  0  0              0 V3000
M  V30 BEGIN CTAB
M  V30 COUNTS 10 9 0 0 0
M  V30 BEGIN ATOM
M  V30 1 Cl 0.8841 1.9298 0.6429 0
M  V30 2 C 1.2954 0.2657 0.1365 0
M  V30 3 C 0.0924 -0.5844 -0.1843 0
M  V30 4 O 0.2715 -1.7391 -0.5403 0
M  V30 5 C -1.3135 -0.0648 -0.0823 0
M  V30 6 H 1.9463 0.3264 -0.7605 0
M  V30 7 H 1.8709 -0.2145 0.9554 0
M  V30 8 H -1.5225 0.2531 0.9605 0
M  V30 9 H -1.4465 0.798 -0.7679 0
M  V30 10 H -2.0439 -0.8535 -0.363 0
M  V30 END ATOM
M  V30 BEGIN BOND
M  V30 1 1 1 2
M  V30 2 1 2 3
M  V30 3 2 3 4
M  V30 4 1 3 5
M  V30 5 1 2 6
M  V30 6 1 2 7
M  V30 7 1 5 8
M  V30 8 1 5 9
M  V30 9 1 5 10
M  V30 END BOND
M  V30 END CTAB
M  END
>  <Structure No>
3280

>  <LogS>
-0.012

>  <MMFF94 Energy>
16.081

$$$$
Compound 3281
Actelion Java MolfileCreator 2.0

  0  0  0  0  0  0              0 V3000
M  V30 BEGIN CTAB
M  V30 COUNTS 15 14 0 0 0
M  V30 BEGIN ATOM
M  V30 1 O -1.1965 -0.9721 -1.421 0
M  V30 2 C -0.4667 -0.5935 -0.2831 0 CFG=1
M  V30 3 C 0.6806 0.3353 -0.7232 0
M  V30 4 C -1.4053 0.0916 0.7172 0
M  V30 5 N 1.6062 0.6319 0.3723 0 CHG=1
M  V30 6 H -1.709 -1.7871 -1.1776 0
M  V30 7 H -0.0276 -1.5001 0.1951 0
M  V30 8 H 1.244 -0.1633 -1.5432 0
M  V30 9 H 0.2673 1.2844 -1.132 0
M  V30 10 H -2.2669 -0.5725 0.9408 0
M  V30 11 H -1.7928 1.0451 0.2992 0
M  V30 12 H -0.8801 0.295 1.6732 0
M  V30 13 H 1.9305 -0.2522 0.827 0
M  V30 14 H 2.438 1.1343 -0.0132 0
M  V30 15 H 1.1486 1.2511 1.0788 0
M  V30 END ATOM
M  V30 BEGIN BOND
M  V30 1 1 1 2
M  V30 2 1 2 3
M  V30 3 1 2 4
M  V30 4 1 3 5
M  V30 5 1 1 6
M  V30 6 1 2 7
M  V30 7 1 3 8
M  V30 8 1 3 9
M  V30 9 1 4 10
M  V30 10 1 4 11
M  V30 11 1 4 12
M  V30 12 1 5 13
M  V30 13 1 5 14
M  V30 14 1 5 15
M  V30 END BOND
M  V30 BEGIN COLLECTION
M  V30 MDLV30/STEABS ATOMS=(1 2)
M  V30 END COLLECTION
M  V30 END CTAB
M  END
>  <Structure No>
3281

>  <LogS>
1.1243

>  <MMFF94 Energy>
15.279

$$$$
Compound 3282
Actelion Java MolfileCreator 2.0

  0  0  0  0  0  0              0 V3000
M  V30 BEGIN CTAB
M  V30 COUNTS 11 10 0 0 0
M  V30 BEGIN ATOM
M  V30 1 Cl 1.413 1.8289 -0.4985 0
M  V30 2 C 1.25 0.0887 -0.1378 0
M  V30 3 Cl 2.6368 -0.4117 0.8625 0
M  V30 4 C -0.0575 -0.2023 0.607 0
M  V30 5 C -1.2842 0.0141 -0.2777 0
M  V30 6 H 1.2841 -0.4839 -1.089 0
M  V30 7 H -0.1317 0.4468 1.5066 0
M  V30 8 H -0.0556 -1.261 0.9461 0
M  V30 9 H -1.3606 1.0768 -0.5894 0
M  V30 10 H -1.2285 -0.6307 -1.1803 0
M  V30 11 H -2.2012 -0.251 0.2898 0
M  V30 END ATOM
M  V30 BEGIN BOND
M  V30 1 1 1 2
M  V30 2 1 2 3
M  V30 3 1 2 4
M  V30 4 1 4 5
M  V30 5 1 2 6
M  V30 6 1 4 7
M  V30 7 1 4 8
M  V30 8 1 5 9
M  V30 9 1 5 10
M  V30 10 1 5 11
M  V30 END BOND
M  V30 END CTAB
M  END
>  <Structure No>
3282

>  <LogS>
-1.6217

>  <MMFF94 Energy>
0.14983

$$$$
Compound 3283
Actelion Java MolfileCreator 2.0

  0  0  0  0  0  0              0 V3000
M  V30 BEGIN CTAB
M  V30 COUNTS 9 8 0 0 0
M  V30 BEGIN ATOM
M  V30 1 O 0.5366 1.3036 -0.5366 0
M  V30 2 C 0.1441 0.1923 -0.0897 0
M  V30 3 O 1.0653 -0.739 0.3905 0
M  V30 4 C -1.3145 -0.1103 -0.0303 0
M  V30 5 O 2.3827 -0.4852 0.3816 0
M  V30 6 H -1.7508 0.3486 0.881 0
M  V30 7 H -1.8254 0.2983 -0.9275 0
M  V30 8 H -1.4731 -1.2086 0.0031 0
M  V30 9 H 2.5231 0.1901 1.0941 0
M  V30 END ATOM
M  V30 BEGIN BOND
M  V30 1 2 1 2
M  V30 2 1 2 3
M  V30 3 1 2 4
M  V30 4 1 3 5
M  V30 5 1 4 6
M  V30 6 1 4 7
M  V30 7 1 4 8
M  V30 8 1 5 9
M  V30 END BOND
M  V30 END CTAB
M  END
>  <Structure No>
3283

>  <LogS>
1.1189

>  <MMFF94 Energy>
19.935

$$$$
Compound 3284
Actelion Java MolfileCreator 2.0

  0  0  0  0  0  0              0 V3000
M  V30 BEGIN CTAB
M  V30 COUNTS 7 6 0 0 0
M  V30 BEGIN ATOM
M  V30 1 Cl 1.6535 -0.3673 -1.194 0
M  V30 2 C 0.6049 -0.0202 0.2019 0
M  V30 3 Cl 0.9069 1.6394 0.7701 0
M  V30 4 C -0.8293 -0.1698 -0.1903 0
M  V30 5 O -1.5605 -1.0126 0.3929 0
M  V30 6 O -1.3643 0.6203 -1.2007 0 CHG=-1
M  V30 7 H 0.8566 -0.7276 1.0204 0
M  V30 END ATOM
M  V30 BEGIN BOND
M  V30 1 1 1 2
M  V30 2 1 2 3
M  V30 3 1 2 4
M  V30 4 2 4 5
M  V30 5 1 4 6
M  V30 6 1 2 7
M  V30 END BOND
M  V30 END CTAB
M  END
>  <Structure No>
3284

>  <LogS>
0.8896

>  <MMFF94 Energy>
81.873

$$$$
Compound 3285
Actelion Java MolfileCreator 2.0

  0  0  0  0  0  0              0 V3000
M  V30 BEGIN CTAB
M  V30 COUNTS 31 30 0 0 0
M  V30 BEGIN ATOM
M  V30 1 O 1.0257 1.7363 0.6311 0
M  V30 2 C 0.4618 1.1399 -0.3266 0
M  V30 3 N 1.2297 0.2916 -1.1957 0
M  V30 4 C -1.0229 1.3353 -0.5429 0 CFG=1
M  V30 5 C 2.6616 0.0675 -1.0076 0
M  V30 6 O -1.3163 1.2941 -1.918 0
M  V30 7 C -1.9145 0.3067 0.2322 0
M  V30 8 C 2.9042 -0.893 0.1583 0
M  V30 9 C -1.6947 -1.1508 -0.2589 0
M  V30 10 C -1.6494 0.3945 1.7542 0
M  V30 11 C -3.3988 0.6726 -0.0054 0
M  V30 12 C 4.369 -1.1286 0.3471 0
M  V30 13 O -0.4373 -1.6367 0.1248 0
M  V30 14 O 5.0405 -0.3731 1.0982 0
M  V30 15 O 5.0034 -2.1526 -0.3443 0 CHG=-1
M  V30 16 H 0.7661 -0.1551 -2.0185 0
M  V30 17 H -1.2797 2.3532 -0.1618 0
M  V30 18 H 3.1733 1.0385 -0.8274 0
M  V30 19 H 3.0838 -0.3741 -1.9369 0
M  V30 20 H -0.9599 2.1313 -2.3161 0
M  V30 21 H 2.4035 -1.8631 -0.0497 0
M  V30 22 H 2.4742 -0.4769 1.0947 0
M  V30 23 H -2.4768 -1.8136 0.1767 0
M  V30 24 H -1.7929 -1.1989 -1.3669 0
M  V30 25 H -1.823 1.4288 2.1225 0
M  V30 26 H -0.6054 0.1106 2.0024 0
M  V30 27 H -2.3256 -0.291 2.3093 0
M  V30 28 H -3.6642 0.5796 -1.0804 0
M  V30 29 H -4.0708 -5.0E-4 0.5699 0
M  V30 30 H -3.6045 1.717 0.3151 0
M  V30 31 H -0.363 -2.5488 -0.2591 0
M  V30 END ATOM
M  V30 BEGIN BOND
M  V30 1 2 1 2
M  V30 2 1 2 3
M  V30 3 1 2 4
M  V30 4 1 3 5
M  V30 5 1 4 6
M  V30 6 1 4 7
M  V30 7 1 5 8
M  V30 8 1 7 9
M  V30 9 1 7 10
M  V30 10 1 7 11
M  V30 11 1 8 12
M  V30 12 1 9 13
M  V30 13 2 12 14
M  V30 14 1 12 15
M  V30 15 1 3 16
M  V30 16 1 4 17
M  V30 17 1 5 18
M  V30 18 1 5 19
M  V30 19 1 6 20
M  V30 20 1 8 21
M  V30 21 1 8 22
M  V30 22 1 9 23
M  V30 23 1 9 24
M  V30 24 1 10 25
M  V30 25 1 10 26
M  V30 26 1 10 27
M  V30 27 1 11 28
M  V30 28 1 11 29
M  V30 29 1 11 30
M  V30 30 1 13 31
M  V30 END BOND
M  V30 BEGIN COLLECTION
M  V30 MDLV30/STEABS ATOMS=(1 4)
M  V30 END COLLECTION
M  V30 END CTAB
M  END
>  <Structure No>
3285

>  <LogS>
0.6591

>  <MMFF94 Energy>
6.9537

$$$$
Compound 3286
Actelion Java MolfileCreator 2.0

  0  0  0  0  0  0              0 V3000
M  V30 BEGIN CTAB
M  V30 COUNTS 20 20 0 0 0
M  V30 BEGIN ATOM
M  V30 1 O -1.9423 2.6715 -0.6471 0
M  V30 2 C -1.288 1.6338 -0.3662 0
M  V30 3 O 0.0672 1.6495 -0.1114 0
M  V30 4 C -1.873 0.2791 -0.293 0
M  V30 5 C 0.5661 0.3381 0.1057 0
M  V30 6 C -0.7215 -0.5229 0.3405 0 CFG=2
M  V30 7 C 1.3666 -0.0809 -1.1423 0
M  V30 8 C 1.4792 0.3375 1.34 0
M  V30 9 C -0.6398 -1.9485 -0.1477 0
M  V30 10 O -0.2753 -2.8589 0.642 0
M  V30 11 O -0.9057 -2.2662 -1.4749 0 CHG=-1
M  V30 12 H -2.7809 0.269 0.3482 0
M  V30 13 H -2.1186 -0.0617 -1.321 0
M  V30 14 H -0.9341 -0.5591 1.4343 0
M  V30 15 H 0.7099 -0.0909 -2.0382 0
M  V30 16 H 1.8134 -1.0891 -1.0076 0
M  V30 17 H 2.1893 0.6421 -1.3287 0
M  V30 18 H 0.9338 0.7281 2.2258 0
M  V30 19 H 1.8283 -0.6938 1.5611 0
M  V30 20 H 2.3639 0.9871 1.1673 0
M  V30 END ATOM
M  V30 BEGIN BOND
M  V30 1 2 1 2
M  V30 2 1 2 3
M  V30 3 1 2 4
M  V30 4 1 3 5
M  V30 5 1 4 6
M  V30 6 1 5 7
M  V30 7 1 5 8
M  V30 8 1 6 9
M  V30 9 2 9 10
M  V30 10 1 9 11
M  V30 11 1 5 6
M  V30 12 1 4 12
M  V30 13 1 4 13
M  V30 14 1 6 14
M  V30 15 1 7 15
M  V30 16 1 7 16
M  V30 17 1 7 17
M  V30 18 1 8 18
M  V30 19 1 8 19
M  V30 20 1 8 20
M  V30 END BOND
M  V30 BEGIN COLLECTION
M  V30 MDLV30/STEABS ATOMS=(1 6)
M  V30 END COLLECTION
M  V30 END CTAB
M  END
>  <Structure No>
3286

>  <LogS>
-1.2449

>  <MMFF94 Energy>
-18.981

$$$$
Compound 3287
Actelion Java MolfileCreator 2.0

  0  0  0  0  0  0              0 V3000
M  V30 BEGIN CTAB
M  V30 COUNTS 32 33 0 0 0
M  V30 BEGIN ATOM
M  V30 1 S 0.5825 -3.082 0.9988 0
M  V30 2 O 1.4278 -4.2351 1.4593 0
M  V30 3 O -0.6658 -3.6145 0.3528 0
M  V30 4 N 0.1393 -2.1169 2.3671 0 CHG=-1
M  V30 5 C 1.5071 -2.1138 -0.1445 0
M  V30 6 C -0.6297 -0.9179 2.2586 0
M  V30 7 C 2.4412 -1.1809 0.325 0
M  V30 8 C 1.3122 -2.2643 -1.5243 0
M  V30 9 S -1.2358 -0.264 0.8271 0
M  V30 10 N -0.949 -0.1577 3.3263 0
M  V30 11 C 3.1688 -0.3986 -0.5766 0
M  V30 12 C 2.0404 -1.4826 -2.4262 0
M  V30 13 C -1.9173 1.024 1.6815 0
M  V30 14 N -1.6615 0.921 3.0057 0
M  V30 15 C 2.971 -0.5447 -1.9568 0
M  V30 16 C -2.6786 2.1697 1.0753 0
M  V30 17 N 3.7133 0.2568 -2.8793 0
M  V30 18 C -1.7625 3.0078 0.1794 0
M  V30 19 C -3.895 1.6618 0.2956 0
M  V30 20 H 2.6033 -1.0569 1.3882 0
M  V30 21 H 0.5972 -2.9831 -1.9031 0
M  V30 22 H 3.8846 0.3211 -0.2005 0
M  V30 23 H 1.8791 -1.6066 -3.4895 0
M  V30 24 H -3.0476 2.8231 1.8966 0
M  V30 25 H 4.408 0.9584 -2.5392 0
M  V30 26 H 3.5723 0.1557 -3.9092 0
M  V30 27 H -0.8918 3.3765 0.7628 0
M  V30 28 H -2.3155 3.8876 -0.2132 0
M  V30 29 H -1.3913 2.4075 -0.679 0
M  V30 30 H -4.5478 1.0558 0.9599 0
M  V30 31 H -4.4889 2.52 -0.0848 0
M  V30 32 H -3.5802 1.0367 -0.5673 0
M  V30 END ATOM
M  V30 BEGIN BOND
M  V30 1 2 1 2
M  V30 2 2 1 3
M  V30 3 1 1 4
M  V30 4 1 1 5
M  V30 5 1 4 6
M  V30 6 2 5 7
M  V30 7 1 5 8
M  V30 8 1 6 9
M  V30 9 2 6 10
M  V30 10 1 7 11
M  V30 11 2 8 12
M  V30 12 1 9 13
M  V30 13 1 10 14
M  V30 14 2 11 15
M  V30 15 1 13 16
M  V30 16 1 15 17
M  V30 17 1 16 18
M  V30 18 1 16 19
M  V30 19 1 12 15
M  V30 20 2 13 14
M  V30 21 1 7 20
M  V30 22 1 8 21
M  V30 23 1 11 22
M  V30 24 1 12 23
M  V30 25 1 16 24
M  V30 26 1 17 25
M  V30 27 1 17 26
M  V30 28 1 18 27
M  V30 29 1 18 28
M  V30 30 1 18 29
M  V30 31 1 19 30
M  V30 32 1 19 31
M  V30 33 1 19 32
M  V30 END BOND
M  V30 END CTAB
M  END
>  <Structure No>
3287

>  <LogS>
-3.4141

>  <MMFF94 Energy>
51.364

$$$$
Compound 3288
Actelion Java MolfileCreator 2.0

  0  0  0  0  0  0              0 V3000
M  V30 BEGIN CTAB
M  V30 COUNTS 42 43 0 0 0
M  V30 BEGIN ATOM
M  V30 1 O 0.1581 -0.4743 -0.079 0
M  V30 2 O -0.7608 -1.2675 -0.617 0
M  V30 3 C 1.3031 -1.2517 0.2328 0
M  V30 4 C -1.5966 -0.4624 -1.4286 0
M  V30 5 C 2.3688 -0.3354 0.8492 0
M  V30 6 C 0.9241 -2.3454 1.2592 0
M  V30 7 C 1.8745 -1.8901 -1.0551 0
M  V30 8 C -2.3002 0.6151 -0.589 0
M  V30 9 C -0.7595 0.1267 -2.5918 0
M  V30 10 C -2.6745 -1.3811 -2.021 0
M  V30 11 C 2.1401 1.0498 1.0182 0
M  V30 12 C 3.6153 -0.8578 1.2622 0
M  V30 13 C -2.618 0.3546 0.7612 0
M  V30 14 C -2.7382 1.8328 -1.1547 0
M  V30 15 C 3.1206 1.873 1.5796 0
M  V30 16 C 4.59 -0.0276 1.8226 0
M  V30 17 C -3.2948 1.3031 1.5327 0
M  V30 18 C -3.4154 2.7771 -0.377 0
M  V30 19 C 4.3431 1.3356 1.9814 0
M  V30 20 C -3.6879 2.5156 0.966 0
M  V30 21 H 0.1637 -3.0395 0.8428 0
M  V30 22 H 1.8034 -2.9591 1.5451 0
M  V30 23 H 0.5046 -1.8773 2.1755 0
M  V30 24 H 2.1429 -1.097 -1.7855 0
M  V30 25 H 1.1341 -2.568 -1.53 0
M  V30 26 H 2.7801 -2.495 -0.8417 0
M  V30 27 H -0.1314 -0.668 -3.0477 0
M  V30 28 H -1.4061 0.5378 -3.3957 0
M  V30 29 H -0.089 0.9336 -2.2258 0
M  V30 30 H -3.2614 -1.8619 -1.2087 0
M  V30 31 H -3.3728 -0.8063 -2.6676 0
M  V30 32 H -2.2064 -2.1846 -2.6295 0
M  V30 33 H 1.207 1.5089 0.7198 0
M  V30 34 H 3.8413 -1.9096 1.1529 0
M  V30 35 H -2.3442 -0.586 1.2218 0
M  V30 36 H -2.5672 2.0632 -2.1959 0
M  V30 37 H 2.9308 2.9315 1.7031 0
M  V30 38 H 5.5395 -0.4434 2.134 0
M  V30 39 H -3.5211 1.0939 2.5703 0
M  V30 40 H -3.7363 3.7112 -0.8198 0
M  V30 41 H 5.0998 1.9762 2.4157 0
M  V30 42 H -4.2143 3.2479 1.5645 0
M  V30 END ATOM
M  V30 BEGIN BOND
M  V30 1 1 1 2
M  V30 2 1 1 3
M  V30 3 1 2 4
M  V30 4 1 3 5
M  V30 5 1 3 6
M  V30 6 1 3 7
M  V30 7 1 4 8
M  V30 8 1 4 9
M  V30 9 1 4 10
M  V30 10 2 5 11
M  V30 11 1 5 12
M  V30 12 2 8 13
M  V30 13 1 8 14
M  V30 14 1 11 15
M  V30 15 2 12 16
M  V30 16 1 13 17
M  V30 17 2 14 18
M  V30 18 2 15 19
M  V30 19 2 17 20
M  V30 20 1 16 19
M  V30 21 1 18 20
M  V30 22 1 6 21
M  V30 23 1 6 22
M  V30 24 1 6 23
M  V30 25 1 7 24
M  V30 26 1 7 25
M  V30 27 1 7 26
M  V30 28 1 9 27
M  V30 29 1 9 28
M  V30 30 1 9 29
M  V30 31 1 10 30
M  V30 32 1 10 31
M  V30 33 1 10 32
M  V30 34 1 11 33
M  V30 35 1 12 34
M  V30 36 1 13 35
M  V30 37 1 14 36
M  V30 38 1 15 37
M  V30 39 1 16 38
M  V30 40 1 17 39
M  V30 41 1 18 40
M  V30 42 1 19 41
M  V30 43 1 20 42
M  V30 END BOND
M  V30 END CTAB
M  END
>  <Structure No>
3288

>  <LogS>
-5.7692

>  <MMFF94 Energy>
90.795

$$$$
Compound 3289
Actelion Java MolfileCreator 2.0

  0  0  0  0  0  0              0 V3000
M  V30 BEGIN CTAB
M  V30 COUNTS 28 28 0 0 0
M  V30 BEGIN ATOM
M  V30 1 O 4.3952 1.1758 -0.0783 0
M  V30 2 C 3.0701 0.7533 -0.0018 0
M  V30 3 C 2.2328 1.2098 1.0201 0
M  V30 4 C 2.5737 -0.1365 -0.9537 0
M  V30 5 C 0.9039 0.7814 1.0893 0
M  V30 6 C 1.2469 -0.5687 -0.8907 0
M  V30 7 C 0.3779 -0.1142 0.1275 0
M  V30 8 C -1.0822 -0.6159 0.1649 0
M  V30 9 C -1.8037 -0.3309 -1.1893 0
M  V30 10 C -1.0673 -2.1435 0.3989 0
M  V30 11 C -1.9121 0.0094 1.3164 0
M  V30 12 C -1.8063 1.1442 -1.6068 0
M  V30 13 H 4.7852 1.8212 0.5986 0
M  V30 14 H 2.6113 1.8978 1.7655 0
M  V30 15 H 3.2185 -0.4968 -1.7453 0
M  V30 16 H 0.3063 1.1625 1.9034 0
M  V30 17 H 0.9036 -1.2639 -1.6443 0
M  V30 18 H -1.3348 -0.9171 -2.0079 0
M  V30 19 H -2.8597 -0.6765 -1.1318 0
M  V30 20 H -2.1027 -2.5414 0.4743 0
M  V30 21 H -0.5306 -2.3877 1.3414 0
M  V30 22 H -0.5636 -2.6781 -0.4335 0
M  V30 23 H -2.9657 -0.3424 1.2785 0
M  V30 24 H -1.9239 1.1173 1.2562 0
M  V30 25 H -1.4992 -0.2838 2.3059 0
M  V30 26 H -2.2752 1.2392 -2.6088 0
M  V30 27 H -0.7729 1.543 -1.6712 0
M  V30 28 H -2.3972 1.7578 -0.8969 0
M  V30 END ATOM
M  V30 BEGIN BOND
M  V30 1 1 1 2
M  V30 2 2 2 3
M  V30 3 1 2 4
M  V30 4 1 3 5
M  V30 5 2 4 6
M  V30 6 2 5 7
M  V30 7 1 7 8
M  V30 8 1 8 9
M  V30 9 1 8 10
M  V30 10 1 8 11
M  V30 11 1 9 12
M  V30 12 1 6 7
M  V30 13 1 1 13
M  V30 14 1 3 14
M  V30 15 1 4 15
M  V30 16 1 5 16
M  V30 17 1 6 17
M  V30 18 1 9 18
M  V30 19 1 9 19
M  V30 20 1 10 20
M  V30 21 1 10 21
M  V30 22 1 10 22
M  V30 23 1 11 23
M  V30 24 1 11 24
M  V30 25 1 11 25
M  V30 26 1 12 26
M  V30 27 1 12 27
M  V30 28 1 12 28
M  V30 END BOND
M  V30 END CTAB
M  END
>  <Structure No>
3289

>  <LogS>
-2.9902

>  <MMFF94 Energy>
24.674

$$$$
Compound 3290
Actelion Java MolfileCreator 2.0

  0  0  0  0  0  0              0 V3000
M  V30 BEGIN CTAB
M  V30 COUNTS 54 57 0 0 0
M  V30 BEGIN ATOM
M  V30 1 O -6.1671 -0.6478 1.2959 0
M  V30 2 C -5.0554 -0.4936 0.7244 0
M  V30 3 C -3.9841 0.2418 1.4178 0
M  V30 4 C -4.8565 -1.0438 -0.657 0
M  V30 5 C -2.8023 0.5067 0.834 0
M  V30 6 C -3.3645 -1.1558 -1.0051 0
M  V30 7 C -2.543 0.1167 -0.6136 0 CFG=2
M  V30 8 C -1.7183 1.1547 1.6717 0
M  V30 9 C -1.0054 -0.1574 -0.7986 0 CFG=2
M  V30 10 C -3.0069 1.2917 -1.5197 0
M  V30 11 C -0.5028 1.7326 0.9037 0
M  V30 12 C -0.4846 -1.4051 0.0068 0 CFG=1
M  V30 13 C -0.1774 1.1138 -0.4911 0 CFG=1
M  V30 14 O -0.3765 -2.5046 -0.863 0
M  V30 15 C 0.8567 -1.1881 0.7501 0
M  V30 16 C 1.3274 0.8433 -0.7839 0 CFG=2
M  V30 17 C 1.9241 -0.4018 -0.0607 0 CFG=1
M  V30 18 C 2.2576 2.039 -0.4978 0
M  V30 19 C 3.0017 0.2032 0.8842 0 CFG=2
M  V30 20 C 2.5699 -1.3482 -1.1117 0
M  V30 21 C 3.4937 1.4611 0.1714 0
M  V30 22 C 4.0921 -0.7647 1.3197 0
M  V30 23 O 3.7884 -1.7055 2.0379 0
M  V30 24 C 5.5303 -0.6034 0.9139 0
M  V30 25 H -4.1542 0.5368 2.4472 0
M  V30 26 H -5.3854 -0.4017 -1.391 0
M  V30 27 H -5.3165 -2.0539 -0.718 0
M  V30 28 H -2.9866 -2.055 -0.4787 0
M  V30 29 H -3.2593 -1.3568 -2.0939 0
M  V30 30 H -2.1642 1.9814 2.2685 0
M  V30 31 H -1.3608 0.3992 2.4033 0
M  V30 32 H -0.8475 -0.3748 -1.8808 0
M  V30 33 H -2.7043 1.1169 -2.5743 0
M  V30 34 H -2.595 2.2644 -1.1814 0
M  V30 35 H -4.1061 1.4261 -1.4917 0
M  V30 36 H -0.6785 2.8221 0.7599 0
M  V30 37 H 0.3744 1.6636 1.5788 0
M  V30 38 H -1.2181 -1.6566 0.8073 0
M  V30 39 H -0.45 1.8823 -1.2462 0
M  V30 40 H -0.3929 -3.3248 -0.3034 0
M  V30 41 H 1.2663 -2.1727 1.0654 0
M  V30 42 H 0.6372 -0.6621 1.7009 0
M  V30 43 H 1.3833 0.6797 -1.8863 0
M  V30 44 H 2.5365 2.5627 -1.4387 0
M  V30 45 H 1.7955 2.7901 0.1749 0
M  V30 46 H 2.5157 0.5618 1.8197 0
M  V30 47 H 3.4014 -0.8403 -1.6446 0
M  V30 48 H 1.8251 -1.66 -1.8733 0
M  V30 49 H 2.9714 -2.2676 -0.6354 0
M  V30 50 H 4.2389 1.2131 -0.6147 0
M  V30 51 H 3.9419 2.1855 0.8861 0
M  V30 52 H 5.9067 0.3891 1.2381 0
M  V30 53 H 5.6241 -0.6981 -0.1875 0
M  V30 54 H 6.1596 -1.3876 1.3865 0
M  V30 END ATOM
M  V30 BEGIN BOND
M  V30 1 2 1 2
M  V30 2 1 2 3
M  V30 3 1 2 4
M  V30 4 2 3 5
M  V30 5 1 4 6
M  V30 6 1 5 7
M  V30 7 1 5 8
M  V30 8 1 7 9
M  V30 9 1 7 10
M  V30 10 1 8 11
M  V30 11 1 9 12
M  V30 12 1 9 13
M  V30 13 1 12 14
M  V30 14 1 12 15
M  V30 15 1 13 16
M  V30 16 1 15 17
M  V30 17 1 16 18
M  V30 18 1 17 19
M  V30 19 1 17 20
M  V30 20 1 18 21
M  V30 21 1 19 22
M  V30 22 2 22 23
M  V30 23 1 22 24
M  V30 24 1 6 7
M  V30 25 1 11 13
M  V30 26 1 16 17
M  V30 27 1 19 21
M  V30 28 1 3 25
M  V30 29 1 4 26
M  V30 30 1 4 27
M  V30 31 1 6 28
M  V30 32 1 6 29
M  V30 33 1 8 30
M  V30 34 1 8 31
M  V30 35 1 9 32
M  V30 36 1 10 33
M  V30 37 1 10 34
M  V30 38 1 10 35
M  V30 39 1 11 36
M  V30 40 1 11 37
M  V30 41 1 12 38
M  V30 42 1 13 39
M  V30 43 1 14 40
M  V30 44 1 15 41
M  V30 45 1 15 42
M  V30 46 1 16 43
M  V30 47 1 18 44
M  V30 48 1 18 45
M  V30 49 1 19 46
M  V30 50 1 20 47
M  V30 51 1 20 48
M  V30 52 1 20 49
M  V30 53 1 21 50
M  V30 54 1 21 51
M  V30 55 1 24 52
M  V30 56 1 24 53
M  V30 57 1 24 54
M  V30 END BOND
M  V30 BEGIN COLLECTION
M  V30 MDLV30/STEABS ATOMS=(7 7 9 12 13 16 17 19)
M  V30 END COLLECTION
M  V30 END CTAB
M  END
>  <Structure No>
3290

>  <LogS>
-3.8202

>  <MMFF94 Energy>
90.746

$$$$
Compound 3291
Actelion Java MolfileCreator 2.0

  0  0  0  0  0  0              0 V3000
M  V30 BEGIN CTAB
M  V30 COUNTS 29 30 0 0 0
M  V30 BEGIN ATOM
M  V30 1 Cl 4.9436 -1.0877 -1.925 0
M  V30 2 C 3.4499 -0.7093 -1.087 0
M  V30 3 C 2.227 -0.8095 -1.7564 0
M  V30 4 C 3.4811 -0.3013 0.2494 0
M  V30 5 C 1.0354 -0.5068 -1.0909 0
M  V30 6 C 2.2916 0.002 0.9182 0
M  V30 7 C 1.054 -0.1094 0.2593 0
M  V30 8 C -0.2211 0.2594 0.9895 0 CFG=1
M  V30 9 S -0.6652 1.9749 0.6801 0
M  V30 10 N -1.3106 -0.6891 0.6731 0
M  V30 11 O -0.6199 2.7463 1.9691 0
M  V30 12 O 0.2869 2.6023 -0.3004 0
M  V30 13 C -2.3082 2.0472 0.018 0
M  V30 14 C -2.357 -0.4191 -0.2912 0
M  V30 15 C -1.2733 -2.0161 1.2984 0
M  V30 16 C -2.4896 0.9119 -0.9734 0
M  V30 17 O -3.1773 -1.328 -0.5954 0
M  V30 18 H 2.1983 -1.1191 -2.7932 0
M  V30 19 H 4.4261 -0.2151 0.7702 0
M  V30 20 H 0.1037 -0.586 -1.6324 0
M  V30 21 H 2.3368 0.3265 1.9506 0
M  V30 22 H -0.0322 0.1979 2.0844 0
M  V30 23 H -3.0479 1.958 0.8429 0
M  V30 24 H -2.4569 3.0226 -0.4917 0
M  V30 25 H -2.2014 -2.1799 1.8856 0
M  V30 26 H -0.4036 -2.1198 1.9823 0
M  V30 27 H -1.1889 -2.7991 0.5153 0
M  V30 28 H -1.7399 0.9909 -1.7889 0
M  V30 29 H -3.4988 0.9997 -1.4316 0
M  V30 END ATOM
M  V30 BEGIN BOND
M  V30 1 1 1 2
M  V30 2 2 2 3
M  V30 3 1 2 4
M  V30 4 1 3 5
M  V30 5 2 4 6
M  V30 6 2 5 7
M  V30 7 1 7 8
M  V30 8 1 8 9
M  V30 9 1 8 10
M  V30 10 2 9 11
M  V30 11 2 9 12
M  V30 12 1 9 13
M  V30 13 1 10 14
M  V30 14 1 10 15
M  V30 15 1 13 16
M  V30 16 2 14 17
M  V30 17 1 6 7
M  V30 18 1 14 16
M  V30 19 1 3 18
M  V30 20 1 4 19
M  V30 21 1 5 20
M  V30 22 1 6 21
M  V30 23 1 8 22
M  V30 24 1 13 23
M  V30 25 1 13 24
M  V30 26 1 15 25
M  V30 27 1 15 26
M  V30 28 1 15 27
M  V30 29 1 16 28
M  V30 30 1 16 29
M  V30 END BOND
M  V30 BEGIN COLLECTION
M  V30 MDLV30/STEABS ATOMS=(1 8)
M  V30 END COLLECTION
M  V30 END CTAB
M  END
>  <Structure No>
3291

>  <LogS>
-2.0394

>  <MMFF94 Energy>
58.838

$$$$
Compound 3292
Actelion Java MolfileCreator 2.0

  0  0  0  0  0  0              0 V3000
M  V30 BEGIN CTAB
M  V30 COUNTS 39 39 0 0 0
M  V30 BEGIN ATOM
M  V30 1 O 1.0443 3.1355 1.1247 0
M  V30 2 N 0.9039 2.445 0.0935 0 CHG=1
M  V30 3 O 1.1267 3.0221 -1.1341 0 CHG=-1
M  V30 4 C 0.2255 1.1848 0.1648 0
M  V30 5 C 0.9179 -0.0455 -0.0873 0
M  V30 6 C -1.1647 1.202 0.4314 0
M  V30 7 C 0.1052 -1.2092 -0.2937 0
M  V30 8 C 2.491 -0.1071 -0.1765 0
M  V30 9 C -1.9014 0.0018 0.4047 0
M  V30 10 C -1.8354 2.5148 0.798 0
M  V30 11 N 0.6619 -2.4168 -0.8263 0 CHG=1
M  V30 12 C -1.2864 -1.1855 -0.0357 0
M  V30 13 C 2.9316 0.1467 -1.6314 0
M  V30 14 C 3.1866 0.9426 0.7406 0
M  V30 15 C 3.0659 -1.4806 0.2817 0
M  V30 16 C -3.3249 -0.0089 0.8114 0
M  V30 17 O 0.7077 -3.4451 -0.119 0
M  V30 18 O 0.8581 -2.5277 -2.1826 0 CHG=-1
M  V30 19 C -2.0991 -2.4596 -0.1901 0
M  V30 20 O -3.63 -0.3288 1.9909 0
M  V30 21 C -4.4071 0.3207 -0.1686 0
M  V30 22 H -1.4748 3.3378 0.1468 0
M  V30 23 H -2.9343 2.4956 0.6687 0
M  V30 24 H -1.6118 2.7602 1.8572 0
M  V30 25 H 2.5928 1.1407 -1.9841 0
M  V30 26 H 2.5096 -0.6159 -2.3153 0
M  V30 27 H 4.0396 0.1097 -1.7161 0
M  V30 28 H 2.6827 0.995 1.7297 0
M  V30 29 H 4.2561 0.7039 0.9243 0
M  V30 30 H 3.2323 1.9467 0.2754 0
M  V30 31 H 4.15 -1.4291 0.5195 0
M  V30 32 H 2.5417 -1.8414 1.1927 0
M  V30 33 H 3.0231 -2.2455 -0.518 0
M  V30 34 H -1.9929 -3.0788 0.7248 0
M  V30 35 H -3.1751 -2.2623 -0.363 0
M  V30 36 H -1.7644 -3.0454 -1.071 0
M  V30 37 H -5.0545 1.1224 0.2446 0
M  V30 38 H -5.0266 -0.5801 -0.3582 0
M  V30 39 H -3.9738 0.6695 -1.1299 0
M  V30 END ATOM
M  V30 BEGIN BOND
M  V30 1 2 1 2
M  V30 2 1 2 3
M  V30 3 1 2 4
M  V30 4 2 4 5
M  V30 5 1 4 6
M  V30 6 1 5 7
M  V30 7 1 5 8
M  V30 8 2 6 9
M  V30 9 1 6 10
M  V30 10 1 7 11
M  V30 11 2 7 12
M  V30 12 1 8 13
M  V30 13 1 8 14
M  V30 14 1 8 15
M  V30 15 1 9 16
M  V30 16 2 11 17
M  V30 17 1 11 18
M  V30 18 1 12 19
M  V30 19 2 16 20
M  V30 20 1 16 21
M  V30 21 1 9 12
M  V30 22 1 10 22
M  V30 23 1 10 23
M  V30 24 1 10 24
M  V30 25 1 13 25
M  V30 26 1 13 26
M  V30 27 1 13 27
M  V30 28 1 14 28
M  V30 29 1 14 29
M  V30 30 1 14 30
M  V30 31 1 15 31
M  V30 32 1 15 32
M  V30 33 1 15 33
M  V30 34 1 19 34
M  V30 35 1 19 35
M  V30 36 1 19 36
M  V30 37 1 21 37
M  V30 38 1 21 38
M  V30 39 1 21 39
M  V30 END BOND
M  V30 END CTAB
M  END
>  <Structure No>
3292

>  <LogS>
-5.1901

>  <MMFF94 Energy>
126.71

$$$$
Compound 3293
Actelion Java MolfileCreator 2.0

  0  0  0  0  0  0              0 V3000
M  V30 BEGIN CTAB
M  V30 COUNTS 68 71 0 0 0
M  V30 BEGIN ATOM
M  V30 1 O 4.9373 3.5595 2.0212 0
M  V30 2 C 5.5442 2.5601 1.5542 0
M  V30 3 O 6.4668 2.7322 0.5303 0 CHG=-1
M  V30 4 C 5.249 1.1875 2.0763 0
M  V30 5 C 3.9135 0.6413 1.5412 0
M  V30 6 C 3.886 0.4159 0.0083 0 CFG=2
M  V30 7 C 2.4298 0.146 -0.5204 0 CFG=2
M  V30 8 C 4.9742 -0.5917 -0.4328 0
M  V30 9 C 1.6151 -1.1148 -0.0613 0 CFG=1
M  V30 10 C 2.3238 0.2014 -2.0606 0
M  V30 11 C 0.9701 -0.9481 1.3751 0 CFG=2
M  V30 12 C 0.5378 -1.2165 -1.1878 0 CFG=2
M  V30 13 C 2.4741 -2.4136 -0.1151 0
M  V30 14 C 1.2949 -0.8461 -2.4717 0
M  V30 15 O 1.5111 -1.8282 2.3347 0
M  V30 16 C -0.5665 -1.0471 1.3777 0
M  V30 17 C -0.7344 -0.2897 -1.0487 0 CFG=2
M  V30 18 C -1.1506 0.026 0.4294 0 CFG=1
M  V30 19 C -1.8885 -0.884 -1.9188 0 CFG=2
M  V30 20 C -2.6907 0.3754 0.6342 0 CFG=2
M  V30 21 O -2.4928 0.1102 -2.704 0
M  V30 22 C -2.937 -1.6059 -1.0661 0
M  V30 23 C -3.6508 -0.6793 -0.0555 0 CFG=2
M  V30 24 C -2.9488 1.8036 0.0507 0
M  V30 25 C -3.0 0.453 2.1623 0
M  V30 26 C -4.9128 -0.0612 -0.7263 0
M  V30 27 C -4.4161 2.2838 0.1339 0
M  V30 28 C -5.4593 1.1473 0.0382 0 CFG=1
M  V30 29 O -6.6477 1.6137 -0.5517 0
M  V30 30 H 6.0835 0.4997 1.8266 0
M  V30 31 H 5.1934 1.2362 3.1854 0
M  V30 32 H 3.7043 -0.3187 2.0571 0
M  V30 33 H 3.1145 1.3594 1.8274 0
M  V30 34 H 4.1701 1.3859 -0.4579 0
M  V30 35 H 1.8384 1.0281 -0.18 0
M  V30 36 H 5.1231 -1.3942 0.3167 0
M  V30 37 H 5.9467 -0.0642 -0.5324 0
M  V30 38 H 4.7654 -1.0574 -1.4131 0
M  V30 39 H 3.2816 0.011 -2.5832 0
M  V30 40 H 1.9773 1.2101 -2.38 0
M  V30 41 H 1.1994 0.0674 1.7562 0
M  V30 42 H 0.1894 -2.273 -1.2545 0
M  V30 43 H 3.0048 -2.5283 -1.0806 0
M  V30 44 H 1.8304 -3.3105 0.0102 0
M  V30 45 H 3.2225 -2.4408 0.6993 0
M  V30 46 H 0.6296 -0.4602 -3.2749 0
M  V30 47 H 1.8106 -1.7426 -2.8789 0
M  V30 48 H 1.1053 -2.7239 2.1975 0
M  V30 49 H -0.8731 -0.8914 2.4291 0
M  V30 50 H -0.8928 -2.065 1.0813 0
M  V30 51 H -0.4721 0.7012 -1.4869 0
M  V30 52 H -0.6103 0.9619 0.7053 0
M  V30 53 H -1.4917 -1.6553 -2.621 0
M  V30 54 H -1.8524 0.3388 -3.4276 0
M  V30 55 H -3.6799 -2.0936 -1.7362 0
M  V30 56 H -2.4437 -2.4383 -0.5221 0
M  V30 57 H -4.0416 -1.3622 0.732 0
M  V30 58 H -2.6373 1.8424 -1.0104 0
M  V30 59 H -2.3128 2.5508 0.5756 0
M  V30 60 H -3.9777 0.9134 2.389 0
M  V30 61 H -3.0295 -0.5556 2.625 0
M  V30 62 H -2.2336 1.0667 2.6838 0
M  V30 63 H -4.7006 0.2571 -1.7667 0
M  V30 64 H -5.7073 -0.8378 -0.7873 0
M  V30 65 H -4.574 2.833 1.0878 0
M  V30 66 H -4.5794 3.0231 -0.6807 0
M  V30 67 H -5.7265 0.8053 1.0594 0
M  V30 68 H -6.4433 1.8643 -1.491 0
M  V30 END ATOM
M  V30 BEGIN BOND
M  V30 1 2 1 2
M  V30 2 1 2 3
M  V30 3 1 2 4
M  V30 4 1 4 5
M  V30 5 1 5 6
M  V30 6 1 6 7
M  V30 7 1 6 8
M  V30 8 1 7 9
M  V30 9 1 7 10
M  V30 10 1 9 11
M  V30 11 1 9 12
M  V30 12 1 9 13
M  V30 13 1 10 14
M  V30 14 1 11 15
M  V30 15 1 11 16
M  V30 16 1 12 17
M  V30 17 1 16 18
M  V30 18 1 17 19
M  V30 19 1 18 20
M  V30 20 1 19 21
M  V30 21 1 19 22
M  V30 22 1 20 23
M  V30 23 1 20 24
M  V30 24 1 20 25
M  V30 25 1 23 26
M  V30 26 1 24 27
M  V30 27 1 26 28
M  V30 28 1 28 29
M  V30 29 1 12 14
M  V30 30 1 17 18
M  V30 31 1 22 23
M  V30 32 1 27 28
M  V30 33 1 4 30
M  V30 34 1 4 31
M  V30 35 1 5 32
M  V30 36 1 5 33
M  V30 37 1 6 34
M  V30 38 1 7 35
M  V30 39 1 8 36
M  V30 40 1 8 37
M  V30 41 1 8 38
M  V30 42 1 10 39
M  V30 43 1 10 40
M  V30 44 1 11 41
M  V30 45 1 12 42
M  V30 46 1 13 43
M  V30 47 1 13 44
M  V30 48 1 13 45
M  V30 49 1 14 46
M  V30 50 1 14 47
M  V30 51 1 15 48
M  V30 52 1 16 49
M  V30 53 1 16 50
M  V30 54 1 17 51
M  V30 55 1 18 52
M  V30 56 1 19 53
M  V30 57 1 21 54
M  V30 58 1 22 55
M  V30 59 1 22 56
M  V30 60 1 23 57
M  V30 61 1 24 58
M  V30 62 1 24 59
M  V30 63 1 25 60
M  V30 64 1 25 61
M  V30 65 1 25 62
M  V30 66 1 26 63
M  V30 67 1 26 64
M  V30 68 1 27 65
M  V30 69 1 27 66
M  V30 70 1 28 67
M  V30 71 1 29 68
M  V30 END BOND
M  V30 BEGIN COLLECTION
M  V30 MDLV30/STEABS ATOMS=(11 6 7 9 11 12 17 18 19 20 23 28)
M  V30 END COLLECTION
M  V30 END CTAB
M  END
>  <Structure No>
3293

>  <LogS>
-3.3682

>  <MMFF94 Energy>
108.24

$$$$
Compound 3294
Actelion Java MolfileCreator 2.0

  0  0  0  0  0  0              0 V3000
M  V30 BEGIN CTAB
M  V30 COUNTS 27 29 0 0 0
M  V30 BEGIN ATOM
M  V30 1 O -0.0818 -2.7023 0.0 0
M  V30 2 C -0.2231 -1.4489 -0.0105 0
M  V30 3 C 0.9689 -0.5517 0.0116 0
M  V30 4 C -1.5879 -0.8774 -0.0328 0
M  V30 5 C 2.2778 -1.0812 0.1233 0
M  V30 6 C 0.7856 0.8542 -0.0697 0
M  V30 7 C -1.7617 0.5096 -0.1945 0
M  V30 8 C -2.718 -1.7074 0.0913 0
M  V30 9 O 2.4779 -2.4624 0.1868 0
M  V30 10 C 3.3829 -0.2197 0.1698 0
M  V30 11 C -0.5798 1.3832 -0.3495 0
M  V30 12 C 1.9126 1.7078 0.0656 0
M  V30 13 C -3.0618 1.0469 -0.2336 0
M  V30 14 C -4.0031 -1.1615 0.0567 0
M  V30 15 O 4.6729 -0.7422 0.2575 0
M  V30 16 C 3.1928 1.161 0.1443 0
M  V30 17 O -0.7375 2.5502 -0.7992 0
M  V30 18 O 1.8097 3.0978 0.1633 0
M  V30 19 C -4.1747 0.2132 -0.1055 0
M  V30 20 H -2.6095 -2.7773 0.217 0
M  V30 21 H 3.3985 -2.8767 0.2682 0
M  V30 22 H -3.2178 2.1111 -0.3585 0
M  V30 23 H -4.8673 -1.8059 0.1545 0
M  V30 24 H 5.4886 -0.1421 0.2971 0
M  V30 25 H 4.0486 1.8207 0.2192 0
M  V30 26 H 0.9569 3.5821 0.4056 0
M  V30 27 H -5.1717 0.6337 -0.1335 0
M  V30 END ATOM
M  V30 BEGIN BOND
M  V30 1 2 1 2
M  V30 2 1 2 3
M  V30 3 1 2 4
M  V30 4 2 3 5
M  V30 5 1 3 6
M  V30 6 2 4 7
M  V30 7 1 4 8
M  V30 8 1 5 9
M  V30 9 1 5 10
M  V30 10 1 6 11
M  V30 11 2 6 12
M  V30 12 1 7 13
M  V30 13 2 8 14
M  V30 14 1 10 15
M  V30 15 2 10 16
M  V30 16 2 11 17
M  V30 17 1 12 18
M  V30 18 2 13 19
M  V30 19 1 7 11
M  V30 20 1 12 16
M  V30 21 1 14 19
M  V30 22 1 8 20
M  V30 23 1 9 21
M  V30 24 1 13 22
M  V30 25 1 14 23
M  V30 26 1 15 24
M  V30 27 1 16 25
M  V30 28 1 18 26
M  V30 29 1 19 27
M  V30 END BOND
M  V30 END CTAB
M  END
>  <Structure No>
3294

>  <LogS>
-4.6024

>  <MMFF94 Energy>
65.508

$$$$
Compound 3295
Actelion Java MolfileCreator 2.0

  0  0  0  0  0  0              0 V3000
M  V30 BEGIN CTAB
M  V30 COUNTS 38 40 0 0 0
M  V30 BEGIN ATOM
M  V30 1 Cl -3.352 -4.6625 2.5337 0
M  V30 2 C -2.7505 -3.1467 1.8876 0
M  V30 3 C -2.1656 -2.206 2.7391 0
M  V30 4 C -2.8513 -2.8798 0.5203 0
M  V30 5 C -1.6835 -0.9973 2.2277 0
M  V30 6 C -2.371 -1.6733 0.0042 0
M  V30 7 C -1.7864 -0.711 0.8492 0
M  V30 8 C -1.2589 0.5763 0.2278 0 CFG=2
M  V30 9 C 0.02 0.3098 -0.5655 0
M  V30 10 C -1.0781 1.7458 1.2241 0
M  V30 11 C 0.0917 0.6117 -1.9449 0
M  V30 12 C 1.1728 -0.2226 0.0507 0
M  V30 13 C -0.8091 3.043 0.5053 0
M  V30 14 O -0.9003 1.0996 -2.5491 0
M  V30 15 O 1.2072 0.3891 -2.6312 0
M  V30 16 O 1.1701 -0.531 1.4083 0 CHG=-1
M  V30 17 C 2.3298 -0.4423 -0.7105 0
M  V30 18 O 0.3422 3.4205 0.3501 0
M  V30 19 C -1.9313 3.8586 -0.0628 0
M  V30 20 C 2.3048 -0.1155 -2.0825 0
M  V30 21 C 3.5035 -0.9741 -0.147 0
M  V30 22 C 3.4418 -0.3221 -2.8717 0
M  V30 23 C 4.6344 -1.1762 -0.9442 0
M  V30 24 C 4.6036 -0.8512 -2.303 0
M  V30 25 H -2.0798 -2.4118 3.7985 0
M  V30 26 H -3.2991 -3.6074 -0.1444 0
M  V30 27 H -1.2289 -0.2994 2.916 0
M  V30 28 H -2.4519 -1.4879 -1.0599 0
M  V30 29 H -2.0642 0.9077 -0.4647 0
M  V30 30 H -0.2428 1.5458 1.928 0
M  V30 31 H -2.002 1.8617 1.8321 0
M  V30 32 H -1.9267 4.8691 0.3967 0
M  V30 33 H -1.8004 3.9562 -1.1607 0
M  V30 34 H -2.9129 3.379 0.1369 0
M  V30 35 H 3.5511 -1.2337 0.9033 0
M  V30 36 H 3.4252 -0.0721 -3.925 0
M  V30 37 H 5.5363 -1.5852 -0.5077 0
M  V30 38 H 5.4813 -1.0095 -2.9162 0
M  V30 END ATOM
M  V30 BEGIN BOND
M  V30 1 1 1 2
M  V30 2 2 2 3
M  V30 3 1 2 4
M  V30 4 1 3 5
M  V30 5 2 4 6
M  V30 6 2 5 7
M  V30 7 1 7 8
M  V30 8 1 8 9
M  V30 9 1 8 10
M  V30 10 1 9 11
M  V30 11 2 9 12
M  V30 12 1 10 13
M  V30 13 2 11 14
M  V30 14 1 11 15
M  V30 15 1 12 16
M  V30 16 1 12 17
M  V30 17 2 13 18
M  V30 18 1 13 19
M  V30 19 1 15 20
M  V30 20 1 17 21
M  V30 21 1 20 22
M  V30 22 2 21 23
M  V30 23 2 22 24
M  V30 24 1 6 7
M  V30 25 2 17 20
M  V30 26 1 23 24
M  V30 27 1 3 25
M  V30 28 1 4 26
M  V30 29 1 5 27
M  V30 30 1 6 28
M  V30 31 1 8 29
M  V30 32 1 10 30
M  V30 33 1 10 31
M  V30 34 1 19 32
M  V30 35 1 19 33
M  V30 36 1 19 34
M  V30 37 1 21 35
M  V30 38 1 22 36
M  V30 39 1 23 37
M  V30 40 1 24 38
M  V30 END BOND
M  V30 BEGIN COLLECTION
M  V30 MDLV30/STEABS ATOMS=(1 8)
M  V30 END COLLECTION
M  V30 END CTAB
M  END
>  <Structure No>
3295

>  <LogS>
-5.836

>  <MMFF94 Energy>
55.092

$$$$
Compound 3296
Actelion Java MolfileCreator 2.0

  0  0  0  0  0  0              0 V3000
M  V30 BEGIN CTAB
M  V30 COUNTS 39 41 0 0 0
M  V30 BEGIN ATOM
M  V30 1 O -0.9675 0.2418 1.9358 0
M  V30 2 C -2.0036 0.3158 1.2266 0
M  V30 3 O -3.0083 1.2059 1.5869 0 CHG=-1
M  V30 4 C -2.1966 -0.584 0.0706 0
M  V30 5 C -1.1769 -0.8769 -0.887 0
M  V30 6 C -3.4595 -1.1875 -0.0634 0
M  V30 7 C -1.4529 -1.829 -1.8904 0
M  V30 8 C 0.203 -0.2093 -0.9166 0
M  V30 9 C -3.7106 -2.1038 -1.0829 0
M  V30 10 C -2.7058 -2.433 -1.9868 0
M  V30 11 C 0.1425 1.2968 -0.6748 0
M  V30 12 C 1.264 -0.9533 -0.1091 0
M  V30 13 C 0.8404 1.9336 0.3744 0
M  V30 14 C -0.6249 2.0898 -1.5489 0
M  V30 15 C 2.6222 -0.7151 -0.3957 0
M  V30 16 C 0.943 -1.8788 0.9063 0
M  V30 17 C 0.7548 3.3181 0.5469 0
M  V30 18 C -0.7074 3.4734 -1.3724 0
M  V30 19 C 3.6289 -1.3683 0.3199 0
M  V30 20 C 1.9535 -2.5305 1.6192 0
M  V30 21 C -0.018 4.0909 -0.3226 0
M  V30 22 C 3.2964 -2.2772 1.3307 0
M  V30 23 O -0.0938 5.4693 -0.1358 0
M  V30 24 O 4.2911 -2.9339 2.0515 0
M  V30 25 H -4.2509 -0.9694 0.6439 0
M  V30 26 H -0.6957 -2.0976 -2.6169 0
M  V30 27 H 0.5596 -0.2827 -1.9698 0
M  V30 28 H -4.6842 -2.5695 -1.164 0
M  V30 29 H -2.8998 -3.1534 -2.7708 0
M  V30 30 H 1.4395 1.3683 1.0749 0
M  V30 31 H -1.1644 1.6321 -2.3691 0
M  V30 32 H 2.9007 -0.0131 -1.1721 0
M  V30 33 H -0.0832 -2.1119 1.1516 0
M  V30 34 H 1.2894 3.7912 1.3609 0
M  V30 35 H -1.307 4.0644 -2.0529 0
M  V30 36 H 4.6667 -1.1667 0.0877 0
M  V30 37 H 1.6913 -3.2369 2.3967 0
M  V30 38 H -0.646 6.0571 -0.7495 0
M  V30 39 H 5.274 -2.7721 1.8657 0
M  V30 END ATOM
M  V30 BEGIN BOND
M  V30 1 2 1 2
M  V30 2 1 2 3
M  V30 3 1 2 4
M  V30 4 2 4 5
M  V30 5 1 4 6
M  V30 6 1 5 7
M  V30 7 1 5 8
M  V30 8 2 6 9
M  V30 9 2 7 10
M  V30 10 1 8 11
M  V30 11 1 8 12
M  V30 12 2 11 13
M  V30 13 1 11 14
M  V30 14 2 12 15
M  V30 15 1 12 16
M  V30 16 1 13 17
M  V30 17 2 14 18
M  V30 18 1 15 19
M  V30 19 2 16 20
M  V30 20 2 17 21
M  V30 21 2 19 22
M  V30 22 1 21 23
M  V30 23 1 22 24
M  V30 24 1 9 10
M  V30 25 1 18 21
M  V30 26 1 20 22
M  V30 27 1 6 25
M  V30 28 1 7 26
M  V30 29 1 8 27
M  V30 30 1 9 28
M  V30 31 1 10 29
M  V30 32 1 13 30
M  V30 33 1 14 31
M  V30 34 1 15 32
M  V30 35 1 16 33
M  V30 36 1 17 34
M  V30 37 1 18 35
M  V30 38 1 19 36
M  V30 39 1 20 37
M  V30 40 1 23 38
M  V30 41 1 24 39
M  V30 END BOND
M  V30 END CTAB
M  END
>  <Structure No>
3296

>  <LogS>
-3.2626

>  <MMFF94 Energy>
83.973

$$$$
Compound 3297
Actelion Java MolfileCreator 2.0

  0  0  0  0  0  0              0 V3000
M  V30 BEGIN CTAB
M  V30 COUNTS 29 31 0 0 0
M  V30 BEGIN ATOM
M  V30 1 O 0.324 -2.1078 -1.1345 0
M  V30 2 C 0.5301 -1.0301 -0.5132 0
M  V30 3 C -0.6081 -0.1402 -0.1351 0
M  V30 4 C 1.9255 -0.617 -0.2371 0
M  V30 5 C -1.9644 -0.5746 -0.1798 0
M  V30 6 C -0.3215 1.1977 0.2272 0
M  V30 7 C 2.197 0.6969 0.1925 0
M  V30 8 C 2.9901 -1.519 -0.4211 0
M  V30 9 N -2.2884 -1.9602 -0.3797 0
M  V30 10 C -3.0067 0.359 0.0375 0
M  V30 11 C 1.0834 1.6523 0.3749 0
M  V30 12 C -1.3714 2.0989 0.4538 0
M  V30 13 C 3.5271 1.0876 0.4337 0
M  V30 14 C 4.3056 -1.1197 -0.1754 0
M  V30 15 C -2.6947 1.6893 0.3407 0
M  V30 16 C -4.4541 -0.0549 -0.0203 0
M  V30 17 O 1.3305 2.8546 0.6691 0
M  V30 18 C 4.5736 0.1811 0.2511 0
M  V30 19 H 2.8059 -2.5337 -0.7513 0
M  V30 20 H -1.6805 -2.7146 0.007 0
M  V30 21 H -3.2093 -2.2564 -0.7708 0
M  V30 22 H -1.1704 3.1297 0.7181 0
M  V30 23 H 3.7586 2.0924 0.7645 0
M  V30 24 H 5.1187 -1.8199 -0.3169 0
M  V30 25 H -3.4808 2.4137 0.5158 0
M  V30 26 H -4.7074 -0.3886 -1.0484 0
M  V30 27 H -5.1341 0.7826 0.245 0
M  V30 28 H -4.6398 -0.8826 0.696 0
M  V30 29 H 5.5942 0.4884 0.4398 0
M  V30 END ATOM
M  V30 BEGIN BOND
M  V30 1 2 1 2
M  V30 2 1 2 3
M  V30 3 1 2 4
M  V30 4 2 3 5
M  V30 5 1 3 6
M  V30 6 2 4 7
M  V30 7 1 4 8
M  V30 8 1 5 9
M  V30 9 1 5 10
M  V30 10 1 6 11
M  V30 11 2 6 12
M  V30 12 1 7 13
M  V30 13 2 8 14
M  V30 14 2 10 15
M  V30 15 1 10 16
M  V30 16 2 11 17
M  V30 17 2 13 18
M  V30 18 1 7 11
M  V30 19 1 12 15
M  V30 20 1 14 18
M  V30 21 1 8 19
M  V30 22 1 9 20
M  V30 23 1 9 21
M  V30 24 1 12 22
M  V30 25 1 13 23
M  V30 26 1 14 24
M  V30 27 1 15 25
M  V30 28 1 16 26
M  V30 29 1 16 27
M  V30 30 1 16 28
M  V30 31 1 18 29
M  V30 END BOND
M  V30 END CTAB
M  END
>  <Structure No>
3297

>  <LogS>
-5.8541

>  <MMFF94 Energy>
76.81

$$$$
Compound 3298
Actelion Java MolfileCreator 2.0

  0  0  0  0  0  0              0 V3000
M  V30 BEGIN CTAB
M  V30 COUNTS 30 32 0 0 0
M  V30 BEGIN ATOM
M  V30 1 S 2.3611 2.7113 0.3495 0
M  V30 2 O 3.7006 3.3009 0.0064 0
M  V30 3 O 1.9564 3.1897 1.7155 0
M  V30 4 O 1.2522 3.2406 -0.7955 0 CHG=-1
M  V30 5 C 2.4483 0.94 0.3326 0
M  V30 6 C 1.2943 0.1033 0.2797 0
M  V30 7 C 3.7241 0.3548 0.3202 0
M  V30 8 C -0.0973 0.6246 0.4076 0
M  V30 9 C 1.4664 -1.2947 0.1455 0
M  V30 10 C 3.8761 -1.0246 0.2266 0
M  V30 11 O -0.3043 1.7015 1.0239 0
M  V30 12 C -1.2542 -0.2002 -0.0457 0
M  V30 13 C 0.2869 -2.1789 0.0133 0
M  V30 14 C 2.7581 -1.8451 0.1282 0
M  V30 15 C -2.5464 0.3453 -0.3051 0
M  V30 16 C -1.0597 -1.5955 -0.177 0
M  V30 17 O 0.4331 -3.4324 0.0374 0
M  V30 18 S -2.8782 2.0874 -0.3194 0
M  V30 19 C -3.6085 -0.5184 -0.6163 0
M  V30 20 C -2.1434 -2.429 -0.4978 0
M  V30 21 O -2.9469 2.6059 1.0894 0
M  V30 22 O -4.1896 2.3614 -1.0012 0
M  V30 23 O -1.6735 2.8925 -1.1689 0 CHG=-1
M  V30 24 C -3.4092 -1.8922 -0.704 0
M  V30 25 H 4.614 0.9682 0.3749 0
M  V30 26 H 4.8674 -1.459 0.2137 0
M  V30 27 H 2.9056 -2.9138 0.0338 0
M  V30 28 H -4.601 -0.1292 -0.8021 0
M  V30 29 H -2.0119 -3.4994 -0.5943 0
M  V30 30 H -4.2384 -2.5435 -0.9493 0
M  V30 END ATOM
M  V30 BEGIN BOND
M  V30 1 2 1 2
M  V30 2 2 1 3
M  V30 3 1 1 4
M  V30 4 1 1 5
M  V30 5 2 5 6
M  V30 6 1 5 7
M  V30 7 1 6 8
M  V30 8 1 6 9
M  V30 9 2 7 10
M  V30 10 2 8 11
M  V30 11 1 8 12
M  V30 12 1 9 13
M  V30 13 2 9 14
M  V30 14 2 12 15
M  V30 15 1 12 16
M  V30 16 2 13 17
M  V30 17 1 15 18
M  V30 18 1 15 19
M  V30 19 2 16 20
M  V30 20 2 18 21
M  V30 21 2 18 22
M  V30 22 1 18 23
M  V30 23 2 19 24
M  V30 24 1 10 14
M  V30 25 1 13 16
M  V30 26 1 20 24
M  V30 27 1 7 25
M  V30 28 1 10 26
M  V30 29 1 14 27
M  V30 30 1 19 28
M  V30 31 1 20 29
M  V30 32 1 24 30
M  V30 END BOND
M  V30 END CTAB
M  END
>  <Structure No>
3298

>  <LogS>
1.2572

>  <MMFF94 Energy>
126.72

$$$$
Compound 3299
Actelion Java MolfileCreator 2.0

  0  0  0  0  0  0              0 V3000
M  V30 BEGIN CTAB
M  V30 COUNTS 43 45 0 0 0
M  V30 BEGIN ATOM
M  V30 1 N 0.5551 0.1585 -0.793 0 CHG=1
M  V30 2 C -0.9173 0.1356 -0.5068 0
M  V30 3 C 1.4093 -0.144 0.3814 0
M  V30 4 C 0.902 -0.7681 -1.9017 0
M  V30 5 C -1.3597 -1.075 0.3174 0
M  V30 6 C -1.48 1.4358 0.0842 0
M  V30 7 C 2.8968 0.124 0.0637 0
M  V30 8 C 2.43 -0.9354 -2.0731 0
M  V30 9 C -1.3107 -1.0604 1.7269 0
M  V30 10 C -1.8392 -2.2294 -0.3297 0
M  V30 11 C -2.8815 1.5869 0.1267 0
M  V30 12 C -0.6803 2.4849 0.5939 0
M  V30 13 N 3.1501 0.1555 -1.393 0
M  V30 14 C -1.7158 -2.1775 2.4628 0
M  V30 15 C -2.2428 -3.3439 0.4112 0
M  V30 16 C -3.4644 2.7367 0.6652 0
M  V30 17 C -1.2711 3.6331 1.1308 0
M  V30 18 C 4.5924 0.0694 -1.6646 0
M  V30 19 C -2.1793 -3.3189 1.8059 0
M  V30 20 C -2.66 3.7586 1.1683 0
M  V30 21 H 0.7925 1.1164 -1.145 0
M  V30 22 H -1.4419 0.0627 -1.4891 0
M  V30 23 H 1.116 0.4532 1.2685 0
M  V30 24 H 1.3031 -1.2162 0.6641 0
M  V30 25 H 0.475 -0.3812 -2.8549 0
M  V30 26 H 0.4648 -1.7748 -1.7294 0
M  V30 27 H 3.5171 -0.6543 0.5646 0
M  V30 28 H 3.1793 1.1107 0.4919 0
M  V30 29 H 2.6693 -0.9349 -3.1598 0
M  V30 30 H 2.745 -1.9207 -1.6576 0
M  V30 31 H -0.9634 -0.1843 2.2587 0
M  V30 32 H -1.9047 -2.2675 -1.4098 0
M  V30 33 H -3.5262 0.8049 -0.2559 0
M  V30 34 H 0.3969 2.447 0.5796 0
M  V30 35 H -1.6723 -2.1571 3.5441 0
M  V30 36 H -2.6075 -4.2273 -0.0967 0
M  V30 37 H -4.5421 2.8345 0.6927 0
M  V30 38 H -0.6486 4.4298 1.5176 0
M  V30 39 H 5.1291 0.8905 -1.1419 0
M  V30 40 H 5.0091 -0.9069 -1.3304 0
M  V30 41 H 4.7819 0.1901 -2.7526 0
M  V30 42 H -2.493 -4.1826 2.3777 0
M  V30 43 H -3.1126 4.6492 1.585 0
M  V30 END ATOM
M  V30 BEGIN BOND
M  V30 1 1 1 2
M  V30 2 1 1 3
M  V30 3 1 1 4
M  V30 4 1 2 5
M  V30 5 1 2 6
M  V30 6 1 3 7
M  V30 7 1 4 8
M  V30 8 2 5 9
M  V30 9 1 5 10
M  V30 10 2 6 11
M  V30 11 1 6 12
M  V30 12 1 7 13
M  V30 13 1 9 14
M  V30 14 2 10 15
M  V30 15 1 11 16
M  V30 16 2 12 17
M  V30 17 1 13 18
M  V30 18 2 14 19
M  V30 19 2 16 20
M  V30 20 1 8 13
M  V30 21 1 15 19
M  V30 22 1 17 20
M  V30 23 1 1 21
M  V30 24 1 2 22
M  V30 25 1 3 23
M  V30 26 1 3 24
M  V30 27 1 4 25
M  V30 28 1 4 26
M  V30 29 1 7 27
M  V30 30 1 7 28
M  V30 31 1 8 29
M  V30 32 1 8 30
M  V30 33 1 9 31
M  V30 34 1 10 32
M  V30 35 1 11 33
M  V30 36 1 12 34
M  V30 37 1 14 35
M  V30 38 1 15 36
M  V30 39 1 16 37
M  V30 40 1 17 38
M  V30 41 1 18 39
M  V30 42 1 18 40
M  V30 43 1 18 41
M  V30 44 1 19 42
M  V30 45 1 20 43
M  V30 END BOND
M  V30 END CTAB
M  END
>  <Structure No>
3299

>  <LogS>
-2.4255

>  <MMFF94 Energy>
120.29

$$$$
Compound 3300
Actelion Java MolfileCreator 2.0

  0  0  0  0  0  0              0 V3000
M  V30 BEGIN CTAB
M  V30 COUNTS 30 31 0 0 0
M  V30 BEGIN ATOM
M  V30 1 O 0.4031 -2.017 -0.1612 0
M  V30 2 C 0.8436 -0.8385 -0.1865 0
M  V30 3 C 2.2468 -0.4624 -0.0497 0
M  V30 4 C 0.0611 0.3796 -0.4467 0 CHG=-1
M  V30 5 C 2.3713 0.8973 -0.2512 0
M  V30 6 C 3.3591 -1.2622 0.2124 0
M  V30 7 C 1.0531 1.458 -0.5228 0
M  V30 8 C -1.335 0.4745 -0.9205 0
M  V30 9 C 3.6133 1.5297 -0.1974 0
M  V30 10 C 4.6208 -0.6457 0.2754 0
M  V30 11 O 0.809 2.6652 -0.786 0
M  V30 12 O -1.548 1.1292 -1.9778 0
M  V30 13 C -2.5144 -0.1766 -0.2002 0
M  V30 14 C 4.7473 0.7441 0.0716 0
M  V30 15 C -2.8642 -1.5077 -0.8896 0
M  V30 16 C -2.2066 -0.4264 1.2931 0
M  V30 17 C -3.7407 0.7604 -0.2786 0
M  V30 18 H 3.2556 -2.3288 0.3631 0
M  V30 19 H 3.7036 2.5959 -0.3596 0
M  V30 20 H 5.5006 -1.2419 0.4791 0
M  V30 21 H 5.7236 1.2084 0.1201 0
M  V30 22 H -3.107 -1.3411 -1.9615 0
M  V30 23 H -2.0184 -2.2217 -0.8346 0
M  V30 24 H -3.7445 -1.9807 -0.4028 0
M  V30 25 H -1.4109 -1.1857 1.4257 0
M  V30 26 H -3.1088 -0.8032 1.8219 0
M  V30 27 H -1.8828 0.5156 1.7867 0
M  V30 28 H -4.0486 0.9293 -1.3333 0
M  V30 29 H -4.6091 0.3222 0.2597 0
M  V30 30 H -3.5072 1.7459 0.1801 0
M  V30 END ATOM
M  V30 BEGIN BOND
M  V30 1 2 1 2
M  V30 2 1 2 3
M  V30 3 1 2 4
M  V30 4 2 3 5
M  V30 5 1 3 6
M  V30 6 1 4 7
M  V30 7 1 4 8
M  V30 8 1 5 9
M  V30 9 2 6 10
M  V30 10 2 7 11
M  V30 11 2 8 12
M  V30 12 1 8 13
M  V30 13 2 9 14
M  V30 14 1 13 15
M  V30 15 1 13 16
M  V30 16 1 13 17
M  V30 17 1 5 7
M  V30 18 1 10 14
M  V30 19 1 6 18
M  V30 20 1 9 19
M  V30 21 1 10 20
M  V30 22 1 14 21
M  V30 23 1 15 22
M  V30 24 1 15 23
M  V30 25 1 15 24
M  V30 26 1 16 25
M  V30 27 1 16 26
M  V30 28 1 16 27
M  V30 29 1 17 28
M  V30 30 1 17 29
M  V30 31 1 17 30
M  V30 END BOND
M  V30 END CTAB
M  END
>  <Structure No>
3300

>  <LogS>
-4.107

>  <MMFF94 Energy>
20.547

$$$$
Compound 3301
Actelion Java MolfileCreator 2.0

  0  0  0  0  0  0              0 V3000
M  V30 BEGIN CTAB
M  V30 COUNTS 57 60 0 0 0
M  V30 BEGIN ATOM
M  V30 1 O -5.9224 -1.6199 1.2958 0
M  V30 2 C -4.8853 -1.2375 0.6929 0
M  V30 3 C -4.2811 0.0554 1.0164 0
M  V30 4 C -4.2674 -2.0913 -0.3175 0
M  V30 5 C -3.1932 0.5009 0.3638 0
M  V30 6 C -3.1845 -1.6811 -0.9773 0
M  V30 7 C -2.5617 -0.2956 -0.7934 0 CFG=2
M  V30 8 C -2.5818 1.8266 0.7994 0 CFG=1
M  V30 9 C -0.9814 -0.3865 -0.6018 0 CFG=2
M  V30 10 C -2.9026 0.4478 -2.11 0
M  V30 11 C -1.1347 2.0008 0.2956 0
M  V30 12 C -3.4545 3.0127 0.3694 0
M  V30 13 C -0.4148 -1.7826 -0.1855 0 CFG=2
M  V30 14 C -0.382 0.6631 0.3695 0 CFG=2
M  V30 15 O -1.2046 -2.3344 0.8392 0
M  V30 16 C 1.0617 -1.7277 0.3121 0
M  V30 17 C 1.1448 0.834 0.0954 0 CFG=2
M  V30 18 C 1.9009 -0.5116 -0.2056 0 CFG=1
M  V30 19 C 1.8506 1.4793 1.3073 0
M  V30 20 C 3.2506 -0.3883 0.5953 0 CFG=1
M  V30 21 C 2.1776 -0.7258 -1.7237 0
M  V30 22 C 2.8889 0.4868 1.8024 0
M  V30 23 O 3.6858 -1.6604 1.0273 0
M  V30 24 C 4.3683 0.2961 -0.2089 0
M  V30 25 O 4.2337 1.4586 -0.5665 0
M  V30 26 C 5.6456 -0.4337 -0.5519 0
M  V30 27 O 6.4001 0.2792 -1.4956 0
M  V30 28 H -4.7148 0.6404 1.8194 0
M  V30 29 H -4.6879 -3.067 -0.5274 0
M  V30 30 H -2.7745 -2.3372 -1.736 0
M  V30 31 H -2.5333 1.8282 1.9126 0
M  V30 32 H -0.5539 -0.1619 -1.5997 0
M  V30 33 H -2.5295 -0.1195 -2.9908 0
M  V30 34 H -4.0037 0.5641 -2.2185 0
M  V30 35 H -2.4516 1.4548 -2.1613 0
M  V30 36 H -1.0977 2.4003 -0.7382 0
M  V30 37 H -0.6322 2.7563 0.9375 0
M  V30 38 H -4.4659 2.9337 0.821 0
M  V30 39 H -3.5606 3.048 -0.7348 0
M  V30 40 H -2.9984 3.9652 0.7144 0
M  V30 41 H -0.4551 -2.4423 -1.0838 0
M  V30 42 H -0.5116 0.2788 1.4092 0
M  V30 43 H -1.022 -3.3104 0.8489 0
M  V30 44 H 1.5612 -2.6823 0.0345 0
M  V30 45 H 1.0509 -1.6981 1.4243 0
M  V30 46 H 1.2649 1.5199 -0.7739 0
M  V30 47 H 1.1592 1.738 2.139 0
M  V30 48 H 2.3531 2.4198 0.9919 0
M  V30 49 H 2.5561 0.1995 -2.2058 0
M  V30 50 H 1.2836 -1.0516 -2.2868 0
M  V30 51 H 2.9368 -1.5253 -1.8597 0
M  V30 52 H 2.437 -0.1385 2.6044 0
M  V30 53 H 3.7738 1.0072 2.2319 0
M  V30 54 H 4.3946 -1.5273 1.7109 0
M  V30 55 H 5.393 -1.4233 -0.9862 0
M  V30 56 H 6.2416 -0.604 0.3728 0
M  V30 57 H 6.8809 0.991 -0.9972 0
M  V30 END ATOM
M  V30 BEGIN BOND
M  V30 1 2 1 2
M  V30 2 1 2 3
M  V30 3 1 2 4
M  V30 4 2 3 5
M  V30 5 2 4 6
M  V30 6 1 5 7
M  V30 7 1 5 8
M  V30 8 1 7 9
M  V30 9 1 7 10
M  V30 10 1 8 11
M  V30 11 1 8 12
M  V30 12 1 9 13
M  V30 13 1 9 14
M  V30 14 1 13 15
M  V30 15 1 13 16
M  V30 16 1 14 17
M  V30 17 1 16 18
M  V30 18 1 17 19
M  V30 19 1 18 20
M  V30 20 1 18 21
M  V30 21 1 19 22
M  V30 22 1 20 23
M  V30 23 1 20 24
M  V30 24 2 24 25
M  V30 25 1 24 26
M  V30 26 1 26 27
M  V30 27 1 6 7
M  V30 28 1 11 14
M  V30 29 1 17 18
M  V30 30 1 20 22
M  V30 31 1 3 28
M  V30 32 1 4 29
M  V30 33 1 6 30
M  V30 34 1 8 31
M  V30 35 1 9 32
M  V30 36 1 10 33
M  V30 37 1 10 34
M  V30 38 1 10 35
M  V30 39 1 11 36
M  V30 40 1 11 37
M  V30 41 1 12 38
M  V30 42 1 12 39
M  V30 43 1 12 40
M  V30 44 1 13 41
M  V30 45 1 14 42
M  V30 46 1 15 43
M  V30 47 1 16 44
M  V30 48 1 16 45
M  V30 49 1 17 46
M  V30 50 1 19 47
M  V30 51 1 19 48
M  V30 52 1 21 49
M  V30 53 1 21 50
M  V30 54 1 21 51
M  V30 55 1 22 52
M  V30 56 1 22 53
M  V30 57 1 23 54
M  V30 58 1 26 55
M  V30 59 1 26 56
M  V30 60 1 27 57
M  V30 END BOND
M  V30 BEGIN COLLECTION
M  V30 MDLV30/STEABS ATOMS=(8 7 8 9 13 14 17 18 20)
M  V30 END COLLECTION
M  V30 END CTAB
M  END
>  <Structure No>
3301

>  <LogS>
-3.4942

>  <MMFF94 Energy>
150.98

$$$$
Compound 3302
Actelion Java MolfileCreator 2.0

  0  0  0  0  0  0              0 V3000
M  V30 BEGIN CTAB
M  V30 COUNTS 67 70 0 0 0
M  V30 BEGIN ATOM
M  V30 1 O 8.5865 -0.323 0.4037 0
M  V30 2 C 7.8152 0.3477 -0.333 0
M  V30 3 O 8.1374 1.6606 -0.6537 0 CHG=-1
M  V30 4 C 6.5333 -0.2489 -0.8228 0
M  V30 5 C 5.3802 0.092 0.1352 0
M  V30 6 C 4.0127 -0.473 -0.3491 0 CFG=2
M  V30 7 C 2.8176 0.3271 0.2806 0 CFG=2
M  V30 8 C 3.9332 -1.9738 0.0012 0
M  V30 9 C 1.3502 -0.0891 -0.0877 0 CFG=1
M  V30 10 C 2.8609 1.8436 -0.0748 0
M  V30 11 C 0.7495 -1.303 0.6832 0 CFG=1
M  V30 12 C 0.6053 1.1752 0.3916 0 CFG=1
M  V30 13 C 1.2503 -0.3397 -1.6262 0
M  V30 14 C 1.4117 2.3511 -0.125 0
M  V30 15 O 1.0588 -1.2258 2.0533 0
M  V30 16 C -0.7931 -1.3801 0.4954 0
M  V30 17 C -0.9346 1.1949 0.2477 0 CFG=2
M  V30 18 C -1.5562 -0.084 0.9072 0 CFG=1
M  V30 19 C -1.471 1.5496 -1.1653 0
M  V30 20 C -3.169 -0.1228 0.8374 0 CFG=1
M  V30 21 C -2.8746 0.9941 -1.433 0
M  V30 22 C -3.7073 0.99 -0.1362 0 CFG=1
M  V30 23 C -3.7577 -1.5431 0.4443 0
M  V30 24 C -3.6867 0.2299 2.2627 0
M  V30 25 C -5.2433 0.9584 -0.4113 0
M  V30 26 C -4.9744 -1.5387 -0.4959 0
M  V30 27 C -5.9318 -0.3979 -0.1897 0 CFG=2
M  V30 28 O -7.0575 -0.484 -1.026 0
M  V30 29 H 6.3133 0.1589 -1.833 0
M  V30 30 H 6.6623 -1.3465 -0.9193 0
M  V30 31 H 5.6082 -0.2923 1.1546 0
M  V30 32 H 5.3456 1.1976 0.2117 0
M  V30 33 H 3.9721 -0.3655 -1.4546 0
M  V30 34 H 2.9366 0.2559 1.3864 0
M  V30 35 H 4.8906 -2.4945 -0.1962 0
M  V30 36 H 3.6861 -2.1155 1.0753 0
M  V30 37 H 3.1816 -2.4892 -0.6241 0
M  V30 38 H 3.4268 2.4067 0.6995 0
M  V30 39 H 3.3427 2.0118 -1.0632 0
M  V30 40 H 1.1711 -2.2439 0.2697 0
M  V30 41 H 0.7509 1.2278 1.5003 0
M  V30 42 H 1.595 0.5353 -2.2139 0
M  V30 43 H 0.2338 -0.6014 -1.9617 0
M  V30 44 H 1.8683 -1.2056 -1.9285 0
M  V30 45 H 1.1258 2.609 -1.167 0
M  V30 46 H 1.2735 3.2467 0.5197 0
M  V30 47 H 0.9496 -2.1385 2.4275 0
M  V30 48 H -1.0169 -1.6337 -0.558 0
M  V30 49 H -1.1545 -2.2244 1.1228 0
M  V30 50 H -1.2674 2.0405 0.8948 0
M  V30 51 H -1.28 0.0102 1.9831 0
M  V30 52 H -1.5203 2.6593 -1.2401 0
M  V30 53 H -0.8032 1.249 -1.9866 0
M  V30 54 H -3.3514 1.6275 -2.2123 0
M  V30 55 H -2.7898 -0.034 -1.8439 0
M  V30 56 H -3.5361 1.9855 0.3362 0
M  V30 57 H -4.0261 -2.1134 1.361 0
M  V30 58 H -3.0408 -2.1888 -0.0829 0
M  V30 59 H -4.7899 0.2857 2.3154 0
M  V30 60 H -3.353 -0.533 2.9994 0
M  V30 61 H -3.2895 1.2148 2.5913 0
M  V30 62 H -5.4509 1.3092 -1.4463 0
M  V30 63 H -5.7439 1.6975 0.2542 0
M  V30 64 H -4.6406 -1.4615 -1.5536 0
M  V30 65 H -5.5084 -2.5085 -0.3954 0
M  V30 66 H -6.2657 -0.478 0.8694 0
M  V30 67 H -7.6216 -1.2233 -0.6781 0
M  V30 END ATOM
M  V30 BEGIN BOND
M  V30 1 2 1 2
M  V30 2 1 2 3
M  V30 3 1 2 4
M  V30 4 1 4 5
M  V30 5 1 5 6
M  V30 6 1 6 7
M  V30 7 1 6 8
M  V30 8 1 7 9
M  V30 9 1 7 10
M  V30 10 1 9 11
M  V30 11 1 9 12
M  V30 12 1 9 13
M  V30 13 1 10 14
M  V30 14 1 11 15
M  V30 15 1 11 16
M  V30 16 1 12 17
M  V30 17 1 16 18
M  V30 18 1 17 19
M  V30 19 1 18 20
M  V30 20 1 19 21
M  V30 21 1 20 22
M  V30 22 1 20 23
M  V30 23 1 20 24
M  V30 24 1 22 25
M  V30 25 1 23 26
M  V30 26 1 25 27
M  V30 27 1 27 28
M  V30 28 1 12 14
M  V30 29 1 17 18
M  V30 30 1 21 22
M  V30 31 1 26 27
M  V30 32 1 4 29
M  V30 33 1 4 30
M  V30 34 1 5 31
M  V30 35 1 5 32
M  V30 36 1 6 33
M  V30 37 1 7 34
M  V30 38 1 8 35
M  V30 39 1 8 36
M  V30 40 1 8 37
M  V30 41 1 10 38
M  V30 42 1 10 39
M  V30 43 1 11 40
M  V30 44 1 12 41
M  V30 45 1 13 42
M  V30 46 1 13 43
M  V30 47 1 13 44
M  V30 48 1 14 45
M  V30 49 1 14 46
M  V30 50 1 15 47
M  V30 51 1 16 48
M  V30 52 1 16 49
M  V30 53 1 17 50
M  V30 54 1 18 51
M  V30 55 1 19 52
M  V30 56 1 19 53
M  V30 57 1 21 54
M  V30 58 1 21 55
M  V30 59 1 22 56
M  V30 60 1 23 57
M  V30 61 1 23 58
M  V30 62 1 24 59
M  V30 63 1 24 60
M  V30 64 1 24 61
M  V30 65 1 25 62
M  V30 66 1 25 63
M  V30 67 1 26 64
M  V30 68 1 26 65
M  V30 69 1 27 66
M  V30 70 1 28 67
M  V30 END BOND
M  V30 BEGIN COLLECTION
M  V30 MDLV30/STEABS ATOMS=(10 6 7 9 11 12 17 18 20 22 27)
M  V30 END COLLECTION
M  V30 END CTAB
M  END
>  <Structure No>
3302

>  <LogS>
-3.9544

>  <MMFF94 Energy>
106.62

$$$$
Compound 3303
Actelion Java MolfileCreator 2.0

  0  0  0  0  0  0              0 V3000
M  V30 BEGIN CTAB
M  V30 COUNTS 21 22 0 0 0
M  V30 BEGIN ATOM
M  V30 1 O -1.8263 2.7007 0.5555 0
M  V30 2 C -0.8451 1.9384 0.3373 0
M  V30 3 C -1.0144 0.5466 0.2461 0
M  V30 4 C 0.4224 2.4895 0.1855 0
M  V30 5 C 0.121 -0.2747 -0.0012 0
M  V30 6 C -2.2861 -0.04 0.3957 0
M  V30 7 C 1.5146 1.6607 -0.0557 0
M  V30 8 N 1.367 0.303 -0.1475 0
M  V30 9 C -0.0676 -1.6745 -0.09 0
M  V30 10 C -2.4415 -1.4223 0.3031 0
M  V30 11 C 2.5679 -0.5087 -0.4042 0
M  V30 12 C -1.3371 -2.2356 0.0612 0
M  V30 13 H 0.5658 3.5612 0.2537 0
M  V30 14 H -3.1626 0.568 0.5845 0
M  V30 15 H 2.4886 2.1224 -0.1691 0
M  V30 16 H 0.7561 -2.349 -0.2761 0
M  V30 17 H -3.4227 -1.8648 0.4193 0
M  V30 18 H 3.4838 0.1148 -0.4949 0
M  V30 19 H 2.4503 -1.0677 -1.3569 0
M  V30 20 H 2.7309 -1.2193 0.4339 0
M  V30 21 H -1.4646 -3.3083 -0.0094 0
M  V30 END ATOM
M  V30 BEGIN BOND
M  V30 1 2 1 2
M  V30 2 1 2 3
M  V30 3 1 2 4
M  V30 4 2 3 5
M  V30 5 1 3 6
M  V30 6 2 4 7
M  V30 7 1 5 8
M  V30 8 1 5 9
M  V30 9 2 6 10
M  V30 10 1 8 11
M  V30 11 2 9 12
M  V30 12 1 7 8
M  V30 13 1 10 12
M  V30 14 1 4 13
M  V30 15 1 6 14
M  V30 16 1 7 15
M  V30 17 1 9 16
M  V30 18 1 10 17
M  V30 19 1 11 18
M  V30 20 1 11 19
M  V30 21 1 11 20
M  V30 22 1 12 21
M  V30 END BOND
M  V30 END CTAB
M  END
>  <Structure No>
3303

>  <LogS>
-0.9818

>  <MMFF94 Energy>
43.069

$$$$
Compound 3304
Actelion Java MolfileCreator 2.0

  0  0  0  0  0  0              0 V3000
M  V30 BEGIN CTAB
M  V30 COUNTS 51 55 0 0 0
M  V30 BEGIN ATOM
M  V30 1 O -0.1624 -3.3334 -1.7063 0
M  V30 2 C 0.0365 -2.4167 -0.8636 0
M  V30 3 C 1.0252 -1.3555 -1.1292 0
M  V30 4 C -0.7664 -2.3806 0.4173 0 CFG=2
M  V30 5 C 1.373 -0.494 -0.0696 0
M  V30 6 C 1.6013 -1.1685 -2.4075 0
M  V30 7 C -2.0057 -1.5024 0.2836 0
M  V30 8 C 0.1541 -1.8939 1.5675 0 CFG=1
M  V30 9 O 0.8346 -0.6867 1.2066 0
M  V30 10 C 2.2587 0.5534 -0.3229 0
M  V30 11 C 2.5042 -0.1145 -2.6268 0
M  V30 12 C -2.4203 -0.7056 1.37 0
M  V30 13 C -2.8022 -1.5372 -0.8751 0
M  V30 14 C -0.6669 -1.6491 2.8321 0
M  V30 15 C 2.807 0.7304 -1.5607 0
M  V30 16 C 2.7752 1.5859 0.6141 0
M  V30 17 O -1.6964 -0.7003 2.5674 0
M  V30 18 C -3.5554 0.1001 1.2603 0
M  V30 19 C -3.9522 -0.7321 -0.9849 0
M  V30 20 O 3.6654 1.8079 -1.5831 0
M  V30 21 C 3.7097 2.432 -0.2981 0 CFG=2
M  V30 22 C -4.3254 0.0956 0.0835 0
M  V30 23 O -4.751 -0.7274 -2.1397 0
M  V30 24 C 5.1327 2.4654 0.2208 0
M  V30 25 O -5.4716 0.8937 -0.0597 0
M  V30 26 C -4.4934 -1.5059 -3.3037 0
M  V30 27 C 5.6326 3.5913 0.7511 0
M  V30 28 C 5.984 1.2227 0.1977 0
M  V30 29 C -5.968 1.7798 0.938 0
M  V30 30 H -1.1063 -3.4128 0.6559 0
M  V30 31 H 1.3438 -1.8239 -3.2296 0
M  V30 32 H 0.9141 -2.6783 1.7799 0
M  V30 33 H 2.9499 0.0407 -3.6003 0
M  V30 34 H -2.5236 -2.1888 -1.69 0
M  V30 35 H -1.1267 -2.6027 3.1706 0
M  V30 36 H -0.0145 -1.2666 3.645 0
M  V30 37 H 3.3168 1.1001 1.4549 0
M  V30 38 H 1.9369 2.2015 1.0051 0
M  V30 39 H -3.8346 0.7171 2.1035 0
M  V30 40 H 3.2949 3.4603 -0.3962 0
M  V30 41 H -5.2788 -1.299 -4.059 0
M  V30 42 H -3.5063 -1.2344 -3.7339 0
M  V30 43 H -4.518 -2.5874 -3.053 0
M  V30 44 H 5.0388 4.4988 0.8047 0
M  V30 45 H 6.6455 3.6187 1.1418 0
M  V30 46 H 6.2973 0.9614 1.2307 0
M  V30 47 H 5.4264 0.3606 -0.2238 0
M  V30 48 H 6.8865 1.3975 -0.4246 0
M  V30 49 H -6.2348 1.2123 1.8544 0
M  V30 50 H -5.2073 2.5535 1.1745 0
M  V30 51 H -6.8789 2.2833 0.5548 0
M  V30 END ATOM
M  V30 BEGIN BOND
M  V30 1 2 1 2
M  V30 2 1 2 3
M  V30 3 1 2 4
M  V30 4 2 3 5
M  V30 5 1 3 6
M  V30 6 1 4 7
M  V30 7 1 4 8
M  V30 8 1 5 9
M  V30 9 1 5 10
M  V30 10 2 6 11
M  V30 11 2 7 12
M  V30 12 1 7 13
M  V30 13 1 8 14
M  V30 14 2 10 15
M  V30 15 1 10 16
M  V30 16 1 12 17
M  V30 17 1 12 18
M  V30 18 2 13 19
M  V30 19 1 15 20
M  V30 20 1 16 21
M  V30 21 2 18 22
M  V30 22 1 19 23
M  V30 23 1 21 24
M  V30 24 1 22 25
M  V30 25 1 23 26
M  V30 26 2 24 27
M  V30 27 1 24 28
M  V30 28 1 25 29
M  V30 29 1 8 9
M  V30 30 1 11 15
M  V30 31 1 14 17
M  V30 32 1 19 22
M  V30 33 1 20 21
M  V30 34 1 4 30
M  V30 35 1 6 31
M  V30 36 1 8 32
M  V30 37 1 11 33
M  V30 38 1 13 34
M  V30 39 1 14 35
M  V30 40 1 14 36
M  V30 41 1 16 37
M  V30 42 1 16 38
M  V30 43 1 18 39
M  V30 44 1 21 40
M  V30 45 1 26 41
M  V30 46 1 26 42
M  V30 47 1 26 43
M  V30 48 1 27 44
M  V30 49 1 27 45
M  V30 50 1 28 46
M  V30 51 1 28 47
M  V30 52 1 28 48
M  V30 53 1 29 49
M  V30 54 1 29 50
M  V30 55 1 29 51
M  V30 END BOND
M  V30 BEGIN COLLECTION
M  V30 MDLV30/STEABS ATOMS=(3 4 8 21)
M  V30 END COLLECTION
M  V30 END CTAB
M  END
>  <Structure No>
3304

>  <LogS>
-6.2949

>  <MMFF94 Energy>
109.4

$$$$
Compound 3305
Actelion Java MolfileCreator 2.0

  0  0  0  0  0  0              0 V3000
M  V30 BEGIN CTAB
M  V30 COUNTS 46 48 0 0 0
M  V30 BEGIN ATOM
M  V30 1 O 1.6059 -4.9848 -2.0881 0
M  V30 2 C 0.6806 -4.3369 -1.5342 0
M  V30 3 N 0.6347 -2.9845 -1.6637 0
M  V30 4 N -0.2647 -4.9962 -0.8103 0 CHG=-1
M  V30 5 C -0.349 -2.248 -1.0795 0
M  V30 6 C -1.2824 -4.3423 -0.1922 0
M  V30 7 N -0.4013 -0.8789 -1.1908 0
M  V30 8 C -1.3708 -2.9552 -0.2957 0
M  V30 9 O -2.1345 -4.9933 0.4684 0
M  V30 10 C -1.4323 -0.1903 -0.5653 0
M  V30 11 C 0.6503 -0.1778 -1.9679 0
M  V30 12 N -2.3528 -2.2494 0.3012 0
M  V30 13 C -2.4106 -0.8998 0.1878 0
M  V30 14 C -1.5619 1.2177 -0.6462 0
M  V30 15 C 1.7049 0.4881 -1.0521 0 CFG=2
M  V30 16 C -3.4494 -0.2205 0.828 0
M  V30 17 C -2.6121 1.8983 -0.0066 0
M  V30 18 O 2.5328 1.3038 -1.841 0
M  V30 19 C 2.5661 -0.5615 -0.3046 0 CFG=1
M  V30 20 C -3.5576 1.1729 0.7488 0
M  V30 21 C -2.6939 3.3999 -0.1173 0
M  V30 22 O 3.4046 -1.2241 -1.2183 0
M  V30 23 C 3.3983 0.0269 0.8645 0 CFG=2
M  V30 24 C -4.6962 1.8651 1.4525 0
M  V30 25 O 2.532 0.5916 1.8166 0
M  V30 26 C 4.4388 1.07 0.4161 0
M  V30 27 O 5.3655 1.3057 1.4421 0
M  V30 28 H 0.1864 0.5748 -2.6392 0
M  V30 29 H 1.1652 -0.8596 -2.6778 0
M  V30 30 H -0.8535 1.8126 -1.2005 0
M  V30 31 H 1.1837 1.113 -0.2926 0
M  V30 32 H -4.1783 -0.7882 1.3952 0
M  V30 33 H 2.0273 2.139 -2.0225 0
M  V30 34 H 1.8751 -1.3015 0.1591 0
M  V30 35 H -2.5009 3.8588 0.8747 0
M  V30 36 H -1.949 3.8027 -0.8359 0
M  V30 37 H -3.7009 3.7021 -0.4732 0
M  V30 38 H 3.6713 -2.0829 -0.7972 0
M  V30 39 H 3.948 -0.8279 1.3267 0
M  V30 40 H -5.2767 1.1609 2.0857 0
M  V30 41 H -4.3056 2.668 2.112 0
M  V30 42 H -5.3862 2.3065 0.7033 0
M  V30 43 H 2.9975 0.5572 2.6928 0
M  V30 44 H 4.9958 0.6918 -0.4665 0
M  V30 45 H 3.9403 2.0224 0.1249 0
M  V30 46 H 4.9507 1.9638 2.059 0
M  V30 END ATOM
M  V30 BEGIN BOND
M  V30 1 2 1 2
M  V30 2 1 2 3
M  V30 3 1 2 4
M  V30 4 2 3 5
M  V30 5 1 4 6
M  V30 6 1 5 7
M  V30 7 1 5 8
M  V30 8 2 6 9
M  V30 9 1 7 10
M  V30 10 1 7 11
M  V30 11 2 8 12
M  V30 12 2 10 13
M  V30 13 1 10 14
M  V30 14 1 11 15
M  V30 15 1 13 16
M  V30 16 2 14 17
M  V30 17 1 15 18
M  V30 18 1 15 19
M  V30 19 2 16 20
M  V30 20 1 17 21
M  V30 21 1 19 22
M  V30 22 1 19 23
M  V30 23 1 20 24
M  V30 24 1 23 25
M  V30 25 1 23 26
M  V30 26 1 26 27
M  V30 27 1 6 8
M  V30 28 1 12 13
M  V30 29 1 17 20
M  V30 30 1 11 28
M  V30 31 1 11 29
M  V30 32 1 14 30
M  V30 33 1 15 31
M  V30 34 1 16 32
M  V30 35 1 18 33
M  V30 36 1 19 34
M  V30 37 1 21 35
M  V30 38 1 21 36
M  V30 39 1 21 37
M  V30 40 1 22 38
M  V30 41 1 23 39
M  V30 42 1 24 40
M  V30 43 1 24 41
M  V30 44 1 24 42
M  V30 45 1 25 43
M  V30 46 1 26 44
M  V30 47 1 26 45
M  V30 48 1 27 46
M  V30 END BOND
M  V30 BEGIN COLLECTION
M  V30 MDLV30/STEABS ATOMS=(3 15 19 23)
M  V30 END COLLECTION
M  V30 END CTAB
M  END
>  <Structure No>
3305

>  <LogS>
-3.6478

>  <MMFF94 Energy>
151.06

$$$$
Compound 3306
Actelion Java MolfileCreator 2.0

  0  0  0  0  0  0              0 V3000
M  V30 BEGIN CTAB
M  V30 COUNTS 32 34 0 0 0
M  V30 BEGIN ATOM
M  V30 1 C -0.7173 -1.2755 -0.239 0
M  V30 2 C 0.7007 -1.2754 -0.3232 0
M  V30 3 C -1.4934 -0.0338 -0.0036 0
M  V30 4 C -1.4164 -2.4813 -0.4255 0
M  V30 5 C 1.5062 -0.0588 -0.0576 0
M  V30 6 C 1.3707 -2.4738 -0.6264 0
M  V30 7 C -1.3145 1.0885 -0.8316 0
M  V30 8 C -2.4297 0.0277 1.0427 0
M  V30 9 C -0.732 -3.663 -0.7136 0
M  V30 10 C 2.4485 0.3855 -1.001 0
M  V30 11 C 1.3494 0.6539 1.1442 0
M  V30 12 C 0.6578 -3.6579 -0.8202 0
M  V30 13 C -2.0455 2.2578 -0.6019 0
M  V30 14 C -3.1593 1.1991 1.268 0
M  V30 15 C 3.2059 1.5345 -0.7534 0
M  V30 16 C 2.1082 1.8027 1.3869 0
M  V30 17 C -2.9659 2.3139 0.4479 0
M  V30 18 C 3.0345 2.2437 0.4383 0
M  V30 19 H -2.4981 -2.5022 -0.3693 0
M  V30 20 H 2.4519 -2.4962 -0.6913 0
M  V30 21 H -0.6133 1.0565 -1.6562 0
M  V30 22 H -2.584 -0.8256 1.6916 0
M  V30 23 H -1.2818 -4.5834 -0.8624 0
M  V30 24 H 2.5859 -0.1493 -1.9326 0
M  V30 25 H 0.6437 0.3181 1.894 0
M  V30 26 H 1.1854 -4.5756 -1.0459 0
M  V30 27 H -1.9005 3.12 -1.2399 0
M  V30 28 H -3.8738 1.2432 2.0799 0
M  V30 29 H 3.9248 1.8761 -1.4867 0
M  V30 30 H 1.98 2.3496 2.3121 0
M  V30 31 H -3.5312 3.2199 0.6242 0
M  V30 32 H 3.6212 3.1332 0.6279 0
M  V30 END ATOM
M  V30 BEGIN BOND
M  V30 1 2 1 2
M  V30 2 1 1 3
M  V30 3 1 1 4
M  V30 4 1 2 5
M  V30 5 1 2 6
M  V30 6 2 3 7
M  V30 7 1 3 8
M  V30 8 2 4 9
M  V30 9 2 5 10
M  V30 10 1 5 11
M  V30 11 2 6 12
M  V30 12 1 7 13
M  V30 13 2 8 14
M  V30 14 1 10 15
M  V30 15 2 11 16
M  V30 16 2 13 17
M  V30 17 2 15 18
M  V30 18 1 9 12
M  V30 19 1 14 17
M  V30 20 1 16 18
M  V30 21 1 4 19
M  V30 22 1 6 20
M  V30 23 1 7 21
M  V30 24 1 8 22
M  V30 25 1 9 23
M  V30 26 1 10 24
M  V30 27 1 11 25
M  V30 28 1 12 26
M  V30 29 1 13 27
M  V30 30 1 14 28
M  V30 31 1 15 29
M  V30 32 1 16 30
M  V30 33 1 17 31
M  V30 34 1 18 32
M  V30 END BOND
M  V30 END CTAB
M  END
>  <Structure No>
3306

>  <LogS>
-5.2692

>  <MMFF94 Energy>
68.776

$$$$
Compound 3307
Actelion Java MolfileCreator 2.0

  0  0  0  0  0  0              0 V3000
M  V30 BEGIN CTAB
M  V30 COUNTS 47 50 0 0 0
M  V30 BEGIN ATOM
M  V30 1 O 0.4828 -1.61 -1.7711 0
M  V30 2 C 0.1776 -1.4675 -0.5555 0
M  V30 3 C 1.2371 -1.6408 0.4665 0
M  V30 4 C -1.2751 -1.2467 -0.1585 0 CFG=2
M  V30 5 C 2.4465 -0.9025 0.4336 0
M  V30 6 C 1.0385 -2.5776 1.4925 0
M  V30 7 N -2.1155 -0.771 -1.3001 0 CHG=1 CFG=1
M  V30 8 C -1.4181 -0.2716 1.0539 0
M  V30 9 C 3.4251 -1.1605 1.4246 0
M  V30 10 C 2.6994 0.1011 -0.5247 0
M  V30 11 C 2.0328 -2.7887 2.4463 0
M  V30 12 C -3.5478 -0.8237 -0.9089 0
M  V30 13 C -1.7719 0.6282 -1.6695 0
M  V30 14 C -2.4975 0.7821 0.7387 0 CFG=2
M  V30 15 N 3.1928 -2.0875 2.3907 0
M  V30 16 C 4.6314 -0.4546 1.4231 0
M  V30 17 C 3.9066 0.8102 -0.5218 0
M  V30 18 C -3.807 0.0367 0.3675 0 CFG=1
M  V30 19 C -2.0093 1.5908 -0.4803 0
M  V30 20 C 4.8756 0.5213 0.4558 0
M  V30 21 O 4.1014 1.7934 -1.5035 0
M  V30 22 C -4.9659 0.9959 0.189 0
M  V30 23 C 5.2742 2.5922 -1.621 0
M  V30 24 C -5.5047 1.6376 1.2303 0
M  V30 25 H -1.6524 -2.2449 0.1612 0
M  V30 26 H 0.1265 -3.1586 1.5455 0
M  V30 27 H -1.9841 -1.3927 -2.1327 0
M  V30 28 H -1.7015 -0.8402 1.9667 0
M  V30 29 H -0.4644 0.2545 1.2799 0
M  V30 30 H 1.9625 0.3583 -1.2733 0
M  V30 31 H 1.8835 -3.5176 3.2317 0
M  V30 32 H -3.8458 -1.8779 -0.7095 0
M  V30 33 H -4.1772 -0.4946 -1.7665 0
M  V30 34 H -0.7118 0.6955 -1.9967 0
M  V30 35 H -2.3863 0.9528 -2.5394 0
M  V30 36 H -2.6438 1.4489 1.6165 0
M  V30 37 H 5.3815 -0.6568 2.1779 0
M  V30 38 H -4.0712 -0.654 1.2007 0
M  V30 39 H -2.7607 2.3625 -0.7553 0
M  V30 40 H -1.066 2.1232 -0.2277 0
M  V30 41 H 5.8175 1.0518 0.4827 0
M  V30 42 H -5.3908 1.1662 -0.7958 0
M  V30 43 H 5.4207 3.1935 -0.6989 0
M  V30 44 H 6.1594 1.9465 -1.8014 0
M  V30 45 H 5.1575 3.2833 -2.4806 0
M  V30 46 H -5.123 1.4908 2.2361 0
M  V30 47 H -6.3385 2.3152 1.0785 0
M  V30 END ATOM
M  V30 BEGIN BOND
M  V30 1 2 1 2
M  V30 2 1 2 3
M  V30 3 1 2 4
M  V30 4 1 3 5
M  V30 5 2 3 6
M  V30 6 1 4 7
M  V30 7 1 4 8
M  V30 8 1 5 9
M  V30 9 2 5 10
M  V30 10 1 6 11
M  V30 11 1 7 12
M  V30 12 1 7 13
M  V30 13 1 8 14
M  V30 14 1 9 15
M  V30 15 2 9 16
M  V30 16 1 10 17
M  V30 17 1 12 18
M  V30 18 1 13 19
M  V30 19 1 16 20
M  V30 20 1 17 21
M  V30 21 1 18 22
M  V30 22 1 21 23
M  V30 23 2 22 24
M  V30 24 2 11 15
M  V30 25 1 14 18
M  V30 26 1 14 19
M  V30 27 2 17 20
M  V30 28 1 4 25
M  V30 29 1 6 26
M  V30 30 1 7 27
M  V30 31 1 8 28
M  V30 32 1 8 29
M  V30 33 1 10 30
M  V30 34 1 11 31
M  V30 35 1 12 32
M  V30 36 1 12 33
M  V30 37 1 13 34
M  V30 38 1 13 35
M  V30 39 1 14 36
M  V30 40 1 16 37
M  V30 41 1 18 38
M  V30 42 1 19 39
M  V30 43 1 19 40
M  V30 44 1 20 41
M  V30 45 1 22 42
M  V30 46 1 23 43
M  V30 47 1 23 44
M  V30 48 1 23 45
M  V30 49 1 24 46
M  V30 50 1 24 47
M  V30 END BOND
M  V30 BEGIN COLLECTION
M  V30 MDLV30/STEABS ATOMS=(4 4 7 14 18)
M  V30 END COLLECTION
M  V30 END CTAB
M  END
>  <Structure No>
3307

>  <LogS>
-5.0313

>  <MMFF94 Energy>
107.39

$$$$
Compound 3308
Actelion Java MolfileCreator 2.0

  0  0  0  0  0  0              0 V3000
M  V30 BEGIN CTAB
M  V30 COUNTS 25 27 0 0 0
M  V30 BEGIN ATOM
M  V30 1 O -0.1647 2.5555 -0.4118 0
M  V30 2 C -0.1836 1.3113 -0.2015 0
M  V30 3 C 1.0859 0.5471 -0.1689 0
M  V30 4 C -1.4755 0.6172 0.0124 0
M  V30 5 C 1.0641 -0.8445 0.0662 0
M  V30 6 C 2.3178 1.1965 -0.3708 0
M  V30 7 C -1.4971 -0.7747 0.2477 0
M  V30 8 C -2.6865 1.3331 -0.0163 0
M  V30 9 C -0.2276 -1.5387 0.2802 0
M  V30 10 C 2.2747 -1.5602 0.0951 0
M  V30 11 C 3.5163 0.4725 -0.3397 0
M  V30 12 C -2.7292 -1.4239 0.4497 0
M  V30 13 C -3.9019 0.6758 0.1857 0
M  V30 14 O -0.2467 -2.7829 0.4906 0
M  V30 15 C 3.4901 -0.9035 -0.1067 0
M  V30 16 O 4.7379 1.1119 -0.5391 0
M  V30 17 C -3.9241 -0.7 0.4184 0
M  V30 18 O -5.1356 -1.3503 0.619 0 CHG=-1
M  V30 19 H 2.352 2.2637 -0.5525 0
M  V30 20 H -2.6949 2.4012 -0.1949 0
M  V30 21 H 2.2827 -2.6281 0.2738 0
M  V30 22 H -2.7677 -2.4907 0.6317 0
M  V30 23 H -4.8277 1.2369 0.1614 0
M  V30 24 H 4.4148 -1.4662 -0.0819 0
M  V30 25 H 4.7923 2.1092 -0.7106 0
M  V30 END ATOM
M  V30 BEGIN BOND
M  V30 1 2 1 2
M  V30 2 1 2 3
M  V30 3 1 2 4
M  V30 4 2 3 5
M  V30 5 1 3 6
M  V30 6 2 4 7
M  V30 7 1 4 8
M  V30 8 1 5 9
M  V30 9 1 5 10
M  V30 10 2 6 11
M  V30 11 1 7 12
M  V30 12 2 8 13
M  V30 13 2 9 14
M  V30 14 2 10 15
M  V30 15 1 11 16
M  V30 16 2 12 17
M  V30 17 1 17 18
M  V30 18 1 7 9
M  V30 19 1 11 15
M  V30 20 1 13 17
M  V30 21 1 6 19
M  V30 22 1 8 20
M  V30 23 1 10 21
M  V30 24 1 12 22
M  V30 25 1 13 23
M  V30 26 1 15 24
M  V30 27 1 16 25
M  V30 END BOND
M  V30 END CTAB
M  END
>  <Structure No>
3308

>  <LogS>
-5.8892

>  <MMFF94 Energy>
23.788

$$$$
Compound 3309
Actelion Java MolfileCreator 2.0

  0  0  0  0  0  0              0 V3000
M  V30 BEGIN CTAB
M  V30 COUNTS 38 40 0 0 0
M  V30 BEGIN ATOM
M  V30 1 O 3.2205 1.7703 0.4825 0
M  V30 2 C 2.0723 1.526 0.0198 0
M  V30 3 O 1.8057 0.3015 -0.608 0
M  V30 4 C 1.0346 2.5816 0.0382 0
M  V30 5 C 2.5499 -0.8754 -0.4413 0
M  V30 6 C -0.3515 2.286 0.154 0
M  V30 7 C 1.437 3.9189 -0.1357 0
M  V30 8 C 3.2606 -1.156 0.7417 0
M  V30 9 C 2.5438 -1.82 -1.4756 0
M  V30 10 C -0.8612 0.9333 0.4706 0
M  V30 11 C -1.2874 3.3279 0.0266 0
M  V30 12 C 0.4919 4.9406 -0.2364 0
M  V30 13 C 3.9749 -2.352 0.8661 0
M  V30 14 C 3.2598 -3.0144 -1.3486 0
M  V30 15 O -0.2029 0.1691 1.228 0
M  V30 16 O -2.0789 0.5135 -0.0831 0
M  V30 17 C -0.8674 4.6443 -0.167 0
M  V30 18 C 3.978 -3.2785 -0.1796 0
M  V30 19 C -2.8203 -0.601 0.3357 0
M  V30 20 C -2.8201 -1.0468 1.6717 0
M  V30 21 C -3.6187 -1.2632 -0.6056 0
M  V30 22 C -3.5848 -2.1576 2.0425 0
M  V30 23 C -4.3813 -2.3741 -0.2319 0
M  V30 24 C -4.3612 -2.8236 1.0907 0
M  V30 25 H 2.4865 4.1713 -0.2263 0
M  V30 26 H 3.2414 -0.4717 1.5788 0
M  V30 27 H 1.9873 -1.6239 -2.3833 0
M  V30 28 H -2.349 3.1274 0.1094 0
M  V30 29 H 0.8149 5.9635 -0.3818 0
M  V30 30 H 4.5186 -2.5645 1.7776 0
M  V30 31 H 3.2558 -3.7356 -2.1555 0
M  V30 32 H -1.5983 5.4382 -0.2512 0
M  V30 33 H 4.53 -4.2042 -0.0809 0
M  V30 34 H -2.2583 -0.5242 2.4335 0
M  V30 35 H -3.6407 -0.9204 -1.6322 0
M  V30 36 H -3.5826 -2.4967 3.0705 0
M  V30 37 H -4.9889 -2.8852 -0.9674 0
M  V30 38 H -4.9535 -3.6822 1.3797 0
M  V30 END ATOM
M  V30 BEGIN BOND
M  V30 1 2 1 2
M  V30 2 1 2 3
M  V30 3 1 2 4
M  V30 4 1 3 5
M  V30 5 2 4 6
M  V30 6 1 4 7
M  V30 7 2 5 8
M  V30 8 1 5 9
M  V30 9 1 6 10
M  V30 10 1 6 11
M  V30 11 2 7 12
M  V30 12 1 8 13
M  V30 13 2 9 14
M  V30 14 2 10 15
M  V30 15 1 10 16
M  V30 16 2 11 17
M  V30 17 2 13 18
M  V30 18 1 16 19
M  V30 19 2 19 20
M  V30 20 1 19 21
M  V30 21 1 20 22
M  V30 22 2 21 23
M  V30 23 2 22 24
M  V30 24 1 12 17
M  V30 25 1 14 18
M  V30 26 1 23 24
M  V30 27 1 7 25
M  V30 28 1 8 26
M  V30 29 1 9 27
M  V30 30 1 11 28
M  V30 31 1 12 29
M  V30 32 1 13 30
M  V30 33 1 14 31
M  V30 34 1 17 32
M  V30 35 1 18 33
M  V30 36 1 20 34
M  V30 37 1 21 35
M  V30 38 1 22 36
M  V30 39 1 23 37
M  V30 40 1 24 38
M  V30 END BOND
M  V30 END CTAB
M  END
>  <Structure No>
3309

>  <LogS>
-6.5891

>  <MMFF94 Energy>
87.809

$$$$
Compound 3310
Actelion Java MolfileCreator 2.0

  0  0  0  0  0  0              0 V3000
M  V30 BEGIN CTAB
M  V30 COUNTS 78 78 0 0 0
M  V30 BEGIN ATOM
M  V30 1 O 1.2598 0.9447 2.5996 0
M  V30 2 C 0.3251 0.4904 1.883 0
M  V30 3 O 0.337 0.6954 0.4965 0
M  V30 4 C -0.8141 -0.2103 2.5197 0
M  V30 5 C 1.4411 1.2641 -0.2056 0
M  V30 6 C -1.5407 -1.2414 1.8643 0
M  V30 7 C -1.2305 0.2132 3.7961 0
M  V30 8 C 2.5883 0.2502 -0.301 0
M  V30 9 C -1.1214 -1.8194 0.5713 0
M  V30 10 C -2.6924 -1.7655 2.4752 0
M  V30 11 C -2.3632 -0.338 4.3955 0
M  V30 12 C 3.7321 0.7215 -1.2153 0
M  V30 13 O 0.0986 -2.0095 0.3206 0
M  V30 14 O -2.0979 -2.1907 -0.353 0
M  V30 15 C -3.0994 -1.3169 3.7315 0
M  V30 16 C 4.4603 1.9937 -0.7389 0
M  V30 17 C -1.8052 -2.5253 -1.7044 0
M  V30 18 C 5.0588 1.9131 0.6808 0
M  V30 19 C -3.1065 -2.7941 -2.4668 0
M  V30 20 C 6.0126 0.7282 0.9223 0
M  V30 21 C -3.9052 -1.519 -2.8107 0
M  V30 22 C 7.2459 0.7564 0.0083 0
M  V30 23 C -4.3386 -0.6579 -1.6081 0
M  V30 24 C 8.2153 -0.3813 0.362 0
M  V30 25 C -5.2673 -1.4034 -0.6325 0
M  V30 26 C 9.4953 -0.3522 -0.4864 0
M  V30 27 C -5.673 -0.5337 0.5771 0
M  V30 28 C 9.2472 -0.7321 -1.9455 0
M  V30 29 C -7.1033 0.0308 0.4859 0
M  V30 30 C -7.3251 1.0651 -0.6342 0
M  V30 31 C -6.4832 2.3475 -0.5056 0
M  V30 32 C -6.8179 3.1554 0.7481 0
M  V30 33 H 1.7727 2.1947 0.3043 0
M  V30 34 H 1.101 1.5316 -1.2282 0
M  V30 35 H -0.6966 0.9979 4.3185 0
M  V30 36 H 2.1864 -0.6958 -0.724 0
M  V30 37 H 2.9741 0.0134 0.7126 0
M  V30 38 H -3.265 -2.5463 1.9906 0
M  V30 39 H -2.678 0.004 5.3728 0
M  V30 40 H 4.4665 -0.1055 -1.3237 0
M  V30 41 H 3.3247 0.9106 -2.2336 0
M  V30 42 H -3.981 -1.7391 4.1969 0
M  V30 43 H 5.2678 2.2301 -1.4646 0
M  V30 44 H 3.7589 2.8542 -0.7783 0
M  V30 45 H -1.2441 -1.6964 -2.1908 0
M  V30 46 H -1.1757 -3.4414 -1.7246 0
M  V30 47 H 4.2348 1.866 1.4242 0
M  V30 48 H 5.6072 2.8594 0.8825 0
M  V30 49 H -3.7369 -3.5101 -1.8982 0
M  V30 50 H -2.8462 -3.2951 -3.4244 0
M  V30 51 H 6.3498 0.7787 1.9808 0
M  V30 52 H 5.4708 -0.2335 0.7993 0
M  V30 53 H -4.8125 -1.8156 -3.3811 0
M  V30 54 H -3.2911 -0.8872 -3.4891 0
M  V30 55 H 6.9195 0.6383 -1.0446 0
M  V30 56 H 7.765 1.7333 0.1178 0
M  V30 57 H -3.4464 -0.2674 -1.076 0
M  V30 58 H -4.8704 0.2273 -2.0121 0
M  V30 59 H 8.5088 -0.2867 1.4304 0
M  V30 60 H 7.7072 -1.3631 0.2378 0
M  V30 61 H -4.7356 -2.2939 -0.2378 0
M  V30 62 H -6.1637 -1.7747 -1.1752 0
M  V30 63 H 9.9639 0.6543 -0.438 0
M  V30 64 H 10.2177 -1.0785 -0.0569 0
M  V30 65 H -5.6395 -1.1746 1.4849 0
M  V30 66 H -4.9384 0.2766 0.7613 0
M  V30 67 H 8.6509 0.0473 -2.4616 0
M  V30 68 H 10.2198 -0.823 -2.4733 0
M  V30 69 H 8.7189 -1.7068 -2.0106 0
M  V30 70 H -7.3749 0.4817 1.4633 0
M  V30 71 H -7.8104 -0.8126 0.3296 0
M  V30 72 H -8.4002 1.3463 -0.6403 0
M  V30 73 H -7.1255 0.5923 -1.6178 0
M  V30 74 H -5.3984 2.1159 -0.5201 0
M  V30 75 H -6.6892 2.9841 -1.3937 0
M  V30 76 H -7.9112 3.3434 0.8105 0
M  V30 77 H -6.4803 2.6211 1.6606 0
M  V30 78 H -6.2905 4.1321 0.7088 0
M  V30 END ATOM
M  V30 BEGIN BOND
M  V30 1 2 1 2
M  V30 2 1 2 3
M  V30 3 1 2 4
M  V30 4 1 3 5
M  V30 5 2 4 6
M  V30 6 1 4 7
M  V30 7 1 5 8
M  V30 8 1 6 9
M  V30 9 1 6 10
M  V30 10 2 7 11
M  V30 11 1 8 12
M  V30 12 2 9 13
M  V30 13 1 9 14
M  V30 14 2 10 15
M  V30 15 1 12 16
M  V30 16 1 14 17
M  V30 17 1 16 18
M  V30 18 1 17 19
M  V30 19 1 18 20
M  V30 20 1 19 21
M  V30 21 1 20 22
M  V30 22 1 21 23
M  V30 23 1 22 24
M  V30 24 1 23 25
M  V30 25 1 24 26
M  V30 26 1 25 27
M  V30 27 1 26 28
M  V30 28 1 27 29
M  V30 29 1 29 30
M  V30 30 1 30 31
M  V30 31 1 31 32
M  V30 32 1 11 15
M  V30 33 1 5 33
M  V30 34 1 5 34
M  V30 35 1 7 35
M  V30 36 1 8 36
M  V30 37 1 8 37
M  V30 38 1 10 38
M  V30 39 1 11 39
M  V30 40 1 12 40
M  V30 41 1 12 41
M  V30 42 1 15 42
M  V30 43 1 16 43
M  V30 44 1 16 44
M  V30 45 1 17 45
M  V30 46 1 17 46
M  V30 47 1 18 47
M  V30 48 1 18 48
M  V30 49 1 19 49
M  V30 50 1 19 50
M  V30 51 1 20 51
M  V30 52 1 20 52
M  V30 53 1 21 53
M  V30 54 1 21 54
M  V30 55 1 22 55
M  V30 56 1 22 56
M  V30 57 1 23 57
M  V30 58 1 23 58
M  V30 59 1 24 59
M  V30 60 1 24 60
M  V30 61 1 25 61
M  V30 62 1 25 62
M  V30 63 1 26 63
M  V30 64 1 26 64
M  V30 65 1 27 65
M  V30 66 1 27 66
M  V30 67 1 28 67
M  V30 68 1 28 68
M  V30 69 1 28 69
M  V30 70 1 29 70
M  V30 71 1 29 71
M  V30 72 1 30 72
M  V30 73 1 30 73
M  V30 74 1 31 74
M  V30 75 1 31 75
M  V30 76 1 32 76
M  V30 77 1 32 77
M  V30 78 1 32 78
M  V30 END BOND
M  V30 END CTAB
M  END
>  <Structure No>
3310

>  <LogS>
-9.3076

>  <MMFF94 Energy>
13.414

$$$$
Compound 3311
Actelion Java MolfileCreator 2.0

  0  0  0  0  0  0              0 V3000
M  V30 BEGIN CTAB
M  V30 COUNTS 33 35 0 0 0
M  V30 BEGIN ATOM
M  V30 1 O 4.8304 3.2183 0.2411 0
M  V30 2 C 4.0007 2.2829 0.0963 0
M  V30 3 O 2.7112 2.5046 0.3335 0
M  V30 4 C 4.437 1.0204 -0.3138 0
M  V30 5 C 1.7843 1.559 0.2 0
M  V30 6 C 3.5014 -0.0015 -0.4661 0
M  V30 7 C 2.1479 0.2533 -0.2033 0
M  V30 8 C 0.4452 1.8621 0.4578 0
M  V30 9 C 1.1585 -0.7433 -0.3313 0
M  V30 10 C -0.5382 0.8836 0.3014 0
M  V30 11 O 1.507 -2.0451 -0.7016 0
M  V30 12 C -0.1901 -0.4167 -0.0899 0
M  V30 13 O -1.8775 1.1957 0.5566 0
M  V30 14 C 1.9005 -3.008 0.2678 0
M  V30 15 C -1.2625 -1.4241 -0.1928 0
M  V30 16 C -2.9707 0.3645 0.1402 0
M  V30 17 C -2.5434 -1.0816 -0.0297 0
M  V30 18 C -4.0705 0.4485 1.2044 0
M  V30 19 C -3.5001 0.8884 -1.2007 0
M  V30 20 H 5.485 0.8338 -0.5128 0
M  V30 21 H 3.8375 -0.9779 -0.7905 0
M  V30 22 H 0.166 2.8613 0.7681 0
M  V30 23 H 1.076 -3.1777 0.992 0
M  V30 24 H 2.8029 -2.6583 0.812 0
M  V30 25 H 2.1349 -3.9644 -0.2422 0
M  V30 26 H -1.0201 -2.4605 -0.3904 0
M  V30 27 H -3.3036 -1.8478 -0.1277 0
M  V30 28 H -4.9563 -0.1542 0.9081 0
M  V30 29 H -3.6901 0.0677 2.1767 0
M  V30 30 H -4.3903 1.5034 1.3458 0
M  V30 31 H -2.7032 0.8376 -1.9736 0
M  V30 32 H -3.8194 1.948 -1.1014 0
M  V30 33 H -4.3681 0.2854 -1.5455 0
M  V30 END ATOM
M  V30 BEGIN BOND
M  V30 1 2 1 2
M  V30 2 1 2 3
M  V30 3 1 2 4
M  V30 4 1 3 5
M  V30 5 2 4 6
M  V30 6 2 5 7
M  V30 7 1 5 8
M  V30 8 1 7 9
M  V30 9 2 8 10
M  V30 10 1 9 11
M  V30 11 2 9 12
M  V30 12 1 10 13
M  V30 13 1 11 14
M  V30 14 1 12 15
M  V30 15 1 13 16
M  V30 16 2 15 17
M  V30 17 1 16 18
M  V30 18 1 16 19
M  V30 19 1 6 7
M  V30 20 1 10 12
M  V30 21 1 16 17
M  V30 22 1 4 20
M  V30 23 1 6 21
M  V30 24 1 8 22
M  V30 25 1 14 23
M  V30 26 1 14 24
M  V30 27 1 14 25
M  V30 28 1 15 26
M  V30 29 1 17 27
M  V30 30 1 18 28
M  V30 31 1 18 29
M  V30 32 1 18 30
M  V30 33 1 19 31
M  V30 34 1 19 32
M  V30 35 1 19 33
M  V30 END BOND
M  V30 END CTAB
M  END
>  <Structure No>
3311

>  <LogS>
-3.81

>  <MMFF94 Energy>
75.22

$$$$
Compound 3312
Actelion Java MolfileCreator 2.0

  0  0  0  0  0  0              0 V3000
M  V30 BEGIN CTAB
M  V30 COUNTS 20 21 0 0 0
M  V30 BEGIN ATOM
M  V30 1 Cl -4.5117 1.9668 0.2457 0
M  V30 2 C -2.8768 1.3467 0.1638 0
M  V30 3 N -2.6021 0.0252 0.011 0
M  V30 4 N -1.7841 2.1496 0.2498 0 CHG=-1
M  V30 5 C -1.2596 0.0163 0.0018 0
M  V30 6 C -0.7793 1.2682 0.1413 0
M  V30 7 N -0.4457 -1.0682 -0.1125 0
M  V30 8 C 0.5844 1.5009 0.1547 0
M  V30 9 C 0.9163 -0.8532 -0.1217 0
M  V30 10 C -1.0031 -2.4164 -0.2843 0
M  V30 11 O 1.0249 2.6735 0.3072 0
M  V30 12 N 1.432 0.4276 -0.0019 0
M  V30 13 O 1.7004 -1.8372 -0.2397 0
M  V30 14 C 2.8897 0.6319 0.0278 0
M  V30 15 H -0.4134 -3.158 0.2957 0
M  V30 16 H -0.9825 -2.6926 -1.3594 0
M  V30 17 H -2.0501 -2.4736 0.0824 0
M  V30 18 H 3.4067 -0.0862 -0.6438 0
M  V30 19 H 3.2631 0.4961 1.0646 0
M  V30 20 H 3.1656 1.6476 -0.3275 0
M  V30 END ATOM
M  V30 BEGIN BOND
M  V30 1 1 1 2
M  V30 2 2 2 3
M  V30 3 1 2 4
M  V30 4 1 3 5
M  V30 5 1 4 6
M  V30 6 1 5 7
M  V30 7 1 6 8
M  V30 8 1 7 9
M  V30 9 1 7 10
M  V30 10 2 8 11
M  V30 11 1 8 12
M  V30 12 2 9 13
M  V30 13 1 12 14
M  V30 14 2 5 6
M  V30 15 1 9 12
M  V30 16 1 10 15
M  V30 17 1 10 16
M  V30 18 1 10 17
M  V30 19 1 14 18
M  V30 20 1 14 19
M  V30 21 1 14 20
M  V30 END BOND
M  V30 END CTAB
M  END
>  <Structure No>
3312

>  <LogS>
-1.5075

>  <MMFF94 Energy>
-70.267

$$$$
Compound 3313
Actelion Java MolfileCreator 2.0

  0  0  0  0  0  0              0 V3000
M  V30 BEGIN CTAB
M  V30 COUNTS 26 27 0 0 0
M  V30 BEGIN ATOM
M  V30 1 Cl 5.5332 -0.4121 -1.3193 0
M  V30 2 C 3.9128 -0.4362 -0.648 0
M  V30 3 C 2.8211 -0.0726 -1.4411 0
M  V30 4 C 3.7107 -0.8235 0.6794 0
M  V30 5 C 1.5286 -0.0916 -0.9085 0
M  V30 6 C 2.4199 -0.8443 1.2162 0
M  V30 7 C 1.3134 -0.4703 0.4309 0
M  V30 8 C -0.0553 -0.5039 1.0072 0
M  V30 9 O -0.2709 -1.1651 2.0596 0
M  V30 10 C -1.1785 0.2458 0.3998 0
M  V30 11 C -2.4225 -0.3678 0.0915 0
M  V30 12 C -1.0244 1.6301 0.205 0
M  V30 13 C -2.6376 -1.8325 0.1996 0
M  V30 14 C -3.4797 0.4352 -0.3785 0
M  V30 15 C -2.0804 2.4031 -0.2774 0
M  V30 16 O -3.8007 -2.2931 0.3487 0
M  V30 17 O -1.5743 -2.7209 0.092 0 CHG=-1
M  V30 18 C -3.3073 1.808 -0.5623 0
M  V30 19 H 2.9718 0.221 -2.4721 0
M  V30 20 H 4.5529 -1.1086 1.2969 0
M  V30 21 H 0.6995 0.1773 -1.5501 0
M  V30 22 H 2.2886 -1.1447 2.2483 0
M  V30 23 H -0.0875 2.1168 0.448 0
M  V30 24 H -4.4384 -0.0035 -0.6266 0
M  V30 25 H -1.9501 3.4681 -0.4199 0
M  V30 26 H -4.1265 2.411 -0.9326 0
M  V30 END ATOM
M  V30 BEGIN BOND
M  V30 1 1 1 2
M  V30 2 2 2 3
M  V30 3 1 2 4
M  V30 4 1 3 5
M  V30 5 2 4 6
M  V30 6 2 5 7
M  V30 7 1 7 8
M  V30 8 2 8 9
M  V30 9 1 8 10
M  V30 10 2 10 11
M  V30 11 1 10 12
M  V30 12 1 11 13
M  V30 13 1 11 14
M  V30 14 2 12 15
M  V30 15 2 13 16
M  V30 16 1 13 17
M  V30 17 2 14 18
M  V30 18 1 6 7
M  V30 19 1 15 18
M  V30 20 1 3 19
M  V30 21 1 4 20
M  V30 22 1 5 21
M  V30 23 1 6 22
M  V30 24 1 12 23
M  V30 25 1 14 24
M  V30 26 1 15 25
M  V30 27 1 18 26
M  V30 END BOND
M  V30 END CTAB
M  END
>  <Structure No>
3313

>  <LogS>
-2.7171

>  <MMFF94 Energy>
71.287

$$$$
Compound 3314
Actelion Java MolfileCreator 2.0

  0  0  0  0  0  0              0 V3000
M  V30 BEGIN CTAB
M  V30 COUNTS 31 32 0 0 0
M  V30 BEGIN ATOM
M  V30 1 O 2.5725 1.0444 -2.7334 0
M  V30 2 C 2.0887 1.0617 -1.5702 0
M  V30 3 O 0.8759 1.7059 -1.3554 0 CHG=-1
M  V30 4 C 2.8349 0.454 -0.4422 0
M  V30 5 C 2.1871 -0.0662 0.7114 0
M  V30 6 C 4.2419 0.4558 -0.4926 0
M  V30 7 C 0.718 -0.2247 0.7974 0
M  V30 8 C 2.9653 -0.5066 1.797 0
M  V30 9 C 4.9955 -0.007 0.5868 0
M  V30 10 O 0.1291 0.0487 1.8789 0
M  V30 11 N -0.017 -0.7822 -0.3042 0
M  V30 12 C 4.3587 -0.4766 1.7336 0
M  V30 13 C -1.4478 -0.7172 -0.4317 0
M  V30 14 C -2.1782 0.386 0.0482 0
M  V30 15 C -2.1258 -1.748 -1.0991 0
M  V30 16 C -3.5714 0.4446 -0.1169 0
M  V30 17 C -3.5141 -1.7016 -1.2479 0
M  V30 18 C -4.2373 -0.6153 -0.7499 0
M  V30 19 C -4.3488 1.6031 0.4347 0
M  V30 20 H 4.7622 0.8456 -1.3591 0
M  V30 21 H 2.4921 -0.9044 2.6869 0
M  V30 22 H 6.0767 0.0106 0.5386 0
M  V30 23 H 0.5155 -1.3365 -1.0127 0
M  V30 24 H 4.946 -0.8297 2.5715 0
M  V30 25 H -1.6664 1.2114 0.5263 0
M  V30 26 H -1.5778 -2.5957 -1.4912 0
M  V30 27 H -4.0308 -2.5101 -1.7489 0
M  V30 28 H -5.3139 -0.5966 -0.8657 0
M  V30 29 H -4.6187 1.3964 1.4915 0
M  V30 30 H -3.746 2.5353 0.3903 0
M  V30 31 H -5.2783 1.7681 -0.1507 0
M  V30 END ATOM
M  V30 BEGIN BOND
M  V30 1 2 1 2
M  V30 2 1 2 3
M  V30 3 1 2 4
M  V30 4 2 4 5
M  V30 5 1 4 6
M  V30 6 1 5 7
M  V30 7 1 5 8
M  V30 8 2 6 9
M  V30 9 2 7 10
M  V30 10 1 7 11
M  V30 11 2 8 12
M  V30 12 1 11 13
M  V30 13 2 13 14
M  V30 14 1 13 15
M  V30 15 1 14 16
M  V30 16 2 15 17
M  V30 17 2 16 18
M  V30 18 1 16 19
M  V30 19 1 9 12
M  V30 20 1 17 18
M  V30 21 1 6 20
M  V30 22 1 8 21
M  V30 23 1 9 22
M  V30 24 1 11 23
M  V30 25 1 12 24
M  V30 26 1 14 25
M  V30 27 1 15 26
M  V30 28 1 17 27
M  V30 29 1 18 28
M  V30 30 1 19 29
M  V30 31 1 19 30
M  V30 32 1 19 31
M  V30 END BOND
M  V30 END CTAB
M  END
>  <Structure No>
3314

>  <LogS>
-2.407

>  <MMFF94 Energy>
25.876

$$$$
Compound 3315
Actelion Java MolfileCreator 2.0

  0  0  0  0  0  0              0 V3000
M  V30 BEGIN CTAB
M  V30 COUNTS 26 27 0 0 0
M  V30 BEGIN ATOM
M  V30 1 S -0.8636 3.0251 -0.6908 0
M  V30 2 O 0.221 3.2433 -1.7078 0
M  V30 3 O -0.4436 3.5997 0.6327 0
M  V30 4 O -2.2479 3.8272 -1.2062 0 CHG=-1
M  V30 5 C -1.1784 1.2885 -0.5159 0
M  V30 6 C -0.1845 0.3677 -0.0894 0
M  V30 7 C -2.4654 0.8246 -0.8049 0
M  V30 8 C -0.5102 -1.0179 0.0307 0
M  V30 9 C 1.1247 0.7926 0.2268 0
M  V30 10 C -2.7797 -0.5247 -0.6972 0
M  V30 11 C -1.8196 -1.4598 -0.2995 0
M  V30 12 C 0.479 -1.9117 0.4956 0
M  V30 13 C 2.0891 -0.1145 0.6733 0
M  V30 14 N -2.2044 -2.8436 -0.2593 0
M  V30 15 C 1.7614 -1.4629 0.805 0
M  V30 16 S 3.7159 0.444 1.0522 0
M  V30 17 O 4.3667 -0.4919 2.0317 0
M  V30 18 O 3.6527 1.8151 1.6647 0
M  V30 19 O 4.6285 0.5001 -0.3562 0 CHG=-1
M  V30 20 H -3.2398 1.5089 -1.1249 0
M  V30 21 H 1.4162 1.8279 0.1347 0
M  V30 22 H -3.7837 -0.8482 -0.9437 0
M  V30 23 H 0.2833 -2.9611 0.646 0
M  V30 24 H -1.5185 -3.6266 -0.2431 0
M  V30 25 H -3.2075 -3.1121 -0.3743 0
M  V30 26 H 2.5006 -2.1739 1.1516 0
M  V30 END ATOM
M  V30 BEGIN BOND
M  V30 1 2 1 2
M  V30 2 2 1 3
M  V30 3 1 1 4
M  V30 4 1 1 5
M  V30 5 1 5 6
M  V30 6 2 5 7
M  V30 7 1 6 8
M  V30 8 2 6 9
M  V30 9 1 7 10
M  V30 10 1 8 11
M  V30 11 2 8 12
M  V30 12 1 9 13
M  V30 13 1 11 14
M  V30 14 1 12 15
M  V30 15 1 13 16
M  V30 16 2 16 17
M  V30 17 2 16 18
M  V30 18 1 16 19
M  V30 19 2 10 11
M  V30 20 2 13 15
M  V30 21 1 7 20
M  V30 22 1 9 21
M  V30 23 1 10 22
M  V30 24 1 12 23
M  V30 25 1 14 24
M  V30 26 1 14 25
M  V30 27 1 15 26
M  V30 END BOND
M  V30 END CTAB
M  END
>  <Structure No>
3315

>  <LogS>
-0.2592

>  <MMFF94 Energy>
140.95

$$$$
Compound 3316
Actelion Java MolfileCreator 2.0

  0  0  0  0  0  0              0 V3000
M  V30 BEGIN CTAB
M  V30 COUNTS 26 27 0 0 0
M  V30 BEGIN ATOM
M  V30 1 S -3.1982 -1.7278 0.0863 0
M  V30 2 O -3.022 -2.5239 -1.1758 0
M  V30 3 O -4.6259 -1.2647 0.169 0
M  V30 4 O -2.8739 -2.6959 1.4206 0 CHG=-1
M  V30 5 C -2.0921 -0.3404 0.0748 0
M  V30 6 C -0.6807 -0.4905 0.0369 0
M  V30 7 C -2.6446 0.944 0.1148 0
M  V30 8 C 0.1545 0.6681 0.036 0
M  V30 9 C -0.078 -1.7661 0.0042 0
M  V30 10 C -1.8329 2.0719 0.1009 0
M  V30 11 C -0.4406 1.9583 0.0449 0
M  V30 12 C 1.5571 0.4982 0.0483 0
M  V30 13 C 1.3077 -1.9035 -0.0061 0
M  V30 14 N 0.3308 3.1687 -0.0198 0
M  V30 15 C 2.1286 -0.7774 0.0296 0
M  V30 16 S 3.8808 -0.9579 0.0284 0
M  V30 17 O 4.2601 -2.3097 0.5646 0
M  V30 18 O 4.5007 0.0978 0.9 0
M  V30 19 O 4.4566 -0.7996 -1.541 0 CHG=-1
M  V30 20 H -3.7171 1.083 0.1494 0
M  V30 21 H -0.6632 -2.6732 -0.0123 0
M  V30 22 H -2.2977 3.05 0.1168 0
M  V30 23 H 2.2288 1.3403 0.0907 0
M  V30 24 H 1.7398 -2.8956 -0.035 0
M  V30 25 H 1.3174 3.1981 -0.3512 0
M  V30 26 H -0.1296 4.0928 0.1391 0
M  V30 END ATOM
M  V30 BEGIN BOND
M  V30 1 2 1 2
M  V30 2 2 1 3
M  V30 3 1 1 4
M  V30 4 1 1 5
M  V30 5 1 5 6
M  V30 6 2 5 7
M  V30 7 1 6 8
M  V30 8 2 6 9
M  V30 9 1 7 10
M  V30 10 1 8 11
M  V30 11 2 8 12
M  V30 12 1 9 13
M  V30 13 1 11 14
M  V30 14 1 12 15
M  V30 15 1 15 16
M  V30 16 2 16 17
M  V30 17 2 16 18
M  V30 18 1 16 19
M  V30 19 2 10 11
M  V30 20 2 13 15
M  V30 21 1 7 20
M  V30 22 1 9 21
M  V30 23 1 10 22
M  V30 24 1 12 23
M  V30 25 1 13 24
M  V30 26 1 14 25
M  V30 27 1 14 26
M  V30 END BOND
M  V30 END CTAB
M  END
>  <Structure No>
3316

>  <LogS>
-1.643

>  <MMFF94 Energy>
125.45

$$$$
Compound 3317
Actelion Java MolfileCreator 2.0

  0  0  0  0  0  0              0 V3000
M  V30 BEGIN CTAB
M  V30 COUNTS 26 27 0 0 0
M  V30 BEGIN ATOM
M  V30 1 N -0.3983 -3.6692 0.5577 0
M  V30 2 C -0.1447 -2.5531 0.7285 0
M  V30 3 C 0.1787 -1.1312 0.9466 0
M  V30 4 C 1.2307 -0.6399 -0.0265 0
M  V30 5 C -1.057 -0.2576 0.8742 0
M  V30 6 C 2.2715 0.1872 0.4345 0
M  V30 7 C 1.1539 -0.9316 -1.4037 0
M  V30 8 C -2.0032 -0.404 -0.1607 0
M  V30 9 C -1.2352 0.7731 1.8152 0
M  V30 10 C 3.228 0.6861 -0.4546 0
M  V30 11 C 2.1133 -0.43 -2.2881 0
M  V30 12 C -3.113 0.4432 -0.2304 0
M  V30 13 C -2.347 1.6177 1.7403 0
M  V30 14 C 3.1504 0.376 -1.8139 0
M  V30 15 C -3.2861 1.4515 0.7202 0
M  V30 16 H 0.5928 -1.0836 1.9783 0
M  V30 17 H 2.3412 0.4494 1.4831 0
M  V30 18 H 0.3553 -1.5483 -1.7942 0
M  V30 19 H -1.886 -1.1738 -0.9118 0
M  V30 20 H -0.5115 0.9261 2.6063 0
M  V30 21 H 4.0275 1.3177 -0.0895 0
M  V30 22 H 2.0503 -0.664 -3.343 0
M  V30 23 H -3.838 0.3199 -1.0246 0
M  V30 24 H -2.4779 2.4048 2.4716 0
M  V30 25 H 3.8911 0.7645 -2.5007 0
M  V30 26 H -4.1452 2.1074 0.6632 0
M  V30 END ATOM
M  V30 BEGIN BOND
M  V30 1 3 1 2
M  V30 2 1 2 3
M  V30 3 1 3 4
M  V30 4 1 3 5
M  V30 5 2 4 6
M  V30 6 1 4 7
M  V30 7 2 5 8
M  V30 8 1 5 9
M  V30 9 1 6 10
M  V30 10 2 7 11
M  V30 11 1 8 12
M  V30 12 2 9 13
M  V30 13 2 10 14
M  V30 14 2 12 15
M  V30 15 1 11 14
M  V30 16 1 13 15
M  V30 17 1 3 16
M  V30 18 1 6 17
M  V30 19 1 7 18
M  V30 20 1 8 19
M  V30 21 1 9 20
M  V30 22 1 10 21
M  V30 23 1 11 22
M  V30 24 1 12 23
M  V30 25 1 13 24
M  V30 26 1 14 25
M  V30 27 1 15 26
M  V30 END BOND
M  V30 END CTAB
M  END
>  <Structure No>
3317

>  <LogS>
-2.9437

>  <MMFF94 Energy>
77.258

$$$$
Compound 3318
Actelion Java MolfileCreator 2.0

  0  0  0  0  0  0              0 V3000
M  V30 BEGIN CTAB
M  V30 COUNTS 19 20 0 0 0
M  V30 BEGIN ATOM
M  V30 1 O -2.6007 2.8448 0.2436 0
M  V30 2 C -1.4153 2.4179 0.226 0
M  V30 3 O -0.379 3.3368 0.3419 0 CHG=-1
M  V30 4 C -1.1443 0.9608 0.0838 0
M  V30 5 C 0.1716 0.435 0.059 0
M  V30 6 C -2.2299 0.0694 -0.0302 0
M  V30 7 N 1.2576 1.2518 0.1656 0
M  V30 8 C 0.3726 -0.961 -0.0784 0
M  V30 9 C -2.0205 -1.3042 -0.1653 0
M  V30 10 C 2.5302 0.7754 0.1448 0
M  V30 11 C 1.6804 -1.4647 -0.1012 0
M  V30 12 C -0.7264 -1.8206 -0.1897 0
M  V30 13 C 2.7634 -0.5931 0.0109 0
M  V30 14 H -3.2496 0.4338 -0.0154 0
M  V30 15 H -2.8679 -1.9722 -0.2516 0
M  V30 16 H 3.3622 1.4611 0.2327 0
M  V30 17 H 1.8633 -2.5276 -0.2052 0
M  V30 18 H -0.5846 -2.8897 -0.2952 0
M  V30 19 H 3.7759 -0.9752 -0.0058 0
M  V30 END ATOM
M  V30 BEGIN BOND
M  V30 1 2 1 2
M  V30 2 1 2 3
M  V30 3 1 2 4
M  V30 4 1 4 5
M  V30 5 2 4 6
M  V30 6 2 5 7
M  V30 7 1 5 8
M  V30 8 1 6 9
M  V30 9 1 7 10
M  V30 10 2 8 11
M  V30 11 1 8 12
M  V30 12 2 10 13
M  V30 13 2 9 12
M  V30 14 1 11 13
M  V30 15 1 6 14
M  V30 16 1 9 15
M  V30 17 1 10 16
M  V30 18 1 11 17
M  V30 19 1 12 18
M  V30 20 1 13 19
M  V30 END BOND
M  V30 END CTAB
M  END
>  <Structure No>
3318

>  <LogS>
-1.7447

>  <MMFF94 Energy>
57.032

$$$$
Compound 3319
Actelion Java MolfileCreator 2.0

  0  0  0  0  0  0              0 V3000
M  V30 BEGIN CTAB
M  V30 COUNTS 26 26 0 0 0
M  V30 BEGIN ATOM
M  V30 1 O 0.791 4.1188 0.3954 0
M  V30 2 C -0.2422 3.4455 0.1385 0
M  V30 3 C -0.1884 1.9745 0.0319 0
M  V30 4 C 1.0144 1.2792 0.2133 0
M  V30 5 C -1.3565 1.2622 -0.2546 0
M  V30 6 C 1.0622 -0.1252 0.1108 0
M  V30 7 C -1.3338 -0.1391 -0.3617 0
M  V30 8 O 2.269 -0.8192 0.2932 0
M  V30 9 C -0.1294 -0.8391 -0.1804 0
M  V30 10 O -2.4931 -0.8786 -0.6488 0
M  V30 11 C 3.5246 -0.2152 0.5884 0
M  V30 12 O -0.1901 -2.2409 -0.304 0
M  V30 13 C -3.7836 -0.3136 -0.8578 0
M  V30 14 C 0.8924 -3.154 -0.1636 0
M  V30 15 H -1.1815 3.9646 -0.0049 0
M  V30 16 H 1.9132 1.8379 0.4348 0
M  V30 17 H -2.2819 1.8058 -0.3934 0
M  V30 18 H 3.819 0.4747 -0.2301 0
M  V30 19 H 4.295 -1.0083 0.677 0
M  V30 20 H 3.4681 0.3327 1.5527 0
M  V30 21 H -4.114 0.2311 0.0518 0
M  V30 22 H -4.5066 -1.1288 -1.0649 0
M  V30 23 H -3.7633 0.3731 -1.7301 0
M  V30 24 H 1.6693 -2.9507 -0.9303 0
M  V30 25 H 0.5139 -4.1847 -0.3202 0
M  V30 26 H 1.3168 -3.0933 0.8605 0
M  V30 END ATOM
M  V30 BEGIN BOND
M  V30 1 2 1 2
M  V30 2 1 2 3
M  V30 3 2 3 4
M  V30 4 1 3 5
M  V30 5 1 4 6
M  V30 6 2 5 7
M  V30 7 1 6 8
M  V30 8 2 6 9
M  V30 9 1 7 10
M  V30 10 1 8 11
M  V30 11 1 9 12
M  V30 12 1 10 13
M  V30 13 1 12 14
M  V30 14 1 7 9
M  V30 15 1 2 15
M  V30 16 1 4 16
M  V30 17 1 5 17
M  V30 18 1 11 18
M  V30 19 1 11 19
M  V30 20 1 11 20
M  V30 21 1 13 21
M  V30 22 1 13 22
M  V30 23 1 13 23
M  V30 24 1 14 24
M  V30 25 1 14 25
M  V30 26 1 14 26
M  V30 END BOND
M  V30 END CTAB
M  END
>  <Structure No>
3319

>  <LogS>
-2.1195

>  <MMFF94 Energy>
62.38

$$$$
Compound 3320
Actelion Java MolfileCreator 2.0

  0  0  0  0  0  0              0 V3000
M  V30 BEGIN CTAB
M  V30 COUNTS 31 31 0 0 0
M  V30 BEGIN ATOM
M  V30 1 O -0.7095 0.6306 1.4984 0
M  V30 2 C -1.1392 -0.1662 0.62 0
M  V30 3 O -0.2817 -1.117 0.0523 0
M  V30 4 C -2.5659 -0.1528 0.232 0
M  V30 5 C 1.1141 -1.1861 0.3374 0
M  V30 6 C -3.3397 1.0362 0.1924 0
M  V30 7 C -3.1832 -1.3771 -0.0831 0
M  V30 8 C 1.8622 -0.0507 -0.3747 0
M  V30 9 O -2.7863 2.3024 0.3965 0
M  V30 10 C -4.7087 0.9621 -0.0953 0
M  V30 11 C -4.545 -1.4308 -0.3883 0
M  V30 12 C 3.3977 -0.1949 -0.2838 0
M  V30 13 C -5.3089 -0.2642 -0.3847 0
M  V30 14 C 4.076 0.8142 -1.2192 0
M  V30 15 C 3.9065 0.002 1.1523 0
M  V30 16 H 1.2733 -1.1435 1.4359 0
M  V30 17 H 1.4935 -2.1633 -0.0296 0
M  V30 18 H -2.6164 -2.3002 -0.0673 0
M  V30 19 H 1.5495 0.9285 0.0489 0
M  V30 20 H 1.5594 -0.0651 -1.445 0
M  V30 21 H -1.7917 2.4757 0.4437 0
M  V30 22 H -5.3058 1.8653 -0.1166 0
M  V30 23 H -5.0108 -2.3805 -0.6179 0
M  V30 24 H 3.6868 -1.2147 -0.6225 0
M  V30 25 H -6.3655 -0.3085 -0.6157 0
M  V30 26 H 5.1798 0.6925 -1.1821 0
M  V30 27 H 3.8193 1.855 -0.925 0
M  V30 28 H 3.7494 0.6468 -2.2678 0
M  V30 29 H 5.0167 -0.0352 1.1752 0
M  V30 30 H 3.5357 -0.8074 1.8141 0
M  V30 31 H 3.5745 0.9828 1.556 0
M  V30 END ATOM
M  V30 BEGIN BOND
M  V30 1 2 1 2
M  V30 2 1 2 3
M  V30 3 1 2 4
M  V30 4 1 3 5
M  V30 5 2 4 6
M  V30 6 1 4 7
M  V30 7 1 5 8
M  V30 8 1 6 9
M  V30 9 1 6 10
M  V30 10 2 7 11
M  V30 11 1 8 12
M  V30 12 2 10 13
M  V30 13 1 12 14
M  V30 14 1 12 15
M  V30 15 1 11 13
M  V30 16 1 5 16
M  V30 17 1 5 17
M  V30 18 1 7 18
M  V30 19 1 8 19
M  V30 20 1 8 20
M  V30 21 1 9 21
M  V30 22 1 10 22
M  V30 23 1 11 23
M  V30 24 1 12 24
M  V30 25 1 13 25
M  V30 26 1 14 26
M  V30 27 1 14 27
M  V30 28 1 14 28
M  V30 29 1 15 29
M  V30 30 1 15 30
M  V30 31 1 15 31
M  V30 END BOND
M  V30 END CTAB
M  END
>  <Structure No>
3320

>  <LogS>
-3.1572

>  <MMFF94 Energy>
29.316

$$$$
Compound 3321
Actelion Java MolfileCreator 2.0

  0  0  0  0  0  0              0 V3000
M  V30 BEGIN CTAB
M  V30 COUNTS 23 23 0 0 0
M  V30 BEGIN ATOM
M  V30 1 O 0.8697 0.3952 1.6608 0
M  V30 2 C 0.3689 -0.1062 0.6167 0
M  V30 3 O 1.194 -0.7055 -0.3424 0
M  V30 4 C -1.0878 -0.0085 0.385 0
M  V30 5 C 2.6136 -0.7759 -0.226 0
M  V30 6 C -1.8209 -1.0251 -0.2777 0
M  V30 7 C -1.7614 1.1537 0.8048 0
M  V30 8 C 3.2475 0.5771 -0.5502 0
M  V30 9 O -1.2512 -2.2473 -0.64 0
M  V30 10 C -3.1796 -0.8295 -0.5565 0
M  V30 11 C -3.1215 1.324 0.5377 0
M  V30 12 O 4.645 0.4773 -0.5234 0
M  V30 13 C -3.8274 0.3382 -0.1506 0
M  V30 14 H 2.9877 -1.5308 -0.9494 0
M  V30 15 H 2.9001 -1.1067 0.7962 0
M  V30 16 H -1.2276 1.9449 1.3171 0
M  V30 17 H 2.9023 1.3528 0.1695 0
M  V30 18 H 2.9338 0.8913 -1.5682 0
M  V30 19 H -0.3369 -2.5475 -0.3312 0
M  V30 20 H -3.7414 -1.5987 -1.0711 0
M  V30 21 H -3.6262 2.2272 0.8558 0
M  V30 22 H 4.9091 0.4522 0.4333 0
M  V30 23 H -4.8801 0.4747 -0.3622 0
M  V30 END ATOM
M  V30 BEGIN BOND
M  V30 1 2 1 2
M  V30 2 1 2 3
M  V30 3 1 2 4
M  V30 4 1 3 5
M  V30 5 2 4 6
M  V30 6 1 4 7
M  V30 7 1 5 8
M  V30 8 1 6 9
M  V30 9 1 6 10
M  V30 10 2 7 11
M  V30 11 1 8 12
M  V30 12 2 10 13
M  V30 13 1 11 13
M  V30 14 1 5 14
M  V30 15 1 5 15
M  V30 16 1 7 16
M  V30 17 1 8 17
M  V30 18 1 8 18
M  V30 19 1 9 19
M  V30 20 1 10 20
M  V30 21 1 11 21
M  V30 22 1 12 22
M  V30 23 1 13 23
M  V30 END BOND
M  V30 END CTAB
M  END
>  <Structure No>
3321

>  <LogS>
-1.1567

>  <MMFF94 Energy>
39.678

$$$$
Compound 3322
Actelion Java MolfileCreator 2.0

  0  0  0  0  0  0              0 V3000
M  V30 BEGIN CTAB
M  V30 COUNTS 31 32 0 0 0
M  V30 BEGIN ATOM
M  V30 1 O -0.4791 -2.5573 0.8785 0
M  V30 2 C -0.8825 -1.4527 1.3288 0
M  V30 3 O -0.7496 -1.1775 2.6849 0 CHG=-1
M  V30 4 C -1.4789 -0.4302 0.3989 0 CFG=1
M  V30 5 N -2.7979 -0.0216 0.8907 0
M  V30 6 C -0.569 0.8034 0.2731 0
M  V30 7 C -3.8417 0.4221 0.0127 0
M  V30 8 C 0.7294 0.4668 -0.4036 0
M  V30 9 O -3.6721 0.4188 -1.2363 0
M  V30 10 C -5.1326 0.9152 0.5807 0
M  V30 11 C 1.9394 0.1578 0.188 0
M  V30 12 C 0.9283 0.3108 -1.7723 0
M  V30 13 C 2.8082 -0.1528 -0.8273 0
M  V30 14 C 2.3308 0.1166 1.5268 0
M  V30 15 N 2.2035 -0.0622 -2.0246 0
M  V30 16 C 4.1284 -0.5231 -0.5742 0
M  V30 17 C 3.6582 -0.2521 1.8116 0
M  V30 18 C 4.5531 -0.57 0.7661 0
M  V30 19 H -1.5934 -0.8976 -0.6055 0
M  V30 20 H -2.947 0.0829 1.9206 0
M  V30 21 H -1.0863 1.5778 -0.3337 0
M  V30 22 H -0.378 1.2466 1.2743 0
M  V30 23 H -5.8709 1.1013 -0.2283 0
M  V30 24 H -5.5473 0.1564 1.277 0
M  V30 25 H -4.9558 1.8613 1.1342 0
M  V30 26 H 0.1766 0.4493 -2.5385 0
M  V30 27 H 1.6425 0.3603 2.3254 0
M  V30 28 H 2.6248 -0.2546 -2.9604 0
M  V30 29 H 4.8053 -0.7701 -1.382 0
M  V30 30 H 3.9957 -0.2927 2.8389 0
M  V30 31 H 5.5715 -0.8537 0.9973 0
M  V30 END ATOM
M  V30 BEGIN BOND
M  V30 1 2 1 2
M  V30 2 1 2 3
M  V30 3 1 2 4
M  V30 4 1 4 5
M  V30 5 1 4 6
M  V30 6 1 5 7
M  V30 7 1 6 8
M  V30 8 2 7 9
M  V30 9 1 7 10
M  V30 10 1 8 11
M  V30 11 2 8 12
M  V30 12 2 11 13
M  V30 13 1 11 14
M  V30 14 1 12 15
M  V30 15 1 13 16
M  V30 16 2 14 17
M  V30 17 2 16 18
M  V30 18 1 13 15
M  V30 19 1 17 18
M  V30 20 1 4 19
M  V30 21 1 5 20
M  V30 22 1 6 21
M  V30 23 1 6 22
M  V30 24 1 10 23
M  V30 25 1 10 24
M  V30 26 1 10 25
M  V30 27 1 12 26
M  V30 28 1 14 27
M  V30 29 1 15 28
M  V30 30 1 16 29
M  V30 31 1 17 30
M  V30 32 1 18 31
M  V30 END BOND
M  V30 BEGIN COLLECTION
M  V30 MDLV30/STEABS ATOMS=(1 4)
M  V30 END COLLECTION
M  V30 END CTAB
M  END
>  <Structure No>
3322

>  <LogS>
-2.3122

>  <MMFF94 Energy>
50.059

$$$$
Compound 3323
Actelion Java MolfileCreator 2.0

  0  0  0  0  0  0              0 V3000
M  V30 BEGIN CTAB
M  V30 COUNTS 13 14 0 0 0
M  V30 BEGIN ATOM
M  V30 1 Cl -0.8289 2.9034 -0.0828 0
M  V30 2 C -0.9358 1.154 -0.0513 0
M  V30 3 N -2.1523 0.5329 -0.0352 0
M  V30 4 C 0.1948 0.3482 -0.0413 0
M  V30 5 C -2.2546 -0.8354 -0.0103 0
M  V30 6 N 1.4916 0.6764 -0.0523 0
M  V30 7 C 0.0748 -0.9981 -0.0168 0
M  V30 8 N -1.1309 -1.6155 -9.0E-4 0
M  V30 9 C 2.1264 -0.5231 -0.0333 0
M  V30 10 N 1.2806 -1.5902 -0.0109 0
M  V30 11 H -3.2309 -1.3003 0.0018 0
M  V30 12 H 1.9204 1.6284 -0.071 0
M  V30 13 H 3.2037 -0.6233 -0.0358 0
M  V30 END ATOM
M  V30 BEGIN BOND
M  V30 1 1 1 2
M  V30 2 2 2 3
M  V30 3 1 2 4
M  V30 4 1 3 5
M  V30 5 1 4 6
M  V30 6 2 4 7
M  V30 7 2 5 8
M  V30 8 1 6 9
M  V30 9 1 7 10
M  V30 10 1 7 8
M  V30 11 2 9 10
M  V30 12 1 5 11
M  V30 13 1 6 12
M  V30 14 1 9 13
M  V30 END BOND
M  V30 END CTAB
M  END
>  <Structure No>
3323

>  <LogS>
-1.4901

>  <MMFF94 Energy>
-53.94

$$$$
Compound 3324
Actelion Java MolfileCreator 2.0

  0  0  0  0  0  0              0 V3000
M  V30 BEGIN CTAB
M  V30 COUNTS 33 34 0 0 0
M  V30 BEGIN ATOM
M  V30 1 O 1.1079 -0.5538 -1.583 0
M  V30 2 C 1.7035 -0.2056 -0.5257 0
M  V30 3 O 1.3003 0.9459 0.1618 0
M  V30 4 N 2.8127 -0.9776 -0.0368 0
M  V30 5 C 0.0779 1.5906 -0.0568 0
M  V30 6 C 3.493 -0.5572 1.1897 0
M  V30 7 C 3.2308 -2.1862 -0.7521 0
M  V30 8 N -1.1279 0.9905 -0.1887 0
M  V30 9 C -0.0712 2.953 -0.1802 0
M  V30 10 N -2.0441 1.9182 -0.422 0
M  V30 11 C -1.4543 -0.3962 0.001 0
M  V30 12 C -1.4201 3.1135 -0.4374 0
M  V30 13 C -2.4137 -1.0077 -0.8218 0
M  V30 14 C -0.86 -1.1432 1.034 0
M  V30 15 C -2.1249 4.4174 -0.6064 0
M  V30 16 C -2.7463 -2.3536 -0.6387 0
M  V30 17 C -1.1938 -2.4889 1.213 0
M  V30 18 C -2.1336 -3.0947 0.3751 0
M  V30 19 H 2.7688 -0.5408 2.0319 0
M  V30 20 H 4.3215 -1.246 1.4566 0
M  V30 21 H 3.9165 0.4601 1.0526 0
M  V30 22 H 3.534 -1.9219 -1.7871 0
M  V30 23 H 2.3873 -2.9077 -0.791 0
M  V30 24 H 4.0899 -2.6816 -0.2535 0
M  V30 25 H 0.6928 3.7162 -0.1135 0
M  V30 26 H -2.8925 -0.4446 -1.613 0
M  V30 27 H -0.1478 -0.6825 1.7061 0
M  V30 28 H -2.3866 4.8285 0.3906 0
M  V30 29 H -1.4699 5.1382 -1.1397 0
M  V30 30 H -3.0538 4.2725 -1.1968 0
M  V30 31 H -3.479 -2.8218 -1.2831 0
M  V30 32 H -0.7281 -3.0604 2.0054 0
M  V30 33 H -2.392 -4.1363 0.5158 0
M  V30 END ATOM
M  V30 BEGIN BOND
M  V30 1 2 1 2
M  V30 2 1 2 3
M  V30 3 1 2 4
M  V30 4 1 3 5
M  V30 5 1 4 6
M  V30 6 1 4 7
M  V30 7 1 5 8
M  V30 8 2 5 9
M  V30 9 1 8 10
M  V30 10 1 8 11
M  V30 11 1 9 12
M  V30 12 2 11 13
M  V30 13 1 11 14
M  V30 14 1 12 15
M  V30 15 1 13 16
M  V30 16 2 14 17
M  V30 17 2 16 18
M  V30 18 2 10 12
M  V30 19 1 17 18
M  V30 20 1 6 19
M  V30 21 1 6 20
M  V30 22 1 6 21
M  V30 23 1 7 22
M  V30 24 1 7 23
M  V30 25 1 7 24
M  V30 26 1 9 25
M  V30 27 1 13 26
M  V30 28 1 14 27
M  V30 29 1 15 28
M  V30 30 1 15 29
M  V30 31 1 15 30
M  V30 32 1 16 31
M  V30 33 1 17 32
M  V30 34 1 18 33
M  V30 END BOND
M  V30 END CTAB
M  END
>  <Structure No>
3324

>  <LogS>
-2.0886

>  <MMFF94 Energy>
35.313

$$$$
Compound 3325
Actelion Java MolfileCreator 2.0

  0  0  0  0  0  0              0 V3000
M  V30 BEGIN CTAB
M  V30 COUNTS 16 16 0 0 0
M  V30 BEGIN ATOM
M  V30 1 Cl 2.4239 2.5048 0.1614 0
M  V30 2 C 1.5103 1.0105 0.0171 0
M  V30 3 C 0.1086 1.0199 0.1066 0
M  V30 4 C 2.1954 -0.1905 -0.1882 0
M  V30 5 O -0.5431 2.2391 0.3125 0
M  V30 6 C -0.6086 -0.1943 -0.0121 0
M  V30 7 C 1.4903 -1.3883 -0.3056 0
M  V30 8 C 0.0968 -1.3926 -0.2184 0
M  V30 9 C -2.1096 -0.2248 0.0782 0
M  V30 10 H 3.2758 -0.1964 -0.2569 0
M  V30 11 H -1.5487 2.3229 0.3872 0
M  V30 12 H 2.0246 -2.3159 -0.4646 0
M  V30 13 H -0.4306 -2.3339 -0.3124 0
M  V30 14 H -2.5067 -1.256 -0.0359 0
M  V30 15 H -2.5472 0.4027 -0.7264 0
M  V30 16 H -2.4343 0.1602 1.0678 0
M  V30 END ATOM
M  V30 BEGIN BOND
M  V30 1 1 1 2
M  V30 2 2 2 3
M  V30 3 1 2 4
M  V30 4 1 3 5
M  V30 5 1 3 6
M  V30 6 2 4 7
M  V30 7 2 6 8
M  V30 8 1 6 9
M  V30 9 1 7 8
M  V30 10 1 4 10
M  V30 11 1 5 11
M  V30 12 1 7 12
M  V30 13 1 8 13
M  V30 14 1 9 14
M  V30 15 1 9 15
M  V30 16 1 9 16
M  V30 END BOND
M  V30 END CTAB
M  END
>  <Structure No>
3325

>  <LogS>
-0.7739

>  <MMFF94 Energy>
22.404

$$$$
Compound 3326
Actelion Java MolfileCreator 2.0

  0  0  0  0  0  0              0 V3000
M  V30 BEGIN CTAB
M  V30 COUNTS 15 15 0 0 0
M  V30 BEGIN ATOM
M  V30 1 O 1.0232 -1.9685 -0.1573 0
M  V30 2 C 0.3699 -0.7372 -0.0584 0
M  V30 3 C 1.0765 0.4892 0.0236 0
M  V30 4 C -1.0391 -0.7251 -0.0403 0
M  V30 5 O 2.4712 0.5603 0.0119 0
M  V30 6 C 0.3642 1.6906 0.1211 0
M  V30 7 O -1.7713 -1.91 -0.1189 0
M  V30 8 C -1.7296 0.4865 0.0576 0
M  V30 9 C -1.0306 1.6903 0.138 0
M  V30 10 H 2.0266 -2.0779 -0.1776 0
M  V30 11 H 3.0787 -0.2431 -0.0546 0
M  V30 12 H 0.8973 2.631 0.1841 0
M  V30 13 H -1.3265 -2.8169 -0.1912 0
M  V30 14 H -2.8122 0.4937 0.0714 0
M  V30 15 H -1.5709 2.6254 0.2138 0
M  V30 END ATOM
M  V30 BEGIN BOND
M  V30 1 1 1 2
M  V30 2 2 2 3
M  V30 3 1 2 4
M  V30 4 1 3 5
M  V30 5 1 3 6
M  V30 6 1 4 7
M  V30 7 2 4 8
M  V30 8 2 6 9
M  V30 9 1 8 9
M  V30 10 1 1 10
M  V30 11 1 5 11
M  V30 12 1 6 12
M  V30 13 1 7 13
M  V30 14 1 8 14
M  V30 15 1 9 15
M  V30 END BOND
M  V30 END CTAB
M  END
>  <Structure No>
3326

>  <LogS>
0.6043

>  <MMFF94 Energy>
13.535

$$$$
Compound 3327
Actelion Java MolfileCreator 2.0

  0  0  0  0  0  0              0 V3000
M  V30 BEGIN CTAB
M  V30 COUNTS 12 12 0 0 0
M  V30 BEGIN ATOM
M  V30 1 Cl 2.7807 -1.4345 0.0 0
M  V30 2 N 1.2192 -0.6446 -0.0188 0
M  V30 3 C 1.143 0.7149 -0.0276 0
M  V30 4 C 0.0787 -1.389 -0.0247 0
M  V30 5 O 2.1991 1.4054 -0.0221 0
M  V30 6 N -0.0717 1.3304 -0.0424 0
M  V30 7 O 0.1484 -2.6487 -0.0165 0
M  V30 8 N -1.1367 -0.775 -0.0394 0
M  V30 9 Cl -0.1685 3.0777 -0.0536 0
M  V30 10 C -1.2112 0.5846 -0.0483 0
M  V30 11 Cl -2.6015 -1.7325 -0.0469 0
M  V30 12 O -2.337 1.1541 -0.0619 0
M  V30 END ATOM
M  V30 BEGIN BOND
M  V30 1 1 1 2
M  V30 2 1 2 3
M  V30 3 1 2 4
M  V30 4 2 3 5
M  V30 5 1 3 6
M  V30 6 2 4 7
M  V30 7 1 4 8
M  V30 8 1 6 9
M  V30 9 1 6 10
M  V30 10 1 8 11
M  V30 11 2 10 12
M  V30 12 1 8 10
M  V30 END BOND
M  V30 END CTAB
M  END
>  <Structure No>
3327

>  <LogS>
-1.2871

>  <MMFF94 Energy>
-58.801

$$$$
Compound 3328
Actelion Java MolfileCreator 2.0

  0  0  0  0  0  0              0 V3000
M  V30 BEGIN CTAB
M  V30 COUNTS 12 12 0 0 0
M  V30 BEGIN ATOM
M  V30 1 Cl -1.2566 2.8738 0.0897 0
M  V30 2 C -0.5445 1.2686 0.0472 0
M  V30 3 C -1.3595 0.1266 0.0363 0
M  V30 4 C 0.8481 1.1334 0.024 0
M  V30 5 O -2.7441 0.2581 0.0592 0 CHG=-1
M  V30 6 C -0.7749 -1.1483 0.0021 0
M  V30 7 C 1.4298 -0.1381 -0.0098 0
M  V30 8 Cl -1.7773 -2.5907 -0.0118 0
M  V30 9 C 0.6184 -1.2775 -0.0207 0
M  V30 10 Cl 3.1757 -0.3038 -0.0386 0
M  V30 11 H 1.477 2.0148 0.0326 0
M  V30 12 H 1.0697 -2.2613 -0.047 0
M  V30 END ATOM
M  V30 BEGIN BOND
M  V30 1 1 1 2
M  V30 2 2 2 3
M  V30 3 1 2 4
M  V30 4 1 3 5
M  V30 5 1 3 6
M  V30 6 2 4 7
M  V30 7 1 6 8
M  V30 8 2 6 9
M  V30 9 1 7 10
M  V30 10 1 7 9
M  V30 11 1 4 11
M  V30 12 1 9 12
M  V30 END BOND
M  V30 END CTAB
M  END
>  <Structure No>
3328

>  <LogS>
-2.3924

>  <MMFF94 Energy>
25.788

$$$$
Compound 3329
Actelion Java MolfileCreator 2.0

  0  0  0  0  0  0              0 V3000
M  V30 BEGIN CTAB
M  V30 COUNTS 14 14 0 0 0
M  V30 BEGIN ATOM
M  V30 1 S 1.2293 1.0654 1.3933 0
M  V30 2 C 0.0731 0.3439 0.406 0
M  V30 3 C 2.5675 0.3449 0.6747 0
M  V30 4 C -1.3804 0.5592 0.5078 0
M  V30 5 C 0.7282 -0.4772 -0.5065 0
M  V30 6 C 2.1202 -0.474 -0.3534 0
M  V30 7 O -1.8329 1.3371 1.39 0
M  V30 8 C -2.3316 -0.1304 -0.4194 0
M  V30 9 H 3.5997 0.4922 0.9616 0
M  V30 10 H 0.2229 -1.0636 -1.2625 0
M  V30 11 H 2.7853 -1.0553 -0.9778 0
M  V30 12 H -2.1075 0.1568 -1.4679 0
M  V30 13 H -2.2317 -1.2303 -0.3086 0
M  V30 14 H -3.3794 0.1568 -0.1879 0
M  V30 END ATOM
M  V30 BEGIN BOND
M  V30 1 1 1 2
M  V30 2 1 1 3
M  V30 3 1 2 4
M  V30 4 2 2 5
M  V30 5 2 3 6
M  V30 6 2 4 7
M  V30 7 1 4 8
M  V30 8 1 5 6
M  V30 9 1 3 9
M  V30 10 1 5 10
M  V30 11 1 6 11
M  V30 12 1 8 12
M  V30 13 1 8 13
M  V30 14 1 8 14
M  V30 END BOND
M  V30 END CTAB
M  END
>  <Structure No>
3329

>  <LogS>
-0.9549

>  <MMFF94 Energy>
20.3

$$$$
Compound 3330
Actelion Java MolfileCreator 2.0

  0  0  0  0  0  0              0 V3000
M  V30 BEGIN CTAB
M  V30 COUNTS 17 17 0 0 0
M  V30 BEGIN ATOM
M  V30 1 F -2.7677 0.4189 -0.4189 0
M  V30 2 C -2.0622 -0.3192 0.5147 0
M  V30 3 F -2.5746 -1.6056 0.5034 0
M  V30 4 F -2.2598 0.2182 1.7732 0
M  V30 5 C -0.5821 -0.3109 0.1865 0
M  V30 6 C 0.092 0.8722 -0.2283 0
M  V30 7 C 0.1565 -1.5059 0.3078 0
M  V30 8 N -0.5726 2.1457 -0.3015 0 CHG=1
M  V30 9 C 1.4515 0.8026 -0.5784 0
M  V30 10 C 1.5114 -1.5475 -0.0268 0
M  V30 11 O -1.3366 2.5152 0.6134 0
M  V30 12 O -0.2004 3.0585 -1.2614 0 CHG=-1
M  V30 13 C 2.1544 -0.3973 -0.4785 0
M  V30 14 O 2.2189 -2.7378 0.0885 0 CHG=-1
M  V30 15 H -0.3156 -2.4163 0.6547 0
M  V30 16 H 1.9774 1.6901 -0.9071 0
M  V30 17 H 3.2042 -0.4297 -0.7411 0
M  V30 END ATOM
M  V30 BEGIN BOND
M  V30 1 1 1 2
M  V30 2 1 2 3
M  V30 3 1 2 4
M  V30 4 1 2 5
M  V30 5 2 5 6
M  V30 6 1 5 7
M  V30 7 1 6 8
M  V30 8 1 6 9
M  V30 9 2 7 10
M  V30 10 2 8 11
M  V30 11 1 8 12
M  V30 12 2 9 13
M  V30 13 1 10 14
M  V30 14 1 10 13
M  V30 15 1 7 15
M  V30 16 1 9 16
M  V30 17 1 13 17
M  V30 END BOND
M  V30 END CTAB
M  END
>  <Structure No>
3330

>  <LogS>
-1.6172

>  <MMFF94 Energy>
0.75402

$$$$
Compound 3331
Actelion Java MolfileCreator 2.0

  0  0  0  0  0  0              0 V3000
M  V30 BEGIN CTAB
M  V30 COUNTS 28 28 0 0 0
M  V30 BEGIN ATOM
M  V30 1 O -3.9724 -2.2685 -0.4048 0
M  V30 2 N -2.7242 -2.2944 -0.3786 0 CHG=1
M  V30 3 O -2.0946 -3.5166 -0.433 0 CHG=-1
M  V30 4 C -1.9709 -1.0709 -0.2363 0
M  V30 5 C -0.5793 -1.0337 -0.4759 0
M  V30 6 C -2.6303 0.1105 0.1452 0
M  V30 7 O 0.0815 -2.1882 -0.8807 0 CHG=-1
M  V30 8 C 0.1422 0.1729 -0.3194 0
M  V30 9 C -1.9305 1.3147 0.3021 0
M  V30 10 C -0.5474 1.3339 0.07 0
M  V30 11 C 1.6486 0.2614 -0.5515 0 CFG=1
M  V30 12 N -2.6246 2.5127 0.6999 0 CHG=1
M  V30 13 C 2.4581 -0.6182 0.4261 0
M  V30 14 C 2.0094 -0.0511 -2.0103 0
M  V30 15 O -2.0078 3.5887 0.845 0
M  V30 16 O -3.982 2.4933 0.9266 0 CHG=-1
M  V30 17 C 2.2279 -0.2263 1.8862 0
M  V30 18 H -3.696 0.0888 0.3315 0
M  V30 19 H -0.0023 2.2611 0.1945 0
M  V30 20 H 1.9826 1.3102 -0.382 0
M  V30 21 H 2.2142 -1.6926 0.2954 0
M  V30 22 H 3.5417 -0.499 0.2064 0
M  V30 23 H 1.8627 -1.1239 -2.2488 0
M  V30 24 H 3.0755 0.1995 -2.1973 0
M  V30 25 H 1.3866 0.5603 -2.698 0
M  V30 26 H 1.1735 -0.4149 2.1795 0
M  V30 27 H 2.4659 0.8475 2.0409 0
M  V30 28 H 2.887 -0.8336 2.5415 0
M  V30 END ATOM
M  V30 BEGIN BOND
M  V30 1 2 1 2
M  V30 2 1 2 3
M  V30 3 1 2 4
M  V30 4 2 4 5
M  V30 5 1 4 6
M  V30 6 1 5 7
M  V30 7 1 5 8
M  V30 8 2 6 9
M  V30 9 2 8 10
M  V30 10 1 8 11
M  V30 11 1 9 12
M  V30 12 1 11 13
M  V30 13 1 11 14
M  V30 14 2 12 15
M  V30 15 1 12 16
M  V30 16 1 13 17
M  V30 17 1 9 10
M  V30 18 1 6 18
M  V30 19 1 10 19
M  V30 20 1 11 20
M  V30 21 1 13 21
M  V30 22 1 13 22
M  V30 23 1 14 23
M  V30 24 1 14 24
M  V30 25 1 14 25
M  V30 26 1 17 26
M  V30 27 1 17 27
M  V30 28 1 17 28
M  V30 END BOND
M  V30 BEGIN COLLECTION
M  V30 MDLV30/STEABS ATOMS=(1 11)
M  V30 END COLLECTION
M  V30 END CTAB
M  END
>  <Structure No>
3331

>  <LogS>
-3.6646

>  <MMFF94 Energy>
92.024

$$$$
Compound 3332
Actelion Java MolfileCreator 2.0

  0  0  0  0  0  0              0 V3000
M  V30 BEGIN CTAB
M  V30 COUNTS 20 20 0 0 0
M  V30 BEGIN ATOM
M  V30 1 O 0.6319 -2.4505 -0.7899 0
M  V30 2 C -0.4445 -1.7948 -0.7988 0
M  V30 3 N -1.5766 -2.3225 -1.493 0
M  V30 4 C -0.5349 -0.5072 -0.0692 0
M  V30 5 C 0.5346 0.4297 -0.0453 0
M  V30 6 C -1.6967 -0.2402 0.6784 0
M  V30 7 C 1.75 0.2664 -0.8784 0
M  V30 8 C 0.4126 1.5889 0.7429 0
M  V30 9 C -1.7995 0.9198 1.4469 0
M  V30 10 O 1.6523 -0.1653 -2.0585 0
M  V30 11 N 3.0374 0.6214 -0.3702 0
M  V30 12 C -0.7453 1.8296 1.4832 0
M  V30 13 H -2.4611 -1.7743 -1.5782 0
M  V30 14 H -1.5145 -3.2498 -1.9687 0
M  V30 15 H -2.5176 -0.9464 0.6939 0
M  V30 16 H 1.2036 2.3284 0.7633 0
M  V30 17 H -2.696 1.109 2.0233 0
M  V30 18 H 3.1629 0.9165 0.6232 0
M  V30 19 H 3.8818 0.5416 -0.9792 0
M  V30 20 H -0.8287 2.7293 2.0795 0
M  V30 END ATOM
M  V30 BEGIN BOND
M  V30 1 2 1 2
M  V30 2 1 2 3
M  V30 3 1 2 4
M  V30 4 2 4 5
M  V30 5 1 4 6
M  V30 6 1 5 7
M  V30 7 1 5 8
M  V30 8 2 6 9
M  V30 9 2 7 10
M  V30 10 1 7 11
M  V30 11 2 8 12
M  V30 12 1 9 12
M  V30 13 1 3 13
M  V30 14 1 3 14
M  V30 15 1 6 15
M  V30 16 1 8 16
M  V30 17 1 9 17
M  V30 18 1 11 18
M  V30 19 1 11 19
M  V30 20 1 12 20
M  V30 END BOND
M  V30 END CTAB
M  END
>  <Structure No>
3332

>  <LogS>
-2.4371

>  <MMFF94 Energy>
-18.235

$$$$
Compound 3333
Actelion Java MolfileCreator 2.0

  0  0  0  0  0  0              0 V3000
M  V30 BEGIN CTAB
M  V30 COUNTS 19 19 0 0 0
M  V30 BEGIN ATOM
M  V30 1 O 0.5705 2.937 0.326 0
M  V30 2 C -0.3637 2.3917 -0.3187 0
M  V30 3 O -1.1315 3.1672 -1.1798 0 CHG=-1
M  V30 4 C -0.6969 0.9632 -0.1118 0
M  V30 5 C 0.2853 -0.0347 0.1503 0
M  V30 6 C -2.0555 0.5989 -0.1432 0
M  V30 7 C -0.146 -1.3352 0.4891 0
M  V30 8 C 1.7746 0.2697 0.1187 0
M  V30 9 C -2.4519 -0.7069 0.1436 0
M  V30 10 C -1.5007 -1.6673 0.4756 0
M  V30 11 C 2.5822 -0.8538 -0.4602 0
M  V30 12 O 2.5285 -1.1018 -1.6937 0
M  V30 13 O 3.3763 -1.6393 0.3658 0 CHG=-1
M  V30 14 H -2.8192 1.337 -0.3571 0
M  V30 15 H 0.5684 -2.1048 0.752 0
M  V30 16 H 1.989 1.157 -0.5102 0
M  V30 17 H 2.1205 0.4861 1.1519 0
M  V30 18 H -3.5022 -0.9686 0.1301 0
M  V30 19 H -1.8131 -2.6744 0.7202 0
M  V30 END ATOM
M  V30 BEGIN BOND
M  V30 1 2 1 2
M  V30 2 1 2 3
M  V30 3 1 2 4
M  V30 4 2 4 5
M  V30 5 1 4 6
M  V30 6 1 5 7
M  V30 7 1 5 8
M  V30 8 2 6 9
M  V30 9 2 7 10
M  V30 10 1 8 11
M  V30 11 2 11 12
M  V30 12 1 11 13
M  V30 13 1 9 10
M  V30 14 1 6 14
M  V30 15 1 7 15
M  V30 16 1 8 16
M  V30 17 1 8 17
M  V30 18 1 9 18
M  V30 19 1 10 19
M  V30 END BOND
M  V30 END CTAB
M  END
>  <Structure No>
3333

>  <LogS>
-1.0515

>  <MMFF94 Energy>
130.14

$$$$
Compound 3334
Actelion Java MolfileCreator 2.0

  0  0  0  0  0  0              0 V3000
M  V30 BEGIN CTAB
M  V30 COUNTS 16 16 0 0 0
M  V30 BEGIN ATOM
M  V30 1 Cl 3.5321 -1.4774 0.2461 0
M  V30 2 C 1.9932 -0.6428 0.1318 0
M  V30 3 C 0.808 -1.3739 0.0136 0
M  V30 4 C 1.9531 0.752 0.1483 0
M  V30 5 C -0.4319 -0.7177 -0.0915 0
M  V30 6 C 0.7291 1.4179 0.0633 0
M  V30 7 N -1.6259 -1.4943 -0.2804 0 CHG=1
M  V30 8 C -0.4708 0.6971 -0.042 0
M  V30 9 O -1.727 -2.6242 0.2409 0
M  V30 10 O -2.5616 -1.1076 -1.212 0 CHG=-1
M  V30 11 N -1.712 1.4141 -0.0383 0
M  V30 12 H 0.8549 -2.4553 -0.0213 0
M  V30 13 H 2.8693 1.3222 0.2365 0
M  V30 14 H 0.7136 2.5001 0.1003 0
M  V30 15 H -2.6233 0.9367 0.1328 0
M  V30 16 H -1.7206 2.4573 -0.0925 0
M  V30 END ATOM
M  V30 BEGIN BOND
M  V30 1 1 1 2
M  V30 2 2 2 3
M  V30 3 1 2 4
M  V30 4 1 3 5
M  V30 5 2 4 6
M  V30 6 1 5 7
M  V30 7 2 5 8
M  V30 8 2 7 9
M  V30 9 1 7 10
M  V30 10 1 8 11
M  V30 11 1 6 8
M  V30 12 1 3 12
M  V30 13 1 4 13
M  V30 14 1 6 14
M  V30 15 1 11 15
M  V30 16 1 11 16
M  V30 END BOND
M  V30 END CTAB
M  END
>  <Structure No>
3334

>  <LogS>
-2.538

>  <MMFF94 Energy>
51.473

$$$$
Compound 3335
Actelion Java MolfileCreator 2.0

  0  0  0  0  0  0              0 V3000
M  V30 BEGIN CTAB
M  V30 COUNTS 14 14 0 0 0
M  V30 BEGIN ATOM
M  V30 1 Cl 3.0368 1.4332 0.5056 0
M  V30 2 C 1.5872 0.4805 0.2425 0
M  V30 3 C 0.3419 1.1109 0.154 0
M  V30 4 C 1.6778 -0.9068 0.1214 0
M  V30 5 C -0.8329 0.3603 -0.0572 0
M  V30 6 C 0.5257 -1.6656 -0.0878 0
M  V30 7 N -2.1087 1.0307 -0.1455 0 CHG=1
M  V30 8 C -0.7255 -1.0451 -0.178 0
M  V30 9 O -2.1788 2.2727 -0.0358 0
M  V30 10 O -3.2727 0.3266 -0.3511 0 CHG=-1
M  V30 11 O -1.847 -1.8395 -0.387 0 CHG=-1
M  V30 12 H 0.2944 2.1882 0.2507 0
M  V30 13 H 2.6398 -1.3985 0.1894 0
M  V30 14 H 0.604 -2.7414 -0.1806 0
M  V30 END ATOM
M  V30 BEGIN BOND
M  V30 1 1 1 2
M  V30 2 2 2 3
M  V30 3 1 2 4
M  V30 4 1 3 5
M  V30 5 2 4 6
M  V30 6 1 5 7
M  V30 7 2 5 8
M  V30 8 2 7 9
M  V30 9 1 7 10
M  V30 10 1 8 11
M  V30 11 1 6 8
M  V30 12 1 3 12
M  V30 13 1 4 13
M  V30 14 1 6 14
M  V30 END BOND
M  V30 END CTAB
M  END
>  <Structure No>
3335

>  <LogS>
-3.0902

>  <MMFF94 Energy>
51.562

$$$$
Compound 3336
Actelion Java MolfileCreator 2.0

  0  0  0  0  0  0              0 V3000
M  V30 BEGIN CTAB
M  V30 COUNTS 26 26 0 0 0
M  V30 BEGIN ATOM
M  V30 1 O -3.7408 -2.1477 0.3179 0
M  V30 2 C -2.7975 -1.3663 0.0279 0
M  V30 3 O -1.4722 -1.7413 0.0815 0
M  V30 4 C -2.9826 0.0363 -0.403 0 CFG=2
M  V30 5 C -0.6314 -0.6975 -0.382 0 CFG=1
M  V30 6 O -3.4781 0.0575 -1.7144 0
M  V30 7 C -1.5332 0.5728 -0.3507 0 CFG=2
M  V30 8 C 0.686 -0.6423 0.4372 0 CFG=1
M  V30 9 O -1.3379 1.3433 0.8122 0
M  V30 10 O 1.1992 -1.9446 0.5849 0
M  V30 11 C 1.7483 0.2819 -0.2148 0 CFG=1
M  V30 12 O 1.2563 1.596 -0.286 0
M  V30 13 C 3.0547 0.2785 0.594 0
M  V30 14 O 4.0023 1.1006 -0.0298 0
M  V30 15 H -3.6669 0.5759 0.2922 0
M  V30 16 H -0.383 -0.9183 -1.4448 0
M  V30 17 H -3.7403 0.9972 -1.898 0
M  V30 18 H -1.3174 1.2144 -1.2332 0
M  V30 19 H 0.4679 -0.2667 1.4591 0
M  V30 20 H -1.6107 0.794 1.5937 0
M  V30 21 H 1.4002 -2.2935 -0.3232 0
M  V30 22 H 1.9658 -0.1012 -1.2407 0
M  V30 23 H 1.7159 2.0396 -1.0462 0
M  V30 24 H 2.8563 0.6513 1.6245 0
M  V30 25 H 3.4584 -0.7564 0.6583 0
M  V30 26 H 4.8127 1.0709 0.5424 0
M  V30 END ATOM
M  V30 BEGIN BOND
M  V30 1 2 1 2
M  V30 2 1 2 3
M  V30 3 1 2 4
M  V30 4 1 3 5
M  V30 5 1 4 6
M  V30 6 1 4 7
M  V30 7 1 5 8
M  V30 8 1 7 9
M  V30 9 1 8 10
M  V30 10 1 8 11
M  V30 11 1 11 12
M  V30 12 1 11 13
M  V30 13 1 13 14
M  V30 14 1 5 7
M  V30 15 1 4 15
M  V30 16 1 5 16
M  V30 17 1 6 17
M  V30 18 1 7 18
M  V30 19 1 8 19
M  V30 20 1 9 20
M  V30 21 1 10 21
M  V30 22 1 11 22
M  V30 23 1 12 23
M  V30 24 1 13 24
M  V30 25 1 13 25
M  V30 26 1 14 26
M  V30 END BOND
M  V30 BEGIN COLLECTION
M  V30 MDLV30/STEABS ATOMS=(5 4 5 7 8 11)
M  V30 END COLLECTION
M  V30 END CTAB
M  END
>  <Structure No>
3336

>  <LogS>
0.3348

>  <MMFF94 Energy>
105.74

$$$$
Compound 3337
Actelion Java MolfileCreator 2.0

  0  0  0  0  0  0              0 V3000
M  V30 BEGIN CTAB
M  V30 COUNTS 25 25 0 0 0
M  V30 BEGIN ATOM
M  V30 1 Cl 2.7198 1.8393 2.2394 0
M  V30 2 C 1.8084 0.894 1.0659 0
M  V30 3 C 2.454 0.1356 0.0775 0
M  V30 4 C 0.4133 0.9104 1.1342 0
M  V30 5 C 1.6824 -0.5984 -0.8317 0
M  V30 6 C 3.9549 0.1043 -0.0135 0
M  V30 7 C -0.3788 0.177 0.2266 0
M  V30 8 C 0.2836 -0.5904 -0.7741 0
M  V30 9 C -1.8962 0.265 0.3903 0
M  V30 10 O -0.3815 -1.3591 -1.7311 0
M  V30 11 C -2.5891 0.9397 -0.8016 0
M  V30 12 C -2.5353 -1.0752 0.7795 0
M  V30 13 H -0.0533 1.5061 1.9093 0
M  V30 14 H 2.1696 -1.1877 -1.5993 0
M  V30 15 H 4.3025 -0.5411 -0.8479 0
M  V30 16 H 4.3796 -0.2933 0.9321 0
M  V30 17 H 4.3415 1.1308 -0.1854 0
M  V30 18 H -2.1145 0.9355 1.2522 0
M  V30 19 H -1.3796 -1.4475 -1.8097 0
M  V30 20 H -3.6476 1.1585 -0.5437 0
M  V30 21 H -2.0877 1.9038 -1.0334 0
M  V30 22 H -2.5895 0.3156 -1.7128 0
M  V30 23 H -3.5923 -0.9116 1.0807 0
M  V30 24 H -2.5328 -1.8118 -0.0433 0
M  V30 25 H -1.9965 -1.5123 1.6471 0
M  V30 END ATOM
M  V30 BEGIN BOND
M  V30 1 1 1 2
M  V30 2 2 2 3
M  V30 3 1 2 4
M  V30 4 1 3 5
M  V30 5 1 3 6
M  V30 6 2 4 7
M  V30 7 2 5 8
M  V30 8 1 7 9
M  V30 9 1 8 10
M  V30 10 1 9 11
M  V30 11 1 9 12
M  V30 12 1 7 8
M  V30 13 1 4 13
M  V30 14 1 5 14
M  V30 15 1 6 15
M  V30 16 1 6 16
M  V30 17 1 6 17
M  V30 18 1 9 18
M  V30 19 1 10 19
M  V30 20 1 11 20
M  V30 21 1 11 21
M  V30 22 1 11 22
M  V30 23 1 12 23
M  V30 24 1 12 24
M  V30 25 1 12 25
M  V30 END BOND
M  V30 END CTAB
M  END
>  <Structure No>
3337

>  <LogS>
-2.2664

>  <MMFF94 Energy>
16.064

$$$$
Compound 3338
Actelion Java MolfileCreator 2.0

  0  0  0  0  0  0              0 V3000
M  V30 BEGIN CTAB
M  V30 COUNTS 45 48 0 0 0
M  V30 BEGIN ATOM
M  V30 1 N -1.9269 -0.8828 -0.6419 0 CHG=1 CFG=1
M  V30 2 C -1.8918 0.6076 -0.8796 0 CFG=2
M  V30 3 C -0.6261 -1.4237 -0.1743 0
M  V30 4 C -3.0813 -1.3878 0.1469 0
M  V30 5 C -0.4695 1.0917 -1.3577 0 CFG=1
M  V30 6 C -2.4863 1.4903 0.2604 0
M  V30 7 C 0.5376 -1.1257 -1.1998 0 CFG=1
M  V30 8 C -3.4415 -0.5118 1.3415 0
M  V30 9 C 0.5302 1.4599 -0.1896 0
M  V30 10 C 0.1184 -0.0409 -2.205 0
M  V30 11 C -3.7501 0.8934 0.8536 0
M  V30 12 C 1.8628 -0.6166 -0.547 0 CFG=1
M  V30 13 N 1.8872 0.8782 -0.3599 0 CHG=1 CFG=2
M  V30 14 C 2.2888 -1.3939 0.7198 0
M  V30 15 C 2.7697 1.3187 0.754 0
M  V30 16 C 3.7208 -1.0092 1.1294 0
M  V30 17 C 4.0452 0.4689 0.8375 0
M  V30 18 H -2.0776 -1.3316 -1.5776 0
M  V30 19 H -2.5694 0.8004 -1.7455 0
M  V30 20 H -0.4244 -1.0197 0.8348 0
M  V30 21 H -0.6891 -2.5286 -0.0543 0
M  V30 22 H -3.9798 -1.4534 -0.5104 0
M  V30 23 H -2.898 -2.4246 0.5071 0
M  V30 24 H -0.5958 1.9857 -2.0085 0
M  V30 25 H -1.7982 1.6527 1.1068 0
M  V30 26 H -2.7223 2.4971 -0.148 0
M  V30 27 H 0.7527 -2.0587 -1.7676 0
M  V30 28 H -2.6071 -0.5005 2.0768 0
M  V30 29 H -4.3399 -0.9298 1.8449 0
M  V30 30 H 0.1578 1.1151 0.7897 0
M  V30 31 H 0.5994 2.5696 -0.1275 0
M  V30 32 H -0.6141 -0.4251 -2.9474 0
M  V30 33 H 0.9805 0.3155 -2.8108 0
M  V30 34 H -4.5626 0.8765 0.0936 0
M  V30 35 H -4.0898 1.5166 1.7092 0
M  V30 36 H 2.6497 -0.8614 -1.3012 0
M  V30 37 H 2.2917 1.3048 -1.2284 0
M  V30 38 H 1.6163 -1.1558 1.5691 0
M  V30 39 H 2.2377 -2.489 0.5347 0
M  V30 40 H 2.2449 1.256 1.7348 0
M  V30 41 H 3.0595 2.3837 0.607 0
M  V30 42 H 3.8493 -1.2116 2.2152 0
M  V30 43 H 4.4465 -1.6514 0.5843 0
M  V30 44 H 4.5906 0.5469 -0.1284 0
M  V30 45 H 4.7098 0.8695 1.6333 0
M  V30 END ATOM
M  V30 BEGIN BOND
M  V30 1 1 1 2
M  V30 2 1 1 3
M  V30 3 1 1 4
M  V30 4 1 2 5
M  V30 5 1 2 6
M  V30 6 1 3 7
M  V30 7 1 4 8
M  V30 8 1 5 9
M  V30 9 1 5 10
M  V30 10 1 6 11
M  V30 11 1 7 12
M  V30 12 1 9 13
M  V30 13 1 12 14
M  V30 14 1 13 15
M  V30 15 1 14 16
M  V30 16 1 15 17
M  V30 17 1 7 10
M  V30 18 1 8 11
M  V30 19 1 12 13
M  V30 20 1 16 17
M  V30 21 1 1 18
M  V30 22 1 2 19
M  V30 23 1 3 20
M  V30 24 1 3 21
M  V30 25 1 4 22
M  V30 26 1 4 23
M  V30 27 1 5 24
M  V30 28 1 6 25
M  V30 29 1 6 26
M  V30 30 1 7 27
M  V30 31 1 8 28
M  V30 32 1 8 29
M  V30 33 1 9 30
M  V30 34 1 9 31
M  V30 35 1 10 32
M  V30 36 1 10 33
M  V30 37 1 11 34
M  V30 38 1 11 35
M  V30 39 1 12 36
M  V30 40 1 13 37
M  V30 41 1 14 38
M  V30 42 1 14 39
M  V30 43 1 15 40
M  V30 44 1 15 41
M  V30 45 1 16 42
M  V30 46 1 16 43
M  V30 47 1 17 44
M  V30 48 1 17 45
M  V30 END BOND
M  V30 BEGIN COLLECTION
M  V30 MDLV30/STEABS ATOMS=(6 1 2 5 7 12 13)
M  V30 END COLLECTION
M  V30 END CTAB
M  END
>  <Structure No>
3338

>  <LogS>
-1.8871

>  <MMFF94 Energy>
118.05

$$$$
Compound 3339
Actelion Java MolfileCreator 2.0

  0  0  0  0  0  0              0 V3000
M  V30 BEGIN CTAB
M  V30 COUNTS 21 20 0 0 0
M  V30 BEGIN ATOM
M  V30 1 O -0.2371 1.9772 0.8696 0
M  V30 2 C 0.1473 0.8618 0.4233 0
M  V30 3 C -0.7583 0.0901 -0.4573 0
M  V30 4 C 1.5243 0.3963 0.7279 0
M  V30 5 O -0.1955 -0.4019 -1.6489 0
M  V30 6 C -2.0628 -0.1063 -0.159 0
M  V30 7 C 1.858 -0.8964 0.6279 0
M  V30 8 C 2.5276 1.3728 1.2787 0
M  V30 9 C -0.8786 -1.1918 -2.6185 0
M  V30 10 C -2.7075 0.2395 1.1241 0
M  V30 11 O -3.9626 0.3173 1.1801 0
M  V30 12 O -1.9681 0.4089 2.2888 0 CHG=-1
M  V30 13 H -2.7072 -0.5807 -0.8863 0
M  V30 14 H 1.1469 -1.6435 0.3002 0
M  V30 15 H 2.8512 -1.2362 0.8942 0
M  V30 16 H 2.409 1.4435 2.3802 0
M  V30 17 H 2.3742 2.3782 0.8326 0
M  V30 18 H 3.5673 1.0568 1.0454 0
M  V30 19 H -0.1695 -1.4652 -3.4264 0
M  V30 20 H -1.7148 -0.6124 -3.0637 0
M  V30 21 H -1.261 -2.1241 -2.1515 0
M  V30 END ATOM
M  V30 BEGIN BOND
M  V30 1 2 1 2
M  V30 2 1 2 3
M  V30 3 1 2 4
M  V30 4 1 3 5
M  V30 5 2 3 6
M  V30 6 2 4 7
M  V30 7 1 4 8
M  V30 8 1 5 9
M  V30 9 1 6 10
M  V30 10 2 10 11
M  V30 11 1 10 12
M  V30 12 1 6 13
M  V30 13 1 7 14
M  V30 14 1 7 15
M  V30 15 1 8 16
M  V30 16 1 8 17
M  V30 17 1 8 18
M  V30 18 1 9 19
M  V30 19 1 9 20
M  V30 20 1 9 21
M  V30 END BOND
M  V30 END CTAB
M  END
>  <Structure No>
3339

>  <LogS>
-0.9299

>  <MMFF94 Energy>
25.356

$$$$
Compound 3340
Actelion Java MolfileCreator 2.0

  0  0  0  0  0  0              0 V3000
M  V30 BEGIN CTAB
M  V30 COUNTS 22 22 0 0 0
M  V30 BEGIN ATOM
M  V30 1 O -0.717 2.1521 -2.3915 0
M  V30 2 C -0.5105 1.332 -1.4583 0
M  V30 3 O 0.7945 0.8881 -1.2227 0
M  V30 4 C -1.6373 0.9558 -0.5307 0 CFG=1
M  V30 5 C 1.1128 -0.2296 -0.3908 0 CFG=2
M  V30 6 O -2.8354 0.8233 -1.2523 0
M  V30 7 C -1.3426 -0.3632 0.1985 0 CFG=1
M  V30 8 C 0.0927 -0.3634 0.7666 0 CFG=1
M  V30 9 C 2.5507 -0.0612 0.1185 0
M  V30 10 O -2.2716 -0.5224 1.2408 0
M  V30 11 O 0.3253 -1.5319 1.5149 0
M  V30 12 O 3.0103 -1.2442 0.7175 0
M  V30 13 H -1.7364 1.7646 0.2316 0
M  V30 14 H 1.0665 -1.1448 -1.0221 0
M  V30 15 H -3.1997 1.7384 -1.3801 0
M  V30 16 H -1.4474 -1.2 -0.5344 0
M  V30 17 H 0.2032 0.5085 1.4492 0
M  V30 18 H 3.2116 0.1635 -0.7456 0
M  V30 19 H 2.6157 0.8062 0.817 0
M  V30 20 H -2.3318 -1.4951 1.4301 0
M  V30 21 H 0.2187 -2.3076 0.9039 0
M  V30 22 H 2.9536 -1.1148 1.7001 0
M  V30 END ATOM
M  V30 BEGIN BOND
M  V30 1 2 1 2
M  V30 2 1 2 3
M  V30 3 1 2 4
M  V30 4 1 3 5
M  V30 5 1 4 6
M  V30 6 1 4 7
M  V30 7 1 5 8
M  V30 8 1 5 9
M  V30 9 1 7 10
M  V30 10 1 8 11
M  V30 11 1 9 12
M  V30 12 1 7 8
M  V30 13 1 4 13
M  V30 14 1 5 14
M  V30 15 1 6 15
M  V30 16 1 7 16
M  V30 17 1 8 17
M  V30 18 1 9 18
M  V30 19 1 9 19
M  V30 20 1 10 20
M  V30 21 1 11 21
M  V30 22 1 12 22
M  V30 END BOND
M  V30 BEGIN COLLECTION
M  V30 MDLV30/STEABS ATOMS=(4 4 5 7 8)
M  V30 END COLLECTION
M  V30 END CTAB
M  END
>  <Structure No>
3340

>  <LogS>
0.5201

>  <MMFF94 Energy>
97.952

$$$$
Compound 3341
Actelion Java MolfileCreator 2.0

  0  0  0  0  0  0              0 V3000
M  V30 BEGIN CTAB
M  V30 COUNTS 40 41 0 0 0
M  V30 BEGIN ATOM
M  V30 1 O 0.079 -3.0058 -1.4229 0
M  V30 2 C 0.0522 -1.8594 -0.8969 0
M  V30 3 C 1.3356 -1.1642 -0.632 0
M  V30 4 C -1.2613 -1.2549 -0.5658 0
M  V30 5 C 1.4863 -0.3223 0.4812 0
M  V30 6 C 2.4367 -1.3782 -1.4739 0
M  V30 7 C -1.4635 0.1312 -0.656 0
M  V30 8 C -2.3388 -2.0746 -0.1992 0
M  V30 9 C 2.7045 0.3146 0.7313 0
M  V30 10 C 3.656 -0.7415 -1.2265 0
M  V30 11 C -2.7096 0.689 -0.3575 0
M  V30 12 C -3.586 -1.5192 0.0997 0
M  V30 13 C 3.811 0.1192 -0.1204 0
M  V30 14 C -3.7929 -0.1262 0.029 0
M  V30 15 N 5.0772 0.782 0.1369 0
M  V30 16 N -5.0876 0.4525 0.341 0
M  V30 17 C 6.0654 0.9465 -0.9363 0
M  V30 18 C 5.3905 1.3007 1.4745 0
M  V30 19 C -5.2034 1.8707 0.7036 0
M  V30 20 C -6.3029 -0.3703 0.3008 0
M  V30 21 H 0.6646 -0.1651 1.1688 0
M  V30 22 H 2.3514 -2.0326 -2.3328 0
M  V30 23 H -0.6616 0.7856 -0.9741 0
M  V30 24 H -2.2126 -3.1482 -0.1295 0
M  V30 25 H 2.7701 0.9642 1.593 0
M  V30 26 H 4.4771 -0.9378 -1.9015 0
M  V30 27 H -2.8211 1.7605 -0.4479 0
M  V30 28 H -4.3819 -2.1881 0.3963 0
M  V30 29 H 6.8744 1.6491 -0.6442 0
M  V30 30 H 5.5741 1.3622 -1.8417 0
M  V30 31 H 6.5277 -0.0335 -1.1769 0
M  V30 32 H 4.7739 2.1997 1.6847 0
M  V30 33 H 6.4601 1.5856 1.5632 0
M  V30 34 H 5.189 0.5204 2.2389 0
M  V30 35 H -5.0413 2.504 -0.1934 0
M  V30 36 H -4.453 2.1241 1.4823 0
M  V30 37 H -6.2063 2.1068 1.1182 0
M  V30 38 H -7.2211 0.2524 0.3529 0
M  V30 39 H -6.3116 -1.0729 1.1601 0
M  V30 40 H -6.3412 -0.9411 -0.6511 0
M  V30 END ATOM
M  V30 BEGIN BOND
M  V30 1 2 1 2
M  V30 2 1 2 3
M  V30 3 1 2 4
M  V30 4 2 3 5
M  V30 5 1 3 6
M  V30 6 2 4 7
M  V30 7 1 4 8
M  V30 8 1 5 9
M  V30 9 2 6 10
M  V30 10 1 7 11
M  V30 11 2 8 12
M  V30 12 2 9 13
M  V30 13 2 11 14
M  V30 14 1 13 15
M  V30 15 1 14 16
M  V30 16 1 15 17
M  V30 17 1 15 18
M  V30 18 1 16 19
M  V30 19 1 16 20
M  V30 20 1 10 13
M  V30 21 1 12 14
M  V30 22 1 5 21
M  V30 23 1 6 22
M  V30 24 1 7 23
M  V30 25 1 8 24
M  V30 26 1 9 25
M  V30 27 1 10 26
M  V30 28 1 11 27
M  V30 29 1 12 28
M  V30 30 1 17 29
M  V30 31 1 17 30
M  V30 32 1 17 31
M  V30 33 1 18 32
M  V30 34 1 18 33
M  V30 35 1 18 34
M  V30 36 1 19 35
M  V30 37 1 19 36
M  V30 38 1 19 37
M  V30 39 1 20 38
M  V30 40 1 20 39
M  V30 41 1 20 40
M  V30 END BOND
M  V30 END CTAB
M  END
>  <Structure No>
3341

>  <LogS>
-2.8267

>  <MMFF94 Energy>
73.82

$$$$
Compound 3342
Actelion Java MolfileCreator 2.0

  0  0  0  0  0  0              0 V3000
M  V30 BEGIN CTAB
M  V30 COUNTS 16 17 0 0 0
M  V30 BEGIN ATOM
M  V30 1 N -1.5194 -1.1993 -0.3996 0
M  V30 2 C -0.282 -0.7043 -0.1318 0
M  V30 3 C -2.6082 -0.3857 -0.4326 0
M  V30 4 C -0.1288 0.6764 0.1154 0
M  V30 5 C 0.8336 -1.5481 -0.0996 0
M  V30 6 C -2.4565 0.9823 -0.1875 0
M  V30 7 N -1.2218 1.4841 0.0809 0
M  V30 8 C 1.1386 1.2003 0.3925 0
M  V30 9 C 2.0989 -1.0183 0.1779 0
M  V30 10 C 2.2509 0.3516 0.4234 0
M  V30 11 H -3.5852 -0.7976 -0.6474 0
M  V30 12 H 0.7237 -2.6088 -0.2884 0
M  V30 13 H -3.3147 1.6404 -0.2107 0
M  V30 14 H 1.2639 2.2591 0.5833 0
M  V30 15 H 2.9626 -1.6699 0.2031 0
M  V30 16 H 3.2318 0.7558 0.6376 0
M  V30 END ATOM
M  V30 BEGIN BOND
M  V30 1 1 1 2
M  V30 2 2 1 3
M  V30 3 1 2 4
M  V30 4 2 2 5
M  V30 5 1 3 6
M  V30 6 1 4 7
M  V30 7 2 4 8
M  V30 8 1 5 9
M  V30 9 1 8 10
M  V30 10 2 6 7
M  V30 11 2 9 10
M  V30 12 1 3 11
M  V30 13 1 5 12
M  V30 14 1 6 13
M  V30 15 1 8 14
M  V30 16 1 9 15
M  V30 17 1 10 16
M  V30 END BOND
M  V30 END CTAB
M  END
>  <Structure No>
3342

>  <LogS>
0.7051

>  <MMFF94 Energy>
74.229

$$$$
Compound 3343
Actelion Java MolfileCreator 2.0

  0  0  0  0  0  0              0 V3000
M  V30 BEGIN CTAB
M  V30 COUNTS 20 21 0 0 0
M  V30 BEGIN ATOM
M  V30 1 N 3.3991 0.6317 0.3947 0
M  V30 2 C 2.061 0.1571 0.2231 0
M  V30 3 C 0.9915 1.0637 0.1855 0
M  V30 4 C 1.8133 -1.2162 0.0917 0
M  V30 5 C -0.3228 0.6016 0.0172 0
M  V30 6 C 0.5081 -1.6872 -0.0762 0
M  V30 7 C -0.5667 -0.7872 -0.1149 0
M  V30 8 C -1.3991 1.5021 -0.0215 0
M  V30 9 C -1.8817 -1.2486 -0.2833 0
M  V30 10 C -2.7038 1.0293 -0.1896 0
M  V30 11 C -2.9443 -0.3411 -0.32 0
M  V30 12 H 3.596 1.6527 0.4938 0
M  V30 13 H 4.2031 -0.0342 0.4243 0
M  V30 14 H 1.1866 2.1251 0.2875 0
M  V30 15 H 2.6332 -1.9228 0.1197 0
M  V30 16 H 0.3397 -2.7528 -0.1758 0
M  V30 17 H -1.2318 2.568 0.078 0
M  V30 18 H -2.0868 -2.3075 -0.3859 0
M  V30 19 H -3.5308 1.7269 -0.2189 0
M  V30 20 H -3.9568 -0.7008 -0.45 0
M  V30 END ATOM
M  V30 BEGIN BOND
M  V30 1 1 1 2
M  V30 2 2 2 3
M  V30 3 1 2 4
M  V30 4 1 3 5
M  V30 5 2 4 6
M  V30 6 1 5 7
M  V30 7 2 5 8
M  V30 8 2 7 9
M  V30 9 1 8 10
M  V30 10 1 9 11
M  V30 11 1 6 7
M  V30 12 2 10 11
M  V30 13 1 1 12
M  V30 14 1 1 13
M  V30 15 1 3 14
M  V30 16 1 4 15
M  V30 17 1 6 16
M  V30 18 1 8 17
M  V30 19 1 9 18
M  V30 20 1 10 19
M  V30 21 1 11 20
M  V30 END BOND
M  V30 END CTAB
M  END
>  <Structure No>
3343

>  <LogS>
-2.8795

>  <MMFF94 Energy>
22.437

$$$$
Compound 3344
Actelion Java MolfileCreator 2.0

  0  0  0  0  0  0              0 V3000
M  V30 BEGIN CTAB
M  V30 COUNTS 38 39 0 0 0
M  V30 BEGIN ATOM
M  V30 1 S -1.3543 -2.3112 0.0796 0
M  V30 2 C -1.547 -1.4041 -1.3233 0
M  V30 3 C -2.9029 -2.9666 0.0887 0
M  V30 4 C -2.8311 -1.611 -1.8108 0
M  V30 5 C -0.4968 -0.5372 -1.9525 0
M  V30 6 C -3.5881 -2.4817 -1.0177 0
M  V30 7 N -0.0204 0.487 -1.0071 0
M  V30 8 C -0.9283 1.426 -0.3809 0
M  V30 9 C 1.4081 0.5207 -0.6595 0
M  V30 10 N -0.5848 2.0063 0.8051 0
M  V30 11 C -2.1622 1.7639 -0.9696 0
M  V30 12 C 1.7068 -0.456 0.4916 0
M  V30 13 C -1.3955 2.8902 1.4448 0
M  V30 14 C -3.009 2.6684 -0.3257 0
M  V30 15 N 3.0576 -0.2586 1.0691 0 CHG=1
M  V30 16 C -2.6275 3.2356 0.8895 0
M  V30 17 C 3.1813 -1.0253 2.3216 0
M  V30 18 C 4.1175 -0.6728 0.1302 0
M  V30 19 H -3.299 -3.6506 0.827 0
M  V30 20 H -3.2128 -1.1468 -2.7107 0
M  V30 21 H -0.8899 -0.0468 -2.8681 0
M  V30 22 H 0.3378 -1.196 -2.2756 0
M  V30 23 H -4.61 -2.7533 -1.2465 0
M  V30 24 H 1.7061 1.5536 -0.375 0
M  V30 25 H 2.0118 0.2527 -1.5524 0
M  V30 26 H -2.4694 1.3487 -1.9186 0
M  V30 27 H 1.5871 -1.501 0.1266 0
M  V30 28 H 0.9371 -0.2925 1.2797 0
M  V30 29 H -1.0827 3.3242 2.385 0
M  V30 30 H -3.9594 2.9324 -0.7714 0
M  V30 31 H 3.1926 0.7541 1.3017 0
M  V30 32 H -3.2779 3.9386 1.3941 0
M  V30 33 H 3.0416 -2.1144 2.139 0
M  V30 34 H 4.1812 -0.8648 2.7818 0
M  V30 35 H 2.4235 -0.6871 3.0626 0
M  V30 36 H 4.1428 -0.0037 -0.7552 0
M  V30 37 H 3.9667 -1.7216 -0.2094 0
M  V30 38 H 5.118 -0.5969 0.6104 0
M  V30 END ATOM
M  V30 BEGIN BOND
M  V30 1 1 1 2
M  V30 2 1 1 3
M  V30 3 2 2 4
M  V30 4 1 2 5
M  V30 5 2 3 6
M  V30 6 1 5 7
M  V30 7 1 7 8
M  V30 8 1 7 9
M  V30 9 2 8 10
M  V30 10 1 8 11
M  V30 11 1 9 12
M  V30 12 1 10 13
M  V30 13 2 11 14
M  V30 14 1 12 15
M  V30 15 2 13 16
M  V30 16 1 15 17
M  V30 17 1 15 18
M  V30 18 1 4 6
M  V30 19 1 14 16
M  V30 20 1 3 19
M  V30 21 1 4 20
M  V30 22 1 5 21
M  V30 23 1 5 22
M  V30 24 1 6 23
M  V30 25 1 9 24
M  V30 26 1 9 25
M  V30 27 1 11 26
M  V30 28 1 12 27
M  V30 29 1 12 28
M  V30 30 1 13 29
M  V30 31 1 14 30
M  V30 32 1 15 31
M  V30 33 1 16 32
M  V30 34 1 17 33
M  V30 35 1 17 34
M  V30 36 1 17 35
M  V30 37 1 18 36
M  V30 38 1 18 37
M  V30 39 1 18 38
M  V30 END BOND
M  V30 END CTAB
M  END
>  <Structure No>
3344

>  <LogS>
-2.6383

>  <MMFF94 Energy>
7.0503

$$$$
Compound 3345
Actelion Java MolfileCreator 2.0

  0  0  0  0  0  0              0 V3000
M  V30 BEGIN CTAB
M  V30 COUNTS 24 25 0 0 0
M  V30 BEGIN ATOM
M  V30 1 O -3.1022 -1.3513 -1.8286 0
M  V30 2 C -2.4058 -0.6364 -0.8547 0
M  V30 3 C -3.0855 0.0811 0.1432 0
M  V30 4 C -1.0066 -0.6382 -0.881 0
M  V30 5 O -4.4791 0.0855 0.1757 0
M  V30 6 C -2.3564 0.792 1.105 0
M  V30 7 C -0.2686 0.0739 0.082 0
M  V30 8 C -0.9598 0.7898 1.0754 0
M  V30 9 C 1.2163 0.0699 0.0501 0
M  V30 10 C 1.9228 -1.1117 -0.244 0
M  V30 11 C 1.9412 1.2478 0.3137 0
M  V30 12 C 3.3207 -1.1127 -0.2728 0
M  V30 13 C 3.339 1.2411 0.2826 0
M  V30 14 C 4.028 0.0623 -0.01 0
M  V30 15 H -4.1144 -1.381 -1.8536 0
M  V30 16 H -0.4989 -1.183 -1.6672 0
M  V30 17 H -4.9918 0.5956 0.8855 0
M  V30 18 H -2.8722 1.3449 1.8798 0
M  V30 19 H -0.4204 1.3334 1.8409 0
M  V30 20 H 1.3955 -2.038 -0.4339 0
M  V30 21 H 1.4276 2.177 0.5263 0
M  V30 22 H 3.8559 -2.0266 -0.4958 0
M  V30 23 H 3.8883 2.1521 0.4824 0
M  V30 24 H 5.11 0.0594 -0.0332 0
M  V30 END ATOM
M  V30 BEGIN BOND
M  V30 1 1 1 2
M  V30 2 2 2 3
M  V30 3 1 2 4
M  V30 4 1 3 5
M  V30 5 1 3 6
M  V30 6 2 4 7
M  V30 7 2 6 8
M  V30 8 1 7 9
M  V30 9 2 9 10
M  V30 10 1 9 11
M  V30 11 1 10 12
M  V30 12 2 11 13
M  V30 13 2 12 14
M  V30 14 1 7 8
M  V30 15 1 13 14
M  V30 16 1 1 15
M  V30 17 1 4 16
M  V30 18 1 5 17
M  V30 19 1 6 18
M  V30 20 1 8 19
M  V30 21 1 10 20
M  V30 22 1 11 21
M  V30 23 1 12 22
M  V30 24 1 13 23
M  V30 25 1 14 24
M  V30 END BOND
M  V30 END CTAB
M  END
>  <Structure No>
3345

>  <LogS>
-2.0659

>  <MMFF94 Energy>
25.696

$$$$
Compound 3346
Actelion Java MolfileCreator 2.0

  0  0  0  0  0  0              0 V3000
M  V30 BEGIN CTAB
M  V30 COUNTS 32 34 0 0 0
M  V30 BEGIN ATOM
M  V30 1 C -1.196 -0.4782 0.7175 0
M  V30 2 C -2.5198 0.0082 0.2513 0
M  V30 3 C -0.0133 -0.0462 0.0888 0
M  V30 4 C -1.1065 -1.3797 1.7923 0
M  V30 5 C -2.7932 0.1329 -1.1242 0
M  V30 6 C -3.5226 0.3522 1.178 0
M  V30 7 C 1.2442 -0.5061 0.5222 0
M  V30 8 C 0.1372 -1.8409 2.2263 0
M  V30 9 C -4.0404 0.5911 -1.5597 0
M  V30 10 C -4.7677 0.8108 0.7367 0
M  V30 11 C 2.4881 -0.0419 -0.1434 0
M  V30 12 C 1.306 -1.4094 1.5973 0
M  V30 13 C -5.0265 0.9301 -0.6304 0
M  V30 14 C 3.5375 -0.9428 -0.4065 0
M  V30 15 C 2.6378 1.3061 -0.5217 0
M  V30 16 C 4.7073 -0.5037 -1.0343 0
M  V30 17 C 3.8101 1.7397 -1.1483 0
M  V30 18 C 4.8436 0.8359 -1.4046 0
M  V30 19 H -0.0717 0.6492 -0.7393 0
M  V30 20 H -1.9998 -1.742 2.2855 0
M  V30 21 H -2.0499 -0.1406 -1.8624 0
M  V30 22 H -3.3379 0.2834 2.2427 0
M  V30 23 H 0.1955 -2.5359 3.0542 0
M  V30 24 H -4.2436 0.6802 -2.6191 0
M  V30 25 H -5.5315 1.0771 1.4561 0
M  V30 26 H 2.2597 -1.7685 1.9633 0
M  V30 27 H -5.9912 1.2849 -0.9698 0
M  V30 28 H 3.4464 -1.9891 -0.1429 0
M  V30 29 H 1.8568 2.0277 -0.3169 0
M  V30 30 H 5.5075 -1.2039 -1.2365 0
M  V30 31 H 3.9186 2.7787 -1.4322 0
M  V30 32 H 5.7501 1.1737 -1.8901 0
M  V30 END ATOM
M  V30 BEGIN BOND
M  V30 1 1 1 2
M  V30 2 2 1 3
M  V30 3 1 1 4
M  V30 4 2 2 5
M  V30 5 1 2 6
M  V30 6 1 3 7
M  V30 7 2 4 8
M  V30 8 1 5 9
M  V30 9 2 6 10
M  V30 10 1 7 11
M  V30 11 2 7 12
M  V30 12 2 9 13
M  V30 13 2 11 14
M  V30 14 1 11 15
M  V30 15 1 14 16
M  V30 16 2 15 17
M  V30 17 2 16 18
M  V30 18 1 8 12
M  V30 19 1 10 13
M  V30 20 1 17 18
M  V30 21 1 3 19
M  V30 22 1 4 20
M  V30 23 1 5 21
M  V30 24 1 6 22
M  V30 25 1 8 23
M  V30 26 1 9 24
M  V30 27 1 10 25
M  V30 28 1 12 26
M  V30 29 1 13 27
M  V30 30 1 14 28
M  V30 31 1 15 29
M  V30 32 1 16 30
M  V30 33 1 17 31
M  V30 34 1 18 32
M  V30 END BOND
M  V30 END CTAB
M  END
>  <Structure No>
3346

>  <LogS>
-5.183

>  <MMFF94 Energy>
60.659

$$$$
Compound 3347
Actelion Java MolfileCreator 2.0

  0  0  0  0  0  0              0 V3000
M  V30 BEGIN CTAB
M  V30 COUNTS 35 37 0 0 0
M  V30 BEGIN ATOM
M  V30 1 S -0.2421 -1.5344 -0.3228 0 CHG=1 VAL=2
M  V30 2 C -1.8037 -0.9464 -0.0796 0
M  V30 3 C 0.9158 -0.3485 -0.0134 0
M  V30 4 C -1.9441 0.3915 0.3299 0
M  V30 5 C -2.9228 -1.7568 -0.2768 0
M  V30 6 C 0.4612 0.9207 0.3876 0
M  V30 7 C 2.2815 -0.6137 -0.1512 0
M  V30 8 N -0.8681 1.213 0.5319 0
M  V30 9 C -3.2303 0.9024 0.5385 0
M  V30 10 C -4.2119 -1.2454 -0.068 0
M  V30 11 C 1.4032 1.9203 0.6479 0
M  V30 12 C 3.2345 0.3925 0.1104 0
M  V30 13 C -4.3697 0.0998 0.3445 0
M  V30 14 N -5.342 -2.1035 -0.2791 0
M  V30 15 C 2.7711 1.6637 0.5122 0
M  V30 16 N 4.6552 0.1278 -0.0293 0
M  V30 17 C -5.7342 0.6897 0.5802 0
M  V30 18 C 5.1655 -1.2482 0.0098 0
M  V30 19 C 5.6057 1.2316 -0.2122 0
M  V30 20 H -2.7928 -2.7851 -0.5924 0
M  V30 21 H 2.5887 -1.5997 -0.4722 0
M  V30 22 H -3.3413 1.9335 0.8541 0
M  V30 23 H 1.0766 2.9049 0.9603 0
M  V30 24 H -5.2056 -3.0932 -0.5835 0
M  V30 25 H -6.323 -1.7772 -0.1391 0
M  V30 26 H 3.4619 2.4649 0.7349 0
M  V30 27 H -5.674 1.7524 0.8983 0
M  V30 28 H -6.256 0.1225 1.3794 0
M  V30 29 H -6.3293 0.6462 -0.356 0
M  V30 30 H 6.2712 -1.2716 0.11 0
M  V30 31 H 4.8904 -1.7795 -0.9251 0
M  V30 32 H 4.7402 -1.7842 0.8849 0
M  V30 33 H 6.6073 0.8625 -0.5186 0
M  V30 34 H 5.2435 1.9138 -1.0104 0
M  V30 35 H 5.719 1.7934 0.7384 0
M  V30 END ATOM
M  V30 BEGIN BOND
M  V30 1 1 1 2
M  V30 2 2 1 3
M  V30 3 1 2 4
M  V30 4 2 2 5
M  V30 5 1 3 6
M  V30 6 1 3 7
M  V30 7 1 4 8
M  V30 8 2 4 9
M  V30 9 1 5 10
M  V30 10 1 6 11
M  V30 11 2 7 12
M  V30 12 1 9 13
M  V30 13 1 10 14
M  V30 14 2 11 15
M  V30 15 1 12 16
M  V30 16 1 13 17
M  V30 17 1 16 18
M  V30 18 1 16 19
M  V30 19 2 6 8
M  V30 20 2 10 13
M  V30 21 1 12 15
M  V30 22 1 5 20
M  V30 23 1 7 21
M  V30 24 1 9 22
M  V30 25 1 11 23
M  V30 26 1 14 24
M  V30 27 1 14 25
M  V30 28 1 15 26
M  V30 29 1 17 27
M  V30 30 1 17 28
M  V30 31 1 17 29
M  V30 32 1 18 30
M  V30 33 1 18 31
M  V30 34 1 18 32
M  V30 35 1 19 33
M  V30 36 1 19 34
M  V30 37 1 19 35
M  V30 END BOND
M  V30 END CTAB
M  END
>  <Structure No>
3347

>  <LogS>
-0.9034

>  <MMFF94 Energy>
47.317

$$$$
Compound 3348
Actelion Java MolfileCreator 2.0

  0  0  0  0  0  0              0 V3000
M  V30 BEGIN CTAB
M  V30 COUNTS 20 21 0 0 0
M  V30 BEGIN ATOM
M  V30 1 O 3.1077 1.513 -0.5572 0
M  V30 2 C 1.9511 0.7678 -0.3341 0
M  V30 3 C 2.0308 -0.629 -0.261 0
M  V30 4 C 0.7134 1.4091 -0.1832 0
M  V30 5 O 3.2657 -1.2574 -0.4122 0
M  V30 6 C 0.873 -1.3874 -0.0369 0
M  V30 7 C -0.4498 0.6579 0.0412 0
M  V30 8 C -0.3692 -0.7538 0.1151 0
M  V30 9 C -1.6933 1.2914 0.1935 0
M  V30 10 C -1.5336 -1.5051 0.3398 0
M  V30 11 C -2.8453 0.5315 0.4168 0
M  V30 12 C -2.7657 -0.8617 0.4897 0
M  V30 13 H 3.0839 2.5245 -0.6153 0
M  V30 14 H 0.6621 2.4901 -0.2413 0
M  V30 15 H 3.3573 -2.2655 -0.3647 0
M  V30 16 H 0.9451 -2.4673 0.018 0
M  V30 17 H -1.774 2.3707 0.14 0
M  V30 18 H -1.4911 -2.5861 0.3993 0
M  V30 19 H -3.8021 1.0239 0.5337 0
M  V30 20 H -3.6613 -1.4445 0.6628 0
M  V30 END ATOM
M  V30 BEGIN BOND
M  V30 1 1 1 2
M  V30 2 1 2 3
M  V30 3 2 2 4
M  V30 4 1 3 5
M  V30 5 2 3 6
M  V30 6 1 4 7
M  V30 7 1 6 8
M  V30 8 2 7 9
M  V30 9 2 8 10
M  V30 10 1 9 11
M  V30 11 1 10 12
M  V30 12 1 7 8
M  V30 13 2 11 12
M  V30 14 1 1 13
M  V30 15 1 4 14
M  V30 16 1 5 15
M  V30 17 1 6 16
M  V30 18 1 9 17
M  V30 19 1 10 18
M  V30 20 1 11 19
M  V30 21 1 12 20
M  V30 END BOND
M  V30 END CTAB
M  END
>  <Structure No>
3348

>  <LogS>
-2.7377

>  <MMFF94 Energy>
16.873

$$$$
Compound 3349
Actelion Java MolfileCreator 2.0

  0  0  0  0  0  0              0 V3000
M  V30 BEGIN CTAB
M  V30 COUNTS 27 27 0 0 0
M  V30 BEGIN ATOM
M  V30 1 O -1.948 -2.104 -0.0778 0
M  V30 2 C -2.4685 -1.085 -0.8854 0
M  V30 3 C -1.3309 -0.2519 -1.4721 0
M  V30 4 N -0.59 0.4355 -0.4063 0
M  V30 5 C 0.5654 -0.1911 0.1822 0
M  V30 6 C -1.0879 1.7138 0.1214 0
M  V30 7 C 0.6071 -0.4623 1.5604 0
M  V30 8 C 1.668 -0.5317 -0.6184 0
M  V30 9 C -0.0936 2.8337 -0.1652 0
M  V30 10 C 1.7342 -1.0667 2.1257 0
M  V30 11 C 2.7935 -1.1347 -0.0491 0
M  V30 12 C 2.8265 -1.4023 1.3218 0
M  V30 13 H -2.7308 -2.5964 0.282 0
M  V30 14 H -3.0547 -1.5324 -1.7186 0
M  V30 15 H -3.1415 -0.4309 -0.2872 0
M  V30 16 H -1.7504 0.494 -2.1817 0
M  V30 17 H -0.6578 -0.9127 -2.0592 0
M  V30 18 H -2.0613 1.9777 -0.3467 0
M  V30 19 H -1.2614 1.6387 1.2151 0
M  V30 20 H -0.237 -0.2244 2.1937 0
M  V30 21 H 1.6608 -0.3157 -1.6791 0
M  V30 22 H 0.089 2.9089 -1.258 0
M  V30 23 H 0.8681 2.6379 0.3542 0
M  V30 24 H -0.5037 3.7994 0.1982 0
M  V30 25 H 1.7591 -1.2779 3.187 0
M  V30 26 H 3.6415 -1.3918 -0.6706 0
M  V30 27 H 3.6983 -1.8696 1.7611 0
M  V30 END ATOM
M  V30 BEGIN BOND
M  V30 1 1 1 2
M  V30 2 1 2 3
M  V30 3 1 3 4
M  V30 4 1 4 5
M  V30 5 1 4 6
M  V30 6 2 5 7
M  V30 7 1 5 8
M  V30 8 1 6 9
M  V30 9 1 7 10
M  V30 10 2 8 11
M  V30 11 2 10 12
M  V30 12 1 11 12
M  V30 13 1 1 13
M  V30 14 1 2 14
M  V30 15 1 2 15
M  V30 16 1 3 16
M  V30 17 1 3 17
M  V30 18 1 6 18
M  V30 19 1 6 19
M  V30 20 1 7 20
M  V30 21 1 8 21
M  V30 22 1 9 22
M  V30 23 1 9 23
M  V30 24 1 9 24
M  V30 25 1 10 25
M  V30 26 1 11 26
M  V30 27 1 12 27
M  V30 END BOND
M  V30 END CTAB
M  END
>  <Structure No>
3349

>  <LogS>
-1.9171

>  <MMFF94 Energy>
39.378

$$$$
Compound 3350
Actelion Java MolfileCreator 2.0

  0  0  0  0  0  0              0 V3000
M  V30 BEGIN CTAB
M  V30 COUNTS 28 30 0 0 0
M  V30 BEGIN ATOM
M  V30 1 N 0.0792 1.0306 0.317 0 CHG=1
M  V30 2 C 1.2156 0.3143 0.0734 0
M  V30 3 C -1.1595 0.4738 0.1777 0
M  V30 4 C 1.1267 -1.0366 -0.3332 0
M  V30 5 C 2.4785 0.9096 0.2238 0
M  V30 6 C -1.2876 -0.8744 -0.2271 0
M  V30 7 C -2.3137 1.2314 0.4343 0
M  V30 8 C -0.1342 -1.6245 -0.4813 0
M  V30 9 C 2.2963 -1.769 -0.5824 0
M  V30 10 C 3.6448 0.1726 -0.0266 0
M  V30 11 C -2.5619 -1.4427 -0.3689 0
M  V30 12 C -3.5853 0.6582 0.2909 0
M  V30 13 C 3.5475 -1.1661 -0.4295 0
M  V30 14 N 4.9281 0.7843 0.1281 0
M  V30 15 C -3.7032 -0.6791 -0.1109 0
M  V30 16 N -4.7572 1.4348 0.5536 0
M  V30 17 H 0.1594 2.0298 0.6175 0
M  V30 18 H 2.5554 1.9444 0.5352 0
M  V30 19 H -2.2244 2.2654 0.7451 0
M  V30 20 H -0.2175 -2.6601 -0.7927 0
M  V30 21 H 2.2431 -2.8052 -0.8946 0
M  V30 22 H -2.675 -2.4748 -0.6786 0
M  V30 23 H 4.4426 -1.743 -0.6251 0
M  V30 24 H 5.8032 0.2448 -0.0557 0
M  V30 25 H 5.013 1.7812 0.4278 0
M  V30 26 H -4.681 -1.1301 -0.2242 0
M  V30 27 H -5.7093 1.0181 0.45 0
M  V30 28 H -4.6818 2.4324 0.8537 0
M  V30 END ATOM
M  V30 BEGIN BOND
M  V30 1 1 1 2
M  V30 2 2 1 3
M  V30 3 1 2 4
M  V30 4 2 2 5
M  V30 5 1 3 6
M  V30 6 1 3 7
M  V30 7 1 4 8
M  V30 8 2 4 9
M  V30 9 1 5 10
M  V30 10 1 6 11
M  V30 11 2 7 12
M  V30 12 1 9 13
M  V30 13 1 10 14
M  V30 14 2 11 15
M  V30 15 1 12 16
M  V30 16 2 6 8
M  V30 17 2 10 13
M  V30 18 1 12 15
M  V30 19 1 1 17
M  V30 20 1 5 18
M  V30 21 1 7 19
M  V30 22 1 8 20
M  V30 23 1 9 21
M  V30 24 1 11 22
M  V30 25 1 13 23
M  V30 26 1 14 24
M  V30 27 1 14 25
M  V30 28 1 15 26
M  V30 29 1 16 27
M  V30 30 1 16 28
M  V30 END BOND
M  V30 END CTAB
M  END
>  <Structure No>
3350

>  <LogS>
0.3783

>  <MMFF94 Energy>
36.16

$$$$
Compound 3351
Actelion Java MolfileCreator 2.0

  0  0  0  0  0  0              0 V3000
M  V30 BEGIN CTAB
M  V30 COUNTS 27 28 0 0 0
M  V30 BEGIN ATOM
M  V30 1 O 4.3019 -1.8305 -0.4772 0
M  V30 2 C 3.8146 -0.8385 0.1301 0
M  V30 3 C 2.3558 -0.5598 0.038 0
M  V30 4 C 4.7385 0.0301 0.9301 0
M  V30 5 C 1.7766 0.5398 0.6989 0
M  V30 6 C 1.5243 -1.403 -0.7209 0
M  V30 7 C 0.4044 0.7871 0.6026 0
M  V30 8 C 0.1525 -1.1543 -0.8176 0
M  V30 9 C -0.4233 -0.0565 -0.1565 0
M  V30 10 C -1.8816 0.2073 -0.2588 0
M  V30 11 C -2.5547 0.0428 -1.4844 0
M  V30 12 C -2.614 0.6265 0.8683 0
M  V30 13 C -3.9273 0.2924 -1.5776 0
M  V30 14 C -3.9866 0.8737 0.7692 0
M  V30 15 C -4.6426 0.7072 -0.4521 0
M  V30 16 H 5.7803 -0.3508 0.8715 0
M  V30 17 H 4.7213 1.0661 0.5318 0
M  V30 18 H 4.4257 0.0329 1.9952 0
M  V30 19 H 2.3774 1.2172 1.2904 0
M  V30 20 H 1.9323 -2.2609 -1.2403 0
M  V30 21 H -0.0065 1.6514 1.1092 0
M  V30 22 H -0.4611 -1.8332 -1.3961 0
M  V30 23 H -2.0172 -0.2613 -2.3735 0
M  V30 24 H -2.1296 0.7456 1.8291 0
M  V30 25 H -4.4361 0.1673 -2.5247 0
M  V30 26 H -4.5428 1.1916 1.6416 0
M  V30 27 H -5.705 0.8995 -0.5266 0
M  V30 END ATOM
M  V30 BEGIN BOND
M  V30 1 2 1 2
M  V30 2 1 2 3
M  V30 3 1 2 4
M  V30 4 2 3 5
M  V30 5 1 3 6
M  V30 6 1 5 7
M  V30 7 2 6 8
M  V30 8 2 7 9
M  V30 9 1 9 10
M  V30 10 2 10 11
M  V30 11 1 10 12
M  V30 12 1 11 13
M  V30 13 2 12 14
M  V30 14 2 13 15
M  V30 15 1 8 9
M  V30 16 1 14 15
M  V30 17 1 4 16
M  V30 18 1 4 17
M  V30 19 1 4 18
M  V30 20 1 5 19
M  V30 21 1 6 20
M  V30 22 1 7 21
M  V30 23 1 8 22
M  V30 24 1 11 23
M  V30 25 1 12 24
M  V30 26 1 13 25
M  V30 27 1 14 26
M  V30 28 1 15 27
M  V30 END BOND
M  V30 END CTAB
M  END
>  <Structure No>
3351

>  <LogS>
-3.3104

>  <MMFF94 Energy>
57.865

$$$$
Compound 3352
Actelion Java MolfileCreator 2.0

  0  0  0  0  0  0              0 V3000
M  V30 BEGIN CTAB
M  V30 COUNTS 24 25 0 0 0
M  V30 BEGIN ATOM
M  V30 1 O 5.0682 1.1246 -1.1246 0
M  V30 2 N 4.5147 0.2418 -0.4364 0 CHG=1
M  V30 3 O 5.302 -0.6652 0.2354 0 CHG=-1
M  V30 4 C 3.0797 0.1728 -0.3464 0
M  V30 5 C 2.4628 -0.8237 0.4282 0
M  V30 6 C 2.2718 1.0987 -1.0299 0
M  V30 7 C 1.0696 -0.8936 0.5183 0
M  V30 8 C 0.8787 1.0283 -0.9406 0
M  V30 9 C 0.2614 0.0314 -0.1652 0
M  V30 10 C -1.2192 -0.0431 -0.0696 0
M  V30 11 C -2.0218 0.1764 -1.2055 0
M  V30 12 C -1.8438 -0.3346 1.1582 0
M  V30 13 C -3.4153 0.1051 -1.1127 0
M  V30 14 C -3.2377 -0.4036 1.2452 0
M  V30 15 C -4.0227 -0.1843 0.1112 0
M  V30 16 H 3.0571 -1.5532 0.9631 0
M  V30 17 H 2.7171 1.8806 -1.6316 0
M  V30 18 H 0.6241 -1.6837 1.1097 0
M  V30 19 H 0.2842 1.7661 -1.4648 0
M  V30 20 H -1.5722 0.3855 -2.168 0
M  V30 21 H -1.2559 -0.4912 2.0538 0
M  V30 22 H -4.0247 0.2712 -1.9918 0
M  V30 23 H -3.7097 -0.6242 2.194 0
M  V30 24 H -5.1015 -0.2387 0.1807 0
M  V30 END ATOM
M  V30 BEGIN BOND
M  V30 1 2 1 2
M  V30 2 1 2 3
M  V30 3 1 2 4
M  V30 4 2 4 5
M  V30 5 1 4 6
M  V30 6 1 5 7
M  V30 7 2 6 8
M  V30 8 2 7 9
M  V30 9 1 9 10
M  V30 10 2 10 11
M  V30 11 1 10 12
M  V30 12 1 11 13
M  V30 13 2 12 14
M  V30 14 2 13 15
M  V30 15 1 8 9
M  V30 16 1 14 15
M  V30 17 1 5 16
M  V30 18 1 6 17
M  V30 19 1 7 18
M  V30 20 1 8 19
M  V30 21 1 11 20
M  V30 22 1 12 21
M  V30 23 1 13 22
M  V30 24 1 14 23
M  V30 25 1 15 24
M  V30 END BOND
M  V30 END CTAB
M  END
>  <Structure No>
3352

>  <LogS>
-5.2094

>  <MMFF94 Energy>
72.19

$$$$
Compound 3353
Actelion Java MolfileCreator 2.0

  0  0  0  0  0  0              0 V3000
M  V30 BEGIN CTAB
M  V30 COUNTS 22 22 0 0 0
M  V30 BEGIN ATOM
M  V30 1 O 1.2646 3.6391 0.316 0
M  V30 2 C 1.6906 2.4774 0.079 0
M  V30 3 C 0.7767 1.3144 0.0789 0
M  V30 4 C 1.2711 0.0209 -0.1883 0
M  V30 5 C -0.5931 1.4921 0.3459 0
M  V30 6 O 2.641 -0.1464 -0.4539 0
M  V30 7 C 0.3814 -1.0707 -0.1829 0
M  V30 8 C -1.4727 0.4053 0.3503 0
M  V30 9 C 3.264 -1.395 -0.7378 0
M  V30 10 C -0.9754 -0.8809 0.0835 0
M  V30 11 O -2.8278 0.6462 0.6234 0
M  V30 12 C -3.8325 -0.362 0.661 0
M  V30 13 H 2.7449 2.3463 -0.1255 0
M  V30 14 H -0.9869 2.4799 0.553 0
M  V30 15 H 0.7293 -2.0746 -0.3841 0
M  V30 16 H 3.1402 -2.0876 0.1214 0
M  V30 17 H 2.8259 -1.8404 -1.6558 0
M  V30 18 H 4.3476 -1.2288 -0.9062 0
M  V30 19 H -1.6295 -1.7421 0.0793 0
M  V30 20 H -3.5955 -1.1082 1.4487 0
M  V30 21 H -4.8089 0.1076 0.899 0
M  V30 22 H -3.9098 -0.861 -0.328 0
M  V30 END ATOM
M  V30 BEGIN BOND
M  V30 1 2 1 2
M  V30 2 1 2 3
M  V30 3 2 3 4
M  V30 4 1 3 5
M  V30 5 1 4 6
M  V30 6 1 4 7
M  V30 7 2 5 8
M  V30 8 1 6 9
M  V30 9 2 7 10
M  V30 10 1 8 11
M  V30 11 1 11 12
M  V30 12 1 8 10
M  V30 13 1 2 13
M  V30 14 1 5 14
M  V30 15 1 7 15
M  V30 16 1 9 16
M  V30 17 1 9 17
M  V30 18 1 9 18
M  V30 19 1 10 19
M  V30 20 1 12 20
M  V30 21 1 12 21
M  V30 22 1 12 22
M  V30 END BOND
M  V30 END CTAB
M  END
>  <Structure No>
3353

>  <LogS>
-2.3202

>  <MMFF94 Energy>
37.054

$$$$
Compound 3354
Actelion Java MolfileCreator 2.0

  0  0  0  0  0  0              0 V3000
M  V30 BEGIN CTAB
M  V30 COUNTS 19 20 0 0 0
M  V30 BEGIN ATOM
M  V30 1 O -3.4922 2.3542 0.2433 0
M  V30 2 C -3.4074 1.1049 0.1083 0
M  V30 3 O -4.5718 0.3485 0.0377 0 CHG=-1
M  V30 4 C -2.086 0.4597 0.027 0
M  V30 5 N -0.9611 1.2249 0.0989 0
M  V30 6 C -1.969 -0.9313 -0.1235 0
M  V30 7 C 0.2853 0.6851 0.0296 0
M  V30 8 C -0.7021 -1.5144 -0.1977 0
M  V30 9 C 0.4411 -0.7104 -0.1216 0
M  V30 10 C 1.4142 1.5089 0.1079 0
M  V30 11 C 1.7285 -1.2635 -0.1928 0
M  V30 12 C 2.6942 0.9497 0.0361 0
M  V30 13 C 2.8508 -0.4321 -0.1136 0
M  V30 14 H -2.8471 -1.562 -0.1832 0
M  V30 15 H -0.6167 -2.5883 -0.3137 0
M  V30 16 H 1.3023 2.58 0.224 0
M  V30 17 H 1.8656 -2.332 -0.3088 0
M  V30 18 H 3.5661 1.5882 0.0968 0
M  V30 19 H 3.8437 -0.8595 -0.1686 0
M  V30 END ATOM
M  V30 BEGIN BOND
M  V30 1 2 1 2
M  V30 2 1 2 3
M  V30 3 1 2 4
M  V30 4 2 4 5
M  V30 5 1 4 6
M  V30 6 1 5 7
M  V30 7 2 6 8
M  V30 8 1 7 9
M  V30 9 2 7 10
M  V30 10 2 9 11
M  V30 11 1 10 12
M  V30 12 1 11 13
M  V30 13 1 8 9
M  V30 14 2 12 13
M  V30 15 1 6 14
M  V30 16 1 8 15
M  V30 17 1 10 16
M  V30 18 1 11 17
M  V30 19 1 12 18
M  V30 20 1 13 19
M  V30 END BOND
M  V30 END CTAB
M  END
>  <Structure No>
3354

>  <LogS>
-1.0911

>  <MMFF94 Energy>
109.14

$$$$
Compound 3355
Actelion Java MolfileCreator 2.0

  0  0  0  0  0  0              0 V3000
M  V30 BEGIN CTAB
M  V30 COUNTS 23 24 0 0 0
M  V30 BEGIN ATOM
M  V30 1 N 1.2678 -1.03 -0.2376 0
M  V30 2 C 0.0872 -0.3752 -0.0699 0
M  V30 3 C 2.4608 -0.3741 -0.2354 0
M  V30 4 C 0.0782 1.025 0.111 0
M  V30 5 C -1.1177 -1.0863 -0.0788 0
M  V30 6 C 2.4922 1.0155 -0.0577 0
M  V30 7 C 3.7313 -1.1395 -0.4241 0
M  V30 8 C 1.2964 1.7155 0.1154 0
M  V30 9 C -1.1405 1.697 0.2767 0
M  V30 10 C -2.3366 -0.4139 0.1046 0
M  V30 11 C -2.3415 0.9809 0.2666 0
M  V30 12 C -3.6303 -1.1715 0.0555 0
M  V30 13 H -1.1057 -2.1597 -0.2273 0
M  V30 14 H 3.4342 1.5499 -0.0545 0
M  V30 15 H 4.2556 -0.7771 -1.3331 0
M  V30 16 H 4.3891 -0.9984 0.4591 0
M  V30 17 H 3.5204 -2.2235 -0.5421 0
M  V30 18 H 1.3235 2.7901 0.2513 0
M  V30 19 H -1.1649 2.772 0.4093 0
M  V30 20 H -3.2764 1.5145 0.3862 0
M  V30 21 H -4.4002 -0.6742 0.6832 0
M  V30 22 H -3.9918 -1.2168 -0.9928 0
M  V30 23 H -3.4932 -2.2058 0.4367 0
M  V30 END ATOM
M  V30 BEGIN BOND
M  V30 1 1 1 2
M  V30 2 2 1 3
M  V30 3 1 2 4
M  V30 4 2 2 5
M  V30 5 1 3 6
M  V30 6 1 3 7
M  V30 7 1 4 8
M  V30 8 2 4 9
M  V30 9 1 5 10
M  V30 10 1 9 11
M  V30 11 1 10 12
M  V30 12 2 6 8
M  V30 13 2 10 11
M  V30 14 1 5 13
M  V30 15 1 6 14
M  V30 16 1 7 15
M  V30 17 1 7 16
M  V30 18 1 7 17
M  V30 19 1 8 18
M  V30 20 1 9 19
M  V30 21 1 11 20
M  V30 22 1 12 21
M  V30 23 1 12 22
M  V30 24 1 12 23
M  V30 END BOND
M  V30 END CTAB
M  END
>  <Structure No>
3355

>  <LogS>
-1.9424

>  <MMFF94 Energy>
36.931

$$$$
Compound 3356
Actelion Java MolfileCreator 2.0

  0  0  0  0  0  0              0 V3000
M  V30 BEGIN CTAB
M  V30 COUNTS 23 22 0 0 0
M  V30 BEGIN ATOM
M  V30 1 Cl -0.5528 -3.7954 -1.2639 0
M  V30 2 C -0.4155 -2.8305 0.226 0
M  V30 3 C 0.5294 -1.6842 0.0055 0
M  V30 4 O 1.7339 -1.8388 0.3479 0
M  V30 5 N 0.1172 -0.4476 -0.6286 0
M  V30 6 C 1.1254 0.5906 -0.8976 0
M  V30 7 C -1.2813 -0.2126 -1.0261 0
M  V30 8 C 1.5718 1.2414 0.3828 0
M  V30 9 C -2.1093 0.2006 0.1586 0
M  V30 10 C 2.5081 2.1926 0.3804 0
M  V30 11 C -1.9635 1.3978 0.7324 0
M  V30 12 H -1.4167 -2.4752 0.5383 0
M  V30 13 H -0.0293 -3.487 1.0345 0
M  V30 14 H 1.9979 0.1362 -1.4155 0
M  V30 15 H 0.7189 1.3781 -1.5684 0
M  V30 16 H -1.351 0.5746 -1.8076 0
M  V30 17 H -1.7091 -1.1285 -1.4832 0
M  V30 18 H 1.1267 0.9414 1.3275 0
M  V30 19 H -2.8611 -0.4817 0.5434 0
M  V30 20 H 2.9711 2.5174 -0.5464 0
M  V30 21 H 2.8166 2.6536 1.3132 0
M  V30 22 H -1.2378 2.113 0.3586 0
M  V30 23 H -2.5817 1.6718 1.581 0
M  V30 END ATOM
M  V30 BEGIN BOND
M  V30 1 1 1 2
M  V30 2 1 2 3
M  V30 3 2 3 4
M  V30 4 1 3 5
M  V30 5 1 5 6
M  V30 6 1 5 7
M  V30 7 1 6 8
M  V30 8 1 7 9
M  V30 9 2 8 10
M  V30 10 2 9 11
M  V30 11 1 2 12
M  V30 12 1 2 13
M  V30 13 1 6 14
M  V30 14 1 6 15
M  V30 15 1 7 16
M  V30 16 1 7 17
M  V30 17 1 8 18
M  V30 18 1 9 19
M  V30 19 1 10 20
M  V30 20 1 10 21
M  V30 21 1 11 22
M  V30 22 1 11 23
M  V30 END BOND
M  V30 END CTAB
M  END
>  <Structure No>
3356

>  <LogS>
-0.9452

>  <MMFF94 Energy>
10.877

$$$$
Compound 3357
Actelion Java MolfileCreator 2.0

  0  0  0  0  0  0              0 V3000
M  V30 BEGIN CTAB
M  V30 COUNTS 24 24 0 0 0
M  V30 BEGIN ATOM
M  V30 1 Cl -5.1814 0.0847 1.6118 0
M  V30 2 C -3.6242 0.0544 0.7954 0
M  V30 3 C -2.717 -0.999 0.9958 0
M  V30 4 C -3.2955 1.0982 -0.0766 0
M  V30 5 Cl -3.0945 -2.3355 2.0744 0
M  V30 6 C -1.4869 -0.993 0.3291 0
M  V30 7 C -2.0645 1.1052 -0.742 0
M  V30 8 C -1.1471 0.0613 -0.5265 0
M  V30 9 Cl -1.722 2.3968 -1.884 0
M  V30 10 O 0.0943 0.0433 -1.1689 0
M  V30 11 C 1.1602 0.9178 -0.799 0
M  V30 12 C 1.8093 0.4715 0.5179 0
M  V30 13 C 2.4388 -0.9262 0.4322 0
M  V30 14 C 3.6418 -0.9388 -0.4599 0
M  V30 15 O 3.559 -1.3962 -1.6301 0
M  V30 16 O 4.8471 -0.4157 -0.0089 0 CHG=-1
M  V30 17 H -4.0023 1.9015 -0.2445 0
M  V30 18 H -0.7872 -1.8042 0.4842 0
M  V30 19 H 1.9176 0.9247 -1.6103 0
M  V30 20 H 0.7865 1.9574 -0.686 0
M  V30 21 H 1.0373 0.4691 1.3177 0
M  V30 22 H 2.5851 1.2121 0.8121 0
M  V30 23 H 1.6911 -1.6667 0.0754 0
M  V30 24 H 2.754 -1.239 1.4507 0
M  V30 END ATOM
M  V30 BEGIN BOND
M  V30 1 1 1 2
M  V30 2 2 2 3
M  V30 3 1 2 4
M  V30 4 1 3 5
M  V30 5 1 3 6
M  V30 6 2 4 7
M  V30 7 2 6 8
M  V30 8 1 7 9
M  V30 9 1 8 10
M  V30 10 1 10 11
M  V30 11 1 11 12
M  V30 12 1 12 13
M  V30 13 1 13 14
M  V30 14 2 14 15
M  V30 15 1 14 16
M  V30 16 1 7 8
M  V30 17 1 4 17
M  V30 18 1 6 18
M  V30 19 1 11 19
M  V30 20 1 11 20
M  V30 21 1 12 21
M  V30 22 1 12 22
M  V30 23 1 13 23
M  V30 24 1 13 24
M  V30 END BOND
M  V30 END CTAB
M  END
>  <Structure No>
3357

>  <LogS>
-3.8294

>  <MMFF94 Energy>
28.236

$$$$
Compound 3358
Actelion Java MolfileCreator 2.0

  0  0  0  0  0  0              0 V3000
M  V30 BEGIN CTAB
M  V30 COUNTS 22 22 0 0 0
M  V30 BEGIN ATOM
M  V30 1 O -0.5512 -1.5756 1.3392 0
M  V30 2 C -0.3166 -0.5974 0.5777 0
M  V30 3 C 1.0865 -0.1449 0.401 0
M  V30 4 C -1.44 0.1037 -0.0909 0
M  V30 5 C 2.0475 -0.4369 1.3878 0
M  V30 6 C 1.4911 0.5539 -0.7538 0
M  V30 7 C -2.6859 -0.3882 -0.1751 0
M  V30 8 C 3.374 -0.023 1.2317 0
M  V30 9 C 2.8194 0.9644 -0.9046 0
M  V30 10 O -2.9944 -1.6457 0.3446 0
M  V30 11 C -3.7546 0.4111 -0.8621 0
M  V30 12 C 3.759 0.6789 0.0879 0
M  V30 13 H -1.2444 1.0769 -0.5252 0
M  V30 14 H 1.7711 -0.976 2.2855 0
M  V30 15 H 0.7926 0.7654 -1.5524 0
M  V30 16 H 4.1039 -0.2469 1.9991 0
M  V30 17 H 3.1217 1.4994 -1.7957 0
M  V30 18 H -3.9272 -2.0345 0.2757 0
M  V30 19 H -4.7494 -0.0607 -0.7213 0
M  V30 20 H -3.5381 0.4677 -1.9497 0
M  V30 21 H -3.7935 1.4389 -0.4421 0
M  V30 22 H 4.7866 0.9972 -0.0315 0
M  V30 END ATOM
M  V30 BEGIN BOND
M  V30 1 2 1 2
M  V30 2 1 2 3
M  V30 3 1 2 4
M  V30 4 2 3 5
M  V30 5 1 3 6
M  V30 6 2 4 7
M  V30 7 1 5 8
M  V30 8 2 6 9
M  V30 9 1 7 10
M  V30 10 1 7 11
M  V30 11 2 8 12
M  V30 12 1 9 12
M  V30 13 1 4 13
M  V30 14 1 5 14
M  V30 15 1 6 15
M  V30 16 1 8 16
M  V30 17 1 9 17
M  V30 18 1 10 18
M  V30 19 1 11 19
M  V30 20 1 11 20
M  V30 21 1 11 21
M  V30 22 1 12 22
M  V30 END BOND
M  V30 END CTAB
M  END
>  <Structure No>
3358

>  <LogS>
-2.6268

>  <MMFF94 Energy>
40.984

$$$$
Compound 3359
Actelion Java MolfileCreator 2.0

  0  0  0  0  0  0              0 V3000
M  V30 BEGIN CTAB
M  V30 COUNTS 27 28 0 0 0
M  V30 BEGIN ATOM
M  V30 1 O -1.4442 -2.4883 0.0801 0
M  V30 2 C -1.305 -1.2342 0.0596 0
M  V30 3 O -0.0282 -0.6561 0.1166 0
M  V30 4 C -2.4967 -0.3607 -0.0253 0
M  V30 5 C 1.1794 -1.3645 0.1989 0
M  V30 6 C -3.7908 -0.9124 -0.0837 0
M  V30 7 C -2.3509 1.0387 -0.0487 0
M  V30 8 O 1.1837 -2.6261 0.2275 0
M  V30 9 C 2.4577 -0.6208 0.2522 0
M  V30 10 C -4.9118 -0.0799 -0.1639 0
M  V30 11 C -3.4755 1.8661 -0.129 0
M  V30 12 C 2.4622 0.7861 0.2209 0
M  V30 13 C 3.6855 -1.3049 0.3349 0
M  V30 14 C -4.7545 1.3077 -0.1864 0
M  V30 15 C 3.669 1.491 0.2712 0
M  V30 16 C 4.889 -0.5945 0.385 0
M  V30 17 C 4.8809 0.8017 0.3532 0
M  V30 18 H -3.9376 -1.985 -0.0676 0
M  V30 19 H -1.3701 1.4953 -0.0052 0
M  V30 20 H -5.9035 -0.5115 -0.2085 0
M  V30 21 H -3.355 2.9417 -0.1466 0
M  V30 22 H 1.5357 1.3428 0.1576 0
M  V30 23 H 3.7166 -2.387 0.361 0
M  V30 24 H -5.6235 1.95 -0.2486 0
M  V30 25 H 3.6641 2.5732 0.2466 0
M  V30 26 H 5.8289 -1.1275 0.4485 0
M  V30 27 H 5.8136 1.3495 0.3921 0
M  V30 END ATOM
M  V30 BEGIN BOND
M  V30 1 2 1 2
M  V30 2 1 2 3
M  V30 3 1 2 4
M  V30 4 1 3 5
M  V30 5 2 4 6
M  V30 6 1 4 7
M  V30 7 2 5 8
M  V30 8 1 5 9
M  V30 9 1 6 10
M  V30 10 2 7 11
M  V30 11 2 9 12
M  V30 12 1 9 13
M  V30 13 2 10 14
M  V30 14 1 12 15
M  V30 15 2 13 16
M  V30 16 2 15 17
M  V30 17 1 11 14
M  V30 18 1 16 17
M  V30 19 1 6 18
M  V30 20 1 7 19
M  V30 21 1 10 20
M  V30 22 1 11 21
M  V30 23 1 12 22
M  V30 24 1 13 23
M  V30 25 1 14 24
M  V30 26 1 15 25
M  V30 27 1 16 26
M  V30 28 1 17 27
M  V30 END BOND
M  V30 END CTAB
M  END
>  <Structure No>
3359

>  <LogS>
-4.3546

>  <MMFF94 Energy>
61.112

$$$$
Compound 3360
Actelion Java MolfileCreator 2.0

  0  0  0  0  0  0              0 V3000
M  V30 BEGIN CTAB
M  V30 COUNTS 28 28 0 0 0
M  V30 BEGIN ATOM
M  V30 1 Cl 1.7182 2.9469 0.3271 0
M  V30 2 C 2.7613 1.539 0.1945 0
M  V30 3 C 2.2249 0.2444 0.2905 0
M  V30 4 C 4.1342 1.7211 -0.0084 0
M  V30 5 O 0.8437 0.0997 0.4944 0
M  V30 6 C 3.0866 -0.8653 0.1794 0
M  V30 7 C 4.9815 0.6148 -0.1174 0
M  V30 8 C 0.1694 -1.1499 0.6038 0
M  V30 9 C 4.4568 -0.6769 -0.0233 0
M  V30 10 Cl 6.7015 0.8475 -0.372 0
M  V30 11 C -1.2872 -0.901 0.8011 0
M  V30 12 O -1.7639 -0.8633 1.9683 0
M  V30 13 O -2.0999 -0.6681 -0.314 0
M  V30 14 C -3.4841 -0.3293 -0.2244 0
M  V30 15 C -3.6436 1.1328 0.2025 0
M  V30 16 C -4.1396 -0.5632 -1.5839 0
M  V30 17 H 4.5415 2.7218 -0.0816 0
M  V30 18 H 2.7081 -1.8759 0.2485 0
M  V30 19 H 0.5723 -1.7233 1.467 0
M  V30 20 H 0.314 -1.7394 -0.3269 0
M  V30 21 H 5.1096 -1.5365 -0.1071 0
M  V30 22 H -3.986 -0.9876 0.5196 0
M  V30 23 H -4.7198 1.4047 0.2497 0
M  V30 24 H -3.13 1.8045 -0.5183 0
M  V30 25 H -3.2027 1.2891 1.2091 0
M  V30 26 H -3.6641 0.0746 -2.3597 0
M  V30 27 H -4.0223 -1.6279 -1.8777 0
M  V30 28 H -5.2248 -0.3297 -1.5348 0
M  V30 END ATOM
M  V30 BEGIN BOND
M  V30 1 1 1 2
M  V30 2 2 2 3
M  V30 3 1 2 4
M  V30 4 1 3 5
M  V30 5 1 3 6
M  V30 6 2 4 7
M  V30 7 1 5 8
M  V30 8 2 6 9
M  V30 9 1 7 10
M  V30 10 1 8 11
M  V30 11 2 11 12
M  V30 12 1 11 13
M  V30 13 1 13 14
M  V30 14 1 14 15
M  V30 15 1 14 16
M  V30 16 1 7 9
M  V30 17 1 4 17
M  V30 18 1 6 18
M  V30 19 1 8 19
M  V30 20 1 8 20
M  V30 21 1 9 21
M  V30 22 1 14 22
M  V30 23 1 15 23
M  V30 24 1 15 24
M  V30 25 1 15 25
M  V30 26 1 16 26
M  V30 27 1 16 27
M  V30 28 1 16 28
M  V30 END BOND
M  V30 END CTAB
M  END
>  <Structure No>
3360

>  <LogS>
-3.848

>  <MMFF94 Energy>
42.895

$$$$
Compound 3361
Actelion Java MolfileCreator 2.0

  0  0  0  0  0  0              0 V3000
M  V30 BEGIN CTAB
M  V30 COUNTS 29 29 0 0 0
M  V30 BEGIN ATOM
M  V30 1 O -0.3927 2.1222 -0.4712 0
M  V30 2 C -0.0947 0.8981 -0.5457 0
M  V30 3 O -1.0287 -0.0265 -1.0304 0
M  V30 4 C 1.2451 0.4344 -0.1246 0
M  V30 5 C -2.3799 0.3004 -1.3597 0
M  V30 6 C 2.208 1.3478 0.3423 0
M  V30 7 C 1.5729 -0.9315 -0.1813 0
M  V30 8 C -3.3296 0.0637 -0.1696 0
M  V30 9 C 3.4716 0.9025 0.7418 0
M  V30 10 C 2.8372 -1.374 0.2188 0
M  V30 11 C -3.2627 -1.3901 0.3139 0
M  V30 12 C -3.0548 1.0322 0.9868 0
M  V30 13 C 3.7923 -0.4597 0.682 0
M  V30 14 N 5.0849 -0.9139 1.0912 0
M  V30 15 H -2.6973 -0.3536 -2.1996 0
M  V30 16 H -2.4605 1.3477 -1.7249 0
M  V30 17 H 1.9859 2.4061 0.3991 0
M  V30 18 H 0.8531 -1.6599 -0.5331 0
M  V30 19 H -4.3659 0.2549 -0.5269 0
M  V30 20 H 4.2006 1.6195 1.0983 0
M  V30 21 H 3.0721 -2.4299 0.1685 0
M  V30 22 H -4.0102 -1.5593 1.1183 0
M  V30 23 H -3.4932 -2.0833 -0.5229 0
M  V30 24 H -2.2527 -1.629 0.7106 0
M  V30 25 H -3.8362 0.9192 1.7684 0
M  V30 26 H -2.0659 0.8299 1.4495 0
M  V30 27 H -3.0801 2.0819 0.6242 0
M  V30 28 H 5.8034 -0.2398 1.4381 0
M  V30 29 H 5.3331 -1.9276 1.0504 0
M  V30 END ATOM
M  V30 BEGIN BOND
M  V30 1 2 1 2
M  V30 2 1 2 3
M  V30 3 1 2 4
M  V30 4 1 3 5
M  V30 5 2 4 6
M  V30 6 1 4 7
M  V30 7 1 5 8
M  V30 8 1 6 9
M  V30 9 2 7 10
M  V30 10 1 8 11
M  V30 11 1 8 12
M  V30 12 2 9 13
M  V30 13 1 13 14
M  V30 14 1 10 13
M  V30 15 1 5 15
M  V30 16 1 5 16
M  V30 17 1 6 17
M  V30 18 1 7 18
M  V30 19 1 8 19
M  V30 20 1 9 20
M  V30 21 1 10 21
M  V30 22 1 11 22
M  V30 23 1 11 23
M  V30 24 1 11 24
M  V30 25 1 12 25
M  V30 26 1 12 26
M  V30 27 1 12 27
M  V30 28 1 14 28
M  V30 29 1 14 29
M  V30 END BOND
M  V30 END CTAB
M  END
>  <Structure No>
3361

>  <LogS>
-2.9437

>  <MMFF94 Energy>
23.346

$$$$
Compound 3362
Actelion Java MolfileCreator 2.0

  0  0  0  0  0  0              0 V3000
M  V30 BEGIN CTAB
M  V30 COUNTS 43 43 0 0 0
M  V30 BEGIN ATOM
M  V30 1 O 0.235 0.6268 -1.8029 0
M  V30 2 C 0.5596 0.3961 -0.6053 0
M  V30 3 O -0.4035 0.464 0.4098 0
M  V30 4 C 1.9606 0.0608 -0.2681 0
M  V30 5 C -1.7861 0.7206 0.1697 0
M  V30 6 C 2.3269 -0.1995 1.0628 0
M  V30 7 C 2.9445 -0.0057 -1.2698 0
M  V30 8 C -2.4651 -0.5295 -0.4145 0
M  V30 9 C 3.6495 -0.5171 1.3841 0
M  V30 10 C 4.2671 -0.3238 -0.9466 0
M  V30 11 N -3.9505 -0.4739 -0.4537 0 CHG=1
M  V30 12 C 4.6308 -0.5793 0.3892 0
M  V30 13 C -4.5568 -0.5284 0.9027 0
M  V30 14 C -4.4783 0.596 -1.3519 0
M  V30 15 O 5.9424 -0.9049 0.7729 0
M  V30 16 C -6.0232 -0.9751 0.8653 0
M  V30 17 C -4.797 1.9434 -0.6793 0
M  V30 18 C 7.0824 -0.9117 -0.0864 0
M  V30 19 C 7.5508 0.5105 -0.375 0
M  V30 20 H -1.883 1.5807 -0.526 0
M  V30 21 H -2.2505 0.9907 1.139 0
M  V30 22 H 1.593 -0.1586 1.8578 0
M  V30 23 H 2.693 0.1867 -2.3054 0
M  V30 24 H -2.1404 -1.4152 0.1776 0
M  V30 25 H -2.073 -0.6983 -1.4423 0
M  V30 26 H 3.9145 -0.7148 2.4151 0
M  V30 27 H 4.9928 -0.3701 -1.7455 0
M  V30 28 H -4.2139 -1.3765 -0.919 0
M  V30 29 H -4.0133 -1.2666 1.5342 0
M  V30 30 H -4.4813 0.4456 1.4283 0
M  V30 31 H -5.4165 0.2412 -1.8355 0
M  V30 32 H -3.7682 0.7829 -2.1881 0
M  V30 33 H -6.6427 -0.2738 0.2711 0
M  V30 34 H -6.4264 -1.0075 1.8994 0
M  V30 35 H -6.1044 -1.9914 0.425 0
M  V30 36 H -5.0021 2.701 -1.4648 0
M  V30 37 H -3.9623 2.3158 -0.0579 0
M  V30 38 H -5.7065 1.8672 -0.0494 0
M  V30 39 H 6.8669 -1.4597 -1.0279 0
M  V30 40 H 7.9039 -1.4516 0.4296 0
M  V30 41 H 6.7651 1.083 -0.909 0
M  V30 42 H 8.4625 0.4814 -1.0079 0
M  V30 43 H 7.791 1.0291 0.5772 0
M  V30 END ATOM
M  V30 BEGIN BOND
M  V30 1 2 1 2
M  V30 2 1 2 3
M  V30 3 1 2 4
M  V30 4 1 3 5
M  V30 5 2 4 6
M  V30 6 1 4 7
M  V30 7 1 5 8
M  V30 8 1 6 9
M  V30 9 2 7 10
M  V30 10 1 8 11
M  V30 11 2 9 12
M  V30 12 1 11 13
M  V30 13 1 11 14
M  V30 14 1 12 15
M  V30 15 1 13 16
M  V30 16 1 14 17
M  V30 17 1 15 18
M  V30 18 1 18 19
M  V30 19 1 10 12
M  V30 20 1 5 20
M  V30 21 1 5 21
M  V30 22 1 6 22
M  V30 23 1 7 23
M  V30 24 1 8 24
M  V30 25 1 8 25
M  V30 26 1 9 26
M  V30 27 1 10 27
M  V30 28 1 11 28
M  V30 29 1 13 29
M  V30 30 1 13 30
M  V30 31 1 14 31
M  V30 32 1 14 32
M  V30 33 1 16 33
M  V30 34 1 16 34
M  V30 35 1 16 35
M  V30 36 1 17 36
M  V30 37 1 17 37
M  V30 38 1 17 38
M  V30 39 1 18 39
M  V30 40 1 18 40
M  V30 41 1 19 41
M  V30 42 1 19 42
M  V30 43 1 19 43
M  V30 END BOND
M  V30 END CTAB
M  END
>  <Structure No>
3362

>  <LogS>
-2.7145

>  <MMFF94 Energy>
43.433

$$$$
Compound 3363
Actelion Java MolfileCreator 2.0

  0  0  0  0  0  0              0 V3000
M  V30 BEGIN CTAB
M  V30 COUNTS 19 19 0 0 0
M  V30 BEGIN ATOM
M  V30 1 O 1.8748 1.6403 -3.4393 0
M  V30 2 N 1.0916 0.7691 -2.7121 0
M  V30 3 C 0.9105 0.9116 -1.4353 0
M  V30 4 C 0.0606 -0.0408 -0.6685 0
M  V30 5 N -0.1389 0.1014 0.6907 0 CHG=1
M  V30 6 C -0.5538 -1.1118 -1.3476 0
M  V30 7 C -0.9259 -0.7891 1.3732 0
M  V30 8 C 0.4805 1.2025 1.4435 0
M  V30 9 C -1.3519 -2.0133 -0.6503 0
M  V30 10 C -1.5405 -1.8536 0.7162 0
M  V30 11 H 2.3402 2.428 -3.0017 0
M  V30 12 H 1.391 1.7403 -0.9334 0
M  V30 13 H -0.4197 -1.2543 -2.4124 0
M  V30 14 H -1.0875 -0.6845 2.4397 0
M  V30 15 H 1.5868 1.1379 1.3674 0
M  V30 16 H 0.2183 1.1703 2.5233 0
M  V30 17 H 0.1298 2.1782 1.0447 0
M  V30 18 H -1.8244 -2.8364 -1.1708 0
M  V30 19 H -2.16 -2.5504 1.2662 0
M  V30 END ATOM
M  V30 BEGIN BOND
M  V30 1 1 1 2
M  V30 2 2 2 3
M  V30 3 1 3 4
M  V30 4 2 4 5
M  V30 5 1 4 6
M  V30 6 1 5 7
M  V30 7 1 5 8
M  V30 8 2 6 9
M  V30 9 2 7 10
M  V30 10 1 9 10
M  V30 11 1 1 11
M  V30 12 1 3 12
M  V30 13 1 6 13
M  V30 14 1 7 14
M  V30 15 1 8 15
M  V30 16 1 8 16
M  V30 17 1 8 17
M  V30 18 1 9 18
M  V30 19 1 10 19
M  V30 END BOND
M  V30 END CTAB
M  END
>  <Structure No>
3363

>  <LogS>
-0.7405

>  <MMFF94 Energy>
64.379

$$$$
Compound 3364
Actelion Java MolfileCreator 2.0

  0  0  0  0  0  0              0 V3000
M  V30 BEGIN CTAB
M  V30 COUNTS 31 31 0 0 0
M  V30 BEGIN ATOM
M  V30 1 Cl 3.5877 -2.1188 -2.1188 0
M  V30 2 C 3.998 -1.2464 -0.6496 0
M  V30 3 C 3.0529 -0.4129 -0.0289 0
M  V30 4 C 5.2784 -1.3912 -0.1032 0
M  V30 5 O 1.7784 -0.2914 -0.6046 0
M  V30 6 C 3.4118 0.2733 1.1485 0
M  V30 7 C 5.6257 -0.7066 1.0649 0
M  V30 8 C 0.7286 0.515 -0.0792 0
M  V30 9 C 4.6921 0.1247 1.6895 0
M  V30 10 Cl 7.2316 -0.8909 1.7464 0
M  V30 11 C -0.4724 0.3828 -0.9523 0
M  V30 12 O -0.6334 1.1762 -1.9193 0
M  V30 13 O -1.3783 -0.6578 -0.72 0
M  V30 14 C -2.5748 -0.8417 -1.4757 0
M  V30 15 C -3.6395 0.1919 -1.0917 0
M  V30 16 C -4.0355 0.0756 0.3857 0
M  V30 17 C -5.119 1.0876 0.7464 0
M  V30 18 H 6.0025 -2.0351 -0.5863 0
M  V30 19 H 2.7099 0.9232 1.653 0
M  V30 20 H 0.4707 0.1771 0.9474 0
M  V30 21 H 1.0495 1.5789 -0.0446 0
M  V30 22 H 4.9572 0.6566 2.5945 0
M  V30 23 H -2.9667 -1.8625 -1.2799 0
M  V30 24 H -2.3528 -0.7712 -2.5629 0
M  V30 25 H -3.2577 1.2149 -1.2989 0
M  V30 26 H -4.5366 0.0262 -1.7276 0
M  V30 27 H -3.1481 0.2584 1.0299 0
M  V30 28 H -4.4164 -0.9481 0.5927 0
M  V30 29 H -4.7542 2.1222 0.5711 0
M  V30 30 H -6.0304 0.9114 0.1362 0
M  V30 31 H -5.3843 0.9818 1.8194 0
M  V30 END ATOM
M  V30 BEGIN BOND
M  V30 1 1 1 2
M  V30 2 2 2 3
M  V30 3 1 2 4
M  V30 4 1 3 5
M  V30 5 1 3 6
M  V30 6 2 4 7
M  V30 7 1 5 8
M  V30 8 2 6 9
M  V30 9 1 7 10
M  V30 10 1 8 11
M  V30 11 2 11 12
M  V30 12 1 11 13
M  V30 13 1 13 14
M  V30 14 1 14 15
M  V30 15 1 15 16
M  V30 16 1 16 17
M  V30 17 1 7 9
M  V30 18 1 4 18
M  V30 19 1 6 19
M  V30 20 1 8 20
M  V30 21 1 8 21
M  V30 22 1 9 22
M  V30 23 1 14 23
M  V30 24 1 14 24
M  V30 25 1 15 25
M  V30 26 1 15 26
M  V30 27 1 16 27
M  V30 28 1 16 28
M  V30 29 1 17 29
M  V30 30 1 17 30
M  V30 31 1 17 31
M  V30 END BOND
M  V30 END CTAB
M  END
>  <Structure No>
3364

>  <LogS>
-3.78

>  <MMFF94 Energy>
40.571

$$$$
Compound 3365
Actelion Java MolfileCreator 2.0

  0  0  0  0  0  0              0 V3000
M  V30 BEGIN CTAB
M  V30 COUNTS 27 27 0 0 0
M  V30 BEGIN ATOM
M  V30 1 Cl -3.9715 0.9715 3.16 0
M  V30 2 C -2.8456 0.6662 1.8497 0
M  V30 3 C -2.7209 -0.6206 1.3203 0
M  V30 4 C -2.0745 1.7098 1.3348 0
M  V30 5 C -1.8219 -0.8728 0.2708 0
M  V30 6 C -1.1762 1.4712 0.2924 0
M  V30 7 C -1.0371 0.1767 -0.2478 0
M  V30 8 C -1.6865 -2.262 -0.2868 0
M  V30 9 O -0.1441 -0.1058 -1.2969 0
M  V30 10 C 0.8472 0.7838 -1.8129 0
M  V30 11 C 2.0166 0.9431 -0.8336 0
M  V30 12 C 2.7106 -0.3954 -0.5597 0
M  V30 13 C 3.8653 -0.2048 0.3716 0
M  V30 14 O 3.6918 -0.2682 1.6172 0
M  V30 15 O 5.1246 0.0925 -0.1338 0 CHG=-1
M  V30 16 H -3.3244 -1.4222 1.7285 0
M  V30 17 H -2.171 2.7087 1.7413 0
M  V30 18 H -0.6004 2.3035 -0.0854 0
M  V30 19 H -2.3818 -2.9727 0.2085 0
M  V30 20 H -0.6479 -2.6248 -0.1351 0
M  V30 21 H -1.9136 -2.2528 -1.3737 0
M  V30 22 H 1.2313 0.3646 -2.767 0
M  V30 23 H 0.3995 1.771 -2.0535 0
M  V30 24 H 2.7492 1.6553 -1.273 0
M  V30 25 H 1.6517 1.3757 0.1223 0
M  V30 26 H 1.9909 -1.1128 -0.1078 0
M  V30 27 H 3.0817 -0.8301 -1.5129 0
M  V30 END ATOM
M  V30 BEGIN BOND
M  V30 1 1 1 2
M  V30 2 2 2 3
M  V30 3 1 2 4
M  V30 4 1 3 5
M  V30 5 2 4 6
M  V30 6 2 5 7
M  V30 7 1 5 8
M  V30 8 1 7 9
M  V30 9 1 9 10
M  V30 10 1 10 11
M  V30 11 1 11 12
M  V30 12 1 12 13
M  V30 13 2 13 14
M  V30 14 1 13 15
M  V30 15 1 6 7
M  V30 16 1 3 16
M  V30 17 1 4 17
M  V30 18 1 6 18
M  V30 19 1 8 19
M  V30 20 1 8 20
M  V30 21 1 8 21
M  V30 22 1 10 22
M  V30 23 1 10 23
M  V30 24 1 11 24
M  V30 25 1 11 25
M  V30 26 1 12 26
M  V30 27 1 12 27
M  V30 END BOND
M  V30 END CTAB
M  END
>  <Structure No>
3365

>  <LogS>
-3.678

>  <MMFF94 Energy>
21.759

$$$$
Compound 3366
Actelion Java MolfileCreator 2.0

  0  0  0  0  0  0              0 V3000
M  V30 BEGIN CTAB
M  V30 COUNTS 32 33 0 0 0
M  V30 BEGIN ATOM
M  V30 1 Cl -1.9716 -2.5472 -1.1497 0
M  V30 2 C -3.1398 -1.5381 -0.3101 0
M  V30 3 C -2.9044 -0.1631 -0.146 0
M  V30 4 C -4.3077 -2.1196 0.197 0
M  V30 5 O -1.7228 0.3855 -0.6674 0
M  V30 6 C -3.8579 0.6201 0.5347 0
M  V30 7 C -5.2483 -1.3352 0.8707 0
M  V30 8 C -1.3451 1.7549 -0.5486 0
M  V30 9 C -5.0223 0.0337 1.0389 0
M  V30 10 Cl -6.7106 -2.0681 1.5049 0
M  V30 11 C 0.0042 1.9707 -1.2175 0
M  V30 12 O 0.9842 1.1476 -0.5932 0
M  V30 13 C 2.3227 1.1226 -0.9982 0
M  V30 14 O 2.7112 1.8657 -1.9417 0
M  V30 15 C 3.2793 0.2218 -0.3186 0
M  V30 16 C 4.6341 0.1914 -0.6999 0
M  V30 17 C 2.8443 -0.621 0.7207 0
M  V30 18 C 5.5315 -0.664 -0.053 0
M  V30 19 C 3.7462 -1.4744 1.3637 0
M  V30 20 C 5.0882 -1.496 0.9775 0
M  V30 21 H -4.4832 -3.1803 0.0678 0
M  V30 22 H -3.7093 1.6815 0.6788 0
M  V30 23 H -1.27 2.0338 0.525 0
M  V30 24 H -2.1035 2.3983 -1.045 0
M  V30 25 H -5.7484 0.6447 1.5601 0
M  V30 26 H 0.2952 3.0392 -1.1201 0
M  V30 27 H -0.0721 1.712 -2.2962 0
M  V30 28 H 5.0002 0.8273 -1.496 0
M  V30 29 H 1.8085 -0.6225 1.0369 0
M  V30 30 H 6.5718 -0.6817 -0.3515 0
M  V30 31 H 3.4038 -2.12 2.1623 0
M  V30 32 H 5.7846 -2.1574 1.4767 0
M  V30 END ATOM
M  V30 BEGIN BOND
M  V30 1 1 1 2
M  V30 2 2 2 3
M  V30 3 1 2 4
M  V30 4 1 3 5
M  V30 5 1 3 6
M  V30 6 2 4 7
M  V30 7 1 5 8
M  V30 8 2 6 9
M  V30 9 1 7 10
M  V30 10 1 8 11
M  V30 11 1 11 12
M  V30 12 1 12 13
M  V30 13 2 13 14
M  V30 14 1 13 15
M  V30 15 2 15 16
M  V30 16 1 15 17
M  V30 17 1 16 18
M  V30 18 2 17 19
M  V30 19 2 18 20
M  V30 20 1 7 9
M  V30 21 1 19 20
M  V30 22 1 4 21
M  V30 23 1 6 22
M  V30 24 1 8 23
M  V30 25 1 8 24
M  V30 26 1 9 25
M  V30 27 1 11 26
M  V30 28 1 11 27
M  V30 29 1 16 28
M  V30 30 1 17 29
M  V30 31 1 18 30
M  V30 32 1 19 31
M  V30 33 1 20 32
M  V30 END BOND
M  V30 END CTAB
M  END
>  <Structure No>
3366

>  <LogS>
-3.8118

>  <MMFF94 Energy>
61.417

$$$$
Compound 3367
Actelion Java MolfileCreator 2.0

  0  0  0  0  0  0              0 V3000
M  V30 BEGIN CTAB
M  V30 COUNTS 28 27 0 0 0
M  V30 BEGIN ATOM
M  V30 1 O 0.7729 -1.8558 1.1595 0
M  V30 2 C -0.0747 -0.7461 0.9917 0 CFG=2
M  V30 3 C -0.7805 -0.828 -0.3962 0 CFG=1
M  V30 4 C 0.7313 0.555 1.2183 0
M  V30 5 C -1.4552 -2.2062 -0.5895 0
M  V30 6 C -1.8229 0.3114 -0.6072 0
M  V30 7 C 1.9666 0.6821 0.3106 0
M  V30 8 O -2.4819 -2.4065 0.3469 0
M  V30 9 C -1.3163 1.4088 -1.5445 0
M  V30 10 C 2.7444 1.9575 0.6216 0
M  V30 11 H 0.9389 -1.9497 2.134 0
M  V30 12 H -0.8699 -0.7779 1.7737 0
M  V30 13 H -0.0025 -0.7708 -1.1878 0
M  V30 14 H 1.0723 0.5638 2.2771 0
M  V30 15 H 0.0747 1.441 1.097 0
M  V30 16 H -0.7023 -3.0263 -0.5365 0
M  V30 17 H -1.8942 -2.2584 -1.6089 0
M  V30 18 H -2.1199 0.7658 0.3625 0
M  V30 19 H -2.7594 -0.0856 -1.0573 0
M  V30 20 H 2.6392 -0.1892 0.4616 0
M  V30 21 H 1.6661 0.7107 -0.7563 0
M  V30 22 H -2.0705 -2.8445 1.1368 0
M  V30 23 H -0.4157 1.9051 -1.133 0
M  V30 24 H -1.0738 0.9807 -2.5403 0
M  V30 25 H -2.1069 2.1774 -1.676 0
M  V30 26 H 3.6295 2.0254 -0.0453 0
M  V30 27 H 3.0944 1.9497 1.6757 0
M  V30 28 H 2.1041 2.8497 0.4536 0
M  V30 END ATOM
M  V30 BEGIN BOND
M  V30 1 1 1 2
M  V30 2 1 2 3
M  V30 3 1 2 4
M  V30 4 1 3 5
M  V30 5 1 3 6
M  V30 6 1 4 7
M  V30 7 1 5 8
M  V30 8 1 6 9
M  V30 9 1 7 10
M  V30 10 1 1 11
M  V30 11 1 2 12
M  V30 12 1 3 13
M  V30 13 1 4 14
M  V30 14 1 4 15
M  V30 15 1 5 16
M  V30 16 1 5 17
M  V30 17 1 6 18
M  V30 18 1 6 19
M  V30 19 1 7 20
M  V30 20 1 7 21
M  V30 21 1 8 22
M  V30 22 1 9 23
M  V30 23 1 9 24
M  V30 24 1 9 25
M  V30 25 1 10 26
M  V30 26 1 10 27
M  V30 27 1 10 28
M  V30 END BOND
M  V30 BEGIN COLLECTION
M  V30 MDLV30/STEABS ATOMS=(2 2 3)
M  V30 END COLLECTION
M  V30 END CTAB
M  END
>  <Structure No>
3367

>  <LogS>
-0.5418

>  <MMFF94 Energy>
12.962

$$$$
Compound 3368
Actelion Java MolfileCreator 2.0

  0  0  0  0  0  0              0 V3000
M  V30 BEGIN CTAB
M  V30 COUNTS 58 57 0 0 0
M  V30 BEGIN ATOM
M  V30 1 O -4.1652 -1.256 0.0784 0
M  V30 2 C -4.9452 -0.2898 -0.1356 0
M  V30 3 O -4.4505 0.9301 -0.6114 0
M  V30 4 C -6.416 -0.4433 0.1618 0
M  V30 5 C -3.0738 1.1561 -0.8992 0
M  V30 6 C -6.7307 -0.0449 1.623 0
M  V30 7 C -7.2988 0.3172 -0.8549 0
M  V30 8 C -2.2911 1.4262 0.3851 0
M  V30 9 C -6.4069 1.4132 1.9659 0
M  V30 10 C -7.1968 -0.2696 -2.2647 0
M  V30 11 O -0.9144 1.5544 0.086 0
M  V30 12 C -0.2268 0.3588 0.3948 0
M  V30 13 C 1.1629 0.4028 -0.2389 0
M  V30 14 O 1.9556 -0.6755 0.2227 0
M  V30 15 C 1.8178 -1.816 -0.6051 0
M  V30 16 C 2.8701 -1.8307 -1.7162 0
M  V30 17 O 4.1843 -1.7012 -1.1741 0
M  V30 18 C 4.8089 -0.4686 -0.9527 0
M  V30 19 O 4.2491 0.6078 -1.3004 0
M  V30 20 C 6.1855 -0.4391 -0.3411 0
M  V30 21 C 7.2109 -0.0852 -1.4415 0
M  V30 22 C 6.2474 0.5465 0.85 0
M  V30 23 C 8.6612 -0.2952 -1.0015 0
M  V30 24 C 5.2539 0.1883 1.9586 0
M  V30 25 H -6.6693 -1.5253 0.0723 0
M  V30 26 H -2.6501 0.2867 -1.4458 0
M  V30 27 H -2.9924 2.0424 -1.5607 0
M  V30 28 H -7.809 -0.2282 1.8284 0
M  V30 29 H -6.1551 -0.7032 2.3107 0
M  V30 30 H -7.0153 1.3917 -0.8955 0
M  V30 31 H -8.3629 0.2606 -0.5349 0
M  V30 32 H -2.6429 2.3886 0.8123 0
M  V30 33 H -2.5138 0.6469 1.1533 0
M  V30 34 H -6.9952 2.1076 1.331 0
M  V30 35 H -6.671 1.6065 3.0288 0
M  V30 36 H -5.3226 1.6207 1.8395 0
M  V30 37 H -7.8552 0.3039 -2.955 0
M  V30 38 H -7.5234 -1.3327 -2.269 0
M  V30 39 H -6.1535 -0.2036 -2.6398 0
M  V30 40 H -0.1179 0.2673 1.4999 0
M  V30 41 H -0.7656 -0.536 0.0036 0
M  V30 42 H 1.6613 1.3458 0.0757 0
M  V30 43 H 1.0827 0.4426 -1.3511 0
M  V30 44 H 1.9705 -2.7147 0.0283 0
M  V30 45 H 0.8017 -1.918 -1.0502 0
M  V30 46 H 2.6705 -1.0354 -2.4668 0
M  V30 47 H 2.8037 -2.8052 -2.2456 0
M  V30 48 H 6.4149 -1.4603 0.0386 0
M  V30 49 H 7.0304 -0.7367 -2.3268 0
M  V30 50 H 7.0767 0.9699 -1.7688 0
M  V30 51 H 7.2627 0.527 1.2995 0
M  V30 52 H 6.0484 1.5842 0.502 0
M  V30 53 H 9.3315 -0.1804 -1.8795 0
M  V30 54 H 8.799 -1.3155 -0.5839 0
M  V30 55 H 8.959 0.46 -0.2451 0
M  V30 56 H 5.4083 -0.8604 2.2939 0
M  V30 57 H 5.4086 0.8656 2.8259 0
M  V30 58 H 4.2091 0.3096 1.6033 0
M  V30 END ATOM
M  V30 BEGIN BOND
M  V30 1 2 1 2
M  V30 2 1 2 3
M  V30 3 1 2 4
M  V30 4 1 3 5
M  V30 5 1 4 6
M  V30 6 1 4 7
M  V30 7 1 5 8
M  V30 8 1 6 9
M  V30 9 1 7 10
M  V30 10 1 8 11
M  V30 11 1 11 12
M  V30 12 1 12 13
M  V30 13 1 13 14
M  V30 14 1 14 15
M  V30 15 1 15 16
M  V30 16 1 16 17
M  V30 17 1 17 18
M  V30 18 2 18 19
M  V30 19 1 18 20
M  V30 20 1 20 21
M  V30 21 1 20 22
M  V30 22 1 21 23
M  V30 23 1 22 24
M  V30 24 1 4 25
M  V30 25 1 5 26
M  V30 26 1 5 27
M  V30 27 1 6 28
M  V30 28 1 6 29
M  V30 29 1 7 30
M  V30 30 1 7 31
M  V30 31 1 8 32
M  V30 32 1 8 33
M  V30 33 1 9 34
M  V30 34 1 9 35
M  V30 35 1 9 36
M  V30 36 1 10 37
M  V30 37 1 10 38
M  V30 38 1 10 39
M  V30 39 1 12 40
M  V30 40 1 12 41
M  V30 41 1 13 42
M  V30 42 1 13 43
M  V30 43 1 15 44
M  V30 44 1 15 45
M  V30 45 1 16 46
M  V30 46 1 16 47
M  V30 47 1 20 48
M  V30 48 1 21 49
M  V30 49 1 21 50
M  V30 50 1 22 51
M  V30 51 1 22 52
M  V30 52 1 23 53
M  V30 53 1 23 54
M  V30 54 1 23 55
M  V30 55 1 24 56
M  V30 56 1 24 57
M  V30 57 1 24 58
M  V30 END BOND
M  V30 END CTAB
M  END
>  <Structure No>
3368

>  <LogS>
-3.2386

>  <MMFF94 Energy>
36.439

$$$$
Compound 3369
Actelion Java MolfileCreator 2.0

  0  0  0  0  0  0              0 V3000
M  V30 BEGIN CTAB
M  V30 COUNTS 16 15 0 0 0
M  V30 BEGIN ATOM
M  V30 1 O -1.1589 2.1641 0.1544 0
M  V30 2 N -1.689 0.9119 -0.0593 0
M  V30 3 C -0.9535 -0.1506 -0.2002 0
M  V30 4 C 0.5272 -0.0915 -0.1519 0
M  V30 5 C -1.6258 -1.4429 -0.5498 0
M  V30 6 N 1.2014 -0.7577 -1.0452 0
M  V30 7 C 1.223 0.6901 0.9312 0
M  V30 8 O 2.58 -0.7816 -1.1309 0
M  V30 9 H -1.7721 2.9623 0.2594 0
M  V30 10 H -2.6656 -1.459 -0.1583 0
M  V30 11 H -1.0722 -2.2965 -0.1044 0
M  V30 12 H -1.6526 -1.5607 -1.6532 0
M  V30 13 H 0.506 1.0162 1.7136 0
M  V30 14 H 1.7154 1.5839 0.494 0
M  V30 15 H 1.9801 0.0535 1.4349 0
M  V30 16 H 3.1764 -0.2345 -0.5226 0
M  V30 END ATOM
M  V30 BEGIN BOND
M  V30 1 1 1 2
M  V30 2 2 2 3
M  V30 3 1 3 4
M  V30 4 1 3 5
M  V30 5 2 4 6
M  V30 6 1 4 7
M  V30 7 1 6 8
M  V30 8 1 1 9
M  V30 9 1 5 10
M  V30 10 1 5 11
M  V30 11 1 5 12
M  V30 12 1 7 13
M  V30 13 1 7 14
M  V30 14 1 7 15
M  V30 15 1 8 16
M  V30 END BOND
M  V30 END CTAB
M  END
>  <Structure No>
3369

>  <LogS>
-2.2868

>  <MMFF94 Energy>
63.957

$$$$
Compound 3370
Actelion Java MolfileCreator 2.0

  0  0  0  0  0  0              0 V3000
M  V30 BEGIN CTAB
M  V30 COUNTS 20 20 0 0 0
M  V30 BEGIN ATOM
M  V30 1 N 3.2676 -0.3108 0.0 0
M  V30 2 C 1.8751 0.0139 -0.0322 0
M  V30 3 C 0.9151 -0.9719 0.2286 0
M  V30 4 C 1.4643 1.3186 -0.325 0
M  V30 5 C -0.4566 -0.6645 0.1976 0
M  V30 6 C 0.1061 1.6391 -0.3551 0
M  V30 7 C -0.866 0.6598 -0.0908 0
M  V30 8 C -1.4628 -1.7476 0.4867 0
M  V30 9 C -2.3239 1.0358 -0.1345 0
M  V30 10 H 3.5856 -1.2815 0.2174 0
M  V30 11 H 3.991 0.4172 -0.1931 0
M  V30 12 H 1.2406 -1.98 0.4552 0
M  V30 13 H 2.1974 2.0887 -0.5299 0
M  V30 14 H -0.1855 2.6566 -0.5847 0
M  V30 15 H -2.1764 -1.8379 -0.3585 0
M  V30 16 H -0.9741 -2.7352 0.6265 0
M  V30 17 H -2.0202 -1.5035 1.4151 0
M  V30 18 H -2.8103 0.7823 0.8304 0
M  V30 19 H -2.4617 2.124 -0.3095 0
M  V30 20 H -2.8284 0.487 -0.9568 0
M  V30 END ATOM
M  V30 BEGIN BOND
M  V30 1 1 1 2
M  V30 2 2 2 3
M  V30 3 1 2 4
M  V30 4 1 3 5
M  V30 5 2 4 6
M  V30 6 2 5 7
M  V30 7 1 5 8
M  V30 8 1 7 9
M  V30 9 1 6 7
M  V30 10 1 1 10
M  V30 11 1 1 11
M  V30 12 1 3 12
M  V30 13 1 4 13
M  V30 14 1 6 14
M  V30 15 1 8 15
M  V30 16 1 8 16
M  V30 17 1 8 17
M  V30 18 1 9 18
M  V30 19 1 9 19
M  V30 20 1 9 20
M  V30 END BOND
M  V30 END CTAB
M  END
>  <Structure No>
3370

>  <LogS>
-1.5036

>  <MMFF94 Energy>
13.883

$$$$
Compound 3371
Actelion Java MolfileCreator 2.0

  0  0  0  0  0  0              0 V3000
M  V30 BEGIN CTAB
M  V30 COUNTS 13 13 0 0 0
M  V30 BEGIN ATOM
M  V30 1 Cl 2.2833 -2.114 0.507 0
M  V30 2 C 1.1226 -0.8234 0.2255 0
M  V30 3 C 1.5428 0.5009 0.01 0
M  V30 4 C -0.2439 -1.1295 0.2176 0
M  V30 5 Cl 3.2483 0.9286 0.0118 0
M  V30 6 C 0.5918 1.5043 -0.211 0
M  V30 7 C -1.1928 -0.1218 -0.004 0
M  V30 8 C -0.7709 1.194 -0.2179 0
M  V30 9 O -2.5542 -0.4173 -0.0135 0
M  V30 10 H -0.5683 -2.1491 0.3837 0
M  V30 11 H 0.908 2.5262 -0.3777 0
M  V30 12 H -1.4994 1.9762 -0.3897 0
M  V30 13 H -2.8923 -1.3604 0.1383 0
M  V30 END ATOM
M  V30 BEGIN BOND
M  V30 1 1 1 2
M  V30 2 2 2 3
M  V30 3 1 2 4
M  V30 4 1 3 5
M  V30 5 1 3 6
M  V30 6 2 4 7
M  V30 7 2 6 8
M  V30 8 1 7 9
M  V30 9 1 7 8
M  V30 10 1 4 10
M  V30 11 1 6 11
M  V30 12 1 8 12
M  V30 13 1 9 13
M  V30 END BOND
M  V30 END CTAB
M  END
>  <Structure No>
3371

>  <LogS>
-1.2458

>  <MMFF94 Energy>
10.671

$$$$
Compound 3372
Actelion Java MolfileCreator 2.0

  0  0  0  0  0  0              0 V3000
M  V30 BEGIN CTAB
M  V30 COUNTS 20 19 0 0 0
M  V30 BEGIN ATOM
M  V30 1 O -0.8612 -0.4697 -1.5663 0
M  V30 2 C -0.6355 0.3166 -0.6066 0
M  V30 3 O -1.6905 0.9352 0.0745 0
M  V30 4 C 0.7458 0.5914 -0.2043 0
M  V30 5 C -3.0651 0.6901 -0.2174 0
M  V30 6 O 0.9719 1.3825 0.7513 0
M  V30 7 O 1.8011 -0.0218 -0.8897 0
M  V30 8 C -3.5022 -0.6586 0.3422 0
M  V30 9 C 3.1723 0.1502 -0.5368 0
M  V30 10 C 3.5145 -0.6628 0.7063 0
M  V30 11 H -3.2415 0.7288 -1.3144 0
M  V30 12 H -3.6749 1.4874 0.2576 0
M  V30 13 H -4.5866 -0.8068 0.1549 0
M  V30 14 H -3.318 -0.6921 1.437 0
M  V30 15 H -2.9406 -1.4816 -0.1468 0
M  V30 16 H 3.3975 1.226 -0.3689 0
M  V30 17 H 3.8014 -0.2057 -1.3795 0
M  V30 18 H 4.5968 -0.5612 0.9326 0
M  V30 19 H 2.9327 -0.3001 1.5793 0
M  V30 20 H 3.2819 -1.7349 0.5336 0
M  V30 END ATOM
M  V30 BEGIN BOND
M  V30 1 2 1 2
M  V30 2 1 2 3
M  V30 3 1 2 4
M  V30 4 1 3 5
M  V30 5 2 4 6
M  V30 6 1 4 7
M  V30 7 1 5 8
M  V30 8 1 7 9
M  V30 9 1 9 10
M  V30 10 1 5 11
M  V30 11 1 5 12
M  V30 12 1 8 13
M  V30 13 1 8 14
M  V30 14 1 8 15
M  V30 15 1 9 16
M  V30 16 1 9 17
M  V30 17 1 10 18
M  V30 18 1 10 19
M  V30 19 1 10 20
M  V30 END BOND
M  V30 END CTAB
M  END
>  <Structure No>
3372

>  <LogS>
-0.6085

>  <MMFF94 Energy>
49.424

$$$$
Compound 3373
Actelion Java MolfileCreator 2.0

  0  0  0  0  0  0              0 V3000
M  V30 BEGIN CTAB
M  V30 COUNTS 11 10 0 0 0
M  V30 BEGIN ATOM
M  V30 1 Cl -0.0874 2.2744 -0.0874 0
M  V30 2 C -0.0966 0.5159 -0.4065 0
M  V30 3 C 1.2952 -0.0491 -0.0783 0
M  V30 4 C -1.2168 -0.1278 0.4274 0
M  V30 5 Cl 1.5616 -1.6525 -0.8135 0
M  V30 6 Cl -1.65 -1.753 -0.1668 0
M  V30 7 H -0.3104 0.3814 -1.4889 0
M  V30 8 H 2.0758 0.6261 -0.4889 0
M  V30 9 H 1.4452 -0.1163 1.0202 0
M  V30 10 H -2.1347 0.4941 0.359 0
M  V30 11 H -0.9262 -0.1906 1.4977 0
M  V30 END ATOM
M  V30 BEGIN BOND
M  V30 1 1 1 2
M  V30 2 1 2 3
M  V30 3 1 2 4
M  V30 4 1 3 5
M  V30 5 1 4 6
M  V30 6 1 2 7
M  V30 7 1 3 8
M  V30 8 1 3 9
M  V30 9 1 4 10
M  V30 10 1 4 11
M  V30 END BOND
M  V30 END CTAB
M  END
>  <Structure No>
3373

>  <LogS>
-1.9255

>  <MMFF94 Energy>
10.478

$$$$
Compound 3374
Actelion Java MolfileCreator 2.0

  0  0  0  0  0  0              0 V3000
M  V30 BEGIN CTAB
M  V30 COUNTS 18 17 0 0 0
M  V30 BEGIN ATOM
M  V30 1 O -2.3405 -1.2074 0.4526 0
M  V30 2 C -0.94 -1.1593 0.395 0
M  V30 3 C -0.4444 0.3013 0.4437 0 CFG=2
M  V30 4 N -0.8934 1.0506 -0.7386 0 CHG=1
M  V30 5 C 1.0899 0.3909 0.6305 0
M  V30 6 C 1.9058 -0.1755 -0.5342 0
M  V30 7 H -2.5928 -1.033 1.397 0
M  V30 8 H -0.5065 -1.7429 1.2394 0
M  V30 9 H -0.6152 -1.6432 -0.5495 0
M  V30 10 H -0.8957 0.7751 1.3455 0
M  V30 11 H -0.484 2.0132 -0.7322 0
M  V30 12 H -0.6167 0.5617 -1.6202 0
M  V30 13 H -1.9352 1.1424 -0.7211 0
M  V30 14 H 1.3745 1.4561 0.7742 0
M  V30 15 H 1.3761 -0.1478 1.5601 0
M  V30 16 H 1.7022 0.3843 -1.4702 0
M  V30 17 H 2.9874 -0.0744 -0.3043 0
M  V30 18 H 1.6879 -1.2525 -0.686 0
M  V30 END ATOM
M  V30 BEGIN BOND
M  V30 1 1 1 2
M  V30 2 1 2 3
M  V30 3 1 3 4
M  V30 4 1 3 5
M  V30 5 1 5 6
M  V30 6 1 1 7
M  V30 7 1 2 8
M  V30 8 1 2 9
M  V30 9 1 3 10
M  V30 10 1 4 11
M  V30 11 1 4 12
M  V30 12 1 4 13
M  V30 13 1 5 14
M  V30 14 1 5 15
M  V30 15 1 6 16
M  V30 16 1 6 17
M  V30 17 1 6 18
M  V30 END BOND
M  V30 BEGIN COLLECTION
M  V30 MDLV30/STEABS ATOMS=(1 3)
M  V30 END COLLECTION
M  V30 END CTAB
M  END
>  <Structure No>
3374

>  <LogS>
1.0499

>  <MMFF94 Energy>
15.924

$$$$
Compound 3375
Actelion Java MolfileCreator 2.0

  0  0  0  0  0  0              0 V3000
M  V30 BEGIN CTAB
M  V30 COUNTS 13 12 0 0 0
M  V30 BEGIN ATOM
M  V30 1 Cl -1.9038 -0.7136 -1.1102 0
M  V30 2 C -1.0212 0.7102 -0.488 0
M  V30 3 C -0.0176 0.353 0.6239 0 CFG=1
M  V30 4 O -0.6867 -0.1321 1.7614 0
M  V30 5 C 1.0745 -0.6329 0.1667 0
M  V30 6 O 1.8596 -0.068 -0.8492 0
M  V30 7 H -1.7642 1.4336 -0.0901 0
M  V30 8 H -0.4949 1.2009 -1.3336 0
M  V30 9 H 0.4912 1.2959 0.9207 0
M  V30 10 H -1.0566 -1.0259 1.539 0
M  V30 11 H 1.7359 -0.8547 1.031 0
M  V30 12 H 0.631 -1.6008 -0.1615 0
M  V30 13 H 1.431 -0.3085 -1.7115 0
M  V30 END ATOM
M  V30 BEGIN BOND
M  V30 1 1 1 2
M  V30 2 1 2 3
M  V30 3 1 3 4
M  V30 4 1 3 5
M  V30 5 1 5 6
M  V30 6 1 2 7
M  V30 7 1 2 8
M  V30 8 1 3 9
M  V30 9 1 4 10
M  V30 10 1 5 11
M  V30 11 1 5 12
M  V30 12 1 6 13
M  V30 END BOND
M  V30 BEGIN COLLECTION
M  V30 MDLV30/STEABS ATOMS=(1 3)
M  V30 END COLLECTION
M  V30 END CTAB
M  END
>  <Structure No>
3375

>  <LogS>
0.9565

>  <MMFF94 Energy>
30.876

$$$$
Compound 3376
Actelion Java MolfileCreator 2.0

  0  0  0  0  0  0              0 V3000
M  V30 BEGIN CTAB
M  V30 COUNTS 15 14 0 0 0
M  V30 BEGIN ATOM
M  V30 1 O -0.9173 2.2179 1.2997 0
M  V30 2 N -0.2649 1.0026 1.2252 0
M  V30 3 C -0.3887 0.1589 0.2408 0
M  V30 4 C 0.3801 -1.1331 0.3025 0
M  V30 5 C -1.2891 0.4449 -0.9308 0
M  V30 6 C 1.8757 -0.8862 0.1302 0
M  V30 7 H -1.5505 2.5442 0.5802 0
M  V30 8 H 0.0416 -1.8354 -0.4889 0
M  V30 9 H 0.1965 -1.6232 1.283 0
M  V30 10 H -1.2646 -0.3794 -1.6735 0
M  V30 11 H -2.336 0.564 -0.5807 0
M  V30 12 H -0.9579 1.3736 -1.4409 0
M  V30 13 H 2.2589 -0.2369 0.9461 0
M  V30 14 H 2.0743 -0.401 -0.8493 0
M  V30 15 H 2.4184 -1.8543 0.1643 0
M  V30 END ATOM
M  V30 BEGIN BOND
M  V30 1 1 1 2
M  V30 2 2 2 3
M  V30 3 1 3 4
M  V30 4 1 3 5
M  V30 5 1 4 6
M  V30 6 1 1 7
M  V30 7 1 4 8
M  V30 8 1 4 9
M  V30 9 1 5 10
M  V30 10 1 5 11
M  V30 11 1 5 12
M  V30 12 1 6 13
M  V30 13 1 6 14
M  V30 14 1 6 15
M  V30 END BOND
M  V30 END CTAB
M  END
>  <Structure No>
3376

>  <LogS>
0.0599

>  <MMFF94 Energy>
19.507

$$$$
Compound 3377
Actelion Java MolfileCreator 2.0

  0  0  0  0  0  0              0 V3000
M  V30 BEGIN CTAB
M  V30 COUNTS 16 16 0 0 0
M  V30 BEGIN ATOM
M  V30 1 O 0.2344 -1.3289 -0.4688 0
M  V30 2 C 0.8082 -0.0386 -0.4858 0 CFG=1
M  V30 3 C -1.1503 -1.1823 -0.2568 0
M  V30 4 C -0.288 1.0047 -0.2893 0
M  V30 5 C 1.8758 0.0503 0.6062 0
M  V30 6 C -1.4263 0.2088 0.267 0
M  V30 7 H 1.3006 0.1229 -1.4699 0
M  V30 8 H -1.5019 -1.9461 0.4688 0
M  V30 9 H -1.6814 -1.3371 -1.2215 0
M  V30 10 H 0.0026 1.8333 0.3938 0
M  V30 11 H -0.5793 1.433 -1.2743 0
M  V30 12 H 2.6486 -0.7295 0.4401 0
M  V30 13 H 2.3691 1.0453 0.5809 0
M  V30 14 H 1.42 -0.1058 1.6077 0
M  V30 15 H -1.384 0.2111 1.3789 0
M  V30 16 H -2.4108 0.594 -0.0771 0
M  V30 END ATOM
M  V30 BEGIN BOND
M  V30 1 1 1 2
M  V30 2 1 1 3
M  V30 3 1 2 4
M  V30 4 1 2 5
M  V30 5 1 3 6
M  V30 6 1 4 6
M  V30 7 1 2 7
M  V30 8 1 3 8
M  V30 9 1 3 9
M  V30 10 1 4 10
M  V30 11 1 4 11
M  V30 12 1 5 12
M  V30 13 1 5 13
M  V30 14 1 5 14
M  V30 15 1 6 15
M  V30 16 1 6 16
M  V30 END BOND
M  V30 BEGIN COLLECTION
M  V30 MDLV30/STEABS ATOMS=(1 2)
M  V30 END COLLECTION
M  V30 END CTAB
M  END
>  <Structure No>
3377

>  <LogS>
0.2069

>  <MMFF94 Energy>
7.8188

$$$$
Compound 3378
Actelion Java MolfileCreator 2.0

  0  0  0  0  0  0              0 V3000
M  V30 BEGIN CTAB
M  V30 COUNTS 30 29 0 0 0
M  V30 BEGIN ATOM
M  V30 1 O 2.1524 1.6908 1.1526 0
M  V30 2 C 2.1224 0.4162 0.5695 0
M  V30 3 C 1.3852 0.4356 -0.7897 0
M  V30 4 N -0.0575 0.0407 -0.7855 0 CHG=1
M  V30 5 C -0.2873 -1.445 -0.875 0
M  V30 6 C -1.0019 0.8592 0.0547 0
M  V30 7 C 0.4278 -2.3003 0.1885 0
M  V30 8 C -1.7766 -1.8304 -0.966 0
M  V30 9 C -1.0109 0.5516 1.5627 0
M  V30 10 C -0.8379 2.3747 -0.1796 0
M  V30 11 H 2.8275 2.2197 0.6522 0
M  V30 12 H 3.1675 0.064 0.4093 0
M  V30 13 H 1.6784 -0.2912 1.288 0
M  V30 14 H 1.5043 1.4446 -1.2463 0
M  V30 15 H 1.9418 -0.2364 -1.4818 0
M  V30 16 H -0.3446 0.3358 -1.7519 0
M  V30 17 H 0.1473 -1.7919 -1.8433 0
M  V30 18 H -2.04 0.6554 -0.2894 0
M  V30 19 H 1.5284 -2.2398 0.0633 0
M  V30 20 H 0.1624 -3.3704 0.0503 0
M  V30 21 H 0.1525 -2.0256 1.2212 0
M  V30 22 H -2.293 -1.687 0.005 0
M  V30 23 H -1.8759 -2.9003 -1.2493 0
M  V30 24 H -2.2843 -1.2284 -1.7493 0
M  V30 25 H -0.0667 0.824 2.064 0
M  V30 26 H -1.2718 -0.5015 1.7647 0
M  V30 27 H -1.8069 1.1551 2.0497 0
M  V30 28 H -0.8378 2.6024 -1.2666 0
M  V30 29 H -1.6871 2.9247 0.2803 0
M  V30 30 H 0.0968 2.7612 0.269 0
M  V30 END ATOM
M  V30 BEGIN BOND
M  V30 1 1 1 2
M  V30 2 1 2 3
M  V30 3 1 3 4
M  V30 4 1 4 5
M  V30 5 1 4 6
M  V30 6 1 5 7
M  V30 7 1 5 8
M  V30 8 1 6 9
M  V30 9 1 6 10
M  V30 10 1 1 11
M  V30 11 1 2 12
M  V30 12 1 2 13
M  V30 13 1 3 14
M  V30 14 1 3 15
M  V30 15 1 4 16
M  V30 16 1 5 17
M  V30 17 1 6 18
M  V30 18 1 7 19
M  V30 19 1 7 20
M  V30 20 1 7 21
M  V30 21 1 8 22
M  V30 22 1 8 23
M  V30 23 1 8 24
M  V30 24 1 9 25
M  V30 25 1 9 26
M  V30 26 1 9 27
M  V30 27 1 10 28
M  V30 28 1 10 29
M  V30 29 1 10 30
M  V30 END BOND
M  V30 END CTAB
M  END
>  <Structure No>
3378

>  <LogS>
-1.0829

>  <MMFF94 Energy>
34.874

$$$$
Compound 3379
Actelion Java MolfileCreator 2.0

  0  0  0  0  0  0              0 V3000
M  V30 BEGIN CTAB
M  V30 COUNTS 23 22 0 0 0
M  V30 BEGIN ATOM
M  V30 1 O -0.9448 2.2057 1.9692 0
M  V30 2 C -0.4149 1.8534 0.8826 0
M  V30 3 O 0.1228 2.8169 0.0375 0 CHG=-1
M  V30 4 C -0.3691 0.4002 0.4995 0 CFG=2
M  V30 5 N 1.0304 0.0189 0.2861 0
M  V30 6 C -1.2121 0.1222 -0.7747 0
M  V30 7 C 1.8686 -0.4641 1.3452 0
M  V30 8 C -1.1232 -1.3579 -1.1807 0
M  V30 9 C -2.6878 0.5055 -0.57 0
M  V30 10 O 1.4081 -0.6125 2.5096 0
M  V30 11 C 3.3086 -0.7592 1.0788 0
M  V30 12 H -0.7959 -0.207 1.3301 0
M  V30 13 H 1.4753 0.2357 -0.6351 0
M  V30 14 H -0.8119 0.7317 -1.6157 0
M  V30 15 H -0.0764 -1.6368 -1.4233 0
M  V30 16 H -1.7378 -1.5461 -2.087 0
M  V30 17 H -1.4878 -2.0116 -0.3593 0
M  V30 18 H -2.7875 1.5943 -0.3773 0
M  V30 19 H -3.2764 0.2736 -1.4834 0
M  V30 20 H -3.1223 -0.0532 0.2867 0
M  V30 21 H 3.8635 0.1935 0.9533 0
M  V30 22 H 3.7521 -1.33 1.9222 0
M  V30 23 H 3.4021 -1.362 0.1514 0
M  V30 END ATOM
M  V30 BEGIN BOND
M  V30 1 2 1 2
M  V30 2 1 2 3
M  V30 3 1 2 4
M  V30 4 1 4 5
M  V30 5 1 4 6
M  V30 6 1 5 7
M  V30 7 1 6 8
M  V30 8 1 6 9
M  V30 9 2 7 10
M  V30 10 1 7 11
M  V30 11 1 4 12
M  V30 12 1 5 13
M  V30 13 1 6 14
M  V30 14 1 8 15
M  V30 15 1 8 16
M  V30 16 1 8 17
M  V30 17 1 9 18
M  V30 18 1 9 19
M  V30 19 1 9 20
M  V30 20 1 11 21
M  V30 21 1 11 22
M  V30 22 1 11 23
M  V30 END BOND
M  V30 BEGIN COLLECTION
M  V30 MDLV30/STEABS ATOMS=(1 4)
M  V30 END COLLECTION
M  V30 END CTAB
M  END
>  <Structure No>
3379

>  <LogS>
-0.3599

>  <MMFF94 Energy>
36.78

$$$$
Compound 3380
Actelion Java MolfileCreator 2.0

  0  0  0  0  0  0              0 V3000
M  V30 BEGIN CTAB
M  V30 COUNTS 24 25 0 0 0
M  V30 BEGIN ATOM
M  V30 1 Cl -3.7386 -0.5335 2.4913 0
M  V30 2 C -2.9246 -0.0327 1.017 0
M  V30 3 C -2.0513 -0.9086 0.3525 0
M  V30 4 C -3.1613 1.2476 0.507 0
M  V30 5 O -1.8566 -2.1899 0.8727 0
M  V30 6 C -1.3996 -0.4801 -0.8245 0
M  V30 7 C -2.5331 1.6617 -0.6696 0
M  V30 8 S -0.2353 -1.5382 -1.6969 0
M  V30 9 C -1.6582 0.7991 -1.3344 0
M  V30 10 Cl -2.8386 3.2659 -1.31 0
M  V30 11 C 1.1886 -0.8566 -0.8372 0
M  V30 12 C 1.9033 0.2226 -1.3828 0
M  V30 13 C 1.5945 -1.4139 0.3822 0
M  V30 14 O 1.5229 0.767 -2.6051 0 CHG=-1
M  V30 15 C 3.0057 0.7508 -0.6947 0
M  V30 16 C 2.6941 -0.886 1.0659 0
M  V30 17 Cl 3.906 2.1059 -1.3569 0
M  V30 18 C 3.397 0.1966 0.5288 0
M  V30 19 Cl 3.1908 -1.5818 2.5975 0
M  V30 20 H -3.8375 1.9184 1.0224 0
M  V30 21 H -1.2819 -2.8874 0.4184 0
M  V30 22 H -1.1736 1.1272 -2.245 0
M  V30 23 H 1.0566 -2.2538 0.8012 0
M  V30 24 H 4.248 0.6047 1.0597 0
M  V30 END ATOM
M  V30 BEGIN BOND
M  V30 1 1 1 2
M  V30 2 2 2 3
M  V30 3 1 2 4
M  V30 4 1 3 5
M  V30 5 1 3 6
M  V30 6 2 4 7
M  V30 7 1 6 8
M  V30 8 2 6 9
M  V30 9 1 7 10
M  V30 10 1 8 11
M  V30 11 2 11 12
M  V30 12 1 11 13
M  V30 13 1 12 14
M  V30 14 1 12 15
M  V30 15 2 13 16
M  V30 16 1 15 17
M  V30 17 2 15 18
M  V30 18 1 16 19
M  V30 19 1 7 9
M  V30 20 1 16 18
M  V30 21 1 4 20
M  V30 22 1 5 21
M  V30 23 1 9 22
M  V30 24 1 13 23
M  V30 25 1 18 24
M  V30 END BOND
M  V30 END CTAB
M  END
>  <Structure No>
3380

>  <LogS>
-4.9495

>  <MMFF94 Energy>
28.191

$$$$
Compound 3381
Actelion Java MolfileCreator 2.0

  0  0  0  0  0  0              0 V3000
M  V30 BEGIN CTAB
M  V30 COUNTS 19 18 0 0 0
M  V30 BEGIN ATOM
M  V30 1 O -1.2526 1.801 1.6443 0
M  V30 2 C -1.2916 0.6095 1.2382 0
M  V30 3 O -1.4506 -0.4166 2.1639 0 CHG=-1
M  V30 4 C -1.1876 0.3178 -0.2383 0 CFG=1
M  V30 5 C 0.1439 0.8267 -0.8476 0
M  V30 6 C -1.4629 -1.1582 -0.5621 0
M  V30 7 C 1.406 -0.004 -0.5373 0
M  V30 8 C 1.8208 0.0367 0.9319 0
M  V30 9 H -1.9998 0.9013 -0.7264 0
M  V30 10 H 0.0243 0.8432 -1.9533 0
M  V30 11 H 0.3159 1.8829 -0.5439 0
M  V30 12 H -1.3568 -1.3379 -1.6532 0
M  V30 13 H -0.7648 -1.8269 -0.0155 0
M  V30 14 H -2.5014 -1.4221 -0.268 0
M  V30 15 H 2.2422 0.4164 -1.1372 0
M  V30 16 H 1.2785 -1.057 -0.8644 0
M  V30 17 H 1.1398 -0.5856 1.5462 0
M  V30 18 H 2.8452 -0.3786 1.0373 0
M  V30 19 H 1.8229 1.0809 1.311 0
M  V30 END ATOM
M  V30 BEGIN BOND
M  V30 1 2 1 2
M  V30 2 1 2 3
M  V30 3 1 2 4
M  V30 4 1 4 5
M  V30 5 1 4 6
M  V30 6 1 5 7
M  V30 7 1 7 8
M  V30 8 1 4 9
M  V30 9 1 5 10
M  V30 10 1 5 11
M  V30 11 1 6 12
M  V30 12 1 6 13
M  V30 13 1 6 14
M  V30 14 1 7 15
M  V30 15 1 7 16
M  V30 16 1 8 17
M  V30 17 1 8 18
M  V30 18 1 8 19
M  V30 END BOND
M  V30 BEGIN COLLECTION
M  V30 MDLV30/STEABS ATOMS=(1 4)
M  V30 END COLLECTION
M  V30 END CTAB
M  END
>  <Structure No>
3381

>  <LogS>
-0.889

>  <MMFF94 Energy>
7.3761

$$$$
Compound 3382
Actelion Java MolfileCreator 2.0

  0  0  0  0  0  0              0 V3000
M  V30 BEGIN CTAB
M  V30 COUNTS 18 17 0 0 0
M  V30 BEGIN ATOM
M  V30 1 O -0.232 0.0773 -1.7801 0
M  V30 2 C 0.2288 0.4336 -0.6611 0
M  V30 3 O -0.6262 0.6739 0.4212 0
M  V30 4 C 1.7117 0.571 -0.4773 0 CFG=1
M  V30 5 C -2.0388 0.4865 0.3625 0
M  V30 6 O 1.9991 1.7436 0.2373 0
M  V30 7 C 2.255 -0.6316 0.2887 0
M  V30 8 C -2.3866 -0.9963 0.4242 0
M  V30 9 H 2.2134 0.6048 -1.4728 0
M  V30 10 H -2.4996 0.9973 1.2342 0
M  V30 11 H -2.4526 0.9426 -0.563 0
M  V30 12 H 1.863 2.5013 -0.3903 0
M  V30 13 H 3.3546 -0.5334 0.4107 0
M  V30 14 H 2.045 -1.5696 -0.2689 0
M  V30 15 H 1.7891 -0.6958 1.2959 0
M  V30 16 H -1.9763 -1.5276 -0.4595 0
M  V30 17 H -3.49 -1.1207 0.4347 0
M  V30 18 H -1.9646 -1.446 1.3479 0
M  V30 END ATOM
M  V30 BEGIN BOND
M  V30 1 2 1 2
M  V30 2 1 2 3
M  V30 3 1 2 4
M  V30 4 1 3 5
M  V30 5 1 4 6
M  V30 6 1 4 7
M  V30 7 1 5 8
M  V30 8 1 4 9
M  V30 9 1 5 10
M  V30 10 1 5 11
M  V30 11 1 6 12
M  V30 12 1 7 13
M  V30 13 1 7 14
M  V30 14 1 7 15
M  V30 15 1 8 16
M  V30 16 1 8 17
M  V30 17 1 8 18
M  V30 END BOND
M  V30 BEGIN COLLECTION
M  V30 MDLV30/STEABS ATOMS=(1 4)
M  V30 END COLLECTION
M  V30 END CTAB
M  END
>  <Structure No>
3382

>  <LogS>
0.9276

>  <MMFF94 Energy>
23.37

$$$$
Compound 3383
Actelion Java MolfileCreator 2.0

  0  0  0  0  0  0              0 V3000
M  V30 BEGIN CTAB
M  V30 COUNTS 26 25 0 0 0
M  V30 BEGIN ATOM
M  V30 1 O -0.7763 1.0093 -1.32 0
M  V30 2 C -1.0427 0.5748 -0.165 0
M  V30 3 O -0.076 0.5996 0.8463 0
M  V30 4 C -2.4019 0.0076 0.1323 0
M  V30 5 C 1.271 1.0214 0.6364 0
M  V30 6 C -3.4982 1.0328 -0.1744 0
M  V30 7 C -2.6225 -1.2863 -0.6562 0
M  V30 8 C 2.0749 -0.0466 -0.1288 0
M  V30 9 C 3.5005 0.4496 -0.3951 0
M  V30 10 C 2.1073 -1.3718 0.6437 0
M  V30 11 H -2.4541 -0.2363 1.2164 0
M  V30 12 H 1.7409 1.2011 1.6274 0
M  V30 13 H 1.2786 1.9858 0.082 0
M  V30 14 H -3.51 1.2884 -1.2559 0
M  V30 15 H -4.4922 0.6232 0.106 0
M  V30 16 H -3.3273 1.9609 0.4125 0
M  V30 17 H -2.6004 -1.0905 -1.7501 0
M  V30 18 H -3.6058 -1.731 -0.3922 0
M  V30 19 H -1.8296 -2.024 -0.4071 0
M  V30 20 H 1.5887 -0.2288 -1.112 0
M  V30 21 H 4.0344 0.6417 0.5605 0
M  V30 22 H 3.4744 1.3895 -0.9868 0
M  V30 23 H 4.0679 -0.3078 -0.9771 0
M  V30 24 H 2.5754 -1.2328 1.642 0
M  V30 25 H 2.6885 -2.1309 0.0778 0
M  V30 26 H 1.0771 -1.764 0.7808 0
M  V30 END ATOM
M  V30 BEGIN BOND
M  V30 1 2 1 2
M  V30 2 1 2 3
M  V30 3 1 2 4
M  V30 4 1 3 5
M  V30 5 1 4 6
M  V30 6 1 4 7
M  V30 7 1 5 8
M  V30 8 1 8 9
M  V30 9 1 8 10
M  V30 10 1 4 11
M  V30 11 1 5 12
M  V30 12 1 5 13
M  V30 13 1 6 14
M  V30 14 1 6 15
M  V30 15 1 6 16
M  V30 16 1 7 17
M  V30 17 1 7 18
M  V30 18 1 7 19
M  V30 19 1 8 20
M  V30 20 1 9 21
M  V30 21 1 9 22
M  V30 22 1 9 23
M  V30 23 1 10 24
M  V30 24 1 10 25
M  V30 25 1 10 26
M  V30 END BOND
M  V30 END CTAB
M  END
>  <Structure No>
3383

>  <LogS>
-2.159

>  <MMFF94 Energy>
-3.1729

$$$$
Compound 3384
Actelion Java MolfileCreator 2.0

  0  0  0  0  0  0              0 V3000
M  V30 BEGIN CTAB
M  V30 COUNTS 13 13 0 0 0
M  V30 BEGIN ATOM
M  V30 1 O 0.6203 -1.1633 0.0775 0
M  V30 2 C -0.1631 -0.1448 -0.1916 0
M  V30 3 C 1.8463 -0.7175 0.2292 0
M  V30 4 C 0.5686 1.0251 -0.2118 0
M  V30 5 C -1.6394 -0.2564 -0.4028 0
M  V30 6 C 1.868 0.6523 0.0572 0
M  V30 7 O -2.3195 0.0482 0.7835 0
M  V30 8 H 2.6997 -1.3419 0.4566 0
M  V30 9 H 0.2015 2.0263 -0.3957 0
M  V30 10 H -1.9544 0.4584 -1.192 0
M  V30 11 H -1.8977 -1.2825 -0.749 0
M  V30 12 H 2.73 1.3024 0.1243 0
M  V30 13 H -2.2196 -0.7405 1.3786 0
M  V30 END ATOM
M  V30 BEGIN BOND
M  V30 1 1 1 2
M  V30 2 1 1 3
M  V30 3 2 2 4
M  V30 4 1 2 5
M  V30 5 2 3 6
M  V30 6 1 5 7
M  V30 7 1 4 6
M  V30 8 1 3 8
M  V30 9 1 4 9
M  V30 10 1 5 10
M  V30 11 1 5 11
M  V30 12 1 6 12
M  V30 13 1 7 13
M  V30 END BOND
M  V30 END CTAB
M  END
>  <Structure No>
3384

>  <LogS>
1.0083

>  <MMFF94 Energy>
5.4209

$$$$
Compound 3385
Actelion Java MolfileCreator 2.0

  0  0  0  0  0  0              0 V3000
M  V30 BEGIN CTAB
M  V30 COUNTS 26 26 0 0 0
M  V30 BEGIN ATOM
M  V30 1 O 3.3019 1.5713 0.4711 0
M  V30 2 C 2.3725 0.5589 0.2369 0
M  V30 3 C 2.8132 -0.7534 0.0499 0
M  V30 4 C 1.0024 0.8511 0.1884 0
M  V30 5 O 4.1764 -1.0397 0.0989 0
M  V30 6 C 1.8832 -1.77 -0.185 0
M  V30 7 C 0.0445 -0.1613 -0.0479 0
M  V30 8 C 0.5167 -1.4825 -0.2341 0
M  V30 9 C -1.4542 0.2032 -0.0934 0
M  V30 10 C -1.8766 0.8167 1.2594 0
M  V30 11 C -1.7008 1.2293 -1.221 0
M  V30 12 C -2.3681 -1.017 -0.3612 0
M  V30 13 H 3.0153 2.5333 0.6109 0
M  V30 14 H 0.6915 1.8762 0.3369 0
M  V30 15 H 4.5252 -1.9819 -0.0329 0
M  V30 16 H 2.2187 -2.7891 -0.3307 0
M  V30 17 H -0.1526 -2.3089 -0.419 0
M  V30 18 H -1.6657 0.1065 2.0882 0
M  V30 19 H -1.3357 1.7638 1.4657 0
M  V30 20 H -2.9642 1.0476 1.2655 0
M  V30 21 H -2.7822 1.4746 -1.3016 0
M  V30 22 H -1.1583 2.1797 -1.0349 0
M  V30 23 H -1.3618 0.8193 -2.197 0
M  V30 24 H -2.2585 -1.778 0.4415 0
M  V30 25 H -3.4369 -0.7113 -0.3862 0
M  V30 26 H -2.1319 -1.4811 -1.3432 0
M  V30 END ATOM
M  V30 BEGIN BOND
M  V30 1 1 1 2
M  V30 2 2 2 3
M  V30 3 1 2 4
M  V30 4 1 3 5
M  V30 5 1 3 6
M  V30 6 2 4 7
M  V30 7 2 6 8
M  V30 8 1 7 9
M  V30 9 1 9 10
M  V30 10 1 9 11
M  V30 11 1 9 12
M  V30 12 1 7 8
M  V30 13 1 1 13
M  V30 14 1 4 14
M  V30 15 1 5 15
M  V30 16 1 6 16
M  V30 17 1 8 17
M  V30 18 1 10 18
M  V30 19 1 10 19
M  V30 20 1 10 20
M  V30 21 1 11 21
M  V30 22 1 11 22
M  V30 23 1 11 23
M  V30 24 1 12 24
M  V30 25 1 12 25
M  V30 26 1 12 26
M  V30 END BOND
M  V30 END CTAB
M  END
>  <Structure No>
3385

>  <LogS>
-1.9197

>  <MMFF94 Energy>
31.92

$$$$
Compound 3386
Actelion Java MolfileCreator 2.0

  0  0  0  0  0  0              0 V3000
M  V30 BEGIN CTAB
M  V30 COUNTS 29 29 0 0 0
M  V30 BEGIN ATOM
M  V30 1 O -2.3587 -0.3142 1.572 0
M  V30 2 C -1.9264 0.263 0.3594 0
M  V30 3 C -0.3588 0.3128 0.3905 0 CFG=2
M  V30 4 C -2.4577 -0.5789 -0.8265 0
M  V30 5 C -2.5098 1.6914 0.2645 0
M  V30 6 C 0.2826 0.9111 -0.8928 0
M  V30 7 C 0.282 -1.0614 0.7979 0
M  V30 8 C 1.7812 0.8166 -0.8128 0
M  V30 9 C 1.4507 -1.506 -0.1016 0
M  V30 10 C 2.3489 -0.3364 -0.4266 0
M  V30 11 C 3.8422 -0.436 -0.2866 0
M  V30 12 H -3.3514 -0.3522 1.568 0
M  V30 13 H -0.0879 1.0202 1.2087 0
M  V30 14 H -2.258 -0.0816 -1.7979 0
M  V30 15 H -3.5587 -0.7052 -0.7468 0
M  V30 16 H -2.0019 -1.5893 -0.8447 0
M  V30 17 H -2.1191 2.3275 1.0871 0
M  V30 18 H -3.6175 1.6647 0.3485 0
M  V30 19 H -2.2627 2.1674 -0.7069 0
M  V30 20 H -0.0428 0.3524 -1.7939 0
M  V30 21 H 0.0014 1.9774 -1.0162 0
M  V30 22 H -0.4666 -1.8804 0.8141 0
M  V30 23 H 0.6622 -0.98 1.8406 0
M  V30 24 H 2.3891 1.6932 -1.02 0
M  V30 25 H 2.0154 -2.3206 0.4 0
M  V30 26 H 1.0414 -1.9138 -1.0514 0
M  V30 27 H 4.1485 -1.4523 0.0375 0
M  V30 28 H 4.3253 -0.2189 -1.2626 0
M  V30 29 H 4.1981 0.2973 0.4673 0
M  V30 END ATOM
M  V30 BEGIN BOND
M  V30 1 1 1 2
M  V30 2 1 2 3
M  V30 3 1 2 4
M  V30 4 1 2 5
M  V30 5 1 3 6
M  V30 6 1 3 7
M  V30 7 1 6 8
M  V30 8 1 7 9
M  V30 9 2 8 10
M  V30 10 1 10 11
M  V30 11 1 9 10
M  V30 12 1 1 12
M  V30 13 1 3 13
M  V30 14 1 4 14
M  V30 15 1 4 15
M  V30 16 1 4 16
M  V30 17 1 5 17
M  V30 18 1 5 18
M  V30 19 1 5 19
M  V30 20 1 6 20
M  V30 21 1 6 21
M  V30 22 1 7 22
M  V30 23 1 7 23
M  V30 24 1 8 24
M  V30 25 1 9 25
M  V30 26 1 9 26
M  V30 27 1 11 27
M  V30 28 1 11 28
M  V30 29 1 11 29
M  V30 END BOND
M  V30 BEGIN COLLECTION
M  V30 MDLV30/STEABS ATOMS=(1 3)
M  V30 END COLLECTION
M  V30 END CTAB
M  END
>  <Structure No>
3386

>  <LogS>
-2.337

>  <MMFF94 Energy>
22.741

$$$$
Compound 3387
Actelion Java MolfileCreator 2.0

  0  0  0  0  0  0              0 V3000
M  V30 BEGIN CTAB
M  V30 COUNTS 19 19 0 0 0
M  V30 BEGIN ATOM
M  V30 1 O -1.9508 -1.5604 -0.3899 0
M  V30 2 C -1.5793 -0.2064 -0.3984 0 CFG=2
M  V30 3 C -0.0838 -0.0654 -0.2153 0
M  V30 4 C -2.3209 0.5274 0.7171 0
M  V30 5 C 0.5939 -0.8181 0.7613 0
M  V30 6 C 0.6386 0.8589 -0.9901 0
M  V30 7 C 1.9716 -0.6627 0.9423 0
M  V30 8 C 2.0164 1.0107 -0.8053 0
M  V30 9 C 2.6826 0.2494 0.1584 0
M  V30 10 H -1.6361 -1.9474 -1.2487 0
M  V30 11 H -1.8921 0.2494 -1.3671 0
M  V30 12 H -3.417 0.4432 0.5582 0
M  V30 13 H -2.0711 0.0897 1.7075 0
M  V30 14 H -2.0468 1.6043 0.7164 0
M  V30 15 H 0.0554 -1.5229 1.3828 0
M  V30 16 H 0.1365 1.4626 -1.7359 0
M  V30 17 H 2.4876 -1.2474 1.6929 0
M  V30 18 H 2.5674 1.7213 -1.4078 0
M  V30 19 H 3.7488 0.3693 0.3005 0
M  V30 END ATOM
M  V30 BEGIN BOND
M  V30 1 1 1 2
M  V30 2 1 2 3
M  V30 3 1 2 4
M  V30 4 2 3 5
M  V30 5 1 3 6
M  V30 6 1 5 7
M  V30 7 2 6 8
M  V30 8 2 7 9
M  V30 9 1 8 9
M  V30 10 1 1 10
M  V30 11 1 2 11
M  V30 12 1 4 12
M  V30 13 1 4 13
M  V30 14 1 4 14
M  V30 15 1 5 15
M  V30 16 1 6 16
M  V30 17 1 7 17
M  V30 18 1 8 18
M  V30 19 1 9 19
M  V30 END BOND
M  V30 BEGIN COLLECTION
M  V30 MDLV30/STEABS ATOMS=(1 2)
M  V30 END COLLECTION
M  V30 END CTAB
M  END
>  <Structure No>
3387

>  <LogS>
-1.7969

>  <MMFF94 Energy>
22.319

$$$$
Compound 3388
Actelion Java MolfileCreator 2.0

  0  0  0  0  0  0              0 V3000
M  V30 BEGIN CTAB
M  V30 COUNTS 15 15 0 0 0
M  V30 BEGIN ATOM
M  V30 1 Cl -2.8365 0.25 1.6678 0
M  V30 2 C -2.2084 -0.2523 0.0767 0
M  V30 3 Cl -2.9958 0.7062 -1.2037 0
M  V30 4 C -0.7123 -0.0789 0.0213 0
M  V30 5 C -0.1314 1.1915 0.1909 0
M  V30 6 C 0.1222 -1.1885 -0.2011 0
M  V30 7 C 1.2572 1.3462 0.1386 0
M  V30 8 C 1.5106 -1.0285 -0.2527 0
M  V30 9 C 2.0776 0.2372 -0.083 0
M  V30 10 H -2.4899 -1.3159 -0.0765 0
M  V30 11 H -0.7542 2.0607 0.3636 0
M  V30 12 H -0.2992 -2.1771 -0.3347 0
M  V30 13 H 1.6972 2.3264 0.2698 0
M  V30 14 H 2.1474 -1.8868 -0.4242 0
M  V30 15 H 3.1523 0.3587 -0.1233 0
M  V30 END ATOM
M  V30 BEGIN BOND
M  V30 1 1 1 2
M  V30 2 1 2 3
M  V30 3 1 2 4
M  V30 4 2 4 5
M  V30 5 1 4 6
M  V30 6 1 5 7
M  V30 7 2 6 8
M  V30 8 2 7 9
M  V30 9 1 8 9
M  V30 10 1 2 10
M  V30 11 1 5 11
M  V30 12 1 6 12
M  V30 13 1 7 13
M  V30 14 1 8 14
M  V30 15 1 9 15
M  V30 END BOND
M  V30 END CTAB
M  END
>  <Structure No>
3388

>  <LogS>
-2.809

>  <MMFF94 Energy>
34.572

$$$$
Compound 3389
Actelion Java MolfileCreator 2.0

  0  0  0  0  0  0              0 V3000
M  V30 BEGIN CTAB
M  V30 COUNTS 13 13 0 0 0
M  V30 BEGIN ATOM
M  V30 1 O 3.0668 -0.887 0.1612 0
M  V30 2 C 2.3871 0.1437 -0.0891 0
M  V30 3 O 3.0403 1.3276 -0.4096 0 CHG=-1
M  V30 4 C 0.9154 0.1062 -0.0455 0
M  V30 5 N 0.2116 1.2395 -0.3219 0
M  V30 6 C 0.2238 -1.074 0.2749 0
M  V30 7 C -1.1479 1.2678 -0.2978 0
M  V30 8 C -1.1725 -1.0638 0.3045 0
M  V30 9 C -1.8658 0.1127 0.0168 0
M  V30 10 H 0.7543 -1.9907 0.4995 0
M  V30 11 H -1.671 2.1875 -0.5232 0
M  V30 12 H -1.7162 -1.9668 0.5501 0
M  V30 13 H -2.9478 0.1293 0.0374 0
M  V30 END ATOM
M  V30 BEGIN BOND
M  V30 1 2 1 2
M  V30 2 1 2 3
M  V30 3 1 2 4
M  V30 4 2 4 5
M  V30 5 1 4 6
M  V30 6 1 5 7
M  V30 7 2 6 8
M  V30 8 2 7 9
M  V30 9 1 8 9
M  V30 10 1 6 10
M  V30 11 1 7 11
M  V30 12 1 8 12
M  V30 13 1 9 13
M  V30 END BOND
M  V30 END CTAB
M  END
>  <Structure No>
3389

>  <LogS>
0.892

>  <MMFF94 Energy>
93.628

$$$$
Compound 3390
Actelion Java MolfileCreator 2.0

  0  0  0  0  0  0              0 V3000
M  V30 BEGIN CTAB
M  V30 COUNTS 50 52 0 0 0
M  V30 BEGIN ATOM
M  V30 1 O 4.4128 -0.721 2.2446 0
M  V30 2 C 3.9238 -0.2616 1.1727 0
M  V30 3 O 2.5693 -0.4561 0.8758 0
M  V30 4 C 4.7852 0.4602 0.2116 0
M  V30 5 C 1.6793 -1.1596 1.7382 0
M  V30 6 C 4.209 1.2058 -0.8338 0
M  V30 7 C 6.1885 0.3738 0.3016 0
M  V30 8 C 0.3626 -1.4746 1.0114 0 CFG=1
M  V30 9 C 5.0217 1.8569 -1.7659 0
M  V30 10 C 6.9964 1.0204 -0.6399 0
M  V30 11 O -0.1293 -0.2936 0.4014 0
M  V30 12 C 0.5539 -2.5901 -0.045 0 CFG=2
M  V30 13 C 6.4142 1.7619 -1.6711 0
M  V30 14 C -1.4449 -0.4914 -0.0901 0 CFG=1
M  V30 15 O 1.5415 -2.206 -0.968 0
M  V30 16 C -0.7714 -2.8565 -0.7898 0 CFG=2
M  V30 17 O -1.9102 0.7619 -0.5928 0
M  V30 18 C -1.4474 -1.5372 -1.2289 0 CFG=1
M  V30 19 O -1.6373 -3.6584 -0.0211 0
M  V30 20 C -3.2678 1.0867 -0.6859 0
M  V30 21 O -2.7649 -1.7948 -1.6405 0
M  V30 22 C -3.9868 1.5503 0.4394 0
M  V30 23 C -3.9089 0.9817 -1.9283 0
M  V30 24 C -5.3569 1.8406 0.3037 0
M  V30 25 C -3.3115 1.7494 1.7785 0
M  V30 26 C -5.268 1.2774 -2.0486 0
M  V30 27 C -5.9937 1.6975 -0.9329 0
M  V30 28 O -2.1234 2.4827 1.64 0
M  V30 29 H 1.4696 -0.5308 2.6304 0
M  V30 30 H 2.1479 -2.1074 2.0822 0
M  V30 31 H 3.1312 1.2923 -0.9265 0
M  V30 32 H 6.6603 -0.1956 1.0909 0
M  V30 33 H -0.3411 -1.8281 1.8011 0
M  V30 34 H 4.5712 2.4347 -2.5647 0
M  V30 35 H 8.0753 0.9435 -0.5703 0
M  V30 36 H 0.8717 -3.5246 0.4743 0
M  V30 37 H 7.0412 2.262 -2.3976 0
M  V30 38 H -2.1188 -0.8182 0.7344 0
M  V30 39 H 1.8496 -3.0331 -1.4248 0
M  V30 40 H -0.5395 -3.4363 -1.7102 0
M  V30 41 H -0.8617 -1.107 -2.0765 0
M  V30 42 H -1.9085 -3.1486 0.7828 0
M  V30 43 H -2.7126 -2.1353 -2.5678 0
M  V30 44 H -3.3535 0.6563 -2.7982 0
M  V30 45 H -5.9333 2.1854 1.1532 0
M  V30 46 H -3.9843 2.2718 2.4953 0
M  V30 47 H -3.0724 0.7588 2.2195 0
M  V30 48 H -5.7618 1.1734 -3.0072 0
M  V30 49 H -7.0486 1.9235 -1.0281 0
M  V30 50 H -2.3835 3.4036 1.3751 0
M  V30 END ATOM
M  V30 BEGIN BOND
M  V30 1 2 1 2
M  V30 2 1 2 3
M  V30 3 1 2 4
M  V30 4 1 3 5
M  V30 5 2 4 6
M  V30 6 1 4 7
M  V30 7 1 5 8
M  V30 8 1 6 9
M  V30 9 2 7 10
M  V30 10 1 8 11
M  V30 11 1 8 12
M  V30 12 2 9 13
M  V30 13 1 11 14
M  V30 14 1 12 15
M  V30 15 1 12 16
M  V30 16 1 14 17
M  V30 17 1 14 18
M  V30 18 1 16 19
M  V30 19 1 17 20
M  V30 20 1 18 21
M  V30 21 2 20 22
M  V30 22 1 20 23
M  V30 23 1 22 24
M  V30 24 1 22 25
M  V30 25 2 23 26
M  V30 26 2 24 27
M  V30 27 1 25 28
M  V30 28 1 10 13
M  V30 29 1 16 18
M  V30 30 1 26 27
M  V30 31 1 5 29
M  V30 32 1 5 30
M  V30 33 1 6 31
M  V30 34 1 7 32
M  V30 35 1 8 33
M  V30 36 1 9 34
M  V30 37 1 10 35
M  V30 38 1 12 36
M  V30 39 1 13 37
M  V30 40 1 14 38
M  V30 41 1 15 39
M  V30 42 1 16 40
M  V30 43 1 18 41
M  V30 44 1 19 42
M  V30 45 1 21 43
M  V30 46 1 23 44
M  V30 47 1 24 45
M  V30 48 1 25 46
M  V30 49 1 25 47
M  V30 50 1 26 48
M  V30 51 1 27 49
M  V30 52 1 28 50
M  V30 END BOND
M  V30 BEGIN COLLECTION
M  V30 MDLV30/STEABS ATOMS=(5 8 12 14 16 18)
M  V30 END COLLECTION
M  V30 END CTAB
M  END
>  <Structure No>
3390

>  <LogS>
-2.8925

>  <MMFF94 Energy>
153.4

$$$$
Compound 3391
Actelion Java MolfileCreator 2.0

  0  0  0  0  0  0              0 V3000
M  V30 BEGIN CTAB
M  V30 COUNTS 21 21 0 0 0
M  V30 BEGIN ATOM
M  V30 1 O 2.4661 0.795 -1.0336 0
M  V30 2 C 1.8443 0.1652 -0.1336 0
M  V30 3 O 2.5533 -0.4707 0.8915 0
M  V30 4 C 0.3659 0.0974 -0.1599 0
M  V30 5 C 3.9729 -0.4437 0.9746 0
M  V30 6 C -0.3631 0.7299 -1.1815 0
M  V30 7 C -0.329 -0.6025 0.84 0
M  V30 8 C -1.7632 0.6649 -1.2049 0
M  V30 9 C -1.7259 -0.6722 0.8239 0
M  V30 10 O -2.4748 1.2967 -2.2239 0
M  V30 11 C -2.4493 -0.0378 -0.2001 0
M  V30 12 O -2.378 -1.3773 1.8353 0
M  V30 13 O -3.8428 -0.1125 -0.2081 0
M  V30 14 H 4.4157 -0.9104 0.0694 0
M  V30 15 H 4.3285 0.604 1.0693 0
M  V30 16 H 4.2965 -1.0152 1.8686 0
M  V30 17 H 0.1511 1.2756 -1.9629 0
M  V30 18 H 0.2087 -1.0986 1.6385 0
M  V30 19 H -2.0055 1.8101 -2.9606 0
M  V30 20 H -3.387 -1.4591 1.8713 0
M  V30 21 H -4.4031 0.3295 -0.9268 0
M  V30 END ATOM
M  V30 BEGIN BOND
M  V30 1 2 1 2
M  V30 2 1 2 3
M  V30 3 1 2 4
M  V30 4 1 3 5
M  V30 5 2 4 6
M  V30 6 1 4 7
M  V30 7 1 6 8
M  V30 8 2 7 9
M  V30 9 1 8 10
M  V30 10 2 8 11
M  V30 11 1 9 12
M  V30 12 1 11 13
M  V30 13 1 9 11
M  V30 14 1 5 14
M  V30 15 1 5 15
M  V30 16 1 5 16
M  V30 17 1 6 17
M  V30 18 1 7 18
M  V30 19 1 10 19
M  V30 20 1 12 20
M  V30 21 1 13 21
M  V30 END BOND
M  V30 END CTAB
M  END
>  <Structure No>
3391

>  <LogS>
-1.2399

>  <MMFF94 Energy>
7.2486

$$$$
Compound 3392
Actelion Java MolfileCreator 2.0

  0  0  0  0  0  0              0 V3000
M  V30 BEGIN CTAB
M  V30 COUNTS 16 16 0 0 0
M  V30 BEGIN ATOM
M  V30 1 Cl 1.6116 -2.2907 1.4418 0
M  V30 2 C 0.7291 -1.0007 0.6314 0
M  V30 3 C 1.3884 0.1137 0.0705 0
M  V30 4 C -0.6638 -1.1066 0.5542 0
M  V30 5 N 2.8184 0.2289 0.1461 0
M  V30 6 C 0.622 1.1134 -0.5656 0
M  V30 7 C -1.427 -0.1122 -0.0786 0
M  V30 8 Cl 1.3674 2.5344 -1.2901 0
M  V30 9 C -0.7704 0.9952 -0.6357 0
M  V30 10 N -2.8605 -0.224 -0.1563 0 CHG=1
M  V30 11 O -3.4508 -1.2071 0.3376 0
M  V30 12 O -3.6057 0.7523 -0.7773 0 CHG=-1
M  V30 13 H -1.1497 -1.9699 0.9911 0
M  V30 14 H 3.3264 1.0435 -0.2612 0
M  V30 15 H 3.4044 -0.4976 0.6114 0
M  V30 16 H -1.3389 1.7738 -1.1284 0
M  V30 END ATOM
M  V30 BEGIN BOND
M  V30 1 1 1 2
M  V30 2 2 2 3
M  V30 3 1 2 4
M  V30 4 1 3 5
M  V30 5 1 3 6
M  V30 6 2 4 7
M  V30 7 1 6 8
M  V30 8 2 6 9
M  V30 9 1 7 10
M  V30 10 2 10 11
M  V30 11 1 10 12
M  V30 12 1 7 9
M  V30 13 1 4 13
M  V30 14 1 5 14
M  V30 15 1 5 15
M  V30 16 1 9 16
M  V30 END BOND
M  V30 END CTAB
M  END
>  <Structure No>
3392

>  <LogS>
-4.4709

>  <MMFF94 Energy>
56.98

$$$$
Compound 3393
Actelion Java MolfileCreator 2.0

  0  0  0  0  0  0              0 V3000
M  V30 BEGIN CTAB
M  V30 COUNTS 15 15 0 0 0
M  V30 BEGIN ATOM
M  V30 1 O -0.083 2.9924 -0.4982 0
M  V30 2 C -0.0424 1.7493 -0.3001 0
M  V30 3 C -1.201 1.056 0.0488 0
M  V30 4 C 1.1614 1.0573 -0.4282 0
M  V30 5 C -1.1227 -0.3287 0.263 0
M  V30 6 C 1.1737 -0.3266 -0.2008 0
M  V30 7 O 0.0459 -0.9539 0.1308 0
M  V30 8 C -2.3118 -1.1134 0.6332 0
M  V30 9 C 2.4174 -1.1034 -0.3229 0
M  V30 10 O -3.4356 -0.5603 0.7682 0
M  V30 11 O -2.1978 -2.4826 0.8376 0 CHG=-1
M  V30 12 O 2.4052 -2.3449 -0.1142 0
M  V30 13 O 3.6126 -0.4825 -0.6671 0 CHG=-1
M  V30 14 H -2.1407 1.5863 0.1505 0
M  V30 15 H 2.0661 1.5885 -0.6989 0
M  V30 END ATOM
M  V30 BEGIN BOND
M  V30 1 2 1 2
M  V30 2 1 2 3
M  V30 3 1 2 4
M  V30 4 2 3 5
M  V30 5 2 4 6
M  V30 6 1 5 7
M  V30 7 1 5 8
M  V30 8 1 6 9
M  V30 9 2 8 10
M  V30 10 1 8 11
M  V30 11 2 9 12
M  V30 12 1 9 13
M  V30 13 1 6 7
M  V30 14 1 3 14
M  V30 15 1 4 15
M  V30 END BOND
M  V30 END CTAB
M  END
>  <Structure No>
3393

>  <LogS>
-1.1097

>  <MMFF94 Energy>
90.453

$$$$
Compound 3394
Actelion Java MolfileCreator 2.0

  0  0  0  0  0  0              0 V3000
M  V30 BEGIN CTAB
M  V30 COUNTS 25 25 0 0 0
M  V30 BEGIN ATOM
M  V30 1 O -2.6832 0.9463 1.4987 0
M  V30 2 C -1.7892 0.6083 0.6771 0
M  V30 3 C -2.1636 0.1059 -0.6686 0
M  V30 4 C -0.3435 0.7622 1.0629 0
M  V30 5 C -1.2093 -0.2897 -1.5285 0
M  V30 6 C -3.6135 -0.078 -1.0229 0
M  V30 7 C 0.5347 -0.2309 0.279 0 CFG=1
M  V30 8 C 0.2563 -0.1127 -1.2317 0
M  V30 9 C 2.0128 -0.0439 0.5949 0
M  V30 10 C 2.6478 1.1072 0.3146 0
M  V30 11 C 2.7961 -1.1615 1.2341 0
M  V30 12 H -0.2267 0.5766 2.1532 0
M  V30 13 H -0.0393 1.8094 0.8516 0
M  V30 14 H -1.4843 -0.7062 -2.4904 0
M  V30 15 H -3.7626 -0.0868 -2.1242 0
M  V30 16 H -4.2212 0.7535 -0.6081 0
M  V30 17 H -3.9775 -1.0383 -0.6014 0
M  V30 18 H 0.228 -1.2554 0.5891 0
M  V30 19 H 0.5667 0.8848 -1.6093 0
M  V30 20 H 0.8342 -0.8873 -1.7805 0
M  V30 21 H 3.7024 1.2293 0.5442 0
M  V30 22 H 2.1298 1.9421 -0.1453 0
M  V30 23 H 3.6354 -1.4587 0.5701 0
M  V30 24 H 3.2066 -0.8221 2.2088 0
M  V30 25 H 2.1647 -2.0556 1.4166 0
M  V30 END ATOM
M  V30 BEGIN BOND
M  V30 1 2 1 2
M  V30 2 1 2 3
M  V30 3 1 2 4
M  V30 4 2 3 5
M  V30 5 1 3 6
M  V30 6 1 4 7
M  V30 7 1 5 8
M  V30 8 1 7 9
M  V30 9 2 9 10
M  V30 10 1 9 11
M  V30 11 1 7 8
M  V30 12 1 4 12
M  V30 13 1 4 13
M  V30 14 1 5 14
M  V30 15 1 6 15
M  V30 16 1 6 16
M  V30 17 1 6 17
M  V30 18 1 7 18
M  V30 19 1 8 19
M  V30 20 1 8 20
M  V30 21 1 10 21
M  V30 22 1 10 22
M  V30 23 1 11 23
M  V30 24 1 11 24
M  V30 25 1 11 25
M  V30 END BOND
M  V30 BEGIN COLLECTION
M  V30 MDLV30/STEABS ATOMS=(1 7)
M  V30 END COLLECTION
M  V30 END CTAB
M  END
>  <Structure No>
3394

>  <LogS>
-2.0628

>  <MMFF94 Energy>
27.691

$$$$
Compound 3395
Actelion Java MolfileCreator 2.0

  0  0  0  0  0  0              0 V3000
M  V30 BEGIN CTAB
M  V30 COUNTS 25 25 0 0 0
M  V30 BEGIN ATOM
M  V30 1 O 4.543 0.8603 0.0 0
M  V30 2 C 3.1774 0.6229 -0.1396 0
M  V30 3 C 2.5908 -0.5213 0.4154 0
M  V30 4 C 2.3858 1.5367 -0.841 0
M  V30 5 C 1.2194 -0.7494 0.2689 0
M  V30 6 C 1.0138 1.3122 -0.9896 0
M  V30 7 C 0.4145 0.166 -0.4366 0
M  V30 8 C -1.0764 -0.0687 -0.6015 0 CFG=2
M  V30 9 C -1.7758 -0.0815 0.7764 0
M  V30 10 C -1.3289 -1.3604 -1.3946 0
M  V30 11 C -3.2996 -0.0129 0.6679 0
M  V30 12 H 5.1436 0.2173 0.5026 0
M  V30 13 H 3.1961 -1.2342 0.9605 0
M  V30 14 H 2.8343 2.4231 -1.2716 0
M  V30 15 H 0.7872 -1.6399 0.7066 0
M  V30 16 H 0.4209 2.0346 -1.5366 0
M  V30 17 H -1.5083 0.7683 -1.195 0
M  V30 18 H -1.4956 -0.9935 1.3471 0
M  V30 19 H -1.4375 0.801 1.3631 0
M  V30 20 H -0.729 -1.3568 -2.33 0
M  V30 21 H -2.3977 -1.4362 -1.6835 0
M  V30 22 H -1.0558 -2.2563 -0.7979 0
M  V30 23 H -3.7031 -0.9372 0.2055 0
M  V30 24 H -3.6082 0.8683 0.0663 0
M  V30 25 H -3.7377 0.0836 1.6837 0
M  V30 END ATOM
M  V30 BEGIN BOND
M  V30 1 1 1 2
M  V30 2 2 2 3
M  V30 3 1 2 4
M  V30 4 1 3 5
M  V30 5 2 4 6
M  V30 6 2 5 7
M  V30 7 1 7 8
M  V30 8 1 8 9
M  V30 9 1 8 10
M  V30 10 1 9 11
M  V30 11 1 6 7
M  V30 12 1 1 12
M  V30 13 1 3 13
M  V30 14 1 4 14
M  V30 15 1 5 15
M  V30 16 1 6 16
M  V30 17 1 8 17
M  V30 18 1 9 18
M  V30 19 1 9 19
M  V30 20 1 10 20
M  V30 21 1 10 21
M  V30 22 1 10 22
M  V30 23 1 11 23
M  V30 24 1 11 24
M  V30 25 1 11 25
M  V30 END BOND
M  V30 BEGIN COLLECTION
M  V30 MDLV30/STEABS ATOMS=(1 8)
M  V30 END COLLECTION
M  V30 END CTAB
M  END
>  <Structure No>
3395

>  <LogS>
-2.1945

>  <MMFF94 Energy>
12.079

$$$$
Compound 3396
Actelion Java MolfileCreator 2.0

  0  0  0  0  0  0              0 V3000
M  V30 BEGIN CTAB
M  V30 COUNTS 26 26 0 0 0
M  V30 BEGIN ATOM
M  V30 1 C -0.548 0.0782 0.3131 0
M  V30 2 C -0.0012 0.5725 -0.8203 0
M  V30 3 C -2.0313 -0.2448 0.3993 0
M  V30 4 C 0.3286 -0.1182 1.5351 0
M  V30 5 C 1.4614 0.9352 -0.8857 0
M  V30 6 C -2.8908 1.0045 0.1698 0
M  V30 7 C -2.4121 -1.3656 -0.5751 0
M  V30 8 C 1.7512 -0.441 1.1517 0
M  V30 9 C 2.2904 0.0498 0.0199 0
M  V30 10 C 3.7255 -0.2459 -0.3152 0
M  V30 11 H -0.6125 0.7404 -1.7017 0
M  V30 12 H -2.2613 -0.6107 1.4245 0
M  V30 13 H 0.3238 0.8187 2.1313 0
M  V30 14 H -0.0655 -0.9396 2.1705 0
M  V30 15 H 1.8084 0.8486 -1.9373 0
M  V30 16 H 1.5818 1.9905 -0.5614 0
M  V30 17 H -2.7801 1.3836 -0.8682 0
M  V30 18 H -2.5937 1.8064 0.8793 0
M  V30 19 H -3.9617 0.7659 0.3447 0
M  V30 20 H -3.4751 -1.6529 -0.4274 0
M  V30 21 H -1.7812 -2.2612 -0.3896 0
M  V30 22 H -2.2768 -1.0427 -1.6292 0
M  V30 23 H 2.3469 -1.0575 1.8195 0
M  V30 24 H 3.8623 -1.3402 -0.445 0
M  V30 25 H 4.0288 0.2629 -1.2542 0
M  V30 26 H 4.3849 0.11 0.5046 0
M  V30 END ATOM
M  V30 BEGIN BOND
M  V30 1 2 1 2
M  V30 2 1 1 3
M  V30 3 1 1 4
M  V30 4 1 2 5
M  V30 5 1 3 6
M  V30 6 1 3 7
M  V30 7 1 4 8
M  V30 8 1 5 9
M  V30 9 1 9 10
M  V30 10 2 8 9
M  V30 11 1 2 11
M  V30 12 1 3 12
M  V30 13 1 4 13
M  V30 14 1 4 14
M  V30 15 1 5 15
M  V30 16 1 5 16
M  V30 17 1 6 17
M  V30 18 1 6 18
M  V30 19 1 6 19
M  V30 20 1 7 20
M  V30 21 1 7 21
M  V30 22 1 7 22
M  V30 23 1 8 23
M  V30 24 1 10 24
M  V30 25 1 10 25
M  V30 26 1 10 26
M  V30 END BOND
M  V30 END CTAB
M  END
>  <Structure No>
3396

>  <LogS>
-4.1958

>  <MMFF94 Energy>
18.391

$$$$
Compound 3397
Actelion Java MolfileCreator 2.0

  0  0  0  0  0  0              0 V3000
M  V30 BEGIN CTAB
M  V30 COUNTS 16 16 0 0 0
M  V30 BEGIN ATOM
M  V30 1 O -3.4511 -1.3136 -0.4103 0
M  V30 2 C -2.9103 -0.2316 -0.0577 0
M  V30 3 O -3.7197 0.8448 0.2876 0 CHG=-1
M  V30 4 C -1.4367 -0.1069 -0.0111 0
M  V30 5 C -0.8388 1.1016 0.3827 0
M  V30 6 C -0.6137 -1.1918 -0.3591 0
M  V30 7 C 0.5532 1.2236 0.428 0
M  V30 8 C 0.7782 -1.0698 -0.3139 0
M  V30 9 C 1.3762 0.1396 0.0803 0
M  V30 10 C 2.849 0.2732 0.1298 0
M  V30 11 O 3.591 -0.6963 -0.1811 0
M  V30 12 O 3.4349 1.472 0.5204 0 CHG=-1
M  V30 13 H -1.4458 1.9555 0.6568 0
M  V30 14 H -1.0447 -2.1364 -0.6668 0
M  V30 15 H 0.9837 2.1683 0.7358 0
M  V30 16 H 1.3857 -1.9234 -0.5879 0
M  V30 END ATOM
M  V30 BEGIN BOND
M  V30 1 2 1 2
M  V30 2 1 2 3
M  V30 3 1 2 4
M  V30 4 2 4 5
M  V30 5 1 4 6
M  V30 6 1 5 7
M  V30 7 2 6 8
M  V30 8 2 7 9
M  V30 9 1 9 10
M  V30 10 2 10 11
M  V30 11 1 10 12
M  V30 12 1 8 9
M  V30 13 1 5 13
M  V30 14 1 6 14
M  V30 15 1 7 15
M  V30 16 1 8 16
M  V30 END BOND
M  V30 END CTAB
M  END
>  <Structure No>
3397

>  <LogS>
-4.0444

>  <MMFF94 Energy>
98.469

$$$$
Compound 3398
Actelion Java MolfileCreator 2.0

  0  0  0  0  0  0              0 V3000
M  V30 BEGIN CTAB
M  V30 COUNTS 24 23 0 0 0
M  V30 BEGIN ATOM
M  V30 1 O 1.9855 1.2979 -1.2215 0
M  V30 2 C 2.1937 0.2701 -0.2932 0
M  V30 3 C 1.0166 -0.7183 -0.3146 0
M  V30 4 N -0.1556 -0.2539 0.476 0 CHG=1
M  V30 5 C -0.8787 0.8818 -0.1704 0
M  V30 6 C -1.0742 -1.3834 0.7775 0
M  V30 7 C -0.5991 2.2193 0.5244 0
M  V30 8 C -1.6343 -2.0895 -0.4682 0
M  V30 9 H 2.7635 1.908 -1.1364 0
M  V30 10 H 3.122 -0.2783 -0.5685 0
M  V30 11 H 2.3334 0.6899 0.7278 0
M  V30 12 H 0.7325 -0.924 -1.3709 0
M  V30 13 H 1.3956 -1.6759 0.1095 0
M  V30 14 H 0.2028 0.0522 1.4126 0
M  V30 15 H -0.6214 0.973 -1.2487 0
M  V30 16 H -1.9827 0.7418 -0.1357 0
M  V30 17 H -1.9268 -1.0195 1.3948 0
M  V30 18 H -0.5495 -2.1411 1.4026 0
M  V30 19 H -1.1223 3.0365 -0.0156 0
M  V30 20 H 0.4855 2.4444 0.5392 0
M  V30 21 H -0.9748 2.19 1.5693 0
M  V30 22 H -2.0926 -1.3679 -1.1746 0
M  V30 23 H -2.4161 -2.8136 -0.1563 0
M  V30 24 H -0.8369 -2.6582 -0.9897 0
M  V30 END ATOM
M  V30 BEGIN BOND
M  V30 1 1 1 2
M  V30 2 1 2 3
M  V30 3 1 3 4
M  V30 4 1 4 5
M  V30 5 1 4 6
M  V30 6 1 5 7
M  V30 7 1 6 8
M  V30 8 1 1 9
M  V30 9 1 2 10
M  V30 10 1 2 11
M  V30 11 1 3 12
M  V30 12 1 3 13
M  V30 13 1 4 14
M  V30 14 1 5 15
M  V30 15 1 5 16
M  V30 16 1 6 17
M  V30 17 1 6 18
M  V30 18 1 7 19
M  V30 19 1 7 20
M  V30 20 1 7 21
M  V30 21 1 8 22
M  V30 22 1 8 23
M  V30 23 1 8 24
M  V30 END BOND
M  V30 END CTAB
M  END
>  <Structure No>
3398

>  <LogS>
0.9311

>  <MMFF94 Energy>
24.836

$$$$
Compound 3399
Actelion Java MolfileCreator 2.0

  0  0  0  0  0  0              0 V3000
M  V30 BEGIN CTAB
M  V30 COUNTS 12 12 0 0 0
M  V30 BEGIN ATOM
M  V30 1 N 3.0198 -1.1912 1.1117 0
M  V30 2 C 1.9998 -0.7945 0.7356 0
M  V30 3 C 0.7313 -0.3012 0.2676 0
M  V30 4 C -0.1039 0.4201 1.128 0
M  V30 5 C 0.326 -0.5404 -1.0502 0
M  V30 6 C -1.3315 0.8902 0.6537 0
M  V30 7 C -0.9093 -0.0527 -1.4844 0
M  V30 8 N -1.7051 0.646 -0.6309 0
M  V30 9 H 0.1898 0.6167 2.152 0
M  V30 10 H 0.9569 -1.0965 -1.733 0
M  V30 11 H -1.9875 1.4493 1.3074 0
M  V30 12 H -1.2358 -0.2298 -2.5004 0
M  V30 END ATOM
M  V30 BEGIN BOND
M  V30 1 3 1 2
M  V30 2 1 2 3
M  V30 3 2 3 4
M  V30 4 1 3 5
M  V30 5 1 4 6
M  V30 6 2 5 7
M  V30 7 2 6 8
M  V30 8 1 7 8
M  V30 9 1 4 9
M  V30 10 1 5 10
M  V30 11 1 6 11
M  V30 12 1 7 12
M  V30 END BOND
M  V30 END CTAB
M  END
>  <Structure No>
3399

>  <LogS>
-0.4154

>  <MMFF94 Energy>
MMFF94 error code 2

$$$$
Compound 3400
Actelion Java MolfileCreator 2.0

  0  0  0  0  0  0              0 V3000
M  V30 BEGIN CTAB
M  V30 COUNTS 12 12 0 0 0
M  V30 BEGIN ATOM
M  V30 1 N 3.4177 0.4763 -0.9528 0
M  V30 2 C 2.3179 0.354 -0.614 0
M  V30 3 C 0.9501 0.202 -0.1927 0
M  V30 4 C 0.4515 0.9496 0.881 0
M  V30 5 C 0.1014 -0.6949 -0.8508 0
M  V30 6 N -0.8427 0.7992 1.2723 0
M  V30 7 C -1.2234 -0.8316 -0.4306 0
M  V30 8 C -1.6824 -0.0673 0.645 0
M  V30 9 H 1.0881 1.6502 1.4066 0
M  V30 10 H 0.4624 -1.2851 -1.6844 0
M  V30 11 H -1.888 -1.5227 -0.933 0
M  V30 12 H -2.7062 -0.1631 0.9811 0
M  V30 END ATOM
M  V30 BEGIN BOND
M  V30 1 3 1 2
M  V30 2 1 2 3
M  V30 3 2 3 4
M  V30 4 1 3 5
M  V30 5 1 4 6
M  V30 6 2 5 7
M  V30 7 2 6 8
M  V30 8 1 7 8
M  V30 9 1 4 9
M  V30 10 1 5 10
M  V30 11 1 7 11
M  V30 12 1 8 12
M  V30 END BOND
M  V30 END CTAB
M  END
>  <Structure No>
3400

>  <LogS>
0.1128

>  <MMFF94 Energy>
MMFF94 error code 2

$$$$
Compound 3401
Actelion Java MolfileCreator 2.0

  0  0  0  0  0  0              0 V3000
M  V30 BEGIN CTAB
M  V30 COUNTS 20 20 0 0 0
M  V30 BEGIN ATOM
M  V30 1 O 0.2356 -0.9428 1.1787 0
M  V30 2 C 0.9372 0.1205 0.5437 0 CFG=2
M  V30 3 C -0.9212 -1.334 0.4583 0
M  V30 4 C 0.0453 1.3617 0.3226 0
M  V30 5 C 1.6708 -0.3299 -0.7374 0
M  V30 6 C -1.9217 -0.1832 0.3257 0
M  V30 7 C -1.2633 0.9983 -0.3786 0
M  V30 8 O 2.4024 -1.5017 -0.4987 0
M  V30 9 H 1.7329 0.4393 1.252 0
M  V30 10 H -0.6592 -1.7498 -0.5379 0
M  V30 11 H -1.4136 -2.1562 1.0187 0
M  V30 12 H 0.5885 2.129 -0.2706 0
M  V30 13 H -0.1935 1.8109 1.3119 0
M  V30 14 H 0.9554 -0.5212 -1.5623 0
M  V30 15 H 2.3522 0.4797 -1.0853 0
M  V30 16 H -2.8051 -0.5202 -0.258 0
M  V30 17 H -2.2663 0.1269 1.3366 0
M  V30 18 H -1.0671 0.7413 -1.4419 0
M  V30 19 H -1.9501 1.8718 -0.3608 0
M  V30 20 H 3.1983 -1.2365 0.0324 0
M  V30 END ATOM
M  V30 BEGIN BOND
M  V30 1 1 1 2
M  V30 2 1 1 3
M  V30 3 1 2 4
M  V30 4 1 2 5
M  V30 5 1 3 6
M  V30 6 1 4 7
M  V30 7 1 5 8
M  V30 8 1 6 7
M  V30 9 1 2 9
M  V30 10 1 3 10
M  V30 11 1 3 11
M  V30 12 1 4 12
M  V30 13 1 4 13
M  V30 14 1 5 14
M  V30 15 1 5 15
M  V30 16 1 6 16
M  V30 17 1 6 17
M  V30 18 1 7 18
M  V30 19 1 7 19
M  V30 20 1 8 20
M  V30 END BOND
M  V30 BEGIN COLLECTION
M  V30 MDLV30/STEABS ATOMS=(1 2)
M  V30 END COLLECTION
M  V30 END CTAB
M  END
>  <Structure No>
3401

>  <LogS>
0.9349

>  <MMFF94 Energy>
26.419

$$$$
Compound 3402
Actelion Java MolfileCreator 2.0

  0  0  0  0  0  0              0 V3000
M  V30 BEGIN CTAB
M  V30 COUNTS 22 22 0 0 0
M  V30 BEGIN ATOM
M  V30 1 O 2.5694 0.3111 -0.0777 0
M  V30 2 C 1.991 0.1408 1.2004 0
M  V30 3 C 1.6895 1.0503 -0.9008 0
M  V30 4 C 0.685 -0.6599 1.1015 0
M  V30 5 C 0.365 0.2977 -1.0991 0
M  V30 6 N -0.2756 0.0197 0.206 0 CHG=1
M  V30 7 C -1.4889 -0.8179 0.0503 0
M  V30 8 C -2.6474 -0.0604 -0.6076 0
M  V30 9 H 2.7055 -0.4205 1.8385 0
M  V30 10 H 1.8124 1.124 1.6929 0
M  V30 11 H 1.5042 2.0639 -0.4773 0
M  V30 12 H 2.1702 1.1922 -1.8915 0
M  V30 13 H 0.2541 -0.7584 2.1232 0
M  V30 14 H 0.9179 -1.6816 0.7228 0
M  V30 15 H -0.2939 0.9331 -1.7287 0
M  V30 16 H 0.5679 -0.6499 -1.648 0
M  V30 17 H -0.5486 0.9289 0.652 0
M  V30 18 H -1.8475 -1.1523 1.0504 0
M  V30 19 H -1.2657 -1.7334 -0.5427 0
M  V30 20 H -2.4374 0.132 -1.6795 0
M  V30 21 H -3.5703 -0.675 -0.5478 0
M  V30 22 H -2.8317 0.9019 -0.0852 0
M  V30 END ATOM
M  V30 BEGIN BOND
M  V30 1 1 1 2
M  V30 2 1 1 3
M  V30 3 1 2 4
M  V30 4 1 3 5
M  V30 5 1 4 6
M  V30 6 1 6 7
M  V30 7 1 7 8
M  V30 8 1 5 6
M  V30 9 1 2 9
M  V30 10 1 2 10
M  V30 11 1 3 11
M  V30 12 1 3 12
M  V30 13 1 4 13
M  V30 14 1 4 14
M  V30 15 1 5 15
M  V30 16 1 5 16
M  V30 17 1 6 17
M  V30 18 1 7 18
M  V30 19 1 7 19
M  V30 20 1 8 20
M  V30 21 1 8 21
M  V30 22 1 8 22
M  V30 END BOND
M  V30 END CTAB
M  END
>  <Structure No>
3402

>  <LogS>
0.9386

>  <MMFF94 Energy>
74.608

$$$$
Compound 3403
Actelion Java MolfileCreator 2.0

  0  0  0  0  0  0              0 V3000
M  V30 BEGIN CTAB
M  V30 COUNTS 21 21 0 0 0
M  V30 BEGIN ATOM
M  V30 1 Cl 3.9261 -0.8987 2.6161 0
M  V30 2 C 2.7775 -0.2457 1.4621 0
M  V30 3 C 1.5012 -0.8083 1.3494 0
M  V30 4 C 3.1368 0.837 0.6542 0
M  V30 5 C 0.5738 -0.2945 0.4334 0
M  V30 6 C 2.2223 1.3551 -0.2656 0
M  V30 7 O -0.6912 -0.9018 0.3639 0
M  V30 8 C 0.9462 0.7948 -0.3805 0
M  V30 9 C -1.7941 -0.451 -0.4266 0 CFG=1
M  V30 10 C -2.8089 -1.5498 -0.5199 0
M  V30 11 C -2.4343 0.7877 0.2052 0
M  V30 12 O -3.1074 -2.2301 0.4976 0
M  V30 13 O -3.4606 -1.7931 -1.7225 0 CHG=-1
M  V30 14 H 1.226 -1.6471 1.9768 0
M  V30 15 H 4.1229 1.2759 0.7372 0
M  V30 16 H 2.5031 2.192 -0.8921 0
M  V30 17 H 0.2652 1.2164 -1.1055 0
M  V30 18 H -1.4526 -0.2164 -1.4577 0
M  V30 19 H -3.3023 1.1225 -0.4025 0
M  V30 20 H -1.7048 1.6216 0.2551 0
M  V30 21 H -2.7798 0.5612 1.2369 0
M  V30 END ATOM
M  V30 BEGIN BOND
M  V30 1 1 1 2
M  V30 2 2 2 3
M  V30 3 1 2 4
M  V30 4 1 3 5
M  V30 5 2 4 6
M  V30 6 1 5 7
M  V30 7 2 5 8
M  V30 8 1 7 9
M  V30 9 1 9 10
M  V30 10 1 9 11
M  V30 11 2 10 12
M  V30 12 1 10 13
M  V30 13 1 6 8
M  V30 14 1 3 14
M  V30 15 1 4 15
M  V30 16 1 6 16
M  V30 17 1 8 17
M  V30 18 1 9 18
M  V30 19 1 11 19
M  V30 20 1 11 20
M  V30 21 1 11 21
M  V30 END BOND
M  V30 BEGIN COLLECTION
M  V30 MDLV30/STEABS ATOMS=(1 9)
M  V30 END COLLECTION
M  V30 END CTAB
M  END
>  <Structure No>
3403

>  <LogS>
-2.2232

>  <MMFF94 Energy>
66.052

$$$$
Compound 3404
Actelion Java MolfileCreator 2.0

  0  0  0  0  0  0              0 V3000
M  V30 BEGIN CTAB
M  V30 COUNTS 45 47 0 0 0
M  V30 BEGIN ATOM
M  V30 1 O 1.1188 -3.0391 0.2396 0
M  V30 2 C 1.1945 -1.8633 0.6909 0
M  V30 3 O 0.0428 -1.0758 0.8183 0
M  V30 4 C 2.528 -1.3222 1.1296 0 CFG=1
M  V30 5 C -1.2407 -1.4653 0.3245 0 CFG=2
M  V30 6 C 2.6982 0.1238 0.6892 0
M  V30 7 C 2.7704 -1.5413 2.6381 0
M  V30 8 C -1.2676 -1.3669 -1.2298 0
M  V30 9 C -2.3307 -0.6027 1.0198 0
M  V30 10 C 2.0569 1.1865 1.3583 0
M  V30 11 C 3.4506 0.4109 -0.4659 0
M  V30 12 O 1.6892 -1.1034 3.4195 0
M  V30 13 C -1.7525 0.0175 -1.7434 0 CFG=1
M  V30 14 C -2.6915 0.6862 0.2274 0 CFG=2
M  V30 15 C 2.185 2.4988 0.8935 0
M  V30 16 C 3.576 1.7252 -0.9255 0
M  V30 17 N -3.0533 0.3725 -1.1608 0 CHG=1 CFG=2
M  V30 18 C -0.8104 1.1252 -1.2363 0
M  V30 19 C -1.4481 1.5806 0.085 0
M  V30 20 C 2.9449 2.7684 -0.2457 0
M  V30 21 C -4.1448 -0.6044 -1.3481 0
M  V30 22 H 3.3108 -1.9258 0.6163 0
M  V30 23 H -1.4193 -2.5244 0.6167 0
M  V30 24 H 2.9688 -2.6218 2.8302 0
M  V30 25 H 3.6825 -0.9885 2.9495 0
M  V30 26 H -1.9141 -2.1678 -1.6448 0
M  V30 27 H -0.257 -1.5706 -1.6447 0
M  V30 28 H -3.2462 -1.2098 1.1797 0
M  V30 29 H -1.9882 -0.3222 2.0403 0
M  V30 30 H 1.4372 1.009 2.2243 0
M  V30 31 H 3.936 -0.3839 -1.0185 0
M  V30 32 H 1.0381 -1.8518 3.4597 0
M  V30 33 H -1.7992 0.0169 -2.8556 0
M  V30 34 H -3.5141 1.2325 0.7415 0
M  V30 35 H 1.6844 3.3066 1.4119 0
M  V30 36 H 4.1581 1.9339 -1.8138 0
M  V30 37 H -3.3834 1.2587 -1.6191 0
M  V30 38 H 0.2342 0.7737 -1.0943 0
M  V30 39 H -0.8012 1.9698 -1.9598 0
M  V30 40 H -1.7597 2.6452 0.0047 0
M  V30 41 H -0.7498 1.4834 0.9423 0
M  V30 42 H 3.039 3.7848 -0.6058 0
M  V30 43 H -4.3348 -0.7515 -2.4334 0
M  V30 44 H -3.9325 -1.595 -0.9025 0
M  V30 45 H -5.079 -0.2166 -0.8869 0
M  V30 END ATOM
M  V30 BEGIN BOND
M  V30 1 2 1 2
M  V30 2 1 2 3
M  V30 3 1 2 4
M  V30 4 1 3 5
M  V30 5 1 4 6
M  V30 6 1 4 7
M  V30 7 1 5 8
M  V30 8 1 5 9
M  V30 9 2 6 10
M  V30 10 1 6 11
M  V30 11 1 7 12
M  V30 12 1 8 13
M  V30 13 1 9 14
M  V30 14 1 10 15
M  V30 15 2 11 16
M  V30 16 1 13 17
M  V30 17 1 13 18
M  V30 18 1 14 19
M  V30 19 2 15 20
M  V30 20 1 17 21
M  V30 21 1 14 17
M  V30 22 1 16 20
M  V30 23 1 18 19
M  V30 24 1 4 22
M  V30 25 1 5 23
M  V30 26 1 7 24
M  V30 27 1 7 25
M  V30 28 1 8 26
M  V30 29 1 8 27
M  V30 30 1 9 28
M  V30 31 1 9 29
M  V30 32 1 10 30
M  V30 33 1 11 31
M  V30 34 1 12 32
M  V30 35 1 13 33
M  V30 36 1 14 34
M  V30 37 1 15 35
M  V30 38 1 16 36
M  V30 39 1 17 37
M  V30 40 1 18 38
M  V30 41 1 18 39
M  V30 42 1 19 40
M  V30 43 1 19 41
M  V30 44 1 20 42
M  V30 45 1 21 43
M  V30 46 1 21 44
M  V30 47 1 21 45
M  V30 END BOND
M  V30 BEGIN COLLECTION
M  V30 MDLV30/STEABS ATOMS=(5 4 5 13 14 17)
M  V30 END COLLECTION
M  V30 END CTAB
M  END
>  <Structure No>
3404

>  <LogS>
-1.91

>  <MMFF94 Energy>
55.553

$$$$
Compound 3405
Actelion Java MolfileCreator 2.0

  0  0  0  0  0  0              0 V3000
M  V30 BEGIN CTAB
M  V30 COUNTS 26 27 0 0 0
M  V30 BEGIN ATOM
M  V30 1 O -4.3604 -1.8216 0.4749 0
M  V30 2 C -3.2743 -0.9656 0.3078 0
M  V30 3 C -2.6689 -0.3544 1.4143 0
M  V30 4 C -2.7827 -0.7164 -0.9776 0
M  V30 5 C -1.5792 0.5027 1.2341 0
M  V30 6 C -1.693 0.1403 -1.1604 0
M  V30 7 C -1.0899 0.7644 -0.056 0
M  V30 8 C 0.1063 1.6565 -0.2479 0
M  V30 9 C 1.3734 0.8477 -0.1854 0
M  V30 10 C 2.0119 0.6241 1.046 0
M  V30 11 C 1.8982 0.2613 -1.3495 0
M  V30 12 C 3.1698 -0.1574 1.1071 0
M  V30 13 C 3.0563 -0.5194 -1.2839 0
M  V30 14 C 3.6925 -0.7273 -0.0569 0
M  V30 15 H -4.7393 -2.0229 1.393 0
M  V30 16 H -3.0395 -0.5455 2.4133 0
M  V30 17 H -3.2433 -1.1899 -1.8353 0
M  V30 18 H -1.1159 0.9608 2.0994 0
M  V30 19 H -1.3185 0.3159 -2.1612 0
M  V30 20 H 0.1205 2.4497 0.5317 0
M  V30 21 H 0.0371 2.1837 -1.2249 0
M  V30 22 H 1.6123 1.0527 1.9568 0
M  V30 23 H 1.41 0.4074 -2.3051 0
M  V30 24 H 3.66 -0.324 2.0576 0
M  V30 25 H 3.4587 -0.9661 -2.1837 0
M  V30 26 H 4.5881 -1.333 -0.0077 0
M  V30 END ATOM
M  V30 BEGIN BOND
M  V30 1 1 1 2
M  V30 2 2 2 3
M  V30 3 1 2 4
M  V30 4 1 3 5
M  V30 5 2 4 6
M  V30 6 2 5 7
M  V30 7 1 7 8
M  V30 8 1 8 9
M  V30 9 2 9 10
M  V30 10 1 9 11
M  V30 11 1 10 12
M  V30 12 2 11 13
M  V30 13 2 12 14
M  V30 14 1 6 7
M  V30 15 1 13 14
M  V30 16 1 1 15
M  V30 17 1 3 16
M  V30 18 1 4 17
M  V30 19 1 5 18
M  V30 20 1 6 19
M  V30 21 1 8 20
M  V30 22 1 8 21
M  V30 23 1 10 22
M  V30 24 1 11 23
M  V30 25 1 12 24
M  V30 26 1 13 25
M  V30 27 1 14 26
M  V30 END BOND
M  V30 END CTAB
M  END
>  <Structure No>
3405

>  <LogS>
-3.4009

>  <MMFF94 Energy>
35.431

$$$$
Compound 3406
Actelion Java MolfileCreator 2.0

  0  0  0  0  0  0              0 V3000
M  V30 BEGIN CTAB
M  V30 COUNTS 28 29 0 0 0
M  V30 BEGIN ATOM
M  V30 1 O -0.0791 0.3958 -1.1086 0
M  V30 2 C -0.0268 -0.4308 -0.1575 0
M  V30 3 N -1.2365 -0.9189 0.4428 0
M  V30 4 N 1.238 -0.9537 0.2763 0
M  V30 5 C -2.5332 -0.3314 0.2387 0
M  V30 6 C 2.5116 -0.4025 -0.1006 0
M  V30 7 C -3.6721 -1.1523 0.2628 0
M  V30 8 C -2.6941 1.0576 0.0752 0
M  V30 9 C 2.6879 0.9818 -0.2867 0
M  V30 10 C 3.6199 -1.255 -0.2276 0
M  V30 11 C -4.9458 -0.6018 0.0891 0
M  V30 12 C -3.9698 1.6043 -0.0972 0
M  V30 13 C 3.9439 1.4928 -0.6296 0
M  V30 14 C 4.8736 -0.7401 -0.5714 0
M  V30 15 C -5.0943 0.775 -0.0948 0
M  V30 16 C 5.0347 0.6323 -0.7763 0
M  V30 17 H -1.1792 -1.7997 1.0021 0
M  V30 18 H 1.2315 -1.8337 0.84 0
M  V30 19 H -3.5704 -2.2206 0.4067 0
M  V30 20 H -1.8417 1.7229 0.1066 0
M  V30 21 H 1.8664 1.6707 -0.1427 0
M  V30 22 H 3.5084 -2.3203 -0.0694 0
M  V30 23 H -5.8179 -1.2428 0.0994 0
M  V30 24 H -4.0875 2.6728 -0.2236 0
M  V30 25 H 4.0733 2.5579 -0.7726 0
M  V30 26 H 5.7209 -1.4053 -0.6767 0
M  V30 27 H -6.0809 1.2003 -0.2268 0
M  V30 28 H 6.0061 1.03 -1.0399 0
M  V30 END ATOM
M  V30 BEGIN BOND
M  V30 1 2 1 2
M  V30 2 1 2 3
M  V30 3 1 2 4
M  V30 4 1 3 5
M  V30 5 1 4 6
M  V30 6 2 5 7
M  V30 7 1 5 8
M  V30 8 2 6 9
M  V30 9 1 6 10
M  V30 10 1 7 11
M  V30 11 2 8 12
M  V30 12 1 9 13
M  V30 13 2 10 14
M  V30 14 2 11 15
M  V30 15 2 13 16
M  V30 16 1 12 15
M  V30 17 1 14 16
M  V30 18 1 3 17
M  V30 19 1 4 18
M  V30 20 1 7 19
M  V30 21 1 8 20
M  V30 22 1 9 21
M  V30 23 1 10 22
M  V30 24 1 11 23
M  V30 25 1 12 24
M  V30 26 1 13 25
M  V30 27 1 14 26
M  V30 28 1 15 27
M  V30 29 1 16 28
M  V30 END BOND
M  V30 END CTAB
M  END
>  <Structure No>
3406

>  <LogS>
-3.1508

>  <MMFF94 Energy>
-27.004

$$$$
Compound 3407
Actelion Java MolfileCreator 2.0

  0  0  0  0  0  0              0 V3000
M  V30 BEGIN CTAB
M  V30 COUNTS 30 30 0 0 0
M  V30 BEGIN ATOM
M  V30 1 C -1.1702 -0.9361 0.3899 0
M  V30 2 C -1.3836 0.4505 0.4167 0
M  V30 3 C 0.1303 -1.438 0.5493 0
M  V30 4 C -2.3169 -1.8739 0.1224 0
M  V30 5 C -0.3125 1.332 0.6288 0
M  V30 6 C 1.2091 -0.5662 0.7619 0
M  V30 7 C -2.4817 -2.1109 -1.375 0
M  V30 8 C 0.9837 0.8185 0.7868 0
M  V30 9 C -0.5418 2.8198 0.6166 0
M  V30 10 C 2.6072 -1.1086 0.8921 0
M  V30 11 C -0.407 3.3748 -0.7974 0
M  V30 12 C 3.2733 -1.2166 -0.4754 0
M  V30 13 H -2.3819 0.8441 0.2645 0
M  V30 14 H 0.3041 -2.5066 0.4994 0
M  V30 15 H -2.142 -2.8471 0.6307 0
M  V30 16 H -3.2603 -1.4521 0.5329 0
M  V30 17 H -3.3311 -2.804 -1.5507 0
M  V30 18 H -2.691 -1.1522 -1.8962 0
M  V30 19 H -1.5593 -2.564 -1.7972 0
M  V30 20 H 1.8182 1.4969 0.921 0
M  V30 21 H 0.1925 3.3258 1.2807 0
M  V30 22 H -1.5561 3.0541 1.0074 0
M  V30 23 H 2.5853 -2.1125 1.3697 0
M  V30 24 H 3.2157 -0.4456 1.5452 0
M  V30 25 H 0.6128 3.1794 -1.1925 0
M  V30 26 H -1.1569 2.9044 -1.469 0
M  V30 27 H -0.5795 4.4716 -0.7846 0
M  V30 28 H 2.6964 -1.9026 -1.132 0
M  V30 29 H 4.3018 -1.6179 -0.3575 0
M  V30 30 H 3.3343 -0.2158 -0.9544 0
M  V30 END ATOM
M  V30 BEGIN BOND
M  V30 1 2 1 2
M  V30 2 1 1 3
M  V30 3 1 1 4
M  V30 4 1 2 5
M  V30 5 2 3 6
M  V30 6 1 4 7
M  V30 7 2 5 8
M  V30 8 1 5 9
M  V30 9 1 6 10
M  V30 10 1 9 11
M  V30 11 1 10 12
M  V30 12 1 6 8
M  V30 13 1 2 13
M  V30 14 1 3 14
M  V30 15 1 4 15
M  V30 16 1 4 16
M  V30 17 1 7 17
M  V30 18 1 7 18
M  V30 19 1 7 19
M  V30 20 1 8 20
M  V30 21 1 9 21
M  V30 22 1 9 22
M  V30 23 1 10 23
M  V30 24 1 10 24
M  V30 25 1 11 25
M  V30 26 1 11 26
M  V30 27 1 11 27
M  V30 28 1 12 28
M  V30 29 1 12 29
M  V30 30 1 12 30
M  V30 END BOND
M  V30 END CTAB
M  END
>  <Structure No>
3407

>  <LogS>
-7.0641

>  <MMFF94 Energy>
21.638

$$$$
Compound 3408
Actelion Java MolfileCreator 2.0

  0  0  0  0  0  0              0 V3000
M  V30 BEGIN CTAB
M  V30 COUNTS 34 33 0 0 0
M  V30 BEGIN ATOM
M  V30 1 N 1.1519 0.0 0.0767 0 CHG=1
M  V30 2 C -0.0319 0.7836 0.5155 0
M  V30 3 C 1.3252 0.1287 -1.3951 0
M  V30 4 C 2.3709 0.4654 0.7921 0
M  V30 5 N -1.2877 0.1292 0.0695 0
M  V30 6 C 2.0984 -1.0515 -1.996 0
M  V30 7 C 2.5162 -0.1836 2.1736 0
M  V30 8 C -1.7243 -0.9069 1.0342 0
M  V30 9 C -2.3598 1.1242 -0.1648 0
M  V30 10 C -2.4127 -2.0516 0.2977 0
M  V30 11 C -2.2613 1.6904 -1.5788 0
M  V30 12 H 0.9884 -1.0094 0.3023 0
M  V30 13 H -0.048 0.9117 1.6216 0
M  V30 14 H 0.0505 1.8188 0.109 0
M  V30 15 H 1.8423 1.0813 -1.6522 0
M  V30 16 H 0.3398 0.1508 -1.9114 0
M  V30 17 H 3.292 0.2129 0.2247 0
M  V30 18 H 2.369 1.5736 0.9052 0
M  V30 19 H 2.1772 -0.9188 -3.0956 0
M  V30 20 H 1.5618 -2.0033 -1.7962 0
M  V30 21 H 3.1242 -1.119 -1.5815 0
M  V30 22 H 3.4523 0.1731 2.6527 0
M  V30 23 H 1.6667 0.0798 2.8355 0
M  V30 24 H 2.5723 -1.2885 2.075 0
M  V30 25 H -2.4082 -0.4844 1.8055 0
M  V30 26 H -0.8617 -1.3456 1.5833 0
M  V30 27 H -3.3671 0.6597 -0.0749 0
M  V30 28 H -2.3169 1.9502 0.5812 0
M  V30 29 H -2.7004 -2.8424 1.0223 0
M  V30 30 H -3.3283 -1.6948 -0.2179 0
M  V30 31 H -1.7203 -2.4884 -0.4529 0
M  V30 32 H -1.3138 2.2503 -1.7182 0
M  V30 33 H -3.1089 2.3843 -1.7622 0
M  V30 34 H -2.3084 0.8655 -2.3211 0
M  V30 END ATOM
M  V30 BEGIN BOND
M  V30 1 1 1 2
M  V30 2 1 1 3
M  V30 3 1 1 4
M  V30 4 1 2 5
M  V30 5 1 3 6
M  V30 6 1 4 7
M  V30 7 1 5 8
M  V30 8 1 5 9
M  V30 9 1 8 10
M  V30 10 1 9 11
M  V30 11 1 1 12
M  V30 12 1 2 13
M  V30 13 1 2 14
M  V30 14 1 3 15
M  V30 15 1 3 16
M  V30 16 1 4 17
M  V30 17 1 4 18
M  V30 18 1 6 19
M  V30 19 1 6 20
M  V30 20 1 6 21
M  V30 21 1 7 22
M  V30 22 1 7 23
M  V30 23 1 7 24
M  V30 24 1 8 25
M  V30 25 1 8 26
M  V30 26 1 9 27
M  V30 27 1 9 28
M  V30 28 1 10 29
M  V30 29 1 10 30
M  V30 30 1 10 31
M  V30 31 1 11 32
M  V30 32 1 11 33
M  V30 33 1 11 34
M  V30 END BOND
M  V30 END CTAB
M  END
>  <Structure No>
3408

>  <LogS>
-0.1995

>  <MMFF94 Energy>
-51.054

$$$$
Compound 3409
Actelion Java MolfileCreator 2.0

  0  0  0  0  0  0              0 V3000
M  V30 BEGIN CTAB
M  V30 COUNTS 53 52 0 0 0
M  V30 BEGIN ATOM
M  V30 1 O 1.5524 2.2516 -1.5524 0
M  V30 2 C 2.6315 2.1324 -0.6584 0 CFG=2
M  V30 3 C 2.1586 1.5897 0.7133 0
M  V30 4 C 3.3397 3.4823 -0.5019 0
M  V30 5 N 1.6101 0.2078 0.6163 0 CHG=1 CFG=1
M  V30 6 C 2.7163 -0.7956 0.6366 0
M  V30 7 C 0.6546 -0.0501 1.7309 0
M  V30 8 C 2.4346 -2.0105 -0.2821 0 CFG=2
M  V30 9 C -0.7534 0.5291 1.4733 0
M  V30 10 O 1.3167 -2.7389 0.157 0
M  V30 11 C 3.6603 -2.9272 -0.3809 0
M  V30 12 N -1.3227 0.0099 0.2083 0
M  V30 13 C -2.0779 1.0383 -0.5547 0
M  V30 14 C -2.0295 -1.2786 0.4003 0
M  V30 15 C -3.496 1.3521 -0.0124 0 CFG=1
M  V30 16 C -2.2862 -2.0075 -0.9337 0 CFG=1
M  V30 17 O -3.463 1.7254 1.3416 0
M  V30 18 C -4.1672 2.4485 -0.8483 0
M  V30 19 O -1.0748 -2.2206 -1.6109 0
M  V30 20 C -2.9526 -3.3593 -0.6813 0
M  V30 21 H 0.9041 2.8928 -1.1587 0
M  V30 22 H 3.3627 1.4257 -1.1028 0
M  V30 23 H 1.4012 2.3003 1.1074 0
M  V30 24 H 3.0019 1.6194 1.4418 0
M  V30 25 H 2.66 4.23 -0.0399 0
M  V30 26 H 3.6594 3.8567 -1.4974 0
M  V30 27 H 4.2411 3.3703 0.1375 0
M  V30 28 H 1.097 0.1204 -0.291 0
M  V30 29 H 3.6713 -0.3438 0.2875 0
M  V30 30 H 2.9242 -1.1457 1.6742 0
M  V30 31 H 1.0474 0.3715 2.6842 0
M  V30 32 H 0.5392 -1.1368 1.9168 0
M  V30 33 H 2.2203 -1.6371 -1.3072 0
M  V30 34 H -1.4103 0.274 2.3353 0
M  V30 35 H -0.6821 1.6364 1.4661 0
M  V30 36 H 1.5421 -3.1297 1.0417 0
M  V30 37 H 3.9527 -3.2993 0.6242 0
M  V30 38 H 3.4276 -3.797 -1.0311 0
M  V30 39 H 4.517 -2.3769 -0.8248 0
M  V30 40 H -2.1622 0.7131 -1.6125 0
M  V30 41 H -1.4849 1.9783 -0.603 0
M  V30 42 H -1.4069 -1.9524 1.0277 0
M  V30 43 H -2.9795 -1.1339 0.957 0
M  V30 44 H -4.1347 0.4499 -0.1098 0
M  V30 45 H -2.9851 -1.4151 -1.5666 0
M  V30 46 H -2.949 2.5728 1.4058 0
M  V30 47 H -5.1829 2.6569 -0.4499 0
M  V30 48 H -3.5722 3.3863 -0.8172 0
M  V30 49 H -4.2648 2.1192 -1.9049 0
M  V30 50 H -0.8527 -1.3762 -2.0826 0
M  V30 51 H -2.2954 -4.0097 -0.0649 0
M  V30 52 H -3.1484 -3.868 -1.6491 0
M  V30 53 H -3.9217 -3.2192 -0.1561 0
M  V30 END ATOM
M  V30 BEGIN BOND
M  V30 1 1 1 2
M  V30 2 1 2 3
M  V30 3 1 2 4
M  V30 4 1 3 5
M  V30 5 1 5 6
M  V30 6 1 5 7
M  V30 7 1 6 8
M  V30 8 1 7 9
M  V30 9 1 8 10
M  V30 10 1 8 11
M  V30 11 1 9 12
M  V30 12 1 12 13
M  V30 13 1 12 14
M  V30 14 1 13 15
M  V30 15 1 14 16
M  V30 16 1 15 17
M  V30 17 1 15 18
M  V30 18 1 16 19
M  V30 19 1 16 20
M  V30 20 1 1 21
M  V30 21 1 2 22
M  V30 22 1 3 23
M  V30 23 1 3 24
M  V30 24 1 4 25
M  V30 25 1 4 26
M  V30 26 1 4 27
M  V30 27 1 5 28
M  V30 28 1 6 29
M  V30 29 1 6 30
M  V30 30 1 7 31
M  V30 31 1 7 32
M  V30 32 1 8 33
M  V30 33 1 9 34
M  V30 34 1 9 35
M  V30 35 1 10 36
M  V30 36 1 11 37
M  V30 37 1 11 38
M  V30 38 1 11 39
M  V30 39 1 13 40
M  V30 40 1 13 41
M  V30 41 1 14 42
M  V30 42 1 14 43
M  V30 43 1 15 44
M  V30 44 1 16 45
M  V30 45 1 17 46
M  V30 46 1 18 47
M  V30 47 1 18 48
M  V30 48 1 18 49
M  V30 49 1 19 50
M  V30 50 1 20 51
M  V30 51 1 20 52
M  V30 52 1 20 53
M  V30 END BOND
M  V30 BEGIN COLLECTION
M  V30 MDLV30/STEABS ATOMS=(5 2 5 8 15 16)
M  V30 END COLLECTION
M  V30 END CTAB
M  END
>  <Structure No>
3409

>  <LogS>
0.534

>  <MMFF94 Energy>
118.16

$$$$
Compound 3410
Actelion Java MolfileCreator 2.0

  0  0  0  0  0  0              0 V3000
M  V30 BEGIN CTAB
M  V30 COUNTS 26 25 0 0 0
M  V30 BEGIN ATOM
M  V30 1 N 0.3812 -0.0762 0.5337 0 CHG=1
M  V30 2 C 1.4461 -0.7875 -0.2197 0
M  V30 3 C -0.0938 1.15 -0.1672 0
M  V30 4 C -0.727 -1.0155 0.8412 0
M  V30 5 C 2.664 0.072 -0.4563 0
M  V30 6 C -0.663 0.8827 -1.5423 0
M  V30 7 C -1.6939 -0.4542 1.8564 0
M  V30 8 C 3.4686 0.4431 0.5433 0
M  V30 9 C -1.9795 0.8164 -1.7605 0
M  V30 10 C -2.8153 -1.1078 2.1685 0
M  V30 11 H 0.7953 0.226 1.4482 0
M  V30 12 H 1.7768 -1.6912 0.3405 0
M  V30 13 H 1.0604 -1.1465 -1.1987 0
M  V30 14 H -0.8415 1.6893 0.4543 0
M  V30 15 H 0.7443 1.871 -0.2791 0
M  V30 16 H -0.3204 -1.9578 1.2728 0
M  V30 17 H -1.2745 -1.2954 -0.0851 0
M  V30 18 H 2.9043 0.3761 -1.4707 0
M  V30 19 H 0.0178 0.7288 -2.3738 0
M  V30 20 H -1.4813 0.4857 2.3567 0
M  V30 21 H 4.3423 1.0531 0.3385 0
M  V30 22 H 3.2672 0.1398 1.566 0
M  V30 23 H -2.6893 0.955 -0.9505 0
M  V30 24 H -2.3545 0.616 -2.7587 0
M  V30 25 H -3.4979 -0.6953 2.9042 0
M  V30 26 H -3.0599 -2.0537 1.6948 0
M  V30 END ATOM
M  V30 BEGIN BOND
M  V30 1 1 1 2
M  V30 2 1 1 3
M  V30 3 1 1 4
M  V30 4 1 2 5
M  V30 5 1 3 6
M  V30 6 1 4 7
M  V30 7 2 5 8
M  V30 8 2 6 9
M  V30 9 2 7 10
M  V30 10 1 1 11
M  V30 11 1 2 12
M  V30 12 1 2 13
M  V30 13 1 3 14
M  V30 14 1 3 15
M  V30 15 1 4 16
M  V30 16 1 4 17
M  V30 17 1 5 18
M  V30 18 1 6 19
M  V30 19 1 7 20
M  V30 20 1 8 21
M  V30 21 1 8 22
M  V30 22 1 9 23
M  V30 23 1 9 24
M  V30 24 1 10 25
M  V30 25 1 10 26
M  V30 END BOND
M  V30 END CTAB
M  END
>  <Structure No>
3410

>  <LogS>
-1.7395

>  <MMFF94 Energy>
-23.911

$$$$
Compound 3411
Actelion Java MolfileCreator 2.0

  0  0  0  0  0  0              0 V3000
M  V30 BEGIN CTAB
M  V30 COUNTS 41 40 0 0 0
M  V30 BEGIN ATOM
M  V30 1 N -0.1541 -0.3084 0.1541 0 CHG=1
M  V30 2 C -0.2094 1.1047 -0.3095 0
M  V30 3 C 1.1212 -0.665 0.8341 0
M  V30 4 C -0.4429 -1.2443 -0.9698 0
M  V30 5 C -0.0947 2.122 0.8457 0
M  V30 6 C 2.3834 -0.4538 -0.0295 0
M  V30 7 C -1.9536 -1.4852 -1.1809 0
M  V30 8 C -0.3545 3.5662 0.3867 0
M  V30 9 C 3.6219 -1.0341 0.6635 0
M  V30 10 C -2.5272 -2.4991 -0.1791 0
M  V30 11 C -1.8401 3.865 0.1821 0
M  V30 12 C 4.8792 -0.8075 -0.171 0
M  V30 13 C -4.012 -2.7428 -0.4337 0
M  V30 14 H -0.9017 -0.4221 0.8781 0
M  V30 15 H -1.1768 1.2788 -0.8231 0
M  V30 16 H 0.5781 1.3094 -1.0664 0
M  V30 17 H 1.226 -0.0899 1.7796 0
M  V30 18 H 1.0767 -1.7303 1.1571 0
M  V30 19 H 0.0424 -2.2345 -0.8137 0
M  V30 20 H -0.015 -0.8519 -1.9204 0
M  V30 21 H 0.9367 2.0901 1.2549 0
M  V30 22 H -0.7955 1.8544 1.6664 0
M  V30 23 H 2.26 -0.9467 -1.0169 0
M  V30 24 H 2.5502 0.6322 -0.1904 0
M  V30 25 H -2.0993 -1.8849 -2.2084 0
M  V30 26 H -2.5162 -0.5305 -1.1137 0
M  V30 27 H 0.0298 4.2576 1.168 0
M  V30 28 H 0.203 3.7783 -0.5514 0
M  V30 29 H 3.7568 -0.551 1.656 0
M  V30 30 H 3.4875 -2.1269 0.8191 0
M  V30 31 H -2.4036 -2.1305 0.8607 0
M  V30 32 H -1.9861 -3.4658 -0.273 0
M  V30 33 H -2.4155 3.6242 1.1013 0
M  V30 34 H -1.9706 4.945 -0.0408 0
M  V30 35 H -2.2493 3.2867 -0.6711 0
M  V30 36 H 4.7793 -1.3013 -1.161 0
M  V30 37 H 5.0536 0.2796 -0.3189 0
M  V30 38 H 5.7569 -1.2395 0.3544 0
M  V30 39 H -4.1675 -3.1458 -1.4571 0
M  V30 40 H -4.3992 -3.4802 0.3007 0
M  V30 41 H -4.5828 -1.7963 -0.3211 0
M  V30 END ATOM
M  V30 BEGIN BOND
M  V30 1 1 1 2
M  V30 2 1 1 3
M  V30 3 1 1 4
M  V30 4 1 2 5
M  V30 5 1 3 6
M  V30 6 1 4 7
M  V30 7 1 5 8
M  V30 8 1 6 9
M  V30 9 1 7 10
M  V30 10 1 8 11
M  V30 11 1 9 12
M  V30 12 1 10 13
M  V30 13 1 1 14
M  V30 14 1 2 15
M  V30 15 1 2 16
M  V30 16 1 3 17
M  V30 17 1 3 18
M  V30 18 1 4 19
M  V30 19 1 4 20
M  V30 20 1 5 21
M  V30 21 1 5 22
M  V30 22 1 6 23
M  V30 23 1 6 24
M  V30 24 1 7 25
M  V30 25 1 7 26
M  V30 26 1 8 27
M  V30 27 1 8 28
M  V30 28 1 9 29
M  V30 29 1 9 30
M  V30 30 1 10 31
M  V30 31 1 10 32
M  V30 32 1 11 33
M  V30 33 1 11 34
M  V30 34 1 11 35
M  V30 35 1 12 36
M  V30 36 1 12 37
M  V30 37 1 12 38
M  V30 38 1 13 39
M  V30 39 1 13 40
M  V30 40 1 13 41
M  V30 END BOND
M  V30 END CTAB
M  END
>  <Structure No>
3411

>  <LogS>
-3.1157

>  <MMFF94 Energy>
6.1464

$$$$
Compound 3412
Actelion Java MolfileCreator 2.0

  0  0  0  0  0  0              0 V3000
M  V30 BEGIN CTAB
M  V30 COUNTS 21 21 0 0 0
M  V30 BEGIN ATOM
M  V30 1 N 1.8524 0.3085 0.0771 0 CHG=1
M  V30 2 C 0.9815 -0.6145 -0.6641 0
M  V30 3 C 3.2631 -0.0263 -0.1317 0
M  V30 4 C -0.4671 -0.2628 -0.4437 0
M  V30 5 C -1.1065 0.6656 -1.2821 0
M  V30 6 C -1.1734 -0.8138 0.6386 0
M  V30 7 C -2.441 1.0169 -1.0551 0
M  V30 8 C -2.5077 -0.4597 0.8621 0
M  V30 9 C -3.1418 0.4532 0.0146 0
M  V30 10 H 1.6882 1.2893 -0.2514 0
M  V30 11 H 1.6411 0.2475 1.101 0
M  V30 12 H 1.2117 -0.5682 -1.7527 0
M  V30 13 H 1.1623 -1.6622 -0.3324 0
M  V30 14 H 3.479 -1.0559 0.2291 0
M  V30 15 H 3.9038 0.6822 0.4363 0
M  V30 16 H 3.5291 0.0515 -1.2087 0
M  V30 17 H -0.5718 1.1169 -2.1086 0
M  V30 18 H -0.6908 -1.5148 1.3083 0
M  V30 19 H -2.9309 1.7292 -1.7065 0
M  V30 20 H -3.0493 -0.8903 1.6945 0
M  V30 21 H -4.1742 0.7272 0.1897 0
M  V30 END ATOM
M  V30 BEGIN BOND
M  V30 1 1 1 2
M  V30 2 1 1 3
M  V30 3 1 2 4
M  V30 4 2 4 5
M  V30 5 1 4 6
M  V30 6 1 5 7
M  V30 7 2 6 8
M  V30 8 2 7 9
M  V30 9 1 8 9
M  V30 10 1 1 10
M  V30 11 1 1 11
M  V30 12 1 2 12
M  V30 13 1 2 13
M  V30 14 1 3 14
M  V30 15 1 3 15
M  V30 16 1 3 16
M  V30 17 1 5 17
M  V30 18 1 6 18
M  V30 19 1 7 19
M  V30 20 1 8 20
M  V30 21 1 9 21
M  V30 END BOND
M  V30 END CTAB
M  END
>  <Structure No>
3412

>  <LogS>
0.9166

>  <MMFF94 Energy>
10.595

$$$$
Compound 3413
Actelion Java MolfileCreator 2.0

  0  0  0  0  0  0              0 V3000
M  V30 BEGIN CTAB
M  V30 COUNTS 22 22 0 0 0
M  V30 BEGIN ATOM
M  V30 1 O 2.4309 1.6462 -0.6269 0
M  V30 2 C 2.7829 0.5487 -0.1165 0
M  V30 3 N 1.8097 -0.3405 0.4525 0
M  V30 4 C 4.2369 0.221 -0.0172 0
M  V30 5 C 0.3904 -0.2173 0.2558 0
M  V30 6 C -0.4825 -0.6186 1.278 0
M  V30 7 C -0.146 0.2456 -0.959 0
M  V30 8 C -1.8668 -0.5294 1.1051 0
M  V30 9 C -1.5307 0.3338 -1.1322 0
M  V30 10 C -2.3997 -0.0631 -0.1053 0
M  V30 11 C -3.884 0.0684 -0.2774 0
M  V30 12 H 2.1519 -1.0721 1.1162 0
M  V30 13 H 4.6117 0.5051 0.9878 0
M  V30 14 H 4.3905 -0.8676 -0.1705 0
M  V30 15 H 4.8112 0.7736 -0.7907 0
M  V30 16 H -0.0878 -0.9885 2.2161 0
M  V30 17 H 0.4999 0.5179 -1.7826 0
M  V30 18 H -2.5225 -0.8263 1.9145 0
M  V30 19 H -1.9248 0.703 -2.071 0
M  V30 20 H -4.4178 -0.7023 0.3183 0
M  V30 21 H -4.1683 -0.0641 -1.3431 0
M  V30 22 H -4.2069 1.0752 0.0607 0
M  V30 END ATOM
M  V30 BEGIN BOND
M  V30 1 2 1 2
M  V30 2 1 2 3
M  V30 3 1 2 4
M  V30 4 1 3 5
M  V30 5 2 5 6
M  V30 6 1 5 7
M  V30 7 1 6 8
M  V30 8 2 7 9
M  V30 9 2 8 10
M  V30 10 1 10 11
M  V30 11 1 9 10
M  V30 12 1 3 12
M  V30 13 1 4 13
M  V30 14 1 4 14
M  V30 15 1 4 15
M  V30 16 1 6 16
M  V30 17 1 7 17
M  V30 18 1 8 18
M  V30 19 1 9 19
M  V30 20 1 11 20
M  V30 21 1 11 21
M  V30 22 1 11 22
M  V30 END BOND
M  V30 END CTAB
M  END
>  <Structure No>
3413

>  <LogS>
-2.0946

>  <MMFF94 Energy>
2.0391

$$$$
Compound 3414
Actelion Java MolfileCreator 2.0

  0  0  0  0  0  0              0 V3000
M  V30 BEGIN CTAB
M  V30 COUNTS 28 28 0 0 0
M  V30 BEGIN ATOM
M  V30 1 S 5.9815 0.4775 0.3183 0
M  V30 2 C 4.6339 -0.3981 -0.01 0
M  V30 3 N 3.3872 0.2514 -0.2841 0
M  V30 4 N 4.705 -1.8242 -0.0062 0
M  V30 5 N 3.3062 1.6539 -0.3593 0
M  V30 6 C 2.1942 2.3266 -0.434 0
M  V30 7 C 0.8519 1.7168 -0.3339 0
M  V30 8 C 0.5331 0.8217 0.7003 0
M  V30 9 C -0.1528 2.1204 -1.2236 0
M  V30 10 C -0.7563 0.2916 0.8036 0
M  V30 11 C -1.4426 1.5912 -1.1201 0
M  V30 12 C -1.7504 0.6549 -0.1222 0
M  V30 13 N -3.0907 0.1428 -0.025 0
M  V30 14 C -3.4175 -1.1773 0.4355 0
M  V30 15 O -2.5228 -2.0574 0.5538 0
M  V30 16 C -4.8437 -1.5458 0.6844 0
M  V30 17 H 2.5619 -0.3441 -0.5177 0
M  V30 18 H 5.6049 -2.3138 0.1962 0
M  V30 19 H 3.8553 -2.397 -0.2055 0
M  V30 20 H 2.2534 3.3955 -0.5922 0
M  V30 21 H 1.2754 0.5498 1.4407 0
M  V30 22 H 0.0639 2.8398 -2.004 0
M  V30 23 H -0.9815 -0.3738 1.626 0
M  V30 24 H -2.2032 1.9062 -1.8236 0
M  V30 25 H -3.8713 0.736 -0.3883 0
M  V30 26 H -5.3771 -0.695 1.1584 0
M  V30 27 H -5.3348 -1.7938 -0.2792 0
M  V30 28 H -4.9035 -2.4242 1.3614 0
M  V30 END ATOM
M  V30 BEGIN BOND
M  V30 1 2 1 2
M  V30 2 1 2 3
M  V30 3 1 2 4
M  V30 4 1 3 5
M  V30 5 2 5 6
M  V30 6 1 6 7
M  V30 7 2 7 8
M  V30 8 1 7 9
M  V30 9 1 8 10
M  V30 10 2 9 11
M  V30 11 2 10 12
M  V30 12 1 12 13
M  V30 13 1 13 14
M  V30 14 2 14 15
M  V30 15 1 14 16
M  V30 16 1 11 12
M  V30 17 1 3 17
M  V30 18 1 4 18
M  V30 19 1 4 19
M  V30 20 1 6 20
M  V30 21 1 8 21
M  V30 22 1 9 22
M  V30 23 1 10 23
M  V30 24 1 11 24
M  V30 25 1 13 25
M  V30 26 1 16 26
M  V30 27 1 16 27
M  V30 28 1 16 28
M  V30 END BOND
M  V30 END CTAB
M  END
>  <Structure No>
3414

>  <LogS>
-3.429

>  <MMFF94 Energy>
4.5394

$$$$
Compound 3415
Actelion Java MolfileCreator 2.0

  0  0  0  0  0  0              0 V3000
M  V30 BEGIN CTAB
M  V30 COUNTS 18 18 0 0 0
M  V30 BEGIN ATOM
M  V30 1 S 3.0885 0.1667 -0.0833 0
M  V30 2 O 3.6794 -0.7402 0.9591 0
M  V30 3 O 3.5459 1.5729 0.1849 0
M  V30 4 O 3.6137 -0.3121 -1.6048 0 CHG=-1
M  V30 5 C 1.3314 0.0871 -0.0183 0
M  V30 6 C 0.561 1.1972 -0.3899 0
M  V30 7 C 0.6934 -1.096 0.3775 0
M  V30 8 C -0.8348 1.1308 -0.3496 0
M  V30 9 C -0.7025 -1.1635 0.4182 0
M  V30 10 C -1.4752 -0.0448 0.0709 0
M  V30 11 C -2.9727 -0.1295 0.0758 0
M  V30 12 H 1.0394 2.1119 -0.7162 0
M  V30 13 H 1.2749 -1.9676 0.6492 0
M  V30 14 H -1.4159 1.9951 -0.647 0
M  V30 15 H -1.1802 -2.0876 0.7193 0
M  V30 16 H -3.3224 -0.8371 0.8575 0
M  V30 17 H -3.3257 -0.4817 -0.9156 0
M  V30 18 H -3.4207 0.8645 0.2879 0
M  V30 END ATOM
M  V30 BEGIN BOND
M  V30 1 2 1 2
M  V30 2 2 1 3
M  V30 3 1 1 4
M  V30 4 1 1 5
M  V30 5 2 5 6
M  V30 6 1 5 7
M  V30 7 1 6 8
M  V30 8 2 7 9
M  V30 9 2 8 10
M  V30 10 1 10 11
M  V30 11 1 9 10
M  V30 12 1 6 12
M  V30 13 1 7 13
M  V30 14 1 8 14
M  V30 15 1 9 15
M  V30 16 1 11 16
M  V30 17 1 11 17
M  V30 18 1 11 18
M  V30 END BOND
M  V30 END CTAB
M  END
>  <Structure No>
3415

>  <LogS>
0.5564

>  <MMFF94 Energy>
49.99

$$$$
Compound 3416
Actelion Java MolfileCreator 2.0

  0  0  0  0  0  0              0 V3000
M  V30 BEGIN CTAB
M  V30 COUNTS 36 36 0 0 0
M  V30 BEGIN ATOM
M  V30 1 O 2.4425 -1.0237 -1.3388 0
M  V30 2 C 1.5634 -0.8955 -0.4442 0
M  V30 3 O 1.8976 -1.042 0.9086 0
M  V30 4 C 0.1779 -0.6 -0.8417 0
M  V30 5 C 3.2303 -1.2427 1.3775 0
M  V30 6 C -0.8051 -0.4707 0.0595 0
M  V30 7 C 3.958 0.0947 1.5396 0
M  V30 8 C -2.217 -0.1827 -0.2957 0
M  V30 9 O 4.0939 0.7555 0.2948 0
M  V30 10 C -2.5853 0.417 -1.5161 0
M  V30 11 C -3.2209 -0.4881 0.6375 0
M  V30 12 C 5.3185 0.4253 -0.3341 0
M  V30 13 C -3.9292 0.6784 -1.7989 0
M  V30 14 C -4.5642 -0.2265 0.3522 0
M  V30 15 C 6.3871 1.4568 0.0108 0
M  V30 16 C -4.9283 0.3587 -0.874 0
M  V30 17 O -6.2614 0.6401 -1.2079 0
M  V30 18 C -7.3758 0.3693 -0.3638 0
M  V30 19 H -0.027 -0.5135 -1.8997 0
M  V30 20 H 3.7893 -1.9242 0.7005 0
M  V30 21 H 3.1772 -1.7326 2.3725 0
M  V30 22 H -0.5783 -0.6223 1.1086 0
M  V30 23 H 4.931 -0.0617 2.0613 0
M  V30 24 H 3.3513 0.7423 2.2077 0
M  V30 25 H -1.8441 0.7093 -2.2465 0
M  V30 26 H -2.9654 -0.9391 1.5888 0
M  V30 27 H 5.1566 0.4494 -1.4323 0
M  V30 28 H 5.6813 -0.6007 -0.0915 0
M  V30 29 H -4.1959 1.1399 -2.7415 0
M  V30 30 H -5.3104 -0.4821 1.0921 0
M  V30 31 H 6.6023 1.4416 1.0996 0
M  V30 32 H 7.3222 1.2253 -0.5411 0
M  V30 33 H 6.0414 2.4722 -0.2772 0
M  V30 34 H -7.2809 0.9349 0.5872 0
M  V30 35 H -7.4419 -0.7195 -0.1563 0
M  V30 36 H -8.3056 0.6903 -0.8766 0
M  V30 END ATOM
M  V30 BEGIN BOND
M  V30 1 2 1 2
M  V30 2 1 2 3
M  V30 3 1 2 4
M  V30 4 1 3 5
M  V30 5 2 4 6
M  V30 6 1 5 7
M  V30 7 1 6 8
M  V30 8 1 7 9
M  V30 9 2 8 10
M  V30 10 1 8 11
M  V30 11 1 9 12
M  V30 12 1 10 13
M  V30 13 2 11 14
M  V30 14 1 12 15
M  V30 15 2 13 16
M  V30 16 1 16 17
M  V30 17 1 17 18
M  V30 18 1 14 16
M  V30 19 1 4 19
M  V30 20 1 5 20
M  V30 21 1 5 21
M  V30 22 1 6 22
M  V30 23 1 7 23
M  V30 24 1 7 24
M  V30 25 1 10 25
M  V30 26 1 11 26
M  V30 27 1 12 27
M  V30 28 1 12 28
M  V30 29 1 13 29
M  V30 30 1 14 30
M  V30 31 1 15 31
M  V30 32 1 15 32
M  V30 33 1 15 33
M  V30 34 1 18 34
M  V30 35 1 18 35
M  V30 36 1 18 36
M  V30 END BOND
M  V30 END CTAB
M  END
>  <Structure No>
3416

>  <LogS>
-2.6995

>  <MMFF94 Energy>
29.502

$$$$
Compound 3417
Actelion Java MolfileCreator 2.0

  0  0  0  0  0  0              0 V3000
M  V30 BEGIN CTAB
M  V30 COUNTS 24 24 0 0 0
M  V30 BEGIN ATOM
M  V30 1 Cl 5.6974 -1.1214 0.2402 0
M  V30 2 C 4.0248 -0.5924 0.245 0
M  V30 3 C 3.0315 -1.4051 -0.31 0
M  V30 4 C 3.6826 0.6428 0.804 0
M  V30 5 C 1.6974 -0.9851 -0.3072 0
M  V30 6 C 2.3495 1.0649 0.808 0
M  V30 7 C 1.3468 0.2585 0.2548 0
M  V30 8 O 0.0246 0.726 0.2831 0
M  V30 9 C -1.094 0.0125 -0.2381 0
M  V30 10 C -2.3727 0.8388 -0.0303 0 CFG=2
M  V30 11 O -2.5781 1.1263 1.3311 0
M  V30 12 C -3.6081 0.1527 -0.6384 0
M  V30 13 O -3.8276 -1.1078 -0.0619 0
M  V30 14 H 3.2916 -2.3622 -0.744 0
M  V30 15 H 4.4473 1.2761 1.2353 0
M  V30 16 H 0.9491 -1.6327 -0.7431 0
M  V30 17 H 2.0935 2.0228 1.2431 0
M  V30 18 H -0.9435 -0.1643 -1.3256 0
M  V30 19 H -1.185 -0.9667 0.2809 0
M  V30 20 H -2.2372 1.8066 -0.5606 0
M  V30 21 H -2.59 0.2658 1.8258 0
M  V30 22 H -3.4527 0.0195 -1.7303 0
M  V30 23 H -4.502 0.8064 -0.5115 0
M  V30 24 H -4.3883 -0.9625 0.7442 0
M  V30 END ATOM
M  V30 BEGIN BOND
M  V30 1 1 1 2
M  V30 2 2 2 3
M  V30 3 1 2 4
M  V30 4 1 3 5
M  V30 5 2 4 6
M  V30 6 2 5 7
M  V30 7 1 7 8
M  V30 8 1 8 9
M  V30 9 1 9 10
M  V30 10 1 10 11
M  V30 11 1 10 12
M  V30 12 1 12 13
M  V30 13 1 6 7
M  V30 14 1 3 14
M  V30 15 1 4 15
M  V30 16 1 5 16
M  V30 17 1 6 17
M  V30 18 1 9 18
M  V30 19 1 9 19
M  V30 20 1 10 20
M  V30 21 1 11 21
M  V30 22 1 12 22
M  V30 23 1 12 23
M  V30 24 1 13 24
M  V30 END BOND
M  V30 BEGIN COLLECTION
M  V30 MDLV30/STEABS ATOMS=(1 10)
M  V30 END COLLECTION
M  V30 END CTAB
M  END
>  <Structure No>
3417

>  <LogS>
-1.3067

>  <MMFF94 Energy>
52.763

$$$$
Compound 3418
Actelion Java MolfileCreator 2.0

  0  0  0  0  0  0              0 V3000
M  V30 BEGIN CTAB
M  V30 COUNTS 42 42 0 0 0
M  V30 BEGIN ATOM
M  V30 1 C 4.381 -0.1562 -0.703 0
M  V30 2 C 4.5388 1.1636 -0.2465 0
M  V30 3 C 4.99 -1.2062 0.0043 0
M  V30 4 C 3.5359 -0.4491 -1.9167 0
M  V30 5 C 5.3029 1.4274 0.8944 0
M  V30 6 C 5.7537 -0.9378 1.1446 0
M  V30 7 C 2.1386 -0.9597 -1.5359 0
M  V30 8 C 5.9108 0.378 1.5888 0
M  V30 9 C 1.2886 0.1215 -0.8522 0
M  V30 10 C -0.1272 -0.3919 -0.564 0
M  V30 11 C -0.9755 0.6913 0.1196 0
M  V30 12 C -2.3601 0.179 0.5488 0
M  V30 13 C -3.3119 -0.0203 -0.6435 0
M  V30 14 C -4.6978 -0.5276 -0.2134 0
M  V30 15 C -5.5437 0.5605 0.4645 0
M  V30 16 C -6.955 0.0575 0.7546 0
M  V30 17 H 4.0666 1.9858 -0.77 0
M  V30 18 H 4.8709 -2.2305 -0.3264 0
M  V30 19 H 4.0438 -1.2246 -2.5307 0
M  V30 20 H 3.444 0.4545 -2.5588 0
M  V30 21 H 5.4216 2.4457 1.2418 0
M  V30 22 H 6.2219 -1.7501 1.6853 0
M  V30 23 H 1.626 -1.2893 -2.4659 0
M  V30 24 H 2.2316 -1.8448 -0.8688 0
M  V30 25 H 6.5011 0.5839 2.4723 0
M  V30 26 H 1.2284 1.0156 -1.5113 0
M  V30 27 H 1.7678 0.4189 0.1055 0
M  V30 28 H -0.0648 -1.2849 0.096 0
M  V30 29 H -0.6014 -0.6909 -1.5226 0
M  V30 30 H -1.0898 1.5669 -0.5565 0
M  V30 31 H -0.4424 1.039 1.0318 0
M  V30 32 H -2.7938 0.9322 1.2395 0
M  V30 33 H -2.2516 -0.7727 1.1134 0
M  V30 34 H -2.8801 -0.7761 -1.3322 0
M  V30 35 H -3.4179 0.9306 -1.2103 0
M  V30 36 H -4.5862 -1.4005 0.4667 0
M  V30 37 H -5.2317 -0.8779 -1.1242 0
M  V30 38 H -5.6106 1.4526 -0.1956 0
M  V30 39 H -5.078 0.8657 1.4248 0
M  V30 40 H -6.9189 -0.8257 1.4275 0
M  V30 41 H -7.468 -0.2214 -0.1902 0
M  V30 42 H -7.5408 0.8591 1.2522 0
M  V30 END ATOM
M  V30 BEGIN BOND
M  V30 1 2 1 2
M  V30 2 1 1 3
M  V30 3 1 1 4
M  V30 4 1 2 5
M  V30 5 2 3 6
M  V30 6 1 4 7
M  V30 7 2 5 8
M  V30 8 1 7 9
M  V30 9 1 9 10
M  V30 10 1 10 11
M  V30 11 1 11 12
M  V30 12 1 12 13
M  V30 13 1 13 14
M  V30 14 1 14 15
M  V30 15 1 15 16
M  V30 16 1 6 8
M  V30 17 1 2 17
M  V30 18 1 3 18
M  V30 19 1 4 19
M  V30 20 1 4 20
M  V30 21 1 5 21
M  V30 22 1 6 22
M  V30 23 1 7 23
M  V30 24 1 7 24
M  V30 25 1 8 25
M  V30 26 1 9 26
M  V30 27 1 9 27
M  V30 28 1 10 28
M  V30 29 1 10 29
M  V30 30 1 11 30
M  V30 31 1 11 31
M  V30 32 1 12 32
M  V30 33 1 12 33
M  V30 34 1 13 34
M  V30 35 1 13 35
M  V30 36 1 14 36
M  V30 37 1 14 37
M  V30 38 1 15 38
M  V30 39 1 15 39
M  V30 40 1 16 40
M  V30 41 1 16 41
M  V30 42 1 16 42
M  V30 END BOND
M  V30 END CTAB
M  END
>  <Structure No>
3418

>  <LogS>
-7.959

>  <MMFF94 Energy>
18.449

$$$$
Compound 3419
Actelion Java MolfileCreator 2.0

  0  0  0  0  0  0              0 V3000
M  V30 BEGIN CTAB
M  V30 COUNTS 21 21 0 0 0
M  V30 BEGIN ATOM
M  V30 1 O -0.0784 -1.0198 0.3921 0
M  V30 2 C 0.966 -0.0739 0.4697 0 CFG=2
M  V30 3 C -1.0755 -0.4913 -0.4562 0 CFG=2
M  V30 4 C 0.745 0.996 -0.5916 0
M  V30 5 C 2.316 -0.7784 0.3134 0
M  V30 6 C -0.7368 0.956 -0.7902 0
M  V30 7 C -2.4583 -0.6441 0.1892 0
M  V30 8 O 3.3584 0.1469 0.4539 0
M  V30 9 O -2.4681 -0.1013 1.4842 0
M  V30 10 H 0.9267 0.4013 1.4759 0
M  V30 11 H -1.0682 -1.0796 -1.401 0
M  V30 12 H 1.2533 0.7318 -1.5461 0
M  V30 13 H 1.0877 1.9964 -0.2477 0
M  V30 14 H 2.3735 -1.2692 -0.6842 0
M  V30 15 H 2.4077 -1.562 1.0983 0
M  V30 16 H -1.2215 1.6675 -0.0863 0
M  V30 17 H -1.0185 1.2155 -1.834 0
M  V30 18 H -2.6984 -1.7259 0.2639 0
M  V30 19 H -3.2379 -0.1762 -0.4569 0
M  V30 20 H 4.1994 -0.3665 0.3366 0
M  V30 21 H -2.8696 0.8039 1.4191 0
M  V30 END ATOM
M  V30 BEGIN BOND
M  V30 1 1 1 2
M  V30 2 1 1 3
M  V30 3 1 2 4
M  V30 4 1 2 5
M  V30 5 1 3 6
M  V30 6 1 3 7
M  V30 7 1 5 8
M  V30 8 1 7 9
M  V30 9 1 4 6
M  V30 10 1 2 10
M  V30 11 1 3 11
M  V30 12 1 4 12
M  V30 13 1 4 13
M  V30 14 1 5 14
M  V30 15 1 5 15
M  V30 16 1 6 16
M  V30 17 1 6 17
M  V30 18 1 7 18
M  V30 19 1 7 19
M  V30 20 1 8 20
M  V30 21 1 9 21
M  V30 END BOND
M  V30 BEGIN COLLECTION
M  V30 MDLV30/STEABS ATOMS=(2 2 3)
M  V30 END COLLECTION
M  V30 END CTAB
M  END
>  <Structure No>
3419

>  <LogS>
0.8789

>  <MMFF94 Energy>
45.899

$$$$
Compound 3420
Actelion Java MolfileCreator 2.0

  0  0  0  0  0  0              0 V3000
M  V30 BEGIN CTAB
M  V30 COUNTS 17 16 0 0 0
M  V30 BEGIN ATOM
M  V30 1 O 0.6902 2.1486 0.1533 0
M  V30 2 C 0.8054 1.1284 -0.8025 0 CFG=1
M  V30 3 C 2.0627 0.4008 -0.5808 0
M  V30 4 C -0.4048 0.1769 -0.742 0
M  V30 5 C 3.0941 -0.1963 -0.3992 0
M  V30 6 C -0.6256 -0.4307 0.6536 0
M  V30 7 C -1.8399 -1.3547 0.6642 0
M  V30 8 H -0.0177 2.7648 -0.171 0
M  V30 9 H 0.8571 1.5751 -1.8215 0
M  V30 10 H -1.3142 0.7452 -1.0377 0
M  V30 11 H -0.2658 -0.6388 -1.4861 0
M  V30 12 H 3.9992 -0.7207 -0.2394 0
M  V30 13 H 0.268 -1.0159 0.9598 0
M  V30 14 H -0.7881 0.3787 1.3976 0
M  V30 15 H -2.7567 -0.7906 0.3894 0
M  V30 16 H -1.9758 -1.7786 1.6816 0
M  V30 17 H -1.6946 -2.191 -0.0523 0
M  V30 END ATOM
M  V30 BEGIN BOND
M  V30 1 1 1 2
M  V30 2 1 2 3
M  V30 3 1 2 4
M  V30 4 3 3 5
M  V30 5 1 4 6
M  V30 6 1 6 7
M  V30 7 1 1 8
M  V30 8 1 2 9
M  V30 9 1 4 10
M  V30 10 1 4 11
M  V30 11 1 5 12
M  V30 12 1 6 13
M  V30 13 1 6 14
M  V30 14 1 7 15
M  V30 15 1 7 16
M  V30 16 1 7 17
M  V30 END BOND
M  V30 BEGIN COLLECTION
M  V30 MDLV30/STEABS ATOMS=(1 2)
M  V30 END COLLECTION
M  V30 END CTAB
M  END
>  <Structure No>
3420

>  <LogS>
-0.4121

>  <MMFF94 Energy>
-0.16412

$$$$
Compound 3421
Actelion Java MolfileCreator 2.0

  0  0  0  0  0  0              0 V3000
M  V30 BEGIN CTAB
M  V30 COUNTS 14 13 0 0 0
M  V30 BEGIN ATOM
M  V30 1 Cl 2.7252 1.0413 1.2016 0
M  V30 2 C 2.453 -0.1663 -0.076 0
M  V30 3 C 1.0433 -0.0766 -0.5543 0
M  V30 4 O 0.7591 0.6761 -1.5256 0
M  V30 5 O 0.0458 -0.801 0.1076 0
M  V30 6 C -1.3382 -0.7162 -0.2258 0
M  V30 7 C -1.9404 0.5801 0.3035 0
M  V30 8 H 2.6472 -1.1799 0.3325 0
M  V30 9 H 3.1565 0.0215 -0.9145 0
M  V30 10 H -1.8677 -1.5722 0.2427 0
M  V30 11 H -1.477 -0.7856 -1.3266 0
M  V30 12 H -3.0286 0.6032 0.0844 0
M  V30 13 H -1.793 0.6451 1.4023 0
M  V30 14 H -1.461 1.4563 -0.1803 0
M  V30 END ATOM
M  V30 BEGIN BOND
M  V30 1 1 1 2
M  V30 2 1 2 3
M  V30 3 2 3 4
M  V30 4 1 3 5
M  V30 5 1 5 6
M  V30 6 1 6 7
M  V30 7 1 2 8
M  V30 8 1 2 9
M  V30 9 1 6 10
M  V30 10 1 6 11
M  V30 11 1 7 12
M  V30 12 1 7 13
M  V30 13 1 7 14
M  V30 END BOND
M  V30 END CTAB
M  END
>  <Structure No>
3421

>  <LogS>
-0.8005

>  <MMFF94 Energy>
12.569

$$$$
Compound 3422
Actelion Java MolfileCreator 2.0

  0  0  0  0  0  0              0 V3000
M  V30 BEGIN CTAB
M  V30 COUNTS 16 15 0 0 0
M  V30 BEGIN ATOM
M  V30 1 O 1.0904 0.1557 1.4021 0
M  V30 2 C 0.6932 -0.475 0.3842 0
M  V30 3 O 1.5782 -0.7886 -0.6511 0
M  V30 4 C -0.7477 -0.8511 0.2602 0
M  V30 5 C 2.9564 -0.439 -0.6125 0
M  V30 6 C -1.5196 0.2664 -0.3852 0
M  V30 7 O -1.3529 0.5051 -1.5717 0
M  V30 8 C -2.4922 1.0978 0.3979 0
M  V30 9 H -1.1551 -1.0837 1.2676 0
M  V30 10 H -0.8432 -1.7698 -0.3571 0
M  V30 11 H 3.067 0.664 -0.5455 0
M  V30 12 H 3.446 -0.9192 0.2611 0
M  V30 13 H 3.4487 -0.7941 -1.5408 0
M  V30 14 H -2.5267 0.7857 1.4626 0
M  V30 15 H -2.1882 2.1646 0.3526 0
M  V30 16 H -3.5075 0.9909 -0.0382 0
M  V30 END ATOM
M  V30 BEGIN BOND
M  V30 1 2 1 2
M  V30 2 1 2 3
M  V30 3 1 2 4
M  V30 4 1 3 5
M  V30 5 1 4 6
M  V30 6 2 6 7
M  V30 7 1 6 8
M  V30 8 1 4 9
M  V30 9 1 4 10
M  V30 10 1 5 11
M  V30 11 1 5 12
M  V30 12 1 5 13
M  V30 13 1 8 14
M  V30 14 1 8 15
M  V30 15 1 8 16
M  V30 END BOND
M  V30 END CTAB
M  END
>  <Structure No>
3422

>  <LogS>
0.6341

>  <MMFF94 Energy>
-21.057

$$$$
Compound 3423
Actelion Java MolfileCreator 2.0

  0  0  0  0  0  0              0 V3000
M  V30 BEGIN CTAB
M  V30 COUNTS 20 19 0 0 0
M  V30 BEGIN ATOM
M  V30 1 O 1.5476 -0.5414 -1.5476 0
M  V30 2 C 1.659 0.1608 -0.5061 0
M  V30 3 O 0.7279 0.0589 0.5345 0
M  V30 4 C 2.828 1.0732 -0.3552 0
M  V30 5 C -0.4422 -0.761 0.4829 0 CFG=2
M  V30 6 C -1.6575 0.0602 0.0128 0
M  V30 7 C -0.6985 -1.3239 1.8804 0
M  V30 8 C -1.5251 0.5258 -1.4353 0
M  V30 9 H 3.7012 0.4974 0.0152 0
M  V30 10 H 3.0802 1.5346 -1.3333 0
M  V30 11 H 2.5884 1.8793 0.3695 0
M  V30 12 H -0.2864 -1.627 -0.1988 0
M  V30 13 H -1.7879 0.9491 0.6682 0
M  V30 14 H -2.5756 -0.5625 0.0916 0
M  V30 15 H -1.5855 -1.9931 1.8721 0
M  V30 16 H -0.8703 -0.5002 2.6063 0
M  V30 17 H 0.1817 -1.9136 2.2139 0
M  V30 18 H -0.6989 1.26 -1.535 0
M  V30 19 H -2.4673 1.0212 -1.7517 0
M  V30 20 H -1.3386 -0.3393 -2.1063 0
M  V30 END ATOM
M  V30 BEGIN BOND
M  V30 1 2 1 2
M  V30 2 1 2 3
M  V30 3 1 2 4
M  V30 4 1 3 5
M  V30 5 1 5 6
M  V30 6 1 5 7
M  V30 7 1 6 8
M  V30 8 1 4 9
M  V30 9 1 4 10
M  V30 10 1 4 11
M  V30 11 1 5 12
M  V30 12 1 6 13
M  V30 13 1 6 14
M  V30 14 1 7 15
M  V30 15 1 7 16
M  V30 16 1 7 17
M  V30 17 1 8 18
M  V30 18 1 8 19
M  V30 19 1 8 20
M  V30 END BOND
M  V30 BEGIN COLLECTION
M  V30 MDLV30/STEABS ATOMS=(1 5)
M  V30 END COLLECTION
M  V30 END CTAB
M  END
>  <Structure No>
3423

>  <LogS>
-1.2727

>  <MMFF94 Energy>
-8.293

$$$$
Compound 3424
Actelion Java MolfileCreator 2.0

  0  0  0  0  0  0              0 V3000
M  V30 BEGIN CTAB
M  V30 COUNTS 32 31 0 0 0
M  V30 BEGIN ATOM
M  V30 1 O 3.0548 -1.0174 -2.2708 0
M  V30 2 C 2.472 -1.4193 -1.2267 0
M  V30 3 O 1.0914 -1.6342 -1.2175 0
M  V30 4 C 3.2536 -1.62 0.032 0
M  V30 5 C 0.2713 -1.412 -2.36 0
M  V30 6 C 3.1562 -0.3783 0.9224 0
M  V30 7 C -1.1863 -1.6966 -2.0092 0
M  V30 8 C 3.9399 -0.5665 2.2179 0
M  V30 9 O -1.6039 -0.9057 -0.8977 0
M  V30 10 C -1.8691 0.4655 -0.9833 0
M  V30 11 O -1.8356 1.0618 -2.0942 0
M  V30 12 C -2.2482 1.218 0.2518 0
M  V30 13 C -3.7555 1.1153 0.4986 0
M  V30 14 C -4.1597 1.8723 1.7602 0
M  V30 15 H 4.3177 -1.8243 -0.2183 0
M  V30 16 H 2.8472 -2.5031 0.5708 0
M  V30 17 H 0.3779 -0.3595 -2.7 0
M  V30 18 H 0.5878 -2.0873 -3.184 0
M  V30 19 H 2.091 -0.178 1.1724 0
M  V30 20 H 3.5625 0.5039 0.3807 0
M  V30 21 H -1.2877 -2.7687 -1.7382 0
M  V30 22 H -1.8387 -1.502 -2.888 0
M  V30 23 H 3.8513 0.3475 2.8419 0
M  V30 24 H 5.014 -0.7433 1.9969 0
M  V30 25 H 3.5362 -1.4283 2.7911 0
M  V30 26 H -1.6944 0.7931 1.1169 0
M  V30 27 H -1.9539 2.2847 0.1413 0
M  V30 28 H -4.3071 1.5404 -0.3684 0
M  V30 29 H -4.0453 0.0476 0.6114 0
M  V30 30 H -3.9037 2.9489 1.663 0
M  V30 31 H -5.2556 1.7807 1.9137 0
M  V30 32 H -3.6405 1.45 2.6468 0
M  V30 END ATOM
M  V30 BEGIN BOND
M  V30 1 2 1 2
M  V30 2 1 2 3
M  V30 3 1 2 4
M  V30 4 1 3 5
M  V30 5 1 4 6
M  V30 6 1 5 7
M  V30 7 1 6 8
M  V30 8 1 7 9
M  V30 9 1 9 10
M  V30 10 2 10 11
M  V30 11 1 10 12
M  V30 12 1 12 13
M  V30 13 1 13 14
M  V30 14 1 4 15
M  V30 15 1 4 16
M  V30 16 1 5 17
M  V30 17 1 5 18
M  V30 18 1 6 19
M  V30 19 1 6 20
M  V30 20 1 7 21
M  V30 21 1 7 22
M  V30 22 1 8 23
M  V30 23 1 8 24
M  V30 24 1 8 25
M  V30 25 1 12 26
M  V30 26 1 12 27
M  V30 27 1 13 28
M  V30 28 1 13 29
M  V30 29 1 14 30
M  V30 30 1 14 31
M  V30 31 1 14 32
M  V30 END BOND
M  V30 END CTAB
M  END
>  <Structure No>
3424

>  <LogS>
-2.6069

>  <MMFF94 Energy>
-15.592

$$$$
Compound 3425
Actelion Java MolfileCreator 2.0

  0  0  0  0  0  0              0 V3000
M  V30 BEGIN CTAB
M  V30 COUNTS 40 39 0 0 0
M  V30 BEGIN ATOM
M  V30 1 O 3.3771 1.0985 -0.7845 0
M  V30 2 C 3.0077 0.0133 -0.2579 0
M  V30 3 O 3.9223 -0.8034 0.4167 0
M  V30 4 C 1.5658 -0.381 -0.3041 0
M  V30 5 C 5.3175 -0.5187 0.4961 0
M  V30 6 C 0.8223 0.1707 0.9192 0
M  V30 7 C 6.0094 -0.8418 -0.83 0
M  V30 8 C -0.6334 -0.3155 0.9952 0
M  V30 9 O 7.4098 -0.6816 -0.7035 0
M  V30 10 C -1.5261 0.3243 -0.0758 0
M  V30 11 C 7.8018 0.5951 -1.1581 0
M  V30 12 C -2.952 -0.0785 0.1269 0
M  V30 13 O -3.3928 -1.1216 -0.429 0
M  V30 14 O -3.7666 0.6801 0.9752 0
M  V30 15 C -5.1415 0.3846 1.2127 0
M  V30 16 C -5.9976 0.8065 0.0165 0
M  V30 17 O -7.3709 0.6317 0.3109 0
M  V30 18 C -7.8265 -0.6075 -0.1859 0
M  V30 19 H 1.4963 -1.49 -0.3214 0
M  V30 20 H 1.1146 0.0111 -1.24 0
M  V30 21 H 5.4749 0.5453 0.7753 0
M  V30 22 H 5.7594 -1.1508 1.2952 0
M  V30 23 H 1.3458 -0.1696 1.8401 0
M  V30 24 H 0.8485 1.2829 0.909 0
M  V30 25 H 5.5654 -0.2431 -1.6604 0
M  V30 26 H 5.8097 -1.9068 -1.0738 0
M  V30 27 H -0.6662 -1.4237 0.9037 0
M  V30 28 H -1.0318 -0.0487 1.9994 0
M  V30 29 H -1.4533 1.4319 -0.0177 0
M  V30 30 H -1.2021 0.0064 -1.0894 0
M  V30 31 H 7.645 0.6882 -2.2554 0
M  V30 32 H 7.2623 1.4055 -0.6194 0
M  V30 33 H 8.8857 0.724 -0.9608 0
M  V30 34 H -5.2679 -0.6984 1.4271 0
M  V30 35 H -5.4724 0.9513 2.1089 0
M  V30 36 H -5.6689 0.2754 -0.908 0
M  V30 37 H -5.8247 1.888 -0.1682 0
M  V30 38 H -8.8766 -0.7552 0.1398 0
M  V30 39 H -7.8139 -0.6149 -1.2982 0
M  V30 40 H -7.2271 -1.4548 0.2142 0
M  V30 END ATOM
M  V30 BEGIN BOND
M  V30 1 2 1 2
M  V30 2 1 2 3
M  V30 3 1 2 4
M  V30 4 1 3 5
M  V30 5 1 4 6
M  V30 6 1 5 7
M  V30 7 1 6 8
M  V30 8 1 7 9
M  V30 9 1 8 10
M  V30 10 1 9 11
M  V30 11 1 10 12
M  V30 12 2 12 13
M  V30 13 1 12 14
M  V30 14 1 14 15
M  V30 15 1 15 16
M  V30 16 1 16 17
M  V30 17 1 17 18
M  V30 18 1 4 19
M  V30 19 1 4 20
M  V30 20 1 5 21
M  V30 21 1 5 22
M  V30 22 1 6 23
M  V30 23 1 6 24
M  V30 24 1 7 25
M  V30 25 1 7 26
M  V30 26 1 8 27
M  V30 27 1 8 28
M  V30 28 1 10 29
M  V30 29 1 10 30
M  V30 30 1 11 31
M  V30 31 1 11 32
M  V30 32 1 11 33
M  V30 33 1 15 34
M  V30 34 1 15 35
M  V30 35 1 16 36
M  V30 36 1 16 37
M  V30 37 1 18 38
M  V30 38 1 18 39
M  V30 39 1 18 40
M  V30 END BOND
M  V30 END CTAB
M  END
>  <Structure No>
3425

>  <LogS>
-1.2665

>  <MMFF94 Energy>
17.512

$$$$
Compound 3426
Actelion Java MolfileCreator 2.0

  0  0  0  0  0  0              0 V3000
M  V30 BEGIN CTAB
M  V30 COUNTS 29 28 0 0 0
M  V30 BEGIN ATOM
M  V30 1 O -2.7193 -1.7863 1.32 0
M  V30 2 C -2.3314 -1.2847 0.2297 0
M  V30 3 O -3.1731 -0.452 -0.5161 0
M  V30 4 C -0.9408 -1.5454 -0.254 0
M  V30 5 C -4.4785 -0.0695 -0.088 0
M  V30 6 C 0.0054 -0.4411 0.2251 0
M  V30 7 C -4.3964 0.9956 0.9992 0
M  V30 8 C 1.4352 -0.6888 -0.2691 0
M  V30 9 C 2.3828 0.417 0.2101 0
M  V30 10 C 3.8124 0.1688 -0.2844 0
M  V30 11 C 4.7586 1.2677 0.1906 0
M  V30 12 H -0.5948 -2.532 0.1247 0
M  V30 13 H -0.9462 -1.5821 -1.3649 0
M  V30 14 H -5.0267 0.3503 -0.9574 0
M  V30 15 H -5.0414 -0.9548 0.2799 0
M  V30 16 H 2.0E-4 -0.4096 1.3374 0
M  V30 17 H -0.3516 0.5409 -0.1575 0
M  V30 18 H -3.8912 0.591 1.9008 0
M  V30 19 H -5.4198 1.3221 1.2802 0
M  V30 20 H -3.8277 1.8737 0.6267 0
M  V30 21 H 1.7919 -1.6703 0.114 0
M  V30 22 H 1.4396 -0.7204 -1.381 0
M  V30 23 H 2.0263 1.3987 -0.173 0
M  V30 24 H 2.3787 0.4488 1.3221 0
M  V30 25 H 3.8248 0.1395 -1.3958 0
M  V30 26 H 4.1769 -0.8094 0.0979 0
M  V30 27 H 4.4304 2.2548 -0.1995 0
M  V30 28 H 5.784 1.0617 -0.1819 0
M  V30 29 H 4.784 1.3017 1.3006 0
M  V30 END ATOM
M  V30 BEGIN BOND
M  V30 1 2 1 2
M  V30 2 1 2 3
M  V30 3 1 2 4
M  V30 4 1 3 5
M  V30 5 1 4 6
M  V30 6 1 5 7
M  V30 7 1 6 8
M  V30 8 1 8 9
M  V30 9 1 9 10
M  V30 10 1 10 11
M  V30 11 1 4 12
M  V30 12 1 4 13
M  V30 13 1 5 14
M  V30 14 1 5 15
M  V30 15 1 6 16
M  V30 16 1 6 17
M  V30 17 1 7 18
M  V30 18 1 7 19
M  V30 19 1 7 20
M  V30 20 1 8 21
M  V30 21 1 8 22
M  V30 22 1 9 23
M  V30 23 1 9 24
M  V30 24 1 10 25
M  V30 25 1 10 26
M  V30 26 1 11 27
M  V30 27 1 11 28
M  V30 28 1 11 29
M  V30 END BOND
M  V30 END CTAB
M  END
>  <Structure No>
3426

>  <LogS>
-2.7369

>  <MMFF94 Energy>
-9.5111

$$$$
Compound 3427
Actelion Java MolfileCreator 2.0

  0  0  0  0  0  0              0 V3000
M  V30 BEGIN CTAB
M  V30 COUNTS 32 31 0 0 0
M  V30 BEGIN ATOM
M  V30 1 O 2.8009 -1.6331 1.1663 0
M  V30 2 C 1.935 -0.7821 0.8241 0
M  V30 3 O 2.1151 0.0039 -0.3195 0
M  V30 4 C 0.6748 -0.6435 1.6206 0
M  V30 5 C 3.2819 -0.0544 -1.1367 0
M  V30 6 C -0.349 -1.7345 1.2694 0
M  V30 7 C 4.4455 0.6663 -0.466 0
M  V30 8 C -0.7935 -1.7453 -0.2077 0
M  V30 9 C -1.4349 -0.4364 -0.7025 0
M  V30 10 C -2.71 -0.0657 0.074 0
M  V30 11 C -3.4881 1.0825 -0.5864 0
M  V30 12 C -2.7554 2.4209 -0.4942 0
M  V30 13 H 0.2383 0.3655 1.4672 0
M  V30 14 H 0.9241 -0.724 2.7008 0
M  V30 15 H 3.5529 -1.1112 -1.3502 0
M  V30 16 H 3.0615 0.4464 -2.1029 0
M  V30 17 H -1.2373 -1.6212 1.9262 0
M  V30 18 H 0.0925 -2.7268 1.508 0
M  V30 19 H 4.7191 0.1609 0.4834 0
M  V30 20 H 4.1652 1.7192 -0.2507 0
M  V30 21 H 5.3275 0.6593 -1.1405 0
M  V30 22 H -1.5195 -2.5755 -0.3492 0
M  V30 23 H 0.0819 -1.9773 -0.8515 0
M  V30 24 H -1.6923 -0.573 -1.7755 0
M  V30 25 H -0.6957 0.3885 -0.6479 0
M  V30 26 H -3.3781 -0.9533 0.1182 0
M  V30 27 H -2.4539 0.2202 1.1169 0
M  V30 28 H -3.6938 0.8429 -1.6523 0
M  V30 29 H -4.4676 1.1852 -0.0708 0
M  V30 30 H -1.8295 2.4046 -1.1057 0
M  V30 31 H -2.498 2.6514 0.5614 0
M  V30 32 H -3.4116 3.2282 -0.8822 0
M  V30 END ATOM
M  V30 BEGIN BOND
M  V30 1 2 1 2
M  V30 2 1 2 3
M  V30 3 1 2 4
M  V30 4 1 3 5
M  V30 5 1 4 6
M  V30 6 1 5 7
M  V30 7 1 6 8
M  V30 8 1 8 9
M  V30 9 1 9 10
M  V30 10 1 10 11
M  V30 11 1 11 12
M  V30 12 1 4 13
M  V30 13 1 4 14
M  V30 14 1 5 15
M  V30 15 1 5 16
M  V30 16 1 6 17
M  V30 17 1 6 18
M  V30 18 1 7 19
M  V30 19 1 7 20
M  V30 20 1 7 21
M  V30 21 1 8 22
M  V30 22 1 8 23
M  V30 23 1 9 24
M  V30 24 1 9 25
M  V30 25 1 10 26
M  V30 26 1 10 27
M  V30 27 1 11 28
M  V30 28 1 11 29
M  V30 29 1 12 30
M  V30 30 1 12 31
M  V30 31 1 12 32
M  V30 END BOND
M  V30 END CTAB
M  END
>  <Structure No>
3427

>  <LogS>
-3.3907

>  <MMFF94 Energy>
-12.577

$$$$
Compound 3428
Actelion Java MolfileCreator 2.0

  0  0  0  0  0  0              0 V3000
M  V30 BEGIN CTAB
M  V30 COUNTS 14 14 0 0 0
M  V30 BEGIN ATOM
M  V30 1 O -2.7443 -0.2349 0.2349 0
M  V30 2 C -1.3687 -0.0568 0.1062 0
M  V30 3 C -0.8729 1.1426 -0.4175 0
M  V30 4 C -0.4771 -1.0667 0.4959 0
M  V30 5 C 0.506 1.334 -0.552 0
M  V30 6 C 0.9018 -0.8754 0.3613 0
M  V30 7 C 1.397 0.3271 -0.1635 0
M  V30 8 O 2.7681 0.5302 -0.3027 0
M  V30 9 H -3.1344 -1.0916 0.6105 0
M  V30 10 H -1.5563 1.926 -0.72 0
M  V30 11 H -0.8512 -1.998 0.9021 0
M  V30 12 H 0.8824 2.2645 -0.9579 0
M  V30 13 H 1.5832 -1.6601 0.6647 0
M  V30 14 H 3.4386 -0.1792 -0.0306 0
M  V30 END ATOM
M  V30 BEGIN BOND
M  V30 1 1 1 2
M  V30 2 2 2 3
M  V30 3 1 2 4
M  V30 4 1 3 5
M  V30 5 2 4 6
M  V30 6 2 5 7
M  V30 7 1 7 8
M  V30 8 1 6 7
M  V30 9 1 1 9
M  V30 10 1 3 10
M  V30 11 1 4 11
M  V30 12 1 5 12
M  V30 13 1 6 13
M  V30 14 1 8 14
M  V30 END BOND
M  V30 END CTAB
M  END
>  <Structure No>
3428

>  <LogS>
-1.7305

>  <MMFF94 Energy>
-6.2708

$$$$
Compound 3429
Actelion Java MolfileCreator 2.0

  0  0  0  0  0  0              0 V3000
M  V30 BEGIN CTAB
M  V30 COUNTS 22 21 0 0 0
M  V30 BEGIN ATOM
M  V30 1 O 0.9261 -2.6259 -0.3086 0
M  V30 2 C 1.1746 -1.4296 -0.2989 0
M  V30 3 C 0.1337 -0.4823 -0.85 0
M  V30 4 C 2.5036 -0.9886 0.2794 0
M  V30 5 C -0.9794 -0.2517 0.1771 0
M  V30 6 C 2.7109 0.5233 0.3632 0
M  V30 7 C -2.0412 0.7104 -0.3675 0
M  V30 8 C -3.1522 0.9405 0.6528 0
M  V30 9 H 0.5791 0.4887 -1.1445 0
M  V30 10 H -0.2986 -0.9261 -1.7735 0
M  V30 11 H 3.3209 -1.4266 -0.3325 0
M  V30 12 H 2.5903 -1.4052 1.3063 0
M  V30 13 H -1.4579 -1.2246 0.4266 0
M  V30 14 H -0.54 0.1732 1.1067 0
M  V30 15 H 1.887 1.0009 0.9347 0
M  V30 16 H 3.6662 0.734 0.8888 0
M  V30 17 H 2.7764 0.9644 -0.6536 0
M  V30 18 H -1.5711 1.6879 -0.6128 0
M  V30 19 H -2.4867 0.2907 -1.2958 0
M  V30 20 H -2.7363 1.3838 1.5828 0
M  V30 21 H -3.6566 -0.0187 0.8971 0
M  V30 22 H -3.9048 1.64 0.2318 0
M  V30 END ATOM
M  V30 BEGIN BOND
M  V30 1 2 1 2
M  V30 2 1 2 3
M  V30 3 1 2 4
M  V30 4 1 3 5
M  V30 5 1 4 6
M  V30 6 1 5 7
M  V30 7 1 7 8
M  V30 8 1 3 9
M  V30 9 1 3 10
M  V30 10 1 4 11
M  V30 11 1 4 12
M  V30 12 1 5 13
M  V30 13 1 5 14
M  V30 14 1 6 15
M  V30 15 1 6 16
M  V30 16 1 6 17
M  V30 17 1 7 18
M  V30 18 1 7 19
M  V30 19 1 8 20
M  V30 20 1 8 21
M  V30 21 1 8 22
M  V30 END BOND
M  V30 END CTAB
M  END
>  <Structure No>
3429

>  <LogS>
-1.4242

>  <MMFF94 Energy>
-0.39562

$$$$
Compound 3430
Actelion Java MolfileCreator 2.0

  0  0  0  0  0  0              0 V3000
M  V30 BEGIN CTAB
M  V30 COUNTS 14 14 0 0 0
M  V30 BEGIN ATOM
M  V30 1 O 1.5936 -2.1519 -0.2389 0
M  V30 2 C 0.8405 -1.1556 -0.0754 0
M  V30 3 N -0.5759 -1.2958 -0.2361 0
M  V30 4 C 1.4237 0.1666 0.3256 0
M  V30 5 C -1.492 -0.2077 0.0989 0
M  V30 6 N 0.5674 1.2624 -0.1235 0
M  V30 7 C -0.8566 1.1212 -0.1827 0
M  V30 8 O -1.5777 2.1216 -0.4394 0
M  V30 9 H -0.9713 -2.2285 -0.4909 0
M  V30 10 H 2.4353 0.2835 -0.1189 0
M  V30 11 H 1.5129 0.2025 1.4316 0
M  V30 12 H -2.4242 -0.3143 -0.4963 0
M  V30 13 H -1.7485 -0.2649 1.1776 0
M  V30 14 H 0.9955 2.1994 -0.2971 0
M  V30 END ATOM
M  V30 BEGIN BOND
M  V30 1 2 1 2
M  V30 2 1 2 3
M  V30 3 1 2 4
M  V30 4 1 3 5
M  V30 5 1 4 6
M  V30 6 1 5 7
M  V30 7 2 7 8
M  V30 8 1 6 7
M  V30 9 1 3 9
M  V30 10 1 4 10
M  V30 11 1 4 11
M  V30 12 1 5 12
M  V30 13 1 5 13
M  V30 14 1 6 14
M  V30 END BOND
M  V30 END CTAB
M  END
>  <Structure No>
3430

>  <LogS>
-0.8312

>  <MMFF94 Energy>
49.192

$$$$
Compound 3431
Actelion Java MolfileCreator 2.0

  0  0  0  0  0  0              0 V3000
M  V30 BEGIN CTAB
M  V30 COUNTS 23 22 0 0 0
M  V30 BEGIN ATOM
M  V30 1 O 0.0 -0.3851 -0.3851 0
M  V30 2 C 1.3656 -0.1339 -0.0991 0 CFG=2
M  V30 3 C -0.7945 0.7458 -0.0874 0
M  V30 4 C 2.0997 0.2235 -1.4026 0
M  V30 5 C 1.9622 -1.3949 0.5285 0
M  V30 6 C -2.2429 0.4892 -0.5286 0 CFG=2
M  V30 7 O 3.4497 0.5137 -1.1559 0
M  V30 8 O -3.0132 1.6569 -0.3918 0
M  V30 9 C -2.8809 -0.6658 0.253 0
M  V30 10 H 1.5147 0.6946 0.6364 0
M  V30 11 H -0.7771 0.9532 1.0072 0
M  V30 12 H -0.4198 1.6423 -0.6323 0
M  V30 13 H 2.0406 -0.6287 -2.1131 0
M  V30 14 H 1.6086 1.0955 -1.8906 0
M  V30 15 H 1.8844 -2.2539 -0.172 0
M  V30 16 H 3.0296 -1.2341 0.7905 0
M  V30 17 H 1.4096 -1.6456 1.4589 0
M  V30 18 H -2.2343 0.2133 -1.6055 0
M  V30 19 H 3.4752 1.4163 -0.743 0
M  V30 20 H -3.0179 1.9029 0.5705 0
M  V30 21 H -2.3242 -1.6095 0.0717 0
M  V30 22 H -3.9304 -0.8095 -0.0804 0
M  V30 23 H -2.8791 -0.4493 1.3428 0
M  V30 END ATOM
M  V30 BEGIN BOND
M  V30 1 1 1 2
M  V30 2 1 1 3
M  V30 3 1 2 4
M  V30 4 1 2 5
M  V30 5 1 3 6
M  V30 6 1 4 7
M  V30 7 1 6 8
M  V30 8 1 6 9
M  V30 9 1 2 10
M  V30 10 1 3 11
M  V30 11 1 3 12
M  V30 12 1 4 13
M  V30 13 1 4 14
M  V30 14 1 5 15
M  V30 15 1 5 16
M  V30 16 1 5 17
M  V30 17 1 6 18
M  V30 18 1 7 19
M  V30 19 1 8 20
M  V30 20 1 9 21
M  V30 21 1 9 22
M  V30 22 1 9 23
M  V30 END BOND
M  V30 BEGIN COLLECTION
M  V30 MDLV30/STEABS ATOMS=(2 2 6)
M  V30 END COLLECTION
M  V30 END CTAB
M  END
>  <Structure No>
3431

>  <LogS>
0.8723

>  <MMFF94 Energy>
45.842

$$$$
Compound 3432
Actelion Java MolfileCreator 2.0

  0  0  0  0  0  0              0 V3000
M  V30 BEGIN CTAB
M  V30 COUNTS 25 24 0 0 0
M  V30 BEGIN ATOM
M  V30 1 O 1.8571 -2.1669 -0.1546 0
M  V30 2 C 2.0354 -0.977 0.0637 0
M  V30 3 C 0.8455 -0.0424 0.1679 0
M  V30 4 C 3.4612 -0.4955 0.2208 0
M  V30 5 C -0.5009 -0.7566 -0.0259 0
M  V30 6 C 3.6038 1.0026 0.4916 0
M  V30 7 C -1.6695 0.2297 0.0884 0
M  V30 8 C -3.0124 -0.4835 -0.105 0
M  V30 9 C -4.1779 0.4949 0.0081 0
M  V30 10 H 0.8547 0.4366 1.1704 0
M  V30 11 H 0.9448 0.7491 -0.6054 0
M  V30 12 H 4.0216 -0.7405 -0.7069 0
M  V30 13 H 3.9322 -1.0514 1.0599 0
M  V30 14 H -0.5221 -1.2347 -1.0302 0
M  V30 15 H -0.6123 -1.5476 0.7485 0
M  V30 16 H 3.0939 1.2789 1.4386 0
M  V30 17 H 3.1846 1.5937 -0.3495 0
M  V30 18 H 4.68 1.2569 0.591 0
M  V30 19 H -1.6493 0.7096 1.0919 0
M  V30 20 H -1.5592 1.0221 -0.6845 0
M  V30 21 H -3.1315 -1.2749 0.6669 0
M  V30 22 H -3.0415 -0.9626 -1.1079 0
M  V30 23 H -4.0967 1.2834 -0.77 0
M  V30 24 H -4.187 0.9699 1.0123 0
M  V30 25 H -5.1352 -0.0488 -0.136 0
M  V30 END ATOM
M  V30 BEGIN BOND
M  V30 1 2 1 2
M  V30 2 1 2 3
M  V30 3 1 2 4
M  V30 4 1 3 5
M  V30 5 1 4 6
M  V30 6 1 5 7
M  V30 7 1 7 8
M  V30 8 1 8 9
M  V30 9 1 3 10
M  V30 10 1 3 11
M  V30 11 1 4 12
M  V30 12 1 4 13
M  V30 13 1 5 14
M  V30 14 1 5 15
M  V30 15 1 6 16
M  V30 16 1 6 17
M  V30 17 1 6 18
M  V30 18 1 7 19
M  V30 19 1 7 20
M  V30 20 1 8 21
M  V30 21 1 8 22
M  V30 22 1 9 23
M  V30 23 1 9 24
M  V30 24 1 9 25
M  V30 END BOND
M  V30 END CTAB
M  END
>  <Structure No>
3432

>  <LogS>
-1.693

>  <MMFF94 Energy>
-0.45804

$$$$
Compound 3433
Actelion Java MolfileCreator 2.0

  0  0  0  0  0  0              0 V3000
M  V30 BEGIN CTAB
M  V30 COUNTS 38 37 0 0 0
M  V30 BEGIN ATOM
M  V30 1 O -5.5712 0.0 1.8021 0
M  V30 2 C -5.0744 -0.2868 0.6787 0
M  V30 3 O -5.8938 -0.4655 -0.4394 0
M  V30 4 C -3.5901 -0.391 0.5272 0
M  V30 5 C -7.3106 -0.3557 -0.3758 0
M  V30 6 C -3.0028 0.9567 0.0893 0
M  V30 7 C -1.4672 0.9413 0.0339 0
M  V30 8 C -0.9262 0.0689 -1.1124 0
M  V30 9 C 0.5814 0.2614 -1.3402 0
M  V30 10 C 1.4295 -0.3093 -0.194 0
M  V30 11 C 2.9252 -0.2152 -0.5185 0
M  V30 12 C 3.7728 -0.7734 0.6281 0
M  V30 13 C 5.2283 -0.6701 0.2999 0
M  V30 14 O 5.8101 -1.6287 -0.2776 0
M  V30 15 O 5.9184 0.5084 0.5978 0
M  V30 16 C 7.2955 0.6875 0.2908 0
M  V30 17 H -3.1408 -0.7057 1.4945 0
M  V30 18 H -3.3675 -1.1709 -0.2306 0
M  V30 19 H -7.719 -1.1092 0.3305 0
M  V30 20 H -7.7361 -0.5396 -1.3834 0
M  V30 21 H -7.5983 0.6645 -0.0442 0
M  V30 22 H -3.4133 1.2443 -0.9038 0
M  V30 23 H -3.3119 1.7372 0.8194 0
M  V30 24 H -1.0694 0.5853 1.0082 0
M  V30 25 H -1.1202 1.9877 -0.1119 0
M  V30 26 H -1.4513 0.3414 -2.054 0
M  V30 27 H -1.1319 -1.0036 -0.9084 0
M  V30 28 H 0.8068 1.342 -1.4766 0
M  V30 29 H 0.8541 -0.2603 -2.2837 0
M  V30 30 H 1.2283 0.2599 0.7386 0
M  V30 31 H 1.1569 -1.3746 -0.0265 0
M  V30 32 H 3.1974 0.8497 -0.6928 0
M  V30 33 H 3.1382 -0.791 -1.4464 0
M  V30 34 H 3.5089 -1.8381 0.8108 0
M  V30 35 H 3.5712 -0.2012 1.5597 0
M  V30 36 H 7.455 0.602 -0.8048 0
M  V30 37 H 7.9053 -0.0752 0.8199 0
M  V30 38 H 7.6148 1.6966 0.6229 0
M  V30 END ATOM
M  V30 BEGIN BOND
M  V30 1 2 1 2
M  V30 2 1 2 3
M  V30 3 1 2 4
M  V30 4 1 3 5
M  V30 5 1 4 6
M  V30 6 1 6 7
M  V30 7 1 7 8
M  V30 8 1 8 9
M  V30 9 1 9 10
M  V30 10 1 10 11
M  V30 11 1 11 12
M  V30 12 1 12 13
M  V30 13 2 13 14
M  V30 14 1 13 15
M  V30 15 1 15 16
M  V30 16 1 4 17
M  V30 17 1 4 18
M  V30 18 1 5 19
M  V30 19 1 5 20
M  V30 20 1 5 21
M  V30 21 1 6 22
M  V30 22 1 6 23
M  V30 23 1 7 24
M  V30 24 1 7 25
M  V30 25 1 8 26
M  V30 26 1 8 27
M  V30 27 1 9 28
M  V30 28 1 9 29
M  V30 29 1 10 30
M  V30 30 1 10 31
M  V30 31 1 11 32
M  V30 32 1 11 33
M  V30 33 1 12 34
M  V30 34 1 12 35
M  V30 35 1 16 36
M  V30 36 1 16 37
M  V30 37 1 16 38
M  V30 END BOND
M  V30 END CTAB
M  END
>  <Structure No>
3433

>  <LogS>
-3.2831

>  <MMFF94 Energy>
-16.387

$$$$
Compound 3434
Actelion Java MolfileCreator 2.0

  0  0  0  0  0  0              0 V3000
M  V30 BEGIN CTAB
M  V30 COUNTS 10 9 0 0 0
M  V30 BEGIN ATOM
M  V30 1 C 0.9761 -0.3753 0.3002 0
M  V30 2 C 1.9859 -0.1644 0.9243 0
M  V30 3 C -0.2523 -0.633 -0.4592 0
M  V30 4 C -1.029 0.6598 -0.6751 0
M  V30 5 H 2.8721 0.021 1.4723 0
M  V30 6 H 0.0143 -1.0762 -1.4418 0
M  V30 7 H -0.8811 -1.3563 0.1017 0
M  V30 8 H -1.3147 1.1073 0.3011 0
M  V30 9 H -1.954 0.4448 -1.2507 0
M  V30 10 H -0.4158 1.3885 -1.248 0
M  V30 END ATOM
M  V30 BEGIN BOND
M  V30 1 3 1 2
M  V30 2 1 1 3
M  V30 3 1 3 4
M  V30 4 1 2 5
M  V30 5 1 3 6
M  V30 6 1 3 7
M  V30 7 1 4 8
M  V30 8 1 4 9
M  V30 9 1 4 10
M  V30 END BOND
M  V30 END CTAB
M  END
>  <Structure No>
3434

>  <LogS>
-1.2753

>  <MMFF94 Energy>
0.55835

$$$$
Compound 3435
Actelion Java MolfileCreator 2.0

  0  0  0  0  0  0              0 V3000
M  V30 BEGIN CTAB
M  V30 COUNTS 12 11 0 0 0
M  V30 BEGIN ATOM
M  V30 1 S 2.1596 0.4796 -0.0799 0
M  V30 2 C 0.8787 -0.7803 0.2276 0
M  V30 3 C -0.4228 -0.4571 -0.513 0
M  V30 4 C -1.1572 0.7404 0.0879 0
M  V30 5 H 1.6598 1.3514 0.9059 0
M  V30 6 H 0.6961 -0.8761 1.3195 0
M  V30 7 H 1.2648 -1.7541 -0.1407 0
M  V30 8 H -0.2084 -0.2625 -1.5862 0
M  V30 9 H -1.0914 -1.3431 -0.4555 0
M  V30 10 H -1.3457 0.5771 1.1705 0
M  V30 11 H -2.1334 0.8701 -0.4248 0
M  V30 12 H -0.5676 1.6707 -0.0484 0
M  V30 END ATOM
M  V30 BEGIN BOND
M  V30 1 1 1 2
M  V30 2 1 2 3
M  V30 3 1 3 4
M  V30 4 1 1 5
M  V30 5 1 2 6
M  V30 6 1 2 7
M  V30 7 1 3 8
M  V30 8 1 3 9
M  V30 9 1 4 10
M  V30 10 1 4 11
M  V30 11 1 4 12
M  V30 END BOND
M  V30 END CTAB
M  END
>  <Structure No>
3435

>  <LogS>
-1.6021

>  <MMFF94 Energy>
-1.1118

$$$$
Compound 3436
Actelion Java MolfileCreator 2.0

  0  0  0  0  0  0              0 V3000
M  V30 BEGIN CTAB
M  V30 COUNTS 9 8 0 0 0
M  V30 BEGIN ATOM
M  V30 1 Cl 1.7363 -1.3415 -0.3944 0
M  V30 2 C 1.0122 0.2823 -0.2715 0
M  V30 3 C -0.2512 0.2328 0.5347 0
M  V30 4 C -1.342 -0.3954 0.0874 0
M  V30 5 H 1.7405 0.9572 0.2246 0
M  V30 6 H 0.8014 0.6749 -1.2889 0
M  V30 7 H -0.2872 0.7413 1.4938 0
M  V30 8 H -1.3408 -0.9002 -0.874 0
M  V30 9 H -2.247 -0.4055 0.6861 0
M  V30 END ATOM
M  V30 BEGIN BOND
M  V30 1 1 1 2
M  V30 2 1 2 3
M  V30 3 2 3 4
M  V30 4 1 2 5
M  V30 5 1 2 6
M  V30 6 1 3 7
M  V30 7 1 4 8
M  V30 8 1 4 9
M  V30 END BOND
M  V30 END CTAB
M  END
>  <Structure No>
3436

>  <LogS>
-1.3562

>  <MMFF94 Energy>
9.6726

$$$$
Compound 3437
Actelion Java MolfileCreator 2.0

  0  0  0  0  0  0              0 V3000
M  V30 BEGIN CTAB
M  V30 COUNTS 12 11 0 0 0
M  V30 BEGIN ATOM
M  V30 1 N -1.3959 0.2202 0.0 0 CHG=1
M  V30 2 C -0.1413 0.0856 0.7403 0
M  V30 3 C 0.8975 -0.6344 -0.0769 0
M  V30 4 C 1.4601 -0.0722 -1.1504 0
M  V30 5 H -1.2555 0.8176 -0.8467 0
M  V30 6 H -2.1085 0.6739 0.6163 0
M  V30 7 H -1.747 -0.7228 -0.2857 0
M  V30 8 H -0.3265 -0.4914 1.6727 0
M  V30 9 H 0.2381 1.0903 1.0305 0
M  V30 10 H 1.2173 -1.6254 0.2308 0
M  V30 11 H 1.1776 0.9253 -1.4725 0
M  V30 12 H 2.2156 -0.6115 -1.7122 0
M  V30 END ATOM
M  V30 BEGIN BOND
M  V30 1 1 1 2
M  V30 2 1 2 3
M  V30 3 2 3 4
M  V30 4 1 1 5
M  V30 5 1 1 6
M  V30 6 1 1 7
M  V30 7 1 2 8
M  V30 8 1 2 9
M  V30 9 1 3 10
M  V30 10 1 4 11
M  V30 11 1 4 12
M  V30 END BOND
M  V30 END CTAB
M  END
>  <Structure No>
3437

>  <LogS>
1.2434

>  <MMFF94 Energy>
-10.52

$$$$
Compound 3438
Actelion Java MolfileCreator 2.0

  0  0  0  0  0  0              0 V3000
M  V30 BEGIN CTAB
M  V30 COUNTS 13 12 0 0 0
M  V30 BEGIN ATOM
M  V30 1 N 1.4735 0.2945 -0.1472 0 CHG=1
M  V30 2 C 0.3802 0.6875 0.743 0
M  V30 3 C -0.658 -0.4319 0.8899 0
M  V30 4 N -1.3177 -0.6988 -0.3849 0
M  V30 5 H 2.176 1.068 -0.1857 0
M  V30 6 H 1.941 -0.568 0.215 0
M  V30 7 H 1.1108 0.1226 -1.1128 0
M  V30 8 H 0.7934 0.9256 1.748 0
M  V30 9 H -0.1112 1.6059 0.3516 0
M  V30 10 H -0.1578 -1.3573 1.2509 0
M  V30 11 H -1.4152 -0.132 1.6484 0
M  V30 12 H -1.9202 0.1235 -0.6199 0
M  V30 13 H -1.9634 -1.5094 -0.2451 0
M  V30 END ATOM
M  V30 BEGIN BOND
M  V30 1 1 1 2
M  V30 2 1 2 3
M  V30 3 1 3 4
M  V30 4 1 1 5
M  V30 5 1 1 6
M  V30 6 1 1 7
M  V30 7 1 2 8
M  V30 8 1 2 9
M  V30 9 1 3 10
M  V30 10 1 3 11
M  V30 11 1 4 12
M  V30 12 1 4 13
M  V30 END BOND
M  V30 END CTAB
M  END
>  <Structure No>
3438

>  <LogS>
1.2211

>  <MMFF94 Energy>
14.568

$$$$
Compound 3439
Actelion Java MolfileCreator 2.0

  0  0  0  0  0  0              0 V3000
M  V30 BEGIN CTAB
M  V30 COUNTS 10 9 0 0 0
M  V30 BEGIN ATOM
M  V30 1 O -1.4139 0.8184 0.3719 0
M  V30 2 C -0.8311 -0.3555 -0.1206 0
M  V30 3 C 0.6242 -0.3867 0.2376 0
M  V30 4 C 1.4804 0.5166 -0.2472 0
M  V30 5 H -2.3676 0.7869 0.0988 0
M  V30 6 H -1.3342 -1.2399 0.3292 0
M  V30 7 H -0.9424 -0.4043 -1.227 0
M  V30 8 H 0.9925 -1.1695 0.8942 0
M  V30 9 H 1.142 1.3056 -0.9124 0
M  V30 10 H 2.5306 0.4685 0.0213 0
M  V30 END ATOM
M  V30 BEGIN BOND
M  V30 1 1 1 2
M  V30 2 1 2 3
M  V30 3 2 3 4
M  V30 4 1 1 5
M  V30 5 1 2 6
M  V30 6 1 2 7
M  V30 7 1 3 8
M  V30 8 1 4 9
M  V30 9 1 4 10
M  V30 END BOND
M  V30 END CTAB
M  END
>  <Structure No>
3439

>  <LogS>
1.236

>  <MMFF94 Energy>
-0.80283

$$$$
Compound 3440
Actelion Java MolfileCreator 2.0

  0  0  0  0  0  0              0 V3000
M  V30 BEGIN CTAB
M  V30 COUNTS 10 9 0 0 0
M  V30 BEGIN ATOM
M  V30 1 O -1.7208 -0.3738 -0.2991 0
M  V30 2 C -0.5787 0.4316 -0.1946 0
M  V30 3 C 0.676 -0.4364 -0.1038 0
M  V30 4 O 1.8226 0.3685 -0.0678 0
M  V30 5 H -1.8991 -0.7326 0.6094 0
M  V30 6 H -0.5141 1.0746 -1.098 0
M  V30 7 H -0.6524 1.0956 0.6967 0
M  V30 8 H 0.6295 -1.086 0.7997 0
M  V30 9 H 0.7316 -1.0935 -0.9974 0
M  V30 10 H 1.8786 0.7418 0.8505 0
M  V30 END ATOM
M  V30 BEGIN BOND
M  V30 1 1 1 2
M  V30 2 1 2 3
M  V30 3 1 3 4
M  V30 4 1 1 5
M  V30 5 1 2 6
M  V30 6 1 2 7
M  V30 7 1 3 8
M  V30 8 1 3 9
M  V30 9 1 4 10
M  V30 END BOND
M  V30 END CTAB
M  END
>  <Structure No>
3440

>  <LogS>
1.2071

>  <MMFF94 Energy>
20.736

$$$$
Compound 3441
Actelion Java MolfileCreator 2.0

  0  0  0  0  0  0              0 V3000
M  V30 BEGIN CTAB
M  V30 COUNTS 6 5 0 0 0
M  V30 BEGIN ATOM
M  V30 1 O -1.4598 0.9217 0.0 0
M  V30 2 C -0.7098 -0.0886 -0.0109 0
M  V30 3 C 0.7418 0.0759 -0.0469 0
M  V30 4 O 1.4918 -0.9344 -0.0578 0
M  V30 5 H -1.1457 -1.0792 0.0066 0
M  V30 6 H 1.1776 1.0666 -0.0643 0
M  V30 END ATOM
M  V30 BEGIN BOND
M  V30 1 2 1 2
M  V30 2 1 2 3
M  V30 3 2 3 4
M  V30 4 1 2 5
M  V30 5 1 3 6
M  V30 END BOND
M  V30 END CTAB
M  END
>  <Structure No>
3441

>  <LogS>
1.2363

>  <MMFF94 Energy>
17.104

$$$$
Compound 3442
Actelion Java MolfileCreator 2.0

  0  0  0  0  0  0              0 V3000
M  V30 BEGIN CTAB
M  V30 COUNTS 14 13 0 0 0
M  V30 BEGIN ATOM
M  V30 1 S 1.5588 -0.7381 0.164 0
M  V30 2 O 0.9092 -2.0836 0.3238 0
M  V30 3 O 2.8202 -0.7023 0.9793 0
M  V30 4 O 1.9416 -0.4902 -1.4529 0 CHG=-1
M  V30 5 C 0.4534 0.545 0.74 0
M  V30 6 C -0.66 0.8607 -0.2692 0
M  V30 7 N -1.6057 -0.2473 -0.4133 0 CHG=1
M  V30 8 H 1.0509 1.4662 0.9063 0
M  V30 9 H 0.0148 0.2433 1.7149 0
M  V30 10 H -1.2088 1.7601 0.0879 0
M  V30 11 H -0.2183 1.1118 -1.2585 0
M  V30 12 H -1.1522 -1.0497 -0.9051 0
M  V30 13 H -1.9563 -0.5527 0.5233 0
M  V30 14 H -2.4185 0.0727 -0.9877 0
M  V30 END ATOM
M  V30 BEGIN BOND
M  V30 1 2 1 2
M  V30 2 2 1 3
M  V30 3 1 1 4
M  V30 4 1 1 5
M  V30 5 1 5 6
M  V30 6 1 6 7
M  V30 7 1 5 8
M  V30 8 1 5 9
M  V30 9 1 6 10
M  V30 10 1 6 11
M  V30 11 1 7 12
M  V30 12 1 7 13
M  V30 13 1 7 14
M  V30 END BOND
M  V30 END CTAB
M  END
>  <Structure No>
3442

>  <LogS>
-0.1906

>  <MMFF94 Energy>
-78.364

$$$$
Compound 3443
Actelion Java MolfileCreator 2.0

  0  0  0  0  0  0              0 V3000
M  V30 BEGIN CTAB
M  V30 COUNTS 12 11 0 0 0
M  V30 BEGIN ATOM
M  V30 1 S 1.6028 -0.0843 0.4216 0
M  V30 2 O 1.4216 -0.3143 1.8956 0
M  V30 3 O 2.6867 0.9338 0.208 0
M  V30 4 O 2.0433 -1.5264 -0.3189 0 CHG=-1
M  V30 5 C 0.0799 0.5176 -0.2881 0
M  V30 6 C -1.0434 -0.5034 -0.1125 0
M  V30 7 O -2.2237 -0.0304 -0.7019 0
M  V30 8 H 0.2402 0.7138 -1.3696 0
M  V30 9 H -0.1971 1.4709 0.2105 0
M  V30 10 H -1.2099 -0.7141 0.9686 0
M  V30 11 H -0.7594 -1.4552 -0.6093 0
M  V30 12 H -2.5963 0.6519 -0.0843 0
M  V30 END ATOM
M  V30 BEGIN BOND
M  V30 1 2 1 2
M  V30 2 2 1 3
M  V30 3 1 1 4
M  V30 4 1 1 5
M  V30 5 1 5 6
M  V30 6 1 6 7
M  V30 7 1 5 8
M  V30 8 1 5 9
M  V30 9 1 6 10
M  V30 10 1 6 11
M  V30 11 1 7 12
M  V30 END BOND
M  V30 END CTAB
M  END
>  <Structure No>
3443

>  <LogS>
0.8992

>  <MMFF94 Energy>
0.41713

$$$$
Compound 3444
Actelion Java MolfileCreator 2.0

  0  0  0  0  0  0              0 V3000
M  V30 BEGIN CTAB
M  V30 COUNTS 22 21 0 0 0
M  V30 BEGIN ATOM
M  V30 1 O 0.9237 1.6169 -0.4617 0
M  V30 2 C 1.0619 0.336 0.1057 0
M  V30 3 C -0.2823 -0.1359 0.736 0
M  V30 4 C 1.5259 -0.6307 -0.9979 0
M  V30 5 C 2.1451 0.3832 1.2026 0
M  V30 6 C -1.474 -0.2168 -0.2483 0 CFG=2
M  V30 7 O -1.7272 1.0251 -0.8556 0
M  V30 8 C -2.7351 -0.7219 0.4617 0
M  V30 9 H 0.6384 2.2405 0.257 0
M  V30 10 H -0.1315 -1.1411 1.1893 0
M  V30 11 H -0.5542 0.5521 1.5675 0
M  V30 12 H 0.8554 -0.5748 -1.8806 0
M  V30 13 H 2.5461 -0.3604 -1.346 0
M  V30 14 H 1.5462 -1.6769 -0.624 0
M  V30 15 H 3.1031 0.7616 0.7855 0
M  V30 16 H 2.3186 -0.6289 1.628 0
M  V30 17 H 1.8379 1.0616 2.0272 0
M  V30 18 H -1.2396 -0.9516 -1.0462 0
M  V30 19 H -1.9521 1.6706 -0.135 0
M  V30 20 H -2.5622 -1.7386 0.8744 0
M  V30 21 H -3.5777 -0.7746 -0.26 0
M  V30 22 H -3.0182 -0.0394 1.2915 0
M  V30 END ATOM
M  V30 BEGIN BOND
M  V30 1 1 1 2
M  V30 2 1 2 3
M  V30 3 1 2 4
M  V30 4 1 2 5
M  V30 5 1 3 6
M  V30 6 1 6 7
M  V30 7 1 6 8
M  V30 8 1 1 9
M  V30 9 1 3 10
M  V30 10 1 3 11
M  V30 11 1 4 12
M  V30 12 1 4 13
M  V30 13 1 4 14
M  V30 14 1 5 15
M  V30 15 1 5 16
M  V30 16 1 5 17
M  V30 17 1 6 18
M  V30 18 1 7 19
M  V30 19 1 8 20
M  V30 20 1 8 21
M  V30 21 1 8 22
M  V30 END BOND
M  V30 BEGIN COLLECTION
M  V30 MDLV30/STEABS ATOMS=(1 6)
M  V30 END COLLECTION
M  V30 END CTAB
M  END
>  <Structure No>
3444

>  <LogS>
0.9275

>  <MMFF94 Energy>
15.469

$$$$
Compound 3445
Actelion Java MolfileCreator 2.0

  0  0  0  0  0  0              0 V3000
M  V30 BEGIN CTAB
M  V30 COUNTS 13 12 0 0 0
M  V30 BEGIN ATOM
M  V30 1 Cl 3.5699 0.2609 -0.7828 0
M  V30 2 C 1.978 -0.5315 -0.6737 0
M  V30 3 Cl 1.4871 -1.0521 -2.3069 0
M  V30 4 Cl 2.1258 -1.9659 0.3751 0
M  V30 5 C 0.9547 0.4463 -0.0967 0
M  V30 6 O -0.3244 -0.1755 -0.004 0
M  V30 7 C -1.4508 0.4873 0.4901 0
M  V30 8 O -1.3746 1.6841 0.8798 0
M  V30 9 N -2.6981 -0.1985 0.5535 0
M  V30 10 H 1.282 0.7727 0.9148 0
M  V30 11 H 0.8847 1.3411 -0.7535 0
M  V30 12 H -3.5494 0.2823 0.9202 0
M  V30 13 H -2.7685 -1.1892 0.2328 0
M  V30 END ATOM
M  V30 BEGIN BOND
M  V30 1 1 1 2
M  V30 2 1 2 3
M  V30 3 1 2 4
M  V30 4 1 2 5
M  V30 5 1 5 6
M  V30 6 1 6 7
M  V30 7 2 7 8
M  V30 8 1 7 9
M  V30 9 1 5 10
M  V30 10 1 5 11
M  V30 11 1 9 12
M  V30 12 1 9 13
M  V30 END BOND
M  V30 END CTAB
M  END
>  <Structure No>
3445

>  <LogS>
-1.2843

>  <MMFF94 Energy>
-53.591

$$$$
Compound 3446
Actelion Java MolfileCreator 2.0

  0  0  0  0  0  0              0 V3000
M  V30 BEGIN CTAB
M  V30 COUNTS 23 22 0 0 0
M  V30 BEGIN ATOM
M  V30 1 O 1.706 -0.31 1.9388 0
M  V30 2 C 1.7114 -0.0509 0.7451 0
M  V30 3 C 0.5459 0.6948 0.1355 0
M  V30 4 C 2.8948 -0.4569 -0.0825 0
M  V30 5 C -0.7406 -0.1753 -0.0506 0
M  V30 6 O -1.7454 0.5056 -0.8041 0
M  V30 7 C -1.3117 -0.6456 1.3096 0
M  V30 8 C -0.3903 -1.4284 -0.8782 0
M  V30 9 C -2.0786 1.788 -0.3072 0
M  V30 10 H 0.8426 1.1074 -0.853 0
M  V30 11 H 0.3341 1.5659 0.792 0
M  V30 12 H 3.8072 0.0442 0.3025 0
M  V30 13 H 2.7568 -0.1794 -1.1483 0
M  V30 14 H 3.0304 -1.5568 -0.0201 0
M  V30 15 H -2.3359 -1.0542 1.1736 0
M  V30 16 H -1.3553 0.1852 2.0437 0
M  V30 17 H -0.6815 -1.4438 1.7563 0
M  V30 18 H 0.3284 -2.0878 -0.3466 0
M  V30 19 H 0.0546 -1.1337 -1.853 0
M  V30 20 H -1.3081 -2.0206 -1.0843 0
M  V30 21 H -3.0319 2.1052 -0.7772 0
M  V30 22 H -2.2404 1.8036 0.7893 0
M  V30 23 H -1.31 2.5331 -0.6014 0
M  V30 END ATOM
M  V30 BEGIN BOND
M  V30 1 2 1 2
M  V30 2 1 2 3
M  V30 3 1 2 4
M  V30 4 1 3 5
M  V30 5 1 5 6
M  V30 6 1 5 7
M  V30 7 1 5 8
M  V30 8 1 6 9
M  V30 9 1 3 10
M  V30 10 1 3 11
M  V30 11 1 4 12
M  V30 12 1 4 13
M  V30 13 1 4 14
M  V30 14 1 7 15
M  V30 15 1 7 16
M  V30 16 1 7 17
M  V30 17 1 8 18
M  V30 18 1 8 19
M  V30 19 1 8 20
M  V30 20 1 9 21
M  V30 21 1 9 22
M  V30 22 1 9 23
M  V30 END BOND
M  V30 END CTAB
M  END
>  <Structure No>
3446

>  <LogS>
0.3326

>  <MMFF94 Energy>
15.69

$$$$
Compound 3447
Actelion Java MolfileCreator 2.0

  0  0  0  0  0  0              0 V3000
M  V30 BEGIN CTAB
M  V30 COUNTS 16 15 0 0 0
M  V30 BEGIN ATOM
M  V30 1 O -1.7549 -1.5258 0.1525 0
M  V30 2 C -0.7406 -0.6036 0.4632 0 CFG=1
M  V30 3 C 0.3762 -0.6694 -0.6023 0
M  V30 4 C -1.34 0.8011 0.6136 0
M  V30 5 C 1.648 0.0897 -0.2052 0
M  V30 6 O 1.4749 1.4657 -0.401 0
M  V30 7 H -2.1422 -1.2614 -0.7233 0
M  V30 8 H -0.3135 -0.9015 1.4456 0
M  V30 9 H 0.0022 -0.2917 -1.5794 0
M  V30 10 H 0.6499 -1.7377 -0.7462 0
M  V30 11 H -0.6037 1.4931 1.0718 0
M  V30 12 H -1.6574 1.2006 -0.3732 0
M  V30 13 H -2.2263 0.7603 1.2819 0
M  V30 14 H 2.4869 -0.2641 -0.8452 0
M  V30 15 H 1.9078 -0.12 0.8566 0
M  V30 16 H 2.3214 1.8941 -0.1098 0
M  V30 END ATOM
M  V30 BEGIN BOND
M  V30 1 1 1 2
M  V30 2 1 2 3
M  V30 3 1 2 4
M  V30 4 1 3 5
M  V30 5 1 5 6
M  V30 6 1 1 7
M  V30 7 1 2 8
M  V30 8 1 3 9
M  V30 9 1 3 10
M  V30 10 1 4 11
M  V30 11 1 4 12
M  V30 12 1 4 13
M  V30 13 1 5 14
M  V30 14 1 5 15
M  V30 15 1 6 16
M  V30 END BOND
M  V30 BEGIN COLLECTION
M  V30 MDLV30/STEABS ATOMS=(1 2)
M  V30 END COLLECTION
M  V30 END CTAB
M  END
>  <Structure No>
3447

>  <LogS>
1.0452

>  <MMFF94 Energy>
2.6037

$$$$
Compound 3448
Actelion Java MolfileCreator 2.0

  0  0  0  0  0  0              0 V3000
M  V30 BEGIN CTAB
M  V30 COUNTS 14 13 0 0 0
M  V30 BEGIN ATOM
M  V30 1 O 2.072 0.8437 1.0739 0
M  V30 2 C 1.7705 -0.1499 0.4323 0
M  V30 3 C 0.8859 -0.0402 -0.7777 0
M  V30 4 C -0.5548 0.3759 -0.4324 0 CFG=2
M  V30 5 O -0.553 1.6324 0.1952 0
M  V30 6 C -1.2503 -0.6601 0.459 0
M  V30 7 H 2.1607 -1.1176 0.7302 0
M  V30 8 H 0.8685 -1.0207 -1.3013 0
M  V30 9 H 1.3256 0.7021 -1.4785 0
M  V30 10 H -1.1189 0.4423 -1.392 0
M  V30 11 H -1.4794 1.9852 0.1351 0
M  V30 12 H -1.2267 -1.6607 -0.0227 0
M  V30 13 H -2.3117 -0.3714 0.613 0
M  V30 14 H -0.7548 -0.7214 1.4512 0
M  V30 END ATOM
M  V30 BEGIN BOND
M  V30 1 2 1 2
M  V30 2 1 2 3
M  V30 3 1 3 4
M  V30 4 1 4 5
M  V30 5 1 4 6
M  V30 6 1 2 7
M  V30 7 1 3 8
M  V30 8 1 3 9
M  V30 9 1 4 10
M  V30 10 1 5 11
M  V30 11 1 6 12
M  V30 12 1 6 13
M  V30 13 1 6 14
M  V30 END BOND
M  V30 BEGIN COLLECTION
M  V30 MDLV30/STEABS ATOMS=(1 4)
M  V30 END COLLECTION
M  V30 END CTAB
M  END
>  <Structure No>
3448

>  <LogS>
1.055

>  <MMFF94 Energy>
-0.35655

$$$$
Compound 3449
Actelion Java MolfileCreator 2.0

  0  0  0  0  0  0              0 V3000
M  V30 BEGIN CTAB
M  V30 COUNTS 10 9 0 0 0
M  V30 BEGIN ATOM
M  V30 1 O 1.0038 -1.2356 -1.1583 0
M  V30 2 C 0.6362 -0.3334 -0.3592 0
M  V30 3 N 1.4319 -0.0369 0.7883 0
M  V30 4 C -0.651 0.391 -0.5954 0
M  V30 5 C -1.7261 -0.2417 0.173 0
M  V30 6 N -2.5756 -0.7409 0.7802 0
M  V30 7 H 2.3242 -0.5517 0.9582 0
M  V30 8 H 1.1302 0.6929 1.4714 0
M  V30 9 H -0.5521 1.4514 -0.2818 0
M  V30 10 H -0.9116 0.3664 -1.6748 0
M  V30 END ATOM
M  V30 BEGIN BOND
M  V30 1 2 1 2
M  V30 2 1 2 3
M  V30 3 1 2 4
M  V30 4 1 4 5
M  V30 5 3 5 6
M  V30 6 1 3 7
M  V30 7 1 3 8
M  V30 8 1 4 9
M  V30 9 1 4 10
M  V30 END BOND
M  V30 END CTAB
M  END
>  <Structure No>
3449

>  <LogS>
0.1893

>  <MMFF94 Energy>
-19.929

$$$$
Compound 3450
Actelion Java MolfileCreator 2.0

  0  0  0  0  0  0              0 V3000
M  V30 BEGIN CTAB
M  V30 COUNTS 13 12 0 0 0
M  V30 BEGIN ATOM
M  V30 1 O 1.9528 0.7807 1.7183 0
M  V30 2 C 1.6446 0.2665 0.6112 0
M  V30 3 O 2.2591 0.7154 -0.5509 0 CHG=-1
M  V30 4 C 0.5935 -0.7985 0.5417 0
M  V30 5 C -0.8204 -0.2085 0.6183 0
M  V30 6 C -1.1805 0.6028 -0.6258 0
M  V30 7 H 0.712 -1.3834 -0.3959 0
M  V30 8 H 0.7378 -1.4993 1.3922 0
M  V30 9 H -1.5479 -1.043 0.7168 0
M  V30 10 H -0.9175 0.4326 1.5216 0
M  V30 11 H -0.5175 1.4884 -0.7194 0
M  V30 12 H -1.0874 -0.0249 -1.5372 0
M  V30 13 H -2.2296 0.9574 -0.5455 0
M  V30 END ATOM
M  V30 BEGIN BOND
M  V30 1 2 1 2
M  V30 2 1 2 3
M  V30 3 1 2 4
M  V30 4 1 4 5
M  V30 5 1 5 6
M  V30 6 1 4 7
M  V30 7 1 4 8
M  V30 8 1 5 9
M  V30 9 1 5 10
M  V30 10 1 6 11
M  V30 11 1 6 12
M  V30 12 1 6 13
M  V30 END BOND
M  V30 END CTAB
M  END
>  <Structure No>
3450

>  <LogS>
-0.1669

>  <MMFF94 Energy>
1.6805

$$$$
Compound 3451
Actelion Java MolfileCreator 2.0

  0  0  0  0  0  0              0 V3000
M  V30 BEGIN CTAB
M  V30 COUNTS 13 12 0 0 0
M  V30 BEGIN ATOM
M  V30 1 O 2.7661 -0.307 0.4605 0
M  V30 2 C 1.9858 0.1144 -0.433 0
M  V30 3 O 2.422 1.0845 -1.3263 0 CHG=-1
M  V30 4 C 0.5754 -0.3853 -0.4989 0
M  V30 5 N -0.3024 0.4439 0.3378 0 CHG=1
M  V30 6 C -1.685 -0.0363 0.2747 0
M  V30 7 H 0.5493 -1.4438 -0.1547 0
M  V30 8 H 0.2365 -0.3565 -1.5585 0
M  V30 9 H -0.2762 1.4357 0.0026 0
M  V30 10 H 0.0202 0.4067 1.3334 0
M  V30 11 H -1.754 -1.0822 0.6466 0
M  V30 12 H -2.3325 0.6027 0.9131 0
M  V30 13 H -2.0692 0.0114 -0.7678 0
M  V30 END ATOM
M  V30 BEGIN BOND
M  V30 1 2 1 2
M  V30 2 1 2 3
M  V30 3 1 2 4
M  V30 4 1 4 5
M  V30 5 1 5 6
M  V30 6 1 4 7
M  V30 7 1 4 8
M  V30 8 1 5 9
M  V30 9 1 5 10
M  V30 10 1 6 11
M  V30 11 1 6 12
M  V30 12 1 6 13
M  V30 END BOND
M  V30 END CTAB
M  END
>  <Structure No>
3451

>  <LogS>
0.5273

>  <MMFF94 Energy>
-4.4918

$$$$
Compound 3452
Actelion Java MolfileCreator 2.0

  0  0  0  0  0  0              0 V3000
M  V30 BEGIN CTAB
M  V30 COUNTS 18 17 0 0 0
M  V30 BEGIN ATOM
M  V30 1 O 1.3597 0.8307 -1.8889 0
M  V30 2 C 1.7267 0.3893 -0.611 0
M  V30 3 C 0.6874 -0.604 -0.069 0
M  V30 4 N -0.6845 -0.042 -0.0068 0 CHG=1
M  V30 5 C -1.6522 -1.1223 0.2562 0
M  V30 6 C -0.805 0.9917 1.0393 0
M  V30 7 H 2.0663 1.4666 -2.174 0
M  V30 8 H 2.7106 -0.127 -0.669 0
M  V30 9 H 1.8415 1.2533 0.0781 0
M  V30 10 H 0.7042 -1.4917 -0.7418 0
M  V30 11 H 1.0125 -0.9532 0.9372 0
M  V30 12 H -0.9337 0.386 -0.9297 0
M  V30 13 H -1.4419 -1.6191 1.2299 0
M  V30 14 H -2.6902 -0.7223 0.2756 0
M  V30 15 H -1.613 -1.8863 -0.551 0
M  V30 16 H -0.4641 0.6077 2.0264 0
M  V30 17 H -1.8605 1.3295 1.1374 0
M  V30 18 H -0.213 1.8922 0.7739 0
M  V30 END ATOM
M  V30 BEGIN BOND
M  V30 1 1 1 2
M  V30 2 1 2 3
M  V30 3 1 3 4
M  V30 4 1 4 5
M  V30 5 1 4 6
M  V30 6 1 1 7
M  V30 7 1 2 8
M  V30 8 1 2 9
M  V30 9 1 3 10
M  V30 10 1 3 11
M  V30 11 1 4 12
M  V30 12 1 5 13
M  V30 13 1 5 14
M  V30 14 1 5 15
M  V30 15 1 6 16
M  V30 16 1 6 17
M  V30 17 1 6 18
M  V30 END BOND
M  V30 END CTAB
M  END
>  <Structure No>
3452

>  <LogS>
1.0499

>  <MMFF94 Energy>
23.735

$$$$
Compound 3453
Actelion Java MolfileCreator 2.0

  0  0  0  0  0  0              0 V3000
M  V30 BEGIN CTAB
M  V30 COUNTS 23 22 0 0 0
M  V30 BEGIN ATOM
M  V30 1 C 1.1518 0.5373 -0.1535 0
M  V30 2 C -0.1218 -0.233 -0.5822 0
M  V30 3 C 1.9003 -0.1673 0.9878 0
M  V30 4 C 2.0854 0.7071 -1.3594 0
M  V30 5 C -1.1875 -0.4165 0.527 0
M  V30 6 C -1.7099 0.9268 1.0583 0
M  V30 7 C -2.357 -1.2518 -0.0108 0
M  V30 8 H 0.8718 1.5576 0.1845 0
M  V30 9 H -0.5915 0.3023 -1.4375 0
M  V30 10 H 0.1818 -1.237 -0.9545 0
M  V30 11 H 1.3082 -0.1304 1.9252 0
M  V30 12 H 2.865 0.3449 1.1907 0
M  V30 13 H 2.1073 -1.2271 0.7263 0
M  V30 14 H 2.4201 -0.2823 -1.7392 0
M  V30 15 H 2.9791 1.3024 -1.0743 0
M  V30 16 H 1.5628 1.2472 -2.1775 0
M  V30 17 H -0.7473 -0.9844 1.374 0
M  V30 18 H -2.0652 1.5682 0.2236 0
M  V30 19 H -2.5518 0.7615 1.7643 0
M  V30 20 H -0.9154 1.4615 1.6183 0
M  V30 21 H -2.8572 -0.7295 -0.8548 0
M  V30 22 H -3.1036 -1.4317 0.792 0
M  V30 23 H -1.993 -2.2396 -0.3656 0
M  V30 END ATOM
M  V30 BEGIN BOND
M  V30 1 1 1 2
M  V30 2 1 1 3
M  V30 3 1 1 4
M  V30 4 1 2 5
M  V30 5 1 5 6
M  V30 6 1 5 7
M  V30 7 1 1 8
M  V30 8 1 2 9
M  V30 9 1 2 10
M  V30 10 1 3 11
M  V30 11 1 3 12
M  V30 12 1 3 13
M  V30 13 1 4 14
M  V30 14 1 4 15
M  V30 15 1 4 16
M  V30 16 1 5 17
M  V30 17 1 6 18
M  V30 18 1 6 19
M  V30 19 1 6 20
M  V30 20 1 7 21
M  V30 21 1 7 22
M  V30 22 1 7 23
M  V30 END BOND
M  V30 END CTAB
M  END
>  <Structure No>
3453

>  <LogS>
-4.2605

>  <MMFF94 Energy>
8.9222

$$$$
Compound 3454
Actelion Java MolfileCreator 2.0

  0  0  0  0  0  0              0 V3000
M  V30 BEGIN CTAB
M  V30 COUNTS 21 20 0 0 0
M  V30 BEGIN ATOM
M  V30 1 O 1.3811 -1.6115 0.0766 0
M  V30 2 C 1.3881 -0.2595 0.4553 0 CFG=2
M  V30 3 C 0.1889 0.4671 -0.1881 0
M  V30 4 C 2.7066 0.378 0.0065 0
M  V30 5 C -1.1562 0.1984 0.529 0
M  V30 6 C -2.2423 1.126 -0.0326 0
M  V30 7 C -1.6061 -1.2644 0.3992 0
M  V30 8 H 1.9409 -2.0981 0.7367 0
M  V30 9 H 1.3167 -0.1681 1.5646 0
M  V30 10 H 0.3806 1.5629 -0.1496 0
M  V30 11 H 0.1126 0.1864 -1.2621 0
M  V30 12 H 3.5626 -0.1609 0.465 0
M  V30 13 H 2.7525 1.44 0.3295 0
M  V30 14 H 2.8041 0.3285 -1.099 0
M  V30 15 H -1.0417 0.4344 1.6103 0
M  V30 16 H -2.4023 0.9306 -1.1148 0
M  V30 17 H -1.9484 2.189 0.1007 0
M  V30 18 H -3.2009 0.9687 0.5063 0
M  V30 19 H -1.6096 -1.5822 -0.6653 0
M  V30 20 H -0.937 -1.9307 0.9807 0
M  V30 21 H -2.6294 -1.3923 0.8122 0
M  V30 END ATOM
M  V30 BEGIN BOND
M  V30 1 1 1 2
M  V30 2 1 2 3
M  V30 3 1 2 4
M  V30 4 1 3 5
M  V30 5 1 5 6
M  V30 6 1 5 7
M  V30 7 1 1 8
M  V30 8 1 2 9
M  V30 9 1 3 10
M  V30 10 1 3 11
M  V30 11 1 4 12
M  V30 12 1 4 13
M  V30 13 1 4 14
M  V30 14 1 5 15
M  V30 15 1 6 16
M  V30 16 1 6 17
M  V30 17 1 6 18
M  V30 18 1 7 19
M  V30 19 1 7 20
M  V30 20 1 7 21
M  V30 END BOND
M  V30 BEGIN COLLECTION
M  V30 MDLV30/STEABS ATOMS=(1 2)
M  V30 END COLLECTION
M  V30 END CTAB
M  END
>  <Structure No>
3454

>  <LogS>
-0.7945

>  <MMFF94 Energy>
7.5101

$$$$
Compound 3455
Actelion Java MolfileCreator 2.0

  0  0  0  0  0  0              0 V3000
M  V30 BEGIN CTAB
M  V30 COUNTS 13 12 0 0 0
M  V30 BEGIN ATOM
M  V30 1 O -1.1698 -1.4039 -1.0918 0
M  V30 2 C -1.1733 -0.4189 -0.3046 0
M  V30 3 O 0.0215 0.1691 0.1311 0
M  V30 4 C -2.474 0.1633 0.1342 0
M  V30 5 C 1.3055 -0.2697 -0.2182 0
M  V30 6 O 1.4747 -1.2446 -0.9995 0
M  V30 7 C 2.4936 0.4621 0.3072 0
M  V30 8 H -3.2157 -0.6453 0.3048 0
M  V30 9 H -2.8546 0.8508 -0.6494 0
M  V30 10 H -2.3372 0.7288 1.0797 0
M  V30 11 H 3.313 -0.2525 0.5322 0
M  V30 12 H 2.2248 1.0032 1.2387 0
M  V30 13 H 2.8424 1.1935 -0.4508 0
M  V30 END ATOM
M  V30 BEGIN BOND
M  V30 1 2 1 2
M  V30 2 1 2 3
M  V30 3 1 2 4
M  V30 4 1 3 5
M  V30 5 2 5 6
M  V30 6 1 5 7
M  V30 7 1 4 8
M  V30 8 1 4 9
M  V30 9 1 4 10
M  V30 10 1 7 11
M  V30 11 1 7 12
M  V30 12 1 7 13
M  V30 END BOND
M  V30 END CTAB
M  END
>  <Structure No>
3455

>  <LogS>
0.0702

>  <MMFF94 Energy>
-19.439

$$$$
Compound 3456
Actelion Java MolfileCreator 2.0

  0  0  0  0  0  0              0 V3000
M  V30 BEGIN CTAB
M  V30 COUNTS 11 11 0 0 0
M  V30 BEGIN ATOM
M  V30 1 O -2.3779 -1.6641 -0.3168 0
M  V30 2 C -1.3772 -0.9146 -0.1731 0
M  V30 3 O -0.0703 -1.3166 -0.3906 0
M  V30 4 C -1.4215 0.4831 0.2399 0
M  V30 5 C 0.6988 -0.1941 -0.1202 0
M  V30 6 C -0.1677 0.9195 0.2724 0
M  V30 7 C 2.023 -0.1579 -0.2104 0
M  V30 8 H -2.3018 1.0657 0.4779 0
M  V30 9 H 0.1423 1.9208 0.5423 0
M  V30 10 H 2.5719 -1.0406 -0.511 0
M  V30 11 H 2.5652 0.7515 0.0147 0
M  V30 END ATOM
M  V30 BEGIN BOND
M  V30 1 2 1 2
M  V30 2 1 2 3
M  V30 3 1 2 4
M  V30 4 1 3 5
M  V30 5 2 4 6
M  V30 6 2 5 7
M  V30 7 1 5 6
M  V30 8 1 4 8
M  V30 9 1 6 9
M  V30 10 1 7 10
M  V30 11 1 7 11
M  V30 END BOND
M  V30 END CTAB
M  END
>  <Structure No>
3456

>  <LogS>
-0.9827

>  <MMFF94 Energy>
-2.8325

$$$$
Compound 3457
Actelion Java MolfileCreator 2.0

  0  0  0  0  0  0              0 V3000
M  V30 BEGIN CTAB
M  V30 COUNTS 15 15 0 0 0
M  V30 BEGIN ATOM
M  V30 1 Cl 2.4978 -2.4172 -0.161 0
M  V30 2 C 1.4546 -1.0103 -0.0638 0
M  V30 3 C 0.0666 -1.1719 0.0181 0
M  V30 4 C 2.0095 0.2737 -0.0732 0
M  V30 5 C -0.772 -0.0487 0.1042 0
M  V30 6 C 1.1783 1.3953 -0.0058 0
M  V30 7 C -0.2084 1.2369 0.0761 0
M  V30 8 C -2.2614 -0.2198 0.1521 0
M  V30 9 H -0.3568 -2.1689 0.0153 0
M  V30 10 H 3.0822 0.4034 -0.1377 0
M  V30 11 H 1.6087 2.3882 -0.0209 0
M  V30 12 H -0.8414 2.1148 0.1182 0
M  V30 13 H -2.5306 -1.1649 0.6701 0
M  V30 14 H -2.6633 -0.2463 -0.882 0
M  V30 15 H -2.735 0.6202 0.7035 0
M  V30 END ATOM
M  V30 BEGIN BOND
M  V30 1 1 1 2
M  V30 2 2 2 3
M  V30 3 1 2 4
M  V30 4 1 3 5
M  V30 5 2 4 6
M  V30 6 2 5 7
M  V30 7 1 5 8
M  V30 8 1 6 7
M  V30 9 1 3 9
M  V30 10 1 4 10
M  V30 11 1 6 11
M  V30 12 1 7 12
M  V30 13 1 8 13
M  V30 14 1 8 14
M  V30 15 1 8 15
M  V30 END BOND
M  V30 END CTAB
M  END
>  <Structure No>
3457

>  <LogS>
-3.5228

>  <MMFF94 Energy>
17.178

$$$$
Compound 3458
Actelion Java MolfileCreator 2.0

  0  0  0  0  0  0              0 V3000
M  V30 BEGIN CTAB
M  V30 COUNTS 28 28 0 0 0
M  V30 BEGIN ATOM
M  V30 1 O 1.1022 0.6297 1.181 0
M  V30 2 C 0.1748 1.4355 0.4725 0 CFG=1
M  V30 3 C 1.7011 -0.3809 0.3758 0 CFG=1
M  V30 4 O -1.1329 0.9035 0.6341 0
M  V30 5 C 0.1918 2.8244 1.0977 0
M  V30 6 O 0.7918 -0.9973 -0.522 0
M  V30 7 C 2.8947 0.1798 -0.3979 0
M  V30 8 C -1.5814 0.1858 -0.5099 0 CFG=1
M  V30 9 C -0.2646 -1.6412 0.1812 0 CFG=1
M  V30 10 O -1.5288 -1.2159 -0.2976 0
M  V30 11 C -3.0338 0.5694 -0.7614 0
M  V30 12 C -0.1471 -3.1436 -0.0429 0
M  V30 13 H 0.4758 1.5989 -0.5891 0
M  V30 14 H 2.1169 -1.1553 1.0607 0
M  V30 15 H -0.0843 2.7666 2.1725 0
M  V30 16 H -0.533 3.4844 0.5748 0
M  V30 17 H 1.2067 3.2681 1.0101 0
M  V30 18 H 3.4377 -0.6488 -0.8999 0
M  V30 19 H 2.5681 0.9028 -1.1733 0
M  V30 20 H 3.5923 0.6897 0.3 0
M  V30 21 H -1.0443 0.4338 -1.4556 0
M  V30 22 H -0.2441 -1.4835 1.288 0
M  V30 23 H -3.4257 0.0226 -1.6455 0
M  V30 24 H -3.109 1.6609 -0.9547 0
M  V30 25 H -3.6562 0.3165 0.1235 0
M  V30 26 H -0.2079 -3.3746 -1.1279 0
M  V30 27 H 0.8247 -3.5103 0.3505 0
M  V30 28 H -0.9686 -3.673 0.4854 0
M  V30 END ATOM
M  V30 BEGIN BOND
M  V30 1 1 1 2
M  V30 2 1 1 3
M  V30 3 1 2 4
M  V30 4 1 2 5
M  V30 5 1 3 6
M  V30 6 1 3 7
M  V30 7 1 4 8
M  V30 8 1 6 9
M  V30 9 1 8 10
M  V30 10 1 8 11
M  V30 11 1 9 12
M  V30 12 1 9 10
M  V30 13 1 2 13
M  V30 14 1 3 14
M  V30 15 1 5 15
M  V30 16 1 5 16
M  V30 17 1 5 17
M  V30 18 1 7 18
M  V30 19 1 7 19
M  V30 20 1 7 20
M  V30 21 1 8 21
M  V30 22 1 9 22
M  V30 23 1 11 23
M  V30 24 1 11 24
M  V30 25 1 11 25
M  V30 26 1 12 26
M  V30 27 1 12 27
M  V30 28 1 12 28
M  V30 END BOND
M  V30 BEGIN COLLECTION
M  V30 MDLV30/STEABS ATOMS=(4 2 3 8 9)
M  V30 END COLLECTION
M  V30 END CTAB
M  END
>  <Structure No>
3458

>  <LogS>
-2.8997

>  <MMFF94 Energy>
-41.919

$$$$
Compound 3459
Actelion Java MolfileCreator 2.0

  0  0  0  0  0  0              0 V3000
M  V30 BEGIN CTAB
M  V30 COUNTS 23 22 0 0 0
M  V30 BEGIN ATOM
M  V30 1 O 1.3956 0.2325 1.6284 0
M  V30 2 C 0.7313 0.7542 0.6915 0
M  V30 3 O 1.3497 1.1156 -0.5104 0
M  V30 4 C -0.7425 0.9683 0.8531 0
M  V30 5 C 2.7188 0.8424 -0.8004 0
M  V30 6 C -1.5575 -0.0183 -0.0074 0
M  V30 7 C 2.9114 -0.6324 -1.1345 0
M  V30 8 C -1.3701 -1.4679 0.4654 0
M  V30 9 C -3.0444 0.3559 0.0243 0
M  V30 10 H -0.9709 2.011 0.5426 0
M  V30 11 H -1.0265 0.8674 1.9243 0
M  V30 12 H 3.3627 1.1317 0.0585 0
M  V30 13 H 3.0222 1.4499 -1.6789 0
M  V30 14 H -1.2129 0.0534 -1.0634 0
M  V30 15 H 2.6572 -1.2646 -0.2583 0
M  V30 16 H 3.9704 -0.8171 -1.4126 0
M  V30 17 H 2.2596 -0.9153 -1.9881 0
M  V30 18 H -1.6784 -1.5769 1.5275 0
M  V30 19 H -0.3076 -1.775 0.3655 0
M  V30 20 H -1.9804 -2.1563 -0.1571 0
M  V30 21 H -3.4407 0.3008 1.0613 0
M  V30 22 H -3.6286 -0.3348 -0.6204 0
M  V30 23 H -3.1888 1.3882 -0.3605 0
M  V30 END ATOM
M  V30 BEGIN BOND
M  V30 1 2 1 2
M  V30 2 1 2 3
M  V30 3 1 2 4
M  V30 4 1 3 5
M  V30 5 1 4 6
M  V30 6 1 5 7
M  V30 7 1 6 8
M  V30 8 1 6 9
M  V30 9 1 4 10
M  V30 10 1 4 11
M  V30 11 1 5 12
M  V30 12 1 5 13
M  V30 13 1 6 14
M  V30 14 1 7 15
M  V30 15 1 7 16
M  V30 16 1 7 17
M  V30 17 1 8 18
M  V30 18 1 8 19
M  V30 19 1 8 20
M  V30 20 1 9 21
M  V30 21 1 9 22
M  V30 22 1 9 23
M  V30 END BOND
M  V30 END CTAB
M  END
>  <Structure No>
3459

>  <LogS>
-1.8135

>  <MMFF94 Energy>
-8.14

$$$$
Compound 3460
Actelion Java MolfileCreator 2.0

  0  0  0  0  0  0              0 V3000
M  V30 BEGIN CTAB
M  V30 COUNTS 21 21 0 0 0
M  V30 BEGIN ATOM
M  V30 1 N 0.465 1.2405 0.0774 0 CHG=1
M  V30 2 C 1.3456 0.1993 0.0202 0
M  V30 3 C -0.8845 1.0412 0.0353 0
M  V30 4 C 0.8656 -1.1155 -0.0448 0
M  V30 5 C 2.8211 0.4549 0.1069 0
M  V30 6 C -1.3941 -0.2625 -0.0294 0
M  V30 7 C -1.822 2.2078 0.1383 0
M  V30 8 C -0.5137 -1.3489 -0.089 0
M  V30 9 C -1.0436 -2.7519 -0.1174 0
M  V30 10 H 0.8336 2.2155 0.1599 0
M  V30 11 H 1.559 -1.9482 -0.0568 0
M  V30 12 H 3.1381 0.4278 1.1703 0
M  V30 13 H 3.0681 1.4498 -0.3197 0
M  V30 14 H 3.3863 -0.3137 -0.4616 0
M  V30 15 H -2.465 -0.4291 -0.0297 0
M  V30 16 H -2.0653 2.3922 1.2053 0
M  V30 17 H -2.7609 2.0069 -0.4201 0
M  V30 18 H -1.355 3.1196 -0.2898 0
M  V30 19 H -2.0223 -2.7905 -0.6414 0
M  V30 20 H -1.1748 -3.1179 0.9222 0
M  V30 21 H -0.3411 -3.4252 -0.6529 0
M  V30 END ATOM
M  V30 BEGIN BOND
M  V30 1 2 1 2
M  V30 2 1 1 3
M  V30 3 1 2 4
M  V30 4 1 2 5
M  V30 5 2 3 6
M  V30 6 1 3 7
M  V30 7 2 4 8
M  V30 8 1 8 9
M  V30 9 1 6 8
M  V30 10 1 1 10
M  V30 11 1 4 11
M  V30 12 1 5 12
M  V30 13 1 5 13
M  V30 14 1 5 14
M  V30 15 1 6 15
M  V30 16 1 7 16
M  V30 17 1 7 17
M  V30 18 1 7 18
M  V30 19 1 9 19
M  V30 20 1 9 20
M  V30 21 1 9 21
M  V30 END BOND
M  V30 END CTAB
M  END
>  <Structure No>
3460

>  <LogS>
-0.5394

>  <MMFF94 Energy>
41.185

$$$$
Compound 3461
Actelion Java MolfileCreator 2.0

  0  0  0  0  0  0              0 V3000
M  V30 BEGIN CTAB
M  V30 COUNTS 26 25 0 0 0
M  V30 BEGIN ATOM
M  V30 1 O 3.5768 -0.2329 0.0 0
M  V30 2 C 2.7117 0.143 -0.8368 0
M  V30 3 O 1.3467 -0.0461 -0.5931 0
M  V30 4 C 3.1484 0.7431 -2.1295 0
M  V30 5 C 0.8265 -0.5831 0.6248 0 CFG=2
M  V30 6 C -0.6214 -1.0634 0.3991 0
M  V30 7 C 0.932 0.4477 1.7545 0
M  V30 8 C -1.5976 0.05 -0.0794 0
M  V30 9 C -2.5008 -0.4638 -1.209 0
M  V30 10 C -2.4665 0.569 1.0767 0
M  V30 11 H 3.3966 -0.0658 -2.8474 0
M  V30 12 H 4.0432 1.3811 -1.9709 0
M  V30 13 H 2.3332 1.3676 -2.5515 0
M  V30 14 H 1.4244 -1.4765 0.914 0
M  V30 15 H -0.5706 -1.8769 -0.3585 0
M  V30 16 H -0.9989 -1.5458 1.3279 0
M  V30 17 H 0.4788 1.4134 1.4483 0
M  V30 18 H 0.4263 0.0726 2.6695 0
M  V30 19 H 1.9982 0.6309 2.0025 0
M  V30 20 H -1.0255 0.911 -0.4892 0
M  V30 21 H -3.101 -1.3339 -0.8652 0
M  V30 22 H -1.8842 -0.7732 -2.0798 0
M  V30 23 H -3.1913 0.3383 -1.5471 0
M  V30 24 H -1.8371 0.9609 1.9006 0
M  V30 25 H -3.1095 -0.2433 1.4788 0
M  V30 26 H -3.1185 1.3965 0.7235 0
M  V30 END ATOM
M  V30 BEGIN BOND
M  V30 1 2 1 2
M  V30 2 1 2 3
M  V30 3 1 2 4
M  V30 4 1 3 5
M  V30 5 1 5 6
M  V30 6 1 5 7
M  V30 7 1 6 8
M  V30 8 1 8 9
M  V30 9 1 8 10
M  V30 10 1 4 11
M  V30 11 1 4 12
M  V30 12 1 4 13
M  V30 13 1 5 14
M  V30 14 1 6 15
M  V30 15 1 6 16
M  V30 16 1 7 17
M  V30 17 1 7 18
M  V30 18 1 7 19
M  V30 19 1 8 20
M  V30 20 1 9 21
M  V30 21 1 9 22
M  V30 22 1 9 23
M  V30 23 1 10 24
M  V30 24 1 10 25
M  V30 25 1 10 26
M  V30 END BOND
M  V30 BEGIN COLLECTION
M  V30 MDLV30/STEABS ATOMS=(1 5)
M  V30 END COLLECTION
M  V30 END CTAB
M  END
>  <Structure No>
3461

>  <LogS>
-2.0451

>  <MMFF94 Energy>
0.26867

$$$$
Compound 3462
Actelion Java MolfileCreator 2.0

  0  0  0  0  0  0              0 V3000
M  V30 BEGIN CTAB
M  V30 COUNTS 14 14 0 0 0
M  V30 BEGIN ATOM
M  V30 1 N 2.265 0.4683 0.0 0
M  V30 2 C 1.387 1.5009 -0.1085 0
M  V30 3 C 1.8409 -0.8182 0.1171 0
M  V30 4 C 0.0114 1.2551 -0.104 0
M  V30 5 C 0.474 -1.1078 0.126 0
M  V30 6 C -0.4531 -0.0637 -6.0E-4 0
M  V30 7 C -1.9253 -0.3471 0.0466 0
M  V30 8 H 1.7565 2.5141 -0.1946 0
M  V30 9 H 2.5651 -1.6168 0.2075 0
M  V30 10 H -0.6824 2.083 -0.1807 0
M  V30 11 H 0.1429 -2.1339 0.2296 0
M  V30 12 H -2.1444 -1.3511 -0.3753 0
M  V30 13 H -2.2741 -0.3129 1.0999 0
M  V30 14 H -2.4882 0.405 -0.5462 0
M  V30 END ATOM
M  V30 BEGIN BOND
M  V30 1 2 1 2
M  V30 2 1 1 3
M  V30 3 1 2 4
M  V30 4 2 3 5
M  V30 5 2 4 6
M  V30 6 1 6 7
M  V30 7 1 5 6
M  V30 8 1 2 8
M  V30 9 1 3 9
M  V30 10 1 4 10
M  V30 11 1 5 11
M  V30 12 1 7 12
M  V30 13 1 7 13
M  V30 14 1 7 14
M  V30 END BOND
M  V30 END CTAB
M  END
>  <Structure No>
3462

>  <LogS>
1.0309

>  <MMFF94 Energy>
17.307

$$$$
Compound 3463
Actelion Java MolfileCreator 2.0

  0  0  0  0  0  0              0 V3000
M  V30 BEGIN CTAB
M  V30 COUNTS 12 12 0 0 0
M  V30 BEGIN ATOM
M  V30 1 S 3.0117 0.8946 0.0 0 CHG=-1 VAL=2
M  V30 2 C 1.2897 0.3617 0.0085 0
M  V30 3 C 0.9779 -1.0017 0.0766 0
M  V30 4 C 0.2617 1.3106 -0.0528 0
M  V30 5 C -0.3586 -1.4145 0.0832 0
M  V30 6 C -1.0744 0.8963 -0.0461 0
M  V30 7 C -1.3846 -0.4657 0.0219 0
M  V30 8 H 1.7678 -1.7404 0.1244 0
M  V30 9 H 0.4957 2.3663 -0.1055 0
M  V30 10 H -0.5991 -2.4684 0.1359 0
M  V30 11 H -1.8686 1.6301 -0.0936 0
M  V30 12 H -2.4186 -0.7856 0.0271 0
M  V30 END ATOM
M  V30 BEGIN BOND
M  V30 1 1 1 2
M  V30 2 2 2 3
M  V30 3 1 2 4
M  V30 4 1 3 5
M  V30 5 2 4 6
M  V30 6 2 5 7
M  V30 7 1 6 7
M  V30 8 1 3 8
M  V30 9 1 4 9
M  V30 10 1 5 10
M  V30 11 1 6 11
M  V30 12 1 7 12
M  V30 END BOND
M  V30 END CTAB
M  END
>  <Structure No>
3463

>  <LogS>
-2.1204

>  <MMFF94 Energy>
-7.1553

$$$$
Compound 3464
Actelion Java MolfileCreator 2.0

  0  0  0  0  0  0              0 V3000
M  V30 BEGIN CTAB
M  V30 COUNTS 14 14 0 0 0
M  V30 BEGIN ATOM
M  V30 1 N -1.249 -1.5614 0.2341 0
M  V30 2 C 0.0984 -1.3795 0.1984 0
M  V30 3 C -2.1144 -0.524 0.0812 0
M  V30 4 C 0.6317 -0.0988 -0.0103 0
M  V30 5 C -1.6275 0.7703 -0.1113 0
M  V30 6 C -0.2482 0.9834 -0.1503 0
M  V30 7 C 2.1153 0.1191 -0.0097 0
M  V30 8 H 0.7521 -2.2317 0.3326 0
M  V30 9 H -3.1807 -0.7033 0.1147 0
M  V30 10 H -2.3125 1.6006 -0.2252 0
M  V30 11 H 0.1322 1.9878 -0.2898 0
M  V30 12 H 2.4579 0.3233 1.0261 0
M  V30 13 H 2.3841 0.981 -0.657 0
M  V30 14 H 2.6427 -0.7789 -0.3957 0
M  V30 END ATOM
M  V30 BEGIN BOND
M  V30 1 2 1 2
M  V30 2 1 1 3
M  V30 3 1 2 4
M  V30 4 2 3 5
M  V30 5 2 4 6
M  V30 6 1 4 7
M  V30 7 1 5 6
M  V30 8 1 2 8
M  V30 9 1 3 9
M  V30 10 1 5 10
M  V30 11 1 6 11
M  V30 12 1 7 12
M  V30 13 1 7 13
M  V30 14 1 7 14
M  V30 END BOND
M  V30 END CTAB
M  END
>  <Structure No>
3464

>  <LogS>
1.0309

>  <MMFF94 Energy>
18.072

$$$$
Compound 3465
Actelion Java MolfileCreator 2.0

  0  0  0  0  0  0              0 V3000
M  V30 BEGIN CTAB
M  V30 COUNTS 19 19 0 0 0
M  V30 BEGIN ATOM
M  V30 1 O -1.8657 0.0776 1.0102 0
M  V30 2 C -1.3662 -1.1598 0.5411 0
M  V30 3 C -1.5352 1.1044 0.0948 0
M  V30 4 C 0.1654 -1.1226 0.4349 0
M  V30 5 C -0.0115 1.2493 -0.0326 0
M  V30 6 N 0.5889 -0.0291 -0.462 0 CHG=1
M  V30 7 C 2.057 0.0755 -0.487 0
M  V30 8 H -1.6543 -1.9528 1.2631 0
M  V30 9 H -1.8208 -1.4267 -0.4402 0
M  V30 10 H -1.9538 2.0613 0.4719 0
M  V30 11 H -1.9955 0.9133 -0.9013 0
M  V30 12 H 0.5208 -2.1009 0.0404 0
M  V30 13 H 0.5924 -0.9824 1.4546 0
M  V30 14 H 0.4022 1.5669 0.9521 0
M  V30 15 H 0.2112 2.0464 -0.7768 0
M  V30 16 H 0.2654 -0.2451 -1.4359 0
M  V30 17 H 2.3754 0.8782 -1.1881 0
M  V30 18 H 2.4613 0.3051 0.5242 0
M  V30 19 H 2.5064 -0.8777 -0.8421 0
M  V30 END ATOM
M  V30 BEGIN BOND
M  V30 1 1 1 2
M  V30 2 1 1 3
M  V30 3 1 2 4
M  V30 4 1 3 5
M  V30 5 1 4 6
M  V30 6 1 6 7
M  V30 7 1 5 6
M  V30 8 1 2 8
M  V30 9 1 2 9
M  V30 10 1 3 10
M  V30 11 1 3 11
M  V30 12 1 4 12
M  V30 13 1 4 13
M  V30 14 1 5 14
M  V30 15 1 5 15
M  V30 16 1 6 16
M  V30 17 1 7 17
M  V30 18 1 7 18
M  V30 19 1 7 19
M  V30 END BOND
M  V30 END CTAB
M  END
>  <Structure No>
3465

>  <LogS>
0.995

>  <MMFF94 Energy>
74.94

$$$$
Compound 3466
Actelion Java MolfileCreator 2.0

  0  0  0  0  0  0              0 V3000
M  V30 BEGIN CTAB
M  V30 COUNTS 20 20 0 0 0
M  V30 BEGIN ATOM
M  V30 1 N 0.9296 -1.2396 0.1548 0 CHG=1
M  V30 2 C -0.3497 -0.9533 0.818 0
M  V30 3 C 1.8817 -0.1236 0.3097 0
M  V30 4 C -1.0342 0.2942 0.1932 0 CFG=1
M  V30 5 C 1.1938 1.2529 0.2179 0
M  V30 6 N -0.0659 1.1462 -0.5235 0
M  V30 7 C -2.1417 -0.1212 -0.779 0
M  V30 8 H 1.3456 -2.1036 0.5745 0
M  V30 9 H 0.7607 -1.4217 -0.8627 0
M  V30 10 H -0.1687 -0.7675 1.9014 0
M  V30 11 H -1.009 -1.8483 0.7598 0
M  V30 12 H 2.6596 -0.198 -0.4825 0
M  V30 13 H 2.4032 -0.2032 1.2899 0
M  V30 14 H -1.5082 0.8811 1.0138 0
M  V30 15 H 1.8691 1.9693 -0.2985 0
M  V30 16 H 1.0007 1.6503 1.2407 0
M  V30 17 H -0.4721 2.1081 -0.6072 0
M  V30 18 H -2.9184 -0.7128 -0.2487 0
M  V30 19 H -2.627 0.7803 -1.2097 0
M  V30 20 H -1.7212 -0.7314 -1.6069 0
M  V30 END ATOM
M  V30 BEGIN BOND
M  V30 1 1 1 2
M  V30 2 1 1 3
M  V30 3 1 2 4
M  V30 4 1 3 5
M  V30 5 1 4 6
M  V30 6 1 4 7
M  V30 7 1 5 6
M  V30 8 1 1 8
M  V30 9 1 1 9
M  V30 10 1 2 10
M  V30 11 1 2 11
M  V30 12 1 3 12
M  V30 13 1 3 13
M  V30 14 1 4 14
M  V30 15 1 5 15
M  V30 16 1 5 16
M  V30 17 1 6 17
M  V30 18 1 7 18
M  V30 19 1 7 19
M  V30 20 1 7 20
M  V30 END BOND
M  V30 BEGIN COLLECTION
M  V30 MDLV30/STEABS ATOMS=(1 4)
M  V30 END COLLECTION
M  V30 END CTAB
M  END
>  <Structure No>
3466

>  <LogS>
0.6378

>  <MMFF94 Energy>
84.189

$$$$
Compound 3467
Actelion Java MolfileCreator 2.0

  0  0  0  0  0  0              0 V3000
M  V30 BEGIN CTAB
M  V30 COUNTS 13 13 0 0 0
M  V30 BEGIN ATOM
M  V30 1 N 0.2352 -1.098 -0.2352 0
M  V30 2 C -0.6126 -0.0725 0.0499 0
M  V30 3 C 1.5802 -0.9095 -0.2823 0
M  V30 4 C -0.0842 1.2003 0.3007 0
M  V30 5 C -2.0882 -0.3087 0.0978 0
M  V30 6 C 2.1044 0.3601 -0.0329 0
M  V30 7 N 1.2612 1.3866 0.2531 0
M  V30 8 H 2.2362 -1.7386 -0.5112 0
M  V30 9 H -0.7343 2.0345 0.5314 0
M  V30 10 H -2.3221 -1.3667 -0.1452 0
M  V30 11 H -2.5975 0.3473 -0.6389 0
M  V30 12 H -2.4709 -0.0828 1.1153 0
M  V30 13 H 3.1723 0.5287 -0.066 0
M  V30 END ATOM
M  V30 BEGIN BOND
M  V30 1 2 1 2
M  V30 2 1 1 3
M  V30 3 1 2 4
M  V30 4 1 2 5
M  V30 5 2 3 6
M  V30 6 2 4 7
M  V30 7 1 6 7
M  V30 8 1 3 8
M  V30 9 1 4 9
M  V30 10 1 5 10
M  V30 11 1 5 11
M  V30 12 1 5 12
M  V30 13 1 6 13
M  V30 END BOND
M  V30 END CTAB
M  END
>  <Structure No>
3467

>  <LogS>
1.0263

>  <MMFF94 Energy>
54.088

$$$$
Compound 3468
Actelion Java MolfileCreator 2.0

  0  0  0  0  0  0              0 V3000
M  V30 BEGIN CTAB
M  V30 COUNTS 56 55 0 0 0
M  V30 BEGIN ATOM
M  V30 1 O -5.1781 -1.4885 0.1566 0
M  V30 2 C -4.4688 -0.5134 0.5264 0
M  V30 3 O -4.5427 0.7176 -0.1338 0
M  V30 4 C -3.5143 -0.6794 1.6653 0
M  V30 5 C -5.3417 0.9387 -1.2942 0
M  V30 6 C -2.2401 -1.3918 1.1948 0
M  V30 7 C -4.6333 0.3885 -2.5385 0
M  V30 8 C -1.2398 -1.6261 2.3383 0
M  V30 9 C -5.4949 0.4932 -3.8057 0
M  V30 10 C -0.4703 -0.3474 2.7145 0
M  V30 11 C -5.6897 1.9363 -4.2721 0
M  V30 12 C 0.5101 -0.5626 3.8799 0
M  V30 13 C 1.6945 -1.4991 3.5723 0
M  V30 14 C 2.6442 -0.9659 2.4786 0
M  V30 15 C 2.4343 -1.6676 1.1293 0
M  V30 16 C 3.3837 -1.1261 0.1094 0
M  V30 17 O 4.4853 -1.7055 -0.0907 0
M  V30 18 O 3.0543 0.0439 -0.5815 0
M  V30 19 C 3.9337 0.6847 -1.5034 0
M  V30 20 C 5.0427 1.43 -0.7565 0
M  V30 21 C 5.9698 2.1596 -1.7346 0
M  V30 22 C 7.0961 2.8775 -0.9954 0
M  V30 23 H -4.0051 -1.2695 2.4703 0
M  V30 24 H -3.2691 0.3244 2.0714 0
M  V30 25 H -5.4896 2.0324 -1.404 0
M  V30 26 H -6.3411 0.4673 -1.1666 0
M  V30 27 H -2.5232 -2.3829 0.7756 0
M  V30 28 H -1.7554 -0.8096 0.3793 0
M  V30 29 H -4.3961 -0.6839 -2.3712 0
M  V30 30 H -3.6712 0.9249 -2.6871 0
M  V30 31 H -0.5209 -2.3997 1.9988 0
M  V30 32 H -1.7692 -2.0297 3.229 0
M  V30 33 H -6.4852 0.0166 -3.6354 0
M  V30 34 H -4.9885 -0.0676 -4.6205 0
M  V30 35 H -1.1946 0.43 3.0357 0
M  V30 36 H 0.0661 0.0577 1.8315 0
M  V30 37 H -4.7091 2.4425 -4.3932 0
M  V30 38 H -6.3125 2.5025 -3.5491 0
M  V30 39 H -6.2113 1.9388 -5.2521 0
M  V30 40 H 0.91 0.4268 4.1926 0
M  V30 41 H -0.0493 -0.9705 4.75 0
M  V30 42 H 2.279 -1.595 4.514 0
M  V30 43 H 1.3357 -2.5239 3.3385 0
M  V30 44 H 3.693 -1.1492 2.8042 0
M  V30 45 H 2.5298 0.1348 2.3586 0
M  V30 46 H 2.5988 -2.7619 1.2444 0
M  V30 47 H 1.3989 -1.5141 0.764 0
M  V30 48 H 3.3432 1.4121 -2.0995 0
M  V30 49 H 4.3651 -0.0627 -2.2037 0
M  V30 50 H 5.6358 0.707 -0.1561 0
M  V30 51 H 4.5814 2.165 -0.0615 0
M  V30 52 H 6.4153 1.4284 -2.4438 0
M  V30 53 H 5.3874 2.9066 -2.3176 0
M  V30 54 H 6.6789 3.6411 -0.3033 0
M  V30 55 H 7.7023 2.1485 -0.4166 0
M  V30 56 H 7.7586 3.3857 -1.7288 0
M  V30 END ATOM
M  V30 BEGIN BOND
M  V30 1 2 1 2
M  V30 2 1 2 3
M  V30 3 1 2 4
M  V30 4 1 3 5
M  V30 5 1 4 6
M  V30 6 1 5 7
M  V30 7 1 6 8
M  V30 8 1 7 9
M  V30 9 1 8 10
M  V30 10 1 9 11
M  V30 11 1 10 12
M  V30 12 1 12 13
M  V30 13 1 13 14
M  V30 14 1 14 15
M  V30 15 1 15 16
M  V30 16 2 16 17
M  V30 17 1 16 18
M  V30 18 1 18 19
M  V30 19 1 19 20
M  V30 20 1 20 21
M  V30 21 1 21 22
M  V30 22 1 4 23
M  V30 23 1 4 24
M  V30 24 1 5 25
M  V30 25 1 5 26
M  V30 26 1 6 27
M  V30 27 1 6 28
M  V30 28 1 7 29
M  V30 29 1 7 30
M  V30 30 1 8 31
M  V30 31 1 8 32
M  V30 32 1 9 33
M  V30 33 1 9 34
M  V30 34 1 10 35
M  V30 35 1 10 36
M  V30 36 1 11 37
M  V30 37 1 11 38
M  V30 38 1 11 39
M  V30 39 1 12 40
M  V30 40 1 12 41
M  V30 41 1 13 42
M  V30 42 1 13 43
M  V30 43 1 14 44
M  V30 44 1 14 45
M  V30 45 1 15 46
M  V30 46 1 15 47
M  V30 47 1 19 48
M  V30 48 1 19 49
M  V30 49 1 20 50
M  V30 50 1 20 51
M  V30 51 1 21 52
M  V30 52 1 21 53
M  V30 53 1 22 54
M  V30 54 1 22 55
M  V30 55 1 22 56
M  V30 END BOND
M  V30 END CTAB
M  END
>  <Structure No>
3468

>  <LogS>
-3.8955

>  <MMFF94 Energy>
-19.736

$$$$
Compound 3469
Actelion Java MolfileCreator 2.0

  0  0  0  0  0  0              0 V3000
M  V30 BEGIN CTAB
M  V30 COUNTS 46 45 0 0 0
M  V30 BEGIN ATOM
M  V30 1 O -3.2977 0.4705 -2.1975 0
M  V30 2 C -2.7129 0.1049 -1.1401 0
M  V30 3 O -3.3941 -0.6215 -0.1583 0
M  V30 4 C -1.2608 0.4094 -0.9518 0
M  V30 5 C -4.7751 -0.9645 -0.2506 0
M  V30 6 C -0.4037 -0.774 -1.4173 0
M  V30 7 C -5.6566 0.247 0.0383 0
M  V30 8 C 1.0917 -0.5648 -1.1318 0
M  V30 9 O -7.011 -0.1534 0.0093 0
M  V30 10 C 1.7503 0.4024 -2.128 0
M  V30 11 C -7.8507 0.9141 0.4051 0
M  V30 12 C 3.2046 0.5988 -1.8178 0
M  V30 13 C -8.2022 0.7913 1.8841 0
M  V30 14 O 3.7289 1.7343 -1.9935 0
M  V30 15 O 3.9833 -0.4889 -1.4002 0
M  V30 16 C 5.3556 -0.3757 -1.0289 0
M  V30 17 C 5.4883 0.2808 0.3502 0
M  V30 18 O 6.8516 0.376 0.7193 0
M  V30 19 C 7.2621 -0.7476 1.4784 0
M  V30 20 C 7.1278 -0.4587 2.9688 0
M  V30 21 H -1.0023 1.3246 -1.5253 0
M  V30 22 H -1.0751 0.6112 0.1253 0
M  V30 23 H -5.0017 -1.3765 -1.2599 0
M  V30 24 H -4.9907 -1.7545 0.4996 0
M  V30 25 H -0.5619 -0.9519 -2.5042 0
M  V30 26 H -0.7327 -1.6886 -0.8758 0
M  V30 27 H -5.3795 0.6574 1.0376 0
M  V30 28 H -5.4705 1.0198 -0.7405 0
M  V30 29 H 1.5941 -1.5546 -1.2086 0
M  V30 30 H 1.2324 -0.1962 -0.0909 0
M  V30 31 H 1.2394 1.3901 -2.0907 0
M  V30 32 H 1.6595 -0.0011 -3.1606 0
M  V30 33 H -8.7925 0.844 -0.1781 0
M  V30 34 H -7.4231 1.9239 0.197 0
M  V30 35 H -7.2932 0.9091 2.5098 0
M  V30 36 H -8.6595 -0.2001 2.0858 0
M  V30 37 H -8.9288 1.5848 2.1601 0
M  V30 38 H 5.9162 0.2074 -1.7939 0
M  V30 39 H 5.7907 -1.3984 -0.9946 0
M  V30 40 H 4.8641 -0.2621 1.1005 0
M  V30 41 H 5.0814 1.312 0.2934 0
M  V30 42 H 8.3336 -0.9391 1.2581 0
M  V30 43 H 6.7159 -1.683 1.2194 0
M  V30 44 H 7.4949 -1.3287 3.5501 0
M  V30 45 H 7.7303 0.4314 3.2393 0
M  V30 46 H 6.0652 -0.2742 3.2338 0
M  V30 END ATOM
M  V30 BEGIN BOND
M  V30 1 2 1 2
M  V30 2 1 2 3
M  V30 3 1 2 4
M  V30 4 1 3 5
M  V30 5 1 4 6
M  V30 6 1 5 7
M  V30 7 1 6 8
M  V30 8 1 7 9
M  V30 9 1 8 10
M  V30 10 1 9 11
M  V30 11 1 10 12
M  V30 12 1 11 13
M  V30 13 2 12 14
M  V30 14 1 12 15
M  V30 15 1 15 16
M  V30 16 1 16 17
M  V30 17 1 17 18
M  V30 18 1 18 19
M  V30 19 1 19 20
M  V30 20 1 4 21
M  V30 21 1 4 22
M  V30 22 1 5 23
M  V30 23 1 5 24
M  V30 24 1 6 25
M  V30 25 1 6 26
M  V30 26 1 7 27
M  V30 27 1 7 28
M  V30 28 1 8 29
M  V30 29 1 8 30
M  V30 30 1 10 31
M  V30 31 1 10 32
M  V30 32 1 11 33
M  V30 33 1 11 34
M  V30 34 1 13 35
M  V30 35 1 13 36
M  V30 36 1 13 37
M  V30 37 1 16 38
M  V30 38 1 16 39
M  V30 39 1 17 40
M  V30 40 1 17 41
M  V30 41 1 19 42
M  V30 42 1 19 43
M  V30 43 1 20 44
M  V30 44 1 20 45
M  V30 45 1 20 46
M  V30 END BOND
M  V30 END CTAB
M  END
>  <Structure No>
3469

>  <LogS>
-2.065

>  <MMFF94 Energy>
14.293

$$$$
Compound 3470
Actelion Java MolfileCreator 2.0

  0  0  0  0  0  0              0 V3000
M  V30 BEGIN CTAB
M  V30 COUNTS 17 16 0 0 0
M  V30 BEGIN ATOM
M  V30 1 O -1.9144 -1.1483 -1.5313 0
M  V30 2 C -1.2531 -1.4654 -0.336 0 CFG=1
M  V30 3 C -0.0836 -0.5903 -0.1698 0
M  V30 4 C -2.2118 -1.2811 0.836 0
M  V30 5 C 0.8747 0.1281 -0.0321 0
M  V30 6 C 2.0396 1.0029 0.1369 0
M  V30 7 C 1.722 2.1321 1.1091 0
M  V30 8 H -1.3812 -1.5462 -2.269 0
M  V30 9 H -0.9122 -2.5258 -0.3523 0
M  V30 10 H -1.7068 -1.539 1.7921 0
M  V30 11 H -2.5704 -0.2298 0.8861 0
M  V30 12 H -3.0892 -1.9506 0.711 0
M  V30 13 H 2.89 0.4041 0.526 0
M  V30 14 H 2.321 1.4279 -0.8495 0
M  V30 15 H 0.879 2.747 0.7262 0
M  V30 16 H 1.453 1.7203 2.1057 0
M  V30 17 H 2.6132 2.7845 1.2238 0
M  V30 END ATOM
M  V30 BEGIN BOND
M  V30 1 1 1 2
M  V30 2 1 2 3
M  V30 3 1 2 4
M  V30 4 3 3 5
M  V30 5 1 5 6
M  V30 6 1 6 7
M  V30 7 1 1 8
M  V30 8 1 2 9
M  V30 9 1 4 10
M  V30 10 1 4 11
M  V30 11 1 4 12
M  V30 12 1 6 13
M  V30 13 1 6 14
M  V30 14 1 7 15
M  V30 15 1 7 16
M  V30 16 1 7 17
M  V30 END BOND
M  V30 BEGIN COLLECTION
M  V30 MDLV30/STEABS ATOMS=(1 2)
M  V30 END COLLECTION
M  V30 END CTAB
M  END
>  <Structure No>
3470

>  <LogS>
-0.4121

>  <MMFF94 Energy>
-1.8643

$$$$
Compound 3471
Actelion Java MolfileCreator 2.0

  0  0  0  0  0  0              0 V3000
M  V30 BEGIN CTAB
M  V30 COUNTS 19 18 0 0 0
M  V30 BEGIN ATOM
M  V30 1 O 1.1463 -0.2291 0.5348 0
M  V30 2 C 2.5093 -0.0684 0.2917 0
M  V30 3 C 0.1748 0.5911 -0.1042 0
M  V30 4 C 3.3885 -0.8514 0.9021 0
M  V30 5 C -1.2366 0.1853 0.3459 0
M  V30 6 C -2.2797 1.1526 -0.2255 0
M  V30 7 C -1.5577 -1.2542 -0.0767 0
M  V30 8 H 2.8569 0.6944 -0.3951 0
M  V30 9 H 0.2681 0.4899 -1.2084 0
M  V30 10 H 0.3629 1.6526 0.1706 0
M  V30 11 H 4.4475 -0.7294 0.7155 0
M  V30 12 H 3.0566 -1.6179 1.5907 0
M  V30 13 H -1.2833 0.2436 1.4561 0
M  V30 14 H -3.2957 0.8735 0.1272 0
M  V30 15 H -2.0699 2.1887 0.1163 0
M  V30 16 H -2.2671 1.1317 -1.3366 0
M  V30 17 H -0.8346 -1.9622 0.381 0
M  V30 18 H -1.5115 -1.3583 -1.1822 0
M  V30 19 H -2.5758 -1.5361 0.2672 0
M  V30 END ATOM
M  V30 BEGIN BOND
M  V30 1 1 1 2
M  V30 2 1 1 3
M  V30 3 2 2 4
M  V30 4 1 3 5
M  V30 5 1 5 6
M  V30 6 1 5 7
M  V30 7 1 2 8
M  V30 8 1 3 9
M  V30 9 1 3 10
M  V30 10 1 4 11
M  V30 11 1 4 12
M  V30 12 1 5 13
M  V30 13 1 6 14
M  V30 14 1 6 15
M  V30 15 1 6 16
M  V30 16 1 7 17
M  V30 17 1 7 18
M  V30 18 1 7 19
M  V30 END BOND
M  V30 END CTAB
M  END
>  <Structure No>
3471

>  <LogS>
-1.5236

>  <MMFF94 Energy>
9.451

$$$$
Compound 3472
Actelion Java MolfileCreator 2.0

  0  0  0  0  0  0              0 V3000
M  V30 BEGIN CTAB
M  V30 COUNTS 15 14 0 0 0
M  V30 BEGIN ATOM
M  V30 1 C -0.0755 0.6803 -0.2267 0
M  V30 2 C -1.0702 -0.2065 -0.372 0
M  V30 3 C 1.3053 0.41 -0.7571 0
M  V30 4 C -2.4439 0.0842 0.1476 0
M  V30 5 C 2.0121 -0.6699 0.0572 0
M  V30 6 H -0.2689 1.6334 0.2587 0
M  V30 7 H -0.8887 -1.1526 -0.8748 0
M  V30 8 H 1.9017 1.3458 -0.7018 0
M  V30 9 H 1.2474 0.1018 -1.8236 0
M  V30 10 H -3.1168 -0.7707 -0.0727 0
M  V30 11 H -2.8491 0.9954 -0.3411 0
M  V30 12 H -2.4081 0.2388 1.2468 0
M  V30 13 H 1.468 -1.6351 -0.0193 0
M  V30 14 H 2.075 -0.3676 1.1246 0
M  V30 15 H 3.0417 -0.8139 -0.3326 0
M  V30 END ATOM
M  V30 BEGIN BOND
M  V30 1 2 1 2
M  V30 2 1 1 3
M  V30 3 1 2 4
M  V30 4 1 3 5
M  V30 5 1 1 6
M  V30 6 1 2 7
M  V30 7 1 3 8
M  V30 8 1 3 9
M  V30 9 1 4 10
M  V30 10 1 4 11
M  V30 11 1 4 12
M  V30 12 1 5 13
M  V30 13 1 5 14
M  V30 14 1 5 15
M  V30 END BOND
M  V30 END CTAB
M  END
>  <Structure No>
3472

>  <LogS>
-2.5384

>  <MMFF94 Energy>
3.7629

$$$$
Compound 3473
Actelion Java MolfileCreator 2.0

  0  0  0  0  0  0              0 V3000
M  V30 BEGIN CTAB
M  V30 COUNTS 17 16 0 0 0
M  V30 BEGIN ATOM
M  V30 1 N -1.8771 0.3001 0.6003 0 CHG=1
M  V30 2 C -0.9961 -0.856 0.4249 0
M  V30 3 C -0.0773 -0.7101 -0.8025 0
M  V30 4 C 0.8805 0.4922 -0.7463 0
M  V30 5 C 1.8803 0.4047 0.406 0
M  V30 6 H -2.364 0.5286 -0.2965 0
M  V30 7 H -1.3294 1.126 0.932 0
M  V30 8 H -2.5964 0.0721 1.3241 0
M  V30 9 H -1.6192 -1.7666 0.2824 0
M  V30 10 H -0.3942 -1.0167 1.345 0
M  V30 11 H 0.5182 -1.6423 -0.9135 0
M  V30 12 H -0.7075 -0.6182 -1.7137 0
M  V30 13 H 0.3115 1.4432 -0.6789 0
M  V30 14 H 1.4519 0.5225 -1.6992 0
M  V30 15 H 2.4086 -0.572 0.3897 0
M  V30 16 H 2.6324 1.2152 0.304 0
M  V30 17 H 1.3665 0.5335 1.3811 0
M  V30 END ATOM
M  V30 BEGIN BOND
M  V30 1 1 1 2
M  V30 2 1 2 3
M  V30 3 1 3 4
M  V30 4 1 4 5
M  V30 5 1 1 6
M  V30 6 1 1 7
M  V30 7 1 1 8
M  V30 8 1 2 9
M  V30 9 1 2 10
M  V30 10 1 3 11
M  V30 11 1 3 12
M  V30 12 1 4 13
M  V30 13 1 4 14
M  V30 14 1 5 15
M  V30 15 1 5 16
M  V30 16 1 5 17
M  V30 END BOND
M  V30 END CTAB
M  END
>  <Structure No>
3473

>  <LogS>
1.1359

>  <MMFF94 Energy>
-2.0732

$$$$
Compound 3474
Actelion Java MolfileCreator 2.0

  0  0  0  0  0  0              0 V3000
M  V30 BEGIN CTAB
M  V30 COUNTS 10 9 0 0 0
M  V30 BEGIN ATOM
M  V30 1 O -1.8338 0.3818 0.6109 0
M  V30 2 C -0.5257 0.6141 0.1644 0
M  V30 3 C 0.3606 -0.5903 0.4798 0
M  V30 4 C 1.7393 -0.342 0.0439 0
M  V30 5 N 2.8269 -0.1464 -0.2996 0
M  V30 6 H -2.2515 -0.2378 -0.0428 0
M  V30 7 H -0.1312 1.5128 0.6862 0
M  V30 8 H -0.5235 0.8221 -0.9305 0
M  V30 9 H 0.3574 -0.7829 1.5737 0
M  V30 10 H -0.0251 -1.4902 -0.0444 0
M  V30 END ATOM
M  V30 BEGIN BOND
M  V30 1 1 1 2
M  V30 2 1 2 3
M  V30 3 1 3 4
M  V30 4 3 4 5
M  V30 5 1 1 6
M  V30 6 1 2 7
M  V30 7 1 2 8
M  V30 8 1 3 9
M  V30 9 1 3 10
M  V30 END BOND
M  V30 END CTAB
M  END
>  <Structure No>
3474

>  <LogS>
1.1483

>  <MMFF94 Energy>
4.3427

$$$$
Compound 3475
Actelion Java MolfileCreator 2.0

  0  0  0  0  0  0              0 V3000
M  V30 BEGIN CTAB
M  V30 COUNTS 15 14 0 0 0
M  V30 BEGIN ATOM
M  V30 1 S 2.2304 0.2387 1.1943 0
M  V30 2 C 1.2552 0.7918 -0.2428 0
M  V30 3 C 0.3257 -0.3132 -0.7638 0
M  V30 4 C -0.7812 -0.718 0.2253 0
M  V30 5 C -1.8269 0.3782 0.4281 0
M  V30 6 H 2.9501 -0.7096 0.4428 0
M  V30 7 H 0.6771 1.6974 0.0311 0
M  V30 8 H 1.9606 1.0793 -1.0511 0
M  V30 9 H -0.139 0.0261 -1.715 0
M  V30 10 H 0.9355 -1.2109 -1.0035 0
M  V30 11 H -1.2962 -1.6159 -0.1795 0
M  V30 12 H -0.3456 -1.0025 1.2064 0
M  V30 13 H -2.6657 -0.0209 1.0364 0
M  V30 14 H -1.3913 1.2425 0.9702 0
M  V30 15 H -2.2307 0.7175 -0.5492 0
M  V30 END ATOM
M  V30 BEGIN BOND
M  V30 1 1 1 2
M  V30 2 1 2 3
M  V30 3 1 3 4
M  V30 4 1 4 5
M  V30 5 1 1 6
M  V30 6 1 2 7
M  V30 7 1 2 8
M  V30 8 1 3 9
M  V30 9 1 3 10
M  V30 10 1 4 11
M  V30 11 1 4 12
M  V30 12 1 5 13
M  V30 13 1 5 14
M  V30 14 1 5 15
M  V30 END BOND
M  V30 END CTAB
M  END
>  <Structure No>
3475

>  <LogS>
-2.1792

>  <MMFF94 Energy>
-1.0334

$$$$
Compound 3476
Actelion Java MolfileCreator 2.0

  0  0  0  0  0  0              0 V3000
M  V30 BEGIN CTAB
M  V30 COUNTS 14 13 0 0 0
M  V30 BEGIN ATOM
M  V30 1 O 2.2294 0.6684 0.0742 0
M  V30 2 C 1.6196 -0.5777 0.2766 0
M  V30 3 C 0.1834 -0.4018 0.7729 0
M  V30 4 N -0.6065 0.3553 -0.2076 0
M  V30 5 N -1.8958 0.6063 0.3097 0 CHG=1
M  V30 6 H 2.4572 1.0225 0.9734 0
M  V30 7 H 1.6146 -1.1352 -0.6839 0
M  V30 8 H 2.2009 -1.178 1.0127 0
M  V30 9 H 0.206 0.1376 1.7456 0
M  V30 10 H -0.2677 -1.4059 0.9373 0
M  V30 11 H -0.7174 -0.2387 -1.0643 0
M  V30 12 H -2.3817 -0.294 0.5345 0
M  V30 13 H -2.4455 1.1218 -0.4151 0
M  V30 14 H -1.8206 1.212 1.1596 0
M  V30 END ATOM
M  V30 BEGIN BOND
M  V30 1 1 1 2
M  V30 2 1 2 3
M  V30 3 1 3 4
M  V30 4 1 4 5
M  V30 5 1 1 6
M  V30 6 1 2 7
M  V30 7 1 2 8
M  V30 8 1 3 9
M  V30 9 1 3 10
M  V30 10 1 4 11
M  V30 11 1 5 12
M  V30 12 1 5 13
M  V30 13 1 5 14
M  V30 END BOND
M  V30 END CTAB
M  END
>  <Structure No>
3476

>  <LogS>
1.1186

>  <MMFF94 Energy>
98.732

$$$$
Compound 3477
Actelion Java MolfileCreator 2.0

  0  0  0  0  0  0              0 V3000
M  V30 BEGIN CTAB
M  V30 COUNTS 13 12 0 0 0
M  V30 BEGIN ATOM
M  V30 1 O -0.6811 -0.6054 0.6054 0
M  V30 2 C 0.0061 0.0644 -0.4301 0
M  V30 3 C -2.0279 -0.1887 0.6168 0
M  V30 4 C 1.4631 -0.3806 -0.4404 0
M  V30 5 O 2.0747 -0.0334 0.7707 0
M  V30 6 H -0.4379 -0.1835 -1.4213 0
M  V30 7 H -0.0239 1.1683 -0.2797 0
M  V30 8 H -2.5377 -0.4447 -0.3386 0
M  V30 9 H -2.5565 -0.7237 1.4323 0
M  V30 10 H -2.1108 0.9018 0.822 0
M  V30 11 H 1.5117 -1.4828 -0.5882 0
M  V30 12 H 1.99 0.1188 -1.2837 0
M  V30 13 H 3.0131 -0.349 0.7048 0
M  V30 END ATOM
M  V30 BEGIN BOND
M  V30 1 1 1 2
M  V30 2 1 1 3
M  V30 3 1 2 4
M  V30 4 1 4 5
M  V30 5 1 2 6
M  V30 6 1 2 7
M  V30 7 1 3 8
M  V30 8 1 3 9
M  V30 9 1 3 10
M  V30 10 1 4 11
M  V30 11 1 4 12
M  V30 12 1 5 13
M  V30 END BOND
M  V30 END CTAB
M  END
>  <Structure No>
3477

>  <LogS>
1.1186

>  <MMFF94 Energy>
25.089

$$$$
Compound 3478
Actelion Java MolfileCreator 2.0

  0  0  0  0  0  0              0 V3000
M  V30 BEGIN CTAB
M  V30 COUNTS 20 19 0 0 0
M  V30 BEGIN ATOM
M  V30 1 O 2.6323 -1.1606 -0.9284 0
M  V30 2 C 2.3277 -0.0773 -0.3591 0
M  V30 3 O 1.0157 0.1679 0.0547 0
M  V30 4 C 3.3871 0.9336 -0.08 0
M  V30 5 C -0.045 -0.7582 -0.1633 0
M  V30 6 C -1.3599 -0.1938 0.3958 0
M  V30 7 C -1.7644 1.0917 -0.3376 0
M  V30 8 C -2.4772 -1.2386 0.2933 0
M  V30 9 H 2.9298 1.9378 0.0436 0
M  V30 10 H 4.1102 0.9704 -0.9218 0
M  V30 11 H 3.9228 0.6601 0.8525 0
M  V30 12 H 0.1984 -1.7132 0.3521 0
M  V30 13 H -0.1487 -0.9587 -1.2527 0
M  V30 14 H -1.2108 0.048 1.4715 0
M  V30 15 H -0.9794 1.8683 -0.2182 0
M  V30 16 H -2.7093 1.4932 0.0868 0
M  V30 17 H -1.9134 0.8951 -1.4211 0
M  V30 18 H -2.6596 -1.5153 -0.7673 0
M  V30 19 H -3.4183 -0.8372 0.7266 0
M  V30 20 H -2.2005 -2.1529 0.8604 0
M  V30 END ATOM
M  V30 BEGIN BOND
M  V30 1 2 1 2
M  V30 2 1 2 3
M  V30 3 1 2 4
M  V30 4 1 3 5
M  V30 5 1 5 6
M  V30 6 1 6 7
M  V30 7 1 6 8
M  V30 8 1 4 9
M  V30 9 1 4 10
M  V30 10 1 4 11
M  V30 11 1 5 12
M  V30 12 1 5 13
M  V30 13 1 6 14
M  V30 14 1 7 15
M  V30 15 1 7 16
M  V30 16 1 7 17
M  V30 17 1 8 18
M  V30 18 1 8 19
M  V30 19 1 8 20
M  V30 END BOND
M  V30 END CTAB
M  END
>  <Structure No>
3478

>  <LogS>
-1.2657

>  <MMFF94 Energy>
-6.7521

$$$$
Compound 3479
Actelion Java MolfileCreator 2.0

  0  0  0  0  0  0              0 V3000
M  V30 BEGIN CTAB
M  V30 COUNTS 17 16 0 0 0
M  V30 BEGIN ATOM
M  V30 1 O 2.4553 -1.3805 1.0736 0
M  V30 2 C 2.3455 -0.4045 0.2839 0
M  V30 3 N 1.0517 0.0662 -0.0997 0
M  V30 4 N 3.5186 0.2281 -0.225 0
M  V30 5 N -0.1025 -0.5602 0.4044 0
M  V30 6 C -1.3209 -0.2037 0.1135 0
M  V30 7 C -2.4473 -0.9737 0.7337 0
M  V30 8 C -1.6126 0.9447 -0.8161 0
M  V30 9 H 0.9901 0.8766 -0.7552 0
M  V30 10 H 4.4653 -0.1134 0.0534 0
M  V30 11 H 3.444 1.0376 -0.8799 0
M  V30 12 H -3.4372 -0.5844 0.4166 0
M  V30 13 H -2.38 -0.9035 1.8398 0
M  V30 14 H -2.3768 -2.0405 0.4344 0
M  V30 15 H -1.1797 1.8807 -0.4049 0
M  V30 16 H -1.1765 0.7392 -1.8161 0
M  V30 17 H -2.7043 1.099 -0.9433 0
M  V30 END ATOM
M  V30 BEGIN BOND
M  V30 1 2 1 2
M  V30 2 1 2 3
M  V30 3 1 2 4
M  V30 4 1 3 5
M  V30 5 2 5 6
M  V30 6 1 6 7
M  V30 7 1 6 8
M  V30 8 1 3 9
M  V30 9 1 4 10
M  V30 10 1 4 11
M  V30 11 1 7 12
M  V30 12 1 7 13
M  V30 13 1 7 14
M  V30 14 1 8 15
M  V30 15 1 8 16
M  V30 16 1 8 17
M  V30 END BOND
M  V30 END CTAB
M  END
>  <Structure No>
3479

>  <LogS>
-0.2674

>  <MMFF94 Energy>
-19.548

$$$$
Compound 3480
Actelion Java MolfileCreator 2.0

  0  0  0  0  0  0              0 V3000
M  V30 BEGIN CTAB
M  V30 COUNTS 38 37 0 0 0
M  V30 BEGIN ATOM
M  V30 1 O 4.4428 2.0246 0.3112 0
M  V30 2 C 3.5037 1.2023 0.4918 0
M  V30 3 O 3.7622 -0.168 0.6064 0
M  V30 4 C 2.0903 1.6876 0.5407 0
M  V30 5 C 5.0638 -0.7346 0.4729 0
M  V30 6 C 1.4601 1.6375 -0.857 0
M  V30 7 C 5.4799 -0.7836 -0.9925 0
M  V30 8 C -0.0259 2.054 -0.8409 0
M  V30 9 C -1.0002 0.8686 -0.9515 0
M  V30 10 C -0.9632 -0.0503 0.2803 0
M  V30 11 C -2.0051 -1.1781 0.2065 0
M  V30 12 C -3.4315 -0.6875 0.4977 0
M  V30 13 C -4.418 -1.8606 0.5301 0
M  V30 14 C -5.8386 -1.3797 0.8119 0
M  V30 15 H 2.0703 2.7315 0.9237 0
M  V30 16 H 1.519 1.0546 1.2503 0
M  V30 17 H 5.0408 -1.7706 0.8718 0
M  V30 18 H 5.803 -0.153 1.0656 0
M  V30 19 H 1.5794 0.6213 -1.2942 0
M  V30 20 H 2.0193 2.3404 -1.5137 0
M  V30 21 H 4.7336 -1.3603 -1.5787 0
M  V30 22 H 6.4696 -1.2783 -1.0832 0
M  V30 23 H 5.5548 0.2426 -1.4085 0
M  V30 24 H -0.2093 2.7144 -1.7168 0
M  V30 25 H -0.2675 2.6579 0.0616 0
M  V30 26 H -2.0206 1.2882 -1.0715 0
M  V30 27 H -0.7698 0.2808 -1.8669 0
M  V30 28 H 0.0379 -0.5271 0.3388 0
M  V30 29 H -1.1132 0.5441 1.2081 0
M  V30 30 H -1.9665 -1.6639 -0.7933 0
M  V30 31 H -1.7325 -1.946 0.9635 0
M  V30 32 H -3.7525 0.0283 -0.2881 0
M  V30 33 H -3.4503 -0.1668 1.4805 0
M  V30 34 H -4.4046 -2.3884 -0.4483 0
M  V30 35 H -4.1195 -2.5807 1.3229 0
M  V30 36 H -6.1732 -0.6779 0.0183 0
M  V30 37 H -5.8847 -0.8685 1.7971 0
M  V30 38 H -6.5287 -2.2493 0.8306 0
M  V30 END ATOM
M  V30 BEGIN BOND
M  V30 1 2 1 2
M  V30 2 1 2 3
M  V30 3 1 2 4
M  V30 4 1 3 5
M  V30 5 1 4 6
M  V30 6 1 5 7
M  V30 7 1 6 8
M  V30 8 1 8 9
M  V30 9 1 9 10
M  V30 10 1 10 11
M  V30 11 1 11 12
M  V30 12 1 12 13
M  V30 13 1 13 14
M  V30 14 1 4 15
M  V30 15 1 4 16
M  V30 16 1 5 17
M  V30 17 1 5 18
M  V30 18 1 6 19
M  V30 19 1 6 20
M  V30 20 1 7 21
M  V30 21 1 7 22
M  V30 22 1 7 23
M  V30 23 1 8 24
M  V30 24 1 8 25
M  V30 25 1 9 26
M  V30 26 1 9 27
M  V30 27 1 10 28
M  V30 28 1 10 29
M  V30 29 1 11 30
M  V30 30 1 11 31
M  V30 31 1 12 32
M  V30 32 1 12 33
M  V30 33 1 13 34
M  V30 34 1 13 35
M  V30 35 1 14 36
M  V30 36 1 14 37
M  V30 37 1 14 38
M  V30 END BOND
M  V30 END CTAB
M  END
>  <Structure No>
3480

>  <LogS>
-4.1006

>  <MMFF94 Energy>
-11.279

$$$$
Compound 3481
Actelion Java MolfileCreator 2.0

  0  0  0  0  0  0              0 V3000
M  V30 BEGIN CTAB
M  V30 COUNTS 44 43 0 0 0
M  V30 BEGIN ATOM
M  V30 1 O -4.3917 -0.1565 -2.8999 0
M  V30 2 C -4.5365 0.4076 -1.7813 0
M  V30 3 O -5.6611 0.1507 -0.9919 0
M  V30 4 C -3.4719 1.3237 -1.2665 0
M  V30 5 C -6.7022 -0.7294 -1.4036 0
M  V30 6 C -2.4565 0.5441 -0.4257 0
M  V30 7 C -7.7735 -0.7896 -0.3262 0
M  V30 8 C -1.3811 1.4777 0.1414 0
M  V30 9 C -0.3552 0.697 0.9713 0
M  V30 10 C 0.7082 1.6372 1.5586 0
M  V30 11 C 1.6686 0.9239 2.5275 0
M  V30 12 C 2.5247 -0.1871 1.8932 0
M  V30 13 C 3.4541 0.3318 0.7884 0
M  V30 14 C 4.3969 -0.744 0.3521 0
M  V30 15 O 4.0606 -1.533 -0.5721 0
M  V30 16 O 5.6193 -0.8975 1.0167 0
M  V30 17 C 6.5912 -1.8764 0.6546 0
M  V30 18 C 7.3466 -1.4456 -0.5984 0
M  V30 19 H -3.9462 2.1163 -0.6468 0
M  V30 20 H -2.9585 1.8136 -2.1234 0
M  V30 21 H -6.2891 -1.7484 -1.5681 0
M  V30 22 H -7.1535 -0.3609 -2.3505 0
M  V30 23 H -1.9746 -0.2333 -1.0598 0
M  V30 24 H -2.9834 0.0385 0.4136 0
M  V30 25 H -8.2016 0.222 -0.1599 0
M  V30 26 H -7.3346 -1.1595 0.6259 0
M  V30 27 H -8.5857 -1.4792 -0.6428 0
M  V30 28 H -0.8598 1.9914 -0.6953 0
M  V30 29 H -1.8663 2.2471 0.7813 0
M  V30 30 H -0.8773 0.1672 1.7986 0
M  V30 31 H 0.1323 -0.0556 0.316 0
M  V30 32 H 1.2772 2.1287 0.7405 0
M  V30 33 H 0.1968 2.4445 2.128 0
M  V30 34 H 1.0777 0.4837 3.3599 0
M  V30 35 H 2.3443 1.6828 2.9779 0
M  V30 36 H 1.8755 -0.9954 1.4949 0
M  V30 37 H 3.1439 -0.6363 2.7022 0
M  V30 38 H 4.043 1.1975 1.1633 0
M  V30 39 H 2.859 0.6645 -0.0893 0
M  V30 40 H 6.1056 -2.866 0.4946 0
M  V30 41 H 7.3162 -1.98 1.4909 0
M  V30 42 H 8.1272 -2.198 -0.8376 0
M  V30 43 H 7.8335 -0.4603 -0.4282 0
M  V30 44 H 6.653 -1.3643 -1.4628 0
M  V30 END ATOM
M  V30 BEGIN BOND
M  V30 1 2 1 2
M  V30 2 1 2 3
M  V30 3 1 2 4
M  V30 4 1 3 5
M  V30 5 1 4 6
M  V30 6 1 5 7
M  V30 7 1 6 8
M  V30 8 1 8 9
M  V30 9 1 9 10
M  V30 10 1 10 11
M  V30 11 1 11 12
M  V30 12 1 12 13
M  V30 13 1 13 14
M  V30 14 2 14 15
M  V30 15 1 14 16
M  V30 16 1 16 17
M  V30 17 1 17 18
M  V30 18 1 4 19
M  V30 19 1 4 20
M  V30 20 1 5 21
M  V30 21 1 5 22
M  V30 22 1 6 23
M  V30 23 1 6 24
M  V30 24 1 7 25
M  V30 25 1 7 26
M  V30 26 1 7 27
M  V30 27 1 8 28
M  V30 28 1 8 29
M  V30 29 1 9 30
M  V30 30 1 9 31
M  V30 31 1 10 32
M  V30 32 1 10 33
M  V30 33 1 11 34
M  V30 34 1 11 35
M  V30 35 1 12 36
M  V30 36 1 12 37
M  V30 37 1 13 38
M  V30 38 1 13 39
M  V30 39 1 17 40
M  V30 40 1 17 41
M  V30 41 1 18 42
M  V30 42 1 18 43
M  V30 43 1 18 44
M  V30 END BOND
M  V30 END CTAB
M  END
>  <Structure No>
3481

>  <LogS>
-3.5091

>  <MMFF94 Energy>
-20.599

$$$$
Compound 3482
Actelion Java MolfileCreator 2.0

  0  0  0  0  0  0              0 V3000
M  V30 BEGIN CTAB
M  V30 COUNTS 20 19 0 0 0
M  V30 BEGIN ATOM
M  V30 1 O 2.7906 -0.5421 1.7821 0
M  V30 2 C 3.2925 0.2165 0.9103 0
M  V30 3 O 2.6713 0.4077 -0.3277 0
M  V30 4 C 1.4237 -0.1878 -0.6796 0
M  V30 5 C 0.2664 0.537 0.0217 0
M  V30 6 C -1.1204 0.0846 -0.4866 0
M  V30 7 C -1.4282 -1.3678 -0.0923 0
M  V30 8 C -2.2101 1.0148 0.062 0
M  V30 9 H 4.2239 0.724 1.1198 0
M  V30 10 H 1.4376 -1.2668 -0.4165 0
M  V30 11 H 1.2979 -0.1013 -1.7797 0
M  V30 12 H 0.3842 1.6267 -0.1687 0
M  V30 13 H 0.3353 0.3791 1.12 0
M  V30 14 H -1.1419 0.1597 -1.5966 0
M  V30 15 H -1.3448 -1.5025 1.0074 0
M  V30 16 H -0.7314 -2.0671 -0.5981 0
M  V30 17 H -2.4577 -1.6415 -0.4078 0
M  V30 18 H -3.206 0.7135 -0.3273 0
M  V30 19 H -2.2328 0.9792 1.1726 0
M  V30 20 H -2.0206 2.0611 -0.2596 0
M  V30 END ATOM
M  V30 BEGIN BOND
M  V30 1 2 1 2
M  V30 2 1 2 3
M  V30 3 1 3 4
M  V30 4 1 4 5
M  V30 5 1 5 6
M  V30 6 1 6 7
M  V30 7 1 6 8
M  V30 8 1 2 9
M  V30 9 1 4 10
M  V30 10 1 4 11
M  V30 11 1 5 12
M  V30 12 1 5 13
M  V30 13 1 6 14
M  V30 14 1 7 15
M  V30 15 1 7 16
M  V30 16 1 7 17
M  V30 17 1 8 18
M  V30 18 1 8 19
M  V30 19 1 8 20
M  V30 END BOND
M  V30 END CTAB
M  END
>  <Structure No>
3482

>  <LogS>
-1.5206

>  <MMFF94 Energy>
-5.4667

$$$$
Compound 3483
Actelion Java MolfileCreator 2.0

  0  0  0  0  0  0              0 V3000
M  V30 BEGIN CTAB
M  V30 COUNTS 18 17 0 0 0
M  V30 BEGIN ATOM
M  V30 1 O 1.703 -0.3094 1.6256 0
M  V30 2 C 2.0624 0.0616 0.4753 0
M  V30 3 O 1.3059 -0.2689 -0.6546 0
M  V30 4 C 3.2879 0.8961 0.3197 0
M  V30 5 C 0.085 -1.0043 -0.595 0
M  V30 6 C -1.0589 -0.1124 -0.1192 0
M  V30 7 O -2.2593 -0.8549 -0.1338 0
M  V30 8 C -3.3214 -0.0341 0.2976 0
M  V30 9 H 3.0451 1.9552 0.5455 0
M  V30 10 H 4.0789 0.5443 1.0153 0
M  V30 11 H 3.6675 0.8232 -0.7208 0
M  V30 12 H -0.15 -1.3766 -1.6147 0
M  V30 13 H 0.1967 -1.8846 0.0752 0
M  V30 14 H -0.8313 0.2433 0.9112 0
M  V30 15 H -1.1281 0.7624 -0.8058 0
M  V30 16 H -4.2574 -0.6294 0.2809 0
M  V30 17 H -3.4632 0.8338 -0.384 0
M  V30 18 H -3.1633 0.3137 1.3428 0
M  V30 END ATOM
M  V30 BEGIN BOND
M  V30 1 2 1 2
M  V30 2 1 2 3
M  V30 3 1 2 4
M  V30 4 1 3 5
M  V30 5 1 5 6
M  V30 6 1 6 7
M  V30 7 1 7 8
M  V30 8 1 4 9
M  V30 9 1 4 10
M  V30 10 1 4 11
M  V30 11 1 5 12
M  V30 12 1 5 13
M  V30 13 1 6 14
M  V30 14 1 6 15
M  V30 15 1 8 16
M  V30 16 1 8 17
M  V30 17 1 8 18
M  V30 END BOND
M  V30 END CTAB
M  END
>  <Structure No>
3483

>  <LogS>
0.9276

>  <MMFF94 Energy>
9.2804

$$$$
Compound 3484
Actelion Java MolfileCreator 2.0

  0  0  0  0  0  0              0 V3000
M  V30 BEGIN CTAB
M  V30 COUNTS 14 13 0 0 0
M  V30 BEGIN ATOM
M  V30 1 Cl -2.5443 1.3946 -0.164 0
M  V30 2 C -1.9028 -0.2283 -0.5359 0
M  V30 3 C -0.3767 -0.2109 -0.6498 0
M  V30 4 C 0.2985 0.02 0.7113 0
M  V30 5 C 1.8248 -0.0324 0.6092 0
M  V30 6 Cl 2.4648 1.3779 -0.2769 0
M  V30 7 H -2.2267 -0.9434 0.2499 0
M  V30 8 H -2.3365 -0.5568 -1.5038 0
M  V30 9 H -0.0459 -1.1908 -1.058 0
M  V30 10 H -0.0745 0.5798 -1.3698 0
M  V30 11 H -0.0314 -0.7708 1.4196 0
M  V30 12 H -0.0044 1.0037 1.1305 0
M  V30 13 H 2.1492 -0.9662 0.1028 0
M  V30 14 H 2.2586 -0.0231 1.6313 0
M  V30 END ATOM
M  V30 BEGIN BOND
M  V30 1 1 1 2
M  V30 2 1 2 3
M  V30 3 1 3 4
M  V30 4 1 4 5
M  V30 5 1 5 6
M  V30 6 1 2 7
M  V30 7 1 2 8
M  V30 8 1 3 9
M  V30 9 1 3 10
M  V30 10 1 4 11
M  V30 11 1 4 12
M  V30 12 1 5 13
M  V30 13 1 5 14
M  V30 END BOND
M  V30 END CTAB
M  END
>  <Structure No>
3484

>  <LogS>
-0.92

>  <MMFF94 Energy>
-1.8274

$$$$
Compound 3485
Actelion Java MolfileCreator 2.0

  0  0  0  0  0  0              0 V3000
M  V30 BEGIN CTAB
M  V30 COUNTS 12 11 0 0 0
M  V30 BEGIN ATOM
M  V30 1 Cl -2.1804 1.4252 1.3413 0
M  V30 2 C -1.841 -0.0721 0.5413 0
M  V30 3 C -0.5367 -0.3639 -0.0011 0
M  V30 4 C 0.5388 -0.6046 -0.4487 0
M  V30 5 C 1.8014 0.2081 -0.5013 0
M  V30 6 Cl 3.0514 -0.6882 0.3684 0
M  V30 7 H -2.6425 -0.1684 -0.2817 0
M  V30 8 H -2.1171 -0.9373 1.2475 0
M  V30 9 H -0.0863 0.8867 0.4471 0
M  V30 10 H 0.7321 -1.6266 -0.9497 0
M  V30 11 H 2.0676 0.3978 -1.577 0
M  V30 12 H 1.636 1.1966 0.0208 0
M  V30 END ATOM
M  V30 BEGIN BOND
M  V30 1 1 1 2
M  V30 2 1 2 3
M  V30 3 2 3 4
M  V30 4 1 4 5
M  V30 5 1 5 6
M  V30 6 1 2 7
M  V30 7 1 2 8
M  V30 8 1 3 9
M  V30 9 1 4 10
M  V30 10 1 5 11
M  V30 11 1 5 12
M  V30 END BOND
M  V30 END CTAB
M  END
>  <Structure No>
3485

>  <LogS>
-2.1675

>  <MMFF94 Energy>
9.0635

$$$$
Compound 3486
Actelion Java MolfileCreator 2.0

  0  0  0  0  0  0              0 V3000
M  V30 BEGIN CTAB
M  V30 COUNTS 20 19 0 0 0
M  V30 BEGIN ATOM
M  V30 1 N -2.1929 0.8313 0.0755 0 CHG=1
M  V30 2 C -1.6289 -0.2963 0.8202 0
M  V30 3 C -0.758 -1.2064 -0.0664 0
M  V30 4 C 0.4546 -0.5097 -0.7083 0
M  V30 5 C 1.4633 0.007 0.3277 0
M  V30 6 C 2.7262 0.5323 -0.3489 0
M  V30 7 H -1.4469 1.5292 -0.145 0
M  V30 8 H -2.916 1.3013 0.667 0
M  V30 9 H -2.6453 0.4978 -0.8064 0
M  V30 10 H -2.4609 -0.9103 1.2311 0
M  V30 11 H -1.0446 0.0771 1.6885 0
M  V30 12 H -1.3919 -1.6292 -0.876 0
M  V30 13 H -0.4011 -2.063 0.5459 0
M  V30 14 H 0.9615 -1.2531 -1.3621 0
M  V30 15 H 0.1189 0.3231 -1.3622 0
M  V30 16 H 1.0135 0.8347 0.916 0
M  V30 17 H 1.7433 -0.8131 1.0241 0
M  V30 18 H 2.475 1.3645 -1.0409 0
M  V30 19 H 3.4308 0.911 0.4213 0
M  V30 20 H 3.2265 -0.2801 -0.9179 0
M  V30 END ATOM
M  V30 BEGIN BOND
M  V30 1 1 1 2
M  V30 2 1 2 3
M  V30 3 1 3 4
M  V30 4 1 4 5
M  V30 5 1 5 6
M  V30 6 1 1 7
M  V30 7 1 1 8
M  V30 8 1 1 9
M  V30 9 1 2 10
M  V30 10 1 2 11
M  V30 11 1 3 12
M  V30 12 1 3 13
M  V30 13 1 4 14
M  V30 14 1 4 15
M  V30 15 1 5 16
M  V30 16 1 5 17
M  V30 17 1 6 18
M  V30 18 1 6 19
M  V30 19 1 6 20
M  V30 END BOND
M  V30 END CTAB
M  END
>  <Structure No>
3486

>  <LogS>
1.0597

>  <MMFF94 Energy>
-2.1911

$$$$
Compound 3487
Actelion Java MolfileCreator 2.0

  0  0  0  0  0  0              0 V3000
M  V30 BEGIN CTAB
M  V30 COUNTS 18 17 0 0 0
M  V30 BEGIN ATOM
M  V30 1 S 3.7335 0.476 0.476 0
M  V30 2 C 2.2835 -0.3288 -0.2728 0
M  V30 3 C 0.9941 0.3291 0.2206 0
M  V30 4 C -0.2381 -0.3503 -0.3873 0
M  V30 5 C -1.5301 0.3099 0.1072 0
M  V30 6 C -2.7593 -0.3635 -0.4955 0
M  V30 7 H 3.5282 1.679 -0.2264 0
M  V30 8 H 2.2924 -1.4028 0.0105 0
M  V30 9 H 2.3572 -0.2489 -1.3785 0
M  V30 10 H 0.9483 0.255 1.3294 0
M  V30 11 H 0.9997 1.4045 -0.0625 0
M  V30 12 H -0.1889 -0.2773 -1.4962 0
M  V30 13 H -0.2429 -1.4259 -0.1033 0
M  V30 14 H -1.5879 0.2379 1.2153 0
M  V30 15 H -1.5342 1.3851 -0.1762 0
M  V30 16 H -2.7932 -1.4353 -0.2056 0
M  V30 17 H -3.6779 0.1348 -0.1202 0
M  V30 18 H -2.7392 -0.2831 -1.6032 0
M  V30 END ATOM
M  V30 BEGIN BOND
M  V30 1 1 1 2
M  V30 2 1 2 3
M  V30 3 1 3 4
M  V30 4 1 4 5
M  V30 5 1 5 6
M  V30 6 1 1 7
M  V30 7 1 2 8
M  V30 8 1 2 9
M  V30 9 1 3 10
M  V30 10 1 3 11
M  V30 11 1 4 12
M  V30 12 1 4 13
M  V30 13 1 5 14
M  V30 14 1 5 15
M  V30 15 1 6 16
M  V30 16 1 6 17
M  V30 17 1 6 18
M  V30 END BOND
M  V30 END CTAB
M  END
>  <Structure No>
3487

>  <LogS>
-2.8248

>  <MMFF94 Energy>
-1.518

$$$$
Compound 3488
Actelion Java MolfileCreator 2.0

  0  0  0  0  0  0              0 V3000
M  V30 BEGIN CTAB
M  V30 COUNTS 13 12 0 0 0
M  V30 BEGIN ATOM
M  V30 1 Cl 2.289 1.4992 1.1045 0
M  V30 2 C 2.1853 0.1537 -0.0605 0
M  V30 3 C 0.8688 -0.5952 0.1 0
M  V30 4 O -0.2201 0.2668 -0.2067 0
M  V30 5 C -1.5403 -0.1745 -0.136 0
M  V30 6 C -2.5336 0.6549 -0.427 0
M  V30 7 H 3.0321 -0.5412 0.1203 0
M  V30 8 H 2.268 0.5561 -1.0924 0
M  V30 9 H 0.8589 -1.4654 -0.5916 0
M  V30 10 H 0.7745 -0.9666 1.1439 0
M  V30 11 H -1.7621 -1.1943 0.1563 0
M  V30 12 H -3.5597 0.3152 -0.373 0
M  V30 13 H -2.3282 1.6764 -0.7203 0
M  V30 END ATOM
M  V30 BEGIN BOND
M  V30 1 1 1 2
M  V30 2 1 2 3
M  V30 3 1 3 4
M  V30 4 1 4 5
M  V30 5 2 5 6
M  V30 6 1 2 7
M  V30 7 1 2 8
M  V30 8 1 3 9
M  V30 9 1 3 10
M  V30 10 1 5 11
M  V30 11 1 6 12
M  V30 12 1 6 13
M  V30 END BOND
M  V30 END CTAB
M  END
>  <Structure No>
3488

>  <LogS>
-2.3951

>  <MMFF94 Energy>
17.421

$$$$
Compound 3489
Actelion Java MolfileCreator 2.0

  0  0  0  0  0  0              0 V3000
M  V30 BEGIN CTAB
M  V30 COUNTS 16 15 0 0 0
M  V30 BEGIN ATOM
M  V30 1 O -0.2285 0.3809 0.3809 0
M  V30 2 C -0.3884 -0.0021 -0.9695 0
M  V30 3 C 1.0965 0.8165 0.6205 0
M  V30 4 C -1.7805 -0.5948 -1.17 0
M  V30 5 C 1.9255 -0.317 1.2138 0
M  V30 6 O -2.7666 0.3756 -0.9414 0
M  V30 7 H 0.3601 -0.7755 -1.2558 0
M  V30 8 H -0.2788 0.8804 -1.6399 0
M  V30 9 H 1.6064 1.2293 -0.2824 0
M  V30 10 H 1.0569 1.6409 1.3635 0
M  V30 11 H -1.9251 -1.4718 -0.4981 0
M  V30 12 H -1.8727 -0.9518 -2.2177 0
M  V30 13 H 2.0237 -1.147 0.4835 0
M  V30 14 H 2.9401 0.0553 1.4688 0
M  V30 15 H 1.4406 -0.6996 2.1369 0
M  V30 16 H -2.8919 0.4297 0.0419 0
M  V30 END ATOM
M  V30 BEGIN BOND
M  V30 1 1 1 2
M  V30 2 1 1 3
M  V30 3 1 2 4
M  V30 4 1 3 5
M  V30 5 1 4 6
M  V30 6 1 2 7
M  V30 7 1 2 8
M  V30 8 1 3 9
M  V30 9 1 3 10
M  V30 10 1 4 11
M  V30 11 1 4 12
M  V30 12 1 5 13
M  V30 13 1 5 14
M  V30 14 1 5 15
M  V30 15 1 6 16
M  V30 END BOND
M  V30 END CTAB
M  END
>  <Structure No>
3489

>  <LogS>
1.0452

>  <MMFF94 Energy>
20.731

$$$$
Compound 3490
Actelion Java MolfileCreator 2.0

  0  0  0  0  0  0              0 V3000
M  V30 BEGIN CTAB
M  V30 COUNTS 17 17 0 0 0
M  V30 BEGIN ATOM
M  V30 1 N 1.0035 0.7718 -0.3858 0 CHG=1
M  V30 2 C -0.3109 1.3093 -0.0082 0
M  V30 3 C 1.2779 -0.4909 0.3133 0
M  V30 4 C -1.4186 0.2797 -0.2793 0
M  V30 5 C 0.1668 -1.5165 0.0414 0
M  V30 6 N -1.1486 -0.9835 0.4193 0
M  V30 7 H 1.7411 1.4687 -0.1299 0
M  V30 8 H 1.0383 0.6178 -1.4212 0
M  V30 9 H -0.3146 1.5879 1.0697 0
M  V30 10 H -0.5188 2.2301 -0.596 0
M  V30 11 H 2.2487 -0.9057 -0.036 0
M  V30 12 H 1.3613 -0.3108 1.4088 0
M  V30 13 H -2.3919 0.6893 0.067 0
M  V30 14 H -1.5027 0.0938 -1.3726 0
M  V30 15 H 0.1641 -1.7947 -1.0353 0
M  V30 16 H 0.3697 -2.4396 0.6258 0
M  V30 17 H -1.1567 -0.8061 1.4517 0
M  V30 END ATOM
M  V30 BEGIN BOND
M  V30 1 1 1 2
M  V30 2 1 1 3
M  V30 3 1 2 4
M  V30 4 1 3 5
M  V30 5 1 4 6
M  V30 6 1 5 6
M  V30 7 1 1 7
M  V30 8 1 1 8
M  V30 9 1 2 9
M  V30 10 1 2 10
M  V30 11 1 3 11
M  V30 12 1 3 12
M  V30 13 1 4 13
M  V30 14 1 4 14
M  V30 15 1 5 15
M  V30 16 1 5 16
M  V30 17 1 6 17
M  V30 END BOND
M  V30 END CTAB
M  END
>  <Structure No>
3490

>  <LogS>
1.0648

>  <MMFF94 Energy>
80.018

$$$$
Compound 3491
Actelion Java MolfileCreator 2.0

  0  0  0  0  0  0              0 V3000
M  V30 BEGIN CTAB
M  V30 COUNTS 16 16 0 0 0
M  V30 BEGIN ATOM
M  V30 1 O 1.3176 -0.6974 0.6974 0
M  V30 2 C 1.481 0.3801 -0.2045 0
M  V30 3 C 0.171 -1.4466 0.3434 0
M  V30 4 C 0.2759 1.3296 -0.1407 0
M  V30 5 C -1.0932 -0.5797 0.4318 0
M  V30 6 N -0.966 0.6011 -0.4325 0 CHG=1
M  V30 7 H 1.6329 0.0098 -1.2438 0
M  V30 8 H 2.3939 0.9438 0.0807 0
M  V30 9 H 0.2779 -1.8797 -0.6772 0
M  V30 10 H 0.0712 -2.2953 1.0523 0
M  V30 11 H 0.4126 2.1483 -0.881 0
M  V30 12 H 0.219 1.7883 0.872 0
M  V30 13 H -1.9746 -1.1807 0.1174 0
M  V30 14 H -1.2522 -0.2632 1.4873 0
M  V30 15 H -1.7822 1.2355 -0.269 0
M  V30 16 H -0.971 0.3037 -1.4368 0
M  V30 END ATOM
M  V30 BEGIN BOND
M  V30 1 1 1 2
M  V30 2 1 1 3
M  V30 3 1 2 4
M  V30 4 1 3 5
M  V30 5 1 4 6
M  V30 6 1 5 6
M  V30 7 1 2 7
M  V30 8 1 2 8
M  V30 9 1 3 9
M  V30 10 1 3 10
M  V30 11 1 4 11
M  V30 12 1 4 12
M  V30 13 1 5 13
M  V30 14 1 5 14
M  V30 15 1 6 15
M  V30 16 1 6 16
M  V30 END BOND
M  V30 END CTAB
M  END
>  <Structure No>
3491

>  <LogS>
1.0599

>  <MMFF94 Energy>
68.373

$$$$
Compound 3492
Actelion Java MolfileCreator 2.0

  0  0  0  0  0  0              0 V3000
M  V30 BEGIN CTAB
M  V30 COUNTS 29 28 0 0 0
M  V30 BEGIN ATOM
M  V30 1 N -0.0765 -0.4595 1.1492 0 CHG=1
M  V30 2 C -1.3125 -0.6342 0.3352 0 CFG=1
M  V30 3 C 1.2287 -0.3679 0.4402 0 CFG=1
M  V30 4 C -1.8918 0.7074 -0.1955 0
M  V30 5 C -1.1609 -1.678 -0.7854 0
M  V30 6 C 1.3431 0.9261 -0.4068 0
M  V30 7 C 2.3686 -0.4465 1.4779 0
M  V30 8 C -3.4209 0.7015 -0.2331 0
M  V30 9 C 2.7173 1.1254 -1.0504 0
M  V30 10 H -0.0305 -1.2934 1.7825 0
M  V30 11 H -0.1864 0.3666 1.7831 0
M  V30 12 H -2.0785 -1.0583 1.0271 0
M  V30 13 H 1.3607 -1.2452 -0.2286 0
M  V30 14 H -1.5407 0.9146 -1.2266 0
M  V30 15 H -1.5733 1.5548 0.4482 0
M  V30 16 H -0.5248 -1.2952 -1.6105 0
M  V30 17 H -2.1561 -1.93 -1.208 0
M  V30 18 H -0.7151 -2.6111 -0.3803 0
M  V30 19 H 0.6253 0.8736 -1.244 0
M  V30 20 H 1.0989 1.8153 0.2139 0
M  V30 21 H 2.2361 -1.3309 2.1364 0
M  V30 22 H 2.3844 0.467 2.1099 0
M  V30 23 H 3.3527 -0.5662 0.9791 0
M  V30 24 H -3.7867 1.6685 -0.6384 0
M  V30 25 H -3.8326 0.572 0.7904 0
M  V30 26 H -3.7917 -0.1169 -0.8849 0
M  V30 27 H 2.6627 1.951 -1.7914 0
M  V30 28 H 3.4726 1.4063 -0.2872 0
M  V30 29 H 3.0389 0.2008 -1.5752 0
M  V30 END ATOM
M  V30 BEGIN BOND
M  V30 1 1 1 2
M  V30 2 1 1 3
M  V30 3 1 2 4
M  V30 4 1 2 5
M  V30 5 1 3 6
M  V30 6 1 3 7
M  V30 7 1 4 8
M  V30 8 1 6 9
M  V30 9 1 1 10
M  V30 10 1 1 11
M  V30 11 1 2 12
M  V30 12 1 3 13
M  V30 13 1 4 14
M  V30 14 1 4 15
M  V30 15 1 5 16
M  V30 16 1 5 17
M  V30 17 1 5 18
M  V30 18 1 6 19
M  V30 19 1 6 20
M  V30 20 1 7 21
M  V30 21 1 7 22
M  V30 22 1 7 23
M  V30 23 1 8 24
M  V30 24 1 8 25
M  V30 25 1 8 26
M  V30 26 1 9 27
M  V30 27 1 9 28
M  V30 28 1 9 29
M  V30 END BOND
M  V30 BEGIN COLLECTION
M  V30 MDLV30/STEABS ATOMS=(2 2 3)
M  V30 END COLLECTION
M  V30 END CTAB
M  END
>  <Structure No>
3492

>  <LogS>
-1.769

>  <MMFF94 Energy>
7.5213

$$$$
Compound 3493
Actelion Java MolfileCreator 2.0

  0  0  0  0  0  0              0 V3000
M  V30 BEGIN CTAB
M  V30 COUNTS 13 12 0 0 0
M  V30 BEGIN ATOM
M  V30 1 O -2.1904 1.2976 1.1353 0
M  V30 2 C -1.9546 0.2575 0.4663 0
M  V30 3 O -2.364 -0.979 0.9483 0 CHG=-1
M  V30 4 C -1.2076 0.3497 -0.8268 0
M  V30 5 O 0.1437 0.6939 -0.591 0
M  V30 6 C 0.9201 -0.4692 -0.3951 0
M  V30 7 C 2.3078 -0.0661 -0.0239 0
M  V30 8 O 2.5984 0.1676 1.1786 0
M  V30 9 O 3.2699 0.106 -1.0108 0 CHG=-1
M  V30 10 H -1.3262 -0.591 -1.4143 0
M  V30 11 H -1.6677 1.1554 -1.4367 0
M  V30 12 H 0.9658 -1.0682 -1.3322 0
M  V30 13 H 0.5029 -1.1015 0.4218 0
M  V30 END ATOM
M  V30 BEGIN BOND
M  V30 1 2 1 2
M  V30 2 1 2 3
M  V30 3 1 2 4
M  V30 4 1 4 5
M  V30 5 1 5 6
M  V30 6 1 6 7
M  V30 7 2 7 8
M  V30 8 1 7 9
M  V30 9 1 4 10
M  V30 10 1 4 11
M  V30 11 1 6 12
M  V30 12 1 6 13
M  V30 END BOND
M  V30 END CTAB
M  END
>  <Structure No>
3493

>  <LogS>
0.4927

>  <MMFF94 Energy>
178.94

$$$$
Compound 3494
Actelion Java MolfileCreator 2.0

  0  0  0  0  0  0              0 V3000
M  V30 BEGIN CTAB
M  V30 COUNTS 22 21 0 0 0
M  V30 BEGIN ATOM
M  V30 1 O -2.6606 2.6606 0.4691 0
M  V30 2 C -2.8997 1.47 0.1361 0
M  V30 3 O -3.4857 1.2043 -1.0948 0 CHG=-1
M  V30 4 C -2.5195 0.3425 1.046 0
M  V30 5 C -1.0208 0.0243 0.9625 0
M  V30 6 C -0.6273 -0.562 -0.4044 0
M  V30 7 C 0.8264 -1.0589 -0.4378 0
M  V30 8 C 1.844 0.0907 -0.4078 0
M  V30 9 C 3.2679 -0.4317 -0.5747 0
M  V30 10 H -2.77 0.6262 2.0912 0
M  V30 11 H -3.1162 -0.561 0.7948 0
M  V30 12 H -0.779 -0.713 1.7586 0
M  V30 13 H -0.4405 0.9495 1.167 0
M  V30 14 H -0.7799 0.195 -1.2039 0
M  V30 15 H -1.2897 -1.4267 -0.6283 0
M  V30 16 H 0.9682 -1.639 -1.376 0
M  V30 17 H 1.0088 -1.7491 0.4149 0
M  V30 18 H 1.7808 0.6309 0.5603 0
M  V30 19 H 1.6269 0.8084 -1.2286 0
M  V30 20 H 3.9822 0.4177 -0.5396 0
M  V30 21 H 3.5173 -1.1398 0.244 0
M  V30 22 H 3.3782 -0.9473 -1.5525 0
M  V30 END ATOM
M  V30 BEGIN BOND
M  V30 1 2 1 2
M  V30 2 1 2 3
M  V30 3 1 2 4
M  V30 4 1 4 5
M  V30 5 1 5 6
M  V30 6 1 6 7
M  V30 7 1 7 8
M  V30 8 1 8 9
M  V30 9 1 4 10
M  V30 10 1 4 11
M  V30 11 1 5 12
M  V30 12 1 5 13
M  V30 13 1 6 14
M  V30 14 1 6 15
M  V30 15 1 7 16
M  V30 16 1 7 17
M  V30 17 1 8 18
M  V30 18 1 8 19
M  V30 19 1 9 20
M  V30 20 1 9 21
M  V30 21 1 9 22
M  V30 END BOND
M  V30 END CTAB
M  END
>  <Structure No>
3494

>  <LogS>
-1.6646

>  <MMFF94 Energy>
1.0639

$$$$
Compound 3495
Actelion Java MolfileCreator 2.0

  0  0  0  0  0  0              0 V3000
M  V30 BEGIN CTAB
M  V30 COUNTS 21 20 0 0 0
M  V30 BEGIN ATOM
M  V30 1 O 2.559 -0.8524 -1.5503 0
M  V30 2 C 2.4866 0.0377 -0.6598 0
M  V30 3 O 1.708 -0.1554 0.4867 0
M  V30 4 C 3.2075 1.3288 -0.8483 0
M  V30 5 C 0.9231 -1.3247 0.7165 0
M  V30 6 C -0.3464 -1.3037 -0.1315 0
M  V30 7 O -1.0906 -0.1424 0.1709 0
M  V30 8 C -2.2551 -0.1091 -0.6259 0
M  V30 9 C -3.0547 1.1399 -0.2884 0
M  V30 10 H 3.3666 1.8216 0.1337 0
M  V30 11 H 2.6046 1.9971 -1.4974 0
M  V30 12 H 4.1948 1.1483 -1.323 0
M  V30 13 H 1.5182 -2.2377 0.4964 0
M  V30 14 H 0.6382 -1.3544 1.7896 0
M  V30 15 H -0.9347 -2.2193 0.1058 0
M  V30 16 H -0.0601 -1.3253 -1.2073 0
M  V30 17 H -2.8969 -0.9977 -0.4278 0
M  V30 18 H -1.9934 -0.0725 -1.7081 0
M  V30 19 H -2.4459 2.0468 -0.4902 0
M  V30 20 H -3.9738 1.1773 -0.9105 0
M  V30 21 H -3.3454 1.127 0.7834 0
M  V30 END ATOM
M  V30 BEGIN BOND
M  V30 1 2 1 2
M  V30 2 1 2 3
M  V30 3 1 2 4
M  V30 4 1 3 5
M  V30 5 1 5 6
M  V30 6 1 6 7
M  V30 7 1 7 8
M  V30 8 1 8 9
M  V30 9 1 4 10
M  V30 10 1 4 11
M  V30 11 1 4 12
M  V30 12 1 5 13
M  V30 13 1 5 14
M  V30 14 1 6 15
M  V30 15 1 6 16
M  V30 16 1 8 17
M  V30 17 1 8 18
M  V30 18 1 9 19
M  V30 19 1 9 20
M  V30 20 1 9 21
M  V30 END BOND
M  V30 END CTAB
M  END
>  <Structure No>
3495

>  <LogS>
0.2716

>  <MMFF94 Energy>
6.0435

$$$$
Compound 3496
Actelion Java MolfileCreator 2.0

  0  0  0  0  0  0              0 V3000
M  V30 BEGIN CTAB
M  V30 COUNTS 30 29 0 0 0
M  V30 BEGIN ATOM
M  V30 1 O -6.283 -0.7936 -0.238 0
M  V30 2 C -5.6549 -0.1633 0.6528 0
M  V30 3 O -6.0845 -0.2249 1.9723 0 CHG=-1
M  V30 4 C -4.4207 0.6056 0.3024 0
M  V30 5 C -3.1815 -0.286 0.4209 0
M  V30 6 C -1.9082 0.4919 0.0687 0
M  V30 7 C -0.6671 -0.4003 0.187 0
M  V30 8 C 0.6061 0.3776 -0.165 0
M  V30 9 C 1.8473 -0.5147 -0.0467 0
M  V30 10 C 3.1206 0.2632 -0.3987 0
M  V30 11 C 4.3597 -0.6284 -0.2804 0
M  V30 12 C 5.5949 0.143 -0.6219 0
M  V30 13 O 6.0032 0.1911 -1.812 0
M  V30 14 O 6.2682 0.8505 0.3658 0 CHG=-1
M  V30 15 H -4.5103 0.9937 -0.7357 0
M  V30 16 H -4.3278 1.4738 0.9905 0
M  V30 17 H -3.1025 -0.6693 1.4625 0
M  V30 18 H -3.2854 -1.1534 -0.2681 0
M  V30 19 H -1.8046 1.3592 0.7577 0
M  V30 20 H -1.9877 0.8752 -0.9726 0
M  V30 21 H -0.7706 -1.2675 -0.5018 0
M  V30 22 H -0.5877 -0.7836 1.2284 0
M  V30 23 H 0.7096 1.2448 0.524 0
M  V30 24 H 0.5267 0.761 -1.2062 0
M  V30 25 H 1.9266 -0.898 0.9945 0
M  V30 26 H 1.7437 -1.3818 -0.7357 0
M  V30 27 H 3.2244 1.1308 0.2904 0
M  V30 28 H 3.0415 0.6467 -1.4403 0
M  V30 29 H 4.2669 -1.4986 -0.9664 0
M  V30 30 H 4.4494 -1.0134 0.7585 0
M  V30 END ATOM
M  V30 BEGIN BOND
M  V30 1 2 1 2
M  V30 2 1 2 3
M  V30 3 1 2 4
M  V30 4 1 4 5
M  V30 5 1 5 6
M  V30 6 1 6 7
M  V30 7 1 7 8
M  V30 8 1 8 9
M  V30 9 1 9 10
M  V30 10 1 10 11
M  V30 11 1 11 12
M  V30 12 2 12 13
M  V30 13 1 12 14
M  V30 14 1 4 15
M  V30 15 1 4 16
M  V30 16 1 5 17
M  V30 17 1 5 18
M  V30 18 1 6 19
M  V30 19 1 6 20
M  V30 20 1 7 21
M  V30 21 1 7 22
M  V30 22 1 8 23
M  V30 23 1 8 24
M  V30 24 1 9 25
M  V30 25 1 9 26
M  V30 26 1 10 27
M  V30 27 1 10 28
M  V30 28 1 11 29
M  V30 29 1 11 30
M  V30 END BOND
M  V30 END CTAB
M  END
>  <Structure No>
3496

>  <LogS>
-2.3059

>  <MMFF94 Energy>
32.436

$$$$
Compound 3497
Actelion Java MolfileCreator 2.0

  0  0  0  0  0  0              0 V3000
M  V30 BEGIN CTAB
M  V30 COUNTS 28 27 0 0 0
M  V30 BEGIN ATOM
M  V30 1 O -5.1131 -0.2392 0.1594 0
M  V30 2 N -5.1123 0.8535 0.7641 0 CHG=1
M  V30 3 O -3.9657 1.3368 1.3655 0
M  V30 4 O -6.282 1.5666 0.8725 0 CHG=-1
M  V30 5 C -2.7076 0.6737 1.2635 0
M  V30 6 C -2.0976 0.8935 -0.1215 0
M  V30 7 O -0.7993 0.3335 -0.1772 0
M  V30 8 C -0.8412 -0.9594 -0.7458 0
M  V30 9 C 0.5392 -1.5958 -0.6525 0
M  V30 10 O 1.4638 -0.818 -1.385 0
M  V30 11 C 2.7831 -1.2867 -1.1765 0
M  V30 12 C 3.4722 -0.4731 -0.0839 0
M  V30 13 O 3.4681 0.9075 -0.4334 0
M  V30 14 N 4.0241 1.8713 0.3842 0 CHG=1
M  V30 15 O 4.5569 1.5641 1.4711 0
M  V30 16 O 3.9886 3.189 -0.0039 0 CHG=-1
M  V30 17 H -2.8321 -0.4099 1.4733 0
M  V30 18 H -2.0236 1.096 2.0299 0
M  V30 19 H -2.0032 1.9874 -0.2888 0
M  V30 20 H -2.7815 0.5137 -0.9169 0
M  V30 21 H -1.5621 -1.6134 -0.2041 0
M  V30 22 H -1.1336 -0.9013 -1.8189 0
M  V30 23 H 0.4821 -2.6227 -1.0789 0
M  V30 24 H 0.8228 -1.6609 0.423 0
M  V30 25 H 2.8386 -2.3746 -0.9328 0
M  V30 26 H 3.3495 -1.1505 -2.1221 0
M  V30 27 H 2.9454 -0.6147 0.8836 0
M  V30 28 H 4.521 -0.8236 0.0264 0
M  V30 END ATOM
M  V30 BEGIN BOND
M  V30 1 2 1 2
M  V30 2 1 2 3
M  V30 3 1 2 4
M  V30 4 1 3 5
M  V30 5 1 5 6
M  V30 6 1 6 7
M  V30 7 1 7 8
M  V30 8 1 8 9
M  V30 9 1 9 10
M  V30 10 1 10 11
M  V30 11 1 11 12
M  V30 12 1 12 13
M  V30 13 1 13 14
M  V30 14 2 14 15
M  V30 15 1 14 16
M  V30 16 1 5 17
M  V30 17 1 5 18
M  V30 18 1 6 19
M  V30 19 1 6 20
M  V30 20 1 8 21
M  V30 21 1 8 22
M  V30 22 1 9 23
M  V30 23 1 9 24
M  V30 24 1 11 25
M  V30 25 1 11 26
M  V30 26 1 12 27
M  V30 27 1 12 28
M  V30 END BOND
M  V30 END CTAB
M  END
>  <Structure No>
3497

>  <LogS>
-1.561

>  <MMFF94 Energy>
9.8745

$$$$
Compound 3498
Actelion Java MolfileCreator 2.0

  0  0  0  0  0  0              0 V3000
M  V30 BEGIN CTAB
M  V30 COUNTS 23 22 0 0 0
M  V30 BEGIN ATOM
M  V30 1 N 0.0 -0.2234 0.4469 0 CHG=1
M  V30 2 C 1.2142 0.0427 -0.3388 0
M  V30 3 C -1.189 0.2974 -0.2444 0
M  V30 4 C 2.4586 -0.4997 0.38 0
M  V30 5 C -2.4599 0.0214 0.5733 0
M  V30 6 N 3.6691 -0.2374 -0.3976 0 CHG=1
M  V30 7 N -3.6454 0.5377 -0.1102 0 CHG=1
M  V30 8 H -0.1043 -1.2571 0.5804 0
M  V30 9 H 0.0858 0.2412 1.3818 0
M  V30 10 H 1.3355 1.1393 -0.49 0
M  V30 11 H 1.1344 -0.4443 -1.337 0
M  V30 12 H -1.2907 -0.1873 -1.2417 0
M  V30 13 H -1.0896 1.3964 -0.3947 0
M  V30 14 H 2.5508 -0.0167 1.3782 0
M  V30 15 H 2.3502 -1.5963 0.5333 0
M  V30 16 H -2.3713 0.5048 1.5717 0
M  V30 17 H -2.5719 -1.0748 0.7267 0
M  V30 18 H 3.7964 0.7926 -0.5279 0
M  V30 19 H 3.606 -0.7072 -1.3301 0
M  V30 20 H 4.4956 -0.6177 0.1174 0
M  V30 21 H -4.4908 0.3344 0.4706 0
M  V30 22 H -3.7545 0.0728 -1.0408 0
M  V30 23 H -3.5642 1.5725 -0.2386 0
M  V30 END ATOM
M  V30 BEGIN BOND
M  V30 1 1 1 2
M  V30 2 1 1 3
M  V30 3 1 2 4
M  V30 4 1 3 5
M  V30 5 1 4 6
M  V30 6 1 5 7
M  V30 7 1 1 8
M  V30 8 1 1 9
M  V30 9 1 2 10
M  V30 10 1 2 11
M  V30 11 1 3 12
M  V30 12 1 3 13
M  V30 13 1 4 14
M  V30 14 1 4 15
M  V30 15 1 5 16
M  V30 16 1 5 17
M  V30 17 1 6 18
M  V30 18 1 6 19
M  V30 19 1 6 20
M  V30 20 1 7 21
M  V30 21 1 7 22
M  V30 22 1 7 23
M  V30 END BOND
M  V30 END CTAB
M  END
>  <Structure No>
3498

>  <LogS>
0.9864

>  <MMFF94 Energy>
274.44

$$$$
Compound 3499
Actelion Java MolfileCreator 2.0

  0  0  0  0  0  0              0 V3000
M  V30 BEGIN CTAB
M  V30 COUNTS 20 19 0 0 0
M  V30 BEGIN ATOM
M  V30 1 O 0.6913 0.1536 -0.6913 0
M  V30 2 C -0.3504 -0.7762 -0.9245 0
M  V30 3 C 1.8512 -0.5058 -0.2266 0
M  V30 4 C -1.2894 -0.8452 0.2832 0
M  V30 5 C 2.8974 0.529 0.1771 0
M  V30 6 O -1.7353 0.4498 0.6425 0
M  V30 7 O 2.45 1.2782 1.2748 0
M  V30 8 C -2.998 0.7125 0.0711 0
M  V30 9 H 0.0124 -1.8003 -1.1802 0
M  V30 10 H -0.929 -0.4286 -1.8055 0
M  V30 11 H 2.2804 -1.1372 -1.0369 0
M  V30 12 H 1.6296 -1.1458 0.658 0
M  V30 13 H -2.1182 -1.5638 0.0762 0
M  V30 14 H -0.7299 -1.2655 1.1447 0
M  V30 15 H 3.1337 1.1941 -0.685 0
M  V30 16 H 3.832 0.0031 0.4657 0
M  V30 17 H 1.8333 1.9691 0.9172 0
M  V30 18 H -2.9771 0.6032 -1.0355 0
M  V30 19 H -3.7761 0.051 0.5121 0
M  V30 20 H -3.2788 1.7611 0.2999 0
M  V30 END ATOM
M  V30 BEGIN BOND
M  V30 1 1 1 2
M  V30 2 1 1 3
M  V30 3 1 2 4
M  V30 4 1 3 5
M  V30 5 1 4 6
M  V30 6 1 5 7
M  V30 7 1 6 8
M  V30 8 1 2 9
M  V30 9 1 2 10
M  V30 10 1 3 11
M  V30 11 1 3 12
M  V30 12 1 4 13
M  V30 13 1 4 14
M  V30 14 1 5 15
M  V30 15 1 5 16
M  V30 16 1 7 17
M  V30 17 1 8 18
M  V30 18 1 8 19
M  V30 19 1 8 20
M  V30 END BOND
M  V30 END CTAB
M  END
>  <Structure No>
3499

>  <LogS>
0.9203

>  <MMFF94 Energy>
49.798

$$$$
Compound 3500
Actelion Java MolfileCreator 2.0

  0  0  0  0  0  0              0 V3000
M  V30 BEGIN CTAB
M  V30 COUNTS 29 28 0 0 0
M  V30 BEGIN ATOM
M  V30 1 C -0.154 0.6162 -1.0015 0
M  V30 2 C 1.1195 -0.0695 -0.4839 0
M  V30 3 C -1.4246 -0.205 -0.7279 0
M  V30 4 C 2.3713 0.7254 -0.8849 0
M  V30 5 C -1.8409 -0.1745 0.7529 0
M  V30 6 C 3.6745 0.0179 -0.4823 0
M  V30 7 C -3.1174 -0.9868 1.0217 0
M  V30 8 C 3.9109 0.0272 1.0278 0
M  V30 9 C -4.3777 -0.3058 0.488 0
M  V30 10 H -0.0652 0.7503 -2.102 0
M  V30 11 H -0.2523 1.6267 -0.5471 0
M  V30 12 H 1.074 -0.1414 0.6216 0
M  V30 13 H 1.184 -1.0959 -0.9068 0
M  V30 14 H -1.2735 -1.2555 -1.0599 0
M  V30 15 H -2.2404 0.2283 -1.3438 0
M  V30 16 H 2.3788 0.8515 -1.9897 0
M  V30 17 H 2.3375 1.74 -0.4305 0
M  V30 18 H -1.0305 -0.6152 1.3701 0
M  V30 19 H -1.9863 0.8762 1.0869 0
M  V30 20 H 4.5237 0.5441 -0.9698 0
M  V30 21 H 3.6718 -1.03 -0.8529 0
M  V30 22 H -3.2301 -1.109 2.121 0
M  V30 23 H -3.0261 -2.0027 0.5795 0
M  V30 24 H 4.9184 -0.3854 1.2454 0
M  V30 25 H 3.1609 -0.6039 1.5477 0
M  V30 26 H 3.8614 1.064 1.4233 0
M  V30 27 H -4.4554 0.7309 0.8788 0
M  V30 28 H -4.3757 -0.2845 -0.6211 0
M  V30 29 H -5.2719 -0.8747 0.8191 0
M  V30 END ATOM
M  V30 BEGIN BOND
M  V30 1 1 1 2
M  V30 2 1 1 3
M  V30 3 1 2 4
M  V30 4 1 3 5
M  V30 5 1 4 6
M  V30 6 1 5 7
M  V30 7 1 6 8
M  V30 8 1 7 9
M  V30 9 1 1 10
M  V30 10 1 1 11
M  V30 11 1 2 12
M  V30 12 1 2 13
M  V30 13 1 3 14
M  V30 14 1 3 15
M  V30 15 1 4 16
M  V30 16 1 4 17
M  V30 17 1 5 18
M  V30 18 1 5 19
M  V30 19 1 6 20
M  V30 20 1 6 21
M  V30 21 1 7 22
M  V30 22 1 7 23
M  V30 23 1 8 24
M  V30 24 1 8 25
M  V30 25 1 8 26
M  V30 26 1 9 27
M  V30 27 1 9 28
M  V30 28 1 9 29
M  V30 END BOND
M  V30 END CTAB
M  END
>  <Structure No>
3500

>  <LogS>
-5.7657

>  <MMFF94 Energy>
-4.1243

$$$$
Compound 3501
Actelion Java MolfileCreator 2.0

  0  0  0  0  0  0              0 V3000
M  V30 BEGIN CTAB
M  V30 COUNTS 23 22 0 0 0
M  V30 BEGIN ATOM
M  V30 1 O -1.5402 -0.9239 -0.3848 0
M  V30 2 C -0.161 -1.0559 -0.0968 0
M  V30 3 C -2.1835 -0.1572 0.6127 0
M  V30 4 C 0.6427 -0.0096 -0.872 0
M  V30 5 C -3.624 0.12 0.1921 0
M  V30 6 O 2.0297 -0.2293 -0.6957 0
M  V30 7 O -3.6547 0.93 -0.952 0
M  V30 8 C 2.5373 0.6056 0.3241 0
M  V30 9 C 3.9888 0.2403 0.5926 0
M  V30 10 H 0.0737 -1.0025 0.9926 0
M  V30 11 H 0.1618 -2.0633 -0.4352 0
M  V30 12 H -2.2038 -0.7217 1.5721 0
M  V30 13 H -1.6693 0.818 0.773 0
M  V30 14 H 0.3151 1.0203 -0.5943 0
M  V30 15 H 0.4146 -0.1266 -1.9527 0
M  V30 16 H -4.1639 -0.8379 0.0127 0
M  V30 17 H -4.1439 0.6529 1.0161 0
M  V30 18 H -3.493 0.3335 -1.7288 0
M  V30 19 H 2.4975 1.6717 0.0058 0
M  V30 20 H 1.9654 0.48 1.2716 0
M  V30 21 H 4.5916 0.3742 -0.3304 0
M  V30 22 H 4.0588 -0.8174 0.924 0
M  V30 23 H 4.3999 0.8955 1.3895 0
M  V30 END ATOM
M  V30 BEGIN BOND
M  V30 1 1 1 2
M  V30 2 1 1 3
M  V30 3 1 2 4
M  V30 4 1 3 5
M  V30 5 1 4 6
M  V30 6 1 5 7
M  V30 7 1 6 8
M  V30 8 1 8 9
M  V30 9 1 2 10
M  V30 10 1 2 11
M  V30 11 1 3 12
M  V30 12 1 3 13
M  V30 13 1 4 14
M  V30 14 1 4 15
M  V30 15 1 5 16
M  V30 16 1 5 17
M  V30 17 1 7 18
M  V30 18 1 8 19
M  V30 19 1 8 20
M  V30 20 1 9 21
M  V30 21 1 9 22
M  V30 22 1 9 23
M  V30 END BOND
M  V30 END CTAB
M  END
>  <Structure No>
3501

>  <LogS>
0.8723

>  <MMFF94 Energy>
44.908

$$$$
Compound 3502
Actelion Java MolfileCreator 2.0

  0  0  0  0  0  0              0 V3000
M  V30 BEGIN CTAB
M  V30 COUNTS 19 18 0 0 0
M  V30 BEGIN ATOM
M  V30 1 Cl -3.09 0.7311 -2.6016 0
M  V30 2 C -3.4131 0.601 -0.8527 0
M  V30 3 C -2.3247 -0.2122 -0.1629 0
M  V30 4 O -1.0886 0.4621 -0.2785 0
M  V30 5 C -0.0736 -0.2956 0.3431 0
M  V30 6 O 1.143 0.408 0.2185 0
M  V30 7 C 2.1823 -0.3263 0.8308 0
M  V30 8 C 3.487 0.4458 0.6881 0
M  V30 9 Cl 4.823 -0.4531 1.4507 0
M  V30 10 H -3.461 1.62 -0.4129 0
M  V30 11 H -4.396 0.1048 -0.7081 0
M  V30 12 H -2.6085 -0.3275 0.908 0
M  V30 13 H -2.2793 -1.2182 -0.6397 0
M  V30 14 H 0.0134 -1.2894 -0.1589 0
M  V30 15 H -0.3175 -0.437 1.4237 0
M  V30 16 H 1.9761 -0.4703 1.9163 0
M  V30 17 H 2.3054 -1.3186 0.3393 0
M  V30 18 H 3.7216 0.5954 -0.3871 0
M  V30 19 H 3.3946 1.4379 1.179 0
M  V30 END ATOM
M  V30 BEGIN BOND
M  V30 1 1 1 2
M  V30 2 1 2 3
M  V30 3 1 3 4
M  V30 4 1 4 5
M  V30 5 1 5 6
M  V30 6 1 6 7
M  V30 7 1 7 8
M  V30 8 1 8 9
M  V30 9 1 2 10
M  V30 10 1 2 11
M  V30 11 1 3 12
M  V30 12 1 3 13
M  V30 13 1 5 14
M  V30 14 1 5 15
M  V30 15 1 7 16
M  V30 16 1 7 17
M  V30 17 1 8 18
M  V30 18 1 8 19
M  V30 END BOND
M  V30 END CTAB
M  END
>  <Structure No>
3502

>  <LogS>
-1.3461

>  <MMFF94 Energy>
9.876

$$$$
Compound 3503
Actelion Java MolfileCreator 2.0

  0  0  0  0  0  0              0 V3000
M  V30 BEGIN CTAB
M  V30 COUNTS 27 26 0 0 0
M  V30 BEGIN ATOM
M  V30 1 O 3.9685 -0.3885 1.477 0
M  V30 2 C 3.8798 0.1044 0.3197 0
M  V30 3 O 2.7511 0.8378 -0.0632 0
M  V30 4 C 5.0157 -0.045 -0.634 0
M  V30 5 C 1.6062 1.0101 0.77 0
M  V30 6 C 0.7612 -0.2652 0.7955 0
M  V30 7 O -0.3701 -0.0862 1.6284 0
M  V30 8 C -1.504 0.317 0.8821 0
M  V30 9 C -2.3163 -0.9108 0.4479 0
M  V30 10 C -3.6578 -0.5358 -0.2003 0
M  V30 11 C -3.49 0.0799 -1.5891 0
M  V30 12 H 5.4836 -1.0451 -0.5164 0
M  V30 13 H 4.6506 0.0591 -1.6772 0
M  V30 14 H 5.7733 0.7406 -0.4329 0
M  V30 15 H 0.9987 1.8434 0.3592 0
M  V30 16 H 1.9176 1.2898 1.8002 0
M  V30 17 H 1.3698 -1.0877 1.2253 0
M  V30 18 H 0.5036 -0.5765 -0.244 0
M  V30 19 H -2.1362 0.944 1.5464 0
M  V30 20 H -1.2404 0.9541 0.0068 0
M  V30 21 H -2.5261 -1.5289 1.348 0
M  V30 22 H -1.7211 -1.5344 -0.2532 0
M  V30 23 H -4.2178 0.1668 0.4543 0
M  V30 24 H -4.2686 -1.4591 -0.3011 0
M  V30 25 H -2.9975 1.072 -1.5233 0
M  V30 26 H -2.8897 -0.5892 -2.2415 0
M  V30 27 H -4.4892 0.2211 -2.0528 0
M  V30 END ATOM
M  V30 BEGIN BOND
M  V30 1 2 1 2
M  V30 2 1 2 3
M  V30 3 1 2 4
M  V30 4 1 3 5
M  V30 5 1 5 6
M  V30 6 1 6 7
M  V30 7 1 7 8
M  V30 8 1 8 9
M  V30 9 1 9 10
M  V30 10 1 10 11
M  V30 11 1 4 12
M  V30 12 1 4 13
M  V30 13 1 4 14
M  V30 14 1 5 15
M  V30 15 1 5 16
M  V30 16 1 6 17
M  V30 17 1 6 18
M  V30 18 1 8 19
M  V30 19 1 8 20
M  V30 20 1 9 21
M  V30 21 1 9 22
M  V30 22 1 10 23
M  V30 23 1 10 24
M  V30 24 1 11 25
M  V30 25 1 11 26
M  V30 26 1 11 27
M  V30 END BOND
M  V30 END CTAB
M  END
>  <Structure No>
3503

>  <LogS>
-1.2504

>  <MMFF94 Energy>
5.4981

$$$$
Compound 3504
Actelion Java MolfileCreator 2.0

  0  0  0  0  0  0              0 V3000
M  V30 BEGIN CTAB
M  V30 COUNTS 22 21 0 0 0
M  V30 BEGIN ATOM
M  V30 1 Cl 3.7215 1.6976 2.1831 0
M  V30 2 C 3.9661 0.3381 1.0556 0
M  V30 3 C 2.7563 0.17 0.1446 0
M  V30 4 O 1.6263 -0.1681 0.9213 0
M  V30 5 C 0.5009 -0.3063 0.0805 0
M  V30 6 C -0.7117 -0.6828 0.9278 0
M  V30 7 O -1.836 -0.9106 0.0987 0
M  V30 8 C -2.6608 0.2359 0.0539 0
M  V30 9 C -3.7854 0.0143 -0.9498 0
M  V30 10 Cl -4.8359 -1.3308 -0.4336 0
M  V30 11 H 4.8683 0.5429 0.4413 0
M  V30 12 H 4.1351 -0.5928 1.637 0
M  V30 13 H 2.5929 1.1245 -0.4066 0
M  V30 14 H 2.9851 -0.6396 -0.5852 0
M  V30 15 H 0.285 0.6512 -0.445 0
M  V30 16 H 0.6671 -1.1119 -0.6711 0
M  V30 17 H -0.8823 0.0888 1.7166 0
M  V30 18 H -0.4845 -1.6306 1.4607 0
M  V30 19 H -3.1093 0.433 1.0539 0
M  V30 20 H -2.0821 1.1307 -0.2698 0
M  V30 21 H -3.3602 -0.2166 -1.9494 0
M  V30 22 H -4.3999 0.9359 -1.0288 0
M  V30 END ATOM
M  V30 BEGIN BOND
M  V30 1 1 1 2
M  V30 2 1 2 3
M  V30 3 1 3 4
M  V30 4 1 4 5
M  V30 5 1 5 6
M  V30 6 1 6 7
M  V30 7 1 7 8
M  V30 8 1 8 9
M  V30 9 1 9 10
M  V30 10 1 2 11
M  V30 11 1 2 12
M  V30 12 1 3 13
M  V30 13 1 3 14
M  V30 14 1 5 15
M  V30 15 1 5 16
M  V30 16 1 6 17
M  V30 17 1 6 18
M  V30 18 1 8 19
M  V30 19 1 8 20
M  V30 20 1 9 21
M  V30 21 1 9 22
M  V30 END BOND
M  V30 END CTAB
M  END
>  <Structure No>
3504

>  <LogS>
-0.9955

>  <MMFF94 Energy>
51.518

$$$$
Compound 3505
Actelion Java MolfileCreator 2.0

  0  0  0  0  0  0              0 V3000
M  V30 BEGIN CTAB
M  V30 COUNTS 29 28 0 0 0
M  V30 BEGIN ATOM
M  V30 1 O 2.242 -0.4635 0.0 0
M  V30 2 C 1.3371 -1.4103 0.5279 0
M  V30 3 C 3.2499 -1.131 -0.7292 0
M  V30 4 C 0.2432 -0.6853 1.3014 0
M  V30 5 C 4.2232 -0.1045 -1.3022 0
M  V30 6 O -0.463 0.1656 0.4239 0
M  V30 7 O 3.5559 0.7839 -2.1574 0
M  V30 8 C -1.4661 0.8554 1.1399 0
M  V30 9 C -2.2613 1.752 0.1854 0
M  V30 10 C -2.9331 0.9815 -0.9636 0
M  V30 11 C -4.062 0.0689 -0.4856 0
M  V30 12 H 1.8574 -2.1031 1.2282 0
M  V30 13 H 0.8585 -2.0014 -0.2866 0
M  V30 14 H 2.8125 -1.7133 -1.5725 0
M  V30 15 H 3.8236 -1.8193 -0.0673 0
M  V30 16 H 0.7193 -0.1033 2.124 0
M  V30 17 H -0.4379 -1.4508 1.7386 0
M  V30 18 H 4.6788 0.4733 -0.4702 0
M  V30 19 H 5.0444 -0.624 -1.8464 0
M  V30 20 H 3.3946 0.2944 -3.0059 0
M  V30 21 H -2.1617 0.1493 1.6465 0
M  V30 22 H -1.0054 1.51 1.9145 0
M  V30 23 H -1.5677 2.5028 -0.252 0
M  V30 24 H -3.0315 2.3097 0.7617 0
M  V30 25 H -2.1807 0.3822 -1.5201 0
M  V30 26 H -3.3612 1.7206 -1.675 0
M  V30 27 H -3.6582 -0.7756 0.11 0
M  V30 28 H -4.7919 0.6402 0.1264 0
M  V30 29 H -4.5924 -0.3527 -1.3652 0
M  V30 END ATOM
M  V30 BEGIN BOND
M  V30 1 1 1 2
M  V30 2 1 1 3
M  V30 3 1 2 4
M  V30 4 1 3 5
M  V30 5 1 4 6
M  V30 6 1 5 7
M  V30 7 1 6 8
M  V30 8 1 8 9
M  V30 9 1 9 10
M  V30 10 1 10 11
M  V30 11 1 2 12
M  V30 12 1 2 13
M  V30 13 1 3 14
M  V30 14 1 3 15
M  V30 15 1 4 16
M  V30 16 1 4 17
M  V30 17 1 5 18
M  V30 18 1 5 19
M  V30 19 1 7 20
M  V30 20 1 8 21
M  V30 21 1 8 22
M  V30 22 1 9 23
M  V30 23 1 9 24
M  V30 24 1 10 25
M  V30 25 1 10 26
M  V30 26 1 11 27
M  V30 27 1 11 28
M  V30 28 1 11 29
M  V30 END BOND
M  V30 END CTAB
M  END
>  <Structure No>
3505

>  <LogS>
0.7899

>  <MMFF94 Energy>
45.794

$$$$
Compound 3506
Actelion Java MolfileCreator 2.0

  0  0  0  0  0  0              0 V3000
M  V30 BEGIN CTAB
M  V30 COUNTS 27 26 0 0 0
M  V30 BEGIN ATOM
M  V30 1 O -1.3144 1.237 0.9276 0
M  V30 2 C 0.0913 1.3903 0.8709 0
M  V30 3 C -1.9012 1.5732 -0.313 0
M  V30 4 C 0.7577 0.0436 0.6001 0
M  V30 5 C -3.3863 1.2175 -0.2846 0
M  V30 6 O 2.1595 0.2077 0.6309 0
M  V30 7 O -3.5635 -0.1547 0.0155 0
M  V30 8 C 2.7846 -1.0338 0.3851 0
M  V30 9 C -3.7151 -0.9032 -1.1704 0
M  V30 10 C 4.2983 -0.8452 0.4185 0
M  V30 11 O 4.9469 -2.0564 0.1415 0
M  V30 12 H 0.4339 1.7563 1.8621 0
M  V30 13 H 0.4308 2.1451 0.1215 0
M  V30 14 H -1.8077 2.6677 -0.4938 0
M  V30 15 H -1.4183 1.0267 -1.1539 0
M  V30 16 H 0.4278 -0.6744 1.3858 0
M  V30 17 H 0.4278 -0.3239 -0.3977 0
M  V30 18 H -3.8713 1.534 -1.239 0
M  V30 19 H -3.8713 1.8097 0.5203 0
M  V30 20 H 2.502 -1.4256 -0.6189 0
M  V30 21 H 2.5044 -1.7769 1.1667 0
M  V30 22 H -3.7687 -1.9789 -0.9052 0
M  V30 23 H -2.848 -0.768 -1.8534 0
M  V30 24 H -4.6627 -0.6357 -1.6878 0
M  V30 25 H 4.5913 -0.1014 -0.3524 0
M  V30 26 H 4.6135 -0.4534 1.4126 0
M  V30 27 H 4.8933 -2.6032 0.9686 0
M  V30 END ATOM
M  V30 BEGIN BOND
M  V30 1 1 1 2
M  V30 2 1 1 3
M  V30 3 1 2 4
M  V30 4 1 3 5
M  V30 5 1 4 6
M  V30 6 1 5 7
M  V30 7 1 6 8
M  V30 8 1 7 9
M  V30 9 1 8 10
M  V30 10 1 10 11
M  V30 11 1 2 12
M  V30 12 1 2 13
M  V30 13 1 3 14
M  V30 14 1 3 15
M  V30 15 1 4 16
M  V30 16 1 4 17
M  V30 17 1 5 18
M  V30 18 1 5 19
M  V30 19 1 8 20
M  V30 20 1 8 21
M  V30 21 1 9 22
M  V30 22 1 9 23
M  V30 23 1 9 24
M  V30 24 1 10 25
M  V30 25 1 10 26
M  V30 26 1 11 27
M  V30 END BOND
M  V30 END CTAB
M  END
>  <Structure No>
3506

>  <LogS>
0.7846

>  <MMFF94 Energy>
71.543

$$$$
Compound 3507
Actelion Java MolfileCreator 2.0

  0  0  0  0  0  0              0 V3000
M  V30 BEGIN CTAB
M  V30 COUNTS 29 28 0 0 0
M  V30 BEGIN ATOM
M  V30 1 O 0.2318 0.6182 0.309 0
M  V30 2 C -1.1232 1.0239 0.3613 0
M  V30 3 C 0.9257 1.3317 -0.6937 0
M  V30 4 C -1.9986 0.0379 -0.4153 0
M  V30 5 C 2.3368 0.7736 -0.8249 0
M  V30 6 O -3.3573 0.4325 -0.3529 0
M  V30 7 O 3.0253 0.9472 0.3967 0
M  V30 8 C -4.0357 -0.2144 0.7079 0
M  V30 9 C 4.2846 0.3033 0.3525 0
M  V30 10 C -4.705 -1.491 0.2102 0
M  V30 11 C 4.1957 -1.0743 0.9994 0
M  V30 12 H -1.437 1.0164 1.426 0
M  V30 13 H -1.2971 2.0629 -0.0087 0
M  V30 14 H 0.994 2.4105 -0.425 0
M  V30 15 H 0.4193 1.2307 -1.6808 0
M  V30 16 H -1.6911 0.0543 -1.4815 0
M  V30 17 H -1.822 -1.003 -0.0554 0
M  V30 18 H 2.2641 -0.3034 -1.1006 0
M  V30 19 H 2.8575 1.3263 -1.6393 0
M  V30 20 H -4.8286 0.4705 1.0758 0
M  V30 21 H -3.382 -0.438 1.5832 0
M  V30 22 H 5.0026 0.9147 0.9391 0
M  V30 23 H 4.7103 0.2157 -0.6754 0
M  V30 24 H -3.9416 -2.2183 -0.1366 0
M  V30 25 H -5.3923 -1.2565 -0.6299 0
M  V30 26 H -5.289 -1.9526 1.0342 0
M  V30 27 H 5.2034 -1.5398 1.0279 0
M  V30 28 H 3.5159 -1.7312 0.4178 0
M  V30 29 H 3.8126 -0.9825 2.0378 0
M  V30 END ATOM
M  V30 BEGIN BOND
M  V30 1 1 1 2
M  V30 2 1 1 3
M  V30 3 1 2 4
M  V30 4 1 3 5
M  V30 5 1 4 6
M  V30 6 1 5 7
M  V30 7 1 6 8
M  V30 8 1 7 9
M  V30 9 1 8 10
M  V30 10 1 9 11
M  V30 11 1 2 12
M  V30 12 1 2 13
M  V30 13 1 3 14
M  V30 14 1 3 15
M  V30 15 1 4 16
M  V30 16 1 4 17
M  V30 17 1 5 18
M  V30 18 1 5 19
M  V30 19 1 8 20
M  V30 20 1 8 21
M  V30 21 1 9 22
M  V30 22 1 9 23
M  V30 23 1 10 24
M  V30 24 1 10 25
M  V30 25 1 10 26
M  V30 26 1 11 27
M  V30 27 1 11 28
M  V30 28 1 11 29
M  V30 END BOND
M  V30 END CTAB
M  END
>  <Structure No>
3507

>  <LogS>
0.7899

>  <MMFF94 Energy>
46.878

$$$$
Compound 3508
Actelion Java MolfileCreator 2.0

  0  0  0  0  0  0              0 V3000
M  V30 BEGIN CTAB
M  V30 COUNTS 30 29 0 0 0
M  V30 BEGIN ATOM
M  V30 1 O 0.5417 -1.1612 -1.0837 0
M  V30 2 C -0.8556 -1.2571 -1.2853 0
M  V30 3 C 0.8806 -1.554 0.2308 0
M  V30 4 C -1.5143 0.1084 -1.0737 0
M  V30 5 C 2.3542 -1.2611 0.4814 0
M  V30 6 O -2.893 0.0433 -1.3895 0
M  V30 7 O 2.5783 0.1288 0.3734 0
M  V30 8 C -3.6735 -0.2317 -0.2399 0
M  V30 9 C 3.9446 0.4036 0.5967 0
M  V30 10 C -4.1469 1.0664 0.418 0
M  V30 11 C 4.1769 1.9024 0.482 0
M  V30 12 O -4.9405 1.807 -0.4695 0
M  V30 13 H -1.3452 -2.0322 -0.6491 0
M  V30 14 H -1.0271 -1.5662 -2.3382 0
M  V30 15 H 0.7136 -2.6476 0.3567 0
M  V30 16 H 0.2787 -1.0024 0.9895 0
M  V30 17 H -1.0404 0.8348 -1.7675 0
M  V30 18 H -1.3165 0.4872 -0.0441 0
M  V30 19 H 2.9576 -1.8217 -0.2691 0
M  V30 20 H 2.6108 -1.6224 1.5037 0
M  V30 21 H -3.1459 -0.8682 0.5087 0
M  V30 22 H -4.5674 -0.8077 -0.5605 0
M  V30 23 H 4.5806 -0.1062 -0.1624 0
M  V30 24 H 4.2524 0.0807 1.6176 0
M  V30 25 H -3.2778 1.669 0.7664 0
M  V30 26 H -4.7577 0.8135 1.3103 0
M  V30 27 H 3.5668 2.4405 1.2385 0
M  V30 28 H 3.8931 2.2543 -0.5324 0
M  V30 29 H 5.2496 2.1309 0.6557 0
M  V30 30 H -4.318 2.2969 -1.0679 0
M  V30 END ATOM
M  V30 BEGIN BOND
M  V30 1 1 1 2
M  V30 2 1 1 3
M  V30 3 1 2 4
M  V30 4 1 3 5
M  V30 5 1 4 6
M  V30 6 1 5 7
M  V30 7 1 6 8
M  V30 8 1 7 9
M  V30 9 1 8 10
M  V30 10 1 9 11
M  V30 11 1 10 12
M  V30 12 1 2 13
M  V30 13 1 2 14
M  V30 14 1 3 15
M  V30 15 1 3 16
M  V30 16 1 4 17
M  V30 17 1 4 18
M  V30 18 1 5 19
M  V30 19 1 5 20
M  V30 20 1 8 21
M  V30 21 1 8 22
M  V30 22 1 9 23
M  V30 23 1 9 24
M  V30 24 1 10 25
M  V30 25 1 10 26
M  V30 26 1 11 27
M  V30 27 1 11 28
M  V30 28 1 11 29
M  V30 29 1 12 30
M  V30 END BOND
M  V30 END CTAB
M  END
>  <Structure No>
3508

>  <LogS>
0.749

>  <MMFF94 Energy>
67.222

$$$$
Compound 3509
Actelion Java MolfileCreator 2.0

  0  0  0  0  0  0              0 V3000
M  V30 BEGIN CTAB
M  V30 COUNTS 35 34 0 0 0
M  V30 BEGIN ATOM
M  V30 1 O 3.6462 -0.6198 1.0074 0
M  V30 2 C 2.459 0.1191 0.789 0
M  V30 3 C 4.4134 -0.7371 -0.1785 0
M  V30 4 C 1.323 -0.8079 0.3475 0
M  V30 5 C 5.6254 0.1882 -0.1161 0
M  V30 6 O 0.1106 -0.0836 0.2545 0
M  V30 7 O 5.2094 1.5252 -0.1205 0
M  V30 8 C -0.1311 0.3131 -1.08 0
M  V30 9 C -1.3747 1.2083 -1.1405 0
M  V30 10 C -2.7002 0.4279 -1.0949 0
M  V30 11 C -2.973 -0.2117 0.2769 0
M  V30 12 C -4.3534 -0.884 0.3482 0
M  V30 13 C -5.4979 0.1227 0.4653 0
M  V30 14 H 2.5959 0.9561 0.0662 0
M  V30 15 H 2.1687 0.5883 1.7531 0
M  V30 16 H 3.8413 -0.5512 -1.1185 0
M  V30 17 H 4.7819 -1.7828 -0.2423 0
M  V30 18 H 1.1919 -1.591 1.1242 0
M  V30 19 H 1.596 -1.3438 -0.592 0
M  V30 20 H 6.2065 -0.0256 0.8089 0
M  V30 21 H 6.2741 -0.0043 -0.9995 0
M  V30 22 H 6.0369 2.0708 -0.0738 0
M  V30 23 H -0.2806 -0.5745 -1.736 0
M  V30 24 H 0.7298 0.9023 -1.4705 0
M  V30 25 H -1.3424 1.9601 -0.3215 0
M  V30 26 H -1.3469 1.7697 -2.1 0
M  V30 27 H -2.7029 -0.3557 -1.8838 0
M  V30 28 H -3.513 1.1449 -1.3344 0
M  V30 29 H -2.8815 0.5499 1.0822 0
M  V30 30 H -2.2126 -0.9986 0.4639 0
M  V30 31 H -4.3783 -1.5395 1.2459 0
M  V30 32 H -4.513 -1.5299 -0.5425 0
M  V30 33 H -5.3302 0.8043 1.3262 0
M  V30 34 H -5.5983 0.7193 -0.4643 0
M  V30 35 H -6.4518 -0.4217 0.6288 0
M  V30 END ATOM
M  V30 BEGIN BOND
M  V30 1 1 1 2
M  V30 2 1 1 3
M  V30 3 1 2 4
M  V30 4 1 3 5
M  V30 5 1 4 6
M  V30 6 1 5 7
M  V30 7 1 6 8
M  V30 8 1 8 9
M  V30 9 1 9 10
M  V30 10 1 10 11
M  V30 11 1 11 12
M  V30 12 1 12 13
M  V30 13 1 2 14
M  V30 14 1 2 15
M  V30 15 1 3 16
M  V30 16 1 3 17
M  V30 17 1 4 18
M  V30 18 1 4 19
M  V30 19 1 5 20
M  V30 20 1 5 21
M  V30 21 1 7 22
M  V30 22 1 8 23
M  V30 23 1 8 24
M  V30 24 1 9 25
M  V30 25 1 9 26
M  V30 26 1 10 27
M  V30 27 1 10 28
M  V30 28 1 11 29
M  V30 29 1 11 30
M  V30 30 1 12 31
M  V30 31 1 12 32
M  V30 32 1 13 33
M  V30 33 1 13 34
M  V30 34 1 13 35
M  V30 END BOND
M  V30 END CTAB
M  END
>  <Structure No>
3509

>  <LogS>
-1.049

>  <MMFF94 Energy>
44.605

$$$$
Compound 3510
Actelion Java MolfileCreator 2.0

  0  0  0  0  0  0              0 V3000
M  V30 BEGIN CTAB
M  V30 COUNTS 62 61 0 0 0
M  V30 BEGIN ATOM
M  V30 1 C 0.4666 -0.7777 -1.7117 0
M  V30 2 C -0.9347 -1.3629 -1.967 0
M  V30 3 C 1.0588 -1.2078 -0.3583 0
M  V30 4 C -2.0011 -0.9876 -0.9212 0
M  V30 5 C 2.5537 -0.8733 -0.2362 0
M  V30 6 C -2.2955 0.5206 -0.878 0
M  V30 7 C 2.8153 0.6423 -0.18 0
M  V30 8 C -3.3517 0.8902 0.1775 0
M  V30 9 C 4.265 0.9758 0.2056 0
M  V30 10 C -4.7669 0.3661 -0.1501 0
M  V30 11 C 5.2734 0.5685 -0.8831 0
M  V30 12 C -5.1632 -0.8273 0.7369 0
M  V30 13 C 6.68 1.1315 -0.6256 0
M  V30 14 C -6.5609 -1.382 0.3849 0
M  V30 15 C 7.3659 0.4777 0.5832 0
M  V30 16 C -7.6498 -1.0142 1.411 0
M  V30 17 C 8.8113 0.9692 0.7258 0
M  V30 18 C -7.9727 0.4867 1.4952 0
M  V30 19 C 9.4941 0.3317 1.9326 0
M  V30 20 C -8.6195 1.0277 0.2202 0
M  V30 21 H 0.4324 0.3284 -1.7839 0
M  V30 22 H 1.1325 -1.135 -2.5274 0
M  V30 23 H -1.2806 -1.0296 -2.9697 0
M  V30 24 H -0.8554 -2.4714 -2.0052 0
M  V30 25 H 0.9416 -2.3077 -0.2436 0
M  V30 26 H 0.5075 -0.7179 0.4729 0
M  V30 27 H -1.7007 -1.3497 0.0846 0
M  V30 28 H -2.9304 -1.5266 -1.201 0
M  V30 29 H 2.9341 -1.3426 0.6973 0
M  V30 30 H 3.1022 -1.3253 -1.0902 0
M  V30 31 H -1.3669 1.0698 -0.6169 0
M  V30 32 H -2.6274 0.8713 -1.8799 0
M  V30 33 H 2.1449 1.0988 0.5809 0
M  V30 34 H 2.5797 1.1081 -1.1609 0
M  V30 35 H -3.0138 0.5491 1.1812 0
M  V30 36 H -3.3961 2.0006 0.2257 0
M  V30 37 H 4.3314 2.0738 0.3697 0
M  V30 38 H 4.5129 0.4745 1.1655 0
M  V30 39 H -4.8415 0.0815 -1.2226 0
M  V30 40 H -5.4921 1.1903 0.0123 0
M  V30 41 H 5.3294 -0.5386 -0.9582 0
M  V30 42 H 4.9237 0.9573 -1.8644 0
M  V30 43 H -4.4179 -1.639 0.5995 0
M  V30 44 H -5.116 -0.531 1.808 0
M  V30 45 H 7.295 0.9437 -1.533 0
M  V30 46 H 6.6245 2.2327 -0.4795 0
M  V30 47 H -6.8744 -1.0852 -0.6384 0
M  V30 48 H -6.4942 -2.492 0.368 0
M  V30 49 H 6.8083 0.7299 1.5106 0
M  V30 50 H 7.3652 -0.6274 0.4568 0
M  V30 51 H -7.3308 -1.3665 2.4164 0
M  V30 52 H -8.5798 -1.5692 1.1582 0
M  V30 53 H 8.8209 2.0744 0.8493 0
M  V30 54 H 9.3874 0.7119 -0.1897 0
M  V30 55 H -8.6864 0.6391 2.334 0
M  V30 56 H -7.0612 1.0713 1.7372 0
M  V30 57 H 10.5372 0.7048 2.0097 0
M  V30 58 H 8.9529 0.5956 2.8664 0
M  V30 59 H 9.5193 -0.7734 1.8226 0
M  V30 60 H -9.5169 0.4288 -0.0441 0
M  V30 61 H -8.9337 2.0801 0.3848 0
M  V30 62 H -7.9027 1.0108 -0.626 0
M  V30 END ATOM
M  V30 BEGIN BOND
M  V30 1 1 1 2
M  V30 2 1 1 3
M  V30 3 1 2 4
M  V30 4 1 3 5
M  V30 5 1 4 6
M  V30 6 1 5 7
M  V30 7 1 6 8
M  V30 8 1 7 9
M  V30 9 1 8 10
M  V30 10 1 9 11
M  V30 11 1 10 12
M  V30 12 1 11 13
M  V30 13 1 12 14
M  V30 14 1 13 15
M  V30 15 1 14 16
M  V30 16 1 15 17
M  V30 17 1 16 18
M  V30 18 1 17 19
M  V30 19 1 18 20
M  V30 20 1 1 21
M  V30 21 1 1 22
M  V30 22 1 2 23
M  V30 23 1 2 24
M  V30 24 1 3 25
M  V30 25 1 3 26
M  V30 26 1 4 27
M  V30 27 1 4 28
M  V30 28 1 5 29
M  V30 29 1 5 30
M  V30 30 1 6 31
M  V30 31 1 6 32
M  V30 32 1 7 33
M  V30 33 1 7 34
M  V30 34 1 8 35
M  V30 35 1 8 36
M  V30 36 1 9 37
M  V30 37 1 9 38
M  V30 38 1 10 39
M  V30 39 1 10 40
M  V30 40 1 11 41
M  V30 41 1 11 42
M  V30 42 1 12 43
M  V30 43 1 12 44
M  V30 44 1 13 45
M  V30 45 1 13 46
M  V30 46 1 14 47
M  V30 47 1 14 48
M  V30 48 1 15 49
M  V30 49 1 15 50
M  V30 50 1 16 51
M  V30 51 1 16 52
M  V30 52 1 17 53
M  V30 53 1 17 54
M  V30 54 1 18 55
M  V30 55 1 18 56
M  V30 56 1 19 57
M  V30 57 1 19 58
M  V30 58 1 19 59
M  V30 59 1 20 60
M  V30 60 1 20 61
M  V30 61 1 20 62
M  V30 END BOND
M  V30 END CTAB
M  END
>  <Structure No>
3510

>  <LogS>
-8.1724

>  <MMFF94 Energy>
-8.3684

$$$$
Compound 3511
Actelion Java MolfileCreator 2.0

  0  0  0  0  0  0              0 V3000
M  V30 BEGIN CTAB
M  V30 COUNTS 30 30 0 0 0
M  V30 BEGIN ATOM
M  V30 1 O 1.8881 0.0 1.1797 0
M  V30 2 C 2.2282 -0.3032 0.0027 0
M  V30 3 O 1.7643 0.4426 -1.0873 0
M  V30 4 N 3.1291 -1.3899 -0.227 0
M  V30 5 C 0.6898 1.3413 -1.031 0
M  V30 6 C 3.6366 -2.2132 0.8631 0
M  V30 7 C -0.5267 1.0116 -0.3925 0
M  V30 8 C 0.8288 2.581 -1.6669 0
M  V30 9 O -0.6707 -0.2708 0.165 0
M  V30 10 C -1.5611 1.9698 -0.3533 0
M  V30 11 C -0.2076 3.5151 -1.632 0
M  V30 12 C -1.8522 -0.8018 0.7683 0
M  V30 13 C -1.3971 3.2129 -0.9693 0
M  V30 14 C -2.8658 -1.198 -0.3098 0
M  V30 15 C -1.4645 -2.0215 1.6021 0
M  V30 16 H 3.4192 -1.6073 -1.2067 0
M  V30 17 H 4.3063 -3.0017 0.4597 0
M  V30 18 H 4.2108 -1.5834 1.5748 0
M  V30 19 H 2.7902 -2.6976 1.3944 0
M  V30 20 H 1.7517 2.826 -2.177 0
M  V30 21 H -2.5004 1.7659 0.1392 0
M  V30 22 H -0.087 4.4757 -2.1163 0
M  V30 23 H -2.302 -0.0558 1.4583 0
M  V30 24 H -2.1982 3.9405 -0.9399 0
M  V30 25 H -2.4256 -1.9543 -0.9943 0
M  V30 26 H -3.7794 -1.6215 0.1594 0
M  V30 27 H -3.1634 -0.3139 -0.9096 0
M  V30 28 H -0.7334 -1.7235 2.3836 0
M  V30 29 H -0.9989 -2.8 0.9601 0
M  V30 30 H -2.3599 -2.4486 2.1026 0
M  V30 END ATOM
M  V30 BEGIN BOND
M  V30 1 2 1 2
M  V30 2 1 2 3
M  V30 3 1 2 4
M  V30 4 1 3 5
M  V30 5 1 4 6
M  V30 6 2 5 7
M  V30 7 1 5 8
M  V30 8 1 7 9
M  V30 9 1 7 10
M  V30 10 2 8 11
M  V30 11 1 9 12
M  V30 12 2 10 13
M  V30 13 1 12 14
M  V30 14 1 12 15
M  V30 15 1 11 13
M  V30 16 1 4 16
M  V30 17 1 6 17
M  V30 18 1 6 18
M  V30 19 1 6 19
M  V30 20 1 8 20
M  V30 21 1 10 21
M  V30 22 1 11 22
M  V30 23 1 12 23
M  V30 24 1 13 24
M  V30 25 1 14 25
M  V30 26 1 14 26
M  V30 27 1 14 27
M  V30 28 1 15 28
M  V30 29 1 15 29
M  V30 30 1 15 30
M  V30 END BOND
M  V30 END CTAB
M  END
>  <Structure No>
3511

>  <LogS>
-2.0512

>  <MMFF94 Energy>
-5.9809

$$$$
Compound 3512
Actelion Java MolfileCreator 2.0

  0  0  0  0  0  0              0 V3000
M  V30 BEGIN CTAB
M  V30 COUNTS 21 22 0 0 0
M  V30 BEGIN ATOM
M  V30 1 Cl -2.0877 -0.1896 -2.6576 0
M  V30 2 C -1.2285 -0.3494 -1.1302 0
M  V30 3 C -0.579 -1.4375 -0.7114 0
M  V30 4 C -1.237 0.6285 0.0249 0 CFG=1
M  V30 5 Cl -0.4647 -2.9594 -1.588 0
M  V30 6 C -0.1695 -1.1793 0.7246 0 CFG=1
M  V30 7 Cl -2.4962 1.8961 -0.0544 0
M  V30 8 C -1.3783 -0.3572 1.1912 0
M  V30 9 C 0.2147 1.1638 0.2121 0 CFG=1
M  V30 10 Cl 0.1699 -2.6392 1.7014 0
M  V30 11 C 0.9721 -0.1144 0.7198 0 CFG=2
M  V30 12 Cl -1.2135 0.3779 2.8294 0
M  V30 13 Cl -2.9333 -1.2775 1.1846 0
M  V30 14 C 0.7716 1.8477 -1.0199 0
M  V30 15 C 2.2203 -0.4969 -0.0464 0
M  V30 16 O 0.9889 1.2066 -2.0826 0
M  V30 17 O 1.03 3.2122 -0.9871 0 CHG=-1
M  V30 18 O 2.3362 -1.628 -0.5877 0
M  V30 19 O 3.2866 0.3921 -0.1016 0 CHG=-1
M  V30 20 H 0.2149 1.9203 1.0285 0
M  V30 21 H 1.3019 0.0569 1.7684 0
M  V30 END ATOM
M  V30 BEGIN BOND
M  V30 1 1 1 2
M  V30 2 2 2 3
M  V30 3 1 2 4
M  V30 4 1 3 5
M  V30 5 1 3 6
M  V30 6 1 4 7
M  V30 7 1 4 8
M  V30 8 1 4 9
M  V30 9 1 6 10
M  V30 10 1 6 11
M  V30 11 1 8 12
M  V30 12 1 8 13
M  V30 13 1 9 14
M  V30 14 1 11 15
M  V30 15 2 14 16
M  V30 16 1 14 17
M  V30 17 2 15 18
M  V30 18 1 15 19
M  V30 19 1 6 8
M  V30 20 1 9 11
M  V30 21 1 9 20
M  V30 22 1 11 21
M  V30 END BOND
M  V30 BEGIN COLLECTION
M  V30 MDLV30/STEABS ATOMS=(4 4 6 9 11)
M  V30 END COLLECTION
M  V30 END CTAB
M  END
>  <Structure No>
3512

>  <LogS>
-2.0457

>  <MMFF94 Energy>
79.909

$$$$
Compound 3513
Actelion Java MolfileCreator 2.0

  0  0  0  0  0  0              0 V3000
M  V30 BEGIN CTAB
M  V30 COUNTS 19 18 0 0 0
M  V30 BEGIN ATOM
M  V30 1 O 2.2008 -0.455 -0.6825 0
M  V30 2 C 0.9453 -0.9834 -0.3491 0
M  V30 3 C -0.044 0.1479 0.0307 0
M  V30 4 N 0.4691 0.9015 1.1905 0 CHG=1
M  V30 5 C -1.4254 -0.4651 0.3731 0
M  V30 6 C -0.2174 1.1066 -1.168 0
M  V30 7 O -1.3284 -1.328 1.4742 0
M  V30 8 H 2.7732 -1.2303 -0.9188 0
M  V30 9 H 1.0624 -1.6864 0.5061 0
M  V30 10 H 0.5451 -1.5589 -1.2148 0
M  V30 11 H -0.22 1.632 1.4849 0
M  V30 12 H 0.6415 0.2617 2.0001 0
M  V30 13 H 1.3691 1.3785 0.9519 0
M  V30 14 H -1.8166 -1.0287 -0.5045 0
M  V30 15 H -2.149 0.3481 0.6088 0
M  V30 16 H 0.7479 1.5879 -1.4329 0
M  V30 17 H -0.9434 1.9111 -0.9214 0
M  V30 18 H -0.5916 0.5581 -2.0594 0
M  V30 19 H -2.2428 -1.6809 1.6302 0
M  V30 END ATOM
M  V30 BEGIN BOND
M  V30 1 1 1 2
M  V30 2 1 2 3
M  V30 3 1 3 4
M  V30 4 1 3 5
M  V30 5 1 3 6
M  V30 6 1 5 7
M  V30 7 1 1 8
M  V30 8 1 2 9
M  V30 9 1 2 10
M  V30 10 1 4 11
M  V30 11 1 4 12
M  V30 12 1 4 13
M  V30 13 1 5 14
M  V30 14 1 5 15
M  V30 15 1 6 16
M  V30 16 1 6 17
M  V30 17 1 6 18
M  V30 18 1 7 19
M  V30 END BOND
M  V30 END CTAB
M  END
>  <Structure No>
3513

>  <LogS>
0.9782

>  <MMFF94 Energy>
37.035

$$$$
Compound 3514
Actelion Java MolfileCreator 2.0

  0  0  0  0  0  0              0 V3000
M  V30 BEGIN CTAB
M  V30 COUNTS 25 24 0 0 0
M  V30 BEGIN ATOM
M  V30 1 O 0.0 1.7012 1.7012 0
M  V30 2 C -0.8271 0.7304 1.1142 0
M  V30 3 C -0.1823 0.0854 -0.1519 0
M  V30 4 C 0.1523 1.1753 -1.2175 0
M  V30 5 C -1.2412 -0.8546 -0.8247 0
M  V30 6 C 1.0774 -0.7727 0.2186 0
M  V30 7 O 0.9775 2.1878 -0.7087 0
M  V30 8 C -1.7181 -2.0445 0.0195 0
M  V30 9 C 2.3665 -0.0109 0.5445 0
M  V30 10 H -0.4203 2.5866 1.5425 0
M  V30 11 H -1.8223 1.1644 0.8524 0
M  V30 12 H -1.0127 -0.0473 1.8831 0
M  V30 13 H 0.6537 0.6978 -2.0903 0
M  V30 14 H -0.7909 1.6427 -1.5827 0
M  V30 15 H -0.8244 -1.2632 -1.7722 0
M  V30 16 H -2.1415 -0.2641 -1.1066 0
M  V30 17 H 0.8434 -1.4103 1.0983 0
M  V30 18 H 1.3147 -1.4608 -0.6226 0
M  V30 19 H 1.1471 2.8127 -1.4609 0
M  V30 20 H -2.2331 -1.7058 0.941 0
M  V30 21 H -2.4484 -2.6364 -0.5716 0
M  V30 22 H -0.877 -2.7179 0.2811 0
M  V30 23 H 2.7714 0.4857 -0.3612 0
M  V30 24 H 3.1345 -0.7334 0.8931 0
M  V30 25 H 2.2142 0.7305 1.3521 0
M  V30 END ATOM
M  V30 BEGIN BOND
M  V30 1 1 1 2
M  V30 2 1 2 3
M  V30 3 1 3 4
M  V30 4 1 3 5
M  V30 5 1 3 6
M  V30 6 1 4 7
M  V30 7 1 5 8
M  V30 8 1 6 9
M  V30 9 1 1 10
M  V30 10 1 2 11
M  V30 11 1 2 12
M  V30 12 1 4 13
M  V30 13 1 4 14
M  V30 14 1 5 15
M  V30 15 1 5 16
M  V30 16 1 6 17
M  V30 17 1 6 18
M  V30 18 1 7 19
M  V30 19 1 8 20
M  V30 20 1 8 21
M  V30 21 1 8 22
M  V30 22 1 9 23
M  V30 23 1 9 24
M  V30 24 1 9 25
M  V30 END BOND
M  V30 END CTAB
M  END
>  <Structure No>
3514

>  <LogS>
0.1798

>  <MMFF94 Energy>
24.36

$$$$
Compound 3515
Actelion Java MolfileCreator 2.0

  0  0  0  0  0  0              0 V3000
M  V30 BEGIN CTAB
M  V30 COUNTS 26 25 0 0 0
M  V30 BEGIN ATOM
M  V30 1 S -2.5582 1.5183 0.7989 0
M  V30 2 C -1.8928 0.7468 -0.7399 0
M  V30 3 C -2.1397 0.2028 1.9952 0
M  V30 4 C -0.407 0.5104 -0.6111 0
M  V30 5 C -2.6209 -0.577 -1.038 0
M  V30 6 C -2.149 1.7226 -1.8998 0
M  V30 7 N 0.395 1.496 -0.3382 0
M  V30 8 O 1.7641 1.362 -0.1743 0
M  V30 9 C 2.3799 0.2342 0.3844 0
M  V30 10 O 1.7074 -0.6091 1.0384 0
M  V30 11 N 3.7951 0.0755 0.2516 0
M  V30 12 C 4.5006 -1.064 0.8238 0
M  V30 13 H -2.2806 0.6007 3.0209 0
M  V30 14 H -1.0847 -0.1198 1.8899 0
M  V30 15 H -2.8197 -0.663 1.8662 0
M  V30 16 H -0.0108 -0.4846 -0.7715 0
M  V30 17 H -2.334 -0.9628 -2.0402 0
M  V30 18 H -3.7217 -0.4267 -1.0216 0
M  V30 19 H -2.3584 -1.3585 -0.2955 0
M  V30 20 H -1.673 2.7065 -1.6981 0
M  V30 21 H -1.7352 1.3219 -2.8506 0
M  V30 22 H -3.2398 1.8892 -2.0334 0
M  V30 23 H 4.3372 0.7966 -0.2753 0
M  V30 24 H 4.3637 -1.0773 1.9257 0
M  V30 25 H 5.585 -0.9884 0.5975 0
M  V30 26 H 4.1076 -2.0071 0.3889 0
M  V30 END ATOM
M  V30 BEGIN BOND
M  V30 1 1 1 2
M  V30 2 1 1 3
M  V30 3 1 2 4
M  V30 4 1 2 5
M  V30 5 1 2 6
M  V30 6 2 4 7
M  V30 7 1 7 8
M  V30 8 1 8 9
M  V30 9 2 9 10
M  V30 10 1 9 11
M  V30 11 1 11 12
M  V30 12 1 3 13
M  V30 13 1 3 14
M  V30 14 1 3 15
M  V30 15 1 4 16
M  V30 16 1 5 17
M  V30 17 1 5 18
M  V30 18 1 5 19
M  V30 19 1 6 20
M  V30 20 1 6 21
M  V30 21 1 6 22
M  V30 22 1 11 23
M  V30 23 1 12 24
M  V30 24 1 12 25
M  V30 25 1 12 26
M  V30 END BOND
M  V30 END CTAB
M  END
>  <Structure No>
3515

>  <LogS>
-1.4991

>  <MMFF94 Energy>
20.486

$$$$
Compound 3516
Actelion Java MolfileCreator 2.0

  0  0  0  0  0  0              0 V3000
M  V30 BEGIN CTAB
M  V30 COUNTS 11 10 0 0 0
M  V30 BEGIN ATOM
M  V30 1 O -0.7617 -0.9903 1.5239 0
M  V30 2 C -0.338 -0.4093 0.5366 0
M  V30 3 C 1.0554 -0.733 0.054 0
M  V30 4 C -1.2336 0.5871 -0.1474 0
M  V30 5 O 1.4814 0.1346 -0.9617 0
M  V30 6 H 1.7651 -0.6914 0.9117 0
M  V30 7 H 1.0628 -1.7712 -0.3388 0
M  V30 8 H -2.196 0.0987 -0.4086 0
M  V30 9 H -0.7884 0.9866 -1.0805 0
M  V30 10 H -1.4364 1.434 0.5409 0
M  V30 11 H 1.738 0.9854 -0.5183 0
M  V30 END ATOM
M  V30 BEGIN BOND
M  V30 1 2 1 2
M  V30 2 1 2 3
M  V30 3 1 2 4
M  V30 4 1 3 5
M  V30 5 1 3 6
M  V30 6 1 3 7
M  V30 7 1 4 8
M  V30 8 1 4 9
M  V30 9 1 4 10
M  V30 10 1 5 11
M  V30 END BOND
M  V30 END CTAB
M  END
>  <Structure No>
3516

>  <LogS>
1.1303

>  <MMFF94 Energy>
22.601

$$$$
Compound 3517
Actelion Java MolfileCreator 2.0

  0  0  0  0  0  0              0 V3000
M  V30 BEGIN CTAB
M  V30 COUNTS 13 12 0 0 0
M  V30 BEGIN ATOM
M  V30 1 O 0.6795 -0.8305 -0.0754 0
M  V30 2 C -0.4316 0.0273 -0.0161 0
M  V30 3 C 2.0349 -0.4166 0.0723 0
M  V30 4 C -0.3139 1.345 0.19 0
M  V30 5 C -1.7935 -0.5685 -0.1916 0
M  V30 6 H 2.3015 0.31 -0.7239 0
M  V30 7 H 2.6962 -1.3024 -0.0194 0
M  V30 8 H 2.1882 0.0389 1.0735 0
M  V30 9 H 0.6487 1.8185 0.3221 0
M  V30 10 H -1.193 1.9769 0.2299 0
M  V30 11 H -2.295 -0.1162 -1.0736 0
M  V30 12 H -1.714 -1.6643 -0.3518 0
M  V30 13 H -2.4077 -0.386 0.7156 0
M  V30 END ATOM
M  V30 BEGIN BOND
M  V30 1 1 1 2
M  V30 2 1 1 3
M  V30 3 2 2 4
M  V30 4 1 2 5
M  V30 5 1 3 6
M  V30 6 1 3 7
M  V30 7 1 3 8
M  V30 8 1 4 9
M  V30 9 1 4 10
M  V30 10 1 5 11
M  V30 11 1 5 12
M  V30 12 1 5 13
M  V30 END BOND
M  V30 END CTAB
M  END
>  <Structure No>
3517

>  <LogS>
1.142

>  <MMFF94 Energy>
7.1298

$$$$
Compound 3518
Actelion Java MolfileCreator 2.0

  0  0  0  0  0  0              0 V3000
M  V30 BEGIN CTAB
M  V30 COUNTS 6 5 0 0 0
M  V30 BEGIN ATOM
M  V30 1 F 1.1001 1.3542 0.423 0
M  V30 2 C 0.6204 0.0997 0.2178 0
M  V30 3 F 1.445 -0.9672 0.3831 0
M  V30 4 C -0.6499 -0.0827 -0.1426 0
M  V30 5 F -1.4746 0.9843 -0.3078 0
M  V30 6 F -1.1296 -1.3372 -0.3478 0
M  V30 END ATOM
M  V30 BEGIN BOND
M  V30 1 1 1 2
M  V30 2 1 2 3
M  V30 3 2 2 4
M  V30 4 1 4 5
M  V30 5 1 4 6
M  V30 END BOND
M  V30 END CTAB
M  END
>  <Structure No>
3518

>  <LogS>
-2.8001

>  <MMFF94 Energy>
7.1342

$$$$
Compound 3519
Actelion Java MolfileCreator 2.0

  0  0  0  0  0  0              0 V3000
M  V30 BEGIN CTAB
M  V30 COUNTS 21 21 0 0 0
M  V30 BEGIN ATOM
M  V30 1 O 2.4579 1.7438 0.0 0
M  V30 2 C 1.2411 1.4185 0.0143 0
M  V30 3 N 0.7809 0.0731 -0.0728 0
M  V30 4 N 0.1894 2.3568 0.1171 0
M  V30 5 C -0.6887 0.0885 -0.0373 0
M  V30 6 C 1.6435 -1.1014 -0.1891 0
M  V30 7 C -0.9873 1.5622 0.0891 0
M  V30 8 C -1.2731 -0.4664 -1.3444 0
M  V30 9 C -1.2116 -0.6746 1.1879 0
M  V30 10 O 2.432 -1.2166 0.9617 0
M  V30 11 O -2.1447 2.0549 0.1616 0
M  V30 12 H 0.2608 3.3954 0.1943 0
M  V30 13 H 1.0286 -2.0193 -0.3109 0
M  V30 14 H 2.2923 -0.9895 -1.0856 0
M  V30 15 H -1.035 -1.5452 -1.4536 0
M  V30 16 H -2.3783 -0.3509 -1.3542 0
M  V30 17 H -0.8515 0.0768 -2.2175 0
M  V30 18 H -0.9596 -1.7534 1.1125 0
M  V30 19 H -2.3161 -0.5774 1.2629 0
M  V30 20 H -0.7553 -0.2718 2.1179 0
M  V30 21 H 3.0063 -2.0138 0.8227 0
M  V30 END ATOM
M  V30 BEGIN BOND
M  V30 1 2 1 2
M  V30 2 1 2 3
M  V30 3 1 2 4
M  V30 4 1 3 5
M  V30 5 1 3 6
M  V30 6 1 4 7
M  V30 7 1 5 8
M  V30 8 1 5 9
M  V30 9 1 6 10
M  V30 10 2 7 11
M  V30 11 1 5 7
M  V30 12 1 4 12
M  V30 13 1 6 13
M  V30 14 1 6 14
M  V30 15 1 8 15
M  V30 16 1 8 16
M  V30 17 1 8 17
M  V30 18 1 9 18
M  V30 19 1 9 19
M  V30 20 1 9 20
M  V30 21 1 10 21
M  V30 END BOND
M  V30 END CTAB
M  END
>  <Structure No>
3519

>  <LogS>
0.8009

>  <MMFF94 Energy>
-97.614

$$$$
Compound 3520
Actelion Java MolfileCreator 2.0

  0  0  0  0  0  0              0 V3000
M  V30 BEGIN CTAB
M  V30 COUNTS 25 26 0 0 0
M  V30 BEGIN ATOM
M  V30 1 Cl -5.0615 0.798 -2.129 0
M  V30 2 C -3.6546 0.6856 -1.0799 0
M  V30 3 C -3.1046 1.826 -0.4747 0
M  V30 4 C -3.0782 -0.5674 -0.8519 0
M  V30 5 Cl -3.7964 3.4213 -0.7387 0
M  V30 6 C -1.9844 1.7025 0.3539 0
M  V30 7 C -1.9574 -0.6956 -0.0239 0
M  V30 8 C -1.4032 0.4469 0.5895 0
M  V30 9 Cl -1.2776 -2.3026 0.2113 0
M  V30 10 S 0.0223 0.3297 1.6293 0
M  V30 11 O 0.3573 1.6697 2.2225 0
M  V30 12 O -0.2728 -0.6286 2.7495 0
M  V30 13 C 1.3988 -0.2259 0.682 0
M  V30 14 C 1.6913 0.3864 -0.5447 0
M  V30 15 C 2.2063 -1.2767 1.1415 0
M  V30 16 C 2.7772 -0.052 -1.3084 0
M  V30 17 C 3.2922 -1.7139 0.3766 0
M  V30 18 C 3.5782 -1.103 -0.8491 0
M  V30 19 Cl 4.9397 -1.6531 -1.808 0
M  V30 20 H -3.5025 -1.446 -1.3218 0
M  V30 21 H -1.5676 2.5906 0.8108 0
M  V30 22 H 1.0774 1.2005 -0.9094 0
M  V30 23 H 1.9973 -1.7588 2.0877 0
M  V30 24 H 2.9945 0.4249 -2.2556 0
M  V30 25 H 3.9097 -2.5269 0.7369 0
M  V30 END ATOM
M  V30 BEGIN BOND
M  V30 1 1 1 2
M  V30 2 2 2 3
M  V30 3 1 2 4
M  V30 4 1 3 5
M  V30 5 1 3 6
M  V30 6 2 4 7
M  V30 7 2 6 8
M  V30 8 1 7 9
M  V30 9 1 8 10
M  V30 10 2 10 11
M  V30 11 2 10 12
M  V30 12 1 10 13
M  V30 13 2 13 14
M  V30 14 1 13 15
M  V30 15 1 14 16
M  V30 16 2 15 17
M  V30 17 2 16 18
M  V30 18 1 18 19
M  V30 19 1 7 8
M  V30 20 1 17 18
M  V30 21 1 4 20
M  V30 22 1 6 21
M  V30 23 1 14 22
M  V30 24 1 15 23
M  V30 25 1 16 24
M  V30 26 1 17 25
M  V30 END BOND
M  V30 END CTAB
M  END
>  <Structure No>
3520

>  <LogS>
-6.6594

>  <MMFF94 Energy>
57.501

$$$$
Compound 3521
Actelion Java MolfileCreator 2.0

  0  0  0  0  0  0              0 V3000
M  V30 BEGIN CTAB
M  V30 COUNTS 27 29 0 0 0
M  V30 BEGIN ATOM
M  V30 1 O 0.6508 2.7682 -0.488 0
M  V30 2 C 0.459 1.5588 -0.19 0
M  V30 3 C -0.9214 0.9991 -0.1086 0
M  V30 4 C 1.6256 0.6713 -0.0074 0
M  V30 5 C -1.0947 -0.41 -0.2133 0
M  V30 6 C -2.0648 1.8312 0.0317 0
M  V30 7 C 1.4557 -0.7204 -0.1056 0
M  V30 8 C 2.9076 1.2008 0.2246 0
M  V30 9 C 0.1134 -1.2691 -0.3885 0
M  V30 10 C -2.4077 -0.955 -0.1875 0
M  V30 11 O -1.9862 3.2023 0.2884 0
M  V30 12 C -3.3403 1.2762 -0.0517 0
M  V30 13 C 2.5697 -1.568 0.0295 0
M  V30 14 C 4.0062 0.3497 0.3661 0
M  V30 15 O 0.0136 -2.4419 -0.8396 0
M  V30 16 N -2.6511 -2.3674 -0.1345 0
M  V30 17 C -3.5115 -0.0976 -0.1587 0
M  V30 18 C 3.8376 -1.0322 0.2687 0
M  V30 19 H 3.0587 2.2704 0.3006 0
M  V30 20 H -1.1615 3.6611 0.6481 0
M  V30 21 H -4.2119 1.9143 0.0249 0
M  V30 22 H 2.4596 -2.6425 -0.0454 0
M  V30 23 H 4.9899 0.7625 0.5486 0
M  V30 24 H -1.9707 -3.0238 0.3049 0
M  V30 25 H -3.6043 -2.7451 -0.3342 0
M  V30 26 H -4.5161 -0.5024 -0.1629 0
M  V30 27 H 4.6908 -1.6894 0.376 0
M  V30 END ATOM
M  V30 BEGIN BOND
M  V30 1 2 1 2
M  V30 2 1 2 3
M  V30 3 1 2 4
M  V30 4 2 3 5
M  V30 5 1 3 6
M  V30 6 2 4 7
M  V30 7 1 4 8
M  V30 8 1 5 9
M  V30 9 1 5 10
M  V30 10 1 6 11
M  V30 11 2 6 12
M  V30 12 1 7 13
M  V30 13 2 8 14
M  V30 14 2 9 15
M  V30 15 1 10 16
M  V30 16 2 10 17
M  V30 17 2 13 18
M  V30 18 1 7 9
M  V30 19 1 12 17
M  V30 20 1 14 18
M  V30 21 1 8 19
M  V30 22 1 11 20
M  V30 23 1 12 21
M  V30 24 1 13 22
M  V30 25 1 14 23
M  V30 26 1 16 24
M  V30 27 1 16 25
M  V30 28 1 17 26
M  V30 29 1 18 27
M  V30 END BOND
M  V30 END CTAB
M  END
>  <Structure No>
3521

>  <LogS>
-3.824

>  <MMFF94 Energy>
74.719

$$$$
Compound 3522
Actelion Java MolfileCreator 2.0

  0  0  0  0  0  0              0 V3000
M  V30 BEGIN CTAB
M  V30 COUNTS 30 32 0 0 0
M  V30 BEGIN ATOM
M  V30 1 S 3.8502 -1.3989 -0.6118 0
M  V30 2 O 4.065 -2.337 0.5423 0
M  V30 3 O 5.1894 -0.9586 -1.134 0
M  V30 4 O 3.0427 -2.1917 -1.8543 0 CHG=-1
M  V30 5 C 2.9066 0.0053 -0.0781 0
M  V30 6 C 1.5019 -0.0445 0.1655 0
M  V30 7 C 3.5837 1.2282 0.053 0
M  V30 8 C 0.7122 -1.3075 0.1546 0
M  V30 9 C 0.8118 1.156 0.4574 0
M  V30 10 C 2.8978 2.3927 0.3833 0
M  V30 11 O 1.2792 -2.4235 0.2968 0
M  V30 12 C -0.7649 -1.2598 0.0399 0
M  V30 13 C -0.6584 1.1467 0.6474 0
M  V30 14 C 1.521 2.3624 0.5734 0
M  V30 15 C -1.4577 -0.0414 0.2362 0
M  V30 16 C -1.4778 -2.4319 -0.2596 0
M  V30 17 O -1.2089 2.1317 1.2079 0
M  V30 18 C -2.8729 -0.0126 0.0549 0
M  V30 19 C -2.862 -2.4031 -0.3866 0
M  V30 20 S -3.8338 1.4763 0.1137 0
M  V30 21 C -3.5527 -1.2046 -0.2387 0
M  V30 22 O -3.1738 2.5461 -0.7103 0
M  V30 23 O -3.9743 1.9386 1.5367 0
M  V30 24 O -5.3678 1.204 -0.5174 0 CHG=-1
M  V30 25 H 4.6516 1.2892 -0.1105 0
M  V30 26 H 3.435 3.3282 0.4754 0
M  V30 27 H 1.0082 3.2879 0.8051 0
M  V30 28 H -0.9625 -3.3734 -0.404 0
M  V30 29 H -3.4018 -3.3125 -0.6178 0
M  V30 30 H -4.6273 -1.2113 -0.3651 0
M  V30 END ATOM
M  V30 BEGIN BOND
M  V30 1 2 1 2
M  V30 2 2 1 3
M  V30 3 1 1 4
M  V30 4 1 1 5
M  V30 5 2 5 6
M  V30 6 1 5 7
M  V30 7 1 6 8
M  V30 8 1 6 9
M  V30 9 2 7 10
M  V30 10 2 8 11
M  V30 11 1 8 12
M  V30 12 1 9 13
M  V30 13 2 9 14
M  V30 14 2 12 15
M  V30 15 1 12 16
M  V30 16 2 13 17
M  V30 17 1 15 18
M  V30 18 2 16 19
M  V30 19 1 18 20
M  V30 20 2 18 21
M  V30 21 2 20 22
M  V30 22 2 20 23
M  V30 23 1 20 24
M  V30 24 1 10 14
M  V30 25 1 13 15
M  V30 26 1 19 21
M  V30 27 1 7 25
M  V30 28 1 10 26
M  V30 29 1 14 27
M  V30 30 1 16 28
M  V30 31 1 19 29
M  V30 32 1 21 30
M  V30 END BOND
M  V30 END CTAB
M  END
>  <Structure No>
3522

>  <LogS>
0.2572

>  <MMFF94 Energy>
95.739

$$$$
Compound 3523
Actelion Java MolfileCreator 2.0

  0  0  0  0  0  0              0 V3000
M  V30 BEGIN CTAB
M  V30 COUNTS 26 28 0 0 0
M  V30 BEGIN ATOM
M  V30 1 O -0.1624 -2.6013 0.1624 0
M  V30 2 C -0.3028 -1.3473 0.1508 0
M  V30 3 C 0.8907 -0.4687 0.1718 0
M  V30 4 C -1.6613 -0.756 0.1163 0
M  V30 5 C 0.7328 0.9335 0.1589 0
M  V30 6 C 2.1846 -1.0201 0.2048 0
M  V30 7 C -1.8188 0.647 0.1033 0
M  V30 8 C -2.8011 -1.5806 0.0961 0
M  V30 9 C -0.6255 1.5252 0.1243 0
M  V30 10 C 1.8715 1.758 0.1791 0
M  V30 11 C 3.313 -0.1903 0.2247 0
M  V30 12 C -3.1131 1.198 0.0705 0
M  V30 13 C -4.0793 -1.0192 0.0636 0
M  V30 14 O -0.7663 2.7792 0.1128 0
M  V30 15 C 3.1502 1.199 0.2118 0
M  V30 16 N 4.6245 -0.7598 0.2582 0
M  V30 17 C -4.235 0.3668 0.0507 0
M  V30 18 H 2.3203 -2.0946 0.2151 0
M  V30 19 H -2.7055 -2.659 0.1056 0
M  V30 20 H 1.7747 2.8364 0.1697 0
M  V30 21 H -3.259 2.2709 0.0599 0
M  V30 22 H -4.9511 -1.6605 0.0482 0
M  V30 23 H 4.0153 1.85 0.2269 0
M  V30 24 H 4.758 -1.7955 0.2682 0
M  V30 25 H 5.472 -0.1497 0.2733 0
M  V30 26 H -5.2272 0.7985 0.0255 0
M  V30 END ATOM
M  V30 BEGIN BOND
M  V30 1 2 1 2
M  V30 2 1 2 3
M  V30 3 1 2 4
M  V30 4 2 3 5
M  V30 5 1 3 6
M  V30 6 2 4 7
M  V30 7 1 4 8
M  V30 8 1 5 9
M  V30 9 1 5 10
M  V30 10 2 6 11
M  V30 11 1 7 12
M  V30 12 2 8 13
M  V30 13 2 9 14
M  V30 14 2 10 15
M  V30 15 1 11 16
M  V30 16 2 12 17
M  V30 17 1 7 9
M  V30 18 1 11 15
M  V30 19 1 13 17
M  V30 20 1 6 18
M  V30 21 1 8 19
M  V30 22 1 10 20
M  V30 23 1 12 21
M  V30 24 1 13 22
M  V30 25 1 15 23
M  V30 26 1 16 24
M  V30 27 1 16 25
M  V30 28 1 17 26
M  V30 END BOND
M  V30 END CTAB
M  END
>  <Structure No>
3523

>  <LogS>
-6.1366

>  <MMFF94 Energy>
51.045

$$$$
Compound 3524
Actelion Java MolfileCreator 2.0

  0  0  0  0  0  0              0 V3000
M  V30 BEGIN CTAB
M  V30 COUNTS 38 38 0 0 0
M  V30 BEGIN ATOM
M  V30 1 O 1.6645 -0.3168 1.7438 0
M  V30 2 C 1.1128 -0.3488 0.6092 0
M  V30 3 O 1.2865 0.7095 -0.2914 0
M  V30 4 C 0.3121 -1.53 0.2159 0
M  V30 5 C 2.0923 1.856 -0.0236 0
M  V30 6 C -0.8176 -1.4364 -0.6416 0
M  V30 7 C 0.734 -2.7979 0.6571 0
M  V30 8 C 3.5547 1.5834 -0.3689 0
M  V30 9 C -1.4094 -0.1393 -1.0394 0
M  V30 10 C -1.4496 -2.6171 -1.0737 0
M  V30 11 C 0.0805 -3.955 0.2319 0
M  V30 12 O 4.082 0.6171 0.5143 0
M  V30 13 O -1.9544 -0.0201 -2.1713 0
M  V30 14 O -1.4073 0.9345 -0.1406 0
M  V30 15 C -1.0019 -3.8654 -0.6401 0
M  V30 16 C 5.42 0.345 0.1646 0
M  V30 17 C -2.0175 2.1934 -0.4158 0
M  V30 18 C -3.537 2.104 -0.278 0
M  V30 19 O -3.8793 1.7596 1.0528 0
M  V30 20 C -4.4739 0.482 1.0986 0
M  V30 21 H 1.9893 2.1745 1.0367 0
M  V30 22 H 1.7303 2.6898 -0.6616 0
M  V30 23 H 1.593 -2.8961 1.31 0
M  V30 24 H 4.1147 2.5418 -0.2751 0
M  V30 25 H 3.6051 1.2313 -1.4251 0
M  V30 26 H -2.3141 -2.5725 -1.7252 0
M  V30 27 H 0.4226 -4.9245 0.5704 0
M  V30 28 H -1.5044 -4.765 -0.9715 0
M  V30 29 H 6.0519 1.2578 0.2433 0
M  V30 30 H 5.8249 -0.405 0.8744 0
M  V30 31 H 5.4882 -0.0887 -0.8577 0
M  V30 32 H -1.7425 2.5392 -1.436 0
M  V30 33 H -1.6319 2.9395 0.3108 0
M  V30 34 H -3.9627 3.107 -0.4928 0
M  V30 35 H -3.9455 1.4176 -1.0581 0
M  V30 36 H -4.6929 0.2303 2.1564 0
M  V30 37 H -5.4369 0.4733 0.5415 0
M  V30 38 H -3.7869 -0.2971 0.701 0
M  V30 END ATOM
M  V30 BEGIN BOND
M  V30 1 2 1 2
M  V30 2 1 2 3
M  V30 3 1 2 4
M  V30 4 1 3 5
M  V30 5 2 4 6
M  V30 6 1 4 7
M  V30 7 1 5 8
M  V30 8 1 6 9
M  V30 9 1 6 10
M  V30 10 2 7 11
M  V30 11 1 8 12
M  V30 12 2 9 13
M  V30 13 1 9 14
M  V30 14 2 10 15
M  V30 15 1 12 16
M  V30 16 1 14 17
M  V30 17 1 17 18
M  V30 18 1 18 19
M  V30 19 1 19 20
M  V30 20 1 11 15
M  V30 21 1 5 21
M  V30 22 1 5 22
M  V30 23 1 7 23
M  V30 24 1 8 24
M  V30 25 1 8 25
M  V30 26 1 10 26
M  V30 27 1 11 27
M  V30 28 1 15 28
M  V30 29 1 16 29
M  V30 30 1 16 30
M  V30 31 1 16 31
M  V30 32 1 17 32
M  V30 33 1 17 33
M  V30 34 1 18 34
M  V30 35 1 18 35
M  V30 36 1 20 36
M  V30 37 1 20 37
M  V30 38 1 20 38
M  V30 END BOND
M  V30 END CTAB
M  END
>  <Structure No>
3524

>  <LogS>
-1.5213

>  <MMFF94 Energy>
52.816

$$$$
Compound 3525
Actelion Java MolfileCreator 2.0

  0  0  0  0  0  0              0 V3000
M  V30 BEGIN CTAB
M  V30 COUNTS 66 66 0 0 0
M  V30 BEGIN ATOM
M  V30 1 O 3.2333 -3.1543 1.7339 0
M  V30 2 C 2.0262 -2.8279 1.9054 0
M  V30 3 O 1.1761 -2.6837 0.801 0
M  V30 4 C 1.5256 -2.5439 3.2761 0
M  V30 5 C 1.6105 -2.7333 -0.5573 0
M  V30 6 C 0.1403 -2.5205 3.5941 0
M  V30 7 C 2.456 -2.2015 4.2775 0
M  V30 8 C 1.7382 -1.3211 -1.1349 0
M  V30 9 C -0.8975 -2.9587 2.6469 0
M  V30 10 C -0.2723 -2.0999 4.8688 0
M  V30 11 C 2.028 -1.8119 5.5482 0
M  V30 12 C 2.8483 -0.511 -0.4471 0
M  V30 13 O -0.8187 -4.0978 2.1093 0
M  V30 14 O -1.9633 -2.1043 2.3539 0
M  V30 15 C 0.6666 -1.7505 5.84 0
M  V30 16 C 2.9608 0.9202 -0.9961 0
M  V30 17 C -2.9895 -2.4418 1.4254 0
M  V30 18 C 3.5539 0.9681 -2.4157 0
M  V30 19 C -3.8064 -1.1976 1.0779 0
M  V30 20 C 3.8517 2.412 -2.8727 0
M  V30 21 C -2.9616 -0.1786 0.2939 0
M  V30 22 C 5.3389 2.7925 -2.7811 0
M  V30 23 C -3.7102 1.1359 0.0237 0
M  V30 24 C 5.8554 2.8536 -1.3452 0
M  V30 25 C -4.8007 0.984 -1.0508 0
M  V30 26 C -5.5481 2.3001 -1.3368 0
M  V30 27 C -4.687 3.4183 -1.9523 0
M  V30 28 C -4.0807 3.035 -3.302 0
M  V30 29 H 0.8409 -3.2792 -1.1438 0
M  V30 30 H 2.5652 -3.2929 -0.6653 0
M  V30 31 H 3.5192 -2.2056 4.0703 0
M  V30 32 H 1.9596 -1.4157 -2.2183 0
M  V30 33 H 0.7649 -0.7947 -1.0235 0
M  V30 34 H -1.3261 -2.0685 5.1211 0
M  V30 35 H 2.7548 -1.5431 6.304 0
M  V30 36 H 2.6199 -0.4345 0.6376 0
M  V30 37 H 3.824 -1.0354 -0.5507 0
M  V30 38 H 0.338 -1.4403 6.8237 0
M  V30 39 H 3.6076 1.4985 -0.3047 0
M  V30 40 H 1.9591 1.4037 -0.991 0
M  V30 41 H -2.5452 -2.8638 0.4965 0
M  V30 42 H -3.6547 -3.2073 1.8794 0
M  V30 43 H 4.4721 0.343 -2.4704 0
M  V30 44 H 2.8159 0.5301 -3.1207 0
M  V30 45 H -4.6775 -1.5159 0.4678 0
M  V30 46 H -4.1855 -0.7365 2.0165 0
M  V30 47 H 3.2345 3.1489 -2.3117 0
M  V30 48 H 3.5556 2.5048 -3.9411 0
M  V30 49 H -2.0507 0.0645 0.8842 0
M  V30 50 H -2.6258 -0.6251 -0.6682 0
M  V30 51 H 5.9517 2.0722 -3.3657 0
M  V30 52 H 5.4722 3.7951 -3.2434 0
M  V30 53 H -2.9586 1.8752 -0.3217 0
M  V30 54 H -4.155 1.5193 0.9676 0
M  V30 55 H 5.2086 3.5119 -0.7266 0
M  V30 56 H 6.886 3.2678 -1.3416 0
M  V30 57 H 5.891 1.8374 -0.8995 0
M  V30 58 H -5.5566 0.2497 -0.6997 0
M  V30 59 H -4.3636 0.5778 -1.9877 0
M  V30 60 H -5.9937 2.6761 -0.3903 0
M  V30 61 H -6.3926 2.0817 -2.0264 0
M  V30 62 H -3.882 3.7266 -1.2535 0
M  V30 63 H -5.3366 4.3075 -2.1047 0
M  V30 64 H -4.8663 2.6496 -3.9866 0
M  V30 65 H -3.6149 3.931 -3.765 0
M  V30 66 H -3.2902 2.266 -3.1723 0
M  V30 END ATOM
M  V30 BEGIN BOND
M  V30 1 2 1 2
M  V30 2 1 2 3
M  V30 3 1 2 4
M  V30 4 1 3 5
M  V30 5 2 4 6
M  V30 6 1 4 7
M  V30 7 1 5 8
M  V30 8 1 6 9
M  V30 9 1 6 10
M  V30 10 2 7 11
M  V30 11 1 8 12
M  V30 12 2 9 13
M  V30 13 1 9 14
M  V30 14 2 10 15
M  V30 15 1 12 16
M  V30 16 1 14 17
M  V30 17 1 16 18
M  V30 18 1 17 19
M  V30 19 1 18 20
M  V30 20 1 19 21
M  V30 21 1 20 22
M  V30 22 1 21 23
M  V30 23 1 22 24
M  V30 24 1 23 25
M  V30 25 1 25 26
M  V30 26 1 26 27
M  V30 27 1 27 28
M  V30 28 1 11 15
M  V30 29 1 5 29
M  V30 30 1 5 30
M  V30 31 1 7 31
M  V30 32 1 8 32
M  V30 33 1 8 33
M  V30 34 1 10 34
M  V30 35 1 11 35
M  V30 36 1 12 36
M  V30 37 1 12 37
M  V30 38 1 15 38
M  V30 39 1 16 39
M  V30 40 1 16 40
M  V30 41 1 17 41
M  V30 42 1 17 42
M  V30 43 1 18 43
M  V30 44 1 18 44
M  V30 45 1 19 45
M  V30 46 1 19 46
M  V30 47 1 20 47
M  V30 48 1 20 48
M  V30 49 1 21 49
M  V30 50 1 21 50
M  V30 51 1 22 51
M  V30 52 1 22 52
M  V30 53 1 23 53
M  V30 54 1 23 54
M  V30 55 1 24 55
M  V30 56 1 24 56
M  V30 57 1 24 57
M  V30 58 1 25 58
M  V30 59 1 25 59
M  V30 60 1 26 60
M  V30 61 1 26 61
M  V30 62 1 27 62
M  V30 63 1 27 63
M  V30 64 1 28 64
M  V30 65 1 28 65
M  V30 66 1 28 66
M  V30 END BOND
M  V30 END CTAB
M  END
>  <Structure No>
3525

>  <LogS>
-7.2493

>  <MMFF94 Energy>
16.694

$$$$
Compound 3526
Actelion Java MolfileCreator 2.0

  0  0  0  0  0  0              0 V3000
M  V30 BEGIN CTAB
M  V30 COUNTS 49 53 0 0 0
M  V30 BEGIN ATOM
M  V30 1 O 2.4445 1.8737 -2.2814 0
M  V30 2 C 1.9527 0.847 -1.7327 0
M  V30 3 O 1.4517 -0.2489 -2.4381 0
M  V30 4 C 1.8583 0.602 -0.31 0
M  V30 5 C 1.0104 -1.2628 -1.5202 0 CFG=1
M  V30 6 C 2.3801 1.3296 0.77 0
M  V30 7 C 1.2825 -0.6412 -0.163 0
M  V30 8 C -0.4792 -1.6521 -1.7529 0 CFG=1
M  V30 9 O 3.0098 2.562 0.4955 0
M  V30 10 C 2.2601 0.7562 2.0744 0
M  V30 11 C 1.1702 -1.2289 1.1002 0
M  V30 12 N -0.765 -2.9191 -1.0078 0
M  V30 13 C -1.4203 -0.4934 -1.3837 0
M  V30 14 C 3.7211 3.3758 1.4258 0
M  V30 15 O 2.7583 1.4505 3.1945 0
M  V30 16 C 1.6447 -0.5207 2.2202 0
M  V30 17 C -2.1802 -3.0769 -0.6238 0
M  V30 18 C -0.331 -4.1077 -1.7665 0
M  V30 19 C -2.3861 -0.6412 -0.3369 0
M  V30 20 C -1.3641 0.7316 -2.1056 0
M  V30 21 C 2.7113 0.9769 4.5394 0
M  V30 22 C -2.5749 -1.9624 0.3334 0
M  V30 23 C -3.1937 0.4469 0.0507 0
M  V30 24 C -2.1851 1.7701 -1.691 0
M  V30 25 C -3.0558 1.6367 -0.6541 0
M  V30 26 O -2.2775 3.0399 -2.2151 0
M  V30 27 O -3.743 2.8165 -0.4744 0
M  V30 28 C -3.2705 3.7523 -1.4622 0
M  V30 29 H 1.6825 -2.14 -1.6424 0
M  V30 30 H -0.6154 -1.8183 -2.8451 0
M  V30 31 H 0.7508 -2.2227 1.2152 0
M  V30 32 H 3.0396 3.7346 2.2219 0
M  V30 33 H 4.5804 2.8007 1.8576 0
M  V30 34 H 4.1225 4.2672 0.8909 0
M  V30 35 H 1.5437 -0.9784 3.2036 0
M  V30 36 H -2.324 -4.042 -0.0795 0
M  V30 37 H -2.8454 -3.0794 -1.5279 0
M  V30 38 H -0.7979 -4.1466 -2.7812 0
M  V30 39 H 0.7822 -4.1272 -1.8726 0
M  V30 40 H -0.6019 -5.034 -1.2102 0
M  V30 41 H -0.7101 0.8692 -2.9636 0
M  V30 42 H 3.2139 1.7093 5.1831 0
M  V30 43 H 3.2341 0.0086 4.6327 0
M  V30 44 H 1.6682 0.8776 4.8721 0
M  V30 45 H -1.9361 -2.0029 1.2516 0
M  V30 46 H -3.638 -2.1042 0.6313 0
M  V30 47 H -3.9266 0.3559 0.8488 0
M  V30 48 H -4.1119 4.0563 -2.1315 0
M  V30 49 H -2.8104 4.6386 -0.9668 0
M  V30 END ATOM
M  V30 BEGIN BOND
M  V30 1 2 1 2
M  V30 2 1 2 3
M  V30 3 1 2 4
M  V30 4 1 3 5
M  V30 5 2 4 6
M  V30 6 1 4 7
M  V30 7 1 5 8
M  V30 8 1 6 9
M  V30 9 1 6 10
M  V30 10 2 7 11
M  V30 11 1 8 12
M  V30 12 1 8 13
M  V30 13 1 9 14
M  V30 14 1 10 15
M  V30 15 2 10 16
M  V30 16 1 12 17
M  V30 17 1 12 18
M  V30 18 2 13 19
M  V30 19 1 13 20
M  V30 20 1 15 21
M  V30 21 1 17 22
M  V30 22 1 19 23
M  V30 23 2 20 24
M  V30 24 2 23 25
M  V30 25 1 24 26
M  V30 26 1 25 27
M  V30 27 1 26 28
M  V30 28 1 5 7
M  V30 29 1 11 16
M  V30 30 1 19 22
M  V30 31 1 24 25
M  V30 32 1 27 28
M  V30 33 1 5 29
M  V30 34 1 8 30
M  V30 35 1 11 31
M  V30 36 1 14 32
M  V30 37 1 14 33
M  V30 38 1 14 34
M  V30 39 1 16 35
M  V30 40 1 17 36
M  V30 41 1 17 37
M  V30 42 1 18 38
M  V30 43 1 18 39
M  V30 44 1 18 40
M  V30 45 1 20 41
M  V30 46 1 21 42
M  V30 47 1 21 43
M  V30 48 1 21 44
M  V30 49 1 22 45
M  V30 50 1 22 46
M  V30 51 1 23 47
M  V30 52 1 28 48
M  V30 53 1 28 49
M  V30 END BOND
M  V30 BEGIN COLLECTION
M  V30 MDLV30/STEABS ATOMS=(2 5 8)
M  V30 END COLLECTION
M  V30 END CTAB
M  END
>  <Structure No>
3526

>  <LogS>
-4.1065

>  <MMFF94 Energy>
134.99

$$$$
Compound 3527
Actelion Java MolfileCreator 2.0

  0  0  0  0  0  0              0 V3000
M  V30 BEGIN CTAB
M  V30 COUNTS 26 27 0 0 0
M  V30 BEGIN ATOM
M  V30 1 N -1.498 -0.0788 -1.1825 0
M  V30 2 C -0.4069 0.4919 -0.4327 0
M  V30 3 C -2.9065 0.115 -0.8339 0
M  V30 4 C 0.7949 -0.2329 -0.2212 0
M  V30 5 C -0.5139 1.8018 0.069 0
M  V30 6 C -3.2052 -0.4547 0.5489 0
M  V30 7 C 1.8708 0.3858 0.472 0
M  V30 8 C 0.9474 -1.5681 -0.6521 0
M  V30 9 C 0.5463 2.3941 0.7542 0
M  V30 10 C 1.7347 1.6953 0.9513 0
M  V30 11 C 3.0667 -0.3174 0.6855 0
M  V30 12 C 2.144 -2.2541 -0.4291 0
M  V30 13 C 3.2012 -1.6299 0.2321 0
M  V30 14 H -1.2888 -0.6695 -2.0178 0
M  V30 15 H -3.1729 1.1914 -0.8717 0
M  V30 16 H -3.5427 -0.4104 -1.5787 0
M  V30 17 H -1.4108 2.3839 -0.0885 0
M  V30 18 H -4.2896 -0.3563 0.7663 0
M  V30 19 H -2.9271 -1.5293 0.5861 0
M  V30 20 H -2.6364 0.0973 1.3266 0
M  V30 21 H 0.1474 -2.1013 -1.1454 0
M  V30 22 H 0.4486 3.4057 1.1271 0
M  V30 23 H 2.5468 2.1771 1.483 0
M  V30 24 H 3.8953 0.1462 1.2078 0
M  V30 25 H 2.2495 -3.2774 -0.7659 0
M  V30 26 H 4.1247 -2.1682 0.4022 0
M  V30 END ATOM
M  V30 BEGIN BOND
M  V30 1 1 1 2
M  V30 2 1 1 3
M  V30 3 1 2 4
M  V30 4 2 2 5
M  V30 5 1 3 6
M  V30 6 1 4 7
M  V30 7 2 4 8
M  V30 8 1 5 9
M  V30 9 1 7 10
M  V30 10 2 7 11
M  V30 11 1 8 12
M  V30 12 1 11 13
M  V30 13 2 9 10
M  V30 14 2 12 13
M  V30 15 1 1 14
M  V30 16 1 3 15
M  V30 17 1 3 16
M  V30 18 1 5 17
M  V30 19 1 6 18
M  V30 20 1 6 19
M  V30 21 1 6 20
M  V30 22 1 8 21
M  V30 23 1 9 22
M  V30 24 1 10 23
M  V30 25 1 11 24
M  V30 26 1 12 25
M  V30 27 1 13 26
M  V30 END BOND
M  V30 END CTAB
M  END
>  <Structure No>
3527

>  <LogS>
-3.1922

>  <MMFF94 Energy>
40.733

$$$$
Compound 3528
Actelion Java MolfileCreator 2.0

  0  0  0  0  0  0              0 V3000
M  V30 BEGIN CTAB
M  V30 COUNTS 17 17 0 0 0
M  V30 BEGIN ATOM
M  V30 1 Cl 3.3821 -1.6054 0.3378 0
M  V30 2 N 1.9357 -0.6786 0.0553 0
M  V30 3 C 1.8304 0.7213 -0.1017 0
M  V30 4 C 0.5919 -1.1331 0.1273 0
M  V30 5 O 2.8229 1.4929 -0.1732 0
M  V30 6 N 0.4808 1.1634 -0.158 0
M  V30 7 O 0.2828 -2.3425 0.2989 0
M  V30 8 C -0.3982 -0.0023 -0.0144 0
M  V30 9 Cl -0.0272 2.8204 -0.3499 0
M  V30 10 C -1.2613 0.1285 1.2469 0
M  V30 11 C -1.2575 -0.1842 -1.2716 0
M  V30 12 H -0.6191 0.2789 2.1415 0
M  V30 13 H -1.9473 0.9977 1.1573 0
M  V30 14 H -1.871 -0.7883 1.397 0
M  V30 15 H -1.9431 0.6804 -1.3992 0
M  V30 16 H -1.8671 -1.1102 -1.1942 0
M  V30 17 H -0.6126 -0.2572 -2.1739 0
M  V30 END ATOM
M  V30 BEGIN BOND
M  V30 1 1 1 2
M  V30 2 1 2 3
M  V30 3 1 2 4
M  V30 4 2 3 5
M  V30 5 1 3 6
M  V30 6 2 4 7
M  V30 7 1 4 8
M  V30 8 1 6 9
M  V30 9 1 8 10
M  V30 10 1 8 11
M  V30 11 1 6 8
M  V30 12 1 10 12
M  V30 13 1 10 13
M  V30 14 1 10 14
M  V30 15 1 11 15
M  V30 16 1 11 16
M  V30 17 1 11 17
M  V30 END BOND
M  V30 END CTAB
M  END
>  <Structure No>
3528

>  <LogS>
-2.5955

>  <MMFF94 Energy>
0.24842

$$$$
Compound 3529
Actelion Java MolfileCreator 2.0

  0  0  0  0  0  0              0 V3000
M  V30 BEGIN CTAB
M  V30 COUNTS 17 17 0 0 0
M  V30 BEGIN ATOM
M  V30 1 Cl 3.1532 -2.215 -0.596 0
M  V30 2 C 1.8909 -1.0427 -0.264 0
M  V30 3 C 0.5482 -1.4173 -0.3522 0
M  V30 4 C 2.2291 0.2613 0.092 0
M  V30 5 C -0.4804 -0.493 -0.0765 0
M  V30 6 C 1.2284 1.1999 0.3401 0
M  V30 7 C -0.129 0.8499 0.2375 0
M  V30 8 C -1.9239 -0.9525 -0.1374 0
M  V30 9 N -1.1203 1.8693 0.4539 0 CHG=1
M  V30 10 F -2.0183 -2.3318 -0.0618 0
M  V30 11 F -2.6429 -0.4266 0.9215 0
M  V30 12 F -2.4902 -0.5407 -1.3295 0
M  V30 13 O -2.1071 1.9646 -0.3037 0
M  V30 14 O -0.8761 2.8824 1.3524 0 CHG=-1
M  V30 15 H 0.3146 -2.4374 -0.6292 0
M  V30 16 H 3.2689 0.5535 0.1648 0
M  V30 17 H 1.5139 2.2139 0.5895 0
M  V30 END ATOM
M  V30 BEGIN BOND
M  V30 1 1 1 2
M  V30 2 2 2 3
M  V30 3 1 2 4
M  V30 4 1 3 5
M  V30 5 2 4 6
M  V30 6 2 5 7
M  V30 7 1 5 8
M  V30 8 1 7 9
M  V30 9 1 8 10
M  V30 10 1 8 11
M  V30 11 1 8 12
M  V30 12 2 9 13
M  V30 13 1 9 14
M  V30 14 1 6 7
M  V30 15 1 3 15
M  V30 16 1 4 16
M  V30 17 1 6 17
M  V30 END BOND
M  V30 END CTAB
M  END
>  <Structure No>
3529

>  <LogS>
-3.3533

>  <MMFF94 Energy>
32.707

$$$$
Compound 3530
Actelion Java MolfileCreator 2.0

  0  0  0  0  0  0              0 V3000
M  V30 BEGIN CTAB
M  V30 COUNTS 29 30 0 0 0
M  V30 BEGIN ATOM
M  V30 1 O -0.972 -2.3504 -1.9448 0
M  V30 2 N -2.0476 -2.0129 -1.4084 0 CHG=1
M  V30 3 O -3.197 -2.6874 -1.7509 0 CHG=-1
M  V30 4 C -2.1174 -0.844 -0.5702 0
M  V30 5 C -1.0027 -0.407 0.1843 0
M  V30 6 C -3.3124 -0.1041 -0.5207 0
M  V30 7 N 0.1987 -1.194 0.2468 0
M  V30 8 C -1.1103 0.7558 0.9633 0
M  V30 9 C -3.4122 1.0647 0.2521 0
M  V30 10 C 1.5255 -0.6396 0.1968 0
M  V30 11 C -2.2969 1.4879 0.9914 0
M  V30 12 N -4.6407 1.8152 0.2837 0 CHG=1
M  V30 13 C 1.7796 0.5991 -0.4208 0
M  V30 14 C 2.5989 -1.3694 0.73 0
M  V30 15 O -4.7333 2.8571 0.9656 0
M  V30 16 O -5.7354 1.3969 -0.4376 0 CHG=-1
M  V30 17 C 3.081 1.1074 -0.4747 0
M  V30 18 C 3.8995 -0.859 0.6751 0
M  V30 19 C 4.1431 0.3826 0.0741 0
M  V30 20 O 5.4343 0.9018 0.0141 0
M  V30 21 H -4.1631 -0.4319 -1.1038 0
M  V30 22 H 0.0981 -2.2256 0.3826 0
M  V30 23 H -0.2766 1.0845 1.5711 0
M  V30 24 H -2.3453 2.3798 1.6029 0
M  V30 25 H 0.9774 1.1666 -0.8739 0
M  V30 26 H 2.4257 -2.3313 1.1959 0
M  V30 27 H 3.2652 2.0628 -0.9493 0
M  V30 28 H 4.7162 -1.4299 1.0981 0
M  V30 29 H 6.225 0.4005 0.4016 0
M  V30 END ATOM
M  V30 BEGIN BOND
M  V30 1 2 1 2
M  V30 2 1 2 3
M  V30 3 1 2 4
M  V30 4 2 4 5
M  V30 5 1 4 6
M  V30 6 1 5 7
M  V30 7 1 5 8
M  V30 8 2 6 9
M  V30 9 1 7 10
M  V30 10 2 8 11
M  V30 11 1 9 12
M  V30 12 2 10 13
M  V30 13 1 10 14
M  V30 14 2 12 15
M  V30 15 1 12 16
M  V30 16 1 13 17
M  V30 17 2 14 18
M  V30 18 2 17 19
M  V30 19 1 19 20
M  V30 20 1 9 11
M  V30 21 1 18 19
M  V30 22 1 6 21
M  V30 23 1 7 22
M  V30 24 1 8 23
M  V30 25 1 11 24
M  V30 26 1 13 25
M  V30 27 1 14 26
M  V30 28 1 17 27
M  V30 29 1 18 28
M  V30 30 1 20 29
M  V30 END BOND
M  V30 END CTAB
M  END
>  <Structure No>
3530

>  <LogS>
-5.444

>  <MMFF94 Energy>
79.375

$$$$
Compound 3531
Actelion Java MolfileCreator 2.0

  0  0  0  0  0  0              0 V3000
M  V30 BEGIN CTAB
M  V30 COUNTS 34 36 0 0 0
M  V30 BEGIN ATOM
M  V30 1 S 5.6961 0.9064 -0.5767 0
M  V30 2 O 5.8928 2.1611 -1.3806 0
M  V30 3 O 6.2707 -0.252 -1.3425 0
M  V30 4 O 6.4915 1.0546 0.8949 0 CHG=-1
M  V30 5 C 3.9791 0.6416 -0.2902 0
M  V30 6 C 3.1062 1.7321 -0.1958 0
M  V30 7 C 3.4867 -0.659 -0.1315 0
M  V30 8 C 1.739 1.534 0.0424 0
M  V30 9 C 2.1216 -0.876 0.107 0
M  V30 10 O 0.8846 2.6343 0.1285 0
M  V30 11 C 1.236 0.2263 0.1927 0
M  V30 12 C 1.6292 -2.1788 0.2693 0
M  V30 13 C -0.1306 -0.0047 0.4331 0
M  V30 14 C 0.27 -2.3935 0.5056 0
M  V30 15 C -0.6219 -1.3151 0.5686 0
M  V30 16 N -2.0125 -1.5656 0.837 0
M  V30 17 C -3.094 -0.7569 0.3422 0
M  V30 18 C -4.2835 -0.6676 1.0822 0
M  V30 19 C -3.0097 -0.1033 -0.9014 0
M  V30 20 C -5.3569 0.0924 0.6072 0
M  V30 21 C -4.0852 0.6558 -1.3732 0
M  V30 22 C -5.2564 0.757 -0.6177 0
M  V30 23 H 3.4879 2.7394 -0.3055 0
M  V30 24 H 4.1675 -1.5001 -0.191 0
M  V30 25 H 1.226 3.5827 0.023 0
M  V30 26 H 2.2954 -3.0315 0.2148 0
M  V30 27 H -0.813 0.8301 0.5315 0
M  V30 28 H -0.093 -3.406 0.6296 0
M  V30 29 H -2.2537 -2.3939 1.4278 0
M  V30 30 H -4.3737 -1.1802 2.0319 0
M  V30 31 H -2.1218 -0.1928 -1.5135 0
M  V30 32 H -6.2674 0.1645 1.1881 0
M  V30 33 H -4.0135 1.1595 -2.3285 0
M  V30 34 H -6.0886 1.3436 -0.9851 0
M  V30 END ATOM
M  V30 BEGIN BOND
M  V30 1 2 1 2
M  V30 2 2 1 3
M  V30 3 1 1 4
M  V30 4 1 1 5
M  V30 5 1 5 6
M  V30 6 2 5 7
M  V30 7 2 6 8
M  V30 8 1 7 9
M  V30 9 1 8 10
M  V30 10 1 8 11
M  V30 11 2 9 12
M  V30 12 2 11 13
M  V30 13 1 12 14
M  V30 14 1 13 15
M  V30 15 1 15 16
M  V30 16 1 16 17
M  V30 17 2 17 18
M  V30 18 1 17 19
M  V30 19 1 18 20
M  V30 20 2 19 21
M  V30 21 2 20 22
M  V30 22 1 9 11
M  V30 23 2 14 15
M  V30 24 1 21 22
M  V30 25 1 6 23
M  V30 26 1 7 24
M  V30 27 1 10 25
M  V30 28 1 12 26
M  V30 29 1 13 27
M  V30 30 1 14 28
M  V30 31 1 16 29
M  V30 32 1 18 30
M  V30 33 1 19 31
M  V30 34 1 20 32
M  V30 35 1 21 33
M  V30 36 1 22 34
M  V30 END BOND
M  V30 END CTAB
M  END
>  <Structure No>
3531

>  <LogS>
-1.9763

>  <MMFF94 Energy>
54.056

$$$$
Compound 3532
Actelion Java MolfileCreator 2.0

  0  0  0  0  0  0              0 V3000
M  V30 BEGIN CTAB
M  V30 COUNTS 32 32 0 0 0
M  V30 BEGIN ATOM
M  V30 1 O 2.2729 0.94 -1.6455 0
M  V30 2 C 2.1586 0.0678 -0.7415 0
M  V30 3 O 0.9082 -0.2143 -0.1737 0
M  V30 4 N 3.3128 -0.6751 -0.3138 0
M  V30 5 C -0.2606 0.5414 -0.3458 0
M  V30 6 C 4.6219 -0.3991 -0.9118 0
M  V30 7 C 3.1612 -1.7007 0.7208 0
M  V30 8 N -1.482 0.1075 0.0244 0
M  V30 9 C -0.3724 1.8247 -0.8528 0
M  V30 10 N -2.376 1.0581 -0.2037 0
M  V30 11 C -1.7876 -1.1673 0.681 0
M  V30 12 C -1.7245 2.1002 -0.7567 0
M  V30 13 C -1.9986 -0.9433 2.1796 0
M  V30 14 C -3.0194 -1.8172 0.0435 0
M  V30 15 C -2.3724 3.4018 -1.0901 0
M  V30 16 H 5.415 -1.0432 -0.4783 0
M  V30 17 H 4.5803 -0.5867 -2.0055 0
M  V30 18 H 4.8988 0.6616 -0.7336 0
M  V30 19 H 4.1276 -2.1943 0.9545 0
M  V30 20 H 2.4477 -2.4783 0.3752 0
M  V30 21 H 2.7725 -1.2373 1.6525 0
M  V30 22 H 0.4047 2.492 -1.1977 0
M  V30 23 H -0.9335 -1.8689 0.5519 0
M  V30 24 H -2.1925 -1.9114 2.6889 0
M  V30 25 H -1.087 -0.4896 2.6237 0
M  V30 26 H -2.859 -0.2625 2.3559 0
M  V30 27 H -2.8501 -1.9563 -1.0452 0
M  V30 28 H -3.2051 -2.813 0.4995 0
M  V30 29 H -3.9204 -1.1832 0.1887 0
M  V30 30 H -3.4456 3.2418 -1.3254 0
M  V30 31 H -2.2873 4.0902 -0.2238 0
M  V30 32 H -1.8763 3.8596 -1.9717 0
M  V30 END ATOM
M  V30 BEGIN BOND
M  V30 1 2 1 2
M  V30 2 1 2 3
M  V30 3 1 2 4
M  V30 4 1 3 5
M  V30 5 1 4 6
M  V30 6 1 4 7
M  V30 7 1 5 8
M  V30 8 2 5 9
M  V30 9 1 8 10
M  V30 10 1 8 11
M  V30 11 1 9 12
M  V30 12 1 11 13
M  V30 13 1 11 14
M  V30 14 1 12 15
M  V30 15 2 10 12
M  V30 16 1 6 16
M  V30 17 1 6 17
M  V30 18 1 6 18
M  V30 19 1 7 19
M  V30 20 1 7 20
M  V30 21 1 7 21
M  V30 22 1 9 22
M  V30 23 1 11 23
M  V30 24 1 13 24
M  V30 25 1 13 25
M  V30 26 1 13 26
M  V30 27 1 14 27
M  V30 28 1 14 28
M  V30 29 1 14 29
M  V30 30 1 15 30
M  V30 31 1 15 31
M  V30 32 1 15 32
M  V30 END BOND
M  V30 END CTAB
M  END
>  <Structure No>
3532

>  <LogS>
0.6752

>  <MMFF94 Energy>
-2.7998

$$$$
Compound 3533
Actelion Java MolfileCreator 2.0

  0  0  0  0  0  0              0 V3000
M  V30 BEGIN CTAB
M  V30 COUNTS 57 58 0 0 0
M  V30 BEGIN ATOM
M  V30 1 O -1.8195 -1.3446 0.7908 0
M  V30 2 C -1.8721 -0.5988 -0.3876 0
M  V30 3 C -2.7687 0.5066 -0.4742 0
M  V30 4 C -1.0582 -0.9562 -1.4941 0
M  V30 5 C -2.889 1.1586 -1.7256 0
M  V30 6 C -3.6064 0.9631 0.7541 0
M  V30 7 C -1.2415 -0.2994 -2.7179 0
M  V30 8 C 0.0105 -2.0331 -1.403 0
M  V30 9 C -2.1362 0.7623 -2.834 0
M  V30 10 C -4.5909 -0.1532 1.1704 0
M  V30 11 C -4.4547 2.2315 0.4731 0
M  V30 12 C -2.6715 1.3108 1.9376 0
M  V30 13 C 1.0816 -1.7009 -0.3768 0
M  V30 14 C -2.3301 1.4415 -4.1595 0
M  V30 15 C 1.8979 -0.5441 -0.4785 0
M  V30 16 C 1.2646 -2.5738 0.7035 0
M  V30 17 O 1.8453 0.252 -1.6234 0
M  V30 18 C 2.7966 -0.1964 0.5723 0
M  V30 19 C 2.1614 -2.2702 1.7257 0
M  V30 20 C 2.9166 -1.0965 1.6592 0
M  V30 21 C 3.637 1.111 0.5147 0
M  V30 22 C 2.3549 -3.2279 2.8665 0
M  V30 23 C 4.6192 1.0592 -0.6774 0
M  V30 24 C 4.4879 1.3428 1.7911 0
M  V30 25 C 2.7042 2.3384 0.3772 0
M  V30 26 H -1.3714 -2.2456 0.8636 0
M  V30 27 H -3.5734 1.9799 -1.872 0
M  V30 28 H -0.6701 -0.604 -3.587 0
M  V30 29 H 0.5076 -2.1956 -2.3836 0
M  V30 30 H -0.4883 -2.9987 -1.171 0
M  V30 31 H -5.219 -0.4549 0.3044 0
M  V30 32 H -5.2643 0.1985 1.9823 0
M  V30 33 H -4.073 -1.0532 1.5545 0
M  V30 34 H -5.2142 2.0382 -0.3152 0
M  V30 35 H -5.0095 2.5491 1.3832 0
M  V30 36 H -3.8073 3.0817 0.1666 0
M  V30 37 H -1.9032 2.0476 1.6173 0
M  V30 38 H -2.1533 0.423 2.3477 0
M  V30 39 H -3.2468 1.7532 2.7798 0
M  V30 40 H -3.1629 0.9522 -4.7062 0
M  V30 41 H -1.4073 1.3794 -4.775 0
M  V30 42 H -2.5718 2.5165 -4.0175 0
M  V30 43 H 0.6911 -3.4918 0.7614 0
M  V30 44 H 1.3954 -0.0298 -2.4813 0
M  V30 45 H 3.6025 -0.914 2.4719 0
M  V30 46 H 2.5931 -2.679 3.8026 0
M  V30 47 H 3.1899 -3.9197 2.6295 0
M  V30 48 H 1.4332 -3.8217 3.0462 0
M  V30 49 H 5.2944 1.9425 -0.6695 0
M  V30 50 H 4.0996 1.065 -1.655 0
M  V30 51 H 5.2452 0.1426 -0.6203 0
M  V30 52 H 3.8422 1.3917 2.6948 0
M  V30 53 H 5.2459 0.5397 1.9178 0
M  V30 54 H 5.0444 2.3036 1.7296 0
M  V30 55 H 1.9379 2.3315 1.1826 0
M  V30 56 H 3.2817 3.2852 0.456 0
M  V30 57 H 2.1836 2.3723 -0.5987 0
M  V30 END ATOM
M  V30 BEGIN BOND
M  V30 1 1 1 2
M  V30 2 2 2 3
M  V30 3 1 2 4
M  V30 4 1 3 5
M  V30 5 1 3 6
M  V30 6 2 4 7
M  V30 7 1 4 8
M  V30 8 2 5 9
M  V30 9 1 6 10
M  V30 10 1 6 11
M  V30 11 1 6 12
M  V30 12 1 8 13
M  V30 13 1 9 14
M  V30 14 2 13 15
M  V30 15 1 13 16
M  V30 16 1 15 17
M  V30 17 1 15 18
M  V30 18 2 16 19
M  V30 19 2 18 20
M  V30 20 1 18 21
M  V30 21 1 19 22
M  V30 22 1 21 23
M  V30 23 1 21 24
M  V30 24 1 21 25
M  V30 25 1 7 9
M  V30 26 1 19 20
M  V30 27 1 1 26
M  V30 28 1 5 27
M  V30 29 1 7 28
M  V30 30 1 8 29
M  V30 31 1 8 30
M  V30 32 1 10 31
M  V30 33 1 10 32
M  V30 34 1 10 33
M  V30 35 1 11 34
M  V30 36 1 11 35
M  V30 37 1 11 36
M  V30 38 1 12 37
M  V30 39 1 12 38
M  V30 40 1 12 39
M  V30 41 1 14 40
M  V30 42 1 14 41
M  V30 43 1 14 42
M  V30 44 1 16 43
M  V30 45 1 17 44
M  V30 46 1 20 45
M  V30 47 1 22 46
M  V30 48 1 22 47
M  V30 49 1 22 48
M  V30 50 1 23 49
M  V30 51 1 23 50
M  V30 52 1 23 51
M  V30 53 1 24 52
M  V30 54 1 24 53
M  V30 55 1 24 54
M  V30 56 1 25 55
M  V30 57 1 25 56
M  V30 58 1 25 57
M  V30 END BOND
M  V30 END CTAB
M  END
>  <Structure No>
3533

>  <LogS>
-7.2311

>  <MMFF94 Energy>
73.571

$$$$
Compound 3534
Actelion Java MolfileCreator 2.0

  0  0  0  0  0  0              0 V3000
M  V30 BEGIN CTAB
M  V30 COUNTS 66 67 0 0 0
M  V30 BEGIN ATOM
M  V30 1 O -1.3449 -0.9492 -1.7408 0
M  V30 2 C -2.1273 -0.69 -0.7878 0
M  V30 3 N -3.4773 -1.1678 -0.8605 0
M  V30 4 N -1.6276 -0.0133 0.385 0
M  V30 5 C -4.593 -0.2575 -1.125 0
M  V30 6 C -3.7657 -2.559 -0.5139 0
M  V30 7 C -0.2114 -0.1456 0.7506 0
M  V30 8 C -2.4841 0.865 1.1939 0
M  V30 9 C -5.6401 -0.9737 -1.9825 0
M  V30 10 C -4.9011 -3.0906 -1.3992 0
M  V30 11 C 0.6384 0.9064 0.0274 0
M  V30 12 C -3.1922 0.0715 2.2997 0
M  V30 13 O -6.0071 -2.2072 -1.3931 0
M  V30 14 N 2.0164 0.9137 0.5421 0
M  V30 15 C -4.096 0.9601 3.1696 0
M  V30 16 C 2.8088 -0.2896 0.6095 0
M  V30 17 C 2.5129 2.1159 1.2281 0
M  V30 18 C -3.3042 1.8096 4.1637 0
M  V30 19 O 3.1447 -0.735 1.7408 0
M  V30 20 N 3.326 -0.9263 -0.5745 0
M  V30 21 C 2.8544 3.2323 0.2288 0
M  V30 22 C 2.5088 -1.0784 -1.7816 0
M  V30 23 C 4.7747 -1.1316 -0.6793 0
M  V30 24 C 3.9306 2.8386 -0.7961 0
M  V30 25 C 3.0164 -2.2497 -2.632 0
M  V30 26 C 5.0777 -2.3171 -1.5968 0
M  V30 27 C 5.3064 2.6352 -0.1626 0
M  V30 28 O 4.4129 -2.167 -2.8348 0
M  V30 29 H -4.2391 0.6535 -1.656 0
M  V30 30 H -5.0616 0.044 -0.1633 0
M  V30 31 H -2.8616 -3.1923 -0.6542 0
M  V30 32 H -4.0772 -2.6226 0.55 0
M  V30 33 H 0.1469 -1.1694 0.5116 0
M  V30 34 H -0.0935 -0.0159 1.8489 0
M  V30 35 H -1.8609 1.6604 1.6556 0
M  V30 36 H -3.219 1.3887 0.5488 0
M  V30 37 H -5.2633 -1.119 -3.0205 0
M  V30 38 H -6.5431 -0.3316 -2.0519 0
M  V30 39 H -4.5364 -3.2702 -2.4379 0
M  V30 40 H -5.2317 -4.0726 -0.996 0
M  V30 41 H 0.6367 0.7412 -1.0661 0
M  V30 42 H 0.1696 1.9027 0.1838 0
M  V30 43 H -2.4404 -0.4474 2.9335 0
M  V30 44 H -3.8264 -0.7081 1.8361 0
M  V30 45 H -4.7837 0.3037 3.747 0
M  V30 46 H -4.7223 1.6181 2.5285 0
M  V30 47 H 1.7355 2.4864 1.9317 0
M  V30 48 H 3.4049 1.8837 1.8492 0
M  V30 49 H -2.6735 1.1603 4.8065 0
M  V30 50 H -2.6603 2.5411 3.6355 0
M  V30 51 H -4.0076 2.3737 4.8135 0
M  V30 52 H 3.1898 4.1294 0.7934 0
M  V30 53 H 1.9322 3.5213 -0.3191 0
M  V30 54 H 2.5465 -0.1378 -2.3738 0
M  V30 55 H 1.4599 -1.3066 -1.507 0
M  V30 56 H 5.242 -0.2159 -1.1013 0
M  V30 57 H 5.2175 -1.3288 0.3202 0
M  V30 58 H 3.6285 1.9201 -1.34 0
M  V30 59 H 4.0124 3.6535 -1.5477 0
M  V30 60 H 2.5129 -2.2142 -3.6203 0
M  V30 61 H 2.7353 -3.2223 -2.1649 0
M  V30 62 H 6.1718 -2.3532 -1.7835 0
M  V30 63 H 4.801 -3.2758 -1.1004 0
M  V30 64 H 6.0527 2.4578 -0.9653 0
M  V30 65 H 5.6088 3.5384 0.4098 0
M  V30 66 H 5.3048 1.7524 0.5117 0
M  V30 END ATOM
M  V30 BEGIN BOND
M  V30 1 2 1 2
M  V30 2 1 2 3
M  V30 3 1 2 4
M  V30 4 1 3 5
M  V30 5 1 3 6
M  V30 6 1 4 7
M  V30 7 1 4 8
M  V30 8 1 5 9
M  V30 9 1 6 10
M  V30 10 1 7 11
M  V30 11 1 8 12
M  V30 12 1 9 13
M  V30 13 1 11 14
M  V30 14 1 12 15
M  V30 15 1 14 16
M  V30 16 1 14 17
M  V30 17 1 15 18
M  V30 18 2 16 19
M  V30 19 1 16 20
M  V30 20 1 17 21
M  V30 21 1 20 22
M  V30 22 1 20 23
M  V30 23 1 21 24
M  V30 24 1 22 25
M  V30 25 1 23 26
M  V30 26 1 24 27
M  V30 27 1 25 28
M  V30 28 1 10 13
M  V30 29 1 26 28
M  V30 30 1 5 29
M  V30 31 1 5 30
M  V30 32 1 6 31
M  V30 33 1 6 32
M  V30 34 1 7 33
M  V30 35 1 7 34
M  V30 36 1 8 35
M  V30 37 1 8 36
M  V30 38 1 9 37
M  V30 39 1 9 38
M  V30 40 1 10 39
M  V30 41 1 10 40
M  V30 42 1 11 41
M  V30 43 1 11 42
M  V30 44 1 12 43
M  V30 45 1 12 44
M  V30 46 1 15 45
M  V30 47 1 15 46
M  V30 48 1 17 47
M  V30 49 1 17 48
M  V30 50 1 18 49
M  V30 51 1 18 50
M  V30 52 1 18 51
M  V30 53 1 21 52
M  V30 54 1 21 53
M  V30 55 1 22 54
M  V30 56 1 22 55
M  V30 57 1 23 56
M  V30 58 1 23 57
M  V30 59 1 24 58
M  V30 60 1 24 59
M  V30 61 1 25 60
M  V30 62 1 25 61
M  V30 63 1 26 62
M  V30 64 1 26 63
M  V30 65 1 27 64
M  V30 66 1 27 65
M  V30 67 1 27 66
M  V30 END BOND
M  V30 END CTAB
M  END
>  <Structure No>
3534

>  <LogS>
0.0985

>  <MMFF94 Energy>
-23.772

$$$$
Compound 3535
Actelion Java MolfileCreator 2.0

  0  0  0  0  0  0              0 V3000
M  V30 BEGIN CTAB
M  V30 COUNTS 26 27 0 0 0
M  V30 BEGIN ATOM
M  V30 1 Cl 4.8489 2.0182 -0.7262 0
M  V30 2 C 3.4215 1.0104 -0.5713 0
M  V30 3 C 2.5081 0.9236 -1.6263 0
M  V30 4 C 3.1921 0.2983 0.6098 0
M  V30 5 C 1.3686 0.1227 -1.5041 0
M  V30 6 C 2.0538 -0.5036 0.7358 0
M  V30 7 C 1.1374 -0.6108 -0.3252 0
M  V30 8 C -0.1119 -1.4446 -0.1604 0 CFG=2
M  V30 9 O -0.427 -2.0898 -1.3688 0
M  V30 10 C -1.2551 -0.5648 0.2977 0
M  V30 11 C -2.0058 0.187 -0.6257 0
M  V30 12 C -1.5359 -0.4385 1.6697 0
M  V30 13 C -3.0332 1.0263 -0.1837 0
M  V30 14 C -2.5642 0.4021 2.1066 0
M  V30 15 C -3.3137 1.1322 1.1807 0
M  V30 16 H 2.6775 1.4795 -2.5397 0
M  V30 17 H 3.8923 0.369 1.4325 0
M  V30 18 H 0.668 0.0774 -2.328 0
M  V30 19 H 1.8857 -1.0383 1.6626 0
M  V30 20 H 0.0821 -2.2301 0.6081 0
M  V30 21 H -1.1234 -2.7665 -1.1598 0
M  V30 22 H -1.7968 0.1252 -1.686 0
M  V30 23 H -0.957 -0.9886 2.4014 0
M  V30 24 H -3.6096 1.598 -0.8996 0
M  V30 25 H -2.7774 0.4909 3.1641 0
M  V30 26 H -4.1084 1.7837 1.5209 0
M  V30 END ATOM
M  V30 BEGIN BOND
M  V30 1 1 1 2
M  V30 2 2 2 3
M  V30 3 1 2 4
M  V30 4 1 3 5
M  V30 5 2 4 6
M  V30 6 2 5 7
M  V30 7 1 7 8
M  V30 8 1 8 9
M  V30 9 1 8 10
M  V30 10 2 10 11
M  V30 11 1 10 12
M  V30 12 1 11 13
M  V30 13 2 12 14
M  V30 14 2 13 15
M  V30 15 1 6 7
M  V30 16 1 14 15
M  V30 17 1 3 16
M  V30 18 1 4 17
M  V30 19 1 5 18
M  V30 20 1 6 19
M  V30 21 1 8 20
M  V30 22 1 9 21
M  V30 23 1 11 22
M  V30 24 1 12 23
M  V30 25 1 13 24
M  V30 26 1 14 25
M  V30 27 1 15 26
M  V30 END BOND
M  V30 BEGIN COLLECTION
M  V30 MDLV30/STEABS ATOMS=(1 8)
M  V30 END COLLECTION
M  V30 END CTAB
M  END
>  <Structure No>
3535

>  <LogS>
-3.4886

>  <MMFF94 Energy>
46.459

$$$$
Compound 3536
Actelion Java MolfileCreator 2.0

  0  0  0  0  0  0              0 V3000
M  V30 BEGIN CTAB
M  V30 COUNTS 19 19 0 0 0
M  V30 BEGIN ATOM
M  V30 1 O -0.3178 2.9433 0.3178 0
M  V30 2 C 0.7578 2.3508 0.0399 0
M  V30 3 O 1.8842 3.107 -0.2626 0 CHG=-1
M  V30 4 C 0.849 0.8734 0.0977 0
M  V30 5 C -0.2613 0.0255 -0.1662 0
M  V30 6 C 2.0767 0.3003 0.4763 0
M  V30 7 N -1.5006 0.5597 -0.6745 0
M  V30 8 C -0.1143 -1.3654 0.0088 0
M  V30 9 C 2.2027 -1.0802 0.6292 0
M  V30 10 C -2.7876 -0.1047 -0.4954 0
M  V30 11 C 1.1072 -1.9099 0.4054 0
M  V30 12 H 2.9371 0.9254 0.6821 0
M  V30 13 H -1.5007 1.4632 -1.1974 0
M  V30 14 H -0.9357 -2.0408 -0.1858 0
M  V30 15 H 3.1505 -1.5065 0.9316 0
M  V30 16 H -2.8261 -1.0321 -1.1034 0
M  V30 17 H -3.6069 0.5658 -0.8306 0
M  V30 18 H -2.9423 -0.3469 0.5771 0
M  V30 19 H 1.2075 -2.9807 0.5276 0
M  V30 END ATOM
M  V30 BEGIN BOND
M  V30 1 2 1 2
M  V30 2 1 2 3
M  V30 3 1 2 4
M  V30 4 2 4 5
M  V30 5 1 4 6
M  V30 6 1 5 7
M  V30 7 1 5 8
M  V30 8 2 6 9
M  V30 9 1 7 10
M  V30 10 2 8 11
M  V30 11 1 9 11
M  V30 12 1 6 12
M  V30 13 1 7 13
M  V30 14 1 8 14
M  V30 15 1 9 15
M  V30 16 1 10 16
M  V30 17 1 10 17
M  V30 18 1 10 18
M  V30 19 1 11 19
M  V30 END BOND
M  V30 END CTAB
M  END
>  <Structure No>
3536

>  <LogS>
-2.8784

>  <MMFF94 Energy>
38.767

$$$$
Compound 3537
Actelion Java MolfileCreator 2.0

  0  0  0  0  0  0              0 V3000
M  V30 BEGIN CTAB
M  V30 COUNTS 32 33 0 0 0
M  V30 BEGIN ATOM
M  V30 1 N 4.8886 0.3148 1.0234 0
M  V30 2 C 3.5 0.2518 0.6686 0
M  V30 3 C 3.004 -0.7389 -0.21 0
M  V30 4 C 2.6175 1.1977 1.2084 0
M  V30 5 C 1.6341 -0.7573 -0.5266 0
M  V30 6 C 3.9134 -1.7771 -0.8103 0
M  V30 7 C 1.2598 1.1702 0.8879 0
M  V30 8 C 0.7531 0.1933 0.0172 0
M  V30 9 C -0.6922 0.1657 -0.3246 0
M  V30 10 C -1.665 0.3851 0.6659 0
M  V30 11 C -1.1073 -0.0792 -1.6426 0
M  V30 12 C -3.0355 0.3622 0.3523 0
M  V30 13 C -2.4646 -0.1038 -1.9648 0
M  V30 14 C -3.4383 0.1144 -0.9805 0
M  V30 15 C -4.0456 0.5979 1.443 0
M  V30 16 N -4.8231 0.0806 -1.3531 0
M  V30 17 H 5.5894 -0.3626 0.6526 0
M  V30 18 H 5.2354 1.0545 1.6742 0
M  V30 19 H 2.9849 1.964 1.8796 0
M  V30 20 H 1.2489 -1.5262 -1.1854 0
M  V30 21 H 4.3844 -2.376 -0.0028 0
M  V30 22 H 3.3605 -2.4741 -1.4754 0
M  V30 23 H 4.702 -1.2817 -1.4146 0
M  V30 24 H 0.6081 1.9257 1.3088 0
M  V30 25 H -1.3547 0.5572 1.6896 0
M  V30 26 H -0.3804 -0.2348 -2.4299 0
M  V30 27 H -2.7594 -0.291 -2.9899 0
M  V30 28 H -4.6603 1.49 1.1996 0
M  V30 29 H -4.7034 -0.2906 1.5445 0
M  V30 30 H -3.5577 0.7768 2.4248 0
M  V30 31 H -5.1005 -0.1039 -2.343 0
M  V30 32 H -5.5897 0.2356 -0.6628 0
M  V30 END ATOM
M  V30 BEGIN BOND
M  V30 1 1 1 2
M  V30 2 2 2 3
M  V30 3 1 2 4
M  V30 4 1 3 5
M  V30 5 1 3 6
M  V30 6 2 4 7
M  V30 7 2 5 8
M  V30 8 1 8 9
M  V30 9 2 9 10
M  V30 10 1 9 11
M  V30 11 1 10 12
M  V30 12 2 11 13
M  V30 13 2 12 14
M  V30 14 1 12 15
M  V30 15 1 14 16
M  V30 16 1 7 8
M  V30 17 1 13 14
M  V30 18 1 1 17
M  V30 19 1 1 18
M  V30 20 1 4 19
M  V30 21 1 5 20
M  V30 22 1 6 21
M  V30 23 1 6 22
M  V30 24 1 6 23
M  V30 25 1 7 24
M  V30 26 1 10 25
M  V30 27 1 11 26
M  V30 28 1 13 27
M  V30 29 1 15 28
M  V30 30 1 15 29
M  V30 31 1 15 30
M  V30 32 1 16 31
M  V30 33 1 16 32
M  V30 END BOND
M  V30 END CTAB
M  END
>  <Structure No>
3537

>  <LogS>
-2.213

>  <MMFF94 Energy>
30.147

$$$$
Compound 3538
Actelion Java MolfileCreator 2.0

  0  0  0  0  0  0              0 V3000
M  V30 BEGIN CTAB
M  V30 COUNTS 22 22 0 0 0
M  V30 BEGIN ATOM
M  V30 1 O 3.3215 -2.8465 -0.0789 0
M  V30 2 C 3.0398 -1.6431 0.1659 0
M  V30 3 C 1.6624 -1.1371 0.0163 0
M  V30 4 C 1.3838 0.2082 0.2973 0
M  V30 5 C 0.6234 -1.9808 -0.4034 0
M  V30 6 C 0.0755 0.7144 0.1615 0
M  V30 7 C -0.6751 -1.4866 -0.5403 0
M  V30 8 O -0.2367 2.0558 0.4349 0
M  V30 9 C -0.958 -0.1369 -0.2589 0
M  V30 10 C 0.7046 3.0323 0.8685 0
M  V30 11 O -2.2512 0.3953 -0.3851 0
M  V30 12 C -3.3924 -0.3481 -0.8001 0
M  V30 13 H 3.829 -0.9771 0.4911 0
M  V30 14 H 2.1886 0.8551 0.6209 0
M  V30 15 H 0.8134 -3.0232 -0.6264 0
M  V30 16 H -1.4528 -2.1637 -0.8658 0
M  V30 17 H 1.1515 2.7278 1.8384 0
M  V30 18 H 1.4996 3.1622 0.1041 0
M  V30 19 H 0.1835 4.0016 1.0067 0
M  V30 20 H -4.277 0.3211 -0.81 0
M  V30 21 H -3.5846 -1.1805 -0.0908 0
M  V30 22 H -3.2367 -0.7463 -1.825 0
M  V30 END ATOM
M  V30 BEGIN BOND
M  V30 1 2 1 2
M  V30 2 1 2 3
M  V30 3 2 3 4
M  V30 4 1 3 5
M  V30 5 1 4 6
M  V30 6 2 5 7
M  V30 7 1 6 8
M  V30 8 2 6 9
M  V30 9 1 8 10
M  V30 10 1 9 11
M  V30 11 1 11 12
M  V30 12 1 7 9
M  V30 13 1 2 13
M  V30 14 1 4 14
M  V30 15 1 5 15
M  V30 16 1 7 16
M  V30 17 1 10 17
M  V30 18 1 10 18
M  V30 19 1 10 19
M  V30 20 1 12 20
M  V30 21 1 12 21
M  V30 22 1 12 22
M  V30 END BOND
M  V30 END CTAB
M  END
>  <Structure No>
3538

>  <LogS>
-1.4199

>  <MMFF94 Energy>
50.189

$$$$
Compound 3539
Actelion Java MolfileCreator 2.0

  0  0  0  0  0  0              0 V3000
M  V30 BEGIN CTAB
M  V30 COUNTS 25 25 0 0 0
M  V30 BEGIN ATOM
M  V30 1 O 4.6613 0.5521 -0.0788 0
M  V30 2 C 3.9671 -0.496 -7.0E-4 0
M  V30 3 C 2.4934 -0.4351 0.0188 0
M  V30 4 C 1.8153 0.7931 -0.0488 0
M  V30 5 C 1.7554 -1.622 0.1066 0
M  V30 6 C 0.4069 0.8362 -0.0292 0
M  V30 7 C 0.3603 -1.5872 0.1266 0
M  V30 8 O -0.303 2.0458 -0.0952 0
M  V30 9 C -0.3232 -0.3589 0.0589 0
M  V30 10 C 0.2996 3.3326 -0.1871 0
M  V30 11 O -1.7249 -0.2841 0.0764 0
M  V30 12 C -2.5936 -1.4106 0.1624 0
M  V30 13 C -4.0385 -0.9385 0.1552 0
M  V30 14 H 4.4697 -1.4532 0.0526 0
M  V30 15 H 2.3853 1.7098 -0.1165 0
M  V30 16 H 2.2601 -2.5791 0.1598 0
M  V30 17 H -0.1779 -2.5225 0.1951 0
M  V30 18 H -0.4967 4.1037 -0.2236 0
M  V30 19 H 0.9355 3.5209 0.7035 0
M  V30 20 H 0.9067 3.4047 -1.1139 0
M  V30 21 H -2.3976 -1.9663 1.1049 0
M  V30 22 H -2.4264 -2.0823 -0.707 0
M  V30 23 H -4.2522 -0.3855 -0.7838 0
M  V30 24 H -4.7194 -1.813 0.222 0
M  V30 25 H -4.2235 -0.2698 1.0224 0
M  V30 END ATOM
M  V30 BEGIN BOND
M  V30 1 2 1 2
M  V30 2 1 2 3
M  V30 3 2 3 4
M  V30 4 1 3 5
M  V30 5 1 4 6
M  V30 6 2 5 7
M  V30 7 1 6 8
M  V30 8 2 6 9
M  V30 9 1 8 10
M  V30 10 1 9 11
M  V30 11 1 11 12
M  V30 12 1 12 13
M  V30 13 1 7 9
M  V30 14 1 2 14
M  V30 15 1 4 15
M  V30 16 1 5 16
M  V30 17 1 7 17
M  V30 18 1 10 18
M  V30 19 1 10 19
M  V30 20 1 10 20
M  V30 21 1 12 21
M  V30 22 1 12 22
M  V30 23 1 13 23
M  V30 24 1 13 24
M  V30 25 1 13 25
M  V30 END BOND
M  V30 END CTAB
M  END
>  <Structure No>
3539

>  <LogS>
-2.1913

>  <MMFF94 Energy>
47.938

$$$$
Compound 3540
Actelion Java MolfileCreator 2.0

  0  0  0  0  0  0              0 V3000
M  V30 BEGIN CTAB
M  V30 COUNTS 26 27 0 0 0
M  V30 BEGIN ATOM
M  V30 1 Cl 2.2637 -3.1541 1.2931 0
M  V30 2 C 2.328 -1.4843 0.7582 0
M  V30 3 C 1.1759 -0.8621 0.2695 0
M  V30 4 C 3.5298 -0.7802 0.8198 0
M  V30 5 C 1.2056 0.4865 -0.1538 0
M  V30 6 C 3.5867 0.5417 0.3803 0
M  V30 7 C 2.444 1.1778 -0.1187 0
M  V30 8 C -0.0375 1.1823 -0.6867 0
M  V30 9 O 2.5789 2.4901 -0.5793 0
M  V30 10 C -1.3309 0.4522 -0.4177 0
M  V30 11 C -1.9481 0.5489 0.8411 0
M  V30 12 C -1.9035 -0.3687 -1.404 0
M  V30 13 C -3.1287 -0.153 1.1022 0
M  V30 14 C -3.0844 -1.0689 -1.1382 0
M  V30 15 C -3.6973 -0.9601 0.1131 0
M  V30 16 H 0.2643 -1.4424 0.2285 0
M  V30 17 H 4.4236 -1.2591 1.1987 0
M  V30 18 H 4.5285 1.0745 0.4165 0
M  V30 19 H -0.1206 2.1874 -0.2199 0
M  V30 20 H 0.0853 1.34 -1.7803 0
M  V30 21 H 1.8277 3.0101 -1.0131 0
M  V30 22 H -1.5117 1.1634 1.6189 0
M  V30 23 H -1.4335 -0.4702 -2.3742 0
M  V30 24 H -3.6013 -0.0741 2.0728 0
M  V30 25 H -3.5226 -1.6987 -1.9014 0
M  V30 26 H -4.6105 -1.5039 0.3174 0
M  V30 END ATOM
M  V30 BEGIN BOND
M  V30 1 1 1 2
M  V30 2 2 2 3
M  V30 3 1 2 4
M  V30 4 1 3 5
M  V30 5 2 4 6
M  V30 6 2 5 7
M  V30 7 1 5 8
M  V30 8 1 7 9
M  V30 9 1 8 10
M  V30 10 2 10 11
M  V30 11 1 10 12
M  V30 12 1 11 13
M  V30 13 2 12 14
M  V30 14 2 13 15
M  V30 15 1 6 7
M  V30 16 1 14 15
M  V30 17 1 3 16
M  V30 18 1 4 17
M  V30 19 1 6 18
M  V30 20 1 8 19
M  V30 21 1 8 20
M  V30 22 1 9 21
M  V30 23 1 11 22
M  V30 24 1 12 23
M  V30 25 1 13 24
M  V30 26 1 14 25
M  V30 27 1 15 26
M  V30 END BOND
M  V30 END CTAB
M  END
>  <Structure No>
3540

>  <LogS>
-3.1666

>  <MMFF94 Energy>
32.503

$$$$
Compound 3541
Actelion Java MolfileCreator 2.0

  0  0  0  0  0  0              0 V3000
M  V30 BEGIN CTAB
M  V30 COUNTS 13 14 0 0 0
M  V30 BEGIN ATOM
M  V30 1 N -0.9586 -1.5981 -0.0798 0
M  V30 2 C 0.1835 -0.8807 -0.2058 0
M  V30 3 C -2.1008 -0.9326 0.2737 0
M  V30 4 N 1.396 -1.3508 -0.5422 0
M  V30 5 C 0.2223 0.4532 0.0056 0
M  V30 6 N -2.0782 0.4224 0.4922 0
M  V30 7 C 2.1591 -0.2228 -0.5195 0
M  V30 8 N 1.4681 0.8975 -0.1873 0
M  V30 9 C -0.925 1.1435 0.3645 0
M  V30 10 H -3.028 -1.4781 0.3821 0
M  V30 11 H 3.2173 -0.2208 -0.7452 0
M  V30 12 H 1.8274 1.8743 -0.1033 0
M  V30 13 H -0.9145 2.2112 0.5381 0
M  V30 END ATOM
M  V30 BEGIN BOND
M  V30 1 2 1 2
M  V30 2 1 1 3
M  V30 3 1 2 4
M  V30 4 1 2 5
M  V30 5 2 3 6
M  V30 6 2 4 7
M  V30 7 1 5 8
M  V30 8 2 5 9
M  V30 9 1 6 9
M  V30 10 1 7 8
M  V30 11 1 3 10
M  V30 12 1 7 11
M  V30 13 1 8 12
M  V30 14 1 9 13
M  V30 END BOND
M  V30 END CTAB
M  END
>  <Structure No>
3541

>  <LogS>
0.6194

>  <MMFF94 Energy>
-29.398

$$$$
Compound 3542
Actelion Java MolfileCreator 2.0

  0  0  0  0  0  0              0 V3000
M  V30 BEGIN CTAB
M  V30 COUNTS 28 31 0 0 0
M  V30 BEGIN ATOM
M  V30 1 S -1.3106 -1.1358 -0.5241 0
M  V30 2 C -1.436 -0.0692 -1.8324 0
M  V30 3 C -2.9646 -1.0874 -0.2439 0
M  V30 4 S -0.052 0.4684 -2.827 0
M  V30 5 N -2.7127 0.3168 -2.0698 0
M  V30 6 C -3.5613 -0.2525 -1.1764 0
M  V30 7 C -3.7009 -1.746 0.7373 0
M  V30 8 S 0.1743 2.2826 -1.7304 0
M  V30 9 C -4.9418 -0.046 -1.1569 0
M  V30 10 C -5.0904 -1.5452 0.7671 0
M  V30 11 C 1.4883 1.6166 -0.719 0
M  V30 12 C -5.7082 -0.699 -0.1757 0
M  V30 13 S 1.2635 0.9693 0.8288 0
M  V30 14 N 2.7867 1.605 -1.1053 0
M  V30 15 C 2.9015 0.6489 1.0021 0
M  V30 16 C 3.5704 1.0595 -0.1407 0
M  V30 17 C 3.5662 0.0715 2.081 0
M  V30 18 C 4.9538 0.9028 -0.2429 0
M  V30 19 C 4.9576 -0.0919 1.9891 0
M  V30 20 C 5.6486 0.3219 0.8323 0
M  V30 21 H -3.2176 -2.3941 1.4567 0
M  V30 22 H -5.4151 0.6039 -1.8817 0
M  V30 23 H -5.69 -2.043 1.5182 0
M  V30 24 H -6.78 -0.5509 -0.1444 0
M  V30 25 H 3.0268 -0.2425 2.9653 0
M  V30 26 H 5.4832 1.2214 -1.1318 0
M  V30 27 H 5.5023 -0.5377 2.8111 0
M  V30 28 H 6.7212 0.1919 0.7714 0
M  V30 END ATOM
M  V30 BEGIN BOND
M  V30 1 1 1 2
M  V30 2 1 1 3
M  V30 3 1 2 4
M  V30 4 2 2 5
M  V30 5 2 3 6
M  V30 6 1 3 7
M  V30 7 1 4 8
M  V30 8 1 6 9
M  V30 9 2 7 10
M  V30 10 1 8 11
M  V30 11 2 9 12
M  V30 12 1 11 13
M  V30 13 2 11 14
M  V30 14 1 13 15
M  V30 15 1 14 16
M  V30 16 1 15 17
M  V30 17 1 16 18
M  V30 18 2 17 19
M  V30 19 2 18 20
M  V30 20 1 5 6
M  V30 21 1 10 12
M  V30 22 2 15 16
M  V30 23 1 19 20
M  V30 24 1 7 21
M  V30 25 1 9 22
M  V30 26 1 10 23
M  V30 27 1 12 24
M  V30 28 1 17 25
M  V30 29 1 18 26
M  V30 30 1 19 27
M  V30 31 1 20 28
M  V30 END BOND
M  V30 END CTAB
M  END
>  <Structure No>
3542

>  <LogS>
-4.5218

>  <MMFF94 Energy>
26.141

$$$$
Compound 3543
Actelion Java MolfileCreator 2.0

  0  0  0  0  0  0              0 V3000
M  V30 BEGIN CTAB
M  V30 COUNTS 52 53 0 0 0
M  V30 BEGIN ATOM
M  V30 1 O 4.1327 3.4165 0.238 0
M  V30 2 C 3.2978 2.6183 -0.2639 0
M  V30 3 C 3.5407 1.2108 -0.4932 0
M  V30 4 C 1.9355 3.0029 -0.7016 0
M  V30 5 C 2.441 0.6613 -1.0014 0
M  V30 6 C 4.8144 0.496 -0.1325 0
M  V30 7 C 1.3315 1.6676 -1.1747 0 CFG=1
M  V30 8 C 2.3071 -0.7881 -1.3632 0
M  V30 9 C 4.7316 -0.0216 1.2789 0
M  V30 10 O 0.2203 1.3254 -0.3461 0
M  V30 11 C 4.719 -1.3108 1.6509 0
M  V30 12 C -0.8896 0.6001 -0.7907 0
M  V30 13 C 4.7954 -2.4665 0.7328 0
M  V30 14 O -0.9836 0.2296 -1.9922 0
M  V30 15 C -1.9593 0.2264 0.1898 0 CFG=1
M  V30 16 C 4.7824 -3.71 1.205 0
M  V30 17 C -2.7175 1.3737 0.8725 0
M  V30 18 C -3.3854 0.5788 -0.2595 0 CFG=2
M  V30 19 C -3.1329 1.1021 2.3259 0
M  V30 20 C -2.3518 2.8239 0.5211 0
M  V30 21 C -4.426 -0.4446 0.1257 0
M  V30 22 C -4.5779 -1.6182 -0.5212 0
M  V30 23 C -5.6794 -2.5483 -0.0846 0
M  V30 24 C -3.6787 -2.0082 -1.67 0
M  V30 25 H 1.3674 3.441 0.1479 0
M  V30 26 H 1.9965 3.7307 -1.5388 0
M  V30 27 H 5.0459 -0.2807 -0.8829 0
M  V30 28 H 5.6576 1.2168 -0.1819 0
M  V30 29 H 1.0358 1.746 -2.2445 0
M  V30 30 H 1.3254 -0.9852 -1.8366 0
M  V30 31 H 2.3871 -1.4111 -0.4492 0
M  V30 32 H 3.0997 -1.0764 -2.0843 0
M  V30 33 H 4.6591 0.7237 2.0628 0
M  V30 34 H 4.6473 -1.515 2.7135 0
M  V30 35 H 4.8543 -2.3393 -0.3372 0
M  V30 36 H -1.8473 -0.7205 0.761 0
M  V30 37 H 4.7208 -3.9078 2.2683 0
M  V30 38 H 4.8343 -4.5485 0.5225 0
M  V30 39 H -3.4755 1.0814 -1.2475 0
M  V30 40 H -2.3588 1.5061 3.0111 0
M  V30 41 H -4.0954 1.6126 2.5376 0
M  V30 42 H -3.2469 0.0184 2.5414 0
M  V30 43 H -2.1676 2.9659 -0.5648 0
M  V30 44 H -1.4399 3.1221 1.0794 0
M  V30 45 H -3.1845 3.4952 0.8178 0
M  V30 46 H -5.1274 -0.1844 0.9141 0
M  V30 47 H -5.6913 -3.481 -0.6858 0
M  V30 48 H -5.5363 -2.8244 0.9817 0
M  V30 49 H -6.6632 -2.0457 -0.2008 0
M  V30 50 H -3.7186 -1.2327 -2.4636 0
M  V30 51 H -3.9891 -2.9736 -2.1202 0
M  V30 52 H -2.6339 -2.1171 -1.3134 0
M  V30 END ATOM
M  V30 BEGIN BOND
M  V30 1 2 1 2
M  V30 2 1 2 3
M  V30 3 1 2 4
M  V30 4 2 3 5
M  V30 5 1 3 6
M  V30 6 1 4 7
M  V30 7 1 5 8
M  V30 8 1 6 9
M  V30 9 1 7 10
M  V30 10 2 9 11
M  V30 11 1 10 12
M  V30 12 1 11 13
M  V30 13 2 12 14
M  V30 14 1 12 15
M  V30 15 2 13 16
M  V30 16 1 15 17
M  V30 17 1 15 18
M  V30 18 1 17 19
M  V30 19 1 17 20
M  V30 20 1 18 21
M  V30 21 2 21 22
M  V30 22 1 22 23
M  V30 23 1 22 24
M  V30 24 1 5 7
M  V30 25 1 17 18
M  V30 26 1 4 25
M  V30 27 1 4 26
M  V30 28 1 6 27
M  V30 29 1 6 28
M  V30 30 1 7 29
M  V30 31 1 8 30
M  V30 32 1 8 31
M  V30 33 1 8 32
M  V30 34 1 9 33
M  V30 35 1 11 34
M  V30 36 1 13 35
M  V30 37 1 15 36
M  V30 38 1 16 37
M  V30 39 1 16 38
M  V30 40 1 18 39
M  V30 41 1 19 40
M  V30 42 1 19 41
M  V30 43 1 19 42
M  V30 44 1 20 43
M  V30 45 1 20 44
M  V30 46 1 20 45
M  V30 47 1 21 46
M  V30 48 1 23 47
M  V30 49 1 23 48
M  V30 50 1 23 49
M  V30 51 1 24 50
M  V30 52 1 24 51
M  V30 53 1 24 52
M  V30 END BOND
M  V30 BEGIN COLLECTION
M  V30 MDLV30/STEABS ATOMS=(3 7 15 18)
M  V30 END COLLECTION
M  V30 END CTAB
M  END
>  <Structure No>
3543

>  <LogS>
-6.2155

>  <MMFF94 Energy>
14.367

$$$$
Compound 3544
Actelion Java MolfileCreator 2.0

  0  0  0  0  0  0              0 V3000
M  V30 BEGIN CTAB
M  V30 COUNTS 55 56 0 0 0
M  V30 BEGIN ATOM
M  V30 1 O -3.4304 -1.0361 -3.5103 0
M  V30 2 C -2.7697 -1.559 -2.572 0
M  V30 3 C -3.1437 -1.5124 -1.1721 0
M  V30 4 C -1.5221 -2.3328 -2.7651 0
M  V30 5 C -2.2514 -2.2059 -0.4713 0
M  V30 6 C -4.3925 -0.8565 -0.6358 0
M  V30 7 C -1.106 -2.6836 -1.3242 0 CFG=2
M  V30 8 C -2.3503 -2.4761 1.0041 0
M  V30 9 C -4.0801 0.1675 0.4248 0
M  V30 10 O 0.0718 -1.9541 -0.9863 0
M  V30 11 C -3.4369 1.325 0.209 0
M  V30 12 C 0.9774 -2.3386 0.006 0
M  V30 13 C -2.9629 1.7765 -1.1181 0
M  V30 14 O 0.933 -3.4904 0.5162 0
M  V30 15 C 2.0442 -1.3737 0.4213 0 CFG=2
M  V30 16 C -2.2408 2.8878 -1.2494 0
M  V30 17 C 2.132 -0.9668 1.9007 0
M  V30 18 C 1.4771 -0.0192 0.8821 0 CFG=1
M  V30 19 C 1.1698 -1.6075 2.9124 0
M  V30 20 C 3.5515 -0.6659 2.4044 0
M  V30 21 C 2.2759 1.1681 0.4123 0
M  V30 22 C 2.1792 1.6728 -0.834 0
M  V30 23 C 3.0449 2.8124 -1.2323 0
M  V30 24 C 1.247 1.0525 -1.8494 0
M  V30 25 O 3.0905 3.1812 -2.4386 0
M  V30 26 O 3.8175 3.4773 -0.271 0
M  V30 27 C 4.6644 4.5804 -0.5908 0
M  V30 28 H -0.7588 -1.7134 -3.2833 0
M  V30 29 H -1.7339 -3.2522 -3.3515 0
M  V30 30 H -5.044 -1.6453 -0.1985 0
M  V30 31 H -4.9722 -0.3752 -1.4558 0
M  V30 32 H -0.9515 -3.7814 -1.222 0
M  V30 33 H -1.5834 -3.2124 1.3157 0
M  V30 34 H -2.1918 -1.5342 1.5738 0
M  V30 35 H -3.3482 -2.8938 1.2516 0
M  V30 36 H -4.3892 -0.0593 1.439 0
M  V30 37 H -3.2513 1.9643 1.0637 0
M  V30 38 H -3.1989 1.209 -2.0063 0
M  V30 39 H 2.9749 -1.324 -0.1838 0
M  V30 40 H -1.9826 3.4946 -0.3888 0
M  V30 41 H -1.9108 3.2037 -2.2296 0
M  V30 42 H 0.3665 0.0669 0.9243 0
M  V30 43 H 1.5348 -2.62 3.1733 0
M  V30 44 H 1.138 -0.9948 3.8386 0
M  V30 45 H 0.1369 -1.6854 2.5242 0
M  V30 46 H 3.512 0.1521 3.1551 0
M  V30 47 H 4.2412 -0.3721 1.584 0
M  V30 48 H 3.9709 -1.5717 2.8922 0
M  V30 49 H 2.9184 1.651 1.1387 0
M  V30 50 H 0.227 0.9392 -1.4212 0
M  V30 51 H 1.1501 1.6826 -2.7602 0
M  V30 52 H 1.6355 0.0563 -2.1537 0
M  V30 53 H 5.4257 4.2763 -1.341 0
M  V30 54 H 5.1838 4.9176 0.3287 0
M  V30 55 H 4.0577 5.4208 -0.9892 0
M  V30 END ATOM
M  V30 BEGIN BOND
M  V30 1 2 1 2
M  V30 2 1 2 3
M  V30 3 1 2 4
M  V30 4 2 3 5
M  V30 5 1 3 6
M  V30 6 1 4 7
M  V30 7 1 5 8
M  V30 8 1 6 9
M  V30 9 1 7 10
M  V30 10 2 9 11
M  V30 11 1 10 12
M  V30 12 1 11 13
M  V30 13 2 12 14
M  V30 14 1 12 15
M  V30 15 2 13 16
M  V30 16 1 15 17
M  V30 17 1 15 18
M  V30 18 1 17 19
M  V30 19 1 17 20
M  V30 20 1 18 21
M  V30 21 2 21 22
M  V30 22 1 22 23
M  V30 23 1 22 24
M  V30 24 2 23 25
M  V30 25 1 23 26
M  V30 26 1 26 27
M  V30 27 1 5 7
M  V30 28 1 17 18
M  V30 29 1 4 28
M  V30 30 1 4 29
M  V30 31 1 6 30
M  V30 32 1 6 31
M  V30 33 1 7 32
M  V30 34 1 8 33
M  V30 35 1 8 34
M  V30 36 1 8 35
M  V30 37 1 9 36
M  V30 38 1 11 37
M  V30 39 1 13 38
M  V30 40 1 15 39
M  V30 41 1 16 40
M  V30 42 1 16 41
M  V30 43 1 18 42
M  V30 44 1 19 43
M  V30 45 1 19 44
M  V30 46 1 19 45
M  V30 47 1 20 46
M  V30 48 1 20 47
M  V30 49 1 20 48
M  V30 50 1 21 49
M  V30 51 1 24 50
M  V30 52 1 24 51
M  V30 53 1 24 52
M  V30 54 1 27 53
M  V30 55 1 27 54
M  V30 56 1 27 55
M  V30 END BOND
M  V30 BEGIN COLLECTION
M  V30 MDLV30/STEABS ATOMS=(3 7 15 18)
M  V30 END COLLECTION
M  V30 END CTAB
M  END
>  <Structure No>
3544

>  <LogS>
-4.6168

>  <MMFF94 Energy>
8.3455

$$$$
Compound 3545
Actelion Java MolfileCreator 2.0

  0  0  0  0  0  0              0 V3000
M  V30 BEGIN CTAB
M  V30 COUNTS 27 27 0 0 0
M  V30 BEGIN ATOM
M  V30 1 O -1.268 1.4266 0.9508 0
M  V30 2 C -0.7425 0.7764 0.0051 0
M  V30 3 O -1.5275 0.3384 -1.0697 0
M  V30 4 C 0.707 0.4786 0.026 0
M  V30 5 C -2.9432 0.5084 -1.1439 0
M  V30 6 C 1.5132 0.9143 1.0895 0
M  V30 7 C 1.2957 -0.2489 -1.0201 0
M  V30 8 C -3.6759 -0.7271 -0.6108 0
M  V30 9 C 2.8842 0.6291 1.1073 0
M  V30 10 C 2.6648 -0.5409 -1.0149 0
M  V30 11 C -3.5042 -0.908 0.8952 0
M  V30 12 O 3.6768 1.0663 2.1679 0
M  V30 13 C 3.4698 -0.097 0.0609 0
M  V30 14 O 3.178 -1.2691 -2.0905 0
M  V30 15 O 4.8415 -0.3539 0.128 0
M  V30 16 H -3.2164 0.6343 -2.2128 0
M  V30 17 H -3.2706 1.4286 -0.6118 0
M  V30 18 H 1.0818 1.4765 1.9088 0
M  V30 19 H 0.6933 -0.5965 -1.8505 0
M  V30 20 H -4.7598 -0.6211 -0.8333 0
M  V30 21 H -3.3053 -1.634 -1.1358 0
M  V30 22 H -3.816 0.0112 1.4354 0
M  V30 23 H -2.448 -1.1447 1.1411 0
M  V30 24 H -4.1375 -1.7524 1.2402 0
M  V30 25 H 3.2869 1.5935 2.9407 0
M  V30 26 H 4.1482 -1.5325 -2.1842 0
M  V30 27 H 5.3565 -0.8664 -0.5729 0
M  V30 END ATOM
M  V30 BEGIN BOND
M  V30 1 2 1 2
M  V30 2 1 2 3
M  V30 3 1 2 4
M  V30 4 1 3 5
M  V30 5 2 4 6
M  V30 6 1 4 7
M  V30 7 1 5 8
M  V30 8 1 6 9
M  V30 9 2 7 10
M  V30 10 1 8 11
M  V30 11 1 9 12
M  V30 12 2 9 13
M  V30 13 1 10 14
M  V30 14 1 13 15
M  V30 15 1 10 13
M  V30 16 1 5 16
M  V30 17 1 5 17
M  V30 18 1 6 18
M  V30 19 1 7 19
M  V30 20 1 8 20
M  V30 21 1 8 21
M  V30 22 1 11 22
M  V30 23 1 11 23
M  V30 24 1 11 24
M  V30 25 1 12 25
M  V30 26 1 14 26
M  V30 27 1 15 27
M  V30 END BOND
M  V30 END CTAB
M  END
>  <Structure No>
3545

>  <LogS>
-1.7827

>  <MMFF94 Energy>
5.0518

$$$$
Compound 3546
Actelion Java MolfileCreator 2.0

  0  0  0  0  0  0              0 V3000
M  V30 BEGIN CTAB
M  V30 COUNTS 21 21 0 0 0
M  V30 BEGIN ATOM
M  V30 1 O 3.1224 1.4781 -0.9852 0
M  V30 2 N 2.6997 0.7196 -0.0878 0 CHG=1
M  V30 3 O 3.5619 0.3427 0.9167 0 CHG=-1
M  V30 4 N 1.3648 0.2546 -0.1045 0
M  V30 5 C 0.5341 0.4681 -1.2948 0
M  V30 6 C 0.9405 -0.7505 0.8743 0
M  V30 7 N -0.8869 0.5255 -0.9347 0
M  V30 8 N -0.4983 -0.644 1.1415 0
M  V30 9 N -1.7862 1.2581 -1.7428 0 CHG=1
M  V30 10 C -1.4122 -0.4658 0.009 0
M  V30 11 N -1.0134 -1.0704 2.3871 0 CHG=1
M  V30 12 O -1.3646 2.0159 -2.6411 0
M  V30 13 O -3.1458 1.1479 -1.5578 0 CHG=-1
M  V30 14 O -0.2467 -1.3525 3.3315 0
M  V30 15 O -2.3708 -1.1876 2.5826 0 CHG=-1
M  V30 16 H 0.8303 1.4163 -1.7889 0
M  V30 17 H 0.6981 -0.3647 -2.0114 0
M  V30 18 H 1.1676 -1.7647 0.4822 0
M  V30 19 H 1.504 -0.6067 1.819 0
M  V30 20 H -1.545 -1.4372 -0.5133 0
M  V30 21 H -2.4012 -0.1304 0.383 0
M  V30 END ATOM
M  V30 BEGIN BOND
M  V30 1 2 1 2
M  V30 2 1 2 3
M  V30 3 1 2 4
M  V30 4 1 4 5
M  V30 5 1 4 6
M  V30 6 1 5 7
M  V30 7 1 6 8
M  V30 8 1 7 9
M  V30 9 1 7 10
M  V30 10 1 8 11
M  V30 11 2 9 12
M  V30 12 1 9 13
M  V30 13 2 11 14
M  V30 14 1 11 15
M  V30 15 1 8 10
M  V30 16 1 5 16
M  V30 17 1 5 17
M  V30 18 1 6 18
M  V30 19 1 6 19
M  V30 20 1 10 20
M  V30 21 1 10 21
M  V30 END BOND
M  V30 END CTAB
M  END
>  <Structure No>
3546

>  <LogS>
-3.5706

>  <MMFF94 Energy>
-244.95

$$$$
Compound 3547
Actelion Java MolfileCreator 2.0

  0  0  0  0  0  0              0 V3000
M  V30 BEGIN CTAB
M  V30 COUNTS 32 32 0 0 0
M  V30 BEGIN ATOM
M  V30 1 O -1.5861 0.2377 3.4125 0
M  V30 2 C -1.5017 0.2791 2.1566 0
M  V30 3 C -0.1808 0.1906 1.5128 0
M  V30 4 C -2.7441 0.4622 1.3316 0
M  V30 5 C -0.0495 0.241 0.1749 0
M  V30 6 C -2.5692 -0.1142 -0.0961 0
M  V30 7 O 1.2012 0.1149 -0.4502 0
M  V30 8 C -1.2552 0.4339 -0.7151 0
M  V30 9 C -3.7615 0.3273 -0.9683 0
M  V30 10 C -2.5396 -1.66 -0.0544 0
M  V30 11 C 2.426 0.55 0.0786 0
M  V30 12 O 2.4524 1.3756 1.0332 0
M  V30 13 N 3.6561 0.0935 -0.5092 0
M  V30 14 C 3.6085 -0.8451 -1.6326 0
M  V30 15 C 4.938 0.5637 0.023 0
M  V30 16 H 0.6814 0.0173 2.1427 0
M  V30 17 H -2.9552 1.5528 1.2779 0
M  V30 18 H -3.6065 -0.0238 1.8394 0
M  V30 19 H -1.3564 1.5248 -0.9059 0
M  V30 20 H -1.0667 -0.0555 -1.6959 0
M  V30 21 H -4.7178 -0.0469 -0.5423 0
M  V30 22 H -3.8191 1.4359 -1.0274 0
M  V30 23 H -3.6588 -0.0694 -2.0015 0
M  V30 24 H -3.4837 -2.057 0.3773 0
M  V30 25 H -1.6962 -2.0333 0.5635 0
M  V30 26 H -2.4245 -2.0756 -1.0787 0
M  V30 27 H 4.6259 -1.1171 -1.9837 0
M  V30 28 H 3.0587 -0.3855 -2.481 0
M  V30 29 H 3.0875 -1.7751 -1.3209 0
M  V30 30 H 5.7967 0.1239 -0.526 0
M  V30 31 H 4.9975 1.6691 -0.0663 0
M  V30 32 H 5.0262 0.2784 1.0927 0
M  V30 END ATOM
M  V30 BEGIN BOND
M  V30 1 2 1 2
M  V30 2 1 2 3
M  V30 3 1 2 4
M  V30 4 2 3 5
M  V30 5 1 4 6
M  V30 6 1 5 7
M  V30 7 1 5 8
M  V30 8 1 6 9
M  V30 9 1 6 10
M  V30 10 1 7 11
M  V30 11 2 11 12
M  V30 12 1 11 13
M  V30 13 1 13 14
M  V30 14 1 13 15
M  V30 15 1 6 8
M  V30 16 1 3 16
M  V30 17 1 4 17
M  V30 18 1 4 18
M  V30 19 1 8 19
M  V30 20 1 8 20
M  V30 21 1 9 21
M  V30 22 1 9 22
M  V30 23 1 9 23
M  V30 24 1 10 24
M  V30 25 1 10 25
M  V30 26 1 10 26
M  V30 27 1 14 27
M  V30 28 1 14 28
M  V30 29 1 14 29
M  V30 30 1 15 30
M  V30 31 1 15 31
M  V30 32 1 15 32
M  V30 END BOND
M  V30 END CTAB
M  END
>  <Structure No>
3547

>  <LogS>
-0.8477

>  <MMFF94 Energy>
-4.9356

$$$$
Compound 3548
Actelion Java MolfileCreator 2.0

  0  0  0  0  0  0              0 V3000
M  V30 BEGIN CTAB
M  V30 COUNTS 26 27 0 0 0
M  V30 BEGIN ATOM
M  V30 1 N 0.551 -0.4723 0.0787 0
M  V30 2 N -0.4849 0.2076 -0.5893 0
M  V30 3 C 1.9283 -0.0833 -0.0523 0
M  V30 4 C -1.8695 -0.0046 -0.2677 0
M  V30 5 C 2.94 -1.0131 0.2388 0
M  V30 6 C 2.2882 1.2239 -0.4305 0
M  V30 7 C -2.2625 -0.497 0.9912 0
M  V30 8 C -2.8567 0.32 -1.2125 0
M  V30 9 C 4.2865 -0.6519 0.1297 0
M  V30 10 C 3.6363 1.5809 -0.5376 0
M  V30 11 C -3.6176 -0.6819 1.2842 0
M  V30 12 C -4.2103 0.1328 -0.9154 0
M  V30 13 C 4.6344 0.6433 -0.2609 0
M  V30 14 C -4.5904 -0.3705 0.3309 0
M  V30 15 H 0.3327 -1.3518 0.5989 0
M  V30 16 H -0.2551 0.8027 -1.4169 0
M  V30 17 H 2.6845 -2.0202 0.5435 0
M  V30 18 H 1.535 1.976 -0.6224 0
M  V30 19 H -1.5309 -0.7186 1.7562 0
M  V30 20 H -2.5762 0.7117 -2.1823 0
M  V30 21 H 5.0601 -1.3761 0.3496 0
M  V30 22 H 3.9072 2.5877 -0.8285 0
M  V30 23 H -3.9141 -1.0604 2.254 0
M  V30 24 H -4.9646 0.3794 -1.6515 0
M  V30 25 H 5.6769 0.9223 -0.3434 0
M  V30 26 H -5.6385 -0.5134 0.5604 0
M  V30 END ATOM
M  V30 BEGIN BOND
M  V30 1 1 1 2
M  V30 2 1 1 3
M  V30 3 1 2 4
M  V30 4 2 3 5
M  V30 5 1 3 6
M  V30 6 2 4 7
M  V30 7 1 4 8
M  V30 8 1 5 9
M  V30 9 2 6 10
M  V30 10 1 7 11
M  V30 11 2 8 12
M  V30 12 2 9 13
M  V30 13 2 11 14
M  V30 14 1 10 13
M  V30 15 1 12 14
M  V30 16 1 1 15
M  V30 17 1 2 16
M  V30 18 1 5 17
M  V30 19 1 6 18
M  V30 20 1 7 19
M  V30 21 1 8 20
M  V30 22 1 9 21
M  V30 23 1 10 22
M  V30 24 1 11 23
M  V30 25 1 12 24
M  V30 26 1 13 25
M  V30 27 1 14 26
M  V30 END BOND
M  V30 END CTAB
M  END
>  <Structure No>
3548

>  <LogS>
-2.921

>  <MMFF94 Energy>
46.011

$$$$
Compound 3549
Actelion Java MolfileCreator 2.0

  0  0  0  0  0  0              0 V3000
M  V30 BEGIN CTAB
M  V30 COUNTS 21 21 0 0 0
M  V30 BEGIN ATOM
M  V30 1 O -3.2718 -1.7127 0.389 0
M  V30 2 C -3.1936 -0.3129 0.3614 0
M  V30 3 C -1.764 0.1557 0.6461 0
M  V30 4 N -0.8315 -0.3252 -0.3765 0
M  V30 5 C 0.5798 -0.0398 -0.3535 0
M  V30 6 C 1.401 -0.5502 -1.3733 0
M  V30 7 C 1.1636 0.7396 0.6656 0
M  V30 8 C 2.7746 -0.2892 -1.3764 0
M  V30 9 C 2.5382 0.9975 0.6577 0
M  V30 10 C 3.3427 0.4839 -0.3617 0
M  V30 11 H -3.243 -1.9799 1.3449 0
M  V30 12 H -3.8892 0.127 1.1118 0
M  V30 13 H -3.5087 0.0462 -0.6414 0
M  V30 14 H -1.4496 -0.2199 1.6439 0
M  V30 15 H -1.7513 1.2668 0.6611 0
M  V30 16 H -1.2029 -0.9025 -1.166 0
M  V30 17 H 0.976 -1.1514 -2.1671 0
M  V30 18 H 0.5669 1.1515 1.4678 0
M  V30 19 H 3.3985 -0.6869 -2.1661 0
M  V30 20 H 2.9799 1.597 1.4433 0
M  V30 21 H 4.4061 0.6851 -0.3654 0
M  V30 END ATOM
M  V30 BEGIN BOND
M  V30 1 1 1 2
M  V30 2 1 2 3
M  V30 3 1 3 4
M  V30 4 1 4 5
M  V30 5 2 5 6
M  V30 6 1 5 7
M  V30 7 1 6 8
M  V30 8 2 7 9
M  V30 9 2 8 10
M  V30 10 1 9 10
M  V30 11 1 1 11
M  V30 12 1 2 12
M  V30 13 1 2 13
M  V30 14 1 3 14
M  V30 15 1 3 15
M  V30 16 1 4 16
M  V30 17 1 6 17
M  V30 18 1 7 18
M  V30 19 1 8 19
M  V30 20 1 9 20
M  V30 21 1 10 21
M  V30 END BOND
M  V30 END CTAB
M  END
>  <Structure No>
3549

>  <LogS>
-0.4745

>  <MMFF94 Energy>
33.318

$$$$
Compound 3550
Actelion Java MolfileCreator 2.0

  0  0  0  0  0  0              0 V3000
M  V30 BEGIN CTAB
M  V30 COUNTS 24 23 0 0 0
M  V30 BEGIN ATOM
M  V30 1 O -1.0567 -1.4634 1.8702 0
M  V30 2 C -1.4386 -1.2127 0.6954 0
M  V30 3 O -0.5216 -0.7966 -0.2662 0
M  V30 4 C -2.8883 -1.3159 0.3421 0
M  V30 5 O 0.7998 -0.6676 0.0407 0
M  V30 6 C -3.6016 0.0079 0.6198 0
M  V30 7 C 1.7174 -0.2536 -0.9212 0
M  V30 8 C -5.0504 -0.0926 0.2609 0
M  V30 9 O 1.3323 0.0185 -2.0901 0
M  V30 10 C 3.1566 -0.0873 -0.5497 0
M  V30 11 O -5.435 0.1845 -0.9057 0
M  V30 12 O -5.97 -0.5417 1.2003 0 CHG=-1
M  V30 13 C 3.4008 1.307 0.0292 0
M  V30 14 C 4.8373 1.4701 0.4133 0
M  V30 15 O 5.6664 1.9313 -0.4145 0
M  V30 16 O 5.2711 1.0657 1.6694 0 CHG=-1
M  V30 17 H -2.9812 -1.5752 -0.7349 0
M  V30 18 H -3.3564 -2.1307 0.9371 0
M  V30 19 H -3.5127 0.2646 1.6978 0
M  V30 20 H -3.1303 0.8233 0.0285 0
M  V30 21 H 3.4272 -0.8606 0.2018 0
M  V30 22 H 3.792 -0.2402 -1.4498 0
M  V30 23 H 2.7664 1.4583 0.9297 0
M  V30 24 H 3.1282 2.0813 -0.7213 0
M  V30 END ATOM
M  V30 BEGIN BOND
M  V30 1 2 1 2
M  V30 2 1 2 3
M  V30 3 1 2 4
M  V30 4 1 3 5
M  V30 5 1 4 6
M  V30 6 1 5 7
M  V30 7 1 6 8
M  V30 8 2 7 9
M  V30 9 1 7 10
M  V30 10 2 8 11
M  V30 11 1 8 12
M  V30 12 1 10 13
M  V30 13 1 13 14
M  V30 14 2 14 15
M  V30 15 1 14 16
M  V30 16 1 4 17
M  V30 17 1 4 18
M  V30 18 1 6 19
M  V30 19 1 6 20
M  V30 20 1 10 21
M  V30 21 1 10 22
M  V30 22 1 13 23
M  V30 23 1 13 24
M  V30 END BOND
M  V30 END CTAB
M  END
>  <Structure No>
3550

>  <LogS>
-0.8471

>  <MMFF94 Energy>
29.469

$$$$
Compound 3551
Actelion Java MolfileCreator 2.0

  0  0  0  0  0  0              0 V3000
M  V30 BEGIN CTAB
M  V30 COUNTS 35 34 0 0 0
M  V30 BEGIN ATOM
M  V30 1 O 4.0497 1.8675 0.2332 0
M  V30 2 C 3.3331 0.8396 0.3794 0
M  V30 3 O 3.8996 -0.4396 0.3488 0
M  V30 4 C 1.8537 0.9832 0.545 0
M  V30 5 C 5.2834 -0.6792 0.1014 0
M  V30 6 C 1.1529 0.8622 -0.8141 0
M  V30 7 C 5.6014 -0.5083 -1.3795 0
M  V30 8 C -0.359 1.1229 -0.7256 0
M  V30 9 C -1.1149 -0.013 -0.0199 0
M  V30 10 C -2.6298 0.2222 -0.0678 0
M  V30 11 C -3.3857 -0.9131 0.6385 0
M  V30 12 C -4.8983 -0.6553 0.7184 0
M  V30 13 C -5.5901 -0.7675 -0.6398 0
M  V30 14 H 1.6262 1.9701 1.0045 0
M  V30 15 H 1.4988 0.1879 1.2333 0
M  V30 16 H 5.52 -1.7225 0.3988 0
M  V30 17 H 5.9111 0.0048 0.7132 0
M  V30 18 H 1.3374 -0.1456 -1.2476 0
M  V30 19 H 1.5899 1.6124 -1.5099 0
M  V30 20 H 4.9662 -1.1899 -1.9841 0
M  V30 21 H 6.6687 -0.7533 -1.5628 0
M  V30 22 H 5.4163 0.5389 -1.6974 0
M  V30 23 H -0.5456 2.0857 -0.2009 0
M  V30 24 H -0.7496 1.2237 -1.7622 0
M  V30 25 H -0.7943 -0.0716 1.042 0
M  V30 26 H -0.8787 -0.9798 -0.5166 0
M  V30 27 H -2.9514 0.28 -1.1296 0
M  V30 28 H -2.8663 1.1892 0.4286 0
M  V30 29 H -3.0 -1.01 1.6771 0
M  V30 30 H -3.1951 -1.877 0.1172 0
M  V30 31 H -5.3471 -1.4099 1.4003 0
M  V30 32 H -5.0935 0.3487 1.1543 0
M  V30 33 H -6.6892 -0.6908 -0.5011 0
M  V30 34 H -5.3617 -1.7461 -1.1131 0
M  V30 35 H -5.2699 0.0537 -1.3137 0
M  V30 END ATOM
M  V30 BEGIN BOND
M  V30 1 2 1 2
M  V30 2 1 2 3
M  V30 3 1 2 4
M  V30 4 1 3 5
M  V30 5 1 4 6
M  V30 6 1 5 7
M  V30 7 1 6 8
M  V30 8 1 8 9
M  V30 9 1 9 10
M  V30 10 1 10 11
M  V30 11 1 11 12
M  V30 12 1 12 13
M  V30 13 1 4 14
M  V30 14 1 4 15
M  V30 15 1 5 16
M  V30 16 1 5 17
M  V30 17 1 6 18
M  V30 18 1 6 19
M  V30 19 1 7 20
M  V30 20 1 7 21
M  V30 21 1 7 22
M  V30 22 1 8 23
M  V30 23 1 8 24
M  V30 24 1 9 25
M  V30 25 1 9 26
M  V30 26 1 10 27
M  V30 27 1 10 28
M  V30 28 1 11 29
M  V30 29 1 11 30
M  V30 30 1 12 31
M  V30 31 1 12 32
M  V30 32 1 13 33
M  V30 33 1 13 34
M  V30 34 1 13 35
M  V30 END BOND
M  V30 END CTAB
M  END
>  <Structure No>
3551

>  <LogS>
-3.8007

>  <MMFF94 Energy>
-12.896

$$$$
Compound 3552
Actelion Java MolfileCreator 2.0

  0  0  0  0  0  0              0 V3000
M  V30 BEGIN CTAB
M  V30 COUNTS 26 25 0 0 0
M  V30 BEGIN ATOM
M  V30 1 C 1.9962 -0.6906 1.1512 0
M  V30 2 C 3.0537 0.1901 1.7125 0
M  V30 3 C 2.3416 -1.9025 0.703 0
M  V30 4 C 0.5558 -0.2442 1.0259 0
M  V30 5 C 2.8621 1.4674 2.0443 0
M  V30 6 C 0.3306 0.5036 -0.2928 0
M  V30 7 C -1.1068 0.9425 -0.4193 0
M  V30 8 C -2.0906 0.1906 -0.9609 0
M  V30 9 C -3.4911 0.7469 -0.982 0
M  V30 10 C -1.8217 -1.1723 -1.5547 0
M  V30 11 H 4.0486 -0.2174 1.8523 0
M  V30 12 H 1.6062 -2.5662 0.2646 0
M  V30 13 H 3.3656 -2.2512 0.7597 0
M  V30 14 H -0.1197 -1.1259 1.078 0
M  V30 15 H 0.2759 0.4004 1.8859 0
M  V30 16 H 1.9107 1.964 1.9196 0
M  V30 17 H 3.6854 2.0455 2.4436 0
M  V30 18 H 0.6353 -0.1257 -1.1555 0
M  V30 19 H 0.9716 1.4109 -0.3121 0
M  V30 20 H -1.3552 1.9219 -0.0168 0
M  V30 21 H -3.8337 0.9392 0.0569 0
M  V30 22 H -3.5081 1.7001 -1.552 0
M  V30 23 H -4.206 0.0448 -1.4592 0
M  V30 24 H -1.1285 -1.0794 -2.4167 0
M  V30 25 H -2.7554 -1.6474 -1.921 0
M  V30 26 H -1.3777 -1.845 -0.7928 0
M  V30 END ATOM
M  V30 BEGIN BOND
M  V30 1 1 1 2
M  V30 2 2 1 3
M  V30 3 1 1 4
M  V30 4 2 2 5
M  V30 5 1 4 6
M  V30 6 1 6 7
M  V30 7 2 7 8
M  V30 8 1 8 9
M  V30 9 1 8 10
M  V30 10 1 2 11
M  V30 11 1 3 12
M  V30 12 1 3 13
M  V30 13 1 4 14
M  V30 14 1 4 15
M  V30 15 1 5 16
M  V30 16 1 5 17
M  V30 17 1 6 18
M  V30 18 1 6 19
M  V30 19 1 7 20
M  V30 20 1 9 21
M  V30 21 1 9 22
M  V30 22 1 9 23
M  V30 23 1 10 24
M  V30 24 1 10 25
M  V30 25 1 10 26
M  V30 END BOND
M  V30 END CTAB
M  END
>  <Structure No>
3552

>  <LogS>
-4.3861

>  <MMFF94 Energy>
22.5

$$$$
Compound 3553
Actelion Java MolfileCreator 2.0

  0  0  0  0  0  0              0 V3000
M  V30 BEGIN CTAB
M  V30 COUNTS 20 19 0 0 0
M  V30 BEGIN ATOM
M  V30 1 O 1.2369 1.9332 0.4637 0
M  V30 2 C 1.3886 0.741 0.246 0
M  V30 3 C 0.4808 -0.2635 0.9169 0
M  V30 4 C 2.4982 0.3014 -0.6625 0
M  V30 5 C -0.9165 -0.3978 0.2491 0
M  V30 6 O -1.6439 -1.4041 0.9135 0
M  V30 7 C -0.7738 -0.8299 -1.2201 0
M  V30 8 C -1.7089 0.9244 0.3187 0
M  V30 9 H 0.3619 0.0276 1.9836 0
M  V30 10 H 0.9713 -1.2613 0.9232 0
M  V30 11 H 2.5053 -0.8016 -0.7857 0
M  V30 12 H 2.365 0.7666 -1.6617 0
M  V30 13 H 3.4735 0.6211 -0.2399 0
M  V30 14 H -1.7608 -1.1252 1.86 0
M  V30 15 H -0.2658 -0.0472 -1.8227 0
M  V30 16 H -1.7756 -1.0133 -1.6648 0
M  V30 17 H -0.1866 -1.7705 -1.2905 0
M  V30 18 H -1.2446 1.7065 -0.3181 0
M  V30 19 H -2.7492 0.7646 -0.0372 0
M  V30 20 H -1.7534 1.2976 1.3643 0
M  V30 END ATOM
M  V30 BEGIN BOND
M  V30 1 2 1 2
M  V30 2 1 2 3
M  V30 3 1 2 4
M  V30 4 1 3 5
M  V30 5 1 5 6
M  V30 6 1 5 7
M  V30 7 1 5 8
M  V30 8 1 3 9
M  V30 9 1 3 10
M  V30 10 1 4 11
M  V30 11 1 4 12
M  V30 12 1 4 13
M  V30 13 1 6 14
M  V30 14 1 7 15
M  V30 15 1 7 16
M  V30 16 1 7 17
M  V30 17 1 8 18
M  V30 18 1 8 19
M  V30 19 1 8 20
M  V30 END BOND
M  V30 END CTAB
M  END
>  <Structure No>
3553

>  <LogS>
0.9349

>  <MMFF94 Energy>
12.341

$$$$
Compound 3554
Actelion Java MolfileCreator 2.0

  0  0  0  0  0  0              0 V3000
M  V30 BEGIN CTAB
M  V30 COUNTS 68 67 0 0 0
M  V30 BEGIN ATOM
M  V30 1 O -2.2732 -0.6266 3.215 0
M  V30 2 C -2.1462 -0.6347 1.9603 0
M  V30 3 O -3.0577 0.043 1.1432 0
M  V30 4 C -0.9883 -1.3435 1.3339 0
M  V30 5 C -4.2224 0.7001 1.6405 0
M  V30 6 C 0.0893 -0.3355 0.9153 0
M  V30 7 C -5.3059 -0.3094 2.0473 0
M  V30 8 C 1.349 -1.0132 0.3557 0
M  V30 9 C -5.6251 -1.3543 0.96 0
M  V30 10 C 1.1224 -1.6264 -1.0324 0
M  V30 11 C -6.0698 -0.7704 -0.3932 0
M  V30 12 C 2.4082 -2.161 -1.5803 0
M  V30 13 C -7.3713 0.0381 -0.2979 0
M  V30 14 O 2.5642 -3.4059 -1.7168 0
M  V30 15 O 3.4306 -1.2698 -1.9229 0
M  V30 16 C -7.8369 0.4956 -1.6884 0
M  V30 17 C 4.7365 -1.6857 -2.3198 0
M  V30 18 C -9.2151 1.1741 -1.6575 0
M  V30 19 C 5.5351 -2.2491 -1.1337 0
M  V30 20 C -9.1917 2.5345 -0.9586 0
M  V30 21 C 5.5043 -1.3611 0.1261 0
M  V30 22 C 5.9864 0.0854 -0.0836 0
M  V30 23 C 7.479 0.1675 -0.4449 0
M  V30 24 C 7.9542 1.612 -0.6698 0
M  V30 25 C 8.0214 2.4267 0.6305 0
M  V30 26 C 8.6519 3.7959 0.3896 0
M  V30 27 H -1.3609 -1.9023 0.4503 0
M  V30 28 H -0.5633 -2.0763 2.0551 0
M  V30 29 H -4.6175 1.3742 0.8525 0
M  V30 30 H -3.9566 1.3383 2.5107 0
M  V30 31 H 0.3882 0.2606 1.8067 0
M  V30 32 H -0.3234 0.3717 0.1619 0
M  V30 33 H -4.9668 -0.85 2.9578 0
M  V30 34 H -6.229 0.238 2.3324 0
M  V30 35 H 1.7019 -1.7962 1.0623 0
M  V30 36 H 2.1454 -0.2398 0.2827 0
M  V30 37 H -6.4233 -2.0283 1.3412 0
M  V30 38 H -4.7262 -1.9864 0.7924 0
M  V30 39 H 0.7269 -0.8583 -1.7328 0
M  V30 40 H 0.3825 -2.4532 -0.9653 0
M  V30 41 H -5.2617 -0.143 -0.8253 0
M  V30 42 H -6.2276 -1.6228 -1.0897 0
M  V30 43 H -7.1986 0.9324 0.3347 0
M  V30 44 H -8.1602 -0.588 0.1718 0
M  V30 45 H -7.0861 1.1893 -2.128 0
M  V30 46 H -7.9088 -0.3902 -2.3567 0
M  V30 47 H 4.6636 -2.4511 -3.1221 0
M  V30 48 H 5.2745 -0.8148 -2.7485 0
M  V30 49 H -9.9561 0.5112 -1.1584 0
M  V30 50 H -9.5536 1.3261 -2.7059 0
M  V30 51 H 6.5839 -2.4257 -1.4507 0
M  V30 52 H 5.1185 -3.2433 -0.8638 0
M  V30 53 H -10.1809 3.0261 -1.0746 0
M  V30 54 H -8.416 3.1909 -1.4079 0
M  V30 55 H -8.9935 2.4152 0.1269 0
M  V30 56 H 6.1279 -1.8408 0.9124 0
M  V30 57 H 4.4656 -1.332 0.5202 0
M  V30 58 H 5.3733 0.5876 -0.8615 0
M  V30 59 H 5.8126 0.628 0.8689 0
M  V30 60 H 7.6573 -0.389 -1.389 0
M  V30 61 H 8.0893 -0.3106 0.3529 0
M  V30 62 H 7.285 2.1189 -1.399 0
M  V30 63 H 8.9713 1.5698 -1.1184 0
M  V30 64 H 8.6263 1.8825 1.388 0
M  V30 65 H 6.9997 2.5809 1.0354 0
M  V30 66 H 8.6741 4.3686 1.3408 0
M  V30 67 H 8.0584 4.3685 -0.3551 0
M  V30 68 H 9.6932 3.6819 0.02 0
M  V30 END ATOM
M  V30 BEGIN BOND
M  V30 1 2 1 2
M  V30 2 1 2 3
M  V30 3 1 2 4
M  V30 4 1 3 5
M  V30 5 1 4 6
M  V30 6 1 5 7
M  V30 7 1 6 8
M  V30 8 1 7 9
M  V30 9 1 8 10
M  V30 10 1 9 11
M  V30 11 1 10 12
M  V30 12 1 11 13
M  V30 13 2 12 14
M  V30 14 1 12 15
M  V30 15 1 13 16
M  V30 16 1 15 17
M  V30 17 1 16 18
M  V30 18 1 17 19
M  V30 19 1 18 20
M  V30 20 1 19 21
M  V30 21 1 21 22
M  V30 22 1 22 23
M  V30 23 1 23 24
M  V30 24 1 24 25
M  V30 25 1 25 26
M  V30 26 1 4 27
M  V30 27 1 4 28
M  V30 28 1 5 29
M  V30 29 1 5 30
M  V30 30 1 6 31
M  V30 31 1 6 32
M  V30 32 1 7 33
M  V30 33 1 7 34
M  V30 34 1 8 35
M  V30 35 1 8 36
M  V30 36 1 9 37
M  V30 37 1 9 38
M  V30 38 1 10 39
M  V30 39 1 10 40
M  V30 40 1 11 41
M  V30 41 1 11 42
M  V30 42 1 13 43
M  V30 43 1 13 44
M  V30 44 1 16 45
M  V30 45 1 16 46
M  V30 46 1 17 47
M  V30 47 1 17 48
M  V30 48 1 18 49
M  V30 49 1 18 50
M  V30 50 1 19 51
M  V30 51 1 19 52
M  V30 52 1 20 53
M  V30 53 1 20 54
M  V30 54 1 20 55
M  V30 55 1 21 56
M  V30 56 1 21 57
M  V30 57 1 22 58
M  V30 58 1 22 59
M  V30 59 1 23 60
M  V30 60 1 23 61
M  V30 61 1 24 62
M  V30 62 1 24 63
M  V30 63 1 25 64
M  V30 64 1 25 65
M  V30 65 1 26 66
M  V30 66 1 26 67
M  V30 67 1 26 68
M  V30 END BOND
M  V30 END CTAB
M  END
>  <Structure No>
3554

>  <LogS>
-5.6768

>  <MMFF94 Energy>
-21.529

$$$$
Compound 3555
Actelion Java MolfileCreator 2.0

  0  0  0  0  0  0              0 V3000
M  V30 BEGIN CTAB
M  V30 COUNTS 24 23 0 0 0
M  V30 BEGIN ATOM
M  V30 1 O -2.5684 1.1324 0.9058 0
M  V30 2 C -2.3767 -0.1247 0.3108 0 CFG=2
M  V30 3 C -1.0226 -0.1477 -0.4197 0
M  V30 4 C -3.5196 -0.4083 -0.6679 0
M  V30 5 N 0.0943 0.0213 0.524 0 CHG=1
M  V30 6 C 1.3825 -0.0326 -0.1834 0
M  V30 7 C 2.5513 0.1476 0.797 0
M  V30 8 N 3.8349 0.0936 0.098 0 CHG=1
M  V30 9 H -3.2723 1.0184 1.597 0
M  V30 10 H -2.3731 -0.9215 1.0912 0
M  V30 11 H -0.9179 -1.1212 -0.9512 0
M  V30 12 H -1.0047 0.6668 -1.1796 0
M  V30 13 H -3.3863 -1.406 -1.138 0
M  V30 14 H -3.5515 0.3674 -1.4628 0
M  V30 15 H -4.4898 -0.4044 -0.127 0
M  V30 16 H 0.0067 0.9481 1.004 0
M  V30 17 H 0.0618 -0.7444 1.238 0
M  V30 18 H 1.4282 0.7737 -0.95 0
M  V30 19 H 1.4924 -1.0145 -0.697 0
M  V30 20 H 2.4548 1.1284 1.3137 0
M  V30 21 H 2.5174 -0.6552 1.5667 0
M  V30 22 H 3.8897 0.8596 -0.6122 0
M  V30 23 H 3.9494 -0.8338 -0.3717 0
M  V30 24 H 4.6074 0.2194 0.7914 0
M  V30 END ATOM
M  V30 BEGIN BOND
M  V30 1 1 1 2
M  V30 2 1 2 3
M  V30 3 1 2 4
M  V30 4 1 3 5
M  V30 5 1 5 6
M  V30 6 1 6 7
M  V30 7 1 7 8
M  V30 8 1 1 9
M  V30 9 1 2 10
M  V30 10 1 3 11
M  V30 11 1 3 12
M  V30 12 1 4 13
M  V30 13 1 4 14
M  V30 14 1 4 15
M  V30 15 1 5 16
M  V30 16 1 5 17
M  V30 17 1 6 18
M  V30 18 1 6 19
M  V30 19 1 7 20
M  V30 20 1 7 21
M  V30 21 1 8 22
M  V30 22 1 8 23
M  V30 23 1 8 24
M  V30 END BOND
M  V30 BEGIN COLLECTION
M  V30 MDLV30/STEABS ATOMS=(1 2)
M  V30 END COLLECTION
M  V30 END CTAB
M  END
>  <Structure No>
3555

>  <LogS>
0.9275

>  <MMFF94 Energy>
119.02

$$$$
Compound 3556
Actelion Java MolfileCreator 2.0

  0  0  0  0  0  0              0 V3000
M  V30 BEGIN CTAB
M  V30 COUNTS 23 22 0 0 0
M  V30 BEGIN ATOM
M  V30 1 O 2.3275 1.784 0.155 0
M  V30 2 C 2.4003 0.5391 0.3424 0
M  V30 3 O 1.5911 -0.3442 -0.3802 0
M  V30 4 C 3.3294 0.0025 1.3771 0
M  V30 5 C 0.611 0.0815 -1.3262 0
M  V30 6 C -0.625 0.6721 -0.63 0
M  V30 7 C -1.2501 -0.2657 0.429 0
M  V30 8 C -2.3497 0.4757 1.2002 0
M  V30 9 C -1.8262 -1.5417 -0.2027 0
M  V30 10 H 4.2682 0.5956 1.3917 0
M  V30 11 H 2.8441 0.0586 2.3737 0
M  V30 12 H 3.5774 -1.0557 1.1518 0
M  V30 13 H 0.3129 -0.7863 -1.9494 0
M  V30 14 H 1.0509 0.8368 -2.0134 0
M  V30 15 H -0.3265 1.6257 -0.1427 0
M  V30 16 H -1.3839 0.9246 -1.4029 0
M  V30 17 H -0.4691 -0.56 1.1643 0
M  V30 18 H -3.1648 0.792 0.514 0
M  V30 19 H -2.7778 -0.1807 1.9877 0
M  V30 20 H -1.9298 1.3761 1.6979 0
M  V30 21 H -2.3386 -2.1554 0.5688 0
M  V30 22 H -2.5567 -1.2898 -1.0012 0
M  V30 23 H -1.0156 -2.1646 -0.6339 0
M  V30 END ATOM
M  V30 BEGIN BOND
M  V30 1 2 1 2
M  V30 2 1 2 3
M  V30 3 1 2 4
M  V30 4 1 3 5
M  V30 5 1 5 6
M  V30 6 1 6 7
M  V30 7 1 7 8
M  V30 8 1 7 9
M  V30 9 1 4 10
M  V30 10 1 4 11
M  V30 11 1 4 12
M  V30 12 1 5 13
M  V30 13 1 5 14
M  V30 14 1 6 15
M  V30 15 1 6 16
M  V30 16 1 7 17
M  V30 17 1 8 18
M  V30 18 1 8 19
M  V30 19 1 8 20
M  V30 20 1 9 21
M  V30 21 1 9 22
M  V30 22 1 9 23
M  V30 END BOND
M  V30 END CTAB
M  END
>  <Structure No>
3556

>  <LogS>
-1.8135

>  <MMFF94 Energy>
-5.1368

$$$$
Compound 3557
Actelion Java MolfileCreator 2.0

  0  0  0  0  0  0              0 V3000
M  V30 BEGIN CTAB
M  V30 COUNTS 13 12 0 0 0
M  V30 BEGIN ATOM
M  V30 1 S -0.0853 -1.4514 0.7682 0
M  V30 2 C -1.3388 -0.703 -0.3344 0
M  V30 3 C 1.3883 -0.7001 -0.0134 0
M  V30 4 C -1.6436 0.7008 0.0771 0
M  V30 5 C 1.5862 0.7041 0.4573 0
M  V30 6 O -2.0913 0.9407 1.2294 0
M  V30 7 O -1.4542 1.7456 -0.8182 0 CHG=-1
M  V30 8 O 1.7536 0.9448 1.6819 0
M  V30 9 O 1.6077 1.7488 -0.4577 0 CHG=-1
M  V30 10 H -1.004 -0.7344 -1.3924 0
M  V30 11 H -2.2698 -1.3028 -0.26 0
M  V30 12 H 2.2776 -1.2982 0.2752 0
M  V30 13 H 1.3083 -0.732 -1.1202 0
M  V30 END ATOM
M  V30 BEGIN BOND
M  V30 1 1 1 2
M  V30 2 1 1 3
M  V30 3 1 2 4
M  V30 4 1 3 5
M  V30 5 2 4 6
M  V30 6 1 4 7
M  V30 7 2 5 8
M  V30 8 1 5 9
M  V30 9 1 2 10
M  V30 10 1 2 11
M  V30 11 1 3 12
M  V30 12 1 3 13
M  V30 END BOND
M  V30 END CTAB
M  END
>  <Structure No>
3557

>  <LogS>
0.4255

>  <MMFF94 Energy>
150.3

$$$$
Compound 3558
Actelion Java MolfileCreator 2.0

  0  0  0  0  0  0              0 V3000
M  V30 BEGIN CTAB
M  V30 COUNTS 25 24 0 0 0
M  V30 BEGIN ATOM
M  V30 1 O 3.9492 0.8507 -1.5472 0
M  V30 2 C 2.9646 1.2987 -0.9811 0
M  V30 3 C 2.5779 0.802 0.3809 0
M  V30 4 C 2.1952 -0.687 0.3718 0
M  V30 5 C 0.9893 -1.0235 -0.5248 0
M  V30 6 C -0.3266 -0.4293 -5.0E-4 0
M  V30 7 C -1.5193 -0.9137 -0.8385 0
M  V30 8 C -2.8672 -0.4253 -0.2852 0
M  V30 9 C -3.0815 1.0745 -0.4873 0
M  V30 10 H 2.3726 2.0691 -1.4642 0
M  V30 11 H 3.4391 0.9472 1.068 0
M  V30 12 H 1.7405 1.4136 0.7761 0
M  V30 13 H 3.0702 -1.2802 0.0268 0
M  V30 14 H 1.9781 -1.0086 1.4138 0
M  V30 15 H 0.8946 -2.1308 -0.5606 0
M  V30 16 H 1.1742 -0.6733 -1.5634 0
M  V30 17 H -0.2726 0.6771 -0.0524 0
M  V30 18 H -0.4729 -0.7326 1.0594 0
M  V30 19 H -1.4018 -0.5799 -1.8929 0
M  V30 20 H -1.5325 -2.0256 -0.8366 0
M  V30 21 H -3.6804 -0.9667 -0.8154 0
M  V30 22 H -2.9495 -0.6714 0.7957 0
M  V30 23 H -4.1147 1.3434 -0.1819 0
M  V30 24 H -2.3752 1.6609 0.1358 0
M  V30 25 H -2.9475 1.3464 -1.5558 0
M  V30 END ATOM
M  V30 BEGIN BOND
M  V30 1 2 1 2
M  V30 2 1 2 3
M  V30 3 1 3 4
M  V30 4 1 4 5
M  V30 5 1 5 6
M  V30 6 1 6 7
M  V30 7 1 7 8
M  V30 8 1 8 9
M  V30 9 1 2 10
M  V30 10 1 3 11
M  V30 11 1 3 12
M  V30 12 1 4 13
M  V30 13 1 4 14
M  V30 14 1 5 15
M  V30 15 1 5 16
M  V30 16 1 6 17
M  V30 17 1 6 18
M  V30 18 1 7 19
M  V30 19 1 7 20
M  V30 20 1 8 21
M  V30 21 1 8 22
M  V30 22 1 9 23
M  V30 23 1 9 24
M  V30 24 1 9 25
M  V30 END BOND
M  V30 END CTAB
M  END
>  <Structure No>
3558

>  <LogS>
-2.3598

>  <MMFF94 Energy>
-2.522

$$$$
Compound 3559
Actelion Java MolfileCreator 2.0

  0  0  0  0  0  0              0 V3000
M  V30 BEGIN CTAB
M  V30 COUNTS 34 33 0 0 0
M  V30 BEGIN ATOM
M  V30 1 O 5.7756 0.8568 -0.0778 0
M  V30 2 C 5.0428 0.228 -0.8888 0
M  V30 3 O 3.7469 0.6704 -1.1767 0
M  V30 4 C 5.5825 -0.9687 -1.5949 0
M  V30 5 C 3.1339 1.7835 -0.5274 0
M  V30 6 C 2.7028 1.418 0.8953 0
M  V30 7 O 1.8983 0.2532 0.8863 0
M  V30 8 C 0.528 0.596 0.8871 0
M  V30 9 C -0.3036 -0.6694 0.728 0
M  V30 10 O -1.6729 -0.3263 0.732 0
M  V30 11 C -2.4528 -1.4957 0.5916 0
M  V30 12 C -3.9364 -1.1246 0.5675 0
M  V30 13 C -4.2909 -0.2814 -0.6644 0
M  V30 14 C -5.7775 0.0613 -0.6872 0
M  V30 15 H 6.1612 -0.6436 -2.4841 0
M  V30 16 H 4.748 -1.6236 -1.9221 0
M  V30 17 H 6.2455 -1.5455 -0.9159 0
M  V30 18 H 2.2421 2.0873 -1.1139 0
M  V30 19 H 3.8322 2.6483 -0.5053 0
M  V30 20 H 2.2133 2.2968 1.3789 0
M  V30 21 H 3.6095 1.2034 1.4983 0
M  V30 22 H 0.2538 1.0803 1.8521 0
M  V30 23 H 0.2851 1.2837 0.045 0
M  V30 24 H -0.0221 -1.1545 -0.2349 0
M  V30 25 H -0.0662 -1.3553 1.5735 0
M  V30 26 H -2.2852 -2.1786 1.4556 0
M  V30 27 H -2.2019 -2.0364 -0.35 0
M  V30 28 H -4.5366 -2.0609 0.5577 0
M  V30 29 H -4.1867 -0.5621 1.4938 0
M  V30 30 H -4.0377 -0.8438 -1.5895 0
M  V30 31 H -3.7063 0.664 -0.6565 0
M  V30 32 H -6.3872 -0.8664 -0.7242 0
M  V30 33 H -6.0047 0.6714 -1.5869 0
M  V30 34 H -6.0527 0.6456 0.2166 0
M  V30 END ATOM
M  V30 BEGIN BOND
M  V30 1 2 1 2
M  V30 2 1 2 3
M  V30 3 1 2 4
M  V30 4 1 3 5
M  V30 5 1 5 6
M  V30 6 1 6 7
M  V30 7 1 7 8
M  V30 8 1 8 9
M  V30 9 1 9 10
M  V30 10 1 10 11
M  V30 11 1 11 12
M  V30 12 1 12 13
M  V30 13 1 13 14
M  V30 14 1 4 15
M  V30 15 1 4 16
M  V30 16 1 4 17
M  V30 17 1 5 18
M  V30 18 1 5 19
M  V30 19 1 6 20
M  V30 20 1 6 21
M  V30 21 1 8 22
M  V30 22 1 8 23
M  V30 23 1 9 24
M  V30 24 1 9 25
M  V30 25 1 11 26
M  V30 26 1 11 27
M  V30 27 1 12 28
M  V30 28 1 12 29
M  V30 29 1 13 30
M  V30 30 1 13 31
M  V30 31 1 14 32
M  V30 32 1 14 33
M  V30 33 1 14 34
M  V30 END BOND
M  V30 END CTAB
M  END
>  <Structure No>
3559

>  <LogS>
-0.8188

>  <MMFF94 Energy>
28.041

$$$$
Compound 3560
Actelion Java MolfileCreator 2.0

  0  0  0  0  0  0              0 V3000
M  V30 BEGIN CTAB
M  V30 COUNTS 32 31 0 0 0
M  V30 BEGIN ATOM
M  V30 1 C -0.4629 0.6173 -0.6173 0
M  V30 2 C 0.7904 0.3842 0.2346 0
M  V30 3 C -1.6142 -0.2882 -0.1635 0
M  V30 4 C 1.9406 1.2982 -0.2143 0
M  V30 5 C -2.8712 -0.0462 -1.0123 0
M  V30 6 C 3.2307 1.055 0.5968 0
M  V30 7 C -4.0102 -1.0192 -0.6711 0
M  V30 8 C 4.2763 0.2091 -0.1488 0
M  V30 9 C -4.6337 -0.7437 0.6969 0
M  V30 10 C 3.8297 -1.2338 -0.3724 0
M  V30 11 H -0.2262 0.4052 -1.6833 0
M  V30 12 H -0.7755 1.6814 -0.5291 0
M  V30 13 H 1.0948 -0.6797 0.1513 0
M  V30 14 H 0.5531 0.5953 1.3007 0
M  V30 15 H -1.8381 -0.0769 0.9039 0
M  V30 16 H -1.3032 -1.3518 -0.258 0
M  V30 17 H 1.6224 2.3537 -0.0641 0
M  V30 18 H 2.1305 1.1672 -1.3023 0
M  V30 19 H -2.6125 -0.1849 -2.0849 0
M  V30 20 H -3.2202 1.0019 -0.8827 0
M  V30 21 H 3.0066 0.5961 1.5851 0
M  V30 22 H 3.6971 2.0421 0.8085 0
M  V30 23 H -4.804 -0.9139 -1.4422 0
M  V30 24 H -3.6427 -2.0676 -0.7089 0
M  V30 25 H 5.2097 0.1959 0.4547 0
M  V30 26 H 4.518 0.6786 -1.127 0
M  V30 27 H -3.9127 -0.9667 1.5102 0
M  V30 28 H -5.5218 -1.3956 0.8351 0
M  V30 29 H -4.9591 0.3158 0.7701 0
M  V30 30 H 3.4988 -1.6923 0.5835 0
M  V30 31 H 4.68 -1.8253 -0.7725 0
M  V30 32 H 3.0047 -1.2744 -1.1136 0
M  V30 END ATOM
M  V30 BEGIN BOND
M  V30 1 1 1 2
M  V30 2 1 1 3
M  V30 3 1 2 4
M  V30 4 1 3 5
M  V30 5 1 4 6
M  V30 6 1 5 7
M  V30 7 1 6 8
M  V30 8 1 7 9
M  V30 9 1 8 10
M  V30 10 1 1 11
M  V30 11 1 1 12
M  V30 12 1 2 13
M  V30 13 1 2 14
M  V30 14 1 3 15
M  V30 15 1 3 16
M  V30 16 1 4 17
M  V30 17 1 4 18
M  V30 18 1 5 19
M  V30 19 1 5 20
M  V30 20 1 6 21
M  V30 21 1 6 22
M  V30 22 1 7 23
M  V30 23 1 7 24
M  V30 24 1 8 25
M  V30 25 1 8 26
M  V30 26 1 9 27
M  V30 27 1 9 28
M  V30 28 1 9 29
M  V30 29 1 10 30
M  V30 30 1 10 31
M  V30 31 1 10 32
M  V30 END BOND
M  V30 END CTAB
M  END
>  <Structure No>
3560

>  <LogS>
-6.4372

>  <MMFF94 Energy>
-5.4255

$$$$
Compound 3561
Actelion Java MolfileCreator 2.0

  0  0  0  0  0  0              0 V3000
M  V30 BEGIN CTAB
M  V30 COUNTS 41 40 0 0 0
M  V30 BEGIN ATOM
M  V30 1 N 5.7897 0.0 1.31 0 CHG=1
M  V30 2 C 4.7026 -0.7909 0.7339 0
M  V30 3 C 3.7909 0.0823 -0.1381 0
M  V30 4 C 2.64 -0.7436 -0.7307 0
M  V30 5 C 1.7887 0.052 -1.7362 0
M  V30 6 C 1.0846 1.296 -1.1566 0
M  V30 7 C 0.1755 1.0257 0.0555 0
M  V30 8 C -0.977 0.063 -0.2656 0
M  V30 9 C -1.9515 -0.0395 0.9168 0
M  V30 10 C -3.0245 -1.1246 0.7161 0
M  V30 11 C -3.9426 -0.9173 -0.5056 0
M  V30 12 C -4.698 0.423 -0.5303 0
M  V30 13 C -5.6376 0.5992 0.6618 0
M  V30 14 H 5.4 0.7591 1.9151 0
M  V30 15 H 6.3725 0.4179 0.5487 0
M  V30 16 H 6.3927 -0.6223 1.8949 0
M  V30 17 H 5.1332 -1.6119 0.1181 0
M  V30 18 H 4.1059 -1.2479 1.5548 0
M  V30 19 H 4.3898 0.5291 -0.9616 0
M  V30 20 H 3.3787 0.9024 0.4878 0
M  V30 21 H 2.0001 -1.1462 0.0828 0
M  V30 22 H 3.0667 -1.6178 -1.2696 0
M  V30 23 H 2.4407 0.3795 -2.5749 0
M  V30 24 H 1.0295 -0.6273 -2.1786 0
M  V30 25 H 0.475 1.7589 -1.9631 0
M  V30 26 H 1.8472 2.0511 -0.8706 0
M  V30 27 H -0.2516 2.0002 0.3798 0
M  V30 28 H 0.7738 0.6359 0.906 0
M  V30 29 H -0.5689 -0.9467 -0.4845 0
M  V30 30 H -1.5174 0.4352 -1.162 0
M  V30 31 H -2.4302 0.9448 1.1046 0
M  V30 32 H -1.3771 -0.3003 1.8329 0
M  V30 33 H -2.5199 -2.1096 0.6101 0
M  V30 34 H -3.6447 -1.1885 1.6354 0
M  V30 35 H -3.3446 -1.009 -1.4369 0
M  V30 36 H -4.6847 -1.7449 -0.5287 0
M  V30 37 H -3.9861 1.2736 -0.5775 0
M  V30 38 H -5.3064 0.459 -1.4598 0
M  V30 39 H -6.3182 -0.2738 0.7527 0
M  V30 40 H -6.2517 1.5129 0.5159 0
M  V30 41 H -5.0598 0.719 1.6017 0
M  V30 END ATOM
M  V30 BEGIN BOND
M  V30 1 1 1 2
M  V30 2 1 2 3
M  V30 3 1 3 4
M  V30 4 1 4 5
M  V30 5 1 5 6
M  V30 6 1 6 7
M  V30 7 1 7 8
M  V30 8 1 8 9
M  V30 9 1 9 10
M  V30 10 1 10 11
M  V30 11 1 11 12
M  V30 12 1 12 13
M  V30 13 1 1 14
M  V30 14 1 1 15
M  V30 15 1 1 16
M  V30 16 1 2 17
M  V30 17 1 2 18
M  V30 18 1 3 19
M  V30 19 1 3 20
M  V30 20 1 4 21
M  V30 21 1 4 22
M  V30 22 1 5 23
M  V30 23 1 5 24
M  V30 24 1 6 25
M  V30 25 1 6 26
M  V30 26 1 7 27
M  V30 27 1 7 28
M  V30 28 1 8 29
M  V30 29 1 8 30
M  V30 30 1 9 31
M  V30 31 1 9 32
M  V30 32 1 10 33
M  V30 33 1 10 34
M  V30 34 1 11 35
M  V30 35 1 11 36
M  V30 36 1 12 37
M  V30 37 1 12 38
M  V30 38 1 13 39
M  V30 39 1 13 40
M  V30 40 1 13 41
M  V30 END BOND
M  V30 END CTAB
M  END
>  <Structure No>
3561

>  <LogS>
-3.3759

>  <MMFF94 Energy>
-2.8573

$$$$
Compound 3562
Actelion Java MolfileCreator 2.0

  0  0  0  0  0  0              0 V3000
M  V30 BEGIN CTAB
M  V30 COUNTS 18 17 0 0 0
M  V30 BEGIN ATOM
M  V30 1 O 2.0403 -0.0755 0.8308 0
M  V30 2 C 1.2617 -0.4191 -0.2839 0
M  V30 3 C -0.2074 0.0318 -0.0939 0
M  V30 4 N -0.9899 -0.3467 -1.2837 0 CHG=1
M  V30 5 C -0.2662 1.5635 0.0885 0
M  V30 6 C -0.8094 -0.6534 1.1512 0
M  V30 7 H 2.9593 -0.3946 0.6348 0
M  V30 8 H 1.2978 -1.522 -0.4333 0
M  V30 9 H 1.6862 0.0633 -1.1934 0
M  V30 10 H -0.9658 -1.3836 -1.4227 0
M  V30 11 H -0.5996 0.1116 -2.1396 0
M  V30 12 H -1.988 -0.0507 -1.1762 0
M  V30 13 H -1.3194 1.9022 0.1942 0
M  V30 14 H 0.177 2.0774 -0.7912 0
M  V30 15 H 0.291 1.8782 0.9968 0
M  V30 16 H -0.258 -0.3633 2.0713 0
M  V30 17 H -0.7627 -1.7586 1.0476 0
M  V30 18 H -1.8738 -0.3612 1.2793 0
M  V30 END ATOM
M  V30 BEGIN BOND
M  V30 1 1 1 2
M  V30 2 1 2 3
M  V30 3 1 3 4
M  V30 4 1 3 5
M  V30 5 1 3 6
M  V30 6 1 1 7
M  V30 7 1 2 8
M  V30 8 1 2 9
M  V30 9 1 4 10
M  V30 10 1 4 11
M  V30 11 1 4 12
M  V30 12 1 5 13
M  V30 13 1 5 14
M  V30 14 1 5 15
M  V30 15 1 6 16
M  V30 16 1 6 17
M  V30 17 1 6 18
M  V30 END BOND
M  V30 END CTAB
M  END
>  <Structure No>
3562

>  <LogS>
1.0499

>  <MMFF94 Energy>
22.64

$$$$
Compound 3563
Actelion Java MolfileCreator 2.0

  0  0  0  0  0  0              0 V3000
M  V30 BEGIN CTAB
M  V30 COUNTS 28 28 0 0 0
M  V30 BEGIN ATOM
M  V30 1 O -1.46 0.0 2.3531 0
M  V30 2 C -1.2806 -0.8034 1.3987 0
M  V30 3 O -1.327 -2.1689 1.6606 0 CHG=-1
M  V30 4 C -0.9936 -0.3052 -0.0192 0 CFG=2
M  V30 5 C 0.5507 -0.2621 -0.3336 0
M  V30 6 C -1.4257 1.1671 -0.1605 0
M  V30 7 C -1.8181 -1.1849 -0.9924 0
M  V30 8 C 1.016 1.1353 0.2055 0 CFG=1
M  V30 9 C 1.3353 -1.459 0.2719 0
M  V30 10 C 0.8255 -0.2908 -1.8658 0
M  V30 11 C -0.2481 2.0104 0.3202 0
M  V30 12 C 1.7938 1.0982 1.5035 0
M  V30 13 O 1.2189 0.8735 2.6015 0
M  V30 14 O 3.1719 1.2732 1.4829 0 CHG=-1
M  V30 15 H -2.354 1.4 0.407 0
M  V30 16 H -1.6231 1.4185 -1.2264 0
M  V30 17 H -1.8045 -0.7872 -2.0289 0
M  V30 18 H -1.4239 -2.2232 -1.0107 0
M  V30 19 H -2.8825 -1.2197 -0.6729 0
M  V30 20 H 1.6911 1.6274 -0.5315 0
M  V30 21 H 0.9542 -2.4183 -0.1382 0
M  V30 22 H 1.2519 -1.5057 1.3766 0
M  V30 23 H 2.4154 -1.3791 0.0231 0
M  V30 24 H 1.9093 -0.1499 -2.0701 0
M  V30 25 H 0.2762 0.5182 -2.3918 0
M  V30 26 H 0.5377 -1.2665 -2.312 0
M  V30 27 H -0.1521 2.9236 -0.3077 0
M  V30 28 H -0.4375 2.3441 1.364 0
M  V30 END ATOM
M  V30 BEGIN BOND
M  V30 1 2 1 2
M  V30 2 1 2 3
M  V30 3 1 2 4
M  V30 4 1 4 5
M  V30 5 1 4 6
M  V30 6 1 4 7
M  V30 7 1 5 8
M  V30 8 1 5 9
M  V30 9 1 5 10
M  V30 10 1 6 11
M  V30 11 1 8 12
M  V30 12 2 12 13
M  V30 13 1 12 14
M  V30 14 1 8 11
M  V30 15 1 6 15
M  V30 16 1 6 16
M  V30 17 1 7 17
M  V30 18 1 7 18
M  V30 19 1 7 19
M  V30 20 1 8 20
M  V30 21 1 9 21
M  V30 22 1 9 22
M  V30 23 1 9 23
M  V30 24 1 10 24
M  V30 25 1 10 25
M  V30 26 1 10 26
M  V30 27 1 11 27
M  V30 28 1 11 28
M  V30 END BOND
M  V30 BEGIN COLLECTION
M  V30 MDLV30/STEABS ATOMS=(2 4 8)
M  V30 END COLLECTION
M  V30 END CTAB
M  END
>  <Structure No>
3563

>  <LogS>
-1.4207

>  <MMFF94 Energy>
102.88

$$$$
Compound 3564
Actelion Java MolfileCreator 2.0

  0  0  0  0  0  0              0 V3000
M  V30 BEGIN CTAB
M  V30 COUNTS 40 44 0 0 0
M  V30 BEGIN ATOM
M  V30 1 O -2.066 -2.3142 2.7278 0
M  V30 2 C -1.8056 -1.8109 1.6036 0
M  V30 3 O -1.0057 -2.4057 0.6529 0
M  V30 4 C -2.2948 -0.5386 1.0893 0 CFG=2
M  V30 5 C -0.9272 -1.6301 -0.5525 0 CFG=1
M  V30 6 O -3.2342 0.2857 1.7361 0
M  V30 7 C -1.8761 -0.3525 -0.3564 0 CFG=2
M  V30 8 C -1.8679 0.6137 1.8934 0 CFG=2
M  V30 9 C 0.5516 -1.3071 -0.8609 0 CFG=1
M  V30 10 C -1.2045 1.0917 -0.4369 0 CFG=2
M  V30 11 C -3.1351 -0.5003 -1.2394 0
M  V30 12 C -1.393 1.7119 0.9681 0
M  V30 13 O 0.6326 -0.8334 -2.1956 0
M  V30 14 C 1.0 -0.102 0.0021 0 CFG=2
M  V30 15 O -1.8743 1.9487 -1.3406 0
M  V30 16 C 0.3209 1.041 -0.7959 0 CFG=1
M  V30 17 C 0.4937 0.5331 -2.1836 0
M  V30 18 C 2.5595 0.0339 0.1722 0
M  V30 19 O 0.5341 1.2454 -3.2212 0
M  V30 20 O 3.2106 0.0678 -1.0772 0
M  V30 21 C 3.1126 -1.1786 0.9511 0
M  V30 22 C 2.9112 1.2993 0.9962 0
M  V30 23 H -1.3035 -2.2708 -1.3811 0
M  V30 24 H -1.4985 0.4774 2.9329 0
M  V30 25 H 1.1685 -2.2189 -0.7432 0
M  V30 26 H -3.6534 -1.4606 -1.025 0
M  V30 27 H -3.8543 0.3249 -1.0479 0
M  V30 28 H -2.856 -0.5012 -2.3141 0
M  V30 29 H -0.4519 2.1454 1.3713 0
M  V30 30 H -2.1545 2.5236 0.961 0
M  V30 31 H 0.5821 -0.183 1.0286 0
M  V30 32 H -1.8377 1.5572 -2.2491 0
M  V30 33 H 0.7946 2.0362 -0.6798 0
M  V30 34 H 3.0696 0.9632 -1.4812 0
M  V30 35 H 3.063 -2.1079 0.3497 0
M  V30 36 H 4.185 -1.0267 1.2008 0
M  V30 37 H 2.552 -1.3315 1.8987 0
M  V30 38 H 4.0028 1.3393 1.2006 0
M  V30 39 H 2.3713 1.2958 1.9678 0
M  V30 40 H 2.6573 2.2329 0.4569 0
M  V30 END ATOM
M  V30 BEGIN BOND
M  V30 1 2 1 2
M  V30 2 1 2 3
M  V30 3 1 2 4
M  V30 4 1 3 5
M  V30 5 1 4 6
M  V30 6 1 4 7
M  V30 7 1 4 8
M  V30 8 1 5 9
M  V30 9 1 7 10
M  V30 10 1 7 11
M  V30 11 1 8 12
M  V30 12 1 9 13
M  V30 13 1 9 14
M  V30 14 1 10 15
M  V30 15 1 10 16
M  V30 16 1 13 17
M  V30 17 1 14 18
M  V30 18 2 17 19
M  V30 19 1 18 20
M  V30 20 1 18 21
M  V30 21 1 18 22
M  V30 22 1 5 7
M  V30 23 1 6 8
M  V30 24 1 10 12
M  V30 25 1 14 16
M  V30 26 1 16 17
M  V30 27 1 5 23
M  V30 28 1 8 24
M  V30 29 1 9 25
M  V30 30 1 11 26
M  V30 31 1 11 27
M  V30 32 1 11 28
M  V30 33 1 12 29
M  V30 34 1 12 30
M  V30 35 1 14 31
M  V30 36 1 15 32
M  V30 37 1 16 33
M  V30 38 1 20 34
M  V30 39 1 21 35
M  V30 40 1 21 36
M  V30 41 1 21 37
M  V30 42 1 22 38
M  V30 43 1 22 39
M  V30 44 1 22 40
M  V30 END BOND
M  V30 BEGIN COLLECTION
M  V30 MDLV30/STEABS ATOMS=(8 4 5 7 8 9 10 14 16)
M  V30 END COLLECTION
M  V30 END CTAB
M  END
>  <Structure No>
3564

>  <LogS>
-2.1672

>  <MMFF94 Energy>
78.274

$$$$
Compound 3565
Actelion Java MolfileCreator 2.0

  0  0  0  0  0  0              0 V3000
M  V30 BEGIN CTAB
M  V30 COUNTS 85 86 0 0 0
M  V30 BEGIN ATOM
M  V30 1 O 1.6109 1.3692 2.9818 0
M  V30 2 C 0.7219 1.9597 2.3103 0
M  V30 3 O 0.6186 1.7712 0.9274 0
M  V30 4 C -0.2079 2.9099 2.9847 0
M  V30 5 C 1.3942 0.8225 0.1883 0 CFG=1
M  V30 6 C 0.5094 0.1391 -0.8955 0 CFG=2
M  V30 7 C 2.6021 1.5005 -0.4718 0 CFG=1
M  V30 8 O 1.1963 -0.0797 -2.1238 0
M  V30 9 O -0.5995 0.9839 -1.1763 0
M  V30 10 O 3.4136 2.1623 0.501 0
M  V30 11 C 3.4343 0.4361 -1.2172 0 CFG=2
M  V30 12 C 2.5124 -0.5865 -1.953 0 CFG=1
M  V30 13 C -1.8846 0.3732 -1.0683 0 CFG=2
M  V30 14 C 3.2241 3.4881 0.9047 0
M  V30 15 O 4.3166 -0.2418 -0.315 0
M  V30 16 C 2.503 -2.0088 -1.3504 0
M  V30 17 O -2.829 1.4151 -1.2417 0
M  V30 18 C -2.1383 -0.2456 0.3381 0 CFG=2
M  V30 19 C -2.1388 -0.6065 -2.2449 0
M  V30 20 O 2.3446 4.2114 0.3625 0
M  V30 21 C 4.1044 4.0592 1.9629 0
M  V30 22 C 5.6003 0.2085 0.0144 0
M  V30 23 O 3.7631 -2.6377 -1.5648 0
M  V30 24 C -3.5782 1.5506 -0.0574 0 CFG=2
M  V30 25 O -2.084 -1.6746 0.3285 0
M  V30 26 C -3.5161 0.2371 0.6944 0 CFG=2
M  V30 27 O -1.3033 -1.7597 -2.1917 0
M  V30 28 O 6.058 1.2782 -0.4731 0
M  V30 29 C 6.4279 -0.5769 0.9727 0
M  V30 30 C 4.0514 -3.9229 -1.0986 0
M  V30 31 C -5.0169 1.9477 -0.3926 0
M  V30 32 C -1.5122 -2.4406 1.3504 0
M  V30 33 O -3.6515 0.46 2.0988 0
M  V30 34 C -1.4077 -2.8064 -3.1117 0
M  V30 35 O 3.1791 -4.5979 -0.4867 0
M  V30 36 C 5.4079 -4.4994 -1.3201 0
M  V30 37 O -5.0208 3.2035 -1.0643 0
M  V30 38 O -1.0334 -1.8956 2.3826 0
M  V30 39 C -1.4227 -3.9194 1.1899 0
M  V30 40 C -3.9774 -0.5489 3.0099 0
M  V30 41 O -2.1929 -2.7234 -4.0951 0
M  V30 42 C -0.5526 -4.0167 -2.9498 0
M  V30 43 C -6.1958 3.8205 -1.5016 0
M  V30 44 O -4.3165 -1.6964 2.6109 0
M  V30 45 C -3.9868 -0.2417 4.4679 0
M  V30 46 O -7.3178 3.2733 -1.3204 0
M  V30 47 C -6.1169 5.1173 -2.233 0
M  V30 48 H 0.1516 3.9494 2.8323 0
M  V30 49 H -1.2256 2.8062 2.5524 0
M  V30 50 H -0.26 2.6933 4.0734 0
M  V30 51 H 1.7655 0.0307 0.8785 0
M  V30 52 H 0.2027 -0.847 -0.4885 0
M  V30 53 H 2.2391 2.2396 -1.2229 0
M  V30 54 H 4.0385 0.962 -1.9916 0
M  V30 55 H 2.9265 -0.7056 -2.9785 0
M  V30 56 H 2.2877 -1.9759 -0.2611 0
M  V30 57 H 1.7126 -2.6072 -1.8477 0
M  V30 58 H -1.4112 0.1785 1.0653 0
M  V30 59 H -1.9612 -0.0732 -3.2047 0
M  V30 60 H -3.2037 -0.9299 -2.2219 0
M  V30 61 H 4.2225 3.3214 2.7846 0
M  V30 62 H 5.1009 4.2862 1.5298 0
M  V30 63 H 3.6624 4.9912 2.3762 0
M  V30 64 H -3.1183 2.358 0.5578 0
M  V30 65 H -4.2933 -0.4676 0.3174 0
M  V30 66 H 6.4931 -0.0325 1.9381 0
M  V30 67 H 5.9672 -1.5722 1.1477 0
M  V30 68 H 7.449 -0.7202 0.5602 0
M  V30 69 H -5.6088 2.0288 0.5455 0
M  V30 70 H -5.4788 1.1763 -1.048 0
M  V30 71 H 5.3235 -5.4372 -1.9077 0
M  V30 72 H 6.0448 -3.7795 -1.876 0
M  V30 73 H 5.8836 -4.7198 -0.3417 0
M  V30 74 H -0.3774 -4.2014 0.9472 0
M  V30 75 H -1.7311 -4.4209 2.1312 0
M  V30 76 H -2.0897 -4.2549 0.3675 0
M  V30 77 H -1.0948 -4.9181 -3.3042 0
M  V30 78 H -0.2922 -4.1556 -1.8796 0
M  V30 79 H 0.3777 -3.8939 -3.5413 0
M  V30 80 H -3.7107 -1.1453 5.0517 0
M  V30 81 H -5.0008 0.0951 4.7684 0
M  V30 82 H -3.2543 0.563 4.6878 0
M  V30 83 H -5.1542 5.6225 -2.0078 0
M  V30 84 H -6.9515 5.7816 -1.9233 0
M  V30 85 H -6.1826 4.9295 -3.3249 0
M  V30 END ATOM
M  V30 BEGIN BOND
M  V30 1 2 1 2
M  V30 2 1 2 3
M  V30 3 1 2 4
M  V30 4 1 3 5
M  V30 5 1 5 6
M  V30 6 1 5 7
M  V30 7 1 6 8
M  V30 8 1 6 9
M  V30 9 1 7 10
M  V30 10 1 7 11
M  V30 11 1 8 12
M  V30 12 1 9 13
M  V30 13 1 10 14
M  V30 14 1 11 15
M  V30 15 1 12 16
M  V30 16 1 13 17
M  V30 17 1 13 18
M  V30 18 1 13 19
M  V30 19 2 14 20
M  V30 20 1 14 21
M  V30 21 1 15 22
M  V30 22 1 16 23
M  V30 23 1 17 24
M  V30 24 1 18 25
M  V30 25 1 18 26
M  V30 26 1 19 27
M  V30 27 2 22 28
M  V30 28 1 22 29
M  V30 29 1 23 30
M  V30 30 1 24 31
M  V30 31 1 25 32
M  V30 32 1 26 33
M  V30 33 1 27 34
M  V30 34 2 30 35
M  V30 35 1 30 36
M  V30 36 1 31 37
M  V30 37 2 32 38
M  V30 38 1 32 39
M  V30 39 1 33 40
M  V30 40 2 34 41
M  V30 41 1 34 42
M  V30 42 1 37 43
M  V30 43 2 40 44
M  V30 44 1 40 45
M  V30 45 2 43 46
M  V30 46 1 43 47
M  V30 47 1 11 12
M  V30 48 1 24 26
M  V30 49 1 4 48
M  V30 50 1 4 49
M  V30 51 1 4 50
M  V30 52 1 5 51
M  V30 53 1 6 52
M  V30 54 1 7 53
M  V30 55 1 11 54
M  V30 56 1 12 55
M  V30 57 1 16 56
M  V30 58 1 16 57
M  V30 59 1 18 58
M  V30 60 1 19 59
M  V30 61 1 19 60
M  V30 62 1 21 61
M  V30 63 1 21 62
M  V30 64 1 21 63
M  V30 65 1 24 64
M  V30 66 1 26 65
M  V30 67 1 29 66
M  V30 68 1 29 67
M  V30 69 1 29 68
M  V30 70 1 31 69
M  V30 71 1 31 70
M  V30 72 1 36 71
M  V30 73 1 36 72
M  V30 74 1 36 73
M  V30 75 1 39 74
M  V30 76 1 39 75
M  V30 77 1 39 76
M  V30 78 1 42 77
M  V30 79 1 42 78
M  V30 80 1 42 79
M  V30 81 1 45 80
M  V30 82 1 45 81
M  V30 83 1 45 82
M  V30 84 1 47 83
M  V30 85 1 47 84
M  V30 86 1 47 85
M  V30 END BOND
M  V30 BEGIN COLLECTION
M  V30 MDLV30/STEABS ATOMS=(9 5 6 7 11 12 13 18 24 26)
M  V30 END COLLECTION
M  V30 END CTAB
M  END
>  <Structure No>
3565

>  <LogS>
-2.8726

>  <MMFF94 Energy>
19.204

$$$$
Compound 3566
Actelion Java MolfileCreator 2.0

  0  0  0  0  0  0              0 V3000
M  V30 BEGIN CTAB
M  V30 COUNTS 25 25 0 0 0
M  V30 BEGIN ATOM
M  V30 1 O -0.7143 0.4761 2.7802 0
M  V30 2 C -0.0591 -0.4998 2.3255 0
M  V30 3 O 0.5469 -0.4407 1.0616 0
M  V30 4 N 0.077 -1.6814 3.1098 0
M  V30 5 C 0.4468 0.653 0.1357 0
M  V30 6 C 0.936 1.8907 0.778 0
M  V30 7 C 1.3455 0.3353 -1.0922 0
M  V30 8 C -1.0167 0.8421 -0.3255 0
M  V30 9 C 1.335 2.9007 1.3022 0
M  V30 10 C 0.6267 -0.4563 -2.2077 0
M  V30 11 C -1.5913 -0.4412 -0.9605 0
M  V30 12 C -0.5272 -1.3057 -1.6662 0
M  V30 13 H -0.3637 -1.7446 4.0544 0
M  V30 14 H 0.6182 -2.4948 2.7424 0
M  V30 15 H 1.734 1.2738 -1.5494 0
M  V30 16 H 2.2345 -0.2407 -0.7519 0
M  V30 17 H -1.0559 1.6623 -1.0778 0
M  V30 18 H -1.6679 1.1539 0.5188 0
M  V30 19 H 1.6851 3.787 1.7625 0
M  V30 20 H 1.3578 -1.1124 -2.7279 0
M  V30 21 H 0.2211 0.2537 -2.9622 0
M  V30 22 H -2.0816 -1.0542 -0.1729 0
M  V30 23 H -2.378 -0.1543 -1.692 0
M  V30 24 H -0.1204 -2.056 -0.9532 0
M  V30 25 H -1.0001 -1.8652 -2.502 0
M  V30 END ATOM
M  V30 BEGIN BOND
M  V30 1 2 1 2
M  V30 2 1 2 3
M  V30 3 1 2 4
M  V30 4 1 3 5
M  V30 5 1 5 6
M  V30 6 1 5 7
M  V30 7 1 5 8
M  V30 8 3 6 9
M  V30 9 1 7 10
M  V30 10 1 8 11
M  V30 11 1 10 12
M  V30 12 1 11 12
M  V30 13 1 4 13
M  V30 14 1 4 14
M  V30 15 1 7 15
M  V30 16 1 7 16
M  V30 17 1 8 17
M  V30 18 1 8 18
M  V30 19 1 9 19
M  V30 20 1 10 20
M  V30 21 1 10 21
M  V30 22 1 11 22
M  V30 23 1 11 23
M  V30 24 1 12 24
M  V30 25 1 12 25
M  V30 END BOND
M  V30 END CTAB
M  END
>  <Structure No>
3566

>  <LogS>
-1.8253

>  <MMFF94 Energy>
-65.616

$$$$
Compound 3567
Actelion Java MolfileCreator 2.0

  0  0  0  0  0  0              0 V3000
M  V30 BEGIN CTAB
M  V30 COUNTS 39 38 0 0 0
M  V30 BEGIN ATOM
M  V30 1 O -0.0781 -0.1562 -0.2343 0
M  V30 2 C -1.3387 -0.6446 -0.648 0
M  V30 3 C 0.9407 -1.0539 -0.6252 0
M  V30 4 C -2.4762 0.2737 -0.1228 0
M  V30 5 C 2.3359 -0.4755 -0.265 0
M  V30 6 C -3.8444 -0.3281 -0.5505 0
M  V30 7 C -2.3347 1.7026 -0.724 0
M  V30 8 C -2.4221 0.3252 1.4293 0
M  V30 9 C 3.413 -1.4994 -0.7217 0
M  V30 10 C 2.4109 -0.2844 1.2757 0
M  V30 11 C 2.5401 0.8948 -0.9762 0
M  V30 12 O -3.9438 -0.4384 -1.95 0
M  V30 13 O -1.1779 2.3518 -0.2618 0
M  V30 14 O -3.4082 1.1868 1.9336 0
M  V30 15 O 4.7138 -1.0024 -0.5285 0
M  V30 16 O 3.6305 0.2933 1.6578 0
M  V30 17 O 2.3717 0.785 -2.3698 0
M  V30 18 H -1.3808 -0.6786 -1.7624 0
M  V30 19 H -1.504 -1.679 -0.2594 0
M  V30 20 H 0.8076 -2.0279 -0.0953 0
M  V30 21 H 0.8927 -1.2525 -1.7227 0
M  V30 22 H -4.6862 0.2867 -0.1477 0
M  V30 23 H -3.9594 -1.3465 -0.1158 0
M  V30 24 H -3.2399 2.314 -0.5 0
M  V30 25 H -2.2672 1.6343 -1.8322 0
M  V30 26 H -1.4222 0.6769 1.7703 0
M  V30 27 H -2.5772 -0.6969 1.848 0
M  V30 28 H 3.2696 -2.4679 -0.1835 0
M  V30 29 H 3.29 -1.7239 -1.8033 0
M  V30 30 H 1.5839 0.3751 1.6221 0
M  V30 31 H 2.2882 -1.272 1.7794 0
M  V30 32 H 1.7967 1.6306 -0.596 0
M  V30 33 H 3.5447 1.318 -0.7404 0
M  V30 34 H -4.379 0.3921 -2.2745 0
M  V30 35 H -1.4384 2.8736 0.5407 0
M  V30 36 H -3.2894 1.1982 2.9183 0
M  V30 37 H 5.1078 -1.4981 0.2381 0
M  V30 38 H 3.6576 0.2466 2.6477 0
M  V30 39 H 3.2482 0.5088 -2.7441 0
M  V30 END ATOM
M  V30 BEGIN BOND
M  V30 1 1 1 2
M  V30 2 1 1 3
M  V30 3 1 2 4
M  V30 4 1 3 5
M  V30 5 1 4 6
M  V30 6 1 4 7
M  V30 7 1 4 8
M  V30 8 1 5 9
M  V30 9 1 5 10
M  V30 10 1 5 11
M  V30 11 1 6 12
M  V30 12 1 7 13
M  V30 13 1 8 14
M  V30 14 1 9 15
M  V30 15 1 10 16
M  V30 16 1 11 17
M  V30 17 1 2 18
M  V30 18 1 2 19
M  V30 19 1 3 20
M  V30 20 1 3 21
M  V30 21 1 6 22
M  V30 22 1 6 23
M  V30 23 1 7 24
M  V30 24 1 7 25
M  V30 25 1 8 26
M  V30 26 1 8 27
M  V30 27 1 9 28
M  V30 28 1 9 29
M  V30 29 1 10 30
M  V30 30 1 10 31
M  V30 31 1 11 32
M  V30 32 1 11 33
M  V30 33 1 12 34
M  V30 34 1 13 35
M  V30 35 1 14 36
M  V30 36 1 15 37
M  V30 37 1 16 38
M  V30 38 1 17 39
M  V30 END BOND
M  V30 END CTAB
M  END
>  <Structure No>
3567

>  <LogS>
-1.9582

>  <MMFF94 Energy>
30.898

$$$$
Compound 3568
Actelion Java MolfileCreator 2.0

  0  0  0  0  0  0              0 V3000
M  V30 BEGIN CTAB
M  V30 COUNTS 22 22 0 0 0
M  V30 BEGIN ATOM
M  V30 1 O 1.9102 2.3085 0.2386 0
M  V30 2 C 1.4833 1.1641 0.2224 0
M  V30 3 C 2.2539 0.0901 -0.4948 0
M  V30 4 C 0.2447 0.8147 1.0074 0
M  V30 5 C 1.3226 -0.9421 -1.0683 0
M  V30 6 C -0.7027 -0.109 0.1984 0
M  V30 7 O 1.6181 -1.5159 -2.1052 0
M  V30 8 C 0.0799 -1.3452 -0.3163 0
M  V30 9 C -1.3226 0.6653 -0.9878 0
M  V30 10 C -1.8436 -0.5862 1.1191 0
M  V30 11 H 2.8526 0.5462 -1.3134 0
M  V30 12 H 2.9476 -0.4005 0.2195 0
M  V30 13 H -0.2903 1.7438 1.3059 0
M  V30 14 H 0.5681 0.302 1.9398 0
M  V30 15 H 0.394 -1.9787 0.5419 0
M  V30 16 H -0.5735 -1.9669 -0.9682 0
M  V30 17 H -1.8971 1.5441 -0.6232 0
M  V30 18 H -0.539 1.0322 -1.6838 0
M  V30 19 H -2.0141 0.0118 -1.5623 0
M  V30 20 H -2.423 0.2798 1.5065 0
M  V30 21 H -1.4402 -1.1495 1.9881 0
M  V30 22 H -2.54 -1.2536 0.5666 0
M  V30 END ATOM
M  V30 BEGIN BOND
M  V30 1 2 1 2
M  V30 2 1 2 3
M  V30 3 1 2 4
M  V30 4 1 3 5
M  V30 5 1 4 6
M  V30 6 2 5 7
M  V30 7 1 5 8
M  V30 8 1 6 9
M  V30 9 1 6 10
M  V30 10 1 6 8
M  V30 11 1 3 11
M  V30 12 1 3 12
M  V30 13 1 4 13
M  V30 14 1 4 14
M  V30 15 1 8 15
M  V30 16 1 8 16
M  V30 17 1 9 17
M  V30 18 1 9 18
M  V30 19 1 9 19
M  V30 20 1 10 20
M  V30 21 1 10 21
M  V30 22 1 10 22
M  V30 END BOND
M  V30 END CTAB
M  END
>  <Structure No>
3568

>  <LogS>
-1.5276

>  <MMFF94 Energy>
5.8312

$$$$
Compound 3569
Actelion Java MolfileCreator 2.0

  0  0  0  0  0  0              0 V3000
M  V30 BEGIN CTAB
M  V30 COUNTS 26 26 0 0 0
M  V30 BEGIN ATOM
M  V30 1 O -3.0686 -0.6288 -2.0449 0
M  V30 2 C -2.2499 0.1804 -1.531 0
M  V30 3 N -2.2226 1.5386 -1.9683 0
M  V30 4 C -1.3145 -0.2812 -0.4551 0 CFG=1
M  V30 5 O -0.717 -1.5179 -0.7838 0
M  V30 6 C 0.1264 -0.3865 -0.8279 0 CFG=2
M  V30 7 C -1.8059 -0.2485 1.0018 0
M  V30 8 C 1.1998 -0.4326 0.268 0
M  V30 9 C -1.7828 1.1719 1.5585 0
M  V30 10 C 2.5332 -0.9032 -0.3197 0
M  V30 11 C 3.6331 -0.9157 0.7385 0
M  V30 12 H -2.8682 1.8641 -2.7212 0
M  V30 13 H -1.5505 2.2176 -1.5467 0
M  V30 14 H 0.4067 -0.1176 -1.8698 0
M  V30 15 H -1.2065 -0.9113 1.6595 0
M  V30 16 H -2.8496 -0.6292 1.0367 0
M  V30 17 H 0.9182 -1.125 1.0884 0
M  V30 18 H 1.322 0.5894 0.6865 0
M  V30 19 H -0.755 1.5915 1.5172 0
M  V30 20 H -2.1174 1.1605 2.6173 0
M  V30 21 H -2.4683 1.8261 0.9778 0
M  V30 22 H 2.4132 -1.9313 -0.7285 0
M  V30 23 H 2.8412 -0.2277 -1.148 0
M  V30 24 H 3.3374 -1.5534 1.5995 0
M  V30 25 H 4.5675 -1.3259 0.2985 0
M  V30 26 H 3.8328 0.1171 1.0971 0
M  V30 END ATOM
M  V30 BEGIN BOND
M  V30 1 2 1 2
M  V30 2 1 2 3
M  V30 3 1 2 4
M  V30 4 1 4 5
M  V30 5 1 4 6
M  V30 6 1 4 7
M  V30 7 1 6 8
M  V30 8 1 7 9
M  V30 9 1 8 10
M  V30 10 1 10 11
M  V30 11 1 5 6
M  V30 12 1 3 12
M  V30 13 1 3 13
M  V30 14 1 6 14
M  V30 15 1 7 15
M  V30 16 1 7 16
M  V30 17 1 8 17
M  V30 18 1 8 18
M  V30 19 1 9 19
M  V30 20 1 9 20
M  V30 21 1 9 21
M  V30 22 1 10 22
M  V30 23 1 10 23
M  V30 24 1 11 24
M  V30 25 1 11 25
M  V30 26 1 11 26
M  V30 END BOND
M  V30 BEGIN COLLECTION
M  V30 MDLV30/STEABS ATOMS=(2 4 6)
M  V30 END COLLECTION
M  V30 END CTAB
M  END
>  <Structure No>
3569

>  <LogS>
-1.1745

>  <MMFF94 Energy>
-8.7743

$$$$
Compound 3570
Actelion Java MolfileCreator 2.0

  0  0  0  0  0  0              0 V3000
M  V30 BEGIN CTAB
M  V30 COUNTS 9 8 0 0 0
M  V30 BEGIN ATOM
M  V30 1 O 0.2248 -1.3498 -0.9747 0
M  V30 2 C -0.1524 -0.3457 -0.314 0
M  V30 3 N 0.8111 0.5745 0.2024 0
M  V30 4 N -1.5438 -0.1316 -0.0835 0
M  V30 5 O 2.1335 0.387 -0.0216 0
M  V30 6 H 0.4973 1.4137 0.7392 0
M  V30 7 H -2.2504 -0.802 -0.4595 0
M  V30 8 H -1.87 0.696 0.4626 0
M  V30 9 H 2.4505 -0.1408 0.755 0
M  V30 END ATOM
M  V30 BEGIN BOND
M  V30 1 2 1 2
M  V30 2 1 2 3
M  V30 3 1 2 4
M  V30 4 1 3 5
M  V30 5 1 3 6
M  V30 6 1 4 7
M  V30 7 1 4 8
M  V30 8 1 5 9
M  V30 END BOND
M  V30 END CTAB
M  END
>  <Structure No>
3570

>  <LogS>
1.1189

>  <MMFF94 Energy>
-43.818

$$$$
Compound 3571
Actelion Java MolfileCreator 2.0

  0  0  0  0  0  0              0 V3000
M  V30 BEGIN CTAB
M  V30 COUNTS 9 8 0 0 0
M  V30 BEGIN ATOM
M  V30 1 O 1.961 0.3135 1.0193 0
M  V30 2 C 1.014 -0.3922 0.5832 0
M  V30 3 O 1.0567 -1.77 0.7663 0 CHG=-1
M  V30 4 C -0.124 0.2433 -0.1125 0
M  V30 5 O -0.156 1.6264 -0.2902 0
M  V30 6 C -1.1368 -0.484 -0.5821 0
M  V30 7 H 0.587 2.2265 0.0467 0
M  V30 8 H -1.9628 -0.0021 -1.0896 0
M  V30 9 H -1.1622 -1.5607 -0.4713 0
M  V30 END ATOM
M  V30 BEGIN BOND
M  V30 1 2 1 2
M  V30 2 1 2 3
M  V30 3 1 2 4
M  V30 4 1 4 5
M  V30 5 2 4 6
M  V30 6 1 5 7
M  V30 7 1 6 8
M  V30 8 1 6 9
M  V30 END BOND
M  V30 END CTAB
M  END
>  <Structure No>
3571

>  <LogS>
1.0552

>  <MMFF94 Energy>
55.116

$$$$
Compound 3572
Actelion Java MolfileCreator 2.0

  0  0  0  0  0  0              0 V3000
M  V30 BEGIN CTAB
M  V30 COUNTS 19 19 0 0 0
M  V30 BEGIN ATOM
M  V30 1 O 1.9117 0.3184 2.2306 0
M  V30 2 C 1.0749 0.0989 1.316 0
M  V30 3 O -0.2966 0.2277 1.4898 0
M  V30 4 N 1.4332 -0.2775 -0.0024 0
M  V30 5 C -0.9663 -0.0248 0.2535 0
M  V30 6 C 0.1824 -0.307 -0.6772 0
M  V30 7 C 2.7324 -0.063 -0.6262 0
M  V30 8 C -1.8804 -1.2457 0.391 0
M  V30 9 C -1.7443 1.2197 -0.184 0
M  V30 10 O 0.0682 -0.524 -1.9135 0
M  V30 11 H 2.8448 1.0078 -0.8964 0
M  V30 12 H 2.8191 -0.6843 -1.5422 0
M  V30 13 H 3.5419 -0.3521 0.0763 0
M  V30 14 H -2.6718 -1.0472 1.1451 0
M  V30 15 H -1.2951 -2.1303 0.723 0
M  V30 16 H -2.3633 -1.4815 -0.5815 0
M  V30 17 H -2.5302 1.4608 0.5631 0
M  V30 18 H -2.2278 1.0502 -1.1699 0
M  V30 19 H -1.0609 2.0923 -0.2665 0
M  V30 END ATOM
M  V30 BEGIN BOND
M  V30 1 2 1 2
M  V30 2 1 2 3
M  V30 3 1 2 4
M  V30 4 1 3 5
M  V30 5 1 4 6
M  V30 6 1 4 7
M  V30 7 1 5 8
M  V30 8 1 5 9
M  V30 9 2 6 10
M  V30 10 1 5 6
M  V30 11 1 7 11
M  V30 12 1 7 12
M  V30 13 1 7 13
M  V30 14 1 8 14
M  V30 15 1 8 15
M  V30 16 1 8 16
M  V30 17 1 9 17
M  V30 18 1 9 18
M  V30 19 1 9 19
M  V30 END BOND
M  V30 END CTAB
M  END
>  <Structure No>
3572

>  <LogS>
-0.4568

>  <MMFF94 Energy>
-45.898

$$$$
Compound 3573
Actelion Java MolfileCreator 2.0

  0  0  0  0  0  0              0 V3000
M  V30 BEGIN CTAB
M  V30 COUNTS 30 31 0 0 0
M  V30 BEGIN ATOM
M  V30 1 S 0.4929 -2.1373 -1.0682 0
M  V30 2 O -0.0211 -3.4032 -0.4416 0
M  V30 3 O 1.0399 -2.4494 -2.4319 0
M  V30 4 N -0.8168 -1.0153 -1.2223 0 CHG=-1
M  V30 5 C 1.771 -1.4355 -0.082 0
M  V30 6 C -1.5435 -0.5212 -0.0932 0
M  V30 7 C 2.5203 -2.2411 0.7862 0
M  V30 8 C 2.0507 -0.0651 -0.1694 0
M  V30 9 O -1.2484 -0.925 1.0646 0
M  V30 10 C -2.6351 0.4624 -0.2807 0
M  V30 11 C 3.5348 -1.679 1.5674 0
M  V30 12 C 3.0647 0.4973 0.6118 0
M  V30 13 C -2.9688 0.9273 -1.5671 0
M  V30 14 C -3.3556 0.9503 0.8264 0
M  V30 15 C 3.8109 -0.3068 1.4848 0
M  V30 16 C -3.999 1.8573 -1.7389 0
M  V30 17 C -4.3847 1.8802 0.6483 0
M  V30 18 N 4.8479 0.2682 2.284 0
M  V30 19 C -4.7062 2.3332 -0.6327 0
M  V30 20 H 2.3215 -3.3026 0.859 0
M  V30 21 H 1.4846 0.5674 -0.8411 0
M  V30 22 H 4.1052 -2.3118 2.2354 0
M  V30 23 H 3.2689 1.5579 0.5365 0
M  V30 24 H -2.4361 0.5752 -2.4412 0
M  V30 25 H -3.1247 0.6145 1.8297 0
M  V30 26 H -4.2491 2.2096 -2.7314 0
M  V30 27 H -4.9333 2.2499 1.505 0
M  V30 28 H 5.4097 -0.3227 2.9368 0
M  V30 29 H 5.0614 1.2891 2.2291 0
M  V30 30 H -5.5031 3.053 -0.7682 0
M  V30 END ATOM
M  V30 BEGIN BOND
M  V30 1 2 1 2
M  V30 2 2 1 3
M  V30 3 1 1 4
M  V30 4 1 1 5
M  V30 5 1 4 6
M  V30 6 2 5 7
M  V30 7 1 5 8
M  V30 8 2 6 9
M  V30 9 1 6 10
M  V30 10 1 7 11
M  V30 11 2 8 12
M  V30 12 2 10 13
M  V30 13 1 10 14
M  V30 14 2 11 15
M  V30 15 1 13 16
M  V30 16 2 14 17
M  V30 17 1 15 18
M  V30 18 2 16 19
M  V30 19 1 12 15
M  V30 20 1 17 19
M  V30 21 1 7 20
M  V30 22 1 8 21
M  V30 23 1 11 22
M  V30 24 1 12 23
M  V30 25 1 13 24
M  V30 26 1 14 25
M  V30 27 1 16 26
M  V30 28 1 17 27
M  V30 29 1 18 28
M  V30 30 1 18 29
M  V30 31 1 19 30
M  V30 END BOND
M  V30 END CTAB
M  END
>  <Structure No>
3573

>  <LogS>
-2.9501

>  <MMFF94 Energy>
63.116

$$$$
Compound 3574
Actelion Java MolfileCreator 2.0

  0  0  0  0  0  0              0 V3000
M  V30 BEGIN CTAB
M  V30 COUNTS 11 10 0 0 0
M  V30 BEGIN ATOM
M  V30 1 O 2.1148 -0.8611 -0.7828 0
M  V30 2 C 1.4514 -0.1656 0.031 0
M  V30 3 O 1.9913 0.1347 1.276 0 CHG=-1
M  V30 4 C 0.0698 0.2941 -0.3223 0 CFG=2
M  V30 5 O -0.0925 1.6253 0.0906 0
M  V30 6 C -0.9689 -0.597 0.3598 0
M  V30 7 H -0.0617 0.2237 -1.4276 0
M  V30 8 H -0.8914 1.9771 -0.3827 0
M  V30 9 H -0.8367 -1.6536 0.0422 0
M  V30 10 H -0.8707 -0.534 1.4651 0
M  V30 11 H -1.9916 -0.2711 0.074 0
M  V30 END ATOM
M  V30 BEGIN BOND
M  V30 1 2 1 2
M  V30 2 1 2 3
M  V30 3 1 2 4
M  V30 4 1 4 5
M  V30 5 1 4 6
M  V30 6 1 4 7
M  V30 7 1 5 8
M  V30 8 1 6 9
M  V30 9 1 6 10
M  V30 10 1 6 11
M  V30 END BOND
M  V30 BEGIN COLLECTION
M  V30 MDLV30/STEABS ATOMS=(1 4)
M  V30 END COLLECTION
M  V30 END CTAB
M  END
>  <Structure No>
3574

>  <LogS>
-0.4702

>  <MMFF94 Energy>
53.629

$$$$
Compound 3575
Actelion Java MolfileCreator 2.0

  0  0  0  0  0  0              0 V3000
M  V30 BEGIN CTAB
M  V30 COUNTS 12 12 0 0 0
M  V30 BEGIN ATOM
M  V30 1 Cl 3.0981 0.0836 0.0836 0
M  V30 2 N 1.3578 0.0525 0.0317 0
M  V30 3 C 0.4996 1.1433 -0.2279 0
M  V30 4 C 0.5251 -1.0681 0.2409 0
M  V30 5 O 0.9204 2.3072 -0.4599 0
M  V30 6 C -0.9451 0.7672 -0.1968 0
M  V30 7 O 0.9726 -2.2164 0.499 0
M  V30 8 C -0.9276 -0.7437 0.1234 0
M  V30 9 H -1.4727 1.3366 0.5981 0
M  V30 10 H -1.4127 0.959 -1.1863 0
M  V30 11 H -1.3863 -1.3305 -0.7009 0
M  V30 12 H -1.4464 -0.9528 1.0835 0
M  V30 END ATOM
M  V30 BEGIN BOND
M  V30 1 1 1 2
M  V30 2 1 2 3
M  V30 3 1 2 4
M  V30 4 2 3 5
M  V30 5 1 3 6
M  V30 6 2 4 7
M  V30 7 1 4 8
M  V30 8 1 6 8
M  V30 9 1 6 9
M  V30 10 1 6 10
M  V30 11 1 8 11
M  V30 12 1 8 12
M  V30 END BOND
M  V30 END CTAB
M  END
>  <Structure No>
3575

>  <LogS>
-0.9702

>  <MMFF94 Energy>
-14.614

$$$$
Compound 3576
Actelion Java MolfileCreator 2.0

  0  0  0  0  0  0              0 V3000
M  V30 BEGIN CTAB
M  V30 COUNTS 67 70 0 0 0
M  V30 BEGIN ATOM
M  V30 1 O 7.9374 -0.7269 1.2118 0
M  V30 2 C 6.8201 -0.8034 1.7875 0
M  V30 3 O 6.6482 -0.2072 3.0309 0 CHG=-1
M  V30 4 C 5.6997 -1.5798 1.1604 0
M  V30 5 C 4.402 -0.7543 1.036 0
M  V30 6 C 4.2513 0.0202 -0.3009 0 CFG=1
M  V30 7 C 2.8985 0.8153 -0.362 0 CFG=2
M  V30 8 C 5.4403 0.985 -0.496 0
M  V30 9 C 1.5598 0.0192 -0.2192 0 CFG=2
M  V30 10 C 2.7188 1.586 -1.7 0
M  V30 11 C 0.5652 1.0595 -0.7569 0 CFG=1
M  V30 12 C 1.1449 -0.3146 1.2565 0
M  V30 13 C 1.6122 -1.2635 -1.1169 0
M  V30 14 C 1.2161 1.6167 -2.0129 0
M  V30 15 C -0.9253 0.5816 -0.8397 0 CFG=2
M  V30 16 C -0.3682 -0.1081 1.5642 0
M  V30 17 C -1.84 1.837 -0.7914 0 CFG=1
M  V30 18 C -1.2501 -0.4399 0.3231 0 CFG=1
M  V30 19 O -1.6502 2.599 -1.9564 0
M  V30 20 C -3.3158 1.4771 -0.679 0
M  V30 21 C -2.7998 -0.6932 0.5764 0 CFG=1
M  V30 22 C -3.5909 0.6459 0.5885 0 CFG=2
M  V30 23 C -3.3554 -1.6379 -0.5516 0
M  V30 24 C -2.9923 -1.4204 1.9405 0
M  V30 25 C -5.1188 0.4429 0.7893 0
M  V30 26 C -4.8366 -1.437 -0.9493 0
M  V30 27 C -5.7164 -0.8387 0.1528 0 CFG=2
M  V30 28 O -6.9823 -0.5571 -0.3867 0
M  V30 29 H 5.5053 -2.4592 1.8119 0
M  V30 30 H 6.0049 -1.9742 0.1665 0
M  V30 31 H 3.5805 -1.4881 1.1067 0
M  V30 32 H 4.29 -0.0603 1.8978 0
M  V30 33 H 4.283 -0.7133 -1.1348 0
M  V30 34 H 2.9339 1.58 0.4492 0
M  V30 35 H 5.5314 1.6748 0.3702 0
M  V30 36 H 6.3858 0.4203 -0.6178 0
M  V30 37 H 5.3324 1.5882 -1.4194 0
M  V30 38 H 3.1117 2.622 -1.6021 0
M  V30 39 H 3.2524 1.0815 -2.5354 0
M  V30 40 H 0.5878 1.9081 -0.0284 0
M  V30 41 H 1.3893 -1.3722 1.4915 0
M  V30 42 H 1.7215 0.3085 1.9733 0
M  V30 43 H 2.1459 -1.0726 -2.0705 0
M  V30 44 H 2.1442 -2.0904 -0.6046 0
M  V30 45 H 0.6216 -1.6385 -1.4224 0
M  V30 46 H 0.9854 0.9743 -2.8907 0
M  V30 47 H 0.8824 2.6561 -2.2198 0
M  V30 48 H -1.0844 0.0679 -1.8128 0
M  V30 49 H -0.5549 0.9408 1.8812 0
M  V30 50 H -0.5946 -0.7515 2.4356 0
M  V30 51 H -1.5765 2.45 0.104 0
M  V30 52 H -0.8869 -1.4395 0.0182 0
M  V30 53 H -1.9423 3.5255 -1.7496 0
M  V30 54 H -3.6278 0.9535 -1.6017 0
M  V30 55 H -3.8972 2.4243 -0.6275 0
M  V30 56 H -3.2327 1.2537 1.4513 0
M  V30 57 H -2.7627 -1.5176 -1.4832 0
M  V30 58 H -3.2066 -2.7012 -0.2586 0
M  V30 59 H -2.2962 -2.2828 2.0242 0
M  V30 60 H -2.8214 -0.7286 2.7928 0
M  V30 61 H -4.0077 -1.8331 2.0688 0
M  V30 62 H -5.6672 1.3381 0.4209 0
M  V30 63 H -5.327 0.4055 1.8815 0
M  V30 64 H -5.2605 -2.4212 -1.2471 0
M  V30 65 H -4.905 -0.8001 -1.8558 0
M  V30 66 H -5.843 -1.6194 0.9355 0
M  V30 67 H -7.5983 -0.4201 0.3803 0
M  V30 END ATOM
M  V30 BEGIN BOND
M  V30 1 2 1 2
M  V30 2 1 2 3
M  V30 3 1 2 4
M  V30 4 1 4 5
M  V30 5 1 5 6
M  V30 6 1 6 7
M  V30 7 1 6 8
M  V30 8 1 7 9
M  V30 9 1 7 10
M  V30 10 1 9 11
M  V30 11 1 9 12
M  V30 12 1 9 13
M  V30 13 1 10 14
M  V30 14 1 11 15
M  V30 15 1 12 16
M  V30 16 1 15 17
M  V30 17 1 15 18
M  V30 18 1 17 19
M  V30 19 1 17 20
M  V30 20 1 18 21
M  V30 21 1 20 22
M  V30 22 1 21 23
M  V30 23 1 21 24
M  V30 24 1 22 25
M  V30 25 1 23 26
M  V30 26 1 25 27
M  V30 27 1 27 28
M  V30 28 1 11 14
M  V30 29 1 16 18
M  V30 30 1 21 22
M  V30 31 1 26 27
M  V30 32 1 4 29
M  V30 33 1 4 30
M  V30 34 1 5 31
M  V30 35 1 5 32
M  V30 36 1 6 33
M  V30 37 1 7 34
M  V30 38 1 8 35
M  V30 39 1 8 36
M  V30 40 1 8 37
M  V30 41 1 10 38
M  V30 42 1 10 39
M  V30 43 1 11 40
M  V30 44 1 12 41
M  V30 45 1 12 42
M  V30 46 1 13 43
M  V30 47 1 13 44
M  V30 48 1 13 45
M  V30 49 1 14 46
M  V30 50 1 14 47
M  V30 51 1 15 48
M  V30 52 1 16 49
M  V30 53 1 16 50
M  V30 54 1 17 51
M  V30 55 1 18 52
M  V30 56 1 19 53
M  V30 57 1 20 54
M  V30 58 1 20 55
M  V30 59 1 22 56
M  V30 60 1 23 57
M  V30 61 1 23 58
M  V30 62 1 24 59
M  V30 63 1 24 60
M  V30 64 1 24 61
M  V30 65 1 25 62
M  V30 66 1 25 63
M  V30 67 1 26 64
M  V30 68 1 26 65
M  V30 69 1 27 66
M  V30 70 1 28 67
M  V30 END BOND
M  V30 BEGIN COLLECTION
M  V30 MDLV30/STEABS ATOMS=(10 6 7 9 11 15 17 18 21 22 27)
M  V30 END COLLECTION
M  V30 END CTAB
M  END
>  <Structure No>
3576

>  <LogS>
-4.2929

>  <MMFF94 Energy>
111.21

$$$$
Compound 3577
Actelion Java MolfileCreator 2.0

  0  0  0  0  0  0              0 V3000
M  V30 BEGIN CTAB
M  V30 COUNTS 54 58 0 0 0
M  V30 BEGIN ATOM
M  V30 1 O 1.4577 3.2415 -1.6197 0
M  V30 2 C 1.1296 2.0266 -1.5951 0
M  V30 3 O -0.0614 1.5297 -2.1126 0
M  V30 4 C 1.8796 0.9519 -0.9751 0
M  V30 5 C -0.0493 0.1019 -2.0276 0 CFG=1
M  V30 6 C 3.0591 0.9765 -0.227 0
M  V30 7 C 1.1364 -0.192 -1.1503 0
M  V30 8 C -1.4177 -0.5389 -1.626 0 CFG=2
M  V30 9 O 3.7086 2.2132 -0.0613 0
M  V30 10 C 3.5159 -0.2566 0.3231 0
M  V30 11 C 1.5693 -1.4106 -0.64 0
M  V30 12 N -2.5543 -0.1347 -2.5134 0 CHG=1 CFG=2
M  V30 13 C -1.8979 -0.4921 -0.163 0
M  V30 14 C 4.8816 2.4474 0.7085 0
M  V30 15 O 4.7036 -0.2911 1.0702 0
M  V30 16 C 2.7576 -1.4399 0.1034 0
M  V30 17 C -3.8129 -0.9194 -2.2604 0
M  V30 18 C -2.2185 -0.2021 -3.9525 0
M  V30 19 C -1.3918 0.3158 0.9027 0
M  V30 20 C -3.044 -1.2989 0.0812 0
M  V30 21 C 5.2562 -1.4596 1.6674 0
M  V30 22 C -3.7358 -1.9276 -1.0916 0
M  V30 23 O -0.4377 1.3112 0.6695 0
M  V30 24 C -1.935 0.1042 2.1844 0
M  V30 25 C -3.5552 -1.4681 1.3798 0
M  V30 26 C 0.1071 2.1768 1.6624 0
M  V30 27 O -1.5899 0.6952 3.3878 0
M  V30 28 C -2.9581 -0.7584 2.4057 0
M  V30 29 C -2.4349 0.1675 4.4168 0
M  V30 30 O -3.297 -0.7563 3.7448 0
M  V30 31 H 0.2417 -0.2918 -3.026 0
M  V30 32 H -1.2196 -1.6192 -1.8189 0
M  V30 33 H 1.0032 -2.3169 -0.8114 0
M  V30 34 H -2.7614 0.8716 -2.3039 0
M  V30 35 H 5.1225 3.5296 0.6734 0
M  V30 36 H 5.7393 1.8856 0.2827 0
M  V30 37 H 4.708 2.1656 1.768 0
M  V30 38 H 3.0823 -2.3908 0.5016 0
M  V30 39 H -4.1374 -1.4985 -3.1554 0
M  V30 40 H -4.6455 -0.2118 -2.0437 0
M  V30 41 H -1.8203 -1.2055 -4.2201 0
M  V30 42 H -3.116 0.0049 -4.5775 0
M  V30 43 H -1.4819 0.5811 -4.2292 0
M  V30 44 H 5.4955 -2.2113 0.886 0
M  V30 45 H 6.1929 -1.1871 2.1953 0
M  V30 46 H 4.5438 -1.8853 2.4053 0
M  V30 47 H -4.7666 -2.2473 -0.8223 0
M  V30 48 H -3.1754 -2.8343 -1.4063 0
M  V30 49 H -4.4079 -2.1053 1.5771 0
M  V30 50 H 0.6446 1.5848 2.4331 0
M  V30 51 H -0.6987 2.785 2.1245 0
M  V30 52 H 0.8332 2.8671 1.1872 0
M  V30 53 H -1.8257 -0.3614 5.1799 0
M  V30 54 H -3.0312 0.9823 4.8792 0
M  V30 END ATOM
M  V30 BEGIN BOND
M  V30 1 2 1 2
M  V30 2 1 2 3
M  V30 3 1 2 4
M  V30 4 1 3 5
M  V30 5 2 4 6
M  V30 6 1 4 7
M  V30 7 1 5 8
M  V30 8 1 6 9
M  V30 9 1 6 10
M  V30 10 2 7 11
M  V30 11 1 8 12
M  V30 12 1 8 13
M  V30 13 1 9 14
M  V30 14 1 10 15
M  V30 15 2 10 16
M  V30 16 1 12 17
M  V30 17 1 12 18
M  V30 18 2 13 19
M  V30 19 1 13 20
M  V30 20 1 15 21
M  V30 21 1 17 22
M  V30 22 1 19 23
M  V30 23 1 19 24
M  V30 24 2 20 25
M  V30 25 1 23 26
M  V30 26 1 24 27
M  V30 27 2 24 28
M  V30 28 1 27 29
M  V30 29 1 28 30
M  V30 30 1 5 7
M  V30 31 1 11 16
M  V30 32 1 20 22
M  V30 33 1 25 28
M  V30 34 1 29 30
M  V30 35 1 5 31
M  V30 36 1 8 32
M  V30 37 1 11 33
M  V30 38 1 12 34
M  V30 39 1 14 35
M  V30 40 1 14 36
M  V30 41 1 14 37
M  V30 42 1 16 38
M  V30 43 1 17 39
M  V30 44 1 17 40
M  V30 45 1 18 41
M  V30 46 1 18 42
M  V30 47 1 18 43
M  V30 48 1 21 44
M  V30 49 1 21 45
M  V30 50 1 21 46
M  V30 51 1 22 47
M  V30 52 1 22 48
M  V30 53 1 25 49
M  V30 54 1 26 50
M  V30 55 1 26 51
M  V30 56 1 26 52
M  V30 57 1 29 53
M  V30 58 1 29 54
M  V30 END BOND
M  V30 BEGIN COLLECTION
M  V30 MDLV30/STEABS ATOMS=(3 5 8 12)
M  V30 END COLLECTION
M  V30 END CTAB
M  END
>  <Structure No>
3577

>  <LogS>
-3.1393

>  <MMFF94 Energy>
128.29

$$$$
Compound 3578
Actelion Java MolfileCreator 2.0

  0  0  0  0  0  0              0 V3000
M  V30 BEGIN CTAB
M  V30 COUNTS 25 27 0 0 0
M  V30 BEGIN ATOM
M  V30 1 O 0.0 -2.5343 0.245 0
M  V30 2 C 0.0423 -1.2763 0.1824 0
M  V30 3 C -1.2129 -0.4712 0.1884 0
M  V30 4 C 1.3539 -0.6103 0.0075 0
M  V30 5 C -2.4722 -1.0094 0.577 0
M  V30 6 C -1.1538 0.8719 -0.2617 0
M  V30 7 C 1.408 0.7465 -0.3692 0
M  V30 8 C 2.5514 -1.3264 0.1901 0
M  V30 9 O -2.616 -2.2639 1.1744 0
M  V30 10 C -3.6356 -0.2545 0.3973 0
M  V30 11 C 0.1526 1.5003 -0.5756 0
M  V30 12 C -2.3389 1.6147 -0.4031 0
M  V30 13 C 2.6578 1.3659 -0.5544 0
M  V30 14 C 3.7854 -0.6989 0.0062 0
M  V30 15 C -3.5711 1.0461 -0.0934 0
M  V30 16 O 0.1957 2.6854 -1.0073 0
M  V30 17 C 3.8384 0.6446 -0.3654 0
M  V30 18 H 2.5344 -2.37 0.4787 0
M  V30 19 H -1.8576 -2.7718 1.6063 0
M  V30 20 H -4.597 -0.671 0.6715 0
M  V30 21 H -2.3146 2.6379 -0.7569 0
M  V30 22 H 2.723 2.4074 -0.8437 0
M  V30 23 H 4.7021 -1.2559 0.151 0
M  V30 24 H -4.4785 1.6243 -0.2121 0
M  V30 25 H 4.7962 1.128 -0.5083 0
M  V30 END ATOM
M  V30 BEGIN BOND
M  V30 1 2 1 2
M  V30 2 1 2 3
M  V30 3 1 2 4
M  V30 4 2 3 5
M  V30 5 1 3 6
M  V30 6 2 4 7
M  V30 7 1 4 8
M  V30 8 1 5 9
M  V30 9 1 5 10
M  V30 10 1 6 11
M  V30 11 2 6 12
M  V30 12 1 7 13
M  V30 13 2 8 14
M  V30 14 2 10 15
M  V30 15 2 11 16
M  V30 16 2 13 17
M  V30 17 1 7 11
M  V30 18 1 12 15
M  V30 19 1 14 17
M  V30 20 1 8 18
M  V30 21 1 9 19
M  V30 22 1 10 20
M  V30 23 1 12 21
M  V30 24 1 13 22
M  V30 25 1 14 23
M  V30 26 1 15 24
M  V30 27 1 17 25
M  V30 END BOND
M  V30 END CTAB
M  END
>  <Structure No>
3578

>  <LogS>
-4.4213

>  <MMFF94 Energy>
67.235

$$$$
Compound 3579
Actelion Java MolfileCreator 2.0

  0  0  0  0  0  0              0 V3000
M  V30 BEGIN CTAB
M  V30 COUNTS 20 20 0 0 0
M  V30 BEGIN ATOM
M  V30 1 O -0.5892 2.1057 -2.6116 0
M  V30 2 N 0.2235 2.0846 -1.6642 0 CHG=1
M  V30 3 O 1.2344 3.0178 -1.6376 0 CHG=-1
M  V30 4 C 0.2481 0.9735 -0.7506 0
M  V30 5 C -0.9452 0.3929 -0.2467 0
M  V30 6 C 1.4897 0.4283 -0.391 0
M  V30 7 C -0.8627 -0.7456 0.5943 0
M  V30 8 C -2.2649 0.9641 -0.5965 0
M  V30 9 C 1.575 -0.7074 0.4239 0
M  V30 10 N -2.0362 -1.3278 1.1892 0 CHG=1
M  V30 11 C 0.3934 -1.2912 0.9018 0
M  V30 12 O -2.4591 2.2069 -0.5301 0
M  V30 13 O -3.3037 0.1329 -0.9988 0 CHG=-1
M  V30 14 N 2.859 -1.2642 0.7641 0 CHG=1
M  V30 15 O -2.0956 -2.56 1.3815 0
M  V30 16 O -3.0067 -0.5229 1.7405 0 CHG=-1
M  V30 17 O 2.9426 -2.2818 1.483 0
M  V30 18 O 4.0184 -0.6839 0.3022 0 CHG=-1
M  V30 19 H 2.3946 0.8756 -0.7816 0
M  V30 20 H 0.448 -2.1578 1.5485 0
M  V30 END ATOM
M  V30 BEGIN BOND
M  V30 1 2 1 2
M  V30 2 1 2 3
M  V30 3 1 2 4
M  V30 4 2 4 5
M  V30 5 1 4 6
M  V30 6 1 5 7
M  V30 7 1 5 8
M  V30 8 2 6 9
M  V30 9 1 7 10
M  V30 10 2 7 11
M  V30 11 2 8 12
M  V30 12 1 8 13
M  V30 13 1 9 14
M  V30 14 2 10 15
M  V30 15 1 10 16
M  V30 16 2 14 17
M  V30 17 1 14 18
M  V30 18 1 9 11
M  V30 19 1 6 19
M  V30 20 1 11 20
M  V30 END BOND
M  V30 END CTAB
M  END
>  <Structure No>
3579

>  <LogS>
-1.0977

>  <MMFF94 Energy>
31.003

$$$$
Compound 3580
Actelion Java MolfileCreator 2.0

  0  0  0  0  0  0              0 V3000
M  V30 BEGIN CTAB
M  V30 COUNTS 18 19 0 0 0
M  V30 BEGIN ATOM
M  V30 1 Cl 0.0819 3.0369 1.5586 0
M  V30 2 C -0.4526 1.5951 0.6987 0
M  V30 3 C 0.4257 0.5349 0.386 0
M  V30 4 C -1.7978 1.5152 0.3205 0
M  V30 5 C -0.0687 -0.5976 -0.3083 0
M  V30 6 C 1.7865 0.559 0.7401 0
M  V30 7 C -2.2783 0.3967 -0.3631 0
M  V30 8 N 0.769 -1.6259 -0.6151 0
M  V30 9 C -1.4188 -0.6619 -0.6799 0
M  V30 10 C 2.6151 -0.5139 0.4084 0
M  V30 11 C 2.084 -1.6073 -0.2753 0
M  V30 12 O -1.9004 -1.7782 -1.3627 0
M  V30 13 H -2.4767 2.3249 0.5573 0
M  V30 14 H 2.2173 1.3978 1.2705 0
M  V30 15 H -3.3221 0.3538 -0.6471 0
M  V30 16 H 3.6627 -0.4981 0.6796 0
M  V30 17 H 2.7184 -2.4436 -0.5366 0
M  V30 18 H -2.8715 -1.8502 -1.6431 0
M  V30 END ATOM
M  V30 BEGIN BOND
M  V30 1 1 1 2
M  V30 2 1 2 3
M  V30 3 2 2 4
M  V30 4 1 3 5
M  V30 5 2 3 6
M  V30 6 1 4 7
M  V30 7 2 5 8
M  V30 8 1 5 9
M  V30 9 1 6 10
M  V30 10 1 8 11
M  V30 11 1 9 12
M  V30 12 2 7 9
M  V30 13 2 10 11
M  V30 14 1 4 13
M  V30 15 1 6 14
M  V30 16 1 7 15
M  V30 17 1 10 16
M  V30 18 1 11 17
M  V30 19 1 12 18
M  V30 END BOND
M  V30 END CTAB
M  END
>  <Structure No>
3580

>  <LogS>
-3.9756

>  <MMFF94 Energy>
53.283

$$$$
Compound 3581
Actelion Java MolfileCreator 2.0

  0  0  0  0  0  0              0 V3000
M  V30 BEGIN CTAB
M  V30 COUNTS 32 33 0 0 0
M  V30 BEGIN ATOM
M  V30 1 O -4.5837 2.208 1.2262 0
M  V30 2 N -3.3461 2.0709 1.3205 0 CHG=1
M  V30 3 O -2.6379 3.004 2.0424 0 CHG=-1
M  V30 4 C -2.6911 0.9263 0.7326 0
M  V30 5 C -1.2872 0.8813 0.5826 0
M  V30 6 C -3.4604 -0.1657 0.2945 0
M  V30 7 O -0.5153 1.9693 0.9778 0 CHG=-1
M  V30 8 C -0.6633 -0.2552 0.0164 0
M  V30 9 C -2.8585 -1.296 -0.2753 0
M  V30 10 C -1.4623 -1.3311 -0.4074 0
M  V30 11 C 0.8488 -0.3514 -0.1539 0
M  V30 12 N -3.6654 -2.4055 -0.7152 0 CHG=1
M  V30 13 C 1.3935 0.7018 -1.1559 0
M  V30 14 C 1.5879 -0.305 1.1991 0
M  V30 15 O -3.137 -3.4172 -1.2215 0
M  V30 16 O -5.0353 -2.3698 -0.5862 0 CHG=-1
M  V30 17 C 2.8536 1.1071 -0.8743 0
M  V30 18 C 3.0968 -0.5749 1.0268 0
M  V30 19 C 3.6659 -0.0655 -0.3144 0
M  V30 20 H -4.5364 -0.1377 0.4067 0
M  V30 21 H -0.9938 -2.2035 -0.8454 0
M  V30 22 H 1.0915 -1.3486 -0.5886 0
M  V30 23 H 1.3287 0.2772 -2.182 0
M  V30 24 H 0.775 1.6237 -1.1599 0
M  V30 25 H 1.4625 0.6905 1.6731 0
M  V30 26 H 1.159 -1.0624 1.8915 0
M  V30 27 H 2.8725 1.9439 -0.1414 0
M  V30 28 H 3.3241 1.4719 -1.8129 0
M  V30 29 H 3.2852 -1.6683 1.1003 0
M  V30 30 H 3.6422 -0.0909 1.8664 0
M  V30 31 H 3.66 -0.8929 -1.0579 0
M  V30 32 H 4.7227 0.2489 -0.1734 0
M  V30 END ATOM
M  V30 BEGIN BOND
M  V30 1 2 1 2
M  V30 2 1 2 3
M  V30 3 1 2 4
M  V30 4 2 4 5
M  V30 5 1 4 6
M  V30 6 1 5 7
M  V30 7 1 5 8
M  V30 8 2 6 9
M  V30 9 2 8 10
M  V30 10 1 8 11
M  V30 11 1 9 12
M  V30 12 1 11 13
M  V30 13 1 11 14
M  V30 14 2 12 15
M  V30 15 1 12 16
M  V30 16 1 13 17
M  V30 17 1 14 18
M  V30 18 1 17 19
M  V30 19 1 9 10
M  V30 20 1 18 19
M  V30 21 1 6 20
M  V30 22 1 10 21
M  V30 23 1 11 22
M  V30 24 1 13 23
M  V30 25 1 13 24
M  V30 26 1 14 25
M  V30 27 1 14 26
M  V30 28 1 17 27
M  V30 29 1 17 28
M  V30 30 1 18 29
M  V30 31 1 18 30
M  V30 32 1 19 31
M  V30 33 1 19 32
M  V30 END BOND
M  V30 END CTAB
M  END
>  <Structure No>
3581

>  <LogS>
-4.2492

>  <MMFF94 Energy>
91.706

$$$$
Compound 3582
Actelion Java MolfileCreator 2.0

  0  0  0  0  0  0              0 V3000
M  V30 BEGIN CTAB
M  V30 COUNTS 29 31 0 0 0
M  V30 BEGIN ATOM
M  V30 1 O -1.7033 -3.734 -0.2432 0
M  V30 2 C -2.1736 -2.6412 -0.6575 0
M  V30 3 O -3.2726 -2.6584 -1.5078 0 CHG=-1
M  V30 4 C -1.5103 -1.3652 -0.3016 0
M  V30 5 C -2.2266 -0.1717 -0.0295 0
M  V30 6 C -0.1061 -1.3378 -0.2745 0
M  V30 7 C -1.4929 1.0186 0.2017 0
M  V30 8 C -3.6351 -0.1225 0.0572 0
M  V30 9 C 0.5781 -0.1393 -0.0171 0
M  V30 10 N -0.1357 0.9975 0.1968 0
M  V30 11 C -2.1592 2.2232 0.4551 0
M  V30 12 C -4.2879 1.0865 0.3156 0
M  V30 13 C 2.0622 -0.0761 -0.0022 0
M  V30 14 C -3.5531 2.2572 0.5053 0
M  V30 15 C 2.716 1.118 -0.3609 0
M  V30 16 C 2.8403 -1.1831 0.3923 0
M  V30 17 C 4.1119 1.196 -0.3444 0
M  V30 18 C 4.2361 -1.0984 0.4077 0
M  V30 19 C 4.8713 0.0884 0.0371 0
M  V30 20 H 0.4472 -2.2392 -0.5063 0
M  V30 21 H -4.2436 -1.0085 -0.0434 0
M  V30 22 H -1.5964 3.1333 0.6231 0
M  V30 23 H -5.3683 1.1137 0.3772 0
M  V30 24 H -4.0643 3.19 0.7063 0
M  V30 25 H 2.1482 1.9883 -0.6661 0
M  V30 26 H 2.3761 -2.1061 0.713 0
M  V30 27 H 4.605 2.1168 -0.6285 0
M  V30 28 H 4.8257 -1.9529 0.7139 0
M  V30 29 H 5.9516 0.1513 0.0506 0
M  V30 END ATOM
M  V30 BEGIN BOND
M  V30 1 2 1 2
M  V30 2 1 2 3
M  V30 3 1 2 4
M  V30 4 1 4 5
M  V30 5 2 4 6
M  V30 6 1 5 7
M  V30 7 2 5 8
M  V30 8 1 6 9
M  V30 9 1 7 10
M  V30 10 2 7 11
M  V30 11 1 8 12
M  V30 12 1 9 13
M  V30 13 1 11 14
M  V30 14 2 13 15
M  V30 15 1 13 16
M  V30 16 1 15 17
M  V30 17 2 16 18
M  V30 18 2 17 19
M  V30 19 2 9 10
M  V30 20 2 12 14
M  V30 21 1 18 19
M  V30 22 1 6 20
M  V30 23 1 8 21
M  V30 24 1 11 22
M  V30 25 1 12 23
M  V30 26 1 14 24
M  V30 27 1 15 25
M  V30 28 1 16 26
M  V30 29 1 17 27
M  V30 30 1 18 28
M  V30 31 1 19 29
M  V30 END BOND
M  V30 END CTAB
M  END
>  <Structure No>
3582

>  <LogS>
-3.1926

>  <MMFF94 Energy>
63.675

$$$$
Compound 3583
Actelion Java MolfileCreator 2.0

  0  0  0  0  0  0              0 V3000
M  V30 BEGIN CTAB
M  V30 COUNTS 34 36 0 0 0
M  V30 BEGIN ATOM
M  V30 1 O 2.9129 -0.7276 2.9129 0
M  V30 2 C 2.6733 -0.9119 1.69 0
M  V30 3 O 1.9056 -2.0072 1.3131 0 CHG=-1
M  V30 4 C 3.2514 -0.0035 0.6707 0
M  V30 5 C 2.6403 0.2153 -0.5939 0
M  V30 6 C 4.4874 0.6117 0.9465 0
M  V30 7 C 1.2877 -0.285 -0.9244 0
M  V30 8 C 3.3125 0.9868 -1.5585 0
M  V30 9 C 5.1272 1.3926 -0.0169 0
M  V30 10 O 1.0752 -0.788 -2.0615 0
M  V30 11 N 0.2037 -0.1201 0.0035 0
M  V30 12 C 4.5463 1.5704 -1.2704 0
M  V30 13 C -1.0768 -0.753 -0.1673 0
M  V30 14 C -2.2822 -0.0465 0.0718 0
M  V30 15 C -1.1344 -2.1127 -0.5181 0
M  V30 16 C -3.5244 -0.7271 -0.0441 0
M  V30 17 C -2.2885 1.3258 0.397 0
M  V30 18 C -2.3595 -2.7685 -0.635 0
M  V30 19 C -3.5494 -2.0832 -0.3971 0
M  V30 20 C -4.7257 -0.0396 0.1895 0
M  V30 21 C -3.4936 1.995 0.6251 0
M  V30 22 C -4.7071 1.3145 0.5257 0
M  V30 23 H 4.9763 0.4635 1.9016 0
M  V30 24 H 2.8653 1.1633 -2.5294 0
M  V30 25 H 6.0824 1.8505 0.2055 0
M  V30 26 H 0.3508 0.5023 0.8293 0
M  V30 27 H 5.0476 2.1719 -2.0175 0
M  V30 28 H -0.2236 -2.6749 -0.6784 0
M  V30 29 H -1.3725 1.8964 0.4634 0
M  V30 30 H -2.3859 -3.817 -0.902 0
M  V30 31 H -4.49 -2.6133 -0.4898 0
M  V30 32 H -5.6788 -0.5488 0.1087 0
M  V30 33 H -3.4865 3.0482 0.8753 0
M  V30 34 H -5.6367 1.8399 0.7029 0
M  V30 END ATOM
M  V30 BEGIN BOND
M  V30 1 2 1 2
M  V30 2 1 2 3
M  V30 3 1 2 4
M  V30 4 2 4 5
M  V30 5 1 4 6
M  V30 6 1 5 7
M  V30 7 1 5 8
M  V30 8 2 6 9
M  V30 9 2 7 10
M  V30 10 1 7 11
M  V30 11 2 8 12
M  V30 12 1 11 13
M  V30 13 1 13 14
M  V30 14 2 13 15
M  V30 15 1 14 16
M  V30 16 2 14 17
M  V30 17 1 15 18
M  V30 18 1 16 19
M  V30 19 2 16 20
M  V30 20 1 17 21
M  V30 21 1 20 22
M  V30 22 1 9 12
M  V30 23 2 18 19
M  V30 24 2 21 22
M  V30 25 1 6 23
M  V30 26 1 8 24
M  V30 27 1 9 25
M  V30 28 1 11 26
M  V30 29 1 12 27
M  V30 30 1 15 28
M  V30 31 1 17 29
M  V30 32 1 18 30
M  V30 33 1 19 31
M  V30 34 1 20 32
M  V30 35 1 21 33
M  V30 36 1 22 34
M  V30 END BOND
M  V30 END CTAB
M  END
>  <Structure No>
3583

>  <LogS>
-3.1633

>  <MMFF94 Energy>
49.172

$$$$
Compound 3584
Actelion Java MolfileCreator 2.0

  0  0  0  0  0  0              0 V3000
M  V30 BEGIN CTAB
M  V30 COUNTS 20 21 0 0 0
M  V30 BEGIN ATOM
M  V30 1 O -0.7963 2.3904 1.4337 0
M  V30 2 C -0.8544 1.1863 0.7252 0
M  V30 3 C 0.2999 0.4908 0.2757 0
M  V30 4 C -2.125 0.6625 0.4592 0
M  V30 5 C 0.1344 -0.7287 -0.4383 0
M  V30 6 C 1.6105 0.962 0.5092 0
M  V30 7 C -2.2767 -0.5366 -0.2432 0
M  V30 8 C -1.1513 -1.2281 -0.6893 0
M  V30 9 C 1.2583 -1.4362 -0.8939 0
M  V30 10 C 2.717 0.2438 0.0479 0
M  V30 11 O -3.5454 -1.0504 -0.5033 0
M  V30 12 C 2.5421 -0.9497 -0.6504 0
M  V30 13 H 0.0567 2.8671 1.686 0
M  V30 14 H -3.0029 1.1955 0.8034 0
M  V30 15 H 1.8085 1.8777 1.0429 0
M  V30 16 H -1.2839 -2.1567 -1.2328 0
M  V30 17 H 1.1431 -2.3661 -1.4386 0
M  V30 18 H 3.7165 0.6159 0.2336 0
M  V30 19 H -4.3844 -0.5737 -0.1935 0
M  V30 20 H 3.4046 -1.4998 -1.0042 0
M  V30 END ATOM
M  V30 BEGIN BOND
M  V30 1 1 1 2
M  V30 2 1 2 3
M  V30 3 2 2 4
M  V30 4 1 3 5
M  V30 5 2 3 6
M  V30 6 1 4 7
M  V30 7 1 5 8
M  V30 8 2 5 9
M  V30 9 1 6 10
M  V30 10 1 7 11
M  V30 11 1 9 12
M  V30 12 2 7 8
M  V30 13 2 10 12
M  V30 14 1 1 13
M  V30 15 1 4 14
M  V30 16 1 6 15
M  V30 17 1 8 16
M  V30 18 1 9 17
M  V30 19 1 10 18
M  V30 20 1 11 19
M  V30 21 1 12 20
M  V30 END BOND
M  V30 END CTAB
M  END
>  <Structure No>
3584

>  <LogS>
-1.9493

>  <MMFF94 Energy>
19.418

$$$$
Compound 3585
Actelion Java MolfileCreator 2.0

  0  0  0  0  0  0              0 V3000
M  V30 BEGIN CTAB
M  V30 COUNTS 24 25 0 0 0
M  V30 BEGIN ATOM
M  V30 1 Cl 3.8695 -0.7906 1.1421 0
M  V30 2 C 4.0911 0.1928 -0.326 0
M  V30 3 Cl 5.7985 0.677 -0.4241 0
M  V30 4 Cl 3.7001 -0.7825 -1.7638 0
M  V30 5 S 3.0635 1.7044 -0.2606 0
M  V30 6 N 1.5141 0.85 -0.1822 0
M  V30 7 C 0.623 0.6224 -1.2689 0
M  V30 8 C 0.7639 0.5698 0.9942 0
M  V30 9 O 0.937 0.7893 -2.4769 0
M  V30 10 C -0.7595 0.3666 -0.7731 0 CFG=2
M  V30 11 O 1.1702 0.812 2.1614 0
M  V30 12 C -0.5019 -0.1336 0.6505 0 CFG=2
M  V30 13 C -1.6773 -0.6302 -1.4748 0
M  V30 14 C -1.7721 0.0738 1.4706 0
M  V30 15 C -2.9115 -0.8521 -0.6033 0
M  V30 16 C -2.9403 -0.5726 0.7295 0
M  V30 17 H -1.2709 1.358 -0.7495 0
M  V30 18 H -0.2619 -1.2232 0.6433 0
M  V30 19 H -1.9863 -0.2247 -2.4615 0
M  V30 20 H -1.1555 -1.5986 -1.6326 0
M  V30 21 H -1.6557 -0.4002 2.4681 0
M  V30 22 H -1.9758 1.1575 1.6104 0
M  V30 23 H -3.7841 -1.3093 -1.0594 0
M  V30 24 H -3.8551 -0.7619 1.2826 0
M  V30 END ATOM
M  V30 BEGIN BOND
M  V30 1 1 1 2
M  V30 2 1 2 3
M  V30 3 1 2 4
M  V30 4 1 2 5
M  V30 5 1 5 6
M  V30 6 1 6 7
M  V30 7 1 6 8
M  V30 8 2 7 9
M  V30 9 1 7 10
M  V30 10 2 8 11
M  V30 11 1 8 12
M  V30 12 1 10 13
M  V30 13 1 12 14
M  V30 14 1 13 15
M  V30 15 1 14 16
M  V30 16 1 10 12
M  V30 17 2 15 16
M  V30 18 1 10 17
M  V30 19 1 12 18
M  V30 20 1 13 19
M  V30 21 1 13 20
M  V30 22 1 14 21
M  V30 23 1 14 22
M  V30 24 1 15 23
M  V30 25 1 16 24
M  V30 END BOND
M  V30 BEGIN COLLECTION
M  V30 MDLV30/STEABS ATOMS=(2 10 12)
M  V30 END COLLECTION
M  V30 END CTAB
M  END
>  <Structure No>
3585

>  <LogS>
-4.7704

>  <MMFF94 Energy>
-3.1129

$$$$
Compound 3586
Actelion Java MolfileCreator 2.0

  0  0  0  0  0  0              0 V3000
M  V30 BEGIN CTAB
M  V30 COUNTS 20 21 0 0 0
M  V30 BEGIN ATOM
M  V30 1 Cl 3.5699 1.4269 0.8024 0
M  V30 2 C 3.8199 0.2751 -0.5326 0
M  V30 3 Cl 3.1985 0.9724 -2.049 0
M  V30 4 Cl 5.5661 -6.0E-4 -0.7159 0
M  V30 5 S 3.0152 -1.3268 -0.1723 0
M  V30 6 N 1.3749 -0.6683 -0.0636 0
M  V30 7 C 0.6668 -0.3435 1.1324 0
M  V30 8 C 0.3781 -0.6969 -1.0848 0
M  V30 9 O 1.1896 -0.2995 2.2772 0
M  V30 10 C -0.7426 -0.121 0.8293 0
M  V30 11 O 0.5961 -1.0261 -2.2806 0
M  V30 12 C -0.9185 -0.3364 -0.5222 0
M  V30 13 C -1.8089 0.2239 1.6578 0
M  V30 14 C -2.1709 -0.2192 -1.1225 0
M  V30 15 C -3.0823 0.3538 1.0747 0
M  V30 16 C -3.2623 0.1333 -0.3083 0
M  V30 17 H -1.663 0.3863 2.7177 0
M  V30 18 H -2.3009 -0.3947 -2.1823 0
M  V30 19 H -3.9304 0.622 1.6912 0
M  V30 20 H -4.2475 0.2337 -0.7447 0
M  V30 END ATOM
M  V30 BEGIN BOND
M  V30 1 1 1 2
M  V30 2 1 2 3
M  V30 3 1 2 4
M  V30 4 1 2 5
M  V30 5 1 5 6
M  V30 6 1 6 7
M  V30 7 1 6 8
M  V30 8 2 7 9
M  V30 9 1 7 10
M  V30 10 2 8 11
M  V30 11 1 8 12
M  V30 12 1 10 13
M  V30 13 1 12 14
M  V30 14 2 13 15
M  V30 15 2 14 16
M  V30 16 2 10 12
M  V30 17 1 15 16
M  V30 18 1 13 17
M  V30 19 1 14 18
M  V30 20 1 15 19
M  V30 21 1 16 20
M  V30 END BOND
M  V30 END CTAB
M  END
>  <Structure No>
3586

>  <LogS>
-5.569

>  <MMFF94 Energy>
30.093

$$$$
Compound 3587
Actelion Java MolfileCreator 2.0

  0  0  0  0  0  0              0 V3000
M  V30 BEGIN CTAB
M  V30 COUNTS 27 28 0 0 0
M  V30 BEGIN ATOM
M  V30 1 O 4.7897 0.9565 -1.5148 0
M  V30 2 C 3.7186 1.2082 -0.9024 0
M  V30 3 O 3.3777 2.526 -0.6247 0 CHG=-1
M  V30 4 C 2.7903 0.099 -0.5216 0
M  V30 5 C 1.7679 -0.1502 -1.6375 0
M  V30 6 C 0.8365 -1.3281 -1.3203 0
M  V30 7 C -0.0775 -1.0252 -0.1682 0
M  V30 8 C -1.204 -0.2263 -0.174 0
M  V30 9 C 0.0842 -1.4387 1.1509 0
M  V30 10 C -1.6759 -0.1964 1.1133 0
M  V30 11 C -1.8329 0.4736 -1.2039 0
M  V30 12 N -0.8997 -0.9317 1.9284 0
M  V30 13 C -2.8116 0.5344 1.4599 0
M  V30 14 C -2.9822 1.219 -0.8836 0
M  V30 15 C -3.4696 1.249 0.4421 0
M  V30 16 H 2.2686 0.3784 0.4184 0
M  V30 17 H 3.3777 -0.8258 -0.3318 0
M  V30 18 H 2.3102 -0.3815 -2.5805 0
M  V30 19 H 1.1654 0.7689 -1.81 0
M  V30 20 H 0.219 -1.5511 -2.2167 0
M  V30 21 H 1.4368 -2.237 -1.0982 0
M  V30 22 H 0.8845 -2.0656 1.5218 0
M  V30 23 H -1.453 0.4474 -2.2168 0
M  V30 24 H -1.0216 -1.0757 2.9555 0
M  V30 25 H -3.1753 0.5542 2.4792 0
M  V30 26 H -3.4958 1.7738 -1.6578 0
M  V30 27 H -4.3541 1.8268 0.677 0
M  V30 END ATOM
M  V30 BEGIN BOND
M  V30 1 2 1 2
M  V30 2 1 2 3
M  V30 3 1 2 4
M  V30 4 1 4 5
M  V30 5 1 5 6
M  V30 6 1 6 7
M  V30 7 1 7 8
M  V30 8 2 7 9
M  V30 9 2 8 10
M  V30 10 1 8 11
M  V30 11 1 9 12
M  V30 12 1 10 13
M  V30 13 2 11 14
M  V30 14 2 13 15
M  V30 15 1 10 12
M  V30 16 1 14 15
M  V30 17 1 4 16
M  V30 18 1 4 17
M  V30 19 1 5 18
M  V30 20 1 5 19
M  V30 21 1 6 20
M  V30 22 1 6 21
M  V30 23 1 9 22
M  V30 24 1 11 23
M  V30 25 1 12 24
M  V30 26 1 13 25
M  V30 27 1 14 26
M  V30 28 1 15 27
M  V30 END BOND
M  V30 END CTAB
M  END
>  <Structure No>
3587

>  <LogS>
-2.9101

>  <MMFF94 Energy>
19.617

$$$$
Compound 3588
Actelion Java MolfileCreator 2.0

  0  0  0  0  0  0              0 V3000
M  V30 BEGIN CTAB
M  V30 COUNTS 19 19 0 0 0
M  V30 BEGIN ATOM
M  V30 1 Cl -2.7329 1.8213 -0.4137 0
M  V30 2 C -1.1891 0.9743 -0.2575 0
M  V30 3 C 0.0093 1.7139 -0.2721 0
M  V30 4 C -1.1492 -0.4319 -0.0972 0
M  V30 5 O 0.0197 3.0996 -0.4456 0
M  V30 6 C 1.2311 1.0635 -0.1069 0
M  V30 7 C 0.0967 -1.0724 0.1103 0
M  V30 8 C -2.4313 -1.2326 -0.0679 0
M  V30 9 C 1.2893 -0.3209 0.0904 0
M  V30 10 Cl 0.1759 -2.8137 0.4205 0
M  V30 11 C 2.6259 -0.9832 0.2943 0
M  V30 12 H -0.8203 3.6479 -0.5775 0
M  V30 13 H 2.1416 1.6506 -0.1207 0
M  V30 14 H -2.8104 -1.2875 0.9738 0
M  V30 15 H -2.2802 -2.2601 -0.4562 0
M  V30 16 H -3.2099 -0.7822 -0.7163 0
M  V30 17 H 2.7765 -1.7711 -0.4733 0
M  V30 18 H 2.6665 -1.4418 1.3047 0
M  V30 19 H 3.4629 -0.2576 0.2095 0
M  V30 END ATOM
M  V30 BEGIN BOND
M  V30 1 1 1 2
M  V30 2 2 2 3
M  V30 3 1 2 4
M  V30 4 1 3 5
M  V30 5 1 3 6
M  V30 6 2 4 7
M  V30 7 1 4 8
M  V30 8 2 6 9
M  V30 9 1 7 10
M  V30 10 1 9 11
M  V30 11 1 7 9
M  V30 12 1 5 12
M  V30 13 1 6 13
M  V30 14 1 8 14
M  V30 15 1 8 15
M  V30 16 1 8 16
M  V30 17 1 11 17
M  V30 18 1 11 18
M  V30 19 1 11 19
M  V30 END BOND
M  V30 END CTAB
M  END
>  <Structure No>
3588

>  <LogS>
-2.9801

>  <MMFF94 Energy>
27.097

$$$$
Compound 3589
Actelion Java MolfileCreator 2.0

  0  0  0  0  0  0              0 V3000
M  V30 BEGIN CTAB
M  V30 COUNTS 31 32 0 0 0
M  V30 BEGIN ATOM
M  V30 1 O 1.2813 -2.0827 0.6405 0
M  V30 2 C 0.3849 -1.4014 0.0707 0
M  V30 3 O 0.7102 -0.1935 -0.5603 0
M  V30 4 C -0.9983 -1.9221 -0.0079 0
M  V30 5 C 1.8156 0.6112 -0.2495 0
M  V30 6 C -2.1096 -1.0588 -0.1811 0
M  V30 7 C -1.216 -3.3119 0.0398 0
M  V30 8 C 2.4052 0.618 1.0294 0
M  V30 9 C 2.3122 1.4726 -1.2359 0
M  V30 10 O -1.9813 0.3353 -0.1605 0
M  V30 11 C -3.3857 -1.601 -0.3775 0
M  V30 12 C -2.5002 -3.8359 -0.1256 0
M  V30 13 C 3.4913 1.4569 1.2985 0
M  V30 14 C 3.3989 2.3093 -0.9641 0
M  V30 15 C -1.4719 1.0423 0.9351 0
M  V30 16 C -3.5815 -2.9825 -0.3453 0
M  V30 17 C 3.9905 2.2989 0.3015 0
M  V30 18 O -1.2758 0.4663 2.0399 0
M  V30 19 C -1.2079 2.5037 0.8087 0
M  V30 20 H -0.388 -3.9963 0.1768 0
M  V30 21 H 2.0114 0.0035 1.8273 0
M  V30 22 H 1.8557 1.4902 -2.2174 0
M  V30 23 H -4.2337 -0.9451 -0.5294 0
M  V30 24 H -2.6547 -4.9068 -0.0978 0
M  V30 25 H 3.9401 1.461 2.2835 0
M  V30 26 H 3.7804 2.9675 -1.7338 0
M  V30 27 H -4.574 -3.3917 -0.4835 0
M  V30 28 H 4.8299 2.9489 0.5121 0
M  V30 29 H -0.296 2.7756 1.3811 0
M  V30 30 H -2.0748 3.0728 1.2036 0
M  V30 31 H -1.0509 2.7686 -0.2577 0
M  V30 END ATOM
M  V30 BEGIN BOND
M  V30 1 2 1 2
M  V30 2 1 2 3
M  V30 3 1 2 4
M  V30 4 1 3 5
M  V30 5 2 4 6
M  V30 6 1 4 7
M  V30 7 2 5 8
M  V30 8 1 5 9
M  V30 9 1 6 10
M  V30 10 1 6 11
M  V30 11 2 7 12
M  V30 12 1 8 13
M  V30 13 2 9 14
M  V30 14 1 10 15
M  V30 15 2 11 16
M  V30 16 2 13 17
M  V30 17 2 15 18
M  V30 18 1 15 19
M  V30 19 1 12 16
M  V30 20 1 14 17
M  V30 21 1 7 20
M  V30 22 1 8 21
M  V30 23 1 9 22
M  V30 24 1 11 23
M  V30 25 1 12 24
M  V30 26 1 13 25
M  V30 27 1 14 26
M  V30 28 1 16 27
M  V30 29 1 17 28
M  V30 30 1 19 29
M  V30 31 1 19 30
M  V30 32 1 19 31
M  V30 END BOND
M  V30 END CTAB
M  END
>  <Structure No>
3589

>  <LogS>
-4.1077

>  <MMFF94 Energy>
70.555

$$$$
Compound 3590
Actelion Java MolfileCreator 2.0

  0  0  0  0  0  0              0 V3000
M  V30 BEGIN CTAB
M  V30 COUNTS 24 25 0 0 0
M  V30 BEGIN ATOM
M  V30 1 Cl 5.7351 -0.5643 0.1612 0
M  V30 2 C 3.9909 -0.395 0.0803 0
M  V30 3 C 3.3646 0.6967 0.6884 0
M  V30 4 C 3.2252 -1.3517 -0.592 0
M  V30 5 C 1.9746 0.8337 0.6247 0
M  V30 6 C 1.8348 -1.2191 -0.6572 0
M  V30 7 C 1.193 -0.1234 -0.0492 0
M  V30 8 C -0.2839 0.0197 -0.1176 0
M  V30 9 C -1.1193 -1.1031 0.0279 0
M  V30 10 C -0.8715 1.2808 -0.3291 0
M  V30 11 C -2.5092 -0.9667 -0.036 0
M  V30 12 C -2.2617 1.4142 -0.3938 0
M  V30 13 C -3.087 0.2918 -0.2474 0
M  V30 14 N -4.5089 0.4299 -0.3132 0
M  V30 15 H 3.9531 1.4381 1.2137 0
M  V30 16 H 3.7062 -2.197 -1.0676 0
M  V30 17 H 1.5098 1.6785 1.1177 0
M  V30 18 H 1.2638 -1.9633 -1.1981 0
M  V30 19 H -0.6987 -2.0841 0.2094 0
M  V30 20 H -0.2558 2.1615 -0.4623 0
M  V30 21 H -3.136 -1.8418 0.0824 0
M  V30 22 H -2.6954 2.3922 -0.5614 0
M  V30 23 H -5.1322 -0.4011 -0.2053 0
M  V30 24 H -4.9488 1.3642 -0.4702 0
M  V30 END ATOM
M  V30 BEGIN BOND
M  V30 1 1 1 2
M  V30 2 2 2 3
M  V30 3 1 2 4
M  V30 4 1 3 5
M  V30 5 2 4 6
M  V30 6 2 5 7
M  V30 7 1 7 8
M  V30 8 2 8 9
M  V30 9 1 8 10
M  V30 10 1 9 11
M  V30 11 2 10 12
M  V30 12 2 11 13
M  V30 13 1 13 14
M  V30 14 1 6 7
M  V30 15 1 12 13
M  V30 16 1 3 15
M  V30 17 1 4 16
M  V30 18 1 5 17
M  V30 19 1 6 18
M  V30 20 1 9 19
M  V30 21 1 10 20
M  V30 22 1 11 21
M  V30 23 1 12 22
M  V30 24 1 14 23
M  V30 25 1 14 24
M  V30 END BOND
M  V30 END CTAB
M  END
>  <Structure No>
3590

>  <LogS>
-4.6383

>  <MMFF94 Energy>
28.35

$$$$
Compound 3591
Actelion Java MolfileCreator 2.0

  0  0  0  0  0  0              0 V3000
M  V30 BEGIN CTAB
M  V30 COUNTS 26 27 0 0 0
M  V30 BEGIN ATOM
M  V30 1 N 0.2376 -1.5059 0.3961 0
M  V30 2 N 0.634 -0.3901 -0.07 0
M  V30 3 N -1.1251 -1.851 0.4362 0
M  V30 4 C 2.0191 -0.0283 -0.1118 0
M  V30 5 C -2.1912 -0.912 0.2146 0
M  V30 6 C 2.3776 1.2216 -0.6333 0
M  V30 7 C 3.0245 -0.8946 0.3578 0
M  V30 8 C -3.3619 -1.3385 -0.4315 0
M  V30 9 C -2.1127 0.4099 0.6897 0
M  V30 10 C 3.7213 1.6053 -0.6871 0
M  V30 11 C 4.3673 -0.5073 0.3021 0
M  V30 12 C -4.4207 -0.4484 -0.637 0
M  V30 13 C -3.174 1.297 0.483 0
M  V30 14 C 4.7154 0.7414 -0.2197 0
M  V30 15 C -4.325 0.8698 -0.1839 0
M  V30 16 H -1.3668 -2.8592 0.5619 0
M  V30 17 H 1.6137 1.8975 -0.997 0
M  V30 18 H 2.7738 -1.8653 0.7655 0
M  V30 19 H -3.448 -2.3583 -0.7849 0
M  V30 20 H -1.2471 0.7501 1.2421 0
M  V30 21 H 3.9916 2.5723 -1.0909 0
M  V30 22 H 5.138 -1.1755 0.664 0
M  V30 23 H -5.3162 -0.7814 -1.1454 0
M  V30 24 H -3.1079 2.3135 0.8488 0
M  V30 25 H 5.755 1.0396 -0.262 0
M  V30 26 H -5.146 1.5572 -0.3414 0
M  V30 END ATOM
M  V30 BEGIN BOND
M  V30 1 2 1 2
M  V30 2 1 1 3
M  V30 3 1 2 4
M  V30 4 1 3 5
M  V30 5 2 4 6
M  V30 6 1 4 7
M  V30 7 2 5 8
M  V30 8 1 5 9
M  V30 9 1 6 10
M  V30 10 2 7 11
M  V30 11 1 8 12
M  V30 12 2 9 13
M  V30 13 2 10 14
M  V30 14 2 12 15
M  V30 15 1 11 14
M  V30 16 1 13 15
M  V30 17 1 3 16
M  V30 18 1 6 17
M  V30 19 1 7 18
M  V30 20 1 8 19
M  V30 21 1 9 20
M  V30 22 1 10 21
M  V30 23 1 11 22
M  V30 24 1 12 23
M  V30 25 1 13 24
M  V30 26 1 14 25
M  V30 27 1 15 26
M  V30 END BOND
M  V30 END CTAB
M  END
>  <Structure No>
3591

>  <LogS>
-2.596

>  <MMFF94 Energy>
29.923

$$$$
Compound 3592
Actelion Java MolfileCreator 2.0

  0  0  0  0  0  0              0 V3000
M  V30 BEGIN CTAB
M  V30 COUNTS 23 23 0 0 0
M  V30 BEGIN ATOM
M  V30 1 O -4.0479 2.1414 0.5548 0
M  V30 2 N -3.5989 1.07 1.0125 0 CHG=1
M  V30 3 O -4.351 0.3763 1.9329 0 CHG=-1
M  V30 4 C -2.3184 0.5689 0.5867 0
M  V30 5 C -1.8185 -0.6366 1.1048 0
M  V30 6 C -1.5493 1.2743 -0.3528 0
M  V30 7 C -0.5716 -1.1333 0.6966 0
M  V30 8 C -0.3075 0.7867 -0.7646 0
M  V30 9 N -0.0912 -2.3663 1.2457 0
M  V30 10 C 0.1967 -0.4197 -0.2425 0
M  V30 11 O 1.4418 -0.9436 -0.6342 0
M  V30 12 C 2.3912 -0.2972 -1.4825 0
M  V30 13 C 3.1219 0.8102 -0.7311 0
M  V30 14 H -2.3971 -1.1958 1.8292 0
M  V30 15 H -1.9091 2.2053 -0.7719 0
M  V30 16 H 0.2473 1.3593 -1.4932 0
M  V30 17 H -0.66 -2.8965 1.9429 0
M  V30 18 H 0.8327 -2.7642 0.9669 0
M  V30 19 H 1.9033 0.0955 -2.3992 0
M  V30 20 H 3.1391 -1.0519 -1.8046 0
M  V30 21 H 3.6285 0.3889 0.1627 0
M  V30 22 H 3.8855 1.269 -1.3937 0
M  V30 23 H 2.4135 1.5991 -0.4053 0
M  V30 END ATOM
M  V30 BEGIN BOND
M  V30 1 2 1 2
M  V30 2 1 2 3
M  V30 3 1 2 4
M  V30 4 2 4 5
M  V30 5 1 4 6
M  V30 6 1 5 7
M  V30 7 2 6 8
M  V30 8 1 7 9
M  V30 9 2 7 10
M  V30 10 1 10 11
M  V30 11 1 11 12
M  V30 12 1 12 13
M  V30 13 1 8 10
M  V30 14 1 5 14
M  V30 15 1 6 15
M  V30 16 1 8 16
M  V30 17 1 9 17
M  V30 18 1 9 18
M  V30 19 1 12 19
M  V30 20 1 12 20
M  V30 21 1 13 21
M  V30 22 1 13 22
M  V30 23 1 13 23
M  V30 END BOND
M  V30 END CTAB
M  END
>  <Structure No>
3592

>  <LogS>
-3.2113

>  <MMFF94 Energy>
54.021

$$$$
Compound 3593
Actelion Java MolfileCreator 2.0

  0  0  0  0  0  0              0 V3000
M  V30 BEGIN CTAB
M  V30 COUNTS 23 23 0 0 0
M  V30 BEGIN ATOM
M  V30 1 N -2.4929 1.5575 -0.3113 0
M  V30 2 C -1.2917 0.7895 -0.1492 0
M  V30 3 C -1.3312 -0.5797 0.1942 0
M  V30 4 C -0.0536 1.4191 -0.3371 0
M  V30 5 C -0.1278 -1.2889 0.3373 0
M  V30 6 C -2.6385 -1.2948 0.409 0
M  V30 7 C 1.1499 0.7128 -0.1881 0
M  V30 8 C 1.1122 -0.66 0.143 0
M  V30 9 C 2.4578 1.4293 -0.4044 0
M  V30 10 C 2.3792 -1.4579 0.3115 0
M  V30 11 H -2.4446 2.5696 -0.5647 0
M  V30 12 H -3.4414 1.1419 -0.1851 0
M  V30 13 H -0.0315 2.47 -0.6007 0
M  V30 14 H -0.1565 -2.3396 0.6009 0
M  V30 15 H -2.4858 -2.3623 0.6756 0
M  V30 16 H -3.1991 -0.8127 1.2376 0
M  V30 17 H -3.2442 -1.2579 -0.5207 0
M  V30 18 H 3.1096 1.3084 0.4859 0
M  V30 19 H 2.9705 1.0118 -1.296 0
M  V30 20 H 2.3078 2.5176 -0.5693 0
M  V30 21 H 2.1673 -2.5348 0.4828 0
M  V30 22 H 3.004 -1.377 -0.6022 0
M  V30 23 H 2.9499 -1.0748 1.1832 0
M  V30 END ATOM
M  V30 BEGIN BOND
M  V30 1 1 1 2
M  V30 2 2 2 3
M  V30 3 1 2 4
M  V30 4 1 3 5
M  V30 5 1 3 6
M  V30 6 2 4 7
M  V30 7 2 5 8
M  V30 8 1 7 9
M  V30 9 1 8 10
M  V30 10 1 7 8
M  V30 11 1 1 11
M  V30 12 1 1 12
M  V30 13 1 4 13
M  V30 14 1 5 14
M  V30 15 1 6 15
M  V30 16 1 6 16
M  V30 17 1 6 17
M  V30 18 1 9 18
M  V30 19 1 9 19
M  V30 20 1 9 20
M  V30 21 1 10 21
M  V30 22 1 10 22
M  V30 23 1 10 23
M  V30 END BOND
M  V30 END CTAB
M  END
>  <Structure No>
3593

>  <LogS>
-1.9549

>  <MMFF94 Energy>
18.558

$$$$
Compound 3594
Actelion Java MolfileCreator 2.0

  0  0  0  0  0  0              0 V3000
M  V30 BEGIN CTAB
M  V30 COUNTS 18 17 0 0 0
M  V30 BEGIN ATOM
M  V30 1 O -1.5857 2.4587 0.3962 0
M  V30 2 C -1.4903 1.2188 0.5939 0
M  V30 3 O -1.7547 0.7081 1.8596 0 CHG=-1
M  V30 4 C -1.0409 0.3129 -0.525 0 CFG=2
M  V30 5 N -1.6271 -1.0283 -0.3953 0 CHG=1
M  V30 6 C 0.5009 0.265 -0.6326 0
M  V30 7 C 1.201 -0.3352 0.5969 0
M  V30 8 C 2.6867 -0.259 0.4373 0
M  V30 9 O 3.3115 -1.1917 -0.1329 0
M  V30 10 O 3.3762 0.8651 0.8738 0 CHG=-1
M  V30 11 H -1.4147 0.7543 -1.4772 0
M  V30 12 H -2.6692 -0.9607 -0.4606 0
M  V30 13 H -1.2908 -1.6404 -1.1738 0
M  V30 14 H -1.3777 -1.4679 0.5195 0
M  V30 15 H 0.7777 -0.3283 -1.532 0
M  V30 16 H 0.8756 1.3004 -0.7962 0
M  V30 17 H 0.9142 0.2207 1.5144 0
M  V30 18 H 0.9098 -1.399 0.7262 0
M  V30 END ATOM
M  V30 BEGIN BOND
M  V30 1 2 1 2
M  V30 2 1 2 3
M  V30 3 1 2 4
M  V30 4 1 4 5
M  V30 5 1 4 6
M  V30 6 1 6 7
M  V30 7 1 7 8
M  V30 8 2 8 9
M  V30 9 1 8 10
M  V30 10 1 4 11
M  V30 11 1 5 12
M  V30 12 1 5 13
M  V30 13 1 5 14
M  V30 14 1 6 15
M  V30 15 1 6 16
M  V30 16 1 7 17
M  V30 17 1 7 18
M  V30 END BOND
M  V30 BEGIN COLLECTION
M  V30 MDLV30/STEABS ATOMS=(1 4)
M  V30 END COLLECTION
M  V30 END CTAB
M  END
>  <Structure No>
3594

>  <LogS>
0.3159

>  <MMFF94 Energy>
-46.719

$$$$
Compound 3595
Actelion Java MolfileCreator 2.0

  0  0  0  0  0  0              0 V3000
M  V30 BEGIN CTAB
M  V30 COUNTS 24 23 0 0 0
M  V30 BEGIN ATOM
M  V30 1 O -2.0967 0.8538 2.2522 0
M  V30 2 C -1.8338 0.2135 1.1976 0
M  V30 3 O -0.5871 0.3449 0.5785 0
M  V30 4 C -2.868 -0.6985 0.6 0 CFG=2
M  V30 5 C 0.4427 1.184 1.0921 0
M  V30 6 O -2.398 -2.0225 0.5711 0
M  V30 7 C -3.266 -0.2295 -0.8023 0
M  V30 8 C 1.6773 1.1067 0.1942 0
M  V30 9 C 2.2891 -0.3001 0.1936 0
M  V30 10 C 3.5329 -0.3585 -0.6882 0
M  V30 11 H -3.7795 -0.6754 1.2368 0
M  V30 12 H 0.0819 2.2352 1.1199 0
M  V30 13 H 0.7063 0.8712 2.1264 0
M  V30 14 H -1.6095 -2.0523 -0.0324 0
M  V30 15 H -2.3874 -0.2297 -1.4825 0
M  V30 16 H -3.6861 0.798 -0.7564 0
M  V30 17 H -4.0398 -0.9085 -1.2192 0
M  V30 18 H 2.4305 1.837 0.563 0
M  V30 19 H 1.3921 1.3944 -0.8415 0
M  V30 20 H 2.5698 -0.5875 1.2304 0
M  V30 21 H 1.5466 -1.035 -0.1864 0
M  V30 22 H 3.2746 -0.0982 -1.7368 0
M  V30 23 H 4.3049 0.3472 -0.314 0
M  V30 24 H 3.9531 -1.3861 -0.6705 0
M  V30 END ATOM
M  V30 BEGIN BOND
M  V30 1 2 1 2
M  V30 2 1 2 3
M  V30 3 1 2 4
M  V30 4 1 3 5
M  V30 5 1 4 6
M  V30 6 1 4 7
M  V30 7 1 5 8
M  V30 8 1 8 9
M  V30 9 1 9 10
M  V30 10 1 4 11
M  V30 11 1 5 12
M  V30 12 1 5 13
M  V30 13 1 6 14
M  V30 14 1 7 15
M  V30 15 1 7 16
M  V30 16 1 7 17
M  V30 17 1 8 18
M  V30 18 1 8 19
M  V30 19 1 9 20
M  V30 20 1 9 21
M  V30 21 1 10 22
M  V30 22 1 10 23
M  V30 23 1 10 24
M  V30 END BOND
M  V30 BEGIN COLLECTION
M  V30 MDLV30/STEABS ATOMS=(1 4)
M  V30 END COLLECTION
M  V30 END CTAB
M  END
>  <Structure No>
3595

>  <LogS>
-0.5629

>  <MMFF94 Energy>
25.754

$$$$
Compound 3596
Actelion Java MolfileCreator 2.0

  0  0  0  0  0  0              0 V3000
M  V30 BEGIN CTAB
M  V30 COUNTS 19 19 0 0 0
M  V30 BEGIN ATOM
M  V30 1 S -2.983 -0.9107 0.1655 0
M  V30 2 O -2.9267 -2.0973 -0.7549 0
M  V30 3 O -4.0794 0.0073 -0.2971 0
M  V30 4 O -3.3107 -1.4294 1.7289 0 CHG=-1
M  V30 5 C -1.4408 -0.0621 0.1413 0
M  V30 6 C -0.2486 -0.7735 -0.0547 0
M  V30 7 C -1.396 1.3237 0.3408 0
M  V30 8 C 0.9868 -0.1065 -0.0663 0
M  V30 9 C -0.1707 1.9942 0.3325 0
M  V30 10 N 2.1958 -0.8556 -0.2709 0
M  V30 11 C 1.0166 1.286 0.1293 0
M  V30 12 N 3.4517 -0.228 -0.3225 0
M  V30 13 H -0.2803 -1.8465 -0.1974 0
M  V30 14 H -2.3071 1.8849 0.5054 0
M  V30 15 H -0.1409 3.0652 0.4866 0
M  V30 16 H 2.1424 -1.8973 -0.3532 0
M  V30 17 H 1.9538 1.8267 0.1313 0
M  V30 18 H 4.1792 -0.9762 -0.3852 0
M  V30 19 H 3.4939 0.3022 -1.2225 0
M  V30 END ATOM
M  V30 BEGIN BOND
M  V30 1 2 1 2
M  V30 2 2 1 3
M  V30 3 1 1 4
M  V30 4 1 1 5
M  V30 5 2 5 6
M  V30 6 1 5 7
M  V30 7 1 6 8
M  V30 8 2 7 9
M  V30 9 1 8 10
M  V30 10 2 8 11
M  V30 11 1 10 12
M  V30 12 1 9 11
M  V30 13 1 6 13
M  V30 14 1 7 14
M  V30 15 1 9 15
M  V30 16 1 10 16
M  V30 17 1 11 17
M  V30 18 1 12 18
M  V30 19 1 12 19
M  V30 END BOND
M  V30 END CTAB
M  END
>  <Structure No>
3596

>  <LogS>
-0.8275

>  <MMFF94 Energy>
67.757

$$$$
Compound 3597
Actelion Java MolfileCreator 2.0

  0  0  0  0  0  0              0 V3000
M  V30 BEGIN CTAB
M  V30 COUNTS 23 23 0 0 0
M  V30 BEGIN ATOM
M  V30 1 S 3.2272 -0.806 0.4029 0
M  V30 2 O 4.0493 -0.5902 -0.8366 0
M  V30 3 O 3.4488 -2.2112 0.8883 0
M  V30 4 N 3.7233 0.3108 1.6253 0
M  V30 5 C 1.5219 -0.5636 0.0371 0
M  V30 6 C 0.5409 -1.2582 0.7573 0
M  V30 7 C 1.1364 0.3495 -0.9534 0
M  V30 8 C -0.8137 -1.0549 0.4778 0
M  V30 9 C -0.2178 0.5537 -1.2338 0
M  V30 10 C -1.2019 -0.1576 -0.5295 0
M  V30 11 C -2.6622 0.0892 -0.8057 0
M  V30 12 N -3.171 1.1721 0.0346 0 CHG=1
M  V30 13 H 3.5135 1.2691 1.2659 0
M  V30 14 H 3.1012 0.1562 2.4502 0
M  V30 15 H 0.8231 -1.952 1.5389 0
M  V30 16 H 1.8826 0.9079 -1.5042 0
M  V30 17 H -1.56 -1.5941 1.0483 0
M  V30 18 H -0.4997 1.2682 -1.9974 0
M  V30 19 H -2.8073 0.3504 -1.8777 0
M  V30 20 H -3.2474 -0.8375 -0.6135 0
M  V30 21 H -3.0692 0.9204 1.0449 0
M  V30 22 H -2.6484 2.0563 -0.1638 0
M  V30 23 H -4.184 1.3225 -0.1764 0
M  V30 END ATOM
M  V30 BEGIN BOND
M  V30 1 2 1 2
M  V30 2 2 1 3
M  V30 3 1 1 4
M  V30 4 1 1 5
M  V30 5 2 5 6
M  V30 6 1 5 7
M  V30 7 1 6 8
M  V30 8 2 7 9
M  V30 9 2 8 10
M  V30 10 1 10 11
M  V30 11 1 11 12
M  V30 12 1 9 10
M  V30 13 1 4 13
M  V30 14 1 4 14
M  V30 15 1 6 15
M  V30 16 1 7 16
M  V30 17 1 8 17
M  V30 18 1 9 18
M  V30 19 1 11 19
M  V30 20 1 11 20
M  V30 21 1 12 21
M  V30 22 1 12 22
M  V30 23 1 12 23
M  V30 END BOND
M  V30 END CTAB
M  END
>  <Structure No>
3597

>  <LogS>
0.321

>  <MMFF94 Energy>
-61.796

$$$$
Compound 3598
Actelion Java MolfileCreator 2.0

  0  0  0  0  0  0              0 V3000
M  V30 BEGIN CTAB
M  V30 COUNTS 38 39 0 0 0
M  V30 BEGIN ATOM
M  V30 1 O -0.7964 0.0 0.876 0
M  V30 2 C -0.3648 -0.5037 -0.3762 0 CFG=1
M  V30 3 C -2.1731 0.3744 0.8666 0 CFG=2
M  V30 4 O 1.0538 -0.6626 -0.3566 0
M  V30 5 C -1.0102 -1.8857 -0.6443 0 CFG=2
M  V30 6 C -3.0931 -0.5563 0.0108 0 CFG=2
M  V30 7 C -2.3195 1.8701 0.5301 0
M  V30 8 C 1.9897 0.3742 -0.1996 0
M  V30 9 O -0.9657 -2.1965 -2.0159 0
M  V30 10 C -2.45 -1.9557 -0.0676 0 CFG=1
M  V30 11 O -3.2704 -0.0263 -1.2816 0
M  V30 12 O -3.6531 2.2819 0.6691 0
M  V30 13 C 3.3575 0.0429 -0.0988 0
M  V30 14 C 1.6031 1.728 -0.1367 0
M  V30 15 O -3.2595 -2.883 -0.7507 0
M  V30 16 C 4.3079 1.059 0.0974 0
M  V30 17 C 3.8 -1.3969 -0.1512 0
M  V30 18 C 2.5602 2.729 0.047 0
M  V30 19 C 3.9089 2.3952 0.1673 0
M  V30 20 O 3.4565 -2.0514 1.0391 0
M  V30 21 H -0.6242 0.2061 -1.1945 0
M  V30 22 H -2.5173 0.2611 1.9185 0
M  V30 23 H -0.4098 -2.6587 -0.1143 0
M  V30 24 H -4.0797 -0.6412 0.5279 0
M  V30 25 H -1.6605 2.4717 1.1975 0
M  V30 26 H -1.9935 2.0653 -0.5128 0
M  V30 27 H -1.4734 -1.4971 -2.5035 0
M  V30 28 H -2.3671 -2.3222 0.9805 0
M  V30 29 H -4.1941 -0.249 -1.569 0
M  V30 30 H -3.8165 2.3941 1.6421 0
M  V30 31 H 0.5674 2.0197 -0.2259 0
M  V30 32 H -3.449 -2.5262 -1.6557 0
M  V30 33 H 5.3588 0.8172 0.1966 0
M  V30 34 H 3.2956 -1.9087 -0.9978 0
M  V30 35 H 4.8964 -1.4784 -0.3333 0
M  V30 36 H 2.2542 3.7661 0.0989 0
M  V30 37 H 4.647 3.173 0.3158 0
M  V30 38 H 4.1044 -1.7486 1.7284 0
M  V30 END ATOM
M  V30 BEGIN BOND
M  V30 1 1 1 2
M  V30 2 1 1 3
M  V30 3 1 2 4
M  V30 4 1 2 5
M  V30 5 1 3 6
M  V30 6 1 3 7
M  V30 7 1 4 8
M  V30 8 1 5 9
M  V30 9 1 5 10
M  V30 10 1 6 11
M  V30 11 1 7 12
M  V30 12 2 8 13
M  V30 13 1 8 14
M  V30 14 1 10 15
M  V30 15 1 13 16
M  V30 16 1 13 17
M  V30 17 2 14 18
M  V30 18 2 16 19
M  V30 19 1 17 20
M  V30 20 1 6 10
M  V30 21 1 18 19
M  V30 22 1 2 21
M  V30 23 1 3 22
M  V30 24 1 5 23
M  V30 25 1 6 24
M  V30 26 1 7 25
M  V30 27 1 7 26
M  V30 28 1 9 27
M  V30 29 1 10 28
M  V30 30 1 11 29
M  V30 31 1 12 30
M  V30 32 1 14 31
M  V30 33 1 15 32
M  V30 34 1 16 33
M  V30 35 1 17 34
M  V30 36 1 17 35
M  V30 37 1 18 36
M  V30 38 1 19 37
M  V30 39 1 20 38
M  V30 END BOND
M  V30 BEGIN COLLECTION
M  V30 MDLV30/STEABS ATOMS=(5 2 3 5 6 10)
M  V30 END COLLECTION
M  V30 END CTAB
M  END
>  <Structure No>
3598

>  <LogS>
-0.8547

>  <MMFF94 Energy>
118.04

$$$$
Compound 3599
Actelion Java MolfileCreator 2.0

  0  0  0  0  0  0              0 V3000
M  V30 BEGIN CTAB
M  V30 COUNTS 19 18 0 0 0
M  V30 BEGIN ATOM
M  V30 1 O -0.9819 2.784 -0.409 0
M  V30 2 C 0.0269 2.1293 -0.7816 0
M  V30 3 O 0.4334 2.1913 -2.1085 0 CHG=-1
M  V30 4 C 0.7841 1.2764 0.2005 0
M  V30 5 N 0.1977 -0.0732 0.3877 0
M  V30 6 C -1.1721 -0.0095 0.9389 0
M  V30 7 C 0.2541 -0.9002 -0.8389 0
M  V30 8 C -1.4836 -1.2639 1.6937 0
M  V30 9 C 1.6636 -1.3 -1.1455 0
M  V30 10 O -2.394 -2.0367 1.2941 0
M  V30 11 O -0.7611 -1.5838 2.836 0 CHG=-1
M  V30 12 O 2.2707 -2.1046 -0.3911 0
M  V30 13 O 2.3144 -0.7675 -2.2512 0 CHG=-1
M  V30 14 H 0.8275 1.801 1.1801 0
M  V30 15 H 1.8395 1.1883 -0.1348 0
M  V30 16 H -1.9206 0.1529 0.1301 0
M  V30 17 H -1.2698 0.8327 1.6591 0
M  V30 18 H -0.3281 -1.8375 -0.7015 0
M  V30 19 H -0.1927 -0.37 -1.7073 0
M  V30 END ATOM
M  V30 BEGIN BOND
M  V30 1 2 1 2
M  V30 2 1 2 3
M  V30 3 1 2 4
M  V30 4 1 4 5
M  V30 5 1 5 6
M  V30 6 1 5 7
M  V30 7 1 6 8
M  V30 8 1 7 9
M  V30 9 2 8 10
M  V30 10 1 8 11
M  V30 11 2 9 12
M  V30 12 1 9 13
M  V30 13 1 4 14
M  V30 14 1 4 15
M  V30 15 1 6 16
M  V30 16 1 6 17
M  V30 17 1 7 18
M  V30 18 1 7 19
M  V30 END BOND
M  V30 END CTAB
M  END
>  <Structure No>
3599

>  <LogS>
-0.5101

>  <MMFF94 Energy>
398.76

$$$$
Compound 3600
Actelion Java MolfileCreator 2.0

  0  0  0  0  0  0              0 V3000
M  V30 BEGIN CTAB
M  V30 COUNTS 16 16 0 0 0
M  V30 BEGIN ATOM
M  V30 1 O 3.4129 -1.1102 -0.1585 0
M  V30 2 C 2.8062 -0.0063 -0.1766 0
M  V30 3 C 1.3356 0.056 -0.0904 0
M  V30 4 C 0.5633 -1.1136 0.0149 0
M  V30 5 C 0.6928 1.3025 -0.1134 0
M  V30 6 C -0.8322 -1.0394 0.096 0
M  V30 7 C -0.6998 1.3802 -0.0327 0
M  V30 8 O -1.5684 -2.2192 0.1996 0
M  V30 9 C -1.4685 0.2133 0.0722 0
M  V30 10 O -2.8577 0.2939 0.1526 0
M  V30 11 H 3.3826 0.9064 -0.2572 0
M  V30 12 H 1.0397 -2.0861 0.0345 0
M  V30 13 H 1.2688 2.2163 -0.194 0
M  V30 14 H -1.1816 2.3496 -0.0518 0
M  V30 15 H -2.5794 -2.2189 0.2611 0
M  V30 16 H -3.3393 1.1854 0.1374 0
M  V30 END ATOM
M  V30 BEGIN BOND
M  V30 1 2 1 2
M  V30 2 1 2 3
M  V30 3 2 3 4
M  V30 4 1 3 5
M  V30 5 1 4 6
M  V30 6 2 5 7
M  V30 7 1 6 8
M  V30 8 2 6 9
M  V30 9 1 9 10
M  V30 10 1 7 9
M  V30 11 1 2 11
M  V30 12 1 4 12
M  V30 13 1 5 13
M  V30 14 1 7 14
M  V30 15 1 8 15
M  V30 16 1 10 16
M  V30 END BOND
M  V30 END CTAB
M  END
>  <Structure No>
3600

>  <LogS>
-1.3402

>  <MMFF94 Energy>
24.369

$$$$
Compound 3601
Actelion Java MolfileCreator 2.0

  0  0  0  0  0  0              0 V3000
M  V30 BEGIN CTAB
M  V30 COUNTS 20 20 0 0 0
M  V30 BEGIN ATOM
M  V30 1 S 1.4597 -0.8918 1.5408 0
M  V30 2 C 0.8482 -0.6407 -0.006 0
M  V30 3 C 2.8265 0.0705 1.3553 0
M  V30 4 C 1.7103 0.2064 -0.6909 0
M  V30 5 C -0.4303 -1.2192 -0.5407 0
M  V30 6 C 2.8154 0.6022 0.072 0
M  V30 7 C -1.6479 -0.2843 -0.3696 0 CFG=1
M  V30 8 N -1.9205 0.0039 1.0452 0 CHG=1
M  V30 9 C -1.4835 0.9871 -1.1637 0
M  V30 10 O -1.8179 1.0165 -2.3774 0
M  V30 11 O -0.9168 2.1171 -0.585 0 CHG=-1
M  V30 12 H 3.5849 0.2481 2.1056 0
M  V30 13 H 1.5459 0.5318 -1.7099 0
M  V30 14 H -0.2974 -1.4574 -1.6187 0
M  V30 15 H -0.6337 -2.1812 -0.0226 0
M  V30 16 H 3.5875 1.2611 -0.3019 0
M  V30 17 H -2.5307 -0.8236 -0.783 0
M  V30 18 H -2.8055 0.556 1.1259 0
M  V30 19 H -2.0444 -0.891 1.5721 0
M  V30 20 H -1.1412 0.5506 1.4777 0
M  V30 END ATOM
M  V30 BEGIN BOND
M  V30 1 1 1 2
M  V30 2 1 1 3
M  V30 3 2 2 4
M  V30 4 1 2 5
M  V30 5 2 3 6
M  V30 6 1 5 7
M  V30 7 1 7 8
M  V30 8 1 7 9
M  V30 9 2 9 10
M  V30 10 1 9 11
M  V30 11 1 4 6
M  V30 12 1 3 12
M  V30 13 1 4 13
M  V30 14 1 5 14
M  V30 15 1 5 15
M  V30 16 1 6 16
M  V30 17 1 7 17
M  V30 18 1 8 18
M  V30 19 1 8 19
M  V30 20 1 8 20
M  V30 END BOND
M  V30 BEGIN COLLECTION
M  V30 MDLV30/STEABS ATOMS=(1 7)
M  V30 END COLLECTION
M  V30 END CTAB
M  END
>  <Structure No>
3601

>  <LogS>
-0.8356

>  <MMFF94 Energy>
-6.3274

$$$$
Compound 3602
Actelion Java MolfileCreator 2.0

  0  0  0  0  0  0              0 V3000
M  V30 BEGIN CTAB
M  V30 COUNTS 25 24 0 0 0
M  V30 BEGIN ATOM
M  V30 1 O 2.5262 1.3007 -0.3059 0
M  V30 2 C 2.2085 0.1987 -1.1104 0
M  V30 3 C 0.6948 0.1579 -1.3709 0
M  V30 4 N -0.0889 -0.1344 -0.138 0 CHG=1
M  V30 5 C -1.4586 0.4401 -0.2495 0
M  V30 6 C -0.1628 -1.6036 0.0884 0
M  V30 7 C -1.5082 1.927 0.1471 0
M  V30 8 C -0.3814 -1.9525 1.5656 0
M  V30 9 O -1.2094 2.0905 1.5076 0
M  V30 10 H 3.5096 1.2732 -0.1766 0
M  V30 11 H 2.7347 0.292 -2.0863 0
M  V30 12 H 2.5495 -0.7384 -0.6206 0
M  V30 13 H 0.4808 -0.5974 -2.1614 0
M  V30 14 H 0.4149 1.1416 -1.8079 0
M  V30 15 H 0.3953 0.3033 0.6814 0
M  V30 16 H -1.8489 0.327 -1.2868 0
M  V30 17 H -2.1801 -0.0961 0.4042 0
M  V30 18 H -0.9751 -2.0593 -0.5227 0
M  V30 19 H 0.7793 -2.1065 -0.2201 0
M  V30 20 H -0.7831 2.5159 -0.4499 0
M  V30 21 H -2.5214 2.3345 -0.0711 0
M  V30 22 H -0.4266 -3.0558 1.682 0
M  V30 23 H -1.33 -1.5234 1.9467 0
M  V30 24 H 0.4619 -1.5698 2.1785 0
M  V30 25 H -2.0083 1.7876 2.0133 0
M  V30 END ATOM
M  V30 BEGIN BOND
M  V30 1 1 1 2
M  V30 2 1 2 3
M  V30 3 1 3 4
M  V30 4 1 4 5
M  V30 5 1 4 6
M  V30 6 1 5 7
M  V30 7 1 6 8
M  V30 8 1 7 9
M  V30 9 1 1 10
M  V30 10 1 2 11
M  V30 11 1 2 12
M  V30 12 1 3 13
M  V30 13 1 3 14
M  V30 14 1 4 15
M  V30 15 1 5 16
M  V30 16 1 5 17
M  V30 17 1 6 18
M  V30 18 1 6 19
M  V30 19 1 7 20
M  V30 20 1 7 21
M  V30 21 1 8 22
M  V30 22 1 8 23
M  V30 23 1 8 24
M  V30 24 1 9 25
M  V30 END BOND
M  V30 END CTAB
M  END
>  <Structure No>
3602

>  <LogS>
0.8755

>  <MMFF94 Energy>
44.117

$$$$
Compound 3603
Actelion Java MolfileCreator 2.0

  0  0  0  0  0  0              0 V3000
M  V30 BEGIN CTAB
M  V30 COUNTS 39 41 0 0 0
M  V30 BEGIN ATOM
M  V30 1 O 7.0514 -0.3233 -1.9414 0
M  V30 2 N 7.3656 -0.2944 -0.7345 0 CHG=1
M  V30 3 O 8.6909 -0.3779 -0.3765 0 CHG=-1
M  V30 4 C 6.3519 -0.1751 0.2654 0
M  V30 5 O 5.0693 -0.0908 -7.0E-4 0
M  V30 6 C 6.5714 -0.1324 1.6285 0
M  V30 7 C 4.4267 0.0066 1.141 0
M  V30 8 C 5.3195 -0.0143 2.1964 0
M  V30 9 C 2.9718 0.1201 1.262 0
M  V30 10 N 2.234 0.1491 0.1962 0
M  V30 11 N 0.8304 0.2412 0.229 0
M  V30 12 C -0.0324 -0.3957 1.1523 0
M  V30 13 C 0.0347 0.5635 -0.9449 0
M  V30 14 O 0.3464 -0.9469 2.2185 0
M  V30 15 O -1.3369 -0.4092 0.7202 0
M  V30 16 C -1.4349 0.2388 -0.5446 0 CFG=2
M  V30 17 C -2.1234 -0.6739 -1.576 0
M  V30 18 N -3.5781 -0.8345 -1.3664 0
M  V30 19 C -4.4196 0.3428 -1.6654 0
M  V30 20 C -3.9966 -1.6504 -0.2091 0
M  V30 21 C -4.9434 1.0299 -0.3964 0
M  V30 22 C -4.5396 -0.793 0.9413 0
M  V30 23 O -5.5339 0.0923 0.4763 0
M  V30 24 H 7.5203 -0.181 2.1458 0
M  V30 25 H 5.0878 0.0486 3.2516 0
M  V30 26 H 2.5329 0.2125 2.2465 0
M  V30 27 H 0.1506 1.6394 -1.1967 0
M  V30 28 H 0.379 -0.0555 -1.8024 0
M  V30 29 H -1.9878 1.1922 -0.4295 0
M  V30 30 H -1.9548 -0.2611 -2.5949 0
M  V30 31 H -1.6356 -1.6734 -1.5667 0
M  V30 32 H -5.291 0.0015 -2.2641 0
M  V30 33 H -3.8716 1.0861 -2.2852 0
M  V30 34 H -3.1641 -2.2873 0.1613 0
M  V30 35 H -4.8028 -2.3376 -0.544 0
M  V30 36 H -5.7196 1.7666 -0.693 0
M  V30 37 H -4.1448 1.6096 0.1156 0
M  V30 38 H -3.7253 -0.2448 1.4632 0
M  V30 39 H -4.9972 -1.4672 1.6955 0
M  V30 END ATOM
M  V30 BEGIN BOND
M  V30 1 2 1 2
M  V30 2 1 2 3
M  V30 3 1 2 4
M  V30 4 1 4 5
M  V30 5 2 4 6
M  V30 6 1 5 7
M  V30 7 1 6 8
M  V30 8 1 7 9
M  V30 9 2 9 10
M  V30 10 1 10 11
M  V30 11 1 11 12
M  V30 12 1 11 13
M  V30 13 2 12 14
M  V30 14 1 12 15
M  V30 15 1 13 16
M  V30 16 1 16 17
M  V30 17 1 17 18
M  V30 18 1 18 19
M  V30 19 1 18 20
M  V30 20 1 19 21
M  V30 21 1 20 22
M  V30 22 1 21 23
M  V30 23 2 7 8
M  V30 24 1 15 16
M  V30 25 1 22 23
M  V30 26 1 6 24
M  V30 27 1 8 25
M  V30 28 1 9 26
M  V30 29 1 13 27
M  V30 30 1 13 28
M  V30 31 1 16 29
M  V30 32 1 17 30
M  V30 33 1 17 31
M  V30 34 1 19 32
M  V30 35 1 19 33
M  V30 36 1 20 34
M  V30 37 1 20 35
M  V30 38 1 21 36
M  V30 39 1 21 37
M  V30 40 1 22 38
M  V30 41 1 22 39
M  V30 END BOND
M  V30 BEGIN COLLECTION
M  V30 MDLV30/STEABS ATOMS=(1 16)
M  V30 END COLLECTION
M  V30 END CTAB
M  END
>  <Structure No>
3603

>  <LogS>
-2.6359

>  <MMFF94 Energy>
164.34

$$$$
Compound 3604
Actelion Java MolfileCreator 2.0

  0  0  0  0  0  0              0 V3000
M  V30 BEGIN CTAB
M  V30 COUNTS 22 22 0 0 0
M  V30 BEGIN ATOM
M  V30 1 S -2.7846 1.2278 -1.1459 0
M  V30 2 C -1.4477 0.3473 -0.6211 0
M  V30 3 C -3.8384 0.3535 -0.1656 0
M  V30 4 N -1.7833 -0.5997 0.2854 0
M  V30 5 N -0.1108 0.5789 -1.0841 0
M  V30 6 N -5.2507 0.5619 -0.0783 0 CHG=1
M  V30 7 C -3.1177 -0.6002 0.543 0
M  V30 8 C 1.0326 -0.1669 -0.6407 0
M  V30 9 O -5.7984 1.4502 -0.7621 0
M  V30 10 O -6.0168 -0.2145 0.7594 0 CHG=-1
M  V30 11 O 0.9027 -1.0966 0.2017 0
M  V30 12 N 2.3294 0.1467 -1.1672 0
M  V30 13 C 3.5411 -0.5567 -0.7512 0
M  V30 14 C 3.9765 -0.1015 0.6373 0
M  V30 15 H 0.0358 1.3394 -1.7848 0
M  V30 16 H -3.5663 -1.2912 1.244 0
M  V30 17 H 2.4077 0.8688 -1.9182 0
M  V30 18 H 3.3664 -1.6542 -0.7579 0
M  V30 19 H 4.3586 -0.3352 -1.4709 0
M  V30 20 H 3.2016 -0.3531 1.3911 0
M  V30 21 H 4.922 -0.6122 0.9167 0
M  V30 22 H 4.1473 0.9959 0.6418 0
M  V30 END ATOM
M  V30 BEGIN BOND
M  V30 1 1 1 2
M  V30 2 1 1 3
M  V30 3 2 2 4
M  V30 4 1 2 5
M  V30 5 1 3 6
M  V30 6 2 3 7
M  V30 7 1 5 8
M  V30 8 2 6 9
M  V30 9 1 6 10
M  V30 10 2 8 11
M  V30 11 1 8 12
M  V30 12 1 12 13
M  V30 13 1 13 14
M  V30 14 1 4 7
M  V30 15 1 5 15
M  V30 16 1 7 16
M  V30 17 1 12 17
M  V30 18 1 13 18
M  V30 19 1 13 19
M  V30 20 1 14 20
M  V30 21 1 14 21
M  V30 22 1 14 22
M  V30 END BOND
M  V30 END CTAB
M  END
>  <Structure No>
3604

>  <LogS>
-2.8578

>  <MMFF94 Energy>
-99.331

$$$$
Compound 3605
Actelion Java MolfileCreator 2.0

  0  0  0  0  0  0              0 V3000
M  V30 BEGIN CTAB
M  V30 COUNTS 39 40 0 0 0
M  V30 BEGIN ATOM
M  V30 1 N -1.3317 0.6265 0.3915 0 CHG=1
M  V30 2 C -2.3363 1.5224 -0.2003 0
M  V30 3 C 0.0219 1.1763 0.2117 0
M  V30 4 C -3.7192 0.9459 -0.036 0
M  V30 5 C 1.082 0.3351 0.9368 0
M  V30 6 C -4.2455 0.0786 -1.008 0
M  V30 7 C -4.4687 1.2205 1.1201 0
M  V30 8 N 1.2256 -0.9833 0.3017 0
M  V30 9 C -5.5144 -0.4839 -0.8366 0
M  V30 10 C -5.7372 0.6559 1.2876 0
M  V30 11 C 2.4463 -1.6632 0.7555 0
M  V30 12 C -6.2606 -0.1938 0.3091 0
M  V30 13 C 3.6439 -1.1594 -0.0056 0
M  V30 14 C 4.63 -0.3921 0.6375 0
M  V30 15 C 3.7721 -1.436 -1.3768 0
M  V30 16 C 5.7305 0.0849 -0.0815 0
M  V30 17 C 4.8744 -0.9572 -2.0919 0
M  V30 18 C 5.853 -0.1978 -1.4447 0
M  V30 19 H -1.3941 -0.306 -0.0796 0
M  V30 20 H -1.5308 0.5162 1.4142 0
M  V30 21 H -2.2942 2.5229 0.2873 0
M  V30 22 H -2.1251 1.674 -1.2833 0
M  V30 23 H 0.2757 1.2253 -0.8713 0
M  V30 24 H 0.0678 2.2104 0.6228 0
M  V30 25 H 0.811 0.223 2.0111 0
M  V30 26 H 2.0413 0.8958 0.8836 0
M  V30 27 H -3.6734 -0.1618 -1.8955 0
M  V30 28 H -4.0705 1.8695 1.8904 0
M  V30 29 H 0.4165 -1.5732 0.6073 0
M  V30 30 H -5.9177 -1.1478 -1.5903 0
M  V30 31 H -6.313 0.8742 2.1779 0
M  V30 32 H 2.3499 -2.7547 0.562 0
M  V30 33 H 2.5829 -1.549 1.8555 0
M  V30 34 H -7.2421 -0.6309 0.4408 0
M  V30 35 H 4.5458 -0.1604 1.692 0
M  V30 36 H 3.0178 -2.02 -1.8899 0
M  V30 37 H 6.4876 0.6757 0.4179 0
M  V30 38 H 4.9688 -1.1737 -3.1482 0
M  V30 39 H 6.7051 0.1727 -1.9997 0
M  V30 END ATOM
M  V30 BEGIN BOND
M  V30 1 1 1 2
M  V30 2 1 1 3
M  V30 3 1 2 4
M  V30 4 1 3 5
M  V30 5 2 4 6
M  V30 6 1 4 7
M  V30 7 1 5 8
M  V30 8 1 6 9
M  V30 9 2 7 10
M  V30 10 1 8 11
M  V30 11 2 9 12
M  V30 12 1 11 13
M  V30 13 2 13 14
M  V30 14 1 13 15
M  V30 15 1 14 16
M  V30 16 2 15 17
M  V30 17 2 16 18
M  V30 18 1 10 12
M  V30 19 1 17 18
M  V30 20 1 1 19
M  V30 21 1 1 20
M  V30 22 1 2 21
M  V30 23 1 2 22
M  V30 24 1 3 23
M  V30 25 1 3 24
M  V30 26 1 5 25
M  V30 27 1 5 26
M  V30 28 1 6 27
M  V30 29 1 7 28
M  V30 30 1 8 29
M  V30 31 1 9 30
M  V30 32 1 10 31
M  V30 33 1 11 32
M  V30 34 1 11 33
M  V30 35 1 12 34
M  V30 36 1 14 35
M  V30 37 1 15 36
M  V30 38 1 16 37
M  V30 39 1 17 38
M  V30 40 1 18 39
M  V30 END BOND
M  V30 END CTAB
M  END
>  <Structure No>
3605

>  <LogS>
-1.7865

>  <MMFF94 Energy>
35.363

$$$$
Compound 3606
Actelion Java MolfileCreator 2.0

  0  0  0  0  0  0              0 V3000
M  V30 BEGIN CTAB
M  V30 COUNTS 25 25 0 0 0
M  V30 BEGIN ATOM
M  V30 1 S 5.441 0.0 0.2468 0
M  V30 2 O 5.8732 -0.8862 -0.8864 0
M  V30 3 O 6.1578 -0.4111 1.5012 0
M  V30 4 O 5.8176 1.5989 -0.1036 0 CHG=-1
M  V30 5 N 3.7389 -0.1547 0.4884 0
M  V30 6 N 2.9285 0.2693 -0.3938 0
M  V30 7 C 1.5081 0.1637 -0.2391 0
M  V30 8 C 0.6785 0.6522 -1.2515 0
M  V30 9 C 0.9306 -0.4168 0.9011 0
M  V30 10 C -0.7114 0.5661 -1.1342 0
M  V30 11 C -0.4589 -0.5052 1.0218 0
M  V30 12 C -1.3057 -0.0148 0.0056 0
M  V30 13 N -2.7497 -0.1057 0.1295 0
M  V30 14 C -3.3607 -1.0688 1.054 0
M  V30 15 C -3.6237 0.764 -0.6676 0
M  V30 16 H 1.1118 1.1004 -2.137 0
M  V30 17 H 1.5516 -0.8004 1.7004 0
M  V30 18 H -1.3143 0.9475 -1.9463 0
M  V30 19 H -0.8635 -0.9499 1.9203 0
M  V30 20 H -4.4536 -1.165 0.8821 0
M  V30 21 H -3.2026 -0.7385 2.1019 0
M  V30 22 H -2.9105 -2.0731 0.905 0
M  V30 23 H -3.2834 1.818 -0.5864 0
M  V30 24 H -4.6751 0.725 -0.3119 0
M  V30 25 H -3.6056 0.4448 -1.7305 0
M  V30 END ATOM
M  V30 BEGIN BOND
M  V30 1 2 1 2
M  V30 2 2 1 3
M  V30 3 1 1 4
M  V30 4 1 1 5
M  V30 5 2 5 6
M  V30 6 1 6 7
M  V30 7 2 7 8
M  V30 8 1 7 9
M  V30 9 1 8 10
M  V30 10 2 9 11
M  V30 11 2 10 12
M  V30 12 1 12 13
M  V30 13 1 13 14
M  V30 14 1 13 15
M  V30 15 1 11 12
M  V30 16 1 8 16
M  V30 17 1 9 17
M  V30 18 1 10 18
M  V30 19 1 11 19
M  V30 20 1 14 20
M  V30 21 1 14 21
M  V30 22 1 14 22
M  V30 23 1 15 23
M  V30 24 1 15 24
M  V30 25 1 15 25
M  V30 END BOND
M  V30 END CTAB
M  END
>  <Structure No>
3606

>  <LogS>
-1.0991

>  <MMFF94 Energy>
49.094

$$$$
Compound 3607
Actelion Java MolfileCreator 2.0

  0  0  0  0  0  0              0 V3000
M  V30 BEGIN CTAB
M  V30 COUNTS 23 23 0 0 0
M  V30 BEGIN ATOM
M  V30 1 O -3.1259 -0.7807 0.3122 0
M  V30 2 C -1.7851 -0.3706 0.3574 0
M  V30 3 C -4.1549 -0.0887 -0.3876 0
M  V30 4 C -1.3266 0.7868 -0.3006 0
M  V30 5 C -0.8759 -1.1478 1.0843 0
M  V30 6 C 0.0204 1.1535 -0.2251 0
M  V30 7 C 0.4709 -0.7816 1.1603 0
M  V30 8 C 0.9271 0.3769 0.5128 0
M  V30 9 C 2.3822 0.7592 0.5676 0
M  V30 10 C 3.0974 0.3144 -0.6773 0
M  V30 11 C 3.3603 -0.9742 -0.9137 0
M  V30 12 H -5.1129 -0.6316 -0.2535 0
M  V30 13 H -3.9182 -0.0474 -1.4718 0
M  V30 14 H -4.2687 0.9386 0.0185 0
M  V30 15 H -2.0013 1.4075 -0.8743 0
M  V30 16 H -1.2152 -2.0423 1.5913 0
M  V30 17 H 0.3583 2.0426 -0.7433 0
M  V30 18 H 1.1573 -1.4021 1.7228 0
M  V30 19 H 2.8761 0.3222 1.4632 0
M  V30 20 H 2.4676 1.8638 0.6576 0
M  V30 21 H 3.4184 1.0618 -1.3967 0
M  V30 22 H 3.0597 -1.7443 -0.2099 0
M  V30 23 H 3.8826 -1.2643 -1.8195 0
M  V30 END ATOM
M  V30 BEGIN BOND
M  V30 1 1 1 2
M  V30 2 1 1 3
M  V30 3 2 2 4
M  V30 4 1 2 5
M  V30 5 1 4 6
M  V30 6 2 5 7
M  V30 7 2 6 8
M  V30 8 1 8 9
M  V30 9 1 9 10
M  V30 10 2 10 11
M  V30 11 1 7 8
M  V30 12 1 3 12
M  V30 13 1 3 13
M  V30 14 1 3 14
M  V30 15 1 4 15
M  V30 16 1 5 16
M  V30 17 1 6 17
M  V30 18 1 7 18
M  V30 19 1 9 19
M  V30 20 1 9 20
M  V30 21 1 10 21
M  V30 22 1 11 22
M  V30 23 1 11 23
M  V30 END BOND
M  V30 END CTAB
M  END
>  <Structure No>
3607

>  <LogS>
-2.9209

>  <MMFF94 Energy>
34.792

$$$$
Compound 3608
Actelion Java MolfileCreator 2.0

  0  0  0  0  0  0              0 V3000
M  V30 BEGIN CTAB
M  V30 COUNTS 23 23 0 0 0
M  V30 BEGIN ATOM
M  V30 1 O 3.5902 -1.5944 0.9564 0
M  V30 2 C 2.9878 -0.4931 1.0552 0
M  V30 3 O 3.6921 0.6459 1.4244 0 CHG=-1
M  V30 4 C 1.5318 -0.3986 0.7249 0
M  V30 5 C 1.3424 -0.107 -0.7742 0
M  V30 6 C -0.1238 0.1411 -1.2089 0
M  V30 7 C -1.0719 -1.0077 -0.8523 0
M  V30 8 C -0.7324 1.4128 -0.5958 0
M  V30 9 C -1.8702 -0.5331 0.349 0
M  V30 10 C -1.9462 0.9793 0.2219 0
M  V30 11 H 1.0432 -1.3577 0.9962 0
M  V30 12 H 1.0799 0.4035 1.344 0
M  V30 13 H 1.9449 0.7859 -1.0534 0
M  V30 14 H 1.7424 -0.9655 -1.3576 0
M  V30 15 H -0.1153 0.2536 -2.3168 0
M  V30 16 H -1.7715 -1.1819 -1.7 0
M  V30 17 H -0.5442 -1.9627 -0.6424 0
M  V30 18 H -0.0102 1.9605 0.0468 0
M  V30 19 H -1.0528 2.1108 -1.4006 0
M  V30 20 H -2.8838 -0.9891 0.3655 0
M  V30 21 H -1.3388 -0.8036 1.2871 0
M  V30 22 H -2.879 1.2582 -0.3161 0
M  V30 23 H -1.9507 1.4617 1.2235 0
M  V30 END ATOM
M  V30 BEGIN BOND
M  V30 1 2 1 2
M  V30 2 1 2 3
M  V30 3 1 2 4
M  V30 4 1 4 5
M  V30 5 1 5 6
M  V30 6 1 6 7
M  V30 7 1 6 8
M  V30 8 1 7 9
M  V30 9 1 8 10
M  V30 10 1 9 10
M  V30 11 1 4 11
M  V30 12 1 4 12
M  V30 13 1 5 13
M  V30 14 1 5 14
M  V30 15 1 6 15
M  V30 16 1 7 16
M  V30 17 1 7 17
M  V30 18 1 8 18
M  V30 19 1 8 19
M  V30 20 1 9 20
M  V30 21 1 9 21
M  V30 22 1 10 22
M  V30 23 1 10 23
M  V30 END BOND
M  V30 END CTAB
M  END
>  <Structure No>
3608

>  <LogS>
-1.7691

>  <MMFF94 Energy>
13.988

$$$$
Compound 3609
Actelion Java MolfileCreator 2.0

  0  0  0  0  0  0              0 V3000
M  V30 BEGIN CTAB
M  V30 COUNTS 38 37 0 0 0
M  V30 BEGIN ATOM
M  V30 1 O 1.5665 0.8613 2.0369 0
M  V30 2 C 1.2748 1.3505 0.9113 0
M  V30 3 O 1.4404 0.6031 -0.2602 0
M  V30 4 C 0.6821 2.724 0.8288 0
M  V30 5 C 1.9608 -0.7241 -0.2783 0
M  V30 6 C -0.8421 2.6868 0.9824 0
M  V30 7 C 3.4809 -0.7078 -0.0954 0
M  V30 8 C -1.4923 1.9848 -0.1699 0
M  V30 9 C 4.0589 -2.1256 -0.1633 0
M  V30 10 O -1.8171 2.6381 -1.1988 0
M  V30 11 O -1.6779 0.5991 -0.1118 0
M  V30 12 C 5.574 -2.1122 0.0172 0
M  V30 13 C -2.2784 -0.1592 -1.1604 0
M  V30 14 C -3.7995 0.0466 -1.201 0
M  V30 15 C -4.4944 -0.2539 0.1375 0
M  V30 16 C -4.4377 -1.7336 0.5149 0
M  V30 17 H 0.955 3.1901 -0.143 0
M  V30 18 H 1.1122 3.3557 1.6361 0
M  V30 19 H 1.7158 -1.1789 -1.2618 0
M  V30 20 H 1.475 -1.3356 0.5137 0
M  V30 21 H -1.1166 2.1766 1.9314 0
M  V30 22 H -1.2259 3.7286 1.0392 0
M  V30 23 H 3.9341 -0.0818 -0.8952 0
M  V30 24 H 3.7305 -0.2551 0.8885 0
M  V30 25 H 3.6068 -2.7529 0.6358 0
M  V30 26 H 3.8184 -2.5823 -1.1482 0
M  V30 27 H 6.0528 -1.5112 -0.785 0
M  V30 28 H 5.9639 -3.1505 -0.036 0
M  V30 29 H 5.841 -1.6829 1.0066 0
M  V30 30 H -2.0489 -1.233 -1.0019 0
M  V30 31 H -1.8336 0.1272 -2.1382 0
M  V30 32 H -4.0128 1.1008 -1.4793 0
M  V30 33 H -4.2324 -0.5955 -1.9986 0
M  V30 34 H -4.0459 0.3556 0.9515 0
M  V30 35 H -5.5622 0.0425 0.0505 0
M  V30 36 H -5.0611 -1.908 1.4172 0
M  V30 37 H -3.3971 -2.0385 0.7509 0
M  V30 38 H -4.8305 -2.3617 -0.3126 0
M  V30 END ATOM
M  V30 BEGIN BOND
M  V30 1 2 1 2
M  V30 2 1 2 3
M  V30 3 1 2 4
M  V30 4 1 3 5
M  V30 5 1 4 6
M  V30 6 1 5 7
M  V30 7 1 6 8
M  V30 8 1 7 9
M  V30 9 2 8 10
M  V30 10 1 8 11
M  V30 11 1 9 12
M  V30 12 1 11 13
M  V30 13 1 13 14
M  V30 14 1 14 15
M  V30 15 1 15 16
M  V30 16 1 4 17
M  V30 17 1 4 18
M  V30 18 1 5 19
M  V30 19 1 5 20
M  V30 20 1 6 21
M  V30 21 1 6 22
M  V30 22 1 7 23
M  V30 23 1 7 24
M  V30 24 1 9 25
M  V30 25 1 9 26
M  V30 26 1 12 27
M  V30 27 1 12 28
M  V30 28 1 12 29
M  V30 29 1 13 30
M  V30 30 1 13 31
M  V30 31 1 14 32
M  V30 32 1 14 33
M  V30 33 1 15 34
M  V30 34 1 15 35
M  V30 35 1 16 36
M  V30 36 1 16 37
M  V30 37 1 16 38
M  V30 END BOND
M  V30 END CTAB
M  END
>  <Structure No>
3609

>  <LogS>
-3.0006

>  <MMFF94 Energy>
-37.174

$$$$
Compound 3610
Actelion Java MolfileCreator 2.0

  0  0  0  0  0  0              0 V3000
M  V30 BEGIN CTAB
M  V30 COUNTS 24 23 0 0 0
M  V30 BEGIN ATOM
M  V30 1 O -2.0343 2.1909 -0.0781 0
M  V30 2 C -1.6698 0.984 -0.0623 0
M  V30 3 O -2.5829 -0.035 -0.3545 0
M  V30 4 C -0.2731 0.6619 0.2672 0
M  V30 5 C -3.9449 0.2232 -0.6793 0
M  V30 6 C 0.1742 -0.5976 0.3002 0
M  V30 7 C -4.6637 -1.0904 -0.9413 0
M  V30 8 C 1.571 -0.9201 0.6289 0
M  V30 9 O 1.9343 -2.1274 0.6422 0
M  V30 10 O 2.4828 0.1001 0.9302 0
M  V30 11 C 3.8617 -0.1348 1.2086 0
M  V30 12 C 4.6271 -0.4303 -0.0759 0
M  V30 13 H 0.3989 1.4832 0.4865 0
M  V30 14 H -3.9999 0.8597 -1.589 0
M  V30 15 H -4.4393 0.75 0.1656 0
M  V30 16 H -0.4978 -1.4187 0.08 0
M  V30 17 H -4.1831 -1.6231 -1.7892 0
M  V30 18 H -4.622 -1.7327 -0.0361 0
M  V30 19 H -5.7264 -0.8925 -1.1951 0
M  V30 20 H 3.9746 -0.9747 1.9281 0
M  V30 21 H 4.2882 0.778 1.6754 0
M  V30 22 H 4.505 0.4102 -0.7914 0
M  V30 23 H 5.7065 -0.5544 0.1529 0
M  V30 24 H 4.2526 -1.3643 -0.544 0
M  V30 END ATOM
M  V30 BEGIN BOND
M  V30 1 2 1 2
M  V30 2 1 2 3
M  V30 3 1 2 4
M  V30 4 1 3 5
M  V30 5 2 4 6
M  V30 6 1 5 7
M  V30 7 1 6 8
M  V30 8 2 8 9
M  V30 9 1 8 10
M  V30 10 1 10 11
M  V30 11 1 11 12
M  V30 12 1 4 13
M  V30 13 1 5 14
M  V30 14 1 5 15
M  V30 15 1 6 16
M  V30 16 1 7 17
M  V30 17 1 7 18
M  V30 18 1 7 19
M  V30 19 1 11 20
M  V30 20 1 11 21
M  V30 21 1 12 22
M  V30 22 1 12 23
M  V30 23 1 12 24
M  V30 END BOND
M  V30 END CTAB
M  END
>  <Structure No>
3610

>  <LogS>
-1.0899

>  <MMFF94 Energy>
-36.362

$$$$
Compound 3611
Actelion Java MolfileCreator 2.0

  0  0  0  0  0  0              0 V3000
M  V30 BEGIN CTAB
M  V30 COUNTS 32 31 0 0 0
M  V30 BEGIN ATOM
M  V30 1 O -3.3693 -0.313 -1.801 0
M  V30 2 C -2.8641 0.0989 -0.721 0
M  V30 3 O -3.6785 0.4849 0.3496 0
M  V30 4 C -1.3775 0.1231 -0.5589 0
M  V30 5 C -5.1028 0.5149 0.2815 0
M  V30 6 C -0.8821 -1.2087 0.0188 0
M  V30 7 C -5.5782 1.7244 -0.5153 0
M  V30 8 C 0.6221 -1.1938 0.3328 0
M  V30 9 C 1.489 -1.2004 -0.9326 0
M  V30 10 C 2.9363 -1.3045 -0.5703 0
M  V30 11 O 3.4921 -2.4361 -0.5257 0
M  V30 12 O 3.6468 -0.1469 -0.2407 0
M  V30 13 C 5.0187 -0.1708 0.1391 0
M  V30 14 C 5.4897 1.2437 0.4357 0
M  V30 15 H -0.91 0.3133 -1.5481 0
M  V30 16 H -1.1032 0.9574 0.1224 0
M  V30 17 H -5.5045 0.5883 1.3141 0
M  V30 18 H -5.4891 -0.4232 -0.1728 0
M  V30 19 H -1.4279 -1.4132 0.9667 0
M  V30 20 H -1.112 -2.0372 -0.6871 0
M  V30 21 H -6.688 1.7619 -0.5103 0
M  V30 22 H -5.1845 2.6572 -0.059 0
M  V30 23 H -5.2288 1.6575 -1.5667 0
M  V30 24 H 0.8683 -0.306 0.9566 0
M  V30 25 H 0.8564 -2.1015 0.9318 0
M  V30 26 H 1.3378 -0.2628 -1.5074 0
M  V30 27 H 1.2073 -2.0576 -1.5826 0
M  V30 28 H 5.6295 -0.5961 -0.6863 0
M  V30 29 H 5.1456 -0.7981 1.0482 0
M  V30 30 H 5.3739 1.8793 -0.4676 0
M  V30 31 H 4.8918 1.6768 1.2656 0
M  V30 32 H 6.5599 1.2286 0.7315 0
M  V30 END ATOM
M  V30 BEGIN BOND
M  V30 1 2 1 2
M  V30 2 1 2 3
M  V30 3 1 2 4
M  V30 4 1 3 5
M  V30 5 1 4 6
M  V30 6 1 5 7
M  V30 7 1 6 8
M  V30 8 1 8 9
M  V30 9 1 9 10
M  V30 10 2 10 11
M  V30 11 1 10 12
M  V30 12 1 12 13
M  V30 13 1 13 14
M  V30 14 1 4 15
M  V30 15 1 4 16
M  V30 16 1 5 17
M  V30 17 1 5 18
M  V30 18 1 6 19
M  V30 19 1 6 20
M  V30 20 1 7 21
M  V30 21 1 7 22
M  V30 22 1 7 23
M  V30 23 1 8 24
M  V30 24 1 8 25
M  V30 25 1 9 26
M  V30 26 1 9 27
M  V30 27 1 13 28
M  V30 28 1 13 29
M  V30 29 1 14 30
M  V30 30 1 14 31
M  V30 31 1 14 32
M  V30 END BOND
M  V30 END CTAB
M  END
>  <Structure No>
3611

>  <LogS>
-1.6795

>  <MMFF94 Energy>
-20.872

$$$$
Compound 3612
Actelion Java MolfileCreator 2.0

  0  0  0  0  0  0              0 V3000
M  V30 BEGIN CTAB
M  V30 COUNTS 9 8 0 0 0
M  V30 BEGIN ATOM
M  V30 1 O 1.8894 0.082 0.9854 0
M  V30 2 C 1.1711 0.3907 -0.0017 0
M  V30 3 O 1.4201 1.5701 -0.6923 0 CHG=-1
M  V30 4 C 0.0242 -0.4805 -0.3987 0
M  V30 5 C -1.216 -0.0466 0.3121 0
M  V30 6 O -1.5102 -0.5406 1.4325 0
M  V30 7 O -2.0251 0.9389 -0.2393 0 CHG=-1
M  V30 8 H 0.2507 -1.541 -0.1535 0
M  V30 9 H -0.133 -0.4092 -1.4961 0
M  V30 END ATOM
M  V30 BEGIN BOND
M  V30 1 2 1 2
M  V30 2 1 2 3
M  V30 3 1 2 4
M  V30 4 1 4 5
M  V30 5 2 5 6
M  V30 6 1 5 7
M  V30 7 1 4 8
M  V30 8 1 4 9
M  V30 END BOND
M  V30 END CTAB
M  END
>  <Structure No>
3612

>  <LogS>
0.8652

>  <MMFF94 Energy>
36.839

$$$$
Compound 3613
Actelion Java MolfileCreator 2.0

  0  0  0  0  0  0              0 V3000
M  V30 BEGIN CTAB
M  V30 COUNTS 10 10 0 0 0
M  V30 BEGIN ATOM
M  V30 1 S 2.9109 0.5288 0.7051 0
M  V30 2 C 1.4493 0.0937 0.1198 0
M  V30 3 S 0.8525 -1.5859 0.2649 0
M  V30 4 N 0.4496 1.0579 -0.1457 0
M  V30 5 C -0.8777 -1.0067 0.0671 0
M  V30 6 C -0.8314 0.4608 -0.1896 0
M  V30 7 O -1.869 1.139 -0.4104 0
M  V30 8 H 0.6205 2.0863 -0.2117 0
M  V30 9 H -1.4474 -1.2101 0.9977 0
M  V30 10 H -1.3512 -1.5292 -0.7898 0
M  V30 END ATOM
M  V30 BEGIN BOND
M  V30 1 2 1 2
M  V30 2 1 2 3
M  V30 3 1 2 4
M  V30 4 1 3 5
M  V30 5 1 4 6
M  V30 6 2 6 7
M  V30 7 1 5 6
M  V30 8 1 4 8
M  V30 9 1 5 9
M  V30 10 1 5 10
M  V30 END BOND
M  V30 END CTAB
M  END
>  <Structure No>
3613

>  <LogS>
-1.7723

>  <MMFF94 Energy>
-45.83

$$$$
Compound 3614
Actelion Java MolfileCreator 2.0

  0  0  0  0  0  0              0 V3000
M  V30 BEGIN CTAB
M  V30 COUNTS 12 12 0 0 0
M  V30 BEGIN ATOM
M  V30 1 S -2.3268 -1.845 0.4008 0
M  V30 2 C -1.0644 -0.8245 0.171 0
M  V30 3 N 0.192 -1.3229 -0.0062 0
M  V30 4 N -1.2708 0.5226 0.1571 0
M  V30 5 C 1.2506 -0.489 -0.1982 0
M  V30 6 C -0.2357 1.3829 -0.0321 0
M  V30 7 O 2.4069 -0.9624 -0.3608 0
M  V30 8 C 1.055 0.8919 -0.2148 0
M  V30 9 H 0.3504 -2.3567 0.0045 0
M  V30 10 H -2.232 0.9109 0.2926 0
M  V30 11 H -0.4126 2.4512 -0.0409 0
M  V30 12 H 1.8844 1.5717 -0.3662 0
M  V30 END ATOM
M  V30 BEGIN BOND
M  V30 1 2 1 2
M  V30 2 1 2 3
M  V30 3 1 2 4
M  V30 4 1 3 5
M  V30 5 1 4 6
M  V30 6 2 5 7
M  V30 7 1 5 8
M  V30 8 2 6 8
M  V30 9 1 3 9
M  V30 10 1 4 10
M  V30 11 1 6 11
M  V30 12 1 8 12
M  V30 END BOND
M  V30 END CTAB
M  END
>  <Structure No>
3614

>  <LogS>
-2.2573

>  <MMFF94 Energy>
-75.743

$$$$
Compound 3615
Actelion Java MolfileCreator 2.0

  0  0  0  0  0  0              0 V3000
M  V30 BEGIN CTAB
M  V30 COUNTS 12 12 0 0 0
M  V30 BEGIN ATOM
M  V30 1 O -0.7787 2.4937 0.1557 0
M  V30 2 C -0.389 1.2977 0.0877 0
M  V30 3 N 0.9426 1.0168 0.0083 0
M  V30 4 C -1.325 0.2578 0.0939 0
M  V30 5 C 1.3935 -0.2659 -0.0662 0
M  V30 6 C -0.8793 -1.0629 0.018 0
M  V30 7 C 0.4881 -1.3299 -0.0625 0
M  V30 8 H 1.637 1.7978 0.0041 0
M  V30 9 H -2.3853 0.4696 0.1567 0
M  V30 10 H 2.4561 -0.4638 -0.1285 0
M  V30 11 H -1.5921 -1.8774 0.0218 0
M  V30 12 H 0.8433 -2.3505 -0.1217 0
M  V30 END ATOM
M  V30 BEGIN BOND
M  V30 1 2 1 2
M  V30 2 1 2 3
M  V30 3 1 2 4
M  V30 4 1 3 5
M  V30 5 2 4 6
M  V30 6 2 5 7
M  V30 7 1 6 7
M  V30 8 1 3 8
M  V30 9 1 4 9
M  V30 10 1 5 10
M  V30 11 1 6 11
M  V30 12 1 7 12
M  V30 END BOND
M  V30 END CTAB
M  END
>  <Structure No>
3615

>  <LogS>
1.0218

>  <MMFF94 Energy>
-6.0854

$$$$
Compound 3616
Actelion Java MolfileCreator 2.0

  0  0  0  0  0  0              0 V3000
M  V30 BEGIN CTAB
M  V30 COUNTS 16 15 0 0 0
M  V30 BEGIN ATOM
M  V30 1 O 1.1502 -1.3803 0.6133 0
M  V30 2 C 1.3473 -0.3335 -0.0612 0
M  V30 3 N 0.264 0.2976 -0.7575 0
M  V30 4 C 2.729 0.2238 -0.1709 0
M  V30 5 C -1.1103 -0.1953 -0.6893 0
M  V30 6 C -1.7426 0.1606 0.6539 0
M  V30 7 O -3.0719 -0.2784 0.6752 0
M  V30 8 H 0.471 1.1093 -1.3824 0
M  V30 9 H 3.388 -0.2127 0.6095 0
M  V30 10 H 2.7013 1.3256 -0.0383 0
M  V30 11 H 3.1446 -0.0137 -1.1719 0
M  V30 12 H -1.1265 -1.296 -0.844 0
M  V30 13 H -1.7061 0.2737 -1.5025 0
M  V30 14 H -1.1761 -0.3263 1.4782 0
M  V30 15 H -1.71 1.2643 0.7948 0
M  V30 16 H -3.4337 -0.0172 1.5618 0
M  V30 END ATOM
M  V30 BEGIN BOND
M  V30 1 2 1 2
M  V30 2 1 2 3
M  V30 3 1 2 4
M  V30 4 1 3 5
M  V30 5 1 5 6
M  V30 6 1 6 7
M  V30 7 1 3 8
M  V30 8 1 4 9
M  V30 9 1 4 10
M  V30 10 1 4 11
M  V30 11 1 5 12
M  V30 12 1 5 13
M  V30 13 1 6 14
M  V30 14 1 6 15
M  V30 15 1 7 16
M  V30 END BOND
M  V30 END CTAB
M  END
>  <Structure No>
3616

>  <LogS>
0.9867

>  <MMFF94 Energy>
-11.507

$$$$
Compound 3617
Actelion Java MolfileCreator 2.0

  0  0  0  0  0  0              0 V3000
M  V30 BEGIN CTAB
M  V30 COUNTS 14 13 0 0 0
M  V30 BEGIN ATOM
M  V30 1 S -2.649 -1.926 1.2034 0
M  V30 2 C -1.8012 -0.8562 0.2987 0
M  V30 3 N -0.4197 -0.6168 0.6013 0
M  V30 4 N -2.4741 -0.1149 -0.7227 0
M  V30 5 N 0.45 -0.0144 -0.3277 0
M  V30 6 C 1.7795 0.4049 0.018 0
M  V30 7 S 2.2844 0.4363 1.5791 0
M  V30 8 N 2.662 0.8632 -1.0069 0
M  V30 9 H -0.0437 -0.9817 1.5048 0
M  V30 10 H -2.0163 0.6907 -1.2012 0
M  V30 11 H -3.4709 -0.3217 -0.9555 0
M  V30 12 H 0.1543 0.0798 -1.3246 0
M  V30 13 H 2.3559 0.871 -2.0049 0
M  V30 14 H 3.6254 1.1928 -0.7749 0
M  V30 END ATOM
M  V30 BEGIN BOND
M  V30 1 2 1 2
M  V30 2 1 2 3
M  V30 3 1 2 4
M  V30 4 1 3 5
M  V30 5 1 5 6
M  V30 6 2 6 7
M  V30 7 1 6 8
M  V30 8 1 3 9
M  V30 9 1 4 10
M  V30 10 1 4 11
M  V30 11 1 5 12
M  V30 12 1 8 13
M  V30 13 1 8 14
M  V30 END BOND
M  V30 END CTAB
M  END
>  <Structure No>
3617

>  <LogS>
-1.7965

>  <MMFF94 Energy>
-88.145

$$$$
Compound 3618
Actelion Java MolfileCreator 2.0

  0  0  0  0  0  0              0 V3000
M  V30 BEGIN CTAB
M  V30 COUNTS 16 15 0 0 0
M  V30 BEGIN ATOM
M  V30 1 S -4.0685 1.2106 -0.6916 0
M  V30 2 C -2.6681 0.7331 0.0033 0
M  V30 3 S -2.0882 1.6155 1.4695 0 CHG=-1 VAL=2
M  V30 4 N -1.9626 -0.4002 -0.5245 0
M  V30 5 C -0.6749 -0.8582 -0.0065 0
M  V30 6 C 0.4569 0.0403 -0.5122 0
M  V30 7 N 1.7537 -0.4223 -0.0143 0
M  V30 8 C 2.9888 0.2341 -0.334 0
M  V30 9 S 3.0377 1.5641 -1.2915 0
M  V30 10 S 4.5334 -0.4111 0.3304 0 CHG=-1 VAL=2
M  V30 11 H -2.4014 -0.9487 -1.2986 0
M  V30 12 H -0.6942 -0.8784 1.1044 0
M  V30 13 H -0.4921 -1.8965 -0.3601 0
M  V30 14 H 0.4632 0.024 -1.6238 0
M  V30 15 H 0.2871 1.0838 -0.1722 0
M  V30 16 H 1.7983 -1.2642 0.6039 0
M  V30 END ATOM
M  V30 BEGIN BOND
M  V30 1 2 1 2
M  V30 2 1 2 3
M  V30 3 1 2 4
M  V30 4 1 4 5
M  V30 5 1 5 6
M  V30 6 1 6 7
M  V30 7 1 7 8
M  V30 8 2 8 9
M  V30 9 1 8 10
M  V30 10 1 4 11
M  V30 11 1 5 12
M  V30 12 1 5 13
M  V30 13 1 6 14
M  V30 14 1 6 15
M  V30 15 1 7 16
M  V30 END BOND
M  V30 END CTAB
M  END
>  <Structure No>
3618

>  <LogS>
-0.1078

>  <MMFF94 Energy>
-72.735

$$$$
Compound 3619
Actelion Java MolfileCreator 2.0

  0  0  0  0  0  0              0 V3000
M  V30 BEGIN CTAB
M  V30 COUNTS 17 17 0 0 0
M  V30 BEGIN ATOM
M  V30 1 N -1.3916 -0.0772 0.1545 0 CHG=1
M  V30 2 C -0.5984 -1.2375 -0.3012 0
M  V30 3 C -0.5882 1.1364 0.4085 0
M  V30 4 C 0.8446 -1.1811 0.2185 0
M  V30 5 C 0.6664 1.1855 -0.4758 0
M  V30 6 N 1.5496 0.0245 -0.2547 0
M  V30 7 H -1.8961 -0.3326 1.0358 0
M  V30 8 H -2.1152 0.1377 -0.5711 0
M  V30 9 H -0.5758 -1.2677 -1.4141 0
M  V30 10 H -1.0758 -2.1811 0.0447 0
M  V30 11 H -1.2046 2.0435 0.2206 0
M  V30 12 H -0.2736 1.1666 1.4763 0
M  V30 13 H 0.8305 -1.2071 1.3318 0
M  V30 14 H 1.3944 -2.079 -0.1345 0
M  V30 15 H 1.2222 2.1278 -0.2742 0
M  V30 16 H 0.3589 1.206 -1.5434 0
M  V30 17 H 2.2666 0.2823 0.4635 0
M  V30 END ATOM
M  V30 BEGIN BOND
M  V30 1 1 1 2
M  V30 2 1 1 3
M  V30 3 1 2 4
M  V30 4 1 3 5
M  V30 5 1 4 6
M  V30 6 1 5 6
M  V30 7 1 1 7
M  V30 8 1 1 8
M  V30 9 1 2 9
M  V30 10 1 2 10
M  V30 11 1 3 11
M  V30 12 1 3 12
M  V30 13 1 4 13
M  V30 14 1 4 14
M  V30 15 1 5 15
M  V30 16 1 5 16
M  V30 17 1 6 17
M  V30 END BOND
M  V30 END CTAB
M  END
>  <Structure No>
3619

>  <LogS>
0.4112

>  <MMFF94 Energy>
80.018

$$$$
Compound 3620
Actelion Java MolfileCreator 2.0

  0  0  0  0  0  0              0 V3000
M  V30 BEGIN CTAB
M  V30 COUNTS 26 25 0 0 0
M  V30 BEGIN ATOM
M  V30 1 O 3.4948 0.2326 -1.1638 0
M  V30 2 C 3.0964 0.158 0.0301 0
M  V30 3 O 1.9189 0.7959 0.4352 0
M  V30 4 C 3.8655 -0.6548 1.0146 0
M  V30 5 C 1.0728 1.5242 -0.4538 0
M  V30 6 C 0.2679 0.5828 -1.3622 0
M  V30 7 C -0.533 -0.4808 -0.5925 0
M  V30 8 C -1.6734 0.1226 0.2402 0
M  V30 9 C -2.5333 -0.9785 0.8713 0
M  V30 10 C -3.6607 -0.385 1.711 0
M  V30 11 H 3.6448 -0.3095 2.0463 0
M  V30 12 H 4.955 -0.5509 0.8272 0
M  V30 13 H 3.5763 -1.7219 0.9182 0
M  V30 14 H 1.682 2.2156 -1.0757 0
M  V30 15 H 0.38 2.1514 0.1438 0
M  V30 16 H 0.9677 0.0647 -2.052 0
M  V30 17 H -0.4218 1.1866 -1.991 0
M  V30 18 H -0.9653 -1.1847 -1.337 0
M  V30 19 H 0.1458 -1.067 0.0642 0
M  V30 20 H -1.2498 0.7543 1.0501 0
M  V30 21 H -2.312 0.7587 -0.4114 0
M  V30 22 H -2.9765 -1.6128 0.073 0
M  V30 23 H -1.9007 -1.6213 1.5216 0
M  V30 24 H -3.2444 0.2329 2.5349 0
M  V30 25 H -4.2659 -1.2043 2.1531 0
M  V30 26 H -4.3228 0.2442 1.0788 0
M  V30 END ATOM
M  V30 BEGIN BOND
M  V30 1 2 1 2
M  V30 2 1 2 3
M  V30 3 1 2 4
M  V30 4 1 3 5
M  V30 5 1 5 6
M  V30 6 1 6 7
M  V30 7 1 7 8
M  V30 8 1 8 9
M  V30 9 1 9 10
M  V30 10 1 4 11
M  V30 11 1 4 12
M  V30 12 1 4 13
M  V30 13 1 5 14
M  V30 14 1 5 15
M  V30 15 1 6 16
M  V30 16 1 6 17
M  V30 17 1 7 18
M  V30 18 1 7 19
M  V30 19 1 8 20
M  V30 20 1 8 21
M  V30 21 1 9 22
M  V30 22 1 9 23
M  V30 23 1 10 24
M  V30 24 1 10 25
M  V30 25 1 10 26
M  V30 END BOND
M  V30 END CTAB
M  END
>  <Structure No>
3620

>  <LogS>
-2.451

>  <MMFF94 Energy>
-12.051

$$$$
Compound 3621
Actelion Java MolfileCreator 2.0

  0  0  0  0  0  0              0 V3000
M  V30 BEGIN CTAB
M  V30 COUNTS 41 40 0 0 0
M  V30 BEGIN ATOM
M  V30 1 N 0.231 -0.4621 0.231 0 CHG=1
M  V30 2 C 0.7691 0.2875 -0.9188 0
M  V30 3 C -1.1467 -0.9309 -0.0111 0
M  V30 4 C 2.1445 0.9051 -0.6117 0
M  V30 5 C -2.1932 0.1601 0.2791 0
M  V30 6 C 3.2502 -0.1508 -0.4664 0
M  V30 7 C -3.6161 -0.3748 0.0747 0
M  V30 8 C 4.6252 0.5115 -0.3179 0
M  V30 9 C -4.6607 0.7106 0.3742 0
M  V30 10 C 5.7286 -0.5407 -0.1588 0
M  V30 11 C -6.0941 0.2521 0.0647 0
M  V30 12 C 7.0986 0.1149 -0.0122 0
M  V30 13 C -6.6054 -0.797 1.0514 0
M  V30 14 H 0.2646 0.1256 1.0969 0
M  V30 15 H 0.8271 -1.3072 0.3877 0
M  V30 16 H 0.0855 1.1209 -1.1875 0
M  V30 17 H 0.8522 -0.3782 -1.8072 0
M  V30 18 H -1.2596 -1.2991 -1.0562 0
M  V30 19 H -1.353 -1.7955 0.6597 0
M  V30 20 H 2.407 1.5882 -1.4492 0
M  V30 21 H 2.0825 1.517 0.3146 0
M  V30 22 H -2.0344 1.0273 -0.3954 0
M  V30 23 H -2.0815 0.5067 1.3299 0
M  V30 24 H 3.0553 -0.7745 0.4319 0
M  V30 25 H 3.2551 -0.8083 -1.3634 0
M  V30 26 H -3.7305 -0.7182 -0.9768 0
M  V30 27 H -3.7749 -1.2417 0.7509 0
M  V30 28 H 4.6188 1.1759 0.5744 0
M  V30 29 H 4.8354 1.1304 -1.2181 0
M  V30 30 H -4.5874 1.024 1.439 0
M  V30 31 H -4.4434 1.6019 -0.2545 0
M  V30 32 H 5.7424 -1.207 -1.0487 0
M  V30 33 H 5.5288 -1.1606 0.7422 0
M  V30 34 H -6.7648 1.1369 0.1198 0
M  V30 35 H -6.1528 -0.1492 -0.9702 0
M  V30 36 H 7.8759 -0.6697 0.1012 0
M  V30 37 H 7.1196 0.7682 0.8861 0
M  V30 38 H 7.3346 0.7212 -0.9125 0
M  V30 39 H -7.6787 -0.9993 0.8508 0
M  V30 40 H -6.5045 -0.4314 2.0953 0
M  V30 41 H -6.0483 -1.7496 0.9369 0
M  V30 END ATOM
M  V30 BEGIN BOND
M  V30 1 1 1 2
M  V30 2 1 1 3
M  V30 3 1 2 4
M  V30 4 1 3 5
M  V30 5 1 4 6
M  V30 6 1 5 7
M  V30 7 1 6 8
M  V30 8 1 7 9
M  V30 9 1 8 10
M  V30 10 1 9 11
M  V30 11 1 10 12
M  V30 12 1 11 13
M  V30 13 1 1 14
M  V30 14 1 1 15
M  V30 15 1 2 16
M  V30 16 1 2 17
M  V30 17 1 3 18
M  V30 18 1 3 19
M  V30 19 1 4 20
M  V30 20 1 4 21
M  V30 21 1 5 22
M  V30 22 1 5 23
M  V30 23 1 6 24
M  V30 24 1 6 25
M  V30 25 1 7 26
M  V30 26 1 7 27
M  V30 27 1 8 28
M  V30 28 1 8 29
M  V30 29 1 9 30
M  V30 30 1 9 31
M  V30 31 1 10 32
M  V30 32 1 10 33
M  V30 33 1 11 34
M  V30 34 1 11 35
M  V30 35 1 12 36
M  V30 36 1 12 37
M  V30 37 1 12 38
M  V30 38 1 13 39
M  V30 39 1 13 40
M  V30 40 1 13 41
M  V30 END BOND
M  V30 END CTAB
M  END
>  <Structure No>
3621

>  <LogS>
-3.1574

>  <MMFF94 Energy>
-2.1823

$$$$
Compound 3622
Actelion Java MolfileCreator 2.0

  0  0  0  0  0  0              0 V3000
M  V30 BEGIN CTAB
M  V30 COUNTS 36 35 0 0 0
M  V30 BEGIN ATOM
M  V30 1 O -1.0084 0.3877 0.4653 0
M  V30 2 C -1.1808 -1.0018 0.6751 0
M  V30 3 C -0.7614 0.6849 -0.898 0
M  V30 4 C -2.6459 -1.3978 0.4997 0
M  V30 5 C 0.7145 1.0112 -1.1049 0
M  V30 6 O -3.445 -0.6413 1.3854 0
M  V30 7 O 1.4906 -0.1468 -0.8776 0
M  V30 8 C -4.8208 -0.877 1.1462 0
M  V30 9 C 2.8695 0.1704 -0.8678 0
M  V30 10 C -5.4609 0.3612 0.5259 0
M  V30 11 C 3.3602 0.3187 0.578 0
M  V30 12 O -4.9166 0.5968 -0.7425 0
M  V30 13 C 4.8334 0.7455 0.6648 0
M  V30 14 C 5.7956 -0.3593 0.2304 0
M  V30 15 H -0.5288 -1.6266 0.0218 0
M  V30 16 H -0.8806 -1.2299 1.7198 0
M  V30 17 H -1.0775 -0.1145 -1.6089 0
M  V30 18 H -1.355 1.5859 -1.1617 0
M  V30 19 H -2.7459 -2.4827 0.7286 0
M  V30 20 H -2.9408 -1.2223 -0.5594 0
M  V30 21 H 0.8531 1.3597 -2.153 0
M  V30 22 H 0.9933 1.8341 -0.407 0
M  V30 23 H -5.0357 -1.7693 0.5096 0
M  V30 24 H -5.3104 -1.0656 2.125 0
M  V30 25 H 3.1213 1.0814 -1.4626 0
M  V30 26 H 3.4065 -0.675 -1.3449 0
M  V30 27 H -6.558 0.1974 0.4378 0
M  V30 28 H -5.281 1.2397 1.1853 0
M  V30 29 H 2.7472 1.0928 1.0876 0
M  V30 30 H 3.209 -0.6379 1.1242 0
M  V30 31 H -5.3616 1.415 -1.0849 0
M  V30 32 H 5.0605 1.0091 1.7205 0
M  V30 33 H 5.0057 1.6541 0.0477 0
M  V30 34 H 5.6011 -1.2916 0.8021 0
M  V30 35 H 6.8398 -0.0367 0.4264 0
M  V30 36 H 5.6959 -0.5629 -0.8557 0
M  V30 END ATOM
M  V30 BEGIN BOND
M  V30 1 1 1 2
M  V30 2 1 1 3
M  V30 3 1 2 4
M  V30 4 1 3 5
M  V30 5 1 4 6
M  V30 6 1 5 7
M  V30 7 1 6 8
M  V30 8 1 7 9
M  V30 9 1 8 10
M  V30 10 1 9 11
M  V30 11 1 10 12
M  V30 12 1 11 13
M  V30 13 1 13 14
M  V30 14 1 2 15
M  V30 15 1 2 16
M  V30 16 1 3 17
M  V30 17 1 3 18
M  V30 18 1 4 19
M  V30 19 1 4 20
M  V30 20 1 5 21
M  V30 21 1 5 22
M  V30 22 1 8 23
M  V30 23 1 8 24
M  V30 24 1 9 25
M  V30 25 1 9 26
M  V30 26 1 10 27
M  V30 27 1 10 28
M  V30 28 1 11 29
M  V30 29 1 11 30
M  V30 30 1 12 31
M  V30 31 1 13 32
M  V30 32 1 13 33
M  V30 33 1 14 34
M  V30 34 1 14 35
M  V30 35 1 14 36
M  V30 END BOND
M  V30 END CTAB
M  END
>  <Structure No>
3622

>  <LogS>
0.6855

>  <MMFF94 Energy>
66.433

$$$$
Compound 3623
Actelion Java MolfileCreator 2.0

  0  0  0  0  0  0              0 V3000
M  V30 BEGIN CTAB
M  V30 COUNTS 21 25 0 0 0
M  V30 BEGIN ATOM
M  V30 1 Cl -3.2528 0.1015 -0.711 0
M  V30 2 C -1.832 0.6619 0.2241 0
M  V30 3 Cl -2.3261 1.944 1.3729 0
M  V30 4 C -1.1057 -0.4694 0.9016 0 CFG=1
M  V30 5 C -0.6921 1.0901 -0.6611 0 CFG=1
M  V30 6 Cl -2.0138 -1.4076 2.1342 0
M  V30 7 C -0.3726 -1.2876 -0.1882 0 CFG=2
M  V30 8 C 0.295 0.041 1.3154 0 CFG=2
M  V30 9 Cl -0.9833 2.4793 -1.7607 0
M  V30 10 C 0.5892 1.1501 0.204 0 CFG=2
M  V30 11 C -0.0789 -0.1795 -1.2985 0 CFG=2
M  V30 12 Cl -1.0232 -2.8797 -0.6823 0
M  V30 13 C 0.9029 -1.2305 0.6816 0 CFG=1
M  V30 14 Cl 0.6296 0.4049 3.0351 0
M  V30 15 Cl 1.2485 2.7391 0.6959 0
M  V30 16 C 1.3185 0.3367 -0.8889 0 CFG=2
M  V30 17 Cl -0.4051 -0.5478 -3.019 0
M  V30 18 Cl 1.2416 -2.6247 1.7554 0
M  V30 19 C 1.9671 -0.7653 -0.1949 0
M  V30 20 Cl 2.2655 1.2373 -2.115 0
M  V30 21 O 3.1646 -0.9804 -0.0927 0
M  V30 END ATOM
M  V30 BEGIN BOND
M  V30 1 1 1 2
M  V30 2 1 2 3
M  V30 3 1 2 4
M  V30 4 1 2 5
M  V30 5 1 4 6
M  V30 6 1 4 7
M  V30 7 1 4 8
M  V30 8 1 5 9
M  V30 9 1 5 10
M  V30 10 1 5 11
M  V30 11 1 7 12
M  V30 12 1 7 13
M  V30 13 1 8 14
M  V30 14 1 10 15
M  V30 15 1 10 16
M  V30 16 1 11 17
M  V30 17 1 13 18
M  V30 18 1 13 19
M  V30 19 1 16 20
M  V30 20 2 19 21
M  V30 21 1 7 11
M  V30 22 1 8 10
M  V30 23 1 8 13
M  V30 24 1 11 16
M  V30 25 1 16 19
M  V30 END BOND
M  V30 BEGIN COLLECTION
M  V30 MDLV30/STEABS ATOMS=(8 4 5 7 8 10 11 13 16)
M  V30 END COLLECTION
M  V30 END CTAB
M  END
>  <Structure No>
3623

>  <LogS>
-5.2594

>  <MMFF94 Energy>
13.7

$$$$
Compound 3624
Actelion Java MolfileCreator 2.0

  0  0  0  0  0  0              0 V3000
M  V30 BEGIN CTAB
M  V30 COUNTS 31 31 0 0 0
M  V30 BEGIN ATOM
M  V30 1 O -1.3551 4.0696 -0.7172 0
M  V30 2 C -1.3692 2.8434 -0.4303 0
M  V30 3 N -1.4621 2.4243 0.9293 0
M  V30 4 N -1.3377 1.8633 -1.4645 0
M  V30 5 C -1.4036 1.0316 1.2604 0
M  V30 6 C -1.3369 0.4726 -1.1267 0
M  V30 7 O -1.7344 0.6748 2.4248 0
M  V30 8 C -0.849 0.0144 0.2524 0
M  V30 9 O -1.7065 -0.3591 -1.9984 0
M  V30 10 C 0.73 0.1015 0.3197 0 CFG=2
M  V30 11 C -1.4371 -1.4004 0.6107 0
M  V30 12 C 1.4869 -0.6051 -0.8454 0
M  V30 13 C 1.2973 -0.3605 1.6795 0
M  V30 14 C -0.8748 -2.6119 -0.1449 0
M  V30 15 C 2.8142 0.0802 -1.1788 0
M  V30 16 H -1.6326 3.1315 1.6796 0
M  V30 17 H -1.427 2.1583 -2.4629 0
M  V30 18 H 0.9793 1.1851 0.2424 0
M  V30 19 H -2.5375 -1.3739 0.4453 0
M  V30 20 H -1.296 -1.6153 1.6922 0
M  V30 21 H 0.8881 -0.6102 -1.7771 0
M  V30 22 H 1.7079 -1.6617 -0.5913 0
M  V30 23 H 2.3892 -0.171 1.7296 0
M  V30 24 H 0.8358 0.2009 2.5169 0
M  V30 25 H 1.1293 -1.4445 1.8397 0
M  V30 26 H -1.5834 -3.4613 -0.0453 0
M  V30 27 H -0.7293 -2.4194 -1.2241 0
M  V30 28 H 0.0828 -2.9406 0.3047 0
M  V30 29 H 3.4995 0.0645 -0.3065 0
M  V30 30 H 3.3069 -0.455 -2.0178 0
M  V30 31 H 2.6387 1.1321 -1.4901 0
M  V30 END ATOM
M  V30 BEGIN BOND
M  V30 1 2 1 2
M  V30 2 1 2 3
M  V30 3 1 2 4
M  V30 4 1 3 5
M  V30 5 1 4 6
M  V30 6 2 5 7
M  V30 7 1 5 8
M  V30 8 2 6 9
M  V30 9 1 8 10
M  V30 10 1 8 11
M  V30 11 1 10 12
M  V30 12 1 10 13
M  V30 13 1 11 14
M  V30 14 1 12 15
M  V30 15 1 6 8
M  V30 16 1 3 16
M  V30 17 1 4 17
M  V30 18 1 10 18
M  V30 19 1 11 19
M  V30 20 1 11 20
M  V30 21 1 12 21
M  V30 22 1 12 22
M  V30 23 1 13 23
M  V30 24 1 13 24
M  V30 25 1 13 25
M  V30 26 1 14 26
M  V30 27 1 14 27
M  V30 28 1 14 28
M  V30 29 1 15 29
M  V30 30 1 15 30
M  V30 31 1 15 31
M  V30 END BOND
M  V30 BEGIN COLLECTION
M  V30 MDLV30/STEABS ATOMS=(1 10)
M  V30 END COLLECTION
M  V30 END CTAB
M  END
>  <Structure No>
3624

>  <LogS>
0.1528

>  <MMFF94 Energy>
-119.88

$$$$
Compound 3625
Actelion Java MolfileCreator 2.0

  0  0  0  0  0  0              0 V3000
M  V30 BEGIN CTAB
M  V30 COUNTS 20 20 0 0 0
M  V30 BEGIN ATOM
M  V30 1 O -0.8257 0.5779 -2.3961 0
M  V30 2 C -0.713 0.855 -1.1723 0
M  V30 3 O -1.3375 1.9013 -0.5729 0
M  V30 4 C 0.1003 0.1172 -0.1854 0
M  V30 5 C -0.975 1.9025 0.7932 0
M  V30 6 O -0.1115 0.7973 1.0449 0
M  V30 7 C 1.5926 0.2098 -0.5797 0
M  V30 8 C -0.3675 -1.3545 -0.0667 0
M  V30 9 C 2.5013 -0.3533 0.4724 0
M  V30 10 C -1.8059 -1.4696 0.3475 0
M  V30 11 O 2.8007 0.3327 1.485 0
M  V30 12 O 2.9957 -1.6454 0.3467 0 CHG=-1
M  V30 13 O -2.7098 -1.58 -0.5222 0
M  V30 14 O -2.1491 -1.4158 1.6927 0 CHG=-1
M  V30 15 H -0.4485 2.8487 1.0384 0
M  V30 16 H -1.8865 1.8127 1.4207 0
M  V30 17 H 1.8715 1.2741 -0.7472 0
M  V30 18 H 1.7659 -0.331 -1.536 0
M  V30 19 H 0.2467 -1.8846 0.6916 0
M  V30 20 H -0.2202 -1.8788 -1.0367 0
M  V30 END ATOM
M  V30 BEGIN BOND
M  V30 1 2 1 2
M  V30 2 1 2 3
M  V30 3 1 2 4
M  V30 4 1 3 5
M  V30 5 1 4 6
M  V30 6 1 4 7
M  V30 7 1 4 8
M  V30 8 1 7 9
M  V30 9 1 8 10
M  V30 10 2 9 11
M  V30 11 1 9 12
M  V30 12 2 10 13
M  V30 13 1 10 14
M  V30 14 1 5 6
M  V30 15 1 5 15
M  V30 16 1 5 16
M  V30 17 1 7 17
M  V30 18 1 7 18
M  V30 19 1 8 19
M  V30 20 1 8 20
M  V30 END BOND
M  V30 END CTAB
M  END
>  <Structure No>
3625

>  <LogS>
-0.611

>  <MMFF94 Energy>
30.929

$$$$
Compound 3626
Actelion Java MolfileCreator 2.0

  0  0  0  0  0  0              0 V3000
M  V30 BEGIN CTAB
M  V30 COUNTS 7 6 0 0 0
M  V30 BEGIN ATOM
M  V30 1 F 1.3717 0.4033 -0.8874 0
M  V30 2 C 0.6466 -0.0756 0.1872 0
M  V30 3 C -0.8095 0.1234 -0.0661 0
M  V30 4 O -1.3575 1.2197 0.2222 0
M  V30 5 O -1.5541 -0.8808 -0.671 0 CHG=-1
M  V30 6 H 0.862 -1.1564 0.3216 0
M  V30 7 H 0.9515 0.4664 1.1073 0
M  V30 END ATOM
M  V30 BEGIN BOND
M  V30 1 1 1 2
M  V30 2 1 2 3
M  V30 3 2 3 4
M  V30 4 1 3 5
M  V30 5 1 2 6
M  V30 6 1 2 7
M  V30 END BOND
M  V30 END CTAB
M  END
>  <Structure No>
3626

>  <LogS>
1.1077

>  <MMFF94 Energy>
51.876

$$$$
Compound 3627
Actelion Java MolfileCreator 2.0

  0  0  0  0  0  0              0 V3000
M  V30 BEGIN CTAB
M  V30 COUNTS 17 16 0 0 0
M  V30 BEGIN ATOM
M  V30 1 O 0.6965 2.556 -0.1547 0
M  V30 2 C 0.8663 1.4105 0.3399 0
M  V30 3 O 1.358 1.2912 1.6345 0 CHG=-1
M  V30 4 C 0.5131 0.181 -0.4605 0 CFG=1
M  V30 5 N 1.6369 -0.7642 -0.4617 0 CHG=1
M  V30 6 C -0.782 -0.4941 0.062 0 CFG=1
M  V30 7 O -0.664 -0.8203 1.4242 0
M  V30 8 C -2.0056 0.4062 -0.1291 0
M  V30 9 H 0.3329 0.4923 -1.5156 0
M  V30 10 H 1.8622 -1.0818 0.509 0
M  V30 11 H 2.4824 -0.3053 -0.8731 0
M  V30 12 H 1.4006 -1.5971 -1.0485 0
M  V30 13 H -0.9681 -1.4173 -0.5371 0
M  V30 14 H -0.2569 -1.7242 1.4742 0
M  V30 15 H -2.1193 0.6828 -1.199 0
M  V30 16 H -2.9212 -0.1345 0.1913 0
M  V30 17 H -1.9141 1.3312 0.4787 0
M  V30 END ATOM
M  V30 BEGIN BOND
M  V30 1 2 1 2
M  V30 2 1 2 3
M  V30 3 1 2 4
M  V30 4 1 4 5
M  V30 5 1 4 6
M  V30 6 1 6 7
M  V30 7 1 6 8
M  V30 8 1 4 9
M  V30 9 1 5 10
M  V30 10 1 5 11
M  V30 11 1 5 12
M  V30 12 1 6 13
M  V30 13 1 7 14
M  V30 14 1 8 15
M  V30 15 1 8 16
M  V30 16 1 8 17
M  V30 END BOND
M  V30 BEGIN COLLECTION
M  V30 MDLV30/STEABS ATOMS=(2 4 6)
M  V30 END COLLECTION
M  V30 END CTAB
M  END
>  <Structure No>
3627

>  <LogS>
0.067

>  <MMFF94 Energy>
7.8784

$$$$
Compound 3628
Actelion Java MolfileCreator 2.0

  0  0  0  0  0  0              0 V3000
M  V30 BEGIN CTAB
M  V30 COUNTS 14 13 0 0 0
M  V30 BEGIN ATOM
M  V30 1 O 2.1932 0.6494 0.9743 0
M  V30 2 C 1.7008 0.3149 -0.1356 0
M  V30 3 O 2.2566 0.8103 -1.3085 0 CHG=-1
M  V30 4 C 0.5059 -0.5995 -0.197 0 CFG=1
M  V30 5 O 0.789 -1.81 0.46 0
M  V30 6 C -0.7599 0.0691 0.3955 0 CFG=2
M  V30 7 O -1.8314 -0.84 0.4464 0
M  V30 8 C -1.1582 1.2962 -0.3811 0
M  V30 9 O -1.5633 1.1968 -1.5697 0
M  V30 10 O -1.0633 2.5512 0.2073 0 CHG=-1
M  V30 11 H 0.311 -0.8407 -1.265 0
M  V30 12 H 0.8963 -1.6126 1.4277 0
M  V30 13 H -0.5395 0.3791 1.4406 0
M  V30 14 H -1.9898 -1.1749 -0.4751 0
M  V30 END ATOM
M  V30 BEGIN BOND
M  V30 1 2 1 2
M  V30 2 1 2 3
M  V30 3 1 2 4
M  V30 4 1 4 5
M  V30 5 1 4 6
M  V30 6 1 6 7
M  V30 7 1 6 8
M  V30 8 2 8 9
M  V30 9 1 8 10
M  V30 10 1 4 11
M  V30 11 1 5 12
M  V30 12 1 6 13
M  V30 13 1 7 14
M  V30 END BOND
M  V30 BEGIN COLLECTION
M  V30 MDLV30/STEABS ATOMS=(2 4 6)
M  V30 END COLLECTION
M  V30 END CTAB
M  END
>  <Structure No>
3628

>  <LogS>
0.8236

>  <MMFF94 Energy>
173.48

$$$$
Compound 3629
Actelion Java MolfileCreator 2.0

  0  0  0  0  0  0              0 V3000
M  V30 BEGIN CTAB
M  V30 COUNTS 23 23 0 0 0
M  V30 BEGIN ATOM
M  V30 1 O -1.8665 -3.1666 0.4055 0
M  V30 2 N -2.1424 -2.0065 0.775 0 CHG=1
M  V30 3 O -3.3451 -1.7797 1.4041 0 CHG=-1
M  V30 4 C -1.3308 -0.896 0.3532 0
M  V30 5 C 0.0863 -0.9724 0.3336 0
M  V30 6 C -1.9673 0.2856 -0.0537 0
M  V30 7 C 0.8314 0.1117 -0.2021 0
M  V30 8 C 0.7908 -2.178 0.9151 0
M  V30 9 C -1.233 1.3788 -0.5295 0
M  V30 10 C 2.3037 0.0505 -0.3734 0
M  V30 11 C 0.1623 1.2753 -0.6135 0
M  V30 12 N -1.9072 2.5798 -0.9512 0 CHG=1
M  V30 13 O 2.8449 -1.0022 -0.8057 0
M  V30 14 N 3.1217 1.1844 -0.0787 0
M  V30 15 O -1.2599 3.5573 -1.3807 0
M  V30 16 O -3.2783 2.6752 -0.879 0 CHG=-1
M  V30 17 H -3.0477 0.341 -0.0209 0
M  V30 18 H 0.2075 -2.6203 1.7492 0
M  V30 19 H 0.9445 -2.941 0.1239 0
M  V30 20 H 1.7703 -1.8994 1.3556 0
M  V30 21 H 0.7314 2.0995 -1.0255 0
M  V30 22 H 4.1522 1.1443 -0.2419 0
M  V30 23 H 2.7157 2.0467 0.3475 0
M  V30 END ATOM
M  V30 BEGIN BOND
M  V30 1 2 1 2
M  V30 2 1 2 3
M  V30 3 1 2 4
M  V30 4 2 4 5
M  V30 5 1 4 6
M  V30 6 1 5 7
M  V30 7 1 5 8
M  V30 8 2 6 9
M  V30 9 1 7 10
M  V30 10 2 7 11
M  V30 11 1 9 12
M  V30 12 2 10 13
M  V30 13 1 10 14
M  V30 14 2 12 15
M  V30 15 1 12 16
M  V30 16 1 9 11
M  V30 17 1 6 17
M  V30 18 1 8 18
M  V30 19 1 8 19
M  V30 20 1 8 20
M  V30 21 1 11 21
M  V30 22 1 14 22
M  V30 23 1 14 23
M  V30 END BOND
M  V30 END CTAB
M  END
>  <Structure No>
3629

>  <LogS>
-2.3525

>  <MMFF94 Energy>
44.855

$$$$
Compound 3630
Actelion Java MolfileCreator 2.0

  0  0  0  0  0  0              0 V3000
M  V30 BEGIN CTAB
M  V30 COUNTS 25 26 0 0 0
M  V30 BEGIN ATOM
M  V30 1 S 2.9052 1.4958 0.5277 0
M  V30 2 O 2.7253 2.1846 1.8509 0
M  V30 3 O 3.16 2.5005 -0.5598 0
M  V30 4 N 4.2219 0.3928 0.621 0 CHG=-1
M  V30 5 C 1.4926 0.547 0.1486 0
M  V30 6 C 4.0343 -1.0064 0.4026 0
M  V30 7 C 1.6141 -0.8374 -0.0159 0
M  V30 8 C 0.248 1.1654 0.0206 0
M  V30 9 N 2.8723 -1.5241 0.1227 0
M  V30 10 C 0.4774 -1.5892 -0.3246 0
M  V30 11 C -0.9033 0.4194 -0.2787 0
M  V30 12 C -0.7867 -0.9846 -0.4888 0
M  V30 13 S -2.4442 1.2967 -0.3903 0
M  V30 14 C -1.9785 -1.8726 -0.8031 0
M  V30 15 O -2.8552 1.413 -1.8309 0
M  V30 16 O -2.2886 2.6812 0.1758 0
M  V30 17 N -3.6787 0.4859 0.5081 0
M  V30 18 F -1.5752 -3.0976 -1.3071 0
M  V30 19 F -2.796 -1.2913 -1.7527 0
M  V30 20 F -2.7011 -2.0992 0.3528 0
M  V30 21 H 4.8924 -1.6601 0.4727 0
M  V30 22 H 0.1828 2.2369 0.16 0
M  V30 23 H 0.5921 -2.6603 -0.4349 0
M  V30 24 H -3.382 0.4934 1.5098 0
M  V30 25 H -4.5406 1.0726 0.4436 0
M  V30 END ATOM
M  V30 BEGIN BOND
M  V30 1 2 1 2
M  V30 2 2 1 3
M  V30 3 1 1 4
M  V30 4 1 1 5
M  V30 5 1 4 6
M  V30 6 2 5 7
M  V30 7 1 5 8
M  V30 8 2 6 9
M  V30 9 1 7 10
M  V30 10 2 8 11
M  V30 11 2 10 12
M  V30 12 1 11 13
M  V30 13 1 12 14
M  V30 14 2 13 15
M  V30 15 2 13 16
M  V30 16 1 13 17
M  V30 17 1 14 18
M  V30 18 1 14 19
M  V30 19 1 14 20
M  V30 20 1 7 9
M  V30 21 1 11 12
M  V30 22 1 6 21
M  V30 23 1 8 22
M  V30 24 1 10 23
M  V30 25 1 17 24
M  V30 26 1 17 25
M  V30 END BOND
M  V30 END CTAB
M  END
>  <Structure No>
3630

>  <LogS>
-0.8186

>  <MMFF94 Energy>
-80.829

$$$$
Compound 3631
Actelion Java MolfileCreator 2.0

  0  0  0  0  0  0              0 V3000
M  V30 BEGIN CTAB
M  V30 COUNTS 21 23 0 0 0
M  V30 BEGIN ATOM
M  V30 1 S -4.777 0.3289 0.2466 0
M  V30 2 C -4.3245 -1.2576 0.5594 0
M  V30 3 C -3.2008 0.8669 0.0238 0
M  V30 4 N -2.9828 -1.3959 0.4988 0
M  V30 5 C -2.3532 -0.2253 0.2031 0
M  V30 6 C -0.8866 -0.1539 0.0887 0
M  V30 7 N -0.0872 -1.2398 0.2699 0
M  V30 8 N -0.2013 0.9821 -0.2033 0
M  V30 9 C 1.1458 -0.7386 0.0782 0
M  V30 10 C 1.079 0.5924 -0.2053 0
M  V30 11 C 2.3614 -1.4159 0.1429 0
M  V30 12 C 2.2172 1.3581 -0.4478 0
M  V30 13 C 3.5354 -0.6756 -0.0965 0
M  V30 14 C 3.4635 0.7059 -0.3906 0
M  V30 15 H -5.0015 -2.0712 0.781 0
M  V30 16 H -2.9114 1.8811 -0.2148 0
M  V30 17 H -0.5721 1.9409 -0.3857 0
M  V30 18 H 2.403 -2.4734 0.369 0
M  V30 19 H 2.147 2.4148 -0.6717 0
M  V30 20 H 4.4985 -1.1674 -0.055 0
M  V30 21 H 4.3718 1.2653 -0.573 0
M  V30 END ATOM
M  V30 BEGIN BOND
M  V30 1 1 1 2
M  V30 2 1 1 3
M  V30 3 2 2 4
M  V30 4 2 3 5
M  V30 5 1 5 6
M  V30 6 2 6 7
M  V30 7 1 6 8
M  V30 8 1 7 9
M  V30 9 1 8 10
M  V30 10 1 9 11
M  V30 11 1 10 12
M  V30 12 2 11 13
M  V30 13 2 12 14
M  V30 14 1 4 5
M  V30 15 2 9 10
M  V30 16 1 13 14
M  V30 17 1 2 15
M  V30 18 1 3 16
M  V30 19 1 8 17
M  V30 20 1 11 18
M  V30 21 1 12 19
M  V30 22 1 13 20
M  V30 23 1 14 21
M  V30 END BOND
M  V30 END CTAB
M  END
>  <Structure No>
3631

>  <LogS>
-3.6048

>  <MMFF94 Energy>
12.329

$$$$
Compound 3632
Actelion Java MolfileCreator 2.0

  0  0  0  0  0  0              0 V3000
M  V30 BEGIN CTAB
M  V30 COUNTS 23 23 0 0 0
M  V30 BEGIN ATOM
M  V30 1 Cl -1.6404 2.764 -1.3813 0
M  V30 2 C -2.2778 1.2297 -0.8087 0
M  V30 3 C -1.4151 0.248 -0.2938 0
M  V30 4 C -3.6566 0.9958 -0.871 0
M  V30 5 O -0.0382 0.517 -0.2462 0
M  V30 6 C -1.9564 -0.9724 0.1576 0
M  V30 7 C -4.1849 -0.2175 -0.421 0
M  V30 8 C 0.9449 -0.3875 0.2501 0
M  V30 9 C -3.3343 -1.2002 0.0927 0
M  V30 10 Cl -5.9133 -0.5067 -0.501 0
M  V30 11 C 2.3221 0.2514 0.1419 0
M  V30 12 O 3.2868 -0.6475 0.632 0
M  V30 13 S 4.8042 0.0996 0.5425 0
M  V30 14 O 4.8551 1.2798 1.4727 0
M  V30 15 O 5.8567 -0.8906 0.9525 0
M  V30 16 O 5.1182 0.6048 -1.0298 0 CHG=-1
M  V30 17 H -4.3165 1.7567 -1.269 0
M  V30 18 H -1.3224 -1.7504 0.5598 0
M  V30 19 H 0.7329 -0.6229 1.3161 0
M  V30 20 H 0.9273 -1.3246 -0.3479 0
M  V30 21 H -3.7393 -2.1414 0.4424 0
M  V30 22 H 2.3191 1.1916 0.7387 0
M  V30 23 H 2.5149 0.4868 -0.9286 0
M  V30 END ATOM
M  V30 BEGIN BOND
M  V30 1 1 1 2
M  V30 2 2 2 3
M  V30 3 1 2 4
M  V30 4 1 3 5
M  V30 5 1 3 6
M  V30 6 2 4 7
M  V30 7 1 5 8
M  V30 8 2 6 9
M  V30 9 1 7 10
M  V30 10 1 8 11
M  V30 11 1 11 12
M  V30 12 1 12 13
M  V30 13 2 13 14
M  V30 14 2 13 15
M  V30 15 1 13 16
M  V30 16 1 7 9
M  V30 17 1 4 17
M  V30 18 1 6 18
M  V30 19 1 8 19
M  V30 20 1 8 20
M  V30 21 1 9 21
M  V30 22 1 11 22
M  V30 23 1 11 23
M  V30 END BOND
M  V30 END CTAB
M  END
>  <Structure No>
3632

>  <LogS>
-0.0601

>  <MMFF94 Energy>
-19.105

$$$$
Compound 3633
Actelion Java MolfileCreator 2.0

  0  0  0  0  0  0              0 V3000
M  V30 BEGIN CTAB
M  V30 COUNTS 17 17 0 0 0
M  V30 BEGIN ATOM
M  V30 1 O 3.5541 -1.1298 0.4034 0
M  V30 2 C 2.8898 -0.0629 0.3147 0
M  V30 3 O 3.5616 1.1536 0.3504 0 CHG=-1
M  V30 4 C 1.4169 -0.1026 0.175 0
M  V30 5 C 0.6815 1.09 0.0766 0
M  V30 6 C 0.7335 -1.3302 0.1386 0
M  V30 7 C -0.7138 1.0598 -0.0559 0
M  V30 8 C -0.6583 -1.369 0.0065 0
M  V30 9 O -1.432 2.251 -0.1526 0
M  V30 10 C -1.3883 -0.1722 -0.0913 0
M  V30 11 O -1.299 -2.6076 -0.0254 0
M  V30 12 O -2.7769 -0.2203 -0.2229 0
M  V30 13 H 1.1869 2.0474 0.1025 0
M  V30 14 H 1.2776 -2.2638 0.2126 0
M  V30 15 H -0.9711 3.1532 -0.1297 0
M  V30 16 H -2.304 -2.6925 -0.1193 0
M  V30 17 H -3.3417 0.6174 -0.2965 0
M  V30 END ATOM
M  V30 BEGIN BOND
M  V30 1 2 1 2
M  V30 2 1 2 3
M  V30 3 1 2 4
M  V30 4 2 4 5
M  V30 5 1 4 6
M  V30 6 1 5 7
M  V30 7 2 6 8
M  V30 8 1 7 9
M  V30 9 2 7 10
M  V30 10 1 8 11
M  V30 11 1 10 12
M  V30 12 1 8 10
M  V30 13 1 5 13
M  V30 14 1 6 14
M  V30 15 1 9 15
M  V30 16 1 11 16
M  V30 17 1 12 17
M  V30 END BOND
M  V30 END CTAB
M  END
>  <Structure No>
3633

>  <LogS>
-1.1552

>  <MMFF94 Energy>
18.875

$$$$
Compound 3634
Actelion Java MolfileCreator 2.0

  0  0  0  0  0  0              0 V3000
M  V30 BEGIN CTAB
M  V30 COUNTS 25 25 0 0 0
M  V30 BEGIN ATOM
M  V30 1 O 3.5307 0.0783 -1.1758 0
M  V30 2 C 3.7707 0.0102 0.0596 0
M  V30 3 N 2.7399 -0.3601 0.9878 0
M  V30 4 N 5.0933 0.2635 0.5311 0
M  V30 5 C 1.3441 -0.4495 0.653 0
M  V30 6 C 0.7498 0.4353 -0.2632 0
M  V30 7 C 0.5424 -1.4016 1.2976 0
M  V30 8 C -0.6148 0.3432 -0.5538 0
M  V30 9 C -0.8212 -1.4944 1.0065 0
M  V30 10 C -1.4134 -0.6272 0.0817 0
M  V30 11 O -2.7875 -0.7694 -0.1731 0
M  V30 12 C -3.5725 0.089 -1.0008 0
M  V30 13 C -3.8761 1.4009 -0.2851 0
M  V30 14 H 3.0371 -0.6673 1.9416 0
M  V30 15 H 5.3143 0.2038 1.5496 0
M  V30 16 H 5.8531 0.5168 -0.1388 0
M  V30 17 H 1.3312 1.2148 -0.7371 0
M  V30 18 H 0.9782 -2.0806 2.02 0
M  V30 19 H -1.0345 1.036 -1.2688 0
M  V30 20 H -1.4234 -2.243 1.5058 0
M  V30 21 H -3.0693 0.272 -1.9736 0
M  V30 22 H -4.5348 -0.4208 -1.2171 0
M  V30 23 H -4.4083 1.1964 0.6678 0
M  V30 24 H -4.5215 2.0356 -0.928 0
M  V30 25 H -2.9405 1.9542 -0.0637 0
M  V30 END ATOM
M  V30 BEGIN BOND
M  V30 1 2 1 2
M  V30 2 1 2 3
M  V30 3 1 2 4
M  V30 4 1 3 5
M  V30 5 2 5 6
M  V30 6 1 5 7
M  V30 7 1 6 8
M  V30 8 2 7 9
M  V30 9 2 8 10
M  V30 10 1 10 11
M  V30 11 1 11 12
M  V30 12 1 12 13
M  V30 13 1 9 10
M  V30 14 1 3 14
M  V30 15 1 4 15
M  V30 16 1 4 16
M  V30 17 1 6 17
M  V30 18 1 7 18
M  V30 19 1 8 19
M  V30 20 1 9 20
M  V30 21 1 12 21
M  V30 22 1 12 22
M  V30 23 1 13 23
M  V30 24 1 13 24
M  V30 25 1 13 25
M  V30 END BOND
M  V30 END CTAB
M  END
>  <Structure No>
3634

>  <LogS>
-2.173

>  <MMFF94 Energy>
-68.469

$$$$
Compound 3635
Actelion Java MolfileCreator 2.0

  0  0  0  0  0  0              0 V3000
M  V30 BEGIN CTAB
M  V30 COUNTS 12 11 0 0 0
M  V30 BEGIN ATOM
M  V30 1 O -1.6227 0.6488 1.8663 0
M  V30 2 C -1.4428 0.5523 0.6239 0
M  V30 3 O -1.871 1.5734 -0.2148 0 CHG=-1
M  V30 4 C -0.7308 -0.637 0.056 0
M  V30 5 C 0.7906 -0.4893 0.1635 0
M  V30 6 C 1.3025 0.6103 -0.7159 0
M  V30 7 O 1.4921 0.403 -1.9433 0
M  V30 8 O 1.5308 1.8748 -0.188 0 CHG=-1
M  V30 9 H -1.0257 -0.7788 -1.0065 0
M  V30 10 H -1.0454 -1.5454 0.6139 0
M  V30 11 H 1.0806 -0.2916 1.2185 0
M  V30 12 H 1.2683 -1.4457 -0.1405 0
M  V30 END ATOM
M  V30 BEGIN BOND
M  V30 1 2 1 2
M  V30 2 1 2 3
M  V30 3 1 2 4
M  V30 4 1 4 5
M  V30 5 1 5 6
M  V30 6 2 6 7
M  V30 7 1 6 8
M  V30 8 1 4 9
M  V30 9 1 4 10
M  V30 10 1 5 11
M  V30 11 1 5 12
M  V30 END BOND
M  V30 END CTAB
M  END
>  <Structure No>
3635

>  <LogS>
0.0914

>  <MMFF94 Energy>
59.862

$$$$
Compound 3636
Actelion Java MolfileCreator 2.0

  0  0  0  0  0  0              0 V3000
M  V30 BEGIN CTAB
M  V30 COUNTS 2 1 0 0 0
M  V30 BEGIN ATOM
M  V30 1 N 0 0 0 0
M  V30 2 C 0 0 0 0
M  V30 END ATOM
M  V30 BEGIN BOND
M  V30 1 3 1 2
M  V30 END BOND
M  V30 END CTAB
M  END
>  <Structure No>
3636

>  <LogS>
1.0436

>  <MMFF94 Energy>
MMFF94 error code 2

$$$$
Compound 3637
Actelion Java MolfileCreator 2.0

  0  0  0  0  0  0              0 V3000
M  V30 BEGIN CTAB
M  V30 COUNTS 37 38 0 0 0
M  V30 BEGIN ATOM
M  V30 1 O 2.1489 1.7507 -2.0692 0
M  V30 2 C 2.6713 0.9326 -1.2658 0
M  V30 3 N 3.9749 1.0787 -0.9047 0
M  V30 4 C 1.9109 -0.1179 -0.7398 0
M  V30 5 C 4.5614 0.2056 -0.0404 0
M  V30 6 O 0.5605 -0.247 -1.087 0
M  V30 7 C 2.5454 -1.0306 0.1217 0
M  V30 8 N 3.8487 -0.8393 0.4544 0
M  V30 9 N 5.9279 0.3724 0.3369 0
M  V30 10 C -0.4961 -0.0769 -0.141 0 CFG=2
M  V30 11 N 1.8639 -2.1873 0.6143 0
M  V30 12 O -1.5866 -0.8923 -0.5321 0
M  V30 13 C -0.9239 1.4052 -0.0979 0 CFG=1
M  V30 14 C -2.5998 -0.8686 0.4611 0 CFG=1
M  V30 15 O -1.3104 1.8356 -1.379 0
M  V30 16 C -2.1092 1.5783 0.8742 0 CFG=1
M  V30 17 C -3.2165 0.5459 0.5738 0 CFG=1
M  V30 18 C -3.6673 -1.9111 0.1111 0
M  V30 19 O -1.6736 1.4156 2.2007 0
M  V30 20 O -3.8721 0.8788 -0.6244 0
M  V30 21 O -3.0966 -3.1904 0.1233 0
M  V30 22 H 4.531 1.8734 -1.2946 0
M  V30 23 H 6.4923 1.1669 -0.0378 0
M  V30 24 H 6.3787 -0.3011 0.9952 0
M  V30 25 H -0.1296 -0.3796 0.8681 0
M  V30 26 H 2.3436 -2.8285 1.2843 0
M  V30 27 H 0.9179 -2.4572 0.2658 0
M  V30 28 H -0.0705 2.0244 0.2671 0
M  V30 29 H -2.1831 -1.1631 1.4537 0
M  V30 30 H -0.4836 2.0897 -1.8641 0
M  V30 31 H -2.5353 2.6027 0.7555 0
M  V30 32 H -3.9517 0.5478 1.4133 0
M  V30 33 H -4.0865 -1.7015 -0.8985 0
M  V30 34 H -4.4908 -1.8666 0.8593 0
M  V30 35 H -1.1857 2.2444 2.4478 0
M  V30 36 H -4.4832 1.6336 -0.4177 0
M  V30 37 H -3.828 -3.8203 -0.1073 0
M  V30 END ATOM
M  V30 BEGIN BOND
M  V30 1 2 1 2
M  V30 2 1 2 3
M  V30 3 1 2 4
M  V30 4 1 3 5
M  V30 5 1 4 6
M  V30 6 2 4 7
M  V30 7 2 5 8
M  V30 8 1 5 9
M  V30 9 1 6 10
M  V30 10 1 7 11
M  V30 11 1 10 12
M  V30 12 1 10 13
M  V30 13 1 12 14
M  V30 14 1 13 15
M  V30 15 1 13 16
M  V30 16 1 14 17
M  V30 17 1 14 18
M  V30 18 1 16 19
M  V30 19 1 17 20
M  V30 20 1 18 21
M  V30 21 1 7 8
M  V30 22 1 16 17
M  V30 23 1 3 22
M  V30 24 1 9 23
M  V30 25 1 9 24
M  V30 26 1 10 25
M  V30 27 1 11 26
M  V30 28 1 11 27
M  V30 29 1 13 28
M  V30 30 1 14 29
M  V30 31 1 15 30
M  V30 32 1 16 31
M  V30 33 1 17 32
M  V30 34 1 18 33
M  V30 35 1 18 34
M  V30 36 1 19 35
M  V30 37 1 20 36
M  V30 38 1 21 37
M  V30 END BOND
M  V30 BEGIN COLLECTION
M  V30 MDLV30/STEABS ATOMS=(5 10 13 14 16 17)
M  V30 END COLLECTION
M  V30 END CTAB
M  END
>  <Structure No>
3637

>  <LogS>
-1.4832

>  <MMFF94 Energy>
-11.875

$$$$
Compound 3638
Actelion Java MolfileCreator 2.0

  0  0  0  0  0  0              0 V3000
M  V30 BEGIN CTAB
M  V30 COUNTS 21 20 0 0 0
M  V30 BEGIN ATOM
M  V30 1 Cl -2.631 1.2326 -1.1504 0
M  V30 2 C -2.859 -0.5059 -0.8292 0
M  V30 3 C -1.548 -1.1923 -0.4354 0
M  V30 4 N -0.9953 -0.624 0.8048 0
M  V30 5 N -1.5774 -0.9506 2.0443 0
M  V30 6 C 0.1895 0.1977 0.8197 0
M  V30 7 O -2.5564 -1.7213 2.127 0
M  V30 8 O 0.763 0.4228 1.9207 0
M  V30 9 N 0.7269 0.7746 -0.3836 0
M  V30 10 C 2.0385 1.4209 -0.4195 0
M  V30 11 C 3.1599 0.3861 -0.3392 0
M  V30 12 Cl 3.1074 -0.7154 -1.741 0
M  V30 13 H -3.6138 -0.6241 -0.0244 0
M  V30 14 H -3.2581 -0.9826 -1.7491 0
M  V30 15 H -1.7488 -2.2741 -0.2801 0
M  V30 16 H -0.8218 -1.1437 -1.2718 0
M  V30 17 H 0.1507 0.8202 -1.2509 0
M  V30 18 H 2.143 1.9956 -1.3655 0
M  V30 19 H 2.1277 2.1412 0.4223 0
M  V30 20 H 4.1405 0.9069 -0.3352 0
M  V30 21 H 3.0749 -0.2072 0.5949 0
M  V30 END ATOM
M  V30 BEGIN BOND
M  V30 1 1 1 2
M  V30 2 1 2 3
M  V30 3 1 3 4
M  V30 4 1 4 5
M  V30 5 1 4 6
M  V30 6 2 5 7
M  V30 7 2 6 8
M  V30 8 1 6 9
M  V30 9 1 9 10
M  V30 10 1 10 11
M  V30 11 1 11 12
M  V30 12 1 2 13
M  V30 13 1 2 14
M  V30 14 1 3 15
M  V30 15 1 3 16
M  V30 16 1 9 17
M  V30 17 1 10 18
M  V30 18 1 10 19
M  V30 19 1 11 20
M  V30 20 1 11 21
M  V30 END BOND
M  V30 END CTAB
M  END
>  <Structure No>
3638

>  <LogS>
-1.7285

>  <MMFF94 Energy>
-39.523

$$$$
Compound 3639
Actelion Java MolfileCreator 2.0

  0  0  0  0  0  0              0 V3000
M  V30 BEGIN CTAB
M  V30 COUNTS 21 22 0 0 0
M  V30 BEGIN ATOM
M  V30 1 O 0.4785 1.1168 0.7178 0
M  V30 2 C -0.0554 -0.1182 0.2827 0
M  V30 3 C 1.881 1.0614 0.5766 0
M  V30 4 O -0.9674 -0.5879 1.2516 0
M  V30 5 C 1.0944 -1.1104 0.1255 0
M  V30 6 C -0.819 0.0988 -1.0219 0
M  V30 7 C 2.2697 -0.2214 -0.1279 0
M  V30 8 C -2.2708 -0.2988 0.794 0
M  V30 9 C -2.1978 0.4212 -0.539 0
M  V30 10 H 2.2339 1.9426 -2.0E-4 0
M  V30 11 H 2.3431 1.0918 1.5871 0
M  V30 12 H 1.2547 -1.6644 1.0776 0
M  V30 13 H 0.9495 -1.8457 -0.6954 0
M  V30 14 H -0.3915 0.9246 -1.6321 0
M  V30 15 H -0.8602 -0.8302 -1.6328 0
M  V30 16 H 3.2103 -0.6511 0.28 0
M  V30 17 H 2.3783 -0.0385 -1.22 0
M  V30 18 H -2.8002 0.3266 1.5442 0
M  V30 19 H -2.8267 -1.2539 0.6757 0
M  V30 20 H -2.9778 0.0649 -1.2468 0
M  V30 21 H -2.3001 1.5186 -0.386 0
M  V30 END ATOM
M  V30 BEGIN BOND
M  V30 1 1 1 2
M  V30 2 1 1 3
M  V30 3 1 2 4
M  V30 4 1 2 5
M  V30 5 1 2 6
M  V30 6 1 3 7
M  V30 7 1 4 8
M  V30 8 1 6 9
M  V30 9 1 5 7
M  V30 10 1 8 9
M  V30 11 1 3 10
M  V30 12 1 3 11
M  V30 13 1 5 12
M  V30 14 1 5 13
M  V30 15 1 6 14
M  V30 16 1 6 15
M  V30 17 1 7 16
M  V30 18 1 7 17
M  V30 19 1 8 18
M  V30 20 1 8 19
M  V30 21 1 9 20
M  V30 22 1 9 21
M  V30 END BOND
M  V30 END CTAB
M  END
>  <Structure No>
3639

>  <LogS>
-0.1078

>  <MMFF94 Energy>
0.4815

$$$$
Compound 3640
Actelion Java MolfileCreator 2.0

  0  0  0  0  0  0              0 V3000
M  V30 BEGIN CTAB
M  V30 COUNTS 34 39 0 0 0
M  V30 BEGIN ATOM
M  V30 1 C 1.8805 -0.3268 0.2451 0
M  V30 2 C 0.9549 0.7201 0.1451 0
M  V30 3 C 1.4407 -1.6793 0.114 0
M  V30 4 C 3.2339 -0.0177 0.4745 0
M  V30 5 C 1.3231 2.0717 0.2649 0
M  V30 6 C -0.3634 0.4067 -0.0787 0
M  V30 7 C 0.064 -1.9601 -0.1176 0
M  V30 8 C 2.3891 -2.7055 0.2187 0
M  V30 9 C 3.6248 1.3333 0.5979 0
M  V30 10 C 4.1603 -1.066 0.5747 0
M  V30 11 C 2.6761 2.371 0.4938 0
M  V30 12 C 0.3169 3.0723 0.1499 0
M  V30 13 C -0.8208 -0.8764 -0.2095 0
M  V30 14 C -1.3465 1.3487 -0.1927 0
M  V30 15 C 3.7381 -2.3975 0.4475 0
M  V30 16 C -1.037 2.71 -0.0819 0
M  V30 17 C -2.2636 -0.7572 -0.4337 0
M  V30 18 C -2.5843 0.5999 -0.4234 0
M  V30 19 C -3.2383 -1.7316 -0.6329 0
M  V30 20 C -3.8928 1.0378 -0.6119 0
M  V30 21 C -4.5655 -1.3073 -0.825 0
M  V30 22 C -4.8903 0.0673 -0.8145 0
M  V30 23 H -0.2975 -2.9754 -0.2211 0
M  V30 24 H 2.0897 -3.7421 0.1243 0
M  V30 25 H 4.663 1.5865 0.7746 0
M  V30 26 H 5.2086 -0.8574 0.7511 0
M  V30 27 H 2.9996 3.3998 0.5918 0
M  V30 28 H 0.577 4.1197 0.2386 0
M  V30 29 H 4.4625 -3.1976 0.5267 0
M  V30 30 H -1.8074 3.4645 -0.1703 0
M  V30 31 H -2.9834 -2.7832 -0.6398 0
M  V30 32 H -4.1355 2.0923 -0.6029 0
M  V30 33 H -5.3451 -2.0413 -0.9821 0
M  V30 34 H -5.9165 0.3771 -0.9638 0
M  V30 END ATOM
M  V30 BEGIN BOND
M  V30 1 2 1 2
M  V30 2 1 1 3
M  V30 3 1 1 4
M  V30 4 1 2 5
M  V30 5 1 2 6
M  V30 6 1 3 7
M  V30 7 2 3 8
M  V30 8 2 4 9
M  V30 9 1 4 10
M  V30 10 2 5 11
M  V30 11 1 5 12
M  V30 12 1 6 13
M  V30 13 2 6 14
M  V30 14 1 8 15
M  V30 15 2 12 16
M  V30 16 1 13 17
M  V30 17 1 14 18
M  V30 18 1 17 19
M  V30 19 1 18 20
M  V30 20 2 19 21
M  V30 21 2 20 22
M  V30 22 2 7 13
M  V30 23 1 9 11
M  V30 24 2 10 15
M  V30 25 1 14 16
M  V30 26 2 17 18
M  V30 27 1 21 22
M  V30 28 1 7 23
M  V30 29 1 8 24
M  V30 30 1 9 25
M  V30 31 1 10 26
M  V30 32 1 11 27
M  V30 33 1 12 28
M  V30 34 1 15 29
M  V30 35 1 16 30
M  V30 36 1 19 31
M  V30 37 1 20 32
M  V30 38 1 21 33
M  V30 39 1 22 34
M  V30 END BOND
M  V30 END CTAB
M  END
>  <Structure No>
3640

>  <LogS>
-9.1627

>  <MMFF94 Energy>
104.17

$$$$
Compound 3641
Actelion Java MolfileCreator 2.0

  0  0  0  0  0  0              0 V3000
M  V30 BEGIN CTAB
M  V30 COUNTS 34 38 0 0 0
M  V30 BEGIN ATOM
M  V30 1 N -0.0805 -0.3223 2.9038 0
M  V30 2 C -1.0946 0.0169 2.0865 0
M  V30 3 C 0.9884 -0.4596 2.0979 0
M  V30 4 C -0.7011 0.0493 0.7572 0
M  V30 5 C -2.4005 0.2949 2.4797 0
M  V30 6 C 0.6848 -0.1619 0.778 0
M  V30 7 C 2.2674 -0.836 2.4973 0
M  V30 8 C -1.6751 0.1363 -0.264 0
M  V30 9 C -3.348 0.5791 1.4882 0
M  V30 10 C 1.7254 -0.0041 -0.1661 0
M  V30 11 C 3.2812 -0.8765 1.5318 0
M  V30 12 C -3.0076 0.4724 0.1209 0
M  V30 13 C -1.437 -0.2425 -1.5973 0
M  V30 14 C 3.0319 -0.4351 0.213 0
M  V30 15 C 1.5735 0.6917 -1.3788 0
M  V30 16 C -3.9998 0.6185 -0.8608 0
M  V30 17 C -2.44 -0.1088 -2.5609 0
M  V30 18 C 4.0885 -0.3444 -0.7063 0
M  V30 19 C 2.6397 0.79 -2.2766 0
M  V30 20 C -3.7077 0.3492 -2.1991 0
M  V30 21 C 3.8842 0.2468 -1.9543 0
M  V30 22 H -0.1157 -0.4512 3.94 0
M  V30 23 H -2.6777 0.2992 3.5263 0
M  V30 24 H 2.4741 -1.0987 3.5269 0
M  V30 25 H -4.3635 0.8122 1.7854 0
M  V30 26 H 4.2765 -1.1835 1.8301 0
M  V30 27 H -0.5073 -0.7035 -1.8928 0
M  V30 28 H 0.6618 1.2188 -1.6137 0
M  V30 29 H -5.0092 0.9034 -0.5887 0
M  V30 30 H -2.2405 -0.3843 -3.5884 0
M  V30 31 H 5.0798 -0.6956 -0.4454 0
M  V30 32 H 2.5069 1.3105 -3.2163 0
M  V30 33 H -4.4807 0.447 -2.9504 0
M  V30 34 H 4.7062 0.3298 -2.6533 0
M  V30 END ATOM
M  V30 BEGIN BOND
M  V30 1 1 1 2
M  V30 2 1 1 3
M  V30 3 2 2 4
M  V30 4 1 2 5
M  V30 5 2 3 6
M  V30 6 1 3 7
M  V30 7 1 4 8
M  V30 8 2 5 9
M  V30 9 1 6 10
M  V30 10 2 7 11
M  V30 11 1 8 12
M  V30 12 2 8 13
M  V30 13 1 10 14
M  V30 14 2 10 15
M  V30 15 2 12 16
M  V30 16 1 13 17
M  V30 17 2 14 18
M  V30 18 1 15 19
M  V30 19 1 16 20
M  V30 20 1 18 21
M  V30 21 1 4 6
M  V30 22 1 9 12
M  V30 23 1 11 14
M  V30 24 2 17 20
M  V30 25 2 19 21
M  V30 26 1 1 22
M  V30 27 1 5 23
M  V30 28 1 7 24
M  V30 29 1 9 25
M  V30 30 1 11 26
M  V30 31 1 13 27
M  V30 32 1 15 28
M  V30 33 1 16 29
M  V30 34 1 17 30
M  V30 35 1 18 31
M  V30 36 1 19 32
M  V30 37 1 20 33
M  V30 38 1 21 34
M  V30 END BOND
M  V30 END CTAB
M  END
>  <Structure No>
3641

>  <LogS>
-6.6277

>  <MMFF94 Energy>
87.406

$$$$
Compound 3642
Actelion Java MolfileCreator 2.0

  0  0  0  0  0  0              0 V3000
M  V30 BEGIN CTAB
M  V30 COUNTS 30 33 0 0 0
M  V30 BEGIN ATOM
M  V30 1 C -0.0805 0.4831 0.0 0
M  V30 2 C 1.2489 -0.0531 0.005 0
M  V30 3 C -1.2797 -0.3018 -0.0262 0
M  V30 4 C -0.2202 1.9001 0.0226 0
M  V30 5 C 2.3376 0.7926 0.3587 0
M  V30 6 C 1.5576 -1.3545 -0.4558 0
M  V30 7 C -2.5138 0.3258 -0.3562 0
M  V30 8 C -1.3271 -1.6524 0.3923 0
M  V30 9 C 0.8772 2.7169 0.3213 0
M  V30 10 C -1.4569 2.4959 -0.2534 0
M  V30 11 C 2.1292 2.1609 0.5521 0
M  V30 12 C 3.6398 0.2737 0.4462 0
M  V30 13 C 2.8605 -1.8528 -0.3828 0
M  V30 14 C -2.5772 1.7139 -0.5054 0
M  V30 15 C -3.6899 -0.4342 -0.464 0
M  V30 16 C -2.5079 -2.393 0.2996 0
M  V30 17 C 3.893 -1.0511 0.0968 0
M  V30 18 C -3.6787 -1.7934 -0.1576 0
M  V30 19 H 0.8179 -1.9774 -0.9364 0
M  V30 20 H -0.4786 -2.134 0.8555 0
M  V30 21 H 0.7631 3.7927 0.3892 0
M  V30 22 H -1.5553 3.5749 -0.2866 0
M  V30 23 H 2.9555 2.816 0.8029 0
M  V30 24 H 4.468 0.904 0.7482 0
M  V30 25 H 3.0733 -2.8586 -0.7215 0
M  V30 26 H -3.5163 2.2027 -0.7378 0
M  V30 27 H -4.6263 0.0315 -0.7485 0
M  V30 28 H -2.5193 -3.4312 0.6058 0
M  V30 29 H 4.9011 -1.4414 0.1491 0
M  V30 30 H -4.5914 -2.3712 -0.2253 0
M  V30 END ATOM
M  V30 BEGIN BOND
M  V30 1 2 1 2
M  V30 2 1 1 3
M  V30 3 1 1 4
M  V30 4 1 2 5
M  V30 5 1 2 6
M  V30 6 1 3 7
M  V30 7 2 3 8
M  V30 8 2 4 9
M  V30 9 1 4 10
M  V30 10 2 5 11
M  V30 11 1 5 12
M  V30 12 2 6 13
M  V30 13 1 7 14
M  V30 14 2 7 15
M  V30 15 1 8 16
M  V30 16 2 12 17
M  V30 17 1 15 18
M  V30 18 1 9 11
M  V30 19 2 10 14
M  V30 20 1 13 17
M  V30 21 2 16 18
M  V30 22 1 6 19
M  V30 23 1 8 20
M  V30 24 1 9 21
M  V30 25 1 10 22
M  V30 26 1 11 23
M  V30 27 1 12 24
M  V30 28 1 13 25
M  V30 29 1 14 26
M  V30 30 1 15 27
M  V30 31 1 16 28
M  V30 32 1 17 29
M  V30 33 1 18 30
M  V30 END BOND
M  V30 END CTAB
M  END
>  <Structure No>
3642

>  <LogS>
-7.8207

>  <MMFF94 Energy>
84.97

$$$$
Compound 3643
Actelion Java MolfileCreator 2.0

  0  0  0  0  0  0              0 V3000
M  V30 BEGIN CTAB
M  V30 COUNTS 38 43 0 0 0
M  V30 BEGIN ATOM
M  V30 1 C -1.465 0.4067 -0.1626 0
M  V30 2 C -2.8391 0.0339 -0.3189 0
M  V30 3 C -0.4613 -0.6273 -0.0767 0
M  V30 4 C -1.0565 1.7759 -0.0891 0
M  V30 5 C -3.1797 -1.345 -0.3853 0
M  V30 6 C -3.8953 0.9773 -0.4124 0
M  V30 7 C 0.8972 -0.2464 0.078 0
M  V30 8 C -0.8536 -1.9698 -0.1479 0
M  V30 9 C 0.2914 2.1163 0.0636 0
M  V30 10 C -2.1875 -2.3213 -0.2992 0
M  V30 11 C -4.5182 -1.743 -0.5381 0
M  V30 12 C -5.2203 0.5619 -0.5642 0
M  V30 13 C 1.216 1.0918 0.1412 0
M  V30 14 C 2.2068 -0.9569 0.204 0
M  V30 15 C 0.7654 3.4421 0.1433 0
M  V30 16 C -5.5312 -0.7923 -0.6269 0
M  V30 17 C 2.5578 1.3196 0.2909 0
M  V30 18 C 3.1969 0.0177 0.3318 0
M  V30 19 C 2.5684 -2.3142 0.2138 0
M  V30 20 C 2.1503 3.688 0.2981 0
M  V30 21 C 3.0646 2.6171 0.3735 0
M  V30 22 C 4.5458 -0.3009 0.4705 0
M  V30 23 C 3.9257 -2.6529 0.353 0
M  V30 24 C 4.9078 -1.654 0.4804 0
M  V30 25 H -1.7547 2.5935 -0.1468 0
M  V30 26 H -3.7383 2.0411 -0.3725 0
M  V30 27 H -0.1524 -2.7729 -0.0894 0
M  V30 28 H -2.4458 -3.3731 -0.3497 0
M  V30 29 H -4.7815 -2.7931 -0.5891 0
M  V30 30 H -6.0116 1.2975 -0.6336 0
M  V30 31 H 0.0773 4.2766 0.0871 0
M  V30 32 H -6.5603 -1.1065 -0.7445 0
M  V30 33 H 1.8627 -3.1159 0.1204 0
M  V30 34 H 2.5111 4.7065 0.3589 0
M  V30 35 H 4.1248 2.7979 0.4917 0
M  V30 36 H 5.2959 0.473 0.5681 0
M  V30 37 H 4.2195 -3.6946 0.3622 0
M  V30 38 H 5.9483 -1.9318 0.5867 0
M  V30 END ATOM
M  V30 BEGIN BOND
M  V30 1 2 1 2
M  V30 2 1 1 3
M  V30 3 1 1 4
M  V30 4 1 2 5
M  V30 5 1 2 6
M  V30 6 1 3 7
M  V30 7 2 3 8
M  V30 8 2 4 9
M  V30 9 2 5 10
M  V30 10 1 5 11
M  V30 11 2 6 12
M  V30 12 2 7 13
M  V30 13 1 7 14
M  V30 14 1 9 15
M  V30 15 2 11 16
M  V30 16 1 13 17
M  V30 17 2 14 18
M  V30 18 1 14 19
M  V30 19 2 15 20
M  V30 20 2 17 21
M  V30 21 1 18 22
M  V30 22 2 19 23
M  V30 23 2 22 24
M  V30 24 1 8 10
M  V30 25 1 9 13
M  V30 26 1 12 16
M  V30 27 1 17 18
M  V30 28 1 20 21
M  V30 29 1 23 24
M  V30 30 1 4 25
M  V30 31 1 6 26
M  V30 32 1 8 27
M  V30 33 1 10 28
M  V30 34 1 11 29
M  V30 35 1 12 30
M  V30 36 1 15 31
M  V30 37 1 16 32
M  V30 38 1 19 33
M  V30 39 1 20 34
M  V30 40 1 21 35
M  V30 41 1 22 36
M  V30 42 1 23 37
M  V30 43 1 24 38
M  V30 END BOND
M  V30 END CTAB
M  END
>  <Structure No>
3643

>  <LogS>
-8.4806

>  <MMFF94 Energy>
117.89

$$$$
Compound 3644
Actelion Java MolfileCreator 2.0

  0  0  0  0  0  0              0 V3000
M  V30 BEGIN CTAB
M  V30 COUNTS 25 28 0 0 0
M  V30 BEGIN ATOM
M  V30 1 C 1.6214 0.8915 -0.162 0
M  V30 2 C 0.6904 -0.1258 -0.0823 0
M  V30 3 C 1.1389 2.2209 -0.0517 0
M  V30 4 C 2.9626 0.5076 -0.3457 0
M  V30 5 C -0.6146 0.0943 0.0906 0
M  V30 6 C 0.9594 -1.4584 -0.1658 0
M  V30 7 C -0.2591 2.4567 0.1336 0
M  V30 8 C 3.2892 -0.8735 -0.4382 0
M  V30 9 C -1.1558 1.3601 0.206 0
M  V30 10 C -1.311 -1.0754 0.1349 0
M  V30 11 C 2.2826 -1.8699 -0.3482 0
M  V30 12 C -0.3408 -2.233 -0.0305 0
M  V30 13 C -2.5495 1.4374 0.3848 0
M  V30 14 C -2.6967 -1.03 0.3116 0
M  V30 15 C -3.3164 0.2407 0.437 0
M  V30 16 H 1.8235 3.0577 -0.1069 0
M  V30 17 H 3.7431 1.2544 -0.4163 0
M  V30 18 H -0.6277 3.4711 0.2179 0
M  V30 19 H 4.3205 -1.1691 -0.5793 0
M  V30 20 H 2.5317 -2.9202 -0.4187 0
M  V30 21 H -0.3297 -2.8772 0.8735 0
M  V30 22 H -0.5603 -2.8093 -0.9535 0
M  V30 23 H -3.0386 2.3983 0.4823 0
M  V30 24 H -3.2807 -1.9398 0.3514 0
M  V30 25 H -4.388 0.2997 0.5745 0
M  V30 END ATOM
M  V30 BEGIN BOND
M  V30 1 1 1 2
M  V30 2 1 1 3
M  V30 3 2 1 4
M  V30 4 1 2 5
M  V30 5 2 2 6
M  V30 6 2 3 7
M  V30 7 1 4 8
M  V30 8 1 5 9
M  V30 9 2 5 10
M  V30 10 1 6 11
M  V30 11 1 6 12
M  V30 12 2 9 13
M  V30 13 1 10 14
M  V30 14 1 13 15
M  V30 15 1 7 9
M  V30 16 2 8 11
M  V30 17 1 10 12
M  V30 18 2 14 15
M  V30 19 1 3 16
M  V30 20 1 4 17
M  V30 21 1 7 18
M  V30 22 1 8 19
M  V30 23 1 11 20
M  V30 24 1 12 21
M  V30 25 1 12 22
M  V30 26 1 13 23
M  V30 27 1 14 24
M  V30 28 1 15 25
M  V30 END BOND
M  V30 END CTAB
M  END
>  <Structure No>
3644

>  <LogS>
-5.2379

>  <MMFF94 Energy>
74.633

$$$$
Compound 3645
Actelion Java MolfileCreator 2.0

  0  0  0  0  0  0              0 V3000
M  V30 BEGIN CTAB
M  V30 COUNTS 32 36 0 0 0
M  V30 BEGIN ATOM
M  V30 1 C -1.8683 0.1623 -0.0811 0
M  V30 2 C -2.6574 -1.0267 -0.1604 0
M  V30 3 C -0.4601 0.0194 -0.0554 0
M  V30 4 C -2.5255 1.4053 -0.0328 0
M  V30 5 C -2.0411 -2.2957 -0.2108 0
M  V30 6 C -4.0579 -0.9358 -0.1884 0
M  V30 7 C 0.6775 0.9807 0.0204 0
M  V30 8 C 0.1132 -1.2557 -0.1072 0
M  V30 9 C -3.921 1.4736 -0.0619 0
M  V30 10 C -0.649 -2.4148 -0.1843 0
M  V30 11 C -4.6838 0.3093 -0.1393 0
M  V30 12 C 1.8227 0.2168 0.0081 0
M  V30 13 C 0.7982 2.3792 0.0948 0
M  V30 14 C 1.563 -1.1204 -0.0663 0
M  V30 15 C 3.1093 0.7359 0.0648 0
M  V30 16 C 2.0916 2.9463 0.1542 0
M  V30 17 C 2.6034 -2.0509 -0.0894 0
M  V30 18 C 3.2461 2.131 0.1395 0
M  V30 19 C 4.1851 -0.1726 0.0436 0
M  V30 20 C 3.9283 -1.564 -0.0335 0
M  V30 21 H -1.9932 2.3311 0.027 0
M  V30 22 H -2.6407 -3.1963 -0.2709 0
M  V30 23 H -4.6688 -1.8289 -0.2484 0
M  V30 24 H -4.4141 2.4367 -0.0242 0
M  V30 25 H -0.1789 -3.3886 -0.223 0
M  V30 26 H -5.7642 0.3722 -0.1614 0
M  V30 27 H -0.0455 3.0427 0.1091 0
M  V30 28 H 2.2002 4.0216 0.2117 0
M  V30 29 H 2.4032 -3.1126 -0.1484 0
M  V30 30 H 4.2275 2.5862 0.1857 0
M  V30 31 H 5.2065 0.1841 0.0858 0
M  V30 32 H 4.7557 -2.2611 -0.0498 0
M  V30 END ATOM
M  V30 BEGIN BOND
M  V30 1 1 1 2
M  V30 2 1 1 3
M  V30 3 2 1 4
M  V30 4 1 2 5
M  V30 5 2 2 6
M  V30 6 1 3 7
M  V30 7 2 3 8
M  V30 8 1 4 9
M  V30 9 2 5 10
M  V30 10 1 6 11
M  V30 11 1 7 12
M  V30 12 2 7 13
M  V30 13 1 8 14
M  V30 14 1 12 15
M  V30 15 1 13 16
M  V30 16 1 14 17
M  V30 17 1 15 18
M  V30 18 2 15 19
M  V30 19 2 17 20
M  V30 20 1 8 10
M  V30 21 2 9 11
M  V30 22 2 12 14
M  V30 23 2 16 18
M  V30 24 1 19 20
M  V30 25 1 4 21
M  V30 26 1 5 22
M  V30 27 1 6 23
M  V30 28 1 9 24
M  V30 29 1 10 25
M  V30 30 1 11 26
M  V30 31 1 13 27
M  V30 32 1 16 28
M  V30 33 1 17 29
M  V30 34 1 18 30
M  V30 35 1 19 31
M  V30 36 1 20 32
M  V30 END BOND
M  V30 END CTAB
M  END
>  <Structure No>
3645

>  <LogS>
-8.004

>  <MMFF94 Energy>
97.428

$$$$
Compound 3646
Actelion Java MolfileCreator 2.0

  0  0  0  0  0  0              0 V3000
M  V30 BEGIN CTAB
M  V30 COUNTS 32 36 0 0 0
M  V30 BEGIN ATOM
M  V30 1 C 2.1935 -0.1623 0.2435 0
M  V30 2 C 1.1001 -1.0749 0.3255 0
M  V30 3 C 1.9328 1.2168 -0.0818 0
M  V30 4 C 3.5278 -0.5594 0.4698 0
M  V30 5 C -0.169 -0.5632 0.0815 0
M  V30 6 C 1.1715 -2.4585 0.632 0
M  V30 7 C 0.6116 1.6688 -0.3184 0
M  V30 8 C 2.9987 2.1248 -0.1656 0
M  V30 9 C 4.5697 0.367 0.3794 0
M  V30 10 C -0.4232 0.7457 -0.2279 0
M  V30 11 C -1.3191 -1.3109 0.122 0
M  V30 12 C -0.0089 -3.2432 0.6774 0
M  V30 13 C 4.3073 1.6999 0.0639 0
M  V30 14 C -1.8718 0.8591 -0.4048 0
M  V30 15 C -2.4199 -0.3994 -0.1907 0
M  V30 16 C -1.2722 -2.6699 0.4205 0
M  V30 17 C -2.6702 1.9548 -0.7255 0
M  V30 18 C -3.7918 -0.6213 -0.287 0
M  V30 19 C -4.0583 1.7518 -0.8277 0
M  V30 20 C -4.6155 0.4721 -0.61 0
M  V30 21 H 3.7863 -1.5776 0.717 0
M  V30 22 H 2.111 -2.9484 0.8369 0
M  V30 23 H 0.4006 2.7026 -0.5639 0
M  V30 24 H 2.8191 3.1655 -0.4092 0
M  V30 25 H 5.5891 0.0484 0.5556 0
M  V30 26 H 0.0592 -4.2974 0.9123 0
M  V30 27 H 5.1233 2.408 -0.003 0
M  V30 28 H -2.174 -3.267 0.4547 0
M  V30 29 H -2.2373 2.9327 -0.8912 0
M  V30 30 H -4.2122 -1.6042 -0.119 0
M  V30 31 H -4.705 2.5836 -1.0755 0
M  V30 32 H -5.6855 0.3315 -0.6921 0
M  V30 END ATOM
M  V30 BEGIN BOND
M  V30 1 2 1 2
M  V30 2 1 1 3
M  V30 3 1 1 4
M  V30 4 1 2 5
M  V30 5 1 2 6
M  V30 6 2 3 7
M  V30 7 1 3 8
M  V30 8 2 4 9
M  V30 9 2 5 10
M  V30 10 1 5 11
M  V30 11 2 6 12
M  V30 12 2 8 13
M  V30 13 1 10 14
M  V30 14 1 11 15
M  V30 15 2 11 16
M  V30 16 1 14 17
M  V30 17 1 15 18
M  V30 18 2 17 19
M  V30 19 2 18 20
M  V30 20 1 7 10
M  V30 21 1 9 13
M  V30 22 1 12 16
M  V30 23 2 14 15
M  V30 24 1 19 20
M  V30 25 1 4 21
M  V30 26 1 6 22
M  V30 27 1 7 23
M  V30 28 1 8 24
M  V30 29 1 9 25
M  V30 30 1 12 26
M  V30 31 1 13 27
M  V30 32 1 16 28
M  V30 33 1 17 29
M  V30 34 1 18 30
M  V30 35 1 19 31
M  V30 36 1 20 32
M  V30 END BOND
M  V30 END CTAB
M  END
>  <Structure No>
3646

>  <LogS>
-8.2259

>  <MMFF94 Energy>
95.168

$$$$
Compound 3647
Actelion Java MolfileCreator 2.0

  0  0  0  0  0  0              0 V3000
M  V30 BEGIN CTAB
M  V30 COUNTS 32 36 0 0 0
M  V30 BEGIN ATOM
M  V30 1 C 2.5182 -0.7306 0.2434 0
M  V30 2 C 2.5639 0.6186 -0.2298 0
M  V30 3 C 1.2772 -1.3581 0.4812 0
M  V30 4 C 3.7169 -1.4233 0.4691 0
M  V30 5 C 1.3685 1.3309 -0.4623 0
M  V30 6 C 3.8069 1.2266 -0.4607 0
M  V30 7 C 0.1167 -0.6282 0.2421 0
M  V30 8 C 4.9449 -0.799 0.2328 0
M  V30 9 C 0.1612 0.6834 -0.218 0
M  V30 10 C 4.9896 0.5187 -0.2296 0
M  V30 11 C -1.2924 -0.9974 0.3917 0
M  V30 12 C -1.2195 1.1494 -0.3615 0
M  V30 13 C -2.0159 0.1023 0.0168 0
M  V30 14 C -1.9409 -2.1605 0.8086 0
M  V30 15 C -1.7876 2.3547 -0.7758 0
M  V30 16 C -3.3999 0.1505 0.0198 0
M  V30 17 C -3.356 -2.1577 0.828 0
M  V30 18 C -3.1996 2.4503 -0.7889 0
M  V30 19 C -4.0878 -1.0063 0.435 0
M  V30 20 C -4.0077 1.3523 -0.3926 0
M  V30 21 H 1.2179 -2.3786 0.8397 0
M  V30 22 H 3.7043 -2.4457 0.8276 0
M  V30 23 H 1.3786 2.3531 -0.8206 0
M  V30 24 H 3.8636 2.2475 -0.8192 0
M  V30 25 H 5.8662 -1.3391 0.409 0
M  V30 26 H 5.9453 0.9938 -0.4096 0
M  V30 27 H -1.3804 -3.0363 1.1076 0
M  V30 28 H -1.1691 3.1898 -1.0771 0
M  V30 29 H -3.8871 -3.0451 1.1466 0
M  V30 30 H -3.6692 3.3724 -1.1053 0
M  V30 31 H -5.1703 -1.023 0.4565 0
M  V30 32 H -5.0865 1.4442 -0.4093 0
M  V30 END ATOM
M  V30 BEGIN BOND
M  V30 1 1 1 2
M  V30 2 1 1 3
M  V30 3 2 1 4
M  V30 4 1 2 5
M  V30 5 2 2 6
M  V30 6 2 3 7
M  V30 7 1 4 8
M  V30 8 2 5 9
M  V30 9 1 6 10
M  V30 10 1 7 11
M  V30 11 1 9 12
M  V30 12 1 11 13
M  V30 13 2 11 14
M  V30 14 1 12 15
M  V30 15 1 13 16
M  V30 16 1 14 17
M  V30 17 2 15 18
M  V30 18 1 16 19
M  V30 19 2 16 20
M  V30 20 1 7 9
M  V30 21 2 8 10
M  V30 22 2 12 13
M  V30 23 2 17 19
M  V30 24 1 18 20
M  V30 25 1 3 21
M  V30 26 1 4 22
M  V30 27 1 5 23
M  V30 28 1 6 24
M  V30 29 1 8 25
M  V30 30 1 10 26
M  V30 31 1 14 27
M  V30 32 1 15 28
M  V30 33 1 17 29
M  V30 34 1 18 30
M  V30 35 1 19 31
M  V30 36 1 20 32
M  V30 END BOND
M  V30 END CTAB
M  END
>  <Structure No>
3647

>  <LogS>
-8.4989

>  <MMFF94 Energy>
89.254

$$$$
Compound 3648
Actelion Java MolfileCreator 2.0

  0  0  0  0  0  0              0 V3000
M  V30 BEGIN CTAB
M  V30 COUNTS 35 39 0 0 0
M  V30 BEGIN ATOM
M  V30 1 S -0.1646 3.2151 0.0 0
M  V30 2 C 1.184 2.0748 -0.3273 0
M  V30 3 C -1.4342 1.9504 -0.1243 0
M  V30 4 C 1.2222 0.8382 0.3421 0
M  V30 5 C 2.2281 2.462 -1.1679 0
M  V30 6 C -1.2524 0.7206 0.5339 0
M  V30 7 C -2.627 2.2314 -0.7915 0
M  V30 8 N 0.0506 0.4159 1.0642 0
M  V30 9 C 2.3491 -0.0072 0.1846 0
M  V30 10 C 3.3426 1.6404 -1.3257 0
M  V30 11 C -2.3054 -0.2284 0.5454 0
M  V30 12 C -3.6701 1.3071 -0.7821 0
M  V30 13 C 3.419 0.4134 -0.6516 0
M  V30 14 C 2.4298 -1.2729 0.8027 0
M  V30 15 C -3.5261 0.0834 -0.1132 0
M  V30 16 C -2.1705 -1.4916 1.1592 0
M  V30 17 C 4.5434 -0.4098 -0.8207 0
M  V30 18 C 3.5559 -2.0802 0.6214 0
M  V30 19 C -4.5804 -0.8434 -0.1136 0
M  V30 20 C -3.2298 -2.4027 1.1473 0
M  V30 21 C 4.6104 -1.6484 -0.1824 0
M  V30 22 C -4.4316 -2.0783 0.5182 0
M  V30 23 H 2.1923 3.418 -1.675 0
M  V30 24 H -2.76 3.1826 -1.291 0
M  V30 25 H 0.145 -0.1419 1.9395 0
M  V30 26 H 4.1489 1.9669 -1.9718 0
M  V30 27 H -4.5934 1.5515 -1.294 0
M  V30 28 H 1.6327 -1.6575 1.4216 0
M  V30 29 H -1.2552 -1.7947 1.6454 0
M  V30 30 H 5.3667 -0.0982 -1.4526 0
M  V30 31 H 3.6089 -3.0475 1.1044 0
M  V30 32 H -5.517 -0.6155 -0.609 0
M  V30 33 H -3.1167 -3.3672 1.6255 0
M  V30 34 H 5.4788 -2.28 -0.3186 0
M  V30 35 H -5.2471 -2.7899 0.5125 0
M  V30 END ATOM
M  V30 BEGIN BOND
M  V30 1 1 1 2
M  V30 2 1 1 3
M  V30 3 2 2 4
M  V30 4 1 2 5
M  V30 5 2 3 6
M  V30 6 1 3 7
M  V30 7 1 4 8
M  V30 8 1 4 9
M  V30 9 2 5 10
M  V30 10 1 6 11
M  V30 11 2 7 12
M  V30 12 1 9 13
M  V30 13 2 9 14
M  V30 14 1 11 15
M  V30 15 2 11 16
M  V30 16 2 13 17
M  V30 17 1 14 18
M  V30 18 2 15 19
M  V30 19 1 16 20
M  V30 20 1 17 21
M  V30 21 1 19 22
M  V30 22 1 6 8
M  V30 23 1 10 13
M  V30 24 1 12 15
M  V30 25 2 18 21
M  V30 26 2 20 22
M  V30 27 1 5 23
M  V30 28 1 7 24
M  V30 29 1 8 25
M  V30 30 1 10 26
M  V30 31 1 12 27
M  V30 32 1 14 28
M  V30 33 1 16 29
M  V30 34 1 17 30
M  V30 35 1 18 31
M  V30 36 1 19 32
M  V30 37 1 20 33
M  V30 38 1 21 34
M  V30 39 1 22 35
M  V30 END BOND
M  V30 END CTAB
M  END
>  <Structure No>
3648

>  <LogS>
-7.9081

>  <MMFF94 Energy>
100.02

$$$$
Compound 3649
Actelion Java MolfileCreator 2.0

  0  0  0  0  0  0              0 V3000
M  V30 BEGIN CTAB
M  V30 COUNTS 35 39 0 0 0
M  V30 BEGIN ATOM
M  V30 1 S 0.0 0.2471 1.7308 0
M  V30 2 C 1.2843 0.6765 0.5411 0
M  V30 3 C -1.3539 0.4533 0.5587 0
M  V30 4 C 1.0994 1.8402 -0.2282 0
M  V30 5 C 2.4938 -0.0496 0.4471 0
M  V30 6 C -1.3773 1.6307 -0.2117 0
M  V30 7 C -2.4255 -0.4658 0.4799 0
M  V30 8 N -0.2 2.4501 -0.306 0
M  V30 9 C 2.1426 2.3232 -1.0264 0
M  V30 10 C 3.5343 0.4429 -0.384 0
M  V30 11 C 2.7048 -1.2426 1.168 0
M  V30 12 C -2.4974 1.9308 -0.9954 0
M  V30 13 C -3.5449 -0.1558 -0.3367 0
M  V30 14 C -2.4236 -1.6763 1.2023 0
M  V30 15 C 3.3531 1.6346 -1.0998 0
M  V30 16 C 4.7464 -0.2587 -0.4795 0
M  V30 17 C 3.9166 -1.9299 1.0603 0
M  V30 18 C -3.576 1.0485 -1.0534 0
M  V30 19 C -4.6231 -1.0512 -0.4169 0
M  V30 20 C -3.5041 -2.5576 1.1098 0
M  V30 21 C 4.9335 -1.4401 0.24 0
M  V30 22 C -4.5996 -2.2465 0.3036 0
M  V30 23 H -0.2832 3.4 -0.7352 0
M  V30 24 H 2.0027 3.2152 -1.6243 0
M  V30 25 H 1.9394 -1.6575 1.81 0
M  V30 26 H -2.5174 2.833 -1.5941 0
M  V30 27 H -1.591 -1.9561 1.8336 0
M  V30 28 H 4.141 2.0221 -1.7349 0
M  V30 29 H 5.5487 0.1071 -1.1094 0
M  V30 30 H 4.0676 -2.8468 1.6154 0
M  V30 31 H -4.4262 1.2975 -1.6777 0
M  V30 32 H -5.4839 -0.8261 -1.0357 0
M  V30 33 H -3.4916 -3.4863 1.6659 0
M  V30 34 H 5.8698 -1.9774 0.162 0
M  V30 35 H -5.4335 -2.9336 0.2375 0
M  V30 END ATOM
M  V30 BEGIN BOND
M  V30 1 1 1 2
M  V30 2 1 1 3
M  V30 3 2 2 4
M  V30 4 1 2 5
M  V30 5 2 3 6
M  V30 6 1 3 7
M  V30 7 1 4 8
M  V30 8 1 4 9
M  V30 9 1 5 10
M  V30 10 2 5 11
M  V30 11 1 6 12
M  V30 12 1 7 13
M  V30 13 2 7 14
M  V30 14 2 9 15
M  V30 15 2 10 16
M  V30 16 1 11 17
M  V30 17 2 12 18
M  V30 18 2 13 19
M  V30 19 1 14 20
M  V30 20 1 16 21
M  V30 21 1 19 22
M  V30 22 1 6 8
M  V30 23 1 10 15
M  V30 24 1 13 18
M  V30 25 2 17 21
M  V30 26 2 20 22
M  V30 27 1 8 23
M  V30 28 1 9 24
M  V30 29 1 11 25
M  V30 30 1 12 26
M  V30 31 1 14 27
M  V30 32 1 15 28
M  V30 33 1 16 29
M  V30 34 1 17 30
M  V30 35 1 18 31
M  V30 36 1 19 32
M  V30 37 1 20 33
M  V30 38 1 21 34
M  V30 39 1 22 35
M  V30 END BOND
M  V30 END CTAB
M  END
>  <Structure No>
3649

>  <LogS>
-6.8786

>  <MMFF94 Energy>
95.505

$$$$
Compound 3650
Actelion Java MolfileCreator 2.0

  0  0  0  0  0  0              0 V3000
M  V30 BEGIN CTAB
M  V30 COUNTS 29 32 0 0 0
M  V30 BEGIN ATOM
M  V30 1 S 1.0713 2.3911 -1.3187 0
M  V30 2 C -0.3429 1.5541 -0.5909 0
M  V30 3 C 2.2717 1.2704 -0.6 0
M  V30 4 C -0.4311 0.147 -0.6355 0
M  V30 5 C -1.387 2.3179 -0.0698 0
M  V30 6 C 2.0428 -0.1126 -0.669 0
M  V30 7 C 3.4761 1.7595 -0.0829 0
M  V30 8 N 0.7404 -0.6021 -1.0214 0
M  V30 9 C -1.6171 -0.4898 -0.1776 0
M  V30 10 C -2.552 1.7022 0.3786 0
M  V30 11 C 3.0506 -1.0027 -0.2725 0
M  V30 12 C 4.47 0.8672 0.331 0
M  V30 13 C -2.6838 0.3089 0.3216 0
M  V30 14 C -1.7688 -1.8943 -0.1676 0
M  V30 15 C 4.2627 -0.5118 0.224 0
M  V30 16 C -3.8645 -0.2972 0.7789 0
M  V30 17 C -2.9511 -2.4797 0.2927 0
M  V30 18 C -3.9963 -1.6849 0.7596 0
M  V30 19 H -1.3106 3.3976 -0.0431 0
M  V30 20 H 3.6563 2.8258 -0.0336 0
M  V30 21 H 0.6659 -1.5725 -1.3942 0
M  V30 22 H -3.3557 2.318 0.765 0
M  V30 23 H 2.8826 -2.0714 -0.3134 0
M  V30 24 H 5.4066 1.2444 0.7207 0
M  V30 25 H -0.9909 -2.5607 -0.5041 0
M  V30 26 H 5.0351 -1.2003 0.5411 0
M  V30 27 H -4.6836 0.3028 1.1576 0
M  V30 28 H -3.0556 -3.5571 0.2903 0
M  V30 29 H -4.9084 -2.1463 1.1156 0
M  V30 END ATOM
M  V30 BEGIN BOND
M  V30 1 1 1 2
M  V30 2 1 1 3
M  V30 3 2 2 4
M  V30 4 1 2 5
M  V30 5 2 3 6
M  V30 6 1 3 7
M  V30 7 1 4 8
M  V30 8 1 4 9
M  V30 9 2 5 10
M  V30 10 1 6 11
M  V30 11 2 7 12
M  V30 12 1 9 13
M  V30 13 2 9 14
M  V30 14 2 11 15
M  V30 15 2 13 16
M  V30 16 1 14 17
M  V30 17 1 16 18
M  V30 18 1 6 8
M  V30 19 1 10 13
M  V30 20 1 12 15
M  V30 21 2 17 18
M  V30 22 1 5 19
M  V30 23 1 7 20
M  V30 24 1 8 21
M  V30 25 1 10 22
M  V30 26 1 11 23
M  V30 27 1 12 24
M  V30 28 1 14 25
M  V30 29 1 15 26
M  V30 30 1 16 27
M  V30 31 1 17 28
M  V30 32 1 18 29
M  V30 END BOND
M  V30 END CTAB
M  END
>  <Structure No>
3650

>  <LogS>
-5.8957

>  <MMFF94 Energy>
75.402

$$$$
Compound 3651
Actelion Java MolfileCreator 2.0

  0  0  0  0  0  0              0 V3000
M  V30 BEGIN CTAB
M  V30 COUNTS 29 32 0 0 0
M  V30 BEGIN ATOM
M  V30 1 S 0.4944 -1.6489 -1.154 0
M  V30 2 C -0.4912 -0.6551 -0.0125 0
M  V30 3 C 2.0454 -0.8582 -0.7301 0
M  V30 4 C -0.0163 -0.4887 1.3048 0
M  V30 5 C -1.7615 -0.1474 -0.374 0
M  V30 6 C 2.3683 -0.661 0.6219 0
M  V30 7 C 2.9737 -0.5449 -1.7289 0
M  V30 8 N 1.351 -0.797 1.6263 0
M  V30 9 C -0.8345 0.1069 2.2718 0
M  V30 10 C -2.5682 0.4731 0.6162 0
M  V30 11 C -2.2605 -0.2539 -1.6885 0
M  V30 12 C 3.6475 -0.2017 0.9678 0
M  V30 13 C 4.2409 -0.0693 -1.3785 0
M  V30 14 C -2.102 0.5786 1.9334 0
M  V30 15 C -3.8364 0.971 0.2772 0
M  V30 16 C -3.5243 0.2483 -2.0097 0
M  V30 17 C 4.5818 0.0896 -0.0315 0
M  V30 18 C -4.3092 0.8583 -1.031 0
M  V30 19 H 2.7274 -0.7008 -2.7715 0
M  V30 20 H 1.6395 -0.8164 2.6312 0
M  V30 21 H -0.4725 0.2413 3.2834 0
M  V30 22 H -1.6817 -0.7144 -2.4772 0
M  V30 23 H 3.9069 -0.0355 2.0058 0
M  V30 24 H 4.9636 0.1623 -2.15 0
M  V30 25 H -2.7102 1.0473 2.6984 0
M  V30 26 H -4.4618 1.4457 1.024 0
M  V30 27 H -3.8964 0.1642 -3.0227 0
M  V30 28 H 5.5647 0.4545 0.2374 0
M  V30 29 H -5.2876 1.2445 -1.2868 0
M  V30 END ATOM
M  V30 BEGIN BOND
M  V30 1 1 1 2
M  V30 2 1 1 3
M  V30 3 2 2 4
M  V30 4 1 2 5
M  V30 5 2 3 6
M  V30 6 1 3 7
M  V30 7 1 4 8
M  V30 8 1 4 9
M  V30 9 1 5 10
M  V30 10 2 5 11
M  V30 11 1 6 12
M  V30 12 2 7 13
M  V30 13 2 9 14
M  V30 14 2 10 15
M  V30 15 1 11 16
M  V30 16 2 12 17
M  V30 17 1 15 18
M  V30 18 1 6 8
M  V30 19 1 10 14
M  V30 20 1 13 17
M  V30 21 2 16 18
M  V30 22 1 7 19
M  V30 23 1 8 20
M  V30 24 1 9 21
M  V30 25 1 11 22
M  V30 26 1 12 23
M  V30 27 1 13 24
M  V30 28 1 14 25
M  V30 29 1 15 26
M  V30 30 1 16 27
M  V30 31 1 17 28
M  V30 32 1 18 29
M  V30 END BOND
M  V30 END CTAB
M  END
>  <Structure No>
3651

>  <LogS>
-6.5727

>  <MMFF94 Energy>
73.151

$$$$
Compound 3652
Actelion Java MolfileCreator 2.0

  0  0  0  0  0  0              0 V3000
M  V30 BEGIN CTAB
M  V30 COUNTS 35 39 0 0 0
M  V30 BEGIN ATOM
M  V30 1 N 0.6476 -1.2146 -0.1618 0
M  V30 2 C 1.4443 -0.1167 -0.0785 0
M  V30 3 C -0.7087 -1.1374 -0.1812 0
M  V30 4 C 2.8507 -0.2445 -0.0614 0
M  V30 5 C 0.8518 1.1609 -0.0088 0
M  V30 6 C -1.3608 0.1212 -0.1136 0
M  V30 7 C -1.4474 -2.3168 -0.2684 0
M  V30 8 C 3.6549 0.9213 0.0262 0
M  V30 9 C 3.4777 -1.5047 -0.1295 0
M  V30 10 C -0.5453 1.2724 -0.0267 0
M  V30 11 C 1.6602 2.3034 0.0774 0
M  V30 12 C -2.7889 0.1654 -0.1363 0
M  V30 13 C -2.8367 -2.2793 -0.2909 0
M  V30 14 C 3.0503 2.1842 0.0948 0
M  V30 15 C 5.0538 0.8057 0.0439 0
M  V30 16 C 4.8713 -1.6027 -0.1106 0
M  V30 17 C -3.5154 -1.0568 -0.2261 0
M  V30 18 C -3.5271 1.373 -0.0735 0
M  V30 19 C 5.6565 -0.4518 -0.0243 0
M  V30 20 C -4.9194 -1.047 -0.2505 0
M  V30 21 C -4.9239 1.3609 -0.0992 0
M  V30 22 C -5.6173 0.1569 -0.1873 0
M  V30 23 H -0.9411 -3.2731 -0.3195 0
M  V30 24 H 2.8963 -2.4158 -0.197 0
M  V30 25 H -0.9655 2.2637 0.0281 0
M  V30 26 H 1.2168 3.2906 0.1316 0
M  V30 27 H -3.3841 -3.2123 -0.3593 0
M  V30 28 H 3.6541 3.0816 0.162 0
M  V30 29 H 5.6803 1.6875 0.1105 0
M  V30 30 H 5.3444 -2.5747 -0.1633 0
M  V30 31 H -3.0578 2.3401 -0.0043 0
M  V30 32 H 6.7355 -0.5349 -0.0101 0
M  V30 33 H -5.4781 -1.9732 -0.3187 0
M  V30 34 H -5.4721 2.2931 -0.0504 0
M  V30 35 H -6.6996 0.1565 -0.2066 0
M  V30 END ATOM
M  V30 BEGIN BOND
M  V30 1 1 1 2
M  V30 2 2 1 3
M  V30 3 2 2 4
M  V30 4 1 2 5
M  V30 5 1 3 6
M  V30 6 1 3 7
M  V30 7 1 4 8
M  V30 8 1 4 9
M  V30 9 1 5 10
M  V30 10 2 5 11
M  V30 11 1 6 12
M  V30 12 2 7 13
M  V30 13 2 8 14
M  V30 14 1 8 15
M  V30 15 2 9 16
M  V30 16 1 12 17
M  V30 17 2 12 18
M  V30 18 2 15 19
M  V30 19 2 17 20
M  V30 20 1 18 21
M  V30 21 1 20 22
M  V30 22 2 6 10
M  V30 23 1 11 14
M  V30 24 1 13 17
M  V30 25 1 16 19
M  V30 26 2 21 22
M  V30 27 1 7 23
M  V30 28 1 9 24
M  V30 29 1 10 25
M  V30 30 1 11 26
M  V30 31 1 13 27
M  V30 32 1 14 28
M  V30 33 1 15 29
M  V30 34 1 16 30
M  V30 35 1 18 31
M  V30 36 1 19 32
M  V30 37 1 20 33
M  V30 38 1 21 34
M  V30 39 1 22 35
M  V30 END BOND
M  V30 END CTAB
M  END
>  <Structure No>
3652

>  <LogS>
-6.2447

>  <MMFF94 Energy>
93.03

$$$$
Compound 3653
Actelion Java MolfileCreator 2.0

  0  0  0  0  0  0              0 V3000
M  V30 BEGIN CTAB
M  V30 COUNTS 23 25 0 0 0
M  V30 BEGIN ATOM
M  V30 1 N 0.5621 -2.1697 0.3212 0
M  V30 2 C 1.3433 -1.0685 0.1846 0
M  V30 3 C -0.7899 -2.1063 0.279 0
M  V30 4 C 0.7574 0.2111 -0.0107 0
M  V30 5 C 2.7344 -1.213 0.2393 0
M  V30 6 C -1.4341 -0.8798 0.0897 0
M  V30 7 C -0.664 0.3057 -0.0589 0
M  V30 8 C 1.6207 1.3251 -0.147 0
M  V30 9 C 3.5632 -0.1007 0.1024 0
M  V30 10 C -2.8362 -0.8274 0.0479 0
M  V30 11 C -1.3539 1.5277 -0.2487 0
M  V30 12 C 3.0079 1.163 -0.09 0
M  V30 13 C -3.4888 0.3894 -0.1401 0
M  V30 14 C -2.7505 1.5614 -0.2877 0
M  V30 15 H -1.3615 -3.0191 0.3942 0
M  V30 16 H 3.1758 -2.1909 0.3886 0
M  V30 17 H 1.2563 2.3279 -0.2978 0
M  V30 18 H 4.6383 -0.2185 0.1454 0
M  V30 19 H -3.4273 -1.7288 0.161 0
M  V30 20 H -0.8447 2.4695 -0.3694 0
M  V30 21 H 3.6562 2.0235 -0.1957 0
M  V30 22 H -4.5703 0.4241 -0.1716 0
M  V30 23 H -3.2632 2.5038 -0.4336 0
M  V30 END ATOM
M  V30 BEGIN BOND
M  V30 1 1 1 2
M  V30 2 2 1 3
M  V30 3 1 2 4
M  V30 4 2 2 5
M  V30 5 1 3 6
M  V30 6 1 4 7
M  V30 7 2 4 8
M  V30 8 1 5 9
M  V30 9 2 6 10
M  V30 10 2 7 11
M  V30 11 1 8 12
M  V30 12 1 10 13
M  V30 13 1 11 14
M  V30 14 1 6 7
M  V30 15 2 9 12
M  V30 16 2 13 14
M  V30 17 1 3 15
M  V30 18 1 5 16
M  V30 19 1 8 17
M  V30 20 1 9 18
M  V30 21 1 10 19
M  V30 22 1 11 20
M  V30 23 1 12 21
M  V30 24 1 13 22
M  V30 25 1 14 23
M  V30 END BOND
M  V30 END CTAB
M  END
>  <Structure No>
3653

>  <LogS>
-2.7763

>  <MMFF94 Energy>
57.759

$$$$
Compound 3654
Actelion Java MolfileCreator 2.0

  0  0  0  0  0  0              0 V3000
M  V30 BEGIN CTAB
M  V30 COUNTS 11 12 0 0 0
M  V30 BEGIN ATOM
M  V30 1 N -0.4908 -1.473 0.0 0
M  V30 2 C 0.6504 -0.7451 0.0106 0
M  V30 3 C -1.6777 -0.7904 -0.0136 0
M  V30 4 N 1.9116 -1.1926 0.0247 0
M  V30 5 C 0.6559 0.5998 0.0081 0
M  V30 6 N -1.6925 0.5838 -0.0162 0
M  V30 7 N 2.662 -0.0894 0.0305 0
M  V30 8 N 1.9264 1.024 0.0208 0 CHG=-1
M  V30 9 C -0.5333 1.3085 -0.0054 0
M  V30 10 H -2.6107 -1.3368 -0.0223 0
M  V30 11 H -0.5516 2.3901 -0.0075 0
M  V30 END ATOM
M  V30 BEGIN BOND
M  V30 1 2 1 2
M  V30 2 1 1 3
M  V30 3 1 2 4
M  V30 4 1 2 5
M  V30 5 2 3 6
M  V30 6 2 4 7
M  V30 7 1 5 8
M  V30 8 2 5 9
M  V30 9 1 6 9
M  V30 10 1 7 8
M  V30 11 1 3 10
M  V30 12 1 9 11
M  V30 END BOND
M  V30 END CTAB
M  END
>  <Structure No>
3654

>  <LogS>
-0.2319

>  <MMFF94 Energy>
10.207

$$$$
Compound 3655
Actelion Java MolfileCreator 2.0

  0  0  0  0  0  0              0 V3000
M  V30 BEGIN CTAB
M  V30 COUNTS 21 22 0 0 0
M  V30 BEGIN ATOM
M  V30 1 N -1.032 -0.0793 0.4762 0 CHG=1
M  V30 2 C 0.0331 -0.1126 1.5029 0
M  V30 3 C -0.8354 -1.2053 -0.4634 0
M  V30 4 C -0.9467 1.1957 -0.27 0
M  V30 5 C 1.4203 0.0066 0.8218 0
M  V30 6 C 0.553 -1.0845 -1.1416 0
M  V30 7 C 0.4419 1.3129 -0.9485 0
M  V30 8 N 1.2623 0.1176 -0.6464 0
M  V30 9 H -1.9699 -0.1597 0.9351 0
M  V30 10 H -0.0243 -1.0604 2.0841 0
M  V30 11 H -0.1068 0.7208 2.2277 0
M  V30 12 H -1.6368 -1.2041 -1.2362 0
M  V30 13 H -0.9099 -2.1747 0.0789 0
M  V30 14 H -1.7503 1.2443 -1.039 0
M  V30 15 H -1.1059 2.055 0.4196 0
M  V30 16 H 1.9615 0.8968 1.2119 0
M  V30 17 H 2.044 -0.8809 1.0686 0
M  V30 18 H 0.4341 -1.0248 -2.246 0
M  V30 19 H 1.1596 -1.9935 -0.9334 0
M  V30 20 H 0.3209 1.42 -2.0491 0
M  V30 21 H 0.9639 2.229 -0.5933 0
M  V30 END ATOM
M  V30 BEGIN BOND
M  V30 1 1 1 2
M  V30 2 1 1 3
M  V30 3 1 1 4
M  V30 4 1 2 5
M  V30 5 1 3 6
M  V30 6 1 4 7
M  V30 7 1 5 8
M  V30 8 1 6 8
M  V30 9 1 7 8
M  V30 10 1 1 9
M  V30 11 1 2 10
M  V30 12 1 2 11
M  V30 13 1 3 12
M  V30 14 1 3 13
M  V30 15 1 4 14
M  V30 16 1 4 15
M  V30 17 1 5 16
M  V30 18 1 5 17
M  V30 19 1 6 18
M  V30 20 1 6 19
M  V30 21 1 7 20
M  V30 22 1 7 21
M  V30 END BOND
M  V30 END CTAB
M  END
>  <Structure No>
3655

>  <LogS>
0.6033

>  <MMFF94 Energy>
159.27

$$$$
Compound 3656
Actelion Java MolfileCreator 2.0

  0  0  0  0  0  0              0 V3000
M  V30 BEGIN CTAB
M  V30 COUNTS 8 8 0 0 0
M  V30 BEGIN ATOM
M  V30 1 O 0.7004 -1.3233 -0.3112 0
M  V30 2 N -0.596 -1.3943 -0.2241 0
M  V30 3 C 1.118 -0.0837 -0.205 0
M  V30 4 C -1.0485 -0.1384 -0.0524 0
M  V30 5 C 0.0204 0.7298 -0.0349 0
M  V30 6 H 2.1529 0.2276 -0.2464 0
M  V30 7 H -2.0917 0.1271 0.0532 0
M  V30 8 H 0.0019 1.8046 0.0849 0
M  V30 END ATOM
M  V30 BEGIN BOND
M  V30 1 1 1 2
M  V30 2 1 1 3
M  V30 3 2 2 4
M  V30 4 2 3 5
M  V30 5 1 4 5
M  V30 6 1 3 6
M  V30 7 1 4 7
M  V30 8 1 5 8
M  V30 END BOND
M  V30 END CTAB
M  END
>  <Structure No>
3656

>  <LogS>
0.3827

>  <MMFF94 Energy>
-1.7135

$$$$
Compound 3657
Actelion Java MolfileCreator 2.0

  0  0  0  0  0  0              0 V3000
M  V30 BEGIN CTAB
M  V30 COUNTS 10 10 0 0 0
M  V30 BEGIN ATOM
M  V30 1 N -0.5498 -1.6501 -0.2356 0
M  V30 2 N 0.7828 -1.5763 -0.2083 0
M  V30 3 C -1.3227 -0.5385 -0.1152 0
M  V30 4 C 1.423 -0.3866 -0.0592 0
M  V30 5 C -0.7151 0.7069 0.0399 0
M  V30 6 C 0.6761 0.7838 0.0684 0
M  V30 7 H -2.401 -0.6228 -0.1401 0
M  V30 8 H 2.504 -0.3515 -0.0399 0
M  V30 9 H -1.316 1.6019 0.1371 0
M  V30 10 H 1.17 1.7394 0.1878 0
M  V30 END ATOM
M  V30 BEGIN BOND
M  V30 1 2 1 2
M  V30 2 1 1 3
M  V30 3 1 2 4
M  V30 4 2 3 5
M  V30 5 2 4 6
M  V30 6 1 5 6
M  V30 7 1 3 7
M  V30 8 1 4 8
M  V30 9 1 5 9
M  V30 10 1 6 10
M  V30 END BOND
M  V30 END CTAB
M  END
>  <Structure No>
3657

>  <LogS>
1.0964

>  <MMFF94 Energy>
18.754

$$$$
Compound 3658
Actelion Java MolfileCreator 2.0

  0  0  0  0  0  0              0 V3000
M  V30 BEGIN CTAB
M  V30 COUNTS 10 10 0 0 0
M  V30 BEGIN ATOM
M  V30 1 N 0.8632 -1.2558 -0.0784 0
M  V30 2 C 1.6123 -0.122 -0.104 0
M  V30 3 C -0.4916 -1.1936 0.0025 0
M  V30 4 N 1.0086 1.0945 -0.0482 0
M  V30 5 C -1.1288 0.0456 0.0606 0
M  V30 6 C -0.3436 1.198 0.0332 0
M  V30 7 H 2.6895 -0.1877 -0.1685 0
M  V30 8 H -1.0731 -2.1056 0.0219 0
M  V30 9 H -2.2072 0.1116 0.1253 0
M  V30 10 H -0.8082 2.174 0.0768 0
M  V30 END ATOM
M  V30 BEGIN BOND
M  V30 1 2 1 2
M  V30 2 1 1 3
M  V30 3 1 2 4
M  V30 4 2 3 5
M  V30 5 2 4 6
M  V30 6 1 5 6
M  V30 7 1 2 7
M  V30 8 1 3 8
M  V30 9 1 5 9
M  V30 10 1 6 10
M  V30 END BOND
M  V30 END CTAB
M  END
>  <Structure No>
3658

>  <LogS>
1.0964

>  <MMFF94 Energy>
-7.493

$$$$
Compound 3659
Actelion Java MolfileCreator 2.0

  0  0  0  0  0  0              0 V3000
M  V30 BEGIN CTAB
M  V30 COUNTS 21 21 0 0 0
M  V30 BEGIN ATOM
M  V30 1 C 0.3918 -1.6466 0.0 0
M  V30 2 C 1.5439 -0.7021 0.3634 0
M  V30 3 C -0.9641 -1.2222 0.5863 0
M  V30 4 C 1.3206 0.749 -0.0911 0
M  V30 5 C -1.5773 -0.0339 -0.1729 0
M  V30 6 C 0.3115 1.4878 0.8034 0
M  V30 7 C -1.1557 1.3478 0.359 0
M  V30 8 H 0.3214 -1.7468 -1.1053 0
M  V30 9 H 0.6413 -2.6546 0.397 0
M  V30 10 H 2.4637 -1.0831 -0.1311 0
M  V30 11 H 1.7307 -0.7403 1.459 0
M  V30 12 H -0.8774 -1.004 1.6731 0
M  V30 13 H -1.6564 -2.0864 0.4848 0
M  V30 14 H 2.2964 1.2767 -0.0131 0
M  V30 15 H 1.0163 0.7894 -1.1596 0
M  V30 16 H -2.6849 -0.1005 -0.0962 0
M  V30 17 H -1.3411 -0.1038 -1.2572 0
M  V30 18 H 0.5628 2.5711 0.7984 0
M  V30 19 H 0.4141 1.155 1.8596 0
M  V30 20 H -1.3624 2.0989 -0.4345 0
M  V30 21 H -1.8031 1.6114 1.2239 0
M  V30 END ATOM
M  V30 BEGIN BOND
M  V30 1 1 1 2
M  V30 2 1 1 3
M  V30 3 1 2 4
M  V30 4 1 3 5
M  V30 5 1 4 6
M  V30 6 1 5 7
M  V30 7 1 6 7
M  V30 8 1 1 8
M  V30 9 1 1 9
M  V30 10 1 2 10
M  V30 11 1 2 11
M  V30 12 1 3 12
M  V30 13 1 3 13
M  V30 14 1 4 14
M  V30 15 1 4 15
M  V30 16 1 5 16
M  V30 17 1 5 17
M  V30 18 1 6 18
M  V30 19 1 6 19
M  V30 20 1 7 20
M  V30 21 1 7 21
M  V30 END BOND
M  V30 END CTAB
M  END
>  <Structure No>
3659

>  <LogS>
-3.5149

>  <MMFF94 Energy>
5.9748

$$$$
Compound 3660
Actelion Java MolfileCreator 2.0

  0  0  0  0  0  0              0 V3000
M  V30 BEGIN CTAB
M  V30 COUNTS 12 13 0 0 0
M  V30 BEGIN ATOM
M  V30 1 O 1.4528 0.8876 0.6455 0
M  V30 2 C 0.4494 0.4466 -0.2371 0 CFG=1
M  V30 3 C 1.8494 -0.013 -0.363 0
M  V30 4 C -0.5062 -0.5205 0.4538 0 CFG=2
M  V30 5 O -1.5098 -0.961 -0.4286 0
M  V30 6 C -1.906 -0.0606 0.5803 0
M  V30 7 H 0.0985 1.2559 -0.9127 0
M  V30 8 H 2.1096 -1.005 0.0633 0
M  V30 9 H 2.4628 0.4947 -1.1358 0
M  V30 10 H -0.1553 -1.33 1.1292 0
M  V30 11 H -2.166 0.9317 0.1544 0
M  V30 12 H -2.5194 -0.5683 1.3533 0
M  V30 END ATOM
M  V30 BEGIN BOND
M  V30 1 1 1 2
M  V30 2 1 1 3
M  V30 3 1 2 4
M  V30 4 1 4 5
M  V30 5 1 4 6
M  V30 6 1 2 3
M  V30 7 1 5 6
M  V30 8 1 2 7
M  V30 9 1 3 8
M  V30 10 1 3 9
M  V30 11 1 4 10
M  V30 12 1 6 11
M  V30 13 1 6 12
M  V30 END BOND
M  V30 BEGIN COLLECTION
M  V30 MDLV30/STEABS ATOMS=(2 2 4)
M  V30 END COLLECTION
M  V30 END CTAB
M  END
>  <Structure No>
3660

>  <LogS>
1.065

>  <MMFF94 Energy>
9.9286

$$$$
Compound 3661
Actelion Java MolfileCreator 2.0

  0  0  0  0  0  0              0 V3000
M  V30 BEGIN CTAB
M  V30 COUNTS 7 6 0 0 0
M  V30 BEGIN ATOM
M  V30 1 N -0.5532 0.0 0.0 0 CHG=1
M  V30 2 N 0.8063 -0.1128 -0.3394 0
M  V30 3 H -0.6456 0.1768 1.0278 0
M  V30 4 H -0.9689 0.7922 -0.5412 0
M  V30 5 H -1.0379 -0.8898 -0.258 0
M  V30 6 H 1.2184 -0.8862 0.2331 0
M  V30 7 H 1.2863 0.7697 -0.0456 0
M  V30 END ATOM
M  V30 BEGIN BOND
M  V30 1 1 1 2
M  V30 2 1 1 3
M  V30 3 1 1 4
M  V30 4 1 1 5
M  V30 5 1 2 6
M  V30 6 1 2 7
M  V30 END BOND
M  V30 END CTAB
M  END
>  <Structure No>
3661

>  <LogS>
1.4942

>  <MMFF94 Energy>
94.29

$$$$
Compound 3662
Actelion Java MolfileCreator 2.0

  0  0  0  0  0  0              0 V3000
M  V30 BEGIN CTAB
M  V30 COUNTS 94 100 0 0 0
M  V30 BEGIN ATOM
M  V30 1 O 3.9016 0.5682 2.4371 0
M  V30 2 C 4.078 0.9878 1.2596 0
M  V30 3 O 3.597 0.2512 0.1699 0
M  V30 4 C 4.7941 2.2585 1.0215 0
M  V30 5 C 2.8064 -0.9337 0.3036 0 CFG=2
M  V30 6 C 4.853 2.8058 -0.273 0
M  V30 7 C 5.4261 2.9376 2.0814 0
M  V30 8 C 2.6294 -1.6177 -1.0424 0 CFG=1
M  V30 9 C 1.359 -0.5765 0.629 0 CFG=2
M  V30 10 C 5.5345 4.0063 -0.5022 0
M  V30 11 C 6.1087 4.1354 1.8451 0
M  V30 12 O 3.8432 -1.6852 -1.7592 0
M  V30 13 C 2.1357 -3.066 -0.7707 0 CFG=2
M  V30 14 C 1.5635 -0.7464 -1.7663 0
M  V30 15 C 0.4744 -1.8434 0.9481 0 CFG=1
M  V30 16 C 0.8741 0.1085 -0.6584 0 CFG=1
M  V30 17 C 6.1644 4.6682 0.5543 0
M  V30 18 O 1.9642 -3.7146 -2.0256 0
M  V30 19 C 0.7875 -3.1099 0.0403 0 CFG=2
M  V30 20 O 0.597 -2.1602 2.3516 0
M  V30 21 C -1.0387 -1.4397 0.7711 0 CFG=2
M  V30 22 C -0.7019 0.3427 -0.7641 0 CFG=2
M  V30 23 C 2.4198 -5.0495 -1.9784 0
M  V30 24 O 0.6108 -4.2994 0.7801 0
M  V30 25 C 1.7027 -2.6531 3.0606 0
M  V30 26 C -1.461 -0.9759 -0.6564 0 CFG=2
M  V30 27 C -1.3548 -0.1806 1.6074 0 CFG=1
M  V30 28 C -1.0453 1.1432 -2.0964 0 CFG=2
M  V30 29 C -1.2825 0.9918 0.5511 0 CFG=2
M  V30 30 O 2.6365 -3.2763 2.493 0
M  V30 31 C 1.7468 -2.4554 4.5369 0
M  V30 32 N -2.9737 -0.8252 -0.7238 0 CHG=1 CFG=1
M  V30 33 O -2.6273 -0.3369 2.2084 0
M  V30 34 O -0.0244 1.0471 -3.0795 0
M  V30 35 C -1.2233 2.6178 -1.7816 0
M  V30 36 C -2.6605 1.6423 0.1923 0 CFG=2
M  V30 37 C -3.5641 0.5546 -0.5365 0
M  V30 38 C -3.5211 -1.4948 -1.9377 0
M  V30 39 C -2.5177 -0.9377 3.4825 0
M  V30 40 C -0.4763 0.3761 -4.2373 0
M  V30 41 C -2.352 2.8705 -0.7633 0 CFG=1
M  V30 42 C -3.4187 2.2048 1.4644 0
M  V30 43 C -5.0453 -1.6761 -1.8879 0
M  V30 44 O -1.9804 4.0003 -0.0071 0
M  V30 45 O -4.2137 3.3502 1.1913 0
M  V30 46 C -5.5144 2.9931 0.7757 0
M  V30 47 H 3.2931 -1.5886 1.044 0
M  V30 48 H 4.3715 2.312 -1.1068 0
M  V30 49 H 5.3998 2.5394 3.0889 0
M  V30 50 H 1.3581 0.1415 1.4751 0
M  V30 51 H 5.5729 4.4223 -1.4999 0
M  V30 52 H 6.5968 4.6496 2.6619 0
M  V30 53 H 4.1419 -0.7648 -1.9793 0
M  V30 54 H 2.9456 -3.5408 -0.1642 0
M  V30 55 H 0.8583 -1.3784 -2.3411 0
M  V30 56 H 2.0657 -0.0694 -2.4908 0
M  V30 57 H 1.3368 1.1225 -0.6813 0
M  V30 58 H 6.6939 5.5954 0.3737 0
M  V30 59 H 0.0172 -3.1946 -0.739 0
M  V30 60 H -1.6554 -2.3108 1.0881 0
M  V30 61 H 3.5084 -5.0941 -1.7559 0
M  V30 62 H 1.8426 -5.6475 -1.2413 0
M  V30 63 H 2.2652 -5.5115 -2.9749 0
M  V30 64 H 1.4761 -4.7616 0.9002 0
M  V30 65 H -1.1159 -1.6497 -1.4549 0
M  V30 66 H -0.5915 0.0339 2.3905 0
M  V30 67 H -2.0146 0.8243 -2.513 0
M  V30 68 H -0.5922 1.7803 0.928 0
M  V30 69 H 0.7625 -2.7164 4.9767 0
M  V30 70 H 2.5293 -3.0969 4.9957 0
M  V30 71 H 1.9742 -1.3921 4.7566 0
M  V30 72 H -3.3726 -1.3976 0.0573 0
M  V30 73 H -1.4458 3.1743 -2.7188 0
M  V30 74 H -0.2574 3.0102 -1.39 0
M  V30 75 H -4.5181 0.4356 0.0232 0
M  V30 76 H -3.9225 0.9612 -1.5058 0
M  V30 77 H -3.2544 -0.9412 -2.86 0
M  V30 78 H -3.0888 -2.5168 -2.0322 0
M  V30 79 H -3.5377 -1.1499 3.8633 0
M  V30 80 H -2.0267 -0.2477 4.2017 0
M  V30 81 H -1.9671 -1.9013 3.4402 0
M  V30 82 H -0.8453 -0.645 -3.9939 0
M  V30 83 H -1.2703 0.9637 -4.7465 0
M  V30 84 H 0.3743 0.27 -4.9423 0
M  V30 85 H -3.2825 3.1095 -1.331 0
M  V30 86 H -2.6561 2.5191 2.2088 0
M  V30 87 H -4.0251 1.4399 1.9935 0
M  V30 88 H -5.5673 -0.6987 -1.9583 0
M  V30 89 H -5.3461 -2.1888 -0.9498 0
M  V30 90 H -5.3709 -2.3005 -2.747 0
M  V30 91 H -2.1865 4.8021 -0.5563 0
M  V30 92 H -6.127 3.9159 0.7181 0
M  V30 93 H -6.015 2.3136 1.5011 0
M  V30 94 H -5.4998 2.5489 -0.2399 0
M  V30 END ATOM
M  V30 BEGIN BOND
M  V30 1 2 1 2
M  V30 2 1 2 3
M  V30 3 1 2 4
M  V30 4 1 3 5
M  V30 5 2 4 6
M  V30 6 1 4 7
M  V30 7 1 5 8
M  V30 8 1 5 9
M  V30 9 1 6 10
M  V30 10 2 7 11
M  V30 11 1 8 12
M  V30 12 1 8 13
M  V30 13 1 8 14
M  V30 14 1 9 15
M  V30 15 1 9 16
M  V30 16 2 10 17
M  V30 17 1 13 18
M  V30 18 1 13 19
M  V30 19 1 15 20
M  V30 20 1 15 21
M  V30 21 1 16 22
M  V30 22 1 18 23
M  V30 23 1 19 24
M  V30 24 1 20 25
M  V30 25 1 21 26
M  V30 26 1 21 27
M  V30 27 1 22 28
M  V30 28 1 22 29
M  V30 29 2 25 30
M  V30 30 1 25 31
M  V30 31 1 26 32
M  V30 32 1 27 33
M  V30 33 1 28 34
M  V30 34 1 28 35
M  V30 35 1 29 36
M  V30 36 1 32 37
M  V30 37 1 32 38
M  V30 38 1 33 39
M  V30 39 1 34 40
M  V30 40 1 35 41
M  V30 41 1 36 42
M  V30 42 1 38 43
M  V30 43 1 41 44
M  V30 44 1 42 45
M  V30 45 1 45 46
M  V30 46 1 11 17
M  V30 47 1 14 16
M  V30 48 1 15 19
M  V30 49 1 22 26
M  V30 50 1 27 29
M  V30 51 1 36 37
M  V30 52 1 36 41
M  V30 53 1 5 47
M  V30 54 1 6 48
M  V30 55 1 7 49
M  V30 56 1 9 50
M  V30 57 1 10 51
M  V30 58 1 11 52
M  V30 59 1 12 53
M  V30 60 1 13 54
M  V30 61 1 14 55
M  V30 62 1 14 56
M  V30 63 1 16 57
M  V30 64 1 17 58
M  V30 65 1 19 59
M  V30 66 1 21 60
M  V30 67 1 23 61
M  V30 68 1 23 62
M  V30 69 1 23 63
M  V30 70 1 24 64
M  V30 71 1 26 65
M  V30 72 1 27 66
M  V30 73 1 28 67
M  V30 74 1 29 68
M  V30 75 1 31 69
M  V30 76 1 31 70
M  V30 77 1 31 71
M  V30 78 1 32 72
M  V30 79 1 35 73
M  V30 80 1 35 74
M  V30 81 1 37 75
M  V30 82 1 37 76
M  V30 83 1 38 77
M  V30 84 1 38 78
M  V30 85 1 39 79
M  V30 86 1 39 80
M  V30 87 1 39 81
M  V30 88 1 40 82
M  V30 89 1 40 83
M  V30 90 1 40 84
M  V30 91 1 41 85
M  V30 92 1 42 86
M  V30 93 1 42 87
M  V30 94 1 43 88
M  V30 95 1 43 89
M  V30 96 1 43 90
M  V30 97 1 44 91
M  V30 98 1 46 92
M  V30 99 1 46 93
M  V30 100 1 46 94
M  V30 END BOND
M  V30 BEGIN COLLECTION
M  V30 MDLV30/STEABS ATOMS=(16 5 8 9 13 15 16 19 21 22 26 27 28 29 32 36 41)
M  V30 END COLLECTION
M  V30 END CTAB
M  END
>  <Structure No>
3662

>  <LogS>
-3.3187

>  <MMFF94 Energy>
232.81

$$$$
Compound 3663
Actelion Java MolfileCreator 2.0

  0  0  0  0  0  0              0 V3000
M  V30 BEGIN CTAB
M  V30 COUNTS 21 20 0 0 0
M  V30 BEGIN ATOM
M  V30 1 O 1.3217 -1.5551 -0.9328 0
M  V30 2 C 1.6661 -0.9499 0.1176 0
M  V30 3 O 0.9766 0.1888 0.5653 0
M  V30 4 N 2.7853 -1.4218 0.8623 0
M  V30 5 C -0.2065 0.7678 -0.0113 0 CFG=1
M  V30 6 C -0.133 0.8006 -1.489 0
M  V30 7 C -1.4838 0.0278 0.468 0
M  V30 8 C -0.2781 2.2216 0.4767 0
M  V30 9 C -0.0753 0.8302 -2.6932 0
M  V30 10 C -1.5646 -1.4465 0.0679 0
M  V30 11 H 3.0826 -0.9272 1.732 0
M  V30 12 H 3.315 -2.2644 0.5465 0
M  V30 13 H -1.5469 0.0845 1.5772 0
M  V30 14 H -2.3825 0.5431 0.0608 0
M  V30 15 H 0.6274 2.7822 0.1572 0
M  V30 16 H -1.1753 2.7373 0.0692 0
M  V30 17 H -0.3257 2.2547 1.5867 0
M  V30 18 H -0.0247 0.8556 -3.7499 0
M  V30 19 H -2.5614 -1.8471 0.3492 0
M  V30 20 H -0.7992 -2.0405 0.6077 0
M  V30 21 H -1.4402 -1.57 -1.028 0
M  V30 END ATOM
M  V30 BEGIN BOND
M  V30 1 2 1 2
M  V30 2 1 2 3
M  V30 3 1 2 4
M  V30 4 1 3 5
M  V30 5 1 5 6
M  V30 6 1 5 7
M  V30 7 1 5 8
M  V30 8 3 6 9
M  V30 9 1 7 10
M  V30 10 1 4 11
M  V30 11 1 4 12
M  V30 12 1 7 13
M  V30 13 1 7 14
M  V30 14 1 8 15
M  V30 15 1 8 16
M  V30 16 1 8 17
M  V30 17 1 9 18
M  V30 18 1 10 19
M  V30 19 1 10 20
M  V30 20 1 10 21
M  V30 END BOND
M  V30 BEGIN COLLECTION
M  V30 MDLV30/STEABS ATOMS=(1 5)
M  V30 END COLLECTION
M  V30 END CTAB
M  END
>  <Structure No>
3663

>  <LogS>
-0.9456

>  <MMFF94 Energy>
-64.258

$$$$
Compound 3664
Actelion Java MolfileCreator 2.0

  0  0  0  0  0  0              0 V3000
M  V30 BEGIN CTAB
M  V30 COUNTS 14 13 0 0 0
M  V30 BEGIN ATOM
M  V30 1 O -2.1925 0.6492 -0.8928 0
M  V30 2 C -1.4024 0.9112 0.0526 0
M  V30 3 O -1.2602 2.2245 0.4832 0 CHG=-1
M  V30 4 C -0.5857 -0.1815 0.6905 0 CFG=1
M  V30 5 O -1.3831 -1.3212 0.8845 0
M  V30 6 C 0.6361 -0.5593 -0.1673 0 CFG=1
M  V30 7 O 0.2199 -0.991 -1.438 0
M  V30 8 C 1.5892 0.5979 -0.2966 0
M  V30 9 O 2.4833 0.7786 0.5714 0
M  V30 10 O 1.4587 1.5017 -1.3443 0 CHG=-1
M  V30 11 H -0.2169 0.1772 1.6806 0
M  V30 12 H -1.9942 -1.1196 1.6412 0
M  V30 13 H 1.1655 -1.3951 0.3484 0
M  V30 14 H 0.9903 -1.4664 -1.8463 0
M  V30 END ATOM
M  V30 BEGIN BOND
M  V30 1 2 1 2
M  V30 2 1 2 3
M  V30 3 1 2 4
M  V30 4 1 4 5
M  V30 5 1 4 6
M  V30 6 1 6 7
M  V30 7 1 6 8
M  V30 8 2 8 9
M  V30 9 1 8 10
M  V30 10 1 4 11
M  V30 11 1 5 12
M  V30 12 1 6 13
M  V30 13 1 7 14
M  V30 END BOND
M  V30 BEGIN COLLECTION
M  V30 MDLV30/STEABS ATOMS=(2 4 6)
M  V30 END COLLECTION
M  V30 END CTAB
M  END
>  <Structure No>
3664

>  <LogS>
0.3984

>  <MMFF94 Energy>
173.67

$$$$
Compound 3665
Actelion Java MolfileCreator 2.0

  0  0  0  0  0  0              0 V3000
M  V30 BEGIN CTAB
M  V30 COUNTS 8 7 0 0 0
M  V30 BEGIN ATOM
M  V30 1 Cl 1.6653 -1.295 0.4624 0
M  V30 2 C 0.7266 0.1713 0.076 0
M  V30 3 Cl 1.2615 0.8011 -1.5043 0
M  V30 4 C -0.7702 -0.1361 0.0554 0
M  V30 5 F -1.4814 1.0154 -0.2305 0
M  V30 6 F -1.1687 -0.6083 1.293 0
M  V30 7 F -1.0513 -1.0916 -0.9052 0
M  V30 8 H 0.9352 0.9388 0.8511 0
M  V30 END ATOM
M  V30 BEGIN BOND
M  V30 1 1 1 2
M  V30 2 1 2 3
M  V30 3 1 2 4
M  V30 4 1 4 5
M  V30 5 1 4 6
M  V30 6 1 4 7
M  V30 7 1 2 8
M  V30 END BOND
M  V30 END CTAB
M  END
>  <Structure No>
3665

>  <LogS>
-1.8623

>  <MMFF94 Energy>
47.024

$$$$
Compound 3666
Actelion Java MolfileCreator 2.0

  0  0  0  0  0  0              0 V3000
M  V30 BEGIN CTAB
M  V30 COUNTS 34 34 0 0 0
M  V30 BEGIN ATOM
M  V30 1 O 3.4517 0.862 -0.6269 0
M  V30 2 C 3.5857 0.2293 0.4565 0
M  V30 3 O 2.536 -0.5422 0.9712 0
M  V30 4 N 4.8386 0.2469 1.1461 0
M  V30 5 C 1.192 -0.4492 0.5786 0
M  V30 6 C 5.978 1.0125 0.6567 0
M  V30 7 C 0.394 -1.5917 0.6694 0
M  V30 8 C 0.6213 0.757 0.1414 0
M  V30 9 C -0.9545 -1.5606 0.2848 0
M  V30 10 C -0.7331 0.8184 -0.2222 0
M  V30 11 C -1.5241 -0.3501 -0.1633 0
M  V30 12 C -1.7851 -2.8116 0.3813 0
M  V30 13 C -1.3127 2.1234 -0.6976 0
M  V30 14 N -2.9092 -0.3121 -0.5471 0
M  V30 15 C -3.278 -0.2728 -1.9604 0
M  V30 16 C -3.944 -0.1329 0.469 0
M  V30 17 H 4.9368 -0.3021 2.0294 0
M  V30 18 H 5.7134 2.0896 0.6043 0
M  V30 19 H 6.2689 0.6515 -0.352 0
M  V30 20 H 6.84 0.8875 1.3454 0
M  V30 21 H 0.8365 -2.5132 1.0279 0
M  V30 22 H 1.2182 1.6588 0.1166 0
M  V30 23 H -2.3554 -2.9652 -0.5588 0
M  V30 24 H -2.4958 -2.7216 1.2291 0
M  V30 25 H -1.1517 -3.7092 0.5447 0
M  V30 26 H -2.2996 2.3042 -0.2233 0
M  V30 27 H -0.6541 2.9791 -0.4371 0
M  V30 28 H -1.4341 2.0954 -1.8003 0
M  V30 29 H -2.4059 -0.5222 -2.6024 0
M  V30 30 H -3.6428 0.7417 -2.2251 0
M  V30 31 H -4.0818 -1.0125 -2.1594 0
M  V30 32 H -4.7424 -0.8916 0.3293 0
M  V30 33 H -3.5213 -0.2509 1.49 0
M  V30 34 H -4.3848 0.882 0.3802 0
M  V30 END ATOM
M  V30 BEGIN BOND
M  V30 1 2 1 2
M  V30 2 1 2 3
M  V30 3 1 2 4
M  V30 4 1 3 5
M  V30 5 1 4 6
M  V30 6 2 5 7
M  V30 7 1 5 8
M  V30 8 1 7 9
M  V30 9 2 8 10
M  V30 10 2 9 11
M  V30 11 1 9 12
M  V30 12 1 10 13
M  V30 13 1 11 14
M  V30 14 1 14 15
M  V30 15 1 14 16
M  V30 16 1 10 11
M  V30 17 1 4 17
M  V30 18 1 6 18
M  V30 19 1 6 19
M  V30 20 1 6 20
M  V30 21 1 7 21
M  V30 22 1 8 22
M  V30 23 1 12 23
M  V30 24 1 12 24
M  V30 25 1 12 25
M  V30 26 1 13 26
M  V30 27 1 13 27
M  V30 28 1 13 28
M  V30 29 1 15 29
M  V30 30 1 15 30
M  V30 31 1 15 31
M  V30 32 1 16 32
M  V30 33 1 16 33
M  V30 34 1 16 34
M  V30 END BOND
M  V30 END CTAB
M  END
>  <Structure No>
3666

>  <LogS>
-3.3469

>  <MMFF94 Energy>
-3.0375

$$$$
Compound 3667
Actelion Java MolfileCreator 2.0

  0  0  0  0  0  0              0 V3000
M  V30 BEGIN CTAB
M  V30 COUNTS 22 21 0 0 0
M  V30 BEGIN ATOM
M  V30 1 O -2.9516 1.009 -1.3972 0
M  V30 2 C -2.3325 0.7156 -0.3406 0
M  V30 3 O -2.6761 1.342 0.8514 0 CHG=-1
M  V30 4 C -1.2283 -0.313 -0.3679 0 CFG=2
M  V30 5 N -1.5984 -1.4366 0.507 0 CHG=1
M  V30 6 C 0.1384 0.3284 0.039 0 CFG=1
M  V30 7 C 1.2652 -0.7354 0.1233 0
M  V30 8 C 0.522 1.448 -0.9526 0
M  V30 9 C 2.6187 -0.1623 0.5503 0
M  V30 10 H -1.1355 -0.6991 -1.4094 0
M  V30 11 H -2.5953 -1.7102 0.3436 0
M  V30 12 H -1.0158 -2.2754 0.2854 0
M  V30 13 H -1.48 -1.1775 1.5139 0
M  V30 14 H 0.025 0.7877 1.0468 0
M  V30 15 H 0.9981 -1.4984 0.8835 0
M  V30 16 H 1.3787 -1.2502 -0.8556 0
M  V30 17 H 1.4135 2.0033 -0.5956 0
M  V30 18 H -0.2906 2.1973 -1.0474 0
M  V30 19 H 0.7342 1.0237 -1.9572 0
M  V30 20 H 2.5058 0.4729 1.4545 0
M  V30 21 H 3.3138 -0.9949 0.7891 0
M  V30 22 H 3.0726 0.4304 -0.2704 0
M  V30 END ATOM
M  V30 BEGIN BOND
M  V30 1 2 1 2
M  V30 2 1 2 3
M  V30 3 1 2 4
M  V30 4 1 4 5
M  V30 5 1 4 6
M  V30 6 1 6 7
M  V30 7 1 6 8
M  V30 8 1 7 9
M  V30 9 1 4 10
M  V30 10 1 5 11
M  V30 11 1 5 12
M  V30 12 1 5 13
M  V30 13 1 6 14
M  V30 14 1 7 15
M  V30 15 1 7 16
M  V30 16 1 8 17
M  V30 17 1 8 18
M  V30 18 1 8 19
M  V30 19 1 9 20
M  V30 20 1 9 21
M  V30 21 1 9 22
M  V30 END BOND
M  V30 BEGIN COLLECTION
M  V30 MDLV30/STEABS ATOMS=(2 4 6)
M  V30 END COLLECTION
M  V30 END CTAB
M  END
>  <Structure No>
3667

>  <LogS>
-0.5033

>  <MMFF94 Energy>
-3.5871

$$$$
Compound 3668
Actelion Java MolfileCreator 2.0

  0  0  0  0  0  0              0 V3000
M  V30 BEGIN CTAB
M  V30 COUNTS 15 15 0 0 0
M  V30 BEGIN ATOM
M  V30 1 Cl 3.4129 -1.0812 -0.582 0
M  V30 2 C 1.8437 -0.3518 -0.2937 0
M  V30 3 C 0.7039 -1.156 -0.2049 0
M  V30 4 C 1.7315 1.0332 -0.1663 0
M  V30 5 C -0.5637 -0.5841 0.0122 0
M  V30 6 C 0.4848 1.6142 0.0696 0
M  V30 7 C -0.6629 0.8199 0.1826 0
M  V30 8 C -1.7492 -1.469 0.0165 0
M  V30 9 O -1.8653 1.4559 0.4981 0
M  V30 10 O -1.6572 -2.647 0.4529 0
M  V30 11 O -2.9576 -1.0419 -0.52 0 CHG=-1
M  V30 12 H 0.8059 -2.227 -0.3326 0
M  V30 13 H 2.6107 1.6604 -0.2404 0
M  V30 14 H 0.4119 2.6879 0.1892 0
M  V30 15 H -2.7027 0.9593 0.7689 0
M  V30 END ATOM
M  V30 BEGIN BOND
M  V30 1 1 1 2
M  V30 2 2 2 3
M  V30 3 1 2 4
M  V30 4 1 3 5
M  V30 5 2 4 6
M  V30 6 2 5 7
M  V30 7 1 5 8
M  V30 8 1 7 9
M  V30 9 2 8 10
M  V30 10 1 8 11
M  V30 11 1 6 7
M  V30 12 1 3 12
M  V30 13 1 4 13
M  V30 14 1 6 14
M  V30 15 1 9 15
M  V30 END BOND
M  V30 END CTAB
M  END
>  <Structure No>
3668

>  <LogS>
-1.237

>  <MMFF94 Energy>
2.3407

$$$$
Compound 3669
Actelion Java MolfileCreator 2.0

  0  0  0  0  0  0              0 V3000
M  V30 BEGIN CTAB
M  V30 COUNTS 18 19 0 0 0
M  V30 BEGIN ATOM
M  V30 1 F 1.2826 -2.6468 -0.561 0
M  V30 2 C 1.2466 -1.318 -0.2845 0
M  V30 3 C 0.0203 -0.6465 -0.1282 0
M  V30 4 C 2.4496 -0.6169 -0.1556 0
M  V30 5 C 0.0158 0.742 0.1601 0
M  V30 6 C -1.2011 -1.3298 -0.2531 0
M  V30 7 C 2.4423 0.7508 0.1284 0
M  V30 8 C 1.232 1.4304 0.2862 0
M  V30 9 C -1.2051 1.4164 0.317 0
M  V30 10 C -2.4093 -0.645 -0.0942 0
M  V30 11 C -2.4113 0.7226 0.1897 0
M  V30 12 H 3.3921 -1.1352 -0.2762 0
M  V30 13 H -1.2251 -2.39 -0.4728 0
M  V30 14 H 3.378 1.2859 0.2266 0
M  V30 15 H 1.2462 2.4912 0.5064 0
M  V30 16 H -1.2262 2.4769 0.5375 0
M  V30 17 H -3.3472 -1.1763 -0.1915 0
M  V30 18 H -3.3505 1.2467 0.3115 0
M  V30 END ATOM
M  V30 BEGIN BOND
M  V30 1 1 1 2
M  V30 2 1 2 3
M  V30 3 2 2 4
M  V30 4 1 3 5
M  V30 5 2 3 6
M  V30 6 1 4 7
M  V30 7 1 5 8
M  V30 8 2 5 9
M  V30 9 1 6 10
M  V30 10 1 9 11
M  V30 11 2 7 8
M  V30 12 2 10 11
M  V30 13 1 4 12
M  V30 14 1 6 13
M  V30 15 1 7 14
M  V30 16 1 8 15
M  V30 17 1 9 16
M  V30 18 1 10 17
M  V30 19 1 11 18
M  V30 END BOND
M  V30 END CTAB
M  END
>  <Structure No>
3669

>  <LogS>
-3.4527

>  <MMFF94 Energy>
34.453

$$$$
Compound 3670
Actelion Java MolfileCreator 2.0

  0  0  0  0  0  0              0 V3000
M  V30 BEGIN CTAB
M  V30 COUNTS 22 22 0 0 0
M  V30 BEGIN ATOM
M  V30 1 F -3.4078 2.7731 -0.0791 0
M  V30 2 C -2.3291 1.9516 -0.0912 0
M  V30 3 C -2.5068 0.5673 -0.1347 0
M  V30 4 C -1.0429 2.4906 -0.0687 0
M  V30 5 C -1.3964 -0.2947 -0.1442 0
M  V30 6 C 0.07 1.6479 -0.0888 0
M  V30 7 C -0.0907 0.2505 -0.1184 0
M  V30 8 C -1.6163 -1.7823 -0.1939 0
M  V30 9 N 1.0625 -0.6092 -0.1777 0
M  V30 10 C 2.2595 -0.3831 0.5817 0
M  V30 11 O 2.2828 0.4776 1.5026 0
M  V30 12 C 3.4643 -1.2332 0.3421 0
M  V30 13 H -3.513 0.1672 -0.1595 0
M  V30 14 H -0.9063 3.5642 -0.0471 0
M  V30 15 H 1.058 2.089 -0.1069 0
M  V30 16 H -1.3506 -2.1642 -1.2017 0
M  V30 17 H -0.9874 -2.287 0.5695 0
M  V30 18 H -2.6757 -2.0444 0.0138 0
M  V30 19 H 1.0139 -1.4746 -0.761 0
M  V30 20 H 3.596 -1.4031 -0.7468 0
M  V30 21 H 4.3747 -0.7345 0.737 0
M  V30 22 H 3.3338 -2.2104 0.8517 0
M  V30 END ATOM
M  V30 BEGIN BOND
M  V30 1 1 1 2
M  V30 2 2 2 3
M  V30 3 1 2 4
M  V30 4 1 3 5
M  V30 5 2 4 6
M  V30 6 2 5 7
M  V30 7 1 5 8
M  V30 8 1 7 9
M  V30 9 1 9 10
M  V30 10 2 10 11
M  V30 11 1 10 12
M  V30 12 1 6 7
M  V30 13 1 3 13
M  V30 14 1 4 14
M  V30 15 1 6 15
M  V30 16 1 8 16
M  V30 17 1 8 17
M  V30 18 1 8 18
M  V30 19 1 9 19
M  V30 20 1 12 20
M  V30 21 1 12 21
M  V30 22 1 12 22
M  V30 END BOND
M  V30 END CTAB
M  END
>  <Structure No>
3670

>  <LogS>
-1.3593

>  <MMFF94 Energy>
0.69341

$$$$
Compound 3671
Actelion Java MolfileCreator 2.0

  0  0  0  0  0  0              0 V3000
M  V30 BEGIN CTAB
M  V30 COUNTS 22 22 0 0 0
M  V30 BEGIN ATOM
M  V30 1 F -0.7123 1.5835 -1.9797 0
M  V30 2 C 0.0917 0.953 -1.0871 0
M  V30 3 C -0.4638 0.2035 -0.0364 0
M  V30 4 C 1.4796 1.0466 -1.2319 0
M  V30 5 N -1.8933 0.1369 0.1122 0
M  V30 6 C 0.3944 -0.4162 0.8893 0
M  V30 7 C 2.3322 0.395 -0.3293 0
M  V30 8 C -2.5954 -1.011 0.6133 0
M  V30 9 C 1.7811 -0.3203 0.7432 0
M  V30 10 C 3.82 0.5307 -0.4625 0
M  V30 11 O -2.011 -2.1217 0.7306 0
M  V30 12 C -4.0568 -0.9179 0.9093 0
M  V30 13 H 1.8901 1.6281 -2.0484 0
M  V30 14 H -2.4649 0.9412 -0.2325 0
M  V30 15 H -0.0038 -0.9503 1.7416 0
M  V30 16 H 2.4251 -0.7978 1.4715 0
M  V30 17 H 4.1091 0.6429 -1.5291 0
M  V30 18 H 4.3329 -0.369 -0.0607 0
M  V30 19 H 4.1611 1.424 0.1012 0
M  V30 20 H -4.6316 -1.0111 -0.0353 0
M  V30 21 H -4.3629 -1.7283 1.6043 0
M  V30 22 H -4.2854 0.0604 1.3816 0
M  V30 END ATOM
M  V30 BEGIN BOND
M  V30 1 1 1 2
M  V30 2 2 2 3
M  V30 3 1 2 4
M  V30 4 1 3 5
M  V30 5 1 3 6
M  V30 6 2 4 7
M  V30 7 1 5 8
M  V30 8 2 6 9
M  V30 9 1 7 10
M  V30 10 2 8 11
M  V30 11 1 8 12
M  V30 12 1 7 9
M  V30 13 1 4 13
M  V30 14 1 5 14
M  V30 15 1 6 15
M  V30 16 1 9 16
M  V30 17 1 10 17
M  V30 18 1 10 18
M  V30 19 1 10 19
M  V30 20 1 12 20
M  V30 21 1 12 21
M  V30 22 1 12 22
M  V30 END BOND
M  V30 END CTAB
M  END
>  <Structure No>
3671

>  <LogS>
-1.7403

>  <MMFF94 Energy>
11.118

$$$$
Compound 3672
Actelion Java MolfileCreator 2.0

  0  0  0  0  0  0              0 V3000
M  V30 BEGIN CTAB
M  V30 COUNTS 12 12 0 0 0
M  V30 BEGIN ATOM
M  V30 1 F 2.7504 -0.4163 -0.0832 0
M  V30 2 C 1.4094 -0.2178 -0.0466 0
M  V30 3 C 0.8915 1.0828 -0.0525 0
M  V30 4 C 0.5425 -1.3152 -0.0029 0
M  V30 5 F 1.729 2.1484 -0.0946 0
M  V30 6 C -0.4927 1.2843 -0.0146 0
M  V30 7 C -0.8417 -1.1137 0.0349 0
M  V30 8 C -1.3596 0.1869 0.029 0
M  V30 9 F -1.6794 -2.1793 0.0771 0
M  V30 10 F -2.7006 0.3854 0.0656 0
M  V30 11 H 0.9428 -2.3208 0.0016 0
M  V30 12 H -0.8931 2.29 -0.0191 0
M  V30 END ATOM
M  V30 BEGIN BOND
M  V30 1 1 1 2
M  V30 2 2 2 3
M  V30 3 1 2 4
M  V30 4 1 3 5
M  V30 5 1 3 6
M  V30 6 2 4 7
M  V30 7 2 6 8
M  V30 8 1 7 9
M  V30 9 1 8 10
M  V30 10 1 7 8
M  V30 11 1 4 11
M  V30 12 1 6 12
M  V30 END BOND
M  V30 END CTAB
M  END
>  <Structure No>
3672

>  <LogS>
-2.3757

>  <MMFF94 Energy>
10.775

$$$$
Compound 3673
Actelion Java MolfileCreator 2.0

  0  0  0  0  0  0              0 V3000
M  V30 BEGIN CTAB
M  V30 COUNTS 22 21 0 0 0
M  V30 BEGIN ATOM
M  V30 1 O -1.9374 2.5581 0.0 0
M  V30 2 C -1.8646 1.509 0.6924 0
M  V30 3 O -1.8772 1.601 2.079 0 CHG=-1
M  V30 4 C -1.7597 0.1643 0.0202 0 CFG=2
M  V30 5 N -2.8915 -0.6822 0.4154 0 CHG=1
M  V30 6 C -0.4232 -0.5258 0.3672 0
M  V30 7 C 0.7869 0.2284 -0.2048 0
M  V30 8 C 2.093 -0.5098 0.1096 0
M  V30 9 C 3.2982 0.2376 -0.4533 0
M  V30 10 H -1.8036 0.3093 -1.0837 0
M  V30 11 H -3.792 -0.2033 0.1817 0
M  V30 12 H -2.8579 -1.5866 -0.1087 0
M  V30 13 H -2.8638 -0.8808 1.4425 0
M  V30 14 H -0.3209 -0.6163 1.4714 0
M  V30 15 H -0.4313 -1.554 -0.0569 0
M  V30 16 H 0.6745 0.3225 -1.3073 0
M  V30 17 H 0.832 1.249 0.234 0
M  V30 18 H 2.0638 -1.5292 -0.333 0
M  V30 19 H 2.2126 -0.6071 1.2107 0
M  V30 20 H 3.3662 1.2524 -0.0066 0
M  V30 21 H 3.2153 0.3274 -1.5575 0
M  V30 22 H 4.2274 -0.3196 -0.2112 0
M  V30 END ATOM
M  V30 BEGIN BOND
M  V30 1 2 1 2
M  V30 2 1 2 3
M  V30 3 1 2 4
M  V30 4 1 4 5
M  V30 5 1 4 6
M  V30 6 1 6 7
M  V30 7 1 7 8
M  V30 8 1 8 9
M  V30 9 1 4 10
M  V30 10 1 5 11
M  V30 11 1 5 12
M  V30 12 1 5 13
M  V30 13 1 6 14
M  V30 14 1 6 15
M  V30 15 1 7 16
M  V30 16 1 7 17
M  V30 17 1 8 18
M  V30 18 1 8 19
M  V30 19 1 9 20
M  V30 20 1 9 21
M  V30 21 1 9 22
M  V30 END BOND
M  V30 BEGIN COLLECTION
M  V30 MDLV30/STEABS ATOMS=(1 4)
M  V30 END COLLECTION
M  V30 END CTAB
M  END
>  <Structure No>
3673

>  <LogS>
-1.0387

>  <MMFF94 Energy>
-9.9594

$$$$
Compound 3674
Actelion Java MolfileCreator 2.0

  0  0  0  0  0  0              0 V3000
M  V30 BEGIN CTAB
M  V30 COUNTS 42 43 0 0 0
M  V30 BEGIN ATOM
M  V30 1 O 0.0 -1.2914 -1.9376 0
M  V30 2 C 0.169 -0.7835 -0.7944 0
M  V30 3 O -0.9306 -0.4377 1.0E-4 0
M  V30 4 C 1.5234 -0.5395 -0.2723 0
M  V30 5 C -2.292 -0.5981 -0.4098 0 CFG=2
M  V30 6 C 2.6266 -0.8596 -0.9636 0
M  V30 7 C -2.7847 0.6182 -1.2521 0 CFG=2
M  V30 8 C -3.1548 -0.8274 0.8529 0
M  V30 9 C 4.0056 -0.6365 -0.4634 0
M  V30 10 O -1.7525 1.1809 -2.0255 0
M  V30 11 C -3.493 1.6867 -0.3901 0 CFG=2
M  V30 12 C -4.6363 -0.4237 0.6382 0 CFG=1
M  V30 13 C 4.3078 0.3206 0.5262 0
M  V30 14 C 5.0529 -1.3839 -1.0253 0
M  V30 15 O -2.5923 2.2037 0.5581 0
M  V30 16 C -4.7376 1.0977 0.3249 0
M  V30 17 O -5.1669 -1.1419 -0.4536 0
M  V30 18 C -5.4565 -0.728 1.8753 0
M  V30 19 C 5.6292 0.505 0.9604 0
M  V30 20 C 6.3685 -1.202 -0.5921 0
M  V30 21 O -4.9901 -0.5074 3.0252 0
M  V30 22 O -6.7638 -1.1844 1.7508 0 CHG=-1
M  V30 23 O 5.9181 1.4517 1.9424 0
M  V30 24 C 6.6627 -0.2634 0.4004 0
M  V30 25 O 7.9851 -0.1054 0.8138 0
M  V30 26 H 1.5968 -0.1082 0.7162 0
M  V30 27 H -2.3793 -1.5132 -1.0385 0
M  V30 28 H 2.5194 -1.3477 -1.9257 0
M  V30 29 H -3.5409 0.2379 -1.9738 0
M  V30 30 H -3.0881 -1.8983 1.1478 0
M  V30 31 H -2.7346 -0.2341 1.696 0
M  V30 32 H -1.1427 1.6726 -1.4165 0
M  V30 33 H -3.8273 2.5082 -1.0673 0
M  V30 34 H 3.5339 0.9456 0.9499 0
M  V30 35 H 4.851 -2.1181 -1.796 0
M  V30 36 H -2.9551 3.0796 0.8531 0
M  V30 37 H -4.9114 1.6797 1.2583 0
M  V30 38 H -5.6336 1.2739 -0.3111 0
M  V30 39 H -5.0777 -2.1116 -0.2555 0
M  V30 40 H 7.163 -1.7928 -1.0303 0
M  V30 41 H 5.1921 2.0203 2.3628 0
M  V30 42 H 8.2494 0.5617 1.5289 0
M  V30 END ATOM
M  V30 BEGIN BOND
M  V30 1 2 1 2
M  V30 2 1 2 3
M  V30 3 1 2 4
M  V30 4 1 3 5
M  V30 5 2 4 6
M  V30 6 1 5 7
M  V30 7 1 5 8
M  V30 8 1 6 9
M  V30 9 1 7 10
M  V30 10 1 7 11
M  V30 11 1 8 12
M  V30 12 2 9 13
M  V30 13 1 9 14
M  V30 14 1 11 15
M  V30 15 1 11 16
M  V30 16 1 12 17
M  V30 17 1 12 18
M  V30 18 1 13 19
M  V30 19 2 14 20
M  V30 20 2 18 21
M  V30 21 1 18 22
M  V30 22 1 19 23
M  V30 23 2 19 24
M  V30 24 1 24 25
M  V30 25 1 12 16
M  V30 26 1 20 24
M  V30 27 1 4 26
M  V30 28 1 5 27
M  V30 29 1 6 28
M  V30 30 1 7 29
M  V30 31 1 8 30
M  V30 32 1 8 31
M  V30 33 1 10 32
M  V30 34 1 11 33
M  V30 35 1 13 34
M  V30 36 1 14 35
M  V30 37 1 15 36
M  V30 38 1 16 37
M  V30 39 1 16 38
M  V30 40 1 17 39
M  V30 41 1 20 40
M  V30 42 1 23 41
M  V30 43 1 25 42
M  V30 END BOND
M  V30 BEGIN COLLECTION
M  V30 MDLV30/STEABS ATOMS=(4 5 7 11 12)
M  V30 END COLLECTION
M  V30 END CTAB
M  END
>  <Structure No>
3674

>  <LogS>
-0.9473

>  <MMFF94 Energy>
83.846

$$$$
Compound 3675
Actelion Java MolfileCreator 2.0

  0  0  0  0  0  0              0 V3000
M  V30 BEGIN CTAB
M  V30 COUNTS 22 21 0 0 0
M  V30 BEGIN ATOM
M  V30 1 O -2.2509 0.6205 -2.0178 0
M  V30 2 C -2.0139 0.6419 -0.7813 0
M  V30 3 O -2.1962 1.8241 -0.0729 0 CHG=-1
M  V30 4 C -1.4982 -0.5981 -0.0953 0 CFG=2
M  V30 5 N -1.7907 -0.5842 1.3451 0 CHG=1
M  V30 6 C 0.0031 -0.8745 -0.3903 0
M  V30 7 C 0.9576 0.3499 -0.4511 0
M  V30 8 C 1.1115 1.0549 0.9041 0
M  V30 9 C 2.3367 -0.1 -0.955 0
M  V30 10 H -2.065 -1.455 -0.5278 0
M  V30 11 H -2.823 -0.4965 1.4917 0
M  V30 12 H -1.3179 0.2068 1.8315 0
M  V30 13 H -1.4808 -1.4837 1.7798 0
M  V30 14 H 0.0441 -1.377 -1.3827 0
M  V30 15 H 0.3955 -1.6154 0.3405 0
M  V30 16 H 0.5701 1.0865 -1.1879 0
M  V30 17 H 0.2101 1.6569 1.1317 0
M  V30 18 H 1.2889 0.3178 1.7163 0
M  V30 19 H 1.9647 1.7661 0.8802 0
M  V30 20 H 2.2467 -0.576 -1.9548 0
M  V30 21 H 3.0157 0.7735 -1.057 0
M  V30 22 H 2.7925 -0.8284 -0.2501 0
M  V30 END ATOM
M  V30 BEGIN BOND
M  V30 1 2 1 2
M  V30 2 1 2 3
M  V30 3 1 2 4
M  V30 4 1 4 5
M  V30 5 1 4 6
M  V30 6 1 6 7
M  V30 7 1 7 8
M  V30 8 1 7 9
M  V30 9 1 4 10
M  V30 10 1 5 11
M  V30 11 1 5 12
M  V30 12 1 5 13
M  V30 13 1 6 14
M  V30 14 1 6 15
M  V30 15 1 7 16
M  V30 16 1 8 17
M  V30 17 1 8 18
M  V30 18 1 8 19
M  V30 19 1 9 20
M  V30 20 1 9 21
M  V30 21 1 9 22
M  V30 END BOND
M  V30 BEGIN COLLECTION
M  V30 MDLV30/STEABS ATOMS=(1 4)
M  V30 END COLLECTION
M  V30 END CTAB
M  END
>  <Structure No>
3675

>  <LogS>
-1.0456

>  <MMFF94 Energy>
-3.3816

$$$$
Compound 3676
Actelion Java MolfileCreator 2.0

  0  0  0  0  0  0              0 V3000
M  V30 BEGIN CTAB
M  V30 COUNTS 15 15 0 0 0
M  V30 BEGIN ATOM
M  V30 1 Cl 2.9425 0.2449 1.3887 0
M  V30 2 C 2.2256 -0.0718 -0.2098 0
M  V30 3 C 0.7267 -0.054 -0.1073 0
M  V30 4 C 0.0163 1.1583 -0.1874 0
M  V30 5 C 0.0243 -1.2481 0.1277 0
M  V30 6 F 0.6703 2.331 -0.3849 0
M  V30 7 C -1.3768 1.1652 -0.0595 0
M  V30 8 C -1.3679 -1.2342 0.2547 0
M  V30 9 C -2.0681 -0.0292 0.1588 0
M  V30 10 H 2.5778 0.6995 -0.9267 0
M  V30 11 H 2.5824 -1.0583 -0.575 0
M  V30 12 H 0.554 -2.1887 0.2132 0
M  V30 13 H -1.9218 2.0981 -0.1257 0
M  V30 14 H -1.9039 -2.1577 0.4308 0
M  V30 15 H -3.1458 -0.0201 0.2586 0
M  V30 END ATOM
M  V30 BEGIN BOND
M  V30 1 1 1 2
M  V30 2 1 2 3
M  V30 3 2 3 4
M  V30 4 1 3 5
M  V30 5 1 4 6
M  V30 6 1 4 7
M  V30 7 2 5 8
M  V30 8 2 7 9
M  V30 9 1 8 9
M  V30 10 1 2 10
M  V30 11 1 2 11
M  V30 12 1 5 12
M  V30 13 1 7 13
M  V30 14 1 8 14
M  V30 15 1 9 15
M  V30 END BOND
M  V30 END CTAB
M  END
>  <Structure No>
3676

>  <LogS>
-2.541

>  <MMFF94 Energy>
17.857

$$$$
Compound 3677
Actelion Java MolfileCreator 2.0

  0  0  0  0  0  0              0 V3000
M  V30 BEGIN CTAB
M  V30 COUNTS 12 12 0 0 0
M  V30 BEGIN ATOM
M  V30 1 Cl 2.973 0.8251 0.0 0
M  V30 2 C 1.2762 0.3748 -0.0034 0
M  V30 3 C 0.9009 -0.9759 -0.0017 0
M  V30 4 C 0.2927 1.3715 -0.0079 0
M  V30 5 F 1.8448 -1.9503 0.0026 0
M  V30 6 C -0.4542 -1.3245 -0.0044 0
M  V30 7 C -1.061 1.0203 -0.0106 0
M  V30 8 C -1.4346 -0.327 -0.0089 0
M  V30 9 H 0.5757 2.4164 -0.0091 0
M  V30 10 H -0.7456 -2.3669 -0.0031 0
M  V30 11 H -1.8202 1.7919 -0.014 0
M  V30 12 H -2.4824 -0.5981 -0.0109 0
M  V30 END ATOM
M  V30 BEGIN BOND
M  V30 1 1 1 2
M  V30 2 2 2 3
M  V30 3 1 2 4
M  V30 4 1 3 5
M  V30 5 1 3 6
M  V30 6 2 4 7
M  V30 7 2 6 8
M  V30 8 1 7 8
M  V30 9 1 4 9
M  V30 10 1 6 10
M  V30 11 1 7 11
M  V30 12 1 8 12
M  V30 END BOND
M  V30 END CTAB
M  END
>  <Structure No>
3677

>  <LogS>
-2.4157

>  <MMFF94 Energy>
23.174

$$$$
Compound 3678
Actelion Java MolfileCreator 2.0

  0  0  0  0  0  0              0 V3000
M  V30 BEGIN CTAB
M  V30 COUNTS 8 7 0 0 0
M  V30 BEGIN ATOM
M  V30 1 F 1.1328 1.2839 -0.3775 0
M  V30 2 C 0.7251 0.0114 -0.0216 0
M  V30 3 C -0.7914 -0.0382 0.0636 0
M  V30 4 H 1.0824 -0.713 -0.7833 0
M  V30 5 H 1.1654 -0.2511 0.9634 0
M  V30 6 H -1.1512 0.6837 0.827 0
M  V30 7 H -1.1181 -1.0602 0.3494 0
M  V30 8 H -1.2342 0.2214 -0.921 0
M  V30 END ATOM
M  V30 BEGIN BOND
M  V30 1 1 1 2
M  V30 2 1 2 3
M  V30 3 1 2 4
M  V30 4 1 2 5
M  V30 5 1 3 6
M  V30 6 1 3 7
M  V30 7 1 3 8
M  V30 END BOND
M  V30 END CTAB
M  END
>  <Structure No>
3678

>  <LogS>
-1.3477

>  <MMFF94 Energy>
-2.4009

$$$$
Compound 3679
Actelion Java MolfileCreator 2.0

  0  0  0  0  0  0              0 V3000
M  V30 BEGIN CTAB
M  V30 COUNTS 23 23 0 0 0
M  V30 BEGIN ATOM
M  V30 1 O -1.5702 -0.4708 -1.963 0
M  V30 2 C -1.5593 -0.9086 -0.7823 0
M  V30 3 O -1.4731 -2.2781 -0.561 0 CHG=-1
M  V30 4 C -1.5949 0.0505 0.3796 0 CFG=1
M  V30 5 N -2.5628 -0.4045 1.3849 0 CHG=1
M  V30 6 C -0.1954 0.2013 1.0092 0
M  V30 7 C 0.7758 0.8517 0.0602 0
M  V30 8 N 1.7599 0.2291 -0.6154 0
M  V30 9 C 0.783 2.1825 -0.2994 0
M  V30 10 C 2.3481 1.1889 -1.3565 0
M  V30 11 C 2.1486 -1.1761 -0.5464 0
M  V30 12 N 1.773 2.3992 -1.1896 0
M  V30 13 H -1.926 1.0479 0.0084 0
M  V30 14 H -2.6449 0.3095 2.1451 0
M  V30 15 H -3.5048 -0.5212 0.9445 0
M  V30 16 H -2.2626 -1.315 1.8041 0
M  V30 17 H -0.2682 0.8395 1.9164 0
M  V30 18 H 0.1851 -0.7893 1.3373 0
M  V30 19 H 0.1084 2.948 0.0604 0
M  V30 20 H 3.1899 1.0151 -2.0145 0
M  V30 21 H 2.9698 -1.3887 -1.2638 0
M  V30 22 H 2.4994 -1.417 0.4788 0
M  V30 23 H 1.2822 -1.8201 -0.8015 0
M  V30 END ATOM
M  V30 BEGIN BOND
M  V30 1 2 1 2
M  V30 2 1 2 3
M  V30 3 1 2 4
M  V30 4 1 4 5
M  V30 5 1 4 6
M  V30 6 1 6 7
M  V30 7 1 7 8
M  V30 8 2 7 9
M  V30 9 1 8 10
M  V30 10 1 8 11
M  V30 11 1 9 12
M  V30 12 2 10 12
M  V30 13 1 4 13
M  V30 14 1 5 14
M  V30 15 1 5 15
M  V30 16 1 5 16
M  V30 17 1 6 17
M  V30 18 1 6 18
M  V30 19 1 9 19
M  V30 20 1 10 20
M  V30 21 1 11 21
M  V30 22 1 11 22
M  V30 23 1 11 23
M  V30 END BOND
M  V30 BEGIN COLLECTION
M  V30 MDLV30/STEABS ATOMS=(1 4)
M  V30 END COLLECTION
M  V30 END CTAB
M  END
>  <Structure No>
3679

>  <LogS>
0.0727

>  <MMFF94 Energy>
-2.408

$$$$
Compound 3680
Actelion Java MolfileCreator 2.0

  0  0  0  0  0  0              0 V3000
M  V30 BEGIN CTAB
M  V30 COUNTS 9 8 0 0 0
M  V30 BEGIN ATOM
M  V30 1 F 1.9814 -0.3808 -0.0761 0
M  V30 2 C 0.821 0.3083 0.2245 0
M  V30 3 C -0.3909 -0.5493 -0.1206 0
M  V30 4 O -1.5746 0.1233 0.2123 0
M  V30 5 H 0.8148 0.5534 1.3078 0
M  V30 6 H 0.7982 1.2517 -0.361 0
M  V30 7 H -0.3801 -0.8065 -1.2042 0
M  V30 8 H -0.3443 -1.4957 0.4583 0
M  V30 9 H -1.7219 0.8055 -0.4937 0
M  V30 END ATOM
M  V30 BEGIN BOND
M  V30 1 1 1 2
M  V30 2 1 2 3
M  V30 3 1 3 4
M  V30 4 1 2 5
M  V30 5 1 2 6
M  V30 6 1 3 7
M  V30 7 1 3 8
M  V30 8 1 4 9
M  V30 END BOND
M  V30 END CTAB
M  END
>  <Structure No>
3680

>  <LogS>
1.1934

>  <MMFF94 Energy>
16.779

$$$$
Compound 3681
Actelion Java MolfileCreator 2.0

  0  0  0  0  0  0              0 V3000
M  V30 BEGIN CTAB
M  V30 COUNTS 12 11 0 0 0
M  V30 BEGIN ATOM
M  V30 1 F 1.0391 -1.839 -0.0799 0
M  V30 2 C 1.1499 -0.5018 0.2591 0
M  V30 3 F 1.1604 -0.3825 1.6381 0
M  V30 4 F 2.3462 -0.0187 -0.2402 0
M  V30 5 C -0.0198 0.2957 -0.3378 0 CFG=2
M  V30 6 O 0.0925 1.6502 0.0152 0
M  V30 7 C -1.3672 -0.2341 0.1565 0
M  V30 8 H 8.0E-4 0.1892 -1.4478 0
M  V30 9 H 0.7644 2.053 -0.5948 0
M  V30 10 H -1.4998 -1.2967 -0.1382 0
M  V30 11 H -1.4395 -0.1508 1.2621 0
M  V30 12 H -2.1907 0.3576 -0.2967 0
M  V30 END ATOM
M  V30 BEGIN BOND
M  V30 1 1 1 2
M  V30 2 1 2 3
M  V30 3 1 2 4
M  V30 4 1 2 5
M  V30 5 1 5 6
M  V30 6 1 5 7
M  V30 7 1 5 8
M  V30 8 1 6 9
M  V30 9 1 7 10
M  V30 10 1 7 11
M  V30 11 1 7 12
M  V30 END BOND
M  V30 BEGIN COLLECTION
M  V30 MDLV30/STEABS ATOMS=(1 5)
M  V30 END COLLECTION
M  V30 END CTAB
M  END
>  <Structure No>
3681

>  <LogS>
0.3094

>  <MMFF94 Energy>
55.183

$$$$
Compound 3682
Actelion Java MolfileCreator 2.0

  0  0  0  0  0  0              0 V3000
M  V30 BEGIN CTAB
M  V30 COUNTS 8 7 0 0 0
M  V30 BEGIN ATOM
M  V30 1 Cl 1.2344 1.5195 -0.9495 0
M  V30 2 C 0.7455 0.1324 0.0595 0
M  V30 3 Cl 1.5479 -1.3358 -0.5578 0
M  V30 4 F 1.1653 0.3567 1.3583 0
M  V30 5 C -0.7744 -0.0377 0.0345 0
M  V30 6 F -1.1411 -1.1112 0.8268 0
M  V30 7 F -1.3844 1.1041 0.523 0
M  V30 8 F -1.2106 -0.2631 -1.2593 0
M  V30 END ATOM
M  V30 BEGIN BOND
M  V30 1 1 1 2
M  V30 2 1 2 3
M  V30 3 1 2 4
M  V30 4 1 2 5
M  V30 5 1 5 6
M  V30 6 1 5 7
M  V30 7 1 5 8
M  V30 END BOND
M  V30 END CTAB
M  END
>  <Structure No>
3682

>  <LogS>
-3.0961

>  <MMFF94 Energy>
73.098

$$$$
Compound 3683
Actelion Java MolfileCreator 2.0

  0  0  0  0  0  0              0 V3000
M  V30 BEGIN CTAB
M  V30 COUNTS 7 6 0 0 0
M  V30 BEGIN ATOM
M  V30 1 F -0.8352 -0.5845 1.3365 0
M  V30 2 C -0.618 -0.1036 0.0593 0
M  V30 3 F -1.2819 1.0988 -0.096 0
M  V30 4 C 0.845 0.099 -0.1531 0
M  V30 5 O 1.4985 -0.701 -0.8726 0
M  V30 6 O 1.4994 1.151 0.4752 0 CHG=-1
M  V30 7 H -1.0181 -0.8332 -0.6765 0
M  V30 END ATOM
M  V30 BEGIN BOND
M  V30 1 1 1 2
M  V30 2 1 2 3
M  V30 3 1 2 4
M  V30 4 2 4 5
M  V30 5 1 4 6
M  V30 6 1 2 7
M  V30 END BOND
M  V30 END CTAB
M  END
>  <Structure No>
3683

>  <LogS>
1.0176

>  <MMFF94 Energy>
102.9

$$$$
Compound 3684
Actelion Java MolfileCreator 2.0

  0  0  0  0  0  0              0 V3000
M  V30 BEGIN CTAB
M  V30 COUNTS 46 49 0 0 0
M  V30 BEGIN ATOM
M  V30 1 O 5.7129 -1.1406 -0.1628 0
M  V30 2 C 4.5262 -0.7186 -0.1869 0
M  V30 3 C 3.6164 -1.0512 0.9168 0
M  V30 4 C 4.0784 0.1643 -1.3057 0
M  V30 5 C 2.3327 -0.6472 0.9355 0
M  V30 6 C 2.5592 0.0853 -1.4861 0
M  V30 7 C 1.7622 0.2789 -0.1542 0 CFG=1
M  V30 8 C 1.5059 -0.9497 2.1687 0
M  V30 9 C 0.2508 -0.094 -0.406 0 CFG=2
M  V30 10 C 1.9075 1.7476 0.32 0
M  V30 11 C 0.0697 -1.3254 1.8035 0
M  V30 12 C -0.4795 0.8487 -1.3458 0
M  V30 13 C -0.5525 -0.2354 0.9197 0 CFG=2
M  V30 14 O -0.1686 0.9149 -2.5251 0
M  V30 15 C -1.66 1.6336 -0.8453 0
M  V30 16 C -2.0765 -0.4468 0.6758 0 CFG=1
M  V30 17 C -2.7123 0.6988 -0.182 0 CFG=2
M  V30 18 C -2.4287 -1.7938 -0.0077 0
M  V30 19 C -3.4846 -0.0374 -1.2302 0
M  V30 20 C -3.6852 1.5442 0.6642 0
M  V30 21 C -3.4013 -1.5117 -1.1473 0
M  V30 22 O -4.149 0.5267 -2.0871 0
M  V30 23 H 4.011 -1.6474 1.7315 0
M  V30 24 H 4.5715 -0.153 -2.2501 0
M  V30 25 H 4.3913 1.2087 -1.0969 0
M  V30 26 H 2.2723 0.8548 -2.2326 0
M  V30 27 H 2.3203 -0.9089 -1.9252 0
M  V30 28 H 1.9419 -1.79 2.753 0
M  V30 29 H 1.5016 -0.0543 2.8273 0
M  V30 30 H 0.242 -1.0887 -0.9012 0
M  V30 31 H 1.3285 1.9441 1.2434 0
M  V30 32 H 1.563 2.4548 -0.4637 0
M  V30 33 H 2.9655 1.9854 0.556 0
M  V30 34 H 0.0716 -2.3061 1.281 0
M  V30 35 H -0.5208 -1.4351 2.739 0
M  V30 36 H -0.4822 0.7143 1.4922 0
M  V30 37 H -2.1189 2.2186 -1.6733 0
M  V30 38 H -1.2837 2.3711 -0.1031 0
M  V30 39 H -2.5603 -0.4647 1.68 0
M  V30 40 H -1.5392 -2.3126 -0.4166 0
M  V30 41 H -2.8975 -2.4842 0.7277 0
M  V30 42 H -4.1512 2.342 0.0462 0
M  V30 43 H -4.4958 0.9098 1.0849 0
M  V30 44 H -3.1437 2.0245 1.5073 0
M  V30 45 H -4.4055 -1.9325 -0.9247 0
M  V30 46 H -3.0205 -1.927 -2.1055 0
M  V30 END ATOM
M  V30 BEGIN BOND
M  V30 1 2 1 2
M  V30 2 1 2 3
M  V30 3 1 2 4
M  V30 4 2 3 5
M  V30 5 1 4 6
M  V30 6 1 5 7
M  V30 7 1 5 8
M  V30 8 1 7 9
M  V30 9 1 7 10
M  V30 10 1 8 11
M  V30 11 1 9 12
M  V30 12 1 9 13
M  V30 13 2 12 14
M  V30 14 1 12 15
M  V30 15 1 13 16
M  V30 16 1 15 17
M  V30 17 1 16 18
M  V30 18 1 17 19
M  V30 19 1 17 20
M  V30 20 1 18 21
M  V30 21 2 19 22
M  V30 22 1 6 7
M  V30 23 1 11 13
M  V30 24 1 16 17
M  V30 25 1 19 21
M  V30 26 1 3 23
M  V30 27 1 4 24
M  V30 28 1 4 25
M  V30 29 1 6 26
M  V30 30 1 6 27
M  V30 31 1 8 28
M  V30 32 1 8 29
M  V30 33 1 9 30
M  V30 34 1 10 31
M  V30 35 1 10 32
M  V30 36 1 10 33
M  V30 37 1 11 34
M  V30 38 1 11 35
M  V30 39 1 13 36
M  V30 40 1 15 37
M  V30 41 1 15 38
M  V30 42 1 16 39
M  V30 43 1 18 40
M  V30 44 1 18 41
M  V30 45 1 20 42
M  V30 46 1 20 43
M  V30 47 1 20 44
M  V30 48 1 21 45
M  V30 49 1 21 46
M  V30 END BOND
M  V30 BEGIN COLLECTION
M  V30 MDLV30/STEABS ATOMS=(5 7 9 13 16 17)
M  V30 END COLLECTION
M  V30 END CTAB
M  END
>  <Structure No>
3684

>  <LogS>
-3.4843

>  <MMFF94 Energy>
55.483

$$$$
Compound 3685
Actelion Java MolfileCreator 2.0

  0  0  0  0  0  0              0 V3000
M  V30 BEGIN CTAB
M  V30 COUNTS 22 22 0 0 0
M  V30 BEGIN ATOM
M  V30 1 F 3.3967 -2.2108 -0.3945 0
M  V30 2 C 2.6334 -1.0961 -0.2797 0
M  V30 3 C 1.2686 -1.1505 -0.5768 0
M  V30 4 C 3.2106 0.1045 0.139 0
M  V30 5 C 0.4697 9.0E-4 -0.4667 0
M  V30 6 C 2.4243 1.2521 0.2667 0
M  V30 7 C 1.0536 1.2072 -0.0282 0
M  V30 8 C -1.007 -0.0839 -0.7605 0
M  V30 9 O 0.2726 2.3541 0.1151 0
M  V30 10 C -1.7944 -0.3882 0.5182 0
M  V30 11 C -3.2912 -0.4787 0.2363 0
M  V30 12 H 0.8325 -2.0905 -0.8919 0
M  V30 13 H 4.2673 0.146 0.37 0
M  V30 14 H 2.8802 2.1761 0.5993 0
M  V30 15 H -1.1968 -0.8807 -1.5133 0
M  V30 16 H -1.3617 0.8719 -1.2044 0
M  V30 17 H 0.67 3.2314 0.4303 0
M  V30 18 H -1.4499 -1.3541 0.9486 0
M  V30 19 H -1.6178 0.4135 1.2683 0
M  V30 20 H -3.6657 0.4843 -0.1716 0
M  V30 21 H -3.4982 -1.2916 -0.4919 0
M  V30 22 H -3.8343 -0.6999 1.1793 0
M  V30 END ATOM
M  V30 BEGIN BOND
M  V30 1 1 1 2
M  V30 2 2 2 3
M  V30 3 1 2 4
M  V30 4 1 3 5
M  V30 5 2 4 6
M  V30 6 2 5 7
M  V30 7 1 5 8
M  V30 8 1 7 9
M  V30 9 1 8 10
M  V30 10 1 10 11
M  V30 11 1 6 7
M  V30 12 1 3 12
M  V30 13 1 4 13
M  V30 14 1 6 14
M  V30 15 1 8 15
M  V30 16 1 8 16
M  V30 17 1 9 17
M  V30 18 1 10 18
M  V30 19 1 10 19
M  V30 20 1 11 20
M  V30 21 1 11 21
M  V30 22 1 11 22
M  V30 END BOND
M  V30 END CTAB
M  END
>  <Structure No>
3685

>  <LogS>
-1.887

>  <MMFF94 Energy>
4.8528

$$$$
Compound 3686
Actelion Java MolfileCreator 2.0

  0  0  0  0  0  0              0 V3000
M  V30 BEGIN CTAB
M  V30 COUNTS 27 27 0 0 0
M  V30 BEGIN ATOM
M  V30 1 O 5.6513 -0.556 -1.9075 0
M  V30 2 N 4.4156 -0.72 -1.9706 0 CHG=1
M  V30 3 O 3.8638 -1.2917 -3.0925 0 CHG=-1
M  V30 4 C 3.5726 -0.3189 -0.8882 0
M  V30 5 O 2.2682 -0.4628 -0.8906 0
M  V30 6 C 3.9965 0.2649 0.2908 0
M  V30 7 C 1.8086 0.0057 0.2475 0
M  V30 8 C 2.8491 0.4752 1.0276 0
M  V30 9 C 0.3928 0.0217 0.6213 0
M  V30 10 N -0.4957 -0.4437 -0.2042 0
M  V30 11 N -1.8889 -0.4904 0.0269 0
M  V30 12 C -2.7365 -0.9444 -1.0479 0
M  V30 13 C -2.4883 -0.0521 1.3011 0
M  V30 14 O -3.9908 -0.9327 -0.9192 0
M  V30 15 N -2.1729 -1.41 -2.2769 0
M  V30 16 C -2.6638 1.4688 1.3338 0
M  V30 17 O -3.6133 1.8779 0.3867 0
M  V30 18 H 5.0106 0.5077 0.5795 0
M  V30 19 H 2.7813 0.9173 2.0131 0
M  V30 20 H 0.1195 0.4347 1.5814 0
M  V30 21 H -1.8614 -0.3822 2.1552 0
M  V30 22 H -3.4758 -0.5366 1.4607 0
M  V30 23 H -2.7981 -1.7297 -3.0497 0
M  V30 24 H -1.141 -1.4468 -2.4272 0
M  V30 25 H -3.0259 1.7628 2.3416 0
M  V30 26 H -1.6913 1.9842 1.1659 0
M  V30 27 H -3.1337 1.9698 -0.4775 0
M  V30 END ATOM
M  V30 BEGIN BOND
M  V30 1 2 1 2
M  V30 2 1 2 3
M  V30 3 1 2 4
M  V30 4 1 4 5
M  V30 5 2 4 6
M  V30 6 1 5 7
M  V30 7 1 6 8
M  V30 8 1 7 9
M  V30 9 2 9 10
M  V30 10 1 10 11
M  V30 11 1 11 12
M  V30 12 1 11 13
M  V30 13 2 12 14
M  V30 14 1 12 15
M  V30 15 1 13 16
M  V30 16 1 16 17
M  V30 17 2 7 8
M  V30 18 1 6 18
M  V30 19 1 8 19
M  V30 20 1 9 20
M  V30 21 1 13 21
M  V30 22 1 13 22
M  V30 23 1 15 23
M  V30 24 1 15 24
M  V30 25 1 16 25
M  V30 26 1 16 26
M  V30 27 1 17 27
M  V30 END BOND
M  V30 END CTAB
M  END
>  <Structure No>
3686

>  <LogS>
-2.6852

>  <MMFF94 Energy>
52.572

$$$$
Compound 3687
Actelion Java MolfileCreator 2.0

  0  0  0  0  0  0              0 V3000
M  V30 BEGIN CTAB
M  V30 COUNTS 17 17 0 0 0
M  V30 BEGIN ATOM
M  V30 1 F -2.4072 -0.4147 1.3276 0
M  V30 2 C -1.8958 -0.9504 0.1589 0
M  V30 3 F -2.009 -2.3276 0.2501 0
M  V30 4 F -2.6512 -0.524 -0.9176 0
M  V30 5 C -0.452 -0.5227 -0.0317 0
M  V30 6 C -0.0164 0.8186 0.1816 0
M  V30 7 C 0.4943 -1.4851 -0.4425 0
M  V30 8 C -0.9406 1.9266 0.5303 0
M  V30 9 C 1.3519 1.124 0.0481 0
M  V30 10 C 1.841 -1.1521 -0.5859 0
M  V30 11 O -0.5383 2.882 1.2466 0
M  V30 12 O -2.2373 1.9633 0.0341 0 CHG=-1
M  V30 13 C 2.2703 0.1464 -0.331 0
M  V30 14 H 0.1986 -2.506 -0.6477 0
M  V30 15 H 1.7106 2.1326 0.2143 0
M  V30 16 H 2.5546 -1.906 -0.8926 0
M  V30 17 H 3.3168 0.4006 -0.4398 0
M  V30 END ATOM
M  V30 BEGIN BOND
M  V30 1 1 1 2
M  V30 2 1 2 3
M  V30 3 1 2 4
M  V30 4 1 2 5
M  V30 5 2 5 6
M  V30 6 1 5 7
M  V30 7 1 6 8
M  V30 8 1 6 9
M  V30 9 2 7 10
M  V30 10 2 8 11
M  V30 11 1 8 12
M  V30 12 2 9 13
M  V30 13 1 10 13
M  V30 14 1 7 14
M  V30 15 1 9 15
M  V30 16 1 10 16
M  V30 17 1 13 17
M  V30 END BOND
M  V30 END CTAB
M  END
>  <Structure No>
3687

>  <LogS>
-1.5978

>  <MMFF94 Energy>
45.029

$$$$
Compound 3688
Actelion Java MolfileCreator 2.0

  0  0  0  0  0  0              0 V3000
M  V30 BEGIN CTAB
M  V30 COUNTS 51 54 0 0 0
M  V30 BEGIN ATOM
M  V30 1 O -5.5236 -0.8108 -1.0542 0
M  V30 2 C -4.4251 -0.3953 -0.5992 0
M  V30 3 C -3.6683 -1.2158 0.3473 0
M  V30 4 C -3.8403 0.8796 -1.102 0
M  V30 5 C -2.5705 -0.7498 0.9675 0
M  V30 6 C -3.0798 1.5871 0.0257 0
M  V30 7 C -2.0578 0.6798 0.802 0 CFG=2
M  V30 8 C -1.7016 -1.699 1.7388 0
M  V30 9 C -0.6041 0.6596 0.1666 0 CFG=1
M  V30 10 C -1.9442 1.3086 2.222 0
M  V30 11 C -0.3875 -1.8391 0.9897 0
M  V30 12 C 0.3398 -0.4865 0.7349 0 CFG=1
M  V30 13 C -0.5026 0.7351 -1.3821 0
M  V30 14 C 1.5206 -0.7728 -0.2411 0 CFG=1
M  V30 15 C 0.9408 1.0782 -1.8599 0
M  V30 16 C 2.0757 0.4571 -0.969 0 CFG=2
M  V30 17 C 2.7414 -1.5075 0.3073 0
M  V30 18 C 3.2922 -0.1809 -1.7258 0 CFG=2
M  V30 19 C 2.6147 1.5341 0.0335 0
M  V30 20 C 3.869 -1.2069 -0.7001 0
M  V30 21 O 4.2373 0.7825 -2.1382 0
M  V30 22 C 2.879 -0.9256 -2.938 0
M  V30 23 C 2.5446 -1.5352 -3.9234 0
M  V30 24 H -3.9922 -2.2381 0.5037 0
M  V30 25 H -4.6507 1.5473 -1.4678 0
M  V30 26 H -3.1838 0.6487 -1.9619 0
M  V30 27 H -2.5817 2.5011 -0.3621 0
M  V30 28 H -3.8617 1.9567 0.7289 0
M  V30 29 H -2.1705 -2.7032 1.8364 0
M  V30 30 H -1.5221 -1.3337 2.7702 0
M  V30 31 H -0.1793 1.6314 0.4809 0
M  V30 32 H -1.1135 0.8724 2.8127 0
M  V30 33 H -2.8876 1.1683 2.7942 0
M  V30 34 H -1.7452 2.4006 2.1521 0
M  V30 35 H 0.2797 -2.5103 1.573 0
M  V30 36 H -0.6099 -2.3491 0.0256 0
M  V30 37 H 0.7557 -0.1376 1.7055 0
M  V30 38 H -1.151 1.5317 -1.7923 0
M  V30 39 H -0.8302 -0.2327 -1.8199 0
M  V30 40 H 1.1148 -1.4427 -1.0373 0
M  V30 41 H 1.0483 2.185 -1.8865 0
M  V30 42 H 1.0207 0.7633 -2.9188 0
M  V30 43 H 3.0082 -1.1236 1.3161 0
M  V30 44 H 2.5495 -2.6004 0.376 0
M  V30 45 H 1.8739 1.8721 0.7746 0
M  V30 46 H 3.4753 1.1583 0.6239 0
M  V30 47 H 2.9602 2.4341 -0.5182 0
M  V30 48 H 4.7413 -0.7945 -0.1485 0
M  V30 49 H 4.213 -2.1465 -1.1887 0
M  V30 50 H 4.8073 1.0399 -1.3691 0
M  V30 51 H 2.2502 -2.0699 -4.7875 0
M  V30 END ATOM
M  V30 BEGIN BOND
M  V30 1 2 1 2
M  V30 2 1 2 3
M  V30 3 1 2 4
M  V30 4 2 3 5
M  V30 5 1 4 6
M  V30 6 1 5 7
M  V30 7 1 5 8
M  V30 8 1 7 9
M  V30 9 1 7 10
M  V30 10 1 8 11
M  V30 11 1 9 12
M  V30 12 1 9 13
M  V30 13 1 12 14
M  V30 14 1 13 15
M  V30 15 1 14 16
M  V30 16 1 14 17
M  V30 17 1 16 18
M  V30 18 1 16 19
M  V30 19 1 17 20
M  V30 20 1 18 21
M  V30 21 1 18 22
M  V30 22 3 22 23
M  V30 23 1 6 7
M  V30 24 1 11 12
M  V30 25 1 15 16
M  V30 26 1 18 20
M  V30 27 1 3 24
M  V30 28 1 4 25
M  V30 29 1 4 26
M  V30 30 1 6 27
M  V30 31 1 6 28
M  V30 32 1 8 29
M  V30 33 1 8 30
M  V30 34 1 9 31
M  V30 35 1 10 32
M  V30 36 1 10 33
M  V30 37 1 10 34
M  V30 38 1 11 35
M  V30 39 1 11 36
M  V30 40 1 12 37
M  V30 41 1 13 38
M  V30 42 1 13 39
M  V30 43 1 14 40
M  V30 44 1 15 41
M  V30 45 1 15 42
M  V30 46 1 17 43
M  V30 47 1 17 44
M  V30 48 1 19 45
M  V30 49 1 19 46
M  V30 50 1 19 47
M  V30 51 1 20 48
M  V30 52 1 20 49
M  V30 53 1 21 50
M  V30 54 1 23 51
M  V30 END BOND
M  V30 BEGIN COLLECTION
M  V30 MDLV30/STEABS ATOMS=(6 7 9 12 14 16 18)
M  V30 END COLLECTION
M  V30 END CTAB
M  END
>  <Structure No>
3688

>  <LogS>
-5.6576

>  <MMFF94 Energy>
84.944

$$$$
Compound 3689
Actelion Java MolfileCreator 2.0

  0  0  0  0  0  0              0 V3000
M  V30 BEGIN CTAB
M  V30 COUNTS 66 69 0 0 0
M  V30 BEGIN ATOM
M  V30 1 O -5.8222 3.0696 -1.2916 0
M  V30 2 C -4.6385 2.6525 -1.3876 0
M  V30 3 O -4.0482 2.5392 -2.6403 0 CHG=-1
M  V30 4 C -3.878 2.2552 -0.1599 0
M  V30 5 C -4.3265 0.8837 0.3778 0
M  V30 6 C -3.978 -0.3149 -0.5445 0 CFG=1
M  V30 7 C -2.441 -0.656 -0.6062 0 CFG=1
M  V30 8 C -4.9208 -1.5026 -0.2434 0
M  V30 9 C -1.6503 -1.1186 0.677 0 CFG=1
M  V30 10 C -2.106 -1.6698 -1.7238 0
M  V30 11 C -0.5168 -2.0119 0.0783 0 CFG=1
M  V30 12 C -1.1179 0.0874 1.5327 0
M  V30 13 C -2.507 -2.0063 1.6214 0
M  V30 14 C -1.1841 -2.7103 -1.1106 0
M  V30 15 C 0.8033 -1.2813 -0.3943 0 CFG=1
M  V30 16 C 0.3963 0.3126 1.4997 0
M  V30 17 C 0.9125 0.2107 0.0541 0 CFG=1
M  V30 18 C 2.0217 -2.1267 0.0582 0
M  V30 19 C 2.3368 0.8483 -0.2472 0 CFG=2
M  V30 20 C 3.3645 -1.4979 -0.3017 0
M  V30 21 C 3.4666 -0.086 0.2899 0 CFG=1
M  V30 22 C 2.513 2.2454 0.4331 0
M  V30 23 C 2.4382 1.0589 -1.7939 0
M  V30 24 C 4.8813 0.498 0.0734 0
M  V30 25 C 3.9079 2.856 0.2112 0
M  V30 26 C 5.0115 1.8996 0.6998 0 CFG=2
M  V30 27 O 6.2832 2.4402 0.4449 0
M  V30 28 H -2.7918 2.2729 -0.3767 0
M  V30 29 H -4.0586 3.0189 0.627 0
M  V30 30 H -5.4286 0.9276 0.528 0
M  V30 31 H -3.8918 0.7278 1.385 0
M  V30 32 H -4.2469 -0.0077 -1.5795 0
M  V30 33 H -1.9596 0.2813 -0.9507 0
M  V30 34 H -5.9113 -1.3114 -0.7096 0
M  V30 35 H -4.5471 -2.4626 -0.6477 0
M  V30 36 H -5.1062 -1.6219 0.8422 0
M  V30 37 H -2.9936 -2.1577 -2.1755 0
M  V30 38 H -1.5696 -1.1552 -2.5527 0
M  V30 39 H -0.245 -2.7969 0.8209 0
M  V30 40 H -1.5985 1.0301 1.2052 0
M  V30 41 H -1.4003 -0.0124 2.6046 0
M  V30 42 H -1.8727 -2.4264 2.4321 0
M  V30 43 H -2.9685 -2.8626 1.0918 0
M  V30 44 H -3.2958 -1.4129 2.1244 0
M  V30 45 H -1.7865 -3.5744 -0.7552 0
M  V30 46 H -0.4557 -3.1039 -1.8529 0
M  V30 47 H 0.8229 -1.2692 -1.504 0
M  V30 48 H 0.5481 1.3162 1.9345 0
M  V30 49 H 0.9084 -0.421 2.158 0
M  V30 50 H 0.1959 0.7964 -0.5625 0
M  V30 51 H 1.966 -3.1299 -0.4184 0
M  V30 52 H 1.9922 -2.2833 1.159 0
M  V30 53 H 4.1704 -2.1356 0.1232 0
M  V30 54 H 3.5039 -1.4895 -1.4027 0
M  V30 55 H 3.3332 -0.1849 1.3923 0
M  V30 56 H 2.4131 2.1626 1.5334 0
M  V30 57 H 1.7355 2.9529 0.0708 0
M  V30 58 H 2.2594 0.1315 -2.3675 0
M  V30 59 H 1.6824 1.8006 -2.1305 0
M  V30 60 H 3.4265 1.4312 -2.1191 0
M  V30 61 H 5.1345 0.5298 -1.0068 0
M  V30 62 H 5.6276 -0.1692 0.5578 0
M  V30 63 H 4.0587 3.1259 -0.8538 0
M  V30 64 H 3.9765 3.8039 0.7888 0
M  V30 65 H 4.9096 1.7927 1.8025 0
M  V30 66 H 6.3781 2.5347 -0.539 0
M  V30 END ATOM
M  V30 BEGIN BOND
M  V30 1 2 1 2
M  V30 2 1 2 3
M  V30 3 1 2 4
M  V30 4 1 4 5
M  V30 5 1 5 6
M  V30 6 1 6 7
M  V30 7 1 6 8
M  V30 8 1 7 9
M  V30 9 1 7 10
M  V30 10 1 9 11
M  V30 11 1 9 12
M  V30 12 1 9 13
M  V30 13 1 10 14
M  V30 14 1 11 15
M  V30 15 1 12 16
M  V30 16 1 15 17
M  V30 17 1 15 18
M  V30 18 1 17 19
M  V30 19 1 18 20
M  V30 20 1 19 21
M  V30 21 1 19 22
M  V30 22 1 19 23
M  V30 23 1 21 24
M  V30 24 1 22 25
M  V30 25 1 24 26
M  V30 26 1 26 27
M  V30 27 1 11 14
M  V30 28 1 16 17
M  V30 29 1 20 21
M  V30 30 1 25 26
M  V30 31 1 4 28
M  V30 32 1 4 29
M  V30 33 1 5 30
M  V30 34 1 5 31
M  V30 35 1 6 32
M  V30 36 1 7 33
M  V30 37 1 8 34
M  V30 38 1 8 35
M  V30 39 1 8 36
M  V30 40 1 10 37
M  V30 41 1 10 38
M  V30 42 1 11 39
M  V30 43 1 12 40
M  V30 44 1 12 41
M  V30 45 1 13 42
M  V30 46 1 13 43
M  V30 47 1 13 44
M  V30 48 1 14 45
M  V30 49 1 14 46
M  V30 50 1 15 47
M  V30 51 1 16 48
M  V30 52 1 16 49
M  V30 53 1 17 50
M  V30 54 1 18 51
M  V30 55 1 18 52
M  V30 56 1 20 53
M  V30 57 1 20 54
M  V30 58 1 21 55
M  V30 59 1 22 56
M  V30 60 1 22 57
M  V30 61 1 23 58
M  V30 62 1 23 59
M  V30 63 1 23 60
M  V30 64 1 24 61
M  V30 65 1 24 62
M  V30 66 1 25 63
M  V30 67 1 25 64
M  V30 68 1 26 65
M  V30 69 1 27 66
M  V30 END BOND
M  V30 BEGIN COLLECTION
M  V30 MDLV30/STEABS ATOMS=(9 6 7 9 11 15 17 19 21 26)
M  V30 END COLLECTION
M  V30 END CTAB
M  END
>  <Structure No>
3689

>  <LogS>
-6.0

>  <MMFF94 Energy>
96.108

$$$$
Compound 3690
Actelion Java MolfileCreator 2.0

  0  0  0  0  0  0              0 V3000
M  V30 BEGIN CTAB
M  V30 COUNTS 46 49 0 0 0
M  V30 BEGIN ATOM
M  V30 1 O 6.1671 0.0809 0.0 0
M  V30 2 C 4.9191 0.2114 -0.1088 0
M  V30 3 C 4.0701 -0.9776 -0.2505 0
M  V30 4 C 4.314 1.5761 -0.1708 0
M  V30 5 C 2.7294 -0.8863 -0.3113 0
M  V30 6 C 2.8876 1.5496 0.3795 0
M  V30 7 C 2.0194 0.4689 -0.3209 0 CFG=2
M  V30 8 C 1.9403 -2.125 -0.6402 0
M  V30 9 C 0.5989 0.3752 0.3335 0 CFG=2
M  V30 10 C 0.6089 -2.1316 0.0997 0
M  V30 11 C -0.1954 -0.8473 -0.1989 0 CFG=1
M  V30 12 C -0.2182 1.6543 0.0769 0
M  V30 13 C -1.6302 -0.9597 0.4179 0 CFG=1
M  V30 14 C -1.5535 1.6016 0.8132 0
M  V30 15 C -2.4256 0.3718 0.4573 0 CFG=1
M  V30 16 C -2.5163 -1.8818 -0.4467 0
M  V30 17 C -3.0418 0.4624 -0.9578 0 CFG=1
M  V30 18 C -3.5482 0.2716 1.529 0
M  V30 19 C -3.3512 -0.9794 -1.3587 0
M  V30 20 O -4.209 1.2444 -0.9946 0
M  V30 21 H 4.5556 -1.9445 -0.3155 0
M  V30 22 H 4.3023 1.9182 -1.2282 0
M  V30 23 H 4.9249 2.2892 0.4241 0
M  V30 24 H 2.4641 2.5613 0.2213 0
M  V30 25 H 2.9232 1.355 1.4745 0
M  V30 26 H 1.8967 0.7624 -1.3875 0
M  V30 27 H 1.7596 -2.1566 -1.7365 0
M  V30 28 H 2.4986 -3.0455 -0.3592 0
M  V30 29 H 0.7288 0.2561 1.434 0
M  V30 30 H 0.0527 -3.0391 -0.2108 0
M  V30 31 H 0.7953 -2.2196 1.1934 0
M  V30 32 H -0.2931 -0.7381 -1.3041 0
M  V30 33 H 0.3138 2.5455 0.4626 0
M  V30 34 H -0.3709 1.8088 -1.0118 0
M  V30 35 H -1.5357 -1.377 1.4467 0
M  V30 36 H -1.3343 1.599 1.9051 0
M  V30 37 H -2.1165 2.5369 0.603 0
M  V30 38 H -3.1912 -2.4694 0.2139 0
M  V30 39 H -1.9421 -2.6063 -1.0602 0
M  V30 40 H -2.3012 0.861 -1.6877 0
M  V30 41 H -4.1179 1.2236 1.5932 0
M  V30 42 H -3.1151 0.0693 2.5324 0
M  V30 43 H -4.2675 -0.5419 1.2976 0
M  V30 44 H -3.0884 -1.1482 -2.4263 0
M  V30 45 H -4.4321 -1.2064 -1.2229 0
M  V30 46 H -3.916 2.1924 -0.999 0
M  V30 END ATOM
M  V30 BEGIN BOND
M  V30 1 2 1 2
M  V30 2 1 2 3
M  V30 3 1 2 4
M  V30 4 2 3 5
M  V30 5 1 4 6
M  V30 6 1 5 7
M  V30 7 1 5 8
M  V30 8 1 7 9
M  V30 9 1 8 10
M  V30 10 1 9 11
M  V30 11 1 9 12
M  V30 12 1 11 13
M  V30 13 1 12 14
M  V30 14 1 13 15
M  V30 15 1 13 16
M  V30 16 1 15 17
M  V30 17 1 15 18
M  V30 18 1 16 19
M  V30 19 1 17 20
M  V30 20 1 6 7
M  V30 21 1 10 11
M  V30 22 1 14 15
M  V30 23 1 17 19
M  V30 24 1 3 21
M  V30 25 1 4 22
M  V30 26 1 4 23
M  V30 27 1 6 24
M  V30 28 1 6 25
M  V30 29 1 7 26
M  V30 30 1 8 27
M  V30 31 1 8 28
M  V30 32 1 9 29
M  V30 33 1 10 30
M  V30 34 1 10 31
M  V30 35 1 11 32
M  V30 36 1 12 33
M  V30 37 1 12 34
M  V30 38 1 13 35
M  V30 39 1 14 36
M  V30 40 1 14 37
M  V30 41 1 16 38
M  V30 42 1 16 39
M  V30 43 1 17 40
M  V30 44 1 18 41
M  V30 45 1 18 42
M  V30 46 1 18 43
M  V30 47 1 19 44
M  V30 48 1 19 45
M  V30 49 1 20 46
M  V30 END BOND
M  V30 BEGIN COLLECTION
M  V30 MDLV30/STEABS ATOMS=(6 7 9 11 13 15 17)
M  V30 END COLLECTION
M  V30 END CTAB
M  END
>  <Structure No>
3690

>  <LogS>
-1.9484

>  <MMFF94 Energy>
60.71

$$$$
Compound 3691
Actelion Java MolfileCreator 2.0

  0  0  0  0  0  0              0 V3000
M  V30 BEGIN CTAB
M  V30 COUNTS 39 41 0 0 0
M  V30 BEGIN ATOM
M  V30 1 O 1.6986 2.4273 -2.5083 0
M  V30 2 C 1.4851 1.9952 -1.3448 0
M  V30 3 O 0.7974 2.7215 -0.3985 0
M  V30 4 C 1.8801 0.6492 -0.8706 0 CFG=2
M  V30 5 C 0.6503 2.0028 0.8155 0 CFG=2
M  V30 6 C 1.4983 0.7059 0.635 0 CFG=1
M  V30 7 C 3.3722 0.3824 -1.0945 0
M  V30 8 C -0.8438 1.8468 1.1542 0
M  V30 9 C 0.9133 -0.6163 1.1843 0 CFG=1
M  V30 10 C -1.6716 1.036 0.1233 0 CFG=1
M  V30 11 O 0.575 -0.4679 2.5384 0
M  V30 12 C -0.2817 -1.1107 0.3917 0
M  V30 13 C -1.66 -0.4833 0.4524 0 CFG=2
M  V30 14 C -3.1176 1.5762 0.1252 0
M  V30 15 C -0.2749 -2.2167 -0.3557 0
M  V30 16 C -2.5005 -1.3231 -0.5439 0
M  V30 17 C -1.5904 -2.4271 -0.9098 0
M  V30 18 C 0.8924 -3.1352 -0.5782 0
M  V30 19 O -1.9177 -3.4048 -1.6334 0
M  V30 20 H 1.2843 -0.0992 -1.4319 0
M  V30 21 H 1.1045 2.6122 1.6288 0
M  V30 22 H 2.4327 0.8807 1.2184 0
M  V30 23 H 3.5939 0.3534 -2.1825 0
M  V30 24 H 3.9926 1.1751 -0.6231 0
M  V30 25 H 3.6472 -0.5998 -0.6558 0
M  V30 26 H -0.9702 1.4283 2.1746 0
M  V30 27 H -1.2424 2.8837 1.2225 0
M  V30 28 H 1.7407 -1.3584 1.1254 0
M  V30 29 H -1.2607 1.1917 -0.8981 0
M  V30 30 H 0.4325 -1.3815 2.9014 0
M  V30 31 H -2.064 -0.6419 1.4778 0
M  V30 32 H -3.1245 2.661 -0.1149 0
M  V30 33 H -3.7455 1.0793 -0.6407 0
M  V30 34 H -3.5871 1.4277 1.1216 0
M  V30 35 H -3.4233 -1.7154 -0.0648 0
M  V30 36 H -2.75 -0.767 -1.4724 0
M  V30 37 H 0.6348 -3.9275 -1.3115 0
M  V30 38 H 1.7568 -2.5643 -0.9765 0
M  V30 39 H 1.1753 -3.6207 0.3791 0
M  V30 END ATOM
M  V30 BEGIN BOND
M  V30 1 2 1 2
M  V30 2 1 2 3
M  V30 3 1 2 4
M  V30 4 1 3 5
M  V30 5 1 4 6
M  V30 6 1 4 7
M  V30 7 1 5 8
M  V30 8 1 6 9
M  V30 9 1 8 10
M  V30 10 1 9 11
M  V30 11 1 9 12
M  V30 12 1 10 13
M  V30 13 1 10 14
M  V30 14 2 12 15
M  V30 15 1 13 16
M  V30 16 1 15 17
M  V30 17 1 15 18
M  V30 18 2 17 19
M  V30 19 1 5 6
M  V30 20 1 12 13
M  V30 21 1 16 17
M  V30 22 1 4 20
M  V30 23 1 5 21
M  V30 24 1 6 22
M  V30 25 1 7 23
M  V30 26 1 7 24
M  V30 27 1 7 25
M  V30 28 1 8 26
M  V30 29 1 8 27
M  V30 30 1 9 28
M  V30 31 1 10 29
M  V30 32 1 11 30
M  V30 33 1 13 31
M  V30 34 1 14 32
M  V30 35 1 14 33
M  V30 36 1 14 34
M  V30 37 1 16 35
M  V30 38 1 16 36
M  V30 39 1 18 37
M  V30 40 1 18 38
M  V30 41 1 18 39
M  V30 END BOND
M  V30 BEGIN COLLECTION
M  V30 MDLV30/STEABS ATOMS=(6 4 5 6 9 10 13)
M  V30 END COLLECTION
M  V30 END CTAB
M  END
>  <Structure No>
3691

>  <LogS>
-1.945

>  <MMFF94 Energy>
9.349

$$$$
Compound 3692
Actelion Java MolfileCreator 2.0

  0  0  0  0  0  0              0 V3000
M  V30 BEGIN CTAB
M  V30 COUNTS 22 21 0 0 0
M  V30 BEGIN ATOM
M  V30 1 O -2.0957 -1.785 0.2326 0
M  V30 2 C -1.2815 -1.3229 -0.6099 0
M  V30 3 O -0.7666 -2.1615 -1.5907 0 CHG=-1
M  V30 4 C -0.8391 0.12 -0.548 0 CFG=1
M  V30 5 N -1.9876 1.007 -0.3071 0 CHG=1
M  V30 6 C 0.3094 0.358 0.4853 0 CFG=2
M  V30 7 C 1.5813 -0.4731 0.1783 0
M  V30 8 C -0.1307 0.1012 1.9386 0
M  V30 9 C 2.24 -0.1046 -1.1522 0
M  V30 10 H -0.443 0.3823 -1.553 0
M  V30 11 H -2.6515 0.9432 -1.1134 0
M  V30 12 H -2.5021 0.7434 0.5634 0
M  V30 13 H -1.6652 1.9991 -0.2307 0
M  V30 14 H 0.5961 1.4319 0.4268 0
M  V30 15 H 1.3493 -1.5598 0.1863 0
M  V30 16 H 2.3325 -0.2928 0.9787 0
M  V30 17 H -0.9676 0.7691 2.2266 0
M  V30 18 H 0.7074 0.3187 2.6348 0
M  V30 19 H -0.4347 -0.9561 2.0838 0
M  V30 20 H 1.6309 -0.4627 -2.0073 0
M  V30 21 H 2.381 0.9944 -1.2277 0
M  V30 22 H 3.2352 -0.5926 -1.2178 0
M  V30 END ATOM
M  V30 BEGIN BOND
M  V30 1 2 1 2
M  V30 2 1 2 3
M  V30 3 1 2 4
M  V30 4 1 4 5
M  V30 5 1 4 6
M  V30 6 1 6 7
M  V30 7 1 6 8
M  V30 8 1 7 9
M  V30 9 1 4 10
M  V30 10 1 5 11
M  V30 11 1 5 12
M  V30 12 1 5 13
M  V30 13 1 6 14
M  V30 14 1 7 15
M  V30 15 1 7 16
M  V30 16 1 8 17
M  V30 17 1 8 18
M  V30 18 1 8 19
M  V30 19 1 9 20
M  V30 20 1 9 21
M  V30 21 1 9 22
M  V30 END BOND
M  V30 BEGIN COLLECTION
M  V30 MDLV30/STEABS ATOMS=(2 4 6)
M  V30 END COLLECTION
M  V30 END CTAB
M  END
>  <Structure No>
3692

>  <LogS>
-0.7875

>  <MMFF94 Energy>
-4.523

$$$$
Compound 3693
Actelion Java MolfileCreator 2.0

  0  0  0  0  0  0              0 V3000
M  V30 BEGIN CTAB
M  V30 COUNTS 19 19 0 0 0
M  V30 BEGIN ATOM
M  V30 1 O 2.1644 -2.5656 0.4005 0
M  V30 2 C 2.3425 -1.4825 -0.2165 0
M  V30 3 O 3.4667 -0.7128 0.0543 0 CHG=-1
M  V30 4 C 1.3238 -1.0008 -1.1992 0
M  V30 5 C 0.2577 -0.2032 -0.4939 0
M  V30 6 C 0.4267 1.1745 -0.2477 0
M  V30 7 C -0.9 -0.8496 -0.027 0
M  V30 8 O 1.5803 1.8289 -0.6794 0
M  V30 9 C -0.5685 1.8883 0.4353 0
M  V30 10 C -1.8896 -0.1295 0.6558 0
M  V30 11 C -1.7214 1.2389 0.8825 0
M  V30 12 O -3.0414 -0.7652 1.1143 0
M  V30 13 H 1.8207 -0.3828 -1.9774 0
M  V30 14 H 0.8729 -1.8716 -1.7238 0
M  V30 15 H -1.0325 -1.9119 -0.1929 0
M  V30 16 H 1.724 2.818 -0.5123 0
M  V30 17 H -0.4472 2.9475 0.6235 0
M  V30 18 H -2.4833 1.7989 1.41 0
M  V30 19 H -3.194 -1.756 0.967 0
M  V30 END ATOM
M  V30 BEGIN BOND
M  V30 1 2 1 2
M  V30 2 1 2 3
M  V30 3 1 2 4
M  V30 4 1 4 5
M  V30 5 2 5 6
M  V30 6 1 5 7
M  V30 7 1 6 8
M  V30 8 1 6 9
M  V30 9 2 7 10
M  V30 10 2 9 11
M  V30 11 1 10 12
M  V30 12 1 10 11
M  V30 13 1 4 13
M  V30 14 1 4 14
M  V30 15 1 7 15
M  V30 16 1 8 16
M  V30 17 1 9 17
M  V30 18 1 11 18
M  V30 19 1 12 19
M  V30 END BOND
M  V30 END CTAB
M  END
>  <Structure No>
3693

>  <LogS>
0.7037

>  <MMFF94 Energy>
5.9907

$$$$
Compound 3694
Actelion Java MolfileCreator 2.0

  0  0  0  0  0  0              0 V3000
M  V30 BEGIN CTAB
M  V30 COUNTS 15 16 0 0 0
M  V30 BEGIN ATOM
M  V30 1 N -0.794 0.7145 -0.9528 0
M  V30 2 C -1.7339 0.0056 -0.2536 0
M  V30 3 C 0.5057 0.5752 -0.5985 0
M  V30 4 N -1.3542 -0.8201 0.7763 0
M  V30 5 N -3.1125 0.1251 -0.5959 0
M  V30 6 N 1.5629 1.1834 -1.1616 0
M  V30 7 C 0.8931 -0.233 0.4119 0
M  V30 8 C -0.0427 -0.9588 1.1316 0
M  V30 9 C 2.6013 0.6922 -0.4301 0
M  V30 10 N 2.2222 -0.1775 0.5407 0
M  V30 11 H -3.411 0.7503 -1.377 0
M  V30 12 H -3.8364 -0.4114 -0.0683 0
M  V30 13 H 0.2472 -1.6113 1.9442 0
M  V30 14 H 3.6319 0.9698 -0.6071 0
M  V30 15 H 2.8281 -0.6823 1.2251 0
M  V30 END ATOM
M  V30 BEGIN BOND
M  V30 1 2 1 2
M  V30 2 1 1 3
M  V30 3 1 2 4
M  V30 4 1 2 5
M  V30 5 1 3 6
M  V30 6 2 3 7
M  V30 7 2 4 8
M  V30 8 2 6 9
M  V30 9 1 7 10
M  V30 10 1 7 8
M  V30 11 1 9 10
M  V30 12 1 5 11
M  V30 13 1 5 12
M  V30 14 1 8 13
M  V30 15 1 9 14
M  V30 16 1 10 15
M  V30 END BOND
M  V30 END CTAB
M  END
>  <Structure No>
3694

>  <LogS>
-1.21

>  <MMFF94 Energy>
-108.96

$$$$
Compound 3695
Actelion Java MolfileCreator 2.0

  0  0  0  0  0  0              0 V3000
M  V30 BEGIN CTAB
M  V30 COUNTS 14 14 0 0 0
M  V30 BEGIN ATOM
M  V30 1 O -1.4096 0.9396 -0.0782 0
M  V30 2 C -0.0552 1.3245 -0.025 0
M  V30 3 C -1.4559 -0.4701 -0.0732 0
M  V30 4 C 0.7857 0.1221 0.3531 0 CFG=1
M  V30 5 C -0.0465 -1.0249 -0.1379 0
M  V30 6 O 2.0366 0.1642 -0.2805 0
M  V30 7 H 0.0739 2.1367 0.7218 0
M  V30 8 H 0.2426 1.7131 -1.0239 0
M  V30 9 H -1.9512 -0.8078 0.8627 0
M  V30 10 H -2.0543 -0.8281 -0.938 0
M  V30 11 H 0.8995 0.0758 1.4619 0
M  V30 12 H 0.0738 -1.9244 0.5042 0
M  V30 13 H 0.2111 -1.2749 -1.1915 0
M  V30 14 H 2.5809 -0.5586 0.1276 0
M  V30 END ATOM
M  V30 BEGIN BOND
M  V30 1 1 1 2
M  V30 2 1 1 3
M  V30 3 1 2 4
M  V30 4 1 3 5
M  V30 5 1 4 6
M  V30 6 1 4 5
M  V30 7 1 2 7
M  V30 8 1 2 8
M  V30 9 1 3 9
M  V30 10 1 3 10
M  V30 11 1 4 11
M  V30 12 1 5 12
M  V30 13 1 5 13
M  V30 14 1 6 14
M  V30 END BOND
M  V30 BEGIN COLLECTION
M  V30 MDLV30/STEABS ATOMS=(1 4)
M  V30 END COLLECTION
M  V30 END CTAB
M  END
>  <Structure No>
3695

>  <LogS>
1.055

>  <MMFF94 Energy>
24.543

$$$$
Compound 3696
Actelion Java MolfileCreator 2.0

  0  0  0  0  0  0              0 V3000
M  V30 BEGIN CTAB
M  V30 COUNTS 16 16 0 0 0
M  V30 BEGIN ATOM
M  V30 1 F -2.4894 1.5761 0.4975 0
M  V30 2 C -1.2817 0.9891 0.3061 0
M  V30 3 C -1.1774 -0.3678 -0.0629 0
M  V30 4 C -0.1311 1.7611 0.4832 0
M  V30 5 N -2.3541 -1.1816 -0.2505 0 CHG=1
M  V30 6 C 0.1045 -0.9239 -0.248 0
M  V30 7 C 1.1325 1.2003 0.2973 0
M  V30 8 O -2.249 -2.3821 -0.5774 0
M  V30 9 O -3.6144 -0.658 -0.0748 0 CHG=-1
M  V30 10 C 1.2636 -0.1482 -0.0701 0
M  V30 11 C 2.6025 -0.7474 -0.2684 0
M  V30 12 O 3.6438 -0.0559 -0.11 0
M  V30 13 O 2.7305 -2.083 -0.6324 0 CHG=-1
M  V30 14 H -0.2189 2.8023 0.7667 0
M  V30 15 H 0.1986 -1.9644 -0.5314 0
M  V30 16 H 2.0064 1.8233 0.4418 0
M  V30 END ATOM
M  V30 BEGIN BOND
M  V30 1 1 1 2
M  V30 2 2 2 3
M  V30 3 1 2 4
M  V30 4 1 3 5
M  V30 5 1 3 6
M  V30 6 2 4 7
M  V30 7 2 5 8
M  V30 8 1 5 9
M  V30 9 2 6 10
M  V30 10 1 10 11
M  V30 11 2 11 12
M  V30 12 1 11 13
M  V30 13 1 7 10
M  V30 14 1 4 14
M  V30 15 1 6 15
M  V30 16 1 7 16
M  V30 END BOND
M  V30 END CTAB
M  END
>  <Structure No>
3696

>  <LogS>
-1.5809

>  <MMFF94 Energy>
42.354

$$$$
Compound 3697
Actelion Java MolfileCreator 2.0

  0  0  0  0  0  0              0 V3000
M  V30 BEGIN CTAB
M  V30 COUNTS 15 15 0 0 0
M  V30 BEGIN ATOM
M  V30 1 Cl 2.9421 -0.1632 -1.3885 0
M  V30 2 C 2.2132 -0.1813 0.2357 0
M  V30 3 C 0.7196 -0.0834 0.1225 0
M  V30 4 C 0.0924 1.1731 0.0862 0
M  V30 5 C -0.0586 -1.2458 -0.0062 0
M  V30 6 C -1.2966 1.2634 -0.0518 0
M  V30 7 C -1.447 -1.1515 -0.144 0
M  V30 8 F -1.8973 2.4786 -0.0805 0
M  V30 9 C -2.0658 0.1014 -0.1648 0
M  V30 10 H 2.5044 -1.1199 0.7534 0
M  V30 11 H 2.6162 0.6708 0.8235 0
M  V30 12 H 0.6793 2.0802 0.1641 0
M  V30 13 H 0.409 -2.2225 -4.0E-4 0
M  V30 14 H -2.0431 -2.0501 -0.2383 0
M  V30 15 H -3.1407 0.1711 -0.2729 0
M  V30 END ATOM
M  V30 BEGIN BOND
M  V30 1 1 1 2
M  V30 2 1 2 3
M  V30 3 2 3 4
M  V30 4 1 3 5
M  V30 5 1 4 6
M  V30 6 2 5 7
M  V30 7 1 6 8
M  V30 8 2 6 9
M  V30 9 1 7 9
M  V30 10 1 2 10
M  V30 11 1 2 11
M  V30 12 1 4 12
M  V30 13 1 5 13
M  V30 14 1 7 14
M  V30 15 1 9 15
M  V30 END BOND
M  V30 END CTAB
M  END
>  <Structure No>
3697

>  <LogS>
-2.5436

>  <MMFF94 Energy>
22.202

$$$$
Compound 3698
Actelion Java MolfileCreator 2.0

  0  0  0  0  0  0              0 V3000
M  V30 BEGIN CTAB
M  V30 COUNTS 27 27 0 0 0
M  V30 BEGIN ATOM
M  V30 1 N -0.9342 1.3237 -0.3113 0 CHG=1
M  V30 2 C 0.0964 0.2845 -0.1135 0 CFG=2
M  V30 3 C -2.1692 0.7791 -0.9155 0
M  V30 4 C -0.3836 -0.7617 0.9294 0
M  V30 5 C 1.4383 0.9355 0.3046 0
M  V30 6 C -2.519 -0.6415 -0.422 0
M  V30 7 C -1.9137 -0.9177 0.9535 0
M  V30 8 C 2.6027 -0.0578 0.4749 0
M  V30 9 C 3.0108 -0.7292 -0.836 0
M  V30 10 H -0.5663 2.0699 -0.9475 0
M  V30 11 H -1.164 1.7729 0.6071 0
M  V30 12 H 0.2545 -0.2331 -1.0865 0
M  V30 13 H -3.017 1.4614 -0.682 0
M  V30 14 H -2.0691 0.7568 -2.024 0
M  V30 15 H 0.0779 -1.7444 0.6888 0
M  V30 16 H -0.0521 -0.4777 1.9525 0
M  V30 17 H 1.7304 1.6958 -0.4525 0
M  V30 18 H 1.2945 1.4759 1.266 0
M  V30 19 H -2.128 -1.3922 -1.144 0
M  V30 20 H -3.623 -0.7624 -0.3761 0
M  V30 21 H -2.1801 -1.9459 1.281 0
M  V30 22 H -2.35 -0.206 1.6891 0
M  V30 23 H 2.3511 -0.8338 1.2283 0
M  V30 24 H 3.4802 0.5028 0.8641 0
M  V30 25 H 3.9483 -1.3032 -0.6796 0
M  V30 26 H 3.1898 0.0318 -1.6249 0
M  V30 27 H 2.2274 -1.4387 -1.174 0
M  V30 END ATOM
M  V30 BEGIN BOND
M  V30 1 1 1 2
M  V30 2 1 1 3
M  V30 3 1 2 4
M  V30 4 1 2 5
M  V30 5 1 3 6
M  V30 6 1 4 7
M  V30 7 1 5 8
M  V30 8 1 8 9
M  V30 9 1 6 7
M  V30 10 1 1 10
M  V30 11 1 1 11
M  V30 12 1 2 12
M  V30 13 1 3 13
M  V30 14 1 3 14
M  V30 15 1 4 15
M  V30 16 1 4 16
M  V30 17 1 5 17
M  V30 18 1 5 18
M  V30 19 1 6 19
M  V30 20 1 6 20
M  V30 21 1 7 21
M  V30 22 1 7 22
M  V30 23 1 8 23
M  V30 24 1 8 24
M  V30 25 1 9 25
M  V30 26 1 9 26
M  V30 27 1 9 27
M  V30 END BOND
M  V30 BEGIN COLLECTION
M  V30 MDLV30/STEABS ATOMS=(1 2)
M  V30 END COLLECTION
M  V30 END CTAB
M  END
>  <Structure No>
3698

>  <LogS>
-0.8493

>  <MMFF94 Energy>
5.7444

$$$$
Compound 3699
Actelion Java MolfileCreator 2.0

  0  0  0  0  0  0              0 V3000
M  V30 BEGIN CTAB
M  V30 COUNTS 12 11 0 0 0
M  V30 BEGIN ATOM
M  V30 1 F -2.6667 -0.3918 -0.4702 0
M  V30 2 C -1.5143 -0.5292 0.2816 0
M  V30 3 F -0.9665 -1.7768 0.0458 0
M  V30 4 C -0.5192 0.5618 -0.0995 0
M  V30 5 O 0.615 0.4976 0.7459 0
M  V30 6 C 1.7374 0.024 0.0357 0
M  V30 7 H -1.7744 -0.4434 1.358 0
M  V30 8 H -0.2896 0.4923 -1.1906 0
M  V30 9 H -1.0068 1.5475 0.0573 0
M  V30 10 H 2.035 0.7447 -0.7578 0
M  V30 11 H 2.5883 -0.073 0.7406 0
M  V30 12 H 1.5447 -0.9801 -0.4029 0
M  V30 END ATOM
M  V30 BEGIN BOND
M  V30 1 1 1 2
M  V30 2 1 2 3
M  V30 3 1 2 4
M  V30 4 1 4 5
M  V30 5 1 5 6
M  V30 6 1 2 7
M  V30 7 1 4 8
M  V30 8 1 4 9
M  V30 9 1 6 10
M  V30 10 1 6 11
M  V30 11 1 6 12
M  V30 END BOND
M  V30 END CTAB
M  END
>  <Structure No>
3699

>  <LogS>
-0.2836

>  <MMFF94 Energy>
34.2

$$$$
Compound 3700
Actelion Java MolfileCreator 2.0

  0  0  0  0  0  0              0 V3000
M  V30 BEGIN CTAB
M  V30 COUNTS 10 9 0 0 0
M  V30 BEGIN ATOM
M  V30 1 N 1.2874 -0.9086 -2.652 0
M  V30 2 C 0.6386 -0.8299 -1.6968 0
M  V30 3 N -0.1486 -0.7354 -0.5385 0
M  V30 4 C -0.0639 0.368 0.3781 0
M  V30 5 N 0.7586 1.3519 0.18 0
M  V30 6 N -0.9022 0.3854 1.5335 0
M  V30 7 H -0.8235 -1.5076 -0.3434 0
M  V30 8 H 1.3995 1.4043 -0.6419 0
M  V30 9 H -1.5722 -0.3944 1.7149 0
M  V30 10 H -0.8557 1.1783 2.2118 0
M  V30 END ATOM
M  V30 BEGIN BOND
M  V30 1 3 1 2
M  V30 2 1 2 3
M  V30 3 1 3 4
M  V30 4 2 4 5
M  V30 5 1 4 6
M  V30 6 1 3 7
M  V30 7 1 5 8
M  V30 8 1 6 9
M  V30 9 1 6 10
M  V30 END BOND
M  V30 END CTAB
M  END
>  <Structure No>
3700

>  <LogS>
-0.3087

>  <MMFF94 Energy>
-172.72

$$$$
Compound 3701
Actelion Java MolfileCreator 2.0

  0  0  0  0  0  0              0 V3000
M  V30 BEGIN CTAB
M  V30 COUNTS 13 13 0 0 0
M  V30 BEGIN ATOM
M  V30 1 N -1.0106 -1.4773 -0.544 0
M  V30 2 C 0.3274 -1.2461 -0.4633 0
M  V30 3 C -1.9215 -0.5343 -0.1823 0
M  V30 4 C 0.8011 -0.0118 0.0018 0
M  V30 5 C -1.4924 0.7094 0.2865 0
M  V30 6 N 2.2056 0.2406 0.0904 0
M  V30 7 C -0.1236 0.9703 0.3785 0
M  V30 8 H 1.0204 -2.0222 -0.7606 0
M  V30 9 H -2.9789 -0.7502 -0.2588 0
M  V30 10 H -2.2135 1.4632 0.5756 0
M  V30 11 H 2.5624 1.1592 0.4366 0
M  V30 12 H 2.8982 -0.4892 -0.1894 0
M  V30 13 H 0.2149 1.9327 0.7413 0
M  V30 END ATOM
M  V30 BEGIN BOND
M  V30 1 2 1 2
M  V30 2 1 1 3
M  V30 3 1 2 4
M  V30 4 2 3 5
M  V30 5 1 4 6
M  V30 6 2 4 7
M  V30 7 1 5 7
M  V30 8 1 2 8
M  V30 9 1 3 9
M  V30 10 1 5 10
M  V30 11 1 6 11
M  V30 12 1 6 12
M  V30 13 1 7 13
M  V30 END BOND
M  V30 END CTAB
M  END
>  <Structure No>
3701

>  <LogS>
1.0263

>  <MMFF94 Energy>
30.924

$$$$
Compound 3702
Actelion Java MolfileCreator 2.0

  0  0  0  0  0  0              0 V3000
M  V30 BEGIN CTAB
M  V30 COUNTS 13 12 0 0 0
M  V30 BEGIN ATOM
M  V30 1 O 0.6285 0.7856 1.4932 0
M  V30 2 C 1.0248 0.4026 0.3596 0
M  V30 3 N 0.223 -0.4887 -0.4267 0
M  V30 4 N 2.2811 0.8598 -0.1383 0
M  V30 5 C -1.0739 -0.9847 0.0263 0
M  V30 6 C -2.0982 0.102 -0.0471 0
M  V30 7 O -2.5512 0.4689 -1.163 0
M  V30 8 O -2.5304 0.7327 1.1125 0 CHG=-1
M  V30 9 H 0.5876 -0.8151 -1.3498 0
M  V30 10 H 2.8699 1.5081 0.4303 0
M  V30 11 H 2.6246 0.5527 -1.075 0
M  V30 12 H -1.3956 -1.8266 -0.6238 0
M  V30 13 H -0.9916 -1.3704 1.0653 0
M  V30 END ATOM
M  V30 BEGIN BOND
M  V30 1 2 1 2
M  V30 2 1 2 3
M  V30 3 1 2 4
M  V30 4 1 3 5
M  V30 5 1 5 6
M  V30 6 2 6 7
M  V30 7 1 6 8
M  V30 8 1 3 9
M  V30 9 1 4 10
M  V30 10 1 4 11
M  V30 11 1 5 12
M  V30 12 1 5 13
M  V30 END BOND
M  V30 END CTAB
M  END
>  <Structure No>
3702

>  <LogS>
-0.5809

>  <MMFF94 Energy>
-62.589

$$$$
Compound 3703
Actelion Java MolfileCreator 2.0

  0  0  0  0  0  0              0 V3000
M  V30 BEGIN CTAB
M  V30 COUNTS 16 15 0 0 0
M  V30 BEGIN ATOM
M  V30 1 O 1.2565 1.7281 0.0785 0
M  V30 2 C 1.5371 0.5034 0.179 0
M  V30 3 N 0.7203 -0.4862 -0.4614 0
M  V30 4 N 2.6766 0.1038 0.9387 0
M  V30 5 C -0.5029 -0.1564 -1.193 0
M  V30 6 C -1.739 -0.406 -0.3254 0
M  V30 7 C -1.7935 0.538 0.8353 0
M  V30 8 O -2.2417 1.7047 0.6823 0
M  V30 9 O -1.3103 0.1437 2.0766 0 CHG=-1
M  V30 10 H 0.9518 -1.4953 -0.3198 0
M  V30 11 H 2.9241 -0.9059 1.0337 0
M  V30 12 H 3.2748 0.8189 1.4089 0
M  V30 13 H -0.4857 0.8968 -1.5488 0
M  V30 14 H -0.5633 -0.8046 -2.0935 0
M  V30 15 H -1.7321 -1.4539 0.0452 0
M  V30 16 H -2.6517 -0.2725 -0.9456 0
M  V30 END ATOM
M  V30 BEGIN BOND
M  V30 1 2 1 2
M  V30 2 1 2 3
M  V30 3 1 2 4
M  V30 4 1 3 5
M  V30 5 1 5 6
M  V30 6 1 6 7
M  V30 7 2 7 8
M  V30 8 1 7 9
M  V30 9 1 3 10
M  V30 10 1 4 11
M  V30 11 1 4 12
M  V30 12 1 5 13
M  V30 13 1 5 14
M  V30 14 1 6 15
M  V30 15 1 6 16
M  V30 END BOND
M  V30 END CTAB
M  END
>  <Structure No>
3703

>  <LogS>
-0.8014

>  <MMFF94 Energy>
-113.06

$$$$
Compound 3704
Actelion Java MolfileCreator 2.0

  0  0  0  0  0  0              0 V3000
M  V30 BEGIN CTAB
M  V30 COUNTS 29 30 0 0 0
M  V30 BEGIN ATOM
M  V30 1 O 2.4767 1.3576 0.0 0
M  V30 2 C 1.0723 1.3189 -0.0132 0 CFG=2
M  V30 3 C 0.5129 0.0252 0.6509 0 CFG=1
M  V30 4 C 0.5169 1.2139 -1.4534 0
M  V30 5 C -0.8922 -0.1038 0.0165 0
M  V30 6 C 1.277 -1.184 0.0402 0
M  V30 7 C 0.5529 0.0589 2.184 0
M  V30 8 C -0.3158 -0.0925 -1.4096 0 CFG=2
M  V30 9 C -1.6728 -1.4078 0.3706 0
M  V30 10 C -1.8766 1.072 0.3048 0
M  V30 11 C 0.707 -1.2539 -1.3899 0
M  V30 12 H 2.7366 2.2514 -0.3448 0
M  V30 13 H 0.6813 2.2264 0.5012 0
M  V30 14 H 1.3266 1.169 -2.2151 0
M  V30 15 H -0.1245 2.0861 -1.7018 0
M  V30 16 H 2.379 -1.0462 0.0309 0
M  V30 17 H 1.0752 -2.1234 0.5978 0
M  V30 18 H 1.604 0.1471 2.5312 0
M  V30 19 H -0.0199 0.9275 2.5705 0
M  V30 20 H 0.1198 -0.8717 2.6063 0
M  V30 21 H -1.0692 -0.1722 -2.2225 0
M  V30 22 H -2.0176 -1.3722 1.4259 0
M  V30 23 H -2.5688 -1.4961 -0.2804 0
M  V30 24 H -1.1004 -2.3454 0.2544 0
M  V30 25 H -1.4796 2.0819 0.0984 0
M  V30 26 H -2.7892 0.9576 -0.3186 0
M  V30 27 H -2.1864 1.0582 1.3714 0
M  V30 28 H 1.5063 -1.1267 -2.1526 0
M  V30 29 H 0.2093 -2.2282 -1.5817 0
M  V30 END ATOM
M  V30 BEGIN BOND
M  V30 1 1 1 2
M  V30 2 1 2 3
M  V30 3 1 2 4
M  V30 4 1 3 5
M  V30 5 1 3 6
M  V30 6 1 3 7
M  V30 7 1 4 8
M  V30 8 1 5 9
M  V30 9 1 5 10
M  V30 10 1 6 11
M  V30 11 1 5 8
M  V30 12 1 8 11
M  V30 13 1 1 12
M  V30 14 1 2 13
M  V30 15 1 4 14
M  V30 16 1 4 15
M  V30 17 1 6 16
M  V30 18 1 6 17
M  V30 19 1 7 18
M  V30 20 1 7 19
M  V30 21 1 7 20
M  V30 22 1 8 21
M  V30 23 1 9 22
M  V30 24 1 9 23
M  V30 25 1 9 24
M  V30 26 1 10 25
M  V30 27 1 10 26
M  V30 28 1 10 27
M  V30 29 1 11 28
M  V30 30 1 11 29
M  V30 END BOND
M  V30 BEGIN COLLECTION
M  V30 MDLV30/STEABS ATOMS=(3 2 3 8)
M  V30 END COLLECTION
M  V30 END CTAB
M  END
>  <Structure No>
3704

>  <LogS>
-2.319

>  <MMFF94 Energy>
54.851

$$$$
Compound 3705
Actelion Java MolfileCreator 2.0

  0  0  0  0  0  0              0 V3000
M  V30 BEGIN CTAB
M  V30 COUNTS 27 28 0 0 0
M  V30 BEGIN ATOM
M  V30 1 O 2.409 0.5617 1.6055 0
M  V30 2 C 1.318 0.6091 1.0588 0
M  V30 3 C 0.8882 -0.2068 -0.1349 0 CFG=1
M  V30 4 C 0.2207 1.5687 1.4018 0
M  V30 5 C -0.6266 -0.3324 0.1356 0
M  V30 6 C 0.9579 0.7744 -1.3296 0
M  V30 7 C 1.6581 -1.5172 -0.3343 0
M  V30 8 C -0.8002 1.1976 0.2903 0 CFG=2
M  V30 9 C -1.4665 -0.9478 -1.0237 0
M  V30 10 C -0.994 -1.136 1.4217 0
M  V30 11 C -0.2156 1.744 -1.0415 0
M  V30 12 H -0.1846 1.3749 2.4171 0
M  V30 13 H 0.5654 2.6234 1.3357 0
M  V30 14 H 0.8212 0.2531 -2.3013 0
M  V30 15 H 1.9298 1.3162 -1.3612 0
M  V30 16 H 2.7302 -1.3008 -0.5264 0
M  V30 17 H 1.5814 -2.1546 0.5714 0
M  V30 18 H 1.2506 -2.0757 -1.2026 0
M  V30 19 H -1.8375 1.5363 0.5001 0
M  V30 20 H -1.2802 -0.5043 -2.0187 0
M  V30 21 H -2.549 -0.8242 -0.8064 0
M  V30 22 H -1.2551 -2.0343 -1.1154 0
M  V30 23 H -0.8911 -2.2268 1.2383 0
M  V30 24 H -0.3543 -0.9075 2.297 0
M  V30 25 H -2.0483 -0.9303 1.7053 0
M  V30 26 H -0.9738 1.7177 -1.8526 0
M  V30 27 H 0.1399 2.7931 -0.9441 0
M  V30 END ATOM
M  V30 BEGIN BOND
M  V30 1 2 1 2
M  V30 2 1 2 3
M  V30 3 1 2 4
M  V30 4 1 3 5
M  V30 5 1 3 6
M  V30 6 1 3 7
M  V30 7 1 4 8
M  V30 8 1 5 9
M  V30 9 1 5 10
M  V30 10 1 6 11
M  V30 11 1 5 8
M  V30 12 1 8 11
M  V30 13 1 4 12
M  V30 14 1 4 13
M  V30 15 1 6 14
M  V30 16 1 6 15
M  V30 17 1 7 16
M  V30 18 1 7 17
M  V30 19 1 7 18
M  V30 20 1 8 19
M  V30 21 1 9 20
M  V30 22 1 9 21
M  V30 23 1 9 22
M  V30 24 1 10 23
M  V30 25 1 10 24
M  V30 26 1 10 25
M  V30 27 1 11 26
M  V30 28 1 11 27
M  V30 END BOND
M  V30 BEGIN COLLECTION
M  V30 MDLV30/STEABS ATOMS=(2 3 8)
M  V30 END COLLECTION
M  V30 END CTAB
M  END
>  <Structure No>
3705

>  <LogS>
-3.1825

>  <MMFF94 Energy>
45.556

$$$$
Compound 3706
Actelion Java MolfileCreator 2.0

  0  0  0  0  0  0              0 V3000
M  V30 BEGIN CTAB
M  V30 COUNTS 48 52 0 0 0
M  V30 BEGIN ATOM
M  V30 1 O 1.0495 -2.0191 0.7265 0
M  V30 2 C 0.9009 -0.8429 -0.0468 0 CFG=1
M  V30 3 C 2.3712 -2.478 0.5729 0
M  V30 4 N 1.0008 0.3243 0.8447 0
M  V30 5 C 2.1438 -0.7258 -1.002 0 CFG=1
M  V30 6 C -0.4708 -0.8958 -0.8226 0 CFG=1
M  V30 7 C 2.8933 -2.0171 -0.7679 0
M  V30 8 C 2.1812 1.0388 0.5511 0
M  V30 9 O 1.802 -0.549 -2.3568 0
M  V30 10 C 2.8733 0.4785 -0.4826 0
M  V30 11 N -1.5961 -1.5427 -0.0698 0 CHG=1 CFG=1
M  V30 12 C -0.9229 0.4859 -1.3957 0
M  V30 13 C 2.6479 2.1704 1.2208 0
M  V30 14 C 4.0829 1.0267 -0.9211 0
M  V30 15 C -2.0876 -0.7051 1.0526 0
M  V30 16 C -2.7325 -1.7586 -1.005 0
M  V30 17 C -2.3878 0.7451 -0.9958 0 CFG=2
M  V30 18 C 3.8599 2.7407 0.7993 0
M  V30 19 C 4.5763 2.1697 -0.2705 0
M  V30 20 C -2.465 0.7246 0.5544 0 CFG=1
M  V30 21 C -3.2454 -0.4067 -1.567 0
M  V30 22 C -3.8269 1.1659 1.0503 0
M  V30 23 C -4.2261 2.4372 0.9468 0
M  V30 24 H 2.393 -3.5865 0.6374 0
M  V30 25 H 2.9992 -2.0616 1.3915 0
M  V30 26 H 0.433 0.5085 1.6975 0
M  V30 27 H -0.2755 -1.5562 -1.6991 0
M  V30 28 H 2.6174 -2.7661 -1.5431 0
M  V30 29 H 3.9978 -1.8872 -0.7576 0
M  V30 30 H 2.6462 -0.5566 -2.8797 0
M  V30 31 H -1.3027 -2.478 0.2977 0
M  V30 32 H -0.8385 0.4809 -2.5051 0
M  V30 33 H -0.2896 1.3252 -1.04 0
M  V30 34 H 2.0907 2.5987 2.0439 0
M  V30 35 H 4.6302 0.5805 -1.741 0
M  V30 36 H -1.3399 -0.6654 1.866 0
M  V30 37 H -2.9601 -1.2094 1.5268 0
M  V30 38 H -2.4215 -2.4211 -1.844 0
M  V30 39 H -3.5638 -2.2885 -0.4867 0
M  V30 40 H -2.7233 1.7225 -1.4067 0
M  V30 41 H 4.2452 3.6199 1.2991 0
M  V30 42 H 5.5107 2.6117 -0.5911 0
M  V30 43 H -1.7171 1.4417 0.9616 0
M  V30 44 H -4.313 -0.2595 -1.2939 0
M  V30 45 H -3.1834 -0.4084 -2.6774 0
M  V30 46 H -4.4995 0.4528 1.518 0
M  V30 47 H -3.5844 3.1904 0.4995 0
M  V30 48 H -5.2034 2.7317 1.3156 0
M  V30 END ATOM
M  V30 BEGIN BOND
M  V30 1 1 1 2
M  V30 2 1 1 3
M  V30 3 1 2 4
M  V30 4 1 2 5
M  V30 5 1 2 6
M  V30 6 1 3 7
M  V30 7 1 4 8
M  V30 8 1 5 9
M  V30 9 1 5 10
M  V30 10 1 6 11
M  V30 11 1 6 12
M  V30 12 1 8 13
M  V30 13 1 10 14
M  V30 14 1 11 15
M  V30 15 1 11 16
M  V30 16 1 12 17
M  V30 17 2 13 18
M  V30 18 2 14 19
M  V30 19 1 15 20
M  V30 20 1 16 21
M  V30 21 1 20 22
M  V30 22 2 22 23
M  V30 23 1 5 7
M  V30 24 2 8 10
M  V30 25 1 17 20
M  V30 26 1 17 21
M  V30 27 1 18 19
M  V30 28 1 3 24
M  V30 29 1 3 25
M  V30 30 1 4 26
M  V30 31 1 6 27
M  V30 32 1 7 28
M  V30 33 1 7 29
M  V30 34 1 9 30
M  V30 35 1 11 31
M  V30 36 1 12 32
M  V30 37 1 12 33
M  V30 38 1 13 34
M  V30 39 1 14 35
M  V30 40 1 15 36
M  V30 41 1 15 37
M  V30 42 1 16 38
M  V30 43 1 16 39
M  V30 44 1 17 40
M  V30 45 1 18 41
M  V30 46 1 19 42
M  V30 47 1 20 43
M  V30 48 1 21 44
M  V30 49 1 21 45
M  V30 50 1 22 46
M  V30 51 1 23 47
M  V30 52 1 23 48
M  V30 END BOND
M  V30 BEGIN COLLECTION
M  V30 MDLV30/STEABS ATOMS=(6 2 5 6 11 17 20)
M  V30 END COLLECTION
M  V30 END CTAB
M  END
>  <Structure No>
3706

>  <LogS>
-2.6706

>  <MMFF94 Energy>
139.93

$$$$
Compound 3707
Actelion Java MolfileCreator 2.0

  0  0  0  0  0  0              0 V3000
M  V30 BEGIN CTAB
M  V30 COUNTS 57 61 0 0 0
M  V30 BEGIN ATOM
M  V30 1 O 2.9863 0.5644 3.3096 0
M  V30 2 C 2.7253 0.9207 2.1303 0
M  V30 3 N 1.8384 0.1248 1.3323 0
M  V30 4 C 3.2472 2.2286 1.6259 0
M  V30 5 C 2.0923 -0.3806 0.0249 0
M  V30 6 C 0.4005 0.0211 1.601 0 CFG=2
M  V30 7 C 3.3202 -0.3975 -0.661 0
M  V30 8 C 0.9669 -0.9727 -0.5022 0
M  V30 9 C -0.1303 -1.0115 0.5354 0 CFG=2
M  V30 10 C -0.2117 1.4264 1.4706 0
M  V30 11 O 4.4661 0.1443 -0.0617 0
M  V30 12 C 3.3526 -0.9935 -1.9417 0
M  V30 13 C 1.0095 -1.6173 -1.7446 0
M  V30 14 C -1.5665 -0.7756 -0.0244 0 CFG=1
M  V30 15 C -0.2088 -2.4418 1.1359 0
M  V30 16 C -1.7245 1.3784 1.3256 0
M  V30 17 C 5.752 0.1855 -0.6707 0
M  V30 18 C 2.203 -1.5977 -2.4756 0
M  V30 19 N -2.4415 -1.7165 0.6896 0 CHG=1 CFG=2
M  V30 20 C -2.1625 0.6765 0.0147 0 CFG=2
M  V30 21 C -1.6322 -2.9218 0.8798 0
M  V30 22 C -3.7038 -1.9653 -0.0454 0
M  V30 23 C -3.734 0.5885 0.0079 0
M  V30 24 C -1.6731 1.442 -1.2651 0
M  V30 25 C -4.2605 -0.6751 -0.6917 0
M  V30 26 C -1.9056 2.9596 -1.272 0
M  V30 27 H 2.9872 2.3691 0.5558 0
M  V30 28 H 2.7937 3.0558 2.2106 0
M  V30 29 H 4.3507 2.2635 1.7413 0
M  V30 30 H 0.2336 -0.328 2.6436 0
M  V30 31 H 0.0357 2.0106 2.3839 0
M  V30 32 H 0.2415 1.9707 0.6161 0
M  V30 33 H 4.2655 -1.0215 -2.5203 0
M  V30 34 H 0.1518 -2.1502 -2.1317 0
M  V30 35 H -1.5563 -1.0914 -1.0939 0
M  V30 36 H 0.5153 -3.151 0.6755 0
M  V30 37 H -0.0213 -2.456 2.2308 0
M  V30 38 H -2.1326 2.4106 1.3705 0
M  V30 39 H -2.1378 0.8475 2.2111 0
M  V30 40 H 6.4656 0.6734 0.0242 0
M  V30 41 H 6.108 -0.8447 -0.8812 0
M  V30 42 H 5.7103 0.7765 -1.61 0
M  V30 43 H 2.2487 -2.0807 -3.4431 0
M  V30 44 H -2.6711 -1.3393 1.641 0
M  V30 45 H -2.0117 -3.5257 1.7345 0
M  V30 46 H -1.6331 -3.5575 -0.0353 0
M  V30 47 H -3.5634 -2.7212 -0.8504 0
M  V30 48 H -4.4609 -2.3748 0.6602 0
M  V30 49 H -4.1342 0.5733 1.0463 0
M  V30 50 H -4.194 1.4739 -0.4743 0
M  V30 51 H -0.587 1.2692 -1.4228 0
M  V30 52 H -2.1796 1.0167 -2.1588 0
M  V30 53 H -5.3714 -0.6877 -0.6521 0
M  V30 54 H -3.9683 -0.6414 -1.7638 0
M  V30 55 H -1.6454 3.3619 -2.2738 0
M  V30 56 H -1.2533 3.4654 -0.5312 0
M  V30 57 H -2.9621 3.2189 -1.0646 0
M  V30 END ATOM
M  V30 BEGIN BOND
M  V30 1 2 1 2
M  V30 2 1 2 3
M  V30 3 1 2 4
M  V30 4 1 3 5
M  V30 5 1 3 6
M  V30 6 2 5 7
M  V30 7 1 5 8
M  V30 8 1 6 9
M  V30 9 1 6 10
M  V30 10 1 7 11
M  V30 11 1 7 12
M  V30 12 2 8 13
M  V30 13 1 9 14
M  V30 14 1 9 15
M  V30 15 1 10 16
M  V30 16 1 11 17
M  V30 17 2 12 18
M  V30 18 1 14 19
M  V30 19 1 14 20
M  V30 20 1 15 21
M  V30 21 1 19 22
M  V30 22 1 20 23
M  V30 23 1 20 24
M  V30 24 1 22 25
M  V30 25 1 24 26
M  V30 26 1 8 9
M  V30 27 1 13 18
M  V30 28 1 16 20
M  V30 29 1 19 21
M  V30 30 1 23 25
M  V30 31 1 4 27
M  V30 32 1 4 28
M  V30 33 1 4 29
M  V30 34 1 6 30
M  V30 35 1 10 31
M  V30 36 1 10 32
M  V30 37 1 12 33
M  V30 38 1 13 34
M  V30 39 1 14 35
M  V30 40 1 15 36
M  V30 41 1 15 37
M  V30 42 1 16 38
M  V30 43 1 16 39
M  V30 44 1 17 40
M  V30 45 1 17 41
M  V30 46 1 17 42
M  V30 47 1 18 43
M  V30 48 1 19 44
M  V30 49 1 21 45
M  V30 50 1 21 46
M  V30 51 1 22 47
M  V30 52 1 22 48
M  V30 53 1 23 49
M  V30 54 1 23 50
M  V30 55 1 24 51
M  V30 56 1 24 52
M  V30 57 1 25 53
M  V30 58 1 25 54
M  V30 59 1 26 55
M  V30 60 1 26 56
M  V30 61 1 26 57
M  V30 END BOND
M  V30 BEGIN COLLECTION
M  V30 MDLV30/STEABS ATOMS=(5 6 9 14 19 20)
M  V30 END COLLECTION
M  V30 END CTAB
M  END
>  <Structure No>
3707

>  <LogS>
-1.3269

>  <MMFF94 Energy>
99.2

$$$$
Compound 3708
Actelion Java MolfileCreator 2.0

  0  0  0  0  0  0              0 V3000
M  V30 BEGIN CTAB
M  V30 COUNTS 26 28 0 0 0
M  V30 BEGIN ATOM
M  V30 1 O 1.0588 -3.5056 -0.8144 0
M  V30 2 C 0.7423 -2.2993 -0.9925 0
M  V30 3 O 0.6457 -1.8042 -2.2881 0 CHG=-1
M  V30 4 C 0.4525 -1.4041 0.1818 0
M  V30 5 O 0.6904 -2.072 1.3986 0
M  V30 6 C -0.957 -0.865 0.1146 0
M  V30 7 C 1.2441 -0.1199 0.095 0
M  V30 8 C -0.9631 0.5144 0.0013 0
M  V30 9 C -2.1561 -1.581 0.1656 0
M  V30 10 C 0.4093 0.979 -0.0107 0
M  V30 11 C 2.632 0.0396 0.1228 0
M  V30 12 C -2.1531 1.2392 -0.0711 0
M  V30 13 C -3.3669 -0.8722 0.0926 0
M  V30 14 C 0.9131 2.2772 -0.0986 0
M  V30 15 C 3.1621 1.3376 0.034 0
M  V30 16 C -3.3653 0.5318 -0.0258 0
M  V30 17 C 2.3063 2.4516 -0.0767 0
M  V30 18 H 0.4829 -1.4433 2.14 0
M  V30 19 H -2.153 -2.6592 0.2589 0
M  V30 20 H 3.2857 -0.8184 0.21 0
M  V30 21 H -2.147 2.3178 -0.1582 0
M  V30 22 H -4.3066 -1.4079 0.1287 0
M  V30 23 H 0.2519 3.1299 -0.1798 0
M  V30 24 H 4.2344 1.4827 0.052 0
M  V30 25 H -4.3037 1.0685 -0.0803 0
M  V30 26 H 2.7248 3.4474 -0.1434 0
M  V30 END ATOM
M  V30 BEGIN BOND
M  V30 1 2 1 2
M  V30 2 1 2 3
M  V30 3 1 2 4
M  V30 4 1 4 5
M  V30 5 1 4 6
M  V30 6 1 4 7
M  V30 7 2 6 8
M  V30 8 1 6 9
M  V30 9 2 7 10
M  V30 10 1 7 11
M  V30 11 1 8 12
M  V30 12 2 9 13
M  V30 13 1 10 14
M  V30 14 2 11 15
M  V30 15 2 12 16
M  V30 16 2 14 17
M  V30 17 1 8 10
M  V30 18 1 13 16
M  V30 19 1 15 17
M  V30 20 1 5 18
M  V30 21 1 9 19
M  V30 22 1 11 20
M  V30 23 1 12 21
M  V30 24 1 13 22
M  V30 25 1 14 23
M  V30 26 1 15 24
M  V30 27 1 16 25
M  V30 28 1 17 26
M  V30 END BOND
M  V30 END CTAB
M  END
>  <Structure No>
3708

>  <LogS>
-1.9657

>  <MMFF94 Energy>
154.42

$$$$
Compound 3709
Actelion Java MolfileCreator 2.0

  0  0  0  0  0  0              0 V3000
M  V30 BEGIN CTAB
M  V30 COUNTS 55 56 0 0 0
M  V30 BEGIN ATOM
M  V30 1 O -0.7102 2.7641 0.1577 0
M  V30 2 C 0.105 2.2839 0.9913 0
M  V30 3 O 0.3906 0.9099 1.0181 0
M  V30 4 C 0.8161 3.1899 1.943 0
M  V30 5 C -0.1269 -0.0718 0.1025 0 CFG=2
M  V30 6 C 2.2709 3.365 1.5227 0
M  V30 7 C 0.234 0.3944 -1.3334 0
M  V30 8 C -1.6922 -0.2454 0.361 0 CFG=1
M  V30 9 C 0.6037 -1.4225 0.4081 0
M  V30 10 C -0.6776 0.3878 -2.4162 0
M  V30 11 C 1.5285 0.9108 -1.5797 0
M  V30 12 C -2.2762 -1.5808 -0.2427 0
M  V30 13 C -2.0421 -0.1684 1.8677 0
M  V30 14 C 2.104 -1.3151 0.5638 0
M  V30 15 C -0.2892 0.8183 -3.6884 0
M  V30 16 C 1.9102 1.339 -2.8527 0
M  V30 17 N -3.7584 -1.6754 -0.4156 0 CHG=1
M  V30 18 C 2.959 -1.7182 -0.4775 0
M  V30 19 C 2.662 -0.8179 1.7549 0
M  V30 20 C 1.0047 1.2845 -3.9089 0
M  V30 21 C -4.4288 -2.321 0.729 0
M  V30 22 C -4.4313 -0.414 -0.7731 0
M  V30 23 C 4.3451 -1.6016 -0.3369 0
M  V30 24 C 4.0484 -0.7025 1.8903 0
M  V30 25 C 4.8892 -1.0917 0.8446 0
M  V30 26 H 0.7769 2.7499 2.9623 0
M  V30 27 H 0.3169 4.1828 1.9719 0
M  V30 28 H 2.783 4.0484 2.2321 0
M  V30 29 H 2.3274 3.8016 0.5024 0
M  V30 30 H 2.7963 2.3858 1.5313 0
M  V30 31 H -2.178 0.6314 -0.1092 0
M  V30 32 H 0.3783 -2.1619 -0.3904 0
M  V30 33 H 0.211 -1.8554 1.3526 0
M  V30 34 H -1.7022 0.0876 -2.3044 0
M  V30 35 H 2.2494 1.0027 -0.779 0
M  V30 36 H -1.8022 -1.7774 -1.2255 0
M  V30 37 H -1.9212 -2.4354 0.3747 0
M  V30 38 H -3.1204 0.0347 2.0029 0
M  V30 39 H -1.5361 0.668 2.3858 0
M  V30 40 H -1.7803 -1.1102 2.3934 0
M  V30 41 H -1.0006 0.8011 -4.5043 0
M  V30 42 H 2.9091 1.7224 -3.0168 0
M  V30 43 H -3.9166 -2.3215 -1.2265 0
M  V30 44 H 2.5523 -2.1068 -1.4027 0
M  V30 45 H 2.0233 -0.516 2.5758 0
M  V30 46 H 1.3001 1.6199 -4.8947 0
M  V30 47 H -5.4983 -2.5139 0.4903 0
M  V30 48 H -3.9646 -3.3063 0.9531 0
M  V30 49 H -4.3942 -1.695 1.6398 0
M  V30 50 H -3.9299 0.0674 -1.6381 0
M  V30 51 H -5.4823 -0.6134 -1.0784 0
M  V30 52 H -4.4602 0.291 0.0839 0
M  V30 53 H 4.9974 -1.9042 -1.1457 0
M  V30 54 H 4.4711 -0.3114 2.8068 0
M  V30 55 H 5.9623 -1.0007 0.9509 0
M  V30 END ATOM
M  V30 BEGIN BOND
M  V30 1 2 1 2
M  V30 2 1 2 3
M  V30 3 1 2 4
M  V30 4 1 3 5
M  V30 5 1 4 6
M  V30 6 1 5 7
M  V30 7 1 5 8
M  V30 8 1 5 9
M  V30 9 2 7 10
M  V30 10 1 7 11
M  V30 11 1 8 12
M  V30 12 1 8 13
M  V30 13 1 9 14
M  V30 14 1 10 15
M  V30 15 2 11 16
M  V30 16 1 12 17
M  V30 17 2 14 18
M  V30 18 1 14 19
M  V30 19 2 15 20
M  V30 20 1 17 21
M  V30 21 1 17 22
M  V30 22 1 18 23
M  V30 23 2 19 24
M  V30 24 2 23 25
M  V30 25 1 16 20
M  V30 26 1 24 25
M  V30 27 1 4 26
M  V30 28 1 4 27
M  V30 29 1 6 28
M  V30 30 1 6 29
M  V30 31 1 6 30
M  V30 32 1 8 31
M  V30 33 1 9 32
M  V30 34 1 9 33
M  V30 35 1 10 34
M  V30 36 1 11 35
M  V30 37 1 12 36
M  V30 38 1 12 37
M  V30 39 1 13 38
M  V30 40 1 13 39
M  V30 41 1 13 40
M  V30 42 1 15 41
M  V30 43 1 16 42
M  V30 44 1 17 43
M  V30 45 1 18 44
M  V30 46 1 19 45
M  V30 47 1 20 46
M  V30 48 1 21 47
M  V30 49 1 21 48
M  V30 50 1 21 49
M  V30 51 1 22 50
M  V30 52 1 22 51
M  V30 53 1 22 52
M  V30 54 1 23 53
M  V30 55 1 24 54
M  V30 56 1 25 55
M  V30 END BOND
M  V30 BEGIN COLLECTION
M  V30 MDLV30/STEABS ATOMS=(2 5 8)
M  V30 END COLLECTION
M  V30 END CTAB
M  END
>  <Structure No>
3709

>  <LogS>
-5.0097

>  <MMFF94 Energy>
59.115

$$$$
Compound 3710
Actelion Java MolfileCreator 2.0

  0  0  0  0  0  0              0 V3000
M  V30 BEGIN CTAB
M  V30 COUNTS 17 16 0 0 0
M  V30 BEGIN ATOM
M  V30 1 Cl -3.5435 0.1726 0.7771 0
M  V30 2 C -2.4393 0.768 -0.4913 0
M  V30 3 C -0.986 0.7619 -0.0157 0
M  V30 4 S -0.2846 -0.8859 -0.0151 0
M  V30 5 O -1.1735 -1.8163 0.7607 0
M  V30 6 O -0.1769 -1.3813 -1.4301 0
M  V30 7 C 1.3365 -0.9002 0.7455 0
M  V30 8 C 2.3592 -0.0669 -0.0306 0
M  V30 9 Cl 2.2461 1.6631 0.3885 0
M  V30 10 H -2.5547 0.1506 -1.4071 0
M  V30 11 H -2.7358 1.8095 -0.7369 0
M  V30 12 H -0.9146 1.1981 1.0032 0
M  V30 13 H -0.3898 1.3922 -0.7075 0
M  V30 14 H 1.2587 -0.5391 1.793 0
M  V30 15 H 1.6856 -1.9541 0.7757 0
M  V30 16 H 2.2313 -0.1967 -1.1256 0
M  V30 17 H 3.3811 -0.4084 0.2377 0
M  V30 END ATOM
M  V30 BEGIN BOND
M  V30 1 1 1 2
M  V30 2 1 2 3
M  V30 3 1 3 4
M  V30 4 2 4 5
M  V30 5 2 4 6
M  V30 6 1 4 7
M  V30 7 1 7 8
M  V30 8 1 8 9
M  V30 9 1 2 10
M  V30 10 1 2 11
M  V30 11 1 3 12
M  V30 12 1 3 13
M  V30 13 1 7 14
M  V30 14 1 7 15
M  V30 15 1 8 16
M  V30 16 1 8 17
M  V30 END BOND
M  V30 END CTAB
M  END
>  <Structure No>
3710

>  <LogS>
-1.5031

>  <MMFF94 Energy>
-35.823

$$$$
Compound 3711
Actelion Java MolfileCreator 2.0

  0  0  0  0  0  0              0 V3000
M  V30 BEGIN CTAB
M  V30 COUNTS 13 12 0 0 0
M  V30 BEGIN ATOM
M  V30 1 N -0.9605 1.1823 0.0738 0 CHG=1
M  V30 2 C -0.6928 -0.0856 -0.0378 0
M  V30 3 N 0.6598 -0.5731 0.015 0
M  V30 4 N -1.7613 -1.0198 -0.2171 0
M  V30 5 C 1.8255 0.2859 0.194 0
M  V30 6 H -1.9474 1.5224 0.0336 0
M  V30 7 H -0.215 1.8998 0.2058 0
M  V30 8 H 0.8215 -1.6011 -0.0797 0
M  V30 9 H -1.5618 -2.0404 -0.3082 0
M  V30 10 H -2.7545 -0.6996 -0.2597 0
M  V30 11 H 1.753 0.8254 1.1618 0
M  V30 12 H 2.7495 -0.3299 0.2006 0
M  V30 13 H 1.8913 1.0135 -0.642 0
M  V30 END ATOM
M  V30 BEGIN BOND
M  V30 1 2 1 2
M  V30 2 1 2 3
M  V30 3 1 2 4
M  V30 4 1 3 5
M  V30 5 1 1 6
M  V30 6 1 1 7
M  V30 7 1 3 8
M  V30 8 1 4 9
M  V30 9 1 4 10
M  V30 10 1 5 11
M  V30 11 1 5 12
M  V30 12 1 5 13
M  V30 END BOND
M  V30 END CTAB
M  END
>  <Structure No>
3711

>  <LogS>
-1.6135

>  <MMFF94 Energy>
-182.46

$$$$
Compound 3712
Actelion Java MolfileCreator 2.0

  0  0  0  0  0  0              0 V3000
M  V30 BEGIN CTAB
M  V30 COUNTS 25 26 0 0 0
M  V30 BEGIN ATOM
M  V30 1 S 0.5024 0.4186 -1.843 0
M  V30 2 O 0.6113 -0.5721 -2.9677 0
M  V30 3 O 0.3668 1.7936 -2.4359 0
M  V30 4 C -0.9009 0.0453 -0.85 0
M  V30 5 C 1.9443 0.3477 -0.8508 0
M  V30 6 C -1.6347 1.0752 -0.2463 0
M  V30 7 C -1.271 -1.2881 -0.6317 0
M  V30 8 S 2.5648 1.6307 0.0436 0
M  V30 9 C 2.7257 -0.7801 -0.635 0
M  V30 10 C -2.738 0.7742 0.5578 0
M  V30 11 C -2.374 -1.5893 0.1729 0
M  V30 12 C 3.8162 0.687 0.6581 0
M  V30 13 N 3.7744 -0.5862 0.2074 0
M  V30 14 C -3.1137 -0.5595 0.7707 0
M  V30 15 N 4.8133 1.1627 1.5582 0
M  V30 16 N -4.2408 -0.867 1.5949 0
M  V30 17 H -1.3515 2.1093 -0.3938 0
M  V30 18 H -0.704 -2.0935 -1.0805 0
M  V30 19 H 2.5233 -1.7396 -1.0902 0
M  V30 20 H -3.2977 1.5791 1.0169 0
M  V30 21 H -2.6507 -2.6237 0.3323 0
M  V30 22 H 4.7994 2.1531 1.8856 0
M  V30 23 H 5.5644 0.5226 1.8976 0
M  V30 24 H -4.8006 -0.1057 2.0398 0
M  V30 25 H -4.5222 -1.8577 1.7695 0
M  V30 END ATOM
M  V30 BEGIN BOND
M  V30 1 2 1 2
M  V30 2 2 1 3
M  V30 3 1 1 4
M  V30 4 1 1 5
M  V30 5 2 4 6
M  V30 6 1 4 7
M  V30 7 1 5 8
M  V30 8 2 5 9
M  V30 9 1 6 10
M  V30 10 2 7 11
M  V30 11 1 8 12
M  V30 12 1 9 13
M  V30 13 2 10 14
M  V30 14 1 12 15
M  V30 15 1 14 16
M  V30 16 1 11 14
M  V30 17 2 12 13
M  V30 18 1 6 17
M  V30 19 1 7 18
M  V30 20 1 9 19
M  V30 21 1 10 20
M  V30 22 1 11 21
M  V30 23 1 15 22
M  V30 24 1 15 23
M  V30 25 1 16 24
M  V30 26 1 16 25
M  V30 END BOND
M  V30 END CTAB
M  END
>  <Structure No>
3712

>  <LogS>
-2.805

>  <MMFF94 Energy>
-2.9842

$$$$
Compound 3713
Actelion Java MolfileCreator 2.0

  0  0  0  0  0  0              0 V3000
M  V30 BEGIN CTAB
M  V30 COUNTS 28 28 0 0 0
M  V30 BEGIN ATOM
M  V30 1 O -2.3233 2.5638 1.6819 0
M  V30 2 C -2.7182 1.4854 1.1659 0
M  V30 3 O -4.0184 1.3876 0.6869 0 CHG=-1
M  V30 4 C -1.779 0.3286 1.0237 0
M  V30 5 C -1.1364 0.3229 -0.379 0 CFG=2
M  V30 6 C -0.1159 -0.8031 -0.693 0
M  V30 7 C -0.0326 1.3729 -0.55 0
M  V30 8 C 0.9827 0.2726 -0.8951 0 CFG=1
M  V30 9 C -0.4535 -1.5359 -2.0053 0
M  V30 10 C 0.1372 -1.8231 0.4438 0
M  V30 11 C 2.211 0.1523 -0.0063 0
M  V30 12 O 3.0202 -0.7288 -0.2538 0
M  V30 13 C 2.4876 1.079 1.1433 0
M  V30 14 H -1.0083 0.3864 1.8221 0
M  V30 15 H -2.3568 -0.609 1.1655 0
M  V30 16 H -1.9128 0.425 -1.1722 0
M  V30 17 H -0.2313 2.04 -1.4172 0
M  V30 18 H 0.1724 1.9486 0.3748 0
M  V30 19 H 1.3001 0.369 -1.9583 0
M  V30 20 H -1.3634 -2.1587 -1.8701 0
M  V30 21 H 0.3905 -2.1942 -2.3022 0
M  V30 22 H -0.6422 -0.8174 -2.8325 0
M  V30 23 H 0.9478 -2.5238 0.1517 0
M  V30 24 H 0.4396 -1.3293 1.3899 0
M  V30 25 H -0.7799 -2.4197 0.633 0
M  V30 26 H 3.4583 0.8282 1.6219 0
M  V30 27 H 1.6888 0.9814 1.9079 0
M  V30 28 H 2.5384 2.1267 0.7801 0
M  V30 END ATOM
M  V30 BEGIN BOND
M  V30 1 2 1 2
M  V30 2 1 2 3
M  V30 3 1 2 4
M  V30 4 1 4 5
M  V30 5 1 5 6
M  V30 6 1 5 7
M  V30 7 1 6 8
M  V30 8 1 6 9
M  V30 9 1 6 10
M  V30 10 1 8 11
M  V30 11 2 11 12
M  V30 12 1 11 13
M  V30 13 1 7 8
M  V30 14 1 4 14
M  V30 15 1 4 15
M  V30 16 1 5 16
M  V30 17 1 7 17
M  V30 18 1 7 18
M  V30 19 1 8 19
M  V30 20 1 9 20
M  V30 21 1 9 21
M  V30 22 1 9 22
M  V30 23 1 10 23
M  V30 24 1 10 24
M  V30 25 1 10 25
M  V30 26 1 13 26
M  V30 27 1 13 27
M  V30 28 1 13 28
M  V30 END BOND
M  V30 BEGIN COLLECTION
M  V30 MDLV30/STEABS ATOMS=(2 5 8)
M  V30 END COLLECTION
M  V30 END CTAB
M  END
>  <Structure No>
3713

>  <LogS>
-0.5752

>  <MMFF94 Energy>
19.437

$$$$
Compound 3714
Actelion Java MolfileCreator 2.0

  0  0  0  0  0  0              0 V3000
M  V30 BEGIN CTAB
M  V30 COUNTS 67 70 0 0 0
M  V30 BEGIN ATOM
M  V30 1 O 7.0457 2.6681 0.4039 0
M  V30 2 C 5.8525 2.2951 0.5446 0
M  V30 3 O 4.8334 3.2402 0.5282 0 CHG=-1
M  V30 4 C 5.5445 0.8533 0.8165 0
M  V30 5 C 4.4026 0.3469 -0.079 0
M  V30 6 C 4.0278 -1.131 0.2172 0 CFG=1
M  V30 7 C 2.5906 -1.5453 -0.2823 0 CFG=1
M  V30 8 C 5.096 -2.0865 -0.3557 0
M  V30 9 C 1.3415 -0.9376 0.4574 0 CFG=1
M  V30 10 C 2.3668 -1.217 -1.7595 0
M  V30 11 C 0.8682 0.2565 -0.4447 0 CFG=1
M  V30 12 C 0.2254 -2.0222 0.5165 0
M  V30 13 C 1.6811 -0.5121 1.9159 0
M  V30 14 C 1.5835 0.0825 -1.8039 0
M  V30 15 C -0.6891 0.3727 -0.6355 0 CFG=2
M  V30 16 C -1.169 -1.508 0.9452 0
M  V30 17 C -1.1102 1.7731 -1.1137 0 CFG=1
M  V30 18 C -1.421 0.0046 0.6829 0 CFG=2
M  V30 19 O -0.346 2.1728 -2.223 0
M  V30 20 C -2.5958 1.7729 -1.5078 0
M  V30 21 C -2.9446 0.5113 0.7994 0 CFG=1
M  V30 22 C -3.533 0.9197 -0.6046 0 CFG=2
M  V30 23 C -3.9084 -0.5313 1.5154 0
M  V30 24 C -2.988 1.7871 1.6964 0
M  V30 25 C -4.0986 -0.3167 -1.3353 0
M  V30 26 C -5.326 -0.5427 0.9327 0
M  V30 27 C -5.2957 -0.936 -0.5627 0 CFG=1
M  V30 28 O -6.5163 -0.6027 -1.1746 0
M  V30 29 H 6.4607 0.251 0.6396 0
M  V30 30 H 5.2601 0.75 1.8858 0
M  V30 31 H 4.6932 0.4632 -1.1461 0
M  V30 32 H 3.5272 0.9993 0.095 0
M  V30 33 H 4.0698 -1.2915 1.3136 0
M  V30 34 H 2.5498 -2.6535 -0.1745 0
M  V30 35 H 5.2472 -1.9247 -1.4428 0
M  V30 36 H 4.8031 -3.145 -0.191 0
M  V30 37 H 6.0684 -1.9402 0.1562 0
M  V30 38 H 3.3031 -1.1322 -2.3477 0
M  V30 39 H 1.756 -2.0223 -2.2241 0
M  V30 40 H 1.2219 1.2075 0.0125 0
M  V30 41 H 0.118 -2.4802 -0.4922 0
M  V30 42 H 0.5299 -2.8489 1.1959 0
M  V30 43 H 2.3778 0.3478 1.9462 0
M  V30 44 H 2.1355 -1.3642 2.4637 0
M  V30 45 H 0.794 -0.2287 2.5071 0
M  V30 46 H 0.8862 0.0452 -2.6684 0
M  V30 47 H 2.276 0.9348 -1.9773 0
M  V30 48 H -1.0039 -0.3581 -1.4157 0
M  V30 49 H -1.891 -2.1125 0.3565 0
M  V30 50 H -1.3161 -1.7194 2.027 0
M  V30 51 H -0.9252 2.4964 -0.2905 0
M  V30 52 H -0.8769 0.5451 1.4787 0
M  V30 53 H -0.5208 3.14 -2.3608 0
M  V30 54 H -2.9427 2.8301 -1.495 0
M  V30 55 H -2.683 1.4412 -2.5658 0
M  V30 56 H -4.4169 1.5772 -0.4353 0
M  V30 57 H -3.5828 -1.5798 1.4597 0
M  V30 58 H -3.9772 -0.3321 2.6077 0
M  V30 59 H -4.0351 2.1225 1.8575 0
M  V30 60 H -2.5484 1.5825 2.6964 0
M  V30 61 H -2.4413 2.6396 1.2552 0
M  V30 62 H -3.2962 -1.0765 -1.4456 0
M  V30 63 H -4.4284 -0.0449 -2.3623 0
M  V30 64 H -5.9519 -1.2726 1.4912 0
M  V30 65 H -5.7905 0.4569 1.072 0
M  V30 66 H -5.1913 -2.0418 -0.6188 0
M  V30 67 H -6.5883 0.3876 -1.1784 0
M  V30 END ATOM
M  V30 BEGIN BOND
M  V30 1 2 1 2
M  V30 2 1 2 3
M  V30 3 1 2 4
M  V30 4 1 4 5
M  V30 5 1 5 6
M  V30 6 1 6 7
M  V30 7 1 6 8
M  V30 8 1 7 9
M  V30 9 1 7 10
M  V30 10 1 9 11
M  V30 11 1 9 12
M  V30 12 1 9 13
M  V30 13 1 10 14
M  V30 14 1 11 15
M  V30 15 1 12 16
M  V30 16 1 15 17
M  V30 17 1 15 18
M  V30 18 1 17 19
M  V30 19 1 17 20
M  V30 20 1 18 21
M  V30 21 1 20 22
M  V30 22 1 21 23
M  V30 23 1 21 24
M  V30 24 1 22 25
M  V30 25 1 23 26
M  V30 26 1 25 27
M  V30 27 1 27 28
M  V30 28 1 11 14
M  V30 29 1 16 18
M  V30 30 1 21 22
M  V30 31 1 26 27
M  V30 32 1 4 29
M  V30 33 1 4 30
M  V30 34 1 5 31
M  V30 35 1 5 32
M  V30 36 1 6 33
M  V30 37 1 7 34
M  V30 38 1 8 35
M  V30 39 1 8 36
M  V30 40 1 8 37
M  V30 41 1 10 38
M  V30 42 1 10 39
M  V30 43 1 11 40
M  V30 44 1 12 41
M  V30 45 1 12 42
M  V30 46 1 13 43
M  V30 47 1 13 44
M  V30 48 1 13 45
M  V30 49 1 14 46
M  V30 50 1 14 47
M  V30 51 1 15 48
M  V30 52 1 16 49
M  V30 53 1 16 50
M  V30 54 1 17 51
M  V30 55 1 18 52
M  V30 56 1 19 53
M  V30 57 1 20 54
M  V30 58 1 20 55
M  V30 59 1 22 56
M  V30 60 1 23 57
M  V30 61 1 23 58
M  V30 62 1 24 59
M  V30 63 1 24 60
M  V30 64 1 24 61
M  V30 65 1 25 62
M  V30 66 1 25 63
M  V30 67 1 26 64
M  V30 68 1 26 65
M  V30 69 1 27 66
M  V30 70 1 28 67
M  V30 END BOND
M  V30 BEGIN COLLECTION
M  V30 MDLV30/STEABS ATOMS=(10 6 7 9 11 15 17 18 21 22 27)
M  V30 END COLLECTION
M  V30 END CTAB
M  END
>  <Structure No>
3714

>  <LogS>
-3.6402

>  <MMFF94 Energy>
97.163

$$$$
Compound 3715
Actelion Java MolfileCreator 2.0

  0  0  0  0  0  0              0 V3000
M  V30 BEGIN CTAB
M  V30 COUNTS 40 43 0 0 0
M  V30 BEGIN ATOM
M  V30 1 O -3.3269 -1.7029 1.3784 0
M  V30 2 C -2.8974 -0.6332 0.973 0
M  V30 3 C -2.5121 -0.3884 -0.4521 0 CFG=1
M  V30 4 C -2.7404 0.5499 1.8546 0
M  V30 5 C -1.8196 1.0054 -0.3985 0 CFG=1
M  V30 6 C -1.5775 -1.5007 -1.0094 0
M  V30 7 C -3.7949 -0.3234 -1.3049 0
M  V30 8 C -2.2857 1.6664 0.9151 0
M  V30 9 C -0.3031 0.8786 -0.4226 0
M  V30 10 C -0.2217 -1.6274 -0.276 0
M  V30 11 C 0.4403 1.7371 -1.1456 0
M  V30 12 C 0.3036 -0.298 0.3123 0 CFG=1
M  V30 13 C 1.9101 1.5414 -1.3926 0
M  V30 14 C 1.8154 -0.273 0.3816 0
M  V30 15 C 2.5715 0.6162 -0.4081 0
M  V30 16 C 2.4774 -1.1447 1.2637 0
M  V30 17 C 3.9732 0.6001 -0.3236 0
M  V30 18 C 3.871 -1.1434 1.3497 0
M  V30 19 C 4.6223 -0.2745 0.5564 0
M  V30 20 O 6.0123 -0.2885 0.648 0
M  V30 21 H -3.7078 0.8074 2.337 0
M  V30 22 H -1.9747 0.3457 2.6327 0
M  V30 23 H -2.1468 1.6335 -1.2591 0
M  V30 24 H -2.095 -2.485 -0.9848 0
M  V30 25 H -1.3674 -1.2755 -2.0789 0
M  V30 26 H -4.4827 0.4628 -0.9239 0
M  V30 27 H -3.5465 -0.0864 -2.3617 0
M  V30 28 H -4.3299 -1.2973 -1.2817 0
M  V30 29 H -1.4908 2.2859 1.3867 0
M  V30 30 H -3.1517 2.3302 0.6976 0
M  V30 31 H 0.5172 -2.0484 -0.9936 0
M  V30 32 H -0.3262 -2.3651 0.5497 0
M  V30 33 H -0.0462 2.5486 -1.6796 0
M  V30 34 H -0.0524 -0.2288 1.3618 0
M  V30 35 H 2.0435 1.1297 -2.4152 0
M  V30 36 H 2.4028 2.5368 -1.3529 0
M  V30 37 H 1.9111 -1.8273 1.8852 0
M  V30 38 H 4.5604 1.2674 -0.943 0
M  V30 39 H 4.3677 -1.8211 2.0324 0
M  V30 40 H 6.5864 0.3289 0.0858 0
M  V30 END ATOM
M  V30 BEGIN BOND
M  V30 1 2 1 2
M  V30 2 1 2 3
M  V30 3 1 2 4
M  V30 4 1 3 5
M  V30 5 1 3 6
M  V30 6 1 3 7
M  V30 7 1 4 8
M  V30 8 1 5 9
M  V30 9 1 6 10
M  V30 10 2 9 11
M  V30 11 1 9 12
M  V30 12 1 11 13
M  V30 13 1 12 14
M  V30 14 1 13 15
M  V30 15 1 14 16
M  V30 16 1 15 17
M  V30 17 2 16 18
M  V30 18 2 17 19
M  V30 19 1 19 20
M  V30 20 1 5 8
M  V30 21 1 10 12
M  V30 22 2 14 15
M  V30 23 1 18 19
M  V30 24 1 4 21
M  V30 25 1 4 22
M  V30 26 1 5 23
M  V30 27 1 6 24
M  V30 28 1 6 25
M  V30 29 1 7 26
M  V30 30 1 7 27
M  V30 31 1 7 28
M  V30 32 1 8 29
M  V30 33 1 8 30
M  V30 34 1 10 31
M  V30 35 1 10 32
M  V30 36 1 11 33
M  V30 37 1 12 34
M  V30 38 1 13 35
M  V30 39 1 13 36
M  V30 40 1 16 37
M  V30 41 1 17 38
M  V30 42 1 18 39
M  V30 43 1 20 40
M  V30 END BOND
M  V30 BEGIN COLLECTION
M  V30 MDLV30/STEABS ATOMS=(3 3 5 12)
M  V30 END COLLECTION
M  V30 END CTAB
M  END
>  <Structure No>
3715

>  <LogS>
-5.2795

>  <MMFF94 Energy>
50.901

$$$$
Compound 3716
Actelion Java MolfileCreator 2.0

  0  0  0  0  0  0              0 V3000
M  V30 BEGIN CTAB
M  V30 COUNTS 34 37 0 0 0
M  V30 BEGIN ATOM
M  V30 1 O -5.1584 1.7172 -0.4904 0
M  V30 2 C -3.9788 1.2811 -0.4271 0
M  V30 3 C -2.8282 2.2235 -0.3219 0
M  V30 4 C -3.7349 -0.1779 -0.4325 0
M  V30 5 O -3.0407 3.5985 -0.2369 0
M  V30 6 C -1.5714 1.7511 -0.2943 0
M  V30 7 C -2.4745 -0.6151 -0.4104 0
M  V30 8 C -1.3491 0.2925 -0.4001 0
M  V30 9 C -2.0192 -2.0258 -0.309 0
M  V30 10 C -0.2165 -0.4022 -0.3435 0
M  V30 11 C -0.4737 -1.8816 -0.2469 0 CFG=2
M  V30 12 C 1.1442 0.1029 -0.0766 0
M  V30 13 O 0.1373 -2.5267 -1.3367 0
M  V30 14 C 0.1405 -2.3602 1.0873 0
M  V30 15 C 1.982 -0.7165 0.7047 0
M  V30 16 C 1.6552 1.2768 -0.6485 0
M  V30 17 O 1.5123 -1.9522 1.1877 0
M  V30 18 C 3.2986 -0.32 0.9746 0
M  V30 19 C 2.9666 1.6727 -0.3753 0
M  V30 20 O 4.1067 -1.1363 1.7664 0
M  V30 21 C 3.7897 0.8851 0.4419 0
M  V30 22 O 5.0958 1.2883 0.7147 0
M  V30 23 H -4.5625 -0.8763 -0.4279 0
M  V30 24 H -3.973 3.9939 -0.2479 0
M  V30 25 H -0.7508 2.441 -0.1674 0
M  V30 26 H -2.4346 -2.4999 0.6067 0
M  V30 27 H -2.3467 -2.5915 -1.2083 0
M  V30 28 H -0.064 -3.4957 -1.2551 0
M  V30 29 H 0.078 -3.4655 1.1719 0
M  V30 30 H -0.4211 -1.9186 1.94 0
M  V30 31 H 1.0642 1.8644 -1.337 0
M  V30 32 H 3.3494 2.5855 -0.8141 0
M  V30 33 H 5.0652 -0.8941 1.9869 0
M  V30 34 H 5.4746 2.1503 0.3395 0
M  V30 END ATOM
M  V30 BEGIN BOND
M  V30 1 2 1 2
M  V30 2 1 2 3
M  V30 3 1 2 4
M  V30 4 1 3 5
M  V30 5 2 3 6
M  V30 6 2 4 7
M  V30 7 1 6 8
M  V30 8 1 7 9
M  V30 9 2 8 10
M  V30 10 1 9 11
M  V30 11 1 10 12
M  V30 12 1 11 13
M  V30 13 1 11 14
M  V30 14 2 12 15
M  V30 15 1 12 16
M  V30 16 1 14 17
M  V30 17 1 15 18
M  V30 18 2 16 19
M  V30 19 1 18 20
M  V30 20 2 18 21
M  V30 21 1 21 22
M  V30 22 1 7 8
M  V30 23 1 10 11
M  V30 24 1 15 17
M  V30 25 1 19 21
M  V30 26 1 4 23
M  V30 27 1 5 24
M  V30 28 1 6 25
M  V30 29 1 9 26
M  V30 30 1 9 27
M  V30 31 1 13 28
M  V30 32 1 14 29
M  V30 33 1 14 30
M  V30 34 1 16 31
M  V30 35 1 19 32
M  V30 36 1 20 33
M  V30 37 1 22 34
M  V30 END BOND
M  V30 BEGIN COLLECTION
M  V30 MDLV30/STEABS ATOMS=(1 11)
M  V30 END COLLECTION
M  V30 END CTAB
M  END
>  <Structure No>
3716

>  <LogS>
-2.6994

>  <MMFF94 Energy>
108.07

$$$$
Compound 3717
Actelion Java MolfileCreator 2.0

  0  0  0  0  0  0              0 V3000
M  V30 BEGIN CTAB
M  V30 COUNTS 75 78 0 0 0
M  V30 BEGIN ATOM
M  V30 1 O 4.7679 4.7679 0.0 0
M  V30 2 C 5.3651 3.7335 -0.3984 0
M  V30 3 O 5.7017 3.6067 -1.7408 0 CHG=-1
M  V30 4 C 5.6649 2.6229 0.5583 0
M  V30 5 N 4.485 1.7812 0.7557 0
M  V30 6 C 4.5431 0.596 1.5619 0
M  V30 7 O 5.607 0.2922 2.1668 0
M  V30 8 C 3.3279 -0.2729 1.7251 0
M  V30 9 C 3.526 -1.6848 1.1298 0
M  V30 10 C 3.1769 -1.8429 -0.3764 0 CFG=1
M  V30 11 C 1.6805 -1.5422 -0.7898 0 CFG=2
M  V30 12 C 4.1648 -1.0104 -1.2234 0
M  V30 13 C 0.5143 -2.3615 -0.1277 0 CFG=1
M  V30 14 C 1.4871 -1.767 -2.3033 0
M  V30 15 C 0.0822 -1.8178 1.2806 0 CFG=2
M  V30 16 C -0.6484 -2.2581 -1.1755 0 CFG=2
M  V30 17 C 0.9293 -3.86 0.009 0
M  V30 18 C 0.0931 -2.337 -2.5227 0
M  V30 19 O -0.6574 -2.759 2.0265 0
M  V30 20 C -0.6613 -0.477 1.2311 0
M  V30 21 C -1.5286 -0.9518 -1.1084 0 CFG=2
M  V30 22 C -1.916 -0.5478 0.3471 0 CFG=2
M  V30 23 C -2.8724 -1.0982 -1.8989 0 CFG=2
M  V30 24 C -2.8919 0.7281 0.4324 0 CFG=2
M  V30 25 O -2.6721 -1.6013 -3.1935 0
M  V30 26 C -3.6459 0.2415 -1.9932 0
M  V30 27 C -3.1441 1.3091 -1.0018 0 CFG=1
M  V30 28 C -2.3154 1.8964 1.3034 0
M  V30 29 C -4.2266 0.2504 1.082 0
M  V30 30 C -4.0607 2.5503 -1.0098 0
M  V30 31 C -3.1856 3.1692 1.2981 0
M  V30 32 C -3.4706 3.6654 -0.1288 0 CFG=2
M  V30 33 O -4.3246 4.7821 -0.1039 0
M  V30 34 H 5.982 3.0529 1.5338 0
M  V30 35 H 6.4978 2.0074 0.1527 0
M  V30 36 H 3.5825 2.0289 0.2885 0
M  V30 37 H 2.4375 0.2285 1.2994 0
M  V30 38 H 3.135 -0.3753 2.8154 0
M  V30 39 H 2.9551 -2.42 1.7263 0
M  V30 40 H 4.5807 -2.004 1.288 0
M  V30 41 H 3.3927 -2.9049 -0.6223 0
M  V30 42 H 1.4933 -0.463 -0.618 0
M  V30 43 H 4.1879 -1.3659 -2.2733 0
M  V30 44 H 3.8733 0.0595 -1.2285 0
M  V30 45 H 5.2017 -1.1025 -0.8331 0
M  V30 46 H 2.225 -2.4897 -2.7146 0
M  V30 47 H 1.6015 -0.8032 -2.8474 0
M  V30 48 H 0.979 -1.6216 1.8824 0
M  V30 49 H -1.3329 -3.1304 -1.0742 0
M  V30 50 H 1.3965 -4.2442 -0.9222 0
M  V30 51 H 0.0515 -4.5081 0.2201 0
M  V30 52 H 1.6509 -4.0066 0.8358 0
M  V30 53 H -0.3835 -1.7854 -3.3528 0
M  V30 54 H 0.1698 -3.4016 -2.8338 0
M  V30 55 H -1.3706 -3.1345 1.4501 0
M  V30 56 H 0.0168 0.3212 0.8689 0
M  V30 57 H -0.9468 -0.2325 2.2754 0
M  V30 58 H -0.9231 -0.1311 -1.5517 0
M  V30 59 H -2.4886 -1.4149 0.7374 0
M  V30 60 H -3.5066 -1.8266 -1.3375 0
M  V30 61 H -3.5408 -1.97 -3.4987 0
M  V30 62 H -3.5472 0.6575 -3.0201 0
M  V30 63 H -4.7288 0.048 -1.8305 0
M  V30 64 H -2.1674 1.6727 -1.394 0
M  V30 65 H -1.3086 2.1833 0.9302 0
M  V30 66 H -2.2122 1.5792 2.3626 0
M  V30 67 H -4.9866 1.049 1.1714 0
M  V30 68 H -4.6859 -0.5714 0.4948 0
M  V30 69 H -4.0328 -0.1376 2.1063 0
M  V30 70 H -4.1435 2.9373 -2.0494 0
M  V30 71 H -5.0885 2.2895 -0.6785 0
M  V30 72 H -2.6474 3.968 1.854 0
M  V30 73 H -4.1352 2.9906 1.8442 0
M  V30 74 H -2.5063 3.9929 -0.5789 0
M  V30 75 H -5.1882 4.4922 0.2921 0
M  V30 END ATOM
M  V30 BEGIN BOND
M  V30 1 2 1 2
M  V30 2 1 2 3
M  V30 3 1 2 4
M  V30 4 1 4 5
M  V30 5 1 5 6
M  V30 6 2 6 7
M  V30 7 1 6 8
M  V30 8 1 8 9
M  V30 9 1 9 10
M  V30 10 1 10 11
M  V30 11 1 10 12
M  V30 12 1 11 13
M  V30 13 1 11 14
M  V30 14 1 13 15
M  V30 15 1 13 16
M  V30 16 1 13 17
M  V30 17 1 14 18
M  V30 18 1 15 19
M  V30 19 1 15 20
M  V30 20 1 16 21
M  V30 21 1 20 22
M  V30 22 1 21 23
M  V30 23 1 22 24
M  V30 24 1 23 25
M  V30 25 1 23 26
M  V30 26 1 24 27
M  V30 27 1 24 28
M  V30 28 1 24 29
M  V30 29 1 27 30
M  V30 30 1 28 31
M  V30 31 1 30 32
M  V30 32 1 32 33
M  V30 33 1 16 18
M  V30 34 1 21 22
M  V30 35 1 26 27
M  V30 36 1 31 32
M  V30 37 1 4 34
M  V30 38 1 4 35
M  V30 39 1 5 36
M  V30 40 1 8 37
M  V30 41 1 8 38
M  V30 42 1 9 39
M  V30 43 1 9 40
M  V30 44 1 10 41
M  V30 45 1 11 42
M  V30 46 1 12 43
M  V30 47 1 12 44
M  V30 48 1 12 45
M  V30 49 1 14 46
M  V30 50 1 14 47
M  V30 51 1 15 48
M  V30 52 1 16 49
M  V30 53 1 17 50
M  V30 54 1 17 51
M  V30 55 1 17 52
M  V30 56 1 18 53
M  V30 57 1 18 54
M  V30 58 1 19 55
M  V30 59 1 20 56
M  V30 60 1 20 57
M  V30 61 1 21 58
M  V30 62 1 22 59
M  V30 63 1 23 60
M  V30 64 1 25 61
M  V30 65 1 26 62
M  V30 66 1 26 63
M  V30 67 1 27 64
M  V30 68 1 28 65
M  V30 69 1 28 66
M  V30 70 1 29 67
M  V30 71 1 29 68
M  V30 72 1 29 69
M  V30 73 1 30 70
M  V30 74 1 30 71
M  V30 75 1 31 72
M  V30 76 1 31 73
M  V30 77 1 32 74
M  V30 78 1 33 75
M  V30 END BOND
M  V30 BEGIN COLLECTION
M  V30 MDLV30/STEABS ATOMS=(11 10 11 13 15 16 21 22 23 24 27 32)
M  V30 END COLLECTION
M  V30 END CTAB
M  END
>  <Structure No>
3717

>  <LogS>
-5.1495

>  <MMFF94 Energy>
136.68

$$$$
Compound 3718
Actelion Java MolfileCreator 2.0

  0  0  0  0  0  0              0 V3000
M  V30 BEGIN CTAB
M  V30 COUNTS 52 56 0 0 0
M  V30 BEGIN ATOM
M  V30 1 O -1.1387 -3.4192 0.4065 0
M  V30 2 C -0.0752 -3.3482 -0.2632 0
M  V30 3 O 0.5749 -4.4562 -0.7827 0
M  V30 4 C 0.5801 -2.095 -0.702 0 CFG=1
M  V30 5 C 1.7231 -4.0497 -1.5215 0
M  V30 6 C 0.6991 -0.9166 0.2791 0 CFG=1
M  V30 7 C 1.9728 -2.6211 -1.0214 0 CFG=1
M  V30 8 C 1.7091 0.1064 -0.2652 0
M  V30 9 C -0.6688 -0.2947 0.5128 0
M  V30 10 C 2.6792 -1.6267 -1.9479 0 CFG=1
M  V30 11 C 2.6462 -0.2324 -1.3151 0
M  V30 12 C 1.7708 1.393 0.3231 0
M  V30 13 C -1.2981 -0.428 1.7568 0
M  V30 14 C -1.322 0.4047 -0.5108 0
M  V30 15 O 3.9973 -2.0485 -2.1988 0
M  V30 16 C 3.527 0.7576 -1.8063 0
M  V30 17 C 2.6755 2.3132 -0.1885 0
M  V30 18 C -2.5672 0.1346 1.9942 0
M  V30 19 C -2.5871 0.9766 -0.2971 0
M  V30 20 C 3.5096 2.0122 -1.2113 0
M  V30 21 O 2.8855 3.6196 0.2094 0
M  V30 22 O -3.1915 -0.0022 3.2444 0
M  V30 23 C -3.2158 0.8467 0.9518 0
M  V30 24 O -3.2574 1.6868 -1.3068 0
M  V30 25 O 4.2859 3.1146 -1.512 0
M  V30 26 C 3.9155 4.1747 -0.6194 0
M  V30 27 C -2.6445 -0.6969 4.3609 0
M  V30 28 O -4.4823 1.4488 1.087 0
M  V30 29 C -2.7452 1.9074 -2.6172 0
M  V30 30 C -5.3024 1.4486 2.2499 0
M  V30 31 H 0.0724 -1.767 -1.6385 0
M  V30 32 H 1.4874 -4.0532 -2.608 0
M  V30 33 H 2.5838 -4.7183 -1.3079 0
M  V30 34 H 1.1092 -1.2972 1.2417 0
M  V30 35 H 2.5633 -2.7101 -0.0772 0
M  V30 36 H 2.14 -1.5796 -2.9193 0
M  V30 37 H 1.1226 1.6734 1.1435 0
M  V30 38 H -0.7906 -0.9749 2.5391 0
M  V30 39 H -0.833 0.505 -1.4699 0
M  V30 40 H 4.489 -2.0287 -1.3352 0
M  V30 41 H 4.2149 0.5519 -2.6166 0
M  V30 42 H 4.7855 4.4756 8.0E-4 0
M  V30 43 H 3.5206 5.0388 -1.1942 0
M  V30 44 H -2.4836 -1.7652 4.1051 0
M  V30 45 H -3.3595 -0.6397 5.2072 0
M  V30 46 H -1.6878 -0.2269 4.6732 0
M  V30 47 H -2.5762 0.937 -3.13 0
M  V30 48 H -3.4845 2.4926 -3.2011 0
M  V30 49 H -1.797 2.4831 -2.565 0
M  V30 50 H -4.7828 1.9606 3.0868 0
M  V30 51 H -5.5786 0.4091 2.5263 0
M  V30 52 H -6.2357 2.0061 2.0301 0
M  V30 END ATOM
M  V30 BEGIN BOND
M  V30 1 2 1 2
M  V30 2 1 2 3
M  V30 3 1 2 4
M  V30 4 1 3 5
M  V30 5 1 4 6
M  V30 6 1 4 7
M  V30 7 1 6 8
M  V30 8 1 6 9
M  V30 9 1 7 10
M  V30 10 2 8 11
M  V30 11 1 8 12
M  V30 12 2 9 13
M  V30 13 1 9 14
M  V30 14 1 10 15
M  V30 15 1 11 16
M  V30 16 2 12 17
M  V30 17 1 13 18
M  V30 18 2 14 19
M  V30 19 2 16 20
M  V30 20 1 17 21
M  V30 21 1 18 22
M  V30 22 2 18 23
M  V30 23 1 19 24
M  V30 24 1 20 25
M  V30 25 1 21 26
M  V30 26 1 22 27
M  V30 27 1 23 28
M  V30 28 1 24 29
M  V30 29 1 28 30
M  V30 30 1 5 7
M  V30 31 1 10 11
M  V30 32 1 17 20
M  V30 33 1 19 23
M  V30 34 1 25 26
M  V30 35 1 4 31
M  V30 36 1 5 32
M  V30 37 1 5 33
M  V30 38 1 6 34
M  V30 39 1 7 35
M  V30 40 1 10 36
M  V30 41 1 12 37
M  V30 42 1 13 38
M  V30 43 1 14 39
M  V30 44 1 15 40
M  V30 45 1 16 41
M  V30 46 1 26 42
M  V30 47 1 26 43
M  V30 48 1 27 44
M  V30 49 1 27 45
M  V30 50 1 27 46
M  V30 51 1 29 47
M  V30 52 1 29 48
M  V30 53 1 29 49
M  V30 54 1 30 50
M  V30 55 1 30 51
M  V30 56 1 30 52
M  V30 END BOND
M  V30 BEGIN COLLECTION
M  V30 MDLV30/STEABS ATOMS=(4 4 6 7 10)
M  V30 END COLLECTION
M  V30 END CTAB
M  END
>  <Structure No>
3718

>  <LogS>
-3.6174

>  <MMFF94 Energy>
76.002

$$$$
Compound 3719
Actelion Java MolfileCreator 2.0

  0  0  0  0  0  0              0 V3000
M  V30 BEGIN CTAB
M  V30 COUNTS 43 46 0 0 0
M  V30 BEGIN ATOM
M  V30 1 N 0.1594 0.6378 0.0797 0 CHG=1
M  V30 2 C -0.9975 -0.0997 0.2235 0
M  V30 3 C 1.3493 0.0101 -0.2333 0
M  V30 4 C 0.1246 2.0687 0.2574 0
M  V30 5 C -0.9512 -1.4969 0.0476 0
M  V30 6 C -2.2398 0.4944 0.5432 0
M  V30 7 C 1.3745 -1.3958 -0.406 0
M  V30 8 C 2.5535 0.7281 -0.3888 0
M  V30 9 C -0.1298 2.9083 -0.8371 0
M  V30 10 C 0.3433 2.6264 1.5259 0
M  V30 11 N 0.2222 -2.0958 -0.2587 0
M  V30 12 C -2.1041 -2.2735 0.1858 0
M  V30 13 C -3.4017 -0.2803 0.6835 0
M  V30 14 C 2.5794 -2.0668 -0.7273 0
M  V30 15 C 3.7395 0.0711 -0.7046 0
M  V30 16 C -0.1648 4.2953 -0.6628 0
M  V30 17 C 0.3076 4.0138 1.6967 0
M  V30 18 C -3.3348 -1.6799 0.5032 0
M  V30 19 N -4.6368 0.3741 1.009 0
M  V30 20 C 3.77 -1.3164 -0.8761 0
M  V30 21 C 2.6043 -3.5675 -0.9113 0
M  V30 22 C 0.0537 4.8478 0.6032 0
M  V30 23 C -4.5567 -2.5477 0.6444 0
M  V30 24 N 5.0205 -1.9421 -1.2012 0
M  V30 25 H -2.3218 1.5635 0.6872 0
M  V30 26 H 2.5932 1.8023 -0.2685 0
M  V30 27 H -0.3 2.4847 -1.8187 0
M  V30 28 H 0.5397 1.9845 2.3752 0
M  V30 29 H -2.0372 -3.3461 0.0446 0
M  V30 30 H 4.6468 0.6518 -0.817 0
M  V30 31 H -0.3615 4.9417 -1.5083 0
M  V30 32 H 0.4765 4.4426 2.6761 0
M  V30 33 H -5.5313 -0.1496 1.1258 0
M  V30 34 H -4.67 1.41 1.1392 0
M  V30 35 H 1.6115 -4.0402 -0.7689 0
M  V30 36 H 3.298 -4.0227 -0.1736 0
M  V30 37 H 2.9446 -3.8121 -1.9394 0
M  V30 38 H 0.0262 5.9215 0.7367 0
M  V30 39 H -4.97 -2.4507 1.6704 0
M  V30 40 H -4.3229 -3.6194 0.4696 0
M  V30 41 H -5.3241 -2.2398 -0.0966 0
M  V30 42 H 5.1133 -2.9711 -1.3424 0
M  V30 43 H 5.8871 -1.3684 -1.3062 0
M  V30 END ATOM
M  V30 BEGIN BOND
M  V30 1 1 1 2
M  V30 2 2 1 3
M  V30 3 1 1 4
M  V30 4 1 2 5
M  V30 5 2 2 6
M  V30 6 1 3 7
M  V30 7 1 3 8
M  V30 8 2 4 9
M  V30 9 1 4 10
M  V30 10 1 5 11
M  V30 11 2 5 12
M  V30 12 1 6 13
M  V30 13 1 7 14
M  V30 14 2 8 15
M  V30 15 1 9 16
M  V30 16 2 10 17
M  V30 17 1 12 18
M  V30 18 1 13 19
M  V30 19 2 14 20
M  V30 20 1 14 21
M  V30 21 2 16 22
M  V30 22 1 18 23
M  V30 23 1 20 24
M  V30 24 2 7 11
M  V30 25 2 13 18
M  V30 26 1 15 20
M  V30 27 1 17 22
M  V30 28 1 6 25
M  V30 29 1 8 26
M  V30 30 1 9 27
M  V30 31 1 10 28
M  V30 32 1 12 29
M  V30 33 1 15 30
M  V30 34 1 16 31
M  V30 35 1 17 32
M  V30 36 1 19 33
M  V30 37 1 19 34
M  V30 38 1 21 35
M  V30 39 1 21 36
M  V30 40 1 21 37
M  V30 41 1 22 38
M  V30 42 1 23 39
M  V30 43 1 23 40
M  V30 44 1 23 41
M  V30 45 1 24 42
M  V30 46 1 24 43
M  V30 END BOND
M  V30 END CTAB
M  END
>  <Structure No>
3719

>  <LogS>
-0.8462

>  <MMFF94 Energy>
118.45

$$$$
Compound 3720
Actelion Java MolfileCreator 2.0

  0  0  0  0  0  0              0 V3000
M  V30 BEGIN CTAB
M  V30 COUNTS 34 38 0 0 0
M  V30 BEGIN ATOM
M  V30 1 C 0.8105 0.3241 0.0 0
M  V30 2 C 2.2389 0.3411 0.0539 0
M  V30 3 C 0.1262 -0.9146 0.243 0
M  V30 4 C 0.0308 1.4909 -0.2859 0
M  V30 5 C 2.9365 -0.8666 0.3457 0
M  V30 6 C 3.007 1.511 -0.1706 0
M  V30 7 C -1.2776 -0.9403 0.1922 0
M  V30 8 C 0.8464 -2.0793 0.5263 0
M  V30 9 C -1.3712 1.4189 -0.3266 0
M  V30 10 C 2.234 -2.0544 0.5768 0
M  V30 11 C 4.3397 -0.8789 0.405 0
M  V30 12 C 4.402 1.4769 -0.1068 0
M  V30 13 C -1.9689 0.1926 -0.0828 0
M  V30 14 C -2.2358 -2.0788 0.4024 0
M  V30 15 C -2.2121 2.515 -0.5996 0
M  V30 16 C 5.0658 0.2878 0.1795 0
M  V30 17 C -3.315 -0.0023 -0.0942 0
M  V30 18 C -3.6351 -1.4306 0.2048 0
M  V30 19 C -3.6147 2.3341 -0.6163 0
M  V30 20 C -4.1768 1.0649 -0.3618 0
M  V30 21 H 0.4771 2.4525 -0.4779 0
M  V30 22 H 2.5638 2.4659 -0.3968 0
M  V30 23 H 0.3368 -3.0171 0.7106 0
M  V30 24 H 2.7636 -2.9737 0.7989 0
M  V30 25 H 4.8764 -1.7942 0.6265 0
M  V30 26 H 4.9718 2.3808 -0.2812 0
M  V30 27 H -2.1306 -2.4863 1.4309 0
M  V30 28 H -2.059 -2.8755 -0.3517 0
M  V30 29 H -1.7946 3.4947 -0.7966 0
M  V30 30 H 6.1469 0.2701 0.2271 0
M  V30 31 H -4.2433 -1.5034 1.1318 0
M  V30 32 H -4.1717 -1.8927 -0.6514 0
M  V30 33 H -4.2624 3.1755 -0.826 0
M  V30 34 H -5.2493 0.9215 -0.3735 0
M  V30 END ATOM
M  V30 BEGIN BOND
M  V30 1 2 1 2
M  V30 2 1 1 3
M  V30 3 1 1 4
M  V30 4 1 2 5
M  V30 5 1 2 6
M  V30 6 1 3 7
M  V30 7 2 3 8
M  V30 8 2 4 9
M  V30 9 2 5 10
M  V30 10 1 5 11
M  V30 11 2 6 12
M  V30 12 2 7 13
M  V30 13 1 7 14
M  V30 14 1 9 15
M  V30 15 2 11 16
M  V30 16 1 13 17
M  V30 17 1 14 18
M  V30 18 2 15 19
M  V30 19 2 17 20
M  V30 20 1 8 10
M  V30 21 1 9 13
M  V30 22 1 12 16
M  V30 23 1 17 18
M  V30 24 1 19 20
M  V30 25 1 4 21
M  V30 26 1 6 22
M  V30 27 1 8 23
M  V30 28 1 10 24
M  V30 29 1 11 25
M  V30 30 1 12 26
M  V30 31 1 14 27
M  V30 32 1 14 28
M  V30 33 1 15 29
M  V30 34 1 16 30
M  V30 35 1 18 31
M  V30 36 1 18 32
M  V30 37 1 19 33
M  V30 38 1 20 34
M  V30 END BOND
M  V30 END CTAB
M  END
>  <Structure No>
3720

>  <LogS>
-7.8613

>  <MMFF94 Energy>
79.592

$$$$
Compound 3721
Actelion Java MolfileCreator 2.0

  0  0  0  0  0  0              0 V3000
M  V30 BEGIN CTAB
M  V30 COUNTS 25 25 0 0 0
M  V30 BEGIN ATOM
M  V30 1 O -1.5721 1.6549 2.0689 0
M  V30 2 N -2.294 1.2619 1.1288 0 CHG=1
M  V30 3 O -3.6282 1.599 1.1228 0 CHG=-1
M  V30 4 N -1.7507 0.4831 0.0868 0
M  V30 5 C -0.3568 0.1321 0.0927 0
M  V30 6 C -2.6033 0.0275 -1.0101 0
M  V30 7 C 0.0648 -1.0845 0.6874 0
M  V30 8 C 0.5851 0.9601 -0.5694 0
M  V30 9 N -0.8621 -1.9721 1.3479 0 CHG=1
M  V30 10 C 1.4182 -1.4503 0.6128 0
M  V30 11 N 0.1977 2.193 -1.2122 0 CHG=1
M  V30 12 C 1.93 0.5605 -0.6234 0
M  V30 13 O -1.9369 -1.5504 1.8212 0
M  V30 14 O -0.5316 -3.2932 1.5472 0 CHG=-1
M  V30 15 C 2.3577 -0.6366 -0.0356 0
M  V30 16 O -0.8253 2.8139 -0.8587 0
M  V30 17 O 1.0065 2.7558 -2.1731 0 CHG=-1
M  V30 18 N 3.7438 -1.0238 -0.0999 0 CHG=1
M  V30 19 O 4.1331 -2.0898 0.4209 0
M  V30 20 O 4.6653 -0.2247 -0.7377 0 CHG=-1
M  V30 21 H -2.0226 -0.5736 -1.7428 0
M  V30 22 H -3.0359 0.9046 -1.5352 0
M  V30 23 H -3.4248 -0.6013 -0.6076 0
M  V30 24 H 1.7441 -2.375 1.0708 0
M  V30 25 H 2.6517 1.1934 -1.1228 0
M  V30 END ATOM
M  V30 BEGIN BOND
M  V30 1 2 1 2
M  V30 2 1 2 3
M  V30 3 1 2 4
M  V30 4 1 4 5
M  V30 5 1 4 6
M  V30 6 2 5 7
M  V30 7 1 5 8
M  V30 8 1 7 9
M  V30 9 1 7 10
M  V30 10 1 8 11
M  V30 11 2 8 12
M  V30 12 2 9 13
M  V30 13 1 9 14
M  V30 14 2 10 15
M  V30 15 2 11 16
M  V30 16 1 11 17
M  V30 17 1 15 18
M  V30 18 2 18 19
M  V30 19 1 18 20
M  V30 20 1 12 15
M  V30 21 1 6 21
M  V30 22 1 6 22
M  V30 23 1 6 23
M  V30 24 1 10 24
M  V30 25 1 12 25
M  V30 END BOND
M  V30 END CTAB
M  END
>  <Structure No>
3721

>  <LogS>
-3.5889

>  <MMFF94 Energy>
76.356

$$$$
Compound 3722
Actelion Java MolfileCreator 2.0

  0  0  0  0  0  0              0 V3000
M  V30 BEGIN CTAB
M  V30 COUNTS 46 48 0 0 0
M  V30 BEGIN ATOM
M  V30 1 O 0.8833 0.4014 -2.7322 0
M  V30 2 C 2.114 0.1606 -3.3957 0
M  V30 3 C 0.7636 0.6234 -1.3081 0 CFG=1
M  V30 4 C 3.2608 0.0413 -2.7046 0
M  V30 5 O 0.3386 -0.5716 -0.6747 0
M  V30 6 C 2.1386 1.0374 -0.7714 0 CFG=2
M  V30 7 C 3.1526 -0.003 -1.2151 0 CFG=2
M  V30 8 C -1.0689 -0.6053 -0.5509 0 CFG=2
M  V30 9 C 2.4076 1.1111 0.692 0
M  V30 10 C 4.3631 0.2989 -0.3366 0 CFG=1
M  V30 11 O -1.4606 0.2479 0.5092 0
M  V30 12 C -1.5038 -2.0542 -0.2351 0 CFG=2
M  V30 13 C 3.6797 0.7663 0.9244 0
M  V30 14 C 1.4896 1.7057 1.7184 0
M  V30 15 O 5.112 -0.8627 -0.1031 0
M  V30 16 C -2.864 0.4661 0.4824 0 CFG=1
M  V30 17 O -1.7469 -2.7323 -1.4414 0
M  V30 18 C -2.7716 -2.0818 0.6601 0 CFG=2
M  V30 19 O 1.1 0.7118 2.6234 0
M  V30 20 C -3.676 -0.8655 0.3757 0 CFG=2
M  V30 21 C -3.252 1.2454 1.7479 0
M  V30 22 O -2.4017 -2.0644 2.0161 0
M  V30 23 O -4.2195 -0.9714 -0.9167 0
M  V30 24 O -2.5118 2.433 1.8411 0
M  V30 25 H 2.1303 0.1018 -4.4757 0
M  V30 26 H 0.0671 1.4783 -1.1361 0
M  V30 27 H 4.2089 -0.1002 -3.2071 0
M  V30 28 H 2.3959 2.0337 -1.2047 0
M  V30 29 H 2.7897 -1.025 -0.9469 0
M  V30 30 H -1.5459 -0.2907 -1.5155 0
M  V30 31 H 4.9889 1.1116 -0.7731 0
M  V30 32 H -0.6734 -2.5657 0.3088 0
M  V30 33 H 4.1637 0.8475 1.8928 0
M  V30 34 H 2.016 2.5252 2.256 0
M  V30 35 H 0.5921 2.1314 1.2184 0
M  V30 36 H 5.9442 -0.5709 0.3523 0
M  V30 37 H -3.1111 1.1223 -0.3843 0
M  V30 38 H -1.7236 -3.7034 -1.2358 0
M  V30 39 H -3.357 -3.0104 0.4592 0
M  V30 40 H 0.4671 1.1459 3.2528 0
M  V30 41 H -4.5133 -0.8685 1.1143 0
M  V30 42 H -4.3422 1.4755 1.742 0
M  V30 43 H -3.0378 0.6268 2.6454 0
M  V30 44 H -2.0939 -2.9808 2.2431 0
M  V30 45 H -4.9287 -1.6654 -0.8777 0
M  V30 46 H -2.9016 3.0637 1.1809 0
M  V30 END ATOM
M  V30 BEGIN BOND
M  V30 1 1 1 2
M  V30 2 1 1 3
M  V30 3 2 2 4
M  V30 4 1 3 5
M  V30 5 1 3 6
M  V30 6 1 4 7
M  V30 7 1 5 8
M  V30 8 1 6 9
M  V30 9 1 7 10
M  V30 10 1 8 11
M  V30 11 1 8 12
M  V30 12 2 9 13
M  V30 13 1 9 14
M  V30 14 1 10 15
M  V30 15 1 11 16
M  V30 16 1 12 17
M  V30 17 1 12 18
M  V30 18 1 14 19
M  V30 19 1 16 20
M  V30 20 1 16 21
M  V30 21 1 18 22
M  V30 22 1 20 23
M  V30 23 1 21 24
M  V30 24 1 6 7
M  V30 25 1 10 13
M  V30 26 1 18 20
M  V30 27 1 2 25
M  V30 28 1 3 26
M  V30 29 1 4 27
M  V30 30 1 6 28
M  V30 31 1 7 29
M  V30 32 1 8 30
M  V30 33 1 10 31
M  V30 34 1 12 32
M  V30 35 1 13 33
M  V30 36 1 14 34
M  V30 37 1 14 35
M  V30 38 1 15 36
M  V30 39 1 16 37
M  V30 40 1 17 38
M  V30 41 1 18 39
M  V30 42 1 19 40
M  V30 43 1 20 41
M  V30 44 1 21 42
M  V30 45 1 21 43
M  V30 46 1 22 44
M  V30 47 1 23 45
M  V30 48 1 24 46
M  V30 END BOND
M  V30 BEGIN COLLECTION
M  V30 MDLV30/STEABS ATOMS=(9 3 6 7 8 10 12 16 18 20)
M  V30 END COLLECTION
M  V30 END CTAB
M  END
>  <Structure No>
3722

>  <LogS>
0.0119

>  <MMFF94 Energy>
115.23

$$$$
Compound 3723
Actelion Java MolfileCreator 2.0

  0  0  0  0  0  0              0 V3000
M  V30 BEGIN CTAB
M  V30 COUNTS 23 23 0 0 0
M  V30 BEGIN ATOM
M  V30 1 O -3.2634 0.0 0.9543 0
M  V30 2 C -2.5174 0.5784 0.1208 0
M  V30 3 O -3.0678 1.5217 -0.7382 0 CHG=-1
M  V30 4 C -1.0698 0.2569 0.0569 0
M  V30 5 C -0.6307 -1.094 0.0621 0
M  V30 6 C -0.1064 1.2976 -0.0172 0
M  V30 7 C 0.7428 -1.379 0.0162 0
M  V30 8 C -1.6023 -2.2466 0.1123 0
M  V30 9 C 1.2579 0.978 -0.095 0
M  V30 10 C -0.5038 2.7526 -0.0207 0
M  V30 11 C 1.6873 -0.3512 -0.0535 0
M  V30 12 C 3.1489 -0.6756 -0.1587 0
M  V30 13 H 1.0812 -2.4086 0.0232 0
M  V30 14 H -2.015 -2.3428 1.1381 0
M  V30 15 H -1.112 -3.2063 -0.1567 0
M  V30 16 H -2.4304 -2.0857 -0.6098 0
M  V30 17 H 1.9941 1.7696 -0.1748 0
M  V30 18 H -0.899 3.0292 -1.0202 0
M  V30 19 H -1.2753 2.9462 0.7538 0
M  V30 20 H 0.3614 3.4115 0.2059 0
M  V30 21 H 3.426 -0.7872 -1.2277 0
M  V30 22 H 3.7639 0.1318 0.2926 0
M  V30 23 H 3.3808 -1.621 0.3764 0
M  V30 END ATOM
M  V30 BEGIN BOND
M  V30 1 2 1 2
M  V30 2 1 2 3
M  V30 3 1 2 4
M  V30 4 2 4 5
M  V30 5 1 4 6
M  V30 6 1 5 7
M  V30 7 1 5 8
M  V30 8 2 6 9
M  V30 9 1 6 10
M  V30 10 2 7 11
M  V30 11 1 11 12
M  V30 12 1 9 11
M  V30 13 1 7 13
M  V30 14 1 8 14
M  V30 15 1 8 15
M  V30 16 1 8 16
M  V30 17 1 9 17
M  V30 18 1 10 18
M  V30 19 1 10 19
M  V30 20 1 10 20
M  V30 21 1 12 21
M  V30 22 1 12 22
M  V30 23 1 12 23
M  V30 END BOND
M  V30 END CTAB
M  END
>  <Structure No>
3723

>  <LogS>
-2.3566

>  <MMFF94 Energy>
51.84

$$$$
Compound 3724
Actelion Java MolfileCreator 2.0

  0  0  0  0  0  0              0 V3000
M  V30 BEGIN CTAB
M  V30 COUNTS 19 19 0 0 0
M  V30 BEGIN ATOM
M  V30 1 O -3.5323 0.7217 0.7217 0
M  V30 2 C -2.6831 -0.1542 1.0349 0
M  V30 3 O -3.0309 -1.1349 1.9561 0 CHG=-1
M  V30 4 C -1.3182 -0.1086 0.4657 0
M  V30 5 C -0.6503 1.1304 0.3573 0
M  V30 6 C -0.6482 -1.2896 0.0615 0
M  V30 7 O -1.2836 2.3089 0.7548 0
M  V30 8 C 0.6624 1.1826 -0.1295 0
M  V30 9 O -1.2667 -2.5419 0.0731 0
M  V30 10 C 0.6709 -1.2195 -0.3991 0
M  V30 11 C 1.3257 0.0123 -0.5148 0
M  V30 12 C 2.7487 0.0706 -0.9867 0
M  V30 13 H -0.8218 3.209 0.6928 0
M  V30 14 H 1.1697 2.1375 -0.1966 0
M  V30 15 H -2.2537 -2.6731 0.2484 0
M  V30 16 H 1.1792 -2.1312 -0.6894 0
M  V30 17 H 3.4303 -0.0238 -0.1157 0
M  V30 18 H 2.9589 -0.7526 -1.7023 0
M  V30 19 H 2.9518 1.033 -1.503 0
M  V30 END ATOM
M  V30 BEGIN BOND
M  V30 1 2 1 2
M  V30 2 1 2 3
M  V30 3 1 2 4
M  V30 4 2 4 5
M  V30 5 1 4 6
M  V30 6 1 5 7
M  V30 7 1 5 8
M  V30 8 1 6 9
M  V30 9 2 6 10
M  V30 10 2 8 11
M  V30 11 1 11 12
M  V30 12 1 10 11
M  V30 13 1 7 13
M  V30 14 1 8 14
M  V30 15 1 9 15
M  V30 16 1 10 16
M  V30 17 1 12 17
M  V30 18 1 12 18
M  V30 19 1 12 19
M  V30 END BOND
M  V30 END CTAB
M  END
>  <Structure No>
3724

>  <LogS>
-2.0496

>  <MMFF94 Energy>
-7.9828

$$$$
Compound 3725
Actelion Java MolfileCreator 2.0

  0  0  0  0  0  0              0 V3000
M  V30 BEGIN CTAB
M  V30 COUNTS 13 13 0 0 0
M  V30 BEGIN ATOM
M  V30 1 O 2.4949 1.4964 -0.6648 0
M  V30 2 N 2.1356 0.3328 -0.391 0 CHG=1
M  V30 3 O 3.0957 -0.6526 -0.3726 0 CHG=-1
M  V30 4 C 0.7494 0.0302 -0.1012 0
M  V30 5 C -0.245 1.0347 -0.1169 0
M  V30 6 C 0.3323 -1.2826 0.2097 0
M  V30 7 O 0.0743 2.3558 -0.4127 0 CHG=-1
M  V30 8 N -1.5393 0.7211 0.1592 0
M  V30 9 O 1.1543 -2.2356 0.2452 0
M  V30 10 N -0.9735 -1.5369 0.477 0 CHG=-1
M  V30 11 C -1.9046 -0.5529 0.4543 0
M  V30 12 O -3.1078 -0.8244 0.7075 0
M  V30 13 H -2.2631 1.4752 0.1436 0
M  V30 END ATOM
M  V30 BEGIN BOND
M  V30 1 2 1 2
M  V30 2 1 2 3
M  V30 3 1 2 4
M  V30 4 2 4 5
M  V30 5 1 4 6
M  V30 6 1 5 7
M  V30 7 1 5 8
M  V30 8 2 6 9
M  V30 9 1 6 10
M  V30 10 1 8 11
M  V30 11 2 11 12
M  V30 12 1 10 11
M  V30 13 1 8 13
M  V30 END BOND
M  V30 END CTAB
M  END
>  <Structure No>
3725

>  <LogS>
-2.284

>  <MMFF94 Energy>
86.583

$$$$
Compound 3726
Actelion Java MolfileCreator 2.0

  0  0  0  0  0  0              0 V3000
M  V30 BEGIN CTAB
M  V30 COUNTS 36 38 0 0 0
M  V30 BEGIN ATOM
M  V30 1 O -3.6527 2.5965 -0.3242 0
M  V30 2 C -2.9218 1.5699 -0.3287 0
M  V30 3 C -1.5413 1.6133 0.2121 0
M  V30 4 C -3.4396 0.3349 -0.9182 0
M  V30 5 C -0.8056 0.4682 0.2276 0
M  V30 6 C -0.9861 2.9421 0.6667 0
M  V30 7 C -2.7462 -0.797 -0.8329 0
M  V30 8 C -1.4748 -0.9116 -0.0108 0 CFG=1
M  V30 9 C 0.6375 0.3847 0.6931 0 CFG=2
M  V30 10 C -0.5193 -1.9081 -0.7596 0
M  V30 11 C -1.8733 -1.5107 1.3545 0
M  V30 12 O 1.4058 1.5702 0.7996 0
M  V30 13 C 1.4321 -0.4441 -0.31 0 CFG=2
M  V30 14 C 0.9479 -1.8886 -0.2751 0
M  V30 15 C 2.7322 1.2568 0.5443 0
M  V30 16 C 2.8936 -0.1461 0.0544 0 CFG=2
M  V30 17 O 3.6777 2.0669 0.7327 0
M  V30 18 C 3.8385 -0.2432 -1.1464 0
M  V30 19 H -4.389 0.3451 -1.4398 0
M  V30 20 H -0.5426 2.8466 1.6801 0
M  V30 21 H -1.774 3.7194 0.7416 0
M  V30 22 H -0.227 3.3027 -0.0586 0
M  V30 23 H -3.1709 -1.6934 -1.2706 0
M  V30 24 H 0.6545 -0.1041 1.6934 0
M  V30 25 H -0.5154 -1.6595 -1.8454 0
M  V30 26 H -0.9075 -2.9477 -0.6797 0
M  V30 27 H -2.4164 -2.4717 1.2202 0
M  V30 28 H -0.9842 -1.7129 1.986 0
M  V30 29 H -2.5391 -0.8118 1.9066 0
M  V30 30 H 1.2442 -0.035 -1.3338 0
M  V30 31 H 1.569 -2.5074 -0.9576 0
M  V30 32 H 1.0292 -2.3126 0.7491 0
M  V30 33 H 3.2411 -0.7995 0.8848 0
M  V30 34 H 3.8344 -1.2796 -1.5449 0
M  V30 35 H 3.5309 0.4555 -1.9545 0
M  V30 36 H 4.8737 0.0075 -0.832 0
M  V30 END ATOM
M  V30 BEGIN BOND
M  V30 1 2 1 2
M  V30 2 1 2 3
M  V30 3 1 2 4
M  V30 4 2 3 5
M  V30 5 1 3 6
M  V30 6 2 4 7
M  V30 7 1 5 8
M  V30 8 1 5 9
M  V30 9 1 8 10
M  V30 10 1 8 11
M  V30 11 1 9 12
M  V30 12 1 9 13
M  V30 13 1 10 14
M  V30 14 1 12 15
M  V30 15 1 13 16
M  V30 16 2 15 17
M  V30 17 1 16 18
M  V30 18 1 7 8
M  V30 19 1 13 14
M  V30 20 1 15 16
M  V30 21 1 4 19
M  V30 22 1 6 20
M  V30 23 1 6 21
M  V30 24 1 6 22
M  V30 25 1 7 23
M  V30 26 1 9 24
M  V30 27 1 10 25
M  V30 28 1 10 26
M  V30 29 1 11 27
M  V30 30 1 11 28
M  V30 31 1 11 29
M  V30 32 1 13 30
M  V30 33 1 14 31
M  V30 34 1 14 32
M  V30 35 1 16 33
M  V30 36 1 18 34
M  V30 37 1 18 35
M  V30 38 1 18 36
M  V30 END BOND
M  V30 BEGIN COLLECTION
M  V30 MDLV30/STEABS ATOMS=(4 8 9 13 16)
M  V30 END COLLECTION
M  V30 END CTAB
M  END
>  <Structure No>
3726

>  <LogS>
-3.0905

>  <MMFF94 Energy>
38.697

$$$$
Compound 3727
Actelion Java MolfileCreator 2.0

  0  0  0  0  0  0              0 V3000
M  V30 BEGIN CTAB
M  V30 COUNTS 51 54 0 0 0
M  V30 BEGIN ATOM
M  V30 1 O -4.8596 1.1323 1.456 0
M  V30 2 C -4.1747 0.4858 0.6782 0
M  V30 3 C -2.7038 0.69 0.488 0 CFG=2
M  V30 4 C -4.7322 -0.5598 -0.2439 0
M  V30 5 C -2.348 -0.7013 -0.0518 0 CFG=1
M  V30 6 C -1.8731 0.9116 1.7631 0
M  V30 7 C -2.5551 1.8845 -0.4935 0
M  V30 8 C -3.4935 -1.1046 -0.9786 0
M  V30 9 C -0.875 -0.9183 -0.4492 0 CFG=2
M  V30 10 C -0.3522 0.7456 1.4824 0
M  V30 11 C 0.0432 -0.6016 0.7775 0 CFG=2
M  V30 12 C -0.4241 -0.1799 -1.7156 0
M  V30 13 C 1.5946 -0.8221 0.4473 0 CFG=1
M  V30 14 C 0.9668 -0.6466 -2.1073 0
M  V30 15 C 2.01 -0.3559 -1.01 0 CFG=1
M  V30 16 C 2.5308 -0.1288 1.5118 0
M  V30 17 C 1.8765 -2.3504 0.5337 0
M  V30 18 C 2.5026 1.106 -1.0329 0
M  V30 19 C 3.9136 0.2213 0.9482 0
M  V30 20 C 3.7857 1.2799 -0.175 0 CFG=1
M  V30 21 O 4.9368 1.2753 -0.9816 0
M  V30 22 H -5.2173 -1.363 0.3514 0
M  V30 23 H -5.4583 -0.1137 -0.9563 0
M  V30 24 H -2.4723 -1.4167 0.8033 0
M  V30 25 H -2.0651 1.9285 2.1702 0
M  V30 26 H -2.178 0.1823 2.5467 0
M  V30 27 H -2.808 1.5962 -1.5344 0
M  V30 28 H -1.548 2.3379 -0.4781 0
M  V30 29 H -3.2399 2.71 -0.1995 0
M  V30 30 H -3.3936 -0.6256 -1.975 0
M  V30 31 H -3.5489 -2.208 -1.1027 0
M  V30 32 H -0.7903 -2.007 -0.6653 0
M  V30 33 H 0.0266 1.6085 0.9031 0
M  V30 34 H 0.1175 0.7843 2.4873 0
M  V30 35 H -0.2211 -1.3617 1.5484 0
M  V30 36 H -1.1191 -0.3992 -2.5532 0
M  V30 37 H -0.3803 0.9109 -1.5751 0
M  V30 38 H 1.2628 -0.1541 -3.0592 0
M  V30 39 H 0.941 -1.7386 -2.3168 0
M  V30 40 H 2.897 -0.9505 -1.3287 0
M  V30 41 H 2.6454 -0.7617 2.419 0
M  V30 42 H 2.1352 0.8408 1.8596 0
M  V30 43 H 1.2904 -2.915 -0.2193 0
M  V30 44 H 2.95 -2.5742 0.3583 0
M  V30 45 H 1.6169 -2.7496 1.5379 0
M  V30 46 H 1.7056 1.773 -0.6456 0
M  V30 47 H 2.7115 1.4301 -2.076 0
M  V30 48 H 4.554 0.6269 1.7616 0
M  V30 49 H 4.4075 -0.6995 0.5712 0
M  V30 50 H 3.7267 2.2805 0.3071 0
M  V30 51 H 4.9624 0.4067 -1.4617 0
M  V30 END ATOM
M  V30 BEGIN BOND
M  V30 1 2 1 2
M  V30 2 1 2 3
M  V30 3 1 2 4
M  V30 4 1 3 5
M  V30 5 1 3 6
M  V30 6 1 3 7
M  V30 7 1 4 8
M  V30 8 1 5 9
M  V30 9 1 6 10
M  V30 10 1 9 11
M  V30 11 1 9 12
M  V30 12 1 11 13
M  V30 13 1 12 14
M  V30 14 1 13 15
M  V30 15 1 13 16
M  V30 16 1 13 17
M  V30 17 1 15 18
M  V30 18 1 16 19
M  V30 19 1 18 20
M  V30 20 1 20 21
M  V30 21 1 5 8
M  V30 22 1 10 11
M  V30 23 1 14 15
M  V30 24 1 19 20
M  V30 25 1 4 22
M  V30 26 1 4 23
M  V30 27 1 5 24
M  V30 28 1 6 25
M  V30 29 1 6 26
M  V30 30 1 7 27
M  V30 31 1 7 28
M  V30 32 1 7 29
M  V30 33 1 8 30
M  V30 34 1 8 31
M  V30 35 1 9 32
M  V30 36 1 10 33
M  V30 37 1 10 34
M  V30 38 1 11 35
M  V30 39 1 12 36
M  V30 40 1 12 37
M  V30 41 1 14 38
M  V30 42 1 14 39
M  V30 43 1 15 40
M  V30 44 1 16 41
M  V30 45 1 16 42
M  V30 46 1 17 43
M  V30 47 1 17 44
M  V30 48 1 17 45
M  V30 49 1 18 46
M  V30 50 1 18 47
M  V30 51 1 19 48
M  V30 52 1 19 49
M  V30 53 1 20 50
M  V30 54 1 21 51
M  V30 END BOND
M  V30 BEGIN COLLECTION
M  V30 MDLV30/STEABS ATOMS=(7 3 5 9 11 13 15 20)
M  V30 END COLLECTION
M  V30 END CTAB
M  END
>  <Structure No>
3727

>  <LogS>
-4.1577

>  <MMFF94 Energy>
77.738

$$$$
Compound 3728
Actelion Java MolfileCreator 2.0

  0  0  0  0  0  0              0 V3000
M  V30 BEGIN CTAB
M  V30 COUNTS 28 29 0 0 0
M  V30 BEGIN ATOM
M  V30 1 O 1.6102 -2.9804 1.5296 0
M  V30 2 C 1.8327 -1.8098 1.1222 0
M  V30 3 O 2.8823 -1.0867 1.6781 0 CHG=-1
M  V30 4 C 0.9306 -1.1987 0.0785 0 CFG=2
M  V30 5 C 1.6493 -0.0996 -0.772 0 CFG=1
M  V30 6 C -0.3861 -0.6468 0.7107 0 CFG=2
M  V30 7 O 2.6033 -0.6711 -1.6315 0
M  V30 8 C 0.6513 0.7905 -1.5709 0
M  V30 9 N -1.2568 -0.1959 -0.3878 0 CHG=1 CFG=2
M  V30 10 C -0.117 0.6138 1.5599 0
M  V30 11 C -0.6381 1.0872 -0.7551 0 CFG=1
M  V30 12 C -2.6663 -0.047 0.0283 0
M  V30 13 C -0.2846 1.7738 0.5759 0
M  V30 14 H 0.642 -2.0253 -0.6092 0
M  V30 15 H 2.1985 0.5797 -0.0853 0
M  V30 16 H -0.8749 -1.4431 1.318 0
M  V30 17 H 2.1208 -1.2699 -2.2595 0
M  V30 18 H 1.1468 1.7448 -1.8537 0
M  V30 19 H 0.362 0.2808 -2.5158 0
M  V30 20 H -1.2484 -0.8684 -1.1929 0
M  V30 21 H -0.8724 0.691 2.3722 0
M  V30 22 H 0.8902 0.6199 2.0262 0
M  V30 23 H -1.3236 1.7191 -1.3645 0
M  V30 24 H -2.784 0.6549 0.8806 0
M  V30 25 H -3.0806 -1.0342 0.3281 0
M  V30 26 H -3.2764 0.3291 -0.8214 0
M  V30 27 H 0.6375 2.3913 0.5062 0
M  V30 28 H -1.1209 2.4316 0.8987 0
M  V30 END ATOM
M  V30 BEGIN BOND
M  V30 1 2 1 2
M  V30 2 1 2 3
M  V30 3 1 2 4
M  V30 4 1 4 5
M  V30 5 1 4 6
M  V30 6 1 5 7
M  V30 7 1 5 8
M  V30 8 1 6 9
M  V30 9 1 6 10
M  V30 10 1 8 11
M  V30 11 1 9 12
M  V30 12 1 10 13
M  V30 13 1 9 11
M  V30 14 1 11 13
M  V30 15 1 4 14
M  V30 16 1 5 15
M  V30 17 1 6 16
M  V30 18 1 7 17
M  V30 19 1 8 18
M  V30 20 1 8 19
M  V30 21 1 9 20
M  V30 22 1 10 21
M  V30 23 1 10 22
M  V30 24 1 11 23
M  V30 25 1 12 24
M  V30 26 1 12 25
M  V30 27 1 12 26
M  V30 28 1 13 27
M  V30 29 1 13 28
M  V30 END BOND
M  V30 BEGIN COLLECTION
M  V30 MDLV30/STEABS ATOMS=(5 4 5 6 9 11)
M  V30 END COLLECTION
M  V30 END CTAB
M  END
>  <Structure No>
3728

>  <LogS>
-0.0173

>  <MMFF94 Energy>
-74.912

$$$$
Compound 3729
Actelion Java MolfileCreator 2.0

  0  0  0  0  0  0              0 V3000
M  V30 BEGIN CTAB
M  V30 COUNTS 21 22 0 0 0
M  V30 BEGIN ATOM
M  V30 1 O 1.6072 2.1702 -0.0803 0
M  V30 2 C 0.9573 1.0861 -0.055 0
M  V30 3 N 1.6204 -0.107 -0.2231 0
M  V30 4 N -0.4032 1.1128 0.1405 0
M  V30 5 C 0.9308 -1.2902 -0.1695 0
M  V30 6 C 3.085 -0.1166 -0.3873 0
M  V30 7 C -1.1117 -0.0583 0.1373 0
M  V30 8 C -1.1099 2.3987 0.2799 0
M  V30 9 O 1.5356 -2.3942 -0.2717 0
M  V30 10 C -0.452 -1.2827 -0.0055 0
M  V30 11 N -2.4664 -0.0705 0.2793 0
M  V30 12 N -1.1686 -2.4373 0.012 0
M  V30 13 N -3.1519 -1.2145 0.29 0
M  V30 14 C -2.5167 -2.4073 0.16 0
M  V30 15 H 3.5712 -0.1254 0.6109 0
M  V30 16 H 3.424 -1.0029 -0.9648 0
M  V30 17 H 3.4313 0.7737 -0.9546 0
M  V30 18 H -0.4524 3.1825 0.7124 0
M  V30 19 H -1.4702 2.7351 -0.715 0
M  V30 20 H -1.9753 2.3068 0.9706 0
M  V30 21 H -3.0828 -3.3285 0.172 0
M  V30 END ATOM
M  V30 BEGIN BOND
M  V30 1 2 1 2
M  V30 2 1 2 3
M  V30 3 1 2 4
M  V30 4 1 3 5
M  V30 5 1 3 6
M  V30 6 1 4 7
M  V30 7 1 4 8
M  V30 8 2 5 9
M  V30 9 1 5 10
M  V30 10 1 7 11
M  V30 11 1 10 12
M  V30 12 2 11 13
M  V30 13 2 12 14
M  V30 14 2 7 10
M  V30 15 1 13 14
M  V30 16 1 6 15
M  V30 17 1 6 16
M  V30 18 1 6 17
M  V30 19 1 8 18
M  V30 20 1 8 19
M  V30 21 1 8 20
M  V30 22 1 14 21
M  V30 END BOND
M  V30 END CTAB
M  END
>  <Structure No>
3729

>  <LogS>
-1.9849

>  <MMFF94 Energy>
-19.862

$$$$
Compound 3730
Actelion Java MolfileCreator 2.0

  0  0  0  0  0  0              0 V3000
M  V30 BEGIN CTAB
M  V30 COUNTS 34 35 0 0 0
M  V30 BEGIN ATOM
M  V30 1 O -2.1422 -4.447 0.6343 0
M  V30 2 C -2.3673 -3.2519 0.3099 0
M  V30 3 O -1.4526 -2.319 0.5586 0
M  V30 4 C -3.5738 -2.9118 -0.3077 0
M  V30 5 C -1.6238 -1.0351 0.2428 0
M  V30 6 C -3.7992 -1.5826 -0.6594 0
M  V30 7 C -2.8185 -0.6234 -0.3879 0
M  V30 8 C -0.6182 -0.0891 0.5329 0
M  V30 9 C -3.0011 0.7183 -0.7347 0
M  V30 10 C -0.7999 1.2603 0.1571 0
M  V30 11 C 0.676 -0.5249 1.1796 0
M  V30 12 C -1.9997 1.652 -0.4683 0
M  V30 13 O 0.2295 2.1809 0.4154 0
M  V30 14 C 1.6904 -0.861 0.1132 0
M  V30 15 C 0.1868 3.5622 0.0736 0
M  V30 16 C 2.9472 -0.3674 0.058 0
M  V30 17 C 3.8453 -0.8182 -1.065 0
M  V30 18 C 3.4729 0.6105 1.0813 0
M  V30 19 H -4.324 -3.6653 -0.5132 0
M  V30 20 H -4.7296 -1.3073 -1.1415 0
M  V30 21 H -3.9142 1.0437 -1.2191 0
M  V30 22 H 0.516 -1.4266 1.8074 0
M  V30 23 H 1.0253 0.2638 1.8758 0
M  V30 24 H -2.1673 2.68 -0.7585 0
M  V30 25 H 1.3807 -1.581 -0.641 0
M  V30 26 H 1.136 4.0419 0.3888 0
M  V30 27 H 0.0766 3.6804 -1.0248 0
M  V30 28 H -0.6546 4.0601 0.6 0
M  V30 29 H 4.8473 -0.3447 -1.0073 0
M  V30 30 H 3.3895 -0.5474 -2.0411 0
M  V30 31 H 3.9783 -1.9199 -1.02 0
M  V30 32 H 3.4231 0.1608 2.0954 0
M  V30 33 H 4.5304 0.8807 0.8817 0
M  V30 34 H 2.874 1.5447 1.056 0
M  V30 END ATOM
M  V30 BEGIN BOND
M  V30 1 2 1 2
M  V30 2 1 2 3
M  V30 3 1 2 4
M  V30 4 1 3 5
M  V30 5 2 4 6
M  V30 6 2 5 7
M  V30 7 1 5 8
M  V30 8 1 7 9
M  V30 9 2 8 10
M  V30 10 1 8 11
M  V30 11 2 9 12
M  V30 12 1 10 13
M  V30 13 1 11 14
M  V30 14 1 13 15
M  V30 15 2 14 16
M  V30 16 1 16 17
M  V30 17 1 16 18
M  V30 18 1 6 7
M  V30 19 1 10 12
M  V30 20 1 4 19
M  V30 21 1 6 20
M  V30 22 1 9 21
M  V30 23 1 11 22
M  V30 24 1 11 23
M  V30 25 1 12 24
M  V30 26 1 14 25
M  V30 27 1 15 26
M  V30 28 1 15 27
M  V30 29 1 15 28
M  V30 30 1 17 29
M  V30 31 1 17 30
M  V30 32 1 17 31
M  V30 33 1 18 32
M  V30 34 1 18 33
M  V30 35 1 18 34
M  V30 END BOND
M  V30 END CTAB
M  END
>  <Structure No>
3730

>  <LogS>
-4.3087

>  <MMFF94 Energy>
51.989

$$$$
Compound 3731
Actelion Java MolfileCreator 2.0

  0  0  0  0  0  0              0 V3000
M  V30 BEGIN CTAB
M  V30 COUNTS 41 41 0 0 0
M  V30 BEGIN ATOM
M  V30 1 O 1.2016 3.9293 0.6407 0
M  V30 2 N 1.0757 2.7544 1.0446 0 CHG=1
M  V30 3 O 2.133 2.1591 1.6948 0 CHG=-1
M  V30 4 C -0.2003 2.0929 0.9735 0
M  V30 5 C -0.2875 0.6841 0.8906 0
M  V30 6 C -1.3783 2.8528 1.0344 0
M  V30 7 O 0.8631 -0.0977 0.7152 0
M  V30 8 C -1.5443 0.0445 0.9723 0
M  V30 9 C -2.6376 2.2345 1.0495 0
M  V30 10 C 1.7371 0.051 -0.3681 0
M  V30 11 C -2.7101 0.834 1.0263 0
M  V30 12 C -1.6273 -1.4788 0.9022 0 CFG=2
M  V30 13 N -3.8413 3.0241 1.1017 0 CHG=1
M  V30 14 O 1.452 0.8452 -1.3059 0
M  V30 15 C 2.9645 -0.7723 -0.3964 0
M  V30 16 C -1.6924 -1.9949 -0.5535 0
M  V30 17 C -2.7308 -2.0784 1.7926 0
M  V30 18 O -3.7876 4.2714 1.0806 0
M  V30 19 O -5.0755 2.4171 1.1592 0 CHG=-1
M  V30 20 C 3.9722 -0.6715 -1.2871 0
M  V30 21 C -2.8904 -1.4846 -1.3599 0
M  V30 22 C 5.1395 -1.6115 -1.1476 0
M  V30 23 C 3.9842 0.3509 -2.3942 0
M  V30 24 H -1.31 3.932 1.091 0
M  V30 25 H -3.6809 0.3617 1.0309 0
M  V30 26 H -0.685 -1.8877 1.3297 0
M  V30 27 H 3.0479 -1.515 0.3895 0
M  V30 28 H -1.7177 -3.1067 -0.5446 0
M  V30 29 H -0.7615 -1.6976 -1.0833 0
M  V30 30 H -2.641 -1.6805 2.8268 0
M  V30 31 H -3.7477 -1.8563 1.4127 0
M  V30 32 H -2.6184 -3.1826 1.8389 0
M  V30 33 H -3.8488 -1.7647 -0.8775 0
M  V30 34 H -2.8679 -1.9424 -2.3708 0
M  V30 35 H -2.841 -0.3835 -1.4833 0
M  V30 36 H 5.9057 -1.442 -1.9328 0
M  V30 37 H 4.7863 -2.6621 -1.2317 0
M  V30 38 H 5.621 -1.4698 -0.1563 0
M  V30 39 H 3.1411 0.1662 -3.0925 0
M  V30 40 H 3.9084 1.3734 -1.9678 0
M  V30 41 H 4.923 0.3042 -2.9841 0
M  V30 END ATOM
M  V30 BEGIN BOND
M  V30 1 2 1 2
M  V30 2 1 2 3
M  V30 3 1 2 4
M  V30 4 2 4 5
M  V30 5 1 4 6
M  V30 6 1 5 7
M  V30 7 1 5 8
M  V30 8 2 6 9
M  V30 9 1 7 10
M  V30 10 2 8 11
M  V30 11 1 8 12
M  V30 12 1 9 13
M  V30 13 2 10 14
M  V30 14 1 10 15
M  V30 15 1 12 16
M  V30 16 1 12 17
M  V30 17 2 13 18
M  V30 18 1 13 19
M  V30 19 2 15 20
M  V30 20 1 16 21
M  V30 21 1 20 22
M  V30 22 1 20 23
M  V30 23 1 9 11
M  V30 24 1 6 24
M  V30 25 1 11 25
M  V30 26 1 12 26
M  V30 27 1 15 27
M  V30 28 1 16 28
M  V30 29 1 16 29
M  V30 30 1 17 30
M  V30 31 1 17 31
M  V30 32 1 17 32
M  V30 33 1 21 33
M  V30 34 1 21 34
M  V30 35 1 21 35
M  V30 36 1 22 36
M  V30 37 1 22 37
M  V30 38 1 22 38
M  V30 39 1 23 39
M  V30 40 1 23 40
M  V30 41 1 23 41
M  V30 END BOND
M  V30 BEGIN COLLECTION
M  V30 MDLV30/STEABS ATOMS=(1 12)
M  V30 END COLLECTION
M  V30 END CTAB
M  END
>  <Structure No>
3731

>  <LogS>
-5.5083

>  <MMFF94 Energy>
94.885

$$$$
Compound 3732
Actelion Java MolfileCreator 2.0

  0  0  0  0  0  0              0 V3000
M  V30 BEGIN CTAB
M  V30 COUNTS 28 29 0 0 0
M  V30 BEGIN ATOM
M  V30 1 O -3.2112 2.3273 -0.2405 0
M  V30 2 C -2.0872 1.7626 -0.1806 0
M  V30 3 O -0.9443 2.4737 -0.5915 0
M  V30 4 C -2.0056 0.3124 0.2554 0 CFG=2
M  V30 5 C 0.396 2.052 -0.3132 0
M  V30 6 C -0.5578 0.0041 0.7069 0 CFG=2
M  V30 7 C -2.5319 -0.5962 -0.8676 0
M  V30 8 C 0.4692 0.5237 -0.2817 0 CFG=2
M  V30 9 C -0.146 -1.4453 0.9368 0
M  V30 10 C 1.7853 -0.0733 0.2231 0 CFG=1
M  V30 11 C 1.3872 -1.4261 0.8533 0
M  V30 12 C 2.8223 -0.2297 -0.8943 0
M  V30 13 H -2.6733 0.1763 1.1351 0
M  V30 14 H 0.7084 2.4742 0.6666 0
M  V30 15 H 1.0742 2.4502 -1.0965 0
M  V30 16 H -0.4083 0.5311 1.681 0
M  V30 17 H -3.5389 -0.2556 -1.1915 0
M  V30 18 H -1.8621 -0.5854 -1.7515 0
M  V30 19 H -2.648 -1.6378 -0.5036 0
M  V30 20 H 0.2504 0.1323 -1.3006 0
M  V30 21 H -0.4969 -1.8121 1.9259 0
M  V30 22 H -0.5344 -2.1109 0.1383 0
M  V30 23 H 2.2133 0.5791 1.0182 0
M  V30 24 H 1.8253 -1.5104 1.8721 0
M  V30 25 H 1.7416 -2.2909 0.2494 0
M  V30 26 H 2.4359 -0.8857 -1.7039 0
M  V30 27 H 3.7527 -0.6767 -0.4842 0
M  V30 28 H 3.0699 0.7639 -1.3238 0
M  V30 END ATOM
M  V30 BEGIN BOND
M  V30 1 2 1 2
M  V30 2 1 2 3
M  V30 3 1 2 4
M  V30 4 1 3 5
M  V30 5 1 4 6
M  V30 6 1 4 7
M  V30 7 1 5 8
M  V30 8 1 6 9
M  V30 9 1 8 10
M  V30 10 1 9 11
M  V30 11 1 10 12
M  V30 12 1 6 8
M  V30 13 1 10 11
M  V30 14 1 4 13
M  V30 15 1 5 14
M  V30 16 1 5 15
M  V30 17 1 6 16
M  V30 18 1 7 17
M  V30 19 1 7 18
M  V30 20 1 7 19
M  V30 21 1 8 20
M  V30 22 1 9 21
M  V30 23 1 9 22
M  V30 24 1 10 23
M  V30 25 1 11 24
M  V30 26 1 11 25
M  V30 27 1 12 26
M  V30 28 1 12 27
M  V30 29 1 12 28
M  V30 END BOND
M  V30 BEGIN COLLECTION
M  V30 MDLV30/STEABS ATOMS=(4 4 6 8 10)
M  V30 END COLLECTION
M  V30 END CTAB
M  END
>  <Structure No>
3732

>  <LogS>
-1.9249

>  <MMFF94 Energy>
24.659

$$$$
Compound 3733
Actelion Java MolfileCreator 2.0

  0  0  0  0  0  0              0 V3000
M  V30 BEGIN CTAB
M  V30 COUNTS 25 27 0 0 0
M  V30 BEGIN ATOM
M  V30 1 O -0.4029 -1.048 2.4197 0
M  V30 2 C -0.3057 -0.5751 1.2537 0
M  V30 3 N 0.9109 -0.4887 0.6485 0
M  V30 4 C -1.4436 -0.1288 0.554 0
M  V30 5 C 1.0534 0.01 -0.5888 0
M  V30 6 C 2.1866 -0.8966 1.2075 0
M  V30 7 C -1.2626 0.3907 -0.7531 0
M  V30 8 C -2.7365 -0.1826 1.1044 0
M  V30 9 N -0.0166 0.4493 -1.2981 0
M  V30 10 C 2.4486 0.0224 -1.0744 0 CFG=2
M  V30 11 C 3.2228 -0.6071 0.1036 0
M  V30 12 C -2.3674 0.8442 -1.4827 0
M  V30 13 C -3.8314 0.274 0.364 0
M  V30 14 O 2.8589 1.3433 -1.3028 0
M  V30 15 C -3.6478 0.7854 -0.9243 0
M  V30 16 H 2.1666 -1.9804 1.4549 0
M  V30 17 H 2.4085 -0.3016 2.1201 0
M  V30 18 H -2.9021 -0.5747 2.1004 0
M  V30 19 H 2.535 -0.5937 -1.9985 0
M  V30 20 H 4.0105 0.0794 0.485 0
M  V30 21 H 3.7059 -1.5536 -0.2233 0
M  V30 22 H -2.2363 1.2422 -2.4814 0
M  V30 23 H -4.8257 0.2317 0.7899 0
M  V30 24 H 3.7277 1.286 -1.7793 0
M  V30 25 H -4.5 1.1371 -1.4914 0
M  V30 END ATOM
M  V30 BEGIN BOND
M  V30 1 2 1 2
M  V30 2 1 2 3
M  V30 3 1 2 4
M  V30 4 1 3 5
M  V30 5 1 3 6
M  V30 6 2 4 7
M  V30 7 1 4 8
M  V30 8 2 5 9
M  V30 9 1 5 10
M  V30 10 1 6 11
M  V30 11 1 7 12
M  V30 12 2 8 13
M  V30 13 1 10 14
M  V30 14 2 12 15
M  V30 15 1 7 9
M  V30 16 1 10 11
M  V30 17 1 13 15
M  V30 18 1 6 16
M  V30 19 1 6 17
M  V30 20 1 8 18
M  V30 21 1 10 19
M  V30 22 1 11 20
M  V30 23 1 11 21
M  V30 24 1 12 22
M  V30 25 1 13 23
M  V30 26 1 14 24
M  V30 27 1 15 25
M  V30 END BOND
M  V30 BEGIN COLLECTION
M  V30 MDLV30/STEABS ATOMS=(1 10)
M  V30 END COLLECTION
M  V30 END CTAB
M  END
>  <Structure No>
3733

>  <LogS>
-2.106

>  <MMFF94 Energy>
12.127

$$$$
Compound 3734
Actelion Java MolfileCreator 2.0

  0  0  0  0  0  0              0 V3000
M  V30 BEGIN CTAB
M  V30 COUNTS 32 34 0 0 0
M  V30 BEGIN ATOM
M  V30 1 O 2.8009 -2.0 1.4397 0
M  V30 2 C 2.5682 -0.9106 0.8462 0
M  V30 3 N 1.4181 -0.7452 0.1098 0
M  V30 4 C 3.5036 0.1223 0.9503 0
M  V30 5 C 1.1952 0.443 -0.5583 0
M  V30 6 C 0.4862 -1.8953 -0.0015 0
M  V30 7 C 3.2752 1.327 0.2971 0
M  V30 8 C 2.1192 1.4938 -0.4558 0
M  V30 9 C -0.0913 0.6837 -1.3171 0 CFG=2
M  V30 10 C -0.8552 -1.5693 -0.699 0 CFG=2
M  V30 11 C -1.156 1.302 -0.3849 0
M  V30 12 C -0.6111 -0.6343 -1.8777 0
M  V30 13 C -1.8972 -0.9455 0.2622 0
M  V30 14 N -1.4941 0.3978 0.7406 0 CHG=1 CFG=2
M  V30 15 C -2.5728 0.9877 1.5517 0
M  V30 16 H 4.4059 -0.0097 1.535 0
M  V30 17 H 0.2783 -2.3151 1.0075 0
M  V30 18 H 0.9914 -2.6944 -0.5878 0
M  V30 19 H 3.9927 2.1336 0.3775 0
M  V30 20 H 1.9388 2.44 -0.9513 0
M  V30 21 H 0.0924 1.3768 -2.1683 0
M  V30 22 H -1.2823 -2.5206 -1.0871 0
M  V30 23 H -0.7694 2.2694 0.0089 0
M  V30 24 H -2.0665 1.5319 -0.9848 0
M  V30 25 H 0.1317 -1.0774 -2.578 0
M  V30 26 H -1.5547 -0.47 -2.4439 0
M  V30 27 H -2.8731 -0.8847 -0.2729 0
M  V30 28 H -2.0447 -1.629 1.1286 0
M  V30 29 H -0.663 0.301 1.37 0
M  V30 30 H -3.4995 1.125 0.951 0
M  V30 31 H -2.8063 0.3341 2.4211 0
M  V30 32 H -2.2597 1.9769 1.953 0
M  V30 END ATOM
M  V30 BEGIN BOND
M  V30 1 2 1 2
M  V30 2 1 2 3
M  V30 3 1 2 4
M  V30 4 1 3 5
M  V30 5 1 3 6
M  V30 6 2 4 7
M  V30 7 2 5 8
M  V30 8 1 5 9
M  V30 9 1 6 10
M  V30 10 1 9 11
M  V30 11 1 9 12
M  V30 12 1 10 13
M  V30 13 1 11 14
M  V30 14 1 14 15
M  V30 15 1 7 8
M  V30 16 1 10 12
M  V30 17 1 13 14
M  V30 18 1 4 16
M  V30 19 1 6 17
M  V30 20 1 6 18
M  V30 21 1 7 19
M  V30 22 1 8 20
M  V30 23 1 9 21
M  V30 24 1 10 22
M  V30 25 1 11 23
M  V30 26 1 11 24
M  V30 27 1 12 25
M  V30 28 1 12 26
M  V30 29 1 13 27
M  V30 30 1 13 28
M  V30 31 1 14 29
M  V30 32 1 15 30
M  V30 33 1 15 31
M  V30 34 1 15 32
M  V30 END BOND
M  V30 BEGIN COLLECTION
M  V30 MDLV30/STEABS ATOMS=(3 9 10 14)
M  V30 END COLLECTION
M  V30 END CTAB
M  END
>  <Structure No>
3734

>  <LogS>
0.6484

>  <MMFF94 Energy>
26.821

$$$$
Compound 3735
Actelion Java MolfileCreator 2.0

  0  0  0  0  0  0              0 V3000
M  V30 BEGIN CTAB
M  V30 COUNTS 15 16 0 0 0
M  V30 BEGIN ATOM
M  V30 1 O -3.0113 -2.1154 0.3252 0
M  V30 2 C -2.0727 -1.2806 0.2385 0
M  V30 3 N -2.3301 0.053 0.3604 0
M  V30 4 N -0.8027 -1.7158 0.023 0 CHG=-1
M  V30 5 C -1.328 0.9715 0.2696 0
M  V30 6 C 0.2255 -0.8359 -0.074 0
M  V30 7 O -1.5865 2.2001 0.385 0
M  V30 8 C -0.0166 0.5419 0.0484 0
M  V30 9 N 1.4929 -1.2752 -0.2893 0
M  V30 10 N 1.0206 1.4165 -0.0503 0
M  V30 11 C 2.5289 -0.3994 -0.3878 0
M  V30 12 C 2.2881 0.9733 -0.266 0
M  V30 13 H -3.3111 0.3753 0.526 0
M  V30 14 H 3.5323 -0.7653 -0.5595 0
M  V30 15 H 3.1031 1.6805 -0.3423 0
M  V30 END ATOM
M  V30 BEGIN BOND
M  V30 1 2 1 2
M  V30 2 1 2 3
M  V30 3 1 2 4
M  V30 4 1 3 5
M  V30 5 1 4 6
M  V30 6 2 5 7
M  V30 7 1 5 8
M  V30 8 1 6 9
M  V30 9 1 8 10
M  V30 10 2 9 11
M  V30 11 2 10 12
M  V30 12 2 6 8
M  V30 13 1 11 12
M  V30 14 1 3 13
M  V30 15 1 11 14
M  V30 16 1 12 15
M  V30 END BOND
M  V30 END CTAB
M  END
>  <Structure No>
3735

>  <LogS>
-2.1183

>  <MMFF94 Energy>
50.561

$$$$
Compound 3736
Actelion Java MolfileCreator 2.0

  0  0  0  0  0  0              0 V3000
M  V30 BEGIN CTAB
M  V30 COUNTS 21 21 0 0 0
M  V30 BEGIN ATOM
M  V30 1 O -0.2421 2.828 0.4843 0
M  V30 2 C 0.5966 1.9158 0.2613 0
M  V30 3 N 1.9915 2.0588 0.4817 0
M  V30 4 C 0.2829 0.5786 -0.2465 0
M  V30 5 C 2.5071 0.7887 0.113 0
M  V30 6 C 1.4301 -0.1049 -0.3184 0
M  V30 7 C -1.0954 0.0539 -0.536 0
M  V30 8 O 3.7295 0.4913 0.1626 0
M  V30 9 C 1.5923 -1.522 -0.7758 0
M  V30 10 C -1.7306 -0.5174 0.7333 0
M  V30 11 C -3.0991 -1.0457 0.4416 0
M  V30 12 O -4.103 -0.2912 0.5353 0
M  V30 13 O -3.2617 -2.3585 0.0177 0 CHG=-1
M  V30 14 H 2.5104 2.8916 0.8386 0
M  V30 15 H -1.723 0.8846 -0.9262 0
M  V30 16 H -1.046 -0.7299 -1.3229 0
M  V30 17 H 1.3461 -1.5956 -1.8557 0
M  V30 18 H 0.917 -2.187 -0.198 0
M  V30 19 H 2.638 -1.861 -0.623 0
M  V30 20 H -1.102 -1.3424 1.1332 0
M  V30 21 H -1.7981 0.2743 1.5118 0
M  V30 END ATOM
M  V30 BEGIN BOND
M  V30 1 2 1 2
M  V30 2 1 2 3
M  V30 3 1 2 4
M  V30 4 1 3 5
M  V30 5 2 4 6
M  V30 6 1 4 7
M  V30 7 2 5 8
M  V30 8 1 6 9
M  V30 9 1 7 10
M  V30 10 1 10 11
M  V30 11 2 11 12
M  V30 12 1 11 13
M  V30 13 1 5 6
M  V30 14 1 3 14
M  V30 15 1 7 15
M  V30 16 1 7 16
M  V30 17 1 9 17
M  V30 18 1 9 18
M  V30 19 1 9 19
M  V30 20 1 10 20
M  V30 21 1 10 21
M  V30 END BOND
M  V30 END CTAB
M  END
>  <Structure No>
3736

>  <LogS>
-0.6608

>  <MMFF94 Energy>
-73.486

$$$$
Compound 3737
Actelion Java MolfileCreator 2.0

  0  0  0  0  0  0              0 V3000
M  V30 BEGIN CTAB
M  V30 COUNTS 23 23 0 0 0
M  V30 BEGIN ATOM
M  V30 1 O -0.8684 -1.3424 1.4214 0
M  V30 2 C -0.7101 -1.2193 0.0294 0 CFG=1
M  V30 3 C -1.4345 0.0437 -0.4966 0 CFG=1
M  V30 4 C 0.7891 -1.1757 -0.3234 0 CFG=2
M  V30 5 O -2.7871 0.0282 -0.1185 0
M  V30 6 C -0.7744 1.3389 0.0153 0 CFG=1
M  V30 7 O 1.4216 -2.3049 0.2233 0
M  V30 8 C 1.4522 0.1115 0.2099 0 CFG=2
M  V30 9 O -0.9608 1.4625 1.4028 0
M  V30 10 C 0.7255 1.3573 -0.3289 0
M  V30 11 O 2.7961 0.1421 -0.1953 0
M  V30 12 H -1.7705 -1.7264 1.5778 0
M  V30 13 H -1.1468 -2.1134 -0.4754 0
M  V30 14 H -1.3701 0.0488 -1.6108 0
M  V30 15 H 0.8811 -1.1981 -1.4361 0
M  V30 16 H -3.2313 -0.6668 -0.6708 0
M  V30 17 H -1.2644 2.1981 -0.4999 0
M  V30 18 H 2.2528 -2.4532 -0.2986 0
M  V30 19 H 1.4004 0.1074 1.3243 0
M  V30 20 H -0.7724 2.4093 1.6349 0
M  V30 21 H 1.1903 2.272 0.0992 0
M  V30 22 H 0.8468 1.4082 -1.4337 0
M  V30 23 H 3.2528 0.8141 0.3753 0
M  V30 END ATOM
M  V30 BEGIN BOND
M  V30 1 1 1 2
M  V30 2 1 2 3
M  V30 3 1 2 4
M  V30 4 1 3 5
M  V30 5 1 3 6
M  V30 6 1 4 7
M  V30 7 1 4 8
M  V30 8 1 6 9
M  V30 9 1 6 10
M  V30 10 1 8 11
M  V30 11 1 8 10
M  V30 12 1 1 12
M  V30 13 1 2 13
M  V30 14 1 3 14
M  V30 15 1 4 15
M  V30 16 1 5 16
M  V30 17 1 6 17
M  V30 18 1 7 18
M  V30 19 1 8 19
M  V30 20 1 9 20
M  V30 21 1 10 21
M  V30 22 1 10 22
M  V30 23 1 11 23
M  V30 END BOND
M  V30 BEGIN COLLECTION
M  V30 MDLV30/STEABS ATOMS=(5 2 3 4 6 8)
M  V30 END COLLECTION
M  V30 END CTAB
M  END
>  <Structure No>
3737

>  <LogS>
-0.1739

>  <MMFF94 Energy>
77.598

$$$$
Compound 3738
Actelion Java MolfileCreator 2.0

  0  0  0  0  0  0              0 V3000
M  V30 BEGIN CTAB
M  V30 COUNTS 33 34 0 0 0
M  V30 BEGIN ATOM
M  V30 1 C 1.2615 0.0788 0.0788 0
M  V30 2 C 0.2062 0.9906 -0.0684 0
M  V30 3 C 1.1412 -1.3214 0.1702 0
M  V30 4 C 2.6726 0.6719 0.1453 0
M  V30 5 C -1.1555 0.7194 -0.1543 0
M  V30 6 C 0.0229 -2.1577 0.1439 0
M  V30 7 C 3.347 0.3785 1.4927 0
M  V30 8 C 3.542 0.1974 -1.0273 0
M  V30 9 C -1.8581 -0.5618 -0.1163 0
M  V30 10 C -2.1352 1.6995 -0.3005 0
M  V30 11 C -1.3389 -1.8559 0.0169 0
M  V30 12 C -3.2121 -0.2627 -0.2426 0
M  V30 13 C -3.3741 1.0989 -0.3532 0
M  V30 14 C -1.9148 3.1805 -0.3899 0
M  V30 15 C -2.3047 -3.0226 0.0262 0
M  V30 16 H 0.4751 2.0377 -0.1228 0
M  V30 17 H 2.0677 -1.8701 0.2814 0
M  V30 18 H 2.6315 1.7812 0.0624 0
M  V30 19 H 0.274 -3.2084 0.239 0
M  V30 20 H 4.3091 0.9299 1.5627 0
M  V30 21 H 2.6937 0.7153 2.326 0
M  V30 22 H 3.5581 -0.704 1.6167 0
M  V30 23 H 4.5094 0.7437 -1.0267 0
M  V30 24 H 3.7575 -0.8894 -0.9622 0
M  V30 25 H 3.0276 0.4052 -1.9899 0
M  V30 26 H -4.031 -0.9698 -0.255 0
M  V30 27 H -4.3223 1.609 -0.4631 0
M  V30 28 H -1.4169 3.5417 0.5341 0
M  V30 29 H -2.8814 3.7157 -0.5032 0
M  V30 30 H -1.2775 3.4119 -1.2688 0
M  V30 31 H -2.8736 -3.0474 -0.9273 0
M  V30 32 H -1.797 -4.0043 0.1362 0
M  V30 33 H -3.0132 -2.9176 0.8752 0
M  V30 END ATOM
M  V30 BEGIN BOND
M  V30 1 2 1 2
M  V30 2 1 1 3
M  V30 3 1 1 4
M  V30 4 1 2 5
M  V30 5 2 3 6
M  V30 6 1 4 7
M  V30 7 1 4 8
M  V30 8 1 5 9
M  V30 9 2 5 10
M  V30 10 1 6 11
M  V30 11 1 9 12
M  V30 12 1 10 13
M  V30 13 1 10 14
M  V30 14 1 11 15
M  V30 15 2 9 11
M  V30 16 2 12 13
M  V30 17 1 2 16
M  V30 18 1 3 17
M  V30 19 1 4 18
M  V30 20 1 6 19
M  V30 21 1 7 20
M  V30 22 1 7 21
M  V30 23 1 7 22
M  V30 24 1 8 23
M  V30 25 1 8 24
M  V30 26 1 8 25
M  V30 27 1 12 26
M  V30 28 1 13 27
M  V30 29 1 14 28
M  V30 30 1 14 29
M  V30 31 1 14 30
M  V30 32 1 15 31
M  V30 33 1 15 32
M  V30 34 1 15 33
M  V30 END BOND
M  V30 END CTAB
M  END
>  <Structure No>
3738

>  <LogS>
-5.4752

>  <MMFF94 Energy>
63.395

$$$$
Compound 3739
Actelion Java MolfileCreator 2.0

  0  0  0  0  0  0              0 V3000
M  V30 BEGIN CTAB
M  V30 COUNTS 57 59 0 0 0
M  V30 BEGIN ATOM
M  V30 1 O -3.2145 1.2045 2.8123 0
M  V30 2 C -2.9189 0.3861 1.8979 0
M  V30 3 O -1.6388 -0.1698 1.8427 0
M  V30 4 C -3.9517 -0.0375 0.9322 0
M  V30 5 C -0.6586 0.0793 2.8431 0
M  V30 6 C -3.6279 -0.3686 -0.4048 0
M  V30 7 C -5.2863 -0.1307 1.368 0
M  V30 8 O -2.3075 -0.1831 -0.8693 0
M  V30 9 C -4.6527 -0.845 -1.2538 0
M  V30 10 C -6.2854 -0.5836 0.5077 0
M  V30 11 C -1.8881 -0.3516 -2.2318 0 CFG=1
M  V30 12 C -5.9672 -0.9497 -0.797 0
M  V30 13 O -0.7328 0.4258 -2.4986 0
M  V30 14 C -1.7092 -1.8556 -2.5996 0 CFG=1
M  V30 15 C 0.4676 -0.0166 -1.8695 0 CFG=2
M  V30 16 O -2.2192 -2.1209 -3.8828 0
M  V30 17 C -0.2412 -2.3267 -2.5027 0 CFG=1
M  V30 18 C 0.5012 -1.5098 -1.4456 0 CFG=2
M  V30 19 C 0.8717 0.9509 -0.7468 0
M  V30 20 O -0.1826 -3.6915 -2.177 0
M  V30 21 O -0.0894 -1.6932 -0.1823 0
M  V30 22 O 2.2687 0.8633 -0.5174 0
M  V30 23 C 2.559 0.3972 0.7908 0 CFG=2
M  V30 24 O 2.221 1.3662 1.7725 0
M  V30 25 C 4.0612 0.0162 0.8946 0 CFG=2
M  V30 26 C 2.8458 2.6179 1.5195 0
M  V30 27 O 4.2305 -1.1888 1.6 0
M  V30 28 C 4.8976 1.1381 1.5492 0 CFG=2
M  V30 29 C 4.3443 2.5077 1.1347 0 CFG=2
M  V30 30 O 6.238 1.011 1.1483 0
M  V30 31 O 5.0831 3.5265 1.7576 0
M  V30 32 H -1.0542 -0.1998 3.8427 0
M  V30 33 H -0.3763 1.1533 2.838 0
M  V30 34 H 0.2382 -0.5368 2.6369 0
M  V30 35 H -5.5529 0.1249 2.3865 0
M  V30 36 H -4.4529 -1.1373 -2.2738 0
M  V30 37 H -7.3068 -0.6619 0.8576 0
M  V30 38 H -2.6784 0.0787 -2.8835 0
M  V30 39 H -6.7427 -1.3113 -1.46 0
M  V30 40 H -2.3088 -2.4553 -1.8802 0
M  V30 41 H 1.2524 0.0866 -2.6523 0
M  V30 42 H -1.7382 -1.5327 -4.5225 0
M  V30 43 H 0.2763 -2.162 -3.4779 0
M  V30 44 H 1.5678 -1.8381 -1.4108 0
M  V30 45 H 0.2373 0.7962 0.1546 0
M  V30 46 H 0.6596 1.9867 -1.0879 0
M  V30 47 H -0.4639 -4.1901 -2.9881 0
M  V30 48 H 0.2641 -2.5454 0.1834 0
M  V30 49 H 1.9728 -0.5268 0.9921 0
M  V30 50 H 4.4445 -0.1523 -0.1366 0
M  V30 51 H 2.7517 3.2241 2.4459 0
M  V30 52 H 2.2896 3.1677 0.7292 0
M  V30 53 H 3.8247 -1.0698 2.499 0
M  V30 54 H 4.8232 1.0489 2.6602 0
M  V30 55 H 4.4443 2.6006 0.0271 0
M  V30 56 H 6.789 1.4849 1.8247 0
M  V30 57 H 4.8522 4.3712 1.2895 0
M  V30 END ATOM
M  V30 BEGIN BOND
M  V30 1 2 1 2
M  V30 2 1 2 3
M  V30 3 1 2 4
M  V30 4 1 3 5
M  V30 5 2 4 6
M  V30 6 1 4 7
M  V30 7 1 6 8
M  V30 8 1 6 9
M  V30 9 2 7 10
M  V30 10 1 8 11
M  V30 11 2 9 12
M  V30 12 1 11 13
M  V30 13 1 11 14
M  V30 14 1 13 15
M  V30 15 1 14 16
M  V30 16 1 14 17
M  V30 17 1 15 18
M  V30 18 1 15 19
M  V30 19 1 17 20
M  V30 20 1 18 21
M  V30 21 1 19 22
M  V30 22 1 22 23
M  V30 23 1 23 24
M  V30 24 1 23 25
M  V30 25 1 24 26
M  V30 26 1 25 27
M  V30 27 1 25 28
M  V30 28 1 26 29
M  V30 29 1 28 30
M  V30 30 1 29 31
M  V30 31 1 10 12
M  V30 32 1 17 18
M  V30 33 1 28 29
M  V30 34 1 5 32
M  V30 35 1 5 33
M  V30 36 1 5 34
M  V30 37 1 7 35
M  V30 38 1 9 36
M  V30 39 1 10 37
M  V30 40 1 11 38
M  V30 41 1 12 39
M  V30 42 1 14 40
M  V30 43 1 15 41
M  V30 44 1 16 42
M  V30 45 1 17 43
M  V30 46 1 18 44
M  V30 47 1 19 45
M  V30 48 1 19 46
M  V30 49 1 20 47
M  V30 50 1 21 48
M  V30 51 1 23 49
M  V30 52 1 25 50
M  V30 53 1 26 51
M  V30 54 1 26 52
M  V30 55 1 27 53
M  V30 56 1 28 54
M  V30 57 1 29 55
M  V30 58 1 30 56
M  V30 59 1 31 57
M  V30 END BOND
M  V30 BEGIN COLLECTION
M  V30 MDLV30/STEABS ATOMS=(9 11 14 15 17 18 23 25 28 29)
M  V30 END COLLECTION
M  V30 END CTAB
M  END
>  <Structure No>
3739

>  <LogS>
-0.7418

>  <MMFF94 Energy>
226.9

$$$$
Compound 3740
Actelion Java MolfileCreator 2.0

  0  0  0  0  0  0              0 V3000
M  V30 BEGIN CTAB
M  V30 COUNTS 18 19 0 0 0
M  V30 BEGIN ATOM
M  V30 1 O 1.3512 -2.6242 0.3178 0
M  V30 2 C 1.2774 -1.3749 0.1574 0
M  V30 3 N 2.423 -0.6486 0.0243 0
M  V30 4 C 0.0255 -0.7291 0.1151 0
M  V30 5 C 2.4001 0.7001 -0.1508 0
M  V30 6 C -0.0118 0.6741 -0.0664 0
M  V30 7 C -1.1822 -1.4398 0.2485 0
M  V30 8 C 1.1861 1.3854 -0.1993 0
M  V30 9 C -1.2467 1.3401 -0.1118 0
M  V30 10 C -2.4048 -0.764 0.2014 0
M  V30 11 C -2.4371 0.6208 0.0219 0
M  V30 12 H 3.3476 -1.1346 0.0566 0
M  V30 13 H 3.3289 1.2473 -0.2532 0
M  V30 14 H -1.1844 -2.5137 0.3886 0
M  V30 15 H 1.1842 2.4599 -0.3394 0
M  V30 16 H -1.2907 2.4139 -0.2503 0
M  V30 17 H -3.3305 -1.3155 0.3045 0
M  V30 18 H -3.3871 1.1382 -0.0136 0
M  V30 END ATOM
M  V30 BEGIN BOND
M  V30 1 2 1 2
M  V30 2 1 2 3
M  V30 3 1 2 4
M  V30 4 1 3 5
M  V30 5 2 4 6
M  V30 6 1 4 7
M  V30 7 2 5 8
M  V30 8 1 6 9
M  V30 9 2 7 10
M  V30 10 2 9 11
M  V30 11 1 6 8
M  V30 12 1 10 11
M  V30 13 1 3 12
M  V30 14 1 5 13
M  V30 15 1 7 14
M  V30 16 1 8 15
M  V30 17 1 9 16
M  V30 18 1 10 17
M  V30 19 1 11 18
M  V30 END BOND
M  V30 END CTAB
M  END
>  <Structure No>
3740

>  <LogS>
-2.4842

>  <MMFF94 Energy>
24.46

$$$$
Compound 3741
Actelion Java MolfileCreator 2.0

  0  0  0  0  0  0              0 V3000
M  V30 BEGIN CTAB
M  V30 COUNTS 30 32 0 0 0
M  V30 BEGIN ATOM
M  V30 1 O -0.8025 2.5698 -0.2407 0
M  V30 2 C -0.6374 1.1879 -0.1457 0
M  V30 3 C 0.6828 0.6525 -0.1168 0
M  V30 4 C -1.7686 0.3192 -0.0701 0
M  V30 5 C 1.8599 1.4595 -0.1908 0
M  V30 6 C 0.8487 -0.7526 0.0091 0
M  V30 7 C -3.109 0.7885 0.0516 0
M  V30 8 C -1.5542 -1.0851 -0.0667 0
M  V30 9 O 1.8506 2.821 -0.5038 0
M  V30 10 C 3.1174 0.8828 0.0173 0
M  V30 11 C -0.2593 -1.6006 -0.0162 0
M  V30 12 C 2.1282 -1.31 0.1569 0
M  V30 13 O -3.3997 2.1392 0.2377 0
M  V30 14 C -4.1772 -0.1203 0.0343 0
M  V30 15 C -2.6419 -1.9726 -0.0698 0
M  V30 16 C 3.2587 -0.4929 0.2072 0
M  V30 17 C -3.9451 -1.4893 -0.0402 0
M  V30 18 C 4.6234 -1.0989 0.3562 0
M  V30 19 H -1.5426 3.0037 -0.775 0
M  V30 20 H 1.1792 3.2466 -1.1271 0
M  V30 21 H 3.9985 1.513 -0.015 0
M  V30 22 H -0.1131 -2.6751 0.0344 0
M  V30 23 H 2.2462 -2.384 0.2534 0
M  V30 24 H -4.3507 2.4749 0.3398 0
M  V30 25 H -5.1969 0.2372 0.1047 0
M  V30 26 H -2.483 -3.0447 -0.0843 0
M  V30 27 H -4.7787 -2.1799 -0.0423 0
M  V30 28 H 4.5771 -2.0212 0.9738 0
M  V30 29 H 5.3162 -0.3877 0.8548 0
M  V30 30 H 5.0258 -1.3539 -0.6463 0
M  V30 END ATOM
M  V30 BEGIN BOND
M  V30 1 1 1 2
M  V30 2 1 2 3
M  V30 3 2 2 4
M  V30 4 2 3 5
M  V30 5 1 3 6
M  V30 6 1 4 7
M  V30 7 1 4 8
M  V30 8 1 5 9
M  V30 9 1 5 10
M  V30 10 1 6 11
M  V30 11 2 6 12
M  V30 12 1 7 13
M  V30 13 2 7 14
M  V30 14 1 8 15
M  V30 15 2 10 16
M  V30 16 1 14 17
M  V30 17 1 16 18
M  V30 18 2 8 11
M  V30 19 1 12 16
M  V30 20 2 15 17
M  V30 21 1 1 19
M  V30 22 1 9 20
M  V30 23 1 10 21
M  V30 24 1 11 22
M  V30 25 1 12 23
M  V30 26 1 13 24
M  V30 27 1 14 25
M  V30 28 1 15 26
M  V30 29 1 17 27
M  V30 30 1 18 28
M  V30 31 1 18 29
M  V30 32 1 18 30
M  V30 END BOND
M  V30 END CTAB
M  END
>  <Structure No>
3741

>  <LogS>
-3.0585

>  <MMFF94 Energy>
56.766

$$$$
Compound 3742
Actelion Java MolfileCreator 2.0

  0  0  0  0  0  0              0 V3000
M  V30 BEGIN CTAB
M  V30 COUNTS 19 20 0 0 0
M  V30 BEGIN ATOM
M  V30 1 O 0.6418 -2.8907 -0.6418 0
M  V30 2 C 0.7356 -1.6913 -0.2679 0
M  V30 3 N 1.9138 -1.2375 0.2309 0
M  V30 4 C -0.3597 -0.8201 -0.3602 0
M  V30 5 C 2.0605 0.049 0.6462 0
M  V30 6 N -1.5688 -1.2186 -0.8528 0
M  V30 7 C -0.1916 0.5087 0.074 0
M  V30 8 N 1.0117 0.9152 0.5671 0
M  V30 9 N 3.3173 0.485 1.1646 0
M  V30 10 C -2.612 -0.3467 -0.9285 0
M  V30 11 N -1.2407 1.3751 -0.0051 0 CHG=1
M  V30 12 O -3.7226 -0.729 -1.3856 0
M  V30 13 C -2.4444 0.9745 -0.4966 0
M  V30 14 O -3.5005 1.8772 -0.5675 0 CHG=-1
M  V30 15 H -1.7092 -2.2022 -1.1791 0
M  V30 16 H 1.1347 1.9022 0.889 0
M  V30 17 H 3.4491 1.4689 1.4885 0
M  V30 18 H 4.121 -0.1786 1.2254 0
M  V30 19 H -1.1272 2.3638 0.3142 0
M  V30 END ATOM
M  V30 BEGIN BOND
M  V30 1 2 1 2
M  V30 2 1 2 3
M  V30 3 1 2 4
M  V30 4 2 3 5
M  V30 5 1 4 6
M  V30 6 2 4 7
M  V30 7 1 5 8
M  V30 8 1 5 9
M  V30 9 1 6 10
M  V30 10 1 7 11
M  V30 11 2 10 12
M  V30 12 1 10 13
M  V30 13 1 13 14
M  V30 14 1 7 8
M  V30 15 2 11 13
M  V30 16 1 6 15
M  V30 17 1 8 16
M  V30 18 1 9 17
M  V30 19 1 9 18
M  V30 20 1 11 19
M  V30 END BOND
M  V30 END CTAB
M  END
>  <Structure No>
3742

>  <LogS>
-5.1655

>  <MMFF94 Energy>
-92.827

$$$$
Compound 3743
Actelion Java MolfileCreator 2.0

  0  0  0  0  0  0              0 V3000
M  V30 BEGIN CTAB
M  V30 COUNTS 18 18 0 0 0
M  V30 BEGIN ATOM
M  V30 1 O -3.3501 -1.7537 -0.7171 0
M  V30 2 C -2.1124 -1.5173 -0.6929 0
M  V30 3 O -1.2319 -2.4977 -1.135 0 CHG=-1
M  V30 4 C -1.598 -0.2092 -0.2195 0
M  V30 5 C -0.1408 -0.0194 -0.0059 0
M  V30 6 C -2.4421 0.8046 0.0153 0
M  V30 7 C 0.5151 1.1217 -0.5054 0
M  V30 8 C 0.6036 -0.9769 0.7067 0
M  V30 9 C 1.8873 1.2956 -0.2993 0
M  V30 10 C 1.9754 -0.7978 0.9107 0
M  V30 11 C 2.6166 0.3367 0.4077 0
M  V30 12 H -2.0817 1.7595 0.378 0
M  V30 13 H -3.5088 0.6998 -0.1382 0
M  V30 14 H -0.0315 1.8703 -1.0656 0
M  V30 15 H 0.1208 -1.8547 1.1179 0
M  V30 16 H 2.3855 2.1736 -0.6898 0
M  V30 17 H 2.5408 -1.5379 1.4623 0
M  V30 18 H 3.6785 0.4732 0.5667 0
M  V30 END ATOM
M  V30 BEGIN BOND
M  V30 1 2 1 2
M  V30 2 1 2 3
M  V30 3 1 2 4
M  V30 4 1 4 5
M  V30 5 2 4 6
M  V30 6 2 5 7
M  V30 7 1 5 8
M  V30 8 1 7 9
M  V30 9 2 8 10
M  V30 10 2 9 11
M  V30 11 1 10 11
M  V30 12 1 6 12
M  V30 13 1 6 13
M  V30 14 1 7 14
M  V30 15 1 8 15
M  V30 16 1 9 16
M  V30 17 1 10 17
M  V30 18 1 11 18
M  V30 END BOND
M  V30 END CTAB
M  END
>  <Structure No>
3743

>  <LogS>
-2.0568

>  <MMFF94 Energy>
47.714

$$$$
Compound 3744
Actelion Java MolfileCreator 2.0

  0  0  0  0  0  0              0 V3000
M  V30 BEGIN CTAB
M  V30 COUNTS 25 25 0 0 0
M  V30 BEGIN ATOM
M  V30 1 O 0.8525 -1.0075 2.0159 0
M  V30 2 C 0.661 -0.0314 1.0236 0 CFG=2
M  V30 3 C -0.7841 -0.0583 0.5653 0
M  V30 4 C 1.638 -0.287 -0.1544 0 CFG=2
M  V30 5 C -1.526 1.1336 0.4868 0
M  V30 6 C -1.3917 -1.2692 0.1861 0
M  V30 7 N 3.0274 -0.3199 0.3236 0 CHG=1
M  V30 8 C 1.4914 0.7844 -1.2496 0
M  V30 9 C -2.8525 1.1117 0.0452 0
M  V30 10 C -2.7185 -1.2858 -0.2544 0
M  V30 11 C -3.4484 -0.0966 -0.3242 0
M  V30 12 H 0.4113 -0.6706 2.8395 0
M  V30 13 H 0.902 0.9689 1.456 0
M  V30 14 H 1.401 -1.2752 -0.61 0
M  V30 15 H -1.0775 2.0799 0.7625 0
M  V30 16 H -0.8377 -2.1984 0.2312 0
M  V30 17 H 3.6778 -0.4866 -0.4783 0
M  V30 18 H 3.1571 -1.1022 1.005 0
M  V30 19 H 3.2783 0.585 0.7851 0
M  V30 20 H 1.6654 1.7979 -0.8294 0
M  V30 21 H 0.4778 0.7485 -1.7011 0
M  V30 22 H 2.2265 0.6041 -2.0621 0
M  V30 23 H -3.4181 2.0327 -0.0127 0
M  V30 24 H -3.1803 -2.2209 -0.5433 0
M  V30 25 H -4.4751 -0.1112 -0.6664 0
M  V30 END ATOM
M  V30 BEGIN BOND
M  V30 1 1 1 2
M  V30 2 1 2 3
M  V30 3 1 2 4
M  V30 4 2 3 5
M  V30 5 1 3 6
M  V30 6 1 4 7
M  V30 7 1 4 8
M  V30 8 1 5 9
M  V30 9 2 6 10
M  V30 10 2 9 11
M  V30 11 1 10 11
M  V30 12 1 1 12
M  V30 13 1 2 13
M  V30 14 1 4 14
M  V30 15 1 5 15
M  V30 16 1 6 16
M  V30 17 1 7 17
M  V30 18 1 7 18
M  V30 19 1 7 19
M  V30 20 1 8 20
M  V30 21 1 8 21
M  V30 22 1 8 22
M  V30 23 1 9 23
M  V30 24 1 10 24
M  V30 25 1 11 25
M  V30 END BOND
M  V30 BEGIN COLLECTION
M  V30 MDLV30/STEABS ATOMS=(2 2 4)
M  V30 END COLLECTION
M  V30 END CTAB
M  END
>  <Structure No>
3744

>  <LogS>
-0.8786

>  <MMFF94 Energy>
57.02

$$$$
Compound 3745
Actelion Java MolfileCreator 2.0

  0  0  0  0  0  0              0 V3000
M  V30 BEGIN CTAB
M  V30 COUNTS 24 24 0 0 0
M  V30 BEGIN ATOM
M  V30 1 O -0.079 -1.3441 -0.4742 0
M  V30 2 C 1.1151 -1.3085 0.2902 0 CFG=1
M  V30 3 C -1.0207 -0.4084 0.0246 0 CFG=1
M  V30 4 O 1.9554 -2.3658 -0.0948 0
M  V30 5 C 1.8417 0.0392 0.1039 0 CFG=1
M  V30 6 C -0.4946 1.0389 -0.1617 0 CFG=2
M  V30 7 C -2.3417 -0.6234 -0.7339 0
M  V30 8 O 2.2533 0.1661 -1.2341 0
M  V30 9 C 0.9067 1.2115 0.473 0 CFG=1
M  V30 10 O -1.3928 1.9577 0.4065 0
M  V30 11 O -3.3775 0.1459 -0.1839 0
M  V30 12 O 0.8348 1.3853 1.8689 0
M  V30 13 H 0.8894 -1.4665 1.3689 0
M  V30 14 H -1.2281 -0.6073 1.1016 0
M  V30 15 H 1.9782 -2.3836 -1.0873 0
M  V30 16 H 2.7344 0.0537 0.7729 0
M  V30 17 H -0.4055 1.2332 -1.2572 0
M  V30 18 H -2.6187 -1.7023 -0.7056 0
M  V30 19 H -2.2148 -0.3444 -1.8019 0
M  V30 20 H 2.9683 0.8549 -1.2514 0
M  V30 21 H 1.3481 2.146 0.0618 0
M  V30 22 H -1.1633 2.8493 0.0349 0
M  V30 23 H -3.6442 -0.2991 0.6626 0
M  V30 24 H 0.3867 0.594 2.2614 0
M  V30 END ATOM
M  V30 BEGIN BOND
M  V30 1 1 1 2
M  V30 2 1 1 3
M  V30 3 1 2 4
M  V30 4 1 2 5
M  V30 5 1 3 6
M  V30 6 1 3 7
M  V30 7 1 5 8
M  V30 8 1 5 9
M  V30 9 1 6 10
M  V30 10 1 7 11
M  V30 11 1 9 12
M  V30 12 1 6 9
M  V30 13 1 2 13
M  V30 14 1 3 14
M  V30 15 1 4 15
M  V30 16 1 5 16
M  V30 17 1 6 17
M  V30 18 1 7 18
M  V30 19 1 7 19
M  V30 20 1 8 20
M  V30 21 1 9 21
M  V30 22 1 10 22
M  V30 23 1 11 23
M  V30 24 1 12 24
M  V30 END BOND
M  V30 BEGIN COLLECTION
M  V30 MDLV30/STEABS ATOMS=(5 2 3 5 6 9)
M  V30 END COLLECTION
M  V30 END CTAB
M  END
>  <Structure No>
3745

>  <LogS>
0.4433

>  <MMFF94 Energy>
81.632

$$$$
Compound 3746
Actelion Java MolfileCreator 2.0

  0  0  0  0  0  0              0 V3000
M  V30 BEGIN CTAB
M  V30 COUNTS 26 27 0 0 0
M  V30 BEGIN ATOM
M  V30 1 O 3.0533 0.0802 -2.4099 0
M  V30 2 C 2.5061 0.0164 -1.3196 0
M  V30 3 C 3.3527 -0.2087 -0.0903 0
M  V30 4 C 1.0075 0.1597 -1.2478 0
M  V30 5 C 2.654 0.1785 1.1905 0
M  V30 6 C 0.4554 -0.3579 0.0901 0
M  V30 7 O 3.3243 0.3773 2.192 0
M  V30 8 C 1.1563 0.3227 1.2769 0
M  V30 9 C -1.051 -0.1874 0.168 0
M  V30 10 C -1.6442 1.0901 0.1205 0
M  V30 11 C -1.8813 -1.3173 0.2898 0
M  V30 12 C -3.0336 1.229 0.1936 0
M  V30 13 C -3.2702 -1.1721 0.3624 0
M  V30 14 C -3.8458 0.0994 0.3143 0
M  V30 15 H 3.6528 -1.2765 -0.039 0
M  V30 16 H 4.2738 0.4069 -0.1843 0
M  V30 17 H 0.5479 -0.4251 -2.0747 0
M  V30 18 H 0.7516 1.2306 -1.3956 0
M  V30 19 H 0.6976 -1.4446 0.146 0
M  V30 20 H 0.9114 1.4056 1.3153 0
M  V30 21 H 0.801 -0.1479 2.2201 0
M  V30 22 H -1.0351 1.9796 0.0273 0
M  V30 23 H -1.4561 -2.3124 0.3289 0
M  V30 24 H -3.4809 2.2141 0.1564 0
M  V30 25 H -3.9008 -2.0468 0.456 0
M  V30 26 H -4.9211 0.2094 0.3707 0
M  V30 END ATOM
M  V30 BEGIN BOND
M  V30 1 2 1 2
M  V30 2 1 2 3
M  V30 3 1 2 4
M  V30 4 1 3 5
M  V30 5 1 4 6
M  V30 6 2 5 7
M  V30 7 1 5 8
M  V30 8 1 6 9
M  V30 9 2 9 10
M  V30 10 1 9 11
M  V30 11 1 10 12
M  V30 12 2 11 13
M  V30 13 2 12 14
M  V30 14 1 6 8
M  V30 15 1 13 14
M  V30 16 1 3 15
M  V30 17 1 3 16
M  V30 18 1 4 17
M  V30 19 1 4 18
M  V30 20 1 6 19
M  V30 21 1 8 20
M  V30 22 1 8 21
M  V30 23 1 10 22
M  V30 24 1 11 23
M  V30 25 1 12 24
M  V30 26 1 13 25
M  V30 27 1 14 26
M  V30 END BOND
M  V30 END CTAB
M  END
>  <Structure No>
3746

>  <LogS>
-2.5113

>  <MMFF94 Energy>
12.057

$$$$
Compound 3747
Actelion Java MolfileCreator 2.0

  0  0  0  0  0  0              0 V3000
M  V30 BEGIN CTAB
M  V30 COUNTS 27 28 0 0 0
M  V30 BEGIN ATOM
M  V30 1 N 3.3226 0.9484 1.4229 0
M  V30 2 C 1.9641 0.8863 1.4276 0
M  V30 3 C 4.0591 0.4309 0.4052 0
M  V30 4 C 1.277 0.2784 0.3628 0
M  V30 5 C 3.4242 -0.1875 -0.6719 0
M  V30 6 C 2.0307 -0.265 -0.6922 0
M  V30 7 C -0.2403 0.2033 0.3693 0 CFG=1
M  V30 8 N -0.8108 0.8192 -0.8456 0 CHG=1
M  V30 9 C -0.7265 -1.26 0.5319 0
M  V30 10 C -2.2797 0.9614 -0.7547 0
M  V30 11 C -2.1117 -1.4899 -0.097 0
M  V30 12 C -2.967 -0.223 -0.038 0
M  V30 13 H 1.4221 1.3115 2.2624 0
M  V30 14 H 5.1383 0.4976 0.4338 0
M  V30 15 H 4.0066 -0.6049 -1.4828 0
M  V30 16 H 1.5441 -0.7541 -1.526 0
M  V30 17 H -0.6145 0.7758 1.2509 0
M  V30 18 H -0.3963 1.7714 -0.9824 0
M  V30 19 H -0.5772 0.2421 -1.6874 0
M  V30 20 H -0.77 -1.5029 1.6164 0
M  V30 21 H -0.0149 -1.9757 0.0657 0
M  V30 22 H -2.5347 1.9017 -0.216 0
M  V30 23 H -2.6984 1.055 -1.7815 0
M  V30 24 H -2.6304 -2.3173 0.4335 0
M  V30 25 H -1.9915 -1.7942 -1.1602 0
M  V30 26 H -3.1432 0.0408 1.0281 0
M  V30 27 H -3.9575 -0.4194 -0.5027 0
M  V30 END ATOM
M  V30 BEGIN BOND
M  V30 1 2 1 2
M  V30 2 1 1 3
M  V30 3 1 2 4
M  V30 4 2 3 5
M  V30 5 2 4 6
M  V30 6 1 4 7
M  V30 7 1 7 8
M  V30 8 1 7 9
M  V30 9 1 8 10
M  V30 10 1 9 11
M  V30 11 1 10 12
M  V30 12 1 5 6
M  V30 13 1 11 12
M  V30 14 1 2 13
M  V30 15 1 3 14
M  V30 16 1 5 15
M  V30 17 1 6 16
M  V30 18 1 7 17
M  V30 19 1 8 18
M  V30 20 1 8 19
M  V30 21 1 9 20
M  V30 22 1 9 21
M  V30 23 1 10 22
M  V30 24 1 10 23
M  V30 25 1 11 24
M  V30 26 1 11 25
M  V30 27 1 12 26
M  V30 28 1 12 27
M  V30 END BOND
M  V30 BEGIN COLLECTION
M  V30 MDLV30/STEABS ATOMS=(1 7)
M  V30 END COLLECTION
M  V30 END CTAB
M  END
>  <Structure No>
3747

>  <LogS>
0.7898

>  <MMFF94 Energy>
12.427

$$$$
Compound 3748
Actelion Java MolfileCreator 2.0

  0  0  0  0  0  0              0 V3000
M  V30 BEGIN CTAB
M  V30 COUNTS 18 18 0 0 0
M  V30 BEGIN ATOM
M  V30 1 O -1.4918 1.8846 0.3924 0
M  V30 2 C -0.3871 1.0606 0.1776 0
M  V30 3 C -0.525 -0.3403 0.2359 0
M  V30 4 C 0.8654 1.6272 -0.0988 0
M  V30 5 C 0.5927 -1.1543 -0.0145 0
M  V30 6 C -1.866 -0.9755 0.4975 0
M  V30 7 C 1.9738 0.8094 -0.3293 0
M  V30 8 C 1.8411 -0.5808 -0.2912 0
M  V30 9 O -2.5507 -1.1683 -0.7094 0
M  V30 10 O 2.9537 -1.3839 -0.5315 0
M  V30 11 H -1.4165 2.8945 0.3543 0
M  V30 12 H 0.9796 2.703 -0.1391 0
M  V30 13 H 0.4938 -2.2328 0.0055 0
M  V30 14 H -2.472 -0.3553 1.1964 0
M  V30 15 H -1.7291 -1.962 0.9895 0
M  V30 16 H 2.9362 1.2567 -0.543 0
M  V30 17 H -2.9092 -0.2821 -0.9777 0
M  V30 18 H 2.8913 -2.395 -0.5119 0
M  V30 END ATOM
M  V30 BEGIN BOND
M  V30 1 1 1 2
M  V30 2 2 2 3
M  V30 3 1 2 4
M  V30 4 1 3 5
M  V30 5 1 3 6
M  V30 6 2 4 7
M  V30 7 2 5 8
M  V30 8 1 6 9
M  V30 9 1 8 10
M  V30 10 1 7 8
M  V30 11 1 1 11
M  V30 12 1 4 12
M  V30 13 1 5 13
M  V30 14 1 6 14
M  V30 15 1 6 15
M  V30 16 1 7 16
M  V30 17 1 9 17
M  V30 18 1 10 18
M  V30 END BOND
M  V30 END CTAB
M  END
>  <Structure No>
3748

>  <LogS>
0.8534

>  <MMFF94 Energy>
-7.7791

$$$$
Compound 3749
Actelion Java MolfileCreator 2.0

  0  0  0  0  0  0              0 V3000
M  V30 BEGIN CTAB
M  V30 COUNTS 29 30 0 0 0
M  V30 BEGIN ATOM
M  V30 1 O -7.0496 1.119 0.0798 0
M  V30 2 N -6.0871 1.2039 -0.7104 0
M  V30 3 C -4.8009 0.6606 -0.3958 0
M  V30 4 C -3.7619 0.7854 -1.3245 0
M  V30 5 C -4.5639 0.0 0.8202 0
M  V30 6 C -2.495 0.2641 -1.044 0
M  V30 7 C -3.298 -0.5224 1.1015 0
M  V30 8 C -2.2485 -0.3834 0.1802 0
M  V30 9 N -0.9601 -0.9402 0.4895 0
M  V30 10 N 0.2287 -0.4576 -0.0892 0
M  V30 11 C 1.4751 -1.1438 0.101 0
M  V30 12 O 1.474 -2.3052 0.5934 0
M  V30 13 C 2.7628 -0.524 -0.2958 0
M  V30 14 C 2.9083 0.8751 -0.3634 0
M  V30 15 C 3.8742 -1.3373 -0.588 0
M  V30 16 C 4.1317 1.4424 -0.7333 0
M  V30 17 C 5.0946 -0.7642 -0.9582 0
M  V30 18 C 5.2227 0.624 -1.0333 0
M  V30 19 H -3.9375 1.2813 -2.271 0
M  V30 20 H -5.355 -0.1133 1.5503 0
M  V30 21 H -1.7235 0.3481 -1.7966 0
M  V30 22 H -3.1318 -1.0294 2.0437 0
M  V30 23 H -0.9026 -1.6708 1.2353 0
M  V30 24 H 0.2096 0.4143 -0.6613 0
M  V30 25 H 2.0904 1.5354 -0.1078 0
M  V30 26 H 3.7962 -2.4164 -0.5406 0
M  V30 27 H 4.2357 2.5188 -0.7809 0
M  V30 28 H 5.9417 -1.3978 -1.1873 0
M  V30 29 H 6.1686 1.0659 -1.3186 0
M  V30 END ATOM
M  V30 BEGIN BOND
M  V30 1 2 1 2
M  V30 2 1 2 3
M  V30 3 2 3 4
M  V30 4 1 3 5
M  V30 5 1 4 6
M  V30 6 2 5 7
M  V30 7 2 6 8
M  V30 8 1 8 9
M  V30 9 1 9 10
M  V30 10 1 10 11
M  V30 11 2 11 12
M  V30 12 1 11 13
M  V30 13 2 13 14
M  V30 14 1 13 15
M  V30 15 1 14 16
M  V30 16 2 15 17
M  V30 17 2 16 18
M  V30 18 1 7 8
M  V30 19 1 17 18
M  V30 20 1 4 19
M  V30 21 1 5 20
M  V30 22 1 6 21
M  V30 23 1 7 22
M  V30 24 1 9 23
M  V30 25 1 10 24
M  V30 26 1 14 25
M  V30 27 1 15 26
M  V30 28 1 16 27
M  V30 29 1 17 28
M  V30 30 1 18 29
M  V30 END BOND
M  V30 END CTAB
M  END
>  <Structure No>
3749

>  <LogS>
-4.6835

>  <MMFF94 Energy>
81.053

$$$$
Compound 3750
Actelion Java MolfileCreator 2.0

  0  0  0  0  0  0              0 V3000
M  V30 BEGIN CTAB
M  V30 COUNTS 29 30 0 0 0
M  V30 BEGIN ATOM
M  V30 1 O 1.1974 1.5968 -0.5586 0
M  V30 2 C 1.7106 0.7054 0.1714 0
M  V30 3 N 0.8731 -0.0543 1.0603 0
M  V30 4 C 3.1776 0.4893 0.1375 0
M  V30 5 N -0.5214 -0.164 0.9026 0
M  V30 6 C 3.7489 -0.6896 0.6472 0
M  V30 7 C 4.0243 1.4582 -0.4283 0
M  V30 8 C -1.1145 -0.1869 -0.2524 0
M  V30 9 C 5.1337 -0.8668 0.5944 0
M  V30 10 C 5.4037 1.2401 -0.4596 0
M  V30 11 C -2.5884 -0.2883 -0.368 0
M  V30 12 N 5.9249 0.093 0.0482 0
M  V30 13 C -3.4472 -0.3187 0.7573 0
M  V30 14 C -3.1505 -0.3534 -1.6553 0
M  V30 15 O -2.9333 -0.2522 2.0524 0
M  V30 16 C -4.8351 -0.4158 0.5724 0
M  V30 17 C -4.5337 -0.4494 -1.8251 0
M  V30 18 C -5.3747 -0.4808 -0.713 0
M  V30 19 H 1.2843 -0.4012 1.9547 0
M  V30 20 H 3.1366 -1.4772 1.0659 0
M  V30 21 H 3.626 2.3792 -0.8352 0
M  V30 22 H -0.5252 -0.1661 -1.1611 0
M  V30 23 H 5.5792 -1.7722 0.9841 0
M  V30 24 H 6.0606 1.9847 -0.8889 0
M  V30 25 H -2.5168 -0.3305 -2.5335 0
M  V30 26 H -3.5364 -0.2726 2.8666 0
M  V30 27 H -5.498 -0.44 1.428 0
M  V30 28 H -4.9538 -0.4994 -2.8213 0
M  V30 29 H -6.4462 -0.5553 -0.847 0
M  V30 END ATOM
M  V30 BEGIN BOND
M  V30 1 2 1 2
M  V30 2 1 2 3
M  V30 3 1 2 4
M  V30 4 1 3 5
M  V30 5 2 4 6
M  V30 6 1 4 7
M  V30 7 2 5 8
M  V30 8 1 6 9
M  V30 9 2 7 10
M  V30 10 1 8 11
M  V30 11 2 9 12
M  V30 12 2 11 13
M  V30 13 1 11 14
M  V30 14 1 13 15
M  V30 15 1 13 16
M  V30 16 2 14 17
M  V30 17 2 16 18
M  V30 18 1 10 12
M  V30 19 1 17 18
M  V30 20 1 3 19
M  V30 21 1 6 20
M  V30 22 1 7 21
M  V30 23 1 8 22
M  V30 24 1 9 23
M  V30 25 1 10 24
M  V30 26 1 14 25
M  V30 27 1 15 26
M  V30 28 1 16 27
M  V30 29 1 17 28
M  V30 30 1 18 29
M  V30 END BOND
M  V30 END CTAB
M  END
>  <Structure No>
3750

>  <LogS>
-3.6835

>  <MMFF94 Energy>
68.598

$$$$
Compound 3751
Actelion Java MolfileCreator 2.0

  0  0  0  0  0  0              0 V3000
M  V30 BEGIN CTAB
M  V30 COUNTS 18 19 0 0 0
M  V30 BEGIN ATOM
M  V30 1 N -1.1899 1.428 0.2379 0
M  V30 2 C 0.0308 0.7348 0.1008 0
M  V30 3 C -2.2875 0.4805 0.0617 0
M  V30 4 C -0.1693 -0.5927 -0.1513 0
M  V30 5 C 1.3114 1.2792 0.1995 0
M  V30 6 C -1.6266 -0.8965 -0.2035 0
M  V30 7 C 0.9061 -1.4662 -0.3222 0
M  V30 8 C 2.4116 0.4219 0.0317 0
M  V30 9 C 2.2094 -0.9485 -0.2286 0
M  V30 10 H -1.2932 2.4486 0.4329 0
M  V30 11 H -2.9142 0.7887 -0.8023 0
M  V30 12 H -2.9071 0.4482 0.9834 0
M  V30 13 H 1.4544 2.3331 0.3999 0
M  V30 14 H -1.9038 -1.286 -1.2065 0
M  V30 15 H -1.8965 -1.6282 0.5879 0
M  V30 16 H 0.741 -2.517 -0.5219 0
M  V30 17 H 3.4174 0.8151 0.1026 0
M  V30 18 H 3.0604 -1.6044 -0.3571 0
M  V30 END ATOM
M  V30 BEGIN BOND
M  V30 1 1 1 2
M  V30 2 1 1 3
M  V30 3 2 2 4
M  V30 4 1 2 5
M  V30 5 1 3 6
M  V30 6 1 4 7
M  V30 7 2 5 8
M  V30 8 2 7 9
M  V30 9 1 4 6
M  V30 10 1 8 9
M  V30 11 1 1 10
M  V30 12 1 3 11
M  V30 13 1 3 12
M  V30 14 1 5 13
M  V30 15 1 6 14
M  V30 16 1 6 15
M  V30 17 1 7 16
M  V30 18 1 8 17
M  V30 19 1 9 18
M  V30 END BOND
M  V30 END CTAB
M  END
>  <Structure No>
3751

>  <LogS>
-1.0427

>  <MMFF94 Energy>
26.828

$$$$
Compound 3752
Actelion Java MolfileCreator 2.0

  0  0  0  0  0  0              0 V3000
M  V30 BEGIN CTAB
M  V30 COUNTS 14 13 0 0 0
M  V30 BEGIN ATOM
M  V30 1 O -1.6851 1.9151 -0.8423 0
M  V30 2 C -0.5939 1.4114 -0.4654 0
M  V30 3 C -0.5012 -0.031 -0.1408 0
M  V30 4 C 0.6299 -0.5805 0.3399 0
M  V30 5 C -1.7316 -0.8883 -0.281 0
M  V30 6 C 1.904 0.1811 0.5522 0
M  V30 7 H 0.2678 2.0597 -0.384 0
M  V30 8 H 0.642 -1.6342 0.5952 0
M  V30 9 H -1.4724 -1.965 -0.3744 0
M  V30 10 H -2.3002 -0.6025 -1.1911 0
M  V30 11 H -2.3805 -0.7506 0.6091 0
M  V30 12 H 1.743 0.9988 1.2861 0
M  V30 13 H 2.6844 -0.5003 0.9508 0
M  V30 14 H 2.2626 0.6017 -0.4108 0
M  V30 END ATOM
M  V30 BEGIN BOND
M  V30 1 2 1 2
M  V30 2 1 2 3
M  V30 3 2 3 4
M  V30 4 1 3 5
M  V30 5 1 4 6
M  V30 6 1 2 7
M  V30 7 1 4 8
M  V30 8 1 5 9
M  V30 9 1 5 10
M  V30 10 1 5 11
M  V30 11 1 6 12
M  V30 12 1 6 13
M  V30 13 1 6 14
M  V30 END BOND
M  V30 END CTAB
M  END
>  <Structure No>
3752

>  <LogS>
-0.527

>  <MMFF94 Energy>
16.056

$$$$
Compound 3753
Actelion Java MolfileCreator 2.0

  0  0  0  0  0  0              0 V3000
M  V30 BEGIN CTAB
M  V30 COUNTS 14 14 0 0 0
M  V30 BEGIN ATOM
M  V30 1 O 0.0 0.9386 0.7821 0
M  V30 2 C 0.6618 -0.2641 0.4743 0
M  V30 3 C -1.3503 0.6621 0.601 0
M  V30 4 O -0.1453 -1.1005 -0.3215 0
M  V30 5 C 1.9581 0.0436 -0.2637 0
M  V30 6 C -1.415 -0.5257 -0.3143 0
M  V30 7 H 0.9078 -0.7948 1.4209 0
M  V30 8 H -1.8601 1.5408 0.1512 0
M  V30 9 H -1.8152 0.4282 1.584 0
M  V30 10 H 2.6099 0.6848 0.3668 0
M  V30 11 H 1.739 0.5742 -1.2148 0
M  V30 12 H 2.4974 -0.9001 -0.4913 0
M  V30 13 H -2.1639 -1.2642 0.0437 0
M  V30 14 H -1.6757 -0.2074 -1.3469 0
M  V30 END ATOM
M  V30 BEGIN BOND
M  V30 1 1 1 2
M  V30 2 1 1 3
M  V30 3 1 2 4
M  V30 4 1 2 5
M  V30 5 1 3 6
M  V30 6 1 4 6
M  V30 7 1 2 7
M  V30 8 1 3 8
M  V30 9 1 3 9
M  V30 10 1 5 10
M  V30 11 1 5 11
M  V30 12 1 5 12
M  V30 13 1 6 13
M  V30 14 1 6 14
M  V30 END BOND
M  V30 END CTAB
M  END
>  <Structure No>
3753

>  <LogS>
0.8789

>  <MMFF94 Energy>
9.9361

$$$$
Compound 3754
Actelion Java MolfileCreator 2.0

  0  0  0  0  0  0              0 V3000
M  V30 BEGIN CTAB
M  V30 COUNTS 18 19 0 0 0
M  V30 BEGIN ATOM
M  V30 1 O -1.4539 -2.1815 -0.8075 0
M  V30 2 C -0.9688 -1.1547 -0.36 0
M  V30 3 C 0.1667 -1.0818 0.6116 0 CFG=2
M  V30 4 C -1.3624 0.2306 -0.7521 0
M  V30 5 C -0.202 0.1972 1.3335 0
M  V30 6 C 1.4066 -0.6385 -0.1824 0
M  V30 7 C -0.3235 1.0308 0.0671 0 CFG=1
M  V30 8 C 1.0733 0.8232 -0.5582 0
M  V30 9 H 0.2978 -1.9742 1.2599 0
M  V30 10 H -2.3978 0.4511 -0.4139 0
M  V30 11 H -1.261 0.395 -1.8465 0
M  V30 12 H -1.1626 0.1201 1.8951 0
M  V30 13 H 0.6002 0.5581 2.0184 0
M  V30 14 H 1.5657 -1.2692 -1.0851 0
M  V30 15 H 2.3127 -0.6806 0.4612 0
M  V30 16 H -0.5955 2.0948 0.234 0
M  V30 17 H 1.0634 0.9737 -1.6597 0
M  V30 18 H 1.8084 1.5206 -0.0992 0
M  V30 END ATOM
M  V30 BEGIN BOND
M  V30 1 2 1 2
M  V30 2 1 2 3
M  V30 3 1 2 4
M  V30 4 1 3 5
M  V30 5 1 3 6
M  V30 6 1 4 7
M  V30 7 1 6 8
M  V30 8 1 5 7
M  V30 9 1 7 8
M  V30 10 1 3 9
M  V30 11 1 4 10
M  V30 12 1 4 11
M  V30 13 1 5 12
M  V30 14 1 5 13
M  V30 15 1 6 14
M  V30 16 1 6 15
M  V30 17 1 7 16
M  V30 18 1 8 17
M  V30 19 1 8 18
M  V30 END BOND
M  V30 BEGIN COLLECTION
M  V30 MDLV30/STEABS ATOMS=(2 3 7)
M  V30 END COLLECTION
M  V30 END CTAB
M  END
>  <Structure No>
3754

>  <LogS>
-1.7565

>  <MMFF94 Energy>
20.475

$$$$
Compound 3755
Actelion Java MolfileCreator 2.0

  0  0  0  0  0  0              0 V3000
M  V30 BEGIN CTAB
M  V30 COUNTS 16 16 0 0 0
M  V30 BEGIN ATOM
M  V30 1 O 0.3323 2.5782 1.1637 0
M  V30 2 C 0.2515 1.4227 0.6674 0
M  V30 3 C -0.9838 0.9109 0.2448 0
M  V30 4 C 1.4011 0.6457 0.5375 0
M  V30 5 O -2.1495 1.6706 0.3649 0
M  V30 6 C -1.0202 -0.3877 -0.3036 0
M  V30 7 C 1.2941 -0.6368 -0.0161 0
M  V30 8 O 0.1064 -1.0917 -0.407 0
M  V30 9 C -2.2733 -1.0105 -0.7756 0
M  V30 10 C 2.475 -1.5007 -0.1771 0
M  V30 11 O -2.2464 -2.1737 -1.2568 0
M  V30 12 O -3.4888 -0.3404 -0.7013 0 CHG=-1
M  V30 13 O 3.6176 -1.1082 0.1801 0
M  V30 14 O 2.3321 -2.767 -0.73 0 CHG=-1
M  V30 15 H 2.3583 1.0363 0.8625 0
M  V30 16 H -2.148 2.6053 0.7555 0
M  V30 END ATOM
M  V30 BEGIN BOND
M  V30 1 2 1 2
M  V30 2 1 2 3
M  V30 3 1 2 4
M  V30 4 1 3 5
M  V30 5 2 3 6
M  V30 6 2 4 7
M  V30 7 1 6 8
M  V30 8 1 6 9
M  V30 9 1 7 10
M  V30 10 2 9 11
M  V30 11 1 9 12
M  V30 12 2 10 13
M  V30 13 1 10 14
M  V30 14 1 7 8
M  V30 15 1 4 15
M  V30 16 1 5 16
M  V30 END BOND
M  V30 END CTAB
M  END
>  <Structure No>
3755

>  <LogS>
-1.377

>  <MMFF94 Energy>
103.75

$$$$
Compound 3756
Actelion Java MolfileCreator 2.0

  0  0  0  0  0  0              0 V3000
M  V30 BEGIN CTAB
M  V30 COUNTS 22 22 0 0 0
M  V30 BEGIN ATOM
M  V30 1 O -1.8187 -2.1352 1.2649 0
M  V30 2 C -2.0939 -1.0266 0.7301 0
M  V30 3 C -0.9956 -0.1473 0.2437 0
M  V30 4 C -3.5366 -0.6362 0.6056 0
M  V30 5 C 0.346 -0.5529 0.3807 0
M  V30 6 C -1.2678 1.0953 -0.3574 0
M  V30 7 C 1.4005 0.2649 -0.0734 0
M  V30 8 C -0.227 1.9083 -0.8083 0
M  V30 9 O 2.7458 -0.1175 0.0519 0
M  V30 10 C 1.1017 1.5019 -0.6703 0
M  V30 11 C 3.1891 -1.3389 0.6346 0
M  V30 12 O 2.114 2.3423 -1.1335 0
M  V30 13 H -4.1925 -1.4272 1.0276 0
M  V30 14 H -3.7987 -0.4974 -0.4639 0
M  V30 15 H -3.7216 0.3062 1.1623 0
M  V30 16 H 0.5667 -1.506 0.8412 0
M  V30 17 H -2.2827 1.4473 -0.4831 0
M  V30 18 H -0.4545 2.8616 -1.2686 0
M  V30 19 H 2.8648 -1.3961 1.6951 0
M  V30 20 H 4.297 -1.3753 0.6001 0
M  V30 21 H 2.7874 -2.2024 0.0634 0
M  V30 22 H 3.0943 2.0989 -1.0595 0
M  V30 END ATOM
M  V30 BEGIN BOND
M  V30 1 2 1 2
M  V30 2 1 2 3
M  V30 3 1 2 4
M  V30 4 2 3 5
M  V30 5 1 3 6
M  V30 6 1 5 7
M  V30 7 2 6 8
M  V30 8 1 7 9
M  V30 9 2 7 10
M  V30 10 1 9 11
M  V30 11 1 10 12
M  V30 12 1 8 10
M  V30 13 1 4 13
M  V30 14 1 4 14
M  V30 15 1 4 15
M  V30 16 1 5 16
M  V30 17 1 6 17
M  V30 18 1 8 18
M  V30 19 1 11 19
M  V30 20 1 11 20
M  V30 21 1 11 21
M  V30 22 1 12 22
M  V30 END BOND
M  V30 END CTAB
M  END
>  <Structure No>
3756

>  <LogS>
-1.5216

>  <MMFF94 Energy>
41.061

$$$$
Compound 3757
Actelion Java MolfileCreator 2.0

  0  0  0  0  0  0              0 V3000
M  V30 BEGIN CTAB
M  V30 COUNTS 19 18 0 0 0
M  V30 BEGIN ATOM
M  V30 1 O -2.7095 0.0773 1.4701 0
M  V30 2 C -2.3773 -0.6176 0.4734 0
M  V30 3 O -3.1966 -1.6616 0.0628 0 CHG=-1
M  V30 4 C -1.0894 -0.3397 -0.2559 0 CFG=1
M  V30 5 N -1.0333 1.0692 -0.6675 0 CHG=1
M  V30 6 C 0.1094 -0.7288 0.6399 0
M  V30 7 C 1.4707 -0.6496 -0.0817 0
M  V30 8 C 2.2396 0.6271 0.2586 0
M  V30 9 H -1.0715 -0.9788 -1.1678 0
M  V30 10 H -0.9035 1.6937 0.1619 0
M  V30 11 H -0.2479 1.2126 -1.3413 0
M  V30 12 H -1.9191 1.3332 -1.1579 0
M  V30 13 H -0.0376 -1.7826 0.9667 0
M  V30 14 H 0.1151 -0.1097 1.5647 0
M  V30 15 H 2.0956 -1.5133 0.2346 0
M  V30 16 H 1.3454 -0.7273 -1.1834 0
M  V30 17 H 3.2036 0.6366 -0.2919 0
M  V30 18 H 1.6635 1.5301 -0.0263 0
M  V30 19 H 2.4564 0.665 1.3474 0
M  V30 END ATOM
M  V30 BEGIN BOND
M  V30 1 2 1 2
M  V30 2 1 2 3
M  V30 3 1 2 4
M  V30 4 1 4 5
M  V30 5 1 4 6
M  V30 6 1 6 7
M  V30 7 1 7 8
M  V30 8 1 4 9
M  V30 9 1 5 10
M  V30 10 1 5 11
M  V30 11 1 5 12
M  V30 12 1 6 13
M  V30 13 1 6 14
M  V30 14 1 7 15
M  V30 15 1 7 16
M  V30 16 1 8 17
M  V30 17 1 8 18
M  V30 18 1 8 19
M  V30 END BOND
M  V30 BEGIN COLLECTION
M  V30 MDLV30/STEABS ATOMS=(1 4)
M  V30 END COLLECTION
M  V30 END CTAB
M  END
>  <Structure No>
3757

>  <LogS>
-0.0687

>  <MMFF94 Energy>
-9.6231

$$$$
Compound 3758
Actelion Java MolfileCreator 2.0

  0  0  0  0  0  0              0 V3000
M  V30 BEGIN CTAB
M  V30 COUNTS 13 12 0 0 0
M  V30 BEGIN ATOM
M  V30 1 O -0.6477 2.5929 0.8907 0
M  V30 2 C -1.1814 1.5292 0.475 0
M  V30 3 O -2.5657 1.4813 0.3587 0 CHG=-1
M  V30 4 C -0.3504 0.3485 0.1159 0
M  V30 5 C 0.9958 0.4199 0.2379 0
M  V30 6 C -1.0406 -0.9007 -0.3767 0
M  V30 7 C 1.9664 -0.6536 -0.073 0
M  V30 8 O 1.6066 -1.7818 -0.4991 0
M  V30 9 O 3.3204 -0.4061 0.1118 0 CHG=-1
M  V30 10 H 1.4399 1.3405 0.5965 0
M  V30 11 H -2.1427 -0.7851 -0.4148 0
M  V30 12 H -0.8228 -1.7487 0.306 0
M  V30 13 H -0.6999 -1.1417 -1.4055 0
M  V30 END ATOM
M  V30 BEGIN BOND
M  V30 1 2 1 2
M  V30 2 1 2 3
M  V30 3 1 2 4
M  V30 4 2 4 5
M  V30 5 1 4 6
M  V30 6 1 5 7
M  V30 7 2 7 8
M  V30 8 1 7 9
M  V30 9 1 5 10
M  V30 10 1 6 11
M  V30 11 1 6 12
M  V30 12 1 6 13
M  V30 END BOND
M  V30 END CTAB
M  END
>  <Structure No>
3758

>  <LogS>
0.7795

>  <MMFF94 Energy>
59.366

$$$$
Compound 3759
Actelion Java MolfileCreator 2.0

  0  0  0  0  0  0              0 V3000
M  V30 BEGIN CTAB
M  V30 COUNTS 25 25 0 0 0
M  V30 BEGIN ATOM
M  V30 1 O 2.1909 -1.3297 1.7211 0
M  V30 2 C 1.5266 -0.6493 0.7005 0
M  V30 3 C 2.2505 -0.1368 -0.39 0
M  V30 4 C 0.1366 -0.476 0.7616 0
M  V30 5 C 1.5699 0.5455 -1.4099 0
M  V30 6 C 3.7401 -0.3184 -0.4627 0
M  V30 7 C -0.5473 0.2081 -0.2602 0
M  V30 8 C 0.185 0.7162 -1.3455 0
M  V30 9 C -2.0514 0.4011 -0.2037 0
M  V30 10 C -2.7829 -0.9462 -0.2214 0
M  V30 11 C -2.4567 1.2329 1.0189 0
M  V30 12 H 1.6933 -1.7089 2.5183 0
M  V30 13 H -0.4077 -0.8758 1.6074 0
M  V30 14 H 2.1101 0.9474 -2.258 0
M  V30 15 H 4.2179 0.1579 0.419 0
M  V30 16 H 3.9845 -1.4014 -0.4684 0
M  V30 17 H 4.1642 0.1407 -1.3809 0
M  V30 18 H -0.3145 1.2469 -2.1465 0
M  V30 19 H -2.3865 0.9636 -1.1039 0
M  V30 20 H -2.4752 -1.5343 -1.1123 0
M  V30 21 H -2.5601 -1.5358 0.693 0
M  V30 22 H -3.8803 -0.7821 -0.2763 0
M  V30 23 H -1.9157 2.2034 1.0151 0
M  V30 24 H -3.547 1.4438 0.9906 0
M  V30 25 H -2.2259 0.6966 1.9637 0
M  V30 END ATOM
M  V30 BEGIN BOND
M  V30 1 1 1 2
M  V30 2 2 2 3
M  V30 3 1 2 4
M  V30 4 1 3 5
M  V30 5 1 3 6
M  V30 6 2 4 7
M  V30 7 2 5 8
M  V30 8 1 7 9
M  V30 9 1 9 10
M  V30 10 1 9 11
M  V30 11 1 7 8
M  V30 12 1 1 12
M  V30 13 1 4 13
M  V30 14 1 5 14
M  V30 15 1 6 15
M  V30 16 1 6 16
M  V30 17 1 6 17
M  V30 18 1 8 18
M  V30 19 1 9 19
M  V30 20 1 10 20
M  V30 21 1 10 21
M  V30 22 1 10 22
M  V30 23 1 11 23
M  V30 24 1 11 24
M  V30 25 1 11 25
M  V30 END BOND
M  V30 END CTAB
M  END
>  <Structure No>
3759

>  <LogS>
-2.0798

>  <MMFF94 Energy>
16.037

$$$$
Compound 3760
Actelion Java MolfileCreator 2.0

  0  0  0  0  0  0              0 V3000
M  V30 BEGIN CTAB
M  V30 COUNTS 40 41 0 0 0
M  V30 BEGIN ATOM
M  V30 1 O 1.5839 1.9009 -0.3166 0
M  V30 2 C 1.9756 0.7537 0.0351 0
M  V30 3 O 1.0474 -0.2089 0.4531 0
M  V30 4 C 3.4173 0.4234 0.0149 0
M  V30 5 C -0.3652 3.0E-4 0.4517 0 CFG=1
M  V30 6 C 4.3679 1.377 -0.3961 0
M  V30 7 C 3.8582 -0.8538 0.4066 0
M  V30 8 C -0.9046 -0.0851 -0.9831 0
M  V30 9 C -1.0179 -1.0796 1.3155 0
M  V30 10 C 5.7291 1.0567 -0.4132 0
M  V30 11 C 5.2206 -1.1685 0.3875 0
M  V30 12 C -2.4537 -0.0097 -1.0518 0
M  V30 13 C -2.5562 -1.0126 1.2754 0 CFG=2
M  V30 14 C 6.155 -0.2145 -0.0218 0
M  V30 15 N -3.0821 -0.9825 -0.1122 0 CHG=1
M  V30 16 C -2.8822 -0.3763 -2.4943 0
M  V30 17 C -2.9482 1.4366 -0.7943 0
M  V30 18 C -3.1283 0.0991 2.1776 0
M  V30 19 H -0.5774 0.9975 0.891 0
M  V30 20 H 4.061 2.3689 -0.704 0
M  V30 21 H 3.1525 -1.6099 0.7275 0
M  V30 22 H -0.4618 0.7302 -1.5958 0
M  V30 23 H -0.5591 -1.0476 -1.4235 0
M  V30 24 H -0.6611 -0.9833 2.3645 0
M  V30 25 H -0.6947 -2.0794 0.9483 0
M  V30 26 H 6.4542 1.7951 -0.7303 0
M  V30 27 H 5.5519 -2.1534 0.6904 0
M  V30 28 H -2.9138 -1.9628 1.7374 0
M  V30 29 H 7.2089 -0.4604 -0.0358 0
M  V30 30 H -4.1195 -0.839 -0.0905 0
M  V30 31 H -2.9401 -1.9471 -0.4976 0
M  V30 32 H -3.9879 -0.3244 -2.5964 0
M  V30 33 H -2.4279 0.3181 -3.2343 0
M  V30 34 H -2.5618 -1.4081 -2.7543 0
M  V30 35 H -4.0562 1.4645 -0.7177 0
M  V30 36 H -2.5225 1.8792 0.1208 0
M  V30 37 H -2.6455 2.1069 -1.6279 0
M  V30 38 H -2.5432 1.0355 2.1223 0
M  V30 39 H -3.091 -0.2321 3.2376 0
M  V30 40 H -4.189 0.3106 1.9272 0
M  V30 END ATOM
M  V30 BEGIN BOND
M  V30 1 2 1 2
M  V30 2 1 2 3
M  V30 3 1 2 4
M  V30 4 1 3 5
M  V30 5 2 4 6
M  V30 6 1 4 7
M  V30 7 1 5 8
M  V30 8 1 5 9
M  V30 9 1 6 10
M  V30 10 2 7 11
M  V30 11 1 8 12
M  V30 12 1 9 13
M  V30 13 2 10 14
M  V30 14 1 12 15
M  V30 15 1 12 16
M  V30 16 1 12 17
M  V30 17 1 13 18
M  V30 18 1 11 14
M  V30 19 1 13 15
M  V30 20 1 5 19
M  V30 21 1 6 20
M  V30 22 1 7 21
M  V30 23 1 8 22
M  V30 24 1 8 23
M  V30 25 1 9 24
M  V30 26 1 9 25
M  V30 27 1 10 26
M  V30 28 1 11 27
M  V30 29 1 13 28
M  V30 30 1 14 29
M  V30 31 1 15 30
M  V30 32 1 15 31
M  V30 33 1 16 32
M  V30 34 1 16 33
M  V30 35 1 16 34
M  V30 36 1 17 35
M  V30 37 1 17 36
M  V30 38 1 17 37
M  V30 39 1 18 38
M  V30 40 1 18 39
M  V30 41 1 18 40
M  V30 END BOND
M  V30 BEGIN COLLECTION
M  V30 MDLV30/STEABS ATOMS=(2 5 13)
M  V30 END COLLECTION
M  V30 END CTAB
M  END
>  <Structure No>
3760

>  <LogS>
-1.922

>  <MMFF94 Energy>
36.25

$$$$
Compound 3761
Actelion Java MolfileCreator 2.0

  0  0  0  0  0  0              0 V3000
M  V30 BEGIN CTAB
M  V30 COUNTS 18 18 0 0 0
M  V30 BEGIN ATOM
M  V30 1 O 4.0189 0.2407 -1.0437 0
M  V30 2 C 3.6339 0.4586 0.135 0
M  V30 3 O 4.5534 0.8824 1.0864 0 CHG=-1
M  V30 4 C 2.2239 0.2733 0.5068 0
M  V30 5 O 1.8683 0.5059 1.6936 0
M  V30 6 N 1.2712 -0.2051 -0.4577 0
M  V30 7 C -0.1529 -0.1883 -0.2575 0
M  V30 8 C -0.941 -1.1976 -0.8333 0
M  V30 9 C -0.7834 0.8507 0.4526 0
M  V30 10 C -2.3298 -1.1907 -0.6717 0
M  V30 11 C -2.1729 0.8545 0.6112 0
M  V30 12 C -2.9451 -0.1674 0.0535 0
M  V30 13 H 1.6356 -0.6745 -1.3174 0
M  V30 14 H -0.4762 -1.9952 -1.3993 0
M  V30 15 H -0.2096 1.6712 0.8619 0
M  V30 16 H -2.9292 -1.9776 -1.1107 0
M  V30 17 H -2.6522 1.6555 1.1592 0
M  V30 18 H -4.0204 -0.1617 0.176 0
M  V30 END ATOM
M  V30 BEGIN BOND
M  V30 1 2 1 2
M  V30 2 1 2 3
M  V30 3 1 2 4
M  V30 4 2 4 5
M  V30 5 1 4 6
M  V30 6 1 6 7
M  V30 7 2 7 8
M  V30 8 1 7 9
M  V30 9 1 8 10
M  V30 10 2 9 11
M  V30 11 2 10 12
M  V30 12 1 11 12
M  V30 13 1 6 13
M  V30 14 1 8 14
M  V30 15 1 9 15
M  V30 16 1 10 16
M  V30 17 1 11 17
M  V30 18 1 12 18
M  V30 END BOND
M  V30 END CTAB
M  END
>  <Structure No>
3761

>  <LogS>
-1.3019

>  <MMFF94 Energy>
108.08

$$$$
Compound 3762
Actelion Java MolfileCreator 2.0

  0  0  0  0  0  0              0 V3000
M  V30 BEGIN CTAB
M  V30 COUNTS 25 25 0 0 0
M  V30 BEGIN ATOM
M  V30 1 Cl 1.6812 -2.0818 1.1205 0
M  V30 2 C 2.7493 -1.5436 -0.2046 0
M  V30 3 C 3.054 -0.0487 -0.1021 0
M  V30 4 C 1.8198 0.7726 -0.3307 0
M  V30 5 O 1.4481 1.0165 -1.5108 0
M  V30 6 N 1.0428 1.2341 0.7833 0
M  V30 7 C -0.2807 1.8296 0.6199 0
M  V30 8 C -1.2784 0.771 0.2362 0
M  V30 9 C -1.6696 -0.1977 1.1753 0
M  V30 10 C -1.7933 0.7118 -1.0695 0
M  V30 11 C -2.5702 -1.2046 0.815 0
M  V30 12 C -2.6945 -0.2963 -1.4255 0
M  V30 13 C -3.0832 -1.2534 -0.484 0
M  V30 14 H 2.269 -1.774 -1.1798 0
M  V30 15 H 3.6992 -2.1149 -0.1404 0
M  V30 16 H 3.8146 0.2187 -0.8671 0
M  V30 17 H 3.4883 0.1786 0.8952 0
M  V30 18 H 1.4071 1.0924 1.7525 0
M  V30 19 H -0.2375 2.6445 -0.1352 0
M  V30 20 H -0.597 2.2912 1.5805 0
M  V30 21 H -1.272 -0.1749 2.1825 0
M  V30 22 H -1.4954 1.4419 -1.8119 0
M  V30 23 H -2.8682 -1.9489 1.5422 0
M  V30 24 H -3.0894 -0.3376 -2.4324 0
M  V30 25 H -3.7795 -2.034 -0.7617 0
M  V30 END ATOM
M  V30 BEGIN BOND
M  V30 1 1 1 2
M  V30 2 1 2 3
M  V30 3 1 3 4
M  V30 4 2 4 5
M  V30 5 1 4 6
M  V30 6 1 6 7
M  V30 7 1 7 8
M  V30 8 2 8 9
M  V30 9 1 8 10
M  V30 10 1 9 11
M  V30 11 2 10 12
M  V30 12 2 11 13
M  V30 13 1 12 13
M  V30 14 1 2 14
M  V30 15 1 2 15
M  V30 16 1 3 16
M  V30 17 1 3 17
M  V30 18 1 6 18
M  V30 19 1 7 19
M  V30 20 1 7 20
M  V30 21 1 9 21
M  V30 22 1 10 22
M  V30 23 1 11 23
M  V30 24 1 12 24
M  V30 25 1 13 25
M  V30 END BOND
M  V30 END CTAB
M  END
>  <Structure No>
3762

>  <LogS>
-3.2959

>  <MMFF94 Energy>
-19.313

$$$$
Compound 3763
Actelion Java MolfileCreator 2.0

  0  0  0  0  0  0              0 V3000
M  V30 BEGIN CTAB
M  V30 COUNTS 16 15 0 0 0
M  V30 BEGIN ATOM
M  V30 1 O -2.7821 -0.6353 1.43 0
M  V30 2 C -2.5492 0.2426 0.5565 0
M  V30 3 N -1.2252 0.4243 0.03 0
M  V30 4 N -3.6183 1.0637 0.0882 0
M  V30 5 C -0.0841 -0.3494 0.4353 0
M  V30 6 O -0.2027 -1.2564 1.3046 0
M  V30 7 C 1.2317 -0.075 -0.1745 0
M  V30 8 C 2.3322 -0.7594 0.159 0
M  V30 9 C 3.6399 -0.4796 -0.4534 0
M  V30 10 O 4.6456 -1.1516 -0.1055 0
M  V30 11 O 3.7839 0.5169 -1.4123 0 CHG=-1
M  V30 12 H -1.0875 1.1667 -0.6924 0
M  V30 13 H -3.4483 1.7973 -0.6348 0
M  V30 14 H -4.584 0.9387 0.4654 0
M  V30 15 H 1.2922 0.7115 -0.917 0
M  V30 16 H 2.2783 -1.5474 0.9011 0
M  V30 END ATOM
M  V30 BEGIN BOND
M  V30 1 2 1 2
M  V30 2 1 2 3
M  V30 3 1 2 4
M  V30 4 1 3 5
M  V30 5 2 5 6
M  V30 6 1 5 7
M  V30 7 2 7 8
M  V30 8 1 8 9
M  V30 9 2 9 10
M  V30 10 1 9 11
M  V30 11 1 3 12
M  V30 12 1 4 13
M  V30 13 1 4 14
M  V30 14 1 7 15
M  V30 15 1 8 16
M  V30 END BOND
M  V30 END CTAB
M  END
>  <Structure No>
3763

>  <LogS>
-1.9202

>  <MMFF94 Energy>
-134.8

$$$$
Compound 3764
Actelion Java MolfileCreator 2.0

  0  0  0  0  0  0              0 V3000
M  V30 BEGIN CTAB
M  V30 COUNTS 22 21 0 0 0
M  V30 BEGIN ATOM
M  V30 1 S -1.972 -2.0578 2.1437 0
M  V30 2 C -1.8963 -1.068 0.848 0
M  V30 3 S -0.5879 -1.3042 -0.3606 0
M  V30 4 O -2.8748 -0.0815 0.6939 0
M  V30 5 S 0.6675 0.177 0.5227 0
M  V30 6 C -2.9249 0.8012 -0.4219 0
M  V30 7 C 1.7475 -1.0414 1.2836 0
M  V30 8 C -4.1217 1.728 -0.2835 0
M  V30 9 S 1.4933 -1.4626 2.8397 0
M  V30 10 O 2.8128 -1.6307 0.5922 0
M  V30 11 C 3.2198 -1.2608 -0.7236 0
M  V30 12 C 4.0268 0.0317 -0.6935 0
M  V30 13 H -3.0232 0.2151 -1.3612 0
M  V30 14 H -1.9963 1.4098 -0.4638 0
M  V30 15 H -5.0596 1.1341 -0.2479 0
M  V30 16 H -4.1643 2.418 -1.1525 0
M  V30 17 H -4.0328 2.326 0.6482 0
M  V30 18 H 3.8629 -2.0685 -1.1316 0
M  V30 19 H 2.3409 -1.157 -1.3949 0
M  V30 20 H 3.4057 0.8707 -0.3178 0
M  V30 21 H 4.9105 -0.0895 -0.032 0
M  V30 22 H 4.3756 0.2776 -1.7184 0
M  V30 END ATOM
M  V30 BEGIN BOND
M  V30 1 2 1 2
M  V30 2 1 2 3
M  V30 3 1 2 4
M  V30 4 1 3 5
M  V30 5 1 4 6
M  V30 6 1 5 7
M  V30 7 1 6 8
M  V30 8 2 7 9
M  V30 9 1 7 10
M  V30 10 1 10 11
M  V30 11 1 11 12
M  V30 12 1 6 13
M  V30 13 1 6 14
M  V30 14 1 8 15
M  V30 15 1 8 16
M  V30 16 1 8 17
M  V30 17 1 11 18
M  V30 18 1 11 19
M  V30 19 1 12 20
M  V30 20 1 12 21
M  V30 21 1 12 22
M  V30 END BOND
M  V30 END CTAB
M  END
>  <Structure No>
3764

>  <LogS>
-4.9432

>  <MMFF94 Energy>
0.25421

$$$$
Compound 3765
Actelion Java MolfileCreator 2.0

  0  0  0  0  0  0              0 V3000
M  V30 BEGIN CTAB
M  V30 COUNTS 10 10 0 0 0
M  V30 BEGIN ATOM
M  V30 1 O 0.1562 -1.0942 0.7033 0
M  V30 2 C -0.9327 -0.2952 0.3095 0
M  V30 3 C 1.0573 -0.2125 0.0789 0
M  V30 4 C -0.0447 0.7037 -0.3859 0
M  V30 5 H -1.6015 -0.843 -0.3905 0
M  V30 6 H -1.4585 0.1318 1.1919 0
M  V30 7 H 1.7339 0.2644 0.8218 0
M  V30 8 H 1.591 -0.7103 -0.7605 0
M  V30 9 H -0.1729 0.7092 -1.4901 0
M  V30 10 H -0.0282 1.6968 0.1132 0
M  V30 END ATOM
M  V30 BEGIN BOND
M  V30 1 1 1 2
M  V30 2 1 1 3
M  V30 3 1 2 4
M  V30 4 1 3 4
M  V30 5 1 2 5
M  V30 6 1 2 6
M  V30 7 1 3 7
M  V30 8 1 3 8
M  V30 9 1 4 9
M  V30 10 1 4 10
M  V30 END BOND
M  V30 END CTAB
M  END
>  <Structure No>
3765

>  <LogS>
1.236

>  <MMFF94 Energy>
6.1249

$$$$
Compound 3766
Actelion Java MolfileCreator 2.0

  0  0  0  0  0  0              0 V3000
M  V30 BEGIN CTAB
M  V30 COUNTS 11 10 0 0 0
M  V30 BEGIN ATOM
M  V30 1 O 2.8852 -0.4674 0.2336 0
M  V30 2 C 1.6931 -0.2927 -0.1307 0
M  V30 3 O 1.3851 -0.3777 -1.4828 0 CHG=-1
M  V30 4 C 0.6659 -0.0043 0.8914 0
M  V30 5 C -0.6381 0.2037 0.6574 0
M  V30 6 C -1.2791 0.1779 -0.6958 0
M  V30 7 H 0.9995 0.0428 1.9214 0
M  V30 8 H -1.2798 0.4057 1.5071 0
M  V30 9 H -0.8374 0.963 -1.3447 0
M  V30 10 H -1.1553 -0.8227 -1.1602 0
M  V30 11 H -2.3658 0.3818 -0.5948 0
M  V30 END ATOM
M  V30 BEGIN BOND
M  V30 1 2 1 2
M  V30 2 1 2 3
M  V30 3 1 2 4
M  V30 4 2 4 5
M  V30 5 1 5 6
M  V30 6 1 4 7
M  V30 7 1 5 8
M  V30 8 1 6 9
M  V30 9 1 6 10
M  V30 10 1 6 11
M  V30 END BOND
M  V30 END CTAB
M  END
>  <Structure No>
3766

>  <LogS>
1.065

>  <MMFF94 Energy>
5.3516

$$$$
Compound 3767
Actelion Java MolfileCreator 2.0

  0  0  0  0  0  0              0 V3000
M  V30 BEGIN CTAB
M  V30 COUNTS 14 14 0 0 0
M  V30 BEGIN ATOM
M  V30 1 N -1.8453 0.1536 -0.1536 0 CHG=1
M  V30 2 C -1.2058 -0.9074 -0.7174 0
M  V30 3 C -1.1637 1.1031 0.5439 0
M  V30 4 C 0.1786 -1.0426 -0.5885 0
M  V30 5 C 0.2216 1.0045 0.6956 0
M  V30 6 C 0.901 -0.0781 0.1245 0
M  V30 7 N 2.3186 -0.1979 0.2681 0
M  V30 8 H -2.8808 0.2411 -0.2584 0
M  V30 9 H -1.7703 -1.6495 -1.2675 0
M  V30 10 H -1.6952 1.938 0.9831 0
M  V30 11 H 0.6821 -1.8885 -1.0391 0
M  V30 12 H 0.7586 1.7627 1.2515 0
M  V30 13 H 2.8642 0.5173 0.7986 0
M  V30 14 H 2.8324 -1.0026 -0.1549 0
M  V30 END ATOM
M  V30 BEGIN BOND
M  V30 1 2 1 2
M  V30 2 1 1 3
M  V30 3 1 2 4
M  V30 4 2 3 5
M  V30 5 2 4 6
M  V30 6 1 6 7
M  V30 7 1 5 6
M  V30 8 1 1 8
M  V30 9 1 2 9
M  V30 10 1 3 10
M  V30 11 1 4 11
M  V30 12 1 5 12
M  V30 13 1 7 13
M  V30 14 1 7 14
M  V30 END BOND
M  V30 END CTAB
M  END
>  <Structure No>
3767

>  <LogS>
-0.0529

>  <MMFF94 Energy>
25.904

$$$$
Compound 3768
Actelion Java MolfileCreator 2.0

  0  0  0  0  0  0              0 V3000
M  V30 BEGIN CTAB
M  V30 COUNTS 13 13 0 0 0
M  V30 BEGIN ATOM
M  V30 1 N 0.233 -1.3213 -0.3107 0
M  V30 2 C 0.9509 -0.1836 -0.1003 0
M  V30 3 C -1.1253 -1.3343 -0.2416 0
M  V30 4 N 2.3757 -0.2185 -0.1832 0
M  V30 5 C 0.2854 1.0134 0.1962 0
M  V30 6 C -1.8222 -0.1597 0.0516 0
M  V30 7 C -1.1091 1.0201 0.2714 0
M  V30 8 H -1.664 -2.2563 -0.4143 0
M  V30 9 H 2.9442 0.6431 -0.0252 0
M  V30 10 H 2.8675 -1.1125 -0.4044 0
M  V30 11 H 0.8402 1.9275 0.3663 0
M  V30 12 H -2.9031 -0.1643 0.1078 0
M  V30 13 H -1.6358 1.9377 0.4996 0
M  V30 END ATOM
M  V30 BEGIN BOND
M  V30 1 2 1 2
M  V30 2 1 1 3
M  V30 3 1 2 4
M  V30 4 1 2 5
M  V30 5 2 3 6
M  V30 6 2 5 7
M  V30 7 1 6 7
M  V30 8 1 3 8
M  V30 9 1 4 9
M  V30 10 1 4 10
M  V30 11 1 5 11
M  V30 12 1 6 12
M  V30 13 1 7 13
M  V30 END BOND
M  V30 END CTAB
M  END
>  <Structure No>
3768

>  <LogS>
0.9757

>  <MMFF94 Energy>
-31.724

$$$$
Compound 3769
Actelion Java MolfileCreator 2.0

  0  0  0  0  0  0              0 V3000
M  V30 BEGIN CTAB
M  V30 COUNTS 14 14 0 0 0
M  V30 BEGIN ATOM
M  V30 1 S 0.0 -1.6328 -0.5154 0
M  V30 2 C -1.3037 -0.752 0.4095 0
M  V30 3 C 1.3798 -0.6055 0.094 0
M  V30 4 C -1.4388 0.6915 -0.0686 0
M  V30 5 C 1.2448 0.838 -0.384 0
M  V30 6 S -0.0589 1.7189 0.5408 0
M  V30 7 H -1.0938 -0.7861 1.5 0
M  V30 8 H -2.2636 -1.2804 0.2298 0
M  V30 9 H 2.3231 -1.03 -0.3091 0
M  V30 10 H 1.4325 -0.6483 1.2031 0
M  V30 11 H -2.3821 1.1161 0.3347 0
M  V30 12 H -1.4915 0.7344 -1.1776 0
M  V30 13 H 2.2046 1.3665 -0.2043 0
M  V30 14 H 1.0347 0.8722 -1.4745 0
M  V30 END ATOM
M  V30 BEGIN BOND
M  V30 1 1 1 2
M  V30 2 1 1 3
M  V30 3 1 2 4
M  V30 4 1 3 5
M  V30 5 1 4 6
M  V30 6 1 5 6
M  V30 7 1 2 7
M  V30 8 1 2 8
M  V30 9 1 3 9
M  V30 10 1 3 10
M  V30 11 1 4 11
M  V30 12 1 4 12
M  V30 13 1 5 13
M  V30 14 1 5 14
M  V30 END BOND
M  V30 END CTAB
M  END
>  <Structure No>
3769

>  <LogS>
-1.6029

>  <MMFF94 Energy>
28.034

$$$$
Compound 3770
Actelion Java MolfileCreator 2.0

  0  0  0  0  0  0              0 V3000
M  V30 BEGIN CTAB
M  V30 COUNTS 24 23 0 0 0
M  V30 BEGIN ATOM
M  V30 1 O -4.2285 0.717 -0.8764 0
M  V30 2 C -3.1947 0.1278 -1.2879 0
M  V30 3 O -2.5266 0.61 -2.4063 0 CHG=-1
M  V30 4 C -2.6658 -1.0662 -0.5545 0
M  V30 5 C -1.9193 -0.6711 0.7299 0
M  V30 6 C -0.6776 0.2103 0.4992 0
M  V30 7 C 0.4622 -0.5421 -0.2086 0
M  V30 8 C 1.718 0.3261 -0.3898 0
M  V30 9 C 2.4947 0.5243 0.9185 0
M  V30 10 C 3.7701 1.2628 0.6607 0
M  V30 11 O 3.7874 2.5218 0.6748 0
M  V30 12 O 4.9301 0.562 0.3557 0 CHG=-1
M  V30 13 H -2.0099 -1.6609 -1.2231 0
M  V30 14 H -3.5211 -1.7206 -0.2801 0
M  V30 15 H -2.6222 -0.1247 1.3967 0
M  V30 16 H -1.6167 -1.5956 1.2682 0
M  V30 17 H -0.9532 1.1165 -0.0817 0
M  V30 18 H -0.3276 0.5513 1.4957 0
M  V30 19 H 0.7194 -1.4656 0.3548 0
M  V30 20 H 0.1219 -0.847 -1.2202 0
M  V30 21 H 2.3821 -0.1813 -1.1241 0
M  V30 22 H 1.4363 1.3134 -0.8181 0
M  V30 23 H 2.7348 -0.4624 1.3698 0
M  V30 24 H 1.8878 1.1015 1.6472 0
M  V30 END ATOM
M  V30 BEGIN BOND
M  V30 1 2 1 2
M  V30 2 1 2 3
M  V30 3 1 2 4
M  V30 4 1 4 5
M  V30 5 1 5 6
M  V30 6 1 6 7
M  V30 7 1 7 8
M  V30 8 1 8 9
M  V30 9 1 9 10
M  V30 10 2 10 11
M  V30 11 1 10 12
M  V30 12 1 4 13
M  V30 13 1 4 14
M  V30 14 1 5 15
M  V30 15 1 5 16
M  V30 16 1 6 17
M  V30 17 1 6 18
M  V30 18 1 7 19
M  V30 19 1 7 20
M  V30 20 1 8 21
M  V30 21 1 8 22
M  V30 22 1 9 23
M  V30 23 1 9 24
M  V30 END BOND
M  V30 END CTAB
M  END
>  <Structure No>
3770

>  <LogS>
-1.1673

>  <MMFF94 Energy>
38.682

$$$$
Compound 3771
Actelion Java MolfileCreator 2.0

  0  0  0  0  0  0              0 V3000
M  V30 BEGIN CTAB
M  V30 COUNTS 15 14 0 0 0
M  V30 BEGIN ATOM
M  V30 1 Cl -3.4275 -0.0855 0.2567 0
M  V30 2 C -1.816 -0.3895 0.9598 0
M  V30 3 C -0.8957 -1.0717 -0.0489 0
M  V30 4 S -0.494 0.0635 -1.4317 0
M  V30 5 C 1.2997 0.2305 -1.0989 0
M  V30 6 C 1.5806 1.1331 0.1022 0
M  V30 7 Cl 1.0293 2.8026 -0.2019 0
M  V30 8 H -1.3753 0.5725 1.2957 0
M  V30 9 H -1.9407 -1.0469 1.846 0
M  V30 10 H -1.4029 -1.9684 -0.4633 0
M  V30 11 H 0.0176 -1.4227 0.4748 0
M  V30 12 H 1.7814 0.667 -1.9993 0
M  V30 13 H 1.7517 -0.7706 -0.9351 0
M  V30 14 H 1.0841 0.7414 1.0132 0
M  V30 15 H 2.6746 1.1571 0.2901 0
M  V30 END ATOM
M  V30 BEGIN BOND
M  V30 1 1 1 2
M  V30 2 1 2 3
M  V30 3 1 3 4
M  V30 4 1 4 5
M  V30 5 1 5 6
M  V30 6 1 6 7
M  V30 7 1 2 8
M  V30 8 1 2 9
M  V30 9 1 3 10
M  V30 10 1 3 11
M  V30 11 1 5 12
M  V30 12 1 5 13
M  V30 13 1 6 14
M  V30 14 1 6 15
M  V30 END BOND
M  V30 END CTAB
M  END
>  <Structure No>
3771

>  <LogS>
-2.3666

>  <MMFF94 Energy>
23.238

$$$$
Compound 3772
Actelion Java MolfileCreator 2.0

  0  0  0  0  0  0              0 V3000
M  V30 BEGIN CTAB
M  V30 COUNTS 14 13 0 0 0
M  V30 BEGIN ATOM
M  V30 1 O -3.7862 0.3218 -0.4827 0
M  V30 2 C -2.601 0.2841 -0.0608 0
M  V30 3 O -2.0805 1.3971 0.5876 0 CHG=-1
M  V30 4 C -1.8312 -0.9678 -0.1917 0
M  V30 5 C -0.4958 -1.0798 -0.1368 0
M  V30 6 C 0.4483 0.0553 -0.098 0
M  V30 7 C 1.7447 -0.1478 0.1587 0
M  V30 8 C 2.7279 0.9476 0.1785 0
M  V30 9 O 2.3822 2.138 -0.0486 0
M  V30 10 O 4.0593 0.6647 0.4527 0 CHG=-1
M  V30 11 H -2.4024 -1.8785 -0.3286 0
M  V30 12 H -0.0806 -2.0806 -0.1758 0
M  V30 13 H 0.1049 1.0546 -0.3248 0
M  V30 14 H 2.1017 -1.15 0.3659 0
M  V30 END ATOM
M  V30 BEGIN BOND
M  V30 1 2 1 2
M  V30 2 1 2 3
M  V30 3 1 2 4
M  V30 4 2 4 5
M  V30 5 1 5 6
M  V30 6 2 6 7
M  V30 7 1 7 8
M  V30 8 2 8 9
M  V30 9 1 8 10
M  V30 10 1 4 11
M  V30 11 1 5 12
M  V30 12 1 6 13
M  V30 13 1 7 14
M  V30 END BOND
M  V30 END CTAB
M  END
>  <Structure No>
3772

>  <LogS>
-2.8516

>  <MMFF94 Energy>
38.179

$$$$
Compound 3773
Actelion Java MolfileCreator 2.0

  0  0  0  0  0  0              0 V3000
M  V30 BEGIN CTAB
M  V30 COUNTS 29 30 0 0 0
M  V30 BEGIN ATOM
M  V30 1 O -2.0769 1.5973 1.038 0
M  V30 2 C -0.7766 1.0652 1.0448 0 CFG=2
M  V30 3 C -0.2813 0.6508 -0.3766 0 CFG=1
M  V30 4 C -0.7391 -0.2772 1.8085 0
M  V30 5 C 0.7934 -0.4174 -0.0648 0
M  V30 6 C -1.4126 -0.1843 -1.0399 0
M  V30 7 C 0.1875 1.833 -1.2349 0
M  V30 8 C -0.199 -1.2673 0.7459 0 CFG=2
M  V30 9 C 1.3884 -1.157 -1.3037 0
M  V30 10 C 2.0195 0.0783 0.763 0
M  V30 11 C -1.36 -1.5068 -0.2501 0
M  V30 12 H -2.0033 2.5183 0.6761 0
M  V30 13 H -0.0864 1.7987 1.5211 0
M  V30 14 H -1.7423 -0.5753 2.1865 0
M  V30 15 H -0.0578 -0.2247 2.6843 0
M  V30 16 H -2.4118 0.2943 -0.9635 0
M  V30 17 H -1.2195 -0.3551 -2.1206 0
M  V30 18 H 0.5737 1.4764 -2.2124 0
M  V30 19 H 0.9912 2.3963 -0.7164 0
M  V30 20 H -0.6604 2.5234 -1.4264 0
M  V30 21 H 0.2226 -2.2011 1.176 0
M  V30 22 H 2.0573 -0.4758 -1.8712 0
M  V30 23 H 1.9914 -2.0267 -0.9658 0
M  V30 24 H 0.6444 -1.5444 -2.0227 0
M  V30 25 H 1.773 0.63 1.6877 0
M  V30 26 H 2.6506 0.7514 0.1448 0
M  V30 27 H 2.641 -0.7905 1.0681 0
M  V30 28 H -1.1441 -2.3692 -0.9158 0
M  V30 29 H -2.3241 -1.7107 0.2655 0
M  V30 END ATOM
M  V30 BEGIN BOND
M  V30 1 1 1 2
M  V30 2 1 2 3
M  V30 3 1 2 4
M  V30 4 1 3 5
M  V30 5 1 3 6
M  V30 6 1 3 7
M  V30 7 1 4 8
M  V30 8 1 5 9
M  V30 9 1 5 10
M  V30 10 1 6 11
M  V30 11 1 5 8
M  V30 12 1 8 11
M  V30 13 1 1 12
M  V30 14 1 2 13
M  V30 15 1 4 14
M  V30 16 1 4 15
M  V30 17 1 6 16
M  V30 18 1 6 17
M  V30 19 1 7 18
M  V30 20 1 7 19
M  V30 21 1 7 20
M  V30 22 1 8 21
M  V30 23 1 9 22
M  V30 24 1 9 23
M  V30 25 1 9 24
M  V30 26 1 10 25
M  V30 27 1 10 26
M  V30 28 1 10 27
M  V30 29 1 11 28
M  V30 30 1 11 29
M  V30 END BOND
M  V30 BEGIN COLLECTION
M  V30 MDLV30/STEABS ATOMS=(3 2 3 8)
M  V30 END COLLECTION
M  V30 END CTAB
M  END
>  <Structure No>
3773

>  <LogS>
-2.3202

>  <MMFF94 Energy>
55.86

$$$$
Compound 3774
Actelion Java MolfileCreator 2.0

  0  0  0  0  0  0              0 V3000
M  V30 BEGIN CTAB
M  V30 COUNTS 73 76 0 0 0
M  V30 BEGIN ATOM
M  V30 1 O -8.6567 -0.5645 1.1294 0
M  V30 2 C -7.4349 -0.5609 0.8234 0
M  V30 3 C -7.0 0.1097 -0.4084 0
M  V30 4 C -6.4479 -1.2353 1.7244 0
M  V30 5 C -5.7303 0.0388 -0.8541 0
M  V30 6 C -4.9974 -0.8847 1.3513 0
M  V30 7 C -4.7188 -0.9257 -0.1896 0 CFG=2
M  V30 8 C -5.3725 0.9937 -1.9701 0
M  V30 9 C -3.1904 -0.5881 -0.5411 0 CFG=2
M  V30 10 C -5.0244 -2.3485 -0.7282 0
M  V30 11 C -3.8945 1.0234 -2.3237 0
M  V30 12 C -2.1707 -0.8804 0.6043 0 CFG=1
M  V30 13 C -3.0172 0.8536 -1.0748 0 CFG=2
M  V30 14 O -2.2162 -2.2344 0.987 0
M  V30 15 C -0.7238 -0.5219 0.2167 0
M  V30 16 C -1.5453 1.2515 -1.3946 0 CFG=1
M  V30 17 C -0.5314 0.946 -0.2775 0 CFG=2
M  V30 18 C -0.9409 0.6262 -2.6638 0
M  V30 19 C 0.8392 1.1289 -1.0296 0 CFG=1
M  V30 20 C -0.689 1.9285 0.9127 0
M  V30 21 C 0.5697 0.5329 -2.4273 0
M  V30 22 O 1.1139 2.5009 -1.2412 0
M  V30 23 C 2.039 0.4369 -0.3566 0
M  V30 24 O 2.1129 -0.7837 -0.3556 0
M  V30 25 C 3.1364 1.2247 0.3225 0
M  V30 26 O 4.1988 0.3766 0.7563 0
M  V30 27 C 5.15 -0.1656 -0.1151 0
M  V30 28 O 5.1183 0.0987 -1.3484 0
M  V30 29 C 6.2292 -1.0559 0.4293 0
M  V30 30 C 7.481 -0.2841 0.9349 0
M  V30 31 C 8.1247 0.5252 -0.2108 0
M  V30 32 C 8.5099 -1.3093 1.4537 0
M  V30 33 C 7.1085 0.6686 2.091 0
M  V30 34 H -7.7183 0.7469 -0.9138 0
M  V30 35 H -6.6006 -2.3341 1.6708 0
M  V30 36 H -6.6372 -0.9233 2.7741 0
M  V30 37 H -4.3583 -1.6002 1.9045 0
M  V30 38 H -4.7725 0.1368 1.7312 0
M  V30 39 H -5.9594 0.7384 -2.8793 0
M  V30 40 H -5.6656 2.0218 -1.6592 0
M  V30 41 H -2.8771 -1.2498 -1.3789 0
M  V30 42 H -4.4108 -3.1106 -0.2049 0
M  V30 43 H -6.0922 -2.6242 -0.6029 0
M  V30 44 H -4.8097 -2.4071 -1.8169 0
M  V30 45 H -3.6863 0.2166 -3.0602 0
M  V30 46 H -3.6717 1.9928 -2.8218 0
M  V30 47 H -2.4333 -0.2766 1.495 0
M  V30 48 H -3.3791 1.5561 -0.2904 0
M  V30 49 H -1.9805 -2.7846 0.1945 0
M  V30 50 H -0.4027 -1.2352 -0.5723 0
M  V30 51 H -0.0747 -0.7019 1.1021 0
M  V30 52 H -1.5472 2.3544 -1.5631 0
M  V30 53 H -1.161 1.2571 -3.5532 0
M  V30 54 H -1.3439 -0.3918 -2.8479 0
M  V30 55 H -1.6537 1.7882 1.4383 0
M  V30 56 H -0.6819 2.9862 0.576 0
M  V30 57 H 0.1318 1.7788 1.6462 0
M  V30 58 H 0.8791 -0.5329 -2.4954 0
M  V30 59 H 1.1256 1.0861 -3.2168 0
M  V30 60 H 1.3319 2.9301 -0.3754 0
M  V30 61 H 2.7092 1.7296 1.2141 0
M  V30 62 H 3.5388 2.0029 -0.3616 0
M  V30 63 H 5.7976 -1.6551 1.2606 0
M  V30 64 H 6.5274 -1.7779 -0.3634 0
M  V30 65 H 7.4468 1.3348 -0.5568 0
M  V30 66 H 9.0717 0.9986 0.1292 0
M  V30 67 H 8.3545 -0.135 -1.0754 0
M  V30 68 H 8.8146 -2.004 0.641 0
M  V30 69 H 9.4221 -0.7983 1.8318 0
M  V30 70 H 8.0801 -1.9111 2.284 0
M  V30 71 H 6.6025 0.1118 2.9094 0
M  V30 72 H 6.4305 1.4756 1.7417 0
M  V30 73 H 8.0192 1.1518 2.508 0
M  V30 END ATOM
M  V30 BEGIN BOND
M  V30 1 2 1 2
M  V30 2 1 2 3
M  V30 3 1 2 4
M  V30 4 2 3 5
M  V30 5 1 4 6
M  V30 6 1 5 7
M  V30 7 1 5 8
M  V30 8 1 7 9
M  V30 9 1 7 10
M  V30 10 1 8 11
M  V30 11 1 9 12
M  V30 12 1 9 13
M  V30 13 1 12 14
M  V30 14 1 12 15
M  V30 15 1 13 16
M  V30 16 1 15 17
M  V30 17 1 16 18
M  V30 18 1 17 19
M  V30 19 1 17 20
M  V30 20 1 18 21
M  V30 21 1 19 22
M  V30 22 1 19 23
M  V30 23 2 23 24
M  V30 24 1 23 25
M  V30 25 1 25 26
M  V30 26 1 26 27
M  V30 27 2 27 28
M  V30 28 1 27 29
M  V30 29 1 29 30
M  V30 30 1 30 31
M  V30 31 1 30 32
M  V30 32 1 30 33
M  V30 33 1 6 7
M  V30 34 1 11 13
M  V30 35 1 16 17
M  V30 36 1 19 21
M  V30 37 1 3 34
M  V30 38 1 4 35
M  V30 39 1 4 36
M  V30 40 1 6 37
M  V30 41 1 6 38
M  V30 42 1 8 39
M  V30 43 1 8 40
M  V30 44 1 9 41
M  V30 45 1 10 42
M  V30 46 1 10 43
M  V30 47 1 10 44
M  V30 48 1 11 45
M  V30 49 1 11 46
M  V30 50 1 12 47
M  V30 51 1 13 48
M  V30 52 1 14 49
M  V30 53 1 15 50
M  V30 54 1 15 51
M  V30 55 1 16 52
M  V30 56 1 18 53
M  V30 57 1 18 54
M  V30 58 1 20 55
M  V30 59 1 20 56
M  V30 60 1 20 57
M  V30 61 1 21 58
M  V30 62 1 21 59
M  V30 63 1 22 60
M  V30 64 1 25 61
M  V30 65 1 25 62
M  V30 66 1 29 63
M  V30 67 1 29 64
M  V30 68 1 31 65
M  V30 69 1 31 66
M  V30 70 1 31 67
M  V30 71 1 32 68
M  V30 72 1 32 69
M  V30 73 1 32 70
M  V30 74 1 33 71
M  V30 75 1 33 72
M  V30 76 1 33 73
M  V30 END BOND
M  V30 BEGIN COLLECTION
M  V30 MDLV30/STEABS ATOMS=(7 7 9 12 13 16 17 19)
M  V30 END COLLECTION
M  V30 END CTAB
M  END
>  <Structure No>
3774

>  <LogS>
-5.5111

>  <MMFF94 Energy>
114.61

$$$$
Compound 3775
Actelion Java MolfileCreator 2.0

  0  0  0  0  0  0              0 V3000
M  V30 BEGIN CTAB
M  V30 COUNTS 13 12 0 0 0
M  V30 BEGIN ATOM
M  V30 1 O 0.7678 -0.6825 -2.134 0
M  V30 2 N -0.1916 -0.5322 -1.3489 0 CHG=1
M  V30 3 O -1.4677 -0.5451 -1.8642 0 CHG=-1
M  V30 4 C 0.0412 0.0305 -0.0128 0
M  V30 5 N 1.2892 -0.5034 0.5503 0 CHG=1
M  V30 6 N -1.0608 -0.3395 0.884 0 CHG=1
M  V30 7 N 0.1213 1.4927 -0.1388 0 CHG=1
M  V30 8 O 1.8687 0.1133 1.4688 0
M  V30 9 O 1.6153 -1.824 0.3412 0 CHG=-1
M  V30 10 O -1.2735 0.3327 1.9149 0
M  V30 11 O -1.6071 -1.5999 0.7999 0 CHG=-1
M  V30 12 O 1.1861 2.0249 -0.5163 0
M  V30 13 O -1.0385 2.2308 -0.2039 0 CHG=-1
M  V30 END ATOM
M  V30 BEGIN BOND
M  V30 1 2 1 2
M  V30 2 1 2 3
M  V30 3 1 2 4
M  V30 4 1 4 5
M  V30 5 1 4 6
M  V30 6 1 4 7
M  V30 7 2 5 8
M  V30 8 1 5 9
M  V30 9 2 6 10
M  V30 10 1 6 11
M  V30 11 2 7 12
M  V30 12 1 7 13
M  V30 END BOND
M  V30 END CTAB
M  END
>  <Structure No>
3775

>  <LogS>
-2.3381

>  <MMFF94 Energy>
-163.01

$$$$
Compound 3776
Actelion Java MolfileCreator 2.0

  0  0  0  0  0  0              0 V3000
M  V30 BEGIN CTAB
M  V30 COUNTS 60 65 0 0 0
M  V30 BEGIN ATOM
M  V30 1 O 2.1902 1.7031 -0.8918 0
M  V30 2 C 3.4034 1.8832 -0.1743 0
M  V30 3 C 2.4476 1.0063 -2.0938 0
M  V30 4 C 4.174 0.5575 0.0206 0
M  V30 5 C 2.9286 -0.4304 -1.8025 0
M  V30 6 N 3.3237 -0.5745 -0.3877 0
M  V30 7 C 3.9723 -1.8757 -0.1268 0
M  V30 8 C 3.6114 -2.3906 1.2757 0
M  V30 9 O 2.1921 -2.5368 1.4071 0
M  V30 10 C 1.3056 -1.4612 1.5486 0
M  V30 11 C 0.0498 -1.5199 0.9452 0
M  V30 12 C 1.625 -0.2779 2.2809 0
M  V30 13 O -0.5979 -2.5822 0.289 0
M  V30 14 C -0.7734 -0.4358 0.9947 0
M  V30 15 C 0.6923 0.7918 2.3838 0
M  V30 16 C -1.9832 -2.197 0.26 0 CFG=1
M  V30 17 C -0.5434 0.7131 1.7132 0
M  V30 18 C -1.9292 -0.6754 0.1675 0 CFG=1
M  V30 19 C -3.0152 -2.7539 -0.7352 0 CFG=2
M  V30 20 C -1.6869 1.7259 1.8299 0
M  V30 21 C -3.1835 -0.0933 0.7653 0 CFG=1
M  V30 22 C -1.6379 -0.0802 -1.256 0
M  V30 23 O -2.4958 -2.8113 -2.0367 0
M  V30 24 C -4.2798 -1.8551 -0.7037 0
M  V30 25 C -2.9284 1.4466 0.8581 0 CFG=2
M  V30 26 C -4.3462 -0.631 -0.0779 0
M  V30 27 C -1.5825 1.4594 -1.2229 0
M  V30 28 N -2.7532 2.0217 -0.5105 0 CHG=1 CFG=2
M  V30 29 C -2.6954 3.4962 -0.5023 0
M  V30 30 H 3.1507 2.3005 0.8224 0
M  V30 31 H 4.0483 2.6334 -0.6889 0
M  V30 32 H 1.5092 0.9679 -2.6885 0
M  V30 33 H 3.1991 1.5533 -2.7111 0
M  V30 34 H 5.1078 0.5788 -0.5884 0
M  V30 35 H 4.4659 0.4554 1.0893 0
M  V30 36 H 3.7798 -0.6789 -2.4767 0
M  V30 37 H 2.0953 -1.1371 -2.0138 0
M  V30 38 H 5.0793 -1.8068 -0.2289 0
M  V30 39 H 3.6229 -2.643 -0.8533 0
M  V30 40 H 4.0785 -3.3897 1.4092 0
M  V30 41 H 4.0292 -1.7325 2.0665 0
M  V30 42 H 2.5693 -0.1856 2.7996 0
M  V30 43 H 0.9352 1.6638 2.9774 0
M  V30 44 H -2.3868 -2.489 1.2632 0
M  V30 45 H -3.3157 -3.7779 -0.4134 0
M  V30 46 H -2.0623 1.6679 2.8752 0
M  V30 47 H -1.2833 2.7498 1.7077 0
M  V30 48 H -3.3387 -0.4693 1.8046 0
M  V30 49 H -2.4307 -0.3551 -1.9819 0
M  V30 50 H -0.6779 -0.4733 -1.6604 0
M  V30 51 H -1.8374 -3.5536 -2.0467 0
M  V30 52 H -5.1457 -2.191 -1.2647 0
M  V30 53 H -3.8327 1.8997 1.3246 0
M  V30 54 H -5.267 -0.0574 -0.1307 0
M  V30 55 H -0.6308 1.7952 -0.7536 0
M  V30 56 H -1.5643 1.8301 -2.2744 0
M  V30 57 H -3.6073 1.7761 -1.0681 0
M  V30 58 H -2.8297 3.8876 -1.536 0
M  V30 59 H -1.719 3.8741 -0.1314 0
M  V30 60 H -3.5118 3.9193 0.1241 0
M  V30 END ATOM
M  V30 BEGIN BOND
M  V30 1 1 1 2
M  V30 2 1 1 3
M  V30 3 1 2 4
M  V30 4 1 3 5
M  V30 5 1 4 6
M  V30 6 1 6 7
M  V30 7 1 7 8
M  V30 8 1 8 9
M  V30 9 1 9 10
M  V30 10 2 10 11
M  V30 11 1 10 12
M  V30 12 1 11 13
M  V30 13 1 11 14
M  V30 14 2 12 15
M  V30 15 1 13 16
M  V30 16 2 14 17
M  V30 17 1 14 18
M  V30 18 1 16 19
M  V30 19 1 17 20
M  V30 20 1 18 21
M  V30 21 1 18 22
M  V30 22 1 19 23
M  V30 23 1 19 24
M  V30 24 1 20 25
M  V30 25 1 21 26
M  V30 26 1 22 27
M  V30 27 1 25 28
M  V30 28 1 28 29
M  V30 29 1 5 6
M  V30 30 1 15 17
M  V30 31 1 16 18
M  V30 32 1 21 25
M  V30 33 2 24 26
M  V30 34 1 27 28
M  V30 35 1 2 30
M  V30 36 1 2 31
M  V30 37 1 3 32
M  V30 38 1 3 33
M  V30 39 1 4 34
M  V30 40 1 4 35
M  V30 41 1 5 36
M  V30 42 1 5 37
M  V30 43 1 7 38
M  V30 44 1 7 39
M  V30 45 1 8 40
M  V30 46 1 8 41
M  V30 47 1 12 42
M  V30 48 1 15 43
M  V30 49 1 16 44
M  V30 50 1 19 45
M  V30 51 1 20 46
M  V30 52 1 20 47
M  V30 53 1 21 48
M  V30 54 1 22 49
M  V30 55 1 22 50
M  V30 56 1 23 51
M  V30 57 1 24 52
M  V30 58 1 25 53
M  V30 59 1 26 54
M  V30 60 1 27 55
M  V30 61 1 27 56
M  V30 62 1 28 57
M  V30 63 1 29 58
M  V30 64 1 29 59
M  V30 65 1 29 60
M  V30 END BOND
M  V30 BEGIN COLLECTION
M  V30 MDLV30/STEABS ATOMS=(6 16 18 19 21 25 28)
M  V30 END COLLECTION
M  V30 END CTAB
M  END
>  <Structure No>
3776

>  <LogS>
-1.2994

>  <MMFF94 Energy>
199.91

$$$$
Compound 3777
Actelion Java MolfileCreator 2.0

  0  0  0  0  0  0              0 V3000
M  V30 BEGIN CTAB
M  V30 COUNTS 34 35 0 0 0
M  V30 BEGIN ATOM
M  V30 1 O -1.93 -1.1255 -3.6211 0
M  V30 2 C -1.7517 -0.6758 -2.4583 0
M  V30 3 N -1.7896 0.7257 -2.221 0
M  V30 4 N -1.5375 -1.5685 -1.3732 0
M  V30 5 C -1.4924 1.2714 -0.9313 0
M  V30 6 C -1.3459 -1.0752 -0.0457 0
M  V30 7 O -1.5494 2.5221 -0.792 0
M  V30 8 C -0.9942 0.392 0.2269 0
M  V30 9 O -1.4477 -1.89 0.9119 0
M  V30 10 N 0.4885 0.5582 0.4175 0
M  V30 11 C -1.7661 0.8473 1.5205 0
M  V30 12 C 1.3604 0.7435 -0.7714 0
M  V30 13 C 1.1435 -0.2339 1.4919 0
M  V30 14 C -1.2481 2.1333 2.1837 0
M  V30 15 C 1.9053 -0.5808 -1.3107 0
M  V30 16 C 1.7694 -1.5492 0.9906 0
M  V30 17 C 2.6715 -1.3168 -0.2171 0
M  V30 18 H -2.0249 1.3706 -3.0089 0
M  V30 19 H -1.6011 -2.5986 -1.5361 0
M  V30 20 H -1.7355 0.0626 2.305 0
M  V30 21 H -2.8453 0.9823 1.2838 0
M  V30 22 H 2.2196 1.3854 -0.4772 0
M  V30 23 H 0.8637 1.2921 -1.5937 0
M  V30 24 H 1.9484 0.3875 1.941 0
M  V30 25 H 0.4433 -0.4673 2.3175 0
M  V30 26 H -0.1773 2.0445 2.4565 0
M  V30 27 H -1.8194 2.3125 3.119 0
M  V30 28 H -1.3873 3.0218 1.5398 0
M  V30 29 H 1.0772 -1.2143 -1.6879 0
M  V30 30 H 2.5907 -0.3758 -2.1609 0
M  V30 31 H 0.9863 -2.2846 0.7221 0
M  V30 32 H 2.3709 -1.9984 1.8099 0
M  V30 33 H 3.5613 -0.7225 0.0868 0
M  V30 34 H 3.0268 -2.2946 -0.6077 0
M  V30 END ATOM
M  V30 BEGIN BOND
M  V30 1 2 1 2
M  V30 2 1 2 3
M  V30 3 1 2 4
M  V30 4 1 3 5
M  V30 5 1 4 6
M  V30 6 2 5 7
M  V30 7 1 5 8
M  V30 8 2 6 9
M  V30 9 1 8 10
M  V30 10 1 8 11
M  V30 11 1 10 12
M  V30 12 1 10 13
M  V30 13 1 11 14
M  V30 14 1 12 15
M  V30 15 1 13 16
M  V30 16 1 15 17
M  V30 17 1 6 8
M  V30 18 1 16 17
M  V30 19 1 3 18
M  V30 20 1 4 19
M  V30 21 1 11 20
M  V30 22 1 11 21
M  V30 23 1 12 22
M  V30 24 1 12 23
M  V30 25 1 13 24
M  V30 26 1 13 25
M  V30 27 1 14 26
M  V30 28 1 14 27
M  V30 29 1 14 28
M  V30 30 1 15 29
M  V30 31 1 15 30
M  V30 32 1 16 31
M  V30 33 1 16 32
M  V30 34 1 17 33
M  V30 35 1 17 34
M  V30 END BOND
M  V30 END CTAB
M  END
>  <Structure No>
3777

>  <LogS>
-2.1562

>  <MMFF94 Energy>
-55.003

$$$$
Compound 3778
Actelion Java MolfileCreator 2.0

  0  0  0  0  0  0              0 V3000
M  V30 BEGIN CTAB
M  V30 COUNTS 72 77 0 0 0
M  V30 BEGIN ATOM
M  V30 1 O 4.7028 0.8096 0.2428 0
M  V30 2 C 3.6283 -0.0684 -0.0816 0 CFG=1
M  V30 3 C 5.3383 0.4424 1.4556 0
M  V30 4 O 2.6434 -0.0318 0.9647 0
M  V30 5 C 2.932 0.4206 -1.4077 0 CFG=1
M  V30 6 C 4.1519 -1.5131 -0.2686 0
M  V30 7 C 5.9869 -0.947 1.3445 0 CFG=2
M  V30 8 C 1.4342 0.1579 0.2866 0 CFG=2
M  V30 9 C 1.7387 1.1135 -0.8033 0 CFG=2
M  V30 10 C 3.7873 1.3474 -2.2835 0
M  V30 11 C 4.918 -1.9799 0.9687 0
M  V30 12 C 6.6821 -1.3332 2.6539 0
M  V30 13 C 0.2585 0.7913 1.0178 0
M  V30 14 C 0.3584 1.4421 -1.4022 0 CFG=2
M  V30 15 C -0.4257 1.6905 -0.0669 0 CFG=1
M  V30 16 C -0.2598 0.2864 -2.2666 0
M  V30 17 C 0.4369 2.7349 -2.2445 0
M  V30 18 C -1.9747 1.5916 -0.2049 0 CFG=1
M  V30 19 C -1.3612 -0.523 -1.5615 0
M  V30 20 C -2.5031 0.3948 -1.0679 0 CFG=1
M  V30 21 C -2.681 1.7449 1.1479 0
M  V30 22 C -3.757 -0.3846 -0.4771 0 CFG=2
M  V30 23 C -4.1601 1.5876 1.0037 0
M  V30 24 C -4.672 0.5509 0.3147 0
M  V30 25 C -3.3675 -1.5556 0.4881 0
M  V30 26 C -4.556 -0.9572 -1.6877 0
M  V30 27 C -6.0052 -0.0131 0.7662 0
M  V30 28 C -4.3581 -1.7921 1.6654 0
M  V30 29 C -5.8306 -1.4526 1.3342 0 CFG=1
M  V30 30 O -6.6002 -1.6043 2.499 0
M  V30 31 H 6.1331 1.1905 1.6625 0
M  V30 32 H 4.6283 0.4886 2.3121 0
M  V30 33 H 2.6179 -0.4468 -2.0276 0
M  V30 34 H 3.3043 -2.208 -0.4548 0
M  V30 35 H 4.8296 -1.551 -1.15 0
M  V30 36 H 6.7545 -0.9162 0.5386 0
M  V30 37 H 1.1117 -0.8342 -0.1063 0
M  V30 38 H 2.1277 2.0573 -0.3361 0
M  V30 39 H 3.2392 1.5951 -3.2157 0
M  V30 40 H 4.7298 0.8314 -2.5633 0
M  V30 41 H 4.0367 2.2929 -1.7563 0
M  V30 42 H 4.2048 -2.1187 1.8119 0
M  V30 43 H 5.3963 -2.9606 0.7561 0
M  V30 44 H 5.9541 -1.3626 3.4935 0
M  V30 45 H 7.4769 -0.5956 2.8949 0
M  V30 46 H 7.155 -2.3333 2.5539 0
M  V30 47 H 0.6169 1.4066 1.8722 0
M  V30 48 H -0.4061 -0.0102 1.3977 0
M  V30 49 H -0.2213 2.7386 0.2591 0
M  V30 50 H 0.5174 -0.4166 -2.6201 0
M  V30 51 H -0.7103 0.701 -3.1962 0
M  V30 52 H 1.0328 2.5602 -3.1644 0
M  V30 53 H -0.5813 3.0604 -2.5456 0
M  V30 54 H 0.909 3.5652 -1.6764 0
M  V30 55 H -2.2616 2.514 -0.7641 0
M  V30 56 H -0.9396 -1.1127 -0.7311 0
M  V30 57 H -1.7472 -1.2602 -2.2935 0
M  V30 58 H -2.8742 0.8834 -2.0004 0
M  V30 59 H -2.4593 2.7448 1.5804 0
M  V30 60 H -2.3366 0.9814 1.8729 0
M  V30 61 H -4.795 2.1878 1.6496 0
M  V30 62 H -3.2482 -2.5017 -0.0843 0
M  V30 63 H -2.3832 -1.3503 0.9551 0
M  V30 64 H -3.9202 -1.5911 -2.3354 0
M  V30 65 H -5.4021 -1.5989 -1.384 0
M  V30 66 H -4.9677 -0.1325 -2.3092 0
M  V30 67 H -6.7055 -0.0353 -0.0958 0
M  V30 68 H -6.4792 0.6421 1.5314 0
M  V30 69 H -4.288 -2.8521 1.9933 0
M  V30 70 H -4.0413 -1.1633 2.5276 0
M  V30 71 H -6.1818 -2.196 0.5839 0
M  V30 72 H -7.5507 -1.6314 2.2125 0
M  V30 END ATOM
M  V30 BEGIN BOND
M  V30 1 1 1 2
M  V30 2 1 1 3
M  V30 3 1 2 4
M  V30 4 1 2 5
M  V30 5 1 2 6
M  V30 6 1 3 7
M  V30 7 1 4 8
M  V30 8 1 5 9
M  V30 9 1 5 10
M  V30 10 1 6 11
M  V30 11 1 7 12
M  V30 12 1 8 13
M  V30 13 1 9 14
M  V30 14 1 13 15
M  V30 15 1 14 16
M  V30 16 1 14 17
M  V30 17 1 15 18
M  V30 18 1 16 19
M  V30 19 1 18 20
M  V30 20 1 18 21
M  V30 21 1 20 22
M  V30 22 1 21 23
M  V30 23 1 22 24
M  V30 24 1 22 25
M  V30 25 1 22 26
M  V30 26 1 24 27
M  V30 27 1 25 28
M  V30 28 1 27 29
M  V30 29 1 29 30
M  V30 30 1 7 11
M  V30 31 1 8 9
M  V30 32 1 14 15
M  V30 33 1 19 20
M  V30 34 2 23 24
M  V30 35 1 28 29
M  V30 36 1 3 31
M  V30 37 1 3 32
M  V30 38 1 5 33
M  V30 39 1 6 34
M  V30 40 1 6 35
M  V30 41 1 7 36
M  V30 42 1 8 37
M  V30 43 1 9 38
M  V30 44 1 10 39
M  V30 45 1 10 40
M  V30 46 1 10 41
M  V30 47 1 11 42
M  V30 48 1 11 43
M  V30 49 1 12 44
M  V30 50 1 12 45
M  V30 51 1 12 46
M  V30 52 1 13 47
M  V30 53 1 13 48
M  V30 54 1 15 49
M  V30 55 1 16 50
M  V30 56 1 16 51
M  V30 57 1 17 52
M  V30 58 1 17 53
M  V30 59 1 17 54
M  V30 60 1 18 55
M  V30 61 1 19 56
M  V30 62 1 19 57
M  V30 63 1 20 58
M  V30 64 1 21 59
M  V30 65 1 21 60
M  V30 66 1 23 61
M  V30 67 1 25 62
M  V30 68 1 25 63
M  V30 69 1 26 64
M  V30 70 1 26 65
M  V30 71 1 26 66
M  V30 72 1 27 67
M  V30 73 1 27 68
M  V30 74 1 28 69
M  V30 75 1 28 70
M  V30 76 1 29 71
M  V30 77 1 30 72
M  V30 END BOND
M  V30 BEGIN COLLECTION
M  V30 MDLV30/STEABS ATOMS=(11 2 5 7 8 9 14 15 18 20 22 29)
M  V30 END COLLECTION
M  V30 END CTAB
M  END
>  <Structure No>
3778

>  <LogS>
-7.3166

>  <MMFF94 Energy>
110.89

$$$$
Compound 3779
Actelion Java MolfileCreator 2.0

  0  0  0  0  0  0              0 V3000
M  V30 BEGIN CTAB
M  V30 COUNTS 66 68 0 0 0
M  V30 BEGIN ATOM
M  V30 1 O -0.5602 -2.1622 -0.24 0
M  V30 2 C -1.895 -2.6368 -0.1265 0 CFG=2
M  V30 3 C -0.0126 -1.8181 1.0246 0 CFG=1
M  V30 4 O -2.7455 -1.6589 0.4607 0
M  V30 5 C -1.9429 -3.9337 0.7049 0 CFG=1
M  V30 6 C 0.0797 -3.0636 1.9383 0 CFG=2
M  V30 7 C 1.3724 -1.2001 0.7984 0
M  V30 8 C -3.2206 -0.6768 -0.4572 0 CFG=2
M  V30 9 O -1.251 -4.9591 0.0372 0
M  V30 10 C -1.3127 -3.6996 2.0863 0 CFG=2
M  V30 11 O 0.5488 -2.6948 3.2113 0
M  V30 12 O 1.2518 -0.1092 -0.0929 0
M  V30 13 O -2.2652 -0.3918 -1.4722 0
M  V30 14 C -3.4572 0.6249 0.3438 0 CFG=2
M  V30 15 C -4.5142 -1.1977 -1.1309 0
M  V30 16 O -1.2192 -4.923 2.7704 0
M  V30 17 C 2.4574 0.6284 -0.142 0 CFG=2
M  V30 18 C -1.9097 0.9703 -1.3801 0 CFG=2
M  V30 19 O -4.7986 0.8278 0.7093 0
M  V30 20 C -2.9878 1.6995 -0.5964 0 CFG=2
M  V30 21 O -5.0413 -0.2301 -1.9969 0
M  V30 22 O 2.5442 1.4573 1.004 0
M  V30 23 C 2.4369 1.5159 -1.4101 0 CFG=2
M  V30 24 C -1.7185 1.5578 -2.779 0
M  V30 25 O -2.4464 2.792 0.0983 0
M  V30 26 C 3.8556 1.9899 1.1423 0 CFG=1
M  V30 27 O 2.8967 0.7976 -2.5302 0
M  V30 28 C 3.225 2.8342 -1.1816 0 CFG=1
M  V30 29 O -0.6804 0.8837 -3.4341 0
M  V30 30 C 4.382 2.6538 -0.173 0 CFG=2
M  V30 31 C 3.8366 2.9931 2.3017 0
M  V30 32 O 3.6527 3.4182 -2.3886 0
M  V30 33 O 5.3877 1.8391 -0.7227 0
M  V30 34 O 5.1421 3.391 2.6182 0
M  V30 35 H -2.2461 -2.9064 -1.1477 0
M  V30 36 H -0.6348 -1.0377 1.5224 0
M  V30 37 H -3.0064 -4.2352 0.8523 0
M  V30 38 H 0.7606 -3.8149 1.4689 0
M  V30 39 H 1.7816 -0.8689 1.7812 0
M  V30 40 H 2.047 -1.9709 0.3601 0
M  V30 41 H -1.8329 -5.2626 -0.7095 0
M  V30 42 H -1.9734 -3.0024 2.6563 0
M  V30 43 H 1.5271 -2.8625 3.2237 0
M  V30 44 H -2.808 0.637 1.2536 0
M  V30 45 H -4.2941 -2.1172 -1.7151 0
M  V30 46 H -5.2658 -1.4659 -0.3533 0
M  V30 47 H -1.1302 -4.7088 3.7366 0
M  V30 48 H 3.3357 -0.0655 -0.1971 0
M  V30 49 H -0.9464 1.0406 -0.8307 0
M  V30 50 H -4.9679 0.2351 1.4872 0
M  V30 51 H -3.8149 2.0276 -1.2702 0
M  V30 52 H -5.9077 -0.5882 -2.3203 0
M  V30 53 H 1.3843 1.8074 -1.6201 0
M  V30 54 H -2.6596 1.4513 -3.3637 0
M  V30 55 H -1.4638 2.6381 -2.6928 0
M  V30 56 H -3.2161 3.3152 0.4419 0
M  V30 57 H 4.5421 1.1664 1.4461 0
M  V30 58 H 3.8354 0.5278 -2.3563 0
M  V30 59 H 2.519 3.5568 -0.713 0
M  V30 60 H -0.5981 1.3077 -4.3261 0
M  V30 61 H 4.7997 3.6664 0.0466 0
M  V30 62 H 3.224 3.8808 2.0206 0
M  V30 63 H 3.3734 2.5114 3.1932 0
M  V30 64 H 4.3389 2.8279 -2.7938 0
M  V30 65 H 6.0489 2.4359 -1.1601 0
M  V30 66 H 5.056 4.0495 3.3573 0
M  V30 END ATOM
M  V30 BEGIN BOND
M  V30 1 1 1 2
M  V30 2 1 1 3
M  V30 3 1 2 4
M  V30 4 1 2 5
M  V30 5 1 3 6
M  V30 6 1 3 7
M  V30 7 1 4 8
M  V30 8 1 5 9
M  V30 9 1 5 10
M  V30 10 1 6 11
M  V30 11 1 7 12
M  V30 12 1 8 13
M  V30 13 1 8 14
M  V30 14 1 8 15
M  V30 15 1 10 16
M  V30 16 1 12 17
M  V30 17 1 13 18
M  V30 18 1 14 19
M  V30 19 1 14 20
M  V30 20 1 15 21
M  V30 21 1 17 22
M  V30 22 1 17 23
M  V30 23 1 18 24
M  V30 24 1 20 25
M  V30 25 1 22 26
M  V30 26 1 23 27
M  V30 27 1 23 28
M  V30 28 1 24 29
M  V30 29 1 26 30
M  V30 30 1 26 31
M  V30 31 1 28 32
M  V30 32 1 30 33
M  V30 33 1 31 34
M  V30 34 1 6 10
M  V30 35 1 18 20
M  V30 36 1 28 30
M  V30 37 1 2 35
M  V30 38 1 3 36
M  V30 39 1 5 37
M  V30 40 1 6 38
M  V30 41 1 7 39
M  V30 42 1 7 40
M  V30 43 1 9 41
M  V30 44 1 10 42
M  V30 45 1 11 43
M  V30 46 1 14 44
M  V30 47 1 15 45
M  V30 48 1 15 46
M  V30 49 1 16 47
M  V30 50 1 17 48
M  V30 51 1 18 49
M  V30 52 1 19 50
M  V30 53 1 20 51
M  V30 54 1 21 52
M  V30 55 1 23 53
M  V30 56 1 24 54
M  V30 57 1 24 55
M  V30 58 1 25 56
M  V30 59 1 26 57
M  V30 60 1 27 58
M  V30 61 1 28 59
M  V30 62 1 29 60
M  V30 63 1 30 61
M  V30 64 1 31 62
M  V30 65 1 31 63
M  V30 66 1 32 64
M  V30 67 1 33 65
M  V30 68 1 34 66
M  V30 END BOND
M  V30 BEGIN COLLECTION
M  V30 MDLV30/STEABS ATOMS=(14 2 3 5 6 8 10 14 17 18 20 23 26 28 30)
M  V30 END COLLECTION
M  V30 END CTAB
M  END
>  <Structure No>
3779

>  <LogS>
-0.3962

>  <MMFF94 Energy>
298

$$$$
Compound 3780
Actelion Java MolfileCreator 2.0

  0  0  0  0  0  0              0 V3000
M  V30 BEGIN CTAB
M  V30 COUNTS 12 11 0 0 0
M  V30 BEGIN ATOM
M  V30 1 Cl 2.3664 -1.4982 0.5517 0
M  V30 2 C 0.6682 -1.3459 0.1052 0
M  V30 3 C 0.0432 -0.1579 0.0126 0
M  V30 4 C -1.4114 -0.1281 -0.3762 0
M  V30 5 C 0.7773 1.1296 0.2914 0
M  V30 6 H 0.1232 -2.263 -0.0991 0
M  V30 7 H -1.8035 0.9094 -0.4157 0
M  V30 8 H -2.01 -0.6984 0.3652 0
M  V30 9 H -1.5415 -0.5879 -1.3787 0
M  V30 10 H 1.1599 1.1275 1.3339 0
M  V30 11 H 0.1143 2.0114 0.1692 0
M  V30 12 H 1.6291 1.2381 -0.4125 0
M  V30 END ATOM
M  V30 BEGIN BOND
M  V30 1 1 1 2
M  V30 2 2 2 3
M  V30 3 1 3 4
M  V30 4 1 3 5
M  V30 5 1 2 6
M  V30 6 1 4 7
M  V30 7 1 4 8
M  V30 8 1 4 9
M  V30 9 1 5 10
M  V30 10 1 5 11
M  V30 11 1 5 12
M  V30 END BOND
M  V30 END CTAB
M  END
>  <Structure No>
3780

>  <LogS>
-1.9569

>  <MMFF94 Energy>
3.7099

$$$$
Compound 3781
Actelion Java MolfileCreator 2.0

  0  0  0  0  0  0              0 V3000
M  V30 BEGIN CTAB
M  V30 COUNTS 13 12 0 0 0
M  V30 BEGIN ATOM
M  V30 1 O 1.7354 0.6788 -1.056 0
M  V30 2 C 1.06 0.7155 0.1716 0
M  V30 3 C -0.2961 0.0639 0.0445 0
M  V30 4 C -1.2246 0.6048 -0.7569 0
M  V30 5 C -0.6214 -1.1851 0.8185 0
M  V30 6 H 2.0367 -0.2585 -1.1847 0
M  V30 7 H 1.675 0.2231 0.9579 0
M  V30 8 H 0.9287 1.7751 0.4777 0
M  V30 9 H -1.0141 1.5082 -1.3217 0
M  V30 10 H -2.2061 0.1506 -0.857 0
M  V30 11 H -1.479 -0.9935 1.4978 0
M  V30 12 H 0.242 -1.5203 1.4299 0
M  V30 13 H -0.8894 -2.0026 0.1162 0
M  V30 END ATOM
M  V30 BEGIN BOND
M  V30 1 1 1 2
M  V30 2 1 2 3
M  V30 3 2 3 4
M  V30 4 1 3 5
M  V30 5 1 1 6
M  V30 6 1 2 7
M  V30 7 1 2 8
M  V30 8 1 4 9
M  V30 9 1 4 10
M  V30 10 1 5 11
M  V30 11 1 5 12
M  V30 12 1 5 13
M  V30 END BOND
M  V30 END CTAB
M  END
>  <Structure No>
3781

>  <LogS>
0.4298

>  <MMFF94 Energy>
1.0052

$$$$
Compound 3782
Actelion Java MolfileCreator 2.0

  0  0  0  0  0  0              0 V3000
M  V30 BEGIN CTAB
M  V30 COUNTS 15 14 0 0 0
M  V30 BEGIN ATOM
M  V30 1 S -1.0353 2.1511 0.8759 0
M  V30 2 C -0.3934 0.6316 0.0956 0 CFG=1
M  V30 3 C 0.9275 0.2359 0.7801 0
M  V30 4 C -1.4506 -0.4732 0.1945 0
M  V30 5 C 1.6636 -0.8847 0.0455 0
M  V30 6 H -2.0078 2.3544 -0.1222 0
M  V30 7 H -0.2004 0.8552 -0.9765 0
M  V30 8 H 0.7376 -0.0742 1.831 0
M  V30 9 H 1.5984 1.1225 0.8058 0
M  V30 10 H -2.4089 -0.1238 -0.2449 0
M  V30 11 H -1.6262 -0.7529 1.2554 0
M  V30 12 H -1.1319 -1.372 -0.3723 0
M  V30 13 H 1.8072 -0.6207 -1.0238 0
M  V30 14 H 1.1029 -1.8393 0.1201 0
M  V30 15 H 2.6616 -1.0354 0.5084 0
M  V30 END ATOM
M  V30 BEGIN BOND
M  V30 1 1 1 2
M  V30 2 1 2 3
M  V30 3 1 2 4
M  V30 4 1 3 5
M  V30 5 1 1 6
M  V30 6 1 2 7
M  V30 7 1 3 8
M  V30 8 1 3 9
M  V30 9 1 4 10
M  V30 10 1 4 11
M  V30 11 1 4 12
M  V30 12 1 5 13
M  V30 13 1 5 14
M  V30 14 1 5 15
M  V30 END BOND
M  V30 BEGIN COLLECTION
M  V30 MDLV30/STEABS ATOMS=(1 2)
M  V30 END COLLECTION
M  V30 END CTAB
M  END
>  <Structure No>
3782

>  <LogS>
-1.8346

>  <MMFF94 Energy>
3.5611

$$$$
Compound 3783
Actelion Java MolfileCreator 2.0

  0  0  0  0  0  0              0 V3000
M  V30 BEGIN CTAB
M  V30 COUNTS 16 15 0 0 0
M  V30 BEGIN ATOM
M  V30 1 C 0.5302 -0.2272 0.4544 0
M  V30 2 C -0.5567 0.1366 -0.4997 0
M  V30 3 C 0.2386 -0.7141 1.6668 0
M  V30 4 C 1.9749 -0.1218 0.0409 0
M  V30 5 C -0.3957 -0.0411 -1.8167 0
M  V30 6 C -1.8817 0.641 0.0097 0
M  V30 7 H 1.024 -1.0055 2.3533 0
M  V30 8 H -0.7844 -0.8506 1.9922 0
M  V30 9 H 2.2947 -1.07 -0.4394 0
M  V30 10 H 2.6295 0.078 0.9167 0
M  V30 11 H 2.1118 0.7155 -0.6755 0
M  V30 12 H -1.192 0.1959 -2.5117 0
M  V30 13 H 0.5214 -0.4429 -2.2268 0
M  V30 14 H -2.5567 -0.2181 0.2057 0
M  V30 15 H -2.3639 1.3181 -0.7279 0
M  V30 16 H -1.7409 1.2169 0.9488 0
M  V30 END ATOM
M  V30 BEGIN BOND
M  V30 1 1 1 2
M  V30 2 2 1 3
M  V30 3 1 1 4
M  V30 4 2 2 5
M  V30 5 1 2 6
M  V30 6 1 3 7
M  V30 7 1 3 8
M  V30 8 1 4 9
M  V30 9 1 4 10
M  V30 10 1 4 11
M  V30 11 1 5 12
M  V30 12 1 5 13
M  V30 13 1 6 14
M  V30 14 1 6 15
M  V30 15 1 6 16
M  V30 END BOND
M  V30 END CTAB
M  END
>  <Structure No>
3783

>  <LogS>
-2.4014

>  <MMFF94 Energy>
11.834

$$$$
Compound 3784
Actelion Java MolfileCreator 2.0

  0  0  0  0  0  0              0 V3000
M  V30 BEGIN CTAB
M  V30 COUNTS 14 13 0 0 0
M  V30 BEGIN ATOM
M  V30 1 O 0.5363 0.7662 1.6863 0
M  V30 2 C 0.636 0.3378 0.5458 0
M  V30 3 C -0.5965 0.1798 -0.3101 0 CFG=2
M  V30 4 C 1.9871 -0.0122 0.0 0
M  V30 5 O -1.2723 1.4055 -0.4066 0
M  V30 6 C -1.5324 -0.8667 0.2906 0
M  V30 7 H -0.3078 -0.1689 -1.3291 0
M  V30 8 H 2.2096 0.6261 -0.8803 0
M  V30 9 H 1.999 -1.0784 -0.3084 0
M  V30 10 H 2.7745 0.1474 0.7674 0
M  V30 11 H -0.7381 1.9785 -1.0171 0
M  V30 12 H -1.0115 -1.8448 0.3734 0
M  V30 13 H -2.4208 -0.9953 -0.3636 0
M  V30 14 H -1.8771 -0.5513 1.299 0
M  V30 END ATOM
M  V30 BEGIN BOND
M  V30 1 2 1 2
M  V30 2 1 2 3
M  V30 3 1 2 4
M  V30 4 1 3 5
M  V30 5 1 3 6
M  V30 6 1 3 7
M  V30 7 1 4 8
M  V30 8 1 4 9
M  V30 9 1 4 10
M  V30 10 1 5 11
M  V30 11 1 6 12
M  V30 12 1 6 13
M  V30 13 1 6 14
M  V30 END BOND
M  V30 BEGIN COLLECTION
M  V30 MDLV30/STEABS ATOMS=(1 3)
M  V30 END COLLECTION
M  V30 END CTAB
M  END
>  <Structure No>
3784

>  <LogS>
1.055

>  <MMFF94 Energy>
24.111

$$$$
Compound 3785
Actelion Java MolfileCreator 2.0

  0  0  0  0  0  0              0 V3000
M  V30 BEGIN CTAB
M  V30 COUNTS 51 53 0 0 0
M  V30 BEGIN ATOM
M  V30 1 O -4.3561 1.2086 -2.499 0
M  V30 2 C -3.734 0.1833 -2.1084 0
M  V30 3 O -3.2603 -0.7091 -3.0648 0 CHG=-1
M  V30 4 C -3.4187 -0.0331 -0.6271 0 CFG=2
M  V30 5 C -1.8874 0.3112 -0.4071 0 CFG=2
M  V30 6 C -3.6882 -1.5303 -0.3008 0
M  V30 7 C -4.4053 0.8387 0.2037 0
M  V30 8 C -1.1829 -0.261 0.8767 0 CFG=2
M  V30 9 C -1.559 1.8104 -0.5717 0
M  V30 10 C -3.1003 -1.9712 1.0433 0
M  V30 11 C 0.39 -0.0877 0.7177 0 CFG=2
M  V30 12 C -1.5853 -1.755 1.0552 0
M  V30 13 C -1.5661 0.5113 2.1762 0
M  V30 14 C -0.0792 2.0497 -0.5469 0
M  V30 15 C 0.7975 1.2088 0.0282 0
M  V30 16 C 1.1533 -1.2231 6.0E-4 0
M  V30 17 C 2.2381 1.442 -0.1927 0
M  V30 18 C 2.6759 -0.9997 0.0966 0
M  V30 19 C 3.1203 0.4259 -0.1966 0
M  V30 20 C 4.5816 0.7117 -0.5056 0
M  V30 21 C 5.5205 0.0274 0.496 0
M  V30 22 C 4.9184 0.2977 -1.9418 0
M  V30 23 H -1.3661 -0.1971 -1.2527 0
M  V30 24 H -3.2453 -2.1858 -1.083 0
M  V30 25 H -4.7819 -1.7346 -0.3018 0
M  V30 26 H -5.4462 0.6685 -0.1491 0
M  V30 27 H -4.2036 1.9224 0.0915 0
M  V30 28 H -4.4266 0.5831 1.2742 0
M  V30 29 H -2.0236 2.4226 0.2263 0
M  V30 30 H -1.9492 2.1789 -1.5435 0
M  V30 31 H -3.5915 -1.4543 1.891 0
M  V30 32 H -3.3028 -3.0562 1.1766 0
M  V30 33 H 0.831 -0.0532 1.7409 0
M  V30 34 H -1.1889 -2.3673 0.2187 0
M  V30 35 H -1.161 -2.1609 1.9997 0
M  V30 36 H -2.6442 0.5484 2.3718 0
M  V30 37 H -1.1081 0.0201 3.0619 0
M  V30 38 H -1.1864 1.5538 2.1618 0
M  V30 39 H 0.2827 2.9362 -1.0558 0
M  V30 40 H 0.8456 -1.2801 -1.0666 0
M  V30 41 H 0.9588 -2.203 0.4823 0
M  V30 42 H 2.5692 2.4429 -0.4467 0
M  V30 43 H 3.1762 -1.7031 -0.6012 0
M  V30 44 H 3.007 -1.2582 1.1259 0
M  V30 45 H 4.7764 1.8052 -0.4238 0
M  V30 46 H 5.2456 0.3148 1.5335 0
M  V30 47 H 6.5685 0.3478 0.3136 0
M  V30 48 H 5.471 -1.0783 0.4015 0
M  V30 49 H 4.2385 0.8105 -2.6555 0
M  V30 50 H 4.818 -0.8 -2.076 0
M  V30 51 H 5.9618 0.5895 -2.187 0
M  V30 END ATOM
M  V30 BEGIN BOND
M  V30 1 2 1 2
M  V30 2 1 2 3
M  V30 3 1 2 4
M  V30 4 1 4 5
M  V30 5 1 4 6
M  V30 6 1 4 7
M  V30 7 1 5 8
M  V30 8 1 5 9
M  V30 9 1 6 10
M  V30 10 1 8 11
M  V30 11 1 8 12
M  V30 12 1 8 13
M  V30 13 1 9 14
M  V30 14 1 11 15
M  V30 15 1 11 16
M  V30 16 1 15 17
M  V30 17 1 16 18
M  V30 18 2 17 19
M  V30 19 1 19 20
M  V30 20 1 20 21
M  V30 21 1 20 22
M  V30 22 1 10 12
M  V30 23 2 14 15
M  V30 24 1 18 19
M  V30 25 1 5 23
M  V30 26 1 6 24
M  V30 27 1 6 25
M  V30 28 1 7 26
M  V30 29 1 7 27
M  V30 30 1 7 28
M  V30 31 1 9 29
M  V30 32 1 9 30
M  V30 33 1 10 31
M  V30 34 1 10 32
M  V30 35 1 11 33
M  V30 36 1 12 34
M  V30 37 1 12 35
M  V30 38 1 13 36
M  V30 39 1 13 37
M  V30 40 1 13 38
M  V30 41 1 14 39
M  V30 42 1 16 40
M  V30 43 1 16 41
M  V30 44 1 17 42
M  V30 45 1 18 43
M  V30 46 1 18 44
M  V30 47 1 20 45
M  V30 48 1 21 46
M  V30 49 1 21 47
M  V30 50 1 21 48
M  V30 51 1 22 49
M  V30 52 1 22 50
M  V30 53 1 22 51
M  V30 END BOND
M  V30 BEGIN COLLECTION
M  V30 MDLV30/STEABS ATOMS=(4 4 5 8 11)
M  V30 END COLLECTION
M  V30 END CTAB
M  END
>  <Structure No>
3785

>  <LogS>
-3.7959

>  <MMFF94 Energy>
65.294

$$$$
Compound 3786
Actelion Java MolfileCreator 2.0

  0  0  0  0  0  0              0 V3000
M  V30 BEGIN CTAB
M  V30 COUNTS 52 55 0 0 0
M  V30 BEGIN ATOM
M  V30 1 O 5.266 -0.7278 0.1617 0
M  V30 2 C 4.304 -0.0371 0.4614 0
M  V30 3 C 2.9434 -0.1875 -0.149 0 CFG=2
M  V30 4 C 4.3795 1.1052 1.4311 0
M  V30 5 C 2.1121 0.4862 0.9433 0 CFG=1
M  V30 6 C 2.4379 -1.6516 -0.316 0
M  V30 7 C 2.9983 0.5749 -1.5024 0
M  V30 8 C 2.9449 1.6595 1.4615 0
M  V30 9 C 0.5988 0.6212 0.6395 0 CFG=2
M  V30 10 C 0.9006 -1.8381 -0.0379 0 CFG=1
M  V30 11 C 0.0837 -0.5222 -0.2972 0 CFG=1
M  V30 12 C 0.1329 1.9695 0.0954 0
M  V30 13 O 0.4369 -2.893 -0.8355 0
M  V30 14 C -1.5002 -0.5944 -0.3037 0 CFG=2
M  V30 15 C -1.397 2.0106 0.1663 0
M  V30 16 C -2.0784 0.8485 -0.6098 0 CFG=2
M  V30 17 C -2.0628 -1.1254 1.0482 0
M  V30 18 C -1.9612 -1.549 -1.4518 0
M  V30 19 C -3.6228 0.9335 -0.4382 0
M  V30 20 C -3.5971 -1.1036 1.0951 0
M  V30 21 C -4.1563 0.3091 0.8659 0 CFG=1
M  V30 22 O -3.8595 1.1401 1.9581 0
M  V30 23 H 5.0998 1.8752 1.0815 0
M  V30 24 H 4.6738 0.7263 2.4335 0
M  V30 25 H 2.132 -0.2248 1.8117 0
M  V30 26 H 2.6811 -2.0069 -1.3418 0
M  V30 27 H 2.9896 -2.3202 0.381 0
M  V30 28 H 3.8096 0.1532 -2.1346 0
M  V30 29 H 3.2193 1.6524 -1.3531 0
M  V30 30 H 2.0814 0.5058 -2.1058 0
M  V30 31 H 2.6432 1.9513 2.4909 0
M  V30 32 H 2.863 2.5381 0.787 0
M  V30 33 H 0.1256 0.5179 1.6376 0
M  V30 34 H 0.7624 -2.1061 1.036 0
M  V30 35 H 0.3228 -0.2417 -1.3358 0
M  V30 36 H 0.5278 2.7971 0.7218 0
M  V30 37 H 0.4792 2.123 -0.9491 0
M  V30 38 H 0.7767 -3.7327 -0.4288 0
M  V30 39 H -1.6955 1.9949 1.2341 0
M  V30 40 H -1.738 2.9824 -0.2531 0
M  V30 41 H -1.8724 1.0631 -1.6837 0
M  V30 42 H -1.7185 -2.1682 1.2186 0
M  V30 43 H -1.7027 -0.5273 1.9061 0
M  V30 44 H -3.0194 -1.399 -1.735 0
M  V30 45 H -1.8928 -2.6145 -1.1538 0
M  V30 46 H -1.3637 -1.3918 -2.3749 0
M  V30 47 H -3.9525 1.9945 -0.4905 0
M  V30 48 H -4.1225 0.4397 -1.2971 0
M  V30 49 H -4.0177 -1.8009 0.3401 0
M  V30 50 H -3.9326 -1.4744 2.088 0
M  V30 51 H -5.2643 0.2306 0.7655 0
M  V30 52 H -4.4541 0.8623 2.7034 0
M  V30 END ATOM
M  V30 BEGIN BOND
M  V30 1 2 1 2
M  V30 2 1 2 3
M  V30 3 1 2 4
M  V30 4 1 3 5
M  V30 5 1 3 6
M  V30 6 1 3 7
M  V30 7 1 4 8
M  V30 8 1 5 9
M  V30 9 1 6 10
M  V30 10 1 9 11
M  V30 11 1 9 12
M  V30 12 1 10 13
M  V30 13 1 11 14
M  V30 14 1 12 15
M  V30 15 1 14 16
M  V30 16 1 14 17
M  V30 17 1 14 18
M  V30 18 1 16 19
M  V30 19 1 17 20
M  V30 20 1 19 21
M  V30 21 1 21 22
M  V30 22 1 5 8
M  V30 23 1 10 11
M  V30 24 1 15 16
M  V30 25 1 20 21
M  V30 26 1 4 23
M  V30 27 1 4 24
M  V30 28 1 5 25
M  V30 29 1 6 26
M  V30 30 1 6 27
M  V30 31 1 7 28
M  V30 32 1 7 29
M  V30 33 1 7 30
M  V30 34 1 8 31
M  V30 35 1 8 32
M  V30 36 1 9 33
M  V30 37 1 10 34
M  V30 38 1 11 35
M  V30 39 1 12 36
M  V30 40 1 12 37
M  V30 41 1 13 38
M  V30 42 1 15 39
M  V30 43 1 15 40
M  V30 44 1 16 41
M  V30 45 1 17 42
M  V30 46 1 17 43
M  V30 47 1 18 44
M  V30 48 1 18 45
M  V30 49 1 18 46
M  V30 50 1 19 47
M  V30 51 1 19 48
M  V30 52 1 20 49
M  V30 53 1 20 50
M  V30 54 1 21 51
M  V30 55 1 22 52
M  V30 END BOND
M  V30 BEGIN COLLECTION
M  V30 MDLV30/STEABS ATOMS=(8 3 5 9 10 11 14 16 21)
M  V30 END COLLECTION
M  V30 END CTAB
M  END
>  <Structure No>
3786

>  <LogS>
-3.5932

>  <MMFF94 Energy>
83.908

$$$$
Compound 3787
Actelion Java MolfileCreator 2.0

  0  0  0  0  0  0              0 V3000
M  V30 BEGIN CTAB
M  V30 COUNTS 21 21 0 0 0
M  V30 BEGIN ATOM
M  V30 1 O -2.235 -1.1968 1.9155 0
M  V30 2 C -1.8377 -1.3544 0.7297 0
M  V30 3 O -1.7538 -2.6399 0.2084 0 CHG=-1
M  V30 4 C -1.4036 -0.173 -0.1175 0 CFG=2
M  V30 5 O -1.9489 -0.3301 -1.4081 0
M  V30 6 C 0.1214 -0.1368 -0.2008 0
M  V30 7 C -1.8986 1.1639 0.473 0
M  V30 8 C 0.7821 0.0892 -1.4279 0
M  V30 9 C 0.9034 -0.25 0.9693 0
M  V30 10 C 2.1775 0.1573 -1.4836 0
M  V30 11 C 2.2978 -0.1807 0.9058 0
M  V30 12 C 2.9343 0.0184 -0.3195 0
M  V30 13 H -2.9394 -0.3478 -1.3255 0
M  V30 14 H -1.463 1.343 1.4798 0
M  V30 15 H -3.006 1.1633 0.5658 0
M  V30 16 H -1.6056 2.0056 -0.1909 0
M  V30 17 H 0.2263 0.2186 -2.3472 0
M  V30 18 H 0.434 -0.3883 1.9348 0
M  V30 19 H 2.6724 0.3241 -2.4316 0
M  V30 20 H 2.8851 -0.2762 1.8099 0
M  V30 21 H 4.0141 0.0737 -0.366 0
M  V30 END ATOM
M  V30 BEGIN BOND
M  V30 1 2 1 2
M  V30 2 1 2 3
M  V30 3 1 2 4
M  V30 4 1 4 5
M  V30 5 1 4 6
M  V30 6 1 4 7
M  V30 7 2 6 8
M  V30 8 1 6 9
M  V30 9 1 8 10
M  V30 10 2 9 11
M  V30 11 2 10 12
M  V30 12 1 11 12
M  V30 13 1 5 13
M  V30 14 1 7 14
M  V30 15 1 7 15
M  V30 16 1 7 16
M  V30 17 1 8 17
M  V30 18 1 9 18
M  V30 19 1 10 19
M  V30 20 1 11 20
M  V30 21 1 12 21
M  V30 END BOND
M  V30 BEGIN COLLECTION
M  V30 MDLV30/STEABS ATOMS=(1 4)
M  V30 END COLLECTION
M  V30 END CTAB
M  END
>  <Structure No>
3787

>  <LogS>
-0.8949

>  <MMFF94 Energy>
105.83

$$$$
Compound 3788
Actelion Java MolfileCreator 2.0

  0  0  0  0  0  0              0 V3000
M  V30 BEGIN CTAB
M  V30 COUNTS 12 11 0 0 0
M  V30 BEGIN ATOM
M  V30 1 O 2.1114 -0.7305 -1.2989 0
M  V30 2 C 1.3769 -0.5502 -0.2919 0
M  V30 3 O 1.8447 -0.9054 0.9682 0 CHG=-1
M  V30 4 C 0.0 0.0264 -0.4576 0
M  V30 5 C -1.0332 -1.0101 -0.121 0
M  V30 6 C -0.1759 1.2724 0.4144 0
M  V30 7 O -1.7804 -1.473 -1.0228 0
M  V30 8 O -1.1622 -1.4791 1.1814 0 CHG=-1
M  V30 9 H -0.1344 0.337 -1.5185 0
M  V30 10 H 0.5761 2.0412 0.135 0
M  V30 11 H -0.0528 1.0272 1.4915 0
M  V30 12 H -1.188 1.7045 0.2601 0
M  V30 END ATOM
M  V30 BEGIN BOND
M  V30 1 2 1 2
M  V30 2 1 2 3
M  V30 3 1 2 4
M  V30 4 1 4 5
M  V30 5 1 4 6
M  V30 6 2 5 7
M  V30 7 1 5 8
M  V30 8 1 4 9
M  V30 9 1 6 10
M  V30 10 1 6 11
M  V30 11 1 6 12
M  V30 END BOND
M  V30 END CTAB
M  END
>  <Structure No>
3788

>  <LogS>
0.7597

>  <MMFF94 Energy>
43.963

$$$$
Compound 3789
Actelion Java MolfileCreator 2.0

  0  0  0  0  0  0              0 V3000
M  V30 BEGIN CTAB
M  V30 COUNTS 19 18 0 0 0
M  V30 BEGIN ATOM
M  V30 1 O 1.6263 0.2322 1.8588 0
M  V30 2 C 1.1865 -0.7013 1.1362 0
M  V30 3 O 1.079 -1.981 1.6666 0 CHG=-1
M  V30 4 C 0.7461 -0.438 -0.2843 0 CFG=2
M  V30 5 N 1.6817 0.4714 -0.9622 0 CHG=1
M  V30 6 C -0.724 0.0713 -0.3754 0
M  V30 7 C -1.7171 -1.0024 0.0952 0
M  V30 8 C -0.9708 1.3859 0.3845 0
M  V30 9 H 0.7897 -1.412 -0.8233 0
M  V30 10 H 1.755 1.3868 -0.4635 0
M  V30 11 H 1.3683 0.6399 -1.9457 0
M  V30 12 H 2.6313 0.0336 -0.9954 0
M  V30 13 H -0.9484 0.2639 -1.4481 0
M  V30 14 H -1.5959 -1.2062 1.1803 0
M  V30 15 H -2.7598 -0.6644 -0.0859 0
M  V30 16 H -1.561 -1.9468 -0.4685 0
M  V30 17 H -0.7909 1.2599 1.4725 0
M  V30 18 H -2.0237 1.7114 0.2436 0
M  V30 19 H -0.3215 2.1968 -0.0033 0
M  V30 END ATOM
M  V30 BEGIN BOND
M  V30 1 2 1 2
M  V30 2 1 2 3
M  V30 3 1 2 4
M  V30 4 1 4 5
M  V30 5 1 4 6
M  V30 6 1 6 7
M  V30 7 1 6 8
M  V30 8 1 4 9
M  V30 9 1 5 10
M  V30 10 1 5 11
M  V30 11 1 5 12
M  V30 12 1 6 13
M  V30 13 1 7 14
M  V30 14 1 7 15
M  V30 15 1 7 16
M  V30 16 1 8 17
M  V30 17 1 8 18
M  V30 18 1 8 19
M  V30 END BOND
M  V30 BEGIN COLLECTION
M  V30 MDLV30/STEABS ATOMS=(1 4)
M  V30 END COLLECTION
M  V30 END CTAB
M  END
>  <Structure No>
3789

>  <LogS>
-0.1971

>  <MMFF94 Energy>
-3.166

$$$$
Compound 3790
Actelion Java MolfileCreator 2.0

  0  0  0  0  0  0              0 V3000
M  V30 BEGIN CTAB
M  V30 COUNTS 52 56 0 0 0
M  V30 BEGIN ATOM
M  V30 1 O 1.2208 2.3613 -3.6659 0
M  V30 2 C 1.3724 1.134 -3.4283 0
M  V30 3 O 2.3872 0.3962 -3.9883 0
M  V30 4 C 0.4592 0.3331 -2.5727 0 CFG=2
M  V30 5 C 2.3296 -0.9585 -3.5926 0
M  V30 6 C 0.4124 0.8902 -1.118 0 CFG=2
M  V30 7 C 1.0532 -1.1024 -2.7215 0 CFG=1
M  V30 8 C 1.6091 0.4298 -0.3126 0
M  V30 9 C -0.8771 0.5867 -0.3565 0
M  V30 10 C 1.3584 -1.8288 -1.3906 0
M  V30 11 C 2.0536 -0.9202 -0.4056 0
M  V30 12 C 2.255 1.3295 0.564 0
M  V30 13 C -1.7342 -0.4751 -0.6927 0
M  V30 14 C -1.2037 1.3843 0.7508 0
M  V30 15 C 3.1073 -1.3725 0.4413 0
M  V30 16 C 3.308 0.8537 1.3314 0
M  V30 17 C -2.8898 -0.7393 0.0624 0
M  V30 18 C -2.357 1.1402 1.5204 0
M  V30 19 O 3.5492 -2.6958 0.4894 0
M  V30 20 C 3.7126 -0.4372 1.2756 0
M  V30 21 O 4.0799 1.5422 2.2472 0
M  V30 22 O -3.7541 -1.8008 -0.2539 0
M  V30 23 C -3.2072 0.0623 1.169 0
M  V30 24 O -2.6683 1.9483 2.6256 0
M  V30 25 O 4.7588 -0.6273 2.1588 0
M  V30 26 C 5.0324 0.6252 2.8011 0
M  V30 27 C -3.5646 -2.7059 -1.3369 0
M  V30 28 O -4.3812 -0.2692 1.8733 0
M  V30 29 C -1.8862 3.0472 3.0832 0
M  V30 30 C -4.8886 0.3814 3.0336 0
M  V30 31 H -0.5489 0.3871 -3.0394 0
M  V30 32 H 2.2681 -1.6065 -4.4925 0
M  V30 33 H 3.2565 -1.206 -3.0315 0
M  V30 34 H 0.4541 2.0007 -1.2025 0
M  V30 35 H 0.3227 -1.7249 -3.2851 0
M  V30 36 H 1.9645 -2.7222 -1.6356 0
M  V30 37 H 0.422 -2.2007 -0.9285 0
M  V30 38 H 1.9426 2.3625 0.6496 0
M  V30 39 H -1.513 -1.0979 -1.5427 0
M  V30 40 H -0.5459 2.2019 1.0097 0
M  V30 41 H 3.0882 -3.4605 0.0173 0
M  V30 42 H 4.8849 0.5346 3.8977 0
M  V30 43 H 6.0653 0.9585 2.5666 0
M  V30 44 H -4.3929 -3.443 -1.3415 0
M  V30 45 H -3.5739 -2.1551 -2.3009 0
M  V30 46 H -2.6052 -3.2514 -1.2157 0
M  V30 47 H -1.8189 3.8245 2.293 0
M  V30 48 H -0.8709 2.7008 3.3701 0
M  V30 49 H -2.3739 3.4907 3.9749 0
M  V30 50 H -5.1433 1.4372 2.8015 0
M  V30 51 H -5.816 -0.1337 3.3561 0
M  V30 52 H -4.1527 0.3185 3.8629 0
M  V30 END ATOM
M  V30 BEGIN BOND
M  V30 1 2 1 2
M  V30 2 1 2 3
M  V30 3 1 2 4
M  V30 4 1 3 5
M  V30 5 1 4 6
M  V30 6 1 4 7
M  V30 7 1 6 8
M  V30 8 1 6 9
M  V30 9 1 7 10
M  V30 10 2 8 11
M  V30 11 1 8 12
M  V30 12 2 9 13
M  V30 13 1 9 14
M  V30 14 1 11 15
M  V30 15 2 12 16
M  V30 16 1 13 17
M  V30 17 2 14 18
M  V30 18 1 15 19
M  V30 19 2 15 20
M  V30 20 1 16 21
M  V30 21 1 17 22
M  V30 22 2 17 23
M  V30 23 1 18 24
M  V30 24 1 20 25
M  V30 25 1 21 26
M  V30 26 1 22 27
M  V30 27 1 23 28
M  V30 28 1 24 29
M  V30 29 1 28 30
M  V30 30 1 5 7
M  V30 31 1 10 11
M  V30 32 1 16 20
M  V30 33 1 18 23
M  V30 34 1 25 26
M  V30 35 1 4 31
M  V30 36 1 5 32
M  V30 37 1 5 33
M  V30 38 1 6 34
M  V30 39 1 7 35
M  V30 40 1 10 36
M  V30 41 1 10 37
M  V30 42 1 12 38
M  V30 43 1 13 39
M  V30 44 1 14 40
M  V30 45 1 19 41
M  V30 46 1 26 42
M  V30 47 1 26 43
M  V30 48 1 27 44
M  V30 49 1 27 45
M  V30 50 1 27 46
M  V30 51 1 29 47
M  V30 52 1 29 48
M  V30 53 1 29 49
M  V30 54 1 30 50
M  V30 55 1 30 51
M  V30 56 1 30 52
M  V30 END BOND
M  V30 BEGIN COLLECTION
M  V30 MDLV30/STEABS ATOMS=(3 4 6 7)
M  V30 END COLLECTION
M  V30 END CTAB
M  END
>  <Structure No>
3790

>  <LogS>
-4.5035

>  <MMFF94 Energy>
83.449

$$$$
Compound 3791
Actelion Java MolfileCreator 2.0

  0  0  0  0  0  0              0 V3000
M  V30 BEGIN CTAB
M  V30 COUNTS 37 41 0 0 0
M  V30 BEGIN ATOM
M  V30 1 O 0.0 -2.8689 -3.1151 0
M  V30 2 C -0.0597 -2.1333 -2.0957 0
M  V30 3 O 0.3564 -0.8074 -2.0606 0
M  V30 4 C -0.5596 -2.5178 -0.801 0
M  V30 5 C 0.1533 -0.2542 -0.7497 0
M  V30 6 C -0.4423 -1.4158 0.0143 0
M  V30 7 C -1.081 -3.7267 -0.3451 0
M  V30 8 C 1.492 0.1381 -0.145 0
M  V30 9 C -0.8454 0.8899 -0.8244 0
M  V30 10 C -0.8485 -1.4712 1.3505 0
M  V30 11 C -1.4946 -3.801 0.9954 0
M  V30 12 C 1.6643 1.3966 0.4645 0
M  V30 13 C 2.5642 -0.7742 -0.14 0
M  V30 14 C -0.5802 2.1184 -0.1877 0
M  V30 15 C -2.0749 0.7176 -1.4883 0
M  V30 16 C -1.3788 -2.6775 1.8402 0
M  V30 17 O 0.6328 2.336 0.4662 0
M  V30 18 C 2.8827 1.725 1.069 0
M  V30 19 C 3.7801 -0.4371 0.4595 0
M  V30 20 C -1.5311 3.1445 -0.2138 0
M  V30 21 C -3.0172 1.7487 -1.516 0
M  V30 22 C 3.9428 0.8102 1.0667 0
M  V30 23 C -2.7502 2.9626 -0.8783 0
M  V30 24 O 5.1596 1.1311 1.6642 0
M  V30 25 O -3.7007 3.9805 -0.9109 0
M  V30 26 H -1.1653 -4.5824 -1.002 0
M  V30 27 H -0.7569 -0.6053 1.9933 0
M  V30 28 H -1.9041 -4.7251 1.3816 0
M  V30 29 H 2.4556 -1.7518 -0.592 0
M  V30 30 H -2.3089 -0.2196 -1.9768 0
M  V30 31 H -1.7 -2.7441 2.8715 0
M  V30 32 H 3.0051 2.6945 1.5354 0
M  V30 33 H 4.5955 -1.1492 0.4571 0
M  V30 34 H -1.3181 4.0849 0.2788 0
M  V30 35 H -3.9591 1.6018 -2.029 0
M  V30 36 H 5.3092 2.0273 2.1128 0
M  V30 37 H -3.5372 4.8723 -0.4583 0
M  V30 END ATOM
M  V30 BEGIN BOND
M  V30 1 2 1 2
M  V30 2 1 2 3
M  V30 3 1 2 4
M  V30 4 1 3 5
M  V30 5 2 4 6
M  V30 6 1 4 7
M  V30 7 1 5 8
M  V30 8 1 5 9
M  V30 9 1 6 10
M  V30 10 2 7 11
M  V30 11 2 8 12
M  V30 12 1 8 13
M  V30 13 2 9 14
M  V30 14 1 9 15
M  V30 15 2 10 16
M  V30 16 1 12 17
M  V30 17 1 12 18
M  V30 18 2 13 19
M  V30 19 1 14 20
M  V30 20 2 15 21
M  V30 21 2 18 22
M  V30 22 2 20 23
M  V30 23 1 22 24
M  V30 24 1 23 25
M  V30 25 1 5 6
M  V30 26 1 11 16
M  V30 27 1 14 17
M  V30 28 1 19 22
M  V30 29 1 21 23
M  V30 30 1 7 26
M  V30 31 1 10 27
M  V30 32 1 11 28
M  V30 33 1 13 29
M  V30 34 1 15 30
M  V30 35 1 16 31
M  V30 36 1 18 32
M  V30 37 1 19 33
M  V30 38 1 20 34
M  V30 39 1 21 35
M  V30 40 1 24 36
M  V30 41 1 25 37
M  V30 END BOND
M  V30 END CTAB
M  END
>  <Structure No>
3791

>  <LogS>
-3.8226

>  <MMFF94 Energy>
48.346

$$$$
Compound 3792
Actelion Java MolfileCreator 2.0

  0  0  0  0  0  0              0 V3000
M  V30 BEGIN CTAB
M  V30 COUNTS 24 24 0 0 0
M  V30 BEGIN ATOM
M  V30 1 O 2.577 1.4489 -2.4157 0
M  V30 2 C 1.8965 1.6655 -1.3781 0
M  V30 3 O 1.6912 2.976 -0.9629 0 CHG=-1
M  V30 4 C 1.2868 0.5402 -0.63 0
M  V30 5 C -0.0746 0.6341 -0.2503 0
M  V30 6 C 2.0328 -0.6268 -0.3214 0
M  V30 7 O -0.7625 1.8172 -0.593 0
M  V30 8 C -0.6914 -0.4488 0.4285 0
M  V30 9 C 1.3965 -1.6904 0.3324 0
M  V30 10 C 3.4835 -0.7325 -0.614 0
M  V30 11 C -2.1259 2.1246 -0.323 0
M  V30 12 O -2.0383 -0.3623 0.8159 0
M  V30 13 C 0.0593 -1.6039 0.7019 0
M  V30 14 O 4.0892 -1.8318 -0.5035 0
M  V30 15 C -2.7615 -1.382 1.4987 0
M  V30 16 H 1.9419 -2.5922 0.5824 0
M  V30 17 H 4.055 0.1342 -0.9128 0
M  V30 18 H -2.7928 1.3943 -0.8276 0
M  V30 19 H -2.3073 2.1426 0.7722 0
M  V30 20 H -2.3515 3.133 -0.726 0
M  V30 21 H -0.3811 -2.4484 1.2135 0
M  V30 22 H -3.7998 -1.0333 1.6734 0
M  V30 23 H -2.7966 -2.3043 0.8814 0
M  V30 24 H -2.2887 -1.5936 2.481 0
M  V30 END ATOM
M  V30 BEGIN BOND
M  V30 1 2 1 2
M  V30 2 1 2 3
M  V30 3 1 2 4
M  V30 4 2 4 5
M  V30 5 1 4 6
M  V30 6 1 5 7
M  V30 7 1 5 8
M  V30 8 2 6 9
M  V30 9 1 6 10
M  V30 10 1 7 11
M  V30 11 1 8 12
M  V30 12 2 8 13
M  V30 13 2 10 14
M  V30 14 1 12 15
M  V30 15 1 9 13
M  V30 16 1 9 16
M  V30 17 1 10 17
M  V30 18 1 11 18
M  V30 19 1 11 19
M  V30 20 1 11 20
M  V30 21 1 13 21
M  V30 22 1 15 22
M  V30 23 1 15 23
M  V30 24 1 15 24
M  V30 END BOND
M  V30 END CTAB
M  END
>  <Structure No>
3792

>  <LogS>
-1.9247

>  <MMFF94 Energy>
43.663

$$$$
Compound 3793
Actelion Java MolfileCreator 2.0

  0  0  0  0  0  0              0 V3000
M  V30 BEGIN CTAB
M  V30 COUNTS 36 36 0 0 0
M  V30 BEGIN ATOM
M  V30 1 O 1.7383 1.5802 0.0789 0
M  V30 2 C 1.0514 0.5577 0.3434 0
M  V30 3 N -0.3455 0.5408 -0.0114 0
M  V30 4 C 1.6687 -0.5719 1.077 0
M  V30 5 N -1.0631 1.7563 -0.0298 0
M  V30 6 C -1.0146 -0.6851 -0.376 0
M  V30 7 O 0.9284 -1.2894 1.8043 0
M  V30 8 N 3.0805 -0.8672 0.9934 0
M  V30 9 C -1.7087 2.1898 -1.245 0
M  V30 10 C -1.0691 2.6018 1.1664 0
M  V30 11 C -2.352 -0.8957 0.0011 0
M  V30 12 C -0.3555 -1.6679 -1.1376 0
M  V30 13 C 3.6704 -1.7903 1.9678 0
M  V30 14 C 3.9029 -0.3418 -0.1018 0
M  V30 15 O -1.5538 1.5274 -2.3064 0
M  V30 16 C -2.5632 3.421 -1.2823 0
M  V30 17 C -3.0115 -2.0741 -0.361 0
M  V30 18 C -1.0189 -2.8449 -1.4972 0
M  V30 19 C -2.3451 -3.0488 -1.1078 0
M  V30 20 H -2.11 2.8775 1.4354 0
M  V30 21 H -0.4735 3.52 0.9807 0
M  V30 22 H -0.6298 2.0584 2.0296 0
M  V30 23 H -2.8799 -0.1513 0.5837 0
M  V30 24 H 0.6656 -1.518 -1.4636 0
M  V30 25 H 3.4924 -1.4112 2.9965 0
M  V30 26 H 4.767 -1.8916 1.8264 0
M  V30 27 H 3.2073 -2.7941 1.8626 0
M  V30 28 H 4.867 -0.8863 -0.1838 0
M  V30 29 H 4.1278 0.7299 0.0753 0
M  V30 30 H 3.3686 -0.4602 -1.0685 0
M  V30 31 H -1.9686 4.3038 -0.9679 0
M  V30 32 H -3.4312 3.295 -0.6025 0
M  V30 33 H -2.9435 3.6003 -2.3105 0
M  V30 34 H -4.0399 -2.2317 -0.0621 0
M  V30 35 H -0.5058 -3.5971 -2.0822 0
M  V30 36 H -2.8573 -3.96 -1.3878 0
M  V30 END ATOM
M  V30 BEGIN BOND
M  V30 1 2 1 2
M  V30 2 1 2 3
M  V30 3 1 2 4
M  V30 4 1 3 5
M  V30 5 1 3 6
M  V30 6 2 4 7
M  V30 7 1 4 8
M  V30 8 1 5 9
M  V30 9 1 5 10
M  V30 10 2 6 11
M  V30 11 1 6 12
M  V30 12 1 8 13
M  V30 13 1 8 14
M  V30 14 2 9 15
M  V30 15 1 9 16
M  V30 16 1 11 17
M  V30 17 2 12 18
M  V30 18 2 17 19
M  V30 19 1 18 19
M  V30 20 1 10 20
M  V30 21 1 10 21
M  V30 22 1 10 22
M  V30 23 1 11 23
M  V30 24 1 12 24
M  V30 25 1 13 25
M  V30 26 1 13 26
M  V30 27 1 13 27
M  V30 28 1 14 28
M  V30 29 1 14 29
M  V30 30 1 14 30
M  V30 31 1 16 31
M  V30 32 1 16 32
M  V30 33 1 16 33
M  V30 34 1 17 34
M  V30 35 1 18 35
M  V30 36 1 19 36
M  V30 END BOND
M  V30 END CTAB
M  END
>  <Structure No>
3793

>  <LogS>
-0.5345

>  <MMFF94 Energy>
92.817

$$$$
Compound 3794
Actelion Java MolfileCreator 2.0

  0  0  0  0  0  0              0 V3000
M  V30 BEGIN CTAB
M  V30 COUNTS 51 54 0 0 0
M  V30 BEGIN ATOM
M  V30 1 O -4.3329 -2.3252 1.0418 0
M  V30 2 C -4.0761 -1.4353 -0.0129 0
M  V30 3 C -3.5855 -2.3818 2.2528 0
M  V30 4 C -3.0427 -0.4789 0.0389 0
M  V30 5 C -4.8808 -1.5164 -1.1501 0
M  V30 6 C -2.8031 0.3946 -1.0493 0
M  V30 7 C -4.6614 -0.6706 -2.2342 0
M  V30 8 C -3.6335 0.2747 -2.1963 0
M  V30 9 C -1.7718 1.3834 -1.0599 0
M  V30 10 N -3.4372 1.0748 -3.2755 0
M  V30 11 C -1.6143 2.1747 -2.214 0
M  V30 12 C -0.805 1.6359 0.1 0 CFG=2
M  V30 13 C -2.4565 2.0071 -3.308 0
M  V30 14 O -0.7218 3.0187 0.3401 0
M  V30 15 C 0.6151 1.0859 -0.2273 0 CFG=1
M  V30 16 N 1.6317 1.4525 0.8096 0 CHG=1 CFG=2
M  V30 17 C 0.6247 -0.4571 -0.4668 0
M  V30 18 C 2.9873 1.1241 0.2979 0
M  V30 19 C 1.4177 0.7065 2.078 0
M  V30 20 C 1.7669 -1.0928 0.3488 0 CFG=1
M  V30 21 C 3.0925 -0.3921 -0.0595 0 CFG=2
M  V30 22 C 1.4642 -0.8213 1.8371 0
M  V30 23 C 4.3287 -1.0687 0.5752 0
M  V30 24 C 5.6313 -0.6128 -0.0822 0
M  V30 25 H -2.5225 -2.6191 2.0352 0
M  V30 26 H -4.0024 -3.1812 2.8989 0
M  V30 27 H -3.6591 -1.4143 2.7931 0
M  V30 28 H -2.4361 -0.4508 0.9243 0
M  V30 29 H -5.6786 -2.2471 -1.1961 0
M  V30 30 H -5.2927 -0.7546 -3.1106 0
M  V30 31 H -0.8388 2.929 -2.2669 0
M  V30 32 H -1.1579 1.1662 1.0331 0
M  V30 33 H -2.3305 2.623 -4.1885 0
M  V30 34 H -1.5871 3.2954 0.7422 0
M  V30 35 H 0.9195 1.5671 -1.186 0
M  V30 36 H 1.5999 2.4801 1.0066 0
M  V30 37 H -0.3322 -0.9298 -0.1673 0
M  V30 38 H 0.7656 -0.6735 -1.5486 0
M  V30 39 H 3.2109 1.734 -0.6062 0
M  V30 40 H 3.7505 1.4163 1.0542 0
M  V30 41 H 0.4536 0.9928 2.5479 0
M  V30 42 H 2.202 0.9855 2.8177 0
M  V30 43 H 1.8116 -2.1862 0.1511 0
M  V30 44 H 3.1903 -0.4893 -1.1651 0
M  V30 45 H 0.4867 -1.2761 2.1117 0
M  V30 46 H 2.2333 -1.2932 2.4843 0
M  V30 47 H 4.3801 -0.8485 1.6631 0
M  V30 48 H 4.2508 -2.1712 0.454 0
M  V30 49 H 5.6236 -0.8578 -1.1656 0
M  V30 50 H 6.4886 -1.1365 0.3912 0
M  V30 51 H 5.7742 0.4807 0.0433 0
M  V30 END ATOM
M  V30 BEGIN BOND
M  V30 1 1 1 2
M  V30 2 1 1 3
M  V30 3 2 2 4
M  V30 4 1 2 5
M  V30 5 1 4 6
M  V30 6 2 5 7
M  V30 7 1 6 8
M  V30 8 2 6 9
M  V30 9 2 8 10
M  V30 10 1 9 11
M  V30 11 1 9 12
M  V30 12 1 10 13
M  V30 13 1 12 14
M  V30 14 1 12 15
M  V30 15 1 15 16
M  V30 16 1 15 17
M  V30 17 1 16 18
M  V30 18 1 16 19
M  V30 19 1 17 20
M  V30 20 1 18 21
M  V30 21 1 19 22
M  V30 22 1 21 23
M  V30 23 1 23 24
M  V30 24 1 7 8
M  V30 25 2 11 13
M  V30 26 1 20 21
M  V30 27 1 20 22
M  V30 28 1 3 25
M  V30 29 1 3 26
M  V30 30 1 3 27
M  V30 31 1 4 28
M  V30 32 1 5 29
M  V30 33 1 7 30
M  V30 34 1 11 31
M  V30 35 1 12 32
M  V30 36 1 13 33
M  V30 37 1 14 34
M  V30 38 1 15 35
M  V30 39 1 16 36
M  V30 40 1 17 37
M  V30 41 1 17 38
M  V30 42 1 18 39
M  V30 43 1 18 40
M  V30 44 1 19 41
M  V30 45 1 19 42
M  V30 46 1 20 43
M  V30 47 1 21 44
M  V30 48 1 22 45
M  V30 49 1 22 46
M  V30 50 1 23 47
M  V30 51 1 23 48
M  V30 52 1 24 49
M  V30 53 1 24 50
M  V30 54 1 24 51
M  V30 END BOND
M  V30 BEGIN COLLECTION
M  V30 MDLV30/STEABS ATOMS=(5 12 15 16 20 21)
M  V30 END COLLECTION
M  V30 END CTAB
M  END
>  <Structure No>
3794

>  <LogS>
-3.0514

>  <MMFF94 Energy>
95.674

$$$$
Compound 3795
Actelion Java MolfileCreator 2.0

  0  0  0  0  0  0              0 V3000
M  V30 BEGIN CTAB
M  V30 COUNTS 24 25 0 0 0
M  V30 BEGIN ATOM
M  V30 1 S -3.2265 -1.0456 -0.0871 0
M  V30 2 O -3.1557 -1.5889 -1.4864 0
M  V30 3 O -4.5934 -0.461 0.1356 0
M  V30 4 O -2.9901 -2.2883 1.0187 0 CHG=-1
M  V30 5 C -1.977 0.1923 0.1343 0
M  V30 6 C -0.5917 -0.0967 0.0086 0
M  V30 7 C -2.3803 1.5012 0.4455 0
M  V30 8 C 0.3555 0.9451 0.2021 0
M  V30 9 C -0.1173 -1.3883 -0.3018 0
M  V30 10 C -1.4403 2.5134 0.6331 0
M  V30 11 C 1.7289 0.6806 0.0828 0
M  V30 12 C -0.0801 2.2403 0.5135 0
M  V30 13 C 1.2522 -1.6365 -0.4173 0
M  V30 14 C 2.1783 -0.6056 -0.2325 0
M  V30 15 S 3.9034 -0.9307 -0.3674 0
M  V30 16 O 4.6129 0.2884 -0.8861 0
M  V30 17 O 4.1368 -2.0676 -1.3223 0
M  V30 18 O 4.5153 -1.3347 1.1434 0 CHG=-1
M  V30 19 H -3.4294 1.7465 0.5456 0
M  V30 20 H -0.79 -2.2188 -0.4575 0
M  V30 21 H -1.7691 3.5165 0.8731 0
M  V30 22 H 2.4503 1.4748 0.2368 0
M  V30 23 H 0.6323 3.043 0.6637 0
M  V30 24 H 1.5897 -2.6383 -0.6505 0
M  V30 END ATOM
M  V30 BEGIN BOND
M  V30 1 2 1 2
M  V30 2 2 1 3
M  V30 3 1 1 4
M  V30 4 1 1 5
M  V30 5 1 5 6
M  V30 6 2 5 7
M  V30 7 1 6 8
M  V30 8 2 6 9
M  V30 9 1 7 10
M  V30 10 2 8 11
M  V30 11 1 8 12
M  V30 12 1 9 13
M  V30 13 1 11 14
M  V30 14 1 14 15
M  V30 15 2 15 16
M  V30 16 2 15 17
M  V30 17 1 15 18
M  V30 18 2 10 12
M  V30 19 2 13 14
M  V30 20 1 7 19
M  V30 21 1 9 20
M  V30 22 1 10 21
M  V30 23 1 11 22
M  V30 24 1 12 23
M  V30 25 1 13 24
M  V30 END BOND
M  V30 END CTAB
M  END
>  <Structure No>
3795

>  <LogS>
0.5402

>  <MMFF94 Energy>
119.45

$$$$
Compound 3796
Actelion Java MolfileCreator 2.0

  0  0  0  0  0  0              0 V3000
M  V30 BEGIN CTAB
M  V30 COUNTS 41 42 0 0 0
M  V30 BEGIN ATOM
M  V30 1 O 1.1789 0.55 0.7858 0
M  V30 2 C 2.2071 -0.3844 0.5576 0
M  V30 3 C -0.2095 0.2638 0.968 0
M  V30 4 C 3.472 0.0844 0.1387 0
M  V30 5 C 2.0198 -1.7683 0.7496 0
M  V30 6 C -0.9191 0.1033 -0.3909 0 CFG=1
M  V30 7 C 4.5262 -0.8366 -0.0948 0
M  V30 8 C 3.7086 1.4586 -0.0592 0
M  V30 9 C 3.0624 -2.6666 0.5165 0
M  V30 10 O -0.3138 -0.9147 -1.1475 0
M  V30 11 C -2.4343 -0.1767 -0.2407 0
M  V30 12 C 4.3091 -2.2071 0.0953 0
M  V30 13 C 5.7819 -0.3707 -0.5152 0
M  V30 14 C 4.9642 1.9069 -0.4777 0
M  V30 15 N -3.1655 0.9883 0.3005 0 CHG=1
M  V30 16 C 5.9969 0.9958 -0.7049 0
M  V30 17 C -4.642 0.8751 0.229 0
M  V30 18 C -5.1705 0.9335 -1.2145 0
M  V30 19 C -5.1772 -0.3639 0.9653 0
M  V30 20 H -0.6482 1.1331 1.4985 0
M  V30 21 H -0.3659 -0.6167 1.6235 0
M  V30 22 H 1.0772 -2.1701 1.0872 0
M  V30 23 H -0.7922 1.0516 -0.9569 0
M  V30 24 H 2.9278 2.1902 0.1071 0
M  V30 25 H 2.9032 -3.7267 0.667 0
M  V30 26 H -0.5125 -1.7789 -0.7007 0
M  V30 27 H -2.8212 -0.4414 -1.2466 0
M  V30 28 H -2.5727 -1.0586 0.4229 0
M  V30 29 H 5.104 -2.9226 -0.0787 0
M  V30 30 H 6.5956 -1.0628 -0.697 0
M  V30 31 H 5.1368 2.965 -0.6271 0
M  V30 32 H -2.8737 1.8555 -0.2087 0
M  V30 33 H -2.9058 1.1133 1.3064 0
M  V30 34 H 6.967 1.3499 -1.0292 0
M  V30 35 H -5.0679 1.7616 0.7528 0
M  V30 36 H -4.7123 1.785 -1.7607 0
M  V30 37 H -6.2712 1.084 -1.2035 0
M  V30 38 H -4.9628 -0.0068 -1.7651 0
M  V30 39 H -4.9265 -1.2963 0.4171 0
M  V30 40 H -4.7492 -0.4165 1.9889 0
M  V30 41 H -6.2829 -0.3013 1.0538 0
M  V30 END ATOM
M  V30 BEGIN BOND
M  V30 1 1 1 2
M  V30 2 1 1 3
M  V30 3 1 2 4
M  V30 4 2 2 5
M  V30 5 1 3 6
M  V30 6 1 4 7
M  V30 7 2 4 8
M  V30 8 1 5 9
M  V30 9 1 6 10
M  V30 10 1 6 11
M  V30 11 1 7 12
M  V30 12 2 7 13
M  V30 13 1 8 14
M  V30 14 1 11 15
M  V30 15 1 13 16
M  V30 16 1 15 17
M  V30 17 1 17 18
M  V30 18 1 17 19
M  V30 19 2 9 12
M  V30 20 2 14 16
M  V30 21 1 3 20
M  V30 22 1 3 21
M  V30 23 1 5 22
M  V30 24 1 6 23
M  V30 25 1 8 24
M  V30 26 1 9 25
M  V30 27 1 10 26
M  V30 28 1 11 27
M  V30 29 1 11 28
M  V30 30 1 12 29
M  V30 31 1 13 30
M  V30 32 1 14 31
M  V30 33 1 15 32
M  V30 34 1 15 33
M  V30 35 1 16 34
M  V30 36 1 17 35
M  V30 37 1 18 36
M  V30 38 1 18 37
M  V30 39 1 18 38
M  V30 40 1 19 39
M  V30 41 1 19 40
M  V30 42 1 19 41
M  V30 END BOND
M  V30 BEGIN COLLECTION
M  V30 MDLV30/STEABS ATOMS=(1 6)
M  V30 END COLLECTION
M  V30 END CTAB
M  END
>  <Structure No>
3796

>  <LogS>
-3.6202

>  <MMFF94 Energy>
74.373

$$$$
Compound 3797
Actelion Java MolfileCreator 2.0

  0  0  0  0  0  0              0 V3000
M  V30 BEGIN CTAB
M  V30 COUNTS 26 27 0 0 0
M  V30 BEGIN ATOM
M  V30 1 O -3.7378 -1.3507 1.5097 0
M  V30 2 C -3.6558 -0.2834 0.8454 0
M  V30 3 O -4.7491 0.5718 0.7858 0 CHG=-1
M  V30 4 C -2.3785 0.0782 0.136 0 CFG=2
M  V30 5 N -1.9785 -1.004 -0.774 0 CHG=1
M  V30 6 C -1.2763 0.3857 1.1699 0
M  V30 7 C -0.0468 0.9481 0.5196 0
M  V30 8 N 0.0827 2.2413 0.134 0
M  V30 9 C 1.0929 0.2601 0.1502 0
M  V30 10 N 1.2679 2.384 -0.4495 0
M  V30 11 C 1.8896 1.1938 -0.4487 0
M  V30 12 C 1.4801 -1.0734 0.2722 0
M  V30 13 C 3.1405 0.8716 -0.9699 0
M  V30 14 C 2.7401 -1.4339 -0.2425 0
M  V30 15 C 3.5667 -0.4659 -0.86 0
M  V30 16 H -2.5681 0.9976 -0.4637 0
M  V30 17 H -2.7713 -1.2406 -1.4143 0
M  V30 18 H -1.1725 -0.6966 -1.3645 0
M  V30 19 H -1.7056 -1.8592 -0.2365 0
M  V30 20 H -1.0177 -0.5305 1.7435 0
M  V30 21 H -1.653 1.1369 1.8985 0
M  V30 22 H 1.6301 3.28 -0.8445 0
M  V30 23 H 0.8397 -1.8084 0.7416 0
M  V30 24 H 3.7614 1.6202 -1.4448 0
M  V30 25 H 3.0775 -2.4593 -0.1668 0
M  V30 26 H 4.5324 -0.7558 -1.2531 0
M  V30 END ATOM
M  V30 BEGIN BOND
M  V30 1 2 1 2
M  V30 2 1 2 3
M  V30 3 1 2 4
M  V30 4 1 4 5
M  V30 5 1 4 6
M  V30 6 1 6 7
M  V30 7 2 7 8
M  V30 8 1 7 9
M  V30 9 1 8 10
M  V30 10 2 9 11
M  V30 11 1 9 12
M  V30 12 1 11 13
M  V30 13 2 12 14
M  V30 14 2 13 15
M  V30 15 1 10 11
M  V30 16 1 14 15
M  V30 17 1 4 16
M  V30 18 1 5 17
M  V30 19 1 5 18
M  V30 20 1 5 19
M  V30 21 1 6 20
M  V30 22 1 6 21
M  V30 23 1 10 22
M  V30 24 1 12 23
M  V30 25 1 13 24
M  V30 26 1 14 25
M  V30 27 1 15 26
M  V30 END BOND
M  V30 BEGIN COLLECTION
M  V30 MDLV30/STEABS ATOMS=(1 4)
M  V30 END COLLECTION
M  V30 END CTAB
M  END
>  <Structure No>
3797

>  <LogS>
-1.4091

>  <MMFF94 Energy>
1.1456

$$$$
Compound 3798
Actelion Java MolfileCreator 2.0

  0  0  0  0  0  0              0 V3000
M  V30 BEGIN CTAB
M  V30 COUNTS 22 21 0 0 0
M  V30 BEGIN ATOM
M  V30 1 O -2.1735 0.885 2.0929 0
M  V30 2 C -2.183 1.2493 0.8871 0
M  V30 3 O -2.3491 2.594 0.5793 0 CHG=-1
M  V30 4 C -2.0224 0.2389 -0.2173 0 CFG=2
M  V30 5 O -3.102 -0.6618 -0.1903 0
M  V30 6 C -0.6663 -0.516 -0.1468 0 CFG=1
M  V30 7 O -0.6883 -1.5689 -1.0797 0
M  V30 8 C 0.5381 0.411 -0.4633 0 CFG=1
M  V30 9 O 0.6344 1.4161 0.5166 0
M  V30 10 C 1.877 -0.3704 -0.5442 0 CFG=1
M  V30 11 O 2.9203 0.4612 -0.9905 0
M  V30 12 C 2.2424 -1.0305 0.7615 0
M  V30 13 O 2.6279 -0.3417 1.7432 0
M  V30 14 O 2.1255 -2.4081 0.8969 0 CHG=-1
M  V30 15 H -2.07 0.777 -1.1891 0
M  V30 16 H -3.0341 -1.1897 0.6485 0
M  V30 17 H -0.5332 -0.9259 0.8834 0
M  V30 18 H -1.0756 -2.3601 -0.6216 0
M  V30 19 H 0.3555 0.8674 -1.4665 0
M  V30 20 H 0.9256 2.2479 0.0596 0
M  V30 21 H 1.7678 -1.1709 -1.3068 0
M  V30 22 H 3.0668 1.1679 -0.3091 0
M  V30 END ATOM
M  V30 BEGIN BOND
M  V30 1 2 1 2
M  V30 2 1 2 3
M  V30 3 1 2 4
M  V30 4 1 4 5
M  V30 5 1 4 6
M  V30 6 1 6 7
M  V30 7 1 6 8
M  V30 8 1 8 9
M  V30 9 1 8 10
M  V30 10 1 10 11
M  V30 11 1 10 12
M  V30 12 2 12 13
M  V30 13 1 12 14
M  V30 14 1 4 15
M  V30 15 1 5 16
M  V30 16 1 6 17
M  V30 17 1 7 18
M  V30 18 1 8 19
M  V30 19 1 9 20
M  V30 20 1 10 21
M  V30 21 1 11 22
M  V30 END BOND
M  V30 BEGIN COLLECTION
M  V30 MDLV30/STEABS ATOMS=(4 4 6 8 10)
M  V30 END COLLECTION
M  V30 END CTAB
M  END
>  <Structure No>
3798

>  <LogS>
-0.3225

>  <MMFF94 Energy>
190.61

$$$$
Compound 3799
Actelion Java MolfileCreator 2.0

  0  0  0  0  0  0              0 V3000
M  V30 BEGIN CTAB
M  V30 COUNTS 24 23 0 0 0
M  V30 BEGIN ATOM
M  V30 1 O 1.5787 2.2898 -1.6577 0
M  V30 2 C 2.0521 1.5286 -0.7735 0
M  V30 3 O 2.7445 2.074 0.3007 0 CHG=-1
M  V30 4 C 1.8809 0.0369 -0.8882 0 CFG=1
M  V30 5 O 3.1348 -0.5649 -1.0941 0
M  V30 6 C 1.1777 -0.5755 0.3534 0 CFG=2
M  V30 7 O 1.0213 -1.9607 0.1684 0
M  V30 8 C -0.2013 0.0612 0.7015 0 CFG=2
M  V30 9 O -0.594 -0.3691 1.9828 0
M  V30 10 C -1.3208 -0.2241 -0.3417 0 CFG=2
M  V30 11 O -1.0545 0.4748 -1.5299 0
M  V30 12 C -2.7143 0.1871 0.1718 0
M  V30 13 O -2.7769 1.5698 0.4033 0
M  V30 14 H 1.2727 -0.1871 -1.7882 0
M  V30 15 H 3.6874 -0.4029 -0.2847 0
M  V30 16 H 1.8364 -0.3967 1.2375 0
M  V30 17 H 1.8916 -2.386 0.3859 0
M  V30 18 H -0.0707 1.1625 0.7671 0
M  V30 19 H -0.7642 -1.3461 1.9331 0
M  V30 20 H -1.3463 -1.3198 -0.5452 0
M  V30 21 H -1.5624 0.0218 -2.2528 0
M  V30 22 H -3.4707 -0.0713 -0.5993 0
M  V30 23 H -2.9878 -0.3853 1.0875 0
M  V30 24 H -2.4819 1.7185 1.3393 0
M  V30 END ATOM
M  V30 BEGIN BOND
M  V30 1 2 1 2
M  V30 2 1 2 3
M  V30 3 1 2 4
M  V30 4 1 4 5
M  V30 5 1 4 6
M  V30 6 1 6 7
M  V30 7 1 6 8
M  V30 8 1 8 9
M  V30 9 1 8 10
M  V30 10 1 10 11
M  V30 11 1 10 12
M  V30 12 1 12 13
M  V30 13 1 4 14
M  V30 14 1 5 15
M  V30 15 1 6 16
M  V30 16 1 7 17
M  V30 17 1 8 18
M  V30 18 1 9 19
M  V30 19 1 10 20
M  V30 20 1 11 21
M  V30 21 1 12 22
M  V30 22 1 12 23
M  V30 23 1 13 24
M  V30 END BOND
M  V30 BEGIN COLLECTION
M  V30 MDLV30/STEABS ATOMS=(4 4 6 8 10)
M  V30 END COLLECTION
M  V30 END CTAB
M  END
>  <Structure No>
3799

>  <LogS>
0.4321

>  <MMFF94 Energy>
104.14

$$$$
Compound 3800
Actelion Java MolfileCreator 2.0

  0  0  0  0  0  0              0 V3000
M  V30 BEGIN CTAB
M  V30 COUNTS 24 23 0 0 0
M  V30 BEGIN ATOM
M  V30 1 O -3.0797 2.1313 -0.1577 0
M  V30 2 C -3.136 0.9962 0.3853 0
M  V30 3 O -4.0431 0.7733 1.4136 0 CHG=-1
M  V30 4 C -2.2146 -0.1082 -0.057 0 CFG=1
M  V30 5 O -2.3659 -0.3406 -1.436 0
M  V30 6 C -0.7395 0.2105 0.3074 0 CFG=1
M  V30 7 O -0.6106 0.4447 1.6896 0
M  V30 8 C 0.2348 -0.9043 -0.1605 0 CFG=2
M  V30 9 O -0.1733 -2.134 0.388 0
M  V30 10 C 1.7105 -0.637 0.2363 0 CFG=1
M  V30 11 O 2.4884 -1.7282 -0.1874 0
M  V30 12 C 2.2777 0.6505 -0.3928 0
M  V30 13 O 1.8855 1.7712 0.351 0
M  V30 14 H -2.5206 -1.036 0.4729 0
M  V30 15 H -2.0347 0.4622 -1.9179 0
M  V30 16 H -0.4698 1.1495 -0.2208 0
M  V30 17 H -0.8895 -0.3822 2.1625 0
M  V30 18 H 0.1798 -0.9562 -1.2745 0
M  V30 19 H 0.1043 -2.8461 -0.2457 0
M  V30 20 H 1.7718 -0.5566 1.3477 0
M  V30 21 H 3.3134 -1.7303 0.3654 0
M  V30 22 H 3.3897 0.6 -0.3954 0
M  V30 23 H 1.9359 0.748 -1.4479 0
M  V30 24 H 2.2505 2.561 -0.1263 0
M  V30 END ATOM
M  V30 BEGIN BOND
M  V30 1 2 1 2
M  V30 2 1 2 3
M  V30 3 1 2 4
M  V30 4 1 4 5
M  V30 5 1 4 6
M  V30 6 1 6 7
M  V30 7 1 6 8
M  V30 8 1 8 9
M  V30 9 1 8 10
M  V30 10 1 10 11
M  V30 11 1 10 12
M  V30 12 1 12 13
M  V30 13 1 4 14
M  V30 14 1 5 15
M  V30 15 1 6 16
M  V30 16 1 7 17
M  V30 17 1 8 18
M  V30 18 1 9 19
M  V30 19 1 10 20
M  V30 20 1 11 21
M  V30 21 1 12 22
M  V30 22 1 12 23
M  V30 23 1 13 24
M  V30 END BOND
M  V30 BEGIN COLLECTION
M  V30 MDLV30/STEABS ATOMS=(4 4 6 8 10)
M  V30 END COLLECTION
M  V30 END CTAB
M  END
>  <Structure No>
3800

>  <LogS>
-0.1798

>  <MMFF94 Energy>
111.78

$$$$
Compound 3801
Actelion Java MolfileCreator 2.0

  0  0  0  0  0  0              0 V3000
M  V30 BEGIN CTAB
M  V30 COUNTS 11 11 0 0 0
M  V30 BEGIN ATOM
M  V30 1 S 0.4234 -1.6099 -0.254 0
M  V30 2 C -0.641 -0.3217 -0.0581 0
M  V30 3 C 1.8332 -0.6961 -0.174 0
M  V30 4 C -2.1048 -0.4218 -0.0312 0
M  V30 5 C 0.098 0.8473 0.0732 0
M  V30 6 C 1.4805 0.635 0.0082 0
M  V30 7 O -2.6658 -1.5413 -0.1609 0
M  V30 8 O -2.8813 0.7178 0.1377 0 CHG=-1
M  V30 9 H 2.8424 -1.077 -0.2507 0
M  V30 10 H -0.3435 1.8256 0.2121 0
M  V30 11 H 2.2063 1.4329 0.0918 0
M  V30 END ATOM
M  V30 BEGIN BOND
M  V30 1 1 1 2
M  V30 2 1 1 3
M  V30 3 1 2 4
M  V30 4 2 2 5
M  V30 5 2 3 6
M  V30 6 2 4 7
M  V30 7 1 4 8
M  V30 8 1 5 6
M  V30 9 1 3 9
M  V30 10 1 5 10
M  V30 11 1 6 11
M  V30 END BOND
M  V30 END CTAB
M  END
>  <Structure No>
3801

>  <LogS>
-1.2327

>  <MMFF94 Energy>
24.429

$$$$
Compound 3802
Actelion Java MolfileCreator 2.0

  0  0  0  0  0  0              0 V3000
M  V30 BEGIN CTAB
M  V30 COUNTS 24 24 0 0 0
M  V30 BEGIN ATOM
M  V30 1 C 0.078 -0.156 0.0 0
M  V30 2 C 1.1905 0.6948 0.2545 0
M  V30 3 C 0.312 -1.5335 -0.1982 0
M  V30 4 C -1.3539 0.3698 -0.0651 0
M  V30 5 C 2.4849 0.1452 0.3014 0
M  V30 6 C 1.0309 2.1766 0.4774 0
M  V30 7 C 1.604 -2.0569 -0.1472 0
M  V30 8 C -1.9639 0.1415 -1.4539 0
M  V30 9 C -2.2245 -0.2601 1.0293 0
M  V30 10 C 2.6876 -1.2196 0.1019 0
M  V30 11 H -0.5086 -2.2109 -0.3939 0
M  V30 12 H -1.3849 1.4636 0.1085 0
M  V30 13 H 3.3449 0.7749 0.4936 0
M  V30 14 H 2.007 2.6744 0.6605 0
M  V30 15 H 0.3889 2.3575 1.3651 0
M  V30 16 H 0.5762 2.6463 -0.4199 0
M  V30 17 H 1.7644 -3.1161 -0.3017 0
M  V30 18 H -1.3168 0.599 -2.2324 0
M  V30 19 H -2.0785 -0.941 -1.672 0
M  V30 20 H -2.9657 0.6184 -1.512 0
M  V30 21 H -3.2325 0.2072 1.0294 0
M  V30 22 H -2.3455 -1.3524 0.871 0
M  V30 23 H -1.7636 -0.0897 2.0258 0
M  V30 24 H 3.6889 -1.6291 0.1408 0
M  V30 END ATOM
M  V30 BEGIN BOND
M  V30 1 2 1 2
M  V30 2 1 1 3
M  V30 3 1 1 4
M  V30 4 1 2 5
M  V30 5 1 2 6
M  V30 6 2 3 7
M  V30 7 1 4 8
M  V30 8 1 4 9
M  V30 9 2 5 10
M  V30 10 1 7 10
M  V30 11 1 3 11
M  V30 12 1 4 12
M  V30 13 1 5 13
M  V30 14 1 6 14
M  V30 15 1 6 15
M  V30 16 1 6 16
M  V30 17 1 7 17
M  V30 18 1 8 18
M  V30 19 1 8 19
M  V30 20 1 8 20
M  V30 21 1 9 21
M  V30 22 1 9 22
M  V30 23 1 9 23
M  V30 24 1 10 24
M  V30 END BOND
M  V30 END CTAB
M  END
>  <Structure No>
3802

>  <LogS>
-3.7606

>  <MMFF94 Energy>
27.557

$$$$
Compound 3803
Actelion Java MolfileCreator 2.0

  0  0  0  0  0  0              0 V3000
M  V30 BEGIN CTAB
M  V30 COUNTS 30 31 0 0 0
M  V30 BEGIN ATOM
M  V30 1 O -6.079 2.2452 0.0 0
M  V30 2 N -4.8454 2.2172 0.1909 0 CHG=1
M  V30 3 O -4.2127 3.3683 0.602 0 CHG=-1
M  V30 4 C -4.0977 1.0041 -0.014 0
M  V30 5 C -2.7083 0.9797 0.2014 0
M  V30 6 C -4.7427 -0.1727 -0.4331 0
M  V30 7 C -1.9675 -0.1952 -0.008 0
M  V30 8 C -4.0153 -1.3497 -0.6213 0
M  V30 9 C -2.6358 -1.3708 -0.4012 0
M  V30 10 C -0.5085 -0.1798 0.2312 0
M  V30 11 O -1.9448 -2.5688 -0.5501 0 CHG=-1
M  V30 12 O -0.0831 0.271 1.3291 0
M  V30 13 C 0.4505 -0.665 -0.7908 0
M  V30 14 O 0.0176 -1.078 -1.901 0
M  V30 15 C 1.9124 -0.6712 -0.5502 0
M  V30 16 C 2.6867 -1.7944 -0.8973 0
M  V30 17 C 2.5502 0.4605 -0.0101 0
M  V30 18 O 2.0902 -2.9294 -1.4377 0 CHG=-1
M  V30 19 C 4.068 -1.7858 -0.6879 0
M  V30 20 C 3.9414 0.4718 0.2046 0
M  V30 21 C 4.6921 -0.6644 -0.1382 0
M  V30 22 N 4.5901 1.631 0.7599 0 CHG=1
M  V30 23 O 3.9288 2.6431 1.0732 0
M  V30 24 O 5.9518 1.6422 0.959 0 CHG=-1
M  V30 25 H -2.1951 1.8792 0.5197 0
M  V30 26 H -5.811 -0.1855 -0.6076 0
M  V30 27 H -4.5279 -2.2527 -0.9286 0
M  V30 28 H 1.9668 1.3428 0.2209 0
M  V30 29 H 4.66 -2.6534 -0.9504 0
M  V30 30 H 5.7633 -0.6857 0.014 0
M  V30 END ATOM
M  V30 BEGIN BOND
M  V30 1 2 1 2
M  V30 2 1 2 3
M  V30 3 1 2 4
M  V30 4 2 4 5
M  V30 5 1 4 6
M  V30 6 1 5 7
M  V30 7 2 6 8
M  V30 8 2 7 9
M  V30 9 1 7 10
M  V30 10 1 9 11
M  V30 11 2 10 12
M  V30 12 1 10 13
M  V30 13 2 13 14
M  V30 14 1 13 15
M  V30 15 2 15 16
M  V30 16 1 15 17
M  V30 17 1 16 18
M  V30 18 1 16 19
M  V30 19 2 17 20
M  V30 20 2 19 21
M  V30 21 1 20 22
M  V30 22 2 22 23
M  V30 23 1 22 24
M  V30 24 1 8 9
M  V30 25 1 20 21
M  V30 26 1 5 25
M  V30 27 1 6 26
M  V30 28 1 8 27
M  V30 29 1 17 28
M  V30 30 1 19 29
M  V30 31 1 21 30
M  V30 END BOND
M  V30 END CTAB
M  END
>  <Structure No>
3803

>  <LogS>
-3.5214

>  <MMFF94 Energy>
180.85

$$$$
Compound 3804
Actelion Java MolfileCreator 2.0

  0  0  0  0  0  0              0 V3000
M  V30 BEGIN CTAB
M  V30 COUNTS 20 20 0 0 0
M  V30 BEGIN ATOM
M  V30 1 O 2.3821 1.4287 1.0317 0
M  V30 2 C 2.0177 0.4339 0.3491 0
M  V30 3 C 0.5757 0.1223 0.2078 0
M  V30 4 C 3.0646 -0.4699 -0.225 0
M  V30 5 C -0.3917 1.1324 -0.0253 0
M  V30 6 C 0.1511 -1.2107 0.3463 0
M  V30 7 O -0.0283 2.4636 -0.2486 0
M  V30 8 C -1.7586 0.7946 -0.0672 0
M  V30 9 C -1.2035 -1.5364 0.2866 0
M  V30 10 O -2.7324 1.773 -0.2744 0
M  V30 11 C -2.1605 -0.537 0.0887 0
M  V30 12 O -3.5158 -0.8594 0.0417 0
M  V30 13 H 3.981 0.1105 -0.4627 0
M  V30 14 H 2.6959 -0.9421 -1.1601 0
M  V30 15 H 3.319 -1.2604 0.5114 0
M  V30 16 H 0.8674 -2.0021 0.5282 0
M  V30 17 H 0.9277 2.7673 -0.3736 0
M  V30 18 H -1.5101 -2.5679 0.4061 0
M  V30 19 H -2.5003 2.7518 -0.3931 0
M  V30 20 H -3.8381 -1.8141 0.1499 0
M  V30 END ATOM
M  V30 BEGIN BOND
M  V30 1 2 1 2
M  V30 2 1 2 3
M  V30 3 1 2 4
M  V30 4 2 3 5
M  V30 5 1 3 6
M  V30 6 1 5 7
M  V30 7 1 5 8
M  V30 8 2 6 9
M  V30 9 1 8 10
M  V30 10 2 8 11
M  V30 11 1 11 12
M  V30 12 1 9 11
M  V30 13 1 4 13
M  V30 14 1 4 14
M  V30 15 1 4 15
M  V30 16 1 6 16
M  V30 17 1 7 17
M  V30 18 1 9 18
M  V30 19 1 10 19
M  V30 20 1 12 20
M  V30 END BOND
M  V30 END CTAB
M  END
>  <Structure No>
3804

>  <LogS>
-2.0216

>  <MMFF94 Energy>
37.001

$$$$
Compound 3805
Actelion Java MolfileCreator 2.0

  0  0  0  0  0  0              0 V3000
M  V30 BEGIN CTAB
M  V30 COUNTS 18 18 0 0 0
M  V30 BEGIN ATOM
M  V30 1 O -1.0034 2.7613 -1.5891 0
M  V30 2 C -1.345 2.0678 -0.5944 0
M  V30 3 O -2.3878 2.5107 0.2108 0 CHG=-1
M  V30 4 C -0.5989 0.8345 -0.2532 0
M  V30 5 C -1.2168 -0.2849 0.3633 0
M  V30 6 C 0.7883 0.81 -0.4897 0
M  V30 7 C -2.6852 -0.4004 0.5216 0
M  V30 8 C -0.4175 -1.3629 0.7798 0
M  V30 9 C 1.5745 -0.2829 -0.0896 0
M  V30 10 O -3.17 -1.0303 1.499 0
M  V30 11 O -3.545 0.1262 -0.4349 0 CHG=-1
M  V30 12 C 0.9591 -1.3622 0.5572 0
M  V30 13 C 3.0346 -0.2936 -0.3329 0
M  V30 14 O 3.5951 0.6743 -0.9127 0
M  V30 15 O 3.8087 -1.3739 0.0745 0 CHG=-1
M  V30 16 H 1.2624 1.6629 -0.9611 0
M  V30 17 H -0.8651 -2.2285 1.2531 0
M  V30 18 H 1.5395 -2.2168 0.8819 0
M  V30 END ATOM
M  V30 BEGIN BOND
M  V30 1 2 1 2
M  V30 2 1 2 3
M  V30 3 1 2 4
M  V30 4 2 4 5
M  V30 5 1 4 6
M  V30 6 1 5 7
M  V30 7 1 5 8
M  V30 8 2 6 9
M  V30 9 2 7 10
M  V30 10 1 7 11
M  V30 11 2 8 12
M  V30 12 1 9 13
M  V30 13 2 13 14
M  V30 14 1 13 15
M  V30 15 1 9 12
M  V30 16 1 6 16
M  V30 17 1 8 17
M  V30 18 1 12 18
M  V30 END BOND
M  V30 END CTAB
M  END
>  <Structure No>
3805

>  <LogS>
-1.0003

>  <MMFF94 Energy>
235.08

$$$$
Compound 3806
Actelion Java MolfileCreator 2.0

  0  0  0  0  0  0              0 V3000
M  V30 BEGIN CTAB
M  V30 COUNTS 18 18 0 0 0
M  V30 BEGIN ATOM
M  V30 1 O -2.2455 1.1638 2.079 0
M  V30 2 N -1.4054 1.5783 1.2538 0 CHG=1
M  V30 3 O -1.1051 2.921 1.2302 0 CHG=-1
M  V30 4 C -0.6054 0.6486 0.504 0
M  V30 5 C -1.1487 -0.5587 -0.0029 0
M  V30 6 C 0.7606 0.922 0.3155 0
M  V30 7 N -2.5572 -0.8392 0.0614 0 CHG=1
M  V30 8 C -0.2981 -1.4821 -0.6302 0
M  V30 9 C 1.6011 0.0022 -0.3315 0
M  V30 10 O -3.3906 0.0694 -0.1353 0
M  V30 11 O -2.9978 -2.1414 0.1216 0 CHG=-1
M  V30 12 C 1.0597 -1.2066 -0.7934 0
M  V30 13 C 3.0396 0.3014 -0.5119 0
M  V30 14 O 3.7989 -0.5245 -1.0848 0
M  V30 15 O 3.5734 1.4999 -0.0518 0 CHG=-1
M  V30 16 H 1.1727 1.8454 0.7033 0
M  V30 17 H -0.6937 -2.4101 -1.0234 0
M  V30 18 H 1.6836 -1.9375 -1.2927 0
M  V30 END ATOM
M  V30 BEGIN BOND
M  V30 1 2 1 2
M  V30 2 1 2 3
M  V30 3 1 2 4
M  V30 4 2 4 5
M  V30 5 1 4 6
M  V30 6 1 5 7
M  V30 7 1 5 8
M  V30 8 2 6 9
M  V30 9 2 7 10
M  V30 10 1 7 11
M  V30 11 2 8 12
M  V30 12 1 9 13
M  V30 13 2 13 14
M  V30 14 1 13 15
M  V30 15 1 9 12
M  V30 16 1 6 16
M  V30 17 1 8 17
M  V30 18 1 12 18
M  V30 END BOND
M  V30 END CTAB
M  END
>  <Structure No>
3806

>  <LogS>
-1.5005

>  <MMFF94 Energy>
37.415

$$$$
Compound 3807
Actelion Java MolfileCreator 2.0

  0  0  0  0  0  0              0 V3000
M  V30 BEGIN CTAB
M  V30 COUNTS 29 28 0 0 0
M  V30 BEGIN ATOM
M  V30 1 O 3.664 -0.1557 1.2461 0
M  V30 2 C 3.1013 0.1805 0.1697 0
M  V30 3 N 1.6741 0.1037 0.0292 0
M  V30 4 N 3.8978 0.6422 -0.9205 0
M  V30 5 C 0.7846 -0.3252 1.077 0
M  V30 6 O 1.2437 -0.649 2.2062 0
M  V30 7 C -0.7166 -0.3641 0.8657 0 CFG=2
M  V30 8 C -1.1277 -1.1241 -0.4371 0
M  V30 9 C -1.3045 1.0632 0.9878 0
M  V30 10 C -0.5294 -2.542 -0.4662 0
M  V30 11 C -2.6565 -1.2245 -0.5799 0
M  V30 12 C -0.9681 1.9535 -0.1816 0
M  V30 13 C -0.0282 2.8999 -0.1012 0
M  V30 14 H 1.2703 0.3845 -0.8906 0
M  V30 15 H 4.9362 0.7007 -0.8279 0
M  V30 16 H 3.4527 0.9279 -1.8207 0
M  V30 17 H -1.1459 -0.9416 1.7166 0
M  V30 18 H -0.7478 -0.5818 -1.3286 0
M  V30 19 H -0.952 1.5242 1.9379 0
M  V30 20 H -2.4092 1.0088 1.08 0
M  V30 21 H 0.5796 -2.5024 -0.4785 0
M  V30 22 H -0.8594 -3.1239 0.4211 0
M  V30 23 H -0.8496 -3.0788 -1.3847 0
M  V30 24 H -3.1033 -0.2231 -0.7475 0
M  V30 25 H -3.1072 -1.6789 0.3283 0
M  V30 26 H -2.9242 -1.8482 -1.4596 0
M  V30 27 H -1.4856 1.8038 -1.1243 0
M  V30 28 H 0.1995 3.5127 -0.9672 0
M  V30 29 H 0.5245 3.0653 0.8185 0
M  V30 END ATOM
M  V30 BEGIN BOND
M  V30 1 2 1 2
M  V30 2 1 2 3
M  V30 3 1 2 4
M  V30 4 1 3 5
M  V30 5 2 5 6
M  V30 6 1 5 7
M  V30 7 1 7 8
M  V30 8 1 7 9
M  V30 9 1 8 10
M  V30 10 1 8 11
M  V30 11 1 9 12
M  V30 12 2 12 13
M  V30 13 1 3 14
M  V30 14 1 4 15
M  V30 15 1 4 16
M  V30 16 1 7 17
M  V30 17 1 8 18
M  V30 18 1 9 19
M  V30 19 1 9 20
M  V30 20 1 10 21
M  V30 21 1 10 22
M  V30 22 1 10 23
M  V30 23 1 11 24
M  V30 24 1 11 25
M  V30 25 1 11 26
M  V30 26 1 12 27
M  V30 27 1 13 28
M  V30 28 1 13 29
M  V30 END BOND
M  V30 BEGIN COLLECTION
M  V30 MDLV30/STEABS ATOMS=(1 7)
M  V30 END COLLECTION
M  V30 END CTAB
M  END
>  <Structure No>
3807

>  <LogS>
-2.7469

>  <MMFF94 Energy>
-81.012

$$$$
Compound 3808
Actelion Java MolfileCreator 2.0

  0  0  0  0  0  0              0 V3000
M  V30 BEGIN CTAB
M  V30 COUNTS 25 27 0 0 0
M  V30 BEGIN ATOM
M  V30 1 O -0.0801 -2.728 0.0801 0
M  V30 2 C -0.0136 -1.3284 0.053 0
M  V30 3 C 1.223 -0.6254 0.0637 0
M  V30 4 C -1.2277 -0.6074 0.0138 0
M  V30 5 C 1.2145 0.7961 0.0346 0
M  V30 6 C 2.4721 -1.2865 0.1025 0
M  V30 7 C -1.2136 0.808 -0.0146 0
M  V30 8 C -2.4685 -1.2769 0.0024 0
M  V30 9 C 0.0028 1.4948 -0.004 0
M  V30 10 C 2.4239 1.5102 0.0445 0
M  V30 11 C 3.6649 -0.5588 0.1117 0
M  V30 12 C -2.4235 1.5209 -0.0536 0
M  V30 13 C -3.664 -0.5549 -0.0364 0
M  V30 14 C 3.6414 0.8333 0.083 0
M  V30 15 C -3.6418 0.8396 -0.0642 0
M  V30 16 H 0.7154 -3.3475 0.1089 0
M  V30 17 H 2.5606 -2.3599 0.1261 0
M  V30 18 H -2.5224 -2.3582 0.0234 0
M  V30 19 H 0.0067 2.5798 -0.0259 0
M  V30 20 H 2.4275 2.5937 0.0226 0
M  V30 21 H 4.6136 -1.0793 0.1416 0
M  V30 22 H -2.4271 2.6044 -0.0756 0
M  V30 23 H -4.6112 -1.0788 -0.0447 0
M  V30 24 H 4.5698 1.3899 0.0905 0
M  V30 25 H -4.5709 1.3942 -0.0943 0
M  V30 END ATOM
M  V30 BEGIN BOND
M  V30 1 1 1 2
M  V30 2 1 2 3
M  V30 3 2 2 4
M  V30 4 1 3 5
M  V30 5 2 3 6
M  V30 6 1 4 7
M  V30 7 1 4 8
M  V30 8 1 5 9
M  V30 9 2 5 10
M  V30 10 1 6 11
M  V30 11 1 7 12
M  V30 12 2 8 13
M  V30 13 1 10 14
M  V30 14 2 12 15
M  V30 15 2 7 9
M  V30 16 2 11 14
M  V30 17 1 13 15
M  V30 18 1 1 16
M  V30 19 1 6 17
M  V30 20 1 8 18
M  V30 21 1 9 19
M  V30 22 1 10 20
M  V30 23 1 11 21
M  V30 24 1 12 22
M  V30 25 1 13 23
M  V30 26 1 14 24
M  V30 27 1 15 25
M  V30 END BOND
M  V30 END CTAB
M  END
>  <Structure No>
3808

>  <LogS>
-4.7329

>  <MMFF94 Energy>
53.453

$$$$
Compound 3809
Actelion Java MolfileCreator 2.0

  0  0  0  0  0  0              0 V3000
M  V30 BEGIN CTAB
M  V30 COUNTS 26 27 0 0 0
M  V30 BEGIN ATOM
M  V30 1 C -1.2643 -0.3159 -0.3159 0
M  V30 2 C 0.0395 -0.9748 -0.5993 0
M  V30 3 C -1.5238 0.213 0.9622 0
M  V30 4 C -2.2506 -0.1978 -1.3146 0
M  V30 5 C 1.2982 -0.3906 -0.0611 0
M  V30 6 C 0.0803 -2.0926 -1.338 0
M  V30 7 C -2.7431 0.8403 1.2353 0
M  V30 8 C -3.4683 0.4308 -1.0359 0
M  V30 9 C 2.31 -1.2125 0.4725 0
M  V30 10 C 1.4874 1.0038 -0.0679 0
M  V30 11 C -3.7146 0.9486 0.2379 0
M  V30 12 C 3.4841 -0.6488 0.9817 0
M  V30 13 C 2.6635 1.5618 0.4422 0
M  V30 14 C 3.6611 0.7365 0.9658 0
M  V30 15 H -0.7864 0.1319 1.7513 0
M  V30 16 H -2.0734 -0.5747 -2.314 0
M  V30 17 H -0.8251 -2.5515 -1.7145 0
M  V30 18 H 1.0199 -2.5719 -1.5817 0
M  V30 19 H -2.9352 1.2418 2.2221 0
M  V30 20 H -4.2198 0.5204 -1.8097 0
M  V30 21 H 2.1857 -2.2873 0.5123 0
M  V30 22 H 0.7289 1.6601 -0.4769 0
M  V30 23 H -4.6577 1.4353 0.4512 0
M  V30 24 H 4.2556 -1.287 1.3929 0
M  V30 25 H 2.8017 2.6353 0.4303 0
M  V30 26 H 4.5705 1.1705 1.3609 0
M  V30 END ATOM
M  V30 BEGIN BOND
M  V30 1 1 1 2
M  V30 2 2 1 3
M  V30 3 1 1 4
M  V30 4 1 2 5
M  V30 5 2 2 6
M  V30 6 1 3 7
M  V30 7 2 4 8
M  V30 8 2 5 9
M  V30 9 1 5 10
M  V30 10 2 7 11
M  V30 11 1 9 12
M  V30 12 2 10 13
M  V30 13 2 12 14
M  V30 14 1 8 11
M  V30 15 1 13 14
M  V30 16 1 3 15
M  V30 17 1 4 16
M  V30 18 1 6 17
M  V30 19 1 6 18
M  V30 20 1 7 19
M  V30 21 1 8 20
M  V30 22 1 9 21
M  V30 23 1 10 22
M  V30 24 1 11 23
M  V30 25 1 12 24
M  V30 26 1 13 25
M  V30 27 1 14 26
M  V30 END BOND
M  V30 END CTAB
M  END
>  <Structure No>
3809

>  <LogS>
-4.4363

>  <MMFF94 Energy>
46.911

$$$$
Compound 3810
Actelion Java MolfileCreator 2.0

  0  0  0  0  0  0              0 V3000
M  V30 BEGIN CTAB
M  V30 COUNTS 23 23 0 0 0
M  V30 BEGIN ATOM
M  V30 1 O 2.2195 2.6163 -0.8715 0
M  V30 2 N 0.8656 2.5408 -0.6327 0
M  V30 3 C 0.2763 1.4247 -0.3246 0
M  V30 4 C 1.0702 0.1947 -0.1109 0
M  V30 5 C -1.2029 1.4637 -0.0206 0
M  V30 6 N 2.0645 0.2177 0.7247 0
M  V30 7 C 0.6718 -1.0681 -0.8266 0
M  V30 8 C -1.9725 0.1636 -0.318 0
M  V30 9 O 2.8209 -0.8995 0.9971 0
M  V30 10 C -0.3919 -1.8641 -0.0569 0
M  V30 11 C -1.5171 -1.0137 0.5653 0
M  V30 12 H 2.6428 3.5045 -1.1084 0
M  V30 13 H -1.6703 2.277 -0.6186 0
M  V30 14 H -1.3354 1.733 1.0495 0
M  V30 15 H 1.5574 -1.7151 -1.0041 0
M  V30 16 H 0.2833 -0.8061 -1.8345 0
M  V30 17 H -3.0457 0.3592 -0.1017 0
M  V30 18 H -1.9125 -0.0916 -1.3978 0
M  V30 19 H 3.5878 -0.8432 1.6549 0
M  V30 20 H 0.1036 -2.4404 0.7545 0
M  V30 21 H -0.8422 -2.6038 -0.7543 0
M  V30 22 H -1.1932 -0.6415 1.5624 0
M  V30 23 H -2.3872 -1.6816 0.7483 0
M  V30 END ATOM
M  V30 BEGIN BOND
M  V30 1 1 1 2
M  V30 2 2 2 3
M  V30 3 1 3 4
M  V30 4 1 3 5
M  V30 5 2 4 6
M  V30 6 1 4 7
M  V30 7 1 5 8
M  V30 8 1 6 9
M  V30 9 1 7 10
M  V30 10 1 8 11
M  V30 11 1 10 11
M  V30 12 1 1 12
M  V30 13 1 5 13
M  V30 14 1 5 14
M  V30 15 1 7 15
M  V30 16 1 7 16
M  V30 17 1 8 17
M  V30 18 1 8 18
M  V30 19 1 9 19
M  V30 20 1 10 20
M  V30 21 1 10 21
M  V30 22 1 11 22
M  V30 23 1 11 23
M  V30 END BOND
M  V30 END CTAB
M  END
>  <Structure No>
3810

>  <LogS>
-1.4249

>  <MMFF94 Energy>
68.011

$$$$
Compound 3811
Actelion Java MolfileCreator 2.0

  0  0  0  0  0  0              0 V3000
M  V30 BEGIN CTAB
M  V30 COUNTS 21 22 0 0 0
M  V30 BEGIN ATOM
M  V30 1 O -4.0781 1.8375 -1.3579 0
M  V30 2 C -3.1895 1.0861 -0.8782 0
M  V30 3 O -1.9092 1.4357 -0.9744 0
M  V30 4 C -3.5516 -0.1094 -0.248 0
M  V30 5 C -0.9237 0.6851 -0.4879 0
M  V30 6 C -2.5509 -0.9268 0.2762 0
M  V30 7 C -1.2138 -0.5343 0.1607 0
M  V30 8 C 0.4042 1.1041 -0.6186 0
M  V30 9 C -0.1715 -1.319 0.6701 0
M  V30 10 C 1.4506 0.3231 -0.111 0
M  V30 11 C 1.1538 -0.8936 0.5357 0
M  V30 12 O 2.7644 0.7891 -0.2687 0
M  V30 13 C 3.9222 0.1024 0.1955 0
M  V30 14 H -4.5917 -0.4002 -0.166 0
M  V30 15 H -2.8186 -1.8551 0.7665 0
M  V30 16 H 0.6256 2.0402 -1.1166 0
M  V30 17 H -0.3807 -2.2572 1.1702 0
M  V30 18 H 1.9401 -1.5176 0.9376 0
M  V30 19 H 4.8233 0.6954 -0.0628 0
M  V30 20 H 3.8789 -0.0162 1.2989 0
M  V30 21 H 3.9983 -0.8915 -0.2935 0
M  V30 END ATOM
M  V30 BEGIN BOND
M  V30 1 2 1 2
M  V30 2 1 2 3
M  V30 3 1 2 4
M  V30 4 1 3 5
M  V30 5 2 4 6
M  V30 6 2 5 7
M  V30 7 1 5 8
M  V30 8 1 7 9
M  V30 9 2 8 10
M  V30 10 2 9 11
M  V30 11 1 10 12
M  V30 12 1 12 13
M  V30 13 1 6 7
M  V30 14 1 10 11
M  V30 15 1 4 14
M  V30 16 1 6 15
M  V30 17 1 8 16
M  V30 18 1 9 17
M  V30 19 1 11 18
M  V30 20 1 13 19
M  V30 21 1 13 20
M  V30 22 1 13 21
M  V30 END BOND
M  V30 END CTAB
M  END
>  <Structure No>
3811

>  <LogS>
-3.1221

>  <MMFF94 Energy>
35.628

$$$$
Compound 3812
Actelion Java MolfileCreator 2.0

  0  0  0  0  0  0              0 V3000
M  V30 BEGIN CTAB
M  V30 COUNTS 32 32 0 0 0
M  V30 BEGIN ATOM
M  V30 1 O 2.8412 -0.7886 1.6566 0
M  V30 2 C 3.6164 -0.988 0.6826 0
M  V30 3 O 3.1801 -0.7979 -0.6333 0
M  V30 4 N 4.9507 -1.4263 0.9222 0
M  V30 5 C 1.8901 -0.292 -0.9759 0
M  V30 6 C 1.892 1.2471 -0.9689 0 CFG=2
M  V30 7 O 2.1268 1.7524 0.3217 0
M  V30 8 C 0.6065 1.8547 -1.5649 0
M  V30 9 O -0.5338 1.6105 -0.7366 0
M  V30 10 C -1.3717 0.4818 -0.7714 0
M  V30 11 C -2.2692 0.2976 0.2944 0
M  V30 12 C -1.3516 -0.451 -1.8288 0
M  V30 13 O -2.2751 1.2443 1.3315 0
M  V30 14 C -3.1267 -0.8204 0.2992 0
M  V30 15 C -2.2054 -1.5559 -1.8111 0
M  V30 16 C -3.1215 1.1829 2.4749 0
M  V30 17 C -3.0899 -1.7409 -0.7491 0
M  V30 18 H 5.5981 -1.598 0.1216 0
M  V30 19 H 5.2919 -1.5776 1.8975 0
M  V30 20 H 1.653 -0.645 -2.0014 0
M  V30 21 H 1.1188 -0.7008 -0.288 0
M  V30 22 H 2.7346 1.5771 -1.6152 0
M  V30 23 H 1.3942 1.4306 0.9096 0
M  V30 24 H 0.4436 1.5214 -2.6093 0
M  V30 25 H 0.7501 2.9549 -1.6174 0
M  V30 26 H -0.6898 -0.3379 -2.673 0
M  V30 27 H -3.8241 -0.9869 1.1088 0
M  V30 28 H -2.1831 -2.2692 -2.6249 0
M  V30 29 H -2.9208 0.2538 3.0492 0
M  V30 30 H -4.187 1.2185 2.1638 0
M  V30 31 H -2.9129 2.0555 3.1274 0
M  V30 32 H -3.7507 -2.5983 -0.7396 0
M  V30 END ATOM
M  V30 BEGIN BOND
M  V30 1 2 1 2
M  V30 2 1 2 3
M  V30 3 1 2 4
M  V30 4 1 3 5
M  V30 5 1 5 6
M  V30 6 1 6 7
M  V30 7 1 6 8
M  V30 8 1 8 9
M  V30 9 1 9 10
M  V30 10 2 10 11
M  V30 11 1 10 12
M  V30 12 1 11 13
M  V30 13 1 11 14
M  V30 14 2 12 15
M  V30 15 1 13 16
M  V30 16 2 14 17
M  V30 17 1 15 17
M  V30 18 1 4 18
M  V30 19 1 4 19
M  V30 20 1 5 20
M  V30 21 1 5 21
M  V30 22 1 6 22
M  V30 23 1 7 23
M  V30 24 1 8 24
M  V30 25 1 8 25
M  V30 26 1 12 26
M  V30 27 1 14 27
M  V30 28 1 15 28
M  V30 29 1 16 29
M  V30 30 1 16 30
M  V30 31 1 16 31
M  V30 32 1 17 32
M  V30 END BOND
M  V30 BEGIN COLLECTION
M  V30 MDLV30/STEABS ATOMS=(1 6)
M  V30 END COLLECTION
M  V30 END CTAB
M  END
>  <Structure No>
3812

>  <LogS>
-1.5251

>  <MMFF94 Energy>
-3.5129

$$$$
Compound 3813
Actelion Java MolfileCreator 2.0

  0  0  0  0  0  0              0 V3000
M  V30 BEGIN CTAB
M  V30 COUNTS 14 14 0 0 0
M  V30 BEGIN ATOM
M  V30 1 O 2.8071 -1.4429 -0.1602 0
M  V30 2 C 2.237 -0.3669 -0.4832 0
M  V30 3 O 2.9704 0.6123 -1.1433 0 CHG=-1
M  V30 4 C 0.8088 -0.1473 -0.1657 0
M  V30 5 C 0.1771 1.0561 -0.5288 0
M  V30 6 C 0.0615 -1.1354 0.5025 0
M  V30 7 C -1.1727 1.2648 -0.2291 0
M  V30 8 C -1.2881 -0.9212 0.7995 0
M  V30 9 C -1.9046 0.2774 0.4341 0
M  V30 10 H 0.7242 1.8359 -1.0434 0
M  V30 11 H 0.5185 -2.0723 0.7953 0
M  V30 12 H -1.6517 2.1934 -0.5116 0
M  V30 13 H -1.8562 -1.6856 1.3135 0
M  V30 14 H -2.9492 0.4412 0.6651 0
M  V30 END ATOM
M  V30 BEGIN BOND
M  V30 1 2 1 2
M  V30 2 1 2 3
M  V30 3 1 2 4
M  V30 4 2 4 5
M  V30 5 1 4 6
M  V30 6 1 5 7
M  V30 7 2 6 8
M  V30 8 2 7 9
M  V30 9 1 8 9
M  V30 10 1 5 10
M  V30 11 1 6 11
M  V30 12 1 7 12
M  V30 13 1 8 13
M  V30 14 1 9 14
M  V30 END BOND
M  V30 END CTAB
M  END
>  <Structure No>
3813

>  <LogS>
0.5864

>  <MMFF94 Energy>
37.053

$$$$
Compound 3814
Actelion Java MolfileCreator 2.0

  0  0  0  0  0  0              0 V3000
M  V30 BEGIN CTAB
M  V30 COUNTS 28 29 0 0 0
M  V30 BEGIN ATOM
M  V30 1 N -0.158 -0.4741 -0.5531 0
M  V30 2 N -0.9785 0.2065 0.1408 0
M  V30 3 C 1.2559 -0.2328 -0.54 0
M  V30 4 C -2.3881 -0.046 0.1204 0
M  V30 5 C 1.9407 0.319 0.5744 0
M  V30 6 C 1.9753 -0.5379 -1.7026 0
M  V30 7 C -3.2295 0.7397 0.9189 0
M  V30 8 C -2.9458 -1.0619 -0.6787 0
M  V30 9 N 1.298 0.5198 1.84 0
M  V30 10 C 3.3083 0.618 0.4612 0
M  V30 11 C 3.3386 -0.2539 -1.7944 0
M  V30 12 C -4.6102 0.5175 0.9221 0
M  V30 13 C -4.3272 -1.2811 -0.6729 0
M  V30 14 C 4.0086 0.3363 -0.7182 0
M  V30 15 C -5.1589 -0.4921 0.1267 0
M  V30 16 N 5.4037 0.6354 -0.8161 0
M  V30 17 H 1.467 -0.9738 -2.5539 0
M  V30 18 H -2.8131 1.5239 1.5389 0
M  V30 19 H -2.3177 -1.6827 -1.3043 0
M  V30 20 H 0.4376 -0.0037 2.1099 0
M  V30 21 H 1.7741 1.0665 2.5921 0
M  V30 22 H 3.8359 1.0463 1.3048 0
M  V30 23 H 3.8704 -0.4852 -2.7088 0
M  V30 24 H -5.2547 1.1281 1.5413 0
M  V30 25 H -4.7532 -2.0627 -1.2885 0
M  V30 26 H -6.2276 -0.663 0.13 0
M  V30 27 H 5.9359 0.4238 -1.6895 0
M  V30 28 H 5.9147 1.0717 -0.0165 0
M  V30 END ATOM
M  V30 BEGIN BOND
M  V30 1 2 1 2
M  V30 2 1 1 3
M  V30 3 1 2 4
M  V30 4 2 3 5
M  V30 5 1 3 6
M  V30 6 2 4 7
M  V30 7 1 4 8
M  V30 8 1 5 9
M  V30 9 1 5 10
M  V30 10 2 6 11
M  V30 11 1 7 12
M  V30 12 2 8 13
M  V30 13 2 10 14
M  V30 14 2 12 15
M  V30 15 1 14 16
M  V30 16 1 11 14
M  V30 17 1 13 15
M  V30 18 1 6 17
M  V30 19 1 7 18
M  V30 20 1 8 19
M  V30 21 1 9 20
M  V30 22 1 9 21
M  V30 23 1 10 22
M  V30 24 1 11 23
M  V30 25 1 12 24
M  V30 26 1 13 25
M  V30 27 1 15 26
M  V30 28 1 16 27
M  V30 29 1 16 28
M  V30 END BOND
M  V30 END CTAB
M  END
>  <Structure No>
3814

>  <LogS>
-4.0947

>  <MMFF94 Energy>
51.694

$$$$
Compound 3815
Actelion Java MolfileCreator 2.0

  0  0  0  0  0  0              0 V3000
M  V30 BEGIN CTAB
M  V30 COUNTS 25 25 0 0 0
M  V30 BEGIN ATOM
M  V30 1 Cl 1.8914 -3.1264 0.2465 0
M  V30 2 C 2.6622 -1.5709 -0.0253 0
M  V30 3 C 1.8866 -0.4227 -0.2564 0
M  V30 4 C 4.0592 -1.4877 -0.009 0
M  V30 5 O 0.488 -0.5431 -0.2657 0
M  V30 6 C 2.534 0.8106 -0.4709 0
M  V30 7 C 4.6928 -0.2601 -0.2227 0
M  V30 8 C -0.4142 0.5367 -0.4853 0
M  V30 9 C 3.9295 0.8874 -0.4534 0
M  V30 10 Cl 6.444 -0.1602 -0.2014 0
M  V30 11 C -1.8135 0.0267 -0.4147 0
M  V30 12 O -2.3745 -0.4057 -1.4581 0
M  V30 13 O -2.4665 -0.0192 0.8221 0
M  V30 14 C -3.8092 -0.4719 0.9845 0
M  V30 15 C -4.796 0.5848 0.5014 0
M  V30 16 H 4.6514 -2.3763 0.1698 0
M  V30 17 H 1.9688 1.7147 -0.6517 0
M  V30 18 H -0.2699 1.3139 0.2958 0
M  V30 19 H -0.2312 0.9856 -1.4859 0
M  V30 20 H 4.4164 1.8401 -0.6194 0
M  V30 21 H -3.9657 -1.426 0.4359 0
M  V30 22 H -3.9901 -0.6614 2.0635 0
M  V30 23 H -4.6699 0.7644 -0.5864 0
M  V30 24 H -5.8345 0.2385 0.6874 0
M  V30 25 H -4.6303 1.5365 1.0495 0
M  V30 END ATOM
M  V30 BEGIN BOND
M  V30 1 1 1 2
M  V30 2 2 2 3
M  V30 3 1 2 4
M  V30 4 1 3 5
M  V30 5 1 3 6
M  V30 6 2 4 7
M  V30 7 1 5 8
M  V30 8 2 6 9
M  V30 9 1 7 10
M  V30 10 1 8 11
M  V30 11 2 11 12
M  V30 12 1 11 13
M  V30 13 1 13 14
M  V30 14 1 14 15
M  V30 15 1 7 9
M  V30 16 1 4 16
M  V30 17 1 6 17
M  V30 18 1 8 18
M  V30 19 1 8 19
M  V30 20 1 9 20
M  V30 21 1 14 21
M  V30 22 1 14 22
M  V30 23 1 15 23
M  V30 24 1 15 24
M  V30 25 1 15 25
M  V30 END BOND
M  V30 END CTAB
M  END
>  <Structure No>
3815

>  <LogS>
-3.3503

>  <MMFF94 Energy>
41.169

$$$$
Compound 3816
Actelion Java MolfileCreator 2.0

  0  0  0  0  0  0              0 V3000
M  V30 BEGIN CTAB
M  V30 COUNTS 29 29 0 0 0
M  V30 BEGIN ATOM
M  V30 1 O 1.4108 1.4108 -1.646 0
M  V30 2 C 2.0058 0.5926 -0.6826 0
M  V30 3 C 1.3818 -0.582 -0.1925 0
M  V30 4 C 3.2628 0.9664 -0.1915 0
M  V30 5 C 2.0287 -1.3322 0.8058 0
M  V30 6 C 0.022 -1.0308 -0.6734 0
M  V30 7 C 3.9017 0.201 0.7912 0
M  V30 8 C 3.2801 -0.945 1.2891 0
M  V30 9 C -1.0919 -0.2736 0.0593 0
M  V30 10 O 5.1514 0.5736 1.2812 0
M  V30 11 C -2.4756 -0.7004 -0.4522 0
M  V30 12 C -3.6227 -0.0545 0.34 0
M  V30 13 C -3.7604 1.4429 0.0667 0
M  V30 14 H 0.493 1.2412 -2.0346 0
M  V30 15 H 3.7407 1.8605 -0.572 0
M  V30 16 H 1.5634 -2.222 1.212 0
M  V30 17 H -0.065 -0.8915 -1.7715 0
M  V30 18 H -0.1011 -2.1217 -0.4936 0
M  V30 19 H 3.7672 -1.5367 2.0538 0
M  V30 20 H -1.0184 -0.4841 1.1492 0
M  V30 21 H -0.957 0.8172 -0.0971 0
M  V30 22 H 5.6284 1.4005 0.9416 0
M  V30 23 H -2.5746 -0.4483 -1.5309 0
M  V30 24 H -2.5702 -1.804 -0.3537 0
M  V30 25 H -4.5735 -0.5501 0.0468 0
M  V30 26 H -3.4786 -0.2231 1.4294 0
M  V30 27 H -2.8879 1.9983 0.4682 0
M  V30 28 H -4.6737 1.8265 0.5686 0
M  V30 29 H -3.8512 1.6328 -1.0237 0
M  V30 END ATOM
M  V30 BEGIN BOND
M  V30 1 1 1 2
M  V30 2 2 2 3
M  V30 3 1 2 4
M  V30 4 1 3 5
M  V30 5 1 3 6
M  V30 6 2 4 7
M  V30 7 2 5 8
M  V30 8 1 6 9
M  V30 9 1 7 10
M  V30 10 1 9 11
M  V30 11 1 11 12
M  V30 12 1 12 13
M  V30 13 1 7 8
M  V30 14 1 1 14
M  V30 15 1 4 15
M  V30 16 1 5 16
M  V30 17 1 6 17
M  V30 18 1 6 18
M  V30 19 1 8 19
M  V30 20 1 9 20
M  V30 21 1 9 21
M  V30 22 1 10 22
M  V30 23 1 11 23
M  V30 24 1 11 24
M  V30 25 1 12 25
M  V30 26 1 12 26
M  V30 27 1 13 27
M  V30 28 1 13 28
M  V30 29 1 13 29
M  V30 END BOND
M  V30 END CTAB
M  END
>  <Structure No>
3816

>  <LogS>
-1.9548

>  <MMFF94 Energy>
-2.3191

$$$$
Compound 3817
Actelion Java MolfileCreator 2.0

  0  0  0  0  0  0              0 V3000
M  V30 BEGIN CTAB
M  V30 COUNTS 30 29 0 0 0
M  V30 BEGIN ATOM
M  V30 1 O -0.0774 -1.9372 1.0845 0
M  V30 2 C -0.0167 -0.7599 0.6353 0
M  V30 3 N 0.9919 -0.4229 -0.3458 0
M  V30 4 C -1.067 0.2252 1.0873 0
M  V30 5 C 1.5743 -1.4926 -1.1692 0
M  V30 6 C 1.478 0.9558 -0.5181 0
M  V30 7 C -2.377 0.0657 0.2879 0
M  V30 8 C 2.8292 -2.0557 -0.5115 0
M  V30 9 C 2.2382 1.4271 0.7199 0
M  V30 10 C -3.4948 0.8957 0.9315 0
M  V30 11 C -2.1988 0.477 -1.1809 0
M  V30 12 H -0.7109 1.2725 1.0266 0
M  V30 13 H -1.2711 0.0306 2.1634 0
M  V30 14 H 1.8304 -1.1079 -2.1802 0
M  V30 15 H 0.8352 -2.3099 -1.3197 0
M  V30 16 H 0.6332 1.6399 -0.7393 0
M  V30 17 H 2.1695 1.0213 -1.3862 0
M  V30 18 H -2.6897 -1.0021 0.3171 0
M  V30 19 H 2.596 -2.4336 0.506 0
M  V30 20 H 3.6095 -1.2693 -0.4403 0
M  V30 21 H 3.2255 -2.8938 -1.1224 0
M  V30 22 H 2.6042 2.463 0.5591 0
M  V30 23 H 1.5845 1.4192 1.6161 0
M  V30 24 H 3.1107 0.767 0.9068 0
M  V30 25 H -3.2311 1.9755 0.9312 0
M  V30 26 H -4.4458 0.7584 0.3737 0
M  V30 27 H -3.6624 0.5676 1.9796 0
M  V30 28 H -1.8707 1.536 -1.2548 0
M  V30 29 H -1.4473 -0.1701 -1.679 0
M  V30 30 H -3.158 0.3623 -1.7295 0
M  V30 END ATOM
M  V30 BEGIN BOND
M  V30 1 2 1 2
M  V30 2 1 2 3
M  V30 3 1 2 4
M  V30 4 1 3 5
M  V30 5 1 3 6
M  V30 6 1 4 7
M  V30 7 1 5 8
M  V30 8 1 6 9
M  V30 9 1 7 10
M  V30 10 1 7 11
M  V30 11 1 4 12
M  V30 12 1 4 13
M  V30 13 1 5 14
M  V30 14 1 5 15
M  V30 15 1 6 16
M  V30 16 1 6 17
M  V30 17 1 7 18
M  V30 18 1 8 19
M  V30 19 1 8 20
M  V30 20 1 8 21
M  V30 21 1 9 22
M  V30 22 1 9 23
M  V30 23 1 9 24
M  V30 24 1 10 25
M  V30 25 1 10 26
M  V30 26 1 10 27
M  V30 27 1 11 28
M  V30 28 1 11 29
M  V30 29 1 11 30
M  V30 END BOND
M  V30 END CTAB
M  END
>  <Structure No>
3817

>  <LogS>
-0.5946

>  <MMFF94 Energy>
-12.408

$$$$
Compound 3818
Actelion Java MolfileCreator 2.0

  0  0  0  0  0  0              0 V3000
M  V30 BEGIN CTAB
M  V30 COUNTS 19 19 0 0 0
M  V30 BEGIN ATOM
M  V30 1 S -2.3185 2.4013 -0.0827 0
M  V30 2 C -1.2529 1.2937 -0.6438 0
M  V30 3 S 0.1433 1.8389 -1.6142 0
M  V30 4 N -1.2674 -0.048 -0.1463 0
M  V30 5 C 1.338 1.1898 -0.4058 0
M  V30 6 C -0.068 -0.5617 0.5284 0
M  V30 7 C -2.4945 -0.8423 -0.2315 0
M  V30 8 N 1.1495 -0.2671 -0.2569 0
M  V30 9 C 2.322 -0.8548 0.4107 0
M  V30 10 H 2.35 1.4128 -0.8089 0
M  V30 11 H 1.2314 1.7209 0.5674 0
M  V30 12 H -0.002 -0.1016 1.5408 0
M  V30 13 H -0.158 -1.6612 0.6709 0
M  V30 14 H -2.7995 -0.9426 -1.2943 0
M  V30 15 H -2.351 -1.8594 0.1894 0
M  V30 16 H -3.3087 -0.3452 0.3364 0
M  V30 17 H 2.1947 -1.9538 0.5165 0
M  V30 18 H 2.4787 -0.4081 1.4184 0
M  V30 19 H 3.2336 -0.6931 -0.2036 0
M  V30 END ATOM
M  V30 BEGIN BOND
M  V30 1 2 1 2
M  V30 2 1 2 3
M  V30 3 1 2 4
M  V30 4 1 3 5
M  V30 5 1 4 6
M  V30 6 1 4 7
M  V30 7 1 5 8
M  V30 8 1 8 9
M  V30 9 1 6 8
M  V30 10 1 5 10
M  V30 11 1 5 11
M  V30 12 1 6 12
M  V30 13 1 6 13
M  V30 14 1 7 14
M  V30 15 1 7 15
M  V30 16 1 7 16
M  V30 17 1 9 17
M  V30 18 1 9 18
M  V30 19 1 9 19
M  V30 END BOND
M  V30 END CTAB
M  END
>  <Structure No>
3818

>  <LogS>
-1.7331

>  <MMFF94 Energy>
-84.672

$$$$
Compound 3819
Actelion Java MolfileCreator 2.0

  0  0  0  0  0  0              0 V3000
M  V30 BEGIN CTAB
M  V30 COUNTS 14 13 0 0 0
M  V30 BEGIN ATOM
M  V30 1 S 0.1557 1.324 1.324 0
M  V30 2 C 0.041 0.1459 0.1782 0
M  V30 3 N 1.2244 -0.4069 -0.4209 0
M  V30 4 N -1.2439 -0.345 -0.2377 0
M  V30 5 C 2.5753 0.0198 -0.0707 0
M  V30 6 C -2.5053 0.1473 0.3062 0
M  V30 7 H 1.1178 -1.1529 -1.1445 0
M  V30 8 H -1.2826 -1.0926 -0.9665 0
M  V30 9 H 2.7633 -0.1677 1.0073 0
M  V30 10 H 2.6989 1.101 -0.2908 0
M  V30 11 H 3.3175 -0.552 -0.6665 0
M  V30 12 H -2.5417 -0.0344 1.4009 0
M  V30 13 H -2.6061 1.2343 0.1027 0
M  V30 14 H -3.3551 -0.3844 -0.1714 0
M  V30 END ATOM
M  V30 BEGIN BOND
M  V30 1 2 1 2
M  V30 2 1 2 3
M  V30 3 1 2 4
M  V30 4 1 3 5
M  V30 5 1 4 6
M  V30 6 1 3 7
M  V30 7 1 4 8
M  V30 8 1 5 9
M  V30 9 1 5 10
M  V30 10 1 5 11
M  V30 11 1 6 12
M  V30 12 1 6 13
M  V30 13 1 6 14
M  V30 END BOND
M  V30 END CTAB
M  END
>  <Structure No>
3819

>  <LogS>
0.9823

>  <MMFF94 Energy>
-69.684

$$$$
Compound 3820
Actelion Java MolfileCreator 2.0

  0  0  0  0  0  0              0 V3000
M  V30 BEGIN CTAB
M  V30 COUNTS 16 15 0 0 0
M  V30 BEGIN ATOM
M  V30 1 O -1.2971 0.305 -0.7628 0
M  V30 2 C -0.0915 0.4171 -0.0324 0
M  V30 3 C -1.9038 -0.9422 -0.5035 0
M  V30 4 O 0.9112 -0.3643 -0.6638 0
M  V30 5 C 0.3396 1.8809 -0.0546 0
M  V30 6 C 1.7184 -1.0085 0.2967 0
M  V30 7 H -0.266 0.1516 1.0433 0
M  V30 8 H -2.8184 -1.0258 -1.1254 0
M  V30 9 H -2.2146 -1.0223 0.5615 0
M  V30 10 H -1.2342 -1.7873 -0.7773 0
M  V30 11 H 1.2772 2.014 0.525 0
M  V30 12 H 0.5124 2.2143 -1.1002 0
M  V30 13 H -0.4505 2.5158 0.3997 0
M  V30 14 H 1.1269 -1.7547 0.8718 0
M  V30 15 H 2.1933 -0.2745 0.9848 0
M  V30 16 H 2.5293 -1.5527 -0.229 0
M  V30 END ATOM
M  V30 BEGIN BOND
M  V30 1 1 1 2
M  V30 2 1 1 3
M  V30 3 1 2 4
M  V30 4 1 2 5
M  V30 5 1 4 6
M  V30 6 1 2 7
M  V30 7 1 3 8
M  V30 8 1 3 9
M  V30 9 1 3 10
M  V30 10 1 5 11
M  V30 11 1 5 12
M  V30 12 1 5 13
M  V30 13 1 6 14
M  V30 14 1 6 15
M  V30 15 1 6 16
M  V30 END BOND
M  V30 END CTAB
M  END
>  <Structure No>
3820

>  <LogS>
1.0452

>  <MMFF94 Energy>
-5.7553

$$$$
Compound 3821
Actelion Java MolfileCreator 2.0

  0  0  0  0  0  0              0 V3000
M  V30 BEGIN CTAB
M  V30 COUNTS 21 20 0 0 0
M  V30 BEGIN ATOM
M  V30 1 O -1.7588 -1.3589 1.9188 0
M  V30 2 C -1.8564 -0.2323 1.3647 0
M  V30 3 O -2.2113 0.8758 2.1256 0 CHG=-1
M  V30 4 C -1.6027 -0.0936 -0.1106 0
M  V30 5 C -2.8899 0.2524 -0.8049 0
M  V30 6 C -0.5291 0.9753 -0.4103 0
M  V30 7 O -3.4261 -0.5728 -1.5907 0
M  V30 8 O -3.5067 1.4772 -0.5755 0 CHG=-1
M  V30 9 C 0.8505 0.6712 0.2036 0
M  V30 10 C 1.5379 -0.5392 -0.4449 0
M  V30 11 C 2.9661 -0.6995 0.0679 0
M  V30 12 H -1.2538 -1.0704 -0.5103 0
M  V30 13 H -0.871 1.96 -0.021 0
M  V30 14 H -0.4158 1.0851 -1.5116 0
M  V30 15 H 0.7572 0.5104 1.2993 0
M  V30 16 H 1.4911 1.5681 0.0548 0
M  V30 17 H 1.5657 -0.4119 -1.5488 0
M  V30 18 H 0.9777 -1.468 -0.2083 0
M  V30 19 H 2.9662 -0.8432 1.1695 0
M  V30 20 H 3.4339 -1.5879 -0.4061 0
M  V30 21 H 3.5709 0.197 -0.1853 0
M  V30 END ATOM
M  V30 BEGIN BOND
M  V30 1 2 1 2
M  V30 2 1 2 3
M  V30 3 1 2 4
M  V30 4 1 4 5
M  V30 5 1 4 6
M  V30 6 2 5 7
M  V30 7 1 5 8
M  V30 8 1 6 9
M  V30 9 1 9 10
M  V30 10 1 10 11
M  V30 11 1 4 12
M  V30 12 1 6 13
M  V30 13 1 6 14
M  V30 14 1 9 15
M  V30 15 1 9 16
M  V30 16 1 10 17
M  V30 17 1 10 18
M  V30 18 1 11 19
M  V30 19 1 11 20
M  V30 20 1 11 21
M  V30 END BOND
M  V30 END CTAB
M  END
>  <Structure No>
3821

>  <LogS>
0.4369

>  <MMFF94 Energy>
44.084

$$$$
Compound 3822
Actelion Java MolfileCreator 2.0

  0  0  0  0  0  0              0 V3000
M  V30 BEGIN CTAB
M  V30 COUNTS 24 24 0 0 0
M  V30 BEGIN ATOM
M  V30 1 C -0.3898 -0.4678 0.0779 0
M  V30 2 C 0.6313 0.4541 0.3806 0
M  V30 3 C -0.0367 -1.744 -0.3938 0
M  V30 4 C -1.8523 -0.1007 0.248 0
M  V30 5 C 1.9813 0.1017 0.2276 0
M  V30 6 C 1.3058 -2.0895 -0.564 0
M  V30 7 C -2.1753 0.222 1.7117 0
M  V30 8 C -2.2405 1.0625 -0.6722 0
M  V30 9 C 2.3118 -1.17 -0.2612 0
M  V30 10 C 3.0598 1.1038 0.5155 0
M  V30 11 H 0.3785 1.4454 0.7356 0
M  V30 12 H -0.8001 -2.4728 -0.6361 0
M  V30 13 H -2.4875 -0.9681 -0.0401 0
M  V30 14 H 1.5672 -3.072 -0.9352 0
M  V30 15 H -3.2665 0.3932 1.8312 0
M  V30 16 H -1.6369 1.1326 2.0504 0
M  V30 17 H -1.8847 -0.6303 2.3624 0
M  V30 18 H -1.7023 1.9927 -0.3921 0
M  V30 19 H -3.3328 1.2532 -0.6035 0
M  V30 20 H -1.9982 0.8106 -1.7268 0
M  V30 21 H 3.3477 -1.4498 -0.4073 0
M  V30 22 H 3.9974 0.5943 0.8241 0
M  V30 23 H 3.2576 1.7052 -0.396 0
M  V30 24 H 2.7524 1.7835 1.3386 0
M  V30 END ATOM
M  V30 BEGIN BOND
M  V30 1 2 1 2
M  V30 2 1 1 3
M  V30 3 1 1 4
M  V30 4 1 2 5
M  V30 5 2 3 6
M  V30 6 1 4 7
M  V30 7 1 4 8
M  V30 8 2 5 9
M  V30 9 1 5 10
M  V30 10 1 6 9
M  V30 11 1 2 11
M  V30 12 1 3 12
M  V30 13 1 4 13
M  V30 14 1 6 14
M  V30 15 1 7 15
M  V30 16 1 7 16
M  V30 17 1 7 17
M  V30 18 1 8 18
M  V30 19 1 8 19
M  V30 20 1 8 20
M  V30 21 1 9 21
M  V30 22 1 10 22
M  V30 23 1 10 23
M  V30 24 1 10 24
M  V30 END BOND
M  V30 END CTAB
M  END
>  <Structure No>
3822

>  <LogS>
-3.4994

>  <MMFF94 Energy>
25.152

$$$$
Compound 3823
Actelion Java MolfileCreator 2.0

  0  0  0  0  0  0              0 V3000
M  V30 BEGIN CTAB
M  V30 COUNTS 21 21 0 0 0
M  V30 BEGIN ATOM
M  V30 1 Cl 1.6851 -3.694 -0.9626 0
M  V30 2 C 1.3177 -2.0641 -0.4426 0
M  V30 3 N 0.0455 -1.5978 -0.5226 0
M  V30 4 N 2.3045 -1.2681 0.0398 0
M  V30 5 C -0.2806 -0.3349 -0.1279 0
M  V30 6 C 2.042 4.0E-4 0.449 0
M  V30 7 N -1.6529 0.1136 -0.2339 0
M  V30 8 C 0.7364 0.4976 0.3738 0
M  V30 9 C 3.1485 0.857 0.9771 0
M  V30 10 C -2.6637 -0.807 -0.7663 0
M  V30 11 C -2.0475 1.4659 0.1798 0
M  V30 12 H 0.5339 1.5085 0.7013 0
M  V30 13 H 3.2518 1.766 0.3481 0
M  V30 14 H 4.1112 0.3033 0.9647 0
M  V30 15 H 2.9238 1.1581 2.0218 0
M  V30 16 H -3.6725 -0.3446 -0.7962 0
M  V30 17 H -2.719 -1.7131 -0.1266 0
M  V30 18 H -2.3908 -1.1052 -1.8006 0
M  V30 19 H -1.8242 1.6094 1.258 0
M  V30 20 H -1.4952 2.219 -0.4206 0
M  V30 21 H -3.1332 1.6436 0.0316 0
M  V30 END ATOM
M  V30 BEGIN BOND
M  V30 1 1 1 2
M  V30 2 2 2 3
M  V30 3 1 2 4
M  V30 4 1 3 5
M  V30 5 2 4 6
M  V30 6 1 5 7
M  V30 7 2 5 8
M  V30 8 1 6 9
M  V30 9 1 7 10
M  V30 10 1 7 11
M  V30 11 1 6 8
M  V30 12 1 8 12
M  V30 13 1 9 13
M  V30 14 1 9 14
M  V30 15 1 9 15
M  V30 16 1 10 16
M  V30 17 1 10 17
M  V30 18 1 10 18
M  V30 19 1 11 19
M  V30 20 1 11 20
M  V30 21 1 11 21
M  V30 END BOND
M  V30 END CTAB
M  END
>  <Structure No>
3823

>  <LogS>
-1.2615

>  <MMFF94 Energy>
-48.317

$$$$
Compound 3824
Actelion Java MolfileCreator 2.0

  0  0  0  0  0  0              0 V3000
M  V30 BEGIN CTAB
M  V30 COUNTS 32 33 0 0 0
M  V30 BEGIN ATOM
M  V30 1 O 0.0 -1.2191 -1.6258 0
M  V30 2 C 0.4778 -0.5871 -0.6435 0
M  V30 3 O -0.358 -0.1601 0.3985 0
M  V30 4 C 1.9355 -0.345 -0.5586 0
M  V30 5 C -1.757 -0.0641 0.3314 0
M  V30 6 C 2.7966 -0.7836 -1.5797 0
M  V30 7 C 2.4782 0.3314 0.5469 0
M  V30 8 C -2.4961 -0.2481 1.5097 0
M  V30 9 C -2.4191 0.2522 -0.8676 0
M  V30 10 C 4.1763 -0.5514 -1.4969 0
M  V30 11 C 3.8576 0.5659 0.6342 0
M  V30 12 O -1.7937 -0.5302 2.6843 0
M  V30 13 C -3.9072 -0.1495 1.4761 0
M  V30 14 C -3.8186 0.3531 -0.9082 0
M  V30 15 O 5.0257 -0.9888 -2.5119 0
M  V30 16 C 4.7092 0.1227 -0.3911 0
M  V30 17 O 4.3843 1.238 1.7364 0
M  V30 18 O -4.7038 -0.3358 2.6081 0
M  V30 19 C -4.5511 0.1449 0.2697 0
M  V30 20 C -4.5158 0.6825 -2.1719 0
M  V30 21 O 6.0852 0.3443 -0.3264 0
M  V30 22 O -3.8644 0.8677 -3.2342 0
M  V30 23 O -5.9015 0.7914 -2.2046 0 CHG=-1
M  V30 24 H 2.4016 -1.3059 -2.4422 0
M  V30 25 H 1.8344 0.6799 1.3451 0
M  V30 26 H -1.8436 0.4506 -1.7616 0
M  V30 27 H -2.2279 -0.671 3.5848 0
M  V30 28 H 4.6722 -1.4794 -3.3252 0
M  V30 29 H 3.7926 1.5684 2.4899 0
M  V30 30 H -4.3432 -0.5604 3.524 0
M  V30 31 H -5.6318 0.2172 0.261 0
M  V30 32 H 6.5173 0.8269 0.4522 0
M  V30 END ATOM
M  V30 BEGIN BOND
M  V30 1 2 1 2
M  V30 2 1 2 3
M  V30 3 1 2 4
M  V30 4 1 3 5
M  V30 5 2 4 6
M  V30 6 1 4 7
M  V30 7 2 5 8
M  V30 8 1 5 9
M  V30 9 1 6 10
M  V30 10 2 7 11
M  V30 11 1 8 12
M  V30 12 1 8 13
M  V30 13 2 9 14
M  V30 14 1 10 15
M  V30 15 2 10 16
M  V30 16 1 11 17
M  V30 17 1 13 18
M  V30 18 2 13 19
M  V30 19 1 14 20
M  V30 20 1 16 21
M  V30 21 2 20 22
M  V30 22 1 20 23
M  V30 23 1 11 16
M  V30 24 1 14 19
M  V30 25 1 6 24
M  V30 26 1 7 25
M  V30 27 1 9 26
M  V30 28 1 12 27
M  V30 29 1 15 28
M  V30 30 1 17 29
M  V30 31 1 18 30
M  V30 32 1 19 31
M  V30 33 1 21 32
M  V30 END BOND
M  V30 END CTAB
M  END
>  <Structure No>
3824

>  <LogS>
-2.8092

>  <MMFF94 Energy>
50.891

$$$$
Compound 3825
Actelion Java MolfileCreator 2.0

  0  0  0  0  0  0              0 V3000
M  V30 BEGIN CTAB
M  V30 COUNTS 17 17 0 0 0
M  V30 BEGIN ATOM
M  V30 1 N 2.7354 -0.078 0.4685 0
M  V30 2 C 2.0551 -1.2403 0.2817 0
M  V30 3 C 2.1445 1.1318 0.279 0
M  V30 4 C 0.7161 -1.2129 -0.1162 0
M  V30 5 C 0.8073 1.2044 -0.119 0
M  V30 6 C 0.0844 0.021 -0.3308 0
M  V30 7 C -1.3663 0.0752 -0.7277 0
M  V30 8 C -2.263 0.1105 0.5054 0
M  V30 9 H 2.5529 -2.1867 0.4456 0
M  V30 10 H 2.7121 2.0384 0.4407 0
M  V30 11 H 0.1775 -2.1423 -0.2544 0
M  V30 12 H 0.3401 2.1714 -0.2594 0
M  V30 13 H -1.6269 -0.8118 -1.3453 0
M  V30 14 H -1.5595 0.978 -1.3474 0
M  V30 15 H -3.3271 0.1502 0.1906 0
M  V30 16 H -2.0397 1.0096 1.1189 0
M  V30 17 H -2.1079 -0.8013 1.121 0
M  V30 END ATOM
M  V30 BEGIN BOND
M  V30 1 2 1 2
M  V30 2 1 1 3
M  V30 3 1 2 4
M  V30 4 2 3 5
M  V30 5 2 4 6
M  V30 6 1 6 7
M  V30 7 1 7 8
M  V30 8 1 5 6
M  V30 9 1 2 9
M  V30 10 1 3 10
M  V30 11 1 4 11
M  V30 12 1 5 12
M  V30 13 1 7 13
M  V30 14 1 7 14
M  V30 15 1 8 15
M  V30 16 1 8 16
M  V30 17 1 8 17
M  V30 END BOND
M  V30 END CTAB
M  END
>  <Structure No>
3825

>  <LogS>
-0.0006

>  <MMFF94 Energy>
16.957

$$$$
Compound 3826
Actelion Java MolfileCreator 2.0

  0  0  0  0  0  0              0 V3000
M  V30 BEGIN CTAB
M  V30 COUNTS 27 27 0 0 0
M  V30 BEGIN ATOM
M  V30 1 O 1.5784 2.2893 -0.3155 0
M  V30 2 C 1.3959 1.3322 0.4832 0
M  V30 3 O 1.0987 1.5981 1.8139 0 CHG=-1
M  V30 4 C 1.4801 -0.0971 0.001 0 CFG=2
M  V30 5 N 2.7905 -0.3727 -0.6268 0 CHG=1
M  V30 6 C 0.3376 -0.3952 -0.9954 0
M  V30 7 C 3.8909 -0.3175 0.3435 0
M  V30 8 C -1.02 -0.2726 -0.3487 0
M  V30 9 C -1.7749 0.9031 -0.4943 0
M  V30 10 C -1.5228 -1.319 0.4418 0
M  V30 11 C -3.02 1.0235 0.1305 0
M  V30 12 C -2.7683 -1.1962 1.0653 0
M  V30 13 C -3.5201 -0.0269 0.9118 0
M  V30 14 O -4.7592 0.0818 1.5392 0
M  V30 15 H 1.3482 -0.7751 0.8759 0
M  V30 16 H 2.7831 -1.3357 -1.0378 0
M  V30 17 H 2.9781 0.3103 -1.3982 0
M  V30 18 H 0.412 0.2852 -1.8725 0
M  V30 19 H 0.4492 -1.4298 -1.3874 0
M  V30 20 H 3.7161 -1.0315 1.1779 0
M  V30 21 H 4.8437 -0.5961 -0.1562 0
M  V30 22 H 4.0077 0.709 0.7527 0
M  V30 23 H -1.3986 1.7267 -1.0882 0
M  V30 24 H -0.949 -2.2276 0.5759 0
M  V30 25 H -3.5933 1.9339 0.0093 0
M  V30 26 H -3.1482 -2.0092 1.6709 0
M  V30 27 H -5.3274 0.9159 1.4479 0
M  V30 END ATOM
M  V30 BEGIN BOND
M  V30 1 2 1 2
M  V30 2 1 2 3
M  V30 3 1 2 4
M  V30 4 1 4 5
M  V30 5 1 4 6
M  V30 6 1 5 7
M  V30 7 1 6 8
M  V30 8 2 8 9
M  V30 9 1 8 10
M  V30 10 1 9 11
M  V30 11 2 10 12
M  V30 12 2 11 13
M  V30 13 1 13 14
M  V30 14 1 12 13
M  V30 15 1 4 15
M  V30 16 1 5 16
M  V30 17 1 5 17
M  V30 18 1 6 18
M  V30 19 1 6 19
M  V30 20 1 7 20
M  V30 21 1 7 21
M  V30 22 1 7 22
M  V30 23 1 9 23
M  V30 24 1 10 24
M  V30 25 1 11 25
M  V30 26 1 12 26
M  V30 27 1 14 27
M  V30 END BOND
M  V30 BEGIN COLLECTION
M  V30 MDLV30/STEABS ATOMS=(1 4)
M  V30 END COLLECTION
M  V30 END CTAB
M  END
>  <Structure No>
3826

>  <LogS>
-2.1325

>  <MMFF94 Energy>
9.3365

$$$$
Compound 3827
Actelion Java MolfileCreator 2.0

  0  0  0  0  0  0              0 V3000
M  V30 BEGIN CTAB
M  V30 COUNTS 22 21 0 0 0
M  V30 BEGIN ATOM
M  V30 1 Cl -0.8053 -2.6594 1.2887 0
M  V30 2 C -1.6538 -1.6342 0.1019 0
M  V30 3 C -0.6978 -0.9441 -0.8916 0
M  V30 4 N 0.229 0.0604 -0.3055 0
M  V30 5 C 1.4 -0.5412 0.3694 0
M  V30 6 C -0.4157 1.1031 0.5259 0
M  V30 7 C 2.6615 0.2537 0.0374 0
M  V30 8 C -1.3969 1.9514 -0.2826 0
M  V30 9 Cl 4.0835 -0.5038 0.7987 0
M  V30 10 H -2.3002 -0.9033 0.6269 0
M  V30 11 H -2.3323 -2.2973 -0.4748 0
M  V30 12 H -0.1238 -1.7219 -1.4412 0
M  V30 13 H -1.3116 -0.4476 -1.6724 0
M  V30 14 H 1.5727 -1.5863 0.0291 0
M  V30 15 H 1.2572 -0.5717 1.4735 0
M  V30 16 H 0.3581 1.7978 0.9174 0
M  V30 17 H -0.9197 0.6644 1.4128 0
M  V30 18 H 2.5781 1.2957 0.4093 0
M  V30 19 H 2.814 0.2758 -1.0625 0
M  V30 20 H -0.9125 2.3135 -1.2142 0
M  V30 21 H -1.7123 2.8296 0.3195 0
M  V30 22 H -2.3054 1.3683 -0.5389 0
M  V30 END ATOM
M  V30 BEGIN BOND
M  V30 1 1 1 2
M  V30 2 1 2 3
M  V30 3 1 3 4
M  V30 4 1 4 5
M  V30 5 1 4 6
M  V30 6 1 5 7
M  V30 7 1 6 8
M  V30 8 1 7 9
M  V30 9 1 2 10
M  V30 10 1 2 11
M  V30 11 1 3 12
M  V30 12 1 3 13
M  V30 13 1 5 14
M  V30 14 1 5 15
M  V30 15 1 6 16
M  V30 16 1 6 17
M  V30 17 1 7 18
M  V30 18 1 7 19
M  V30 19 1 8 20
M  V30 20 1 8 21
M  V30 21 1 8 22
M  V30 END BOND
M  V30 END CTAB
M  END
>  <Structure No>
3827

>  <LogS>
-3.0265

>  <MMFF94 Energy>
40.039

$$$$
Compound 3828
Actelion Java MolfileCreator 2.0

  0  0  0  0  0  0              0 V3000
M  V30 BEGIN CTAB
M  V30 COUNTS 31 31 0 0 0
M  V30 BEGIN ATOM
M  V30 1 O -0.2356 2.5158 -0.5499 0
M  V30 2 C -0.3374 1.2604 -0.4643 0
M  V30 3 O -1.5731 0.6368 -0.6558 0
M  V30 4 C 0.8378 0.428 -0.1594 0
M  V30 5 C -2.7642 1.362 -0.9486 0
M  V30 6 C 2.0603 0.9502 0.0149 0
M  V30 7 C -3.942 0.3991 -1.0983 0
M  V30 8 C 3.268 0.1408 0.3121 0
M  V30 9 C -4.2538 -0.3229 0.219 0
M  V30 10 C 3.1972 -1.151 0.8744 0
M  V30 11 C 4.5325 0.6997 0.0557 0
M  V30 12 C -5.445 -1.2635 0.0621 0
M  V30 13 C 4.3666 -1.8684 1.1464 0
M  V30 14 C 5.6979 -0.0226 0.329 0
M  V30 15 C 5.6151 -1.3067 0.871 0
M  V30 16 H 0.6805 -0.64 -0.1057 0
M  V30 17 H -2.973 2.0925 -0.1361 0
M  V30 18 H -2.631 1.9195 -1.9012 0
M  V30 19 H 2.1958 2.0192 -0.1056 0
M  V30 20 H -4.8347 0.9782 -1.4216 0
M  V30 21 H -3.705 -0.3452 -1.8897 0
M  V30 22 H -3.3709 -0.9155 0.5434 0
M  V30 23 H -4.4869 0.4231 1.0098 0
M  V30 24 H 2.2494 -1.6043 1.129 0
M  V30 25 H 4.618 1.6945 -0.3648 0
M  V30 26 H -6.3509 -0.6929 -0.2348 0
M  V30 27 H -5.647 -1.7721 1.0284 0
M  V30 28 H -5.2285 -2.0351 -0.707 0
M  V30 29 H 4.3046 -2.859 1.5783 0
M  V30 30 H 6.6662 0.4144 0.1213 0
M  V30 31 H 6.5183 -1.8639 1.0836 0
M  V30 END ATOM
M  V30 BEGIN BOND
M  V30 1 2 1 2
M  V30 2 1 2 3
M  V30 3 1 2 4
M  V30 4 1 3 5
M  V30 5 2 4 6
M  V30 6 1 5 7
M  V30 7 1 6 8
M  V30 8 1 7 9
M  V30 9 2 8 10
M  V30 10 1 8 11
M  V30 11 1 9 12
M  V30 12 1 10 13
M  V30 13 2 11 14
M  V30 14 2 13 15
M  V30 15 1 14 15
M  V30 16 1 4 16
M  V30 17 1 5 17
M  V30 18 1 5 18
M  V30 19 1 6 19
M  V30 20 1 7 20
M  V30 21 1 7 21
M  V30 22 1 9 22
M  V30 23 1 9 23
M  V30 24 1 10 24
M  V30 25 1 11 25
M  V30 26 1 12 26
M  V30 27 1 12 27
M  V30 28 1 12 28
M  V30 29 1 13 29
M  V30 30 1 14 30
M  V30 31 1 15 31
M  V30 END BOND
M  V30 END CTAB
M  END
>  <Structure No>
3828

>  <LogS>
-1.6112

>  <MMFF94 Energy>
7.1165

$$$$
Compound 3829
Actelion Java MolfileCreator 2.0

  0  0  0  0  0  0              0 V3000
M  V30 BEGIN CTAB
M  V30 COUNTS 19 19 0 0 0
M  V30 BEGIN ATOM
M  V30 1 O -2.2634 -0.5459 0.2339 0
M  V30 2 C -1.2938 -0.8701 -0.7435 0
M  V30 3 C -2.7059 0.7827 0.0607 0
M  V30 4 C 0.0828 -0.4876 -0.2687 0
M  V30 5 C 0.7694 0.5867 -0.8588 0
M  V30 6 C 0.6793 -1.1859 0.7938 0
M  V30 7 C 2.0395 0.9479 -0.3986 0
M  V30 8 C 1.9497 -0.8217 1.2509 0
M  V30 9 C 2.6298 0.2437 0.6546 0
M  V30 10 H -1.5202 -0.4293 -1.7434 0
M  V30 11 H -1.3155 -1.9702 -0.8952 0
M  V30 12 H -1.8622 1.505 0.1223 0
M  V30 13 H -3.4163 1.0277 0.8766 0
M  V30 14 H -3.2483 0.899 -0.9033 0
M  V30 15 H 0.3216 1.1452 -1.6715 0
M  V30 16 H 0.1597 -2.0102 1.2669 0
M  V30 17 H 2.5655 1.7753 -0.857 0
M  V30 18 H 2.4061 -1.3642 2.0686 0
M  V30 19 H 3.6125 0.5251 1.0099 0
M  V30 END ATOM
M  V30 BEGIN BOND
M  V30 1 1 1 2
M  V30 2 1 1 3
M  V30 3 1 2 4
M  V30 4 2 4 5
M  V30 5 1 4 6
M  V30 6 1 5 7
M  V30 7 2 6 8
M  V30 8 2 7 9
M  V30 9 1 8 9
M  V30 10 1 2 10
M  V30 11 1 2 11
M  V30 12 1 3 12
M  V30 13 1 3 13
M  V30 14 1 3 14
M  V30 15 1 5 15
M  V30 16 1 6 16
M  V30 17 1 7 17
M  V30 18 1 8 18
M  V30 19 1 9 19
M  V30 END BOND
M  V30 END CTAB
M  END
>  <Structure No>
3829

>  <LogS>
-1.6098

>  <MMFF94 Energy>
28.047

$$$$
Compound 3830
Actelion Java MolfileCreator 2.0

  0  0  0  0  0  0              0 V3000
M  V30 BEGIN CTAB
M  V30 COUNTS 34 35 0 0 0
M  V30 BEGIN ATOM
M  V30 1 N 0.8682 -0.4735 0.2367 0
M  V30 2 N 1.6327 0.514 -0.008 0
M  V30 3 C -0.5581 -0.3448 0.267 0
M  V30 4 C 3.059 0.385 -0.0382 0
M  V30 5 C -1.334 -1.4732 0.5426 0
M  V30 6 C -1.1937 0.8837 0.0273 0
M  V30 7 C 3.6948 -0.8465 0.2024 0
M  V30 8 C 3.8361 1.5164 -0.3146 0
M  V30 9 C -2.7283 -1.3845 0.5805 0
M  V30 10 C -2.5879 0.9764 0.0638 0
M  V30 11 C 5.0896 -0.9372 0.1653 0
M  V30 12 C 5.2307 1.4249 -0.3517 0
M  V30 13 C -3.381 -0.1568 0.3413 0
M  V30 14 C 5.8642 0.1977 -0.1119 0
M  V30 15 N -4.8294 -0.0623 0.3799 0
M  V30 16 N 7.2904 0.1041 -0.1496 0
M  V30 17 C -5.6256 -1.0778 1.0803 0
M  V30 18 C -5.523 1.0504 -0.2807 0
M  V30 19 H -0.8554 -2.4269 0.7271 0
M  V30 20 H -0.6146 1.773 -0.186 0
M  V30 21 H 3.1163 -1.7354 0.4185 0
M  V30 22 H 3.3585 2.4701 -0.5016 0
M  V30 23 H -3.2891 -2.2851 0.7873 0
M  V30 24 H -3.0376 1.9429 -0.1159 0
M  V30 25 H 5.5664 -1.8911 0.3523 0
M  V30 26 H 5.8169 2.3093 -0.5669 0
M  V30 27 H 7.7714 -0.8056 0.0276 0
M  V30 28 H 7.876 0.9442 -0.3553 0
M  V30 29 H -5.2113 -1.2478 2.0967 0
M  V30 30 H -5.6139 -2.028 0.5067 0
M  V30 31 H -6.6824 -0.7585 1.2006 0
M  V30 32 H -6.6171 0.8715 -0.344 0
M  V30 33 H -5.3578 1.9891 0.2881 0
M  V30 34 H -5.1443 1.1687 -1.318 0
M  V30 END ATOM
M  V30 BEGIN BOND
M  V30 1 2 1 2
M  V30 2 1 1 3
M  V30 3 1 2 4
M  V30 4 2 3 5
M  V30 5 1 3 6
M  V30 6 2 4 7
M  V30 7 1 4 8
M  V30 8 1 5 9
M  V30 9 2 6 10
M  V30 10 1 7 11
M  V30 11 2 8 12
M  V30 12 2 9 13
M  V30 13 2 11 14
M  V30 14 1 13 15
M  V30 15 1 14 16
M  V30 16 1 15 17
M  V30 17 1 15 18
M  V30 18 1 10 13
M  V30 19 1 12 14
M  V30 20 1 5 19
M  V30 21 1 6 20
M  V30 22 1 7 21
M  V30 23 1 8 22
M  V30 24 1 9 23
M  V30 25 1 10 24
M  V30 26 1 11 25
M  V30 27 1 12 26
M  V30 28 1 16 27
M  V30 29 1 16 28
M  V30 30 1 17 29
M  V30 31 1 17 30
M  V30 32 1 17 31
M  V30 33 1 18 32
M  V30 34 1 18 33
M  V30 35 1 18 34
M  V30 END BOND
M  V30 END CTAB
M  END
>  <Structure No>
3830

>  <LogS>
-4.594

>  <MMFF94 Energy>
31.516

$$$$
Compound 3831
Actelion Java MolfileCreator 2.0

  0  0  0  0  0  0              0 V3000
M  V30 BEGIN CTAB
M  V30 COUNTS 15 15 0 0 0
M  V30 BEGIN ATOM
M  V30 1 O 3.9864 1.4337 -0.4777 0
M  V30 2 C 3.2262 0.5444 -0.0137 0
M  V30 3 O 3.7759 -0.536 0.667 0 CHG=-1
M  V30 4 C 1.772 0.6632 -0.1992 0
M  V30 5 C 0.9205 -0.252 0.2729 0
M  V30 6 C -0.5318 -0.1237 0.082 0
M  V30 7 O -1.1201 0.8674 -0.5491 0
M  V30 8 C -1.4763 -1.0212 0.5362 0
M  V30 9 C -2.4173 0.6631 -0.5314 0
M  V30 10 C -2.6938 -0.5113 0.139 0
M  V30 11 H 1.3952 1.5255 -0.7374 0
M  V30 12 H 1.2911 -1.1159 0.8118 0
M  V30 13 H -1.3017 -1.935 1.0889 0
M  V30 14 H -3.1463 1.3248 -0.9795 0
M  V30 15 H -3.6691 -0.9443 0.3168 0
M  V30 END ATOM
M  V30 BEGIN BOND
M  V30 1 2 1 2
M  V30 2 1 2 3
M  V30 3 1 2 4
M  V30 4 2 4 5
M  V30 5 1 5 6
M  V30 6 1 6 7
M  V30 7 2 6 8
M  V30 8 1 7 9
M  V30 9 1 8 10
M  V30 10 2 9 10
M  V30 11 1 4 11
M  V30 12 1 5 12
M  V30 13 1 8 13
M  V30 14 1 9 14
M  V30 15 1 10 15
M  V30 END BOND
M  V30 END CTAB
M  END
>  <Structure No>
3831

>  <LogS>
-1.8392

>  <MMFF94 Energy>
-12.167

$$$$
Compound 3832
Actelion Java MolfileCreator 2.0

  0  0  0  0  0  0              0 V3000
M  V30 BEGIN CTAB
M  V30 COUNTS 23 22 0 0 0
M  V30 BEGIN ATOM
M  V30 1 O 0.3873 -0.4648 1.9381 0
M  V30 2 C 0.4339 -0.9285 0.7656 0
M  V30 3 O 1.5695 -0.7422 -0.031 0
M  V30 4 C -0.7212 -1.72 0.2316 0
M  V30 5 C 2.701 0.0213 0.3827 0
M  V30 6 C -2.0267 -0.9051 0.1912 0
M  V30 7 C 2.4056 1.5144 0.2957 0
M  V30 8 C -2.172 -0.0234 -1.0608 0
M  V30 9 C -1.2189 1.17 -1.0714 0
M  V30 10 H -0.4792 -2.1129 -0.7794 0
M  V30 11 H -0.868 -2.5972 0.898 0
M  V30 12 H 2.9958 -0.2537 1.4187 0
M  V30 13 H 3.5519 -0.2133 -0.2907 0
M  V30 14 H -2.8726 -1.6268 0.1856 0
M  V30 15 H -2.1416 -0.2913 1.1117 0
M  V30 16 H 3.3043 2.0908 0.6004 0
M  V30 17 H 1.5642 1.7838 0.9678 0
M  V30 18 H 2.1409 1.7882 -0.7473 0
M  V30 19 H -2.0184 -0.6313 -1.9786 0
M  V30 20 H -3.2129 0.3662 -1.0901 0
M  V30 21 H -1.5161 1.8728 -1.8782 0
M  V30 22 H -0.1834 0.8351 -1.2782 0
M  V30 23 H -1.2527 1.7102 -0.1013 0
M  V30 END ATOM
M  V30 BEGIN BOND
M  V30 1 2 1 2
M  V30 2 1 2 3
M  V30 3 1 2 4
M  V30 4 1 3 5
M  V30 5 1 4 6
M  V30 6 1 5 7
M  V30 7 1 6 8
M  V30 8 1 8 9
M  V30 9 1 4 10
M  V30 10 1 4 11
M  V30 11 1 5 12
M  V30 12 1 5 13
M  V30 13 1 6 14
M  V30 14 1 6 15
M  V30 15 1 7 16
M  V30 16 1 7 17
M  V30 17 1 7 18
M  V30 18 1 8 19
M  V30 19 1 8 20
M  V30 20 1 9 21
M  V30 21 1 9 22
M  V30 22 1 9 23
M  V30 END BOND
M  V30 END CTAB
M  END
>  <Structure No>
3832

>  <LogS>
-1.7706

>  <MMFF94 Energy>
-12.892

$$$$
Compound 3833
Actelion Java MolfileCreator 2.0

  0  0  0  0  0  0              0 V3000
M  V30 BEGIN CTAB
M  V30 COUNTS 23 22 0 0 0
M  V30 BEGIN ATOM
M  V30 1 O 2.0155 -1.3174 -1.2399 0
M  V30 2 C 1.8125 -0.5887 -0.2305 0
M  V30 3 O 0.5311 -0.1125 0.0601 0
M  V30 4 C 2.9598 -0.189 0.6409 0
M  V30 5 C -0.6066 -0.4318 -0.7357 0
M  V30 6 C 3.5316 1.1503 0.192 0
M  V30 7 C -1.8605 0.2379 -0.1536 0
M  V30 8 C -3.0634 0.0169 -1.0779 0
M  V30 9 C -2.1659 -0.2918 1.2535 0
M  V30 10 H 3.7549 -0.9645 0.5982 0
M  V30 11 H 2.6113 -0.1072 1.6928 0
M  V30 12 H -0.4363 -0.0649 -1.7718 0
M  V30 13 H -0.7433 -1.5356 -0.7674 0
M  V30 14 H 3.9026 1.0803 -0.8529 0
M  V30 15 H 4.3789 1.4324 0.8519 0
M  V30 16 H 2.7542 1.9419 0.2533 0
M  V30 17 H -1.6752 1.3327 -0.0837 0
M  V30 18 H -3.9607 0.5287 -0.6688 0
M  V30 19 H -3.2847 -1.0672 -1.1817 0
M  V30 20 H -2.8564 0.4388 -2.0845 0
M  V30 21 H -2.3471 -1.3879 1.2295 0
M  V30 22 H -1.3166 -0.0832 1.9381 0
M  V30 23 H -3.0671 0.2111 1.6646 0
M  V30 END ATOM
M  V30 BEGIN BOND
M  V30 1 2 1 2
M  V30 2 1 2 3
M  V30 3 1 2 4
M  V30 4 1 3 5
M  V30 5 1 4 6
M  V30 6 1 5 7
M  V30 7 1 7 8
M  V30 8 1 7 9
M  V30 9 1 4 10
M  V30 10 1 4 11
M  V30 11 1 5 12
M  V30 12 1 5 13
M  V30 13 1 6 14
M  V30 14 1 6 15
M  V30 15 1 6 16
M  V30 16 1 7 17
M  V30 17 1 8 18
M  V30 18 1 8 19
M  V30 19 1 8 20
M  V30 20 1 9 21
M  V30 21 1 9 22
M  V30 22 1 9 23
M  V30 END BOND
M  V30 END CTAB
M  END
>  <Structure No>
3833

>  <LogS>
-1.8841

>  <MMFF94 Energy>
-7.5332

$$$$
Compound 3834
Actelion Java MolfileCreator 2.0

  0  0  0  0  0  0              0 V3000
M  V30 BEGIN CTAB
M  V30 COUNTS 13 13 0 0 0
M  V30 BEGIN ATOM
M  V30 1 O 0.7821 -0.8603 0.391 0
M  V30 2 C -0.165 0.1222 0.7349 0
M  V30 3 C 1.9564 -0.2071 -0.027 0
M  V30 4 C -1.1757 0.4229 -0.3584 0
M  V30 5 C -1.5689 -0.4489 0.8216 0
M  V30 6 H 0.0729 0.8895 1.5055 0
M  V30 7 H 2.7003 -0.9735 -0.3264 0
M  V30 8 H 1.7649 0.4411 -0.9119 0
M  V30 9 H 2.4003 0.3883 0.8022 0
M  V30 10 H -1.5848 1.4546 -0.3241 0
M  V30 11 H -1.0182 -0.1321 -1.3078 0
M  V30 12 H -2.2309 0.0586 1.5548 0
M  V30 13 H -1.6637 -1.528 0.5738 0
M  V30 END ATOM
M  V30 BEGIN BOND
M  V30 1 1 1 2
M  V30 2 1 1 3
M  V30 3 1 2 4
M  V30 4 1 2 5
M  V30 5 1 4 5
M  V30 6 1 2 6
M  V30 7 1 3 7
M  V30 8 1 3 8
M  V30 9 1 3 9
M  V30 10 1 4 10
M  V30 11 1 4 11
M  V30 12 1 5 12
M  V30 13 1 5 13
M  V30 END BOND
M  V30 END CTAB
M  END
>  <Structure No>
3834

>  <LogS>
-0.1176

>  <MMFF94 Energy>
4.4423

$$$$
Compound 3835
Actelion Java MolfileCreator 2.0

  0  0  0  0  0  0              0 V3000
M  V30 BEGIN CTAB
M  V30 COUNTS 12 11 0 0 0
M  V30 BEGIN ATOM
M  V30 1 O 0.5265 0.5265 0.5265 0
M  V30 2 C -0.4037 -0.2205 -0.2274 0
M  V30 3 C 1.8335 0.12 0.1894 0
M  V30 4 C -1.8126 0.2205 0.1386 0
M  V30 5 H -0.258 -0.0495 -1.3185 0
M  V30 6 H -0.311 -1.3083 -0.0057 0
M  V30 7 H 2.5539 0.7141 0.7882 0
M  V30 8 H 1.9977 -0.9529 0.4341 0
M  V30 9 H 2.051 0.3119 -0.8848 0
M  V30 10 H -1.9959 0.048 1.2205 0
M  V30 11 H -2.5533 -0.3614 -0.4492 0
M  V30 12 H -1.9432 1.3004 -0.0854 0
M  V30 END ATOM
M  V30 BEGIN BOND
M  V30 1 1 1 2
M  V30 2 1 1 3
M  V30 3 1 2 4
M  V30 4 1 2 5
M  V30 5 1 2 6
M  V30 6 1 3 7
M  V30 7 1 3 8
M  V30 8 1 3 9
M  V30 9 1 4 10
M  V30 10 1 4 11
M  V30 11 1 4 12
M  V30 END BOND
M  V30 END CTAB
M  END
>  <Structure No>
3835

>  <LogS>
-0.0799

>  <MMFF94 Energy>
3.8783

$$$$
Compound 3836
Actelion Java MolfileCreator 2.0

  0  0  0  0  0  0              0 V3000
M  V30 BEGIN CTAB
M  V30 COUNTS 13 12 0 0 0
M  V30 BEGIN ATOM
M  V30 1 N -0.5163 0.3687 0.1474 0 CHG=1
M  V30 2 N 0.5383 -0.5509 -0.0654 0
M  V30 3 C -1.758 -0.2091 -0.3663 0
M  V30 4 C 1.7582 -0.0623 0.5832 0
M  V30 5 H -0.3183 1.2684 -0.3534 0
M  V30 6 H -0.6362 0.5405 1.1743 0
M  V30 7 H 0.7344 -0.5958 -1.0948 0
M  V30 8 H -1.9725 -1.1767 0.1381 0
M  V30 9 H -2.604 0.4852 -0.1724 0
M  V30 10 H -1.6852 -0.3753 -1.4633 0
M  V30 11 H 1.616 -0.0175 1.6841 0
M  V30 12 H 2.0333 0.9449 0.2004 0
M  V30 13 H 2.5939 -0.7625 0.3724 0
M  V30 END ATOM
M  V30 BEGIN BOND
M  V30 1 1 1 2
M  V30 2 1 1 3
M  V30 3 1 2 4
M  V30 4 1 1 5
M  V30 5 1 1 6
M  V30 6 1 2 7
M  V30 7 1 3 8
M  V30 8 1 3 9
M  V30 9 1 3 10
M  V30 10 1 4 11
M  V30 11 1 4 12
M  V30 12 1 4 13
M  V30 END BOND
M  V30 END CTAB
M  END
>  <Structure No>
3836

>  <LogS>
1.2211

>  <MMFF94 Energy>
84.71

$$$$
Compound 3837
Actelion Java MolfileCreator 2.0

  0  0  0  0  0  0              0 V3000
M  V30 BEGIN CTAB
M  V30 COUNTS 26 25 0 0 0
M  V30 BEGIN ATOM
M  V30 1 C -1.2334 0.077 -0.1541 0
M  V30 2 C 0.1747 0.421 -0.7327 0
M  V30 3 C -1.3593 -1.4243 0.1757 0
M  V30 4 C -1.5279 0.9137 1.1109 0
M  V30 5 C -2.2928 0.4291 -1.221 0
M  V30 6 C 1.3934 0.0266 0.1567 0
M  V30 7 C 2.0603 -1.2637 -0.3446 0
M  V30 8 C 2.4303 1.1578 0.1944 0
M  V30 9 H 0.1945 1.5165 -0.932 0
M  V30 10 H 0.2826 -0.051 -1.7351 0
M  V30 11 H -0.6786 -1.7148 1.0026 0
M  V30 12 H -1.121 -2.0408 -0.7173 0
M  V30 13 H -2.3951 -1.6672 0.4977 0
M  V30 14 H -2.5738 0.7513 1.4506 0
M  V30 15 H -1.3967 1.9975 0.903 0
M  V30 16 H -0.8627 0.6368 1.9535 0
M  V30 17 H -2.2425 1.5081 -1.4839 0
M  V30 18 H -3.318 0.2118 -0.8496 0
M  V30 19 H -2.1303 -0.1627 -2.1476 0
M  V30 20 H 1.0773 -0.149 1.2044 0
M  V30 21 H 2.4663 -1.1227 -1.3695 0
M  V30 22 H 1.3343 -2.1012 -0.3637 0
M  V30 23 H 2.894 -1.5513 0.3311 0
M  V30 24 H 2.7996 1.3844 -0.829 0
M  V30 25 H 3.293 0.8708 0.8329 0
M  V30 26 H 1.9766 2.0761 0.6252 0
M  V30 END ATOM
M  V30 BEGIN BOND
M  V30 1 1 1 2
M  V30 2 1 1 3
M  V30 3 1 1 4
M  V30 4 1 1 5
M  V30 5 1 2 6
M  V30 6 1 6 7
M  V30 7 1 6 8
M  V30 8 1 2 9
M  V30 9 1 2 10
M  V30 10 1 3 11
M  V30 11 1 3 12
M  V30 12 1 3 13
M  V30 13 1 4 14
M  V30 14 1 4 15
M  V30 15 1 4 16
M  V30 16 1 5 17
M  V30 17 1 5 18
M  V30 18 1 5 19
M  V30 19 1 6 20
M  V30 20 1 7 21
M  V30 21 1 7 22
M  V30 22 1 7 23
M  V30 23 1 8 24
M  V30 24 1 8 25
M  V30 25 1 8 26
M  V30 END BOND
M  V30 END CTAB
M  END
>  <Structure No>
3837

>  <LogS>
-4.6704

>  <MMFF94 Energy>
18.432

$$$$
Compound 3838
Actelion Java MolfileCreator 2.0

  0  0  0  0  0  0              0 V3000
M  V30 BEGIN CTAB
M  V30 COUNTS 20 19 0 0 0
M  V30 BEGIN ATOM
M  V30 1 O 1.1618 -0.6969 -1.6269 0
M  V30 2 C 1.5466 -0.4785 -0.447 0
M  V30 3 O 0.6578 -0.0282 0.541 0
M  V30 4 C 2.9862 -0.6553 -0.1029 0
M  V30 5 C -0.7483 0.2084 0.3741 0
M  V30 6 C -1.2944 0.6783 1.7312 0
M  V30 7 C -1.4727 -1.0894 -0.0311 0
M  V30 8 C -0.9919 1.315 -0.6699 0
M  V30 9 H 3.3997 -1.5383 -0.6343 0
M  V30 10 H 3.0988 -0.8102 0.9906 0
M  V30 11 H 3.5518 0.2513 -0.4024 0
M  V30 12 H -1.1194 -0.0982 2.5068 0
M  V30 13 H -0.7784 1.6087 2.0531 0
M  V30 14 H -2.386 0.8811 1.6739 0
M  V30 15 H -1.1728 -1.4203 -1.0462 0
M  V30 16 H -2.5738 -0.9365 -0.038 0
M  V30 17 H -1.2323 -1.9027 0.6867 0
M  V30 18 H -0.6947 0.9855 -1.6862 0
M  V30 19 H -0.405 2.2222 -0.4109 0
M  V30 20 H -2.069 1.5879 -0.706 0
M  V30 END ATOM
M  V30 BEGIN BOND
M  V30 1 2 1 2
M  V30 2 1 2 3
M  V30 3 1 2 4
M  V30 4 1 3 5
M  V30 5 1 5 6
M  V30 6 1 5 7
M  V30 7 1 5 8
M  V30 8 1 4 9
M  V30 9 1 4 10
M  V30 10 1 4 11
M  V30 11 1 6 12
M  V30 12 1 6 13
M  V30 13 1 6 14
M  V30 14 1 7 15
M  V30 15 1 7 16
M  V30 16 1 7 17
M  V30 17 1 8 18
M  V30 18 1 8 19
M  V30 19 1 8 20
M  V30 END BOND
M  V30 END CTAB
M  END
>  <Structure No>
3838

>  <LogS>
-1.1443

>  <MMFF94 Energy>
1.5493

$$$$
Compound 3839
Actelion Java MolfileCreator 2.0

  0  0  0  0  0  0              0 V3000
M  V30 BEGIN CTAB
M  V30 COUNTS 14 13 0 0 0
M  V30 BEGIN ATOM
M  V30 1 Cl -3.1206 0.2461 0.8205 0
M  V30 2 C -1.6085 -0.0367 -0.0811 0
M  V30 3 Cl -1.6385 1.0019 -1.5322 0
M  V30 4 C -0.397 0.282 0.8123 0
M  V30 5 C 0.8861 -0.4615 0.4018 0
M  V30 6 C 1.4759 0.0305 -0.9182 0
M  V30 7 H -1.5944 -1.1021 -0.3949 0
M  V30 8 H -0.631 -0.0331 1.8528 0
M  V30 9 H -0.2154 1.3786 0.8413 0
M  V30 10 H 1.6461 -0.306 1.1981 0
M  V30 11 H 0.6912 -1.554 0.3377 0
M  V30 12 H 2.4843 -0.4123 -1.0591 0
M  V30 13 H 0.8416 -0.2887 -1.7704 0
M  V30 14 H 1.5732 1.137 -0.9152 0
M  V30 END ATOM
M  V30 BEGIN BOND
M  V30 1 1 1 2
M  V30 2 1 2 3
M  V30 3 1 2 4
M  V30 4 1 4 5
M  V30 5 1 5 6
M  V30 6 1 2 7
M  V30 7 1 4 8
M  V30 8 1 4 9
M  V30 9 1 5 10
M  V30 10 1 5 11
M  V30 11 1 6 12
M  V30 12 1 6 13
M  V30 13 1 6 14
M  V30 END BOND
M  V30 END CTAB
M  END
>  <Structure No>
3839

>  <LogS>
-2.4036

>  <MMFF94 Energy>
0.076043

$$$$
Compound 3840
Actelion Java MolfileCreator 2.0

  0  0  0  0  0  0              0 V3000
M  V30 BEGIN CTAB
M  V30 COUNTS 4 3 0 0 0
M  V30 BEGIN ATOM
M  V30 1 O -0.9322 -0.8545 -0.0776 0
M  V30 2 C -0.0553 0.0432 0.01 0
M  V30 3 O 1.2837 -0.2748 -0.1697 0 CHG=-1
M  V30 4 H -0.3447 1.0627 0.2254 0
M  V30 END ATOM
M  V30 BEGIN BOND
M  V30 1 2 1 2
M  V30 2 1 2 3
M  V30 3 1 2 4
M  V30 END BOND
M  V30 END CTAB
M  END
>  <Structure No>
3840

>  <LogS>
-0.0557

>  <MMFF94 Energy>
0.012811

$$$$
Compound 3841
Actelion Java MolfileCreator 2.0

  0  0  0  0  0  0              0 V3000
M  V30 BEGIN CTAB
M  V30 COUNTS 16 15 0 0 0
M  V30 BEGIN ATOM
M  V30 1 O 2.6241 -0.1542 1.3113 0
M  V30 2 C 2.0567 -0.5579 0.2623 0
M  V30 3 O 2.3586 -1.8163 -0.2424 0 CHG=-1
M  V30 4 C 1.0358 0.3006 -0.4204 0
M  V30 5 C -0.3228 0.2742 0.3123 0 CFG=1
M  V30 6 N -1.2246 1.2827 -0.2577 0 CHG=1
M  V30 7 C -0.9735 -1.1167 0.2372 0
M  V30 8 H 0.9087 -0.0374 -1.4719 0
M  V30 9 H 1.4221 1.3426 -0.4504 0
M  V30 10 H -0.1548 0.521 1.3857 0
M  V30 11 H -0.8013 2.2344 -0.1613 0
M  V30 12 H -2.135 1.2796 0.2575 0
M  V30 13 H -1.4018 1.0861 -1.2701 0
M  V30 14 H -1.9555 -1.1063 0.7557 0
M  V30 15 H -0.3339 -1.8742 0.737 0
M  V30 16 H -1.1315 -1.4174 -0.8203 0
M  V30 END ATOM
M  V30 BEGIN BOND
M  V30 1 2 1 2
M  V30 2 1 2 3
M  V30 3 1 2 4
M  V30 4 1 4 5
M  V30 5 1 5 6
M  V30 6 1 5 7
M  V30 7 1 4 8
M  V30 8 1 4 9
M  V30 9 1 5 10
M  V30 10 1 6 11
M  V30 11 1 6 12
M  V30 12 1 6 13
M  V30 13 1 7 14
M  V30 14 1 7 15
M  V30 15 1 7 16
M  V30 END BOND
M  V30 BEGIN COLLECTION
M  V30 MDLV30/STEABS ATOMS=(1 5)
M  V30 END COLLECTION
M  V30 END CTAB
M  END
>  <Structure No>
3841

>  <LogS>
0.9867

>  <MMFF94 Energy>
-103.21

$$$$
Compound 3842
Actelion Java MolfileCreator 2.0

  0  0  0  0  0  0              0 V3000
M  V30 BEGIN CTAB
M  V30 COUNTS 12 11 0 0 0
M  V30 BEGIN ATOM
M  V30 1 O -2.8508 0.3164 -0.1582 0
M  V30 2 C -1.8191 -0.3851 0.0126 0
M  V30 3 O -1.8478 -1.7386 -0.2987 0 CHG=-1
M  V30 4 C -0.5536 0.2431 0.5005 0
M  V30 5 C 0.3117 0.6354 -0.665 0
M  V30 6 O -0.0182 1.5787 -1.3681 0
M  V30 7 C 1.5752 -0.1076 -0.985 0
M  V30 8 H -0.7839 1.1436 1.1102 0
M  V30 9 H -0.025 -0.4782 1.1592 0
M  V30 10 H 2.44 0.5854 -0.9205 0
M  V30 11 H 1.5135 -0.5165 -2.0153 0
M  V30 12 H 1.7395 -0.9496 -0.2805 0
M  V30 END ATOM
M  V30 BEGIN BOND
M  V30 1 2 1 2
M  V30 2 1 2 3
M  V30 3 1 2 4
M  V30 4 1 4 5
M  V30 5 2 5 6
M  V30 6 1 5 7
M  V30 7 1 4 8
M  V30 8 1 4 9
M  V30 9 1 7 10
M  V30 10 1 7 11
M  V30 11 1 7 12
M  V30 END BOND
M  V30 END CTAB
M  END
>  <Structure No>
3842

>  <LogS>
0.991

>  <MMFF94 Energy>
-16.917

$$$$
Compound 3843
Actelion Java MolfileCreator 2.0

  0  0  0  0  0  0              0 V3000
M  V30 BEGIN CTAB
M  V30 COUNTS 12 11 0 0 0
M  V30 BEGIN ATOM
M  V30 1 S 0.6469 -2.0226 -0.1617 0
M  V30 2 C 0.9605 -0.4608 0.2357 0
M  V30 3 N 0.2556 0.6192 -0.3959 0
M  V30 4 N 2.081 -0.1708 1.0716 0
M  V30 5 C -1.0777 0.5186 -0.9176 0
M  V30 6 S -1.5455 1.5244 -2.1215 0
M  V30 7 N -2.0488 -0.3262 -0.2952 0
M  V30 8 H 0.7554 1.5312 -0.4979 0
M  V30 9 H 2.336 0.818 1.2883 0
M  V30 10 H 2.6513 -0.94 1.4882 0
M  V30 11 H -1.8356 -0.8218 0.5979 0
M  V30 12 H -3.0146 -0.4016 -0.6851 0
M  V30 END ATOM
M  V30 BEGIN BOND
M  V30 1 2 1 2
M  V30 2 1 2 3
M  V30 3 1 2 4
M  V30 4 1 3 5
M  V30 5 2 5 6
M  V30 6 1 5 7
M  V30 7 1 3 8
M  V30 8 1 4 9
M  V30 9 1 4 10
M  V30 10 1 7 11
M  V30 11 1 7 12
M  V30 END BOND
M  V30 END CTAB
M  END
>  <Structure No>
3843

>  <LogS>
-1.6996

>  <MMFF94 Energy>
-113.79

$$$$
Compound 3844
Actelion Java MolfileCreator 2.0

  0  0  0  0  0  0              0 V3000
M  V30 BEGIN CTAB
M  V30 COUNTS 15 15 0 0 0
M  V30 BEGIN ATOM
M  V30 1 O -1.4191 2.524 1.1036 0
M  V30 2 C -0.9172 1.4634 0.6482 0
M  V30 3 O 0.4007 1.3733 0.4893 0
M  V30 4 C -1.7438 0.3868 0.3122 0
M  V30 5 C 0.9938 0.28 0.0128 0
M  V30 6 C -1.1595 -0.7787 -0.1912 0
M  V30 7 C 0.2259 -0.8363 -0.3441 0
M  V30 8 C 2.4804 0.2514 -0.1383 0
M  V30 9 O -1.9416 -1.8773 -0.5399 0
M  V30 10 H -2.8175 0.455 0.4397 0
M  V30 11 H 0.6959 -1.7315 -0.7326 0
M  V30 12 H 2.9055 -0.5656 0.4816 0
M  V30 13 H 2.9198 1.2165 0.1914 0
M  V30 14 H 2.7465 0.0821 -1.2027 0
M  V30 15 H -2.9498 -1.8624 -0.439 0
M  V30 END ATOM
M  V30 BEGIN BOND
M  V30 1 2 1 2
M  V30 2 1 2 3
M  V30 3 1 2 4
M  V30 4 1 3 5
M  V30 5 2 4 6
M  V30 6 2 5 7
M  V30 7 1 5 8
M  V30 8 1 6 9
M  V30 9 1 6 7
M  V30 10 1 4 10
M  V30 11 1 7 11
M  V30 12 1 8 12
M  V30 13 1 8 13
M  V30 14 1 8 14
M  V30 15 1 9 15
M  V30 END BOND
M  V30 END CTAB
M  END
>  <Structure No>
3844

>  <LogS>
-1.1185

>  <MMFF94 Energy>
2.6631

$$$$
Compound 3845
Actelion Java MolfileCreator 2.0

  0  0  0  0  0  0              0 V3000
M  V30 BEGIN CTAB
M  V30 COUNTS 18 18 0 0 0
M  V30 BEGIN ATOM
M  V30 1 Cl 3.0678 -0.4032 -0.0806 0
M  V30 2 C 1.3767 -0.0851 0.3931 0
M  V30 3 C 0.8475 1.1417 -0.3642 0
M  V30 4 C 0.5147 -1.3225 0.1013 0
M  V30 5 C -0.6249 1.4045 -0.0229 0
M  V30 6 C -0.9575 -1.0585 0.4424 0
M  V30 7 C -1.4859 0.1684 -0.3113 0
M  V30 8 H 1.3629 0.1231 1.4858 0
M  V30 9 H 1.4488 2.0349 -0.0882 0
M  V30 10 H 0.9499 0.9829 -1.4605 0
M  V30 11 H 0.601 -1.5992 -0.9726 0
M  V30 12 H 0.8795 -2.1793 0.7079 0
M  V30 13 H -0.7161 1.6811 1.0506 0
M  V30 14 H -0.9952 2.2592 -0.6291 0
M  V30 15 H -1.0646 -0.8983 1.538 0
M  V30 16 H -1.5635 -1.9478 0.1657 0
M  V30 17 H -1.4894 -0.0376 -1.4044 0
M  V30 18 H -2.5329 0.3692 0.0026 0
M  V30 END ATOM
M  V30 BEGIN BOND
M  V30 1 1 1 2
M  V30 2 1 2 3
M  V30 3 1 2 4
M  V30 4 1 3 5
M  V30 5 1 4 6
M  V30 6 1 5 7
M  V30 7 1 6 7
M  V30 8 1 2 8
M  V30 9 1 3 9
M  V30 10 1 3 10
M  V30 11 1 4 11
M  V30 12 1 4 12
M  V30 13 1 5 13
M  V30 14 1 5 14
M  V30 15 1 6 15
M  V30 16 1 6 16
M  V30 17 1 7 17
M  V30 18 1 7 18
M  V30 END BOND
M  V30 END CTAB
M  END
>  <Structure No>
3845

>  <LogS>
-2.3752

>  <MMFF94 Energy>
1.4081

$$$$
Compound 3846
Actelion Java MolfileCreator 2.0

  0  0  0  0  0  0              0 V3000
M  V30 BEGIN CTAB
M  V30 COUNTS 21 20 0 0 0
M  V30 BEGIN ATOM
M  V30 1 O -1.5831 -1.5039 -1.9 0
M  V30 2 C -1.8276 -0.5432 -1.1235 0
M  V30 3 O -2.7358 0.4356 -1.5091 0 CHG=-1
M  V30 4 C -1.1345 -0.4537 0.2112 0 CFG=2
M  V30 5 N -2.1284 -0.4625 1.2912 0 CHG=1
M  V30 6 C -0.2563 0.8159 0.3016 0
M  V30 7 C 0.8468 0.9083 -0.7739 0
M  V30 8 C 1.9012 -0.2076 -0.7037 0
M  V30 9 C 2.6354 -0.2049 0.6015 0
M  V30 10 O 2.3512 -1.0499 1.4908 0
M  V30 11 O 3.6108 0.7528 0.8487 0 CHG=-1
M  V30 12 H -0.4859 -1.3478 0.3416 0
M  V30 13 H -2.7136 -1.3275 1.2284 0
M  V30 14 H -2.7494 0.3776 1.231 0
M  V30 15 H -1.6438 -0.4632 2.2184 0
M  V30 16 H 0.2107 0.8684 1.3087 0
M  V30 17 H -0.9062 1.7137 0.2067 0
M  V30 18 H 1.3594 1.8894 -0.6661 0
M  V30 19 H 0.3844 0.9017 -1.784 0
M  V30 20 H 2.6389 -0.0474 -1.5189 0
M  V30 21 H 1.4359 -1.1991 -0.8847 0
M  V30 END ATOM
M  V30 BEGIN BOND
M  V30 1 2 1 2
M  V30 2 1 2 3
M  V30 3 1 2 4
M  V30 4 1 4 5
M  V30 5 1 4 6
M  V30 6 1 6 7
M  V30 7 1 7 8
M  V30 8 1 8 9
M  V30 9 2 9 10
M  V30 10 1 9 11
M  V30 11 1 4 12
M  V30 12 1 5 13
M  V30 13 1 5 14
M  V30 14 1 5 15
M  V30 15 1 6 16
M  V30 16 1 6 17
M  V30 17 1 7 18
M  V30 18 1 7 19
M  V30 19 1 8 20
M  V30 20 1 8 21
M  V30 END BOND
M  V30 BEGIN COLLECTION
M  V30 MDLV30/STEABS ATOMS=(1 4)
M  V30 END COLLECTION
M  V30 END CTAB
M  END
>  <Structure No>
3846

>  <LogS>
-1.8648

>  <MMFF94 Energy>
-16.3

$$$$
Compound 3847
Actelion Java MolfileCreator 2.0

  0  0  0  0  0  0              0 V3000
M  V30 BEGIN CTAB
M  V30 COUNTS 17 16 0 0 0
M  V30 BEGIN ATOM
M  V30 1 O 3.2476 -0.2316 -1.6227 0
M  V30 2 C 3.0359 -0.0413 -0.3952 0
M  V30 3 O 1.7397 -0.0619 0.1242 0
M  V30 4 C 0.5912 -0.2951 -0.6864 0
M  V30 5 C -0.6801 -0.2509 0.1748 0
M  V30 6 C -0.8798 1.139 0.7928 0
M  V30 7 C -1.9053 -0.6431 -0.6588 0
M  V30 8 H 3.8705 0.1408 0.2674 0
M  V30 9 H 0.5358 0.4747 -1.4877 0
M  V30 10 H 0.6831 -1.2963 -1.162 0
M  V30 11 H -0.573 -0.9897 0.9999 0
M  V30 12 H -1.7952 1.15 1.4222 0
M  V30 13 H -0.0171 1.4019 1.4408 0
M  V30 14 H -0.9814 1.9105 -4.0E-4 0
M  V30 15 H -2.0504 0.0671 -1.5012 0
M  V30 16 H -1.7774 -1.6668 -1.0706 0
M  V30 17 H -2.8177 -0.6392 -0.025 0
M  V30 END ATOM
M  V30 BEGIN BOND
M  V30 1 2 1 2
M  V30 2 1 2 3
M  V30 3 1 3 4
M  V30 4 1 4 5
M  V30 5 1 5 6
M  V30 6 1 5 7
M  V30 7 1 2 8
M  V30 8 1 4 9
M  V30 9 1 4 10
M  V30 10 1 5 11
M  V30 11 1 6 12
M  V30 12 1 6 13
M  V30 13 1 6 14
M  V30 14 1 7 15
M  V30 15 1 7 16
M  V30 16 1 7 17
M  V30 END BOND
M  V30 END CTAB
M  END
>  <Structure No>
3847

>  <LogS>
-1.0006

>  <MMFF94 Energy>
-6.2195

$$$$
Compound 3848
Actelion Java MolfileCreator 2.0

  0  0  0  0  0  0              0 V3000
M  V30 BEGIN CTAB
M  V30 COUNTS 9 8 0 0 0
M  V30 BEGIN ATOM
M  V30 1 Cl 2.0341 0.2541 -1.1862 0
M  V30 2 C 1.071 -0.495 0.1147 0
M  V30 3 O -0.2275 -0.8007 -0.3512 0
M  V30 4 C -1.079 0.3197 -0.2242 0
M  V30 5 Cl -1.7907 0.3731 1.4104 0
M  V30 6 H 1.5709 -1.4431 0.4003 0
M  V30 7 H 1.0698 0.1578 1.0178 0
M  V30 8 H -1.9108 0.2095 -0.9498 0
M  V30 9 H -0.5711 1.2845 -0.4548 0
M  V30 END ATOM
M  V30 BEGIN BOND
M  V30 1 1 1 2
M  V30 2 1 2 3
M  V30 3 1 3 4
M  V30 4 1 4 5
M  V30 5 1 2 6
M  V30 6 1 2 7
M  V30 7 1 4 8
M  V30 8 1 4 9
M  V30 END BOND
M  V30 END CTAB
M  END
>  <Structure No>
3848

>  <LogS>
-0.7181

>  <MMFF94 Energy>
-11.343

$$$$
Compound 3849
Actelion Java MolfileCreator 2.0

  0  0  0  0  0  0              0 V3000
M  V30 BEGIN CTAB
M  V30 COUNTS 11 11 0 0 0
M  V30 BEGIN ATOM
M  V30 1 C 0.9296 0.8521 0.3098 0
M  V30 2 C 1.1084 -0.578 0.146 0
M  V30 3 C -0.3339 1.1568 0.0662 0
M  V30 4 C -0.0494 -1.1187 -0.1945 0
M  V30 5 C -1.1083 -0.0701 -0.2852 0
M  V30 6 H 1.6985 1.5611 0.586 0
M  V30 7 H 2.034 -1.1218 0.2786 0
M  V30 8 H -0.7405 2.1583 0.117 0
M  V30 9 H -0.1987 -2.1742 -0.3792 0
M  V30 10 H -1.9138 -0.2558 0.4561 0
M  V30 11 H -1.5106 -0.0021 -1.3178 0
M  V30 END ATOM
M  V30 BEGIN BOND
M  V30 1 1 1 2
M  V30 2 2 1 3
M  V30 3 2 2 4
M  V30 4 1 3 5
M  V30 5 1 4 5
M  V30 6 1 1 6
M  V30 7 1 2 7
M  V30 8 1 3 8
M  V30 9 1 4 9
M  V30 10 1 5 10
M  V30 11 1 5 11
M  V30 END BOND
M  V30 END CTAB
M  END
>  <Structure No>
3849

>  <LogS>
-1.565

>  <MMFF94 Energy>
10.589

$$$$
Compound 3850
Actelion Java MolfileCreator 2.0

  0  0  0  0  0  0              0 V3000
M  V30 BEGIN CTAB
M  V30 COUNTS 19 18 0 0 0
M  V30 BEGIN ATOM
M  V30 1 S 2.916 0.9712 -1.0522 0
M  V30 2 O 2.8412 2.3247 -0.4032 0
M  V30 3 O 3.6588 1.0852 -2.353 0
M  V30 4 O 3.7333 -0.0898 -0.0383 0 CHG=-1
M  V30 5 C 1.2691 0.3586 -1.3649 0
M  V30 6 C 0.4893 0.2023 -0.0578 0
M  V30 7 N -0.8616 -0.3018 -0.3128 0
M  V30 8 C -1.8262 -0.5489 0.7266 0
M  V30 9 N -1.5447 -0.3329 1.9785 0 CHG=1
M  V30 10 N -3.1208 -1.0425 0.3699 0
M  V30 11 H 1.3449 -0.6246 -1.8763 0
M  V30 12 H 0.7421 1.0717 -2.0343 0
M  V30 13 H 1.0265 -0.5108 0.6042 0
M  V30 14 H 0.4212 1.1905 0.4468 0
M  V30 15 H -1.1531 -0.4965 -1.298 0
M  V30 16 H -2.2553 -0.5171 2.7216 0
M  V30 17 H -0.6159 0.0261 2.2883 0
M  V30 18 H -3.844 -1.2323 1.0992 0
M  V30 19 H -3.3622 -1.2207 -0.6299 0
M  V30 END ATOM
M  V30 BEGIN BOND
M  V30 1 2 1 2
M  V30 2 2 1 3
M  V30 3 1 1 4
M  V30 4 1 1 5
M  V30 5 1 5 6
M  V30 6 1 6 7
M  V30 7 1 7 8
M  V30 8 2 8 9
M  V30 9 1 8 10
M  V30 10 1 5 11
M  V30 11 1 5 12
M  V30 12 1 6 13
M  V30 13 1 6 14
M  V30 14 1 7 15
M  V30 15 1 9 16
M  V30 16 1 9 17
M  V30 17 1 10 18
M  V30 18 1 10 19
M  V30 END BOND
M  V30 END CTAB
M  END
>  <Structure No>
3850

>  <LogS>
-0.6321

>  <MMFF94 Energy>
-250.74

$$$$
Compound 3851
Actelion Java MolfileCreator 2.0

  0  0  0  0  0  0              0 V3000
M  V30 BEGIN CTAB
M  V30 COUNTS 17 16 0 0 0
M  V30 BEGIN ATOM
M  V30 1 O 2.2724 1.4883 -0.7048 0
M  V30 2 N 2.6003 0.5092 -0.0025 0 CHG=1
M  V30 3 O 1.8138 -0.626 0.0583 0
M  V30 4 O 3.7866 0.5433 0.6901 0 CHG=-1
M  V30 5 C 0.5466 -0.7301 -0.5916 0
M  V30 6 C -0.5998 -0.3624 0.3683 0
M  V30 7 C -0.536 1.1099 0.7938 0
M  V30 8 C -1.9547 -0.6642 -0.2837 0
M  V30 9 H 0.4205 -1.7871 -0.9099 0
M  V30 10 H 0.517 -0.1053 -1.511 0
M  V30 11 H -0.5105 -0.9929 1.2806 0
M  V30 12 H -1.3984 1.3579 1.449 0
M  V30 13 H -0.5594 1.7771 -0.0945 0
M  V30 14 H 0.3897 1.3054 1.3737 0
M  V30 15 H -2.7812 -0.4361 0.423 0
M  V30 16 H -2.0213 -1.7401 -0.5521 0
M  V30 17 H -2.0909 -0.0555 -1.2037 0
M  V30 END ATOM
M  V30 BEGIN BOND
M  V30 1 2 1 2
M  V30 2 1 2 3
M  V30 3 1 2 4
M  V30 4 1 3 5
M  V30 5 1 5 6
M  V30 6 1 6 7
M  V30 7 1 6 8
M  V30 8 1 5 9
M  V30 9 1 5 10
M  V30 10 1 6 11
M  V30 11 1 7 12
M  V30 12 1 7 13
M  V30 13 1 7 14
M  V30 14 1 8 15
M  V30 15 1 8 16
M  V30 16 1 8 17
M  V30 END BOND
M  V30 END CTAB
M  END
>  <Structure No>
3851

>  <LogS>
-1.9521

>  <MMFF94 Energy>
-12.618

$$$$
Compound 3852
Actelion Java MolfileCreator 2.0

  0  0  0  0  0  0              0 V3000
M  V30 BEGIN CTAB
M  V30 COUNTS 17 16 0 0 0
M  V30 BEGIN ATOM
M  V30 1 Cl -2.9134 1.0229 -1.259 0
M  V30 2 C -2.5569 -0.005 0.1554 0
M  V30 3 C -1.2102 -0.7162 0.0023 0
M  V30 4 C -0.0291 0.2591 0.1037 0
M  V30 5 C 1.3067 -0.4832 -0.0148 0
M  V30 6 C 2.4847 0.4817 0.0838 0
M  V30 7 H -3.3622 -0.7649 0.2408 0
M  V30 8 H -2.5666 0.616 1.0765 0
M  V30 9 H -1.1829 -1.2465 -0.9747 0
M  V30 10 H -1.123 -1.4772 0.8086 0
M  V30 11 H -0.0702 0.7866 1.0823 0
M  V30 12 H -0.0986 1.0154 -0.7081 0
M  V30 13 H 1.3561 -1.012 -0.9917 0
M  V30 14 H 1.3907 -1.237 0.7983 0
M  V30 15 H 2.4392 1.2314 -0.7345 0
M  V30 16 H 2.4729 1.0061 1.0632 0
M  V30 17 H 3.4364 -0.0833 -0.0046 0
M  V30 END ATOM
M  V30 BEGIN BOND
M  V30 1 1 1 2
M  V30 2 1 2 3
M  V30 3 1 3 4
M  V30 4 1 4 5
M  V30 5 1 5 6
M  V30 6 1 2 7
M  V30 7 1 2 8
M  V30 8 1 3 9
M  V30 9 1 3 10
M  V30 10 1 4 11
M  V30 11 1 4 12
M  V30 12 1 5 13
M  V30 13 1 5 14
M  V30 14 1 6 15
M  V30 15 1 6 16
M  V30 16 1 6 17
M  V30 END BOND
M  V30 END CTAB
M  END
>  <Structure No>
3852

>  <LogS>
-2.7324

>  <MMFF94 Energy>
-2.7637

$$$$
Compound 3853
Actelion Java MolfileCreator 2.0

  0  0  0  0  0  0              0 V3000
M  V30 BEGIN CTAB
M  V30 COUNTS 7 6 0 0 0
M  V30 BEGIN ATOM
M  V30 1 O 1.5571 -0.934 -0.0778 0
M  V30 2 C 0.8242 0.0894 -0.0653 0
M  V30 3 O 1.4034 1.3519 -0.0684 0 CHG=-1
M  V30 4 C -0.6582 -0.0523 0.011 0
M  V30 5 H -1.1476 0.8593 -0.391 0
M  V30 6 H -0.9623 -0.1926 1.0692 0
M  V30 7 H -0.9885 -0.9291 -0.5848 0
M  V30 END ATOM
M  V30 BEGIN BOND
M  V30 1 2 1 2
M  V30 2 1 2 3
M  V30 3 1 2 4
M  V30 4 1 4 5
M  V30 5 1 4 6
M  V30 6 1 4 7
M  V30 END BOND
M  V30 END CTAB
M  END
>  <Structure No>
3853

>  <LogS>
0.1948

>  <MMFF94 Energy>
1.0491

$$$$
Compound 3854
Actelion Java MolfileCreator 2.0

  0  0  0  0  0  0              0 V3000
M  V30 BEGIN CTAB
M  V30 COUNTS 22 21 0 0 0
M  V30 BEGIN ATOM
M  V30 1 O 0.0 -2.3979 -2.243 0
M  V30 2 C 0.7396 -2.6403 -1.251 0
M  V30 3 O 0.8156 -1.7441 -0.1815 0
M  V30 4 N 1.5069 -3.8403 -1.2183 0
M  V30 5 C 0.078 -0.5264 -0.1454 0
M  V30 6 C 0.3908 0.2141 1.1597 0
M  V30 7 C -0.348 1.5625 1.3308 0
M  V30 8 C 0.0441 2.5868 0.2575 0
M  V30 9 C -1.8719 1.3926 1.3944 0
M  V30 10 H 1.4613 -4.5202 -2.0093 0
M  V30 11 H 2.1214 -4.0477 -0.4005 0
M  V30 12 H -1.006 -0.7598 -0.2028 0
M  V30 13 H 0.3675 0.0962 -1.0179 0
M  V30 14 H 0.1326 -0.448 2.0151 0
M  V30 15 H 1.4867 0.396 1.2115 0
M  V30 16 H -0.0259 1.9791 2.3112 0
M  V30 17 H -0.3669 3.5847 0.5209 0
M  V30 18 H -0.3556 2.2991 -0.7373 0
M  V30 19 H 1.1495 2.6747 0.1936 0
M  V30 20 H -2.3456 2.3514 1.6952 0
M  V30 21 H -2.1432 0.6224 2.1474 0
M  V30 22 H -2.2845 1.0969 0.4072 0
M  V30 END ATOM
M  V30 BEGIN BOND
M  V30 1 2 1 2
M  V30 2 1 2 3
M  V30 3 1 2 4
M  V30 4 1 3 5
M  V30 5 1 5 6
M  V30 6 1 6 7
M  V30 7 1 7 8
M  V30 8 1 7 9
M  V30 9 1 4 10
M  V30 10 1 4 11
M  V30 11 1 5 12
M  V30 12 1 5 13
M  V30 13 1 6 14
M  V30 14 1 6 15
M  V30 15 1 7 16
M  V30 16 1 8 17
M  V30 17 1 8 18
M  V30 18 1 8 19
M  V30 19 1 9 20
M  V30 20 1 9 21
M  V30 21 1 9 22
M  V30 END BOND
M  V30 END CTAB
M  END
>  <Structure No>
3854

>  <LogS>
-1.4403

>  <MMFF94 Energy>
-69.707

$$$$
Compound 3855
Actelion Java MolfileCreator 2.0

  0  0  0  0  0  0              0 V3000
M  V30 BEGIN CTAB
M  V30 COUNTS 20 19 0 0 0
M  V30 BEGIN ATOM
M  V30 1 O 3.92 -1.018 -1.0963 0
M  V30 2 N 3.2739 -0.0218 -0.716 0 CHG=1
M  V30 3 O 2.0724 -0.1997 -0.062 0
M  V30 4 O 3.7684 1.2398 -0.9557 0 CHG=-1
M  V30 5 C 1.296 0.904 0.3901 0
M  V30 6 C 0.0209 0.4112 1.0821 0
M  V30 7 C -0.8746 -0.4697 0.1801 0
M  V30 8 C -2.0026 -1.0924 1.0127 0
M  V30 9 C -1.4705 0.3261 -0.9908 0
M  V30 10 H 1.8927 1.4942 1.1186 0
M  V30 11 H 1.0465 1.5678 -0.4636 0
M  V30 12 H 0.3267 -0.1729 1.9779 0
M  V30 13 H -0.5566 1.2911 1.4416 0
M  V30 14 H -0.2678 -1.3039 -0.2357 0
M  V30 15 H -2.6289 -1.7556 0.3785 0
M  V30 16 H -2.6481 -0.3013 1.4519 0
M  V30 17 H -1.5792 -1.7076 1.835 0
M  V30 18 H -2.1751 -0.3092 -1.5687 0
M  V30 19 H -0.6728 0.6512 -1.6896 0
M  V30 20 H -2.0181 1.2194 -0.6209 0
M  V30 END ATOM
M  V30 BEGIN BOND
M  V30 1 2 1 2
M  V30 2 1 2 3
M  V30 3 1 2 4
M  V30 4 1 3 5
M  V30 5 1 5 6
M  V30 6 1 6 7
M  V30 7 1 7 8
M  V30 8 1 7 9
M  V30 9 1 5 10
M  V30 10 1 5 11
M  V30 11 1 6 12
M  V30 12 1 6 13
M  V30 13 1 7 14
M  V30 14 1 8 15
M  V30 15 1 8 16
M  V30 16 1 8 17
M  V30 17 1 9 18
M  V30 18 1 9 19
M  V30 19 1 9 20
M  V30 END BOND
M  V30 END CTAB
M  END
>  <Structure No>
3855

>  <LogS>
-2.4809

>  <MMFF94 Energy>
-12.101

$$$$
Compound 3856
Actelion Java MolfileCreator 2.0

  0  0  0  0  0  0              0 V3000
M  V30 BEGIN CTAB
M  V30 COUNTS 7 6 0 0 0
M  V30 BEGIN ATOM
M  V30 1 O 1.479 -1.0896 -0.1556 0
M  V30 2 C 0.8547 -0.0028 -0.038 0
M  V30 3 O 1.5599 1.1886 0.0702 0 CHG=-1
M  V30 4 C -0.634 -1.0E-4 0.043 0
M  V30 5 H -1.0538 -0.7783 -0.6284 0
M  V30 6 H -0.9481 -0.2084 1.0868 0
M  V30 7 H -1.0287 0.9905 -0.2655 0
M  V30 END ATOM
M  V30 BEGIN BOND
M  V30 1 2 1 2
M  V30 2 1 2 3
M  V30 3 1 2 4
M  V30 4 1 4 5
M  V30 5 1 4 6
M  V30 6 1 4 7
M  V30 END BOND
M  V30 END CTAB
M  END
>  <Structure No>
3856

>  <LogS>
0.1446

>  <MMFF94 Energy>
1.0491

$$$$
Compound 3857
Actelion Java MolfileCreator 2.0

  0  0  0  0  0  0              0 V3000
M  V30 BEGIN CTAB
M  V30 COUNTS 13 12 0 0 0
M  V30 BEGIN ATOM
M  V30 1 N -2.8922 -0.2342 -1.0936 0
M  V30 2 C -1.8764 -0.6427 -0.7187 0
M  V30 3 C -0.5869 -1.1611 -0.2433 0
M  V30 4 C 0.101 -0.1727 0.7107 0
M  V30 5 C 0.5592 1.1228 0.0236 0
M  V30 6 C 1.6486 0.8718 -0.9289 0
M  V30 7 N 2.5067 0.674 -1.6797 0
M  V30 8 H -0.7727 -2.1136 0.2964 0
M  V30 9 H 0.0639 -1.3835 -1.1148 0
M  V30 10 H -0.5979 0.0853 1.5369 0
M  V30 11 H 0.9806 -0.6721 1.1739 0
M  V30 12 H 0.9287 1.8296 0.7963 0
M  V30 13 H -0.2881 1.6075 -0.5054 0
M  V30 END ATOM
M  V30 BEGIN BOND
M  V30 1 3 1 2
M  V30 2 1 2 3
M  V30 3 1 3 4
M  V30 4 1 4 5
M  V30 5 1 5 6
M  V30 6 3 6 7
M  V30 7 1 3 8
M  V30 8 1 3 9
M  V30 9 1 4 10
M  V30 10 1 4 11
M  V30 11 1 5 12
M  V30 12 1 5 13
M  V30 END BOND
M  V30 END CTAB
M  END
>  <Structure No>
3857

>  <LogS>
1.0263

>  <MMFF94 Energy>
-4.4429

$$$$
Compound 3858
Actelion Java MolfileCreator 2.0

  0  0  0  0  0  0              0 V3000
M  V30 BEGIN CTAB
M  V30 COUNTS 50 49 0 0 0
M  V30 BEGIN ATOM
M  V30 1 C -0.5433 1.9415 0.5433 0
M  V30 2 C 0.0065 0.6057 0.0201 0
M  V30 3 C -2.0766 2.0148 0.468 0
M  V30 4 C 1.5399 0.6061 0.0186 0
M  V30 5 C -2.7617 1.2055 1.5836 0
M  V30 6 C 2.0899 -0.7346 -0.4904 0
M  V30 7 C -4.3001 1.2396 1.4632 0
M  V30 8 C 3.621 -0.7329 -0.6228 0
M  V30 9 C -4.902 -0.0528 0.8847 0
M  V30 10 C 4.3321 -0.6885 0.7397 0
M  V30 11 C -4.5078 -0.2903 -0.5821 0
M  V30 12 C 5.8379 -0.9852 0.6375 0
M  V30 13 C -5.1813 -1.5362 -1.1784 0
M  V30 14 C 6.633 0.1049 -0.1107 0
M  V30 15 C -6.6654 -1.3226 -1.4765 0
M  V30 16 C 6.96 -0.2948 -1.5495 0
M  V30 17 H -0.1289 2.7648 -0.0791 0
M  V30 18 H -0.2065 2.1093 1.5901 0
M  V30 19 H -0.3609 0.4363 -1.0159 0
M  V30 20 H -0.3509 -0.2274 0.6614 0
M  V30 21 H -2.3768 3.0804 0.5757 0
M  V30 22 H -2.4188 1.6792 -0.5332 0
M  V30 23 H 1.9065 1.4281 -0.6349 0
M  V30 24 H 1.8994 0.7883 1.0542 0
M  V30 25 H -2.4003 0.156 1.5901 0
M  V30 26 H -2.4722 1.6516 2.5607 0
M  V30 27 H 1.6593 -0.9414 -1.4949 0
M  V30 28 H 1.7711 -1.5569 0.1873 0
M  V30 29 H -4.7243 1.3733 2.4827 0
M  V30 30 H -4.6405 2.1143 0.8659 0
M  V30 31 H 3.9331 0.1353 -1.2417 0
M  V30 32 H 3.9188 -1.6613 -1.1575 0
M  V30 33 H -4.5865 -0.9207 1.5045 0
M  V30 34 H -6.0062 0.0308 0.9628 0
M  V30 35 H 3.8799 -1.4509 1.4113 0
M  V30 36 H 4.1876 0.306 1.2138 0
M  V30 37 H -4.7554 0.6034 -1.1956 0
M  V30 38 H -3.4098 -0.4496 -0.6365 0
M  V30 39 H 6.2319 -1.0472 1.6757 0
M  V30 40 H 5.9982 -1.9875 0.1821 0
M  V30 41 H -4.6703 -1.7874 -2.1332 0
M  V30 42 H -5.0585 -2.404 -0.4944 0
M  V30 43 H 7.5955 0.2751 0.4196 0
M  V30 44 H 6.0854 1.0725 -0.1092 0
M  V30 45 H -7.0638 -2.2084 -2.0148 0
M  V30 46 H -6.8088 -0.4271 -2.1179 0
M  V30 47 H -7.2444 -1.2023 -0.5379 0
M  V30 48 H 6.0356 -0.4771 -2.1337 0
M  V30 49 H 7.5302 0.5221 -2.0399 0
M  V30 50 H 7.5831 -1.2143 -1.5601 0
M  V30 END ATOM
M  V30 BEGIN BOND
M  V30 1 1 1 2
M  V30 2 1 1 3
M  V30 3 1 2 4
M  V30 4 1 3 5
M  V30 5 1 4 6
M  V30 6 1 5 7
M  V30 7 1 6 8
M  V30 8 1 7 9
M  V30 9 1 8 10
M  V30 10 1 9 11
M  V30 11 1 10 12
M  V30 12 1 11 13
M  V30 13 1 12 14
M  V30 14 1 13 15
M  V30 15 1 14 16
M  V30 16 1 1 17
M  V30 17 1 1 18
M  V30 18 1 2 19
M  V30 19 1 2 20
M  V30 20 1 3 21
M  V30 21 1 3 22
M  V30 22 1 4 23
M  V30 23 1 4 24
M  V30 24 1 5 25
M  V30 25 1 5 26
M  V30 26 1 6 27
M  V30 27 1 6 28
M  V30 28 1 7 29
M  V30 29 1 7 30
M  V30 30 1 8 31
M  V30 31 1 8 32
M  V30 32 1 9 33
M  V30 33 1 9 34
M  V30 34 1 10 35
M  V30 35 1 10 36
M  V30 36 1 11 37
M  V30 37 1 11 38
M  V30 38 1 12 39
M  V30 39 1 12 40
M  V30 40 1 13 41
M  V30 41 1 13 42
M  V30 42 1 14 43
M  V30 43 1 14 44
M  V30 44 1 15 45
M  V30 45 1 15 46
M  V30 46 1 15 47
M  V30 47 1 16 48
M  V30 48 1 16 49
M  V30 49 1 16 50
M  V30 END BOND
M  V30 END CTAB
M  END
>  <Structure No>
3858

>  <LogS>
-8.4007

>  <MMFF94 Energy>
-6.6789

$$$$
Compound 3859
Actelion Java MolfileCreator 2.0

  0  0  0  0  0  0              0 V3000
M  V30 BEGIN CTAB
M  V30 COUNTS 34 35 0 0 0
M  V30 BEGIN ATOM
M  V30 1 S -0.998 -1.6637 2.3298 0
M  V30 2 O -2.0411 -2.5837 2.8979 0
M  V30 3 O -0.0296 -1.2911 3.4177 0
M  V30 4 N -0.1399 -2.4836 1.0634 0
M  V30 5 C -1.7962 -0.2317 1.6877 0
M  V30 6 C 0.8146 -1.8451 0.1967 0
M  V30 7 C -1.8584 0.9466 2.4441 0
M  V30 8 C -2.3704 -0.2655 0.41 0
M  V30 9 C 1.2657 -2.527 -0.9441 0
M  V30 10 C 1.3124 -0.5544 0.4594 0
M  V30 11 C -2.4819 2.0843 1.9227 0
M  V30 12 C -2.993 0.872 -0.1119 0
M  V30 13 C 2.1853 -1.9316 -1.8118 0
M  V30 14 C 2.2318 0.0394 -0.4098 0
M  V30 15 C -3.0506 2.0531 0.6414 0
M  V30 16 C 2.6756 -0.6474 -1.5459 0
M  V30 17 N -3.6852 3.2177 0.1068 0
M  V30 18 S 3.8178 0.1128 -2.6495 0
M  V30 19 O 4.6419 -0.94 -3.3358 0
M  V30 20 O 4.7383 1.0199 -1.8823 0
M  V30 21 N 2.9566 1.0321 -3.8329 0
M  V30 22 H -0.4039 -3.4778 0.8815 0
M  V30 23 H -1.4235 0.9872 3.4343 0
M  V30 24 H -2.3324 -1.1703 -0.1829 0
M  V30 25 H 0.8963 -3.5201 -1.1667 0
M  V30 26 H 1.0014 6.0E-4 1.3322 0
M  V30 27 H -2.5209 2.9894 2.5157 0
M  V30 28 H -3.4293 0.8335 -1.102 0
M  V30 29 H 2.5102 -2.471 -2.6921 0
M  V30 30 H 2.596 1.0364 -0.1962 0
M  V30 31 H -4.1087 3.2049 -0.8477 0
M  V30 32 H -3.7314 4.1029 0.6594 0
M  V30 33 H 2.3701 1.7237 -3.3141 0
M  V30 34 H 2.2976 0.3758 -4.3086 0
M  V30 END ATOM
M  V30 BEGIN BOND
M  V30 1 2 1 2
M  V30 2 2 1 3
M  V30 3 1 1 4
M  V30 4 1 1 5
M  V30 5 1 4 6
M  V30 6 2 5 7
M  V30 7 1 5 8
M  V30 8 2 6 9
M  V30 9 1 6 10
M  V30 10 1 7 11
M  V30 11 2 8 12
M  V30 12 1 9 13
M  V30 13 2 10 14
M  V30 14 2 11 15
M  V30 15 2 13 16
M  V30 16 1 15 17
M  V30 17 1 16 18
M  V30 18 2 18 19
M  V30 19 2 18 20
M  V30 20 1 18 21
M  V30 21 1 12 15
M  V30 22 1 14 16
M  V30 23 1 4 22
M  V30 24 1 7 23
M  V30 25 1 8 24
M  V30 26 1 9 25
M  V30 27 1 10 26
M  V30 28 1 11 27
M  V30 29 1 12 28
M  V30 30 1 13 29
M  V30 31 1 14 30
M  V30 32 1 17 31
M  V30 33 1 17 32
M  V30 34 1 21 33
M  V30 35 1 21 34
M  V30 END BOND
M  V30 END CTAB
M  END
>  <Structure No>
3859

>  <LogS>
-2.7592

>  <MMFF94 Energy>
-87.134

$$$$
Compound 3860
Actelion Java MolfileCreator 2.0

  0  0  0  0  0  0              0 V3000
M  V30 BEGIN CTAB
M  V30 COUNTS 15 14 0 0 0
M  V30 BEGIN ATOM
M  V30 1 O 0.6174 1.5442 0.849 0
M  V30 2 C 0.3458 0.4248 0.3346 0
M  V30 3 O 1.2779 -0.2304 -0.476 0
M  V30 4 C -1.0013 -0.1902 0.5606 0 CFG=2
M  V30 5 C 2.5662 0.3062 -0.7497 0
M  V30 6 O -0.8425 -1.5559 0.8394 0
M  V30 7 C -1.8745 -0.0062 -0.6809 0
M  V30 8 H -1.4901 0.3166 1.4258 0
M  V30 9 H 3.1191 -0.392 -1.4106 0
M  V30 10 H 3.1342 0.4326 0.1963 0
M  V30 11 H 2.4685 1.2863 -1.2628 0
M  V30 12 H -1.6966 -1.8686 1.2379 0
M  V30 13 H -2.8818 -0.4384 -0.5014 0
M  V30 14 H -1.4187 -0.5163 -1.5567 0
M  V30 15 H -1.993 1.0745 -0.9106 0
M  V30 END ATOM
M  V30 BEGIN BOND
M  V30 1 2 1 2
M  V30 2 1 2 3
M  V30 3 1 2 4
M  V30 4 1 3 5
M  V30 5 1 4 6
M  V30 6 1 4 7
M  V30 7 1 4 8
M  V30 8 1 5 9
M  V30 9 1 5 10
M  V30 10 1 5 11
M  V30 11 1 6 12
M  V30 12 1 7 13
M  V30 13 1 7 14
M  V30 14 1 7 15
M  V30 END BOND
M  V30 BEGIN COLLECTION
M  V30 MDLV30/STEABS ATOMS=(1 4)
M  V30 END COLLECTION
M  V30 END CTAB
M  END
>  <Structure No>
3860

>  <LogS>
0.9825

>  <MMFF94 Energy>
25.672

$$$$
Compound 3861
Actelion Java MolfileCreator 2.0

  0  0  0  0  0  0              0 V3000
M  V30 BEGIN CTAB
M  V30 COUNTS 13 13 0 0 0
M  V30 BEGIN ATOM
M  V30 1 O 1.2684 2.2999 0.0 0
M  V30 2 C 0.4187 1.3706 -0.0055 0
M  V30 3 O -0.9424 1.5787 0.0012 0
M  V30 4 C 0.7134 -0.0388 -0.0197 0
M  V30 5 C -1.6509 0.3412 -0.0076 0
M  V30 6 C 1.924 -0.5913 -0.0292 0
M  V30 7 C -0.5812 -0.778 -0.022 0
M  V30 8 H -2.291 0.2844 -0.9138 0
M  V30 9 H -2.2845 0.2674 0.9018 0
M  V30 10 H 2.0329 -1.6681 -0.0397 0
M  V30 11 H 2.8137 0.0254 -0.0267 0
M  V30 12 H -0.6636 -1.4155 0.8847 0
M  V30 13 H -0.6702 -1.3984 -0.9397 0
M  V30 END ATOM
M  V30 BEGIN BOND
M  V30 1 2 1 2
M  V30 2 1 2 3
M  V30 3 1 2 4
M  V30 4 1 3 5
M  V30 5 2 4 6
M  V30 6 1 4 7
M  V30 7 1 5 7
M  V30 8 1 5 8
M  V30 9 1 5 9
M  V30 10 1 6 10
M  V30 11 1 6 11
M  V30 12 1 7 12
M  V30 13 1 7 13
M  V30 END BOND
M  V30 END CTAB
M  END
>  <Structure No>
3861

>  <LogS>
0.1844

>  <MMFF94 Energy>
9.3572

$$$$
Compound 3862
Actelion Java MolfileCreator 2.0

  0  0  0  0  0  0              0 V3000
M  V30 BEGIN CTAB
M  V30 COUNTS 68 71 0 0 0
M  V30 BEGIN ATOM
M  V30 1 O 7.2893 -2.3444 0.7271 0
M  V30 2 C 7.0041 -1.3775 1.4825 0
M  V30 3 O 7.9841 -0.4511 1.8146 0 CHG=-1
M  V30 4 C 5.6009 -1.1952 1.9795 0
M  V30 5 C 4.804 -0.2914 1.0254 0
M  V30 6 C 3.3735 0.0094 1.5523 0 CFG=2
M  V30 7 C 2.3078 0.3307 0.4374 0 CFG=2
M  V30 8 C 3.4311 1.1676 2.573 0
M  V30 9 C 1.5439 -0.8624 -0.2144 0 CFG=2
M  V30 10 C 2.7979 1.1856 -0.7276 0
M  V30 11 C 0.9682 -0.2699 -1.5432 0 CFG=2
M  V30 12 C 0.4352 -1.4083 0.7266 0
M  V30 13 C 2.4854 -2.0435 -0.5667 0
M  V30 14 C 1.6995 1.0763 -1.7755 0
M  V30 15 C -0.5863 -0.102 -1.5766 0 CFG=1
M  V30 16 C -0.7455 -0.4494 0.977 0
M  V30 17 C -1.3225 -1.3766 -2.0881 0 CFG=2
M  V30 18 C -1.1472 0.4437 -0.238 0 CFG=2
M  V30 19 O -1.5858 -1.2224 -3.4616 0
M  V30 20 C -2.6438 -1.6903 -1.3328 0 CFG=2
M  V30 21 C -2.6946 0.7712 -0.3584 0 CFG=1
M  V30 22 O -3.3964 -2.6076 -2.0916 0
M  V30 23 C -3.4968 -0.4236 -1.0328 0 CFG=2
M  V30 24 C -3.281 1.1551 1.048 0
M  V30 25 C -2.8515 2.0453 -1.252 0
M  V30 26 C -4.7601 -0.8196 -0.2264 0
M  V30 27 C -4.8038 1.4038 1.051 0
M  V30 28 C -5.5858 0.4237 0.1372 0 CFG=2
M  V30 29 O -6.813 0.0378 0.6989 0
M  V30 30 H 5.109 -2.1883 2.0431 0
M  V30 31 H 5.6349 -0.7647 2.9995 0
M  V30 32 H 4.7757 -0.7952 0.0455 0
M  V30 33 H 5.3532 0.6624 0.8651 0
M  V30 34 H 3.0111 -0.8774 2.1139 0
M  V30 35 H 1.5317 0.9599 0.9256 0
M  V30 36 H 4.1067 0.9246 3.4193 0
M  V30 37 H 3.7929 2.0995 2.0906 0
M  V30 38 H 2.425 1.3631 3.0034 0
M  V30 39 H 2.9541 2.2429 -0.4197 0
M  V30 40 H 3.7398 0.7949 -1.1607 0
M  V30 41 H 1.2417 -0.9178 -2.4092 0
M  V30 42 H 0.0281 -2.3585 0.3152 0
M  V30 43 H 0.8818 -1.6798 1.7129 0
M  V30 44 H 2.9634 -2.4696 0.3386 0
M  V30 45 H 3.2661 -1.7373 -1.2928 0
M  V30 46 H 1.9088 -2.8643 -1.0468 0
M  V30 47 H 1.0167 1.9456 -1.6696 0
M  V30 48 H 2.1384 1.1203 -2.7951 0
M  V30 49 H -0.7706 0.6771 -2.3438 0
M  V30 50 H -1.5874 -1.0823 1.3276 0
M  V30 51 H -0.5007 0.2066 1.8438 0
M  V30 52 H -0.6548 -2.2575 -1.9482 0
M  V30 53 H -0.6318 1.4125 -0.0523 0
M  V30 54 H -1.5672 -2.1259 -3.8734 0
M  V30 55 H -2.3625 -2.1725 -0.3731 0
M  V30 56 H -3.787 -3.2727 -1.468 0
M  V30 57 H -3.8718 -0.0859 -2.0276 0
M  V30 58 H -2.7655 2.0584 1.4452 0
M  V30 59 H -3.1097 0.3542 1.7909 0
M  V30 60 H -2.2129 2.8738 -0.8803 0
M  V30 61 H -2.5736 1.8651 -2.3108 0
M  V30 62 H -3.8902 2.4196 -1.2647 0
M  V30 63 H -4.4706 -1.3563 0.7025 0
M  V30 64 H -5.3978 -1.5049 -0.8278 0
M  V30 65 H -5.0286 2.4547 0.7583 0
M  V30 66 H -5.1465 1.3139 2.1059 0
M  V30 67 H -5.8217 0.9502 -0.811 0
M  V30 68 H -6.6784 -0.1652 1.6655 0
M  V30 END ATOM
M  V30 BEGIN BOND
M  V30 1 2 1 2
M  V30 2 1 2 3
M  V30 3 1 2 4
M  V30 4 1 4 5
M  V30 5 1 5 6
M  V30 6 1 6 7
M  V30 7 1 6 8
M  V30 8 1 7 9
M  V30 9 1 7 10
M  V30 10 1 9 11
M  V30 11 1 9 12
M  V30 12 1 9 13
M  V30 13 1 10 14
M  V30 14 1 11 15
M  V30 15 1 12 16
M  V30 16 1 15 17
M  V30 17 1 15 18
M  V30 18 1 17 19
M  V30 19 1 17 20
M  V30 20 1 18 21
M  V30 21 1 20 22
M  V30 22 1 20 23
M  V30 23 1 21 24
M  V30 24 1 21 25
M  V30 25 1 23 26
M  V30 26 1 24 27
M  V30 27 1 26 28
M  V30 28 1 28 29
M  V30 29 1 11 14
M  V30 30 1 16 18
M  V30 31 1 21 23
M  V30 32 1 27 28
M  V30 33 1 4 30
M  V30 34 1 4 31
M  V30 35 1 5 32
M  V30 36 1 5 33
M  V30 37 1 6 34
M  V30 38 1 7 35
M  V30 39 1 8 36
M  V30 40 1 8 37
M  V30 41 1 8 38
M  V30 42 1 10 39
M  V30 43 1 10 40
M  V30 44 1 11 41
M  V30 45 1 12 42
M  V30 46 1 12 43
M  V30 47 1 13 44
M  V30 48 1 13 45
M  V30 49 1 13 46
M  V30 50 1 14 47
M  V30 51 1 14 48
M  V30 52 1 15 49
M  V30 53 1 16 50
M  V30 54 1 16 51
M  V30 55 1 17 52
M  V30 56 1 18 53
M  V30 57 1 19 54
M  V30 58 1 20 55
M  V30 59 1 22 56
M  V30 60 1 23 57
M  V30 61 1 24 58
M  V30 62 1 24 59
M  V30 63 1 25 60
M  V30 64 1 25 61
M  V30 65 1 25 62
M  V30 66 1 26 63
M  V30 67 1 26 64
M  V30 68 1 27 65
M  V30 69 1 27 66
M  V30 70 1 28 67
M  V30 71 1 29 68
M  V30 END BOND
M  V30 BEGIN COLLECTION
M  V30 MDLV30/STEABS ATOMS=(11 6 7 9 11 15 17 18 20 21 23 28)
M  V30 END COLLECTION
M  V30 END CTAB
M  END
>  <Structure No>
3862

>  <LogS>
-4.3465

>  <MMFF94 Energy>
114.79

$$$$
Compound 3863
Actelion Java MolfileCreator 2.0

  0  0  0  0  0  0              0 V3000
M  V30 BEGIN CTAB
M  V30 COUNTS 44 47 0 0 0
M  V30 BEGIN ATOM
M  V30 1 O -2.0429 0.9802 -1.7976 0
M  V30 2 C -2.2617 -0.0129 -1.0557 0
M  V30 3 O -3.0318 -0.9884 -1.5258 0
M  V30 4 C -1.6971 -0.1 0.2444 0
M  V30 5 C -3.3137 -2.0863 -0.837 0
M  V30 6 C -1.9706 -1.2635 0.9939 0
M  V30 7 C -0.7858 0.9675 0.8605 0
M  V30 8 C -2.788 -2.2682 0.4579 0
M  V30 9 C -4.1345 -3.0684 -1.4034 0
M  V30 10 O -1.4275 -1.4172 2.2683 0 CHG=-1
M  V30 11 C 0.6729 0.5126 0.9111 0
M  V30 12 C -0.9113 2.3439 0.2558 0
M  V30 13 C -3.093 -3.4418 1.1709 0
M  V30 14 C -4.4335 -4.231 -0.6877 0
M  V30 15 C 1.405 0.5689 2.1202 0
M  V30 16 C 1.3496 0.0615 -0.2432 0
M  V30 17 O -1.9002 3.0654 0.5627 0
M  V30 18 O 0.0379 2.7994 -0.6685 0
M  V30 19 C -3.9137 -4.4173 0.5961 0
M  V30 20 O 0.867 0.9891 3.1793 0
M  V30 21 O 2.6752 0.1819 2.1639 0
M  V30 22 O 0.6996 0.0201 -1.4732 0 CHG=-1
M  V30 23 C 2.6903 -0.3398 -0.1524 0
M  V30 24 C 0.0096 4.1018 -1.2476 0
M  V30 25 C 3.332 -0.264 1.1011 0
M  V30 26 C 3.4059 -0.8082 -1.2692 0
M  V30 27 C 0.4889 5.1448 -0.2449 0
M  V30 28 C 4.6694 -0.6567 1.2275 0
M  V30 29 C 4.7419 -1.1979 -1.1322 0
M  V30 30 C 5.372 -1.1228 0.113 0
M  V30 31 H -1.154 1.0937 1.9021 0
M  V30 32 H -4.5395 -2.9311 -2.3981 0
M  V30 33 H -2.7019 -3.6078 2.1671 0
M  V30 34 H -5.0683 -4.9887 -1.1287 0
M  V30 35 H -4.1473 -5.3194 1.147 0
M  V30 36 H -1.0153 4.3469 -1.6014 0
M  V30 37 H 0.6891 4.1123 -2.1255 0
M  V30 38 H 2.9387 -0.8757 -2.2438 0
M  V30 39 H 0.5153 6.1438 -0.729 0
M  V30 40 H 1.51 4.8885 0.1087 0
M  V30 41 H -0.1975 5.1887 0.6262 0
M  V30 42 H 5.1644 -0.5995 2.1889 0
M  V30 43 H 5.2898 -1.5589 -1.993 0
M  V30 44 H 6.4062 -1.4253 0.2143 0
M  V30 END ATOM
M  V30 BEGIN BOND
M  V30 1 2 1 2
M  V30 2 1 2 3
M  V30 3 1 2 4
M  V30 4 1 3 5
M  V30 5 2 4 6
M  V30 6 1 4 7
M  V30 7 2 5 8
M  V30 8 1 5 9
M  V30 9 1 6 10
M  V30 10 1 7 11
M  V30 11 1 7 12
M  V30 12 1 8 13
M  V30 13 2 9 14
M  V30 14 1 11 15
M  V30 15 2 11 16
M  V30 16 2 12 17
M  V30 17 1 12 18
M  V30 18 2 13 19
M  V30 19 2 15 20
M  V30 20 1 15 21
M  V30 21 1 16 22
M  V30 22 1 16 23
M  V30 23 1 18 24
M  V30 24 1 21 25
M  V30 25 1 23 26
M  V30 26 1 24 27
M  V30 27 1 25 28
M  V30 28 2 26 29
M  V30 29 2 28 30
M  V30 30 1 6 8
M  V30 31 1 14 19
M  V30 32 2 23 25
M  V30 33 1 29 30
M  V30 34 1 7 31
M  V30 35 1 9 32
M  V30 36 1 13 33
M  V30 37 1 14 34
M  V30 38 1 19 35
M  V30 39 1 24 36
M  V30 40 1 24 37
M  V30 41 1 26 38
M  V30 42 1 27 39
M  V30 43 1 27 40
M  V30 44 1 27 41
M  V30 45 1 28 42
M  V30 46 1 29 43
M  V30 47 1 30 44
M  V30 END BOND
M  V30 END CTAB
M  END
>  <Structure No>
3863

>  <LogS>
-3.4264

>  <MMFF94 Energy>
148.2

$$$$
Compound 3864
Actelion Java MolfileCreator 2.0

  0  0  0  0  0  0              0 V3000
M  V30 BEGIN CTAB
M  V30 COUNTS 27 27 0 0 0
M  V30 BEGIN ATOM
M  V30 1 O 2.3085 2.3085 2.6272 0
M  V30 2 C 1.2997 1.5549 2.6048 0
M  V30 3 O 0.4755 1.4867 3.7217 0 CHG=-1
M  V30 4 C 1.0035 0.7341 1.4096 0
M  V30 5 C -0.2922 0.7579 0.8319 0
M  V30 6 C 2.0021 -0.1024 0.8508 0
M  V30 7 O -1.2831 1.6187 1.3172 0
M  V30 8 C -0.5936 -0.0733 -0.271 0
M  V30 9 C 1.6968 -0.8889 -0.2667 0
M  V30 10 C 3.3945 -0.1718 1.4259 0
M  V30 11 C 0.4176 -0.8826 -0.8133 0
M  V30 12 C -1.9827 -0.0768 -0.8976 0
M  V30 13 C -1.9401 0.4603 -2.3333 0
M  V30 14 C -2.6113 -1.4757 -0.851 0
M  V30 15 H -1.1163 2.3269 2.0196 0
M  V30 16 H 2.4509 -1.525 -0.7142 0
M  V30 17 H 3.962 -1.0363 1.0198 0
M  V30 18 H 3.9486 0.7567 1.1753 0
M  V30 19 H 3.3505 -0.2924 2.529 0
M  V30 20 H 0.22 -1.5121 -1.6711 0
M  V30 21 H -2.6658 0.5896 -0.3291 0
M  V30 22 H -1.3465 -0.2063 -2.9942 0
M  V30 23 H -2.9703 0.5353 -2.7424 0
M  V30 24 H -1.4871 1.4749 -2.3459 0
M  V30 25 H -3.6615 -1.432 -1.2112 0
M  V30 26 H -2.6188 -1.8544 0.1935 0
M  V30 27 H -2.0523 -2.1918 -1.4893 0
M  V30 END ATOM
M  V30 BEGIN BOND
M  V30 1 2 1 2
M  V30 2 1 2 3
M  V30 3 1 2 4
M  V30 4 2 4 5
M  V30 5 1 4 6
M  V30 6 1 5 7
M  V30 7 1 5 8
M  V30 8 2 6 9
M  V30 9 1 6 10
M  V30 10 2 8 11
M  V30 11 1 8 12
M  V30 12 1 12 13
M  V30 13 1 12 14
M  V30 14 1 9 11
M  V30 15 1 7 15
M  V30 16 1 9 16
M  V30 17 1 10 17
M  V30 18 1 10 18
M  V30 19 1 10 19
M  V30 20 1 11 20
M  V30 21 1 12 21
M  V30 22 1 13 22
M  V30 23 1 13 23
M  V30 24 1 13 24
M  V30 25 1 14 25
M  V30 26 1 14 26
M  V30 27 1 14 27
M  V30 END BOND
M  V30 END CTAB
M  END
>  <Structure No>
3864

>  <LogS>
-3.2883

>  <MMFF94 Energy>
29.153

$$$$
Compound 3865
Actelion Java MolfileCreator 2.0

  0  0  0  0  0  0              0 V3000
M  V30 BEGIN CTAB
M  V30 COUNTS 27 27 0 0 0
M  V30 BEGIN ATOM
M  V30 1 O -0.8604 -1.7215 -1.33 0
M  V30 2 C -1.0899 -0.6378 -0.7204 0
M  V30 3 N -0.0419 0.1843 -0.3636 0
M  V30 4 N -2.3856 -0.2995 -0.4161 0
M  V30 5 C -0.2963 1.3446 0.3339 0
M  V30 6 C 1.3452 -0.203 -0.7106 0
M  V30 7 C -2.6441 0.8358 0.3002 0
M  V30 8 C -3.4892 -1.2026 -0.7882 0
M  V30 9 N 0.7525 2.2394 0.7399 0
M  V30 10 C -1.6061 1.6749 0.6759 0
M  V30 11 C 2.0863 -0.7425 0.496 0
M  V30 12 O -3.8231 1.1379 0.6335 0
M  V30 13 C 1.593 -1.7803 1.1881 0
M  V30 14 C 3.4155 -0.1608 0.8989 0
M  V30 15 H 1.3706 -0.9789 -1.5049 0
M  V30 16 H 1.8756 0.6588 -1.1669 0
M  V30 17 H -3.6213 -1.9734 -1.0E-4 0
M  V30 18 H -4.4432 -0.6482 -0.9183 0
M  V30 19 H -3.2866 -1.7033 -1.7591 0
M  V30 20 H 1.757 2.0842 0.5184 0
M  V30 21 H 0.5264 3.104 1.2808 0
M  V30 22 H -1.8166 2.5787 1.236 0
M  V30 23 H 2.1287 -2.1825 2.0429 0
M  V30 24 H 0.6527 -2.2447 0.9112 0
M  V30 25 H 3.3402 0.2738 1.918 0
M  V30 26 H 3.7409 0.6357 0.1981 0
M  V30 27 H 4.1907 -0.9562 0.8989 0
M  V30 END ATOM
M  V30 BEGIN BOND
M  V30 1 2 1 2
M  V30 2 1 2 3
M  V30 3 1 2 4
M  V30 4 1 3 5
M  V30 5 1 3 6
M  V30 6 1 4 7
M  V30 7 1 4 8
M  V30 8 1 5 9
M  V30 9 2 5 10
M  V30 10 1 6 11
M  V30 11 2 7 12
M  V30 12 2 11 13
M  V30 13 1 11 14
M  V30 14 1 7 10
M  V30 15 1 6 15
M  V30 16 1 6 16
M  V30 17 1 8 17
M  V30 18 1 8 18
M  V30 19 1 8 19
M  V30 20 1 9 20
M  V30 21 1 9 21
M  V30 22 1 10 22
M  V30 23 1 13 23
M  V30 24 1 13 24
M  V30 25 1 14 25
M  V30 26 1 14 26
M  V30 27 1 14 27
M  V30 END BOND
M  V30 END CTAB
M  END
>  <Structure No>
3865

>  <LogS>
-0.9895

>  <MMFF94 Energy>
-100.24

$$$$
Compound 3866
Actelion Java MolfileCreator 2.0

  0  0  0  0  0  0              0 V3000
M  V30 BEGIN CTAB
M  V30 COUNTS 30 32 0 0 0
M  V30 BEGIN ATOM
M  V30 1 O -0.6426 0.5623 0.9641 0
M  V30 2 C -0.1684 -0.7672 0.9239 0 CFG=2
M  V30 3 C -1.8757 0.6055 0.2738 0 CFG=1
M  V30 4 N 1.2664 -0.8 0.6248 0
M  V30 5 C -0.9864 -1.5618 -0.0945 0 CFG=1
M  V30 6 C -2.3019 -0.8189 -0.082 0 CFG=2
M  V30 7 C -2.9272 1.3197 1.127 0
M  V30 8 C 2.0058 0.062 -0.0873 0
M  V30 9 C 2.1412 -1.7908 0.939 0
M  V30 10 O -0.3918 -1.574 -1.3739 0
M  V30 11 O -2.9508 -0.8575 -1.3268 0
M  V30 12 O -2.5248 2.6405 1.3624 0
M  V30 13 N 1.6063 1.2177 -0.6721 0
M  V30 14 C 3.2738 -0.3983 -0.1776 0
M  V30 15 N 3.3989 -1.5752 0.4622 0
M  V30 16 C 2.537 1.9374 -1.369 0
M  V30 17 C 4.2262 0.3208 -0.8832 0
M  V30 18 N 3.8302 1.4894 -1.4699 0
M  V30 19 H -0.3308 -1.211 1.9323 0
M  V30 20 H -1.724 1.1906 -0.6614 0
M  V30 21 H -1.124 -2.6115 0.2452 0
M  V30 22 H -2.9595 -1.2443 0.7139 0
M  V30 23 H -3.048 0.7871 2.0974 0
M  V30 24 H -3.9021 1.3187 0.5892 0
M  V30 25 H 1.8665 -2.6731 1.5027 0
M  V30 26 H -0.3033 -0.6361 -1.6871 0
M  V30 27 H -3.3143 -1.7761 -1.4246 0
M  V30 28 H -3.2386 3.0508 1.9168 0
M  V30 29 H 2.2512 2.8649 -1.8455 0
M  V30 30 H 5.2462 -0.0275 -0.9734 0
M  V30 END ATOM
M  V30 BEGIN BOND
M  V30 1 1 1 2
M  V30 2 1 1 3
M  V30 3 1 2 4
M  V30 4 1 2 5
M  V30 5 1 3 6
M  V30 6 1 3 7
M  V30 7 1 4 8
M  V30 8 1 4 9
M  V30 9 1 5 10
M  V30 10 1 6 11
M  V30 11 1 7 12
M  V30 12 2 8 13
M  V30 13 1 8 14
M  V30 14 2 9 15
M  V30 15 1 13 16
M  V30 16 2 14 17
M  V30 17 2 16 18
M  V30 18 1 5 6
M  V30 19 1 14 15
M  V30 20 1 17 18
M  V30 21 1 2 19
M  V30 22 1 3 20
M  V30 23 1 5 21
M  V30 24 1 6 22
M  V30 25 1 7 23
M  V30 26 1 7 24
M  V30 27 1 9 25
M  V30 28 1 10 26
M  V30 29 1 11 27
M  V30 30 1 12 28
M  V30 31 1 16 29
M  V30 32 1 17 30
M  V30 END BOND
M  V30 BEGIN COLLECTION
M  V30 MDLV30/STEABS ATOMS=(4 2 3 5 6)
M  V30 END COLLECTION
M  V30 END CTAB
M  END
>  <Structure No>
3866

>  <LogS>
-0.4018

>  <MMFF94 Energy>
105.94

$$$$
Compound 3867
Actelion Java MolfileCreator 2.0

  0  0  0  0  0  0              0 V3000
M  V30 BEGIN CTAB
M  V30 COUNTS 20 21 0 0 0
M  V30 BEGIN ATOM
M  V30 1 O 2.1208 2.8557 1.0599 0
M  V30 2 N 1.4055 2.3177 0.1899 0 CHG=1
M  V30 3 O 0.9813 3.065 -0.8842 0 CHG=-1
M  V30 4 C 1.1932 0.8973 0.2056 0
M  V30 5 C 2.2947 0.0346 0.3674 0
M  V30 6 C -0.1022 0.3461 0.0332 0
M  V30 7 O 3.5755 0.5503 0.5337 0 CHG=-1
M  V30 8 C 2.1202 -1.3499 0.3424 0
M  V30 9 C -0.261 -1.0652 -0.0025 0
M  V30 10 C -1.2497 1.1596 -0.071 0
M  V30 11 C 0.854 -1.8989 0.1502 0
M  V30 12 C -1.5368 -1.6242 -0.1785 0
M  V30 13 C -2.5127 0.5871 -0.2431 0
M  V30 14 C -2.6551 -0.7989 -0.3027 0
M  V30 15 H 2.9741 -2.0045 0.4627 0
M  V30 16 H -1.1872 2.2366 -0.0027 0
M  V30 17 H 0.7454 -2.9768 0.1286 0
M  V30 18 H -1.6695 -2.699 -0.2136 0
M  V30 19 H -3.3858 1.2217 -0.3246 0
M  V30 20 H -3.6367 -1.2354 -0.435 0
M  V30 END ATOM
M  V30 BEGIN BOND
M  V30 1 2 1 2
M  V30 2 1 2 3
M  V30 3 1 2 4
M  V30 4 2 4 5
M  V30 5 1 4 6
M  V30 6 1 5 7
M  V30 7 1 5 8
M  V30 8 1 6 9
M  V30 9 2 6 10
M  V30 10 2 8 11
M  V30 11 2 9 12
M  V30 12 1 10 13
M  V30 13 1 12 14
M  V30 14 1 9 11
M  V30 15 2 13 14
M  V30 16 1 8 15
M  V30 17 1 10 16
M  V30 18 1 11 17
M  V30 19 1 12 18
M  V30 20 1 13 19
M  V30 21 1 14 20
M  V30 END BOND
M  V30 END CTAB
M  END
>  <Structure No>
3867

>  <LogS>
-2.9758

>  <MMFF94 Energy>
84.374

$$$$
Compound 3868
Actelion Java MolfileCreator 2.0

  0  0  0  0  0  0              0 V3000
M  V30 BEGIN CTAB
M  V30 COUNTS 15 15 0 0 0
M  V30 BEGIN ATOM
M  V30 1 Cl -0.6132 2.7179 0.7009 0
M  V30 2 C 0.0571 1.1246 0.3429 0
M  V30 3 C 1.4524 0.9726 0.3371 0
M  V30 4 C -0.7787 0.0205 0.0508 0
M  V30 5 O 2.2721 2.0559 0.6387 0 CHG=-1
M  V30 6 C 2.0241 -0.2651 0.0246 0
M  V30 7 C -0.1849 -1.2149 -0.2966 0
M  V30 8 C -2.2798 0.1818 0.0337 0
M  V30 9 Cl 3.7695 -0.4663 0.0139 0
M  V30 10 C 1.2067 -1.349 -0.2968 0
M  V30 11 Cl -1.1439 -2.6194 -0.7575 0
M  V30 12 H -2.7968 -0.7707 0.2679 0
M  V30 13 H -2.6155 0.9078 0.8024 0
M  V30 14 H -2.6027 0.5346 -0.9678 0
M  V30 15 H 1.656 -2.3 -0.5553 0
M  V30 END ATOM
M  V30 BEGIN BOND
M  V30 1 1 1 2
M  V30 2 2 2 3
M  V30 3 1 2 4
M  V30 4 1 3 5
M  V30 5 1 3 6
M  V30 6 2 4 7
M  V30 7 1 4 8
M  V30 8 1 6 9
M  V30 9 2 6 10
M  V30 10 1 7 11
M  V30 11 1 7 10
M  V30 12 1 8 12
M  V30 13 1 8 13
M  V30 14 1 8 14
M  V30 15 1 10 15
M  V30 END BOND
M  V30 END CTAB
M  END
>  <Structure No>
3868

>  <LogS>
-3.2761

>  <MMFF94 Energy>
35.311

$$$$
Compound 3869
Actelion Java MolfileCreator 2.0

  0  0  0  0  0  0              0 V3000
M  V30 BEGIN CTAB
M  V30 COUNTS 27 28 0 0 0
M  V30 BEGIN ATOM
M  V30 1 O 1.434 2.8697 1.0355 0
M  V30 2 C 1.1812 1.7588 0.5956 0
M  V30 3 C 0.9725 1.5928 -0.8917 0
M  V30 4 C 1.1779 0.5817 1.5435 0
M  V30 5 C 0.2272 0.2868 -1.2578 0 CFG=1
M  V30 6 C 0.4164 -0.6446 0.9853 0 CFG=2
M  V30 7 N 0.7504 -0.8405 -0.447 0 CHG=1 CFG=1
M  V30 8 C -1.3087 0.4502 -1.1138 0
M  V30 9 C -1.1119 -0.5187 1.22 0
M  V30 10 C 0.326 -2.1596 -0.9589 0
M  V30 11 C -1.7519 0.566 0.348 0
M  V30 12 H 1.9734 1.585 -1.3746 0
M  V30 13 H 0.4238 2.4723 -1.2941 0
M  V30 14 H 0.7456 0.8883 2.5211 0
M  V30 15 H 2.2353 0.2956 1.7308 0
M  V30 16 H 0.4342 0.0942 -2.3357 0
M  V30 17 H 0.7636 -1.5273 1.57 0
M  V30 18 H 1.7963 -0.8399 -0.5349 0
M  V30 19 H -1.6474 1.3522 -1.6685 0
M  V30 20 H -1.8257 -0.4116 -1.5854 0
M  V30 21 H -1.3136 -0.2909 2.2892 0
M  V30 22 H -1.6063 -1.4913 1.0152 0
M  V30 23 H 0.7958 -2.9726 -0.3631 0
M  V30 24 H 0.6566 -2.2877 -2.0127 0
M  V30 25 H -0.7726 -2.2961 -0.9228 0
M  V30 26 H -1.4918 1.5707 0.7432 0
M  V30 27 H -2.858 0.4739 0.4031 0
M  V30 END ATOM
M  V30 BEGIN BOND
M  V30 1 2 1 2
M  V30 2 1 2 3
M  V30 3 1 2 4
M  V30 4 1 3 5
M  V30 5 1 4 6
M  V30 6 1 5 7
M  V30 7 1 5 8
M  V30 8 1 6 9
M  V30 9 1 7 10
M  V30 10 1 8 11
M  V30 11 1 6 7
M  V30 12 1 9 11
M  V30 13 1 3 12
M  V30 14 1 3 13
M  V30 15 1 4 14
M  V30 16 1 4 15
M  V30 17 1 5 16
M  V30 18 1 6 17
M  V30 19 1 7 18
M  V30 20 1 8 19
M  V30 21 1 8 20
M  V30 22 1 9 21
M  V30 23 1 9 22
M  V30 24 1 10 23
M  V30 25 1 10 24
M  V30 26 1 10 25
M  V30 27 1 11 26
M  V30 28 1 11 27
M  V30 END BOND
M  V30 BEGIN COLLECTION
M  V30 MDLV30/STEABS ATOMS=(3 5 6 7)
M  V30 END COLLECTION
M  V30 END CTAB
M  END
>  <Structure No>
3869

>  <LogS>
0.4167

>  <MMFF94 Energy>
4.6109

$$$$
Compound 3870
Actelion Java MolfileCreator 2.0

  0  0  0  0  0  0              0 V3000
M  V30 BEGIN CTAB
M  V30 COUNTS 17 17 0 0 0
M  V30 BEGIN ATOM
M  V30 1 O 1.8082 -1.4935 0.3928 0
M  V30 2 C 1.2264 -0.4147 0.0945 0
M  V30 3 N 2.0136 0.7503 -0.2015 0
M  V30 4 C -0.2552 -0.3788 0.0392 0
M  V30 5 N 3.4072 0.7551 -0.0307 0
M  V30 6 C -0.9859 -1.5663 -0.1447 0
M  V30 7 C -0.9684 0.823 0.1922 0
M  V30 8 N -2.3447 -1.5383 -0.1905 0
M  V30 9 C -2.3636 0.8226 0.1421 0
M  V30 10 C -3.0414 -0.3801 -0.0548 0
M  V30 11 H 1.5655 1.6054 -0.5967 0
M  V30 12 H 3.804 -0.0162 -0.6142 0
M  V30 13 H 3.6052 0.5358 0.9721 0
M  V30 14 H -0.4776 -2.5146 -0.2621 0
M  V30 15 H -0.4586 1.759 0.3755 0
M  V30 16 H -2.915 1.7463 0.2619 0
M  V30 17 H -4.1224 -0.3942 -0.0947 0
M  V30 END ATOM
M  V30 BEGIN BOND
M  V30 1 2 1 2
M  V30 2 1 2 3
M  V30 3 1 2 4
M  V30 4 1 3 5
M  V30 5 2 4 6
M  V30 6 1 4 7
M  V30 7 1 6 8
M  V30 8 2 7 9
M  V30 9 2 8 10
M  V30 10 1 9 10
M  V30 11 1 3 11
M  V30 12 1 5 12
M  V30 13 1 5 13
M  V30 14 1 6 14
M  V30 15 1 7 15
M  V30 16 1 9 16
M  V30 17 1 10 17
M  V30 END BOND
M  V30 END CTAB
M  END
>  <Structure No>
3870

>  <LogS>
-0.1372

>  <MMFF94 Energy>
73.139

$$$$
Compound 3871
Actelion Java MolfileCreator 2.0

  0  0  0  0  0  0              0 V3000
M  V30 BEGIN CTAB
M  V30 COUNTS 26 26 0 0 0
M  V30 BEGIN ATOM
M  V30 1 O 4.5192 0.6333 -2.218 0
M  V30 2 N 3.806 1.3052 -1.4438 0 CHG=1
M  V30 3 O 4.161 2.6083 -1.1794 0 CHG=-1
M  V30 4 C 2.6335 0.7291 -0.8387 0
M  V30 5 C 2.2672 -0.6011 -1.1058 0
M  V30 6 C 1.8373 1.49 0.0308 0
M  V30 7 C 1.1248 -1.1646 -0.5179 0
M  V30 8 C 0.699 0.9364 0.6205 0
M  V30 9 N 0.7772 -2.5226 -0.8141 0
M  V30 10 C 0.3281 -0.3947 0.3504 0
M  V30 11 O -0.8095 -0.9872 0.9265 0
M  V30 12 C -1.8027 -0.313 1.7015 0
M  V30 13 C -2.7026 0.5587 0.8176 0
M  V30 14 C -3.4512 -0.2721 -0.222 0
M  V30 15 H 2.8689 -1.205 -1.7735 0
M  V30 16 H 2.095 2.5164 0.2582 0
M  V30 17 H 0.1191 1.5565 1.2887 0
M  V30 18 H -0.0692 -2.9719 -0.3998 0
M  V30 19 H 1.3672 -3.0952 -1.4581 0
M  V30 20 H -1.329 0.2956 2.5003 0
M  V30 21 H -2.4286 -1.0769 2.2098 0
M  V30 22 H -3.443 1.0794 1.4625 0
M  V30 23 H -2.0992 1.3328 0.2992 0
M  V30 24 H -2.7351 -0.7667 -0.9122 0
M  V30 25 H -4.1149 0.3895 -0.8175 0
M  V30 26 H -4.0748 -1.0446 0.2763 0
M  V30 END ATOM
M  V30 BEGIN BOND
M  V30 1 2 1 2
M  V30 2 1 2 3
M  V30 3 1 2 4
M  V30 4 2 4 5
M  V30 5 1 4 6
M  V30 6 1 5 7
M  V30 7 2 6 8
M  V30 8 1 7 9
M  V30 9 2 7 10
M  V30 10 1 10 11
M  V30 11 1 11 12
M  V30 12 1 12 13
M  V30 13 1 13 14
M  V30 14 1 8 10
M  V30 15 1 5 15
M  V30 16 1 6 16
M  V30 17 1 8 17
M  V30 18 1 9 18
M  V30 19 1 9 19
M  V30 20 1 12 20
M  V30 21 1 12 21
M  V30 22 1 13 22
M  V30 23 1 13 23
M  V30 24 1 14 24
M  V30 25 1 14 25
M  V30 26 1 14 26
M  V30 END BOND
M  V30 END CTAB
M  END
>  <Structure No>
3871

>  <LogS>
-3.1592

>  <MMFF94 Energy>
53.824

$$$$
Compound 3872
Actelion Java MolfileCreator 2.0

  0  0  0  0  0  0              0 V3000
M  V30 BEGIN CTAB
M  V30 COUNTS 14 13 0 0 0
M  V30 BEGIN ATOM
M  V30 1 O -0.7834 1.2536 1.0185 0
M  V30 2 C -0.6711 0.2672 0.2407 0
M  V30 3 O -1.8025 -0.3123 -0.3415 0
M  V30 4 C 0.6566 -0.2765 -0.0552 0
M  V30 5 C -3.12 0.1654 -0.0972 0
M  V30 6 O 0.7688 -1.2629 -0.8328 0
M  V30 7 O 1.7878 0.303 0.5272 0
M  V30 8 C 3.1053 -0.1746 0.2829 0
M  V30 9 H -3.209 1.2217 -0.4285 0
M  V30 10 H -3.3572 0.0902 0.9852 0
M  V30 11 H -3.8435 -0.4524 -0.6674 0
M  V30 12 H 3.3424 -0.0993 -0.7994 0
M  V30 13 H 3.1942 -1.2308 0.6143 0
M  V30 14 H 3.8287 0.4433 0.8533 0
M  V30 END ATOM
M  V30 BEGIN BOND
M  V30 1 2 1 2
M  V30 2 1 2 3
M  V30 3 1 2 4
M  V30 4 1 3 5
M  V30 5 2 4 6
M  V30 6 1 4 7
M  V30 7 1 7 8
M  V30 8 1 5 9
M  V30 9 1 5 10
M  V30 10 1 5 11
M  V30 11 1 8 12
M  V30 12 1 8 13
M  V30 13 1 8 14
M  V30 END BOND
M  V30 END CTAB
M  END
>  <Structure No>
3872

>  <LogS>
-0.2919

>  <MMFF94 Energy>
53.548

$$$$
Compound 3873
Actelion Java MolfileCreator 2.0

  0  0  0  0  0  0              0 V3000
M  V30 BEGIN CTAB
M  V30 COUNTS 28 28 0 0 0
M  V30 BEGIN ATOM
M  V30 1 O 2.6126 0.3164 -1.9788 0
M  V30 2 C 2.2203 -0.3797 -1.0041 0
M  V30 3 O 2.0804 -1.7532 -1.1703 0 CHG=-1
M  V30 4 C 1.8855 0.2815 0.3219 0 CFG=2
M  V30 5 N 1.5824 -0.7394 1.3443 0 CHG=1
M  V30 6 C 0.6808 1.2528 0.1494 0
M  V30 7 C 3.1122 1.0966 0.7852 0
M  V30 8 C -0.5971 0.5675 -0.2795 0
M  V30 9 C -1.5179 0.1169 0.6809 0
M  V30 10 C -0.8729 0.3657 -1.6411 0
M  V30 11 C -2.6968 -0.5327 0.2876 0
M  V30 12 C -2.0471 -0.2805 -2.0351 0
M  V30 13 O -3.6034 -0.9803 1.2472 0
M  V30 14 C -2.9612 -0.732 -1.078 0
M  V30 15 O -4.1241 -1.3747 -1.5012 0
M  V30 16 H 2.4212 -1.3404 1.5198 0
M  V30 17 H 0.7989 -1.3601 1.0375 0
M  V30 18 H 1.3104 -0.2832 2.2459 0
M  V30 19 H 0.936 2.0396 -0.5952 0
M  V30 20 H 0.4996 1.7903 1.1068 0
M  V30 21 H 3.3518 1.9045 0.0602 0
M  V30 22 H 4.003 0.439 0.8828 0
M  V30 23 H 2.9174 1.5652 1.7739 0
M  V30 24 H -1.3166 0.2657 1.7348 0
M  V30 25 H -0.1798 0.7098 -2.3981 0
M  V30 26 H -2.2477 -0.4309 -3.0883 0
M  V30 27 H -3.4356 -0.8494 2.238 0
M  V30 28 H -4.8167 -1.7196 -0.8474 0
M  V30 END ATOM
M  V30 BEGIN BOND
M  V30 1 2 1 2
M  V30 2 1 2 3
M  V30 3 1 2 4
M  V30 4 1 4 5
M  V30 5 1 4 6
M  V30 6 1 4 7
M  V30 7 1 6 8
M  V30 8 2 8 9
M  V30 9 1 8 10
M  V30 10 1 9 11
M  V30 11 2 10 12
M  V30 12 1 11 13
M  V30 13 2 11 14
M  V30 14 1 14 15
M  V30 15 1 12 14
M  V30 16 1 5 16
M  V30 17 1 5 17
M  V30 18 1 5 18
M  V30 19 1 6 19
M  V30 20 1 6 20
M  V30 21 1 7 21
M  V30 22 1 7 22
M  V30 23 1 7 23
M  V30 24 1 9 24
M  V30 25 1 10 25
M  V30 26 1 12 26
M  V30 27 1 13 27
M  V30 28 1 15 28
M  V30 END BOND
M  V30 BEGIN COLLECTION
M  V30 MDLV30/STEABS ATOMS=(1 4)
M  V30 END COLLECTION
M  V30 END CTAB
M  END
>  <Structure No>
3873

>  <LogS>
-1.3247

>  <MMFF94 Energy>
6.4362

$$$$
Compound 3874
Actelion Java MolfileCreator 2.0

  0  0  0  0  0  0              0 V3000
M  V30 BEGIN CTAB
M  V30 COUNTS 22 22 0 0 0
M  V30 BEGIN ATOM
M  V30 1 O 5.4391 -0.479 0.7185 0
M  V30 2 C 4.5446 0.1382 1.3562 0
M  V30 3 O 4.8847 0.8288 2.5119 0 CHG=-1
M  V30 4 C 3.1461 0.1417 0.8968 0
M  V30 5 C 2.7521 -0.5189 -0.199 0
M  V30 6 C 1.3525 -0.5363 -0.6664 0
M  V30 7 O 1.0239 -1.3771 -1.5459 0
M  V30 8 N 0.3866 0.415 -0.1867 0
M  V30 9 C -1.0357 0.2169 -0.2677 0
M  V30 10 C -1.8832 1.3321 -0.3693 0
M  V30 11 C -1.6035 -1.069 -0.1912 0
M  V30 12 C -3.2702 1.1646 -0.428 0
M  V30 13 C -2.9913 -1.2318 -0.2494 0
M  V30 14 C -3.8237 -0.1166 -0.3716 0
M  V30 15 H 2.4293 0.6885 1.495 0
M  V30 16 H 3.4722 -1.1025 -0.7604 0
M  V30 17 H 0.7306 1.3496 0.1289 0
M  V30 18 H -1.4672 2.3309 -0.412 0
M  V30 19 H -0.9803 -1.9439 -0.0642 0
M  V30 20 H -3.916 2.0289 -0.5149 0
M  V30 21 H -3.422 -2.2231 -0.1913 0
M  V30 22 H -4.8976 -0.2447 -0.415 0
M  V30 END ATOM
M  V30 BEGIN BOND
M  V30 1 2 1 2
M  V30 2 1 2 3
M  V30 3 1 2 4
M  V30 4 2 4 5
M  V30 5 1 5 6
M  V30 6 2 6 7
M  V30 7 1 6 8
M  V30 8 1 8 9
M  V30 9 2 9 10
M  V30 10 1 9 11
M  V30 11 1 10 12
M  V30 12 2 11 13
M  V30 13 2 12 14
M  V30 14 1 13 14
M  V30 15 1 4 15
M  V30 16 1 5 16
M  V30 17 1 8 17
M  V30 18 1 10 18
M  V30 19 1 11 19
M  V30 20 1 12 20
M  V30 21 1 13 21
M  V30 22 1 14 22
M  V30 END BOND
M  V30 END CTAB
M  END
>  <Structure No>
3874

>  <LogS>
-2.2815

>  <MMFF94 Energy>
-22.283

$$$$
Compound 3875
Actelion Java MolfileCreator 2.0

  0  0  0  0  0  0              0 V3000
M  V30 BEGIN CTAB
M  V30 COUNTS 24 25 0 0 0
M  V30 BEGIN ATOM
M  V30 1 O 5.012 -1.2916 -2.1803 0
M  V30 2 N 5.0461 -0.7274 -1.0679 0 CHG=1
M  V30 3 O 6.2603 -0.4692 -0.4756 0 CHG=-1
M  V30 4 C 3.8296 -0.3542 -0.4178 0
M  V30 5 O 2.6364 -0.5681 -0.9216 0
M  V30 6 C 3.7362 0.2726 0.8092 0
M  V30 7 C 1.7491 -0.1049 -0.0715 0
M  V30 8 C 2.3849 0.4346 1.0344 0
M  V30 9 C 0.3014 -0.1683 -0.2967 0
M  V30 10 N -0.5229 0.3085 0.5845 0
M  V30 11 N -1.9204 0.2777 0.4272 0
M  V30 12 C -2.8357 0.7871 1.3659 0
M  V30 13 C -2.67 -0.2686 -0.7001 0
M  V30 14 O -2.5008 1.3276 2.4528 0
M  V30 15 N -4.1719 0.6243 0.9531 0
M  V30 16 C -4.1636 -0.0369 -0.3475 0
M  V30 17 H 4.5467 0.5744 1.4593 0
M  V30 18 H 1.9225 0.8909 1.9001 0
M  V30 19 H -0.0607 -0.6201 -1.211 0
M  V30 20 H -2.4004 0.271 -1.6333 0
M  V30 21 H -2.4577 -1.3541 -0.8074 0
M  V30 22 H -5.0193 0.9242 1.4842 0
M  V30 23 H -4.6497 0.6162 -1.1035 0
M  V30 24 H -4.7066 -1.0038 -0.2802 0
M  V30 END ATOM
M  V30 BEGIN BOND
M  V30 1 2 1 2
M  V30 2 1 2 3
M  V30 3 1 2 4
M  V30 4 1 4 5
M  V30 5 2 4 6
M  V30 6 1 5 7
M  V30 7 1 6 8
M  V30 8 1 7 9
M  V30 9 2 9 10
M  V30 10 1 10 11
M  V30 11 1 11 12
M  V30 12 1 11 13
M  V30 13 2 12 14
M  V30 14 1 12 15
M  V30 15 1 13 16
M  V30 16 2 7 8
M  V30 17 1 15 16
M  V30 18 1 6 17
M  V30 19 1 8 18
M  V30 20 1 9 19
M  V30 21 1 13 20
M  V30 22 1 13 21
M  V30 23 1 15 22
M  V30 24 1 16 23
M  V30 25 1 16 24
M  V30 END BOND
M  V30 END CTAB
M  END
>  <Structure No>
3875

>  <LogS>
-3.3572

>  <MMFF94 Energy>
65.515

$$$$
Compound 3876
Actelion Java MolfileCreator 2.0

  0  0  0  0  0  0              0 V3000
M  V30 BEGIN CTAB
M  V30 COUNTS 24 24 0 0 0
M  V30 BEGIN ATOM
M  V30 1 O -2.4482 2.053 -0.4734 0
M  V30 2 C -2.1209 0.8821 -0.8032 0
M  V30 3 O -1.8699 0.5914 -2.1383 0 CHG=-1
M  V30 4 C -1.9754 -0.1947 0.2413 0 CFG=2
M  V30 5 N -3.2133 -0.3178 1.0206 0 CHG=1
M  V30 6 C -0.7776 0.0924 1.171 0
M  V30 7 C 0.5319 0.0542 0.4235 0
M  V30 8 C 1.1254 1.2424 -0.0341 0
M  V30 9 C 1.1474 -1.1757 0.1394 0
M  V30 10 C 2.3243 1.2004 -0.7523 0
M  V30 11 C 2.3465 -1.2151 -0.5785 0
M  V30 12 C 2.9384 -0.0259 -1.0258 0
M  V30 13 O 4.1326 -0.0527 -1.7425 0
M  V30 14 H -1.7941 -1.1638 -0.2772 0
M  V30 15 H -3.1336 -1.1203 1.6868 0
M  V30 16 H -4.0194 -0.5044 0.38 0
M  V30 17 H -3.3991 0.5583 1.562 0
M  V30 18 H -0.7491 -0.6701 1.9801 0
M  V30 19 H -0.91 1.0788 1.669 0
M  V30 20 H 0.6586 2.1999 0.162 0
M  V30 21 H 0.697 -2.1027 0.4725 0
M  V30 22 H 2.7752 2.1217 -1.0992 0
M  V30 23 H 2.8126 -2.1692 -0.7891 0
M  V30 24 H 4.6017 -0.9249 -1.9571 0
M  V30 END ATOM
M  V30 BEGIN BOND
M  V30 1 2 1 2
M  V30 2 1 2 3
M  V30 3 1 2 4
M  V30 4 1 4 5
M  V30 5 1 4 6
M  V30 6 1 6 7
M  V30 7 2 7 8
M  V30 8 1 7 9
M  V30 9 1 8 10
M  V30 10 2 9 11
M  V30 11 2 10 12
M  V30 12 1 12 13
M  V30 13 1 11 12
M  V30 14 1 4 14
M  V30 15 1 5 15
M  V30 16 1 5 16
M  V30 17 1 5 17
M  V30 18 1 6 18
M  V30 19 1 6 19
M  V30 20 1 8 20
M  V30 21 1 9 21
M  V30 22 1 10 22
M  V30 23 1 11 23
M  V30 24 1 13 24
M  V30 END BOND
M  V30 BEGIN COLLECTION
M  V30 MDLV30/STEABS ATOMS=(1 4)
M  V30 END COLLECTION
M  V30 END CTAB
M  END
>  <Structure No>
3876

>  <LogS>
-2.6049

>  <MMFF94 Energy>
0.75512

$$$$
Compound 3877
Actelion Java MolfileCreator 2.0

  0  0  0  0  0  0              0 V3000
M  V30 BEGIN CTAB
M  V30 COUNTS 24 24 0 0 0
M  V30 BEGIN ATOM
M  V30 1 O -3.5549 2.2898 -0.3945 0
M  V30 2 C -3.2408 1.1272 -0.0267 0
M  V30 3 O -4.1561 0.3642 0.6886 0 CHG=-1
M  V30 4 C -1.8753 0.5773 -0.3407 0 CFG=2
M  V30 5 N -1.9977 -0.7094 -1.0387 0 CHG=1
M  V30 6 C -1.0612 0.4379 0.9626 0
M  V30 7 C 0.3731 0.0614 0.6924 0
M  V30 8 C 0.7959 -1.272 0.8207 0
M  V30 9 C 1.2927 1.0372 0.2747 0
M  V30 10 C 2.1217 -1.6206 0.5461 0
M  V30 11 C 2.618 0.6861 0.0011 0
M  V30 12 C 3.036 -0.6445 0.1368 0
M  V30 13 O 4.3536 -1.0063 -0.1333 0
M  V30 14 H -1.3533 1.2986 -1.011 0
M  V30 15 H -2.399 -1.4388 -0.4049 0
M  V30 16 H -1.0599 -1.0245 -1.3761 0
M  V30 17 H -2.6183 -0.6025 -1.8742 0
M  V30 18 H -1.0755 1.4056 1.512 0
M  V30 19 H -1.538 -0.3144 1.6295 0
M  V30 20 H 0.0988 -2.0414 1.1287 0
M  V30 21 H 0.982 2.0684 0.1602 0
M  V30 22 H 2.4384 -2.6506 0.6488 0
M  V30 23 H 3.3179 1.4478 -0.318 0
M  V30 24 H 5.0395 -0.3229 -0.432 0
M  V30 END ATOM
M  V30 BEGIN BOND
M  V30 1 2 1 2
M  V30 2 1 2 3
M  V30 3 1 2 4
M  V30 4 1 4 5
M  V30 5 1 4 6
M  V30 6 1 6 7
M  V30 7 2 7 8
M  V30 8 1 7 9
M  V30 9 1 8 10
M  V30 10 2 9 11
M  V30 11 2 10 12
M  V30 12 1 12 13
M  V30 13 1 11 12
M  V30 14 1 4 14
M  V30 15 1 5 15
M  V30 16 1 5 16
M  V30 17 1 5 17
M  V30 18 1 6 18
M  V30 19 1 6 19
M  V30 20 1 8 20
M  V30 21 1 9 21
M  V30 22 1 10 22
M  V30 23 1 11 23
M  V30 24 1 13 24
M  V30 END BOND
M  V30 BEGIN COLLECTION
M  V30 MDLV30/STEABS ATOMS=(1 4)
M  V30 END COLLECTION
M  V30 END CTAB
M  END
>  <Structure No>
3877

>  <LogS>
-2.6561

>  <MMFF94 Energy>
0.78406

$$$$
Compound 3878
Actelion Java MolfileCreator 2.0

  0  0  0  0  0  0              0 V3000
M  V30 BEGIN CTAB
M  V30 COUNTS 16 15 0 0 0
M  V30 BEGIN ATOM
M  V30 1 O -3.3619 -0.4685 -0.3904 0
M  V30 2 C -2.5908 -0.2114 0.5711 0
M  V30 3 O -2.8661 -0.7276 1.8311 0 CHG=-1
M  V30 4 C -1.3552 0.6018 0.3487 0
M  V30 5 C -0.1762 -0.3034 -0.0194 0
M  V30 6 C 1.0977 0.5183 -0.2455 0
M  V30 7 C 2.2752 -0.3798 -0.6127 0
M  V30 8 H -1.5383 1.3355 -0.4667 0
M  V30 9 H -1.1215 1.1663 1.2774 0
M  V30 10 H -0.4208 -0.8665 -0.9475 0
M  V30 11 H -0.0024 -1.0335 0.8021 0
M  V30 12 H 0.9322 1.2481 -1.068 0
M  V30 13 H 1.3499 1.0815 0.6794 0
M  V30 14 H 2.4783 -1.1033 0.2052 0
M  V30 15 H 2.0588 -0.9361 -1.5496 0
M  V30 16 H 3.1817 0.2417 -0.7702 0
M  V30 END ATOM
M  V30 BEGIN BOND
M  V30 1 2 1 2
M  V30 2 1 2 3
M  V30 3 1 2 4
M  V30 4 1 4 5
M  V30 5 1 5 6
M  V30 6 1 6 7
M  V30 7 1 4 8
M  V30 8 1 4 9
M  V30 9 1 5 10
M  V30 10 1 5 11
M  V30 11 1 6 12
M  V30 12 1 6 13
M  V30 13 1 7 14
M  V30 14 1 7 15
M  V30 15 1 7 16
M  V30 END BOND
M  V30 END CTAB
M  END
>  <Structure No>
3878

>  <LogS>
-1.2722

>  <MMFF94 Energy>
1.4757

$$$$
Compound 3879
Actelion Java MolfileCreator 2.0

  0  0  0  0  0  0              0 V3000
M  V30 BEGIN CTAB
M  V30 COUNTS 11 11 0 0 0
M  V30 BEGIN ATOM
M  V30 1 O -1.0963 -0.6263 0.783 0
M  V30 2 C -0.1 0.3314 0.5158 0 CFG=2
M  V30 3 C -1.5141 0.5604 0.1454 0
M  V30 4 C 0.8368 -0.1155 -0.6075 0
M  V30 5 O 1.8891 -0.8737 -0.0781 0
M  V30 6 H 0.2829 0.8188 1.4372 0
M  V30 7 H -1.8135 0.3686 -0.9066 0
M  V30 8 H -2.1028 1.2002 0.8354 0
M  V30 9 H 1.2335 0.7817 -1.1334 0
M  V30 10 H 0.299 -0.736 -1.3572 0
M  V30 11 H 2.5038 -0.2341 0.3682 0
M  V30 END ATOM
M  V30 BEGIN BOND
M  V30 1 1 1 2
M  V30 2 1 1 3
M  V30 3 1 2 4
M  V30 4 1 4 5
M  V30 5 1 2 3
M  V30 6 1 2 6
M  V30 7 1 3 7
M  V30 8 1 3 8
M  V30 9 1 4 9
M  V30 10 1 4 10
M  V30 11 1 5 11
M  V30 END BOND
M  V30 BEGIN COLLECTION
M  V30 MDLV30/STEABS ATOMS=(1 2)
M  V30 END COLLECTION
M  V30 END CTAB
M  END
>  <Structure No>
3879

>  <LogS>
1.1303

>  <MMFF94 Energy>
6.9482

$$$$
Compound 3880
Actelion Java MolfileCreator 2.0

  0  0  0  0  0  0              0 V3000
M  V30 BEGIN CTAB
M  V30 COUNTS 11 11 0 0 0
M  V30 BEGIN ATOM
M  V30 1 O 2.3508 -1.3316 0.0 0
M  V30 2 C 1.2151 -0.7879 -0.0118 0
M  V30 3 N 0.0968 -1.5605 -0.0026 0
M  V30 4 N 1.1059 0.5693 -0.0337 0
M  V30 5 C -1.1398 -0.9988 -0.015 0
M  V30 6 C -0.1158 1.1668 -0.0465 0
M  V30 7 C -1.2728 0.3885 -0.0374 0
M  V30 8 H 1.9658 1.1632 -0.0406 0
M  V30 9 H -2.0186 -1.6296 -0.0074 0
M  V30 10 H -0.1919 2.2467 -0.0639 0
M  V30 11 H -2.2513 0.8509 -0.0475 0
M  V30 END ATOM
M  V30 BEGIN BOND
M  V30 1 2 1 2
M  V30 2 1 2 3
M  V30 3 1 2 4
M  V30 4 2 3 5
M  V30 5 1 4 6
M  V30 6 1 5 7
M  V30 7 2 6 7
M  V30 8 1 4 8
M  V30 9 1 5 9
M  V30 10 1 6 10
M  V30 11 1 7 11
M  V30 END BOND
M  V30 END CTAB
M  END
>  <Structure No>
3880

>  <LogS>
0.6749

>  <MMFF94 Energy>
-45.595

$$$$
Compound 3881
Actelion Java MolfileCreator 2.0

  0  0  0  0  0  0              0 V3000
M  V30 BEGIN CTAB
M  V30 COUNTS 15 14 0 0 0
M  V30 BEGIN ATOM
M  V30 1 O 0.9868 -0.6072 -0.0758 0
M  V30 2 C 0.2714 0.5106 0.4081 0
M  V30 3 C 2.2793 -0.2011 -0.4657 0
M  V30 4 C -1.1394 0.0825 0.8149 0
M  V30 5 C -1.9576 -0.3939 -0.3833 0
M  V30 6 H 0.196 1.307 -0.3682 0
M  V30 7 H 0.7732 0.9315 1.3093 0
M  V30 8 H 2.2355 0.5362 -1.2979 0
M  V30 9 H 2.8484 0.2161 0.3947 0
M  V30 10 H 2.8323 -1.0893 -0.834 0
M  V30 11 H -1.0777 -0.7332 1.5677 0
M  V30 12 H -1.659 0.9462 1.2839 0
M  V30 13 H -2.0414 0.4148 -1.1401 0
M  V30 14 H -1.484 -1.2844 -0.8484 0
M  V30 15 H -2.9788 -0.6723 -0.0477 0
M  V30 END ATOM
M  V30 BEGIN BOND
M  V30 1 1 1 2
M  V30 2 1 1 3
M  V30 3 1 2 4
M  V30 4 1 4 5
M  V30 5 1 2 6
M  V30 6 1 2 7
M  V30 7 1 3 8
M  V30 8 1 3 9
M  V30 9 1 3 10
M  V30 10 1 4 11
M  V30 11 1 4 12
M  V30 12 1 5 13
M  V30 13 1 5 14
M  V30 14 1 5 15
M  V30 END BOND
M  V30 END CTAB
M  END
>  <Structure No>
3881

>  <LogS>
-0.3857

>  <MMFF94 Energy>
3.5692

$$$$
Compound 3882
Actelion Java MolfileCreator 2.0

  0  0  0  0  0  0              0 V3000
M  V30 BEGIN CTAB
M  V30 COUNTS 25 24 0 0 0
M  V30 BEGIN ATOM
M  V30 1 O 0.1554 -2.0227 -0.4665 0
M  V30 2 C 0.5493 -0.8734 -0.8053 0
M  V30 3 O -0.3491 0.0767 -1.3058 0
M  V30 4 C 1.9868 -0.5007 -0.6286 0
M  V30 5 C -1.7433 -0.1687 -1.4933 0
M  V30 6 C 2.2 0.181 0.7253 0
M  V30 7 C -2.5791 0.44 -0.3528 0 CFG=1
M  V30 8 C 3.6628 0.5659 0.9241 0
M  V30 9 O -3.9428 0.3171 -0.6647 0
M  V30 10 C -2.3231 -0.2519 0.9921 0
M  V30 11 O -1.0844 0.1419 1.5133 0
M  V30 12 H 2.2845 0.1881 -1.4484 0
M  V30 13 H 2.6176 -1.4142 -0.6961 0
M  V30 14 H -2.0442 0.3178 -2.4453 0
M  V30 15 H -1.9554 -1.2548 -1.6047 0
M  V30 16 H 1.5755 1.0995 0.7849 0
M  V30 17 H 1.8942 -0.5068 1.5441 0
M  V30 18 H -2.3192 1.52 -0.2466 0
M  V30 19 H 4.3072 -0.3383 0.8948 0
M  V30 20 H 3.7867 1.0582 1.9117 0
M  V30 21 H 3.9867 1.2736 0.1314 0
M  V30 22 H -4.1517 1.0216 -1.3328 0
M  V30 23 H -3.1227 0.0421 1.7088 0
M  V30 24 H -2.3568 -1.358 0.8678 0
M  V30 25 H -0.9605 -0.3742 2.3517 0
M  V30 END ATOM
M  V30 BEGIN BOND
M  V30 1 2 1 2
M  V30 2 1 2 3
M  V30 3 1 2 4
M  V30 4 1 3 5
M  V30 5 1 4 6
M  V30 6 1 5 7
M  V30 7 1 6 8
M  V30 8 1 7 9
M  V30 9 1 7 10
M  V30 10 1 10 11
M  V30 11 1 4 12
M  V30 12 1 4 13
M  V30 13 1 5 14
M  V30 14 1 5 15
M  V30 15 1 6 16
M  V30 16 1 6 17
M  V30 17 1 7 18
M  V30 18 1 8 19
M  V30 19 1 8 20
M  V30 20 1 8 21
M  V30 21 1 9 22
M  V30 22 1 10 23
M  V30 23 1 10 24
M  V30 24 1 11 25
M  V30 END BOND
M  V30 BEGIN COLLECTION
M  V30 MDLV30/STEABS ATOMS=(1 7)
M  V30 END COLLECTION
M  V30 END CTAB
M  END
>  <Structure No>
3882

>  <LogS>
-1.335

>  <MMFF94 Energy>
25.706

$$$$
Compound 3883
Actelion Java MolfileCreator 2.0

  0  0  0  0  0  0              0 V3000
M  V30 BEGIN CTAB
M  V30 COUNTS 7 6 0 0 0
M  V30 BEGIN ATOM
M  V30 1 O 1.3233 1.2454 -0.2334 0
M  V30 2 C 0.8221 0.0949 -0.1344 0
M  V30 3 O 1.6455 -1.0221 -0.1875 0 CHG=-1
M  V30 4 C -0.6419 -0.066 0.0971 0
M  V30 5 H -1.2047 0.7064 -0.4681 0
M  V30 6 H -0.9715 -1.0701 -0.2428 0
M  V30 7 H -0.8593 0.0414 1.1801 0
M  V30 END ATOM
M  V30 BEGIN BOND
M  V30 1 2 1 2
M  V30 2 1 2 3
M  V30 3 1 2 4
M  V30 4 1 4 5
M  V30 5 1 4 6
M  V30 6 1 4 7
M  V30 END BOND
M  V30 END CTAB
M  END
>  <Structure No>
3883

>  <LogS>
0.2179

>  <MMFF94 Energy>
1.0491

$$$$
Compound 3884
Actelion Java MolfileCreator 2.0

  0  0  0  0  0  0              0 V3000
M  V30 BEGIN CTAB
M  V30 COUNTS 17 16 0 0 0
M  V30 BEGIN ATOM
M  V30 1 O -0.3803 -0.076 -1.1413 0
M  V30 2 C -1.3442 -0.967 -0.6122 0
M  V30 3 C 0.8746 -0.2896 -0.5285 0
M  V30 4 C -1.9695 -0.3989 0.6315 0
M  V30 5 C 1.8404 0.7528 -1.0068 0
M  V30 6 C -2.6428 0.7541 0.6089 0
M  V30 7 C 3.1053 0.7681 -0.5796 0
M  V30 8 H -0.928 -1.9801 -0.4026 0
M  V30 9 H -2.1408 -1.1101 -1.3726 0
M  V30 10 H 0.7964 -0.2118 0.5803 0
M  V30 11 H 1.2725 -1.2916 -0.807 0
M  V30 12 H -1.8772 -0.9434 1.5663 0
M  V30 13 H 1.5108 1.511 -1.7117 0
M  V30 14 H -2.7544 1.3171 -0.3127 0
M  V30 15 H -3.0876 1.1414 1.5198 0
M  V30 16 H 3.79 1.5305 -0.9364 0
M  V30 17 H 3.4651 0.0245 0.1252 0
M  V30 END ATOM
M  V30 BEGIN BOND
M  V30 1 1 1 2
M  V30 2 1 1 3
M  V30 3 1 2 4
M  V30 4 1 3 5
M  V30 5 2 4 6
M  V30 6 2 5 7
M  V30 7 1 2 8
M  V30 8 1 2 9
M  V30 9 1 3 10
M  V30 10 1 3 11
M  V30 11 1 4 12
M  V30 12 1 5 13
M  V30 13 1 6 14
M  V30 14 1 6 15
M  V30 15 1 7 16
M  V30 16 1 7 17
M  V30 END BOND
M  V30 END CTAB
M  END
>  <Structure No>
3884

>  <LogS>
-0.0206

>  <MMFF94 Energy>
9.4279

$$$$
Compound 3885
Actelion Java MolfileCreator 2.0

  0  0  0  0  0  0              0 V3000
M  V30 BEGIN CTAB
M  V30 COUNTS 4 3 0 0 0
M  V30 BEGIN ATOM
M  V30 1 O -0.8545 -0.8545 0.0 0
M  V30 2 C -0.0065 0.0743 0.0261 0
M  V30 3 O 1.3484 -0.2239 0.0681 0 CHG=-1
M  V30 4 H -0.3331 1.1052 0.0158 0
M  V30 END ATOM
M  V30 BEGIN BOND
M  V30 1 2 1 2
M  V30 2 1 2 3
M  V30 3 1 2 4
M  V30 END BOND
M  V30 END CTAB
M  END
>  <Structure No>
3885

>  <LogS>
-0.4755

>  <MMFF94 Energy>
0.012811

$$$$
Compound 3886
Actelion Java MolfileCreator 2.0

  0  0  0  0  0  0              0 V3000
M  V30 BEGIN CTAB
M  V30 COUNTS 8 7 0 0 0
M  V30 BEGIN ATOM
M  V30 1 S 0.8739 0.0 0.0 0
M  V30 2 F 1.3656 1.5936 -0.1426 0
M  V30 3 O 1.3843 -0.7874 -1.1731 0
M  V30 4 O 1.4257 -0.5813 1.2708 0
M  V30 5 C -0.9023 -0.07 0.0361 0
M  V30 6 H -1.3092 0.3607 -0.9018 0
M  V30 7 H -1.2787 0.5128 0.902 0
M  V30 8 H -1.2314 -1.1254 0.1308 0
M  V30 END ATOM
M  V30 BEGIN BOND
M  V30 1 1 1 2
M  V30 2 2 1 3
M  V30 3 2 1 4
M  V30 4 1 1 5
M  V30 5 1 5 6
M  V30 6 1 5 7
M  V30 7 1 5 8
M  V30 END BOND
M  V30 END CTAB
M  END
>  <Structure No>
3886

>  <LogS>
-0.5145

>  <MMFF94 Energy>
2.3668

$$$$
Compound 3887
Actelion Java MolfileCreator 2.0

  0  0  0  0  0  0              0 V3000
M  V30 BEGIN CTAB
M  V30 COUNTS 15 14 0 0 0
M  V30 BEGIN ATOM
M  V30 1 Cl 2.7696 -0.079 0.3952 0
M  V30 2 C 1.29 -0.5663 -0.4818 0
M  V30 3 C 0.0044 -0.1511 0.2637 0
M  V30 4 O 0.0499 -0.6853 1.566 0
M  V30 5 C -1.2148 -0.7233 -0.4847 0
M  V30 6 C -0.104 1.3867 0.3278 0
M  V30 7 H 1.3197 -1.6712 -0.5978 0
M  V30 8 H 1.3149 -0.1142 -1.4969 0
M  V30 9 H -0.7796 -0.4112 2.0393 0
M  V30 10 H -2.1587 -0.4291 0.0223 0
M  V30 11 H -1.1675 -1.8333 -0.5083 0
M  V30 12 H -1.2463 -0.3465 -1.53 0
M  V30 13 H 0.727 1.8148 0.9267 0
M  V30 14 H -0.0715 1.8255 -0.6926 0
M  V30 15 H -1.0594 1.6898 0.808 0
M  V30 END ATOM
M  V30 BEGIN BOND
M  V30 1 1 1 2
M  V30 2 1 2 3
M  V30 3 1 3 4
M  V30 4 1 3 5
M  V30 5 1 3 6
M  V30 6 1 2 7
M  V30 7 1 2 8
M  V30 8 1 4 9
M  V30 9 1 5 10
M  V30 10 1 5 11
M  V30 11 1 5 12
M  V30 12 1 6 13
M  V30 13 1 6 14
M  V30 14 1 6 15
M  V30 END BOND
M  V30 END CTAB
M  END
>  <Structure No>
3887

>  <LogS>
0.1602

>  <MMFF94 Energy>
24.24

$$$$
Compound 3888
Actelion Java MolfileCreator 2.0

  0  0  0  0  0  0              0 V3000
M  V30 BEGIN CTAB
M  V30 COUNTS 51 55 0 0 0
M  V30 BEGIN ATOM
M  V30 1 O 4.1555 -0.9766 -1.7095 0
M  V30 2 C 4.5231 -1.5408 -0.6439 0
M  V30 3 O 3.6547 -2.381 0.0623 0
M  V30 4 C 5.9387 -1.4116 -0.1955 0
M  V30 5 C 2.2588 -2.3762 -0.0605 0
M  V30 6 C 1.5123 -1.2118 -0.3006 0
M  V30 7 C 1.5402 -3.5928 0.0756 0
M  V30 8 O 1.9237 0.101 -0.592 0
M  V30 9 C 0.1512 -1.2878 -0.3637 0
M  V30 10 C 0.1285 -3.6363 -0.0939 0
M  V30 11 C 0.78 0.7123 -1.2104 0 CFG=1
M  V30 12 C -0.5877 -2.4469 -0.3251 0
M  V30 13 C -0.4018 0.0346 -0.5258 0 CFG=1
M  V30 14 C 0.5528 2.227 -1.2886 0 CFG=2
M  V30 15 C -2.0788 -2.3631 -0.6674 0
M  V30 16 C -1.5852 0.0449 -1.4586 0 CFG=1
M  V30 17 C -0.7848 0.5802 0.8934 0
M  V30 18 O 0.8559 2.8407 -0.0367 0
M  V30 19 C -0.9238 2.4866 -1.7039 0
M  V30 20 C -2.6552 -0.8764 -0.7915 0 CFG=2
M  V30 21 C -1.9031 1.5195 -1.7284 0
M  V30 22 C -1.9779 -0.19 1.4886 0
M  V30 23 C 0.9639 4.2239 0.138 0
M  V30 24 N -3.0882 -0.297 0.5149 0 CHG=1 CFG=2
M  V30 25 O 0.8246 5.012 -0.8363 0
M  V30 26 C 1.2054 4.773 1.5023 0
M  V30 27 C -4.2297 -1.0212 1.106 0
M  V30 28 H 6.5601 -2.1753 -0.7074 0
M  V30 29 H 6.0024 -1.5649 0.9021 0
M  V30 30 H 6.3257 -0.3996 -0.4384 0
M  V30 31 H 2.079 -4.5123 0.2633 0
M  V30 32 H -0.3914 -4.5846 -0.0544 0
M  V30 33 H 0.8215 0.387 -2.2812 0
M  V30 34 H 1.2283 2.6427 -2.0687 0
M  V30 35 H -2.2092 -2.8547 -1.655 0
M  V30 36 H -2.6552 -2.9714 0.0546 0
M  V30 37 H -1.3199 -0.4121 -2.4401 0
M  V30 38 H -1.0855 1.6462 0.8527 0
M  V30 39 H 0.0807 0.5142 1.5893 0
M  V30 40 H -1.2102 3.5071 -1.9361 0
M  V30 41 H -3.5317 -0.9084 -1.478 0
M  V30 42 H -2.9138 1.7945 -2.0125 0
M  V30 43 H -2.3239 0.3528 2.3973 0
M  V30 44 H -1.6461 -1.1958 1.8272 0
M  V30 45 H -3.4368 0.6743 0.33 0
M  V30 46 H 0.2412 5.0972 1.9459 0
M  V30 47 H 1.8954 5.6415 1.447 0
M  V30 48 H 1.6601 3.994 2.1496 0
M  V30 49 H -3.9184 -1.98 1.571 0
M  V30 50 H -4.6992 -0.404 1.9038 0
M  V30 51 H -5.0108 -1.2239 0.3411 0
M  V30 END ATOM
M  V30 BEGIN BOND
M  V30 1 2 1 2
M  V30 2 1 2 3
M  V30 3 1 2 4
M  V30 4 1 3 5
M  V30 5 2 5 6
M  V30 6 1 5 7
M  V30 7 1 6 8
M  V30 8 1 6 9
M  V30 9 2 7 10
M  V30 10 1 8 11
M  V30 11 2 9 12
M  V30 12 1 9 13
M  V30 13 1 11 14
M  V30 14 1 12 15
M  V30 15 1 13 16
M  V30 16 1 13 17
M  V30 17 1 14 18
M  V30 18 1 14 19
M  V30 19 1 15 20
M  V30 20 1 16 21
M  V30 21 1 17 22
M  V30 22 1 18 23
M  V30 23 1 20 24
M  V30 24 2 23 25
M  V30 25 1 23 26
M  V30 26 1 24 27
M  V30 27 1 10 12
M  V30 28 1 11 13
M  V30 29 1 16 20
M  V30 30 2 19 21
M  V30 31 1 22 24
M  V30 32 1 4 28
M  V30 33 1 4 29
M  V30 34 1 4 30
M  V30 35 1 7 31
M  V30 36 1 10 32
M  V30 37 1 11 33
M  V30 38 1 14 34
M  V30 39 1 15 35
M  V30 40 1 15 36
M  V30 41 1 16 37
M  V30 42 1 17 38
M  V30 43 1 17 39
M  V30 44 1 19 40
M  V30 45 1 20 41
M  V30 46 1 21 42
M  V30 47 1 22 43
M  V30 48 1 22 44
M  V30 49 1 24 45
M  V30 50 1 26 46
M  V30 51 1 26 47
M  V30 52 1 26 48
M  V30 53 1 27 49
M  V30 54 1 27 50
M  V30 55 1 27 51
M  V30 END BOND
M  V30 BEGIN COLLECTION
M  V30 MDLV30/STEABS ATOMS=(6 11 13 14 16 20 24)
M  V30 END COLLECTION
M  V30 END CTAB
M  END
>  <Structure No>
3888

>  <LogS>
-2.7894

>  <MMFF94 Energy>
112.16

$$$$
Compound 3889
Actelion Java MolfileCreator 2.0

  0  0  0  0  0  0              0 V3000
M  V30 BEGIN CTAB
M  V30 COUNTS 23 22 0 0 0
M  V30 BEGIN ATOM
M  V30 1 C 0.1537 0.5383 0.0 0
M  V30 2 C -1.323 0.1771 -0.385 0
M  V30 3 C 1.1911 -0.3544 -0.7528 0
M  V30 4 C 0.4128 1.9965 -0.4488 0
M  V30 5 C 0.3935 0.483 1.5284 0
M  V30 6 C -2.0153 -0.8771 0.4903 0
M  V30 7 C 1.0465 -1.8651 -0.5575 0
M  V30 8 H -1.3598 -0.1594 -1.4443 0
M  V30 9 H -1.9629 1.0862 -0.3315 0
M  V30 10 H 1.1281 -0.1546 -1.8456 0
M  V30 11 H 2.2188 -0.0677 -0.4365 0
M  V30 12 H -0.2542 2.7035 0.0912 0
M  V30 13 H 1.4639 2.296 -0.2438 0
M  V30 14 H 0.2259 2.1116 -1.5388 0
M  V30 15 H 0.2609 -0.5402 1.9331 0
M  V30 16 H 1.427 0.8096 1.775 0
M  V30 17 H -0.3165 1.1554 2.0567 0
M  V30 18 H -1.4192 -1.8038 0.582 0
M  V30 19 H -2.9953 -1.1406 0.0395 0
M  V30 20 H -2.209 -0.4704 1.5053 0
M  V30 21 H 1.906 -2.3765 -1.04 0
M  V30 22 H 1.0496 -2.1398 0.5161 0
M  V30 23 H 0.1236 -2.2356 -1.049 0
M  V30 END ATOM
M  V30 BEGIN BOND
M  V30 1 1 1 2
M  V30 2 1 1 3
M  V30 3 1 1 4
M  V30 4 1 1 5
M  V30 5 1 2 6
M  V30 6 1 3 7
M  V30 7 1 2 8
M  V30 8 1 2 9
M  V30 9 1 3 10
M  V30 10 1 3 11
M  V30 11 1 4 12
M  V30 12 1 4 13
M  V30 13 1 4 14
M  V30 14 1 5 15
M  V30 15 1 5 16
M  V30 16 1 5 17
M  V30 17 1 6 18
M  V30 18 1 6 19
M  V30 19 1 6 20
M  V30 20 1 7 21
M  V30 21 1 7 22
M  V30 22 1 7 23
M  V30 END BOND
M  V30 END CTAB
M  END
>  <Structure No>
3889

>  <LogS>
-4.2286

>  <MMFF94 Energy>
11.779

$$$$
Compound 3890
Actelion Java MolfileCreator 2.0

  0  0  0  0  0  0              0 V3000
M  V30 BEGIN CTAB
M  V30 COUNTS 15 14 0 0 0
M  V30 BEGIN ATOM
M  V30 1 C 0.7569 -1.0598 -0.3784 0
M  V30 2 C 1.6971 -0.9152 0.5631 0
M  V30 3 C -0.4213 -0.1216 -0.5147 0
M  V30 4 C -1.3093 -0.1543 0.7346 0
M  V30 5 C 0.0354 1.3067 -0.833 0
M  V30 6 H 0.8428 -1.8875 -1.0762 0
M  V30 7 H 1.655 -0.1042 1.2828 0
M  V30 8 H 2.5224 -1.6176 0.6163 0
M  V30 9 H -1.0353 -0.4761 -1.3718 0
M  V30 10 H -1.6323 -1.1961 0.9457 0
M  V30 11 H -0.7672 0.2407 1.62 0
M  V30 12 H -2.2176 0.464 0.5711 0
M  V30 13 H 0.6737 1.3093 -1.7423 0
M  V30 14 H -0.8468 1.9533 -1.0266 0
M  V30 15 H 0.6119 1.7391 0.0123 0
M  V30 END ATOM
M  V30 BEGIN BOND
M  V30 1 2 1 2
M  V30 2 1 1 3
M  V30 3 1 3 4
M  V30 4 1 3 5
M  V30 5 1 1 6
M  V30 6 1 2 7
M  V30 7 1 2 8
M  V30 8 1 3 9
M  V30 9 1 4 10
M  V30 10 1 4 11
M  V30 11 1 4 12
M  V30 12 1 5 13
M  V30 13 1 5 14
M  V30 14 1 5 15
M  V30 END BOND
M  V30 END CTAB
M  END
>  <Structure No>
3890

>  <LogS>
-2.732

>  <MMFF94 Energy>
8.9799

$$$$
Compound 3891
Actelion Java MolfileCreator 2.0

  0  0  0  0  0  0              0 V3000
M  V30 BEGIN CTAB
M  V30 COUNTS 15 14 0 0 0
M  V30 BEGIN ATOM
M  V30 1 C -0.6052 0.0756 -0.0756 0
M  V30 2 C -1.2559 0.6079 0.9698 0
M  V30 3 C 0.7933 0.5379 -0.4148 0
M  V30 4 C -1.2885 -0.9691 -0.9167 0
M  V30 5 C 1.8118 -0.0151 0.5779 0
M  V30 6 H -2.2635 0.288 1.2193 0
M  V30 7 H -0.7901 1.3709 1.5864 0
M  V30 8 H 1.0765 0.2028 -1.4356 0
M  V30 9 H 0.8337 1.649 -0.411 0
M  V30 10 H -1.5647 -1.8387 -0.2834 0
M  V30 11 H -0.6266 -1.3298 -1.7316 0
M  V30 12 H -2.2077 -0.5434 -1.3717 0
M  V30 13 H 1.7857 -1.1258 0.5755 0
M  V30 14 H 2.831 0.3174 0.2889 0
M  V30 15 H 1.5973 0.3544 1.6033 0
M  V30 END ATOM
M  V30 BEGIN BOND
M  V30 1 2 1 2
M  V30 2 1 1 3
M  V30 3 1 1 4
M  V30 4 1 3 5
M  V30 5 1 2 6
M  V30 6 1 2 7
M  V30 7 1 3 8
M  V30 8 1 3 9
M  V30 9 1 4 10
M  V30 10 1 4 11
M  V30 11 1 4 12
M  V30 12 1 5 13
M  V30 13 1 5 14
M  V30 14 1 5 15
M  V30 END BOND
M  V30 END CTAB
M  END
>  <Structure No>
3891

>  <LogS>
-2.7307

>  <MMFF94 Energy>
7.1199

$$$$
Compound 3892
Actelion Java MolfileCreator 2.0

  0  0  0  0  0  0              0 V3000
M  V30 BEGIN CTAB
M  V30 COUNTS 12 11 0 0 0
M  V30 BEGIN ATOM
M  V30 1 Cl -2.4436 -0.7877 -0.5513 0
M  V30 2 C -0.8893 -1.0655 0.2754 0
M  V30 3 C 0.0031 0.1406 0.1288 0
M  V30 4 C -0.3038 1.2824 0.7618 0
M  V30 5 C 1.2529 0.0712 -0.7071 0
M  V30 6 H -1.0763 -1.2704 1.3512 0
M  V30 7 H -0.4177 -1.9682 -0.1656 0
M  V30 8 H 0.3332 2.1574 0.6714 0
M  V30 9 H -1.1952 1.3551 1.3782 0
M  V30 10 H 1.3731 -0.9277 -1.1757 0
M  V30 11 H 1.206 0.8312 -1.5156 0
M  V30 12 H 2.1417 0.2703 -0.0717 0
M  V30 END ATOM
M  V30 BEGIN BOND
M  V30 1 1 1 2
M  V30 2 1 2 3
M  V30 3 2 3 4
M  V30 4 1 3 5
M  V30 5 1 2 6
M  V30 6 1 2 7
M  V30 7 1 4 8
M  V30 8 1 4 9
M  V30 9 1 5 10
M  V30 10 1 5 11
M  V30 11 1 5 12
M  V30 END BOND
M  V30 END CTAB
M  END
>  <Structure No>
3892

>  <LogS>
-1.8108

>  <MMFF94 Energy>
11.478

$$$$
Compound 3893
Actelion Java MolfileCreator 2.0

  0  0  0  0  0  0              0 V3000
M  V30 BEGIN CTAB
M  V30 COUNTS 9 8 0 0 0
M  V30 BEGIN ATOM
M  V30 1 Cl 0.4212 1.8546 -1.0956 0
M  V30 2 C 0.2143 0.3551 -0.19 0
M  V30 3 C 1.2724 -0.3452 0.2457 0
M  V30 4 C -1.1757 -0.1335 0.0905 0
M  V30 5 Cl 2.9294 0.1712 -0.0484 0
M  V30 6 H 1.1229 -1.2662 0.8016 0
M  V30 7 H -1.3221 -1.1367 -0.3628 0
M  V30 8 H -1.926 0.5626 -0.3392 0
M  V30 9 H -1.3393 -0.1984 1.187 0
M  V30 END ATOM
M  V30 BEGIN BOND
M  V30 1 1 1 2
M  V30 2 2 2 3
M  V30 3 1 2 4
M  V30 4 1 3 5
M  V30 5 1 3 6
M  V30 6 1 4 7
M  V30 7 1 4 8
M  V30 8 1 4 9
M  V30 END BOND
M  V30 END CTAB
M  END
>  <Structure No>
3893

>  <LogS>
-1.6138

>  <MMFF94 Energy>
3.7731

$$$$
Compound 3894
Actelion Java MolfileCreator 2.0

  0  0  0  0  0  0              0 V3000
M  V30 BEGIN CTAB
M  V30 COUNTS 15 14 0 0 0
M  V30 BEGIN ATOM
M  V30 1 Cl 0.4739 -2.134 -0.7899 0
M  V30 2 C 0.5629 -0.3647 -0.5324 0 CFG=1
M  V30 3 C -0.5923 0.1168 0.3758 0 CFG=1
M  V30 4 C 1.9315 -0.034 0.0678 0
M  V30 5 O -0.4655 1.4939 0.6288 0
M  V30 6 C -1.9558 -0.1221 -0.2789 0
M  V30 7 H 0.4868 0.1327 -1.524 0
M  V30 8 H -0.5707 -0.4584 1.3328 0
M  V30 9 H 2.072 1.0653 0.1369 0
M  V30 10 H 2.737 -0.4392 -0.5805 0
M  V30 11 H 2.0299 -0.4789 1.0811 0
M  V30 12 H 0.0267 1.5919 1.4856 0
M  V30 13 H -2.7592 0.2833 0.3721 0
M  V30 14 H -2.1442 -1.2069 -0.4181 0
M  V30 15 H -2.009 0.3872 -1.2649 0
M  V30 END ATOM
M  V30 BEGIN BOND
M  V30 1 1 1 2
M  V30 2 1 2 3
M  V30 3 1 2 4
M  V30 4 1 3 5
M  V30 5 1 3 6
M  V30 6 1 2 7
M  V30 7 1 3 8
M  V30 8 1 4 9
M  V30 9 1 4 10
M  V30 10 1 4 11
M  V30 11 1 5 12
M  V30 12 1 6 13
M  V30 13 1 6 14
M  V30 14 1 6 15
M  V30 END BOND
M  V30 BEGIN COLLECTION
M  V30 MDLV30/STEABS ATOMS=(2 2 3)
M  V30 END COLLECTION
M  V30 END CTAB
M  END
>  <Structure No>
3894

>  <LogS>
-0.2122

>  <MMFF94 Energy>
20.265

$$$$
Compound 3895
Actelion Java MolfileCreator 2.0

  0  0  0  0  0  0              0 V3000
M  V30 BEGIN CTAB
M  V30 COUNTS 12 13 0 0 0
M  V30 BEGIN ATOM
M  V30 1 O -1.6949 -0.5647 0.484 0
M  V30 2 C -0.5959 0.2659 0.1969 0 CFG=2
M  V30 3 C -1.7696 0.1971 -0.6991 0
M  V30 4 C 0.6148 -0.548 -0.2439 0 CFG=2
M  V30 5 O 1.6716 -0.4353 0.6784 0
M  V30 6 C 1.8305 0.2351 -0.5509 0
M  V30 7 H -0.5181 1.1217 0.9013 0
M  V30 8 H -1.6943 -0.449 -1.5992 0
M  V30 9 H -2.5081 1.0197 -0.6014 0
M  V30 10 H 0.5268 -1.5735 -0.6624 0
M  V30 11 H 2.5875 -0.2673 -1.1877 0
M  V30 12 H 1.7818 1.3369 -0.4177 0
M  V30 END ATOM
M  V30 BEGIN BOND
M  V30 1 1 1 2
M  V30 2 1 1 3
M  V30 3 1 2 4
M  V30 4 1 4 5
M  V30 5 1 4 6
M  V30 6 1 2 3
M  V30 7 1 5 6
M  V30 8 1 2 7
M  V30 9 1 3 8
M  V30 10 1 3 9
M  V30 11 1 4 10
M  V30 12 1 6 11
M  V30 13 1 6 12
M  V30 END BOND
M  V30 BEGIN COLLECTION
M  V30 MDLV30/STEABS ATOMS=(2 2 4)
M  V30 END COLLECTION
M  V30 END CTAB
M  END
>  <Structure No>
3895

>  <LogS>
1.065

>  <MMFF94 Energy>
10.132

$$$$
Compound 3896
Actelion Java MolfileCreator 2.0

  0  0  0  0  0  0              0 V3000
M  V30 BEGIN CTAB
M  V30 COUNTS 26 25 0 0 0
M  V30 BEGIN ATOM
M  V30 1 C -0.9258 0.0 0.0 0
M  V30 2 C 0.5585 0.0739 -0.5439 0 CFG=1
M  V30 3 C -1.3432 -1.4409 0.3804 0
M  V30 4 C -1.9148 0.5198 -1.0732 0
M  V30 5 C -1.091 0.907 1.2425 0
M  V30 6 C 1.6553 -0.2257 0.5292 0
M  V30 7 C 0.7993 -0.8183 -1.781 0
M  V30 8 C 2.3378 1.0433 1.0436 0
M  V30 9 H 0.7146 1.1151 -0.9083 0
M  V30 10 H -2.3732 -1.447 0.7986 0
M  V30 11 H -1.3469 -2.107 -0.507 0
M  V30 12 H -0.6713 -1.8786 1.1451 0
M  V30 13 H -2.9415 0.6082 -0.6557 0
M  V30 14 H -1.6071 1.522 -1.4418 0
M  V30 15 H -1.9842 -0.1717 -1.9377 0
M  V30 16 H -0.7803 1.9481 1.0094 0
M  V30 17 H -2.1514 0.9341 1.5754 0
M  V30 18 H -0.4946 0.5384 2.1021 0
M  V30 19 H 1.2494 -0.7856 1.3939 0
M  V30 20 H 2.4574 -0.8725 0.1099 0
M  V30 21 H 1.8225 -0.6418 -2.1769 0
M  V30 22 H 0.7148 -1.8941 -1.5226 0
M  V30 23 H 0.0992 -0.5779 -2.6048 0
M  V30 24 H 3.1019 0.7728 1.8026 0
M  V30 25 H 2.8441 1.5716 0.208 0
M  V30 26 H 1.6041 1.728 1.5148 0
M  V30 END ATOM
M  V30 BEGIN BOND
M  V30 1 1 1 2
M  V30 2 1 1 3
M  V30 3 1 1 4
M  V30 4 1 1 5
M  V30 5 1 2 6
M  V30 6 1 2 7
M  V30 7 1 6 8
M  V30 8 1 2 9
M  V30 9 1 3 10
M  V30 10 1 3 11
M  V30 11 1 3 12
M  V30 12 1 4 13
M  V30 13 1 4 14
M  V30 14 1 4 15
M  V30 15 1 5 16
M  V30 16 1 5 17
M  V30 17 1 5 18
M  V30 18 1 6 19
M  V30 19 1 6 20
M  V30 20 1 7 21
M  V30 21 1 7 22
M  V30 22 1 7 23
M  V30 23 1 8 24
M  V30 24 1 8 25
M  V30 25 1 8 26
M  V30 END BOND
M  V30 BEGIN COLLECTION
M  V30 MDLV30/STEABS ATOMS=(1 2)
M  V30 END COLLECTION
M  V30 END CTAB
M  END
>  <Structure No>
3896

>  <LogS>
-4.6776

>  <MMFF94 Energy>
22.329

$$$$
Compound 3897
Actelion Java MolfileCreator 2.0

  0  0  0  0  0  0              0 V3000
M  V30 BEGIN CTAB
M  V30 COUNTS 23 22 0 0 0
M  V30 BEGIN ATOM
M  V30 1 C -0.3074 -0.4611 -0.2305 0 CFG=2
M  V30 2 C 1.0385 0.045 0.3888 0
M  V30 3 C -1.5344 -0.1147 0.6672 0
M  V30 4 C -0.2757 -1.9816 -0.4833 0
M  V30 5 C 2.2559 -0.3377 -0.4738 0
M  V30 6 C 1.0386 1.571 0.59 0
M  V30 7 C -2.3336 1.0749 0.1313 0
M  V30 8 H -0.4327 0.0186 -1.2278 0
M  V30 9 H 1.1739 -0.4275 1.3873 0
M  V30 10 H -2.2418 -0.9705 0.7342 0
M  V30 11 H -1.219 0.0929 1.7124 0
M  V30 12 H 0.4638 -2.24 -1.2685 0
M  V30 13 H -1.2612 -2.3339 -0.857 0
M  V30 14 H -0.0295 -2.5285 0.452 0
M  V30 15 H 2.4297 -1.4331 -0.4463 0
M  V30 16 H 2.1082 -0.0127 -1.526 0
M  V30 17 H 3.1804 0.1376 -0.0815 0
M  V30 18 H 0.8245 2.0916 -0.3679 0
M  V30 19 H 2.0257 1.9145 0.9671 0
M  V30 20 H 0.2881 1.8724 1.3488 0
M  V30 21 H -1.6994 1.9799 0.045 0
M  V30 22 H -3.1744 1.2989 0.8213 0
M  V30 23 H -2.7535 0.8322 -0.868 0
M  V30 END ATOM
M  V30 BEGIN BOND
M  V30 1 1 1 2
M  V30 2 1 1 3
M  V30 3 1 1 4
M  V30 4 1 2 5
M  V30 5 1 2 6
M  V30 6 1 3 7
M  V30 7 1 1 8
M  V30 8 1 2 9
M  V30 9 1 3 10
M  V30 10 1 3 11
M  V30 11 1 4 12
M  V30 12 1 4 13
M  V30 13 1 4 14
M  V30 14 1 5 15
M  V30 15 1 5 16
M  V30 16 1 5 17
M  V30 17 1 6 18
M  V30 18 1 6 19
M  V30 19 1 6 20
M  V30 20 1 7 21
M  V30 21 1 7 22
M  V30 22 1 7 23
M  V30 END BOND
M  V30 BEGIN COLLECTION
M  V30 MDLV30/STEABS ATOMS=(1 1)
M  V30 END COLLECTION
M  V30 END CTAB
M  END
>  <Structure No>
3897

>  <LogS>
-4.2808

>  <MMFF94 Energy>
8.3915

$$$$
Compound 3898
Actelion Java MolfileCreator 2.0

  0  0  0  0  0  0              0 V3000
M  V30 BEGIN CTAB
M  V30 COUNTS 21 20 0 0 0
M  V30 BEGIN ATOM
M  V30 1 O -0.9978 -1.8427 -0.2301 0
M  V30 2 C -1.0189 -0.4609 0.0251 0 CFG=1
M  V30 3 C 0.1145 0.2327 -0.7805 0 CFG=2
M  V30 4 C -2.4043 0.0868 -0.3446 0
M  V30 5 C 1.487 -0.4676 -0.604 0
M  V30 6 C 0.2168 1.7353 -0.4585 0
M  V30 7 C 2.002 -0.4979 0.8377 0
M  V30 8 H -1.4619 -2.2849 0.5281 0
M  V30 9 H -0.8558 -0.2758 1.1126 0
M  V30 10 H -0.1369 0.1488 -1.8618 0
M  V30 11 H -3.1922 -0.5013 0.172 0
M  V30 12 H -2.5105 1.1429 -0.0216 0
M  V30 13 H -2.573 0.0165 -1.4403 0
M  V30 14 H 1.4226 -1.5116 -0.9797 0
M  V30 15 H 2.2426 0.0461 -1.2375 0
M  V30 16 H 1.121 2.1749 -0.931 0
M  V30 17 H 0.2652 1.9064 0.6374 0
M  V30 18 H -0.661 2.2793 -0.8642 0
M  V30 19 H 1.3234 -1.0869 1.4882 0
M  V30 20 H 2.1103 0.5289 1.243 0
M  V30 21 H 3.0007 -0.9827 0.8582 0
M  V30 END ATOM
M  V30 BEGIN BOND
M  V30 1 1 1 2
M  V30 2 1 2 3
M  V30 3 1 2 4
M  V30 4 1 3 5
M  V30 5 1 3 6
M  V30 6 1 5 7
M  V30 7 1 1 8
M  V30 8 1 2 9
M  V30 9 1 3 10
M  V30 10 1 4 11
M  V30 11 1 4 12
M  V30 12 1 4 13
M  V30 13 1 5 14
M  V30 14 1 5 15
M  V30 15 1 6 16
M  V30 16 1 6 17
M  V30 17 1 6 18
M  V30 18 1 7 19
M  V30 19 1 7 20
M  V30 20 1 7 21
M  V30 END BOND
M  V30 BEGIN COLLECTION
M  V30 MDLV30/STEABS ATOMS=(2 2 3)
M  V30 END COLLECTION
M  V30 END CTAB
M  END
>  <Structure No>
3898

>  <LogS>
-0.7216

>  <MMFF94 Energy>
9.9848

$$$$
Compound 3899
Actelion Java MolfileCreator 2.0

  0  0  0  0  0  0              0 V3000
M  V30 BEGIN CTAB
M  V30 COUNTS 19 18 0 0 0
M  V30 BEGIN ATOM
M  V30 1 O -0.7701 -0.0769 -1.9262 0
M  V30 2 C -0.9126 0.1989 -0.7438 0
M  V30 3 C -0.1154 -0.5482 0.3058 0 CFG=2
M  V30 4 C -1.878 1.2828 -0.3635 0
M  V30 5 C 1.4004 -0.3404 0.1114 0
M  V30 6 C -0.4638 -2.0402 0.2613 0
M  V30 7 C 1.8181 1.1135 0.334 0
M  V30 8 H -0.3881 -0.1802 1.3196 0
M  V30 9 H -2.8968 1.0099 -0.7095 0
M  V30 10 H -1.9059 1.4366 0.7351 0
M  V30 11 H -1.5736 2.2353 -0.8457 0
M  V30 12 H 1.7054 -0.6569 -0.9101 0
M  V30 13 H 1.9547 -0.9716 0.8402 0
M  V30 14 H -1.5563 -2.1815 0.4078 0
M  V30 15 H -0.1712 -2.4853 -0.714 0
M  V30 16 H 0.0662 -2.5816 1.0737 0
M  V30 17 H 1.3473 1.7761 -0.4222 0
M  V30 18 H 2.9208 1.201 0.2384 0
M  V30 19 H 1.5228 1.4491 1.3509 0
M  V30 END ATOM
M  V30 BEGIN BOND
M  V30 1 2 1 2
M  V30 2 1 2 3
M  V30 3 1 2 4
M  V30 4 1 3 5
M  V30 5 1 3 6
M  V30 6 1 5 7
M  V30 7 1 3 8
M  V30 8 1 4 9
M  V30 9 1 4 10
M  V30 10 1 4 11
M  V30 11 1 5 12
M  V30 12 1 5 13
M  V30 13 1 6 14
M  V30 14 1 6 15
M  V30 15 1 6 16
M  V30 16 1 7 17
M  V30 17 1 7 18
M  V30 18 1 7 19
M  V30 END BOND
M  V30 BEGIN COLLECTION
M  V30 MDLV30/STEABS ATOMS=(1 3)
M  V30 END COLLECTION
M  V30 END CTAB
M  END
>  <Structure No>
3899

>  <LogS>
-0.6805

>  <MMFF94 Energy>
5.4491

$$$$
Compound 3900
Actelion Java MolfileCreator 2.0

  0  0  0  0  0  0              0 V3000
M  V30 BEGIN CTAB
M  V30 COUNTS 21 20 0 0 0
M  V30 BEGIN ATOM
M  V30 1 O 0.3836 -1.7657 1.4584 0
M  V30 2 C -0.1972 -0.6286 0.8689 0 CFG=1
M  V30 3 C 0.9427 0.3882 0.5599 0
M  V30 4 C -1.0477 -1.0889 -0.3422 0
M  V30 5 C 1.7702 0.0249 -0.6811 0
M  V30 6 C 0.4604 1.8459 0.4951 0
M  V30 7 C -1.8921 0.0152 -0.9759 0
M  V30 8 H -0.3276 -2.2229 1.9797 0
M  V30 9 H -0.882 -0.1599 1.6152 0
M  V30 10 H 1.6415 0.349 1.4263 0
M  V30 11 H -0.4107 -1.5665 -1.1164 0
M  V30 12 H -1.7493 -1.8744 0.0152 0
M  V30 13 H 2.6715 0.6721 -0.7371 0
M  V30 14 H 2.1073 -1.0316 -0.6235 0
M  V30 15 H 1.1816 0.1702 -1.611 0
M  V30 16 H -0.1067 2.0565 -0.4306 0
M  V30 17 H 1.3363 2.5293 0.5132 0
M  V30 18 H -0.1749 2.0875 1.3734 0
M  V30 19 H -2.7098 -0.4424 -1.5719 0
M  V30 20 H -2.3476 0.6649 -0.1986 0
M  V30 21 H -1.2793 0.6214 -1.6722 0
M  V30 END ATOM
M  V30 BEGIN BOND
M  V30 1 1 1 2
M  V30 2 1 2 3
M  V30 3 1 2 4
M  V30 4 1 3 5
M  V30 5 1 3 6
M  V30 6 1 4 7
M  V30 7 1 1 8
M  V30 8 1 2 9
M  V30 9 1 3 10
M  V30 10 1 4 11
M  V30 11 1 4 12
M  V30 12 1 5 13
M  V30 13 1 5 14
M  V30 14 1 5 15
M  V30 15 1 6 16
M  V30 16 1 6 17
M  V30 17 1 6 18
M  V30 18 1 7 19
M  V30 19 1 7 20
M  V30 20 1 7 21
M  V30 END BOND
M  V30 BEGIN COLLECTION
M  V30 MDLV30/STEABS ATOMS=(1 2)
M  V30 END COLLECTION
M  V30 END CTAB
M  END
>  <Structure No>
3900

>  <LogS>
-0.7062

>  <MMFF94 Energy>
9.6037

$$$$
Compound 3901
Actelion Java MolfileCreator 2.0

  0  0  0  0  0  0              0 V3000
M  V30 BEGIN CTAB
M  V30 COUNTS 19 18 0 0 0
M  V30 BEGIN ATOM
M  V30 1 O 0.7698 0.9239 1.9256 0
M  V30 2 C 0.3689 0.5306 0.8399 0
M  V30 3 C -1.0714 0.0826 0.7071 0
M  V30 4 C 1.3194 0.5312 -0.332 0
M  V30 5 C -1.8563 1.0143 -0.2223 0
M  V30 6 C -1.1589 -1.3732 0.2366 0
M  V30 7 C 2.448 -0.472 -0.118 0
M  V30 8 H -1.5508 0.135 1.7108 0
M  V30 9 H 0.7903 0.2752 -1.2731 0
M  V30 10 H 1.7479 1.5492 -0.4525 0
M  V30 11 H -2.9306 0.7313 -0.2234 0
M  V30 12 H -1.7753 2.064 0.1327 0
M  V30 13 H -1.4768 0.9572 -1.264 0
M  V30 14 H -0.7597 -1.4876 -0.793 0
M  V30 15 H -0.5809 -2.0302 0.9213 0
M  V30 16 H -2.2172 -1.7109 0.2437 0
M  V30 17 H 2.0347 -1.4966 -0.0017 0
M  V30 18 H 3.127 -0.46 -0.9963 0
M  V30 19 H 3.0355 -0.208 0.7871 0
M  V30 END ATOM
M  V30 BEGIN BOND
M  V30 1 2 1 2
M  V30 2 1 2 3
M  V30 3 1 2 4
M  V30 4 1 3 5
M  V30 5 1 3 6
M  V30 6 1 4 7
M  V30 7 1 3 8
M  V30 8 1 4 9
M  V30 9 1 4 10
M  V30 10 1 5 11
M  V30 11 1 5 12
M  V30 12 1 5 13
M  V30 13 1 6 14
M  V30 14 1 6 15
M  V30 15 1 6 16
M  V30 16 1 7 17
M  V30 17 1 7 18
M  V30 18 1 7 19
M  V30 END BOND
M  V30 END CTAB
M  END
>  <Structure No>
3901

>  <LogS>
-0.8106

>  <MMFF94 Energy>
3.6886

$$$$
Compound 3902
Actelion Java MolfileCreator 2.0

  0  0  0  0  0  0              0 V3000
M  V30 BEGIN CTAB
M  V30 COUNTS 14 13 0 0 0
M  V30 BEGIN ATOM
M  V30 1 O 2.4687 -1.0794 0.0 0
M  V30 2 C 1.6265 -0.3234 0.5519 0
M  V30 3 O 1.5042 -0.3299 1.9365 0 CHG=-1
M  V30 4 C 0.7292 0.5397 -0.286 0 CFG=2
M  V30 5 O 0.3292 1.6637 0.4542 0
M  V30 6 C -0.4969 -0.25 -0.7876 0
M  V30 7 N -1.3734 -0.6789 0.3055 0 CHG=1
M  V30 8 H 1.3151 0.8762 -1.173 0
M  V30 9 H -0.0402 2.3179 -0.1948 0
M  V30 10 H -1.0752 0.3922 -1.4883 0
M  V30 11 H -0.1561 -1.1406 -1.3614 0
M  V30 12 H -2.2065 -1.1637 -0.0992 0
M  V30 13 H -1.7034 0.1467 0.8554 0
M  V30 14 H -0.8736 -1.3488 0.9329 0
M  V30 END ATOM
M  V30 BEGIN BOND
M  V30 1 2 1 2
M  V30 2 1 2 3
M  V30 3 1 2 4
M  V30 4 1 4 5
M  V30 5 1 4 6
M  V30 6 1 6 7
M  V30 7 1 4 8
M  V30 8 1 5 9
M  V30 9 1 6 10
M  V30 10 1 6 11
M  V30 11 1 7 12
M  V30 12 1 7 13
M  V30 13 1 7 14
M  V30 END BOND
M  V30 BEGIN COLLECTION
M  V30 MDLV30/STEABS ATOMS=(1 4)
M  V30 END COLLECTION
M  V30 END CTAB
M  END
>  <Structure No>
3902

>  <LogS>
-0.8229

>  <MMFF94 Energy>
-23.011

$$$$
Compound 3903
Actelion Java MolfileCreator 2.0

  0  0  0  0  0  0              0 V3000
M  V30 BEGIN CTAB
M  V30 COUNTS 26 25 0 0 0
M  V30 BEGIN ATOM
M  V30 1 C -0.077 -0.7707 -0.1541 0
M  V30 2 C 0.9197 -0.1458 0.8857 0
M  V30 3 C -1.4657 -0.0588 -0.3102 0
M  V30 4 C 0.569 -1.0688 -1.5233 0
M  V30 5 C 2.1529 -1.0416 1.0981 0
M  V30 6 C 1.3691 1.2904 0.5704 0
M  V30 7 C -2.1104 0.3 1.0367 0
M  V30 8 C -1.4818 1.1534 -1.2611 0
M  V30 9 H -0.3296 -1.773 0.2621 0
M  V30 10 H 0.4085 -0.1162 1.8723 0
M  V30 11 H -2.1448 -0.8083 -0.7772 0
M  V30 12 H 1.3804 -1.8187 -1.4224 0
M  V30 13 H -0.1849 -1.5018 -2.2149 0
M  V30 14 H 0.9862 -0.1529 -1.9874 0
M  V30 15 H 1.8462 -2.0949 1.2721 0
M  V30 16 H 2.7206 -0.7021 1.991 0
M  V30 17 H 2.833 -0.9989 0.2212 0
M  V30 18 H 2.2166 1.5827 1.2271 0
M  V30 19 H 1.6998 1.3967 -0.4819 0
M  V30 20 H 0.5549 2.0087 0.7873 0
M  V30 21 H -3.1724 0.5892 0.8846 0
M  V30 22 H -2.0894 -0.5755 1.72 0
M  V30 23 H -1.5871 1.1523 1.5174 0
M  V30 24 H -0.8329 1.9751 -0.9114 0
M  V30 25 H -1.1695 0.8594 -2.284 0
M  V30 26 H -2.5159 1.5516 -1.3427 0
M  V30 END ATOM
M  V30 BEGIN BOND
M  V30 1 1 1 2
M  V30 2 1 1 3
M  V30 3 1 1 4
M  V30 4 1 2 5
M  V30 5 1 2 6
M  V30 6 1 3 7
M  V30 7 1 3 8
M  V30 8 1 1 9
M  V30 9 1 2 10
M  V30 10 1 3 11
M  V30 11 1 4 12
M  V30 12 1 4 13
M  V30 13 1 4 14
M  V30 14 1 5 15
M  V30 15 1 5 16
M  V30 16 1 5 17
M  V30 17 1 6 18
M  V30 18 1 6 19
M  V30 19 1 6 20
M  V30 20 1 7 21
M  V30 21 1 7 22
M  V30 22 1 7 23
M  V30 23 1 8 24
M  V30 24 1 8 25
M  V30 25 1 8 26
M  V30 END BOND
M  V30 END CTAB
M  END
>  <Structure No>
3903

>  <LogS>
-4.6961

>  <MMFF94 Energy>
17.026

$$$$
Compound 3904
Actelion Java MolfileCreator 2.0

  0  0  0  0  0  0              0 V3000
M  V30 BEGIN CTAB
M  V30 COUNTS 22 21 0 0 0
M  V30 BEGIN ATOM
M  V30 1 O -0.6949 -1.9314 0.0772 0
M  V30 2 C -0.1724 -0.8271 0.0162 0
M  V30 3 C 1.3016 -0.7346 -0.319 0
M  V30 4 C -1.0144 0.4063 0.2773 0
M  V30 5 C 1.5249 0.0279 -1.6295 0
M  V30 6 C 2.0934 -0.1051 0.8323 0
M  V30 7 C -2.1434 0.5113 -0.7527 0
M  V30 8 C -1.5764 0.3786 1.7022 0
M  V30 9 H 1.695 -1.7657 -0.4656 0
M  V30 10 H -0.3892 1.3192 0.1824 0
M  V30 11 H 1.2224 1.0919 -1.5335 0
M  V30 12 H 0.9366 -0.4401 -2.4476 0
M  V30 13 H 2.5991 -0.0082 -1.9104 0
M  V30 14 H 3.1811 -0.1445 0.6101 0
M  V30 15 H 1.9112 -0.6683 1.7727 0
M  V30 16 H 1.8045 0.9556 0.9877 0
M  V30 17 H -2.8309 -0.3585 -0.6767 0
M  V30 18 H -2.7262 1.4426 -0.5871 0
M  V30 19 H -1.7194 0.5455 -1.7792 0
M  V30 20 H -0.7457 0.3175 2.4376 0
M  V30 21 H -2.1509 1.3079 1.9045 0
M  V30 22 H -2.2484 -0.4949 1.8459 0
M  V30 END ATOM
M  V30 BEGIN BOND
M  V30 1 2 1 2
M  V30 2 1 2 3
M  V30 3 1 2 4
M  V30 4 1 3 5
M  V30 5 1 3 6
M  V30 6 1 4 7
M  V30 7 1 4 8
M  V30 8 1 3 9
M  V30 9 1 4 10
M  V30 10 1 5 11
M  V30 11 1 5 12
M  V30 12 1 5 13
M  V30 13 1 6 14
M  V30 14 1 6 15
M  V30 15 1 6 16
M  V30 16 1 7 17
M  V30 17 1 7 18
M  V30 18 1 7 19
M  V30 19 1 8 20
M  V30 20 1 8 21
M  V30 21 1 8 22
M  V30 END BOND
M  V30 END CTAB
M  END
>  <Structure No>
3904

>  <LogS>
-1.3018

>  <MMFF94 Energy>
7.9603

$$$$
Compound 3905
Actelion Java MolfileCreator 2.0

  0  0  0  0  0  0              0 V3000
M  V30 BEGIN CTAB
M  V30 COUNTS 17 16 0 0 0
M  V30 BEGIN ATOM
M  V30 1 O 2.7117 -0.2322 1.3164 0
M  V30 2 C 2.0736 -0.2341 0.2308 0
M  V30 3 O 2.6646 0.2911 -0.912 0 CHG=-1
M  V30 4 C 0.6804 -0.8018 0.1724 0 CFG=2
M  V30 5 O 0.6591 -1.9046 -0.6997 0
M  V30 6 C -0.3635 0.271 -0.2459 0 CFG=2
M  V30 7 N -0.392 1.3839 0.7148 0 CHG=1
M  V30 8 C -1.7648 -0.3504 -0.3636 0
M  V30 9 H 0.4097 -1.1736 1.1856 0
M  V30 10 H 0.8408 -1.5685 -1.6168 0
M  V30 11 H -0.0875 0.6726 -1.2476 0
M  V30 12 H 0.5298 1.8766 0.7273 0
M  V30 13 H -0.6098 1.0336 1.6764 0
M  V30 14 H -1.1194 2.0808 0.4327 0
M  V30 15 H -1.7769 -1.1433 -1.1408 0
M  V30 16 H -2.0787 -0.7905 0.6071 0
M  V30 17 H -2.5034 0.4246 -0.6591 0
M  V30 END ATOM
M  V30 BEGIN BOND
M  V30 1 2 1 2
M  V30 2 1 2 3
M  V30 3 1 2 4
M  V30 4 1 4 5
M  V30 5 1 4 6
M  V30 6 1 6 7
M  V30 7 1 6 8
M  V30 8 1 4 9
M  V30 9 1 5 10
M  V30 10 1 6 11
M  V30 11 1 7 12
M  V30 12 1 7 13
M  V30 13 1 7 14
M  V30 14 1 8 15
M  V30 15 1 8 16
M  V30 16 1 8 17
M  V30 END BOND
M  V30 BEGIN COLLECTION
M  V30 MDLV30/STEABS ATOMS=(2 4 6)
M  V30 END COLLECTION
M  V30 END CTAB
M  END
>  <Structure No>
3905

>  <LogS>
-0.3535

>  <MMFF94 Energy>
-24.594

$$$$
Compound 3906
Actelion Java MolfileCreator 2.0

  0  0  0  0  0  0              0 V3000
M  V30 BEGIN CTAB
M  V30 COUNTS 49 53 0 0 0
M  V30 BEGIN ATOM
M  V30 1 O -3.3466 0.897 1.2234 0
M  V30 2 C -2.3508 1.357 1.8418 0
M  V30 3 O -2.4512 2.403 2.7296 0
M  V30 4 C -0.9758 0.808 1.7379 0 CFG=1
M  V30 5 C -1.213 2.6829 3.3541 0
M  V30 6 C -0.4701 0.7638 0.2633 0 CFG=1
M  V30 7 C -0.1739 1.7487 2.6852 0 CFG=2
M  V30 8 C 1.0533 0.7667 0.2111 0
M  V30 9 C -1.1019 -0.4092 -0.4761 0
M  V30 10 C 0.9339 2.5515 1.978 0
M  V30 11 C 1.7462 1.653 1.0841 0
M  V30 12 C 1.7884 0.0154 -0.7415 0
M  V30 13 C -1.9697 -0.176 -1.5538 0
M  V30 14 C -0.8351 -1.733 -0.0866 0
M  V30 15 C 3.1583 1.7444 1.037 0
M  V30 16 C 3.1733 0.1266 -0.7408 0
M  V30 17 C -2.568 -1.2487 -2.2393 0
M  V30 18 C -1.4227 -2.8157 -0.765 0
M  V30 19 O 3.8577 2.6089 1.878 0
M  V30 20 C 3.8306 0.9486 0.1121 0
M  V30 21 O 4.0842 -0.5181 -1.5552 0
M  V30 22 O -3.4426 -1.0489 -3.3193 0
M  V30 23 C -2.2914 -2.5639 -1.8416 0
M  V30 24 O -1.1657 -4.1469 -0.3993 0
M  V30 25 O 5.19 0.8599 -0.1215 0
M  V30 26 C 5.3977 -0.0764 -1.1873 0
M  V30 27 C -3.8173 0.2263 -3.83 0
M  V30 28 O -2.8923 -3.6168 -2.5334 0
M  V30 29 C -0.3039 -4.5414 0.6634 0
M  V30 30 H -0.9744 -0.2112 2.1819 0
M  V30 31 H -1.2933 2.4546 4.4387 0
M  V30 32 H -0.9705 3.7606 3.2324 0
M  V30 33 H -0.7821 1.7122 -0.2307 0
M  V30 34 H 0.3104 1.1287 3.474 0
M  V30 35 H 0.4863 3.3514 1.3482 0
M  V30 36 H 1.5671 3.0401 2.7494 0
M  V30 37 H 1.3103 -0.6274 -1.4673 0
M  V30 38 H -2.1782 0.8424 -1.8519 0
M  V30 39 H -0.1563 -1.9096 0.7364 0
M  V30 40 H 4.8677 2.6794 1.8442 0
M  V30 41 H 6.0044 -0.9348 -0.8302 0
M  V30 42 H 5.8884 0.4247 -2.0477 0
M  V30 43 H -4.3301 0.8176 -3.0423 0
M  V30 44 H -4.5164 0.0852 -4.6795 0
M  V30 45 H -2.9203 0.7701 -4.1946 0
M  V30 46 H -2.7299 -4.5867 -2.2912 0
M  V30 47 H -0.677 -4.1368 1.628 0
M  V30 48 H 0.7289 -4.1821 0.4708 0
M  V30 49 H -0.2888 -5.6486 0.7253 0
M  V30 END ATOM
M  V30 BEGIN BOND
M  V30 1 2 1 2
M  V30 2 1 2 3
M  V30 3 1 2 4
M  V30 4 1 3 5
M  V30 5 1 4 6
M  V30 6 1 4 7
M  V30 7 1 6 8
M  V30 8 1 6 9
M  V30 9 1 7 10
M  V30 10 2 8 11
M  V30 11 1 8 12
M  V30 12 2 9 13
M  V30 13 1 9 14
M  V30 14 1 11 15
M  V30 15 2 12 16
M  V30 16 1 13 17
M  V30 17 2 14 18
M  V30 18 1 15 19
M  V30 19 2 15 20
M  V30 20 1 16 21
M  V30 21 1 17 22
M  V30 22 2 17 23
M  V30 23 1 18 24
M  V30 24 1 20 25
M  V30 25 1 21 26
M  V30 26 1 22 27
M  V30 27 1 23 28
M  V30 28 1 24 29
M  V30 29 1 5 7
M  V30 30 1 10 11
M  V30 31 1 16 20
M  V30 32 1 18 23
M  V30 33 1 25 26
M  V30 34 1 4 30
M  V30 35 1 5 31
M  V30 36 1 5 32
M  V30 37 1 6 33
M  V30 38 1 7 34
M  V30 39 1 10 35
M  V30 40 1 10 36
M  V30 41 1 12 37
M  V30 42 1 13 38
M  V30 43 1 14 39
M  V30 44 1 19 40
M  V30 45 1 26 41
M  V30 46 1 26 42
M  V30 47 1 27 43
M  V30 48 1 27 44
M  V30 49 1 27 45
M  V30 50 1 28 46
M  V30 51 1 29 47
M  V30 52 1 29 48
M  V30 53 1 29 49
M  V30 END BOND
M  V30 BEGIN COLLECTION
M  V30 MDLV30/STEABS ATOMS=(3 4 6 7)
M  V30 END COLLECTION
M  V30 END CTAB
M  END
>  <Structure No>
3906

>  <LogS>
-4.1254

>  <MMFF94 Energy>
66.791

$$$$
Compound 3907
Actelion Java MolfileCreator 2.0

  0  0  0  0  0  0              0 V3000
M  V30 BEGIN CTAB
M  V30 COUNTS 24 25 0 0 0
M  V30 BEGIN ATOM
M  V30 1 O -2.1707 2.1707 -2.0098 0
M  V30 2 C -2.3161 1.0423 -1.4712 0
M  V30 3 O -3.4867 0.298 -1.5252 0
M  V30 4 C -1.3179 0.326 -0.7141 0
M  V30 5 C -3.3195 -0.9323 -0.8138 0
M  V30 6 C -6.0E-4 0.6605 -0.3885 0
M  V30 7 C -1.905 -0.8497 -0.3188 0
M  V30 8 O 0.499 1.8928 -0.8467 0
M  V30 9 C 0.7432 -0.2756 0.3875 0
M  V30 10 C -1.2021 -1.7793 0.4381 0
M  V30 11 C 1.8065 2.4054 -0.6185 0
M  V30 12 O 2.0706 0.0092 0.743 0
M  V30 13 C 0.1242 -1.4909 0.7914 0
M  V30 14 C 2.9091 -0.8463 1.5127 0
M  V30 15 H -4.0317 -0.9854 0.0362 0
M  V30 16 H -3.4462 -1.7947 -1.5016 0
M  V30 17 H -1.6679 -2.7057 0.7483 0
M  V30 18 H 2.567 1.7308 -1.0646 0
M  V30 19 H 1.9828 2.5382 0.4695 0
M  V30 20 H 1.8932 3.3972 -1.1075 0
M  V30 21 H 0.6622 -2.2206 1.3803 0
M  V30 22 H 3.9005 -0.3645 1.6367 0
M  V30 23 H 2.467 -1.0116 2.5179 0
M  V30 24 H 3.0488 -1.8158 0.9897 0
M  V30 END ATOM
M  V30 BEGIN BOND
M  V30 1 2 1 2
M  V30 2 1 2 3
M  V30 3 1 2 4
M  V30 4 1 3 5
M  V30 5 2 4 6
M  V30 6 1 4 7
M  V30 7 1 6 8
M  V30 8 1 6 9
M  V30 9 2 7 10
M  V30 10 1 8 11
M  V30 11 1 9 12
M  V30 12 2 9 13
M  V30 13 1 12 14
M  V30 14 1 5 7
M  V30 15 1 10 13
M  V30 16 1 5 15
M  V30 17 1 5 16
M  V30 18 1 10 17
M  V30 19 1 11 18
M  V30 20 1 11 19
M  V30 21 1 11 20
M  V30 22 1 13 21
M  V30 23 1 14 22
M  V30 24 1 14 23
M  V30 25 1 14 24
M  V30 END BOND
M  V30 END CTAB
M  END
>  <Structure No>
3907

>  <LogS>
-1.8903

>  <MMFF94 Energy>
52.213

$$$$
Compound 3908
Actelion Java MolfileCreator 2.0

  0  0  0  0  0  0              0 V3000
M  V30 BEGIN CTAB
M  V30 COUNTS 13 13 0 0 0
M  V30 BEGIN ATOM
M  V30 1 O 2.7231 0.2473 0.0824 0
M  V30 2 C 1.9832 -0.7693 0.0568 0
M  V30 3 O 2.5632 -2.0305 0.1026 0 CHG=-1
M  V30 4 C 0.5218 -0.6483 -0.0829 0
M  V30 5 N -0.244 -1.6826 -0.4878 0
M  V30 6 C -0.2834 0.4735 0.0872 0
M  V30 7 C -1.4904 -1.1736 -0.5644 0
M  V30 8 N -1.5434 0.1276 -0.2292 0
M  V30 9 C 0.0766 1.8118 0.5931 0
M  V30 10 O -0.707 2.7794 0.4073 0
M  V30 11 O 1.2381 2.0163 1.3251 0 CHG=-1
M  V30 12 H -2.3551 -1.7522 -0.8611 0
M  V30 13 H -2.3967 0.7289 -0.1954 0
M  V30 END ATOM
M  V30 BEGIN BOND
M  V30 1 2 1 2
M  V30 2 1 2 3
M  V30 3 1 2 4
M  V30 4 1 4 5
M  V30 5 2 4 6
M  V30 6 2 5 7
M  V30 7 1 6 8
M  V30 8 1 6 9
M  V30 9 2 9 10
M  V30 10 1 9 11
M  V30 11 1 7 8
M  V30 12 1 7 12
M  V30 13 1 8 13
M  V30 END BOND
M  V30 END CTAB
M  END
>  <Structure No>
3908

>  <LogS>
-2.4944

>  <MMFF94 Energy>
114.37

$$$$
Compound 3909
Actelion Java MolfileCreator 2.0

  0  0  0  0  0  0              0 V3000
M  V30 BEGIN CTAB
M  V30 COUNTS 23 23 0 0 0
M  V30 BEGIN ATOM
M  V30 1 O 1.0287 1.3454 -1.2662 0
M  V30 2 C 0.5011 0.6705 -0.3389 0
M  V30 3 O 1.2524 0.3489 0.7972 0
M  V30 4 C -0.9117 0.2263 -0.4586 0
M  V30 5 C 2.6241 0.709 0.9534 0
M  V30 6 C -1.5199 -0.5926 0.5224 0
M  V30 7 C -1.6728 0.6242 -1.5762 0
M  V30 8 O 3.4224 0.0752 -0.0256 0
M  V30 9 O -0.805 -1.0177 1.6419 0
M  V30 10 C -2.8579 -0.9885 0.3718 0
M  V30 11 C -3.0034 0.2218 -1.7133 0
M  V30 12 C 3.5657 -1.2926 0.2869 0
M  V30 13 C -3.5951 -0.5826 -0.7407 0
M  V30 14 H 2.7276 1.8089 0.839 0
M  V30 15 H 2.9597 0.4648 1.9868 0
M  V30 16 H -1.2413 1.2503 -2.347 0
M  V30 17 H -1.2261 -1.6055 2.3519 0
M  V30 18 H -3.3278 -1.6146 1.1197 0
M  V30 19 H -3.5767 0.5356 -2.5761 0
M  V30 20 H 4.1184 -1.4292 1.2427 0
M  V30 21 H 2.58 -1.8068 0.3306 0
M  V30 22 H 4.1595 -1.7773 -0.5147 0
M  V30 23 H -4.6264 -0.8929 -0.8494 0
M  V30 END ATOM
M  V30 BEGIN BOND
M  V30 1 2 1 2
M  V30 2 1 2 3
M  V30 3 1 2 4
M  V30 4 1 3 5
M  V30 5 2 4 6
M  V30 6 1 4 7
M  V30 7 1 5 8
M  V30 8 1 6 9
M  V30 9 1 6 10
M  V30 10 2 7 11
M  V30 11 1 8 12
M  V30 12 2 10 13
M  V30 13 1 11 13
M  V30 14 1 5 14
M  V30 15 1 5 15
M  V30 16 1 7 16
M  V30 17 1 9 17
M  V30 18 1 10 18
M  V30 19 1 11 19
M  V30 20 1 12 20
M  V30 21 1 12 21
M  V30 22 1 12 22
M  V30 23 1 13 23
M  V30 END BOND
M  V30 END CTAB
M  END
>  <Structure No>
3909

>  <LogS>
-2.3

>  <MMFF94 Energy>
12.792

$$$$
Compound 3910
Actelion Java MolfileCreator 2.0

  0  0  0  0  0  0              0 V3000
M  V30 BEGIN CTAB
M  V30 COUNTS 22 22 0 0 0
M  V30 BEGIN ATOM
M  V30 1 O -0.3229 3.3947 0.3229 0
M  V30 2 C -0.2277 2.3809 -0.4178 0
M  V30 3 O -0.1051 2.5468 -1.7925 0 CHG=-1
M  V30 4 C -0.2531 1.0006 0.1839 0 CFG=2
M  V30 5 C 1.0318 0.2119 -0.1656 0 CFG=1
M  V30 6 C -1.4975 0.2372 -0.3116 0
M  V30 7 C 2.2603 0.8788 0.3952 0
M  V30 8 C 0.9322 -1.2317 0.3558 0
M  V30 9 N -1.5402 -1.1251 0.2419 0 CHG=1
M  V30 10 O 2.37 1.0833 1.6338 0
M  V30 11 O 3.2867 1.2684 -0.4558 0 CHG=-1
M  V30 12 C -0.353 -1.9003 -0.1486 0
M  V30 13 H -0.3292 1.0942 1.2917 0
M  V30 14 H 1.1357 0.1671 -1.2737 0
M  V30 15 H -2.4127 0.7865 0.0044 0
M  V30 16 H -1.5043 0.191 -1.4249 0
M  V30 17 H 0.9318 -1.2404 1.4686 0
M  V30 18 H 1.8091 -1.8188 0.0055 0
M  V30 19 H -2.3922 -1.6097 -0.125 0
M  V30 20 H -1.611 -1.0834 1.2862 0
M  V30 21 H -0.3124 -2.0087 -1.256 0
M  V30 22 H -0.4205 -2.9223 0.2849 0
M  V30 END ATOM
M  V30 BEGIN BOND
M  V30 1 2 1 2
M  V30 2 1 2 3
M  V30 3 1 2 4
M  V30 4 1 4 5
M  V30 5 1 4 6
M  V30 6 1 5 7
M  V30 7 1 5 8
M  V30 8 1 6 9
M  V30 9 2 7 10
M  V30 10 1 7 11
M  V30 11 1 8 12
M  V30 12 1 9 12
M  V30 13 1 4 13
M  V30 14 1 5 14
M  V30 15 1 6 15
M  V30 16 1 6 16
M  V30 17 1 8 17
M  V30 18 1 8 18
M  V30 19 1 9 19
M  V30 20 1 9 20
M  V30 21 1 12 21
M  V30 22 1 12 22
M  V30 END BOND
M  V30 BEGIN COLLECTION
M  V30 MDLV30/STEABS ATOMS=(2 4 5)
M  V30 END COLLECTION
M  V30 END CTAB
M  END
>  <Structure No>
3910

>  <LogS>
-0.5395

>  <MMFF94 Energy>
-119.96

$$$$
Compound 3911
Actelion Java MolfileCreator 2.0

  0  0  0  0  0  0              0 V3000
M  V30 BEGIN CTAB
M  V30 COUNTS 25 27 0 0 0
M  V30 BEGIN ATOM
M  V30 1 N 0.3199 1.6005 -0.5599 0
M  V30 2 C -0.8943 1.0023 -0.433 0
M  V30 3 C 1.4748 0.964 -0.2397 0
M  V30 4 C -0.9944 -0.3289 0.0523 0
M  V30 5 C -2.0433 1.7121 -0.791 0
M  V30 6 C 1.4381 -0.3625 0.2369 0
M  V30 7 C 2.7018 1.6215 -0.3869 0
M  V30 8 C -2.2813 -0.923 0.1778 0
M  V30 9 C 0.2006 -1.0043 0.3778 0
M  V30 10 C -3.2978 1.1182 -0.6782 0
M  V30 11 C 2.6378 -1.0168 0.5599 0
M  V30 12 C 3.8915 0.963 -0.0616 0
M  V30 13 N -2.4769 -2.2524 0.6862 0
M  V30 14 C -3.416 -0.186 -0.1996 0
M  V30 15 C 3.8596 -0.3528 0.4103 0
M  V30 16 H -1.9648 2.7267 -1.1621 0
M  V30 17 H 2.7357 2.6402 -0.7529 0
M  V30 18 H 0.1972 -2.0239 0.7303 0
M  V30 19 H -4.184 1.6723 -0.96 0
M  V30 20 H 2.6308 -2.0362 0.9269 0
M  V30 21 H 4.8394 1.4727 -0.176 0
M  V30 22 H -1.7199 -2.8213 1.1178 0
M  V30 23 H -3.4326 -2.674 0.6951 0
M  V30 24 H -4.4027 -0.6241 -0.114 0
M  V30 25 H 4.7832 -0.8587 0.6603 0
M  V30 END ATOM
M  V30 BEGIN BOND
M  V30 1 1 1 2
M  V30 2 2 1 3
M  V30 3 1 2 4
M  V30 4 2 2 5
M  V30 5 1 3 6
M  V30 6 1 3 7
M  V30 7 2 4 8
M  V30 8 1 4 9
M  V30 9 1 5 10
M  V30 10 1 6 11
M  V30 11 2 7 12
M  V30 12 1 8 13
M  V30 13 1 8 14
M  V30 14 2 11 15
M  V30 15 2 6 9
M  V30 16 2 10 14
M  V30 17 1 12 15
M  V30 18 1 5 16
M  V30 19 1 7 17
M  V30 20 1 9 18
M  V30 21 1 10 19
M  V30 22 1 11 20
M  V30 23 1 12 21
M  V30 24 1 13 22
M  V30 25 1 13 23
M  V30 26 1 14 24
M  V30 27 1 15 25
M  V30 END BOND
M  V30 END CTAB
M  END
>  <Structure No>
3911

>  <LogS>
-4.222

>  <MMFF94 Energy>
55.095

$$$$
Compound 3912
Actelion Java MolfileCreator 2.0

  0  0  0  0  0  0              0 V3000
M  V30 BEGIN CTAB
M  V30 COUNTS 30 31 0 0 0
M  V30 BEGIN ATOM
M  V30 1 O 0.5539 1.7418 1.821 0
M  V30 2 C 0.8102 1.7017 0.4396 0 CFG=1
M  V30 3 C 1.5908 0.4527 0.0686 0
M  V30 4 C -0.5182 1.8163 -0.3393 0 CFG=1
M  V30 5 C 1.4057 -0.7558 0.7677 0
M  V30 6 C 2.4752 0.4796 -1.0239 0
M  V30 7 O -0.2518 1.9392 -1.7139 0
M  V30 8 C -1.4481 0.6462 -0.0692 0
M  V30 9 C 2.1012 -1.9066 0.3859 0
M  V30 10 C 3.1697 -0.6737 -1.4005 0
M  V30 11 C -2.3283 0.6905 1.0263 0
M  V30 12 C -1.4094 -0.5137 -0.8671 0
M  V30 13 C 2.9835 -1.8654 -0.6959 0
M  V30 14 C -3.1612 -0.396 1.3095 0
M  V30 15 C -2.243 -1.5982 -0.5786 0
M  V30 16 C -3.1192 -1.5388 0.5075 0
M  V30 17 H 1.4219 1.9198 2.2694 0
M  V30 18 H 1.4214 2.5968 0.174 0
M  V30 19 H -1.0163 2.7545 0.0029 0
M  V30 20 H 0.714 -0.8123 1.5988 0
M  V30 21 H 2.6234 1.3928 -1.5867 0
M  V30 22 H -1.0892 2.2591 -2.1415 0
M  V30 23 H 1.9519 -2.8322 0.9265 0
M  V30 24 H 3.8497 -0.6443 -2.2419 0
M  V30 25 H -2.3664 1.5651 1.6638 0
M  V30 26 H -0.7258 -0.5856 -1.7034 0
M  V30 27 H 3.5199 -2.7578 -0.9908 0
M  V30 28 H -3.8368 -0.3532 2.154 0
M  V30 29 H -2.2059 -2.487 -1.1947 0
M  V30 30 H -3.7627 -2.38 0.7301 0
M  V30 END ATOM
M  V30 BEGIN BOND
M  V30 1 1 1 2
M  V30 2 1 2 3
M  V30 3 1 2 4
M  V30 4 2 3 5
M  V30 5 1 3 6
M  V30 6 1 4 7
M  V30 7 1 4 8
M  V30 8 1 5 9
M  V30 9 2 6 10
M  V30 10 2 8 11
M  V30 11 1 8 12
M  V30 12 2 9 13
M  V30 13 1 11 14
M  V30 14 2 12 15
M  V30 15 2 14 16
M  V30 16 1 10 13
M  V30 17 1 15 16
M  V30 18 1 1 17
M  V30 19 1 2 18
M  V30 20 1 4 19
M  V30 21 1 5 20
M  V30 22 1 6 21
M  V30 23 1 7 22
M  V30 24 1 9 23
M  V30 25 1 10 24
M  V30 26 1 11 25
M  V30 27 1 12 26
M  V30 28 1 13 27
M  V30 29 1 14 28
M  V30 30 1 15 29
M  V30 31 1 16 30
M  V30 END BOND
M  V30 BEGIN COLLECTION
M  V30 MDLV30/STEABS ATOMS=(2 2 4)
M  V30 END COLLECTION
M  V30 END CTAB
M  END
>  <Structure No>
3912

>  <LogS>
-1.933

>  <MMFF94 Energy>
82.424

$$$$
Compound 3913
Actelion Java MolfileCreator 2.0

  0  0  0  0  0  0              0 V3000
M  V30 BEGIN CTAB
M  V30 COUNTS 26 26 0 0 0
M  V30 BEGIN ATOM
M  V30 1 N 0.2337 -1.4033 1.0913 0
M  V30 2 C 0.1111 -0.5505 -0.0627 0
M  V30 3 C 1.2418 -0.2916 -0.885 0
M  V30 4 C -1.1457 0.0337 -0.3902 0
M  V30 5 C 1.1078 0.5466 -2.0014 0
M  V30 6 C 2.608 -0.8723 -0.594 0
M  V30 7 C -1.2429 0.8366 -1.5464 0
M  V30 8 C -2.3596 -0.2321 0.4927 0
M  V30 9 C -0.1249 1.0951 -2.3329 0
M  V30 10 C 3.3761 0.0057 0.3901 0
M  V30 11 C -3.5909 0.6341 0.2176 0
M  V30 12 H 1.1564 -1.6358 1.5161 0
M  V30 13 H -0.5973 -1.8283 1.5562 0
M  V30 14 H 1.9629 0.768 -2.6286 0
M  V30 15 H 2.5276 -1.9086 -0.2056 0
M  V30 16 H 3.1995 -0.9501 -1.5325 0
M  V30 17 H -2.1778 1.2834 -1.8519 0
M  V30 18 H -2.6529 -1.2985 0.3849 0
M  V30 19 H -2.0746 -0.0548 1.5525 0
M  V30 20 H -0.2153 1.7268 -3.2075 0
M  V30 21 H 3.5297 1.0184 -0.04 0
M  V30 22 H 2.8234 0.1001 1.3485 0
M  V30 23 H 4.3688 -0.447 0.5958 0
M  V30 24 H -4.3671 0.4242 0.9838 0
M  V30 25 H -4.0218 0.3949 -0.7776 0
M  V30 26 H -3.3291 1.7124 0.2733 0
M  V30 END ATOM
M  V30 BEGIN BOND
M  V30 1 1 1 2
M  V30 2 2 2 3
M  V30 3 1 2 4
M  V30 4 1 3 5
M  V30 5 1 3 6
M  V30 6 2 4 7
M  V30 7 1 4 8
M  V30 8 2 5 9
M  V30 9 1 6 10
M  V30 10 1 8 11
M  V30 11 1 7 9
M  V30 12 1 1 12
M  V30 13 1 1 13
M  V30 14 1 5 14
M  V30 15 1 6 15
M  V30 16 1 6 16
M  V30 17 1 7 17
M  V30 18 1 8 18
M  V30 19 1 8 19
M  V30 20 1 9 20
M  V30 21 1 10 21
M  V30 22 1 10 22
M  V30 23 1 10 23
M  V30 24 1 11 24
M  V30 25 1 11 25
M  V30 26 1 11 26
M  V30 END BOND
M  V30 END CTAB
M  END
>  <Structure No>
3913

>  <LogS>
-2.3478

>  <MMFF94 Energy>
19.228

$$$$
Compound 3914
Actelion Java MolfileCreator 2.0

  0  0  0  0  0  0              0 V3000
M  V30 BEGIN CTAB
M  V30 COUNTS 18 19 0 0 0
M  V30 BEGIN ATOM
M  V30 1 O 3.5922 -0.3189 0.4784 0
M  V30 2 C 2.2462 -0.3978 0.1289 0
M  V30 3 C 1.8184 -1.3777 -0.7719 0
M  V30 4 C 1.3102 0.4933 0.6683 0
M  V30 5 N 0.5066 -1.4636 -1.1198 0
M  V30 6 C -0.0378 0.3937 0.3013 0
M  V30 7 C -0.4252 -0.6123 -0.6126 0
M  V30 8 C -1.0024 1.2694 0.822 0
M  V30 9 C -1.7669 -0.7298 -0.9931 0
M  V30 10 C -2.3408 1.1438 0.4354 0
M  V30 11 C -2.7219 0.1473 -0.4691 0
M  V30 12 H 3.9299 0.381 1.1287 0
M  V30 13 H 2.5304 -2.0729 -1.1965 0
M  V30 14 H 1.634 1.2555 1.3673 0
M  V30 15 H -0.7228 2.0462 1.5235 0
M  V30 16 H -2.0714 -1.4983 -1.6928 0
M  V30 17 H -3.0843 1.8198 0.8376 0
M  V30 18 H -3.759 0.0549 -0.7645 0
M  V30 END ATOM
M  V30 BEGIN BOND
M  V30 1 1 1 2
M  V30 2 1 2 3
M  V30 3 2 2 4
M  V30 4 2 3 5
M  V30 5 1 4 6
M  V30 6 1 5 7
M  V30 7 2 6 8
M  V30 8 2 7 9
M  V30 9 1 8 10
M  V30 10 1 9 11
M  V30 11 1 6 7
M  V30 12 2 10 11
M  V30 13 1 1 12
M  V30 14 1 3 13
M  V30 15 1 4 14
M  V30 16 1 8 15
M  V30 17 1 9 16
M  V30 18 1 10 17
M  V30 19 1 11 18
M  V30 END BOND
M  V30 END CTAB
M  END
>  <Structure No>
3914

>  <LogS>
-2.3925

>  <MMFF94 Energy>
39.075

$$$$
Compound 3915
Actelion Java MolfileCreator 2.0

  0  0  0  0  0  0              0 V3000
M  V30 BEGIN CTAB
M  V30 COUNTS 18 19 0 0 0
M  V30 BEGIN ATOM
M  V30 1 O -3.3525 -1.1963 0.3986 0
M  V30 2 C -2.1096 -0.5847 0.252 0
M  V30 3 C -0.9696 -1.3755 0.0669 0
M  V30 4 C -1.9931 0.8129 0.2882 0
M  V30 5 C 0.2855 -0.7751 -0.0819 0
M  V30 6 C -0.7425 1.421 0.1403 0
M  V30 7 N 1.394 -1.5432 -0.2617 0
M  V30 8 C 0.4022 0.6329 -0.0451 0
M  V30 9 C 2.6286 -0.9923 -0.4095 0
M  V30 10 C 1.6687 1.212 -0.1964 0
M  V30 11 C 2.7869 0.3957 -0.3794 0
M  V30 12 H -4.1972 -0.6531 0.5341 0
M  V30 13 H -1.0624 -2.4544 0.0393 0
M  V30 14 H -2.8722 1.4285 0.4311 0
M  V30 15 H -0.6704 2.5018 0.1707 0
M  V30 16 H 3.4889 -1.6325 -0.5508 0
M  V30 17 H 1.7927 2.2881 -0.1731 0
M  V30 18 H 3.7691 0.8348 -0.497 0
M  V30 END ATOM
M  V30 BEGIN BOND
M  V30 1 1 1 2
M  V30 2 2 2 3
M  V30 3 1 2 4
M  V30 4 1 3 5
M  V30 5 2 4 6
M  V30 6 2 5 7
M  V30 7 1 5 8
M  V30 8 1 7 9
M  V30 9 2 8 10
M  V30 10 2 9 11
M  V30 11 1 6 8
M  V30 12 1 10 11
M  V30 13 1 1 12
M  V30 14 1 3 13
M  V30 15 1 4 14
M  V30 16 1 6 15
M  V30 17 1 9 16
M  V30 18 1 10 17
M  V30 19 1 11 18
M  V30 END BOND
M  V30 END CTAB
M  END
>  <Structure No>
3915

>  <LogS>
-2.5038

>  <MMFF94 Energy>
20.013

$$$$
Compound 3916
Actelion Java MolfileCreator 2.0

  0  0  0  0  0  0              0 V3000
M  V30 BEGIN CTAB
M  V30 COUNTS 37 37 0 0 0
M  V30 BEGIN ATOM
M  V30 1 Cl -0.2381 0.2381 4.4522 0
M  V30 2 C -0.1684 0.0375 2.7155 0
M  V30 3 N -1.3107 0.0504 1.9857 0
M  V30 4 N 1.0273 -0.1325 2.1006 0
M  V30 5 C -1.2658 -0.1026 0.6355 0
M  V30 6 C 1.0895 -0.2904 0.7518 0
M  V30 7 N -0.0615 -0.2746 0.0282 0
M  V30 8 N -2.4834 -0.0996 -0.1429 0
M  V30 9 N 2.3622 -0.4756 0.0949 0
M  V30 10 C -2.4334 -0.3594 -1.5906 0
M  V30 11 C -3.7843 0.0873 0.5196 0
M  V30 12 C 3.5942 -0.612 0.8852 0
M  V30 13 C 2.4416 -0.5111 -1.3722 0
M  V30 14 C -2.0127 0.8956 -2.3485 0
M  V30 15 C -4.0014 1.5544 0.879 0
M  V30 16 C 3.7008 -2.0157 1.4718 0
M  V30 17 C 2.4041 0.9025 -1.942 0
M  V30 18 H -3.4254 -0.6836 -1.9721 0
M  V30 19 H -1.7235 -1.1871 -1.806 0
M  V30 20 H -3.8388 -0.539 1.4362 0
M  V30 21 H -4.6182 -0.2362 -0.1396 0
M  V30 22 H 4.4882 -0.4217 0.252 0
M  V30 23 H 3.6128 0.1434 1.7003 0
M  V30 24 H 3.3821 -1.005 -1.7006 0
M  V30 25 H 1.604 -1.1111 -1.7893 0
M  V30 26 H -1.0133 1.2399 -2.0127 0
M  V30 27 H -2.7512 1.7074 -2.1812 0
M  V30 28 H -1.9653 0.6756 -3.4357 0
M  V30 29 H -4.9913 1.6751 1.3674 0
M  V30 30 H -3.9789 2.1793 -0.0381 0
M  V30 31 H -3.2165 1.9086 1.5789 0
M  V30 32 H 3.6965 -2.769 0.6558 0
M  V30 33 H 2.8512 -2.2167 2.1575 0
M  V30 34 H 4.6485 -2.1103 2.0425 0
M  V30 35 H 3.2682 1.4875 -1.5618 0
M  V30 36 H 2.4587 0.8603 -3.0501 0
M  V30 37 H 1.4637 1.4145 -1.6501 0
M  V30 END ATOM
M  V30 BEGIN BOND
M  V30 1 1 1 2
M  V30 2 2 2 3
M  V30 3 1 2 4
M  V30 4 1 3 5
M  V30 5 2 4 6
M  V30 6 2 5 7
M  V30 7 1 5 8
M  V30 8 1 6 9
M  V30 9 1 8 10
M  V30 10 1 8 11
M  V30 11 1 9 12
M  V30 12 1 9 13
M  V30 13 1 10 14
M  V30 14 1 11 15
M  V30 15 1 12 16
M  V30 16 1 13 17
M  V30 17 1 6 7
M  V30 18 1 10 18
M  V30 19 1 10 19
M  V30 20 1 11 20
M  V30 21 1 11 21
M  V30 22 1 12 22
M  V30 23 1 12 23
M  V30 24 1 13 24
M  V30 25 1 13 25
M  V30 26 1 14 26
M  V30 27 1 14 27
M  V30 28 1 14 28
M  V30 29 1 15 29
M  V30 30 1 15 30
M  V30 31 1 15 31
M  V30 32 1 16 32
M  V30 33 1 16 33
M  V30 34 1 16 34
M  V30 35 1 17 35
M  V30 36 1 17 36
M  V30 37 1 17 37
M  V30 END BOND
M  V30 END CTAB
M  END
>  <Structure No>
3916

>  <LogS>
-4.4112

>  <MMFF94 Energy>
-215.68

$$$$
Compound 3917
Actelion Java MolfileCreator 2.0

  0  0  0  0  0  0              0 V3000
M  V30 BEGIN CTAB
M  V30 COUNTS 25 26 0 0 0
M  V30 BEGIN ATOM
M  V30 1 N 3.3203 1.0268 -0.7897 0
M  V30 2 C 1.9827 1.0492 -1.0341 0
M  V30 3 C 3.8562 0.2508 0.1883 0
M  V30 4 C 1.1069 0.2601 -0.2683 0
M  V30 5 C 3.0295 -0.5534 0.9729 0
M  V30 6 C 1.6528 -0.5499 0.7434 0
M  V30 7 C -0.3864 0.282 -0.5463 0 CFG=2
M  V30 8 N -1.1495 0.6478 0.6632 0 CHG=1
M  V30 9 C -0.8662 -1.079 -1.0888 0
M  V30 10 C -2.5745 0.8384 0.3449 0
M  V30 11 C -2.3696 -1.1538 -1.1392 0
M  V30 12 C -3.1471 -0.3312 -0.4187 0
M  V30 13 H 1.6045 1.6829 -1.8257 0
M  V30 14 H 4.9249 0.2572 0.3557 0
M  V30 15 H 3.4521 -1.1756 1.7512 0
M  V30 16 H 1.0187 -1.1811 1.3518 0
M  V30 17 H -0.5887 1.0441 -1.3356 0
M  V30 18 H -1.0631 -0.0967 1.3946 0
M  V30 19 H -0.7765 1.5447 1.0547 0
M  V30 20 H -0.459 -1.2364 -2.1107 0
M  V30 21 H -0.5072 -1.9069 -0.4412 0
M  V30 22 H -3.1505 0.9679 1.2872 0
M  V30 23 H -2.709 1.7612 -0.2617 0
M  V30 24 H -2.8315 -1.962 -1.6979 0
M  V30 25 H -4.2257 -0.446 -0.4662 0
M  V30 END ATOM
M  V30 BEGIN BOND
M  V30 1 2 1 2
M  V30 2 1 1 3
M  V30 3 1 2 4
M  V30 4 2 3 5
M  V30 5 2 4 6
M  V30 6 1 4 7
M  V30 7 1 7 8
M  V30 8 1 7 9
M  V30 9 1 8 10
M  V30 10 1 9 11
M  V30 11 1 10 12
M  V30 12 1 5 6
M  V30 13 2 11 12
M  V30 14 1 2 13
M  V30 15 1 3 14
M  V30 16 1 5 15
M  V30 17 1 6 16
M  V30 18 1 7 17
M  V30 19 1 8 18
M  V30 20 1 8 19
M  V30 21 1 9 20
M  V30 22 1 9 21
M  V30 23 1 10 22
M  V30 24 1 10 23
M  V30 25 1 11 24
M  V30 26 1 12 25
M  V30 END BOND
M  V30 BEGIN COLLECTION
M  V30 MDLV30/STEABS ATOMS=(1 7)
M  V30 END COLLECTION
M  V30 END CTAB
M  END
>  <Structure No>
3917

>  <LogS>
0.7953

>  <MMFF94 Energy>
18.574

$$$$
Compound 3918
Actelion Java MolfileCreator 2.0

  0  0  0  0  0  0              0 V3000
M  V30 BEGIN CTAB
M  V30 COUNTS 20 21 0 0 0
M  V30 BEGIN ATOM
M  V30 1 N -1.5158 -0.9572 0.5582 0
M  V30 2 C -0.6853 -0.0434 -0.0245 0
M  V30 3 C -2.8645 -0.9363 0.392 0
M  V30 4 C 0.7881 -0.1498 0.2189 0
M  V30 5 C -1.2587 0.9622 -0.8326 0
M  V30 6 C -3.4537 0.0461 -0.4007 0
M  V30 7 C 1.2883 -1.1829 1.0391 0
M  V30 8 C 1.7233 0.7476 -0.34 0
M  V30 9 C -2.6432 0.9987 -1.0145 0
M  V30 10 N 2.6221 -1.2992 1.2746 0
M  V30 11 C 3.0868 0.6022 -0.0797 0
M  V30 12 C 3.522 -0.4373 0.7378 0
M  V30 13 H -3.4782 -1.6839 0.8764 0
M  V30 14 H -0.6694 1.7181 -1.3258 0
M  V30 15 H -4.527 0.0691 -0.5377 0
M  V30 16 H 0.6225 -1.9023 1.4968 0
M  V30 17 H 1.4269 1.5647 -0.9774 0
M  V30 18 H -3.0881 1.7676 -1.6331 0
M  V30 19 H 3.8015 1.292 -0.5099 0
M  V30 20 H 4.5763 -0.56 0.9467 0
M  V30 END ATOM
M  V30 BEGIN BOND
M  V30 1 2 1 2
M  V30 2 1 1 3
M  V30 3 1 2 4
M  V30 4 1 2 5
M  V30 5 2 3 6
M  V30 6 2 4 7
M  V30 7 1 4 8
M  V30 8 2 5 9
M  V30 9 1 7 10
M  V30 10 2 8 11
M  V30 11 2 10 12
M  V30 12 1 6 9
M  V30 13 1 11 12
M  V30 14 1 3 13
M  V30 15 1 5 14
M  V30 16 1 6 15
M  V30 17 1 7 16
M  V30 18 1 8 17
M  V30 19 1 9 18
M  V30 20 1 11 19
M  V30 21 1 12 20
M  V30 END BOND
M  V30 END CTAB
M  END
>  <Structure No>
3918

>  <LogS>
-0.5916

>  <MMFF94 Energy>
43.384

$$$$
Compound 3919
Actelion Java MolfileCreator 2.0

  0  0  0  0  0  0              0 V3000
M  V30 BEGIN CTAB
M  V30 COUNTS 14 15 0 0 0
M  V30 BEGIN ATOM
M  V30 1 S 3.6591 -0.0812 0.406 0
M  V30 2 C 2.0371 -0.0207 0.207 0
M  V30 3 N 1.3721 1.1076 -0.1518 0
M  V30 4 N 1.2239 -1.0942 0.3847 0
M  V30 5 C 0.093 0.7074 -0.1962 0
M  V30 6 C 0.0017 -0.6055 0.1234 0
M  V30 7 N -0.9913 1.4566 -0.5074 0
M  V30 8 C -1.2323 -1.2363 0.1422 0
M  V30 9 C -2.2158 0.8464 -0.4928 0
M  V30 10 N -2.3287 -0.4835 -0.1712 0
M  V30 11 H 1.7591 2.0577 -0.3468 0
M  V30 12 H 1.4845 -2.0677 0.6591 0
M  V30 13 H -1.3304 -2.2835 0.3944 0
M  V30 14 H -3.1018 1.4162 -0.7364 0
M  V30 END ATOM
M  V30 BEGIN BOND
M  V30 1 2 1 2
M  V30 2 1 2 3
M  V30 3 1 2 4
M  V30 4 1 3 5
M  V30 5 1 4 6
M  V30 6 1 5 7
M  V30 7 1 6 8
M  V30 8 2 7 9
M  V30 9 2 8 10
M  V30 10 2 5 6
M  V30 11 1 9 10
M  V30 12 1 3 11
M  V30 13 1 4 12
M  V30 14 1 8 13
M  V30 15 1 9 14
M  V30 END BOND
M  V30 END CTAB
M  END
>  <Structure No>
3919

>  <LogS>
-2.5243

>  <MMFF94 Energy>
-40.008

$$$$
Compound 3920
Actelion Java MolfileCreator 2.0

  0  0  0  0  0  0              0 V3000
M  V30 BEGIN CTAB
M  V30 COUNTS 6 5 0 0 0
M  V30 BEGIN ATOM
M  V30 1 O 1.2683 1.2683 0.0 0
M  V30 2 C 0.7643 0.116 -0.0537 0
M  V30 3 O 1.5948 -0.9926 -0.1591 0 CHG=-1
M  V30 4 C -0.69 -0.054 -0.0055 0
M  V30 5 O -1.194 -1.2063 -0.0592 0
M  V30 6 O -1.5205 1.0547 0.0999 0 CHG=-1
M  V30 END ATOM
M  V30 BEGIN BOND
M  V30 1 2 1 2
M  V30 2 1 2 3
M  V30 3 1 2 4
M  V30 4 2 4 5
M  V30 5 1 4 6
M  V30 END BOND
M  V30 END CTAB
M  END
>  <Structure No>
3920

>  <LogS>
0.1773

>  <MMFF94 Energy>
278.93

$$$$
Compound 3921
Actelion Java MolfileCreator 2.0

  0  0  0  0  0  0              0 V3000
M  V30 BEGIN CTAB
M  V30 COUNTS 48 49 0 0 0
M  V30 BEGIN ATOM
M  V30 1 O 4.6988 2.0685 -0.3975 0
M  V30 2 C 3.899 1.195 0.031 0
M  V30 3 C 4.1171 -0.2332 -0.0581 0
M  V30 4 C 2.609 1.4984 0.6956 0
M  V30 5 C 3.0797 -0.8605 0.4893 0
M  V30 6 C 5.3193 -0.8733 -0.7019 0
M  V30 7 C 2.0426 0.0978 1.0043 0 CFG=2
M  V30 8 C 2.9397 -2.349 0.6087 0
M  V30 9 C 5.3118 -0.6479 -2.1878 0
M  V30 10 O 0.8122 -0.1212 0.3174 0
M  V30 11 C 4.4232 -1.246 -2.9865 0
M  V30 12 C -0.3988 0.4501 0.7187 0
M  V30 13 O -0.4463 1.2337 1.706 0
M  V30 14 C -1.6411 0.1666 -0.0699 0 CFG=1
M  V30 15 C -2.0952 -1.2969 -0.1633 0
M  V30 16 C -2.8291 -0.3234 0.7715 0 CFG=2
M  V30 17 C -2.7473 -1.6902 -1.4972 0
M  V30 18 C -1.2729 -2.3834 0.5466 0
M  V30 19 C -4.1693 0.2027 0.3173 0
M  V30 20 C -4.5911 1.4587 0.571 0
M  V30 21 C -5.9666 1.8671 0.1121 0
M  V30 22 C -3.7223 2.4488 1.3096 0
M  V30 23 H 2.7846 2.0708 1.6316 0
M  V30 24 H 1.9514 2.0727 0.0078 0
M  V30 25 H 6.2338 -0.4106 -0.2737 0
M  V30 26 H 5.3735 -1.9619 -0.4897 0
M  V30 27 H 1.9121 -0.0511 2.0994 0
M  V30 28 H 3.7788 -2.7605 1.2077 0
M  V30 29 H 2.938 -2.8132 -0.3987 0
M  V30 30 H 1.987 -2.6063 1.1174 0
M  V30 31 H 6.0553 0.0124 -2.6243 0
M  V30 32 H 3.6698 -1.9151 -2.5838 0
M  V30 33 H 4.4469 -1.065 -4.0562 0
M  V30 34 H -1.8899 0.8327 -0.9247 0
M  V30 35 H -2.6424 -0.43 1.8627 0
M  V30 36 H -3.5322 -2.4537 -1.3145 0
M  V30 37 H -1.9777 -2.1256 -2.1683 0
M  V30 38 H -3.2048 -0.8235 -2.02 0
M  V30 39 H -1.9009 -3.2884 0.6836 0
M  V30 40 H -0.396 -2.6517 -0.0787 0
M  V30 41 H -0.9133 -2.0612 1.5471 0
M  V30 42 H -4.8481 -0.4902 -0.1727 0
M  V30 43 H -6.7303 1.2181 0.5906 0
M  V30 44 H -6.1911 2.9217 0.3755 0
M  V30 45 H -6.0401 1.7616 -0.991 0
M  V30 46 H -4.2538 3.4078 1.4818 0
M  V30 47 H -2.8088 2.6658 0.7184 0
M  V30 48 H -3.4326 2.036 2.2989 0
M  V30 END ATOM
M  V30 BEGIN BOND
M  V30 1 2 1 2
M  V30 2 1 2 3
M  V30 3 1 2 4
M  V30 4 2 3 5
M  V30 5 1 3 6
M  V30 6 1 4 7
M  V30 7 1 5 8
M  V30 8 1 6 9
M  V30 9 1 7 10
M  V30 10 2 9 11
M  V30 11 1 10 12
M  V30 12 2 12 13
M  V30 13 1 12 14
M  V30 14 1 14 15
M  V30 15 1 14 16
M  V30 16 1 15 17
M  V30 17 1 15 18
M  V30 18 1 16 19
M  V30 19 2 19 20
M  V30 20 1 20 21
M  V30 21 1 20 22
M  V30 22 1 5 7
M  V30 23 1 15 16
M  V30 24 1 4 23
M  V30 25 1 4 24
M  V30 26 1 6 25
M  V30 27 1 6 26
M  V30 28 1 7 27
M  V30 29 1 8 28
M  V30 30 1 8 29
M  V30 31 1 8 30
M  V30 32 1 9 31
M  V30 33 1 11 32
M  V30 34 1 11 33
M  V30 35 1 14 34
M  V30 36 1 16 35
M  V30 37 1 17 36
M  V30 38 1 17 37
M  V30 39 1 17 38
M  V30 40 1 18 39
M  V30 41 1 18 40
M  V30 42 1 18 41
M  V30 43 1 19 42
M  V30 44 1 21 43
M  V30 45 1 21 44
M  V30 46 1 21 45
M  V30 47 1 22 46
M  V30 48 1 22 47
M  V30 49 1 22 48
M  V30 END BOND
M  V30 BEGIN COLLECTION
M  V30 MDLV30/STEABS ATOMS=(3 7 14 16)
M  V30 END COLLECTION
M  V30 END CTAB
M  END
>  <Structure No>
3921

>  <LogS>
-4.8179

>  <MMFF94 Energy>
16.33

$$$$
Compound 3922
Actelion Java MolfileCreator 2.0

  0  0  0  0  0  0              0 V3000
M  V30 BEGIN CTAB
M  V30 COUNTS 16 15 0 0 0
M  V30 BEGIN ATOM
M  V30 1 O 1.1 -1.6504 0.8642 0
M  V30 2 C 1.4644 -0.4892 0.5361 0
M  V30 3 N 0.5752 0.3759 -0.1838 0
M  V30 4 N 2.7721 -0.0376 0.885 0
M  V30 5 C -0.7975 -0.0139 -0.5195 0 CFG=2
M  V30 6 C -1.2887 0.7735 -1.7022 0
M  V30 7 C -1.7153 0.1962 0.6867 0
M  V30 8 O -1.3933 2.0277 -1.6376 0
M  V30 9 O -1.6264 0.1186 -2.8801 0 CHG=-1
M  V30 10 H 0.9044 1.3426 -0.4091 0
M  V30 11 H 3.4238 -0.6629 1.4092 0
M  V30 12 H 3.0916 0.9205 0.6209 0
M  V30 13 H -0.8177 -1.0916 -0.7951 0
M  V30 14 H -2.7582 -0.0883 0.4294 0
M  V30 15 H -1.6983 1.2593 1.0103 0
M  V30 16 H -1.3804 -0.4379 1.5346 0
M  V30 END ATOM
M  V30 BEGIN BOND
M  V30 1 2 1 2
M  V30 2 1 2 3
M  V30 3 1 2 4
M  V30 4 1 3 5
M  V30 5 1 5 6
M  V30 6 1 5 7
M  V30 7 2 6 8
M  V30 8 1 6 9
M  V30 9 1 3 10
M  V30 10 1 4 11
M  V30 11 1 4 12
M  V30 12 1 5 13
M  V30 13 1 7 14
M  V30 14 1 7 15
M  V30 15 1 7 16
M  V30 END BOND
M  V30 BEGIN COLLECTION
M  V30 MDLV30/STEABS ATOMS=(1 5)
M  V30 END COLLECTION
M  V30 END CTAB
M  END
>  <Structure No>
3922

>  <LogS>
-0.7845

>  <MMFF94 Energy>
-54.409

$$$$
Compound 3923
Actelion Java MolfileCreator 2.0

  0  0  0  0  0  0              0 V3000
M  V30 BEGIN CTAB
M  V30 COUNTS 25 25 0 0 0
M  V30 BEGIN ATOM
M  V30 1 O 2.9013 2.5873 -0.2349 0
M  V30 2 C 2.292 1.3348 -0.1997 0
M  V30 3 C 0.8992 1.2206 -0.0798 0
M  V30 4 C 3.0807 0.1875 -0.2849 0
M  V30 5 C 0.2728 -0.0493 -0.0433 0
M  V30 6 C 2.4863 -1.0719 -0.2509 0
M  V30 7 C 1.1001 -1.1922 -0.1316 0
M  V30 8 C -1.2547 -0.224 0.0875 0
M  V30 9 C -1.7925 -0.9886 -1.1415 0
M  V30 10 C -1.5735 -1.0244 1.369 0
M  V30 11 C -2.0152 1.1213 0.173 0
M  V30 12 H 2.3607 3.4424 -0.1756 0
M  V30 13 H 0.3289 2.1352 -0.0169 0
M  V30 14 H 4.1559 0.2728 -0.3773 0
M  V30 15 H 3.1014 -1.96 -0.3173 0
M  V30 16 H 0.6774 -2.1873 -0.109 0
M  V30 17 H -2.8984 -1.0894 -1.0905 0
M  V30 18 H -1.3687 -2.0126 -1.2034 0
M  V30 19 H -1.5339 -0.4466 -2.0768 0
M  V30 20 H -2.6719 -1.1265 1.5073 0
M  V30 21 H -1.1556 -0.5086 2.2605 0
M  V30 22 H -1.148 -2.0487 1.3275 0
M  V30 23 H -1.8503 1.7287 -0.7429 0
M  V30 24 H -1.6927 1.7029 1.0636 0
M  V30 25 H -3.1099 0.9502 0.2661 0
M  V30 END ATOM
M  V30 BEGIN BOND
M  V30 1 1 1 2
M  V30 2 2 2 3
M  V30 3 1 2 4
M  V30 4 1 3 5
M  V30 5 2 4 6
M  V30 6 2 5 7
M  V30 7 1 5 8
M  V30 8 1 8 9
M  V30 9 1 8 10
M  V30 10 1 8 11
M  V30 11 1 6 7
M  V30 12 1 1 12
M  V30 13 1 3 13
M  V30 14 1 4 14
M  V30 15 1 6 15
M  V30 16 1 7 16
M  V30 17 1 9 17
M  V30 18 1 9 18
M  V30 19 1 9 19
M  V30 20 1 10 20
M  V30 21 1 10 21
M  V30 22 1 10 22
M  V30 23 1 11 23
M  V30 24 1 11 24
M  V30 25 1 11 25
M  V30 END BOND
M  V30 END CTAB
M  END
>  <Structure No>
3923

>  <LogS>
-1.8614

>  <MMFF94 Energy>
23.855

$$$$
Compound 3924
Actelion Java MolfileCreator 2.0

  0  0  0  0  0  0              0 V3000
M  V30 BEGIN CTAB
M  V30 COUNTS 15 14 0 0 0
M  V30 BEGIN ATOM
M  V30 1 O 0.1657 -1.6585 2.2395 0
M  V30 2 C 0.7276 -0.8343 1.471 0
M  V30 3 O 1.9644 -0.3115 1.8302 0 CHG=-1
M  V30 4 C 0.036 -0.3699 0.2455 0
M  V30 5 C 0.6959 1.0E-4 -0.8711 0
M  V30 6 C -1.4601 -0.1745 0.3026 0
M  V30 7 C 2.123 -0.2531 -1.1441 0
M  V30 8 C -1.7838 1.1808 0.8456 0
M  V30 9 O 2.718 0.442 -2.0081 0
M  V30 10 O 2.8023 -1.2996 -0.5317 0 CHG=-1
M  V30 11 O -1.9037 2.1631 0.0671 0
M  V30 12 O -1.9058 1.3699 2.2163 0 CHG=-1
M  V30 13 H 0.1391 0.482 -1.6671 0
M  V30 14 H -1.9285 -0.9476 0.9481 0
M  V30 15 H -1.9128 -0.2916 -0.7068 0
M  V30 END ATOM
M  V30 BEGIN BOND
M  V30 1 2 1 2
M  V30 2 1 2 3
M  V30 3 1 2 4
M  V30 4 2 4 5
M  V30 5 1 4 6
M  V30 6 1 5 7
M  V30 7 1 6 8
M  V30 8 2 7 9
M  V30 9 1 7 10
M  V30 10 2 8 11
M  V30 11 1 8 12
M  V30 12 1 5 13
M  V30 13 1 6 14
M  V30 14 1 6 15
M  V30 END BOND
M  V30 END CTAB
M  END
>  <Structure No>
3924

>  <LogS>
0.3612

>  <MMFF94 Energy>
217.65

$$$$
Compound 3925
Actelion Java MolfileCreator 2.0

  0  0  0  0  0  0              0 V3000
M  V30 BEGIN CTAB
M  V30 COUNTS 47 47 0 0 0
M  V30 BEGIN ATOM
M  V30 1 O 2.2157 -1.2656 0.2372 0
M  V30 2 C 1.1061 -0.8192 -0.5341 0 CFG=1
M  V30 3 C 3.0494 -0.1843 0.6153 0 CFG=2
M  V30 4 O 0.1384 -0.2577 0.3409 0
M  V30 5 C 1.5055 0.2169 -1.6296 0 CFG=2
M  V30 6 C 3.8385 0.3348 -0.6133 0 CFG=1
M  V30 7 C 4.0012 -0.6483 1.7254 0
M  V30 8 C -1.1959 -0.5376 -0.059 0 CFG=2
M  V30 9 O 0.7956 -0.0297 -2.8167 0
M  V30 10 C 3.0167 0.1271 -1.9122 0 CFG=2
M  V30 11 O 4.1367 1.695 -0.4163 0
M  V30 12 O 3.2747 -1.073 2.847 0
M  V30 13 C -2.0295 0.7658 0.1172 0 CFG=2
M  V30 14 C -1.6964 -1.8003 0.704 0 CFG=2
M  V30 15 O 3.4119 1.0178 -2.9278 0
M  V30 16 O -1.9907 1.2299 1.444 0
M  V30 17 C -3.4988 0.6556 -0.3762 0 CFG=1
M  V30 18 O -2.9213 -2.2529 0.1887 0
M  V30 19 C -1.814 -1.6032 2.2242 0
M  V30 20 O -4.3151 0.0145 0.5737 0
M  V30 21 C -4.0912 2.0352 -0.7322 0
M  V30 22 O -1.948 -2.8428 2.8662 0
M  V30 23 O -3.4343 2.5941 -1.8385 0
M  V30 24 H 0.7264 -1.7366 -1.0428 0
M  V30 25 H 2.4365 0.6472 1.0399 0
M  V30 26 H 1.2881 1.2483 -1.2581 0
M  V30 27 H 4.7854 -0.248 -0.7193 0
M  V30 28 H 4.6138 -1.5005 1.3608 0
M  V30 29 H 4.6955 0.176 2.0079 0
M  V30 30 H -1.2582 -0.7733 -1.1478 0
M  V30 31 H -0.0454 0.4948 -2.7669 0
M  V30 32 H 3.2234 -0.9026 -2.2809 0
M  V30 33 H 4.9626 1.89 -0.9316 0
M  V30 34 H 2.9531 -0.2528 3.3051 0
M  V30 35 H -1.528 1.5215 -0.5338 0
M  V30 36 H -0.9348 -2.6007 0.5492 0
M  V30 37 H 3.0657 1.9192 -2.6969 0
M  V30 38 H -1.1036 1.6532 1.5832 0
M  V30 39 H -3.5189 0.0424 -1.3033 0
M  V30 40 H -2.7319 -2.653 -0.7 0
M  V30 41 H -0.8948 -1.1143 2.6108 0
M  V30 42 H -2.6804 -0.9535 2.4766 0
M  V30 43 H -4.4222 0.6243 1.35 0
M  V30 44 H -3.9865 2.7259 0.1315 0
M  V30 45 H -5.1791 1.9336 -0.9497 0
M  V30 46 H -2.8912 -3.1279 2.7439 0
M  V30 47 H -3.76 2.1064 -2.6393 0
M  V30 END ATOM
M  V30 BEGIN BOND
M  V30 1 1 1 2
M  V30 2 1 1 3
M  V30 3 1 2 4
M  V30 4 1 2 5
M  V30 5 1 3 6
M  V30 6 1 3 7
M  V30 7 1 4 8
M  V30 8 1 5 9
M  V30 9 1 5 10
M  V30 10 1 6 11
M  V30 11 1 7 12
M  V30 12 1 8 13
M  V30 13 1 8 14
M  V30 14 1 10 15
M  V30 15 1 13 16
M  V30 16 1 13 17
M  V30 17 1 14 18
M  V30 18 1 14 19
M  V30 19 1 17 20
M  V30 20 1 17 21
M  V30 21 1 19 22
M  V30 22 1 21 23
M  V30 23 1 6 10
M  V30 24 1 2 24
M  V30 25 1 3 25
M  V30 26 1 5 26
M  V30 27 1 6 27
M  V30 28 1 7 28
M  V30 29 1 7 29
M  V30 30 1 8 30
M  V30 31 1 9 31
M  V30 32 1 10 32
M  V30 33 1 11 33
M  V30 34 1 12 34
M  V30 35 1 13 35
M  V30 36 1 14 36
M  V30 37 1 15 37
M  V30 38 1 16 38
M  V30 39 1 17 39
M  V30 40 1 18 40
M  V30 41 1 19 41
M  V30 42 1 19 42
M  V30 43 1 20 43
M  V30 44 1 21 44
M  V30 45 1 21 45
M  V30 46 1 22 46
M  V30 47 1 23 47
M  V30 END BOND
M  V30 BEGIN COLLECTION
M  V30 MDLV30/STEABS ATOMS=(9 2 3 5 6 8 10 13 14 17)
M  V30 END COLLECTION
M  V30 END CTAB
M  END
>  <Structure No>
3925

>  <LogS>
0.2872

>  <MMFF94 Energy>
190.68

$$$$
Compound 3926
Actelion Java MolfileCreator 2.0

  0  0  0  0  0  0              0 V3000
M  V30 BEGIN CTAB
M  V30 COUNTS 45 46 0 0 0
M  V30 BEGIN ATOM
M  V30 1 O -1.5981 0.3993 -0.3993 0
M  V30 2 C -1.488 -0.5987 0.6022 0 CFG=2
M  V30 3 C -2.6826 1.2892 -0.1476 0 CFG=1
M  V30 4 O -0.2579 -1.2822 0.4523 0
M  V30 5 C -2.6599 -1.602 0.4703 0 CFG=2
M  V30 6 C -3.9483 0.5857 0.4345 0 CFG=2
M  V30 7 C -2.205 2.4688 0.7178 0
M  V30 8 C 0.8085 -0.4839 0.9272 0
M  V30 9 O -2.3469 -2.613 -0.456 0
M  V30 10 C -3.954 -0.8927 0.0108 0 CFG=2
M  V30 11 O -5.1115 1.21 -0.0497 0
M  V30 12 O -3.1544 3.5019 0.7143 0
M  V30 13 C 2.1466 -1.144 0.5529 0 CFG=2
M  V30 14 O -5.0658 -1.5529 0.5612 0
M  V30 15 O 3.237 -0.4891 1.194 0
M  V30 16 C 2.3512 -1.3699 -0.9817 0 CFG=1
M  V30 17 C 3.7333 0.5972 0.4325 0 CFG=1
M  V30 18 O 1.5411 -0.5346 -1.7773 0
M  V30 19 C 3.8402 -1.2392 -1.35 0 CFG=2
M  V30 20 O 4.6535 1.3149 1.2096 0
M  V30 21 C 4.4438 0.0958 -0.8482 0 CFG=1
M  V30 22 O 4.0037 -1.3838 -2.7379 0
M  V30 23 O 4.3592 1.0759 -1.8522 0
M  V30 24 H -1.549 -0.1494 1.6249 0
M  V30 25 H -2.9635 1.7103 -1.1384 0
M  V30 26 H -2.8367 -2.0534 1.4769 0
M  V30 27 H -3.9277 0.6177 1.5515 0
M  V30 28 H -1.2616 2.8673 0.2875 0
M  V30 29 H -1.9755 2.1362 1.7565 0
M  V30 30 H 0.7671 0.5464 0.509 0
M  V30 31 H 0.7557 -0.4116 2.037 0
M  V30 32 H -1.8474 -3.3162 0.0356 0
M  V30 33 H -4.006 -0.9325 -1.1046 0
M  V30 34 H -5.3698 1.9034 0.6108 0
M  V30 35 H -3.6943 3.4026 1.5413 0
M  V30 36 H 2.1122 -2.1599 1.0063 0
M  V30 37 H -5.8464 -1.336 -0.0128 0
M  V30 38 H 2.0454 -2.4144 -1.2133 0
M  V30 39 H 2.9067 1.2924 0.1578 0
M  V30 40 H 1.8322 0.4024 -1.6498 0
M  V30 41 H 4.3726 -2.0748 -0.8352 0
M  V30 42 H 4.1419 1.6987 1.9691 0
M  V30 43 H 5.5191 -0.1004 -0.6219 0
M  V30 44 H 4.972 -1.5379 -2.8956 0
M  V30 45 H 4.9772 1.8079 -1.5912 0
M  V30 END ATOM
M  V30 BEGIN BOND
M  V30 1 1 1 2
M  V30 2 1 1 3
M  V30 3 1 2 4
M  V30 4 1 2 5
M  V30 5 1 3 6
M  V30 6 1 3 7
M  V30 7 1 4 8
M  V30 8 1 5 9
M  V30 9 1 5 10
M  V30 10 1 6 11
M  V30 11 1 7 12
M  V30 12 1 8 13
M  V30 13 1 10 14
M  V30 14 1 13 15
M  V30 15 1 13 16
M  V30 16 1 15 17
M  V30 17 1 16 18
M  V30 18 1 16 19
M  V30 19 1 17 20
M  V30 20 1 17 21
M  V30 21 1 19 22
M  V30 22 1 21 23
M  V30 23 1 6 10
M  V30 24 1 19 21
M  V30 25 1 2 24
M  V30 26 1 3 25
M  V30 27 1 5 26
M  V30 28 1 6 27
M  V30 29 1 7 28
M  V30 30 1 7 29
M  V30 31 1 8 30
M  V30 32 1 8 31
M  V30 33 1 9 32
M  V30 34 1 10 33
M  V30 35 1 11 34
M  V30 36 1 12 35
M  V30 37 1 13 36
M  V30 38 1 14 37
M  V30 39 1 16 38
M  V30 40 1 17 39
M  V30 41 1 18 40
M  V30 42 1 19 41
M  V30 43 1 20 42
M  V30 44 1 21 43
M  V30 45 1 22 44
M  V30 46 1 23 45
M  V30 END BOND
M  V30 BEGIN COLLECTION
M  V30 MDLV30/STEABS ATOMS=(10 2 3 5 6 10 13 16 17 19 21)
M  V30 END COLLECTION
M  V30 END CTAB
M  END
>  <Structure No>
3926

>  <LogS>
0.4656

>  <MMFF94 Energy>
182.38

$$$$
Compound 3927
Actelion Java MolfileCreator 2.0

  0  0  0  0  0  0              0 V3000
M  V30 BEGIN CTAB
M  V30 COUNTS 16 16 0 0 0
M  V30 BEGIN ATOM
M  V30 1 O 3.563 -0.331 0.1655 0
M  V30 2 N 2.4989 -0.9227 -0.111 0 CHG=1
M  V30 3 O 2.5595 -2.2316 -0.5315 0 CHG=-1
M  V30 4 C 1.2318 -0.2494 0.0076 0
M  V30 5 C 1.1691 1.0877 0.4374 0
M  V30 6 C 0.0365 -0.9221 -0.3055 0
M  V30 7 C -0.0617 1.7378 0.5513 0
M  V30 8 C -1.2075 -0.2746 -0.1933 0
M  V30 9 O -0.1106 3.0596 0.9771 0 CHG=-1
M  V30 10 C -1.2437 1.0628 0.2385 0
M  V30 11 N -2.4239 -0.9737 -0.5168 0 CHG=1
M  V30 12 O -3.5309 -0.4044 -0.4192 0
M  V30 13 O -2.3878 -2.2827 -0.9394 0 CHG=-1
M  V30 14 H 2.0732 1.6293 0.685 0
M  V30 15 H 0.0744 -1.9511 -0.6369 0
M  V30 16 H -2.1872 1.5852 0.3336 0
M  V30 END ATOM
M  V30 BEGIN BOND
M  V30 1 2 1 2
M  V30 2 1 2 3
M  V30 3 1 2 4
M  V30 4 2 4 5
M  V30 5 1 4 6
M  V30 6 1 5 7
M  V30 7 2 6 8
M  V30 8 1 7 9
M  V30 9 2 7 10
M  V30 10 1 8 11
M  V30 11 2 11 12
M  V30 12 1 11 13
M  V30 13 1 8 10
M  V30 14 1 5 14
M  V30 15 1 6 15
M  V30 16 1 10 16
M  V30 END BOND
M  V30 END CTAB
M  END
>  <Structure No>
3927

>  <LogS>
-1.663

>  <MMFF94 Energy>
37.902

$$$$
Compound 3928
Actelion Java MolfileCreator 2.0

  0  0  0  0  0  0              0 V3000
M  V30 BEGIN CTAB
M  V30 COUNTS 15 15 0 0 0
M  V30 BEGIN ATOM
M  V30 1 O -2.4267 0.2346 0.9388 0
M  V30 2 C -1.8525 0.0603 -0.3272 0
M  V30 3 C -0.353 0.0562 -0.2178 0
M  V30 4 C 0.3591 1.264 -0.2016 0
M  V30 5 C 0.3445 -1.1511 -0.07 0
M  V30 6 C 1.7494 1.2406 -0.0649 0
M  V30 7 C 1.735 -1.1295 0.0642 0
M  V30 8 N 2.4023 0.0549 0.0629 0
M  V30 9 H -2.3467 -0.6363 1.4089 0
M  V30 10 H -2.1792 0.8937 -0.9851 0
M  V30 11 H -2.2183 -0.8828 -0.7936 0
M  V30 12 H -0.1559 2.2122 -0.2937 0
M  V30 13 H -0.1817 -2.0975 -0.0586 0
M  V30 14 H 2.3091 2.1662 -0.057 0
M  V30 15 H 2.2835 -2.0555 0.173 0
M  V30 END ATOM
M  V30 BEGIN BOND
M  V30 1 1 1 2
M  V30 2 1 2 3
M  V30 3 2 3 4
M  V30 4 1 3 5
M  V30 5 1 4 6
M  V30 6 2 5 7
M  V30 7 2 6 8
M  V30 8 1 7 8
M  V30 9 1 1 9
M  V30 10 1 2 10
M  V30 11 1 2 11
M  V30 12 1 4 12
M  V30 13 1 5 13
M  V30 14 1 6 14
M  V30 15 1 7 15
M  V30 END BOND
M  V30 END CTAB
M  END
>  <Structure No>
3928

>  <LogS>
0.9621

>  <MMFF94 Energy>
14.986

$$$$
Compound 3929
Actelion Java MolfileCreator 2.0

  0  0  0  0  0  0              0 V3000
M  V30 BEGIN CTAB
M  V30 COUNTS 16 15 0 0 0
M  V30 BEGIN ATOM
M  V30 1 Cl -1.1556 -0.6602 2.2296 0
M  V30 2 C -1.4744 -0.7165 0.4727 0
M  V30 3 C -0.6508 0.3323 -0.2981 0
M  V30 4 O 0.7381 0.1953 0.009 0
M  V30 5 C -1.0891 1.7673 0.0257 0
M  V30 6 C 1.5426 -0.8379 -0.484 0
M  V30 7 Cl -2.7264 2.1102 -0.598 0
M  V30 8 O 1.0777 -1.692 -1.2867 0
M  V30 9 N 2.9061 -0.9191 -0.079 0
M  V30 10 H -1.2166 -1.7327 0.1087 0
M  V30 11 H -2.5603 -0.5676 0.2978 0
M  V30 12 H -0.7989 0.1731 -1.3898 0
M  V30 13 H -0.3882 2.4809 -0.457 0
M  V30 14 H -1.0661 1.9534 1.12 0
M  V30 15 H 3.5215 -1.6818 -0.4391 0
M  V30 16 H 3.2991 -0.2147 0.5837 0
M  V30 END ATOM
M  V30 BEGIN BOND
M  V30 1 1 1 2
M  V30 2 1 2 3
M  V30 3 1 3 4
M  V30 4 1 3 5
M  V30 5 1 4 6
M  V30 6 1 5 7
M  V30 7 2 6 8
M  V30 8 1 6 9
M  V30 9 1 2 10
M  V30 10 1 2 11
M  V30 11 1 3 12
M  V30 12 1 5 13
M  V30 13 1 5 14
M  V30 14 1 9 15
M  V30 15 1 9 16
M  V30 END BOND
M  V30 END CTAB
M  END
>  <Structure No>
3929

>  <LogS>
-1.3605

>  <MMFF94 Energy>
-62.332

$$$$
Compound 3930
Actelion Java MolfileCreator 2.0

  0  0  0  0  0  0              0 V3000
M  V30 BEGIN CTAB
M  V30 COUNTS 19 19 0 0 0
M  V30 BEGIN ATOM
M  V30 1 O 3.0434 -0.4677 -1.0136 0
M  V30 2 C 2.544 -0.0749 0.2349 0
M  V30 3 C 1.0857 0.2745 0.1211 0
M  V30 4 C 0.1031 -0.6996 0.3613 0
M  V30 5 C 0.6978 1.559 -0.2899 0
M  V30 6 C -1.2585 -0.3832 0.231 0
M  V30 7 C -0.6558 1.8715 -0.4378 0
M  V30 8 C -1.6316 0.9045 -0.1827 0
M  V30 9 C -2.3031 -1.4355 0.4575 0
M  V30 10 H 2.7142 -1.3908 -1.173 0
M  V30 11 H 3.1166 0.8097 0.5863 0
M  V30 12 H 2.7004 -0.881 0.9877 0
M  V30 13 H 0.3978 -1.7018 0.6491 0
M  V30 14 H 1.4434 2.3157 -0.5006 0
M  V30 15 H -0.9491 2.8631 -0.7575 0
M  V30 16 H -2.6764 1.1585 -0.3117 0
M  V30 17 H -2.4911 -1.979 -0.4916 0
M  V30 18 H -1.9678 -2.1599 1.2298 0
M  V30 19 H -3.2528 -0.977 0.8068 0
M  V30 END ATOM
M  V30 BEGIN BOND
M  V30 1 1 1 2
M  V30 2 1 2 3
M  V30 3 2 3 4
M  V30 4 1 3 5
M  V30 5 1 4 6
M  V30 6 2 5 7
M  V30 7 2 6 8
M  V30 8 1 6 9
M  V30 9 1 7 8
M  V30 10 1 1 10
M  V30 11 1 2 11
M  V30 12 1 2 12
M  V30 13 1 4 13
M  V30 14 1 5 14
M  V30 15 1 7 15
M  V30 16 1 8 16
M  V30 17 1 9 17
M  V30 18 1 9 18
M  V30 19 1 9 19
M  V30 END BOND
M  V30 END CTAB
M  END
>  <Structure No>
3930

>  <LogS>
-0.388

>  <MMFF94 Energy>
22.086

$$$$
Compound 3931
Actelion Java MolfileCreator 2.0

  0  0  0  0  0  0              0 V3000
M  V30 BEGIN CTAB
M  V30 COUNTS 18 18 0 0 0
M  V30 BEGIN ATOM
M  V30 1 Cl -1.5232 2.7938 1.7772 0
M  V30 2 C -1.4164 1.2523 0.9463 0
M  V30 3 C -2.579 0.6231 0.4908 0
M  V30 4 C -0.1683 0.6535 0.7404 0
M  V30 5 C -2.4959 -0.6056 -0.1703 0
M  V30 6 C -0.0765 -0.5839 0.0721 0
M  V30 7 Cl -3.9548 -1.3955 -0.7407 0
M  V30 8 C -1.2488 -1.2053 -0.3772 0
M  V30 9 O 1.1484 -1.2298 -0.163 0
M  V30 10 C 2.434 -0.7111 0.1779 0
M  V30 11 C 2.7969 0.4332 -0.7146 0
M  V30 12 O 2.7436 0.3011 -1.9656 0
M  V30 13 O 3.22 1.6378 -0.167 0 CHG=-1
M  V30 14 H -3.5442 1.0875 0.651 0
M  V30 15 H 0.7158 1.1574 1.1042 0
M  V30 16 H -1.1881 -2.157 -0.8901 0
M  V30 17 H 3.1872 -1.5147 0.0412 0
M  V30 18 H 2.4584 -0.407 1.2464 0
M  V30 END ATOM
M  V30 BEGIN BOND
M  V30 1 1 1 2
M  V30 2 2 2 3
M  V30 3 1 2 4
M  V30 4 1 3 5
M  V30 5 2 4 6
M  V30 6 1 5 7
M  V30 7 2 5 8
M  V30 8 1 6 9
M  V30 9 1 9 10
M  V30 10 1 10 11
M  V30 11 2 11 12
M  V30 12 1 11 13
M  V30 13 1 6 8
M  V30 14 1 3 14
M  V30 15 1 4 15
M  V30 16 1 8 16
M  V30 17 1 10 17
M  V30 18 1 10 18
M  V30 END BOND
M  V30 END CTAB
M  END
>  <Structure No>
3931

>  <LogS>
-2.3617

>  <MMFF94 Energy>
48.768

$$$$
Compound 3932
Actelion Java MolfileCreator 2.0

  0  0  0  0  0  0              0 V3000
M  V30 BEGIN CTAB
M  V30 COUNTS 18 18 0 0 0
M  V30 BEGIN ATOM
M  V30 1 Cl -3.1275 2.3037 0.0 0
M  V30 2 C -2.2085 0.8413 0.3067 0
M  V30 3 C -0.8284 0.8197 0.0734 0
M  V30 4 C -2.8556 -0.3025 0.7845 0
M  V30 5 C -0.0862 -0.353 0.3184 0
M  V30 6 C -2.1247 -1.4675 1.0291 0
M  V30 7 O 1.2975 -0.4274 0.1013 0
M  V30 8 C -0.7465 -1.4919 0.797 0
M  V30 9 C 2.0959 0.6491 -0.3808 0
M  V30 10 C 3.5136 0.1987 -0.4875 0
M  V30 11 O 4.2783 0.2741 0.5097 0
M  V30 12 O 3.9794 -0.3566 -1.6722 0 CHG=-1
M  V30 13 H -0.3465 1.7147 -0.2961 0
M  V30 14 H -3.9227 -0.2896 0.9663 0
M  V30 15 H -2.6263 -2.3524 1.3989 0
M  V30 16 H -0.1882 -2.3993 0.9893 0
M  V30 17 H 2.0322 1.5105 0.3191 0
M  V30 18 H 1.7363 0.9658 -1.3834 0
M  V30 END ATOM
M  V30 BEGIN BOND
M  V30 1 1 1 2
M  V30 2 2 2 3
M  V30 3 1 2 4
M  V30 4 1 3 5
M  V30 5 2 4 6
M  V30 6 1 5 7
M  V30 7 2 5 8
M  V30 8 1 7 9
M  V30 9 1 9 10
M  V30 10 2 10 11
M  V30 11 1 10 12
M  V30 12 1 6 8
M  V30 13 1 3 13
M  V30 14 1 4 14
M  V30 15 1 6 15
M  V30 16 1 8 16
M  V30 17 1 9 17
M  V30 18 1 9 18
M  V30 END BOND
M  V30 END CTAB
M  END
>  <Structure No>
3932

>  <LogS>
-2.1954

>  <MMFF94 Energy>
62.473

$$$$
Compound 3933
Actelion Java MolfileCreator 2.0

  0  0  0  0  0  0              0 V3000
M  V30 BEGIN CTAB
M  V30 COUNTS 26 27 0 0 0
M  V30 BEGIN ATOM
M  V30 1 C 1.8963 0.3948 -0.0789 0
M  V30 2 C 2.5766 -0.7918 -0.4239 0
M  V30 3 C 2.6488 1.5382 0.2421 0
M  V30 4 C 0.4155 0.4975 -0.079 0
M  V30 5 C 3.9747 -0.8315 -0.4191 0
M  V30 6 C 4.0462 1.492 0.2458 0
M  V30 7 C -0.4038 -0.5586 0.0455 0
M  V30 8 C 4.7085 0.3073 -0.0812 0
M  V30 9 C -1.8846 -0.456 0.0455 0
M  V30 10 C -2.565 0.7308 0.3903 0
M  V30 11 C -2.6372 -1.5993 -0.275 0
M  V30 12 C -3.9632 0.7705 0.3856 0
M  V30 13 C -4.0346 -1.5531 -0.2786 0
M  V30 14 C -4.697 -0.3683 0.0482 0
M  V30 15 H 2.0423 -1.6824 -0.7226 0
M  V30 16 H 2.1538 2.467 0.4993 0
M  V30 17 H -0.0017 1.491 -0.1695 0
M  V30 18 H 4.4899 -1.7453 -0.6857 0
M  V30 19 H 4.6157 2.3762 0.5017 0
M  V30 20 H 0.0133 -1.5519 0.1362 0
M  V30 21 H 5.7902 0.2736 -0.0796 0
M  V30 22 H -2.0308 1.6217 0.6888 0
M  V30 23 H -2.1422 -2.5281 -0.532 0
M  V30 24 H -4.4785 1.6845 0.6521 0
M  V30 25 H -4.6041 -2.4374 -0.5341 0
M  V30 26 H -5.779 -0.3345 0.0467 0
M  V30 END ATOM
M  V30 BEGIN BOND
M  V30 1 2 1 2
M  V30 2 1 1 3
M  V30 3 1 1 4
M  V30 4 1 2 5
M  V30 5 2 3 6
M  V30 6 2 4 7
M  V30 7 2 5 8
M  V30 8 1 7 9
M  V30 9 2 9 10
M  V30 10 1 9 11
M  V30 11 1 10 12
M  V30 12 2 11 13
M  V30 13 2 12 14
M  V30 14 1 6 8
M  V30 15 1 13 14
M  V30 16 1 2 15
M  V30 17 1 3 16
M  V30 18 1 4 17
M  V30 19 1 5 18
M  V30 20 1 6 19
M  V30 21 1 7 20
M  V30 22 1 8 21
M  V30 23 1 10 22
M  V30 24 1 11 23
M  V30 25 1 12 24
M  V30 26 1 13 25
M  V30 27 1 14 26
M  V30 END BOND
M  V30 END CTAB
M  END
>  <Structure No>
3933

>  <LogS>
-5.7905

>  <MMFF94 Energy>
39.93

$$$$
Compound 3934
Actelion Java MolfileCreator 2.0

  0  0  0  0  0  0              0 V3000
M  V30 BEGIN CTAB
M  V30 COUNTS 20 20 0 0 0
M  V30 BEGIN ATOM
M  V30 1 O -3.2839 0.0 1.25 0
M  V30 2 C -2.8494 -0.4307 -0.0103 0
M  V30 3 C -1.3583 -0.2716 -0.1245 0
M  V30 4 C -0.5016 -1.2655 0.3728 0
M  V30 5 C -0.8109 0.9006 -0.6682 0
M  V30 6 C 0.8851 -1.1031 0.2986 0
M  V30 7 C 0.5758 1.063 -0.7422 0
M  V30 8 C 1.4326 0.0553 -0.2736 0
M  V30 9 C 2.9235 0.2472 -0.3198 0
M  V30 10 O 3.3516 0.9625 0.8064 0
M  V30 11 H -3.2737 0.9928 1.2295 0
M  V30 12 H -3.1241 -1.4997 -0.1364 0
M  V30 13 H -3.3711 0.1348 -0.816 0
M  V30 14 H -0.9073 -2.1641 0.821 0
M  V30 15 H -1.4574 1.6903 -1.0313 0
M  V30 16 H 1.5313 -1.8788 0.6907 0
M  V30 17 H 0.9814 1.9756 -1.1616 0
M  V30 18 H 3.4476 -0.734 -0.3799 0
M  V30 19 H 3.2011 0.8176 -1.2318 0
M  V30 20 H 3.3392 0.3257 1.5684 0
M  V30 END ATOM
M  V30 BEGIN BOND
M  V30 1 1 1 2
M  V30 2 1 2 3
M  V30 3 2 3 4
M  V30 4 1 3 5
M  V30 5 1 4 6
M  V30 6 2 5 7
M  V30 7 2 6 8
M  V30 8 1 8 9
M  V30 9 1 9 10
M  V30 10 1 7 8
M  V30 11 1 1 11
M  V30 12 1 2 12
M  V30 13 1 2 13
M  V30 14 1 4 14
M  V30 15 1 5 15
M  V30 16 1 6 16
M  V30 17 1 7 17
M  V30 18 1 9 18
M  V30 19 1 9 19
M  V30 20 1 10 20
M  V30 END BOND
M  V30 END CTAB
M  END
>  <Structure No>
3934

>  <LogS>
-0.3861

>  <MMFF94 Energy>
23.357

$$$$
Compound 3935
Actelion Java MolfileCreator 2.0

  0  0  0  0  0  0              0 V3000
M  V30 BEGIN CTAB
M  V30 COUNTS 23 22 0 0 0
M  V30 BEGIN ATOM
M  V30 1 C -0.6139 -0.1534 -0.6139 0 CFG=2
M  V30 2 C 0.4944 -0.0394 0.4631 0
M  V30 3 C -2.0129 -0.298 0.0334 0
M  V30 4 C -0.3604 -1.3488 -1.5489 0
M  V30 5 C 1.8791 0.2683 -0.1302 0
M  V30 6 C -2.5056 0.9898 0.6971 0
M  V30 7 C 2.8965 0.5647 0.9685 0
M  V30 8 H -0.609 0.7685 -1.2375 0
M  V30 9 H 0.2394 0.7827 1.1635 0
M  V30 10 H 0.5455 -0.9813 1.053 0
M  V30 11 H -2.7564 -0.5662 -0.7493 0
M  V30 12 H -2.0065 -1.12 0.7824 0
M  V30 13 H -1.1946 -1.4581 -2.2746 0
M  V30 14 H 0.5633 -1.1965 -2.1435 0
M  V30 15 H -0.2697 -2.2905 -0.966 0
M  V30 16 H 1.8138 1.1494 -0.805 0
M  V30 17 H 2.2468 -0.6012 -0.7142 0
M  V30 18 H -2.429 1.8463 -0.0058 0
M  V30 19 H -3.5708 0.8694 0.9876 0
M  V30 20 H -1.9282 1.2114 1.6177 0
M  V30 21 H 2.9878 -0.3047 1.6541 0
M  V30 22 H 3.8892 0.7636 0.5123 0
M  V30 23 H 2.5886 1.46 1.55 0
M  V30 END ATOM
M  V30 BEGIN BOND
M  V30 1 1 1 2
M  V30 2 1 1 3
M  V30 3 1 1 4
M  V30 4 1 2 5
M  V30 5 1 3 6
M  V30 6 1 5 7
M  V30 7 1 1 8
M  V30 8 1 2 9
M  V30 9 1 2 10
M  V30 10 1 3 11
M  V30 11 1 3 12
M  V30 12 1 4 13
M  V30 13 1 4 14
M  V30 14 1 4 15
M  V30 15 1 5 16
M  V30 16 1 5 17
M  V30 17 1 6 18
M  V30 18 1 6 19
M  V30 19 1 6 20
M  V30 20 1 7 21
M  V30 21 1 7 22
M  V30 22 1 7 23
M  V30 END BOND
M  V30 BEGIN COLLECTION
M  V30 MDLV30/STEABS ATOMS=(1 1)
M  V30 END COLLECTION
M  V30 END CTAB
M  END
>  <Structure No>
3935

>  <LogS>
-4.3063

>  <MMFF94 Energy>
1.2944

$$$$
Compound 3936
Actelion Java MolfileCreator 2.0

  0  0  0  0  0  0              0 V3000
M  V30 BEGIN CTAB
M  V30 COUNTS 19 18 0 0 0
M  V30 BEGIN ATOM
M  V30 1 O 0.5386 -0.3077 1.8476 0
M  V30 2 C 0.4616 -0.3013 0.6278 0
M  V30 3 C -0.7256 -0.9442 -0.0427 0
M  V30 4 C 1.5527 0.3511 -0.1786 0
M  V30 5 C -2.025 -0.179 0.2406 0
M  V30 6 C 2.8539 -0.4365 -0.0703 0
M  V30 7 C -2.0388 1.2001 -0.418 0
M  V30 8 H -0.827 -1.9824 0.3403 0
M  V30 9 H -0.569 -1.0167 -1.1408 0
M  V30 10 H 1.713 1.3858 0.1935 0
M  V30 11 H 1.2611 0.4193 -1.2486 0
M  V30 12 H -2.8788 -0.7688 -0.1575 0
M  V30 13 H -2.173 -0.0689 1.3372 0
M  V30 14 H 3.198 -0.4735 0.9853 0
M  V30 15 H 3.6388 0.0568 -0.6815 0
M  V30 16 H 2.7083 -1.4719 -0.446 0
M  V30 17 H -1.8945 1.1058 -1.5153 0
M  V30 18 H -1.2366 1.8419 0.0037 0
M  V30 19 H -3.0168 1.6911 -0.2296 0
M  V30 END ATOM
M  V30 BEGIN BOND
M  V30 1 2 1 2
M  V30 2 1 2 3
M  V30 3 1 2 4
M  V30 4 1 3 5
M  V30 5 1 4 6
M  V30 6 1 5 7
M  V30 7 1 3 8
M  V30 8 1 3 9
M  V30 9 1 4 10
M  V30 10 1 4 11
M  V30 11 1 5 12
M  V30 12 1 5 13
M  V30 13 1 6 14
M  V30 14 1 6 15
M  V30 15 1 6 16
M  V30 16 1 7 17
M  V30 17 1 7 18
M  V30 18 1 7 19
M  V30 END BOND
M  V30 END CTAB
M  END
>  <Structure No>
3936

>  <LogS>
-0.8334

>  <MMFF94 Energy>
-0.96896

$$$$
Compound 3937
Actelion Java MolfileCreator 2.0

  0  0  0  0  0  0              0 V3000
M  V30 BEGIN CTAB
M  V30 COUNTS 26 25 0 0 0
M  V30 BEGIN ATOM
M  V30 1 C -1.385 0.5384 -0.6923 0 CFG=1
M  V30 2 C -0.0018 -0.1072 -0.9669 0
M  V30 3 C -2.0943 0.0065 0.5754 0
M  V30 4 C -1.2922 2.0712 -0.6442 0
M  V30 5 C 1.015 0.0431 0.1783 0
M  V30 6 C -2.3424 -1.5014 0.535 0
M  V30 7 C 2.3649 -0.5732 -0.207 0
M  V30 8 C 3.3782 -0.4362 0.9258 0
M  V30 9 H -2.0316 0.2902 -1.5639 0
M  V30 10 H 0.4231 0.3477 -1.889 0
M  V30 11 H -0.1416 -1.1865 -1.191 0
M  V30 12 H -1.5164 0.2633 1.4886 0
M  V30 13 H -3.0831 0.5078 0.6664 0
M  V30 14 H -2.312 2.512 -0.6339 0
M  V30 15 H -0.7583 2.4121 0.2672 0
M  V30 16 H -0.7626 2.4573 -1.541 0
M  V30 17 H 0.6374 -0.4713 1.0872 0
M  V30 18 H 1.1658 1.1181 0.4123 0
M  V30 19 H -2.9822 -1.7933 1.3945 0
M  V30 20 H -2.8619 -1.7852 -0.4046 0
M  V30 21 H -1.3864 -2.0593 0.6145 0
M  V30 22 H 2.7658 -0.0639 -1.1105 0
M  V30 23 H 2.2314 -1.6521 -0.4409 0
M  V30 24 H 3.0138 -0.9601 1.8351 0
M  V30 25 H 4.3437 -0.89 0.6176 0
M  V30 26 H 3.5492 0.6353 1.1632 0
M  V30 END ATOM
M  V30 BEGIN BOND
M  V30 1 1 1 2
M  V30 2 1 1 3
M  V30 3 1 1 4
M  V30 4 1 2 5
M  V30 5 1 3 6
M  V30 6 1 5 7
M  V30 7 1 7 8
M  V30 8 1 1 9
M  V30 9 1 2 10
M  V30 10 1 2 11
M  V30 11 1 3 12
M  V30 12 1 3 13
M  V30 13 1 4 14
M  V30 14 1 4 15
M  V30 15 1 4 16
M  V30 16 1 5 17
M  V30 17 1 5 18
M  V30 18 1 6 19
M  V30 19 1 6 20
M  V30 20 1 6 21
M  V30 21 1 7 22
M  V30 22 1 7 23
M  V30 23 1 8 24
M  V30 24 1 8 25
M  V30 25 1 8 26
M  V30 END BOND
M  V30 BEGIN COLLECTION
M  V30 MDLV30/STEABS ATOMS=(1 1)
M  V30 END COLLECTION
M  V30 END CTAB
M  END
>  <Structure No>
3937

>  <LogS>
-5.1591

>  <MMFF94 Energy>
1.1072

$$$$
Compound 3938
Actelion Java MolfileCreator 2.0

  0  0  0  0  0  0              0 V3000
M  V30 BEGIN CTAB
M  V30 COUNTS 24 24 0 0 0
M  V30 BEGIN ATOM
M  V30 1 C 1.3342 0.0784 0.3922 0 CFG=1
M  V30 2 C 0.6522 1.3145 -0.2199 0
M  V30 3 C 0.8113 -1.2253 -0.2618 0
M  V30 4 C 2.8587 0.1783 0.2702 0
M  V30 5 C -0.8759 1.2941 -0.0034 0
M  V30 6 C -0.6647 -1.1428 -0.7061 0
M  V30 7 C -1.4617 -0.1333 0.1383 0 CFG=2
M  V30 8 C -2.9466 -0.1552 -0.2404 0
M  V30 9 H 1.0878 0.0526 1.478 0
M  V30 10 H 1.0688 2.243 0.2288 0
M  V30 11 H 0.8667 1.3445 -1.3116 0
M  V30 12 H 1.424 -1.4862 -1.1531 0
M  V30 13 H 0.927 -2.0562 0.4682 0
M  V30 14 H 3.3361 -0.7163 0.7235 0
M  V30 15 H 3.2271 1.0783 0.8072 0
M  V30 16 H 3.1637 0.248 -0.796 0
M  V30 17 H -1.1222 1.8685 0.9166 0
M  V30 18 H -1.3507 1.8266 -0.8573 0
M  V30 19 H -0.7083 -0.8368 -1.7752 0
M  V30 20 H -1.1229 -2.1532 -0.6279 0
M  V30 21 H -1.3855 -0.4421 1.2056 0
M  V30 22 H -3.0827 0.1075 -1.3115 0
M  V30 23 H -3.5093 0.572 0.3829 0
M  V30 24 H -3.3717 -1.1662 -0.0633 0
M  V30 END ATOM
M  V30 BEGIN BOND
M  V30 1 1 1 2
M  V30 2 1 1 3
M  V30 3 1 1 4
M  V30 4 1 2 5
M  V30 5 1 3 6
M  V30 6 1 5 7
M  V30 7 1 7 8
M  V30 8 1 6 7
M  V30 9 1 1 9
M  V30 10 1 2 10
M  V30 11 1 2 11
M  V30 12 1 3 12
M  V30 13 1 3 13
M  V30 14 1 4 14
M  V30 15 1 4 15
M  V30 16 1 4 16
M  V30 17 1 5 17
M  V30 18 1 5 18
M  V30 19 1 6 19
M  V30 20 1 6 20
M  V30 21 1 7 21
M  V30 22 1 8 22
M  V30 23 1 8 23
M  V30 24 1 8 24
M  V30 END BOND
M  V30 BEGIN COLLECTION
M  V30 MDLV30/STEABS ATOMS=(2 1 7)
M  V30 END COLLECTION
M  V30 END CTAB
M  END
>  <Structure No>
3938

>  <LogS>
-4.4657

>  <MMFF94 Energy>
6.3046

$$$$
Compound 3939
Actelion Java MolfileCreator 2.0

  0  0  0  0  0  0              0 V3000
M  V30 BEGIN CTAB
M  V30 COUNTS 23 22 0 0 0
M  V30 BEGIN ATOM
M  V30 1 O 1.6271 -1.007 2.0923 0
M  V30 2 C 1.4443 -0.6843 0.8867 0
M  V30 3 O 0.2979 0.015 0.5008 0
M  V30 4 C 2.4832 -1.012 -0.137 0
M  V30 5 C -0.732 0.37 1.4176 0
M  V30 6 C 3.4369 0.1613 -0.3262 0
M  V30 7 C -1.8542 1.1177 0.6906 0
M  V30 8 C -2.7738 0.1942 -0.1255 0
M  V30 9 C -2.0912 -0.3937 -1.3599 0
M  V30 10 H 1.986 -1.2429 -1.1033 0
M  V30 11 H 3.0576 -1.9091 0.1806 0
M  V30 12 H -1.1332 -0.5406 1.914 0
M  V30 13 H -0.3056 1.0367 2.1985 0
M  V30 14 H 2.8801 1.0596 -0.6692 0
M  V30 15 H 3.9564 0.3937 0.6281 0
M  V30 16 H 4.1982 -0.0983 -1.0914 0
M  V30 17 H -1.4226 1.9075 0.0376 0
M  V30 18 H -2.4783 1.6285 1.4558 0
M  V30 19 H -3.1571 -0.6291 0.5155 0
M  V30 20 H -3.6501 0.7884 -0.4645 0
M  V30 21 H -1.3301 -1.1453 -1.0657 0
M  V30 22 H -1.6121 0.408 -1.961 0
M  V30 23 H -2.8485 -0.9037 -1.9917 0
M  V30 END ATOM
M  V30 BEGIN BOND
M  V30 1 2 1 2
M  V30 2 1 2 3
M  V30 3 1 2 4
M  V30 4 1 3 5
M  V30 5 1 4 6
M  V30 6 1 5 7
M  V30 7 1 7 8
M  V30 8 1 8 9
M  V30 9 1 4 10
M  V30 10 1 4 11
M  V30 11 1 5 12
M  V30 12 1 5 13
M  V30 13 1 6 14
M  V30 14 1 6 15
M  V30 15 1 6 16
M  V30 16 1 7 17
M  V30 17 1 7 18
M  V30 18 1 8 19
M  V30 19 1 8 20
M  V30 20 1 9 21
M  V30 21 1 9 22
M  V30 22 1 9 23
M  V30 END BOND
M  V30 END CTAB
M  END
>  <Structure No>
3939

>  <LogS>
-1.9385

>  <MMFF94 Energy>
-12.745

$$$$
Compound 3940
Actelion Java MolfileCreator 2.0

  0  0  0  0  0  0              0 V3000
M  V30 BEGIN CTAB
M  V30 COUNTS 4 3 0 0 0
M  V30 BEGIN ATOM
M  V30 1 O -0.8545 -0.8545 -0.1553 0
M  V30 2 C -0.0255 0.0776 0.0077 0
M  V30 3 O 1.3329 -0.1689 -0.1345 0 CHG=-1
M  V30 4 H -0.3714 1.0711 0.2586 0
M  V30 END ATOM
M  V30 BEGIN BOND
M  V30 1 2 1 2
M  V30 2 1 2 3
M  V30 3 1 2 4
M  V30 END BOND
M  V30 END CTAB
M  END
>  <Structure No>
3940

>  <LogS>
0.9288

>  <MMFF94 Energy>
0.012811

$$$$
Compound 3941
Actelion Java MolfileCreator 2.0

  0  0  0  0  0  0              0 V3000
M  V30 BEGIN CTAB
M  V30 COUNTS 23 22 0 0 0
M  V30 BEGIN ATOM
M  V30 1 C -0.8454 -0.0768 0.0768 0
M  V30 2 C 0.3808 -0.4179 0.988 0
M  V30 3 C -0.9697 1.4402 -0.1761 0
M  V30 4 C -0.768 -0.8228 -1.2736 0
M  V30 5 C -2.125 -0.5523 0.8013 0
M  V30 6 C 1.7114 0.3217 0.7234 0
M  V30 7 C 2.3976 -0.0609 -0.5861 0
M  V30 8 H 0.1115 -0.177 2.0408 0
M  V30 9 H 0.5674 -1.5145 0.972 0
M  V30 10 H -1.9152 1.6717 -0.7128 0
M  V30 11 H -0.9688 1.9969 0.7857 0
M  V30 12 H -0.1332 1.8113 -0.8046 0
M  V30 13 H -1.7163 -0.701 -1.841 0
M  V30 14 H -0.6 -1.9096 -1.1148 0
M  V30 15 H 0.0392 -0.4318 -1.9191 0
M  V30 16 H -3.0288 -0.3622 0.1822 0
M  V30 17 H -2.0725 -1.6426 1.0125 0
M  V30 18 H -2.2556 -0.0162 1.7665 0
M  V30 19 H 2.4048 0.0562 1.5515 0
M  V30 20 H 1.5757 1.4223 0.7748 0
M  V30 21 H 2.299 -1.1489 -0.7859 0
M  V30 22 H 3.4784 0.1861 -0.5214 0
M  V30 23 H 1.979 0.5249 -1.4286 0
M  V30 END ATOM
M  V30 BEGIN BOND
M  V30 1 1 1 2
M  V30 2 1 1 3
M  V30 3 1 1 4
M  V30 4 1 1 5
M  V30 5 1 2 6
M  V30 6 1 6 7
M  V30 7 1 2 8
M  V30 8 1 2 9
M  V30 9 1 3 10
M  V30 10 1 3 11
M  V30 11 1 3 12
M  V30 12 1 4 13
M  V30 13 1 4 14
M  V30 14 1 4 15
M  V30 15 1 5 16
M  V30 16 1 5 17
M  V30 17 1 5 18
M  V30 18 1 6 19
M  V30 19 1 6 20
M  V30 20 1 7 21
M  V30 21 1 7 22
M  V30 22 1 7 23
M  V30 END BOND
M  V30 END CTAB
M  END
>  <Structure No>
3941

>  <LogS>
-4.3575

>  <MMFF94 Energy>
13.298

$$$$
Compound 3942
Actelion Java MolfileCreator 2.0

  0  0  0  0  0  0              0 V3000
M  V30 BEGIN CTAB
M  V30 COUNTS 21 20 0 0 0
M  V30 BEGIN ATOM
M  V30 1 O -0.9977 1.3816 0.9977 0
M  V30 2 C -1.0325 0.2667 0.138 0
M  V30 3 C 0.3521 0.0554 -0.5372 0
M  V30 4 C -1.4335 -0.9666 0.9667 0
M  V30 5 C -2.1007 0.4965 -0.9499 0
M  V30 6 C 1.5158 -0.0675 0.462 0
M  V30 7 C 2.8568 -0.1387 -0.2634 0
M  V30 8 H -0.7331 2.1739 0.4598 0
M  V30 9 H 0.3212 -0.8579 -1.1722 0
M  V30 10 H 0.5575 0.9174 -1.2108 0
M  V30 11 H -0.7656 -1.0884 1.8445 0
M  V30 12 H -2.4684 -0.8517 1.3554 0
M  V30 13 H -1.3894 -1.8894 0.349 0
M  V30 14 H -1.841 1.3789 -1.5733 0
M  V30 15 H -2.1815 -0.3908 -1.6143 0
M  V30 16 H -3.0927 0.6844 -0.4856 0
M  V30 17 H 1.402 -0.9896 1.0697 0
M  V30 18 H 1.5286 0.8087 1.145 0
M  V30 19 H 2.8816 -1.0174 -0.9428 0
M  V30 20 H 3.0265 0.7868 -0.8539 0
M  V30 21 H 3.6764 -0.2405 0.4787 0
M  V30 END ATOM
M  V30 BEGIN BOND
M  V30 1 1 1 2
M  V30 2 1 2 3
M  V30 3 1 2 4
M  V30 4 1 2 5
M  V30 5 1 3 6
M  V30 6 1 6 7
M  V30 7 1 1 8
M  V30 8 1 3 9
M  V30 9 1 3 10
M  V30 10 1 4 11
M  V30 11 1 4 12
M  V30 12 1 4 13
M  V30 13 1 5 14
M  V30 14 1 5 15
M  V30 15 1 5 16
M  V30 16 1 6 17
M  V30 17 1 6 18
M  V30 18 1 7 19
M  V30 19 1 7 20
M  V30 20 1 7 21
M  V30 END BOND
M  V30 END CTAB
M  END
>  <Structure No>
3942

>  <LogS>
-0.4988

>  <MMFF94 Energy>
9.133

$$$$
Compound 3943
Actelion Java MolfileCreator 2.0

  0  0  0  0  0  0              0 V3000
M  V30 BEGIN CTAB
M  V30 COUNTS 28 27 0 0 0
M  V30 BEGIN ATOM
M  V30 1 O 2.7802 -0.3086 1.621 0
M  V30 2 C 2.6462 -0.6568 0.4168 0
M  V30 3 O 1.782 0.0352 -0.4392 0
M  V30 4 N 3.3875 -1.7657 -0.0832 0
M  V30 5 C 0.9435 1.1141 -0.0207 0 CFG=2
M  V30 6 C -0.2725 0.6261 0.8288 0
M  V30 7 C 0.5819 1.9814 -1.2259 0
M  V30 8 N -1.3155 -0.2421 0.1813 0 CHG=1
M  V30 9 C -2.109 -0.873 1.2678 0
M  V30 10 C -0.7286 -1.327 -0.6386 0
M  V30 11 C -2.2564 0.5547 -0.6458 0
M  V30 12 H 4.0387 -2.2926 0.5401 0
M  V30 13 H 3.2802 -2.0617 -1.0783 0
M  V30 14 H 1.5422 1.775 0.6469 0
M  V30 15 H 0.1683 0.092 1.7008 0
M  V30 16 H -0.7556 1.5267 1.2724 0
M  V30 17 H -0.2318 2.693 -0.9715 0
M  V30 18 H 0.2961 1.3564 -2.0955 0
M  V30 19 H 1.4708 2.5727 -1.533 0
M  V30 20 H -2.9284 -1.5089 0.8619 0
M  V30 21 H -1.472 -1.527 1.9055 0
M  V30 22 H -2.5726 -0.1014 1.9237 0
M  V30 23 H -1.5152 -2.0314 -0.992 0
M  V30 24 H 0.0117 -1.9135 -0.0511 0
M  V30 25 H -0.2338 -0.9286 -1.5489 0
M  V30 26 H -2.6318 1.443 -0.091 0
M  V30 27 H -1.7985 0.8972 -1.5912 0
M  V30 28 H -3.1402 -0.0521 -0.9468 0
M  V30 END ATOM
M  V30 BEGIN BOND
M  V30 1 2 1 2
M  V30 2 1 2 3
M  V30 3 1 2 4
M  V30 4 1 3 5
M  V30 5 1 5 6
M  V30 6 1 5 7
M  V30 7 1 6 8
M  V30 8 1 8 9
M  V30 9 1 8 10
M  V30 10 1 8 11
M  V30 11 1 4 12
M  V30 12 1 4 13
M  V30 13 1 5 14
M  V30 14 1 6 15
M  V30 15 1 6 16
M  V30 16 1 7 17
M  V30 17 1 7 18
M  V30 18 1 7 19
M  V30 19 1 9 20
M  V30 20 1 9 21
M  V30 21 1 9 22
M  V30 22 1 10 23
M  V30 23 1 10 24
M  V30 24 1 10 25
M  V30 25 1 11 26
M  V30 26 1 11 27
M  V30 27 1 11 28
M  V30 END BOND
M  V30 BEGIN COLLECTION
M  V30 MDLV30/STEABS ATOMS=(1 5)
M  V30 END COLLECTION
M  V30 END CTAB
M  END
>  <Structure No>
3943

>  <LogS>
0.5021

>  <MMFF94 Energy>
-39.728

$$$$
Compound 3944
Actelion Java MolfileCreator 2.0

  0  0  0  0  0  0              0 V3000
M  V30 BEGIN CTAB
M  V30 COUNTS 26 25 0 0 0
M  V30 BEGIN ATOM
M  V30 1 C -1.3867 -0.077 0.0 0
M  V30 2 C -0.1956 -0.0908 1.0077 0
M  V30 3 C -1.8658 1.367 -0.2691 0
M  V30 4 C -2.5579 -0.8634 0.6274 0
M  V30 5 C -1.0063 -0.7523 -1.3329 0
M  V30 6 C 1.1261 0.5425 0.5086 0
M  V30 7 C 2.1483 -0.5135 0.0613 0
M  V30 8 C 3.4328 0.1395 -0.4405 0
M  V30 9 H -0.0033 -1.1354 1.3408 0
M  V30 10 H -0.5111 0.4565 1.9241 0
M  V30 11 H -2.7858 1.3622 -0.8929 0
M  V30 12 H -2.0985 1.8872 0.6849 0
M  V30 13 H -1.1036 1.9595 -0.8142 0
M  V30 14 H -2.8667 -0.4047 1.5918 0
M  V30 15 H -3.4393 -0.8708 -0.05 0
M  V30 16 H -2.2648 -1.9179 0.8215 0
M  V30 17 H -1.8898 -0.8155 -2.0044 0
M  V30 18 H -0.2233 -0.1746 -1.8669 0
M  V30 19 H -0.6324 -1.7833 -1.1548 0
M  V30 20 H 0.9502 1.2622 -0.3151 0
M  V30 21 H 1.5747 1.1205 1.3466 0
M  V30 22 H 1.7272 -1.1394 -0.7522 0
M  V30 23 H 2.3968 -1.1776 0.9174 0
M  V30 24 H 4.1544 -0.6465 -0.747 0
M  V30 25 H 3.8945 0.7517 0.3633 0
M  V30 26 H 3.2189 0.7866 -1.3177 0
M  V30 END ATOM
M  V30 BEGIN BOND
M  V30 1 1 1 2
M  V30 2 1 1 3
M  V30 3 1 1 4
M  V30 4 1 1 5
M  V30 5 1 2 6
M  V30 6 1 6 7
M  V30 7 1 7 8
M  V30 8 1 2 9
M  V30 9 1 2 10
M  V30 10 1 3 11
M  V30 11 1 3 12
M  V30 12 1 3 13
M  V30 13 1 4 14
M  V30 14 1 4 15
M  V30 15 1 4 16
M  V30 16 1 5 17
M  V30 17 1 5 18
M  V30 18 1 5 19
M  V30 19 1 6 20
M  V30 20 1 6 21
M  V30 21 1 7 22
M  V30 22 1 7 23
M  V30 23 1 8 24
M  V30 24 1 8 25
M  V30 25 1 8 26
M  V30 END BOND
M  V30 END CTAB
M  END
>  <Structure No>
3944

>  <LogS>
-5.7568

>  <MMFF94 Energy>
9.8904

$$$$
Compound 3945
Actelion Java MolfileCreator 2.0

  0  0  0  0  0  0              0 V3000
M  V30 BEGIN CTAB
M  V30 COUNTS 14 13 0 0 0
M  V30 BEGIN ATOM
M  V30 1 O 1.5767 1.126 1.2011 0
M  V30 2 C 1.4367 0.1716 0.3895 0
M  V30 3 N 0.1885 -0.5351 0.2869 0 CHG=1
M  V30 4 N 2.5596 -0.264 -0.3751 0
M  V30 5 C -0.9947 -0.0315 0.5269 0
M  V30 6 N -2.1402 -0.8889 0.5087 0
M  V30 7 N -1.1911 1.3707 0.7555 0
M  V30 8 H 0.2522 -1.542 0.0138 0
M  V30 9 H 2.4706 -1.0655 -1.0378 0
M  V30 10 H 3.4801 0.2206 -0.285 0
M  V30 11 H -3.0948 -0.499 0.6729 0
M  V30 12 H -2.0443 -1.9144 0.3359 0
M  V30 13 H -2.1231 1.7167 1.0746 0
M  V30 14 H -0.494 2.0866 0.4575 0
M  V30 END ATOM
M  V30 BEGIN BOND
M  V30 1 2 1 2
M  V30 2 1 2 3
M  V30 3 1 2 4
M  V30 4 2 3 5
M  V30 5 1 5 6
M  V30 6 1 5 7
M  V30 7 1 3 8
M  V30 8 1 4 9
M  V30 9 1 4 10
M  V30 10 1 6 11
M  V30 11 1 6 12
M  V30 12 1 7 13
M  V30 13 1 7 14
M  V30 END BOND
M  V30 END CTAB
M  END
>  <Structure No>
3945

>  <LogS>
-0.7814

>  <MMFF94 Energy>
-315.5

$$$$
Compound 3946
Actelion Java MolfileCreator 2.0

  0  0  0  0  0  0              0 V3000
M  V30 BEGIN CTAB
M  V30 COUNTS 20 20 0 0 0
M  V30 BEGIN ATOM
M  V30 1 O -1.5005 -2.37 -0.9474 0
M  V30 2 C -1.0488 -1.4104 -0.3412 0
M  V30 3 C 0.4347 -1.2667 -0.1431 0
M  V30 4 C -1.9736 -0.4098 0.2937 0
M  V30 5 C 0.8729 0.1854 -0.4151 0 CFG=1
M  V30 6 C -1.4847 1.0168 0.0177 0
M  V30 7 C -1.0E-4 1.1814 0.3773 0
M  V30 8 C 2.3536 0.3734 -0.0692 0
M  V30 9 H 0.978 -1.9549 -0.8274 0
M  V30 10 H 0.6788 -1.5507 0.9037 0
M  V30 11 H -1.9999 -0.5894 1.3901 0
M  V30 12 H -3.0049 -0.5289 -0.1041 0
M  V30 13 H 0.749 0.3937 -1.5019 0
M  V30 14 H -2.0893 1.7326 0.6154 0
M  V30 15 H -1.6348 1.2589 -1.0574 0
M  V30 16 H 0.1351 1.0236 1.4706 0
M  V30 17 H 0.3106 2.2221 0.1393 0
M  V30 18 H 2.6738 1.4094 -0.3104 0
M  V30 19 H 2.5315 0.1857 1.0116 0
M  V30 20 H 2.9767 -0.3288 -0.6629 0
M  V30 END ATOM
M  V30 BEGIN BOND
M  V30 1 2 1 2
M  V30 2 1 2 3
M  V30 3 1 2 4
M  V30 4 1 3 5
M  V30 5 1 4 6
M  V30 6 1 5 7
M  V30 7 1 5 8
M  V30 8 1 6 7
M  V30 9 1 3 9
M  V30 10 1 3 10
M  V30 11 1 4 11
M  V30 12 1 4 12
M  V30 13 1 5 13
M  V30 14 1 6 14
M  V30 15 1 6 15
M  V30 16 1 7 16
M  V30 17 1 7 17
M  V30 18 1 8 18
M  V30 19 1 8 19
M  V30 20 1 8 20
M  V30 END BOND
M  V30 BEGIN COLLECTION
M  V30 MDLV30/STEABS ATOMS=(1 5)
M  V30 END COLLECTION
M  V30 END CTAB
M  END
>  <Structure No>
3946

>  <LogS>
-1.8738

>  <MMFF94 Energy>
5.2555

$$$$
Compound 3947
Actelion Java MolfileCreator 2.0

  0  0  0  0  0  0              0 V3000
M  V30 BEGIN CTAB
M  V30 COUNTS 19 19 0 0 0
M  V30 BEGIN ATOM
M  V30 1 C 1.0174 0.1564 -0.0782 0
M  V30 2 C 0.2294 1.226 -0.3196 0
M  V30 3 C 0.4414 -1.1739 0.3662 0
M  V30 4 C 2.5114 0.3235 -0.125 0
M  V30 5 C -1.2771 1.1454 -0.3444 0
M  V30 6 C -1.0454 -1.3241 0.0248 0
M  V30 7 C -1.8119 -0.0646 0.4266 0
M  V30 8 H 0.6845 2.1698 -0.6082 0
M  V30 9 H 1.002 -2.0036 -0.1154 0
M  V30 10 H 0.5748 -1.2641 1.466 0
M  V30 11 H 2.8255 1.1204 0.582 0
M  V30 12 H 2.8251 0.6024 -1.1531 0
M  V30 13 H 3.0267 -0.6185 0.1578 0
M  V30 14 H -1.6085 1.0842 -1.4034 0
M  V30 15 H -1.6998 2.0744 0.0942 0
M  V30 16 H -1.1636 -1.5024 -1.0669 0
M  V30 17 H -1.462 -2.2018 0.5647 0
M  V30 18 H -2.8923 -0.1981 0.2027 0
M  V30 19 H -1.7038 0.108 1.5203 0
M  V30 END ATOM
M  V30 BEGIN BOND
M  V30 1 2 1 2
M  V30 2 1 1 3
M  V30 3 1 1 4
M  V30 4 1 2 5
M  V30 5 1 3 6
M  V30 6 1 5 7
M  V30 7 1 6 7
M  V30 8 1 2 8
M  V30 9 1 3 9
M  V30 10 1 3 10
M  V30 11 1 4 11
M  V30 12 1 4 12
M  V30 13 1 4 13
M  V30 14 1 5 14
M  V30 15 1 5 15
M  V30 16 1 6 16
M  V30 17 1 6 17
M  V30 18 1 7 18
M  V30 19 1 7 19
M  V30 END BOND
M  V30 END CTAB
M  END
>  <Structure No>
3947

>  <LogS>
-3.2671

>  <MMFF94 Energy>
3.8202

$$$$
Compound 3948
Actelion Java MolfileCreator 2.0

  0  0  0  0  0  0              0 V3000
M  V30 BEGIN CTAB
M  V30 COUNTS 23 22 0 0 0
M  V30 BEGIN ATOM
M  V30 1 C -1.3045 -0.4602 -0.1534 0
M  V30 2 C -0.3105 -0.2525 -1.3217 0
M  V30 3 C -1.7888 0.8714 0.4394 0
M  V30 4 C -2.5068 -1.2825 -0.6355 0
M  V30 5 C 0.9804 0.5028 -0.9542 0
M  V30 6 C 1.8276 -0.2323 0.0943 0
M  V30 7 C 3.1818 0.4461 0.2809 0
M  V30 8 H -0.8118 -1.0462 0.6515 0
M  V30 9 H -0.8191 0.3084 -2.1367 0
M  V30 10 H -0.0266 -1.2436 -1.7393 0
M  V30 11 H -0.9565 1.3963 0.9518 0
M  V30 12 H -2.5792 0.6908 1.199 0
M  V30 13 H -2.2019 1.5283 -0.3558 0
M  V30 14 H -3.0571 -0.7415 -1.4354 0
M  V30 15 H -2.1676 -2.2627 -1.0334 0
M  V30 16 H -3.2027 -1.479 0.208 0
M  V30 17 H 0.7428 1.5286 -0.6018 0
M  V30 18 H 1.5793 0.6125 -1.8851 0
M  V30 19 H 1.3029 -0.2342 1.0729 0
M  V30 20 H 1.9936 -1.2845 -0.2234 0
M  V30 21 H 3.7658 -0.0959 1.0544 0
M  V30 22 H 3.7553 0.4327 -0.6701 0
M  V30 23 H 3.0437 1.4976 0.6119 0
M  V30 END ATOM
M  V30 BEGIN BOND
M  V30 1 1 1 2
M  V30 2 1 1 3
M  V30 3 1 1 4
M  V30 4 1 2 5
M  V30 5 1 5 6
M  V30 6 1 6 7
M  V30 7 1 1 8
M  V30 8 1 2 9
M  V30 9 1 2 10
M  V30 10 1 3 11
M  V30 11 1 3 12
M  V30 12 1 3 13
M  V30 13 1 4 14
M  V30 14 1 4 15
M  V30 15 1 4 16
M  V30 16 1 5 17
M  V30 17 1 5 18
M  V30 18 1 6 19
M  V30 19 1 6 20
M  V30 20 1 7 21
M  V30 21 1 7 22
M  V30 22 1 7 23
M  V30 END BOND
M  V30 END CTAB
M  END
>  <Structure No>
3948

>  <LogS>
-4.5961

>  <MMFF94 Energy>
-0.025569

$$$$
Compound 3949
Actelion Java MolfileCreator 2.0

  0  0  0  0  0  0              0 V3000
M  V30 BEGIN CTAB
M  V30 COUNTS 15 14 0 0 0
M  V30 BEGIN ATOM
M  V30 1 O -1.8461 -1.6152 0.0768 0
M  V30 2 C -1.5828 -0.403 0.3041 0
M  V30 3 O -0.2588 0.0356 0.3931 0
M  V30 4 C -2.6944 0.5646 0.5289 0
M  V30 5 C 0.8522 -0.835 0.2074 0
M  V30 6 C 2.1285 -0.0643 0.3591 0
M  V30 7 C 2.4581 0.909 -0.4937 0
M  V30 8 H -3.5451 0.3315 -0.1456 0
M  V30 9 H -3.0337 0.4996 1.5835 0
M  V30 10 H -2.3455 1.598 0.3214 0
M  V30 11 H 0.822 -1.6427 0.9702 0
M  V30 12 H 0.8114 -1.2944 -0.8043 0
M  V30 13 H 2.802 -0.3075 1.1755 0
M  V30 14 H 3.3894 1.4511 -0.3656 0
M  V30 15 H 1.8055 1.1706 -1.3214 0
M  V30 END ATOM
M  V30 BEGIN BOND
M  V30 1 2 1 2
M  V30 2 1 2 3
M  V30 3 1 2 4
M  V30 4 1 3 5
M  V30 5 1 5 6
M  V30 6 2 6 7
M  V30 7 1 4 8
M  V30 8 1 4 9
M  V30 9 1 4 10
M  V30 10 1 5 11
M  V30 11 1 5 12
M  V30 12 1 6 13
M  V30 13 1 7 14
M  V30 14 1 7 15
M  V30 END BOND
M  V30 END CTAB
M  END
>  <Structure No>
3949

>  <LogS>
-0.5534

>  <MMFF94 Energy>
-7.774

$$$$
Compound 3950
Actelion Java MolfileCreator 2.0

  0  0  0  0  0  0              0 V3000
M  V30 BEGIN CTAB
M  V30 COUNTS 12 11 0 0 0
M  V30 BEGIN ATOM
M  V30 1 Cl 2.2044 1.8105 -0.3146 0
M  V30 2 C 1.8918 0.0646 -0.1408 0
M  V30 3 C 0.5222 -0.1679 0.4239 0
M  V30 4 C -0.5812 0.1258 -0.2773 0
M  V30 5 C -1.9442 -0.1231 0.2903 0
M  V30 6 H 2.6522 -0.3634 0.5452 0
M  V30 7 H 1.9872 -0.4318 -1.1297 0
M  V30 8 H 0.4335 -0.6066 1.4144 0
M  V30 9 H -0.4968 0.5515 -1.2736 0
M  V30 10 H -2.7178 0.1865 -0.4431 0
M  V30 11 H -2.0711 -1.204 0.5112 0
M  V30 12 H -2.0791 0.4635 1.2235 0
M  V30 END ATOM
M  V30 BEGIN BOND
M  V30 1 1 1 2
M  V30 2 1 2 3
M  V30 3 2 3 4
M  V30 4 1 4 5
M  V30 5 1 2 6
M  V30 6 1 2 7
M  V30 7 1 3 8
M  V30 8 1 4 9
M  V30 9 1 5 10
M  V30 10 1 5 11
M  V30 11 1 5 12
M  V30 END BOND
M  V30 END CTAB
M  END
>  <Structure No>
3950

>  <LogS>
-1.9569

>  <MMFF94 Energy>
7.7062

$$$$
Compound 3951
Actelion Java MolfileCreator 2.0

  0  0  0  0  0  0              0 V3000
M  V30 BEGIN CTAB
M  V30 COUNTS 21 20 0 0 0
M  V30 BEGIN ATOM
M  V30 1 C 1.4523 -0.0763 -0.6877 0
M  V30 2 C 2.1181 -0.3079 0.4523 0
M  V30 3 C -0.0349 -0.2768 -0.7862 0
M  V30 4 C 3.6008 -0.1178 0.5306 0
M  V30 5 C -0.7922 0.7985 0.0073 0
M  V30 6 C -2.3124 0.7227 -0.2002 0
M  V30 7 C -2.938 -0.5043 0.462 0
M  V30 8 H 1.9951 0.2371 -1.5757 0
M  V30 9 H 1.5841 -0.6408 1.3382 0
M  V30 10 H -0.3278 -0.2182 -1.8567 0
M  V30 11 H -0.2898 -1.2914 -0.4126 0
M  V30 12 H 3.86 0.9374 0.3021 0
M  V30 13 H 4.1078 -0.7886 -0.1945 0
M  V30 14 H 3.9562 -0.361 1.5537 0
M  V30 15 H -0.4485 1.801 -0.3309 0
M  V30 16 H -0.5586 0.7108 1.091 0
M  V30 17 H -2.7731 1.6312 0.245 0
M  V30 18 H -2.5516 0.7231 -1.2858 0
M  V30 19 H -4.0436 -0.4453 0.3774 0
M  V30 20 H -2.6681 -0.5451 1.5387 0
M  V30 21 H -2.6028 -1.4355 -0.0392 0
M  V30 END ATOM
M  V30 BEGIN BOND
M  V30 1 2 1 2
M  V30 2 1 1 3
M  V30 3 1 2 4
M  V30 4 1 3 5
M  V30 5 1 5 6
M  V30 6 1 6 7
M  V30 7 1 1 8
M  V30 8 1 2 9
M  V30 9 1 3 10
M  V30 10 1 3 11
M  V30 11 1 4 12
M  V30 12 1 4 13
M  V30 13 1 4 14
M  V30 14 1 5 15
M  V30 15 1 5 16
M  V30 16 1 6 17
M  V30 17 1 6 18
M  V30 18 1 7 19
M  V30 19 1 7 20
M  V30 20 1 7 21
M  V30 END BOND
M  V30 END CTAB
M  END
>  <Structure No>
3951

>  <LogS>
-3.816

>  <MMFF94 Energy>
3.3575

$$$$
Compound 3952
Actelion Java MolfileCreator 2.0

  0  0  0  0  0  0              0 V3000
M  V30 BEGIN CTAB
M  V30 COUNTS 17 16 0 0 0
M  V30 BEGIN ATOM
M  V30 1 O -3.4787 0.0772 -0.6177 0
M  V30 2 C -2.679 0.8651 -0.0452 0
M  V30 3 O -1.4044 0.4443 0.34 0
M  V30 4 C -0.9323 -0.8804 0.1141 0
M  V30 5 C 0.4977 -1.0332 0.6427 0
M  V30 6 C 1.5602 -0.4216 -0.2854 0
M  V30 7 C 1.519 1.1056 -0.3193 0
M  V30 8 H -2.9834 1.8839 0.1511 0
M  V30 9 H -0.9713 -1.1209 -0.9709 0
M  V30 10 H -1.5911 -1.5946 0.6549 0
M  V30 11 H 0.5753 -0.593 1.6611 0
M  V30 12 H 0.7146 -2.1195 0.7371 0
M  V30 13 H 2.5625 -0.7327 0.0813 0
M  V30 14 H 1.4437 -0.8201 -1.3165 0
M  V30 15 H 2.4055 1.486 -0.8693 0
M  V30 16 H 0.6105 1.4608 -0.8481 0
M  V30 17 H 1.538 1.5202 0.711 0
M  V30 END ATOM
M  V30 BEGIN BOND
M  V30 1 2 1 2
M  V30 2 1 2 3
M  V30 3 1 3 4
M  V30 4 1 4 5
M  V30 5 1 5 6
M  V30 6 1 6 7
M  V30 7 1 2 8
M  V30 8 1 4 9
M  V30 9 1 4 10
M  V30 10 1 5 11
M  V30 11 1 5 12
M  V30 12 1 6 13
M  V30 13 1 6 14
M  V30 14 1 7 15
M  V30 15 1 7 16
M  V30 16 1 7 17
M  V30 END BOND
M  V30 END CTAB
M  END
>  <Structure No>
3952

>  <LogS>
-1.1307

>  <MMFF94 Energy>
-11.049

$$$$
Compound 3953
Actelion Java MolfileCreator 2.0

  0  0  0  0  0  0              0 V3000
M  V30 BEGIN CTAB
M  V30 COUNTS 5 4 0 0 0
M  V30 BEGIN ATOM
M  V30 1 Cl 1.6818 0.2521 -0.084 0
M  V30 2 C -0.064 -0.0691 0.0154 0
M  V30 3 F -0.7613 1.1041 -0.1988 0
M  V30 4 H -0.3102 -0.467 1.0215 0
M  V30 5 H -0.3476 -0.8139 -0.7563 0
M  V30 END ATOM
M  V30 BEGIN BOND
M  V30 1 1 1 2
M  V30 2 1 2 3
M  V30 3 1 2 4
M  V30 4 1 2 5
M  V30 END BOND
M  V30 END CTAB
M  END
>  <Structure No>
3953

>  <LogS>
-0.8202

>  <MMFF94 Energy>
0.11531

$$$$
Compound 3954
Actelion Java MolfileCreator 2.0

  0  0  0  0  0  0              0 V3000
M  V30 BEGIN CTAB
M  V30 COUNTS 9 8 0 0 0
M  V30 BEGIN ATOM
M  V30 1 Cl 2.0917 -1.2729 -0.9091 0
M  V30 2 C 0.9955 -0.0077 -0.2844 0
M  V30 3 Cl 1.7201 0.6818 1.1893 0
M  V30 4 Cl 0.8588 1.2713 -1.5166 0
M  V30 5 C -0.371 -0.5558 0.0311 0
M  V30 6 O -0.6299 -1.7759 -0.1521 0
M  V30 7 N -1.3913 0.3034 0.5432 0
M  V30 8 H -2.3389 -0.0767 0.762 0
M  V30 9 H -1.2059 1.3181 0.7052 0
M  V30 END ATOM
M  V30 BEGIN BOND
M  V30 1 1 1 2
M  V30 2 1 2 3
M  V30 3 1 2 4
M  V30 4 1 2 5
M  V30 5 2 5 6
M  V30 6 1 5 7
M  V30 7 1 7 8
M  V30 8 1 7 9
M  V30 END BOND
M  V30 END CTAB
M  END
>  <Structure No>
3954

>  <LogS>
-1.0966

>  <MMFF94 Energy>
60.835

$$$$
Compound 3955
Actelion Java MolfileCreator 2.0

  0  0  0  0  0  0              0 V3000
M  V30 BEGIN CTAB
M  V30 COUNTS 10 9 0 0 0
M  V30 BEGIN ATOM
M  V30 1 Cl 0.8701 -2.002 -0.3479 0
M  V30 2 C 0.265 -0.439 0.2775 0
M  V30 3 Cl 0.1522 -0.5749 2.0562 0
M  V30 4 N 1.1815 0.6441 -0.0855 0 CHG=1
M  V30 5 C -1.1215 -0.1614 -0.2993 0
M  V30 6 O 1.7346 0.6443 -1.2049 0
M  V30 7 O 1.1973 1.8024 0.6574 0 CHG=-1
M  V30 8 H -1.8232 -0.9772 -0.0239 0
M  V30 9 H -1.5174 0.7979 0.097 0
M  V30 10 H -1.0702 -0.0947 -1.407 0
M  V30 END ATOM
M  V30 BEGIN BOND
M  V30 1 1 1 2
M  V30 2 1 2 3
M  V30 3 1 2 4
M  V30 4 1 2 5
M  V30 5 2 4 6
M  V30 6 1 4 7
M  V30 7 1 5 8
M  V30 8 1 5 9
M  V30 9 1 5 10
M  V30 END BOND
M  V30 END CTAB
M  END
>  <Structure No>
3955

>  <LogS>
-1.7603

>  <MMFF94 Energy>
57.785

$$$$
Compound 3956
Actelion Java MolfileCreator 2.0

  0  0  0  0  0  0              0 V3000
M  V30 BEGIN CTAB
M  V30 COUNTS 24 23 0 0 0
M  V30 BEGIN ATOM
M  V30 1 O 0.5396 0.6938 -1.388 0
M  V30 2 C 0.3143 0.347 -0.0404 0 CFG=1
M  V30 3 C -1.2057 -0.0197 0.1845 0
M  V30 4 C 1.2452 -0.8429 0.3658 0
M  V30 5 C 0.6714 1.581 0.821 0
M  V30 6 C -2.1646 1.0493 -0.3803 0
M  V30 7 C -1.6099 -1.3939 -0.389 0
M  V30 8 C 2.7444 -0.5525 0.2362 0
M  V30 9 H 0.4249 -0.1201 -1.9426 0
M  V30 10 H -1.3896 -0.0749 1.2811 0
M  V30 11 H 1.0298 -1.1504 1.4126 0
M  V30 12 H 1.0429 -1.7166 -0.2885 0
M  V30 13 H 0.0508 2.4586 0.5551 0
M  V30 14 H 1.7187 1.9017 0.647 0
M  V30 15 H 0.5383 1.3604 1.9019 0
M  V30 16 H -3.2211 0.7341 -0.2425 0
M  V30 17 H -1.9885 1.2077 -1.4651 0
M  V30 18 H -2.0588 2.0136 0.1535 0
M  V30 19 H -2.7011 -1.5612 -0.2624 0
M  V30 20 H -1.1084 -2.2169 0.1599 0
M  V30 21 H -1.3734 -1.4666 -1.4704 0
M  V30 22 H 3.3126 -1.5021 0.3293 0
M  V30 23 H 3.0882 0.122 1.0474 0
M  V30 24 H 2.9762 -0.1018 -0.7514 0
M  V30 END ATOM
M  V30 BEGIN BOND
M  V30 1 1 1 2
M  V30 2 1 2 3
M  V30 3 1 2 4
M  V30 4 1 2 5
M  V30 5 1 3 6
M  V30 6 1 3 7
M  V30 7 1 4 8
M  V30 8 1 1 9
M  V30 9 1 3 10
M  V30 10 1 4 11
M  V30 11 1 4 12
M  V30 12 1 5 13
M  V30 13 1 5 14
M  V30 14 1 5 15
M  V30 15 1 6 16
M  V30 16 1 6 17
M  V30 17 1 6 18
M  V30 18 1 7 19
M  V30 19 1 7 20
M  V30 20 1 7 21
M  V30 21 1 8 22
M  V30 22 1 8 23
M  V30 23 1 8 24
M  V30 END BOND
M  V30 BEGIN COLLECTION
M  V30 MDLV30/STEABS ATOMS=(1 2)
M  V30 END COLLECTION
M  V30 END CTAB
M  END
>  <Structure No>
3956

>  <LogS>
-0.8504

>  <MMFF94 Energy>
20.507

$$$$
Compound 3957
Actelion Java MolfileCreator 2.0

  0  0  0  0  0  0              0 V3000
M  V30 BEGIN CTAB
M  V30 COUNTS 13 12 0 0 0
M  V30 BEGIN ATOM
M  V30 1 Cl -0.7644 0.9344 -1.8695 0
M  V30 2 C -0.7043 0.5556 -0.1193 0
M  V30 3 Cl -0.3583 2.0841 0.7525 0
M  V30 4 N -2.0071 0.0349 0.305 0 CHG=1
M  V30 5 C 0.3809 -0.501 0.1743 0
M  V30 6 O -2.3506 0.1136 1.5032 0
M  V30 7 O -2.7073 -0.8105 -0.5252 0 CHG=-1
M  V30 8 C 1.7951 -0.0741 -0.231 0
M  V30 9 H 0.3816 -0.7297 1.2625 0
M  V30 10 H 0.1295 -1.4407 -0.3643 0
M  V30 11 H 2.5076 -0.8893 0.0151 0
M  V30 12 H 1.8546 0.1173 -1.3223 0
M  V30 13 H 2.1088 0.8359 0.3212 0
M  V30 END ATOM
M  V30 BEGIN BOND
M  V30 1 1 1 2
M  V30 2 1 2 3
M  V30 3 1 2 4
M  V30 4 1 2 5
M  V30 5 2 4 6
M  V30 6 1 4 7
M  V30 7 1 5 8
M  V30 8 1 5 9
M  V30 9 1 5 10
M  V30 10 1 8 11
M  V30 11 1 8 12
M  V30 12 1 8 13
M  V30 END BOND
M  V30 END CTAB
M  END
>  <Structure No>
3957

>  <LogS>
-1.4996

>  <MMFF94 Energy>
58.495

$$$$
Compound 3958
Actelion Java MolfileCreator 2.0

  0  0  0  0  0  0              0 V3000
M  V30 BEGIN CTAB
M  V30 COUNTS 21 20 0 0 0
M  V30 BEGIN ATOM
M  V30 1 O 1.1772 0.7846 2.3554 0
M  V30 2 N 1.4382 0.6905 1.1372 0 CHG=1
M  V30 3 O 2.5895 1.2891 0.6762 0 CHG=-1
M  V30 4 C 0.3912 0.274 0.1823 0
M  V30 5 C -0.4107 1.5448 -0.1999 0
M  V30 6 C 1.0733 -0.3237 -1.082 0
M  V30 7 C -0.5272 -0.7875 0.8779 0
M  V30 8 O -1.2824 1.3082 -1.2717 0
M  V30 9 O 1.7812 -1.4955 -0.7713 0
M  V30 10 C -1.5937 -1.4506 -0.0014 0
M  V30 11 H -0.9885 1.9038 0.6817 0
M  V30 12 H 0.2988 2.353 -0.4894 0
M  V30 13 H 1.752 0.4238 -1.5537 0
M  V30 14 H 0.3203 -0.57 -1.8583 0
M  V30 15 H -1.0502 -0.3169 1.7394 0
M  V30 16 H 0.1115 -1.595 1.2985 0
M  V30 17 H -1.7616 2.1623 -1.4328 0
M  V30 18 H 2.6619 -1.214 -0.4115 0
M  V30 19 H -2.1516 -2.192 0.6088 0
M  V30 20 H -2.329 -0.7104 -0.373 0
M  V30 21 H -1.1372 -1.9978 -0.8504 0
M  V30 END ATOM
M  V30 BEGIN BOND
M  V30 1 2 1 2
M  V30 2 1 2 3
M  V30 3 1 2 4
M  V30 4 1 4 5
M  V30 5 1 4 6
M  V30 6 1 4 7
M  V30 7 1 5 8
M  V30 8 1 6 9
M  V30 9 1 7 10
M  V30 10 1 5 11
M  V30 11 1 5 12
M  V30 12 1 6 13
M  V30 13 1 6 14
M  V30 14 1 7 15
M  V30 15 1 7 16
M  V30 16 1 8 17
M  V30 17 1 9 18
M  V30 18 1 10 19
M  V30 19 1 10 20
M  V30 20 1 10 21
M  V30 END BOND
M  V30 END CTAB
M  END
>  <Structure No>
3958

>  <LogS>
0.8264

>  <MMFF94 Energy>
20.175

$$$$
Compound 3959
Actelion Java MolfileCreator 2.0

  0  0  0  0  0  0              0 V3000
M  V30 BEGIN CTAB
M  V30 COUNTS 17 16 0 0 0
M  V30 BEGIN ATOM
M  V30 1 O -2.2389 0.3085 1.3119 0
M  V30 2 C -1.0475 0.5511 1.1907 0
M  V30 3 C -0.2613 0.0014 0.0174 0
M  V30 4 C 1.2168 0.4461 0.1185 0
M  V30 5 C -0.3461 -1.5382 0.0135 0
M  V30 6 C -0.8606 0.5496 -1.292 0
M  V30 7 O 1.7998 -0.03 1.3024 0
M  V30 8 H -0.5621 1.1705 1.9394 0
M  V30 9 H 1.2767 1.5587 0.1001 0
M  V30 10 H 1.788 0.0576 -0.7553 0
M  V30 11 H 0.2549 -1.9605 -0.8205 0
M  V30 12 H 0.0366 -1.957 0.9692 0
M  V30 13 H -1.3981 -1.8745 -0.1133 0
M  V30 14 H -0.8255 1.6608 -1.3029 0
M  V30 15 H -0.2929 0.173 -2.1702 0
M  V30 16 H -1.9206 0.2337 -1.4046 0
M  V30 17 H 2.7383 0.2926 1.2972 0
M  V30 END ATOM
M  V30 BEGIN BOND
M  V30 1 2 1 2
M  V30 2 1 2 3
M  V30 3 1 3 4
M  V30 4 1 3 5
M  V30 5 1 3 6
M  V30 6 1 4 7
M  V30 7 1 2 8
M  V30 8 1 4 9
M  V30 9 1 4 10
M  V30 10 1 5 11
M  V30 11 1 5 12
M  V30 12 1 5 13
M  V30 13 1 6 14
M  V30 14 1 6 15
M  V30 15 1 6 16
M  V30 16 1 7 17
M  V30 END BOND
M  V30 END CTAB
M  END
>  <Structure No>
3959

>  <LogS>
-0.3279

>  <MMFF94 Energy>
8.0682

$$$$
Compound 3960
Actelion Java MolfileCreator 2.0

  0  0  0  0  0  0              0 V3000
M  V30 BEGIN CTAB
M  V30 COUNTS 15 14 0 0 0
M  V30 BEGIN ATOM
M  V30 1 Cl 0.0821 2.5484 -0.2464 0
M  V30 2 C 0.4209 1.1452 0.8107 0
M  V30 3 C 0.0797 -0.2195 0.1543 0
M  V30 4 O 0.4291 -1.2598 1.0378 0
M  V30 5 C 0.8682 -0.4294 -1.1579 0
M  V30 6 C -1.431 -0.3059 -0.1491 0
M  V30 7 Cl 2.6355 -0.4612 -0.8908 0
M  V30 8 H -0.1706 1.2738 1.7427 0
M  V30 9 H 1.4925 1.1762 1.0989 0
M  V30 10 H -0.0906 -1.1408 1.8763 0
M  V30 11 H 0.6345 0.3652 -1.8974 0
M  V30 12 H 0.5839 -1.4028 -1.6128 0
M  V30 13 H -2.0261 -0.1175 0.7702 0
M  V30 14 H -1.728 0.4379 -0.9189 0
M  V30 15 H -1.6893 -1.319 -0.5256 0
M  V30 END ATOM
M  V30 BEGIN BOND
M  V30 1 1 1 2
M  V30 2 1 2 3
M  V30 3 1 3 4
M  V30 4 1 3 5
M  V30 5 1 3 6
M  V30 6 1 5 7
M  V30 7 1 2 8
M  V30 8 1 2 9
M  V30 9 1 4 10
M  V30 10 1 5 11
M  V30 11 1 5 12
M  V30 12 1 6 13
M  V30 13 1 6 14
M  V30 14 1 6 15
M  V30 END BOND
M  V30 END CTAB
M  END
>  <Structure No>
3960

>  <LogS>
-0.1822

>  <MMFF94 Energy>
31.261

$$$$
Compound 3961
Actelion Java MolfileCreator 2.0

  0  0  0  0  0  0              0 V3000
M  V30 BEGIN CTAB
M  V30 COUNTS 41 40 0 0 0
M  V30 BEGIN ATOM
M  V30 1 O 1.3484 -4.1289 0.555 0
M  V30 2 C 2.1269 -3.164 0.7858 0
M  V30 3 O 1.7583 -1.8556 0.4625 0
M  V30 4 C 3.4348 -3.4138 1.4559 0
M  V30 5 C 0.5157 -1.5366 -0.1606 0
M  V30 6 C 0.3946 -0.0084 -0.3987 0
M  V30 7 C 0.4945 0.7577 0.951 0
M  V30 8 C 1.5564 0.4458 -1.3205 0
M  V30 9 C -0.9499 0.3005 -1.1099 0
M  V30 10 O -0.4703 0.2968 1.8998 0
M  V30 11 O 1.4595 1.8397 -1.6076 0
M  V30 12 O -2.0505 -0.265 -0.4024 0
M  V30 13 C -1.6444 0.9887 2.2213 0
M  V30 14 C 2.3768 2.5085 -2.422 0
M  V30 15 C -3.3769 -0.1039 -0.8102 0
M  V30 16 O -1.8882 2.1213 1.7228 0
M  V30 17 C -2.6002 0.3911 3.1965 0
M  V30 18 O 3.3587 1.8969 -2.9243 0
M  V30 19 C 2.2182 3.9718 -2.6582 0
M  V30 20 O -3.6572 0.5556 -1.8478 0
M  V30 21 C -4.4741 -0.6796 0.0183 0
M  V30 22 H 3.8755 -4.3647 1.0894 0
M  V30 23 H 4.1384 -2.5839 1.235 0
M  V30 24 H 3.2815 -3.4788 2.5531 0
M  V30 25 H 0.4452 -2.0753 -1.1318 0
M  V30 26 H -0.3135 -1.8957 0.4874 0
M  V30 27 H 0.4016 1.8544 0.7908 0
M  V30 28 H 1.5015 0.5948 1.3917 0
M  V30 29 H 1.5286 -0.125 -2.2755 0
M  V30 30 H 2.5358 0.2452 -0.8326 0
M  V30 31 H -1.094 1.4009 -1.1901 0
M  V30 32 H -0.9366 -0.1195 -2.1402 0
M  V30 33 H -2.5623 -0.7163 3.1291 0
M  V30 34 H -3.6354 0.7268 2.9747 0
M  V30 35 H -2.3245 0.7051 4.2245 0
M  V30 36 H 2.8617 4.5328 -1.9491 0
M  V30 37 H 1.1597 4.2684 -2.5023 0
M  V30 38 H 2.5116 4.2239 -3.6991 0
M  V30 39 H -4.9477 0.1265 0.6161 0
M  V30 40 H -4.0669 -1.4499 0.7065 0
M  V30 41 H -5.2376 -1.1494 -0.6367 0
M  V30 END ATOM
M  V30 BEGIN BOND
M  V30 1 2 1 2
M  V30 2 1 2 3
M  V30 3 1 2 4
M  V30 4 1 3 5
M  V30 5 1 5 6
M  V30 6 1 6 7
M  V30 7 1 6 8
M  V30 8 1 6 9
M  V30 9 1 7 10
M  V30 10 1 8 11
M  V30 11 1 9 12
M  V30 12 1 10 13
M  V30 13 1 11 14
M  V30 14 1 12 15
M  V30 15 2 13 16
M  V30 16 1 13 17
M  V30 17 2 14 18
M  V30 18 1 14 19
M  V30 19 2 15 20
M  V30 20 1 15 21
M  V30 21 1 4 22
M  V30 22 1 4 23
M  V30 23 1 4 24
M  V30 24 1 5 25
M  V30 25 1 5 26
M  V30 26 1 7 27
M  V30 27 1 7 28
M  V30 28 1 8 29
M  V30 29 1 8 30
M  V30 30 1 9 31
M  V30 31 1 9 32
M  V30 32 1 17 33
M  V30 33 1 17 34
M  V30 34 1 17 35
M  V30 35 1 19 36
M  V30 36 1 19 37
M  V30 37 1 19 38
M  V30 38 1 21 39
M  V30 39 1 21 40
M  V30 40 1 21 41
M  V30 END BOND
M  V30 END CTAB
M  END
>  <Structure No>
3961

>  <LogS>
-1.5686

>  <MMFF94 Energy>
-36.523

$$$$
Compound 3962
Actelion Java MolfileCreator 2.0

  0  0  0  0  0  0              0 V3000
M  V30 BEGIN CTAB
M  V30 COUNTS 27 26 0 0 0
M  V30 BEGIN ATOM
M  V30 1 O -0.0771 -1.3118 1.3118 0
M  V30 2 C -0.0249 -0.8231 -0.0088 0
M  V30 3 C -0.9658 0.4099 -0.1196 0
M  V30 4 C 1.4361 -0.4199 -0.3706 0
M  V30 5 C -0.4799 -1.9342 -0.9834 0
M  V30 6 C -2.4466 0.0935 0.1598 0
M  V30 7 C 2.0734 0.5833 0.6082 0
M  V30 8 C -3.2798 1.3711 0.2272 0
M  V30 9 C 3.5557 0.7822 0.3027 0
M  V30 10 H 0.5308 -2.095 1.373 0
M  V30 11 H -0.8786 0.8586 -1.1341 0
M  V30 12 H -0.6437 1.1762 0.6168 0
M  V30 13 H 2.0673 -1.3367 -0.3856 0
M  V30 14 H 1.4607 0.0103 -1.3966 0
M  V30 15 H -0.5897 -1.5324 -2.0139 0
M  V30 16 H -1.4463 -2.3741 -0.6598 0
M  V30 17 H 0.26 -2.7628 -1.0084 0
M  V30 18 H -2.8603 -0.5429 -0.6506 0
M  V30 19 H -2.5468 -0.4479 1.125 0
M  V30 20 H 1.5723 1.5704 0.5261 0
M  V30 21 H 1.973 0.2186 1.6529 0
M  V30 22 H -2.9274 2.0195 1.0577 0
M  V30 23 H -4.3444 1.112 0.4083 0
M  V30 24 H -3.2078 1.9295 -0.7304 0
M  V30 25 H 4.1062 -0.1757 0.4179 0
M  V30 26 H 3.6887 1.16 -0.7334 0
M  V30 27 H 3.985 1.5238 1.0092 0
M  V30 END ATOM
M  V30 BEGIN BOND
M  V30 1 1 1 2
M  V30 2 1 2 3
M  V30 3 1 2 4
M  V30 4 1 2 5
M  V30 5 1 3 6
M  V30 6 1 4 7
M  V30 7 1 6 8
M  V30 8 1 7 9
M  V30 9 1 1 10
M  V30 10 1 3 11
M  V30 11 1 3 12
M  V30 12 1 4 13
M  V30 13 1 4 14
M  V30 14 1 5 15
M  V30 15 1 5 16
M  V30 16 1 5 17
M  V30 17 1 6 18
M  V30 18 1 6 19
M  V30 19 1 7 20
M  V30 20 1 7 21
M  V30 21 1 8 22
M  V30 22 1 8 23
M  V30 23 1 8 24
M  V30 24 1 9 25
M  V30 25 1 9 26
M  V30 26 1 9 27
M  V30 END BOND
M  V30 END CTAB
M  END
>  <Structure No>
3962

>  <LogS>
-1.5867

>  <MMFF94 Energy>
9.4872

$$$$
Compound 3963
Actelion Java MolfileCreator 2.0

  0  0  0  0  0  0              0 V3000
M  V30 BEGIN CTAB
M  V30 COUNTS 13 13 0 0 0
M  V30 BEGIN ATOM
M  V30 1 Cl -1.872 -1.7905 -0.488 0
M  V30 2 C -1.3701 -0.3038 0.3571 0
M  V30 3 C 0.0453 0.1016 -0.0624 0 CFG=1
M  V30 4 O 0.1012 0.6104 -1.3733 0
M  V30 5 C 0.3147 1.5355 -0.3263 0
M  V30 6 C 1.2334 -0.7994 0.275 0
M  V30 7 H -2.1074 0.4938 0.1238 0
M  V30 8 H -1.3896 -0.4872 1.4516 0
M  V30 9 H -0.5352 2.245 -0.2445 0
M  V30 10 H 1.3722 1.8726 -0.3039 0
M  V30 11 H 1.0575 -1.8205 -0.1221 0
M  V30 12 H 2.178 -0.4121 -0.1637 0
M  V30 13 H 1.3495 -0.8575 1.3772 0
M  V30 END ATOM
M  V30 BEGIN BOND
M  V30 1 1 1 2
M  V30 2 1 2 3
M  V30 3 1 3 4
M  V30 4 1 3 5
M  V30 5 1 3 6
M  V30 6 1 4 5
M  V30 7 1 2 7
M  V30 8 1 2 8
M  V30 9 1 5 9
M  V30 10 1 5 10
M  V30 11 1 6 11
M  V30 12 1 6 12
M  V30 13 1 6 13
M  V30 END BOND
M  V30 BEGIN COLLECTION
M  V30 MDLV30/STEABS ATOMS=(1 3)
M  V30 END COLLECTION
M  V30 END CTAB
M  END
>  <Structure No>
3963

>  <LogS>
-0.5504

>  <MMFF94 Energy>
16.691

$$$$
Compound 3964
Actelion Java MolfileCreator 2.0

  0  0  0  0  0  0              0 V3000
M  V30 BEGIN CTAB
M  V30 COUNTS 15 14 0 0 0
M  V30 BEGIN ATOM
M  V30 1 O -1.0633 0.3037 -0.3796 0
M  V30 2 C 0.2456 -0.1373 -0.0601 0
M  V30 3 C -2.014 -0.3006 0.4697 0
M  V30 4 C 1.0296 -0.3109 -1.3605 0
M  V30 5 C 0.9329 0.8988 0.8343 0
M  V30 6 H 0.264 -1.1253 0.4623 0
M  V30 7 H -1.789 -0.1018 1.5409 0
M  V30 8 H -2.0705 -1.3954 0.2813 0
M  V30 9 H -3.0117 0.1314 0.2491 0
M  V30 10 H 2.0633 -0.6574 -1.1465 0
M  V30 11 H 0.5305 -1.0702 -1.9993 0
M  V30 12 H 1.0759 0.6485 -1.9193 0
M  V30 13 H 0.9573 1.89 0.3327 0
M  V30 14 H 1.973 0.5819 1.0629 0
M  V30 15 H 0.3827 0.9998 1.7931 0
M  V30 END ATOM
M  V30 BEGIN BOND
M  V30 1 1 1 2
M  V30 2 1 1 3
M  V30 3 1 2 4
M  V30 4 1 2 5
M  V30 5 1 2 6
M  V30 6 1 3 7
M  V30 7 1 3 8
M  V30 8 1 3 9
M  V30 9 1 4 10
M  V30 10 1 4 11
M  V30 11 1 4 12
M  V30 12 1 5 13
M  V30 13 1 5 14
M  V30 14 1 5 15
M  V30 END BOND
M  V30 END CTAB
M  END
>  <Structure No>
3964

>  <LogS>
-0.057

>  <MMFF94 Energy>
7.8708

$$$$
Compound 3965
Actelion Java MolfileCreator 2.0

  0  0  0  0  0  0              0 V3000
M  V30 BEGIN CTAB
M  V30 COUNTS 11 10 0 0 0
M  V30 BEGIN ATOM
M  V30 1 Cl -1.6617 -1.6617 -0.0874 0
M  V30 2 C -1.1939 0.0484 -0.3149 0
M  V30 3 Cl -2.5233 1.0913 0.258 0
M  V30 4 C 0.1192 0.3985 0.4086 0 CFG=1
M  V30 5 Cl 0.0198 0.0514 2.1621 0
M  V30 6 C 1.3144 -0.3413 -0.1942 0
M  V30 7 H -1.075 0.2322 -1.4039 0
M  V30 8 H 0.3025 1.489 0.2934 0
M  V30 9 H 1.3985 -0.1177 -1.2789 0
M  V30 10 H 2.2506 -0.0101 0.3031 0
M  V30 11 H 1.2106 -1.4382 -0.0565 0
M  V30 END ATOM
M  V30 BEGIN BOND
M  V30 1 1 1 2
M  V30 2 1 2 3
M  V30 3 1 2 4
M  V30 4 1 4 5
M  V30 5 1 4 6
M  V30 6 1 2 7
M  V30 7 1 4 8
M  V30 8 1 6 9
M  V30 9 1 6 10
M  V30 10 1 6 11
M  V30 END BOND
M  V30 BEGIN COLLECTION
M  V30 MDLV30/STEABS ATOMS=(1 4)
M  V30 END COLLECTION
M  V30 END CTAB
M  END
>  <Structure No>
3965

>  <LogS>
-1.8898

>  <MMFF94 Energy>
17.08

$$$$
Compound 3966
Actelion Java MolfileCreator 2.0

  0  0  0  0  0  0              0 V3000
M  V30 BEGIN CTAB
M  V30 COUNTS 10 9 0 0 0
M  V30 BEGIN ATOM
M  V30 1 Cl 0.5787 0.496 1.9854 0
M  V30 2 C 0.2379 -0.2948 0.4222 0 CFG=2
M  V30 3 C 1.2913 0.0742 -0.578 0
M  V30 4 C -1.1486 0.105 -0.0759 0
M  V30 5 O 1.5353 1.2839 -0.8323 0
M  V30 6 O 1.9932 -0.9213 -1.2456 0 CHG=-1
M  V30 7 H 0.256 -1.3942 0.5841 0
M  V30 8 H -1.3679 -0.3978 -1.0422 0
M  V30 9 H -1.2118 1.2054 -0.2171 0
M  V30 10 H -1.918 -0.2047 0.6628 0
M  V30 END ATOM
M  V30 BEGIN BOND
M  V30 1 1 1 2
M  V30 2 1 2 3
M  V30 3 1 2 4
M  V30 4 2 3 5
M  V30 5 1 3 6
M  V30 6 1 2 7
M  V30 7 1 4 8
M  V30 8 1 4 9
M  V30 9 1 4 10
M  V30 END BOND
M  V30 BEGIN COLLECTION
M  V30 MDLV30/STEABS ATOMS=(1 2)
M  V30 END COLLECTION
M  V30 END CTAB
M  END
>  <Structure No>
3966

>  <LogS>
0.9645

>  <MMFF94 Energy>
44.583

$$$$
Compound 3967
Actelion Java MolfileCreator 2.0

  0  0  0  0  0  0              0 V3000
M  V30 BEGIN CTAB
M  V30 COUNTS 10 9 0 0 0
M  V30 BEGIN ATOM
M  V30 1 Cl 0.2466 2.0569 0.4933 0
M  V30 2 C 0.1946 0.4556 -0.294 0 CFG=1
M  V30 3 N 1.2477 -0.3999 0.2446 0 CHG=1
M  V30 4 C -1.1705 -0.1894 -0.0783 0
M  V30 5 O 1.8723 -1.1685 -0.5147 0
M  V30 6 O 1.4073 -0.5245 1.6057 0 CHG=-1
M  V30 7 H 0.3549 0.608 -1.384 0
M  V30 8 H -1.3678 -0.3264 1.0062 0
M  V30 9 H -1.205 -1.1797 -0.5798 0
M  V30 10 H -1.9659 0.4541 -0.5109 0
M  V30 END ATOM
M  V30 BEGIN BOND
M  V30 1 1 1 2
M  V30 2 1 2 3
M  V30 3 1 2 4
M  V30 4 2 3 5
M  V30 5 1 3 6
M  V30 6 1 2 7
M  V30 7 1 4 8
M  V30 8 1 4 9
M  V30 9 1 4 10
M  V30 END BOND
M  V30 BEGIN COLLECTION
M  V30 MDLV30/STEABS ATOMS=(1 2)
M  V30 END COLLECTION
M  V30 END CTAB
M  END
>  <Structure No>
3967

>  <LogS>
-1.4374

>  <MMFF94 Energy>
28.715

$$$$
Compound 3968
Actelion Java MolfileCreator 2.0

  0  0  0  0  0  0              0 V3000
M  V30 BEGIN CTAB
M  V30 COUNTS 32 33 0 0 0
M  V30 BEGIN ATOM
M  V30 1 S 0.0 -1.0597 0.8966 0
M  V30 2 O 0.243 -2.489 0.4989 0
M  V30 3 O 0.202 -0.8999 2.3774 0
M  V30 4 O 1.0904 -0.0478 0.0502 0
M  V30 5 C -1.6502 -0.6115 0.486 0
M  V30 6 C 2.4893 -0.114 0.1425 0
M  V30 7 C -2.6991 -1.5114 0.7161 0
M  V30 8 C -1.9255 0.6476 -0.064 0
M  V30 9 C 3.2584 0.7963 -0.6105 0
M  V30 10 C 3.1441 -1.057 0.9599 0
M  V30 11 C -4.0132 -1.1572 0.3955 0
M  V30 12 C -3.2395 1.0025 -0.3849 0
M  V30 13 C 4.6609 0.7514 -0.5393 0
M  V30 14 C 2.5808 1.8099 -1.4898 0
M  V30 15 C 4.5393 -1.09 1.0224 0
M  V30 16 C -4.2935 0.1078 -0.1437 0
M  V30 17 C 5.2961 -0.188 0.2744 0
M  V30 18 C -5.6976 0.4732 -0.5243 0
M  V30 19 H -2.4992 -2.4871 1.1408 0
M  V30 20 H -1.1265 1.3546 -0.2465 0
M  V30 21 H 2.5896 -1.7703 1.5515 0
M  V30 22 H -4.8116 -1.8683 0.5694 0
M  V30 23 H -3.4348 1.9753 -0.8194 0
M  V30 24 H 5.2644 1.4437 -1.1133 0
M  V30 25 H 3.3165 2.4665 -2.0014 0
M  V30 26 H 1.9103 2.4488 -0.8767 0
M  V30 27 H 1.9785 1.2891 -2.2638 0
M  V30 28 H 5.0347 -1.8175 1.6525 0
M  V30 29 H 6.3769 -0.2172 0.3252 0
M  V30 30 H -6.4285 -0.0325 0.1418 0
M  V30 31 H -5.8547 1.5695 -0.4364 0
M  V30 32 H -5.8882 0.163 -1.5729 0
M  V30 END ATOM
M  V30 BEGIN BOND
M  V30 1 2 1 2
M  V30 2 2 1 3
M  V30 3 1 1 4
M  V30 4 1 1 5
M  V30 5 1 4 6
M  V30 6 2 5 7
M  V30 7 1 5 8
M  V30 8 2 6 9
M  V30 9 1 6 10
M  V30 10 1 7 11
M  V30 11 2 8 12
M  V30 12 1 9 13
M  V30 13 1 9 14
M  V30 14 2 10 15
M  V30 15 2 11 16
M  V30 16 2 13 17
M  V30 17 1 16 18
M  V30 18 1 12 16
M  V30 19 1 15 17
M  V30 20 1 7 19
M  V30 21 1 8 20
M  V30 22 1 10 21
M  V30 23 1 11 22
M  V30 24 1 12 23
M  V30 25 1 13 24
M  V30 26 1 14 25
M  V30 27 1 14 26
M  V30 28 1 14 27
M  V30 29 1 15 28
M  V30 30 1 17 29
M  V30 31 1 18 30
M  V30 32 1 18 31
M  V30 33 1 18 32
M  V30 END BOND
M  V30 END CTAB
M  END
>  <Structure No>
3968

>  <LogS>
-3.9417

>  <MMFF94 Energy>
69.868

$$$$
Compound 3969
Actelion Java MolfileCreator 2.0

  0  0  0  0  0  0              0 V3000
M  V30 BEGIN CTAB
M  V30 COUNTS 22 21 0 0 0
M  V30 BEGIN ATOM
M  V30 1 Cl 1.5748 -3.0685 0.5799 0
M  V30 2 C 0.0947 -2.193 1.0547 0
M  V30 3 Cl 0.2107 -1.7819 2.7886 0
M  V30 4 Cl -1.2929 -3.2909 0.8243 0
M  V30 5 C -0.0843 -0.9256 0.2015 0
M  V30 6 O -1.2823 -0.2851 0.6028 0
M  V30 7 O 1.0153 -0.0545 0.4327 0
M  V30 8 C -1.6462 0.7129 -0.3277 0
M  V30 9 C 1.7381 0.1798 -0.7583 0
M  V30 10 C -2.9809 1.3135 0.0849 0
M  V30 11 C 2.8883 1.1295 -0.465 0
M  V30 12 H -0.1727 -1.2775 -0.8594 0
M  V30 13 H -0.8909 1.5295 -0.3431 0
M  V30 14 H -1.7609 0.2881 -1.3509 0
M  V30 15 H 2.1602 -0.7698 -1.1557 0
M  V30 16 H 1.087 0.6463 -1.5316 0
M  V30 17 H -3.2774 2.1031 -0.6373 0
M  V30 18 H -3.7636 0.5257 0.0992 0
M  V30 19 H -2.8985 1.7636 1.097 0
M  V30 20 H 3.5651 0.6828 0.2937 0
M  V30 21 H 3.4646 1.3202 -1.3947 0
M  V30 22 H 2.495 2.0944 -0.0802 0
M  V30 END ATOM
M  V30 BEGIN BOND
M  V30 1 1 1 2
M  V30 2 1 2 3
M  V30 3 1 2 4
M  V30 4 1 2 5
M  V30 5 1 5 6
M  V30 6 1 5 7
M  V30 7 1 6 8
M  V30 8 1 7 9
M  V30 9 1 8 10
M  V30 10 1 9 11
M  V30 11 1 5 12
M  V30 12 1 8 13
M  V30 13 1 8 14
M  V30 14 1 9 15
M  V30 15 1 9 16
M  V30 16 1 10 17
M  V30 17 1 10 18
M  V30 18 1 10 19
M  V30 19 1 11 20
M  V30 20 1 11 21
M  V30 21 1 11 22
M  V30 END BOND
M  V30 END CTAB
M  END
>  <Structure No>
3969

>  <LogS>
-1.6464

>  <MMFF94 Energy>
63.522

$$$$
Compound 3970
Actelion Java MolfileCreator 2.0

  0  0  0  0  0  0              0 V3000
M  V30 BEGIN CTAB
M  V30 COUNTS 13 12 0 0 0
M  V30 BEGIN ATOM
M  V30 1 Cl -0.4877 1.7893 -1.2197 0
M  V30 2 C -0.7541 0.1879 -0.4661 0 CFG=2
M  V30 3 N -2.0487 0.1719 0.2097 0 CHG=1
M  V30 4 C 0.3634 -0.146 0.533 0
M  V30 5 O -2.3504 1.0766 1.0158 0
M  V30 6 O -2.8447 -0.9465 0.127 0 CHG=-1
M  V30 7 C 1.7061 -0.3777 -0.1586 0
M  V30 8 H -0.7636 -0.5713 -1.2785 0
M  V30 9 H 0.4677 0.6777 1.2723 0
M  V30 10 H 0.0924 -1.0715 1.0868 0
M  V30 11 H 2.0451 0.5441 -0.6758 0
M  V30 12 H 1.6235 -1.204 -0.8961 0
M  V30 13 H 2.4692 -0.6551 0.5988 0
M  V30 END ATOM
M  V30 BEGIN BOND
M  V30 1 1 1 2
M  V30 2 1 2 3
M  V30 3 1 2 4
M  V30 4 2 3 5
M  V30 5 1 3 6
M  V30 6 1 4 7
M  V30 7 1 2 8
M  V30 8 1 4 9
M  V30 9 1 4 10
M  V30 10 1 7 11
M  V30 11 1 7 12
M  V30 12 1 7 13
M  V30 END BOND
M  V30 BEGIN COLLECTION
M  V30 MDLV30/STEABS ATOMS=(1 2)
M  V30 END COLLECTION
M  V30 END CTAB
M  END
>  <Structure No>
3970

>  <LogS>
-1.1887

>  <MMFF94 Energy>
28.379

$$$$
Compound 3971
Actelion Java MolfileCreator 2.0

  0  0  0  0  0  0              0 V3000
M  V30 BEGIN CTAB
M  V30 COUNTS 24 23 0 0 0
M  V30 BEGIN ATOM
M  V30 1 O 0.231 -1.6949 0.6931 0
M  V30 2 C -0.0808 -0.6398 -0.1858 0
M  V30 3 C -1.3022 0.1415 0.3799 0
M  V30 4 C 1.1874 0.2333 -0.4209 0
M  V30 5 C -1.6943 1.3403 -0.5005 0
M  V30 6 C -2.5128 -0.7948 0.5287 0
M  V30 7 C 1.7122 0.879 0.872 0
M  V30 8 C 2.3016 -0.5924 -1.0814 0
M  V30 9 H 0.4877 -2.4777 0.1391 0
M  V30 10 H -0.3928 -1.0516 -1.1772 0
M  V30 11 H -1.0579 0.5209 1.3956 0
M  V30 12 H 0.9415 1.0457 -1.1372 0
M  V30 13 H -0.9264 2.1387 -0.4426 0
M  V30 14 H -2.6481 1.787 -0.1465 0
M  V30 15 H -1.8203 1.0257 -1.5587 0
M  V30 16 H -2.2765 -1.6339 1.2168 0
M  V30 17 H -3.377 -0.244 0.9582 0
M  V30 18 H -2.8095 -1.2117 -0.4577 0
M  V30 19 H 0.9787 1.6079 1.2733 0
M  V30 20 H 2.6511 1.4369 0.6679 0
M  V30 21 H 1.9199 0.1078 1.6441 0
M  V30 22 H 2.6684 -1.3862 -0.396 0
M  V30 23 H 1.9293 -1.0656 -2.0148 0
M  V30 24 H 3.1569 0.0645 -1.3488 0
M  V30 END ATOM
M  V30 BEGIN BOND
M  V30 1 1 1 2
M  V30 2 1 2 3
M  V30 3 1 2 4
M  V30 4 1 3 5
M  V30 5 1 3 6
M  V30 6 1 4 7
M  V30 7 1 4 8
M  V30 8 1 1 9
M  V30 9 1 2 10
M  V30 10 1 3 11
M  V30 11 1 4 12
M  V30 12 1 5 13
M  V30 13 1 5 14
M  V30 14 1 5 15
M  V30 15 1 6 16
M  V30 16 1 6 17
M  V30 17 1 6 18
M  V30 18 1 7 19
M  V30 19 1 7 20
M  V30 20 1 7 21
M  V30 21 1 8 22
M  V30 22 1 8 23
M  V30 23 1 8 24
M  V30 END BOND
M  V30 END CTAB
M  END
>  <Structure No>
3971

>  <LogS>
-1.2201

>  <MMFF94 Energy>
15.523

$$$$
Compound 3972
Actelion Java MolfileCreator 2.0

  0  0  0  0  0  0              0 V3000
M  V30 BEGIN CTAB
M  V30 COUNTS 15 14 0 0 0
M  V30 BEGIN ATOM
M  V30 1 O 1.7736 -1.9349 -1.4509 0
M  V30 2 C 1.3565 -0.7628 -1.2553 0
M  V30 3 O 1.7097 0.2457 -2.1447 0 CHG=-1
M  V30 4 C 0.5056 -0.4552 -0.0553 0
M  V30 5 C 1.2973 0.3663 0.9248 0
M  V30 6 C -0.7944 0.2554 -0.482 0
M  V30 7 O 1.6618 1.5371 0.6345 0
M  V30 8 O 1.6414 -0.1706 2.159 0 CHG=-1
M  V30 9 C -1.7774 0.41 0.6788 0
M  V30 10 H 0.2305 -1.4176 0.4323 0
M  V30 11 H -1.2928 -0.341 -1.2777 0
M  V30 12 H -0.5679 1.2594 -0.9038 0
M  V30 13 H -2.0288 -0.5831 1.1077 0
M  V30 14 H -2.7122 0.8839 0.3121 0
M  V30 15 H -1.3459 1.0546 1.4734 0
M  V30 END ATOM
M  V30 BEGIN BOND
M  V30 1 2 1 2
M  V30 2 1 2 3
M  V30 3 1 2 4
M  V30 4 1 4 5
M  V30 5 1 4 6
M  V30 6 2 5 7
M  V30 7 1 5 8
M  V30 8 1 6 9
M  V30 9 1 4 10
M  V30 10 1 6 11
M  V30 11 1 6 12
M  V30 12 1 9 13
M  V30 13 1 9 14
M  V30 14 1 9 15
M  V30 END BOND
M  V30 END CTAB
M  END
>  <Structure No>
3972

>  <LogS>
0.7315

>  <MMFF94 Energy>
43.791

$$$$
Compound 3973
Actelion Java MolfileCreator 2.0

  0  0  0  0  0  0              0 V3000
M  V30 BEGIN CTAB
M  V30 COUNTS 24 26 0 0 0
M  V30 BEGIN ATOM
M  V30 1 O -3.8304 0.2441 -0.7326 0
M  V30 2 N -3.3157 -0.5375 0.0928 0 CHG=1
M  V30 3 O -4.1355 -1.3854 0.8015 0 CHG=-1
M  V30 4 C -1.8916 -0.7264 0.1262 0
M  V30 5 C -0.983 0.3602 -0.0043 0
M  V30 6 C -1.3708 -2.0394 0.2836 0
M  V30 7 C 0.3794 0.0607 -0.0091 0
M  V30 8 C -1.3351 1.7271 -0.0894 0
M  V30 9 C 0.0181 -2.2783 0.2802 0
M  V30 10 C 0.88 -1.1946 0.1227 0
M  V30 11 C 1.3624 0.9948 -0.1137 0
M  V30 12 C -0.3258 2.7116 -0.2023 0
M  V30 13 C 2.376 -1.1662 0.1005 0
M  V30 14 C 1.0356 2.3475 -0.2174 0
M  V30 15 C 2.7087 0.3438 -0.0651 0
M  V30 16 H -2.043 -2.8813 0.3886 0
M  V30 17 H -2.3649 2.0502 -0.0458 0
M  V30 18 H 0.4067 -3.2816 0.3949 0
M  V30 19 H -0.6008 3.7564 -0.2661 0
M  V30 20 H 2.7828 -1.5607 1.0562 0
M  V30 21 H 2.7597 -1.7558 -0.7592 0
M  V30 22 H 1.8093 3.1001 -0.2942 0
M  V30 23 H 3.2602 0.5294 -1.0116 0
M  V30 24 H 3.2881 0.7217 0.8042 0
M  V30 END ATOM
M  V30 BEGIN BOND
M  V30 1 2 1 2
M  V30 2 1 2 3
M  V30 3 1 2 4
M  V30 4 1 4 5
M  V30 5 2 4 6
M  V30 6 1 5 7
M  V30 7 2 5 8
M  V30 8 1 6 9
M  V30 9 1 7 10
M  V30 10 2 7 11
M  V30 11 1 8 12
M  V30 12 1 10 13
M  V30 13 1 11 14
M  V30 14 1 11 15
M  V30 15 2 9 10
M  V30 16 2 12 14
M  V30 17 1 13 15
M  V30 18 1 6 16
M  V30 19 1 8 17
M  V30 20 1 9 18
M  V30 21 1 12 19
M  V30 22 1 13 20
M  V30 23 1 13 21
M  V30 24 1 14 22
M  V30 25 1 15 23
M  V30 26 1 15 24
M  V30 END BOND
M  V30 END CTAB
M  END
>  <Structure No>
3973

>  <LogS>
-5.3403

>  <MMFF94 Energy>
75.987

$$$$
Compound 3974
Actelion Java MolfileCreator 2.0

  0  0  0  0  0  0              0 V3000
M  V30 BEGIN CTAB
M  V30 COUNTS 21 21 0 0 0
M  V30 BEGIN ATOM
M  V30 1 O 0.3328 -3.165 -1.3317 0
M  V30 2 N -0.0371 -2.5839 -0.291 0 CHG=1
M  V30 3 O -0.4155 -3.3325 0.7988 0 CHG=-1
M  V30 4 C 0.1836 -1.1757 -0.1425 0
M  V30 5 C 1.5008 -0.6869 -0.1815 0
M  V30 6 C -0.9017 -0.2871 0.0487 0
M  V30 7 O 2.5457 -1.5858 -0.3729 0 CHG=-1
M  V30 8 C 1.7608 0.6886 -0.0244 0
M  V30 9 C -0.6458 1.1017 0.1596 0
M  V30 10 C -2.3217 -0.8039 0.0778 0
M  V30 11 N 3.1084 1.2082 -0.0436 0 CHG=1
M  V30 12 C 0.6777 1.5653 0.1438 0
M  V30 13 N -1.7148 2.0575 0.2818 0 CHG=1
M  V30 14 O 3.3105 2.4402 -0.0625 0
M  V30 15 O 4.1975 0.3688 -0.0036 0 CHG=-1
M  V30 16 O -1.561 3.0833 0.9767 0
M  V30 17 O -2.8326 1.9593 -0.5142 0 CHG=-1
M  V30 18 H -2.3819 -1.8745 0.3507 0
M  V30 19 H -2.7837 -0.6747 -0.9228 0
M  V30 20 H -2.9189 -0.2569 0.8372 0
M  V30 21 H 0.8607 2.6278 0.2434 0
M  V30 END ATOM
M  V30 BEGIN BOND
M  V30 1 2 1 2
M  V30 2 1 2 3
M  V30 3 1 2 4
M  V30 4 2 4 5
M  V30 5 1 4 6
M  V30 6 1 5 7
M  V30 7 1 5 8
M  V30 8 2 6 9
M  V30 9 1 6 10
M  V30 10 1 8 11
M  V30 11 2 8 12
M  V30 12 1 9 13
M  V30 13 2 11 14
M  V30 14 1 11 15
M  V30 15 2 13 16
M  V30 16 1 13 17
M  V30 17 1 9 12
M  V30 18 1 10 18
M  V30 19 1 10 19
M  V30 20 1 10 20
M  V30 21 1 12 21
M  V30 END BOND
M  V30 END CTAB
M  END
>  <Structure No>
3974

>  <LogS>
-2.0434

>  <MMFF94 Energy>
136.84

$$$$
Compound 3975
Actelion Java MolfileCreator 2.0

  0  0  0  0  0  0              0 V3000
M  V30 BEGIN CTAB
M  V30 COUNTS 31 32 0 0 0
M  V30 BEGIN ATOM
M  V30 1 O -4.0376 0.3162 0.5534 0
M  V30 2 C -2.8163 0.1815 0.2581 0
M  V30 3 N -2.0237 1.3033 0.0812 0
M  V30 4 N -2.2898 -1.0833 0.113 0
M  V30 5 C -0.6991 1.1692 -0.2687 0
M  V30 6 C -2.6187 2.6458 0.196 0
M  V30 7 C -0.967 -1.1944 -0.1853 0
M  V30 8 C -3.1143 -2.2781 0.3392 0
M  V30 9 O 0.0182 2.1814 -0.4936 0
M  V30 10 C -0.1726 -0.1144 -0.3779 0
M  V30 11 N -0.272 -2.3371 -0.3479 0
M  V30 12 N 1.0715 -0.5395 -0.6739 0
M  V30 13 C 0.9746 -1.8927 -0.6471 0
M  V30 14 C 2.2935 0.2315 -0.9259 0
M  V30 15 C 3.0528 0.555 0.3762 0 CFG=1
M  V30 16 O 2.2338 1.273 1.2614 0
M  V30 17 C 3.559 -0.708 1.0743 0
M  V30 18 H -3.4176 2.6658 0.9677 0
M  V30 19 H -1.864 3.3985 0.5094 0
M  V30 20 H -3.0484 2.9471 -0.7824 0
M  V30 21 H -2.6786 -3.1724 -0.155 0
M  V30 22 H -3.196 -2.4724 1.4294 0
M  V30 23 H -4.1315 -2.1368 -0.0847 0
M  V30 24 H 1.8081 -2.5568 -0.8367 0
M  V30 25 H 2.9601 -0.3442 -1.6049 0
M  V30 26 H 2.0499 1.1717 -1.4622 0
M  V30 27 H 3.9484 1.1649 0.1101 0
M  V30 28 H 2.2643 2.223 0.9748 0
M  V30 29 H 4.2036 -0.4254 1.9336 0
M  V30 30 H 2.7111 -1.3114 1.4613 0
M  V30 31 H 4.1602 -1.3252 0.3732 0
M  V30 END ATOM
M  V30 BEGIN BOND
M  V30 1 2 1 2
M  V30 2 1 2 3
M  V30 3 1 2 4
M  V30 4 1 3 5
M  V30 5 1 3 6
M  V30 6 1 4 7
M  V30 7 1 4 8
M  V30 8 2 5 9
M  V30 9 1 5 10
M  V30 10 1 7 11
M  V30 11 1 10 12
M  V30 12 2 11 13
M  V30 13 1 12 14
M  V30 14 1 14 15
M  V30 15 1 15 16
M  V30 16 1 15 17
M  V30 17 2 7 10
M  V30 18 1 12 13
M  V30 19 1 6 18
M  V30 20 1 6 19
M  V30 21 1 6 20
M  V30 22 1 8 21
M  V30 23 1 8 22
M  V30 24 1 8 23
M  V30 25 1 13 24
M  V30 26 1 14 25
M  V30 27 1 14 26
M  V30 28 1 15 27
M  V30 29 1 16 28
M  V30 30 1 17 29
M  V30 31 1 17 30
M  V30 32 1 17 31
M  V30 END BOND
M  V30 BEGIN COLLECTION
M  V30 MDLV30/STEABS ATOMS=(1 15)
M  V30 END COLLECTION
M  V30 END CTAB
M  END
>  <Structure No>
3975

>  <LogS>
0.623

>  <MMFF94 Energy>
-113.7

$$$$
Compound 3976
Actelion Java MolfileCreator 2.0

  0  0  0  0  0  0              0 V3000
M  V30 BEGIN CTAB
M  V30 COUNTS 18 18 0 0 0
M  V30 BEGIN ATOM
M  V30 1 O 3.2552 0.9173 1.1676 0
M  V30 2 N 2.3794 1.0187 0.2837 0 CHG=1
M  V30 3 O 2.6245 1.8282 -0.8016 0 CHG=-1
M  V30 4 C 1.2377 0.1427 0.2952 0
M  V30 5 C -0.0327 0.5676 -0.1794 0
M  V30 6 C 1.4023 -1.1765 0.7442 0
M  V30 7 C -1.1145 -0.3584 -0.2056 0
M  V30 8 C -0.2178 1.9605 -0.6419 0
M  V30 9 C 0.3473 -2.0815 0.6928 0
M  V30 10 C -2.4934 0.0186 -0.6057 0
M  V30 11 C -0.8963 -1.6809 0.2142 0
M  V30 12 O 0.1506 2.924 0.0807 0
M  V30 13 O -0.788 2.2166 -1.8831 0 CHG=-1
M  V30 14 O -2.9251 1.1875 -0.4237 0
M  V30 15 O -3.3498 -0.9378 -1.1388 0 CHG=-1
M  V30 16 H 2.3651 -1.5159 1.1049 0
M  V30 17 H 0.4939 -3.1003 1.0277 0
M  V30 18 H -1.7034 -2.4033 0.2056 0
M  V30 END ATOM
M  V30 BEGIN BOND
M  V30 1 2 1 2
M  V30 2 1 2 3
M  V30 3 1 2 4
M  V30 4 2 4 5
M  V30 5 1 4 6
M  V30 6 1 5 7
M  V30 7 1 5 8
M  V30 8 2 6 9
M  V30 9 1 7 10
M  V30 10 2 7 11
M  V30 11 2 8 12
M  V30 12 1 8 13
M  V30 13 2 10 14
M  V30 14 1 10 15
M  V30 15 1 9 11
M  V30 16 1 6 16
M  V30 17 1 9 17
M  V30 18 1 11 18
M  V30 END BOND
M  V30 END CTAB
M  END
>  <Structure No>
3976

>  <LogS>
-1.0214

>  <MMFF94 Energy>
116.37

$$$$
Compound 3977
Actelion Java MolfileCreator 2.0

  0  0  0  0  0  0              0 V3000
M  V30 BEGIN CTAB
M  V30 COUNTS 36 38 0 0 0
M  V30 BEGIN ATOM
M  V30 1 O -3.1341 -4.5026 -1.767 0
M  V30 2 C -2.4429 -3.5183 -1.3949 0
M  V30 3 C -1.0392 -3.7066 -1.0022 0
M  V30 4 C -3.0347 -2.1736 -1.3504 0
M  V30 5 C -0.3011 -2.6652 -0.6073 0
M  V30 6 C -2.3057 -1.1258 -0.9557 0
M  V30 7 C -0.8764 -1.2874 -0.5516 0
M  V30 8 C -0.1292 -0.2233 -0.1494 0
M  V30 9 C 1.3356 -0.3285 0.0592 0
M  V30 10 C -0.7336 1.1072 0.1052 0
M  V30 11 C 2.1839 -0.6859 -1.0023 0
M  V30 12 C 1.8931 -0.0065 1.3069 0
M  V30 13 C -0.2739 2.234 -0.5947 0
M  V30 14 C -1.7218 1.2654 1.0916 0
M  V30 15 C 3.5668 -0.7489 -0.8083 0
M  V30 16 C 3.2764 -0.0698 1.4982 0
M  V30 17 C -0.8157 3.496 -0.3327 0
M  V30 18 C -2.2622 2.5282 1.3514 0
M  V30 19 C 4.1168 -0.4433 0.4406 0
M  V30 20 C -1.8112 3.6471 0.6379 0
M  V30 21 O 5.4965 -0.5104 0.6197 0
M  V30 22 O -2.3423 4.9104 0.8879 0
M  V30 23 H -0.6036 -4.6979 -1.0233 0
M  V30 24 H -4.0656 -2.03 -1.6496 0
M  V30 25 H 0.7172 -2.8576 -0.2972 0
M  V30 26 H -2.7747 -0.151 -0.97 0
M  V30 27 H 1.7732 -0.9118 -1.9786 0
M  V30 28 H 1.2556 0.2872 2.1321 0
M  V30 29 H 0.4989 2.1336 -1.3468 0
M  V30 30 H -2.0695 0.4114 1.66 0
M  V30 31 H 4.212 -1.0308 -1.6305 0
M  V30 32 H 3.694 0.1735 2.4667 0
M  V30 33 H -0.4599 4.3578 -0.8829 0
M  V30 34 H -3.0271 2.6369 2.1097 0
M  V30 35 H 5.9258 -0.2942 1.5118 0
M  V30 36 H -3.0637 5.0529 1.5852 0
M  V30 END ATOM
M  V30 BEGIN BOND
M  V30 1 2 1 2
M  V30 2 1 2 3
M  V30 3 1 2 4
M  V30 4 2 3 5
M  V30 5 2 4 6
M  V30 6 1 5 7
M  V30 7 2 7 8
M  V30 8 1 8 9
M  V30 9 1 8 10
M  V30 10 2 9 11
M  V30 11 1 9 12
M  V30 12 2 10 13
M  V30 13 1 10 14
M  V30 14 1 11 15
M  V30 15 2 12 16
M  V30 16 1 13 17
M  V30 17 2 14 18
M  V30 18 2 15 19
M  V30 19 2 17 20
M  V30 20 1 19 21
M  V30 21 1 20 22
M  V30 22 1 6 7
M  V30 23 1 16 19
M  V30 24 1 18 20
M  V30 25 1 3 23
M  V30 26 1 4 24
M  V30 27 1 5 25
M  V30 28 1 6 26
M  V30 29 1 11 27
M  V30 30 1 12 28
M  V30 31 1 13 29
M  V30 32 1 14 30
M  V30 33 1 15 31
M  V30 34 1 16 32
M  V30 35 1 17 33
M  V30 36 1 18 34
M  V30 37 1 21 35
M  V30 38 1 22 36
M  V30 END BOND
M  V30 END CTAB
M  END
>  <Structure No>
3977

>  <LogS>
-2.3837

>  <MMFF94 Energy>
45.598

$$$$
Compound 3978
Actelion Java MolfileCreator 2.0

  0  0  0  0  0  0              0 V3000
M  V30 BEGIN CTAB
M  V30 COUNTS 33 34 0 0 0
M  V30 BEGIN ATOM
M  V30 1 O -1.1184 -1.3582 0.5591 0
M  V30 2 C -1.756 -0.3623 0.1188 0
M  V30 3 O -3.1534 -0.4003 0.058 0
M  V30 4 C -1.0396 0.8694 -0.2956 0
M  V30 5 C -3.9105 -1.5388 0.4551 0
M  V30 6 C 0.3191 0.8668 -0.7143 0
M  V30 7 C -1.729 2.095 -0.2294 0
M  V30 8 C -5.3921 -1.256 0.2654 0
M  V30 9 C 1.0822 -0.3855 -0.9201 0
M  V30 10 C 0.9475 2.0857 -1.0256 0
M  V30 11 C -1.0878 3.2938 -0.5455 0
M  V30 12 O 0.5955 -1.2713 -1.675 0
M  V30 13 C 2.4089 -0.6085 -0.2901 0
M  V30 14 C 0.2492 3.2899 -0.9366 0
M  V30 15 C 3.2744 -1.5967 -0.7964 0
M  V30 16 C 2.8151 0.1394 0.8326 0
M  V30 17 C 4.5214 -1.8184 -0.2038 0
M  V30 18 C 4.0632 -0.0871 1.421 0
M  V30 19 C 4.9162 -1.0633 0.9025 0
M  V30 20 H -3.6216 -2.4161 -0.1633 0
M  V30 21 H -3.7142 -1.7655 1.5257 0
M  V30 22 H -2.7635 2.1306 0.0901 0
M  V30 23 H -5.6025 -1.0354 -0.8024 0
M  V30 24 H -5.9858 -2.142 0.5748 0
M  V30 25 H -5.6944 -0.3846 0.8844 0
M  V30 26 H 1.9784 2.1014 -1.3588 0
M  V30 27 H -1.6287 4.2294 -0.4814 0
M  V30 28 H 0.7432 4.2212 -1.1822 0
M  V30 29 H 2.9911 -2.1921 -1.6554 0
M  V30 30 H 2.1662 0.8898 1.2656 0
M  V30 31 H 5.1822 -2.5769 -0.6033 0
M  V30 32 H 4.3672 0.4925 2.2833 0
M  V30 33 H 5.8815 -1.2373 1.3602 0
M  V30 END ATOM
M  V30 BEGIN BOND
M  V30 1 2 1 2
M  V30 2 1 2 3
M  V30 3 1 2 4
M  V30 4 1 3 5
M  V30 5 2 4 6
M  V30 6 1 4 7
M  V30 7 1 5 8
M  V30 8 1 6 9
M  V30 9 1 6 10
M  V30 10 2 7 11
M  V30 11 2 9 12
M  V30 12 1 9 13
M  V30 13 2 10 14
M  V30 14 2 13 15
M  V30 15 1 13 16
M  V30 16 1 15 17
M  V30 17 2 16 18
M  V30 18 2 17 19
M  V30 19 1 11 14
M  V30 20 1 18 19
M  V30 21 1 5 20
M  V30 22 1 5 21
M  V30 23 1 7 22
M  V30 24 1 8 23
M  V30 25 1 8 24
M  V30 26 1 8 25
M  V30 27 1 10 26
M  V30 28 1 11 27
M  V30 29 1 14 28
M  V30 30 1 15 29
M  V30 31 1 16 30
M  V30 32 1 17 31
M  V30 33 1 18 32
M  V30 34 1 19 33
M  V30 END BOND
M  V30 END CTAB
M  END
>  <Structure No>
3978

>  <LogS>
-3.4053

>  <MMFF94 Energy>
64.835

$$$$
Compound 3979
Actelion Java MolfileCreator 2.0

  0  0  0  0  0  0              0 V3000
M  V30 BEGIN CTAB
M  V30 COUNTS 25 27 0 0 0
M  V30 BEGIN ATOM
M  V30 1 O -0.0816 2.6152 0.4082 0
M  V30 2 C -0.144 1.3712 0.2058 0
M  V30 3 C 1.102 0.5835 0.0507 0
M  V30 4 C -1.4631 0.7007 0.1235 0
M  V30 5 C 1.0317 -0.8081 -0.1757 0
M  V30 6 C 2.3595 1.2104 0.1273 0
M  V30 7 C -1.5332 -0.6912 -0.103 0
M  V30 8 C -2.6523 1.4389 0.2693 0
M  V30 9 C -0.2873 -1.4788 -0.2581 0
M  V30 10 C 2.2201 -1.5462 -0.3214 0
M  V30 11 C 3.5356 0.4642 -0.0194 0
M  V30 12 C -2.791 -1.3178 -0.1793 0
M  V30 13 C -3.8933 0.8032 0.1911 0
M  V30 14 O -0.3498 -2.7228 -0.4605 0
M  V30 15 C 3.4615 -0.9117 -0.2433 0
M  V30 16 O 4.7824 1.0814 0.0555 0
M  V30 17 C -3.9625 -0.5719 -0.0326 0
M  V30 18 H 2.4309 2.2771 0.3005 0
M  V30 19 H -2.6239 2.5073 0.4438 0
M  V30 20 H 2.1911 -2.6145 -0.4958 0
M  V30 21 H -2.8698 -2.3838 -0.3522 0
M  V30 22 H -4.8034 1.3783 0.3044 0
M  V30 23 H 4.3688 -1.4914 -0.3572 0
M  V30 24 H 4.8718 2.0779 0.2169 0
M  V30 25 H -4.9261 -1.0614 -0.0926 0
M  V30 END ATOM
M  V30 BEGIN BOND
M  V30 1 2 1 2
M  V30 2 1 2 3
M  V30 3 1 2 4
M  V30 4 2 3 5
M  V30 5 1 3 6
M  V30 6 2 4 7
M  V30 7 1 4 8
M  V30 8 1 5 9
M  V30 9 1 5 10
M  V30 10 2 6 11
M  V30 11 1 7 12
M  V30 12 2 8 13
M  V30 13 2 9 14
M  V30 14 2 10 15
M  V30 15 1 11 16
M  V30 16 2 12 17
M  V30 17 1 7 9
M  V30 18 1 11 15
M  V30 19 1 13 17
M  V30 20 1 6 18
M  V30 21 1 8 19
M  V30 22 1 10 20
M  V30 23 1 12 21
M  V30 24 1 13 22
M  V30 25 1 15 23
M  V30 26 1 16 24
M  V30 27 1 17 25
M  V30 END BOND
M  V30 END CTAB
M  END
>  <Structure No>
3979

>  <LogS>
-5.3093

>  <MMFF94 Energy>
48.856

$$$$
Compound 3980
Actelion Java MolfileCreator 2.0

  0  0  0  0  0  0              0 V3000
M  V30 BEGIN CTAB
M  V30 COUNTS 30 31 0 0 0
M  V30 BEGIN ATOM
M  V30 1 O -1.5215 1.4414 -1.0408 0
M  V30 2 C -2.2668 0.5408 -0.5655 0
M  V30 3 O -3.6561 0.6428 -0.6998 0
M  V30 4 C -1.6814 -0.6504 0.0981 0
M  V30 5 C -4.2871 1.7465 -1.3382 0
M  V30 6 C -0.3908 -0.6435 0.6951 0
M  V30 7 C -2.4239 -1.8462 0.0963 0
M  V30 8 C 0.408 0.5951 0.8409 0
M  V30 9 C 0.122 -1.8324 1.2438 0
M  V30 10 C -1.8978 -3.0151 0.6488 0
M  V30 11 O -0.1228 1.5931 1.401 0
M  V30 12 C 1.8165 0.6794 0.3764 0
M  V30 13 C -0.6253 -3.0098 1.2155 0
M  V30 14 C 2.3238 -0.2283 -0.5741 0
M  V30 15 C 2.6625 1.6927 0.8659 0
M  V30 16 C 3.6491 -0.1317 -1.0091 0
M  V30 17 C 3.9871 1.7841 0.4274 0
M  V30 18 C 4.4804 0.8719 -0.5077 0
M  V30 19 H -3.9531 1.816 -2.3952 0
M  V30 20 H -4.0391 2.6878 -0.8032 0
M  V30 21 H -5.3865 1.5999 -1.3174 0
M  V30 22 H -3.4079 -1.8848 -0.3546 0
M  V30 23 H 1.0979 -1.8425 1.7143 0
M  V30 24 H -2.4774 -3.9292 0.632 0
M  V30 25 H -0.2206 -3.9176 1.6443 0
M  V30 26 H 1.6958 -1.0044 -0.9923 0
M  V30 27 H 2.303 2.4093 1.594 0
M  V30 28 H 4.0305 -0.8337 -1.7394 0
M  V30 29 H 4.6315 2.5635 0.8133 0
M  V30 30 H 5.5058 0.9451 -0.8465 0
M  V30 END ATOM
M  V30 BEGIN BOND
M  V30 1 2 1 2
M  V30 2 1 2 3
M  V30 3 1 2 4
M  V30 4 1 3 5
M  V30 5 2 4 6
M  V30 6 1 4 7
M  V30 7 1 6 8
M  V30 8 1 6 9
M  V30 9 2 7 10
M  V30 10 2 8 11
M  V30 11 1 8 12
M  V30 12 2 9 13
M  V30 13 2 12 14
M  V30 14 1 12 15
M  V30 15 1 14 16
M  V30 16 2 15 17
M  V30 17 2 16 18
M  V30 18 1 10 13
M  V30 19 1 17 18
M  V30 20 1 5 19
M  V30 21 1 5 20
M  V30 22 1 5 21
M  V30 23 1 7 22
M  V30 24 1 9 23
M  V30 25 1 10 24
M  V30 26 1 13 25
M  V30 27 1 14 26
M  V30 28 1 15 27
M  V30 29 1 16 28
M  V30 30 1 17 29
M  V30 31 1 18 30
M  V30 END BOND
M  V30 END CTAB
M  END
>  <Structure No>
3980

>  <LogS>
-3.4776

>  <MMFF94 Energy>
67.664

$$$$
Compound 3981
Actelion Java MolfileCreator 2.0

  0  0  0  0  0  0              0 V3000
M  V30 BEGIN CTAB
M  V30 COUNTS 22 23 0 0 0
M  V30 BEGIN ATOM
M  V30 1 O -2.0534 2.8756 -1.2316 0
M  V30 2 N -1.146 2.5197 -0.4514 0 CHG=1
M  V30 3 O -0.594 3.4531 0.3956 0 CHG=-1
M  V30 4 C -0.8794 1.123 -0.2498 0
M  V30 5 C 0.4419 0.6348 -0.1031 0
M  V30 6 C -1.9598 0.2301 -0.1658 0
M  V30 7 N 1.5266 1.452 -0.2614 0
M  V30 8 C 0.6483 -0.736 0.1779 0
M  V30 9 C -1.7582 -1.1336 0.0999 0
M  V30 10 C 2.7935 0.9801 -0.1077 0
M  V30 11 C 1.9685 -1.1938 0.3341 0
M  V30 12 C -0.4503 -1.6064 0.2813 0
M  V30 13 N -2.8774 -2.0353 0.1962 0 CHG=1
M  V30 14 O 3.7752 1.7578 -0.252 0
M  V30 15 N 3.0062 -0.3272 0.1959 0
M  V30 16 O 2.2043 -2.4047 0.5994 0
M  V30 17 O -4.0447 -1.622 0.0348 0
M  V30 18 O -2.6798 -3.3707 0.4647 0 CHG=-1
M  V30 19 H -2.9668 0.611 -0.2827 0
M  V30 20 H 1.4112 2.4539 -0.5303 0
M  V30 21 H -0.2883 -2.656 0.4926 0
M  V30 22 H 3.9858 -0.6747 0.3127 0
M  V30 END ATOM
M  V30 BEGIN BOND
M  V30 1 2 1 2
M  V30 2 1 2 3
M  V30 3 1 2 4
M  V30 4 2 4 5
M  V30 5 1 4 6
M  V30 6 1 5 7
M  V30 7 1 5 8
M  V30 8 2 6 9
M  V30 9 1 7 10
M  V30 10 1 8 11
M  V30 11 2 8 12
M  V30 12 1 9 13
M  V30 13 2 10 14
M  V30 14 1 10 15
M  V30 15 2 11 16
M  V30 16 2 13 17
M  V30 17 1 13 18
M  V30 18 1 9 12
M  V30 19 1 11 15
M  V30 20 1 6 19
M  V30 21 1 7 20
M  V30 22 1 12 21
M  V30 23 1 15 22
M  V30 END BOND
M  V30 END CTAB
M  END
>  <Structure No>
3981

>  <LogS>
-3.2057

>  <MMFF94 Energy>
-31.073

$$$$
Compound 3982
Actelion Java MolfileCreator 2.0

  0  0  0  0  0  0              0 V3000
M  V30 BEGIN CTAB
M  V30 COUNTS 21 22 0 0 0
M  V30 BEGIN ATOM
M  V30 1 O -3.1778 1.2702 -0.238 0
M  V30 2 C -1.9306 1.1292 -0.1083 0
M  V30 3 N -1.3501 -0.1197 -0.1463 0
M  V30 4 C -1.1532 2.2738 0.075 0
M  V30 5 C 0.02 -0.25 -0.0018 0
M  V30 6 C -2.198 -1.3132 -0.3418 0
M  V30 7 C 0.2214 2.1627 0.2218 0
M  V30 8 C 0.8242 0.9058 0.1857 0
M  V30 9 C 0.6647 -1.5111 -0.0335 0
M  V30 10 C 2.2152 0.7895 0.3337 0
M  V30 11 C 2.0504 -1.61 0.1153 0
M  V30 12 C 2.8228 -0.4646 0.2983 0
M  V30 13 H -1.6171 3.2524 0.1039 0
M  V30 14 H -2.0997 -1.9933 0.531 0
M  V30 15 H -3.2756 -1.0698 -0.4437 0
M  V30 16 H -1.8955 -1.8434 -1.2697 0
M  V30 17 H 0.813 3.0597 0.3636 0
M  V30 18 H 0.1146 -2.4308 -0.1724 0
M  V30 19 H 2.8318 1.6691 0.4769 0
M  V30 20 H 2.5276 -2.5813 0.0887 0
M  V30 21 H 3.8958 -0.5489 0.413 0
M  V30 END ATOM
M  V30 BEGIN BOND
M  V30 1 2 1 2
M  V30 2 1 2 3
M  V30 3 1 2 4
M  V30 4 1 3 5
M  V30 5 1 3 6
M  V30 6 2 4 7
M  V30 7 2 5 8
M  V30 8 1 5 9
M  V30 9 1 8 10
M  V30 10 2 9 11
M  V30 11 2 10 12
M  V30 12 1 7 8
M  V30 13 1 11 12
M  V30 14 1 4 13
M  V30 15 1 6 14
M  V30 16 1 6 15
M  V30 17 1 6 16
M  V30 18 1 7 17
M  V30 19 1 9 18
M  V30 20 1 10 19
M  V30 21 1 11 20
M  V30 22 1 12 21
M  V30 END BOND
M  V30 END CTAB
M  END
>  <Structure No>
3982

>  <LogS>
-1.0466

>  <MMFF94 Energy>
13.021

$$$$
Compound 3983
Actelion Java MolfileCreator 2.0

  0  0  0  0  0  0              0 V3000
M  V30 BEGIN CTAB
M  V30 COUNTS 21 22 0 0 0
M  V30 BEGIN ATOM
M  V30 1 O -0.2378 1.904 -2.301 0
M  V30 2 C -0.3867 1.0545 -1.3807 0
M  V30 3 C 0.709 0.6186 -0.615 0
M  V30 4 C -1.6599 0.5443 -1.1203 0
M  V30 5 C 0.4878 -0.3307 0.4125 0
M  V30 6 C 2.011 1.1035 -0.8406 0
M  V30 7 C -1.837 -0.4064 -0.1071 0
M  V30 8 N -0.77 -0.809 0.6418 0
M  V30 9 C 1.5682 -0.7735 1.1928 0
M  V30 10 C 3.0756 0.6516 -0.0562 0
M  V30 11 C -3.2105 -0.9273 0.1984 0
M  V30 12 C 2.8549 -0.2833 0.9571 0
M  V30 13 H -2.5074 0.8855 -1.7038 0
M  V30 14 H 2.2081 1.8301 -1.6193 0
M  V30 15 H -0.9234 -1.5023 1.4098 0
M  V30 16 H 1.4144 -1.4982 1.9826 0
M  V30 17 H 4.0747 1.0281 -0.2341 0
M  V30 18 H -3.1515 -1.9517 0.6225 0
M  V30 19 H -3.8279 -0.9719 -0.7241 0
M  V30 20 H -3.7034 -0.2583 0.9341 0
M  V30 21 H 3.6834 -0.6291 1.5618 0
M  V30 END ATOM
M  V30 BEGIN BOND
M  V30 1 2 1 2
M  V30 2 1 2 3
M  V30 3 1 2 4
M  V30 4 2 3 5
M  V30 5 1 3 6
M  V30 6 2 4 7
M  V30 7 1 5 8
M  V30 8 1 5 9
M  V30 9 2 6 10
M  V30 10 1 7 11
M  V30 11 2 9 12
M  V30 12 1 7 8
M  V30 13 1 10 12
M  V30 14 1 4 13
M  V30 15 1 6 14
M  V30 16 1 8 15
M  V30 17 1 9 16
M  V30 18 1 10 17
M  V30 19 1 11 18
M  V30 20 1 11 19
M  V30 21 1 11 20
M  V30 22 1 12 21
M  V30 END BOND
M  V30 END CTAB
M  END
>  <Structure No>
3983

>  <LogS>
-1.2019

>  <MMFF94 Energy>
38.265

$$$$
Compound 3984
Actelion Java MolfileCreator 2.0

  0  0  0  0  0  0              0 V3000
M  V30 BEGIN CTAB
M  V30 COUNTS 22 21 0 0 0
M  V30 BEGIN ATOM
M  V30 1 O 1.4484 2.6566 0.1608 0
M  V30 2 C 1.9112 1.5072 0.3855 0
M  V30 3 O 2.6744 1.2872 1.5261 0 CHG=-1
M  V30 4 C 1.6389 0.3805 -0.5748 0 CFG=1
M  V30 5 O 2.8531 -0.0979 -1.0978 0
M  V30 6 C 0.8335 -0.7779 0.0867 0 CFG=2
M  V30 7 O 0.7089 -1.8762 -0.7857 0
M  V30 8 C -0.5615 -0.381 0.6611 0 CFG=1
M  V30 9 O -0.3941 0.4101 1.8121 0
M  V30 10 C -1.4831 0.365 -0.3322 0 CFG=1
M  V30 11 O -1.7039 -0.4179 -1.4759 0
M  V30 12 C -2.8042 0.675 0.3164 0
M  V30 13 O -3.6555 -0.236 0.4958 0
M  V30 14 O -3.077 1.9647 0.7555 0 CHG=-1
M  V30 15 H 1.0572 0.7787 -1.4331 0
M  V30 16 H 3.3672 -0.5045 -0.3514 0
M  V30 17 H 1.4364 -1.1427 0.9479 0
M  V30 18 H 0.4827 -1.5356 -1.6891 0
M  V30 19 H -1.082 -1.3262 0.9498 0
M  V30 20 H -0.1242 -0.1991 2.5485 0
M  V30 21 H -1.007 1.3302 -0.6179 0
M  V30 22 H -2.0359 0.1939 -2.1841 0
M  V30 END ATOM
M  V30 BEGIN BOND
M  V30 1 2 1 2
M  V30 2 1 2 3
M  V30 3 1 2 4
M  V30 4 1 4 5
M  V30 5 1 4 6
M  V30 6 1 6 7
M  V30 7 1 6 8
M  V30 8 1 8 9
M  V30 9 1 8 10
M  V30 10 1 10 11
M  V30 11 1 10 12
M  V30 12 2 12 13
M  V30 13 1 12 14
M  V30 14 1 4 15
M  V30 15 1 5 16
M  V30 16 1 6 17
M  V30 17 1 7 18
M  V30 18 1 8 19
M  V30 19 1 9 20
M  V30 20 1 10 21
M  V30 21 1 11 22
M  V30 END BOND
M  V30 BEGIN COLLECTION
M  V30 MDLV30/STEABS ATOMS=(4 4 6 8 10)
M  V30 END COLLECTION
M  V30 END CTAB
M  END
>  <Structure No>
3984

>  <LogS>
0.1999

>  <MMFF94 Energy>
190.25

$$$$
Compound 3985
Actelion Java MolfileCreator 2.0

  0  0  0  0  0  0              0 V3000
M  V30 BEGIN CTAB
M  V30 COUNTS 22 21 0 0 0
M  V30 BEGIN ATOM
M  V30 1 O 1.6595 0.7899 1.1061 0
M  V30 2 C 1.4848 0.1054 0.061 0
M  V30 3 O 2.5746 -0.4973 -0.579 0
M  V30 4 C 0.135 -0.0656 -0.5086 0
M  V30 5 C 3.9111 -0.4335 -0.0845 0
M  V30 6 O 0.0044 -0.7517 -1.5572 0
M  V30 7 C -1.0687 0.5327 0.0991 0
M  V30 8 C 4.0928 -1.3764 1.0991 0
M  V30 9 O -0.983 1.2251 1.1503 0
M  V30 10 O -2.3121 0.3229 -0.5054 0
M  V30 11 C -3.5217 0.8639 0.0159 0
M  V30 12 C -4.6872 0.4532 -0.8695 0
M  V30 13 H 4.6029 -0.7429 -0.8959 0
M  V30 14 H 4.1671 0.6081 0.208 0
M  V30 15 H 3.4454 -1.0658 1.9455 0
M  V30 16 H 3.8301 -2.4134 0.801 0
M  V30 17 H 5.1512 -1.3553 1.434 0
M  V30 18 H -3.4554 1.9734 0.0443 0
M  V30 19 H -3.6908 0.4816 1.0461 0
M  V30 20 H -4.7688 -0.6539 -0.8997 0
M  V30 21 H -4.5337 0.8362 -1.9005 0
M  V30 22 H -5.6321 0.8738 -0.4651 0
M  V30 END ATOM
M  V30 BEGIN BOND
M  V30 1 2 1 2
M  V30 2 1 2 3
M  V30 3 1 2 4
M  V30 4 1 3 5
M  V30 5 2 4 6
M  V30 6 1 4 7
M  V30 7 1 5 8
M  V30 8 2 7 9
M  V30 9 1 7 10
M  V30 10 1 10 11
M  V30 11 1 11 12
M  V30 12 1 5 13
M  V30 13 1 5 14
M  V30 14 1 8 15
M  V30 15 1 8 16
M  V30 16 1 8 17
M  V30 17 1 11 18
M  V30 18 1 11 19
M  V30 19 1 12 20
M  V30 20 1 12 21
M  V30 21 1 12 22
M  V30 END BOND
M  V30 END CTAB
M  END
>  <Structure No>
3985

>  <LogS>
0.5117

>  <MMFF94 Energy>
45.014

$$$$
Compound 3986
Actelion Java MolfileCreator 2.0

  0  0  0  0  0  0              0 V3000
M  V30 BEGIN CTAB
M  V30 COUNTS 17 16 0 0 0
M  V30 BEGIN ATOM
M  V30 1 O -0.078 2.5789 -0.7028 0
M  V30 2 N -0.0305 1.3553 -0.9437 0 CHG=1
M  V30 3 O -0.1968 0.9169 -2.2376 0 CHG=-1
M  V30 4 C 0.3408 0.4143 0.1145 0 CFG=2
M  V30 5 C 1.7584 -0.1161 -0.1501 0
M  V30 6 C -0.6846 -0.7344 0.2001 0
M  V30 7 O 2.2279 -0.8479 0.9514 0
M  V30 8 C -2.0856 -0.2267 0.5394 0
M  V30 9 H 0.352 0.9482 1.0924 0
M  V30 10 H 2.4421 0.7456 -0.3058 0
M  V30 11 H 1.7807 -0.7294 -1.0815 0
M  V30 12 H -0.7208 -1.2889 -0.7628 0
M  V30 13 H -0.3792 -1.4489 0.9944 0
M  V30 14 H 2.0204 -1.8024 0.7753 0
M  V30 15 H -2.0723 0.3304 1.5003 0
M  V30 16 H -2.4666 0.4373 -0.2648 0
M  V30 17 H -2.7782 -1.0888 0.6393 0
M  V30 END ATOM
M  V30 BEGIN BOND
M  V30 1 2 1 2
M  V30 2 1 2 3
M  V30 3 1 2 4
M  V30 4 1 4 5
M  V30 5 1 4 6
M  V30 6 1 5 7
M  V30 7 1 6 8
M  V30 8 1 4 9
M  V30 9 1 5 10
M  V30 10 1 5 11
M  V30 11 1 6 12
M  V30 12 1 6 13
M  V30 13 1 7 14
M  V30 14 1 8 15
M  V30 15 1 8 16
M  V30 16 1 8 17
M  V30 END BOND
M  V30 BEGIN COLLECTION
M  V30 MDLV30/STEABS ATOMS=(1 4)
M  V30 END COLLECTION
M  V30 END CTAB
M  END
>  <Structure No>
3986

>  <LogS>
-0.3436

>  <MMFF94 Energy>
8.6097

$$$$
Compound 3987
Actelion Java MolfileCreator 2.0

  0  0  0  0  0  0              0 V3000
M  V30 BEGIN CTAB
M  V30 COUNTS 14 14 0 0 0
M  V30 BEGIN ATOM
M  V30 1 Cl -2.5338 -2.1841 -0.5238 0
M  V30 2 C -1.363 -0.9018 -0.2532 0
M  V30 3 C 0.0123 -1.1821 -0.2446 0
M  V30 4 C -1.816 0.403 -0.0461 0
M  V30 5 O 0.4337 -2.4911 -0.4536 0 CHG=-1
M  V30 6 C 0.948 -0.1431 -0.0259 0
M  V30 7 C -0.9028 1.4352 0.1704 0
M  V30 8 N 2.3695 -0.3972 -0.0108 0 CHG=1
M  V30 9 C 0.4684 1.1659 0.1808 0
M  V30 10 Cl -1.4774 3.0725 0.4299 0
M  V30 11 O 3.1759 0.5359 0.1842 0
M  V30 12 O 2.8715 -1.6627 -0.2089 0 CHG=-1
M  V30 13 H -2.8781 0.6145 -0.0536 0
M  V30 14 H 1.1585 1.9826 0.3508 0
M  V30 END ATOM
M  V30 BEGIN BOND
M  V30 1 1 1 2
M  V30 2 2 2 3
M  V30 3 1 2 4
M  V30 4 1 3 5
M  V30 5 1 3 6
M  V30 6 2 4 7
M  V30 7 1 6 8
M  V30 8 2 6 9
M  V30 9 1 7 10
M  V30 10 2 8 11
M  V30 11 1 8 12
M  V30 12 1 7 9
M  V30 13 1 4 13
M  V30 14 1 9 14
M  V30 END BOND
M  V30 END CTAB
M  END
>  <Structure No>
3987

>  <LogS>
-4.0876

>  <MMFF94 Energy>
62.208

$$$$
Compound 3988
Actelion Java MolfileCreator 2.0

  0  0  0  0  0  0              0 V3000
M  V30 BEGIN CTAB
M  V30 COUNTS 17 17 0 0 0
M  V30 BEGIN ATOM
M  V30 1 O 3.6523 -0.2431 -0.2431 0
M  V30 2 C 2.5653 -0.8645 -0.1011 0
M  V30 3 O 2.6053 -2.2462 0.0418 0 CHG=-1
M  V30 4 C 1.2752 -0.1241 -0.0747 0
M  V30 5 C 0.0285 -0.7983 -0.0619 0
M  V30 6 C 1.2938 1.2822 -0.0839 0
M  V30 7 O 0.0126 -2.1927 -0.163 0
M  V30 8 C -1.1768 -0.0489 0.0089 0
M  V30 9 C 0.1069 2.01 -0.0735 0
M  V30 10 C -1.1181 1.3515 -0.0259 0
M  V30 11 C -2.5116 -0.6684 0.151 0
M  V30 12 O -2.669 -1.7744 0.7311 0
M  V30 13 H 2.2305 1.8252 -0.1038 0
M  V30 14 H -0.8155 -2.7321 -0.3722 0
M  V30 15 H 0.1374 3.0922 -0.0865 0
M  V30 16 H -2.0267 1.941 0.011 0
M  V30 17 H -3.3887 -0.1309 -0.1867 0
M  V30 END ATOM
M  V30 BEGIN BOND
M  V30 1 2 1 2
M  V30 2 1 2 3
M  V30 3 1 2 4
M  V30 4 2 4 5
M  V30 5 1 4 6
M  V30 6 1 5 7
M  V30 7 1 5 8
M  V30 8 2 6 9
M  V30 9 2 8 10
M  V30 10 1 8 11
M  V30 11 2 11 12
M  V30 12 1 9 10
M  V30 13 1 6 13
M  V30 14 1 7 14
M  V30 15 1 9 15
M  V30 16 1 10 16
M  V30 17 1 11 17
M  V30 END BOND
M  V30 END CTAB
M  END
>  <Structure No>
3988

>  <LogS>
-2.4423

>  <MMFF94 Energy>
25.909

$$$$
Compound 3989
Actelion Java MolfileCreator 2.0

  0  0  0  0  0  0              0 V3000
M  V30 BEGIN CTAB
M  V30 COUNTS 18 18 0 0 0
M  V30 BEGIN ATOM
M  V30 1 O -1.8298 2.1627 -1.5801 0
M  V30 2 N -1.7804 0.9303 -1.387 0 CHG=1
M  V30 3 O -2.5247 0.1007 -2.194 0 CHG=-1
M  V30 4 C -0.7819 0.3767 -0.5146 0
M  V30 5 C -1.0474 -0.76 0.2908 0
M  V30 6 C 0.5052 0.9432 -0.5069 0
M  V30 7 C -2.4048 -1.3381 0.431 0
M  V30 8 C 0.0 -1.3284 1.0345 0
M  V30 9 C 1.5415 0.3809 0.2551 0
M  V30 10 O -3.43 -0.6229 0.2773 0
M  V30 11 O -2.5622 -2.6718 0.7904 0 CHG=-1
M  V30 12 C 1.277 -0.7668 1.0175 0
M  V30 13 N 2.8564 0.9677 0.2433 0 CHG=1
M  V30 14 O 3.7838 0.4662 0.9124 0
M  V30 15 O 3.1132 2.095 -0.5032 0 CHG=-1
M  V30 16 H 0.7031 1.8105 -1.1239 0
M  V30 17 H -0.175 -2.1969 1.6579 0
M  V30 18 H 2.0564 -1.2258 1.6121 0
M  V30 END ATOM
M  V30 BEGIN BOND
M  V30 1 2 1 2
M  V30 2 1 2 3
M  V30 3 1 2 4
M  V30 4 2 4 5
M  V30 5 1 4 6
M  V30 6 1 5 7
M  V30 7 1 5 8
M  V30 8 2 6 9
M  V30 9 2 7 10
M  V30 10 1 7 11
M  V30 11 2 8 12
M  V30 12 1 9 13
M  V30 13 2 13 14
M  V30 14 1 13 15
M  V30 15 1 9 12
M  V30 16 1 6 16
M  V30 17 1 8 17
M  V30 18 1 12 18
M  V30 END BOND
M  V30 END CTAB
M  END
>  <Structure No>
3989

>  <LogS>
-1.0665

>  <MMFF94 Energy>
54.725

$$$$
Compound 3990
Actelion Java MolfileCreator 2.0

  0  0  0  0  0  0              0 V3000
M  V30 BEGIN CTAB
M  V30 COUNTS 27 29 0 0 0
M  V30 BEGIN ATOM
M  V30 1 C -0.9586 0.0 -0.0798 0
M  V30 2 C -0.4935 -1.2335 0.4495 0
M  V30 3 C -2.3498 0.1784 -0.3069 0
M  V30 4 C -0.0209 1.0149 -0.3652 0
M  V30 5 C 0.8757 -1.4313 0.6818 0
M  V30 6 C -1.4046 -2.2582 0.7417 0
M  V30 7 C -3.2367 -0.8686 -0.0034 0
M  V30 8 C -2.909 1.4622 -0.8664 0
M  V30 9 C 1.347 0.8137 -0.1316 0
M  V30 10 C 1.7983 -0.4179 0.3954 0
M  V30 11 C -2.7667 -2.0738 0.5156 0
M  V30 12 C 2.2763 1.8275 -0.4175 0
M  V30 13 C 3.1691 -0.6145 0.6274 0
M  V30 14 C 3.6381 1.6196 -0.1821 0
M  V30 15 C 4.0832 0.4023 0.3387 0
M  V30 16 H -0.3423 1.9665 -0.7692 0
M  V30 17 H 1.2237 -2.376 1.0864 0
M  V30 18 H -1.0627 -3.2037 1.1459 0
M  V30 19 H -4.301 -0.7543 -0.1686 0
M  V30 20 H -2.4756 1.6557 -1.87 0
M  V30 21 H -4.0136 1.4188 -0.9753 0
M  V30 22 H -2.6672 2.306 -0.1865 0
M  V30 23 H -3.4632 -2.8703 0.744 0
M  V30 24 H 1.9503 2.7785 -0.8218 0
M  V30 25 H 3.5328 -1.552 1.0309 0
M  V30 26 H 4.3501 2.404 -0.404 0
M  V30 27 H 5.1389 0.2465 0.519 0
M  V30 END ATOM
M  V30 BEGIN BOND
M  V30 1 1 1 2
M  V30 2 1 1 3
M  V30 3 2 1 4
M  V30 4 2 2 5
M  V30 5 1 2 6
M  V30 6 2 3 7
M  V30 7 1 3 8
M  V30 8 1 4 9
M  V30 9 1 5 10
M  V30 10 2 6 11
M  V30 11 2 9 12
M  V30 12 2 10 13
M  V30 13 1 12 14
M  V30 14 1 13 15
M  V30 15 1 7 11
M  V30 16 1 9 10
M  V30 17 2 14 15
M  V30 18 1 4 16
M  V30 19 1 5 17
M  V30 20 1 6 18
M  V30 21 1 7 19
M  V30 22 1 8 20
M  V30 23 1 8 21
M  V30 24 1 8 22
M  V30 25 1 11 23
M  V30 26 1 12 24
M  V30 27 1 13 25
M  V30 28 1 14 26
M  V30 29 1 15 27
M  V30 END BOND
M  V30 END CTAB
M  END
>  <Structure No>
3990

>  <LogS>
-5.8541

>  <MMFF94 Energy>
48.005

$$$$
Compound 3991
Actelion Java MolfileCreator 2.0

  0  0  0  0  0  0              0 V3000
M  V30 BEGIN CTAB
M  V30 COUNTS 18 19 0 0 0
M  V30 BEGIN ATOM
M  V30 1 O 3.9448 0.5745 0.1641 0
M  V30 2 N 3.1057 -0.3261 -0.044 0 CHG=1
M  V30 3 O 3.5525 -1.5997 -0.3113 0 CHG=-1
M  V30 4 C 1.6963 -0.0392 -0.0051 0
M  V30 5 C 0.7553 -1.0663 -0.2422 0
M  V30 6 C 1.2338 1.2745 0.2707 0
M  V30 7 C -0.5994 -0.7457 -0.1952 0
M  V30 8 C -0.1421 1.56 0.3097 0
M  V30 9 C -1.7706 -1.5596 -0.39 0
M  V30 10 C -1.0433 0.5249 0.0716 0
M  V30 11 O -1.7826 -2.7897 -0.6556 0
M  V30 12 O -2.9095 -0.7792 -0.2403 0
M  V30 13 C -2.5436 0.5732 0.0574 0
M  V30 14 H 1.065 -2.0808 -0.4559 0
M  V30 15 H 1.936 2.077 0.4553 0
M  V30 16 H -0.4933 2.5619 0.5202 0
M  V30 17 H -2.908 1.255 -0.7393 0
M  V30 18 H -2.9374 0.8682 1.0527 0
M  V30 END ATOM
M  V30 BEGIN BOND
M  V30 1 2 1 2
M  V30 2 1 2 3
M  V30 3 1 2 4
M  V30 4 2 4 5
M  V30 5 1 4 6
M  V30 6 1 5 7
M  V30 7 2 6 8
M  V30 8 1 7 9
M  V30 9 2 7 10
M  V30 10 2 9 11
M  V30 11 1 9 12
M  V30 12 1 10 13
M  V30 13 1 8 10
M  V30 14 1 12 13
M  V30 15 1 5 14
M  V30 16 1 6 15
M  V30 17 1 8 16
M  V30 18 1 13 17
M  V30 19 1 13 18
M  V30 END BOND
M  V30 END CTAB
M  END
>  <Structure No>
3991

>  <LogS>
-2.6511

>  <MMFF94 Energy>
51.147

$$$$
Compound 3992
Actelion Java MolfileCreator 2.0

  0  0  0  0  0  0              0 V3000
M  V30 BEGIN CTAB
M  V30 COUNTS 20 20 0 0 0
M  V30 BEGIN ATOM
M  V30 1 O -2.0331 -1.5636 -0.9379 0
M  V30 2 C -1.4512 -1.3335 0.3158 0
M  V30 3 C -0.1113 -0.655 0.1533 0
M  V30 4 C 0.0062 0.7255 -0.1598 0
M  V30 5 C 1.0539 -1.4343 0.2667 0
M  V30 6 C 1.2863 1.2913 -0.2959 0
M  V30 7 C -1.1934 1.6336 -0.297 0
M  V30 8 C 2.3149 -0.8568 0.1117 0
M  V30 9 C 2.431 0.5042 -0.1638 0
M  V30 10 O -1.44 2.2939 0.914 0
M  V30 11 H -1.5375 -2.3215 -1.3452 0
M  V30 12 H -1.3509 -2.2939 0.8714 0
M  V30 13 H -2.1311 -0.7012 0.9221 0
M  V30 14 H 0.9874 -2.4942 0.4794 0
M  V30 15 H 1.3982 2.3476 -0.5088 0
M  V30 16 H -2.0989 1.0862 -0.6371 0
M  V30 17 H -0.9925 2.3976 -1.0781 0
M  V30 18 H 3.2041 -1.4662 0.2075 0
M  V30 19 H 3.4103 0.9508 -0.2775 0
M  V30 20 H -1.8831 1.6377 1.5121 0
M  V30 END ATOM
M  V30 BEGIN BOND
M  V30 1 1 1 2
M  V30 2 1 2 3
M  V30 3 2 3 4
M  V30 4 1 3 5
M  V30 5 1 4 6
M  V30 6 1 4 7
M  V30 7 2 5 8
M  V30 8 2 6 9
M  V30 9 1 7 10
M  V30 10 1 8 9
M  V30 11 1 1 11
M  V30 12 1 2 12
M  V30 13 1 2 13
M  V30 14 1 5 14
M  V30 15 1 6 15
M  V30 16 1 7 16
M  V30 17 1 7 17
M  V30 18 1 8 18
M  V30 19 1 9 19
M  V30 20 1 10 20
M  V30 END BOND
M  V30 END CTAB
M  END
>  <Structure No>
3992

>  <LogS>
0.0569

>  <MMFF94 Energy>
22.241

$$$$
Compound 3993
Actelion Java MolfileCreator 2.0

  0  0  0  0  0  0              0 V3000
M  V30 BEGIN CTAB
M  V30 COUNTS 18 18 0 0 0
M  V30 BEGIN ATOM
M  V30 1 O 1.5199 2.4808 0.3198 0
M  V30 2 C 0.4527 2.2381 -0.3027 0
M  V30 3 O -0.1078 3.2389 -1.0882 0 CHG=-1
M  V30 4 C -0.2363 0.9313 -0.1612 0
M  V30 5 C 0.4518 -0.2836 0.1211 0
M  V30 6 C -1.6371 0.9098 -0.2957 0
M  V30 7 C -0.3012 -1.455 0.3466 0
M  V30 8 C 1.9661 -0.3398 0.2141 0
M  V30 9 C -2.356 -0.2699 -0.1057 0
M  V30 10 C -1.6908 -1.4464 0.2268 0
M  V30 11 O 2.4595 -1.6401 0.026 0
M  V30 12 H -2.1842 1.8169 -0.522 0
M  V30 13 H 0.1835 -2.387 0.6074 0
M  V30 14 H 2.2741 0.0115 1.221 0
M  V30 15 H 2.429 0.3289 -0.5456 0
M  V30 16 H -3.4343 -0.2675 -0.2008 0
M  V30 17 H -2.2534 -2.3566 0.3903 0
M  V30 18 H 2.3652 -1.8423 -0.9415 0
M  V30 END ATOM
M  V30 BEGIN BOND
M  V30 1 2 1 2
M  V30 2 1 2 3
M  V30 3 1 2 4
M  V30 4 2 4 5
M  V30 5 1 4 6
M  V30 6 1 5 7
M  V30 7 1 5 8
M  V30 8 2 6 9
M  V30 9 2 7 10
M  V30 10 1 8 11
M  V30 11 1 9 10
M  V30 12 1 6 12
M  V30 13 1 7 13
M  V30 14 1 8 14
M  V30 15 1 8 15
M  V30 16 1 9 16
M  V30 17 1 10 17
M  V30 18 1 11 18
M  V30 END BOND
M  V30 END CTAB
M  END
>  <Structure No>
3993

>  <LogS>
-1.5508

>  <MMFF94 Energy>
33.551

$$$$
Compound 3994
Actelion Java MolfileCreator 2.0

  0  0  0  0  0  0              0 V3000
M  V30 BEGIN CTAB
M  V30 COUNTS 20 20 0 0 0
M  V30 BEGIN ATOM
M  V30 1 O 0.4764 2.7815 0.3175 0
M  V30 2 N -0.1265 1.9304 1.002 0 CHG=1
M  V30 3 O -0.4533 2.2391 2.3025 0 CHG=-1
M  V30 4 C -0.6813 0.7549 0.3872 0
M  V30 5 C 0.052 -0.032 -0.5444 0
M  V30 6 C -1.9831 0.3606 0.743 0
M  V30 7 C -0.5509 -1.1809 -1.0911 0
M  V30 8 C 1.4939 0.2593 -0.9024 0
M  V30 9 C -2.5645 -0.7757 0.1803 0
M  V30 10 C -1.8508 -1.5435 -0.7364 0
M  V30 11 C 2.4324 -0.1092 0.2433 0
M  V30 12 H -2.5564 0.9453 1.4514 0
M  V30 13 H -0.0092 -1.808 -1.7886 0
M  V30 14 H 1.7965 -0.3243 -1.7994 0
M  V30 15 H 1.6302 1.322 -1.1826 0
M  V30 16 H -3.5707 -1.0626 0.4582 0
M  V30 17 H -2.3016 -2.4286 -1.1665 0
M  V30 18 H 2.2115 0.5009 1.1441 0
M  V30 19 H 2.3247 -1.1856 0.4961 0
M  V30 20 H 3.4831 0.0808 -0.0612 0
M  V30 END ATOM
M  V30 BEGIN BOND
M  V30 1 2 1 2
M  V30 2 1 2 3
M  V30 3 1 2 4
M  V30 4 2 4 5
M  V30 5 1 4 6
M  V30 6 1 5 7
M  V30 7 1 5 8
M  V30 8 2 6 9
M  V30 9 2 7 10
M  V30 10 1 8 11
M  V30 11 1 9 10
M  V30 12 1 6 12
M  V30 13 1 7 13
M  V30 14 1 8 14
M  V30 15 1 8 15
M  V30 16 1 9 16
M  V30 17 1 10 17
M  V30 18 1 11 18
M  V30 19 1 11 19
M  V30 20 1 11 20
M  V30 END BOND
M  V30 END CTAB
M  END
>  <Structure No>
3994

>  <LogS>
-2.7993

>  <MMFF94 Energy>
55.579

$$$$
Compound 3995
Actelion Java MolfileCreator 2.0

  0  0  0  0  0  0              0 V3000
M  V30 BEGIN CTAB
M  V30 COUNTS 18 18 0 0 0
M  V30 BEGIN ATOM
M  V30 1 O 0.0796 3.1105 -0.3186 0
M  V30 2 N 0.4916 2.0591 0.214 0 CHG=1
M  V30 3 O 1.5757 2.1289 1.0574 0 CHG=-1
M  V30 4 C -0.2697 0.8431 0.0921 0
M  V30 5 C 0.3535 -0.4345 0.0622 0
M  V30 6 C -1.6707 0.9238 -0.0149 0
M  V30 7 C -0.449 -1.5865 -0.0415 0
M  V30 8 C 1.8535 -0.5995 0.103 0
M  V30 9 C -2.4469 -0.2305 -0.1224 0
M  V30 10 C -1.8377 -1.4831 -0.131 0
M  V30 11 O 2.4413 0.1319 -0.937 0
M  V30 12 H -2.1666 1.8863 0.0013 0
M  V30 13 H 1.0E-4 -2.5718 -0.0626 0
M  V30 14 H 2.2392 -0.259 1.0883 0
M  V30 15 H 2.1378 -1.6703 -0.0053 0
M  V30 16 H -3.5241 -0.1532 -0.1957 0
M  V30 17 H -2.4424 -2.3772 -0.2132 0
M  V30 18 H 3.4222 0.0286 -0.8267 0
M  V30 END ATOM
M  V30 BEGIN BOND
M  V30 1 2 1 2
M  V30 2 1 2 3
M  V30 3 1 2 4
M  V30 4 2 4 5
M  V30 5 1 4 6
M  V30 6 1 5 7
M  V30 7 1 5 8
M  V30 8 2 6 9
M  V30 9 2 7 10
M  V30 10 1 8 11
M  V30 11 1 9 10
M  V30 12 1 6 12
M  V30 13 1 7 13
M  V30 14 1 8 14
M  V30 15 1 8 15
M  V30 16 1 9 16
M  V30 17 1 10 17
M  V30 18 1 11 18
M  V30 END BOND
M  V30 END CTAB
M  END
>  <Structure No>
3995

>  <LogS>
-1.4861

>  <MMFF94 Energy>
45.502

$$$$
Compound 3996
Actelion Java MolfileCreator 2.0

  0  0  0  0  0  0              0 V3000
M  V30 BEGIN CTAB
M  V30 COUNTS 26 28 0 0 0
M  V30 BEGIN ATOM
M  V30 1 N -4.6329 -0.4785 0.3987 0
M  V30 2 C -3.2992 -0.0054 0.1919 0
M  V30 3 C -2.2082 -0.8612 0.4003 0
M  V30 4 C -3.0773 1.3155 -0.2198 0
M  V30 5 C -0.8971 -0.4012 0.1986 0
M  V30 6 C -1.7767 1.7838 -0.4235 0
M  V30 7 C -0.6794 0.9342 -0.2173 0
M  V30 8 C 0.1967 -1.2547 0.4062 0
M  V30 9 C 0.6287 1.3984 -0.4202 0
M  V30 10 C 1.5048 -0.791 0.2034 0
M  V30 11 C 1.7223 0.5451 -0.2127 0
M  V30 12 C 2.6031 -1.6411 0.4096 0
M  V30 13 C 3.0337 1.0044 -0.4143 0
M  V30 14 C 3.9034 -1.1707 0.2053 0
M  V30 15 C 4.1179 0.1473 -0.2052 0
M  V30 16 H -5.4529 0.1503 0.2465 0
M  V30 17 H -4.8107 -1.4609 0.7055 0
M  V30 18 H -2.3842 -1.8822 0.7189 0
M  V30 19 H -3.914 1.9833 -0.383 0
M  V30 20 H -1.6292 2.8089 -0.7419 0
M  V30 21 H 0.0302 -2.2782 0.725 0
M  V30 22 H 0.7952 2.4219 -0.739 0
M  V30 23 H 2.4564 -2.6663 0.7281 0
M  V30 24 H 3.2199 2.0233 -0.7326 0
M  V30 25 H 4.7469 -1.8298 0.3655 0
M  V30 26 H 5.1271 0.5059 -0.3619 0
M  V30 END ATOM
M  V30 BEGIN BOND
M  V30 1 1 1 2
M  V30 2 2 2 3
M  V30 3 1 2 4
M  V30 4 1 3 5
M  V30 5 2 4 6
M  V30 6 1 5 7
M  V30 7 2 5 8
M  V30 8 2 7 9
M  V30 9 1 8 10
M  V30 10 1 9 11
M  V30 11 2 10 12
M  V30 12 2 11 13
M  V30 13 1 12 14
M  V30 14 1 13 15
M  V30 15 1 6 7
M  V30 16 1 10 11
M  V30 17 2 14 15
M  V30 18 1 1 16
M  V30 19 1 1 17
M  V30 20 1 3 18
M  V30 21 1 4 19
M  V30 22 1 6 20
M  V30 23 1 8 21
M  V30 24 1 9 22
M  V30 25 1 12 23
M  V30 26 1 13 24
M  V30 27 1 14 25
M  V30 28 1 15 26
M  V30 END BOND
M  V30 END CTAB
M  END
>  <Structure No>
3996

>  <LogS>
-5.1722

>  <MMFF94 Energy>
34.595

$$$$
Compound 3997
Actelion Java MolfileCreator 2.0

  0  0  0  0  0  0              0 V3000
M  V30 BEGIN CTAB
M  V30 COUNTS 20 20 0 0 0
M  V30 BEGIN ATOM
M  V30 1 O -1.2653 -0.4743 -1.5027 0
M  V30 2 C -0.5351 0.038 -0.6099 0
M  V30 3 O -1.1123 0.7653 0.4392 0
M  V30 4 C 0.9337 -0.1212 -0.6723 0
M  V30 5 C -2.5199 0.924 0.6061 0
M  V30 6 C 1.5409 -0.8403 -1.7172 0
M  V30 7 C 1.7571 0.4434 0.3153 0
M  V30 8 C -3.1436 -0.3529 1.1571 0
M  V30 9 N 2.8931 -0.9784 -1.7597 0
M  V30 10 C 3.1425 0.2864 0.2473 0
M  V30 11 C 3.6982 -0.4355 -0.8092 0
M  V30 12 H -2.6992 1.7483 1.3283 0
M  V30 13 H -2.9963 1.2019 -0.359 0
M  V30 14 H 0.9438 -1.292 -2.4986 0
M  V30 15 H 1.3329 1.0047 1.1385 0
M  V30 16 H -2.6591 -0.6268 2.1181 0
M  V30 17 H -3.0197 -1.1873 0.436 0
M  V30 18 H -4.2281 -0.1926 1.3336 0
M  V30 19 H 3.7798 0.7203 1.007 0
M  V30 20 H 4.7703 -0.5648 -0.8738 0
M  V30 END ATOM
M  V30 BEGIN BOND
M  V30 1 2 1 2
M  V30 2 1 2 3
M  V30 3 1 2 4
M  V30 4 1 3 5
M  V30 5 2 4 6
M  V30 6 1 4 7
M  V30 7 1 5 8
M  V30 8 1 6 9
M  V30 9 2 7 10
M  V30 10 2 9 11
M  V30 11 1 10 11
M  V30 12 1 5 12
M  V30 13 1 5 13
M  V30 14 1 6 14
M  V30 15 1 7 15
M  V30 16 1 8 16
M  V30 17 1 8 17
M  V30 18 1 8 18
M  V30 19 1 10 19
M  V30 20 1 11 20
M  V30 END BOND
M  V30 END CTAB
M  END
>  <Structure No>
3997

>  <LogS>
-0.4313

>  <MMFF94 Energy>
23.749

$$$$
Compound 3998
Actelion Java MolfileCreator 2.0

  0  0  0  0  0  0              0 V3000
M  V30 BEGIN CTAB
M  V30 COUNTS 17 16 0 0 0
M  V30 BEGIN ATOM
M  V30 1 O -2.9798 -1.8812 1.097 0
M  V30 2 N -1.8811 -1.2896 1.0542 0
M  V30 3 N -1.6856 -0.1578 0.2434 0
M  V30 4 C -0.3669 0.4015 0.1624 0
M  V30 5 C -2.7647 0.3409 -0.614 0
M  V30 6 O -0.126 1.3512 -0.6332 0
M  V30 7 O 0.65 -0.1128 0.9761 0
M  V30 8 C 2.0007 0.343 0.9302 0
M  V30 9 C 2.714 -0.2099 -0.298 0
M  V30 10 H -2.6637 1.4349 -0.7769 0
M  V30 11 H -2.7326 -0.181 -1.5929 0
M  V30 12 H -3.7528 0.1676 -0.1389 0
M  V30 13 H 2.5261 -0.0172 1.8395 0
M  V30 14 H 2.0354 1.4542 0.9299 0
M  V30 15 H 2.6706 -1.3196 -0.2934 0
M  V30 16 H 2.2382 0.1693 -1.2262 0
M  V30 17 H 3.7774 0.1087 -0.2868 0
M  V30 END ATOM
M  V30 BEGIN BOND
M  V30 1 2 1 2
M  V30 2 1 2 3
M  V30 3 1 3 4
M  V30 4 1 3 5
M  V30 5 2 4 6
M  V30 6 1 4 7
M  V30 7 1 7 8
M  V30 8 1 8 9
M  V30 9 1 5 10
M  V30 10 1 5 11
M  V30 11 1 5 12
M  V30 12 1 8 13
M  V30 13 1 8 14
M  V30 14 1 9 15
M  V30 15 1 9 16
M  V30 16 1 9 17
M  V30 END BOND
M  V30 END CTAB
M  END
>  <Structure No>
3998

>  <LogS>
-0.5528

>  <MMFF94 Energy>
-21.548

$$$$
Compound 3999
Actelion Java MolfileCreator 2.0

  0  0  0  0  0  0              0 V3000
M  V30 BEGIN CTAB
M  V30 COUNTS 22 21 0 0 0
M  V30 BEGIN ATOM
M  V30 1 O -3.1797 0.2323 1.3174 0
M  V30 2 C -2.5587 1.0677 0.6078 0
M  V30 3 O -2.7872 2.4258 0.7904 0 CHG=-1
M  V30 4 C -1.5577 0.6039 -0.4171 0 CFG=2
M  V30 5 N -2.1865 -0.3496 -1.3423 0 CHG=1
M  V30 6 C -0.3309 -0.0091 0.2955 0
M  V30 7 C 0.8364 -0.2853 -0.668 0
M  V30 8 C 2.0767 -0.8376 0.0528 0
M  V30 9 C 2.8197 0.229 0.8574 0
M  V30 10 H -1.2239 1.4957 -0.9947 0
M  V30 11 H -2.3854 -1.2578 -0.8624 0
M  V30 12 H -1.5635 -0.5196 -2.1636 0
M  V30 13 H -3.0837 0.0465 -1.707 0
M  V30 14 H 0.009 0.7056 1.0752 0
M  V30 15 H -0.6232 -0.9537 0.8052 0
M  V30 16 H 0.5206 -1.0459 -1.4126 0
M  V30 17 H 1.1038 0.6412 -1.2217 0
M  V30 18 H 2.7754 -1.2416 -0.7116 0
M  V30 19 H 1.7898 -1.678 0.7217 0
M  V30 20 H 3.0683 1.0994 0.2139 0
M  V30 21 H 2.2122 0.5687 1.7212 0
M  V30 22 H 3.7658 -0.1994 1.2505 0
M  V30 END ATOM
M  V30 BEGIN BOND
M  V30 1 2 1 2
M  V30 2 1 2 3
M  V30 3 1 2 4
M  V30 4 1 4 5
M  V30 5 1 4 6
M  V30 6 1 6 7
M  V30 7 1 7 8
M  V30 8 1 8 9
M  V30 9 1 4 10
M  V30 10 1 5 11
M  V30 11 1 5 12
M  V30 12 1 5 13
M  V30 13 1 6 14
M  V30 14 1 6 15
M  V30 15 1 7 16
M  V30 16 1 7 17
M  V30 17 1 8 18
M  V30 18 1 8 19
M  V30 19 1 9 20
M  V30 20 1 9 21
M  V30 21 1 9 22
M  V30 END BOND
M  V30 BEGIN COLLECTION
M  V30 MDLV30/STEABS ATOMS=(1 4)
M  V30 END COLLECTION
M  V30 END CTAB
M  END
>  <Structure No>
3999

>  <LogS>
-1.0453

>  <MMFF94 Energy>
-9.8442

$$$$
Compound 4000
Actelion Java MolfileCreator 2.0

  0  0  0  0  0  0              0 V3000
M  V30 BEGIN CTAB
M  V30 COUNTS 17 16 0 0 0
M  V30 BEGIN ATOM
M  V30 1 Cl 0.1574 -0.7875 2.0485 0
M  V30 2 C 0.1752 -0.7231 0.2586 0
M  V30 3 C -1.2483 -0.9046 -0.305 0
M  V30 4 C 0.8451 0.5721 -0.2392 0
M  V30 5 C -2.2149 0.2242 0.0639 0
M  V30 6 C 2.3506 0.5767 0.0236 0
M  V30 7 H 0.7756 -1.5908 -0.0926 0
M  V30 8 H -1.663 -1.8644 0.0729 0
M  V30 9 H -1.197 -0.9829 -1.4129 0
M  V30 10 H 0.3918 1.4538 0.2633 0
M  V30 11 H 0.685 0.6775 -1.3345 0
M  V30 12 H -3.2286 -0.0224 -0.3162 0
M  V30 13 H -1.898 1.1809 -0.4009 0
M  V30 14 H -2.2775 0.3499 1.1648 0
M  V30 15 H 2.7923 1.5158 -0.3712 0
M  V30 16 H 2.8349 -0.2828 -0.4863 0
M  V30 17 H 2.5583 0.5223 1.1129 0
M  V30 END ATOM
M  V30 BEGIN BOND
M  V30 1 1 1 2
M  V30 2 1 2 3
M  V30 3 1 2 4
M  V30 4 1 3 5
M  V30 5 1 4 6
M  V30 6 1 2 7
M  V30 7 1 3 8
M  V30 8 1 3 9
M  V30 9 1 4 10
M  V30 10 1 4 11
M  V30 11 1 5 12
M  V30 12 1 5 13
M  V30 13 1 5 14
M  V30 14 1 6 15
M  V30 15 1 6 16
M  V30 16 1 6 17
M  V30 END BOND
M  V30 END CTAB
M  END
>  <Structure No>
4000

>  <LogS>
-2.6307

>  <MMFF94 Energy>
0.60437

$$$$
Compound 4001
Actelion Java MolfileCreator 2.0

  0  0  0  0  0  0              0 V3000
M  V30 BEGIN CTAB
M  V30 COUNTS 16 15 0 0 0
M  V30 BEGIN ATOM
M  V30 1 O 0.9886 1.369 -1.1407 0
M  V30 2 C 0.3873 0.2326 -0.5724 0 CFG=1
M  V30 3 C 1.0824 -0.1311 0.7207 0
M  V30 4 C -1.1217 0.4769 -0.3704 0
M  V30 5 C 2.3606 -0.5182 0.7322 0
M  V30 6 C -1.8798 -0.8095 -0.0412 0
M  V30 7 H 0.8776 2.1192 -0.4984 0
M  V30 8 H 0.5117 -0.6091 -1.2886 0
M  V30 9 H 0.5427 -0.0838 1.6626 0
M  V30 10 H -1.5465 0.8997 -1.3069 0
M  V30 11 H -1.285 1.2202 0.4406 0
M  V30 12 H 2.9332 -0.5801 -0.1881 0
M  V30 13 H 2.8417 -0.7766 1.6701 0
M  V30 14 H -1.5204 -1.2444 0.9148 0
M  V30 15 H -2.9625 -0.5852 0.0606 0
M  V30 16 H -1.7482 -1.5542 -0.8547 0
M  V30 END ATOM
M  V30 BEGIN BOND
M  V30 1 1 1 2
M  V30 2 1 2 3
M  V30 3 1 2 4
M  V30 4 2 3 5
M  V30 5 1 4 6
M  V30 6 1 1 7
M  V30 7 1 2 8
M  V30 8 1 3 9
M  V30 9 1 4 10
M  V30 10 1 4 11
M  V30 11 1 5 12
M  V30 12 1 5 13
M  V30 13 1 6 14
M  V30 14 1 6 15
M  V30 15 1 6 16
M  V30 END BOND
M  V30 BEGIN COLLECTION
M  V30 MDLV30/STEABS ATOMS=(1 2)
M  V30 END COLLECTION
M  V30 END CTAB
M  END
>  <Structure No>
4001

>  <LogS>
0.0193

>  <MMFF94 Energy>
-0.46349

$$$$
Compound 4002
Actelion Java MolfileCreator 2.0

  0  0  0  0  0  0              0 V3000
M  V30 BEGIN CTAB
M  V30 COUNTS 13 13 0 0 0
M  V30 BEGIN ATOM
M  V30 1 O -1.6552 1.8919 -0.7091 0
M  V30 2 C -0.8399 0.9955 -0.3676 0
M  V30 3 N 0.5552 1.1468 -0.4901 0
M  V30 4 C -1.2361 -0.309 0.1959 0
M  V30 5 C 1.2238 -0.048 -0.0173 0
M  V30 6 C 0.1091 -1.0139 0.4346 0
M  V30 7 H 1.0364 1.9941 -0.8655 0
M  V30 8 H -1.8588 -0.8699 -0.5336 0
M  V30 9 H -1.7876 -0.1643 1.1497 0
M  V30 10 H 1.821 -0.4935 -0.8417 0
M  V30 11 H 1.8918 0.2084 0.8327 0
M  V30 12 H 0.2277 -1.2593 1.5127 0
M  V30 13 H 0.1573 -1.9572 -0.1521 0
M  V30 END ATOM
M  V30 BEGIN BOND
M  V30 1 2 1 2
M  V30 2 1 2 3
M  V30 3 1 2 4
M  V30 4 1 3 5
M  V30 5 1 4 6
M  V30 6 1 5 6
M  V30 7 1 3 7
M  V30 8 1 4 8
M  V30 9 1 4 9
M  V30 10 1 5 10
M  V30 11 1 5 11
M  V30 12 1 6 12
M  V30 13 1 6 13
M  V30 END BOND
M  V30 END CTAB
M  END
>  <Structure No>
4002

>  <LogS>
1.07

>  <MMFF94 Energy>
-24.45

$$$$
Compound 4003
Actelion Java MolfileCreator 2.0

  0  0  0  0  0  0              0 V3000
M  V30 BEGIN CTAB
M  V30 COUNTS 18 17 0 0 0
M  V30 BEGIN ATOM
M  V30 1 O -2.9704 1.6048 0.9626 0
M  V30 2 C -2.267 1.011 0.1032 0
M  V30 3 O -2.6636 1.0194 -1.2293 0 CHG=-1
M  V30 4 C -1.0225 0.2797 0.5209 0
M  V30 5 C -1.2645 -1.1973 0.3842 0
M  V30 6 C 0.1869 0.7554 -0.3172 0
M  V30 7 O -1.4272 -1.9071 1.4117 0
M  V30 8 O -1.351 -1.785 -0.8727 0 CHG=-1
M  V30 9 C 1.5527 0.415 0.3083 0
M  V30 10 C 1.9396 -1.0555 0.1583 0
M  V30 11 H -0.8241 0.5164 1.591 0
M  V30 12 H 0.141 1.8648 -0.3962 0
M  V30 13 H 0.1305 0.3628 -1.3564 0
M  V30 14 H 1.5684 0.6982 1.383 0
M  V30 15 H 2.3282 1.0245 -0.2048 0
M  V30 16 H 1.8128 -1.3895 -0.8933 0
M  V30 17 H 3.0049 -1.1863 0.4429 0
M  V30 18 H 1.3301 -1.6928 0.8298 0
M  V30 END ATOM
M  V30 BEGIN BOND
M  V30 1 2 1 2
M  V30 2 1 2 3
M  V30 3 1 2 4
M  V30 4 1 4 5
M  V30 5 1 4 6
M  V30 6 2 5 7
M  V30 7 1 5 8
M  V30 8 1 6 9
M  V30 9 1 9 10
M  V30 10 1 4 11
M  V30 11 1 6 12
M  V30 12 1 6 13
M  V30 13 1 9 14
M  V30 14 1 9 15
M  V30 15 1 10 16
M  V30 16 1 10 17
M  V30 17 1 10 18
M  V30 END BOND
M  V30 END CTAB
M  END
>  <Structure No>
4003

>  <LogS>
0.6803

>  <MMFF94 Energy>
43.538

$$$$
Compound 4004
Actelion Java MolfileCreator 2.0

  0  0  0  0  0  0              0 V3000
M  V30 BEGIN CTAB
M  V30 COUNTS 16 16 0 0 0
M  V30 BEGIN ATOM
M  V30 1 O -3.5341 -0.5043 -0.084 0
M  V30 2 N -2.4101 -1.0349 -0.1961 0 CHG=1
M  V30 3 O -2.3469 -2.3842 -0.4595 0 CHG=-1
M  V30 4 C -1.1993 -0.2609 -0.0549 0
M  V30 5 C -1.2321 1.1242 0.2152 0
M  V30 6 C 0.0507 -0.8936 -0.1879 0
M  V30 7 O -2.437 1.804 0.3572 0 CHG=-1
M  V30 8 C -0.0419 1.8418 0.3457 0
M  V30 9 C 1.2564 -0.1761 -0.0576 0
M  V30 10 C 1.1944 1.2072 0.2124 0
M  V30 11 N 2.5204 -0.8605 -0.2007 0 CHG=1
M  V30 12 O 2.3491 1.9687 0.3518 0 CHG=-1
M  V30 13 O 2.5527 -2.0857 -0.4397 0
M  V30 14 O 3.7144 -0.188 -0.0792 0 CHG=-1
M  V30 15 H 0.0867 -1.9548 -0.3949 0
M  V30 16 H -0.0781 2.9043 0.553 0
M  V30 END ATOM
M  V30 BEGIN BOND
M  V30 1 2 1 2
M  V30 2 1 2 3
M  V30 3 1 2 4
M  V30 4 2 4 5
M  V30 5 1 4 6
M  V30 6 1 5 7
M  V30 7 1 5 8
M  V30 8 2 6 9
M  V30 9 2 8 10
M  V30 10 1 9 11
M  V30 11 1 10 12
M  V30 12 2 11 13
M  V30 13 1 11 14
M  V30 14 1 9 10
M  V30 15 1 6 15
M  V30 16 1 8 16
M  V30 END BOND
M  V30 END CTAB
M  END
>  <Structure No>
4004

>  <LogS>
-3.4086

>  <MMFF94 Energy>
158.51

$$$$
Compound 4005
Actelion Java MolfileCreator 2.0

  0  0  0  0  0  0              0 V3000
M  V30 BEGIN CTAB
M  V30 COUNTS 17 17 0 0 0
M  V30 BEGIN ATOM
M  V30 1 O -3.3257 1.0536 -0.4051 0
M  V30 2 C -2.1573 1.4879 -0.2252 0
M  V30 3 O -1.9656 2.8614 -0.1217 0 CHG=-1
M  V30 4 C -1.0013 0.5599 -0.1246 0
M  V30 5 C -1.1583 -0.8418 -0.2251 0
M  V30 6 C 0.289 1.0877 0.0767 0
M  V30 7 O -2.4182 -1.407 -0.4245 0
M  V30 8 C -0.0387 -1.6791 -0.1241 0
M  V30 9 C 1.4076 0.243 0.1771 0
M  V30 10 C 1.2329 -1.1421 0.0752 0
M  V30 11 C 2.7611 0.7904 0.388 0
M  V30 12 O 2.9543 2.0316 0.4843 0
M  V30 13 H 0.4259 2.1593 0.1558 0
M  V30 14 H -2.5471 -2.4095 -0.4986 0
M  V30 15 H -0.1545 -2.753 -0.2005 0
M  V30 16 H 2.0823 -1.8103 0.1499 0
M  V30 17 H 3.6095 0.1219 0.4626 0
M  V30 END ATOM
M  V30 BEGIN BOND
M  V30 1 2 1 2
M  V30 2 1 2 3
M  V30 3 1 2 4
M  V30 4 2 4 5
M  V30 5 1 4 6
M  V30 6 1 5 7
M  V30 7 1 5 8
M  V30 8 2 6 9
M  V30 9 2 8 10
M  V30 10 1 9 11
M  V30 11 2 11 12
M  V30 12 1 9 10
M  V30 13 1 6 13
M  V30 14 1 7 14
M  V30 15 1 8 15
M  V30 16 1 10 16
M  V30 17 1 11 17
M  V30 END BOND
M  V30 END CTAB
M  END
>  <Structure No>
4005

>  <LogS>
-2.6354

>  <MMFF94 Energy>
22.045

$$$$
Compound 4006
Actelion Java MolfileCreator 2.0

  0  0  0  0  0  0              0 V3000
M  V30 BEGIN CTAB
M  V30 COUNTS 24 23 0 0 0
M  V30 BEGIN ATOM
M  V30 1 O 2.7918 -1.9935 1.8339 0
M  V30 2 C 2.6955 -1.4215 0.7162 0
M  V30 3 O 2.8238 -2.1698 -0.4483 0 CHG=-1
M  V30 4 C 2.4595 0.0625 0.6463 0
M  V30 5 C 3.6829 0.7391 0.095 0
M  V30 6 C 1.2178 0.4046 -0.2023 0
M  V30 7 O 4.0234 0.5698 -1.1064 0
M  V30 8 O 4.4598 1.5443 0.9187 0 CHG=-1
M  V30 9 C -0.0819 -0.0991 0.4445 0
M  V30 10 C -1.3031 0.2949 -0.3948 0
M  V30 11 C -2.5995 -0.2103 0.2487 0
M  V30 12 C -3.8172 0.1802 -0.5836 0
M  V30 13 H 2.2921 0.4498 1.6769 0
M  V30 14 H 1.1526 1.5103 -0.3117 0
M  V30 15 H 1.3201 -0.0316 -1.221 0
M  V30 16 H -0.0469 -1.2066 0.5375 0
M  V30 17 H -0.1798 0.3379 1.4627 0
M  V30 18 H -1.2046 -0.14 -1.414 0
M  V30 19 H -1.3456 1.403 -0.4857 0
M  V30 20 H -2.5664 -1.3181 0.3393 0
M  V30 21 H -2.7063 0.2231 1.2672 0
M  V30 22 H -3.8884 1.2856 -0.6683 0
M  V30 23 H -4.7392 -0.1983 -0.0941 0
M  V30 24 H -3.7476 -0.262 -1.6002 0
M  V30 END ATOM
M  V30 BEGIN BOND
M  V30 1 2 1 2
M  V30 2 1 2 3
M  V30 3 1 2 4
M  V30 4 1 4 5
M  V30 5 1 4 6
M  V30 6 2 5 7
M  V30 7 1 5 8
M  V30 8 1 6 9
M  V30 9 1 9 10
M  V30 10 1 10 11
M  V30 11 1 11 12
M  V30 12 1 4 13
M  V30 13 1 6 14
M  V30 14 1 6 15
M  V30 15 1 9 16
M  V30 16 1 9 17
M  V30 17 1 10 18
M  V30 18 1 10 19
M  V30 19 1 11 20
M  V30 20 1 11 21
M  V30 21 1 12 22
M  V30 22 1 12 23
M  V30 23 1 12 24
M  V30 END BOND
M  V30 END CTAB
M  END
>  <Structure No>
4006

>  <LogS>
0.5921

>  <MMFF94 Energy>
43.094

$$$$
Compound 4007
Actelion Java MolfileCreator 2.0

  0  0  0  0  0  0              0 V3000
M  V30 BEGIN CTAB
M  V30 COUNTS 24 23 0 0 0
M  V30 BEGIN ATOM
M  V30 1 O -0.6925 -1.0774 -1.5395 0
M  V30 2 C -0.042 -0.6029 -0.3855 0 CFG=2
M  V30 3 C -1.0881 -0.0698 0.6359 0
M  V30 4 C 1.0063 0.4459 -0.8244 0
M  V30 5 C -1.9226 1.0944 0.0783 0
M  V30 6 C -2.0151 -1.1999 1.1068 0
M  V30 7 C 1.8115 1.0975 0.315 0
M  V30 8 C 2.6098 0.088 1.139 0
M  V30 9 H -0.8919 -2.0393 -1.3946 0
M  V30 10 H 0.5173 -1.4418 0.0926 0
M  V30 11 H -0.5564 0.2913 1.5416 0
M  V30 12 H 1.7217 -0.0466 -1.5193 0
M  V30 13 H 0.5092 1.2476 -1.4111 0
M  V30 14 H -2.4353 0.7998 -0.8619 0
M  V30 15 H -2.6914 1.4037 0.8185 0
M  V30 16 H -1.2812 1.978 -0.1177 0
M  V30 17 H -2.6796 -0.8356 1.9196 0
M  V30 18 H -2.6495 -1.568 0.2723 0
M  V30 19 H -1.4181 -2.0468 1.5073 0
M  V30 20 H 1.1473 1.6876 0.9801 0
M  V30 21 H 2.5278 1.816 -0.139 0
M  V30 22 H 3.2274 -0.5536 0.4756 0
M  V30 23 H 3.2841 0.6306 1.8348 0
M  V30 24 H 1.9309 -0.5476 1.7447 0
M  V30 END ATOM
M  V30 BEGIN BOND
M  V30 1 1 1 2
M  V30 2 1 2 3
M  V30 3 1 2 4
M  V30 4 1 3 5
M  V30 5 1 3 6
M  V30 6 1 4 7
M  V30 7 1 7 8
M  V30 8 1 1 9
M  V30 9 1 2 10
M  V30 10 1 3 11
M  V30 11 1 4 12
M  V30 12 1 4 13
M  V30 13 1 5 14
M  V30 14 1 5 15
M  V30 15 1 5 16
M  V30 16 1 6 17
M  V30 17 1 6 18
M  V30 18 1 6 19
M  V30 19 1 7 20
M  V30 20 1 7 21
M  V30 21 1 8 22
M  V30 22 1 8 23
M  V30 23 1 8 24
M  V30 END BOND
M  V30 BEGIN COLLECTION
M  V30 MDLV30/STEABS ATOMS=(1 2)
M  V30 END COLLECTION
M  V30 END CTAB
M  END
>  <Structure No>
4007

>  <LogS>
-1.3093

>  <MMFF94 Energy>
7.0348

$$$$
Compound 4008
Actelion Java MolfileCreator 2.0

  0  0  0  0  0  0              0 V3000
M  V30 BEGIN CTAB
M  V30 COUNTS 23 23 0 0 0
M  V30 BEGIN ATOM
M  V30 1 S 3.3731 0.9041 0.0821 0
M  V30 2 O 4.5503 -0.0299 0.0754 0
M  V30 3 O 3.2659 1.5353 1.4418 0
M  V30 4 O 3.602 2.0998 -1.0745 0 CHG=-1
M  V30 5 C 1.8976 0.0141 -0.2798 0
M  V30 6 C 0.6617 0.4836 0.1866 0
M  V30 7 C 1.9504 -1.1491 -1.0547 0
M  V30 8 C -0.5332 -0.2095 -0.1035 0
M  V30 9 C 0.779 -1.8456 -1.3509 0
M  V30 10 N -1.8124 0.2743 0.3835 0
M  V30 11 C -0.4526 -1.3842 -0.8805 0
M  V30 12 C -1.878 1.1806 1.5367 0
M  V30 13 C -3.0627 -0.1355 -0.2678 0
M  V30 14 H 0.6403 1.3974 0.7639 0
M  V30 15 H 2.8962 -1.5167 -1.4314 0
M  V30 16 H 0.8252 -2.7478 -1.9471 0
M  V30 17 H -1.3368 -1.9574 -1.1221 0
M  V30 18 H -1.2516 0.7853 2.3644 0
M  V30 19 H -2.9152 1.2785 1.9215 0
M  V30 20 H -1.5198 2.1899 1.2445 0
M  V30 21 H -2.9754 -0.007 -1.3677 0
M  V30 22 H -3.2812 -1.1976 -0.0307 0
M  V30 23 H -3.9221 0.4801 0.0723 0
M  V30 END ATOM
M  V30 BEGIN BOND
M  V30 1 2 1 2
M  V30 2 2 1 3
M  V30 3 1 1 4
M  V30 4 1 1 5
M  V30 5 2 5 6
M  V30 6 1 5 7
M  V30 7 1 6 8
M  V30 8 2 7 9
M  V30 9 1 8 10
M  V30 10 2 8 11
M  V30 11 1 10 12
M  V30 12 1 10 13
M  V30 13 1 9 11
M  V30 14 1 6 14
M  V30 15 1 7 15
M  V30 16 1 9 16
M  V30 17 1 11 17
M  V30 18 1 12 18
M  V30 19 1 12 19
M  V30 20 1 12 20
M  V30 21 1 13 21
M  V30 22 1 13 22
M  V30 23 1 13 23
M  V30 END BOND
M  V30 END CTAB
M  END
>  <Structure No>
4008

>  <LogS>
0.2983

>  <MMFF94 Energy>
44.123

$$$$
Compound 4009
Actelion Java MolfileCreator 2.0

  0  0  0  0  0  0              0 V3000
M  V30 BEGIN CTAB
M  V30 COUNTS 11 11 0 0 0
M  V30 BEGIN ATOM
M  V30 1 Cl 2.1033 -1.514 -2.1033 0
M  V30 2 C 1.0611 -0.611 -1.024 0
M  V30 3 O -0.0146 -1.1025 -0.4555 0
M  V30 4 C 1.243 0.7034 -0.6482 0
M  V30 5 C -0.5537 -0.1613 0.2845 0
M  V30 6 C 0.1966 0.9973 0.2005 0
M  V30 7 C -1.7756 -0.3436 1.0744 0
M  V30 8 O -2.2384 0.6036 1.763 0
M  V30 9 O -2.4294 -1.5687 1.0649 0 CHG=-1
M  V30 10 H 2.0402 1.3673 -0.9546 0
M  V30 11 H 0.0071 1.9407 0.6955 0
M  V30 END ATOM
M  V30 BEGIN BOND
M  V30 1 1 1 2
M  V30 2 1 2 3
M  V30 3 2 2 4
M  V30 4 1 3 5
M  V30 5 1 4 6
M  V30 6 1 5 7
M  V30 7 2 7 8
M  V30 8 1 7 9
M  V30 9 2 5 6
M  V30 10 1 4 10
M  V30 11 1 6 11
M  V30 END BOND
M  V30 END CTAB
M  END
>  <Structure No>
4009

>  <LogS>
-1.7188

>  <MMFF94 Energy>
34.475

$$$$
Compound 4010
Actelion Java MolfileCreator 2.0

  0  0  0  0  0  0              0 V3000
M  V30 BEGIN CTAB
M  V30 COUNTS 36 37 0 0 0
M  V30 BEGIN ATOM
M  V30 1 O -4.005 1.2802 3.1228 0
M  V30 2 C -3.0546 1.0581 2.3262 0
M  V30 3 C -3.2997 0.4709 0.991 0
M  V30 4 C -2.2228 0.2296 0.1098 0
M  V30 5 C -4.6093 0.1441 0.5934 0
M  V30 6 O -0.9204 0.5654 0.5251 0
M  V30 7 C -2.4842 -0.33 -1.1585 0
M  V30 8 C -4.8495 -0.4132 -0.6631 0
M  V30 9 C 0.2928 0.252 -0.1616 0 CFG=1
M  V30 10 C -3.7897 -0.6488 -1.5367 0
M  V30 11 O 1.3342 1.017 0.4197 0
M  V30 12 C 0.6028 -1.2591 -0.0292 0 CFG=2
M  V30 13 C 2.5319 0.8706 -0.3253 0 CFG=2
M  V30 14 O 0.6161 -1.6382 1.3239 0
M  V30 15 C 1.9643 -1.5854 -0.6732 0 CFG=2
M  V30 16 C 3.0582 -0.5851 -0.232 0 CFG=2
M  V30 17 C 3.5733 1.8737 0.1916 0
M  V30 18 O 1.8246 -1.5494 -2.0717 0
M  V30 19 O 3.5347 -0.9017 1.0552 0
M  V30 20 O 3.113 3.1871 0.0207 0
M  V30 21 H -2.0494 1.3065 2.64 0
M  V30 22 H -5.4492 0.3188 1.2543 0
M  V30 23 H -1.6913 -0.5208 -1.8661 0
M  V30 24 H -5.8603 -0.6615 -0.9603 0
M  V30 25 H 0.1747 0.5357 -1.2323 0
M  V30 26 H -3.98 -1.0786 -2.5118 0
M  V30 27 H -0.1747 -1.8501 -0.5658 0
M  V30 28 H 2.3572 1.118 -1.3993 0
M  V30 29 H -0.3291 -1.7633 1.6008 0
M  V30 30 H 2.2613 -2.6157 -0.3639 0
M  V30 31 H 3.9196 -0.6849 -0.9287 0
M  V30 32 H 3.7554 1.7069 1.2744 0
M  V30 33 H 4.5416 1.7348 -0.3419 0
M  V30 34 H 2.5891 -2.0562 -2.4518 0
M  V30 35 H 2.8541 -0.6205 1.7189 0
M  V30 36 H 3.2245 3.4051 -0.9413 0
M  V30 END ATOM
M  V30 BEGIN BOND
M  V30 1 2 1 2
M  V30 2 1 2 3
M  V30 3 2 3 4
M  V30 4 1 3 5
M  V30 5 1 4 6
M  V30 6 1 4 7
M  V30 7 2 5 8
M  V30 8 1 6 9
M  V30 9 2 7 10
M  V30 10 1 9 11
M  V30 11 1 9 12
M  V30 12 1 11 13
M  V30 13 1 12 14
M  V30 14 1 12 15
M  V30 15 1 13 16
M  V30 16 1 13 17
M  V30 17 1 15 18
M  V30 18 1 16 19
M  V30 19 1 17 20
M  V30 20 1 8 10
M  V30 21 1 15 16
M  V30 22 1 2 21
M  V30 23 1 5 22
M  V30 24 1 7 23
M  V30 25 1 8 24
M  V30 26 1 9 25
M  V30 27 1 10 26
M  V30 28 1 12 27
M  V30 29 1 13 28
M  V30 30 1 14 29
M  V30 31 1 15 30
M  V30 32 1 16 31
M  V30 33 1 17 32
M  V30 34 1 17 33
M  V30 35 1 18 34
M  V30 36 1 19 35
M  V30 37 1 20 36
M  V30 END BOND
M  V30 BEGIN COLLECTION
M  V30 MDLV30/STEABS ATOMS=(5 9 12 13 15 16)
M  V30 END COLLECTION
M  V30 END CTAB
M  END
>  <Structure No>
4010

>  <LogS>
-1.1985

>  <MMFF94 Energy>
143.99

$$$$
Compound 4011
Actelion Java MolfileCreator 2.0

  0  0  0  0  0  0              0 V3000
M  V30 BEGIN CTAB
M  V30 COUNTS 20 20 0 0 0
M  V30 BEGIN ATOM
M  V30 1 O 3.7482 -1.1153 0.5575 0
M  V30 2 C 3.2796 -0.0044 0.192 0
M  V30 3 O 4.1566 1.0395 -0.0797 0 CHG=-1
M  V30 4 C 1.8185 0.1882 0.0534 0
M  V30 5 C 0.9269 -0.8633 0.3267 0
M  V30 6 C 1.3049 1.4282 -0.3534 0
M  V30 7 C -0.462 -0.6849 0.1991 0
M  V30 8 C -0.0715 1.6156 -0.4886 0
M  V30 9 C -0.9668 0.5678 -0.2221 0
M  V30 10 C -1.3852 -1.8377 0.497 0
M  V30 11 C -2.4468 0.8046 -0.3737 0
M  V30 12 H 1.3131 -1.8254 0.6414 0
M  V30 13 H 1.9669 2.2576 -0.569 0
M  V30 14 H -0.4377 2.5848 -0.8046 0
M  V30 15 H -1.9122 -2.1451 -0.4303 0
M  V30 16 H -2.1313 -1.5389 1.2628 0
M  V30 17 H -0.8315 -2.7175 0.888 0
M  V30 18 H -2.6607 1.8145 -0.7841 0
M  V30 19 H -2.9433 0.7212 0.6155 0
M  V30 20 H -2.882 0.0565 -1.0687 0
M  V30 END ATOM
M  V30 BEGIN BOND
M  V30 1 2 1 2
M  V30 2 1 2 3
M  V30 3 1 2 4
M  V30 4 2 4 5
M  V30 5 1 4 6
M  V30 6 1 5 7
M  V30 7 2 6 8
M  V30 8 2 7 9
M  V30 9 1 7 10
M  V30 10 1 9 11
M  V30 11 1 8 9
M  V30 12 1 5 12
M  V30 13 1 6 13
M  V30 14 1 8 14
M  V30 15 1 10 15
M  V30 16 1 10 16
M  V30 17 1 10 17
M  V30 18 1 11 18
M  V30 19 1 11 19
M  V30 20 1 11 20
M  V30 END BOND
M  V30 END CTAB
M  END
>  <Structure No>
4011

>  <LogS>
-3.0653

>  <MMFF94 Energy>
43.313

$$$$
Compound 4012
Actelion Java MolfileCreator 2.0

  0  0  0  0  0  0              0 V3000
M  V30 BEGIN CTAB
M  V30 COUNTS 18 18 0 0 0
M  V30 BEGIN ATOM
M  V30 1 O -2.7899 -2.0719 -0.6371 0
M  V30 2 N -2.7717 -0.8311 -0.4981 0 CHG=1
M  V30 3 O -3.9473 -0.1308 -0.6449 0 CHG=-1
M  V30 4 C -1.5449 -0.1443 -0.1889 0
M  V30 5 C -0.3396 -0.8571 -0.0408 0
M  V30 6 C -1.533 1.2529 -0.0336 0
M  V30 7 C 0.8549 -0.187 0.2685 0
M  V30 8 C -0.3423 1.9229 0.2581 0
M  V30 9 C 0.8484 1.2089 0.4034 0
M  V30 10 C 2.1433 -0.9535 0.3893 0
M  V30 11 O 2.7111 -1.1425 -0.8774 0
M  V30 12 H -0.3266 -1.933 -0.1653 0
M  V30 13 H -2.4429 1.8289 -0.1421 0
M  V30 14 H -0.3423 2.9997 0.3687 0
M  V30 15 H 1.7647 1.7437 0.6209 0
M  V30 16 H 2.858 -0.4252 1.0612 0
M  V30 17 H 1.9477 -1.9476 0.845 0
M  V30 18 H 3.1148 -0.2739 -1.1394 0
M  V30 END ATOM
M  V30 BEGIN BOND
M  V30 1 2 1 2
M  V30 2 1 2 3
M  V30 3 1 2 4
M  V30 4 2 4 5
M  V30 5 1 4 6
M  V30 6 1 5 7
M  V30 7 2 6 8
M  V30 8 2 7 9
M  V30 9 1 7 10
M  V30 10 1 10 11
M  V30 11 1 8 9
M  V30 12 1 5 12
M  V30 13 1 6 13
M  V30 14 1 8 14
M  V30 15 1 9 15
M  V30 16 1 10 16
M  V30 17 1 10 17
M  V30 18 1 11 18
M  V30 END BOND
M  V30 END CTAB
M  END
>  <Structure No>
4012

>  <LogS>
-2.4142

>  <MMFF94 Energy>
50.82

$$$$
Compound 4013
Actelion Java MolfileCreator 2.0

  0  0  0  0  0  0              0 V3000
M  V30 BEGIN CTAB
M  V30 COUNTS 15 15 0 0 0
M  V30 BEGIN ATOM
M  V30 1 O -3.0047 1.2985 -1.1361 0
M  V30 2 C -2.2265 0.3409 -1.3903 0
M  V30 3 O -2.558 -0.5437 -2.4102 0 CHG=-1
M  V30 4 C -0.9789 0.1593 -0.6163 0
M  V30 5 C -0.6388 1.052 0.417 0
M  V30 6 C -0.114 -0.9113 -0.9045 0
M  V30 7 C 0.5416 0.8758 1.1456 0
M  V30 8 C 1.0659 -1.0854 -0.1744 0
M  V30 9 C 1.3962 -0.1926 0.8516 0
M  V30 10 C 2.6112 -0.3729 1.6023 0
M  V30 11 N 3.5878 -0.518 2.2057 0
M  V30 12 H -1.2842 1.8861 0.6627 0
M  V30 13 H -0.3478 -1.615 -1.6933 0
M  V30 14 H 0.7875 1.573 1.9379 0
M  V30 15 H 1.7203 -1.9161 -0.4104 0
M  V30 END ATOM
M  V30 BEGIN BOND
M  V30 1 2 1 2
M  V30 2 1 2 3
M  V30 3 1 2 4
M  V30 4 2 4 5
M  V30 5 1 4 6
M  V30 6 1 5 7
M  V30 7 2 6 8
M  V30 8 2 7 9
M  V30 9 1 9 10
M  V30 10 3 10 11
M  V30 11 1 8 9
M  V30 12 1 5 12
M  V30 13 1 6 13
M  V30 14 1 7 14
M  V30 15 1 8 15
M  V30 END BOND
M  V30 END CTAB
M  END
>  <Structure No>
4013

>  <LogS>
-2.0885

>  <MMFF94 Energy>
MMFF94 error code 2

$$$$
Compound 4014
Actelion Java MolfileCreator 2.0

  0  0  0  0  0  0              0 V3000
M  V30 BEGIN CTAB
M  V30 COUNTS 18 18 0 0 0
M  V30 BEGIN ATOM
M  V30 1 O 3.5082 -1.434 -1.2746 0
M  V30 2 N 3.1021 -0.5658 -0.4743 0 CHG=1
M  V30 3 O 4.025 0.1334 0.2694 0 CHG=-1
M  V30 4 C 1.6947 -0.299 -0.3319 0
M  V30 5 C 1.2439 0.6786 0.5722 0
M  V30 6 C 0.748 -1.0131 -1.0892 0
M  V30 7 C -0.1223 0.9398 0.7128 0
M  V30 8 C -0.6179 -0.7508 -0.9474 0
M  V30 9 C -1.0609 0.2365 -0.0557 0
M  V30 10 C -2.5324 0.4922 0.1217 0
M  V30 11 O -3.0686 -0.4091 1.0508 0
M  V30 12 H 1.9468 1.24 1.1741 0
M  V30 13 H 1.0629 -1.7766 -1.7886 0
M  V30 14 H -0.448 1.691 1.4219 0
M  V30 15 H -1.3305 -1.318 -1.5336 0
M  V30 16 H -2.716 1.5417 0.4474 0
M  V30 17 H -3.0568 0.3591 -0.8485 0
M  V30 18 H -2.7859 -0.0928 1.9486 0
M  V30 END ATOM
M  V30 BEGIN BOND
M  V30 1 2 1 2
M  V30 2 1 2 3
M  V30 3 1 2 4
M  V30 4 2 4 5
M  V30 5 1 4 6
M  V30 6 1 5 7
M  V30 7 2 6 8
M  V30 8 2 7 9
M  V30 9 1 9 10
M  V30 10 1 10 11
M  V30 11 1 8 9
M  V30 12 1 5 12
M  V30 13 1 6 13
M  V30 14 1 7 14
M  V30 15 1 8 15
M  V30 16 1 10 16
M  V30 17 1 10 17
M  V30 18 1 11 18
M  V30 END BOND
M  V30 END CTAB
M  END
>  <Structure No>
4014

>  <LogS>
-1.8841

>  <MMFF94 Energy>
52.787

$$$$
Compound 4015
Actelion Java MolfileCreator 2.0

  0  0  0  0  0  0              0 V3000
M  V30 BEGIN CTAB
M  V30 COUNTS 22 22 0 0 0
M  V30 BEGIN ATOM
M  V30 1 O 4.4512 1.2702 -1.1113 0
M  V30 2 C 3.8525 0.1646 -1.0296 0
M  V30 3 O 4.5764 -1.0082 -1.2115 0 CHG=-1
M  V30 4 C 2.4015 0.1136 -0.7444 0
M  V30 5 C 1.665 1.2944 -0.559 0
M  V30 6 C 1.739 -1.1196 -0.6548 0
M  V30 7 C 0.2944 1.243 -0.2899 0
M  V30 8 C 0.3685 -1.1732 -0.3854 0
M  V30 9 C -0.3787 0.0077 -0.1981 0
M  V30 10 N -1.8026 -0.0468 0.0815 0
M  V30 11 C -2.6567 1.1226 -0.1609 0
M  V30 12 C -2.413 -1.2724 0.6119 0
M  V30 13 H 2.1482 2.2618 -0.6195 0
M  V30 14 H 2.2787 -2.0478 -0.7951 0
M  V30 15 H -0.2297 2.1772 -0.144 0
M  V30 16 H -0.1015 -2.1453 -0.3359 0
M  V30 17 H -2.4655 1.5255 -1.1781 0
M  V30 18 H -2.4487 1.9057 0.5978 0
M  V30 19 H -3.7346 0.8616 -0.1031 0
M  V30 20 H -3.4488 -1.0925 0.9695 0
M  V30 21 H -2.4498 -2.0489 -0.1804 0
M  V30 22 H -1.8224 -1.6453 1.4756 0
M  V30 END ATOM
M  V30 BEGIN BOND
M  V30 1 2 1 2
M  V30 2 1 2 3
M  V30 3 1 2 4
M  V30 4 2 4 5
M  V30 5 1 4 6
M  V30 6 1 5 7
M  V30 7 2 6 8
M  V30 8 2 7 9
M  V30 9 1 9 10
M  V30 10 1 10 11
M  V30 11 1 10 12
M  V30 12 1 8 9
M  V30 13 1 5 13
M  V30 14 1 6 14
M  V30 15 1 7 15
M  V30 16 1 8 16
M  V30 17 1 11 17
M  V30 18 1 11 18
M  V30 19 1 11 19
M  V30 20 1 12 20
M  V30 21 1 12 21
M  V30 22 1 12 22
M  V30 END BOND
M  V30 END CTAB
M  END
>  <Structure No>
4015

>  <LogS>
-3.3979

>  <MMFF94 Energy>
41.751

$$$$
Compound 4016
Actelion Java MolfileCreator 2.0

  0  0  0  0  0  0              0 V3000
M  V30 BEGIN CTAB
M  V30 COUNTS 17 17 0 0 0
M  V30 BEGIN ATOM
M  V30 1 O -2.5042 -1.408 1.1732 0
M  V30 2 C -1.6142 -0.5417 0.5425 0
M  V30 3 C -0.2298 -0.6926 0.7099 0
M  V30 4 C -2.1086 0.4863 -0.2669 0
M  V30 5 C 0.6603 0.1901 0.0766 0
M  V30 6 C -1.2266 1.3576 -0.9118 0
M  V30 7 C 0.1533 1.2082 -0.7465 0
M  V30 8 C 2.1453 0.0067 0.226 0
M  V30 9 O 2.6415 -0.7752 -0.8251 0
M  V30 10 H -2.1786 -2.1629 1.7654 0
M  V30 11 H 0.1503 -1.4947 1.3305 0
M  V30 12 H -3.1763 0.6066 -0.3996 0
M  V30 13 H -1.6128 2.1474 -1.5431 0
M  V30 14 H 0.8258 1.8848 -1.2589 0
M  V30 15 H 2.6505 0.9959 0.2045 0
M  V30 16 H 2.3901 -0.4599 1.2075 0
M  V30 17 H 2.3872 -1.7139 -0.6246 0
M  V30 END ATOM
M  V30 BEGIN BOND
M  V30 1 1 1 2
M  V30 2 2 2 3
M  V30 3 1 2 4
M  V30 4 1 3 5
M  V30 5 2 4 6
M  V30 6 2 5 7
M  V30 7 1 5 8
M  V30 8 1 8 9
M  V30 9 1 6 7
M  V30 10 1 1 10
M  V30 11 1 3 11
M  V30 12 1 4 12
M  V30 13 1 6 13
M  V30 14 1 7 14
M  V30 15 1 8 15
M  V30 16 1 8 16
M  V30 17 1 9 17
M  V30 END BOND
M  V30 END CTAB
M  END
>  <Structure No>
4016

>  <LogS>
-0.2678

>  <MMFF94 Energy>
7.3554

$$$$
Compound 4017
Actelion Java MolfileCreator 2.0

  0  0  0  0  0  0              0 V3000
M  V30 BEGIN CTAB
M  V30 COUNTS 20 20 0 0 0
M  V30 BEGIN ATOM
M  V30 1 O 1.9016 0.3959 -1.2674 0
M  V30 2 C 1.9563 0.3977 -0.0076 0
M  V30 3 N 0.7537 0.4131 0.7787 0
M  V30 4 C 3.2912 0.3938 0.6684 0
M  V30 5 C -0.5634 0.1983 0.2432 0
M  V30 6 C 3.6051 -0.9581 1.1374 0
M  V30 7 C -0.7906 -0.7094 -0.8083 0
M  V30 8 C -1.6577 0.8615 0.8214 0
M  V30 9 N 3.853 -2.026 1.5082 0
M  V30 10 C -2.0862 -0.9172 -1.2927 0
M  V30 11 C -2.9513 0.6516 0.3334 0
M  V30 12 C -3.165 -0.2339 -0.7256 0
M  V30 13 H 0.8358 0.6752 1.7873 0
M  V30 14 H 4.0818 0.7262 -0.0375 0
M  V30 15 H 3.2794 1.0886 1.5341 0
M  V30 16 H 0.0238 -1.2771 -1.2374 0
M  V30 17 H -1.5053 1.5488 1.6443 0
M  V30 18 H -2.255 -1.6157 -2.1022 0
M  V30 19 H -3.7885 1.1742 0.7784 0
M  V30 20 H -4.167 -0.3974 -1.1008 0
M  V30 END ATOM
M  V30 BEGIN BOND
M  V30 1 2 1 2
M  V30 2 1 2 3
M  V30 3 1 2 4
M  V30 4 1 3 5
M  V30 5 1 4 6
M  V30 6 2 5 7
M  V30 7 1 5 8
M  V30 8 3 6 9
M  V30 9 1 7 10
M  V30 10 2 8 11
M  V30 11 2 10 12
M  V30 12 1 11 12
M  V30 13 1 3 13
M  V30 14 1 4 14
M  V30 15 1 4 15
M  V30 16 1 7 16
M  V30 17 1 8 17
M  V30 18 1 10 18
M  V30 19 1 11 19
M  V30 20 1 12 20
M  V30 END BOND
M  V30 END CTAB
M  END
>  <Structure No>
4017

>  <LogS>
-2.7275

>  <MMFF94 Energy>
2.5397

$$$$
Compound 4018
Actelion Java MolfileCreator 2.0

  0  0  0  0  0  0              0 V3000
M  V30 BEGIN CTAB
M  V30 COUNTS 18 18 0 0 0
M  V30 BEGIN ATOM
M  V30 1 O 2.3195 -0.4795 2.5597 0
M  V30 2 C 2.4161 -0.1554 1.3468 0
M  V30 3 O 3.092 1.0064 0.9963 0 CHG=-1
M  V30 4 C 1.7614 -0.9875 0.2914 0
M  V30 5 C 0.3587 -0.5033 0.0473 0
M  V30 6 C 0.112 0.5093 -0.895 0
M  V30 7 C -0.7101 -1.0221 0.7968 0
M  V30 8 C -1.1923 0.9819 -1.1007 0
M  V30 9 C -2.0095 -0.55 0.5898 0
M  V30 10 O -1.4459 1.9814 -2.0375 0
M  V30 11 C -2.2505 0.448 -0.3581 0
M  V30 12 H 2.3564 -0.9294 -0.6455 0
M  V30 13 H 1.7524 -2.054 0.6059 0
M  V30 14 H 0.9307 0.9301 -1.4658 0
M  V30 15 H -0.5365 -1.7899 1.5406 0
M  V30 16 H -2.8302 -0.9561 1.1671 0
M  V30 17 H -0.7016 2.3896 -2.591 0
M  V30 18 H -3.2591 0.81 -0.513 0
M  V30 END ATOM
M  V30 BEGIN BOND
M  V30 1 2 1 2
M  V30 2 1 2 3
M  V30 3 1 2 4
M  V30 4 1 4 5
M  V30 5 2 5 6
M  V30 6 1 5 7
M  V30 7 1 6 8
M  V30 8 2 7 9
M  V30 9 1 8 10
M  V30 10 2 8 11
M  V30 11 1 9 11
M  V30 12 1 4 12
M  V30 13 1 4 13
M  V30 14 1 6 14
M  V30 15 1 7 15
M  V30 16 1 9 16
M  V30 17 1 10 17
M  V30 18 1 11 18
M  V30 END BOND
M  V30 END CTAB
M  END
>  <Structure No>
4018

>  <LogS>
0.8177

>  <MMFF94 Energy>
33.936

$$$$
Compound 4019
Actelion Java MolfileCreator 2.0

  0  0  0  0  0  0              0 V3000
M  V30 BEGIN CTAB
M  V30 COUNTS 50 49 0 0 0
M  V30 BEGIN ATOM
M  V30 1 N 0.3866 0.1546 0.6187 0 CHG=1
M  V30 2 C 0.0346 -1.2963 0.5607 0
M  V30 3 C -0.7773 1.0257 0.9337 0
M  V30 4 C 1.183 0.6754 -0.5266 0
M  V30 5 C -0.2884 -1.8552 -0.8482 0
M  V30 6 C -1.9026 1.0022 -0.1217 0
M  V30 7 C 2.6125 0.0922 -0.5913 0
M  V30 8 C -0.8894 -3.2691 -0.7901 0
M  V30 9 C -3.0042 2.0331 0.1752 0
M  V30 10 C 3.5793 0.7931 0.3796 0
M  V30 11 C -2.3847 -3.2546 -0.4375 0
M  V30 12 C -2.5973 3.4613 -0.2182 0
M  V30 13 C 4.9829 0.1677 0.3665 0
M  V30 14 C -2.9654 -4.6655 -0.4512 0
M  V30 15 C -3.747 4.4401 0.0032 0
M  V30 16 C 5.7495 0.4574 -0.9236 0
M  V30 17 H 0.9953 0.2527 1.4647 0
M  V30 18 H 0.8817 -1.8943 0.9668 0
M  V30 19 H -0.8109 -1.5039 1.2508 0
M  V30 20 H -1.2119 0.7234 1.9141 0
M  V30 21 H -0.4223 2.0689 1.079 0
M  V30 22 H 0.672 0.4765 -1.4907 0
M  V30 23 H 1.2669 1.7842 -0.4676 0
M  V30 24 H 0.6549 -1.9209 -1.4303 0
M  V30 25 H -0.9703 -1.1928 -1.4153 0
M  V30 26 H -1.4998 1.1795 -1.1403 0
M  V30 27 H -2.3823 0.0013 -0.1038 0
M  V30 28 H 2.6038 -0.9988 -0.3917 0
M  V30 29 H 2.9836 0.235 -1.628 0
M  V30 30 H -0.7673 -3.7386 -1.791 0
M  V30 31 H -0.329 -3.8903 -0.0571 0
M  V30 32 H -3.9073 1.7494 -0.4089 0
M  V30 33 H -3.2776 1.9974 1.2529 0
M  V30 34 H 3.189 0.7147 1.4155 0
M  V30 35 H 3.6493 1.8745 0.13 0
M  V30 36 H -2.9382 -2.6333 -1.1749 0
M  V30 37 H -2.5412 -2.8201 0.5716 0
M  V30 38 H -1.7303 3.7974 0.3875 0
M  V30 39 H -2.3077 3.4878 -1.2911 0
M  V30 40 H 5.5625 0.5895 1.2162 0
M  V30 41 H 4.9139 -0.9309 0.5207 0
M  V30 42 H -4.0446 -4.6261 -0.1925 0
M  V30 43 H -2.4445 -5.3038 0.2938 0
M  V30 44 H -2.8589 -5.1174 -1.4603 0
M  V30 45 H -3.4252 5.4632 -0.2843 0
M  V30 46 H -4.6222 4.1556 -0.6189 0
M  V30 47 H -4.0449 4.4491 1.0735 0
M  V30 48 H 6.7929 0.0917 -0.8219 0
M  V30 49 H 5.7765 1.5496 -1.1236 0
M  V30 50 H 5.2842 -0.0657 -1.7842 0
M  V30 END ATOM
M  V30 BEGIN BOND
M  V30 1 1 1 2
M  V30 2 1 1 3
M  V30 3 1 1 4
M  V30 4 1 2 5
M  V30 5 1 3 6
M  V30 6 1 4 7
M  V30 7 1 5 8
M  V30 8 1 6 9
M  V30 9 1 7 10
M  V30 10 1 8 11
M  V30 11 1 9 12
M  V30 12 1 10 13
M  V30 13 1 11 14
M  V30 14 1 12 15
M  V30 15 1 13 16
M  V30 16 1 1 17
M  V30 17 1 2 18
M  V30 18 1 2 19
M  V30 19 1 3 20
M  V30 20 1 3 21
M  V30 21 1 4 22
M  V30 22 1 4 23
M  V30 23 1 5 24
M  V30 24 1 5 25
M  V30 25 1 6 26
M  V30 26 1 6 27
M  V30 27 1 7 28
M  V30 28 1 7 29
M  V30 29 1 8 30
M  V30 30 1 8 31
M  V30 31 1 9 32
M  V30 32 1 9 33
M  V30 33 1 10 34
M  V30 34 1 10 35
M  V30 35 1 11 36
M  V30 36 1 11 37
M  V30 37 1 12 38
M  V30 38 1 12 39
M  V30 39 1 13 40
M  V30 40 1 13 41
M  V30 41 1 14 42
M  V30 42 1 14 43
M  V30 43 1 14 44
M  V30 44 1 15 45
M  V30 45 1 15 46
M  V30 46 1 15 47
M  V30 47 1 16 48
M  V30 48 1 16 49
M  V30 49 1 16 50
M  V30 END BOND
M  V30 END CTAB
M  END
>  <Structure No>
4019

>  <LogS>
-4.0326

>  <MMFF94 Energy>
5.4779

$$$$
Compound 4020
Actelion Java MolfileCreator 2.0

  0  0  0  0  0  0              0 V3000
M  V30 BEGIN CTAB
M  V30 COUNTS 17 17 0 0 0
M  V30 BEGIN ATOM
M  V30 1 S 4.8388 1.2886 0.6441 0
M  V30 2 C 3.7223 0.3827 -0.0832 0
M  V30 3 N 2.8398 -0.3331 -0.6582 0
M  V30 4 C 1.4305 -0.2242 -0.4041 0
M  V30 5 C 0.9025 0.697 0.5227 0
M  V30 6 C 0.5564 -1.0687 -1.0995 0
M  V30 7 C -0.477 0.768 0.7386 0
M  V30 8 C -0.823 -0.9973 -0.883 0
M  V30 9 C -1.3495 -0.0677 0.0259 0
M  V30 10 C -2.8258 -0.0184 0.2873 0
M  V30 11 H 1.5522 1.3581 1.0816 0
M  V30 12 H 0.9473 -1.787 -1.8094 0
M  V30 13 H -0.8648 1.4754 1.4615 0
M  V30 14 H -1.4799 -1.6664 -1.4248 0
M  V30 15 H -3.3946 -0.3038 -0.6231 0
M  V30 16 H -3.079 -0.7217 1.1079 0
M  V30 17 H -3.138 1.0068 0.5795 0
M  V30 END ATOM
M  V30 BEGIN BOND
M  V30 1 2 1 2
M  V30 2 2 2 3
M  V30 3 1 3 4
M  V30 4 2 4 5
M  V30 5 1 4 6
M  V30 6 1 5 7
M  V30 7 2 6 8
M  V30 8 2 7 9
M  V30 9 1 9 10
M  V30 10 1 8 9
M  V30 11 1 5 11
M  V30 12 1 6 12
M  V30 13 1 7 13
M  V30 14 1 8 14
M  V30 15 1 10 15
M  V30 16 1 10 16
M  V30 17 1 10 17
M  V30 END BOND
M  V30 END CTAB
M  END
>  <Structure No>
4020

>  <LogS>
-4.7213

>  <MMFF94 Energy>
13.95

$$$$
Compound 4021
Actelion Java MolfileCreator 2.0

  0  0  0  0  0  0              0 V3000
M  V30 BEGIN CTAB
M  V30 COUNTS 19 19 0 0 0
M  V30 BEGIN ATOM
M  V30 1 C 1.167 -0.1555 -0.0777 0
M  V30 2 C 0.4147 -1.3331 -0.2221 0
M  V30 3 C 0.4887 1.0775 0.0031 0
M  V30 4 C 2.6473 -0.259 -0.053 0
M  V30 5 C -0.9818 -1.2871 -0.2577 0
M  V30 6 C -0.9085 1.121 -0.0334 0
M  V30 7 C 3.4597 0.7052 0.382 0
M  V30 8 C -1.6526 -0.0616 -0.1451 0
M  V30 9 C -3.1496 -0.0086 -0.2244 0
M  V30 10 H 0.9095 -2.2933 -0.3039 0
M  V30 11 H 1.0252 2.0131 0.0701 0
M  V30 12 H 3.1015 -1.189 -0.3743 0
M  V30 13 H -1.5397 -2.2083 -0.373 0
M  V30 14 H -1.4102 2.0797 0.0202 0
M  V30 15 H 4.5299 0.5439 0.379 0
M  V30 16 H 3.0923 1.6442 0.7693 0
M  V30 17 H -3.5426 0.8517 0.358 0
M  V30 18 H -3.597 -0.9368 0.1906 0
M  V30 19 H -3.4595 0.1 -1.2847 0
M  V30 END ATOM
M  V30 BEGIN BOND
M  V30 1 2 1 2
M  V30 2 1 1 3
M  V30 3 1 1 4
M  V30 4 1 2 5
M  V30 5 2 3 6
M  V30 6 2 4 7
M  V30 7 2 5 8
M  V30 8 1 8 9
M  V30 9 1 6 8
M  V30 10 1 2 10
M  V30 11 1 3 11
M  V30 12 1 4 12
M  V30 13 1 5 13
M  V30 14 1 6 14
M  V30 15 1 7 15
M  V30 16 1 7 16
M  V30 17 1 9 17
M  V30 18 1 9 18
M  V30 19 1 9 19
M  V30 END BOND
M  V30 END CTAB
M  END
>  <Structure No>
4021

>  <LogS>
-3.1232

>  <MMFF94 Energy>
24.313

$$$$
Compound 4022
Actelion Java MolfileCreator 2.0

  0  0  0  0  0  0              0 V3000
M  V30 BEGIN CTAB
M  V30 COUNTS 17 17 0 0 0
M  V30 BEGIN ATOM
M  V30 1 O -3.3661 0.3127 0.1563 0
M  V30 2 C -1.9825 0.166 0.0902 0
M  V30 3 C -1.3448 -0.8991 0.7405 0
M  V30 4 C -1.2232 1.0937 -0.6304 0
M  V30 5 C 0.0447 -1.0362 0.6666 0
M  V30 6 C 0.1665 0.9586 -0.7055 0
M  V30 7 C 0.8083 -0.1152 -0.0682 0
M  V30 8 C 2.3059 -0.2402 -0.1188 0
M  V30 9 O 2.8881 0.5409 0.888 0
M  V30 10 H -3.9439 -0.3416 0.671 0
M  V30 11 H -1.9239 -1.6182 1.3056 0
M  V30 12 H -1.7102 1.9218 -1.1295 0
M  V30 13 H 0.5248 -1.8589 1.182 0
M  V30 14 H 0.7418 1.6899 -1.2597 0
M  V30 15 H 2.6184 -1.3044 -0.0152 0
M  V30 16 H 2.6793 0.1112 -1.1042 0
M  V30 17 H 2.7583 0.0479 1.7402 0
M  V30 END ATOM
M  V30 BEGIN BOND
M  V30 1 1 1 2
M  V30 2 2 2 3
M  V30 3 1 2 4
M  V30 4 1 3 5
M  V30 5 2 4 6
M  V30 6 2 5 7
M  V30 7 1 7 8
M  V30 8 1 8 9
M  V30 9 1 6 7
M  V30 10 1 1 10
M  V30 11 1 3 11
M  V30 12 1 4 12
M  V30 13 1 5 13
M  V30 14 1 6 14
M  V30 15 1 8 15
M  V30 16 1 8 16
M  V30 17 1 9 17
M  V30 END BOND
M  V30 END CTAB
M  END
>  <Structure No>
4022

>  <LogS>
-1.2678

>  <MMFF94 Energy>
9.0577

$$$$
Compound 4023
Actelion Java MolfileCreator 2.0

  0  0  0  0  0  0              0 V3000
M  V30 BEGIN CTAB
M  V30 COUNTS 16 16 0 0 0
M  V30 BEGIN ATOM
M  V30 1 O 3.5872 -0.5573 -0.4777 0
M  V30 2 C 2.8344 0.1178 0.2736 0
M  V30 3 C 1.3675 0.0565 0.136 0
M  V30 4 C 0.7623 -0.7565 -0.837 0
M  V30 5 C 0.5585 0.8216 0.9894 0
M  V30 6 C -0.6305 -0.8019 -0.9525 0
M  V30 7 C -0.8343 0.7763 0.8738 0
M  V30 8 C -1.4395 -0.0367 -0.0991 0
M  V30 9 C -2.9064 -0.0981 -0.2367 0
M  V30 10 O -3.6593 0.5771 0.5145 0
M  V30 11 H 3.2808 0.7508 1.03 0
M  V30 12 H 1.3639 -1.3568 -1.508 0
M  V30 13 H 1.0047 1.4552 1.7466 0
M  V30 14 H -1.0768 -1.4354 -1.7096 0
M  V30 15 H -1.436 1.3767 1.5449 0
M  V30 16 H -3.3529 -0.7309 -0.9931 0
M  V30 END ATOM
M  V30 BEGIN BOND
M  V30 1 2 1 2
M  V30 2 1 2 3
M  V30 3 2 3 4
M  V30 4 1 3 5
M  V30 5 1 4 6
M  V30 6 2 5 7
M  V30 7 2 6 8
M  V30 8 1 8 9
M  V30 9 2 9 10
M  V30 10 1 7 8
M  V30 11 1 2 11
M  V30 12 1 4 12
M  V30 13 1 5 13
M  V30 14 1 6 14
M  V30 15 1 7 15
M  V30 16 1 9 16
M  V30 END BOND
M  V30 END CTAB
M  END
>  <Structure No>
4023

>  <LogS>
-2.8265

>  <MMFF94 Energy>
46.417

$$$$
Compound 4024
Actelion Java MolfileCreator 2.0

  0  0  0  0  0  0              0 V3000
M  V30 BEGIN CTAB
M  V30 COUNTS 17 16 0 0 0
M  V30 BEGIN ATOM
M  V30 1 O 1.4662 -1.3118 -1.1574 0
M  V30 2 C 0.9897 -0.5758 -0.2504 0
M  V30 3 O 1.7753 0.408 0.3566 0
M  V30 4 C -0.444 -0.7226 0.1491 0
M  V30 5 C 3.1379 0.6218 0.0092 0
M  V30 6 C -1.3277 0.2146 -0.6782 0
M  V30 7 C -2.7947 0.0827 -0.2799 0
M  V30 8 H -0.7644 -1.7768 -0.0017 0
M  V30 9 H -0.5449 -0.4802 1.2292 0
M  V30 10 H 3.729 -0.2974 0.206 0
M  V30 11 H 3.5452 1.4501 0.6245 0
M  V30 12 H 3.2179 0.8976 -1.0635 0
M  V30 13 H -1.0059 1.2678 -0.5227 0
M  V30 14 H -1.2247 -0.0293 -1.7583 0
M  V30 15 H -3.4103 0.7725 -0.8948 0
M  V30 16 H -2.929 0.346 0.791 0
M  V30 17 H -3.1487 -0.9564 -0.4496 0
M  V30 END ATOM
M  V30 BEGIN BOND
M  V30 1 2 1 2
M  V30 2 1 2 3
M  V30 3 1 2 4
M  V30 4 1 3 5
M  V30 5 1 4 6
M  V30 6 1 6 7
M  V30 7 1 4 8
M  V30 8 1 4 9
M  V30 9 1 5 10
M  V30 10 1 5 11
M  V30 11 1 5 12
M  V30 12 1 6 13
M  V30 13 1 6 14
M  V30 14 1 7 15
M  V30 15 1 7 16
M  V30 16 1 7 17
M  V30 END BOND
M  V30 END CTAB
M  END
>  <Structure No>
4024

>  <LogS>
-0.8331

>  <MMFF94 Energy>
-10.381

$$$$
Compound 4025
Actelion Java MolfileCreator 2.0

  0  0  0  0  0  0              0 V3000
M  V30 BEGIN CTAB
M  V30 COUNTS 23 22 0 0 0
M  V30 BEGIN ATOM
M  V30 1 O -3.0565 -1.018 -0.9397 0
M  V30 2 C -2.9689 -0.1753 -0.0054 0
M  V30 3 O -1.7238 0.1834 0.5239 0
M  V30 4 C -4.2037 0.4761 0.5174 0
M  V30 5 C -0.4821 -0.336 0.0457 0 CFG=2
M  V30 6 C 0.587 -0.112 1.1233 0
M  V30 7 C -0.1069 0.3476 -1.2736 0
M  V30 8 O 1.8036 -0.7815 0.79 0
M  V30 9 C 2.8879 -0.1594 0.1599 0
M  V30 10 O 2.8529 1.0673 -0.13 0
M  V30 11 C 4.0821 -0.97 -0.2125 0
M  V30 12 H -4.4965 1.3078 -0.1565 0
M  V30 13 H -4.0183 0.8801 1.5349 0
M  V30 14 H -5.0309 -0.2625 0.5702 0
M  V30 15 H -0.5789 -1.432 -0.1235 0
M  V30 16 H 0.2138 -0.5434 2.0765 0
M  V30 17 H 0.7558 0.9731 1.3004 0
M  V30 18 H 0.0646 1.4335 -1.1135 0
M  V30 19 H -0.9237 0.2257 -2.0149 0
M  V30 20 H 0.8075 -0.1114 -1.7028 0
M  V30 21 H 5.0075 -0.3724 -0.0721 0
M  V30 22 H 4.1399 -1.8761 0.4263 0
M  V30 23 H 4.0017 -1.2784 -1.2755 0
M  V30 END ATOM
M  V30 BEGIN BOND
M  V30 1 2 1 2
M  V30 2 1 2 3
M  V30 3 1 2 4
M  V30 4 1 3 5
M  V30 5 1 5 6
M  V30 6 1 5 7
M  V30 7 1 6 8
M  V30 8 1 8 9
M  V30 9 2 9 10
M  V30 10 1 9 11
M  V30 11 1 4 12
M  V30 12 1 4 13
M  V30 13 1 4 14
M  V30 14 1 5 15
M  V30 15 1 6 16
M  V30 16 1 6 17
M  V30 17 1 7 18
M  V30 18 1 7 19
M  V30 19 1 7 20
M  V30 20 1 11 21
M  V30 21 1 11 22
M  V30 22 1 11 23
M  V30 END BOND
M  V30 BEGIN COLLECTION
M  V30 MDLV30/STEABS ATOMS=(1 5)
M  V30 END COLLECTION
M  V30 END CTAB
M  END
>  <Structure No>
4025

>  <LogS>
-0.2046

>  <MMFF94 Energy>
-9.7954

$$$$
Compound 4026
Actelion Java MolfileCreator 2.0

  0  0  0  0  0  0              0 V3000
M  V30 BEGIN CTAB
M  V30 COUNTS 58 57 0 0 0
M  V30 BEGIN ATOM
M  V30 1 O 5.2634 -1.4904 1.4904 0
M  V30 2 C 4.291 -1.4421 0.6874 0
M  V30 3 O 4.4416 -0.8896 -0.5892 0
M  V30 4 C 2.9457 -1.9284 1.1212 0
M  V30 5 C 5.6483 -0.2788 -1.0404 0
M  V30 6 C 2.1644 -0.791 1.7907 0
M  V30 7 C 5.7958 1.1204 -0.4401 0
M  V30 8 C 0.7919 -1.241 2.3215 0
M  V30 9 O 6.9356 1.7632 -0.9789 0
M  V30 10 C -0.1933 -1.7445 1.246 0
M  V30 11 C 8.0348 1.6401 -0.0995 0
M  V30 12 C -0.4434 -0.7766 0.0743 0
M  V30 13 C 9.2786 2.1979 -0.7734 0
M  V30 14 C -1.0656 0.5567 0.5229 0
M  V30 15 C -1.3042 1.5287 -0.6485 0
M  V30 16 C -2.3645 1.0631 -1.6602 0
M  V30 17 C -3.6956 0.8395 -1.0127 0
M  V30 18 O -4.4168 1.8287 -0.7067 0
M  V30 19 O -4.0995 -0.4658 -0.7081 0
M  V30 20 C -5.3331 -0.7778 -0.0638 0
M  V30 21 C -6.5003 -0.6496 -1.0389 0
M  V30 22 O -7.6922 -1.0269 -0.3818 0
M  V30 23 C -8.8144 -0.7894 -1.211 0
M  V30 24 C -9.4534 0.551 -0.8628 0
M  V30 25 H 3.0671 -2.7753 1.8317 0
M  V30 26 H 2.4007 -2.2965 0.2268 0
M  V30 27 H 5.607 -0.1931 -2.1478 0
M  V30 28 H 6.5219 -0.915 -0.7783 0
M  V30 29 H 2.046 0.061 1.0874 0
M  V30 30 H 2.7546 -0.4149 2.6557 0
M  V30 31 H 4.9022 1.7158 -0.7243 0
M  V30 32 H 5.7958 1.0693 0.6742 0
M  V30 33 H 0.945 -2.0561 3.063 0
M  V30 34 H 0.3296 -0.398 2.8783 0
M  V30 35 H -1.1648 -1.9647 1.7393 0
M  V30 36 H 0.174 -2.7093 0.8377 0
M  V30 37 H 7.8497 2.2217 0.8323 0
M  V30 38 H 8.228 0.5736 0.1594 0
M  V30 39 H 0.4986 -0.593 -0.484 0
M  V30 40 H -1.1405 -1.2872 -0.6234 0
M  V30 41 H 9.1228 3.2666 -1.0334 0
M  V30 42 H 9.4974 1.6251 -1.6997 0
M  V30 43 H 10.1471 2.1167 -0.0853 0
M  V30 44 H -0.375 1.0636 1.2296 0
M  V30 45 H -2.0164 0.3679 1.0667 0
M  V30 46 H -1.6191 2.5106 -0.2315 0
M  V30 47 H -0.3454 1.6971 -1.1853 0
M  V30 48 H -2.4758 1.843 -2.4448 0
M  V30 49 H -2.0333 0.1366 -2.1745 0
M  V30 50 H -5.4865 -0.1146 0.8171 0
M  V30 51 H -5.2822 -1.827 0.3 0
M  V30 52 H -6.3107 -1.322 -1.9061 0
M  V30 53 H -6.5574 0.4032 -1.3952 0
M  V30 54 H -9.5596 -1.5889 -1.0146 0
M  V30 55 H -8.5856 -0.8317 -2.303 0
M  V30 56 H -10.3935 0.6811 -1.4405 0
M  V30 57 H -8.7635 1.3836 -1.112 0
M  V30 58 H -9.6915 0.5881 0.2216 0
M  V30 END ATOM
M  V30 BEGIN BOND
M  V30 1 2 1 2
M  V30 2 1 2 3
M  V30 3 1 2 4
M  V30 4 1 3 5
M  V30 5 1 4 6
M  V30 6 1 5 7
M  V30 7 1 6 8
M  V30 8 1 7 9
M  V30 9 1 8 10
M  V30 10 1 9 11
M  V30 11 1 10 12
M  V30 12 1 11 13
M  V30 13 1 12 14
M  V30 14 1 14 15
M  V30 15 1 15 16
M  V30 16 1 16 17
M  V30 17 2 17 18
M  V30 18 1 17 19
M  V30 19 1 19 20
M  V30 20 1 20 21
M  V30 21 1 21 22
M  V30 22 1 22 23
M  V30 23 1 23 24
M  V30 24 1 4 25
M  V30 25 1 4 26
M  V30 26 1 5 27
M  V30 27 1 5 28
M  V30 28 1 6 29
M  V30 29 1 6 30
M  V30 30 1 7 31
M  V30 31 1 7 32
M  V30 32 1 8 33
M  V30 33 1 8 34
M  V30 34 1 10 35
M  V30 35 1 10 36
M  V30 36 1 11 37
M  V30 37 1 11 38
M  V30 38 1 12 39
M  V30 39 1 12 40
M  V30 40 1 13 41
M  V30 41 1 13 42
M  V30 42 1 13 43
M  V30 43 1 14 44
M  V30 44 1 14 45
M  V30 45 1 15 46
M  V30 46 1 15 47
M  V30 47 1 16 48
M  V30 48 1 16 49
M  V30 49 1 20 50
M  V30 50 1 20 51
M  V30 51 1 21 52
M  V30 52 1 21 53
M  V30 53 1 23 54
M  V30 54 1 23 55
M  V30 55 1 24 56
M  V30 56 1 24 57
M  V30 57 1 24 58
M  V30 END BOND
M  V30 END CTAB
M  END
>  <Structure No>
4026

>  <LogS>
-3.1972

>  <MMFF94 Energy>
14.189

$$$$
Compound 4027
Actelion Java MolfileCreator 2.0

  0  0  0  0  0  0              0 V3000
M  V30 BEGIN CTAB
M  V30 COUNTS 41 40 0 0 0
M  V30 BEGIN ATOM
M  V30 1 O 2.8996 -0.548 1.8801 0
M  V30 2 C 3.3968 -1.2605 0.9658 0
M  V30 3 O 4.7445 -1.1342 0.6119 0
M  V30 4 C 2.5315 -2.2349 0.2292 0
M  V30 5 C 5.6095 -0.1443 1.1639 0
M  V30 6 C 2.2913 -1.8002 -1.2253 0
M  V30 7 C 5.3081 1.2244 0.5645 0
M  V30 8 C 1.6087 -0.4276 -1.3726 0
M  V30 9 C 0.1783 -0.4108 -0.814 0
M  V30 10 C -0.5178 0.9209 -1.1318 0
M  V30 11 C -1.8954 1.0438 -0.4622 0
M  V30 12 C -2.9419 0.1143 -1.0895 0
M  V30 13 C -4.2853 0.362 -0.4812 0
M  V30 14 O -5.0826 1.1702 -1.031 0
M  V30 15 O -4.6254 -0.2782 0.7156 0
M  V30 16 C -5.8415 -0.0327 1.4188 0
M  V30 17 C -5.7758 1.2996 2.1561 0
M  V30 18 H 3.0417 -3.2215 0.2253 0
M  V30 19 H 1.5646 -2.373 0.758 0
M  V30 20 H 5.5072 -0.1129 2.2704 0
M  V30 21 H 6.6583 -0.4168 0.922 0
M  V30 22 H 3.2686 -1.7667 -1.7549 0
M  V30 23 H 1.6736 -2.5725 -1.733 0
M  V30 24 H 6.0274 1.972 0.9599 0
M  V30 25 H 4.2789 1.5452 0.8291 0
M  V30 26 H 5.4025 1.1826 -0.541 0
M  V30 27 H 1.574 -0.1813 -2.4564 0
M  V30 28 H 2.2185 0.3573 -0.8751 0
M  V30 29 H -0.395 -1.2489 -1.2636 0
M  V30 30 H 0.2087 -0.5467 0.2879 0
M  V30 31 H -0.6224 1.0412 -2.2324 0
M  V30 32 H 0.118 1.755 -0.7611 0
M  V30 33 H -2.2384 2.0962 -0.5739 0
M  V30 34 H -1.8058 0.8336 0.6265 0
M  V30 35 H -2.668 -0.9468 -0.9149 0
M  V30 36 H -2.9947 0.2858 -2.1869 0
M  V30 37 H -6.7043 -0.0445 0.7178 0
M  V30 38 H -5.99 -0.8442 2.1619 0
M  V30 39 H -5.6716 2.1369 1.4351 0
M  V30 40 H -4.9083 1.3062 2.8494 0
M  V30 41 H -6.7067 1.4481 2.7427 0
M  V30 END ATOM
M  V30 BEGIN BOND
M  V30 1 2 1 2
M  V30 2 1 2 3
M  V30 3 1 2 4
M  V30 4 1 3 5
M  V30 5 1 4 6
M  V30 6 1 5 7
M  V30 7 1 6 8
M  V30 8 1 8 9
M  V30 9 1 9 10
M  V30 10 1 10 11
M  V30 11 1 11 12
M  V30 12 1 12 13
M  V30 13 2 13 14
M  V30 14 1 13 15
M  V30 15 1 15 16
M  V30 16 1 16 17
M  V30 17 1 4 18
M  V30 18 1 4 19
M  V30 19 1 5 20
M  V30 20 1 5 21
M  V30 21 1 6 22
M  V30 22 1 6 23
M  V30 23 1 7 24
M  V30 24 1 7 25
M  V30 25 1 7 26
M  V30 26 1 8 27
M  V30 27 1 8 28
M  V30 28 1 9 29
M  V30 29 1 9 30
M  V30 30 1 10 31
M  V30 31 1 10 32
M  V30 32 1 11 33
M  V30 33 1 11 34
M  V30 34 1 12 35
M  V30 35 1 12 36
M  V30 36 1 16 37
M  V30 37 1 16 38
M  V30 38 1 17 39
M  V30 39 1 17 40
M  V30 40 1 17 41
M  V30 END BOND
M  V30 END CTAB
M  END
>  <Structure No>
4027

>  <LogS>
-2.99

>  <MMFF94 Energy>
-19.458

$$$$
Compound 4028
Actelion Java MolfileCreator 2.0

  0  0  0  0  0  0              0 V3000
M  V30 BEGIN CTAB
M  V30 COUNTS 20 19 0 0 0
M  V30 BEGIN ATOM
M  V30 1 O 1.7799 -0.5414 -1.3927 0
M  V30 2 C 1.3835 -0.6683 -0.2017 0
M  V30 3 O 2.0344 -0.0035 0.8414 0
M  V30 4 C 0.1844 -1.5141 0.0982 0
M  V30 5 C 3.1616 0.8372 0.628 0
M  V30 6 C -1.0525 -0.6573 0.397 0
M  V30 7 C -1.5533 0.0921 -0.846 0
M  V30 8 C -2.8177 0.8882 -0.536 0
M  V30 9 H 0.4105 -2.1404 0.9877 0
M  V30 10 H -0.0239 -2.2021 -0.7503 0
M  V30 11 H 2.886 1.6789 -0.0422 0
M  V30 12 H 3.9913 0.2534 0.1762 0
M  V30 13 H 3.4991 1.2484 1.6013 0
M  V30 14 H -0.8188 0.0675 1.2083 0
M  V30 15 H -1.8595 -1.3287 0.7643 0
M  V30 16 H -0.7711 0.7945 -1.2062 0
M  V30 17 H -1.7761 -0.634 -1.6578 0
M  V30 18 H -3.6302 0.2083 -0.2019 0
M  V30 19 H -2.6161 1.6379 0.2586 0
M  V30 20 H -3.1548 1.4215 -1.4498 0
M  V30 END ATOM
M  V30 BEGIN BOND
M  V30 1 2 1 2
M  V30 2 1 2 3
M  V30 3 1 2 4
M  V30 4 1 3 5
M  V30 5 1 4 6
M  V30 6 1 6 7
M  V30 7 1 7 8
M  V30 8 1 4 9
M  V30 9 1 4 10
M  V30 10 1 5 11
M  V30 11 1 5 12
M  V30 12 1 5 13
M  V30 13 1 6 14
M  V30 14 1 6 15
M  V30 15 1 7 16
M  V30 16 1 7 17
M  V30 17 1 8 18
M  V30 18 1 8 19
M  V30 19 1 8 20
M  V30 END BOND
M  V30 END CTAB
M  END
>  <Structure No>
4028

>  <LogS>
-1.3606

>  <MMFF94 Energy>
-10.628

$$$$
Compound 4029
Actelion Java MolfileCreator 2.0

  0  0  0  0  0  0              0 V3000
M  V30 BEGIN CTAB
M  V30 COUNTS 30 29 0 0 0
M  V30 BEGIN ATOM
M  V30 1 O 2.3945 0.3859 -1.6989 0
M  V30 2 C 2.3445 0.6478 -0.3184 0 CFG=1
M  V30 3 C 0.8742 0.7566 0.1323 0
M  V30 4 C 3.114 -0.4376 0.461 0
M  V30 5 C 0.0434 -0.5066 -0.166 0
M  V30 6 C 4.6225 -0.3348 0.2432 0
M  V30 7 C -1.4263 -0.3596 0.2625 0
M  V30 8 C -2.2471 0.4881 -0.725 0
M  V30 9 C -3.7088 0.6573 -0.2814 0
M  V30 10 C -4.5262 -0.6259 -0.4296 0
M  V30 11 H 3.2156 0.819 -2.0501 0
M  V30 12 H 2.8122 1.6384 -0.1006 0
M  V30 13 H 0.8402 0.9731 1.2228 0
M  V30 14 H 0.4271 1.6276 -0.3907 0
M  V30 15 H 2.7806 -1.448 0.1412 0
M  V30 16 H 2.9117 -0.3316 1.5493 0
M  V30 17 H 0.4712 -1.3604 0.4006 0
M  V30 18 H 0.0953 -0.7594 -1.2472 0
M  V30 19 H 5.138 -1.1061 0.8533 0
M  V30 20 H 4.875 -0.5063 -0.8242 0
M  V30 21 H 4.9919 0.6658 0.5536 0
M  V30 22 H -1.8639 -1.379 0.3122 0
M  V30 23 H -1.481 0.0802 1.2826 0
M  V30 24 H -1.8023 1.5021 -0.7992 0
M  V30 25 H -2.2127 0.0312 -1.7382 0
M  V30 26 H -4.1785 1.4415 -0.9141 0
M  V30 27 H -3.7515 1.0073 0.7729 0
M  V30 28 H -5.5939 -0.4091 -0.2148 0
M  V30 29 H -4.1815 -1.3984 0.288 0
M  V30 30 H -4.4482 -1.0198 -1.4651 0
M  V30 END ATOM
M  V30 BEGIN BOND
M  V30 1 1 1 2
M  V30 2 1 2 3
M  V30 3 1 2 4
M  V30 4 1 3 5
M  V30 5 1 4 6
M  V30 6 1 5 7
M  V30 7 1 7 8
M  V30 8 1 8 9
M  V30 9 1 9 10
M  V30 10 1 1 11
M  V30 11 1 2 12
M  V30 12 1 3 13
M  V30 13 1 3 14
M  V30 14 1 4 15
M  V30 15 1 4 16
M  V30 16 1 5 17
M  V30 17 1 5 18
M  V30 18 1 6 19
M  V30 19 1 6 20
M  V30 20 1 6 21
M  V30 21 1 7 22
M  V30 22 1 7 23
M  V30 23 1 8 24
M  V30 24 1 8 25
M  V30 25 1 9 26
M  V30 26 1 9 27
M  V30 27 1 10 28
M  V30 28 1 10 29
M  V30 29 1 10 30
M  V30 END BOND
M  V30 BEGIN COLLECTION
M  V30 MDLV30/STEABS ATOMS=(1 2)
M  V30 END COLLECTION
M  V30 END CTAB
M  END
>  <Structure No>
4029

>  <LogS>
-2.6608

>  <MMFF94 Energy>
0.26726

$$$$
Compound 4030
Actelion Java MolfileCreator 2.0

  0  0  0  0  0  0              0 V3000
M  V30 BEGIN CTAB
M  V30 COUNTS 21 20 0 0 0
M  V30 BEGIN ATOM
M  V30 1 O 2.229 1.2293 -0.6145 0
M  V30 2 C 2.0367 -0.0407 -0.0525 0
M  V30 3 C 0.7591 -0.0869 0.8081 0
M  V30 4 C -0.5949 -0.11 0.0331 0
M  V30 5 C -0.7318 -1.3977 -0.808 0
M  V30 6 C -1.7385 -0.0845 1.07 0
M  V30 7 C -0.7426 1.1214 -0.8843 0
M  V30 8 H 2.5297 1.8248 0.1208 0
M  V30 9 H 2.0031 -0.7963 -0.8614 0
M  V30 10 H 2.9121 -0.3003 0.5854 0
M  V30 11 H 0.7764 0.7821 1.503 0
M  V30 12 H 0.8181 -0.9963 1.4465 0
M  V30 13 H -0.0136 -1.41 -1.6533 0
M  V30 14 H -1.7518 -1.4722 -1.2437 0
M  V30 15 H -0.5563 -2.2975 -0.1797 0
M  V30 16 H -2.7306 -0.1092 0.5688 0
M  V30 17 H -1.6729 -0.9625 1.7486 0
M  V30 18 H -1.6882 0.8382 1.688 0
M  V30 19 H -0.562 2.0582 -0.3143 0
M  V30 20 H -0.0298 1.0757 -1.7341 0
M  V30 21 H -1.7661 1.1673 -1.3158 0
M  V30 END ATOM
M  V30 BEGIN BOND
M  V30 1 1 1 2
M  V30 2 1 2 3
M  V30 3 1 3 4
M  V30 4 1 4 5
M  V30 5 1 4 6
M  V30 6 1 4 7
M  V30 7 1 1 8
M  V30 8 1 2 9
M  V30 9 1 2 10
M  V30 10 1 3 11
M  V30 11 1 3 12
M  V30 12 1 5 13
M  V30 13 1 5 14
M  V30 14 1 5 15
M  V30 15 1 6 16
M  V30 16 1 6 17
M  V30 17 1 6 18
M  V30 18 1 7 19
M  V30 19 1 7 20
M  V30 20 1 7 21
M  V30 END BOND
M  V30 END CTAB
M  END
>  <Structure No>
4030

>  <LogS>
-1.1308

>  <MMFF94 Energy>
14.714

$$$$
Compound 4031
Actelion Java MolfileCreator 2.0

  0  0  0  0  0  0              0 V3000
M  V30 BEGIN CTAB
M  V30 COUNTS 24 23 0 0 0
M  V30 BEGIN ATOM
M  V30 1 O -1.0784 -1.3097 1.1555 0
M  V30 2 C -1.2582 -0.2074 0.2988 0
M  V30 3 C 0.039 0.6569 0.2231 0
M  V30 4 C -1.6613 -0.7351 -1.0892 0
M  V30 5 C -2.4102 0.6623 0.8438 0
M  V30 6 C 1.2737 0.004 -0.4548 0
M  V30 7 C 2.4152 1.0274 -0.5389 0
M  V30 8 C 1.7616 -1.2514 0.2831 0
M  V30 9 H -0.821 -0.9642 2.0507 0
M  V30 10 H -0.2019 1.5872 -0.339 0
M  V30 11 H 0.3215 0.9776 1.251 0
M  V30 12 H -2.6568 -1.2271 -1.0435 0
M  V30 13 H -0.938 -1.4967 -1.4479 0
M  V30 14 H -1.7103 0.0945 -1.8272 0
M  V30 15 H -3.3319 0.0533 0.9651 0
M  V30 16 H -2.631 1.5041 0.1521 0
M  V30 17 H -2.1442 1.0852 1.8366 0
M  V30 18 H 1.0186 -0.2768 -1.4988 0
M  V30 19 H 2.7367 1.341 0.4779 0
M  V30 20 H 2.0873 1.9259 -1.1043 0
M  V30 21 H 3.2871 0.5909 -1.0716 0
M  V30 22 H 2.7347 -1.5915 -0.1313 0
M  V30 23 H 1.0462 -2.0874 0.1463 0
M  V30 24 H 1.89 -1.0458 1.3675 0
M  V30 END ATOM
M  V30 BEGIN BOND
M  V30 1 1 1 2
M  V30 2 1 2 3
M  V30 3 1 2 4
M  V30 4 1 2 5
M  V30 5 1 3 6
M  V30 6 1 6 7
M  V30 7 1 6 8
M  V30 8 1 1 9
M  V30 9 1 3 10
M  V30 10 1 3 11
M  V30 11 1 4 12
M  V30 12 1 4 13
M  V30 13 1 4 14
M  V30 14 1 5 15
M  V30 15 1 5 16
M  V30 16 1 5 17
M  V30 17 1 6 18
M  V30 18 1 7 19
M  V30 19 1 7 20
M  V30 20 1 7 21
M  V30 21 1 8 22
M  V30 22 1 8 23
M  V30 23 1 8 24
M  V30 END BOND
M  V30 END CTAB
M  END
>  <Structure No>
4031

>  <LogS>
-0.9307

>  <MMFF94 Energy>
15.291

$$$$
Compound 4032
Actelion Java MolfileCreator 2.0

  0  0  0  0  0  0              0 V3000
M  V30 BEGIN CTAB
M  V30 COUNTS 23 22 0 0 0
M  V30 BEGIN ATOM
M  V30 1 O 1.7739 -0.3083 1.9283 0
M  V30 2 C 1.9609 -0.0513 0.7096 0
M  V30 3 N 0.8725 -0.0883 -0.2302 0
M  V30 4 N 3.2736 0.2845 0.2619 0
M  V30 5 C -0.5265 -0.4281 0.1013 0
M  V30 6 C -1.1078 0.5549 1.1588 0
M  V30 7 C -1.3782 -0.3743 -1.1877 0
M  V30 8 C -0.5954 -1.8695 0.6475 0
M  V30 9 C -0.9608 2.0336 0.786 0
M  V30 10 H 1.1077 0.1459 -1.2218 0
M  V30 11 H 3.4537 0.5034 -0.7426 0
M  V30 12 H 4.0694 0.3154 0.9372 0
M  V30 13 H -2.1874 0.3385 1.3168 0
M  V30 14 H -0.6137 0.3991 2.1406 0
M  V30 15 H -1.2898 0.614 -1.6845 0
M  V30 16 H -2.4503 -0.5641 -0.9645 0
M  V30 17 H -1.0317 -1.1419 -1.913 0
M  V30 18 H -1.652 -2.1807 0.7983 0
M  V30 19 H -0.078 -1.9619 1.6239 0
M  V30 20 H -0.1186 -2.5762 -0.0653 0
M  V30 21 H -1.3299 2.6607 1.6247 0
M  V30 22 H -1.5638 2.2785 -0.1118 0
M  V30 23 H 0.1022 2.2934 0.6021 0
M  V30 END ATOM
M  V30 BEGIN BOND
M  V30 1 2 1 2
M  V30 2 1 2 3
M  V30 3 1 2 4
M  V30 4 1 3 5
M  V30 5 1 5 6
M  V30 6 1 5 7
M  V30 7 1 5 8
M  V30 8 1 6 9
M  V30 9 1 3 10
M  V30 10 1 4 11
M  V30 11 1 4 12
M  V30 12 1 6 13
M  V30 13 1 6 14
M  V30 14 1 7 15
M  V30 15 1 7 16
M  V30 16 1 7 17
M  V30 17 1 8 18
M  V30 18 1 8 19
M  V30 19 1 8 20
M  V30 20 1 9 21
M  V30 21 1 9 22
M  V30 22 1 9 23
M  V30 END BOND
M  V30 END CTAB
M  END
>  <Structure No>
4032

>  <LogS>
-1.0142

>  <MMFF94 Energy>
-92.5

$$$$
Compound 4033
Actelion Java MolfileCreator 2.0

  0  0  0  0  0  0              0 V3000
M  V30 BEGIN CTAB
M  V30 COUNTS 24 23 0 0 0
M  V30 BEGIN ATOM
M  V30 1 O -2.618 -0.8464 -1.0773 0
M  V30 2 C -1.7021 -0.431 -0.0911 0
M  V30 3 C -0.2987 -0.2796 -0.7485 0
M  V30 4 C -2.1917 0.8997 0.518 0
M  V30 5 C -1.6883 -1.5157 0.9997 0
M  V30 6 C 0.8356 0.1194 0.2139 0
M  V30 7 C 2.1628 0.2662 -0.5401 0
M  V30 8 C 3.295 0.658 0.405 0
M  V30 9 H -2.6653 -0.1384 -1.7728 0
M  V30 10 H -0.3618 0.4842 -1.5549 0
M  V30 11 H -0.03 -1.2427 -1.2363 0
M  V30 12 H -1.5962 1.1807 1.4118 0
M  V30 13 H -2.1222 1.7197 -0.2282 0
M  V30 14 H -3.2535 0.806 0.8322 0
M  V30 15 H -1.0928 -1.1999 1.8817 0
M  V30 16 H -2.7242 -1.7193 1.3472 0
M  V30 17 H -1.2664 -2.4626 0.6 0
M  V30 18 H 0.9587 -0.6578 0.9972 0
M  V30 19 H 0.596 1.0875 0.7019 0
M  V30 20 H 2.0643 1.0476 -1.3248 0
M  V30 21 H 2.4231 -0.696 -1.0323 0
M  V30 22 H 3.4329 -0.1201 1.1856 0
M  V30 23 H 4.2406 0.7569 -0.1684 0
M  V30 24 H 3.0719 1.6311 0.8922 0
M  V30 END ATOM
M  V30 BEGIN BOND
M  V30 1 1 1 2
M  V30 2 1 2 3
M  V30 3 1 2 4
M  V30 4 1 2 5
M  V30 5 1 3 6
M  V30 6 1 6 7
M  V30 7 1 7 8
M  V30 8 1 1 9
M  V30 9 1 3 10
M  V30 10 1 3 11
M  V30 11 1 4 12
M  V30 12 1 4 13
M  V30 13 1 4 14
M  V30 14 1 5 15
M  V30 15 1 5 16
M  V30 16 1 5 17
M  V30 17 1 6 18
M  V30 18 1 6 19
M  V30 19 1 7 20
M  V30 20 1 7 21
M  V30 21 1 8 22
M  V30 22 1 8 23
M  V30 23 1 8 24
M  V30 END BOND
M  V30 END CTAB
M  END
>  <Structure No>
4033

>  <LogS>
-1.0784

>  <MMFF94 Energy>
8.5348

$$$$
Compound 4034
Actelion Java MolfileCreator 2.0

  0  0  0  0  0  0              0 V3000
M  V30 BEGIN CTAB
M  V30 COUNTS 27 26 0 0 0
M  V30 BEGIN ATOM
M  V30 1 O 2.1606 0.9255 1.3113 0
M  V30 2 C 2.0634 0.2602 0.0726 0
M  V30 3 C 0.8489 -0.7107 0.0751 0
M  V30 4 C 1.9792 1.2782 -1.0889 0
M  V30 5 C 3.347 -0.5678 -0.1049 0
M  V30 6 C -0.5119 -0.0377 0.3318 0
M  V30 7 C -1.6449 -1.0758 0.317 0
M  V30 8 C -3.0076 -0.4699 0.6882 0
M  V30 9 C -3.5623 0.4502 -0.3989 0
M  V30 10 H 1.4781 1.6453 1.3393 0
M  V30 11 H 0.8056 -1.2435 -0.901 0
M  V30 12 H 1.009 -1.479 0.8644 0
M  V30 13 H 2.9004 1.8989 -1.1241 0
M  V30 14 H 1.1215 1.9701 -0.9617 0
M  V30 15 H 1.8693 0.7535 -2.0623 0
M  V30 16 H 4.2406 0.093 -0.0904 0
M  V30 17 H 3.3314 -1.1208 -1.0692 0
M  V30 18 H 3.4532 -1.3023 0.7224 0
M  V30 19 H -0.5008 0.4656 1.322 0
M  V30 20 H -0.7067 0.7171 -0.4559 0
M  V30 21 H -1.4127 -1.8727 1.0572 0
M  V30 22 H -1.7071 -1.555 -0.6847 0
M  V30 23 H -3.7301 -1.3006 0.8422 0
M  V30 24 H -2.9304 0.089 1.6461 0
M  V30 25 H -3.5932 -0.0765 -1.3763 0
M  V30 26 H -2.9447 1.3674 -0.4913 0
M  V30 27 H -4.5954 0.7564 -0.1305 0
M  V30 END ATOM
M  V30 BEGIN BOND
M  V30 1 1 1 2
M  V30 2 1 2 3
M  V30 3 1 2 4
M  V30 4 1 2 5
M  V30 5 1 3 6
M  V30 6 1 6 7
M  V30 7 1 7 8
M  V30 8 1 8 9
M  V30 9 1 1 10
M  V30 10 1 3 11
M  V30 11 1 3 12
M  V30 12 1 4 13
M  V30 13 1 4 14
M  V30 14 1 4 15
M  V30 15 1 5 16
M  V30 16 1 5 17
M  V30 17 1 5 18
M  V30 18 1 6 19
M  V30 19 1 6 20
M  V30 20 1 7 21
M  V30 21 1 7 22
M  V30 22 1 8 23
M  V30 23 1 8 24
M  V30 24 1 9 25
M  V30 25 1 9 26
M  V30 26 1 9 27
M  V30 END BOND
M  V30 END CTAB
M  END
>  <Structure No>
4034

>  <LogS>
-1.7168

>  <MMFF94 Energy>
9.1284

$$$$
Compound 4035
Actelion Java MolfileCreator 2.0

  0  0  0  0  0  0              0 V3000
M  V30 BEGIN CTAB
M  V30 COUNTS 18 17 0 0 0
M  V30 BEGIN ATOM
M  V30 1 O 1.146 0.4583 0.2291 0
M  V30 2 C 0.4178 -0.0133 -0.8869 0
M  V30 3 C 2.4514 0.8036 -0.1756 0
M  V30 4 C -1.0116 -0.3965 -0.4679 0
M  V30 5 C -1.004 -1.5344 0.5608 0
M  V30 6 C -1.778 0.8179 0.0716 0
M  V30 7 H 0.355 0.7715 -1.6761 0
M  V30 8 H 0.9091 -0.9125 -1.3257 0
M  V30 9 H 2.4364 1.6234 -0.928 0
M  V30 10 H 3.0099 1.1715 0.7095 0
M  V30 11 H 2.9972 -0.0806 -0.5736 0
M  V30 12 H -1.5456 -0.7605 -1.3737 0
M  V30 13 H -0.5056 -1.2148 1.5011 0
M  V30 14 H -0.4677 -2.417 0.1519 0
M  V30 15 H -2.0451 -1.842 0.7968 0
M  V30 16 H -2.8273 0.5349 0.3024 0
M  V30 17 H -1.7983 1.6271 -0.6891 0
M  V30 18 H -1.3024 1.207 0.9974 0
M  V30 END ATOM
M  V30 BEGIN BOND
M  V30 1 1 1 2
M  V30 2 1 1 3
M  V30 3 1 2 4
M  V30 4 1 4 5
M  V30 5 1 4 6
M  V30 6 1 2 7
M  V30 7 1 2 8
M  V30 8 1 3 9
M  V30 9 1 3 10
M  V30 10 1 3 11
M  V30 11 1 4 12
M  V30 12 1 5 13
M  V30 13 1 5 14
M  V30 14 1 5 15
M  V30 15 1 6 16
M  V30 16 1 6 17
M  V30 17 1 6 18
M  V30 END BOND
M  V30 END CTAB
M  END
>  <Structure No>
4035

>  <LogS>
-0.9007

>  <MMFF94 Energy>
8.3109

$$$$
Compound 4036
Actelion Java MolfileCreator 2.0

  0  0  0  0  0  0              0 V3000
M  V30 BEGIN CTAB
M  V30 COUNTS 11 10 0 0 0
M  V30 BEGIN ATOM
M  V30 1 O 2.5858 0.7047 0.7047 0
M  V30 2 C 1.9403 0.0522 -0.1571 0
M  V30 3 O 2.5203 -0.2228 -1.3891 0 CHG=-1
M  V30 4 C 0.5367 -0.3727 0.1195 0
M  V30 5 O -0.3372 0.6705 -0.2518 0
M  V30 6 C -1.6672 0.2782 0.0039 0
M  V30 7 H 0.3272 -1.2948 -0.469 0
M  V30 8 H 0.4425 -0.604 1.2055 0
M  V30 9 H -1.947 -0.6154 -0.5972 0
M  V30 10 H -2.3432 1.1064 -0.2925 0
M  V30 11 H -1.8292 0.0843 1.0878 0
M  V30 END ATOM
M  V30 BEGIN BOND
M  V30 1 2 1 2
M  V30 2 1 2 3
M  V30 3 1 2 4
M  V30 4 1 4 5
M  V30 5 1 5 6
M  V30 6 1 4 7
M  V30 7 1 4 8
M  V30 8 1 6 9
M  V30 9 1 6 10
M  V30 10 1 6 11
M  V30 END BOND
M  V30 END CTAB
M  END
>  <Structure No>
4036

>  <LogS>
1.0454

>  <MMFF94 Energy>
61.843

$$$$
Compound 4037
Actelion Java MolfileCreator 2.0

  0  0  0  0  0  0              0 V3000
M  V30 BEGIN CTAB
M  V30 COUNTS 11 10 0 0 0
M  V30 BEGIN ATOM
M  V30 1 O 1.9471 1.4016 -0.3113 0
M  V30 2 N 1.6135 0.2233 -0.0705 0 CHG=1
M  V30 3 O 2.3794 -0.5345 0.784 0 CHG=-1
M  V30 4 C 0.3121 -0.2686 -0.505 0
M  V30 5 C -0.7563 0.0762 0.5319 0
M  V30 6 O -2.0013 -0.4287 0.133 0
M  V30 7 H 0.3599 -1.3711 -0.6382 0
M  V30 8 H 0.0474 0.1872 -1.4842 0
M  V30 9 H -0.4845 -0.3822 1.5066 0
M  V30 10 H -0.8128 1.1798 0.6738 0
M  V30 11 H -2.3391 0.1771 -0.5774 0
M  V30 END ATOM
M  V30 BEGIN BOND
M  V30 1 2 1 2
M  V30 2 1 2 3
M  V30 3 1 2 4
M  V30 4 1 4 5
M  V30 5 1 5 6
M  V30 6 1 4 7
M  V30 7 1 4 8
M  V30 8 1 5 9
M  V30 9 1 5 10
M  V30 10 1 6 11
M  V30 END BOND
M  V30 END CTAB
M  END
>  <Structure No>
4037

>  <LogS>
1.0406

>  <MMFF94 Energy>
4.506

$$$$
Compound 4038
Actelion Java MolfileCreator 2.0

  0  0  0  0  0  0              0 V3000
M  V30 BEGIN CTAB
M  V30 COUNTS 18 17 0 0 0
M  V30 BEGIN ATOM
M  V30 1 O 0.3815 0.0763 0.4578 0
M  V30 2 C -0.8862 -0.2586 -0.0809 0
M  V30 3 C 1.408 -0.1811 -0.4776 0
M  V30 4 C -1.7327 -0.8867 1.0256 0
M  V30 5 C -1.5681 1.0058 -0.6119 0
M  V30 6 C 2.7319 0.3119 0.0849 0
M  V30 7 H -0.8307 -1.0067 -0.9095 0
M  V30 8 H 1.2179 0.3485 -1.4388 0
M  V30 9 H 1.4928 -1.2752 -0.6662 0
M  V30 10 H -1.8532 -0.179 1.8741 0
M  V30 11 H -2.7365 -1.1623 0.6368 0
M  V30 12 H -1.2362 -1.8075 1.3989 0
M  V30 13 H -0.9694 1.4435 -1.4378 0
M  V30 14 H -2.5781 0.7632 -1.0061 0
M  V30 15 H -1.6656 1.7629 0.1954 0
M  V30 16 H 2.6805 1.4053 0.2736 0
M  V30 17 H 3.5475 0.1092 -0.6408 0
M  V30 18 H 2.9589 -0.2121 1.0377 0
M  V30 END ATOM
M  V30 BEGIN BOND
M  V30 1 1 1 2
M  V30 2 1 1 3
M  V30 3 1 2 4
M  V30 4 1 2 5
M  V30 5 1 3 6
M  V30 6 1 2 7
M  V30 7 1 3 8
M  V30 8 1 3 9
M  V30 9 1 4 10
M  V30 10 1 4 11
M  V30 11 1 4 12
M  V30 12 1 5 13
M  V30 13 1 5 14
M  V30 14 1 5 15
M  V30 15 1 6 16
M  V30 16 1 6 17
M  V30 17 1 6 18
M  V30 END BOND
M  V30 END CTAB
M  END
>  <Structure No>
4038

>  <LogS>
-0.5607

>  <MMFF94 Energy>
7.0546

$$$$
Compound 4039
Actelion Java MolfileCreator 2.0

  0  0  0  0  0  0              0 V3000
M  V30 BEGIN CTAB
M  V30 COUNTS 14 13 0 0 0
M  V30 BEGIN ATOM
M  V30 1 O 2.3105 -0.6157 -1.2317 0
M  V30 2 C 2.2841 0.1019 -0.1963 0
M  V30 3 O 1.0749 0.5579 0.3388 0
M  V30 4 C -0.2034 0.217 -0.1991 0
M  V30 5 C -0.5723 -1.2198 0.181 0
M  V30 6 C -1.2445 1.1961 0.3402 0
M  V30 7 H 3.2128 0.3769 0.2839 0
M  V30 8 H -0.1827 0.3109 -1.3079 0
M  V30 9 H -1.5766 -1.4776 -0.2178 0
M  V30 10 H 0.1633 -1.9313 -0.2482 0
M  V30 11 H -0.5788 -1.3383 1.2858 0
M  V30 12 H -2.2458 0.9677 -0.0838 0
M  V30 13 H -1.2963 1.1373 1.4487 0
M  V30 14 H -0.9691 2.2325 0.0514 0
M  V30 END ATOM
M  V30 BEGIN BOND
M  V30 1 2 1 2
M  V30 2 1 2 3
M  V30 3 1 3 4
M  V30 4 1 4 5
M  V30 5 1 4 6
M  V30 6 1 2 7
M  V30 7 1 4 8
M  V30 8 1 5 9
M  V30 9 1 5 10
M  V30 10 1 5 11
M  V30 11 1 6 12
M  V30 12 1 6 13
M  V30 13 1 6 14
M  V30 END BOND
M  V30 END CTAB
M  END
>  <Structure No>
4039

>  <LogS>
-0.6301

>  <MMFF94 Energy>
-7.5323

$$$$
Compound 4040
Actelion Java MolfileCreator 2.0

  0  0  0  0  0  0              0 V3000
M  V30 BEGIN CTAB
M  V30 COUNTS 13 13 0 0 0
M  V30 BEGIN ATOM
M  V30 1 O -1.8794 2.0362 0.4696 0
M  V30 2 C -1.1066 1.0659 0.2491 0
M  V30 3 N -1.619 -0.1556 -0.0715 0
M  V30 4 C 0.2783 1.2447 0.3342 0
M  V30 5 C -0.8092 -1.2225 -0.3151 0
M  V30 6 C 1.1265 0.1622 0.0878 0
M  V30 7 C 0.5786 -1.0831 -0.2399 0
M  V30 8 O 2.5062 0.3338 0.171 0
M  V30 9 H -2.6546 -0.2825 -0.1334 0
M  V30 10 H 0.6922 2.2129 0.5887 0
M  V30 11 H -1.2405 -2.1828 -0.5681 0
M  V30 12 H 1.2195 -1.9336 -0.4341 0
M  V30 13 H 3.146 -0.4326 -0.0022 0
M  V30 END ATOM
M  V30 BEGIN BOND
M  V30 1 2 1 2
M  V30 2 1 2 3
M  V30 3 1 2 4
M  V30 4 1 3 5
M  V30 5 2 4 6
M  V30 6 2 5 7
M  V30 7 1 6 8
M  V30 8 1 6 7
M  V30 9 1 3 9
M  V30 10 1 4 10
M  V30 11 1 5 11
M  V30 12 1 7 12
M  V30 13 1 8 13
M  V30 END BOND
M  V30 END CTAB
M  END
>  <Structure No>
4040

>  <LogS>
-1.2498

>  <MMFF94 Energy>
-22.123

$$$$
Compound 4041
Actelion Java MolfileCreator 2.0

  0  0  0  0  0  0              0 V3000
M  V30 BEGIN CTAB
M  V30 COUNTS 20 20 0 0 0
M  V30 BEGIN ATOM
M  V30 1 O 3.2839 0.3905 -0.7811 0
M  V30 2 C 2.3054 1.2874 -0.3325 0
M  V30 3 C 1.1129 0.5327 0.1875 0
M  V30 4 C 0.0338 0.2406 -0.6621 0
M  V30 5 C 1.0956 0.0653 1.5107 0
M  V30 6 C -1.0627 -0.4995 -0.1909 0
M  V30 7 C -0.0011 -0.6574 1.9872 0
M  V30 8 C -1.0805 -0.9329 1.1438 0
M  V30 9 C -2.2352 -0.7724 -1.0924 0
M  V30 10 O -3.1154 0.3177 -1.0801 0
M  V30 11 H 2.9717 0.0457 -1.6585 0
M  V30 12 H 2.7382 1.9123 0.4776 0
M  V30 13 H 2.0084 1.9813 -1.1521 0
M  V30 14 H 0.0469 0.5879 -1.6886 0
M  V30 15 H 1.9285 0.2646 2.1736 0
M  V30 16 H -0.0146 -1.0047 3.0123 0
M  V30 17 H -1.9271 -1.4874 1.5295 0
M  V30 18 H -1.8799 -0.9328 -2.1326 0
M  V30 19 H -2.7645 -1.703 -0.7842 0
M  V30 20 H -3.6129 0.2708 -0.222 0
M  V30 END ATOM
M  V30 BEGIN BOND
M  V30 1 1 1 2
M  V30 2 1 2 3
M  V30 3 2 3 4
M  V30 4 1 3 5
M  V30 5 1 4 6
M  V30 6 2 5 7
M  V30 7 2 6 8
M  V30 8 1 6 9
M  V30 9 1 9 10
M  V30 10 1 7 8
M  V30 11 1 1 11
M  V30 12 1 2 12
M  V30 13 1 2 13
M  V30 14 1 4 14
M  V30 15 1 5 15
M  V30 16 1 7 16
M  V30 17 1 8 17
M  V30 18 1 9 18
M  V30 19 1 9 19
M  V30 20 1 10 20
M  V30 END BOND
M  V30 END CTAB
M  END
>  <Structure No>
4041

>  <LogS>
-0.2328

>  <MMFF94 Energy>
23.078

$$$$
Compound 4042
Actelion Java MolfileCreator 2.0

  0  0  0  0  0  0              0 V3000
M  V30 BEGIN CTAB
M  V30 COUNTS 15 15 0 0 0
M  V30 BEGIN ATOM
M  V30 1 O -1.7998 2.4264 -0.0782 0
M  V30 2 C -1.2618 1.2872 -0.0411 0
M  V30 3 N -2.0364 0.1738 0.0765 0
M  V30 4 N 0.0929 1.1728 -0.1163 0
M  V30 5 C -1.4731 -1.0632 0.1269 0
M  V30 6 C 0.6953 -0.0498 -0.0877 0
M  V30 7 O -2.2014 -2.0847 0.2441 0
M  V30 8 C -0.0871 -1.201 0.0511 0
M  V30 9 C 2.1906 -0.157 -0.1338 0
M  V30 10 H -3.0762 0.2711 0.1339 0
M  V30 11 H 0.6749 2.0379 -0.1971 0
M  V30 12 H 0.3704 -2.1823 0.0985 0
M  V30 13 H 2.6231 0.6943 -0.7008 0
M  V30 14 H 2.5006 -1.0986 -0.6351 0
M  V30 15 H 2.5933 -0.1453 0.9004 0
M  V30 END ATOM
M  V30 BEGIN BOND
M  V30 1 2 1 2
M  V30 2 1 2 3
M  V30 3 1 2 4
M  V30 4 1 3 5
M  V30 5 1 4 6
M  V30 6 2 5 7
M  V30 7 1 5 8
M  V30 8 1 6 9
M  V30 9 2 6 8
M  V30 10 1 3 10
M  V30 11 1 4 11
M  V30 12 1 8 12
M  V30 13 1 9 13
M  V30 14 1 9 14
M  V30 15 1 9 15
M  V30 END BOND
M  V30 END CTAB
M  END
>  <Structure No>
4042

>  <LogS>
-1.2557

>  <MMFF94 Energy>
-99.03

$$$$
Compound 4043
Actelion Java MolfileCreator 2.0

  0  0  0  0  0  0              0 V3000
M  V30 BEGIN CTAB
M  V30 COUNTS 12 12 0 0 0
M  V30 BEGIN ATOM
M  V30 1 O 1.7141 -2.026 0.0 0
M  V30 2 C 0.9129 -1.0542 0.0133 0
M  V30 3 C 1.3989 0.2562 0.0049 0
M  V30 4 C -0.4659 -1.2814 0.0364 0
M  V30 5 C 0.4937 1.321 0.0199 0
M  V30 6 C -1.3384 -0.1897 0.0509 0
M  V30 7 N -0.8461 1.0798 0.0425 0
M  V30 8 H 2.4644 0.45 -0.0127 0
M  V30 9 H -0.8593 -2.2905 0.0432 0
M  V30 10 H 0.8606 2.3398 0.0137 0
M  V30 11 H -2.4082 -0.3555 0.0688 0
M  V30 12 H -1.5105 1.8858 0.0535 0
M  V30 END ATOM
M  V30 BEGIN BOND
M  V30 1 2 1 2
M  V30 2 1 2 3
M  V30 3 1 2 4
M  V30 4 2 3 5
M  V30 5 2 4 6
M  V30 6 1 5 7
M  V30 7 1 6 7
M  V30 8 1 3 8
M  V30 9 1 4 9
M  V30 10 1 5 10
M  V30 11 1 6 11
M  V30 12 1 7 12
M  V30 END BOND
M  V30 END CTAB
M  END
>  <Structure No>
4043

>  <LogS>
1.0218

>  <MMFF94 Energy>
10.311

$$$$
Compound 4044
Actelion Java MolfileCreator 2.0

  0  0  0  0  0  0              0 V3000
M  V30 BEGIN CTAB
M  V30 COUNTS 44 43 0 0 0
M  V30 BEGIN ATOM
M  V30 1 O 2.0223 -0.3886 -0.3886 0
M  V30 2 C 1.4421 -0.1104 0.8757 0
M  V30 3 C 2.9562 -1.45 -0.3165 0
M  V30 4 C -0.053 -0.4706 0.8805 0
M  V30 5 C 4.3437 -0.9551 0.1275 0
M  V30 6 O -0.2327 -1.8572 0.7311 0
M  V30 7 C -0.84 0.3109 -0.1893 0
M  V30 8 C 4.8771 0.2353 -0.7034 0
M  V30 9 O -2.2067 -0.0575 -0.1582 0
M  V30 10 C 6.1719 0.7705 -0.0785 0
M  V30 11 C 5.1264 -0.1526 -2.1686 0
M  V30 12 C -2.9615 0.881 0.5811 0
M  V30 13 C -4.4116 0.3973 0.7112 0
M  V30 14 C -5.2684 0.6572 -0.5503 0
M  V30 15 C -4.7899 -0.1632 -1.7575 0
M  V30 16 C -6.7404 0.3392 -0.2561 0
M  V30 17 H 1.9397 -0.6185 1.7355 0
M  V30 18 H 1.5461 0.9791 1.0678 0
M  V30 19 H 3.0387 -1.9072 -1.3238 0
M  V30 20 H 2.6115 -2.2746 0.3498 0
M  V30 21 H -0.4553 -0.1863 1.8767 0
M  V30 22 H 4.2815 -0.6546 1.1959 0
M  V30 23 H 5.0604 -1.8036 0.0696 0
M  V30 24 H 0.045 -2.1014 -0.1901 0
M  V30 25 H -0.671 1.4078 -0.0658 0
M  V30 26 H -0.445 0.052 -1.1947 0
M  V30 27 H 4.1313 1.0604 -0.6807 0
M  V30 28 H 5.9881 1.095 0.9681 0
M  V30 29 H 6.96 -0.013 -0.0784 0
M  V30 30 H 6.5401 1.6502 -0.6487 0
M  V30 31 H 5.8065 -1.0288 -2.2327 0
M  V30 32 H 5.5857 0.6965 -2.7185 0
M  V30 33 H 4.1703 -0.3951 -2.6767 0
M  V30 34 H -2.5453 0.9871 1.609 0
M  V30 35 H -2.9463 1.879 0.0866 0
M  V30 36 H -4.4228 -0.6845 0.9707 0
M  V30 37 H -4.8695 0.9438 1.5656 0
M  V30 38 H -5.2051 1.7365 -0.8135 0
M  V30 39 H -4.7242 -1.2419 -1.499 0
M  V30 40 H -3.7974 0.1933 -2.1016 0
M  V30 41 H -5.4931 -0.043 -2.6093 0
M  V30 42 H -6.864 -0.733 0.0086 0
M  V30 43 H -7.1081 0.962 0.5872 0
M  V30 44 H -7.3688 0.5644 -1.1444 0
M  V30 END ATOM
M  V30 BEGIN BOND
M  V30 1 1 1 2
M  V30 2 1 1 3
M  V30 3 1 2 4
M  V30 4 1 3 5
M  V30 5 1 4 6
M  V30 6 1 4 7
M  V30 7 1 5 8
M  V30 8 1 7 9
M  V30 9 1 8 10
M  V30 10 1 8 11
M  V30 11 1 9 12
M  V30 12 1 12 13
M  V30 13 1 13 14
M  V30 14 1 14 15
M  V30 15 1 14 16
M  V30 16 1 2 17
M  V30 17 1 2 18
M  V30 18 1 3 19
M  V30 19 1 3 20
M  V30 20 1 4 21
M  V30 21 1 5 22
M  V30 22 1 5 23
M  V30 23 1 6 24
M  V30 24 1 7 25
M  V30 25 1 7 26
M  V30 26 1 8 27
M  V30 27 1 10 28
M  V30 28 1 10 29
M  V30 29 1 10 30
M  V30 30 1 11 31
M  V30 31 1 11 32
M  V30 32 1 11 33
M  V30 33 1 12 34
M  V30 34 1 12 35
M  V30 35 1 13 36
M  V30 36 1 13 37
M  V30 37 1 14 38
M  V30 38 1 15 39
M  V30 39 1 15 40
M  V30 40 1 15 41
M  V30 41 1 16 42
M  V30 42 1 16 43
M  V30 43 1 16 44
M  V30 END BOND
M  V30 END CTAB
M  END
>  <Structure No>
4044

>  <LogS>
-1.3662

>  <MMFF94 Energy>
52.525

$$$$
Compound 4045
Actelion Java MolfileCreator 2.0

  0  0  0  0  0  0              0 V3000
M  V30 BEGIN CTAB
M  V30 COUNTS 25 24 0 0 0
M  V30 BEGIN ATOM
M  V30 1 O 1.6583 -1.6583 0.6315 0
M  V30 2 C 1.4543 -0.4333 0.4095 0
M  V30 3 O 2.4297 0.3549 -0.2114 0
M  V30 4 C 0.1386 0.1779 0.7731 0
M  V30 5 C 3.6746 -0.1604 -0.6786 0
M  V30 6 C -0.8336 0.0894 -0.4101 0
M  V30 7 C 3.4814 -0.9354 -1.9769 0
M  V30 8 C -2.1579 0.8223 -0.1434 0
M  V30 9 C -3.038 0.0963 0.8823 0
M  V30 10 C -4.3612 0.7822 1.0128 0
M  V30 11 O -5.3288 0.4368 0.2847 0
M  V30 12 O -4.5128 1.8371 1.9041 0 CHG=-1
M  V30 13 H -0.276 -0.3545 1.6552 0
M  V30 14 H 0.3006 1.2417 1.0519 0
M  V30 15 H 4.3601 0.6917 -0.8706 0
M  V30 16 H 4.1401 -0.8102 0.0942 0
M  V30 17 H -1.0352 -0.9765 -0.6563 0
M  V30 18 H -0.3573 0.5559 -1.3009 0
M  V30 19 H 3.0104 -0.2819 -2.7414 0
M  V30 20 H 2.8346 -1.8213 -1.8069 0
M  V30 21 H 4.4665 -1.2806 -2.3556 0
M  V30 22 H -2.7117 0.8901 -1.106 0
M  V30 23 H -1.9521 1.8602 0.2003 0
M  V30 24 H -3.1995 -0.9577 0.567 0
M  V30 25 H -2.5448 0.0907 1.8768 0
M  V30 END ATOM
M  V30 BEGIN BOND
M  V30 1 2 1 2
M  V30 2 1 2 3
M  V30 3 1 2 4
M  V30 4 1 3 5
M  V30 5 1 4 6
M  V30 6 1 5 7
M  V30 7 1 6 8
M  V30 8 1 8 9
M  V30 9 1 9 10
M  V30 10 2 10 11
M  V30 11 1 10 12
M  V30 12 1 4 13
M  V30 13 1 4 14
M  V30 14 1 5 15
M  V30 15 1 5 16
M  V30 16 1 6 17
M  V30 17 1 6 18
M  V30 18 1 7 19
M  V30 19 1 7 20
M  V30 20 1 7 21
M  V30 21 1 8 22
M  V30 22 1 8 23
M  V30 23 1 9 24
M  V30 24 1 9 25
M  V30 END BOND
M  V30 END CTAB
M  END
>  <Structure No>
4045

>  <LogS>
-0.3602

>  <MMFF94 Energy>
-7.3728

$$$$
Compound 4046
Actelion Java MolfileCreator 2.0

  0  0  0  0  0  0              0 V3000
M  V30 BEGIN CTAB
M  V30 COUNTS 21 20 0 0 0
M  V30 BEGIN ATOM
M  V30 1 O 3.0699 -0.7667 0.1533 0
M  V30 2 C 2.5671 0.5138 -0.1117 0
M  V30 3 C 1.1077 0.6113 0.3372 0
M  V30 4 C 0.1909 -0.2895 -0.5077 0
M  V30 5 C -1.2645 -0.3163 0.0118 0
M  V30 6 C -1.9678 1.0362 -0.1796 0
M  V30 7 C -2.057 -1.4194 -0.7019 0
M  V30 8 H 4.0092 -0.7648 -0.1663 0
M  V30 9 H 2.6433 0.7376 -1.1997 0
M  V30 10 H 3.1649 1.2683 0.4466 0
M  V30 11 H 1.0374 0.3271 1.4099 0
M  V30 12 H 0.7892 1.6702 0.2353 0
M  V30 13 H 0.2075 0.0508 -1.5668 0
M  V30 14 H 0.5959 -1.3252 -0.4809 0
M  V30 15 H -1.2566 -0.5574 1.0981 0
M  V30 16 H -1.9259 1.3541 -1.2435 0
M  V30 17 H -1.4968 1.8167 0.4522 0
M  V30 18 H -3.033 0.9626 0.128 0
M  V30 19 H -3.0952 -1.4642 -0.3086 0
M  V30 20 H -1.5834 -2.4088 -0.5264 0
M  V30 21 H -2.0954 -1.2284 -1.7961 0
M  V30 END ATOM
M  V30 BEGIN BOND
M  V30 1 1 1 2
M  V30 2 1 2 3
M  V30 3 1 3 4
M  V30 4 1 4 5
M  V30 5 1 5 6
M  V30 6 1 5 7
M  V30 7 1 1 8
M  V30 8 1 2 9
M  V30 9 1 2 10
M  V30 10 1 3 11
M  V30 11 1 3 12
M  V30 12 1 4 13
M  V30 13 1 4 14
M  V30 14 1 5 15
M  V30 15 1 6 16
M  V30 16 1 6 17
M  V30 17 1 6 18
M  V30 18 1 7 19
M  V30 19 1 7 20
M  V30 20 1 7 21
M  V30 END BOND
M  V30 END CTAB
M  END
>  <Structure No>
4046

>  <LogS>
-1.1286

>  <MMFF94 Energy>
3.7804

$$$$
Compound 4047
Actelion Java MolfileCreator 2.0

  0  0  0  0  0  0              0 V3000
M  V30 BEGIN CTAB
M  V30 COUNTS 14 13 0 0 0
M  V30 BEGIN ATOM
M  V30 1 O 2.5756 -1.7946 0.7019 0
M  V30 2 C 1.7537 -1.0141 0.1547 0
M  V30 3 O 1.4818 -1.1703 -1.1978 0 CHG=-1
M  V30 4 C 1.1348 0.0548 0.9663 0
M  V30 5 C 0.1523 0.8857 0.5813 0
M  V30 6 C -0.5539 0.8672 -0.7468 0
M  V30 7 C -1.5574 -0.2808 -0.8293 0
M  V30 8 H 1.5175 0.1794 1.9725 0
M  V30 9 H -0.1675 1.6406 1.2902 0
M  V30 10 H -1.1169 1.8193 -0.8553 0
M  V30 11 H 0.1689 0.8328 -1.587 0
M  V30 12 H -1.0558 -1.2624 -0.7057 0
M  V30 13 H -2.3293 -0.1703 -0.0378 0
M  V30 14 H -2.0603 -0.2628 -1.8191 0
M  V30 END ATOM
M  V30 BEGIN BOND
M  V30 1 2 1 2
M  V30 2 1 2 3
M  V30 3 1 2 4
M  V30 4 2 4 5
M  V30 5 1 5 6
M  V30 6 1 6 7
M  V30 7 1 4 8
M  V30 8 1 5 9
M  V30 9 1 6 10
M  V30 10 1 6 11
M  V30 11 1 7 12
M  V30 12 1 7 13
M  V30 13 1 7 14
M  V30 END BOND
M  V30 END CTAB
M  END
>  <Structure No>
4047

>  <LogS>
-0.2019

>  <MMFF94 Energy>
4.0853

$$$$
Compound 4048
Actelion Java MolfileCreator 2.0

  0  0  0  0  0  0              0 V3000
M  V30 BEGIN CTAB
M  V30 COUNTS 21 20 0 0 0
M  V30 BEGIN ATOM
M  V30 1 O -0.4596 0.2297 -0.4596 0
M  V30 2 C -1.4842 0.0827 0.509 0
M  V30 3 C 0.8158 0.1156 0.1368 0
M  V30 4 C -2.6061 1.0671 0.1809 0
M  V30 5 C -2.0169 -1.3525 0.4775 0
M  V30 6 C 1.8811 0.1449 -0.9574 0
M  V30 7 C 3.285 0.0321 -0.3701 0
M  V30 8 H -1.1459 0.313 1.549 0
M  V30 9 H 0.9066 -0.8424 0.6983 0
M  V30 10 H 0.9897 0.9709 0.8292 0
M  V30 11 H -2.2139 2.1056 0.2148 0
M  V30 12 H -3.0107 0.873 -0.8356 0
M  V30 13 H -3.4287 0.9784 0.9225 0
M  V30 14 H -1.2095 -2.0647 0.7475 0
M  V30 15 H -2.8448 -1.473 1.2084 0
M  V30 16 H -2.3892 -1.6065 -0.538 0
M  V30 17 H 1.7117 -0.6998 -1.6599 0
M  V30 18 H 1.8004 1.0964 -1.5266 0
M  V30 19 H 4.0335 0.0569 -1.1898 0
M  V30 20 H 3.4846 0.8805 0.3187 0
M  V30 21 H 3.3961 -0.9243 0.1836 0
M  V30 END ATOM
M  V30 BEGIN BOND
M  V30 1 1 1 2
M  V30 2 1 1 3
M  V30 3 1 2 4
M  V30 4 1 2 5
M  V30 5 1 3 6
M  V30 6 1 6 7
M  V30 7 1 2 8
M  V30 8 1 3 9
M  V30 9 1 3 10
M  V30 10 1 4 11
M  V30 11 1 4 12
M  V30 12 1 4 13
M  V30 13 1 5 14
M  V30 14 1 5 15
M  V30 15 1 5 16
M  V30 16 1 6 17
M  V30 17 1 6 18
M  V30 18 1 7 19
M  V30 19 1 7 20
M  V30 20 1 7 21
M  V30 END BOND
M  V30 END CTAB
M  END
>  <Structure No>
4048

>  <LogS>
-1.3373

>  <MMFF94 Energy>
5.4648

$$$$
Compound 4049
Actelion Java MolfileCreator 2.0

  0  0  0  0  0  0              0 V3000
M  V30 BEGIN CTAB
M  V30 COUNTS 14 13 0 0 0
M  V30 BEGIN ATOM
M  V30 1 O 2.4256 -2.3473 -1.3296 0
M  V30 2 N 2.1812 -1.22 -0.856 0 CHG=1
M  V30 3 O 0.8932 -0.7279 -0.9011 0
M  V30 4 O 3.2001 -0.4841 -0.2951 0 CHG=-1
M  V30 5 C 0.5625 0.552 -0.3734 0
M  V30 6 C -0.9278 0.8319 -0.5649 0
M  V30 7 C -1.7948 -0.1337 0.2397 0
M  V30 8 H 1.1481 1.3304 -0.9081 0
M  V30 9 H 0.8215 0.5925 0.707 0
M  V30 10 H -1.1854 0.7493 -1.643 0
M  V30 11 H -1.1459 1.8709 -0.2357 0
M  V30 12 H -1.6274 -1.1789 -0.0964 0
M  V30 13 H -1.5592 -0.0539 1.3224 0
M  V30 14 H -2.866 0.1176 0.0908 0
M  V30 END ATOM
M  V30 BEGIN BOND
M  V30 1 2 1 2
M  V30 2 1 2 3
M  V30 3 1 2 4
M  V30 4 1 3 5
M  V30 5 1 5 6
M  V30 6 1 6 7
M  V30 7 1 5 8
M  V30 8 1 5 9
M  V30 9 1 6 10
M  V30 10 1 6 11
M  V30 11 1 7 12
M  V30 12 1 7 13
M  V30 13 1 7 14
M  V30 END BOND
M  V30 END CTAB
M  END
>  <Structure No>
4049

>  <LogS>
-1.5044

>  <MMFF94 Energy>
-15.234

$$$$
Compound 4050
Actelion Java MolfileCreator 2.0

  0  0  0  0  0  0              0 V3000
M  V30 BEGIN CTAB
M  V30 COUNTS 12 11 0 0 0
M  V30 BEGIN ATOM
M  V30 1 Cl -1.9779 0.7908 1.3446 0
M  V30 2 C -1.2962 0.3637 -0.2482 0
M  V30 3 C -0.1878 -0.6855 -0.1182 0
M  V30 4 C 1.0725 -0.138 0.5644 0
M  V30 5 O 1.6332 0.9087 -0.1815 0
M  V30 6 H -0.9135 1.2803 -0.7447 0
M  V30 7 H -2.1157 -0.05 -0.873 0
M  V30 8 H 0.0815 -1.0522 -1.1324 0
M  V30 9 H -0.5701 -1.5536 0.4612 0
M  V30 10 H 1.8139 -0.9597 0.6871 0
M  V30 11 H 0.8244 0.2358 1.5799 0
M  V30 12 H 2.0761 0.4925 -0.9666 0
M  V30 END ATOM
M  V30 BEGIN BOND
M  V30 1 1 1 2
M  V30 2 1 2 3
M  V30 3 1 3 4
M  V30 4 1 4 5
M  V30 5 1 2 6
M  V30 6 1 2 7
M  V30 7 1 3 8
M  V30 8 1 3 9
M  V30 9 1 4 10
M  V30 10 1 4 11
M  V30 11 1 5 12
M  V30 END BOND
M  V30 END CTAB
M  END
>  <Structure No>
4050

>  <LogS>
0.4223

>  <MMFF94 Energy>
-3.1175

$$$$
Compound 4051
Actelion Java MolfileCreator 2.0

  0  0  0  0  0  0              0 V3000
M  V30 BEGIN CTAB
M  V30 COUNTS 12 11 0 0 0
M  V30 BEGIN ATOM
M  V30 1 Cl 2.928 1.028 -0.079 0
M  V30 2 C 1.6908 -0.2225 -0.363 0
M  V30 3 C 0.3124 0.3031 0.0158 0
M  V30 4 O -0.6463 -0.7059 -0.2187 0
M  V30 5 C -1.925 -0.225 0.1302 0
M  V30 6 H 1.7052 -0.5053 -1.4371 0
M  V30 7 H 1.9356 -1.1163 0.2492 0
M  V30 8 H 0.3283 0.5879 1.0931 0
M  V30 9 H 0.0962 1.2031 -0.6049 0
M  V30 10 H -2.2105 0.6511 -0.4935 0
M  V30 11 H -2.6678 -1.0269 -0.0587 0
M  V30 12 H -1.9775 0.0334 1.2115 0
M  V30 END ATOM
M  V30 BEGIN BOND
M  V30 1 1 1 2
M  V30 2 1 2 3
M  V30 3 1 3 4
M  V30 4 1 4 5
M  V30 5 1 2 6
M  V30 6 1 2 7
M  V30 7 1 3 8
M  V30 8 1 3 9
M  V30 9 1 5 10
M  V30 10 1 5 11
M  V30 11 1 5 12
M  V30 END BOND
M  V30 END CTAB
M  END
>  <Structure No>
4051

>  <LogS>
-0.0725

>  <MMFF94 Energy>
18.647

$$$$
Compound 4052
Actelion Java MolfileCreator 2.0

  0  0  0  0  0  0              0 V3000
M  V30 BEGIN CTAB
M  V30 COUNTS 24 23 0 0 0
M  V30 BEGIN ATOM
M  V30 1 O 2.3089 -0.2307 -1.6158 0
M  V30 2 C 1.9785 0.5575 -0.4991 0 CFG=1
M  V30 3 C 0.6208 0.1367 0.098 0
M  V30 4 C 3.0913 0.4813 0.5514 0
M  V30 5 C -0.5211 0.3093 -0.9216 0
M  V30 6 C -1.9237 -0.0647 -0.3865 0
M  V30 7 C -2.0275 -1.5451 0.0043 0
M  V30 8 C -2.3732 0.8396 0.7691 0
M  V30 9 H 2.3675 -1.174 -1.3109 0
M  V30 10 H 1.9054 1.6155 -0.8338 0
M  V30 11 H 0.4186 0.7677 0.9892 0
M  V30 12 H 0.6813 -0.9224 0.4265 0
M  V30 13 H 4.0581 0.786 0.0975 0
M  V30 14 H 2.8687 1.1665 1.397 0
M  V30 15 H 3.1901 -0.5538 0.9424 0
M  V30 16 H -0.3088 -0.3162 -1.8162 0
M  V30 17 H -0.5434 1.3672 -1.2647 0
M  V30 18 H -2.6374 0.1007 -1.2243 0
M  V30 19 H -1.6626 -2.1893 -0.8235 0
M  V30 20 H -3.0879 -1.8081 0.2055 0
M  V30 21 H -1.4377 -1.7609 0.9197 0
M  V30 22 H -1.7892 0.635 1.6906 0
M  V30 23 H -3.4465 0.6595 0.9926 0
M  V30 24 H -2.2531 1.9086 0.4922 0
M  V30 END ATOM
M  V30 BEGIN BOND
M  V30 1 1 1 2
M  V30 2 1 2 3
M  V30 3 1 2 4
M  V30 4 1 3 5
M  V30 5 1 5 6
M  V30 6 1 6 7
M  V30 7 1 6 8
M  V30 8 1 1 9
M  V30 9 1 2 10
M  V30 10 1 3 11
M  V30 11 1 3 12
M  V30 12 1 4 13
M  V30 13 1 4 14
M  V30 14 1 4 15
M  V30 15 1 5 16
M  V30 16 1 5 17
M  V30 17 1 6 18
M  V30 18 1 7 19
M  V30 19 1 7 20
M  V30 20 1 7 21
M  V30 21 1 8 22
M  V30 22 1 8 23
M  V30 23 1 8 24
M  V30 END BOND
M  V30 BEGIN COLLECTION
M  V30 MDLV30/STEABS ATOMS=(1 2)
M  V30 END COLLECTION
M  V30 END CTAB
M  END
>  <Structure No>
4052

>  <LogS>
-1.375

>  <MMFF94 Energy>
6.5672

$$$$
Compound 4053
Actelion Java MolfileCreator 2.0

  0  0  0  0  0  0              0 V3000
M  V30 BEGIN CTAB
M  V30 COUNTS 29 28 0 0 0
M  V30 BEGIN ATOM
M  V30 1 O 0.3867 0.9283 -0.9283 0
M  V30 2 C 1.7576 1.0176 -0.5829 0
M  V30 3 C -0.4232 1.5084 0.0731 0
M  V30 4 C 2.2969 -0.3731 -0.2256 0 CFG=2
M  V30 5 C -1.9046 1.2926 -0.2613 0
M  V30 6 O 1.6542 -0.8338 0.9352 0
M  V30 7 C 3.8147 -0.3211 0.0049 0
M  V30 8 C -2.418 -0.1256 0.0836 0
M  V30 9 O 4.3224 -1.6103 0.2221 0
M  V30 10 C -3.9466 -0.1724 -0.0426 0
M  V30 11 C -1.7899 -1.2046 -0.8112 0
M  V30 12 H 2.3019 1.3937 -1.4756 0
M  V30 13 H 1.9775 1.7363 0.2443 0
M  V30 14 H -0.2366 2.606 0.1083 0
M  V30 15 H -0.2048 1.0783 1.0773 0
M  V30 16 H 2.0862 -1.055 -1.0839 0
M  V30 17 H -2.4883 2.0327 0.33 0
M  V30 18 H -2.0833 1.5185 -1.336 0
M  V30 19 H 1.6581 -1.8257 0.8951 0
M  V30 20 H 4.0551 0.3462 0.8652 0
M  V30 21 H 4.3118 0.0977 -0.8961 0
M  V30 22 H -2.1624 -0.3558 1.1419 0
M  V30 23 H 4.1931 -1.8111 1.1858 0
M  V30 24 H -4.2601 0.0478 -1.0859 0
M  V30 25 H -4.3267 -1.1769 0.2419 0
M  V30 26 H -4.4126 0.5724 0.6372 0
M  V30 27 H -0.7092 -1.3139 -0.5906 0
M  V30 28 H -1.9221 -0.9515 -1.885 0
M  V30 29 H -2.2629 -2.1909 -0.6165 0
M  V30 END ATOM
M  V30 BEGIN BOND
M  V30 1 1 1 2
M  V30 2 1 1 3
M  V30 3 1 2 4
M  V30 4 1 3 5
M  V30 5 1 4 6
M  V30 6 1 4 7
M  V30 7 1 5 8
M  V30 8 1 7 9
M  V30 9 1 8 10
M  V30 10 1 8 11
M  V30 11 1 2 12
M  V30 12 1 2 13
M  V30 13 1 3 14
M  V30 14 1 3 15
M  V30 15 1 4 16
M  V30 16 1 5 17
M  V30 17 1 5 18
M  V30 18 1 6 19
M  V30 19 1 7 20
M  V30 20 1 7 21
M  V30 21 1 8 22
M  V30 22 1 9 23
M  V30 23 1 10 24
M  V30 24 1 10 25
M  V30 25 1 10 26
M  V30 26 1 11 27
M  V30 27 1 11 28
M  V30 28 1 11 29
M  V30 END BOND
M  V30 BEGIN COLLECTION
M  V30 MDLV30/STEABS ATOMS=(1 4)
M  V30 END COLLECTION
M  V30 END CTAB
M  END
>  <Structure No>
4053

>  <LogS>
-1.2101

>  <MMFF94 Energy>
47.513

$$$$
Compound 4054
Actelion Java MolfileCreator 2.0

  0  0  0  0  0  0              0 V3000
M  V30 BEGIN CTAB
M  V30 COUNTS 26 25 0 0 0
M  V30 BEGIN ATOM
M  V30 1 O -3.1357 0.4698 -0.7832 0
M  V30 2 C -2.2929 -0.4652 -0.7037 0
M  V30 3 O -2.2683 -1.3107 0.4089 0
M  V30 4 C -1.2855 -0.655 -1.7955 0
M  V30 5 C -3.1712 -1.1685 1.4986 0
M  V30 6 C 0.1086 -0.1822 -1.3651 0
M  V30 7 C 0.1749 1.3447 -1.1884 0
M  V30 8 C 1.5911 1.828 -0.8509 0
M  V30 9 C 2.0173 1.3798 0.5129 0
M  V30 10 O 1.617 2.007 1.5317 0
M  V30 11 O 2.8244 0.2463 0.6445 0
M  V30 12 C 3.2316 -0.2606 1.9092 0
M  V30 13 H -1.2373 -1.7367 -2.044 0
M  V30 14 H -1.6053 -0.115 -2.7137 0
M  V30 15 H -2.9558 -1.9506 2.2549 0
M  V30 16 H -4.2169 -1.2883 1.1443 0
M  V30 17 H -3.0457 -0.1697 1.9679 0
M  V30 18 H 0.3943 -0.6912 -0.4186 0
M  V30 19 H 0.8366 -0.4881 -2.1477 0
M  V30 20 H -0.526 1.6696 -0.3884 0
M  V30 21 H -0.1424 1.8325 -2.1359 0
M  V30 22 H 1.6115 2.9388 -0.8864 0
M  V30 23 H 2.3121 1.457 -1.611 0
M  V30 24 H 3.8233 0.5054 2.4537 0
M  V30 25 H 2.341 -0.5441 2.5092 0
M  V30 26 H 3.8624 -1.16 1.7552 0
M  V30 END ATOM
M  V30 BEGIN BOND
M  V30 1 2 1 2
M  V30 2 1 2 3
M  V30 3 1 2 4
M  V30 4 1 3 5
M  V30 5 1 4 6
M  V30 6 1 6 7
M  V30 7 1 7 8
M  V30 8 1 8 9
M  V30 9 2 9 10
M  V30 10 1 9 11
M  V30 11 1 11 12
M  V30 12 1 4 13
M  V30 13 1 4 14
M  V30 14 1 5 15
M  V30 15 1 5 16
M  V30 16 1 5 17
M  V30 17 1 6 18
M  V30 18 1 6 19
M  V30 19 1 7 20
M  V30 20 1 7 21
M  V30 21 1 8 22
M  V30 22 1 8 23
M  V30 23 1 12 24
M  V30 24 1 12 25
M  V30 25 1 12 26
M  V30 END BOND
M  V30 END CTAB
M  END
>  <Structure No>
4054

>  <LogS>
-1.4629

>  <MMFF94 Energy>
-16.313

$$$$
Compound 4055
Actelion Java MolfileCreator 2.0

  0  0  0  0  0  0              0 V3000
M  V30 BEGIN CTAB
M  V30 COUNTS 18 17 0 0 0
M  V30 BEGIN ATOM
M  V30 1 O 1.2218 0.3816 -0.9162 0
M  V30 2 C 0.8202 -0.5783 0.0389 0
M  V30 3 C 2.4785 0.9062 -0.552 0
M  V30 4 C -0.5622 -1.1288 -0.3264 0
M  V30 5 C -1.6554 -0.0487 -0.3916 0
M  V30 6 C -1.9917 0.5382 0.9789 0
M  V30 7 H 0.784 -0.1421 1.0626 0
M  V30 8 H 1.5333 -1.4341 0.0479 0
M  V30 9 H 2.7888 1.6447 -1.3194 0
M  V30 10 H 2.4244 1.4383 0.4237 0
M  V30 11 H 3.2549 0.1096 -0.5186 0
M  V30 12 H -0.4934 -1.6212 -1.3209 0
M  V30 13 H -0.8524 -1.9101 0.4095 0
M  V30 14 H -1.3528 0.7678 -1.0821 0
M  V30 15 H -2.5771 -0.5108 -0.807 0
M  V30 16 H -1.1429 1.1371 1.3688 0
M  V30 17 H -2.2379 -0.2705 1.6993 0
M  V30 18 H -2.872 1.2086 0.8868 0
M  V30 END ATOM
M  V30 BEGIN BOND
M  V30 1 1 1 2
M  V30 2 1 1 3
M  V30 3 1 2 4
M  V30 4 1 4 5
M  V30 5 1 5 6
M  V30 6 1 2 7
M  V30 7 1 2 8
M  V30 8 1 3 9
M  V30 9 1 3 10
M  V30 10 1 3 11
M  V30 11 1 4 12
M  V30 12 1 4 13
M  V30 13 1 5 14
M  V30 14 1 5 15
M  V30 15 1 6 16
M  V30 16 1 6 17
M  V30 17 1 6 18
M  V30 END BOND
M  V30 END CTAB
M  END
>  <Structure No>
4055

>  <LogS>
-0.9907

>  <MMFF94 Energy>
3.3557

$$$$
Compound 4056
Actelion Java MolfileCreator 2.0

  0  0  0  0  0  0              0 V3000
M  V30 BEGIN CTAB
M  V30 COUNTS 18 17 0 0 0
M  V30 BEGIN ATOM
M  V30 1 O -0.8393 -0.763 0.0 0
M  V30 2 C 0.4878 -0.6846 -0.4856 0
M  V30 3 C -1.5861 0.3626 -0.413 0
M  V30 4 C 1.4114 -0.1176 0.5966 0
M  V30 5 C -2.9577 0.3206 0.2426 0
M  V30 6 C 2.8646 -0.0983 0.1313 0
M  V30 7 H 0.8186 -1.7172 -0.7279 0
M  V30 8 H 0.5841 -0.0937 -1.4283 0
M  V30 9 H -1.7255 0.3494 -1.5176 0
M  V30 10 H -1.0855 1.3114 -0.1134 0
M  V30 11 H 1.1013 0.9185 0.8506 0
M  V30 12 H 1.3318 -0.7407 1.5136 0
M  V30 13 H -3.5558 1.199 -0.08 0
M  V30 14 H -3.4922 -0.6072 -0.0523 0
M  V30 15 H -2.8509 0.3442 1.3481 0
M  V30 16 H 3.209 -1.1283 -0.1024 0
M  V30 17 H 3.5071 0.3164 0.9363 0
M  V30 18 H 2.9718 0.5386 -0.7724 0
M  V30 END ATOM
M  V30 BEGIN BOND
M  V30 1 1 1 2
M  V30 2 1 1 3
M  V30 3 1 2 4
M  V30 4 1 3 5
M  V30 5 1 4 6
M  V30 6 1 2 7
M  V30 7 1 2 8
M  V30 8 1 3 9
M  V30 9 1 3 10
M  V30 10 1 4 11
M  V30 11 1 4 12
M  V30 12 1 5 13
M  V30 13 1 5 14
M  V30 14 1 5 15
M  V30 15 1 6 16
M  V30 16 1 6 17
M  V30 17 1 6 18
M  V30 END BOND
M  V30 END CTAB
M  END
>  <Structure No>
4056

>  <LogS>
-0.6806

>  <MMFF94 Energy>
1.5222

$$$$
Compound 4057
Actelion Java MolfileCreator 2.0

  0  0  0  0  0  0              0 V3000
M  V30 BEGIN CTAB
M  V30 COUNTS 23 22 0 0 0
M  V30 BEGIN ATOM
M  V30 1 O 2.7139 1.9379 -0.4648 0
M  V30 2 C 2.8242 0.6871 -0.5818 0
M  V30 3 O 1.7965 -0.1626 -0.1639 0
M  V30 4 C 4.0425 0.1098 -1.2177 0
M  V30 5 C 0.5966 0.3191 0.4325 0
M  V30 6 C -0.3099 -0.8638 0.778 0
M  V30 7 C -1.6457 -0.4162 1.4077 0
M  V30 8 C -2.8285 -0.4416 0.4254 0
M  V30 9 C -2.7052 0.5974 -0.6866 0
M  V30 10 H 3.9361 0.1471 -2.3217 0
M  V30 11 H 4.9408 0.6883 -0.9155 0
M  V30 12 H 4.1723 -0.9456 -0.8996 0
M  V30 13 H 0.0851 1.0054 -0.2738 0
M  V30 14 H 0.8461 0.8792 1.3604 0
M  V30 15 H 0.2312 -1.5062 1.5068 0
M  V30 16 H -0.4855 -1.4794 -0.131 0
M  V30 17 H -1.5575 0.592 1.8692 0
M  V30 18 H -1.8901 -1.1187 2.2344 0
M  V30 19 H -2.9297 -1.4541 -0.0221 0
M  V30 20 H -3.7602 -0.2338 0.9951 0
M  V30 21 H -3.6532 0.6346 -1.2634 0
M  V30 22 H -2.5112 1.6044 -0.2599 0
M  V30 23 H -1.8888 0.3225 -1.3859 0
M  V30 END ATOM
M  V30 BEGIN BOND
M  V30 1 2 1 2
M  V30 2 1 2 3
M  V30 3 1 2 4
M  V30 4 1 3 5
M  V30 5 1 5 6
M  V30 6 1 6 7
M  V30 7 1 7 8
M  V30 8 1 8 9
M  V30 9 1 4 10
M  V30 10 1 4 11
M  V30 11 1 4 12
M  V30 12 1 5 13
M  V30 13 1 5 14
M  V30 14 1 6 15
M  V30 15 1 6 16
M  V30 16 1 7 17
M  V30 17 1 7 18
M  V30 18 1 8 19
M  V30 19 1 8 20
M  V30 20 1 9 21
M  V30 21 1 9 22
M  V30 22 1 9 23
M  V30 END BOND
M  V30 END CTAB
M  END
>  <Structure No>
4057

>  <LogS>
-1.8841

>  <MMFF94 Energy>
-11.607

$$$$
Compound 4058
Actelion Java MolfileCreator 2.0

  0  0  0  0  0  0              0 V3000
M  V30 BEGIN CTAB
M  V30 COUNTS 23 22 0 0 0
M  V30 BEGIN ATOM
M  V30 1 O 2.2716 1.2528 1.4094 0
M  V30 2 C 2.5636 0.6883 0.3203 0
M  V30 3 O 2.2116 -0.6453 0.0866 0
M  V30 4 C 3.3435 1.4319 -0.7094 0
M  V30 5 C 1.4274 -1.4217 0.9917 0
M  V30 6 C -0.0456 -1.0001 0.9525 0
M  V30 7 C -0.6567 -1.2012 -0.4382 0
M  V30 8 O -2.0391 -0.8506 -0.4311 0
M  V30 9 C -2.4975 0.4717 -0.4338 0
M  V30 10 O -1.6868 1.4371 -0.4695 0
M  V30 11 C -3.9614 0.7415 -0.354 0
M  V30 12 H 4.4257 1.3652 -0.4734 0
M  V30 13 H 3.0358 2.4989 -0.7244 0
M  V30 14 H 3.1608 0.9928 -1.7124 0
M  V30 15 H 1.8239 -1.3171 2.0251 0
M  V30 16 H 1.5108 -2.4924 0.708 0
M  V30 17 H -0.1361 0.0641 1.2554 0
M  V30 18 H -0.6121 -1.6114 1.688 0
M  V30 19 H -0.5704 -2.2715 -0.7228 0
M  V30 20 H -0.1157 -0.5978 -1.1998 0
M  V30 21 H -4.2244 1.6089 -0.9955 0
M  V30 22 H -4.2394 0.9648 0.6969 0
M  V30 23 H -4.5308 -0.1461 -0.7005 0
M  V30 END ATOM
M  V30 BEGIN BOND
M  V30 1 2 1 2
M  V30 2 1 2 3
M  V30 3 1 2 4
M  V30 4 1 3 5
M  V30 5 1 5 6
M  V30 6 1 6 7
M  V30 7 1 7 8
M  V30 8 1 8 9
M  V30 9 2 9 10
M  V30 10 1 9 11
M  V30 11 1 4 12
M  V30 12 1 4 13
M  V30 13 1 4 14
M  V30 14 1 5 15
M  V30 15 1 5 16
M  V30 16 1 6 17
M  V30 17 1 6 18
M  V30 18 1 7 19
M  V30 19 1 7 20
M  V30 20 1 11 21
M  V30 21 1 11 22
M  V30 22 1 11 23
M  V30 END BOND
M  V30 END CTAB
M  END
>  <Structure No>
4058

>  <LogS>
-0.2046

>  <MMFF94 Energy>
-19.475

$$$$
Compound 4059
Actelion Java MolfileCreator 2.0

  0  0  0  0  0  0              0 V3000
M  V30 BEGIN CTAB
M  V30 COUNTS 19 18 0 0 0
M  V30 BEGIN ATOM
M  V30 1 C 0.6136 -0.23 2.9176 0
M  V30 2 C 1.1918 -0.4388 3.9546 0
M  V30 3 C -0.0907 0.0238 1.6558 0
M  V30 4 C 0.9139 0.2877 0.5278 0
M  V30 5 C 0.2306 0.6861 -0.7896 0
M  V30 6 C -0.5028 -0.4883 -1.4533 0
M  V30 7 C -1.0581 -0.0887 -2.8173 0
M  V30 8 H 1.6995 -0.622 4.8649 0
M  V30 9 H -0.7542 0.9044 1.7909 0
M  V30 10 H -0.7128 -0.8641 1.4213 0
M  V30 11 H 1.5841 1.1226 0.8317 0
M  V30 12 H 1.5486 -0.6115 0.3661 0
M  V30 13 H -0.4796 1.5225 -0.6078 0
M  V30 14 H 1.016 1.0568 -1.4843 0
M  V30 15 H -1.3485 -0.8201 -0.8148 0
M  V30 16 H 0.1961 -1.3423 -1.5873 0
M  V30 17 H -1.7743 0.7536 -2.7102 0
M  V30 18 H -0.2334 0.2146 -3.4966 0
M  V30 19 H -1.5903 -0.9519 -3.2696 0
M  V30 END ATOM
M  V30 BEGIN BOND
M  V30 1 3 1 2
M  V30 2 1 1 3
M  V30 3 1 3 4
M  V30 4 1 4 5
M  V30 5 1 5 6
M  V30 6 1 6 7
M  V30 7 1 2 8
M  V30 8 1 3 9
M  V30 9 1 3 10
M  V30 10 1 4 11
M  V30 11 1 4 12
M  V30 12 1 5 13
M  V30 13 1 5 14
M  V30 14 1 6 15
M  V30 15 1 6 16
M  V30 16 1 7 17
M  V30 17 1 7 18
M  V30 18 1 7 19
M  V30 END BOND
M  V30 END CTAB
M  END
>  <Structure No>
4059

>  <LogS>
-3.0099

>  <MMFF94 Energy>
-0.030681

$$$$
Compound 4060
Actelion Java MolfileCreator 2.0

  0  0  0  0  0  0              0 V3000
M  V30 BEGIN CTAB
M  V30 COUNTS 22 21 0 0 0
M  V30 BEGIN ATOM
M  V30 1 C 3.6976 0.0 0.1538 0
M  V30 2 C 4.7976 0.4033 -0.1304 0
M  V30 3 C 2.3592 -0.4912 0.5004 0
M  V30 4 C 1.2856 0.4644 -0.0268 0
M  V30 5 C -0.1191 -0.0367 0.3292 0
M  V30 6 C -1.1961 0.9171 -0.2085 0
M  V30 7 C -2.6128 0.5165 0.2312 0
M  V30 8 C -3.108 -0.7553 -0.4563 0
M  V30 9 H 5.7629 0.7575 -0.3801 0
M  V30 10 H 2.2236 -1.4995 0.0544 0
M  V30 11 H 2.2853 -0.5741 1.6057 0
M  V30 12 H 1.4404 1.4731 0.4174 0
M  V30 13 H 1.3766 0.5473 -1.1329 0
M  V30 14 H -0.2116 -0.1132 1.4352 0
M  V30 15 H -0.2619 -1.047 -0.1099 0
M  V30 16 H -0.9948 1.9406 0.1773 0
M  V30 17 H -1.1447 0.9596 -1.3187 0
M  V30 18 H -2.6478 0.3818 1.3343 0
M  V30 19 H -3.3077 1.3446 -0.0275 0
M  V30 20 H -2.5237 -1.637 -0.1211 0
M  V30 21 H -4.1727 -0.9266 -0.1917 0
M  V30 22 H -3.0302 -0.6565 -1.5599 0
M  V30 END ATOM
M  V30 BEGIN BOND
M  V30 1 3 1 2
M  V30 2 1 1 3
M  V30 3 1 3 4
M  V30 4 1 4 5
M  V30 5 1 5 6
M  V30 6 1 6 7
M  V30 7 1 7 8
M  V30 8 1 2 9
M  V30 9 1 3 10
M  V30 10 1 3 11
M  V30 11 1 4 12
M  V30 12 1 4 13
M  V30 13 1 5 14
M  V30 14 1 5 15
M  V30 15 1 6 16
M  V30 16 1 6 17
M  V30 17 1 7 18
M  V30 18 1 7 19
M  V30 19 1 8 20
M  V30 20 1 8 21
M  V30 21 1 8 22
M  V30 END BOND
M  V30 END CTAB
M  END
>  <Structure No>
4060

>  <LogS>
-3.662

>  <MMFF94 Energy>
-0.23664

$$$$
Compound 4061
Actelion Java MolfileCreator 2.0

  0  0  0  0  0  0              0 V3000
M  V30 BEGIN CTAB
M  V30 COUNTS 41 40 0 0 0
M  V30 BEGIN ATOM
M  V30 1 C -0.2322 -0.0774 -1.7819 0
M  V30 2 C 1.1721 -0.6971 -1.8551 0
M  V30 3 C -1.162 -0.8325 -0.8158 0
M  V30 4 C 1.9705 -0.5074 -0.5564 0
M  V30 5 C -2.6274 -0.3858 -0.9367 0
M  V30 6 C 3.4127 -1.0094 -0.7219 0
M  V30 7 C -2.8492 1.0563 -0.4473 0
M  V30 8 C 4.2069 -0.9749 0.5934 0
M  V30 9 C -4.3466 1.4231 -0.376 0
M  V30 10 C 4.5406 0.4543 1.0454 0
M  V30 11 C -4.9213 1.3869 1.0501 0
M  V30 12 C 5.442 0.4444 2.2767 0
M  V30 13 C -4.9674 -0.0203 1.6412 0
M  V30 14 H -0.1474 0.9879 -1.4778 0
M  V30 15 H -0.6716 -0.1045 -2.8031 0
M  V30 16 H 1.0931 -1.7798 -2.0967 0
M  V30 17 H 1.7202 -0.2057 -2.6889 0
M  V30 18 H -0.823 -0.6908 0.2326 0
M  V30 19 H -1.1159 -1.9199 -1.043 0
M  V30 20 H 1.9791 0.5714 -0.2924 0
M  V30 21 H 1.4828 -1.0731 0.2657 0
M  V30 22 H -3.2461 -1.0834 -0.3349 0
M  V30 23 H -2.9618 -0.4776 -1.9934 0
M  V30 24 H 3.9382 -0.4056 -1.4942 0
M  V30 25 H 3.3867 -2.0626 -1.0784 0
M  V30 26 H -2.3573 1.7488 -1.1639 0
M  V30 27 H -2.3617 1.2071 0.5407 0
M  V30 28 H 3.638 -1.5014 1.3912 0
M  V30 29 H 5.1564 -1.5316 0.4342 0
M  V30 30 H -4.9534 0.7754 -1.0467 0
M  V30 31 H -4.4674 2.4629 -0.752 0
M  V30 32 H 3.6084 1.0018 1.2994 0
M  V30 33 H 5.059 0.998 0.226 0
M  V30 34 H -4.3272 2.0497 1.7163 0
M  V30 35 H -5.9581 1.7868 1.0199 0
M  V30 36 H 5.6588 1.4882 2.5873 0
M  V30 37 H 6.4028 -0.064 2.0483 0
M  V30 38 H 4.9401 -0.0796 3.1179 0
M  V30 39 H -5.4937 -0.7147 0.9524 0
M  V30 40 H -3.9408 -0.3931 1.8378 0
M  V30 41 H -5.5157 0.0028 2.6066 0
M  V30 END ATOM
M  V30 BEGIN BOND
M  V30 1 1 1 2
M  V30 2 1 1 3
M  V30 3 1 2 4
M  V30 4 1 3 5
M  V30 5 1 4 6
M  V30 6 1 5 7
M  V30 7 1 6 8
M  V30 8 1 7 9
M  V30 9 1 8 10
M  V30 10 1 9 11
M  V30 11 1 10 12
M  V30 12 1 11 13
M  V30 13 1 1 14
M  V30 14 1 1 15
M  V30 15 1 2 16
M  V30 16 1 2 17
M  V30 17 1 3 18
M  V30 18 1 3 19
M  V30 19 1 4 20
M  V30 20 1 4 21
M  V30 21 1 5 22
M  V30 22 1 5 23
M  V30 23 1 6 24
M  V30 24 1 6 25
M  V30 25 1 7 26
M  V30 26 1 7 27
M  V30 27 1 8 28
M  V30 28 1 8 29
M  V30 29 1 9 30
M  V30 30 1 9 31
M  V30 31 1 10 32
M  V30 32 1 10 33
M  V30 33 1 11 34
M  V30 34 1 11 35
M  V30 35 1 12 36
M  V30 36 1 12 37
M  V30 37 1 12 38
M  V30 38 1 13 39
M  V30 39 1 13 40
M  V30 40 1 13 41
M  V30 END BOND
M  V30 END CTAB
M  END
>  <Structure No>
4061

>  <LogS>
-7.5936

>  <MMFF94 Energy>
-6.9198

$$$$
Compound 4062
Actelion Java MolfileCreator 2.0

  0  0  0  0  0  0              0 V3000
M  V30 BEGIN CTAB
M  V30 COUNTS 47 46 0 0 0
M  V30 BEGIN ATOM
M  V30 1 C 0.2326 -0.7755 -0.4652 0
M  V30 2 C 1.595 -0.6781 -1.1621 0
M  V30 3 C -0.9019 -0.3689 -1.4179 0
M  V30 4 C 2.7307 -1.0725 -0.2103 0
M  V30 5 C -2.2962 -0.5763 -0.8043 0
M  V30 6 C 4.0945 -0.9621 -0.9081 0
M  V30 7 C -2.63 0.4716 0.2716 0
M  V30 8 C 5.2572 -1.4441 -0.0243 0
M  V30 9 C -4.0246 0.2646 0.8847 0
M  V30 10 C 5.5265 -0.5789 1.2217 0
M  V30 11 C -5.1587 0.6721 -0.068 0
M  V30 12 C 5.9906 0.8561 0.8949 0
M  V30 13 C -6.5207 0.5775 0.6298 0
M  V30 14 C 4.8811 1.8893 1.0912 0
M  V30 15 C -7.6531 0.9714 -0.314 0
M  V30 16 H 0.071 -1.8209 -0.1218 0
M  V30 17 H 0.236 -0.1069 0.4215 0
M  V30 18 H 1.7549 0.366 -1.5116 0
M  V30 19 H 1.6054 -1.3527 -2.0465 0
M  V30 20 H -0.8366 -0.9925 -2.3365 0
M  V30 21 H -0.7784 0.6932 -1.7238 0
M  V30 22 H 2.7035 -0.4025 0.6745 0
M  V30 23 H 2.5757 -2.1189 0.1332 0
M  V30 24 H -2.3713 -1.5999 -0.3761 0
M  V30 25 H -3.0362 -0.5014 -1.6282 0
M  V30 26 H 4.0782 -1.5991 -1.8195 0
M  V30 27 H 4.2743 0.0795 -1.2461 0
M  V30 28 H -1.8903 0.3964 1.096 0
M  V30 29 H -2.5544 1.4953 -0.1561 0
M  V30 30 H 5.0523 -2.4866 0.3035 0
M  V30 31 H 6.1809 -1.479 -0.6422 0
M  V30 32 H -4.09 0.8883 1.8035 0
M  V30 33 H -4.1488 -0.7973 1.1905 0
M  V30 34 H 4.6455 -0.579 1.8981 0
M  V30 35 H 6.3409 -1.0785 1.7908 0
M  V30 36 H -4.996 1.7171 -0.4123 0
M  V30 37 H -5.164 0.0028 -0.9541 0
M  V30 38 H 6.3834 0.9247 -0.1427 0
M  V30 39 H 6.8269 1.1266 1.5761 0
M  V30 40 H -6.6905 -0.4639 0.9804 0
M  V30 41 H -6.5384 1.2534 1.5125 0
M  V30 42 H 4.0245 1.69 0.4169 0
M  V30 43 H 4.5258 1.8769 2.1436 0
M  V30 44 H 5.2752 2.9024 0.8654 0
M  V30 45 H -7.5199 2.0183 -0.6609 0
M  V30 46 H -8.6245 0.8947 0.2183 0
M  V30 47 H -7.676 0.2933 -1.1937 0
M  V30 END ATOM
M  V30 BEGIN BOND
M  V30 1 1 1 2
M  V30 2 1 1 3
M  V30 3 1 2 4
M  V30 4 1 3 5
M  V30 5 1 4 6
M  V30 6 1 5 7
M  V30 7 1 6 8
M  V30 8 1 7 9
M  V30 9 1 8 10
M  V30 10 1 9 11
M  V30 11 1 10 12
M  V30 12 1 11 13
M  V30 13 1 12 14
M  V30 14 1 13 15
M  V30 15 1 1 16
M  V30 16 1 1 17
M  V30 17 1 2 18
M  V30 18 1 2 19
M  V30 19 1 3 20
M  V30 20 1 3 21
M  V30 21 1 4 22
M  V30 22 1 4 23
M  V30 23 1 5 24
M  V30 24 1 5 25
M  V30 25 1 6 26
M  V30 26 1 6 27
M  V30 27 1 7 28
M  V30 28 1 7 29
M  V30 29 1 8 30
M  V30 30 1 8 31
M  V30 31 1 9 32
M  V30 32 1 9 33
M  V30 33 1 10 34
M  V30 34 1 10 35
M  V30 35 1 11 36
M  V30 36 1 11 37
M  V30 37 1 12 38
M  V30 38 1 12 39
M  V30 39 1 13 40
M  V30 40 1 13 41
M  V30 41 1 14 42
M  V30 42 1 14 43
M  V30 43 1 14 44
M  V30 44 1 15 45
M  V30 45 1 15 46
M  V30 46 1 15 47
M  V30 END BOND
M  V30 END CTAB
M  END
>  <Structure No>
4062

>  <LogS>
-9.4464

>  <MMFF94 Energy>
-6.4696

$$$$
Compound 4063
Actelion Java MolfileCreator 2.0

  0  0  0  0  0  0              0 V3000
M  V30 BEGIN CTAB
M  V30 COUNTS 48 47 0 0 0
M  V30 BEGIN ATOM
M  V30 1 O -8.0973 -0.5433 1.32 0
M  V30 2 C -7.1995 -1.1284 0.4143 0
M  V30 3 C -5.9697 -0.237 0.218 0
M  V30 4 C -5.102 -0.1702 1.4854 0
M  V30 5 C -3.8967 0.7705 1.3277 0
M  V30 6 C -2.8091 0.1919 0.41 0
M  V30 7 C -1.5713 1.097 0.3881 0
M  V30 8 C -0.4885 0.5281 -0.5366 0
M  V30 9 C 0.7569 1.4264 -0.5427 0
M  V30 10 C 1.8071 0.9865 -1.5784 0
M  V30 11 C 2.3886 -0.4245 -1.3579 0
M  V30 12 C 3.0436 -0.6527 0.0186 0
M  V30 13 C 4.1895 0.3195 0.3618 0
M  V30 14 C 5.3557 0.3356 -0.6466 0
M  V30 15 C 6.0374 -1.0255 -0.8698 0
M  V30 16 C 6.6796 -1.5855 0.3987 0
M  V30 17 H -7.8838 -0.9105 2.2172 0
M  V30 18 H -7.7155 -1.24 -0.5627 0
M  V30 19 H -6.8936 -2.1482 0.7461 0
M  V30 20 H -6.3015 0.7849 -0.0684 0
M  V30 21 H -5.3751 -0.6563 -0.6203 0
M  V30 22 H -4.7519 -1.1893 1.7606 0
M  V30 23 H -5.7202 0.2118 2.3265 0
M  V30 24 H -4.2357 1.7561 0.9394 0
M  V30 25 H -3.4604 0.939 2.3368 0
M  V30 26 H -3.2021 0.0982 -0.6244 0
M  V30 27 H -2.5177 -0.8183 0.7727 0
M  V30 28 H -1.864 2.1101 0.0335 0
M  V30 29 H -1.1625 1.1875 1.4189 0
M  V30 30 H -0.2132 -0.4878 -0.181 0
M  V30 31 H -0.8923 0.4478 -1.5699 0
M  V30 32 H 0.4491 2.4645 -0.7968 0
M  V30 33 H 1.2064 1.4613 0.4721 0
M  V30 34 H 1.3465 1.0203 -2.5899 0
M  V30 35 H 2.6331 1.7287 -1.587 0
M  V30 36 H 3.1327 -0.6286 -2.1564 0
M  V30 37 H 1.5851 -1.1783 -1.4971 0
M  V30 38 H 3.4206 -1.696 0.0638 0
M  V30 39 H 2.2684 -0.5819 0.8106 0
M  V30 40 H 3.7832 1.3492 0.4488 0
M  V30 41 H 4.5802 0.0637 1.3695 0
M  V30 42 H 4.9951 0.7202 -1.6238 0
M  V30 43 H 6.1177 1.0616 -0.2877 0
M  V30 44 H 6.8352 -0.8907 -1.6319 0
M  V30 45 H 5.3171 -1.7622 -1.2828 0
M  V30 46 H 7.273 -2.4888 0.1439 0
M  V30 47 H 5.9023 -1.8804 1.1338 0
M  V30 48 H 7.3576 -0.8338 0.8558 0
M  V30 END ATOM
M  V30 BEGIN BOND
M  V30 1 1 1 2
M  V30 2 1 2 3
M  V30 3 1 3 4
M  V30 4 1 4 5
M  V30 5 1 5 6
M  V30 6 1 6 7
M  V30 7 1 7 8
M  V30 8 1 8 9
M  V30 9 1 9 10
M  V30 10 1 10 11
M  V30 11 1 11 12
M  V30 12 1 12 13
M  V30 13 1 13 14
M  V30 14 1 14 15
M  V30 15 1 15 16
M  V30 16 1 1 17
M  V30 17 1 2 18
M  V30 18 1 2 19
M  V30 19 1 3 20
M  V30 20 1 3 21
M  V30 21 1 4 22
M  V30 22 1 4 23
M  V30 23 1 5 24
M  V30 24 1 5 25
M  V30 25 1 6 26
M  V30 26 1 6 27
M  V30 27 1 7 28
M  V30 28 1 7 29
M  V30 29 1 8 30
M  V30 30 1 8 31
M  V30 31 1 9 32
M  V30 32 1 9 33
M  V30 33 1 10 34
M  V30 34 1 10 35
M  V30 35 1 11 36
M  V30 36 1 11 37
M  V30 37 1 12 38
M  V30 38 1 12 39
M  V30 39 1 13 40
M  V30 40 1 13 41
M  V30 41 1 14 42
M  V30 42 1 14 43
M  V30 43 1 15 44
M  V30 44 1 15 45
M  V30 45 1 16 46
M  V30 46 1 16 47
M  V30 47 1 16 48
M  V30 END BOND
M  V30 END CTAB
M  END
>  <Structure No>
4063

>  <LogS>
-6.3476

>  <MMFF94 Energy>
-3.956

$$$$
Compound 4064
Actelion Java MolfileCreator 2.0

  0  0  0  0  0  0              0 V3000
M  V30 BEGIN CTAB
M  V30 COUNTS 80 79 0 0 0
M  V30 BEGIN ATOM
M  V30 1 C -0.2336 2.5727 -3.2752 0
M  V30 2 C 0.92 3.2483 -2.511 0
M  V30 3 C -1.578 2.6647 -2.5379 0
M  V30 4 C 1.1951 2.6851 -1.1038 0
M  V30 5 C -2.7255 2.1529 -3.4207 0
M  V30 6 C 1.6285 1.2087 -1.1219 0
M  V30 7 C -4.1078 2.3287 -2.7661 0
M  V30 8 C 1.9297 0.6626 0.2833 0
M  V30 9 C -4.3058 1.5665 -1.4401 0
M  V30 10 C 3.2808 1.1505 0.8337 0
M  V30 11 C -4.0354 0.0497 -1.5079 0
M  V30 12 C 3.5571 0.6513 2.2635 0
M  V30 13 C -4.8814 -0.7131 -2.5443 0
M  V30 14 C 3.6914 -0.8777 2.411 0
M  V30 15 C -6.3994 -0.685 -2.2835 0
M  V30 16 C 4.7723 -1.5271 1.528 0
M  V30 17 C -6.8223 -1.4535 -1.0125 0
M  V30 18 C 6.1821 -0.9887 1.816 0
M  V30 19 C -7.1668 -0.5119 0.1542 0
M  V30 20 C 7.2441 -1.7918 1.0511 0
M  V30 21 C -7.6738 -1.2658 1.3937 0
M  V30 22 C 8.6481 -1.1669 1.1406 0
M  V30 23 C -6.5571 -2.037 2.1137 0
M  V30 24 C 9.2415 -1.1135 2.5598 0
M  V30 25 C -7.0655 -2.6553 3.413 0
M  V30 26 C 9.4523 -2.4982 3.1713 0
M  V30 27 H -0.3256 3.0837 -4.2589 0
M  V30 28 H 0.0125 1.5103 -3.4853 0
M  V30 29 H 0.6964 4.3338 -2.4172 0
M  V30 30 H 1.8461 3.1616 -3.1202 0
M  V30 31 H -1.5258 2.0447 -1.6194 0
M  V30 32 H -1.7744 3.7214 -2.2515 0
M  V30 33 H 0.3031 2.8149 -0.4552 0
M  V30 34 H 2.0055 3.3004 -0.6618 0
M  V30 35 H -2.5563 1.0878 -3.6854 0
M  V30 36 H -2.7302 2.7272 -4.3728 0
M  V30 37 H 0.804 0.5964 -1.5421 0
M  V30 38 H 2.5167 1.0782 -1.7774 0
M  V30 39 H -4.8898 2.0153 -3.4901 0
M  V30 40 H -4.2773 3.4109 -2.5746 0
M  V30 41 H 1.1088 0.9399 0.9803 0
M  V30 42 H 1.951 -0.4447 0.2105 0
M  V30 43 H -3.648 2.0081 -0.6618 0
M  V30 44 H -5.3433 1.743 -1.089 0
M  V30 45 H 4.104 0.8499 0.1532 0
M  V30 46 H 3.2824 2.2588 0.8727 0
M  V30 47 H -2.9614 -0.12 -1.7333 0
M  V30 48 H -4.2008 -0.3903 -0.5026 0
M  V30 49 H 4.4819 1.1385 2.6406 0
M  V30 50 H 2.7327 0.9945 2.9263 0
M  V30 51 H -4.682 -0.3087 -3.5591 0
M  V30 52 H -4.5409 -1.7716 -2.5648 0
M  V30 53 H 2.7142 -1.3581 2.1935 0
M  V30 54 H 3.9184 -1.1046 3.4756 0
M  V30 55 H -6.8858 -1.1747 -3.1557 0
M  V30 56 H -6.7772 0.3592 -2.2778 0
M  V30 57 H 4.7579 -2.6207 1.7292 0
M  V30 58 H 4.5231 -1.3938 0.4542 0
M  V30 59 H -6.0268 -2.1668 -0.7128 0
M  V30 60 H -7.7259 -2.056 -1.2506 0
M  V30 61 H 6.3781 -1.0588 2.9073 0
M  V30 62 H 6.2426 0.0762 1.5067 0
M  V30 63 H -7.9718 0.1796 -0.1753 0
M  V30 64 H -6.2903 0.1065 0.4322 0
M  V30 65 H 6.9601 -1.8279 -0.0233 0
M  V30 66 H 7.2649 -2.8398 1.4167 0
M  V30 67 H -8.4915 -1.9626 1.1043 0
M  V30 68 H -8.1037 -0.5181 2.0979 0
M  V30 69 H 9.3352 -1.7454 0.4851 0
M  V30 70 H 8.6093 -0.1334 0.7332 0
M  V30 71 H -6.1768 -2.8536 1.4653 0
M  V30 72 H -5.7157 -1.3499 2.3488 0
M  V30 73 H 8.6033 -0.5011 3.2311 0
M  V30 74 H 10.2291 -0.6063 2.5009 0
M  V30 75 H -7.4085 -1.8612 4.11 0
M  V30 76 H -6.246 -3.2249 3.9 0
M  V30 77 H -7.9071 -3.3504 3.2057 0
M  V30 78 H 10.0289 -2.4017 4.1156 0
M  V30 79 H 8.478 -2.9731 3.4098 0
M  V30 80 H 10.0234 -3.1484 2.4753 0
M  V30 END ATOM
M  V30 BEGIN BOND
M  V30 1 1 1 2
M  V30 2 1 1 3
M  V30 3 1 2 4
M  V30 4 1 3 5
M  V30 5 1 4 6
M  V30 6 1 5 7
M  V30 7 1 6 8
M  V30 8 1 7 9
M  V30 9 1 8 10
M  V30 10 1 9 11
M  V30 11 1 10 12
M  V30 12 1 11 13
M  V30 13 1 12 14
M  V30 14 1 13 15
M  V30 15 1 14 16
M  V30 16 1 15 17
M  V30 17 1 16 18
M  V30 18 1 17 19
M  V30 19 1 18 20
M  V30 20 1 19 21
M  V30 21 1 20 22
M  V30 22 1 21 23
M  V30 23 1 22 24
M  V30 24 1 23 25
M  V30 25 1 24 26
M  V30 26 1 1 27
M  V30 27 1 1 28
M  V30 28 1 2 29
M  V30 29 1 2 30
M  V30 30 1 3 31
M  V30 31 1 3 32
M  V30 32 1 4 33
M  V30 33 1 4 34
M  V30 34 1 5 35
M  V30 35 1 5 36
M  V30 36 1 6 37
M  V30 37 1 6 38
M  V30 38 1 7 39
M  V30 39 1 7 40
M  V30 40 1 8 41
M  V30 41 1 8 42
M  V30 42 1 9 43
M  V30 43 1 9 44
M  V30 44 1 10 45
M  V30 45 1 10 46
M  V30 46 1 11 47
M  V30 47 1 11 48
M  V30 48 1 12 49
M  V30 49 1 12 50
M  V30 50 1 13 51
M  V30 51 1 13 52
M  V30 52 1 14 53
M  V30 53 1 14 54
M  V30 54 1 15 55
M  V30 55 1 15 56
M  V30 56 1 16 57
M  V30 57 1 16 58
M  V30 58 1 17 59
M  V30 59 1 17 60
M  V30 60 1 18 61
M  V30 61 1 18 62
M  V30 62 1 19 63
M  V30 63 1 19 64
M  V30 64 1 20 65
M  V30 65 1 20 66
M  V30 66 1 21 67
M  V30 67 1 21 68
M  V30 68 1 22 69
M  V30 69 1 22 70
M  V30 70 1 23 71
M  V30 71 1 23 72
M  V30 72 1 24 73
M  V30 73 1 24 74
M  V30 74 1 25 75
M  V30 75 1 25 76
M  V30 76 1 25 77
M  V30 77 1 26 78
M  V30 78 1 26 79
M  V30 79 1 26 80
M  V30 END BOND
M  V30 END CTAB
M  END
>  <Structure No>
4064

>  <LogS>
-8.3339

>  <MMFF94 Energy>
-7.6564

$$$$
Compound 4065
Actelion Java MolfileCreator 2.0

  0  0  0  0  0  0              0 V3000
M  V30 BEGIN CTAB
M  V30 COUNTS 110 109 0 0 0
M  V30 BEGIN ATOM
M  V30 1 C 0.2341 1.5614 -2.5774 0
M  V30 2 C 0.2088 0.699 -3.8511 0
M  V30 3 C 0.8524 2.9514 -2.8103 0
M  V30 4 C -0.3808 -0.7042 -3.6136 0
M  V30 5 C 2.3643 2.9499 -3.109 0
M  V30 6 C -1.8515 -0.7281 -3.1584 0
M  V30 7 C 3.2274 2.42 -1.9435 0
M  V30 8 C -2.8041 -0.0795 -4.1782 0
M  V30 9 C 3.7852 1.0139 -2.2253 0
M  V30 10 C -4.2838 -0.2861 -3.8164 0
M  V30 11 C 4.6693 0.4967 -1.0706 0
M  V30 12 C -4.7015 0.5174 -2.5729 0
M  V30 13 C 6.1768 0.5416 -1.3753 0
M  V30 14 C -6.2273 0.5787 -2.3894 0
M  V30 15 C 6.7186 1.9757 -1.5063 0
M  V30 16 C -6.9041 -0.7838 -2.1424 0
M  V30 17 C 8.2412 2.0311 -1.7402 0
M  V30 18 C -6.3957 -1.5537 -0.9095 0
M  V30 19 C 9.0997 1.4675 -0.5923 0
M  V30 20 C -6.527 -0.7517 0.3946 0
M  V30 21 C 8.9192 2.2391 0.7261 0
M  V30 22 C -6.2599 -1.6393 1.6212 0
M  V30 23 C 9.8727 1.7591 1.8352 0
M  V30 24 C -6.2458 -0.8346 2.9385 0
M  V30 25 C 9.6444 0.3092 2.3038 0
M  V30 26 C -7.5666 -0.8962 3.7243 0
M  V30 27 C 8.2613 0.0907 2.9441 0
M  V30 28 C -8.7291 -0.1993 2.9993 0
M  V30 29 C 8.1113 -1.3217 3.5504 0
M  V30 30 C -9.923 0.0894 3.926 0
M  V30 31 C 7.2349 -2.265 2.7051 0
M  V30 32 C -10.5381 -1.1546 4.5973 0
M  V30 33 C 7.8143 -2.619 1.3269 0
M  V30 34 C -11.0478 -2.2303 3.6238 0
M  V30 35 C 9.0972 -3.4442 1.4147 0
M  V30 36 C -12.1628 -1.7254 2.7096 0
M  V30 37 H 0.7667 1.0304 -1.7607 0
M  V30 38 H -0.8092 1.7277 -2.2352 0
M  V30 39 H -0.3487 1.2223 -4.6564 0
M  V30 40 H 1.246 0.5577 -4.2193 0
M  V30 41 H 0.6684 3.5758 -1.907 0
M  V30 42 H 0.3226 3.4471 -3.6542 0
M  V30 43 H 0.2347 -1.2282 -2.8496 0
M  V30 44 H -0.2894 -1.2878 -4.5558 0
M  V30 45 H 2.6568 4.0061 -3.2981 0
M  V30 46 H 2.5749 2.4088 -4.056 0
M  V30 47 H -2.1451 -1.7913 -3.0222 0
M  V30 48 H -1.9477 -0.2399 -2.1674 0
M  V30 49 H 4.0734 3.1204 -1.7856 0
M  V30 50 H 2.6451 2.4098 -0.9959 0
M  V30 51 H -2.6004 1.0096 -4.2567 0
M  V30 52 H -2.6242 -0.5316 -5.1789 0
M  V30 53 H 4.3519 1.0166 -3.1821 0
M  V30 54 H 2.9353 0.3117 -2.3594 0
M  V30 55 H -4.4795 -1.3681 -3.6554 0
M  V30 56 H -4.8956 0.0441 -4.6841 0
M  V30 57 H 4.4029 -0.567 -0.8809 0
M  V30 58 H 4.4615 1.0425 -0.1229 0
M  V30 59 H -4.3363 1.5618 -2.6752 0
M  V30 60 H -4.2271 0.096 -1.6639 0
M  V30 61 H 6.3908 -0.0284 -2.3064 0
M  V30 62 H 6.6865 0.0272 -0.5358 0
M  V30 63 H -6.6801 1.0366 -3.2952 0
M  V30 64 H -6.4611 1.266 -1.5489 0
M  V30 65 H 6.4409 2.5762 -0.6147 0
M  V30 66 H 6.2404 2.4554 -2.3857 0
M  V30 67 H -6.7841 -1.4258 -3.0401 0
M  V30 68 H -7.9959 -0.6113 -2.0266 0
M  V30 69 H 8.5321 3.0903 -1.9166 0
M  V30 70 H 8.4813 1.4695 -2.6697 0
M  V30 71 H -5.3392 -1.8607 -1.0611 0
M  V30 72 H -6.9967 -2.4857 -0.8257 0
M  V30 73 H 8.88 0.3912 -0.4558 0
M  V30 74 H 10.1657 1.5373 -0.899 0
M  V30 75 H -5.7875 0.078 0.385 0
M  V30 76 H -7.5442 -0.3136 0.4553 0
M  V30 77 H 9.1297 3.3144 0.5386 0
M  V30 78 H 7.8729 2.1723 1.0812 0
M  V30 79 H -7.0115 -2.4591 1.6713 0
M  V30 80 H -5.2609 -2.1147 1.4938 0
M  V30 81 H 10.9203 1.8547 1.4744 0
M  V30 82 H 9.7687 2.4388 2.7091 0
M  V30 83 H -5.4567 -1.2658 3.5932 0
M  V30 84 H -5.959 0.2255 2.7633 0
M  V30 85 H 9.8019 -0.3918 1.4614 0
M  V30 86 H 10.4256 0.0801 3.0608 0
M  V30 87 H -7.8242 -1.9589 3.9248 0
M  V30 88 H -7.4004 -0.4002 4.7067 0
M  V30 89 H 8.1305 0.8399 3.7561 0
M  V30 90 H 7.4568 0.2706 2.2004 0
M  V30 91 H -9.0656 -0.8162 2.1409 0
M  V30 92 H -8.3748 0.7735 2.5943 0
M  V30 93 H 9.0979 -1.7888 3.7577 0
M  V30 94 H 7.6127 -1.2176 4.5385 0
M  V30 95 H -9.5917 0.7883 4.7232 0
M  V30 96 H -10.7057 0.6242 3.3479 0
M  V30 97 H 7.0676 -3.2038 3.2761 0
M  V30 98 H 6.2366 -1.7985 2.5623 0
M  V30 99 H -9.7884 -1.6148 5.2765 0
M  V30 100 H -11.3847 -0.8241 5.2399 0
M  V30 101 H 7.0564 -3.2186 0.7773 0
M  V30 102 H 7.9949 -1.7027 0.7297 0
M  V30 103 H -10.2138 -2.6344 3.0118 0
M  V30 104 H -11.4473 -3.0761 4.2225 0
M  V30 105 H 9.9272 -2.8387 1.8308 0
M  V30 106 H 9.3903 -3.7772 0.3978 0
M  V30 107 H 8.9393 -4.3411 2.0504 0
M  V30 108 H -11.7636 -0.9998 1.9724 0
M  V30 109 H -12.6005 -2.5807 2.1543 0
M  V30 110 H -12.9666 -1.2443 3.3058 0
M  V30 END ATOM
M  V30 BEGIN BOND
M  V30 1 1 1 2
M  V30 2 1 1 3
M  V30 3 1 2 4
M  V30 4 1 3 5
M  V30 5 1 4 6
M  V30 6 1 5 7
M  V30 7 1 6 8
M  V30 8 1 7 9
M  V30 9 1 8 10
M  V30 10 1 9 11
M  V30 11 1 10 12
M  V30 12 1 11 13
M  V30 13 1 12 14
M  V30 14 1 13 15
M  V30 15 1 14 16
M  V30 16 1 15 17
M  V30 17 1 16 18
M  V30 18 1 17 19
M  V30 19 1 18 20
M  V30 20 1 19 21
M  V30 21 1 20 22
M  V30 22 1 21 23
M  V30 23 1 22 24
M  V30 24 1 23 25
M  V30 25 1 24 26
M  V30 26 1 25 27
M  V30 27 1 26 28
M  V30 28 1 27 29
M  V30 29 1 28 30
M  V30 30 1 29 31
M  V30 31 1 30 32
M  V30 32 1 31 33
M  V30 33 1 32 34
M  V30 34 1 33 35
M  V30 35 1 34 36
M  V30 36 1 1 37
M  V30 37 1 1 38
M  V30 38 1 2 39
M  V30 39 1 2 40
M  V30 40 1 3 41
M  V30 41 1 3 42
M  V30 42 1 4 43
M  V30 43 1 4 44
M  V30 44 1 5 45
M  V30 45 1 5 46
M  V30 46 1 6 47
M  V30 47 1 6 48
M  V30 48 1 7 49
M  V30 49 1 7 50
M  V30 50 1 8 51
M  V30 51 1 8 52
M  V30 52 1 9 53
M  V30 53 1 9 54
M  V30 54 1 10 55
M  V30 55 1 10 56
M  V30 56 1 11 57
M  V30 57 1 11 58
M  V30 58 1 12 59
M  V30 59 1 12 60
M  V30 60 1 13 61
M  V30 61 1 13 62
M  V30 62 1 14 63
M  V30 63 1 14 64
M  V30 64 1 15 65
M  V30 65 1 15 66
M  V30 66 1 16 67
M  V30 67 1 16 68
M  V30 68 1 17 69
M  V30 69 1 17 70
M  V30 70 1 18 71
M  V30 71 1 18 72
M  V30 72 1 19 73
M  V30 73 1 19 74
M  V30 74 1 20 75
M  V30 75 1 20 76
M  V30 76 1 21 77
M  V30 77 1 21 78
M  V30 78 1 22 79
M  V30 79 1 22 80
M  V30 80 1 23 81
M  V30 81 1 23 82
M  V30 82 1 24 83
M  V30 83 1 24 84
M  V30 84 1 25 85
M  V30 85 1 25 86
M  V30 86 1 26 87
M  V30 87 1 26 88
M  V30 88 1 27 89
M  V30 89 1 27 90
M  V30 90 1 28 91
M  V30 91 1 28 92
M  V30 92 1 29 93
M  V30 93 1 29 94
M  V30 94 1 30 95
M  V30 95 1 30 96
M  V30 96 1 31 97
M  V30 97 1 31 98
M  V30 98 1 32 99
M  V30 99 1 32 100
M  V30 100 1 33 101
M  V30 101 1 33 102
M  V30 102 1 34 103
M  V30 103 1 34 104
M  V30 104 1 35 105
M  V30 105 1 35 106
M  V30 106 1 35 107
M  V30 107 1 36 108
M  V30 108 1 36 109
M  V30 109 1 36 110
M  V30 END BOND
M  V30 END CTAB
M  END
>  <Structure No>
4065

>  <LogS>
-8.4746

>  <MMFF94 Energy>
-6.8432

$$$$
Compound 4066
Actelion Java MolfileCreator 2.0

  0  0  0  0  0  0              0 V3000
M  V30 BEGIN CTAB
M  V30 COUNTS 8 7 0 0 0
M  V30 BEGIN ATOM
M  V30 1 Cl 1.7512 -1.2646 0.1944 0
M  V30 2 C 0.6359 0.1242 0.2256 0
M  V30 3 Cl 1.2453 1.357 -0.9111 0
M  V30 4 Cl 0.6298 0.8003 1.8767 0
M  V30 5 C -0.7665 -0.3425 -0.1771 0
M  V30 6 Cl -1.9518 0.9952 -0.1717 0
M  V30 7 H -1.1187 -1.1253 0.5278 0
M  V30 8 H -0.7378 -0.7809 -1.1973 0
M  V30 END ATOM
M  V30 BEGIN BOND
M  V30 1 1 1 2
M  V30 2 1 2 3
M  V30 3 1 2 4
M  V30 4 1 2 5
M  V30 5 1 5 6
M  V30 6 1 5 7
M  V30 7 1 5 8
M  V30 END BOND
M  V30 END CTAB
M  END
>  <Structure No>
4066

>  <LogS>
-2.1955

>  <MMFF94 Energy>
22.249

$$$$
Compound 4067
Actelion Java MolfileCreator 2.0

  0  0  0  0  0  0              0 V3000
M  V30 BEGIN CTAB
M  V30 COUNTS 27 28 0 0 0
M  V30 BEGIN ATOM
M  V30 1 S 0.8388 1.7622 1.6783 0
M  V30 2 O 0.4012 2.8829 2.5779 0
M  V30 3 O 2.1798 2.0992 1.0883 0
M  V30 4 N 0.9837 0.3082 2.6079 0 CHG=-1
M  V30 5 C -0.3596 1.546 0.4068 0
M  V30 6 C 1.3335 -0.9512 2.0316 0
M  V30 7 C -0.1696 2.128 -0.8539 0
M  V30 8 C -1.5105 0.7849 0.652 0
M  V30 9 S 1.4505 -2.3916 2.8508 0
M  V30 10 C 1.634 -1.2284 0.7054 0
M  V30 11 C -1.119 1.9431 -1.8637 0
M  V30 12 C -2.4595 0.5995 -0.3576 0
M  V30 13 N 1.8732 -3.3965 1.5951 0
M  V30 14 C 1.9199 -2.596 0.4954 0
M  V30 15 C -2.2679 1.1768 -1.6208 0
M  V30 16 C 2.3027 -3.1331 -0.8442 0
M  V30 17 N -3.2381 0.9865 -2.654 0
M  V30 18 H 0.7115 2.7226 -1.057 0
M  V30 19 H -1.6714 0.3331 1.6225 0
M  V30 20 H 1.6516 -0.487 -0.0822 0
M  V30 21 H -0.9594 2.3959 -2.8341 0
M  V30 22 H -3.3428 0.0065 -0.156 0
M  V30 23 H 2.2259 -4.2409 -0.8513 0
M  V30 24 H 3.348 -2.8405 -1.0754 0
M  V30 25 H 1.6264 -2.724 -1.6241 0
M  V30 26 H -3.1042 1.4128 -3.598 0
M  V30 27 H -4.0971 0.4176 -2.4825 0
M  V30 END ATOM
M  V30 BEGIN BOND
M  V30 1 2 1 2
M  V30 2 2 1 3
M  V30 3 1 1 4
M  V30 4 1 1 5
M  V30 5 1 4 6
M  V30 6 2 5 7
M  V30 7 1 5 8
M  V30 8 1 6 9
M  V30 9 2 6 10
M  V30 10 1 7 11
M  V30 11 2 8 12
M  V30 12 1 9 13
M  V30 13 1 10 14
M  V30 14 2 11 15
M  V30 15 1 14 16
M  V30 16 1 15 17
M  V30 17 1 12 15
M  V30 18 2 13 14
M  V30 19 1 7 18
M  V30 20 1 8 19
M  V30 21 1 10 20
M  V30 22 1 11 21
M  V30 23 1 12 22
M  V30 24 1 16 23
M  V30 25 1 16 24
M  V30 26 1 16 25
M  V30 27 1 17 26
M  V30 28 1 17 27
M  V30 END BOND
M  V30 END CTAB
M  END
>  <Structure No>
4067

>  <LogS>
-1.0762

>  <MMFF94 Energy>
64.037

$$$$
Compound 4068
Actelion Java MolfileCreator 2.0

  0  0  0  0  0  0              0 V3000
M  V30 BEGIN CTAB
M  V30 COUNTS 20 19 0 0 0
M  V30 BEGIN ATOM
M  V30 1 O -0.3069 2.073 -0.5371 0
M  V30 2 C -0.1244 0.8702 -0.2036 0
M  V30 3 N -1.2645 0.0283 0.0506 0
M  V30 4 N 1.2196 0.3675 -0.0851 0
M  V30 5 C -2.4679 0.6111 0.6445 0
M  V30 6 C -1.2448 -1.3962 -0.2866 0
M  V30 7 C 2.2572 0.8771 -0.9817 0
M  V30 8 C 1.5679 -0.6338 0.9246 0
M  V30 9 H -3.2376 -0.1673 0.8347 0
M  V30 10 H -2.2118 1.0927 1.6118 0
M  V30 11 H -2.8968 1.3711 -0.0418 0
M  V30 12 H -2.1918 -1.6789 -0.7936 0
M  V30 13 H -0.4105 -1.6291 -0.9816 0
M  V30 14 H -1.1358 -1.9994 0.6386 0
M  V30 15 H 1.9529 0.7132 -2.0369 0
M  V30 16 H 3.2239 0.3564 -0.8117 0
M  V30 17 H 2.4059 1.9635 -0.807 0
M  V30 18 H 2.5142 -0.3483 1.4309 0
M  V30 19 H 1.7005 -1.6239 0.4411 0
M  V30 20 H 0.7794 -0.7041 1.7038 0
M  V30 END ATOM
M  V30 BEGIN BOND
M  V30 1 2 1 2
M  V30 2 1 2 3
M  V30 3 1 2 4
M  V30 4 1 3 5
M  V30 5 1 3 6
M  V30 6 1 4 7
M  V30 7 1 4 8
M  V30 8 1 5 9
M  V30 9 1 5 10
M  V30 10 1 5 11
M  V30 11 1 6 12
M  V30 12 1 6 13
M  V30 13 1 6 14
M  V30 14 1 7 15
M  V30 15 1 7 16
M  V30 16 1 7 17
M  V30 17 1 8 18
M  V30 18 1 8 19
M  V30 19 1 8 20
M  V30 END BOND
M  V30 END CTAB
M  END
>  <Structure No>
4068

>  <LogS>
0.9349

>  <MMFF94 Energy>
-59.289

$$$$
Compound 4069
Actelion Java MolfileCreator 2.0

  0  0  0  0  0  0              0 V3000
M  V30 BEGIN CTAB
M  V30 COUNTS 16 16 0 0 0
M  V30 BEGIN ATOM
M  V30 1 Cl -3.8157 -0.3718 -0.4648 0
M  V30 2 C -2.0608 -0.3712 -0.2602 0
M  V30 3 C -1.3359 -1.5552 -0.4595 0
M  V30 4 C -1.3948 0.8139 0.0933 0
M  V30 5 Cl -2.185 -3.0404 -0.9008 0
M  V30 6 C 0.0597 -1.5638 -0.3017 0
M  V30 7 Cl -2.3323 2.3051 0.2662 0
M  V30 8 C 0.0097 0.8201 0.2531 0
M  V30 9 Cl 0.9343 -3.0906 -0.4894 0
M  V30 10 C 0.7424 -0.3799 0.0566 0
M  V30 11 C 0.7101 2.0879 0.572 0
M  V30 12 C 2.2092 -0.4166 0.2701 0
M  V30 13 O 0.3 2.8278 1.505 0
M  V30 14 O 1.8324 2.4695 -0.1536 0 CHG=-1
M  V30 15 O 2.7136 0.0882 1.308 0
M  V30 16 O 3.0432 -1.0048 -0.6728 0 CHG=-1
M  V30 END ATOM
M  V30 BEGIN BOND
M  V30 1 1 1 2
M  V30 2 2 2 3
M  V30 3 1 2 4
M  V30 4 1 3 5
M  V30 5 1 3 6
M  V30 6 1 4 7
M  V30 7 2 4 8
M  V30 8 1 6 9
M  V30 9 2 6 10
M  V30 10 1 8 11
M  V30 11 1 10 12
M  V30 12 2 11 13
M  V30 13 1 11 14
M  V30 14 2 12 15
M  V30 15 1 12 16
M  V30 16 1 8 10
M  V30 END BOND
M  V30 END CTAB
M  END
>  <Structure No>
4069

>  <LogS>
-1.9264

>  <MMFF94 Energy>
85.399

$$$$
Compound 4070
Actelion Java MolfileCreator 2.0

  0  0  0  0  0  0              0 V3000
M  V30 BEGIN CTAB
M  V30 COUNTS 77 80 0 0 0
M  V30 BEGIN ATOM
M  V30 1 O -7.46 2.6422 -2.1614 0
M  V30 2 C -6.4059 2.1537 -1.6767 0
M  V30 3 N -5.4512 1.4521 -2.4501 0
M  V30 4 C -6.0224 2.1619 -0.2616 0
M  V30 5 C -4.512 0.9648 -1.4991 0
M  V30 6 C -4.8786 1.4699 -0.1501 0
M  V30 7 C -6.7612 2.7865 0.8602 0
M  V30 8 C -3.5245 0.1271 -1.8511 0
M  V30 9 C -4.0874 1.3192 1.1223 0
M  V30 10 C -7.6356 3.7765 0.6933 0
M  V30 11 C -2.6563 -0.5734 -0.8962 0
M  V30 12 N -1.3428 -0.3121 -0.7654 0
M  V30 13 C -3.0403 -1.5696 -0.0103 0
M  V30 14 C -0.8722 -1.1236 0.2059 0
M  V30 15 C -1.9011 -1.9198 0.6987 0
M  V30 16 C -4.4062 -2.1688 0.1487 0
M  V30 17 C 0.5254 -1.0456 0.7599 0
M  V30 18 C -1.8408 -2.8536 1.8768 0
M  V30 19 C 1.5205 -0.6762 -0.3016 0
M  V30 20 C -1.9919 -2.0708 3.1834 0
M  V30 21 N 2.0909 0.54 -0.3855 0
M  V30 22 C 1.9554 -1.4847 -1.3453 0
M  V30 23 C -1.9503 -2.996 4.3579 0
M  V30 24 C 2.9146 0.5169 -1.4511 0
M  V30 25 C 2.8334 -0.708 -2.0952 0
M  V30 26 C 1.6019 -2.9354 -1.5577 0
M  V30 27 O -0.8563 -3.2418 4.9317 0
M  V30 28 O -3.1114 -3.6254 4.7897 0 CHG=-1
M  V30 29 C 3.7313 1.6636 -1.8845 0
M  V30 30 C 3.6574 -1.1392 -3.2719 0
M  V30 31 C 2.495 -3.8702 -0.7325 0
M  V30 32 C 4.4142 2.4661 -1.0539 0
M  V30 33 C 3.9075 -3.8726 -1.2292 0
M  V30 34 N 4.9075 3.7325 -1.4787 0
M  V30 35 C 4.6651 2.3097 0.404 0
M  V30 36 O 4.7992 -3.2357 -0.6089 0
M  V30 37 O 4.2329 -4.556 -2.3938 0 CHG=-1
M  V30 38 C 5.3413 4.3556 -0.2833 0
M  V30 39 C 5.1708 3.4617 0.8577 0
M  V30 40 C 4.6196 1.0704 1.2106 0
M  V30 41 O 5.8126 5.5224 -0.2363 0
M  V30 42 C 5.7015 3.7106 2.238 0
M  V30 43 C 5.0313 -0.1021 0.7331 0
M  V30 44 H -5.5083 1.2241 -3.4681 0
M  V30 45 H -6.5735 2.4415 1.8689 0
M  V30 46 H -3.3736 -0.0878 -2.9016 0
M  V30 47 H -4.2523 2.1839 1.7979 0
M  V30 48 H -4.3884 0.3901 1.6486 0
M  V30 49 H -3.0011 1.2984 0.9065 0
M  V30 50 H -7.8392 4.205 -0.2769 0
M  V30 51 H -8.1392 4.1979 1.5537 0
M  V30 52 H -0.8057 0.4153 -1.2893 0
M  V30 53 H -4.7266 -2.0967 1.2093 0
M  V30 54 H -4.3765 -3.2371 -0.1508 0
M  V30 55 H -5.1514 -1.6435 -0.4827 0
M  V30 56 H 0.8241 -2.0171 1.2023 0
M  V30 57 H 0.5442 -0.2867 1.5714 0
M  V30 58 H -0.8781 -3.4063 1.8714 0
M  V30 59 H -2.652 -3.6094 1.7973 0
M  V30 60 H -1.176 -1.3204 3.2746 0
M  V30 61 H -2.9613 -1.5255 3.185 0
M  V30 62 H 1.9193 1.3494 0.2522 0
M  V30 63 H 0.5459 -3.0989 -1.2553 0
M  V30 64 H 1.6607 -3.2002 -2.6337 0
M  V30 65 H 3.7174 1.9098 -2.9389 0
M  V30 66 H 3.1801 -1.9831 -3.8087 0
M  V30 67 H 3.7672 -0.2987 -3.9899 0
M  V30 68 H 4.6655 -1.4481 -2.9232 0
M  V30 69 H 2.0948 -4.9042 -0.8049 0
M  V30 70 H 2.4693 -3.5788 0.3393 0
M  V30 71 H 4.8351 4.1638 -2.4267 0
M  V30 72 H 4.3198 1.1311 2.2482 0
M  V30 73 H 5.9614 4.7817 2.3675 0
M  V30 74 H 6.6134 3.0988 2.4022 0
M  V30 75 H 4.9352 3.4427 2.9955 0
M  V30 76 H 5.0119 -0.9787 1.367 0
M  V30 77 H 5.405 -0.1975 -0.2782 0
M  V30 END ATOM
M  V30 BEGIN BOND
M  V30 1 2 1 2
M  V30 2 1 2 3
M  V30 3 1 2 4
M  V30 4 1 3 5
M  V30 5 2 4 6
M  V30 6 1 4 7
M  V30 7 2 5 8
M  V30 8 1 6 9
M  V30 9 2 7 10
M  V30 10 1 8 11
M  V30 11 1 11 12
M  V30 12 2 11 13
M  V30 13 1 12 14
M  V30 14 1 13 15
M  V30 15 1 13 16
M  V30 16 1 14 17
M  V30 17 1 15 18
M  V30 18 1 17 19
M  V30 19 1 18 20
M  V30 20 1 19 21
M  V30 21 2 19 22
M  V30 22 1 20 23
M  V30 23 1 21 24
M  V30 24 1 22 25
M  V30 25 1 22 26
M  V30 26 2 23 27
M  V30 27 1 23 28
M  V30 28 1 24 29
M  V30 29 1 25 30
M  V30 30 1 26 31
M  V30 31 2 29 32
M  V30 32 1 31 33
M  V30 33 1 32 34
M  V30 34 1 32 35
M  V30 35 2 33 36
M  V30 36 1 33 37
M  V30 37 1 34 38
M  V30 38 2 35 39
M  V30 39 1 35 40
M  V30 40 2 38 41
M  V30 41 1 39 42
M  V30 42 2 40 43
M  V30 43 1 5 6
M  V30 44 2 14 15
M  V30 45 2 24 25
M  V30 46 1 38 39
M  V30 47 1 3 44
M  V30 48 1 7 45
M  V30 49 1 8 46
M  V30 50 1 9 47
M  V30 51 1 9 48
M  V30 52 1 9 49
M  V30 53 1 10 50
M  V30 54 1 10 51
M  V30 55 1 12 52
M  V30 56 1 16 53
M  V30 57 1 16 54
M  V30 58 1 16 55
M  V30 59 1 17 56
M  V30 60 1 17 57
M  V30 61 1 18 58
M  V30 62 1 18 59
M  V30 63 1 20 60
M  V30 64 1 20 61
M  V30 65 1 21 62
M  V30 66 1 26 63
M  V30 67 1 26 64
M  V30 68 1 29 65
M  V30 69 1 30 66
M  V30 70 1 30 67
M  V30 71 1 30 68
M  V30 72 1 31 69
M  V30 73 1 31 70
M  V30 74 1 34 71
M  V30 75 1 40 72
M  V30 76 1 42 73
M  V30 77 1 42 74
M  V30 78 1 42 75
M  V30 79 1 43 76
M  V30 80 1 43 77
M  V30 END BOND
M  V30 END CTAB
M  END
>  <Structure No>
4070

>  <LogS>
-4.8127

>  <MMFF94 Energy>
32.064

$$$$
Compound 4071
Actelion Java MolfileCreator 2.0

  0  0  0  0  0  0              0 V3000
M  V30 BEGIN CTAB
M  V30 COUNTS 22 24 0 0 0
M  V30 BEGIN ATOM
M  V30 1 O -4.588 1.1455 0.8999 0
M  V30 2 C -3.5327 0.7121 0.3661 0
M  V30 3 C -2.2973 0.9371 0.9906 0
M  V30 4 C -3.6069 0.0089 -0.8485 0
M  V30 5 C -1.1268 0.4592 0.4033 0
M  V30 6 C -2.4529 -0.4858 -1.4682 0
M  V30 7 O 0.0598 0.6516 0.9631 0
M  V30 8 C -1.2094 -0.2795 -0.8737 0
M  V30 9 C 1.1781 0.1958 0.4032 0
M  V30 10 N -0.0642 -0.7381 -1.433 0
M  V30 11 C 1.1307 -0.5171 -0.8231 0
M  V30 12 C 2.4107 0.4199 1.0259 0
M  V30 13 C 2.3141 -0.9903 -1.3998 0
M  V30 14 C 3.5895 -0.0571 0.4414 0
M  V30 15 C 3.5403 -0.76 -0.7679 0
M  V30 16 O 4.8115 0.1676 1.0632 0 CHG=-1
M  V30 17 H -2.2495 1.4802 1.9269 0
M  V30 18 H -4.5693 -0.1557 -1.3174 0
M  V30 19 H -2.5306 -1.0252 -2.4039 0
M  V30 20 H 2.4538 0.9633 1.9617 0
M  V30 21 H 2.2865 -1.5352 -2.3353 0
M  V30 22 H 4.4535 -1.1281 -1.2179 0
M  V30 END ATOM
M  V30 BEGIN BOND
M  V30 1 2 1 2
M  V30 2 1 2 3
M  V30 3 1 2 4
M  V30 4 2 3 5
M  V30 5 2 4 6
M  V30 6 1 5 7
M  V30 7 1 5 8
M  V30 8 1 7 9
M  V30 9 2 8 10
M  V30 10 2 9 11
M  V30 11 1 9 12
M  V30 12 1 11 13
M  V30 13 2 12 14
M  V30 14 2 13 15
M  V30 15 1 14 16
M  V30 16 1 6 8
M  V30 17 1 10 11
M  V30 18 1 14 15
M  V30 19 1 3 17
M  V30 20 1 4 18
M  V30 21 1 6 19
M  V30 22 1 12 20
M  V30 23 1 13 21
M  V30 24 1 15 22
M  V30 END BOND
M  V30 END CTAB
M  END
>  <Structure No>
4071

>  <LogS>
-1.0277

>  <MMFF94 Energy>
7.3329

$$$$
Compound 4072
Actelion Java MolfileCreator 2.0

  0  0  0  0  0  0              0 V3000
M  V30 BEGIN CTAB
M  V30 COUNTS 15 15 0 0 0
M  V30 BEGIN ATOM
M  V30 1 S 3.6769 0.0798 0.2394 0
M  V30 2 C 2.041 0.0515 0.1329 0
M  V30 3 N 1.3957 -1.1176 -0.1354 0
M  V30 4 N 1.3274 1.1976 0.3103 0
M  V30 5 C 0.0385 -1.1626 -0.2285 0
M  V30 6 C -0.0286 1.1952 0.2256 0
M  V30 7 O -0.5335 -2.2573 -0.4837 0
M  V30 8 C -0.7158 0.0057 -0.0412 0
M  V30 9 C -2.2149 -0.0076 -0.153 0
M  V30 10 H 1.9462 -1.996 -0.2745 0
M  V30 11 H 1.8183 2.0979 0.5133 0
M  V30 12 H -0.5722 2.1218 0.367 0
M  V30 13 H -2.5071 -0.2209 -1.2026 0
M  V30 14 H -2.6535 0.9682 0.1458 0
M  V30 15 H -2.6358 -0.7934 0.5092 0
M  V30 END ATOM
M  V30 BEGIN BOND
M  V30 1 2 1 2
M  V30 2 1 2 3
M  V30 3 1 2 4
M  V30 4 1 3 5
M  V30 5 1 4 6
M  V30 6 2 5 7
M  V30 7 1 5 8
M  V30 8 1 8 9
M  V30 9 2 6 8
M  V30 10 1 3 10
M  V30 11 1 4 11
M  V30 12 1 6 12
M  V30 13 1 9 13
M  V30 14 1 9 14
M  V30 15 1 9 15
M  V30 END BOND
M  V30 END CTAB
M  END
>  <Structure No>
4072

>  <LogS>
-2.4461

>  <MMFF94 Energy>
-73.836

$$$$
Compound 4073
Actelion Java MolfileCreator 2.0

  0  0  0  0  0  0              0 V3000
M  V30 BEGIN CTAB
M  V30 COUNTS 18 18 0 0 0
M  V30 BEGIN ATOM
M  V30 1 O 2.7287 2.0861 -0.4811 0
M  V30 2 C 2.4368 0.8603 -0.4984 0
M  V30 3 O 3.4575 -0.0721 -0.6374 0 CHG=-1
M  V30 4 C 1.03 0.4153 -0.3761 0
M  V30 5 C 0.0251 1.303 -0.3177 0
M  V30 6 C 0.6871 -1.0574 -0.3777 0
M  V30 7 C -1.3916 0.8189 -0.2223 0
M  V30 8 C -0.4096 -1.3935 0.6562 0
M  V30 9 C -1.4927 -0.2969 0.8253 0
M  V30 10 H 0.2166 2.3692 -0.3068 0
M  V30 11 H 1.5812 -1.6795 -0.1614 0
M  V30 12 H 0.3277 -1.3306 -1.3937 0
M  V30 13 H -1.71 0.427 -1.2125 0
M  V30 14 H -2.0624 1.661 0.0524 0
M  V30 15 H 0.0737 -1.5693 1.6423 0
M  V30 16 H -0.8939 -2.3493 0.3601 0
M  V30 17 H -2.5038 -0.7558 0.7728 0
M  V30 18 H -1.3914 0.1594 1.8349 0
M  V30 END ATOM
M  V30 BEGIN BOND
M  V30 1 2 1 2
M  V30 2 1 2 3
M  V30 3 1 2 4
M  V30 4 2 4 5
M  V30 5 1 4 6
M  V30 6 1 5 7
M  V30 7 1 6 8
M  V30 8 1 7 9
M  V30 9 1 8 9
M  V30 10 1 5 10
M  V30 11 1 6 11
M  V30 12 1 6 12
M  V30 13 1 7 13
M  V30 14 1 7 14
M  V30 15 1 8 15
M  V30 16 1 8 16
M  V30 17 1 9 17
M  V30 18 1 9 18
M  V30 END BOND
M  V30 END CTAB
M  END
>  <Structure No>
4073

>  <LogS>
-1.2558

>  <MMFF94 Energy>
4.2972

$$$$
Compound 4074
Actelion Java MolfileCreator 2.0

  0  0  0  0  0  0              0 V3000
M  V30 BEGIN CTAB
M  V30 COUNTS 14 14 0 0 0
M  V30 BEGIN ATOM
M  V30 1 O 3.5848 -0.3182 0.7161 0
M  V30 2 N 2.7637 0.554 0.3646 0
M  V30 3 C 1.3738 0.2585 0.1943 0
M  V30 4 C 0.8681 -1.0341 0.4165 0
M  V30 5 C 0.502 1.2804 -0.2018 0
M  V30 6 C -0.4947 -1.2948 0.2425 0
M  V30 7 C -0.8605 1.018 -0.3752 0
M  V30 8 C -1.3624 -0.2716 -0.1532 0
M  V30 9 O -2.7176 -0.5454 -0.3226 0
M  V30 10 H 1.524 -1.8386 0.7232 0
M  V30 11 H 0.8801 2.2801 -0.3757 0
M  V30 12 H -0.8771 -2.2927 0.4154 0
M  V30 13 H -1.5243 1.8164 -0.6818 0
M  V30 14 H -3.3714 0.174 -0.6085 0
M  V30 END ATOM
M  V30 BEGIN BOND
M  V30 1 2 1 2
M  V30 2 1 2 3
M  V30 3 2 3 4
M  V30 4 1 3 5
M  V30 5 1 4 6
M  V30 6 2 5 7
M  V30 7 2 6 8
M  V30 8 1 8 9
M  V30 9 1 7 8
M  V30 10 1 4 10
M  V30 11 1 5 11
M  V30 12 1 6 12
M  V30 13 1 7 13
M  V30 14 1 9 14
M  V30 END BOND
M  V30 END CTAB
M  END
>  <Structure No>
4074

>  <LogS>
-1.5462

>  <MMFF94 Energy>
11.041

$$$$
Compound 4075
Actelion Java MolfileCreator 2.0

  0  0  0  0  0  0              0 V3000
M  V30 BEGIN CTAB
M  V30 COUNTS 20 19 0 0 0
M  V30 BEGIN ATOM
M  V30 1 O 0.7732 -1.3147 1.3147 0
M  V30 2 C 0.9292 -0.2639 0.6348 0
M  V30 3 O -0.1289 0.2751 -0.1054 0
M  V30 4 C 2.2742 0.3856 0.5712 0
M  V30 5 C -1.4522 -0.2608 -0.095 0
M  V30 6 C 3.0638 -0.1348 -0.6235 0
M  V30 7 C -2.1637 0.1106 1.2091 0
M  V30 8 C -2.2177 0.2891 -1.2967 0
M  V30 9 H 2.1474 1.4855 0.4787 0
M  V30 10 H 2.8381 0.179 1.5066 0
M  V30 11 H -1.4105 -1.3688 -0.1895 0
M  V30 12 H 4.0567 0.3608 -0.657 0
M  V30 13 H 2.5237 0.0867 -1.569 0
M  V30 14 H 3.2166 -1.2318 -0.5365 0
M  V30 15 H -2.1972 1.2145 1.3306 0
M  V30 16 H -1.627 -0.326 2.0767 0
M  V30 17 H -3.2012 -0.2864 1.2079 0
M  V30 18 H -2.2804 1.3973 -1.2437 0
M  V30 19 H -1.6945 0.0068 -2.2347 0
M  V30 20 H -3.2449 -0.1329 -1.3265 0
M  V30 END ATOM
M  V30 BEGIN BOND
M  V30 1 2 1 2
M  V30 2 1 2 3
M  V30 3 1 2 4
M  V30 4 1 3 5
M  V30 5 1 4 6
M  V30 6 1 5 7
M  V30 7 1 5 8
M  V30 8 1 4 9
M  V30 9 1 4 10
M  V30 10 1 5 11
M  V30 11 1 6 12
M  V30 12 1 6 13
M  V30 13 1 6 14
M  V30 14 1 7 15
M  V30 15 1 7 16
M  V30 16 1 7 17
M  V30 17 1 8 18
M  V30 18 1 8 19
M  V30 19 1 8 20
M  V30 END BOND
M  V30 END CTAB
M  END
>  <Structure No>
4075

>  <LogS>
-1.2906

>  <MMFF94 Energy>
-9.5165

$$$$
Compound 4076
Actelion Java MolfileCreator 2.0

  0  0  0  0  0  0              0 V3000
M  V30 BEGIN CTAB
M  V30 COUNTS 21 20 0 0 0
M  V30 BEGIN ATOM
M  V30 1 O 0.4603 -0.3836 0.8441 0
M  V30 2 C -0.7665 -0.0782 0.1811 0
M  V30 3 C 1.5907 0.2868 0.3163 0
M  V30 4 C -1.0113 1.4425 0.0169 0
M  V30 5 C -0.8449 -0.7879 -1.1887 0
M  V30 6 C -1.8868 -0.6417 1.072 0
M  V30 7 C 2.8508 -0.3879 0.8349 0
M  V30 8 H 1.6256 0.2601 -0.7922 0
M  V30 9 H 1.6031 1.3433 0.6621 0
M  V30 10 H -0.313 1.8873 -0.723 0
M  V30 11 H -0.8787 1.9613 0.9905 0
M  V30 12 H -2.0433 1.6362 -0.3479 0
M  V30 13 H -1.877 -0.7368 -1.5983 0
M  V30 14 H -0.5594 -1.8564 -1.0839 0
M  V30 15 H -0.1764 -0.3157 -1.9367 0
M  V30 16 H -2.8885 -0.4614 0.6245 0
M  V30 17 H -1.7562 -1.7369 1.2108 0
M  V30 18 H -1.8586 -0.1629 2.0747 0
M  V30 19 H 3.7475 0.1371 0.4432 0
M  V30 20 H 2.8708 -0.3552 1.945 0
M  V30 21 H 2.8785 -1.4468 0.501 0
M  V30 END ATOM
M  V30 BEGIN BOND
M  V30 1 1 1 2
M  V30 2 1 1 3
M  V30 3 1 2 4
M  V30 4 1 2 5
M  V30 5 1 2 6
M  V30 6 1 3 7
M  V30 7 1 3 8
M  V30 8 1 3 9
M  V30 9 1 4 10
M  V30 10 1 4 11
M  V30 11 1 4 12
M  V30 12 1 5 13
M  V30 13 1 5 14
M  V30 14 1 5 15
M  V30 15 1 6 16
M  V30 16 1 6 17
M  V30 17 1 6 18
M  V30 18 1 7 19
M  V30 19 1 7 20
M  V30 20 1 7 21
M  V30 END BOND
M  V30 END CTAB
M  END
>  <Structure No>
4076

>  <LogS>
-0.9302

>  <MMFF94 Energy>
14.703

$$$$
Compound 4077
Actelion Java MolfileCreator 2.0

  0  0  0  0  0  0              0 V3000
M  V30 BEGIN CTAB
M  V30 COUNTS 22 22 0 0 0
M  V30 BEGIN ATOM
M  V30 1 S 0.8301 1.4946 -1.0793 0
M  V30 2 C 1.4043 -0.2209 -1.3593 0 CFG=2
M  V30 3 C -0.145 1.2107 0.4453 0 CFG=2
M  V30 4 S 0.0176 -1.4044 -1.5283 0
M  V30 5 C 2.4562 -0.6727 -0.345 0
M  V30 6 N -1.2558 0.2826 0.2014 0
M  V30 7 C -0.7063 2.5455 0.9259 0
M  V30 8 C -0.7942 -1.1059 0.0867 0 CFG=1
M  V30 9 C -1.9918 -2.0422 0.2153 0
M  V30 10 H 1.9084 -0.2089 -2.3485 0
M  V30 11 H 0.5138 0.8336 1.256 0
M  V30 12 H 2.8323 -1.6802 -0.6212 0
M  V30 13 H 3.3126 0.0339 -0.3557 0
M  V30 14 H 2.0575 -0.7205 0.6848 0
M  V30 15 H -1.7589 0.5594 -0.675 0
M  V30 16 H 0.123 3.252 1.1428 0
M  V30 17 H -1.3672 2.9911 0.1519 0
M  V30 18 H -1.294 2.3962 1.8566 0
M  V30 19 H -0.1013 -1.3615 0.9161 0
M  V30 20 H -1.6568 -3.0997 0.159 0
M  V30 21 H -2.4932 -1.8833 1.194 0
M  V30 22 H -2.7243 -1.8515 -0.598 0
M  V30 END ATOM
M  V30 BEGIN BOND
M  V30 1 1 1 2
M  V30 2 1 1 3
M  V30 3 1 2 4
M  V30 4 1 2 5
M  V30 5 1 3 6
M  V30 6 1 3 7
M  V30 7 1 4 8
M  V30 8 1 8 9
M  V30 9 1 6 8
M  V30 10 1 2 10
M  V30 11 1 3 11
M  V30 12 1 5 12
M  V30 13 1 5 13
M  V30 14 1 5 14
M  V30 15 1 6 15
M  V30 16 1 7 16
M  V30 17 1 7 17
M  V30 18 1 7 18
M  V30 19 1 8 19
M  V30 20 1 9 20
M  V30 21 1 9 21
M  V30 22 1 9 22
M  V30 END BOND
M  V30 BEGIN COLLECTION
M  V30 MDLV30/STEABS ATOMS=(3 2 3 8)
M  V30 END COLLECTION
M  V30 END CTAB
M  END
>  <Structure No>
4077

>  <LogS>
-1.3679

>  <MMFF94 Energy>
-72.183

$$$$
Compound 4078
Actelion Java MolfileCreator 2.0

  0  0  0  0  0  0              0 V3000
M  V30 BEGIN CTAB
M  V30 COUNTS 18 17 0 0 0
M  V30 BEGIN ATOM
M  V30 1 O 0.4692 -1.0952 -1.4866 0
M  V30 2 C 0.1286 -0.3455 -0.5312 0
M  V30 3 N 1.1266 0.3195 0.26 0
M  V30 4 N -1.2611 -0.147 -0.2254 0
M  V30 5 C 2.5414 0.1902 0.0481 0
M  V30 6 C -2.3411 -0.7637 -0.9443 0
M  V30 7 O 2.9941 -0.556 -0.8615 0
M  V30 8 C 3.493 0.9317 0.9301 0
M  V30 9 O -2.1145 -1.5542 -1.9 0
M  V30 10 C -3.7532 -0.484 -0.5428 0
M  V30 11 H 0.804 0.9369 1.0389 0
M  V30 12 H -1.503 0.4861 0.5699 0
M  V30 13 H 4.5349 0.8245 0.56 0
M  V30 14 H 3.2271 2.0095 0.9434 0
M  V30 15 H 3.4325 0.5276 1.9621 0
M  V30 16 H -4.4635 -0.9335 -1.2691 0
M  V30 17 H -3.944 -0.9135 0.4626 0
M  V30 18 H -3.9217 0.6127 -0.5097 0
M  V30 END ATOM
M  V30 BEGIN BOND
M  V30 1 2 1 2
M  V30 2 1 2 3
M  V30 3 1 2 4
M  V30 4 1 3 5
M  V30 5 1 4 6
M  V30 6 2 5 7
M  V30 7 1 5 8
M  V30 8 2 6 9
M  V30 9 1 6 10
M  V30 10 1 3 11
M  V30 11 1 4 12
M  V30 12 1 8 13
M  V30 13 1 8 14
M  V30 14 1 8 15
M  V30 15 1 10 16
M  V30 16 1 10 17
M  V30 17 1 10 18
M  V30 END BOND
M  V30 END CTAB
M  END
>  <Structure No>
4078

>  <LogS>
-0.3137

>  <MMFF94 Energy>
-91.282

$$$$
Compound 4079
Actelion Java MolfileCreator 2.0

  0  0  0  0  0  0              0 V3000
M  V30 BEGIN CTAB
M  V30 COUNTS 40 39 0 0 0
M  V30 BEGIN ATOM
M  V30 1 O -6.9048 0.7827 -1.3309 0
M  V30 2 C -5.9263 -0.0082 -1.3782 0
M  V30 3 O -5.6856 -0.7369 -2.5362 0 CHG=-1
M  V30 4 C -4.995 -0.1248 -0.213 0
M  V30 5 C -3.8339 0.8683 -0.3555 0
M  V30 6 C -2.9101 0.8811 0.8731 0
M  V30 7 C -2.0041 -0.3599 0.9427 0
M  V30 8 C -1.1164 -0.3814 2.2005 0
M  V30 9 C -0.1177 0.7879 2.3214 0
M  V30 10 C 0.8276 0.967 1.12 0
M  V30 11 C 1.7232 -0.2568 0.8781 0
M  V30 12 C 2.7479 0.0222 -0.2281 0
M  V30 13 C 3.6399 -1.2038 -0.4735 0
M  V30 14 C 4.5999 -1.0079 -1.6571 0
M  V30 15 C 5.7135 -0.0052 -1.3556 0
M  V30 16 H -4.6115 -1.1653 -0.1729 0
M  V30 17 H -5.5547 0.0767 0.7264 0
M  V30 18 H -3.244 0.6352 -1.2695 0
M  V30 19 H -4.2542 1.8912 -0.4788 0
M  V30 20 H -3.5159 0.9653 1.802 0
M  V30 21 H -2.2747 1.789 0.8003 0
M  V30 22 H -1.3783 -0.4296 0.0282 0
M  V30 23 H -2.6346 -1.2727 0.9731 0
M  V30 24 H -1.7714 -0.375 3.0991 0
M  V30 25 H -0.5598 -1.3424 2.228 0
M  V30 26 H -0.6758 1.7346 2.4822 0
M  V30 27 H 0.4947 0.6296 3.2359 0
M  V30 28 H 0.2461 1.2031 0.2038 0
M  V30 29 H 1.4732 1.8482 1.3292 0
M  V30 30 H 2.2581 -0.5157 1.8183 0
M  V30 31 H 1.096 -1.1225 0.5751 0
M  V30 32 H 2.2112 0.2835 -1.1668 0
M  V30 33 H 3.3771 0.8866 0.0741 0
M  V30 34 H 2.9927 -2.0797 -0.6994 0
M  V30 35 H 4.2191 -1.4413 0.4458 0
M  V30 36 H 5.069 -1.9876 -1.8936 0
M  V30 37 H 4.0361 -0.6797 -2.5573 0
M  V30 38 H 6.4383 0.004 -2.1967 0
M  V30 39 H 6.2534 -0.2906 -0.4277 0
M  V30 40 H 5.3015 1.019 -1.2446 0
M  V30 END ATOM
M  V30 BEGIN BOND
M  V30 1 2 1 2
M  V30 2 1 2 3
M  V30 3 1 2 4
M  V30 4 1 4 5
M  V30 5 1 5 6
M  V30 6 1 6 7
M  V30 7 1 7 8
M  V30 8 1 8 9
M  V30 9 1 9 10
M  V30 10 1 10 11
M  V30 11 1 11 12
M  V30 12 1 12 13
M  V30 13 1 13 14
M  V30 14 1 14 15
M  V30 15 1 4 16
M  V30 16 1 4 17
M  V30 17 1 5 18
M  V30 18 1 5 19
M  V30 19 1 6 20
M  V30 20 1 6 21
M  V30 21 1 7 22
M  V30 22 1 7 23
M  V30 23 1 8 24
M  V30 24 1 8 25
M  V30 25 1 9 26
M  V30 26 1 9 27
M  V30 27 1 10 28
M  V30 28 1 10 29
M  V30 29 1 11 30
M  V30 30 1 11 31
M  V30 31 1 12 32
M  V30 32 1 12 33
M  V30 33 1 13 34
M  V30 34 1 13 35
M  V30 35 1 14 36
M  V30 36 1 14 37
M  V30 37 1 15 38
M  V30 38 1 15 39
M  V30 39 1 15 40
M  V30 END BOND
M  V30 END CTAB
M  END
>  <Structure No>
4079

>  <LogS>
-3.8126

>  <MMFF94 Energy>
1.5063

$$$$
Compound 4080
Actelion Java MolfileCreator 2.0

  0  0  0  0  0  0              0 V3000
M  V30 BEGIN CTAB
M  V30 COUNTS 9 8 0 0 0
M  V30 BEGIN ATOM
M  V30 1 F -1.0802 -1.0802 -1.3118 0
M  V30 2 C -1.0959 -0.1225 -0.3155 0
M  V30 3 C 0.1501 -0.2322 0.5013 0
M  V30 4 O 0.1264 -0.8421 1.6034 0
M  V30 5 N 1.3778 0.3122 0.0188 0
M  V30 6 H -1.9913 -0.2748 0.3239 0
M  V30 7 H -1.1576 0.8855 -0.7765 0
M  V30 8 H 1.417 0.8012 -0.9028 0
M  V30 9 H 2.2517 0.224 0.5834 0
M  V30 END ATOM
M  V30 BEGIN BOND
M  V30 1 1 1 2
M  V30 2 1 2 3
M  V30 3 2 3 4
M  V30 4 1 3 5
M  V30 5 1 2 6
M  V30 6 1 2 7
M  V30 7 1 5 8
M  V30 8 1 5 9
M  V30 END BOND
M  V30 END CTAB
M  END
>  <Structure No>
4080

>  <LogS>
1.1132

>  <MMFF94 Energy>
2.5773

$$$$
Compound 4081
Actelion Java MolfileCreator 2.0

  0  0  0  0  0  0              0 V3000
M  V30 BEGIN CTAB
M  V30 COUNTS 74 77 0 0 0
M  V30 BEGIN ATOM
M  V30 1 O 7.4414 -1.5334 2.2603 0
M  V30 2 C 7.4814 -1.5102 1.0013 0
M  V30 3 O 7.5335 -2.704 0.2912 0 CHG=-1
M  V30 4 C 7.4635 -0.2028 0.2737 0
M  V30 5 N 6.1991 0.4971 0.4935 0
M  V30 6 C 5.9414 1.7751 -0.1024 0
M  V30 7 O 6.7885 2.2965 -0.8784 0
M  V30 8 C 4.6614 2.5022 0.1876 0
M  V30 9 C 3.7037 2.5283 -1.023 0
M  V30 10 C 2.9148 1.21 -1.2944 0 CFG=2
M  V30 11 C 2.1025 0.6361 -0.0573 0 CFG=2
M  V30 12 C 3.8807 0.1576 -1.8999 0
M  V30 13 C 0.8816 -0.2969 -0.3951 0 CFG=2
M  V30 14 C 1.4244 1.7266 0.8034 0
M  V30 15 C -0.2568 0.714 -0.6797 0 CFG=2
M  V30 16 C 0.5592 -1.2015 0.8572 0
M  V30 17 C 1.0946 -1.2165 -1.6221 0
M  V30 18 C -0.0046 1.8792 0.2941 0
M  V30 19 C -1.7044 0.0894 -0.7177 0 CFG=2
M  V30 20 C -0.8835 -1.1079 1.383 0
M  V30 21 C -2.8719 1.131 -0.6685 0 CFG=2
M  V30 22 C -1.9002 -1.1552 0.2224 0 CFG=1
M  V30 23 O -2.4581 2.4074 -1.0839 0
M  V30 24 C -3.5265 1.2388 0.7121 0
M  V30 25 C -3.4001 -1.4042 0.658 0 CFG=1
M  V30 26 C -4.0047 -0.1121 1.3176 0 CFG=2
M  V30 27 C -4.2179 -1.8667 -0.6005 0
M  V30 28 C -3.472 -2.5757 1.6857 0
M  V30 29 C -5.5466 -0.1791 1.4557 0
M  V30 30 C -5.744 -1.8635 -0.4121 0
M  V30 31 C -6.2642 -0.5371 0.1452 0 CFG=2
M  V30 32 O -6.1131 0.4786 -0.8107 0
M  V30 33 H 7.6018 -0.3813 -0.8132 0
M  V30 34 H 8.3031 0.4248 0.6405 0
M  V30 35 H 5.4566 0.06 1.0859 0
M  V30 36 H 4.9198 3.5509 0.4501 0
M  V30 37 H 4.174 2.0685 1.0836 0
M  V30 38 H 2.9857 3.3656 -0.8992 0
M  V30 39 H 4.2746 2.8184 -1.9331 0
M  V30 40 H 2.188 1.4753 -2.0915 0
M  V30 41 H 2.8348 0.0958 0.5835 0
M  V30 42 H 4.2506 -0.5499 -1.13 0
M  V30 43 H 3.3963 -0.4188 -2.711 0
M  V30 44 H 4.7641 0.628 -2.3813 0
M  V30 45 H 1.3888 1.3742 1.8582 0
M  V30 46 H 1.9288 2.7068 0.8488 0
M  V30 47 H -0.085 1.1427 -1.6947 0
M  V30 48 H 1.2277 -0.9776 1.7163 0
M  V30 49 H 0.7675 -2.2707 0.6265 0
M  V30 50 H 1.1713 -0.6366 -2.5642 0
M  V30 51 H 1.9993 -1.8449 -1.4829 0
M  V30 52 H 0.2344 -1.9042 -1.7534 0
M  V30 53 H -0.6914 1.8797 1.1558 0
M  V30 54 H -0.1047 2.8538 -0.2325 0
M  V30 55 H -1.7749 -0.3323 -1.7472 0
M  V30 56 H -1.0044 -1.9659 2.0714 0
M  V30 57 H -1.026 -0.1896 1.9866 0
M  V30 58 H -3.6716 0.8188 -1.3696 0
M  V30 59 H -1.6145 -2.0584 -0.3649 0
M  V30 60 H -2.2909 2.3535 -2.0615 0
M  V30 61 H -4.3692 1.9595 0.6364 0
M  V30 62 H -2.8208 1.7137 1.4199 0
M  V30 63 H -3.6329 -0.0828 2.3678 0
M  V30 64 H -3.984 -1.2718 -1.4996 0
M  V30 65 H -3.9129 -2.9 -0.878 0
M  V30 66 H -3.0789 -2.2815 2.6816 0
M  V30 67 H -4.5127 -2.9101 1.867 0
M  V30 68 H -2.8977 -3.455 1.3202 0
M  V30 69 H -5.9435 0.7823 1.8485 0
M  V30 70 H -5.8096 -0.944 2.2188 0
M  V30 71 H -6.2278 -2.0586 -1.3944 0
M  V30 72 H -6.0516 -2.6938 0.2571 0
M  V30 73 H -7.3495 -0.6705 0.3658 0
M  V30 74 H -6.689 1.2336 -0.5221 0
M  V30 END ATOM
M  V30 BEGIN BOND
M  V30 1 2 1 2
M  V30 2 1 2 3
M  V30 3 1 2 4
M  V30 4 1 4 5
M  V30 5 1 5 6
M  V30 6 2 6 7
M  V30 7 1 6 8
M  V30 8 1 8 9
M  V30 9 1 9 10
M  V30 10 1 10 11
M  V30 11 1 10 12
M  V30 12 1 11 13
M  V30 13 1 11 14
M  V30 14 1 13 15
M  V30 15 1 13 16
M  V30 16 1 13 17
M  V30 17 1 14 18
M  V30 18 1 15 19
M  V30 19 1 16 20
M  V30 20 1 19 21
M  V30 21 1 19 22
M  V30 22 1 21 23
M  V30 23 1 21 24
M  V30 24 1 22 25
M  V30 25 1 24 26
M  V30 26 1 25 27
M  V30 27 1 25 28
M  V30 28 1 26 29
M  V30 29 1 27 30
M  V30 30 1 29 31
M  V30 31 1 31 32
M  V30 32 1 15 18
M  V30 33 1 20 22
M  V30 34 1 25 26
M  V30 35 1 30 31
M  V30 36 1 4 33
M  V30 37 1 4 34
M  V30 38 1 5 35
M  V30 39 1 8 36
M  V30 40 1 8 37
M  V30 41 1 9 38
M  V30 42 1 9 39
M  V30 43 1 10 40
M  V30 44 1 11 41
M  V30 45 1 12 42
M  V30 46 1 12 43
M  V30 47 1 12 44
M  V30 48 1 14 45
M  V30 49 1 14 46
M  V30 50 1 15 47
M  V30 51 1 16 48
M  V30 52 1 16 49
M  V30 53 1 17 50
M  V30 54 1 17 51
M  V30 55 1 17 52
M  V30 56 1 18 53
M  V30 57 1 18 54
M  V30 58 1 19 55
M  V30 59 1 20 56
M  V30 60 1 20 57
M  V30 61 1 21 58
M  V30 62 1 22 59
M  V30 63 1 23 60
M  V30 64 1 24 61
M  V30 65 1 24 62
M  V30 66 1 26 63
M  V30 67 1 27 64
M  V30 68 1 27 65
M  V30 69 1 28 66
M  V30 70 1 28 67
M  V30 71 1 28 68
M  V30 72 1 29 69
M  V30 73 1 29 70
M  V30 74 1 30 71
M  V30 75 1 30 72
M  V30 76 1 31 73
M  V30 77 1 32 74
M  V30 END BOND
M  V30 BEGIN COLLECTION
M  V30 MDLV30/STEABS ATOMS=(10 10 11 13 15 19 21 22 25 26 31)
M  V30 END COLLECTION
M  V30 END CTAB
M  END
>  <Structure No>
4081

>  <LogS>
-5.1546

>  <MMFF94 Energy>
136.51

$$$$
Compound 4082
Actelion Java MolfileCreator 2.0

  0  0  0  0  0  0              0 V3000
M  V30 BEGIN CTAB
M  V30 COUNTS 21 21 0 0 0
M  V30 BEGIN ATOM
M  V30 1 O 0.7981 -1.0377 -0.9578 0
M  V30 2 C 0.2727 -0.5004 0.0553 0
M  V30 3 O 1.048 -0.2476 1.1938 0
M  V30 4 C -1.1716 -0.1799 0.0608 0
M  V30 5 O 2.4177 -0.2907 1.2023 0
M  V30 6 C -1.7661 0.4016 1.1957 0
M  V30 7 C -1.9718 -0.4475 -1.0663 0
M  V30 8 C 3.2122 0.2213 0.1712 0
M  V30 9 C -3.1309 0.7067 1.2019 0
M  V30 10 C -3.336 -0.1403 -1.0544 0
M  V30 11 O 2.7203 0.9908 -0.6974 0
M  V30 12 C 4.6755 -0.0629 0.1615 0
M  V30 13 C -3.9151 0.4361 0.0783 0
M  V30 14 H -1.1785 0.6215 2.0783 0
M  V30 15 H -1.5448 -0.8932 -1.956 0
M  V30 16 H -3.5808 1.154 2.079 0
M  V30 17 H -3.9447 -0.3491 -1.9247 0
M  V30 18 H 4.8753 -1.0332 0.6624 0
M  V30 19 H 5.0474 -0.116 -0.8834 0
M  V30 20 H 5.2128 0.744 0.7016 0
M  V30 21 H -4.9713 0.6731 0.0854 0
M  V30 END ATOM
M  V30 BEGIN BOND
M  V30 1 2 1 2
M  V30 2 1 2 3
M  V30 3 1 2 4
M  V30 4 1 3 5
M  V30 5 2 4 6
M  V30 6 1 4 7
M  V30 7 1 5 8
M  V30 8 1 6 9
M  V30 9 2 7 10
M  V30 10 2 8 11
M  V30 11 1 8 12
M  V30 12 2 9 13
M  V30 13 1 10 13
M  V30 14 1 6 14
M  V30 15 1 7 15
M  V30 16 1 9 16
M  V30 17 1 10 17
M  V30 18 1 12 18
M  V30 19 1 12 19
M  V30 20 1 12 20
M  V30 21 1 13 21
M  V30 END BOND
M  V30 END CTAB
M  END
>  <Structure No>
4082

>  <LogS>
-2.4502

>  <MMFF94 Energy>
48.103

$$$$
Compound 4083
Actelion Java MolfileCreator 2.0

  0  0  0  0  0  0              0 V3000
M  V30 BEGIN CTAB
M  V30 COUNTS 22 22 0 0 0
M  V30 BEGIN ATOM
M  V30 1 O 3.9113 0.7031 -0.9376 0
M  V30 2 C 2.6602 0.2668 -0.5078 0
M  V30 3 C 1.9945 -0.734 -1.2228 0
M  V30 4 C 2.0623 0.8216 0.632 0
M  V30 5 C 0.7379 -1.1814 -0.8032 0
M  V30 6 C 0.806 0.3757 1.054 0
M  V30 7 C 0.1369 -0.6335 0.3419 0
M  V30 8 C -1.2287 -1.1 0.7784 0
M  V30 9 C -2.3481 -0.466 -0.0595 0
M  V30 10 C -2.4786 1.0373 0.1825 0
M  V30 11 H 4.4186 1.4268 -0.4416 0
M  V30 12 H 2.4504 -1.1637 -2.1057 0
M  V30 13 H 2.5686 1.5994 1.1896 0
M  V30 14 H 0.2323 -1.953 -1.3704 0
M  V30 15 H 0.3536 0.8197 1.9321 0
M  V30 16 H -1.2846 -2.2051 0.6698 0
M  V30 17 H -1.3937 -0.878 1.8559 0
M  V30 18 H -2.1687 -0.6536 -1.1405 0
M  V30 19 H -3.3109 -0.9509 0.2117 0
M  V30 20 H -1.5686 1.5689 -0.1664 0
M  V30 21 H -3.3502 1.4288 -0.3831 0
M  V30 22 H -2.6351 1.2437 1.2627 0
M  V30 END ATOM
M  V30 BEGIN BOND
M  V30 1 1 1 2
M  V30 2 2 2 3
M  V30 3 1 2 4
M  V30 4 1 3 5
M  V30 5 2 4 6
M  V30 6 2 5 7
M  V30 7 1 7 8
M  V30 8 1 8 9
M  V30 9 1 9 10
M  V30 10 1 6 7
M  V30 11 1 1 11
M  V30 12 1 3 12
M  V30 13 1 4 13
M  V30 14 1 5 14
M  V30 15 1 6 15
M  V30 16 1 8 16
M  V30 17 1 8 17
M  V30 18 1 9 18
M  V30 19 1 9 19
M  V30 20 1 10 20
M  V30 21 1 10 21
M  V30 22 1 10 22
M  V30 END BOND
M  V30 END CTAB
M  END
>  <Structure No>
4083

>  <LogS>
-2.0276

>  <MMFF94 Energy>
7.1314

$$$$
Compound 4084
Actelion Java MolfileCreator 2.0

  0  0  0  0  0  0              0 V3000
M  V30 BEGIN CTAB
M  V30 COUNTS 14 14 0 0 0
M  V30 BEGIN ATOM
M  V30 1 O -0.2341 2.9694 -0.3903 0
M  V30 2 C -0.0641 1.7331 -0.2227 0
M  V30 3 N 1.1846 1.247 -0.011 0
M  V30 4 N -1.1271 0.8861 -0.2535 0
M  V30 5 C 1.3763 -0.0842 0.1704 0
M  V30 6 C -0.937 -0.4488 -0.0719 0
M  V30 7 N 0.3149 -0.9298 0.1396 0
M  V30 8 N 2.6892 -0.5932 0.3927 0
M  V30 9 N -2.0462 -1.3471 -0.1022 0
M  V30 10 H -2.089 1.262 -0.4168 0
M  V30 11 H 2.8428 -1.6165 0.5329 0
M  V30 12 H 3.5094 0.0524 0.4174 0
M  V30 13 H -3.0153 -0.9933 -0.2637 0
M  V30 14 H -1.8988 -2.3714 0.0372 0
M  V30 END ATOM
M  V30 BEGIN BOND
M  V30 1 2 1 2
M  V30 2 1 2 3
M  V30 3 1 2 4
M  V30 4 2 3 5
M  V30 5 1 4 6
M  V30 6 1 5 7
M  V30 7 1 5 8
M  V30 8 1 6 9
M  V30 9 2 6 7
M  V30 10 1 4 10
M  V30 11 1 8 11
M  V30 12 1 8 12
M  V30 13 1 9 13
M  V30 14 1 9 14
M  V30 END BOND
M  V30 END CTAB
M  END
>  <Structure No>
4084

>  <LogS>
-3.2291

>  <MMFF94 Energy>
-276.42

$$$$
Compound 4085
Actelion Java MolfileCreator 2.0

  0  0  0  0  0  0              0 V3000
M  V30 BEGIN CTAB
M  V30 COUNTS 11 11 0 0 0
M  V30 BEGIN ATOM
M  V30 1 O 0.2346 -0.9388 -0.8605 0
M  V30 2 C 1.314 -0.1993 -0.3451 0
M  V30 3 C -0.8655 -0.5437 -0.1086 0
M  V30 4 O 0.872 0.9112 0.3988 0
M  V30 5 C -0.5138 0.793 0.4736 0
M  V30 6 H 1.9326 -0.8544 0.3053 0
M  V30 7 H 1.9455 0.155 -1.1864 0
M  V30 8 H -1.049 -1.2881 0.6973 0
M  V30 9 H -1.7642 -0.4725 -0.7578 0
M  V30 10 H -0.8454 0.8665 1.5316 0
M  V30 11 H -0.9815 1.6103 -0.1172 0
M  V30 END ATOM
M  V30 BEGIN BOND
M  V30 1 1 1 2
M  V30 2 1 1 3
M  V30 3 1 2 4
M  V30 4 1 3 5
M  V30 5 1 4 5
M  V30 6 1 2 6
M  V30 7 1 2 7
M  V30 8 1 3 8
M  V30 9 1 3 9
M  V30 10 1 5 10
M  V30 11 1 5 11
M  V30 END BOND
M  V30 END CTAB
M  END
>  <Structure No>
4085

>  <LogS>
1.1303

>  <MMFF94 Energy>
9.2454

$$$$
Compound 4086
Actelion Java MolfileCreator 2.0

  0  0  0  0  0  0              0 V3000
M  V30 BEGIN CTAB
M  V30 COUNTS 19 18 0 0 0
M  V30 BEGIN ATOM
M  V30 1 O 2.7841 1.6233 -0.1545 0
M  V30 2 C 2.763 0.4153 0.2004 0
M  V30 3 O 3.3508 0.0408 1.4021 0 CHG=-1
M  V30 4 C 2.0774 -0.6095 -0.6502 0
M  V30 5 C 0.701 -0.9867 -0.087 0
M  V30 6 C -0.3096 0.1637 -0.2026 0
M  V30 7 C -1.6912 -0.2632 0.3107 0
M  V30 8 N -2.6513 0.8349 0.204 0 CHG=1
M  V30 9 H 1.9745 -0.2364 -1.6927 0
M  V30 10 H 2.7133 -1.52 -0.6834 0
M  V30 11 H 0.8036 -1.2963 0.9766 0
M  V30 12 H 0.3202 -1.861 -0.6592 0
M  V30 13 H 0.0445 1.0331 0.3927 0
M  V30 14 H -0.395 0.4754 -1.2667 0
M  V30 15 H -1.6115 -0.5791 1.3749 0
M  V30 16 H -2.058 -1.1301 -0.283 0
M  V30 17 H -2.3324 1.6483 0.7793 0
M  V30 18 H -3.5803 0.5128 0.5597 0
M  V30 19 H -2.7542 1.1265 -0.7952 0
M  V30 END ATOM
M  V30 BEGIN BOND
M  V30 1 2 1 2
M  V30 2 1 2 3
M  V30 3 1 2 4
M  V30 4 1 4 5
M  V30 5 1 5 6
M  V30 6 1 6 7
M  V30 7 1 7 8
M  V30 8 1 4 9
M  V30 9 1 4 10
M  V30 10 1 5 11
M  V30 11 1 5 12
M  V30 12 1 6 13
M  V30 13 1 6 14
M  V30 14 1 7 15
M  V30 15 1 7 16
M  V30 16 1 8 17
M  V30 17 1 8 18
M  V30 18 1 8 19
M  V30 END BOND
M  V30 END CTAB
M  END
>  <Structure No>
4086

>  <LogS>
0.9313

>  <MMFF94 Energy>
-42.501

$$$$
Compound 4087
Actelion Java MolfileCreator 2.0

  0  0  0  0  0  0              0 V3000
M  V30 BEGIN CTAB
M  V30 COUNTS 17 16 0 0 0
M  V30 BEGIN ATOM
M  V30 1 O -0.9286 1.0835 -2.0129 0
M  V30 2 C -1.1365 1.2575 -0.7823 0
M  V30 3 O -1.4493 2.5288 -0.3174 0 CHG=-1
M  V30 4 C -1.0069 0.1172 0.1962 0 CFG=1
M  V30 5 N -1.2564 -1.1821 -0.4447 0 CHG=1
M  V30 6 C 0.3472 0.1492 0.9468 0
M  V30 7 C 1.5877 -0.11 0.08 0
M  V30 8 O 1.7755 0.9317 -0.8366 0
M  V30 9 H -1.7971 0.2695 0.9662 0
M  V30 10 H -0.608 -1.3432 -1.2483 0
M  V30 11 H -1.1381 -1.9524 0.2529 0
M  V30 12 H -2.2403 -1.212 -0.7991 0
M  V30 13 H 0.4621 1.1334 1.4526 0
M  V30 14 H 0.3208 -0.6192 1.75 0
M  V30 15 H 1.5026 -1.0833 -0.4491 0
M  V30 16 H 2.4748 -0.1678 0.7496 0
M  V30 17 H 2.5792 0.691 -1.3665 0
M  V30 END ATOM
M  V30 BEGIN BOND
M  V30 1 2 1 2
M  V30 2 1 2 3
M  V30 3 1 2 4
M  V30 4 1 4 5
M  V30 5 1 4 6
M  V30 6 1 6 7
M  V30 7 1 7 8
M  V30 8 1 4 9
M  V30 9 1 5 10
M  V30 10 1 5 11
M  V30 11 1 5 12
M  V30 12 1 6 13
M  V30 13 1 6 14
M  V30 14 1 7 15
M  V30 15 1 7 16
M  V30 16 1 8 17
M  V30 END BOND
M  V30 BEGIN COLLECTION
M  V30 MDLV30/STEABS ATOMS=(1 4)
M  V30 END COLLECTION
M  V30 END CTAB
M  END
>  <Structure No>
4087

>  <LogS>
0.924

>  <MMFF94 Energy>
-21.79

$$$$
Compound 4088
Actelion Java MolfileCreator 2.0

  0  0  0  0  0  0              0 V3000
M  V30 BEGIN CTAB
M  V30 COUNTS 29 29 0 0 0
M  V30 BEGIN ATOM
M  V30 1 O 0.1566 3.9218 -0.0783 0
M  V30 2 C -0.0294 2.5383 -0.138 0
M  V30 3 C 1.419 4.5172 0.1971 0
M  V30 4 N -1.264 2.0432 -0.4059 0
M  V30 5 N 1.0085 1.6847 0.0684 0
M  V30 6 C -1.467 0.7021 -0.4679 0
M  V30 7 C 0.8144 0.3427 0.0067 0
M  V30 8 N -0.4245 -0.1445 -0.2634 0
M  V30 9 N -2.776 0.1934 -0.7545 0
M  V30 10 N 1.9141 -0.5466 0.228 0
M  V30 11 C -3.0711 -1.2361 -0.8316 0
M  V30 12 C 1.7455 -1.9989 0.1812 0
M  V30 13 C -3.1238 -1.8511 0.5629 0
M  V30 14 C 3.0653 -2.7116 0.4567 0
M  V30 15 H 2.1558 4.2237 -0.5802 0
M  V30 16 H 1.3105 5.6213 0.1906 0
M  V30 17 H 1.7803 4.1973 1.1975 0
M  V30 18 H -3.54 0.8722 -0.9735 0
M  V30 19 H 2.8534 -0.1337 0.4306 0
M  V30 20 H -4.0585 -1.3802 -1.3211 0
M  V30 21 H -2.3043 -1.7514 -1.4495 0
M  V30 22 H 0.9991 -2.3098 0.9439 0
M  V30 23 H 1.3751 -2.2963 -0.8235 0
M  V30 24 H -3.3987 -2.9241 0.486 0
M  V30 25 H -3.8858 -1.3295 1.1803 0
M  V30 26 H -2.1354 -1.7745 1.0621 0
M  V30 27 H 2.9117 -3.8106 0.4157 0
M  V30 28 H 3.4428 -2.44 1.4654 0
M  V30 29 H 3.8199 -2.4267 -0.3069 0
M  V30 END ATOM
M  V30 BEGIN BOND
M  V30 1 1 1 2
M  V30 2 1 1 3
M  V30 3 2 2 4
M  V30 4 1 2 5
M  V30 5 1 4 6
M  V30 6 2 5 7
M  V30 7 2 6 8
M  V30 8 1 6 9
M  V30 9 1 7 10
M  V30 10 1 9 11
M  V30 11 1 10 12
M  V30 12 1 11 13
M  V30 13 1 12 14
M  V30 14 1 7 8
M  V30 15 1 3 15
M  V30 16 1 3 16
M  V30 17 1 3 17
M  V30 18 1 9 18
M  V30 19 1 10 19
M  V30 20 1 11 20
M  V30 21 1 11 21
M  V30 22 1 12 22
M  V30 23 1 12 23
M  V30 24 1 13 24
M  V30 25 1 13 25
M  V30 26 1 13 26
M  V30 27 1 14 27
M  V30 28 1 14 28
M  V30 29 1 14 29
M  V30 END BOND
M  V30 END CTAB
M  END
>  <Structure No>
4088

>  <LogS>
-1.7898

>  <MMFF94 Energy>
-244.51

$$$$
Compound 4089
Actelion Java MolfileCreator 2.0

  0  0  0  0  0  0              0 V3000
M  V30 BEGIN CTAB
M  V30 COUNTS 18 17 0 0 0
M  V30 BEGIN ATOM
M  V30 1 S -0.5045 0.0 -0.2522 0
M  V30 2 S 1.1007 -1.354 -0.3204 0
M  V30 3 O -0.1707 1.1552 0.6492 0
M  V30 4 O -0.8017 0.5032 -1.6371 0
M  V30 5 C -1.9346 -0.8542 0.3885 0
M  V30 6 C 2.3489 -0.1405 -0.8764 0
M  V30 7 C -3.1403 0.0746 0.4588 0
M  V30 8 C 3.1151 0.4201 0.3139 0
M  V30 9 H -2.1683 -1.7156 -0.2721 0
M  V30 10 H -1.7023 -1.2377 1.4045 0
M  V30 11 H 1.8877 0.686 -1.4565 0
M  V30 12 H 3.0641 -0.6637 -1.5453 0
M  V30 13 H -2.9271 0.9331 1.1305 0
M  V30 14 H -3.3946 0.4537 -0.5536 0
M  V30 15 H -4.014 -0.4812 0.8596 0
M  V30 16 H 2.4294 0.957 1.0009 0
M  V30 17 H 3.6152 -0.4025 0.8676 0
M  V30 18 H 3.8891 1.1316 -0.0434 0
M  V30 END ATOM
M  V30 BEGIN BOND
M  V30 1 1 1 2
M  V30 2 2 1 3
M  V30 3 2 1 4
M  V30 4 1 1 5
M  V30 5 1 2 6
M  V30 6 1 5 7
M  V30 7 1 6 8
M  V30 8 1 5 9
M  V30 9 1 5 10
M  V30 10 1 6 11
M  V30 11 1 6 12
M  V30 12 1 7 13
M  V30 13 1 7 14
M  V30 14 1 7 15
M  V30 15 1 8 16
M  V30 16 1 8 17
M  V30 17 1 8 18
M  V30 END BOND
M  V30 END CTAB
M  END
>  <Structure No>
4089

>  <LogS>
-1.109

>  <MMFF94 Energy>
-21.549

$$$$
Compound 4090
Actelion Java MolfileCreator 2.0

  0  0  0  0  0  0              0 V3000
M  V30 BEGIN CTAB
M  V30 COUNTS 9 8 0 0 0
M  V30 BEGIN ATOM
M  V30 1 Cl -0.8555 -0.5132 -1.9686 0
M  V30 2 C -1.0738 -0.0034 -0.276 0
M  V30 3 Cl -1.5418 -1.4084 0.7134 0
M  V30 4 C 0.1931 0.5995 0.2493 0
M  V30 5 O 0.1969 1.7944 0.6491 0
M  V30 6 N 1.3983 -0.1655 0.3022 0
M  V30 7 H -1.8967 0.742 -0.2377 0
M  V30 8 H 1.4167 -1.1571 -0.0238 0
M  V30 9 H 2.2773 0.2617 0.6698 0
M  V30 END ATOM
M  V30 BEGIN BOND
M  V30 1 1 1 2
M  V30 2 1 2 3
M  V30 3 1 2 4
M  V30 4 2 4 5
M  V30 5 1 4 6
M  V30 6 1 2 7
M  V30 7 1 6 8
M  V30 8 1 6 9
M  V30 END BOND
M  V30 END CTAB
M  END
>  <Structure No>
4090

>  <LogS>
-0.2558

>  <MMFF94 Energy>
32.375

$$$$
Compound 4091
Actelion Java MolfileCreator 2.0

  0  0  0  0  0  0              0 V3000
M  V30 BEGIN CTAB
M  V30 COUNTS 12 11 0 0 0
M  V30 BEGIN ATOM
M  V30 1 O -0.7768 2.4877 -0.3883 0
M  V30 2 N 0.0722 1.573 -0.4216 0
M  V30 3 N -0.2388 0.2632 -0.0141 0
M  V30 4 C 0.8098 -0.7213 0.0304 0
M  V30 5 C -1.5736 -0.0527 0.5036 0
M  V30 6 O 0.5954 -1.854 0.5409 0
M  V30 7 N 2.1058 -0.4325 -0.4987 0
M  V30 8 H -1.6046 0.1427 1.5958 0
M  V30 9 H -2.3449 0.5658 -0.001 0
M  V30 10 H -1.8279 -1.1169 0.3128 0
M  V30 11 H 2.8615 -1.1518 -0.4528 0
M  V30 12 H 2.3195 0.4852 -0.9469 0
M  V30 END ATOM
M  V30 BEGIN BOND
M  V30 1 2 1 2
M  V30 2 1 2 3
M  V30 3 1 3 4
M  V30 4 1 3 5
M  V30 5 2 4 6
M  V30 6 1 4 7
M  V30 7 1 5 8
M  V30 8 1 5 9
M  V30 9 1 5 10
M  V30 10 1 7 11
M  V30 11 1 7 12
M  V30 END BOND
M  V30 END CTAB
M  END
>  <Structure No>
4091

>  <LogS>
-0.8548

>  <MMFF94 Energy>
-52.544

$$$$
Compound 4092
Actelion Java MolfileCreator 2.0

  0  0  0  0  0  0              0 V3000
M  V30 BEGIN CTAB
M  V30 COUNTS 34 33 0 0 0
M  V30 BEGIN ATOM
M  V30 1 O 2.4329 1.1766 -0.0784 0
M  V30 2 C 2.3724 -0.0389 0.2546 0
M  V30 3 O 3.3073 -0.9558 -0.2378 0
M  V30 4 N 1.3438 -0.4998 1.1392 0
M  V30 5 C 4.3122 -0.6169 -1.1912 0
M  V30 6 C 0.2749 0.3649 1.6527 0 CFG=2
M  V30 7 C 3.7063 -0.4773 -2.5832 0
M  V30 8 C 0.2505 0.2979 3.1571 0
M  V30 9 C -1.0983 -0.0258 1.0498 0 CFG=2
M  V30 10 O 0.1416 -0.7713 3.7369 0
M  V30 11 O -1.3557 -1.392 1.2717 0
M  V30 12 C -1.1663 0.2902 -0.4726 0 CFG=1
M  V30 13 O -0.3363 -0.5778 -1.2062 0
M  V30 14 C -2.6031 0.2896 -1.069 0 CFG=1
M  V30 15 O -3.2629 -0.9307 -0.8332 0
M  V30 16 C -3.452 1.4936 -0.6051 0
M  V30 17 O -4.64 1.5655 -1.3468 0
M  V30 18 H 1.3262 -1.5178 1.3761 0
M  V30 19 H 5.0686 -1.4293 -1.2115 0
M  V30 20 H 4.8249 0.3245 -0.8966 0
M  V30 21 H 0.4779 1.4264 1.3908 0
M  V30 22 H 2.9756 0.358 -2.606 0
M  V30 23 H 4.5095 -0.2684 -3.3208 0
M  V30 24 H 3.1912 -1.4189 -2.8681 0
M  V30 25 H 0.3402 1.2103 3.738 0
M  V30 26 H -1.8677 0.5985 1.5608 0
M  V30 27 H -1.8833 -1.4624 2.1096 0
M  V30 28 H -0.7622 1.3154 -0.6234 0
M  V30 29 H -0.7291 -1.4879 -1.1604 0
M  V30 30 H -2.4899 0.3932 -2.1709 0
M  V30 31 H -3.5952 -0.9245 0.1017 0
M  V30 32 H -3.6839 1.434 0.4816 0
M  V30 33 H -2.8841 2.4331 -0.774 0
M  V30 34 H -5.2612 0.8965 -0.957 0
M  V30 END ATOM
M  V30 BEGIN BOND
M  V30 1 2 1 2
M  V30 2 1 2 3
M  V30 3 1 2 4
M  V30 4 1 3 5
M  V30 5 1 4 6
M  V30 6 1 5 7
M  V30 7 1 6 8
M  V30 8 1 6 9
M  V30 9 2 8 10
M  V30 10 1 9 11
M  V30 11 1 9 12
M  V30 12 1 12 13
M  V30 13 1 12 14
M  V30 14 1 14 15
M  V30 15 1 14 16
M  V30 16 1 16 17
M  V30 17 1 4 18
M  V30 18 1 5 19
M  V30 19 1 5 20
M  V30 20 1 6 21
M  V30 21 1 7 22
M  V30 22 1 7 23
M  V30 23 1 7 24
M  V30 24 1 8 25
M  V30 25 1 9 26
M  V30 26 1 11 27
M  V30 27 1 12 28
M  V30 28 1 13 29
M  V30 29 1 14 30
M  V30 30 1 15 31
M  V30 31 1 16 32
M  V30 32 1 16 33
M  V30 33 1 17 34
M  V30 END BOND
M  V30 BEGIN COLLECTION
M  V30 MDLV30/STEABS ATOMS=(4 6 9 12 14)
M  V30 END COLLECTION
M  V30 END CTAB
M  END
>  <Structure No>
4092

>  <LogS>
0.1139

>  <MMFF94 Energy>
24.011

$$$$
Compound 4093
Actelion Java MolfileCreator 2.0

  0  0  0  0  0  0              0 V3000
M  V30 BEGIN CTAB
M  V30 COUNTS 8 7 0 0 0
M  V30 BEGIN ATOM
M  V30 1 C 0.7393 0.2956 0.1478 0
M  V30 2 C 1.8737 0.2846 0.5557 0
M  V30 3 C -0.6141 0.3098 -0.3379 0
M  V30 4 C -0.9777 -0.4543 -1.3617 0
M  V30 5 H 2.8695 0.2748 0.9138 0
M  V30 6 H -1.3413 0.9529 0.1405 0
M  V30 7 H -0.2659 -1.1054 -1.855 0
M  V30 8 H -2.0001 -0.4329 -1.7161 0
M  V30 END ATOM
M  V30 BEGIN BOND
M  V30 1 3 1 2
M  V30 2 1 1 3
M  V30 3 2 3 4
M  V30 4 1 2 5
M  V30 5 1 3 6
M  V30 6 1 4 7
M  V30 7 1 4 8
M  V30 END BOND
M  V30 END CTAB
M  END
>  <Structure No>
4093

>  <LogS>
-1.4648

>  <MMFF94 Energy>
1.5087

$$$$
Compound 4094
Actelion Java MolfileCreator 2.0

  0  0  0  0  0  0              0 V3000
M  V30 BEGIN CTAB
M  V30 COUNTS 18 17 0 0 0
M  V30 BEGIN ATOM
M  V30 1 C 1.7528 -0.2284 -0.5332 0
M  V30 2 C 2.6218 0.6318 0.0052 0
M  V30 3 C 0.5943 -0.7866 0.2511 0
M  V30 4 C -0.7537 -0.2478 -0.2687 0
M  V30 5 C -1.915 -1.0116 0.3796 0
M  V30 6 C -0.8994 1.2571 0.0017 0
M  V30 7 H 1.8647 -0.5106 -1.5759 0
M  V30 8 H 3.4355 1.0266 -0.5943 0
M  V30 9 H 2.5287 0.9519 1.0385 0
M  V30 10 H 0.6999 -0.5649 1.3369 0
M  V30 11 H 0.6191 -1.892 0.1376 0
M  V30 12 H -0.8101 -0.4148 -1.3677 0
M  V30 13 H -1.8392 -2.0953 0.147 0
M  V30 14 H -1.9037 -0.8797 1.4832 0
M  V30 15 H -2.8857 -0.6435 -0.0159 0
M  V30 16 H -0.8242 1.4694 1.0899 0
M  V30 17 H -1.883 1.6196 -0.3665 0
M  V30 18 H -0.1088 1.8263 -0.5308 0
M  V30 END ATOM
M  V30 BEGIN BOND
M  V30 1 2 1 2
M  V30 2 1 1 3
M  V30 3 1 3 4
M  V30 4 1 4 5
M  V30 5 1 4 6
M  V30 6 1 1 7
M  V30 7 1 2 8
M  V30 8 1 2 9
M  V30 9 1 3 10
M  V30 10 1 3 11
M  V30 11 1 4 12
M  V30 12 1 5 13
M  V30 13 1 5 14
M  V30 14 1 5 15
M  V30 15 1 6 16
M  V30 16 1 6 17
M  V30 17 1 6 18
M  V30 END BOND
M  V30 END CTAB
M  END
>  <Structure No>
4094

>  <LogS>
-3.2439

>  <MMFF94 Energy>
10.379

$$$$
Compound 4095
Actelion Java MolfileCreator 2.0

  0  0  0  0  0  0              0 V3000
M  V30 BEGIN CTAB
M  V30 COUNTS 15 15 0 0 0
M  V30 BEGIN ATOM
M  V30 1 O 0.546 2.2637 0.0 0
M  V30 2 C -0.0381 1.1453 -0.0077 0
M  V30 3 N 0.685 -0.0205 -0.044 0
M  V30 4 C -1.4366 1.1079 0.0213 0
M  V30 5 C 0.0455 -1.231 -0.0522 0
M  V30 6 C 2.1519 0.0262 -0.0744 0
M  V30 7 C -2.0916 -0.1217 0.0132 0
M  V30 8 C -1.349 -1.2992 -0.0238 0
M  V30 9 H -2.0117 2.0254 0.0502 0
M  V30 10 H 0.6093 -2.1557 -0.0808 0
M  V30 11 H 2.4922 0.5764 -0.9775 0
M  V30 12 H 2.598 -0.9914 -0.1025 0
M  V30 13 H 2.5307 0.5434 0.8328 0
M  V30 14 H -3.173 -0.1616 0.0355 0
M  V30 15 H -1.8491 -2.2591 -0.0303 0
M  V30 END ATOM
M  V30 BEGIN BOND
M  V30 1 2 1 2
M  V30 2 1 2 3
M  V30 3 1 2 4
M  V30 4 1 3 5
M  V30 5 1 3 6
M  V30 6 2 4 7
M  V30 7 2 5 8
M  V30 8 1 7 8
M  V30 9 1 4 9
M  V30 10 1 5 10
M  V30 11 1 6 11
M  V30 12 1 6 12
M  V30 13 1 6 13
M  V30 14 1 7 14
M  V30 15 1 8 15
M  V30 END BOND
M  V30 END CTAB
M  END
>  <Structure No>
4095

>  <LogS>
0.9621

>  <MMFF94 Energy>
2.2393

$$$$
Compound 4096
Actelion Java MolfileCreator 2.0

  0  0  0  0  0  0              0 V3000
M  V30 BEGIN CTAB
M  V30 COUNTS 20 20 0 0 0
M  V30 BEGIN ATOM
M  V30 1 N 1.9428 -0.8545 0.3106 0
M  V30 2 C 0.7125 -0.1442 0.0764 0
M  V30 3 C 3.2612 -0.3031 0.0156 0
M  V30 4 C -0.5085 -0.7623 0.393 0
M  V30 5 C 0.6999 1.1552 -0.4659 0
M  V30 6 C -1.7256 -0.0941 0.1856 0
M  V30 7 C -0.5113 1.8145 -0.6898 0
M  V30 8 C -1.7202 1.1921 -0.3724 0
M  V30 9 C -3.0248 -0.7793 0.4906 0
M  V30 10 H 1.9012 -1.818 0.7141 0
M  V30 11 H 3.3429 -0.0776 -1.0683 0
M  V30 12 H 4.0467 -1.0408 0.284 0
M  V30 13 H 3.426 0.621 0.6085 0
M  V30 14 H -0.5106 -1.7655 0.8021 0
M  V30 15 H 1.6192 1.6634 -0.7228 0
M  V30 16 H -0.5132 2.8102 -1.1144 0
M  V30 17 H -2.651 1.7129 -0.5607 0
M  V30 18 H -3.8072 -0.037 0.7569 0
M  V30 19 H -2.908 -1.4763 1.3477 0
M  V30 20 H -3.3576 -1.3524 -0.3996 0
M  V30 END ATOM
M  V30 BEGIN BOND
M  V30 1 1 1 2
M  V30 2 1 1 3
M  V30 3 2 2 4
M  V30 4 1 2 5
M  V30 5 1 4 6
M  V30 6 2 5 7
M  V30 7 2 6 8
M  V30 8 1 6 9
M  V30 9 1 7 8
M  V30 10 1 1 10
M  V30 11 1 3 11
M  V30 12 1 3 12
M  V30 13 1 3 13
M  V30 14 1 4 14
M  V30 15 1 5 15
M  V30 16 1 7 16
M  V30 17 1 8 17
M  V30 18 1 9 18
M  V30 19 1 9 19
M  V30 20 1 9 20
M  V30 END BOND
M  V30 END CTAB
M  END
>  <Structure No>
4096

>  <LogS>
-2.05

>  <MMFF94 Energy>
13.154

$$$$
Compound 4097
Actelion Java MolfileCreator 2.0

  0  0  0  0  0  0              0 V3000
M  V30 BEGIN CTAB
M  V30 COUNTS 22 22 0 0 0
M  V30 BEGIN ATOM
M  V30 1 O -1.7191 2.8926 -0.3905 0
M  V30 2 C -1.2004 1.6068 -0.256 0
M  V30 3 C 0.1127 1.348 -0.6603 0
M  V30 4 C -1.9822 0.5744 0.2792 0
M  V30 5 C 0.6486 0.0557 -0.5475 0
M  V30 6 C -1.4477 -0.7141 0.4274 0
M  V30 7 C -0.1353 -0.971 0.0024 0
M  V30 8 C 2.0701 -0.2143 -0.9623 0
M  V30 9 C -2.2957 -1.825 0.9724 0
M  V30 10 C 3.0249 0.0094 0.2054 0
M  V30 11 H -2.6666 3.114 -0.1071 0
M  V30 12 H 0.713 2.1534 -1.0657 0
M  V30 13 H -3.0019 0.7776 0.5834 0
M  V30 14 H 0.2769 -1.9683 0.1011 0
M  V30 15 H 2.171 -1.2611 -1.323 0
M  V30 16 H 2.357 0.4536 -1.8035 0
M  V30 17 H -1.6683 -2.5729 1.5024 0
M  V30 18 H -2.8289 -2.3257 0.1375 0
M  V30 19 H -3.0422 -1.431 1.6946 0
M  V30 20 H 4.0663 -0.1947 -0.1212 0
M  V30 21 H 2.9624 1.061 0.5584 0
M  V30 22 H 2.7747 -0.6745 1.0445 0
M  V30 END ATOM
M  V30 BEGIN BOND
M  V30 1 1 1 2
M  V30 2 2 2 3
M  V30 3 1 2 4
M  V30 4 1 3 5
M  V30 5 2 4 6
M  V30 6 2 5 7
M  V30 7 1 5 8
M  V30 8 1 6 9
M  V30 9 1 8 10
M  V30 10 1 6 7
M  V30 11 1 1 11
M  V30 12 1 3 12
M  V30 13 1 4 13
M  V30 14 1 7 14
M  V30 15 1 8 15
M  V30 16 1 8 16
M  V30 17 1 9 17
M  V30 18 1 9 18
M  V30 19 1 9 19
M  V30 20 1 10 20
M  V30 21 1 10 21
M  V30 22 1 10 22
M  V30 END BOND
M  V30 END CTAB
M  END
>  <Structure No>
4097

>  <LogS>
-1.7696

>  <MMFF94 Energy>
9.6035

$$$$
Compound 4098
Actelion Java MolfileCreator 2.0

  0  0  0  0  0  0              0 V3000
M  V30 BEGIN CTAB
M  V30 COUNTS 17 17 0 0 0
M  V30 BEGIN ATOM
M  V30 1 O -3.7189 0.5652 -0.646 0
M  V30 2 N -2.9915 -0.2167 0.0 0 CHG=1
M  V30 3 O -3.5918 -1.2096 0.7404 0 CHG=-1
M  V30 4 C -1.5535 -0.0949 -0.0256 0
M  V30 5 C -0.9052 0.9223 -0.7647 0
M  V30 6 C -0.7654 -1.0039 0.7047 0
M  V30 7 O -1.631 1.8552 -1.4972 0 CHG=-1
M  V30 8 C 0.4916 1.0093 -0.7682 0
M  V30 9 C 0.6282 -0.9099 0.6964 0
M  V30 10 C 1.2657 0.0867 -0.0524 0
M  V30 11 C 2.7606 0.2106 -0.0289 0
M  V30 12 H -1.227 -1.7901 1.2879 0
M  V30 13 H 0.9727 1.7995 -1.3323 0
M  V30 14 H 1.2103 -1.617 1.2748 0
M  V30 15 H 3.2344 -0.7843 0.1108 0
M  V30 16 H 3.1334 0.6365 -0.9848 0
M  V30 17 H 3.0628 0.8762 0.8063 0
M  V30 END ATOM
M  V30 BEGIN BOND
M  V30 1 2 1 2
M  V30 2 1 2 3
M  V30 3 1 2 4
M  V30 4 2 4 5
M  V30 5 1 4 6
M  V30 6 1 5 7
M  V30 7 1 5 8
M  V30 8 2 6 9
M  V30 9 2 8 10
M  V30 10 1 10 11
M  V30 11 1 9 10
M  V30 12 1 6 12
M  V30 13 1 8 13
M  V30 14 1 9 14
M  V30 15 1 11 15
M  V30 16 1 11 16
M  V30 17 1 11 17
M  V30 END BOND
M  V30 END CTAB
M  END
>  <Structure No>
4098

>  <LogS>
-2.7505

>  <MMFF94 Energy>
73.342

$$$$
Compound 4099
Actelion Java MolfileCreator 2.0

  0  0  0  0  0  0              0 V3000
M  V30 BEGIN CTAB
M  V30 COUNTS 14 15 0 0 0
M  V30 BEGIN ATOM
M  V30 1 O -1.4695 2.3684 -0.6529 0
M  V30 2 C -1.3761 1.1543 -0.3306 0
M  V30 3 N -2.502 0.4086 -0.1734 0
M  V30 4 C -0.1252 0.563 -0.1319 0
M  V30 5 C -2.434 -0.9052 0.1741 0
M  V30 6 N 1.0331 1.2615 -0.2754 0
M  V30 7 C -0.0761 -0.7947 0.2266 0
M  V30 8 N -1.2272 -1.4999 0.3722 0 CHG=-1
M  V30 9 C 2.2375 0.6618 -0.0762 0
M  V30 10 N 1.1288 -1.39 0.4247 0
M  V30 11 C 2.2861 -0.69 0.2808 0
M  V30 12 H -3.3431 -1.4784 0.2935 0
M  V30 13 H 3.1507 1.2297 -0.1939 0
M  V30 14 H 3.2377 -1.1787 0.4421 0
M  V30 END ATOM
M  V30 BEGIN BOND
M  V30 1 2 1 2
M  V30 2 1 2 3
M  V30 3 1 2 4
M  V30 4 2 3 5
M  V30 5 2 4 6
M  V30 6 1 4 7
M  V30 7 1 5 8
M  V30 8 1 6 9
M  V30 9 2 7 10
M  V30 10 2 9 11
M  V30 11 1 7 8
M  V30 12 1 10 11
M  V30 13 1 5 12
M  V30 14 1 9 13
M  V30 15 1 11 14
M  V30 END BOND
M  V30 END CTAB
M  END
>  <Structure No>
4099

>  <LogS>
-1.4716

>  <MMFF94 Energy>
115.36

$$$$
Compound 4100
Actelion Java MolfileCreator 2.0

  0  0  0  0  0  0              0 V3000
M  V30 BEGIN CTAB
M  V30 COUNTS 16 17 0 0 0
M  V30 BEGIN ATOM
M  V30 1 N 1.044 -0.6423 -0.803 0
M  V30 2 C 2.0386 -0.0745 -0.0671 0
M  V30 3 C -0.2589 -0.3845 -0.5217 0
M  V30 4 N 1.7327 0.7618 0.9633 0
M  V30 5 N 3.4016 -0.3557 -0.3756 0
M  V30 6 N -1.2513 -0.9512 -1.256 0
M  V30 7 C -0.5899 0.4756 0.5374 0
M  V30 8 C 0.4418 1.0475 1.2795 0
M  V30 9 C -2.5583 -0.6959 -0.978 0
M  V30 10 N -1.8954 0.7307 0.8153 0
M  V30 11 C -2.8867 0.1617 0.0781 0
M  V30 12 H 3.644 -0.9958 -1.1639 0
M  V30 13 H 4.1701 0.0759 0.184 0
M  V30 14 H 0.2242 1.7153 2.103 0
M  V30 15 H -3.3373 -1.1546 -1.5717 0
M  V30 16 H -3.9221 0.3728 0.3094 0
M  V30 END ATOM
M  V30 BEGIN BOND
M  V30 1 2 1 2
M  V30 2 1 1 3
M  V30 3 1 2 4
M  V30 4 1 2 5
M  V30 5 2 3 6
M  V30 6 1 3 7
M  V30 7 2 4 8
M  V30 8 1 6 9
M  V30 9 2 7 10
M  V30 10 2 9 11
M  V30 11 1 7 8
M  V30 12 1 10 11
M  V30 13 1 5 12
M  V30 14 1 5 13
M  V30 15 1 8 14
M  V30 16 1 9 15
M  V30 17 1 11 16
M  V30 END BOND
M  V30 END CTAB
M  END
>  <Structure No>
4100

>  <LogS>
-2.2979

>  <MMFF94 Energy>
-21.068

$$$$
Compound 4101
Actelion Java MolfileCreator 2.0

  0  0  0  0  0  0              0 V3000
M  V30 BEGIN CTAB
M  V30 COUNTS 13 13 0 0 0
M  V30 BEGIN ATOM
M  V30 1 Cl 0.6272 3.0336 -0.209 0
M  V30 2 C 0.2343 1.3177 -0.1164 0
M  V30 3 C -0.9862 0.8258 -0.3147 0
M  V30 4 C 1.187 0.2679 0.3576 0
M  V30 5 Cl -2.3927 1.8163 -0.6993 0
M  V30 6 C -1.0537 -0.6353 -0.0063 0
M  V30 7 Cl 2.8078 0.4699 -0.3832 0
M  V30 8 Cl 1.3735 0.4579 2.1306 0
M  V30 9 C 0.4496 -1.048 -0.037 0
M  V30 10 Cl -1.7945 -0.8192 1.616 0
M  V30 11 Cl -2.0939 -1.5062 -1.1794 0
M  V30 12 Cl 0.8351 -2.4364 1.0351 0
M  V30 13 Cl 0.9252 -1.5566 -1.7029 0
M  V30 END ATOM
M  V30 BEGIN BOND
M  V30 1 1 1 2
M  V30 2 2 2 3
M  V30 3 1 2 4
M  V30 4 1 3 5
M  V30 5 1 3 6
M  V30 6 1 4 7
M  V30 7 1 4 8
M  V30 8 1 4 9
M  V30 9 1 6 10
M  V30 10 1 6 11
M  V30 11 1 9 12
M  V30 12 1 9 13
M  V30 13 1 6 9
M  V30 END BOND
M  V30 END CTAB
M  END
>  <Structure No>
4101

>  <LogS>
-6.5362

>  <MMFF94 Energy>
63.432

$$$$
Compound 4102
Actelion Java MolfileCreator 2.0

  0  0  0  0  0  0              0 V3000
M  V30 BEGIN CTAB
M  V30 COUNTS 19 20 0 0 0
M  V30 BEGIN ATOM
M  V30 1 O 1.9815 1.7436 -1.4264 0
M  V30 2 C 1.131 1.0345 -0.821 0
M  V30 3 N 1.5406 0.0582 0.0746 0
M  V30 4 N -0.2004 1.2425 -1.0664 0
M  V30 5 C 0.6056 -0.7433 0.6954 0
M  V30 6 C 2.9756 -0.1732 0.3041 0
M  V30 7 C -1.1032 0.4637 -0.4292 0
M  V30 8 O 0.9473 -1.6685 1.4821 0
M  V30 9 C -0.7355 -0.5122 0.4304 0
M  V30 10 N -2.4397 0.5036 -0.547 0
M  V30 11 N -1.8282 -1.1386 0.8989 0
M  V30 12 C -2.8471 -0.4904 0.2804 0
M  V30 13 O -4.0583 -0.7863 0.4565 0
M  V30 14 H -0.5157 1.9801 -1.7363 0
M  V30 15 H 3.1612 -0.5806 1.3208 0
M  V30 16 H 3.5495 0.7753 0.2352 0
M  V30 17 H 3.3619 -0.8893 -0.451 0
M  V30 18 H -3.0219 1.1401 -1.1357 0
M  V30 19 H -1.8817 -1.9344 1.5732 0
M  V30 END ATOM
M  V30 BEGIN BOND
M  V30 1 2 1 2
M  V30 2 1 2 3
M  V30 3 1 2 4
M  V30 4 1 3 5
M  V30 5 1 3 6
M  V30 6 1 4 7
M  V30 7 2 5 8
M  V30 8 1 5 9
M  V30 9 1 7 10
M  V30 10 1 9 11
M  V30 11 1 10 12
M  V30 12 2 12 13
M  V30 13 2 7 9
M  V30 14 1 11 12
M  V30 15 1 4 14
M  V30 16 1 6 15
M  V30 17 1 6 16
M  V30 18 1 6 17
M  V30 19 1 10 18
M  V30 20 1 11 19
M  V30 END BOND
M  V30 END CTAB
M  END
>  <Structure No>
4102

>  <LogS>
-1.5614

>  <MMFF94 Energy>
-121.2

$$$$
Compound 4103
Actelion Java MolfileCreator 2.0

  0  0  0  0  0  0              0 V3000
M  V30 BEGIN CTAB
M  V30 COUNTS 20 20 0 0 0
M  V30 BEGIN ATOM
M  V30 1 S -3.9692 0.6472 -1.6186 0
M  V30 2 C -2.6546 0.6004 -0.644 0
M  V30 3 N -1.9205 -0.626 -0.5113 0
M  V30 4 N -2.3502 1.7325 0.1755 0
M  V30 5 C -0.5488 -0.7002 -0.0887 0
M  V30 6 C 0.3699 0.3167 -0.4073 0
M  V30 7 C -0.1015 -1.8376 0.5969 0
M  V30 8 C 1.716 0.2193 -0.0099 0
M  V30 9 C 1.2322 -1.9429 0.9948 0
M  V30 10 N 2.6478 1.2687 -0.3312 0 CHG=1
M  V30 11 C 2.1366 -0.9207 0.6987 0
M  V30 12 O 3.8459 1.1832 0.0101 0
M  V30 13 O 2.2328 2.3875 -1.0169 0 CHG=-1
M  V30 14 H -2.4185 -1.5205 -0.7231 0
M  V30 15 H -2.8857 2.623 0.0706 0
M  V30 16 H -1.6339 1.6719 0.9319 0
M  V30 17 H 0.0394 1.1735 -0.9793 0
M  V30 18 H -0.7914 -2.6385 0.8315 0
M  V30 19 H 1.5668 -2.8205 1.533 0
M  V30 20 H 3.1657 -1.0252 1.0175 0
M  V30 END ATOM
M  V30 BEGIN BOND
M  V30 1 2 1 2
M  V30 2 1 2 3
M  V30 3 1 2 4
M  V30 4 1 3 5
M  V30 5 2 5 6
M  V30 6 1 5 7
M  V30 7 1 6 8
M  V30 8 2 7 9
M  V30 9 1 8 10
M  V30 10 2 8 11
M  V30 11 2 10 12
M  V30 12 1 10 13
M  V30 13 1 9 11
M  V30 14 1 3 14
M  V30 15 1 4 15
M  V30 16 1 4 16
M  V30 17 1 6 17
M  V30 18 1 7 18
M  V30 19 1 9 19
M  V30 20 1 11 20
M  V30 END BOND
M  V30 END CTAB
M  END
>  <Structure No>
4103

>  <LogS>
-1.4499

>  <MMFF94 Energy>
-16.082

$$$$
Compound 4104
Actelion Java MolfileCreator 2.0

  0  0  0  0  0  0              0 V3000
M  V30 BEGIN CTAB
M  V30 COUNTS 26 27 0 0 0
M  V30 BEGIN ATOM
M  V30 1 O -4.5434 1.1941 -0.0795 0
M  V30 2 N -3.3595 1.5859 -0.0445 0
M  V30 3 C -2.2631 0.6675 -0.0592 0
M  V30 4 C -2.3017 -0.7156 -0.094 0
M  V30 5 C -0.9257 0.9972 -0.0118 0
M  V30 6 N -1.0396 -1.1898 -0.0769 0
M  V30 7 C -3.5143 -1.5875 -0.1323 0
M  V30 8 N -0.2109 -0.1539 -0.042 0
M  V30 9 C -0.3672 2.3858 0.0839 0
M  V30 10 C 1.2183 -0.3045 -0.0132 0
M  V30 11 C 1.7994 -1.2948 0.7957 0
M  V30 12 C 2.0466 0.489 -0.8264 0
M  V30 13 C 3.187 -1.465 0.8177 0
M  V30 14 C 3.4339 0.3155 -0.8023 0
M  V30 15 C 4.0041 -0.6578 0.0221 0
M  V30 16 H -4.1302 -1.4134 0.7746 0
M  V30 17 H -3.2158 -2.6565 -0.162 0
M  V30 18 H -4.1128 -1.3584 -1.0385 0
M  V30 19 H -1.0951 3.0587 0.5842 0
M  V30 20 H 0.567 2.3866 0.6826 0
M  V30 21 H -0.1613 2.7764 -0.9338 0
M  V30 22 H 1.1767 -1.9258 1.4175 0
M  V30 23 H 1.6205 1.2239 -1.4955 0
M  V30 24 H 3.6287 -2.2237 1.4508 0
M  V30 25 H 4.0664 0.9303 -1.4295 0
M  V30 26 H 5.078 -0.7917 0.0385 0
M  V30 END ATOM
M  V30 BEGIN BOND
M  V30 1 2 1 2
M  V30 2 1 2 3
M  V30 3 1 3 4
M  V30 4 2 3 5
M  V30 5 2 4 6
M  V30 6 1 4 7
M  V30 7 1 5 8
M  V30 8 1 5 9
M  V30 9 1 8 10
M  V30 10 2 10 11
M  V30 11 1 10 12
M  V30 12 1 11 13
M  V30 13 2 12 14
M  V30 14 2 13 15
M  V30 15 1 6 8
M  V30 16 1 14 15
M  V30 17 1 7 16
M  V30 18 1 7 17
M  V30 19 1 7 18
M  V30 20 1 9 19
M  V30 21 1 9 20
M  V30 22 1 9 21
M  V30 23 1 11 22
M  V30 24 1 12 23
M  V30 25 1 13 24
M  V30 26 1 14 25
M  V30 27 1 15 26
M  V30 END BOND
M  V30 END CTAB
M  END
>  <Structure No>
4104

>  <LogS>
-3.7355

>  <MMFF94 Energy>
42.612

$$$$
Compound 4105
Actelion Java MolfileCreator 2.0

  0  0  0  0  0  0              0 V3000
M  V30 BEGIN CTAB
M  V30 COUNTS 26 28 0 0 0
M  V30 BEGIN ATOM
M  V30 1 O 0.6494 3.2502 1.0554 0
M  V30 2 C 0.1039 2.6502 0.092 0
M  V30 3 O -0.4604 3.3854 -0.9432 0 CHG=-1
M  V30 4 C 0.0596 1.1701 0.0636 0
M  V30 5 C 1.2649 0.4164 0.022 0
M  V30 6 C -1.1905 0.493 0.0743 0
M  V30 7 C 1.2059 -1.001 1.0E-4 0
M  V30 8 C 2.5354 1.0364 -0.0242 0
M  V30 9 C -1.2212 -0.9252 0.0394 0
M  V30 10 C -2.4195 1.1897 0.1453 0
M  V30 11 C -0.0294 -1.654 0.0062 0
M  V30 12 C 2.39 -1.756 -0.0388 0
M  V30 13 C 3.7028 0.2708 -0.0641 0
M  V30 14 C -2.4509 -1.6046 0.0484 0
M  V30 15 C -3.633 0.4985 0.1547 0
M  V30 16 C 3.6307 -1.1204 -0.0672 0
M  V30 17 C -3.6491 -0.8936 0.1024 0
M  V30 18 H 2.6428 2.112 -0.0406 0
M  V30 19 H -2.4582 2.2685 0.2048 0
M  V30 20 H -0.0638 -2.7384 -0.0154 0
M  V30 21 H 2.3556 -2.839 -0.0516 0
M  V30 22 H 4.6679 0.7597 -0.0966 0
M  V30 23 H -2.4851 -2.6873 0.0181 0
M  V30 24 H -4.5655 1.0458 0.2068 0
M  V30 25 H 4.5388 -1.7085 -0.099 0
M  V30 26 H -4.5927 -1.4238 0.1109 0
M  V30 END ATOM
M  V30 BEGIN BOND
M  V30 1 2 1 2
M  V30 2 1 2 3
M  V30 3 1 2 4
M  V30 4 1 4 5
M  V30 5 2 4 6
M  V30 6 1 5 7
M  V30 7 2 5 8
M  V30 8 1 6 9
M  V30 9 1 6 10
M  V30 10 1 7 11
M  V30 11 2 7 12
M  V30 12 1 8 13
M  V30 13 1 9 14
M  V30 14 2 10 15
M  V30 15 1 12 16
M  V30 16 2 14 17
M  V30 17 2 9 11
M  V30 18 2 13 16
M  V30 19 1 15 17
M  V30 20 1 8 18
M  V30 21 1 10 19
M  V30 22 1 11 20
M  V30 23 1 12 21
M  V30 24 1 13 22
M  V30 25 1 14 23
M  V30 26 1 15 24
M  V30 27 1 16 25
M  V30 28 1 17 26
M  V30 END BOND
M  V30 END CTAB
M  END
>  <Structure No>
4105

>  <LogS>
-3.4174

>  <MMFF94 Energy>
64.523

$$$$
Compound 4106
Actelion Java MolfileCreator 2.0

  0  0  0  0  0  0              0 V3000
M  V30 BEGIN CTAB
M  V30 COUNTS 32 32 0 0 0
M  V30 BEGIN ATOM
M  V30 1 Cl 0.853 3.7571 -0.0852 0
M  V30 2 C -0.9243 3.7965 -0.1973 0
M  V30 3 Cl -1.4195 3.767 -1.9062 0
M  V30 4 S -1.6786 2.4101 0.7294 0
M  V30 5 F -1.366 4.9811 0.3595 0
M  V30 6 N -0.8789 1.1094 -0.1822 0
M  V30 7 S -1.7803 0.3088 -1.4368 0
M  V30 8 C 0.3741 0.5583 0.2705 0
M  V30 9 O -3.2166 0.7544 -1.3903 0
M  V30 10 O -1.2012 0.6747 -2.775 0
M  V30 11 N -1.6945 -1.4193 -1.2051 0
M  V30 12 C 0.704 0.554 1.6379 0
M  V30 13 C 1.2917 0.0215 -0.6494 0
M  V30 14 C -2.3314 -1.7725 0.0699 0
M  V30 15 C -2.3794 -2.0945 -2.3139 0
M  V30 16 C 1.9197 0.02 2.0739 0
M  V30 17 C 2.5072 -0.5117 -0.2124 0
M  V30 18 C 2.8221 -0.5299 1.1533 0
M  V30 19 C 4.1435 -1.0663 1.6177 0
M  V30 20 H 0.0182 0.9507 2.3743 0
M  V30 21 H 1.0801 0.0302 -1.7092 0
M  V30 22 H -2.2513 -2.8668 0.2447 0
M  V30 23 H -1.8109 -1.2678 0.9107 0
M  V30 24 H -3.4053 -1.482 0.083 0
M  V30 25 H -2.3266 -3.1966 -2.1809 0
M  V30 26 H -3.4472 -1.7886 -2.3787 0
M  V30 27 H -1.8742 -1.8559 -3.2735 0
M  V30 28 H 2.1551 0.0324 3.131 0
M  V30 29 H 3.2041 -0.9081 -0.9404 0
M  V30 30 H 4.8933 -0.2479 1.6206 0
M  V30 31 H 4.0582 -1.4836 2.6436 0
M  V30 32 H 4.4949 -1.8777 0.9455 0
M  V30 END ATOM
M  V30 BEGIN BOND
M  V30 1 1 1 2
M  V30 2 1 2 3
M  V30 3 1 2 4
M  V30 4 1 2 5
M  V30 5 1 4 6
M  V30 6 1 6 7
M  V30 7 1 6 8
M  V30 8 2 7 9
M  V30 9 2 7 10
M  V30 10 1 7 11
M  V30 11 2 8 12
M  V30 12 1 8 13
M  V30 13 1 11 14
M  V30 14 1 11 15
M  V30 15 1 12 16
M  V30 16 2 13 17
M  V30 17 2 16 18
M  V30 18 1 18 19
M  V30 19 1 17 18
M  V30 20 1 12 20
M  V30 21 1 13 21
M  V30 22 1 14 22
M  V30 23 1 14 23
M  V30 24 1 14 24
M  V30 25 1 15 25
M  V30 26 1 15 26
M  V30 27 1 15 27
M  V30 28 1 16 28
M  V30 29 1 17 29
M  V30 30 1 19 30
M  V30 31 1 19 31
M  V30 32 1 19 32
M  V30 END BOND
M  V30 END CTAB
M  END
>  <Structure No>
4106

>  <LogS>
-5.5864

>  <MMFF94 Energy>
-50.546

$$$$
Compound 4107
Actelion Java MolfileCreator 2.0

  0  0  0  0  0  0              0 V3000
M  V30 BEGIN CTAB
M  V30 COUNTS 49 49 0 0 0
M  V30 BEGIN ATOM
M  V30 1 O 1.7299 2.1234 0.1571 0
M  V30 2 C 0.8422 1.0483 0.149 0
M  V30 3 C -0.5426 1.3295 -0.0141 0
M  V30 4 C 1.3065 -0.2974 0.2557 0
M  V30 5 C -1.4002 0.2538 -0.3312 0
M  V30 6 C -1.0832 2.7895 0.0454 0
M  V30 7 C 0.4082 -1.3192 -0.1171 0
M  V30 8 C 2.7389 -0.6721 0.7467 0
M  V30 9 C -0.9353 -1.0685 -0.4374 0
M  V30 10 C -0.6885 3.536 -1.2461 0
M  V30 11 C -0.5149 3.5401 1.2804 0
M  V30 12 C -2.6305 2.8563 0.1695 0
M  V30 13 C 2.7928 -2.1124 1.3372 0
M  V30 14 C 3.2176 0.2709 1.889 0
M  V30 15 C 3.7257 -0.6272 -0.4386 0
M  V30 16 C -1.8557 -2.2499 -0.8292 0
M  V30 17 C -1.9883 -3.2129 0.3698 0
M  V30 18 C -1.249 -3.0091 -2.0327 0
M  V30 19 C -3.2831 -1.8087 -1.2392 0
M  V30 20 H 2.6799 2.0698 -0.1651 0
M  V30 21 H -2.4357 0.4486 -0.5244 0
M  V30 22 H 0.7435 -2.3391 -0.1578 0
M  V30 23 H -1.1734 3.0662 -2.1241 0
M  V30 24 H 0.403 3.5209 -1.416 0
M  V30 25 H -1.0091 4.5969 -1.1991 0
M  V30 26 H -1.0949 4.4605 1.501 0
M  V30 27 H 0.5232 3.8881 1.1269 0
M  V30 28 H -0.5497 2.8912 2.1791 0
M  V30 29 H -2.9772 3.9022 0.318 0
M  V30 30 H -3.1321 2.5029 -0.7562 0
M  V30 31 H -2.9812 2.2537 1.0354 0
M  V30 32 H 2.6921 -2.8907 0.5515 0
M  V30 33 H 1.9981 -2.2529 2.1022 0
M  V30 34 H 3.7744 -2.3157 1.8184 0
M  V30 35 H 3.6527 1.2176 1.5203 0
M  V30 36 H 4.0348 -0.1863 2.4913 0
M  V30 37 H 2.3793 0.4974 2.5822 0
M  V30 38 H 3.4219 -1.3579 -1.2161 0
M  V30 39 H 3.7687 0.3667 -0.9167 0
M  V30 40 H 4.7531 -0.8841 -0.1033 0
M  V30 41 H -2.6706 -4.0556 0.1248 0
M  V30 42 H -1.0075 -3.6476 0.6545 0
M  V30 43 H -2.3984 -2.6748 1.2518 0
M  V30 44 H -1.934 -3.8117 -2.3811 0
M  V30 45 H -1.0722 -2.3101 -2.8782 0
M  V30 46 H -0.2871 -3.497 -1.775 0
M  V30 47 H -3.8919 -2.6833 -1.5565 0
M  V30 48 H -3.2461 -1.0986 -2.0932 0
M  V30 49 H -3.8162 -1.3354 -0.3864 0
M  V30 END ATOM
M  V30 BEGIN BOND
M  V30 1 1 1 2
M  V30 2 2 2 3
M  V30 3 1 2 4
M  V30 4 1 3 5
M  V30 5 1 3 6
M  V30 6 2 4 7
M  V30 7 1 4 8
M  V30 8 2 5 9
M  V30 9 1 6 10
M  V30 10 1 6 11
M  V30 11 1 6 12
M  V30 12 1 8 13
M  V30 13 1 8 14
M  V30 14 1 8 15
M  V30 15 1 9 16
M  V30 16 1 16 17
M  V30 17 1 16 18
M  V30 18 1 16 19
M  V30 19 1 7 9
M  V30 20 1 1 20
M  V30 21 1 5 21
M  V30 22 1 7 22
M  V30 23 1 10 23
M  V30 24 1 10 24
M  V30 25 1 10 25
M  V30 26 1 11 26
M  V30 27 1 11 27
M  V30 28 1 11 28
M  V30 29 1 12 29
M  V30 30 1 12 30
M  V30 31 1 12 31
M  V30 32 1 13 32
M  V30 33 1 13 33
M  V30 34 1 13 34
M  V30 35 1 14 35
M  V30 36 1 14 36
M  V30 37 1 14 37
M  V30 38 1 15 38
M  V30 39 1 15 39
M  V30 40 1 15 40
M  V30 41 1 17 41
M  V30 42 1 17 42
M  V30 43 1 17 43
M  V30 44 1 18 44
M  V30 45 1 18 45
M  V30 46 1 18 46
M  V30 47 1 19 47
M  V30 48 1 19 48
M  V30 49 1 19 49
M  V30 END BOND
M  V30 END CTAB
M  END
>  <Structure No>
4107

>  <LogS>
-3.875

>  <MMFF94 Energy>
72.125

$$$$
Compound 4108
Actelion Java MolfileCreator 2.0

  0  0  0  0  0  0              0 V3000
M  V30 BEGIN CTAB
M  V30 COUNTS 15 14 0 0 0
M  V30 BEGIN ATOM
M  V30 1 O -0.3887 2.3345 -1.2445 0
M  V30 2 N 0.2466 1.2627 -1.3188 0
M  V30 3 N -0.1059 0.136 -0.5534 0
M  V30 4 C -1.3308 0.0913 0.2044 0
M  V30 5 C 0.8641 -0.9544 -0.4491 0
M  V30 6 O -1.3719 -0.5345 1.2977 0
M  V30 7 N -2.5194 0.714 -0.2857 0
M  V30 8 C 1.8967 -0.6472 0.6293 0
M  V30 9 H 0.3494 -1.9113 -0.2125 0
M  V30 10 H 1.3818 -1.0853 -1.4239 0
M  V30 11 H -3.3869 0.7169 0.2953 0
M  V30 12 H -2.5699 1.0892 -1.258 0
M  V30 13 H 2.6305 -1.4783 0.6905 0
M  V30 14 H 1.4009 -0.535 1.6165 0
M  V30 15 H 2.4383 0.2909 0.3844 0
M  V30 END ATOM
M  V30 BEGIN BOND
M  V30 1 2 1 2
M  V30 2 1 2 3
M  V30 3 1 3 4
M  V30 4 1 3 5
M  V30 5 2 4 6
M  V30 6 1 4 7
M  V30 7 1 5 8
M  V30 8 1 5 9
M  V30 9 1 5 10
M  V30 10 1 7 11
M  V30 11 1 7 12
M  V30 12 1 8 13
M  V30 13 1 8 14
M  V30 14 1 8 15
M  V30 END BOND
M  V30 END CTAB
M  END
>  <Structure No>
4108

>  <LogS>
-0.9547

>  <MMFF94 Energy>
-41.775

$$$$
Compound 4109
Actelion Java MolfileCreator 2.0

  0  0  0  0  0  0              0 V3000
M  V30 BEGIN CTAB
M  V30 COUNTS 31 30 0 0 0
M  V30 BEGIN ATOM
M  V30 1 O -4.188 1.3418 0.0788 0
M  V30 2 C -3.6336 0.2811 0.4765 0
M  V30 3 O -3.5814 -0.0034 1.8374 0
M  V30 4 C -3.029 -0.6797 -0.5094 0 CFG=1
M  V30 5 C -4.1139 -1.2649 -1.3703 0
M  V30 6 C -1.9507 -0.0059 -1.3869 0
M  V30 7 O -4.4211 -2.4813 -1.2607 0
M  V30 8 O -4.7985 -0.4667 -2.2801 0 CHG=-1
M  V30 9 C -0.7615 0.5724 -0.5956 0
M  V30 10 C 0.1179 -0.5179 0.0415 0
M  V30 11 C 1.3624 0.0606 0.7355 0
M  V30 12 C 2.4767 0.4264 -0.2608 0
M  V30 13 C 3.703 1.0443 0.4291 0
M  V30 14 C 4.5067 0.0246 1.2356 0
M  V30 15 H -3.9815 0.6324 2.517 0
M  V30 16 H -2.5597 -1.5142 0.0542 0
M  V30 17 H -1.5657 -0.7418 -2.1274 0
M  V30 18 H -2.4148 0.8228 -1.9664 0
M  V30 19 H -0.1525 1.1682 -1.3065 0
M  V30 20 H -1.1255 1.2699 0.1891 0
M  V30 21 H -0.4747 -1.0518 0.8137 0
M  V30 22 H 0.4237 -1.2631 -0.7251 0
M  V30 23 H 1.7457 -0.7117 1.4353 0
M  V30 24 H 1.0797 0.951 1.3391 0
M  V30 25 H 2.7837 -0.4752 -0.8345 0
M  V30 26 H 2.0927 1.1713 -0.9881 0
M  V30 27 H 4.3685 1.4689 -0.3535 0
M  V30 28 H 3.3892 1.8804 1.0915 0
M  V30 29 H 5.4407 0.4996 1.6031 0
M  V30 30 H 3.9297 -0.325 2.1164 0
M  V30 31 H 4.7798 -0.8453 0.6015 0
M  V30 END ATOM
M  V30 BEGIN BOND
M  V30 1 2 1 2
M  V30 2 1 2 3
M  V30 3 1 2 4
M  V30 4 1 4 5
M  V30 5 1 4 6
M  V30 6 2 5 7
M  V30 7 1 5 8
M  V30 8 1 6 9
M  V30 9 1 9 10
M  V30 10 1 10 11
M  V30 11 1 11 12
M  V30 12 1 12 13
M  V30 13 1 13 14
M  V30 14 1 3 15
M  V30 15 1 4 16
M  V30 16 1 6 17
M  V30 17 1 6 18
M  V30 18 1 9 19
M  V30 19 1 9 20
M  V30 20 1 10 21
M  V30 21 1 10 22
M  V30 22 1 11 23
M  V30 23 1 11 24
M  V30 24 1 12 25
M  V30 25 1 12 26
M  V30 26 1 13 27
M  V30 27 1 13 28
M  V30 28 1 14 29
M  V30 29 1 14 30
M  V30 30 1 14 31
M  V30 END BOND
M  V30 BEGIN COLLECTION
M  V30 MDLV30/STEABS ATOMS=(1 4)
M  V30 END COLLECTION
M  V30 END CTAB
M  END
>  <Structure No>
4109

>  <LogS>
-2.0411

>  <MMFF94 Energy>
-36.604

$$$$
Compound 4110
Actelion Java MolfileCreator 2.0

  0  0  0  0  0  0              0 V3000
M  V30 BEGIN CTAB
M  V30 COUNTS 33 32 0 0 0
M  V30 BEGIN ATOM
M  V30 1 O -5.4835 -2.3018 -0.7932 0
M  V30 2 C -4.9198 -1.5098 0.0074 0
M  V30 3 O -5.1788 -1.6153 1.3696 0 CHG=-1
M  V30 4 C -3.9951 -0.4444 -0.5107 0
M  V30 5 C -4.6452 0.9032 -0.356 0
M  V30 6 C -2.6333 -0.5119 0.2101 0
M  V30 7 O -4.8725 1.379 0.7886 0
M  V30 8 O -5.0094 1.6295 -1.4829 0 CHG=-1
M  V30 9 C -1.5942 0.4242 -0.4266 0
M  V30 10 C -0.2385 0.3043 0.2801 0
M  V30 11 C 0.801 1.2343 -0.3633 0
M  V30 12 C 2.1366 1.2462 0.3971 0
M  V30 13 C 2.922 -0.0638 0.2354 0
M  V30 14 C 4.3028 0.0404 0.8935 0
M  V30 15 C 5.0841 -1.262 0.7459 0
M  V30 16 H -3.8228 -0.6303 -1.5949 0
M  V30 17 H -2.2503 -1.5554 0.1543 0
M  V30 18 H -2.7577 -0.2532 1.2855 0
M  V30 19 H -1.9491 1.4758 -0.3575 0
M  V30 20 H -1.4722 0.1626 -1.5009 0
M  V30 21 H -0.3602 0.571 1.3532 0
M  V30 22 H 0.1089 -0.7484 0.2126 0
M  V30 23 H 0.4006 2.2721 -0.3665 0
M  V30 24 H 0.9721 0.9368 -1.4212 0
M  V30 25 H 2.7499 2.0836 -0.0027 0
M  V30 26 H 1.9544 1.4483 1.4757 0
M  V30 27 H 3.0477 -0.2892 -0.8465 0
M  V30 28 H 2.3613 -0.8974 0.7096 0
M  V30 29 H 4.8833 0.8624 0.4206 0
M  V30 30 H 4.1858 0.2691 1.9755 0
M  V30 31 H 5.2356 -1.5014 -0.3282 0
M  V30 32 H 4.5383 -2.097 1.2349 0
M  V30 33 H 6.078 -1.1561 1.2298 0
M  V30 END ATOM
M  V30 BEGIN BOND
M  V30 1 2 1 2
M  V30 2 1 2 3
M  V30 3 1 2 4
M  V30 4 1 4 5
M  V30 5 1 4 6
M  V30 6 2 5 7
M  V30 7 1 5 8
M  V30 8 1 6 9
M  V30 9 1 9 10
M  V30 10 1 10 11
M  V30 11 1 11 12
M  V30 12 1 12 13
M  V30 13 1 13 14
M  V30 14 1 14 15
M  V30 15 1 4 16
M  V30 16 1 6 17
M  V30 17 1 6 18
M  V30 18 1 9 19
M  V30 19 1 9 20
M  V30 20 1 10 21
M  V30 21 1 10 22
M  V30 22 1 11 23
M  V30 23 1 11 24
M  V30 24 1 12 25
M  V30 25 1 12 26
M  V30 26 1 13 27
M  V30 27 1 13 28
M  V30 28 1 14 29
M  V30 29 1 14 30
M  V30 30 1 15 31
M  V30 31 1 15 32
M  V30 32 1 15 33
M  V30 END BOND
M  V30 END CTAB
M  END
>  <Structure No>
4110

>  <LogS>
-2.92

>  <MMFF94 Energy>
43.997

$$$$
Compound 4111
Actelion Java MolfileCreator 2.0

  0  0  0  0  0  0              0 V3000
M  V30 BEGIN CTAB
M  V30 COUNTS 8 7 0 0 0
M  V30 BEGIN ATOM
M  V30 1 Cl 1.6312 1.3048 -0.163 0
M  V30 2 C 0.725 -0.215 0.0495 0
M  V30 3 C -0.7682 0.0258 -0.1214 0
M  V30 4 F -1.2256 0.8929 0.8546 0
M  V30 5 H 0.9272 -0.6219 1.0628 0
M  V30 6 H 1.0725 -0.949 -0.7075 0
M  V30 7 H -0.9726 0.4584 -1.1236 0
M  V30 8 H -1.3123 -0.9377 -0.0309 0
M  V30 END ATOM
M  V30 BEGIN BOND
M  V30 1 1 1 2
M  V30 2 1 2 3
M  V30 3 1 3 4
M  V30 4 1 2 5
M  V30 5 1 2 6
M  V30 6 1 3 7
M  V30 7 1 3 8
M  V30 END BOND
M  V30 END CTAB
M  END
>  <Structure No>
4111

>  <LogS>
-0.5291

>  <MMFF94 Energy>
6.3263

$$$$
Compound 4112
Actelion Java MolfileCreator 2.0

  0  0  0  0  0  0              0 V3000
M  V30 BEGIN CTAB
M  V30 COUNTS 18 17 0 0 0
M  V30 BEGIN ATOM
M  V30 1 C -1.1421 0.0761 0.4567 0
M  V30 2 C -1.8797 1.0878 -0.0247 0
M  V30 3 C 0.3645 0.1908 0.5053 0
M  V30 4 C -1.8297 -1.1637 0.9624 0
M  V30 5 C 0.9712 0.0361 -0.8939 0
M  V30 6 C 2.4936 0.1277 -0.8481 0
M  V30 7 H -1.4095 1.9971 -0.3871 0
M  V30 8 H -2.9631 1.0189 -0.0596 0
M  V30 9 H 0.7854 -0.592 1.1729 0
M  V30 10 H 0.6468 1.1767 0.9363 0
M  V30 11 H -2.4965 -0.904 1.8117 0
M  V30 12 H -2.4356 -1.615 0.1485 0
M  V30 13 H -1.0961 -1.9211 1.3094 0
M  V30 14 H 0.5852 0.8342 -1.5647 0
M  V30 15 H 0.6821 -0.9502 -1.3184 0
M  V30 16 H 2.9099 -0.6791 -0.2081 0
M  V30 17 H 2.9037 0.0144 -1.8737 0
M  V30 18 H 2.8085 1.1144 -0.4464 0
M  V30 END ATOM
M  V30 BEGIN BOND
M  V30 1 2 1 2
M  V30 2 1 1 3
M  V30 3 1 1 4
M  V30 4 1 3 5
M  V30 5 1 5 6
M  V30 6 1 2 7
M  V30 7 1 2 8
M  V30 8 1 3 9
M  V30 9 1 3 10
M  V30 10 1 4 11
M  V30 11 1 4 12
M  V30 12 1 4 13
M  V30 13 1 5 14
M  V30 14 1 5 15
M  V30 15 1 6 16
M  V30 16 1 6 17
M  V30 17 1 6 18
M  V30 END BOND
M  V30 END CTAB
M  END
>  <Structure No>
4112

>  <LogS>
-3.033

>  <MMFF94 Energy>
6.9218

$$$$
Compound 4113
Actelion Java MolfileCreator 2.0

  0  0  0  0  0  0              0 V3000
M  V30 BEGIN CTAB
M  V30 COUNTS 22 21 0 0 0
M  V30 BEGIN ATOM
M  V30 1 C -1.8367 0.3059 0.1529 0
M  V30 2 C -0.5305 0.5176 -0.0965 0
M  V30 3 C -2.8068 1.4308 -0.0901 0
M  V30 4 C -2.3501 -1.0163 0.665 0
M  V30 5 C 0.5236 -0.5091 0.1023 0
M  V30 6 C 1.8298 -0.2973 -0.1471 0
M  V30 7 C 2.7999 -1.4221 0.0959 0
M  V30 8 C 2.3431 1.025 -0.6591 0
M  V30 9 H -0.2409 1.4951 -0.4627 0
M  V30 10 H -3.8495 1.1365 0.1509 0
M  V30 11 H -2.7704 1.7338 -1.1581 0
M  V30 12 H -2.5376 2.3025 0.5436 0
M  V30 13 H -2.1154 -1.8211 -0.0632 0
M  V30 14 H -1.8816 -1.2505 1.6443 0
M  V30 15 H -3.4504 -0.9998 0.8102 0
M  V30 16 H 0.234 -1.4865 0.4685 0
M  V30 17 H 3.8425 -1.1278 -0.1449 0
M  V30 18 H 2.5305 -2.2938 -0.5377 0
M  V30 19 H 2.7633 -1.7251 1.164 0
M  V30 20 H 1.8746 1.2593 -1.6384 0
M  V30 21 H 3.4434 1.0086 -0.8042 0
M  V30 22 H 2.1083 1.8298 0.0691 0
M  V30 END ATOM
M  V30 BEGIN BOND
M  V30 1 2 1 2
M  V30 2 1 1 3
M  V30 3 1 1 4
M  V30 4 1 2 5
M  V30 5 2 5 6
M  V30 6 1 6 7
M  V30 7 1 6 8
M  V30 8 1 2 9
M  V30 9 1 3 10
M  V30 10 1 3 11
M  V30 11 1 3 12
M  V30 12 1 4 13
M  V30 13 1 4 14
M  V30 14 1 4 15
M  V30 15 1 5 16
M  V30 16 1 7 17
M  V30 17 1 7 18
M  V30 18 1 7 19
M  V30 19 1 8 20
M  V30 20 1 8 21
M  V30 21 1 8 22
M  V30 END BOND
M  V30 END CTAB
M  END
>  <Structure No>
4113

>  <LogS>
-3.537

>  <MMFF94 Energy>
11.423

$$$$
Compound 4114
Actelion Java MolfileCreator 2.0

  0  0  0  0  0  0              0 V3000
M  V30 BEGIN CTAB
M  V30 COUNTS 9 9 0 0 0
M  V30 BEGIN ATOM
M  V30 1 O 2.0647 -0.6349 -0.8731 0
M  V30 2 C 1.2922 -0.373 0.0343 0
M  V30 3 C 0.0911 0.478 -0.2248 0 CFG=1
M  V30 4 O -0.8281 -0.1866 -1.0588 0
M  V30 5 C -1.1934 -0.0405 0.2935 0
M  V30 6 H 1.491 -0.7441 1.0345 0
M  V30 7 H 0.1852 1.5521 -0.4883 0
M  V30 8 H -1.1817 -1.0182 0.821 0
M  V30 9 H -2.008 0.7039 0.4117 0
M  V30 END ATOM
M  V30 BEGIN BOND
M  V30 1 2 1 2
M  V30 2 1 2 3
M  V30 3 1 3 4
M  V30 4 1 3 5
M  V30 5 1 4 5
M  V30 6 1 2 6
M  V30 7 1 3 7
M  V30 8 1 5 8
M  V30 9 1 5 9
M  V30 END BOND
M  V30 BEGIN COLLECTION
M  V30 MDLV30/STEABS ATOMS=(1 3)
M  V30 END COLLECTION
M  V30 END CTAB
M  END
>  <Structure No>
4114

>  <LogS>
1.1423

>  <MMFF94 Energy>
19.084

$$$$
Compound 4115
Actelion Java MolfileCreator 2.0

  0  0  0  0  0  0              0 V3000
M  V30 BEGIN CTAB
M  V30 COUNTS 16 16 0 0 0
M  V30 BEGIN ATOM
M  V30 1 Cl -0.2419 3.0685 -0.3226 0
M  V30 2 C 0.4395 1.4548 -0.1866 0
M  V30 3 C -0.3963 0.3416 0.0047 0
M  V30 4 C 1.8268 1.2892 -0.2711 0
M  V30 5 O -1.7834 0.5435 0.085 0
M  V30 6 C 0.1815 -0.9397 0.11 0
M  V30 7 C 2.3895 0.0154 -0.1655 0
M  V30 8 C -2.7389 -0.4944 0.2766 0
M  V30 9 C 1.5679 -1.0973 0.0247 0
M  V30 10 H 2.4696 2.1477 -0.4184 0
M  V30 11 H -0.4306 -1.8187 0.2575 0
M  V30 12 H 3.4625 -0.1092 -0.2312 0
M  V30 13 H -3.7554 -0.0511 0.3012 0
M  V30 14 H -2.6878 -1.2201 -0.5622 0
M  V30 15 H -2.553 -1.011 1.2418 0
M  V30 16 H 2.0056 -2.0837 0.1063 0
M  V30 END ATOM
M  V30 BEGIN BOND
M  V30 1 1 1 2
M  V30 2 2 2 3
M  V30 3 1 2 4
M  V30 4 1 3 5
M  V30 5 1 3 6
M  V30 6 2 4 7
M  V30 7 1 5 8
M  V30 8 2 6 9
M  V30 9 1 7 9
M  V30 10 1 4 10
M  V30 11 1 6 11
M  V30 12 1 7 12
M  V30 13 1 8 13
M  V30 14 1 8 14
M  V30 15 1 8 15
M  V30 16 1 9 16
M  V30 END BOND
M  V30 END CTAB
M  END
>  <Structure No>
4115

>  <LogS>
-2.4639

>  <MMFF94 Energy>
34.714

$$$$
Compound 4116
Actelion Java MolfileCreator 2.0

  0  0  0  0  0  0              0 V3000
M  V30 BEGIN CTAB
M  V30 COUNTS 18 18 0 0 0
M  V30 BEGIN ATOM
M  V30 1 N 0.2342 -1.4844 0.4685 0
M  V30 2 C -1.0899 -1.2257 0.3017 0
M  V30 3 C 1.1644 -0.5016 0.3342 0
M  V30 4 N -1.5018 0.0329 -0.0047 0
M  V30 5 N -2.0455 -2.2734 0.448 0
M  V30 6 C 0.7561 0.7983 0.0191 0
M  V30 7 C 2.6143 -0.8148 0.5235 0
M  V30 8 C -0.6094 1.0487 -0.1493 0
M  V30 9 C -1.091 2.4236 -0.4867 0
M  V30 10 H -1.7357 -3.2423 0.6834 0
M  V30 11 H -3.0641 -2.0813 0.3212 0
M  V30 12 H 1.4826 1.5949 -0.0919 0
M  V30 13 H 3.1723 -0.5855 -0.4086 0
M  V30 14 H 2.7531 -1.8895 0.7674 0
M  V30 15 H 3.0244 -0.2045 1.3555 0
M  V30 16 H -2.1977 2.4374 -0.5824 0
M  V30 17 H -0.6457 2.7514 -1.4496 0
M  V30 18 H -0.7937 3.1325 0.3144 0
M  V30 END ATOM
M  V30 BEGIN BOND
M  V30 1 2 1 2
M  V30 2 1 1 3
M  V30 3 1 2 4
M  V30 4 1 2 5
M  V30 5 2 3 6
M  V30 6 1 3 7
M  V30 7 2 4 8
M  V30 8 1 8 9
M  V30 9 1 6 8
M  V30 10 1 5 10
M  V30 11 1 5 11
M  V30 12 1 6 12
M  V30 13 1 7 13
M  V30 14 1 7 14
M  V30 15 1 7 15
M  V30 16 1 9 16
M  V30 17 1 9 17
M  V30 18 1 9 18
M  V30 END BOND
M  V30 END CTAB
M  END
>  <Structure No>
4116

>  <LogS>
-0.4884

>  <MMFF94 Energy>
-90.315

$$$$
Compound 4117
Actelion Java MolfileCreator 2.0

  0  0  0  0  0  0              0 V3000
M  V30 BEGIN CTAB
M  V30 COUNTS 28 29 0 0 0
M  V30 BEGIN ATOM
M  V30 1 N 0.8707 1.2666 -0.7123 0 CHG=1
M  V30 2 C -0.1473 0.9139 0.3033 0 CFG=2
M  V30 3 C 2.2399 1.0627 -0.2224 0
M  V30 4 C 0.0289 -0.5457 0.8238 0 CFG=2
M  V30 5 C -1.5727 1.1663 -0.2744 0
M  V30 6 C 2.4771 -0.4075 0.1218 0
M  V30 7 C 1.4917 -0.8577 1.1982 0
M  V30 8 C -0.5587 -1.5636 -0.1731 0
M  V30 9 C -2.569 0.0473 0.0509 0
M  V30 10 C -2.0612 -1.319 -0.4437 0
M  V30 11 H 0.7647 2.2786 -0.9602 0
M  V30 12 H 0.7314 0.704 -1.5845 0
M  V30 13 H -0.0194 1.5892 1.1813 0
M  V30 14 H 2.4295 1.6999 0.6711 0
M  V30 15 H 2.9634 1.367 -1.0105 0
M  V30 16 H -0.5511 -0.6463 1.7692 0
M  V30 17 H -1.5353 1.2731 -1.381 0
M  V30 18 H -1.9673 2.1264 0.1239 0
M  V30 19 H 3.5153 -0.5357 0.4966 0
M  V30 20 H 2.3619 -1.034 -0.7888 0
M  V30 21 H 1.7385 -0.3296 2.1461 0
M  V30 22 H 1.62 -1.9454 1.3886 0
M  V30 23 H -0.4279 -2.5937 0.2248 0
M  V30 24 H -0.0027 -1.5128 -1.1334 0
M  V30 25 H -2.7405 0.0118 1.1491 0
M  V30 26 H -3.5465 0.2712 -0.4284 0
M  V30 27 H -2.6609 -2.1143 0.0499 0
M  V30 28 H -2.2485 -1.4001 -1.537 0
M  V30 END ATOM
M  V30 BEGIN BOND
M  V30 1 1 1 2
M  V30 2 1 1 3
M  V30 3 1 2 4
M  V30 4 1 2 5
M  V30 5 1 3 6
M  V30 6 1 4 7
M  V30 7 1 4 8
M  V30 8 1 5 9
M  V30 9 1 8 10
M  V30 10 1 6 7
M  V30 11 1 9 10
M  V30 12 1 1 11
M  V30 13 1 1 12
M  V30 14 1 2 13
M  V30 15 1 3 14
M  V30 16 1 3 15
M  V30 17 1 4 16
M  V30 18 1 5 17
M  V30 19 1 5 18
M  V30 20 1 6 19
M  V30 21 1 6 20
M  V30 22 1 7 21
M  V30 23 1 7 22
M  V30 24 1 8 23
M  V30 25 1 8 24
M  V30 26 1 9 25
M  V30 27 1 9 26
M  V30 28 1 10 27
M  V30 29 1 10 28
M  V30 END BOND
M  V30 BEGIN COLLECTION
M  V30 MDLV30/STEABS ATOMS=(2 2 4)
M  V30 END COLLECTION
M  V30 END CTAB
M  END
>  <Structure No>
4117

>  <LogS>
-1.0831

>  <MMFF94 Energy>
8.0364

$$$$
Compound 4118
Actelion Java MolfileCreator 2.0

  0  0  0  0  0  0              0 V3000
M  V30 BEGIN CTAB
M  V30 COUNTS 26 28 0 0 0
M  V30 BEGIN ATOM
M  V30 1 C -0.6426 0.6426 -0.0803 0
M  V30 2 C 0.8162 0.3521 0.0622 0
M  V30 3 C -1.5604 -0.4335 -0.0429 0
M  V30 4 C -1.1328 1.9475 -0.295 0
M  V30 5 C 1.2676 -0.9779 -0.1076 0
M  V30 6 C 1.7524 1.3499 0.4039 0
M  V30 7 C -2.9374 -0.1861 -0.155 0
M  V30 8 C -1.0661 -1.8386 0.194 0
M  V30 9 C -2.5053 2.1769 -0.4237 0
M  V30 10 C 2.6351 -1.2744 0.0018 0
M  V30 11 C 0.2906 -2.0642 -0.4818 0
M  V30 12 C 3.1086 1.0368 0.528 0
M  V30 13 C -3.4057 1.1144 -0.3468 0
M  V30 14 C 3.5498 -0.2699 0.3205 0
M  V30 15 H -0.4675 2.7933 -0.3882 0
M  V30 16 H 1.4481 2.3677 0.5998 0
M  V30 17 H -3.6484 -1.0011 -0.0971 0
M  V30 18 H -0.9682 -2.0038 1.289 0
M  V30 19 H -1.7909 -2.5817 -0.2048 0
M  V30 20 H -2.8716 3.1825 -0.5868 0
M  V30 21 H 2.9923 -2.2845 -0.1566 0
M  V30 22 H 0.1605 -2.0641 -1.5858 0
M  V30 23 H 0.678 -3.0614 -0.1787 0
M  V30 24 H 3.8195 1.8103 0.7893 0
M  V30 25 H -4.4683 1.2983 -0.4408 0
M  V30 26 H 4.6022 -0.506 0.4119 0
M  V30 END ATOM
M  V30 BEGIN BOND
M  V30 1 1 1 2
M  V30 2 2 1 3
M  V30 3 1 1 4
M  V30 4 2 2 5
M  V30 5 1 2 6
M  V30 6 1 3 7
M  V30 7 1 3 8
M  V30 8 2 4 9
M  V30 9 1 5 10
M  V30 10 1 5 11
M  V30 11 2 6 12
M  V30 12 2 7 13
M  V30 13 2 10 14
M  V30 14 1 8 11
M  V30 15 1 9 13
M  V30 16 1 12 14
M  V30 17 1 4 15
M  V30 18 1 6 16
M  V30 19 1 7 17
M  V30 20 1 8 18
M  V30 21 1 8 19
M  V30 22 1 9 20
M  V30 23 1 10 21
M  V30 24 1 11 22
M  V30 25 1 11 23
M  V30 26 1 12 24
M  V30 27 1 13 25
M  V30 28 1 14 26
M  V30 END BOND
M  V30 END CTAB
M  END
>  <Structure No>
4118

>  <LogS>
-4.6347

>  <MMFF94 Energy>
47.164

$$$$
Compound 4119
Actelion Java MolfileCreator 2.0

  0  0  0  0  0  0              0 V3000
M  V30 BEGIN CTAB
M  V30 COUNTS 30 31 0 0 0
M  V30 BEGIN ATOM
M  V30 1 O -0.7965 -0.7965 1.434 0
M  V30 2 C -1.4248 0.0239 0.7105 0
M  V30 3 N -0.7205 1.1257 0.1154 0
M  V30 4 C -2.8865 -0.1402 0.5193 0
M  V30 5 N 0.6834 1.1649 0.0353 0
M  V30 6 C -3.6288 -0.9507 1.3995 0
M  V30 7 C -3.5527 0.4872 -0.5509 0
M  V30 8 C 1.4628 0.0182 -0.341 0
M  V30 9 C -5.0061 -1.1149 1.2216 0
M  V30 10 C -4.9303 0.3187 -0.7242 0
M  V30 11 O 0.8947 -0.9658 -0.8889 0
M  V30 12 C 2.9309 -0.0092 -0.1309 0
M  V30 13 C -5.6565 -0.4793 0.162 0
M  V30 14 C 3.5471 0.8554 0.7942 0
M  V30 15 C 3.7306 -0.9231 -0.8433 0
M  V30 16 C 4.9315 0.8148 0.9879 0
M  V30 17 C 5.1145 -0.9586 -0.6458 0
M  V30 18 C 5.7146 -0.0892 0.2672 0
M  V30 19 H -1.247 2.0041 -0.0893 0
M  V30 20 H 1.1493 2.099 0.0638 0
M  V30 21 H -3.1467 -1.4506 2.2306 0
M  V30 22 H -3.0122 1.092 -1.267 0
M  V30 23 H -5.5694 -1.7357 1.9065 0
M  V30 24 H -5.4342 0.8034 -1.5505 0
M  V30 25 H -6.7224 -0.6086 0.0253 0
M  V30 26 H 2.9631 1.5496 1.384 0
M  V30 27 H 3.2879 -1.6044 -1.5593 0
M  V30 28 H 5.3969 1.4819 1.7022 0
M  V30 29 H 5.7219 -1.661 -1.2018 0
M  V30 30 H 6.7858 -0.1189 0.4196 0
M  V30 END ATOM
M  V30 BEGIN BOND
M  V30 1 2 1 2
M  V30 2 1 2 3
M  V30 3 1 2 4
M  V30 4 1 3 5
M  V30 5 2 4 6
M  V30 6 1 4 7
M  V30 7 1 5 8
M  V30 8 1 6 9
M  V30 9 2 7 10
M  V30 10 2 8 11
M  V30 11 1 8 12
M  V30 12 2 9 13
M  V30 13 2 12 14
M  V30 14 1 12 15
M  V30 15 1 14 16
M  V30 16 2 15 17
M  V30 17 2 16 18
M  V30 18 1 10 13
M  V30 19 1 17 18
M  V30 20 1 3 19
M  V30 21 1 5 20
M  V30 22 1 6 21
M  V30 23 1 7 22
M  V30 24 1 9 23
M  V30 25 1 10 24
M  V30 26 1 13 25
M  V30 27 1 14 26
M  V30 28 1 15 27
M  V30 29 1 16 28
M  V30 30 1 17 29
M  V30 31 1 18 30
M  V30 END BOND
M  V30 END CTAB
M  END
>  <Structure No>
4119

>  <LogS>
-1.5883

>  <MMFF94 Energy>
81.558

$$$$
Compound 4120
Actelion Java MolfileCreator 2.0

  0  0  0  0  0  0              0 V3000
M  V30 BEGIN CTAB
M  V30 COUNTS 29 28 0 0 0
M  V30 BEGIN ATOM
M  V30 1 O 1.096 -0.4696 1.3309 0
M  V30 2 C 1.5199 0.3183 0.4417 0
M  V30 3 O 2.7208 0.0613 -0.2251 0
M  V30 4 C 0.7165 1.5267 0.0726 0
M  V30 5 C 3.5215 -1.0825 0.0509 0
M  V30 6 C 0.0398 1.3646 -1.2977 0
M  V30 7 C 4.7498 -1.0724 -0.8446 0
M  V30 8 C -1.0033 0.2368 -1.3416 0
M  V30 9 C -2.1617 0.5145 -0.4349 0
M  V30 10 O -3.0707 1.3066 -0.8055 0
M  V30 11 O -2.1984 -0.0755 0.8335 0
M  V30 12 C -3.2625 0.1232 1.7616 0
M  V30 13 C -4.4886 -0.6862 1.3563 0
M  V30 14 H 1.3999 2.4017 0.0312 0
M  V30 15 H -0.0421 1.7399 0.8563 0
M  V30 16 H 3.8423 -1.0685 1.1151 0
M  V30 17 H 2.9345 -2.0067 -0.1417 0
M  V30 18 H -0.4494 2.3248 -1.5719 0
M  V30 19 H 0.8174 1.1636 -2.0667 0
M  V30 20 H 5.3491 -0.1566 -0.6558 0
M  V30 21 H 4.4414 -1.0934 -1.9113 0
M  V30 22 H 5.3762 -1.964 -0.632 0
M  V30 23 H -1.3792 0.1368 -2.3828 0
M  V30 24 H -0.5361 -0.7328 -1.0673 0
M  V30 25 H -2.9256 -0.2174 2.7632 0
M  V30 26 H -3.518 1.2029 1.8327 0
M  V30 27 H -4.8766 -0.3377 0.3765 0
M  V30 28 H -5.2858 -0.5634 2.1192 0
M  V30 29 H -4.2243 -1.7622 1.2817 0
M  V30 END ATOM
M  V30 BEGIN BOND
M  V30 1 2 1 2
M  V30 2 1 2 3
M  V30 3 1 2 4
M  V30 4 1 3 5
M  V30 5 1 4 6
M  V30 6 1 5 7
M  V30 7 1 6 8
M  V30 8 1 8 9
M  V30 9 2 9 10
M  V30 10 1 9 11
M  V30 11 1 11 12
M  V30 12 1 12 13
M  V30 13 1 4 14
M  V30 14 1 4 15
M  V30 15 1 5 16
M  V30 16 1 5 17
M  V30 17 1 6 18
M  V30 18 1 6 19
M  V30 19 1 7 20
M  V30 20 1 7 21
M  V30 21 1 7 22
M  V30 22 1 8 23
M  V30 23 1 8 24
M  V30 24 1 12 25
M  V30 25 1 12 26
M  V30 26 1 13 27
M  V30 27 1 13 28
M  V30 28 1 13 29
M  V30 END BOND
M  V30 END CTAB
M  END
>  <Structure No>
4120

>  <LogS>
-1.3297

>  <MMFF94 Energy>
-22.566

$$$$
Compound 4121
Actelion Java MolfileCreator 2.0

  0  0  0  0  0  0              0 V3000
M  V30 BEGIN CTAB
M  V30 COUNTS 16 15 0 0 0
M  V30 BEGIN ATOM
M  V30 1 O -2.2049 -0.8358 -0.9119 0
M  V30 2 C -2.0519 0.0275 0.1826 0
M  V30 3 C -0.5949 0.0586 0.6559 0
M  V30 4 C 0.3411 0.6162 -0.4248 0
M  V30 5 C 1.7566 0.7064 0.0752 0
M  V30 6 C 2.4999 -0.3843 0.2829 0
M  V30 7 H -2.163 -1.7603 -0.5522 0
M  V30 8 H -2.3711 1.0487 -0.1162 0
M  V30 9 H -2.7094 -0.2964 1.021 0
M  V30 10 H -0.531 0.6993 1.5627 0
M  V30 11 H -0.2818 -0.97 0.9382 0
M  V30 12 H 0.3101 -0.0245 -1.3328 0
M  V30 13 H 0.0029 1.6359 -0.7109 0
M  V30 14 H 2.1958 1.6857 0.2419 0
M  V30 15 H 3.5232 -0.2857 0.6305 0
M  V30 16 H 2.0979 -1.3771 0.1055 0
M  V30 END ATOM
M  V30 BEGIN BOND
M  V30 1 1 1 2
M  V30 2 1 2 3
M  V30 3 1 3 4
M  V30 4 1 4 5
M  V30 5 2 5 6
M  V30 6 1 1 7
M  V30 7 1 2 8
M  V30 8 1 2 9
M  V30 9 1 3 10
M  V30 10 1 3 11
M  V30 11 1 4 12
M  V30 12 1 4 13
M  V30 13 1 5 14
M  V30 14 1 6 15
M  V30 15 1 6 16
M  V30 END BOND
M  V30 END CTAB
M  END
>  <Structure No>
4121

>  <LogS>
-0.1793

>  <MMFF94 Energy>
8.1603

$$$$
Compound 4122
Actelion Java MolfileCreator 2.0

  0  0  0  0  0  0              0 V3000
M  V30 BEGIN CTAB
M  V30 COUNTS 29 28 0 0 0
M  V30 BEGIN ATOM
M  V30 1 O 0.1546 0.4638 0.1546 0
M  V30 2 C -1.0757 0.0439 0.7054 0
M  V30 3 C 1.2076 0.1242 1.0331 0
M  V30 4 C -2.2068 0.4438 -0.2464 0
M  V30 5 C 2.546 0.5456 0.4205 0
M  V30 6 C -3.6097 0.1716 0.3354 0 CFG=1
M  V30 7 C 2.8535 -0.2037 -0.8926 0 CFG=2
M  V30 8 O -4.5795 0.7513 -0.4979 0
M  V30 9 C -3.9023 -1.3266 0.4494 0
M  V30 10 O 2.9144 -1.5928 -0.6828 0
M  V30 11 C 4.1601 0.2959 -1.5177 0
M  V30 12 H -1.2486 0.5323 1.6922 0
M  V30 13 H -1.0811 -1.0619 0.8293 0
M  V30 14 H 1.2286 -0.9715 1.2338 0
M  V30 15 H 1.0913 0.6628 2.0014 0
M  V30 16 H -2.1148 1.5329 -0.4532 0
M  V30 17 H -2.0858 -0.0915 -1.2136 0
M  V30 18 H 3.3551 0.3538 1.1591 0
M  V30 19 H 2.5189 1.6405 0.2258 0
M  V30 20 H -3.6838 0.6167 1.3557 0
M  V30 21 H 2.0372 -8.0E-4 -1.6196 0
M  V30 22 H -4.5786 1.7259 -0.3072 0
M  V30 23 H -3.247 -1.8 1.2094 0
M  V30 24 H -4.9552 -1.4781 0.7696 0
M  V30 25 H -3.7547 -1.8299 -0.5298 0
M  V30 26 H 3.6428 -1.7662 -0.0302 0
M  V30 27 H 5.0119 0.1397 -0.8217 0
M  V30 28 H 4.3617 -0.257 -2.4595 0
M  V30 29 H 4.0822 1.3785 -1.7553 0
M  V30 END ATOM
M  V30 BEGIN BOND
M  V30 1 1 1 2
M  V30 2 1 1 3
M  V30 3 1 2 4
M  V30 4 1 3 5
M  V30 5 1 4 6
M  V30 6 1 5 7
M  V30 7 1 6 8
M  V30 8 1 6 9
M  V30 9 1 7 10
M  V30 10 1 7 11
M  V30 11 1 2 12
M  V30 12 1 2 13
M  V30 13 1 3 14
M  V30 14 1 3 15
M  V30 15 1 4 16
M  V30 16 1 4 17
M  V30 17 1 5 18
M  V30 18 1 5 19
M  V30 19 1 6 20
M  V30 20 1 7 21
M  V30 21 1 8 22
M  V30 22 1 9 23
M  V30 23 1 9 24
M  V30 24 1 9 25
M  V30 25 1 10 26
M  V30 26 1 11 27
M  V30 27 1 11 28
M  V30 28 1 11 29
M  V30 END BOND
M  V30 BEGIN COLLECTION
M  V30 MDLV30/STEABS ATOMS=(2 6 7)
M  V30 END COLLECTION
M  V30 END CTAB
M  END
>  <Structure No>
4122

>  <LogS>
0.7899

>  <MMFF94 Energy>
8.1196

$$$$
Compound 4123
Actelion Java MolfileCreator 2.0

  0  0  0  0  0  0              0 V3000
M  V30 BEGIN CTAB
M  V30 COUNTS 42 41 0 0 0
M  V30 BEGIN ATOM
M  V30 1 O 6.6616 0.1582 -0.2373 0
M  V30 2 C 6.4012 -0.8056 0.5299 0
M  V30 3 O 7.1338 -0.9729 1.6982 0 CHG=-1
M  V30 4 C 5.2841 -1.7487 0.2041 0
M  V30 5 C 4.0335 -1.473 1.0539 0
M  V30 6 C 3.4114 -0.0824 0.8312 0
M  V30 7 C 2.8482 0.0981 -0.5894 0
M  V30 8 C 2.0203 1.3935 -0.7277 0
M  V30 9 C 0.5004 1.1563 -0.7073 0
M  V30 10 C -0.0075 0.6583 0.6556 0
M  V30 11 C -1.5413 0.6674 0.7523 0
M  V30 12 C -2.1962 -0.3747 -0.1714 0
M  V30 13 C -3.6954 -0.5586 0.1128 0
M  V30 14 C -4.5307 0.6627 -0.3091 0
M  V30 15 C -6.0332 0.4394 -0.0915 0
M  V30 16 C -6.5912 -0.5643 -1.0535 0
M  V30 17 O -6.8427 -1.7376 -0.6718 0
M  V30 18 O -6.8066 -0.211 -2.3796 0 CHG=-1
M  V30 19 H 5.6304 -2.7841 0.4101 0
M  V30 20 H 5.0405 -1.7001 -0.8782 0
M  V30 21 H 3.2715 -2.2524 0.8344 0
M  V30 22 H 4.2999 -1.5748 2.1289 0
M  V30 23 H 4.1625 0.7097 1.0392 0
M  V30 24 H 2.5964 0.043 1.574 0
M  V30 25 H 2.2413 -0.7878 -0.8785 0
M  V30 26 H 3.7012 0.157 -1.2989 0
M  V30 27 H 2.2669 1.8595 -1.7071 0
M  V30 28 H 2.3001 2.1372 0.051 0
M  V30 29 H 7.0E-4 2.1193 -0.9512 0
M  V30 30 H 0.2347 0.4278 -1.5032 0
M  V30 31 H 0.3896 1.322 1.4546 0
M  V30 32 H 0.3652 -0.3707 0.8476 0
M  V30 33 H -1.917 1.6848 0.5114 0
M  V30 34 H -1.8186 0.4444 1.8059 0
M  V30 35 H -2.0572 -0.0851 -1.2351 0
M  V30 36 H -1.6971 -1.3568 -0.0198 0
M  V30 37 H -4.0401 -1.449 -0.4556 0
M  V30 38 H -3.8514 -0.7693 1.1936 0
M  V30 39 H -4.3394 0.9058 -1.3776 0
M  V30 40 H -4.2288 1.5414 0.2989 0
M  V30 41 H -6.2232 0.1157 0.9554 0
M  V30 42 H -6.5651 1.4031 -0.2438 0
M  V30 END ATOM
M  V30 BEGIN BOND
M  V30 1 2 1 2
M  V30 2 1 2 3
M  V30 3 1 2 4
M  V30 4 1 4 5
M  V30 5 1 5 6
M  V30 6 1 6 7
M  V30 7 1 7 8
M  V30 8 1 8 9
M  V30 9 1 9 10
M  V30 10 1 10 11
M  V30 11 1 11 12
M  V30 12 1 12 13
M  V30 13 1 13 14
M  V30 14 1 14 15
M  V30 15 1 15 16
M  V30 16 2 16 17
M  V30 17 1 16 18
M  V30 18 1 4 19
M  V30 19 1 4 20
M  V30 20 1 5 21
M  V30 21 1 5 22
M  V30 22 1 6 23
M  V30 23 1 6 24
M  V30 24 1 7 25
M  V30 25 1 7 26
M  V30 26 1 8 27
M  V30 27 1 8 28
M  V30 28 1 9 29
M  V30 29 1 9 30
M  V30 30 1 10 31
M  V30 31 1 10 32
M  V30 32 1 11 33
M  V30 33 1 11 34
M  V30 34 1 12 35
M  V30 35 1 12 36
M  V30 36 1 13 37
M  V30 37 1 13 38
M  V30 38 1 14 39
M  V30 39 1 14 40
M  V30 40 1 15 41
M  V30 41 1 15 42
M  V30 END BOND
M  V30 END CTAB
M  END
>  <Structure No>
4123

>  <LogS>
-3.1112

>  <MMFF94 Energy>
26.019

$$$$
Compound 4124
Actelion Java MolfileCreator 2.0

  0  0  0  0  0  0              0 V3000
M  V30 BEGIN CTAB
M  V30 COUNTS 20 20 0 0 0
M  V30 BEGIN ATOM
M  V30 1 O 0.7832 -0.4698 1.2533 0
M  V30 2 C 0.1637 0.3822 0.3147 0
M  V30 3 C 2.1509 -0.3974 0.9973 0
M  V30 4 O 1.0837 0.7915 -0.6706 0
M  V30 5 C -1.0264 -0.3429 -0.3474 0
M  V30 6 C 2.3353 0.616 -0.0927 0
M  V30 7 C -2.0442 -0.8078 0.7044 0
M  V30 8 C -1.7187 0.5603 -1.3786 0
M  V30 9 H -0.2101 1.285 0.8492 0
M  V30 10 H 2.6942 -0.0954 1.9183 0
M  V30 11 H 2.5117 -1.3952 0.6662 0
M  V30 12 H -0.6412 -1.2421 -0.8777 0
M  V30 13 H 3.0579 0.2553 -0.8554 0
M  V30 14 H 2.6895 1.5844 0.3244 0
M  V30 15 H -2.8937 -1.3287 0.213 0
M  V30 16 H -1.5734 -1.5227 1.4119 0
M  V30 17 H -2.4388 0.0586 1.2778 0
M  V30 18 H -2.5715 0.0244 -1.8474 0
M  V30 19 H -2.0994 1.486 -0.8956 0
M  V30 20 H -1.011 0.8414 -2.1868 0
M  V30 END ATOM
M  V30 BEGIN BOND
M  V30 1 1 1 2
M  V30 2 1 1 3
M  V30 3 1 2 4
M  V30 4 1 2 5
M  V30 5 1 3 6
M  V30 6 1 5 7
M  V30 7 1 5 8
M  V30 8 1 4 6
M  V30 9 1 2 9
M  V30 10 1 3 10
M  V30 11 1 3 11
M  V30 12 1 5 12
M  V30 13 1 6 13
M  V30 14 1 6 14
M  V30 15 1 7 15
M  V30 16 1 7 16
M  V30 17 1 7 17
M  V30 18 1 8 18
M  V30 19 1 8 19
M  V30 20 1 8 20
M  V30 END BOND
M  V30 END CTAB
M  END
>  <Structure No>
4124

>  <LogS>
-0.0651

>  <MMFF94 Energy>
14.189

$$$$
Compound 4125
Actelion Java MolfileCreator 2.0

  0  0  0  0  0  0              0 V3000
M  V30 BEGIN CTAB
M  V30 COUNTS 14 14 0 0 0
M  V30 BEGIN ATOM
M  V30 1 S -1.6445 -0.9042 0.9865 0
M  V30 2 C -0.1412 -0.2933 0.2335 0
M  V30 3 C -2.6655 -0.5248 -0.4707 0
M  V30 4 N 0.6497 -1.1348 -0.4831 0
M  V30 5 N 0.2113 1.011 0.3824 0
M  V30 6 C 1.7954 -0.6899 -1.0618 0
M  V30 7 C 1.3494 1.4935 -0.181 0
M  V30 8 C 2.172 0.6456 -0.9219 0
M  V30 9 H -3.7144 -0.8217 -0.2657 0
M  V30 10 H -2.6349 0.564 -0.6844 0
M  V30 11 H -2.2969 -1.0904 -1.3519 0
M  V30 12 H 2.4129 -1.3726 -1.6296 0
M  V30 13 H 1.6148 2.5344 -0.0534 0
M  V30 14 H 3.0817 1.0151 -1.3769 0
M  V30 END ATOM
M  V30 BEGIN BOND
M  V30 1 1 1 2
M  V30 2 1 1 3
M  V30 3 2 2 4
M  V30 4 1 2 5
M  V30 5 1 4 6
M  V30 6 2 5 7
M  V30 7 2 6 8
M  V30 8 1 7 8
M  V30 9 1 3 9
M  V30 10 1 3 10
M  V30 11 1 3 11
M  V30 12 1 6 12
M  V30 13 1 7 13
M  V30 14 1 8 14
M  V30 END BOND
M  V30 END CTAB
M  END
>  <Structure No>
4125

>  <LogS>
-0.402

>  <MMFF94 Energy>
-31.175

$$$$
Compound 4126
Actelion Java MolfileCreator 2.0

  0  0  0  0  0  0              0 V3000
M  V30 BEGIN CTAB
M  V30 COUNTS 26 26 0 0 0
M  V30 BEGIN ATOM
M  V30 1 O 2.5363 1.3468 1.1883 0
M  V30 2 C 2.8483 0.5757 0.2405 0
M  V30 3 O 1.8762 -0.1964 -0.4031 0
M  V30 4 C 4.2614 0.5202 -0.2307 0
M  V30 5 C 0.5002 -0.1749 -0.0325 0 CFG=1
M  V30 6 O -0.0384 1.1069 -0.2918 0
M  V30 7 C -0.2585 -1.2307 -0.842 0
M  V30 8 C -1.3932 1.2026 0.1485 0 CFG=1
M  V30 9 C -1.7397 -0.8252 -0.9292 0 CFG=2
M  V30 10 O -2.0831 -0.0427 0.1955 0
M  V30 11 C -1.4399 1.8573 1.5255 0
M  V30 12 C -2.6465 -2.0533 -0.9847 0
M  V30 13 H 4.4535 1.366 -0.923 0
M  V30 14 H 4.4462 -0.4359 -0.7636 0
M  V30 15 H 4.9545 0.5885 0.634 0
M  V30 16 H 0.4219 -0.4174 1.0533 0
M  V30 17 H -0.132 -2.2176 -0.3443 0
M  V30 18 H 0.1588 -1.305 -1.8703 0
M  V30 19 H -1.9329 1.8758 -0.5535 0
M  V30 20 H -1.9111 -0.2451 -1.8675 0
M  V30 21 H -0.9356 1.2147 2.2775 0
M  V30 22 H -2.4952 2.0109 1.8356 0
M  V30 23 H -0.9301 2.8436 1.4938 0
M  V30 24 H -2.3812 -2.6865 -1.858 0
M  V30 25 H -3.705 -1.7333 -1.0883 0
M  V30 26 H -2.5465 -2.6531 -0.0547 0
M  V30 END ATOM
M  V30 BEGIN BOND
M  V30 1 2 1 2
M  V30 2 1 2 3
M  V30 3 1 2 4
M  V30 4 1 3 5
M  V30 5 1 5 6
M  V30 6 1 5 7
M  V30 7 1 6 8
M  V30 8 1 7 9
M  V30 9 1 8 10
M  V30 10 1 8 11
M  V30 11 1 9 12
M  V30 12 1 9 10
M  V30 13 1 4 13
M  V30 14 1 4 14
M  V30 15 1 4 15
M  V30 16 1 5 16
M  V30 17 1 7 17
M  V30 18 1 7 18
M  V30 19 1 8 19
M  V30 20 1 9 20
M  V30 21 1 11 21
M  V30 22 1 11 22
M  V30 23 1 11 23
M  V30 24 1 12 24
M  V30 25 1 12 25
M  V30 26 1 12 26
M  V30 END BOND
M  V30 BEGIN COLLECTION
M  V30 MDLV30/STEABS ATOMS=(3 5 8 9)
M  V30 END COLLECTION
M  V30 END CTAB
M  END
>  <Structure No>
4126

>  <LogS>
0.759

>  <MMFF94 Energy>
-53.237

$$$$
Compound 4127
Actelion Java MolfileCreator 2.0

  0  0  0  0  0  0              0 V3000
M  V30 BEGIN CTAB
M  V30 COUNTS 24 25 0 0 0
M  V30 BEGIN ATOM
M  V30 1 O -3.0882 1.0286 0.079 0
M  V30 2 C -1.962 0.4601 0.0053 0
M  V30 3 N -1.8941 -0.9199 -0.1087 0
M  V30 4 N -0.8129 1.2219 0.0477 0
M  V30 5 C -0.6717 -1.5528 -0.1166 0
M  V30 6 C -3.1322 -1.7159 -0.1364 0
M  V30 7 C 0.3823 0.572 0.0268 0
M  V30 8 C -0.8723 2.6821 0.1955 0
M  V30 9 O -0.5791 -2.81 -0.1699 0
M  V30 10 C 0.4692 -0.7726 -0.0547 0
M  V30 11 N 1.6085 1.1234 0.1143 0
M  V30 12 N 1.7556 -1.1426 -0.0276 0
M  V30 13 C 2.4223 0.0348 0.0637 0
M  V30 14 C 3.9069 0.1256 0.1848 0
M  V30 15 H -2.9859 -2.6743 -0.6788 0
M  V30 16 H -3.4589 -1.9321 0.9025 0
M  V30 17 H -3.9429 -1.1744 -0.6693 0
M  V30 18 H -1.7089 3.1023 -0.4027 0
M  V30 19 H -1.0204 2.9419 1.2648 0
M  V30 20 H 0.0607 3.1631 -0.168 0
M  V30 21 H 2.1516 -2.1087 -0.0543 0
M  V30 22 H 4.2582 1.1159 -0.1737 0
M  V30 23 H 4.1992 -0.0033 1.2475 0
M  V30 24 H 4.3858 -0.668 -0.426 0
M  V30 END ATOM
M  V30 BEGIN BOND
M  V30 1 2 1 2
M  V30 2 1 2 3
M  V30 3 1 2 4
M  V30 4 1 3 5
M  V30 5 1 3 6
M  V30 6 1 4 7
M  V30 7 1 4 8
M  V30 8 2 5 9
M  V30 9 1 5 10
M  V30 10 1 7 11
M  V30 11 1 10 12
M  V30 12 2 11 13
M  V30 13 1 13 14
M  V30 14 2 7 10
M  V30 15 1 12 13
M  V30 16 1 6 15
M  V30 17 1 6 16
M  V30 18 1 6 17
M  V30 19 1 8 18
M  V30 20 1 8 19
M  V30 21 1 8 20
M  V30 22 1 12 21
M  V30 23 1 14 22
M  V30 24 1 14 23
M  V30 25 1 14 24
M  V30 END BOND
M  V30 END CTAB
M  END
>  <Structure No>
4127

>  <LogS>
-0.7276

>  <MMFF94 Energy>
-125.42

$$$$
Compound 4128
Actelion Java MolfileCreator 2.0

  0  0  0  0  0  0              0 V3000
M  V30 BEGIN CTAB
M  V30 COUNTS 27 28 0 0 0
M  V30 BEGIN ATOM
M  V30 1 O 3.4819 -0.8696 -0.3952 0
M  V30 2 C 2.3054 -0.4496 -0.2034 0
M  V30 3 N 2.0785 0.9062 -0.0327 0
M  V30 4 N 1.2608 -1.3482 -0.1746 0
M  V30 5 C 0.794 1.3819 0.1034 0
M  V30 6 C 3.2076 1.85 -0.0813 0
M  V30 7 C 2.0E-4 -0.8572 -0.0291 0
M  V30 8 C 1.4879 -2.7849 -0.3794 0
M  V30 9 O 0.5625 2.6176 0.2093 0
M  V30 10 C -0.2502 0.465 0.1111 0
M  V30 11 N -1.1463 -1.565 -0.0294 0
M  V30 12 N -1.5782 0.6527 0.2148 0
M  V30 13 C -2.0943 -0.6032 0.1223 0
M  V30 14 C -2.2954 1.9202 0.3534 0
M  V30 15 C -3.5555 -0.92 0.1719 0
M  V30 16 H 2.9987 2.7627 0.5165 0
M  V30 17 H 3.4033 2.1419 -1.1345 0
M  V30 18 H 4.1262 1.3977 0.3494 0
M  V30 19 H 2.4244 -3.1093 0.1222 0
M  V30 20 H 1.562 -2.9982 -1.4664 0
M  V30 21 H 0.6625 -3.3899 0.0527 0
M  V30 22 H -3.3844 1.7538 0.4812 0
M  V30 23 H -2.1362 2.5397 -0.5536 0
M  V30 24 H -1.9221 2.4663 1.2448 0
M  V30 25 H -4.0802 -0.396 -0.6537 0
M  V30 26 H -3.7157 -2.013 0.0606 0
M  V30 27 H -3.9759 -0.5946 1.1461 0
M  V30 END ATOM
M  V30 BEGIN BOND
M  V30 1 2 1 2
M  V30 2 1 2 3
M  V30 3 1 2 4
M  V30 4 1 3 5
M  V30 5 1 3 6
M  V30 6 1 4 7
M  V30 7 1 4 8
M  V30 8 2 5 9
M  V30 9 1 5 10
M  V30 10 1 7 11
M  V30 11 1 10 12
M  V30 12 2 11 13
M  V30 13 1 12 14
M  V30 14 1 13 15
M  V30 15 2 7 10
M  V30 16 1 12 13
M  V30 17 1 6 16
M  V30 18 1 6 17
M  V30 19 1 6 18
M  V30 20 1 8 19
M  V30 21 1 8 20
M  V30 22 1 8 21
M  V30 23 1 14 22
M  V30 24 1 14 23
M  V30 25 1 14 24
M  V30 26 1 15 25
M  V30 27 1 15 26
M  V30 28 1 15 27
M  V30 END BOND
M  V30 END CTAB
M  END
>  <Structure No>
4128

>  <LogS>
-1.4493

>  <MMFF94 Energy>
-121.38

$$$$
Compound 4129
Actelion Java MolfileCreator 2.0

  0  0  0  0  0  0              0 V3000
M  V30 BEGIN CTAB
M  V30 COUNTS 35 35 0 0 0
M  V30 BEGIN ATOM
M  V30 1 O -0.3949 0.0789 2.0551 0
M  V30 2 C -0.8044 -8.0E-4 0.8645 0
M  V30 3 O -1.7267 -0.9861 0.4915 0
M  V30 4 C -0.2902 0.9658 -0.1676 0 CFG=2
M  V30 5 C -2.289 -1.9223 1.4079 0
M  V30 6 N -1.396 1.7874 -0.6684 0
M  V30 7 C 0.3803 0.2234 -1.338 0
M  V30 8 C -3.3602 -1.2579 2.2649 0
M  V30 9 C -1.1855 3.0717 -1.2716 0
M  V30 10 C 1.6026 -0.5374 -0.8892 0
M  V30 11 O -0.0282 3.5683 -1.332 0
M  V30 12 C -2.3478 3.8422 -1.8075 0
M  V30 13 C 2.8261 0.1302 -0.7175 0
M  V30 14 C 1.5191 -1.9081 -0.5932 0
M  V30 15 C 3.9531 -0.5668 -0.2715 0
M  V30 16 C 2.6473 -2.6027 -0.1467 0
M  V30 17 C 3.8663 -1.936 0.0139 0
M  V30 18 O 4.9822 -2.6408 0.4595 0
M  V30 19 H 0.4608 1.6296 0.3181 0
M  V30 20 H -2.7561 -2.7463 0.8288 0
M  V30 21 H -1.4948 -2.3602 2.0509 0
M  V30 22 H -2.3699 1.4062 -0.6478 0
M  V30 23 H -0.3496 -0.4644 -1.8195 0
M  V30 24 H 0.6818 0.9581 -2.1159 0
M  V30 25 H -3.829 -2.0141 2.929 0
M  V30 26 H -2.9136 -0.4595 2.8938 0
M  V30 27 H -4.1437 -0.814 1.6148 0
M  V30 28 H -1.9988 4.7239 -2.3859 0
M  V30 29 H -2.9513 3.1926 -2.4755 0
M  V30 30 H -2.9812 4.1891 -0.9646 0
M  V30 31 H 2.9052 1.19 -0.9265 0
M  V30 32 H 0.5807 -2.4374 -0.7042 0
M  V30 33 H 4.8916 -0.0417 -0.1465 0
M  V30 34 H 2.5735 -3.6592 0.0767 0
M  V30 35 H 5.8786 -2.1862 0.5888 0
M  V30 END ATOM
M  V30 BEGIN BOND
M  V30 1 2 1 2
M  V30 2 1 2 3
M  V30 3 1 2 4
M  V30 4 1 3 5
M  V30 5 1 4 6
M  V30 6 1 4 7
M  V30 7 1 5 8
M  V30 8 1 6 9
M  V30 9 1 7 10
M  V30 10 2 9 11
M  V30 11 1 9 12
M  V30 12 2 10 13
M  V30 13 1 10 14
M  V30 14 1 13 15
M  V30 15 2 14 16
M  V30 16 2 15 17
M  V30 17 1 17 18
M  V30 18 1 16 17
M  V30 19 1 4 19
M  V30 20 1 5 20
M  V30 21 1 5 21
M  V30 22 1 6 22
M  V30 23 1 7 23
M  V30 24 1 7 24
M  V30 25 1 8 25
M  V30 26 1 8 26
M  V30 27 1 8 27
M  V30 28 1 12 28
M  V30 29 1 12 29
M  V30 30 1 12 30
M  V30 31 1 13 31
M  V30 32 1 14 32
M  V30 33 1 15 33
M  V30 34 1 16 34
M  V30 35 1 18 35
M  V30 END BOND
M  V30 BEGIN COLLECTION
M  V30 MDLV30/STEABS ATOMS=(1 4)
M  V30 END COLLECTION
M  V30 END CTAB
M  END
>  <Structure No>
4129

>  <LogS>
-1.8586

>  <MMFF94 Energy>
10.981

$$$$
Compound 4130
Actelion Java MolfileCreator 2.0

  0  0  0  0  0  0              0 V3000
M  V30 BEGIN CTAB
M  V30 COUNTS 39 39 0 0 0
M  V30 BEGIN ATOM
M  V30 1 S -2.7912 3.0307 2.1526 0
M  V30 2 C -1.7834 1.7298 1.452 0
M  V30 3 C -2.2645 4.2595 0.9189 0
M  V30 4 N -2.2918 0.9249 0.4862 0
M  V30 5 N -0.5119 1.547 1.8875 0
M  V30 6 C -1.5307 -0.0656 -0.0482 0
M  V30 7 C 0.2563 0.5623 1.356 0
M  V30 8 N -0.2578 -0.2428 0.389 0
M  V30 9 N -2.0547 -0.9198 -1.0733 0
M  V30 10 N 1.5983 0.3779 1.8239 0
M  V30 11 C -3.4276 -0.8012 -1.576 0
M  V30 12 C 2.4931 -0.6432 1.2826 0
M  V30 13 C -3.5565 -1.4939 -2.9363 0
M  V30 14 C -4.4096 -1.4109 -0.5711 0
M  V30 15 C 3.0277 -0.2147 -0.0891 0
M  V30 16 C 3.9568 -1.2732 -0.6955 0
M  V30 17 O 5.0827 -1.4954 0.1343 0
M  V30 18 C 6.1762 -0.7165 -0.2987 0
M  V30 19 H -2.5453 3.9208 -0.1001 0
M  V30 20 H -1.1659 4.4092 0.975 0
M  V30 21 H -2.77 5.2242 1.1294 0
M  V30 22 H -1.4138 -1.6346 -1.4881 0
M  V30 23 H 1.9357 0.9644 2.6205 0
M  V30 24 H -3.6765 0.2734 -1.7201 0
M  V30 25 H 3.3463 -0.7795 1.9822 0
M  V30 26 H 1.9551 -1.6133 1.2076 0
M  V30 27 H -4.5849 -1.3659 -3.3366 0
M  V30 28 H -2.8426 -1.0429 -3.6578 0
M  V30 29 H -3.337 -2.5794 -2.8458 0
M  V30 30 H -4.1748 -2.4837 -0.4017 0
M  V30 31 H -4.3503 -0.8764 0.3998 0
M  V30 32 H -5.4503 -1.3237 -0.9498 0
M  V30 33 H 2.1778 -0.054 -0.7862 0
M  V30 34 H 3.5707 0.7495 0.0099 0
M  V30 35 H 3.3976 -2.2292 -0.7823 0
M  V30 36 H 4.2248 -0.9819 -1.7392 0
M  V30 37 H 7.0096 -0.8452 0.4218 0
M  V30 38 H 6.5346 -1.0593 -1.2943 0
M  V30 39 H 5.9217 0.3657 -0.3295 0
M  V30 END ATOM
M  V30 BEGIN BOND
M  V30 1 1 1 2
M  V30 2 1 1 3
M  V30 3 2 2 4
M  V30 4 1 2 5
M  V30 5 1 4 6
M  V30 6 2 5 7
M  V30 7 2 6 8
M  V30 8 1 6 9
M  V30 9 1 7 10
M  V30 10 1 9 11
M  V30 11 1 10 12
M  V30 12 1 11 13
M  V30 13 1 11 14
M  V30 14 1 12 15
M  V30 15 1 15 16
M  V30 16 1 16 17
M  V30 17 1 17 18
M  V30 18 1 7 8
M  V30 19 1 3 19
M  V30 20 1 3 20
M  V30 21 1 3 21
M  V30 22 1 9 22
M  V30 23 1 10 23
M  V30 24 1 11 24
M  V30 25 1 12 25
M  V30 26 1 12 26
M  V30 27 1 13 27
M  V30 28 1 13 28
M  V30 29 1 13 29
M  V30 30 1 14 30
M  V30 31 1 14 31
M  V30 32 1 14 32
M  V30 33 1 15 33
M  V30 34 1 15 34
M  V30 35 1 16 35
M  V30 36 1 16 36
M  V30 37 1 18 37
M  V30 38 1 18 38
M  V30 39 1 18 39
M  V30 END BOND
M  V30 END CTAB
M  END
>  <Structure No>
4130

>  <LogS>
-2.9284

>  <MMFF94 Energy>
-238.58

$$$$
Compound 4131
Actelion Java MolfileCreator 2.0

  0  0  0  0  0  0              0 V3000
M  V30 BEGIN CTAB
M  V30 COUNTS 43 43 0 0 0
M  V30 BEGIN ATOM
M  V30 1 S -0.0796 -3.5872 -1.8322 0
M  V30 2 C 0.0906 -1.9169 -1.2155 0
M  V30 3 C 0.4873 -4.3411 -0.2766 0
M  V30 4 N 1.2604 -1.2495 -1.3771 0
M  V30 5 N -0.9511 -1.3169 -0.5877 0
M  V30 6 C 1.3931 0.018 -0.9086 0
M  V30 7 C -0.8274 -0.0476 -0.1183 0
M  V30 8 N 0.3465 0.6152 -0.2788 0
M  V30 9 N 2.6333 0.7125 -1.0805 0
M  V30 10 N -1.9197 0.5944 0.5514 0
M  V30 11 C 2.8203 2.0815 -0.5964 0
M  V30 12 C -3.2169 -0.0497 0.7492 0
M  V30 13 C 4.2638 2.568 -0.801 0
M  V30 14 C -4.0198 -0.0506 -0.5572 0
M  V30 15 C 5.2386 1.9816 0.2261 0
M  V30 16 C -5.3807 -0.7377 -0.3904 0
M  V30 17 O 5.3684 0.5892 0.0313 0
M  V30 18 O -6.1705 -0.071 0.5782 0
M  V30 19 C 6.2356 0.0586 1.0079 0
M  V30 20 C -7.0436 0.8463 -0.0431 0
M  V30 21 H 0.4804 -5.445 -0.385 0
M  V30 22 H 1.5212 -4.0084 -0.0463 0
M  V30 23 H -0.1917 -4.0566 0.5544 0
M  V30 24 H 3.4037 0.2236 -1.5903 0
M  V30 25 H -1.7663 1.5424 0.964 0
M  V30 26 H 2.1346 2.7532 -1.1568 0
M  V30 27 H 2.5516 2.1406 0.4811 0
M  V30 28 H -3.0689 -1.0881 1.1185 0
M  V30 29 H -3.7814 0.511 1.5257 0
M  V30 30 H 4.608 2.3322 -1.8317 0
M  V30 31 H 4.2757 3.6746 -0.6931 0
M  V30 32 H -4.1667 0.9953 -0.9019 0
M  V30 33 H -3.4499 -0.5893 -1.3441 0
M  V30 34 H 4.8644 2.2127 1.2506 0
M  V30 35 H 6.2235 2.4826 0.0841 0
M  V30 36 H -5.8795 -0.8265 -1.3852 0
M  V30 37 H -5.213 -1.7792 -0.0418 0
M  V30 38 H 5.8197 0.1945 2.0312 0
M  V30 39 H 7.25 0.5108 0.9365 0
M  V30 40 H 6.3412 -1.0313 0.8314 0
M  V30 41 H -7.8049 0.3138 -0.6548 0
M  V30 42 H -6.4891 1.5813 -0.6673 0
M  V30 43 H -7.5811 1.4128 0.7448 0
M  V30 END ATOM
M  V30 BEGIN BOND
M  V30 1 1 1 2
M  V30 2 1 1 3
M  V30 3 2 2 4
M  V30 4 1 2 5
M  V30 5 1 4 6
M  V30 6 2 5 7
M  V30 7 2 6 8
M  V30 8 1 6 9
M  V30 9 1 7 10
M  V30 10 1 9 11
M  V30 11 1 10 12
M  V30 12 1 11 13
M  V30 13 1 12 14
M  V30 14 1 13 15
M  V30 15 1 14 16
M  V30 16 1 15 17
M  V30 17 1 16 18
M  V30 18 1 17 19
M  V30 19 1 18 20
M  V30 20 1 7 8
M  V30 21 1 3 21
M  V30 22 1 3 22
M  V30 23 1 3 23
M  V30 24 1 9 24
M  V30 25 1 10 25
M  V30 26 1 11 26
M  V30 27 1 11 27
M  V30 28 1 12 28
M  V30 29 1 12 29
M  V30 30 1 13 30
M  V30 31 1 13 31
M  V30 32 1 14 32
M  V30 33 1 14 33
M  V30 34 1 15 34
M  V30 35 1 15 35
M  V30 36 1 16 36
M  V30 37 1 16 37
M  V30 38 1 19 38
M  V30 39 1 19 39
M  V30 40 1 19 40
M  V30 41 1 20 41
M  V30 42 1 20 42
M  V30 43 1 20 43
M  V30 END BOND
M  V30 END CTAB
M  END
>  <Structure No>
4131

>  <LogS>
-3.4792

>  <MMFF94 Energy>
-232.67

$$$$
Compound 4132
Actelion Java MolfileCreator 2.0

  0  0  0  0  0  0              0 V3000
M  V30 BEGIN CTAB
M  V30 COUNTS 31 33 0 0 0
M  V30 BEGIN ATOM
M  V30 1 Cl 1.6616 -1.9942 -2.6596 0
M  V30 2 C 2.3148 -1.3772 -1.1445 0
M  V30 3 C 1.4959 -0.769 -0.1641 0
M  V30 4 C 3.6992 -1.4533 -0.9466 0
M  V30 5 C 0.0231 -0.6757 -0.3189 0
M  V30 6 C 2.0957 -0.2408 0.9938 0
M  V30 7 C 4.2779 -0.9306 0.2113 0
M  V30 8 N -0.6249 -1.7376 -0.7036 0
M  V30 9 C -0.6652 0.618 -0.0352 0
M  V30 10 C 3.4774 -0.3229 1.1789 0
M  V30 11 C -2.0665 -1.8445 -0.9023 0 CFG=2
M  V30 12 C -1.8786 0.7012 0.6986 0
M  V30 13 C -0.049 1.8084 -0.468 0
M  V30 14 O -2.5136 -0.8922 -1.8305 0
M  V30 15 C -2.7608 -1.6525 0.4076 0
M  V30 16 N -2.572 -0.4618 1.1807 0
M  V30 17 C -2.4102 1.9634 1.0084 0
M  V30 18 C -0.6055 3.0537 -0.1692 0
M  V30 19 O -3.5247 -2.5563 0.8411 0
M  V30 20 C -1.7823 3.1302 0.5735 0
M  V30 21 Cl 0.1827 4.5216 -0.7174 0
M  V30 22 H 4.3311 -1.9113 -1.6969 0
M  V30 23 H 1.4904 0.2259 1.7616 0
M  V30 24 H 5.3486 -0.9921 0.3563 0
M  V30 25 H 3.9278 0.0833 2.0754 0
M  V30 26 H -2.2923 -2.8652 -1.2862 0
M  V30 27 H 0.8706 1.7702 -1.0392 0
M  V30 28 H -2.1034 -1.1345 -2.7014 0
M  V30 29 H -3.1374 -0.3683 2.0553 0
M  V30 30 H -3.326 2.0413 1.5811 0
M  V30 31 H -2.2131 4.0938 0.8143 0
M  V30 END ATOM
M  V30 BEGIN BOND
M  V30 1 1 1 2
M  V30 2 2 2 3
M  V30 3 1 2 4
M  V30 4 1 3 5
M  V30 5 1 3 6
M  V30 6 2 4 7
M  V30 7 2 5 8
M  V30 8 1 5 9
M  V30 9 2 6 10
M  V30 10 1 8 11
M  V30 11 2 9 12
M  V30 12 1 9 13
M  V30 13 1 11 14
M  V30 14 1 11 15
M  V30 15 1 12 16
M  V30 16 1 12 17
M  V30 17 2 13 18
M  V30 18 2 15 19
M  V30 19 2 17 20
M  V30 20 1 18 21
M  V30 21 1 7 10
M  V30 22 1 15 16
M  V30 23 1 18 20
M  V30 24 1 4 22
M  V30 25 1 6 23
M  V30 26 1 7 24
M  V30 27 1 10 25
M  V30 28 1 11 26
M  V30 29 1 13 27
M  V30 30 1 14 28
M  V30 31 1 16 29
M  V30 32 1 17 30
M  V30 33 1 20 31
M  V30 END BOND
M  V30 BEGIN COLLECTION
M  V30 MDLV30/STEABS ATOMS=(1 11)
M  V30 END COLLECTION
M  V30 END CTAB
M  END
>  <Structure No>
4132

>  <LogS>
-3.6036

>  <MMFF94 Energy>
99.557

$$$$
Compound 4133
Actelion Java MolfileCreator 2.0

  0  0  0  0  0  0              0 V3000
M  V30 BEGIN CTAB
M  V30 COUNTS 54 57 0 0 0
M  V30 BEGIN ATOM
M  V30 1 O 4.6205 2.2677 -0.8904 0
M  V30 2 C 4.2963 1.1394 -0.5502 0
M  V30 3 C 3.3213 0.867 0.5515 0 CFG=2
M  V30 4 C 4.8492 -0.0723 -1.2006 0
M  V30 5 C 3.1572 -0.6802 0.5063 0 CFG=2
M  V30 6 C 1.9956 1.6292 0.2961 0
M  V30 7 C 3.9453 1.3114 1.8919 0
M  V30 8 C 4.2925 -1.2348 -0.385 0
M  V30 9 C 1.7404 -1.1639 0.0773 0 CFG=1
M  V30 10 C 0.8075 1.0417 1.0711 0
M  V30 11 C 0.6609 -0.5152 0.9857 0 CFG=1
M  V30 12 C 1.4301 -1.0133 -1.4417 0
M  V30 13 C -0.783 -0.9708 0.5677 0 CFG=2
M  V30 14 C 0.0082 -0.6278 -1.7847 0
M  V30 15 C -1.0089 -0.5756 -0.8963 0
M  V30 16 C -1.8463 -0.3657 1.5673 0
M  V30 17 C -0.9091 -2.5171 0.6419 0
M  V30 18 C -2.3661 -0.145 -1.4176 0
M  V30 19 C -2.9099 0.5274 0.9215 0
M  V30 20 C -3.4548 -0.1323 -0.3445 0 CFG=1
M  V30 21 O -4.581 0.5945 -0.8374 0
M  V30 22 C -5.8588 0.5158 -0.2717 0
M  V30 23 O -6.0852 -0.2394 0.7123 0
M  V30 24 C -6.9557 1.366 -0.8159 0
M  V30 25 H 4.5051 -0.1247 -2.2554 0
M  V30 26 H 5.96 -0.06 -1.1662 0
M  V30 27 H 3.3152 -1.0977 1.5286 0
M  V30 28 H 1.7433 1.637 -0.7845 0
M  V30 29 H 2.1108 2.7 0.5752 0
M  V30 30 H 3.2683 1.0664 2.7377 0
M  V30 31 H 4.1308 2.4073 1.8973 0
M  V30 32 H 4.915 0.7947 2.0629 0
M  V30 33 H 3.9581 -2.0626 -1.0464 0
M  V30 34 H 5.1021 -1.6356 0.265 0
M  V30 35 H 1.7397 -2.2551 0.2927 0
M  V30 36 H 0.902 1.3373 2.1389 0
M  V30 37 H -0.1023 1.5503 0.6911 0
M  V30 38 H 0.8414 -0.9055 2.0144 0
M  V30 39 H 2.0955 -0.2643 -1.9119 0
M  V30 40 H 1.6493 -1.9758 -1.9517 0
M  V30 41 H -0.1867 -0.3813 -2.8255 0
M  V30 42 H -2.3876 -1.1731 2.1103 0
M  V30 43 H -1.362 0.2162 2.3803 0
M  V30 44 H -1.9626 -2.8301 0.476 0
M  V30 45 H -0.5885 -2.8894 1.6386 0
M  V30 46 H -0.309 -3.0285 -0.139 0
M  V30 47 H -2.6811 -0.8275 -2.2371 0
M  V30 48 H -2.2681 0.8783 -1.8441 0
M  V30 49 H -3.7315 0.6895 1.652 0
M  V30 50 H -2.4813 1.5242 0.6788 0
M  V30 51 H -3.7591 -1.182 -0.1293 0
M  V30 52 H -7.9128 0.8028 -0.81 0
M  V30 53 H -7.062 2.2769 -0.1909 0
M  V30 54 H -6.7222 1.6652 -1.859 0
M  V30 END ATOM
M  V30 BEGIN BOND
M  V30 1 2 1 2
M  V30 2 1 2 3
M  V30 3 1 2 4
M  V30 4 1 3 5
M  V30 5 1 3 6
M  V30 6 1 3 7
M  V30 7 1 4 8
M  V30 8 1 5 9
M  V30 9 1 6 10
M  V30 10 1 9 11
M  V30 11 1 9 12
M  V30 12 1 11 13
M  V30 13 1 12 14
M  V30 14 1 13 15
M  V30 15 1 13 16
M  V30 16 1 13 17
M  V30 17 1 15 18
M  V30 18 1 16 19
M  V30 19 1 18 20
M  V30 20 1 20 21
M  V30 21 1 21 22
M  V30 22 2 22 23
M  V30 23 1 22 24
M  V30 24 1 5 8
M  V30 25 1 10 11
M  V30 26 2 14 15
M  V30 27 1 19 20
M  V30 28 1 4 25
M  V30 29 1 4 26
M  V30 30 1 5 27
M  V30 31 1 6 28
M  V30 32 1 6 29
M  V30 33 1 7 30
M  V30 34 1 7 31
M  V30 35 1 7 32
M  V30 36 1 8 33
M  V30 37 1 8 34
M  V30 38 1 9 35
M  V30 39 1 10 36
M  V30 40 1 10 37
M  V30 41 1 11 38
M  V30 42 1 12 39
M  V30 43 1 12 40
M  V30 44 1 14 41
M  V30 45 1 16 42
M  V30 46 1 16 43
M  V30 47 1 17 44
M  V30 48 1 17 45
M  V30 49 1 17 46
M  V30 50 1 18 47
M  V30 51 1 18 48
M  V30 52 1 19 49
M  V30 53 1 19 50
M  V30 54 1 20 51
M  V30 55 1 24 52
M  V30 56 1 24 53
M  V30 57 1 24 54
M  V30 END BOND
M  V30 BEGIN COLLECTION
M  V30 MDLV30/STEABS ATOMS=(6 3 5 9 11 13 20)
M  V30 END COLLECTION
M  V30 END CTAB
M  END
>  <Structure No>
4133

>  <LogS>
-4.4584

>  <MMFF94 Energy>
64.696

$$$$
Compound 4134
Actelion Java MolfileCreator 2.0

  0  0  0  0  0  0              0 V3000
M  V30 BEGIN CTAB
M  V30 COUNTS 41 43 0 0 0
M  V30 BEGIN ATOM
M  V30 1 O 1.5957 1.9151 0.7178 0
M  V30 2 C 1.0352 0.786 0.702 0
M  V30 3 N -0.2801 0.5887 0.4613 0
M  V30 4 C 1.6719 -0.427 0.8825 0 CHG=-1
M  V30 5 N -0.509 -0.7235 0.4636 0
M  V30 6 C -1.2402 1.6143 0.146 0
M  V30 7 C 0.6612 -1.3536 0.7099 0
M  V30 8 C 3.1356 -0.6823 1.0841 0
M  V30 9 C -1.7926 -1.3579 0.3109 0
M  V30 10 C -2.0455 1.507 -0.9999 0
M  V30 11 C -1.3716 2.7397 0.9759 0
M  V30 12 O 0.7956 -2.6046 0.7855 0
M  V30 13 C 3.846 -0.8216 -0.2644 0
M  V30 14 C -2.8944 -0.9229 1.0662 0
M  V30 15 C -1.9535 -2.4243 -0.5885 0
M  V30 16 C -2.9791 2.5033 -1.301 0
M  V30 17 C -2.3059 3.7346 0.6714 0
M  V30 18 C 5.3183 -1.0572 -0.0702 0
M  V30 19 C -4.1409 -1.5371 0.9125 0
M  V30 20 C -3.2014 -3.0367 -0.7393 0
M  V30 21 C -3.1102 3.6158 -0.4652 0
M  V30 22 O 5.7044 -2.0982 0.44 0
M  V30 23 C 6.3169 -0.0339 -0.5196 0
M  V30 24 C -4.2948 -2.5925 0.0096 0
M  V30 25 H 3.5793 0.1605 1.6578 0
M  V30 26 H 3.2655 -1.6118 1.68 0
M  V30 27 H -1.9436 0.6573 -1.6627 0
M  V30 28 H -0.7613 2.837 1.8648 0
M  V30 29 H 3.4155 -1.6746 -0.8333 0
M  V30 30 H 3.6879 0.1039 -0.861 0
M  V30 31 H -2.7848 -0.1147 1.7781 0
M  V30 32 H -1.1169 -2.7687 -1.1829 0
M  V30 33 H -3.5985 2.4146 -2.1841 0
M  V30 34 H -2.4078 4.5966 1.3178 0
M  V30 35 H -4.9869 -1.1967 1.4956 0
M  V30 36 H -3.3217 -3.854 -1.4385 0
M  V30 37 H -3.8333 4.3864 -0.6995 0
M  V30 38 H 6.1109 0.9333 -0.0154 0
M  V30 39 H 7.3498 -0.3561 -0.268 0
M  V30 40 H 6.241 0.1028 -1.6185 0
M  V30 41 H -5.2602 -3.0672 -0.1082 0
M  V30 END ATOM
M  V30 BEGIN BOND
M  V30 1 2 1 2
M  V30 2 1 2 3
M  V30 3 1 2 4
M  V30 4 1 3 5
M  V30 5 1 3 6
M  V30 6 1 4 7
M  V30 7 1 4 8
M  V30 8 1 5 9
M  V30 9 2 6 10
M  V30 10 1 6 11
M  V30 11 2 7 12
M  V30 12 1 8 13
M  V30 13 2 9 14
M  V30 14 1 9 15
M  V30 15 1 10 16
M  V30 16 2 11 17
M  V30 17 1 13 18
M  V30 18 1 14 19
M  V30 19 2 15 20
M  V30 20 2 16 21
M  V30 21 2 18 22
M  V30 22 1 18 23
M  V30 23 2 19 24
M  V30 24 1 5 7
M  V30 25 1 17 21
M  V30 26 1 20 24
M  V30 27 1 8 25
M  V30 28 1 8 26
M  V30 29 1 10 27
M  V30 30 1 11 28
M  V30 31 1 13 29
M  V30 32 1 13 30
M  V30 33 1 14 31
M  V30 34 1 15 32
M  V30 35 1 16 33
M  V30 36 1 17 34
M  V30 37 1 19 35
M  V30 38 1 20 36
M  V30 39 1 21 37
M  V30 40 1 23 38
M  V30 41 1 23 39
M  V30 42 1 23 40
M  V30 43 1 24 41
M  V30 END BOND
M  V30 END CTAB
M  END
>  <Structure No>
4134

>  <LogS>
-3.2676

>  <MMFF94 Energy>
26.955

$$$$
Compound 4135
Actelion Java MolfileCreator 2.0

  0  0  0  0  0  0              0 V3000
M  V30 BEGIN CTAB
M  V30 COUNTS 21 20 0 0 0
M  V30 BEGIN ATOM
M  V30 1 O -2.7411 -1.3306 -0.0782 0
M  V30 2 C -2.3758 -0.1249 -0.0212 0
M  V30 3 O -1.0515 0.2362 -0.2937 0
M  V30 4 C -3.3764 0.9355 0.2897 0
M  V30 5 C -0.0261 -0.7103 -0.5983 0
M  V30 6 O 1.1261 -0.0264 -1.0938 0
M  V30 7 C 0.3295 -1.5231 0.6209 0
M  V30 8 C 1.7967 0.9839 -0.3927 0
M  V30 9 C 1.1552 -2.5693 0.5392 0
M  V30 10 O 1.3846 1.3739 0.7336 0
M  V30 11 C 2.9853 1.6392 -1.0094 0
M  V30 12 H -4.0961 0.5689 1.052 0
M  V30 13 H -3.9273 1.2069 -0.6346 0
M  V30 14 H -2.8629 1.8365 0.6861 0
M  V30 15 H -0.3909 -1.3924 -1.3974 0
M  V30 16 H -0.0826 -1.2487 1.5879 0
M  V30 17 H 1.5886 -2.8647 -0.4116 0
M  V30 18 H 1.4027 -3.1369 1.4303 0
M  V30 19 H 3.7378 1.8771 -0.2281 0
M  V30 20 H 3.447 0.9605 -1.7568 0
M  V30 21 H 2.6705 2.5765 -1.5135 0
M  V30 END ATOM
M  V30 BEGIN BOND
M  V30 1 2 1 2
M  V30 2 1 2 3
M  V30 3 1 2 4
M  V30 4 1 3 5
M  V30 5 1 5 6
M  V30 6 1 5 7
M  V30 7 1 6 8
M  V30 8 2 7 9
M  V30 9 2 8 10
M  V30 10 1 8 11
M  V30 11 1 4 12
M  V30 12 1 4 13
M  V30 13 1 4 14
M  V30 14 1 5 15
M  V30 15 1 7 16
M  V30 16 1 9 17
M  V30 17 1 9 18
M  V30 18 1 11 19
M  V30 19 1 11 20
M  V30 20 1 11 21
M  V30 END BOND
M  V30 END CTAB
M  END
>  <Structure No>
4135

>  <LogS>
-1.2449

>  <MMFF94 Energy>
-41.498

$$$$
Compound 4136
Actelion Java MolfileCreator 2.0

  0  0  0  0  0  0              0 V3000
M  V30 BEGIN CTAB
M  V30 COUNTS 22 21 0 0 0
M  V30 BEGIN ATOM
M  V30 1 O 0.0774 1.5503 1.085 0
M  V30 2 C 1.2167 1.0681 0.842 0
M  V30 3 N 1.4497 -0.3431 0.9498 0
M  V30 4 C 2.3238 1.9737 0.4115 0
M  V30 5 C 0.3848 -1.3035 1.2362 0
M  V30 6 C -0.1435 -1.9211 -0.0606 0
M  V30 7 N -0.732 -0.9007 -0.9267 0
M  V30 8 C -2.0072 -0.3017 -0.66 0
M  V30 9 O -2.7047 -0.6907 0.3156 0
M  V30 10 C -2.5294 0.7687 -1.5611 0
M  V30 11 H 2.3941 -0.716 0.7021 0
M  V30 12 H 2.5497 1.7963 -0.6603 0
M  V30 13 H 3.2319 1.7683 1.0159 0
M  V30 14 H 2.0347 3.0374 0.5501 0
M  V30 15 H -0.4403 -0.824 1.8049 0
M  V30 16 H 0.796 -2.1135 1.8761 0
M  V30 17 H -0.9012 -2.7002 0.1721 0
M  V30 18 H 0.6965 -2.4167 -0.5941 0
M  V30 19 H -0.217 -0.6268 -1.7939 0
M  V30 20 H -1.7437 1.5361 -1.7236 0
M  V30 21 H -2.8144 0.3241 -2.5371 0
M  V30 22 H -3.4192 1.2583 -1.1109 0
M  V30 END ATOM
M  V30 BEGIN BOND
M  V30 1 2 1 2
M  V30 2 1 2 3
M  V30 3 1 2 4
M  V30 4 1 3 5
M  V30 5 1 5 6
M  V30 6 1 6 7
M  V30 7 1 7 8
M  V30 8 2 8 9
M  V30 9 1 8 10
M  V30 10 1 3 11
M  V30 11 1 4 12
M  V30 12 1 4 13
M  V30 13 1 4 14
M  V30 14 1 5 15
M  V30 15 1 5 16
M  V30 16 1 6 17
M  V30 17 1 6 18
M  V30 18 1 7 19
M  V30 19 1 10 20
M  V30 20 1 10 21
M  V30 21 1 10 22
M  V30 END BOND
M  V30 END CTAB
M  END
>  <Structure No>
4136

>  <LogS>
0.6755

>  <MMFF94 Energy>
-37.372

$$$$
Compound 4137
Actelion Java MolfileCreator 2.0

  0  0  0  0  0  0              0 V3000
M  V30 BEGIN CTAB
M  V30 COUNTS 16 16 0 0 0
M  V30 BEGIN ATOM
M  V30 1 Cl 3.9513 -0.0805 0.0 0
M  V30 2 C 2.1986 -0.0326 -0.0591 0
M  V30 3 C 1.5325 1.1968 -0.1001 0
M  V30 4 C 1.4651 -1.2238 -0.0594 0
M  V30 5 C 0.1353 1.2364 -0.1458 0
M  V30 6 C 0.0678 -1.1871 -0.105 0
M  V30 7 C -0.6059 0.0437 -0.1622 0
M  V30 8 C -2.1091 0.0864 -0.1746 0
M  V30 9 O -2.5974 0.2241 1.1315 0
M  V30 10 H 2.0955 2.1215 -0.0931 0
M  V30 11 H 1.9759 -2.1775 -0.0206 0
M  V30 12 H -0.3683 2.1949 -0.1683 0
M  V30 13 H -0.4878 -2.1167 -0.0954 0
M  V30 14 H -2.4557 0.9522 -0.7784 0
M  V30 15 H -2.5276 -0.8292 -0.6519 0
M  V30 16 H -2.5092 -0.6661 1.5626 0
M  V30 END ATOM
M  V30 BEGIN BOND
M  V30 1 1 1 2
M  V30 2 2 2 3
M  V30 3 1 2 4
M  V30 4 1 3 5
M  V30 5 2 4 6
M  V30 6 2 5 7
M  V30 7 1 7 8
M  V30 8 1 8 9
M  V30 9 1 6 7
M  V30 10 1 3 10
M  V30 11 1 4 11
M  V30 12 1 5 12
M  V30 13 1 6 13
M  V30 14 1 8 14
M  V30 15 1 8 15
M  V30 16 1 9 16
M  V30 END BOND
M  V30 END CTAB
M  END
>  <Structure No>
4137

>  <LogS>
-1.7561

>  <MMFF94 Energy>
19.033

$$$$
Compound 4138
Actelion Java MolfileCreator 2.0

  0  0  0  0  0  0              0 V3000
M  V30 BEGIN CTAB
M  V30 COUNTS 30 30 0 0 0
M  V30 BEGIN ATOM
M  V30 1 O -1.7353 -0.8673 1.4196 0
M  V30 2 C -0.8144 -0.2878 0.5436 0
M  V30 3 C -1.3427 -1.5918 2.5812 0
M  V30 4 N 0.5221 -0.3926 0.7668 0
M  V30 5 N -1.2625 0.3881 -0.5434 0
M  V30 6 C -2.5782 -2.0891 3.3139 0
M  V30 7 C 1.4075 0.176 -0.0933 0
M  V30 8 C -0.3815 0.9592 -1.4076 0
M  V30 9 O 2.7839 0.0758 0.1242 0
M  V30 10 N 0.9513 0.8505 -1.1786 0
M  V30 11 O -0.8295 1.6582 -2.5313 0
M  V30 12 C 3.3387 -0.6147 1.2393 0
M  V30 13 C -2.2105 1.8166 -2.8407 0
M  V30 14 C 4.8559 -0.5378 1.1831 0
M  V30 15 C -2.357 2.6231 -4.1209 0
M  V30 16 H -0.7153 -2.4613 2.2873 0
M  V30 17 H -0.757 -0.9305 3.2562 0
M  V30 18 H -2.2746 -2.6544 4.2201 0
M  V30 19 H -3.21 -1.2284 3.62 0
M  V30 20 H -3.1683 -2.7578 2.652 0
M  V30 21 H 3.0241 -1.6806 1.2154 0
M  V30 22 H 2.9824 -0.1499 2.1843 0
M  V30 23 H -2.7229 2.3498 -2.0105 0
M  V30 24 H -2.6812 0.819 -2.9796 0
M  V30 25 H 5.2249 -1.0063 0.2464 0
M  V30 26 H 5.2909 -1.0756 2.0516 0
M  V30 27 H 5.1833 0.523 1.2145 0
M  V30 28 H -1.8555 2.0966 -4.9604 0
M  V30 29 H -1.8972 3.6258 -3.9922 0
M  V30 30 H -3.4331 2.7479 -4.3645 0
M  V30 END ATOM
M  V30 BEGIN BOND
M  V30 1 1 1 2
M  V30 2 1 1 3
M  V30 3 2 2 4
M  V30 4 1 2 5
M  V30 5 1 3 6
M  V30 6 1 4 7
M  V30 7 2 5 8
M  V30 8 1 7 9
M  V30 9 2 7 10
M  V30 10 1 8 11
M  V30 11 1 9 12
M  V30 12 1 11 13
M  V30 13 1 12 14
M  V30 14 1 13 15
M  V30 15 1 8 10
M  V30 16 1 3 16
M  V30 17 1 3 17
M  V30 18 1 6 18
M  V30 19 1 6 19
M  V30 20 1 6 20
M  V30 21 1 12 21
M  V30 22 1 12 22
M  V30 23 1 13 23
M  V30 24 1 13 24
M  V30 25 1 14 25
M  V30 26 1 14 26
M  V30 27 1 14 27
M  V30 28 1 15 28
M  V30 29 1 15 29
M  V30 30 1 15 30
M  V30 END BOND
M  V30 END CTAB
M  END
>  <Structure No>
4138

>  <LogS>
-1.4838

>  <MMFF94 Energy>
-166.9

$$$$
Compound 4139
Actelion Java MolfileCreator 2.0

  0  0  0  0  0  0              0 V3000
M  V30 BEGIN CTAB
M  V30 COUNTS 28 31 0 0 0
M  V30 BEGIN ATOM
M  V30 1 O -4.6679 0.7359 -0.9813 0
M  V30 2 N -4.2236 -0.2288 -0.3264 0 CHG=1
M  V30 3 O -5.1043 -1.1868 0.1207 0 CHG=-1
M  V30 4 C -2.8084 -0.4649 -0.2463 0
M  V30 5 C -1.8753 0.5992 -0.0854 0
M  V30 6 C -2.3219 -1.8017 -0.3398 0
M  V30 7 C -0.5272 0.2628 -0.0687 0
M  V30 8 C -2.1873 1.9675 0.1021 0
M  V30 9 C -0.9397 -2.0863 -0.3058 0
M  V30 10 C -0.0575 -1.0185 -0.1756 0
M  V30 11 C 0.4873 1.1707 0.0946 0
M  V30 12 C -1.1489 2.9197 0.2689 0
M  V30 13 C 1.4006 -0.9351 -0.0806 0
M  V30 14 C 1.7339 0.4042 0.084 0
M  V30 15 C 0.2063 2.5242 0.2655 0
M  V30 16 C 2.3771 -1.9275 -0.1211 0
M  V30 17 C 3.059 0.8127 0.2163 0
M  V30 18 C 3.7216 -1.5351 0.0075 0
M  V30 19 C 4.0602 -0.174 0.1753 0
M  V30 20 H -3.0167 -2.6233 -0.4578 0
M  V30 21 H -3.2101 2.3113 0.148 0
M  V30 22 H -0.5779 -3.1034 -0.3801 0
M  V30 23 H -1.3989 3.9626 0.4138 0
M  V30 24 H 0.9992 3.2471 0.405 0
M  V30 25 H 2.1108 -2.9687 -0.2472 0
M  V30 26 H 3.3115 1.8568 0.3472 0
M  V30 27 H 4.5032 -2.2829 -0.0205 0
M  V30 28 H 5.0992 0.112 0.2745 0
M  V30 END ATOM
M  V30 BEGIN BOND
M  V30 1 2 1 2
M  V30 2 1 2 3
M  V30 3 1 2 4
M  V30 4 1 4 5
M  V30 5 2 4 6
M  V30 6 1 5 7
M  V30 7 2 5 8
M  V30 8 1 6 9
M  V30 9 1 7 10
M  V30 10 2 7 11
M  V30 11 1 8 12
M  V30 12 1 10 13
M  V30 13 1 11 14
M  V30 14 1 11 15
M  V30 15 1 13 16
M  V30 16 1 14 17
M  V30 17 2 16 18
M  V30 18 2 17 19
M  V30 19 2 9 10
M  V30 20 2 12 15
M  V30 21 2 13 14
M  V30 22 1 18 19
M  V30 23 1 6 20
M  V30 24 1 8 21
M  V30 25 1 9 22
M  V30 26 1 12 23
M  V30 27 1 15 24
M  V30 28 1 16 25
M  V30 29 1 17 26
M  V30 30 1 18 27
M  V30 31 1 19 28
M  V30 END BOND
M  V30 END CTAB
M  END
>  <Structure No>
4139

>  <LogS>
-7.1031

>  <MMFF94 Energy>
107.23

$$$$
Compound 4140
Actelion Java MolfileCreator 2.0

  0  0  0  0  0  0              0 V3000
M  V30 BEGIN CTAB
M  V30 COUNTS 53 56 0 0 0
M  V30 BEGIN ATOM
M  V30 1 O 3.0268 1.3898 -2.6173 0
M  V30 2 C 2.8892 0.8888 -1.4693 0
M  V30 3 C 4.0854 0.4337 -0.6985 0
M  V30 4 C 1.5155 0.6261 -0.9502 0
M  V30 5 C 5.421 0.6846 -1.1282 0
M  V30 6 C 3.8818 -0.3301 0.4787 0
M  V30 7 C 0.4488 1.2983 -1.4418 0
M  V30 8 C 1.3655 -0.541 0.006 0 CFG=1
M  V30 9 O 5.7423 1.5665 -2.1629 0
M  V30 10 C 6.4892 0.0562 -0.4812 0
M  V30 11 C 2.5055 -0.4977 1.0217 0
M  V30 12 C 4.9812 -0.9402 1.1127 0
M  V30 13 O 0.6459 2.3717 -2.3091 0 CHG=-1
M  V30 14 C -0.9917 0.9823 -1.0655 0 CFG=2
M  V30 15 C -0.0596 -0.6593 0.6202 0 CFG=1
M  V30 16 C 6.2709 -0.76 0.6232 0
M  V30 17 C 2.3172 -0.5454 2.3542 0
M  V30 18 O -1.7804 1.0896 -2.2295 0
M  V30 19 C -1.5133 2.0121 -0.0664 0
M  V30 20 C -1.1642 -0.4568 -0.4523 0 CFG=1
M  V30 21 O -0.209 -1.8958 1.2761 0
M  V30 22 O -0.8378 2.9795 0.2598 0
M  V30 23 C -2.8779 1.8195 0.5491 0 CFG=2
M  V30 24 C -2.6202 -0.7274 0.1562 0 CFG=1
M  V30 25 C -3.4581 0.5383 0.0042 0
M  V30 26 C -3.7688 3.0092 0.2853 0
M  V30 27 N -3.3317 -1.9167 -0.4225 0
M  V30 28 O -4.4437 0.5626 -0.7217 0
M  V30 29 O -3.8108 3.5278 -0.8634 0
M  V30 30 N -4.6073 3.5241 1.3196 0
M  V30 31 C -2.5227 -3.1545 -0.4005 0
M  V30 32 C -4.5645 -2.215 0.3473 0
M  V30 33 H 1.5318 -1.4506 -0.6132 0
M  V30 34 H 5.1321 2.3043 -2.4839 0
M  V30 35 H 7.5024 0.2233 -0.8253 0
M  V30 36 H 4.8429 -1.5792 1.9754 0
M  V30 37 H -0.1893 0.1431 1.3786 0
M  V30 38 H 7.1079 -1.2389 1.1152 0
M  V30 39 H 1.3471 -0.6537 2.812 0
M  V30 40 H 3.1459 -0.4445 3.0424 0
M  V30 41 H -1.4497 0.4243 -2.8887 0
M  V30 42 H -0.9577 -1.1551 -1.2842 0
M  V30 43 H 0.0541 -2.6119 0.6421 0
M  V30 44 H -2.7424 1.7003 1.646 0
M  V30 45 H -2.52 -0.8811 1.2557 0
M  V30 46 H -5.2388 4.3345 1.1316 0
M  V30 47 H -4.5951 3.1054 2.2765 0
M  V30 48 H -3.1245 -4.0183 -0.7592 0
M  V30 49 H -2.1731 -3.39 0.6273 0
M  V30 50 H -1.6714 -3.1115 -1.1022 0
M  V30 51 H -5.2747 -1.3672 0.3585 0
M  V30 52 H -4.3271 -2.4804 1.4025 0
M  V30 53 H -5.1182 -3.0594 -0.1197 0
M  V30 END ATOM
M  V30 BEGIN BOND
M  V30 1 2 1 2
M  V30 2 1 2 3
M  V30 3 1 2 4
M  V30 4 2 3 5
M  V30 5 1 3 6
M  V30 6 2 4 7
M  V30 7 1 4 8
M  V30 8 1 5 9
M  V30 9 1 5 10
M  V30 10 1 6 11
M  V30 11 2 6 12
M  V30 12 1 7 13
M  V30 13 1 7 14
M  V30 14 1 8 15
M  V30 15 2 10 16
M  V30 16 2 11 17
M  V30 17 1 14 18
M  V30 18 1 14 19
M  V30 19 1 14 20
M  V30 20 1 15 21
M  V30 21 2 19 22
M  V30 22 1 19 23
M  V30 23 1 20 24
M  V30 24 1 23 25
M  V30 25 1 23 26
M  V30 26 1 24 27
M  V30 27 2 25 28
M  V30 28 2 26 29
M  V30 29 1 26 30
M  V30 30 1 27 31
M  V30 31 1 27 32
M  V30 32 1 8 11
M  V30 33 1 12 16
M  V30 34 1 15 20
M  V30 35 1 24 25
M  V30 36 1 8 33
M  V30 37 1 9 34
M  V30 38 1 10 35
M  V30 39 1 12 36
M  V30 40 1 15 37
M  V30 41 1 16 38
M  V30 42 1 17 39
M  V30 43 1 17 40
M  V30 44 1 18 41
M  V30 45 1 20 42
M  V30 46 1 21 43
M  V30 47 1 23 44
M  V30 48 1 24 45
M  V30 49 1 30 46
M  V30 50 1 30 47
M  V30 51 1 31 48
M  V30 52 1 31 49
M  V30 53 1 31 50
M  V30 54 1 32 51
M  V30 55 1 32 52
M  V30 56 1 32 53
M  V30 END BOND
M  V30 BEGIN COLLECTION
M  V30 MDLV30/STEABS ATOMS=(6 8 14 15 20 23 24)
M  V30 END COLLECTION
M  V30 END CTAB
M  END
>  <Structure No>
4140

>  <LogS>
-1.768

>  <MMFF94 Energy>
97.59

$$$$
Compound 4141
Actelion Java MolfileCreator 2.0

  0  0  0  0  0  0              0 V3000
M  V30 BEGIN CTAB
M  V30 COUNTS 27 26 0 0 0
M  V30 BEGIN ATOM
M  V30 1 O -3.0356 -0.4788 -1.437 0
M  V30 2 C -2.7268 -0.3074 -0.2273 0
M  V30 3 O -3.4858 -0.9219 0.7613 0 CHG=-1
M  V30 4 C -1.5417 0.5505 0.1593 0 CFG=1
M  V30 5 C -0.1596 -0.2193 0.1226 0
M  V30 6 C -1.5641 1.8562 -0.6614 0
M  V30 7 C 0.9658 0.7426 0.6541 0
M  V30 8 C -0.2613 -1.4708 1.0318 0
M  V30 9 C 0.173 -0.6861 -1.3172 0
M  V30 10 C 2.3107 0.1234 1.0937 0
M  V30 11 C 3.1113 -0.4211 -0.047 0
M  V30 12 O 3.442 -1.6358 -0.0654 0
M  V30 13 O 3.5106 0.4157 -1.0815 0 CHG=-1
M  V30 14 H -1.7204 0.8572 1.2148 0
M  V30 15 H -2.5664 2.3311 -0.5879 0
M  V30 16 H -1.3527 1.666 -1.7335 0
M  V30 17 H -0.8332 2.591 -0.2676 0
M  V30 18 H 1.1843 1.5238 -0.1057 0
M  V30 19 H 0.5743 1.2817 1.545 0
M  V30 20 H 0.6636 -2.0822 0.9865 0
M  V30 21 H -0.4442 -1.1735 2.0868 0
M  V30 22 H -1.083 -2.1417 0.7064 0
M  V30 23 H -0.6658 -1.2581 -1.761 0
M  V30 24 H 0.4046 0.1744 -1.9782 0
M  V30 25 H 1.045 -1.3684 -1.3294 0
M  V30 26 H 2.1633 -0.6462 1.8793 0
M  V30 27 H 2.918 0.925 1.5663 0
M  V30 END ATOM
M  V30 BEGIN BOND
M  V30 1 2 1 2
M  V30 2 1 2 3
M  V30 3 1 2 4
M  V30 4 1 4 5
M  V30 5 1 4 6
M  V30 6 1 5 7
M  V30 7 1 5 8
M  V30 8 1 5 9
M  V30 9 1 7 10
M  V30 10 1 10 11
M  V30 11 2 11 12
M  V30 12 1 11 13
M  V30 13 1 4 14
M  V30 14 1 6 15
M  V30 15 1 6 16
M  V30 16 1 6 17
M  V30 17 1 7 18
M  V30 18 1 7 19
M  V30 19 1 8 20
M  V30 20 1 8 21
M  V30 21 1 8 22
M  V30 22 1 9 23
M  V30 23 1 9 24
M  V30 24 1 9 25
M  V30 25 1 10 26
M  V30 26 1 10 27
M  V30 END BOND
M  V30 BEGIN COLLECTION
M  V30 MDLV30/STEABS ATOMS=(1 4)
M  V30 END COLLECTION
M  V30 END CTAB
M  END
>  <Structure No>
4141

>  <LogS>
-1.5265

>  <MMFF94 Energy>
73.924

$$$$
Compound 4142
Actelion Java MolfileCreator 2.0

  0  0  0  0  0  0              0 V3000
M  V30 BEGIN CTAB
M  V30 COUNTS 14 13 0 0 0
M  V30 BEGIN ATOM
M  V30 1 O -0.2289 0.6106 1.5272 0
M  V30 2 C -0.3922 0.1415 0.3671 0
M  V30 3 N 0.7434 -0.2582 -0.4101 0
M  V30 4 C -1.7478 0.0013 -0.1964 0
M  V30 5 C 2.1052 -0.1382 0.1057 0
M  V30 6 C -2.8426 0.3546 0.475 0
M  V30 7 O 3.0262 -0.6014 -0.843 0
M  V30 8 H 0.5923 -0.6465 -1.3688 0
M  V30 9 H -1.8591 -0.404 -1.1943 0
M  V30 10 H 2.3207 0.9231 0.3643 0
M  V30 11 H 2.2045 -0.7514 1.0261 0
M  V30 12 H -2.7862 0.7648 1.4754 0
M  V30 13 H -3.8169 0.233 0.0198 0
M  V30 14 H 3.0505 0.0791 -1.5653 0
M  V30 END ATOM
M  V30 BEGIN BOND
M  V30 1 2 1 2
M  V30 2 1 2 3
M  V30 3 1 2 4
M  V30 4 1 3 5
M  V30 5 2 4 6
M  V30 6 1 5 7
M  V30 7 1 3 8
M  V30 8 1 4 9
M  V30 9 1 5 10
M  V30 10 1 5 11
M  V30 11 1 6 12
M  V30 12 1 6 13
M  V30 13 1 7 14
M  V30 END BOND
M  V30 END CTAB
M  END
>  <Structure No>
4142

>  <LogS>
0.8101

>  <MMFF94 Energy>
-67.941

$$$$
Compound 4143
Actelion Java MolfileCreator 2.0

  0  0  0  0  0  0              0 V3000
M  V30 BEGIN CTAB
M  V30 COUNTS 34 33 0 0 0
M  V30 BEGIN ATOM
M  V30 1 O 3.1151 -0.778 -1.6344 0
M  V30 2 C 3.0823 -0.8958 -0.3792 0
M  V30 3 N 1.8261 -0.9304 0.3108 0
M  V30 4 C 4.3702 -0.9578 0.3896 0
M  V30 5 C 0.5578 -0.8243 -0.4093 0
M  V30 6 C 4.9482 0.4404 0.6428 0
M  V30 7 C -0.6265 -0.8656 0.5601 0
M  V30 8 C 4.0935 1.2588 1.6105 0
M  V30 9 N -1.8948 -0.7553 -0.1596 0
M  V30 10 C -3.1494 -0.75 0.5337 0
M  V30 11 O -3.1815 -0.8479 1.7907 0
M  V30 12 C -4.4337 -0.5867 -0.2261 0
M  V30 13 C -4.9087 0.872 -0.2314 0
M  V30 14 C -3.992 1.7813 -1.0495 0
M  V30 15 H 1.8285 -1.0194 1.3528 0
M  V30 16 H 5.1075 -1.5492 -0.1952 0
M  V30 17 H 4.2166 -1.4878 1.3546 0
M  V30 18 H 0.5362 0.1337 -0.9733 0
M  V30 19 H 0.4737 -1.6675 -1.129 0
M  V30 20 H 5.9647 0.3296 1.0786 0
M  V30 21 H 5.0502 0.9899 -0.3185 0
M  V30 22 H -0.5401 -0.023 1.2804 0
M  V30 23 H -0.6075 -1.8239 1.1236 0
M  V30 24 H 3.9648 0.7139 2.5699 0
M  V30 25 H 4.5945 2.2279 1.8179 0
M  V30 26 H 3.0964 1.4687 1.1693 0
M  V30 27 H -1.897 -0.6633 -1.2013 0
M  V30 28 H -4.3125 -0.9524 -1.2688 0
M  V30 29 H -5.2152 -1.2155 0.253 0
M  V30 30 H -4.977 1.2539 0.8108 0
M  V30 31 H -5.9279 0.9109 -0.6731 0
M  V30 32 H -4.4211 2.8049 -1.0838 0
M  V30 33 H -2.9851 1.8402 -0.5852 0
M  V30 34 H -3.897 1.4015 -2.0889 0
M  V30 END ATOM
M  V30 BEGIN BOND
M  V30 1 2 1 2
M  V30 2 1 2 3
M  V30 3 1 2 4
M  V30 4 1 3 5
M  V30 5 1 4 6
M  V30 6 1 5 7
M  V30 7 1 6 8
M  V30 8 1 7 9
M  V30 9 1 9 10
M  V30 10 2 10 11
M  V30 11 1 10 12
M  V30 12 1 12 13
M  V30 13 1 13 14
M  V30 14 1 3 15
M  V30 15 1 4 16
M  V30 16 1 4 17
M  V30 17 1 5 18
M  V30 18 1 5 19
M  V30 19 1 6 20
M  V30 20 1 6 21
M  V30 21 1 7 22
M  V30 22 1 7 23
M  V30 23 1 8 24
M  V30 24 1 8 25
M  V30 25 1 8 26
M  V30 26 1 9 27
M  V30 27 1 12 28
M  V30 28 1 12 29
M  V30 29 1 13 30
M  V30 30 1 13 31
M  V30 31 1 14 32
M  V30 32 1 14 33
M  V30 33 1 14 34
M  V30 END BOND
M  V30 END CTAB
M  END
>  <Structure No>
4143

>  <LogS>
-0.6222

>  <MMFF94 Energy>
-44.064

$$$$
Compound 4144
Actelion Java MolfileCreator 2.0

  0  0  0  0  0  0              0 V3000
M  V30 BEGIN CTAB
M  V30 COUNTS 34 33 0 0 0
M  V30 BEGIN ATOM
M  V30 1 O 0.3103 1.0865 2.0962 0
M  V30 2 C 0.1385 1.3499 0.9153 0
M  V30 3 C 1.2299 1.0512 -0.078 0
M  V30 4 C -1.1651 1.9629 0.473 0
M  V30 5 C 1.47 -0.4614 -0.185 0
M  V30 6 C -2.0298 0.9725 -0.3197 0
M  V30 7 C 2.4314 -0.8357 -1.327 0
M  V30 8 C -2.5508 -0.1765 0.5607 0
M  V30 9 C 3.8567 -0.2741 -1.1803 0
M  V30 10 C -3.3246 -1.2309 -0.245 0
M  V30 11 C 4.5786 -0.7935 0.0624 0
M  V30 12 C -4.6771 -0.7211 -0.7421 0
M  V30 13 H 0.9539 1.4557 -1.0762 0
M  V30 14 H 2.1559 1.5635 0.258 0
M  V30 15 H -1.7337 2.3321 1.3551 0
M  V30 16 H -0.9452 2.8443 -0.1669 0
M  V30 17 H 0.4994 -0.966 -0.3855 0
M  V30 18 H 1.8478 -0.8574 0.7815 0
M  V30 19 H -2.8924 1.5347 -0.7358 0
M  V30 20 H -1.4475 0.5656 -1.175 0
M  V30 21 H 2.0055 -0.4753 -2.2888 0
M  V30 22 H 2.487 -1.9442 -1.3938 0
M  V30 23 H -1.6903 -0.6872 1.0439 0
M  V30 24 H -3.1972 0.2297 1.3693 0
M  V30 25 H 4.4414 -0.581 -2.0743 0
M  V30 26 H 3.8414 0.8358 -1.1688 0
M  V30 27 H -2.7151 -1.5752 -1.1085 0
M  V30 28 H -3.5046 -2.1105 0.4104 0
M  V30 29 H 4.5357 -1.9027 0.1028 0
M  V30 30 H 5.6437 -0.4816 0.0276 0
M  V30 31 H 4.1269 -0.3697 0.9834 0
M  V30 32 H -4.542 0.0707 -1.5075 0
M  V30 33 H -5.2378 -1.5586 -1.2082 0
M  V30 34 H -5.2773 -0.3217 0.103 0
M  V30 END ATOM
M  V30 BEGIN BOND
M  V30 1 2 1 2
M  V30 2 1 2 3
M  V30 3 1 2 4
M  V30 4 1 3 5
M  V30 5 1 4 6
M  V30 6 1 5 7
M  V30 7 1 6 8
M  V30 8 1 7 9
M  V30 9 1 8 10
M  V30 10 1 9 11
M  V30 11 1 10 12
M  V30 12 1 3 13
M  V30 13 1 3 14
M  V30 14 1 4 15
M  V30 15 1 4 16
M  V30 16 1 5 17
M  V30 17 1 5 18
M  V30 18 1 6 19
M  V30 19 1 6 20
M  V30 20 1 7 21
M  V30 21 1 7 22
M  V30 22 1 8 23
M  V30 23 1 8 24
M  V30 24 1 9 25
M  V30 25 1 9 26
M  V30 26 1 10 27
M  V30 27 1 10 28
M  V30 28 1 11 29
M  V30 29 1 11 30
M  V30 30 1 11 31
M  V30 31 1 12 32
M  V30 32 1 12 33
M  V30 33 1 12 34
M  V30 END BOND
M  V30 END CTAB
M  END
>  <Structure No>
4144

>  <LogS>
-3.5322

>  <MMFF94 Energy>
-2.0639

$$$$
Compound 4145
Actelion Java MolfileCreator 2.0

  0  0  0  0  0  0              0 V3000
M  V30 BEGIN CTAB
M  V30 COUNTS 17 16 0 0 0
M  V30 BEGIN ATOM
M  V30 1 O 3.6022 1.4083 1.1735 0
M  V30 2 N 3.0546 0.4168 0.6522 0 CHG=1
M  V30 3 O 1.7375 0.5004 0.25 0
M  V30 4 O 3.7723 -0.7457 0.4866 0 CHG=-1
M  V30 5 C 1.0668 -0.603 -0.3487 0
M  V30 6 C -0.3733 -0.2215 -0.6917 0
M  V30 7 C -1.1972 0.0725 0.5686 0
M  V30 8 C -2.6378 0.4287 0.2134 0
M  V30 9 H 1.5972 -0.89 -1.2822 0
M  V30 10 H 1.0755 -1.4712 0.3457 0
M  V30 11 H -0.3655 0.6715 -1.3545 0
M  V30 12 H -0.8397 -1.0635 -1.2488 0
M  V30 13 H -0.7458 0.9223 1.1256 0
M  V30 14 H -1.201 -0.8203 1.2312 0
M  V30 15 H -2.664 1.3339 -0.4301 0
M  V30 16 H -3.124 -0.4154 -0.3203 0
M  V30 17 H -3.2092 0.6373 1.1426 0
M  V30 END ATOM
M  V30 BEGIN BOND
M  V30 1 2 1 2
M  V30 2 1 2 3
M  V30 3 1 2 4
M  V30 4 1 3 5
M  V30 5 1 5 6
M  V30 6 1 6 7
M  V30 7 1 7 8
M  V30 8 1 5 9
M  V30 9 1 5 10
M  V30 10 1 6 11
M  V30 11 1 6 12
M  V30 12 1 7 13
M  V30 13 1 7 14
M  V30 14 1 8 15
M  V30 15 1 8 16
M  V30 16 1 8 17
M  V30 END BOND
M  V30 END CTAB
M  END
>  <Structure No>
4145

>  <LogS>
-2.0268

>  <MMFF94 Energy>
-17.463

$$$$
Compound 4146
Actelion Java MolfileCreator 2.0

  0  0  0  0  0  0              0 V3000
M  V30 BEGIN CTAB
M  V30 COUNTS 16 15 0 0 0
M  V30 BEGIN ATOM
M  V30 1 C 0.1524 -0.9149 -0.2286 0
M  V30 2 C -0.8663 -0.4177 0.1818 0
M  V30 3 C 1.3925 -1.5179 -0.7278 0
M  V30 4 C -2.1046 0.1891 0.6812 0
M  V30 5 C 2.4916 -0.4682 -0.8325 0
M  V30 6 C -1.9037 1.6772 0.9384 0
M  V30 7 H 1.2037 -1.9613 -1.7281 0
M  V30 8 H 1.7105 -2.3228 -0.0322 0
M  V30 9 H -2.9085 0.0459 -0.071 0
M  V30 10 H -2.4016 -0.3154 1.6246 0
M  V30 11 H 3.4216 -0.9418 -1.2114 0
M  V30 12 H 2.1913 0.3374 -1.5365 0
M  V30 13 H 2.6999 -0.0253 0.1651 0
M  V30 14 H -2.8499 2.1193 1.3154 0
M  V30 15 H -1.6188 2.1972 -0.0014 0
M  V30 16 H -1.1101 1.8344 1.7002 0
M  V30 END ATOM
M  V30 BEGIN BOND
M  V30 1 3 1 2
M  V30 2 1 1 3
M  V30 3 1 2 4
M  V30 4 1 3 5
M  V30 5 1 4 6
M  V30 6 1 3 7
M  V30 7 1 3 8
M  V30 8 1 4 9
M  V30 9 1 4 10
M  V30 10 1 5 11
M  V30 11 1 5 12
M  V30 12 1 5 13
M  V30 13 1 6 14
M  V30 14 1 6 15
M  V30 15 1 6 16
M  V30 END BOND
M  V30 END CTAB
M  END
>  <Structure No>
4146

>  <LogS>
-2.1675

>  <MMFF94 Energy>
MMFF94 error code 2

$$$$
Compound 4147
Actelion Java MolfileCreator 2.0

  0  0  0  0  0  0              0 V3000
M  V30 BEGIN CTAB
M  V30 COUNTS 15 15 0 0 0
M  V30 BEGIN ATOM
M  V30 1 O 3.1738 -0.6341 -0.3963 0
M  V30 2 N 2.3717 0.3153 -0.5106 0
M  V30 3 N 1.0113 0.1503 -0.2103 0
M  V30 4 C 0.0541 1.2264 -0.3428 0
M  V30 5 C 0.4315 -1.0977 0.2448 0
M  V30 6 C -1.305 0.5868 -0.084 0
M  V30 7 C -1.0204 -0.7676 0.5698 0
M  V30 8 H 0.2707 2.0119 0.4129 0
M  V30 9 H 0.0996 1.6593 -1.3654 0
M  V30 10 H 0.9642 -1.465 1.1485 0
M  V30 11 H 0.491 -1.8541 -0.5672 0
M  V30 12 H -1.8322 0.428 -1.0504 0
M  V30 13 H -1.934 1.2271 0.5721 0
M  V30 14 H -1.1455 -0.6803 1.6716 0
M  V30 15 H -1.7082 -1.5524 0.1869 0
M  V30 END ATOM
M  V30 BEGIN BOND
M  V30 1 2 1 2
M  V30 2 1 2 3
M  V30 3 1 3 4
M  V30 4 1 3 5
M  V30 5 1 4 6
M  V30 6 1 5 7
M  V30 7 1 6 7
M  V30 8 1 4 8
M  V30 9 1 4 9
M  V30 10 1 5 10
M  V30 11 1 5 11
M  V30 12 1 6 12
M  V30 13 1 6 13
M  V30 14 1 7 14
M  V30 15 1 7 15
M  V30 END BOND
M  V30 END CTAB
M  END
>  <Structure No>
4147

>  <LogS>
0.9995

>  <MMFF94 Energy>
1.4328

$$$$
Compound 4148
Actelion Java MolfileCreator 2.0

  0  0  0  0  0  0              0 V3000
M  V30 BEGIN CTAB
M  V30 COUNTS 21 21 0 0 0
M  V30 BEGIN ATOM
M  V30 1 O 3.3338 0.4757 -0.9516 0
M  V30 2 N 2.4658 -0.4033 -1.1315 0
M  V30 3 N 1.3623 -0.5424 -0.2702 0
M  V30 4 C 0.349 -1.5457 -0.6332 0
M  V30 5 C 1.2075 0.3385 0.9005 0
M  V30 6 C -0.9843 -1.3827 0.1205 0
M  V30 7 C 0.1648 1.4497 0.6639 0
M  V30 8 C -1.7364 -0.0742 -0.1973 0
M  V30 9 C -0.8518 1.159 -0.4527 0
M  V30 10 H 0.1459 -1.4837 -1.7247 0
M  V30 11 H 0.7596 -2.5567 -0.4257 0
M  V30 12 H 0.9296 -0.2643 1.7896 0
M  V30 13 H 2.1783 0.8044 1.1722 0
M  V30 14 H -1.6435 -2.2342 -0.1556 0
M  V30 15 H -0.8263 -1.4763 1.2146 0
M  V30 16 H -0.3775 1.6525 1.613 0
M  V30 17 H 0.7035 2.3836 0.3917 0
M  V30 18 H -2.4351 0.1465 0.6388 0
M  V30 19 H -2.3586 -0.2362 -1.1046 0
M  V30 20 H -1.5172 2.0438 -0.554 0
M  V30 21 H -0.3261 1.055 -1.4267 0
M  V30 END ATOM
M  V30 BEGIN BOND
M  V30 1 2 1 2
M  V30 2 1 2 3
M  V30 3 1 3 4
M  V30 4 1 3 5
M  V30 5 1 4 6
M  V30 6 1 5 7
M  V30 7 1 6 8
M  V30 8 1 7 9
M  V30 9 1 8 9
M  V30 10 1 4 10
M  V30 11 1 4 11
M  V30 12 1 5 12
M  V30 13 1 5 13
M  V30 14 1 6 14
M  V30 15 1 6 15
M  V30 16 1 7 16
M  V30 17 1 7 17
M  V30 18 1 8 18
M  V30 19 1 8 19
M  V30 20 1 9 20
M  V30 21 1 9 21
M  V30 END BOND
M  V30 END CTAB
M  END
>  <Structure No>
4148

>  <LogS>
-1.0006

>  <MMFF94 Energy>
8.1365

$$$$
Compound 4149
Actelion Java MolfileCreator 2.0

  0  0  0  0  0  0              0 V3000
M  V30 BEGIN CTAB
M  V30 COUNTS 12 12 0 0 0
M  V30 BEGIN ATOM
M  V30 1 Cl -1.7969 2.5163 0.0 0
M  V30 2 C -0.8076 1.0592 -0.0087 0
M  V30 3 C 0.592 1.1725 0.0019 0
M  V30 4 C -1.4047 -0.2141 -0.0262 0
M  V30 5 O 1.1888 2.4292 0.0194 0 CHG=-1
M  V30 6 C 1.3897 0.0191 -0.0047 0
M  V30 7 Cl -3.1532 -0.4029 -0.0399 0
M  V30 8 C -0.6015 -1.3598 -0.0328 0
M  V30 9 Cl 3.1419 0.1441 0.0085 0
M  V30 10 C 0.7902 -1.2437 -0.022 0
M  V30 11 H -1.0556 -2.3424 -0.0462 0
M  V30 12 H 1.4021 -2.1367 -0.0273 0
M  V30 END ATOM
M  V30 BEGIN BOND
M  V30 1 1 1 2
M  V30 2 2 2 3
M  V30 3 1 2 4
M  V30 4 1 3 5
M  V30 5 1 3 6
M  V30 6 1 4 7
M  V30 7 2 4 8
M  V30 8 1 6 9
M  V30 9 2 6 10
M  V30 10 1 8 10
M  V30 11 1 8 11
M  V30 12 1 10 12
M  V30 END BOND
M  V30 END CTAB
M  END
>  <Structure No>
4149

>  <LogS>
-2.6422

>  <MMFF94 Energy>
57.504

$$$$
Compound 4150
Actelion Java MolfileCreator 2.0

  0  0  0  0  0  0              0 V3000
M  V30 BEGIN CTAB
M  V30 COUNTS 25 25 0 0 0
M  V30 BEGIN ATOM
M  V30 1 O -0.2363 -2.9182 1.1822 0
M  V30 2 C 0.0814 -1.9373 0.4576 0
M  V30 3 N 1.2379 -1.1618 0.8008 0
M  V30 4 C -0.8399 -1.5294 -0.6537 0
M  V30 5 C 2.1156 -0.5225 -0.1814 0
M  V30 6 C -1.9808 -0.6341 -0.1467 0
M  V30 7 C 1.5815 0.8178 -0.7283 0
M  V30 8 C -1.5444 0.5547 0.7342 0
M  V30 9 C 0.7577 1.6598 0.2686 0
M  V30 10 C -0.7614 1.6509 -0.0183 0
M  V30 11 H 1.6109 -1.2677 1.7714 0
M  V30 12 H -1.2862 -2.445 -1.0992 0
M  V30 13 H -0.2943 -1.0379 -1.4758 0
M  V30 14 H 2.3041 -1.2216 -1.0246 0
M  V30 15 H 3.0987 -0.3309 0.3025 0
M  V30 16 H -2.5598 -0.2575 -1.0178 0
M  V30 17 H -2.6751 -1.2646 0.4514 0
M  V30 18 H 2.47 1.416 -1.0295 0
M  V30 19 H 1.0321 0.6646 -1.6782 0
M  V30 20 H -2.4787 1.0159 1.1243 0
M  V30 21 H -0.9975 0.2032 1.6342 0
M  V30 22 H 1.0987 2.7141 0.1657 0
M  V30 23 H 0.9775 1.3846 1.3226 0
M  V30 24 H -1.1591 2.6316 0.3263 0
M  V30 25 H -0.9683 1.6181 -1.1099 0
M  V30 END ATOM
M  V30 BEGIN BOND
M  V30 1 2 1 2
M  V30 2 1 2 3
M  V30 3 1 2 4
M  V30 4 1 3 5
M  V30 5 1 4 6
M  V30 6 1 5 7
M  V30 7 1 6 8
M  V30 8 1 7 9
M  V30 9 1 8 10
M  V30 10 1 9 10
M  V30 11 1 3 11
M  V30 12 1 4 12
M  V30 13 1 4 13
M  V30 14 1 5 14
M  V30 15 1 5 15
M  V30 16 1 6 16
M  V30 17 1 6 17
M  V30 18 1 7 18
M  V30 19 1 7 19
M  V30 20 1 8 20
M  V30 21 1 8 21
M  V30 22 1 9 22
M  V30 23 1 9 23
M  V30 24 1 10 24
M  V30 25 1 10 25
M  V30 END BOND
M  V30 END CTAB
M  END
>  <Structure No>
4150

>  <LogS>
0.6329

>  <MMFF94 Energy>
-9.687

$$$$
Compound 4151
Actelion Java MolfileCreator 2.0

  0  0  0  0  0  0              0 V3000
M  V30 BEGIN CTAB
M  V30 COUNTS 18 19 0 0 0
M  V30 BEGIN ATOM
M  V30 1 S -1.673 -1.3382 0.0 0
M  V30 2 O -1.9301 -2.1722 1.2237 0
M  V30 3 O -2.0086 -2.0867 -1.2585 0
M  V30 4 N -2.5281 0.1699 0.0716 0
M  V30 5 C -0.084 -0.712 -0.0295 0
M  V30 6 C -1.5112 1.2478 0.0234 0
M  V30 7 C -0.1253 0.6583 -0.007 0
M  V30 8 C 1.116 -1.4207 -0.0666 0
M  V30 9 C 1.0641 1.395 -0.0264 0
M  V30 10 C 2.3162 -0.6952 -0.0838 0
M  V30 11 C 2.2904 0.7111 -0.0639 0
M  V30 12 H -3.0072 0.2082 1.0008 0
M  V30 13 H -1.6693 1.8506 -0.8954 0
M  V30 14 H -1.6089 1.9184 0.9061 0
M  V30 15 H 1.122 -2.5028 -0.082 0
M  V30 16 H 1.0419 2.4771 -0.0129 0
M  V30 17 H 3.2632 -1.2184 -0.1128 0
M  V30 18 H 3.2183 1.2681 -0.0783 0
M  V30 END ATOM
M  V30 BEGIN BOND
M  V30 1 2 1 2
M  V30 2 2 1 3
M  V30 3 1 1 4
M  V30 4 1 1 5
M  V30 5 1 4 6
M  V30 6 2 5 7
M  V30 7 1 5 8
M  V30 8 1 7 9
M  V30 9 2 8 10
M  V30 10 2 9 11
M  V30 11 1 6 7
M  V30 12 1 10 11
M  V30 13 1 4 12
M  V30 14 1 6 13
M  V30 15 1 6 14
M  V30 16 1 8 15
M  V30 17 1 9 16
M  V30 18 1 10 17
M  V30 19 1 11 18
M  V30 END BOND
M  V30 END CTAB
M  END
>  <Structure No>
4151

>  <LogS>
-1.5208

>  <MMFF94 Energy>
-42.841

$$$$
Compound 4152
Actelion Java MolfileCreator 2.0

  0  0  0  0  0  0              0 V3000
M  V30 BEGIN CTAB
M  V30 COUNTS 21 21 0 0 0
M  V30 BEGIN ATOM
M  V30 1 O 2.4428 0.1574 -2.6794 0
M  V30 2 N 1.6881 -0.5117 -1.9437 0
M  V30 3 N 1.7799 -0.4374 -0.5435 0
M  V30 4 C 0.8509 -1.2277 0.2629 0
M  V30 5 C 2.7472 0.4623 0.0876 0
M  V30 6 C -0.4694 -0.5168 0.3656 0
M  V30 7 C -1.4789 -0.7545 -0.5817 0
M  V30 8 C -0.6819 0.4378 1.3739 0
M  V30 9 C -2.6927 -0.0644 -0.505 0
M  V30 10 C -1.8972 1.1258 1.447 0
M  V30 11 C -2.9026 0.8735 0.5096 0
M  V30 12 H 1.2667 -1.4055 1.2787 0
M  V30 13 H 0.718 -2.2301 -0.1995 0
M  V30 14 H 2.6599 0.4382 1.1945 0
M  V30 15 H 2.5654 1.5028 -0.2539 0
M  V30 16 H 3.7768 0.1584 -0.1941 0
M  V30 17 H -1.3254 -1.4716 -1.3784 0
M  V30 18 H 0.0923 0.6493 2.101 0
M  V30 19 H -3.4695 -0.2541 -1.2345 0
M  V30 20 H -2.0582 1.8573 2.2283 0
M  V30 21 H -3.8422 1.4078 0.5668 0
M  V30 END ATOM
M  V30 BEGIN BOND
M  V30 1 2 1 2
M  V30 2 1 2 3
M  V30 3 1 3 4
M  V30 4 1 3 5
M  V30 5 1 4 6
M  V30 6 2 6 7
M  V30 7 1 6 8
M  V30 8 1 7 9
M  V30 9 2 8 10
M  V30 10 2 9 11
M  V30 11 1 10 11
M  V30 12 1 4 12
M  V30 13 1 4 13
M  V30 14 1 5 14
M  V30 15 1 5 15
M  V30 16 1 5 16
M  V30 17 1 7 17
M  V30 18 1 8 18
M  V30 19 1 9 19
M  V30 20 1 10 20
M  V30 21 1 11 21
M  V30 END BOND
M  V30 END CTAB
M  END
>  <Structure No>
4152

>  <LogS>
-1.5224

>  <MMFF94 Energy>
28.97

$$$$
Compound 4153
Actelion Java MolfileCreator 2.0

  0  0  0  0  0  0              0 V3000
M  V30 BEGIN CTAB
M  V30 COUNTS 16 16 0 0 0
M  V30 BEGIN ATOM
M  V30 1 Cl -2.7534 2.7534 -0.4437 0
M  V30 2 C -1.7378 1.3276 -0.2211 0
M  V30 3 C -2.3266 0.0737 0.0241 0
M  V30 4 C -0.3369 1.4437 -0.289 0
M  V30 5 Cl -4.0818 -0.0834 0.1112 0
M  V30 6 C -1.5116 -1.0562 0.2002 0
M  V30 7 Cl 0.4183 3.007 -0.5955 0
M  V30 8 C 0.4769 0.3139 -0.1129 0
M  V30 9 Cl -2.2054 -2.6434 0.509 0
M  V30 10 C -0.1214 -0.9347 0.1317 0
M  V30 11 O 1.8708 0.4684 -0.1874 0
M  V30 12 C 2.8107 -0.5892 -0.0285 0
M  V30 13 H 0.4845 -1.8195 0.2706 0
M  V30 14 H 2.6516 -1.3619 -0.81 0
M  V30 15 H 3.8365 -0.1815 -0.1362 0
M  V30 16 H 2.7116 -1.0395 0.9816 0
M  V30 END ATOM
M  V30 BEGIN BOND
M  V30 1 1 1 2
M  V30 2 2 2 3
M  V30 3 1 2 4
M  V30 4 1 3 5
M  V30 5 1 3 6
M  V30 6 1 4 7
M  V30 7 2 4 8
M  V30 8 1 6 9
M  V30 9 2 6 10
M  V30 10 1 8 11
M  V30 11 1 11 12
M  V30 12 1 8 10
M  V30 13 1 10 13
M  V30 14 1 12 14
M  V30 15 1 12 15
M  V30 16 1 12 16
M  V30 END BOND
M  V30 END CTAB
M  END
>  <Structure No>
4153

>  <LogS>
-5.2605

>  <MMFF94 Energy>
41.627

$$$$
Compound 4154
Actelion Java MolfileCreator 2.0

  0  0  0  0  0  0              0 V3000
M  V30 BEGIN CTAB
M  V30 COUNTS 21 21 0 0 0
M  V30 BEGIN ATOM
M  V30 1 O -3.5897 0.478 -1.674 0
M  V30 2 C -3.4932 0.3772 -0.4227 0
M  V30 3 O -3.8384 1.4544 0.3833 0 CHG=-1
M  V30 4 C -3.0368 -0.9066 0.1945 0
M  V30 5 O -1.8054 -1.3364 -0.3855 0
M  V30 6 C -0.5558 -0.7281 -0.1819 0
M  V30 7 C 0.5493 -1.2404 -0.8714 0
M  V30 8 C -0.3744 0.3647 0.6877 0
M  V30 9 C 1.8161 -0.6727 -0.7076 0
M  V30 10 C 0.8927 0.9328 0.8516 0
M  V30 11 C 1.9925 0.4279 0.143 0
M  V30 12 C 3.3583 1.0127 0.3498 0
M  V30 13 H -2.9316 -0.8045 1.2958 0
M  V30 14 H -3.8078 -1.6813 0.0022 0
M  V30 15 H 0.4254 -2.0855 -1.5368 0
M  V30 16 H -1.2009 0.7805 1.246 0
M  V30 17 H 2.6582 -1.0911 -1.2448 0
M  V30 18 H 1.0156 1.7671 1.5314 0
M  V30 19 H 3.9747 0.9023 -0.5676 0
M  V30 20 H 3.2888 2.0955 0.5881 0
M  V30 21 H 3.8609 0.4886 1.1892 0
M  V30 END ATOM
M  V30 BEGIN BOND
M  V30 1 2 1 2
M  V30 2 1 2 3
M  V30 3 1 2 4
M  V30 4 1 4 5
M  V30 5 1 5 6
M  V30 6 2 6 7
M  V30 7 1 6 8
M  V30 8 1 7 9
M  V30 9 2 8 10
M  V30 10 2 9 11
M  V30 11 1 11 12
M  V30 12 1 10 11
M  V30 13 1 4 13
M  V30 14 1 4 14
M  V30 15 1 7 15
M  V30 16 1 8 16
M  V30 17 1 9 17
M  V30 18 1 10 18
M  V30 19 1 12 19
M  V30 20 1 12 20
M  V30 21 1 12 21
M  V30 END BOND
M  V30 END CTAB
M  END
>  <Structure No>
4154

>  <LogS>
-2.1414

>  <MMFF94 Energy>
71.398

$$$$
Compound 4155
Actelion Java MolfileCreator 2.0

  0  0  0  0  0  0              0 V3000
M  V30 BEGIN CTAB
M  V30 COUNTS 20 20 0 0 0
M  V30 BEGIN ATOM
M  V30 1 Cl -2.5224 3.4803 -0.0869 0
M  V30 2 C -1.2779 2.258 0.1846 0
M  V30 3 C -0.375 2.3998 1.2497 0
M  V30 4 C -1.1884 1.1444 -0.6662 0
M  V30 5 Cl -0.4922 3.7916 2.3296 0
M  V30 6 C 0.6327 1.4417 1.446 0
M  V30 7 Cl -2.2754 1.0042 -2.049 0
M  V30 8 C -0.205 0.1613 -0.4468 0
M  V30 9 Cl 1.7923 1.6298 2.7622 0
M  V30 10 C 0.741 0.3303 0.5942 0
M  V30 11 O -0.1704 -0.9701 -1.2654 0
M  V30 12 O 1.8038 -0.5617 0.8339 0
M  V30 13 C -1.108 -2.0317 -1.1176 0
M  V30 14 C 2.2195 -1.6305 -0.0089 0
M  V30 15 H -1.0532 -2.4451 -0.0884 0
M  V30 16 H -0.863 -2.8358 -1.8411 0
M  V30 17 H -2.14 -1.6772 -1.3131 0
M  V30 18 H 3.1772 -2.0365 0.3753 0
M  V30 19 H 2.3868 -1.2646 -1.0439 0
M  V30 20 H 1.4717 -2.4487 0.009 0
M  V30 END ATOM
M  V30 BEGIN BOND
M  V30 1 1 1 2
M  V30 2 2 2 3
M  V30 3 1 2 4
M  V30 4 1 3 5
M  V30 5 1 3 6
M  V30 6 1 4 7
M  V30 7 2 4 8
M  V30 8 1 6 9
M  V30 9 2 6 10
M  V30 10 1 8 11
M  V30 11 1 10 12
M  V30 12 1 11 13
M  V30 13 1 12 14
M  V30 14 1 8 10
M  V30 15 1 13 15
M  V30 16 1 13 16
M  V30 17 1 13 17
M  V30 18 1 14 18
M  V30 19 1 14 19
M  V30 20 1 14 20
M  V30 END BOND
M  V30 END CTAB
M  END
>  <Structure No>
4155

>  <LogS>
-5.2394

>  <MMFF94 Energy>
69.506

$$$$
Compound 4156
Actelion Java MolfileCreator 2.0

  0  0  0  0  0  0              0 V3000
M  V30 BEGIN CTAB
M  V30 COUNTS 57 60 0 0 0
M  V30 BEGIN ATOM
M  V30 1 O 6.1557 0.7274 -1.5362 0
M  V30 2 C 5.0093 0.6533 -1.0196 0
M  V30 3 C 4.3472 -0.655 -0.9179 0
M  V30 4 C 4.3462 1.9002 -0.5172 0
M  V30 5 C 3.1686 -0.8045 -0.2861 0
M  V30 6 C 2.8457 1.6891 -0.2532 0
M  V30 7 C 2.4265 -2.0851 -0.4149 0
M  V30 8 C 2.5345 0.3583 0.4985 0 CFG=1
M  V30 9 C 1.0942 -2.0417 -0.5307 0
M  V30 10 C 3.1449 -3.4046 -0.4935 0
M  V30 11 C 0.9725 0.1246 0.6771 0 CFG=2
M  V30 12 C 3.1855 0.3929 1.904 0
M  V30 13 C 0.3725 -0.7141 -0.4929 0 CFG=2
M  V30 14 C 0.1499 1.4148 0.9835 0
M  V30 15 C -1.1417 -0.9139 -0.2508 0 CFG=1
M  V30 16 C -1.3673 1.1496 1.1199 0
M  V30 17 C -1.928 0.4046 -0.1239 0 CFG=2
M  V30 18 C -1.9276 -1.7445 -1.2543 0
M  V30 19 C -3.4164 -0.1166 -0.0512 0 CFG=2
M  V30 20 C -1.765 1.3159 -1.3907 0
M  V30 21 C -3.3938 -1.3191 -1.0601 0
M  V30 22 C -4.4627 0.9458 -0.4412 0
M  V30 23 C -3.8192 -0.6712 1.3452 0
M  V30 24 O -5.1322 0.812 -1.4552 0
M  V30 25 C -4.7184 2.1696 0.3958 0
M  V30 26 H 4.7924 -1.4843 -1.4538 0
M  V30 27 H 4.8546 2.2306 0.4133 0
M  V30 28 H 4.4688 2.7096 -1.269 0
M  V30 29 H 2.3085 1.6923 -1.2277 0
M  V30 30 H 2.4972 2.5648 0.3347 0
M  V30 31 H 0.5348 -2.9645 -0.6268 0
M  V30 32 H 4.1003 -3.3572 0.0701 0
M  V30 33 H 3.3577 -3.6496 -1.555 0
M  V30 34 H 2.5307 -4.2174 -0.0495 0
M  V30 35 H 0.8357 -0.5112 1.5841 0
M  V30 36 H 2.96 -0.5395 2.465 0
M  V30 37 H 4.291 0.4695 1.8436 0
M  V30 38 H 2.8081 1.2565 2.4915 0
M  V30 39 H 0.5573 -0.2107 -1.4637 0
M  V30 40 H 0.5114 1.8579 1.9361 0
M  V30 41 H 0.2979 2.1836 0.2017 0
M  V30 42 H -1.2101 -1.4648 0.7154 0
M  V30 43 H -1.5225 0.5545 2.0444 0
M  V30 44 H -1.8794 2.1238 1.253 0
M  V30 45 H -1.8066 -2.8322 -1.0605 0
M  V30 46 H -1.5887 -1.5217 -2.2901 0
M  V30 47 H -0.7147 1.5421 -1.6473 0
M  V30 48 H -2.2194 0.855 -2.2919 0
M  V30 49 H -2.2614 2.2951 -1.2266 0
M  V30 50 H -3.9999 -2.1797 -0.6988 0
M  V30 51 H -3.794 -1.0472 -2.0599 0
M  V30 52 H -3.76 0.1014 2.1369 0
M  V30 53 H -4.8703 -1.0327 1.3189 0
M  V30 54 H -3.1916 -1.5299 1.6566 0
M  V30 55 H -4.122 2.1797 1.3257 0
M  V30 56 H -4.4739 3.0788 -0.1918 0
M  V30 57 H -5.7916 2.2039 0.6783 0
M  V30 END ATOM
M  V30 BEGIN BOND
M  V30 1 2 1 2
M  V30 2 1 2 3
M  V30 3 1 2 4
M  V30 4 2 3 5
M  V30 5 1 4 6
M  V30 6 1 5 7
M  V30 7 1 5 8
M  V30 8 2 7 9
M  V30 9 1 7 10
M  V30 10 1 8 11
M  V30 11 1 8 12
M  V30 12 1 9 13
M  V30 13 1 11 14
M  V30 14 1 13 15
M  V30 15 1 14 16
M  V30 16 1 15 17
M  V30 17 1 15 18
M  V30 18 1 17 19
M  V30 19 1 17 20
M  V30 20 1 18 21
M  V30 21 1 19 22
M  V30 22 1 19 23
M  V30 23 2 22 24
M  V30 24 1 22 25
M  V30 25 1 6 8
M  V30 26 1 11 13
M  V30 27 1 16 17
M  V30 28 1 19 21
M  V30 29 1 3 26
M  V30 30 1 4 27
M  V30 31 1 4 28
M  V30 32 1 6 29
M  V30 33 1 6 30
M  V30 34 1 9 31
M  V30 35 1 10 32
M  V30 36 1 10 33
M  V30 37 1 10 34
M  V30 38 1 11 35
M  V30 39 1 12 36
M  V30 40 1 12 37
M  V30 41 1 12 38
M  V30 42 1 13 39
M  V30 43 1 14 40
M  V30 44 1 14 41
M  V30 45 1 15 42
M  V30 46 1 16 43
M  V30 47 1 16 44
M  V30 48 1 18 45
M  V30 49 1 18 46
M  V30 50 1 20 47
M  V30 51 1 20 48
M  V30 52 1 20 49
M  V30 53 1 21 50
M  V30 54 1 21 51
M  V30 55 1 23 52
M  V30 56 1 23 53
M  V30 57 1 23 54
M  V30 58 1 25 55
M  V30 59 1 25 56
M  V30 60 1 25 57
M  V30 END BOND
M  V30 BEGIN COLLECTION
M  V30 MDLV30/STEABS ATOMS=(6 8 11 13 15 17 19)
M  V30 END COLLECTION
M  V30 END CTAB
M  END
>  <Structure No>
4156

>  <LogS>
-5.2721

>  <MMFF94 Energy>
90.532

$$$$
Compound 4157
Actelion Java MolfileCreator 2.0

  0  0  0  0  0  0              0 V3000
M  V30 BEGIN CTAB
M  V30 COUNTS 20 19 0 0 0
M  V30 BEGIN ATOM
M  V30 1 N -0.6818 0.3029 -0.4544 0 CHG=1
M  V30 2 C 0.7533 0.304 -0.0348 0
M  V30 3 C -1.3116 -1.0327 -0.4378 0
M  V30 4 C -1.4851 1.2453 0.3483 0
M  V30 5 C 1.0149 -0.4133 1.3059 0
M  V30 6 C 1.6674 -0.2784 -1.1287 0
M  V30 7 H -0.7296 0.6523 -1.4416 0
M  V30 8 H 1.0865 1.3594 0.0969 0
M  V30 9 H -2.3218 -0.985 -0.9014 0
M  V30 10 H -1.4324 -1.414 0.5994 0
M  V30 11 H -0.7207 -1.7628 -1.0277 0
M  V30 12 H -1.5792 0.9086 1.4027 0
M  V30 13 H -2.51 1.3363 -0.0753 0
M  V30 14 H -1.0343 2.2618 0.3327 0
M  V30 15 H 2.0731 -0.2626 1.6095 0
M  V30 16 H 0.377 -0.0019 2.1133 0
M  V30 17 H 0.8396 -1.5063 1.2199 0
M  V30 18 H 2.7326 -0.1181 -0.8558 0
M  V30 19 H 1.506 -1.3686 -1.2555 0
M  V30 20 H 1.4851 0.2302 -2.0989 0
M  V30 END ATOM
M  V30 BEGIN BOND
M  V30 1 1 1 2
M  V30 2 1 1 3
M  V30 3 1 1 4
M  V30 4 1 2 5
M  V30 5 1 2 6
M  V30 6 1 1 7
M  V30 7 1 2 8
M  V30 8 1 3 9
M  V30 9 1 3 10
M  V30 10 1 3 11
M  V30 11 1 4 12
M  V30 12 1 4 13
M  V30 13 1 4 14
M  V30 14 1 5 15
M  V30 15 1 5 16
M  V30 16 1 5 17
M  V30 17 1 6 18
M  V30 18 1 6 19
M  V30 19 1 6 20
M  V30 END BOND
M  V30 END CTAB
M  END
>  <Structure No>
4157

>  <LogS>
1.0597

>  <MMFF94 Energy>
12.578

$$$$
Compound 4158
Actelion Java MolfileCreator 2.0

  0  0  0  0  0  0              0 V3000
M  V30 BEGIN CTAB
M  V30 COUNTS 17 16 0 0 0
M  V30 BEGIN ATOM
M  V30 1 O 2.859 -0.7141 0.0793 0
M  V30 2 N 3.1417 0.4838 0.29 0 CHG=1
M  V30 3 O 2.3682 1.503 -0.2323 0
M  V30 4 O 4.255 0.7952 1.0326 0 CHG=-1
M  V30 5 C 1.1873 1.2563 -0.991 0
M  V30 6 C 0.1017 0.7376 -0.105 0
M  V30 7 O -0.4543 1.5138 0.7188 0
M  V30 8 O -0.2604 -0.6121 -0.1756 0
M  V30 9 C -1.2988 -1.1885 0.6137 0
M  V30 10 C -2.6683 -0.797 0.071 0
M  V30 11 H 0.8529 2.2078 -1.455 0
M  V30 12 H 1.4028 0.5329 -1.8062 0
M  V30 13 H -1.1993 -0.8735 1.6752 0
M  V30 14 H -1.2019 -2.2938 0.5722 0
M  V30 15 H -2.8135 0.3011 0.1411 0
M  V30 16 H -2.7585 -1.1095 -0.9906 0
M  V30 17 H -3.462 -1.2995 0.6629 0
M  V30 END ATOM
M  V30 BEGIN BOND
M  V30 1 2 1 2
M  V30 2 1 2 3
M  V30 3 1 2 4
M  V30 4 1 3 5
M  V30 5 1 5 6
M  V30 6 2 6 7
M  V30 7 1 6 8
M  V30 8 1 8 9
M  V30 9 1 9 10
M  V30 10 1 5 11
M  V30 11 1 5 12
M  V30 12 1 9 13
M  V30 13 1 9 14
M  V30 14 1 10 15
M  V30 15 1 10 16
M  V30 16 1 10 17
M  V30 END BOND
M  V30 END CTAB
M  END
>  <Structure No>
4158

>  <LogS>
-1.7111

>  <MMFF94 Energy>
-24.682

$$$$
Compound 4159
Actelion Java MolfileCreator 2.0

  0  0  0  0  0  0              0 V3000
M  V30 BEGIN CTAB
M  V30 COUNTS 25 24 0 0 0
M  V30 BEGIN ATOM
M  V30 1 O -2.031 -1.2494 -1.4838 0
M  V30 2 C -1.7448 -0.4424 -0.5564 0
M  V30 3 O -2.6475 -0.2114 0.485 0
M  V30 4 N -0.4908 0.246 -0.5613 0
M  V30 5 C -3.9143 -0.8572 0.561 0
M  V30 6 C 0.4907 0.0421 -1.6249 0
M  V30 7 C -4.6503 -0.3913 1.807 0
M  V30 8 C 1.7104 0.8721 -1.3807 0
M  V30 9 O 1.7873 2.0322 -1.8696 0
M  V30 10 O 2.7325 0.3694 -0.5708 0
M  V30 11 C 3.9097 1.112 -0.2719 0
M  V30 12 C 4.8168 0.2886 0.6281 0
M  V30 13 H -0.2889 0.9071 0.2234 0
M  V30 14 H -3.7718 -1.9587 0.6092 0
M  V30 15 H -4.5184 -0.606 -0.3376 0
M  V30 16 H 0.0415 0.3179 -2.6037 0
M  V30 17 H 0.7816 -1.0295 -1.6605 0
M  V30 18 H -4.0599 -0.6437 2.7131 0
M  V30 19 H -4.8058 0.7075 1.7671 0
M  V30 20 H -5.6386 -0.8936 1.8687 0
M  V30 21 H 4.449 1.3558 -1.2129 0
M  V30 22 H 3.6364 2.0563 0.2475 0
M  V30 23 H 4.2912 0.0451 1.5757 0
M  V30 24 H 5.1033 -0.6545 0.1168 0
M  V30 25 H 5.736 0.8656 0.863 0
M  V30 END ATOM
M  V30 BEGIN BOND
M  V30 1 2 1 2
M  V30 2 1 2 3
M  V30 3 1 2 4
M  V30 4 1 3 5
M  V30 5 1 4 6
M  V30 6 1 5 7
M  V30 7 1 6 8
M  V30 8 2 8 9
M  V30 9 1 8 10
M  V30 10 1 10 11
M  V30 11 1 11 12
M  V30 12 1 4 13
M  V30 13 1 5 14
M  V30 14 1 5 15
M  V30 15 1 6 16
M  V30 16 1 6 17
M  V30 17 1 7 18
M  V30 18 1 7 19
M  V30 19 1 7 20
M  V30 20 1 11 21
M  V30 21 1 11 22
M  V30 22 1 12 23
M  V30 23 1 12 24
M  V30 24 1 12 25
M  V30 END BOND
M  V30 END CTAB
M  END
>  <Structure No>
4159

>  <LogS>
-0.2435

>  <MMFF94 Energy>
-51.171

$$$$
Compound 4160
Actelion Java MolfileCreator 2.0

  0  0  0  0  0  0              0 V3000
M  V30 BEGIN CTAB
M  V30 COUNTS 19 18 0 0 0
M  V30 BEGIN ATOM
M  V30 1 O -1.0831 2.0122 -0.3093 0
M  V30 2 C -1.3842 0.8512 0.0785 0
M  V30 3 O -0.716 -0.2677 -0.4347 0
M  V30 4 C -2.4568 0.6847 1.0697 0
M  V30 5 C 0.3999 -0.1878 -1.322 0
M  V30 6 C -2.8161 -0.5106 1.5313 0
M  V30 7 C 1.7161 0.0285 -0.5552 0 CFG=1
M  V30 8 O 1.697 1.2555 0.1251 0
M  V30 9 C 1.9657 -1.0982 0.4475 0
M  V30 10 H -2.9693 1.5646 1.4391 0
M  V30 11 H 0.4665 -1.1423 -1.8864 0
M  V30 12 H 0.2477 0.6222 -2.0683 0
M  V30 13 H -2.3306 -1.4175 1.1939 0
M  V30 14 H -3.6101 -0.5897 2.2623 0
M  V30 15 H 2.5562 0.0211 -1.2882 0
M  V30 16 H 1.8245 1.9639 -0.5589 0
M  V30 17 H 1.9868 -2.0797 -0.0722 0
M  V30 18 H 1.1721 -1.1146 1.2249 0
M  V30 19 H 2.9458 -0.9444 0.9469 0
M  V30 END ATOM
M  V30 BEGIN BOND
M  V30 1 2 1 2
M  V30 2 1 2 3
M  V30 3 1 2 4
M  V30 4 1 3 5
M  V30 5 2 4 6
M  V30 6 1 5 7
M  V30 7 1 7 8
M  V30 8 1 7 9
M  V30 9 1 4 10
M  V30 10 1 5 11
M  V30 11 1 5 12
M  V30 12 1 6 13
M  V30 13 1 6 14
M  V30 14 1 7 15
M  V30 15 1 8 16
M  V30 16 1 9 17
M  V30 17 1 9 18
M  V30 18 1 9 19
M  V30 END BOND
M  V30 BEGIN COLLECTION
M  V30 MDLV30/STEABS ATOMS=(1 7)
M  V30 END COLLECTION
M  V30 END CTAB
M  END
>  <Structure No>
4160

>  <LogS>
0.8856

>  <MMFF94 Energy>
15.903

$$$$
Compound 4161
Actelion Java MolfileCreator 2.0

  0  0  0  0  0  0              0 V3000
M  V30 BEGIN CTAB
M  V30 COUNTS 12 11 0 0 0
M  V30 BEGIN ATOM
M  V30 1 O 0.9851 -1.7435 0.4546 0
M  V30 2 C 1.0501 -0.4858 0.3964 0
M  V30 3 N -0.1456 0.2974 0.3035 0
M  V30 4 N 2.3241 0.1557 0.4237 0
M  V30 5 C -1.4682 -0.3225 0.2734 0
M  V30 6 O -2.4631 0.6604 0.1868 0
M  V30 7 H -0.0647 1.3386 0.2581 0
M  V30 8 H 3.1987 -0.4103 0.4914 0
M  V30 9 H 2.3959 1.1963 0.3764 0
M  V30 10 H -1.5406 -1.0199 -0.5915 0
M  V30 11 H -1.623 -0.9033 1.2071 0
M  V30 12 H -2.4179 1.0246 -0.7356 0
M  V30 END ATOM
M  V30 BEGIN BOND
M  V30 1 2 1 2
M  V30 2 1 2 3
M  V30 3 1 2 4
M  V30 4 1 3 5
M  V30 5 1 5 6
M  V30 6 1 3 7
M  V30 7 1 4 8
M  V30 8 1 4 9
M  V30 9 1 5 10
M  V30 10 1 5 11
M  V30 11 1 6 12
M  V30 END BOND
M  V30 END CTAB
M  END
>  <Structure No>
4161

>  <LogS>
-0.3463

>  <MMFF94 Energy>
-145.94

$$$$
Compound 4162
Actelion Java MolfileCreator 2.0

  0  0  0  0  0  0              0 V3000
M  V30 BEGIN CTAB
M  V30 COUNTS 20 19 0 0 0
M  V30 BEGIN ATOM
M  V30 1 O 3.8397 0.4695 0.0782 0
M  V30 2 N 2.8472 1.1064 0.4897 0 CHG=1
M  V30 3 O 1.6209 0.4909 0.6445 0
M  V30 4 O 2.9758 2.441 0.7906 0 CHG=-1
M  V30 5 C 1.4238 -0.8872 0.345 0
M  V30 6 C -0.0319 -1.2869 0.6078 0
M  V30 7 C -0.996 -0.8595 -0.5117 0
M  V30 8 C -1.2051 0.6603 -0.5747 0
M  V30 9 C -2.3086 1.023 -1.5647 0
M  V30 10 H 2.0861 -1.4932 1.0004 0
M  V30 11 H 1.6977 -1.0897 -0.7131 0
M  V30 12 H -0.3686 -0.8758 1.5847 0
M  V30 13 H -0.0742 -2.3952 0.6866 0
M  V30 14 H -1.9762 -1.349 -0.3194 0
M  V30 15 H -0.6236 -1.2299 -1.492 0
M  V30 16 H -1.4832 1.0468 0.4298 0
M  V30 17 H -0.2682 1.158 -0.902 0
M  V30 18 H -3.2745 0.5742 -1.2487 0
M  V30 19 H -2.0493 0.6585 -2.5816 0
M  V30 20 H -2.4265 2.1267 -1.6022 0
M  V30 END ATOM
M  V30 BEGIN BOND
M  V30 1 2 1 2
M  V30 2 1 2 3
M  V30 3 1 2 4
M  V30 4 1 3 5
M  V30 5 1 5 6
M  V30 6 1 6 7
M  V30 7 1 7 8
M  V30 8 1 8 9
M  V30 9 1 5 10
M  V30 10 1 5 11
M  V30 11 1 6 12
M  V30 12 1 6 13
M  V30 13 1 7 14
M  V30 14 1 7 15
M  V30 15 1 8 16
M  V30 16 1 8 17
M  V30 17 1 9 18
M  V30 18 1 9 19
M  V30 19 1 9 20
M  V30 END BOND
M  V30 END CTAB
M  END
>  <Structure No>
4162

>  <LogS>
-2.568

>  <MMFF94 Energy>
-15.072

$$$$
Compound 4163
Actelion Java MolfileCreator 2.0

  0  0  0  0  0  0              0 V3000
M  V30 BEGIN CTAB
M  V30 COUNTS 19 19 0 0 0
M  V30 BEGIN ATOM
M  V30 1 O 0.0 1.0165 -0.3908 0
M  V30 2 C -1.0378 0.0818 -0.594 0 CFG=1
M  V30 3 C 1.0004 0.3871 0.3805 0 CFG=1
M  V30 4 C -0.7922 -1.1359 0.2857 0
M  V30 5 C -2.3894 0.7327 -0.3047 0
M  V30 6 C 0.69 -1.0996 0.4831 0
M  V30 7 C 2.3736 0.6431 -0.2381 0
M  V30 8 H -1.0181 -0.2334 -1.6612 0
M  V30 9 H 0.9836 0.8311 1.4011 0
M  V30 10 H -1.1192 -2.0763 -0.2092 0
M  V30 11 H -1.2991 -1.0343 1.2721 0
M  V30 12 H -2.4251 1.1055 0.7415 0
M  V30 13 H -3.2085 -0.0016 -0.4591 0
M  V30 14 H -2.5475 1.5899 -0.9929 0
M  V30 15 H 0.9847 -1.5161 1.4711 0
M  V30 16 H 1.1855 -1.6758 -0.3306 0
M  V30 17 H 3.1632 0.1451 0.3641 0
M  V30 18 H 2.4088 0.2561 -1.279 0
M  V30 19 H 2.578 1.7347 -0.2575 0
M  V30 END ATOM
M  V30 BEGIN BOND
M  V30 1 1 1 2
M  V30 2 1 1 3
M  V30 3 1 2 4
M  V30 4 1 2 5
M  V30 5 1 3 6
M  V30 6 1 3 7
M  V30 7 1 4 6
M  V30 8 1 2 8
M  V30 9 1 3 9
M  V30 10 1 4 10
M  V30 11 1 4 11
M  V30 12 1 5 12
M  V30 13 1 5 13
M  V30 14 1 5 14
M  V30 15 1 6 15
M  V30 16 1 6 16
M  V30 17 1 7 17
M  V30 18 1 7 18
M  V30 19 1 7 19
M  V30 END BOND
M  V30 BEGIN COLLECTION
M  V30 MDLV30/STEABS ATOMS=(2 2 3)
M  V30 END COLLECTION
M  V30 END CTAB
M  END
>  <Structure No>
4163

>  <LogS>
0.0723

>  <MMFF94 Energy>
9.6515

$$$$
Compound 4164
Actelion Java MolfileCreator 2.0

  0  0  0  0  0  0              0 V3000
M  V30 BEGIN CTAB
M  V30 COUNTS 15 15 0 0 0
M  V30 BEGIN ATOM
M  V30 1 O -3.3834 -0.0785 0.0 0 CHG=-1
M  V30 2 N -2.0081 -0.0594 -0.0182 0 CHG=1
M  V30 3 C -1.3523 1.1097 0.2222 0
M  V30 4 C -1.3265 -1.2112 -0.2702 0
M  V30 5 C 0.0442 1.1502 0.2094 0
M  V30 6 C 0.0704 -1.2132 -0.292 0
M  V30 7 C 0.7661 -0.0185 -0.0653 0
M  V30 8 C 2.2657 -0.0062 -0.0445 0
M  V30 9 H -1.9116 2.0138 0.4284 0
M  V30 10 H -1.8657 -2.1327 -0.4514 0
M  V30 11 H 0.5561 2.0832 0.411 0
M  V30 12 H 0.6028 -2.1365 -0.4842 0
M  V30 13 H 2.6731 -0.7736 -0.7366 0
M  V30 14 H 2.6536 0.9847 -0.3634 0
M  V30 15 H 2.6222 -0.2206 0.9846 0
M  V30 END ATOM
M  V30 BEGIN BOND
M  V30 1 1 1 2
M  V30 2 2 2 3
M  V30 3 1 2 4
M  V30 4 1 3 5
M  V30 5 2 4 6
M  V30 6 2 5 7
M  V30 7 1 7 8
M  V30 8 1 6 7
M  V30 9 1 3 9
M  V30 10 1 4 10
M  V30 11 1 5 11
M  V30 12 1 6 12
M  V30 13 1 8 13
M  V30 14 1 8 14
M  V30 15 1 8 15
M  V30 END BOND
M  V30 END CTAB
M  END
>  <Structure No>
4164

>  <LogS>
0.9621

>  <MMFF94 Energy>
12.863

$$$$
Compound 4165
Actelion Java MolfileCreator 2.0

  0  0  0  0  0  0              0 V3000
M  V30 BEGIN CTAB
M  V30 COUNTS 19 19 0 0 0
M  V30 BEGIN ATOM
M  V30 1 Cl -3.3794 -3.2183 0.643 0
M  V30 2 C -2.4435 -1.7573 0.4141 0
M  V30 3 N -1.0881 -1.8138 0.4109 0
M  V30 4 N -3.0736 -0.5688 0.2402 0
M  V30 5 C -0.3579 -0.6827 0.2337 0
M  V30 6 C -2.3489 0.5651 0.0626 0
M  V30 7 N -0.9927 0.5068 0.0596 0
M  V30 8 N 1.0721 -0.753 0.2319 0
M  V30 9 N -3.0105 1.8146 -0.1201 0
M  V30 10 C 1.899 0.4389 0.0446 0
M  V30 11 C 3.3822 0.087 0.0848 0
M  V30 12 H 1.5225 -1.6868 0.369 0
M  V30 13 H -4.0534 1.866 -0.1187 0
M  V30 14 H -2.4581 2.69 -0.2572 0
M  V30 15 H 1.6627 0.9027 -0.9372 0
M  V30 16 H 1.6783 1.1727 0.8497 0
M  V30 17 H 3.9881 1.0063 -0.0592 0
M  V30 18 H 3.6417 -0.3624 1.0669 0
M  V30 19 H 3.626 -0.6331 -0.7248 0
M  V30 END ATOM
M  V30 BEGIN BOND
M  V30 1 1 1 2
M  V30 2 2 2 3
M  V30 3 1 2 4
M  V30 4 1 3 5
M  V30 5 2 4 6
M  V30 6 2 5 7
M  V30 7 1 5 8
M  V30 8 1 6 9
M  V30 9 1 8 10
M  V30 10 1 10 11
M  V30 11 1 6 7
M  V30 12 1 8 12
M  V30 13 1 9 13
M  V30 14 1 9 14
M  V30 15 1 10 15
M  V30 16 1 10 16
M  V30 17 1 11 17
M  V30 18 1 11 18
M  V30 19 1 11 19
M  V30 END BOND
M  V30 END CTAB
M  END
>  <Structure No>
4165

>  <LogS>
-2.4135

>  <MMFF94 Energy>
-246.91

$$$$
Compound 4166
Actelion Java MolfileCreator 2.0

  0  0  0  0  0  0              0 V3000
M  V30 BEGIN CTAB
M  V30 COUNTS 31 31 0 0 0
M  V30 BEGIN ATOM
M  V30 1 O 2.8366 1.8115 0.866 0
M  V30 2 C 1.8205 1.5646 0.1622 0
M  V30 3 N 0.5718 2.1913 0.5224 0
M  V30 4 C 1.9776 0.5908 -0.9833 0
M  V30 5 C -0.6367 2.2855 -0.3016 0
M  V30 6 C 2.2897 -0.8503 -0.508 0
M  V30 7 C -1.7193 1.2837 0.1647 0
M  V30 8 C 1.0483 -1.7316 -0.2584 0
M  V30 9 C -1.8155 0.0605 -0.7674 0
M  V30 10 C 0.2826 -1.3182 1.0103 0
M  V30 11 C -2.1295 -1.2825 -0.0788 0
M  V30 12 C -1.1902 -1.7615 1.0587 0
M  V30 13 H 0.536 2.6705 1.4509 0
M  V30 14 H 2.8451 0.9428 -1.5827 0
M  V30 15 H 1.1266 0.6033 -1.6824 0
M  V30 16 H -1.0459 3.3121 -0.1801 0
M  V30 17 H -0.401 2.1961 -1.3819 0
M  V30 18 H 2.9333 -0.8367 0.399 0
M  V30 19 H 2.8848 -1.3454 -1.3063 0
M  V30 20 H -2.7065 1.7966 0.1566 0
M  V30 21 H -1.5507 0.994 1.2222 0
M  V30 22 H 1.3873 -2.7821 -0.1247 0
M  V30 23 H 0.4103 -1.7407 -1.1619 0
M  V30 24 H -2.6223 0.2565 -1.5076 0
M  V30 25 H -0.9114 -0.0511 -1.3792 0
M  V30 26 H 0.3266 -0.2364 1.1749 0
M  V30 27 H 0.8046 -1.7625 1.886 0
M  V30 28 H -3.1669 -1.2397 0.319 0
M  V30 29 H -2.1341 -2.0641 -0.8697 0
M  V30 30 H -1.6107 -1.4031 2.0239 0
M  V30 31 H -1.2244 -2.872 1.1002 0
M  V30 END ATOM
M  V30 BEGIN BOND
M  V30 1 2 1 2
M  V30 2 1 2 3
M  V30 3 1 2 4
M  V30 4 1 3 5
M  V30 5 1 4 6
M  V30 6 1 5 7
M  V30 7 1 6 8
M  V30 8 1 7 9
M  V30 9 1 8 10
M  V30 10 1 9 11
M  V30 11 1 10 12
M  V30 12 1 11 12
M  V30 13 1 3 13
M  V30 14 1 4 14
M  V30 15 1 4 15
M  V30 16 1 5 16
M  V30 17 1 5 17
M  V30 18 1 6 18
M  V30 19 1 6 19
M  V30 20 1 7 20
M  V30 21 1 7 21
M  V30 22 1 8 22
M  V30 23 1 8 23
M  V30 24 1 9 24
M  V30 25 1 9 25
M  V30 26 1 10 26
M  V30 27 1 10 27
M  V30 28 1 11 28
M  V30 29 1 11 29
M  V30 30 1 12 30
M  V30 31 1 12 31
M  V30 END BOND
M  V30 END CTAB
M  END
>  <Structure No>
4166

>  <LogS>
-1.8862

>  <MMFF94 Energy>
-7.7593

$$$$
Compound 4167
Actelion Java MolfileCreator 2.0

  0  0  0  0  0  0              0 V3000
M  V30 BEGIN CTAB
M  V30 COUNTS 29 29 0 0 0
M  V30 BEGIN ATOM
M  V30 1 S -2.5635 3.125 -0.4002 0
M  V30 2 C -1.6079 1.6162 -0.304 0
M  V30 3 C -3.0818 3.043 1.3416 0
M  V30 4 N -0.2963 1.6646 0.0384 0
M  V30 5 N -2.1944 0.424 -0.576 0
M  V30 6 C 0.4327 0.5217 0.1124 0
M  V30 7 C -1.472 -0.7244 -0.5022 0
M  V30 8 N -0.1602 -0.6713 -0.1567 0
M  V30 9 N 1.8169 0.5852 0.48 0
M  V30 10 N -2.0819 -1.9882 -0.7846 0
M  V30 11 C 2.6722 -0.6042 0.549 0
M  V30 12 C -3.4867 -2.1021 -1.1559 0
M  V30 13 C 3.0695 -1.0482 -0.8618 0
M  V30 14 C 3.9204 -0.313 1.3884 0
M  V30 15 H -3.7274 3.9157 1.5695 0
M  V30 16 H -2.1924 3.0702 2.0057 0
M  V30 17 H -3.6578 2.1118 1.5246 0
M  V30 18 H 2.2142 1.5205 0.7281 0
M  V30 19 H -1.5037 -2.8563 -0.7219 0
M  V30 20 H 2.1169 -1.43 1.0464 0
M  V30 21 H -3.6771 -1.5316 -2.0892 0
M  V30 22 H -4.1256 -1.7039 -0.3396 0
M  V30 23 H -3.7462 -3.1681 -1.3273 0
M  V30 24 H 2.1668 -1.3058 -1.4541 0
M  V30 25 H 3.7184 -1.9485 -0.8126 0
M  V30 26 H 3.6176 -0.2351 -1.3842 0
M  V30 27 H 3.6215 0.0055 2.4099 0
M  V30 28 H 4.5256 0.4949 0.9237 0
M  V30 29 H 4.5457 -1.2269 1.4769 0
M  V30 END ATOM
M  V30 BEGIN BOND
M  V30 1 1 1 2
M  V30 2 1 1 3
M  V30 3 2 2 4
M  V30 4 1 2 5
M  V30 5 1 4 6
M  V30 6 2 5 7
M  V30 7 2 6 8
M  V30 8 1 6 9
M  V30 9 1 7 10
M  V30 10 1 9 11
M  V30 11 1 10 12
M  V30 12 1 11 13
M  V30 13 1 11 14
M  V30 14 1 7 8
M  V30 15 1 3 15
M  V30 16 1 3 16
M  V30 17 1 3 17
M  V30 18 1 9 18
M  V30 19 1 10 19
M  V30 20 1 11 20
M  V30 21 1 12 21
M  V30 22 1 12 22
M  V30 23 1 12 23
M  V30 24 1 13 24
M  V30 25 1 13 25
M  V30 26 1 13 26
M  V30 27 1 14 27
M  V30 28 1 14 28
M  V30 29 1 14 29
M  V30 END BOND
M  V30 END CTAB
M  END
>  <Structure No>
4167

>  <LogS>
-2.5656

>  <MMFF94 Energy>
-242.33

$$$$
Compound 4168
Actelion Java MolfileCreator 2.0

  0  0  0  0  0  0              0 V3000
M  V30 BEGIN CTAB
M  V30 COUNTS 33 34 0 0 0
M  V30 BEGIN ATOM
M  V30 1 O -4.1889 -0.6314 -1.3421 0
M  V30 2 C -3.1029 -0.2611 -0.8124 0
M  V30 3 N -1.9722 -0.1073 -1.5976 0
M  V30 4 N -3.0567 -0.0233 0.5443 0
M  V30 5 C -0.767 0.2237 -1.0207 0
M  V30 6 C -2.041 -0.382 -3.0427 0
M  V30 7 C -1.858 0.3131 1.093 0
M  V30 8 C -4.2431 -0.211 1.3901 0
M  V30 9 O 0.2827 0.3181 -1.7135 0
M  V30 10 C -0.7329 0.4435 0.3522 0
M  V30 11 N -1.599 0.5204 2.3996 0
M  V30 12 N 0.29 0.7563 1.1695 0
M  V30 13 C -0.2676 0.787 2.4053 0
M  V30 14 C 1.7092 0.9244 0.8564 0
M  V30 15 C 2.3986 -0.4435 0.7787 0
M  V30 16 C 3.9085 -0.3303 0.5218 0
M  V30 17 C 4.2314 0.1102 -0.9057 0
M  V30 18 H -3.032 -0.0987 -3.4577 0
M  V30 19 H -1.2868 0.2102 -3.6037 0
M  V30 20 H -1.8639 -1.4629 -3.2248 0
M  V30 21 H -4.1669 0.3782 2.329 0
M  V30 22 H -4.3516 -1.286 1.6453 0
M  V30 23 H -5.1585 0.135 0.8642 0
M  V30 24 H 0.2906 0.9896 3.3102 0
M  V30 25 H 2.1916 1.5378 1.649 0
M  V30 26 H 1.8162 1.4793 -0.0976 0
M  V30 27 H 1.9263 -1.0648 -0.0126 0
M  V30 28 H 2.2488 -0.968 1.7476 0
M  V30 29 H 4.3685 -1.3282 0.6897 0
M  V30 30 H 4.3689 0.3778 1.2447 0
M  V30 31 H 3.7373 -0.5598 -1.6409 0
M  V30 32 H 5.329 0.0625 -1.0667 0
M  V30 33 H 3.9027 1.1557 -1.0794 0
M  V30 END ATOM
M  V30 BEGIN BOND
M  V30 1 2 1 2
M  V30 2 1 2 3
M  V30 3 1 2 4
M  V30 4 1 3 5
M  V30 5 1 3 6
M  V30 6 1 4 7
M  V30 7 1 4 8
M  V30 8 2 5 9
M  V30 9 1 5 10
M  V30 10 1 7 11
M  V30 11 1 10 12
M  V30 12 2 11 13
M  V30 13 1 12 14
M  V30 14 1 14 15
M  V30 15 1 15 16
M  V30 16 1 16 17
M  V30 17 2 7 10
M  V30 18 1 12 13
M  V30 19 1 6 18
M  V30 20 1 6 19
M  V30 21 1 6 20
M  V30 22 1 8 21
M  V30 23 1 8 22
M  V30 24 1 8 23
M  V30 25 1 13 24
M  V30 26 1 14 25
M  V30 27 1 14 26
M  V30 28 1 15 27
M  V30 29 1 15 28
M  V30 30 1 16 29
M  V30 31 1 16 30
M  V30 32 1 17 31
M  V30 33 1 17 32
M  V30 34 1 17 33
M  V30 END BOND
M  V30 END CTAB
M  END
>  <Structure No>
4168

>  <LogS>
-1.8069

>  <MMFF94 Energy>
-125.65

$$$$
Compound 4169
Actelion Java MolfileCreator 2.0

  0  0  0  0  0  0              0 V3000
M  V30 BEGIN CTAB
M  V30 COUNTS 26 28 0 0 0
M  V30 BEGIN ATOM
M  V30 1 O 1.6923 3.0639 0.3221 0
M  V30 2 C 1.3136 1.8683 0.1976 0
M  V30 3 O 0.0132 1.5952 0.2108 0
M  V30 4 C 2.246 0.8309 0.0462 0
M  V30 5 C -0.4608 0.3571 0.0846 0
M  V30 6 C 1.7429 -0.4765 -0.0868 0
M  V30 7 C 3.6349 1.0488 0.0237 0
M  V30 8 N 0.4029 -0.6838 -0.0647 0
M  V30 9 C -1.923 0.1192 0.1075 0
M  V30 10 C 2.6223 -1.5541 -0.241 0
M  V30 11 C 4.5075 -0.0335 -0.1307 0
M  V30 12 C -2.8151 1.1971 0.2622 0
M  V30 13 C -2.4452 -1.1822 -0.0242 0
M  V30 14 C 4.0027 -1.3313 -0.2628 0
M  V30 15 C -4.1959 0.9765 0.2843 0
M  V30 16 C -3.8269 -1.3964 -0.0015 0
M  V30 17 C -4.7012 -0.3184 0.1526 0
M  V30 18 H 4.0444 2.0463 0.1245 0
M  V30 19 H 2.2393 -2.562 -0.3439 0
M  V30 20 H 5.5767 0.1335 -0.1481 0
M  V30 21 H -2.4479 2.2103 0.3663 0
M  V30 22 H -1.789 -2.0348 -0.1449 0
M  V30 23 H 4.6822 -2.1652 -0.382 0
M  V30 24 H -4.8746 1.8111 0.4036 0
M  V30 25 H -4.2199 -2.3998 -0.1034 0
M  V30 26 H -5.7704 -0.4868 0.17 0
M  V30 END ATOM
M  V30 BEGIN BOND
M  V30 1 2 1 2
M  V30 2 1 2 3
M  V30 3 1 2 4
M  V30 4 1 3 5
M  V30 5 2 4 6
M  V30 6 1 4 7
M  V30 7 2 5 8
M  V30 8 1 5 9
M  V30 9 1 6 10
M  V30 10 2 7 11
M  V30 11 2 9 12
M  V30 12 1 9 13
M  V30 13 2 10 14
M  V30 14 1 12 15
M  V30 15 2 13 16
M  V30 16 2 15 17
M  V30 17 1 6 8
M  V30 18 1 11 14
M  V30 19 1 16 17
M  V30 20 1 7 18
M  V30 21 1 10 19
M  V30 22 1 11 20
M  V30 23 1 12 21
M  V30 24 1 13 22
M  V30 25 1 14 23
M  V30 26 1 15 24
M  V30 27 1 16 25
M  V30 28 1 17 26
M  V30 END BOND
M  V30 END CTAB
M  END
>  <Structure No>
4169

>  <LogS>
-4.6084

>  <MMFF94 Energy>
42.695

$$$$
Compound 4170
Actelion Java MolfileCreator 2.0

  0  0  0  0  0  0              0 V3000
M  V30 BEGIN CTAB
M  V30 COUNTS 23 26 0 0 0
M  V30 BEGIN ATOM
M  V30 1 Cl -3.2913 0.5637 2.068 0
M  V30 2 C -2.0704 0.4294 0.808 0
M  V30 3 C -1.846 1.3284 -0.1631 0
M  V30 4 C -1.1429 -0.7501 0.5445 0 CFG=1
M  V30 5 Cl -2.7165 2.8385 -0.3988 0
M  V30 6 C -0.7637 0.7436 -1.0491 0 CFG=1
M  V30 7 Cl -1.6863 -2.2568 1.3427 0
M  V30 8 C -1.2042 -0.7305 -0.9907 0
M  V30 9 C 0.2864 -0.2098 0.9232 0 CFG=2
M  V30 10 Cl -0.6501 1.4641 -2.6809 0
M  V30 11 C 0.5263 0.8482 -0.171 0 CFG=1
M  V30 12 Cl -0.2102 -1.9255 -1.8661 0
M  V30 13 Cl -2.8713 -1.0096 -1.65 0
M  V30 14 C 1.5639 -1.0839 0.9575 0 CFG=1
M  V30 15 C 1.8986 0.6112 -0.8074 0 CFG=1
M  V30 16 Cl 1.381 -2.8447 0.7145 0
M  V30 17 C 2.5439 -0.4801 -0.0472 0 CFG=2
M  V30 18 O 2.1411 -0.6491 -1.3821 0
M  V30 19 H 0.2173 0.297 1.9154 0
M  V30 20 H 0.5826 1.8604 0.2939 0
M  V30 21 H 2.0302 -0.9713 1.9603 0
M  V30 22 H 2.576 1.4278 -1.1332 0
M  V30 23 H 3.646 -0.4701 0.0846 0
M  V30 END ATOM
M  V30 BEGIN BOND
M  V30 1 1 1 2
M  V30 2 2 2 3
M  V30 3 1 2 4
M  V30 4 1 3 5
M  V30 5 1 3 6
M  V30 6 1 4 7
M  V30 7 1 4 8
M  V30 8 1 4 9
M  V30 9 1 6 10
M  V30 10 1 6 11
M  V30 11 1 8 12
M  V30 12 1 8 13
M  V30 13 1 9 14
M  V30 14 1 11 15
M  V30 15 1 14 16
M  V30 16 1 14 17
M  V30 17 1 15 18
M  V30 18 1 6 8
M  V30 19 1 9 11
M  V30 20 1 15 17
M  V30 21 1 17 18
M  V30 22 1 9 19
M  V30 23 1 11 20
M  V30 24 1 14 21
M  V30 25 1 15 22
M  V30 26 1 17 23
M  V30 END BOND
M  V30 BEGIN COLLECTION
M  V30 MDLV30/STEABS ATOMS=(7 4 6 9 11 14 15 17)
M  V30 END COLLECTION
M  V30 END CTAB
M  END
>  <Structure No>
4170

>  <LogS>
-6.2893

>  <MMFF94 Energy>
103.08

$$$$
Compound 4171
Actelion Java MolfileCreator 2.0

  0  0  0  0  0  0              0 V3000
M  V30 BEGIN CTAB
M  V30 COUNTS 25 25 0 0 0
M  V30 BEGIN ATOM
M  V30 1 O -1.6564 -2.4025 -0.8279 0
M  V30 2 N -0.5073 -2.5371 -0.3601 0 CHG=1
M  V30 3 O 0.002 -3.8075 -0.2167 0 CHG=-1
M  V30 4 C 0.3351 -1.3918 -0.1295 0
M  V30 5 C -0.2011 -0.1401 0.2622 0
M  V30 6 C 1.7198 -1.5185 -0.3203 0
M  V30 7 N -1.614 0.0057 0.4691 0
M  V30 8 C 0.6649 0.9616 0.4668 0
M  V30 9 C 2.5789 -0.4237 -0.1547 0
M  V30 10 C -2.4236 0.7915 -0.4599 0
M  V30 11 N 0.1733 2.225 0.9502 0 CHG=1
M  V30 12 C 2.04 0.8113 0.2337 0
M  V30 13 N 3.9948 -0.5705 -0.3744 0 CHG=1
M  V30 14 C -3.6594 1.2816 0.223 0
M  V30 15 O -0.7743 2.2701 1.7614 0
M  V30 16 O 0.8479 3.3876 0.6554 0 CHG=-1
M  V30 17 O 4.7659 0.4016 -0.2343 0
M  V30 18 O 4.5236 -1.7858 -0.745 0 CHG=-1
M  V30 19 O -3.6891 2.4325 0.7326 0
M  V30 20 O -4.7654 0.4492 0.3377 0 CHG=-1
M  V30 21 H 2.126 -2.4736 -0.6268 0
M  V30 22 H -2.0988 -0.7182 1.0472 0
M  V30 23 H -2.7111 0.1555 -1.3235 0
M  V30 24 H -1.8438 1.6562 -0.8497 0
M  V30 25 H 2.6986 1.6562 0.3891 0
M  V30 END ATOM
M  V30 BEGIN BOND
M  V30 1 2 1 2
M  V30 2 1 2 3
M  V30 3 1 2 4
M  V30 4 2 4 5
M  V30 5 1 4 6
M  V30 6 1 5 7
M  V30 7 1 5 8
M  V30 8 2 6 9
M  V30 9 1 7 10
M  V30 10 1 8 11
M  V30 11 2 8 12
M  V30 12 1 9 13
M  V30 13 1 10 14
M  V30 14 2 11 15
M  V30 15 1 11 16
M  V30 16 2 13 17
M  V30 17 1 13 18
M  V30 18 2 14 19
M  V30 19 1 14 20
M  V30 20 1 9 12
M  V30 21 1 6 21
M  V30 22 1 7 22
M  V30 23 1 10 23
M  V30 24 1 10 24
M  V30 25 1 12 25
M  V30 END BOND
M  V30 END CTAB
M  END
>  <Structure No>
4171

>  <LogS>
-2.3922

>  <MMFF94 Energy>
188.73

$$$$
Compound 4172
Actelion Java MolfileCreator 2.0

  0  0  0  0  0  0              0 V3000
M  V30 BEGIN CTAB
M  V30 COUNTS 42 42 0 0 0
M  V30 BEGIN ATOM
M  V30 1 O 2.2111 -0.4734 -3.318 0
M  V30 2 C 1.9115 -0.3394 -2.0992 0
M  V30 3 O 0.5754 -0.1769 -1.7206 0
M  V30 4 C 2.9699 -0.3525 -1.0655 0
M  V30 5 C -0.4968 -0.1417 -2.6572 0
M  V30 6 C 4.3177 -0.5222 -1.4197 0
M  V30 7 C 2.6372 -0.1936 0.2878 0
M  V30 8 C -1.8213 0.0482 -1.9191 0
M  V30 9 C 5.3231 -0.5348 -0.446 0
M  V30 10 C 3.6285 -0.2038 1.2727 0
M  V30 11 C -1.8943 1.4216 -1.2328 0
M  V30 12 O 6.6401 -0.7087 -0.8769 0
M  V30 13 C 4.979 -0.3741 0.9176 0
M  V30 14 O 3.2494 -0.0421 2.6056 0
M  V30 15 C -3.1984 1.607 -0.4284 0
M  V30 16 O 5.9381 -0.3782 1.9339 0
M  V30 17 C -3.0087 1.4697 1.0944 0
M  V30 18 C -2.5945 0.0654 1.5732 0
M  V30 19 C -3.6384 -1.0363 1.3159 0
M  V30 20 C -4.9333 -0.8257 2.0996 0
M  V30 21 H -0.529 -1.1017 -3.2166 0
M  V30 22 H -0.3421 0.688 -3.3812 0
M  V30 23 H 4.5975 -0.6463 -2.4587 0
M  V30 24 H 1.6049 -0.0602 0.5881 0
M  V30 25 H -2.6536 -0.0397 -2.651 0
M  V30 26 H -1.9319 -0.7666 -1.175 0
M  V30 27 H -1.0075 1.5739 -0.5794 0
M  V30 28 H -1.8509 2.2039 -2.0226 0
M  V30 29 H 7.4397 -0.7333 -0.2611 0
M  V30 30 H 3.9214 -0.0407 3.3633 0
M  V30 31 H -3.5699 2.6384 -0.6149 0
M  V30 32 H -4.0015 0.9299 -0.7882 0
M  V30 33 H 6.9288 -0.4935 1.779 0
M  V30 34 H -3.9466 1.7753 1.6034 0
M  V30 35 H -2.2314 2.194 1.4225 0
M  V30 36 H -2.3928 0.1144 2.6656 0
M  V30 37 H -1.6348 -0.2219 1.0952 0
M  V30 38 H -3.87 -1.121 0.2347 0
M  V30 39 H -3.198 -2.007 1.6303 0
M  V30 40 H -4.7161 -0.6687 3.1774 0
M  V30 41 H -5.5768 -1.7246 1.9964 0
M  V30 42 H -5.4947 0.0449 1.7021 0
M  V30 END ATOM
M  V30 BEGIN BOND
M  V30 1 2 1 2
M  V30 2 1 2 3
M  V30 3 1 2 4
M  V30 4 1 3 5
M  V30 5 2 4 6
M  V30 6 1 4 7
M  V30 7 1 5 8
M  V30 8 1 6 9
M  V30 9 2 7 10
M  V30 10 1 8 11
M  V30 11 1 9 12
M  V30 12 2 9 13
M  V30 13 1 10 14
M  V30 14 1 11 15
M  V30 15 1 13 16
M  V30 16 1 15 17
M  V30 17 1 17 18
M  V30 18 1 18 19
M  V30 19 1 19 20
M  V30 20 1 10 13
M  V30 21 1 5 21
M  V30 22 1 5 22
M  V30 23 1 6 23
M  V30 24 1 7 24
M  V30 25 1 8 25
M  V30 26 1 8 26
M  V30 27 1 11 27
M  V30 28 1 11 28
M  V30 29 1 12 29
M  V30 30 1 14 30
M  V30 31 1 15 31
M  V30 32 1 15 32
M  V30 33 1 16 33
M  V30 34 1 17 34
M  V30 35 1 17 35
M  V30 36 1 18 36
M  V30 37 1 18 37
M  V30 38 1 19 38
M  V30 39 1 19 39
M  V30 40 1 20 40
M  V30 41 1 20 41
M  V30 42 1 20 42
M  V30 END BOND
M  V30 END CTAB
M  END
>  <Structure No>
4172

>  <LogS>
-3.8945

>  <MMFF94 Energy>
3.5896

$$$$
Compound 4173
Actelion Java MolfileCreator 2.0

  0  0  0  0  0  0              0 V3000
M  V30 BEGIN CTAB
M  V30 COUNTS 8 8 0 0 0
M  V30 BEGIN ATOM
M  V30 1 S -2.5643 -1.0069 -0.4576 0
M  V30 2 C -1.0128 -0.4957 -0.4211 0
M  V30 3 S 0.3286 -1.5123 -0.4688 0
M  V30 4 N -0.6486 0.8029 -0.3483 0
M  V30 5 C 1.3546 -0.1766 -0.3904 0
M  V30 6 N 0.6697 0.9858 -0.331 0 CHG=-1
M  V30 7 S 2.9845 -0.2615 -0.3859 0
M  V30 8 H -1.3233 1.5991 -0.3087 0
M  V30 END ATOM
M  V30 BEGIN BOND
M  V30 1 2 1 2
M  V30 2 1 2 3
M  V30 3 1 2 4
M  V30 4 1 3 5
M  V30 5 1 4 6
M  V30 6 2 5 7
M  V30 7 1 5 6
M  V30 8 1 4 8
M  V30 END BOND
M  V30 END CTAB
M  END
>  <Structure No>
4173

>  <LogS>
-0.7552

>  <MMFF94 Energy>
-1.8991

$$$$
Compound 4174
Actelion Java MolfileCreator 2.0

  0  0  0  0  0  0              0 V3000
M  V30 BEGIN CTAB
M  V30 COUNTS 19 20 0 0 0
M  V30 BEGIN ATOM
M  V30 1 O -4.1645 -1.7602 -0.7998 0 CHG=-1
M  V30 2 C -3.134 -0.8952 -0.4567 0
M  V30 3 C -3.2608 0.3883 0.0177 0
M  V30 4 C -1.7875 -1.1551 -0.5192 0
M  V30 5 N -2.0269 0.8844 0.2359 0
M  V30 6 N -1.1393 -0.0481 -0.0914 0
M  V30 7 C 0.2874 0.1371 0.0237 0
M  V30 8 C 1.1951 -0.773 -0.5555 0
M  V30 9 C 0.7982 1.2514 0.7173 0
M  V30 10 C 2.5739 -0.5737 -0.4341 0
M  V30 11 C 2.1778 1.4448 0.8356 0
M  V30 12 C 3.0648 0.5326 0.2615 0
M  V30 13 H -4.1822 0.926 0.1969 0
M  V30 14 H -1.3317 -2.0834 -0.8338 0
M  V30 15 H 0.8494 -1.631 -1.1136 0
M  V30 16 H 0.1299 1.9702 1.1739 0
M  V30 17 H 3.2631 -1.2771 -0.8836 0
M  V30 18 H 2.5591 2.3031 1.3738 0
M  V30 19 H 4.1325 0.6845 0.3535 0
M  V30 END ATOM
M  V30 BEGIN BOND
M  V30 1 1 1 2
M  V30 2 1 2 3
M  V30 3 2 2 4
M  V30 4 2 3 5
M  V30 5 1 4 6
M  V30 6 1 6 7
M  V30 7 2 7 8
M  V30 8 1 7 9
M  V30 9 1 8 10
M  V30 10 2 9 11
M  V30 11 2 10 12
M  V30 12 1 5 6
M  V30 13 1 11 12
M  V30 14 1 3 13
M  V30 15 1 4 14
M  V30 16 1 8 15
M  V30 17 1 9 16
M  V30 18 1 10 17
M  V30 19 1 11 18
M  V30 20 1 12 19
M  V30 END BOND
M  V30 END CTAB
M  END
>  <Structure No>
4174

>  <LogS>
-1.9616

>  <MMFF94 Energy>
27.542

$$$$
Compound 4175
Actelion Java MolfileCreator 2.0

  0  0  0  0  0  0              0 V3000
M  V30 BEGIN CTAB
M  V30 COUNTS 33 33 0 0 0
M  V30 BEGIN ATOM
M  V30 1 C -2.3434 0.2341 1.0149 0
M  V30 2 C -2.9208 -0.9767 0.5959 0
M  V30 3 C -3.0208 1.4405 0.7692 0
M  V30 4 C -0.9975 0.2452 1.6945 0
M  V30 5 C -4.1599 -0.979 -0.0522 0
M  V30 6 C -4.2599 1.4335 0.121 0
M  V30 7 C 0.1277 0.6772 0.7427 0
M  V30 8 C -4.8294 0.2248 -0.2887 0
M  V30 9 C 0.4082 -0.3747 -0.3437 0
M  V30 10 C 1.4594 0.0874 -1.3691 0
M  V30 11 C 2.8602 0.3588 -0.7907 0
M  V30 12 C 3.4962 -0.8847 -0.1529 0
M  V30 13 C 4.9489 -0.6221 0.234 0
M  V30 14 H -2.4102 -1.9164 0.7661 0
M  V30 15 H -2.5881 2.3841 1.0782 0
M  V30 16 H -0.764 -0.7544 2.1226 0
M  V30 17 H -1.034 0.9557 2.5491 0
M  V30 18 H -4.6003 -1.9141 -0.3731 0
M  V30 19 H -4.778 2.3655 -0.0649 0
M  V30 20 H -0.1298 1.6516 0.2724 0
M  V30 21 H 1.0426 0.8244 1.3545 0
M  V30 22 H -5.7881 0.2212 -0.7911 0
M  V30 23 H -0.5292 -0.5763 -0.9044 0
M  V30 24 H 0.7187 -1.3328 0.1237 0
M  V30 25 H 1.544 -0.6882 -2.1612 0
M  V30 26 H 1.0951 1.0146 -1.8632 0
M  V30 27 H 3.5065 0.7031 -1.6278 0
M  V30 28 H 2.8199 1.1874 -0.0523 0
M  V30 29 H 2.9381 -1.168 0.7644 0
M  V30 30 H 3.4626 -1.7353 -0.868 0
M  V30 31 H 5.3782 -1.5312 0.7054 0
M  V30 32 H 5.5498 -0.3722 -0.6662 0
M  V30 33 H 5.0087 0.2167 0.96 0
M  V30 END ATOM
M  V30 BEGIN BOND
M  V30 1 2 1 2
M  V30 2 1 1 3
M  V30 3 1 1 4
M  V30 4 1 2 5
M  V30 5 2 3 6
M  V30 6 1 4 7
M  V30 7 2 5 8
M  V30 8 1 7 9
M  V30 9 1 9 10
M  V30 10 1 10 11
M  V30 11 1 11 12
M  V30 12 1 12 13
M  V30 13 1 6 8
M  V30 14 1 2 14
M  V30 15 1 3 15
M  V30 16 1 4 16
M  V30 17 1 4 17
M  V30 18 1 5 18
M  V30 19 1 6 19
M  V30 20 1 7 20
M  V30 21 1 7 21
M  V30 22 1 8 22
M  V30 23 1 9 23
M  V30 24 1 9 24
M  V30 25 1 10 25
M  V30 26 1 10 26
M  V30 27 1 11 27
M  V30 28 1 11 28
M  V30 29 1 12 29
M  V30 30 1 12 30
M  V30 31 1 13 31
M  V30 32 1 13 32
M  V30 33 1 13 33
M  V30 END BOND
M  V30 END CTAB
M  END
>  <Structure No>
4175

>  <LogS>
-5.5959

>  <MMFF94 Energy>
18.874

$$$$
Compound 4176
Actelion Java MolfileCreator 2.0

  0  0  0  0  0  0              0 V3000
M  V30 BEGIN CTAB
M  V30 COUNTS 34 34 0 0 0
M  V30 BEGIN ATOM
M  V30 1 O 2.3636 -0.8661 2.2059 0
M  V30 2 C 2.1922 -0.376 1.0555 0
M  V30 3 O 0.9026 -0.0589 0.615 0
M  V30 4 C 3.3525 -0.1353 0.1697 0
M  V30 5 C -0.257 -0.2649 1.4148 0
M  V30 6 C 4.6576 -0.4469 0.5939 0
M  V30 7 C 3.1648 0.4104 -1.1127 0
M  V30 8 C -1.4943 0.1827 0.6393 0
M  V30 9 C 5.7497 -0.2168 -0.2483 0
M  V30 10 C 4.2595 0.639 -1.9521 0
M  V30 11 C -2.772 -0.0355 1.4631 0
M  V30 12 C 5.5549 0.3258 -1.5216 0
M  V30 13 C -4.025 0.5227 0.7702 0
M  V30 14 O 6.6526 0.5494 -2.3496 0
M  V30 15 C -4.4408 -0.3041 -0.4551 0
M  V30 16 C -5.7587 0.2 -1.0362 0
M  V30 17 H -0.3444 -1.3443 1.6686 0
M  V30 18 H -0.1682 0.3253 2.3534 0
M  V30 19 H 4.8354 -0.8681 1.5756 0
M  V30 20 H 2.1735 0.6611 -1.4688 0
M  V30 21 H -1.3906 1.2606 0.3862 0
M  V30 22 H -1.5476 -0.3993 -0.3049 0
M  V30 23 H 6.7489 -0.4606 0.0892 0
M  V30 24 H 4.0995 1.0597 -2.9366 0
M  V30 25 H -2.6616 0.4838 2.4405 0
M  V30 26 H -2.908 -1.1194 1.6716 0
M  V30 27 H -3.8518 1.5804 0.4729 0
M  V30 28 H -4.8572 0.5128 1.5083 0
M  V30 29 H 6.5443 0.9414 -3.2777 0
M  V30 30 H -3.6622 -0.2356 -1.2438 0
M  V30 31 H -4.561 -1.371 -0.1672 0
M  V30 32 H -6.5718 0.1113 -0.2844 0
M  V30 33 H -6.03 -0.408 -1.9249 0
M  V30 34 H -5.6615 1.2617 -1.3483 0
M  V30 END ATOM
M  V30 BEGIN BOND
M  V30 1 2 1 2
M  V30 2 1 2 3
M  V30 3 1 2 4
M  V30 4 1 3 5
M  V30 5 2 4 6
M  V30 6 1 4 7
M  V30 7 1 5 8
M  V30 8 1 6 9
M  V30 9 2 7 10
M  V30 10 1 8 11
M  V30 11 2 9 12
M  V30 12 1 11 13
M  V30 13 1 12 14
M  V30 14 1 13 15
M  V30 15 1 15 16
M  V30 16 1 10 12
M  V30 17 1 5 17
M  V30 18 1 5 18
M  V30 19 1 6 19
M  V30 20 1 7 20
M  V30 21 1 8 21
M  V30 22 1 8 22
M  V30 23 1 9 23
M  V30 24 1 10 24
M  V30 25 1 11 25
M  V30 26 1 11 26
M  V30 27 1 13 27
M  V30 28 1 13 28
M  V30 29 1 14 29
M  V30 30 1 15 30
M  V30 31 1 15 31
M  V30 32 1 16 32
M  V30 33 1 16 33
M  V30 34 1 16 34
M  V30 END BOND
M  V30 END CTAB
M  END
>  <Structure No>
4176

>  <LogS>
-3.949

>  <MMFF94 Energy>
15.704

$$$$
Compound 4177
Actelion Java MolfileCreator 2.0

  0  0  0  0  0  0              0 V3000
M  V30 BEGIN CTAB
M  V30 COUNTS 37 37 0 0 0
M  V30 BEGIN ATOM
M  V30 1 O 1.4176 -1.1025 -1.1025 0
M  V30 2 C 2.0614 -0.6151 -0.1322 0
M  V30 3 O 1.4196 -0.3826 1.0911 0
M  V30 4 C 3.4979 -0.2945 -0.2816 0
M  V30 5 C 0.0277 -0.6089 1.305 0
M  V30 6 C 4.2194 0.25 0.7957 0
M  V30 7 C 4.1632 -0.5266 -1.4998 0
M  V30 8 C -0.8012 0.5031 0.6501 0
M  V30 9 C 5.5769 0.555 0.6571 0
M  V30 10 C 5.5208 -0.2203 -1.6344 0
M  V30 11 C -2.2934 0.4189 1.0057 0
M  V30 12 C 6.2311 0.3213 -0.5557 0
M  V30 13 C -2.9851 -0.7998 0.3697 0
M  V30 14 O 7.5838 0.6302 -0.6787 0
M  V30 15 C -4.5165 -0.7637 0.5576 0
M  V30 16 C -5.2795 -0.31 -0.6983 0
M  V30 17 C -5.0251 1.1522 -1.0573 0
M  V30 18 H -0.2558 -1.6061 0.9058 0
M  V30 19 H -0.1585 -0.6088 2.3999 0
M  V30 20 H 3.7367 0.4413 1.7459 0
M  V30 21 H 3.6358 -0.9442 -2.3482 0
M  V30 22 H -0.6768 0.4727 -0.4535 0
M  V30 23 H -0.4139 1.4837 1.0033 0
M  V30 24 H 6.1214 0.9738 1.4939 0
M  V30 25 H 6.0193 -0.4044 -2.5775 0
M  V30 26 H -2.7802 1.3511 0.6511 0
M  V30 27 H -2.4148 0.3837 2.1107 0
M  V30 28 H -2.5981 -1.7183 0.8609 0
M  V30 29 H -2.7245 -0.8708 -0.709 0
M  V30 30 H 8.0862 0.4727 -1.5444 0
M  V30 31 H -4.8609 -1.7939 0.7965 0
M  V30 32 H -4.802 -0.1291 1.4256 0
M  V30 33 H -5.0093 -0.9562 -1.5614 0
M  V30 34 H -6.3679 -0.4392 -0.5122 0
M  V30 35 H -5.7058 1.4536 -1.8813 0
M  V30 36 H -3.9808 1.2908 -1.4062 0
M  V30 37 H -5.2186 1.8077 -0.1816 0
M  V30 END ATOM
M  V30 BEGIN BOND
M  V30 1 2 1 2
M  V30 2 1 2 3
M  V30 3 1 2 4
M  V30 4 1 3 5
M  V30 5 2 4 6
M  V30 6 1 4 7
M  V30 7 1 5 8
M  V30 8 1 6 9
M  V30 9 2 7 10
M  V30 10 1 8 11
M  V30 11 2 9 12
M  V30 12 1 11 13
M  V30 13 1 12 14
M  V30 14 1 13 15
M  V30 15 1 15 16
M  V30 16 1 16 17
M  V30 17 1 10 12
M  V30 18 1 5 18
M  V30 19 1 5 19
M  V30 20 1 6 20
M  V30 21 1 7 21
M  V30 22 1 8 22
M  V30 23 1 8 23
M  V30 24 1 9 24
M  V30 25 1 10 25
M  V30 26 1 11 26
M  V30 27 1 11 27
M  V30 28 1 13 28
M  V30 29 1 13 29
M  V30 30 1 14 30
M  V30 31 1 15 31
M  V30 32 1 15 32
M  V30 33 1 16 33
M  V30 34 1 16 34
M  V30 35 1 17 35
M  V30 36 1 17 36
M  V30 37 1 17 37
M  V30 END BOND
M  V30 END CTAB
M  END
>  <Structure No>
4177

>  <LogS>
-4.0725

>  <MMFF94 Energy>
15.167

$$$$
Compound 4178
Actelion Java MolfileCreator 2.0

  0  0  0  0  0  0              0 V3000
M  V30 BEGIN CTAB
M  V30 COUNTS 29 29 0 0 0
M  V30 BEGIN ATOM
M  V30 1 Cl 2.5818 -2.754 -1.2903 0
M  V30 2 C 0.8819 -3.2044 -1.5695 0
M  V30 3 Cl 0.8011 -4.9499 -1.8945 0
M  V30 4 S -0.1265 -2.8355 -0.094 0
M  V30 5 F 0.3956 -2.5244 -2.6697 0
M  V30 6 N -0.0201 -1.0719 -0.2763 0
M  V30 7 S -1.3007 -0.2547 -1.1236 0
M  V30 8 C 1.0182 -0.3244 0.3885 0
M  V30 9 O -0.8171 0.1342 -2.493 0
M  V30 10 O -2.4796 -1.1784 -1.2673 0
M  V30 11 N -1.7772 1.1699 -0.2335 0
M  V30 12 C 1.5162 0.8668 -0.1721 0
M  V30 13 C 1.5541 -0.7748 1.6099 0
M  V30 14 C -2.317 0.771 1.0724 0
M  V30 15 C -2.7945 1.9038 -0.996 0
M  V30 16 C 2.5243 1.588 0.4745 0
M  V30 17 C 2.5619 -0.0498 2.2527 0
M  V30 18 C 3.0467 1.1304 1.6857 0
M  V30 19 H 1.1392 1.2345 -1.1162 0
M  V30 20 H 1.1845 -1.6776 2.0773 0
M  V30 21 H -1.547 0.2213 1.6533 0
M  V30 22 H -2.5908 1.6724 1.662 0
M  V30 23 H -3.2162 0.1252 0.9615 0
M  V30 24 H -3.1017 2.8172 -0.4422 0
M  V30 25 H -3.6932 1.2755 -1.1846 0
M  V30 26 H -2.3733 2.2366 -1.9683 0
M  V30 27 H 2.9028 2.5012 0.0338 0
M  V30 28 H 2.9652 -0.4022 3.1933 0
M  V30 29 H 3.8271 1.6902 2.1849 0
M  V30 END ATOM
M  V30 BEGIN BOND
M  V30 1 1 1 2
M  V30 2 1 2 3
M  V30 3 1 2 4
M  V30 4 1 2 5
M  V30 5 1 4 6
M  V30 6 1 6 7
M  V30 7 1 6 8
M  V30 8 2 7 9
M  V30 9 2 7 10
M  V30 10 1 7 11
M  V30 11 2 8 12
M  V30 12 1 8 13
M  V30 13 1 11 14
M  V30 14 1 11 15
M  V30 15 1 12 16
M  V30 16 2 13 17
M  V30 17 2 16 18
M  V30 18 1 17 18
M  V30 19 1 12 19
M  V30 20 1 13 20
M  V30 21 1 14 21
M  V30 22 1 14 22
M  V30 23 1 14 23
M  V30 24 1 15 24
M  V30 25 1 15 25
M  V30 26 1 15 26
M  V30 27 1 16 27
M  V30 28 1 17 28
M  V30 29 1 18 29
M  V30 END BOND
M  V30 END CTAB
M  END
>  <Structure No>
4178

>  <LogS>
-5.4088

>  <MMFF94 Energy>
-50.707

$$$$
Compound 4179
Actelion Java MolfileCreator 2.0

  0  0  0  0  0  0              0 V3000
M  V30 BEGIN CTAB
M  V30 COUNTS 68 71 0 0 0
M  V30 BEGIN ATOM
M  V30 1 O 6.5586 -1.6972 2.6681 0
M  V30 2 C 5.5916 -1.5564 1.8734 0
M  V30 3 C 5.7091 -0.6614 0.721 0
M  V30 4 C 4.3419 -2.2789 2.1018 0
M  V30 5 C 4.6874 -0.5049 -0.1356 0
M  V30 6 C 3.319 -2.1443 1.2566 0
M  V30 7 C 3.3684 -1.2619 0.0109 0 CFG=1
M  V30 8 C 4.815 0.4401 -1.295 0
M  V30 9 C 2.1652 -0.2391 0.0011 0 CFG=1
M  V30 10 C 3.2353 -2.237 -1.1853 0
M  V30 11 C 3.7122 1.4838 -1.2054 0
M  V30 12 C 1.7859 0.3769 1.3664 0 CFG=1
M  V30 13 C 2.2785 0.8863 -1.0815 0 CFG=2
M  V30 14 O 2.6778 1.4012 1.726 0
M  V30 15 C 0.3431 0.903 1.2815 0
M  V30 16 C 1.2728 2.0875 -0.8679 0 CFG=2
M  V30 17 C 0.037 1.8492 0.0606 0 CFG=1
M  V30 18 C 0.685 2.5551 -2.2085 0
M  V30 19 C -1.0564 1.3131 -0.9407 0 CFG=1
M  V30 20 C -0.3885 3.2364 0.6405 0
M  V30 21 C -0.7776 2.119 -2.2322 0
M  V30 22 O -0.8113 -0.0384 -1.2622 0
M  V30 23 C -2.5375 1.4893 -0.5291 0
M  V30 24 O -3.3623 1.7627 -1.3902 0
M  V30 25 C -3.0653 1.2616 0.866 0
M  V30 26 O -4.1395 0.324 0.8404 0
M  V30 27 C -3.9678 -1.0625 0.9408 0
M  V30 28 O -2.8285 -1.545 1.1947 0
M  V30 29 C -5.1577 -1.9725 0.704 0
M  V30 30 C -6.378 -1.4303 1.4749 0
M  V30 31 C -5.4683 -1.9933 -0.8028 0
M  V30 32 C -4.8632 -3.4101 1.1838 0
M  V30 33 H 6.6342 -0.1149 0.5819 0
M  V30 34 H 4.2457 -2.9286 2.9629 0
M  V30 35 H 2.4123 -2.7037 1.4566 0
M  V30 36 H 4.7437 -0.1102 -2.2555 0
M  V30 37 H 5.7982 0.9611 -1.2955 0
M  V30 38 H 1.2887 -0.8616 -0.2827 0
M  V30 39 H 2.3326 -2.8783 -1.0751 0
M  V30 40 H 3.1353 -1.7032 -2.151 0
M  V30 41 H 4.1243 -2.9018 -1.2464 0
M  V30 42 H 3.7614 2.1249 -2.1122 0
M  V30 43 H 3.942 2.1383 -0.3363 0
M  V30 44 H 1.7861 -0.4003 2.162 0
M  V30 45 H 2.0536 0.3861 -2.0494 0
M  V30 46 H 2.5374 1.581 2.6924 0
M  V30 47 H -0.3162 0.0139 1.2636 0
M  V30 48 H 0.1092 1.397 2.2513 0
M  V30 49 H 1.8504 2.9418 -0.4453 0
M  V30 50 H 1.2297 2.1584 -3.0924 0
M  V30 51 H 0.7404 3.6651 -2.2725 0
M  V30 52 H 0.4411 3.6794 1.2334 0
M  V30 53 H -1.2535 3.152 1.3262 0
M  V30 54 H -0.6573 3.9579 -0.1585 0
M  V30 55 H -0.9913 1.5129 -3.1403 0
M  V30 56 H -1.4108 3.0334 -2.2857 0
M  V30 57 H -1.2946 -0.6199 -0.623 0
M  V30 58 H -3.4703 2.227 1.2346 0
M  V30 59 H -2.2955 0.942 1.5896 0
M  V30 60 H -6.6628 -0.4193 1.1109 0
M  V30 61 H -7.2552 -2.1005 1.3426 0
M  V30 62 H -6.1527 -1.3614 2.5617 0
M  V30 63 H -5.6865 -0.9674 -1.1742 0
M  V30 64 H -4.6007 -2.3927 -1.3735 0
M  V30 65 H -6.3524 -2.6353 -1.0126 0
M  V30 66 H -5.7475 -4.0654 1.025 0
M  V30 67 H -4.0071 -3.8458 0.6232 0
M  V30 68 H -4.6147 -3.4165 2.2674 0
M  V30 END ATOM
M  V30 BEGIN BOND
M  V30 1 2 1 2
M  V30 2 1 2 3
M  V30 3 1 2 4
M  V30 4 2 3 5
M  V30 5 2 4 6
M  V30 6 1 5 7
M  V30 7 1 5 8
M  V30 8 1 7 9
M  V30 9 1 7 10
M  V30 10 1 8 11
M  V30 11 1 9 12
M  V30 12 1 9 13
M  V30 13 1 12 14
M  V30 14 1 12 15
M  V30 15 1 13 16
M  V30 16 1 15 17
M  V30 17 1 16 18
M  V30 18 1 17 19
M  V30 19 1 17 20
M  V30 20 1 18 21
M  V30 21 1 19 22
M  V30 22 1 19 23
M  V30 23 2 23 24
M  V30 24 1 23 25
M  V30 25 1 25 26
M  V30 26 1 26 27
M  V30 27 2 27 28
M  V30 28 1 27 29
M  V30 29 1 29 30
M  V30 30 1 29 31
M  V30 31 1 29 32
M  V30 32 1 6 7
M  V30 33 1 11 13
M  V30 34 1 16 17
M  V30 35 1 19 21
M  V30 36 1 3 33
M  V30 37 1 4 34
M  V30 38 1 6 35
M  V30 39 1 8 36
M  V30 40 1 8 37
M  V30 41 1 9 38
M  V30 42 1 10 39
M  V30 43 1 10 40
M  V30 44 1 10 41
M  V30 45 1 11 42
M  V30 46 1 11 43
M  V30 47 1 12 44
M  V30 48 1 13 45
M  V30 49 1 14 46
M  V30 50 1 15 47
M  V30 51 1 15 48
M  V30 52 1 16 49
M  V30 53 1 18 50
M  V30 54 1 18 51
M  V30 55 1 20 52
M  V30 56 1 20 53
M  V30 57 1 20 54
M  V30 58 1 21 55
M  V30 59 1 21 56
M  V30 60 1 22 57
M  V30 61 1 25 58
M  V30 62 1 25 59
M  V30 63 1 30 60
M  V30 64 1 30 61
M  V30 65 1 30 62
M  V30 66 1 31 63
M  V30 67 1 31 64
M  V30 68 1 31 65
M  V30 69 1 32 66
M  V30 70 1 32 67
M  V30 71 1 32 68
M  V30 END BOND
M  V30 BEGIN COLLECTION
M  V30 MDLV30/STEABS ATOMS=(7 7 9 12 13 16 17 19)
M  V30 END COLLECTION
M  V30 END CTAB
M  END
>  <Structure No>
4179

>  <LogS>
-4.5835

>  <MMFF94 Energy>
123.89

$$$$
Compound 4180
Actelion Java MolfileCreator 2.0

  0  0  0  0  0  0              0 V3000
M  V30 BEGIN CTAB
M  V30 COUNTS 24 23 0 0 0
M  V30 BEGIN ATOM
M  V30 1 S 3.0002 -0.9723 0.0 0
M  V30 2 C 1.9432 -0.0428 1.1718 0
M  V30 3 C 3.9416 0.4695 -0.5975 0
M  V30 4 C 0.6973 0.5508 0.491 0
M  V30 5 C -0.4597 -0.4592 0.3285 0 CFG=1
M  V30 6 N -1.6841 0.239 -0.0747 0
M  V30 7 C -0.1308 -1.5074 -0.6959 0
M  V30 8 C -2.9807 -0.3639 0.0379 0
M  V30 9 O 0.0051 -2.7104 -0.3497 0
M  V30 10 O 0.028 -1.155 -2.0308 0 CHG=-1
M  V30 11 O -3.1054 -1.5288 0.5039 0
M  V30 12 C -4.1915 0.3825 -0.4186 0
M  V30 13 H 1.64 -0.7254 1.9936 0
M  V30 14 H 2.533 0.7747 1.6388 0
M  V30 15 H 4.6592 0.1338 -1.3735 0
M  V30 16 H 3.2611 1.2223 -1.0445 0
M  V30 17 H 4.51 0.927 0.2387 0
M  V30 18 H 0.3342 1.3825 1.1344 0
M  V30 19 H 0.9626 0.9974 -0.4909 0
M  V30 20 H -0.6387 -0.9422 1.3156 0
M  V30 21 H -1.6198 1.1999 -0.4826 0
M  V30 22 H -4.155 0.5073 -1.5207 0
M  V30 23 H -4.2164 1.3828 0.062 0
M  V30 24 H -5.1167 -0.1687 -0.1467 0
M  V30 END ATOM
M  V30 BEGIN BOND
M  V30 1 1 1 2
M  V30 2 1 1 3
M  V30 3 1 2 4
M  V30 4 1 4 5
M  V30 5 1 5 6
M  V30 6 1 5 7
M  V30 7 1 6 8
M  V30 8 2 7 9
M  V30 9 1 7 10
M  V30 10 2 8 11
M  V30 11 1 8 12
M  V30 12 1 2 13
M  V30 13 1 2 14
M  V30 14 1 3 15
M  V30 15 1 3 16
M  V30 16 1 3 17
M  V30 17 1 4 18
M  V30 18 1 4 19
M  V30 19 1 5 20
M  V30 20 1 6 21
M  V30 21 1 12 22
M  V30 22 1 12 23
M  V30 23 1 12 24
M  V30 END BOND
M  V30 BEGIN COLLECTION
M  V30 MDLV30/STEABS ATOMS=(1 5)
M  V30 END COLLECTION
M  V30 END CTAB
M  END
>  <Structure No>
4180

>  <LogS>
-0.3216

>  <MMFF94 Energy>
27

$$$$
Compound 4181
Actelion Java MolfileCreator 2.0

  0  0  0  0  0  0              0 V3000
M  V30 BEGIN CTAB
M  V30 COUNTS 25 24 0 0 0
M  V30 BEGIN ATOM
M  V30 1 O -1.941 2.2519 0.0775 0
M  V30 2 C -2.1123 1.089 -0.3742 0
M  V30 3 O -2.3458 0.9092 -1.7324 0 CHG=-1
M  V30 4 C -2.053 -0.0975 0.5497 0 CFG=1
M  V30 5 N -3.3042 -0.8604 0.4613 0 CHG=1
M  V30 6 C -0.8442 -1.0063 0.2255 0
M  V30 7 C 0.5203 -0.3585 0.5444 0
M  V30 8 C 1.1518 0.3228 -0.6822 0
M  V30 9 C 2.4588 1.0559 -0.342 0
M  V30 10 C 3.6085 0.1009 -0.0224 0
M  V30 11 H -1.9476 0.2682 1.5971 0
M  V30 12 H -3.299 -1.6341 1.1651 0
M  V30 13 H -3.4216 -1.2689 -0.4948 0
M  V30 14 H -4.1175 -0.2361 0.6711 0
M  V30 15 H -0.8846 -1.3435 -0.8339 0
M  V30 16 H -0.932 -1.9225 0.8503 0
M  V30 17 H 0.4205 0.3699 1.3785 0
M  V30 18 H 1.2051 -1.1622 0.89 0
M  V30 19 H 0.4466 1.0716 -1.0958 0
M  V30 20 H 1.3411 -0.4314 -1.477 0
M  V30 21 H 2.2986 1.7466 0.5142 0
M  V30 22 H 2.7533 1.6722 -1.219 0
M  V30 23 H 3.744 -0.6339 -0.844 0
M  V30 24 H 4.5486 0.6811 0.0903 0
M  V30 25 H 3.4203 -0.4371 0.9294 0
M  V30 END ATOM
M  V30 BEGIN BOND
M  V30 1 2 1 2
M  V30 2 1 2 3
M  V30 3 1 2 4
M  V30 4 1 4 5
M  V30 5 1 4 6
M  V30 6 1 6 7
M  V30 7 1 7 8
M  V30 8 1 8 9
M  V30 9 1 9 10
M  V30 10 1 4 11
M  V30 11 1 5 12
M  V30 12 1 5 13
M  V30 13 1 5 14
M  V30 14 1 6 15
M  V30 15 1 6 16
M  V30 16 1 7 17
M  V30 17 1 7 18
M  V30 18 1 8 19
M  V30 19 1 8 20
M  V30 20 1 9 21
M  V30 21 1 9 22
M  V30 22 1 10 23
M  V30 23 1 10 24
M  V30 24 1 10 25
M  V30 END BOND
M  V30 BEGIN COLLECTION
M  V30 MDLV30/STEABS ATOMS=(1 4)
M  V30 END COLLECTION
M  V30 END CTAB
M  END
>  <Structure No>
4181

>  <LogS>
-0.94

>  <MMFF94 Energy>
-10.059

$$$$
Compound 4182
Actelion Java MolfileCreator 2.0

  0  0  0  0  0  0              0 V3000
M  V30 BEGIN CTAB
M  V30 COUNTS 19 18 0 0 0
M  V30 BEGIN ATOM
M  V30 1 O 0.0775 -2.7941 -0.6203 0
M  V30 2 N -0.5498 -1.7367 -0.838 0
M  V30 3 N -0.1734 -0.5222 -0.2368 0
M  V30 4 C 1.005 -0.4467 0.6348 0
M  V30 5 C -0.9643 0.6748 -0.5261 0
M  V30 6 C 2.2826 -0.3916 -0.203 0
M  V30 7 C -2.3161 0.6006 0.1837 0
M  V30 8 O 3.4078 -0.3363 0.6307 0
M  V30 9 O -3.0795 1.74 -0.1047 0
M  V30 10 H 1.03 -1.3289 1.3101 0
M  V30 11 H 0.9511 0.4569 1.2807 0
M  V30 12 H -1.1205 0.7552 -1.6236 0
M  V30 13 H -0.4259 1.5904 -0.1965 0
M  V30 14 H 2.2575 0.4927 -0.88 0
M  V30 15 H 2.3553 -1.3028 -0.8328 0
M  V30 16 H -2.1657 0.5019 1.2832 0
M  V30 17 H -2.8712 -0.2943 -0.1688 0
M  V30 18 H 3.464 0.5948 0.9709 0
M  V30 19 H -2.711 2.4769 0.4494 0
M  V30 END ATOM
M  V30 BEGIN BOND
M  V30 1 2 1 2
M  V30 2 1 2 3
M  V30 3 1 3 4
M  V30 4 1 3 5
M  V30 5 1 4 6
M  V30 6 1 5 7
M  V30 7 1 6 8
M  V30 8 1 7 9
M  V30 9 1 4 10
M  V30 10 1 4 11
M  V30 11 1 5 12
M  V30 12 1 5 13
M  V30 13 1 6 14
M  V30 14 1 6 15
M  V30 15 1 7 16
M  V30 16 1 7 17
M  V30 17 1 8 18
M  V30 18 1 9 19
M  V30 END BOND
M  V30 END CTAB
M  END
>  <Structure No>
4182

>  <LogS>
0.8724

>  <MMFF94 Energy>
32.941

$$$$
Compound 4183
Actelion Java MolfileCreator 2.0

  0  0  0  0  0  0              0 V3000
M  V30 BEGIN CTAB
M  V30 COUNTS 77 76 0 0 0
M  V30 BEGIN ATOM
M  V30 1 N -0.544 0.9327 1.5549 0 CHG=1
M  V30 2 C 0.4089 2.0339 1.8922 0
M  V30 3 C -0.427 -0.1677 2.5546 0
M  V30 4 C -1.9532 1.4047 1.521 0
M  V30 5 C 1.0687 2.6868 0.659 0
M  V30 6 C 0.7007 -1.1629 2.2115 0
M  V30 7 C -2.2484 2.3712 0.3563 0
M  V30 8 C 2.1993 1.8331 0.0578 0
M  V30 9 C 0.2422 -2.2035 1.1755 0
M  V30 10 C -3.7595 2.4915 0.0602 0
M  V30 11 C 2.654 2.3396 -1.325 0
M  V30 12 C 1.3802 -3.1584 0.7992 0
M  V30 13 C -4.1859 1.7716 -1.234 0
M  V30 14 C 3.1207 3.8083 -1.3614 0
M  V30 15 C 0.8833 -4.2418 -0.1652 0
M  V30 16 C -4.0036 0.2432 -1.2146 0
M  V30 17 C 4.3374 4.1276 -0.4749 0
M  V30 18 C 2.0338 -5.1498 -0.6153 0
M  V30 19 C -4.9334 -0.5014 -0.2397 0
M  V30 20 C 5.6522 3.4982 -0.9771 0
M  V30 21 C 1.5296 -6.232 -1.5773 0
M  V30 22 C -6.4269 -0.4279 -0.6227 0
M  V30 23 C 6.0503 2.2534 -0.1839 0
M  V30 24 C 2.6731 -7.1141 -2.0668 0
M  V30 25 C -7.2085 0.5199 0.2821 0
M  V30 26 H -0.3257 0.5466 0.6084 0
M  V30 27 H 1.2359 1.6782 2.5458 0
M  V30 28 H -0.1006 2.8282 2.48 0
M  V30 29 H -1.3704 -0.7505 2.6504 0
M  V30 30 H -0.2455 0.2501 3.5715 0
M  V30 31 H -2.6245 0.5325 1.3952 0
M  V30 32 H -2.2328 1.8856 2.4844 0
M  V30 33 H 0.3201 2.917 -0.1209 0
M  V30 34 H 1.5017 3.6561 0.9934 0
M  V30 35 H 0.9913 -1.698 3.1426 0
M  V30 36 H 1.5969 -0.6198 1.8429 0
M  V30 37 H -1.8635 3.3775 0.6317 0
M  V30 38 H -1.7141 2.0429 -0.5598 0
M  V30 39 H 3.0587 1.8027 0.7629 0
M  V30 40 H 1.8497 0.7872 -0.077 0
M  V30 41 H -0.6036 -2.7879 1.6007 0
M  V30 42 H -0.1185 -1.6953 0.2545 0
M  V30 43 H -4.3731 2.1526 0.922 0
M  V30 44 H -3.997 3.5702 -0.0807 0
M  V30 45 H 3.4616 1.6819 -1.7095 0
M  V30 46 H 1.7997 2.2279 -2.029 0
M  V30 47 H 1.7821 -3.6383 1.7198 0
M  V30 48 H 2.198 -2.5791 0.3167 0
M  V30 49 H -3.5898 2.1815 -2.0778 0
M  V30 50 H -5.2428 2.0206 -1.4633 0
M  V30 51 H 2.2814 4.4701 -1.0638 0
M  V30 52 H 3.3577 4.0751 -2.4116 0
M  V30 53 H 0.1067 -4.8528 0.3437 0
M  V30 54 H 0.4265 -3.7625 -1.0578 0
M  V30 55 H -2.948 -0.0055 -0.9706 0
M  V30 56 H -4.1799 -0.1439 -2.2405 0
M  V30 57 H 4.1393 3.8624 0.584 0
M  V30 58 H 4.4612 5.2341 -0.4878 0
M  V30 59 H 2.4969 -5.6344 0.2746 0
M  V30 60 H 2.8092 -4.5362 -1.1248 0
M  V30 61 H -4.768 -0.1652 0.8044 0
M  V30 62 H -4.6299 -1.5706 -0.2624 0
M  V30 63 H 6.4711 4.2435 -0.8594 0
M  V30 64 H 5.5871 3.2425 -2.0561 0
M  V30 65 H 0.7713 -6.8637 -1.0648 0
M  V30 66 H 1.0508 -5.7508 -2.4601 0
M  V30 67 H -6.5689 -0.1421 -1.6894 0
M  V30 68 H -6.8737 -1.4409 -0.4946 0
M  V30 69 H 7.0239 1.8743 -0.5565 0
M  V30 70 H 6.1615 2.4985 0.8936 0
M  V30 71 H 5.2981 1.4487 -0.3038 0
M  V30 72 H 3.1915 -7.5851 -1.2036 0
M  V30 73 H 2.2693 -7.9119 -2.7265 0
M  V30 74 H 3.3991 -6.5093 -2.6524 0
M  V30 75 H -8.2745 0.5376 -0.0271 0
M  V30 76 H -6.8097 1.5496 0.2238 0
M  V30 77 H -7.1577 0.1666 1.333 0
M  V30 END ATOM
M  V30 BEGIN BOND
M  V30 1 1 1 2
M  V30 2 1 1 3
M  V30 3 1 1 4
M  V30 4 1 2 5
M  V30 5 1 3 6
M  V30 6 1 4 7
M  V30 7 1 5 8
M  V30 8 1 6 9
M  V30 9 1 7 10
M  V30 10 1 8 11
M  V30 11 1 9 12
M  V30 12 1 10 13
M  V30 13 1 11 14
M  V30 14 1 12 15
M  V30 15 1 13 16
M  V30 16 1 14 17
M  V30 17 1 15 18
M  V30 18 1 16 19
M  V30 19 1 17 20
M  V30 20 1 18 21
M  V30 21 1 19 22
M  V30 22 1 20 23
M  V30 23 1 21 24
M  V30 24 1 22 25
M  V30 25 1 1 26
M  V30 26 1 2 27
M  V30 27 1 2 28
M  V30 28 1 3 29
M  V30 29 1 3 30
M  V30 30 1 4 31
M  V30 31 1 4 32
M  V30 32 1 5 33
M  V30 33 1 5 34
M  V30 34 1 6 35
M  V30 35 1 6 36
M  V30 36 1 7 37
M  V30 37 1 7 38
M  V30 38 1 8 39
M  V30 39 1 8 40
M  V30 40 1 9 41
M  V30 41 1 9 42
M  V30 42 1 10 43
M  V30 43 1 10 44
M  V30 44 1 11 45
M  V30 45 1 11 46
M  V30 46 1 12 47
M  V30 47 1 12 48
M  V30 48 1 13 49
M  V30 49 1 13 50
M  V30 50 1 14 51
M  V30 51 1 14 52
M  V30 52 1 15 53
M  V30 53 1 15 54
M  V30 54 1 16 55
M  V30 55 1 16 56
M  V30 56 1 17 57
M  V30 57 1 17 58
M  V30 58 1 18 59
M  V30 59 1 18 60
M  V30 60 1 19 61
M  V30 61 1 19 62
M  V30 62 1 20 63
M  V30 63 1 20 64
M  V30 64 1 21 65
M  V30 65 1 21 66
M  V30 66 1 22 67
M  V30 67 1 22 68
M  V30 68 1 23 69
M  V30 69 1 23 70
M  V30 70 1 23 71
M  V30 71 1 24 72
M  V30 72 1 24 73
M  V30 73 1 24 74
M  V30 74 1 25 75
M  V30 75 1 25 76
M  V30 76 1 25 77
M  V30 END BOND
M  V30 END CTAB
M  END
>  <Structure No>
4183

>  <LogS>
-6.8496

>  <MMFF94 Energy>
6.8651

$$$$
Compound 4184
Actelion Java MolfileCreator 2.0

  0  0  0  0  0  0              0 V3000
M  V30 BEGIN CTAB
M  V30 COUNTS 20 19 0 0 0
M  V30 BEGIN ATOM
M  V30 1 O 1.7685 1.3839 0.6917 0
M  V30 2 C 1.8283 0.1363 0.5294 0
M  V30 3 N 0.6935 -0.6023 0.0432 0
M  V30 4 N 3.0427 -0.5484 0.8346 0
M  V30 5 C -0.6153 -0.016 -0.3077 0
M  V30 6 C -1.2468 0.6574 0.9265 0
M  V30 7 C -1.5569 -1.1407 -0.786 0
M  V30 8 C -0.4537 1.0047 -1.4511 0
M  V30 9 H 0.8239 -1.6345 -0.064 0
M  V30 10 H 3.1173 -1.5819 0.7085 0
M  V30 11 H 3.8714 -0.0205 1.1882 0
M  V30 12 H -1.2997 -0.0617 1.772 0
M  V30 13 H -0.6597 1.5391 1.2546 0
M  V30 14 H -2.2764 1.0079 0.6969 0
M  V30 15 H -1.1308 -1.6511 -1.6767 0
M  V30 16 H -2.5552 -0.7352 -1.0596 0
M  V30 17 H -1.6952 -1.8982 0.0156 0
M  V30 18 H 0.1353 1.8874 -1.1291 0
M  V30 19 H -1.4464 1.3714 -1.7913 0
M  V30 20 H 0.0635 0.5353 -2.3152 0
M  V30 END ATOM
M  V30 BEGIN BOND
M  V30 1 2 1 2
M  V30 2 1 2 3
M  V30 3 1 2 4
M  V30 4 1 3 5
M  V30 5 1 5 6
M  V30 6 1 5 7
M  V30 7 1 5 8
M  V30 8 1 3 9
M  V30 9 1 4 10
M  V30 10 1 4 11
M  V30 11 1 6 12
M  V30 12 1 6 13
M  V30 13 1 6 14
M  V30 14 1 7 15
M  V30 15 1 7 16
M  V30 16 1 7 17
M  V30 17 1 8 18
M  V30 18 1 8 19
M  V30 19 1 8 20
M  V30 END BOND
M  V30 END CTAB
M  END
>  <Structure No>
4184

>  <LogS>
-0.7306

>  <MMFF94 Energy>
-94.263

$$$$
Compound 4185
Actelion Java MolfileCreator 2.0

  0  0  0  0  0  0              0 V3000
M  V30 BEGIN CTAB
M  V30 COUNTS 23 22 0 0 0
M  V30 BEGIN ATOM
M  V30 1 O 2.1934 -0.6263 -2.115 0
M  V30 2 C 2.2372 -0.0303 -1.004 0
M  V30 3 O 3.2431 -0.3202 -0.0778 0
M  V30 4 C 1.1759 0.9627 -0.651 0
M  V30 5 C 4.2686 -1.2717 -0.3342 0
M  V30 6 C 0.0262 0.2756 0.091 0
M  V30 7 C -1.0656 1.2821 0.4643 0
M  V30 8 C -2.184 0.5969 1.183 0
M  V30 9 O -2.1633 0.5151 2.4417 0
M  V30 10 O -3.2197 0.0142 0.4469 0
M  V30 11 C -4.3013 -0.6757 1.0611 0
M  V30 12 H 0.7946 1.4429 -1.5788 0
M  V30 13 H 1.6204 1.7534 -0.0084 0
M  V30 14 H 3.8226 -2.2742 -0.506 0
M  V30 15 H 4.9445 -1.3247 0.5437 0
M  V30 16 H 4.8578 -0.9652 -1.2243 0
M  V30 17 H -0.4093 -0.5165 -0.5579 0
M  V30 18 H 0.4186 -0.2017 1.0169 0
M  V30 19 H -1.4669 1.7614 -0.4549 0
M  V30 20 H -0.6409 2.0786 1.114 0
M  V30 21 H -4.9916 -1.0447 0.2752 0
M  V30 22 H -4.8567 0.0104 1.735 0
M  V30 23 H -3.9189 -1.5428 1.6404 0
M  V30 END ATOM
M  V30 BEGIN BOND
M  V30 1 2 1 2
M  V30 2 1 2 3
M  V30 3 1 2 4
M  V30 4 1 3 5
M  V30 5 1 4 6
M  V30 6 1 6 7
M  V30 7 1 7 8
M  V30 8 2 8 9
M  V30 9 1 8 10
M  V30 10 1 10 11
M  V30 11 1 4 12
M  V30 12 1 4 13
M  V30 13 1 5 14
M  V30 14 1 5 15
M  V30 15 1 5 16
M  V30 16 1 6 17
M  V30 17 1 6 18
M  V30 18 1 7 19
M  V30 19 1 7 20
M  V30 20 1 11 21
M  V30 21 1 11 22
M  V30 22 1 11 23
M  V30 END BOND
M  V30 END CTAB
M  END
>  <Structure No>
4185

>  <LogS>
-0.4337

>  <MMFF94 Energy>
-16.858

$$$$
Compound 4186
Actelion Java MolfileCreator 2.0

  0  0  0  0  0  0              0 V3000
M  V30 BEGIN CTAB
M  V30 COUNTS 19 18 0 0 0
M  V30 BEGIN ATOM
M  V30 1 C 1.6092 -0.2297 -0.766 0
M  V30 2 C 2.7265 0.1957 -0.6116 0
M  V30 3 C 0.2495 -0.7472 -0.9536 0
M  V30 4 C 4.082 0.7125 -0.4236 0
M  V30 5 C -0.7362 0.003 -0.0545 0
M  V30 6 C -2.1619 -0.5283 -0.2409 0
M  V30 7 C -3.1493 0.2161 0.653 0
M  V30 8 H -0.0355 -0.6208 -2.0198 0
M  V30 9 H 0.2431 -1.8298 -0.7054 0
M  V30 10 H 4.1852 1.6814 -0.9541 0
M  V30 11 H 4.8145 -0.0129 -0.8328 0
M  V30 12 H 4.2742 0.8614 0.6587 0
M  V30 13 H -0.4336 -0.1213 1.0092 0
M  V30 14 H -0.7122 1.0872 -0.3048 0
M  V30 15 H -2.1946 -1.6107 0.0109 0
M  V30 16 H -2.4728 -0.4039 -1.3011 0
M  V30 17 H -4.171 -0.1893 0.4967 0
M  V30 18 H -2.8755 0.0867 1.7219 0
M  V30 19 H -3.155 1.2986 0.404 0
M  V30 END ATOM
M  V30 BEGIN BOND
M  V30 1 3 1 2
M  V30 2 1 1 3
M  V30 3 1 2 4
M  V30 4 1 3 5
M  V30 5 1 5 6
M  V30 6 1 6 7
M  V30 7 1 3 8
M  V30 8 1 3 9
M  V30 9 1 4 10
M  V30 10 1 4 11
M  V30 11 1 4 12
M  V30 12 1 5 13
M  V30 13 1 5 14
M  V30 14 1 6 15
M  V30 15 1 6 16
M  V30 16 1 7 17
M  V30 17 1 7 18
M  V30 18 1 7 19
M  V30 END BOND
M  V30 END CTAB
M  END
>  <Structure No>
4186

>  <LogS>
-2.7695

>  <MMFF94 Energy>
0.21365

$$$$
Compound 4187
Actelion Java MolfileCreator 2.0

  0  0  0  0  0  0              0 V3000
M  V30 BEGIN CTAB
M  V30 COUNTS 35 34 0 0 0
M  V30 BEGIN ATOM
M  V30 1 C -0.5409 1.2367 0.3863 0
M  V30 2 C 0.7634 0.4469 0.5991 0
M  V30 3 C -1.4468 0.7121 -0.7459 0
M  V30 4 C 1.6973 0.4971 -0.622 0
M  V30 5 C -1.8694 -0.7642 -0.6137 0
M  V30 6 C 3.0277 -0.2331 -0.3771 0
M  V30 7 C -2.5906 -1.1208 0.7016 0
M  V30 8 C 3.9803 0.5591 0.5308 0
M  V30 9 C -3.8733 -0.3155 0.9744 0
M  V30 10 C 5.3334 -0.1369 0.6467 0
M  V30 11 C -4.9535 -0.539 -0.083 0
M  V30 12 H -0.2848 2.2962 0.1667 0
M  V30 13 H -1.1122 1.2456 1.3388 0
M  V30 14 H 1.278 0.8972 1.4733 0
M  V30 15 H 0.5377 -0.6072 0.8638 0
M  V30 16 H -2.3546 1.3495 -0.7967 0
M  V30 17 H -0.9332 0.8479 -1.7208 0
M  V30 18 H 1.8925 1.5529 -0.912 0
M  V30 19 H 1.1982 -0.0026 -1.4788 0
M  V30 20 H -2.5247 -1.0225 -1.4724 0
M  V30 21 H -0.9735 -1.4124 -0.7148 0
M  V30 22 H 3.5207 -0.386 -1.3624 0
M  V30 23 H 2.8326 -1.2372 0.0601 0
M  V30 24 H -2.8465 -2.2025 0.6778 0
M  V30 25 H -1.8937 -0.9839 1.5553 0
M  V30 26 H 4.1369 1.5784 0.1152 0
M  V30 27 H 3.5494 0.6555 1.5493 0
M  V30 28 H -4.2794 -0.6366 1.9582 0
M  V30 29 H -3.6467 0.7679 1.0562 0
M  V30 30 H 5.9982 0.4512 1.3139 0
M  V30 31 H 5.2082 -1.1537 1.0763 0
M  V30 32 H 5.8138 -0.2166 -0.3516 0
M  V30 33 H -5.146 -1.6244 -0.2191 0
M  V30 34 H -4.6515 -0.0906 -1.0521 0
M  V30 35 H -5.896 -0.0507 0.2433 0
M  V30 END ATOM
M  V30 BEGIN BOND
M  V30 1 1 1 2
M  V30 2 1 1 3
M  V30 3 1 2 4
M  V30 4 1 3 5
M  V30 5 1 4 6
M  V30 6 1 5 7
M  V30 7 1 6 8
M  V30 8 1 7 9
M  V30 9 1 8 10
M  V30 10 1 9 11
M  V30 11 1 1 12
M  V30 12 1 1 13
M  V30 13 1 2 14
M  V30 14 1 2 15
M  V30 15 1 3 16
M  V30 16 1 3 17
M  V30 17 1 4 18
M  V30 18 1 4 19
M  V30 19 1 5 20
M  V30 20 1 5 21
M  V30 21 1 6 22
M  V30 22 1 6 23
M  V30 23 1 7 24
M  V30 24 1 7 25
M  V30 25 1 8 26
M  V30 26 1 8 27
M  V30 27 1 9 28
M  V30 28 1 9 29
M  V30 29 1 10 30
M  V30 30 1 10 31
M  V30 31 1 10 32
M  V30 32 1 11 33
M  V30 33 1 11 34
M  V30 34 1 11 35
M  V30 END BOND
M  V30 END CTAB
M  END
>  <Structure No>
4187

>  <LogS>
-7.5505

>  <MMFF94 Energy>
-4.7671

$$$$
Compound 4188
Actelion Java MolfileCreator 2.0

  0  0  0  0  0  0              0 V3000
M  V30 BEGIN CTAB
M  V30 COUNTS 20 20 0 0 0
M  V30 BEGIN ATOM
M  V30 1 N 1.1725 -1.5636 -0.3907 0
M  V30 2 C 1.7625 -0.3673 -0.1308 0
M  V30 3 C -0.1774 -1.7114 -0.4047 0
M  V30 4 C 0.9705 0.7545 0.1363 0
M  V30 5 C 3.254 -0.2579 -0.1268 0
M  V30 6 C -1.0159 -0.615 -0.1481 0
M  V30 7 C -0.4281 0.639 0.1344 0
M  V30 8 C -2.5102 -0.7992 -0.164 0
M  V30 9 C -1.273 1.8529 0.4188 0
M  V30 10 H -0.5954 -2.6868 -0.6175 0
M  V30 11 H 1.4431 1.7074 0.3444 0
M  V30 12 H 3.6038 0.0567 0.8788 0
M  V30 13 H 3.7182 -1.2355 -0.3764 0
M  V30 14 H 3.5774 0.4923 -0.8785 0
M  V30 15 H -2.7919 -1.8301 -0.4667 0
M  V30 16 H -2.9221 -0.611 0.8494 0
M  V30 17 H -2.9716 -0.0935 -0.8859 0
M  V30 18 H -1.8738 2.1103 -0.4782 0
M  V30 19 H -0.6494 2.7337 0.682 0
M  V30 20 H -1.9535 1.65 1.2719 0
M  V30 END ATOM
M  V30 BEGIN BOND
M  V30 1 2 1 2
M  V30 2 1 1 3
M  V30 3 1 2 4
M  V30 4 1 2 5
M  V30 5 2 3 6
M  V30 6 2 4 7
M  V30 7 1 6 8
M  V30 8 1 7 9
M  V30 9 1 6 7
M  V30 10 1 3 10
M  V30 11 1 4 11
M  V30 12 1 5 12
M  V30 13 1 5 13
M  V30 14 1 5 14
M  V30 15 1 8 15
M  V30 16 1 8 16
M  V30 17 1 8 17
M  V30 18 1 9 18
M  V30 19 1 9 19
M  V30 20 1 9 20
M  V30 END BOND
M  V30 END CTAB
M  END
>  <Structure No>
4188

>  <LogS>
-0.7824

>  <MMFF94 Energy>
22.367

$$$$
Compound 4189
Actelion Java MolfileCreator 2.0

  0  0  0  0  0  0              0 V3000
M  V30 BEGIN CTAB
M  V30 COUNTS 20 20 0 0 0
M  V30 BEGIN ATOM
M  V30 1 N 2.8655 -0.5416 0.3094 0 CHG=1
M  V30 2 C 1.9794 -1.1581 1.135 0
M  V30 3 C 2.4492 0.3182 -0.6569 0
M  V30 4 C 0.6097 -0.9176 1.0052 0
M  V30 5 C 1.0886 0.5877 -0.8224 0
M  V30 6 C 0.1388 -0.0321 0.0146 0
M  V30 7 N -1.2812 0.2331 -0.1389 0
M  V30 8 C -2.2219 -0.0858 0.9427 0
M  V30 9 C -1.8006 0.8251 -1.3784 0
M  V30 10 H 3.8864 -0.7324 0.4199 0
M  V30 11 H 2.3354 -1.8409 1.8963 0
M  V30 12 H 3.1745 0.799 -1.3012 0
M  V30 13 H -0.0675 -1.4317 1.6727 0
M  V30 14 H 0.7932 1.2837 -1.5949 0
M  V30 15 H -3.2285 0.3428 0.7521 0
M  V30 16 H -1.8546 0.3401 1.9003 0
M  V30 17 H -2.3278 -1.1867 1.0379 0
M  V30 18 H -1.4844 1.8867 -1.4508 0
M  V30 19 H -2.91 0.7916 -1.4166 0
M  V30 20 H -1.4201 0.2594 -2.2551 0
M  V30 END ATOM
M  V30 BEGIN BOND
M  V30 1 2 1 2
M  V30 2 1 1 3
M  V30 3 1 2 4
M  V30 4 2 3 5
M  V30 5 2 4 6
M  V30 6 1 6 7
M  V30 7 1 7 8
M  V30 8 1 7 9
M  V30 9 1 5 6
M  V30 10 1 1 10
M  V30 11 1 2 11
M  V30 12 1 3 12
M  V30 13 1 4 13
M  V30 14 1 5 14
M  V30 15 1 8 15
M  V30 16 1 8 16
M  V30 17 1 8 17
M  V30 18 1 9 18
M  V30 19 1 9 19
M  V30 20 1 9 20
M  V30 END BOND
M  V30 END CTAB
M  END
>  <Structure No>
4189

>  <LogS>
-0.2062

>  <MMFF94 Energy>
34.008

$$$$
Compound 4190
Actelion Java MolfileCreator 2.0

  0  0  0  0  0  0              0 V3000
M  V30 BEGIN CTAB
M  V30 COUNTS 20 20 0 0 0
M  V30 BEGIN ATOM
M  V30 1 N -0.5464 -0.7025 -0.3122 0
M  V30 2 C 0.5661 -0.3302 0.3791 0
M  V30 3 C -1.7013 0.017 -0.2643 0
M  V30 4 C 0.5435 0.8413 1.1494 0
M  V30 5 C 1.8193 -1.1471 0.2622 0
M  V30 6 C -1.7582 1.1888 0.5011 0
M  V30 7 C -2.892 -0.4317 -1.0496 0
M  V30 8 C -0.6276 1.5983 1.2098 0
M  V30 9 C 2.6981 -0.6269 -0.8698 0
M  V30 10 H 1.4229 1.1647 1.6926 0
M  V30 11 H 1.5551 -2.2081 0.0619 0
M  V30 12 H 2.3879 -1.1152 1.217 0
M  V30 13 H -2.6659 1.7781 0.5446 0
M  V30 14 H -2.7054 -1.4271 -1.5056 0
M  V30 15 H -3.1028 0.2992 -1.858 0
M  V30 16 H -3.7774 -0.507 -0.3835 0
M  V30 17 H -0.6576 2.504 1.8019 0
M  V30 18 H 3.6143 -1.2496 -0.9452 0
M  V30 19 H 2.1522 -0.6781 -1.8361 0
M  V30 20 H 2.9982 0.4246 -0.6731 0
M  V30 END ATOM
M  V30 BEGIN BOND
M  V30 1 2 1 2
M  V30 2 1 1 3
M  V30 3 1 2 4
M  V30 4 1 2 5
M  V30 5 2 3 6
M  V30 6 1 3 7
M  V30 7 2 4 8
M  V30 8 1 5 9
M  V30 9 1 6 8
M  V30 10 1 4 10
M  V30 11 1 5 11
M  V30 12 1 5 12
M  V30 13 1 6 13
M  V30 14 1 7 14
M  V30 15 1 7 15
M  V30 16 1 7 16
M  V30 17 1 8 17
M  V30 18 1 9 18
M  V30 19 1 9 19
M  V30 20 1 9 20
M  V30 END BOND
M  V30 END CTAB
M  END
>  <Structure No>
4190

>  <LogS>
-0.8234

>  <MMFF94 Energy>
17.199

$$$$
Compound 4191
Actelion Java MolfileCreator 2.0

  0  0  0  0  0  0              0 V3000
M  V30 BEGIN CTAB
M  V30 COUNTS 21 21 0 0 0
M  V30 BEGIN ATOM
M  V30 1 O -3.2089 -1.2826 0.2404 0
M  V30 2 C -2.2806 -0.6024 0.7533 0
M  V30 3 O -2.4017 -0.1778 2.0719 0 CHG=-1
M  V30 4 C -1.0158 -0.3199 -0.0299 0
M  V30 5 O -1.259 -0.4977 -1.4079 0
M  V30 6 C 0.0713 -1.3239 0.4111 0
M  V30 7 C -0.5257 1.1272 0.2398 0
M  V30 8 C 1.4163 -1.0423 -0.2752 0
M  V30 9 C 0.8137 1.4061 -0.4557 0
M  V30 10 C 1.8793 0.3958 -0.0159 0
M  V30 11 H -1.9428 0.1675 -1.686 0
M  V30 12 H 0.2134 -1.2724 1.5142 0
M  V30 13 H -0.2493 -2.3591 0.1609 0
M  V30 14 H -0.3957 1.2923 1.3328 0
M  V30 15 H -1.2813 1.8595 -0.12 0
M  V30 16 H 1.3249 -1.2142 -1.3701 0
M  V30 17 H 2.1808 -1.7478 0.1155 0
M  V30 18 H 0.6841 1.3594 -1.5592 0
M  V30 19 H 1.154 2.4318 -0.1968 0
M  V30 20 H 2.8189 0.5857 -0.578 0
M  V30 21 H 2.0955 0.5287 1.0671 0
M  V30 END ATOM
M  V30 BEGIN BOND
M  V30 1 2 1 2
M  V30 2 1 2 3
M  V30 3 1 2 4
M  V30 4 1 4 5
M  V30 5 1 4 6
M  V30 6 1 4 7
M  V30 7 1 6 8
M  V30 8 1 7 9
M  V30 9 1 8 10
M  V30 10 1 9 10
M  V30 11 1 5 11
M  V30 12 1 6 12
M  V30 13 1 6 13
M  V30 14 1 7 14
M  V30 15 1 7 15
M  V30 16 1 8 16
M  V30 17 1 8 17
M  V30 18 1 9 18
M  V30 19 1 9 19
M  V30 20 1 10 20
M  V30 21 1 10 21
M  V30 END BOND
M  V30 END CTAB
M  END
>  <Structure No>
4191

>  <LogS>
-0.3328

>  <MMFF94 Energy>
63.182

$$$$
Compound 4192
Actelion Java MolfileCreator 2.0

  0  0  0  0  0  0              0 V3000
M  V30 BEGIN CTAB
M  V30 COUNTS 19 19 0 0 0
M  V30 BEGIN ATOM
M  V30 1 Cl 0.0803 3.7818 0.6429 0
M  V30 2 C 0.0611 2.0525 0.3475 0
M  V30 3 C -1.1496 1.3573 0.3549 0
M  V30 4 C 1.2564 1.3738 0.1053 0
M  V30 5 C -1.1789 -0.0272 0.1199 0
M  V30 6 C 1.2513 -0.009 -0.1318 0
M  V30 7 C 0.0324 -0.7159 -0.1256 0
M  V30 8 C -2.4976 -0.7511 0.1338 0
M  V30 9 C 2.5432 -0.7324 -0.3918 0
M  V30 10 O 0.0515 -2.0939 -0.3646 0
M  V30 11 H -2.0679 1.8999 0.5446 0
M  V30 12 H 2.1882 1.9262 0.1027 0
M  V30 13 H -2.6766 -1.2249 -0.8542 0
M  V30 14 H -2.49 -1.5308 0.9243 0
M  V30 15 H -3.3434 -0.061 0.3412 0
M  V30 16 H 2.695 -1.5155 0.3805 0
M  V30 17 H 3.4131 -0.0419 -0.3644 0
M  V30 18 H 2.5089 -1.2105 -1.3934 0
M  V30 19 H -0.7828 -2.6663 -0.3755 0
M  V30 END ATOM
M  V30 BEGIN BOND
M  V30 1 1 1 2
M  V30 2 2 2 3
M  V30 3 1 2 4
M  V30 4 1 3 5
M  V30 5 2 4 6
M  V30 6 2 5 7
M  V30 7 1 5 8
M  V30 8 1 6 9
M  V30 9 1 7 10
M  V30 10 1 6 7
M  V30 11 1 3 11
M  V30 12 1 4 12
M  V30 13 1 8 13
M  V30 14 1 8 14
M  V30 15 1 8 15
M  V30 16 1 9 16
M  V30 17 1 9 17
M  V30 18 1 9 18
M  V30 19 1 10 19
M  V30 END BOND
M  V30 END CTAB
M  END
>  <Structure No>
4192

>  <LogS>
-1.6763

>  <MMFF94 Energy>
10.716

$$$$
Compound 4193
Actelion Java MolfileCreator 2.0

  0  0  0  0  0  0              0 V3000
M  V30 BEGIN CTAB
M  V30 COUNTS 14 15 0 0 0
M  V30 BEGIN ATOM
M  V30 1 Cl 3.6008 -1.5899 0.7528 0
M  V30 2 C 2.1169 -0.7568 0.3369 0
M  V30 3 N 0.9159 -1.3218 0.6346 0
M  V30 4 C 2.1566 0.4893 -0.3009 0
M  V30 5 C -0.2471 -0.6939 0.3215 0
M  V30 6 N 0.9935 1.1202 -0.6156 0
M  V30 7 N -1.4432 -1.2622 0.6208 0
M  V30 8 C -0.2057 0.5553 -0.318 0
M  V30 9 C -2.6068 -0.6319 0.3066 0
M  V30 10 C -1.4095 1.1843 -0.6313 0
M  V30 11 N -2.5847 0.5793 -0.3134 0
M  V30 12 H 3.1033 0.9526 -0.5448 0
M  V30 13 H -3.553 -1.095 0.5502 0
M  V30 14 H -1.4162 2.1478 -1.1243 0
M  V30 END ATOM
M  V30 BEGIN BOND
M  V30 1 1 1 2
M  V30 2 2 2 3
M  V30 3 1 2 4
M  V30 4 1 3 5
M  V30 5 2 4 6
M  V30 6 2 5 7
M  V30 7 1 5 8
M  V30 8 1 7 9
M  V30 9 2 8 10
M  V30 10 2 9 11
M  V30 11 1 6 8
M  V30 12 1 10 11
M  V30 13 1 4 12
M  V30 14 1 9 13
M  V30 15 1 10 14
M  V30 END BOND
M  V30 END CTAB
M  END
>  <Structure No>
4193

>  <LogS>
-0.8749

>  <MMFF94 Energy>
64.997

$$$$
Compound 4194
Actelion Java MolfileCreator 2.0

  0  0  0  0  0  0              0 V3000
M  V30 BEGIN CTAB
M  V30 COUNTS 21 21 0 0 0
M  V30 BEGIN ATOM
M  V30 1 O 2.3505 1.8017 -1.018 0
M  V30 2 C 1.6972 0.7567 -0.3662 0
M  V30 3 C 2.3034 -0.5086 -0.2811 0
M  V30 4 C 0.4328 0.9633 0.205 0
M  V30 5 O 3.5599 -0.7454 -0.8378 0
M  V30 6 C 1.6402 -1.5539 0.37 0
M  V30 7 C -0.2284 -0.0837 0.8668 0
M  V30 8 C 0.3803 -1.3461 0.9375 0
M  V30 9 C -1.5986 0.1293 1.454 0
M  V30 10 C -2.6631 -0.3716 0.5187 0
M  V30 11 C -2.9604 0.2696 -0.6154 0
M  V30 12 H 1.9347 2.7228 -1.0936 0
M  V30 13 H -0.0337 1.9382 0.1316 0
M  V30 14 H 4.0798 -0.0218 -1.3196 0
M  V30 15 H 2.1017 -2.5311 0.4337 0
M  V30 16 H -0.122 -2.169 1.4313 0
M  V30 17 H -1.7721 1.2039 1.6825 0
M  V30 18 H -1.675 -0.4221 2.4161 0
M  V30 19 H -3.2123 -1.2719 0.7783 0
M  V30 20 H -2.4353 1.1768 -0.8987 0
M  V30 21 H -3.7376 -0.1139 -1.2683 0
M  V30 END ATOM
M  V30 BEGIN BOND
M  V30 1 1 1 2
M  V30 2 2 2 3
M  V30 3 1 2 4
M  V30 4 1 3 5
M  V30 5 1 3 6
M  V30 6 2 4 7
M  V30 7 2 6 8
M  V30 8 1 7 9
M  V30 9 1 9 10
M  V30 10 2 10 11
M  V30 11 1 7 8
M  V30 12 1 1 12
M  V30 13 1 4 13
M  V30 14 1 5 14
M  V30 15 1 6 15
M  V30 16 1 8 16
M  V30 17 1 9 17
M  V30 18 1 9 18
M  V30 19 1 10 19
M  V30 20 1 11 20
M  V30 21 1 11 21
M  V30 END BOND
M  V30 END CTAB
M  END
>  <Structure No>
4194

>  <LogS>
-0.7787

>  <MMFF94 Energy>
22.361

$$$$
Compound 4195
Actelion Java MolfileCreator 2.0

  0  0  0  0  0  0              0 V3000
M  V30 BEGIN CTAB
M  V30 COUNTS 24 25 0 0 0
M  V30 BEGIN ATOM
M  V30 1 N -1.2589 -0.8653 0.5506 0
M  V30 2 N -0.458 0.0139 -0.0325 0
M  V30 3 C -2.5151 -0.3777 0.4867 0
M  V30 4 C 0.9628 -0.169 -0.1368 0
M  V30 5 C -1.1971 1.0597 -0.4649 0
M  V30 6 C -2.5206 0.8539 -0.1422 0
M  V30 7 C -3.7027 -1.0562 1.0826 0
M  V30 8 C 1.4824 -1.4293 -0.4739 0
M  V30 9 C 1.8485 0.8821 0.1578 0
M  V30 10 N -0.7073 2.1525 -1.2454 0
M  V30 11 C 2.8649 -1.6252 -0.5515 0
M  V30 12 C 3.2304 0.6825 0.0798 0
M  V30 13 C 3.7382 -0.569 -0.2783 0
M  V30 14 H -3.3682 1.4918 -0.3567 0
M  V30 15 H -4.599 -0.8782 0.4517 0
M  V30 16 H -3.8858 -0.6545 2.1009 0
M  V30 17 H -3.522 -2.1496 1.1485 0
M  V30 18 H 0.8153 -2.2552 -0.6866 0
M  V30 19 H 1.4707 1.8483 0.467 0
M  V30 20 H 0.2651 2.159 -1.622 0
M  V30 21 H -1.3515 2.9264 -1.5218 0
M  V30 22 H 3.2589 -2.5965 -0.8214 0
M  V30 23 H 3.9077 1.4962 0.3054 0
M  V30 24 H 4.808 -0.7224 -0.3367 0
M  V30 END ATOM
M  V30 BEGIN BOND
M  V30 1 1 1 2
M  V30 2 2 1 3
M  V30 3 1 2 4
M  V30 4 1 2 5
M  V30 5 1 3 6
M  V30 6 1 3 7
M  V30 7 2 4 8
M  V30 8 1 4 9
M  V30 9 1 5 10
M  V30 10 1 8 11
M  V30 11 2 9 12
M  V30 12 2 11 13
M  V30 13 2 5 6
M  V30 14 1 12 13
M  V30 15 1 6 14
M  V30 16 1 7 15
M  V30 17 1 7 16
M  V30 18 1 7 17
M  V30 19 1 8 18
M  V30 20 1 9 19
M  V30 21 1 10 20
M  V30 22 1 10 21
M  V30 23 1 11 22
M  V30 24 1 12 23
M  V30 25 1 13 24
M  V30 END BOND
M  V30 END CTAB
M  END
>  <Structure No>
4195

>  <LogS>
-0.9376

>  <MMFF94 Energy>
80.368

$$$$
Compound 4196
Actelion Java MolfileCreator 2.0

  0  0  0  0  0  0              0 V3000
M  V30 BEGIN CTAB
M  V30 COUNTS 29 30 0 0 0
M  V30 BEGIN ATOM
M  V30 1 O 5.1764 -0.0794 0.2384 0
M  V30 2 C 3.79 0.0358 0.1665 0
M  V30 3 C 2.9708 -1.0904 0.313 0
M  V30 4 C 3.2118 1.2892 -0.0532 0
M  V30 5 C 1.5807 -0.963 0.2386 0
M  V30 6 C 1.8219 1.4208 -0.1279 0
M  V30 7 C 0.9898 0.2955 0.0137 0
M  V30 8 C -0.5182 0.4501 -0.0653 0
M  V30 9 C -1.1165 -0.4081 -1.1964 0
M  V30 10 C -1.1924 0.1426 1.2973 0
M  V30 11 C -2.6242 -0.1344 -1.377 0
M  V30 12 C -2.6579 -0.3197 1.1621 0
M  V30 13 C -3.3349 0.2834 -0.073 0
M  V30 14 H 5.6257 -0.9738 0.397 0
M  V30 15 H 3.4097 -2.0647 0.4862 0
M  V30 16 H 3.8405 2.1634 -0.1654 0
M  V30 17 H 0.9672 -1.846 0.3617 0
M  V30 18 H 1.3972 2.4025 -0.2969 0
M  V30 19 H -0.7541 1.5097 -0.317 0
M  V30 20 H -0.5903 -0.1969 -2.1532 0
M  V30 21 H -0.9743 -1.486 -0.9641 0
M  V30 22 H -0.6364 -0.6449 1.8504 0
M  V30 23 H -1.1567 1.0614 1.9231 0
M  V30 24 H -2.7645 0.6709 -2.1305 0
M  V30 25 H -3.1059 -1.051 -1.7817 0
M  V30 26 H -3.2236 -0.0317 2.0745 0
M  V30 27 H -2.6909 -1.4289 1.0835 0
M  V30 28 H -3.3253 1.3921 0.0169 0
M  V30 29 H -4.3977 -0.0397 -0.1098 0
M  V30 END ATOM
M  V30 BEGIN BOND
M  V30 1 1 1 2
M  V30 2 2 2 3
M  V30 3 1 2 4
M  V30 4 1 3 5
M  V30 5 2 4 6
M  V30 6 2 5 7
M  V30 7 1 7 8
M  V30 8 1 8 9
M  V30 9 1 8 10
M  V30 10 1 9 11
M  V30 11 1 10 12
M  V30 12 1 11 13
M  V30 13 1 6 7
M  V30 14 1 12 13
M  V30 15 1 1 14
M  V30 16 1 3 15
M  V30 17 1 4 16
M  V30 18 1 5 17
M  V30 19 1 6 18
M  V30 20 1 8 19
M  V30 21 1 9 20
M  V30 22 1 9 21
M  V30 23 1 10 22
M  V30 24 1 10 23
M  V30 25 1 11 24
M  V30 26 1 11 25
M  V30 27 1 12 26
M  V30 28 1 12 27
M  V30 29 1 13 28
M  V30 30 1 13 29
M  V30 END BOND
M  V30 END CTAB
M  END
>  <Structure No>
4196

>  <LogS>
-3.468

>  <MMFF94 Energy>
13.407

$$$$
Compound 4197
Actelion Java MolfileCreator 2.0

  0  0  0  0  0  0              0 V3000
M  V30 BEGIN CTAB
M  V30 COUNTS 35 35 0 0 0
M  V30 BEGIN ATOM
M  V30 1 S -3.1323 0.6419 0.8024 0
M  V30 2 C -1.3963 0.1782 0.8954 0
M  V30 3 C -3.4403 -0.2447 -0.7651 0
M  V30 4 O -1.0934 -0.8353 1.5794 0
M  V30 5 N -0.3718 0.9327 0.2016 0
M  V30 6 C -3.6113 -1.7397 -0.5265 0
M  V30 7 C 0.9495 0.3368 -0.0972 0
M  V30 8 C -0.652 2.3101 -0.239 0
M  V30 9 C 1.7994 0.1656 1.1897 0
M  V30 10 C 0.8077 -0.9783 -0.8905 0
M  V30 11 C -0.6465 3.2628 0.9521 0
M  V30 12 C 2.7544 -1.0412 1.1274 0
M  V30 13 C 2.1828 -1.5344 -1.3109 0
M  V30 14 C 3.3036 -1.2474 -0.2886 0
M  V30 15 H -2.6131 -0.0656 -1.4851 0
M  V30 16 H -4.3749 0.1562 -1.2107 0
M  V30 17 H -4.4214 -1.9199 0.2115 0
M  V30 18 H -2.6662 -2.1846 -0.1523 0
M  V30 19 H -3.8805 -2.2389 -1.481 0
M  V30 20 H 1.525 1.0221 -0.7599 0
M  V30 21 H -1.6283 2.36 -0.765 0
M  V30 22 H 0.1069 2.6641 -0.9687 0
M  V30 23 H 1.1617 0.0611 2.0914 0
M  V30 24 H 2.3984 1.0907 1.3408 0
M  V30 25 H 0.1878 -0.8045 -1.797 0
M  V30 26 H 0.2923 -1.7455 -0.2755 0
M  V30 27 H -0.8342 4.2997 0.6019 0
M  V30 28 H -1.438 2.9844 1.6786 0
M  V30 29 H 0.3409 3.2284 1.4594 0
M  V30 30 H 3.5972 -0.8829 1.8344 0
M  V30 31 H 2.2148 -1.96 1.4466 0
M  V30 32 H 2.4725 -1.0942 -2.29 0
M  V30 33 H 2.0907 -2.6325 -1.4591 0
M  V30 34 H 4.0279 -2.0904 -0.2858 0
M  V30 35 H 3.8578 -0.3324 -0.594 0
M  V30 END ATOM
M  V30 BEGIN BOND
M  V30 1 1 1 2
M  V30 2 1 1 3
M  V30 3 2 2 4
M  V30 4 1 2 5
M  V30 5 1 3 6
M  V30 6 1 5 7
M  V30 7 1 5 8
M  V30 8 1 7 9
M  V30 9 1 7 10
M  V30 10 1 8 11
M  V30 11 1 9 12
M  V30 12 1 10 13
M  V30 13 1 12 14
M  V30 14 1 13 14
M  V30 15 1 3 15
M  V30 16 1 3 16
M  V30 17 1 6 17
M  V30 18 1 6 18
M  V30 19 1 6 19
M  V30 20 1 7 20
M  V30 21 1 8 21
M  V30 22 1 8 22
M  V30 23 1 9 23
M  V30 24 1 9 24
M  V30 25 1 10 25
M  V30 26 1 10 26
M  V30 27 1 11 27
M  V30 28 1 11 28
M  V30 29 1 11 29
M  V30 30 1 12 30
M  V30 31 1 12 31
M  V30 32 1 13 32
M  V30 33 1 13 33
M  V30 34 1 14 34
M  V30 35 1 14 35
M  V30 END BOND
M  V30 END CTAB
M  END
>  <Structure No>
4197

>  <LogS>
-3.4037

>  <MMFF94 Energy>
-37.376

$$$$
Compound 4198
Actelion Java MolfileCreator 2.0

  0  0  0  0  0  0              0 V3000
M  V30 BEGIN CTAB
M  V30 COUNTS 33 34 0 0 0
M  V30 BEGIN ATOM
M  V30 1 O 0.2367 -2.5275 -1.1841 0
M  V30 2 C -0.4208 -1.5368 -0.7562 0
M  V30 3 N 0.1584 -0.6671 0.1555 0
M  V30 4 N -1.7084 -1.3336 -1.2053 0
M  V30 5 C -0.5457 0.4241 0.614 0
M  V30 6 C 1.551 -0.8787 0.5978 0
M  V30 7 C -2.3966 -0.2692 -0.7106 0
M  V30 8 C -2.343 -2.2737 -2.1388 0
M  V30 9 O -0.0281 1.2463 1.419 0
M  V30 10 C -1.8481 0.601 0.1669 0
M  V30 11 C 2.5212 -0.1462 -0.3392 0
M  V30 12 N -3.6651 0.082 -1.004 0
M  V30 13 N -2.7542 1.5475 0.4641 0
M  V30 14 C 3.9939 -0.4275 -0.0059 0
M  V30 15 C -3.8474 1.2046 -0.2606 0
M  V30 16 C -2.6189 2.6881 1.3644 0
M  V30 17 C 4.4424 0.2372 1.2951 0
M  V30 18 H 1.7936 -1.9637 0.621 0
M  V30 19 H 1.6812 -0.5198 1.6411 0
M  V30 20 H -2.7038 -3.1639 -1.5819 0
M  V30 21 H -1.6203 -2.5971 -2.918 0
M  V30 22 H -3.2016 -1.806 -2.6663 0
M  V30 23 H 2.3269 0.948 -0.3021 0
M  V30 24 H 2.3316 -0.4845 -1.381 0
M  V30 25 H 4.1707 -1.5234 0.0544 0
M  V30 26 H 4.6221 -0.0314 -0.833 0
M  V30 27 H -4.774 1.7644 -0.2517 0
M  V30 28 H -1.7932 3.3438 1.0168 0
M  V30 29 H -3.5586 3.2803 1.3849 0
M  V30 30 H -2.4014 2.3302 2.3925 0
M  V30 31 H 4.2241 1.3262 1.2711 0
M  V30 32 H 5.5369 0.0996 1.421 0
M  V30 33 H 3.9347 -0.2228 2.1679 0
M  V30 END ATOM
M  V30 BEGIN BOND
M  V30 1 2 1 2
M  V30 2 1 2 3
M  V30 3 1 2 4
M  V30 4 1 3 5
M  V30 5 1 3 6
M  V30 6 1 4 7
M  V30 7 1 4 8
M  V30 8 2 5 9
M  V30 9 1 5 10
M  V30 10 1 6 11
M  V30 11 1 7 12
M  V30 12 1 10 13
M  V30 13 1 11 14
M  V30 14 2 12 15
M  V30 15 1 13 16
M  V30 16 1 14 17
M  V30 17 2 7 10
M  V30 18 1 13 15
M  V30 19 1 6 18
M  V30 20 1 6 19
M  V30 21 1 8 20
M  V30 22 1 8 21
M  V30 23 1 8 22
M  V30 24 1 11 23
M  V30 25 1 11 24
M  V30 26 1 14 25
M  V30 27 1 14 26
M  V30 28 1 15 27
M  V30 29 1 16 28
M  V30 30 1 16 29
M  V30 31 1 16 30
M  V30 32 1 17 31
M  V30 33 1 17 32
M  V30 34 1 17 33
M  V30 END BOND
M  V30 END CTAB
M  END
>  <Structure No>
4198

>  <LogS>
-1.6252

>  <MMFF94 Energy>
-125.05

$$$$
Compound 4199
Actelion Java MolfileCreator 2.0

  0  0  0  0  0  0              0 V3000
M  V30 BEGIN CTAB
M  V30 COUNTS 41 42 0 0 0
M  V30 BEGIN ATOM
M  V30 1 S 2.2785 -2.5228 -1.4643 0
M  V30 2 O 1.8071 -3.7622 -0.756 0
M  V30 3 O 3.1833 -2.9276 -2.5934 0
M  V30 4 N 0.9122 -1.672 -2.101 0 CHG=-1
M  V30 5 C 3.1656 -1.472 -0.365 0
M  V30 6 C -0.0996 -1.1136 -1.2617 0
M  V30 7 C 3.2212 -1.7537 1.0072 0
M  V30 8 C 3.7959 -0.324 -0.8618 0
M  V30 9 O -0.0314 -1.2552 -0.011 0
M  V30 10 N -1.1864 -0.3859 -1.858 0
M  V30 11 C 3.9109 -0.8993 1.873 0
M  V30 12 C 4.4859 0.5307 0.0027 0
M  V30 13 N -2.2402 0.2083 -1.1249 0
M  V30 14 C 4.561 0.2398 1.3737 0
M  V30 15 C -1.7065 1.2343 -0.2033 0
M  V30 16 C -3.0179 -0.8372 -0.4275 0
M  V30 17 C 5.2651 1.1783 2.308 0
M  V30 18 C -2.6386 2.4529 -0.113 0
M  V30 19 C -4.4619 -0.3886 -0.1829 0
M  V30 20 C -4.1434 2.142 -0.1889 0
M  V30 21 C -4.5705 0.9114 0.6287 0
M  V30 22 H 2.7256 -2.6269 1.411 0
M  V30 23 H 3.7463 -0.088 -1.9173 0
M  V30 24 H -1.1966 -0.2833 -2.8971 0
M  V30 25 H 3.9362 -1.125 2.932 0
M  V30 26 H 4.9598 1.4191 -0.3961 0
M  V30 27 H -1.5362 0.8262 0.8178 0
M  V30 28 H -0.7165 1.6036 -0.5554 0
M  V30 29 H -3.0642 -1.7553 -1.0556 0
M  V30 30 H -2.5502 -1.1332 0.5371 0
M  V30 31 H 6.1079 1.6859 1.7917 0
M  V30 32 H 5.6789 0.6266 3.1792 0
M  V30 33 H 4.5482 1.9442 2.6713 0
M  V30 34 H -2.4268 2.9862 0.8395 0
M  V30 35 H -2.392 3.1562 -0.9384 0
M  V30 36 H -4.9841 -1.1953 0.376 0
M  V30 37 H -4.9872 -0.2758 -1.1565 0
M  V30 38 H -4.4449 2.0236 -1.2529 0
M  V30 39 H -4.6922 3.03 0.1941 0
M  V30 40 H -5.6375 1.0405 0.9134 0
M  V30 41 H -3.9892 0.8369 1.5737 0
M  V30 END ATOM
M  V30 BEGIN BOND
M  V30 1 2 1 2
M  V30 2 2 1 3
M  V30 3 1 1 4
M  V30 4 1 1 5
M  V30 5 1 4 6
M  V30 6 2 5 7
M  V30 7 1 5 8
M  V30 8 2 6 9
M  V30 9 1 6 10
M  V30 10 1 7 11
M  V30 11 2 8 12
M  V30 12 1 10 13
M  V30 13 2 11 14
M  V30 14 1 13 15
M  V30 15 1 13 16
M  V30 16 1 14 17
M  V30 17 1 15 18
M  V30 18 1 16 19
M  V30 19 1 18 20
M  V30 20 1 19 21
M  V30 21 1 12 14
M  V30 22 1 20 21
M  V30 23 1 7 22
M  V30 24 1 8 23
M  V30 25 1 10 24
M  V30 26 1 11 25
M  V30 27 1 12 26
M  V30 28 1 15 27
M  V30 29 1 15 28
M  V30 30 1 16 29
M  V30 31 1 16 30
M  V30 32 1 17 31
M  V30 33 1 17 32
M  V30 34 1 17 33
M  V30 35 1 18 34
M  V30 36 1 18 35
M  V30 37 1 19 36
M  V30 38 1 19 37
M  V30 39 1 20 38
M  V30 40 1 20 39
M  V30 41 1 21 40
M  V30 42 1 21 41
M  V30 END BOND
M  V30 END CTAB
M  END
>  <Structure No>
4199

>  <LogS>
-3.6778

>  <MMFF94 Energy>
56.936

$$$$
Compound 4200
Actelion Java MolfileCreator 2.0

  0  0  0  0  0  0              0 V3000
M  V30 BEGIN CTAB
M  V30 COUNTS 83 88 0 0 0
M  V30 BEGIN ATOM
M  V30 1 O -8.1347 3.8171 1.217 0
M  V30 2 C -7.7821 2.7311 0.6896 0
M  V30 3 O -8.0914 2.3632 -0.6018 0
M  V30 4 C -6.9746 1.7171 1.3166 0
M  V30 5 C -7.5336 1.0781 -0.8546 0
M  V30 6 C -6.7715 0.7588 0.4148 0
M  V30 7 C -6.0099 -0.5261 0.7284 0 CFG=2
M  V30 8 C -4.4641 -0.361 0.8627 0 CFG=1
M  V30 9 C -6.1585 -1.6324 -0.3551 0
M  V30 10 C -3.9851 -0.563 -0.5974 0 CFG=1
M  V30 11 C -3.9142 1.0018 1.3679 0
M  V30 12 C -3.9976 -1.4788 1.862 0
M  V30 13 C -4.7966 -1.7801 -1.0595 0
M  V30 14 O -4.3865 0.5569 -1.3675 0
M  V30 15 C -2.431 -0.6826 -0.6417 0 CFG=2
M  V30 16 C -2.3676 1.0519 1.2951 0
M  V30 17 C -1.7848 0.6356 -0.0946 0 CFG=1
M  V30 18 C -1.8803 -0.9601 -2.0563 0
M  V30 19 C -0.1892 0.6408 -0.2075 0 CFG=2
M  V30 20 C -0.3609 -1.2182 -2.0475 0
M  V30 21 C 0.206 1.8003 -1.1235 0
M  V30 22 C 0.3433 -0.7349 -0.7557 0 CFG=1
M  V30 23 C 0.5239 0.8628 1.1637 0
M  V30 24 O 0.1943 1.6871 -2.3406 0
M  V30 25 C 1.8779 -0.7451 -0.9136 0
M  V30 26 C 2.0597 0.8363 1.0483 0
M  V30 27 C 2.5688 -0.4832 0.4328 0 CFG=2
M  V30 28 O 3.9642 -0.4082 0.2015 0
M  V30 29 C 4.729 -0.6244 1.3827 0 CFG=1
M  V30 30 O 5.5345 -1.7847 1.2467 0
M  V30 31 C 5.5875 0.6243 1.6916 0 CFG=1
M  V30 32 C 6.4581 -1.6582 0.1763 0 CFG=1
M  V30 33 O 6.1611 0.5051 2.97 0
M  V30 34 C 6.7072 0.8081 0.6443 0 CFG=1
M  V30 35 C 7.4652 -0.5195 0.4458 0 CFG=1
M  V30 36 C 7.1809 -2.9934 -0.0152 0
M  V30 37 O 6.1537 1.2031 -0.6029 0
M  V30 38 O 8.2314 -0.8174 1.5882 0
M  V30 39 C 6.1621 2.6073 -0.7399 0
M  V30 40 H -6.6134 1.7245 2.3368 0
M  V30 41 H -6.8679 1.1175 -1.7395 0
M  V30 42 H -8.3587 0.3513 -1.0054 0
M  V30 43 H -6.4511 -0.9109 1.6764 0
M  V30 44 H -6.4186 -2.5969 0.1307 0
M  V30 45 H -6.9507 -1.4272 -1.0968 0
M  V30 46 H -4.3105 1.8444 0.7622 0
M  V30 47 H -4.2326 1.1728 2.4183 0
M  V30 48 H -2.9038 -1.5387 2.0003 0
M  V30 49 H -4.3409 -2.4873 1.555 0
M  V30 50 H -4.429 -1.2807 2.8664 0
M  V30 51 H -4.295 -2.7235 -0.7531 0
M  V30 52 H -4.9251 -1.81 -2.162 0
M  V30 53 H -4.2535 0.3516 -2.329 0
M  V30 54 H -2.1316 -1.5441 -0.0141 0
M  V30 55 H -1.9531 0.4242 2.1062 0
M  V30 56 H -2.0614 2.0977 1.5127 0
M  V30 57 H -2.1617 1.4362 -0.7709 0
M  V30 58 H -2.0813 -0.0907 -2.7191 0
M  V30 59 H -2.3923 -1.8401 -2.4993 0
M  V30 60 H 0.0985 -0.7506 -2.9446 0
M  V30 61 H -0.1884 -2.3117 -2.1489 0
M  V30 62 H 0.4858 2.7581 -0.692 0
M  V30 63 H 0.1166 -1.5076 0.0153 0
M  V30 64 H 0.2331 1.8392 1.6086 0
M  V30 65 H 0.2323 0.0611 1.8777 0
M  V30 66 H 2.1977 0.0136 -1.6584 0
M  V30 67 H 2.2028 -1.7388 -1.2925 0
M  V30 68 H 2.4156 1.6948 0.4386 0
M  V30 69 H 2.4868 0.9593 2.0669 0
M  V30 70 H 2.3133 -1.3384 1.1046 0
M  V30 71 H 4.0913 -0.793 2.2821 0
M  V30 72 H 4.933 1.5266 1.6723 0
M  V30 73 H 5.9225 -1.4603 -0.7812 0
M  V30 74 H 5.4479 0.7106 3.6268 0
M  V30 75 H 7.4447 1.5536 1.0309 0
M  V30 76 H 8.1374 -0.4216 -0.4394 0
M  V30 77 H 6.4448 -3.7888 -0.2515 0
M  V30 78 H 7.727 -3.2817 0.9068 0
M  V30 79 H 7.9023 -2.923 -0.8572 0
M  V30 80 H 9.0333 -0.2323 1.5544 0
M  V30 81 H 5.5712 3.0968 0.0624 0
M  V30 82 H 5.6943 2.8687 -1.7101 0
M  V30 83 H 7.2014 3.0016 -0.7508 0
M  V30 END ATOM
M  V30 BEGIN BOND
M  V30 1 2 1 2
M  V30 2 1 2 3
M  V30 3 1 2 4
M  V30 4 1 3 5
M  V30 5 2 4 6
M  V30 6 1 6 7
M  V30 7 1 7 8
M  V30 8 1 7 9
M  V30 9 1 8 10
M  V30 10 1 8 11
M  V30 11 1 8 12
M  V30 12 1 9 13
M  V30 13 1 10 14
M  V30 14 1 10 15
M  V30 15 1 11 16
M  V30 16 1 15 17
M  V30 17 1 15 18
M  V30 18 1 17 19
M  V30 19 1 18 20
M  V30 20 1 19 21
M  V30 21 1 19 22
M  V30 22 1 19 23
M  V30 23 2 21 24
M  V30 24 1 22 25
M  V30 25 1 23 26
M  V30 26 1 25 27
M  V30 27 1 27 28
M  V30 28 1 28 29
M  V30 29 1 29 30
M  V30 30 1 29 31
M  V30 31 1 30 32
M  V30 32 1 31 33
M  V30 33 1 31 34
M  V30 34 1 32 35
M  V30 35 1 32 36
M  V30 36 1 34 37
M  V30 37 1 35 38
M  V30 38 1 37 39
M  V30 39 1 5 6
M  V30 40 1 10 13
M  V30 41 1 16 17
M  V30 42 1 20 22
M  V30 43 1 26 27
M  V30 44 1 34 35
M  V30 45 1 4 40
M  V30 46 1 5 41
M  V30 47 1 5 42
M  V30 48 1 7 43
M  V30 49 1 9 44
M  V30 50 1 9 45
M  V30 51 1 11 46
M  V30 52 1 11 47
M  V30 53 1 12 48
M  V30 54 1 12 49
M  V30 55 1 12 50
M  V30 56 1 13 51
M  V30 57 1 13 52
M  V30 58 1 14 53
M  V30 59 1 15 54
M  V30 60 1 16 55
M  V30 61 1 16 56
M  V30 62 1 17 57
M  V30 63 1 18 58
M  V30 64 1 18 59
M  V30 65 1 20 60
M  V30 66 1 20 61
M  V30 67 1 21 62
M  V30 68 1 22 63
M  V30 69 1 23 64
M  V30 70 1 23 65
M  V30 71 1 25 66
M  V30 72 1 25 67
M  V30 73 1 26 68
M  V30 74 1 26 69
M  V30 75 1 27 70
M  V30 76 1 29 71
M  V30 77 1 31 72
M  V30 78 1 32 73
M  V30 79 1 33 74
M  V30 80 1 34 75
M  V30 81 1 35 76
M  V30 82 1 36 77
M  V30 83 1 36 78
M  V30 84 1 36 79
M  V30 85 1 38 80
M  V30 86 1 39 81
M  V30 87 1 39 82
M  V30 88 1 39 83
M  V30 END BOND
M  V30 BEGIN COLLECTION
M  V30 MDLV30/STEABS ATOMS=(13 7 8 10 15 17 19 22 27 29 31 32 34 35)
M  V30 END COLLECTION
M  V30 END CTAB
M  END
>  <Structure No>
4200

>  <LogS>
-3.1373

>  <MMFF94 Energy>
174.81

$$$$
Compound 4201
Actelion Java MolfileCreator 2.0

  0  0  0  0  0  0              0 V3000
M  V30 BEGIN CTAB
M  V30 COUNTS 24 23 0 0 0
M  V30 BEGIN ATOM
M  V30 1 O 0.6387 -1.5975 -1.8373 0
M  V30 2 C 1.1592 -1.4592 -0.6984 0
M  V30 3 O 1.9938 -2.4555 -0.2073 0 CHG=-1
M  V30 4 C 0.8743 -0.2368 0.1468 0 CFG=2
M  V30 5 C -0.4378 -0.3719 0.9801 0 CFG=2
M  V30 6 C 0.9083 1.0606 -0.693 0
M  V30 7 C -0.3376 -1.5486 1.9214 0
M  V30 8 C -1.7449 -0.4443 0.1354 0
M  V30 9 C 2.3035 1.3602 -1.2435 0
M  V30 10 O -0.5632 -2.7199 1.5149 0
M  V30 11 O 0.0524 -1.348 3.2398 0 CHG=-1
M  V30 12 C -2.4542 0.9069 0.023 0
M  V30 13 H 1.704 -0.1549 0.8859 0
M  V30 14 H -0.4988 0.5268 1.6348 0
M  V30 15 H 0.1965 0.992 -1.5434 0
M  V30 16 H 0.604 1.92 -0.0567 0
M  V30 17 H -2.4718 -1.1438 0.6046 0
M  V30 18 H -1.5489 -0.8329 -0.8835 0
M  V30 19 H 2.2815 2.317 -1.8065 0
M  V30 20 H 3.035 1.4561 -0.4132 0
M  V30 21 H 2.6342 0.5555 -1.9331 0
M  V30 22 H -2.7338 1.2792 1.0316 0
M  V30 23 H -3.382 0.7889 -0.5756 0
M  V30 24 H -1.8131 1.6593 -0.4763 0
M  V30 END ATOM
M  V30 BEGIN BOND
M  V30 1 2 1 2
M  V30 2 1 2 3
M  V30 3 1 2 4
M  V30 4 1 4 5
M  V30 5 1 4 6
M  V30 6 1 5 7
M  V30 7 1 5 8
M  V30 8 1 6 9
M  V30 9 2 7 10
M  V30 10 1 7 11
M  V30 11 1 8 12
M  V30 12 1 4 13
M  V30 13 1 5 14
M  V30 14 1 6 15
M  V30 15 1 6 16
M  V30 16 1 8 17
M  V30 17 1 8 18
M  V30 18 1 9 19
M  V30 19 1 9 20
M  V30 20 1 9 21
M  V30 21 1 12 22
M  V30 22 1 12 23
M  V30 23 1 12 24
M  V30 END BOND
M  V30 BEGIN COLLECTION
M  V30 MDLV30/STEABS ATOMS=(2 4 5)
M  V30 END COLLECTION
M  V30 END CTAB
M  END
>  <Structure No>
4201

>  <LogS>
-0.8608

>  <MMFF94 Energy>
72.612

$$$$
Compound 4202
Actelion Java MolfileCreator 2.0

  0  0  0  0  0  0              0 V3000
M  V30 BEGIN CTAB
M  V30 COUNTS 16 15 0 0 0
M  V30 BEGIN ATOM
M  V30 1 O 2.309 -1.2734 0.7957 0
M  V30 2 C 1.8185 -0.7778 -0.2531 0
M  V30 3 O 2.1591 -1.3126 -1.489 0 CHG=-1
M  V30 4 C 0.8473 0.3671 -0.1708 0 CFG=2
M  V30 5 O 1.3822 1.369 0.6565 0
M  V30 6 C -0.5169 -0.0978 0.3925 0 CFG=2
M  V30 7 N -1.1407 -1.1077 -0.4743 0 CHG=1
M  V30 8 C -1.4433 1.0806 0.5491 0
M  V30 9 O -1.8245 1.4386 1.6946 0
M  V30 10 O -1.8757 1.7854 -0.5679 0 CHG=-1
M  V30 11 H 0.6882 0.7781 -1.1957 0
M  V30 12 H 2.0891 1.8286 0.1316 0
M  V30 13 H -0.3497 -0.5483 1.3983 0
M  V30 14 H -0.565 -1.9803 -0.484 0
M  V30 15 H -1.2371 -0.748 -1.4522 0
M  V30 16 H -2.0883 -1.3553 -0.1062 0
M  V30 END ATOM
M  V30 BEGIN BOND
M  V30 1 2 1 2
M  V30 2 1 2 3
M  V30 3 1 2 4
M  V30 4 1 4 5
M  V30 5 1 4 6
M  V30 6 1 6 7
M  V30 7 1 6 8
M  V30 8 2 8 9
M  V30 9 1 8 10
M  V30 10 1 4 11
M  V30 11 1 5 12
M  V30 12 1 6 13
M  V30 13 1 7 14
M  V30 14 1 7 15
M  V30 15 1 7 16
M  V30 END BOND
M  V30 BEGIN COLLECTION
M  V30 MDLV30/STEABS ATOMS=(2 4 6)
M  V30 END COLLECTION
M  V30 END CTAB
M  END
>  <Structure No>
4202

>  <LogS>
-0.8271

>  <MMFF94 Energy>
28.613

$$$$
Compound 4203
Actelion Java MolfileCreator 2.0

  0  0  0  0  0  0              0 V3000
M  V30 BEGIN CTAB
M  V30 COUNTS 32 31 0 0 0
M  V30 BEGIN ATOM
M  V30 1 O 0.8501 1.0821 1.933 0
M  V30 2 C 0.3068 0.6188 0.8941 0
M  V30 3 N 1.0133 0.6469 -0.3605 0
M  V30 4 N -1.0315 0.1071 0.9732 0
M  V30 5 C 1.9343 1.7548 -0.6465 0
M  V30 6 C 0.8278 -0.4277 -1.346 0
M  V30 7 C -2.1459 1.0205 0.6859 0
M  V30 8 C -1.2768 -1.1319 1.72 0
M  V30 9 C 3.3599 1.3917 -0.2464 0
M  V30 10 C 1.4941 -1.7176 -0.8764 0
M  V30 11 C -2.3606 1.1708 -0.8153 0
M  V30 12 C -2.0446 -2.1363 0.8659 0
M  V30 13 H 1.9089 2.0081 -1.7284 0
M  V30 14 H 1.6181 2.6678 -0.0955 0
M  V30 15 H 1.2706 -0.1418 -2.3246 0
M  V30 16 H -0.2521 -0.6107 -1.5174 0
M  V30 17 H -3.0878 0.6458 1.1427 0
M  V30 18 H -1.9403 2.0186 1.1314 0
M  V30 19 H -1.8522 -0.906 2.6439 0
M  V30 20 H -0.3158 -1.597 2.0317 0
M  V30 21 H 3.3977 1.0917 0.8218 0
M  V30 22 H 3.734 0.5581 -0.8759 0
M  V30 23 H 4.0226 2.2699 -0.3947 0
M  V30 24 H 2.5857 -1.5648 -0.7509 0
M  V30 25 H 1.3314 -2.5156 -1.6309 0
M  V30 26 H 1.0649 -2.052 0.089 0
M  V30 27 H -2.5678 0.1807 -1.2731 0
M  V30 28 H -3.2299 1.836 -1.001 0
M  V30 29 H -1.4652 1.6223 -1.2913 0
M  V30 30 H -1.4881 -2.3488 -0.0705 0
M  V30 31 H -2.1696 -3.0847 1.4296 0
M  V30 32 H -3.0506 -1.7432 0.6099 0
M  V30 END ATOM
M  V30 BEGIN BOND
M  V30 1 2 1 2
M  V30 2 1 2 3
M  V30 3 1 2 4
M  V30 4 1 3 5
M  V30 5 1 3 6
M  V30 6 1 4 7
M  V30 7 1 4 8
M  V30 8 1 5 9
M  V30 9 1 6 10
M  V30 10 1 7 11
M  V30 11 1 8 12
M  V30 12 1 5 13
M  V30 13 1 5 14
M  V30 14 1 6 15
M  V30 15 1 6 16
M  V30 16 1 7 17
M  V30 17 1 7 18
M  V30 18 1 8 19
M  V30 19 1 8 20
M  V30 20 1 9 21
M  V30 21 1 9 22
M  V30 22 1 9 23
M  V30 23 1 10 24
M  V30 24 1 10 25
M  V30 25 1 10 26
M  V30 26 1 11 27
M  V30 27 1 11 28
M  V30 28 1 11 29
M  V30 29 1 12 30
M  V30 30 1 12 31
M  V30 31 1 12 32
M  V30 END BOND
M  V30 END CTAB
M  END
>  <Structure No>
4203

>  <LogS>
-0.6341

>  <MMFF94 Energy>
-58.849

$$$$
Compound 4204
Actelion Java MolfileCreator 2.0

  0  0  0  0  0  0              0 V3000
M  V30 BEGIN CTAB
M  V30 COUNTS 26 25 0 0 0
M  V30 BEGIN ATOM
M  V30 1 O 0.236 3.1507 0.236 0
M  V30 2 C 0.2488 2.0308 0.8118 0
M  V30 3 O 0.0996 1.9714 2.1927 0 CHG=-1
M  V30 4 C 0.4822 0.7759 0.0145 0 CFG=1
M  V30 5 N 1.8365 0.2857 0.2871 0
M  V30 6 C -0.5476 -0.3278 0.3532 0
M  V30 7 C 2.6002 -0.4457 -0.6822 0
M  V30 8 C -1.8969 -0.1853 -0.3938 0
M  V30 9 O 2.1356 -0.6591 -1.8347 0
M  V30 10 C 3.9399 -0.9949 -0.3143 0
M  V30 11 C -2.7352 -1.4573 -0.2049 0
M  V30 12 C -2.7001 1.0368 0.0748 0
M  V30 13 H 0.4008 1.0308 -1.066 0
M  V30 14 H 2.2128 0.3537 1.2608 0
M  V30 15 H -0.1036 -1.3044 0.0573 0
M  V30 16 H -0.7179 -0.3844 1.4511 0
M  V30 17 H -1.6973 -0.0766 -1.483 0
M  V30 18 H 4.5373 -0.2134 0.2003 0
M  V30 19 H 3.8092 -1.8623 0.3654 0
M  V30 20 H 4.489 -1.324 -1.2221 0
M  V30 21 H -2.9685 -1.6158 0.8702 0
M  V30 22 H -3.6877 -1.3801 -0.7715 0
M  V30 23 H -2.1842 -2.343 -0.5871 0
M  V30 24 H -3.7157 1.0291 -0.3755 0
M  V30 25 H -2.8016 1.041 1.1814 0
M  V30 26 H -2.2091 1.9742 -0.2545 0
M  V30 END ATOM
M  V30 BEGIN BOND
M  V30 1 2 1 2
M  V30 2 1 2 3
M  V30 3 1 2 4
M  V30 4 1 4 5
M  V30 5 1 4 6
M  V30 6 1 5 7
M  V30 7 1 6 8
M  V30 8 2 7 9
M  V30 9 1 7 10
M  V30 10 1 8 11
M  V30 11 1 8 12
M  V30 12 1 4 13
M  V30 13 1 5 14
M  V30 14 1 6 15
M  V30 15 1 6 16
M  V30 16 1 8 17
M  V30 17 1 10 18
M  V30 18 1 10 19
M  V30 19 1 10 20
M  V30 20 1 11 21
M  V30 21 1 11 22
M  V30 22 1 11 23
M  V30 23 1 12 24
M  V30 24 1 12 25
M  V30 25 1 12 26
M  V30 END BOND
M  V30 BEGIN COLLECTION
M  V30 MDLV30/STEABS ATOMS=(1 4)
M  V30 END COLLECTION
M  V30 END CTAB
M  END
>  <Structure No>
4204

>  <LogS>
-1.3301

>  <MMFF94 Energy>
35.346

$$$$
Compound 4205
Actelion Java MolfileCreator 2.0

  0  0  0  0  0  0              0 V3000
M  V30 BEGIN CTAB
M  V30 COUNTS 16 16 0 0 0
M  V30 BEGIN ATOM
M  V30 1 O -2.063 2.5396 -0.9517 0
M  V30 2 C -2.1017 1.3238 -0.6233 0
M  V30 3 C -0.8685 0.5899 -0.2696 0
M  V30 4 C -0.9289 -0.7701 0.0955 0
M  V30 5 C 0.3792 1.2406 -0.2934 0
M  V30 6 O -2.1538 -1.4372 0.1269 0
M  V30 7 C 0.2473 -1.4568 0.4294 0
M  V30 8 C 1.5483 0.5494 0.0406 0
M  V30 9 C 1.4795 -0.8008 0.4021 0
M  V30 10 O 2.7723 1.2142 0.0101 0
M  V30 11 H -3.0607 0.8229 -0.6046 0
M  V30 12 H 0.4502 2.2852 -0.5708 0
M  V30 13 H -2.2202 -2.4145 0.3865 0
M  V30 14 H 0.2068 -2.5014 0.7106 0
M  V30 15 H 2.38 -1.3426 0.662 0
M  V30 16 H 3.6374 0.7423 0.2464 0
M  V30 END ATOM
M  V30 BEGIN BOND
M  V30 1 2 1 2
M  V30 2 1 2 3
M  V30 3 2 3 4
M  V30 4 1 3 5
M  V30 5 1 4 6
M  V30 6 1 4 7
M  V30 7 2 5 8
M  V30 8 2 7 9
M  V30 9 1 8 10
M  V30 10 1 8 9
M  V30 11 1 2 11
M  V30 12 1 5 12
M  V30 13 1 6 13
M  V30 14 1 7 14
M  V30 15 1 9 15
M  V30 16 1 10 16
M  V30 END BOND
M  V30 END CTAB
M  END
>  <Structure No>
4205

>  <LogS>
-1.0004

>  <MMFF94 Energy>
14.162

$$$$
Compound 4206
Actelion Java MolfileCreator 2.0

  0  0  0  0  0  0              0 V3000
M  V30 BEGIN CTAB
M  V30 COUNTS 26 26 0 0 0
M  V30 BEGIN ATOM
M  V30 1 O 3.9629 1.0292 0.2374 0
M  V30 2 C 3.4735 -0.1212 0.0805 0
M  V30 3 O 4.3209 -1.2028 -0.1246 0 CHG=-1
M  V30 4 C 1.9833 -0.3264 0.087 0 CFG=1
M  V30 5 C 1.3377 0.2888 -1.1772 0
M  V30 6 C 1.3507 0.2472 1.3649 0
M  V30 7 C -0.1586 0.6287 -1.0012 0
M  V30 8 C -0.1581 -0.0659 1.4458 0
M  V30 9 C -0.8347 -0.2612 0.0625 0 CFG=2
M  V30 10 C -2.3536 0.0125 0.1724 0
M  V30 11 N -3.0874 -0.4297 -1.016 0 CHG=1
M  V30 12 H 1.7929 -1.4235 0.0796 0
M  V30 13 H 1.4531 -0.4322 -2.0163 0
M  V30 14 H 1.8678 1.2212 -1.4736 0
M  V30 15 H 1.8581 -0.1708 2.2623 0
M  V30 16 H 1.4941 1.3511 1.3812 0
M  V30 17 H -0.2593 1.6949 -0.6986 0
M  V30 18 H -0.6565 0.5126 -1.9861 0
M  V30 19 H -0.3057 -0.9924 2.0434 0
M  V30 20 H -0.6493 0.7624 2.0036 0
M  V30 21 H -0.6957 -1.3243 -0.2382 0
M  V30 22 H -2.5343 1.0981 0.3394 0
M  V30 23 H -2.754 -0.5324 1.0571 0
M  V30 24 H -4.1129 -0.3878 -0.8157 0
M  V30 25 H -2.8355 -1.4154 -1.2581 0
M  V30 26 H -2.8892 0.2005 -1.8251 0
M  V30 END ATOM
M  V30 BEGIN BOND
M  V30 1 2 1 2
M  V30 2 1 2 3
M  V30 3 1 2 4
M  V30 4 1 4 5
M  V30 5 1 4 6
M  V30 6 1 5 7
M  V30 7 1 6 8
M  V30 8 1 7 9
M  V30 9 1 9 10
M  V30 10 1 10 11
M  V30 11 1 8 9
M  V30 12 1 4 12
M  V30 13 1 5 13
M  V30 14 1 5 14
M  V30 15 1 6 15
M  V30 16 1 6 16
M  V30 17 1 7 17
M  V30 18 1 7 18
M  V30 19 1 8 19
M  V30 20 1 8 20
M  V30 21 1 9 21
M  V30 22 1 10 22
M  V30 23 1 10 23
M  V30 24 1 11 24
M  V30 25 1 11 25
M  V30 26 1 11 26
M  V30 END BOND
M  V30 BEGIN COLLECTION
M  V30 MDLV30/STEABS ATOMS=(2 4 9)
M  V30 END COLLECTION
M  V30 END CTAB
M  END
>  <Structure No>
4206

>  <LogS>
0.0255

>  <MMFF94 Energy>
-76.323

$$$$
Compound 4207
Actelion Java MolfileCreator 2.0

  0  0  0  0  0  0              0 V3000
M  V30 BEGIN CTAB
M  V30 COUNTS 23 24 0 0 0
M  V30 BEGIN ATOM
M  V30 1 N 1.2686 -1.1892 -0.4755 0
M  V30 2 C -0.0871 -1.1951 -0.3891 0
M  V30 3 C 1.9989 -0.0609 -0.2791 0
M  V30 4 C -0.7872 -7.0E-4 -0.0858 0
M  V30 5 C -0.7872 -2.3882 -0.6014 0
M  V30 6 C 1.3543 1.1431 0.0226 0
M  V30 7 C 3.4896 -0.1127 -0.3866 0
M  V30 8 C -0.0453 1.1872 0.1227 0
M  V30 9 C -2.195 -0.0405 -0.0034 0
M  V30 10 C -2.1805 -2.4089 -0.5158 0
M  V30 11 C -0.7155 2.4971 0.4489 0
M  V30 12 C -2.8816 -1.2391 -0.2177 0
M  V30 13 H -0.2524 -3.301 -0.833 0
M  V30 14 H 1.9437 2.0392 0.178 0
M  V30 15 H 3.8284 -1.1419 -0.6307 0
M  V30 16 H 3.832 0.5747 -1.1884 0
M  V30 17 H 3.9462 0.1933 0.578 0
M  V30 18 H -2.7731 0.8446 0.2251 0
M  V30 19 H -2.7181 -3.3337 -0.6806 0
M  V30 20 H -1.2885 2.401 1.395 0
M  V30 21 H 0.0228 3.3168 0.5783 0
M  V30 22 H -1.403 2.7832 -0.3745 0
M  V30 23 H -3.9619 -1.2608 -0.1526 0
M  V30 END ATOM
M  V30 BEGIN BOND
M  V30 1 1 1 2
M  V30 2 2 1 3
M  V30 3 1 2 4
M  V30 4 2 2 5
M  V30 5 1 3 6
M  V30 6 1 3 7
M  V30 7 1 4 8
M  V30 8 2 4 9
M  V30 9 1 5 10
M  V30 10 1 8 11
M  V30 11 1 9 12
M  V30 12 2 6 8
M  V30 13 2 10 12
M  V30 14 1 5 13
M  V30 15 1 6 14
M  V30 16 1 7 15
M  V30 17 1 7 16
M  V30 18 1 7 17
M  V30 19 1 9 18
M  V30 20 1 10 19
M  V30 21 1 11 20
M  V30 22 1 11 21
M  V30 23 1 11 22
M  V30 24 1 12 23
M  V30 END BOND
M  V30 END CTAB
M  END
>  <Structure No>
4207

>  <LogS>
-1.9424

>  <MMFF94 Energy>
39.224

$$$$
Compound 4208
Actelion Java MolfileCreator 2.0

  0  0  0  0  0  0              0 V3000
M  V30 BEGIN CTAB
M  V30 COUNTS 24 24 0 0 0
M  V30 BEGIN ATOM
M  V30 1 O -0.5586 -1.5169 1.3571 0
M  V30 2 C -0.1902 -0.6859 0.4819 0
M  V30 3 N -1.1608 -0.1317 -0.4227 0
M  V30 4 C 1.2416 -0.3106 0.3946 0
M  V30 5 C -2.6007 -0.3421 -0.2373 0 CFG=1
M  V30 6 C 2.2289 -1.1804 0.895 0
M  V30 7 C 1.6387 0.9214 -0.1597 0
M  V30 8 C -3.0847 0.4202 0.9625 0
M  V30 9 C -3.3767 0.0948 -1.4828 0
M  V30 10 C 3.5816 -0.834 0.8234 0
M  V30 11 C 2.9932 1.2629 -0.2277 0
M  V30 12 O -2.7811 1.6338 1.1126 0
M  V30 13 O -3.8989 -0.2039 1.8991 0 CHG=-1
M  V30 14 C 3.9637 0.3854 0.2604 0
M  V30 15 H -0.829 0.3871 -1.2668 0
M  V30 16 H -2.7919 -1.4273 -0.0835 0
M  V30 17 H 1.9554 -2.133 1.3319 0
M  V30 18 H 0.9083 1.6342 -0.5185 0
M  V30 19 H -3.2179 1.1762 -1.6851 0
M  V30 20 H -3.0338 -0.4879 -2.3641 0
M  V30 21 H -4.4634 -0.0906 -1.3422 0
M  V30 22 H 4.3342 -1.5119 1.2049 0
M  V30 23 H 3.29 2.2129 -0.6534 0
M  V30 24 H 5.0112 0.6527 0.2072 0
M  V30 END ATOM
M  V30 BEGIN BOND
M  V30 1 2 1 2
M  V30 2 1 2 3
M  V30 3 1 2 4
M  V30 4 1 3 5
M  V30 5 2 4 6
M  V30 6 1 4 7
M  V30 7 1 5 8
M  V30 8 1 5 9
M  V30 9 1 6 10
M  V30 10 2 7 11
M  V30 11 2 8 12
M  V30 12 1 8 13
M  V30 13 2 10 14
M  V30 14 1 11 14
M  V30 15 1 3 15
M  V30 16 1 5 16
M  V30 17 1 6 17
M  V30 18 1 7 18
M  V30 19 1 9 19
M  V30 20 1 9 20
M  V30 21 1 9 21
M  V30 22 1 10 22
M  V30 23 1 11 23
M  V30 24 1 14 24
M  V30 END BOND
M  V30 BEGIN COLLECTION
M  V30 MDLV30/STEABS ATOMS=(1 5)
M  V30 END COLLECTION
M  V30 END CTAB
M  END
>  <Structure No>
4208

>  <LogS>
-1.6839

>  <MMFF94 Energy>
63.703

$$$$
Compound 4209
Actelion Java MolfileCreator 2.0

  0  0  0  0  0  0              0 V3000
M  V30 BEGIN CTAB
M  V30 COUNTS 25 25 0 0 0
M  V30 BEGIN ATOM
M  V30 1 O -0.2373 0.2373 -2.5334 0
M  V30 2 C -0.3997 0.017 -1.3015 0
M  V30 3 N 0.7462 -0.2209 -0.4689 0
M  V30 4 C -1.7736 -0.0089 -0.7434 0
M  V30 5 C 2.104 -0.042 -0.9809 0
M  V30 6 C -2.0128 0.2615 0.6177 0
M  V30 7 C -2.869 -0.2824 -1.5843 0
M  V30 8 C 3.1117 -0.3157 0.0902 0
M  V30 9 C -3.3158 0.239 1.1255 0
M  V30 10 C -4.1694 -0.3045 -1.0706 0
M  V30 11 O 3.5905 -1.4756 0.2181 0
M  V30 12 O 3.475 0.7078 0.9697 0
M  V30 13 C -4.3925 -0.0463 0.2833 0
M  V30 14 C 4.4047 0.5134 2.0286 0
M  V30 15 H 0.609 -0.5822 0.5021 0
M  V30 16 H 2.2305 1.003 -1.3364 0
M  V30 17 H 2.2729 -0.7287 -1.8385 0
M  V30 18 H -1.2029 0.5153 1.2882 0
M  V30 19 H -2.719 -0.4899 -2.6365 0
M  V30 20 H -3.4914 0.45 2.1726 0
M  V30 21 H -5.0049 -0.522 -1.7236 0
M  V30 22 H -5.3999 -0.0624 0.6787 0
M  V30 23 H 4.5302 1.4659 2.5832 0
M  V30 24 H 4.0278 -0.2629 2.7276 0
M  V30 25 H 5.389 0.2032 1.6181 0
M  V30 END ATOM
M  V30 BEGIN BOND
M  V30 1 2 1 2
M  V30 2 1 2 3
M  V30 3 1 2 4
M  V30 4 1 3 5
M  V30 5 2 4 6
M  V30 6 1 4 7
M  V30 7 1 5 8
M  V30 8 1 6 9
M  V30 9 2 7 10
M  V30 10 2 8 11
M  V30 11 1 8 12
M  V30 12 2 9 13
M  V30 13 1 12 14
M  V30 14 1 10 13
M  V30 15 1 3 15
M  V30 16 1 5 16
M  V30 17 1 5 17
M  V30 18 1 6 18
M  V30 19 1 7 19
M  V30 20 1 9 20
M  V30 21 1 10 21
M  V30 22 1 13 22
M  V30 23 1 14 23
M  V30 24 1 14 24
M  V30 25 1 14 25
M  V30 END BOND
M  V30 END CTAB
M  END
>  <Structure No>
4209

>  <LogS>
-1.0556

>  <MMFF94 Energy>
31.107

$$$$
Compound 4210
Actelion Java MolfileCreator 2.0

  0  0  0  0  0  0              0 V3000
M  V30 BEGIN CTAB
M  V30 COUNTS 26 28 0 0 0
M  V30 BEGIN ATOM
M  V30 1 S 0.082 -1.5594 1.8057 0
M  V30 2 C 1.3512 -0.8386 0.7616 0
M  V30 3 C -1.2519 -1.0985 0.6972 0
M  V30 4 C 1.1631 0.4537 0.2348 0
M  V30 5 C 2.5483 -1.5266 0.5383 0
M  V30 6 C -1.2975 0.2079 0.174 0
M  V30 7 C -2.2773 -2.0084 0.419 0
M  V30 8 N -0.1433 1.0664 0.3117 0
M  V30 9 C 2.2104 1.0582 -0.4845 0
M  V30 10 C 3.5792 -0.9183 -0.1819 0
M  V30 11 C -2.4072 0.5972 -0.5986 0
M  V30 12 C -3.3716 -1.6124 -0.3537 0
M  V30 13 C -0.2891 2.5246 0.317 0
M  V30 14 C 3.4142 0.3753 -0.6836 0
M  V30 15 C -3.4413 -0.3091 -0.8529 0
M  V30 16 H 2.6911 -2.5195 0.9451 0
M  V30 17 H -2.2408 -3.0119 0.8233 0
M  V30 18 H 2.0866 2.0389 -0.9243 0
M  V30 19 H 4.5094 -1.4469 -0.3451 0
M  V30 20 H -2.4584 1.5851 -1.0366 0
M  V30 21 H -4.17 -2.3134 -0.5596 0
M  V30 22 H 0.5516 2.9937 0.8709 0
M  V30 23 H -0.3014 2.9058 -0.7255 0
M  V30 24 H -1.2321 2.8155 0.8269 0
M  V30 25 H 4.2135 0.8423 -1.2442 0
M  V30 26 H -4.2887 -0.0065 -1.4543 0
M  V30 END ATOM
M  V30 BEGIN BOND
M  V30 1 1 1 2
M  V30 2 1 1 3
M  V30 3 2 2 4
M  V30 4 1 2 5
M  V30 5 2 3 6
M  V30 6 1 3 7
M  V30 7 1 4 8
M  V30 8 1 4 9
M  V30 9 2 5 10
M  V30 10 1 6 11
M  V30 11 2 7 12
M  V30 12 1 8 13
M  V30 13 2 9 14
M  V30 14 2 11 15
M  V30 15 1 6 8
M  V30 16 1 10 14
M  V30 17 1 12 15
M  V30 18 1 5 16
M  V30 19 1 7 17
M  V30 20 1 9 18
M  V30 21 1 10 19
M  V30 22 1 11 20
M  V30 23 1 12 21
M  V30 24 1 13 22
M  V30 25 1 13 23
M  V30 26 1 13 24
M  V30 27 1 14 25
M  V30 28 1 15 26
M  V30 END BOND
M  V30 END CTAB
M  END
>  <Structure No>
4210

>  <LogS>
-5.5934

>  <MMFF94 Energy>
65.101

$$$$
Compound 4211
Actelion Java MolfileCreator 2.0

  0  0  0  0  0  0              0 V3000
M  V30 BEGIN CTAB
M  V30 COUNTS 40 40 0 0 0
M  V30 BEGIN ATOM
M  V30 1 O 2.5202 1.4958 -1.417 0
M  V30 2 C 2.5406 0.7987 -0.365 0
M  V30 3 O 1.4804 0.8726 0.5477 0
M  V30 4 C 3.6876 -0.0937 -0.0885 0
M  V30 5 C 0.3088 1.657 0.3319 0
M  V30 6 C 3.7133 -0.8751 1.0804 0
M  V30 7 C 4.7668 -0.1765 -0.9879 0
M  V30 8 C -0.6151 0.9731 -0.6795 0
M  V30 9 C 4.7955 -1.7204 1.3435 0
M  V30 10 C 5.8472 -1.0231 -0.721 0
M  V30 11 C -1.9111 1.7749 -0.8698 0
M  V30 12 C 5.8654 -1.7963 0.443 0
M  V30 13 C -2.8276 1.1772 -1.9504 0
M  V30 14 O 6.9485 -2.635 0.6953 0
M  V30 15 C -3.426 -0.1994 -1.6027 0
M  V30 16 C -4.3881 -0.1729 -0.3957 0
M  V30 17 C -3.7463 -0.7502 0.8745 0
M  V30 18 C -4.7173 -0.7067 2.0509 0
M  V30 19 H -0.2242 1.7583 1.3014 0
M  V30 20 H 0.5889 2.6757 -0.0155 0
M  V30 21 H 2.8982 -0.8348 1.792 0
M  V30 22 H 4.7769 0.4116 -1.8969 0
M  V30 23 H -0.8459 -0.0468 -0.3084 0
M  V30 24 H -0.0917 0.8812 -1.6552 0
M  V30 25 H 4.8011 -2.3159 2.2477 0
M  V30 26 H 6.6717 -1.078 -1.4206 0
M  V30 27 H -2.4577 1.8645 0.0921 0
M  V30 28 H -1.6445 2.8068 -1.1871 0
M  V30 29 H -2.2553 1.0876 -2.8995 0
M  V30 30 H -3.6587 1.8901 -2.1444 0
M  V30 31 H 6.9913 -3.208 1.5301 0
M  V30 32 H -4.0038 -0.5334 -2.4923 0
M  V30 33 H -2.6221 -0.9537 -1.4677 0
M  V30 34 H -5.2808 -0.7892 -0.6427 0
M  V30 35 H -4.7512 0.8607 -0.2033 0
M  V30 36 H -3.4498 -1.8065 0.6946 0
M  V30 37 H -2.8369 -0.1764 1.1456 0
M  V30 38 H -4.2297 -1.1359 2.9515 0
M  V30 39 H -5.6277 -1.3009 1.8228 0
M  V30 40 H -5.0089 0.3423 2.2712 0
M  V30 END ATOM
M  V30 BEGIN BOND
M  V30 1 2 1 2
M  V30 2 1 2 3
M  V30 3 1 2 4
M  V30 4 1 3 5
M  V30 5 2 4 6
M  V30 6 1 4 7
M  V30 7 1 5 8
M  V30 8 1 6 9
M  V30 9 2 7 10
M  V30 10 1 8 11
M  V30 11 2 9 12
M  V30 12 1 11 13
M  V30 13 1 12 14
M  V30 14 1 13 15
M  V30 15 1 15 16
M  V30 16 1 16 17
M  V30 17 1 17 18
M  V30 18 1 10 12
M  V30 19 1 5 19
M  V30 20 1 5 20
M  V30 21 1 6 21
M  V30 22 1 7 22
M  V30 23 1 8 23
M  V30 24 1 8 24
M  V30 25 1 9 25
M  V30 26 1 10 26
M  V30 27 1 11 27
M  V30 28 1 11 28
M  V30 29 1 13 29
M  V30 30 1 13 30
M  V30 31 1 14 31
M  V30 32 1 15 32
M  V30 33 1 15 33
M  V30 34 1 16 34
M  V30 35 1 16 35
M  V30 36 1 17 36
M  V30 37 1 17 37
M  V30 38 1 18 38
M  V30 39 1 18 39
M  V30 40 1 18 40
M  V30 END BOND
M  V30 END CTAB
M  END
>  <Structure No>
4211

>  <LogS>
-4.2224

>  <MMFF94 Energy>
16.204

$$$$
Compound 4212
Actelion Java MolfileCreator 2.0

  0  0  0  0  0  0              0 V3000
M  V30 BEGIN CTAB
M  V30 COUNTS 45 47 0 0 0
M  V30 BEGIN ATOM
M  V30 1 O 4.3174 1.5174 0.479 0
M  V30 2 C 3.0595 2.0552 0.8488 0
M  V30 3 C 4.4653 0.2172 1.0178 0
M  V30 4 C 1.9117 1.1643 0.4361 0
M  V30 5 C 3.5384 -0.7713 0.2869 0 CFG=1
M  V30 6 C 2.1342 -0.2166 0.2316 0
M  V30 7 C 0.6072 1.6821 0.3698 0
M  V30 8 C 4.0512 -1.0507 -1.1316 0
M  V30 9 C 1.0495 -1.0616 -0.0655 0
M  V30 10 C -0.4557 0.8258 0.0547 0
M  V30 11 C -0.2388 -0.5196 -0.1585 0
M  V30 12 C -1.9072 1.1915 -0.0194 0
M  V30 13 C -1.5088 -1.2719 -0.417 0
M  V30 14 C -2.5459 -0.1101 -0.6236 0 CFG=1
M  V30 15 C -2.4144 1.5378 1.398 0
M  V30 16 C -2.1226 2.3983 -0.9564 0
M  V30 17 C -1.3863 -2.1353 -1.6898 0
M  V30 18 C -1.8158 -2.1769 0.7966 0
M  V30 19 C -3.9861 -0.4163 -0.1686 0
M  V30 20 H 3.0212 2.2334 1.9467 0
M  V30 21 H 2.9491 3.042 0.3511 0
M  V30 22 H 5.5235 -0.0999 0.9004 0
M  V30 23 H 4.2556 0.2063 2.1131 0
M  V30 24 H 3.5327 -1.7283 0.8544 0
M  V30 25 H 0.4243 2.7299 0.5717 0
M  V30 26 H 3.3981 -1.793 -1.638 0
M  V30 27 H 5.0789 -1.4704 -1.0922 0
M  V30 28 H 4.0664 -0.1176 -1.7355 0
M  V30 29 H 1.2086 -2.1215 -0.2171 0
M  V30 30 H -2.6329 0.0532 -1.7233 0
M  V30 31 H -1.8557 2.4059 1.8098 0
M  V30 32 H -2.2757 0.6853 2.0938 0
M  V30 33 H -3.4902 1.8127 1.3762 0
M  V30 34 H -1.6775 3.3209 -0.5265 0
M  V30 35 H -1.6536 2.2171 -1.9479 0
M  V30 36 H -3.209 2.5755 -1.1073 0
M  V30 37 H -0.6589 -2.9619 -1.5423 0
M  V30 38 H -1.0433 -1.5222 -2.5514 0
M  V30 39 H -2.3712 -2.5818 -1.9446 0
M  V30 40 H -1.9134 -1.5817 1.7275 0
M  V30 41 H -2.7544 -2.7484 0.6355 0
M  V30 42 H -0.9977 -2.9134 0.9493 0
M  V30 43 H -4.0466 -0.6025 0.9231 0
M  V30 44 H -4.3662 -1.313 -0.7021 0
M  V30 45 H -4.6493 0.4385 -0.419 0
M  V30 END ATOM
M  V30 BEGIN BOND
M  V30 1 1 1 2
M  V30 2 1 1 3
M  V30 3 1 2 4
M  V30 4 1 3 5
M  V30 5 2 4 6
M  V30 6 1 4 7
M  V30 7 1 5 8
M  V30 8 1 6 9
M  V30 9 2 7 10
M  V30 10 2 9 11
M  V30 11 1 10 12
M  V30 12 1 11 13
M  V30 13 1 12 14
M  V30 14 1 12 15
M  V30 15 1 12 16
M  V30 16 1 13 17
M  V30 17 1 13 18
M  V30 18 1 14 19
M  V30 19 1 5 6
M  V30 20 1 10 11
M  V30 21 1 13 14
M  V30 22 1 2 20
M  V30 23 1 2 21
M  V30 24 1 3 22
M  V30 25 1 3 23
M  V30 26 1 5 24
M  V30 27 1 7 25
M  V30 28 1 8 26
M  V30 29 1 8 27
M  V30 30 1 8 28
M  V30 31 1 9 29
M  V30 32 1 14 30
M  V30 33 1 15 31
M  V30 34 1 15 32
M  V30 35 1 15 33
M  V30 36 1 16 34
M  V30 37 1 16 35
M  V30 38 1 16 36
M  V30 39 1 17 37
M  V30 40 1 17 38
M  V30 41 1 17 39
M  V30 42 1 18 40
M  V30 43 1 18 41
M  V30 44 1 18 42
M  V30 45 1 19 43
M  V30 46 1 19 44
M  V30 47 1 19 45
M  V30 END BOND
M  V30 BEGIN COLLECTION
M  V30 MDLV30/STEABS ATOMS=(2 5 14)
M  V30 END COLLECTION
M  V30 END CTAB
M  END
>  <Structure No>
4212

>  <LogS>
-5.1693

>  <MMFF94 Energy>
81.267

$$$$
Compound 4213
Actelion Java MolfileCreator 2.0

  0  0  0  0  0  0              0 V3000
M  V30 BEGIN CTAB
M  V30 COUNTS 44 47 0 0 0
M  V30 BEGIN ATOM
M  V30 1 N -0.7165 -0.7962 -0.3184 0 CHG=1
M  V30 2 C 0.5294 -0.3763 0.1056 0
M  V30 3 C -1.6644 0.1282 -0.7307 0
M  V30 4 C -1.0315 -2.2507 -0.3104 0
M  V30 5 C 0.8954 0.9899 0.041 0
M  V30 6 C 1.5158 -1.3543 0.6376 0
M  V30 7 C -1.3351 1.5156 -0.8144 0
M  V30 8 C -2.9878 -0.2682 -1.0725 0
M  V30 9 C -1.7485 -2.655 0.9778 0
M  V30 10 C -0.0328 1.945 -0.4418 0
M  V30 11 C 2.185 1.419 0.4446 0
M  V30 12 C 1.574 -1.6193 2.0141 0
M  V30 13 C 2.4249 -1.9811 -0.2289 0
M  V30 14 C -2.3295 2.4261 -1.2577 0
M  V30 15 C -3.9424 0.6528 -1.5056 0
M  V30 16 C 0.3802 3.3013 -0.5231 0
M  V30 17 C 2.5604 2.7602 0.3636 0
M  V30 18 C 2.5173 -2.5213 2.5152 0
M  V30 19 C 3.367 -2.8822 0.2759 0
M  V30 20 C -3.6056 1.9959 -1.6007 0
M  V30 21 N -5.2638 0.2195 -1.8436 0
M  V30 22 C 1.6551 3.6957 -0.1248 0
M  V30 23 N 3.8681 3.1705 0.774 0
M  V30 24 C 3.4118 -3.1538 1.6467 0
M  V30 25 H -0.1252 -2.8781 -0.4214 0
M  V30 26 H -1.6232 -2.5413 -1.202 0
M  V30 27 H -3.3216 -1.2896 -0.9937 0
M  V30 28 H -2.0223 -3.7297 0.9289 0
M  V30 29 H -1.0856 -2.4996 1.8522 0
M  V30 30 H -2.6719 -2.059 1.1255 0
M  V30 31 H 2.919 0.72 0.8227 0
M  V30 32 H 0.8921 -1.1255 2.6954 0
M  V30 33 H 2.3994 -1.7724 -1.2913 0
M  V30 34 H -2.1642 3.4853 -1.3435 0
M  V30 35 H -0.2501 4.0895 -0.8948 0
M  V30 36 H 2.5575 -2.7273 3.5769 0
M  V30 37 H 4.0636 -3.3683 -0.3946 0
M  V30 38 H -4.3405 2.719 -1.9332 0
M  V30 39 H -5.985 0.9029 -2.1659 0
M  V30 40 H -5.5326 -0.7873 -1.7752 0
M  V30 41 H 1.9376 4.7387 -0.1986 0
M  V30 42 H 4.5571 2.4767 1.1409 0
M  V30 43 H 4.1576 4.1723 0.7147 0
M  V30 44 H 4.1422 -3.8509 2.0363 0
M  V30 END ATOM
M  V30 BEGIN BOND
M  V30 1 2 1 2
M  V30 2 1 1 3
M  V30 3 1 1 4
M  V30 4 1 2 5
M  V30 5 1 2 6
M  V30 6 1 3 7
M  V30 7 2 3 8
M  V30 8 1 4 9
M  V30 9 1 5 10
M  V30 10 2 5 11
M  V30 11 2 6 12
M  V30 12 1 6 13
M  V30 13 2 7 14
M  V30 14 1 8 15
M  V30 15 2 10 16
M  V30 16 1 11 17
M  V30 17 1 12 18
M  V30 18 2 13 19
M  V30 19 1 14 20
M  V30 20 1 15 21
M  V30 21 1 16 22
M  V30 22 1 17 23
M  V30 23 2 18 24
M  V30 24 1 7 10
M  V30 25 2 15 20
M  V30 26 2 17 22
M  V30 27 1 19 24
M  V30 28 1 4 25
M  V30 29 1 4 26
M  V30 30 1 8 27
M  V30 31 1 9 28
M  V30 32 1 9 29
M  V30 33 1 9 30
M  V30 34 1 11 31
M  V30 35 1 12 32
M  V30 36 1 13 33
M  V30 37 1 14 34
M  V30 38 1 16 35
M  V30 39 1 18 36
M  V30 40 1 19 37
M  V30 41 1 20 38
M  V30 42 1 21 39
M  V30 43 1 21 40
M  V30 44 1 22 41
M  V30 45 1 23 42
M  V30 46 1 23 43
M  V30 47 1 24 44
M  V30 END BOND
M  V30 END CTAB
M  END
>  <Structure No>
4213

>  <LogS>
-1.2948

>  <MMFF94 Energy>
87.034

$$$$
Compound 4214
Actelion Java MolfileCreator 2.0

  0  0  0  0  0  0              0 V3000
M  V30 BEGIN CTAB
M  V30 COUNTS 53 56 0 0 0
M  V30 BEGIN ATOM
M  V30 1 O -2.3829 2.4624 0.635 0
M  V30 2 C -2.2218 1.2222 0.7919 0
M  V30 3 N -3.1222 0.2877 0.4307 0
M  V30 4 C -1.0998 0.6172 1.3236 0
M  V30 5 N -2.6245 -0.9085 0.7322 0
M  V30 6 C -4.382 0.5422 -0.2152 0
M  V30 7 C -1.3914 -0.7434 1.2732 0
M  V30 8 C 0.1701 1.2886 1.7681 0
M  V30 9 C -3.2853 -2.1903 0.4704 0
M  V30 10 C -4.6808 -0.0538 -1.4507 0
M  V30 11 C -5.31 1.4189 0.3691 0
M  V30 12 C -0.4875 -1.8646 1.6946 0
M  V30 13 C 1.3011 0.9787 0.8265 0
M  V30 14 C -5.8999 0.2094 -2.0827 0
M  V30 15 C -6.5282 1.6805 -0.2655 0
M  V30 16 C 2.4507 0.2654 1.1041 0
M  V30 17 C 1.4302 1.3229 -0.5154 0
M  V30 18 C -6.8239 1.0745 -1.4898 0
M  V30 19 O 2.768 -0.2077 2.2286 0
M  V30 20 N 3.2108 0.1664 -0.0041 0
M  V30 21 N 2.5803 0.7884 -0.9972 0
M  V30 22 C 0.4339 2.0969 -1.3266 0
M  V30 23 C 4.4895 -0.487 -0.0912 0
M  V30 24 C 3.0497 0.866 -2.3834 0
M  V30 25 C 5.6093 0.2054 -0.5795 0
M  V30 26 C 4.6351 -1.8151 0.3402 0
M  V30 27 C 6.8537 -0.4281 -0.6487 0
M  V30 28 C 5.8809 -2.4458 0.2693 0
M  V30 29 C 6.9895 -1.7532 -0.2254 0
M  V30 30 H 0.0273 2.3888 1.8119 0
M  V30 31 H 0.4193 0.9468 2.7947 0
M  V30 32 H -3.0115 -2.9383 1.2419 0
M  V30 33 H -4.3883 -2.0744 0.5036 0
M  V30 34 H -2.9806 -2.5692 -0.5271 0
M  V30 35 H -3.9646 -0.7093 -1.9288 0
M  V30 36 H -5.0913 1.89 1.3191 0
M  V30 37 H -1.0192 -2.5334 2.402 0
M  V30 38 H 0.4135 -1.4818 2.2106 0
M  V30 39 H -0.1743 -2.4432 0.8013 0
M  V30 40 H -6.1264 -0.2532 -3.0345 0
M  V30 41 H -7.2427 2.3527 0.1914 0
M  V30 42 H -7.7668 1.2781 -1.9806 0
M  V30 43 H -0.3111 1.4001 -1.7627 0
M  V30 44 H 0.941 2.6531 -2.1411 0
M  V30 45 H -0.0849 2.8402 -0.6889 0
M  V30 46 H 2.1909 0.8232 -3.0856 0
M  V30 47 H 3.7096 0.0076 -2.624 0
M  V30 48 H 3.603 1.8156 -2.537 0
M  V30 49 H 5.5191 1.237 -0.894 0
M  V30 50 H 3.782 -2.3619 0.7218 0
M  V30 51 H 7.714 0.1097 -1.0251 0
M  V30 52 H 5.9875 -3.471 0.5993 0
M  V30 53 H 7.9538 -2.2417 -0.2784 0
M  V30 END ATOM
M  V30 BEGIN BOND
M  V30 1 2 1 2
M  V30 2 1 2 3
M  V30 3 1 2 4
M  V30 4 1 3 5
M  V30 5 1 3 6
M  V30 6 2 4 7
M  V30 7 1 4 8
M  V30 8 1 5 9
M  V30 9 2 6 10
M  V30 10 1 6 11
M  V30 11 1 7 12
M  V30 12 1 8 13
M  V30 13 1 10 14
M  V30 14 2 11 15
M  V30 15 1 13 16
M  V30 16 2 13 17
M  V30 17 2 14 18
M  V30 18 2 16 19
M  V30 19 1 16 20
M  V30 20 1 17 21
M  V30 21 1 17 22
M  V30 22 1 20 23
M  V30 23 1 21 24
M  V30 24 2 23 25
M  V30 25 1 23 26
M  V30 26 1 25 27
M  V30 27 2 26 28
M  V30 28 2 27 29
M  V30 29 1 5 7
M  V30 30 1 15 18
M  V30 31 1 20 21
M  V30 32 1 28 29
M  V30 33 1 8 30
M  V30 34 1 8 31
M  V30 35 1 9 32
M  V30 36 1 9 33
M  V30 37 1 9 34
M  V30 38 1 10 35
M  V30 39 1 11 36
M  V30 40 1 12 37
M  V30 41 1 12 38
M  V30 42 1 12 39
M  V30 43 1 14 40
M  V30 44 1 15 41
M  V30 45 1 18 42
M  V30 46 1 22 43
M  V30 47 1 22 44
M  V30 48 1 22 45
M  V30 49 1 24 46
M  V30 50 1 24 47
M  V30 51 1 24 48
M  V30 52 1 25 49
M  V30 53 1 26 50
M  V30 54 1 27 51
M  V30 55 1 28 52
M  V30 56 1 29 53
M  V30 END BOND
M  V30 END CTAB
M  END
>  <Structure No>
4214

>  <LogS>
-2.9549

>  <MMFF94 Energy>
116.8

$$$$
Compound 4215
Actelion Java MolfileCreator 2.0

  0  0  0  0  0  0              0 V3000
M  V30 BEGIN CTAB
M  V30 COUNTS 54 57 0 0 0
M  V30 BEGIN ATOM
M  V30 1 O 1.8822 0.5725 -2.3737 0
M  V30 2 C 2.1701 0.3955 -1.1593 0
M  V30 3 C 1.092 0.4163 -0.1372 0
M  V30 4 C 3.5943 0.343 -0.732 0
M  V30 5 C -0.2294 0.0101 -0.438 0
M  V30 6 C 1.3968 0.9168 1.1425 0
M  V30 7 C 3.9016 0.8325 0.5518 0
M  V30 8 C 4.6379 -0.1364 -1.5757 0
M  V30 9 O -0.5248 -0.6539 -1.6344 0
M  V30 10 C -1.2768 0.2338 0.4849 0
M  V30 11 C 2.8116 1.2558 1.4644 0
M  V30 12 C 0.3705 1.0631 2.097 0
M  V30 13 C 5.2362 0.9214 0.9635 0
M  V30 14 C 5.9881 -0.0192 -1.1444 0
M  V30 15 C 4.3104 -0.7216 -2.9348 0
M  V30 16 C -0.9558 0.7217 1.7811 0
M  V30 17 C -2.7034 -0.1156 0.0572 0 CFG=2
M  V30 18 O 3.0947 1.8906 2.5171 0
M  V30 19 O 0.6768 1.5407 3.3748 0
M  V30 20 C 6.2735 0.5137 0.1294 0
M  V30 21 C 7.1089 -0.4284 -2.011 0
M  V30 22 O -1.9102 0.861 2.7954 0
M  V30 23 O -3.6449 0.7745 0.6318 0
M  V30 24 C -3.0613 -1.6066 0.34 0 CFG=1
M  V30 25 O 7.5815 0.6336 0.6076 0
M  V30 26 O 7.3193 -1.6477 -2.2432 0
M  V30 27 O 7.964 0.5313 -2.5386 0 CHG=-1
M  V30 28 C -4.948 0.6555 0.0617 0 CFG=2
M  V30 29 O -2.3553 -2.1391 1.4349 0
M  V30 30 C -4.587 -1.7976 0.5178 0 CFG=1
M  V30 31 C -5.3471 -0.7925 -0.3594 0 CFG=2
M  V30 32 C -5.143 1.6883 -1.0583 0
M  V30 33 O -4.9582 -3.1083 0.1766 0
M  V30 34 O -5.0599 -1.0181 -1.7186 0
M  V30 35 O -4.9573 2.9777 -0.5458 0
M  V30 36 H 0.1772 -1.0694 -2.2314 0
M  V30 37 H 5.4818 1.3061 1.9461 0
M  V30 38 H 3.4095 -1.367 -2.8722 0
M  V30 39 H 4.136 0.099 -3.6603 0
M  V30 40 H 5.1111 -1.3711 -3.3336 0
M  V30 41 H -2.75 0.0341 -1.0456 0
M  V30 42 H -0.0206 1.6681 4.098 0
M  V30 43 H -2.8482 0.4918 2.7655 0
M  V30 44 H -2.7464 -2.1866 -0.556 0
M  V30 45 H 8.3936 0.3272 0.0873 0
M  V30 46 H -5.6579 0.9405 0.8703 0
M  V30 47 H -2.7026 -1.7164 2.2608 0
M  V30 48 H -4.8774 -1.5945 1.5772 0
M  V30 49 H -6.4435 -0.9156 -0.1882 0
M  V30 50 H -4.416 1.507 -1.8796 0
M  V30 51 H -6.1743 1.5983 -1.4673 0
M  V30 52 H -4.7057 -3.684 0.9444 0
M  V30 53 H -5.6227 -1.782 -2.0106 0
M  V30 54 H -5.1004 3.599 -1.3054 0
M  V30 END ATOM
M  V30 BEGIN BOND
M  V30 1 2 1 2
M  V30 2 1 2 3
M  V30 3 1 2 4
M  V30 4 2 3 5
M  V30 5 1 3 6
M  V30 6 2 4 7
M  V30 7 1 4 8
M  V30 8 1 5 9
M  V30 9 1 5 10
M  V30 10 1 6 11
M  V30 11 2 6 12
M  V30 12 1 7 13
M  V30 13 2 8 14
M  V30 14 1 8 15
M  V30 15 2 10 16
M  V30 16 1 10 17
M  V30 17 2 11 18
M  V30 18 1 12 19
M  V30 19 2 13 20
M  V30 20 1 14 21
M  V30 21 1 16 22
M  V30 22 1 17 23
M  V30 23 1 17 24
M  V30 24 1 20 25
M  V30 25 2 21 26
M  V30 26 1 21 27
M  V30 27 1 23 28
M  V30 28 1 24 29
M  V30 29 1 24 30
M  V30 30 1 28 31
M  V30 31 1 28 32
M  V30 32 1 30 33
M  V30 33 1 31 34
M  V30 34 1 32 35
M  V30 35 1 7 11
M  V30 36 1 12 16
M  V30 37 1 14 20
M  V30 38 1 30 31
M  V30 39 1 9 36
M  V30 40 1 13 37
M  V30 41 1 15 38
M  V30 42 1 15 39
M  V30 43 1 15 40
M  V30 44 1 17 41
M  V30 45 1 19 42
M  V30 46 1 22 43
M  V30 47 1 24 44
M  V30 48 1 25 45
M  V30 49 1 28 46
M  V30 50 1 29 47
M  V30 51 1 30 48
M  V30 52 1 31 49
M  V30 53 1 32 50
M  V30 54 1 32 51
M  V30 55 1 33 52
M  V30 56 1 34 53
M  V30 57 1 35 54
M  V30 END BOND
M  V30 BEGIN COLLECTION
M  V30 MDLV30/STEABS ATOMS=(5 17 24 28 30 31)
M  V30 END COLLECTION
M  V30 END CTAB
M  END
>  <Structure No>
4215

>  <LogS>
-2.5784

>  <MMFF94 Energy>
178.57

$$$$
Compound 4216
Actelion Java MolfileCreator 2.0

  0  0  0  0  0  0              0 V3000
M  V30 BEGIN CTAB
M  V30 COUNTS 42 41 0 0 0
M  V30 BEGIN ATOM
M  V30 1 O -1.4031 -1.2471 -0.7013 0
M  V30 2 C -0.9532 -0.6263 0.4727 0 CFG=1
M  V30 3 C 0.3401 -1.2261 0.842 0
M  V30 4 C -0.8092 0.9091 0.2569 0 CFG=1
M  V30 5 C 1.4052 -1.7059 1.1388 0
M  V30 6 C -2.1213 1.6151 -0.257 0 CFG=1
M  V30 7 C -0.2911 1.5968 1.542 0
M  V30 8 C 2.7167 -2.2757 1.4931 0 CFG=2
M  V30 9 C -2.4761 1.3469 -1.765 0
M  V30 10 C -3.3288 1.2991 0.6549 0
M  V30 11 C 3.8263 -1.7602 0.547 0 CFG=1
M  V30 12 C 2.6353 -3.8055 1.4692 0
M  V30 13 C -3.6128 2.2702 -2.2477 0
M  V30 14 C -1.2689 1.5259 -2.7057 0
M  V30 15 O 3.5032 -2.0612 -0.788 0
M  V30 16 C 4.0448 -0.2483 0.7015 0
M  V30 17 H -1.8118 -2.1131 -0.4352 0
M  V30 18 H -1.6681 -0.8148 1.3068 0
M  V30 19 H -0.002 1.0753 -0.4855 0
M  V30 20 H -1.9437 2.7117 -0.1773 0
M  V30 21 H -0.2656 2.7007 1.4169 0
M  V30 22 H -0.9192 1.3468 2.4225 0
M  V30 23 H 0.749 1.2737 1.7615 0
M  V30 24 H 2.9566 -1.9649 2.5339 0
M  V30 25 H -2.845 0.3065 -1.8836 0
M  V30 26 H -4.148 2.0287 0.4904 0
M  V30 27 H -3.0625 1.376 1.7271 0
M  V30 28 H -3.7146 0.276 0.4577 0
M  V30 29 H 4.7799 -2.2688 0.8252 0
M  V30 30 H 3.6108 -4.2459 1.7667 0
M  V30 31 H 2.3706 -4.173 0.454 0
M  V30 32 H 1.8641 -4.1591 2.1877 0
M  V30 33 H -3.8117 2.1121 -3.329 0
M  V30 34 H -4.562 2.0446 -1.7206 0
M  V30 35 H -3.3483 3.3376 -2.0891 0
M  V30 36 H -1.5903 1.516 -3.7691 0
M  V30 37 H -0.7505 2.4873 -2.5006 0
M  V30 38 H -0.5555 0.6837 -2.5933 0
M  V30 39 H 4.3439 -1.9896 -1.3114 0
M  V30 40 H 4.8899 0.0771 0.0581 0
M  V30 41 H 3.137 0.3154 0.3974 0
M  V30 42 H 4.2922 2.0E-4 1.7564 0
M  V30 END ATOM
M  V30 BEGIN BOND
M  V30 1 1 1 2
M  V30 2 1 2 3
M  V30 3 1 2 4
M  V30 4 3 3 5
M  V30 5 1 4 6
M  V30 6 1 4 7
M  V30 7 1 5 8
M  V30 8 1 6 9
M  V30 9 1 6 10
M  V30 10 1 8 11
M  V30 11 1 8 12
M  V30 12 1 9 13
M  V30 13 1 9 14
M  V30 14 1 11 15
M  V30 15 1 11 16
M  V30 16 1 1 17
M  V30 17 1 2 18
M  V30 18 1 4 19
M  V30 19 1 6 20
M  V30 20 1 7 21
M  V30 21 1 7 22
M  V30 22 1 7 23
M  V30 23 1 8 24
M  V30 24 1 9 25
M  V30 25 1 10 26
M  V30 26 1 10 27
M  V30 27 1 10 28
M  V30 28 1 11 29
M  V30 29 1 12 30
M  V30 30 1 12 31
M  V30 31 1 12 32
M  V30 32 1 13 33
M  V30 33 1 13 34
M  V30 34 1 13 35
M  V30 35 1 14 36
M  V30 36 1 14 37
M  V30 37 1 14 38
M  V30 38 1 15 39
M  V30 39 1 16 40
M  V30 40 1 16 41
M  V30 41 1 16 42
M  V30 END BOND
M  V30 BEGIN COLLECTION
M  V30 MDLV30/STEABS ATOMS=(5 2 4 6 8 11)
M  V30 END COLLECTION
M  V30 END CTAB
M  END
>  <Structure No>
4216

>  <LogS>
-2.2756

>  <MMFF94 Energy>
38.48

$$$$
Compound 4217
Actelion Java MolfileCreator 2.0

  0  0  0  0  0  0              0 V3000
M  V30 BEGIN CTAB
M  V30 COUNTS 54 57 0 0 0
M  V30 BEGIN ATOM
M  V30 1 O 1.7186 -1.9643 -0.4908 0
M  V30 2 C 2.0367 -0.7795 -0.1993 0
M  V30 3 C 1.0297 0.3063 -0.3164 0
M  V30 4 C 3.4548 -0.4447 0.0912 0
M  V30 5 C -0.3502 0.0653 -0.1256 0
M  V30 6 C 1.4736 1.5963 -0.6739 0
M  V30 7 C 3.9029 0.8428 -0.2576 0
M  V30 8 C 4.3634 -1.3802 0.6614 0
M  V30 9 O -0.8101 -1.1443 0.4065 0
M  V30 10 C -1.2943 1.0647 -0.4405 0
M  V30 11 C 2.9404 1.8486 -0.7704 0
M  V30 12 C 0.533 2.6241 -0.909 0
M  V30 13 C 5.2572 1.1692 -0.1211 0
M  V30 14 C 5.7463 -1.0553 0.731 0
M  V30 15 C 3.8559 -2.6859 1.2374 0
M  V30 16 C -0.8511 2.3453 -0.8338 0
M  V30 17 C -2.7846 0.784 -0.2819 0 CFG=1
M  V30 18 O 3.375 2.9164 -1.2828 0
M  V30 19 O 0.9983 3.9124 -1.1937 0
M  V30 20 C 6.1769 0.2288 0.3448 0
M  V30 21 C 6.7557 -2.0482 1.1767 0
M  V30 22 O -1.8088 3.3194 -1.1378 0
M  V30 23 O -3.0857 -0.4703 -0.8922 0
M  V30 24 C -3.2048 0.8966 1.2087 0 CFG=1
M  V30 25 O 7.5292 0.5694 0.4117 0
M  V30 26 O 7.7266 -1.693 1.8965 0
M  V30 27 O 6.6592 -3.3773 0.7817 0 CHG=-1
M  V30 28 C -4.1021 -1.2308 -0.2473 0 CFG=1
M  V30 29 O -2.888 2.1682 1.7215 0
M  V30 30 C -4.7233 0.6339 1.3589 0 CFG=2
M  V30 31 C -5.2549 -0.3457 0.2834 0 CFG=2
M  V30 32 C -4.6237 -2.2714 -1.246 0
M  V30 33 O -5.4659 1.8296 1.3386 0
M  V30 34 O -6.2679 -1.1483 0.8348 0
M  V30 35 O -3.5609 -3.0623 -1.7017 0
M  V30 36 H -0.2141 -1.8132 0.8747 0
M  V30 37 H 5.6101 2.1558 -0.3951 0
M  V30 38 H 2.8388 -2.5657 1.6652 0
M  V30 39 H 3.8404 -3.4662 0.4481 0
M  V30 40 H 4.4847 -3.0287 2.0845 0
M  V30 41 H -3.3641 1.5443 -0.8475 0
M  V30 42 H 0.4138 4.7334 -1.2531 0
M  V30 43 H -1.6011 4.2214 -1.5405 0
M  V30 44 H -2.6654 0.1131 1.7933 0
M  V30 45 H 7.8636 1.4852 0.1353 0
M  V30 46 H -3.65 -1.7879 0.6046 0
M  V30 47 H -1.9484 2.1307 2.0398 0
M  V30 48 H -4.8716 0.1744 2.3617 0
M  V30 49 H -5.6639 0.2246 -0.5843 0
M  V30 50 H -5.1008 -1.7534 -2.1086 0
M  V30 51 H -5.3796 -2.9248 -0.7558 0
M  V30 52 H -5.2864 2.2818 0.4733 0
M  V30 53 H -7.0728 -0.5729 0.919 0
M  V30 54 H -3.9522 -3.702 -2.3516 0
M  V30 END ATOM
M  V30 BEGIN BOND
M  V30 1 2 1 2
M  V30 2 1 2 3
M  V30 3 1 2 4
M  V30 4 2 3 5
M  V30 5 1 3 6
M  V30 6 2 4 7
M  V30 7 1 4 8
M  V30 8 1 5 9
M  V30 9 1 5 10
M  V30 10 1 6 11
M  V30 11 2 6 12
M  V30 12 1 7 13
M  V30 13 2 8 14
M  V30 14 1 8 15
M  V30 15 2 10 16
M  V30 16 1 10 17
M  V30 17 2 11 18
M  V30 18 1 12 19
M  V30 19 2 13 20
M  V30 20 1 14 21
M  V30 21 1 16 22
M  V30 22 1 17 23
M  V30 23 1 17 24
M  V30 24 1 20 25
M  V30 25 2 21 26
M  V30 26 1 21 27
M  V30 27 1 23 28
M  V30 28 1 24 29
M  V30 29 1 24 30
M  V30 30 1 28 31
M  V30 31 1 28 32
M  V30 32 1 30 33
M  V30 33 1 31 34
M  V30 34 1 32 35
M  V30 35 1 7 11
M  V30 36 1 12 16
M  V30 37 1 14 20
M  V30 38 1 30 31
M  V30 39 1 9 36
M  V30 40 1 13 37
M  V30 41 1 15 38
M  V30 42 1 15 39
M  V30 43 1 15 40
M  V30 44 1 17 41
M  V30 45 1 19 42
M  V30 46 1 22 43
M  V30 47 1 24 44
M  V30 48 1 25 45
M  V30 49 1 28 46
M  V30 50 1 29 47
M  V30 51 1 30 48
M  V30 52 1 31 49
M  V30 53 1 32 50
M  V30 54 1 32 51
M  V30 55 1 33 52
M  V30 56 1 34 53
M  V30 57 1 35 54
M  V30 END BOND
M  V30 BEGIN COLLECTION
M  V30 MDLV30/STEABS ATOMS=(5 17 24 28 30 31)
M  V30 END COLLECTION
M  V30 END CTAB
M  END
>  <Structure No>
4217

>  <LogS>
-2.5784

>  <MMFF94 Energy>
191.37

$$$$
Compound 4218
Actelion Java MolfileCreator 2.0

  0  0  0  0  0  0              0 V3000
M  V30 BEGIN CTAB
M  V30 COUNTS 52 55 0 0 0
M  V30 BEGIN ATOM
M  V30 1 O 1.6915 0.322 0.7246 0
M  V30 2 C 1.1889 -0.4182 -0.3871 0 CFG=1
M  V30 3 C 2.8038 1.1643 0.4287 0 CFG=2
M  V30 4 C -0.3105 -0.7261 -0.1914 0
M  V30 5 C 1.4682 0.2339 -1.7696 0 CFG=2
M  V30 6 C 3.7581 0.5754 -0.6408 0 CFG=2
M  V30 7 C 3.5512 1.471 1.7338 0
M  V30 8 C -1.198 0.2541 0.3567 0
M  V30 9 C -0.8199 -2.0346 -0.4724 0
M  V30 10 O 0.9199 -0.5495 -2.7983 0
M  V30 11 C 2.9973 0.3792 -1.9784 0 CFG=2
M  V30 12 O 4.2655 -0.6633 -0.2059 0
M  V30 13 O 2.6979 2.1066 2.6478 0
M  V30 14 C -2.5137 -0.1139 0.7582 0
M  V30 15 C -0.8219 1.6132 0.4825 0
M  V30 16 C -2.1495 -2.381 -0.0941 0
M  V30 17 C -0.0459 -3.0149 -1.1475 0
M  V30 18 O 3.2699 1.4305 -2.8725 0
M  V30 19 C -3.0165 -1.379 0.3958 0
M  V30 20 C -3.3245 0.838 1.4426 0
M  V30 21 C -1.665 2.5591 1.0697 0
M  V30 22 C -2.5703 -3.7359 -0.1996 0
M  V30 23 C -0.5188 -4.3094 -1.3331 0
M  V30 24 O -4.4018 -1.574 0.4036 0
M  V30 25 O -4.5207 0.5021 2.0823 0
M  V30 26 C -2.9106 2.1637 1.5474 0
M  V30 27 C -1.2441 4.0023 1.1529 0
M  V30 28 O -3.7652 -4.1721 0.3745 0
M  V30 29 C -1.7587 -4.6764 -0.8368 0
M  V30 30 O -1.6592 4.6908 0.0054 0
M  V30 31 H 1.7575 -1.3653 -0.3406 0
M  V30 32 H 2.4245 2.1375 0.0448 0
M  V30 33 H 0.9904 1.2383 -1.7926 0
M  V30 34 H 4.6011 1.2876 -0.8144 0
M  V30 35 H 3.9091 0.5248 2.192 0
M  V30 36 H 4.4398 2.1122 1.5324 0
M  V30 37 H 0.9156 0.0129 -3.6165 0
M  V30 38 H 3.375 -0.5544 -2.4523 0
M  V30 39 H 5.1075 -0.4803 0.2868 0
M  V30 40 H 2.5981 3.0452 2.3394 0
M  V30 41 H 0.1091 1.9802 0.0951 0
M  V30 42 H 0.9192 -2.807 -1.579 0
M  V30 43 H 2.994 2.2777 -2.434 0
M  V30 44 H 0.0931 -5.0402 -1.8465 0
M  V30 45 H -4.8759 -2.2203 -0.2132 0
M  V30 46 H -4.7373 -0.4343 2.3966 0
M  V30 47 H -3.5567 2.8844 2.0348 0
M  V30 48 H -1.7039 4.4828 2.043 0
M  V30 49 H -0.14 4.0848 1.2786 0
M  V30 50 H -4.0649 -5.1388 0.3204 0
M  V30 51 H -2.0889 -5.7023 -0.9411 0
M  V30 52 H -1.0345 4.4324 -0.7219 0
M  V30 END ATOM
M  V30 BEGIN BOND
M  V30 1 1 1 2
M  V30 2 1 1 3
M  V30 3 1 2 4
M  V30 4 1 2 5
M  V30 5 1 3 6
M  V30 6 1 3 7
M  V30 7 1 4 8
M  V30 8 2 4 9
M  V30 9 1 5 10
M  V30 10 1 5 11
M  V30 11 1 6 12
M  V30 12 1 7 13
M  V30 13 1 8 14
M  V30 14 2 8 15
M  V30 15 1 9 16
M  V30 16 1 9 17
M  V30 17 1 11 18
M  V30 18 1 14 19
M  V30 19 2 14 20
M  V30 20 1 15 21
M  V30 21 1 16 22
M  V30 22 2 17 23
M  V30 23 1 19 24
M  V30 24 1 20 25
M  V30 25 1 20 26
M  V30 26 1 21 27
M  V30 27 1 22 28
M  V30 28 2 22 29
M  V30 29 1 27 30
M  V30 30 1 6 11
M  V30 31 2 16 19
M  V30 32 2 21 26
M  V30 33 1 23 29
M  V30 34 1 2 31
M  V30 35 1 3 32
M  V30 36 1 5 33
M  V30 37 1 6 34
M  V30 38 1 7 35
M  V30 39 1 7 36
M  V30 40 1 10 37
M  V30 41 1 11 38
M  V30 42 1 12 39
M  V30 43 1 13 40
M  V30 44 1 15 41
M  V30 45 1 17 42
M  V30 46 1 18 43
M  V30 47 1 23 44
M  V30 48 1 24 45
M  V30 49 1 25 46
M  V30 50 1 26 47
M  V30 51 1 27 48
M  V30 52 1 27 49
M  V30 53 1 28 50
M  V30 54 1 29 51
M  V30 55 1 30 52
M  V30 END BOND
M  V30 BEGIN COLLECTION
M  V30 MDLV30/STEABS ATOMS=(5 2 3 5 6 11)
M  V30 END COLLECTION
M  V30 END CTAB
M  END
>  <Structure No>
4218

>  <LogS>
-1.7025

>  <MMFF94 Energy>
170.85

$$$$
Compound 4219
Actelion Java MolfileCreator 2.0

  0  0  0  0  0  0              0 V3000
M  V30 BEGIN CTAB
M  V30 COUNTS 28 29 0 0 0
M  V30 BEGIN ATOM
M  V30 1 Cl 1.68 -2.8573 0.3358 0
M  V30 2 C 2.2763 -1.2521 -0.0681 0
M  V30 3 C 1.3889 -0.1927 -0.334 0
M  V30 4 C 3.6588 -1.0344 -0.0929 0
M  V30 5 N -0.0303 -0.422 -0.3374 0
M  V30 6 C 1.9099 1.0714 -0.6543 0
M  V30 7 C 4.1802 0.2347 -0.3957 0
M  V30 8 C -0.9809 0.4724 0.2674 0
M  V30 9 C 3.2901 1.2848 -0.6796 0
M  V30 10 N 5.6032 0.451 -0.4199 0 CHG=1
M  V30 11 O -0.5892 1.5348 0.8229 0
M  V30 12 C -2.4285 0.1697 0.2407 0
M  V30 13 O 6.0719 1.5767 -0.6884 0
M  V30 14 O 6.4722 -0.5801 -0.1454 0 CHG=-1
M  V30 15 C -2.919 -1.1271 0.502 0
M  V30 16 C -3.3416 1.2057 -0.0236 0
M  V30 17 O -2.0567 -2.1648 0.8401 0 CHG=-1
M  V30 18 C -4.2949 -1.3781 0.4547 0
M  V30 19 C -4.7159 0.9475 -0.0633 0
M  V30 20 C -5.1909 -0.3453 0.1704 0
M  V30 21 Cl -5.8432 2.2462 -0.41 0
M  V30 22 H 4.3243 -1.8596 0.1259 0
M  V30 23 H -0.3788 -1.2984 -0.7848 0
M  V30 24 H 1.2496 1.8899 -0.9099 0
M  V30 25 H 3.6612 2.2705 -0.9295 0
M  V30 26 H -2.9853 2.2109 -0.2147 0
M  V30 27 H -4.6708 -2.3742 0.6514 0
M  V30 28 H -6.2536 -0.5495 0.1401 0
M  V30 END ATOM
M  V30 BEGIN BOND
M  V30 1 1 1 2
M  V30 2 2 2 3
M  V30 3 1 2 4
M  V30 4 1 3 5
M  V30 5 1 3 6
M  V30 6 2 4 7
M  V30 7 1 5 8
M  V30 8 2 6 9
M  V30 9 1 7 10
M  V30 10 2 8 11
M  V30 11 1 8 12
M  V30 12 2 10 13
M  V30 13 1 10 14
M  V30 14 2 12 15
M  V30 15 1 12 16
M  V30 16 1 15 17
M  V30 17 1 15 18
M  V30 18 2 16 19
M  V30 19 2 18 20
M  V30 20 1 19 21
M  V30 21 1 7 9
M  V30 22 1 19 20
M  V30 23 1 4 22
M  V30 24 1 5 23
M  V30 25 1 6 24
M  V30 26 1 9 25
M  V30 27 1 16 26
M  V30 28 1 18 27
M  V30 29 1 20 28
M  V30 END BOND
M  V30 END CTAB
M  END
>  <Structure No>
4219

>  <LogS>
-3.5891

>  <MMFF94 Energy>
42.869

$$$$
Compound 4220
Actelion Java MolfileCreator 2.0

  0  0  0  0  0  0              0 V3000
M  V30 BEGIN CTAB
M  V30 COUNTS 49 52 0 0 0
M  V30 BEGIN ATOM
M  V30 1 O 4.0027 -0.6396 -0.0799 0
M  V30 2 C 3.4675 -0.6157 -1.39 0
M  V30 3 C 3.7015 0.571 0.5887 0
M  V30 4 C 1.9359 -0.3859 -1.3916 0
M  V30 5 C 2.1776 0.84 0.6525 0
M  V30 6 N 1.4141 -0.252 -0.006 0 CHG=1
M  V30 7 C -0.096 -0.0973 0.0797 0
M  V30 8 C -0.846 -1.3275 -0.5202 0
M  V30 9 C -0.6004 -0.0818 1.5568 0
M  V30 10 C -0.498 1.2186 -0.6618 0
M  V30 11 C -0.2986 -2.6366 -0.4996 0
M  V30 12 C -2.1986 -1.205 -0.9309 0
M  V30 13 C 0.0674 -0.7798 2.5963 0
M  V30 14 C -1.8674 0.4748 1.87 0
M  V30 15 C -0.7506 1.2273 -2.0552 0
M  V30 16 C -0.5064 2.4657 0.0093 0
M  V30 17 C -1.0289 -3.7335 -0.966 0
M  V30 18 C -2.9215 -2.3064 -1.3945 0
M  V30 19 C -0.4544 -0.8195 3.8926 0
M  V30 20 C -2.382 0.4297 3.1677 0
M  V30 21 C -1.0655 2.4125 -2.7246 0
M  V30 22 C -0.8221 3.6472 -0.666 0
M  V30 23 C -2.3339 -3.5678 -1.422 0
M  V30 24 C -1.6716 -0.2076 4.1806 0
M  V30 25 C -1.1092 3.6199 -2.0295 0
M  V30 26 H 3.6865 -1.5938 -1.8686 0
M  V30 27 H 3.9813 0.1609 -2.0009 0
M  V30 28 H 4.0996 0.5007 1.6233 0
M  V30 29 H 4.2297 1.4213 0.1004 0
M  V30 30 H 1.4453 -1.2235 -1.9294 0
M  V30 31 H 1.7458 0.5389 -1.9752 0
M  V30 32 H 1.8761 0.9614 1.7137 0
M  V30 33 H 1.9965 1.81 0.1439 0
M  V30 34 H 1.6903 -1.1258 0.4853 0
M  V30 35 H 0.6893 -2.8459 -0.1265 0
M  V30 36 H -2.7088 -0.2528 -0.8958 0
M  V30 37 H 0.9927 -1.3072 2.439 0
M  V30 38 H -2.4716 0.9504 1.1105 0
M  V30 39 H -0.6922 0.3157 -2.6352 0
M  V30 40 H -0.2553 2.5319 1.0598 0
M  V30 41 H -0.5834 -4.72 -0.9604 0
M  V30 42 H -3.9457 -2.1814 -1.7217 0
M  V30 43 H 0.0828 -1.3403 4.6748 0
M  V30 44 H -3.342 0.8807 3.3842 0
M  V30 45 H -1.2657 2.3952 -3.7881 0
M  V30 46 H -0.8334 4.5883 -0.1314 0
M  V30 47 H -2.8971 -4.4209 -1.7775 0
M  V30 48 H -2.0739 -0.2452 5.1847 0
M  V30 49 H -1.3498 4.5372 -2.5512 0
M  V30 END ATOM
M  V30 BEGIN BOND
M  V30 1 1 1 2
M  V30 2 1 1 3
M  V30 3 1 2 4
M  V30 4 1 3 5
M  V30 5 1 4 6
M  V30 6 1 6 7
M  V30 7 1 7 8
M  V30 8 1 7 9
M  V30 9 1 7 10
M  V30 10 2 8 11
M  V30 11 1 8 12
M  V30 12 2 9 13
M  V30 13 1 9 14
M  V30 14 2 10 15
M  V30 15 1 10 16
M  V30 16 1 11 17
M  V30 17 2 12 18
M  V30 18 1 13 19
M  V30 19 2 14 20
M  V30 20 1 15 21
M  V30 21 2 16 22
M  V30 22 2 17 23
M  V30 23 2 19 24
M  V30 24 2 21 25
M  V30 25 1 5 6
M  V30 26 1 18 23
M  V30 27 1 20 24
M  V30 28 1 22 25
M  V30 29 1 2 26
M  V30 30 1 2 27
M  V30 31 1 3 28
M  V30 32 1 3 29
M  V30 33 1 4 30
M  V30 34 1 4 31
M  V30 35 1 5 32
M  V30 36 1 5 33
M  V30 37 1 6 34
M  V30 38 1 11 35
M  V30 39 1 12 36
M  V30 40 1 13 37
M  V30 41 1 14 38
M  V30 42 1 15 39
M  V30 43 1 16 40
M  V30 44 1 17 41
M  V30 45 1 18 42
M  V30 46 1 19 43
M  V30 47 1 20 44
M  V30 48 1 21 45
M  V30 49 1 22 46
M  V30 50 1 23 47
M  V30 51 1 24 48
M  V30 52 1 25 49
M  V30 END BOND
M  V30 END CTAB
M  END
>  <Structure No>
4220

>  <LogS>
-7.2168

>  <MMFF94 Energy>
150.44

$$$$
Compound 4221
Actelion Java MolfileCreator 2.0

  0  0  0  0  0  0              0 V3000
M  V30 BEGIN CTAB
M  V30 COUNTS 28 28 0 0 0
M  V30 BEGIN ATOM
M  V30 1 O 4.0611 -2.4352 -0.3244 0
M  V30 2 N 2.8637 -2.4354 0.0301 0 CHG=1
M  V30 3 O 2.3252 -3.6041 0.5171 0 CHG=-1
M  V30 4 C 2.0931 -1.2151 0.0 0
M  V30 5 C 0.682 -1.2395 0.0429 0
M  V30 6 C 2.7556 0.017 -0.079 0
M  V30 7 O 0.0373 -2.4703 0.0771 0 CHG=-1
M  V30 8 C -0.0734 -0.0328 0.0324 0
M  V30 9 C 2.0433 1.2205 -0.1007 0
M  V30 10 C 0.643 1.187 -0.0424 0
M  V30 11 C -1.6272 -0.0554 0.0914 0
M  V30 12 N 2.7397 2.4804 -0.1782 0 CHG=1
M  V30 13 C -2.1002 -0.7547 1.387 0
M  V30 14 C -2.2574 1.3619 0.0939 0
M  V30 15 C -2.1941 -0.7947 -1.142 0
M  V30 16 O 3.9865 2.5171 -0.2318 0
M  V30 17 O 2.0435 3.6676 -0.1959 0 CHG=-1
M  V30 18 H 3.8372 0.0382 -0.1119 0
M  V30 19 H 0.1286 2.1333 -0.0588 0
M  V30 20 H -1.8512 -1.833 1.4027 0
M  V30 21 H -3.2046 -0.6839 1.4936 0
M  V30 22 H -1.6345 -0.2752 2.2751 0
M  V30 23 H -1.9173 1.947 0.9758 0
M  V30 24 H -3.3667 1.3038 0.1472 0
M  V30 25 H -2.0051 1.9122 -0.8382 0
M  V30 26 H -1.9388 -1.8718 -1.1445 0
M  V30 27 H -3.3039 -0.7309 -1.1644 0
M  V30 28 H -1.8012 -0.3403 -2.0772 0
M  V30 END ATOM
M  V30 BEGIN BOND
M  V30 1 2 1 2
M  V30 2 1 2 3
M  V30 3 1 2 4
M  V30 4 2 4 5
M  V30 5 1 4 6
M  V30 6 1 5 7
M  V30 7 1 5 8
M  V30 8 2 6 9
M  V30 9 2 8 10
M  V30 10 1 8 11
M  V30 11 1 9 12
M  V30 12 1 11 13
M  V30 13 1 11 14
M  V30 14 1 11 15
M  V30 15 2 12 16
M  V30 16 1 12 17
M  V30 17 1 9 10
M  V30 18 1 6 18
M  V30 19 1 10 19
M  V30 20 1 13 20
M  V30 21 1 13 21
M  V30 22 1 13 22
M  V30 23 1 14 23
M  V30 24 1 14 24
M  V30 25 1 14 25
M  V30 26 1 15 26
M  V30 27 1 15 27
M  V30 28 1 15 28
M  V30 END BOND
M  V30 END CTAB
M  END
>  <Structure No>
4221

>  <LogS>
-4.7274

>  <MMFF94 Energy>
106.84

$$$$
Compound 4222
Actelion Java MolfileCreator 2.0

  0  0  0  0  0  0              0 V3000
M  V30 BEGIN CTAB
M  V30 COUNTS 27 28 0 0 0
M  V30 BEGIN ATOM
M  V30 1 O -4.1156 1.8545 -1.6931 0
M  V30 2 N -3.9716 1.8451 -0.4529 0 CHG=1
M  V30 3 O -4.7438 2.6907 0.3104 0 CHG=-1
M  V30 4 C -3.0132 0.9693 0.1684 0
M  V30 5 C -2.2256 0.0997 -0.608 0
M  V30 6 C -2.857 0.9624 1.5656 0
M  V30 7 C -1.2955 -0.7476 0.0 0
M  V30 8 C -1.9252 0.1139 2.1711 0
M  V30 9 C -1.119 -0.7228 1.393 0
M  V30 10 N -0.1959 -1.6088 2.0464 0
M  V30 11 N 0.9998 -1.8583 1.6657 0
M  V30 12 C 1.7062 -1.1817 0.6135 0
M  V30 13 C 2.5016 -1.9296 -0.2631 0
M  V30 14 C 1.6905 0.22 0.5045 0
M  V30 15 C 3.2279 -1.2936 -1.2747 0
M  V30 16 C 2.4164 0.8552 -0.5075 0
M  V30 17 C 3.1842 0.0986 -1.4031 0
M  V30 18 O 3.9101 0.7194 -2.4168 0
M  V30 19 H -2.3348 0.0687 -1.6844 0
M  V30 20 H -3.4565 1.6104 2.1916 0
M  V30 21 H -0.7231 -1.43 -0.6146 0
M  V30 22 H -1.8211 0.1178 3.249 0
M  V30 23 H 2.5472 -3.0073 -0.1692 0
M  V30 24 H 1.1285 0.8211 1.2075 0
M  V30 25 H 3.8275 -1.8823 -1.957 0
M  V30 26 H 2.3888 1.9343 -0.5889 0
M  V30 27 H 3.9003 1.7258 -2.5348 0
M  V30 END ATOM
M  V30 BEGIN BOND
M  V30 1 2 1 2
M  V30 2 1 2 3
M  V30 3 1 2 4
M  V30 4 2 4 5
M  V30 5 1 4 6
M  V30 6 1 5 7
M  V30 7 2 6 8
M  V30 8 2 7 9
M  V30 9 1 9 10
M  V30 10 2 10 11
M  V30 11 1 11 12
M  V30 12 2 12 13
M  V30 13 1 12 14
M  V30 14 1 13 15
M  V30 15 2 14 16
M  V30 16 2 15 17
M  V30 17 1 17 18
M  V30 18 1 8 9
M  V30 19 1 16 17
M  V30 20 1 5 19
M  V30 21 1 6 20
M  V30 22 1 7 21
M  V30 23 1 8 22
M  V30 24 1 13 23
M  V30 25 1 14 24
M  V30 26 1 15 25
M  V30 27 1 16 26
M  V30 28 1 18 27
M  V30 END BOND
M  V30 END CTAB
M  END
>  <Structure No>
4222

>  <LogS>
-4.796

>  <MMFF94 Energy>
75.552

$$$$
Compound 4223
Actelion Java MolfileCreator 2.0

  0  0  0  0  0  0              0 V3000
M  V30 BEGIN CTAB
M  V30 COUNTS 15 15 0 0 0
M  V30 BEGIN ATOM
M  V30 1 O 2.365 1.3396 -0.709 0
M  V30 2 C 1.8818 0.4254 0.0123 0
M  V30 3 N 2.7526 -0.3179 0.868 0
M  V30 4 C 0.433 0.1324 -0.0317 0
M  V30 5 N -0.0805 -0.8576 0.7516 0
M  V30 6 C -0.4287 0.8598 -0.8708 0
M  V30 7 C -1.4046 -1.1679 0.7496 0
M  V30 8 C -1.7918 0.5554 -0.8864 0
M  V30 9 C -2.2861 -0.4641 -0.0723 0
M  V30 10 H 3.7739 -0.1014 0.8903 0
M  V30 11 H 2.3925 -1.0824 1.4806 0
M  V30 12 H -0.0548 1.653 -1.5062 0
M  V30 13 H -1.7724 -1.9612 1.3867 0
M  V30 14 H -2.4639 1.1095 -1.529 0
M  V30 15 H -3.341 -0.7066 -0.0781 0
M  V30 END ATOM
M  V30 BEGIN BOND
M  V30 1 2 1 2
M  V30 2 1 2 3
M  V30 3 1 2 4
M  V30 4 2 4 5
M  V30 5 1 4 6
M  V30 6 1 5 7
M  V30 7 2 6 8
M  V30 8 2 7 9
M  V30 9 1 8 9
M  V30 10 1 3 10
M  V30 11 1 3 11
M  V30 12 1 6 12
M  V30 13 1 7 13
M  V30 14 1 8 14
M  V30 15 1 9 15
M  V30 END BOND
M  V30 END CTAB
M  END
>  <Structure No>
4223

>  <LogS>
0.1685

>  <MMFF94 Energy>
28.98

$$$$
Compound 4224
Actelion Java MolfileCreator 2.0

  0  0  0  0  0  0              0 V3000
M  V30 BEGIN CTAB
M  V30 COUNTS 54 53 0 0 0
M  V30 BEGIN ATOM
M  V30 1 O 7.2459 -2.0994 -0.5439 0
M  V30 2 C 6.689 -0.831 -0.7522 0
M  V30 3 C 5.2462 -0.7972 -0.2454 0
M  V30 4 C 5.1719 -0.9925 1.2775 0
M  V30 5 C 3.7219 -0.9551 1.8068 0
M  V30 6 C 3.3466 0.371 2.4954 0
M  V30 7 C 3.2951 1.597 1.5642 0
M  V30 8 C 2.248 1.5108 0.4381 0
M  V30 9 C 0.8072 1.411 0.9696 0
M  V30 10 C -0.2467 1.629 -0.1278 0
M  V30 11 C -0.333 0.4446 -1.1056 0
M  V30 12 C -1.3428 0.6788 -2.2442 0
M  V30 13 C -2.8063 0.8498 -1.7969 0
M  V30 14 C -3.3544 -0.3774 -1.0538 0
M  V30 15 C -4.8611 -0.241 -0.8023 0
M  V30 16 C -5.4017 -1.4548 -0.0319 0
M  V30 17 C -6.9287 -1.4171 0.1333 0
M  V30 18 C -7.3915 -0.3345 1.1077 0
M  V30 19 H 8.1756 -2.0512 -0.8878 0
M  V30 20 H 7.2916 -0.0573 -0.2255 0
M  V30 21 H 6.6912 -0.6 -1.8406 0
M  V30 22 H 4.6626 -1.5946 -0.7559 0
M  V30 23 H 4.8059 0.1813 -0.5244 0
M  V30 24 H 5.6068 -1.9865 1.5226 0
M  V30 25 H 5.7981 -0.2288 1.7893 0
M  V30 26 H 2.9884 -1.21 1.0128 0
M  V30 27 H 3.6201 -1.7542 2.5738 0
M  V30 28 H 2.3655 0.2488 3.0008 0
M  V30 29 H 4.0833 0.5752 3.303 0
M  V30 30 H 4.2976 1.7649 1.1185 0
M  V30 31 H 3.0772 2.495 2.1825 0
M  V30 32 H 2.4723 0.6505 -0.2223 0
M  V30 33 H 2.3434 2.4306 -0.1789 0
M  V30 34 H 0.6415 0.4194 1.4426 0
M  V30 35 H 0.6558 2.1894 1.7493 0
M  V30 36 H -1.2272 1.7542 0.3779 0
M  V30 37 H -0.0282 2.5676 -0.6824 0
M  V30 38 H 0.6586 0.288 -1.5785 0
M  V30 39 H -0.5804 -0.488 -0.5563 0
M  V30 40 H -1.0389 1.5847 -2.8129 0
M  V30 41 H -1.2837 -0.1791 -2.9489 0
M  V30 42 H -2.9142 1.757 -1.1658 0
M  V30 43 H -3.4172 1.0185 -2.7107 0
M  V30 44 H -2.8388 -0.4801 -0.0751 0
M  V30 45 H -3.1631 -1.2916 -1.6574 0
M  V30 46 H -5.0446 0.6851 -0.2169 0
M  V30 47 H -5.3902 -0.1567 -1.777 0
M  V30 48 H -4.9166 -1.5164 0.9669 0
M  V30 49 H -5.1407 -2.3802 -0.5906 0
M  V30 50 H -7.4172 -1.2642 -0.8532 0
M  V30 51 H -7.2635 -2.4025 0.524 0
M  V30 52 H -6.8702 -0.4398 2.0829 0
M  V30 53 H -8.4841 -0.4354 1.2792 0
M  V30 54 H -7.1999 0.6764 0.6927 0
M  V30 END ATOM
M  V30 BEGIN BOND
M  V30 1 1 1 2
M  V30 2 1 2 3
M  V30 3 1 3 4
M  V30 4 1 4 5
M  V30 5 1 5 6
M  V30 6 1 6 7
M  V30 7 1 7 8
M  V30 8 1 8 9
M  V30 9 1 9 10
M  V30 10 1 10 11
M  V30 11 1 11 12
M  V30 12 1 12 13
M  V30 13 1 13 14
M  V30 14 1 14 15
M  V30 15 1 15 16
M  V30 16 1 16 17
M  V30 17 1 17 18
M  V30 18 1 1 19
M  V30 19 1 2 20
M  V30 20 1 2 21
M  V30 21 1 3 22
M  V30 22 1 3 23
M  V30 23 1 4 24
M  V30 24 1 4 25
M  V30 25 1 5 26
M  V30 26 1 5 27
M  V30 27 1 6 28
M  V30 28 1 6 29
M  V30 29 1 7 30
M  V30 30 1 7 31
M  V30 31 1 8 32
M  V30 32 1 8 33
M  V30 33 1 9 34
M  V30 34 1 9 35
M  V30 35 1 10 36
M  V30 36 1 10 37
M  V30 37 1 11 38
M  V30 38 1 11 39
M  V30 39 1 12 40
M  V30 40 1 12 41
M  V30 41 1 13 42
M  V30 42 1 13 43
M  V30 43 1 14 44
M  V30 44 1 14 45
M  V30 45 1 15 46
M  V30 46 1 15 47
M  V30 47 1 16 48
M  V30 48 1 16 49
M  V30 49 1 17 50
M  V30 50 1 17 51
M  V30 51 1 18 52
M  V30 52 1 18 53
M  V30 53 1 18 54
M  V30 END BOND
M  V30 END CTAB
M  END
>  <Structure No>
4224

>  <LogS>
-7.506

>  <MMFF94 Energy>
-1.1055

$$$$
Compound 4225
Actelion Java MolfileCreator 2.0

  0  0  0  0  0  0              0 V3000
M  V30 BEGIN CTAB
M  V30 COUNTS 22 22 0 0 0
M  V30 BEGIN ATOM
M  V30 1 O 0.0 3.5723 1.5071 0
M  V30 2 N -0.763 2.8461 0.8371 0
M  V30 3 N -0.3969 1.5416 0.4631 0
M  V30 4 C -1.2893 0.799 -0.4226 0
M  V30 5 C 0.9287 1.0013 0.7803 0
M  V30 6 C -0.6692 -0.5596 -0.7753 0 CFG=1
M  V30 7 C 0.8562 -0.5329 1.026 0 CFG=1
M  V30 8 O -0.2436 -1.1991 0.4113 0
M  V30 9 C -1.6864 -1.4497 -1.4863 0
M  V30 10 C 2.165 -1.2225 0.6355 0
M  V30 11 H -1.4646 1.3853 -1.3505 0
M  V30 12 H -2.2616 0.6504 0.096 0
M  V30 13 H 1.3465 1.4911 1.6864 0
M  V30 14 H 1.6086 1.2314 -0.0689 0
M  V30 15 H 0.1887 -0.4126 -1.4718 0
M  V30 16 H 0.7335 -0.6749 2.122 0
M  V30 17 H -2.0395 -0.9605 -2.4192 0
M  V30 18 H -2.5586 -1.6493 -0.8272 0
M  V30 19 H -1.2138 -2.4186 -1.753 0
M  V30 20 H 3.017 -0.7661 1.1832 0
M  V30 21 H 2.1147 -2.3009 0.8964 0
M  V30 22 H 2.3448 -1.1288 -0.4561 0
M  V30 END ATOM
M  V30 BEGIN BOND
M  V30 1 2 1 2
M  V30 2 1 2 3
M  V30 3 1 3 4
M  V30 4 1 3 5
M  V30 5 1 4 6
M  V30 6 1 5 7
M  V30 7 1 6 8
M  V30 8 1 6 9
M  V30 9 1 7 10
M  V30 10 1 7 8
M  V30 11 1 4 11
M  V30 12 1 4 12
M  V30 13 1 5 13
M  V30 14 1 5 14
M  V30 15 1 6 15
M  V30 16 1 7 16
M  V30 17 1 9 17
M  V30 18 1 9 18
M  V30 19 1 9 19
M  V30 20 1 10 20
M  V30 21 1 10 21
M  V30 22 1 10 22
M  V30 END BOND
M  V30 BEGIN COLLECTION
M  V30 MDLV30/STEABS ATOMS=(2 6 7)
M  V30 END COLLECTION
M  V30 END CTAB
M  END
>  <Structure No>
4225

>  <LogS>
-0.0655

>  <MMFF94 Energy>
42.107

$$$$
Compound 4226
Actelion Java MolfileCreator 2.0

  0  0  0  0  0  0              0 V3000
M  V30 BEGIN CTAB
M  V30 COUNTS 20 20 0 0 0
M  V30 BEGIN ATOM
M  V30 1 N 0.5468 -1.172 0.0 0
M  V30 2 C -0.7092 -0.6457 -0.0187 0
M  V30 3 C 1.6617 -0.3949 0.052 0
M  V30 4 C -0.8788 0.7567 0.0166 0
M  V30 5 C -1.8808 -1.5812 -0.0766 0
M  V30 6 C 1.5349 0.9968 0.0882 0
M  V30 7 C 3.0144 -1.0321 0.0701 0
M  V30 8 C 0.2635 1.5697 0.0705 0
M  V30 9 C -2.2464 1.3855 -0.002 0
M  V30 10 H -2.5231 -1.4408 0.8178 0
M  V30 11 H -1.5361 -2.637 -0.0974 0
M  V30 12 H -2.4745 -1.3892 -0.9948 0
M  V30 13 H 2.4122 1.6307 0.1298 0
M  V30 14 H 3.5514 -0.7457 0.9989 0
M  V30 15 H 2.9253 -2.1387 0.0364 0
M  V30 16 H 3.5999 -0.6943 -0.8106 0
M  V30 17 H 0.1725 2.6486 0.0987 0
M  V30 18 H -2.7811 1.0967 -0.9309 0
M  V30 19 H -2.8296 1.0453 0.8791 0
M  V30 20 H -2.187 2.4943 0.0312 0
M  V30 END ATOM
M  V30 BEGIN BOND
M  V30 1 2 1 2
M  V30 2 1 1 3
M  V30 3 1 2 4
M  V30 4 1 2 5
M  V30 5 2 3 6
M  V30 6 1 3 7
M  V30 7 2 4 8
M  V30 8 1 4 9
M  V30 9 1 6 8
M  V30 10 1 5 10
M  V30 11 1 5 11
M  V30 12 1 5 12
M  V30 13 1 6 13
M  V30 14 1 7 14
M  V30 15 1 7 15
M  V30 16 1 7 16
M  V30 17 1 8 17
M  V30 18 1 9 18
M  V30 19 1 9 19
M  V30 20 1 9 20
M  V30 END BOND
M  V30 END CTAB
M  END
>  <Structure No>
4226

>  <LogS>
-0.5893

>  <MMFF94 Energy>
21.848

$$$$
Compound 4227
Actelion Java MolfileCreator 2.0

  0  0  0  0  0  0              0 V3000
M  V30 BEGIN CTAB
M  V30 COUNTS 20 21 0 0 0
M  V30 BEGIN ATOM
M  V30 1 O 3.5074 1.1149 -0.4777 0
M  V30 2 C 2.2715 0.4876 -0.3408 0
M  V30 3 C 1.0806 1.2364 -0.3781 0
M  V30 4 C 2.2171 -0.9075 -0.1635 0
M  V30 5 C -0.1387 0.5693 -0.2369 0
M  V30 6 C 0.9802 -1.5553 -0.024 0
M  V30 7 C -0.1876 -0.7902 -0.0644 0
M  V30 8 C -1.4875 1.1789 -0.2494 0
M  V30 9 C -1.576 -1.287 0.0633 0
M  V30 10 C -2.4405 -0.0164 -0.0547 0
M  V30 11 H 3.5802 2.1174 -0.6065 0
M  V30 12 H 1.1049 2.3102 -0.5135 0
M  V30 13 H 3.1316 -1.4857 -0.1344 0
M  V30 14 H 0.9338 -2.6279 0.1123 0
M  V30 15 H -1.5871 1.9071 0.5842 0
M  V30 16 H -1.6726 1.6809 -1.2234 0
M  V30 17 H -1.7192 -1.7753 1.0513 0
M  V30 18 H -1.8047 -2.0015 -0.7564 0
M  V30 19 H -3.046 0.1222 0.8675 0
M  V30 20 H -3.1307 -0.1017 -0.9223 0
M  V30 END ATOM
M  V30 BEGIN BOND
M  V30 1 1 1 2
M  V30 2 2 2 3
M  V30 3 1 2 4
M  V30 4 1 3 5
M  V30 5 2 4 6
M  V30 6 2 5 7
M  V30 7 1 5 8
M  V30 8 1 7 9
M  V30 9 1 8 10
M  V30 10 1 6 7
M  V30 11 1 9 10
M  V30 12 1 1 11
M  V30 13 1 3 12
M  V30 14 1 4 13
M  V30 15 1 6 14
M  V30 16 1 8 15
M  V30 17 1 8 16
M  V30 18 1 9 17
M  V30 19 1 9 18
M  V30 20 1 10 19
M  V30 21 1 10 20
M  V30 END BOND
M  V30 END CTAB
M  END
>  <Structure No>
4227

>  <LogS>
-1.3285

>  <MMFF94 Energy>
12.193

$$$$
Compound 4228
Actelion Java MolfileCreator 2.0

  0  0  0  0  0  0              0 V3000
M  V30 BEGIN CTAB
M  V30 COUNTS 12 11 0 0 0
M  V30 BEGIN ATOM
M  V30 1 Cl 1.3213 -1.4039 1.4039 0
M  V30 2 C 1.4686 -0.5645 -0.161 0
M  V30 3 C 0.7295 0.7454 -0.1381 0
M  V30 4 C -0.611 0.8684 -0.1228 0
M  V30 5 C -1.5788 -0.2817 -0.0669 0
M  V30 6 Cl -2.1224 -0.5264 1.61 0
M  V30 7 H 2.5463 -0.368 -0.3412 0
M  V30 8 H 1.101 -1.2115 -0.9843 0
M  V30 9 H 1.323 1.6549 -0.1689 0
M  V30 10 H -1.03 1.8704 -0.102 0
M  V30 11 H -2.4643 -0.0353 -0.689 0
M  V30 12 H -1.144 -1.2233 -0.4573 0
M  V30 END ATOM
M  V30 BEGIN BOND
M  V30 1 1 1 2
M  V30 2 1 2 3
M  V30 3 2 3 4
M  V30 4 1 4 5
M  V30 5 1 5 6
M  V30 6 1 2 7
M  V30 7 1 2 8
M  V30 8 1 3 9
M  V30 9 1 4 10
M  V30 10 1 5 11
M  V30 11 1 5 12
M  V30 END BOND
M  V30 END CTAB
M  END
>  <Structure No>
4228

>  <LogS>
-2.3333

>  <MMFF94 Energy>
9.7688

$$$$
Compound 4229
Actelion Java MolfileCreator 2.0

  0  0  0  0  0  0              0 V3000
M  V30 BEGIN CTAB
M  V30 COUNTS 24 24 0 0 0
M  V30 BEGIN ATOM
M  V30 1 N -0.3888 -1.167 0.7778 0 CHG=1
M  V30 2 C 0.3941 0.0217 0.3491 0 CFG=2
M  V30 3 C -1.7987 -1.1855 0.323 0
M  V30 4 C -0.0614 0.5135 -1.0424 0
M  V30 5 C 1.9075 -0.3008 0.376 0
M  V30 6 C -2.3537 0.2194 0.0653 0
M  V30 7 C -1.5423 0.9364 -1.0255 0
M  V30 8 C 2.7897 0.9474 0.3163 0
M  V30 9 H -0.3751 -1.209 1.8245 0
M  V30 10 H 0.0676 -2.0425 0.4276 0
M  V30 11 H 0.212 0.8457 1.0784 0
M  V30 12 H -2.4335 -1.6908 1.0848 0
M  V30 13 H -1.8855 -1.7788 -0.6157 0
M  V30 14 H 0.5463 1.379 -1.3786 0
M  V30 15 H 0.079 -0.3069 -1.7805 0
M  V30 16 H 2.1702 -0.9785 -0.4654 0
M  V30 17 H 2.1434 -0.8341 1.3231 0
M  V30 18 H -2.3118 0.8039 1.0107 0
M  V30 19 H -3.419 0.152 -0.2447 0
M  V30 20 H -1.9883 0.7214 -2.0211 0
M  V30 21 H -1.615 2.0334 -0.8585 0
M  V30 22 H 2.7155 1.44 -0.6744 0
M  V30 23 H 2.5019 1.6674 1.1117 0
M  V30 24 H 3.8495 0.6562 0.4739 0
M  V30 END ATOM
M  V30 BEGIN BOND
M  V30 1 1 1 2
M  V30 2 1 1 3
M  V30 3 1 2 4
M  V30 4 1 2 5
M  V30 5 1 3 6
M  V30 6 1 4 7
M  V30 7 1 5 8
M  V30 8 1 6 7
M  V30 9 1 1 9
M  V30 10 1 1 10
M  V30 11 1 2 11
M  V30 12 1 3 12
M  V30 13 1 3 13
M  V30 14 1 4 14
M  V30 15 1 4 15
M  V30 16 1 5 16
M  V30 17 1 5 17
M  V30 18 1 6 18
M  V30 19 1 6 19
M  V30 20 1 7 20
M  V30 21 1 7 21
M  V30 22 1 8 22
M  V30 23 1 8 23
M  V30 24 1 8 24
M  V30 END BOND
M  V30 BEGIN COLLECTION
M  V30 MDLV30/STEABS ATOMS=(1 2)
M  V30 END COLLECTION
M  V30 END CTAB
M  END
>  <Structure No>
4229

>  <LogS>
-0.3463

>  <MMFF94 Energy>
2.6675

$$$$
Compound 4230
Actelion Java MolfileCreator 2.0

  0  0  0  0  0  0              0 V3000
M  V30 BEGIN CTAB
M  V30 COUNTS 31 32 0 0 0
M  V30 BEGIN ATOM
M  V30 1 O 0.9583 -1.5975 -2.2371 0
M  V30 2 C 1.3144 -0.8939 -1.3035 0
M  V30 3 C 0.5923 -1.0148 0.0275 0 CFG=2
M  V30 4 C 2.3914 0.139 -1.5391 0
M  V30 5 C -0.7322 -0.2544 0.0579 0
M  V30 6 C 1.4919 -0.6195 1.2181 0
M  V30 7 C 3.2096 0.4312 -0.2777 0
M  V30 8 C -1.7143 -0.7081 0.873 0
M  V30 9 C -0.9785 0.9206 -0.8797 0
M  V30 10 C 2.3099 0.6443 0.9409 0
M  V30 11 C -3.0478 -0.021 1.0302 0
M  V30 12 C -2.1908 1.7717 -0.4859 0
M  V30 13 C -3.3839 0.8782 -0.1597 0
M  V30 14 H 0.3629 -2.0982 0.1524 0
M  V30 15 H 3.0829 -0.2202 -2.332 0
M  V30 16 H 1.9252 1.0759 -1.9082 0
M  V30 17 H 2.1926 -1.4564 1.435 0
M  V30 18 H 0.8812 -0.4686 2.1351 0
M  V30 19 H 3.9051 -0.4149 -0.0829 0
M  V30 20 H 3.8243 1.3421 -0.4443 0
M  V30 21 H -1.5194 -1.5555 1.525 0
M  V30 22 H -1.1315 0.5267 -1.9077 0
M  V30 23 H -0.0919 1.5846 -0.8928 0
M  V30 24 H 2.9444 0.8671 1.8257 0
M  V30 25 H 1.6366 1.513 0.7775 0
M  V30 26 H -3.8427 -0.7884 1.144 0
M  V30 27 H -3.0229 0.5881 1.9594 0
M  V30 28 H -2.4533 2.452 -1.3248 0
M  V30 29 H -1.9384 2.3976 0.3987 0
M  V30 30 H -4.2652 1.508 0.0891 0
M  V30 31 H -3.6411 0.2543 -1.0442 0
M  V30 END ATOM
M  V30 BEGIN BOND
M  V30 1 2 1 2
M  V30 2 1 2 3
M  V30 3 1 2 4
M  V30 4 1 3 5
M  V30 5 1 3 6
M  V30 6 1 4 7
M  V30 7 2 5 8
M  V30 8 1 5 9
M  V30 9 1 6 10
M  V30 10 1 8 11
M  V30 11 1 9 12
M  V30 12 1 11 13
M  V30 13 1 7 10
M  V30 14 1 12 13
M  V30 15 1 3 14
M  V30 16 1 4 15
M  V30 17 1 4 16
M  V30 18 1 6 17
M  V30 19 1 6 18
M  V30 20 1 7 19
M  V30 21 1 7 20
M  V30 22 1 8 21
M  V30 23 1 9 22
M  V30 24 1 9 23
M  V30 25 1 10 24
M  V30 26 1 10 25
M  V30 27 1 11 26
M  V30 28 1 11 27
M  V30 29 1 12 28
M  V30 30 1 12 29
M  V30 31 1 13 30
M  V30 32 1 13 31
M  V30 END BOND
M  V30 BEGIN COLLECTION
M  V30 MDLV30/STEABS ATOMS=(1 3)
M  V30 END COLLECTION
M  V30 END CTAB
M  END
>  <Structure No>
4230

>  <LogS>
-2.774

>  <MMFF94 Energy>
25.003

$$$$
Compound 4231
Actelion Java MolfileCreator 2.0

  0  0  0  0  0  0              0 V3000
M  V30 BEGIN CTAB
M  V30 COUNTS 26 25 0 0 0
M  V30 BEGIN ATOM
M  V30 1 O 4.5678 -0.7864 0.4717 0
M  V30 2 C 3.5953 -1.3699 1.0189 0
M  V30 3 O 3.6427 -2.7432 1.2223 0 CHG=-1
M  V30 4 C 2.3715 -0.5982 1.4001 0
M  V30 5 C 1.3687 -0.5734 0.2391 0
M  V30 6 C 0.107 0.1957 0.5614 0
M  V30 7 O -0.029 0.7123 1.7056 0
M  V30 8 N -0.9396 0.3678 -0.424 0
M  V30 9 C -2.0221 1.3319 -0.1745 0
M  V30 10 C -1.0002 -0.4646 -1.6353 0
M  V30 11 C -1.5275 2.7582 -0.3901 0
M  V30 12 C -1.6865 -1.7929 -1.3355 0
M  V30 13 H 2.662 0.4405 1.6719 0
M  V30 14 H 1.9067 -1.0763 2.2897 0
M  V30 15 H 1.8536 -0.1002 -0.6421 0
M  V30 16 H 1.0988 -1.6185 -0.0223 0
M  V30 17 H -2.88 1.1477 -0.8577 0
M  V30 18 H -2.4073 1.2161 0.8617 0
M  V30 19 H 0.014 -0.6437 -2.0474 0
M  V30 20 H -1.5688 0.0593 -2.4345 0
M  V30 21 H -0.7108 2.9984 0.3222 0
M  V30 22 H -1.1521 2.8764 -1.4287 0
M  V30 23 H -2.3628 3.4715 -0.2273 0
M  V30 24 H -2.7257 -1.6134 -0.987 0
M  V30 25 H -1.1337 -2.3494 -0.5506 0
M  V30 26 H -1.72 -2.412 -2.2565 0
M  V30 END ATOM
M  V30 BEGIN BOND
M  V30 1 2 1 2
M  V30 2 1 2 3
M  V30 3 1 2 4
M  V30 4 1 4 5
M  V30 5 1 5 6
M  V30 6 2 6 7
M  V30 7 1 6 8
M  V30 8 1 8 9
M  V30 9 1 8 10
M  V30 10 1 9 11
M  V30 11 1 10 12
M  V30 12 1 4 13
M  V30 13 1 4 14
M  V30 14 1 5 15
M  V30 15 1 5 16
M  V30 16 1 9 17
M  V30 17 1 9 18
M  V30 18 1 10 19
M  V30 19 1 10 20
M  V30 20 1 11 21
M  V30 21 1 11 22
M  V30 22 1 11 23
M  V30 23 1 12 24
M  V30 24 1 12 25
M  V30 25 1 12 26
M  V30 END BOND
M  V30 END CTAB
M  END
>  <Structure No>
4231

>  <LogS>
-0.7937

>  <MMFF94 Energy>
-21.267

$$$$
Compound 4232
Actelion Java MolfileCreator 2.0

  0  0  0  0  0  0              0 V3000
M  V30 BEGIN CTAB
M  V30 COUNTS 22 22 0 0 0
M  V30 BEGIN ATOM
M  V30 1 O 3.0604 -1.3331 -1.0977 0
M  V30 2 C 3.3307 -0.2897 -0.4444 0
M  V30 3 N 2.283 0.5595 0.0477 0
M  V30 4 N 4.6949 0.0692 -0.2313 0
M  V30 5 C 0.89 0.2022 0.0579 0
M  V30 6 C -0.0774 1.2029 -0.1127 0
M  V30 7 C 0.4716 -1.1185 0.2959 0
M  V30 8 C -1.4392 0.8874 -0.0853 0
M  V30 9 C -0.8899 -1.4336 0.3243 0
M  V30 10 C -1.8554 -0.4395 0.1312 0
M  V30 11 O -3.2085 -0.8078 0.1667 0
M  V30 12 C -4.2929 0.0975 -0.0122 0
M  V30 13 H 2.5434 1.5301 0.3348 0
M  V30 14 H 4.9395 0.934 0.2998 0
M  V30 15 H 5.4633 -0.5334 -0.6005 0
M  V30 16 H 0.2257 2.2292 -0.278 0
M  V30 17 H 1.1916 -1.9028 0.4859 0
M  V30 18 H -2.1584 1.6817 -0.2309 0
M  V30 19 H -1.1974 -2.4555 0.5065 0
M  V30 20 H -4.2741 0.8768 0.7787 0
M  V30 21 H -5.248 -0.4614 0.0626 0
M  V30 22 H -4.2346 0.5694 -1.0156 0
M  V30 END ATOM
M  V30 BEGIN BOND
M  V30 1 2 1 2
M  V30 2 1 2 3
M  V30 3 1 2 4
M  V30 4 1 3 5
M  V30 5 2 5 6
M  V30 6 1 5 7
M  V30 7 1 6 8
M  V30 8 2 7 9
M  V30 9 2 8 10
M  V30 10 1 10 11
M  V30 11 1 11 12
M  V30 12 1 9 10
M  V30 13 1 3 13
M  V30 14 1 4 14
M  V30 15 1 4 15
M  V30 16 1 6 16
M  V30 17 1 7 17
M  V30 18 1 8 18
M  V30 19 1 9 19
M  V30 20 1 12 20
M  V30 21 1 12 21
M  V30 22 1 12 22
M  V30 END BOND
M  V30 END CTAB
M  END
>  <Structure No>
4232

>  <LogS>
-1.5917

>  <MMFF94 Energy>
-66.25

$$$$
Compound 4233
Actelion Java MolfileCreator 2.0

  0  0  0  0  0  0              0 V3000
M  V30 BEGIN CTAB
M  V30 COUNTS 19 19 0 0 0
M  V30 BEGIN ATOM
M  V30 1 O -3.8432 -1.0397 -0.1599 0
M  V30 2 N -2.6882 -1.4968 -0.0372 0 CHG=1
M  V30 3 O -2.5391 -2.845 0.1959 0 CHG=-1
M  V30 4 C -1.5293 -0.6413 -0.1359 0
M  V30 5 C -1.6479 0.7482 -0.3749 0
M  V30 6 C -0.243 -1.1962 0.0084 0
M  V30 7 O -2.9005 1.3434 -0.5244 0
M  V30 8 C -0.4965 1.5427 -0.4634 0
M  V30 9 C 0.9049 -0.4013 -0.0804 0
M  V30 10 C 0.7698 0.9765 -0.3181 0
M  V30 11 O 2.1555 -1.0186 0.0729 0
M  V30 12 C 3.4033 -0.3356 0.0069 0
M  V30 13 H -0.1234 -2.2563 0.1918 0
M  V30 14 H -3.0018 2.3372 -0.696 0
M  V30 15 H -0.5834 2.6065 -0.6462 0
M  V30 16 H 1.6367 1.6189 -0.3921 0
M  V30 17 H 4.2244 -1.065 0.1622 0
M  V30 18 H 3.5291 0.1342 -0.9914 0
M  V30 19 H 3.4584 0.4368 0.803 0
M  V30 END ATOM
M  V30 BEGIN BOND
M  V30 1 2 1 2
M  V30 2 1 2 3
M  V30 3 1 2 4
M  V30 4 2 4 5
M  V30 5 1 4 6
M  V30 6 1 5 7
M  V30 7 1 5 8
M  V30 8 2 6 9
M  V30 9 2 8 10
M  V30 10 1 9 11
M  V30 11 1 11 12
M  V30 12 1 9 10
M  V30 13 1 6 13
M  V30 14 1 7 14
M  V30 15 1 8 15
M  V30 16 1 10 16
M  V30 17 1 12 17
M  V30 18 1 12 18
M  V30 19 1 12 19
M  V30 END BOND
M  V30 END CTAB
M  END
>  <Structure No>
4233

>  <LogS>
-2.8409

>  <MMFF94 Energy>
47.706

$$$$
Compound 4234
Actelion Java MolfileCreator 2.0

  0  0  0  0  0  0              0 V3000
M  V30 BEGIN CTAB
M  V30 COUNTS 22 21 0 0 0
M  V30 BEGIN ATOM
M  V30 1 O 0.4609 -0.1536 -0.9988 0
M  V30 2 C -0.9097 -0.5101 -0.9814 0
M  V30 3 C 1.2196 -1.0346 -0.1961 0
M  V30 4 C -1.7104 0.5471 -0.2123 0 CFG=2
M  V30 5 C 2.6622 -0.5364 -0.1074 0
M  V30 6 O -1.2951 0.5636 1.1283 0
M  V30 7 C -3.2104 0.249 -0.2845 0
M  V30 8 C 2.7549 0.8041 0.6189 0
M  V30 9 H -1.116 -1.5252 -0.5614 0
M  V30 10 H -1.2642 -0.5296 -2.0343 0
M  V30 11 H 0.8013 -1.1088 0.8344 0
M  V30 12 H 1.2298 -2.0487 -0.6554 0
M  V30 13 H -1.5197 1.5403 -0.6826 0
M  V30 14 H 3.0831 -0.4318 -1.1309 0
M  V30 15 H 3.2715 -1.2861 0.4422 0
M  V30 16 H -1.5927 1.4304 1.5105 0
M  V30 17 H -3.7778 1.0351 0.2576 0
M  V30 18 H -3.5512 0.2389 -1.3417 0
M  V30 19 H -3.4335 -0.7356 0.1795 0
M  V30 20 H 2.1868 1.5845 0.0694 0
M  V30 21 H 3.8178 1.1192 0.6813 0
M  V30 22 H 2.3504 0.7139 1.6496 0
M  V30 END ATOM
M  V30 BEGIN BOND
M  V30 1 1 1 2
M  V30 2 1 1 3
M  V30 3 1 2 4
M  V30 4 1 3 5
M  V30 5 1 4 6
M  V30 6 1 4 7
M  V30 7 1 5 8
M  V30 8 1 2 9
M  V30 9 1 2 10
M  V30 10 1 3 11
M  V30 11 1 3 12
M  V30 12 1 4 13
M  V30 13 1 5 14
M  V30 14 1 5 15
M  V30 15 1 6 16
M  V30 16 1 7 17
M  V30 17 1 7 18
M  V30 18 1 7 19
M  V30 19 1 8 20
M  V30 20 1 8 21
M  V30 21 1 8 22
M  V30 END BOND
M  V30 BEGIN COLLECTION
M  V30 MDLV30/STEABS ATOMS=(1 4)
M  V30 END COLLECTION
M  V30 END CTAB
M  END
>  <Structure No>
4234

>  <LogS>
0.9275

>  <MMFF94 Energy>
22.084

$$$$
Compound 4235
Actelion Java MolfileCreator 2.0

  0  0  0  0  0  0              0 V3000
M  V30 BEGIN CTAB
M  V30 COUNTS 16 15 0 0 0
M  V30 BEGIN ATOM
M  V30 1 O -2.128 -1.2916 -0.3037 0
M  V30 2 C -1.2063 -0.5472 0.448 0 CFG=1
M  V30 3 C 0.0737 -0.3804 -0.3337 0
M  V30 4 C -1.8197 0.8141 0.7732 0
M  V30 5 C 1.191 0.0863 0.2415 0
M  V30 6 C 2.4582 0.2324 -0.5421 0
M  V30 7 H -1.8255 -2.237 -0.2731 0
M  V30 8 H -0.9917 -1.0768 1.4059 0
M  V30 9 H 0.0928 -0.6735 -1.3807 0
M  V30 10 H -1.132 1.4101 1.41 0
M  V30 11 H -2.7725 0.6735 1.3267 0
M  V30 12 H -2.0301 1.3778 -0.1612 0
M  V30 13 H 1.1892 0.3636 1.2923 0
M  V30 14 H 2.7753 -0.7557 -0.9373 0
M  V30 15 H 2.3018 0.9359 -1.387 0
M  V30 16 H 3.2603 0.6313 0.1133 0
M  V30 END ATOM
M  V30 BEGIN BOND
M  V30 1 1 1 2
M  V30 2 1 2 3
M  V30 3 1 2 4
M  V30 4 2 3 5
M  V30 5 1 5 6
M  V30 6 1 1 7
M  V30 7 1 2 8
M  V30 8 1 3 9
M  V30 9 1 4 10
M  V30 10 1 4 11
M  V30 11 1 4 12
M  V30 12 1 5 13
M  V30 13 1 6 14
M  V30 14 1 6 15
M  V30 15 1 6 16
M  V30 END BOND
M  V30 BEGIN COLLECTION
M  V30 MDLV30/STEABS ATOMS=(1 2)
M  V30 END COLLECTION
M  V30 END CTAB
M  END
>  <Structure No>
4235

>  <LogS>
0.0152

>  <MMFF94 Energy>
-1.1107

$$$$
Compound 4236
Actelion Java MolfileCreator 2.0

  0  0  0  0  0  0              0 V3000
M  V30 BEGIN CTAB
M  V30 COUNTS 16 16 0 0 0
M  V30 BEGIN ATOM
M  V30 1 Cl 3.5545 -1.0492 0.1613 0
M  V30 2 C 1.9538 -0.3334 0.1129 0
M  V30 3 C 0.8242 -1.1515 0.0055 0
M  V30 4 C 1.8071 1.0547 0.1817 0
M  V30 5 C -0.4613 -0.5849 -0.0337 0
M  V30 6 C 0.5333 1.6268 0.1433 0
M  V30 7 C -0.6041 0.8137 0.0359 0
M  V30 8 C -1.6739 -1.4644 -0.1491 0
M  V30 9 O -1.8738 1.3898 -0.002 0
M  V30 10 H 0.9502 -2.2259 -0.0469 0
M  V30 11 H 2.6789 1.6911 0.265 0
M  V30 12 H 0.4305 2.7032 0.1973 0
M  V30 13 H -2.2338 -1.2093 -1.0734 0
M  V30 14 H -2.3334 -1.3088 0.7305 0
M  V30 15 H -1.3973 -2.5392 -0.1931 0
M  V30 16 H -2.0029 2.3937 0.0464 0
M  V30 END ATOM
M  V30 BEGIN BOND
M  V30 1 1 1 2
M  V30 2 2 2 3
M  V30 3 1 2 4
M  V30 4 1 3 5
M  V30 5 2 4 6
M  V30 6 2 5 7
M  V30 7 1 5 8
M  V30 8 1 7 9
M  V30 9 1 6 7
M  V30 10 1 3 10
M  V30 11 1 4 11
M  V30 12 1 6 12
M  V30 13 1 8 13
M  V30 14 1 8 14
M  V30 15 1 8 15
M  V30 16 1 9 16
M  V30 END BOND
M  V30 END CTAB
M  END
>  <Structure No>
4236

>  <LogS>
-1.552

>  <MMFF94 Energy>
6.7438

$$$$
Compound 4237
Actelion Java MolfileCreator 2.0

  0  0  0  0  0  0              0 V3000
M  V30 BEGIN CTAB
M  V30 COUNTS 16 16 0 0 0
M  V30 BEGIN ATOM
M  V30 1 Cl 2.0855 2.336 -1.2509 0
M  V30 2 C 1.2793 0.9835 -0.4671 0
M  V30 3 C -0.1177 0.8082 -0.5471 0
M  V30 4 C 2.0579 0.0683 0.2493 0
M  V30 5 O -0.9201 1.7064 -1.2557 0
M  V30 6 C -0.7205 -0.2904 0.0968 0
M  V30 7 C 1.4589 -1.02 0.8871 0
M  V30 8 C 0.0754 -1.1999 0.8119 0
M  V30 9 C -2.2083 -0.489 0.0195 0
M  V30 10 Cl 2.4445 -2.1619 1.7831 0
M  V30 11 H 3.1307 0.2035 0.3106 0
M  V30 12 H -0.5472 2.5137 -1.7386 0
M  V30 13 H -0.3768 -2.0481 1.3111 0
M  V30 14 H -2.5306 -1.3952 0.5754 0
M  V30 15 H -2.7262 0.3908 0.4564 0
M  V30 16 H -2.5156 -0.6026 -1.0414 0
M  V30 END ATOM
M  V30 BEGIN BOND
M  V30 1 1 1 2
M  V30 2 2 2 3
M  V30 3 1 2 4
M  V30 4 1 3 5
M  V30 5 1 3 6
M  V30 6 2 4 7
M  V30 7 2 6 8
M  V30 8 1 6 9
M  V30 9 1 7 10
M  V30 10 1 7 8
M  V30 11 1 4 11
M  V30 12 1 5 12
M  V30 13 1 8 13
M  V30 14 1 9 14
M  V30 15 1 9 15
M  V30 16 1 9 16
M  V30 END BOND
M  V30 END CTAB
M  END
>  <Structure No>
4237

>  <LogS>
-2.0439

>  <MMFF94 Energy>
12.745

$$$$
Compound 4238
Actelion Java MolfileCreator 2.0

  0  0  0  0  0  0              0 V3000
M  V30 BEGIN CTAB
M  V30 COUNTS 21 21 0 0 0
M  V30 BEGIN ATOM
M  V30 1 S 2.5475 -0.3284 0.0821 0
M  V30 2 O 2.7833 0.0871 1.5075 0
M  V30 3 O 3.5852 0.3237 -0.788 0
M  V30 4 N 2.6812 -2.0462 -0.054 0
M  V30 5 C 0.9371 0.1744 -0.4226 0
M  V30 6 C -0.133 0.1059 0.481 0
M  V30 7 C 0.7147 0.6271 -1.7289 0
M  V30 8 C -1.4282 0.4941 0.0883 0
M  V30 9 C -0.5631 1.0259 -2.1238 0
M  V30 10 C -2.569 0.434 1.0348 0
M  V30 11 C -1.6282 0.9659 -1.2217 0
M  V30 12 O -3.5816 1.1587 0.8374 0
M  V30 13 N -2.5581 -0.4423 2.1649 0
M  V30 14 H 1.9764 -2.4596 0.5969 0
M  V30 15 H 3.6225 -2.3096 0.3139 0
M  V30 16 H 0.0581 -0.2294 1.4912 0
M  V30 17 H 1.5285 0.6741 -2.441 0
M  V30 18 H -0.7299 1.3805 -3.1329 0
M  V30 19 H -2.6116 1.2757 -1.5532 0
M  V30 20 H -3.3481 -0.4206 2.8475 0
M  V30 21 H -1.8245 -1.1738 2.2868 0
M  V30 END ATOM
M  V30 BEGIN BOND
M  V30 1 2 1 2
M  V30 2 2 1 3
M  V30 3 1 1 4
M  V30 4 1 1 5
M  V30 5 2 5 6
M  V30 6 1 5 7
M  V30 7 1 6 8
M  V30 8 2 7 9
M  V30 9 1 8 10
M  V30 10 2 8 11
M  V30 11 2 10 12
M  V30 12 1 10 13
M  V30 13 1 9 11
M  V30 14 1 4 14
M  V30 15 1 4 15
M  V30 16 1 6 16
M  V30 17 1 7 17
M  V30 18 1 9 18
M  V30 19 1 11 19
M  V30 20 1 13 20
M  V30 21 1 13 21
M  V30 END BOND
M  V30 END CTAB
M  END
>  <Structure No>
4238

>  <LogS>
-2.1554

>  <MMFF94 Energy>
-80.173

$$$$
Compound 4239
Actelion Java MolfileCreator 2.0

  0  0  0  0  0  0              0 V3000
M  V30 BEGIN CTAB
M  V30 COUNTS 20 19 0 0 0
M  V30 BEGIN ATOM
M  V30 1 O -1.3871 2.0041 -0.5392 0
M  V30 2 C -1.8196 1.3098 0.4199 0
M  V30 3 N -1.348 -0.0295 0.6164 0
M  V30 4 N -2.7844 1.8654 1.312 0
M  V30 5 C -0.3528 -0.6378 -0.271 0
M  V30 6 N 0.94 0.0272 -0.0949 0
M  V30 7 C -0.2109 -2.1315 0.0285 0
M  V30 8 C 1.9596 0.0085 -1.1028 0
M  V30 9 O 1.7551 -0.5616 -2.2081 0
M  V30 10 N 3.2155 0.6396 -0.8585 0
M  V30 11 H -1.7356 -0.5781 1.4178 0
M  V30 12 H -3.1533 1.3051 2.1118 0
M  V30 13 H -3.1313 2.8405 1.1735 0
M  V30 14 H -0.699 -0.5215 -1.322 0
M  V30 15 H 1.1491 0.4914 0.818 0
M  V30 16 H 0.1477 -2.2841 1.0689 0
M  V30 17 H 0.5138 -2.5958 -0.6727 0
M  V30 18 H -1.192 -2.6376 -0.0942 0
M  V30 19 H 3.4019 1.1176 0.0506 0
M  V30 20 H 3.9619 0.6297 -1.5886 0
M  V30 END ATOM
M  V30 BEGIN BOND
M  V30 1 2 1 2
M  V30 2 1 2 3
M  V30 3 1 2 4
M  V30 4 1 3 5
M  V30 5 1 5 6
M  V30 6 1 5 7
M  V30 7 1 6 8
M  V30 8 2 8 9
M  V30 9 1 8 10
M  V30 10 1 3 11
M  V30 11 1 4 12
M  V30 12 1 4 13
M  V30 13 1 5 14
M  V30 14 1 6 15
M  V30 15 1 7 16
M  V30 16 1 7 17
M  V30 17 1 7 18
M  V30 18 1 10 19
M  V30 19 1 10 20
M  V30 END BOND
M  V30 END CTAB
M  END
>  <Structure No>
4239

>  <LogS>
-0.5916

>  <MMFF94 Energy>
-248.52

$$$$
Compound 4240
Actelion Java MolfileCreator 2.0

  0  0  0  0  0  0              0 V3000
M  V30 BEGIN CTAB
M  V30 COUNTS 24 24 0 0 0
M  V30 BEGIN ATOM
M  V30 1 O 3.8651 -1.4185 0.4726 0
M  V30 2 C 3.5937 -0.2081 0.2509 0
M  V30 3 N 2.2418 0.1935 0.0196 0
M  V30 4 N 4.6422 0.7592 0.2314 0
M  V30 5 N 1.2098 -0.7616 0.0478 0
M  V30 6 C -0.0456 -0.4929 -0.169 0
M  V30 7 C -1.0483 -1.6103 -0.106 0
M  V30 8 C -0.5256 0.8997 -0.5074 0
M  V30 9 C -2.2873 -1.1734 0.6898 0
M  V30 10 C -2.0281 0.9141 -0.8162 0
M  V30 11 C -2.8381 0.218 0.2893 0
M  V30 12 H 2.0444 1.2037 -0.1557 0
M  V30 13 H 5.6309 0.4689 0.4001 0
M  V30 14 H 4.4332 1.7656 0.0489 0
M  V30 15 H -0.6038 -2.5101 0.3729 0
M  V30 16 H -1.3469 -1.8866 -1.1401 0
M  V30 17 H 0.0204 1.2774 -1.3984 0
M  V30 18 H -0.3234 1.5746 0.3522 0
M  V30 19 H -3.0825 -1.9392 0.5603 0
M  V30 20 H -2.0243 -1.1587 1.7707 0
M  V30 21 H -2.3736 1.9651 -0.9222 0
M  V30 22 H -2.2115 0.4009 -1.7858 0
M  V30 23 H -3.8909 0.1157 -0.0527 0
M  V30 24 H -2.8504 0.8751 1.1867 0
M  V30 END ATOM
M  V30 BEGIN BOND
M  V30 1 2 1 2
M  V30 2 1 2 3
M  V30 3 1 2 4
M  V30 4 1 3 5
M  V30 5 2 5 6
M  V30 6 1 6 7
M  V30 7 1 6 8
M  V30 8 1 7 9
M  V30 9 1 8 10
M  V30 10 1 9 11
M  V30 11 1 10 11
M  V30 12 1 3 12
M  V30 13 1 4 13
M  V30 14 1 4 14
M  V30 15 1 7 15
M  V30 16 1 7 16
M  V30 17 1 8 17
M  V30 18 1 8 18
M  V30 19 1 9 19
M  V30 20 1 9 20
M  V30 21 1 10 21
M  V30 22 1 10 22
M  V30 23 1 11 23
M  V30 24 1 11 24
M  V30 END BOND
M  V30 END CTAB
M  END
>  <Structure No>
4240

>  <LogS>
-1.4127

>  <MMFF94 Energy>
-30.154

$$$$
Compound 4241
Actelion Java MolfileCreator 2.0

  0  0  0  0  0  0              0 V3000
M  V30 BEGIN CTAB
M  V30 COUNTS 28 29 0 0 0
M  V30 BEGIN ATOM
M  V30 1 O 4.9253 0.5642 1.6128 0
M  V30 2 C 4.8736 0.0156 0.4806 0
M  V30 3 O 6.0329 -0.1191 -0.2726 0 CHG=-1
M  V30 4 C 3.562 -0.4407 -0.0748 0
M  V30 5 C 2.8938 0.6871 -0.8659 0
M  V30 6 C 1.5622 0.2419 -1.41 0
M  V30 7 O 1.5334 -0.2342 -2.5779 0
M  V30 8 C 0.3009 0.3129 -0.6174 0
M  V30 9 C -0.9275 7.0E-4 -1.2326 0
M  V30 10 C 0.3014 0.6811 0.7433 0
M  V30 11 C -2.1287 0.0579 -0.5096 0
M  V30 12 C -0.8908 0.7397 1.4694 0
M  V30 13 C -2.1099 0.4312 0.8542 0
M  V30 14 C -3.3514 -0.252 -1.127 0
M  V30 15 C -3.3119 0.488 1.5772 0
M  V30 16 C -4.5419 -0.1916 -0.3967 0
M  V30 17 C -4.5223 0.177 0.9509 0
M  V30 18 H 2.9053 -0.7711 0.7585 0
M  V30 19 H 3.7346 -1.3137 -0.7412 0
M  V30 20 H 2.7718 1.594 -0.2361 0
M  V30 21 H 3.5531 0.9753 -1.7145 0
M  V30 22 H -0.953 -0.2839 -2.2782 0
M  V30 23 H 1.2186 0.9186 1.2625 0
M  V30 24 H -0.8583 1.0247 2.5146 0
M  V30 25 H -3.3863 -0.54 -2.1709 0
M  V30 26 H -3.3153 0.7719 2.6228 0
M  V30 27 H -5.4821 -0.4314 -0.8766 0
M  V30 28 H -5.4473 0.222 1.5114 0
M  V30 END ATOM
M  V30 BEGIN BOND
M  V30 1 2 1 2
M  V30 2 1 2 3
M  V30 3 1 2 4
M  V30 4 1 4 5
M  V30 5 1 5 6
M  V30 6 2 6 7
M  V30 7 1 6 8
M  V30 8 2 8 9
M  V30 9 1 8 10
M  V30 10 1 9 11
M  V30 11 2 10 12
M  V30 12 1 11 13
M  V30 13 2 11 14
M  V30 14 2 13 15
M  V30 15 1 14 16
M  V30 16 1 15 17
M  V30 17 1 12 13
M  V30 18 2 16 17
M  V30 19 1 4 18
M  V30 20 1 4 19
M  V30 21 1 5 20
M  V30 22 1 5 21
M  V30 23 1 9 22
M  V30 24 1 10 23
M  V30 25 1 12 24
M  V30 26 1 14 25
M  V30 27 1 15 26
M  V30 28 1 16 27
M  V30 29 1 17 28
M  V30 END BOND
M  V30 END CTAB
M  END
>  <Structure No>
4241

>  <LogS>
-3.8533

>  <MMFF94 Energy>
40.953

$$$$
Compound 4242
Actelion Java MolfileCreator 2.0

  0  0  0  0  0  0              0 V3000
M  V30 BEGIN CTAB
M  V30 COUNTS 22 21 0 0 0
M  V30 BEGIN ATOM
M  V30 1 O 4.7968 0.2354 0.1569 0
M  V30 2 C 3.8615 -0.3048 -0.4902 0
M  V30 3 O 4.1001 -1.478 -1.1945 0 CHG=-1
M  V30 4 C 2.4865 0.2831 -0.459 0
M  V30 5 C 1.6783 -0.3061 0.6982 0
M  V30 6 C 0.2986 0.2782 0.7235 0
M  V30 7 O 0.0505 1.2613 1.4725 0
M  V30 8 N -0.7213 -0.246 -0.1311 0
M  V30 9 N -2.0046 0.3338 -0.145 0
M  V30 10 C -2.2559 0.8664 -1.4889 0
M  V30 11 C -2.9859 -0.7055 0.1864 0
M  V30 12 H 2.559 1.3874 -0.3457 0
M  V30 13 H 1.9782 0.0661 -1.4238 0
M  V30 14 H 2.1896 -0.0913 1.6626 0
M  V30 15 H 1.6057 -1.4099 0.5859 0
M  V30 16 H -0.4957 -1.048 -0.7653 0
M  V30 17 H -2.2078 0.0636 -2.2585 0
M  V30 18 H -3.2558 1.3496 -1.5266 0
M  V30 19 H -1.4974 1.6411 -1.7321 0
M  V30 20 H -4.0089 -0.272 0.2039 0
M  V30 21 H -2.774 -1.1108 1.199 0
M  V30 22 H -2.9551 -1.5411 -0.5481 0
M  V30 END ATOM
M  V30 BEGIN BOND
M  V30 1 2 1 2
M  V30 2 1 2 3
M  V30 3 1 2 4
M  V30 4 1 4 5
M  V30 5 1 5 6
M  V30 6 2 6 7
M  V30 7 1 6 8
M  V30 8 1 8 9
M  V30 9 1 9 10
M  V30 10 1 9 11
M  V30 11 1 4 12
M  V30 12 1 4 13
M  V30 13 1 5 14
M  V30 14 1 5 15
M  V30 15 1 8 16
M  V30 16 1 10 17
M  V30 17 1 10 18
M  V30 18 1 10 19
M  V30 19 1 11 20
M  V30 20 1 11 21
M  V30 21 1 11 22
M  V30 END BOND
M  V30 END CTAB
M  END
>  <Structure No>
4242

>  <LogS>
-0.2046

>  <MMFF94 Energy>
29.107

$$$$
Compound 4243
Actelion Java MolfileCreator 2.0

  0  0  0  0  0  0              0 V3000
M  V30 BEGIN CTAB
M  V30 COUNTS 27 26 0 0 0
M  V30 BEGIN ATOM
M  V30 1 O 4.6382 0.1624 -0.3249 0
M  V30 2 N 3.6017 -0.2992 -0.8417 0 CHG=1
M  V30 3 O 2.3742 0.0 -0.2877 0
M  V30 4 O 3.698 -1.1008 -1.9564 0 CHG=-1
M  V30 5 C 1.1602 -0.5026 -0.839 0
M  V30 6 C -0.063 -0.0089 -0.0228 0
M  V30 7 C -0.1197 1.539 -0.1032 0
M  V30 8 C -1.3629 -0.5873 -0.6422 0
M  V30 9 C 0.0634 -0.4348 1.4675 0
M  V30 10 O -1.2465 2.0456 0.6072 0
M  V30 11 O -1.3307 -2.0126 -0.674 0
M  V30 12 O 0.2007 -1.8259 1.6021 0
M  V30 13 N -1.5123 3.3977 0.6775 0 CHG=1
M  V30 14 N -2.375 -2.7583 -1.1837 0 CHG=1
M  V30 15 O -2.5101 3.7957 1.3106 0
M  V30 16 O -0.6915 4.3131 0.0588 0 CHG=-1
M  V30 17 O -3.3976 -2.2058 -1.6408 0
M  V30 18 O -2.2869 -4.1295 -1.1873 0 CHG=-1
M  V30 19 H 1.0729 -0.1621 -1.8945 0
M  V30 20 H 1.2028 -1.6131 -0.8474 0
M  V30 21 H 0.8042 1.981 0.3297 0
M  V30 22 H -0.1876 1.8629 -1.1654 0
M  V30 23 H -1.4862 -0.2089 -1.6811 0
M  V30 24 H -2.2473 -0.2618 -0.0517 0
M  V30 25 H 0.9213 0.0884 1.9519 0
M  V30 26 H -0.8473 -0.1257 2.0242 0
M  V30 27 H 1.1733 -2.0243 1.5925 0
M  V30 END ATOM
M  V30 BEGIN BOND
M  V30 1 2 1 2
M  V30 2 1 2 3
M  V30 3 1 2 4
M  V30 4 1 3 5
M  V30 5 1 5 6
M  V30 6 1 6 7
M  V30 7 1 6 8
M  V30 8 1 6 9
M  V30 9 1 7 10
M  V30 10 1 8 11
M  V30 11 1 9 12
M  V30 12 1 10 13
M  V30 13 1 11 14
M  V30 14 2 13 15
M  V30 15 1 13 16
M  V30 16 2 14 17
M  V30 17 1 14 18
M  V30 18 1 5 19
M  V30 19 1 5 20
M  V30 20 1 7 21
M  V30 21 1 7 22
M  V30 22 1 8 23
M  V30 23 1 8 24
M  V30 24 1 9 25
M  V30 25 1 9 26
M  V30 26 1 12 27
M  V30 END BOND
M  V30 END CTAB
M  END
>  <Structure No>
4243

>  <LogS>
-1.585

>  <MMFF94 Energy>
-42.659

$$$$
Compound 4244
Actelion Java MolfileCreator 2.0

  0  0  0  0  0  0              0 V3000
M  V30 BEGIN CTAB
M  V30 COUNTS 32 32 0 0 0
M  V30 BEGIN ATOM
M  V30 1 O -0.235 4.0013 1.0971 0
M  V30 2 C -0.1722 2.641 0.7844 0
M  V30 3 C -1.4272 4.7666 0.9668 0
M  V30 4 N 1.0011 1.9765 0.934 0
M  V30 5 N -1.2697 1.9771 0.333 0
M  V30 6 C 1.0845 0.6547 0.6355 0
M  V30 7 C -1.1952 0.6553 0.0334 0
M  V30 8 N -0.0169 -0.0024 0.1875 0
M  V30 9 N 2.3306 -0.0346 0.8006 0
M  V30 10 N -2.3564 -0.0332 -0.4431 0
M  V30 11 C 2.4948 -1.4566 0.4796 0
M  V30 12 C -2.3164 -1.4544 -0.787 0
M  V30 13 C 2.5836 -1.647 -1.0376 0
M  V30 14 C 3.7484 -2.0138 1.1617 0
M  V30 15 C -3.6787 -1.9382 -1.2724 0
M  V30 16 H -2.2217 4.3476 1.6202 0
M  V30 17 H -1.2243 5.813 1.274 0
M  V30 18 H -1.7688 4.7619 -0.09 0
M  V30 19 H 3.1378 0.5022 1.193 0
M  V30 20 H -3.2463 0.5065 -0.5461 0
M  V30 21 H 1.6199 -2.0255 0.8656 0
M  V30 22 H -2.0195 -2.0434 0.1075 0
M  V30 23 H -1.5652 -1.62 -1.5894 0
M  V30 24 H 2.7125 -2.7228 -1.2828 0
M  V30 25 H 1.6528 -1.2918 -1.5272 0
M  V30 26 H 3.4429 -1.0761 -1.4502 0
M  V30 27 H 3.8478 -3.1006 0.9543 0
M  V30 28 H 4.6585 -1.4916 0.7958 0
M  V30 29 H 3.6727 -1.8739 2.2612 0
M  V30 30 H -3.9846 -1.3722 -2.1779 0
M  V30 31 H -3.6226 -3.0175 -1.5268 0
M  V30 32 H -4.4402 -1.7969 -0.4762 0
M  V30 END ATOM
M  V30 BEGIN BOND
M  V30 1 1 1 2
M  V30 2 1 1 3
M  V30 3 2 2 4
M  V30 4 1 2 5
M  V30 5 1 4 6
M  V30 6 2 5 7
M  V30 7 2 6 8
M  V30 8 1 6 9
M  V30 9 1 7 10
M  V30 10 1 9 11
M  V30 11 1 10 12
M  V30 12 1 11 13
M  V30 13 1 11 14
M  V30 14 1 12 15
M  V30 15 1 7 8
M  V30 16 1 3 16
M  V30 17 1 3 17
M  V30 18 1 3 18
M  V30 19 1 9 19
M  V30 20 1 10 20
M  V30 21 1 11 21
M  V30 22 1 12 22
M  V30 23 1 12 23
M  V30 24 1 13 24
M  V30 25 1 13 25
M  V30 26 1 13 26
M  V30 27 1 14 27
M  V30 28 1 14 28
M  V30 29 1 14 29
M  V30 30 1 15 30
M  V30 31 1 15 31
M  V30 32 1 15 32
M  V30 END BOND
M  V30 END CTAB
M  END
>  <Structure No>
4244

>  <LogS>
-2.0696

>  <MMFF94 Energy>
-241.33

$$$$
Compound 4245
Actelion Java MolfileCreator 2.0

  0  0  0  0  0  0              0 V3000
M  V30 BEGIN CTAB
M  V30 COUNTS 11 10 0 0 0
M  V30 BEGIN ATOM
M  V30 1 N 1.1393 3.1927 -1.6713 0
M  V30 2 C 0.7883 2.4138 -0.8909 0
M  V30 3 C 0.3519 1.446 0.0794 0
M  V30 4 C 0.0798 0.1934 -0.2857 0
M  V30 5 C -0.3669 -0.8019 0.7019 0
M  V30 6 C -0.6397 -2.0529 0.343 0
M  V30 7 H 0.2492 1.7564 1.112 0
M  V30 8 H 0.1882 -0.1001 -1.3248 0
M  V30 9 H -0.4783 -0.5188 1.7422 0
M  V30 10 H -0.9671 -2.7693 1.0852 0
M  V30 11 H -0.5411 -2.3757 -0.686 0
M  V30 END ATOM
M  V30 BEGIN BOND
M  V30 1 3 1 2
M  V30 2 1 2 3
M  V30 3 2 3 4
M  V30 4 1 4 5
M  V30 5 2 5 6
M  V30 6 1 3 7
M  V30 7 1 4 8
M  V30 8 1 5 9
M  V30 9 1 6 10
M  V30 10 1 6 11
M  V30 END BOND
M  V30 END CTAB
M  END
>  <Structure No>
4245

>  <LogS>
-0.7221

>  <MMFF94 Energy>
6.6179

$$$$
Compound 4246
Actelion Java MolfileCreator 2.0

  0  0  0  0  0  0              0 V3000
M  V30 BEGIN CTAB
M  V30 COUNTS 20 20 0 0 0
M  V30 BEGIN ATOM
M  V30 1 S 2.9906 -0.1659 0.2489 0
M  V30 2 S 2.5881 1.0597 -1.4303 0
M  V30 3 C 1.5711 0.5733 1.1044 0
M  V30 4 C 0.8616 0.5309 -1.3317 0
M  V30 5 C 0.3801 0.7175 0.1247 0
M  V30 6 N -0.7771 -0.1481 0.4998 0 CHG=1
M  V30 7 C -1.9872 0.2107 -0.2632 0
M  V30 8 C -0.5164 -1.5988 0.381 0
M  V30 9 H 1.8809 1.5755 1.4735 0
M  V30 10 H 1.3156 -0.0379 1.9949 0
M  V30 11 H 0.25 1.1462 -2.0251 0
M  V30 12 H 0.8161 -0.523 -1.6667 0
M  V30 13 H 0.0549 1.7812 0.2113 0
M  V30 14 H -0.9981 0.0447 1.5064 0
M  V30 15 H -1.8582 0.0025 -1.3476 0
M  V30 16 H -2.2284 1.2885 -0.1319 0
M  V30 17 H -2.862 -0.3713 0.1028 0
M  V30 18 H -1.2829 -2.1682 0.9514 0
M  V30 19 H -0.5663 -1.9444 -0.6735 0
M  V30 20 H 0.4735 -1.8734 0.7997 0
M  V30 END ATOM
M  V30 BEGIN BOND
M  V30 1 1 1 2
M  V30 2 1 1 3
M  V30 3 1 2 4
M  V30 4 1 3 5
M  V30 5 1 5 6
M  V30 6 1 6 7
M  V30 7 1 6 8
M  V30 8 1 4 5
M  V30 9 1 3 9
M  V30 10 1 3 10
M  V30 11 1 4 11
M  V30 12 1 4 12
M  V30 13 1 5 13
M  V30 14 1 6 14
M  V30 15 1 7 15
M  V30 16 1 7 16
M  V30 17 1 7 17
M  V30 18 1 8 18
M  V30 19 1 8 19
M  V30 20 1 8 20
M  V30 END BOND
M  V30 END CTAB
M  END
>  <Structure No>
4246

>  <LogS>
-1.873

>  <MMFF94 Energy>
49.734

$$$$
Compound 4247
Actelion Java MolfileCreator 2.0

  0  0  0  0  0  0              0 V3000
M  V30 BEGIN CTAB
M  V30 COUNTS 24 23 0 0 0
M  V30 BEGIN ATOM
M  V30 1 S -3.9611 1.187 0.0791 0
M  V30 2 C -3.3675 -0.2837 -0.8195 0
M  V30 3 C -1.8399 -0.294 -0.9416 0
M  V30 4 C -1.1534 -0.5163 0.4172 0
M  V30 5 C 0.3666 -0.7052 0.2892 0
M  V30 6 C 1.0983 0.6069 -0.0421 0
M  V30 7 C 2.6188 0.4183 -0.1621 0
M  V30 8 C 3.2971 0.193 1.1891 0
M  V30 9 H -3.545 2.073 -0.9331 0
M  V30 10 H -3.7182 -1.1983 -0.2958 0
M  V30 11 H -3.8155 -0.2782 -1.836 0
M  V30 12 H -1.5536 -1.116 -1.6332 0
M  V30 13 H -1.507 0.6639 -1.3932 0
M  V30 14 H -1.3666 0.3345 1.1001 0
M  V30 15 H -1.5738 -1.4343 0.8837 0
M  V30 16 H 0.7372 -1.0932 1.2614 0
M  V30 17 H 0.5877 -1.4715 -0.4856 0
M  V30 18 H 0.7328 0.9931 -1.0165 0
M  V30 19 H 0.8741 1.3745 0.7307 0
M  V30 20 H 2.8474 -0.4314 -0.8412 0
M  V30 21 H 3.0508 1.3362 -0.6169 0
M  V30 22 H 4.399 0.188 1.0514 0
M  V30 23 H 3.0007 -0.7844 1.6218 0
M  V30 24 H 3.0345 1.0073 1.8973 0
M  V30 END ATOM
M  V30 BEGIN BOND
M  V30 1 1 1 2
M  V30 2 1 2 3
M  V30 3 1 3 4
M  V30 4 1 4 5
M  V30 5 1 5 6
M  V30 6 1 6 7
M  V30 7 1 7 8
M  V30 8 1 1 9
M  V30 9 1 2 10
M  V30 10 1 2 11
M  V30 11 1 3 12
M  V30 12 1 3 13
M  V30 13 1 4 14
M  V30 14 1 4 15
M  V30 15 1 5 16
M  V30 16 1 5 17
M  V30 17 1 6 18
M  V30 18 1 6 19
M  V30 19 1 7 20
M  V30 20 1 7 21
M  V30 21 1 8 22
M  V30 22 1 8 23
M  V30 23 1 8 24
M  V30 END BOND
M  V30 END CTAB
M  END
>  <Structure No>
4247

>  <LogS>
-4.1549

>  <MMFF94 Energy>
-1.9322

$$$$
Compound 4248
Actelion Java MolfileCreator 2.0

  0  0  0  0  0  0              0 V3000
M  V30 BEGIN CTAB
M  V30 COUNTS 27 26 0 0 0
M  V30 BEGIN ATOM
M  V30 1 S -2.9752 -0.0803 1.2053 0 CFG=1
M  V30 2 O -2.9618 -1.5982 1.3389 0
M  V30 3 C -1.6114 0.298 0.0483 0
M  V30 4 C -4.548 0.2587 0.3838 0
M  V30 5 C -0.3151 -0.1717 0.6667 0
M  V30 6 C -1.8321 -0.4175 -1.2971 0
M  V30 7 C -1.5493 1.819 -0.1674 0
M  V30 8 N 0.8103 -0.0142 0.0459 0
M  V30 9 O 1.9897 -0.4419 0.6134 0
M  V30 10 C 3.2048 -0.2761 -0.0484 0
M  V30 11 O 3.2391 0.272 -1.1842 0
M  V30 12 N 4.4107 -0.7325 0.5708 0
M  V30 13 C 5.7105 -0.5869 -0.0721 0
M  V30 14 H -5.3755 0.089 1.1031 0
M  V30 15 H -4.5821 1.313 0.0437 0
M  V30 16 H -4.6856 -0.4202 -0.4821 0
M  V30 17 H -0.3188 -0.6444 1.6426 0
M  V30 18 H -2.7535 -0.0508 -1.795 0
M  V30 19 H -0.9823 -0.2268 -1.9874 0
M  V30 20 H -1.9199 -1.5147 -1.1474 0
M  V30 21 H -1.4065 2.3425 0.8026 0
M  V30 22 H -2.4857 2.1912 -0.6327 0
M  V30 23 H -0.7061 2.0883 -0.8398 0
M  V30 24 H 4.3564 -1.1833 1.5118 0
M  V30 25 H 6.5037 -1.0069 0.5816 0
M  V30 26 H 5.924 0.488 -0.2505 0
M  V30 27 H 5.7155 -1.1326 -1.0391 0
M  V30 END ATOM
M  V30 BEGIN BOND
M  V30 1 2 1 2
M  V30 2 1 1 3
M  V30 3 1 1 4
M  V30 4 1 3 5
M  V30 5 1 3 6
M  V30 6 1 3 7
M  V30 7 2 5 8
M  V30 8 1 8 9
M  V30 9 1 9 10
M  V30 10 2 10 11
M  V30 11 1 10 12
M  V30 12 1 12 13
M  V30 13 1 4 14
M  V30 14 1 4 15
M  V30 15 1 4 16
M  V30 16 1 5 17
M  V30 17 1 6 18
M  V30 18 1 6 19
M  V30 19 1 6 20
M  V30 20 1 7 21
M  V30 21 1 7 22
M  V30 22 1 7 23
M  V30 23 1 12 24
M  V30 24 1 13 25
M  V30 25 1 13 26
M  V30 26 1 13 27
M  V30 END BOND
M  V30 BEGIN COLLECTION
M  V30 MDLV30/STEABS ATOMS=(1 1)
M  V30 END COLLECTION
M  V30 END CTAB
M  END
>  <Structure No>
4248

>  <LogS>
-0.8673

>  <MMFF94 Energy>
6.6128

$$$$
Compound 4249
Actelion Java MolfileCreator 2.0

  0  0  0  0  0  0              0 V3000
M  V30 BEGIN CTAB
M  V30 COUNTS 28 27 0 0 0
M  V30 BEGIN ATOM
M  V30 1 S -2.2608 0.6455 0.6455 0
M  V30 2 O -2.1358 0.4647 2.1328 0
M  V30 3 O -1.5172 1.8889 0.2438 0
M  V30 4 C -1.5487 -0.7859 -0.192 0
M  V30 5 C -3.9837 0.8646 0.2435 0
M  V30 6 C -0.1228 -0.9731 0.2729 0
M  V30 7 C -2.3658 -2.0426 0.156 0
M  V30 8 C -1.5711 -0.5702 -1.7157 0
M  V30 9 N 0.767 -0.056 0.0645 0
M  V30 10 O 2.0652 -0.2292 0.4892 0
M  V30 11 C 3.0272 0.7552 0.2715 0
M  V30 12 O 2.7175 1.8252 -0.3208 0
M  V30 13 N 4.3667 0.5419 0.7257 0
M  V30 14 C 5.4152 1.5346 0.5274 0
M  V30 15 H -4.1073 0.9663 -0.8535 0
M  V30 16 H -4.3613 1.7844 0.7359 0
M  V30 17 H -4.5708 -0.0033 0.6064 0
M  V30 18 H 0.1661 -1.8839 0.7862 0
M  V30 19 H -3.4079 -1.9546 -0.2169 0
M  V30 20 H -1.9121 -2.9442 -0.3099 0
M  V30 21 H -2.3978 -2.1963 1.2563 0
M  V30 22 H -1.0868 -1.4248 -2.2359 0
M  V30 23 H -2.6141 -0.4864 -2.0874 0
M  V30 24 H -1.0284 0.3591 -1.9916 0
M  V30 25 H 4.5985 -0.352 1.2138 0
M  V30 26 H 5.5564 1.7216 -0.5578 0
M  V30 27 H 6.3705 1.1645 0.9555 0
M  V30 28 H 5.1374 2.4824 1.0349 0
M  V30 END ATOM
M  V30 BEGIN BOND
M  V30 1 2 1 2
M  V30 2 2 1 3
M  V30 3 1 1 4
M  V30 4 1 1 5
M  V30 5 1 4 6
M  V30 6 1 4 7
M  V30 7 1 4 8
M  V30 8 2 6 9
M  V30 9 1 9 10
M  V30 10 1 10 11
M  V30 11 2 11 12
M  V30 12 1 11 13
M  V30 13 1 13 14
M  V30 14 1 5 15
M  V30 15 1 5 16
M  V30 16 1 5 17
M  V30 17 1 6 18
M  V30 18 1 7 19
M  V30 19 1 7 20
M  V30 20 1 7 21
M  V30 21 1 8 22
M  V30 22 1 8 23
M  V30 23 1 8 24
M  V30 24 1 13 25
M  V30 25 1 14 26
M  V30 26 1 14 27
M  V30 27 1 14 28
M  V30 END BOND
M  V30 END CTAB
M  END
>  <Structure No>
4249

>  <LogS>
-1.3469

>  <MMFF94 Energy>
-17.923

$$$$
Compound 4250
Actelion Java MolfileCreator 2.0

  0  0  0  0  0  0              0 V3000
M  V30 BEGIN CTAB
M  V30 COUNTS 8 7 0 0 0
M  V30 BEGIN ATOM
M  V30 1 Cl -0.9906 1.7116 -0.8105 0
M  V30 2 C -0.7694 0.128 -0.0196 0
M  V30 3 F -1.3052 0.1755 1.2549 0
M  V30 4 F -1.4458 -0.8294 -0.7527 0
M  V30 5 C 0.7106 -0.2427 0.0488 0
M  V30 6 Cl 1.619 0.8845 1.0934 0
M  V30 7 H 0.8164 -1.2672 0.4639 0
M  V30 8 H 1.1522 -0.2297 -0.97 0
M  V30 END ATOM
M  V30 BEGIN BOND
M  V30 1 1 1 2
M  V30 2 1 2 3
M  V30 3 1 2 4
M  V30 4 1 2 5
M  V30 5 1 5 6
M  V30 6 1 5 7
M  V30 7 1 5 8
M  V30 END BOND
M  V30 END CTAB
M  END
>  <Structure No>
4250

>  <LogS>
-2.2007

>  <MMFF94 Energy>
23.481

$$$$
Compound 4251
Actelion Java MolfileCreator 2.0

  0  0  0  0  0  0              0 V3000
M  V30 BEGIN CTAB
M  V30 COUNTS 36 35 0 0 0
M  V30 BEGIN ATOM
M  V30 1 O -5.1943 0.0773 -0.2321 0
M  V30 2 C -4.1787 0.9377 0.215 0 CFG=1
M  V30 3 C -2.8649 0.1615 0.4489 0
M  V30 4 C -4.0062 2.0818 -0.7864 0
M  V30 5 C -2.3555 -0.5731 -0.806 0
M  V30 6 C -1.195 -1.5325 -0.4972 0
M  V30 7 C 0.0966 -0.7951 -0.1127 0
M  V30 8 C 1.2652 -1.7803 0.0403 0
M  V30 9 C 2.5426 -1.106 0.5656 0
M  V30 10 C 3.172 -0.1496 -0.4626 0
M  V30 11 C 4.5733 0.3228 -0.0456 0
M  V30 12 C 4.5451 1.2593 1.162 0
M  V30 13 H -5.4616 -0.4789 0.5458 0
M  V30 14 H -4.484 1.3947 1.1854 0
M  V30 15 H -2.0903 0.8729 0.8073 0
M  V30 16 H -3.0388 -0.5781 1.2609 0
M  V30 17 H -4.9339 2.6921 -0.8171 0
M  V30 18 H -3.8167 1.6898 -1.8076 0
M  V30 19 H -3.1641 2.7399 -0.483 0
M  V30 20 H -2.0292 0.161 -1.5735 0
M  V30 21 H -3.1834 -1.1729 -1.2417 0
M  V30 22 H -1.4901 -2.2298 0.3174 0
M  V30 23 H -1.003 -2.1418 -1.4077 0
M  V30 24 H -0.0528 -0.2597 0.8491 0
M  V30 25 H 0.3374 -0.052 -0.9025 0
M  V30 26 H 1.4741 -2.2747 -0.9337 0
M  V30 27 H 0.974 -2.5731 0.7642 0
M  V30 28 H 3.2746 -1.9061 0.8115 0
M  V30 29 H 2.31 -0.5598 1.5049 0
M  V30 30 H 2.5179 0.7356 -0.6145 0
M  V30 31 H 3.2644 -0.6752 -1.438 0
M  V30 32 H 5.0281 0.8696 -0.9 0
M  V30 33 H 5.2224 -0.5518 0.1763 0
M  V30 34 H 3.8629 2.1157 0.9743 0
M  V30 35 H 5.5662 1.655 1.3458 0
M  V30 36 H 4.216 0.7164 2.0722 0
M  V30 END ATOM
M  V30 BEGIN BOND
M  V30 1 1 1 2
M  V30 2 1 2 3
M  V30 3 1 2 4
M  V30 4 1 3 5
M  V30 5 1 5 6
M  V30 6 1 6 7
M  V30 7 1 7 8
M  V30 8 1 8 9
M  V30 9 1 9 10
M  V30 10 1 10 11
M  V30 11 1 11 12
M  V30 12 1 1 13
M  V30 13 1 2 14
M  V30 14 1 3 15
M  V30 15 1 3 16
M  V30 16 1 4 17
M  V30 17 1 4 18
M  V30 18 1 4 19
M  V30 19 1 5 20
M  V30 20 1 5 21
M  V30 21 1 6 22
M  V30 22 1 6 23
M  V30 23 1 7 24
M  V30 24 1 7 25
M  V30 25 1 8 26
M  V30 26 1 8 27
M  V30 27 1 9 28
M  V30 28 1 9 29
M  V30 29 1 10 30
M  V30 30 1 10 31
M  V30 31 1 11 32
M  V30 32 1 11 33
M  V30 33 1 12 34
M  V30 34 1 12 35
M  V30 35 1 12 36
M  V30 END BOND
M  V30 BEGIN COLLECTION
M  V30 MDLV30/STEABS ATOMS=(1 2)
M  V30 END COLLECTION
M  V30 END CTAB
M  END
>  <Structure No>
4251

>  <LogS>
-2.9418

>  <MMFF94 Energy>
2.2901

$$$$
Compound 4252
Actelion Java MolfileCreator 2.0

  0  0  0  0  0  0              0 V3000
M  V30 BEGIN CTAB
M  V30 COUNTS 27 26 0 0 0
M  V30 BEGIN ATOM
M  V30 1 O 4.9394 0.154 0.8476 0
M  V30 2 C 3.863 -0.5395 0.2813 0
M  V30 3 C 2.5744 0.2508 0.5037 0
M  V30 4 C 1.3673 -0.4753 -0.102 0
M  V30 5 C 0.0758 0.3213 0.1212 0
M  V30 6 C -1.1355 -0.4149 -0.4727 0
M  V30 7 C -2.4343 0.4206 -0.4095 0
M  V30 8 C -3.534 -0.2547 -1.2394 0
M  V30 9 C -2.9199 0.6188 1.0346 0
M  V30 10 H 5.7447 -0.3997 0.6754 0
M  V30 11 H 3.7728 -1.5416 0.7583 0
M  V30 12 H 4.0365 -0.6703 -0.8105 0
M  V30 13 H 2.4168 0.3872 1.5964 0
M  V30 14 H 2.6788 1.2541 0.0348 0
M  V30 15 H 1.5317 -0.6124 -1.1936 0
M  V30 16 H 1.2664 -1.4781 0.369 0
M  V30 17 H 0.1742 1.3201 -0.358 0
M  V30 18 H -0.0707 0.463 1.2132 0
M  V30 19 H -1.2816 -1.3812 0.059 0
M  V30 20 H -0.9128 -0.6468 -1.538 0
M  V30 21 H -2.2429 1.4216 -0.8562 0
M  V30 22 H -4.4601 0.359 -1.2243 0
M  V30 23 H -3.2103 -0.3569 -2.2972 0
M  V30 24 H -3.7653 -1.264 -0.8354 0
M  V30 25 H -3.8948 1.1518 1.0427 0
M  V30 26 H -2.2018 1.2395 1.6086 0
M  V30 27 H -3.0453 -0.3601 1.5451 0
M  V30 END ATOM
M  V30 BEGIN BOND
M  V30 1 1 1 2
M  V30 2 1 2 3
M  V30 3 1 3 4
M  V30 4 1 4 5
M  V30 5 1 5 6
M  V30 6 1 6 7
M  V30 7 1 7 8
M  V30 8 1 7 9
M  V30 9 1 1 10
M  V30 10 1 2 11
M  V30 11 1 2 12
M  V30 12 1 3 13
M  V30 13 1 3 14
M  V30 14 1 4 15
M  V30 15 1 4 16
M  V30 16 1 5 17
M  V30 17 1 5 18
M  V30 18 1 6 19
M  V30 19 1 6 20
M  V30 20 1 7 21
M  V30 21 1 8 22
M  V30 22 1 8 23
M  V30 23 1 8 24
M  V30 24 1 9 25
M  V30 25 1 9 26
M  V30 26 1 9 27
M  V30 END BOND
M  V30 END CTAB
M  END
>  <Structure No>
4252

>  <LogS>
-2.3038

>  <MMFF94 Energy>
3.6701

$$$$
Compound 4253
Actelion Java MolfileCreator 2.0

  0  0  0  0  0  0              0 V3000
M  V30 BEGIN CTAB
M  V30 COUNTS 34 36 0 0 0
M  V30 BEGIN ATOM
M  V30 1 N 1.3598 -2.0002 0.0 0
M  V30 2 C 0.6859 -0.8218 0.0254 0
M  V30 3 C 2.7119 -2.0612 -0.034 0
M  V30 4 C -0.7193 -0.8272 0.0602 0
M  V30 5 C 1.4004 0.3987 0.0165 0
M  V30 6 C 3.4805 -0.8897 -0.0445 0
M  V30 7 N -1.3845 -2.0107 0.0682 0
M  V30 8 C -1.4429 0.3878 0.0872 0
M  V30 9 C 2.8219 0.3684 -0.0188 0
M  V30 10 C 0.6717 1.6044 0.0436 0
M  V30 11 C 4.9825 -1.0148 -0.0827 0
M  V30 12 C -2.7361 -2.0822 0.1013 0
M  V30 13 C -2.8642 0.3464 0.1223 0
M  V30 14 C -0.7232 1.5991 0.0782 0
M  V30 15 C 3.6086 1.6647 -0.0288 0
M  V30 16 C -3.5135 -0.9167 0.1291 0
M  V30 17 C -3.6605 1.6366 0.1516 0
M  V30 18 C -5.0145 -1.0533 0.1655 0
M  V30 19 H 3.1874 -3.0334 -0.0529 0
M  V30 20 H 1.1664 2.5659 0.0383 0
M  V30 21 H 5.424 -0.541 0.8191 0
M  V30 22 H 5.3084 -2.0767 -0.0986 0
M  V30 23 H 5.3788 -0.5277 -0.9983 0
M  V30 24 H -3.2046 -3.0581 0.1057 0
M  V30 25 H -1.2251 2.5567 0.0978 0
M  V30 26 H 4.7054 1.525 -0.057 0
M  V30 27 H 3.378 2.2474 0.8878 0
M  V30 28 H 3.333 2.2607 -0.9242 0
M  V30 29 H -3.4344 2.2345 -0.7561 0
M  V30 30 H -3.3894 2.2213 1.0558 0
M  V30 31 H -4.7564 1.4884 0.1779 0
M  V30 32 H -5.4145 -0.5829 1.0883 0
M  V30 33 H -5.4596 -0.5695 -0.7292 0
M  V30 34 H -5.3328 -2.1178 0.1655 0
M  V30 END ATOM
M  V30 BEGIN BOND
M  V30 1 1 1 2
M  V30 2 2 1 3
M  V30 3 2 2 4
M  V30 4 1 2 5
M  V30 5 1 3 6
M  V30 6 1 4 7
M  V30 7 1 4 8
M  V30 8 1 5 9
M  V30 9 2 5 10
M  V30 10 1 6 11
M  V30 11 2 7 12
M  V30 12 1 8 13
M  V30 13 2 8 14
M  V30 14 1 9 15
M  V30 15 1 12 16
M  V30 16 1 13 17
M  V30 17 1 16 18
M  V30 18 2 6 9
M  V30 19 1 10 14
M  V30 20 2 13 16
M  V30 21 1 3 19
M  V30 22 1 10 20
M  V30 23 1 11 21
M  V30 24 1 11 22
M  V30 25 1 11 23
M  V30 26 1 12 24
M  V30 27 1 14 25
M  V30 28 1 15 26
M  V30 29 1 15 27
M  V30 30 1 15 28
M  V30 31 1 17 29
M  V30 32 1 17 30
M  V30 33 1 17 31
M  V30 34 1 18 32
M  V30 35 1 18 33
M  V30 36 1 18 34
M  V30 END BOND
M  V30 END CTAB
M  END
>  <Structure No>
4253

>  <LogS>
-5.1939

>  <MMFF94 Energy>
108.92

$$$$
Compound 4254
Actelion Java MolfileCreator 2.0

  0  0  0  0  0  0              0 V3000
M  V30 BEGIN CTAB
M  V30 COUNTS 43 45 0 0 0
M  V30 BEGIN ATOM
M  V30 1 O -2.6982 -1.1103 -0.555 0
M  V30 2 C -2.0419 -1.2923 0.6564 0
M  V30 3 C -3.6369 -0.0564 -0.7362 0
M  V30 4 C -1.0652 -0.3769 1.0428 0
M  V30 5 C -2.3497 -2.3849 1.474 0
M  V30 6 C -3.069 1.3537 -0.6507 0
M  V30 7 C -0.7031 0.7008 0.1046 0
M  V30 8 C -0.4264 -0.5218 2.2848 0
M  V30 9 C -1.7022 -2.5386 2.704 0
M  V30 10 C -1.7359 1.701 -0.271 0
M  V30 11 C -3.9711 2.3874 -0.9687 0
M  V30 12 C 0.5193 0.7552 -0.4642 0
M  V30 13 C -0.7467 -1.6026 3.113 0
M  V30 14 C -1.3722 3.0629 -0.2277 0
M  V30 15 C -3.5831 3.7254 -0.9247 0
M  V30 16 C 1.5962 -0.2721 -0.2192 0
M  V30 17 C -2.2862 4.0625 -0.5544 0
M  V30 18 C 2.7995 -0.0472 -1.1591 0
M  V30 19 N 3.9035 -1.0242 -0.9897 0 CHG=1
M  V30 20 C 4.5168 -0.961 0.349 0
M  V30 21 C 3.4963 -2.4027 -1.3157 0
M  V30 22 H -4.4459 -0.1637 0.019 0
M  V30 23 H -4.1013 -0.1903 -1.7363 0
M  V30 24 H -3.0985 -3.1023 1.164 0
M  V30 25 H 0.3169 0.196 2.6075 0
M  V30 26 H -1.9455 -3.3779 3.3425 0
M  V30 27 H -4.9898 2.1537 -1.2552 0
M  V30 28 H 0.7245 1.5407 -1.1837 0
M  V30 29 H -0.2508 -1.7177 4.068 0
M  V30 30 H -0.3747 3.3565 0.0766 0
M  V30 31 H -4.2932 4.5031 -1.1747 0
M  V30 32 H 1.1649 -1.2794 -0.3938 0
M  V30 33 H 1.9257 -0.1889 0.8351 0
M  V30 34 H -1.9887 5.1024 -0.5139 0
M  V30 35 H 3.1932 0.9818 -0.9959 0
M  V30 36 H 2.4405 -0.079 -2.2131 0
M  V30 37 H 4.6469 -0.7558 -1.678 0
M  V30 38 H 4.7592 0.0895 0.6212 0
M  V30 39 H 5.4676 -1.5378 0.3604 0
M  V30 40 H 3.8484 -1.3912 1.1257 0
M  V30 41 H 2.9695 -2.4362 -2.2943 0
M  V30 42 H 2.8331 -2.8294 -0.5326 0
M  V30 43 H 4.3929 -3.0561 -1.3955 0
M  V30 END ATOM
M  V30 BEGIN BOND
M  V30 1 1 1 2
M  V30 2 1 1 3
M  V30 3 2 2 4
M  V30 4 1 2 5
M  V30 5 1 3 6
M  V30 6 1 4 7
M  V30 7 1 4 8
M  V30 8 2 5 9
M  V30 9 2 6 10
M  V30 10 1 6 11
M  V30 11 2 7 12
M  V30 12 2 8 13
M  V30 13 1 10 14
M  V30 14 2 11 15
M  V30 15 1 12 16
M  V30 16 2 14 17
M  V30 17 1 16 18
M  V30 18 1 18 19
M  V30 19 1 19 20
M  V30 20 1 19 21
M  V30 21 1 7 10
M  V30 22 1 9 13
M  V30 23 1 15 17
M  V30 24 1 3 22
M  V30 25 1 3 23
M  V30 26 1 5 24
M  V30 27 1 8 25
M  V30 28 1 9 26
M  V30 29 1 11 27
M  V30 30 1 12 28
M  V30 31 1 13 29
M  V30 32 1 14 30
M  V30 33 1 15 31
M  V30 34 1 16 32
M  V30 35 1 16 33
M  V30 36 1 17 34
M  V30 37 1 18 35
M  V30 38 1 18 36
M  V30 39 1 19 37
M  V30 40 1 20 38
M  V30 41 1 20 39
M  V30 42 1 20 40
M  V30 43 1 21 41
M  V30 44 1 21 42
M  V30 45 1 21 43
M  V30 END BOND
M  V30 END CTAB
M  END
>  <Structure No>
4254

>  <LogS>
-3.9469

>  <MMFF94 Energy>
95.102

$$$$
Compound 4255
Actelion Java MolfileCreator 2.0

  0  0  0  0  0  0              0 V3000
M  V30 BEGIN CTAB
M  V30 COUNTS 24 24 0 0 0
M  V30 BEGIN ATOM
M  V30 1 C 0.47 0.235 0.235 0
M  V30 2 C -0.4971 1.4191 0.024 0
M  V30 3 C -0.0665 -1.0228 -0.4851 0
M  V30 4 C 1.8816 0.6196 -0.2615 0
M  V30 5 C -1.9171 1.0701 0.4855 0
M  V30 6 C -1.4908 -1.3624 -0.0271 0
M  V30 7 C 2.9532 -0.3917 0.147 0
M  V30 8 C -2.437 -0.1761 -0.2373 0
M  V30 9 H 0.5252 0.0258 1.3276 0
M  V30 10 H -0.5205 1.7045 -1.0513 0
M  V30 11 H -0.1437 2.2998 0.6036 0
M  V30 12 H -0.0623 -0.8627 -1.5861 0
M  V30 13 H 0.5807 -1.8964 -0.2619 0
M  V30 14 H 2.1659 1.6029 0.1737 0
M  V30 15 H 1.8832 0.7294 -1.368 0
M  V30 16 H -1.9218 0.8956 1.5841 0
M  V30 17 H -2.5931 1.9259 0.2721 0
M  V30 18 H -1.8638 -2.2348 -0.6056 0
M  V30 19 H -1.4797 -1.645 1.0486 0
M  V30 20 H 3.9558 0.0096 -0.1108 0
M  V30 21 H 2.8194 -1.3499 -0.3956 0
M  V30 22 H 2.9188 -0.5759 1.2416 0
M  V30 23 H -3.4437 -0.4352 0.1556 0
M  V30 24 H -2.5369 0.0354 -1.3248 0
M  V30 END ATOM
M  V30 BEGIN BOND
M  V30 1 1 1 2
M  V30 2 1 1 3
M  V30 3 1 1 4
M  V30 4 1 2 5
M  V30 5 1 3 6
M  V30 6 1 4 7
M  V30 7 1 5 8
M  V30 8 1 6 8
M  V30 9 1 1 9
M  V30 10 1 2 10
M  V30 11 1 2 11
M  V30 12 1 3 12
M  V30 13 1 3 13
M  V30 14 1 4 14
M  V30 15 1 4 15
M  V30 16 1 5 16
M  V30 17 1 5 17
M  V30 18 1 6 18
M  V30 19 1 6 19
M  V30 20 1 7 20
M  V30 21 1 7 21
M  V30 22 1 7 22
M  V30 23 1 8 23
M  V30 24 1 8 24
M  V30 END BOND
M  V30 END CTAB
M  END
>  <Structure No>
4255

>  <LogS>
-4.2507

>  <MMFF94 Energy>
1.4392

$$$$
Compound 4256
Actelion Java MolfileCreator 2.0

  0  0  0  0  0  0              0 V3000
M  V30 BEGIN CTAB
M  V30 COUNTS 27 29 0 0 0
M  V30 BEGIN ATOM
M  V30 1 O 2.2716 0.8108 0.5675 0
M  V30 2 C 1.4922 -0.1152 -0.1645 0 CFG=2
M  V30 3 C 1.3153 1.3735 -0.3112 0 CFG=1
M  V30 4 C 0.3374 -0.8258 0.6164 0 CFG=2
M  V30 5 C 2.2629 -0.8461 -1.2584 0
M  V30 6 C 0.0494 1.9677 0.4065 0
M  V30 7 C -1.0286 -0.3437 0.0587 0
M  V30 8 C 0.0453 -0.0115 1.8957 0
M  V30 9 C -0.8675 0.8591 1.0249 0 CFG=1
M  V30 10 C -1.1723 -0.0592 -1.4632 0
M  V30 11 C -2.1915 -1.2808 0.478 0
M  V30 12 H 1.7951 1.9021 -1.1616 0
M  V30 13 H 0.4566 -1.9205 0.767 0
M  V30 14 H 3.0747 -0.2113 -1.6738 0
M  V30 15 H 2.7136 -1.768 -0.8362 0
M  V30 16 H 1.5709 -1.1277 -2.0786 0
M  V30 17 H -0.541 2.5494 -0.332 0
M  V30 18 H 0.3737 2.6735 1.201 0
M  V30 19 H -0.5209 -0.5971 2.6519 0
M  V30 20 H 0.8878 0.5082 2.4 0
M  V30 21 H -1.7916 1.2241 1.5236 0
M  V30 22 H -2.1671 0.3928 -1.6622 0
M  V30 23 H -0.4248 0.6227 -1.9015 0
M  V30 24 H -1.107 -1.0149 -2.025 0
M  V30 25 H -2.1739 -1.5522 1.5525 0
M  V30 26 H -3.1667 -0.7889 0.2742 0
M  V30 27 H -2.1443 -2.2256 -0.1042 0
M  V30 END ATOM
M  V30 BEGIN BOND
M  V30 1 1 1 2
M  V30 2 1 1 3
M  V30 3 1 2 4
M  V30 4 1 2 5
M  V30 5 1 3 6
M  V30 6 1 4 7
M  V30 7 1 4 8
M  V30 8 1 6 9
M  V30 9 1 7 10
M  V30 10 1 7 11
M  V30 11 1 2 3
M  V30 12 1 7 9
M  V30 13 1 8 9
M  V30 14 1 3 12
M  V30 15 1 4 13
M  V30 16 1 5 14
M  V30 17 1 5 15
M  V30 18 1 5 16
M  V30 19 1 6 17
M  V30 20 1 6 18
M  V30 21 1 8 19
M  V30 22 1 8 20
M  V30 23 1 9 21
M  V30 24 1 10 22
M  V30 25 1 10 23
M  V30 26 1 10 24
M  V30 27 1 11 25
M  V30 28 1 11 26
M  V30 29 1 11 27
M  V30 END BOND
M  V30 BEGIN COLLECTION
M  V30 MDLV30/STEABS ATOMS=(4 2 3 4 9)
M  V30 END COLLECTION
M  V30 END CTAB
M  END
>  <Structure No>
4256

>  <LogS>
-2.5937

>  <MMFF94 Energy>
42.379

$$$$
Compound 4257
Actelion Java MolfileCreator 2.0

  0  0  0  0  0  0              0 V3000
M  V30 BEGIN CTAB
M  V30 COUNTS 22 23 0 0 0
M  V30 BEGIN ATOM
M  V30 1 O -0.0801 -2.486 2.2452 0
M  V30 2 C -0.2312 -1.5711 1.3941 0
M  V30 3 O -1.4623 -1.1503 0.9073 0
M  V30 4 C 0.8202 -0.805 0.7781 0
M  V30 5 C -1.2863 -0.093 -0.0472 0
M  V30 6 C 0.2157 0.0809 -0.0836 0
M  V30 7 C 2.2031 -0.8582 0.9407 0
M  V30 8 C -1.8275 -0.5306 -1.4123 0
M  V30 9 C -1.9805 1.1783 0.4518 0
M  V30 10 C 0.9822 0.9737 -0.839 0
M  V30 11 C 2.9888 0.0315 0.1895 0
M  V30 12 C 2.3805 0.9441 -0.697 0
M  V30 13 H 2.6592 -1.5627 1.624 0
M  V30 14 H -2.9162 -0.7396 -1.342 0
M  V30 15 H -1.6644 0.2651 -2.1704 0
M  V30 16 H -1.3145 -1.4564 -1.7507 0
M  V30 17 H -1.5769 1.4727 1.4445 0
M  V30 18 H -1.8211 2.0159 -0.2608 0
M  V30 19 H -3.0721 1.0012 0.5567 0
M  V30 20 H 0.5115 1.6725 -1.5182 0
M  V30 21 H 4.0659 0.0164 0.2919 0
M  V30 22 H 2.9937 1.626 -1.2716 0
M  V30 END ATOM
M  V30 BEGIN BOND
M  V30 1 2 1 2
M  V30 2 1 2 3
M  V30 3 1 2 4
M  V30 4 1 3 5
M  V30 5 2 4 6
M  V30 6 1 4 7
M  V30 7 1 5 8
M  V30 8 1 5 9
M  V30 9 1 6 10
M  V30 10 2 7 11
M  V30 11 2 10 12
M  V30 12 1 5 6
M  V30 13 1 11 12
M  V30 14 1 7 13
M  V30 15 1 8 14
M  V30 16 1 8 15
M  V30 17 1 8 16
M  V30 18 1 9 17
M  V30 19 1 9 18
M  V30 20 1 9 19
M  V30 21 1 10 20
M  V30 22 1 11 21
M  V30 23 1 12 22
M  V30 END BOND
M  V30 END CTAB
M  END
>  <Structure No>
4257

>  <LogS>
-1.8684

>  <MMFF94 Energy>
36.64

$$$$
Compound 4258
Actelion Java MolfileCreator 2.0

  0  0  0  0  0  0              0 V3000
M  V30 BEGIN CTAB
M  V30 COUNTS 25 26 0 0 0
M  V30 BEGIN ATOM
M  V30 1 O -5.7404 0.3182 0.0 0
M  V30 2 C -4.3478 0.3498 -0.0031 0
M  V30 3 C -3.6845 1.5809 0.0243 0
M  V30 4 C -3.6058 -0.8388 -0.0333 0
M  V30 5 C -2.2868 1.6272 0.0215 0
M  V30 6 C -2.208 -0.7947 -0.0362 0
M  V30 7 C -1.5392 0.4432 -0.0086 0
M  V30 8 N -0.1091 0.526 -0.0107 0
M  V30 9 N 0.6294 -0.5101 -0.0374 0
M  V30 10 C 2.0594 -0.4272 -0.0394 0
M  V30 11 C 2.8075 -1.6116 -0.0697 0
M  V30 12 C 2.7283 0.8113 -0.0118 0
M  V30 13 C 4.2052 -1.5642 -0.0724 0
M  V30 14 C 4.1263 0.8545 -0.0147 0
M  V30 15 C 4.8642 -0.3319 -0.0449 0
M  V30 16 H -6.2501 -0.5573 -0.0192 0
M  V30 17 H -4.2524 2.5024 0.0478 0
M  V30 18 H -4.1109 -1.7961 -0.0546 0
M  V30 19 H -1.7842 2.5862 0.0429 0
M  V30 20 H -1.6532 -1.7239 -0.0598 0
M  V30 21 H 2.3053 -2.5708 -0.0909 0
M  V30 22 H 2.1738 1.7406 0.0118 0
M  V30 23 H 4.7772 -2.4827 -0.0958 0
M  V30 24 H 4.6378 1.8083 0.0065 0
M  V30 25 H 5.946 -0.2966 -0.0471 0
M  V30 END ATOM
M  V30 BEGIN BOND
M  V30 1 1 1 2
M  V30 2 2 2 3
M  V30 3 1 2 4
M  V30 4 1 3 5
M  V30 5 2 4 6
M  V30 6 2 5 7
M  V30 7 1 7 8
M  V30 8 2 8 9
M  V30 9 1 9 10
M  V30 10 2 10 11
M  V30 11 1 10 12
M  V30 12 1 11 13
M  V30 13 2 12 14
M  V30 14 2 13 15
M  V30 15 1 6 7
M  V30 16 1 14 15
M  V30 17 1 1 16
M  V30 18 1 3 17
M  V30 19 1 4 18
M  V30 20 1 5 19
M  V30 21 1 6 20
M  V30 22 1 11 21
M  V30 23 1 12 22
M  V30 24 1 13 23
M  V30 25 1 14 24
M  V30 26 1 15 25
M  V30 END BOND
M  V30 END CTAB
M  END
>  <Structure No>
4258

>  <LogS>
-3.3429

>  <MMFF94 Energy>
28.427

$$$$
Compound 4259
Actelion Java MolfileCreator 2.0

  0  0  0  0  0  0              0 V3000
M  V30 BEGIN CTAB
M  V30 COUNTS 21 22 0 0 0
M  V30 BEGIN ATOM
M  V30 1 Cl 3.9285 1.169 -1.8374 0
M  V30 2 C 2.8925 0.3829 -0.6473 0
M  V30 3 C 1.5013 0.5372 -0.7135 0
M  V30 4 C 3.4418 -0.3914 0.3797 0
M  V30 5 O 0.9977 1.2649 -1.6136 0
M  V30 6 N 0.7027 -0.084 0.2135 0
M  V30 7 Cl 5.1777 -0.6269 0.5322 0
M  V30 8 C 2.5895 -0.9824 1.3075 0
M  V30 9 N 1.2486 -0.8089 1.1952 0
M  V30 10 C -0.7325 0.0357 0.1793 0
M  V30 11 C -1.4382 0.3508 1.3531 0
M  V30 12 C -1.45 -0.2083 -1.0062 0
M  V30 13 C -2.8332 0.4477 1.3349 0
M  V30 14 C -2.845 -0.1111 -1.0197 0
M  V30 15 C -3.5358 0.2195 0.1489 0
M  V30 16 H 2.9868 -1.5806 2.1168 0
M  V30 17 H -0.9054 0.5314 2.2783 0
M  V30 18 H -0.9316 -0.4895 -1.9138 0
M  V30 19 H -3.3695 0.6985 2.2411 0
M  V30 20 H -3.391 -0.2986 -1.9351 0
M  V30 21 H -4.6156 0.2933 0.1369 0
M  V30 END ATOM
M  V30 BEGIN BOND
M  V30 1 1 1 2
M  V30 2 1 2 3
M  V30 3 2 2 4
M  V30 4 2 3 5
M  V30 5 1 3 6
M  V30 6 1 4 7
M  V30 7 1 4 8
M  V30 8 1 6 9
M  V30 9 1 6 10
M  V30 10 2 10 11
M  V30 11 1 10 12
M  V30 12 1 11 13
M  V30 13 2 12 14
M  V30 14 2 13 15
M  V30 15 2 8 9
M  V30 16 1 14 15
M  V30 17 1 8 16
M  V30 18 1 11 17
M  V30 19 1 12 18
M  V30 20 1 13 19
M  V30 21 1 14 20
M  V30 22 1 15 21
M  V30 END BOND
M  V30 END CTAB
M  END
>  <Structure No>
4259

>  <LogS>
-3.3822

>  <MMFF94 Energy>
71.617

$$$$
Compound 4260
Actelion Java MolfileCreator 2.0

  0  0  0  0  0  0              0 V3000
M  V30 BEGIN CTAB
M  V30 COUNTS 23 24 0 0 0
M  V30 BEGIN ATOM
M  V30 1 Cl 3.2486 2.5983 -0.4867 0
M  V30 2 C 2.3668 1.1017 -0.1793 0
M  V30 3 C 0.9715 1.1347 -0.0493 0
M  V30 4 C 3.0334 -0.1287 -0.0728 0
M  V30 5 O 0.3598 2.231 -0.1814 0
M  V30 6 N 0.2818 -0.0251 0.1967 0
M  V30 7 N 4.4572 -0.2285 -0.1992 0
M  V30 8 C 2.2786 -1.2791 0.1559 0
M  V30 9 N 0.9312 -1.1897 0.2819 0
M  V30 10 C -1.1505 -0.0372 0.3494 0
M  V30 11 C -1.7907 0.8518 1.2325 0
M  V30 12 C -1.9226 -0.9798 -0.3506 0
M  V30 13 C -3.1798 0.8138 1.3887 0
M  V30 14 C -3.3115 -1.0139 -0.192 0
M  V30 15 C -3.9399 -0.1161 0.6748 0
M  V30 16 H 4.932 -1.1555 -0.1199 0
M  V30 17 H 5.0572 0.6075 -0.3697 0
M  V30 18 H 2.7577 -2.246 0.2366 0
M  V30 19 H -1.2138 1.5618 1.8112 0
M  V30 20 H -1.4478 -1.6799 -1.0262 0
M  V30 21 H -3.6665 1.5014 2.0683 0
M  V30 22 H -3.9006 -1.7375 -0.7404 0
M  V30 23 H -5.0148 -0.1449 0.7977 0
M  V30 END ATOM
M  V30 BEGIN BOND
M  V30 1 1 1 2
M  V30 2 1 2 3
M  V30 3 2 2 4
M  V30 4 2 3 5
M  V30 5 1 3 6
M  V30 6 1 4 7
M  V30 7 1 4 8
M  V30 8 1 6 9
M  V30 9 1 6 10
M  V30 10 2 10 11
M  V30 11 1 10 12
M  V30 12 1 11 13
M  V30 13 2 12 14
M  V30 14 2 13 15
M  V30 15 2 8 9
M  V30 16 1 14 15
M  V30 17 1 7 16
M  V30 18 1 7 17
M  V30 19 1 8 18
M  V30 20 1 11 19
M  V30 21 1 12 20
M  V30 22 1 13 21
M  V30 23 1 14 22
M  V30 24 1 15 23
M  V30 END BOND
M  V30 END CTAB
M  END
>  <Structure No>
4260

>  <LogS>
-2.7436

>  <MMFF94 Energy>
112.58

$$$$
Compound 4261
Actelion Java MolfileCreator 2.0

  0  0  0  0  0  0              0 V3000
M  V30 BEGIN CTAB
M  V30 COUNTS 13 13 0 0 0
M  V30 BEGIN ATOM
M  V30 1 Cl -2.6176 2.2683 -0.3487 0
M  V30 2 C -1.426 0.9963 -0.172 0
M  V30 3 N -0.1035 1.3057 -0.187 0
M  V30 4 C -1.8294 -0.3285 -0.0166 0
M  V30 5 C 0.8731 0.3642 -0.0546 0
M  V30 6 C -0.8621 -1.3222 0.1218 0
M  V30 7 C 0.4977 -0.993 0.1052 0
M  V30 8 C 2.278 0.8292 -0.0872 0
M  V30 9 Cl 1.6554 -2.3083 0.2866 0
M  V30 10 O 3.2436 0.0307 0.0274 0
M  V30 11 O 2.5445 2.1837 -0.2485 0 CHG=-1
M  V30 12 H -2.8807 -0.5869 -0.0032 0
M  V30 13 H -1.1718 -2.3527 0.2429 0
M  V30 END ATOM
M  V30 BEGIN BOND
M  V30 1 1 1 2
M  V30 2 2 2 3
M  V30 3 1 2 4
M  V30 4 1 3 5
M  V30 5 2 4 6
M  V30 6 2 5 7
M  V30 7 1 5 8
M  V30 8 1 7 9
M  V30 9 2 8 10
M  V30 10 1 8 11
M  V30 11 1 6 7
M  V30 12 1 4 12
M  V30 13 1 6 13
M  V30 END BOND
M  V30 END CTAB
M  END
>  <Structure No>
4261

>  <LogS>
-1.3884

>  <MMFF94 Energy>
85.011

$$$$
Compound 4262
Actelion Java MolfileCreator 2.0

  0  0  0  0  0  0              0 V3000
M  V30 BEGIN CTAB
M  V30 COUNTS 33 36 0 0 0
M  V30 BEGIN ATOM
M  V30 1 C 0.5627 0.3215 -0.0803 0
M  V30 2 C -0.0992 -0.8954 0.275 0
M  V30 3 C 1.997 0.3862 -0.0663 0
M  V30 4 C -0.2258 1.4382 -0.4269 0
M  V30 5 C -1.5297 -0.9707 0.2307 0
M  V30 6 C 0.6925 -1.9971 0.6741 0
M  V30 7 C 2.7372 -0.7562 0.3386 0
M  V30 8 C 2.7332 1.541 -0.4456 0
M  V30 9 C -1.6216 1.3874 -0.4507 0
M  V30 10 C -2.2852 0.184 -0.1297 0
M  V30 11 C -2.2426 -2.1642 0.5267 0
M  V30 12 C 2.0765 -1.9237 0.7065 0
M  V30 13 C 4.1413 -0.726 0.374 0
M  V30 14 C 4.1294 1.5522 -0.4057 0
M  V30 15 C -2.3809 2.6394 -0.8301 0
M  V30 16 C -3.6974 0.1099 -0.1621 0
M  V30 17 C -3.6349 -2.206 0.4842 0
M  V30 18 C 4.8312 0.4243 0.0049 0
M  V30 19 C -4.3594 -1.0736 0.1444 0
M  V30 20 H 0.221 2.3841 -0.6741 0
M  V30 21 H 0.2775 -2.9392 0.9849 0
M  V30 22 H 2.2717 2.4504 -0.7885 0
M  V30 23 H -1.7623 -3.0911 0.7848 0
M  V30 24 H 2.6375 -2.7964 1.022 0
M  V30 25 H 4.7067 -1.5963 0.6864 0
M  V30 26 H 4.6705 2.443 -0.6987 0
M  V30 27 H -3.049 2.9424 0.0035 0
M  V30 28 H -2.9831 2.4524 -1.7441 0
M  V30 29 H -1.705 3.4945 -1.0439 0
M  V30 30 H -4.308 0.9621 -0.4264 0
M  V30 31 H -4.1553 -3.1272 0.7145 0
M  V30 32 H 5.9131 0.4403 0.0333 0
M  V30 33 H -5.4409 -1.1133 0.1131 0
M  V30 END ATOM
M  V30 BEGIN BOND
M  V30 1 1 1 2
M  V30 2 2 1 3
M  V30 3 1 1 4
M  V30 4 1 2 5
M  V30 5 2 2 6
M  V30 6 1 3 7
M  V30 7 1 3 8
M  V30 8 2 4 9
M  V30 9 1 5 10
M  V30 10 2 5 11
M  V30 11 1 6 12
M  V30 12 1 7 13
M  V30 13 2 8 14
M  V30 14 1 9 15
M  V30 15 2 10 16
M  V30 16 1 11 17
M  V30 17 2 13 18
M  V30 18 1 16 19
M  V30 19 2 7 12
M  V30 20 1 9 10
M  V30 21 1 14 18
M  V30 22 2 17 19
M  V30 23 1 4 20
M  V30 24 1 6 21
M  V30 25 1 8 22
M  V30 26 1 11 23
M  V30 27 1 12 24
M  V30 28 1 13 25
M  V30 29 1 14 26
M  V30 30 1 15 27
M  V30 31 1 15 28
M  V30 32 1 15 29
M  V30 33 1 16 30
M  V30 34 1 17 31
M  V30 35 1 18 32
M  V30 36 1 19 33
M  V30 END BOND
M  V30 END CTAB
M  END
>  <Structure No>
4262

>  <LogS>
-6.5715

>  <MMFF94 Energy>
80.408

$$$$
Compound 4263
Actelion Java MolfileCreator 2.0

  0  0  0  0  0  0              0 V3000
M  V30 BEGIN CTAB
M  V30 COUNTS 14 13 0 0 0
M  V30 BEGIN ATOM
M  V30 1 O 2.5051 -0.5475 0.704 0
M  V30 2 N 2.1993 -0.2362 -0.4659 0 CHG=1
M  V30 3 O 0.8776 -0.147 -0.8603 0
M  V30 4 O 3.1936 -0.0262 -1.3905 0 CHG=-1
M  V30 5 C -0.211 -0.3103 0.0483 0
M  V30 6 C -0.3538 0.9343 0.9277 0
M  V30 7 C -1.4909 -0.5524 -0.7489 0
M  V30 8 H -0.0301 -1.1988 0.6927 0
M  V30 9 H 0.5646 1.0854 1.5318 0
M  V30 10 H -1.2112 0.8165 1.6243 0
M  V30 11 H -0.5179 1.8356 0.2991 0
M  V30 12 H -1.7057 0.3128 -1.4119 0
M  V30 13 H -2.3503 -0.7071 -0.0618 0
M  V30 14 H -1.3749 -1.4614 -1.3764 0
M  V30 END ATOM
M  V30 BEGIN BOND
M  V30 1 2 1 2
M  V30 2 1 2 3
M  V30 3 1 2 4
M  V30 4 1 3 5
M  V30 5 1 5 6
M  V30 6 1 5 7
M  V30 7 1 5 8
M  V30 8 1 6 9
M  V30 9 1 6 10
M  V30 10 1 6 11
M  V30 11 1 7 12
M  V30 12 1 7 13
M  V30 13 1 7 14
M  V30 END BOND
M  V30 END CTAB
M  END
>  <Structure No>
4263

>  <LogS>
-1.4593

>  <MMFF94 Energy>
-12.4

$$$$
Compound 4264
Actelion Java MolfileCreator 2.0

  0  0  0  0  0  0              0 V3000
M  V30 BEGIN CTAB
M  V30 COUNTS 8 7 0 0 0
M  V30 BEGIN ATOM
M  V30 1 Cl 1.4008 -0.4376 1.4884 0
M  V30 2 C 0.657 -0.132 -0.1011 0
M  V30 3 Cl 1.4322 1.2904 -0.8421 0
M  V30 4 F 0.86 -1.232 -0.9139 0
M  V30 5 C -0.8374 0.1139 0.0611 0
M  V30 6 H -1.0144 0.9961 0.7127 0
M  V30 7 H -1.3214 -0.7747 0.5186 0
M  V30 8 H -1.3018 0.2997 -0.9306 0
M  V30 END ATOM
M  V30 BEGIN BOND
M  V30 1 1 1 2
M  V30 2 1 2 3
M  V30 3 1 2 4
M  V30 4 1 2 5
M  V30 5 1 5 6
M  V30 6 1 5 7
M  V30 7 1 5 8
M  V30 END BOND
M  V30 END CTAB
M  END
>  <Structure No>
4264

>  <LogS>
-2.4448

>  <MMFF94 Energy>
2.7523

$$$$
Compound 4265
Actelion Java MolfileCreator 2.0

  0  0  0  0  0  0              0 V3000
M  V30 BEGIN CTAB
M  V30 COUNTS 27 29 0 0 0
M  V30 BEGIN ATOM
M  V30 1 Cl -5.8558 -0.4174 1.3362 0
M  V30 2 C -4.2744 -0.6531 0.6147 0
M  V30 3 C -3.4878 0.454 0.2758 0
M  V30 4 C -3.7907 -1.948 0.3979 0
M  V30 5 C -2.217 0.2697 -0.2884 0
M  V30 6 C -2.5331 -2.1383 -0.1816 0
M  V30 7 N -1.3423 1.3941 -0.4759 0
M  V30 8 C -1.7541 -1.0338 -0.5424 0
M  V30 9 C 0.0762 1.2326 -0.3138 0
M  V30 10 S -0.2315 -1.2758 -1.4617 0
M  V30 11 C 0.6782 -0.0114 -0.5685 0
M  V30 12 C 0.8437 2.2718 0.2277 0
M  V30 13 C 2.0186 -0.2276 -0.23 0
M  V30 14 C 2.1887 2.0618 0.5446 0
M  V30 15 C 2.7842 0.8127 0.3317 0
M  V30 16 O 4.1327 0.6495 0.682 0
M  V30 17 C 4.8643 -0.5613 0.5213 0
M  V30 18 H -3.8493 1.4534 0.4839 0
M  V30 19 H -4.3942 -2.8062 0.6645 0
M  V30 20 H -2.181 -3.1426 -0.38 0
M  V30 21 H -1.7464 2.3575 -0.4315 0
M  V30 22 H 0.3909 3.2325 0.4388 0
M  V30 23 H 2.4617 -1.1922 -0.4371 0
M  V30 24 H 2.7679 2.8693 0.9745 0
M  V30 25 H 4.3939 -1.3732 1.1154 0
M  V30 26 H 5.901 -0.4094 0.8854 0
M  V30 27 H 4.9021 -0.8448 -0.5515 0
M  V30 END ATOM
M  V30 BEGIN BOND
M  V30 1 1 1 2
M  V30 2 2 2 3
M  V30 3 1 2 4
M  V30 4 1 3 5
M  V30 5 2 4 6
M  V30 6 1 5 7
M  V30 7 2 5 8
M  V30 8 1 7 9
M  V30 9 1 8 10
M  V30 10 2 9 11
M  V30 11 1 9 12
M  V30 12 1 11 13
M  V30 13 2 12 14
M  V30 14 2 13 15
M  V30 15 1 15 16
M  V30 16 1 16 17
M  V30 17 1 6 8
M  V30 18 1 10 11
M  V30 19 1 14 15
M  V30 20 1 3 18
M  V30 21 1 4 19
M  V30 22 1 6 20
M  V30 23 1 7 21
M  V30 24 1 12 22
M  V30 25 1 13 23
M  V30 26 1 14 24
M  V30 27 1 17 25
M  V30 28 1 17 26
M  V30 29 1 17 27
M  V30 END BOND
M  V30 END CTAB
M  END
>  <Structure No>
4265

>  <LogS>
-4.9787

>  <MMFF94 Energy>
46.464

$$$$
Compound 4266
Actelion Java MolfileCreator 2.0

  0  0  0  0  0  0              0 V3000
M  V30 BEGIN CTAB
M  V30 COUNTS 49 51 0 0 0
M  V30 BEGIN ATOM
M  V30 1 O -4.3556 0.6443 -2.3373 0
M  V30 2 C -3.7431 1.3806 -1.5178 0
M  V30 3 O -3.9534 2.7553 -1.568 0 CHG=-1
M  V30 4 C -2.8547 0.7603 -0.4422 0 CFG=2
M  V30 5 C -1.9785 -0.3999 -1.0663 0 CFG=2
M  V30 6 C -3.8063 0.203 0.673 0
M  V30 7 C -1.9476 1.8747 0.1547 0
M  V30 8 C -1.1275 -1.2118 0.0034 0 CFG=1
M  V30 9 C -1.1861 0.072 -2.3343 0
M  V30 10 C -3.3866 -1.1584 1.2423 0
M  V30 11 C 0.2847 -0.6209 0.1459 0
M  V30 12 C -1.871 -1.2412 1.387 0
M  V30 13 C -0.9736 -2.6812 -0.468 0
M  V30 14 C 0.3165 -0.2096 -2.3409 0
M  V30 15 C 0.9333 -0.0752 -0.981 0
M  V30 16 C 1.0091 -0.7045 1.3562 0
M  V30 17 C 2.228 0.4573 -0.8653 0
M  V30 18 C 2.2888 -0.1607 1.467 0
M  V30 19 C 2.9052 0.4441 0.3621 0
M  V30 20 C 4.3014 1.0296 0.4666 0
M  V30 21 C 4.3546 2.1554 1.5066 0
M  V30 22 C 5.3334 -0.0598 0.7793 0
M  V30 23 H -2.7271 -1.126 -1.4605 0
M  V30 24 H -3.8879 0.9271 1.514 0
M  V30 25 H -4.8456 0.0782 0.2932 0
M  V30 26 H -1.3206 2.3558 -0.623 0
M  V30 27 H -1.2683 1.493 0.9376 0
M  V30 28 H -2.5634 2.6733 0.6224 0
M  V30 29 H -1.6232 -0.4113 -3.236 0
M  V30 30 H -1.3155 1.1596 -2.5088 0
M  V30 31 H -3.8615 -1.3001 2.2375 0
M  V30 32 H -3.7507 -1.9762 0.5836 0
M  V30 33 H -1.6216 -2.1666 1.9523 0
M  V30 34 H -1.5614 -0.3998 2.0412 0
M  V30 35 H -0.3101 -3.247 0.2215 0
M  V30 36 H -0.5425 -2.7491 -1.4845 0
M  V30 37 H -1.9581 -3.195 -0.4925 0
M  V30 38 H 0.5135 -1.2308 -2.7259 0
M  V30 39 H 0.7984 0.4898 -3.0595 0
M  V30 40 H 0.5981 -1.1969 2.2263 0
M  V30 41 H 2.7182 0.8636 -1.742 0
M  V30 42 H 2.8032 -0.2263 2.417 0
M  V30 43 H 4.5885 1.4799 -0.5098 0
M  V30 44 H 4.1634 1.7674 2.5295 0
M  V30 45 H 3.5946 2.9302 1.2681 0
M  V30 46 H 5.3558 2.6367 1.4944 0
M  V30 47 H 5.2828 -0.8625 0.0128 0
M  V30 48 H 5.1532 -0.5067 1.78 0
M  V30 49 H 6.3574 0.3706 0.7639 0
M  V30 END ATOM
M  V30 BEGIN BOND
M  V30 1 2 1 2
M  V30 2 1 2 3
M  V30 3 1 2 4
M  V30 4 1 4 5
M  V30 5 1 4 6
M  V30 6 1 4 7
M  V30 7 1 5 8
M  V30 8 1 5 9
M  V30 9 1 6 10
M  V30 10 1 8 11
M  V30 11 1 8 12
M  V30 12 1 8 13
M  V30 13 1 9 14
M  V30 14 2 11 15
M  V30 15 1 11 16
M  V30 16 1 15 17
M  V30 17 2 16 18
M  V30 18 2 17 19
M  V30 19 1 19 20
M  V30 20 1 20 21
M  V30 21 1 20 22
M  V30 22 1 10 12
M  V30 23 1 14 15
M  V30 24 1 18 19
M  V30 25 1 5 23
M  V30 26 1 6 24
M  V30 27 1 6 25
M  V30 28 1 7 26
M  V30 29 1 7 27
M  V30 30 1 7 28
M  V30 31 1 9 29
M  V30 32 1 9 30
M  V30 33 1 10 31
M  V30 34 1 10 32
M  V30 35 1 12 33
M  V30 36 1 12 34
M  V30 37 1 13 35
M  V30 38 1 13 36
M  V30 39 1 13 37
M  V30 40 1 14 38
M  V30 41 1 14 39
M  V30 42 1 16 40
M  V30 43 1 17 41
M  V30 44 1 18 42
M  V30 45 1 20 43
M  V30 46 1 21 44
M  V30 47 1 21 45
M  V30 48 1 21 46
M  V30 49 1 22 47
M  V30 50 1 22 48
M  V30 51 1 22 49
M  V30 END BOND
M  V30 BEGIN COLLECTION
M  V30 MDLV30/STEABS ATOMS=(3 4 5 8)
M  V30 END COLLECTION
M  V30 END CTAB
M  END
>  <Structure No>
4266

>  <LogS>
-4.6582

>  <MMFF94 Energy>
75.871

$$$$
Compound 4267
Actelion Java MolfileCreator 2.0

  0  0  0  0  0  0              0 V3000
M  V30 BEGIN CTAB
M  V30 COUNTS 22 23 0 0 0
M  V30 BEGIN ATOM
M  V30 1 N -0.0791 0.7121 0.0791 0
M  V30 2 N 0.0372 -0.6193 -0.4009 0
M  V30 3 C -1.3134 1.3082 -0.4664 0
M  V30 4 C 1.0848 1.4893 -0.387 0
M  V30 5 C -1.1262 -1.3949 0.0641 0
M  V30 6 C 1.2706 -1.2139 0.1434 0
M  V30 7 N -2.4761 0.54 -0.0145 0
M  V30 8 N 2.3173 0.902 0.1439 0
M  V30 9 N -2.3541 -0.7932 -0.4692 0
M  V30 10 N 2.4267 -0.4322 -0.311 0
M  V30 11 H -1.42 2.355 -0.1057 0
M  V30 12 H -1.2917 1.3254 -1.5806 0
M  V30 13 H 1.134 1.5086 -1.5003 0
M  V30 14 H 1.0091 2.5385 -0.0254 0
M  V30 15 H -1.0536 -2.4383 -0.314 0
M  V30 16 H -1.1672 -1.4288 1.1786 0
M  V30 17 H 1.243 -1.2468 1.2584 0
M  V30 18 H 1.3804 -2.2545 -0.2335 0
M  V30 19 H -2.5098 0.5513 1.034 0
M  V30 20 H 2.2798 0.9131 1.1924 0
M  V30 21 H -3.1707 -1.3306 -0.095 0
M  V30 22 H 3.2883 -0.8428 0.1186 0
M  V30 END ATOM
M  V30 BEGIN BOND
M  V30 1 1 1 2
M  V30 2 1 1 3
M  V30 3 1 1 4
M  V30 4 1 2 5
M  V30 5 1 2 6
M  V30 6 1 3 7
M  V30 7 1 4 8
M  V30 8 1 5 9
M  V30 9 1 6 10
M  V30 10 1 7 9
M  V30 11 1 8 10
M  V30 12 1 3 11
M  V30 13 1 3 12
M  V30 14 1 4 13
M  V30 15 1 4 14
M  V30 16 1 5 15
M  V30 17 1 5 16
M  V30 18 1 6 17
M  V30 19 1 6 18
M  V30 20 1 7 19
M  V30 21 1 8 20
M  V30 22 1 9 21
M  V30 23 1 10 22
M  V30 END BOND
M  V30 END CTAB
M  END
>  <Structure No>
4267

>  <LogS>
-0.0128

>  <MMFF94 Energy>
126.18

$$$$
Compound 4268
Actelion Java MolfileCreator 2.0

  0  0  0  0  0  0              0 V3000
M  V30 BEGIN CTAB
M  V30 COUNTS 25 26 0 0 0
M  V30 BEGIN ATOM
M  V30 1 O 0.3185 1.4342 -0.9559 0
M  V30 2 C 0.6719 0.351 -0.4147 0
M  V30 3 N -0.3207 -0.5245 0.1537 0
M  V30 4 C 2.1135 0.003 -0.3867 0
M  V30 5 C -1.7166 -0.1937 0.2535 0
M  V30 6 C 2.5554 -1.3327 -0.3869 0
M  V30 7 C 3.0809 1.0222 -0.3859 0
M  V30 8 C -2.6766 -1.2028 0.0776 0
M  V30 9 C -2.1421 1.1053 0.5892 0
M  V30 10 N 3.8856 -1.6153 -0.368 0
M  V30 11 C 4.4393 0.7035 -0.3625 0
M  V30 12 C -4.0393 -0.9117 0.1941 0
M  V30 13 C -3.506 1.3922 0.7059 0
M  V30 14 C 4.8266 -0.6358 -0.3501 0
M  V30 15 C -4.4539 0.3859 0.5038 0
M  V30 16 H -0.0397 -1.4774 0.4719 0
M  V30 17 H 1.856 -2.1547 -0.4326 0
M  V30 18 H 2.786 2.0644 -0.3904 0
M  V30 19 H -2.367 -2.2127 -0.1602 0
M  V30 20 H -1.4248 1.8902 0.7884 0
M  V30 21 H 5.1849 1.488 -0.3537 0
M  V30 22 H -4.7736 -1.693 0.0469 0
M  V30 23 H -3.8278 2.3932 0.963 0
M  V30 24 H 5.876 -0.8976 -0.3329 0
M  V30 25 H -5.5089 0.6096 0.5962 0
M  V30 END ATOM
M  V30 BEGIN BOND
M  V30 1 2 1 2
M  V30 2 1 2 3
M  V30 3 1 2 4
M  V30 4 1 3 5
M  V30 5 2 4 6
M  V30 6 1 4 7
M  V30 7 2 5 8
M  V30 8 1 5 9
M  V30 9 1 6 10
M  V30 10 2 7 11
M  V30 11 1 8 12
M  V30 12 2 9 13
M  V30 13 2 10 14
M  V30 14 2 12 15
M  V30 15 1 11 14
M  V30 16 1 13 15
M  V30 17 1 3 16
M  V30 18 1 6 17
M  V30 19 1 7 18
M  V30 20 1 8 19
M  V30 21 1 9 20
M  V30 22 1 11 21
M  V30 23 1 12 22
M  V30 24 1 13 23
M  V30 25 1 14 24
M  V30 26 1 15 25
M  V30 END BOND
M  V30 END CTAB
M  END
>  <Structure No>
4268

>  <LogS>
-3.093

>  <MMFF94 Energy>
33.306

$$$$
Compound 4269
Actelion Java MolfileCreator 2.0

  0  0  0  0  0  0              0 V3000
M  V30 BEGIN CTAB
M  V30 COUNTS 15 16 0 0 0
M  V30 BEGIN ATOM
M  V30 1 S 3.067 1.0768 0.0 0
M  V30 2 N 3.5223 -0.4144 -0.5938 0
M  V30 3 C 1.4397 0.7523 0.1111 0
M  V30 4 N 2.4325 -1.1743 -0.7123 0
M  V30 5 C 1.2808 -0.5493 -0.3297 0
M  V30 6 C 0.3775 1.5389 0.5388 0
M  V30 7 C 0.0114 -1.1277 -0.3587 0
M  V30 8 C -0.9057 0.9688 0.5147 0
M  V30 9 C -1.0949 -0.3613 0.0679 0
M  V30 10 N -2.4069 -0.929 0.0487 0
M  V30 11 H 0.5329 2.5546 0.8786 0
M  V30 12 H -0.1178 -2.1462 -0.703 0
M  V30 13 H -1.753 1.5578 0.8422 0
M  V30 14 H -2.5604 -1.9089 -0.2785 0
M  V30 15 H -3.2342 -0.3735 0.3614 0
M  V30 END ATOM
M  V30 BEGIN BOND
M  V30 1 1 1 2
M  V30 2 1 1 3
M  V30 3 2 2 4
M  V30 4 2 3 5
M  V30 5 1 3 6
M  V30 6 1 5 7
M  V30 7 2 6 8
M  V30 8 2 7 9
M  V30 9 1 9 10
M  V30 10 1 4 5
M  V30 11 1 8 9
M  V30 12 1 6 11
M  V30 13 1 7 12
M  V30 14 1 8 13
M  V30 15 1 10 14
M  V30 16 1 10 15
M  V30 END BOND
M  V30 END CTAB
M  END
>  <Structure No>
4269

>  <LogS>
-1.3045

>  <MMFF94 Energy>
12.76

$$$$
Compound 4270
Actelion Java MolfileCreator 2.0

  0  0  0  0  0  0              0 V3000
M  V30 BEGIN CTAB
M  V30 COUNTS 3 2 0 0 0
M  V30 BEGIN ATOM
M  V30 1 S 0 0 0 0 CHG=-1 VAL=2
M  V30 2 C 0 0 0 0
M  V30 3 N 0 0 0 0
M  V30 END ATOM
M  V30 BEGIN BOND
M  V30 1 1 1 2
M  V30 2 3 2 3
M  V30 END BOND
M  V30 END CTAB
M  END
>  <Structure No>
4270

>  <LogS>
0.9178

>  <MMFF94 Energy>
MMFF94 error code 2

$$$$
Compound 4271
Actelion Java MolfileCreator 2.0

  0  0  0  0  0  0              0 V3000
M  V30 BEGIN CTAB
M  V30 COUNTS 16 16 0 0 0
M  V30 BEGIN ATOM
M  V30 1 Cl -0.5825 2.6651 -0.6658 0
M  V30 2 C 0.1917 1.134 -0.2697 0
M  V30 3 C -0.5331 0.0485 0.271 0
M  V30 4 C 1.5657 1.0059 -0.5085 0
M  V30 5 C 0.1371 -1.1586 0.5339 0
M  V30 6 C -2.0196 0.1313 0.5131 0
M  V30 7 C 2.2235 -0.1946 -0.2263 0
M  V30 8 C 1.508 -1.2763 0.2919 0
M  V30 9 O -2.7177 -0.2339 -0.6455 0
M  V30 10 Cl 3.9444 -0.3455 -0.5311 0
M  V30 11 H 2.1225 1.8395 -0.918 0
M  V30 12 H -0.4025 -2.0111 0.9277 0
M  V30 13 H -2.3094 -0.5612 1.3322 0
M  V30 14 H -2.3188 1.1492 0.8494 0
M  V30 15 H 2.012 -2.2105 0.5046 0
M  V30 16 H -2.6891 0.5494 -1.2545 0
M  V30 END ATOM
M  V30 BEGIN BOND
M  V30 1 1 1 2
M  V30 2 2 2 3
M  V30 3 1 2 4
M  V30 4 1 3 5
M  V30 5 1 3 6
M  V30 6 2 4 7
M  V30 7 2 5 8
M  V30 8 1 6 9
M  V30 9 1 7 10
M  V30 10 1 7 8
M  V30 11 1 4 11
M  V30 12 1 5 12
M  V30 13 1 6 13
M  V30 14 1 6 14
M  V30 15 1 8 15
M  V30 16 1 9 16
M  V30 END BOND
M  V30 END CTAB
M  END
>  <Structure No>
4271

>  <LogS>
-2.248

>  <MMFF94 Energy>
8.2278

$$$$
Compound 4272
Actelion Java MolfileCreator 2.0

  0  0  0  0  0  0              0 V3000
M  V30 BEGIN CTAB
M  V30 COUNTS 7 6 0 0 0
M  V30 BEGIN ATOM
M  V30 1 Cl -1.4315 -1.0103 -0.9261 0
M  V30 2 C -0.5527 0.1539 0.0944 0
M  V30 3 N 0.8788 -0.0873 -0.0055 0 CHG=1
M  V30 4 O 1.4149 -0.9558 0.7125 0
M  V30 5 O 1.5913 0.4641 -1.0442 0 CHG=-1
M  V30 6 H -0.8856 0.0433 1.1486 0
M  V30 7 H -0.7848 1.1853 -0.245 0
M  V30 END ATOM
M  V30 BEGIN BOND
M  V30 1 1 1 2
M  V30 2 1 2 3
M  V30 3 2 3 4
M  V30 4 1 3 5
M  V30 5 1 2 6
M  V30 6 1 2 7
M  V30 END BOND
M  V30 END CTAB
M  END
>  <Structure No>
4272

>  <LogS>
-0.281

>  <MMFF94 Energy>
26.693

$$$$
Compound 4273
Actelion Java MolfileCreator 2.0

  0  0  0  0  0  0              0 V3000
M  V30 BEGIN CTAB
M  V30 COUNTS 13 12 0 0 0
M  V30 BEGIN ATOM
M  V30 1 O -2.4636 -1.0002 -0.3076 0
M  V30 2 N -1.0872 -1.0269 -0.3159 0
M  V30 3 C -0.3779 0.0261 -0.0415 0
M  V30 4 C 1.0917 -0.0607 -0.0656 0
M  V30 5 C -1.0433 1.3298 0.2994 0
M  V30 6 N 1.6828 -1.1772 -0.3575 0
M  V30 7 O 3.057 -1.2865 -0.3873 0
M  V30 8 H -2.9873 -1.8382 -0.5259 0
M  V30 9 H 1.6824 0.8182 0.1634 0
M  V30 10 H -0.2948 2.1238 0.5061 0
M  V30 11 H -1.677 1.2014 1.2021 0
M  V30 12 H -1.6787 1.6589 -0.5494 0
M  V30 13 H 3.6568 -0.4952 -0.1812 0
M  V30 END ATOM
M  V30 BEGIN BOND
M  V30 1 1 1 2
M  V30 2 2 2 3
M  V30 3 1 3 4
M  V30 4 1 3 5
M  V30 5 2 4 6
M  V30 6 1 6 7
M  V30 7 1 1 8
M  V30 8 1 4 9
M  V30 9 1 5 10
M  V30 10 1 5 11
M  V30 11 1 5 12
M  V30 12 1 7 13
M  V30 END BOND
M  V30 END CTAB
M  END
>  <Structure No>
4273

>  <LogS>
-0.3462

>  <MMFF94 Energy>
56.556

$$$$
Compound 4274
Actelion Java MolfileCreator 2.0

  0  0  0  0  0  0              0 V3000
M  V30 BEGIN CTAB
M  V30 COUNTS 16 16 0 0 0
M  V30 BEGIN ATOM
M  V30 1 Cl 2.5814 1.8315 1.5816 0
M  V30 2 C 1.5765 0.7466 0.6298 0
M  V30 3 C 2.1236 -0.377 -0.0123 0
M  V30 4 C 0.2063 1.0136 0.5196 0
M  V30 5 Cl 3.8386 -0.7484 0.1018 0
M  V30 6 C 1.2941 -1.2251 -0.7546 0
M  V30 7 C -0.6232 0.1721 -0.2379 0
M  V30 8 C -0.0728 -0.9565 -0.8629 0
M  V30 9 C -2.1004 0.4407 -0.3246 0
M  V30 10 O -2.7791 -0.2774 0.6687 0
M  V30 11 H -0.2119 1.8762 1.0243 0
M  V30 12 H 1.7079 -2.0963 -1.2462 0
M  V30 13 H -0.7021 -1.6281 -1.434 0
M  V30 14 H -2.3114 1.5306 -0.2292 0
M  V30 15 H -2.4828 0.1241 -1.3184 0
M  V30 16 H -2.6228 0.2033 1.5233 0
M  V30 END ATOM
M  V30 BEGIN BOND
M  V30 1 1 1 2
M  V30 2 2 2 3
M  V30 3 1 2 4
M  V30 4 1 3 5
M  V30 5 1 3 6
M  V30 6 2 4 7
M  V30 7 2 6 8
M  V30 8 1 7 9
M  V30 9 1 9 10
M  V30 10 1 7 8
M  V30 11 1 4 11
M  V30 12 1 6 12
M  V30 13 1 8 13
M  V30 14 1 9 14
M  V30 15 1 9 15
M  V30 16 1 10 16
M  V30 END BOND
M  V30 END CTAB
M  END
>  <Structure No>
4274

>  <LogS>
-2.0439

>  <MMFF94 Energy>
26.168

$$$$
Compound 4275
Actelion Java MolfileCreator 2.0

  0  0  0  0  0  0              0 V3000
M  V30 BEGIN CTAB
M  V30 COUNTS 18 19 0 0 0
M  V30 BEGIN ATOM
M  V30 1 Cl -1.0891 -3.27 -0.4187 0
M  V30 2 C -1.1256 -1.5141 -0.2652 0
M  V30 3 C 0.047 -0.7438 -0.0966 0
M  V30 4 C -2.3713 -0.8838 -0.3151 0
M  V30 5 C -0.0547 0.6718 0.021 0
M  V30 6 C 1.3185 -1.3487 -0.0422 0
M  V30 7 C -2.4708 0.501 -0.2 0
M  V30 8 C -1.3269 1.2849 -0.0326 0
M  V30 9 C 1.1186 1.4339 0.1889 0
M  V30 10 C 2.4662 -0.5728 0.1247 0
M  V30 11 Cl -1.5418 3.0292 0.1046 0
M  V30 12 C 2.3667 0.8121 0.2398 0
M  V30 13 H -3.2717 -1.4712 -0.4441 0
M  V30 14 H 1.4377 -2.4203 -0.1275 0
M  V30 15 H -3.447 0.9677 -0.2414 0
M  V30 16 H 1.0835 2.511 0.2819 0
M  V30 17 H 3.4377 -1.048 0.1652 0
M  V30 18 H 3.2613 1.4074 0.3692 0
M  V30 END ATOM
M  V30 BEGIN BOND
M  V30 1 1 1 2
M  V30 2 1 2 3
M  V30 3 2 2 4
M  V30 4 1 3 5
M  V30 5 2 3 6
M  V30 6 1 4 7
M  V30 7 1 5 8
M  V30 8 2 5 9
M  V30 9 1 6 10
M  V30 10 1 8 11
M  V30 11 1 9 12
M  V30 12 2 7 8
M  V30 13 2 10 12
M  V30 14 1 4 13
M  V30 15 1 6 14
M  V30 16 1 7 15
M  V30 17 1 9 16
M  V30 18 1 10 17
M  V30 19 1 12 18
M  V30 END BOND
M  V30 END CTAB
M  END
>  <Structure No>
4275

>  <LogS>
-5.3576

>  <MMFF94 Energy>
43.049

$$$$
Compound 4276
Actelion Java MolfileCreator 2.0

  0  0  0  0  0  0              0 V3000
M  V30 BEGIN CTAB
M  V30 COUNTS 30 30 0 0 0
M  V30 BEGIN ATOM
M  V30 1 Cl 5.6612 -1.0647 -2.1304 0
M  V30 2 C 4.4129 -0.7363 -0.9459 0
M  V30 3 N 3.517 0.2618 -1.1637 0
M  V30 4 C 4.3295 -1.4909 0.2243 0
M  V30 5 N 2.5536 0.536 -0.2818 0
M  V30 6 C 3.3243 -1.2042 1.1459 0
M  V30 7 C 2.4254 -0.1727 0.8709 0
M  V30 8 S 1.115 0.2291 2.0269 0
M  V30 9 C -0.0817 -0.9612 1.329 0
M  V30 10 C -0.5316 -0.5253 -0.0381 0
M  V30 11 O -0.1515 -1.1955 -1.0365 0
M  V30 12 N -1.317 0.6714 -0.2366 0
M  V30 13 C -2.226 1.1716 0.8069 0
M  V30 14 C -1.1972 1.4052 -1.5047 0
M  V30 15 C -3.4462 0.2644 0.9455 0
M  V30 16 C -2.2113 0.8947 -2.5223 0
M  V30 17 H 5.0341 -2.2896 0.4177 0
M  V30 18 H 3.2424 -1.7794 2.0592 0
M  V30 19 H -0.949 -1.0387 2.0137 0
M  V30 20 H 0.3836 -1.9693 1.2798 0
M  V30 21 H -1.695 1.2477 1.7785 0
M  V30 22 H -2.5847 2.1941 0.5589 0
M  V30 23 H -0.1699 1.2944 -1.916 0
M  V30 24 H -1.3586 2.493 -1.3432 0
M  V30 25 H -4.1069 0.651 1.7497 0
M  V30 26 H -3.1443 -0.7711 1.2028 0
M  V30 27 H -4.0188 0.245 -0.0046 0
M  V30 28 H -2.0807 -0.195 -2.6878 0
M  V30 29 H -2.0665 1.4224 -3.4883 0
M  V30 30 H -3.2436 1.0899 -2.1646 0
M  V30 END ATOM
M  V30 BEGIN BOND
M  V30 1 1 1 2
M  V30 2 2 2 3
M  V30 3 1 2 4
M  V30 4 1 3 5
M  V30 5 2 4 6
M  V30 6 2 5 7
M  V30 7 1 7 8
M  V30 8 1 8 9
M  V30 9 1 9 10
M  V30 10 2 10 11
M  V30 11 1 10 12
M  V30 12 1 12 13
M  V30 13 1 12 14
M  V30 14 1 13 15
M  V30 15 1 14 16
M  V30 16 1 6 7
M  V30 17 1 4 17
M  V30 18 1 6 18
M  V30 19 1 9 19
M  V30 20 1 9 20
M  V30 21 1 13 21
M  V30 22 1 13 22
M  V30 23 1 14 23
M  V30 24 1 14 24
M  V30 25 1 15 25
M  V30 26 1 15 26
M  V30 27 1 15 27
M  V30 28 1 16 28
M  V30 29 1 16 29
M  V30 30 1 16 30
M  V30 END BOND
M  V30 END CTAB
M  END
>  <Structure No>
4276

>  <LogS>
-1.7156

>  <MMFF94 Energy>
28.219

$$$$
Compound 4277
Actelion Java MolfileCreator 2.0

  0  0  0  0  0  0              0 V3000
M  V30 BEGIN CTAB
M  V30 COUNTS 25 26 0 0 0
M  V30 BEGIN ATOM
M  V30 1 Cl -1.1707 0.418 -2.3425 0
M  V30 2 C -2.11 0.2824 -0.8618 0
M  V30 3 C -1.7375 -0.608 0.1663 0
M  V30 4 C -3.2815 1.0391 -0.736 0
M  V30 5 O -0.5725 -1.3806 0.0857 0
M  V30 6 C -2.565 -0.7537 1.2862 0
M  V30 7 C -4.0889 0.9054 0.3981 0
M  V30 8 C 0.7219 -0.8576 -0.0518 0
M  V30 9 C -3.7326 0.0046 1.406 0
M  V30 10 Cl -5.556 1.8551 0.5484 0
M  V30 11 C 1.7506 -1.7137 -0.4565 0
M  V30 12 C 1.0192 0.4878 0.23 0
M  V30 13 C 3.0563 -1.2364 -0.6011 0
M  V30 14 C 2.3242 0.9675 0.086 0
M  V30 15 C 3.3572 0.1115 -0.3334 0
M  V30 16 N 4.6998 0.6084 -0.4814 0 CHG=1
M  V30 17 O 5.6215 -0.1477 -0.852 0
M  V30 18 O 4.9902 1.9275 -0.2181 0 CHG=-1
M  V30 19 H -3.5704 1.7224 -1.5246 0
M  V30 20 H -2.2942 -1.4473 2.072 0
M  V30 21 H -4.3591 -0.1088 2.2816 0
M  V30 22 H 1.5353 -2.7538 -0.666 0
M  V30 23 H 0.2466 1.1658 0.5684 0
M  V30 24 H 3.8301 -1.9218 -0.9216 0
M  V30 25 H 2.5248 2.0078 0.3067 0
M  V30 END ATOM
M  V30 BEGIN BOND
M  V30 1 1 1 2
M  V30 2 2 2 3
M  V30 3 1 2 4
M  V30 4 1 3 5
M  V30 5 1 3 6
M  V30 6 2 4 7
M  V30 7 1 5 8
M  V30 8 2 6 9
M  V30 9 1 7 10
M  V30 10 2 8 11
M  V30 11 1 8 12
M  V30 12 1 11 13
M  V30 13 2 12 14
M  V30 14 2 13 15
M  V30 15 1 15 16
M  V30 16 2 16 17
M  V30 17 1 16 18
M  V30 18 1 7 9
M  V30 19 1 14 15
M  V30 20 1 4 19
M  V30 21 1 6 20
M  V30 22 1 9 21
M  V30 23 1 11 22
M  V30 24 1 12 23
M  V30 25 1 13 24
M  V30 26 1 14 25
M  V30 END BOND
M  V30 END CTAB
M  END
>  <Structure No>
4277

>  <LogS>
-5.4535

>  <MMFF94 Energy>
75.185

$$$$
Compound 4278
Actelion Java MolfileCreator 2.0

  0  0  0  0  0  0              0 V3000
M  V30 BEGIN CTAB
M  V30 COUNTS 25 26 0 0 0
M  V30 BEGIN ATOM
M  V30 1 Cl -1.7909 1.8762 -2.8153 0
M  V30 2 C -2.4356 1.092 -1.3814 0
M  V30 3 C -1.6456 0.9544 -0.2292 0
M  V30 4 C -3.7404 0.5874 -1.4035 0
M  V30 5 O -0.3402 1.4626 -0.2312 0
M  V30 6 C -2.1888 0.3363 0.9158 0
M  V30 7 C -4.2682 -0.0447 -0.2742 0
M  V30 8 C 0.8128 0.6923 -0.0181 0
M  V30 9 Cl -1.2802 0.2343 2.4181 0
M  V30 10 C -3.4953 -0.1648 0.8843 0
M  V30 11 Cl -5.9054 -0.6741 -0.3059 0
M  V30 12 C 2.0143 1.3498 0.2631 0
M  V30 13 C 0.8017 -0.7114 -0.1039 0
M  V30 14 C 3.1889 0.6227 0.4769 0
M  V30 15 C 1.975 -1.4404 0.1095 0
M  V30 16 C 3.1821 -0.7809 0.4049 0
M  V30 17 N 4.3925 -1.5275 0.6261 0 CHG=1
M  V30 18 O 4.3924 -2.7745 0.5628 0
M  V30 19 O 5.5718 -0.8785 0.9128 0 CHG=-1
M  V30 20 H -4.3431 0.6865 -2.2976 0
M  V30 21 H -3.9135 -0.6386 1.7637 0
M  V30 22 H 2.0367 2.4308 0.3219 0
M  V30 23 H -0.1092 -1.244 -0.343 0
M  V30 24 H 4.1021 1.16 0.6981 0
M  V30 25 H 1.9384 -2.52 0.0402 0
M  V30 END ATOM
M  V30 BEGIN BOND
M  V30 1 1 1 2
M  V30 2 2 2 3
M  V30 3 1 2 4
M  V30 4 1 3 5
M  V30 5 1 3 6
M  V30 6 2 4 7
M  V30 7 1 5 8
M  V30 8 1 6 9
M  V30 9 2 6 10
M  V30 10 1 7 11
M  V30 11 2 8 12
M  V30 12 1 8 13
M  V30 13 1 12 14
M  V30 14 2 13 15
M  V30 15 2 14 16
M  V30 16 1 16 17
M  V30 17 2 17 18
M  V30 18 1 17 19
M  V30 19 1 7 10
M  V30 20 1 15 16
M  V30 21 1 4 20
M  V30 22 1 10 21
M  V30 23 1 12 22
M  V30 24 1 13 23
M  V30 25 1 14 24
M  V30 26 1 15 25
M  V30 END BOND
M  V30 END CTAB
M  END
>  <Structure No>
4278

>  <LogS>
-5.6201

>  <MMFF94 Energy>
69.769

$$$$
Compound 4279
Actelion Java MolfileCreator 2.0

  0  0  0  0  0  0              0 V3000
M  V30 BEGIN CTAB
M  V30 COUNTS 27 26 0 0 0
M  V30 BEGIN ATOM
M  V30 1 O 0.7714 -1.466 0.0 0
M  V30 2 C 0.4255 -0.1927 0.4909 0 CFG=2
M  V30 3 C -1.1169 0.0192 0.4583 0 CFG=1
M  V30 4 C 1.2057 0.9336 -0.2379 0
M  V30 5 C -1.7021 -0.0543 -0.9759 0
M  V30 6 C -1.8048 -0.9942 1.3907 0
M  V30 7 C 2.6728 1.0492 0.2112 0
M  V30 8 C -3.1469 0.4428 -1.0535 0
M  V30 9 C 3.5328 -0.13 -0.2403 0
M  V30 10 H 0.6609 -1.456 -0.9856 0
M  V30 11 H 0.7309 -0.1567 1.5602 0
M  V30 12 H -1.3223 1.0331 0.8696 0
M  V30 13 H 1.1697 0.7937 -1.3396 0
M  V30 14 H 0.7186 1.9088 -0.0182 0
M  V30 15 H -1.6611 -1.0969 -1.3585 0
M  V30 16 H -1.104 0.5805 -1.6612 0
M  V30 17 H -1.3444 -0.9662 2.4013 0
M  V30 18 H -1.715 -2.0252 0.9868 0
M  V30 19 H -2.8792 -0.7477 1.5158 0
M  V30 20 H 3.0989 1.9766 -0.2296 0
M  V30 21 H 2.7299 1.1506 1.3167 0
M  V30 22 H -3.2345 1.4578 -0.6111 0
M  V30 23 H -3.8336 -0.2523 -0.5285 0
M  V30 24 H -3.462 0.4948 -2.1171 0
M  V30 25 H 3.2627 -1.0485 0.3201 0
M  V30 26 H 3.4116 -0.3077 -1.33 0
M  V30 27 H 4.601 0.0933 -0.0357 0
M  V30 END ATOM
M  V30 BEGIN BOND
M  V30 1 1 1 2
M  V30 2 1 2 3
M  V30 3 1 2 4
M  V30 4 1 3 5
M  V30 5 1 3 6
M  V30 6 1 4 7
M  V30 7 1 5 8
M  V30 8 1 7 9
M  V30 9 1 1 10
M  V30 10 1 2 11
M  V30 11 1 3 12
M  V30 12 1 4 13
M  V30 13 1 4 14
M  V30 14 1 5 15
M  V30 15 1 5 16
M  V30 16 1 6 17
M  V30 17 1 6 18
M  V30 18 1 6 19
M  V30 19 1 7 20
M  V30 20 1 7 21
M  V30 21 1 8 22
M  V30 22 1 8 23
M  V30 23 1 8 24
M  V30 24 1 9 25
M  V30 25 1 9 26
M  V30 26 1 9 27
M  V30 END BOND
M  V30 BEGIN COLLECTION
M  V30 MDLV30/STEABS ATOMS=(2 2 3)
M  V30 END COLLECTION
M  V30 END CTAB
M  END
>  <Structure No>
4279

>  <LogS>
-1.8406

>  <MMFF94 Energy>
8.0146

$$$$
Compound 4280
Actelion Java MolfileCreator 2.0

  0  0  0  0  0  0              0 V3000
M  V30 BEGIN CTAB
M  V30 COUNTS 67 71 0 0 0
M  V30 BEGIN ATOM
M  V30 1 F -7.9034 4.8332 -0.0804 0
M  V30 2 C -6.8799 3.9441 -0.0764 0
M  V30 3 C -6.5959 3.2004 -1.2236 0
M  V30 4 C -6.1127 3.7667 1.0766 0
M  V30 5 C -5.5423 2.2814 -1.2226 0
M  V30 6 C -5.0579 2.8494 1.0835 0
M  V30 7 C -4.7499 2.1022 -0.07 0
M  V30 8 C -3.6182 1.0878 -0.0276 0
M  V30 9 C -4.1783 -0.3208 0.0854 0
M  V30 10 C -2.6193 1.272 -1.1998 0
M  V30 11 C -4.2107 -0.9545 1.342 0
M  V30 12 C -4.7088 -0.9998 -1.03 0
M  V30 13 C -1.4351 0.285 -1.1848 0
M  V30 14 C -4.739 -2.2418 1.4752 0
M  V30 15 C -5.236 -2.2871 -0.891 0
M  V30 16 C -0.5183 0.4571 0.046 0
M  V30 17 C -5.25 -2.9086 0.3596 0
M  V30 18 N 0.7348 -0.3337 -0.0686 0 CHG=1 CFG=1
M  V30 19 F -5.7623 -4.157 0.4911 0
M  V30 20 C 1.2561 -0.666 1.2872 0
M  V30 21 C 1.7483 0.3831 -0.8728 0
M  V30 22 C 2.7842 -0.9166 1.3503 0
M  V30 23 C 2.9275 -0.5448 -1.2139 0
M  V30 24 C 3.3973 -1.3902 0.0081 0 CFG=2
M  V30 25 N 4.879 -1.4471 0.0934 0
M  V30 26 C 3.0512 -2.8317 -0.2059 0
M  V30 27 C 5.7992 -0.3386 0.3289 0
M  V30 28 C 5.3639 -2.8295 -0.0573 0
M  V30 29 O 1.8839 -3.2908 -0.3238 0
M  V30 30 N 4.193 -3.6532 -0.2605 0
M  V30 31 C 7.1784 -0.5869 0.5237 0
M  V30 32 C 5.3659 1.0061 0.36 0
M  V30 33 C 8.0756 0.4611 0.7481 0
M  V30 34 C 6.2688 2.0494 0.585 0
M  V30 35 C 7.6215 1.7779 0.78 0
M  V30 36 H -7.195 3.3327 -2.1155 0
M  V30 37 H -6.3367 4.3377 1.9687 0
M  V30 38 H -5.3549 1.715 -2.1229 0
M  V30 39 H -4.4833 2.722 1.9926 0
M  V30 40 H -3.029 1.2993 0.891 0
M  V30 41 H -3.1365 1.1603 -2.1746 0
M  V30 42 H -2.2195 2.3098 -1.1727 0
M  V30 43 H -3.8258 -0.4526 2.2213 0
M  V30 44 H -4.7107 -0.5448 -2.0099 0
M  V30 45 H -0.8568 0.4505 -2.116 0
M  V30 46 H -1.8102 -0.7601 -1.2233 0
M  V30 47 H -4.7538 -2.7207 2.4459 0
M  V30 48 H -5.635 -2.8022 -1.7554 0
M  V30 49 H -0.2874 1.5357 0.2037 0
M  V30 50 H -1.0986 0.1126 0.9316 0
M  V30 51 H 0.5018 -1.2322 -0.5534 0
M  V30 52 H 1.0269 0.1503 2.0114 0
M  V30 53 H 0.7329 -1.5741 1.6639 0
M  V30 54 H 1.3204 0.7494 -1.8295 0
M  V30 55 H 2.1098 1.2793 -0.3217 0
M  V30 56 H 3.266 0.0222 1.6836 0
M  V30 57 H 3.0022 -1.6576 2.1517 0
M  V30 58 H 2.6147 -1.2062 -2.0533 0
M  V30 59 H 3.7554 0.0643 -1.6312 0
M  V30 60 H 6.0341 -2.9092 -0.9396 0
M  V30 61 H 5.8842 -3.1595 0.867 0
M  V30 62 H 4.1925 -4.6889 -0.3922 0
M  V30 63 H 7.578 -1.5906 0.5057 0
M  V30 64 H 4.3376 1.2767 0.2078 0
M  V30 65 H 9.1269 0.25 0.8968 0
M  V30 66 H 5.917 3.0729 0.6059 0
M  V30 67 H 8.318 2.5881 0.9535 0
M  V30 END ATOM
M  V30 BEGIN BOND
M  V30 1 1 1 2
M  V30 2 2 2 3
M  V30 3 1 2 4
M  V30 4 1 3 5
M  V30 5 2 4 6
M  V30 6 2 5 7
M  V30 7 1 7 8
M  V30 8 1 8 9
M  V30 9 1 8 10
M  V30 10 2 9 11
M  V30 11 1 9 12
M  V30 12 1 10 13
M  V30 13 1 11 14
M  V30 14 2 12 15
M  V30 15 1 13 16
M  V30 16 2 14 17
M  V30 17 1 16 18
M  V30 18 1 17 19
M  V30 19 1 18 20
M  V30 20 1 18 21
M  V30 21 1 20 22
M  V30 22 1 21 23
M  V30 23 1 22 24
M  V30 24 1 24 25
M  V30 25 1 24 26
M  V30 26 1 25 27
M  V30 27 1 25 28
M  V30 28 2 26 29
M  V30 29 1 26 30
M  V30 30 2 27 31
M  V30 31 1 27 32
M  V30 32 1 31 33
M  V30 33 2 32 34
M  V30 34 2 33 35
M  V30 35 1 6 7
M  V30 36 1 15 17
M  V30 37 1 23 24
M  V30 38 1 28 30
M  V30 39 1 34 35
M  V30 40 1 3 36
M  V30 41 1 4 37
M  V30 42 1 5 38
M  V30 43 1 6 39
M  V30 44 1 8 40
M  V30 45 1 10 41
M  V30 46 1 10 42
M  V30 47 1 11 43
M  V30 48 1 12 44
M  V30 49 1 13 45
M  V30 50 1 13 46
M  V30 51 1 14 47
M  V30 52 1 15 48
M  V30 53 1 16 49
M  V30 54 1 16 50
M  V30 55 1 18 51
M  V30 56 1 20 52
M  V30 57 1 20 53
M  V30 58 1 21 54
M  V30 59 1 21 55
M  V30 60 1 22 56
M  V30 61 1 22 57
M  V30 62 1 23 58
M  V30 63 1 23 59
M  V30 64 1 28 60
M  V30 65 1 28 61
M  V30 66 1 30 62
M  V30 67 1 31 63
M  V30 68 1 32 64
M  V30 69 1 33 65
M  V30 70 1 34 66
M  V30 71 1 35 67
M  V30 END BOND
M  V30 BEGIN COLLECTION
M  V30 MDLV30/STEABS ATOMS=(2 18 24)
M  V30 END COLLECTION
M  V30 END CTAB
M  END
>  <Structure No>
4280

>  <LogS>
-4.6772

>  <MMFF94 Energy>
34.634

$$$$
Compound 4281
Actelion Java MolfileCreator 2.0

  0  0  0  0  0  0              0 V3000
M  V30 BEGIN CTAB
M  V30 COUNTS 33 32 0 0 0
M  V30 BEGIN ATOM
M  V30 1 O 3.6526 1.6662 0.4758 0
M  V30 2 C 3.824 0.4648 0.8112 0
M  V30 3 O 3.6864 0.0991 2.1446 0 CHG=-1
M  V30 4 C 4.219 -0.5561 -0.2133 0
M  V30 5 C 3.2342 -1.7381 -0.2758 0
M  V30 6 C 2.0563 -1.5247 -1.247 0
M  V30 7 C 1.0921 -0.3851 -0.8752 0
M  V30 8 C 0.3366 -0.6439 0.4396 0
M  V30 9 C -0.6281 0.4973 0.7996 0
M  V30 10 C -1.8783 0.5231 -0.0925 0
M  V30 11 C -2.8781 1.5823 0.3954 0
M  V30 12 C -4.1065 1.6875 -0.518 0
M  V30 13 C -4.9622 0.4603 -0.443 0
M  V30 14 O -5.7358 0.2866 0.5351 0
M  V30 15 O -4.8804 -0.5075 -1.4359 0 CHG=-1
M  V30 16 H 4.322 -0.083 -1.2144 0
M  V30 17 H 5.2216 -0.9418 0.0707 0
M  V30 18 H 3.7987 -2.6215 -0.6463 0
M  V30 19 H 2.8724 -2.0169 0.736 0
M  V30 20 H 2.4627 -1.3256 -2.2627 0
M  V30 21 H 1.4787 -2.4725 -1.3144 0
M  V30 22 H 0.3581 -0.2981 -1.7033 0
M  V30 23 H 1.637 0.5788 -0.8263 0
M  V30 24 H -0.2197 -1.6045 0.3767 0
M  V30 25 H 1.0665 -0.7312 1.2704 0
M  V30 26 H -0.9469 0.3548 1.8557 0
M  V30 27 H -0.0974 1.4728 0.7381 0
M  V30 28 H -1.5885 0.7594 -1.1381 0
M  V30 29 H -2.3614 -0.4778 -0.0745 0
M  V30 30 H -3.2036 1.3482 1.4331 0
M  V30 31 H -2.3738 2.5734 0.4138 0
M  V30 32 H -4.713 2.5654 -0.2068 0
M  V30 33 H -3.7866 1.8593 -1.5686 0
M  V30 END ATOM
M  V30 BEGIN BOND
M  V30 1 2 1 2
M  V30 2 1 2 3
M  V30 3 1 2 4
M  V30 4 1 4 5
M  V30 5 1 5 6
M  V30 6 1 6 7
M  V30 7 1 7 8
M  V30 8 1 8 9
M  V30 9 1 9 10
M  V30 10 1 10 11
M  V30 11 1 11 12
M  V30 12 1 12 13
M  V30 13 2 13 14
M  V30 14 1 13 15
M  V30 15 1 4 16
M  V30 16 1 4 17
M  V30 17 1 5 18
M  V30 18 1 5 19
M  V30 19 1 6 20
M  V30 20 1 6 21
M  V30 21 1 7 22
M  V30 22 1 7 23
M  V30 23 1 8 24
M  V30 24 1 8 25
M  V30 25 1 9 26
M  V30 26 1 9 27
M  V30 27 1 10 28
M  V30 28 1 10 29
M  V30 29 1 11 30
M  V30 30 1 11 31
M  V30 31 1 12 32
M  V30 32 1 12 33
M  V30 END BOND
M  V30 END CTAB
M  END
>  <Structure No>
4281

>  <LogS>
-1.6274

>  <MMFF94 Energy>
32.909

$$$$
Compound 4282
Actelion Java MolfileCreator 2.0

  0  0  0  0  0  0              0 V3000
M  V30 BEGIN CTAB
M  V30 COUNTS 24 24 0 0 0
M  V30 BEGIN ATOM
M  V30 1 Cl 1.1286 -0.868 -2.8667 0
M  V30 2 C 0.4948 -0.6139 -1.2337 0
M  V30 3 C -0.8971 -0.5617 -1.0376 0
M  V30 4 C 1.3736 -0.4243 -0.1455 0
M  V30 5 Cl -1.975 -0.8661 -2.4079 0
M  V30 6 C -1.4253 -0.3111 0.2465 0
M  V30 7 C 0.8454 -0.1768 1.1392 0
M  V30 8 C 2.8387 -0.4796 -0.3483 0
M  V30 9 C -0.5464 -0.1164 1.3338 0
M  V30 10 C -2.8904 -0.2491 0.448 0
M  V30 11 Cl 1.9214 0.0078 2.5321 0
M  V30 12 O 3.3514 -1.4418 -0.9831 0
M  V30 13 O 3.6498 0.5366 0.1668 0
M  V30 14 Cl -1.1785 0.257 2.9442 0
M  V30 15 O -3.4259 -0.9009 1.3865 0
M  V30 16 O -3.6763 0.5322 -0.405 0
M  V30 17 C 5.0639 0.5399 0.0157 0
M  V30 18 C -5.0891 0.6287 -0.2725 0
M  V30 19 H 5.331 0.5604 -1.0619 0
M  V30 20 H 5.4807 1.443 0.507 0
M  V30 21 H 5.4991 -0.3629 0.4939 0
M  V30 22 H -5.5512 -0.3739 -0.3923 0
M  V30 23 H -5.4838 1.3028 -1.0601 0
M  V30 24 H -5.3501 1.0464 0.7229 0
M  V30 END ATOM
M  V30 BEGIN BOND
M  V30 1 1 1 2
M  V30 2 2 2 3
M  V30 3 1 2 4
M  V30 4 1 3 5
M  V30 5 1 3 6
M  V30 6 2 4 7
M  V30 7 1 4 8
M  V30 8 2 6 9
M  V30 9 1 6 10
M  V30 10 1 7 11
M  V30 11 2 8 12
M  V30 12 1 8 13
M  V30 13 1 9 14
M  V30 14 2 10 15
M  V30 15 1 10 16
M  V30 16 1 13 17
M  V30 17 1 16 18
M  V30 18 1 7 9
M  V30 19 1 17 19
M  V30 20 1 17 20
M  V30 21 1 17 21
M  V30 22 1 18 22
M  V30 23 1 18 23
M  V30 24 1 18 24
M  V30 END BOND
M  V30 END CTAB
M  END
>  <Structure No>
4282

>  <LogS>
-5.8221

>  <MMFF94 Energy>
-4.3658

$$$$
Compound 4283
Actelion Java MolfileCreator 2.0

  0  0  0  0  0  0              0 V3000
M  V30 BEGIN CTAB
M  V30 COUNTS 26 26 0 0 0
M  V30 BEGIN ATOM
M  V30 1 Cl -2.1632 2.9129 -0.4157 0
M  V30 2 C -2.4816 1.2108 -0.0611 0
M  V30 3 C -3.7532 0.6795 -0.3472 0
M  V30 4 C -1.474 0.3762 0.4843 0
M  V30 5 Cl -5.0395 1.6827 -1.0083 0
M  V30 6 C -4.0159 -0.6716 -0.116 0
M  V30 7 C -1.7508 -0.9979 0.6765 0
M  V30 8 C -0.096 0.9211 0.7801 0
M  V30 9 C -3.0195 -1.5057 0.3848 0
M  V30 10 Cl -0.5298 -2.1273 1.2596 0
M  V30 11 O 0.7088 0.7715 -0.3708 0
M  V30 12 C 2.0624 1.0683 -0.0793 0
M  V30 13 C 2.8444 -0.2113 0.2676 0 CFG=2
M  V30 14 O 4.1855 0.1101 0.5279 0
M  V30 15 C 2.7929 -1.2207 -0.8803 0
M  V30 16 H -4.9932 -1.0816 -0.338 0
M  V30 17 H -0.1556 1.992 1.0715 0
M  V30 18 H 0.3355 0.3904 1.6575 0
M  V30 19 H -3.2337 -2.5558 0.5398 0
M  V30 20 H 2.5144 1.5289 -0.9839 0
M  V30 21 H 2.1796 1.8216 0.7364 0
M  V30 22 H 2.3948 -0.6916 1.1669 0
M  V30 23 H 4.2125 0.5162 1.4339 0
M  V30 24 H 1.7458 -1.5366 -1.0744 0
M  V30 25 H 3.2181 -0.7787 -1.8068 0
M  V30 26 H 3.3832 -2.1226 -0.6127 0
M  V30 END ATOM
M  V30 BEGIN BOND
M  V30 1 1 1 2
M  V30 2 2 2 3
M  V30 3 1 2 4
M  V30 4 1 3 5
M  V30 5 1 3 6
M  V30 6 2 4 7
M  V30 7 1 4 8
M  V30 8 2 6 9
M  V30 9 1 7 10
M  V30 10 1 8 11
M  V30 11 1 11 12
M  V30 12 1 12 13
M  V30 13 1 13 14
M  V30 14 1 13 15
M  V30 15 1 7 9
M  V30 16 1 6 16
M  V30 17 1 8 17
M  V30 18 1 8 18
M  V30 19 1 9 19
M  V30 20 1 12 20
M  V30 21 1 12 21
M  V30 22 1 13 22
M  V30 23 1 14 23
M  V30 24 1 15 24
M  V30 25 1 15 25
M  V30 26 1 15 26
M  V30 END BOND
M  V30 BEGIN COLLECTION
M  V30 MDLV30/STEABS ATOMS=(1 13)
M  V30 END COLLECTION
M  V30 END CTAB
M  END
>  <Structure No>
4283

>  <LogS>
-3.5673

>  <MMFF94 Energy>
42.183

$$$$
Compound 4284
Actelion Java MolfileCreator 2.0

  0  0  0  0  0  0              0 V3000
M  V30 BEGIN CTAB
M  V30 COUNTS 33 34 0 0 0
M  V30 BEGIN ATOM
M  V30 1 Cl 1.6113 1.6113 2.337 0
M  V30 2 C 2.1032 0.3471 1.2094 0
M  V30 3 C 1.2688 -0.1862 0.1726 0
M  V30 4 C 3.3864 -0.1717 1.4282 0
M  V30 5 C 1.7866 -1.2953 -0.5536 0
M  V30 6 C -0.156 0.3865 -0.1334 0 CFG=1
M  V30 7 C 3.8684 -1.2293 0.6666 0
M  V30 8 C 3.0661 -1.7963 -0.3134 0
M  V30 9 N -0.0165 1.8182 -0.5454 0 CHG=1
M  V30 10 C -0.8002 -0.3835 -1.3137 0
M  V30 11 C -1.0127 0.2693 1.1843 0
M  V30 12 C -1.2821 2.4951 -0.8772 0
M  V30 13 O -0.346 -0.2149 -2.4374 0
M  V30 14 C -1.9865 -1.3107 -1.1916 0
M  V30 15 C -2.4574 -0.1904 0.9871 0
M  V30 16 C -2.4667 -1.5132 0.2396 0
M  V30 17 H 4.0134 0.2395 2.2096 0
M  V30 18 H 1.2171 -1.8074 -1.3133 0
M  V30 19 H 4.8598 -1.6227 0.8505 0
M  V30 20 H 3.4345 -2.6353 -0.8899 0
M  V30 21 H 0.4364 2.3877 0.1989 0
M  V30 22 H 0.6114 1.8808 -1.3814 0
M  V30 23 H -1.0409 1.2384 1.7253 0
M  V30 24 H -0.5435 -0.4547 1.8886 0
M  V30 25 H -1.0652 3.51 -1.2755 0
M  V30 26 H -1.8525 1.9487 -1.6564 0
M  V30 27 H -1.9132 2.6262 0.0259 0
M  V30 28 H -1.7231 -2.2998 -1.6244 0
M  V30 29 H -2.8203 -0.8881 -1.7937 0
M  V30 30 H -2.9345 -0.3293 1.9816 0
M  V30 31 H -3.0454 0.571 0.4313 0
M  V30 32 H -1.8137 -2.2507 0.7574 0
M  V30 33 H -3.4992 -1.9248 0.2255 0
M  V30 END ATOM
M  V30 BEGIN BOND
M  V30 1 1 1 2
M  V30 2 2 2 3
M  V30 3 1 2 4
M  V30 4 1 3 5
M  V30 5 1 3 6
M  V30 6 2 4 7
M  V30 7 2 5 8
M  V30 8 1 6 9
M  V30 9 1 6 10
M  V30 10 1 6 11
M  V30 11 1 9 12
M  V30 12 2 10 13
M  V30 13 1 10 14
M  V30 14 1 11 15
M  V30 15 1 14 16
M  V30 16 1 7 8
M  V30 17 1 15 16
M  V30 18 1 4 17
M  V30 19 1 5 18
M  V30 20 1 7 19
M  V30 21 1 8 20
M  V30 22 1 9 21
M  V30 23 1 9 22
M  V30 24 1 11 23
M  V30 25 1 11 24
M  V30 26 1 12 25
M  V30 27 1 12 26
M  V30 28 1 12 27
M  V30 29 1 14 28
M  V30 30 1 14 29
M  V30 31 1 15 30
M  V30 32 1 15 31
M  V30 33 1 16 32
M  V30 34 1 16 33
M  V30 END BOND
M  V30 BEGIN COLLECTION
M  V30 MDLV30/STEABS ATOMS=(1 6)
M  V30 END COLLECTION
M  V30 END CTAB
M  END
>  <Structure No>
4284

>  <LogS>
-0.137

>  <MMFF94 Energy>
47.451

$$$$
Compound 4285
Actelion Java MolfileCreator 2.0

  0  0  0  0  0  0              0 V3000
M  V30 BEGIN CTAB
M  V30 COUNTS 32 33 0 0 0
M  V30 BEGIN ATOM
M  V30 1 Cl 3.7849 2.173 0.4021 0
M  V30 2 C 2.6285 0.883 0.0317 0
M  V30 3 C 1.3531 1.1748 -0.5207 0
M  V30 4 C 3.0034 -0.4522 0.2837 0
M  V30 5 C 0.4761 0.1025 -0.8535 0
M  V30 6 C 0.9531 2.6071 -0.8111 0
M  V30 7 C 2.1246 -1.4903 -0.0363 0
M  V30 8 C 4.3468 -0.7823 0.8795 0
M  V30 9 C 0.8788 -1.2243 -0.6043 0
M  V30 10 C -0.8936 0.3301 -1.4735 0
M  V30 11 O 0.0321 -2.2858 -0.9277 0
M  V30 12 C -2.0002 0.0025 -0.4995 0
M  V30 13 C -2.934 -1.0052 -0.799 0
M  V30 14 C -2.1206 0.7085 0.7107 0
M  V30 15 C -3.962 -1.3056 0.0999 0
M  V30 16 C -3.1501 0.4045 1.6065 0
M  V30 17 C -4.0699 -0.6017 1.3017 0
M  V30 18 H 1.6189 3.3565 -0.3438 0
M  V30 19 H 0.9592 2.7777 -1.9079 0
M  V30 20 H -0.0579 2.8191 -0.4103 0
M  V30 21 H 2.4102 -2.5188 0.1481 0
M  V30 22 H 4.4589 -0.2738 1.8602 0
M  V30 23 H 4.4687 -1.8739 1.0447 0
M  V30 24 H 5.1533 -0.4444 0.1955 0
M  V30 25 H -0.9743 -0.3058 -2.3821 0
M  V30 26 H -1.0397 1.3634 -1.8427 0
M  V30 27 H 0.295 -3.2495 -0.7583 0
M  V30 28 H -2.8664 -1.5611 -1.7257 0
M  V30 29 H -1.4157 1.4871 0.967 0
M  V30 30 H -4.6757 -2.0843 -0.1357 0
M  V30 31 H -3.2345 0.9491 2.5379 0
M  V30 32 H -4.8662 -0.8357 1.9965 0
M  V30 END ATOM
M  V30 BEGIN BOND
M  V30 1 1 1 2
M  V30 2 2 2 3
M  V30 3 1 2 4
M  V30 4 1 3 5
M  V30 5 1 3 6
M  V30 6 2 4 7
M  V30 7 1 4 8
M  V30 8 2 5 9
M  V30 9 1 5 10
M  V30 10 1 9 11
M  V30 11 1 10 12
M  V30 12 2 12 13
M  V30 13 1 12 14
M  V30 14 1 13 15
M  V30 15 2 14 16
M  V30 16 2 15 17
M  V30 17 1 7 9
M  V30 18 1 16 17
M  V30 19 1 6 18
M  V30 20 1 6 19
M  V30 21 1 6 20
M  V30 22 1 7 21
M  V30 23 1 8 22
M  V30 24 1 8 23
M  V30 25 1 8 24
M  V30 26 1 10 25
M  V30 27 1 10 26
M  V30 28 1 11 27
M  V30 29 1 13 28
M  V30 30 1 14 29
M  V30 31 1 15 30
M  V30 32 1 16 31
M  V30 33 1 17 32
M  V30 END BOND
M  V30 END CTAB
M  END
>  <Structure No>
4285

>  <LogS>
-4.3009

>  <MMFF94 Energy>
45.131

$$$$
Compound 4286
Actelion Java MolfileCreator 2.0

  0  0  0  0  0  0              0 V3000
M  V30 BEGIN CTAB
M  V30 COUNTS 24 23 0 0 0
M  V30 BEGIN ATOM
M  V30 1 O 1.2454 0.1556 -1.479 0
M  V30 2 C 0.7887 -0.4632 -0.4798 0
M  V30 3 N 1.687 -1.1126 0.4344 0
M  V30 4 C -0.6698 -0.5184 -0.2625 0
M  V30 5 C 3.1415 -1.0331 0.304 0
M  V30 6 O -1.1265 -1.1267 0.7432 0
M  V30 7 N -1.5696 0.1117 -1.1885 0
M  V30 8 C 3.6783 0.2378 0.9666 0
M  V30 9 C -3.0188 0.1143 -0.9961 0
M  V30 10 O 3.2215 1.3842 0.3018 0
M  V30 11 C -3.4142 1.1091 0.0965 0
M  V30 12 O -4.8091 1.1628 0.222 0
M  V30 13 H 1.2984 -1.6936 1.2112 0
M  V30 14 H 3.5969 -1.9113 0.8108 0
M  V30 15 H 3.4406 -1.0745 -0.7657 0
M  V30 16 H -1.1909 0.541 -2.0627 0
M  V30 17 H 4.7918 0.2152 0.9723 0
M  V30 18 H 3.3368 0.2753 2.0231 0
M  V30 19 H -3.3679 -0.9081 -0.7341 0
M  V30 20 H -3.5126 0.411 -1.9473 0
M  V30 21 H 3.7485 1.4548 -0.5366 0
M  V30 22 H -2.9511 0.8282 1.0691 0
M  V30 23 H -3.045 2.1201 -0.1785 0
M  V30 24 H -5.0819 0.3414 0.7089 0
M  V30 END ATOM
M  V30 BEGIN BOND
M  V30 1 2 1 2
M  V30 2 1 2 3
M  V30 3 1 2 4
M  V30 4 1 3 5
M  V30 5 2 4 6
M  V30 6 1 4 7
M  V30 7 1 5 8
M  V30 8 1 7 9
M  V30 9 1 8 10
M  V30 10 1 9 11
M  V30 11 1 11 12
M  V30 12 1 3 13
M  V30 13 1 5 14
M  V30 14 1 5 15
M  V30 15 1 7 16
M  V30 16 1 8 17
M  V30 17 1 8 18
M  V30 18 1 9 19
M  V30 19 1 9 20
M  V30 20 1 10 21
M  V30 21 1 11 22
M  V30 22 1 11 23
M  V30 23 1 12 24
M  V30 END BOND
M  V30 END CTAB
M  END
>  <Structure No>
4286

>  <LogS>
-0.1124

>  <MMFF94 Energy>
41.62

$$$$
Compound 4287
Actelion Java MolfileCreator 2.0

  0  0  0  0  0  0              0 V3000
M  V30 BEGIN CTAB
M  V30 COUNTS 36 38 0 0 0
M  V30 BEGIN ATOM
M  V30 1 O -1.6819 -0.6405 -1.0409 0
M  V30 2 C -0.7588 0.3948 -0.7348 0 CFG=2
M  V30 3 C -2.6988 -0.6443 -0.0625 0 CFG=2
M  V30 4 N 0.5589 -0.2173 -0.453 0
M  V30 5 C -1.2864 1.1453 0.5214 0 CFG=2
M  V30 6 C -0.6358 1.2914 -1.9878 0
M  V30 7 C -2.2197 0.1399 1.1552 0 CFG=2
M  V30 8 C -3.1561 -2.0789 0.2494 0
M  V30 9 C 1.691 0.3534 -7.0E-4 0
M  V30 10 C 0.9464 -1.4957 -0.7227 0
M  V30 11 O -1.9652 2.3425 0.209 0
M  V30 12 O 0.1341 2.4311 -1.7209 0
M  V30 13 O -1.5072 -0.6844 2.0437 0
M  V30 14 O -2.0669 -2.9057 0.565 0
M  V30 15 N 1.8845 1.6439 0.3688 0
M  V30 16 C 2.6895 -0.5593 0.0177 0
M  V30 17 N 2.2529 -1.7459 -0.4369 0
M  V30 18 C 3.1316 2.0174 0.7853 0
M  V30 19 C 3.9637 -0.1918 0.4361 0
M  V30 20 N 4.1557 1.106 0.8172 0
M  V30 21 N 5.0441 -1.1244 0.4647 0
M  V30 22 H -3.5795 -0.1127 -0.489 0
M  V30 23 H -0.4774 1.4035 1.2348 0
M  V30 24 H -1.6474 1.597 -2.3373 0
M  V30 25 H -0.1619 0.7063 -2.8081 0
M  V30 26 H -3.0777 0.6264 1.6772 0
M  V30 27 H -3.7169 -2.4883 -0.6229 0
M  V30 28 H -3.8577 -2.0644 1.1108 0
M  V30 29 H 0.2932 -2.2448 -1.1484 0
M  V30 30 H -2.7703 2.1215 -0.3276 0
M  V30 31 H 0.1734 2.9428 -2.5703 0
M  V30 32 H -1.4184 -0.1767 2.8922 0
M  V30 33 H -1.7341 -3.2816 -0.2909 0
M  V30 34 H 3.3123 3.0392 1.0892 0
M  V30 35 H 5.9915 -0.8198 0.7807 0
M  V30 36 H 4.9055 -2.1177 0.1736 0
M  V30 END ATOM
M  V30 BEGIN BOND
M  V30 1 1 1 2
M  V30 2 1 1 3
M  V30 3 1 2 4
M  V30 4 1 2 5
M  V30 5 1 2 6
M  V30 6 1 3 7
M  V30 7 1 3 8
M  V30 8 1 4 9
M  V30 9 1 4 10
M  V30 10 1 5 11
M  V30 11 1 6 12
M  V30 12 1 7 13
M  V30 13 1 8 14
M  V30 14 2 9 15
M  V30 15 1 9 16
M  V30 16 2 10 17
M  V30 17 1 15 18
M  V30 18 2 16 19
M  V30 19 2 18 20
M  V30 20 1 19 21
M  V30 21 1 5 7
M  V30 22 1 16 17
M  V30 23 1 19 20
M  V30 24 1 3 22
M  V30 25 1 5 23
M  V30 26 1 6 24
M  V30 27 1 6 25
M  V30 28 1 7 26
M  V30 29 1 8 27
M  V30 30 1 8 28
M  V30 31 1 10 29
M  V30 32 1 11 30
M  V30 33 1 12 31
M  V30 34 1 13 32
M  V30 35 1 14 33
M  V30 36 1 18 34
M  V30 37 1 21 35
M  V30 38 1 21 36
M  V30 END BOND
M  V30 BEGIN COLLECTION
M  V30 MDLV30/STEABS ATOMS=(4 2 3 5 7)
M  V30 END COLLECTION
M  V30 END CTAB
M  END
>  <Structure No>
4287

>  <LogS>
-1.5701

>  <MMFF94 Energy>
118.07

$$$$
Compound 4288
Actelion Java MolfileCreator 2.0

  0  0  0  0  0  0              0 V3000
M  V30 BEGIN CTAB
M  V30 COUNTS 21 21 0 0 0
M  V30 BEGIN ATOM
M  V30 1 O 3.0314 0.3984 1.6743 0
M  V30 2 C 3.0208 -0.1342 0.5337 0
M  V30 3 O 3.633 -1.3662 0.3438 0 CHG=-1
M  V30 4 C 2.3781 0.5704 -0.6185 0
M  V30 5 O 1.0479 0.9694 -0.2882 0
M  V30 6 C -0.0497 0.1036 -0.1309 0
M  V30 7 C -1.2892 0.6469 0.2639 0
M  V30 8 C 0.0519 -1.2839 -0.3587 0
M  V30 9 C -2.4007 -0.1966 0.429 0
M  V30 10 C -1.4216 2.1232 0.513 0
M  V30 11 C -1.0609 -2.1111 -0.1914 0
M  V30 12 C -2.2844 -1.569 0.2019 0
M  V30 13 H 2.3772 -0.0682 -1.5273 0
M  V30 14 H 2.9724 1.4789 -0.8486 0
M  V30 15 H 0.9838 -1.7352 -0.6666 0
M  V30 16 H -3.3585 0.2065 0.7337 0
M  V30 17 H -0.7328 2.4275 1.3291 0
M  V30 18 H -1.1618 2.683 -0.41 0
M  V30 19 H -2.4566 2.3984 0.8082 0
M  V30 20 H -0.9744 -3.1755 -0.3677 0
M  V30 21 H -3.1446 -2.2132 0.3307 0
M  V30 END ATOM
M  V30 BEGIN BOND
M  V30 1 2 1 2
M  V30 2 1 2 3
M  V30 3 1 2 4
M  V30 4 1 4 5
M  V30 5 1 5 6
M  V30 6 2 6 7
M  V30 7 1 6 8
M  V30 8 1 7 9
M  V30 9 1 7 10
M  V30 10 2 8 11
M  V30 11 2 9 12
M  V30 12 1 11 12
M  V30 13 1 4 13
M  V30 14 1 4 14
M  V30 15 1 8 15
M  V30 16 1 9 16
M  V30 17 1 10 17
M  V30 18 1 10 18
M  V30 19 1 10 19
M  V30 20 1 11 20
M  V30 21 1 12 21
M  V30 END BOND
M  V30 END CTAB
M  END
>  <Structure No>
4288

>  <LogS>
-2.4424

>  <MMFF94 Energy>
73.112

$$$$
Compound 4289
Actelion Java MolfileCreator 2.0

  0  0  0  0  0  0              0 V3000
M  V30 BEGIN CTAB
M  V30 COUNTS 20 20 0 0 0
M  V30 BEGIN ATOM
M  V30 1 O 0.1625 2.7663 0.4877 0
M  V30 2 N -0.9351 2.2206 0.7229 0 CHG=1
M  V30 3 O -1.9533 2.9935 1.2333 0 CHG=-1
M  V30 4 C -1.1512 0.8187 0.4505 0
M  V30 5 C -0.1004 -0.0271 0.0104 0
M  V30 6 C -2.4376 0.2734 0.6277 0
M  V30 7 O 1.1896 0.502 -0.1607 0
M  V30 8 C -0.37 -1.388 -0.2436 0
M  V30 9 C -2.6842 -1.0757 0.3722 0
M  V30 10 C 2.3246 -0.2412 -0.5947 0
M  V30 11 C -1.6533 -1.904 -0.0629 0
M  V30 12 C 3.5076 0.6648 -0.6576 0
M  V30 13 O 4.2114 0.8586 0.3679 0
M  V30 14 O 3.8033 1.3415 -1.8339 0 CHG=-1
M  V30 15 H -3.2593 0.8932 0.9621 0
M  V30 16 H 0.4077 -2.059 -0.5807 0
M  V30 17 H -3.679 -1.4793 0.5118 0
M  V30 18 H 2.5301 -1.0692 0.1179 0
M  V30 19 H 2.135 -0.6647 -1.6044 0
M  V30 20 H -1.8483 -2.9503 -0.2605 0
M  V30 END ATOM
M  V30 BEGIN BOND
M  V30 1 2 1 2
M  V30 2 1 2 3
M  V30 3 1 2 4
M  V30 4 2 4 5
M  V30 5 1 4 6
M  V30 6 1 5 7
M  V30 7 1 5 8
M  V30 8 2 6 9
M  V30 9 1 7 10
M  V30 10 2 8 11
M  V30 11 1 10 12
M  V30 12 2 12 13
M  V30 13 1 12 14
M  V30 14 1 9 11
M  V30 15 1 6 15
M  V30 16 1 8 16
M  V30 17 1 9 17
M  V30 18 1 10 18
M  V30 19 1 10 19
M  V30 20 1 11 20
M  V30 END BOND
M  V30 END CTAB
M  END
>  <Structure No>
4289

>  <LogS>
-2.016

>  <MMFF94 Energy>
106.59

$$$$
Compound 4290
Actelion Java MolfileCreator 2.0

  0  0  0  0  0  0              0 V3000
M  V30 BEGIN CTAB
M  V30 COUNTS 29 28 0 0 0
M  V30 BEGIN ATOM
M  V30 1 S 0.0 0.7209 0.7209 0
M  V30 2 O -0.0703 2.2107 0.5226 0
M  V30 3 O 0.0458 0.4627 2.2025 0
M  V30 4 C -1.5556 0.0054 0.1022 0
M  V30 5 C 1.5807 0.162 0.0116 0
M  V30 6 C -2.7218 0.8796 0.6062 0
M  V30 7 C -1.5877 -0.0145 -1.4343 0
M  V30 8 C -1.7556 -1.4226 0.6473 0
M  V30 9 C 1.797 0.7692 -1.3886 0
M  V30 10 C 2.7198 0.6515 0.9287 0
M  V30 11 C 1.6436 -1.3716 -0.0703 0
M  V30 12 H -2.6512 1.9092 0.1947 0
M  V30 13 H -2.7116 0.9444 1.7158 0
M  V30 14 H -3.7004 0.4545 0.2937 0
M  V30 15 H -2.5991 -0.2962 -1.7994 0
M  V30 16 H -0.8786 -0.762 -1.84 0
M  V30 17 H -1.3396 0.9882 -1.8432 0
M  V30 18 H -2.7417 -1.825 0.3288 0
M  V30 19 H -1.7254 -1.4297 1.7577 0
M  V30 20 H -0.9822 -2.1177 0.2727 0
M  V30 21 H 2.7966 0.4864 -1.7841 0
M  V30 22 H 1.0443 0.4089 -2.1137 0
M  V30 23 H 1.7447 1.8781 -1.351 0
M  V30 24 H 3.7123 0.3755 0.5107 0
M  V30 25 H 2.6376 0.1967 1.9391 0
M  V30 26 H 2.6863 1.757 1.0386 0
M  V30 27 H 1.3845 -1.826 0.9098 0
M  V30 28 H 0.9569 -1.7594 -0.8477 0
M  V30 29 H 2.6672 -1.7055 -0.3467 0
M  V30 END ATOM
M  V30 BEGIN BOND
M  V30 1 2 1 2
M  V30 2 2 1 3
M  V30 3 1 1 4
M  V30 4 1 1 5
M  V30 5 1 4 6
M  V30 6 1 4 7
M  V30 7 1 4 8
M  V30 8 1 5 9
M  V30 9 1 5 10
M  V30 10 1 5 11
M  V30 11 1 6 12
M  V30 12 1 6 13
M  V30 13 1 6 14
M  V30 14 1 7 15
M  V30 15 1 7 16
M  V30 16 1 7 17
M  V30 17 1 8 18
M  V30 18 1 8 19
M  V30 19 1 8 20
M  V30 20 1 9 21
M  V30 21 1 9 22
M  V30 22 1 9 23
M  V30 23 1 10 24
M  V30 24 1 10 25
M  V30 25 1 10 26
M  V30 26 1 11 27
M  V30 27 1 11 28
M  V30 28 1 11 29
M  V30 END BOND
M  V30 END CTAB
M  END
>  <Structure No>
4290

>  <LogS>
-1.2177

>  <MMFF94 Energy>


$$$$
Compound 4291
Actelion Java MolfileCreator 2.0

  0  0  0  0  0  0              0 V3000
M  V30 BEGIN CTAB
M  V30 COUNTS 9 8 0 0 0
M  V30 BEGIN ATOM
M  V30 1 Cl 1.5882 -1.8 0.4233 0
M  V30 2 C 1.3844 -0.0542 0.2683 0
M  V30 3 Cl 2.8414 0.9028 0.534 0
M  V30 4 C 0.1992 0.5349 -0.0334 0
M  V30 5 Cl 0.1493 2.3043 -0.1556 0
M  V30 6 C -1.0824 -0.2629 -0.2698 0
M  V30 7 Cl -1.5236 -1.1947 1.1876 0
M  V30 8 Cl -2.4825 0.783 -0.6483 0
M  V30 9 Cl -0.8884 -1.3731 -1.6542 0
M  V30 END ATOM
M  V30 BEGIN BOND
M  V30 1 1 1 2
M  V30 2 1 2 3
M  V30 3 2 2 4
M  V30 4 1 4 5
M  V30 5 1 4 6
M  V30 6 1 6 7
M  V30 7 1 6 8
M  V30 8 1 6 9
M  V30 END BOND
M  V30 END CTAB
M  END
>  <Structure No>
4291

>  <LogS>
-4.1651

>  <MMFF94 Energy>
8.9781

$$$$
Compound 4292
Actelion Java MolfileCreator 2.0

  0  0  0  0  0  0              0 V3000
M  V30 BEGIN CTAB
M  V30 COUNTS 34 34 0 0 0
M  V30 BEGIN ATOM
M  V30 1 Cl -0.4768 -4.0588 -2.6248 0
M  V30 2 C -0.1969 -2.6281 -1.6569 0
M  V30 3 N -1.2433 -1.8597 -1.2653 0
M  V30 4 N 1.0657 -2.2892 -1.2972 0
M  V30 5 C -1.0357 -0.7469 -0.5117 0
M  V30 6 C 1.286 -1.1798 -0.5467 0
M  V30 7 N 0.2336 -0.414 -0.1561 0
M  V30 8 N -2.15 0.0702 -0.0909 0
M  V30 9 N 2.6239 -0.8333 -0.1655 0
M  V30 10 C -3.5293 -0.3446 -0.3845 0
M  V30 11 C -1.9159 1.3318 0.6262 0
M  V30 12 C 2.9357 0.3653 0.6202 0
M  V30 13 C -3.9786 -1.4321 0.5853 0
M  V30 14 C -1.5269 2.4363 -0.3501 0
M  V30 15 C 4.3132 0.2272 1.2759 0
M  V30 16 C 2.8927 1.6061 -0.276 0
M  V30 17 H 3.3961 -1.4796 -0.4478 0
M  V30 18 H -3.6051 -0.7123 -1.4304 0
M  V30 19 H -4.2241 0.5193 -0.2981 0
M  V30 20 H -1.1175 1.1995 1.3879 0
M  V30 21 H -2.8312 1.645 1.1745 0
M  V30 22 H 2.1854 0.4799 1.4339 0
M  V30 23 H -3.3391 -2.3337 0.4828 0
M  V30 24 H -5.0299 -1.7152 0.3672 0
M  V30 25 H -3.917 -1.0585 1.6294 0
M  V30 26 H -1.3553 3.3823 0.2052 0
M  V30 27 H -0.5965 2.1667 -0.8913 0
M  V30 28 H -2.3423 2.5954 -1.0871 0
M  V30 29 H 4.3325 -0.6735 1.9257 0
M  V30 30 H 4.5298 1.1165 1.9057 0
M  V30 31 H 5.1069 0.1296 0.5044 0
M  V30 32 H 1.8836 1.7249 -0.7216 0
M  V30 33 H 3.6353 1.517 -1.0977 0
M  V30 34 H 3.1175 2.5174 0.3183 0
M  V30 END ATOM
M  V30 BEGIN BOND
M  V30 1 1 1 2
M  V30 2 2 2 3
M  V30 3 1 2 4
M  V30 4 1 3 5
M  V30 5 2 4 6
M  V30 6 2 5 7
M  V30 7 1 5 8
M  V30 8 1 6 9
M  V30 9 1 8 10
M  V30 10 1 8 11
M  V30 11 1 9 12
M  V30 12 1 10 13
M  V30 13 1 11 14
M  V30 14 1 12 15
M  V30 15 1 12 16
M  V30 16 1 6 7
M  V30 17 1 9 17
M  V30 18 1 10 18
M  V30 19 1 10 19
M  V30 20 1 11 20
M  V30 21 1 11 21
M  V30 22 1 12 22
M  V30 23 1 13 23
M  V30 24 1 13 24
M  V30 25 1 13 25
M  V30 26 1 14 26
M  V30 27 1 14 27
M  V30 28 1 14 28
M  V30 29 1 15 29
M  V30 30 1 15 30
M  V30 31 1 15 31
M  V30 32 1 16 32
M  V30 33 1 16 33
M  V30 34 1 16 34
M  V30 END BOND
M  V30 END CTAB
M  END
>  <Structure No>
4292

>  <LogS>
-3.7849

>  <MMFF94 Energy>
-225.12

$$$$
Compound 4293
Actelion Java MolfileCreator 2.0

  0  0  0  0  0  0              0 V3000
M  V30 BEGIN CTAB
M  V30 COUNTS 14 14 0 0 0
M  V30 BEGIN ATOM
M  V30 1 O 2.7151 1.9958 0.4787 0
M  V30 2 C 2.5883 0.7887 0.1453 0
M  V30 3 O 3.7198 0.0249 -0.1122 0 CHG=-1
M  V30 4 C 1.2523 0.1959 0.0307 0
M  V30 5 O 0.1362 0.8505 0.2567 0
M  V30 6 C 0.9741 -1.1105 -0.3251 0
M  V30 7 C -0.8683 0.0266 0.0659 0
M  V30 8 C -0.4006 -1.2192 -0.3033 0
M  V30 9 C -2.3031 0.4054 0.217 0
M  V30 10 H 1.6832 -1.8898 -0.5719 0
M  V30 11 H -0.9883 -2.0988 -0.5303 0
M  V30 12 H -2.807 -0.3016 0.9088 0
M  V30 13 H -2.3832 1.4332 0.629 0
M  V30 14 H -2.8034 0.3709 -0.7731 0
M  V30 END ATOM
M  V30 BEGIN BOND
M  V30 1 2 1 2
M  V30 2 1 2 3
M  V30 3 1 2 4
M  V30 4 1 4 5
M  V30 5 2 4 6
M  V30 6 1 5 7
M  V30 7 1 6 8
M  V30 8 1 7 9
M  V30 9 2 7 8
M  V30 10 1 6 10
M  V30 11 1 8 11
M  V30 12 1 9 12
M  V30 13 1 9 13
M  V30 14 1 9 14
M  V30 END BOND
M  V30 END CTAB
M  END
>  <Structure No>
4293

>  <LogS>
-0.8243

>  <MMFF94 Energy>
42.458

$$$$
Compound 4294
Actelion Java MolfileCreator 2.0

  0  0  0  0  0  0              0 V3000
M  V30 BEGIN CTAB
M  V30 COUNTS 18 18 0 0 0
M  V30 BEGIN ATOM
M  V30 1 O 3.6168 -2.043 -0.3926 0
M  V30 2 C 3.5487 -0.7908 -0.2846 0
M  V30 3 C 2.2474 -0.1207 -0.2805 0
M  V30 4 O 1.0956 -0.7431 -0.3832 0
M  V30 5 C 2.0466 1.2408 -0.1671 0
M  V30 6 C 0.1396 0.1565 -0.3471 0
M  V30 7 C 0.6798 1.4207 -0.2067 0
M  V30 8 C -1.316 -0.1674 -0.409 0
M  V30 9 O -1.822 -0.2456 0.9054 0
M  V30 10 C -3.1983 -0.5475 0.8579 0
M  V30 11 H 4.4583 -0.2116 -0.1947 0
M  V30 12 H 2.8015 2.0092 -0.0638 0
M  V30 13 H 0.1441 2.3582 -0.1374 0
M  V30 14 H -1.8325 0.6311 -0.989 0
M  V30 15 H -1.4351 -1.14 -0.9383 0
M  V30 16 H -3.7686 0.2522 0.3351 0
M  V30 17 H -3.5828 -0.6084 1.8967 0
M  V30 18 H -3.3785 -1.5336 0.3746 0
M  V30 END ATOM
M  V30 BEGIN BOND
M  V30 1 2 1 2
M  V30 2 1 2 3
M  V30 3 1 3 4
M  V30 4 2 3 5
M  V30 5 1 4 6
M  V30 6 1 5 7
M  V30 7 1 6 8
M  V30 8 1 8 9
M  V30 9 1 9 10
M  V30 10 2 6 7
M  V30 11 1 2 11
M  V30 12 1 5 12
M  V30 13 1 7 13
M  V30 14 1 8 14
M  V30 15 1 8 15
M  V30 16 1 10 16
M  V30 17 1 10 17
M  V30 18 1 10 18
M  V30 END BOND
M  V30 END CTAB
M  END
>  <Structure No>
4294

>  <LogS>
-0.4992

>  <MMFF94 Energy>
35.079

$$$$
Compound 4295
Actelion Java MolfileCreator 2.0

  0  0  0  0  0  0              0 V3000
M  V30 BEGIN CTAB
M  V30 COUNTS 15 15 0 0 0
M  V30 BEGIN ATOM
M  V30 1 Cl 0.7103 3.466 0.4439 0
M  V30 2 C 0.3397 1.7822 0.1049 0
M  V30 3 N -0.956 1.4316 -0.0768 0
M  V30 4 C 1.3461 0.8126 0.0211 0
M  V30 5 C -1.3506 0.1591 -0.3434 0
M  V30 6 Cl 3.0302 1.2861 0.2608 0
M  V30 7 C 0.993 -0.5248 -0.2533 0
M  V30 8 C -0.3696 -0.8607 -0.4386 0
M  V30 9 C -2.8055 -0.0674 -0.5172 0
M  V30 10 N 2.0137 -1.5349 -0.3432 0
M  V30 11 Cl -0.8131 -2.5384 -0.7832 0
M  V30 12 O -3.279 -1.2059 -0.7668 0
M  V30 13 O -3.6792 1.0074 -0.4022 0 CHG=-1
M  V30 14 H 1.7927 -2.5336 -0.5443 0
M  V30 15 H 3.0235 -1.3117 -0.2105 0
M  V30 END ATOM
M  V30 BEGIN BOND
M  V30 1 1 1 2
M  V30 2 2 2 3
M  V30 3 1 2 4
M  V30 4 1 3 5
M  V30 5 1 4 6
M  V30 6 2 4 7
M  V30 7 2 5 8
M  V30 8 1 5 9
M  V30 9 1 7 10
M  V30 10 1 8 11
M  V30 11 2 9 12
M  V30 12 1 9 13
M  V30 13 1 7 8
M  V30 14 1 10 14
M  V30 15 1 10 15
M  V30 END BOND
M  V30 END CTAB
M  END
>  <Structure No>
4295

>  <LogS>
-2.7494

>  <MMFF94 Energy>
129.51

$$$$
Compound 4296
Actelion Java MolfileCreator 2.0

  0  0  0  0  0  0              0 V3000
M  V30 BEGIN CTAB
M  V30 COUNTS 39 39 0 0 0
M  V30 BEGIN ATOM
M  V30 1 O -1.114 -0.6365 2.2291 0
M  V30 2 N 0.0185 -1.1333 2.0663 0 CHG=1
M  V30 3 O 0.4373 -2.1172 2.9326 0 CHG=-1
M  V30 4 C 0.93 -0.5963 1.089 0
M  V30 5 C 0.4745 -0.0069 -0.1201 0
M  V30 6 C 2.3065 -0.6372 1.3595 0
M  V30 7 N -0.9345 0.0117 -0.4332 0
M  V30 8 C 1.4126 0.5849 -1.0064 0
M  V30 9 C 3.2318 -0.0803 0.4729 0
M  V30 10 C -1.7254 1.2546 -0.3461 0
M  V30 11 C -1.4932 -1.1107 -1.2054 0
M  V30 12 N 0.9976 1.2472 -2.2153 0 CHG=1
M  V30 13 C 2.7789 0.5529 -0.6869 0
M  V30 14 C 4.6947 -0.0843 0.8082 0
M  V30 15 C -1.1338 2.2936 0.6228 0
M  V30 16 C -1.9979 -2.225 -0.2858 0
M  V30 17 O 1.6369 2.2325 -2.6387 0
M  V30 18 O 0.0031 0.7194 -3.004 0 CHG=-1
M  V30 19 C -2.0418 3.5145 0.7393 0
M  V30 20 C -2.6804 -3.3321 -1.0838 0
M  V30 21 H 2.6604 -1.0814 2.282 0
M  V30 22 H -1.807 1.7085 -1.357 0
M  V30 23 H -2.7529 0.9969 -0.007 0
M  V30 24 H -0.7223 -1.5234 -1.8929 0
M  V30 25 H -2.3375 -0.7533 -1.8366 0
M  V30 26 H 3.4973 1.0095 -1.3571 0
M  V30 27 H 5.3095 -0.0969 -0.1169 0
M  V30 28 H 4.9578 -0.9832 1.4056 0
M  V30 29 H 4.9414 0.8252 1.3947 0
M  V30 30 H -0.1405 2.6311 0.2572 0
M  V30 31 H -1.0068 1.8486 1.631 0
M  V30 32 H -2.7263 -1.807 0.4419 0
M  V30 33 H -1.1441 -2.6682 0.2675 0
M  V30 34 H -2.1698 3.996 -0.2534 0
M  V30 35 H -3.0367 3.2194 1.1356 0
M  V30 36 H -1.5872 4.2509 1.4352 0
M  V30 37 H -3.5617 -2.9298 -1.6278 0
M  V30 38 H -1.9699 -3.7762 -1.8132 0
M  V30 39 H -3.0248 -4.13 -0.3926 0
M  V30 END ATOM
M  V30 BEGIN BOND
M  V30 1 2 1 2
M  V30 2 1 2 3
M  V30 3 1 2 4
M  V30 4 2 4 5
M  V30 5 1 4 6
M  V30 6 1 5 7
M  V30 7 1 5 8
M  V30 8 2 6 9
M  V30 9 1 7 10
M  V30 10 1 7 11
M  V30 11 1 8 12
M  V30 12 2 8 13
M  V30 13 1 9 14
M  V30 14 1 10 15
M  V30 15 1 11 16
M  V30 16 2 12 17
M  V30 17 1 12 18
M  V30 18 1 15 19
M  V30 19 1 16 20
M  V30 20 1 9 13
M  V30 21 1 6 21
M  V30 22 1 10 22
M  V30 23 1 10 23
M  V30 24 1 11 24
M  V30 25 1 11 25
M  V30 26 1 13 26
M  V30 27 1 14 27
M  V30 28 1 14 28
M  V30 29 1 14 29
M  V30 30 1 15 30
M  V30 31 1 15 31
M  V30 32 1 16 32
M  V30 33 1 16 33
M  V30 34 1 19 34
M  V30 35 1 19 35
M  V30 36 1 19 36
M  V30 37 1 20 37
M  V30 38 1 20 38
M  V30 39 1 20 39
M  V30 END BOND
M  V30 END CTAB
M  END
>  <Structure No>
4296

>  <LogS>
-2.9663

>  <MMFF94 Energy>
120.6

$$$$
Compound 4297
Actelion Java MolfileCreator 2.0

  0  0  0  0  0  0              0 V3000
M  V30 BEGIN CTAB
M  V30 COUNTS 47 47 0 0 0
M  V30 BEGIN ATOM
M  V30 1 O -0.5508 2.4414 0.236 0
M  V30 2 C -0.4126 1.9919 -0.9353 0
M  V30 3 O -0.1173 0.641 -1.1475 0
M  V30 4 N -0.5567 2.8604 -2.0616 0
M  V30 5 C 0.0366 -0.2619 -0.0976 0
M  V30 6 C -0.8637 4.2764 -1.908 0
M  V30 7 C 1.3228 -0.4377 0.4962 0
M  V30 8 C -1.1045 -0.9544 0.4082 0
M  V30 9 C 1.37 -1.0514 1.7655 0
M  V30 10 C 2.64 0.0991 -0.135 0
M  V30 11 C -0.986 -1.553 1.68 0
M  V30 12 C -2.4791 -0.9906 -0.3206 0
M  V30 13 C 0.2328 -1.6015 2.3538 0
M  V30 14 C 2.5742 0.1863 -1.6841 0
M  V30 15 C 3.8356 -0.8384 0.193 0
M  V30 16 C 2.9446 1.4953 0.4382 0
M  V30 17 C -3.2095 -2.3383 -0.0624 0
M  V30 18 C -3.3643 0.1522 0.2095 0
M  V30 19 C -2.3474 -0.8613 -1.8626 0
M  V30 20 C 0.3093 -2.1961 3.7313 0
M  V30 21 H -0.4379 2.466 -3.0215 0
M  V30 22 H -1.8363 4.3961 -1.3857 0
M  V30 23 H -0.0627 4.7736 -1.3214 0
M  V30 24 H -0.9301 4.7581 -2.9062 0
M  V30 25 H 2.2899 -1.0916 2.3282 0
M  V30 26 H -1.8466 -1.9722 2.1781 0
M  V30 27 H 2.0256 1.0839 -2.0319 0
M  V30 28 H 2.1061 -0.7278 -2.1087 0
M  V30 29 H 3.5867 0.2881 -2.1306 0
M  V30 30 H 4.7425 -0.5576 -0.3847 0
M  V30 31 H 3.5816 -1.8921 -0.0528 0
M  V30 32 H 4.1395 -0.7764 1.258 0
M  V30 33 H 3.0275 1.4545 1.5458 0
M  V30 34 H 2.142 2.2149 0.1786 0
M  V30 35 H 3.902 1.8858 0.0302 0
M  V30 36 H -4.1099 -2.4422 -0.7059 0
M  V30 37 H -3.5853 -2.421 0.9777 0
M  V30 38 H -2.5324 -3.1937 -0.2747 0
M  V30 39 H -2.9081 1.1398 -0.0043 0
M  V30 40 H -4.3671 0.1254 -0.2696 0
M  V30 41 H -3.5001 0.0647 1.3091 0
M  V30 42 H -2.1888 0.1868 -2.1846 0
M  V30 43 H -3.2803 -1.1737 -2.3796 0
M  V30 44 H -1.5197 -1.4996 -2.2402 0
M  V30 45 H -0.4407 -3.0063 3.8533 0
M  V30 46 H 1.3137 -2.6327 3.917 0
M  V30 47 H 0.1136 -1.4053 4.4853 0
M  V30 END ATOM
M  V30 BEGIN BOND
M  V30 1 2 1 2
M  V30 2 1 2 3
M  V30 3 1 2 4
M  V30 4 1 3 5
M  V30 5 1 4 6
M  V30 6 2 5 7
M  V30 7 1 5 8
M  V30 8 1 7 9
M  V30 9 1 7 10
M  V30 10 2 8 11
M  V30 11 1 8 12
M  V30 12 2 9 13
M  V30 13 1 10 14
M  V30 14 1 10 15
M  V30 15 1 10 16
M  V30 16 1 12 17
M  V30 17 1 12 18
M  V30 18 1 12 19
M  V30 19 1 13 20
M  V30 20 1 11 13
M  V30 21 1 4 21
M  V30 22 1 6 22
M  V30 23 1 6 23
M  V30 24 1 6 24
M  V30 25 1 9 25
M  V30 26 1 11 26
M  V30 27 1 14 27
M  V30 28 1 14 28
M  V30 29 1 14 29
M  V30 30 1 15 30
M  V30 31 1 15 31
M  V30 32 1 15 32
M  V30 33 1 16 33
M  V30 34 1 16 34
M  V30 35 1 16 35
M  V30 36 1 17 36
M  V30 37 1 17 37
M  V30 38 1 17 38
M  V30 39 1 18 39
M  V30 40 1 18 40
M  V30 41 1 18 41
M  V30 42 1 19 42
M  V30 43 1 19 43
M  V30 44 1 19 44
M  V30 45 1 20 45
M  V30 46 1 20 46
M  V30 47 1 20 47
M  V30 END BOND
M  V30 END CTAB
M  END
>  <Structure No>
4297

>  <LogS>
-4.598

>  <MMFF94 Energy>
30.402

$$$$
Compound 4298
Actelion Java MolfileCreator 2.0

  0  0  0  0  0  0              0 V3000
M  V30 BEGIN CTAB
M  V30 COUNTS 24 26 0 0 0
M  V30 BEGIN ATOM
M  V30 1 S 0.4123 2.0632 0.4948 0
M  V30 2 C 1.2987 0.5991 -0.0466 0
M  V30 3 C -1.2039 1.2847 0.4318 0
M  V30 4 C 0.9812 -0.6547 0.5058 0
M  V30 5 C 2.3768 0.725 -0.9297 0
M  V30 6 C -1.378 -0.0088 0.9571 0
M  V30 7 C -2.308 2.008 -0.0335 0
M  V30 8 N -0.2344 -0.8268 1.2524 0
M  V30 9 C 1.7869 -1.7635 0.2098 0
M  V30 10 C 3.1684 -0.3906 -1.2358 0
M  V30 11 C -2.6709 -0.543 1.0628 0
M  V30 12 C -3.5912 1.4608 0.0579 0
M  V30 13 C 2.8772 -1.6298 -0.6553 0
M  V30 14 O 4.2496 -0.2765 -2.1066 0
M  V30 15 C -3.7738 0.1927 0.6174 0
M  V30 16 H 2.6198 1.6928 -1.3505 0
M  V30 17 H -2.1777 3.0053 -0.4339 0
M  V30 18 H -0.3773 -1.7175 1.781 0
M  V30 19 H 1.5484 -2.7369 0.6195 0
M  V30 20 H -2.8197 -1.5407 1.456 0
M  V30 21 H -4.4459 2.0256 -0.2916 0
M  V30 22 H 3.4866 -2.4937 -0.8882 0
M  V30 23 H 4.4883 0.6071 -2.5414 0
M  V30 24 H -4.7688 -0.2271 0.6904 0
M  V30 END ATOM
M  V30 BEGIN BOND
M  V30 1 1 1 2
M  V30 2 1 1 3
M  V30 3 2 2 4
M  V30 4 1 2 5
M  V30 5 2 3 6
M  V30 6 1 3 7
M  V30 7 1 4 8
M  V30 8 1 4 9
M  V30 9 2 5 10
M  V30 10 1 6 11
M  V30 11 2 7 12
M  V30 12 2 9 13
M  V30 13 1 10 14
M  V30 14 2 11 15
M  V30 15 1 6 8
M  V30 16 1 10 13
M  V30 17 1 12 15
M  V30 18 1 5 16
M  V30 19 1 7 17
M  V30 20 1 8 18
M  V30 21 1 9 19
M  V30 22 1 11 20
M  V30 23 1 12 21
M  V30 24 1 13 22
M  V30 25 1 14 23
M  V30 26 1 15 24
M  V30 END BOND
M  V30 END CTAB
M  END
>  <Structure No>
4298

>  <LogS>
-2.5748

>  <MMFF94 Energy>
37.099

$$$$
Compound 4299
Actelion Java MolfileCreator 2.0

  0  0  0  0  0  0              0 V3000
M  V30 BEGIN CTAB
M  V30 COUNTS 22 22 0 0 0
M  V30 BEGIN ATOM
M  V30 1 Cl 0.9102 -2.3182 1.9039 0
M  V30 2 C 1.8345 -1.1763 0.9401 0
M  V30 3 C 1.1851 -0.147 0.2386 0
M  V30 4 C 3.2271 -1.3033 0.8783 0
M  V30 5 O -0.2126 -0.0498 0.3235 0
M  V30 6 C 1.9539 0.753 -0.526 0
M  V30 7 C 3.9817 -0.4059 0.1174 0
M  V30 8 C -0.9947 0.9411 -0.3359 0
M  V30 9 C 3.3442 0.6211 -0.5837 0
M  V30 10 Cl 5.7266 -0.5686 0.0427 0
M  V30 11 C -2.4343 0.7206 -0.0153 0
M  V30 12 O -2.9396 1.2664 1.0034 0
M  V30 13 O -3.1959 -0.1301 -0.8212 0
M  V30 14 C -4.5666 -0.4071 -0.5611 0
M  V30 15 H 3.7217 -2.0988 1.4214 0
M  V30 16 H 1.4876 1.5571 -1.0786 0
M  V30 17 H -0.6883 1.954 0.0048 0
M  V30 18 H -0.8502 0.8659 -1.435 0
M  V30 19 H 3.9251 1.3182 -1.1743 0
M  V30 20 H -5.1578 0.5325 -0.5962 0
M  V30 21 H -4.676 -0.8824 0.4366 0
M  V30 22 H -4.9511 -1.1028 -1.3348 0
M  V30 END ATOM
M  V30 BEGIN BOND
M  V30 1 1 1 2
M  V30 2 2 2 3
M  V30 3 1 2 4
M  V30 4 1 3 5
M  V30 5 1 3 6
M  V30 6 2 4 7
M  V30 7 1 5 8
M  V30 8 2 6 9
M  V30 9 1 7 10
M  V30 10 1 8 11
M  V30 11 2 11 12
M  V30 12 1 11 13
M  V30 13 1 13 14
M  V30 14 1 7 9
M  V30 15 1 4 15
M  V30 16 1 6 16
M  V30 17 1 8 17
M  V30 18 1 8 18
M  V30 19 1 9 19
M  V30 20 1 14 20
M  V30 21 1 14 21
M  V30 22 1 14 22
M  V30 END BOND
M  V30 END CTAB
M  END
>  <Structure No>
4299

>  <LogS>
-2.9596

>  <MMFF94 Energy>
43.512

$$$$
Compound 4300
Actelion Java MolfileCreator 2.0

  0  0  0  0  0  0              0 V3000
M  V30 BEGIN CTAB
M  V30 COUNTS 25 25 0 0 0
M  V30 BEGIN ATOM
M  V30 1 Cl 4.4535 2.519 -0.5034 0
M  V30 2 C 3.352 1.1696 -0.2625 0
M  V30 3 C 2.1421 1.3314 0.4309 0
M  V30 4 C 3.6961 -0.0853 -0.7731 0
M  V30 5 Cl 1.6719 2.8924 1.091 0
M  V30 6 C 1.2873 0.2373 0.6062 0
M  V30 7 C 2.841 -1.1786 -0.6007 0
M  V30 8 C 1.6261 -1.0273 0.0858 0
M  V30 9 Cl 3.3025 -2.7404 -1.2606 0
M  V30 10 O 0.7915 -2.1495 0.2312 0
M  V30 11 C -0.5203 -2.1395 0.7938 0
M  V30 12 C -1.4771 -1.4457 -0.1224 0
M  V30 13 O -1.7356 -1.9468 -1.2505 0
M  V30 14 O -2.059 -0.2381 0.2724 0
M  V30 15 C -2.9322 0.5057 -0.57 0
M  V30 16 C -3.3535 1.7837 0.1371 0
M  V30 17 H 4.6299 -0.2116 -1.3068 0
M  V30 18 H 0.3672 0.3851 1.1522 0
M  V30 19 H -0.5111 -1.6635 1.7976 0
M  V30 20 H -0.8558 -3.1891 0.927 0
M  V30 21 H -2.4091 0.7666 -1.5157 0
M  V30 22 H -3.8338 -0.1003 -0.8055 0
M  V30 23 H -3.8852 1.5376 1.0807 0
M  V30 24 H -4.0328 2.3688 -0.5179 0
M  V30 25 H -2.4593 2.3992 0.3721 0
M  V30 END ATOM
M  V30 BEGIN BOND
M  V30 1 1 1 2
M  V30 2 2 2 3
M  V30 3 1 2 4
M  V30 4 1 3 5
M  V30 5 1 3 6
M  V30 6 2 4 7
M  V30 7 2 6 8
M  V30 8 1 7 9
M  V30 9 1 8 10
M  V30 10 1 10 11
M  V30 11 1 11 12
M  V30 12 2 12 13
M  V30 13 1 12 14
M  V30 14 1 14 15
M  V30 15 1 15 16
M  V30 16 1 7 8
M  V30 17 1 4 17
M  V30 18 1 6 18
M  V30 19 1 11 19
M  V30 20 1 11 20
M  V30 21 1 15 21
M  V30 22 1 15 22
M  V30 23 1 16 23
M  V30 24 1 16 24
M  V30 25 1 16 25
M  V30 END BOND
M  V30 END CTAB
M  END
>  <Structure No>
4300

>  <LogS>
-4.8493

>  <MMFF94 Energy>
45.544

$$$$
Compound 4301
Actelion Java MolfileCreator 2.0

  0  0  0  0  0  0              0 V3000
M  V30 BEGIN CTAB
M  V30 COUNTS 43 43 0 0 0
M  V30 BEGIN ATOM
M  V30 1 Cl -5.9759 -1.4511 1.6931 0
M  V30 2 C -5.2103 -0.2546 0.659 0
M  V30 3 C -4.5071 -0.6522 -0.49 0
M  V30 4 C -5.3011 1.1002 0.9987 0
M  V30 5 O -4.4269 -2.0235 -0.7897 0
M  V30 6 C -3.9077 0.3331 -1.3005 0
M  V30 7 C -4.6944 2.0688 0.1943 0
M  V30 8 C -3.6355 -2.5969 -1.8301 0
M  V30 9 C -3.9997 1.6841 -0.9549 0
M  V30 10 Cl -4.8073 3.7654 0.6254 0
M  V30 11 C -2.1807 -2.4422 -1.5229 0
M  V30 12 O -1.7068 -2.955 -0.4726 0
M  V30 13 O -1.365 -1.7143 -2.3957 0
M  V30 14 C -0.0295 -1.33 -2.0789 0
M  V30 15 C -0.0387 -0.175 -1.0687 0
M  V30 16 C 1.3604 0.4066 -0.815 0
M  V30 17 C 2.2423 -0.5304 0.0282 0
M  V30 18 C 3.6368 0.0573 0.3002 0
M  V30 19 C 3.6176 1.1458 1.3876 0
M  V30 20 C 5.0098 1.7424 1.6472 0
M  V30 21 C 5.9397 0.7799 2.3855 0
M  V30 22 H -5.8411 1.3994 1.8883 0
M  V30 23 H -3.372 0.0699 -2.2005 0
M  V30 24 H -3.8877 -2.1341 -2.808 0
M  V30 25 H -3.8706 -3.6794 -1.8996 0
M  V30 26 H -3.5314 2.4312 -1.5829 0
M  V30 27 H 0.4662 -0.9957 -3.0147 0
M  V30 28 H 0.529 -2.205 -1.6847 0
M  V30 29 H -0.4879 -0.5106 -0.109 0
M  V30 30 H -0.6846 0.6352 -1.4723 0
M  V30 31 H 1.8577 0.6278 -1.7848 0
M  V30 32 H 1.2281 1.3692 -0.2785 0
M  V30 33 H 1.7378 -0.7673 0.9906 0
M  V30 34 H 2.383 -1.4849 -0.5207 0
M  V30 35 H 4.2909 -0.7753 0.6346 0
M  V30 36 H 4.0655 0.4647 -0.6414 0
M  V30 37 H 3.2041 0.7317 2.3334 0
M  V30 38 H 2.9545 1.9758 1.0664 0
M  V30 39 H 4.8895 2.6543 2.2717 0
M  V30 40 H 5.4787 2.0529 0.6883 0
M  V30 41 H 5.4617 0.4165 3.32 0
M  V30 42 H 6.2029 -0.0852 1.7432 0
M  V30 43 H 6.8791 1.308 2.6528 0
M  V30 END ATOM
M  V30 BEGIN BOND
M  V30 1 1 1 2
M  V30 2 2 2 3
M  V30 3 1 2 4
M  V30 4 1 3 5
M  V30 5 1 3 6
M  V30 6 2 4 7
M  V30 7 1 5 8
M  V30 8 2 6 9
M  V30 9 1 7 10
M  V30 10 1 8 11
M  V30 11 2 11 12
M  V30 12 1 11 13
M  V30 13 1 13 14
M  V30 14 1 14 15
M  V30 15 1 15 16
M  V30 16 1 16 17
M  V30 17 1 17 18
M  V30 18 1 18 19
M  V30 19 1 19 20
M  V30 20 1 20 21
M  V30 21 1 7 9
M  V30 22 1 4 22
M  V30 23 1 6 23
M  V30 24 1 8 24
M  V30 25 1 8 25
M  V30 26 1 9 26
M  V30 27 1 14 27
M  V30 28 1 14 28
M  V30 29 1 15 29
M  V30 30 1 15 30
M  V30 31 1 16 31
M  V30 32 1 16 32
M  V30 33 1 17 33
M  V30 34 1 17 34
M  V30 35 1 18 35
M  V30 36 1 18 36
M  V30 37 1 19 37
M  V30 38 1 19 38
M  V30 39 1 20 39
M  V30 40 1 20 40
M  V30 41 1 21 41
M  V30 42 1 21 42
M  V30 43 1 21 43
M  V30 END BOND
M  V30 END CTAB
M  END
>  <Structure No>
4301

>  <LogS>
-7.0217

>  <MMFF94 Energy>
40.39

$$$$
Compound 4302
Actelion Java MolfileCreator 2.0

  0  0  0  0  0  0              0 V3000
M  V30 BEGIN CTAB
M  V30 COUNTS 28 28 0 0 0
M  V30 BEGIN ATOM
M  V30 1 Cl -1.8818 1.7999 -1.9636 0
M  V30 2 C -2.8559 1.2752 -0.5984 0
M  V30 3 C -2.3499 0.3399 0.3193 0
M  V30 4 C -4.1432 1.8002 -0.4343 0
M  V30 5 O -1.0553 -0.1649 0.1233 0
M  V30 6 C -3.1547 -0.0608 1.4047 0
M  V30 7 C -4.9346 1.3968 0.6451 0
M  V30 8 C -0.4192 -1.1112 0.9768 0
M  V30 9 C -4.4395 0.4668 1.5633 0
M  V30 10 Cl -6.5473 2.0572 0.847 0
M  V30 11 C 0.9473 -1.3959 0.4538 0
M  V30 12 O 1.1274 -2.3661 -0.3315 0
M  V30 13 O 2.0066 -0.5525 0.807 0
M  V30 14 C 3.3258 -0.6874 0.2821 0
M  V30 15 C 3.3888 -0.1524 -1.1511 0
M  V30 16 C 4.8051 -0.2401 -1.7114 0
M  V30 17 H -4.5276 2.521 -1.1451 0
M  V30 18 H -2.7977 -0.7786 2.1303 0
M  V30 19 H -1.0119 -2.0513 1.0081 0
M  V30 20 H -0.3362 -0.6965 2.0044 0
M  V30 21 H -5.0493 0.1519 2.4007 0
M  V30 22 H 3.6453 -1.7521 0.3192 0
M  V30 23 H 4.0163 -0.098 0.9223 0
M  V30 24 H 3.0573 0.9085 -1.1631 0
M  V30 25 H 2.7068 -0.7388 -1.803 0
M  V30 26 H 4.8188 0.1532 -2.7497 0
M  V30 27 H 5.1486 -1.2964 -1.7269 0
M  V30 28 H 5.503 0.3641 -1.0935 0
M  V30 END ATOM
M  V30 BEGIN BOND
M  V30 1 1 1 2
M  V30 2 2 2 3
M  V30 3 1 2 4
M  V30 4 1 3 5
M  V30 5 1 3 6
M  V30 6 2 4 7
M  V30 7 1 5 8
M  V30 8 2 6 9
M  V30 9 1 7 10
M  V30 10 1 8 11
M  V30 11 2 11 12
M  V30 12 1 11 13
M  V30 13 1 13 14
M  V30 14 1 14 15
M  V30 15 1 15 16
M  V30 16 1 7 9
M  V30 17 1 4 17
M  V30 18 1 6 18
M  V30 19 1 8 19
M  V30 20 1 8 20
M  V30 21 1 9 21
M  V30 22 1 14 22
M  V30 23 1 14 23
M  V30 24 1 15 24
M  V30 25 1 15 25
M  V30 26 1 16 26
M  V30 27 1 16 27
M  V30 28 1 16 28
M  V30 END BOND
M  V30 END CTAB
M  END
>  <Structure No>
4302

>  <LogS>
-4.2502

>  <MMFF94 Energy>
39.63

$$$$
Compound 4303
Actelion Java MolfileCreator 2.0

  0  0  0  0  0  0              0 V3000
M  V30 BEGIN CTAB
M  V30 COUNTS 24 24 0 0 0
M  V30 BEGIN ATOM
M  V30 1 O -3.1048 1.9097 1.9894 0
M  V30 2 C -2.8383 1.3891 0.8743 0
M  V30 3 O -2.2963 2.1706 -0.1383 0 CHG=-1
M  V30 4 C -3.0607 -0.0759 0.6545 0
M  V30 5 C -1.9082 -0.9149 1.2202 0
M  V30 6 C -0.6244 -0.6849 0.4635 0
M  V30 7 C -0.3966 -1.3397 -0.7563 0
M  V30 8 C 0.3344 0.2185 0.9475 0
M  V30 9 C 0.7799 -1.1055 -1.4737 0
M  V30 10 C 1.5109 0.4529 0.2295 0
M  V30 11 C 1.7421 -0.2113 -0.9903 0
M  V30 12 O 2.9056 -0.0105 -1.7477 0
M  V30 13 C 3.9634 0.8681 -1.3781 0
M  V30 14 H -4.006 -0.3762 1.1562 0
M  V30 15 H -3.1812 -0.2774 -0.4321 0
M  V30 16 H -1.7715 -0.6876 2.3008 0
M  V30 17 H -2.183 -1.9902 1.1534 0
M  V30 18 H -1.1315 -2.0298 -1.1523 0
M  V30 19 H 0.1692 0.745 1.8797 0
M  V30 20 H 0.9439 -1.6195 -2.4124 0
M  V30 21 H 2.2312 1.1534 0.6294 0
M  V30 22 H 3.5862 1.9101 -1.3042 0
M  V30 23 H 4.4025 0.5507 -0.4087 0
M  V30 24 H 4.754 0.831 -2.1554 0
M  V30 END ATOM
M  V30 BEGIN BOND
M  V30 1 2 1 2
M  V30 2 1 2 3
M  V30 3 1 2 4
M  V30 4 1 4 5
M  V30 5 1 5 6
M  V30 6 2 6 7
M  V30 7 1 6 8
M  V30 8 1 7 9
M  V30 9 2 8 10
M  V30 10 2 9 11
M  V30 11 1 11 12
M  V30 12 1 12 13
M  V30 13 1 10 11
M  V30 14 1 4 14
M  V30 15 1 4 15
M  V30 16 1 5 16
M  V30 17 1 5 17
M  V30 18 1 7 18
M  V30 19 1 8 19
M  V30 20 1 9 20
M  V30 21 1 10 21
M  V30 22 1 13 22
M  V30 23 1 13 23
M  V30 24 1 13 24
M  V30 END BOND
M  V30 END CTAB
M  END
>  <Structure No>
4303

>  <LogS>
-2.2144

>  <MMFF94 Energy>
19.403

$$$$
Compound 4304
Actelion Java MolfileCreator 2.0

  0  0  0  0  0  0              0 V3000
M  V30 BEGIN CTAB
M  V30 COUNTS 38 38 0 0 0
M  V30 BEGIN ATOM
M  V30 1 Cl -1.9432 1.8622 1.3762 0
M  V30 2 C -3.4845 1.5281 0.5999 0
M  V30 3 C -3.5373 0.7595 -0.5742 0
M  V30 4 C -4.6605 2.034 1.1658 0
M  V30 5 O -2.3381 0.2691 -1.1128 0
M  V30 6 C -4.7874 0.505 -1.1728 0
M  V30 7 C -5.8966 1.7774 0.5653 0
M  V30 8 C -2.2456 -0.5414 -2.2808 0
M  V30 9 C -5.9586 1.0133 -0.603 0
M  V30 10 Cl -7.3682 2.4135 1.2776 0
M  V30 11 C -0.8155 -0.8893 -2.526 0
M  V30 12 O -0.3693 -0.9181 -3.7053 0
M  V30 13 O 0.0053 -1.2186 -1.4439 0
M  V30 14 C 1.3857 -1.5346 -1.5918 0
M  V30 15 C 1.9989 -1.8031 -0.2244 0
M  V30 16 O 1.8533 -0.6542 0.5851 0
M  V30 17 C 2.5395 -0.8184 1.8129 0
M  V30 18 C 3.9325 -0.1807 1.7488 0
M  V30 19 C 3.8569 1.325 1.4638 0
M  V30 20 C 5.2481 1.9512 1.4404 0
M  V30 21 H -4.6134 2.6258 2.0717 0
M  V30 22 H -4.8647 -0.0827 -2.0771 0
M  V30 23 H -2.8209 -1.4804 -2.1351 0
M  V30 24 H -2.6529 0.0137 -3.1539 0
M  V30 25 H -6.914 0.8122 -1.0712 0
M  V30 26 H 1.4962 -2.4387 -2.2292 0
M  V30 27 H 1.9166 -0.6843 -2.0736 0
M  V30 28 H 3.0725 -2.0603 -0.3703 0
M  V30 29 H 1.4718 -2.6694 0.2359 0
M  V30 30 H 1.9514 -0.3114 2.6076 0
M  V30 31 H 2.6295 -1.8841 2.1326 0
M  V30 32 H 4.4406 -0.3453 2.7242 0
M  V30 33 H 4.5347 -0.6818 0.9606 0
M  V30 34 H 3.3708 1.4992 0.4793 0
M  V30 35 H 3.2504 1.826 2.2498 0
M  V30 36 H 5.163 3.0384 1.231 0
M  V30 37 H 5.8679 1.4839 0.6457 0
M  V30 38 H 5.7486 1.8171 2.4229 0
M  V30 END ATOM
M  V30 BEGIN BOND
M  V30 1 1 1 2
M  V30 2 2 2 3
M  V30 3 1 2 4
M  V30 4 1 3 5
M  V30 5 1 3 6
M  V30 6 2 4 7
M  V30 7 1 5 8
M  V30 8 2 6 9
M  V30 9 1 7 10
M  V30 10 1 8 11
M  V30 11 2 11 12
M  V30 12 1 11 13
M  V30 13 1 13 14
M  V30 14 1 14 15
M  V30 15 1 15 16
M  V30 16 1 16 17
M  V30 17 1 17 18
M  V30 18 1 18 19
M  V30 19 1 19 20
M  V30 20 1 7 9
M  V30 21 1 4 21
M  V30 22 1 6 22
M  V30 23 1 8 23
M  V30 24 1 8 24
M  V30 25 1 9 25
M  V30 26 1 14 26
M  V30 27 1 14 27
M  V30 28 1 15 28
M  V30 29 1 15 29
M  V30 30 1 17 30
M  V30 31 1 17 31
M  V30 32 1 18 32
M  V30 33 1 18 33
M  V30 34 1 19 34
M  V30 35 1 19 35
M  V30 36 1 20 36
M  V30 37 1 20 37
M  V30 38 1 20 38
M  V30 END BOND
M  V30 END CTAB
M  END
>  <Structure No>
4304

>  <LogS>
-4.4276

>  <MMFF94 Energy>
57.833

$$$$
Compound 4305
Actelion Java MolfileCreator 2.0

  0  0  0  0  0  0              0 V3000
M  V30 BEGIN CTAB
M  V30 COUNTS 23 24 0 0 0
M  V30 BEGIN ATOM
M  V30 1 S -0.407 -0.6513 1.2215 0
M  V30 2 C 0.1854 -0.2632 -0.3232 0
M  V30 3 C -2.0023 -0.5231 0.7195 0
M  V30 4 N -0.8149 -0.0386 -1.2106 0
M  V30 5 N 1.5687 -0.1703 -0.6983 0
M  V30 6 C -2.0305 -0.1848 -0.6241 0
M  V30 7 C -3.1666 -0.7083 1.4607 0
M  V30 8 C 2.6847 -0.3923 0.1787 0
M  V30 9 C -3.2496 -0.0174 -1.2834 0
M  V30 10 C -4.3986 -0.5425 0.8081 0
M  V30 11 O 2.5042 -0.6965 1.3887 0
M  V30 12 N 4.0181 -0.2656 -0.3303 0
M  V30 13 C -4.4402 -0.1985 -0.5579 0
M  V30 14 C 5.1874 -0.4792 0.5131 0
M  V30 15 H 1.7749 0.0794 -1.6914 0
M  V30 16 H -3.1244 -0.9722 2.5094 0
M  V30 17 H -3.2802 0.2468 -2.3326 0
M  V30 18 H -5.3211 -0.6797 1.3571 0
M  V30 19 H 4.1611 -0.0131 -1.334 0
M  V30 20 H -5.3948 -0.073 -1.052 0
M  V30 21 H 5.1813 0.2442 1.3554 0
M  V30 22 H 5.1794 -1.5151 0.9125 0
M  V30 23 H 6.1135 -0.3306 -0.0812 0
M  V30 END ATOM
M  V30 BEGIN BOND
M  V30 1 1 1 2
M  V30 2 1 1 3
M  V30 3 2 2 4
M  V30 4 1 2 5
M  V30 5 2 3 6
M  V30 6 1 3 7
M  V30 7 1 5 8
M  V30 8 1 6 9
M  V30 9 2 7 10
M  V30 10 2 8 11
M  V30 11 1 8 12
M  V30 12 2 9 13
M  V30 13 1 12 14
M  V30 14 1 4 6
M  V30 15 1 10 13
M  V30 16 1 5 15
M  V30 17 1 7 16
M  V30 18 1 9 17
M  V30 19 1 10 18
M  V30 20 1 12 19
M  V30 21 1 13 20
M  V30 22 1 14 21
M  V30 23 1 14 22
M  V30 24 1 14 23
M  V30 END BOND
M  V30 END CTAB
M  END
>  <Structure No>
4305

>  <LogS>
-4.2373

>  <MMFF94 Energy>
-90.254

$$$$
Compound 4306
Actelion Java MolfileCreator 2.0

  0  0  0  0  0  0              0 V3000
M  V30 BEGIN CTAB
M  V30 COUNTS 11 10 0 0 0
M  V30 BEGIN ATOM
M  V30 1 Cl -0.1759 0.2638 -2.1123 0
M  V30 2 C -0.0292 0.0118 -0.3409 0
M  V30 3 N -0.7938 -1.183 0.0347 0 CHG=1
M  V30 4 N -0.5644 1.1888 0.3512 0 CHG=1
M  V30 5 N 1.3855 -0.1671 0.0031 0 CHG=1
M  V30 6 O -0.4328 -1.8806 1.0057 0
M  V30 7 O -2.0541 -1.374 -0.484 0 CHG=-1
M  V30 8 O -1.1031 1.0694 1.4716 0
M  V30 9 O -0.2231 2.4479 -0.087 0 CHG=-1
M  V30 10 O 2.0996 -0.9302 -0.6798 0
M  V30 11 O 1.8584 0.2681 1.2204 0 CHG=-1
M  V30 END ATOM
M  V30 BEGIN BOND
M  V30 1 1 1 2
M  V30 2 1 2 3
M  V30 3 1 2 4
M  V30 4 1 2 5
M  V30 5 2 3 6
M  V30 6 1 3 7
M  V30 7 2 4 8
M  V30 8 1 4 9
M  V30 9 2 5 10
M  V30 10 1 5 11
M  V30 END BOND
M  V30 END CTAB
M  END
>  <Structure No>
4306

>  <LogS>
-1.9259

>  <MMFF94 Energy>
-2.6324

$$$$
Compound 4307
Actelion Java MolfileCreator 2.0

  0  0  0  0  0  0              0 V3000
M  V30 BEGIN CTAB
M  V30 COUNTS 30 30 0 0 0
M  V30 BEGIN ATOM
M  V30 1 O 2.1256 1.4167 -0.0786 0
M  V30 2 C 1.9567 0.0167 -0.0383 0 CFG=2
M  V30 3 C 1.1132 -0.3924 -1.2796 0 CFG=1
M  V30 4 C 1.2365 -0.3928 1.284 0
M  V30 5 C 3.3495 -0.6471 -0.1079 0
M  V30 6 O 1.0687 -1.7912 -1.4404 0
M  V30 7 C -0.32 0.209 -1.2683 0
M  V30 8 C -0.3044 -0.2854 1.2375 0
M  V30 9 C -0.8027 0.6602 0.1316 0 CFG=2
M  V30 10 C -2.319 0.8073 0.1715 0
M  V30 11 C -2.8763 2.0137 0.3646 0
M  V30 12 C -3.2273 -0.3837 -0.012 0
M  V30 13 H 2.6916 1.6867 0.6915 0
M  V30 14 H 1.6279 0.0101 -2.1805 0
M  V30 15 H 1.6174 0.2314 2.1218 0
M  V30 16 H 1.4933 -1.4429 1.5472 0
M  V30 17 H 3.88 -0.3323 -1.032 0
M  V30 18 H 3.2677 -1.7549 -0.106 0
M  V30 19 H 3.9656 -0.3472 0.7668 0
M  V30 20 H 0.5416 -2.1715 -0.6925 0
M  V30 21 H -0.345 1.0965 -1.9387 0
M  V30 22 H -1.0228 -0.5287 -1.7116 0
M  V30 23 H -0.6713 0.0744 2.2241 0
M  V30 24 H -0.7311 -1.2997 1.0872 0
M  V30 25 H -0.3456 1.6544 0.3363 0
M  V30 26 H -2.2677 2.9027 0.4975 0
M  V30 27 H -3.956 2.1288 0.3919 0
M  V30 28 H -3.8938 -0.2165 -0.8846 0
M  V30 29 H -2.6548 -1.3159 -0.1909 0
M  V30 30 H -3.8482 -0.5251 0.8977 0
M  V30 END ATOM
M  V30 BEGIN BOND
M  V30 1 1 1 2
M  V30 2 1 2 3
M  V30 3 1 2 4
M  V30 4 1 2 5
M  V30 5 1 3 6
M  V30 6 1 3 7
M  V30 7 1 4 8
M  V30 8 1 7 9
M  V30 9 1 9 10
M  V30 10 2 10 11
M  V30 11 1 10 12
M  V30 12 1 8 9
M  V30 13 1 1 13
M  V30 14 1 3 14
M  V30 15 1 4 15
M  V30 16 1 4 16
M  V30 17 1 5 17
M  V30 18 1 5 18
M  V30 19 1 5 19
M  V30 20 1 6 20
M  V30 21 1 7 21
M  V30 22 1 7 22
M  V30 23 1 8 23
M  V30 24 1 8 24
M  V30 25 1 9 25
M  V30 26 1 11 26
M  V30 27 1 11 27
M  V30 28 1 12 28
M  V30 29 1 12 29
M  V30 30 1 12 30
M  V30 END BOND
M  V30 BEGIN COLLECTION
M  V30 MDLV30/STEABS ATOMS=(3 2 3 9)
M  V30 END COLLECTION
M  V30 END CTAB
M  END
>  <Structure No>
4307

>  <LogS>
-0.2311

>  <MMFF94 Energy>
45.042

$$$$
Compound 4308
Actelion Java MolfileCreator 2.0

  0  0  0  0  0  0              0 V3000
M  V30 BEGIN CTAB
M  V30 COUNTS 23 22 0 0 0
M  V30 BEGIN ATOM
M  V30 1 S -0.1644 0.9047 -1.1516 0 CFG=2
M  V30 2 S 0.8428 0.9891 0.7116 0
M  V30 3 O 0.1622 2.247 -1.7911 0
M  V30 4 C -1.9126 1.0276 -0.7196 0
M  V30 5 C 1.5759 -0.6771 0.5499 0
M  V30 6 C -2.4057 -0.2934 -0.1286 0
M  V30 7 C 2.7938 -0.6814 -0.3815 0
M  V30 8 C -3.8882 -0.2198 0.2238 0
M  V30 9 C 3.9781 0.0817 0.2099 0
M  V30 10 H -2.0492 1.8509 0.0142 0
M  V30 11 H -2.4886 1.2671 -1.6391 0
M  V30 12 H 0.8106 -1.3854 0.1666 0
M  V30 13 H 1.8759 -1.0313 1.559 0
M  V30 14 H -1.8288 -0.5314 0.791 0
M  V30 15 H -2.2488 -1.1118 -0.8644 0
M  V30 16 H 3.1042 -1.7346 -0.5535 0
M  V30 17 H 2.5259 -0.2438 -1.3666 0
M  V30 18 H -4.2174 -1.1906 0.6506 0
M  V30 19 H -4.0666 0.5778 0.9764 0
M  V30 20 H -4.4911 -0.0087 -0.6849 0
M  V30 21 H 3.728 1.156 0.3365 0
M  V30 22 H 4.2632 -0.348 1.1937 0
M  V30 23 H 4.8479 0.0033 -0.4756 0
M  V30 END ATOM
M  V30 BEGIN BOND
M  V30 1 1 1 2
M  V30 2 2 1 3
M  V30 3 1 1 4
M  V30 4 1 2 5
M  V30 5 1 4 6
M  V30 6 1 5 7
M  V30 7 1 6 8
M  V30 8 1 7 9
M  V30 9 1 4 10
M  V30 10 1 4 11
M  V30 11 1 5 12
M  V30 12 1 5 13
M  V30 13 1 6 14
M  V30 14 1 6 15
M  V30 15 1 7 16
M  V30 16 1 7 17
M  V30 17 1 8 18
M  V30 18 1 8 19
M  V30 19 1 8 20
M  V30 20 1 9 21
M  V30 21 1 9 22
M  V30 22 1 9 23
M  V30 END BOND
M  V30 BEGIN COLLECTION
M  V30 MDLV30/STEABS ATOMS=(1 1)
M  V30 END COLLECTION
M  V30 END CTAB
M  END
>  <Structure No>
4308

>  <LogS>
-0.9199

>  <MMFF94 Energy>
-4.2293

$$$$
Compound 4309
Actelion Java MolfileCreator 2.0

  0  0  0  0  0  0              0 V3000
M  V30 BEGIN CTAB
M  V30 COUNTS 20 20 0 0 0
M  V30 BEGIN ATOM
M  V30 1 O 1.7138 2.449 0.8158 0
M  V30 2 C 0.6369 2.5169 0.1664 0
M  V30 3 O 0.2741 3.7344 -0.3986 0 CHG=-1
M  V30 4 C -0.2467 1.3318 0.0217 0
M  V30 5 C 0.18 0.0275 0.3768 0
M  V30 6 C -1.5473 1.5123 -0.4776 0
M  V30 7 O 1.4924 -0.1833 0.8083 0
M  V30 8 C -0.7168 -1.0659 0.2789 0
M  V30 9 C -2.4166 0.4313 -0.6041 0
M  V30 10 C 2.5319 -0.486 -0.1146 0
M  V30 11 C -0.3345 -2.4386 0.698 0
M  V30 12 C -2.0096 -0.8454 -0.2247 0
M  V30 13 O 0.7147 -2.6466 1.3625 0
M  V30 14 O -1.1481 -3.5203 0.3795 0 CHG=-1
M  V30 15 H -1.9009 2.4952 -0.7633 0
M  V30 16 H -3.4172 0.5864 -0.9871 0
M  V30 17 H 2.2996 -1.4272 -0.6563 0
M  V30 18 H 2.6463 0.3417 -0.8458 0
M  V30 19 H 3.4849 -0.6136 0.4384 0
M  V30 20 H -2.7157 -1.6612 -0.3176 0
M  V30 END ATOM
M  V30 BEGIN BOND
M  V30 1 2 1 2
M  V30 2 1 2 3
M  V30 3 1 2 4
M  V30 4 2 4 5
M  V30 5 1 4 6
M  V30 6 1 5 7
M  V30 7 1 5 8
M  V30 8 2 6 9
M  V30 9 1 7 10
M  V30 10 1 8 11
M  V30 11 2 8 12
M  V30 12 2 11 13
M  V30 13 1 11 14
M  V30 14 1 9 12
M  V30 15 1 6 15
M  V30 16 1 9 16
M  V30 17 1 10 17
M  V30 18 1 10 18
M  V30 19 1 10 19
M  V30 20 1 12 20
M  V30 END BOND
M  V30 END CTAB
M  END
>  <Structure No>
4309

>  <LogS>
-2.2926

>  <MMFF94 Energy>
119.77

$$$$
Compound 4310
Actelion Java MolfileCreator 2.0

  0  0  0  0  0  0              0 V3000
M  V30 BEGIN CTAB
M  V30 COUNTS 23 23 0 0 0
M  V30 BEGIN ATOM
M  V30 1 O 5.2916 -0.4001 0.4801 0
M  V30 2 N 4.4563 0.479 0.1827 0 CHG=1
M  V30 3 O 4.8979 1.762 -0.0472 0 CHG=-1
M  V30 4 C 3.0571 0.1576 0.0792 0
M  V30 5 C 2.6013 -1.1519 0.315 0
M  V30 6 C 2.121 1.1526 -0.2514 0
M  V30 7 C 1.2413 -1.4583 0.2136 0
M  V30 8 C 0.7612 0.8435 -0.3534 0
M  V30 9 C 0.3136 -0.4717 -0.136 0
M  V30 10 O -1.0413 -0.8258 -0.2153 0
M  V30 11 C -1.9936 -0.2074 -1.0362 0
M  V30 12 O -1.6449 0.5284 -1.9991 0
M  V30 13 C -3.4468 -0.4406 -0.7727 0
M  V30 14 C -3.9677 0.5521 0.2594 0
M  V30 15 H 3.2957 -1.9392 0.5791 0
M  V30 16 H 2.4382 2.1731 -0.4229 0
M  V30 17 H 0.9067 -2.4711 0.3998 0
M  V30 18 H 0.0625 1.6394 -0.5715 0
M  V30 19 H -3.5914 -1.4754 -0.395 0
M  V30 20 H -4.025 -0.3319 -1.7158 0
M  V30 21 H -3.4157 0.4385 1.217 0
M  V30 22 H -3.848 1.5927 -0.1117 0
M  V30 23 H -5.0459 0.3631 0.4459 0
M  V30 END ATOM
M  V30 BEGIN BOND
M  V30 1 2 1 2
M  V30 2 1 2 3
M  V30 3 1 2 4
M  V30 4 2 4 5
M  V30 5 1 4 6
M  V30 6 1 5 7
M  V30 7 2 6 8
M  V30 8 2 7 9
M  V30 9 1 9 10
M  V30 10 1 10 11
M  V30 11 2 11 12
M  V30 12 1 11 13
M  V30 13 1 13 14
M  V30 14 1 8 9
M  V30 15 1 5 15
M  V30 16 1 6 16
M  V30 17 1 7 17
M  V30 18 1 8 18
M  V30 19 1 13 19
M  V30 20 1 13 20
M  V30 21 1 14 21
M  V30 22 1 14 22
M  V30 23 1 14 23
M  V30 END BOND
M  V30 END CTAB
M  END
>  <Structure No>
4310

>  <LogS>
-3.8925

>  <MMFF94 Energy>
56.22

$$$$
Compound 4311
Actelion Java MolfileCreator 2.0

  0  0  0  0  0  0              0 V3000
M  V30 BEGIN CTAB
M  V30 COUNTS 29 29 0 0 0
M  V30 BEGIN ATOM
M  V30 1 O 6.1499 1.6743 -0.3187 0
M  V30 2 N 5.5542 0.7772 0.3131 0 CHG=1
M  V30 3 O 6.2415 0.0797 1.2801 0 CHG=-1
M  V30 4 C 4.1732 0.4785 0.0382 0
M  V30 5 C 3.5093 -0.5356 0.7498 0
M  V30 6 C 3.4675 1.1883 -0.95 0
M  V30 7 C 2.1675 -0.8276 0.4859 0
M  V30 8 C 2.1265 0.8938 -1.213 0
M  V30 9 C 1.4614 -0.1015 -0.4897 0
M  V30 10 O 0.1183 -0.3655 -0.7967 0
M  V30 11 C -0.8343 -0.8696 0.0984 0
M  V30 12 O -0.6361 -0.8426 1.3437 0
M  V30 13 C -2.1474 -1.3573 -0.4304 0
M  V30 14 C -3.0502 -0.1984 -0.8817 0
M  V30 15 C -3.4491 0.7667 0.249 0
M  V30 16 C -4.3496 0.1139 1.297 0
M  V30 17 H 4.0292 -1.1101 1.5054 0
M  V30 18 H 3.952 1.9702 -1.5206 0
M  V30 19 H 1.6971 -1.6389 1.0239 0
M  V30 20 H 1.598 1.4487 -1.9779 0
M  V30 21 H -2.6629 -1.9823 0.3291 0
M  V30 22 H -1.9481 -2.0118 -1.3057 0
M  V30 23 H -2.5244 0.3801 -1.6729 0
M  V30 24 H -3.9695 -0.6188 -1.3448 0
M  V30 25 H -2.5452 1.1843 0.7418 0
M  V30 26 H -4.0024 1.6192 -0.2014 0
M  V30 27 H -5.2273 -0.3644 0.813 0
M  V30 28 H -3.7873 -0.6446 1.8799 0
M  V30 29 H -4.7147 0.8889 2.0036 0
M  V30 END ATOM
M  V30 BEGIN BOND
M  V30 1 2 1 2
M  V30 2 1 2 3
M  V30 3 1 2 4
M  V30 4 2 4 5
M  V30 5 1 4 6
M  V30 6 1 5 7
M  V30 7 2 6 8
M  V30 8 2 7 9
M  V30 9 1 9 10
M  V30 10 1 10 11
M  V30 11 2 11 12
M  V30 12 1 11 13
M  V30 13 1 13 14
M  V30 14 1 14 15
M  V30 15 1 15 16
M  V30 16 1 8 9
M  V30 17 1 5 17
M  V30 18 1 6 18
M  V30 19 1 7 19
M  V30 20 1 8 20
M  V30 21 1 13 21
M  V30 22 1 13 22
M  V30 23 1 14 23
M  V30 24 1 14 24
M  V30 25 1 15 25
M  V30 26 1 15 26
M  V30 27 1 16 27
M  V30 28 1 16 28
M  V30 29 1 16 29
M  V30 END BOND
M  V30 END CTAB
M  END
>  <Structure No>
4311

>  <LogS>
-4.3945

>  <MMFF94 Energy>
56.32

$$$$
Compound 4312
Actelion Java MolfileCreator 2.0

  0  0  0  0  0  0              0 V3000
M  V30 BEGIN CTAB
M  V30 COUNTS 26 25 0 0 0
M  V30 BEGIN ATOM
M  V30 1 O 0.078 2.4987 -0.9364 0
M  V30 2 C -0.3333 2.0715 0.1749 0
M  V30 3 O -0.4857 2.9555 1.2356 0 CHG=-1
M  V30 4 C -0.6688 0.6168 0.3545 0 CFG=2
M  V30 5 N 0.5086 -0.1837 0.0037 0
M  V30 6 C -1.8917 0.2014 -0.5078 0
M  V30 7 C 1.5354 -0.5006 0.9543 0
M  V30 8 C -2.2006 -1.2949 -0.3393 0
M  V30 9 C -3.1416 1.0222 -0.147 0
M  V30 10 O 1.4276 -0.1379 2.157 0
M  V30 11 C 2.7725 -1.2233 0.5098 0
M  V30 12 N 3.741 -0.2858 -0.0551 0 CHG=1
M  V30 13 H -0.9292 0.4423 1.4227 0
M  V30 14 H 0.6816 -0.4063 -1.0031 0
M  V30 15 H -1.6585 0.3834 -1.5808 0
M  V30 16 H -2.4142 -1.533 0.7249 0
M  V30 17 H -3.0826 -1.5777 -0.9528 0
M  V30 18 H -1.3446 -1.914 -0.6803 0
M  V30 19 H -4.0094 0.6907 -0.7565 0
M  V30 20 H -3.393 0.9006 0.9285 0
M  V30 21 H -2.9783 2.0995 -0.3588 0
M  V30 22 H 2.5015 -1.9867 -0.2518 0
M  V30 23 H 3.2276 -1.7542 1.3752 0
M  V30 24 H 4.015 0.4232 0.6637 0
M  V30 25 H 3.3311 0.1957 -0.8884 0
M  V30 26 H 4.5931 -0.8127 -0.3535 0
M  V30 END ATOM
M  V30 BEGIN BOND
M  V30 1 2 1 2
M  V30 2 1 2 3
M  V30 3 1 2 4
M  V30 4 1 4 5
M  V30 5 1 4 6
M  V30 6 1 5 7
M  V30 7 1 6 8
M  V30 8 1 6 9
M  V30 9 2 7 10
M  V30 10 1 7 11
M  V30 11 1 11 12
M  V30 12 1 4 13
M  V30 13 1 5 14
M  V30 14 1 6 15
M  V30 15 1 8 16
M  V30 16 1 8 17
M  V30 17 1 8 18
M  V30 18 1 9 19
M  V30 19 1 9 20
M  V30 20 1 9 21
M  V30 21 1 11 22
M  V30 22 1 11 23
M  V30 23 1 12 24
M  V30 24 1 12 25
M  V30 25 1 12 26
M  V30 END BOND
M  V30 BEGIN COLLECTION
M  V30 MDLV30/STEABS ATOMS=(1 4)
M  V30 END COLLECTION
M  V30 END CTAB
M  END
>  <Structure No>
4312

>  <LogS>
0.4579

>  <MMFF94 Energy>
-13.369

$$$$
Compound 4313
Actelion Java MolfileCreator 2.0

  0  0  0  0  0  0              0 V3000
M  V30 BEGIN CTAB
M  V30 COUNTS 36 35 0 0 0
M  V30 BEGIN ATOM
M  V30 1 O 2.6528 -1.872 0.3897 0
M  V30 2 C 2.0485 -0.8013 0.1096 0
M  V30 3 N 2.6202 0.4679 0.4572 0
M  V30 4 C 0.6977 -0.8678 -0.5415 0
M  V30 5 C 3.9017 0.5978 1.1478 0
M  V30 6 C -0.4075 -1.2221 0.4665 0
M  V30 7 C 5.0632 0.5621 0.1522 0
M  V30 8 C -0.5906 -0.1903 1.5986 0
M  V30 9 O 5.1692 -0.6981 -0.4516 0
M  V30 10 C -1.1247 1.1734 1.1321 0
M  V30 11 C -2.5195 1.0699 0.5883 0
M  V30 12 O -3.4925 1.0242 1.3887 0
M  V30 13 N -2.7397 0.9953 -0.8273 0
M  V30 14 C -4.0529 0.7224 -1.4085 0
M  V30 15 C -4.217 -0.7711 -1.6755 0
M  V30 16 O -4.1975 -1.4807 -0.4676 0
M  V30 17 H 2.0752 1.3385 0.2643 0
M  V30 18 H 0.7227 -1.6535 -1.3267 0
M  V30 19 H 0.4677 0.0874 -1.0564 0
M  V30 20 H 3.9255 1.5731 1.6799 0
M  V30 21 H 4.015 -0.2013 1.9119 0
M  V30 22 H -0.1675 -2.206 0.9253 0
M  V30 23 H -1.3652 -1.3537 -0.0798 0
M  V30 24 H 4.8969 1.3259 -0.6374 0
M  V30 25 H 6.012 0.8182 0.676 0
M  V30 26 H 0.3745 -0.0384 2.1272 0
M  V30 27 H -1.2964 -0.6123 2.3476 0
M  V30 28 H 5.5816 -1.3015 0.2207 0
M  V30 29 H -0.4493 1.6269 0.3788 0
M  V30 30 H -1.1358 1.8637 2.0034 0
M  V30 31 H -1.9154 1.0066 -1.4687 0
M  V30 32 H -4.14 1.2697 -2.3712 0
M  V30 33 H -4.8655 1.0865 -0.7438 0
M  V30 34 H -5.1885 -0.9408 -2.1907 0
M  V30 35 H -3.3942 -1.1226 -2.3379 0
M  V30 36 H -4.2683 -2.4398 -0.714 0
M  V30 END ATOM
M  V30 BEGIN BOND
M  V30 1 2 1 2
M  V30 2 1 2 3
M  V30 3 1 2 4
M  V30 4 1 3 5
M  V30 5 1 4 6
M  V30 6 1 5 7
M  V30 7 1 6 8
M  V30 8 1 7 9
M  V30 9 1 8 10
M  V30 10 1 10 11
M  V30 11 2 11 12
M  V30 12 1 11 13
M  V30 13 1 13 14
M  V30 14 1 14 15
M  V30 15 1 15 16
M  V30 16 1 3 17
M  V30 17 1 4 18
M  V30 18 1 4 19
M  V30 19 1 5 20
M  V30 20 1 5 21
M  V30 21 1 6 22
M  V30 22 1 6 23
M  V30 23 1 7 24
M  V30 24 1 7 25
M  V30 25 1 8 26
M  V30 26 1 8 27
M  V30 27 1 9 28
M  V30 28 1 10 29
M  V30 29 1 10 30
M  V30 30 1 13 31
M  V30 31 1 14 32
M  V30 32 1 14 33
M  V30 33 1 15 34
M  V30 34 1 15 35
M  V30 35 1 16 36
M  V30 END BOND
M  V30 END CTAB
M  END
>  <Structure No>
4313

>  <LogS>
0.4121

>  <MMFF94 Energy>
-17.155

$$$$
Compound 4314
Actelion Java MolfileCreator 2.0

  0  0  0  0  0  0              0 V3000
M  V30 BEGIN CTAB
M  V30 COUNTS 23 23 0 0 0
M  V30 BEGIN ATOM
M  V30 1 Cl -3.0451 2.0567 -2.3037 0
M  V30 2 C -2.5781 0.9485 -1.0208 0
M  V30 3 C -3.2664 0.9208 0.2041 0
M  V30 4 C -1.4979 0.0834 -1.2322 0
M  V30 5 Cl -4.6274 1.9911 0.5107 0
M  V30 6 C -2.8663 0.029 1.2055 0
M  V30 7 C -1.0987 -0.8141 -0.2302 0
M  V30 8 C -1.7878 -0.8332 0.9921 0
M  V30 9 C 0.0763 -1.7243 -0.463 0
M  V30 10 O 1.283 -0.9686 -0.5465 0
M  V30 11 C 1.884 -0.3553 0.5582 0
M  V30 12 O 1.388 -0.4832 1.7116 0
M  V30 13 N 3.0721 0.4177 0.3676 0
M  V30 14 C 3.7432 1.0857 1.4754 0
M  V30 15 H -0.9671 0.1109 -2.1761 0
M  V30 16 H -3.3904 0.0045 2.1525 0
M  V30 17 H -1.49 -1.5128 1.7809 0
M  V30 18 H 0.1648 -2.493 0.336 0
M  V30 19 H -0.0714 -2.2638 -1.4223 0
M  V30 20 H 3.4671 0.5079 -0.5951 0
M  V30 21 H 4.0653 0.3357 2.228 0
M  V30 22 H 4.6379 1.6277 1.1027 0
M  V30 23 H 3.053 1.8153 1.9492 0
M  V30 END ATOM
M  V30 BEGIN BOND
M  V30 1 1 1 2
M  V30 2 2 2 3
M  V30 3 1 2 4
M  V30 4 1 3 5
M  V30 5 1 3 6
M  V30 6 2 4 7
M  V30 7 2 6 8
M  V30 8 1 7 9
M  V30 9 1 9 10
M  V30 10 1 10 11
M  V30 11 2 11 12
M  V30 12 1 11 13
M  V30 13 1 13 14
M  V30 14 1 7 8
M  V30 15 1 4 15
M  V30 16 1 6 16
M  V30 17 1 8 17
M  V30 18 1 9 18
M  V30 19 1 9 19
M  V30 20 1 13 20
M  V30 21 1 14 21
M  V30 22 1 14 22
M  V30 23 1 14 23
M  V30 END BOND
M  V30 END CTAB
M  END
>  <Structure No>
4314

>  <LogS>
-3.1389

>  <MMFF94 Energy>
-41.998

$$$$
Compound 4315
Actelion Java MolfileCreator 2.0

  0  0  0  0  0  0              0 V3000
M  V30 BEGIN CTAB
M  V30 COUNTS 25 25 0 0 0
M  V30 BEGIN ATOM
M  V30 1 Cl -0.322 2.9818 -3.8696 0
M  V30 2 C 0.5046 1.5777 -3.2196 0
M  V30 3 C 0.3758 1.2549 -1.8635 0
M  V30 4 C 1.3012 0.7878 -4.0543 0
M  V30 5 C 1.0343 0.1281 -1.3363 0
M  V30 6 C 1.9764 -0.3183 -3.5331 0
M  V30 7 N 0.9392 -0.2138 0.0572 0
M  V30 8 C 1.8502 -0.6427 -2.1789 0
M  V30 9 C -0.2374 -0.0319 0.856 0
M  V30 10 O -1.3389 0.2679 0.3183 0
M  V30 11 O -0.1574 -0.2315 2.2392 0
M  V30 12 C -1.2763 -0.1109 3.117 0 CFG=1
M  V30 13 C -2.1965 -1.2413 2.9183 0
M  V30 14 C -0.7828 -0.091 4.5598 0
M  V30 15 C -2.9507 -2.1673 2.7533 0
M  V30 16 H -0.2138 1.898 -1.2239 0
M  V30 17 H 1.4044 1.0351 -5.1032 0
M  V30 18 H 2.5997 -0.9238 -4.1781 0
M  V30 19 H 1.7459 -0.7073 0.5018 0
M  V30 20 H 2.3803 -1.5016 -1.787 0
M  V30 21 H -1.8156 0.8399 2.9132 0
M  V30 22 H -1.6392 0.0183 5.2599 0
M  V30 23 H -0.096 0.7692 4.7081 0
M  V30 24 H -0.2347 -1.0284 4.7974 0
M  V30 25 H -3.6126 -2.9801 2.6085 0
M  V30 END ATOM
M  V30 BEGIN BOND
M  V30 1 1 1 2
M  V30 2 2 2 3
M  V30 3 1 2 4
M  V30 4 1 3 5
M  V30 5 2 4 6
M  V30 6 1 5 7
M  V30 7 2 5 8
M  V30 8 1 7 9
M  V30 9 2 9 10
M  V30 10 1 9 11
M  V30 11 1 11 12
M  V30 12 1 12 13
M  V30 13 1 12 14
M  V30 14 3 13 15
M  V30 15 1 6 8
M  V30 16 1 3 16
M  V30 17 1 4 17
M  V30 18 1 6 18
M  V30 19 1 7 19
M  V30 20 1 8 20
M  V30 21 1 12 21
M  V30 22 1 14 22
M  V30 23 1 14 23
M  V30 24 1 14 24
M  V30 25 1 15 25
M  V30 END BOND
M  V30 BEGIN COLLECTION
M  V30 MDLV30/STEABS ATOMS=(1 12)
M  V30 END COLLECTION
M  V30 END CTAB
M  END
>  <Structure No>
4315

>  <LogS>
-2.6172

>  <MMFF94 Energy>
-40.828

$$$$
Compound 4316
Actelion Java MolfileCreator 2.0

  0  0  0  0  0  0              0 V3000
M  V30 BEGIN CTAB
M  V30 COUNTS 35 36 0 0 0
M  V30 BEGIN ATOM
M  V30 1 Cl -7.8924 -0.8835 1.3657 0
M  V30 2 C -6.3655 -0.4927 0.5962 0
M  V30 3 C -5.2673 -0.1101 1.3734 0
M  V30 4 C -6.2469 -0.5541 -0.7959 0
M  V30 5 C -4.0501 0.2029 0.7607 0
M  V30 6 C -5.0301 -0.2409 -1.4098 0
M  V30 7 C -3.9199 0.1232 -0.6382 0
M  V30 8 O -2.7213 0.4449 -1.2918 0
M  V30 9 C -1.4338 0.2619 -0.7663 0
M  V30 10 C -1.1318 -0.792 0.1133 0
M  V30 11 C -0.4144 1.1316 -1.1671 0
M  V30 12 C 0.1679 -0.9512 0.6021 0
M  V30 13 C 0.886 0.9732 -0.6795 0
M  V30 14 C 1.1914 -0.0803 0.2004 0
M  V30 15 N 2.5153 -0.2514 0.7358 0
M  V30 16 C 3.7169 0.0758 0.0144 0
M  V30 17 O 3.678 0.1863 -1.242 0
M  V30 18 N 4.9729 0.2466 0.7045 0
M  V30 19 C 6.1907 0.4897 -0.0752 0
M  V30 20 C 5.0299 0.22 2.1693 0
M  V30 21 H -5.3577 -0.0479 2.4504 0
M  V30 22 H -7.0958 -0.8422 -1.4026 0
M  V30 23 H -3.2196 0.525 1.375 0
M  V30 24 H -4.9469 -0.2885 -2.4881 0
M  V30 25 H -1.8947 -1.5004 0.408 0
M  V30 26 H -0.6351 1.9444 -1.8474 0
M  V30 27 H 0.3823 -1.7656 1.2828 0
M  V30 28 H 1.6437 1.6871 -0.9737 0
M  V30 29 H 2.6028 -0.7313 1.6588 0
M  V30 30 H 7.0852 0.5866 0.5753 0
M  V30 31 H 6.0807 1.4279 -0.659 0
M  V30 32 H 6.3631 -0.3568 -0.7727 0
M  V30 33 H 6.0371 0.4949 2.5464 0
M  V30 34 H 4.7931 -0.8004 2.5362 0
M  V30 35 H 4.3008 0.9457 2.5882 0
M  V30 END ATOM
M  V30 BEGIN BOND
M  V30 1 1 1 2
M  V30 2 2 2 3
M  V30 3 1 2 4
M  V30 4 1 3 5
M  V30 5 2 4 6
M  V30 6 2 5 7
M  V30 7 1 7 8
M  V30 8 1 8 9
M  V30 9 2 9 10
M  V30 10 1 9 11
M  V30 11 1 10 12
M  V30 12 2 11 13
M  V30 13 2 12 14
M  V30 14 1 14 15
M  V30 15 1 15 16
M  V30 16 2 16 17
M  V30 17 1 16 18
M  V30 18 1 18 19
M  V30 19 1 18 20
M  V30 20 1 6 7
M  V30 21 1 13 14
M  V30 22 1 3 21
M  V30 23 1 4 22
M  V30 24 1 5 23
M  V30 25 1 6 24
M  V30 26 1 10 25
M  V30 27 1 11 26
M  V30 28 1 12 27
M  V30 29 1 13 28
M  V30 30 1 15 29
M  V30 31 1 19 30
M  V30 32 1 19 31
M  V30 33 1 19 32
M  V30 34 1 20 33
M  V30 35 1 20 34
M  V30 36 1 20 35
M  V30 END BOND
M  V30 END CTAB
M  END
>  <Structure No>
4316

>  <LogS>
-4.8953

>  <MMFF94 Energy>
-22.843

$$$$
Compound 4317
Actelion Java MolfileCreator 2.0

  0  0  0  0  0  0              0 V3000
M  V30 BEGIN CTAB
M  V30 COUNTS 37 38 0 0 0
M  V30 BEGIN ATOM
M  V30 1 O 0.9516 0.3171 0.8723 0
M  V30 2 C 0.9189 -0.0713 -0.3271 0
M  V30 3 N 2.0983 -0.6057 -0.9478 0
M  V30 4 N -0.309 -0.0223 -1.0679 0
M  V30 5 C 3.4179 -0.5197 -0.3829 0
M  V30 6 C -1.58 0.4246 -0.4879 0 CFG=2
M  V30 7 C 4.3347 -1.5574 -0.6151 0
M  V30 8 C 3.8329 0.6097 0.3479 0
M  V30 9 C -2.5095 -0.7981 -0.2308 0 CFG=2
M  V30 10 C -2.2478 1.4373 -1.4316 0
M  V30 11 C 5.6308 -1.4869 -0.0951 0
M  V30 12 C 5.1305 0.6768 0.8655 0
M  V30 13 C -4.0172 -0.427 -0.2784 0
M  V30 14 C -2.1529 -1.4734 1.1014 0
M  V30 15 C -3.5439 2.0116 -0.8238 0
M  V30 16 C 6.0272 -0.3723 0.6482 0
M  V30 17 C -4.2638 1.0311 0.1236 0
M  V30 18 H 1.9736 -1.1666 -1.8207 0
M  V30 19 H -0.3149 -0.4019 -2.0419 0
M  V30 20 H -1.3928 0.9589 0.4712 0
M  V30 21 H 4.0399 -2.4256 -1.1913 0
M  V30 22 H 3.1678 1.4497 0.4972 0
M  V30 23 H -2.3374 -1.5508 -1.0332 0
M  V30 24 H -1.5447 2.271 -1.6487 0
M  V30 25 H -2.4846 0.937 -2.3971 0
M  V30 26 H 6.3286 -2.2955 -0.2704 0
M  V30 27 H 5.4438 1.5472 1.4277 0
M  V30 28 H -4.3965 -0.573 -1.3143 0
M  V30 29 H -4.6169 -1.097 0.376 0
M  V30 30 H -2.3438 -0.7853 1.9528 0
M  V30 31 H -2.7605 -2.3929 1.2407 0
M  V30 32 H -1.0825 -1.7684 1.1096 0
M  V30 33 H -3.307 2.9401 -0.2596 0
M  V30 34 H -4.2296 2.2947 -1.6521 0
M  V30 35 H 7.0314 -0.3176 1.0483 0
M  V30 36 H -3.903 1.1856 1.1643 0
M  V30 37 H -5.3553 1.2409 0.1137 0
M  V30 END ATOM
M  V30 BEGIN BOND
M  V30 1 2 1 2
M  V30 2 1 2 3
M  V30 3 1 2 4
M  V30 4 1 3 5
M  V30 5 1 4 6
M  V30 6 2 5 7
M  V30 7 1 5 8
M  V30 8 1 6 9
M  V30 9 1 6 10
M  V30 10 1 7 11
M  V30 11 2 8 12
M  V30 12 1 9 13
M  V30 13 1 9 14
M  V30 14 1 10 15
M  V30 15 2 11 16
M  V30 16 1 13 17
M  V30 17 1 12 16
M  V30 18 1 15 17
M  V30 19 1 3 18
M  V30 20 1 4 19
M  V30 21 1 6 20
M  V30 22 1 7 21
M  V30 23 1 8 22
M  V30 24 1 9 23
M  V30 25 1 10 24
M  V30 26 1 10 25
M  V30 27 1 11 26
M  V30 28 1 12 27
M  V30 29 1 13 28
M  V30 30 1 13 29
M  V30 31 1 14 30
M  V30 32 1 14 31
M  V30 33 1 14 32
M  V30 34 1 15 33
M  V30 35 1 15 34
M  V30 36 1 16 35
M  V30 37 1 17 36
M  V30 38 1 17 37
M  V30 END BOND
M  V30 BEGIN COLLECTION
M  V30 MDLV30/STEABS ATOMS=(2 6 9)
M  V30 END COLLECTION
M  V30 END CTAB
M  END
>  <Structure No>
4317

>  <LogS>
-4.1108

>  <MMFF94 Energy>
-54.153

$$$$
Compound 4318
Actelion Java MolfileCreator 2.0

  0  0  0  0  0  0              0 V3000
M  V30 BEGIN CTAB
M  V30 COUNTS 16 16 0 0 0
M  V30 BEGIN ATOM
M  V30 1 Cl 0.6669 2.9203 -0.3334 0
M  V30 2 C 0.8458 1.188 -0.0662 0
M  V30 3 C 2.1231 0.5994 -0.0338 0
M  V30 4 C -0.3009 0.3947 0.1149 0
M  V30 5 Cl 3.5785 1.5618 -0.2566 0
M  V30 6 C 2.2514 -0.7764 0.179 0
M  V30 7 O -1.5619 1.0116 0.0772 0
M  V30 8 C -0.1541 -0.9901 0.3283 0
M  V30 9 C 1.1165 -1.5679 0.3593 0
M  V30 10 C -2.7999 0.3284 0.2454 0
M  V30 11 H 3.2321 -1.2344 0.2048 0
M  V30 12 H -1.0153 -1.6283 0.4711 0
M  V30 13 H 1.2219 -2.6325 0.5237 0
M  V30 14 H -2.8389 -0.1503 1.2467 0
M  V30 15 H -2.9251 -0.4362 -0.5499 0
M  V30 16 H -3.6306 1.0594 0.169 0
M  V30 END ATOM
M  V30 BEGIN BOND
M  V30 1 1 1 2
M  V30 2 2 2 3
M  V30 3 1 2 4
M  V30 4 1 3 5
M  V30 5 1 3 6
M  V30 6 1 4 7
M  V30 7 2 4 8
M  V30 8 2 6 9
M  V30 9 1 7 10
M  V30 10 1 8 9
M  V30 11 1 6 11
M  V30 12 1 8 12
M  V30 13 1 9 13
M  V30 14 1 10 14
M  V30 15 1 10 15
M  V30 16 1 10 16
M  V30 END BOND
M  V30 END CTAB
M  END
>  <Structure No>
4318

>  <LogS>
-3.309

>  <MMFF94 Energy>
41.185

$$$$
Compound 4319
Actelion Java MolfileCreator 2.0

  0  0  0  0  0  0              0 V3000
M  V30 BEGIN CTAB
M  V30 COUNTS 16 16 0 0 0
M  V30 BEGIN ATOM
M  V30 1 Cl -0.4996 -2.8335 -0.2497 0
M  V30 2 C 0.369 -1.3091 -0.1601 0
M  V30 3 C -0.2782 -0.0982 -0.457 0
M  V30 4 C 1.7179 -1.3081 0.2124 0
M  V30 5 O -1.6239 -0.1 -0.828 0
M  V30 6 C 0.439 1.109 -0.3927 0
M  V30 7 C 2.4249 -0.1052 0.2843 0
M  V30 8 C -2.6542 0.1206 0.1264 0
M  V30 9 Cl -0.3315 2.6361 -0.7949 0
M  V30 10 C 1.7879 1.1007 -0.0194 0
M  V30 11 H 2.2192 -2.2388 0.4451 0
M  V30 12 H 3.4682 -0.1078 0.5719 0
M  V30 13 H -3.6384 0.0795 -0.3833 0
M  V30 14 H -2.5338 1.1185 0.5978 0
M  V30 15 H -2.6204 -0.6657 0.9097 0
M  V30 16 H 2.3444 2.0279 0.0317 0
M  V30 END ATOM
M  V30 BEGIN BOND
M  V30 1 1 1 2
M  V30 2 2 2 3
M  V30 3 1 2 4
M  V30 4 1 3 5
M  V30 5 1 3 6
M  V30 6 2 4 7
M  V30 7 1 5 8
M  V30 8 1 6 9
M  V30 9 2 6 10
M  V30 10 1 7 10
M  V30 11 1 4 11
M  V30 12 1 7 12
M  V30 13 1 8 13
M  V30 14 1 8 14
M  V30 15 1 8 15
M  V30 16 1 10 16
M  V30 END BOND
M  V30 END CTAB
M  END
>  <Structure No>
4319

>  <LogS>
-3.1019

>  <MMFF94 Energy>
41.554

$$$$
Compound 4320
Actelion Java MolfileCreator 2.0

  0  0  0  0  0  0              0 V3000
M  V30 BEGIN CTAB
M  V30 COUNTS 22 22 0 0 0
M  V30 BEGIN ATOM
M  V30 1 O -1.6747 1.4354 2.8723 0
M  V30 2 N -0.9409 0.7187 2.1606 0 CHG=1
M  V30 3 O 0.2542 0.2755 2.6787 0 CHG=-1
M  V30 4 C -1.4259 0.2097 0.9046 0
M  V30 5 C -0.5466 -0.0634 -0.1755 0
M  V30 6 C -2.8002 -0.0532 0.7563 0
M  V30 7 C -1.0721 -0.6041 -1.3667 0
M  V30 8 C 0.8872 0.309 -0.0998 0
M  V30 9 C -3.2989 -0.5943 -0.4286 0
M  V30 10 C -2.4363 -0.8726 -1.4862 0
M  V30 11 C 1.8541 -0.4168 -0.678 0
M  V30 12 C 3.287 -0.0634 -0.6166 0
M  V30 13 O 4.081 -0.6279 -1.4148 0
M  V30 14 N 3.8062 0.8748 0.3308 0
M  V30 15 H -3.4863 0.1423 1.5707 0
M  V30 16 H -0.4354 -0.7877 -2.2224 0
M  V30 17 H 1.1379 1.2034 0.4522 0
M  V30 18 H -4.3573 -0.799 -0.5265 0
M  V30 19 H -2.8276 -1.2836 -2.4079 0
M  V30 20 H 1.5931 -1.3079 -1.2352 0
M  V30 21 H 3.2329 1.2446 1.1194 0
M  V30 22 H 4.816 1.1382 0.2977 0
M  V30 END ATOM
M  V30 BEGIN BOND
M  V30 1 2 1 2
M  V30 2 1 2 3
M  V30 3 1 2 4
M  V30 4 2 4 5
M  V30 5 1 4 6
M  V30 6 1 5 7
M  V30 7 1 5 8
M  V30 8 2 6 9
M  V30 9 2 7 10
M  V30 10 2 8 11
M  V30 11 1 11 12
M  V30 12 2 12 13
M  V30 13 1 12 14
M  V30 14 1 9 10
M  V30 15 1 6 15
M  V30 16 1 7 16
M  V30 17 1 8 17
M  V30 18 1 9 18
M  V30 19 1 10 19
M  V30 20 1 11 20
M  V30 21 1 14 21
M  V30 22 1 14 22
M  V30 END BOND
M  V30 END CTAB
M  END
>  <Structure No>
4320

>  <LogS>
-1.2837

>  <MMFF94 Energy>
17.495

$$$$
Compound 4321
Actelion Java MolfileCreator 2.0

  0  0  0  0  0  0              0 V3000
M  V30 BEGIN CTAB
M  V30 COUNTS 16 17 0 0 0
M  V30 BEGIN ATOM
M  V30 1 N -1.592 1.1938 0.0795 0
M  V30 2 C -0.9922 -0.0309 -0.0153 0
M  V30 3 C -0.8544 2.3467 0.1776 0
M  V30 4 C 0.3986 -0.0613 -0.0084 0
M  V30 5 C -1.8117 -1.2772 -0.1213 0
M  V30 6 N 0.5123 2.2981 0.1828 0
M  V30 7 N 1.2427 -1.0968 -0.0864 0
M  V30 8 C 1.1082 1.0855 0.0888 0
M  V30 9 C 2.4686 -0.5173 -0.0313 0
M  V30 10 N 2.4287 0.8391 0.0778 0
M  V30 11 H -1.3577 3.3008 0.2512 0
M  V30 12 H -1.5753 -1.8017 -1.0706 0
M  V30 13 H -1.5873 -1.9475 0.7347 0
M  V30 14 H -2.8949 -1.0319 -0.1087 0
M  V30 15 H 1.0176 -2.1129 -0.1698 0
M  V30 16 H 3.392 -1.0797 -0.0706 0
M  V30 END ATOM
M  V30 BEGIN BOND
M  V30 1 2 1 2
M  V30 2 1 1 3
M  V30 3 1 2 4
M  V30 4 1 2 5
M  V30 5 2 3 6
M  V30 6 1 4 7
M  V30 7 2 4 8
M  V30 8 1 7 9
M  V30 9 1 8 10
M  V30 10 1 6 8
M  V30 11 2 9 10
M  V30 12 1 3 11
M  V30 13 1 5 12
M  V30 14 1 5 13
M  V30 15 1 5 14
M  V30 16 1 7 15
M  V30 17 1 9 16
M  V30 END BOND
M  V30 END CTAB
M  END
>  <Structure No>
4321

>  <LogS>
0.1735

>  <MMFF94 Energy>
-28.794

$$$$
Compound 4322
Actelion Java MolfileCreator 2.0

  0  0  0  0  0  0              0 V3000
M  V30 BEGIN CTAB
M  V30 COUNTS 37 36 0 0 0
M  V30 BEGIN ATOM
M  V30 1 S 1.7418 -1.3457 1.5833 0
M  V30 2 C 0.5316 -0.0312 1.3682 0
M  V30 3 C 3.0246 -0.5486 0.5555 0
M  V30 4 O 0.4827 0.8816 2.2356 0
M  V30 5 N -0.3659 -0.0044 0.2363 0
M  V30 6 C 3.7418 0.5521 1.3265 0
M  V30 7 C -1.106 1.2295 -0.0743 0
M  V30 8 C -0.5579 -1.1966 -0.6055 0
M  V30 9 C -0.1745 2.3047 -0.6709 0
M  V30 10 C -1.3909 -2.272 0.1223 0
M  V30 11 C 0.3698 1.8721 -2.0389 0
M  V30 12 C -0.9178 3.6396 -0.7978 0
M  V30 13 C -2.814 -1.7749 0.4099 0
M  V30 14 C -1.4383 -3.5582 -0.7103 0
M  V30 15 H 2.5803 -0.1348 -0.3741 0
M  V30 16 H 3.7647 -1.3234 0.2653 0
M  V30 17 H 4.5697 0.9585 0.7084 0
M  V30 18 H 3.0424 1.3802 1.564 0
M  V30 19 H 4.1659 0.1459 2.2691 0
M  V30 20 H -1.5834 1.6105 0.855 0
M  V30 21 H -1.9372 1.0236 -0.7846 0
M  V30 22 H 0.433 -1.6069 -0.8952 0
M  V30 23 H -1.0621 -0.9252 -1.5594 0
M  V30 24 H 0.6876 2.4613 0.0136 0
M  V30 25 H -0.907 -2.5156 1.0926 0
M  V30 26 H 0.9684 0.9429 -1.9425 0
M  V30 27 H -0.4621 1.6903 -2.7528 0
M  V30 28 H 1.0329 2.6606 -2.4542 0
M  V30 29 H -1.2729 3.9769 0.1993 0
M  V30 30 H -0.2388 4.4205 -1.2021 0
M  V30 31 H -1.793 3.5386 -1.4754 0
M  V30 32 H -3.3276 -1.4871 -0.5325 0
M  V30 33 H -3.4048 -2.5711 0.9111 0
M  V30 34 H -2.787 -0.8967 1.0887 0
M  V30 35 H -0.4097 -3.9412 -0.882 0
M  V30 36 H -2.0115 -4.3433 -0.1722 0
M  V30 37 H -1.9212 -3.3714 -1.6937 0
M  V30 END ATOM
M  V30 BEGIN BOND
M  V30 1 1 1 2
M  V30 2 1 1 3
M  V30 3 2 2 4
M  V30 4 1 2 5
M  V30 5 1 3 6
M  V30 6 1 5 7
M  V30 7 1 5 8
M  V30 8 1 7 9
M  V30 9 1 8 10
M  V30 10 1 9 11
M  V30 11 1 9 12
M  V30 12 1 10 13
M  V30 13 1 10 14
M  V30 14 1 3 15
M  V30 15 1 3 16
M  V30 16 1 6 17
M  V30 17 1 6 18
M  V30 18 1 6 19
M  V30 19 1 7 20
M  V30 20 1 7 21
M  V30 21 1 8 22
M  V30 22 1 8 23
M  V30 23 1 9 24
M  V30 24 1 10 25
M  V30 25 1 11 26
M  V30 26 1 11 27
M  V30 27 1 11 28
M  V30 28 1 12 29
M  V30 29 1 12 30
M  V30 30 1 12 31
M  V30 31 1 13 32
M  V30 32 1 13 33
M  V30 33 1 13 34
M  V30 34 1 14 35
M  V30 35 1 14 36
M  V30 36 1 14 37
M  V30 END BOND
M  V30 END CTAB
M  END
>  <Structure No>
4322

>  <LogS>
-3.684

>  <MMFF94 Energy>
-35.79

$$$$
Compound 4323
Actelion Java MolfileCreator 2.0

  0  0  0  0  0  0              0 V3000
M  V30 BEGIN CTAB
M  V30 COUNTS 21 22 0 0 0
M  V30 BEGIN ATOM
M  V30 1 S 0.9766 1.1394 -2.6058 0
M  V30 2 C 1.5652 0.8159 -1.1115 0
M  V30 3 N 0.8294 0.133 -0.1029 0
M  V30 4 N 2.9596 0.8332 -0.8294 0
M  V30 5 C -0.5937 -0.0498 -0.0039 0
M  V30 6 C 1.8143 -0.2598 0.8482 0
M  V30 7 C 3.1917 0.1496 0.4379 0
M  V30 8 C -1.1213 -1.2712 0.4468 0
M  V30 9 C -1.4724 0.9932 -0.3425 0
M  V30 10 O 1.5452 -0.8501 1.9279 0
M  V30 11 C -2.5048 -1.4481 0.5482 0
M  V30 12 C -2.8552 0.8129 -0.2392 0
M  V30 13 C -3.3712 -0.4071 0.2048 0
M  V30 14 H 3.7046 1.1955 -1.4649 0
M  V30 15 H 3.6353 0.8487 1.1776 0
M  V30 16 H 3.8353 -0.7414 0.283 0
M  V30 17 H -0.4635 -2.0915 0.7028 0
M  V30 18 H -1.0877 1.9507 -0.6682 0
M  V30 19 H -2.9052 -2.3935 0.8907 0
M  V30 20 H -3.5267 1.621 -0.4991 0
M  V30 21 H -4.4417 -0.5452 0.2844 0
M  V30 END ATOM
M  V30 BEGIN BOND
M  V30 1 2 1 2
M  V30 2 1 2 3
M  V30 3 1 2 4
M  V30 4 1 3 5
M  V30 5 1 3 6
M  V30 6 1 4 7
M  V30 7 2 5 8
M  V30 8 1 5 9
M  V30 9 2 6 10
M  V30 10 1 8 11
M  V30 11 2 9 12
M  V30 12 2 11 13
M  V30 13 1 6 7
M  V30 14 1 12 13
M  V30 15 1 4 14
M  V30 16 1 7 15
M  V30 17 1 7 16
M  V30 18 1 8 17
M  V30 19 1 9 18
M  V30 20 1 11 19
M  V30 21 1 12 20
M  V30 22 1 13 21
M  V30 END BOND
M  V30 END CTAB
M  END
>  <Structure No>
4323

>  <LogS>
-3.2425

>  <MMFF94 Energy>
15.337

$$$$
Compound 4324
Actelion Java MolfileCreator 2.0

  0  0  0  0  0  0              0 V3000
M  V30 BEGIN CTAB
M  V30 COUNTS 35 34 0 0 0
M  V30 BEGIN ATOM
M  V30 1 N 5.4618 0.691 0.307 0 CHG=1
M  V30 2 C 5.0006 0.0958 -0.9486 0
M  V30 3 C 3.5295 0.4324 -1.2442 0
M  V30 4 C 2.5607 -0.2494 -0.2673 0
M  V30 5 C 1.1037 -0.0018 -0.6765 0
M  V30 6 C 0.1341 -0.6718 0.3045 0
M  V30 7 C -1.3227 -0.4262 -0.1058 0
M  V30 8 C -2.292 -1.0887 0.8846 0
M  V30 9 C -3.7593 -0.979 0.4406 0
M  V30 10 C -4.308 0.4502 0.5604 0
M  V30 11 C -5.7995 0.4945 0.2404 0
M  V30 12 H 6.4959 0.5579 0.3858 0
M  V30 13 H 5.2535 1.7158 0.3238 0
M  V30 14 H 5.0075 0.2202 1.1218 0
M  V30 15 H 5.6231 0.4863 -1.7839 0
M  V30 16 H 5.1396 -1.0075 -0.9161 0
M  V30 17 H 3.3835 1.5344 -1.2136 0
M  V30 18 H 3.3009 0.0902 -2.2774 0
M  V30 19 H 2.7572 -1.3442 -0.2547 0
M  V30 20 H 2.719 0.1524 0.7563 0
M  V30 21 H 0.9332 -0.4098 -1.6972 0
M  V30 22 H 0.9088 1.0932 -0.6964 0
M  V30 23 H 0.3314 -1.7665 0.3254 0
M  V30 24 H 0.302 -0.2628 1.3254 0
M  V30 25 H -1.5074 0.6688 -0.1339 0
M  V30 26 H -1.4919 -0.8417 -1.1235 0
M  V30 27 H -2.0392 -2.1688 0.9653 0
M  V30 28 H -2.1692 -0.6382 1.894 0
M  V30 29 H -3.8644 -1.3389 -0.6064 0
M  V30 30 H -4.364 -1.6504 1.0893 0
M  V30 31 H -3.7789 1.123 -0.1468 0
M  V30 32 H -4.1521 0.8292 1.5939 0
M  V30 33 H -6.1672 1.5389 0.3248 0
M  V30 34 H -6.3671 -0.1397 0.9543 0
M  V30 35 H -5.9825 0.1359 -0.7949 0
M  V30 END ATOM
M  V30 BEGIN BOND
M  V30 1 1 1 2
M  V30 2 1 2 3
M  V30 3 1 3 4
M  V30 4 1 4 5
M  V30 5 1 5 6
M  V30 6 1 6 7
M  V30 7 1 7 8
M  V30 8 1 8 9
M  V30 9 1 9 10
M  V30 10 1 10 11
M  V30 11 1 1 12
M  V30 12 1 1 13
M  V30 13 1 1 14
M  V30 14 1 2 15
M  V30 15 1 2 16
M  V30 16 1 3 17
M  V30 17 1 3 18
M  V30 18 1 4 19
M  V30 19 1 4 20
M  V30 20 1 5 21
M  V30 21 1 5 22
M  V30 22 1 6 23
M  V30 23 1 6 24
M  V30 24 1 7 25
M  V30 25 1 7 26
M  V30 26 1 8 27
M  V30 27 1 8 28
M  V30 28 1 9 29
M  V30 29 1 9 30
M  V30 30 1 10 31
M  V30 31 1 10 32
M  V30 32 1 11 33
M  V30 33 1 11 34
M  V30 34 1 11 35
M  V30 END BOND
M  V30 END CTAB
M  END
>  <Structure No>
4324

>  <LogS>
-2.4564

>  <MMFF94 Energy>
-3.2257

$$$$
Compound 4325
Actelion Java MolfileCreator 2.0

  0  0  0  0  0  0              0 V3000
M  V30 BEGIN CTAB
M  V30 COUNTS 27 27 0 0 0
M  V30 BEGIN ATOM
M  V30 1 O 2.2816 -0.7863 1.5731 0
M  V30 2 C 1.8162 -0.3063 0.5036 0
M  V30 3 O 2.5378 -0.3882 -0.6924 0
M  V30 4 C 0.4531 0.3085 0.4976 0
M  V30 5 C 3.8504 -0.9383 -0.7808 0
M  V30 6 C -0.6048 -0.7398 0.147 0
M  V30 7 C 4.8816 0.037 -0.2255 0
M  V30 8 C -1.9771 -0.1217 0.1323 0
M  V30 9 C -2.7432 -0.068 1.3089 0
M  V30 10 C -2.4813 0.4571 -1.0444 0
M  V30 11 C -4.0048 0.5354 1.3009 0
M  V30 12 C -3.7434 1.0596 -1.0479 0
M  V30 13 C -4.5053 1.0969 0.1229 0
M  V30 14 H 0.238 0.7435 1.4985 0
M  V30 15 H 0.4311 1.1311 -0.2498 0
M  V30 16 H 4.0814 -1.131 -1.8496 0
M  V30 17 H 3.9024 -1.9066 -0.237 0
M  V30 18 H -0.5732 -1.5676 0.8897 0
M  V30 19 H -0.3805 -1.1807 -0.8496 0
M  V30 20 H 5.9007 -0.3839 -0.354 0
M  V30 21 H 4.82 1.0034 -0.7692 0
M  V30 22 H 4.7037 0.2154 0.8553 0
M  V30 23 H -2.363 -0.4912 2.2304 0
M  V30 24 H -1.8972 0.4431 -1.9561 0
M  V30 25 H -4.593 0.5707 2.2088 0
M  V30 26 H -4.1292 1.5006 -1.9578 0
M  V30 27 H -5.4814 1.5646 0.1188 0
M  V30 END ATOM
M  V30 BEGIN BOND
M  V30 1 2 1 2
M  V30 2 1 2 3
M  V30 3 1 2 4
M  V30 4 1 3 5
M  V30 5 1 4 6
M  V30 6 1 5 7
M  V30 7 1 6 8
M  V30 8 2 8 9
M  V30 9 1 8 10
M  V30 10 1 9 11
M  V30 11 2 10 12
M  V30 12 2 11 13
M  V30 13 1 12 13
M  V30 14 1 4 14
M  V30 15 1 4 15
M  V30 16 1 5 16
M  V30 17 1 5 17
M  V30 18 1 6 18
M  V30 19 1 6 19
M  V30 20 1 7 20
M  V30 21 1 7 21
M  V30 22 1 7 22
M  V30 23 1 9 23
M  V30 24 1 10 24
M  V30 25 1 11 25
M  V30 26 1 12 26
M  V30 27 1 13 27
M  V30 END BOND
M  V30 END CTAB
M  END
>  <Structure No>
4325

>  <LogS>
-2.9086

>  <MMFF94 Energy>
3.9284

$$$$
Compound 4326
Actelion Java MolfileCreator 2.0

  0  0  0  0  0  0              0 V3000
M  V30 BEGIN CTAB
M  V30 COUNTS 31 31 0 0 0
M  V30 BEGIN ATOM
M  V30 1 O 3.2157 0.5484 -1.0187 0
M  V30 2 C 3.4545 0.2205 0.176 0
M  V30 3 O 2.4258 0.1691 1.1253 0
M  V30 4 N 4.7968 -0.0483 0.5903 0
M  V30 5 C 1.0537 0.1332 0.8342 0
M  V30 6 C 5.917 0.0061 -0.3401 0
M  V30 7 C 0.5489 -0.4646 -0.3346 0
M  V30 8 C 0.1626 0.6764 1.7639 0
M  V30 9 C -0.8338 -0.4973 -0.5829 0
M  V30 10 C -1.211 0.6667 1.5185 0
M  V30 11 C -1.7192 0.0972 0.3422 0
M  V30 12 C -1.343 -1.1394 -1.8448 0
M  V30 13 N -3.1349 0.119 0.0966 0
M  V30 14 C -3.6788 1.1113 -0.8289 0
M  V30 15 C -4.0384 -0.5082 1.0594 0
M  V30 16 H 4.9771 -0.2955 1.5891 0
M  V30 17 H 6.0021 1.0272 -0.7677 0
M  V30 18 H 5.7625 -0.7281 -1.1586 0
M  V30 19 H 6.8604 -0.2407 0.1907 0
M  V30 20 H 1.2236 -0.9363 -1.0362 0
M  V30 21 H 0.5392 1.1239 2.675 0
M  V30 22 H -1.8822 1.1151 2.2401 0
M  V30 23 H -0.6236 -1.8955 -2.2249 0
M  V30 24 H -2.3068 -1.6589 -1.6603 0
M  V30 25 H -1.4883 -0.3633 -2.6243 0
M  V30 26 H -3.9954 2.0137 -0.2646 0
M  V30 27 H -4.5539 0.6891 -1.3661 0
M  V30 28 H -2.9186 1.4101 -1.5813 0
M  V30 29 H -4.3197 0.2249 1.8444 0
M  V30 30 H -4.9566 -0.8626 0.5451 0
M  V30 31 H -3.5485 -1.3843 1.536 0
M  V30 END ATOM
M  V30 BEGIN BOND
M  V30 1 2 1 2
M  V30 2 1 2 3
M  V30 3 1 2 4
M  V30 4 1 3 5
M  V30 5 1 4 6
M  V30 6 2 5 7
M  V30 7 1 5 8
M  V30 8 1 7 9
M  V30 9 2 8 10
M  V30 10 2 9 11
M  V30 11 1 9 12
M  V30 12 1 11 13
M  V30 13 1 13 14
M  V30 14 1 13 15
M  V30 15 1 10 11
M  V30 16 1 4 16
M  V30 17 1 6 17
M  V30 18 1 6 18
M  V30 19 1 6 19
M  V30 20 1 7 20
M  V30 21 1 8 21
M  V30 22 1 10 22
M  V30 23 1 12 23
M  V30 24 1 12 24
M  V30 25 1 12 25
M  V30 26 1 14 26
M  V30 27 1 14 27
M  V30 28 1 14 28
M  V30 29 1 15 29
M  V30 30 1 15 30
M  V30 31 1 15 31
M  V30 END BOND
M  V30 END CTAB
M  END
>  <Structure No>
4326

>  <LogS>
-2.3572

>  <MMFF94 Energy>
-9.6475

$$$$
Compound 4327
Actelion Java MolfileCreator 2.0

  0  0  0  0  0  0              0 V3000
M  V30 BEGIN CTAB
M  V30 COUNTS 30 30 0 0 0
M  V30 BEGIN ATOM
M  V30 1 S -3.781 -0.8035 0.3213 0
M  V30 2 C -2.004 -0.5007 0.4746 0
M  V30 3 C -4.0534 0.5741 -0.8381 0
M  V30 4 C -1.096 -1.1431 -0.3983 0
M  V30 5 C -1.5141 0.3587 1.4846 0
M  V30 6 C 0.2769 -0.8692 -0.2941 0
M  V30 7 C -1.5744 -2.1188 -1.4414 0
M  V30 8 C -0.137 0.6157 1.5663 0
M  V30 9 C -2.4437 1.0173 2.4701 0
M  V30 10 C 0.7585 0.0261 0.6732 0
M  V30 11 O 2.1243 0.3185 0.8079 0
M  V30 12 C 3.0588 0.3216 -0.2354 0
M  V30 13 O 2.6831 0.3565 -1.4394 0
M  V30 14 N 4.4537 0.3428 0.0806 0
M  V30 15 C 5.4791 0.3659 -0.9546 0
M  V30 16 H -3.7701 1.5373 -0.3668 0
M  V30 17 H -5.1285 0.611 -1.1088 0
M  V30 18 H -3.4568 0.4261 -1.7611 0
M  V30 19 H 0.9718 -1.3802 -0.947 0
M  V30 20 H -2.1712 -1.5872 -2.2107 0
M  V30 21 H -2.2001 -2.9041 -0.9677 0
M  V30 22 H -0.7266 -2.6246 -1.9506 0
M  V30 23 H 0.248 1.2856 2.3259 0
M  V30 24 H -3.0946 0.255 2.9474 0
M  V30 25 H -3.0747 1.7674 1.9509 0
M  V30 26 H -1.884 1.5348 3.2782 0
M  V30 27 H 4.7443 0.3368 1.0841 0
M  V30 28 H 5.3878 -0.5363 -1.5951 0
M  V30 29 H 5.3645 1.2777 -1.5778 0
M  V30 30 H 6.4864 0.3746 -0.4873 0
M  V30 END ATOM
M  V30 BEGIN BOND
M  V30 1 1 1 2
M  V30 2 1 1 3
M  V30 3 2 2 4
M  V30 4 1 2 5
M  V30 5 1 4 6
M  V30 6 1 4 7
M  V30 7 2 5 8
M  V30 8 1 5 9
M  V30 9 2 6 10
M  V30 10 1 10 11
M  V30 11 1 11 12
M  V30 12 2 12 13
M  V30 13 1 12 14
M  V30 14 1 14 15
M  V30 15 1 8 10
M  V30 16 1 3 16
M  V30 17 1 3 17
M  V30 18 1 3 18
M  V30 19 1 6 19
M  V30 20 1 7 20
M  V30 21 1 7 21
M  V30 22 1 7 22
M  V30 23 1 8 23
M  V30 24 1 9 24
M  V30 25 1 9 25
M  V30 26 1 9 26
M  V30 27 1 14 27
M  V30 28 1 15 28
M  V30 29 1 15 29
M  V30 30 1 15 30
M  V30 END BOND
M  V30 END CTAB
M  END
>  <Structure No>
4327

>  <LogS>
-3.9214

>  <MMFF94 Energy>
-11.174

$$$$
Compound 4328
Actelion Java MolfileCreator 2.0

  0  0  0  0  0  0              0 V3000
M  V30 BEGIN CTAB
M  V30 COUNTS 24 24 0 0 0
M  V30 BEGIN ATOM
M  V30 1 C -0.3127 0.3127 0.3127 0
M  V30 2 C -1.3543 1.2755 -0.2426 0
M  V30 3 C -0.9397 -1.0689 0.1413 0
M  V30 4 C 1.0481 0.4619 -0.3952 0
M  V30 5 C -2.6999 0.6397 0.0739 0
M  V30 6 C -2.4475 -0.8581 0.2389 0
M  V30 7 C 2.1293 -0.4136 0.2527 0
M  V30 8 C 3.4821 -0.2076 -0.4223 0
M  V30 9 H -0.1896 0.5213 1.4006 0
M  V30 10 H -1.2482 1.3719 -1.3467 0
M  V30 11 H -1.2628 2.2818 0.2214 0
M  V30 12 H -0.6938 -1.4895 -0.8592 0
M  V30 13 H -0.5823 -1.7703 0.9265 0
M  V30 14 H 1.3647 1.5267 -0.3332 0
M  V30 15 H 0.9487 0.1975 -1.4715 0
M  V30 16 H -3.431 0.8366 -0.7403 0
M  V30 17 H -3.0982 1.0609 1.0235 0
M  V30 18 H -2.9716 -1.4348 -0.5545 0
M  V30 19 H -2.818 -1.199 1.2309 0
M  V30 20 H 2.2233 -0.1581 1.3307 0
M  V30 21 H 1.8498 -1.4858 0.1679 0
M  V30 22 H 4.2424 -0.8547 0.0635 0
M  V30 23 H 3.8041 0.8512 -0.327 0
M  V30 24 H 3.421 -0.4774 -1.4982 0
M  V30 END ATOM
M  V30 BEGIN BOND
M  V30 1 1 1 2
M  V30 2 1 1 3
M  V30 3 1 1 4
M  V30 4 1 2 5
M  V30 5 1 3 6
M  V30 6 1 4 7
M  V30 7 1 7 8
M  V30 8 1 5 6
M  V30 9 1 1 9
M  V30 10 1 2 10
M  V30 11 1 2 11
M  V30 12 1 3 12
M  V30 13 1 3 13
M  V30 14 1 4 14
M  V30 15 1 4 15
M  V30 16 1 5 16
M  V30 17 1 5 17
M  V30 18 1 6 18
M  V30 19 1 6 19
M  V30 20 1 7 20
M  V30 21 1 7 21
M  V30 22 1 8 22
M  V30 23 1 8 23
M  V30 24 1 8 24
M  V30 END BOND
M  V30 END CTAB
M  END
>  <Structure No>
4328

>  <LogS>
-4.7404

>  <MMFF94 Energy>
5.4439

$$$$
Compound 4329
Actelion Java MolfileCreator 2.0

  0  0  0  0  0  0              0 V3000
M  V30 BEGIN CTAB
M  V30 COUNTS 13 12 0 0 0
M  V30 BEGIN ATOM
M  V30 1 O 0.9925 1.3744 1.1452 0
M  V30 2 C 0.8596 0.471 0.2762 0
M  V30 3 N 1.9861 -0.326 -0.0896 0
M  V30 4 C -0.4915 0.2016 -0.329 0 CFG=2
M  V30 5 O -1.1954 1.4037 -0.503 0
M  V30 6 C -1.2952 -0.7254 0.5784 0
M  V30 7 H 1.8899 -1.0993 -0.7846 0
M  V30 8 H 2.92 -0.1472 0.3418 0
M  V30 9 H -0.3657 -0.3023 -1.3152 0
M  V30 10 H -0.781 1.8677 -1.2771 0
M  V30 11 H -0.7603 -1.6901 0.7132 0
M  V30 12 H -2.2856 -0.9335 0.1203 0
M  V30 13 H -1.4544 -0.2555 1.5731 0
M  V30 END ATOM
M  V30 BEGIN BOND
M  V30 1 2 1 2
M  V30 2 1 2 3
M  V30 3 1 2 4
M  V30 4 1 4 5
M  V30 5 1 4 6
M  V30 6 1 3 7
M  V30 7 1 3 8
M  V30 8 1 4 9
M  V30 9 1 5 10
M  V30 10 1 6 11
M  V30 11 1 6 12
M  V30 12 1 6 13
M  V30 END BOND
M  V30 BEGIN COLLECTION
M  V30 MDLV30/STEABS ATOMS=(1 4)
M  V30 END COLLECTION
M  V30 END CTAB
M  END
>  <Structure No>
4329

>  <LogS>
0.9435

>  <MMFF94 Energy>
5.1592

$$$$
Compound 4330
Actelion Java MolfileCreator 2.0

  0  0  0  0  0  0              0 V3000
M  V30 BEGIN CTAB
M  V30 COUNTS 35 34 0 0 0
M  V30 BEGIN ATOM
M  V30 1 O 3.684 -0.8612 -1.488 0
M  V30 2 C 3.0327 -0.9335 -0.4102 0
M  V30 3 O 3.6652 -1.2843 0.7877 0
M  V30 4 C 1.5753 -0.5986 -0.3996 0
M  V30 5 C 5.0663 -1.5275 0.8931 0
M  V30 6 C 1.3744 0.8912 -0.0947 0
M  V30 7 C 5.8419 -0.2155 0.8735 0
M  V30 8 C -0.1068 1.2665 0.0666 0
M  V30 9 C -0.8749 1.2294 -1.2659 0
M  V30 10 C -2.3026 1.7728 -1.1253 0
M  V30 11 C -3.1533 0.876 -0.2799 0
M  V30 12 O -3.4243 1.2058 0.907 0
M  V30 13 O -3.6053 -0.3388 -0.8071 0
M  V30 14 C -4.43 -1.2498 -0.0837 0
M  V30 15 C -5.8673 -0.7456 -0.0256 0
M  V30 16 H 1.0696 -1.2154 0.3742 0
M  V30 17 H 1.1387 -0.8531 -1.3884 0
M  V30 18 H 5.4079 -2.191 0.0691 0
M  V30 19 H 5.2638 -2.044 1.8559 0
M  V30 20 H 1.8955 1.1359 0.8574 0
M  V30 21 H 1.8349 1.508 -0.8977 0
M  V30 22 H 6.9243 -0.4196 1.0132 0
M  V30 23 H 5.4908 0.4441 1.6951 0
M  V30 24 H 5.6995 0.3045 -0.0964 0
M  V30 25 H -0.5847 0.5847 0.8034 0
M  V30 26 H -0.1561 2.2974 0.4805 0
M  V30 27 H -0.3386 1.854 -2.0131 0
M  V30 28 H -0.9182 0.1908 -1.6576 0
M  V30 29 H -2.2808 2.799 -0.6972 0
M  V30 30 H -2.7615 1.8427 -2.1346 0
M  V30 31 H -4.4167 -2.2293 -0.6061 0
M  V30 32 H -4.0318 -1.4014 0.9431 0
M  V30 33 H -5.9197 0.2127 0.5317 0
M  V30 34 H -6.5045 -1.4936 0.4912 0
M  V30 35 H -6.256 -0.5906 -1.0541 0
M  V30 END ATOM
M  V30 BEGIN BOND
M  V30 1 2 1 2
M  V30 2 1 2 3
M  V30 3 1 2 4
M  V30 4 1 3 5
M  V30 5 1 4 6
M  V30 6 1 5 7
M  V30 7 1 6 8
M  V30 8 1 8 9
M  V30 9 1 9 10
M  V30 10 1 10 11
M  V30 11 2 11 12
M  V30 12 1 11 13
M  V30 13 1 13 14
M  V30 14 1 14 15
M  V30 15 1 4 16
M  V30 16 1 4 17
M  V30 17 1 5 18
M  V30 18 1 5 19
M  V30 19 1 6 20
M  V30 20 1 6 21
M  V30 21 1 7 22
M  V30 22 1 7 23
M  V30 23 1 7 24
M  V30 24 1 8 25
M  V30 25 1 8 26
M  V30 26 1 9 27
M  V30 27 1 9 28
M  V30 28 1 10 29
M  V30 29 1 10 30
M  V30 30 1 14 31
M  V30 31 1 14 32
M  V30 32 1 15 33
M  V30 33 1 15 34
M  V30 34 1 15 35
M  V30 END BOND
M  V30 END CTAB
M  END
>  <Structure No>
4330

>  <LogS>
-2.0408

>  <MMFF94 Energy>
-19.76

$$$$
Compound 4331
Actelion Java MolfileCreator 2.0

  0  0  0  0  0  0              0 V3000
M  V30 BEGIN CTAB
M  V30 COUNTS 38 37 0 0 0
M  V30 BEGIN ATOM
M  V30 1 O -3.6844 1.2531 -1.3314 0
M  V30 2 C -3.5725 0.7617 -0.1751 0
M  V30 3 O -4.5935 -0.0234 0.3721 0
M  V30 4 C -2.3117 0.9713 0.6011 0
M  V30 5 C -5.8366 -0.2633 -0.2845 0
M  V30 6 C -1.3268 -0.1718 0.3407 0
M  V30 7 C -6.7359 0.9644 -0.2001 0
M  V30 8 C -0.0225 0.0373 1.1234 0
M  V30 9 C 0.9303 -1.168 1.0343 0
M  V30 10 C 1.4116 -1.5154 -0.3891 0
M  V30 11 C 2.1597 -0.3797 -1.1039 0
M  V30 12 C 3.393 0.03 -0.3606 0
M  V30 13 O 3.4013 1.1091 0.2924 0
M  V30 14 O 4.5114 -0.8108 -0.3692 0
M  V30 15 C 5.7339 -0.4974 0.2946 0
M  V30 16 C 6.519 0.5484 -0.4882 0
M  V30 17 H -2.5589 1.0181 1.6839 0
M  V30 18 H -1.8524 1.9408 0.3077 0
M  V30 19 H -5.6659 -0.5453 -1.3462 0
M  V30 20 H -6.3443 -1.1122 0.2197 0
M  V30 21 H -1.7925 -1.135 0.646 0
M  V30 22 H -1.1058 -0.2109 -0.7476 0
M  V30 23 H -7.7183 0.7401 -0.6664 0
M  V30 24 H -6.8971 1.2435 0.8625 0
M  V30 25 H -6.2746 1.8202 -0.7356 0
M  V30 26 H -0.269 0.1911 2.197 0
M  V30 27 H 0.4878 0.9594 0.7737 0
M  V30 28 H 1.8129 -0.9705 1.6801 0
M  V30 29 H 0.4195 -2.0595 1.4593 0
M  V30 30 H 0.5468 -1.8277 -1.0115 0
M  V30 31 H 2.084 -2.3987 -0.3234 0
M  V30 32 H 1.4904 0.4928 -1.2587 0
M  V30 33 H 2.4623 -0.735 -2.1119 0
M  V30 34 H 5.5329 -0.137 1.327 0
M  V30 35 H 6.3444 -1.422 0.3655 0
M  V30 36 H 7.4914 0.7377 0.0132 0
M  V30 37 H 6.7106 0.1844 -1.5197 0
M  V30 38 H 5.9525 1.5016 -0.5377 0
M  V30 END ATOM
M  V30 BEGIN BOND
M  V30 1 2 1 2
M  V30 2 1 2 3
M  V30 3 1 2 4
M  V30 4 1 3 5
M  V30 5 1 4 6
M  V30 6 1 5 7
M  V30 7 1 6 8
M  V30 8 1 8 9
M  V30 9 1 9 10
M  V30 10 1 10 11
M  V30 11 1 11 12
M  V30 12 2 12 13
M  V30 13 1 12 14
M  V30 14 1 14 15
M  V30 15 1 15 16
M  V30 16 1 4 17
M  V30 17 1 4 18
M  V30 18 1 5 19
M  V30 19 1 5 20
M  V30 20 1 6 21
M  V30 21 1 6 22
M  V30 22 1 7 23
M  V30 23 1 7 24
M  V30 24 1 7 25
M  V30 25 1 8 26
M  V30 26 1 8 27
M  V30 27 1 9 28
M  V30 28 1 9 29
M  V30 29 1 10 30
M  V30 30 1 10 31
M  V30 31 1 11 32
M  V30 32 1 11 33
M  V30 33 1 15 34
M  V30 34 1 15 35
M  V30 35 1 16 36
M  V30 36 1 16 37
M  V30 37 1 16 38
M  V30 END BOND
M  V30 END CTAB
M  END
>  <Structure No>
4331

>  <LogS>
-2.5304

>  <MMFF94 Energy>
-19.688

$$$$
Compound 4332
Actelion Java MolfileCreator 2.0

  0  0  0  0  0  0              0 V3000
M  V30 BEGIN CTAB
M  V30 COUNTS 18 19 0 0 0
M  V30 BEGIN ATOM
M  V30 1 Cl 1.5084 3.0185 0.2512 0
M  V30 2 C 1.2932 1.2696 0.1075 0
M  V30 3 C 2.4299 0.4394 0.0843 0
M  V30 4 C 0.0033 0.6931 0.016 0
M  V30 5 Cl 4.0543 1.1076 0.1953 0
M  V30 6 C 2.2877 -0.9458 -0.0283 0
M  V30 7 C -0.1237 -0.7167 -0.0981 0
M  V30 8 C -1.166 1.481 0.0348 0
M  V30 9 C 1.0219 -1.5222 -0.119 0
M  V30 10 C -1.3968 -1.3016 -0.1896 0
M  V30 11 C -2.4257 0.8831 -0.0572 0
M  V30 12 C -2.5409 -0.5025 -0.1691 0
M  V30 13 H 3.1639 -1.5814 -0.0458 0
M  V30 14 H -1.1206 2.5583 0.1202 0
M  V30 15 H 0.9388 -2.5991 -0.2056 0
M  V30 16 H -1.5064 -2.3761 -0.2771 0
M  V30 17 H -3.3168 1.4976 -0.0417 0
M  V30 18 H -3.5198 -0.9588 -0.24 0
M  V30 END ATOM
M  V30 BEGIN BOND
M  V30 1 1 1 2
M  V30 2 2 2 3
M  V30 3 1 2 4
M  V30 4 1 3 5
M  V30 5 1 3 6
M  V30 6 1 4 7
M  V30 7 2 4 8
M  V30 8 2 6 9
M  V30 9 2 7 10
M  V30 10 1 8 11
M  V30 11 1 10 12
M  V30 12 1 7 9
M  V30 13 2 11 12
M  V30 14 1 6 13
M  V30 15 1 8 14
M  V30 16 1 9 15
M  V30 17 1 10 16
M  V30 18 1 11 17
M  V30 19 1 12 18
M  V30 END BOND
M  V30 END CTAB
M  END
>  <Structure No>
4332

>  <LogS>
-6.1611

>  <MMFF94 Energy>
44.069

$$$$
Compound 4333
Actelion Java MolfileCreator 2.0

  0  0  0  0  0  0              0 V3000
M  V30 BEGIN CTAB
M  V30 COUNTS 18 19 0 0 0
M  V30 BEGIN ATOM
M  V30 1 Cl 2.0128 -2.7683 -0.419 0
M  V30 2 C 1.4677 -1.1144 -0.151 0
M  V30 3 C 0.1042 -0.683 -0.1478 0
M  V30 4 C 2.4958 -0.1892 0.0718 0
M  V30 5 C -1.0188 -1.5414 -0.3637 0
M  V30 6 C -0.1542 0.7035 0.0877 0
M  V30 7 C 2.2167 1.1533 0.2983 0
M  V30 8 Cl -0.9327 -3.2742 -0.6709 0
M  V30 9 C -2.3174 -1.0162 -0.34 0
M  V30 10 C 0.9016 1.5996 0.3068 0
M  V30 11 C -1.4683 1.1924 0.1039 0
M  V30 12 C -2.5406 0.3359 -0.1088 0
M  V30 13 H 3.529 -0.5143 0.0697 0
M  V30 14 H 3.0256 1.8523 0.4684 0
M  V30 15 H -3.1691 -1.6651 -0.5035 0
M  V30 16 H 0.7083 2.6511 0.4856 0
M  V30 17 H -1.6669 2.2429 0.2822 0
M  V30 18 H -3.5519 0.7221 -0.0945 0
M  V30 END ATOM
M  V30 BEGIN BOND
M  V30 1 1 1 2
M  V30 2 1 2 3
M  V30 3 2 2 4
M  V30 4 2 3 5
M  V30 5 1 3 6
M  V30 6 1 4 7
M  V30 7 1 5 8
M  V30 8 1 5 9
M  V30 9 1 6 10
M  V30 10 2 6 11
M  V30 11 2 9 12
M  V30 12 2 7 10
M  V30 13 1 11 12
M  V30 14 1 4 13
M  V30 15 1 7 14
M  V30 16 1 9 15
M  V30 17 1 10 16
M  V30 18 1 11 17
M  V30 19 1 12 18
M  V30 END BOND
M  V30 END CTAB
M  END
>  <Structure No>
4333

>  <LogS>
-5.7963

>  <MMFF94 Energy>
43.031

$$$$
Compound 4334
Actelion Java MolfileCreator 2.0

  0  0  0  0  0  0              0 V3000
M  V30 BEGIN CTAB
M  V30 COUNTS 25 26 0 0 0
M  V30 BEGIN ATOM
M  V30 1 O -5.81 0.2415 0.6443 0
M  V30 2 C -4.5707 0.1018 0.4723 0
M  V30 3 C -3.6494 1.2045 0.7941 0
M  V30 4 C -4.0331 -1.1714 -0.0311 0
M  V30 5 C -2.3322 1.0745 0.5932 0
M  V30 6 C -2.7223 -1.3085 -0.2462 0
M  V30 7 O -1.4977 2.1051 1.0087 0 CHG=-1
M  V30 8 C -1.7914 -0.1824 -0.0143 0
M  V30 9 N -0.5402 -0.3591 -0.3344 0
M  V30 10 N 0.4603 0.6281 -0.3133 0
M  V30 11 C 1.8489 0.2651 -0.2903 0
M  V30 12 C 2.2483 -1.072 -0.1092 0
M  V30 13 C 2.8309 1.2584 -0.4385 0
M  V30 14 C 3.6064 -1.4046 -0.0841 0
M  V30 15 C 4.1876 0.9211 -0.4129 0
M  V30 16 C 4.575 -0.4094 -0.2365 0
M  V30 17 H -4.0424 2.1146 1.2314 0
M  V30 18 H -4.7019 -1.9999 -0.229 0
M  V30 19 H -2.3425 -2.2498 -0.6248 0
M  V30 20 H 0.2157 1.6245 -0.5037 0
M  V30 21 H 1.5149 -1.8579 0.0151 0
M  V30 22 H 2.5448 2.2939 -0.5745 0
M  V30 23 H 3.9079 -2.4347 0.0547 0
M  V30 24 H 4.9385 1.6917 -0.5291 0
M  V30 25 H 5.6255 -0.6689 -0.2164 0
M  V30 END ATOM
M  V30 BEGIN BOND
M  V30 1 2 1 2
M  V30 2 1 2 3
M  V30 3 1 2 4
M  V30 4 2 3 5
M  V30 5 2 4 6
M  V30 6 1 5 7
M  V30 7 1 5 8
M  V30 8 2 8 9
M  V30 9 1 9 10
M  V30 10 1 10 11
M  V30 11 2 11 12
M  V30 12 1 11 13
M  V30 13 1 12 14
M  V30 14 2 13 15
M  V30 15 2 14 16
M  V30 16 1 6 8
M  V30 17 1 15 16
M  V30 18 1 3 17
M  V30 19 1 4 18
M  V30 20 1 6 19
M  V30 21 1 10 20
M  V30 22 1 12 21
M  V30 23 1 13 22
M  V30 24 1 14 23
M  V30 25 1 15 24
M  V30 26 1 16 25
M  V30 END BOND
M  V30 END CTAB
M  END
>  <Structure No>
4334

>  <LogS>
-3.0299

>  <MMFF94 Energy>
62.346

$$$$
Compound 4335
Actelion Java MolfileCreator 2.0

  0  0  0  0  0  0              0 V3000
M  V30 BEGIN CTAB
M  V30 COUNTS 20 19 0 0 0
M  V30 BEGIN ATOM
M  V30 1 O -0.4655 -0.2327 -2.718 0
M  V30 2 C -1.1132 -0.0243 -1.6581 0
M  V30 3 O -2.2256 0.8089 -1.6922 0 CHG=-1
M  V30 4 C -0.6505 -0.6402 -0.3596 0 CFG=2
M  V30 5 N -1.7934 -0.9729 0.5029 0 CHG=1
M  V30 6 C 0.3929 0.2515 0.3722 0 CFG=1
M  V30 7 O 1.5088 0.4738 -0.477 0
M  V30 8 C -0.1683 1.6181 0.7857 0
M  V30 9 C 2.5626 -0.4117 -0.1669 0
M  V30 10 H -0.1407 -1.5968 -0.6147 0
M  V30 11 H -1.4547 -1.3923 1.3991 0
M  V30 12 H -2.372 -0.1289 0.7154 0
M  V30 13 H -2.3984 -1.6786 0.0226 0
M  V30 14 H 0.6762 -0.2603 1.3253 0
M  V30 15 H -0.993 1.5064 1.5192 0
M  V30 16 H 0.6337 2.2128 1.2723 0
M  V30 17 H -0.5297 2.1859 -0.0966 0
M  V30 18 H 2.2351 -1.473 -0.2278 0
M  V30 19 H 3.3762 -0.2669 -0.9067 0
M  V30 20 H 2.9778 -0.1908 0.8408 0
M  V30 END ATOM
M  V30 BEGIN BOND
M  V30 1 2 1 2
M  V30 2 1 2 3
M  V30 3 1 2 4
M  V30 4 1 4 5
M  V30 5 1 4 6
M  V30 6 1 6 7
M  V30 7 1 6 8
M  V30 8 1 7 9
M  V30 9 1 4 10
M  V30 10 1 5 11
M  V30 11 1 5 12
M  V30 12 1 5 13
M  V30 13 1 6 14
M  V30 14 1 8 15
M  V30 15 1 8 16
M  V30 16 1 8 17
M  V30 17 1 9 18
M  V30 18 1 9 19
M  V30 19 1 9 20
M  V30 END BOND
M  V30 BEGIN COLLECTION
M  V30 MDLV30/STEABS ATOMS=(2 4 6)
M  V30 END COLLECTION
M  V30 END CTAB
M  END
>  <Structure No>
4335

>  <LogS>
0.4853

>  <MMFF94 Energy>
2.3018

$$$$
Compound 4336
Actelion Java MolfileCreator 2.0

  0  0  0  0  0  0              0 V3000
M  V30 BEGIN CTAB
M  V30 COUNTS 39 40 0 0 0
M  V30 BEGIN ATOM
M  V30 1 O 4.913 -3.009 -0.4746 0
M  V30 2 C 3.7001 -2.3719 -0.2227 0
M  V30 3 C 2.7128 -2.2979 -1.2129 0
M  V30 4 C 3.4685 -1.7982 1.0301 0
M  V30 5 C 1.499 -1.6562 -0.9496 0
M  V30 6 C 2.256 -1.156 1.2973 0
M  V30 7 C 1.2491 -1.0898 0.3165 0
M  V30 8 C -0.0417 -0.3456 0.6187 0
M  V30 9 C 0.0875 1.0926 0.1464 0
M  V30 10 C -1.2948 -1.0781 0.0608 0
M  V30 11 C 0.0688 1.4243 -1.2228 0
M  V30 12 C 0.2915 2.1184 1.0883 0
M  V30 13 C -2.622 -0.7027 0.7688 0
M  V30 14 C 0.2136 2.7527 -1.6326 0
M  V30 15 C 0.4359 3.4454 0.6742 0
M  V30 16 C -3.0889 0.7193 0.4221 0
M  V30 17 C -3.7176 -1.7092 0.3893 0
M  V30 18 C 0.3947 3.7671 -0.6847 0
M  V30 19 O 0.5386 5.0943 -1.0825 0
M  V30 20 H 5.1114 -3.4335 -1.373 0
M  V30 21 H 2.8863 -2.7336 -2.1886 0
M  V30 22 H 4.2313 -1.8456 1.7969 0
M  V30 23 H 0.7592 -1.6068 -1.7366 0
M  V30 24 H 2.1042 -0.7067 2.2711 0
M  V30 25 H -0.1649 -0.3465 1.7256 0
M  V30 26 H -1.4027 -0.9279 -1.0336 0
M  V30 27 H -1.1331 -2.1692 0.2115 0
M  V30 28 H -0.0533 0.6617 -1.9786 0
M  V30 29 H 0.3335 1.8933 2.1468 0
M  V30 30 H -2.4806 -0.767 1.8704 0
M  V30 31 H 0.1897 2.9918 -2.6882 0
M  V30 32 H 0.5828 4.225 1.4111 0
M  V30 33 H -3.0907 0.8778 -0.6775 0
M  V30 34 H -2.4352 1.473 0.9024 0
M  V30 35 H -4.1158 0.8956 0.8077 0
M  V30 36 H -3.4159 -2.7375 0.6821 0
M  V30 37 H -3.9057 -1.688 -0.7058 0
M  V30 38 H -4.6636 -1.4703 0.921 0
M  V30 39 H 0.5143 5.3596 -2.0602 0
M  V30 END ATOM
M  V30 BEGIN BOND
M  V30 1 1 1 2
M  V30 2 2 2 3
M  V30 3 1 2 4
M  V30 4 1 3 5
M  V30 5 2 4 6
M  V30 6 2 5 7
M  V30 7 1 7 8
M  V30 8 1 8 9
M  V30 9 1 8 10
M  V30 10 2 9 11
M  V30 11 1 9 12
M  V30 12 1 10 13
M  V30 13 1 11 14
M  V30 14 2 12 15
M  V30 15 1 13 16
M  V30 16 1 13 17
M  V30 17 2 14 18
M  V30 18 1 18 19
M  V30 19 1 6 7
M  V30 20 1 15 18
M  V30 21 1 1 20
M  V30 22 1 3 21
M  V30 23 1 4 22
M  V30 24 1 5 23
M  V30 25 1 6 24
M  V30 26 1 8 25
M  V30 27 1 10 26
M  V30 28 1 10 27
M  V30 29 1 11 28
M  V30 30 1 12 29
M  V30 31 1 13 30
M  V30 32 1 14 31
M  V30 33 1 15 32
M  V30 34 1 16 33
M  V30 35 1 16 34
M  V30 36 1 16 35
M  V30 37 1 17 36
M  V30 38 1 17 37
M  V30 39 1 17 38
M  V30 40 1 19 39
M  V30 END BOND
M  V30 END CTAB
M  END
>  <Structure No>
4336

>  <LogS>
-3.3674

>  <MMFF94 Energy>
35.9

$$$$
Compound 4337
Actelion Java MolfileCreator 2.0

  0  0  0  0  0  0              0 V3000
M  V30 BEGIN CTAB
M  V30 COUNTS 21 20 0 0 0
M  V30 BEGIN ATOM
M  V30 1 O 2.4015 -1.6806 1.4404 0
M  V30 2 C 1.9241 -1.2275 0.3668 0
M  V30 3 O 1.7575 -2.0816 -0.7176 0 CHG=-1
M  V30 4 C 1.4918 0.2138 0.2889 0 CFG=2
M  V30 5 C 0.063 0.418 0.851 0
M  V30 6 C 1.6811 0.7886 -1.121 0
M  V30 7 C -1.0678 -0.3565 0.1235 0 CFG=2
M  V30 8 C -1.4407 0.279 -1.1888 0
M  V30 9 C -2.3152 -0.4419 1.0108 0
M  V30 10 O -1.7356 1.5026 -1.2492 0
M  V30 11 O -1.503 -0.4965 -2.3396 0 CHG=-1
M  V30 12 H 2.1735 0.795 0.9498 0
M  V30 13 H 0.0864 0.0972 1.9166 0
M  V30 14 H -0.1729 1.5051 0.8686 0
M  V30 15 H 1.3159 1.8369 -1.1615 0
M  V30 16 H 1.1446 0.1874 -1.8825 0
M  V30 17 H 2.7607 0.789 -1.3831 0
M  V30 18 H -0.7363 -1.3988 -0.068 0
M  V30 19 H -2.6835 0.5741 1.2707 0
M  V30 20 H -3.1241 -0.9943 0.4855 0
M  V30 21 H -2.0818 -0.9887 1.9494 0
M  V30 END ATOM
M  V30 BEGIN BOND
M  V30 1 2 1 2
M  V30 2 1 2 3
M  V30 3 1 2 4
M  V30 4 1 4 5
M  V30 5 1 4 6
M  V30 6 1 5 7
M  V30 7 1 7 8
M  V30 8 1 7 9
M  V30 9 2 8 10
M  V30 10 1 8 11
M  V30 11 1 4 12
M  V30 12 1 5 13
M  V30 13 1 5 14
M  V30 14 1 6 15
M  V30 15 1 6 16
M  V30 16 1 6 17
M  V30 17 1 7 18
M  V30 18 1 9 19
M  V30 19 1 9 20
M  V30 20 1 9 21
M  V30 END BOND
M  V30 BEGIN COLLECTION
M  V30 MDLV30/STEABS ATOMS=(2 4 7)
M  V30 END COLLECTION
M  V30 END CTAB
M  END
>  <Structure No>
4337

>  <LogS>
-0.4564

>  <MMFF94 Energy>
75.671

$$$$
Compound 4338
Actelion Java MolfileCreator 2.0

  0  0  0  0  0  0              0 V3000
M  V30 BEGIN CTAB
M  V30 COUNTS 38 40 0 0 0
M  V30 BEGIN ATOM
M  V30 1 Cl 4.8282 -2.9948 -1.0807 0
M  V30 2 C 3.6439 -1.7408 -0.73 0
M  V30 3 C 4.0272 -0.4729 -0.2103 0
M  V30 4 C 2.2884 -2.023 -0.9823 0
M  V30 5 S 5.7235 -0.098 0.1142 0
M  V30 6 C 3.0402 0.5018 0.0431 0
M  V30 7 C 1.3368 -1.0404 -0.7195 0
M  V30 8 O 6.4948 -0.1328 -1.1748 0
M  V30 9 O 6.2888 -1.1136 1.0673 0
M  V30 10 N 5.8806 1.4749 0.8178 0
M  V30 11 C 1.7111 0.1844 -0.2222 0
M  V30 12 C -0.1515 -1.1202 -0.9004 0
M  V30 13 C 0.5123 0.9651 -0.0576 0
M  V30 14 N -0.6202 0.2108 -0.4847 0
M  V30 15 O 0.4543 2.133 0.4112 0
M  V30 16 C -2.0138 0.5849 -0.217 0
M  V30 17 C -2.9622 -0.0033 -1.2766 0
M  V30 18 C -2.4245 0.1521 1.2114 0
M  V30 19 C -4.4117 0.4821 -1.0698 0
M  V30 20 C -3.9391 -0.0967 1.3639 0
M  V30 21 C -4.7582 0.7734 0.405 0
M  V30 22 H 1.9854 -2.9854 -1.3745 0
M  V30 23 H 3.2934 1.4785 0.4324 0
M  V30 24 H 6.9028 1.6599 0.9273 0
M  V30 25 H 5.4817 1.4207 1.7819 0
M  V30 26 H -0.5754 -1.9087 -0.2434 0
M  V30 27 H -0.406 -1.3059 -1.9652 0
M  V30 28 H -2.0973 1.6934 -0.2844 0
M  V30 29 H -2.9415 -1.1137 -1.2146 0
M  V30 30 H -2.6189 0.2862 -2.2935 0
M  V30 31 H -1.8892 -0.777 1.5037 0
M  V30 32 H -2.1105 0.9459 1.9241 0
M  V30 33 H -4.578 1.4079 -1.6626 0
M  V30 34 H -5.1053 -0.2913 -1.4656 0
M  V30 35 H -4.1617 -1.1667 1.1568 0
M  V30 36 H -4.2461 0.1127 2.4114 0
M  V30 37 H -5.8421 0.5949 0.5738 0
M  V30 38 H -4.5561 1.844 0.6296 0
M  V30 END ATOM
M  V30 BEGIN BOND
M  V30 1 1 1 2
M  V30 2 2 2 3
M  V30 3 1 2 4
M  V30 4 1 3 5
M  V30 5 1 3 6
M  V30 6 2 4 7
M  V30 7 2 5 8
M  V30 8 2 5 9
M  V30 9 1 5 10
M  V30 10 2 6 11
M  V30 11 1 7 12
M  V30 12 1 11 13
M  V30 13 1 12 14
M  V30 14 2 13 15
M  V30 15 1 14 16
M  V30 16 1 16 17
M  V30 17 1 16 18
M  V30 18 1 17 19
M  V30 19 1 18 20
M  V30 20 1 19 21
M  V30 21 1 7 11
M  V30 22 1 13 14
M  V30 23 1 20 21
M  V30 24 1 4 22
M  V30 25 1 6 23
M  V30 26 1 10 24
M  V30 27 1 10 25
M  V30 28 1 12 26
M  V30 29 1 12 27
M  V30 30 1 16 28
M  V30 31 1 17 29
M  V30 32 1 17 30
M  V30 33 1 18 31
M  V30 34 1 18 32
M  V30 35 1 19 33
M  V30 36 1 19 34
M  V30 37 1 20 35
M  V30 38 1 20 36
M  V30 39 1 21 37
M  V30 40 1 21 38
M  V30 END BOND
M  V30 END CTAB
M  END
>  <Structure No>
4338

>  <LogS>
-4.3128

>  <MMFF94 Energy>
-83.948

$$$$
Compound 4339
Actelion Java MolfileCreator 2.0

  0  0  0  0  0  0              0 V3000
M  V30 BEGIN CTAB
M  V30 COUNTS 57 60 0 0 0
M  V30 BEGIN ATOM
M  V30 1 F 2.2867 1.6329 -1.3879 0
M  V30 2 C 1.7274 0.8468 -0.3814 0 CFG=1
M  V30 3 C 2.964 0.095 0.2976 0 CFG=1
M  V30 4 C 1.0036 1.8279 0.6183 0 CFG=1
M  V30 5 C 0.7057 -0.1057 -1.1345 0 CFG=2
M  V30 6 C 3.3525 -1.1174 -0.5584 0
M  V30 7 C 4.1203 1.093 0.4354 0
M  V30 8 C 2.7158 -0.4373 1.7371 0
M  V30 9 O 0.7275 3.0923 0.0603 0
M  V30 10 C -0.2606 1.207 1.2528 0
M  V30 11 C -0.7756 0.4371 -1.1537 0 CFG=2
M  V30 12 C 0.8648 -1.5937 -0.7556 0
M  V30 13 C 4.6354 -1.4124 -0.8301 0
M  V30 14 C 2.2932 -2.0945 -1.0058 0 CFG=1
M  V30 15 C 5.386 0.7892 0.1466 0
M  V30 16 C -1.3837 0.8339 0.2246 0 CFG=1
M  V30 17 C -1.8063 -0.5066 -1.7846 0
M  V30 18 C 5.7167 -0.5032 -0.446 0
M  V30 19 F 2.4484 -2.3399 -2.3632 0
M  V30 20 C -2.2869 -0.4166 0.6627 0 CFG=1
M  V30 21 C -2.2535 2.1137 0.0105 0
M  V30 22 C -2.4148 -1.3014 -0.6323 0 CFG=1
M  V30 23 O 6.9165 -0.8202 -0.6517 0
M  V30 24 O -1.5765 -1.1966 1.6057 0
M  V30 25 C -3.6143 -0.0027 1.3541 0
M  V30 26 C -3.7689 -1.9344 -0.9878 0
M  V30 27 O -3.6373 0.0318 2.5778 0
M  V30 28 C -4.8861 0.4028 0.6386 0
M  V30 29 O -5.4968 1.4859 1.2893 0
M  V30 30 H 1.6835 2.0591 1.4592 0
M  V30 31 H 1.0019 -0.0893 -2.2102 0
M  V30 32 H 3.9273 2.0631 0.8773 0
M  V30 33 H 3.6064 -1.0068 2.0842 0
M  V30 34 H 1.859 -1.1252 1.81 0
M  V30 35 H 2.5681 0.3746 2.4775 0
M  V30 36 H 0.4659 2.9844 -0.8876 0
M  V30 37 H -0.659 1.9021 2.0254 0
M  V30 38 H 0.0851 0.3298 1.8238 0
M  V30 39 H -0.7362 1.329 -1.8199 0
M  V30 40 H 0.5442 -1.7795 0.2837 0
M  V30 41 H 0.2229 -2.2263 -1.3985 0
M  V30 42 H 4.8897 -2.3205 -1.3642 0
M  V30 43 H 2.4346 -3.0544 -0.4635 0
M  V30 44 H 6.1704 1.5114 0.3345 0
M  V30 45 H -1.3682 -1.1617 -2.5689 0
M  V30 46 H -2.598 0.1028 -2.2738 0
M  V30 47 H -1.665 2.9841 -0.3251 0
M  V30 48 H -2.7399 2.4272 0.956 0
M  V30 49 H -3.0146 1.9619 -0.7759 0
M  V30 50 H -1.7634 -2.1889 -0.4911 0
M  V30 51 H -2.1193 -2.0026 1.8189 0
M  V30 52 H -4.2531 -2.3524 -0.0791 0
M  V30 53 H -4.448 -1.229 -1.5028 0
M  V30 54 H -3.6056 -2.7761 -1.6943 0
M  V30 55 H -5.5934 -0.4492 0.6744 0
M  V30 56 H -4.7139 0.6491 -0.4278 0
M  V30 57 H -5.0768 2.3146 0.9365 0
M  V30 END ATOM
M  V30 BEGIN BOND
M  V30 1 1 1 2
M  V30 2 1 2 3
M  V30 3 1 2 4
M  V30 4 1 2 5
M  V30 5 1 3 6
M  V30 6 1 3 7
M  V30 7 1 3 8
M  V30 8 1 4 9
M  V30 9 1 4 10
M  V30 10 1 5 11
M  V30 11 1 5 12
M  V30 12 2 6 13
M  V30 13 1 6 14
M  V30 14 2 7 15
M  V30 15 1 10 16
M  V30 16 1 11 17
M  V30 17 1 13 18
M  V30 18 1 14 19
M  V30 19 1 16 20
M  V30 20 1 16 21
M  V30 21 1 17 22
M  V30 22 2 18 23
M  V30 23 1 20 24
M  V30 24 1 20 25
M  V30 25 1 22 26
M  V30 26 2 25 27
M  V30 27 1 25 28
M  V30 28 1 28 29
M  V30 29 1 11 16
M  V30 30 1 12 14
M  V30 31 1 15 18
M  V30 32 1 20 22
M  V30 33 1 4 30
M  V30 34 1 5 31
M  V30 35 1 7 32
M  V30 36 1 8 33
M  V30 37 1 8 34
M  V30 38 1 8 35
M  V30 39 1 9 36
M  V30 40 1 10 37
M  V30 41 1 10 38
M  V30 42 1 11 39
M  V30 43 1 12 40
M  V30 44 1 12 41
M  V30 45 1 13 42
M  V30 46 1 14 43
M  V30 47 1 15 44
M  V30 48 1 17 45
M  V30 49 1 17 46
M  V30 50 1 21 47
M  V30 51 1 21 48
M  V30 52 1 21 49
M  V30 53 1 22 50
M  V30 54 1 24 51
M  V30 55 1 26 52
M  V30 56 1 26 53
M  V30 57 1 26 54
M  V30 58 1 28 55
M  V30 59 1 28 56
M  V30 60 1 29 57
M  V30 END BOND
M  V30 BEGIN COLLECTION
M  V30 MDLV30/STEABS ATOMS=(9 2 3 4 5 11 14 16 20 22)
M  V30 END COLLECTION
M  V30 END CTAB
M  END
>  <Structure No>
4339

>  <LogS>
-5.6133

>  <MMFF94 Energy>
188.28

$$$$
Compound 4340
Actelion Java MolfileCreator 2.0

  0  0  0  0  0  0              0 V3000
M  V30 BEGIN CTAB
M  V30 COUNTS 30 31 0 0 0
M  V30 BEGIN ATOM
M  V30 1 O 1.6732 -0.3981 -2.5505 0
M  V30 2 C 1.9499 -0.0571 -1.2235 0
M  V30 3 C 0.9537 -0.0283 -0.2078 0
M  V30 4 C 3.2718 0.2859 -0.9132 0
M  V30 5 C 1.3161 0.4545 1.0682 0
M  V30 6 C -0.4941 -0.4249 -0.4903 0
M  V30 7 C 3.6182 0.7154 0.3679 0
M  V30 8 C 2.6348 0.8101 1.3549 0
M  V30 9 C -1.1784 -1.1935 0.6823 0
M  V30 10 C -1.298 0.8143 -0.9435 0
M  V30 11 O 4.9398 1.0569 0.6462 0
M  V30 12 C -2.2225 -0.3456 1.4233 0
M  V30 13 C -2.8022 0.5239 -0.9365 0
M  V30 14 C -3.3205 0.1667 0.4725 0
M  V30 15 H 0.7427 -0.5169 -2.9253 0
M  V30 16 H 4.0319 0.2409 -1.6835 0
M  V30 17 H 0.5832 0.5527 1.8553 0
M  V30 18 H -0.5032 -1.1523 -1.3273 0
M  V30 19 H 2.8907 1.1606 2.3469 0
M  V30 20 H -0.4314 -1.5862 1.405 0
M  V30 21 H -1.7024 -2.0876 0.2752 0
M  V30 22 H -0.9861 1.1064 -1.9697 0
M  V30 23 H -1.0942 1.6778 -0.2713 0
M  V30 24 H 5.2223 1.3757 1.5656 0
M  V30 25 H -1.7251 0.5213 1.9071 0
M  V30 26 H -2.6877 -0.9521 2.2304 0
M  V30 27 H -3.0069 -0.3208 -1.6308 0
M  V30 28 H -3.3518 1.4105 -1.3206 0
M  V30 29 H -4.1123 -0.6079 0.3763 0
M  V30 30 H -3.7927 1.0633 0.9303 0
M  V30 END ATOM
M  V30 BEGIN BOND
M  V30 1 1 1 2
M  V30 2 2 2 3
M  V30 3 1 2 4
M  V30 4 1 3 5
M  V30 5 1 3 6
M  V30 6 2 4 7
M  V30 7 2 5 8
M  V30 8 1 6 9
M  V30 9 1 6 10
M  V30 10 1 7 11
M  V30 11 1 9 12
M  V30 12 1 10 13
M  V30 13 1 12 14
M  V30 14 1 7 8
M  V30 15 1 13 14
M  V30 16 1 1 15
M  V30 17 1 4 16
M  V30 18 1 5 17
M  V30 19 1 6 18
M  V30 20 1 8 19
M  V30 21 1 9 20
M  V30 22 1 9 21
M  V30 23 1 10 22
M  V30 24 1 10 23
M  V30 25 1 11 24
M  V30 26 1 12 25
M  V30 27 1 12 26
M  V30 28 1 13 27
M  V30 29 1 13 28
M  V30 30 1 14 29
M  V30 31 1 14 30
M  V30 END BOND
M  V30 END CTAB
M  END
>  <Structure No>
4340

>  <LogS>
-2.5763

>  <MMFF94 Energy>
5.9353

$$$$
Compound 4341
Actelion Java MolfileCreator 2.0

  0  0  0  0  0  0              0 V3000
M  V30 BEGIN CTAB
M  V30 COUNTS 25 26 0 0 0
M  V30 BEGIN ATOM
M  V30 1 Cl -1.7096 -2.1598 2.8805 0
M  V30 2 C -1.4365 -1.1904 1.438 0
M  V30 3 C -2.157 -0.1299 1.0576 0
M  V30 4 C -0.3899 -1.4182 0.3662 0 CFG=1
M  V30 5 Cl -3.5439 0.534 1.9129 0
M  V30 6 C -1.5883 0.3379 -0.2683 0 CFG=1
M  V30 7 Cl 0.2606 -3.0875 0.333 0
M  V30 8 C -1.2192 -1.0243 -0.865 0
M  V30 9 C 0.6379 -0.2458 0.5466 0 CFG=2
M  V30 10 Cl -2.7389 1.3093 -1.2404 0
M  V30 11 C -0.2098 0.9992 0.0821 0 CFG=1
M  V30 12 Cl -0.3507 -0.9814 -2.432 0
M  V30 13 Cl -2.6489 -2.0996 -1.1445 0
M  V30 14 C 2.0186 -0.4515 -0.1204 0
M  V30 15 C 0.4049 1.8971 -1.0235 0
M  V30 16 O 2.7359 -1.4413 0.5648 0
M  V30 17 O 1.4538 2.6685 -0.5011 0
M  V30 18 H 0.8549 -0.1215 1.6342 0
M  V30 19 H -0.3675 1.6694 0.96 0
M  V30 20 H 1.9297 -0.7339 -1.1864 0
M  V30 21 H 2.5982 0.4933 -0.0593 0
M  V30 22 H -0.3661 2.5783 -1.4449 0
M  V30 23 H 0.8017 1.3064 -1.8675 0
M  V30 24 H 3.6037 -1.5341 0.0919 0
M  V30 25 H 1.0385 3.4026 0.023 0
M  V30 END ATOM
M  V30 BEGIN BOND
M  V30 1 1 1 2
M  V30 2 2 2 3
M  V30 3 1 2 4
M  V30 4 1 3 5
M  V30 5 1 3 6
M  V30 6 1 4 7
M  V30 7 1 4 8
M  V30 8 1 4 9
M  V30 9 1 6 10
M  V30 10 1 6 11
M  V30 11 1 8 12
M  V30 12 1 8 13
M  V30 13 1 9 14
M  V30 14 1 11 15
M  V30 15 1 14 16
M  V30 16 1 15 17
M  V30 17 1 6 8
M  V30 18 1 9 11
M  V30 19 1 9 18
M  V30 20 1 11 19
M  V30 21 1 14 20
M  V30 22 1 14 21
M  V30 23 1 15 22
M  V30 24 1 15 23
M  V30 25 1 16 24
M  V30 26 1 17 25
M  V30 END BOND
M  V30 BEGIN COLLECTION
M  V30 MDLV30/STEABS ATOMS=(4 4 6 9 11)
M  V30 END COLLECTION
M  V30 END CTAB
M  END
>  <Structure No>
4341

>  <LogS>
-3.0802

>  <MMFF94 Energy>
75.974

$$$$
Compound 4342
Actelion Java MolfileCreator 2.0

  0  0  0  0  0  0              0 V3000
M  V30 BEGIN CTAB
M  V30 COUNTS 29 29 0 0 0
M  V30 BEGIN ATOM
M  V30 1 O 0.2344 1.0946 2.7383 0
M  V30 2 C 0.3323 0.5966 1.5858 0
M  V30 3 N 1.5209 0.0967 1.1692 0
M  V30 4 N -0.7481 0.5643 0.7608 0
M  V30 5 C 1.6408 -0.4328 -0.0745 0
M  V30 6 C -0.641 0.0182 -0.4846 0
M  V30 7 N 0.5602 -0.4674 -0.8938 0
M  V30 8 N 2.8933 -0.9622 -0.5275 0
M  V30 9 N -1.7519 -0.0343 -1.4015 0
M  V30 10 C 4.1058 -0.9408 0.2883 0
M  V30 11 C -3.1863 -0.0287 -1.0746 0
M  V30 12 C 4.7056 0.4606 0.323 0
M  V30 13 C -3.5312 -1.0017 0.0596 0
M  V30 14 C -3.7101 1.3898 -0.8235 0
M  V30 15 H -1.638 0.9805 1.099 0
M  V30 16 H 2.9299 -1.4307 -1.461 0
M  V30 17 H -1.5135 -0.2667 -2.3927 0
M  V30 18 H 4.8539 -1.6367 -0.1492 0
M  V30 19 H 3.8788 -1.2872 1.3197 0
M  V30 20 H -3.7293 -0.3985 -1.974 0
M  V30 21 H 5.6486 0.4475 0.9089 0
M  V30 22 H 4.0024 1.175 0.7996 0
M  V30 23 H 4.9301 0.804 -0.7092 0
M  V30 24 H -4.6337 -1.1206 0.1281 0
M  V30 25 H -3.0864 -1.9976 -0.1495 0
M  V30 26 H -3.1659 -0.6457 1.0422 0
M  V30 27 H -3.388 1.7981 0.1519 0
M  V30 28 H -3.361 2.0694 -1.6297 0
M  V30 29 H -4.821 1.3833 -0.8341 0
M  V30 END ATOM
M  V30 BEGIN BOND
M  V30 1 2 1 2
M  V30 2 1 2 3
M  V30 3 1 2 4
M  V30 4 2 3 5
M  V30 5 1 4 6
M  V30 6 1 5 7
M  V30 7 1 5 8
M  V30 8 1 6 9
M  V30 9 1 8 10
M  V30 10 1 9 11
M  V30 11 1 10 12
M  V30 12 1 11 13
M  V30 13 1 11 14
M  V30 14 2 6 7
M  V30 15 1 4 15
M  V30 16 1 8 16
M  V30 17 1 9 17
M  V30 18 1 10 18
M  V30 19 1 10 19
M  V30 20 1 11 20
M  V30 21 1 12 21
M  V30 22 1 12 22
M  V30 23 1 12 23
M  V30 24 1 13 24
M  V30 25 1 13 25
M  V30 26 1 13 26
M  V30 27 1 14 27
M  V30 28 1 14 28
M  V30 29 1 14 29
M  V30 END BOND
M  V30 END CTAB
M  END
>  <Structure No>
4342

>  <LogS>
-4.5241

>  <MMFF94 Energy>
-267.04

$$$$
Compound 4343
Actelion Java MolfileCreator 2.0

  0  0  0  0  0  0              0 V3000
M  V30 BEGIN CTAB
M  V30 COUNTS 35 37 0 0 0
M  V30 BEGIN ATOM
M  V30 1 O -0.4011 2.0873 -0.9629 0
M  V30 2 C 0.4633 1.279 -0.5277 0
M  V30 3 N 0.0862 0.0676 0.0318 0
M  V30 4 N 1.7808 1.6256 -0.6138 0
M  V30 5 C 1.0665 -0.7804 0.5084 0
M  V30 6 C -1.3466 -0.3283 0.1226 0
M  V30 7 C 2.7324 0.785 -0.1472 0
M  V30 8 O 0.777 -1.8915 1.032 0
M  V30 9 C 2.4043 -0.407 0.4118 0
M  V30 10 C -2.1512 0.6163 1.0573 0
M  V30 11 C -1.991 -0.4703 -1.2731 0
M  V30 12 C 4.1916 1.0261 -0.1703 0
M  V30 13 C 3.6009 -1.1613 0.8557 0
M  V30 14 C -3.6294 0.7545 0.6466 0
M  V30 15 C -3.4276 -1.0226 -1.1759 0
M  V30 16 C 4.7805 -0.2406 0.4814 0
M  V30 17 C -4.1822 -0.5625 0.0902 0
M  V30 18 H 2.0588 2.5402 -1.0369 0
M  V30 19 H -1.4367 -1.3405 0.5757 0
M  V30 20 H -1.7061 1.6312 1.1026 0
M  V30 21 H -2.1023 0.2122 2.0925 0
M  V30 22 H -2.0328 0.5109 -1.7881 0
M  V30 23 H -1.3772 -1.1519 -1.901 0
M  V30 24 H 4.4395 1.9327 0.4222 0
M  V30 25 H 4.5451 1.1384 -1.2176 0
M  V30 26 H 3.6659 -2.1307 0.3161 0
M  V30 27 H 3.562 -1.3319 1.9532 0
M  V30 28 H -3.7285 1.5472 -0.1272 0
M  V30 29 H -4.2302 1.0678 1.5276 0
M  V30 30 H -3.9926 -0.703 -2.0786 0
M  V30 31 H -3.3948 -2.1339 -1.1865 0
M  V30 32 H 5.4595 -0.7579 -0.231 0
M  V30 33 H 5.3597 0.0299 1.3912 0
M  V30 34 H -4.0986 -1.3456 0.8759 0
M  V30 35 H -5.2617 -0.4409 -0.1449 0
M  V30 END ATOM
M  V30 BEGIN BOND
M  V30 1 2 1 2
M  V30 2 1 2 3
M  V30 3 1 2 4
M  V30 4 1 3 5
M  V30 5 1 3 6
M  V30 6 1 4 7
M  V30 7 2 5 8
M  V30 8 1 5 9
M  V30 9 1 6 10
M  V30 10 1 6 11
M  V30 11 1 7 12
M  V30 12 1 9 13
M  V30 13 1 10 14
M  V30 14 1 11 15
M  V30 15 1 12 16
M  V30 16 1 14 17
M  V30 17 2 7 9
M  V30 18 1 13 16
M  V30 19 1 15 17
M  V30 20 1 4 18
M  V30 21 1 6 19
M  V30 22 1 10 20
M  V30 23 1 10 21
M  V30 24 1 11 22
M  V30 25 1 11 23
M  V30 26 1 12 24
M  V30 27 1 12 25
M  V30 28 1 13 26
M  V30 29 1 13 27
M  V30 30 1 14 28
M  V30 31 1 14 29
M  V30 32 1 15 30
M  V30 33 1 15 31
M  V30 34 1 16 32
M  V30 35 1 16 33
M  V30 36 1 17 34
M  V30 37 1 17 35
M  V30 END BOND
M  V30 END CTAB
M  END
>  <Structure No>
4343

>  <LogS>
-4.5916

>  <MMFF94 Energy>
-71.385

$$$$
Compound 4344
Actelion Java MolfileCreator 2.0

  0  0  0  0  0  0              0 V3000
M  V30 BEGIN CTAB
M  V30 COUNTS 23 23 0 0 0
M  V30 BEGIN ATOM
M  V30 1 Cl -4.0253 1.1488 -1.97 0
M  V30 2 C -3.1531 0.1671 -0.8003 0
M  V30 3 C -3.8232 -0.7606 0.0143 0
M  V30 4 C -1.7647 0.3137 -0.6934 0
M  V30 5 Cl -5.5656 -0.9753 -0.0888 0
M  V30 6 C -3.097 -1.5391 0.9214 0
M  V30 7 C -1.035 -0.4523 0.2337 0
M  V30 8 C -1.7115 -1.3915 1.0255 0
M  V30 9 N 0.3941 -0.3345 0.3437 0
M  V30 10 C 1.1136 0.8929 0.1343 0
M  V30 11 O 0.5007 1.9946 0.1971 0
M  V30 12 C 2.5782 0.8778 -0.116 0
M  V30 13 C 3.2927 2.008 -0.0455 0
M  V30 14 C 3.2805 -0.4221 -0.4019 0
M  V30 15 H -1.2575 1.0076 -1.3507 0
M  V30 16 H -3.6056 -2.2618 1.5467 0
M  V30 17 H -1.1645 -2.0034 1.7318 0
M  V30 18 H 0.9233 -1.1638 0.6953 0
M  V30 19 H 2.8267 2.9591 0.179 0
M  V30 20 H 4.3639 2.0019 -0.2048 0
M  V30 21 H 3.4606 -0.9636 0.5502 0
M  V30 22 H 4.2554 -0.2576 -0.9097 0
M  V30 23 H 2.6589 -1.0536 -1.071 0
M  V30 END ATOM
M  V30 BEGIN BOND
M  V30 1 1 1 2
M  V30 2 2 2 3
M  V30 3 1 2 4
M  V30 4 1 3 5
M  V30 5 1 3 6
M  V30 6 2 4 7
M  V30 7 2 6 8
M  V30 8 1 7 9
M  V30 9 1 9 10
M  V30 10 2 10 11
M  V30 11 1 10 12
M  V30 12 2 12 13
M  V30 13 1 12 14
M  V30 14 1 7 8
M  V30 15 1 4 15
M  V30 16 1 6 16
M  V30 17 1 8 17
M  V30 18 1 9 18
M  V30 19 1 13 19
M  V30 20 1 13 20
M  V30 21 1 14 21
M  V30 22 1 14 22
M  V30 23 1 14 23
M  V30 END BOND
M  V30 END CTAB
M  END
>  <Structure No>
4344

>  <LogS>
-4.4325

>  <MMFF94 Energy>
8.2154

$$$$
Compound 4345
Actelion Java MolfileCreator 2.0

  0  0  0  0  0  0              0 V3000
M  V30 BEGIN CTAB
M  V30 COUNTS 29 29 0 0 0
M  V30 BEGIN ATOM
M  V30 1 Cl -4.4041 1.8399 -2.7208 0
M  V30 2 C -4.0063 0.8212 -1.3489 0
M  V30 3 C -2.6755 0.694 -0.934 0
M  V30 4 C -5.0207 0.1457 -0.6632 0
M  V30 5 C -2.3494 -0.1237 0.1643 0
M  V30 6 C -4.7072 -0.6489 0.4418 0
M  V30 7 N -0.9943 -0.2544 0.6272 0
M  V30 8 C -3.3791 -0.7774 0.859 0
M  V30 9 C 0.1554 -0.2627 -0.2291 0
M  V30 10 O 0.0228 -0.3507 -1.4808 0
M  V30 11 O 1.4299 -0.2063 0.3457 0
M  V30 12 C 2.6418 -0.2648 -0.4094 0 CFG=1
M  V30 13 C 3.8023 0.2623 0.4484 0
M  V30 14 C 2.9156 -1.7081 -0.8428 0
M  V30 15 C 3.6112 1.7329 0.8151 0
M  V30 16 H -1.9079 1.2532 -1.452 0
M  V30 17 H -6.0514 0.2428 -0.98 0
M  V30 18 H -5.4941 -1.1644 0.9774 0
M  V30 19 H -0.834 -0.4419 1.6428 0
M  V30 20 H -3.1496 -1.3949 1.7184 0
M  V30 21 H 2.5537 0.3728 -1.3179 0
M  V30 22 H 4.7573 0.162 -0.1124 0
M  V30 23 H 3.8832 -0.3363 1.3821 0
M  V30 24 H 3.8617 -1.7635 -1.4224 0
M  V30 25 H 2.0925 -2.0779 -1.489 0
M  V30 26 H 2.9944 -2.3702 0.0459 0
M  V30 27 H 4.4803 2.0824 1.4114 0
M  V30 28 H 2.6907 1.8668 1.4223 0
M  V30 29 H 3.5387 2.3538 -0.1031 0
M  V30 END ATOM
M  V30 BEGIN BOND
M  V30 1 1 1 2
M  V30 2 2 2 3
M  V30 3 1 2 4
M  V30 4 1 3 5
M  V30 5 2 4 6
M  V30 6 1 5 7
M  V30 7 2 5 8
M  V30 8 1 7 9
M  V30 9 2 9 10
M  V30 10 1 9 11
M  V30 11 1 11 12
M  V30 12 1 12 13
M  V30 13 1 12 14
M  V30 14 1 13 15
M  V30 15 1 6 8
M  V30 16 1 3 16
M  V30 17 1 4 17
M  V30 18 1 6 18
M  V30 19 1 7 19
M  V30 20 1 8 20
M  V30 21 1 12 21
M  V30 22 1 13 22
M  V30 23 1 13 23
M  V30 24 1 14 24
M  V30 25 1 14 25
M  V30 26 1 14 26
M  V30 27 1 15 27
M  V30 28 1 15 28
M  V30 29 1 15 29
M  V30 END BOND
M  V30 BEGIN COLLECTION
M  V30 MDLV30/STEABS ATOMS=(1 12)
M  V30 END COLLECTION
M  V30 END CTAB
M  END
>  <Structure No>
4345

>  <LogS>
-3.1727

>  <MMFF94 Energy>
-36.912

$$$$
Compound 4346
Actelion Java MolfileCreator 2.0

  0  0  0  0  0  0              0 V3000
M  V30 BEGIN CTAB
M  V30 COUNTS 31 32 0 0 0
M  V30 BEGIN ATOM
M  V30 1 O -1.2644 -0.7901 0.0789 0
M  V30 2 C 0.1371 -0.792 0.1324 0
M  V30 3 C -2.0625 0.364 -0.1768 0
M  V30 4 C 0.9024 0.3723 -0.0745 0
M  V30 5 C 0.7867 -2.0018 0.4023 0
M  V30 6 C -3.5516 -0.0122 -0.1525 0
M  V30 7 C 2.3036 0.3199 -0.0103 0
M  V30 8 C 2.1808 -2.0647 0.4682 0
M  V30 9 C -3.9698 -0.5193 1.2339 0
M  V30 10 C -4.4137 1.1873 -0.5625 0
M  V30 11 C 2.9486 -0.9102 0.2637 0
M  V30 12 C 3.0735 1.476 -0.2153 0
M  V30 13 C 4.3499 -0.9615 0.3276 0
M  V30 14 C 4.4683 1.4116 -0.1489 0
M  V30 15 C 5.1042 0.1971 0.1216 0
M  V30 16 H -1.8015 0.7694 -1.1791 0
M  V30 17 H -1.8571 1.1409 0.5927 0
M  V30 18 H 0.4164 1.3164 -0.2848 0
M  V30 19 H 0.2049 -2.9008 0.5627 0
M  V30 20 H -3.7212 -0.8278 -0.8901 0
M  V30 21 H 2.6573 -3.0147 0.6791 0
M  V30 22 H -3.3835 -1.4214 1.5091 0
M  V30 23 H -5.0451 -0.7987 1.231 0
M  V30 24 H -3.8057 0.2645 2.0046 0
M  V30 25 H -4.2735 2.0319 0.1463 0
M  V30 26 H -4.138 1.5265 -1.5837 0
M  V30 27 H -5.4875 0.9021 -0.5731 0
M  V30 28 H 2.5982 2.4267 -0.4262 0
M  V30 29 H 4.8597 -1.8945 0.5364 0
M  V30 30 H 5.0578 2.3053 -0.3077 0
M  V30 31 H 6.1845 0.1535 0.1717 0
M  V30 END ATOM
M  V30 BEGIN BOND
M  V30 1 1 1 2
M  V30 2 1 1 3
M  V30 3 2 2 4
M  V30 4 1 2 5
M  V30 5 1 3 6
M  V30 6 1 4 7
M  V30 7 2 5 8
M  V30 8 1 6 9
M  V30 9 1 6 10
M  V30 10 1 7 11
M  V30 11 2 7 12
M  V30 12 2 11 13
M  V30 13 1 12 14
M  V30 14 1 13 15
M  V30 15 1 8 11
M  V30 16 2 14 15
M  V30 17 1 3 16
M  V30 18 1 3 17
M  V30 19 1 4 18
M  V30 20 1 5 19
M  V30 21 1 6 20
M  V30 22 1 8 21
M  V30 23 1 9 22
M  V30 24 1 9 23
M  V30 25 1 9 24
M  V30 26 1 10 25
M  V30 27 1 10 26
M  V30 28 1 10 27
M  V30 29 1 12 28
M  V30 30 1 13 29
M  V30 31 1 14 30
M  V30 32 1 15 31
M  V30 END BOND
M  V30 END CTAB
M  END
>  <Structure No>
4346

>  <LogS>
-5.2117

>  <MMFF94 Energy>
35.438

$$$$
Compound 4347
Actelion Java MolfileCreator 2.0

  0  0  0  0  0  0              0 V3000
M  V30 BEGIN CTAB
M  V30 COUNTS 18 19 0 0 0
M  V30 BEGIN ATOM
M  V30 1 Cl 4.021 -1.339 -0.4183 0
M  V30 2 C 2.466 -0.5446 -0.2506 0
M  V30 3 C 1.3033 -1.309 -0.104 0
M  V30 4 C 2.391 0.852 -0.2637 0
M  V30 5 C 0.057 -0.6777 0.0304 0
M  V30 6 C 1.1557 1.4923 -0.1306 0
M  V30 7 C -0.0173 0.737 0.0169 0
M  V30 8 C -1.1163 -1.4335 0.1781 0
M  V30 9 C -1.2634 1.368 0.1514 0
M  V30 10 C -2.3529 -0.7925 0.3113 0
M  V30 11 C -2.4249 0.6042 0.2978 0
M  V30 12 Cl -3.8162 -1.7422 0.4956 0
M  V30 13 H 1.3742 -2.3903 -0.0952 0
M  V30 14 H 3.2908 1.4432 -0.3771 0
M  V30 15 H 1.1174 2.5752 -0.143 0
M  V30 16 H -1.0733 -2.5162 0.1901 0
M  V30 17 H -1.339 2.4488 0.1432 0
M  V30 18 H -3.3819 1.0998 0.401 0
M  V30 END ATOM
M  V30 BEGIN BOND
M  V30 1 1 1 2
M  V30 2 2 2 3
M  V30 3 1 2 4
M  V30 4 1 3 5
M  V30 5 2 4 6
M  V30 6 1 5 7
M  V30 7 2 5 8
M  V30 8 2 7 9
M  V30 9 1 8 10
M  V30 10 1 9 11
M  V30 11 1 10 12
M  V30 12 1 6 7
M  V30 13 2 10 11
M  V30 14 1 3 13
M  V30 15 1 4 14
M  V30 16 1 6 15
M  V30 17 1 8 16
M  V30 18 1 9 17
M  V30 19 1 11 18
M  V30 END BOND
M  V30 END CTAB
M  END
>  <Structure No>
4347

>  <LogS>
-5.9217

>  <MMFF94 Energy>
22.164

$$$$
Compound 4348
Actelion Java MolfileCreator 2.0

  0  0  0  0  0  0              0 V3000
M  V30 BEGIN CTAB
M  V30 COUNTS 25 25 0 0 0
M  V30 BEGIN ATOM
M  V30 1 O 1.7207 -1.2512 -0.7818 0
M  V30 2 C 1.0225 -0.2037 -0.7058 0
M  V30 3 O 1.6062 1.0525 -0.9061 0
M  V30 4 C -0.4195 -0.2882 -0.4122 0
M  V30 5 C 2.9996 1.2433 -1.1432 0
M  V30 6 N -1.216 0.7945 -0.3143 0
M  V30 7 C -1.1644 -1.4392 -0.1814 0
M  V30 8 C 3.7916 1.0865 0.1495 0
M  V30 9 C -2.4549 0.346 -0.0356 0
M  V30 10 C -2.4619 -1.0314 0.068 0
M  V30 11 C -0.6808 -2.8553 -0.1712 0
M  V30 12 C -3.625 1.2375 0.2232 0
M  V30 13 H 3.1539 2.2715 -1.5331 0
M  V30 14 H 3.3645 0.5256 -1.9098 0
M  V30 15 H -0.9295 1.7934 -0.4216 0
M  V30 16 H 3.6933 0.0529 0.5416 0
M  V30 17 H 4.8653 1.2939 -0.0429 0
M  V30 18 H 3.4178 1.8025 0.9119 0
M  V30 19 H -3.3087 -1.6617 0.3075 0
M  V30 20 H 0.0884 -2.9824 0.6186 0
M  V30 21 H -1.521 -3.5516 0.035 0
M  V30 22 H -0.2447 -3.1094 -1.1597 0
M  V30 23 H -3.6651 1.4901 1.3031 0
M  V30 24 H -4.567 0.7274 -0.0686 0
M  V30 25 H -3.5277 2.1726 -0.3671 0
M  V30 END ATOM
M  V30 BEGIN BOND
M  V30 1 2 1 2
M  V30 2 1 2 3
M  V30 3 1 2 4
M  V30 4 1 3 5
M  V30 5 1 4 6
M  V30 6 2 4 7
M  V30 7 1 5 8
M  V30 8 1 6 9
M  V30 9 1 7 10
M  V30 10 1 7 11
M  V30 11 1 9 12
M  V30 12 2 9 10
M  V30 13 1 5 13
M  V30 14 1 5 14
M  V30 15 1 6 15
M  V30 16 1 8 16
M  V30 17 1 8 17
M  V30 18 1 8 18
M  V30 19 1 10 19
M  V30 20 1 11 20
M  V30 21 1 11 21
M  V30 22 1 11 22
M  V30 23 1 12 23
M  V30 24 1 12 24
M  V30 25 1 12 25
M  V30 END BOND
M  V30 END CTAB
M  END
>  <Structure No>
4348

>  <LogS>
-2.6212

>  <MMFF94 Energy>
-2.6916

$$$$
Compound 4349
Actelion Java MolfileCreator 2.0

  0  0  0  0  0  0              0 V3000
M  V30 BEGIN CTAB
M  V30 COUNTS 20 20 0 0 0
M  V30 BEGIN ATOM
M  V30 1 O 0.3263 2.9404 -1.9595 0
M  V30 2 C -0.4633 2.1943 -1.321 0
M  V30 3 O -1.8038 2.5547 -1.2514 0 CHG=-1
M  V30 4 C 0.0387 0.9588 -0.6605 0
M  V30 5 C -0.8232 0.1007 0.0636 0
M  V30 6 C 1.4069 0.6345 -0.7584 0
M  V30 7 O -2.189 0.4148 0.1675 0
M  V30 8 C -0.2947 -1.0556 0.669 0
M  V30 9 C 1.9259 -0.5202 -0.152 0
M  V30 10 C -3.1532 -0.3664 0.8664 0
M  V30 11 C 1.0613 -1.3608 0.5619 0
M  V30 12 C 3.3661 -0.8435 -0.2664 0
M  V30 13 O 3.8354 -1.8791 0.2765 0
M  V30 14 O 4.2224 -0.0083 -0.975 0 CHG=-1
M  V30 15 H 2.0731 1.2857 -1.3105 0
M  V30 16 H -0.9269 -1.7309 1.2289 0
M  V30 17 H -2.8836 -0.434 1.9417 0
M  V30 18 H -3.2171 -1.3819 0.4217 0
M  V30 19 H -4.1457 0.1212 0.78 0
M  V30 20 H 1.4326 -2.2587 1.0404 0
M  V30 END ATOM
M  V30 BEGIN BOND
M  V30 1 2 1 2
M  V30 2 1 2 3
M  V30 3 1 2 4
M  V30 4 2 4 5
M  V30 5 1 4 6
M  V30 6 1 5 7
M  V30 7 1 5 8
M  V30 8 2 6 9
M  V30 9 1 7 10
M  V30 10 2 8 11
M  V30 11 1 9 12
M  V30 12 2 12 13
M  V30 13 1 12 14
M  V30 14 1 9 11
M  V30 15 1 6 15
M  V30 16 1 8 16
M  V30 17 1 10 17
M  V30 18 1 10 18
M  V30 19 1 10 19
M  V30 20 1 11 20
M  V30 END BOND
M  V30 END CTAB
M  END
>  <Structure No>
4349

>  <LogS>
-3.1165

>  <MMFF94 Energy>
115.18

$$$$
Compound 4350
Actelion Java MolfileCreator 2.0

  0  0  0  0  0  0              0 V3000
M  V30 BEGIN CTAB
M  V30 COUNTS 24 24 0 0 0
M  V30 BEGIN ATOM
M  V30 1 C -0.3139 -0.7849 0.6279 0 CFG=2
M  V30 2 C -0.7962 0.5267 -0.0727 0 CFG=2
M  V30 3 C 1.2322 -0.9224 0.6426 0
M  V30 4 C -0.958 -2.0197 -0.0237 0
M  V30 5 C 0.2665 1.6375 0.028 0
M  V30 6 C -2.1275 1.0172 0.5156 0
M  V30 7 C 1.8731 -0.2803 -0.5917 0
M  V30 8 C 1.5822 1.2314 -0.6642 0
M  V30 9 H -0.6412 -0.7708 1.6921 0
M  V30 10 H -0.9631 0.3295 -1.1564 0
M  V30 11 H 1.6361 -0.4212 1.5504 0
M  V30 12 H 1.5392 -1.9893 0.7071 0
M  V30 13 H -0.6293 -2.1227 -1.0798 0
M  V30 14 H -0.6723 -2.9392 0.5302 0
M  V30 15 H -2.0647 -1.9417 -1.0E-4 0
M  V30 16 H 0.4683 1.8561 1.1005 0
M  V30 17 H -0.1102 2.5739 -0.4392 0
M  V30 18 H -2.0118 1.2689 1.5918 0
M  V30 19 H -2.9106 0.2379 0.4121 0
M  V30 20 H -2.4749 1.9229 -0.0262 0
M  V30 21 H 2.9721 -0.445 -0.5679 0
M  V30 22 H 1.481 -0.7788 -1.5051 0
M  V30 23 H 1.5451 1.5353 -1.7332 0
M  V30 24 H 2.4184 1.7913 -0.1912 0
M  V30 END ATOM
M  V30 BEGIN BOND
M  V30 1 1 1 2
M  V30 2 1 1 3
M  V30 3 1 1 4
M  V30 4 1 2 5
M  V30 5 1 2 6
M  V30 6 1 3 7
M  V30 7 1 5 8
M  V30 8 1 7 8
M  V30 9 1 1 9
M  V30 10 1 2 10
M  V30 11 1 3 11
M  V30 12 1 3 12
M  V30 13 1 4 13
M  V30 14 1 4 14
M  V30 15 1 4 15
M  V30 16 1 5 16
M  V30 17 1 5 17
M  V30 18 1 6 18
M  V30 19 1 6 19
M  V30 20 1 6 20
M  V30 21 1 7 21
M  V30 22 1 7 22
M  V30 23 1 8 23
M  V30 24 1 8 24
M  V30 END BOND
M  V30 BEGIN COLLECTION
M  V30 MDLV30/STEABS ATOMS=(2 1 2)
M  V30 END COLLECTION
M  V30 END CTAB
M  END
>  <Structure No>
4350

>  <LogS>
-4.2719

>  <MMFF94 Energy>
6.2046

$$$$
Compound 4351
Actelion Java MolfileCreator 2.0

  0  0  0  0  0  0              0 V3000
M  V30 BEGIN CTAB
M  V30 COUNTS 14 13 0 0 0
M  V30 BEGIN ATOM
M  V30 1 Cl -1.5604 -1.6426 1.3961 0
M  V30 2 C -0.6873 -0.7119 0.144 0 CFG=2
M  V30 3 C 0.6891 -0.26 0.6846 0 CFG=2
M  V30 4 C -1.5729 0.4426 -0.3385 0
M  V30 5 Cl 0.5371 0.8728 2.0632 0
M  V30 6 C 1.5688 0.3657 -0.4001 0
M  V30 7 H -0.5239 -1.4034 -0.711 0
M  V30 8 H 1.2197 -1.1618 1.0609 0
M  V30 9 H -1.0977 0.975 -1.1878 0
M  V30 10 H -2.5453 0.0419 -0.6955 0
M  V30 11 H -1.7729 1.1631 0.4815 0
M  V30 12 H 1.6409 -0.3101 -1.2786 0
M  V30 13 H 2.5926 0.5292 -0.0019 0
M  V30 14 H 1.163 1.3466 -0.7245 0
M  V30 END ATOM
M  V30 BEGIN BOND
M  V30 1 1 1 2
M  V30 2 1 2 3
M  V30 3 1 2 4
M  V30 4 1 3 5
M  V30 5 1 3 6
M  V30 6 1 2 7
M  V30 7 1 3 8
M  V30 8 1 4 9
M  V30 9 1 4 10
M  V30 10 1 4 11
M  V30 11 1 6 12
M  V30 12 1 6 13
M  V30 13 1 6 14
M  V30 END BOND
M  V30 BEGIN COLLECTION
M  V30 MDLV30/STEABS ATOMS=(2 2 3)
M  V30 END COLLECTION
M  V30 END CTAB
M  END
>  <Structure No>
4351

>  <LogS>
-2.3541

>  <MMFF94 Energy>
11.74

$$$$
Compound 4352
Actelion Java MolfileCreator 2.0

  0  0  0  0  0  0              0 V3000
M  V30 BEGIN CTAB
M  V30 COUNTS 22 23 0 0 0
M  V30 BEGIN ATOM
M  V30 1 O 2.5419 -1.1473 1.3113 0
M  V30 2 N 2.559 -0.4522 0.2744 0 CHG=1
M  V30 3 O 3.7489 -0.2879 -0.3961 0 CHG=-1
M  V30 4 C 1.4429 0.3958 -0.0334 0
M  V30 5 C 0.0936 -0.0711 0.0095 0
M  V30 6 C 1.6972 1.7616 -0.2349 0
M  V30 7 C -0.2691 -1.4536 0.0332 0
M  V30 8 C -0.9512 0.899 0.0358 0
M  V30 9 C 0.655 2.6815 -0.2989 0
M  V30 10 C 0.6535 -2.5488 -0.3364 0
M  V30 11 C -1.6068 -1.812 0.2701 0
M  V30 12 C -0.6595 2.2599 -0.1319 0
M  V30 13 C -2.2811 0.5027 0.2319 0
M  V30 14 O 1.4567 -2.4112 -1.2965 0
M  V30 15 O 0.5858 -3.7705 0.3229 0 CHG=-1
M  V30 16 C -2.5988 -0.8423 0.3819 0
M  V30 17 H 2.716 2.125 -0.2833 0
M  V30 18 H 0.8712 3.7338 -0.4323 0
M  V30 19 H -1.8986 -2.8548 0.3099 0
M  V30 20 H -1.4517 2.9996 -0.1373 0
M  V30 21 H -3.0769 1.2372 0.2768 0
M  V30 22 H -3.6277 -1.1387 0.5406 0
M  V30 END ATOM
M  V30 BEGIN BOND
M  V30 1 2 1 2
M  V30 2 1 2 3
M  V30 3 1 2 4
M  V30 4 1 4 5
M  V30 5 2 4 6
M  V30 6 2 5 7
M  V30 7 1 5 8
M  V30 8 1 6 9
M  V30 9 1 7 10
M  V30 10 1 7 11
M  V30 11 1 8 12
M  V30 12 2 8 13
M  V30 13 2 10 14
M  V30 14 1 10 15
M  V30 15 2 11 16
M  V30 16 2 9 12
M  V30 17 1 13 16
M  V30 18 1 6 17
M  V30 19 1 9 18
M  V30 20 1 11 19
M  V30 21 1 12 20
M  V30 22 1 13 21
M  V30 23 1 16 22
M  V30 END BOND
M  V30 END CTAB
M  END
>  <Structure No>
4352

>  <LogS>
-2.7501

>  <MMFF94 Energy>
84.277

$$$$
Compound 4353
Actelion Java MolfileCreator 2.0

  0  0  0  0  0  0              0 V3000
M  V30 BEGIN CTAB
M  V30 COUNTS 29 28 0 0 0
M  V30 BEGIN ATOM
M  V30 1 C -0.4626 0.1541 0.8482 0 CFG=2
M  V30 2 C 0.9562 0.3019 0.2419 0
M  V30 3 C -1.5275 -0.0694 -0.2576 0
M  V30 4 C -0.7927 1.3976 1.6912 0
M  V30 5 C 1.5562 -1.0419 -0.2128 0
M  V30 6 C -2.9397 -0.3733 0.29 0
M  V30 7 C 2.967 -0.8872 -0.8034 0
M  V30 8 C -3.8816 0.825 0.1712 0
M  V30 9 C 4.0288 -0.6026 0.259 0
M  V30 10 H -0.4631 -0.7234 1.5329 0
M  V30 11 H 1.6313 0.7334 1.0108 0
M  V30 12 H 0.9292 1.0126 -0.6132 0
M  V30 13 H -1.2277 -0.9414 -0.8734 0
M  V30 14 H -1.5478 0.8045 -0.9461 0
M  V30 15 H 6.0E-4 1.5773 2.4477 0
M  V30 16 H -1.7398 1.2529 2.25 0
M  V30 17 H -0.8804 2.2972 1.0448 0
M  V30 18 H 1.5826 -1.755 0.64 0
M  V30 19 H 0.9171 -1.4876 -1.002 0
M  V30 20 H -3.3834 -1.2089 -0.2946 0
M  V30 21 H -2.8973 -0.7107 1.3481 0
M  V30 22 H 2.9769 -0.0794 -1.5671 0
M  V30 23 H 3.238 -1.8356 -1.316 0
M  V30 24 H -3.4843 1.7019 0.7211 0
M  V30 25 H -4.873 0.5612 0.5961 0
M  V30 26 H -4.0181 1.0999 -0.8964 0
M  V30 27 H 3.8858 0.4043 0.7018 0
M  V30 28 H 5.0349 -0.6315 -0.2095 0
M  V30 29 H 3.9922 -1.3696 1.0616 0
M  V30 END ATOM
M  V30 BEGIN BOND
M  V30 1 1 1 2
M  V30 2 1 1 3
M  V30 3 1 1 4
M  V30 4 1 2 5
M  V30 5 1 3 6
M  V30 6 1 5 7
M  V30 7 1 6 8
M  V30 8 1 7 9
M  V30 9 1 1 10
M  V30 10 1 2 11
M  V30 11 1 2 12
M  V30 12 1 3 13
M  V30 13 1 3 14
M  V30 14 1 4 15
M  V30 15 1 4 16
M  V30 16 1 4 17
M  V30 17 1 5 18
M  V30 18 1 5 19
M  V30 19 1 6 20
M  V30 20 1 6 21
M  V30 21 1 7 22
M  V30 22 1 7 23
M  V30 23 1 8 24
M  V30 24 1 8 25
M  V30 25 1 8 26
M  V30 26 1 9 27
M  V30 27 1 9 28
M  V30 28 1 9 29
M  V30 END BOND
M  V30 BEGIN COLLECTION
M  V30 MDLV30/STEABS ATOMS=(1 1)
M  V30 END COLLECTION
M  V30 END CTAB
M  END
>  <Structure No>
4353

>  <LogS>
-6.0474

>  <MMFF94 Energy>
0.98011

$$$$
Compound 4354
Actelion Java MolfileCreator 2.0

  0  0  0  0  0  0              0 V3000
M  V30 BEGIN CTAB
M  V30 COUNTS 22 23 0 0 0
M  V30 BEGIN ATOM
M  V30 1 O 1.904 -1.1896 -0.1585 0
M  V30 2 C 1.0424 -0.0949 0.0313 0
M  V30 3 C 3.3233 -1.1294 -0.0594 0
M  V30 4 C -0.3511 -0.2838 -0.0944 0
M  V30 5 C 1.5362 1.1871 0.3447 0
M  V30 6 C -1.232 0.8129 0.0947 0
M  V30 7 C -0.8886 -1.5472 -0.4062 0
M  V30 8 C 0.6624 2.2601 0.5293 0
M  V30 9 C -0.7144 2.0776 0.4057 0
M  V30 10 C -2.6178 0.6263 -0.0302 0
M  V30 11 C -2.2705 -1.7171 -0.5273 0
M  V30 12 C -3.1319 -0.6346 -0.3399 0
M  V30 13 H 3.7291 -0.4217 -0.8129 0
M  V30 14 H 3.6218 -0.8143 0.9627 0
M  V30 15 H 3.743 -2.137 -0.2567 0
M  V30 16 H 2.5974 1.3664 0.4485 0
M  V30 17 H -0.2463 -2.4059 -0.5572 0
M  V30 18 H 1.0557 3.2396 0.7696 0
M  V30 19 H -1.3744 2.9244 0.553 0
M  V30 20 H -3.3021 1.4546 0.1116 0
M  V30 21 H -2.6751 -2.692 -0.7672 0
M  V30 22 H -4.2012 -0.7731 -0.4352 0
M  V30 END ATOM
M  V30 BEGIN BOND
M  V30 1 1 1 2
M  V30 2 1 1 3
M  V30 3 1 2 4
M  V30 4 2 2 5
M  V30 5 1 4 6
M  V30 6 2 4 7
M  V30 7 1 5 8
M  V30 8 1 6 9
M  V30 9 2 6 10
M  V30 10 1 7 11
M  V30 11 1 10 12
M  V30 12 2 8 9
M  V30 13 2 11 12
M  V30 14 1 3 13
M  V30 15 1 3 14
M  V30 16 1 3 15
M  V30 17 1 5 16
M  V30 18 1 7 17
M  V30 19 1 8 18
M  V30 20 1 9 19
M  V30 21 1 10 20
M  V30 22 1 11 21
M  V30 23 1 12 22
M  V30 END BOND
M  V30 END CTAB
M  END
>  <Structure No>
4354

>  <LogS>
-4.1992

>  <MMFF94 Energy>
44.125

$$$$
Compound 4355
Actelion Java MolfileCreator 2.0

  0  0  0  0  0  0              0 V3000
M  V30 BEGIN CTAB
M  V30 COUNTS 29 30 0 0 0
M  V30 BEGIN ATOM
M  V30 1 O 0.7178 2.0748 0.7178 0
M  V30 2 C 0.3366 1.0628 -0.1825 0 CFG=2
M  V30 3 C -1.1503 0.6716 0.0356 0 CFG=2
M  V30 4 C 1.0861 -0.2868 0.0903 0
M  V30 5 C -1.0627 -0.3257 1.1694 0
M  V30 6 C -1.6105 -0.2255 -1.1367 0
M  V30 7 C -2.0965 1.8492 0.3038 0
M  V30 8 C -0.103 -1.2467 0.4367 0 CFG=1
M  V30 9 C 1.9005 -0.7323 -1.1484 0
M  V30 10 C 2.0685 -0.2196 1.2893 0
M  V30 11 C -0.9456 -1.5723 -0.8143 0
M  V30 12 H 1.5534 2.4728 0.3592 0
M  V30 13 H 0.478 1.4291 -1.2276 0
M  V30 14 H -0.6519 0.1105 2.1054 0
M  V30 15 H -2.0403 -0.8102 1.4028 0
M  V30 16 H -1.2796 0.1684 -2.1224 0
M  V30 17 H -2.7172 -0.342 -1.1475 0
M  V30 18 H -2.0821 2.5489 -0.5584 0
M  V30 19 H -3.1354 1.4848 0.4519 0
M  V30 20 H -1.7904 2.3987 1.2191 0
M  V30 21 H 0.1852 -2.1517 1.0144 0
M  V30 22 H 2.2098 -1.7944 -1.0452 0
M  V30 23 H 1.3281 -0.6127 -2.0914 0
M  V30 24 H 2.8137 -0.1084 -1.2566 0
M  V30 25 H 1.5729 0.1107 2.2243 0
M  V30 26 H 2.8975 0.4891 1.0777 0
M  V30 27 H 2.5122 -1.2211 1.477 0
M  V30 28 H -1.7214 -2.3271 -0.555 0
M  V30 29 H -0.3612 -1.9804 -1.6625 0
M  V30 END ATOM
M  V30 BEGIN BOND
M  V30 1 1 1 2
M  V30 2 1 2 3
M  V30 3 1 2 4
M  V30 4 1 3 5
M  V30 5 1 3 6
M  V30 6 1 3 7
M  V30 7 1 4 8
M  V30 8 1 4 9
M  V30 9 1 4 10
M  V30 10 1 6 11
M  V30 11 1 5 8
M  V30 12 1 8 11
M  V30 13 1 1 12
M  V30 14 1 2 13
M  V30 15 1 5 14
M  V30 16 1 5 15
M  V30 17 1 6 16
M  V30 18 1 6 17
M  V30 19 1 7 18
M  V30 20 1 7 19
M  V30 21 1 7 20
M  V30 22 1 8 21
M  V30 23 1 9 22
M  V30 24 1 9 23
M  V30 25 1 9 24
M  V30 26 1 10 25
M  V30 27 1 10 26
M  V30 28 1 10 27
M  V30 29 1 11 28
M  V30 30 1 11 29
M  V30 END BOND
M  V30 BEGIN COLLECTION
M  V30 MDLV30/STEABS ATOMS=(3 2 3 8)
M  V30 END COLLECTION
M  V30 END CTAB
M  END
>  <Structure No>
4355

>  <LogS>
-2.2702

>  <MMFF94 Energy>
53.206

$$$$
Compound 4356
Actelion Java MolfileCreator 2.0

  0  0  0  0  0  0              0 V3000
M  V30 BEGIN CTAB
M  V30 COUNTS 35 34 0 0 0
M  V30 BEGIN ATOM
M  V30 1 S -1.3971 0.3286 -1.1504 0
M  V30 2 O -0.8512 0.8651 -2.4455 0
M  V30 3 O -2.4744 -0.6645 -1.4822 0
M  V30 4 C -0.0447 -0.4729 -0.2241 0
M  V30 5 C -2.171 1.6595 -0.2222 0
M  V30 6 S 1.2662 0.7661 0.0149 0
M  V30 7 C -0.4876 -0.9663 1.1945 0
M  V30 8 C 0.587 -1.6206 -1.0773 0
M  V30 9 C -1.9251 3.0212 -0.8631 0
M  V30 10 O 1.7644 1.2408 -1.3219 0
M  V30 11 O 0.729 1.9458 0.7758 0
M  V30 12 C 2.6566 0.1041 0.9334 0
M  V30 13 C -1.9066 -1.5368 1.3255 0
M  V30 14 C -0.2259 -2.9075 -1.2334 0
M  V30 15 C 3.644 1.2065 1.2968 0
M  V30 16 H -3.2662 1.4793 -0.1811 0
M  V30 17 H -1.7966 1.6651 0.8208 0
M  V30 18 H -0.4265 -0.128 1.9216 0
M  V30 19 H 0.2305 -1.7344 1.5548 0
M  V30 20 H 0.8199 -1.2356 -2.0937 0
M  V30 21 H 1.5536 -1.9277 -0.6292 0
M  V30 22 H -2.3866 3.8145 -0.2382 0
M  V30 23 H -0.8371 3.2231 -0.9473 0
M  V30 24 H -2.3833 3.0563 -1.8742 0
M  V30 25 H 3.1835 -0.6542 0.319 0
M  V30 26 H 2.2912 -0.3782 1.8636 0
M  V30 27 H -2.6633 -0.7305 1.2412 0
M  V30 28 H -2.0221 -1.9949 2.3303 0
M  V30 29 H -2.1235 -2.3149 0.5717 0
M  V30 30 H 0.315 -3.5924 -1.92 0
M  V30 31 H -0.3226 -3.4314 -0.2605 0
M  V30 32 H -1.2216 -2.7199 -1.6746 0
M  V30 33 H 3.1596 1.9581 1.9553 0
M  V30 34 H 4.0174 1.7072 0.3785 0
M  V30 35 H 4.508 0.7671 1.8384 0
M  V30 END ATOM
M  V30 BEGIN BOND
M  V30 1 2 1 2
M  V30 2 2 1 3
M  V30 3 1 1 4
M  V30 4 1 1 5
M  V30 5 1 4 6
M  V30 6 1 4 7
M  V30 7 1 4 8
M  V30 8 1 5 9
M  V30 9 2 6 10
M  V30 10 2 6 11
M  V30 11 1 6 12
M  V30 12 1 7 13
M  V30 13 1 8 14
M  V30 14 1 12 15
M  V30 15 1 5 16
M  V30 16 1 5 17
M  V30 17 1 7 18
M  V30 18 1 7 19
M  V30 19 1 8 20
M  V30 20 1 8 21
M  V30 21 1 9 22
M  V30 22 1 9 23
M  V30 23 1 9 24
M  V30 24 1 12 25
M  V30 25 1 12 26
M  V30 26 1 13 27
M  V30 27 1 13 28
M  V30 28 1 13 29
M  V30 29 1 14 30
M  V30 30 1 14 31
M  V30 31 1 14 32
M  V30 32 1 15 33
M  V30 33 1 15 34
M  V30 34 1 15 35
M  V30 END BOND
M  V30 END CTAB
M  END
>  <Structure No>
4356

>  <LogS>
-2.0625

>  <MMFF94 Energy>
-46.48

$$$$
Compound 4357
Actelion Java MolfileCreator 2.0

  0  0  0  0  0  0              0 V3000
M  V30 BEGIN CTAB
M  V30 COUNTS 23 24 0 0 0
M  V30 BEGIN ATOM
M  V30 1 Cl -4.6899 -0.5301 -2.2103 0
M  V30 2 C -3.3807 -0.4234 -1.0412 0
M  V30 3 C -2.9665 0.8141 -0.5226 0
M  V30 4 C -2.7486 -1.5992 -0.6222 0
M  V30 5 Cl -3.7366 2.3152 -1.0185 0
M  V30 6 C -1.9215 0.8638 0.4061 0
M  V30 7 C -1.7022 -1.5511 0.3058 0
M  V30 8 C -1.2785 -0.3108 0.817 0
M  V30 9 Cl -0.959 -3.0606 0.8186 0
M  V30 10 S 0.0686 -0.1964 2.0031 0
M  V30 11 C 1.2999 0.0994 0.7321 0
M  V30 12 C 2.0039 -0.9728 0.1694 0
M  V30 13 C 1.5678 1.4072 0.3074 0
M  V30 14 C 2.9601 -0.7395 -0.8238 0
M  V30 15 C 2.5238 1.6399 -0.6861 0
M  V30 16 C 3.2197 0.5667 -1.254 0
M  V30 17 Cl 4.4186 0.8588 -2.5006 0
M  V30 18 H -3.0737 -2.5538 -1.0169 0
M  V30 19 H -1.6036 1.8192 0.8047 0
M  V30 20 H 1.8135 -1.9851 0.5002 0
M  V30 21 H 1.0333 2.2422 0.7423 0
M  V30 22 H 3.4984 -1.5729 -1.2569 0
M  V30 23 H 2.7226 2.6526 -1.0131 0
M  V30 END ATOM
M  V30 BEGIN BOND
M  V30 1 1 1 2
M  V30 2 2 2 3
M  V30 3 1 2 4
M  V30 4 1 3 5
M  V30 5 1 3 6
M  V30 6 2 4 7
M  V30 7 2 6 8
M  V30 8 1 7 9
M  V30 9 1 8 10
M  V30 10 1 10 11
M  V30 11 2 11 12
M  V30 12 1 11 13
M  V30 13 1 12 14
M  V30 14 2 13 15
M  V30 15 2 14 16
M  V30 16 1 16 17
M  V30 17 1 7 8
M  V30 18 1 15 16
M  V30 19 1 4 18
M  V30 20 1 6 19
M  V30 21 1 12 20
M  V30 22 1 13 21
M  V30 23 1 14 22
M  V30 24 1 15 23
M  V30 END BOND
M  V30 END CTAB
M  END
>  <Structure No>
4357

>  <LogS>
-7.0335

>  <MMFF94 Energy>
39.212

$$$$
Compound 4358
Actelion Java MolfileCreator 2.0

  0  0  0  0  0  0              0 V3000
M  V30 BEGIN CTAB
M  V30 COUNTS 20 21 0 0 0
M  V30 BEGIN ATOM
M  V30 1 Cl 2.6908 2.8903 0.0 0
M  V30 2 C 2.0197 1.2698 0.0793 0
M  V30 3 C 2.5188 0.1238 -0.6504 0
M  V30 4 C 1.0268 0.8845 0.8668 0
M  V30 5 Cl 3.8805 0.1446 -1.7587 0
M  V30 6 C 1.8227 -0.9491 -0.3046 0
M  V30 7 Cl 0.2466 1.9438 2.0363 0
M  V30 8 C 0.751 -0.5931 0.6986 0
M  V30 9 Cl 2.1961 -2.5741 -0.8679 0
M  V30 10 Cl 1.1148 -1.4407 2.234 0
M  V30 11 C -0.7012 -0.8933 0.1769 0
M  V30 12 Cl -0.9966 -2.6447 -0.0536 0
M  V30 13 C -1.0353 -0.1581 -1.1022 0
M  V30 14 C -1.778 -0.3467 1.0845 0
M  V30 15 Cl -0.2759 -0.4306 -2.6665 0
M  V30 16 C -2.0599 0.6612 -0.9193 0
M  V30 17 Cl -2.0947 -0.8803 2.7315 0
M  V30 18 C -2.5257 0.5414 0.4459 0
M  V30 19 Cl -2.8 1.6634 -2.1566 0
M  V30 20 Cl -3.9104 1.3848 1.1204 0
M  V30 END ATOM
M  V30 BEGIN BOND
M  V30 1 1 1 2
M  V30 2 1 2 3
M  V30 3 2 2 4
M  V30 4 1 3 5
M  V30 5 2 3 6
M  V30 6 1 4 7
M  V30 7 1 4 8
M  V30 8 1 6 9
M  V30 9 1 8 10
M  V30 10 1 8 11
M  V30 11 1 11 12
M  V30 12 1 11 13
M  V30 13 1 11 14
M  V30 14 1 13 15
M  V30 15 2 13 16
M  V30 16 1 14 17
M  V30 17 2 14 18
M  V30 18 1 16 19
M  V30 19 1 18 20
M  V30 20 1 6 8
M  V30 21 1 16 18
M  V30 END BOND
M  V30 END CTAB
M  END
>  <Structure No>
4358

>  <LogS>
-7.2784

>  <MMFF94 Energy>
64.974

$$$$
Compound 4359
Actelion Java MolfileCreator 2.0

  0  0  0  0  0  0              0 V3000
M  V30 BEGIN CTAB
M  V30 COUNTS 17 17 0 0 0
M  V30 BEGIN ATOM
M  V30 1 O 2.9957 -1.024 0.3937 0
M  V30 2 N 2.322 0.1627 0.2134 0
M  V30 3 C 1.0312 0.2102 0.0891 0
M  V30 4 C 0.3778 1.5261 -0.0505 0
M  V30 5 C 0.1897 -1.044 0.1701 0
M  V30 6 C -0.9528 1.635 -0.1134 0
M  V30 7 C -1.1812 -0.8332 -0.4858 0
M  V30 8 C -1.8513 0.4388 0.0474 0
M  V30 9 H 4.0034 -1.0247 0.4872 0
M  V30 10 H 0.9865 2.4188 -0.1281 0
M  V30 11 H 0.0522 -1.3155 1.2391 0
M  V30 12 H 0.7008 -1.8865 -0.3432 0
M  V30 13 H -1.4 2.6146 -0.2282 0
M  V30 14 H -1.8309 -1.7104 -0.2781 0
M  V30 15 H -1.0559 -0.7504 -1.5882 0
M  V30 16 H -2.0896 0.31 1.1253 0
M  V30 17 H -2.8015 0.615 -0.5002 0
M  V30 END ATOM
M  V30 BEGIN BOND
M  V30 1 1 1 2
M  V30 2 2 2 3
M  V30 3 1 3 4
M  V30 4 1 3 5
M  V30 5 2 4 6
M  V30 6 1 5 7
M  V30 7 1 6 8
M  V30 8 1 7 8
M  V30 9 1 1 9
M  V30 10 1 4 10
M  V30 11 1 5 11
M  V30 12 1 5 12
M  V30 13 1 6 13
M  V30 14 1 7 14
M  V30 15 1 7 15
M  V30 16 1 8 16
M  V30 17 1 8 17
M  V30 END BOND
M  V30 END CTAB
M  END
>  <Structure No>
4359

>  <LogS>
-0.9667

>  <MMFF94 Energy>
22.739

$$$$
Compound 4360
Actelion Java MolfileCreator 2.0

  0  0  0  0  0  0              0 V3000
M  V30 BEGIN CTAB
M  V30 COUNTS 18 19 0 0 0
M  V30 BEGIN ATOM
M  V30 1 Cl -4.1093 1.173 -0.3909 0
M  V30 2 C -2.4945 0.4584 -0.2751 0
M  V30 3 C -2.3472 -0.9258 -0.392 0
M  V30 4 C -1.3703 1.2781 -0.0887 0
M  V30 5 Cl -3.7676 -1.9246 -0.734 0
M  V30 6 C -1.0884 -1.5223 -0.2188 0
M  V30 7 Cl -1.6817 2.9848 0.2697 0
M  V30 8 C -0.0678 0.7031 -0.0221 0
M  V30 9 Cl -0.9661 -3.2466 -0.6057 0
M  V30 10 C 0.0494 -0.7186 0.0827 0
M  V30 11 C 1.1226 1.4863 -0.0556 0
M  V30 12 C 1.2994 -1.2732 0.4845 0
M  V30 13 Cl 1.1557 3.1502 -0.6628 0
M  V30 14 C 2.3629 0.897 0.2344 0
M  V30 15 Cl 1.4552 -2.9193 1.1202 0
M  V30 16 C 2.4419 -0.4607 0.5538 0
M  V30 17 Cl 3.8382 1.8746 0.2255 0
M  V30 18 Cl 4.0018 -1.1538 1.0207 0
M  V30 END ATOM
M  V30 BEGIN BOND
M  V30 1 1 1 2
M  V30 2 1 2 3
M  V30 3 2 2 4
M  V30 4 1 3 5
M  V30 5 2 3 6
M  V30 6 1 4 7
M  V30 7 1 4 8
M  V30 8 1 6 9
M  V30 9 1 6 10
M  V30 10 2 8 11
M  V30 11 2 10 12
M  V30 12 1 11 13
M  V30 13 1 11 14
M  V30 14 1 12 15
M  V30 15 1 12 16
M  V30 16 1 14 17
M  V30 17 1 16 18
M  V30 18 1 8 10
M  V30 19 2 14 16
M  V30 END BOND
M  V30 END CTAB
M  END
>  <Structure No>
4360

>  <LogS>
-9.703

>  <MMFF94 Energy>
85.472

$$$$
Compound 4361
Actelion Java MolfileCreator 2.0

  0  0  0  0  0  0              0 V3000
M  V30 BEGIN CTAB
M  V30 COUNTS 15 15 0 0 0
M  V30 BEGIN ATOM
M  V30 1 N -1.8079 -2.5948 2.4374 0
M  V30 2 C -1.3735 -1.7712 1.7503 0
M  V30 3 C -0.833 -0.7466 0.8956 0
M  V30 4 C 0.4034 -0.9388 0.2642 0
M  V30 5 C -1.5421 0.4444 0.6936 0
M  V30 6 C 0.9324 0.0583 -0.5693 0
M  V30 7 C -1.0169 1.4391 -0.1364 0
M  V30 8 N 2.1939 -0.1371 -1.2139 0
M  V30 9 C 0.2163 1.2482 -0.7666 0
M  V30 10 H 0.9537 -1.8596 0.4193 0
M  V30 11 H -2.4988 0.6035 1.1767 0
M  V30 12 H -1.5661 2.3589 -0.2915 0
M  V30 13 H 2.735 -1.0193 -1.0735 0
M  V30 14 H 2.596 0.5991 -1.836 0
M  V30 15 H 0.6134 2.0255 -1.4072 0
M  V30 END ATOM
M  V30 BEGIN BOND
M  V30 1 3 1 2
M  V30 2 1 2 3
M  V30 3 2 3 4
M  V30 4 1 3 5
M  V30 5 1 4 6
M  V30 6 2 5 7
M  V30 7 1 6 8
M  V30 8 2 6 9
M  V30 9 1 7 9
M  V30 10 1 4 10
M  V30 11 1 5 11
M  V30 12 1 7 12
M  V30 13 1 8 13
M  V30 14 1 8 14
M  V30 15 1 9 15
M  V30 END BOND
M  V30 END CTAB
M  END
>  <Structure No>
4361

>  <LogS>
-1.1693

>  <MMFF94 Energy>
17.761

$$$$
Compound 4362
Actelion Java MolfileCreator 2.0

  0  0  0  0  0  0              0 V3000
M  V30 BEGIN CTAB
M  V30 COUNTS 27 26 0 0 0
M  V30 BEGIN ATOM
M  V30 1 N 6.219 0.6981 0.1551 0
M  V30 2 C 5.1683 0.3204 0.4596 0
M  V30 3 C 3.8363 -0.1584 0.8459 0
M  V30 4 C 2.7906 0.2847 -0.1804 0
M  V30 5 C 1.3927 -0.2102 0.2103 0
M  V30 6 C 0.3423 0.2439 -0.8147 0
M  V30 7 C -1.0517 -0.3412 -0.5364 0
M  V30 8 C -1.736 0.3134 0.676 0
M  V30 9 C -3.1334 -0.2663 0.9467 0
M  V30 10 C -4.1709 0.1808 -0.0831 0
M  V30 11 H 3.8614 -1.2672 0.9096 0
M  V30 12 H 3.5864 0.2537 1.8468 0
M  V30 13 H 2.7825 1.396 -0.2426 0
M  V30 14 H 3.06 -0.1236 -1.1799 0
M  V30 15 H 1.4 -1.3211 0.2655 0
M  V30 16 H 1.1379 0.1933 1.2131 0
M  V30 17 H 0.288 1.3547 -0.8358 0
M  V30 18 H 0.6599 -0.0956 -1.8251 0
M  V30 19 H -1.672 -0.169 -1.4409 0
M  V30 20 H -0.9758 -1.4401 -0.384 0
M  V30 21 H -1.8074 1.413 0.5263 0
M  V30 22 H -1.1211 0.1359 1.583 0
M  V30 23 H -3.0893 -1.3767 0.9745 0
M  V30 24 H -3.4689 0.0808 1.9481 0
M  V30 25 H -5.177 -0.1662 0.2335 0
M  V30 26 H -3.9539 -0.2579 -1.0785 0
M  V30 27 H -4.1892 1.2886 -0.1618 0
M  V30 END ATOM
M  V30 BEGIN BOND
M  V30 1 3 1 2
M  V30 2 1 2 3
M  V30 3 1 3 4
M  V30 4 1 4 5
M  V30 5 1 5 6
M  V30 6 1 6 7
M  V30 7 1 7 8
M  V30 8 1 8 9
M  V30 9 1 9 10
M  V30 10 1 3 11
M  V30 11 1 3 12
M  V30 12 1 4 13
M  V30 13 1 4 14
M  V30 14 1 5 15
M  V30 15 1 5 16
M  V30 16 1 6 17
M  V30 17 1 6 18
M  V30 18 1 7 19
M  V30 19 1 7 20
M  V30 20 1 8 21
M  V30 21 1 8 22
M  V30 22 1 9 23
M  V30 23 1 9 24
M  V30 24 1 10 25
M  V30 25 1 10 26
M  V30 26 1 10 27
M  V30 END BOND
M  V30 END CTAB
M  END
>  <Structure No>
4362

>  <LogS>
-3.2987

>  <MMFF94 Energy>
-3.0501

$$$$
Compound 4363
Actelion Java MolfileCreator 2.0

  0  0  0  0  0  0              0 V3000
M  V30 BEGIN CTAB
M  V30 COUNTS 20 20 0 0 0
M  V30 BEGIN ATOM
M  V30 1 S 3.3708 2.8887 -0.1603 0
M  V30 2 C 2.7411 1.6042 0.5803 0
M  V30 3 N 2.2409 0.5889 1.1628 0
M  V30 4 C 2.1675 -0.7165 0.5127 0
M  V30 5 C 1.2047 -0.7031 -0.6829 0
M  V30 6 C -0.2031 -0.3763 -0.2559 0
M  V30 7 C -1.0269 -1.3758 0.2885 0
M  V30 8 C -0.6911 0.9377 -0.358 0
M  V30 9 C -2.3243 -1.0673 0.71 0
M  V30 10 C -1.989 1.2418 0.0649 0
M  V30 11 C -2.8053 0.24 0.5972 0
M  V30 12 H 1.8221 -1.467 1.2556 0
M  V30 13 H 3.1811 -1.0223 0.1718 0
M  V30 14 H 1.2196 -1.704 -1.1665 0
M  V30 15 H 1.56 0.0247 -1.4448 0
M  V30 16 H -0.6634 -2.3912 0.3876 0
M  V30 17 H -0.0677 1.7253 -0.7626 0
M  V30 18 H -2.9558 -1.8415 1.1265 0
M  V30 19 H -2.3611 2.2549 -0.0178 0
M  V30 20 H -3.8093 0.4773 0.9249 0
M  V30 END ATOM
M  V30 BEGIN BOND
M  V30 1 2 1 2
M  V30 2 2 2 3
M  V30 3 1 3 4
M  V30 4 1 4 5
M  V30 5 1 5 6
M  V30 6 2 6 7
M  V30 7 1 6 8
M  V30 8 1 7 9
M  V30 9 2 8 10
M  V30 10 2 9 11
M  V30 11 1 10 11
M  V30 12 1 4 12
M  V30 13 1 4 13
M  V30 14 1 5 14
M  V30 15 1 5 15
M  V30 16 1 7 16
M  V30 17 1 8 17
M  V30 18 1 9 18
M  V30 19 1 10 19
M  V30 20 1 11 20
M  V30 END BOND
M  V30 END CTAB
M  END
>  <Structure No>
4363

>  <LogS>
-3.1714

>  <MMFF94 Energy>
24.148

$$$$
Compound 4364
Actelion Java MolfileCreator 2.0

  0  0  0  0  0  0              0 V3000
M  V30 BEGIN CTAB
M  V30 COUNTS 8 7 0 0 0
M  V30 BEGIN ATOM
M  V30 1 Cl 1.6356 1.6356 0.0 0
M  V30 2 C 1.1408 -0.0502 0.1048 0
M  V30 3 Cl 2.4473 -1.1986 0.3755 0
M  V30 4 C -0.1379 -0.468 -0.0093 0
M  V30 5 Cl -0.498 -2.1932 0.1157 0
M  V30 6 C -1.2939 0.4348 -0.2376 0
M  V30 7 O -2.4513 -0.0527 -0.3303 0
M  V30 8 O -1.1456 1.811 -0.354 0 CHG=-1
M  V30 END ATOM
M  V30 BEGIN BOND
M  V30 1 1 1 2
M  V30 2 1 2 3
M  V30 3 2 2 4
M  V30 4 1 4 5
M  V30 5 1 4 6
M  V30 6 2 6 7
M  V30 7 1 6 8
M  V30 END BOND
M  V30 END CTAB
M  END
>  <Structure No>
4364

>  <LogS>
-0.4659

>  <MMFF94 Energy>
13.096

$$$$
Compound 4365
Actelion Java MolfileCreator 2.0

  0  0  0  0  0  0              0 V3000
M  V30 BEGIN CTAB
M  V30 COUNTS 16 17 0 0 0
M  V30 BEGIN ATOM
M  V30 1 F 3.3888 1.2388 0.5779 0
M  V30 2 C 2.8295 -0.0158 0.4163 0
M  V30 3 F 3.4004 -0.6241 -0.6863 0
M  V30 4 F 3.0863 -0.7766 1.541 0
M  V30 5 C 1.3506 0.0997 0.2226 0
M  V30 6 N 0.6343 1.1934 0.6082 0
M  V30 7 N 0.5891 -0.9044 -0.2862 0
M  V30 8 C -0.6216 0.8319 0.2971 0
M  V30 9 C -0.6524 -0.4116 -0.2322 0
M  V30 10 N -1.7455 1.5659 0.48 0
M  V30 11 C -1.8559 -0.9857 -0.6113 0
M  V30 12 C -2.9416 1.0155 0.1078 0
M  V30 13 N -2.9901 -0.2463 -0.4305 0
M  V30 14 H 0.8964 -1.8423 -0.6279 0
M  V30 15 H -1.902 -1.9804 -1.0338 0
M  V30 16 H -3.8556 1.5778 0.2404 0
M  V30 END ATOM
M  V30 BEGIN BOND
M  V30 1 1 1 2
M  V30 2 1 2 3
M  V30 3 1 2 4
M  V30 4 1 2 5
M  V30 5 2 5 6
M  V30 6 1 5 7
M  V30 7 1 6 8
M  V30 8 1 7 9
M  V30 9 1 8 10
M  V30 10 1 9 11
M  V30 11 2 10 12
M  V30 12 2 11 13
M  V30 13 2 8 9
M  V30 14 1 12 13
M  V30 15 1 7 14
M  V30 16 1 11 15
M  V30 17 1 12 16
M  V30 END BOND
M  V30 END CTAB
M  END
>  <Structure No>
4365

>  <LogS>
-0.4505

>  <MMFF94 Energy>
4.2979

$$$$
Compound 4366
Actelion Java MolfileCreator 2.0

  0  0  0  0  0  0              0 V3000
M  V30 BEGIN CTAB
M  V30 COUNTS 26 26 0 0 0
M  V30 BEGIN ATOM
M  V30 1 O 5.0806 1.5855 -0.7132 0
M  V30 2 C 4.6481 0.5127 -0.2159 0
M  V30 3 O 5.4062 -0.1607 0.7332 0 CHG=-1
M  V30 4 C 3.3006 -0.0076 -0.6047 0
M  V30 5 C 2.2197 0.557 0.3214 0
M  V30 6 C 0.8337 0.0273 -0.0638 0
M  V30 7 C -0.2487 0.5918 0.8622 0
M  V30 8 C -1.6042 0.0649 0.4742 0
M  V30 9 C -2.3819 0.7426 -0.4797 0
M  V30 10 C -2.0797 -1.1391 1.0202 0
M  V30 11 C -3.6269 0.2341 -0.863 0
M  V30 12 C -3.3253 -1.6441 0.6341 0
M  V30 13 C -4.0992 -0.957 -0.305 0
M  V30 14 H 3.0845 0.2782 -1.6573 0
M  V30 15 H 3.3094 -1.1173 -0.5413 0
M  V30 16 H 2.2211 1.6677 0.2539 0
M  V30 17 H 2.4462 0.2662 1.3713 0
M  V30 18 H 0.6072 0.3181 -1.1136 0
M  V30 19 H 0.8322 -1.0831 0.0033 0
M  V30 20 H -0.0247 0.3126 1.9155 0
M  V30 21 H -0.248 1.7028 0.8072 0
M  V30 22 H -2.0234 1.6617 -0.9264 0
M  V30 23 H -1.4857 -1.6859 1.7421 0
M  V30 24 H -4.2242 0.7619 -1.5953 0
M  V30 25 H -3.6891 -2.5699 1.0605 0
M  V30 26 H -5.0624 -1.3497 -0.6038 0
M  V30 END ATOM
M  V30 BEGIN BOND
M  V30 1 2 1 2
M  V30 2 1 2 3
M  V30 3 1 2 4
M  V30 4 1 4 5
M  V30 5 1 5 6
M  V30 6 1 6 7
M  V30 7 1 7 8
M  V30 8 2 8 9
M  V30 9 1 8 10
M  V30 10 1 9 11
M  V30 11 2 10 12
M  V30 12 2 11 13
M  V30 13 1 12 13
M  V30 14 1 4 14
M  V30 15 1 4 15
M  V30 16 1 5 16
M  V30 17 1 5 17
M  V30 18 1 6 18
M  V30 19 1 6 19
M  V30 20 1 7 20
M  V30 21 1 7 21
M  V30 22 1 9 22
M  V30 23 1 10 23
M  V30 24 1 11 24
M  V30 25 1 12 25
M  V30 26 1 13 26
M  V30 END BOND
M  V30 END CTAB
M  END
>  <Structure No>
4366

>  <LogS>
-2.4657

>  <MMFF94 Energy>
23.629

$$$$
Compound 4367
Actelion Java MolfileCreator 2.0

  0  0  0  0  0  0              0 V3000
M  V30 BEGIN CTAB
M  V30 COUNTS 16 17 0 0 0
M  V30 BEGIN ATOM
M  V30 1 Cl 4.6573 0.2536 0.0 0
M  V30 2 C 2.91 0.1562 0.0077 0
M  V30 3 N 2.168 1.2662 0.3165 0
M  V30 4 N 2.2951 -1.0254 -0.2941 0
M  V30 5 C 0.803 1.2338 0.3342 0
M  V30 6 C 0.9418 -1.0662 -0.2788 0
M  V30 7 Cl -0.0838 2.6925 0.7384 0
M  V30 8 C 0.1851 0.0194 0.0237 0
M  V30 9 N 0.1762 -2.1375 -0.5485 0
M  V30 10 N -1.1106 -0.3345 -0.0452 0
M  V30 11 C -1.0819 -1.6465 -0.394 0
M  V30 12 C -2.3023 0.4735 0.192 0
M  V30 13 H -1.9706 -2.2478 -0.5365 0
M  V30 14 H -3.2195 -0.1361 0.0479 0
M  V30 15 H -2.2958 0.856 1.2341 0
M  V30 16 H -2.3294 1.3222 -0.5227 0
M  V30 END ATOM
M  V30 BEGIN BOND
M  V30 1 1 1 2
M  V30 2 2 2 3
M  V30 3 1 2 4
M  V30 4 1 3 5
M  V30 5 2 4 6
M  V30 6 1 5 7
M  V30 7 2 5 8
M  V30 8 1 6 9
M  V30 9 1 8 10
M  V30 10 2 9 11
M  V30 11 1 10 12
M  V30 12 1 6 8
M  V30 13 1 10 11
M  V30 14 1 11 13
M  V30 15 1 12 14
M  V30 16 1 12 15
M  V30 17 1 12 16
M  V30 END BOND
M  V30 END CTAB
M  END
>  <Structure No>
4367

>  <LogS>
-1.1522

>  <MMFF94 Energy>
-71.098

$$$$
Compound 4368
Actelion Java MolfileCreator 2.0

  0  0  0  0  0  0              0 V3000
M  V30 BEGIN CTAB
M  V30 COUNTS 21 22 0 0 0
M  V30 BEGIN ATOM
M  V30 1 O -2.5919 2.0245 1.4573 0
M  V30 2 C -1.7736 1.8742 0.5118 0
M  V30 3 O -1.5028 2.9477 -0.3282 0 CHG=-1
M  V30 4 C -1.149 0.553 0.2682 0
M  V30 5 C -1.9715 -0.5941 0.2632 0
M  V30 6 C 0.2429 0.4133 0.0088 0
M  V30 7 O -3.3391 -0.4796 0.5183 0
M  V30 8 C -1.4277 -1.8519 -0.0172 0
M  V30 9 C 0.7699 -0.8727 -0.2899 0
M  V30 10 C 1.1359 1.5064 0.0736 0
M  V30 11 C -0.0726 -1.9902 -0.3024 0
M  V30 12 C 2.1392 -1.0288 -0.5588 0
M  V30 13 C 2.4961 1.3327 -0.1935 0
M  V30 14 C 2.9948 0.0716 -0.5157 0
M  V30 15 H -3.9514 -1.2872 0.5141 0
M  V30 16 H -2.063 -2.7286 -0.0257 0
M  V30 17 H 0.8042 2.4962 0.3514 0
M  V30 18 H 0.3195 -2.9759 -0.524 0
M  V30 19 H 2.5488 -2.0038 -0.795 0
M  V30 20 H 3.1681 2.1799 -0.1431 0
M  V30 21 H 4.0499 -0.0558 -0.7203 0
M  V30 END ATOM
M  V30 BEGIN BOND
M  V30 1 2 1 2
M  V30 2 1 2 3
M  V30 3 1 2 4
M  V30 4 2 4 5
M  V30 5 1 4 6
M  V30 6 1 5 7
M  V30 7 1 5 8
M  V30 8 1 6 9
M  V30 9 2 6 10
M  V30 10 2 8 11
M  V30 11 2 9 12
M  V30 12 1 10 13
M  V30 13 1 12 14
M  V30 14 1 9 11
M  V30 15 2 13 14
M  V30 16 1 7 15
M  V30 17 1 8 16
M  V30 18 1 10 17
M  V30 19 1 11 18
M  V30 20 1 12 19
M  V30 21 1 13 20
M  V30 22 1 14 21
M  V30 END BOND
M  V30 END CTAB
M  END
>  <Structure No>
4368

>  <LogS>
-3.1284

>  <MMFF94 Energy>
28.567

$$$$
Compound 4369
Actelion Java MolfileCreator 2.0

  0  0  0  0  0  0              0 V3000
M  V30 BEGIN CTAB
M  V30 COUNTS 32 31 0 0 0
M  V30 BEGIN ATOM
M  V30 1 Cl 5.5012 -0.6556 -0.0819 0
M  V30 2 C 3.9651 0.1034 0.3369 0
M  V30 3 C 3.9229 1.1996 1.1117 0
M  V30 4 C 2.6944 -0.5202 -0.1655 0
M  V30 5 Cl 5.3777 1.966 1.7397 0
M  V30 6 S 1.9174 0.562 -1.4103 0
M  V30 7 C 0.464 -0.4776 -1.5622 0
M  V30 8 O 0.4563 -1.3586 -2.4631 0
M  V30 9 N -0.6603 -0.3569 -0.6607 0
M  V30 10 C -1.2015 0.9667 -0.2672 0
M  V30 11 C -1.3781 -1.5957 -0.2876 0
M  V30 12 C -0.3355 1.644 0.8026 0
M  V30 13 C -1.4158 1.8748 -1.4844 0
M  V30 14 C -1.5546 -1.7079 1.2319 0
M  V30 15 C -2.7201 -1.6967 -1.0214 0
M  V30 16 H 2.9675 1.6453 1.3723 0
M  V30 17 H 2.9157 -1.5031 -0.6329 0
M  V30 18 H 2.0002 -0.6872 0.6868 0
M  V30 19 H -2.2044 0.8352 0.1903 0
M  V30 20 H -0.7751 -2.4823 -0.5882 0
M  V30 21 H -0.9186 2.448 1.3005 0
M  V30 22 H -0.0305 0.9082 1.5758 0
M  V30 23 H 0.5692 2.112 0.369 0
M  V30 24 H -1.9426 2.8032 -1.1765 0
M  V30 25 H -2.0406 1.3511 -2.2387 0
M  V30 26 H -0.4511 2.159 -1.9522 0
M  V30 27 H -0.5701 -1.5971 1.734 0
M  V30 28 H -2.2486 -0.9361 1.6236 0
M  V30 29 H -1.9657 -2.7067 1.4913 0
M  V30 30 H -3.1821 -2.6889 -0.8315 0
M  V30 31 H -2.5604 -1.589 -2.1151 0
M  V30 32 H -3.4272 -0.9107 -0.6843 0
M  V30 END ATOM
M  V30 BEGIN BOND
M  V30 1 1 1 2
M  V30 2 2 2 3
M  V30 3 1 2 4
M  V30 4 1 3 5
M  V30 5 1 4 6
M  V30 6 1 6 7
M  V30 7 2 7 8
M  V30 8 1 7 9
M  V30 9 1 9 10
M  V30 10 1 9 11
M  V30 11 1 10 12
M  V30 12 1 10 13
M  V30 13 1 11 14
M  V30 14 1 11 15
M  V30 15 1 3 16
M  V30 16 1 4 17
M  V30 17 1 4 18
M  V30 18 1 10 19
M  V30 19 1 11 20
M  V30 20 1 12 21
M  V30 21 1 12 22
M  V30 22 1 12 23
M  V30 23 1 13 24
M  V30 24 1 13 25
M  V30 25 1 13 26
M  V30 26 1 14 27
M  V30 27 1 14 28
M  V30 28 1 14 29
M  V30 29 1 15 30
M  V30 30 1 15 31
M  V30 31 1 15 32
M  V30 END BOND
M  V30 END CTAB
M  END
>  <Structure No>
4369

>  <LogS>
-4.2856

>  <MMFF94 Energy>
-27.29

$$$$
Compound 4370
Actelion Java MolfileCreator 2.0

  0  0  0  0  0  0              0 V3000
M  V30 BEGIN CTAB
M  V30 COUNTS 32 31 0 0 0
M  V30 BEGIN ATOM
M  V30 1 Cl 3.9235 -2.169 0.8338 0
M  V30 2 C 3.0503 -0.9346 1.7407 0
M  V30 3 Cl 2.4583 -1.3953 3.3344 0
M  V30 4 C 2.8381 0.3034 1.2461 0
M  V30 5 Cl 2.0313 1.5288 2.2275 0
M  V30 6 C 3.3417 0.7254 -0.1113 0
M  V30 7 S 2.4187 -0.0835 -1.4683 0
M  V30 8 C 0.9084 0.8674 -1.2383 0
M  V30 9 O 0.8749 2.0574 -1.6523 0
M  V30 10 N -0.2534 0.2875 -0.6057 0
M  V30 11 C -0.6028 -1.1144 -0.9591 0
M  V30 12 C -1.0639 1.183 0.2606 0
M  V30 13 C -0.267 -2.0987 0.1671 0
M  V30 14 C -2.0477 -1.2769 -1.4418 0
M  V30 15 C -2.2387 1.8123 -0.4996 0
M  V30 16 C -1.519 0.5239 1.567 0
M  V30 17 H 3.2612 1.8275 -0.224 0
M  V30 18 H 4.4185 0.4721 -0.2055 0
M  V30 19 H 0.017 -1.4263 -1.8293 0
M  V30 20 H -0.4194 2.0331 0.5813 0
M  V30 21 H 0.7269 -1.8656 0.5946 0
M  V30 22 H -0.2337 -3.1327 -0.2379 0
M  V30 23 H -1.0243 -2.0831 0.9746 0
M  V30 24 H -2.2718 -0.5303 -2.2326 0
M  V30 25 H -2.1825 -2.2882 -1.882 0
M  V30 26 H -2.7734 -1.1774 -0.6116 0
M  V30 27 H -1.9111 2.1505 -1.5052 0
M  V30 28 H -3.0855 1.1079 -0.6118 0
M  V30 29 H -2.6131 2.6973 0.058 0
M  V30 30 H -0.6567 0.0416 2.0733 0
M  V30 31 H -1.9244 1.2982 2.253 0
M  V30 32 H -2.3205 -0.2202 1.3956 0
M  V30 END ATOM
M  V30 BEGIN BOND
M  V30 1 1 1 2
M  V30 2 1 2 3
M  V30 3 2 2 4
M  V30 4 1 4 5
M  V30 5 1 4 6
M  V30 6 1 6 7
M  V30 7 1 7 8
M  V30 8 2 8 9
M  V30 9 1 8 10
M  V30 10 1 10 11
M  V30 11 1 10 12
M  V30 12 1 11 13
M  V30 13 1 11 14
M  V30 14 1 12 15
M  V30 15 1 12 16
M  V30 16 1 6 17
M  V30 17 1 6 18
M  V30 18 1 11 19
M  V30 19 1 12 20
M  V30 20 1 13 21
M  V30 21 1 13 22
M  V30 22 1 13 23
M  V30 23 1 14 24
M  V30 24 1 14 25
M  V30 25 1 14 26
M  V30 26 1 15 27
M  V30 27 1 15 28
M  V30 28 1 15 29
M  V30 29 1 16 30
M  V30 30 1 16 31
M  V30 31 1 16 32
M  V30 END BOND
M  V30 END CTAB
M  END
>  <Structure No>
4370

>  <LogS>
-4.8818

>  <MMFF94 Energy>
-29.404

$$$$
Compound 4371
Actelion Java MolfileCreator 2.0

  0  0  0  0  0  0              0 V3000
M  V30 BEGIN CTAB
M  V30 COUNTS 22 22 0 0 0
M  V30 BEGIN ATOM
M  V30 1 O 2.6131 -1.7142 0.3263 0
M  V30 2 C 2.316 -0.8616 -0.5526 0
M  V30 3 O 3.3007 -0.4078 -1.4213 0 CHG=-1
M  V30 4 C 0.9218 -0.2919 -0.6388 0 CFG=2
M  V30 5 C 0.6878 0.8417 0.3939 0 CFG=2
M  V30 6 C -0.1603 -1.3958 -0.5574 0
M  V30 7 C 0.9464 0.3846 1.8117 0
M  V30 8 C -0.7287 1.473 0.2578 0
M  V30 9 C -1.5848 -0.8456 -0.3238 0
M  V30 10 O 1.996 0.7455 2.4071 0
M  V30 11 O 0.0485 -0.4515 2.4644 0 CHG=-1
M  V30 12 C -1.6988 0.6541 -0.6134 0
M  V30 13 H 0.8368 0.1691 -1.6488 0
M  V30 14 H 1.4253 1.6459 0.168 0
M  V30 15 H 0.0745 -2.1122 0.2598 0
M  V30 16 H -0.1444 -1.9739 -1.5076 0
M  V30 17 H -1.1922 1.6286 1.2576 0
M  V30 18 H -0.6352 2.4839 -0.1963 0
M  V30 19 H -2.3041 -1.3961 -0.9682 0
M  V30 20 H -1.8879 -1.0286 0.73 0
M  V30 21 H -2.7405 0.9899 -0.4191 0
M  V30 22 H -1.486 0.8387 -1.6893 0
M  V30 END ATOM
M  V30 BEGIN BOND
M  V30 1 2 1 2
M  V30 2 1 2 3
M  V30 3 1 2 4
M  V30 4 1 4 5
M  V30 5 1 4 6
M  V30 6 1 5 7
M  V30 7 1 5 8
M  V30 8 1 6 9
M  V30 9 2 7 10
M  V30 10 1 7 11
M  V30 11 1 8 12
M  V30 12 1 9 12
M  V30 13 1 4 13
M  V30 14 1 5 14
M  V30 15 1 6 15
M  V30 16 1 6 16
M  V30 17 1 8 17
M  V30 18 1 8 18
M  V30 19 1 9 19
M  V30 20 1 9 20
M  V30 21 1 12 21
M  V30 22 1 12 22
M  V30 END BOND
M  V30 BEGIN COLLECTION
M  V30 MDLV30/STEABS ATOMS=(2 4 5)
M  V30 END COLLECTION
M  V30 END CTAB
M  END
>  <Structure No>
4371

>  <LogS>
-1.935

>  <MMFF94 Energy>
81.324

$$$$
Compound 4372
Actelion Java MolfileCreator 2.0

  0  0  0  0  0  0              0 V3000
M  V30 BEGIN CTAB
M  V30 COUNTS 13 14 0 0 0
M  V30 BEGIN ATOM
M  V30 1 O -2.826 -1.6141 0.0 0
M  V30 2 C -1.7565 -0.9504 -0.0333 0
M  V30 3 N -0.6119 -1.4864 0.4892 0
M  V30 4 N -1.744 0.3055 -0.5928 0
M  V30 5 C 0.5213 -0.747 0.4377 0
M  V30 6 C -0.5958 1.046 -0.6411 0
M  V30 7 N 1.7297 -1.0988 0.8936 0
M  V30 8 C 0.5539 0.4861 -0.1066 0
M  V30 9 C 2.4762 -0.0027 0.5869 0
M  V30 10 N 1.7894 0.9974 -0.0305 0 CHG=-1
M  V30 11 H -2.6237 0.7064 -0.9894 0
M  V30 12 H -0.5876 2.0348 -1.082 0
M  V30 13 H 3.5312 0.0679 0.8156 0
M  V30 END ATOM
M  V30 BEGIN BOND
M  V30 1 2 1 2
M  V30 2 1 2 3
M  V30 3 1 2 4
M  V30 4 2 3 5
M  V30 5 1 4 6
M  V30 6 1 5 7
M  V30 7 1 5 8
M  V30 8 2 7 9
M  V30 9 1 8 10
M  V30 10 2 6 8
M  V30 11 1 9 10
M  V30 12 1 4 11
M  V30 13 1 6 12
M  V30 14 1 9 13
M  V30 END BOND
M  V30 END CTAB
M  END
>  <Structure No>
4372

>  <LogS>
-1.7136

>  <MMFF94 Energy>
-57.077

$$$$
Compound 4373
Actelion Java MolfileCreator 2.0

  0  0  0  0  0  0              0 V3000
M  V30 BEGIN CTAB
M  V30 COUNTS 28 29 0 0 0
M  V30 BEGIN ATOM
M  V30 1 O -2.7683 -1.8185 -0.6322 0
M  V30 2 C -1.8672 -0.9739 -0.3626 0
M  V30 3 N -2.2106 0.3599 -0.2333 0
M  V30 4 N -0.5577 -1.3937 -0.2075 0
M  V30 5 C -1.244 1.3069 -0.0031 0
M  V30 6 C -3.6114 0.7763 -0.4223 0
M  V30 7 C 0.3939 -0.436 0.0424 0
M  V30 8 C -0.2156 -2.82 -0.3306 0
M  V30 9 O -1.5355 2.5323 0.0698 0
M  V30 10 C 0.0699 0.8867 0.1425 0
M  V30 11 N 1.7389 -0.5744 0.2108 0
M  V30 12 N 1.1803 1.6148 0.3777 0
M  V30 13 C 2.1733 0.6964 0.4147 0
M  V30 14 C 2.5885 -1.7674 0.2048 0
M  V30 15 C 1.2973 3.0618 0.5508 0
M  V30 16 O 3.3821 0.994 0.6184 0
M  V30 17 H -4.3132 0.0067 -0.0357 0
M  V30 18 H -3.8081 0.941 -1.5025 0
M  V30 19 H -3.8379 1.7103 0.135 0
M  V30 20 H 0.4262 -2.9814 -1.2196 0
M  V30 21 H -1.1082 -3.4644 -0.4652 0
M  V30 22 H 0.2736 -3.1784 0.5956 0
M  V30 23 H 2.3248 -2.4298 1.0532 0
M  V30 24 H 3.6564 -1.4899 0.3276 0
M  V30 25 H 2.5046 -2.2971 -0.764 0
M  V30 26 H 0.678 3.3873 1.4129 0
M  V30 27 H 2.351 3.3526 0.7453 0
M  V30 28 H 0.9533 3.5779 -0.3697 0
M  V30 END ATOM
M  V30 BEGIN BOND
M  V30 1 2 1 2
M  V30 2 1 2 3
M  V30 3 1 2 4
M  V30 4 1 3 5
M  V30 5 1 3 6
M  V30 6 1 4 7
M  V30 7 1 4 8
M  V30 8 2 5 9
M  V30 9 1 5 10
M  V30 10 1 7 11
M  V30 11 1 10 12
M  V30 12 1 11 13
M  V30 13 1 11 14
M  V30 14 1 12 15
M  V30 15 2 13 16
M  V30 16 2 7 10
M  V30 17 1 12 13
M  V30 18 1 6 17
M  V30 19 1 6 18
M  V30 20 1 6 19
M  V30 21 1 8 20
M  V30 22 1 8 21
M  V30 23 1 8 22
M  V30 24 1 14 23
M  V30 25 1 14 24
M  V30 26 1 14 25
M  V30 27 1 15 26
M  V30 28 1 15 27
M  V30 29 1 15 28
M  V30 END BOND
M  V30 END CTAB
M  END
>  <Structure No>
4373

>  <LogS>
-0.9527

>  <MMFF94 Energy>
-90.71

$$$$
Compound 4374
Actelion Java MolfileCreator 2.0

  0  0  0  0  0  0              0 V3000
M  V30 BEGIN CTAB
M  V30 COUNTS 39 41 0 0 0
M  V30 BEGIN ATOM
M  V30 1 O 0.9607 0.4002 2.2428 0
M  V30 2 C 0.2429 -0.0452 1.3055 0
M  V30 3 O 0.8157 -0.7767 0.2576 0
M  V30 4 C -1.2323 0.2627 1.2758 0
M  V30 5 C 2.2185 -0.9922 0.1269 0
M  V30 6 O -1.7137 0.6916 2.5252 0
M  V30 7 C -2.0453 -0.8969 0.7455 0
M  V30 8 C -1.5309 1.3034 0.2282 0
M  V30 9 C 2.9076 0.2844 -0.3708 0
M  V30 10 C -2.7013 -0.5603 -0.4251 0
M  V30 11 C -2.1712 -2.1798 1.2869 0
M  V30 12 C -2.3802 0.8132 -0.748 0
M  V30 13 C -1.0598 2.618 0.1658 0
M  V30 14 C 4.3911 0.065 -0.7019 0
M  V30 15 C -3.5077 -1.4738 -1.1047 0
M  V30 16 C -2.9786 -3.1164 0.6206 0
M  V30 17 C -2.7932 1.5988 -1.8246 0
M  V30 18 C -1.462 3.4279 -0.9091 0
M  V30 19 C 5.2458 -0.1583 0.5451 0
M  V30 20 C -3.6444 -2.7647 -0.5699 0
M  V30 21 C -2.3248 2.9202 -1.9003 0
M  V30 22 H 2.6407 -1.3214 1.1004 0
M  V30 23 H 2.376 -1.8065 -0.6117 0
M  V30 24 H -1.5764 -0.053 3.1678 0
M  V30 25 H 2.8065 1.0924 0.3855 0
M  V30 26 H 2.3905 0.6247 -1.2943 0
M  V30 27 H -1.6547 -2.4491 2.199 0
M  V30 28 H -0.396 3.0045 0.9283 0
M  V30 29 H 4.5061 -0.7982 -1.3926 0
M  V30 30 H 4.7706 0.9681 -1.227 0
M  V30 31 H -4.0148 -1.1996 -2.0204 0
M  V30 32 H -3.0884 -4.1146 1.0236 0
M  V30 33 H -3.4563 1.2045 -2.5832 0
M  V30 34 H -1.1065 4.4478 -0.9762 0
M  V30 35 H 6.3169 -0.1992 0.2554 0
M  V30 36 H 4.9835 -1.1191 1.0344 0
M  V30 37 H 5.1067 0.6748 1.2664 0
M  V30 38 H -4.2633 -3.4938 -1.0761 0
M  V30 39 H -2.6288 3.5523 -2.7245 0
M  V30 END ATOM
M  V30 BEGIN BOND
M  V30 1 2 1 2
M  V30 2 1 2 3
M  V30 3 1 2 4
M  V30 4 1 3 5
M  V30 5 1 4 6
M  V30 6 1 4 7
M  V30 7 1 4 8
M  V30 8 1 5 9
M  V30 9 2 7 10
M  V30 10 1 7 11
M  V30 11 2 8 12
M  V30 12 1 8 13
M  V30 13 1 9 14
M  V30 14 1 10 15
M  V30 15 2 11 16
M  V30 16 1 12 17
M  V30 17 2 13 18
M  V30 18 1 14 19
M  V30 19 2 15 20
M  V30 20 2 17 21
M  V30 21 1 10 12
M  V30 22 1 16 20
M  V30 23 1 18 21
M  V30 24 1 5 22
M  V30 25 1 5 23
M  V30 26 1 6 24
M  V30 27 1 9 25
M  V30 28 1 9 26
M  V30 29 1 11 27
M  V30 30 1 13 28
M  V30 31 1 14 29
M  V30 32 1 14 30
M  V30 33 1 15 31
M  V30 34 1 16 32
M  V30 35 1 17 33
M  V30 36 1 18 34
M  V30 37 1 19 35
M  V30 38 1 19 36
M  V30 39 1 19 37
M  V30 40 1 20 38
M  V30 41 1 21 39
M  V30 END BOND
M  V30 END CTAB
M  END
>  <Structure No>
4374

>  <LogS>
-3.8885

>  <MMFF94 Energy>
107.29

$$$$
Compound 4375
Actelion Java MolfileCreator 2.0

  0  0  0  0  0  0              0 V3000
M  V30 BEGIN CTAB
M  V30 COUNTS 21 20 0 0 0
M  V30 BEGIN ATOM
M  V30 1 Cl 3.2476 -0.3956 -2.0585 0
M  V30 2 C 2.1463 -0.9744 -0.7795 0
M  V30 3 C 1.5521 0.1732 -0.0088 0
M  V30 4 O 2.2489 1.2101 0.1692 0
M  V30 5 N 0.232 0.0942 0.5773 0
M  V30 6 C -0.4592 1.3293 0.9788 0
M  V30 7 C -0.4134 -1.2006 0.8429 0
M  V30 8 C -0.8589 2.1501 -0.2446 0
M  V30 9 C -1.4856 -1.4939 -0.2014 0
M  V30 10 H 2.7107 -1.6307 -0.0851 0
M  V30 11 H 1.3505 -1.5675 -1.2727 0
M  V30 12 H 0.1986 1.934 1.6396 0
M  V30 13 H -1.3797 1.0949 1.5572 0
M  V30 14 H -0.8801 -1.19 1.8518 0
M  V30 15 H 0.3311 -2.0243 0.8555 0
M  V30 16 H 0.0406 2.4772 -0.8063 0
M  V30 17 H -1.5069 1.5477 -0.9152 0
M  V30 18 H -1.4201 3.0517 0.0793 0
M  V30 19 H -1.9097 -2.5048 -0.0262 0
M  V30 20 H -2.3055 -0.749 -0.1285 0
M  V30 21 H -1.0536 -1.4584 -1.2231 0
M  V30 END ATOM
M  V30 BEGIN BOND
M  V30 1 1 1 2
M  V30 2 1 2 3
M  V30 3 2 3 4
M  V30 4 1 3 5
M  V30 5 1 5 6
M  V30 6 1 5 7
M  V30 7 1 6 8
M  V30 8 1 7 9
M  V30 9 1 2 10
M  V30 10 1 2 11
M  V30 11 1 6 12
M  V30 12 1 6 13
M  V30 13 1 7 14
M  V30 14 1 7 15
M  V30 15 1 8 16
M  V30 16 1 8 17
M  V30 17 1 8 18
M  V30 18 1 9 19
M  V30 19 1 9 20
M  V30 20 1 9 21
M  V30 END BOND
M  V30 END CTAB
M  END
>  <Structure No>
4375

>  <LogS>
-0.243

>  <MMFF94 Energy>
13.745

$$$$
Compound 4376
Actelion Java MolfileCreator 2.0

  0  0  0  0  0  0              0 V3000
M  V30 BEGIN CTAB
M  V30 COUNTS 24 24 0 0 0
M  V30 BEGIN ATOM
M  V30 1 O 0.1574 -1.4175 -1.5751 0
M  V30 2 C -0.0654 -0.3458 -0.9465 0
M  V30 3 O 0.9453 0.6147 -0.8145 0
M  V30 4 C -1.397 -0.0976 -0.3516 0
M  V30 5 C 2.2793 0.4254 -1.2847 0
M  V30 6 C -1.6445 1.0878 0.3647 0
M  V30 7 C -2.4332 -1.0407 -0.4888 0
M  V30 8 C 3.0578 -0.5298 -0.3736 0
M  V30 9 C -2.902 1.3234 0.9298 0
M  V30 10 C -3.6887 -0.7995 0.0781 0
M  V30 11 C 3.1685 0.0088 1.0509 0
M  V30 12 C -3.9229 0.3811 0.7866 0
M  V30 13 H 2.2649 0.0312 -2.3241 0
M  V30 14 H 2.7923 1.4104 -1.3073 0
M  V30 15 H -0.8685 1.8323 0.4902 0
M  V30 16 H -2.2748 -1.963 -1.0334 0
M  V30 17 H 2.5616 -1.5235 -0.3532 0
M  V30 18 H 4.0802 -0.6672 -0.7868 0
M  V30 19 H -3.0846 2.2379 1.4795 0
M  V30 20 H -4.4805 -1.5292 -0.0317 0
M  V30 21 H 2.1609 0.1093 1.5076 0
M  V30 22 H 3.6727 0.9986 1.0516 0
M  V30 23 H 3.7665 -0.6944 1.6678 0
M  V30 24 H -4.8953 0.5657 1.2249 0
M  V30 END ATOM
M  V30 BEGIN BOND
M  V30 1 2 1 2
M  V30 2 1 2 3
M  V30 3 1 2 4
M  V30 4 1 3 5
M  V30 5 2 4 6
M  V30 6 1 4 7
M  V30 7 1 5 8
M  V30 8 1 6 9
M  V30 9 2 7 10
M  V30 10 1 8 11
M  V30 11 2 9 12
M  V30 12 1 10 12
M  V30 13 1 5 13
M  V30 14 1 5 14
M  V30 15 1 6 15
M  V30 16 1 7 16
M  V30 17 1 8 17
M  V30 18 1 8 18
M  V30 19 1 9 19
M  V30 20 1 10 20
M  V30 21 1 11 21
M  V30 22 1 11 22
M  V30 23 1 11 23
M  V30 24 1 12 24
M  V30 END BOND
M  V30 END CTAB
M  END
>  <Structure No>
4376

>  <LogS>
-2.6701

>  <MMFF94 Energy>
27.479

$$$$
Compound 4377
Actelion Java MolfileCreator 2.0

  0  0  0  0  0  0              0 V3000
M  V30 BEGIN CTAB
M  V30 COUNTS 21 20 0 0 0
M  V30 BEGIN ATOM
M  V30 1 O 1.2005 -0.32 2.3219 0
M  V30 2 C 1.1068 -1.0246 1.2817 0
M  V30 3 O 1.5115 -2.3531 1.3208 0 CHG=-1
M  V30 4 C 0.5149 -0.4603 0.0119 0 CFG=1
M  V30 5 C -1.0367 -0.6111 0.021 0
M  V30 6 C 1.0 0.987 -0.2491 0
M  V30 7 C -1.7425 0.3452 0.9971 0
M  V30 8 C -1.636 -0.4662 -1.3867 0
M  V30 9 C 2.4788 1.0326 -0.4917 0
M  V30 10 O 3.2659 1.3464 0.4395 0
M  V30 11 O 2.9889 0.6907 -1.7376 0 CHG=-1
M  V30 12 H 0.8993 -1.0917 -0.8208 0
M  V30 13 H -1.271 -1.6485 0.352 0
M  V30 14 H 0.7472 1.6478 0.6083 0
M  V30 15 H 0.5002 1.403 -1.1473 0
M  V30 16 H -1.6302 1.4015 0.6741 0
M  V30 17 H -1.3364 0.2327 2.0229 0
M  V30 18 H -2.8274 0.1096 1.0373 0
M  V30 19 H -1.5466 0.5749 -1.7595 0
M  V30 20 H -2.7139 -0.735 -1.3679 0
M  V30 21 H -1.1273 -1.1508 -2.0982 0
M  V30 END ATOM
M  V30 BEGIN BOND
M  V30 1 2 1 2
M  V30 2 1 2 3
M  V30 3 1 2 4
M  V30 4 1 4 5
M  V30 5 1 4 6
M  V30 6 1 5 7
M  V30 7 1 5 8
M  V30 8 1 6 9
M  V30 9 2 9 10
M  V30 10 1 9 11
M  V30 11 1 4 12
M  V30 12 1 5 13
M  V30 13 1 6 14
M  V30 14 1 6 15
M  V30 15 1 7 16
M  V30 16 1 7 17
M  V30 17 1 7 18
M  V30 18 1 8 19
M  V30 19 1 8 20
M  V30 20 1 8 21
M  V30 END BOND
M  V30 BEGIN COLLECTION
M  V30 MDLV30/STEABS ATOMS=(1 4)
M  V30 END COLLECTION
M  V30 END CTAB
M  END
>  <Structure No>
4377

>  <LogS>
-0.4073

>  <MMFF94 Energy>
73.019

$$$$
Compound 4378
Actelion Java MolfileCreator 2.0

  0  0  0  0  0  0              0 V3000
M  V30 BEGIN CTAB
M  V30 COUNTS 34 34 0 0 0
M  V30 BEGIN ATOM
M  V30 1 O 2.052 0.631 -0.4732 0
M  V30 2 C 0.8271 0.4489 -0.7162 0
M  V30 3 O 0.4162 -0.5336 -1.6237 0
M  V30 4 C -0.2108 1.2705 -0.0035 0 CFG=2
M  V30 5 C 1.3159 -1.4342 -2.2654 0
M  V30 6 N 0.1225 2.6944 -0.1112 0
M  V30 7 C -0.3165 0.8546 1.4765 0
M  V30 8 C 1.7583 -2.5281 -1.3007 0
M  V30 9 C -0.0108 3.4182 -1.3423 0
M  V30 10 C -0.766 -0.5777 1.6246 0
M  V30 11 O -0.4292 2.8393 -2.3815 0
M  V30 12 C 0.3622 4.8635 -1.4006 0
M  V30 13 C -2.1225 -0.9125 1.4766 0
M  V30 14 C 0.1725 -1.597 1.8593 0
M  V30 15 C -2.5336 -2.2454 1.5738 0
M  V30 16 C -0.2428 -2.9285 1.9555 0
M  V30 17 C -1.5947 -3.2525 1.8133 0
M  V30 18 H -1.2019 1.1019 -0.4814 0
M  V30 19 H 0.7916 -1.9061 -3.1229 0
M  V30 20 H 2.1987 -0.8859 -2.6599 0
M  V30 21 H 0.4738 3.2085 0.7291 0
M  V30 22 H 0.6616 1.0071 1.9845 0
M  V30 23 H -1.0499 1.5161 1.9883 0
M  V30 24 H 0.8709 -3.072 -0.9131 0
M  V30 25 H 2.318 -2.0896 -0.4484 0
M  V30 26 H 2.4186 -3.2473 -1.8289 0
M  V30 27 H -0.1942 5.4237 -0.6202 0
M  V30 28 H 1.452 4.9717 -1.2212 0
M  V30 29 H 0.1149 5.292 -2.3952 0
M  V30 30 H -2.8584 -0.142 1.2818 0
M  V30 31 H 1.2247 -1.3617 1.9597 0
M  V30 32 H -3.5799 -2.4981 1.4597 0
M  V30 33 H 0.4845 -3.7097 2.1342 0
M  V30 34 H -1.9143 -4.284 1.8855 0
M  V30 END ATOM
M  V30 BEGIN BOND
M  V30 1 2 1 2
M  V30 2 1 2 3
M  V30 3 1 2 4
M  V30 4 1 3 5
M  V30 5 1 4 6
M  V30 6 1 4 7
M  V30 7 1 5 8
M  V30 8 1 6 9
M  V30 9 1 7 10
M  V30 10 2 9 11
M  V30 11 1 9 12
M  V30 12 2 10 13
M  V30 13 1 10 14
M  V30 14 1 13 15
M  V30 15 2 14 16
M  V30 16 2 15 17
M  V30 17 1 16 17
M  V30 18 1 4 18
M  V30 19 1 5 19
M  V30 20 1 5 20
M  V30 21 1 6 21
M  V30 22 1 7 22
M  V30 23 1 7 23
M  V30 24 1 8 24
M  V30 25 1 8 25
M  V30 26 1 8 26
M  V30 27 1 12 27
M  V30 28 1 12 28
M  V30 29 1 12 29
M  V30 30 1 13 30
M  V30 31 1 14 31
M  V30 32 1 15 32
M  V30 33 1 16 33
M  V30 34 1 17 34
M  V30 END BOND
M  V30 BEGIN COLLECTION
M  V30 MDLV30/STEABS ATOMS=(1 4)
M  V30 END COLLECTION
M  V30 END CTAB
M  END
>  <Structure No>
4378

>  <LogS>
-1.7557

>  <MMFF94 Energy>
22.693

$$$$
Compound 4379
Actelion Java MolfileCreator 2.0

  0  0  0  0  0  0              0 V3000
M  V30 BEGIN CTAB
M  V30 COUNTS 12 12 0 0 0
M  V30 BEGIN ATOM
M  V30 1 F -2.7504 0.0832 -0.2498 0
M  V30 2 C -1.3997 0.0517 -0.1309 0
M  V30 3 C -0.6752 1.2472 -0.0517 0
M  V30 4 C -0.729 -1.1765 -0.0874 0
M  V30 5 F -1.3219 2.4386 -0.0935 0
M  V30 6 C 0.7182 1.2139 0.0709 0
M  V30 7 F -1.4277 -2.3362 -0.1639 0
M  V30 8 C 0.6645 -1.2084 0.0352 0
M  V30 9 C 1.3881 -0.0135 0.1144 0
M  V30 10 F 2.7383 -0.0452 0.2332 0
M  V30 11 H 1.2782 2.1383 0.1322 0
M  V30 12 H 1.183 -2.158 0.0688 0
M  V30 END ATOM
M  V30 BEGIN BOND
M  V30 1 1 1 2
M  V30 2 2 2 3
M  V30 3 1 2 4
M  V30 4 1 3 5
M  V30 5 1 3 6
M  V30 6 1 4 7
M  V30 7 2 4 8
M  V30 8 2 6 9
M  V30 9 1 9 10
M  V30 10 1 8 9
M  V30 11 1 6 11
M  V30 12 1 8 12
M  V30 END BOND
M  V30 END CTAB
M  END
>  <Structure No>
4379

>  <LogS>
-2.3057

>  <MMFF94 Energy>
4.5596

$$$$
Compound 4380
Actelion Java MolfileCreator 2.0

  0  0  0  0  0  0              0 V3000
M  V30 BEGIN CTAB
M  V30 COUNTS 24 23 0 0 0
M  V30 BEGIN ATOM
M  V30 1 O -0.8474 2.081 -0.6162 0
M  V30 2 C -1.3562 1.1782 0.3284 0
M  V30 3 C -0.8587 -0.2682 0.0611 0
M  V30 4 C 0.6409 -0.4521 0.4543 0
M  V30 5 C -1.6897 -1.2272 0.9437 0
M  V30 6 C -1.0989 -0.6583 -1.4154 0
M  V30 7 C 1.6431 0.4635 -0.273 0
M  V30 8 C 3.0799 0.1006 0.094 0
M  V30 9 H -1.1877 2.976 -0.3554 0
M  V30 10 H -1.0534 1.4962 1.3521 0
M  V30 11 H -2.4688 1.2074 0.2788 0
M  V30 12 H 0.7529 -0.2801 1.5485 0
M  V30 13 H 0.9305 -1.51 0.2641 0
M  V30 14 H -1.3662 -2.2805 0.7959 0
M  V30 15 H -2.7711 -1.1629 0.6937 0
M  V30 16 H -1.57 -0.9747 2.0199 0
M  V30 17 H -0.7376 -1.6908 -1.6109 0
M  V30 18 H -2.1834 -0.6176 -1.6563 0
M  V30 19 H -0.5791 0.0283 -2.1138 0
M  V30 20 H 1.534 0.3715 -1.3728 0
M  V30 21 H 1.4756 1.5206 0.0203 0
M  V30 22 H 3.2362 0.2008 1.1894 0
M  V30 23 H 3.7816 0.7847 -0.4282 0
M  V30 24 H 3.3064 -0.942 -0.2152 0
M  V30 END ATOM
M  V30 BEGIN BOND
M  V30 1 1 1 2
M  V30 2 1 2 3
M  V30 3 1 3 4
M  V30 4 1 3 5
M  V30 5 1 3 6
M  V30 6 1 4 7
M  V30 7 1 7 8
M  V30 8 1 1 9
M  V30 9 1 2 10
M  V30 10 1 2 11
M  V30 11 1 4 12
M  V30 12 1 4 13
M  V30 13 1 5 14
M  V30 14 1 5 15
M  V30 15 1 5 16
M  V30 16 1 6 17
M  V30 17 1 6 18
M  V30 18 1 6 19
M  V30 19 1 7 20
M  V30 20 1 7 21
M  V30 21 1 8 22
M  V30 22 1 8 23
M  V30 23 1 8 24
M  V30 END BOND
M  V30 END CTAB
M  END
>  <Structure No>
4380

>  <LogS>
-1.4391

>  <MMFF94 Energy>
14.976

$$$$
Compound 4381
Actelion Java MolfileCreator 2.0

  0  0  0  0  0  0              0 V3000
M  V30 BEGIN CTAB
M  V30 COUNTS 21 22 0 0 0
M  V30 BEGIN ATOM
M  V30 1 O 5.3714 0.7311 0.3249 0
M  V30 2 C 4.4358 0.0182 -0.1227 0
M  V30 3 O 4.7352 -1.0584 -0.9501 0 CHG=-1
M  V30 4 C 3.0448 0.3347 0.2383 0
M  V30 5 C 2.012 -0.379 -0.2293 0
M  V30 6 C 0.5942 -0.0899 0.0981 0
M  V30 7 C -0.4101 -0.6034 -0.754 0
M  V30 8 C 0.2113 0.6525 1.2522 0
M  V30 9 C -1.7403 -0.3406 -0.4405 0
M  V30 10 C -1.1466 0.8939 1.5307 0
M  V30 11 O -2.8774 -0.7284 -1.1228 0
M  V30 12 C -2.0929 0.3782 0.6531 0
M  V30 13 C -4.0154 -0.2201 -0.4123 0
M  V30 14 O -3.4695 0.4793 0.7147 0
M  V30 15 H 2.881 1.189 0.8806 0
M  V30 16 H 2.2062 -1.1917 -0.9197 0
M  V30 17 H -0.1638 -1.1816 -1.6358 0
M  V30 18 H 0.9469 1.0256 1.9502 0
M  V30 19 H -1.4466 1.4558 2.4055 0
M  V30 20 H -4.5882 0.4793 -1.0565 0
M  V30 21 H -4.6579 -1.0578 -0.0687 0
M  V30 END ATOM
M  V30 BEGIN BOND
M  V30 1 2 1 2
M  V30 2 1 2 3
M  V30 3 1 2 4
M  V30 4 2 4 5
M  V30 5 1 5 6
M  V30 6 2 6 7
M  V30 7 1 6 8
M  V30 8 1 7 9
M  V30 9 2 8 10
M  V30 10 1 9 11
M  V30 11 2 9 12
M  V30 12 1 11 13
M  V30 13 1 12 14
M  V30 14 1 10 12
M  V30 15 1 13 14
M  V30 16 1 4 15
M  V30 17 1 5 16
M  V30 18 1 7 17
M  V30 19 1 8 18
M  V30 20 1 10 19
M  V30 21 1 13 20
M  V30 22 1 13 21
M  V30 END BOND
M  V30 END CTAB
M  END
>  <Structure No>
4381

>  <LogS>
-3.8523

>  <MMFF94 Energy>
9.663

$$$$
Compound 4382
Actelion Java MolfileCreator 2.0

  0  0  0  0  0  0              0 V3000
M  V30 BEGIN CTAB
M  V30 COUNTS 33 36 0 0 0
M  V30 BEGIN ATOM
M  V30 1 C -0.8835 -0.1605 -0.1605 0
M  V30 2 C -2.2454 0.2715 -0.24 0
M  V30 3 C -0.5998 -1.5552 -0.1803 0
M  V30 4 C 0.2065 0.7387 -0.0624 0
M  V30 5 C -3.277 -0.706 -0.3364 0
M  V30 6 C -2.6282 1.6368 -0.2277 0
M  V30 7 C 0.7234 -2.0157 -0.1047 0
M  V30 8 C -1.6394 -2.4871 -0.2761 0
M  V30 9 C 1.5276 0.2721 0.0143 0
M  V30 10 C -2.961 -2.0679 -0.353 0
M  V30 11 C -4.6232 -0.3136 -0.4158 0
M  V30 12 C -3.9731 2.006 -0.3077 0
M  V30 13 C 1.7868 -1.1139 -0.0079 0
M  V30 14 C 2.599 1.1766 0.1113 0
M  V30 15 C -4.9665 1.0358 -0.4013 0
M  V30 16 C 3.1095 -1.5766 0.0621 0
M  V30 17 C 3.919 0.7089 0.1992 0
M  V30 18 C 4.168 -0.6703 0.1583 0
M  V30 19 C 5.0607 1.6801 0.2631 0
M  V30 20 H 0.0614 1.8063 -0.0424 0
M  V30 21 H -1.9179 2.4429 -0.1575 0
M  V30 22 H 0.9264 -3.0815 -0.1221 0
M  V30 23 H -1.4285 -3.5502 -0.2915 0
M  V30 24 H -3.7427 -2.8153 -0.4263 0
M  V30 25 H -5.4121 -1.0532 -0.4893 0
M  V30 26 H -4.246 3.0536 -0.2968 0
M  V30 27 H 2.4095 2.2442 0.1196 0
M  V30 28 H -6.0062 1.3306 -0.4628 0
M  V30 29 H 3.3254 -2.6383 0.0388 0
M  V30 30 H 5.1832 -1.0449 0.2018 0
M  V30 31 H 5.9239 1.2365 0.8034 0
M  V30 32 H 4.7587 2.6044 0.8002 0
M  V30 33 H 5.3764 1.9465 -0.767 0
M  V30 END ATOM
M  V30 BEGIN BOND
M  V30 1 2 1 2
M  V30 2 1 1 3
M  V30 3 1 1 4
M  V30 4 1 2 5
M  V30 5 1 2 6
M  V30 6 1 3 7
M  V30 7 2 3 8
M  V30 8 2 4 9
M  V30 9 2 5 10
M  V30 10 1 5 11
M  V30 11 2 6 12
M  V30 12 2 7 13
M  V30 13 1 9 14
M  V30 14 2 11 15
M  V30 15 1 13 16
M  V30 16 2 14 17
M  V30 17 2 16 18
M  V30 18 1 17 19
M  V30 19 1 8 10
M  V30 20 1 9 13
M  V30 21 1 12 15
M  V30 22 1 17 18
M  V30 23 1 4 20
M  V30 24 1 6 21
M  V30 25 1 7 22
M  V30 26 1 8 23
M  V30 27 1 10 24
M  V30 28 1 11 25
M  V30 29 1 12 26
M  V30 30 1 14 27
M  V30 31 1 15 28
M  V30 32 1 16 29
M  V30 33 1 18 30
M  V30 34 1 19 31
M  V30 35 1 19 32
M  V30 36 1 19 33
M  V30 END BOND
M  V30 END CTAB
M  END
>  <Structure No>
4382

>  <LogS>
-6.644

>  <MMFF94 Energy>
66.617

$$$$
Compound 4383
Actelion Java MolfileCreator 2.0

  0  0  0  0  0  0              0 V3000
M  V30 BEGIN CTAB
M  V30 COUNTS 33 36 0 0 0
M  V30 BEGIN ATOM
M  V30 1 C -0.9638 0.0802 0.0 0
M  V30 2 C -2.3878 -0.0125 0.1075 0
M  V30 3 C -0.3928 1.2166 -0.6392 0
M  V30 4 C -0.086 -0.9109 0.5033 0
M  V30 5 C -3.1918 1.0345 -0.4274 0
M  V30 6 C -3.0495 -1.1037 0.7251 0
M  V30 7 C 0.9994 1.3415 -0.7632 0
M  V30 8 C -1.2142 2.2261 -1.1534 0
M  V30 9 C 1.305 -0.7803 0.3759 0
M  V30 10 C -2.5961 2.1364 -1.0486 0
M  V30 11 C -4.592 0.9726 -0.3373 0
M  V30 12 C -4.4437 -1.1462 0.8044 0
M  V30 13 C 1.8508 0.3528 -0.2624 0
M  V30 14 C 2.1634 -1.7685 0.8842 0
M  V30 15 C -5.2118 -0.1131 0.2758 0
M  V30 16 C 3.2437 0.4805 -0.3879 0
M  V30 17 C 3.5481 -1.6344 0.7555 0
M  V30 18 C 4.0953 -0.5188 0.1061 0
M  V30 19 C 5.5836 -0.3595 0.0049 0
M  V30 20 H -0.4521 -1.7945 0.9997 0
M  V30 21 H -2.5239 -1.9388 1.1559 0
M  V30 22 H 1.4218 2.213 -1.2529 0
M  V30 23 H -0.7842 3.0936 -1.6409 0
M  V30 24 H -3.2039 2.9355 -1.4572 0
M  V30 25 H -5.2085 1.7665 -0.7426 0
M  V30 26 H -4.9312 -1.9877 1.28 0
M  V30 27 H 1.7646 -2.643 1.3846 0
M  V30 28 H -6.2915 -0.1537 0.3414 0
M  V30 29 H 3.6673 1.3548 -0.8696 0
M  V30 30 H 4.194 -2.4025 1.1626 0
M  V30 31 H 5.8554 0.2032 -0.9134 0
M  V30 32 H 5.9569 0.1929 0.8923 0
M  V30 33 H 6.0824 -1.351 -0.0408 0
M  V30 END ATOM
M  V30 BEGIN BOND
M  V30 1 2 1 2
M  V30 2 1 1 3
M  V30 3 1 1 4
M  V30 4 1 2 5
M  V30 5 1 2 6
M  V30 6 1 3 7
M  V30 7 2 3 8
M  V30 8 2 4 9
M  V30 9 2 5 10
M  V30 10 1 5 11
M  V30 11 2 6 12
M  V30 12 2 7 13
M  V30 13 1 9 14
M  V30 14 2 11 15
M  V30 15 1 13 16
M  V30 16 2 14 17
M  V30 17 2 16 18
M  V30 18 1 18 19
M  V30 19 1 8 10
M  V30 20 1 9 13
M  V30 21 1 12 15
M  V30 22 1 17 18
M  V30 23 1 4 20
M  V30 24 1 6 21
M  V30 25 1 7 22
M  V30 26 1 8 23
M  V30 27 1 10 24
M  V30 28 1 11 25
M  V30 29 1 12 26
M  V30 30 1 14 27
M  V30 31 1 15 28
M  V30 32 1 16 29
M  V30 33 1 17 30
M  V30 34 1 19 31
M  V30 35 1 19 32
M  V30 36 1 19 33
M  V30 END BOND
M  V30 END CTAB
M  END
>  <Structure No>
4383

>  <LogS>
-6.8162

>  <MMFF94 Energy>
66.617

$$$$
Compound 4384
Actelion Java MolfileCreator 2.0

  0  0  0  0  0  0              0 V3000
M  V30 BEGIN CTAB
M  V30 COUNTS 35 39 0 0 0
M  V30 BEGIN ATOM
M  V30 1 C 0.4859 0.0 0.0809 0
M  V30 2 C 1.9048 -0.0755 0.1015 0
M  V30 3 C -0.2868 -1.1895 0.1558 0
M  V30 4 C -0.1437 1.2672 -0.0081 0
M  V30 5 C 2.5501 -1.3227 0.2419 0
M  V30 6 C 2.6847 1.0964 -0.0187 0
M  V30 7 C -1.7055 -1.1083 0.0399 0
M  V30 8 C 0.3957 -2.421 0.3224 0
M  V30 9 C -1.5578 1.3575 0.0557 0
M  V30 10 C 0.6646 2.4177 -0.1651 0
M  V30 11 C 1.7867 -2.4819 0.3639 0
M  V30 12 C 3.9516 -1.3897 0.2645 0
M  V30 13 C 2.0543 2.3313 -0.1661 0
M  V30 14 C 4.0852 1.0122 0.0 0
M  V30 15 C -2.3351 0.1711 -0.0307 0
M  V30 16 C -2.5246 -2.2659 -0.0336 0
M  V30 17 C -2.2329 2.7103 0.222 0
M  V30 18 C 4.7126 -0.2261 0.1427 0
M  V30 19 C -3.7393 0.2335 -0.2099 0
M  V30 20 C -3.9061 -2.1661 -0.1764 0
M  V30 21 C -4.5101 -0.9223 -0.271 0
M  V30 22 H -0.1142 -3.3613 0.4414 0
M  V30 23 H 0.2396 3.3984 -0.322 0
M  V30 24 H 2.2676 -3.4453 0.4887 0
M  V30 25 H 4.458 -2.3414 0.3743 0
M  V30 26 H 2.6382 3.2368 -0.2841 0
M  V30 27 H 4.6939 1.9038 -0.0943 0
M  V30 28 H -2.1308 -3.2671 -0.0124 0
M  V30 29 H -3.1618 2.6328 0.822 0
M  V30 30 H -2.4583 3.1476 -0.7729 0
M  V30 31 H -1.6099 3.4123 0.8116 0
M  V30 32 H 5.7933 -0.2843 0.1585 0
M  V30 33 H -4.2612 1.1697 -0.3441 0
M  V30 34 H -4.5099 -3.0629 -0.2357 0
M  V30 35 H -5.5817 -0.8521 -0.4082 0
M  V30 END ATOM
M  V30 BEGIN BOND
M  V30 1 2 1 2
M  V30 2 1 1 3
M  V30 3 1 1 4
M  V30 4 1 2 5
M  V30 5 1 2 6
M  V30 6 2 3 7
M  V30 7 1 3 8
M  V30 8 1 4 9
M  V30 9 2 4 10
M  V30 10 1 5 11
M  V30 11 2 5 12
M  V30 12 2 6 13
M  V30 13 1 6 14
M  V30 14 1 7 15
M  V30 15 1 7 16
M  V30 16 1 9 17
M  V30 17 1 12 18
M  V30 18 1 15 19
M  V30 19 2 16 20
M  V30 20 2 19 21
M  V30 21 2 8 11
M  V30 22 2 9 15
M  V30 23 1 10 13
M  V30 24 2 14 18
M  V30 25 1 20 21
M  V30 26 1 8 22
M  V30 27 1 10 23
M  V30 28 1 11 24
M  V30 29 1 12 25
M  V30 30 1 13 26
M  V30 31 1 14 27
M  V30 32 1 16 28
M  V30 33 1 17 29
M  V30 34 1 17 30
M  V30 35 1 17 31
M  V30 36 1 18 32
M  V30 37 1 19 33
M  V30 38 1 20 34
M  V30 39 1 21 35
M  V30 END BOND
M  V30 END CTAB
M  END
>  <Structure No>
4384

>  <LogS>
-8.5234

>  <MMFF94 Energy>
91.07

$$$$
Compound 4385
Actelion Java MolfileCreator 2.0

  0  0  0  0  0  0              0 V3000
M  V30 BEGIN CTAB
M  V30 COUNTS 14 15 0 0 0
M  V30 BEGIN ATOM
M  V30 1 S 4.1864 0.0 -0.1639 0
M  V30 2 C 2.5555 0.0092 -0.084 0
M  V30 3 O 1.827 -1.0937 -0.0573 0
M  V30 4 N 1.8251 1.1538 -0.039 0 CHG=-1
M  V30 5 C 0.5876 -0.6892 0.0064 0
M  V30 6 C 0.571 0.6734 0.0183 0
M  V30 7 C -0.5787 -1.4469 0.0574 0
M  V30 8 C -0.6196 1.3933 0.0825 0
M  V30 9 C -1.8019 -0.7524 0.1229 0
M  V30 10 C -1.8222 0.662 0.1354 0
M  V30 11 H -0.5465 -2.5283 0.0471 0
M  V30 12 H -0.6217 2.4755 0.0915 0
M  V30 13 H -2.7318 -1.3043 0.1639 0
M  V30 14 H -2.7678 1.1858 0.1859 0
M  V30 END ATOM
M  V30 BEGIN BOND
M  V30 1 2 1 2
M  V30 2 1 2 3
M  V30 3 1 2 4
M  V30 4 1 3 5
M  V30 5 1 4 6
M  V30 6 1 5 7
M  V30 7 1 6 8
M  V30 8 2 7 9
M  V30 9 2 8 10
M  V30 10 2 5 6
M  V30 11 1 9 10
M  V30 12 1 7 11
M  V30 13 1 8 12
M  V30 14 1 9 13
M  V30 15 1 10 14
M  V30 END BOND
M  V30 END CTAB
M  END
>  <Structure No>
4385

>  <LogS>
-2.1795

>  <MMFF94 Energy>
20.349

$$$$
Compound 4386
Actelion Java MolfileCreator 2.0

  0  0  0  0  0  0              0 V3000
M  V30 BEGIN CTAB
M  V30 COUNTS 22 26 0 0 0
M  V30 BEGIN ATOM
M  V30 1 Cl -2.7981 1.8649 -0.725 0
M  V30 2 C -1.9696 0.278 -0.6747 0
M  V30 3 Cl -3.058 -0.9977 -1.303 0
M  V30 4 C -1.4291 -0.0468 0.691 0 CFG=2
M  V30 5 C -0.6402 0.2994 -1.3782 0 CFG=1
M  V30 6 Cl -2.6198 -0.208 2.0254 0
M  V30 7 C -0.2132 0.8727 0.955 0 CFG=1
M  V30 8 C -0.4007 -1.1924 0.538 0 CFG=1
M  V30 9 Cl -0.6514 0.6558 -3.1379 0
M  V30 10 C 0.3458 1.1182 -0.5117 0 CFG=2
M  V30 11 C 0.1584 -0.9469 -0.9288 0 CFG=2
M  V30 12 Cl -0.3856 2.2573 2.0762 0
M  V30 13 C 0.5854 -0.3735 1.4045 0 CFG=2
M  V30 14 Cl -0.8491 -2.8493 1.045 0
M  V30 15 Cl 0.7941 2.7752 -1.0185 0
M  V30 16 C 1.3742 -0.0273 -0.6647 0 CFG=2
M  V30 17 Cl 0.3305 -2.3313 -2.0498 0
M  V30 18 Cl 0.5963 -0.7298 3.1643 0
M  V30 19 C 1.9148 -0.3521 0.701 0
M  V30 20 Cl 2.5647 0.134 -1.999 0
M  V30 21 Cl 3.0031 0.9237 1.3294 0
M  V30 22 Cl 2.7432 -1.939 0.7514 0
M  V30 END ATOM
M  V30 BEGIN BOND
M  V30 1 1 1 2
M  V30 2 1 2 3
M  V30 3 1 2 4
M  V30 4 1 2 5
M  V30 5 1 4 6
M  V30 6 1 4 7
M  V30 7 1 4 8
M  V30 8 1 5 9
M  V30 9 1 5 10
M  V30 10 1 5 11
M  V30 11 1 7 12
M  V30 12 1 7 13
M  V30 13 1 8 14
M  V30 14 1 10 15
M  V30 15 1 10 16
M  V30 16 1 11 17
M  V30 17 1 13 18
M  V30 18 1 13 19
M  V30 19 1 16 20
M  V30 20 1 19 21
M  V30 21 1 19 22
M  V30 22 1 7 10
M  V30 23 1 8 11
M  V30 24 1 8 13
M  V30 25 1 11 16
M  V30 26 1 16 19
M  V30 END BOND
M  V30 BEGIN COLLECTION
M  V30 MDLV30/STEABS ATOMS=(8 4 5 7 8 10 11 13 16)
M  V30 END COLLECTION
M  V30 END CTAB
M  END
>  <Structure No>
4386

>  <LogS>
-6.8074

>  <MMFF94 Energy>
2.9939

$$$$
Compound 4387
Actelion Java MolfileCreator 2.0

  0  0  0  0  0  0              0 V3000
M  V30 BEGIN CTAB
M  V30 COUNTS 14 14 0 0 0
M  V30 BEGIN ATOM
M  V30 1 Cl -3.3633 -1.4284 0.0 0
M  V30 2 C -1.8426 -0.5547 -0.0424 0
M  V30 3 C -0.6348 -1.2431 0.1195 0
M  V30 4 C -1.8372 0.83 -0.2382 0
M  V30 5 C 0.5855 -0.5547 0.0873 0
M  V30 6 C -0.6264 1.5262 -0.2721 0
M  V30 7 N 1.8008 -1.3008 0.2579 0
M  V30 8 C 0.582 0.8418 -0.1106 0
M  V30 9 C 2.9621 -0.7784 0.246 0
M  V30 10 S 4.4316 -0.1173 0.2309 0
M  V30 11 H -0.6443 -2.3157 0.2711 0
M  V30 12 H -2.7691 1.3665 -0.3639 0
M  V30 13 H -0.6242 2.5981 -0.4238 0
M  V30 14 H 1.5073 1.4024 -0.1405 0
M  V30 END ATOM
M  V30 BEGIN BOND
M  V30 1 1 1 2
M  V30 2 2 2 3
M  V30 3 1 2 4
M  V30 4 1 3 5
M  V30 5 2 4 6
M  V30 6 1 5 7
M  V30 7 2 5 8
M  V30 8 2 7 9
M  V30 9 2 9 10
M  V30 10 1 6 8
M  V30 11 1 3 11
M  V30 12 1 4 12
M  V30 13 1 6 13
M  V30 14 1 8 14
M  V30 END BOND
M  V30 END CTAB
M  END
>  <Structure No>
4387

>  <LogS>
-3.9507

>  <MMFF94 Energy>
6.0947

$$$$
Compound 4388
Actelion Java MolfileCreator 2.0

  0  0  0  0  0  0              0 V3000
M  V30 BEGIN CTAB
M  V30 COUNTS 21 20 0 0 0
M  V30 BEGIN ATOM
M  V30 1 C 2.6302 0.3091 -1.7012 0
M  V30 2 C 3.6625 0.2533 -2.3213 0
M  V30 3 C 1.374 0.3779 -0.9465 0
M  V30 4 C 0.7507 -1.016 -0.8186 0
M  V30 5 C -0.6479 -0.9866 -0.1797 0
M  V30 6 C -0.6405 -0.5629 1.3068 0
M  V30 7 C -1.072 0.8954 1.5219 0
M  V30 8 C -2.507 1.0723 1.2618 0
M  V30 9 C -3.6844 1.2175 1.0475 0
M  V30 10 H 4.5687 0.204 -2.8654 0
M  V30 11 H 1.5967 0.7912 0.0589 0
M  V30 12 H 0.6774 1.0618 -1.4766 0
M  V30 13 H 0.653 -1.4633 -1.8328 0
M  V30 14 H 1.4203 -1.676 -0.2239 0
M  V30 15 H -1.3229 -0.3419 -0.7839 0
M  V30 16 H -1.0611 -2.017 -0.242 0
M  V30 17 H -1.3263 -1.2262 1.88 0
M  V30 18 H 0.37 -0.7083 1.7468 0
M  V30 19 H -0.8719 1.1807 2.5762 0
M  V30 20 H -0.4978 1.5803 0.8656 0
M  V30 21 H -4.7179 1.3447 0.859 0
M  V30 END ATOM
M  V30 BEGIN BOND
M  V30 1 3 1 2
M  V30 2 1 1 3
M  V30 3 1 3 4
M  V30 4 1 4 5
M  V30 5 1 5 6
M  V30 6 1 6 7
M  V30 7 1 7 8
M  V30 8 3 8 9
M  V30 9 1 2 10
M  V30 10 1 3 11
M  V30 11 1 3 12
M  V30 12 1 4 13
M  V30 13 1 4 14
M  V30 14 1 5 15
M  V30 15 1 5 16
M  V30 16 1 6 17
M  V30 17 1 6 18
M  V30 18 1 7 19
M  V30 19 1 7 20
M  V30 20 1 9 21
M  V30 END BOND
M  V30 END CTAB
M  END
>  <Structure No>
4388

>  <LogS>
-2.983

>  <MMFF94 Energy>
5.3236

$$$$
Compound 4389
Actelion Java MolfileCreator 2.0

  0  0  0  0  0  0              0 V3000
M  V30 BEGIN CTAB
M  V30 COUNTS 24 25 0 0 0
M  V30 BEGIN ATOM
M  V30 1 O -0.0794 -0.7148 0.8737 0
M  V30 2 C -1.2387 -0.2614 0.2254 0
M  V30 3 C 1.234 -0.3509 0.542 0
M  V30 4 C -2.3661 -1.1025 0.1628 0
M  V30 5 C -1.3153 1.034 -0.3201 0
M  V30 6 C 2.2058 -0.3464 1.5507 0
M  V30 7 C 1.6102 -0.039 -0.7782 0
M  V30 8 O -2.3399 -2.3841 0.7122 0
M  V30 9 C -3.5362 -0.6575 -0.4638 0
M  V30 10 C -2.4874 1.4689 -0.9446 0
M  V30 11 C 3.5295 -0.0045 1.256 0
M  V30 12 C 2.9346 0.3023 -1.0699 0
M  V30 13 C -3.5956 0.6228 -1.0195 0
M  V30 14 C 3.8929 0.3233 -0.0529 0
M  V30 15 H -0.477 1.7142 -0.2453 0
M  V30 16 H 1.932 -0.6016 2.5666 0
M  V30 17 H 0.8875 -0.0782 -1.5824 0
M  V30 18 H -1.5183 -2.7563 1.173 0
M  V30 19 H -4.4016 -1.3058 -0.5184 0
M  V30 20 H -2.539 2.4655 -1.3636 0
M  V30 21 H 4.2734 0.0045 2.0422 0
M  V30 22 H 3.2195 0.5433 -2.0859 0
M  V30 23 H -4.5033 0.9618 -1.5018 0
M  V30 24 H 4.9179 0.5862 -0.2803 0
M  V30 END ATOM
M  V30 BEGIN BOND
M  V30 1 1 1 2
M  V30 2 1 1 3
M  V30 3 2 2 4
M  V30 4 1 2 5
M  V30 5 2 3 6
M  V30 6 1 3 7
M  V30 7 1 4 8
M  V30 8 1 4 9
M  V30 9 2 5 10
M  V30 10 1 6 11
M  V30 11 2 7 12
M  V30 12 2 9 13
M  V30 13 2 11 14
M  V30 14 1 10 13
M  V30 15 1 12 14
M  V30 16 1 5 15
M  V30 17 1 6 16
M  V30 18 1 7 17
M  V30 19 1 8 18
M  V30 20 1 9 19
M  V30 21 1 10 20
M  V30 22 1 11 21
M  V30 23 1 12 22
M  V30 24 1 13 23
M  V30 25 1 14 24
M  V30 END BOND
M  V30 END CTAB
M  END
>  <Structure No>
4389

>  <LogS>
-3.2286

>  <MMFF94 Energy>
41.062

$$$$
Compound 4390
Actelion Java MolfileCreator 2.0

  0  0  0  0  0  0              0 V3000
M  V30 BEGIN CTAB
M  V30 COUNTS 44 43 0 0 0
M  V30 BEGIN ATOM
M  V30 1 O -0.6195 1.2393 -1.2393 0
M  V30 2 C -0.1655 1.6611 0.0199 0 CFG=2
M  V30 3 C -0.6156 0.6624 1.1235 0
M  V30 4 C -0.7327 3.0618 0.3208 0
M  V30 5 N -0.1206 -0.7496 1.0205 0 CHG=1
M  V30 6 C -0.2117 4.1161 -0.655 0
M  V30 7 C -1.1757 -1.7233 0.6201 0
M  V30 8 C 1.1683 -0.9544 0.3036 0
M  V30 9 C -1.7775 -1.5243 -0.7928 0 CFG=1
M  V30 10 C 2.3862 -0.4769 1.1338 0 CFG=1
M  V30 11 O -0.7668 -1.6459 -1.759 0
M  V30 12 C -2.8685 -2.5761 -1.0924 0
M  V30 13 O 2.5703 -1.362 2.2099 0
M  V30 14 C 3.6744 -0.4439 0.2842 0
M  V30 15 C -4.1585 -2.3488 -0.3015 0
M  V30 16 C 3.735 0.7615 -0.6558 0
M  V30 17 H 0.0669 1.5055 -1.9054 0
M  V30 18 H 0.944 1.7435 0.0337 0
M  V30 19 H -0.2701 1.0854 2.0957 0
M  V30 20 H -1.727 0.6823 1.1875 0
M  V30 21 H -1.8435 3.0384 0.2697 0
M  V30 22 H -0.4411 3.3694 1.3491 0
M  V30 23 H 0.0722 -1.034 2.0118 0
M  V30 24 H -0.5976 5.1151 -0.3614 0
M  V30 25 H 0.8985 4.1459 -0.6365 0
M  V30 26 H -0.5578 3.8976 -1.6872 0
M  V30 27 H -0.7761 -2.7605 0.696 0
M  V30 28 H -1.9984 -1.672 1.3668 0
M  V30 29 H 1.1526 -0.4677 -0.6879 0
M  V30 30 H 1.3231 -2.0371 0.0932 0
M  V30 31 H -2.2487 -0.5189 -0.8514 0
M  V30 32 H 2.1883 0.5439 1.533 0
M  V30 33 H -1.0961 -1.1975 -2.5816 0
M  V30 34 H -2.4837 -3.5992 -0.8888 0
M  V30 35 H -3.125 -2.5274 -2.1734 0
M  V30 36 H 3.1083 -0.8816 2.8927 0
M  V30 37 H 4.5537 -0.3849 0.9624 0
M  V30 38 H 3.771 -1.3817 -0.3052 0
M  V30 39 H -4.0066 -2.5596 0.7766 0
M  V30 40 H -4.5172 -1.3054 -0.4298 0
M  V30 41 H -4.9448 -3.0384 -0.6751 0
M  V30 42 H 2.947 0.7039 -1.4338 0
M  V30 43 H 4.7207 0.7803 -1.1664 0
M  V30 44 H 3.6189 1.7065 -0.0833 0
M  V30 END ATOM
M  V30 BEGIN BOND
M  V30 1 1 1 2
M  V30 2 1 2 3
M  V30 3 1 2 4
M  V30 4 1 3 5
M  V30 5 1 4 6
M  V30 6 1 5 7
M  V30 7 1 5 8
M  V30 8 1 7 9
M  V30 9 1 8 10
M  V30 10 1 9 11
M  V30 11 1 9 12
M  V30 12 1 10 13
M  V30 13 1 10 14
M  V30 14 1 12 15
M  V30 15 1 14 16
M  V30 16 1 1 17
M  V30 17 1 2 18
M  V30 18 1 3 19
M  V30 19 1 3 20
M  V30 20 1 4 21
M  V30 21 1 4 22
M  V30 22 1 5 23
M  V30 23 1 6 24
M  V30 24 1 6 25
M  V30 25 1 6 26
M  V30 26 1 7 27
M  V30 27 1 7 28
M  V30 28 1 8 29
M  V30 29 1 8 30
M  V30 30 1 9 31
M  V30 31 1 10 32
M  V30 32 1 11 33
M  V30 33 1 12 34
M  V30 34 1 12 35
M  V30 35 1 13 36
M  V30 36 1 14 37
M  V30 37 1 14 38
M  V30 38 1 15 39
M  V30 39 1 15 40
M  V30 40 1 15 41
M  V30 41 1 16 42
M  V30 42 1 16 43
M  V30 43 1 16 44
M  V30 END BOND
M  V30 BEGIN COLLECTION
M  V30 MDLV30/STEABS ATOMS=(3 2 9 10)
M  V30 END COLLECTION
M  V30 END CTAB
M  END
>  <Structure No>
4390

>  <LogS>
-0.5229

>  <MMFF94 Energy>
70.362

$$$$
Compound 4391
Actelion Java MolfileCreator 2.0

  0  0  0  0  0  0              0 V3000
M  V30 BEGIN CTAB
M  V30 COUNTS 33 36 0 0 0
M  V30 BEGIN ATOM
M  V30 1 C -0.4019 0.1607 0.0 0
M  V30 2 C -1.7773 -0.2445 0.0328 0
M  V30 3 C -0.0796 1.4509 0.5057 0
M  V30 4 C 0.6646 -0.6339 -0.5332 0
M  V30 5 C -2.7847 0.7283 0.2891 0
M  V30 6 C -2.1859 -1.596 -0.0604 0
M  V30 7 C 1.2526 1.8226 0.7111 0
M  V30 8 C -1.092 2.3744 0.7964 0
M  V30 9 C 2.0096 -0.293 -0.2206 0
M  V30 10 C 0.4151 -1.6874 -1.596 0
M  V30 11 C -2.4281 2.034 0.6337 0
M  V30 12 C -4.1426 0.3706 0.2581 0
M  V30 13 C -3.5394 -1.9404 -0.0724 0
M  V30 14 C 2.2912 0.9428 0.4094 0
M  V30 15 C 3.0903 -1.1492 -0.5355 0
M  V30 16 C -4.5158 -0.9565 0.0579 0
M  V30 17 C 3.6186 1.3055 0.6932 0
M  V30 18 C 4.4041 -0.7793 -0.239 0
M  V30 19 C 4.6679 0.4455 0.3708 0
M  V30 20 H -1.475 -2.4056 -0.064 0
M  V30 21 H 1.4814 2.796 1.1336 0
M  V30 22 H -0.8476 3.3734 1.139 0
M  V30 23 H 0.5034 -2.705 -1.1618 0
M  V30 24 H 1.1562 -1.5868 -2.4171 0
M  V30 25 H -0.569 -1.5557 -2.0898 0
M  V30 26 H -3.188 2.7771 0.8467 0
M  V30 27 H -4.9149 1.1133 0.4218 0
M  V30 28 H -3.8314 -2.9789 -0.1626 0
M  V30 29 H 2.931 -2.1187 -0.9883 0
M  V30 30 H -5.5634 -1.2291 0.0502 0
M  V30 31 H 3.8443 2.2547 1.1652 0
M  V30 32 H 5.2207 -1.4472 -0.4811 0
M  V30 33 H 5.6881 0.7288 0.596 0
M  V30 END ATOM
M  V30 BEGIN BOND
M  V30 1 2 1 2
M  V30 2 1 1 3
M  V30 3 1 1 4
M  V30 4 1 2 5
M  V30 5 1 2 6
M  V30 6 1 3 7
M  V30 7 2 3 8
M  V30 8 2 4 9
M  V30 9 1 4 10
M  V30 10 2 5 11
M  V30 11 1 5 12
M  V30 12 2 6 13
M  V30 13 2 7 14
M  V30 14 1 9 15
M  V30 15 2 12 16
M  V30 16 1 14 17
M  V30 17 2 15 18
M  V30 18 2 17 19
M  V30 19 1 8 11
M  V30 20 1 9 14
M  V30 21 1 13 16
M  V30 22 1 18 19
M  V30 23 1 6 20
M  V30 24 1 7 21
M  V30 25 1 8 22
M  V30 26 1 10 23
M  V30 27 1 10 24
M  V30 28 1 10 25
M  V30 29 1 11 26
M  V30 30 1 12 27
M  V30 31 1 13 28
M  V30 32 1 15 29
M  V30 33 1 16 30
M  V30 34 1 17 31
M  V30 35 1 18 32
M  V30 36 1 19 33
M  V30 END BOND
M  V30 END CTAB
M  END
>  <Structure No>
4391

>  <LogS>
-6.5648

>  <MMFF94 Energy>
82.02

$$$$
Compound 4392
Actelion Java MolfileCreator 2.0

  0  0  0  0  0  0              0 V3000
M  V30 BEGIN CTAB
M  V30 COUNTS 27 28 0 0 0
M  V30 BEGIN ATOM
M  V30 1 Cl 3.4536 -1.1502 1.3273 0
M  V30 2 C 3.5046 -1.3091 -0.4544 0
M  V30 3 Cl 4.5999 -2.6744 -0.8157 0
M  V30 4 S 1.8716 -1.8213 -1.1395 0
M  V30 5 C 4.0464 -0.0213 -1.1253 0
M  V30 6 N 0.8585 -0.6382 -0.2947 0
M  V30 7 Cl 3.2021 1.4571 -0.5883 0
M  V30 8 Cl 5.7838 0.234 -0.7806 0
M  V30 9 C 0.1878 0.4378 -0.9262 0
M  V30 10 C 0.163 -0.8791 0.9157 0
M  V30 11 O 0.4722 0.8318 -2.089 0
M  V30 12 C -0.898 1.0344 -0.0861 0 CFG=2
M  V30 13 O 0.4185 -1.8562 1.6692 0
M  V30 14 C -0.9155 0.1229 1.1884 0 CFG=1
M  V30 15 C -2.245 1.0718 -0.8432 0
M  V30 16 C -2.2765 -0.5638 1.4436 0
M  V30 17 C -3.3832 1.1927 0.1329 0
M  V30 18 C -3.3982 0.4136 1.2221 0
M  V30 19 H 3.9309 -0.1059 -2.2265 0
M  V30 20 H -0.6077 2.0693 0.201 0
M  V30 21 H -0.6342 0.7259 2.08 0
M  V30 22 H -2.3843 0.1343 -1.4261 0
M  V30 23 H -2.2623 1.9278 -1.5513 0
M  V30 24 H -2.4139 -1.4164 0.7421 0
M  V30 25 H -2.3179 -0.957 2.4819 0
M  V30 26 H -4.1576 1.9386 -0.0168 0
M  V30 27 H -4.1849 0.523 1.9622 0
M  V30 END ATOM
M  V30 BEGIN BOND
M  V30 1 1 1 2
M  V30 2 1 2 3
M  V30 3 1 2 4
M  V30 4 1 2 5
M  V30 5 1 4 6
M  V30 6 1 5 7
M  V30 7 1 5 8
M  V30 8 1 6 9
M  V30 9 1 6 10
M  V30 10 2 9 11
M  V30 11 1 9 12
M  V30 12 2 10 13
M  V30 13 1 10 14
M  V30 14 1 12 15
M  V30 15 1 14 16
M  V30 16 1 15 17
M  V30 17 1 16 18
M  V30 18 1 12 14
M  V30 19 2 17 18
M  V30 20 1 5 19
M  V30 21 1 12 20
M  V30 22 1 14 21
M  V30 23 1 15 22
M  V30 24 1 15 23
M  V30 25 1 16 24
M  V30 26 1 16 25
M  V30 27 1 17 26
M  V30 28 1 18 27
M  V30 END BOND
M  V30 BEGIN COLLECTION
M  V30 MDLV30/STEABS ATOMS=(2 12 14)
M  V30 END COLLECTION
M  V30 END CTAB
M  END
>  <Structure No>
4392

>  <LogS>
-5.3968

>  <MMFF94 Energy>
38.454

$$$$
Compound 4393
Actelion Java MolfileCreator 2.0

  0  0  0  0  0  0              0 V3000
M  V30 BEGIN CTAB
M  V30 COUNTS 23 23 0 0 0
M  V30 BEGIN ATOM
M  V30 1 O 3.8419 0.0 -0.3915 0
M  V30 2 C 2.4863 0.3587 -0.2675 0 CFG=1
M  V30 3 C 2.9 -0.8747 -0.972 0
M  V30 4 C 1.975 0.187 1.1655 0
M  V30 5 O 0.6228 -0.2256 1.1515 0
M  V30 6 C -0.2368 0.8965 1.1364 0
M  V30 7 C -1.6757 0.438 0.8981 0
M  V30 8 C -1.8474 -0.1835 -0.4942 0
M  V30 9 C -3.2911 -0.6173 -0.7289 0
M  V30 10 H 2.2231 1.2466 -0.8797 0
M  V30 11 H 2.8419 -1.8332 -0.4143 0
M  V30 12 H 2.9282 -0.8179 -2.0798 0
M  V30 13 H 2.5642 -0.593 1.6951 0
M  V30 14 H 2.1386 1.1312 1.7359 0
M  V30 15 H -0.1964 1.414 2.1212 0
M  V30 16 H 0.0444 1.6218 0.3381 0
M  V30 17 H -2.3497 1.3174 0.9946 0
M  V30 18 H -1.9572 -0.3021 1.679 0
M  V30 19 H -1.1862 -1.0713 -0.5962 0
M  V30 20 H -1.5635 0.5571 -1.2733 0
M  V30 21 H -3.5927 -1.3771 0.0231 0
M  V30 22 H -3.3855 -1.0628 -1.7415 0
M  V30 23 H -3.9729 0.2571 -0.6608 0
M  V30 END ATOM
M  V30 BEGIN BOND
M  V30 1 1 1 2
M  V30 2 1 1 3
M  V30 3 1 2 4
M  V30 4 1 4 5
M  V30 5 1 5 6
M  V30 6 1 6 7
M  V30 7 1 7 8
M  V30 8 1 8 9
M  V30 9 1 2 3
M  V30 10 1 2 10
M  V30 11 1 3 11
M  V30 12 1 3 12
M  V30 13 1 4 13
M  V30 14 1 4 14
M  V30 15 1 6 15
M  V30 16 1 6 16
M  V30 17 1 7 17
M  V30 18 1 7 18
M  V30 19 1 8 19
M  V30 20 1 8 20
M  V30 21 1 9 21
M  V30 22 1 9 22
M  V30 23 1 9 23
M  V30 END BOND
M  V30 BEGIN COLLECTION
M  V30 MDLV30/STEABS ATOMS=(1 2)
M  V30 END COLLECTION
M  V30 END CTAB
M  END
>  <Structure No>
4393

>  <LogS>
-0.8135

>  <MMFF94 Energy>
12.105

$$$$
Compound 4394
Actelion Java MolfileCreator 2.0

  0  0  0  0  0  0              0 V3000
M  V30 BEGIN CTAB
M  V30 COUNTS 15 15 0 0 0
M  V30 BEGIN ATOM
M  V30 1 Cl -2.4566 -2.5413 0.0846 0
M  V30 2 C -1.4602 -1.0949 0.0497 0
M  V30 3 C -2.0506 0.1761 0.0079 0
M  V30 4 C -0.0663 -1.2189 0.059 0
M  V30 5 O -3.4361 0.3011 -6.0E-4 0 CHG=-1
M  V30 6 C -1.2419 1.321 -0.0285 0
M  V30 7 C 0.7468 -0.0755 0.0404 0
M  V30 8 Cl -1.963 2.9217 -0.0922 0
M  V30 9 C 0.1515 1.1936 -0.019 0
M  V30 10 C 2.2404 -0.2115 0.0107 0
M  V30 11 H 0.3821 -2.2046 0.0817 0
M  V30 12 H 0.7695 2.0827 -0.0572 0
M  V30 13 H 2.5616 -1.1255 0.554 0
M  V30 14 H 2.7232 0.6633 0.496 0
M  V30 15 H 2.584 -0.2766 -1.0427 0
M  V30 END ATOM
M  V30 BEGIN BOND
M  V30 1 1 1 2
M  V30 2 2 2 3
M  V30 3 1 2 4
M  V30 4 1 3 5
M  V30 5 1 3 6
M  V30 6 2 4 7
M  V30 7 1 6 8
M  V30 8 2 6 9
M  V30 9 1 7 10
M  V30 10 1 7 9
M  V30 11 1 4 11
M  V30 12 1 9 12
M  V30 13 1 10 13
M  V30 14 1 10 14
M  V30 15 1 10 15
M  V30 END BOND
M  V30 END CTAB
M  END
>  <Structure No>
4394

>  <LogS>
-1.4202

>  <MMFF94 Energy>
49.314

$$$$
Compound 4395
Actelion Java MolfileCreator 2.0

  0  0  0  0  0  0              0 V3000
M  V30 BEGIN CTAB
M  V30 COUNTS 17 18 0 0 0
M  V30 BEGIN ATOM
M  V30 1 N 0.8038 0.9646 -0.1607 0
M  V30 2 C -0.4716 0.5392 0.0259 0
M  V30 3 C 1.8246 0.0711 -0.2747 0
M  V30 4 N -1.4908 1.4311 0.1321 0
M  V30 5 C -0.7458 -0.8348 0.1134 0
M  V30 6 N 1.5753 -1.2645 -0.1784 0
M  V30 7 C 3.2253 0.5576 -0.4412 0
M  V30 8 C -2.7705 1.0095 0.3201 0
M  V30 9 N -2.0239 -1.256 0.3017 0
M  V30 10 C 0.3133 -1.734 0.0079 0
M  V30 11 C -3.0424 -0.3604 0.4063 0
M  V30 12 H 3.2332 1.5191 -0.9967 0
M  V30 13 H 3.824 -0.1856 -1.0086 0
M  V30 14 H 3.6844 0.7098 0.5576 0
M  V30 15 H -3.5715 1.732 0.4025 0
M  V30 16 H 0.1403 -2.8001 0.0766 0
M  V30 17 H -4.0556 -0.7084 0.5558 0
M  V30 END ATOM
M  V30 BEGIN BOND
M  V30 1 1 1 2
M  V30 2 2 1 3
M  V30 3 2 2 4
M  V30 4 1 2 5
M  V30 5 1 3 6
M  V30 6 1 3 7
M  V30 7 1 4 8
M  V30 8 2 5 9
M  V30 9 1 5 10
M  V30 10 2 8 11
M  V30 11 2 6 10
M  V30 12 1 9 11
M  V30 13 1 7 12
M  V30 14 1 7 13
M  V30 15 1 7 14
M  V30 16 1 8 15
M  V30 17 1 10 16
M  V30 18 1 11 17
M  V30 END BOND
M  V30 END CTAB
M  END
>  <Structure No>
4395

>  <LogS>
-0.1191

>  <MMFF94 Energy>
66.718

$$$$
Compound 4396
Actelion Java MolfileCreator 2.0

  0  0  0  0  0  0              0 V3000
M  V30 BEGIN CTAB
M  V30 COUNTS 17 18 0 0 0
M  V30 BEGIN ATOM
M  V30 1 N -0.7238 2.1727 -0.4825 0
M  V30 2 C -1.0695 0.8769 -0.2746 0
M  V30 3 C 0.5792 2.557 -0.4437 0
M  V30 4 N -2.3731 0.4963 -0.314 0
M  V30 5 C -0.076 -0.0831 -0.0164 0
M  V30 6 N 1.5558 1.6435 -0.1954 0
M  V30 7 C -2.7301 -0.7993 -0.1071 0
M  V30 8 N -0.4368 -1.3789 0.1901 0
M  V30 9 C 1.2625 0.3319 0.0195 0
M  V30 10 C -1.7426 -1.7557 0.1499 0
M  V30 11 C 2.372 -0.6382 0.2894 0
M  V30 12 H 0.8404 3.5928 -0.611 0
M  V30 13 H -3.7727 -1.0856 -0.1419 0
M  V30 14 H -2.0128 -2.7899 0.3163 0
M  V30 15 H 2.2291 -1.1048 1.2867 0
M  V30 16 H 3.3548 -0.1208 0.2769 0
M  V30 17 H 2.3774 -1.4293 -0.4895 0
M  V30 END ATOM
M  V30 BEGIN BOND
M  V30 1 1 1 2
M  V30 2 2 1 3
M  V30 3 2 2 4
M  V30 4 1 2 5
M  V30 5 1 3 6
M  V30 6 1 4 7
M  V30 7 2 5 8
M  V30 8 1 5 9
M  V30 9 2 7 10
M  V30 10 1 9 11
M  V30 11 2 6 9
M  V30 12 1 8 10
M  V30 13 1 3 12
M  V30 14 1 7 13
M  V30 15 1 10 14
M  V30 16 1 11 15
M  V30 17 1 11 16
M  V30 18 1 11 17
M  V30 END BOND
M  V30 END CTAB
M  END
>  <Structure No>
4396

>  <LogS>
-0.4658

>  <MMFF94 Energy>
68.957

$$$$
Compound 4397
Actelion Java MolfileCreator 2.0

  0  0  0  0  0  0              0 V3000
M  V30 BEGIN CTAB
M  V30 COUNTS 21 23 0 0 0
M  V30 BEGIN ATOM
M  V30 1 S 3.9295 0.5119 -1.3655 0
M  V30 2 C 4.972 0.7487 -0.0529 0
M  V30 3 C 2.4209 0.3276 -0.5935 0
M  V30 4 S 4.069 0.6959 1.3779 0
M  V30 5 O 6.2138 0.9337 -0.1285 0
M  V30 6 N 1.2365 0.11 -1.2154 0
M  V30 7 C 2.4914 0.4209 0.7938 0
M  V30 8 C 0.1023 -0.0179 -0.4677 0
M  V30 9 N 1.3774 0.2952 1.5557 0
M  V30 10 C 0.1748 0.0762 0.95 0
M  V30 11 C -1.1307 -0.2436 -1.0873 0
M  V30 12 C -0.9868 -0.0615 1.7144 0
M  V30 13 C -2.2974 -0.364 -0.3146 0
M  V30 14 C -2.2156 -0.2872 1.086 0
M  V30 15 C -3.6134 -0.6452 -0.9773 0
M  V30 16 H -1.1818 -0.3239 -2.1667 0
M  V30 17 H -0.9403 0.0014 2.7946 0
M  V30 18 H -3.1054 -0.4016 1.6926 0
M  V30 19 H -4.451 -0.2256 -0.3802 0
M  V30 20 H -3.6494 -0.1854 -1.9879 0
M  V30 21 H -3.7512 -1.7423 -1.0734 0
M  V30 END ATOM
M  V30 BEGIN BOND
M  V30 1 1 1 2
M  V30 2 1 1 3
M  V30 3 1 2 4
M  V30 4 2 2 5
M  V30 5 2 3 6
M  V30 6 1 3 7
M  V30 7 1 6 8
M  V30 8 2 7 9
M  V30 9 1 8 10
M  V30 10 2 8 11
M  V30 11 2 10 12
M  V30 12 1 11 13
M  V30 13 1 12 14
M  V30 14 1 13 15
M  V30 15 1 4 7
M  V30 16 1 9 10
M  V30 17 2 13 14
M  V30 18 1 11 16
M  V30 19 1 12 17
M  V30 20 1 14 18
M  V30 21 1 15 19
M  V30 22 1 15 20
M  V30 23 1 15 21
M  V30 END BOND
M  V30 END CTAB
M  END
>  <Structure No>
4397

>  <LogS>
-5.3698

>  <MMFF94 Energy>
50.048

$$$$
Compound 4398
Actelion Java MolfileCreator 2.0

  0  0  0  0  0  0              0 V3000
M  V30 BEGIN CTAB
M  V30 COUNTS 46 45 0 0 0
M  V30 BEGIN ATOM
M  V30 1 N 3.5532 -0.1542 2.548 0 CHG=1
M  V30 2 C 3.9489 0.5214 1.5093 0
M  V30 3 N 4.4889 -0.132 0.3444 0
M  V30 4 N 3.855 1.9488 1.5201 0
M  V30 5 C 4.5202 -1.5806 0.1337 0
M  V30 6 C 3.1119 -2.1525 -0.114 0
M  V30 7 C 2.6478 -2.048 -1.5793 0
M  V30 8 C 2.4177 -0.6147 -2.097 0
M  V30 9 C 1.3851 0.2097 -1.3069 0
M  V30 10 C -0.0188 -0.4115 -1.3257 0
M  V30 11 C -1.041 0.5236 -0.6685 0
M  V30 12 C -2.4405 -0.1029 -0.6677 0
M  V30 13 C -3.4629 0.8327 -0.0111 0
M  V30 14 C -4.8618 0.1985 -0.0016 0
M  V30 15 C -5.9389 1.1525 0.5375 0
M  V30 16 C -5.8161 1.3937 2.0419 0
M  V30 17 H 3.1636 0.3374 3.3832 0
M  V30 18 H 3.6124 -1.1937 2.5965 0
M  V30 19 H 4.9356 0.4688 -0.3841 0
M  V30 20 H 4.1588 2.5047 0.6903 0
M  V30 21 H 3.4728 2.457 2.3485 0
M  V30 22 H 4.9825 -2.0728 1.0155 0
M  V30 23 H 5.1772 -1.814 -0.7321 0
M  V30 24 H 2.3642 -1.6975 0.567 0
M  V30 25 H 3.1419 -3.2337 0.1424 0
M  V30 26 H 1.7127 -2.635 -1.7 0
M  V30 27 H 3.4033 -2.5385 -2.231 0
M  V30 28 H 2.0838 -0.678 -3.1557 0
M  V30 29 H 3.3826 -0.068 -2.1104 0
M  V30 30 H 1.7205 0.3516 -0.2594 0
M  V30 31 H 1.3371 1.2197 -1.77 0
M  V30 32 H -0.0069 -1.3736 -0.77 0
M  V30 33 H -0.3228 -0.6091 -2.3772 0
M  V30 34 H -1.0702 1.4868 -1.2245 0
M  V30 35 H -0.7294 0.7297 0.3795 0
M  V30 36 H -2.7505 -0.31 -1.7158 0
M  V30 37 H -2.4127 -1.0653 -0.1105 0
M  V30 38 H -3.1407 1.0419 1.0312 0
M  V30 39 H -3.4956 1.7922 -0.5728 0
M  V30 40 H -5.1387 -0.0765 -1.043 0
M  V30 41 H -4.8504 -0.7356 0.6019 0
M  V30 42 H -5.8944 2.1243 -7.0E-4 0
M  V30 43 H -6.9363 0.704 0.3378 0
M  V30 44 H -6.6854 1.9898 2.3917 0
M  V30 45 H -5.8062 0.4285 2.5913 0
M  V30 46 H -4.8924 1.9626 2.2752 0
M  V30 END ATOM
M  V30 BEGIN BOND
M  V30 1 2 1 2
M  V30 2 1 2 3
M  V30 3 1 2 4
M  V30 4 1 3 5
M  V30 5 1 5 6
M  V30 6 1 6 7
M  V30 7 1 7 8
M  V30 8 1 8 9
M  V30 9 1 9 10
M  V30 10 1 10 11
M  V30 11 1 11 12
M  V30 12 1 12 13
M  V30 13 1 13 14
M  V30 14 1 14 15
M  V30 15 1 15 16
M  V30 16 1 1 17
M  V30 17 1 1 18
M  V30 18 1 3 19
M  V30 19 1 4 20
M  V30 20 1 4 21
M  V30 21 1 5 22
M  V30 22 1 5 23
M  V30 23 1 6 24
M  V30 24 1 6 25
M  V30 25 1 7 26
M  V30 26 1 7 27
M  V30 27 1 8 28
M  V30 28 1 8 29
M  V30 29 1 9 30
M  V30 30 1 9 31
M  V30 31 1 10 32
M  V30 32 1 10 33
M  V30 33 1 11 34
M  V30 34 1 11 35
M  V30 35 1 12 36
M  V30 36 1 12 37
M  V30 37 1 13 38
M  V30 38 1 13 39
M  V30 39 1 14 40
M  V30 40 1 14 41
M  V30 41 1 15 42
M  V30 42 1 15 43
M  V30 43 1 16 44
M  V30 44 1 16 45
M  V30 45 1 16 46
M  V30 END BOND
M  V30 END CTAB
M  END
>  <Structure No>
4398

>  <LogS>
-2.6592

>  <MMFF94 Energy>
-184.25

$$$$
Compound 4399
Actelion Java MolfileCreator 2.0

  0  0  0  0  0  0              0 V3000
M  V30 BEGIN CTAB
M  V30 COUNTS 20 20 0 0 0
M  V30 BEGIN ATOM
M  V30 1 O -0.3146 2.677 -0.3146 0
M  V30 2 C -1.1499 1.7456 -0.1617 0
M  V30 3 N -2.517 2.0781 0.0939 0
M  V30 4 C -0.7088 0.3307 -0.2498 0
M  V30 5 C 0.5996 -0.0505 0.1315 0
M  V30 6 C -1.5962 -0.6475 -0.7368 0
M  V30 7 O 1.481 0.9238 0.6309 0
M  V30 8 C 0.9863 -1.4017 0.0168 0
M  V30 9 C -1.1976 -1.9809 -0.8405 0
M  V30 10 C 2.8179 0.669 1.0505 0
M  V30 11 C 0.0901 -2.3571 -0.4644 0
M  V30 12 H -3.2174 1.3477 0.3493 0
M  V30 13 H -2.8187 3.0779 0.1009 0
M  V30 14 H -2.5932 -0.3804 -1.0626 0
M  V30 15 H 1.9779 -1.7257 0.3011 0
M  V30 16 H -1.8877 -2.7234 -1.2205 0
M  V30 17 H 3.4152 0.2721 0.2027 0
M  V30 18 H 3.2768 1.6188 1.3939 0
M  V30 19 H 2.8223 -0.0527 1.8945 0
M  V30 20 H 0.3963 -3.3919 -0.548 0
M  V30 END ATOM
M  V30 BEGIN BOND
M  V30 1 2 1 2
M  V30 2 1 2 3
M  V30 3 1 2 4
M  V30 4 2 4 5
M  V30 5 1 4 6
M  V30 6 1 5 7
M  V30 7 1 5 8
M  V30 8 2 6 9
M  V30 9 1 7 10
M  V30 10 2 8 11
M  V30 11 1 9 11
M  V30 12 1 3 12
M  V30 13 1 3 13
M  V30 14 1 6 14
M  V30 15 1 8 15
M  V30 16 1 9 16
M  V30 17 1 10 17
M  V30 18 1 10 18
M  V30 19 1 10 19
M  V30 20 1 11 20
M  V30 END BOND
M  V30 END CTAB
M  END
>  <Structure No>
4399

>  <LogS>
-1.7815

>  <MMFF94 Energy>
21.338

$$$$
Compound 4400
Actelion Java MolfileCreator 2.0

  0  0  0  0  0  0              0 V3000
M  V30 BEGIN CTAB
M  V30 COUNTS 29 30 0 0 0
M  V30 BEGIN ATOM
M  V30 1 O 0.3172 -0.2379 1.5078 0
M  V30 2 C 0.8551 0.1375 0.4288 0
M  V30 3 C 2.3326 0.0455 0.2854 0
M  V30 4 C -0.0086 0.7127 -0.6687 0
M  V30 5 C 3.081 -0.7247 1.1971 0
M  V30 6 C 3.0144 0.7254 -0.7444 0
M  V30 7 C -1.4622 0.3479 -0.5016 0
M  V30 8 C 4.4707 -0.8189 1.0756 0
M  V30 9 C 4.4046 0.6274 -0.86 0
M  V30 10 C -2.3381 1.2116 0.1758 0
M  V30 11 C -1.9405 -0.8843 -0.9752 0
M  V30 12 C 5.1317 -0.1446 0.0476 0
M  V30 13 C -3.6785 0.857 0.357 0
M  V30 14 C -3.2811 -1.2377 -0.7934 0
M  V30 15 C -4.1567 -0.3682 -0.1281 0
M  V30 16 N -5.5274 -0.7307 0.0583 0
M  V30 17 H 0.3417 0.3341 -1.6533 0
M  V30 18 H 0.1082 1.818 -0.6766 0
M  V30 19 H 2.592 -1.2612 2.0009 0
M  V30 20 H 2.4832 1.3442 -1.455 0
M  V30 21 H 5.0354 -1.4165 1.7797 0
M  V30 22 H 4.9191 1.1542 -1.6533 0
M  V30 23 H -1.9828 2.1578 0.5651 0
M  V30 24 H -1.2746 -1.5709 -1.4832 0
M  V30 25 H 6.2076 -0.2183 -0.044 0
M  V30 26 H -4.343 1.5349 0.878 0
M  V30 27 H -3.6364 -2.1896 -1.1677 0
M  V30 28 H -5.8928 -1.6418 -0.298 0
M  V30 29 H -6.1872 -0.0902 0.5541 0
M  V30 END ATOM
M  V30 BEGIN BOND
M  V30 1 2 1 2
M  V30 2 1 2 3
M  V30 3 1 2 4
M  V30 4 2 3 5
M  V30 5 1 3 6
M  V30 6 1 4 7
M  V30 7 1 5 8
M  V30 8 2 6 9
M  V30 9 2 7 10
M  V30 10 1 7 11
M  V30 11 2 8 12
M  V30 12 1 10 13
M  V30 13 2 11 14
M  V30 14 2 13 15
M  V30 15 1 15 16
M  V30 16 1 9 12
M  V30 17 1 14 15
M  V30 18 1 4 17
M  V30 19 1 4 18
M  V30 20 1 5 19
M  V30 21 1 6 20
M  V30 22 1 8 21
M  V30 23 1 9 22
M  V30 24 1 10 23
M  V30 25 1 11 24
M  V30 26 1 12 25
M  V30 27 1 13 26
M  V30 28 1 14 27
M  V30 29 1 16 28
M  V30 30 1 16 29
M  V30 END BOND
M  V30 END CTAB
M  END
>  <Structure No>
4400

>  <LogS>
-1.805

>  <MMFF94 Energy>
60.211

$$$$
Compound 4401
Actelion Java MolfileCreator 2.0

  0  0  0  0  0  0              0 V3000
M  V30 BEGIN CTAB
M  V30 COUNTS 23 24 0 0 0
M  V30 BEGIN ATOM
M  V30 1 Cl 5.3896 0.8277 0.6621 0
M  V30 2 C 3.7519 0.2216 0.496 0
M  V30 3 C 2.6713 0.9936 0.935 0
M  V30 4 C 3.5252 -1.0384 -0.0672 0
M  V30 5 C 1.3656 0.5107 0.8044 0
M  V30 6 C 2.2199 -1.5226 -0.1982 0
M  V30 7 C 1.131 -0.7478 0.2199 0
M  V30 8 O -0.162 -1.2748 0.0859 0
M  V30 9 C -1.3296 -0.5239 -0.1155 0
M  V30 10 C -2.5437 -1.0248 0.37 0
M  V30 11 C -1.3217 0.6882 -0.8305 0
M  V30 12 C -3.7316 -0.3129 0.1757 0
M  V30 13 C -2.5103 1.3989 -1.0243 0
M  V30 14 C -3.7155 0.9012 -0.5181 0
M  V30 15 Cl -5.2062 1.7929 -0.7633 0
M  V30 16 H 2.8422 1.9638 1.3839 0
M  V30 17 H 4.3583 -1.6432 -0.4016 0
M  V30 18 H 0.5438 1.1087 1.1758 0
M  V30 19 H 2.0527 -2.4998 -0.633 0
M  V30 20 H -2.5649 -1.9651 0.9062 0
M  V30 21 H -0.4036 1.0735 -1.2538 0
M  V30 22 H -4.6628 -0.7064 0.5631 0
M  V30 23 H -2.4945 2.3317 -1.5736 0
M  V30 END ATOM
M  V30 BEGIN BOND
M  V30 1 1 1 2
M  V30 2 2 2 3
M  V30 3 1 2 4
M  V30 4 1 3 5
M  V30 5 2 4 6
M  V30 6 2 5 7
M  V30 7 1 7 8
M  V30 8 1 8 9
M  V30 9 2 9 10
M  V30 10 1 9 11
M  V30 11 1 10 12
M  V30 12 2 11 13
M  V30 13 2 12 14
M  V30 14 1 14 15
M  V30 15 1 6 7
M  V30 16 1 13 14
M  V30 17 1 3 16
M  V30 18 1 4 17
M  V30 19 1 5 18
M  V30 20 1 6 19
M  V30 21 1 10 20
M  V30 22 1 11 21
M  V30 23 1 12 22
M  V30 24 1 13 23
M  V30 END BOND
M  V30 END CTAB
M  END
>  <Structure No>
4401

>  <LogS>
-4.7999

>  <MMFF94 Energy>
38.035

$$$$
Compound 4402
Actelion Java MolfileCreator 2.0

  0  0  0  0  0  0              0 V3000
M  V30 BEGIN CTAB
M  V30 COUNTS 32 32 0 0 0
M  V30 BEGIN ATOM
M  V30 1 O -2.7567 0.0 1.3382 0
M  V30 2 C -2.1113 -0.0215 0.0852 0 CFG=1
M  V30 3 C -1.2226 1.2368 -0.0809 0
M  V30 4 C -1.2431 -1.2969 0.0058 0
M  V30 5 C -3.1723 -0.0624 -1.031 0
M  V30 6 C -0.067 1.2573 0.9308 0
M  V30 7 C -0.083 -1.2657 1.0136 0
M  V30 8 C 0.8218 -0.0132 0.8657 0 CFG=1
M  V30 9 C 1.8347 -0.0602 -0.3446 0
M  V30 10 O 1.1313 -0.1058 -1.562 0
M  V30 11 C 2.7426 -1.3105 -0.2401 0
M  V30 12 C 2.746 1.1916 -0.3357 0
M  V30 13 H -3.3132 0.8214 1.384 0
M  V30 14 H -0.8216 1.2965 -1.1136 0
M  V30 15 H -1.838 2.151 0.0685 0
M  V30 16 H -0.847 -1.4393 -1.0208 0
M  V30 17 H -1.8755 -2.1847 0.2273 0
M  V30 18 H -2.6908 -0.1216 -2.0309 0
M  V30 19 H -3.8043 0.851 -1.0013 0
M  V30 20 H -3.8324 -0.9468 -0.9021 0
M  V30 21 H 0.5253 2.1836 0.8014 0
M  V30 22 H -0.502 1.3293 1.9523 0
M  V30 23 H 0.4972 -2.2056 0.9418 0
M  V30 24 H -0.5143 -1.2668 2.0392 0
M  V30 25 H 1.4481 0.0135 1.7865 0
M  V30 26 H 1.7928 -0.1347 -2.3026 0
M  V30 27 H 3.1753 -1.4026 0.779 0
M  V30 28 H 2.1796 -2.2339 -0.4863 0
M  V30 29 H 3.5801 -1.2556 -0.9684 0
M  V30 30 H 3.584 1.0787 -1.0566 0
M  V30 31 H 3.1778 1.3607 0.6739 0
M  V30 32 H 2.1855 2.0947 -0.653 0
M  V30 END ATOM
M  V30 BEGIN BOND
M  V30 1 1 1 2
M  V30 2 1 2 3
M  V30 3 1 2 4
M  V30 4 1 2 5
M  V30 5 1 3 6
M  V30 6 1 4 7
M  V30 7 1 6 8
M  V30 8 1 8 9
M  V30 9 1 9 10
M  V30 10 1 9 11
M  V30 11 1 9 12
M  V30 12 1 7 8
M  V30 13 1 1 13
M  V30 14 1 3 14
M  V30 15 1 3 15
M  V30 16 1 4 16
M  V30 17 1 4 17
M  V30 18 1 5 18
M  V30 19 1 5 19
M  V30 20 1 5 20
M  V30 21 1 6 21
M  V30 22 1 6 22
M  V30 23 1 7 23
M  V30 24 1 7 24
M  V30 25 1 8 25
M  V30 26 1 10 26
M  V30 27 1 11 27
M  V30 28 1 11 28
M  V30 29 1 11 29
M  V30 30 1 12 30
M  V30 31 1 12 31
M  V30 32 1 12 32
M  V30 END BOND
M  V30 BEGIN COLLECTION
M  V30 MDLV30/STEABS ATOMS=(2 2 8)
M  V30 END COLLECTION
M  V30 END CTAB
M  END
>  <Structure No>
4402

>  <LogS>
-1.6774

>  <MMFF94 Energy>
30.431

$$$$
Compound 4403
Actelion Java MolfileCreator 2.0

  0  0  0  0  0  0              0 V3000
M  V30 BEGIN CTAB
M  V30 COUNTS 32 34 0 0 0
M  V30 BEGIN ATOM
M  V30 1 O 0.6437 -1.8517 1.9322 0
M  V30 2 C 0.2768 -1.0851 1.0013 0
M  V30 3 C 1.1191 -0.9279 -0.2127 0
M  V30 4 C -0.9126 -0.2117 1.1777 0
M  V30 5 C 1.1186 0.3307 -0.8616 0
M  V30 6 C 1.9469 -1.9701 -0.7007 0
M  V30 7 C -0.9131 1.0468 0.5288 0
M  V30 8 C -2.0051 -0.5771 2.0041 0
M  V30 9 C 0.2756 1.4104 -0.2854 0
M  V30 10 C 1.9457 0.538 -1.994 0
M  V30 11 N 1.8959 -3.2983 -0.1613 0
M  V30 12 C 2.8057 -1.7196 -1.7762 0
M  V30 13 C -2.0062 1.9312 0.7106 0
M  V30 14 N -2.1165 -1.8838 2.5848 0
M  V30 15 C -3.0384 0.3404 2.2234 0
M  V30 16 O 0.6416 2.6136 -0.3701 0
M  V30 17 N 1.8937 1.7477 -2.7633 0
M  V30 18 C 2.8052 -0.4827 -2.414 0
M  V30 19 N -2.1187 3.1621 -0.0172 0
M  V30 20 C -3.0389 1.5772 1.5856 0
M  V30 21 H 1.0775 -3.6406 0.3866 0
M  V30 22 H 2.61 -4.0082 -0.4388 0
M  V30 23 H 3.4521 -2.5037 -2.1507 0
M  V30 24 H -1.5879 -2.7011 2.2108 0
M  V30 25 H -2.852 -2.0829 3.2993 0
M  V30 26 H -3.8727 0.0782 2.8622 0
M  V30 27 H 2.6074 1.9337 -3.503 0
M  V30 28 H 1.0749 2.3921 -2.7243 0
M  V30 29 H 3.451 -0.3328 -3.2701 0
M  V30 30 H -2.8547 3.8591 0.2351 0
M  V30 31 H -1.5905 3.3317 -0.9 0
M  V30 32 H -3.8737 2.2492 1.7428 0
M  V30 END ATOM
M  V30 BEGIN BOND
M  V30 1 2 1 2
M  V30 2 1 2 3
M  V30 3 1 2 4
M  V30 4 2 3 5
M  V30 5 1 3 6
M  V30 6 2 4 7
M  V30 7 1 4 8
M  V30 8 1 5 9
M  V30 9 1 5 10
M  V30 10 1 6 11
M  V30 11 2 6 12
M  V30 12 1 7 13
M  V30 13 1 8 14
M  V30 14 2 8 15
M  V30 15 2 9 16
M  V30 16 1 10 17
M  V30 17 2 10 18
M  V30 18 1 13 19
M  V30 19 2 13 20
M  V30 20 1 7 9
M  V30 21 1 12 18
M  V30 22 1 15 20
M  V30 23 1 11 21
M  V30 24 1 11 22
M  V30 25 1 12 23
M  V30 26 1 14 24
M  V30 27 1 14 25
M  V30 28 1 15 26
M  V30 29 1 17 27
M  V30 30 1 17 28
M  V30 31 1 18 29
M  V30 32 1 19 30
M  V30 33 1 19 31
M  V30 34 1 20 32
M  V30 END BOND
M  V30 END CTAB
M  END
>  <Structure No>
4403

>  <LogS>
-6.9515

>  <MMFF94 Energy>
95.778

$$$$
Compound 4404
Actelion Java MolfileCreator 2.0

  0  0  0  0  0  0              0 V3000
M  V30 BEGIN CTAB
M  V30 COUNTS 37 37 0 0 0
M  V30 BEGIN ATOM
M  V30 1 O 1.7709 4.0283 -0.8851 0
M  V30 2 N 1.6806 2.8052 -1.1156 0 CHG=1
M  V30 3 O 2.6143 2.2143 -1.936 0 CHG=-1
M  V30 4 C 0.5505 2.0547 -0.6346 0
M  V30 5 C 0.6473 0.6687 -0.3906 0
M  V30 6 C -0.6716 2.6992 -0.4506 0
M  V30 7 O 1.9059 0.0577 -0.3989 0
M  V30 8 C -0.5155 -0.1036 -0.1 0
M  V30 9 C -1.7778 2.0112 0.0477 0
M  V30 10 C 2.9459 0.4275 0.4616 0
M  V30 11 C -1.6752 0.6257 0.3322 0
M  V30 12 C -0.4614 -1.6649 -0.2241 0
M  V30 13 N -3.0066 2.7317 0.2577 0 CHG=1
M  V30 14 O 2.7593 1.2819 1.3718 0
M  V30 15 C 4.2651 -0.2555 0.3442 0
M  V30 16 C -2.7304 0.0142 1.2252 0
M  V30 17 C 0.1807 -2.2698 1.0397 0
M  V30 18 C 0.3778 -2.0929 -1.4671 0
M  V30 19 C -1.8613 -2.3088 -0.442 0
M  V30 20 O -2.9837 3.9234 0.6296 0
M  V30 21 O -4.2179 2.148 -0.0302 0 CHG=-1
M  V30 22 H -0.7601 3.754 -0.6815 0
M  V30 23 H 5.0521 0.3366 0.8569 0
M  V30 24 H 4.2026 -1.2566 0.8142 0
M  V30 25 H 4.5375 -0.3692 -0.7252 0
M  V30 26 H -2.2915 -0.743 1.902 0
M  V30 27 H -3.5574 -0.4135 0.6203 0
M  V30 28 H -3.1604 0.775 1.9119 0
M  V30 29 H 1.2265 -1.9191 1.1635 0
M  V30 30 H 0.1976 -3.3794 0.9762 0
M  V30 31 H -0.3818 -1.983 1.9503 0
M  V30 32 H 1.4697 -2.018 -1.3014 0
M  V30 33 H 0.0966 -1.4856 -2.3564 0
M  V30 34 H 0.2219 -3.1641 -1.7252 0
M  V30 35 H -2.4606 -1.7129 -1.1623 0
M  V30 36 H -1.7864 -3.3399 -0.846 0
M  V30 37 H -2.4204 -2.4467 0.5028 0
M  V30 END ATOM
M  V30 BEGIN BOND
M  V30 1 2 1 2
M  V30 2 1 2 3
M  V30 3 1 2 4
M  V30 4 2 4 5
M  V30 5 1 4 6
M  V30 6 1 5 7
M  V30 7 1 5 8
M  V30 8 2 6 9
M  V30 9 1 7 10
M  V30 10 2 8 11
M  V30 11 1 8 12
M  V30 12 1 9 13
M  V30 13 2 10 14
M  V30 14 1 10 15
M  V30 15 1 11 16
M  V30 16 1 12 17
M  V30 17 1 12 18
M  V30 18 1 12 19
M  V30 19 2 13 20
M  V30 20 1 13 21
M  V30 21 1 9 11
M  V30 22 1 6 22
M  V30 23 1 15 23
M  V30 24 1 15 24
M  V30 25 1 15 25
M  V30 26 1 16 26
M  V30 27 1 16 27
M  V30 28 1 16 28
M  V30 29 1 17 29
M  V30 30 1 17 30
M  V30 31 1 17 31
M  V30 32 1 18 32
M  V30 33 1 18 33
M  V30 34 1 18 34
M  V30 35 1 19 35
M  V30 36 1 19 36
M  V30 37 1 19 37
M  V30 END BOND
M  V30 END CTAB
M  END
>  <Structure No>
4404

>  <LogS>
-4.4717

>  <MMFF94 Energy>
111.41

$$$$
Compound 4405
Actelion Java MolfileCreator 2.0

  0  0  0  0  0  0              0 V3000
M  V30 BEGIN CTAB
M  V30 COUNTS 11 10 0 0 0
M  V30 BEGIN ATOM
M  V30 1 O 1.265 -1.8189 0.9486 0
M  V30 2 C 1.3534 -0.6795 0.4203 0
M  V30 3 O 2.2651 0.2421 0.9191 0 CHG=-1
M  V30 4 C 0.4566 -0.3081 -0.7169 0
M  V30 5 N -0.8986 -0.0597 -0.2323 0
M  V30 6 C -1.2514 1.1151 0.5054 0
M  V30 7 O -0.3907 1.9968 0.7677 0
M  V30 8 H 0.8447 0.5933 -1.2384 0
M  V30 9 H 0.4396 -1.1436 -1.4496 0
M  V30 10 H -1.6487 -0.7529 -0.4517 0
M  V30 11 H -2.271 1.2509 0.8411 0
M  V30 END ATOM
M  V30 BEGIN BOND
M  V30 1 2 1 2
M  V30 2 1 2 3
M  V30 3 1 2 4
M  V30 4 1 4 5
M  V30 5 1 5 6
M  V30 6 2 6 7
M  V30 7 1 4 8
M  V30 8 1 4 9
M  V30 9 1 5 10
M  V30 10 1 6 11
M  V30 END BOND
M  V30 END CTAB
M  END
>  <Structure No>
4405

>  <LogS>
0.2672

>  <MMFF94 Energy>
21.494

$$$$
Compound 4406
Actelion Java MolfileCreator 2.0

  0  0  0  0  0  0              0 V3000
M  V30 BEGIN CTAB
M  V30 COUNTS 28 29 0 0 0
M  V30 BEGIN ATOM
M  V30 1 O -0.3186 1.6736 -0.3186 0
M  V30 2 C 0.2038 0.524 -0.3282 0
M  V30 3 C 1.6744 0.395 -0.1469 0
M  V30 4 C -0.6693 -0.6845 -0.5695 0
M  V30 5 C 2.3504 -0.8013 -0.4593 0
M  V30 6 C 2.4216 1.4868 0.3356 0
M  V30 7 C -2.1275 -0.3946 -0.3183 0
M  V30 8 C 3.7341 -0.9016 -0.2841 0
M  V30 9 C 3.8048 1.3816 0.5097 0
M  V30 10 C -2.6482 -0.4636 0.985 0
M  V30 11 C -2.9663 -7.0E-4 -1.3749 0
M  V30 12 C 4.4644 0.1893 0.2018 0
M  V30 13 C -3.9935 -0.1644 1.2227 0
M  V30 14 C -4.311 0.2976 -1.1325 0
M  V30 15 O 5.843 0.0992 0.3805 0
M  V30 16 C -4.8246 0.214 0.1647 0
M  V30 17 H -0.5242 -1.0299 -1.6159 0
M  V30 18 H -0.3511 -1.512 0.1011 0
M  V30 19 H 1.8199 -1.6586 -0.8514 0
M  V30 20 H 1.9363 2.4219 0.5867 0
M  V30 21 H 4.2379 -1.8277 -0.5301 0
M  V30 22 H 4.3648 2.2288 0.8852 0
M  V30 23 H -2.0121 -0.7468 1.8146 0
M  V30 24 H -2.5789 0.0768 -2.3832 0
M  V30 25 H -4.3908 -0.2225 2.2279 0
M  V30 26 H -4.9543 0.5968 -1.95 0
M  V30 27 H 6.3502 -0.7513 0.1659 0
M  V30 28 H -5.8654 0.4465 0.3507 0
M  V30 END ATOM
M  V30 BEGIN BOND
M  V30 1 2 1 2
M  V30 2 1 2 3
M  V30 3 1 2 4
M  V30 4 2 3 5
M  V30 5 1 3 6
M  V30 6 1 4 7
M  V30 7 1 5 8
M  V30 8 2 6 9
M  V30 9 2 7 10
M  V30 10 1 7 11
M  V30 11 2 8 12
M  V30 12 1 10 13
M  V30 13 2 11 14
M  V30 14 1 12 15
M  V30 15 2 13 16
M  V30 16 1 9 12
M  V30 17 1 14 16
M  V30 18 1 4 17
M  V30 19 1 4 18
M  V30 20 1 5 19
M  V30 21 1 6 20
M  V30 22 1 8 21
M  V30 23 1 9 22
M  V30 24 1 10 23
M  V30 25 1 11 24
M  V30 26 1 13 25
M  V30 27 1 14 26
M  V30 28 1 15 27
M  V30 29 1 16 28
M  V30 END BOND
M  V30 END CTAB
M  END
>  <Structure No>
4406

>  <LogS>
-1.5008

>  <MMFF94 Energy>
56.721

$$$$
Compound 4407
Actelion Java MolfileCreator 2.0

  0  0  0  0  0  0              0 V3000
M  V30 BEGIN CTAB
M  V30 COUNTS 33 36 0 0 0
M  V30 BEGIN ATOM
M  V30 1 F 2.7519 3.3192 0.2425 0
M  V30 2 C 2.06 2.1557 0.1255 0
M  V30 3 C 2.7284 0.9357 -0.0058 0
M  V30 4 C 0.673 2.2024 0.1357 0
M  V30 5 C 1.9892 -0.2766 -0.0969 0
M  V30 6 C 4.1346 0.9148 -0.0401 0
M  V30 7 C -0.105 1.0324 0.0207 0
M  V30 8 C 0.5574 -0.2295 -0.0405 0
M  V30 9 C 2.7207 -1.484 -0.2489 0
M  V30 10 C 4.8208 -0.2879 -0.1763 0
M  V30 11 C -1.5305 1.1017 -0.0093 0
M  V30 12 C -0.2307 -1.3994 -0.0207 0
M  V30 13 C 4.1163 -1.4814 -0.2843 0
M  V30 14 C -2.2867 -0.094 0.1171 0
M  V30 15 C -2.2362 2.4368 -0.1839 0
M  V30 16 C -1.6222 -1.3423 0.0862 0
M  V30 17 C -3.692 -0.0871 0.294 0
M  V30 18 C -2.3598 -2.5372 0.1718 0
M  V30 19 C -4.4082 -1.2822 0.3848 0
M  V30 20 C -3.7454 -2.5039 0.3144 0
M  V30 21 H 0.2233 3.1747 0.2761 0
M  V30 22 H 4.7086 1.8304 0.0349 0
M  V30 23 H 2.2515 -2.4457 -0.3628 0
M  V30 24 H 5.9028 -0.294 -0.2045 0
M  V30 25 H 0.2131 -2.3803 -0.0321 0
M  V30 26 H 4.6548 -2.4133 -0.4013 0
M  V30 27 H -1.6485 3.1307 -0.8177 0
M  V30 28 H -3.1879 2.3302 -0.7411 0
M  V30 29 H -2.4275 2.8976 0.8076 0
M  V30 30 H -4.2534 0.8295 0.3991 0
M  V30 31 H -1.8627 -3.4995 0.1376 0
M  V30 32 H -5.4822 -1.2594 0.5189 0
M  V30 33 H -4.305 -3.4278 0.3852 0
M  V30 END ATOM
M  V30 BEGIN BOND
M  V30 1 1 1 2
M  V30 2 1 2 3
M  V30 3 2 2 4
M  V30 4 1 3 5
M  V30 5 2 3 6
M  V30 6 1 4 7
M  V30 7 1 5 8
M  V30 8 2 5 9
M  V30 9 1 6 10
M  V30 10 2 7 11
M  V30 11 2 8 12
M  V30 12 1 9 13
M  V30 13 1 11 14
M  V30 14 1 11 15
M  V30 15 1 12 16
M  V30 16 2 14 17
M  V30 17 2 16 18
M  V30 18 1 17 19
M  V30 19 1 18 20
M  V30 20 1 7 8
M  V30 21 2 10 13
M  V30 22 1 14 16
M  V30 23 2 19 20
M  V30 24 1 4 21
M  V30 25 1 6 22
M  V30 26 1 9 23
M  V30 27 1 10 24
M  V30 28 1 12 25
M  V30 29 1 13 26
M  V30 30 1 15 27
M  V30 31 1 15 28
M  V30 32 1 15 29
M  V30 33 1 17 30
M  V30 34 1 18 31
M  V30 35 1 19 32
M  V30 36 1 20 33
M  V30 END BOND
M  V30 END CTAB
M  END
>  <Structure No>
4407

>  <LogS>
-7.31

>  <MMFF94 Energy>
74.605

$$$$
Compound 4408
Actelion Java MolfileCreator 2.0

  0  0  0  0  0  0              0 V3000
M  V30 BEGIN CTAB
M  V30 COUNTS 33 36 0 0 0
M  V30 BEGIN ATOM
M  V30 1 C -1.6076 0.1606 0.0803 0
M  V30 2 C -0.2345 -0.2522 0.0081 0
M  V30 3 C -2.611 -0.8511 0.0016 0
M  V30 4 C -2.0524 1.5212 0.1865 0
M  V30 5 C 0.0702 -1.5772 -0.4134 0
M  V30 6 C 0.8405 0.5578 0.4404 0
M  V30 7 C -2.2735 -2.1619 -0.3516 0
M  V30 8 C -3.9553 -0.544 0.2533 0
M  V30 9 C -3.4017 1.7863 0.4791 0
M  V30 10 C -1.2033 2.7214 -0.1565 0
M  V30 11 C 1.4024 -1.987 -0.5788 0
M  V30 12 C -0.9551 -2.505 -0.614 0
M  V30 13 C 2.1717 0.1447 0.2878 0
M  V30 14 C -4.3378 0.7607 0.5343 0
M  V30 15 C 2.4547 -1.1286 -0.2496 0
M  V30 16 C 3.2295 0.9843 0.6756 0
M  V30 17 C 3.7886 -1.5386 -0.4056 0
M  V30 18 C 4.5536 0.5671 0.5141 0
M  V30 19 C 4.8323 -0.6896 -0.0276 0
M  V30 20 H 0.665 1.4825 0.9625 0
M  V30 21 H -3.0397 -2.9223 -0.4509 0
M  V30 22 H -4.7145 -1.3173 0.2306 0
M  V30 23 H -3.7447 2.806 0.6097 0
M  V30 24 H -0.4043 2.4612 -0.8807 0
M  V30 25 H -0.7813 3.1703 0.7664 0
M  V30 26 H -1.8176 3.5013 -0.6562 0
M  V30 27 H 1.6205 -2.9884 -0.9352 0
M  V30 28 H -0.7304 -3.5217 -0.915 0
M  V30 29 H -5.3769 0.9878 0.7359 0
M  V30 30 H 3.0331 1.9636 1.0956 0
M  V30 31 H 4.0231 -2.5149 -0.8126 0
M  V30 32 H 5.365 1.2195 0.8096 0
M  V30 33 H 5.8592 -1.0091 -0.1492 0
M  V30 END ATOM
M  V30 BEGIN BOND
M  V30 1 2 1 2
M  V30 2 1 1 3
M  V30 3 1 1 4
M  V30 4 1 2 5
M  V30 5 1 2 6
M  V30 6 2 3 7
M  V30 7 1 3 8
M  V30 8 2 4 9
M  V30 9 1 4 10
M  V30 10 1 5 11
M  V30 11 2 5 12
M  V30 12 2 6 13
M  V30 13 2 8 14
M  V30 14 2 11 15
M  V30 15 1 13 16
M  V30 16 1 15 17
M  V30 17 2 16 18
M  V30 18 2 17 19
M  V30 19 1 7 12
M  V30 20 1 9 14
M  V30 21 1 13 15
M  V30 22 1 18 19
M  V30 23 1 6 20
M  V30 24 1 7 21
M  V30 25 1 8 22
M  V30 26 1 9 23
M  V30 27 1 10 24
M  V30 28 1 10 25
M  V30 29 1 10 26
M  V30 30 1 11 27
M  V30 31 1 12 28
M  V30 32 1 14 29
M  V30 33 1 16 30
M  V30 34 1 17 31
M  V30 35 1 18 32
M  V30 36 1 19 33
M  V30 END BOND
M  V30 END CTAB
M  END
>  <Structure No>
4408

>  <LogS>
-6.644

>  <MMFF94 Energy>
76.135

$$$$
Compound 4409
Actelion Java MolfileCreator 2.0

  0  0  0  0  0  0              0 V3000
M  V30 BEGIN CTAB
M  V30 COUNTS 16 16 0 0 0
M  V30 BEGIN ATOM
M  V30 1 Cl 3.7203 -0.7601 -0.0844 0
M  V30 2 C 2.0441 -0.2455 -0.0203 0
M  V30 3 C 1.019 -1.1795 -0.1889 0
M  V30 4 C 1.7352 1.0942 0.2134 0
M  V30 5 C -0.3311 -0.7853 -0.1273 0
M  V30 6 C 0.4034 1.5074 0.2586 0
M  V30 7 C -0.6416 0.5853 0.0712 0
M  V30 8 C -1.3802 -1.8284 -0.2033 0
M  V30 9 N -1.9947 1.066 0.0217 0 CHG=1
M  V30 10 O -1.167 -2.8985 -0.8331 0
M  V30 11 O -2.59 -1.6686 0.4619 0 CHG=-1
M  V30 12 O -2.3474 2.0203 0.7454 0
M  V30 13 O -2.8372 0.6467 -0.9822 0 CHG=-1
M  V30 14 H 1.279 -2.2204 -0.3391 0
M  V30 15 H 2.5271 1.8201 0.3488 0
M  V30 16 H 0.1852 2.5573 0.4101 0
M  V30 END ATOM
M  V30 BEGIN BOND
M  V30 1 1 1 2
M  V30 2 2 2 3
M  V30 3 1 2 4
M  V30 4 1 3 5
M  V30 5 2 4 6
M  V30 6 2 5 7
M  V30 7 1 5 8
M  V30 8 1 7 9
M  V30 9 2 8 10
M  V30 10 1 8 11
M  V30 11 2 9 12
M  V30 12 1 9 13
M  V30 13 1 6 7
M  V30 14 1 3 14
M  V30 15 1 4 15
M  V30 16 1 6 16
M  V30 END BOND
M  V30 END CTAB
M  END
>  <Structure No>
4409

>  <LogS>
-1.319

>  <MMFF94 Energy>
32.883

$$$$
Compound 4410
Actelion Java MolfileCreator 2.0

  0  0  0  0  0  0              0 V3000
M  V30 BEGIN CTAB
M  V30 COUNTS 30 32 0 0 0
M  V30 BEGIN ATOM
M  V30 1 Cl -0.9007 5.1668 0.3274 0
M  V30 2 C -1.1422 3.4329 0.2221 0
M  V30 3 C -0.0684 2.5979 -0.1332 0
M  V30 4 C -2.4113 2.8826 0.4951 0
M  V30 5 C -0.2867 1.2193 -0.2093 0
M  V30 6 C -2.616 1.4961 0.4158 0
M  V30 7 C -1.5353 0.6885 0.0614 0
M  V30 8 C 0.7082 0.136 -0.5652 0 CFG=2
M  V30 9 C -1.4619 -0.7488 -0.0906 0
M  V30 10 O 1.1554 0.2771 -1.89 0
M  V30 11 C -0.1688 -1.084 -0.4521 0
M  V30 12 C 1.8557 0.0604 0.4115 0
M  V30 13 C -2.4545 -1.7165 0.0687 0
M  V30 14 C 0.183 -2.4179 -0.6782 0
M  V30 15 O 1.651 0.2439 1.644 0
M  V30 16 O 3.1332 -0.2716 -0.0506 0
M  V30 17 C -2.1126 -3.0604 -0.1503 0
M  V30 18 C -0.7995 -3.4098 -0.5227 0
M  V30 19 C 4.2544 -0.3907 0.8161 0
M  V30 20 H 0.9096 3.0124 -0.3411 0
M  V30 21 H -3.2353 3.5291 0.7688 0
M  V30 22 H -3.588 1.0694 0.6258 0
M  V30 23 H 1.6618 1.13 -1.9431 0
M  V30 24 H -3.4624 -1.443 0.3522 0
M  V30 25 H 1.1923 -2.6824 -0.9659 0
M  V30 26 H -2.8626 -3.8321 -0.0338 0
M  V30 27 H -0.5463 -4.4484 -0.6912 0
M  V30 28 H 5.1501 -0.6576 0.2188 0
M  V30 29 H 4.4402 0.5751 1.3322 0
M  V30 30 H 4.0712 -1.1886 1.5669 0
M  V30 END ATOM
M  V30 BEGIN BOND
M  V30 1 1 1 2
M  V30 2 2 2 3
M  V30 3 1 2 4
M  V30 4 1 3 5
M  V30 5 2 4 6
M  V30 6 2 5 7
M  V30 7 1 5 8
M  V30 8 1 7 9
M  V30 9 1 8 10
M  V30 10 1 8 11
M  V30 11 1 8 12
M  V30 12 1 9 13
M  V30 13 1 11 14
M  V30 14 2 12 15
M  V30 15 1 12 16
M  V30 16 2 13 17
M  V30 17 2 14 18
M  V30 18 1 16 19
M  V30 19 1 6 7
M  V30 20 2 9 11
M  V30 21 1 17 18
M  V30 22 1 3 20
M  V30 23 1 4 21
M  V30 24 1 6 22
M  V30 25 1 10 23
M  V30 26 1 13 24
M  V30 27 1 14 25
M  V30 28 1 17 26
M  V30 29 1 18 27
M  V30 30 1 19 28
M  V30 31 1 19 29
M  V30 32 1 19 30
M  V30 END BOND
M  V30 BEGIN COLLECTION
M  V30 MDLV30/STEABS ATOMS=(1 8)
M  V30 END COLLECTION
M  V30 END CTAB
M  END
>  <Structure No>
4410

>  <LogS>
-4.1836

>  <MMFF94 Energy>
102.67

$$$$
Compound 4411
Actelion Java MolfileCreator 2.0

  0  0  0  0  0  0              0 V3000
M  V30 BEGIN CTAB
M  V30 COUNTS 33 36 0 0 0
M  V30 BEGIN ATOM
M  V30 1 F 0.0808 -3.4006 -0.7279 0
M  V30 2 C 0.6723 -2.2121 -0.4473 0
M  V30 3 C -0.0727 -1.0697 -0.0619 0
M  V30 4 C 2.0432 -2.1347 -0.6534 0
M  V30 5 C 0.5954 0.1923 0.002 0
M  V30 6 C -1.4686 -1.149 0.2362 0
M  V30 7 C 2.7261 -0.932 -0.4915 0
M  V30 8 C 2.0176 0.2521 -0.1577 0
M  V30 9 C -0.1807 1.3547 0.1932 0
M  V30 10 C -2.2322 0.0457 0.3152 0
M  V30 11 C -2.1275 -2.4846 0.5322 0
M  V30 12 C 4.1183 -0.9038 -0.6774 0
M  V30 13 C 2.7714 1.4427 0.015 0
M  V30 14 C -1.5704 1.2946 0.3095 0
M  V30 15 C -3.6467 0.0361 0.3823 0
M  V30 16 C 4.8268 0.2837 -0.5186 0
M  V30 17 C 4.1561 1.451 -0.1684 0
M  V30 18 C -2.3096 2.4863 0.4224 0
M  V30 19 C -4.3665 1.228 0.4866 0
M  V30 20 C -3.6996 2.4495 0.5154 0
M  V30 21 H 2.577 -3.031 -0.9487 0
M  V30 22 H 0.2635 2.3362 0.1919 0
M  V30 23 H -2.5123 -2.9378 -0.405 0
M  V30 24 H -2.9529 -2.3836 1.2652 0
M  V30 25 H -1.4219 -3.1754 1.0369 0
M  V30 26 H 4.6601 -1.8043 -0.9423 0
M  V30 27 H 2.331 2.3778 0.3166 0
M  V30 28 H -4.2169 -0.8794 0.3187 0
M  V30 29 H 5.8998 0.2973 -0.6596 0
M  V30 30 H 4.7131 2.3692 -0.0314 0
M  V30 31 H -1.8121 3.449 0.4312 0
M  V30 32 H -5.4476 1.2037 0.5367 0
M  V30 33 H -4.2616 3.371 0.5966 0
M  V30 END ATOM
M  V30 BEGIN BOND
M  V30 1 1 1 2
M  V30 2 1 2 3
M  V30 3 2 2 4
M  V30 4 1 3 5
M  V30 5 2 3 6
M  V30 6 1 4 7
M  V30 7 1 5 8
M  V30 8 2 5 9
M  V30 9 1 6 10
M  V30 10 1 6 11
M  V30 11 2 7 12
M  V30 12 2 8 13
M  V30 13 1 9 14
M  V30 14 2 10 15
M  V30 15 1 12 16
M  V30 16 1 13 17
M  V30 17 2 14 18
M  V30 18 1 15 19
M  V30 19 1 18 20
M  V30 20 1 7 8
M  V30 21 1 10 14
M  V30 22 2 16 17
M  V30 23 2 19 20
M  V30 24 1 4 21
M  V30 25 1 9 22
M  V30 26 1 11 23
M  V30 27 1 11 24
M  V30 28 1 11 25
M  V30 29 1 12 26
M  V30 30 1 13 27
M  V30 31 1 15 28
M  V30 32 1 16 29
M  V30 33 1 17 30
M  V30 34 1 18 31
M  V30 35 1 19 32
M  V30 36 1 20 33
M  V30 END BOND
M  V30 END CTAB
M  END
>  <Structure No>
4411

>  <LogS>
-7.31

>  <MMFF94 Energy>
74.595

$$$$
Compound 4412
Actelion Java MolfileCreator 2.0

  0  0  0  0  0  0              0 V3000
M  V30 BEGIN CTAB
M  V30 COUNTS 33 36 0 0 0
M  V30 BEGIN ATOM
M  V30 1 C 0.5627 0.2411 -0.0803 0
M  V30 2 C 1.9878 0.3878 -0.0218 0
M  V30 3 C -0.0151 -1.0633 -0.0304 0
M  V30 4 C -0.3017 1.3526 -0.165 0
M  V30 5 C 2.7953 -0.7672 0.1641 0
M  V30 6 C 2.6489 1.638 -0.147 0
M  V30 7 C -1.4256 -1.2334 -0.1697 0
M  V30 8 C 0.8297 -2.1727 0.1816 0
M  V30 9 C -1.6902 1.2007 -0.1667 0
M  V30 10 C 2.2056 -2.0245 0.2781 0
M  V30 11 C 4.1934 -0.6569 0.2428 0
M  V30 12 C 4.0409 1.7275 -0.0695 0
M  V30 13 C -2.2689 -0.0901 -0.1443 0
M  V30 14 C -2.0227 -2.6194 -0.3523 0
M  V30 15 C -2.5118 2.3427 -0.1817 0
M  V30 16 C 4.8102 0.5856 0.1283 0
M  V30 17 C -3.6803 -0.1906 -0.0784 0
M  V30 18 C -3.8991 2.2162 -0.1477 0
M  V30 19 C -4.4811 0.9533 -0.0862 0
M  V30 20 H 0.0748 2.3616 -0.1778 0
M  V30 21 H 2.1281 2.5636 -0.3225 0
M  V30 22 H 0.4412 -3.1719 0.3159 0
M  V30 23 H 2.8151 -2.906 0.4421 0
M  V30 24 H 4.8109 -1.5353 0.391 0
M  V30 25 H 4.5259 2.6905 -0.168 0
M  V30 26 H -2.2608 -3.0635 0.6366 0
M  V30 27 H -2.9321 -2.5964 -0.9852 0
M  V30 28 H -1.3407 -3.2883 -0.9144 0
M  V30 29 H -2.08 3.3365 -0.2105 0
M  V30 30 H 5.8883 0.6628 0.1874 0
M  V30 31 H -4.185 -1.141 0.0144 0
M  V30 32 H -4.524 3.1002 -0.1537 0
M  V30 33 H -5.5585 0.859 -0.0364 0
M  V30 END ATOM
M  V30 BEGIN BOND
M  V30 1 2 1 2
M  V30 2 1 1 3
M  V30 3 1 1 4
M  V30 4 1 2 5
M  V30 5 1 2 6
M  V30 6 1 3 7
M  V30 7 2 3 8
M  V30 8 2 4 9
M  V30 9 2 5 10
M  V30 10 1 5 11
M  V30 11 2 6 12
M  V30 12 2 7 13
M  V30 13 1 7 14
M  V30 14 1 9 15
M  V30 15 2 11 16
M  V30 16 1 13 17
M  V30 17 2 15 18
M  V30 18 2 17 19
M  V30 19 1 8 10
M  V30 20 1 9 13
M  V30 21 1 12 16
M  V30 22 1 18 19
M  V30 23 1 4 20
M  V30 24 1 6 21
M  V30 25 1 8 22
M  V30 26 1 10 23
M  V30 27 1 11 24
M  V30 28 1 12 25
M  V30 29 1 14 26
M  V30 30 1 14 27
M  V30 31 1 14 28
M  V30 32 1 15 29
M  V30 33 1 16 30
M  V30 34 1 17 31
M  V30 35 1 18 32
M  V30 36 1 19 33
M  V30 END BOND
M  V30 END CTAB
M  END
>  <Structure No>
4412

>  <LogS>
-7.343

>  <MMFF94 Energy>
75.31

$$$$
Compound 4413
Actelion Java MolfileCreator 2.0

  0  0  0  0  0  0              0 V3000
M  V30 BEGIN CTAB
M  V30 COUNTS 27 26 0 0 0
M  V30 BEGIN ATOM
M  V30 1 O 3.3881 2.284 -0.7871 0
M  V30 2 C 3.6874 1.2988 -0.0626 0
M  V30 3 O 4.9936 0.8268 -0.0482 0 CHG=-1
M  V30 4 C 2.6315 0.6051 0.7384 0
M  V30 5 C 1.9568 -0.4885 -0.0984 0
M  V30 6 C 0.972 -1.3439 0.7184 0
M  V30 7 C -0.212 -0.5703 1.3335 0
M  V30 8 C -1.0658 0.2245 0.3297 0
M  V30 9 C -1.7315 -0.6713 -0.7285 0
M  V30 10 C -2.6747 0.121 -1.6443 0
M  V30 11 C -3.894 0.6058 -0.9159 0
M  V30 12 O -4.7008 -0.1891 -0.4607 0
M  V30 13 H 1.8813 1.3552 1.0678 0
M  V30 14 H 3.0981 0.1568 1.6421 0
M  V30 15 H 2.7412 -1.1683 -0.4986 0
M  V30 16 H 1.4423 -0.0379 -0.9736 0
M  V30 17 H 1.5298 -1.84 1.5423 0
M  V30 18 H 0.5834 -2.1586 0.0713 0
M  V30 19 H 0.1682 0.1267 2.1101 0
M  V30 20 H -0.867 -1.2973 1.8611 0
M  V30 21 H -1.8552 0.7509 0.9089 0
M  V30 22 H -0.4523 1.0075 -0.1635 0
M  V30 23 H -0.9467 -1.1276 -1.368 0
M  V30 24 H -2.2914 -1.4956 -0.2345 0
M  V30 25 H -2.9985 -0.5294 -2.4849 0
M  V30 26 H -2.1338 0.9894 -2.0788 0
M  V30 27 H -4.0687 1.6707 -0.8018 0
M  V30 END ATOM
M  V30 BEGIN BOND
M  V30 1 2 1 2
M  V30 2 1 2 3
M  V30 3 1 2 4
M  V30 4 1 4 5
M  V30 5 1 5 6
M  V30 6 1 6 7
M  V30 7 1 7 8
M  V30 8 1 8 9
M  V30 9 1 9 10
M  V30 10 1 10 11
M  V30 11 2 11 12
M  V30 12 1 4 13
M  V30 13 1 4 14
M  V30 14 1 5 15
M  V30 15 1 5 16
M  V30 16 1 6 17
M  V30 17 1 6 18
M  V30 18 1 7 19
M  V30 19 1 7 20
M  V30 20 1 8 21
M  V30 21 1 8 22
M  V30 22 1 9 23
M  V30 23 1 9 24
M  V30 24 1 10 25
M  V30 25 1 10 26
M  V30 26 1 11 27
M  V30 END BOND
M  V30 END CTAB
M  END
>  <Structure No>
4413

>  <LogS>
-0.9574

>  <MMFF94 Energy>
5.4998

$$$$
Compound 4414
Actelion Java MolfileCreator 2.0

  0  0  0  0  0  0              0 V3000
M  V30 BEGIN CTAB
M  V30 COUNTS 19 19 0 0 0
M  V30 BEGIN ATOM
M  V30 1 Cl 4.3114 -0.3311 -1.9053 0
M  V30 2 C 3.4932 0.4044 -0.5061 0
M  V30 3 Cl 4.1784 2.0208 -0.2009 0
M  V30 4 C 2.022 0.5014 -0.7731 0
M  V30 5 O 1.5996 1.3304 -1.6247 0
M  V30 6 N 1.1134 -0.4025 -0.1245 0
M  V30 7 C -0.3171 -0.2572 -0.1429 0
M  V30 8 C -1.126 -1.4041 -0.1066 0
M  V30 9 C -0.9274 1.0112 -0.136 0
M  V30 10 C -2.5195 -1.2881 -0.1015 0
M  V30 11 C -2.3215 1.123 -0.1298 0
M  V30 12 C -3.1169 -0.0253 -0.1171 0
M  V30 13 H 3.6821 -0.2255 0.3882 0
M  V30 14 H 1.5125 -1.2623 0.3157 0
M  V30 15 H -0.6751 -2.3883 -0.0924 0
M  V30 16 H -0.3319 1.9138 -0.1093 0
M  V30 17 H -3.1361 -2.1773 -0.0832 0
M  V30 18 H -2.7854 2.1009 -0.1256 0
M  V30 19 H -4.1956 0.0632 -0.1107 0
M  V30 END ATOM
M  V30 BEGIN BOND
M  V30 1 1 1 2
M  V30 2 1 2 3
M  V30 3 1 2 4
M  V30 4 2 4 5
M  V30 5 1 4 6
M  V30 6 1 6 7
M  V30 7 2 7 8
M  V30 8 1 7 9
M  V30 9 1 8 10
M  V30 10 2 9 11
M  V30 11 2 10 12
M  V30 12 1 11 12
M  V30 13 1 2 13
M  V30 14 1 6 14
M  V30 15 1 8 15
M  V30 16 1 9 16
M  V30 17 1 10 17
M  V30 18 1 11 18
M  V30 19 1 12 19
M  V30 END BOND
M  V30 END CTAB
M  END
>  <Structure No>
4414

>  <LogS>
-3.3555

>  <MMFF94 Energy>
47.276

$$$$
Compound 4415
Actelion Java MolfileCreator 2.0

  0  0  0  0  0  0              0 V3000
M  V30 BEGIN CTAB
M  V30 COUNTS 17 17 0 0 0
M  V30 BEGIN ATOM
M  V30 1 O 0.4693 -0.5476 0.7824 0
M  V30 2 C -0.127 0.5065 0.0641 0
M  V30 3 C 1.8377 -0.3347 0.6644 0
M  V30 4 O 0.7772 1.0608 -0.8636 0
M  V30 5 C -1.3644 -0.0038 -0.6807 0
M  V30 6 C 2.0234 0.5183 -0.5559 0
M  V30 7 C -2.4447 -0.4971 0.2797 0
M  V30 8 H -0.4338 1.3042 0.7776 0
M  V30 9 H 2.3644 -1.3068 0.556 0
M  V30 10 H 2.2103 0.1889 1.5723 0
M  V30 11 H -1.0727 -0.8324 -1.3622 0
M  V30 12 H -1.7852 0.8198 -1.2976 0
M  V30 13 H 2.7551 1.3324 -0.3652 0
M  V30 14 H 2.3727 -0.0982 -1.4122 0
M  V30 15 H -3.3303 -0.8329 -0.2995 0
M  V30 16 H -2.0704 -1.3533 0.8797 0
M  V30 17 H -2.7574 0.3214 0.9626 0
M  V30 END ATOM
M  V30 BEGIN BOND
M  V30 1 1 1 2
M  V30 2 1 1 3
M  V30 3 1 2 4
M  V30 4 1 2 5
M  V30 5 1 3 6
M  V30 6 1 5 7
M  V30 7 1 4 6
M  V30 8 1 2 8
M  V30 9 1 3 9
M  V30 10 1 3 10
M  V30 11 1 5 11
M  V30 12 1 5 12
M  V30 13 1 6 13
M  V30 14 1 6 14
M  V30 15 1 7 15
M  V30 16 1 7 16
M  V30 17 1 7 17
M  V30 END BOND
M  V30 END CTAB
M  END
>  <Structure No>
4415

>  <LogS>
0.2919

>  <MMFF94 Energy>
9.6197

$$$$
Compound 4416
Actelion Java MolfileCreator 2.0

  0  0  0  0  0  0              0 V3000
M  V30 BEGIN CTAB
M  V30 COUNTS 14 13 0 0 0
M  V30 BEGIN ATOM
M  V30 1 O -2.6014 1.453 -0.4586 0
M  V30 2 N -1.2492 1.2474 -0.3058 0
M  V30 3 C -0.745 0.0626 -0.134 0
M  V30 4 N -1.5995 -1.0888 -0.0861 0
M  V30 5 C 0.7179 -0.0761 0.0394 0
M  V30 6 N 1.4165 0.9717 0.3584 0
M  V30 7 N 1.3621 -1.3412 -0.1677 0
M  V30 8 O 2.7821 0.92 0.5214 0
M  V30 9 H -2.959 2.3906 -0.5904 0
M  V30 10 H -2.6209 -1.0149 -0.2895 0
M  V30 11 H -1.2405 -2.0181 0.2227 0
M  V30 12 H 0.8519 -2.1465 -0.5909 0
M  V30 13 H 2.3784 -1.4713 0.0319 0
M  V30 14 H 3.294 1.7568 0.7703 0
M  V30 END ATOM
M  V30 BEGIN BOND
M  V30 1 1 1 2
M  V30 2 2 2 3
M  V30 3 1 3 4
M  V30 4 1 3 5
M  V30 5 2 5 6
M  V30 6 1 5 7
M  V30 7 1 6 8
M  V30 8 1 1 9
M  V30 9 1 4 10
M  V30 10 1 4 11
M  V30 11 1 7 12
M  V30 12 1 7 13
M  V30 13 1 8 14
M  V30 END BOND
M  V30 END CTAB
M  END
>  <Structure No>
4416

>  <LogS>
-0.7773

>  <MMFF94 Energy>
29.386

$$$$
Compound 4417
Actelion Java MolfileCreator 2.0

  0  0  0  0  0  0              0 V3000
M  V30 BEGIN CTAB
M  V30 COUNTS 18 18 0 0 0
M  V30 BEGIN ATOM
M  V30 1 O -1.9961 -2.6355 -0.8779 0
M  V30 2 N -1.7387 -1.7516 -0.0343 0 CHG=1
M  V30 3 O -2.4928 -1.6972 1.1148 0 CHG=-1
M  V30 4 C -0.5654 -0.9303 -0.1837 0
M  V30 5 C -0.5133 0.3965 0.3168 0
M  V30 6 C 0.5592 -1.4548 -0.8463 0
M  V30 7 C 0.6747 1.1376 0.1852 0
M  V30 8 C -1.6978 1.0418 0.9851 0
M  V30 9 C 1.7246 -0.6996 -0.9829 0
M  V30 10 C 1.7887 0.593 -0.4637 0
M  V30 11 O 2.9628 1.3304 -0.5995 0
M  V30 12 H 0.541 -2.4622 -1.2423 0
M  V30 13 H 0.7339 2.1455 0.5781 0
M  V30 14 H -2.6274 0.8233 0.4187 0
M  V30 15 H -1.7921 0.665 2.0249 0
M  V30 16 H -1.5881 2.1467 1.0237 0
M  V30 17 H 2.5833 -1.1237 -1.4876 0
M  V30 18 H 3.0423 2.2724 -0.2346 0
M  V30 END ATOM
M  V30 BEGIN BOND
M  V30 1 2 1 2
M  V30 2 1 2 3
M  V30 3 1 2 4
M  V30 4 2 4 5
M  V30 5 1 4 6
M  V30 6 1 5 7
M  V30 7 1 5 8
M  V30 8 2 6 9
M  V30 9 2 7 10
M  V30 10 1 10 11
M  V30 11 1 9 10
M  V30 12 1 6 12
M  V30 13 1 7 13
M  V30 14 1 8 14
M  V30 15 1 8 15
M  V30 16 1 8 16
M  V30 17 1 9 17
M  V30 18 1 11 18
M  V30 END BOND
M  V30 END CTAB
M  END
>  <Structure No>
4417

>  <LogS>
-2.1103

>  <MMFF94 Energy>
43.789

$$$$
Compound 4418
Actelion Java MolfileCreator 2.0

  0  0  0  0  0  0              0 V3000
M  V30 BEGIN CTAB
M  V30 COUNTS 38 40 0 0 0
M  V30 BEGIN ATOM
M  V30 1 O 9.111 -0.1607 0.1607 0
M  V30 2 N 8.2098 -0.9192 0.5749 0 CHG=1
M  V30 3 O 8.5655 -2.0591 1.2591 0 CHG=-1
M  V30 4 C 6.8236 -0.6085 0.342 0
M  V30 5 C 5.8136 -1.4668 0.8109 0
M  V30 6 C 6.4559 0.5559 -0.3568 0
M  V30 7 C 4.4664 -1.1677 0.5864 0
M  V30 8 C 5.1083 0.8533 -0.5805 0
M  V30 9 C 4.1059 -0.0027 -0.1125 0
M  V30 10 N 2.7353 0.3332 -0.3597 0
M  V30 11 N 1.7752 -0.4013 0.0381 0
M  V30 12 C 0.4046 -0.0652 -0.2089 0
M  V30 13 C -0.5979 -0.9227 0.2574 0
M  V30 14 C 0.0446 1.097 -0.9136 0
M  V30 15 C -1.9453 -0.6248 0.0333 0
M  V30 16 C -1.3029 1.3948 -1.1379 0
M  V30 17 C -2.3091 0.5487 -0.6502 0
M  V30 18 N -3.6871 0.8616 -0.9175 0
M  V30 19 C -4.7825 0.5117 -0.0537 0
M  V30 20 C -4.6252 0.4613 1.344 0
M  V30 21 C -6.0513 0.2803 -0.6077 0
M  V30 22 C -5.7125 0.1465 2.1649 0
M  V30 23 C -7.1364 -0.0344 0.2164 0
M  V30 24 C -6.9662 -0.1051 1.6016 0
M  V30 25 H 6.0643 -2.3701 1.352 0
M  V30 26 H 7.2097 1.2369 -0.7306 0
M  V30 27 H 3.7092 -1.8461 0.9585 0
M  V30 28 H 4.8431 1.7539 -1.1204 0
M  V30 29 H -0.3331 -1.828 0.7895 0
M  V30 30 H 0.8013 1.7723 -1.2919 0
M  V30 31 H -2.7007 -1.3185 0.3791 0
M  V30 32 H -1.5651 2.2921 -1.6846 0
M  V30 33 H -3.9075 1.3791 -1.7989 0
M  V30 34 H -3.6689 0.6814 1.8004 0
M  V30 35 H -6.1956 0.3352 -1.6795 0
M  V30 36 H -5.585 0.1054 3.2391 0
M  V30 37 H -8.1096 -0.2211 -0.2187 0
M  V30 38 H -7.8073 -0.3471 2.2386 0
M  V30 END ATOM
M  V30 BEGIN BOND
M  V30 1 2 1 2
M  V30 2 1 2 3
M  V30 3 1 2 4
M  V30 4 2 4 5
M  V30 5 1 4 6
M  V30 6 1 5 7
M  V30 7 2 6 8
M  V30 8 2 7 9
M  V30 9 1 9 10
M  V30 10 2 10 11
M  V30 11 1 11 12
M  V30 12 2 12 13
M  V30 13 1 12 14
M  V30 14 1 13 15
M  V30 15 2 14 16
M  V30 16 2 15 17
M  V30 17 1 17 18
M  V30 18 1 18 19
M  V30 19 2 19 20
M  V30 20 1 19 21
M  V30 21 1 20 22
M  V30 22 2 21 23
M  V30 23 2 22 24
M  V30 24 1 8 9
M  V30 25 1 16 17
M  V30 26 1 23 24
M  V30 27 1 5 25
M  V30 28 1 6 26
M  V30 29 1 7 27
M  V30 30 1 8 28
M  V30 31 1 13 29
M  V30 32 1 14 30
M  V30 33 1 15 31
M  V30 34 1 16 32
M  V30 35 1 18 33
M  V30 36 1 20 34
M  V30 37 1 21 35
M  V30 38 1 22 36
M  V30 39 1 23 37
M  V30 40 1 24 38
M  V30 END BOND
M  V30 END CTAB
M  END
>  <Structure No>
4418

>  <LogS>
-7.5229

>  <MMFF94 Energy>
83.335

$$$$
Compound 4419
Actelion Java MolfileCreator 2.0

  0  0  0  0  0  0              0 V3000
M  V30 BEGIN CTAB
M  V30 COUNTS 22 23 0 0 0
M  V30 BEGIN ATOM
M  V30 1 S 0.4026 -0.2416 -0.8055 0
M  V30 2 C 0.3608 0.5676 0.6878 0
M  V30 3 C -0.837 -1.2778 -0.3524 0
M  V30 4 N -0.5629 0.0452 1.5311 0
M  V30 5 N 1.2543 1.6155 1.0871 0
M  V30 6 C -1.234 -0.977 0.9417 0
M  V30 7 C -1.4247 -2.3048 -1.0865 0
M  V30 8 C 2.0847 2.3563 0.1798 0
M  V30 9 C -2.252 -1.7095 1.5551 0
M  V30 10 C -2.4514 -3.0466 -0.4804 0
M  V30 11 N 1.6365 2.7285 -0.9813 0 CHG=1
M  V30 12 N 3.3892 2.7613 0.6019 0
M  V30 13 C -2.8632 -2.7505 0.8345 0
M  V30 14 H 1.374 1.7863 2.1107 0
M  V30 15 H -1.1001 -2.5262 -2.0948 0
M  V30 16 H -2.5664 -1.4823 2.5658 0
M  V30 17 H -2.928 -3.8509 -1.0257 0
M  V30 18 H 0.6584 2.5194 -1.2798 0
M  V30 19 H 2.2345 3.2859 -1.6313 0
M  V30 20 H 3.7469 2.4854 1.5431 0
M  V30 21 H 4.0052 3.3283 -0.0224 0
M  V30 22 H -3.6547 -3.3289 1.2932 0
M  V30 END ATOM
M  V30 BEGIN BOND
M  V30 1 1 1 2
M  V30 2 1 1 3
M  V30 3 2 2 4
M  V30 4 1 2 5
M  V30 5 2 3 6
M  V30 6 1 3 7
M  V30 7 1 5 8
M  V30 8 1 6 9
M  V30 9 2 7 10
M  V30 10 2 8 11
M  V30 11 1 8 12
M  V30 12 2 9 13
M  V30 13 1 4 6
M  V30 14 1 10 13
M  V30 15 1 5 14
M  V30 16 1 7 15
M  V30 17 1 9 16
M  V30 18 1 10 17
M  V30 19 1 11 18
M  V30 20 1 11 19
M  V30 21 1 12 20
M  V30 22 1 12 21
M  V30 23 1 13 22
M  V30 END BOND
M  V30 END CTAB
M  END
>  <Structure No>
4419

>  <LogS>
-2.4412

>  <MMFF94 Energy>
-191.04

$$$$
Compound 4420
Actelion Java MolfileCreator 2.0

  0  0  0  0  0  0              0 V3000
M  V30 BEGIN CTAB
M  V30 COUNTS 16 15 0 0 0
M  V30 BEGIN ATOM
M  V30 1 O 3.0522 -0.6419 2.2483 0
M  V30 2 C 2.3995 -1.0561 1.2552 0
M  V30 3 O 2.6389 -2.3356 0.7665 0 CHG=-1
M  V30 4 C 1.3955 -0.1821 0.6305 0
M  V30 5 C 0.6764 -0.5699 -0.4273 0
M  V30 6 C -0.3438 0.3339 -1.0621 0
M  V30 7 C -1.6982 0.2685 -0.3447 0
M  V30 8 C -1.655 0.9348 0.9961 0
M  V30 9 O -1.6048 0.243 2.0472 0
M  V30 10 O -1.64 2.3211 1.0834 0 CHG=-1
M  V30 11 H 1.2449 0.8065 1.0484 0
M  V30 12 H 0.833 -1.5482 -0.8659 0
M  V30 13 H -0.4935 -6.0E-4 -2.1112 0
M  V30 14 H 0.0303 1.3808 -1.1035 0
M  V30 15 H -2.4586 0.7869 -0.9673 0
M  V30 16 H -2.0213 -0.7905 -0.2372 0
M  V30 END ATOM
M  V30 BEGIN BOND
M  V30 1 2 1 2
M  V30 2 1 2 3
M  V30 3 1 2 4
M  V30 4 2 4 5
M  V30 5 1 5 6
M  V30 6 1 6 7
M  V30 7 1 7 8
M  V30 8 2 8 9
M  V30 9 1 8 10
M  V30 10 1 4 11
M  V30 11 1 5 12
M  V30 12 1 6 13
M  V30 13 1 6 14
M  V30 14 1 7 15
M  V30 15 1 7 16
M  V30 END BOND
M  V30 END CTAB
M  END
>  <Structure No>
4420

>  <LogS>
-1.2045

>  <MMFF94 Energy>
41.214

$$$$
Compound 4421
Actelion Java MolfileCreator 2.0

  0  0  0  0  0  0              0 V3000
M  V30 BEGIN CTAB
M  V30 COUNTS 17 17 0 0 0
M  V30 BEGIN ATOM
M  V30 1 Cl 3.5575 1.9555 1.4219 0
M  V30 2 C 3.5911 0.5035 0.3854 0
M  V30 3 Cl 4.5437 0.8879 -1.0735 0
M  V30 4 Cl 4.397 -0.8145 1.2682 0
M  V30 5 C 2.1981 0.0723 0.0201 0
M  V30 6 N 1.9443 -0.6066 -1.1364 0
M  V30 7 N 1.1446 0.256 0.8798 0
M  V30 8 S 0.3211 -0.9571 -1.0899 0
M  V30 9 C 0.0022 -0.2609 0.3869 0
M  V30 10 O -1.2235 -0.2087 1.0581 0
M  V30 11 C -2.4438 -0.7035 0.5111 0
M  V30 12 C -3.0141 0.278 -0.5061 0
M  V30 13 H -2.287 -1.6999 0.0443 0
M  V30 14 H -3.1767 -0.824 1.3366 0
M  V30 15 H -2.321 0.3947 -1.3647 0
M  V30 16 H -3.1719 1.2685 -0.0293 0
M  V30 17 H -3.988 -0.099 -0.8831 0
M  V30 END ATOM
M  V30 BEGIN BOND
M  V30 1 1 1 2
M  V30 2 1 2 3
M  V30 3 1 2 4
M  V30 4 1 2 5
M  V30 5 2 5 6
M  V30 6 1 5 7
M  V30 7 1 6 8
M  V30 8 2 7 9
M  V30 9 1 9 10
M  V30 10 1 10 11
M  V30 11 1 11 12
M  V30 12 1 8 9
M  V30 13 1 11 13
M  V30 14 1 11 14
M  V30 15 1 12 15
M  V30 16 1 12 16
M  V30 17 1 12 17
M  V30 END BOND
M  V30 END CTAB
M  END
>  <Structure No>
4421

>  <LogS>
-3.3254

>  <MMFF94 Energy>
75.14

$$$$
Compound 4422
Actelion Java MolfileCreator 2.0

  0  0  0  0  0  0              0 V3000
M  V30 BEGIN CTAB
M  V30 COUNTS 21 21 0 0 0
M  V30 BEGIN ATOM
M  V30 1 O -3.5906 1.0598 0.326 0
M  V30 2 C -2.4698 1.5618 0.0505 0
M  V30 3 O -2.4086 2.9158 -0.2608 0 CHG=-1
M  V30 4 C -1.225 0.745 0.0779 0
M  V30 5 C -1.2192 -0.6709 0.0985 0
M  V30 6 C 0.013 1.4087 0.0767 0
M  V30 7 N -0.0335 -1.3332 0.1439 0
M  V30 8 C -2.4739 -1.4947 0.0665 0
M  V30 9 C 1.2277 0.7025 0.107 0
M  V30 10 C 1.1737 -0.71 0.1577 0
M  V30 11 C 2.5036 1.4685 0.09 0
M  V30 12 C 2.4002 -1.5713 0.2377 0
M  V30 13 O 2.5135 2.6876 0.4091 0
M  V30 14 O 3.6974 0.8774 -0.3037 0 CHG=-1
M  V30 15 H 0.0337 2.4915 0.049 0
M  V30 16 H -2.2278 -2.5739 -0.0291 0
M  V30 17 H -3.0976 -1.2109 -0.8071 0
M  V30 18 H -3.0438 -1.3558 1.009 0
M  V30 19 H 2.12 -2.627 0.4407 0
M  V30 20 H 2.9478 -1.5411 -0.7271 0
M  V30 21 H 3.0568 -1.231 1.0658 0
M  V30 END ATOM
M  V30 BEGIN BOND
M  V30 1 2 1 2
M  V30 2 1 2 3
M  V30 3 1 2 4
M  V30 4 2 4 5
M  V30 5 1 4 6
M  V30 6 1 5 7
M  V30 7 1 5 8
M  V30 8 2 6 9
M  V30 9 2 7 10
M  V30 10 1 9 11
M  V30 11 1 10 12
M  V30 12 2 11 13
M  V30 13 1 11 14
M  V30 14 1 9 10
M  V30 15 1 6 15
M  V30 16 1 8 16
M  V30 17 1 8 17
M  V30 18 1 8 18
M  V30 19 1 12 19
M  V30 20 1 12 20
M  V30 21 1 12 21
M  V30 END BOND
M  V30 END CTAB
M  END
>  <Structure No>
4422

>  <LogS>
-2.809

>  <MMFF94 Energy>
88.775

$$$$
Compound 4423
Actelion Java MolfileCreator 2.0

  0  0  0  0  0  0              0 V3000
M  V30 BEGIN CTAB
M  V30 COUNTS 46 49 0 0 0
M  V30 BEGIN ATOM
M  V30 1 S 2.9437 1.9907 2.3371 0
M  V30 2 O 4.1405 2.7121 2.8914 0
M  V30 3 O 2.4094 1.0795 3.4066 0
M  V30 4 O 1.7799 3.1274 1.9166 0 CHG=-1
M  V30 5 C 3.4048 1.0424 0.9088 0
M  V30 6 C 2.5976 -0.0012 0.364 0
M  V30 7 C 4.6619 1.3068 0.3409 0
M  V30 8 C 1.1941 -0.2861 0.7974 0
M  V30 9 C 3.1367 -0.8094 -0.6716 0
M  V30 10 C 5.1511 0.5428 -0.7194 0
M  V30 11 N 0.4891 0.6374 1.3886 0
M  V30 12 C 0.6128 -1.5977 0.4186 0
M  V30 13 C 4.3991 -0.5254 -1.2055 0
M  V30 14 C 2.3943 -1.9821 -1.1938 0
M  V30 15 S 6.7394 0.8872 -1.3975 0
M  V30 16 N -0.8872 0.5518 1.6658 0
M  V30 17 O -0.3815 -2.0768 1.0261 0
M  V30 18 C 1.2332 -2.3677 -0.6637 0
M  V30 19 O 7.0246 2.3601 -1.3068 0
M  V30 20 O 6.7786 0.4764 -2.8427 0
M  V30 21 O 7.908 0.0367 -0.5421 0 CHG=-1
M  V30 22 C -1.8672 0.3951 0.62 0
M  V30 23 C -3.1395 -0.1675 0.8851 0
M  V30 24 C -1.5651 0.8288 -0.6772 0
M  V30 25 C -4.1029 -0.2687 -0.1628 0
M  V30 26 C -3.4637 -0.6608 2.1671 0
M  V30 27 C -2.4997 0.7241 -1.7016 0
M  V30 28 C -3.7707 0.1867 -1.4656 0
M  V30 29 C -5.3656 -0.8319 0.1256 0
M  V30 30 C -4.7177 -1.2141 2.4211 0
M  V30 31 S -4.9088 0.0973 -2.8234 0
M  V30 32 C -5.666 -1.2945 1.4064 0
M  V30 33 O -5.2633 -1.3384 -3.0908 0
M  V30 34 O -4.2964 0.6826 -4.0654 0
M  V30 35 O -6.2976 0.9673 -2.4527 0 CHG=-1
M  V30 36 H 5.2765 2.1062 0.7339 0
M  V30 37 H 4.8005 -1.1428 -2.0003 0
M  V30 38 H 2.8216 -2.5736 -1.9948 0
M  V30 39 H -1.2104 0.9323 2.5824 0
M  V30 40 H 0.7453 -3.2611 -1.0336 0
M  V30 41 H -0.6019 1.2706 -0.8981 0
M  V30 42 H -2.7515 -0.6405 2.9803 0
M  V30 43 H -2.2238 1.076 -2.6869 0
M  V30 44 H -6.133 -0.9285 -0.6279 0
M  V30 45 H -4.9535 -1.587 3.4097 0
M  V30 46 H -6.6375 -1.7261 1.6107 0
M  V30 END ATOM
M  V30 BEGIN BOND
M  V30 1 2 1 2
M  V30 2 2 1 3
M  V30 3 1 1 4
M  V30 4 1 1 5
M  V30 5 2 5 6
M  V30 6 1 5 7
M  V30 7 1 6 8
M  V30 8 1 6 9
M  V30 9 2 7 10
M  V30 10 2 8 11
M  V30 11 1 8 12
M  V30 12 2 9 13
M  V30 13 1 9 14
M  V30 14 1 10 15
M  V30 15 1 11 16
M  V30 16 2 12 17
M  V30 17 1 12 18
M  V30 18 2 15 19
M  V30 19 2 15 20
M  V30 20 1 15 21
M  V30 21 1 16 22
M  V30 22 1 22 23
M  V30 23 2 22 24
M  V30 24 1 23 25
M  V30 25 2 23 26
M  V30 26 1 24 27
M  V30 27 1 25 28
M  V30 28 2 25 29
M  V30 29 1 26 30
M  V30 30 1 28 31
M  V30 31 1 29 32
M  V30 32 2 31 33
M  V30 33 2 31 34
M  V30 34 1 31 35
M  V30 35 1 10 13
M  V30 36 2 14 18
M  V30 37 2 27 28
M  V30 38 2 30 32
M  V30 39 1 7 36
M  V30 40 1 13 37
M  V30 41 1 14 38
M  V30 42 1 16 39
M  V30 43 1 18 40
M  V30 44 1 24 41
M  V30 45 1 26 42
M  V30 46 1 27 43
M  V30 47 1 29 44
M  V30 48 1 30 45
M  V30 49 1 32 46
M  V30 END BOND
M  V30 END CTAB
M  END
>  <Structure No>
4423

>  <LogS>
-0.8783

>  <MMFF94 Energy>
277.38

$$$$
Compound 4424
Actelion Java MolfileCreator 2.0

  0  0  0  0  0  0              0 V3000
M  V30 BEGIN CTAB
M  V30 COUNTS 25 25 0 0 0
M  V30 BEGIN ATOM
M  V30 1 O 3.3253 -1.0283 -1.9783 0
M  V30 2 C 3.8045 -0.4343 -0.9748 0
M  V30 3 O 2.9867 -0.0444 0.0937 0
M  V30 4 C 5.2797 -0.2477 -0.8685 0
M  V30 5 C 1.5894 0.0741 0.0454 0
M  V30 6 C 0.9014 0.3977 -1.138 0
M  V30 7 C 0.8652 -0.0918 1.2312 0
M  V30 8 C -0.4916 0.515 -1.1337 0
M  V30 9 C -0.528 0.0231 1.2358 0
M  V30 10 C -1.221 0.3065 0.0458 0
M  V30 11 N -2.6513 0.4553 0.0261 0
M  V30 12 C -3.551 -0.2918 0.8594 0
M  V30 13 O -3.1505 -1.3067 1.4907 0
M  V30 14 C -4.9988 0.0739 0.905 0
M  V30 15 H 5.5046 0.6194 -0.213 0
M  V30 16 H 5.7147 -0.0597 -1.8729 0
M  V30 17 H 5.7376 -1.161 -0.4352 0
M  V30 18 H 1.4362 0.5915 -2.0574 0
M  V30 19 H 1.3858 -0.3108 2.1549 0
M  V30 20 H -1.0054 0.7676 -2.0529 0
M  V30 21 H -1.0563 -0.0827 2.1738 0
M  V30 22 H -3.0702 1.0859 -0.6948 0
M  V30 23 H -5.4694 -0.3251 1.8286 0
M  V30 24 H -5.1104 1.1784 0.8982 0
M  V30 25 H -5.5152 -0.3512 0.0196 0
M  V30 END ATOM
M  V30 BEGIN BOND
M  V30 1 2 1 2
M  V30 2 1 2 3
M  V30 3 1 2 4
M  V30 4 1 3 5
M  V30 5 2 5 6
M  V30 6 1 5 7
M  V30 7 1 6 8
M  V30 8 2 7 9
M  V30 9 2 8 10
M  V30 10 1 10 11
M  V30 11 1 11 12
M  V30 12 2 12 13
M  V30 13 1 12 14
M  V30 14 1 9 10
M  V30 15 1 4 15
M  V30 16 1 4 16
M  V30 17 1 4 17
M  V30 18 1 6 18
M  V30 19 1 7 19
M  V30 20 1 8 20
M  V30 21 1 9 21
M  V30 22 1 11 22
M  V30 23 1 14 23
M  V30 24 1 14 24
M  V30 25 1 14 25
M  V30 END BOND
M  V30 END CTAB
M  END
>  <Structure No>
4424

>  <LogS>
-1.9076

>  <MMFF94 Energy>
7.1789

$$$$
Compound 4425
Actelion Java MolfileCreator 2.0

  0  0  0  0  0  0              0 V3000
M  V30 BEGIN CTAB
M  V30 COUNTS 28 29 0 0 0
M  V30 BEGIN ATOM
M  V30 1 O -3.6667 -1.1148 0.0 0
M  V30 2 C -2.5749 -0.4783 0.0298 0
M  V30 3 N -2.5737 0.852 0.3773 0
M  V30 4 N -1.4018 -1.125 -0.2792 0
M  V30 5 C -1.3891 1.5304 0.494 0
M  V30 6 C -3.8417 1.5262 0.7084 0
M  V30 7 C -0.2097 -0.4606 -0.1682 0
M  V30 8 C -1.4157 -2.5517 -0.648 0
M  V30 9 O -1.3723 2.7397 0.8581 0
M  V30 10 C -0.1867 0.8844 0.2191 0
M  V30 11 N 0.9731 -1.0881 -0.4188 0
M  V30 12 N 1.0033 1.5327 0.3304 0
M  V30 13 C 2.1686 -0.4479 -0.3108 0
M  V30 14 C 2.1841 0.9081 0.0752 0
M  V30 15 C 3.4291 -1.205 -0.6052 0
M  V30 16 C 3.4621 1.6802 0.2162 0
M  V30 17 H -3.7918 2.6144 0.4895 0
M  V30 18 H -4.6805 1.1256 0.1 0
M  V30 19 H -4.0701 1.3816 1.7854 0
M  V30 20 H -0.6229 -2.7797 -1.3921 0
M  V30 21 H -2.3769 -2.8422 -1.1226 0
M  V30 22 H -1.2557 -3.1721 0.2588 0
M  V30 23 H 4.0807 -1.2201 0.2932 0
M  V30 24 H 3.1962 -2.2537 -0.8875 0
M  V30 25 H 3.9699 -0.7267 -1.4484 0
M  V30 26 H 3.2528 2.7269 0.5234 0
M  V30 27 H 4.0014 1.7007 -0.7537 0
M  V30 28 H 4.1053 1.2097 0.9891 0
M  V30 END ATOM
M  V30 BEGIN BOND
M  V30 1 2 1 2
M  V30 2 1 2 3
M  V30 3 1 2 4
M  V30 4 1 3 5
M  V30 5 1 3 6
M  V30 6 1 4 7
M  V30 7 1 4 8
M  V30 8 2 5 9
M  V30 9 1 5 10
M  V30 10 1 7 11
M  V30 11 1 10 12
M  V30 12 2 11 13
M  V30 13 2 12 14
M  V30 14 1 13 15
M  V30 15 1 14 16
M  V30 16 2 7 10
M  V30 17 1 13 14
M  V30 18 1 6 17
M  V30 19 1 6 18
M  V30 20 1 6 19
M  V30 21 1 8 20
M  V30 22 1 8 21
M  V30 23 1 8 22
M  V30 24 1 15 23
M  V30 25 1 15 24
M  V30 26 1 15 25
M  V30 27 1 16 26
M  V30 28 1 16 27
M  V30 29 1 16 28
M  V30 END BOND
M  V30 END CTAB
M  END
>  <Structure No>
4425

>  <LogS>
-1.3429

>  <MMFF94 Energy>
9.3137

$$$$
Compound 4426
Actelion Java MolfileCreator 2.0

  0  0  0  0  0  0              0 V3000
M  V30 BEGIN CTAB
M  V30 COUNTS 26 26 0 0 0
M  V30 BEGIN ATOM
M  V30 1 O -5.1191 -0.6387 -1.6775 0
M  V30 2 N -4.8059 0.1467 -0.7587 0 CHG=1
M  V30 3 O -5.7808 0.9501 -0.2124 0 CHG=-1
M  V30 4 C -3.4511 0.2102 -0.2767 0
M  V30 5 C -2.4507 -0.6058 -0.8353 0
M  V30 6 C -3.1045 1.0973 0.7569 0
M  V30 7 C -1.1362 -0.5414 -0.3637 0
M  V30 8 C -1.7893 1.1608 1.2259 0
M  V30 9 C -0.7999 0.3342 0.6837 0
M  V30 10 O 0.5075 0.4417 1.1798 0
M  V30 11 C 1.4553 -0.5897 1.1874 0
M  V30 12 O 1.1062 -1.7948 1.0591 0
M  V30 13 C 2.9012 -0.2536 1.3842 0
M  V30 14 C 3.4946 0.4257 0.1437 0
M  V30 15 C 3.5735 -0.5202 -1.0543 0
M  V30 16 H -2.6827 -1.288 -1.6432 0
M  V30 17 H -3.8493 1.744 1.2027 0
M  V30 18 H -0.3825 -1.1539 -0.8393 0
M  V30 19 H -1.5388 1.8512 2.0216 0
M  V30 20 H 2.9871 0.4383 2.2491 0
M  V30 21 H 3.4813 -1.1704 1.6292 0
M  V30 22 H 2.8895 1.3186 -0.1275 0
M  V30 23 H 4.5216 0.7743 0.3868 0
M  V30 24 H 2.5565 -0.8353 -1.3702 0
M  V30 25 H 4.1743 -1.4187 -0.7983 0
M  V30 26 H 4.0596 7.0E-4 -1.9059 0
M  V30 END ATOM
M  V30 BEGIN BOND
M  V30 1 2 1 2
M  V30 2 1 2 3
M  V30 3 1 2 4
M  V30 4 2 4 5
M  V30 5 1 4 6
M  V30 6 1 5 7
M  V30 7 2 6 8
M  V30 8 2 7 9
M  V30 9 1 9 10
M  V30 10 1 10 11
M  V30 11 2 11 12
M  V30 12 1 11 13
M  V30 13 1 13 14
M  V30 14 1 14 15
M  V30 15 1 8 9
M  V30 16 1 5 16
M  V30 17 1 6 17
M  V30 18 1 7 18
M  V30 19 1 8 19
M  V30 20 1 13 20
M  V30 21 1 13 21
M  V30 22 1 14 22
M  V30 23 1 14 23
M  V30 24 1 15 24
M  V30 25 1 15 25
M  V30 26 1 15 26
M  V30 END BOND
M  V30 END CTAB
M  END
>  <Structure No>
4426

>  <LogS>
-3.9404

>  <MMFF94 Energy>
56.55

$$$$
Compound 4427
Actelion Java MolfileCreator 2.0

  0  0  0  0  0  0              0 V3000
M  V30 BEGIN CTAB
M  V30 COUNTS 20 21 0 0 0
M  V30 BEGIN ATOM
M  V30 1 O 1.3684 3.0607 -0.1609 0
M  V30 2 N 1.8609 2.0377 0.3567 0
M  V30 3 C 1.3033 0.7285 0.1654 0
M  V30 4 C 2.194 -0.358 0.0444 0
M  V30 5 C -0.0989 0.4957 0.0766 0
M  V30 6 O 3.5733 -0.184 0.171 0
M  V30 7 C 1.711 -1.6391 -0.226 0
M  V30 8 C -0.5656 -0.8146 -0.2201 0
M  V30 9 C -1.0543 1.5076 0.319 0
M  V30 10 C 0.3459 -1.8652 -0.3765 0
M  V30 11 C -1.9424 -1.0643 -0.3359 0
M  V30 12 C -2.4211 1.2402 0.205 0
M  V30 13 C -2.8633 -0.0375 -0.132 0
M  V30 14 H 3.9948 0.7155 0.3676 0
M  V30 15 H 2.4028 -2.4652 -0.331 0
M  V30 16 H -0.7711 2.5003 0.6319 0
M  V30 17 H 7.0E-4 -2.8689 -0.5957 0
M  V30 18 H -2.3065 -2.0572 -0.573 0
M  V30 19 H -3.1417 2.0268 0.3898 0
M  V30 20 H -3.9237 -0.2373 -0.2171 0
M  V30 END ATOM
M  V30 BEGIN BOND
M  V30 1 2 1 2
M  V30 2 1 2 3
M  V30 3 2 3 4
M  V30 4 1 3 5
M  V30 5 1 4 6
M  V30 6 1 4 7
M  V30 7 1 5 8
M  V30 8 2 5 9
M  V30 9 2 7 10
M  V30 10 2 8 11
M  V30 11 1 9 12
M  V30 12 1 11 13
M  V30 13 1 8 10
M  V30 14 2 12 13
M  V30 15 1 6 14
M  V30 16 1 7 15
M  V30 17 1 9 16
M  V30 18 1 10 17
M  V30 19 1 11 18
M  V30 20 1 12 19
M  V30 21 1 13 20
M  V30 END BOND
M  V30 END CTAB
M  END
>  <Structure No>
4427

>  <LogS>
-2.9374

>  <MMFF94 Energy>
60.469

$$$$
Compound 4428
Actelion Java MolfileCreator 2.0

  0  0  0  0  0  0              0 V3000
M  V30 BEGIN CTAB
M  V30 COUNTS 34 33 0 0 0
M  V30 BEGIN ATOM
M  V30 1 O -2.3387 2.0158 1.4511 0
M  V30 2 C -3.0675 1.2089 0.8165 0
M  V30 3 O -3.6787 1.616 -0.3627 0 CHG=-1
M  V30 4 C -3.2772 -0.1827 1.3308 0
M  V30 5 C -2.7072 -1.2551 0.3794 0
M  V30 6 C -1.1594 -1.3569 0.3513 0 CFG=1
M  V30 7 N -0.5993 -0.0947 -0.0881 0
M  V30 8 C -0.648 -1.6862 1.6972 0
M  V30 9 C -0.7462 -2.4745 -0.6237 0
M  V30 10 N 0.6281 0.0533 -0.2654 0
M  V30 11 N -0.2487 -1.9445 2.7523 0
M  V30 12 C 1.1858 1.3179 -0.7015 0 CFG=1
M  V30 13 C 0.9284 2.3527 0.3207 0
M  V30 14 C 2.7121 1.1614 -0.9308 0
M  V30 15 C 0.5208 1.7492 -2.0217 0
M  V30 16 N 0.7272 3.1634 1.1218 0
M  V30 17 C 3.5263 0.7535 0.3148 0
M  V30 18 C 3.3031 -0.6748 0.7073 0
M  V30 19 O 3.6635 -1.6075 -0.058 0
M  V30 20 O 2.7003 -0.9762 1.9216 0 CHG=-1
M  V30 21 H -4.3717 -0.3458 1.4296 0
M  V30 22 H -2.842 -0.2881 2.3476 0
M  V30 23 H -3.0874 -1.0654 -0.6491 0
M  V30 24 H -3.125 -2.2379 0.6935 0
M  V30 25 H 0.3585 -2.5983 -0.6382 0
M  V30 26 H -1.1993 -3.4452 -0.3261 0
M  V30 27 H -1.0814 -2.2299 -1.6548 0
M  V30 28 H 3.1207 2.1308 -1.2946 0
M  V30 29 H 2.8933 0.4196 -1.7405 0
M  V30 30 H 0.6611 0.9663 -2.7978 0
M  V30 31 H 0.9627 2.6991 -2.3941 0
M  V30 32 H -0.5709 1.9074 -1.8817 0
M  V30 33 H 4.6066 0.8821 0.0885 0
M  V30 34 H 3.2942 1.4215 1.1711 0
M  V30 END ATOM
M  V30 BEGIN BOND
M  V30 1 2 1 2
M  V30 2 1 2 3
M  V30 3 1 2 4
M  V30 4 1 4 5
M  V30 5 1 5 6
M  V30 6 1 6 7
M  V30 7 1 6 8
M  V30 8 1 6 9
M  V30 9 2 7 10
M  V30 10 3 8 11
M  V30 11 1 10 12
M  V30 12 1 12 13
M  V30 13 1 12 14
M  V30 14 1 12 15
M  V30 15 3 13 16
M  V30 16 1 14 17
M  V30 17 1 17 18
M  V30 18 2 18 19
M  V30 19 1 18 20
M  V30 20 1 4 21
M  V30 21 1 4 22
M  V30 22 1 5 23
M  V30 23 1 5 24
M  V30 24 1 9 25
M  V30 25 1 9 26
M  V30 26 1 9 27
M  V30 27 1 14 28
M  V30 28 1 14 29
M  V30 29 1 15 30
M  V30 30 1 15 31
M  V30 31 1 15 32
M  V30 32 1 17 33
M  V30 33 1 17 34
M  V30 END BOND
M  V30 BEGIN COLLECTION
M  V30 MDLV30/STEABS ATOMS=(2 6 12)
M  V30 END COLLECTION
M  V30 END CTAB
M  END
>  <Structure No>
4428

>  <LogS>
-2.0083

>  <MMFF94 Energy>
81.088

$$$$
Compound 4429
Actelion Java MolfileCreator 2.0

  0  0  0  0  0  0              0 V3000
M  V30 BEGIN CTAB
M  V30 COUNTS 32 35 0 0 0
M  V30 BEGIN ATOM
M  V30 1 N 2.0893 -2.8937 -0.9638 0
M  V30 2 C 1.5281 -1.646 -0.5219 0
M  V30 3 C 2.3297 -0.5209 -0.2318 0
M  V30 4 C 0.1417 -1.5609 -0.3989 0
M  V30 5 C 1.7112 0.7209 0.1031 0
M  V30 6 C 3.7404 -0.6124 -0.2426 0
M  V30 7 C -0.5104 -0.3632 -0.0441 0
M  V30 8 C 0.2822 0.8081 0.1601 0
M  V30 9 C 2.5541 1.8277 0.3917 0
M  V30 10 C 4.532 0.4963 0.0362 0
M  V30 11 C -1.9374 -0.2922 0.083 0
M  V30 12 C -0.3818 2.032 0.4065 0
M  V30 13 C 3.9415 1.7114 0.3481 0
M  V30 14 C -2.5476 0.9639 0.3401 0
M  V30 15 C -2.7878 -1.4248 -0.0211 0
M  V30 16 C -1.7647 2.1048 0.4863 0
M  V30 17 C -3.9437 1.0728 0.451 0
M  V30 18 C -4.1741 -1.2983 0.0953 0
M  V30 19 C -4.7508 -0.0538 0.3251 0
M  V30 20 H 1.5047 -3.7593 -0.9797 0
M  V30 21 H 3.0191 -2.9587 -1.4295 0
M  V30 22 H -0.408 -2.4539 -0.6389 0
M  V30 23 H 4.2567 -1.5393 -0.4369 0
M  V30 24 H 2.1809 2.7951 0.6781 0
M  V30 25 H 5.6109 0.4087 0.0233 0
M  V30 26 H 0.1346 2.9684 0.5219 0
M  V30 27 H 4.5633 2.5682 0.5749 0
M  V30 28 H -2.42 -2.4252 -0.17 0
M  V30 29 H -2.2264 3.068 0.6733 0
M  V30 30 H -4.4115 2.0321 0.6402 0
M  V30 31 H -4.8047 -2.1743 0.0121 0
M  V30 32 H -5.8256 0.0366 0.4146 0
M  V30 END ATOM
M  V30 BEGIN BOND
M  V30 1 1 1 2
M  V30 2 1 2 3
M  V30 3 2 2 4
M  V30 4 1 3 5
M  V30 5 2 3 6
M  V30 6 1 4 7
M  V30 7 1 5 8
M  V30 8 2 5 9
M  V30 9 1 6 10
M  V30 10 2 7 11
M  V30 11 2 8 12
M  V30 12 1 9 13
M  V30 13 1 11 14
M  V30 14 1 11 15
M  V30 15 1 12 16
M  V30 16 1 14 17
M  V30 17 2 15 18
M  V30 18 2 17 19
M  V30 19 1 7 8
M  V30 20 2 10 13
M  V30 21 2 14 16
M  V30 22 1 18 19
M  V30 23 1 1 20
M  V30 24 1 1 21
M  V30 25 1 4 22
M  V30 26 1 6 23
M  V30 27 1 9 24
M  V30 28 1 10 25
M  V30 29 1 12 26
M  V30 30 1 13 27
M  V30 31 1 15 28
M  V30 32 1 16 29
M  V30 33 1 17 30
M  V30 34 1 18 31
M  V30 35 1 19 32
M  V30 END BOND
M  V30 END CTAB
M  END
>  <Structure No>
4429

>  <LogS>
-6.1958

>  <MMFF94 Energy>
81.385

$$$$
Compound 4430
Actelion Java MolfileCreator 2.0

  0  0  0  0  0  0              0 V3000
M  V30 BEGIN CTAB
M  V30 COUNTS 44 44 0 0 0
M  V30 BEGIN ATOM
M  V30 1 O 3.0715 -1.968 -0.8655 0
M  V30 2 C 3.4976 -1.2395 0.0725 0
M  V30 3 O 2.7405 -0.1581 0.5417 0
M  V30 4 N 4.7922 -1.477 0.6325 0
M  V30 5 C 1.3727 0.0397 0.2987 0
M  V30 6 C 5.6395 -2.5728 0.1795 0
M  V30 7 C 0.4805 -1.0299 0.1496 0
M  V30 8 C 0.8922 1.3468 0.2482 0
M  V30 9 C -0.8905 -0.8116 -0.0929 0
M  V30 10 C -0.4692 1.6232 0.0137 0
M  V30 11 C -1.3471 0.5266 -0.1598 0
M  V30 12 C -1.8314 -2.027 -0.2564 0
M  V30 13 C -0.9422 3.0934 -0.044 0
M  V30 14 C -3.2985 -1.6323 -0.5556 0
M  V30 15 C -1.3402 -2.9066 -1.428 0
M  V30 16 C -1.8277 -2.8581 1.0451 0
M  V30 17 C -2.4609 3.2406 -0.3073 0
M  V30 18 C -0.634 3.7868 1.3015 0
M  V30 19 C -0.1993 3.8287 -1.1813 0
M  V30 20 H 5.1369 -0.8485 1.3926 0
M  V30 21 H 6.5917 -2.5742 0.7508 0
M  V30 22 H 5.1214 -3.5414 0.3423 0
M  V30 23 H 5.8685 -2.4503 -0.9 0
M  V30 24 H 0.8535 -2.0377 0.2535 0
M  V30 25 H 1.6016 2.1515 0.3861 0
M  V30 26 H -2.3883 0.7149 -0.3408 0
M  V30 27 H -3.7299 -1.0408 0.2808 0
M  V30 28 H -3.3668 -1.0456 -1.4974 0
M  V30 29 H -3.9328 -2.537 -0.6804 0
M  V30 30 H -2.0301 -3.7619 -1.596 0
M  V30 31 H -0.3335 -3.3299 -1.2305 0
M  V30 32 H -1.2902 -2.3091 -2.3641 0
M  V30 33 H -2.5307 -3.7159 0.9675 0
M  V30 34 H -0.8215 -3.2729 1.2631 0
M  V30 35 H -2.1391 -2.2279 1.9062 0
M  V30 36 H -2.7395 2.7918 -1.2853 0
M  V30 37 H -3.0525 2.7603 0.5021 0
M  V30 38 H -2.7535 4.3129 -0.3396 0
M  V30 39 H -1.1257 3.2432 2.1372 0
M  V30 40 H 0.4566 3.8234 1.5033 0
M  V30 41 H -1.0056 4.8346 1.2999 0
M  V30 42 H -0.5551 4.8782 -1.2715 0
M  V30 43 H 0.8948 3.8652 -0.9995 0
M  V30 44 H -0.3749 3.3156 -2.1516 0
M  V30 END ATOM
M  V30 BEGIN BOND
M  V30 1 2 1 2
M  V30 2 1 2 3
M  V30 3 1 2 4
M  V30 4 1 3 5
M  V30 5 1 4 6
M  V30 6 2 5 7
M  V30 7 1 5 8
M  V30 8 1 7 9
M  V30 9 2 8 10
M  V30 10 2 9 11
M  V30 11 1 9 12
M  V30 12 1 10 13
M  V30 13 1 12 14
M  V30 14 1 12 15
M  V30 15 1 12 16
M  V30 16 1 13 17
M  V30 17 1 13 18
M  V30 18 1 13 19
M  V30 19 1 10 11
M  V30 20 1 4 20
M  V30 21 1 6 21
M  V30 22 1 6 22
M  V30 23 1 6 23
M  V30 24 1 7 24
M  V30 25 1 8 25
M  V30 26 1 11 26
M  V30 27 1 14 27
M  V30 28 1 14 28
M  V30 29 1 14 29
M  V30 30 1 15 30
M  V30 31 1 15 31
M  V30 32 1 15 32
M  V30 33 1 16 33
M  V30 34 1 16 34
M  V30 35 1 16 35
M  V30 36 1 17 36
M  V30 37 1 17 37
M  V30 38 1 17 38
M  V30 39 1 18 39
M  V30 40 1 18 40
M  V30 41 1 18 41
M  V30 42 1 19 42
M  V30 43 1 19 43
M  V30 44 1 19 44
M  V30 END BOND
M  V30 END CTAB
M  END
>  <Structure No>
4430

>  <LogS>
-4.2445

>  <MMFF94 Energy>
16.371

$$$$
Compound 4431
Actelion Java MolfileCreator 2.0

  0  0  0  0  0  0              0 V3000
M  V30 BEGIN CTAB
M  V30 COUNTS 20 20 0 0 0
M  V30 BEGIN ATOM
M  V30 1 Cl 0.743 -0.165 3.0574 0
M  V30 2 C 0.3417 -0.0769 1.3486 0
M  V30 3 C 1.3556 -0.0919 0.3797 0
M  V30 4 C -1.0015 0.0085 0.9666 0
M  V30 5 O 2.692 -0.1784 0.8015 0
M  V30 6 C 1.0033 -0.0199 -0.981 0
M  V30 7 C -1.3538 0.0804 -0.3942 0
M  V30 8 C 3.8142 -0.2027 -0.0745 0
M  V30 9 C -0.3399 0.0654 -1.363 0
M  V30 10 O -2.6903 0.167 -0.8158 0
M  V30 11 Cl -0.7412 0.1536 -3.0719 0
M  V30 12 C -3.8126 0.1915 0.0603 0
M  V30 13 H -1.7616 0.0181 1.736 0
M  V30 14 H 1.7633 -0.0294 -1.7503 0
M  V30 15 H 3.756 -1.086 -0.7451 0
M  V30 16 H 4.7426 -0.2749 0.5281 0
M  V30 17 H 3.8512 0.7315 -0.6737 0
M  V30 18 H -4.7412 0.2638 -0.5422 0
M  V30 19 H -3.8497 -0.7426 0.6596 0
M  V30 20 H -3.7545 1.0748 0.731 0
M  V30 END ATOM
M  V30 BEGIN BOND
M  V30 1 1 1 2
M  V30 2 2 2 3
M  V30 3 1 2 4
M  V30 4 1 3 5
M  V30 5 1 3 6
M  V30 6 2 4 7
M  V30 7 1 5 8
M  V30 8 2 6 9
M  V30 9 1 7 10
M  V30 10 1 9 11
M  V30 11 1 10 12
M  V30 12 1 7 9
M  V30 13 1 4 13
M  V30 14 1 6 14
M  V30 15 1 8 15
M  V30 16 1 8 16
M  V30 17 1 8 17
M  V30 18 1 12 18
M  V30 19 1 12 19
M  V30 20 1 12 20
M  V30 END BOND
M  V30 END CTAB
M  END
>  <Structure No>
4431

>  <LogS>
-4.413

>  <MMFF94 Energy>
43.225

$$$$
Compound 4432
Actelion Java MolfileCreator 2.0

  0  0  0  0  0  0              0 V3000
M  V30 BEGIN CTAB
M  V30 COUNTS 16 15 0 0 0
M  V30 BEGIN ATOM
M  V30 1 O 2.9328 -0.3084 0.7711 0
M  V30 2 C 2.122 0.2465 -0.0162 0
M  V30 3 O 2.1718 1.6227 -0.1983 0 CHG=-1
M  V30 4 C 1.086 -0.5676 -0.7279 0
M  V30 5 C -0.0774 -0.9627 0.2002 0
M  V30 6 N -0.8258 0.1919 0.7323 0 CHG=1
M  V30 7 C -1.6218 0.871 -0.2962 0
M  V30 8 H 1.5658 -1.495 -1.1084 0
M  V30 9 H 0.7124 -0.0145 -1.6142 0
M  V30 10 H 0.3337 -1.5511 1.0509 0
M  V30 11 H -0.7649 -1.6436 -0.35 0
M  V30 12 H -1.4823 -0.1592 1.4683 0
M  V30 13 H -0.1787 0.878 1.1844 0
M  V30 14 H -2.2514 0.146 -0.8567 0
M  V30 15 H -2.296 1.6126 0.1842 0
M  V30 16 H -0.9667 1.4235 -1.0021 0
M  V30 END ATOM
M  V30 BEGIN BOND
M  V30 1 2 1 2
M  V30 2 1 2 3
M  V30 3 1 2 4
M  V30 4 1 4 5
M  V30 5 1 5 6
M  V30 6 1 6 7
M  V30 7 1 4 8
M  V30 8 1 4 9
M  V30 9 1 5 10
M  V30 10 1 5 11
M  V30 11 1 6 12
M  V30 12 1 6 13
M  V30 13 1 7 14
M  V30 14 1 7 15
M  V30 15 1 7 16
M  V30 END BOND
M  V30 END CTAB
M  END
>  <Structure No>
4432

>  <LogS>
-0.0543

>  <MMFF94 Energy>
-81.446

$$$$
Compound 4433
Actelion Java MolfileCreator 2.0

  0  0  0  0  0  0              0 V3000
M  V30 BEGIN CTAB
M  V30 COUNTS 23 24 0 0 0
M  V30 BEGIN ATOM
M  V30 1 Cl -0.6482 -1.9457 -1.459 0
M  V30 2 C -1.6287 -0.8467 -0.4977 0
M  V30 3 C -1.2667 0.5063 -0.329 0
M  V30 4 C -2.8216 -1.322 0.0611 0
M  V30 5 O -0.0819 1.0246 -0.8661 0
M  V30 6 C -2.1248 1.3688 0.3646 0
M  V30 7 C -3.6589 -0.4585 0.773 0
M  V30 8 C 1.2036 0.5514 -0.5628 0
M  V30 9 C -3.3135 0.8869 0.92 0
M  V30 10 C 1.4599 -0.2496 0.5674 0
M  V30 11 C 2.2663 0.9137 -1.4003 0
M  V30 12 C 2.7588 -0.693 0.8349 0
M  V30 13 C 3.5641 0.4686 -1.1298 0
M  V30 14 C 3.8098 -0.3361 -0.014 0
M  V30 15 H -3.107 -2.3586 -0.0656 0
M  V30 16 H -1.862 2.4122 0.4844 0
M  V30 17 H -4.5807 -0.83 1.2016 0
M  V30 18 H -3.9671 1.5568 1.4639 0
M  V30 19 H 0.6619 -0.5244 1.2445 0
M  V30 20 H 2.0839 1.5375 -2.2662 0
M  V30 21 H 2.9512 -1.3104 1.7029 0
M  V30 22 H 4.3792 0.7485 -1.7846 0
M  V30 23 H 4.8148 -0.6796 0.1948 0
M  V30 END ATOM
M  V30 BEGIN BOND
M  V30 1 1 1 2
M  V30 2 2 2 3
M  V30 3 1 2 4
M  V30 4 1 3 5
M  V30 5 1 3 6
M  V30 6 2 4 7
M  V30 7 1 5 8
M  V30 8 2 6 9
M  V30 9 2 8 10
M  V30 10 1 8 11
M  V30 11 1 10 12
M  V30 12 2 11 13
M  V30 13 2 12 14
M  V30 14 1 7 9
M  V30 15 1 13 14
M  V30 16 1 4 15
M  V30 17 1 6 16
M  V30 18 1 7 17
M  V30 19 1 9 18
M  V30 20 1 10 19
M  V30 21 1 11 20
M  V30 22 1 12 21
M  V30 23 1 13 22
M  V30 24 1 14 23
M  V30 END BOND
M  V30 END CTAB
M  END
>  <Structure No>
4433

>  <LogS>
-4.7796

>  <MMFF94 Energy>
50.659

$$$$
Compound 4434
Actelion Java MolfileCreator 2.0

  0  0  0  0  0  0              0 V3000
M  V30 BEGIN CTAB
M  V30 COUNTS 29 28 0 0 0
M  V30 BEGIN ATOM
M  V30 1 O 0.3857 -1.6981 1.3892 0
M  V30 2 C 0.617 -0.9807 0.3767 0
M  V30 3 O 1.6532 -0.0427 0.3926 0
M  V30 4 C -0.2136 -1.1408 -0.8682 0 CFG=1
M  V30 5 C 2.4638 0.185 1.5403 0
M  V30 6 N -0.0044 -2.4816 -1.429 0 CHG=1
M  V30 7 C -1.7226 -0.9054 -0.5912 0
M  V30 8 C 3.4744 1.28 1.24 0
M  V30 9 C -2.1556 0.5563 -0.3003 0
M  V30 10 C -1.6601 1.0804 1.0541 0
M  V30 11 C -1.7877 1.5255 -1.4321 0
M  V30 12 H 0.1377 -0.4041 -1.6219 0
M  V30 13 H 3.0021 -0.749 1.8113 0
M  V30 14 H 1.8251 0.5 2.3942 0
M  V30 15 H 1.0153 -2.6412 -1.6016 0
M  V30 16 H -0.3614 -3.2159 -0.7744 0
M  V30 17 H -0.5046 -2.5664 -2.3438 0
M  V30 18 H -2.0548 -1.5584 0.2459 0
M  V30 19 H -2.2951 -1.2428 -1.4834 0
M  V30 20 H 4.1241 0.9745 0.3926 0
M  V30 21 H 2.9465 2.2206 0.9747 0
M  V30 22 H 4.108 1.4612 2.1337 0
M  V30 23 H -3.2672 0.5405 -0.2425 0
M  V30 24 H -2.2111 2.0078 1.3204 0
M  V30 25 H -1.8425 0.3305 1.8528 0
M  V30 26 H -0.5797 1.3278 1.0214 0
M  V30 27 H -2.1013 1.1107 -2.4137 0
M  V30 28 H -0.6958 1.725 -1.4518 0
M  V30 29 H -2.3113 2.4941 -1.2824 0
M  V30 END ATOM
M  V30 BEGIN BOND
M  V30 1 2 1 2
M  V30 2 1 2 3
M  V30 3 1 2 4
M  V30 4 1 3 5
M  V30 5 1 4 6
M  V30 6 1 4 7
M  V30 7 1 5 8
M  V30 8 1 7 9
M  V30 9 1 9 10
M  V30 10 1 9 11
M  V30 11 1 4 12
M  V30 12 1 5 13
M  V30 13 1 5 14
M  V30 14 1 6 15
M  V30 15 1 6 16
M  V30 16 1 6 17
M  V30 17 1 7 18
M  V30 18 1 7 19
M  V30 19 1 8 20
M  V30 20 1 8 21
M  V30 21 1 8 22
M  V30 22 1 9 23
M  V30 23 1 10 24
M  V30 24 1 10 25
M  V30 25 1 10 26
M  V30 26 1 11 27
M  V30 27 1 11 28
M  V30 28 1 11 29
M  V30 END BOND
M  V30 BEGIN COLLECTION
M  V30 MDLV30/STEABS ATOMS=(1 4)
M  V30 END COLLECTION
M  V30 END CTAB
M  END
>  <Structure No>
4434

>  <LogS>
-0.5606

>  <MMFF94 Energy>
25.558

$$$$
Compound 4435
Actelion Java MolfileCreator 2.0

  0  0  0  0  0  0              0 V3000
M  V30 BEGIN CTAB
M  V30 COUNTS 54 55 0 0 0
M  V30 BEGIN ATOM
M  V30 1 S -1.0698 -2.1405 1.1521 0
M  V30 2 S 0.7964 -2.7733 0.3236 0
M  V30 3 C -0.9652 -0.4291 0.4987 0
M  V30 4 C 1.7462 -2.2871 1.8068 0
M  V30 5 C -1.8293 -0.226 -0.7586 0 CFG=2
M  V30 6 C 3.2565 -2.3514 1.5259 0 CFG=1
M  V30 7 N -3.2225 -0.6089 -0.5026 0
M  V30 8 C -1.2642 -0.9804 -1.9351 0
M  V30 9 N 3.6311 -1.5003 0.3889 0
M  V30 10 C 4.0833 -2.0084 2.7373 0
M  V30 11 C -4.0886 0.1785 0.3324 0
M  V30 12 O -0.4842 -0.3999 -2.7368 0
M  V30 13 O -1.5459 -2.3315 -2.1153 0 CHG=-1
M  V30 14 C 3.4509 -0.0744 0.3425 0
M  V30 15 O 3.6889 -1.1472 3.5696 0
M  V30 16 O 5.3259 -2.6081 2.9127 0 CHG=-1
M  V30 17 O -3.7176 1.3105 0.7481 0
M  V30 18 C -5.4434 -0.3357 0.7144 0
M  V30 19 O 3.0349 0.5561 1.3521 0
M  V30 20 C 3.807 0.6848 -0.8986 0
M  V30 21 C -6.5201 0.4206 -0.0171 0
M  V30 22 C 5.2557 1.085 -0.8592 0
M  V30 23 C -7.1466 1.524 0.5881 0
M  V30 24 C -6.8845 0.0539 -1.3249 0
M  V30 25 C 5.6375 2.3092 -0.2807 0
M  V30 26 C 6.2445 0.2178 -1.3528 0
M  V30 27 C -8.1405 2.235 -0.0949 0
M  V30 28 C -7.8812 0.7644 -2.0061 0
M  V30 29 C 6.9875 2.667 -0.217 0
M  V30 30 C 7.5932 0.5793 -1.286 0
M  V30 31 C -8.5111 1.8518 -1.3897 0
M  V30 32 C 7.9648 1.8013 -0.7164 0
M  V30 33 H -1.3258 0.2514 1.2967 0
M  V30 34 H 0.0844 -0.1344 0.29 0
M  V30 35 H 1.4931 -2.9869 2.6312 0
M  V30 36 H 1.4518 -1.2643 2.1205 0
M  V30 37 H -1.806 0.8565 -1.02 0
M  V30 38 H 3.4931 -3.4063 1.2599 0
M  V30 39 H -3.5841 -1.5201 -0.8716 0
M  V30 40 H 4.0381 -1.9722 -0.4518 0
M  V30 41 H -5.5255 -1.4219 0.4916 0
M  V30 42 H -5.5741 -0.2245 1.8138 0
M  V30 43 H 3.6048 0.058 -1.7935 0
M  V30 44 H 3.1597 1.5868 -0.9859 0
M  V30 45 H -6.8666 1.8361 1.59 0
M  V30 46 H -6.4004 -0.7828 -1.8135 0
M  V30 47 H 4.8916 2.9833 0.1198 0
M  V30 48 H 5.9703 -0.7356 -1.7875 0
M  V30 49 H -8.6245 3.0816 0.3801 0
M  V30 50 H -8.1638 0.4755 -3.0106 0
M  V30 51 H 7.2765 3.6113 0.2255 0
M  V30 52 H 8.3504 -0.0878 -1.6753 0
M  V30 53 H -9.285 2.4004 -1.9139 0
M  V30 54 H 9.0088 2.0796 -0.6656 0
M  V30 END ATOM
M  V30 BEGIN BOND
M  V30 1 1 1 2
M  V30 2 1 1 3
M  V30 3 1 2 4
M  V30 4 1 3 5
M  V30 5 1 4 6
M  V30 6 1 5 7
M  V30 7 1 5 8
M  V30 8 1 6 9
M  V30 9 1 6 10
M  V30 10 1 7 11
M  V30 11 2 8 12
M  V30 12 1 8 13
M  V30 13 1 9 14
M  V30 14 2 10 15
M  V30 15 1 10 16
M  V30 16 2 11 17
M  V30 17 1 11 18
M  V30 18 2 14 19
M  V30 19 1 14 20
M  V30 20 1 18 21
M  V30 21 1 20 22
M  V30 22 2 21 23
M  V30 23 1 21 24
M  V30 24 2 22 25
M  V30 25 1 22 26
M  V30 26 1 23 27
M  V30 27 2 24 28
M  V30 28 1 25 29
M  V30 29 2 26 30
M  V30 30 2 27 31
M  V30 31 2 29 32
M  V30 32 1 28 31
M  V30 33 1 30 32
M  V30 34 1 3 33
M  V30 35 1 3 34
M  V30 36 1 4 35
M  V30 37 1 4 36
M  V30 38 1 5 37
M  V30 39 1 6 38
M  V30 40 1 7 39
M  V30 41 1 9 40
M  V30 42 1 18 41
M  V30 43 1 18 42
M  V30 44 1 20 43
M  V30 45 1 20 44
M  V30 46 1 23 45
M  V30 47 1 24 46
M  V30 48 1 25 47
M  V30 49 1 26 48
M  V30 50 1 27 49
M  V30 51 1 28 50
M  V30 52 1 29 51
M  V30 53 1 30 52
M  V30 54 1 31 53
M  V30 55 1 32 54
M  V30 END BOND
M  V30 BEGIN COLLECTION
M  V30 MDLV30/STEABS ATOMS=(2 5 6)
M  V30 END COLLECTION
M  V30 END CTAB
M  END
>  <Structure No>
4435

>  <LogS>
-1.833

>  <MMFF94 Energy>
174.73

$$$$
Compound 4436
Actelion Java MolfileCreator 2.0

  0  0  0  0  0  0              0 V3000
M  V30 BEGIN CTAB
M  V30 COUNTS 26 28 0 0 0
M  V30 BEGIN ATOM
M  V30 1 N -1.5162 -0.4786 -0.0797 0 CHG=1
M  V30 2 C -0.6631 0.5959 0.0077 0
M  V30 3 C -2.8717 -0.307 -0.0123 0
M  V30 4 C -0.9785 -1.8233 -0.3313 0
M  V30 5 C 0.8073 0.3567 -0.0927 0
M  V30 6 C -1.1928 1.8803 0.2432 0
M  V30 7 C -3.4184 0.958 0.198 0
M  V30 8 C 0.3536 -2.0141 0.3978 0
M  V30 9 N 1.2823 -0.9231 0.0693 0 CHG=1
M  V30 10 C 1.7097 1.3939 -0.4018 0
M  V30 11 C -2.5722 2.0533 0.3343 0
M  V30 12 C 2.6227 -1.1886 0.0049 0
M  V30 13 C 3.073 1.1207 -0.4894 0
M  V30 14 C 3.5355 -0.1734 -0.2774 0
M  V30 15 H -3.5412 -1.1526 -0.1176 0
M  V30 16 H -0.8254 -1.9556 -1.4243 0
M  V30 17 H -1.6859 -2.6075 0.0194 0
M  V30 18 H -0.5588 2.744 0.3821 0
M  V30 19 H -4.4915 1.0861 0.2601 0
M  V30 20 H 0.1775 -2.0243 1.4956 0
M  V30 21 H 0.7766 -3.0004 0.1032 0
M  V30 22 H 1.3762 2.4022 -0.5997 0
M  V30 23 H -2.9853 3.0377 0.5135 0
M  V30 24 H 2.9951 -2.193 0.1691 0
M  V30 25 H 3.7713 1.9136 -0.7249 0
M  V30 26 H 4.5939 -0.3914 -0.3366 0
M  V30 END ATOM
M  V30 BEGIN BOND
M  V30 1 2 1 2
M  V30 2 1 1 3
M  V30 3 1 1 4
M  V30 4 1 2 5
M  V30 5 1 2 6
M  V30 6 2 3 7
M  V30 7 1 4 8
M  V30 8 2 5 9
M  V30 9 1 5 10
M  V30 10 2 6 11
M  V30 11 1 9 12
M  V30 12 2 10 13
M  V30 13 2 12 14
M  V30 14 1 7 11
M  V30 15 1 8 9
M  V30 16 1 13 14
M  V30 17 1 3 15
M  V30 18 1 4 16
M  V30 19 1 4 17
M  V30 20 1 6 18
M  V30 21 1 7 19
M  V30 22 1 8 20
M  V30 23 1 8 21
M  V30 24 1 10 22
M  V30 25 1 11 23
M  V30 26 1 12 24
M  V30 27 1 13 25
M  V30 28 1 14 26
M  V30 END BOND
M  V30 END CTAB
M  END
>  <Structure No>
4436

>  <LogS>
-3.425

>  <MMFF94 Energy>
156.01

$$$$
Compound 4437
Actelion Java MolfileCreator 2.0

  0  0  0  0  0  0              0 V3000
M  V30 BEGIN CTAB
M  V30 COUNTS 20 20 0 0 0
M  V30 BEGIN ATOM
M  V30 1 Cl 4.051 -0.4953 -0.2476 0
M  V30 2 C 2.2928 -0.507 -0.2001 0
M  V30 3 C 1.5662 -1.6732 -0.4813 0
M  V30 4 C 1.6165 0.6728 0.1251 0
M  V30 5 Cl 2.3803 -3.1765 -0.8942 0
M  V30 6 C 0.1689 -1.6507 -0.4352 0
M  V30 7 C 0.2094 0.7016 0.1732 0
M  V30 8 C -0.5176 -0.4654 -0.1083 0
M  V30 9 O -0.5016 1.8685 0.496 0
M  V30 10 O -1.9194 -0.4071 -0.0527 0
M  V30 11 C 0.1008 3.1216 0.8035 0
M  V30 12 C -2.7839 -1.5082 -0.3132 0
M  V30 13 H 2.1949 1.5615 0.3387 0
M  V30 14 H -0.3731 -2.5602 -0.6553 0
M  V30 15 H 0.7477 3.0245 1.7008 0
M  V30 16 H -0.6953 3.8634 1.0186 0
M  V30 17 H 0.6969 3.4812 -0.0615 0
M  V30 18 H -2.5869 -2.3277 0.4098 0
M  V30 19 H -2.6377 -1.871 -1.3525 0
M  V30 20 H -3.8364 -1.178 -0.1973 0
M  V30 END ATOM
M  V30 BEGIN BOND
M  V30 1 1 1 2
M  V30 2 2 2 3
M  V30 3 1 2 4
M  V30 4 1 3 5
M  V30 5 1 3 6
M  V30 6 2 4 7
M  V30 7 2 6 8
M  V30 8 1 7 9
M  V30 9 1 8 10
M  V30 10 1 9 11
M  V30 11 1 10 12
M  V30 12 1 7 8
M  V30 13 1 4 13
M  V30 14 1 6 14
M  V30 15 1 11 15
M  V30 16 1 11 16
M  V30 17 1 11 17
M  V30 18 1 12 18
M  V30 19 1 12 19
M  V30 20 1 12 20
M  V30 END BOND
M  V30 END CTAB
M  END
>  <Structure No>
4437

>  <LogS>
-3.4588

>  <MMFF94 Energy>
39.205

$$$$
Compound 4438
Actelion Java MolfileCreator 2.0

  0  0  0  0  0  0              0 V3000
M  V30 BEGIN CTAB
M  V30 COUNTS 23 23 0 0 0
M  V30 BEGIN ATOM
M  V30 1 N 0.6209 -0.9314 -0.6985 0 CHG=1
M  V30 2 C 1.335 0.1955 -0.051 0 CFG=1
M  V30 3 C -0.8272 -0.9727 -0.4017 0
M  V30 4 C 0.6732 0.5812 1.2871 0
M  V30 5 C 2.8186 -0.1404 0.1534 0
M  V30 6 C -1.3902 0.4258 -0.0749 0 CFG=2
M  V30 7 N -0.7261 1.0125 1.1071 0
M  V30 8 C -2.8962 0.3527 0.18 0
M  V30 9 H 0.7513 -0.8537 -1.7349 0
M  V30 10 H 1.0347 -1.8464 -0.4001 0
M  V30 11 H 1.2907 1.087 -0.7189 0
M  V30 12 H -1.012 -1.6474 0.4656 0
M  V30 13 H -1.3724 -1.4019 -1.2725 0
M  V30 14 H 1.253 1.3966 1.7752 0
M  V30 15 H 0.6912 -0.2923 1.9746 0
M  V30 16 H 2.9343 -0.9895 0.8607 0
M  V30 17 H 3.2806 -0.4162 -0.8182 0
M  V30 18 H 3.3592 0.741 0.5598 0
M  V30 19 H -1.2255 1.0816 -0.9612 0
M  V30 20 H -0.7414 2.0549 1.0032 0
M  V30 21 H -3.4192 -0.0548 -0.7114 0
M  V30 22 H -3.1109 -0.2969 1.0556 0
M  V30 23 H -3.2946 1.3694 0.3839 0
M  V30 END ATOM
M  V30 BEGIN BOND
M  V30 1 1 1 2
M  V30 2 1 1 3
M  V30 3 1 2 4
M  V30 4 1 2 5
M  V30 5 1 3 6
M  V30 6 1 4 7
M  V30 7 1 6 8
M  V30 8 1 6 7
M  V30 9 1 1 9
M  V30 10 1 1 10
M  V30 11 1 2 11
M  V30 12 1 3 12
M  V30 13 1 3 13
M  V30 14 1 4 14
M  V30 15 1 4 15
M  V30 16 1 5 16
M  V30 17 1 5 17
M  V30 18 1 5 18
M  V30 19 1 6 19
M  V30 20 1 7 20
M  V30 21 1 8 21
M  V30 22 1 8 22
M  V30 23 1 8 23
M  V30 END BOND
M  V30 BEGIN COLLECTION
M  V30 MDLV30/STEABS ATOMS=(2 2 6)
M  V30 END COLLECTION
M  V30 END CTAB
M  END
>  <Structure No>
4438

>  <LogS>
0.4864

>  <MMFF94 Energy>
87.639

$$$$
Compound 4439
Actelion Java MolfileCreator 2.0

  0  0  0  0  0  0              0 V3000
M  V30 BEGIN CTAB
M  V30 COUNTS 13 12 0 0 0
M  V30 BEGIN ATOM
M  V30 1 O 2.534 -1.108 -1.5039 0
M  V30 2 C 2.4945 0.0663 -1.0485 0
M  V30 3 O 3.5948 0.8977 -1.2104 0 CHG=-1
M  V30 4 C 1.3026 0.5717 -0.348 0
M  V30 5 C 0.2103 -0.1792 -0.1595 0
M  V30 6 C -0.9832 0.3291 0.5427 0
M  V30 7 O -1.014 1.5059 0.9954 0
M  V30 8 C -2.1716 -0.5597 0.7209 0
M  V30 9 H 1.331 1.5902 0.0199 0
M  V30 10 H 0.1855 -1.1977 -0.5291 0
M  V30 11 H -2.5564 -0.8728 -0.2722 0
M  V30 12 H -2.9799 -0.0276 1.2666 0
M  V30 13 H -1.8809 -1.4604 1.3013 0
M  V30 END ATOM
M  V30 BEGIN BOND
M  V30 1 2 1 2
M  V30 2 1 2 3
M  V30 3 1 2 4
M  V30 4 2 4 5
M  V30 5 1 5 6
M  V30 6 2 6 7
M  V30 7 1 6 8
M  V30 8 1 4 9
M  V30 9 1 5 10
M  V30 10 1 8 11
M  V30 11 1 8 12
M  V30 12 1 8 13
M  V30 END BOND
M  V30 END CTAB
M  END
>  <Structure No>
4439

>  <LogS>
-0.2332

>  <MMFF94 Energy>
-9.2171

$$$$
Compound 4440
Actelion Java MolfileCreator 2.0

  0  0  0  0  0  0              0 V3000
M  V30 BEGIN CTAB
M  V30 COUNTS 16 15 0 0 0
M  V30 BEGIN ATOM
M  V30 1 O -1.0027 1.0027 1.8517 0
M  V30 2 C -0.9271 1.1263 0.6004 0
M  V30 3 O -1.1881 2.3598 0.0171 0 CHG=-1
M  V30 4 C -0.5464 -0.0487 -0.2628 0 CFG=2
M  V30 5 N -1.4926 -1.1524 -0.0601 0 CHG=1
M  V30 6 C 0.8959 -0.5132 0.0315 0
M  V30 7 C 1.936 0.5393 -0.3536 0
M  V30 8 H -0.6031 0.2657 -1.3298 0
M  V30 9 H -1.4394 -1.5098 0.9219 0
M  V30 10 H -2.4672 -0.8255 -0.2554 0
M  V30 11 H -1.2723 -1.9334 -0.7202 0
M  V30 12 H 1.1083 -1.4359 -0.5507 0
M  V30 13 H 1.0068 -0.7617 1.1098 0
M  V30 14 H 2.9547 0.1372 -0.1712 0
M  V30 15 H 1.8076 1.458 0.2566 0
M  V30 16 H 1.8444 0.7972 -1.43 0
M  V30 END ATOM
M  V30 BEGIN BOND
M  V30 1 2 1 2
M  V30 2 1 2 3
M  V30 3 1 2 4
M  V30 4 1 4 5
M  V30 5 1 4 6
M  V30 6 1 6 7
M  V30 7 1 4 8
M  V30 8 1 5 9
M  V30 9 1 5 10
M  V30 10 1 5 11
M  V30 11 1 6 12
M  V30 12 1 6 13
M  V30 13 1 7 14
M  V30 14 1 7 15
M  V30 15 1 7 16
M  V30 END BOND
M  V30 BEGIN COLLECTION
M  V30 MDLV30/STEABS ATOMS=(1 4)
M  V30 END COLLECTION
M  V30 END CTAB
M  END
>  <Structure No>
4440

>  <LogS>
0.2868

>  <MMFF94 Energy>
-9.5559

$$$$
Compound 4441
Actelion Java MolfileCreator 2.0

  0  0  0  0  0  0              0 V3000
M  V30 BEGIN CTAB
M  V30 COUNTS 8 7 0 0 0
M  V30 BEGIN ATOM
M  V30 1 Cl 1.6005 -0.0888 1.3336 0
M  V30 2 C 0.6888 -0.0323 -0.1982 0 CFG=2
M  V30 3 F 1.0526 1.1036 -0.8987 0
M  V30 4 C -0.8138 -0.0183 0.0667 0
M  V30 5 F -1.4958 0.0196 -1.1358 0
M  V30 6 F -1.155 1.0951 0.8138 0
M  V30 7 F -1.1827 -1.1601 0.7553 0
M  V30 8 H 0.9519 -0.9264 -0.8022 0
M  V30 END ATOM
M  V30 BEGIN BOND
M  V30 1 1 1 2
M  V30 2 1 2 3
M  V30 3 1 2 4
M  V30 4 1 4 5
M  V30 5 1 4 6
M  V30 6 1 4 7
M  V30 7 1 2 8
M  V30 END BOND
M  V30 BEGIN COLLECTION
M  V30 MDLV30/STEABS ATOMS=(1 2)
M  V30 END COLLECTION
M  V30 END CTAB
M  END
>  <Structure No>
4441

>  <LogS>
-1.959

>  <MMFF94 Energy>
51.096

$$$$
Compound 4442
Actelion Java MolfileCreator 2.0

  0  0  0  0  0  0              0 V3000
M  V30 BEGIN CTAB
M  V30 COUNTS 16 16 0 0 0
M  V30 BEGIN ATOM
M  V30 1 Cl -3.2295 2.2598 0.0 0
M  V30 2 C -1.9869 1.0218 0.0187 0
M  V30 3 C -0.6357 1.3851 -0.0162 0
M  V30 4 C -2.3458 -0.3286 0.0686 0
M  V30 5 C 0.3647 0.4046 -0.0017 0
M  V30 6 C -1.3561 -1.3143 0.0836 0
M  V30 7 O 1.7044 0.8187 -0.0383 0
M  V30 8 C -0.0053 -0.9542 0.0486 0
M  V30 9 C 2.8196 -0.0665 -0.0287 0
M  V30 10 H -0.3605 2.4318 -0.0549 0
M  V30 11 H -3.3896 -0.6147 0.096 0
M  V30 12 H -1.6357 -2.3592 0.1223 0
M  V30 13 H 0.7408 -1.7368 0.0612 0
M  V30 14 H 2.8184 -0.6721 0.902 0
M  V30 15 H 3.755 0.5285 -0.0642 0
M  V30 16 H 2.7869 -0.7311 -0.9177 0
M  V30 END ATOM
M  V30 BEGIN BOND
M  V30 1 1 1 2
M  V30 2 2 2 3
M  V30 3 1 2 4
M  V30 4 1 3 5
M  V30 5 2 4 6
M  V30 6 1 5 7
M  V30 7 2 5 8
M  V30 8 1 7 9
M  V30 9 1 6 8
M  V30 10 1 3 10
M  V30 11 1 4 11
M  V30 12 1 6 12
M  V30 13 1 8 13
M  V30 14 1 9 14
M  V30 15 1 9 15
M  V30 16 1 9 16
M  V30 END BOND
M  V30 END CTAB
M  END
>  <Structure No>
4442

>  <LogS>
-2.783

>  <MMFF94 Energy>
15.884

$$$$
Compound 4443
Actelion Java MolfileCreator 2.0

  0  0  0  0  0  0              0 V3000
M  V30 BEGIN CTAB
M  V30 COUNTS 15 15 0 0 0
M  V30 BEGIN ATOM
M  V30 1 O 0.3199 -2.1609 -1.12 0
M  V30 2 C 0.0536 -1.0956 -0.5847 0
M  V30 3 C 0.9189 0.1061 -0.6923 0 CFG=2
M  V30 4 C -1.1793 -0.8803 0.2105 0
M  V30 5 C 2.1668 -0.1021 0.0581 0
M  V30 6 C 0.0672 1.2165 -0.07 0
M  V30 7 C -1.0081 0.5259 0.7774 0
M  V30 8 N 3.1487 -0.2658 0.6485 0
M  V30 9 H 1.1497 0.3329 -1.7555 0
M  V30 10 H -1.2606 -1.6313 1.0257 0
M  V30 11 H -2.0682 -0.9337 -0.4541 0
M  V30 12 H -0.4304 1.7897 -0.8835 0
M  V30 13 H 0.6633 1.9309 0.5406 0
M  V30 14 H -0.6577 0.4607 1.8312 0
M  V30 15 H -1.9655 1.0904 0.7503 0
M  V30 END ATOM
M  V30 BEGIN BOND
M  V30 1 2 1 2
M  V30 2 1 2 3
M  V30 3 1 2 4
M  V30 4 1 3 5
M  V30 5 1 3 6
M  V30 6 1 4 7
M  V30 7 3 5 8
M  V30 8 1 6 7
M  V30 9 1 3 9
M  V30 10 1 4 10
M  V30 11 1 4 11
M  V30 12 1 6 12
M  V30 13 1 6 13
M  V30 14 1 7 14
M  V30 15 1 7 15
M  V30 END BOND
M  V30 BEGIN COLLECTION
M  V30 MDLV30/STEABS ATOMS=(1 3)
M  V30 END COLLECTION
M  V30 END CTAB
M  END
>  <Structure No>
4443

>  <LogS>
-0.3567

>  <MMFF94 Energy>
-2.238

$$$$
Compound 4444
Actelion Java MolfileCreator 2.0

  0  0  0  0  0  0              0 V3000
M  V30 BEGIN CTAB
M  V30 COUNTS 25 24 0 0 0
M  V30 BEGIN ATOM
M  V30 1 S 1.1126 -0.7946 -1.6693 0
M  V30 2 C 0.2927 0.4807 -0.6986 0
M  V30 3 C 2.5305 -0.9721 -0.5312 0
M  V30 4 O 0.5497 1.6855 -0.9646 0
M  V30 5 N -0.6303 0.1527 0.3648 0
M  V30 6 C 3.5767 0.103 -0.7936 0
M  V30 7 C -1.0867 1.2112 1.2793 0
M  V30 8 C -1.0729 -1.2339 0.5826 0
M  V30 9 C -2.2223 2.0139 0.6524 0
M  V30 10 C -2.1094 -1.6417 -0.4603 0
M  V30 11 H 2.9894 -1.9682 -0.7035 0
M  V30 12 H 2.1958 -0.9279 0.5273 0
M  V30 13 H 3.1631 1.1091 -0.5747 0
M  V30 14 H 4.4563 -0.0669 -0.1379 0
M  V30 15 H 3.908 0.0644 -1.8528 0
M  V30 16 H -0.2412 1.8879 1.5306 0
M  V30 17 H -1.4457 0.7814 2.2391 0
M  V30 18 H -1.5315 -1.3516 1.5879 0
M  V30 19 H -0.2055 -1.9261 0.5501 0
M  V30 20 H -3.0892 1.3522 0.4465 0
M  V30 21 H -2.5442 2.8126 1.3534 0
M  V30 22 H -1.8918 2.4865 -0.2955 0
M  V30 23 H -1.6901 -1.5673 -1.4843 0
M  V30 24 H -2.4233 -2.6915 -0.2816 0
M  V30 25 H -3.0026 -0.9868 -0.387 0
M  V30 END ATOM
M  V30 BEGIN BOND
M  V30 1 1 1 2
M  V30 2 1 1 3
M  V30 3 2 2 4
M  V30 4 1 2 5
M  V30 5 1 3 6
M  V30 6 1 5 7
M  V30 7 1 5 8
M  V30 8 1 7 9
M  V30 9 1 8 10
M  V30 10 1 3 11
M  V30 11 1 3 12
M  V30 12 1 6 13
M  V30 13 1 6 14
M  V30 14 1 6 15
M  V30 15 1 7 16
M  V30 16 1 7 17
M  V30 17 1 8 18
M  V30 18 1 8 19
M  V30 19 1 9 20
M  V30 20 1 9 21
M  V30 21 1 9 22
M  V30 22 1 10 23
M  V30 23 1 10 24
M  V30 24 1 10 25
M  V30 END BOND
M  V30 END CTAB
M  END
>  <Structure No>
4444

>  <LogS>
-1.6917

>  <MMFF94 Energy>
-43.597

$$$$
Compound 4445
Actelion Java MolfileCreator 2.0

  0  0  0  0  0  0              0 V3000
M  V30 BEGIN CTAB
M  V30 COUNTS 17 17 0 0 0
M  V30 BEGIN ATOM
M  V30 1 Cl 2.6834 2.096 0.0 0
M  V30 2 C 1.1738 1.1836 0.0487 0
M  V30 3 C -0.0258 1.8358 0.3672 0
M  V30 4 C 1.1497 -0.195 -0.2277 0
M  V30 5 O -0.0237 3.0714 0.6181 0
M  V30 6 C -1.2281 1.1152 0.4072 0
M  V30 7 N -0.0307 -0.869 -0.1816 0 CHG=-1
M  V30 8 C 2.4007 -0.9437 -0.5738 0
M  V30 9 Cl -2.7346 1.9417 0.8087 0
M  V30 10 C -1.2089 -0.2622 0.1243 0
M  V30 11 C -2.4627 -1.0824 0.1519 0
M  V30 12 H 2.176 -2.016 -0.7569 0
M  V30 13 H 3.1262 -0.8739 0.2636 0
M  V30 14 H 2.8538 -0.5168 -1.4932 0
M  V30 15 H -3.1875 -0.6891 -0.5914 0
M  V30 16 H -2.2419 -2.142 -0.0975 0
M  V30 17 H -2.9151 -1.0461 1.1654 0
M  V30 END ATOM
M  V30 BEGIN BOND
M  V30 1 1 1 2
M  V30 2 1 2 3
M  V30 3 2 2 4
M  V30 4 2 3 5
M  V30 5 1 3 6
M  V30 6 1 4 7
M  V30 7 1 4 8
M  V30 8 1 6 9
M  V30 9 2 6 10
M  V30 10 1 10 11
M  V30 11 1 7 10
M  V30 12 1 8 12
M  V30 13 1 8 13
M  V30 14 1 8 14
M  V30 15 1 11 15
M  V30 16 1 11 16
M  V30 17 1 11 17
M  V30 END BOND
M  V30 END CTAB
M  END
>  <Structure No>
4445

>  <LogS>
-4.2834

>  <MMFF94 Energy>
67.185

$$$$
Compound 4446
Actelion Java MolfileCreator 2.0

  0  0  0  0  0  0              0 V3000
M  V30 BEGIN CTAB
M  V30 COUNTS 22 23 0 0 0
M  V30 BEGIN ATOM
M  V30 1 Cl 4.0633 0.6625 -2.0715 0
M  V30 2 C 2.9853 0.4001 -0.7127 0
M  V30 3 C 1.6054 0.2985 -0.9233 0
M  V30 4 C 3.5055 0.2885 0.5798 0
M  V30 5 C 0.7319 0.0833 0.1598 0
M  V30 6 C 2.6487 0.0751 1.6617 0
M  V30 7 C -0.7329 -0.0247 -0.0613 0
M  V30 8 C 1.2698 -0.0277 1.456 0
M  V30 9 C -1.4943 -0.9788 0.6399 0
M  V30 10 C -1.3834 0.8253 -0.9755 0
M  V30 11 C -2.8729 -1.0792 0.4297 0
M  V30 12 C -2.7624 0.7221 -1.1818 0
M  V30 13 C -3.508 -0.2294 -0.4803 0
M  V30 14 Cl -5.238 -0.3571 -0.7415 0
M  V30 15 H 1.2199 0.37 -1.9328 0
M  V30 16 H 4.5723 0.3671 0.7469 0
M  V30 17 H 3.053 -0.0073 2.6624 0
M  V30 18 H 0.6232 -0.1761 2.3118 0
M  V30 19 H -1.0212 -1.6589 1.3371 0
M  V30 20 H -0.8293 1.5815 -1.5174 0
M  V30 21 H -3.4456 -1.8203 0.9727 0
M  V30 22 H -3.2507 1.3851 -1.885 0
M  V30 END ATOM
M  V30 BEGIN BOND
M  V30 1 1 1 2
M  V30 2 2 2 3
M  V30 3 1 2 4
M  V30 4 1 3 5
M  V30 5 2 4 6
M  V30 6 1 5 7
M  V30 7 2 5 8
M  V30 8 2 7 9
M  V30 9 1 7 10
M  V30 10 1 9 11
M  V30 11 2 10 12
M  V30 12 2 11 13
M  V30 13 1 13 14
M  V30 14 1 6 8
M  V30 15 1 12 13
M  V30 16 1 3 15
M  V30 17 1 4 16
M  V30 18 1 6 17
M  V30 19 1 8 18
M  V30 20 1 9 19
M  V30 21 1 10 20
M  V30 22 1 11 21
M  V30 23 1 12 22
M  V30 END BOND
M  V30 END CTAB
M  END
>  <Structure No>
4446

>  <LogS>
-6.4001

>  <MMFF94 Energy>
33.103

$$$$
Compound 4447
Actelion Java MolfileCreator 2.0

  0  0  0  0  0  0              0 V3000
M  V30 BEGIN CTAB
M  V30 COUNTS 18 18 0 0 0
M  V30 BEGIN ATOM
M  V30 1 Cl -0.2538 1.8628 2.3712 0
M  V30 2 C -0.9342 1.0113 0.987 0
M  V30 3 C -2.2939 1.158 0.6568 0
M  V30 4 C -0.1059 0.181 0.2115 0
M  V30 5 Cl -3.3585 2.1882 1.605 0
M  V30 6 C -2.8211 0.4764 -0.4443 0
M  V30 7 O 1.2466 0.0559 0.5672 0
M  V30 8 C -0.6527 -0.4983 -0.8946 0
M  V30 9 C -2.0032 -0.3485 -1.2169 0
M  V30 10 C 2.1942 -0.7487 -0.1279 0
M  V30 11 C 3.5227 -0.6267 0.5385 0
M  V30 12 O 3.8165 -1.3766 1.5062 0
M  V30 13 O 4.4186 0.3528 0.1296 0 CHG=-1
M  V30 14 H -3.8669 0.5857 -0.7028 0
M  V30 15 H -0.0433 -1.1443 -1.5115 0
M  V30 16 H -2.4168 -0.8735 -2.0683 0
M  V30 17 H 2.2805 -0.4048 -1.1811 0
M  V30 18 H 1.8694 -1.8119 -0.1154 0
M  V30 END ATOM
M  V30 BEGIN BOND
M  V30 1 1 1 2
M  V30 2 2 2 3
M  V30 3 1 2 4
M  V30 4 1 3 5
M  V30 5 1 3 6
M  V30 6 1 4 7
M  V30 7 2 4 8
M  V30 8 2 6 9
M  V30 9 1 7 10
M  V30 10 1 10 11
M  V30 11 2 11 12
M  V30 12 1 11 13
M  V30 13 1 8 9
M  V30 14 1 6 14
M  V30 15 1 8 15
M  V30 16 1 9 16
M  V30 17 1 10 17
M  V30 18 1 10 18
M  V30 END BOND
M  V30 END CTAB
M  END
>  <Structure No>
4447

>  <LogS>
-2.8097

>  <MMFF94 Energy>
88.432

$$$$
Compound 4448
Actelion Java MolfileCreator 2.0

  0  0  0  0  0  0              0 V3000
M  V30 BEGIN CTAB
M  V30 COUNTS 23 22 0 0 0
M  V30 BEGIN ATOM
M  V30 1 O 1.566 -1.096 1.096 0
M  V30 2 C 0.6445 -0.6045 0.3886 0
M  V30 3 O 0.9315 0.3325 -0.6108 0
M  V30 4 C -0.7724 -1.0515 0.5983 0 CFG=1
M  V30 5 C 2.254 0.7587 -0.9304 0
M  V30 6 O -1.6579 0.0661 0.5311 0
M  V30 7 C -1.1605 -2.0629 -0.4754 0
M  V30 8 C 2.9831 -0.3108 -1.7349 0
M  V30 9 C -1.7114 1.064 1.5108 0
M  V30 10 O -0.9934 0.9927 2.5451 0
M  V30 11 C -2.6659 2.198 1.3522 0
M  V30 12 H -0.8727 -1.5421 1.5926 0
M  V30 13 H 2.819 0.9982 -0.0034 0
M  V30 14 H 2.189 1.6828 -1.5426 0
M  V30 15 H -0.4916 -2.9492 -0.4293 0
M  V30 16 H -1.0891 -1.605 -1.4856 0
M  V30 17 H -2.2055 -2.4013 -0.3112 0
M  V30 18 H 3.1032 -1.2347 -1.1317 0
M  V30 19 H 3.9892 0.0599 -2.0232 0
M  V30 20 H 2.4093 -0.5489 -2.6553 0
M  V30 21 H -2.2152 3.1337 1.7455 0
M  V30 22 H -3.5989 1.977 1.9108 0
M  V30 23 H -2.9089 2.3414 0.2786 0
M  V30 END ATOM
M  V30 BEGIN BOND
M  V30 1 2 1 2
M  V30 2 1 2 3
M  V30 3 1 2 4
M  V30 4 1 3 5
M  V30 5 1 4 6
M  V30 6 1 4 7
M  V30 7 1 5 8
M  V30 8 1 6 9
M  V30 9 2 9 10
M  V30 10 1 9 11
M  V30 11 1 4 12
M  V30 12 1 5 13
M  V30 13 1 5 14
M  V30 14 1 7 15
M  V30 15 1 7 16
M  V30 16 1 7 17
M  V30 17 1 8 18
M  V30 18 1 8 19
M  V30 19 1 8 20
M  V30 20 1 11 21
M  V30 21 1 11 22
M  V30 22 1 11 23
M  V30 END BOND
M  V30 BEGIN COLLECTION
M  V30 MDLV30/STEABS ATOMS=(1 4)
M  V30 END COLLECTION
M  V30 END CTAB
M  END
>  <Structure No>
4448

>  <LogS>
-0.6994

>  <MMFF94 Energy>
-2.5952

$$$$
Compound 4449
Actelion Java MolfileCreator 2.0

  0  0  0  0  0  0              0 V3000
M  V30 BEGIN CTAB
M  V30 COUNTS 16 16 0 0 0
M  V30 BEGIN ATOM
M  V30 1 S 2.7055 1.0651 1.311 0
M  V30 2 C 3.5226 -0.265 0.4878 0
M  V30 3 C 1.1019 0.5947 0.6635 0
M  V30 4 N 4.0582 -1.1372 -0.0518 0
M  V30 5 C 0.2894 -0.2934 1.3786 0
M  V30 6 C 0.6531 1.1247 -0.5521 0
M  V30 7 C -0.9641 -0.6566 0.8763 0
M  V30 8 C -0.6003 0.7622 -1.0552 0
M  V30 9 C -1.415 -0.1307 -0.3435 0
M  V30 10 N -2.6968 -0.5019 -0.8576 0
M  V30 11 H 0.6285 -0.704 2.3212 0
M  V30 12 H 1.2745 1.8152 -1.1082 0
M  V30 13 H -1.5834 -1.346 1.4365 0
M  V30 14 H -0.9366 1.1765 -1.9974 0
M  V30 15 H -3.3107 -1.1659 -0.3347 0
M  V30 16 H -3.0413 -0.1155 -1.7647 0
M  V30 END ATOM
M  V30 BEGIN BOND
M  V30 1 1 1 2
M  V30 2 1 1 3
M  V30 3 3 2 4
M  V30 4 2 3 5
M  V30 5 1 3 6
M  V30 6 1 5 7
M  V30 7 2 6 8
M  V30 8 2 7 9
M  V30 9 1 9 10
M  V30 10 1 8 9
M  V30 11 1 5 11
M  V30 12 1 6 12
M  V30 13 1 7 13
M  V30 14 1 8 14
M  V30 15 1 10 15
M  V30 16 1 10 16
M  V30 END BOND
M  V30 END CTAB
M  END
>  <Structure No>
4449

>  <LogS>
-2.6015

>  <MMFF94 Energy>
9.5249

$$$$
Compound 4450
Actelion Java MolfileCreator 2.0

  0  0  0  0  0  0              0 V3000
M  V30 BEGIN CTAB
M  V30 COUNTS 18 19 0 0 0
M  V30 BEGIN ATOM
M  V30 1 F -0.7373 -3.0338 0.9012 0
M  V30 2 C -1.3355 -1.863 0.4695 0
M  V30 3 F -2.0189 -2.1176 -0.7052 0
M  V30 4 F -2.2287 -1.4354 1.4349 0
M  V30 5 C -0.3008 -0.8024 0.2329 0
M  V30 6 N 1.0259 -1.0588 0.4446 0
M  V30 7 C -0.6365 0.476 -0.2074 0
M  V30 8 C 1.988 -0.1024 0.234 0
M  V30 9 N -1.8307 1.0088 -0.4942 0
M  V30 10 C 0.3243 1.4059 -0.4096 0
M  V30 11 N 1.6365 1.147 -0.1985 0
M  V30 12 N 3.3596 -0.4128 0.4674 0
M  V30 13 C -1.5356 2.2789 -0.8701 0
M  V30 14 N -0.2057 2.566 -0.8313 0
M  V30 15 H -2.7722 0.5606 -0.4435 0
M  V30 16 H 4.0987 0.3077 0.3102 0
M  V30 17 H 3.6373 -1.3635 0.7977 0
M  V30 18 H -2.2864 2.997 -1.1724 0
M  V30 END ATOM
M  V30 BEGIN BOND
M  V30 1 1 1 2
M  V30 2 1 2 3
M  V30 3 1 2 4
M  V30 4 1 2 5
M  V30 5 2 5 6
M  V30 6 1 5 7
M  V30 7 1 6 8
M  V30 8 1 7 9
M  V30 9 2 7 10
M  V30 10 2 8 11
M  V30 11 1 8 12
M  V30 12 1 9 13
M  V30 13 1 10 14
M  V30 14 1 10 11
M  V30 15 2 13 14
M  V30 16 1 9 15
M  V30 17 1 12 16
M  V30 18 1 12 17
M  V30 19 1 13 18
M  V30 END BOND
M  V30 END CTAB
M  END
>  <Structure No>
4450

>  <LogS>
-3.1346

>  <MMFF94 Energy>
-68.959

$$$$
Compound 4451
Actelion Java MolfileCreator 2.0

  0  0  0  0  0  0              0 V3000
M  V30 BEGIN CTAB
M  V30 COUNTS 38 38 0 0 0
M  V30 BEGIN ATOM
M  V30 1 O 1.1755 3.4513 1.4892 0
M  V30 2 C 0.6775 2.2482 0.9829 0
M  V30 3 C 0.4961 4.6916 1.3336 0
M  V30 4 N 1.3838 1.1051 1.1675 0
M  V30 5 N -0.5032 2.2091 0.3111 0
M  V30 6 C 0.92 -0.0796 0.6877 0
M  V30 7 C -0.9754 1.0336 -0.1751 0
M  V30 8 N -0.2623 -0.1063 0.0171 0
M  V30 9 N 1.6713 -1.2962 0.8914 0
M  V30 10 N -2.2243 1.0057 -0.8783 0
M  V30 11 C 2.9015 -1.2851 1.6961 0
M  V30 12 C 1.2211 -2.5566 0.2838 0
M  V30 13 C -2.7654 -0.218 -1.4785 0
M  V30 14 C 2.5681 -1.2576 3.1839 0
M  V30 15 C 1.6194 -2.6116 -1.1868 0
M  V30 16 C -4.2674 -0.0633 -1.7373 0
M  V30 17 C -2.0286 -0.5323 -2.7834 0
M  V30 18 H 1.0845 5.4938 1.8242 0
M  V30 19 H 0.3878 4.9329 0.2553 0
M  V30 20 H -0.5061 4.6387 1.8088 0
M  V30 21 H -2.7646 1.8983 -0.9513 0
M  V30 22 H 3.526 -0.4052 1.4299 0
M  V30 23 H 3.5139 -2.189 1.4855 0
M  V30 24 H 0.1191 -2.6602 0.384 0
M  V30 25 H 1.6719 -3.4266 0.8095 0
M  V30 26 H -2.6305 -1.067 -0.7722 0
M  V30 27 H 2.0012 -0.3381 3.4394 0
M  V30 28 H 3.5068 -1.2724 3.7768 0
M  V30 29 H 1.9599 -2.1465 3.4539 0
M  V30 30 H 1.1733 -1.7605 -1.7424 0
M  V30 31 H 1.259 -3.5605 -1.6358 0
M  V30 32 H 2.7252 -2.5662 -1.2808 0
M  V30 33 H -4.7938 0.1545 -0.7837 0
M  V30 34 H -4.4583 0.7681 -2.4495 0
M  V30 35 H -4.6836 -1.0025 -2.16 0
M  V30 36 H -0.9463 -0.6786 -2.5891 0
M  V30 37 H -2.1492 0.3016 -3.5075 0
M  V30 38 H -2.4278 -1.4653 -3.2353 0
M  V30 END ATOM
M  V30 BEGIN BOND
M  V30 1 1 1 2
M  V30 2 1 1 3
M  V30 3 2 2 4
M  V30 4 1 2 5
M  V30 5 1 4 6
M  V30 6 2 5 7
M  V30 7 2 6 8
M  V30 8 1 6 9
M  V30 9 1 7 10
M  V30 10 1 9 11
M  V30 11 1 9 12
M  V30 12 1 10 13
M  V30 13 1 11 14
M  V30 14 1 12 15
M  V30 15 1 13 16
M  V30 16 1 13 17
M  V30 17 1 7 8
M  V30 18 1 3 18
M  V30 19 1 3 19
M  V30 20 1 3 20
M  V30 21 1 10 21
M  V30 22 1 11 22
M  V30 23 1 11 23
M  V30 24 1 12 24
M  V30 25 1 12 25
M  V30 26 1 13 26
M  V30 27 1 14 27
M  V30 28 1 14 28
M  V30 29 1 14 29
M  V30 30 1 15 30
M  V30 31 1 15 31
M  V30 32 1 15 32
M  V30 33 1 16 33
M  V30 34 1 16 34
M  V30 35 1 16 35
M  V30 36 1 17 36
M  V30 37 1 17 37
M  V30 38 1 17 38
M  V30 END BOND
M  V30 END CTAB
M  END
>  <Structure No>
4451

>  <LogS>
-4.889

>  <MMFF94 Energy>
-229.04

$$$$
Compound 4452
Actelion Java MolfileCreator 2.0

  0  0  0  0  0  0              0 V3000
M  V30 BEGIN CTAB
M  V30 COUNTS 25 25 0 0 0
M  V30 BEGIN ATOM
M  V30 1 Cl 1.2786 -3.5993 -0.6391 0
M  V30 2 C 1.2089 -1.8804 -0.319 0
M  V30 3 N 0.0188 -1.2314 -0.3577 0
M  V30 4 N 2.3447 -1.1972 -0.0321 0
M  V30 5 C -0.0405 0.1034 -0.1079 0
M  V30 6 C 2.2938 0.138 0.2165 0
M  V30 7 N 1.0997 0.7837 0.1771 0
M  V30 8 N -1.2925 0.8012 -0.1484 0
M  V30 9 N 3.487 0.8688 0.5195 0
M  V30 10 C -2.5666 0.1253 -0.4163 0
M  V30 11 C 4.7939 0.2257 0.5752 0
M  V30 12 C -3.0323 -0.6319 0.8309 0
M  V30 13 C -3.6267 1.1429 -0.85 0
M  V30 14 H -1.2798 1.8365 -5.0E-4 0
M  V30 15 H 3.4207 1.8948 0.7068 0
M  V30 16 H -2.4326 -0.5978 -1.2509 0
M  V30 17 H 5.0336 -0.2257 -0.4103 0
M  V30 18 H 4.7922 -0.5638 1.3558 0
M  V30 19 H 5.5732 0.9762 0.8254 0
M  V30 20 H -3.164 0.0688 1.6833 0
M  V30 21 H -2.2859 -1.4021 1.1162 0
M  V30 22 H -3.9977 -1.144 0.6311 0
M  V30 23 H -4.5787 0.6253 -1.095 0
M  V30 24 H -3.8155 1.8815 -0.0411 0
M  V30 25 H -3.2807 1.6847 -1.7558 0
M  V30 END ATOM
M  V30 BEGIN BOND
M  V30 1 1 1 2
M  V30 2 2 2 3
M  V30 3 1 2 4
M  V30 4 1 3 5
M  V30 5 2 4 6
M  V30 6 2 5 7
M  V30 7 1 5 8
M  V30 8 1 6 9
M  V30 9 1 8 10
M  V30 10 1 9 11
M  V30 11 1 10 12
M  V30 12 1 10 13
M  V30 13 1 6 7
M  V30 14 1 8 14
M  V30 15 1 9 15
M  V30 16 1 10 16
M  V30 17 1 11 17
M  V30 18 1 11 18
M  V30 19 1 11 19
M  V30 20 1 12 20
M  V30 21 1 12 21
M  V30 22 1 12 22
M  V30 23 1 13 23
M  V30 24 1 13 24
M  V30 25 1 13 25
M  V30 END BOND
M  V30 END CTAB
M  END
>  <Structure No>
4452

>  <LogS>
-2.8896

>  <MMFF94 Energy>
-235.31

$$$$
Compound 4453
Actelion Java MolfileCreator 2.0

  0  0  0  0  0  0              0 V3000
M  V30 BEGIN CTAB
M  V30 COUNTS 16 16 0 0 0
M  V30 BEGIN ATOM
M  V30 1 O -2.1291 -2.539 0.5729 0
M  V30 2 N -2.3154 -1.3241 0.3519 0 CHG=1
M  V30 3 O -3.6095 -0.8586 0.3146 0 CHG=-1
M  V30 4 C -1.1939 -0.4386 0.1421 0
M  V30 5 C -1.3789 0.9399 -0.1095 0
M  V30 6 C 0.1205 -0.9473 0.1868 0
M  V30 7 O -2.6502 1.4998 -0.1654 0 CHG=-1
M  V30 8 C -0.2738 1.7728 -0.3087 0
M  V30 9 C 1.2287 -0.1064 -0.0139 0
M  V30 10 C 1.0205 1.2558 -0.2617 0
M  V30 11 C 2.6055 -0.6339 0.0318 0
M  V30 12 O 2.8286 -1.854 0.2523 0
M  V30 13 H 0.2816 -2.0005 0.3784 0
M  V30 14 H -0.4205 2.8283 -0.5012 0
M  V30 15 H 1.861 1.9209 -0.4192 0
M  V30 16 H 3.4452 0.0311 -0.1255 0
M  V30 END ATOM
M  V30 BEGIN BOND
M  V30 1 2 1 2
M  V30 2 1 2 3
M  V30 3 1 2 4
M  V30 4 2 4 5
M  V30 5 1 4 6
M  V30 6 1 5 7
M  V30 7 1 5 8
M  V30 8 2 6 9
M  V30 9 2 8 10
M  V30 10 1 9 11
M  V30 11 2 11 12
M  V30 12 1 9 10
M  V30 13 1 6 13
M  V30 14 1 8 14
M  V30 15 1 10 15
M  V30 16 1 11 16
M  V30 END BOND
M  V30 END CTAB
M  END
>  <Structure No>
4453

>  <LogS>
-2.9512

>  <MMFF94 Energy>
68.028

$$$$
Compound 4454
Actelion Java MolfileCreator 2.0

  0  0  0  0  0  0              0 V3000
M  V30 BEGIN CTAB
M  V30 COUNTS 29 29 0 0 0
M  V30 BEGIN ATOM
M  V30 1 O -3.059 -1.8816 0.4701 0
M  V30 2 C -2.0409 -0.9661 0.192 0
M  V30 3 C -2.8038 -3.249 0.7682 0
M  V30 4 N -0.7368 -1.3501 0.1942 0
M  V30 5 N -2.3611 0.3228 -0.0833 0
M  V30 6 C 0.2434 -0.451 -0.0764 0
M  V30 7 C -1.3859 1.2288 -0.3571 0
M  V30 8 N -0.0862 0.8379 -0.3536 0
M  V30 9 N 1.6138 -0.8722 -0.0732 0
M  V30 10 N -1.7169 2.5906 -0.6489 0
M  V30 11 C 2.7256 0.0509 -0.3242 0
M  V30 12 C -3.0953 3.0645 -0.6659 0
M  V30 13 C 2.9881 0.9075 0.9179 0
M  V30 14 C 3.9862 -0.7287 -0.7111 0
M  V30 15 H -2.1734 -3.3285 1.6791 0
M  V30 16 H -2.2902 -3.7355 -0.0878 0
M  V30 17 H -3.767 -3.768 0.9515 0
M  V30 18 H 1.813 -1.885 0.0948 0
M  V30 19 H -0.9478 3.2672 -0.8557 0
M  V30 20 H 2.4669 0.7175 -1.1765 0
M  V30 21 H -3.5575 2.9145 0.3324 0
M  V30 22 H -3.6754 2.5082 -1.432 0
M  V30 23 H -3.119 4.1467 -0.9135 0
M  V30 24 H 3.2389 0.2629 1.7876 0
M  V30 25 H 3.8305 1.6072 0.7312 0
M  V30 26 H 2.0896 1.5093 1.1691 0
M  V30 27 H 4.3022 -1.3991 0.1169 0
M  V30 28 H 3.7862 -1.3443 -1.6138 0
M  V30 29 H 4.8157 -0.0272 -0.9438 0
M  V30 END ATOM
M  V30 BEGIN BOND
M  V30 1 1 1 2
M  V30 2 1 1 3
M  V30 3 2 2 4
M  V30 4 1 2 5
M  V30 5 1 4 6
M  V30 6 2 5 7
M  V30 7 2 6 8
M  V30 8 1 6 9
M  V30 9 1 7 10
M  V30 10 1 9 11
M  V30 11 1 10 12
M  V30 12 1 11 13
M  V30 13 1 11 14
M  V30 14 1 7 8
M  V30 15 1 3 15
M  V30 16 1 3 16
M  V30 17 1 3 17
M  V30 18 1 9 18
M  V30 19 1 10 19
M  V30 20 1 11 20
M  V30 21 1 12 21
M  V30 22 1 12 22
M  V30 23 1 12 23
M  V30 24 1 13 24
M  V30 25 1 13 25
M  V30 26 1 13 26
M  V30 27 1 14 27
M  V30 28 1 14 28
M  V30 29 1 14 29
M  V30 END BOND
M  V30 END CTAB
M  END
>  <Structure No>
4454

>  <LogS>
-1.7509

>  <MMFF94 Energy>
-240.15

$$$$
Compound 4455
Actelion Java MolfileCreator 2.0

  0  0  0  0  0  0              0 V3000
M  V30 BEGIN CTAB
M  V30 COUNTS 25 24 0 0 0
M  V30 BEGIN ATOM
M  V30 1 O 1.6329 3.1901 -0.3886 0
M  V30 2 C 0.7216 2.371 -0.0972 0
M  V30 3 O -0.6017 2.7948 -0.1369 0 CHG=-1
M  V30 4 C 1.0889 0.9509 0.2782 0 CFG=2
M  V30 5 N 1.5845 0.2127 -0.9068 0 CHG=1
M  V30 6 C -0.0631 0.2216 1.031 0
M  V30 7 C 2.3624 -0.977 -0.5392 0
M  V30 8 C -1.3183 -0.1308 0.175 0
M  V30 9 C -1.3472 -1.6195 -0.2055 0
M  V30 10 C -2.6083 0.2248 0.9289 0
M  V30 11 H 1.9228 1.0498 1.0114 0
M  V30 12 H 0.8001 -0.0607 -1.5398 0
M  V30 13 H 2.2249 0.8314 -1.4584 0
M  V30 14 H 0.337 -0.6921 1.52 0
M  V30 15 H -0.3548 0.8769 1.8826 0
M  V30 16 H 1.7426 -1.7121 0.013 0
M  V30 17 H 3.2397 -0.6957 0.0836 0
M  V30 18 H 2.7393 -1.4747 -1.4588 0
M  V30 19 H -1.3227 0.4562 -0.7676 0
M  V30 20 H -0.4651 -1.8899 -0.818 0
M  V30 21 H -1.3614 -2.2575 0.7043 0
M  V30 22 H -2.2527 -1.8431 -0.8091 0
M  V30 23 H -2.6334 1.3118 1.1566 0
M  V30 24 H -3.4981 -0.0132 0.3072 0
M  V30 25 H -2.6732 -0.3431 1.8821 0
M  V30 END ATOM
M  V30 BEGIN BOND
M  V30 1 2 1 2
M  V30 2 1 2 3
M  V30 3 1 2 4
M  V30 4 1 4 5
M  V30 5 1 4 6
M  V30 6 1 5 7
M  V30 7 1 6 8
M  V30 8 1 8 9
M  V30 9 1 8 10
M  V30 10 1 4 11
M  V30 11 1 5 12
M  V30 12 1 5 13
M  V30 13 1 6 14
M  V30 14 1 6 15
M  V30 15 1 7 16
M  V30 16 1 7 17
M  V30 17 1 7 18
M  V30 18 1 8 19
M  V30 19 1 9 20
M  V30 20 1 9 21
M  V30 21 1 9 22
M  V30 22 1 10 23
M  V30 23 1 10 24
M  V30 24 1 10 25
M  V30 END BOND
M  V30 BEGIN COLLECTION
M  V30 MDLV30/STEABS ATOMS=(1 4)
M  V30 END COLLECTION
M  V30 END CTAB
M  END
>  <Structure No>
4455

>  <LogS>
-0.5146

>  <MMFF94 Energy>
4.7511

$$$$
Compound 4456
Actelion Java MolfileCreator 2.0

  0  0  0  0  0  0              0 V3000
M  V30 BEGIN CTAB
M  V30 COUNTS 23 22 0 0 0
M  V30 BEGIN ATOM
M  V30 1 O -0.1574 2.048 -2.2057 0
M  V30 2 C -0.1798 1.7682 -0.978 0
M  V30 3 O -0.2122 2.7942 -0.041 0 CHG=-1
M  V30 4 C -0.177 0.3332 -0.529 0 CFG=1
M  V30 5 N 0.98 0.1217 0.3463 0
M  V30 6 C -1.4941 -0.0338 0.207 0
M  V30 7 C 2.2665 -0.266 -0.1555 0
M  V30 8 C -2.7219 0.1707 -0.6968 0
M  V30 9 C -1.4621 -1.4902 0.6984 0
M  V30 10 O 2.437 -0.4757 -1.3869 0
M  V30 11 C 3.4246 -0.3869 0.7802 0
M  V30 12 H -0.0905 -0.3257 -1.4228 0
M  V30 13 H 0.9052 0.3958 1.3529 0
M  V30 14 H -1.6089 0.6244 1.0975 0
M  V30 15 H -3.6491 -0.1228 -0.1596 0
M  V30 16 H -2.8263 1.2388 -0.9812 0
M  V30 17 H -2.6347 -0.441 -1.6202 0
M  V30 18 H -0.637 -1.6418 1.4256 0
M  V30 19 H -1.3212 -2.188 -0.1549 0
M  V30 20 H -2.4128 -1.7438 1.2142 0
M  V30 21 H 3.123 -0.9681 1.6767 0
M  V30 22 H 4.2726 -0.9069 0.286 0
M  V30 23 H 3.7527 0.6256 1.0944 0
M  V30 END ATOM
M  V30 BEGIN BOND
M  V30 1 2 1 2
M  V30 2 1 2 3
M  V30 3 1 2 4
M  V30 4 1 4 5
M  V30 5 1 4 6
M  V30 6 1 5 7
M  V30 7 1 6 8
M  V30 8 1 6 9
M  V30 9 2 7 10
M  V30 10 1 7 11
M  V30 11 1 4 12
M  V30 12 1 5 13
M  V30 13 1 6 14
M  V30 14 1 8 15
M  V30 15 1 8 16
M  V30 16 1 8 17
M  V30 17 1 9 18
M  V30 18 1 9 19
M  V30 19 1 9 20
M  V30 20 1 11 21
M  V30 21 1 11 22
M  V30 22 1 11 23
M  V30 END BOND
M  V30 BEGIN COLLECTION
M  V30 MDLV30/STEABS ATOMS=(1 4)
M  V30 END COLLECTION
M  V30 END CTAB
M  END
>  <Structure No>
4456

>  <LogS>
-0.6325

>  <MMFF94 Energy>
34.076

$$$$
Compound 4457
Actelion Java MolfileCreator 2.0

  0  0  0  0  0  0              0 V3000
M  V30 BEGIN CTAB
M  V30 COUNTS 19 18 0 0 0
M  V30 BEGIN ATOM
M  V30 1 C -2.5157 -0.1523 -0.3808 0
M  V30 2 C -2.7276 0.8922 -1.1866 0
M  V30 3 C -1.2106 -0.8996 -0.3794 0
M  V30 4 C -0.0909 -0.0619 0.2499 0
M  V30 5 C 1.2269 -0.8451 0.2848 0
M  V30 6 C 2.3201 -0.0443 0.937 0
M  V30 7 C 2.8677 1.0172 0.3381 0
M  V30 8 H -3.3179 -0.4908 0.2683 0
M  V30 9 H -3.6856 1.4018 -1.1745 0
M  V30 10 H -1.9541 1.2426 -1.8633 0
M  V30 11 H -0.9419 -1.1804 -1.4214 0
M  V30 12 H -1.3412 -1.8352 0.2066 0
M  V30 13 H -0.3799 0.2174 1.2875 0
M  V30 14 H 0.0489 0.8702 -0.3399 0
M  V30 15 H 1.0808 -1.7811 0.8667 0
M  V30 16 H 1.5355 -1.1251 -0.7461 0
M  V30 17 H 2.6955 -0.3566 1.9072 0
M  V30 18 H 2.5303 1.3427 -0.641 0
M  V30 19 H 3.6651 1.5658 0.8286 0
M  V30 END ATOM
M  V30 BEGIN BOND
M  V30 1 2 1 2
M  V30 2 1 1 3
M  V30 3 1 3 4
M  V30 4 1 4 5
M  V30 5 1 5 6
M  V30 6 2 6 7
M  V30 7 1 1 8
M  V30 8 1 2 9
M  V30 9 1 2 10
M  V30 10 1 3 11
M  V30 11 1 3 12
M  V30 12 1 4 13
M  V30 13 1 4 14
M  V30 14 1 5 15
M  V30 15 1 5 16
M  V30 16 1 6 17
M  V30 17 1 7 18
M  V30 18 1 7 19
M  V30 END BOND
M  V30 END CTAB
M  END
>  <Structure No>
4457

>  <LogS>
-3.3396

>  <MMFF94 Energy>
15.065

$$$$
Compound 4458
Actelion Java MolfileCreator 2.0

  0  0  0  0  0  0              0 V3000
M  V30 BEGIN CTAB
M  V30 COUNTS 27 27 0 0 0
M  V30 BEGIN ATOM
M  V30 1 C -1.1785 0.157 0.0785 0
M  V30 2 C -0.0345 -0.7805 0.5855 0
M  V30 3 C -0.6135 1.3677 -0.7316 0
M  V30 4 C -2.1414 -0.6425 -0.8261 0
M  V30 5 C -1.9781 0.675 1.2939 0
M  V30 6 C 1.1871 -0.7606 -0.353 0 CFG=1
M  V30 7 C 0.778 1.7885 -0.2452 0
M  V30 8 C 1.8106 0.6563 -0.418 0
M  V30 9 C 2.2297 -1.7964 0.0824 0
M  V30 10 H -0.4096 -1.8221 0.6991 0
M  V30 11 H 0.3082 -0.4608 1.5959 0
M  V30 12 H -0.5272 1.1103 -1.8112 0
M  V30 13 H -1.3022 2.2393 -0.6733 0
M  V30 14 H -1.5983 -1.0795 -1.691 0
M  V30 15 H -2.6166 -1.4735 -0.261 0
M  V30 16 H -2.9468 0.0161 -1.2175 0
M  V30 17 H -2.8416 1.293 0.9651 0
M  V30 18 H -2.3682 -0.1746 1.8951 0
M  V30 19 H -1.3366 1.3001 1.9511 0
M  V30 20 H 0.8466 -1.043 -1.3742 0
M  V30 21 H 0.7178 2.0769 0.8267 0
M  V30 22 H 1.1138 2.6843 -0.811 0
M  V30 23 H 2.5868 0.7776 0.3697 0
M  V30 24 H 2.32 0.7731 -1.3996 0
M  V30 25 H 1.7914 -2.8166 0.0509 0
M  V30 26 H 2.5813 -1.5895 1.1162 0
M  V30 27 H 3.1012 -1.7715 -0.6058 0
M  V30 END ATOM
M  V30 BEGIN BOND
M  V30 1 1 1 2
M  V30 2 1 1 3
M  V30 3 1 1 4
M  V30 4 1 1 5
M  V30 5 1 2 6
M  V30 6 1 3 7
M  V30 7 1 6 8
M  V30 8 1 6 9
M  V30 9 1 7 8
M  V30 10 1 2 10
M  V30 11 1 2 11
M  V30 12 1 3 12
M  V30 13 1 3 13
M  V30 14 1 4 14
M  V30 15 1 4 15
M  V30 16 1 4 16
M  V30 17 1 5 17
M  V30 18 1 5 18
M  V30 19 1 5 19
M  V30 20 1 6 20
M  V30 21 1 7 21
M  V30 22 1 7 22
M  V30 23 1 8 23
M  V30 24 1 8 24
M  V30 25 1 9 25
M  V30 26 1 9 26
M  V30 27 1 9 27
M  V30 END BOND
M  V30 BEGIN COLLECTION
M  V30 MDLV30/STEABS ATOMS=(1 6)
M  V30 END COLLECTION
M  V30 END CTAB
M  END
>  <Structure No>
4458

>  <LogS>
-4.8532

>  <MMFF94 Energy>
15.66

$$$$
Compound 4459
Actelion Java MolfileCreator 2.0

  0  0  0  0  0  0              0 V3000
M  V30 BEGIN CTAB
M  V30 COUNTS 17 16 0 0 0
M  V30 BEGIN ATOM
M  V30 1 O 1.5652 0.9389 2.427 0
M  V30 2 C 1.8155 0.1232 1.5013 0
M  V30 3 O 2.9696 0.2752 0.7433 0 CHG=-1
M  V30 4 C 0.8556 -0.9896 1.1962 0
M  V30 5 N -0.3361 -0.503 0.4812 0 CHG=1
M  V30 6 C -0.0245 -0.1201 -0.9082 0
M  V30 7 C -1.2873 0.2895 -1.6783 0
M  V30 8 C -1.8444 1.5474 -1.1648 0
M  V30 9 N -2.2834 2.5387 -0.7597 0
M  V30 10 H 1.3698 -1.7821 0.6082 0
M  V30 11 H 0.5417 -1.4533 2.1575 0
M  V30 12 H -0.7466 0.3096 0.9985 0
M  V30 13 H -1.0424 -1.276 0.4697 0
M  V30 14 H 0.4363 -0.9815 -1.4415 0
M  V30 15 H 0.7034 0.7218 -0.9273 0
M  V30 16 H -2.0565 -0.5085 -1.6094 0
M  V30 17 H -1.0305 0.4319 -2.7492 0
M  V30 END ATOM
M  V30 BEGIN BOND
M  V30 1 2 1 2
M  V30 2 1 2 3
M  V30 3 1 2 4
M  V30 4 1 4 5
M  V30 5 1 5 6
M  V30 6 1 6 7
M  V30 7 1 7 8
M  V30 8 3 8 9
M  V30 9 1 4 10
M  V30 10 1 4 11
M  V30 11 1 5 12
M  V30 12 1 5 13
M  V30 13 1 6 14
M  V30 14 1 6 15
M  V30 15 1 7 16
M  V30 16 1 7 17
M  V30 END BOND
M  V30 END CTAB
M  END
>  <Structure No>
4459

>  <LogS>
0.3237

>  <MMFF94 Energy>
-3.8718

$$$$
Compound 4460
Actelion Java MolfileCreator 2.0

  0  0  0  0  0  0              0 V3000
M  V30 BEGIN CTAB
M  V30 COUNTS 22 21 0 0 0
M  V30 BEGIN ATOM
M  V30 1 O -1.2416 2.4845 1.0087 0
M  V30 2 C -1.404 1.2361 1.0389 0
M  V30 3 O -1.9552 0.6437 2.1689 0 CHG=-1
M  V30 4 C -1.0036 0.3897 -0.1434 0 CFG=2
M  V30 5 N -2.1902 -0.3066 -0.6635 0 CHG=1
M  V30 6 C 0.1263 -0.6151 0.2464 0 CFG=2
M  V30 7 C 1.3607 0.0671 0.897 0
M  V30 8 C 0.5541 -1.4886 -0.9476 0
M  V30 9 C 2.0661 1.091 0.0029 0
M  V30 10 H -0.6241 1.0617 -0.9457 0
M  V30 11 H -1.9843 -0.7231 -1.5996 0
M  V30 12 H -2.9763 0.3719 -0.7931 0
M  V30 13 H -2.4969 -1.06 -0.0054 0
M  V30 14 H -0.2857 -1.3079 1.0145 0
M  V30 15 H 1.0597 0.5683 1.8419 0
M  V30 16 H 2.0978 -0.7142 1.1846 0
M  V30 17 H 0.775 -0.8642 -1.8388 0
M  V30 18 H -0.2493 -2.209 -1.2075 0
M  V30 19 H 1.4563 -2.0851 -0.694 0
M  V30 20 H 1.4 1.9494 -0.2192 0
M  V30 21 H 2.405 0.6253 -0.9449 0
M  V30 22 H 2.9601 1.4825 0.5324 0
M  V30 END ATOM
M  V30 BEGIN BOND
M  V30 1 2 1 2
M  V30 2 1 2 3
M  V30 3 1 2 4
M  V30 4 1 4 5
M  V30 5 1 4 6
M  V30 6 1 6 7
M  V30 7 1 6 8
M  V30 8 1 7 9
M  V30 9 1 4 10
M  V30 10 1 5 11
M  V30 11 1 5 12
M  V30 12 1 5 13
M  V30 13 1 6 14
M  V30 14 1 7 15
M  V30 15 1 7 16
M  V30 16 1 8 17
M  V30 17 1 8 18
M  V30 18 1 8 19
M  V30 19 1 9 20
M  V30 20 1 9 21
M  V30 21 1 9 22
M  V30 END BOND
M  V30 BEGIN COLLECTION
M  V30 MDLV30/STEABS ATOMS=(2 4 6)
M  V30 END COLLECTION
M  V30 END CTAB
M  END
>  <Structure No>
4460

>  <LogS>
-0.3895

>  <MMFF94 Energy>
-2.2764

$$$$
Compound 4461
Actelion Java MolfileCreator 2.0

  0  0  0  0  0  0              0 V3000
M  V30 BEGIN CTAB
M  V30 COUNTS 50 52 0 0 0
M  V30 BEGIN ATOM
M  V30 1 F 7.6112 3.0391 -1.2787 0
M  V30 2 C 6.7434 2.1432 -0.7472 0
M  V30 3 C 6.4579 0.958 -1.4284 0
M  V30 4 C 6.1386 2.4022 0.4846 0
M  V30 5 C 5.5638 0.0315 -0.8827 0
M  V30 6 C 5.2446 1.4791 1.0354 0
M  V30 7 C 4.9394 0.2859 0.3542 0
M  V30 8 C 3.9905 -0.6849 0.9542 0
M  V30 9 O 3.8318 -0.6937 2.2061 0
M  V30 10 C 3.2516 -1.6982 0.1118 0
M  V30 11 C 1.8398 -2.0044 0.6376 0
M  V30 12 C 0.9025 -0.7821 0.5285 0
M  V30 13 N -0.4834 -1.1022 0.9543 0 CHG=1 CFG=1
M  V30 14 C -1.1784 0.1444 1.363 0
M  V30 15 C -1.2192 -1.8804 -0.0911 0
M  V30 16 C -2.6811 -0.0933 1.5781 0
M  V30 17 C -2.3634 -1.0964 -0.7545 0
M  V30 18 C -3.3981 -0.6229 0.2921 0 CFG=1
M  V30 19 O -4.1764 -1.7428 0.6547 0
M  V30 20 C -4.2878 0.442 -0.3679 0
M  V30 21 C -3.8574 1.7816 -0.4877 0
M  V30 22 C -5.5073 0.0778 -0.98 0
M  V30 23 C -4.6489 2.7314 -1.1401 0
M  V30 24 C -6.2939 1.0326 -1.6311 0
M  V30 25 C -5.8685 2.3591 -1.7055 0
M  V30 26 H 6.9337 0.7525 -2.3788 0
M  V30 27 H 6.3612 3.3195 1.0147 0
M  V30 28 H 5.3819 -0.8888 -1.4214 0
M  V30 29 H 4.783 1.7034 1.9892 0
M  V30 30 H 3.8432 -2.6382 0.0996 0
M  V30 31 H 3.1603 -1.34 -0.936 0
M  V30 32 H 1.8958 -2.345 1.6945 0
M  V30 33 H 1.4319 -2.8488 0.0444 0
M  V30 34 H 1.3264 0.0204 1.1744 0
M  V30 35 H 0.9043 -0.3905 -0.5144 0
M  V30 36 H -0.4243 -1.6997 1.8143 0
M  V30 37 H -1.0313 0.9436 0.6033 0
M  V30 38 H -0.7457 0.521 2.3178 0
M  V30 39 H -1.6489 -2.8014 0.3644 0
M  V30 40 H -0.5462 -2.2333 -0.9031 0
M  V30 41 H -2.7787 -0.8376 2.3998 0
M  V30 42 H -3.1574 0.836 1.9586 0
M  V30 43 H -2.8616 -1.7417 -1.5115 0
M  V30 44 H -1.9268 -0.2311 -1.3014 0
M  V30 45 H -4.8486 -1.4414 1.3223 0
M  V30 46 H -2.9082 2.1002 -0.0835 0
M  V30 47 H -5.8545 -0.9468 -0.9644 0
M  V30 48 H -4.3109 3.7571 -1.2142 0
M  V30 49 H -7.2315 0.7408 -2.0864 0
M  V30 50 H -6.4778 3.0959 -2.2128 0
M  V30 END ATOM
M  V30 BEGIN BOND
M  V30 1 1 1 2
M  V30 2 2 2 3
M  V30 3 1 2 4
M  V30 4 1 3 5
M  V30 5 2 4 6
M  V30 6 2 5 7
M  V30 7 1 7 8
M  V30 8 2 8 9
M  V30 9 1 8 10
M  V30 10 1 10 11
M  V30 11 1 11 12
M  V30 12 1 12 13
M  V30 13 1 13 14
M  V30 14 1 13 15
M  V30 15 1 14 16
M  V30 16 1 15 17
M  V30 17 1 16 18
M  V30 18 1 18 19
M  V30 19 1 18 20
M  V30 20 2 20 21
M  V30 21 1 20 22
M  V30 22 1 21 23
M  V30 23 2 22 24
M  V30 24 2 23 25
M  V30 25 1 6 7
M  V30 26 1 17 18
M  V30 27 1 24 25
M  V30 28 1 3 26
M  V30 29 1 4 27
M  V30 30 1 5 28
M  V30 31 1 6 29
M  V30 32 1 10 30
M  V30 33 1 10 31
M  V30 34 1 11 32
M  V30 35 1 11 33
M  V30 36 1 12 34
M  V30 37 1 12 35
M  V30 38 1 13 36
M  V30 39 1 14 37
M  V30 40 1 14 38
M  V30 41 1 15 39
M  V30 42 1 15 40
M  V30 43 1 16 41
M  V30 44 1 16 42
M  V30 45 1 17 43
M  V30 46 1 17 44
M  V30 47 1 19 45
M  V30 48 1 21 46
M  V30 49 1 22 47
M  V30 50 1 23 48
M  V30 51 1 24 49
M  V30 52 1 25 50
M  V30 END BOND
M  V30 BEGIN COLLECTION
M  V30 MDLV30/STEABS ATOMS=(2 13 18)
M  V30 END COLLECTION
M  V30 END CTAB
M  END
>  <Structure No>
4461

>  <LogS>
-4.1183

>  <MMFF94 Energy>
42.372

$$$$
Compound 4462
Actelion Java MolfileCreator 2.0

  0  0  0  0  0  0              0 V3000
M  V30 BEGIN CTAB
M  V30 COUNTS 24 23 0 0 0
M  V30 BEGIN ATOM
M  V30 1 O 3.3926 1.2326 -0.308 0
M  V30 2 C 2.3384 0.3483 -0.575 0
M  V30 3 C 1.5133 0.1082 0.6959 0
M  V30 4 C 0.3082 -0.8326 0.4509 0
M  V30 5 C -1.0827 -0.1416 0.3022 0
M  V30 6 C -2.122 -1.2238 -0.0613 0
M  V30 7 C -1.07 0.9165 -0.8193 0
M  V30 8 C -1.5173 0.5166 1.6307 0
M  V30 9 H 4.0835 0.7127 0.1798 0
M  V30 10 H 2.7367 -0.6165 -0.9641 0
M  V30 11 H 1.7017 0.7947 -1.3651 0
M  V30 12 H 2.1806 -0.3635 1.4501 0
M  V30 13 H 1.1991 1.0839 1.1166 0
M  V30 14 H 0.5067 -1.4635 -0.4443 0
M  V30 15 H 0.2521 -1.5436 1.3054 0
M  V30 16 H -1.8601 -1.7134 -1.0241 0
M  V30 17 H -3.1365 -0.7809 -0.1656 0
M  V30 18 H -2.1657 -2.0066 0.7267 0
M  V30 19 H -0.7302 0.4661 -1.7766 0
M  V30 20 H -2.0888 1.3329 -0.9747 0
M  V30 21 H -0.3997 1.7639 -0.5646 0
M  V30 22 H -2.556 0.9047 1.5516 0
M  V30 23 H -0.8669 1.3736 1.8985 0
M  V30 24 H -1.4867 -0.2203 2.462 0
M  V30 END ATOM
M  V30 BEGIN BOND
M  V30 1 1 1 2
M  V30 2 1 2 3
M  V30 3 1 3 4
M  V30 4 1 4 5
M  V30 5 1 5 6
M  V30 6 1 5 7
M  V30 7 1 5 8
M  V30 8 1 1 9
M  V30 9 1 2 10
M  V30 10 1 2 11
M  V30 11 1 3 12
M  V30 12 1 3 13
M  V30 13 1 4 14
M  V30 14 1 4 15
M  V30 15 1 6 16
M  V30 16 1 6 17
M  V30 17 1 6 18
M  V30 18 1 7 19
M  V30 19 1 7 20
M  V30 20 1 7 21
M  V30 21 1 8 22
M  V30 22 1 8 23
M  V30 23 1 8 24
M  V30 END BOND
M  V30 END CTAB
M  END
>  <Structure No>
4462

>  <LogS>
-1.5402

>  <MMFF94 Energy>
13.152

$$$$
Compound 4463
Actelion Java MolfileCreator 2.0

  0  0  0  0  0  0              0 V3000
M  V30 BEGIN CTAB
M  V30 COUNTS 20 19 0 0 0
M  V30 BEGIN ATOM
M  V30 1 O -1.74 -0.6324 -1.9774 0
M  V30 2 C -2.1723 -0.3886 -0.8186 0
M  V30 3 N -1.2707 -0.3194 0.2948 0
M  V30 4 N -3.5694 -0.1799 -0.619 0
M  V30 5 C 0.1796 -0.4615 0.1401 0 CFG=2
M  V30 6 C 0.779 -0.9685 1.4246 0
M  V30 7 C 0.7933 0.8894 -0.2652 0
M  V30 8 O 1.355 -2.0878 1.4554 0
M  V30 9 O 0.6962 -0.2093 2.586 0 CHG=-1
M  V30 10 C 2.2547 0.7593 -0.5831 0
M  V30 11 O 3.1154 1.084 0.2775 0
M  V30 12 N 2.6752 0.2364 -1.8428 0
M  V30 13 H -1.6619 -0.0579 1.2285 0
M  V30 14 H -4.2306 -0.2279 -1.4256 0
M  V30 15 H -3.9459 0.0222 0.3334 0
M  V30 16 H 0.3875 -1.2074 -0.6603 0
M  V30 17 H 0.2711 1.2772 -1.1662 0
M  V30 18 H 0.6467 1.636 0.5462 0
M  V30 19 H 3.6915 0.1339 -2.0582 0
M  V30 20 H 1.9732 -0.0519 -2.5599 0
M  V30 END ATOM
M  V30 BEGIN BOND
M  V30 1 2 1 2
M  V30 2 1 2 3
M  V30 3 1 2 4
M  V30 4 1 3 5
M  V30 5 1 5 6
M  V30 6 1 5 7
M  V30 7 2 6 8
M  V30 8 1 6 9
M  V30 9 1 7 10
M  V30 10 2 10 11
M  V30 11 1 10 12
M  V30 12 1 3 13
M  V30 13 1 4 14
M  V30 14 1 4 15
M  V30 15 1 5 16
M  V30 16 1 7 17
M  V30 17 1 7 18
M  V30 18 1 12 19
M  V30 19 1 12 20
M  V30 END BOND
M  V30 BEGIN COLLECTION
M  V30 MDLV30/STEABS ATOMS=(1 5)
M  V30 END COLLECTION
M  V30 END CTAB
M  END
>  <Structure No>
4463

>  <LogS>
-0.511

>  <MMFF94 Energy>
-97.168

$$$$
Compound 4464
Actelion Java MolfileCreator 2.0

  0  0  0  0  0  0              0 V3000
M  V30 BEGIN CTAB
M  V30 COUNTS 36 37 0 0 0
M  V30 BEGIN ATOM
M  V30 1 Cl -5.5661 -1.9618 0.4084 0
M  V30 2 C -3.8484 -2.2924 0.5887 0
M  V30 3 C -3.3909 -3.5424 1.0369 0
M  V30 4 C -2.9283 -1.2853 0.2747 0
M  V30 5 Cl -4.5137 -4.8334 1.4425 0
M  V30 6 C -2.0176 -3.7731 1.1662 0
M  V30 7 C -1.5464 -1.5124 0.4022 0
M  V30 8 C -1.1006 -2.7672 0.8518 0
M  V30 9 N -0.6008 -0.4713 0.0785 0
M  V30 10 C -0.8847 0.8917 0.4525 0
M  V30 11 C 0.6234 -0.8013 -0.6085 0
M  V30 12 O -1.3891 1.127 1.585 0
M  V30 13 N -0.6031 1.9861 -0.4411 0
M  V30 14 O 0.6041 -1.681 -1.5124 0
M  V30 15 C 1.9033 -0.1273 -0.2824 0
M  V30 16 C -0.3688 3.3208 0.114 0
M  V30 17 C -0.6416 1.7892 -1.8928 0
M  V30 18 C 2.8976 0.0131 -1.267 0
M  V30 19 C 2.1526 0.3594 1.0137 0
M  V30 20 C 4.1049 0.6514 -0.9667 0
M  V30 21 C 3.3613 0.9971 1.3089 0
M  V30 22 C 4.3353 1.1458 0.3192 0
M  V30 23 H -3.2898 -0.3287 -0.0816 0
M  V30 24 H -1.6584 -4.7333 1.514 0
M  V30 25 H -0.0426 -2.9626 0.9717 0
M  V30 26 H -1.2834 3.6797 0.6315 0
M  V30 27 H -0.1011 4.0496 -0.6798 0
M  V30 28 H 0.4709 3.2795 0.8398 0
M  V30 29 H 0.3235 1.374 -2.246 0
M  V30 30 H -1.4661 1.095 -2.1623 0
M  V30 31 H -0.8231 2.7487 -2.4214 0
M  V30 32 H 2.7344 -0.3565 -2.2717 0
M  V30 33 H 1.4222 0.2339 1.8025 0
M  V30 34 H 4.8617 0.7638 -1.7321 0
M  V30 35 H 3.5448 1.3712 2.3079 0
M  V30 36 H 5.2705 1.6392 0.5499 0
M  V30 END ATOM
M  V30 BEGIN BOND
M  V30 1 1 1 2
M  V30 2 2 2 3
M  V30 3 1 2 4
M  V30 4 1 3 5
M  V30 5 1 3 6
M  V30 6 2 4 7
M  V30 7 2 6 8
M  V30 8 1 7 9
M  V30 9 1 9 10
M  V30 10 1 9 11
M  V30 11 2 10 12
M  V30 12 1 10 13
M  V30 13 2 11 14
M  V30 14 1 11 15
M  V30 15 1 13 16
M  V30 16 1 13 17
M  V30 17 2 15 18
M  V30 18 1 15 19
M  V30 19 1 18 20
M  V30 20 2 19 21
M  V30 21 2 20 22
M  V30 22 1 7 8
M  V30 23 1 21 22
M  V30 24 1 4 23
M  V30 25 1 6 24
M  V30 26 1 8 25
M  V30 27 1 16 26
M  V30 28 1 16 27
M  V30 29 1 16 28
M  V30 30 1 17 29
M  V30 31 1 17 30
M  V30 32 1 17 31
M  V30 33 1 18 32
M  V30 34 1 19 33
M  V30 35 1 20 34
M  V30 36 1 21 35
M  V30 37 1 22 36
M  V30 END BOND
M  V30 END CTAB
M  END
>  <Structure No>
4464

>  <LogS>
-4.3238

>  <MMFF94 Energy>
38.901

$$$$
Compound 4465
Actelion Java MolfileCreator 2.0

  0  0  0  0  0  0              0 V3000
M  V30 BEGIN CTAB
M  V30 COUNTS 8 7 0 0 0
M  V30 BEGIN ATOM
M  V30 1 Cl 2.7318 0.1605 -0.3211 0
M  V30 2 N 1.0731 -0.3712 -0.3038 0
M  V30 3 C 0.0253 0.4825 0.16 0
M  V30 4 O 0.289 1.6451 0.5676 0
M  V30 5 N -1.3248 0.0217 0.1633 0
M  V30 6 H 0.8527 -1.3342 -0.6413 0
M  V30 7 H -2.0937 0.6422 0.5014 0
M  V30 8 H -1.5585 -0.9391 -0.1714 0
M  V30 END ATOM
M  V30 BEGIN BOND
M  V30 1 1 1 2
M  V30 2 1 2 3
M  V30 3 2 3 4
M  V30 4 1 3 5
M  V30 5 1 2 6
M  V30 6 1 5 7
M  V30 7 1 5 8
M  V30 END BOND
M  V30 END CTAB
M  END
>  <Structure No>
4465

>  <LogS>
0.3256

>  <MMFF94 Energy>
-65.55

$$$$
Compound 4466
Actelion Java MolfileCreator 2.0

  0  0  0  0  0  0              0 V3000
M  V30 BEGIN CTAB
M  V30 COUNTS 36 35 0 0 0
M  V30 BEGIN ATOM
M  V30 1 O 1.2547 -1.49 -0.2351 0
M  V30 2 C 0.47 -0.5286 -0.4641 0
M  V30 3 N 0.697 0.3326 -1.5897 0
M  V30 4 C -0.7334 -0.3167 0.4225 0 CFG=2
M  V30 5 C 1.895 0.2341 -2.4195 0
M  V30 6 N -0.3537 -0.4459 1.8372 0 CHG=1
M  V30 7 C -1.8398 -1.3246 0.0265 0
M  V30 8 C 3.1014 0.6482 -1.6338 0
M  V30 9 C -3.1598 -1.1962 0.8256 0
M  V30 10 O 4.0377 -0.1758 -1.4489 0
M  V30 11 N 3.1792 1.9704 -1.0831 0
M  V30 12 C -3.8188 0.1792 0.6409 0
M  V30 13 C -4.1351 -2.3006 0.3965 0
M  V30 14 C 4.2522 2.3808 -0.1818 0
M  V30 15 C 4.0929 1.712 1.1466 0
M  V30 16 O 3.1581 2.0538 1.9183 0
M  V30 17 O 4.9545 0.6884 1.52 0 CHG=-1
M  V30 18 H -0.0091 1.0672 -1.822 0
M  V30 19 H -1.1024 0.7174 0.2491 0
M  V30 20 H 2.0063 -0.8062 -2.7957 0
M  V30 21 H 1.7941 0.9066 -3.2983 0
M  V30 22 H 0.4969 0.1315 2.0328 0
M  V30 23 H -1.121 -0.0877 2.4494 0
M  V30 24 H -0.153 -1.4438 2.0795 0
M  V30 25 H -1.4423 -2.3557 0.1599 0
M  V30 26 H -2.0639 -1.1993 -1.057 0
M  V30 27 H -2.954 -1.3474 1.907 0
M  V30 28 H 2.4289 2.6609 -1.3134 0
M  V30 29 H -3.9435 0.4137 -0.438 0
M  V30 30 H -3.2085 0.9728 1.1189 0
M  V30 31 H -4.8173 0.1974 1.1279 0
M  V30 32 H -4.3956 -2.1979 -0.679 0
M  V30 33 H -3.6808 -3.3009 0.5618 0
M  V30 34 H -5.0684 -2.2458 0.9976 0
M  V30 35 H 5.239 2.1305 -0.6276 0
M  V30 36 H 4.2127 3.4822 -0.0366 0
M  V30 END ATOM
M  V30 BEGIN BOND
M  V30 1 2 1 2
M  V30 2 1 2 3
M  V30 3 1 2 4
M  V30 4 1 3 5
M  V30 5 1 4 6
M  V30 6 1 4 7
M  V30 7 1 5 8
M  V30 8 1 7 9
M  V30 9 2 8 10
M  V30 10 1 8 11
M  V30 11 1 9 12
M  V30 12 1 9 13
M  V30 13 1 11 14
M  V30 14 1 14 15
M  V30 15 2 15 16
M  V30 16 1 15 17
M  V30 17 1 3 18
M  V30 18 1 4 19
M  V30 19 1 5 20
M  V30 20 1 5 21
M  V30 21 1 6 22
M  V30 22 1 6 23
M  V30 23 1 6 24
M  V30 24 1 7 25
M  V30 25 1 7 26
M  V30 26 1 9 27
M  V30 27 1 11 28
M  V30 28 1 12 29
M  V30 29 1 12 30
M  V30 30 1 12 31
M  V30 31 1 13 32
M  V30 32 1 13 33
M  V30 33 1 13 34
M  V30 34 1 14 35
M  V30 35 1 14 36
M  V30 END BOND
M  V30 BEGIN COLLECTION
M  V30 MDLV30/STEABS ATOMS=(1 4)
M  V30 END COLLECTION
M  V30 END CTAB
M  END
>  <Structure No>
4466

>  <LogS>
0.2124

>  <MMFF94 Energy>
-23.572

$$$$
Compound 4467
Actelion Java MolfileCreator 2.0

  0  0  0  0  0  0              0 V3000
M  V30 BEGIN CTAB
M  V30 COUNTS 28 27 0 0 0
M  V30 BEGIN ATOM
M  V30 1 O -3.7577 -1.0948 0.6255 0
M  V30 2 C -2.9718 -0.2008 0.895 0
M  V30 3 C -2.2379 0.5327 -0.1994 0 CFG=1
M  V30 4 O -1.6399 1.6908 0.3205 0
M  V30 5 C -1.1717 -0.3429 -0.9149 0 CFG=2
M  V30 6 O -1.8139 -1.236 -1.7935 0
M  V30 7 C -0.1833 -1.1217 0.0249 0 CFG=1
M  V30 8 O 0.5613 -2.0893 -0.68 0
M  V30 9 C 0.7703 -0.2613 0.9059 0 CFG=2
M  V30 10 O 0.0303 0.288 1.9682 0
M  V30 11 C 1.5547 0.876 0.1807 0 CFG=1
M  V30 12 O 2.31 1.6101 1.1132 0
M  V30 13 C 2.4733 0.4019 -0.9605 0
M  V30 14 O 3.2815 -0.6636 -0.5416 0
M  V30 15 H -2.8242 0.0801 1.9329 0
M  V30 16 H -2.9872 0.8407 -0.9664 0
M  V30 17 H -2.3709 2.3364 0.509 0
M  V30 18 H -0.5747 0.3341 -1.5598 0
M  V30 19 H -2.2327 -1.9519 -1.2493 0
M  V30 20 H -0.8073 -1.7068 0.7344 0
M  V30 21 H 0.7233 -1.7684 -1.6028 0
M  V30 22 H 1.5188 -0.9704 1.335 0
M  V30 23 H 0.649 0.4011 2.7366 0
M  V30 24 H 0.8291 1.5879 -0.2601 0
M  V30 25 H 2.9686 0.9895 1.5224 0
M  V30 26 H 1.8703 0.1086 -1.8443 0
M  V30 27 H 3.1184 1.2514 -1.2789 0
M  V30 28 H 3.8238 -0.9244 -1.3306 0
M  V30 END ATOM
M  V30 BEGIN BOND
M  V30 1 2 1 2
M  V30 2 1 2 3
M  V30 3 1 3 4
M  V30 4 1 3 5
M  V30 5 1 5 6
M  V30 6 1 5 7
M  V30 7 1 7 8
M  V30 8 1 7 9
M  V30 9 1 9 10
M  V30 10 1 9 11
M  V30 11 1 11 12
M  V30 12 1 11 13
M  V30 13 1 13 14
M  V30 14 1 2 15
M  V30 15 1 3 16
M  V30 16 1 4 17
M  V30 17 1 5 18
M  V30 18 1 6 19
M  V30 19 1 7 20
M  V30 20 1 8 21
M  V30 21 1 9 22
M  V30 22 1 10 23
M  V30 23 1 11 24
M  V30 24 1 12 25
M  V30 25 1 13 26
M  V30 26 1 13 27
M  V30 27 1 14 28
M  V30 END BOND
M  V30 BEGIN COLLECTION
M  V30 MDLV30/STEABS ATOMS=(5 3 5 7 9 11)
M  V30 END COLLECTION
M  V30 END CTAB
M  END
>  <Structure No>
4467

>  <LogS>
-0.3226

>  <MMFF94 Energy>
109.22

$$$$
Compound 4468
Actelion Java MolfileCreator 2.0

  0  0  0  0  0  0              0 V3000
M  V30 BEGIN CTAB
M  V30 COUNTS 27 28 0 0 0
M  V30 BEGIN ATOM
M  V30 1 O -4.1238 -2.5859 1.2115 0
M  V30 2 C -4.4951 -1.5903 0.5343 0
M  V30 3 O -5.8556 -1.4008 0.3225 0 CHG=-1
M  V30 4 C -3.4924 -0.6445 -0.0217 0
M  V30 5 C -3.8771 0.4814 -0.7854 0
M  V30 6 C -2.1213 -0.869 0.2138 0
M  V30 7 O -5.2225 0.7435 -1.0439 0
M  V30 8 C -2.8998 1.3496 -1.2922 0
M  V30 9 C -1.1494 1.0E-4 -0.2938 0
M  V30 10 C -1.5465 1.1134 -1.05 0
M  V30 11 N 0.2314 -0.2723 -0.0261 0
M  V30 12 N 1.1664 0.4761 -0.457 0
M  V30 13 C 2.5468 0.2026 -0.1887 0
M  V30 14 C 3.5216 1.0719 -0.6963 0
M  V30 15 C 2.9453 -0.9142 0.5699 0
M  V30 16 C 4.8776 0.8323 -0.4519 0
M  V30 17 C 4.3026 -1.1504 0.8122 0
M  V30 18 C 5.2679 -0.2779 0.3019 0
M  V30 19 H -1.7985 -1.7241 0.7958 0
M  V30 20 H -5.5142 1.5463 -1.5894 0
M  V30 21 H -3.1905 2.213 -1.8774 0
M  V30 22 H -0.8131 1.8 -1.4533 0
M  V30 23 H 3.2283 1.9347 -1.2814 0
M  V30 24 H 2.212 -1.6008 0.9733 0
M  V30 25 H 5.6257 1.5076 -0.8467 0
M  V30 26 H 4.6058 -2.01 1.3959 0
M  V30 27 H 6.3176 -0.4621 0.4904 0
M  V30 END ATOM
M  V30 BEGIN BOND
M  V30 1 2 1 2
M  V30 2 1 2 3
M  V30 3 1 2 4
M  V30 4 2 4 5
M  V30 5 1 4 6
M  V30 6 1 5 7
M  V30 7 1 5 8
M  V30 8 2 6 9
M  V30 9 2 8 10
M  V30 10 1 9 11
M  V30 11 2 11 12
M  V30 12 1 12 13
M  V30 13 2 13 14
M  V30 14 1 13 15
M  V30 15 1 14 16
M  V30 16 2 15 17
M  V30 17 2 16 18
M  V30 18 1 9 10
M  V30 19 1 17 18
M  V30 20 1 6 19
M  V30 21 1 7 20
M  V30 22 1 8 21
M  V30 23 1 10 22
M  V30 24 1 14 23
M  V30 25 1 15 24
M  V30 26 1 16 25
M  V30 27 1 17 26
M  V30 28 1 18 27
M  V30 END BOND
M  V30 END CTAB
M  END
>  <Structure No>
4468

>  <LogS>
-3.0559

>  <MMFF94 Energy>
29.486

$$$$
Compound 4469
Actelion Java MolfileCreator 2.0

  0  0  0  0  0  0              0 V3000
M  V30 BEGIN CTAB
M  V30 COUNTS 26 26 0 0 0
M  V30 BEGIN ATOM
M  V30 1 O -5.3726 -1.281 -0.8805 0
M  V30 2 C -5.0108 -0.1208 -0.5512 0
M  V30 3 O -5.5278 0.9786 -1.2246 0 CHG=-1
M  V30 4 C -3.9886 0.0724 0.5239 0
M  V30 5 C -2.5759 0.0859 -0.0742 0
M  V30 6 C -1.4937 0.2608 0.9667 0
M  V30 7 O -1.8154 0.5242 2.159 0
M  V30 8 C -0.0521 0.1496 0.6116 0
M  V30 9 C 0.9273 0.1996 1.6212 0
M  V30 10 C 0.3661 -0.0019 -0.7247 0
M  V30 11 C 2.2851 0.0974 1.3053 0
M  V30 12 C 1.7245 -0.1037 -1.0375 0
M  V30 13 C 2.6936 -0.0557 -0.0313 0
M  V30 14 O 4.0429 -0.1627 -0.3991 0
M  V30 15 C 5.1312 -0.1296 0.5186 0
M  V30 16 H -4.0766 -0.7499 1.2676 0
M  V30 17 H -4.1891 1.0357 1.0413 0
M  V30 18 H -2.5001 0.9179 -0.8077 0
M  V30 19 H -2.4061 -0.8754 -0.6065 0
M  V30 20 H 0.6456 0.3147 2.6604 0
M  V30 21 H -0.348 -0.0368 -1.5359 0
M  V30 22 H 3.0083 0.1385 2.1084 0
M  V30 23 H 2.0264 -0.2191 -2.0709 0
M  V30 24 H 5.0486 -0.9705 1.2392 0
M  V30 25 H 6.082 -0.2349 -0.0427 0
M  V30 26 H 5.1438 0.8391 1.0611 0
M  V30 END ATOM
M  V30 BEGIN BOND
M  V30 1 2 1 2
M  V30 2 1 2 3
M  V30 3 1 2 4
M  V30 4 1 4 5
M  V30 5 1 5 6
M  V30 6 2 6 7
M  V30 7 1 6 8
M  V30 8 2 8 9
M  V30 9 1 8 10
M  V30 10 1 9 11
M  V30 11 2 10 12
M  V30 12 2 11 13
M  V30 13 1 13 14
M  V30 14 1 14 15
M  V30 15 1 12 13
M  V30 16 1 4 16
M  V30 17 1 4 17
M  V30 18 1 5 18
M  V30 19 1 5 19
M  V30 20 1 9 20
M  V30 21 1 10 21
M  V30 22 1 11 22
M  V30 23 1 12 23
M  V30 24 1 15 24
M  V30 25 1 15 25
M  V30 26 1 15 26
M  V30 END BOND
M  V30 END CTAB
M  END
>  <Structure No>
4469

>  <LogS>
-1.0632

>  <MMFF94 Energy>
33.317

$$$$
Compound 4470
Actelion Java MolfileCreator 2.0

  0  0  0  0  0  0              0 V3000
M  V30 BEGIN CTAB
M  V30 COUNTS 21 20 0 0 0
M  V30 BEGIN ATOM
M  V30 1 O -0.0773 -0.2321 2.8662 0
M  V30 2 C -0.3414 -0.8049 1.7765 0
M  V30 3 O -0.4336 -2.191 1.7349 0 CHG=-1
M  V30 4 C -0.5996 0.0076 0.5401 0 CFG=1
M  V30 5 N 0.1128 -0.5862 -0.5985 0
M  V30 6 C -2.116 0.0653 0.2731 0
M  V30 7 C 1.5327 -0.4984 -0.8079 0
M  V30 8 C -2.4618 1.0293 -0.8615 0
M  V30 9 N 2.3272 0.0982 0.0326 0 CHG=1
M  V30 10 N 3.7083 0.1606 -0.2072 0
M  V30 11 H -0.2432 1.05 0.6978 0
M  V30 12 H -0.4281 -1.1338 -1.3057 0
M  V30 13 H -2.6403 0.4117 1.1913 0
M  V30 14 H -2.5003 -0.948 0.0232 0
M  V30 15 H 1.9441 -0.9557 -1.7 0
M  V30 16 H -2.1076 2.0538 -0.6191 0
M  V30 17 H -1.9988 0.698 -1.8144 0
M  V30 18 H -3.5633 1.0596 -0.9986 0
M  V30 19 H 1.963 0.5389 0.9045 0
M  V30 20 H 4.1327 -0.264 -1.0627 0
M  V30 21 H 4.3332 0.64 0.4779 0
M  V30 END ATOM
M  V30 BEGIN BOND
M  V30 1 2 1 2
M  V30 2 1 2 3
M  V30 3 1 2 4
M  V30 4 1 4 5
M  V30 5 1 4 6
M  V30 6 1 5 7
M  V30 7 1 6 8
M  V30 8 2 7 9
M  V30 9 1 9 10
M  V30 10 1 4 11
M  V30 11 1 5 12
M  V30 12 1 6 13
M  V30 13 1 6 14
M  V30 14 1 7 15
M  V30 15 1 8 16
M  V30 16 1 8 17
M  V30 17 1 8 18
M  V30 18 1 9 19
M  V30 19 1 10 20
M  V30 20 1 10 21
M  V30 END BOND
M  V30 BEGIN COLLECTION
M  V30 MDLV30/STEABS ATOMS=(1 4)
M  V30 END COLLECTION
M  V30 END CTAB
M  END
>  <Structure No>
4470

>  <LogS>
-0.8608

>  <MMFF94 Energy>
68.47

$$$$
Compound 4471
Actelion Java MolfileCreator 2.0

  0  0  0  0  0  0              0 V3000
M  V30 BEGIN CTAB
M  V30 COUNTS 27 26 0 0 0
M  V30 BEGIN ATOM
M  V30 1 O -0.1555 -0.778 -2.0239 0
M  V30 2 C -0.666 -0.1152 -1.0787 0
M  V30 3 O 0.0407 0.9412 -0.4896 0
M  V30 4 C -2.0189 -0.5065 -0.5281 0
M  V30 5 C 1.3872 1.2829 -0.8214 0
M  V30 6 O -2.7286 -1.2748 -1.4714 0
M  V30 7 C -2.8373 0.7471 -0.1647 0
M  V30 8 C -1.8077 -1.3636 0.7257 0
M  V30 9 C 2.3961 0.5893 0.1141 0
M  V30 10 C 2.1306 0.9482 1.5816 0
M  V30 11 C 2.4061 -0.9318 -0.0772 0
M  V30 12 H 1.6097 1.046 -1.8848 0
M  V30 13 H 1.5008 2.3825 -0.7104 0
M  V30 14 H -2.87 -0.7122 -2.2785 0
M  V30 15 H -3.8518 0.4551 0.1825 0
M  V30 16 H -2.9493 1.4076 -1.0514 0
M  V30 17 H -2.3421 1.3255 0.645 0
M  V30 18 H -1.2319 -2.2803 0.473 0
M  V30 19 H -2.7866 -1.6748 1.15 0
M  V30 20 H -1.248 -0.7977 1.5021 0
M  V30 21 H 3.4089 0.9666 -0.1493 0
M  V30 22 H 2.1546 2.0505 1.717 0
M  V30 23 H 1.1391 0.5677 1.9088 0
M  V30 24 H 2.9143 0.503 2.2309 0
M  V30 25 H 3.2313 -1.3818 0.5147 0
M  V30 26 H 1.4488 -1.3822 0.2597 0
M  V30 27 H 2.5718 -1.1843 -1.1461 0
M  V30 END ATOM
M  V30 BEGIN BOND
M  V30 1 2 1 2
M  V30 2 1 2 3
M  V30 3 1 2 4
M  V30 4 1 3 5
M  V30 5 1 4 6
M  V30 6 1 4 7
M  V30 7 1 4 8
M  V30 8 1 5 9
M  V30 9 1 9 10
M  V30 10 1 9 11
M  V30 11 1 5 12
M  V30 12 1 5 13
M  V30 13 1 6 14
M  V30 14 1 7 15
M  V30 15 1 7 16
M  V30 16 1 7 17
M  V30 17 1 8 18
M  V30 18 1 8 19
M  V30 19 1 8 20
M  V30 20 1 9 21
M  V30 21 1 10 22
M  V30 22 1 10 23
M  V30 23 1 10 24
M  V30 24 1 11 25
M  V30 25 1 11 26
M  V30 26 1 11 27
M  V30 END BOND
M  V30 END CTAB
M  END
>  <Structure No>
4471

>  <LogS>
-0.7276

>  <MMFF94 Energy>
34.053

$$$$
Compound 4472
Actelion Java MolfileCreator 2.0

  0  0  0  0  0  0              0 V3000
M  V30 BEGIN CTAB
M  V30 COUNTS 28 29 0 0 0
M  V30 BEGIN ATOM
M  V30 1 O 0.2397 -1.2789 -2.1589 0
M  V30 2 C 0.1704 -0.6436 -1.0712 0
M  V30 3 N -1.1206 -0.3556 -0.5041 0
M  V30 4 C 1.4171 -0.1658 -0.4258 0
M  V30 5 C -1.3758 -0.5864 0.9244 0
M  V30 6 C -2.251 -0.0956 -1.4017 0
M  V30 7 C 2.6175 -0.9029 -0.5184 0
M  V30 8 C 1.4178 1.0597 0.2655 0
M  V30 9 C -2.4361 0.3991 1.4712 0
M  V30 10 C -3.4853 0.316 -0.5981 0
M  V30 11 O 2.6467 -2.124 -1.1924 0
M  V30 12 C 3.7866 -0.4123 0.0827 0
M  V30 13 C 2.5869 1.5367 0.8632 0
M  V30 14 O -3.0905 1.1558 0.4654 0
M  V30 15 C 3.7695 0.8018 0.7723 0
M  V30 16 H -1.7473 -1.6265 1.0498 0
M  V30 17 H -0.4444 -0.5005 1.523 0
M  V30 18 H -1.9807 0.7341 -2.0909 0
M  V30 19 H -2.478 -1.0015 -2.0042 0
M  V30 20 H 0.5148 1.6543 0.3336 0
M  V30 21 H -1.9344 1.1133 2.1581 0
M  V30 22 H -3.1905 -0.1501 2.0772 0
M  V30 23 H -4.1823 0.8743 -1.2584 0
M  V30 24 H -4.0326 -0.5821 -0.2275 0
M  V30 25 H 3.4969 -2.6703 -1.2662 0
M  V30 26 H 4.7095 -0.9745 0.0184 0
M  V30 27 H 2.5766 2.4803 1.3934 0
M  V30 28 H 4.6745 1.1741 1.2349 0
M  V30 END ATOM
M  V30 BEGIN BOND
M  V30 1 2 1 2
M  V30 2 1 2 3
M  V30 3 1 2 4
M  V30 4 1 3 5
M  V30 5 1 3 6
M  V30 6 2 4 7
M  V30 7 1 4 8
M  V30 8 1 5 9
M  V30 9 1 6 10
M  V30 10 1 7 11
M  V30 11 1 7 12
M  V30 12 2 8 13
M  V30 13 1 9 14
M  V30 14 2 12 15
M  V30 15 1 10 14
M  V30 16 1 13 15
M  V30 17 1 5 16
M  V30 18 1 5 17
M  V30 19 1 6 18
M  V30 20 1 6 19
M  V30 21 1 8 20
M  V30 22 1 9 21
M  V30 23 1 9 22
M  V30 24 1 10 23
M  V30 25 1 10 24
M  V30 26 1 11 25
M  V30 27 1 12 26
M  V30 28 1 13 27
M  V30 29 1 15 28
M  V30 END BOND
M  V30 END CTAB
M  END
>  <Structure No>
4472

>  <LogS>
-1.7037

>  <MMFF94 Energy>
67.355

$$$$
Compound 4473
Actelion Java MolfileCreator 2.0

  0  0  0  0  0  0              0 V3000
M  V30 BEGIN CTAB
M  V30 COUNTS 14 14 0 0 0
M  V30 BEGIN ATOM
M  V30 1 Cl 1.5481 2.495 0.3438 0
M  V30 2 C 0.4342 1.133 0.1969 0
M  V30 3 C -0.9529 1.3802 0.2062 0
M  V30 4 C 0.9099 -0.19 0.0152 0
M  V30 5 Cl -1.594 3.0041 0.4286 0
M  V30 6 C -1.8546 0.3276 0.0273 0
M  V30 7 N 2.3158 -0.4999 0.0154 0 CHG=1
M  V30 8 C -0.0175 -1.2285 -0.1782 0
M  V30 9 C -1.3884 -0.9707 -0.1684 0
M  V30 10 O 3.1089 0.1271 0.7468 0
M  V30 11 O 2.7766 -1.6056 -0.6618 0 CHG=-1
M  V30 12 H -2.9207 0.5166 0.0336 0
M  V30 13 H 0.3205 -2.2468 -0.3205 0
M  V30 14 H -2.0917 -1.7812 -0.3104 0
M  V30 END ATOM
M  V30 BEGIN BOND
M  V30 1 1 1 2
M  V30 2 2 2 3
M  V30 3 1 2 4
M  V30 4 1 3 5
M  V30 5 1 3 6
M  V30 6 1 4 7
M  V30 7 2 4 8
M  V30 8 2 6 9
M  V30 9 2 7 10
M  V30 10 1 7 11
M  V30 11 1 8 9
M  V30 12 1 6 12
M  V30 13 1 8 13
M  V30 14 1 9 14
M  V30 END BOND
M  V30 END CTAB
M  END
>  <Structure No>
4473

>  <LogS>
-3.4881

>  <MMFF94 Energy>
37.247

$$$$
Compound 4474
Actelion Java MolfileCreator 2.0

  0  0  0  0  0  0              0 V3000
M  V30 BEGIN CTAB
M  V30 COUNTS 28 30 0 0 0
M  V30 BEGIN ATOM
M  V30 1 N -1.2834 -2.2467 -0.1603 0
M  V30 2 C -0.6572 -1.0397 -0.1015 0
M  V30 3 C -2.6343 -2.3606 -0.1191 0
M  V30 4 C 0.7452 -0.9776 -0.148 0
M  V30 5 C -1.4225 0.1476 0.0064 0
M  V30 6 C -3.4309 -1.2224 -0.0133 0
M  V30 7 N 1.4701 -2.1248 -0.2516 0
M  V30 8 C 1.4082 0.2728 -0.0875 0
M  V30 9 C -2.8358 0.0468 0.0507 0
M  V30 10 C -0.7546 1.3851 0.0657 0
M  V30 11 C 2.8255 -2.1189 -0.3003 0
M  V30 12 C 2.8247 0.2972 -0.137 0
M  V30 13 C 0.6391 1.4468 0.0195 0
M  V30 14 C -3.7195 1.2628 0.1649 0
M  V30 15 C 3.5237 -0.9147 -0.2443 0
M  V30 16 C 3.6032 1.5866 -0.0781 0
M  V30 17 H -3.0921 -3.3394 -0.1685 0
M  V30 18 H -4.5077 -1.334 0.018 0
M  V30 19 H -1.3 2.3158 0.1484 0
M  V30 20 H 3.3634 -3.0539 -0.3829 0
M  V30 21 H 1.1045 2.4221 0.0685 0
M  V30 22 H -3.5536 1.9315 -0.7057 0
M  V30 23 H -4.796 0.9893 0.1854 0
M  V30 24 H -3.4881 1.8093 1.1033 0
M  V30 25 H 4.6059 -0.9309 -0.2844 0
M  V30 26 H 4.6986 1.4092 -0.1297 0
M  V30 27 H 3.3871 2.1134 0.8751 0
M  V30 28 H 3.3217 2.2356 -0.9339 0
M  V30 END ATOM
M  V30 BEGIN BOND
M  V30 1 1 1 2
M  V30 2 2 1 3
M  V30 3 2 2 4
M  V30 4 1 2 5
M  V30 5 1 3 6
M  V30 6 1 4 7
M  V30 7 1 4 8
M  V30 8 1 5 9
M  V30 9 2 5 10
M  V30 10 2 7 11
M  V30 11 1 8 12
M  V30 12 2 8 13
M  V30 13 1 9 14
M  V30 14 1 11 15
M  V30 15 1 12 16
M  V30 16 2 6 9
M  V30 17 1 10 13
M  V30 18 2 12 15
M  V30 19 1 3 17
M  V30 20 1 6 18
M  V30 21 1 10 19
M  V30 22 1 11 20
M  V30 23 1 13 21
M  V30 24 1 14 22
M  V30 25 1 14 23
M  V30 26 1 14 24
M  V30 27 1 15 25
M  V30 28 1 16 26
M  V30 29 1 16 27
M  V30 30 1 16 28
M  V30 END BOND
M  V30 END CTAB
M  END
>  <Structure No>
4474

>  <LogS>
-3.9686

>  <MMFF94 Energy>
98.99

$$$$
Compound 4475
Actelion Java MolfileCreator 2.0

  0  0  0  0  0  0              0 V3000
M  V30 BEGIN CTAB
M  V30 COUNTS 20 19 0 0 0
M  V30 BEGIN ATOM
M  V30 1 O -1.2552 1.7263 0.7059 0
M  V30 2 C -1.6211 0.5203 0.7323 0
M  V30 3 O -0.705 -0.4978 1.0174 0
M  V30 4 C -3.0489 0.1707 0.4589 0
M  V30 5 O 0.6527 -0.3132 1.0208 0
M  V30 6 C -3.2506 -0.1286 -1.0216 0
M  V30 7 C 1.3295 0.4469 0.0611 0
M  V30 8 O 0.7574 0.7863 -1.0097 0
M  V30 9 C 2.774 0.7743 0.2666 0
M  V30 10 C 3.6595 -0.3426 -0.2726 0
M  V30 11 H -3.7087 1.0133 0.7598 0
M  V30 12 H -3.3315 -0.7215 1.0576 0
M  V30 13 H -4.3139 -0.3896 -1.2065 0
M  V30 14 H -2.9912 0.7616 -1.6338 0
M  V30 15 H -2.6146 -0.9852 -1.3321 0
M  V30 16 H 3.0213 1.7263 -0.251 0
M  V30 17 H 2.97 0.9091 1.352 0
M  V30 18 H 3.4402 -1.2968 0.2529 0
M  V30 19 H 4.7264 -0.0831 -0.1076 0
M  V30 20 H 3.4906 -0.4764 -1.3626 0
M  V30 END ATOM
M  V30 BEGIN BOND
M  V30 1 2 1 2
M  V30 2 1 2 3
M  V30 3 1 2 4
M  V30 4 1 3 5
M  V30 5 1 4 6
M  V30 6 1 5 7
M  V30 7 2 7 8
M  V30 8 1 7 9
M  V30 9 1 9 10
M  V30 10 1 4 11
M  V30 11 1 4 12
M  V30 12 1 6 13
M  V30 13 1 6 14
M  V30 14 1 6 15
M  V30 15 1 9 16
M  V30 16 1 9 17
M  V30 17 1 10 18
M  V30 18 1 10 19
M  V30 19 1 10 20
M  V30 END BOND
M  V30 END CTAB
M  END
>  <Structure No>
4475

>  <LogS>
-0.9634

>  <MMFF94 Energy>
15.877

$$$$
Compound 4476
Actelion Java MolfileCreator 2.0

  0  0  0  0  0  0              0 V3000
M  V30 BEGIN CTAB
M  V30 COUNTS 21 21 0 0 0
M  V30 BEGIN ATOM
M  V30 1 Cl 4.5816 0.9804 -1.7162 0
M  V30 2 C 3.0352 0.457 -1.0744 0
M  V30 3 C 2.1622 1.3883 -0.5038 0
M  V30 4 C 2.6741 -0.892 -1.1306 0
M  V30 5 C 0.9288 0.9737 0.0088 0
M  V30 6 C 1.4416 -1.3093 -0.619 0
M  V30 7 C 0.5566 -0.385 -0.0487 0
M  V30 8 O -0.6665 -0.8634 0.4504 0
M  V30 9 C -1.7318 -0.0609 0.9657 0 CFG=2
M  V30 10 C -2.6782 -0.9376 1.7287 0
M  V30 11 C -2.4802 0.632 -0.1758 0
M  V30 12 O -3.0129 -2.0631 1.2726 0
M  V30 13 O -3.2278 -0.4911 2.9241 0 CHG=-1
M  V30 14 H 2.4387 2.434 -0.4557 0
M  V30 15 H 3.3465 -1.618 -1.5698 0
M  V30 16 H 0.2803 1.718 0.4475 0
M  V30 17 H 1.171 -2.3565 -0.6671 0
M  V30 18 H -1.33 0.6983 1.6706 0
M  V30 19 H -3.3186 1.2391 0.2284 0
M  V30 20 H -1.801 1.3084 -0.7337 0
M  V30 21 H -2.8866 -0.1206 -0.8852 0
M  V30 END ATOM
M  V30 BEGIN BOND
M  V30 1 1 1 2
M  V30 2 2 2 3
M  V30 3 1 2 4
M  V30 4 1 3 5
M  V30 5 2 4 6
M  V30 6 2 5 7
M  V30 7 1 7 8
M  V30 8 1 8 9
M  V30 9 1 9 10
M  V30 10 1 9 11
M  V30 11 2 10 12
M  V30 12 1 10 13
M  V30 13 1 6 7
M  V30 14 1 3 14
M  V30 15 1 4 15
M  V30 16 1 5 16
M  V30 17 1 6 17
M  V30 18 1 9 18
M  V30 19 1 11 19
M  V30 20 1 11 20
M  V30 21 1 11 21
M  V30 END BOND
M  V30 BEGIN COLLECTION
M  V30 MDLV30/STEABS ATOMS=(1 9)
M  V30 END COLLECTION
M  V30 END CTAB
M  END
>  <Structure No>
4476

>  <LogS>
-2.1351

>  <MMFF94 Energy>
67.151

$$$$
Compound 4477
Actelion Java MolfileCreator 2.0

  0  0  0  0  0  0              0 V3000
M  V30 BEGIN CTAB
M  V30 COUNTS 16 15 0 0 0
M  V30 BEGIN ATOM
M  V30 1 N 1.0481 -0.2993 -1.6474 0 CHG=1
M  V30 2 C 0.8216 0.1494 -0.4461 0
M  V30 3 N -0.452 -0.0831 0.2101 0
M  V30 4 N 1.8575 0.8869 0.2199 0
M  V30 5 C -1.4104 -1.0575 -0.3264 0
M  V30 6 C -0.7928 0.6534 1.4323 0
M  V30 7 H 1.9673 -0.1295 -2.1134 0
M  V30 8 H 0.3361 -0.8279 -2.1955 0
M  V30 9 H 1.753 1.2321 1.1981 0
M  V30 10 H 2.7653 1.0775 -0.2597 0
M  V30 11 H -2.2619 -1.2233 0.3665 0
M  V30 12 H -0.9081 -2.0365 -0.4771 0
M  V30 13 H -1.8196 -0.6919 -1.2915 0
M  V30 14 H -0.6661 1.7438 1.2631 0
M  V30 15 H -0.1376 0.324 2.2657 0
M  V30 16 H -1.8473 0.4838 1.7359 0
M  V30 END ATOM
M  V30 BEGIN BOND
M  V30 1 2 1 2
M  V30 2 1 2 3
M  V30 3 1 2 4
M  V30 4 1 3 5
M  V30 5 1 3 6
M  V30 6 1 1 7
M  V30 7 1 1 8
M  V30 8 1 4 9
M  V30 9 1 4 10
M  V30 10 1 5 11
M  V30 11 1 5 12
M  V30 12 1 5 13
M  V30 13 1 6 14
M  V30 14 1 6 15
M  V30 15 1 6 16
M  V30 END BOND
M  V30 END CTAB
M  END
>  <Structure No>
4477

>  <LogS>
-1.7306

>  <MMFF94 Energy>
-157.04

$$$$
Compound 4478
Actelion Java MolfileCreator 2.0

  0  0  0  0  0  0              0 V3000
M  V30 BEGIN CTAB
M  V30 COUNTS 22 23 0 0 0
M  V30 BEGIN ATOM
M  V30 1 O -0.8909 3.8109 0.0809 0
M  V30 2 C -1.1312 2.6265 -0.276 0
M  V30 3 O -2.3107 2.3562 -0.9592 0 CHG=-1
M  V30 4 C -0.1482 1.5482 -0.0117 0
M  V30 5 C -0.5564 0.1106 0.0449 0
M  V30 6 C 1.159 1.8575 0.0846 0
M  V30 7 C 0.4226 -0.8888 -0.1636 0
M  V30 8 C -1.8735 -0.2798 0.3549 0
M  V30 9 C 2.1983 0.7935 0.3143 0
M  V30 10 C 0.0593 -2.2437 -0.141 0
M  V30 11 C 1.8462 -0.4856 -0.4543 0
M  V30 12 C -2.2197 -1.6336 0.3929 0
M  V30 13 C -1.2585 -2.6124 0.1355 0
M  V30 14 H 1.4941 2.8827 -0.0215 0
M  V30 15 H -2.633 0.452 0.5926 0
M  V30 16 H 2.2447 0.5681 1.4021 0
M  V30 17 H 3.1945 1.1652 -0.0077 0
M  V30 18 H 0.798 -3.0133 -0.3282 0
M  V30 19 H 1.9564 -0.3092 -1.5463 0
M  V30 20 H 2.552 -1.2912 -0.1557 0
M  V30 21 H -3.2357 -1.9243 0.6276 0
M  V30 22 H -1.5329 -3.6591 0.1614 0
M  V30 END ATOM
M  V30 BEGIN BOND
M  V30 1 2 1 2
M  V30 2 1 2 3
M  V30 3 1 2 4
M  V30 4 1 4 5
M  V30 5 2 4 6
M  V30 6 2 5 7
M  V30 7 1 5 8
M  V30 8 1 6 9
M  V30 9 1 7 10
M  V30 10 1 7 11
M  V30 11 2 8 12
M  V30 12 2 10 13
M  V30 13 1 9 11
M  V30 14 1 12 13
M  V30 15 1 6 14
M  V30 16 1 8 15
M  V30 17 1 9 16
M  V30 18 1 9 17
M  V30 19 1 10 18
M  V30 20 1 11 19
M  V30 21 1 11 20
M  V30 22 1 12 21
M  V30 23 1 13 22
M  V30 END BOND
M  V30 END CTAB
M  END
>  <Structure No>
4478

>  <LogS>
-2.7939

>  <MMFF94 Energy>
53.104

$$$$
Compound 4479
Actelion Java MolfileCreator 2.0

  0  0  0  0  0  0              0 V3000
M  V30 BEGIN CTAB
M  V30 COUNTS 30 29 0 0 0
M  V30 BEGIN ATOM
M  V30 1 O 1.3237 -1.8692 -0.8563 0
M  V30 2 C 0.2207 -1.3481 -0.1553 0 CFG=2
M  V30 3 C -0.5461 -0.3752 -1.0999 0 CFG=1
M  V30 4 C 0.7034 -0.7568 1.2068 0 CFG=2
M  V30 5 O -0.768 -1.0005 -2.3415 0
M  V30 6 C -1.8833 0.162 -0.5186 0 CFG=2
M  V30 7 O -0.3582 -0.7713 2.1362 0
M  V30 8 C 1.4206 0.6313 1.1388 0 CFG=1
M  V30 9 O -2.7777 -0.8914 -0.2589 0
M  V30 10 C -2.5537 1.1713 -1.4627 0
M  V30 11 O 1.7396 1.0704 2.4374 0
M  V30 12 C 2.6933 0.6088 0.2733 0
M  V30 13 O -3.0322 0.5331 -2.6152 0
M  V30 14 O 3.3402 1.8491 0.353 0
M  V30 15 H 1.5658 -2.7314 -0.4268 0
M  V30 16 H -0.4697 -2.194 0.0754 0
M  V30 17 H 0.1072 0.4973 -1.3041 0
M  V30 18 H 1.4527 -1.474 1.6092 0
M  V30 19 H -1.3172 -1.8114 -2.1781 0
M  V30 20 H -1.671 0.7276 0.4135 0
M  V30 21 H -0.6636 0.1549 2.3124 0
M  V30 22 H 0.7241 1.3804 0.7076 0
M  V30 23 H -2.6288 -1.1796 0.6788 0
M  V30 24 H -3.4052 1.6506 -0.929 0
M  V30 25 H -1.8274 1.9678 -1.7416 0
M  V30 26 H 2.3652 0.4084 2.8337 0
M  V30 27 H 2.4316 0.4092 -0.7873 0
M  V30 28 H 3.3777 -0.193 0.6309 0
M  V30 29 H -3.4393 1.2445 -3.1748 0
M  V30 30 H 4.1566 1.7711 -0.2058 0
M  V30 END ATOM
M  V30 BEGIN BOND
M  V30 1 1 1 2
M  V30 2 1 2 3
M  V30 3 1 2 4
M  V30 4 1 3 5
M  V30 5 1 3 6
M  V30 6 1 4 7
M  V30 7 1 4 8
M  V30 8 1 6 9
M  V30 9 1 6 10
M  V30 10 1 8 11
M  V30 11 1 8 12
M  V30 12 1 10 13
M  V30 13 1 12 14
M  V30 14 1 1 15
M  V30 15 1 2 16
M  V30 16 1 3 17
M  V30 17 1 4 18
M  V30 18 1 5 19
M  V30 19 1 6 20
M  V30 20 1 7 21
M  V30 21 1 8 22
M  V30 22 1 9 23
M  V30 23 1 10 24
M  V30 24 1 10 25
M  V30 25 1 11 26
M  V30 26 1 12 27
M  V30 27 1 12 28
M  V30 28 1 13 29
M  V30 29 1 14 30
M  V30 END BOND
M  V30 BEGIN COLLECTION
M  V30 MDLV30/STEABS ATOMS=(5 2 3 4 6 8)
M  V30 END COLLECTION
M  V30 END CTAB
M  END
>  <Structure No>
4479

>  <LogS>
0.3722

>  <MMFF94 Energy>
108.61

$$$$
Compound 4480
Actelion Java MolfileCreator 2.0

  0  0  0  0  0  0              0 V3000
M  V30 BEGIN CTAB
M  V30 COUNTS 17 17 0 0 0
M  V30 BEGIN ATOM
M  V30 1 O 3.313 0.0 -0.0787 0
M  V30 2 N 2.2458 0.8593 -0.2545 0
M  V30 3 C 0.9944 0.5187 -0.1457 0
M  V30 4 C -0.0291 1.5756 -0.2745 0
M  V30 5 C 0.574 -0.8999 0.1827 0
M  V30 6 C -1.3185 1.3277 -0.0276 0
M  V30 7 C -0.9144 -1.1351 -0.1143 0
M  V30 8 C -1.7758 -0.0131 0.4737 0
M  V30 9 H 3.201 -0.9599 0.2211 0
M  V30 10 H 0.2672 2.5698 -0.5871 0
M  V30 11 H 1.1559 -1.6239 -0.4259 0
M  V30 12 H 0.7725 -1.0944 1.2587 0
M  V30 13 H -2.0456 2.1213 -0.1462 0
M  V30 14 H -1.0701 -1.1794 -1.2152 0
M  V30 15 H -1.2292 -2.11 0.3162 0
M  V30 16 H -2.8384 -0.1713 0.1914 0
M  V30 17 H -1.7024 -0.0292 1.5826 0
M  V30 END ATOM
M  V30 BEGIN BOND
M  V30 1 1 1 2
M  V30 2 2 2 3
M  V30 3 1 3 4
M  V30 4 1 3 5
M  V30 5 2 4 6
M  V30 6 1 5 7
M  V30 7 1 6 8
M  V30 8 1 7 8
M  V30 9 1 1 9
M  V30 10 1 4 10
M  V30 11 1 5 11
M  V30 12 1 5 12
M  V30 13 1 6 13
M  V30 14 1 7 14
M  V30 15 1 7 15
M  V30 16 1 8 16
M  V30 17 1 8 17
M  V30 END BOND
M  V30 END CTAB
M  END
>  <Structure No>
4480

>  <LogS>
-0.7034

>  <MMFF94 Energy>
22.739

$$$$
Compound 4481
Actelion Java MolfileCreator 2.0

  0  0  0  0  0  0              0 V3000
M  V30 BEGIN CTAB
M  V30 COUNTS 14 13 0 0 0
M  V30 BEGIN ATOM
M  V30 1 S 4.428 0.1578 -1.1055 0
M  V30 2 C 3.0444 0.5172 -0.3619 0
M  V30 3 N 1.9515 0.8003 0.2247 0
M  V30 4 C 0.6551 0.5269 -0.3859 0
M  V30 5 C -0.1457 -0.4187 0.5103 0
M  V30 6 C -1.4806 -0.7508 -0.0978 0
M  V30 7 C -2.4641 0.1509 -0.1719 0
M  V30 8 H 0.7769 0.0703 -1.3956 0
M  V30 9 H 0.1102 1.4881 -0.5028 0
M  V30 10 H 0.4284 -1.3611 0.644 0
M  V30 11 H -0.2942 0.039 1.5129 0
M  V30 12 H -1.6597 -1.7597 -0.4579 0
M  V30 13 H -3.421 -0.1237 -0.6033 0
M  V30 14 H -2.3248 1.162 0.1985 0
M  V30 END ATOM
M  V30 BEGIN BOND
M  V30 1 2 1 2
M  V30 2 2 2 3
M  V30 3 1 3 4
M  V30 4 1 4 5
M  V30 5 1 5 6
M  V30 6 2 6 7
M  V30 7 1 4 8
M  V30 8 1 4 9
M  V30 9 1 5 10
M  V30 10 1 5 11
M  V30 11 1 6 12
M  V30 12 1 7 13
M  V30 13 1 7 14
M  V30 END BOND
M  V30 END CTAB
M  END
>  <Structure No>
4481

>  <LogS>
-2.391

>  <MMFF94 Energy>
13.862

$$$$
Compound 4482
Actelion Java MolfileCreator 2.0

  0  0  0  0  0  0              0 V3000
M  V30 BEGIN CTAB
M  V30 COUNTS 23 23 0 0 0
M  V30 BEGIN ATOM
M  V30 1 Cl 3.5007 -1.8325 -1.9159 0
M  V30 2 C 2.6128 -0.6309 -0.9919 0
M  V30 3 C 3.0825 0.6866 -0.8993 0
M  V30 4 C 1.4253 -0.997 -0.3492 0
M  V30 5 O 4.263 1.0521 -1.5377 0 CHG=-1
M  V30 6 C 2.359 1.636 -0.1637 0
M  V30 7 C 0.7009 -0.0526 0.3955 0
M  V30 8 Cl 2.9273 3.2937 -0.0422 0
M  V30 9 C 1.1714 1.2672 0.4774 0
M  V30 10 C -0.5975 -0.437 1.0602 0
M  V30 11 C -1.8178 -0.041 0.2027 0 CFG=2
M  V30 12 N -3.0638 -0.2728 0.9431 0 CHG=1
M  V30 13 C -1.8345 -0.8011 -1.0986 0
M  V30 14 O -2.0286 -2.0457 -1.11 0
M  V30 15 O -1.6098 -0.132 -2.2951 0 CHG=-1
M  V30 16 H 1.0652 -2.0151 -0.4331 0
M  V30 17 H 0.6133 2.008 1.0372 0
M  V30 18 H -0.6593 0.0746 2.0458 0
M  V30 19 H -0.6167 -1.5298 1.2683 0
M  V30 20 H -1.7482 1.0466 -0.0275 0
M  V30 21 H -3.8841 -0.0088 0.3498 0
M  V30 22 H -3.1484 -1.2781 1.2206 0
M  V30 23 H -3.0793 0.3212 1.804 0
M  V30 END ATOM
M  V30 BEGIN BOND
M  V30 1 1 1 2
M  V30 2 2 2 3
M  V30 3 1 2 4
M  V30 4 1 3 5
M  V30 5 1 3 6
M  V30 6 2 4 7
M  V30 7 1 6 8
M  V30 8 2 6 9
M  V30 9 1 7 10
M  V30 10 1 10 11
M  V30 11 1 11 12
M  V30 12 1 11 13
M  V30 13 2 13 14
M  V30 14 1 13 15
M  V30 15 1 7 9
M  V30 16 1 4 16
M  V30 17 1 9 17
M  V30 18 1 10 18
M  V30 19 1 10 19
M  V30 20 1 11 20
M  V30 21 1 12 21
M  V30 22 1 12 22
M  V30 23 1 12 23
M  V30 END BOND
M  V30 BEGIN COLLECTION
M  V30 MDLV30/STEABS ATOMS=(1 11)
M  V30 END COLLECTION
M  V30 END CTAB
M  END
>  <Structure No>
4482

>  <LogS>
-0.796

>  <MMFF94 Energy>
30.845

$$$$
Compound 4483
Actelion Java MolfileCreator 2.0

  0  0  0  0  0  0              0 V3000
M  V30 BEGIN CTAB
M  V30 COUNTS 13 13 0 0 0
M  V30 BEGIN ATOM
M  V30 1 Cl -0.0813 3.2581 1.4651 0
M  V30 2 C -0.0416 1.6618 0.7488 0
M  V30 3 N 1.1357 0.9971 0.6388 0
M  V30 4 N -1.1883 1.0896 0.3036 0
M  V30 5 C 1.1682 -0.2412 0.0834 0
M  V30 6 C -1.1592 -0.1485 -0.2522 0
M  V30 7 N 0.0198 -0.8126 -0.3615 0
M  V30 8 N 2.4055 -0.9398 -0.0322 0
M  V30 9 N -2.3642 -0.75 -0.7199 0
M  V30 10 H 2.4366 -1.8925 -0.4584 0
M  V30 11 H 3.2917 -0.5054 0.3083 0
M  V30 12 H -3.2739 -0.244 -0.6384 0
M  V30 13 H -2.348 -1.702 -1.1484 0
M  V30 END ATOM
M  V30 BEGIN BOND
M  V30 1 1 1 2
M  V30 2 2 2 3
M  V30 3 1 2 4
M  V30 4 1 3 5
M  V30 5 2 4 6
M  V30 6 2 5 7
M  V30 7 1 5 8
M  V30 8 1 6 9
M  V30 9 1 6 7
M  V30 10 1 8 10
M  V30 11 1 8 11
M  V30 12 1 9 12
M  V30 13 1 9 13
M  V30 END BOND
M  V30 END CTAB
M  END
>  <Structure No>
4483

>  <LogS>
-2.3849

>  <MMFF94 Energy>
-253.22

$$$$
Compound 4484
Actelion Java MolfileCreator 2.0

  0  0  0  0  0  0              0 V3000
M  V30 BEGIN CTAB
M  V30 COUNTS 28 27 0 0 0
M  V30 BEGIN ATOM
M  V30 1 O -0.5435 -2.798 -1.3205 0
M  V30 2 C -1.036 -1.6395 -1.2444 0
M  V30 3 N -0.8602 -0.8553 -0.0576 0
M  V30 4 C -1.844 -1.1037 -2.3871 0
M  V30 5 C -0.0698 -1.3466 1.0714 0
M  V30 6 C -3.3315 -1.332 -2.1464 0
M  V30 7 C 0.0059 -0.3065 2.1944 0
M  V30 8 N 0.6334 0.9272 1.7235 0
M  V30 9 C 2.0372 1.0252 1.4464 0
M  V30 10 O 2.8069 0.0592 1.6998 0
M  V30 11 C 2.591 2.2638 0.8113 0
M  V30 12 C 2.3479 2.2456 -0.6934 0
M  V30 13 H -1.3092 0.088 -0.0123 0
M  V30 14 H -1.6502 -0.0156 -2.5022 0
M  V30 15 H -1.5423 -1.6072 -3.331 0
M  V30 16 H 0.9545 -1.6 0.7244 0
M  V30 17 H -0.5392 -2.2715 1.4706 0
M  V30 18 H -3.5443 -2.4185 -2.0525 0
M  V30 19 H -3.9126 -0.9286 -3.0022 0
M  V30 20 H -3.6576 -0.8132 -1.2194 0
M  V30 21 H -1.0228 -0.0839 2.5527 0
M  V30 22 H 0.5807 -0.7171 3.0524 0
M  V30 23 H 0.033 1.7733 1.5978 0
M  V30 24 H 3.683 2.3341 1.0072 0
M  V30 25 H 2.1045 3.1592 1.2541 0
M  V30 26 H 2.8447 1.3644 -1.153 0
M  V30 27 H 1.2583 2.2051 -0.9084 0
M  V30 28 H 2.7661 3.1678 -1.1488 0
M  V30 END ATOM
M  V30 BEGIN BOND
M  V30 1 2 1 2
M  V30 2 1 2 3
M  V30 3 1 2 4
M  V30 4 1 3 5
M  V30 5 1 4 6
M  V30 6 1 5 7
M  V30 7 1 7 8
M  V30 8 1 8 9
M  V30 9 2 9 10
M  V30 10 1 9 11
M  V30 11 1 11 12
M  V30 12 1 3 13
M  V30 13 1 4 14
M  V30 14 1 4 15
M  V30 15 1 5 16
M  V30 16 1 5 17
M  V30 17 1 6 18
M  V30 18 1 6 19
M  V30 19 1 6 20
M  V30 20 1 7 21
M  V30 21 1 7 22
M  V30 22 1 8 23
M  V30 23 1 11 24
M  V30 24 1 11 25
M  V30 25 1 12 26
M  V30 26 1 12 27
M  V30 27 1 12 28
M  V30 END BOND
M  V30 END CTAB
M  END
>  <Structure No>
4484

>  <LogS>
0.3746

>  <MMFF94 Energy>
-43.523

$$$$
Compound 4485
Actelion Java MolfileCreator 2.0

  0  0  0  0  0  0              0 V3000
M  V30 BEGIN CTAB
M  V30 COUNTS 26 27 0 0 0
M  V30 BEGIN ATOM
M  V30 1 Cl -2.1325 -2.474 0.682 0
M  V30 2 C -2.2902 -0.7834 0.2153 0
M  V30 3 C -1.2672 -0.1125 -0.4888 0
M  V30 4 C -3.4502 -0.091 0.5838 0
M  V30 5 C -0.0201 -0.803 -0.8869 0
M  V30 6 C -1.4167 1.2506 -0.7894 0
M  V30 7 C -3.595 1.2617 0.2654 0
M  V30 8 C 1.2212 -0.4377 -0.1646 0
M  V30 9 C -0.0213 -1.7092 -1.887 0
M  V30 10 C -2.5782 1.9324 -0.4174 0
M  V30 11 C 1.2696 -0.5256 1.2365 0
M  V30 12 C 2.3365 0.0611 -0.8601 0
M  V30 13 Cl 1.4117 -2.643 -2.3057 0
M  V30 14 Cl -1.4738 -2.0488 -2.8238 0
M  V30 15 C 2.4258 -0.1509 1.9276 0
M  V30 16 C 3.4912 0.435 -0.1661 0
M  V30 17 C 3.5381 0.3267 1.2274 0
M  V30 18 Cl 4.9869 0.7982 2.0965 0
M  V30 19 H -4.2387 -0.5994 1.1243 0
M  V30 20 H -0.6351 1.783 -1.3181 0
M  V30 21 H -4.4934 1.792 0.5541 0
M  V30 22 H -2.6897 2.9819 -0.6576 0
M  V30 23 H 0.4154 -0.8907 1.7933 0
M  V30 24 H 2.3073 0.171 -1.9372 0
M  V30 25 H 2.4549 -0.2301 3.007 0
M  V30 26 H 4.3457 0.8145 -0.7118 0
M  V30 END ATOM
M  V30 BEGIN BOND
M  V30 1 1 1 2
M  V30 2 2 2 3
M  V30 3 1 2 4
M  V30 4 1 3 5
M  V30 5 1 3 6
M  V30 6 2 4 7
M  V30 7 1 5 8
M  V30 8 2 5 9
M  V30 9 2 6 10
M  V30 10 2 8 11
M  V30 11 1 8 12
M  V30 12 1 9 13
M  V30 13 1 9 14
M  V30 14 1 11 15
M  V30 15 2 12 16
M  V30 16 2 15 17
M  V30 17 1 17 18
M  V30 18 1 7 10
M  V30 19 1 16 17
M  V30 20 1 4 19
M  V30 21 1 6 20
M  V30 22 1 7 21
M  V30 23 1 10 22
M  V30 24 1 11 23
M  V30 25 1 12 24
M  V30 26 1 15 25
M  V30 27 1 16 26
M  V30 END BOND
M  V30 END CTAB
M  END
>  <Structure No>
4485

>  <LogS>
-6.3563

>  <MMFF94 Energy>
59.561

$$$$
Compound 4486
Actelion Java MolfileCreator 2.0

  0  0  0  0  0  0              0 V3000
M  V30 BEGIN CTAB
M  V30 COUNTS 43 44 0 0 0
M  V30 BEGIN ATOM
M  V30 1 Cl 6.6629 1.622 0.8107 0
M  V30 2 C 5.5325 0.2885 0.6193 0
M  V30 3 C 5.8166 -0.9855 1.1371 0
M  V30 4 C 4.33 0.5119 -0.0624 0
M  V30 5 Cl 7.3149 -1.307 1.9997 0
M  V30 6 C 4.8956 -2.0238 0.9685 0
M  V30 7 C 3.401 -0.5288 -0.2355 0
M  V30 8 C 3.6959 -1.7999 0.2882 0
M  V30 9 C 2.1304 -0.284 -0.9521 0
M  V30 10 O 1.2994 -1.2216 -1.1013 0
M  V30 11 O 1.8554 0.9912 -1.4642 0
M  V30 12 C 0.6119 1.3602 -2.0609 0
M  V30 13 C -0.2659 2.14 -1.0714 0
M  V30 14 C -0.6285 1.3628 0.2147 0
M  V30 15 N -1.5732 0.2384 -0.0163 0 CHG=1 CFG=2
M  V30 16 C -2.9642 0.7296 -0.3281 0 CFG=2
M  V30 17 C -1.5161 -0.6841 1.1451 0
M  V30 18 C -4.0181 0.317 0.7284 0
M  V30 19 C -3.411 0.2807 -1.7328 0
M  V30 20 C -2.5825 -1.7786 1.0364 0
M  V30 21 C -4.0031 -1.1917 1.0123 0
M  V30 22 H 4.125 1.5005 -0.4544 0
M  V30 23 H 5.1082 -3.0081 1.3659 0
M  V30 24 H 3.0001 -2.6216 0.1735 0
M  V30 25 H 0.8325 2.031 -2.918 0
M  V30 26 H 0.0794 0.4821 -2.4822 0
M  V30 27 H -1.1829 2.4791 -1.5952 0
M  V30 28 H 0.287 3.0573 -0.7731 0
M  V30 29 H -1.066 2.0768 0.9492 0
M  V30 30 H 0.3162 1.0003 0.6772 0
M  V30 31 H -1.2088 -0.3178 -0.8234 0
M  V30 32 H -2.9982 1.8426 -0.3461 0
M  V30 33 H -1.6529 -0.1299 2.1022 0
M  V30 34 H -0.5183 -1.1773 1.1907 0
M  V30 35 H -5.0367 0.6247 0.4052 0
M  V30 36 H -3.807 0.8648 1.6733 0
M  V30 37 H -4.4229 0.6767 -1.9643 0
M  V30 38 H -3.4326 -0.8268 -1.8048 0
M  V30 39 H -2.707 0.6703 -2.4978 0
M  V30 40 H -2.4817 -2.4791 1.8937 0
M  V30 41 H -2.4047 -2.3612 0.1059 0
M  V30 42 H -4.6046 -1.7198 0.2407 0
M  V30 43 H -4.4969 -1.3719 1.9921 0
M  V30 END ATOM
M  V30 BEGIN BOND
M  V30 1 1 1 2
M  V30 2 2 2 3
M  V30 3 1 2 4
M  V30 4 1 3 5
M  V30 5 1 3 6
M  V30 6 2 4 7
M  V30 7 2 6 8
M  V30 8 1 7 9
M  V30 9 2 9 10
M  V30 10 1 9 11
M  V30 11 1 11 12
M  V30 12 1 12 13
M  V30 13 1 13 14
M  V30 14 1 14 15
M  V30 15 1 15 16
M  V30 16 1 15 17
M  V30 17 1 16 18
M  V30 18 1 16 19
M  V30 19 1 17 20
M  V30 20 1 18 21
M  V30 21 1 7 8
M  V30 22 1 20 21
M  V30 23 1 4 22
M  V30 24 1 6 23
M  V30 25 1 8 24
M  V30 26 1 12 25
M  V30 27 1 12 26
M  V30 28 1 13 27
M  V30 29 1 13 28
M  V30 30 1 14 29
M  V30 31 1 14 30
M  V30 32 1 15 31
M  V30 33 1 16 32
M  V30 34 1 17 33
M  V30 35 1 17 34
M  V30 36 1 18 35
M  V30 37 1 18 36
M  V30 38 1 19 37
M  V30 39 1 19 38
M  V30 40 1 19 39
M  V30 41 1 20 40
M  V30 42 1 20 41
M  V30 43 1 21 42
M  V30 44 1 21 43
M  V30 END BOND
M  V30 BEGIN COLLECTION
M  V30 MDLV30/STEABS ATOMS=(2 15 16)
M  V30 END COLLECTION
M  V30 END CTAB
M  END
>  <Structure No>
4486

>  <LogS>
-4.2178

>  <MMFF94 Energy>
40.252

$$$$
Compound 4487
Actelion Java MolfileCreator 2.0

  0  0  0  0  0  0              0 V3000
M  V30 BEGIN CTAB
M  V30 COUNTS 16 17 0 0 0
M  V30 BEGIN ATOM
M  V30 1 Cl 3.5162 -1.6218 -1.081 0
M  V30 2 C 2.0922 -0.723 -0.5526 0
M  V30 3 C 2.2313 0.5835 -0.0435 0
M  V30 4 C 0.8179 -1.3133 -0.6407 0
M  V30 5 Cl 3.8298 1.3232 0.0666 0
M  V30 6 C 1.0964 1.3007 0.3778 0
M  V30 7 Cl 0.6275 -2.9483 -1.2758 0
M  V30 8 C -0.3115 -0.597 -0.2203 0
M  V30 9 Cl 1.2544 2.9374 1.0175 0
M  V30 10 C -0.1723 0.7106 0.2892 0
M  V30 11 N -1.5535 -1.1487 -0.2965 0
M  V30 12 N -1.2836 1.3861 0.6911 0
M  V30 13 C -2.6569 -0.4666 0.107 0
M  V30 14 C -2.5192 0.8273 0.6112 0
M  V30 15 H -3.6338 -0.926 0.0367 0
M  V30 16 H -3.3877 1.3839 0.9369 0
M  V30 END ATOM
M  V30 BEGIN BOND
M  V30 1 1 1 2
M  V30 2 1 2 3
M  V30 3 2 2 4
M  V30 4 1 3 5
M  V30 5 2 3 6
M  V30 6 1 4 7
M  V30 7 1 4 8
M  V30 8 1 6 9
M  V30 9 1 6 10
M  V30 10 2 8 11
M  V30 11 2 10 12
M  V30 12 1 11 13
M  V30 13 1 12 14
M  V30 14 1 8 10
M  V30 15 2 13 14
M  V30 16 1 13 15
M  V30 17 1 14 16
M  V30 END BOND
M  V30 END CTAB
M  END
>  <Structure No>
4487

>  <LogS>
-5.428

>  <MMFF94 Energy>
96.101

$$$$
Compound 4488
Actelion Java MolfileCreator 2.0

  0  0  0  0  0  0              0 V3000
M  V30 BEGIN CTAB
M  V30 COUNTS 29 28 0 0 0
M  V30 BEGIN ATOM
M  V30 1 C -1.7764 -0.0771 0.0 0
M  V30 2 C -0.3285 -0.4246 0.463 0
M  V30 3 C -2.0574 -0.6264 -1.4156 0
M  V30 4 C -2.7665 -0.7389 0.9824 0
M  V30 5 C -2.015 1.4475 0.0181 0
M  V30 6 C 0.8013 0.2336 -0.3589 0
M  V30 7 C 2.2025 -0.2989 0.0216 0
M  V30 8 C 3.2476 0.2077 -0.9814 0
M  V30 9 C 2.608 0.1112 1.4459 0
M  V30 10 H -0.1964 -1.5291 0.4324 0
M  V30 11 H -0.2175 -0.1112 1.5235 0
M  V30 12 H -1.4739 -0.083 -2.1871 0
M  V30 13 H -3.1318 -0.5058 -1.6745 0
M  V30 14 H -1.8054 -1.7072 -1.4741 0
M  V30 15 H -2.6299 -1.842 0.9932 0
M  V30 16 H -2.6104 -0.3582 2.0152 0
M  V30 17 H -3.818 -0.5236 0.6921 0
M  V30 18 H -1.405 1.9586 -0.7561 0
M  V30 19 H -3.0817 1.6788 -0.1928 0
M  V30 20 H -1.7553 1.8724 1.0118 0
M  V30 21 H 0.7802 1.3357 -0.2179 0
M  V30 22 H 0.6364 0.0239 -1.4354 0
M  V30 23 H 2.195 -1.4102 -0.0348 0
M  V30 24 H 3.2975 1.318 -0.9676 0
M  V30 25 H 4.2506 -0.2 -0.7323 0
M  V30 26 H 2.9896 -0.1272 -2.0088 0
M  V30 27 H 1.9575 -0.382 2.1969 0
M  V30 28 H 3.6513 -0.2077 1.6559 0
M  V30 29 H 2.5404 1.2132 1.5721 0
M  V30 END ATOM
M  V30 BEGIN BOND
M  V30 1 1 1 2
M  V30 2 1 1 3
M  V30 3 1 1 4
M  V30 4 1 1 5
M  V30 5 1 2 6
M  V30 6 1 6 7
M  V30 7 1 7 8
M  V30 8 1 7 9
M  V30 9 1 2 10
M  V30 10 1 2 11
M  V30 11 1 3 12
M  V30 12 1 3 13
M  V30 13 1 3 14
M  V30 14 1 4 15
M  V30 15 1 4 16
M  V30 16 1 4 17
M  V30 17 1 5 18
M  V30 18 1 5 19
M  V30 19 1 5 20
M  V30 20 1 6 21
M  V30 21 1 6 22
M  V30 22 1 7 23
M  V30 23 1 8 24
M  V30 24 1 8 25
M  V30 25 1 8 26
M  V30 26 1 9 27
M  V30 27 1 9 28
M  V30 28 1 9 29
M  V30 END BOND
M  V30 END CTAB
M  END
>  <Structure No>
4488

>  <LogS>
-5.0474

>  <MMFF94 Energy>
15.396

$$$$
Compound 4489
Actelion Java MolfileCreator 2.0

  0  0  0  0  0  0              0 V3000
M  V30 BEGIN CTAB
M  V30 COUNTS 25 24 0 0 0
M  V30 BEGIN ATOM
M  V30 1 O 1.0835 1.4706 0.619 0
M  V30 2 C 0.5624 0.3233 0.5453 0
M  V30 3 O 1.3769 -0.808 0.4069 0
M  V30 4 N -0.8696 0.1725 0.6198 0
M  V30 5 C 2.792 -0.7441 0.2434 0
M  V30 6 C -1.7271 1.3488 0.8307 0
M  V30 7 C -1.4644 -1.1701 0.5534 0
M  V30 8 C 3.1488 -0.3119 -1.1738 0
M  V30 9 C -1.8897 2.1356 -0.4659 0
M  V30 10 C -1.4673 -1.6872 -0.882 0
M  V30 11 H 3.2144 -1.7546 0.4251 0
M  V30 12 H 3.2374 -0.0456 0.9848 0
M  V30 13 H -1.2896 2.0021 1.6166 0
M  V30 14 H -2.7357 1.048 1.1872 0
M  V30 15 H -0.8974 -1.8692 1.2055 0
M  V30 16 H -2.5119 -1.161 0.924 0
M  V30 17 H 4.2517 -0.3229 -1.3009 0
M  V30 18 H 2.7774 0.7153 -1.3706 0
M  V30 19 H 2.6942 -1.0103 -1.9079 0
M  V30 20 H -2.5457 3.0138 -0.2886 0
M  V30 21 H -2.3547 1.4953 -1.2444 0
M  V30 22 H -0.9059 2.4963 -0.8313 0
M  V30 23 H -0.4324 -1.7569 -1.2764 0
M  V30 24 H -2.0585 -1.0073 -1.5306 0
M  V30 25 H -1.9269 -2.6974 -0.9125 0
M  V30 END ATOM
M  V30 BEGIN BOND
M  V30 1 2 1 2
M  V30 2 1 2 3
M  V30 3 1 2 4
M  V30 4 1 3 5
M  V30 5 1 4 6
M  V30 6 1 4 7
M  V30 7 1 5 8
M  V30 8 1 6 9
M  V30 9 1 7 10
M  V30 10 1 5 11
M  V30 11 1 5 12
M  V30 12 1 6 13
M  V30 13 1 6 14
M  V30 14 1 7 15
M  V30 15 1 7 16
M  V30 16 1 8 17
M  V30 17 1 8 18
M  V30 18 1 8 19
M  V30 19 1 9 20
M  V30 20 1 9 21
M  V30 21 1 9 22
M  V30 22 1 10 23
M  V30 23 1 10 24
M  V30 24 1 10 25
M  V30 END BOND
M  V30 END CTAB
M  END
>  <Structure No>
4489

>  <LogS>
-1.0651

>  <MMFF94 Energy>
-55.387

$$$$
Compound 4490
Actelion Java MolfileCreator 2.0

  0  0  0  0  0  0              0 V3000
M  V30 BEGIN CTAB
M  V30 COUNTS 26 27 0 0 0
M  V30 BEGIN ATOM
M  V30 1 O 0.2419 -1.3715 -2.2598 0
M  V30 2 C 0.2779 -0.6336 -1.2373 0
M  V30 3 C -0.9993 -0.129 -0.6805 0
M  V30 4 C 1.5897 -0.3054 -0.6238 0
M  V30 5 C -2.0663 -1.0188 -0.4422 0
M  V30 6 C -1.1743 1.2444 -0.4121 0
M  V30 7 C 2.7674 -0.3873 -1.39 0
M  V30 8 C 1.6852 0.0605 0.733 0
M  V30 9 O -1.9171 -2.3804 -0.7072 0
M  V30 10 C -3.2773 -0.5376 0.0759 0
M  V30 11 O -0.1582 2.1565 -0.6792 0 CHG=-1
M  V30 12 C -2.3845 1.7104 0.111 0
M  V30 13 C 4.0079 -0.0904 -0.8167 0
M  V30 14 C 2.9282 0.3561 1.3009 0
M  V30 15 C -3.436 0.8246 0.3562 0
M  V30 16 C 4.088 0.2827 0.5267 0
M  V30 17 O -4.6351 1.308 0.8754 0
M  V30 18 H 2.728 -0.671 -2.4344 0
M  V30 19 H 0.8027 0.1075 1.3584 0
M  V30 20 H -2.668 -3.04 -0.5398 0
M  V30 21 H -4.0938 -1.2237 0.2638 0
M  V30 22 H -2.5107 2.7657 0.3187 0
M  V30 23 H 4.9078 -0.1501 -1.4151 0
M  V30 24 H 2.9924 0.6379 2.3441 0
M  V30 25 H 5.0493 0.5113 0.9686 0
M  V30 26 H -5.4175 0.692 1.0637 0
M  V30 END ATOM
M  V30 BEGIN BOND
M  V30 1 2 1 2
M  V30 2 1 2 3
M  V30 3 1 2 4
M  V30 4 2 3 5
M  V30 5 1 3 6
M  V30 6 2 4 7
M  V30 7 1 4 8
M  V30 8 1 5 9
M  V30 9 1 5 10
M  V30 10 1 6 11
M  V30 11 2 6 12
M  V30 12 1 7 13
M  V30 13 2 8 14
M  V30 14 2 10 15
M  V30 15 2 13 16
M  V30 16 1 15 17
M  V30 17 1 12 15
M  V30 18 1 14 16
M  V30 19 1 7 18
M  V30 20 1 8 19
M  V30 21 1 9 20
M  V30 22 1 10 21
M  V30 23 1 12 22
M  V30 24 1 13 23
M  V30 25 1 14 24
M  V30 26 1 16 25
M  V30 27 1 17 26
M  V30 END BOND
M  V30 END CTAB
M  END
>  <Structure No>
4490

>  <LogS>
-1.8708

>  <MMFF94 Energy>
63.395

$$$$
Compound 4491
Actelion Java MolfileCreator 2.0

  0  0  0  0  0  0              0 V3000
M  V30 BEGIN CTAB
M  V30 COUNTS 42 44 0 0 0
M  V30 BEGIN ATOM
M  V30 1 O 0.8042 0.0 1.2065 0
M  V30 2 C 1.218 0.6614 0.0191 0 CFG=2
M  V30 3 C -0.0212 -1.1083 0.9062 0
M  V30 4 O 2.0243 -0.2121 -0.7575 0
M  V30 5 C 2.063 1.8959 0.3944 0 CFG=1
M  V30 6 C -0.018 1.0922 -0.8018 0
M  V30 7 C -1.2547 -0.6761 0.0849 0 CFG=2
M  V30 8 C 3.3122 0.3528 -0.865 0 CFG=1
M  V30 9 O 1.8172 2.3476 1.7023 0
M  V30 10 C 3.479 1.4002 0.2349 0 CFG=2
M  V30 11 O -0.8432 -0.0156 -1.1036 0
M  V30 12 O -2.0653 0.1886 0.859 0
M  V30 13 C -2.1064 -1.8941 -0.2839 0 CFG=2
M  V30 14 C 4.3809 -0.7454 -0.84 0
M  V30 15 O 3.9923 0.8596 1.4332 0
M  V30 16 C -3.4166 -0.1632 0.6421 0 CFG=2
M  V30 17 O -1.7234 -2.4638 -1.5091 0
M  V30 18 C -3.4822 -1.2963 -0.3805 0 CFG=2
M  V30 19 O 4.2445 -1.5576 -1.9727 0
M  V30 20 C -4.2105 1.0668 0.184 0
M  V30 21 O -4.4736 -2.2276 -0.0335 0
M  V30 22 O -4.2204 2.0444 1.1892 0
M  V30 23 H -0.3593 -1.5551 1.8656 0
M  V30 24 H 0.5591 -1.8923 0.3707 0
M  V30 25 H 1.9059 2.7312 -0.33 0
M  V30 26 H 0.3189 1.5409 -1.7606 0
M  V30 27 H -0.5979 1.8754 -0.2633 0
M  V30 28 H 3.3775 0.8716 -1.849 0
M  V30 29 H 0.9296 2.7913 1.6822 0
M  V30 30 H 4.1498 2.221 -0.1018 0
M  V30 31 H -2.0909 -2.6601 0.529 0
M  V30 32 H 4.2679 -1.368 0.0753 0
M  V30 33 H 5.3908 -0.277 -0.8387 0
M  V30 34 H 3.3851 0.1353 1.7371 0
M  V30 35 H -3.8365 -0.5146 1.6117 0
M  V30 36 H -0.9044 -2.9942 -1.3285 0
M  V30 37 H -3.6596 -0.8952 -1.4078 0
M  V30 38 H 4.9599 -2.2424 -1.9084 0
M  V30 39 H -5.2602 0.7691 -0.0242 0
M  V30 40 H -3.7781 1.4805 -0.7563 0
M  V30 41 H -4.5631 -2.8436 -0.8067 0
M  V30 42 H -3.3506 2.5197 1.1342 0
M  V30 END ATOM
M  V30 BEGIN BOND
M  V30 1 1 1 2
M  V30 2 1 1 3
M  V30 3 1 2 4
M  V30 4 1 2 5
M  V30 5 1 2 6
M  V30 6 1 3 7
M  V30 7 1 4 8
M  V30 8 1 5 9
M  V30 9 1 5 10
M  V30 10 1 6 11
M  V30 11 1 7 12
M  V30 12 1 7 13
M  V30 13 1 8 14
M  V30 14 1 10 15
M  V30 15 1 12 16
M  V30 16 1 13 17
M  V30 17 1 13 18
M  V30 18 1 14 19
M  V30 19 1 16 20
M  V30 20 1 18 21
M  V30 21 1 20 22
M  V30 22 1 7 11
M  V30 23 1 8 10
M  V30 24 1 16 18
M  V30 25 1 3 23
M  V30 26 1 3 24
M  V30 27 1 5 25
M  V30 28 1 6 26
M  V30 29 1 6 27
M  V30 30 1 8 28
M  V30 31 1 9 29
M  V30 32 1 10 30
M  V30 33 1 13 31
M  V30 34 1 14 32
M  V30 35 1 14 33
M  V30 36 1 15 34
M  V30 37 1 16 35
M  V30 38 1 17 36
M  V30 39 1 18 37
M  V30 40 1 19 38
M  V30 41 1 20 39
M  V30 42 1 20 40
M  V30 43 1 21 41
M  V30 44 1 22 42
M  V30 END BOND
M  V30 BEGIN COLLECTION
M  V30 MDLV30/STEABS ATOMS=(8 2 5 7 8 10 13 16 18)
M  V30 END COLLECTION
M  V30 END CTAB
M  END
>  <Structure No>
4491

>  <LogS>
-0.0058

>  <MMFF94 Energy>
231.86

$$$$
Compound 4492
Actelion Java MolfileCreator 2.0

  0  0  0  0  0  0              0 V3000
M  V30 BEGIN CTAB
M  V30 COUNTS 35 36 0 0 0
M  V30 BEGIN ATOM
M  V30 1 S 2.3204 -3.067 -0.1656 0
M  V30 2 O 2.0745 -3.8634 1.0854 0
M  V30 3 O 3.3122 -3.7949 -1.0273 0
M  V30 4 N 0.8279 -2.9019 -1.0269 0 CHG=-1
M  V30 5 C 2.962 -1.4762 0.2318 0
M  V30 6 C -0.2827 -2.1864 -0.4879 0
M  V30 7 C 2.8175 -0.4166 -0.6737 0
M  V30 8 C 3.6212 -1.2607 1.45 0
M  V30 9 S -1.7328 -1.9433 -1.3023 0
M  V30 10 N -0.2842 -1.604 0.7308 0
M  V30 11 C 3.3183 0.8504 -0.3603 0
M  V30 12 C 4.1231 0.0061 1.7633 0
M  V30 13 C -2.3358 -1.0656 0.0068 0
M  V30 14 N -1.4272 -0.9782 1.0048 0
M  V30 15 C 3.9729 1.0682 0.8604 0
M  V30 16 C -3.6827 -0.4121 0.0548 0
M  V30 17 N 4.4848 2.3643 1.1814 0
M  V30 18 C -3.5824 1.1208 -0.083 0
M  V30 19 C -3.0584 1.5311 -1.4675 0
M  V30 20 C -4.9509 1.7642 0.1714 0
M  V30 21 H 2.3154 -0.5703 -1.6205 0
M  V30 22 H 3.7468 -2.0705 2.1571 0
M  V30 23 H 3.1969 1.6612 -1.0676 0
M  V30 24 H 4.6284 0.1602 2.7084 0
M  V30 25 H -4.1521 -0.6694 1.0291 0
M  V30 26 H -4.3294 -0.8275 -0.7487 0
M  V30 27 H 4.3778 3.1615 0.5153 0
M  V30 28 H 4.9743 2.5362 2.088 0
M  V30 29 H -2.8782 1.5076 0.6873 0
M  V30 30 H -3.0223 2.6383 -1.5515 0
M  V30 31 H -2.0279 1.1482 -1.6221 0
M  V30 32 H -3.7157 1.1321 -2.2698 0
M  V30 33 H -4.8741 2.8706 0.1046 0
M  V30 34 H -5.6954 1.4101 -0.574 0
M  V30 35 H -5.3126 1.5071 1.1899 0
M  V30 END ATOM
M  V30 BEGIN BOND
M  V30 1 2 1 2
M  V30 2 2 1 3
M  V30 3 1 1 4
M  V30 4 1 1 5
M  V30 5 1 4 6
M  V30 6 2 5 7
M  V30 7 1 5 8
M  V30 8 1 6 9
M  V30 9 2 6 10
M  V30 10 1 7 11
M  V30 11 2 8 12
M  V30 12 1 9 13
M  V30 13 1 10 14
M  V30 14 2 11 15
M  V30 15 1 13 16
M  V30 16 1 15 17
M  V30 17 1 16 18
M  V30 18 1 18 19
M  V30 19 1 18 20
M  V30 20 1 12 15
M  V30 21 2 13 14
M  V30 22 1 7 21
M  V30 23 1 8 22
M  V30 24 1 11 23
M  V30 25 1 12 24
M  V30 26 1 16 25
M  V30 27 1 16 26
M  V30 28 1 17 27
M  V30 29 1 17 28
M  V30 30 1 18 29
M  V30 31 1 19 30
M  V30 32 1 19 31
M  V30 33 1 19 32
M  V30 34 1 20 33
M  V30 35 1 20 34
M  V30 36 1 20 35
M  V30 END BOND
M  V30 END CTAB
M  END
>  <Structure No>
4492

>  <LogS>
-3.8226

>  <MMFF94 Energy>
51.342

$$$$
Compound 4493
Actelion Java MolfileCreator 2.0

  0  0  0  0  0  0              0 V3000
M  V30 BEGIN CTAB
M  V30 COUNTS 42 43 0 0 0
M  V30 BEGIN ATOM
M  V30 1 Cl -1.9646 0.3272 2.6201 0
M  V30 2 C -3.1453 1.4819 1.9558 0
M  V30 3 Cl -2.994 3.0306 2.8322 0
M  V30 4 C -2.8973 1.6481 0.478 0
M  V30 5 O -2.2558 2.6584 0.0777 0
M  V30 6 N -3.2862 0.6314 -0.4761 0
M  V30 7 C -2.5742 0.5416 -1.7592 0
M  V30 8 C -4.3539 -0.3363 -0.1789 0
M  V30 9 C -1.2058 -0.0468 -1.5465 0
M  V30 10 C -5.7261 0.3314 -0.288 0
M  V30 11 C -0.0719 0.7793 -1.5078 0
M  V30 12 C -1.0599 -1.4252 -1.3285 0
M  V30 13 O -6.7403 -0.5954 -0.0127 0
M  V30 14 C 1.1897 0.2333 -1.2565 0
M  V30 15 C 0.2026 -1.97 -1.079 0
M  V30 16 C 1.3316 -1.1458 -1.0225 0
M  V30 17 O 2.5823 -1.7306 -0.7759 0
M  V30 18 C 3.6501 -1.112 -0.1091 0
M  V30 19 C 4.956 -1.4868 -0.439 0
M  V30 20 C 3.4433 -0.1658 0.9093 0
M  V30 21 C 6.0475 -0.9049 0.2123 0
M  V30 22 C 4.5327 0.4172 1.5625 0
M  V30 23 C 5.8482 0.0567 1.2181 0
M  V30 24 N 6.9735 0.6548 1.8872 0 CHG=1
M  V30 25 O 6.8023 1.5083 2.7824 0
M  V30 26 O 8.2587 0.2967 1.5502 0 CHG=-1
M  V30 27 H -4.1682 1.103 2.1469 0
M  V30 28 H -2.5106 1.5468 -2.2301 0
M  V30 29 H -3.1341 -0.0922 -2.4812 0
M  V30 30 H -4.2085 -0.7774 0.8291 0
M  V30 31 H -4.321 -1.1881 -0.8924 0
M  V30 32 H -5.8638 0.7097 -1.3231 0
M  V30 33 H -5.8005 1.2008 0.4026 0
M  V30 34 H -0.1629 1.8454 -1.6733 0
M  V30 35 H -1.9242 -2.0771 -1.3476 0
M  V30 36 H -6.7547 -0.7151 0.9729 0
M  V30 37 H 2.0542 0.8839 -1.258 0
M  V30 38 H 0.3027 -3.0352 -0.9144 0
M  V30 39 H 5.1261 -2.2277 -1.2098 0
M  V30 40 H 2.4411 0.1073 1.2127 0
M  V30 41 H 7.0467 -1.209 -0.0706 0
M  V30 42 H 4.3458 1.1448 2.3418 0
M  V30 END ATOM
M  V30 BEGIN BOND
M  V30 1 1 1 2
M  V30 2 1 2 3
M  V30 3 1 2 4
M  V30 4 2 4 5
M  V30 5 1 4 6
M  V30 6 1 6 7
M  V30 7 1 6 8
M  V30 8 1 7 9
M  V30 9 1 8 10
M  V30 10 2 9 11
M  V30 11 1 9 12
M  V30 12 1 10 13
M  V30 13 1 11 14
M  V30 14 2 12 15
M  V30 15 2 14 16
M  V30 16 1 16 17
M  V30 17 1 17 18
M  V30 18 2 18 19
M  V30 19 1 18 20
M  V30 20 1 19 21
M  V30 21 2 20 22
M  V30 22 2 21 23
M  V30 23 1 23 24
M  V30 24 2 24 25
M  V30 25 1 24 26
M  V30 26 1 15 16
M  V30 27 1 22 23
M  V30 28 1 2 27
M  V30 29 1 7 28
M  V30 30 1 7 29
M  V30 31 1 8 30
M  V30 32 1 8 31
M  V30 33 1 10 32
M  V30 34 1 10 33
M  V30 35 1 11 34
M  V30 36 1 12 35
M  V30 37 1 13 36
M  V30 38 1 14 37
M  V30 39 1 15 38
M  V30 40 1 19 39
M  V30 41 1 20 40
M  V30 42 1 21 41
M  V30 43 1 22 42
M  V30 END BOND
M  V30 END CTAB
M  END
>  <Structure No>
4493

>  <LogS>
-5.1241

>  <MMFF94 Energy>
131.33

$$$$
Compound 4494
Actelion Java MolfileCreator 2.0

  0  0  0  0  0  0              0 V3000
M  V30 BEGIN CTAB
M  V30 COUNTS 36 35 0 0 0
M  V30 BEGIN ATOM
M  V30 1 O -6.2736 0.4754 -0.2376 0
M  V30 2 C -5.6597 -0.1206 0.6875 0
M  V30 3 O -6.3271 -0.4193 1.8688 0 CHG=-1
M  V30 4 C -4.2236 -0.529 0.5139 0
M  V30 5 C -4.1312 -1.6376 -0.499 0
M  V30 6 C -3.3526 0.6833 0.1242 0
M  V30 7 O -4.4079 -1.4252 -1.7098 0
M  V30 8 O -3.748 -2.9112 -0.0982 0 CHG=-1
M  V30 9 C -1.853 0.3489 0.1445 0
M  V30 10 C -1.0099 1.5815 -0.2146 0
M  V30 11 C 0.4994 1.3233 -0.085 0
M  V30 12 C 1.0289 0.3587 -1.1608 0
M  V30 13 C 2.5642 0.3111 -1.2069 0
M  V30 14 C 3.1716 -0.3647 0.0312 0
M  V30 15 C 4.691 -0.5095 -0.113 0
M  V30 16 C 5.3016 -1.1709 1.119 0
M  V30 17 H -3.8607 -0.9157 1.4923 0
M  V30 18 H -3.5416 1.5067 0.8487 0
M  V30 19 H -3.6387 1.0489 -0.8873 0
M  V30 20 H -1.6514 -0.4616 -0.5867 0
M  V30 21 H -1.5705 -0.0092 1.1588 0
M  V30 22 H -1.2753 2.4124 0.4753 0
M  V30 23 H -1.248 1.9146 -1.2487 0
M  V30 24 H 0.7166 0.9244 0.9288 0
M  V30 25 H 1.0223 2.2996 -0.1843 0
M  V30 26 H 0.6363 -0.6655 -0.985 0
M  V30 27 H 0.6676 0.6938 -2.1576 0
M  V30 28 H 2.9702 1.3411 -1.3135 0
M  V30 29 H 2.8618 -0.2626 -2.1119 0
M  V30 30 H 2.7182 -1.3718 0.1635 0
M  V30 31 H 2.9534 0.2446 0.9343 0
M  V30 32 H 4.926 -1.1284 -1.0062 0
M  V30 33 H 5.1516 0.4934 -0.2484 0
M  V30 34 H 5.1045 -0.5577 2.0241 0
M  V30 35 H 4.8747 -2.1863 1.2633 0
M  V30 36 H 6.4 -1.2633 0.9852 0
M  V30 END ATOM
M  V30 BEGIN BOND
M  V30 1 2 1 2
M  V30 2 1 2 3
M  V30 3 1 2 4
M  V30 4 1 4 5
M  V30 5 1 4 6
M  V30 6 2 5 7
M  V30 7 1 5 8
M  V30 8 1 6 9
M  V30 9 1 9 10
M  V30 10 1 10 11
M  V30 11 1 11 12
M  V30 12 1 12 13
M  V30 13 1 13 14
M  V30 14 1 14 15
M  V30 15 1 15 16
M  V30 16 1 4 17
M  V30 17 1 6 18
M  V30 18 1 6 19
M  V30 19 1 9 20
M  V30 20 1 9 21
M  V30 21 1 10 22
M  V30 22 1 10 23
M  V30 23 1 11 24
M  V30 24 1 11 25
M  V30 25 1 12 26
M  V30 26 1 12 27
M  V30 27 1 13 28
M  V30 28 1 13 29
M  V30 29 1 14 30
M  V30 30 1 14 31
M  V30 31 1 15 32
M  V30 32 1 15 33
M  V30 33 1 16 34
M  V30 34 1 16 35
M  V30 35 1 16 36
M  V30 END BOND
M  V30 END CTAB
M  END
>  <Structure No>
4494

>  <LogS>
-3.3016

>  <MMFF94 Energy>
42.284

$$$$
Compound 4495
Actelion Java MolfileCreator 2.0

  0  0  0  0  0  0              0 V3000
M  V30 BEGIN CTAB
M  V30 COUNTS 18 19 0 0 0
M  V30 BEGIN ATOM
M  V30 1 Cl 1.4636 -2.8425 -0.8607 0
M  V30 2 C 1.4527 -1.148 -0.3868 0
M  V30 3 C 2.6491 -0.4147 -0.2082 0
M  V30 4 C 0.2485 -0.4742 -0.1718 0
M  V30 5 Cl 4.2172 -1.1691 -0.4553 0
M  V30 6 C 2.5981 0.9465 0.176 0
M  V30 7 N -1.0029 -0.9433 -0.2679 0
M  V30 8 C 0.2054 0.8372 0.1986 0
M  V30 9 C 1.3627 1.5867 0.385 0
M  V30 10 C -1.7778 0.1246 0.0451 0
M  V30 11 N -1.0679 1.2432 0.3511 0
M  V30 12 C -3.2701 0.0571 0.1241 0
M  V30 13 F -3.639 -0.5621 1.3032 0
M  V30 14 F -3.7633 -0.6667 -0.9454 0
M  V30 15 F -3.8076 1.3312 0.0917 0
M  V30 16 H 3.5154 1.5048 0.313 0
M  V30 17 H -1.3128 -1.9092 -0.5162 0
M  V30 18 H 1.3155 2.6267 0.6815 0
M  V30 END ATOM
M  V30 BEGIN BOND
M  V30 1 1 1 2
M  V30 2 2 2 3
M  V30 3 1 2 4
M  V30 4 1 3 5
M  V30 5 1 3 6
M  V30 6 1 4 7
M  V30 7 2 4 8
M  V30 8 2 6 9
M  V30 9 1 7 10
M  V30 10 1 8 11
M  V30 11 1 10 12
M  V30 12 1 12 13
M  V30 13 1 12 14
M  V30 14 1 12 15
M  V30 15 1 8 9
M  V30 16 2 10 11
M  V30 17 1 6 16
M  V30 18 1 7 17
M  V30 19 1 9 18
M  V30 END BOND
M  V30 END CTAB
M  END
>  <Structure No>
4495

>  <LogS>
-3.5677

>  <MMFF94 Energy>
48.32

$$$$
Compound 4496
Actelion Java MolfileCreator 2.0

  0  0  0  0  0  0              0 V3000
M  V30 BEGIN CTAB
M  V30 COUNTS 37 39 0 0 0
M  V30 BEGIN ATOM
M  V30 1 O -4.1453 -2.7621 -0.1623 0
M  V30 2 C -3.2365 -1.8903 -0.1373 0
M  V30 3 N -2.5807 -1.5118 -1.3434 0
M  V30 4 N -2.8599 -1.2904 1.0981 0
M  V30 5 C -1.5556 -0.5147 -1.3529 0
M  V30 6 C -1.841 -0.289 1.1594 0
M  V30 7 O -0.9823 -0.2435 -2.4434 0
M  V30 8 C -1.1597 0.2481 -0.0944 0
M  V30 9 O -1.5154 0.1782 2.2852 0
M  V30 10 C 0.3604 0.0813 0.088 0
M  V30 11 C -1.5755 1.7416 -0.2716 0
M  V30 12 C 0.8688 -1.1625 0.3143 0
M  V30 13 C 1.3301 1.2564 -0.1232 0
M  V30 14 C -3.0838 1.9508 -0.4645 0
M  V30 15 C 2.3566 -1.3749 0.5137 0 CFG=1
M  V30 16 C 2.8116 0.8909 0.1655 0 CFG=2
M  V30 17 C 3.1041 -0.4692 -0.4506 0
M  V30 18 C 2.7624 -0.8365 1.8893 0
M  V30 19 C 3.034 0.6561 1.6684 0
M  V30 20 H -2.8485 -1.979 -2.2389 0
M  V30 21 H -3.3304 -1.5967 1.9796 0
M  V30 22 H -1.0613 2.1799 -1.1543 0
M  V30 23 H -1.2668 2.3286 0.6209 0
M  V30 24 H 0.2112 -2.0251 0.3771 0
M  V30 25 H 1.0404 2.1169 0.5153 0
M  V30 26 H 1.2564 1.5821 -1.1829 0
M  V30 27 H -3.2922 3.0353 -0.5807 0
M  V30 28 H -3.4423 1.4302 -1.3769 0
M  V30 29 H -3.6509 1.5826 0.4157 0
M  V30 30 H 2.6296 -2.4448 0.3877 0
M  V30 31 H 3.4927 1.6768 -0.2279 0
M  V30 32 H 4.1961 -0.6859 -0.4288 0
M  V30 33 H 2.7352 -0.5577 -1.4975 0
M  V30 34 H 1.9703 -0.9982 2.6543 0
M  V30 35 H 3.6922 -1.3437 2.2297 0
M  V30 36 H 4.0889 0.89 1.9323 0
M  V30 37 H 2.3663 1.2847 2.2978 0
M  V30 END ATOM
M  V30 BEGIN BOND
M  V30 1 2 1 2
M  V30 2 1 2 3
M  V30 3 1 2 4
M  V30 4 1 3 5
M  V30 5 1 4 6
M  V30 6 2 5 7
M  V30 7 1 5 8
M  V30 8 2 6 9
M  V30 9 1 8 10
M  V30 10 1 8 11
M  V30 11 2 10 12
M  V30 12 1 10 13
M  V30 13 1 11 14
M  V30 14 1 12 15
M  V30 15 1 13 16
M  V30 16 1 15 17
M  V30 17 1 15 18
M  V30 18 1 16 19
M  V30 19 1 6 8
M  V30 20 1 16 17
M  V30 21 1 18 19
M  V30 22 1 3 20
M  V30 23 1 4 21
M  V30 24 1 11 22
M  V30 25 1 11 23
M  V30 26 1 12 24
M  V30 27 1 13 25
M  V30 28 1 13 26
M  V30 29 1 14 27
M  V30 30 1 14 28
M  V30 31 1 14 29
M  V30 32 1 15 30
M  V30 33 1 16 31
M  V30 34 1 17 32
M  V30 35 1 17 33
M  V30 36 1 18 34
M  V30 37 1 18 35
M  V30 38 1 19 36
M  V30 39 1 19 37
M  V30 END BOND
M  V30 BEGIN COLLECTION
M  V30 MDLV30/STEABS ATOMS=(2 15 16)
M  V30 END COLLECTION
M  V30 END CTAB
M  END
>  <Structure No>
4496

>  <LogS>
-2.7696

>  <MMFF94 Energy>
-70.388

$$$$
Compound 4497
Actelion Java MolfileCreator 2.0

  0  0  0  0  0  0              0 V3000
M  V30 BEGIN CTAB
M  V30 COUNTS 15 14 0 0 0
M  V30 BEGIN ATOM
M  V30 1 O -2.42 -0.9674 -0.9674 0
M  V30 2 C -1.5857 -0.6415 -0.0821 0
M  V30 3 O -1.6015 -1.2971 1.1439 0 CHG=-1
M  V30 4 C -0.5488 0.4104 -0.3779 0 CFG=2
M  V30 5 C 0.7506 -0.2154 -0.9253 0
M  V30 6 C -0.2958 1.3047 0.8436 0
M  V30 7 C 1.43 -1.1274 0.0542 0
M  V30 8 O 1.1264 -2.3486 0.0999 0
M  V30 9 O 2.382 -0.6227 0.9312 0 CHG=-1
M  V30 10 H -0.9546 1.0696 -1.1778 0
M  V30 11 H 0.5221 -0.7834 -1.8537 0
M  V30 12 H 1.4564 0.5947 -1.21 0
M  V30 13 H 0.4457 2.0926 0.5926 0
M  V30 14 H -1.2404 1.8031 1.1501 0
M  V30 15 H 0.0869 0.7145 1.7029 0
M  V30 END ATOM
M  V30 BEGIN BOND
M  V30 1 2 1 2
M  V30 2 1 2 3
M  V30 3 1 2 4
M  V30 4 1 4 5
M  V30 5 1 4 6
M  V30 6 1 5 7
M  V30 7 2 7 8
M  V30 8 1 7 9
M  V30 9 1 4 10
M  V30 10 1 5 11
M  V30 11 1 5 12
M  V30 12 1 6 13
M  V30 13 1 6 14
M  V30 14 1 6 15
M  V30 END BOND
M  V30 BEGIN COLLECTION
M  V30 MDLV30/STEABS ATOMS=(1 4)
M  V30 END COLLECTION
M  V30 END CTAB
M  END
>  <Structure No>
4497

>  <LogS>
0.6311

>  <MMFF94 Energy>
65.862

$$$$
Compound 4498
Actelion Java MolfileCreator 2.0

  0  0  0  0  0  0              0 V3000
M  V30 BEGIN CTAB
M  V30 COUNTS 26 25 0 0 0
M  V30 BEGIN ATOM
M  V30 1 O -1.6417 -1.7981 1.8764 0
M  V30 2 C -1.7308 -0.5844 1.552 0
M  V30 3 O -1.6459 0.3889 2.5416 0 CHG=-1
M  V30 4 C -1.9757 -0.2051 0.1096 0 CFG=1
M  V30 5 N -2.1459 1.2471 -0.0484 0 CHG=1
M  V30 6 C -0.904 -0.7881 -0.8614 0 CFG=1
M  V30 7 O -1.4556 -0.7907 -2.1561 0
M  V30 8 C 0.4608 -0.0323 -0.9023 0 CFG=2
M  V30 9 O 1.2764 -0.5773 -1.9122 0
M  V30 10 C 1.2214 -0.0165 0.4506 0 CFG=1
M  V30 11 O 1.409 -1.3316 0.9087 0
M  V30 12 C 2.5849 0.684 0.334 0
M  V30 13 O 2.4121 2.0164 -0.0636 0
M  V30 14 H -2.944 -0.6862 -0.1596 0
M  V30 15 H -2.9989 1.5576 0.472 0
M  V30 16 H -2.2802 1.4862 -1.0574 0
M  V30 17 H -1.3205 1.769 0.3241 0
M  V30 18 H -0.7119 -1.8445 -0.5559 0
M  V30 19 H -1.0483 -1.5485 -2.6521 0
M  V30 20 H 0.2591 1.0196 -1.195 0
M  V30 21 H 1.446 -1.5282 -1.6821 0
M  V30 22 H 0.6241 0.5607 1.1892 0
M  V30 23 H 1.5743 -1.2764 1.8863 0
M  V30 24 H 3.2319 0.1486 -0.3962 0
M  V30 25 H 3.0897 0.6606 1.3258 0
M  V30 26 H 3.3228 2.4052 -0.1271 0
M  V30 END ATOM
M  V30 BEGIN BOND
M  V30 1 2 1 2
M  V30 2 1 2 3
M  V30 3 1 2 4
M  V30 4 1 4 5
M  V30 5 1 4 6
M  V30 6 1 6 7
M  V30 7 1 6 8
M  V30 8 1 8 9
M  V30 9 1 8 10
M  V30 10 1 10 11
M  V30 11 1 10 12
M  V30 12 1 12 13
M  V30 13 1 4 14
M  V30 14 1 5 15
M  V30 15 1 5 16
M  V30 16 1 5 17
M  V30 17 1 6 18
M  V30 18 1 7 19
M  V30 19 1 8 20
M  V30 20 1 9 21
M  V30 21 1 10 22
M  V30 22 1 11 23
M  V30 23 1 12 24
M  V30 24 1 12 25
M  V30 25 1 13 26
M  V30 END BOND
M  V30 BEGIN COLLECTION
M  V30 MDLV30/STEABS ATOMS=(4 4 6 8 10)
M  V30 END COLLECTION
M  V30 END CTAB
M  END
>  <Structure No>
4498

>  <LogS>
-0.859

>  <MMFF94 Energy>
34.875

$$$$
Compound 4499
Actelion Java MolfileCreator 2.0

  0  0  0  0  0  0              0 V3000
M  V30 BEGIN CTAB
M  V30 COUNTS 34 35 0 0 0
M  V30 BEGIN ATOM
M  V30 1 N -0.7056 0.0 -0.3135 0 CHG=1
M  V30 2 C -1.5412 -0.0712 0.894 0
M  V30 3 C 0.7206 -0.0646 0.0384 0
M  V30 4 C -3.0019 -0.0046 0.5289 0
M  V30 5 C 1.5951 0.0096 -1.2196 0
M  V30 6 C -3.7128 -1.1797 0.2334 0
M  V30 7 C -3.6492 1.2375 0.4201 0
M  V30 8 C 3.0544 -0.0568 -0.856 0
M  V30 9 C -5.0589 -1.1132 -0.1398 0
M  V30 10 C -4.9955 1.2996 0.0466 0
M  V30 11 C 3.7664 1.1187 -0.5638 0
M  V30 12 C 3.7027 -1.2988 -0.7505 0
M  V30 13 C -5.7004 0.1252 -0.2309 0
M  V30 14 C 5.1135 1.0525 -0.1944 0
M  V30 15 C 5.05 -1.3604 -0.3808 0
M  V30 16 C 5.7554 -0.1857 -0.105 0
M  V30 17 H -0.8974 0.9013 -0.8119 0
M  V30 18 H -0.9422 -0.8028 -0.9436 0
M  V30 19 H -1.341 -1.0186 1.4443 0
M  V30 20 H -1.294 0.7686 1.5823 0
M  V30 21 H 0.9835 0.7835 0.7112 0
M  V30 22 H 0.9361 -1.0183 0.572 0
M  V30 23 H 1.3388 -0.8294 -1.9031 0
M  V30 24 H 1.3858 0.9558 -1.7652 0
M  V30 25 H -3.2247 -2.1447 0.2909 0
M  V30 26 H -3.1116 2.1555 0.623 0
M  V30 27 H -5.6039 -2.0216 -0.3619 0
M  V30 28 H -5.4913 2.2587 -0.0313 0
M  V30 29 H 3.278 2.0838 -0.6204 0
M  V30 30 H 3.165 -2.2169 -0.9525 0
M  V30 31 H -6.742 0.175 -0.5213 0
M  V30 32 H 5.6589 1.9611 0.0257 0
M  V30 33 H 5.5463 -2.3192 -0.3047 0
M  V30 34 H 6.7977 -0.2352 0.1822 0
M  V30 END ATOM
M  V30 BEGIN BOND
M  V30 1 1 1 2
M  V30 2 1 1 3
M  V30 3 1 2 4
M  V30 4 1 3 5
M  V30 5 2 4 6
M  V30 6 1 4 7
M  V30 7 1 5 8
M  V30 8 1 6 9
M  V30 9 2 7 10
M  V30 10 2 8 11
M  V30 11 1 8 12
M  V30 12 2 9 13
M  V30 13 1 11 14
M  V30 14 2 12 15
M  V30 15 2 14 16
M  V30 16 1 10 13
M  V30 17 1 15 16
M  V30 18 1 1 17
M  V30 19 1 1 18
M  V30 20 1 2 19
M  V30 21 1 2 20
M  V30 22 1 3 21
M  V30 23 1 3 22
M  V30 24 1 5 23
M  V30 25 1 5 24
M  V30 26 1 6 25
M  V30 27 1 7 26
M  V30 28 1 9 27
M  V30 29 1 10 28
M  V30 30 1 11 29
M  V30 31 1 12 30
M  V30 32 1 13 31
M  V30 33 1 14 32
M  V30 34 1 15 33
M  V30 35 1 16 34
M  V30 END BOND
M  V30 END CTAB
M  END
>  <Structure No>
4499

>  <LogS>
-2.7229

>  <MMFF94 Energy>
43.108

$$$$
Compound 4500
Actelion Java MolfileCreator 2.0

  0  0  0  0  0  0              0 V3000
M  V30 BEGIN CTAB
M  V30 COUNTS 25 25 0 0 0
M  V30 BEGIN ATOM
M  V30 1 O 3.2157 -1.0971 -0.8619 0
M  V30 2 C 3.3714 -0.2059 0.016 0
M  V30 3 N 2.2763 0.6363 0.4079 0
M  V30 4 C 4.7338 0.0364 0.5789 0
M  V30 5 C 0.9012 0.3814 0.0721 0
M  V30 6 C 0.3954 -0.9282 -0.0094 0
M  V30 7 C 0.0278 1.4629 -0.1156 0
M  V30 8 C -0.9513 -1.148 -0.3139 0
M  V30 9 C -1.3185 1.2434 -0.421 0
M  V30 10 C -1.814 -0.0641 -0.5376 0
M  V30 11 C -3.2709 -0.3009 -0.832 0
M  V30 12 C -4.0796 -0.3671 0.4594 0
M  V30 13 H 2.5048 1.5315 0.8972 0
M  V30 14 H 5.2181 0.8694 0.0282 0
M  V30 15 H 4.6568 0.3043 1.6536 0
M  V30 16 H 5.3591 -0.8764 0.484 0
M  V30 17 H 1.0301 -1.7811 0.1897 0
M  V30 18 H 0.3936 2.4787 -0.0318 0
M  V30 19 H -1.3242 -2.1636 -0.3653 0
M  V30 20 H -1.9754 2.0926 -0.5634 0
M  V30 21 H -3.3978 -1.2524 -1.393 0
M  V30 22 H -3.6693 0.5159 -1.4724 0
M  V30 23 H -3.7172 -1.2004 1.0989 0
M  V30 24 H -5.1495 -0.5421 0.2198 0
M  V30 25 H -3.9919 0.589 1.0186 0
M  V30 END ATOM
M  V30 BEGIN BOND
M  V30 1 2 1 2
M  V30 2 1 2 3
M  V30 3 1 2 4
M  V30 4 1 3 5
M  V30 5 2 5 6
M  V30 6 1 5 7
M  V30 7 1 6 8
M  V30 8 2 7 9
M  V30 9 2 8 10
M  V30 10 1 10 11
M  V30 11 1 11 12
M  V30 12 1 9 10
M  V30 13 1 3 13
M  V30 14 1 4 14
M  V30 15 1 4 15
M  V30 16 1 4 16
M  V30 17 1 6 17
M  V30 18 1 7 18
M  V30 19 1 8 19
M  V30 20 1 9 20
M  V30 21 1 11 21
M  V30 22 1 11 22
M  V30 23 1 12 23
M  V30 24 1 12 24
M  V30 25 1 12 25
M  V30 END BOND
M  V30 END CTAB
M  END
>  <Structure No>
4500

>  <LogS>
-2.1453

>  <MMFF94 Energy>
1.6698

$$$$
Compound 4501
Actelion Java MolfileCreator 2.0

  0  0  0  0  0  0              0 V3000
M  V30 BEGIN CTAB
M  V30 COUNTS 35 34 0 0 0
M  V30 BEGIN ATOM
M  V30 1 O 6.0432 1.8021 -2.0373 0
M  V30 2 C 5.9064 1.1934 -0.9436 0
M  V30 3 O 6.8945 0.3156 -0.5161 0 CHG=-1
M  V30 4 C 4.6624 1.3731 -0.1324 0
M  V30 5 C 3.6024 0.3466 -0.5416 0
M  V30 6 C 2.323 0.5171 0.2858 0
M  V30 7 C 1.261 -0.5102 -0.1238 0
M  V30 8 C -0.0182 -0.3403 0.7041 0
M  V30 9 C -1.0863 -1.3594 0.2814 0
M  V30 10 C -2.3294 -1.3347 1.1887 0
M  V30 11 C -3.0919 0.0055 1.2173 0
M  V30 12 C -3.5623 0.5172 -0.1557 0
M  V30 13 C -4.5423 -0.4388 -0.8457 0
M  V30 14 O -5.039 0.1438 -2.0196 0
M  V30 15 H 4.9113 1.2496 0.9438 0
M  V30 16 H 4.27 2.4029 -0.282 0
M  V30 17 H 4.0056 -0.6792 -0.389 0
M  V30 18 H 3.3628 0.4756 -1.6206 0
M  V30 19 H 1.9205 1.5429 0.1333 0
M  V30 20 H 2.5626 0.3881 1.3645 0
M  V30 21 H 1.6646 -1.5356 0.0278 0
M  V30 22 H 1.0203 -0.3807 -1.2021 0
M  V30 23 H -0.4066 0.6897 0.5545 0
M  V30 24 H 0.2198 -0.479 1.7817 0
M  V30 25 H -1.378 -1.1906 -0.7765 0
M  V30 26 H -0.6499 -2.3807 0.3379 0
M  V30 27 H -2.0175 -1.5805 2.2272 0
M  V30 28 H -3.0202 -2.1443 0.8709 0
M  V30 29 H -3.9793 -0.1121 1.8767 0
M  V30 30 H -2.4543 0.7825 1.6897 0
M  V30 31 H -4.0721 1.4926 0.0021 0
M  V30 32 H -2.693 0.7113 -0.8182 0
M  V30 33 H -5.3808 -0.6987 -0.1596 0
M  V30 34 H -4.0188 -1.3772 -1.1223 0
M  V30 35 H -5.7295 0.8009 -1.7413 0
M  V30 END ATOM
M  V30 BEGIN BOND
M  V30 1 2 1 2
M  V30 2 1 2 3
M  V30 3 1 2 4
M  V30 4 1 4 5
M  V30 5 1 5 6
M  V30 6 1 6 7
M  V30 7 1 7 8
M  V30 8 1 8 9
M  V30 9 1 9 10
M  V30 10 1 10 11
M  V30 11 1 11 12
M  V30 12 1 12 13
M  V30 13 1 13 14
M  V30 14 1 4 15
M  V30 15 1 4 16
M  V30 16 1 5 17
M  V30 17 1 5 18
M  V30 18 1 6 19
M  V30 19 1 6 20
M  V30 20 1 7 21
M  V30 21 1 7 22
M  V30 22 1 8 23
M  V30 23 1 8 24
M  V30 24 1 9 25
M  V30 25 1 9 26
M  V30 26 1 10 27
M  V30 27 1 10 28
M  V30 28 1 11 29
M  V30 29 1 11 30
M  V30 30 1 12 31
M  V30 31 1 12 32
M  V30 32 1 13 33
M  V30 33 1 13 34
M  V30 34 1 14 35
M  V30 END BOND
M  V30 END CTAB
M  END
>  <Structure No>
4501

>  <LogS>
-2.7039

>  <MMFF94 Energy>
5.2711

$$$$
Compound 4502
Actelion Java MolfileCreator 2.0

  0  0  0  0  0  0              0 V3000
M  V30 BEGIN CTAB
M  V30 COUNTS 41 43 0 0 0
M  V30 BEGIN ATOM
M  V30 1 O -4.6935 1.6165 2.021 0
M  V30 2 C -3.6646 1.0795 1.5323 0
M  V30 3 C -3.3656 1.2504 0.099 0
M  V30 4 C -2.7301 0.3138 2.4252 0
M  V30 5 C -2.2681 0.7051 -0.4633 0
M  V30 6 C -1.9349 -0.7368 1.6249 0 CFG=2
M  V30 7 O -1.9767 0.8708 -1.83 0
M  V30 8 C -1.2686 -0.056 0.3922 0 CFG=2
M  V30 9 C -2.8383 -1.9289 1.2499 0
M  V30 10 C -2.7985 1.564 -2.7646 0
M  V30 11 O -0.2656 0.8631 0.8528 0
M  V30 12 C -0.4499 -1.0279 -0.4334 0
M  V30 13 C 0.9949 0.487 0.4063 0
M  V30 14 O -0.9052 -1.9705 -1.1349 0
M  V30 15 C 0.9433 -0.6394 -0.3633 0
M  V30 16 C 2.1981 1.1354 0.6687 0
M  V30 17 C 2.0842 -1.2013 -0.9365 0
M  V30 18 C 3.3857 0.6016 0.1143 0
M  V30 19 O 1.9663 -2.3551 -1.7246 0
M  V30 20 C 3.321 -0.5621 -0.6844 0
M  V30 21 O 4.6405 1.1906 0.3285 0
M  V30 22 C 3.0627 -3.008 -2.3551 0
M  V30 23 C 4.8544 2.3622 1.1091 0
M  V30 24 H -4.069 1.8178 -0.495 0
M  V30 25 H -2.025 1.0337 2.8941 0
M  V30 26 H -3.3005 -0.1733 3.2462 0
M  V30 27 H -1.1324 -1.1293 2.2894 0
M  V30 28 H -3.3833 -2.297 2.1451 0
M  V30 29 H -3.5814 -1.6438 0.4757 0
M  V30 30 H -2.2284 -2.7754 0.8736 0
M  V30 31 H -3.7986 1.0845 -2.823 0
M  V30 32 H -2.3244 1.5187 -3.7663 0
M  V30 33 H -2.8997 2.6293 -2.4681 0
M  V30 34 H 2.2018 2.0253 1.2829 0
M  V30 35 H 4.2381 -0.9556 -1.1017 0
M  V30 36 H 3.5574 -2.3178 -3.0708 0
M  V30 37 H 2.6873 -3.89 -2.9131 0
M  V30 38 H 3.7914 -3.3533 -1.5915 0
M  V30 39 H 4.2982 3.2186 0.6725 0
M  V30 40 H 5.9368 2.6047 1.1101 0
M  V30 41 H 4.5278 2.1882 2.1563 0
M  V30 END ATOM
M  V30 BEGIN BOND
M  V30 1 2 1 2
M  V30 2 1 2 3
M  V30 3 1 2 4
M  V30 4 2 3 5
M  V30 5 1 4 6
M  V30 6 1 5 7
M  V30 7 1 5 8
M  V30 8 1 6 9
M  V30 9 1 7 10
M  V30 10 1 8 11
M  V30 11 1 8 12
M  V30 12 1 11 13
M  V30 13 2 12 14
M  V30 14 1 12 15
M  V30 15 1 13 16
M  V30 16 1 15 17
M  V30 17 2 16 18
M  V30 18 1 17 19
M  V30 19 2 17 20
M  V30 20 1 18 21
M  V30 21 1 19 22
M  V30 22 1 21 23
M  V30 23 1 6 8
M  V30 24 2 13 15
M  V30 25 1 18 20
M  V30 26 1 3 24
M  V30 27 1 4 25
M  V30 28 1 4 26
M  V30 29 1 6 27
M  V30 30 1 9 28
M  V30 31 1 9 29
M  V30 32 1 9 30
M  V30 33 1 10 31
M  V30 34 1 10 32
M  V30 35 1 10 33
M  V30 36 1 16 34
M  V30 37 1 20 35
M  V30 38 1 22 36
M  V30 39 1 22 37
M  V30 40 1 22 38
M  V30 41 1 23 39
M  V30 42 1 23 40
M  V30 43 1 23 41
M  V30 END BOND
M  V30 BEGIN COLLECTION
M  V30 MDLV30/STEABS ATOMS=(2 6 8)
M  V30 END COLLECTION
M  V30 END CTAB
M  END
>  <Structure No>
4502

>  <LogS>
-3.699

>  <MMFF94 Energy>
90.4

$$$$
Compound 4503
Actelion Java MolfileCreator 2.0

  0  0  0  0  0  0              0 V3000
M  V30 BEGIN CTAB
M  V30 COUNTS 19 18 0 0 0
M  V30 BEGIN ATOM
M  V30 1 O -2.4995 0.7025 -0.9367 0
M  V30 2 C -1.7038 0.0312 -0.2271 0
M  V30 3 C -1.9494 -1.4105 -0.0611 0
M  V30 4 C -0.5487 0.7355 0.4473 0 CFG=2
M  V30 5 O -1.1949 -2.1221 0.6532 0
M  V30 6 O 0.6438 -0.0198 0.3212 0
M  V30 7 C -0.8548 0.9302 1.9316 0
M  V30 8 C 1.277 0.2545 -0.912 0
M  V30 9 C 2.4611 -0.6839 -1.0836 0
M  V30 10 H -2.7928 -1.8704 -0.5595 0
M  V30 11 H -0.4371 1.7596 0.0142 0
M  V30 12 H -0.9702 -0.0491 2.4428 0
M  V30 13 H -1.7893 1.5182 2.0591 0
M  V30 14 H -0.0225 1.4844 2.4153 0
M  V30 15 H 0.5814 0.0967 -1.7678 0
M  V30 16 H 1.6544 1.3018 -0.9285 0
M  V30 17 H 2.1124 -1.7385 -1.0816 0
M  V30 18 H 3.1853 -0.5377 -0.2541 0
M  V30 19 H 2.9703 -0.4742 -2.0479 0
M  V30 END ATOM
M  V30 BEGIN BOND
M  V30 1 2 1 2
M  V30 2 1 2 3
M  V30 3 1 2 4
M  V30 4 2 3 5
M  V30 5 1 4 6
M  V30 6 1 4 7
M  V30 7 1 6 8
M  V30 8 1 8 9
M  V30 9 1 3 10
M  V30 10 1 4 11
M  V30 11 1 7 12
M  V30 12 1 7 13
M  V30 13 1 7 14
M  V30 14 1 8 15
M  V30 15 1 8 16
M  V30 16 1 9 17
M  V30 17 1 9 18
M  V30 18 1 9 19
M  V30 END BOND
M  V30 BEGIN COLLECTION
M  V30 MDLV30/STEABS ATOMS=(1 4)
M  V30 END COLLECTION
M  V30 END CTAB
M  END
>  <Structure No>
4503

>  <LogS>
-0.1554

>  <MMFF94 Energy>
43.89

$$$$
Compound 4504
Actelion Java MolfileCreator 2.0

  0  0  0  0  0  0              0 V3000
M  V30 BEGIN CTAB
M  V30 COUNTS 41 44 0 0 0
M  V30 BEGIN ATOM
M  V30 1 Cl -6.0089 3.8657 -1.3147 0
M  V30 2 C -4.5841 2.9512 -0.8555 0
M  V30 3 C -3.8452 3.3253 0.2703 0
M  V30 4 C -4.1843 1.8496 -1.6169 0
M  V30 5 C -2.709 2.5984 0.6379 0
M  V30 6 C -3.0491 1.12 -1.253 0
M  V30 7 C -2.2996 1.4829 -0.1161 0
M  V30 8 C -1.0593 0.7027 0.2908 0 CFG=1
M  V30 9 C -1.3924 -0.7682 0.4819 0
M  V30 10 C 0.101 0.9217 -0.6618 0
M  V30 11 C -1.2495 -1.7079 -0.5602 0
M  V30 12 C -1.915 -1.1991 1.7152 0
M  V30 13 O -0.1079 1.4055 -1.808 0
M  V30 14 C 1.4837 0.547 -0.2933 0 CHG=-1
M  V30 15 C -1.5925 -3.0477 -0.3572 0
M  V30 16 C -2.2564 -2.5402 1.9124 0
M  V30 17 C 1.9715 -0.0576 0.9572 0
M  V30 18 C 2.6713 0.6673 -1.1489 0
M  V30 19 C -2.0926 -3.4642 0.8783 0
M  V30 20 O 1.2817 -0.3394 1.972 0
M  V30 21 C 3.4076 -0.2803 0.8275 0
M  V30 22 O 2.6969 1.1346 -2.3181 0
M  V30 23 C 3.8216 0.1486 -0.4178 0
M  V30 24 C 4.3067 -0.8285 1.7425 0
M  V30 25 C 5.1559 0.0518 -0.813 0
M  V30 26 C 5.6565 -0.9353 1.3656 0
M  V30 27 C 6.0793 -0.497 0.0933 0
M  V30 28 H -4.1497 4.1798 0.8615 0
M  V30 29 H -4.7509 1.5589 -2.4924 0
M  V30 30 H -2.1505 2.9077 1.5127 0
M  V30 31 H -2.7532 0.2766 -1.8624 0
M  V30 32 H -0.7185 1.0969 1.2736 0
M  V30 33 H -0.8752 -1.4082 -1.5304 0
M  V30 34 H -2.0571 -0.4946 2.5257 0
M  V30 35 H -1.4742 -3.7632 -1.1606 0
M  V30 36 H -2.6516 -2.8625 2.8672 0
M  V30 37 H -2.3587 -4.5019 1.0326 0
M  V30 38 H 3.9755 -1.1635 2.7171 0
M  V30 39 H 5.4733 0.3896 -1.791 0
M  V30 40 H 6.3757 -1.3567 2.0559 0
M  V30 41 H 7.1209 -0.5839 -0.1868 0
M  V30 END ATOM
M  V30 BEGIN BOND
M  V30 1 1 1 2
M  V30 2 2 2 3
M  V30 3 1 2 4
M  V30 4 1 3 5
M  V30 5 2 4 6
M  V30 6 2 5 7
M  V30 7 1 7 8
M  V30 8 1 8 9
M  V30 9 1 8 10
M  V30 10 2 9 11
M  V30 11 1 9 12
M  V30 12 2 10 13
M  V30 13 1 10 14
M  V30 14 1 11 15
M  V30 15 2 12 16
M  V30 16 1 14 17
M  V30 17 1 14 18
M  V30 18 2 15 19
M  V30 19 2 17 20
M  V30 20 1 17 21
M  V30 21 2 18 22
M  V30 22 1 18 23
M  V30 23 1 21 24
M  V30 24 1 23 25
M  V30 25 2 24 26
M  V30 26 2 25 27
M  V30 27 1 6 7
M  V30 28 1 16 19
M  V30 29 2 21 23
M  V30 30 1 26 27
M  V30 31 1 3 28
M  V30 32 1 4 29
M  V30 33 1 5 30
M  V30 34 1 6 31
M  V30 35 1 8 32
M  V30 36 1 11 33
M  V30 37 1 12 34
M  V30 38 1 15 35
M  V30 39 1 16 36
M  V30 40 1 19 37
M  V30 41 1 24 38
M  V30 42 1 25 39
M  V30 43 1 26 40
M  V30 44 1 27 41
M  V30 END BOND
M  V30 BEGIN COLLECTION
M  V30 MDLV30/STEABS ATOMS=(1 8)
M  V30 END COLLECTION
M  V30 END CTAB
M  END
>  <Structure No>
4504

>  <LogS>
-3.5738

>  <MMFF94 Energy>
70.732

$$$$
Compound 4505
Actelion Java MolfileCreator 2.0

  0  0  0  0  0  0              0 V3000
M  V30 BEGIN CTAB
M  V30 COUNTS 33 36 0 0 0
M  V30 BEGIN ATOM
M  V30 1 C 0.3215 0.3215 -0.0803 0
M  V30 2 C -0.5571 -0.7958 -0.2572 0
M  V30 3 C 1.736 0.0874 -0.1132 0
M  V30 4 C -0.263 1.617 0.07 0
M  V30 5 C -1.9472 -0.6614 0.0402 0
M  V30 6 C -0.0234 -2.0015 -0.7643 0
M  V30 7 C 2.2259 -1.1365 -0.6398 0
M  V30 8 C 2.6801 0.9747 0.4563 0
M  V30 9 C -1.6292 1.7337 0.3435 0
M  V30 10 C 0.4666 2.9101 -0.2122 0
M  V30 11 C -2.4632 0.6182 0.3618 0
M  V30 12 C -2.8421 -1.7619 0.0657 0
M  V30 13 C 1.3365 -2.1452 -1.0005 0
M  V30 14 C 3.6078 -1.3604 -0.757 0
M  V30 15 C 4.0519 0.7335 0.3509 0
M  V30 16 C -3.8272 0.7831 0.6576 0
M  V30 17 C -4.1941 -1.5814 0.3671 0
M  V30 18 C 4.5152 -0.4176 -0.2795 0
M  V30 19 C -4.6863 -0.3127 0.6576 0
M  V30 20 H -0.6433 -2.8408 -1.0346 0
M  V30 21 H 2.3789 1.8247 1.0447 0
M  V30 22 H -2.0559 2.7182 0.5066 0
M  V30 23 H 1.3237 2.7562 -0.8994 0
M  V30 24 H -0.2057 3.6285 -0.7292 0
M  V30 25 H 0.7942 3.3821 0.7372 0
M  V30 26 H -2.5222 -2.7766 -0.1061 0
M  V30 27 H 1.7009 -3.081 -1.4089 0
M  V30 28 H 3.9856 -2.2796 -1.1891 0
M  V30 29 H 4.7578 1.4333 0.78 0
M  V30 30 H -4.2295 1.7625 0.8897 0
M  V30 31 H -4.8617 -2.4334 0.3841 0
M  V30 32 H 5.5791 -0.6014 -0.3575 0
M  V30 33 H -5.7351 -0.179 0.8899 0
M  V30 END ATOM
M  V30 BEGIN BOND
M  V30 1 1 1 2
M  V30 2 2 1 3
M  V30 3 1 1 4
M  V30 4 1 2 5
M  V30 5 2 2 6
M  V30 6 1 3 7
M  V30 7 1 3 8
M  V30 8 2 4 9
M  V30 9 1 4 10
M  V30 10 1 5 11
M  V30 11 2 5 12
M  V30 12 1 6 13
M  V30 13 1 7 14
M  V30 14 2 8 15
M  V30 15 2 11 16
M  V30 16 1 12 17
M  V30 17 2 14 18
M  V30 18 1 16 19
M  V30 19 2 7 13
M  V30 20 1 9 11
M  V30 21 1 15 18
M  V30 22 2 17 19
M  V30 23 1 6 20
M  V30 24 1 8 21
M  V30 25 1 9 22
M  V30 26 1 10 23
M  V30 27 1 10 24
M  V30 28 1 10 25
M  V30 29 1 12 26
M  V30 30 1 13 27
M  V30 31 1 14 28
M  V30 32 1 15 29
M  V30 33 1 16 30
M  V30 34 1 17 31
M  V30 35 1 18 32
M  V30 36 1 19 33
M  V30 END BOND
M  V30 END CTAB
M  END
>  <Structure No>
4505

>  <LogS>
-6.592

>  <MMFF94 Energy>
88.147

$$$$
Compound 4506
Actelion Java MolfileCreator 2.0

  0  0  0  0  0  0              0 V3000
M  V30 BEGIN CTAB
M  V30 COUNTS 36 39 0 0 0
M  V30 BEGIN ATOM
M  V30 1 C 0.5621 -0.0802 -0.1605 0
M  V30 2 C -0.2224 1.1059 -0.2536 0
M  V30 3 C 1.9903 0.0412 -0.167 0
M  V30 4 C -0.1106 -1.335 -0.1166 0
M  V30 5 C -1.6162 1.0584 0.0418 0
M  V30 6 C 0.4104 2.2976 -0.6805 0
M  V30 7 C 2.5846 1.2564 -0.5923 0
M  V30 8 C 2.8478 -0.9647 0.3378 0
M  V30 9 C -1.4749 -1.3904 0.2587 0
M  V30 10 C 0.5353 -2.5858 -0.6864 0
M  V30 11 C -2.2353 -0.1949 0.3163 0
M  V30 12 C -2.4102 2.2329 0.1242 0
M  V30 13 C 1.7818 2.3531 -0.8918 0
M  V30 14 C 3.9817 1.3767 -0.6731 0
M  V30 15 C 4.2362 -0.8278 0.2704 0
M  V30 16 C -2.1281 -2.7292 0.5599 0
M  V30 17 C -3.6239 -0.2278 0.5963 0
M  V30 18 C -3.7701 2.167 0.4171 0
M  V30 19 C 4.8019 0.3294 -0.2583 0
M  V30 20 C -4.3763 0.9411 0.6437 0
M  V30 21 H -0.1346 3.1996 -0.9035 0
M  V30 22 H 2.4617 -1.8381 0.8385 0
M  V30 23 H 0.8652 -3.2642 0.1274 0
M  V30 24 H -0.188 -3.1307 -1.3296 0
M  V30 25 H 1.3894 -2.3452 -1.3524 0
M  V30 26 H -2.0051 3.2235 0.0036 0
M  V30 27 H 2.2233 3.2835 -1.2305 0
M  V30 28 H 4.4395 2.2928 -1.0279 0
M  V30 29 H 4.8756 -1.6158 0.6474 0
M  V30 30 H -1.395 -3.5458 0.7112 0
M  V30 31 H -2.8103 -3.0106 -0.2695 0
M  V30 32 H -2.6944 -2.6748 1.5129 0
M  V30 33 H -4.1549 -1.1531 0.7665 0
M  V30 34 H -4.3561 3.0757 0.4739 0
M  V30 35 H 5.8782 0.432 -0.3077 0
M  V30 36 H -5.4358 0.8952 0.8621 0
M  V30 END ATOM
M  V30 BEGIN BOND
M  V30 1 1 1 2
M  V30 2 2 1 3
M  V30 3 1 1 4
M  V30 4 1 2 5
M  V30 5 2 2 6
M  V30 6 1 3 7
M  V30 7 1 3 8
M  V30 8 2 4 9
M  V30 9 1 4 10
M  V30 10 1 5 11
M  V30 11 2 5 12
M  V30 12 1 6 13
M  V30 13 1 7 14
M  V30 14 2 8 15
M  V30 15 1 9 16
M  V30 16 2 11 17
M  V30 17 1 12 18
M  V30 18 2 14 19
M  V30 19 1 17 20
M  V30 20 2 7 13
M  V30 21 1 9 11
M  V30 22 1 15 19
M  V30 23 2 18 20
M  V30 24 1 6 21
M  V30 25 1 8 22
M  V30 26 1 10 23
M  V30 27 1 10 24
M  V30 28 1 10 25
M  V30 29 1 12 26
M  V30 30 1 13 27
M  V30 31 1 14 28
M  V30 32 1 15 29
M  V30 33 1 16 30
M  V30 34 1 16 31
M  V30 35 1 16 32
M  V30 36 1 17 33
M  V30 37 1 18 34
M  V30 38 1 19 35
M  V30 39 1 20 36
M  V30 END BOND
M  V30 END CTAB
M  END
>  <Structure No>
4506

>  <LogS>
-7.0109

>  <MMFF94 Energy>
99.48

$$$$
Compound 4507
Actelion Java MolfileCreator 2.0

  0  0  0  0  0  0              0 V3000
M  V30 BEGIN CTAB
M  V30 COUNTS 36 39 0 0 0
M  V30 BEGIN ATOM
M  V30 1 C 0.8023 -0.4813 0.0802 0
M  V30 2 C 2.2282 -0.4856 0.2362 0
M  V30 3 C 0.0534 0.6815 0.4381 0
M  V30 4 C 0.1061 -1.5925 -0.4364 0
M  V30 5 C 2.8788 0.6954 0.6845 0
M  V30 6 C 3.0398 -1.6204 -0.0288 0
M  V30 7 C -1.3752 0.6777 0.3523 0
M  V30 8 C 0.7547 1.8321 0.8598 0
M  V30 9 C -1.277 -1.571 -0.6192 0
M  V30 10 C 2.1363 1.8364 0.9769 0
M  V30 11 C 4.275 0.731 0.834 0
M  V30 12 C 4.4267 -1.5671 0.1283 0
M  V30 13 C -2.0328 -0.435 -0.2449 0
M  V30 14 C -2.1922 1.8424 0.9064 0
M  V30 15 C -1.9139 -2.6907 -1.1852 0
M  V30 16 C 5.0427 -0.3954 0.5547 0
M  V30 17 C -3.4282 -0.451 -0.4963 0
M  V30 18 C -2.4352 2.9084 -0.1597 0
M  V30 19 C -3.2897 -2.688 -1.401 0
M  V30 20 C -4.0432 -1.5684 -1.0638 0
M  V30 21 H 0.6201 -2.4856 -0.7482 0
M  V30 22 H 2.6413 -2.5691 -0.3434 0
M  V30 23 H 0.2584 2.7646 1.0785 0
M  V30 24 H 2.6293 2.7454 1.3031 0
M  V30 25 H 4.7734 1.6327 1.1706 0
M  V30 26 H 5.0271 -2.4437 -0.079 0
M  V30 27 H -1.7053 2.2962 1.7928 0
M  V30 28 H -3.1604 1.4964 1.3205 0
M  V30 29 H -1.3452 -3.5689 -1.4676 0
M  V30 30 H 6.1179 -0.3615 0.6741 0
M  V30 31 H -4.0636 0.396 -0.2893 0
M  V30 32 H -1.4721 3.3157 -0.532 0
M  V30 33 H -3.0278 3.7406 0.2751 0
M  V30 34 H -2.9984 2.482 -1.0159 0
M  V30 35 H -3.7711 -3.5519 -1.8406 0
M  V30 36 H -5.11 -1.5624 -1.2484 0
M  V30 END ATOM
M  V30 BEGIN BOND
M  V30 1 2 1 2
M  V30 2 1 1 3
M  V30 3 1 1 4
M  V30 4 1 2 5
M  V30 5 1 2 6
M  V30 6 1 3 7
M  V30 7 2 3 8
M  V30 8 2 4 9
M  V30 9 2 5 10
M  V30 10 1 5 11
M  V30 11 2 6 12
M  V30 12 2 7 13
M  V30 13 1 7 14
M  V30 14 1 9 15
M  V30 15 2 11 16
M  V30 16 1 13 17
M  V30 17 1 14 18
M  V30 18 2 15 19
M  V30 19 2 17 20
M  V30 20 1 8 10
M  V30 21 1 9 13
M  V30 22 1 12 16
M  V30 23 1 19 20
M  V30 24 1 4 21
M  V30 25 1 6 22
M  V30 26 1 8 23
M  V30 27 1 10 24
M  V30 28 1 11 25
M  V30 29 1 12 26
M  V30 30 1 14 27
M  V30 31 1 14 28
M  V30 32 1 15 29
M  V30 33 1 16 30
M  V30 34 1 17 31
M  V30 35 1 18 32
M  V30 36 1 18 33
M  V30 37 1 18 34
M  V30 38 1 19 35
M  V30 39 1 20 36
M  V30 END BOND
M  V30 END CTAB
M  END
>  <Structure No>
4507

>  <LogS>
-6.796

>  <MMFF94 Energy>
74.989

$$$$
Compound 4508
Actelion Java MolfileCreator 2.0

  0  0  0  0  0  0              0 V3000
M  V30 BEGIN CTAB
M  V30 COUNTS 22 22 0 0 0
M  V30 BEGIN ATOM
M  V30 1 S -2.721 0.1699 -1.1047 0
M  V30 2 O -3.8588 -0.6277 -0.5306 0
M  V30 3 O -2.5849 -0.1657 -2.5635 0
M  V30 4 N -3.0479 1.8582 -0.9294 0
M  V30 5 C -1.2286 -0.2276 -0.2599 0
M  V30 6 C 0.0015 -0.1556 -0.9292 0
M  V30 7 C -1.2614 -0.5905 1.0934 0
M  V30 8 C 1.1923 -0.4624 -0.2551 0
M  V30 9 C -0.0749 -0.8886 1.769 0
M  V30 10 S 2.7365 -0.3594 -1.094 0
M  V30 11 C 1.1493 -0.8242 1.0982 0
M  V30 12 O 2.5439 -0.6631 -2.5534 0
M  V30 13 O 3.6974 -1.3607 -0.5158 0
M  V30 14 N 3.381 1.2346 -0.9167 0
M  V30 15 H -3.1771 2.0395 0.0912 0
M  V30 16 H -3.9692 2.0404 -1.387 0
M  V30 17 H 0.0324 0.1431 -1.9693 0
M  V30 18 H -2.2024 -0.6371 1.6266 0
M  V30 19 H -0.104 -1.1662 2.8148 0
M  V30 20 H 2.0617 -1.0507 1.635 0
M  V30 21 H 3.5387 1.388 0.1045 0
M  V30 22 H 4.3218 1.2361 -1.3707 0
M  V30 END ATOM
M  V30 BEGIN BOND
M  V30 1 2 1 2
M  V30 2 2 1 3
M  V30 3 1 1 4
M  V30 4 1 1 5
M  V30 5 2 5 6
M  V30 6 1 5 7
M  V30 7 1 6 8
M  V30 8 2 7 9
M  V30 9 1 8 10
M  V30 10 2 8 11
M  V30 11 2 10 12
M  V30 12 2 10 13
M  V30 13 1 10 14
M  V30 14 1 9 11
M  V30 15 1 4 15
M  V30 16 1 4 16
M  V30 17 1 6 17
M  V30 18 1 7 18
M  V30 19 1 9 19
M  V30 20 1 11 20
M  V30 21 1 14 21
M  V30 22 1 14 22
M  V30 END BOND
M  V30 END CTAB
M  END
>  <Structure No>
4508

>  <LogS>
-2.1693

>  <MMFF94 Energy>
-140.9

$$$$
Compound 4509
Actelion Java MolfileCreator 2.0

  0  0  0  0  0  0              0 V3000
M  V30 BEGIN CTAB
M  V30 COUNTS 18 18 0 0 0
M  V30 BEGIN ATOM
M  V30 1 O 0.4712 2.5155 -2.0435 0 CHG=-1
M  V30 2 N 0.2636 1.4503 -1.1979 0 CHG=1
M  V30 3 C 1.2229 1.124 -0.2883 0
M  V30 4 C -0.897 0.744 -1.2878 0
M  V30 5 C 1.0426 0.0318 0.5714 0
M  V30 6 C -1.1399 -0.3336 -0.4251 0
M  V30 7 C -0.1541 -0.6921 0.5028 0
M  V30 8 C 2.0837 -0.3122 1.5948 0
M  V30 9 C -2.4039 -1.1327 -0.5409 0
M  V30 10 H 2.1324 1.7109 -0.2353 0
M  V30 11 H -1.6378 1.023 -2.0279 0
M  V30 12 H -0.3177 -1.5313 1.169 0
M  V30 13 H 1.8783 0.2456 2.5323 0
M  V30 14 H 2.0741 -1.4017 1.8118 0
M  V30 15 H 3.0973 -0.044 1.228 0
M  V30 16 H -2.2514 -1.9618 -1.263 0
M  V30 17 H -2.6897 -1.5582 0.4446 0
M  V30 18 H -3.2407 -0.4932 -0.8944 0
M  V30 END ATOM
M  V30 BEGIN BOND
M  V30 1 1 1 2
M  V30 2 2 2 3
M  V30 3 1 2 4
M  V30 4 1 3 5
M  V30 5 2 4 6
M  V30 6 2 5 7
M  V30 7 1 5 8
M  V30 8 1 6 9
M  V30 9 1 6 7
M  V30 10 1 3 10
M  V30 11 1 4 11
M  V30 12 1 7 12
M  V30 13 1 8 13
M  V30 14 1 8 14
M  V30 15 1 8 15
M  V30 16 1 9 16
M  V30 17 1 9 17
M  V30 18 1 9 18
M  V30 END BOND
M  V30 END CTAB
M  END
>  <Structure No>
4509

>  <LogS>
0.9095

>  <MMFF94 Energy>
14.371

$$$$
Compound 4510
Actelion Java MolfileCreator 2.0

  0  0  0  0  0  0              0 V3000
M  V30 BEGIN CTAB
M  V30 COUNTS 17 17 0 0 0
M  V30 BEGIN ATOM
M  V30 1 N -0.694 1.2342 -0.2313 0
M  V30 2 C 0.0914 0.2645 0.3145 0
M  V30 3 C -1.999 1.0099 -0.5423 0
M  V30 4 C -0.4427 -1.0113 0.5471 0
M  V30 5 C 1.5361 0.5559 0.6065 0
M  V30 6 C -2.5673 -0.245 -0.3125 0
M  V30 7 C -1.7808 -1.2605 0.2343 0
M  V30 8 N 2.3784 0.1799 -0.5277 0 CHG=1
M  V30 9 H -2.5944 1.805 -0.9709 0
M  V30 10 H 0.1699 -1.8013 0.9636 0
M  V30 11 H 1.8598 -1.0E-4 1.5144 0
M  V30 12 H 1.6602 1.6412 0.8179 0
M  V30 13 H -3.6048 -0.4293 -0.5593 0
M  V30 14 H -2.2062 -2.2397 0.4124 0
M  V30 15 H 2.2941 -0.8462 -0.7128 0
M  V30 16 H 2.0944 0.7175 -1.379 0
M  V30 17 H 3.3748 0.4028 -0.3026 0
M  V30 END ATOM
M  V30 BEGIN BOND
M  V30 1 2 1 2
M  V30 2 1 1 3
M  V30 3 1 2 4
M  V30 4 1 2 5
M  V30 5 2 3 6
M  V30 6 2 4 7
M  V30 7 1 5 8
M  V30 8 1 6 7
M  V30 9 1 3 9
M  V30 10 1 4 10
M  V30 11 1 5 11
M  V30 12 1 5 12
M  V30 13 1 6 13
M  V30 14 1 7 14
M  V30 15 1 8 15
M  V30 16 1 8 16
M  V30 17 1 8 17
M  V30 END BOND
M  V30 END CTAB
M  END
>  <Structure No>
4510

>  <LogS>
0.966

>  <MMFF94 Energy>
13.707

$$$$
Compound 4511
Actelion Java MolfileCreator 2.0

  0  0  0  0  0  0              0 V3000
M  V30 BEGIN CTAB
M  V30 COUNTS 17 17 0 0 0
M  V30 BEGIN ATOM
M  V30 1 N -2.7023 0.3085 0.3856 0
M  V30 2 C -2.1547 -0.9351 0.4221 0
M  V30 3 C -1.9799 1.3942 0.0011 0
M  V30 4 C -0.8194 -1.124 0.0579 0
M  V30 5 C -0.6412 1.2496 -0.371 0
M  V30 6 C -0.0544 -0.0238 -0.3555 0
M  V30 7 C 1.3971 -0.1983 -0.7183 0
M  V30 8 N 2.2463 -0.0486 0.4622 0 CHG=1
M  V30 9 H -2.7552 -1.7778 0.7376 0
M  V30 10 H -2.444 2.3714 -0.0121 0
M  V30 11 H -0.3865 -2.1159 0.0983 0
M  V30 12 H -0.0688 2.1198 -0.6672 0
M  V30 13 H 1.6898 0.553 -1.4851 0
M  V30 14 H 1.558 -1.2034 -1.1677 0
M  V30 15 H 2.1259 0.9064 0.872 0
M  V30 16 H 3.246 -0.1739 0.1831 0
M  V30 17 H 2.0 -0.773 1.1755 0
M  V30 END ATOM
M  V30 BEGIN BOND
M  V30 1 2 1 2
M  V30 2 1 1 3
M  V30 3 1 2 4
M  V30 4 2 3 5
M  V30 5 2 4 6
M  V30 6 1 6 7
M  V30 7 1 7 8
M  V30 8 1 5 6
M  V30 9 1 2 9
M  V30 10 1 3 10
M  V30 11 1 4 11
M  V30 12 1 5 12
M  V30 13 1 7 13
M  V30 14 1 7 14
M  V30 15 1 8 15
M  V30 16 1 8 16
M  V30 17 1 8 17
M  V30 END BOND
M  V30 END CTAB
M  END
>  <Structure No>
4511

>  <LogS>
0.966

>  <MMFF94 Energy>
7.1089

$$$$
Compound 4512
Actelion Java MolfileCreator 2.0

  0  0  0  0  0  0              0 V3000
M  V30 BEGIN CTAB
M  V30 COUNTS 20 21 0 0 0
M  V30 BEGIN ATOM
M  V30 1 Cl 3.5194 2.4291 1.7585 0
M  V30 2 C 2.7629 1.1354 0.8515 0
M  V30 3 N 1.4084 1.0419 0.8126 0
M  V30 4 C 3.5437 0.2026 0.1701 0
M  V30 5 C 0.7874 0.0488 0.1171 0
M  V30 6 C 2.898 -0.8098 -0.5386 0
M  V30 7 N 1.5411 -0.8674 -0.5517 0
M  V30 8 C -0.694 -0.0337 0.0888 0
M  V30 9 Cl 3.8279 -2.0094 -1.4132 0
M  V30 10 C -1.479 0.9111 0.7789 0
M  V30 11 C -1.342 -1.0584 -0.6287 0
M  V30 12 C -2.8747 0.8304 0.7501 0
M  V30 13 C -2.7382 -1.1336 -0.6535 0
M  V30 14 C -3.5037 -0.1903 0.035 0
M  V30 15 H 4.6245 0.263 0.1908 0
M  V30 16 H -1.0174 1.713 1.3413 0
M  V30 17 H -0.7729 -1.8027 -1.1712 0
M  V30 18 H -3.4693 1.5611 1.2835 0
M  V30 19 H -3.227 -1.9245 -1.2075 0
M  V30 20 H -4.5842 -0.2506 0.0143 0
M  V30 END ATOM
M  V30 BEGIN BOND
M  V30 1 1 1 2
M  V30 2 2 2 3
M  V30 3 1 2 4
M  V30 4 1 3 5
M  V30 5 2 4 6
M  V30 6 2 5 7
M  V30 7 1 5 8
M  V30 8 1 6 9
M  V30 9 2 8 10
M  V30 10 1 8 11
M  V30 11 1 10 12
M  V30 12 2 11 13
M  V30 13 2 12 14
M  V30 14 1 6 7
M  V30 15 1 13 14
M  V30 16 1 4 15
M  V30 17 1 10 16
M  V30 18 1 11 17
M  V30 19 1 12 18
M  V30 20 1 13 19
M  V30 21 1 14 20
M  V30 END BOND
M  V30 END CTAB
M  END
>  <Structure No>
4512

>  <LogS>
-4.9544

>  <MMFF94 Energy>
-34.872

$$$$
Compound 4513
Actelion Java MolfileCreator 2.0

  0  0  0  0  0  0              0 V3000
M  V30 BEGIN CTAB
M  V30 COUNTS 30 30 0 0 0
M  V30 BEGIN ATOM
M  V30 1 C -1.5656 -0.3129 -1.5656 0
M  V30 2 C -2.183 -1.3788 -0.6556 0
M  V30 3 C -2.192 1.0276 -1.1494 0
M  V30 4 C -0.0164 -0.2983 -1.5419 0
M  V30 5 C -2.6896 -0.6397 0.5704 0
M  V30 6 C -3.0355 0.7622 0.0953 0
M  V30 7 C 0.608 -0.1144 -0.1452 0
M  V30 8 C 2.132 0.0232 -0.242 0
M  V30 9 C 2.7595 0.1873 1.1471 0
M  V30 10 C 4.2762 0.3261 1.0542 0
M  V30 11 H -1.8683 -0.5331 -2.6145 0
M  V30 12 H -1.4711 -2.1871 -0.3821 0
M  V30 13 H -3.0494 -1.8462 -1.1745 0
M  V30 14 H -2.8416 1.4153 -1.965 0
M  V30 15 H -1.4269 1.8057 -0.9398 0
M  V30 16 H 0.3516 -1.2548 -1.9737 0
M  V30 17 H 0.3341 0.5177 -2.2116 0
M  V30 18 H -1.8885 -0.5877 1.3392 0
M  V30 19 H -3.5757 -1.1477 1.0096 0
M  V30 20 H -4.1156 0.8078 -0.1673 0
M  V30 21 H -2.8273 1.5118 0.8897 0
M  V30 22 H 0.1954 0.7919 0.3458 0
M  V30 23 H 0.3716 -0.9953 0.4882 0
M  V30 24 H 2.553 -0.8828 -0.7313 0
M  V30 25 H 2.3826 0.9104 -0.8647 0
M  V30 26 H 2.3453 1.0933 1.6413 0
M  V30 27 H 2.5174 -0.6978 1.7751 0
M  V30 28 H 4.5456 1.2199 0.452 0
M  V30 29 H 4.7185 -0.5789 0.586 0
M  V30 30 H 4.702 0.4429 2.0731 0
M  V30 END ATOM
M  V30 BEGIN BOND
M  V30 1 1 1 2
M  V30 2 1 1 3
M  V30 3 1 1 4
M  V30 4 1 2 5
M  V30 5 1 3 6
M  V30 6 1 4 7
M  V30 7 1 7 8
M  V30 8 1 8 9
M  V30 9 1 9 10
M  V30 10 1 5 6
M  V30 11 1 1 11
M  V30 12 1 2 12
M  V30 13 1 2 13
M  V30 14 1 3 14
M  V30 15 1 3 15
M  V30 16 1 4 16
M  V30 17 1 4 17
M  V30 18 1 5 18
M  V30 19 1 5 19
M  V30 20 1 6 20
M  V30 21 1 6 21
M  V30 22 1 7 22
M  V30 23 1 7 23
M  V30 24 1 8 24
M  V30 25 1 8 25
M  V30 26 1 9 26
M  V30 27 1 9 27
M  V30 28 1 10 28
M  V30 29 1 10 29
M  V30 30 1 10 30
M  V30 END BOND
M  V30 END CTAB
M  END
>  <Structure No>
4513

>  <LogS>
-6.0863

>  <MMFF94 Energy>
6.7946

$$$$
Compound 4514
Actelion Java MolfileCreator 2.0

  0  0  0  0  0  0              0 V3000
M  V30 BEGIN CTAB
M  V30 COUNTS 43 44 0 0 0
M  V30 BEGIN ATOM
M  V30 1 O -3.0832 -0.0789 2.2128 0
M  V30 2 C -4.299 -0.0482 1.5183 0
M  V30 3 C -4.223 -0.9358 0.2752 0
M  V30 4 N -3.2951 -0.3795 -0.7263 0
M  V30 5 C -1.8703 -0.3788 -0.488 0
M  V30 6 C -3.8073 0.0074 -2.0508 0
M  V30 7 C -1.2164 -1.5363 -0.0316 0
M  V30 8 C -1.1162 0.7805 -0.7208 0
M  V30 9 C -4.7336 1.2276 -1.9753 0
M  V30 10 C 0.1675 -1.5332 0.2105 0
M  V30 11 C 0.2595 0.7923 -0.487 0
M  V30 12 O -4.0153 2.3813 -1.6336 0
M  V30 13 C 0.9131 -0.3604 -0.0189 0
M  V30 14 C 0.8479 -2.7844 0.6952 0
M  V30 15 N 2.3274 -0.362 0.2236 0
M  V30 16 N 3.0527 0.6663 0.0335 0
M  V30 17 C 4.4641 0.6573 0.2778 0
M  V30 18 C 5.1261 -0.4945 0.7437 0
M  V30 19 C 5.2003 1.8268 0.0463 0
M  V30 20 C 6.5059 -0.4675 0.9717 0
M  V30 21 C 6.5798 1.8498 0.2755 0
M  V30 22 C 7.2321 0.7035 0.7379 0
M  V30 23 H -3.1941 0.5298 2.9888 0
M  V30 24 H -4.5446 0.9947 1.2218 0
M  V30 25 H -5.1104 -0.4267 2.1791 0
M  V30 26 H -5.2453 -1.0244 -0.1525 0
M  V30 27 H -3.9217 -1.9632 0.5647 0
M  V30 28 H -2.9713 0.2303 -2.7499 0
M  V30 29 H -4.3689 -0.8477 -2.4855 0
M  V30 30 H -1.7777 -2.4487 0.1169 0
M  V30 31 H -1.5924 1.6829 -1.0756 0
M  V30 32 H -5.1861 1.3865 -2.9768 0
M  V30 33 H -5.5713 1.0548 -1.2629 0
M  V30 34 H 0.8121 1.7046 -0.6724 0
M  V30 35 H -3.9544 2.3984 -0.6436 0
M  V30 36 H 0.1203 -3.6037 0.8782 0
M  V30 37 H 1.3815 -2.5772 1.6468 0
M  V30 38 H 1.58 -3.129 -0.065 0
M  V30 39 H 4.5801 -1.4105 0.9304 0
M  V30 40 H 4.7033 2.7198 -0.3118 0
M  V30 41 H 7.012 -1.3547 1.3299 0
M  V30 42 H 7.1429 2.7563 0.0948 0
M  V30 43 H 8.2997 0.7225 0.9149 0
M  V30 END ATOM
M  V30 BEGIN BOND
M  V30 1 1 1 2
M  V30 2 1 2 3
M  V30 3 1 3 4
M  V30 4 1 4 5
M  V30 5 1 4 6
M  V30 6 2 5 7
M  V30 7 1 5 8
M  V30 8 1 6 9
M  V30 9 1 7 10
M  V30 10 2 8 11
M  V30 11 1 9 12
M  V30 12 2 10 13
M  V30 13 1 10 14
M  V30 14 1 13 15
M  V30 15 2 15 16
M  V30 16 1 16 17
M  V30 17 2 17 18
M  V30 18 1 17 19
M  V30 19 1 18 20
M  V30 20 2 19 21
M  V30 21 2 20 22
M  V30 22 1 11 13
M  V30 23 1 21 22
M  V30 24 1 1 23
M  V30 25 1 2 24
M  V30 26 1 2 25
M  V30 27 1 3 26
M  V30 28 1 3 27
M  V30 29 1 6 28
M  V30 30 1 6 29
M  V30 31 1 7 30
M  V30 32 1 8 31
M  V30 33 1 9 32
M  V30 34 1 9 33
M  V30 35 1 11 34
M  V30 36 1 12 35
M  V30 37 1 14 36
M  V30 38 1 14 37
M  V30 39 1 14 38
M  V30 40 1 18 39
M  V30 41 1 19 40
M  V30 42 1 20 41
M  V30 43 1 21 42
M  V30 44 1 22 43
M  V30 END BOND
M  V30 END CTAB
M  END
>  <Structure No>
4514

>  <LogS>
-4.1254

>  <MMFF94 Energy>
90.231

$$$$
Compound 4515
Actelion Java MolfileCreator 2.0

  0  0  0  0  0  0              0 V3000
M  V30 BEGIN CTAB
M  V30 COUNTS 34 35 0 0 0
M  V30 BEGIN ATOM
M  V30 1 S 0.8131 -1.0571 -2.4408 0
M  V30 2 O 0.4967 -2.5193 -2.2936 0
M  V30 3 O 1.4096 -0.8274 -3.8007 0
M  V30 4 N -0.6475 -0.1373 -2.288 0
M  V30 5 C 1.9681 -0.5417 -1.2152 0
M  V30 6 C -1.3569 -0.0467 -1.0463 0
M  V30 7 C 2.503 0.7518 -1.2671 0
M  V30 8 C 2.3287 -1.3987 -0.1654 0
M  V30 9 N -0.9061 -0.7089 0.0527 0
M  V30 10 C -2.5177 0.7277 -0.9526 0
M  V30 11 C 3.3963 1.1843 -0.2822 0
M  V30 12 C 3.2203 -0.9658 0.8206 0
M  V30 13 C -1.5522 -0.6215 1.2444 0
M  V30 14 C -3.1823 0.7955 0.2729 0
M  V30 15 C 3.759 0.3275 0.7666 0
M  V30 16 N -2.6887 0.117 1.345 0
M  V30 17 C -1.0464 -1.3829 2.4235 0
M  V30 18 O -4.3478 1.5596 0.3823 0
M  V30 19 N 4.6697 0.7708 1.7761 0
M  V30 20 C -5.0795 1.6772 1.5968 0
M  V30 21 H -1.0017 0.3706 -3.1291 0
M  V30 22 H 2.2237 1.4264 -2.0668 0
M  V30 23 H 1.9148 -2.3966 -0.102 0
M  V30 24 H -2.8985 1.2648 -1.8124 0
M  V30 25 H 3.8021 2.1868 -0.3341 0
M  V30 26 H 3.4882 -1.6359 1.6276 0
M  V30 27 H 0.0589 -1.4786 2.3705 0
M  V30 28 H -1.3132 -0.8553 3.3635 0
M  V30 29 H -1.5001 -2.3956 2.4314 0
M  V30 30 H 4.9446 0.1403 2.5621 0
M  V30 31 H 5.0753 1.7328 1.7451 0
M  V30 32 H -4.4391 2.1272 2.3847 0
M  V30 33 H -5.959 2.3326 1.4307 0
M  V30 34 H -5.4333 0.6771 1.926 0
M  V30 END ATOM
M  V30 BEGIN BOND
M  V30 1 2 1 2
M  V30 2 2 1 3
M  V30 3 1 1 4
M  V30 4 1 1 5
M  V30 5 1 4 6
M  V30 6 2 5 7
M  V30 7 1 5 8
M  V30 8 2 6 9
M  V30 9 1 6 10
M  V30 10 1 7 11
M  V30 11 2 8 12
M  V30 12 1 9 13
M  V30 13 2 10 14
M  V30 14 2 11 15
M  V30 15 2 13 16
M  V30 16 1 13 17
M  V30 17 1 14 18
M  V30 18 1 15 19
M  V30 19 1 18 20
M  V30 20 1 12 15
M  V30 21 1 14 16
M  V30 22 1 4 21
M  V30 23 1 7 22
M  V30 24 1 8 23
M  V30 25 1 10 24
M  V30 26 1 11 25
M  V30 27 1 12 26
M  V30 28 1 17 27
M  V30 29 1 17 28
M  V30 30 1 17 29
M  V30 31 1 19 30
M  V30 32 1 19 31
M  V30 33 1 20 32
M  V30 34 1 20 33
M  V30 35 1 20 34
M  V30 END BOND
M  V30 END CTAB
M  END
>  <Structure No>
4515

>  <LogS>
-2.543

>  <MMFF94 Energy>
-120.24

$$$$
Compound 4516
Actelion Java MolfileCreator 2.0

  0  0  0  0  0  0              0 V3000
M  V30 BEGIN CTAB
M  V30 COUNTS 20 21 0 0 0
M  V30 BEGIN ATOM
M  V30 1 Cl 0.5963 -2.4723 0.5963 0
M  V30 2 C -0.5757 -1.2111 0.2388 0
M  V30 3 C -0.2751 0.1712 0.0879 0
M  V30 4 C -1.9094 -1.6333 0.0792 0
M  V30 5 N 0.9491 0.7949 0.204 0
M  V30 6 C -1.3168 1.0494 -0.2254 0
M  V30 7 C -2.9286 -0.72 -0.2276 0
M  V30 8 C 0.8369 2.1308 -0.0414 0
M  V30 9 C 2.2454 0.1703 0.513 0
M  V30 10 S -0.7366 2.6139 -0.3828 0
M  V30 11 C -2.6345 0.6354 -0.3852 0
M  V30 12 O 1.8119 2.929 -0.021 0
M  V30 13 C 2.8207 -0.5054 -0.6945 0
M  V30 14 O 2.6744 -0.0011 -1.8392 0
M  V30 15 O 3.5839 -1.6559 -0.545 0 CHG=-1
M  V30 16 H -2.1613 -2.6806 0.19 0
M  V30 17 H -3.9466 -1.0675 -0.3471 0
M  V30 18 H 2.9767 0.9334 0.8551 0
M  V30 19 H 2.1483 -0.5287 1.366 0
M  V30 20 H -3.415 1.345 -0.6281 0
M  V30 END ATOM
M  V30 BEGIN BOND
M  V30 1 1 1 2
M  V30 2 2 2 3
M  V30 3 1 2 4
M  V30 4 1 3 5
M  V30 5 1 3 6
M  V30 6 2 4 7
M  V30 7 1 5 8
M  V30 8 1 5 9
M  V30 9 1 6 10
M  V30 10 2 6 11
M  V30 11 2 8 12
M  V30 12 1 9 13
M  V30 13 2 13 14
M  V30 14 1 13 15
M  V30 15 1 7 11
M  V30 16 1 8 10
M  V30 17 1 4 16
M  V30 18 1 7 17
M  V30 19 1 9 18
M  V30 20 1 9 19
M  V30 21 1 11 20
M  V30 END BOND
M  V30 END CTAB
M  END
>  <Structure No>
4516

>  <LogS>
-2.6087

>  <MMFF94 Energy>
54.026

$$$$
Compound 4517
Actelion Java MolfileCreator 2.0

  0  0  0  0  0  0              0 V3000
M  V30 BEGIN CTAB
M  V30 COUNTS 17 16 0 0 0
M  V30 BEGIN ATOM
M  V30 1 O -0.0768 2.0006 0.1537 0
M  V30 2 C -0.5707 0.8704 0.4148 0
M  V30 3 N -1.9371 0.5928 0.0916 0
M  V30 4 C 0.2911 -0.1919 1.0227 0
M  V30 5 N -2.7447 1.5716 -0.5092 0
M  V30 6 C 0.8195 -1.0955 -0.0472 0
M  V30 7 O 0.2297 -2.1822 -0.2933 0
M  V30 8 N 1.964 -0.7104 -0.8157 0
M  V30 9 N 2.4652 -1.5485 -1.8245 0
M  V30 10 H -2.3228 -0.3631 0.2688 0
M  V30 11 H -0.3018 -0.778 1.7577 0
M  V30 12 H 1.1387 0.2732 1.5709 0
M  V30 13 H -3.6734 1.1363 -0.7126 0
M  V30 14 H -2.9141 2.3142 0.2068 0
M  V30 15 H 2.4496 0.1901 -0.5981 0
M  V30 16 H 1.7633 -1.5527 -2.5992 0
M  V30 17 H 3.3294 -1.1023 -2.2078 0
M  V30 END ATOM
M  V30 BEGIN BOND
M  V30 1 2 1 2
M  V30 2 1 2 3
M  V30 3 1 2 4
M  V30 4 1 3 5
M  V30 5 1 4 6
M  V30 6 2 6 7
M  V30 7 1 6 8
M  V30 8 1 8 9
M  V30 9 1 3 10
M  V30 10 1 4 11
M  V30 11 1 4 12
M  V30 12 1 5 13
M  V30 13 1 5 14
M  V30 14 1 8 15
M  V30 15 1 9 16
M  V30 16 1 9 17
M  V30 END BOND
M  V30 END CTAB
M  END
>  <Structure No>
4517

>  <LogS>
-0.121

>  <MMFF94 Energy>
75.983

$$$$
Compound 4518
Actelion Java MolfileCreator 2.0

  0  0  0  0  0  0              0 V3000
M  V30 BEGIN CTAB
M  V30 COUNTS 23 22 0 0 0
M  V30 BEGIN ATOM
M  V30 1 N 1.6007 -0.9906 0.7619 0 CHG=1
M  V30 2 C 0.9709 0.1816 0.1298 0 CFG=2
M  V30 3 C -0.6081 0.092 0.1036 0
M  V30 4 C 1.6073 0.4117 -1.2577 0
M  V30 5 C -1.1141 -1.1801 -0.6143 0
M  V30 6 C -1.1641 0.0898 1.5486 0
M  V30 7 C -1.2037 1.3271 -0.6146 0
M  V30 8 H 1.4516 -1.8525 0.1903 0
M  V30 9 H 2.6312 -0.8311 0.845 0
M  V30 10 H 1.2409 -1.139 1.7298 0
M  V30 11 H 1.2411 1.0749 0.739 0
M  V30 12 H 1.3515 -0.4057 -1.9612 0
M  V30 13 H 2.7135 0.4468 -1.1643 0
M  V30 14 H 1.2952 1.3853 -1.6872 0
M  V30 15 H -0.7518 -1.2266 -1.6613 0
M  V30 16 H -0.7934 -2.0998 -0.0827 0
M  V30 17 H -2.2254 -1.1893 -0.6451 0
M  V30 18 H -0.9201 -0.8517 2.0819 0
M  V30 19 H -0.757 0.9455 2.1289 0
M  V30 20 H -2.2728 0.1729 1.5464 0
M  V30 21 H -0.9864 1.3057 -1.7031 0
M  V30 22 H -0.7938 2.2665 -0.1847 0
M  V30 23 H -2.3103 1.3537 -0.5106 0
M  V30 END ATOM
M  V30 BEGIN BOND
M  V30 1 1 1 2
M  V30 2 1 2 3
M  V30 3 1 2 4
M  V30 4 1 3 5
M  V30 5 1 3 6
M  V30 6 1 3 7
M  V30 7 1 1 8
M  V30 8 1 1 9
M  V30 9 1 1 10
M  V30 10 1 2 11
M  V30 11 1 4 12
M  V30 12 1 4 13
M  V30 13 1 4 14
M  V30 14 1 5 15
M  V30 15 1 5 16
M  V30 16 1 5 17
M  V30 17 1 6 18
M  V30 18 1 6 19
M  V30 19 1 6 20
M  V30 20 1 7 21
M  V30 21 1 7 22
M  V30 22 1 7 23
M  V30 END BOND
M  V30 BEGIN COLLECTION
M  V30 MDLV30/STEABS ATOMS=(1 2)
M  V30 END COLLECTION
M  V30 END CTAB
M  END
>  <Structure No>
4518

>  <LogS>
0.9861

>  <MMFF94 Energy>
16.511

$$$$
Compound 4519
Actelion Java MolfileCreator 2.0

  0  0  0  0  0  0              0 V3000
M  V30 BEGIN CTAB
M  V30 COUNTS 28 27 0 0 0
M  V30 BEGIN ATOM
M  V30 1 O 1.6352 2.4926 -0.1556 0
M  V30 2 C 1.7911 1.3989 0.4522 0
M  V30 3 N 3.1152 0.9309 0.7344 0
M  V30 4 C 0.5741 0.5887 0.8315 0 CFG=2
M  V30 5 N 4.2299 1.6903 0.3518 0
M  V30 6 O 0.6754 0.1239 2.1564 0
M  V30 7 C 0.3128 -0.5548 -0.185 0 CFG=1
M  V30 8 O 1.4486 -1.3827 -0.2512 0
M  V30 9 C -0.9297 -1.4267 0.1739 0 CFG=2
M  V30 10 O -1.0284 -2.5247 -0.7008 0
M  V30 11 C -2.2949 -0.684 0.2429 0 CFG=1
M  V30 12 O -2.3628 0.0722 1.4256 0
M  V30 13 C -2.5808 0.2137 -0.9773 0
M  V30 14 O -3.9139 0.6495 -0.9593 0
M  V30 15 H 3.2647 0.0053 1.1945 0
M  V30 16 H -0.2888 1.285 0.7975 0
M  V30 17 H 4.7824 1.1083 -0.3174 0
M  V30 18 H 4.8203 1.821 1.2041 0
M  V30 19 H 1.3011 -0.6448 2.1721 0
M  V30 20 H 0.1488 -0.0829 -1.1825 0
M  V30 21 H 1.4758 -1.775 -1.1628 0
M  V30 22 H -0.7496 -1.8572 1.1833 0
M  V30 23 H -1.0601 -2.1741 -1.6281 0
M  V30 24 H -3.0843 -1.4734 0.2743 0
M  V30 25 H -3.3223 0.1579 1.6661 0
M  V30 26 H -2.4254 -0.3586 -1.9143 0
M  V30 27 H -1.8923 1.0881 -0.9987 0
M  V30 28 H -3.9475 1.4498 -0.3728 0
M  V30 END ATOM
M  V30 BEGIN BOND
M  V30 1 2 1 2
M  V30 2 1 2 3
M  V30 3 1 2 4
M  V30 4 1 3 5
M  V30 5 1 4 6
M  V30 6 1 4 7
M  V30 7 1 7 8
M  V30 8 1 7 9
M  V30 9 1 9 10
M  V30 10 1 9 11
M  V30 11 1 11 12
M  V30 12 1 11 13
M  V30 13 1 13 14
M  V30 14 1 3 15
M  V30 15 1 4 16
M  V30 16 1 5 17
M  V30 17 1 5 18
M  V30 18 1 6 19
M  V30 19 1 7 20
M  V30 20 1 8 21
M  V30 21 1 9 22
M  V30 22 1 10 23
M  V30 23 1 11 24
M  V30 24 1 12 25
M  V30 25 1 13 26
M  V30 26 1 13 27
M  V30 27 1 14 28
M  V30 END BOND
M  V30 BEGIN COLLECTION
M  V30 MDLV30/STEABS ATOMS=(4 4 7 9 11)
M  V30 END COLLECTION
M  V30 END CTAB
M  END
>  <Structure No>
4519

>  <LogS>
-0.4985

>  <MMFF94 Energy>
141.06

$$$$
Compound 4520
Actelion Java MolfileCreator 2.0

  0  0  0  0  0  0              0 V3000
M  V30 BEGIN CTAB
M  V30 COUNTS 22 24 0 0 0
M  V30 BEGIN ATOM
M  V30 1 O 2.875 -0.0797 0.8778 0
M  V30 2 C 2.0625 -0.2437 -0.1405 0
M  V30 3 C 4.1035 -0.3064 0.473 0
M  V30 4 C 0.6064 -0.0736 -0.0647 0
M  V30 5 C 2.7798 -0.5933 -1.2672 0
M  V30 6 C 4.0985 -0.6332 -0.8682 0
M  V30 7 N -0.2188 -0.2482 -1.132 0
M  V30 8 N -0.041 0.272 1.0758 0
M  V30 9 C -1.4329 0.0052 -0.6113 0
M  V30 10 C -1.3279 0.3171 0.7114 0
M  V30 11 C -2.6639 -0.0256 -1.2628 0
M  V30 12 C -2.4396 0.6236 1.4931 0
M  V30 13 C -3.8119 0.2786 -0.5058 0
M  V30 14 C -3.7002 0.6019 0.8667 0
M  V30 15 H 4.9775 -0.2424 1.1073 0
M  V30 16 H 2.393 -0.7947 -2.2575 0
M  V30 17 H 4.9563 -0.8722 -1.4821 0
M  V30 18 H 0.3664 0.4598 2.0192 0
M  V30 19 H -2.7364 -0.2744 -2.3135 0
M  V30 20 H -2.3392 0.8692 2.5424 0
M  V30 21 H -4.7859 0.2648 -0.9776 0
M  V30 22 H -4.589 0.8341 1.4389 0
M  V30 END ATOM
M  V30 BEGIN BOND
M  V30 1 1 1 2
M  V30 2 1 1 3
M  V30 3 1 2 4
M  V30 4 2 2 5
M  V30 5 2 3 6
M  V30 6 2 4 7
M  V30 7 1 4 8
M  V30 8 1 7 9
M  V30 9 1 8 10
M  V30 10 1 9 11
M  V30 11 1 10 12
M  V30 12 2 11 13
M  V30 13 2 12 14
M  V30 14 1 5 6
M  V30 15 2 9 10
M  V30 16 1 13 14
M  V30 17 1 3 15
M  V30 18 1 5 16
M  V30 19 1 6 17
M  V30 20 1 8 18
M  V30 21 1 11 19
M  V30 22 1 12 20
M  V30 23 1 13 21
M  V30 24 1 14 22
M  V30 END BOND
M  V30 END CTAB
M  END
>  <Structure No>
4520

>  <LogS>
-3.414

>  <MMFF94 Energy>
11.851

$$$$
Compound 4521
Actelion Java MolfileCreator 2.0

  0  0  0  0  0  0              0 V3000
M  V30 BEGIN CTAB
M  V30 COUNTS 26 25 0 0 0
M  V30 BEGIN ATOM
M  V30 1 Cl 4.1634 -1.9067 -1.9934 0
M  V30 2 C 4.2262 -0.3122 -1.1959 0
M  V30 3 C 2.8386 0.3237 -1.1056 0
M  V30 4 S 1.8035 -0.4841 0.1096 0
M  V30 5 O 1.5058 -1.8924 -0.3229 0
M  V30 6 O 2.5037 -0.5058 1.4396 0
M  V30 7 C 0.2754 0.4263 0.2555 0
M  V30 8 C -0.6528 -0.2307 1.2765 0
M  V30 9 S -2.173 0.6939 1.4557 0
M  V30 10 O -1.8496 2.0628 1.9849 0
M  V30 11 O -3.0543 -0.0097 2.4487 0
M  V30 12 C -3.0477 0.8754 -0.099 0
M  V30 13 C -3.2785 -0.4588 -0.8106 0
M  V30 14 Cl -4.4488 -1.4793 0.0669 0
M  V30 15 H 4.8868 0.3454 -1.7992 0
M  V30 16 H 4.6746 -0.4183 -0.1857 0
M  V30 17 H 2.9507 1.3888 -0.8117 0
M  V30 18 H 2.339 0.2907 -2.097 0
M  V30 19 H 0.5083 1.4658 0.5699 0
M  V30 20 H -0.2118 0.4548 -0.7409 0
M  V30 21 H -0.8928 -1.2686 0.9639 0
M  V30 22 H -0.1506 -0.2721 2.2662 0
M  V30 23 H -2.4527 1.5386 -0.7614 0
M  V30 24 H -4.0231 1.3721 0.089 0
M  V30 25 H -2.3247 -1.0098 -0.9378 0
M  V30 26 H -3.6919 -0.2593 -1.8214 0
M  V30 END ATOM
M  V30 BEGIN BOND
M  V30 1 1 1 2
M  V30 2 1 2 3
M  V30 3 1 3 4
M  V30 4 2 4 5
M  V30 5 2 4 6
M  V30 6 1 4 7
M  V30 7 1 7 8
M  V30 8 1 8 9
M  V30 9 2 9 10
M  V30 10 2 9 11
M  V30 11 1 9 12
M  V30 12 1 12 13
M  V30 13 1 13 14
M  V30 14 1 2 15
M  V30 15 1 2 16
M  V30 16 1 3 17
M  V30 17 1 3 18
M  V30 18 1 7 19
M  V30 19 1 7 20
M  V30 20 1 8 21
M  V30 21 1 8 22
M  V30 22 1 12 23
M  V30 23 1 12 24
M  V30 24 1 13 25
M  V30 25 1 13 26
M  V30 END BOND
M  V30 END CTAB
M  END
>  <Structure No>
4521

>  <LogS>
-1.4486

>  <MMFF94 Energy>
-79.681

$$$$
Compound 4522
Actelion Java MolfileCreator 2.0

  0  0  0  0  0  0              0 V3000
M  V30 BEGIN CTAB
M  V30 COUNTS 40 42 0 0 0
M  V30 BEGIN ATOM
M  V30 1 O 2.7256 0.4126 2.9737 0
M  V30 2 C 2.622 0.1533 1.7435 0
M  V30 3 C 1.2952 -0.1833 1.1534 0
M  V30 4 C 3.8347 0.1876 0.8918 0
M  V30 5 C 0.1208 -0.2203 1.9433 0
M  V30 6 C 1.2086 -0.4713 -0.2274 0
M  V30 7 C 3.7379 -0.1 -0.4849 0
M  V30 8 C 5.0896 0.5062 1.445 0
M  V30 9 O 0.1829 0.0613 3.3103 0
M  V30 10 C -1.1146 -0.5401 1.3551 0
M  V30 11 C 2.4242 -0.4361 -1.0766 0
M  V30 12 C -0.0351 -0.7898 -0.7971 0
M  V30 13 C 4.8959 -0.0644 -1.284 0
M  V30 14 C 6.2303 0.5378 0.6403 0
M  V30 15 O -2.2652 -0.5737 2.1383 0 CHG=-1
M  V30 16 C -1.1965 -0.8257 -0.0162 0
M  V30 17 O 2.3396 -0.6933 -2.3093 0
M  V30 18 C 6.1336 0.2532 -0.7212 0
M  V30 19 C -2.5263 -1.1519 -0.6534 0
M  V30 20 N -3.4153 0.0316 -0.6287 0
M  V30 21 C -4.8322 -0.3773 -0.7515 0
M  V30 22 C -3.0526 0.9807 -1.704 0
M  V30 23 C -5.3484 -0.863 0.5667 0
M  V30 24 C -3.5354 2.3556 -1.362 0
M  V30 25 O -5.4786 -0.0607 1.5284 0
M  V30 26 O -5.671 -2.203 0.7394 0 CHG=-1
M  V30 27 O -4.3809 2.9333 -2.0948 0
M  V30 28 O -3.0517 2.9986 -0.2297 0 CHG=-1
M  V30 29 H 5.1903 0.7311 2.4995 0
M  V30 30 H -0.6349 0.0456 3.9077 0
M  V30 31 H -0.1051 -1.0058 -1.8563 0
M  V30 32 H 4.8456 -0.2817 -2.3436 0
M  V30 33 H 7.1911 0.7838 1.0739 0
M  V30 34 H 7.0196 0.2785 -1.3425 0
M  V30 35 H -2.9682 -1.9935 -0.0753 0
M  V30 36 H -2.3981 -1.5266 -1.6951 0
M  V30 37 H -5.4716 0.4812 -1.0545 0
M  V30 38 H -4.956 -1.1667 -1.5275 0
M  V30 39 H -3.4652 0.6516 -2.6855 0
M  V30 40 H -1.9498 1.0517 -1.8201 0
M  V30 END ATOM
M  V30 BEGIN BOND
M  V30 1 2 1 2
M  V30 2 1 2 3
M  V30 3 1 2 4
M  V30 4 2 3 5
M  V30 5 1 3 6
M  V30 6 2 4 7
M  V30 7 1 4 8
M  V30 8 1 5 9
M  V30 9 1 5 10
M  V30 10 1 6 11
M  V30 11 2 6 12
M  V30 12 1 7 13
M  V30 13 2 8 14
M  V30 14 1 10 15
M  V30 15 2 10 16
M  V30 16 2 11 17
M  V30 17 2 13 18
M  V30 18 1 16 19
M  V30 19 1 19 20
M  V30 20 1 20 21
M  V30 21 1 20 22
M  V30 22 1 21 23
M  V30 23 1 22 24
M  V30 24 2 23 25
M  V30 25 1 23 26
M  V30 26 2 24 27
M  V30 27 1 24 28
M  V30 28 1 7 11
M  V30 29 1 12 16
M  V30 30 1 14 18
M  V30 31 1 8 29
M  V30 32 1 9 30
M  V30 33 1 12 31
M  V30 34 1 13 32
M  V30 35 1 14 33
M  V30 36 1 18 34
M  V30 37 1 19 35
M  V30 38 1 19 36
M  V30 39 1 21 37
M  V30 40 1 21 38
M  V30 41 1 22 39
M  V30 42 1 22 40
M  V30 END BOND
M  V30 END CTAB
M  END
>  <Structure No>
4522

>  <LogS>
-1.8077

>  <MMFF94 Energy>
347.64

$$$$
Compound 4523
Actelion Java MolfileCreator 2.0

  0  0  0  0  0  0              0 V3000
M  V30 BEGIN CTAB
M  V30 COUNTS 19 19 0 0 0
M  V30 BEGIN ATOM
M  V30 1 Cl 2.1973 3.0935 -0.1626 0
M  V30 2 C 1.739 1.4024 -0.0326 0
M  V30 3 C 2.7185 0.4078 0.0911 0
M  V30 4 C 0.3834 1.0532 -0.0536 0
M  V30 5 O 4.0679 0.7571 0.1119 0
M  V30 6 C 2.3339 -0.935 0.1935 0
M  V30 7 C -0.0092 -0.293 0.0488 0
M  V30 8 C 0.9807 -1.2844 0.1727 0
M  V30 9 C -1.4436 -0.6567 0.0261 0
M  V30 10 O -1.792 -1.8665 0.1183 0
M  V30 11 O -2.4147 0.3432 -0.0977 0
M  V30 12 C -3.8087 0.0608 -0.1259 0
M  V30 13 H -0.3587 1.836 -0.1498 0
M  V30 14 H 4.7955 0.0573 0.2004 0
M  V30 15 H 3.0835 -1.71 0.2895 0
M  V30 16 H 0.7108 -2.3299 0.2536 0
M  V30 17 H -4.1151 -0.4368 0.8184 0
M  V30 18 H -4.3711 1.0114 -0.2299 0
M  V30 19 H -4.0465 -0.5944 -0.9904 0
M  V30 END ATOM
M  V30 BEGIN BOND
M  V30 1 1 1 2
M  V30 2 2 2 3
M  V30 3 1 2 4
M  V30 4 1 3 5
M  V30 5 1 3 6
M  V30 6 2 4 7
M  V30 7 2 6 8
M  V30 8 1 7 9
M  V30 9 2 9 10
M  V30 10 1 9 11
M  V30 11 1 11 12
M  V30 12 1 7 8
M  V30 13 1 4 13
M  V30 14 1 5 14
M  V30 15 1 6 15
M  V30 16 1 8 16
M  V30 17 1 12 17
M  V30 18 1 12 18
M  V30 19 1 12 19
M  V30 END BOND
M  V30 END CTAB
M  END
>  <Structure No>
4523

>  <LogS>
-2.873

>  <MMFF94 Energy>
27.363

$$$$
Compound 4524
Actelion Java MolfileCreator 2.0

  0  0  0  0  0  0              0 V3000
M  V30 BEGIN CTAB
M  V30 COUNTS 24 23 0 0 0
M  V30 BEGIN ATOM
M  V30 1 O 0.5394 0.9248 -1.619 0
M  V30 2 C 0.3362 -0.1045 -0.6783 0 CFG=2
M  V30 3 C -0.977 0.1385 0.15 0
M  V30 4 C 1.6132 -0.3229 0.1749 0
M  V30 5 C -0.8661 1.3751 1.0707 0
M  V30 6 C -1.3094 -1.0975 1.0177 0
M  V30 7 C -2.1538 0.3602 -0.8276 0
M  V30 8 C 2.8177 -0.6812 -0.6949 0
M  V30 9 H 0.8671 1.725 -1.1328 0
M  V30 10 H 0.1814 -1.0396 -1.2619 0
M  V30 11 H 1.4617 -1.1547 0.8923 0
M  V30 12 H 1.8593 0.5937 0.7511 0
M  V30 13 H -1.8213 1.5377 1.616 0
M  V30 14 H -0.6531 2.2951 0.4878 0
M  V30 15 H -0.0703 1.2409 1.8323 0
M  V30 16 H -2.3105 -0.989 1.489 0
M  V30 17 H -1.3174 -2.0218 0.4008 0
M  V30 18 H -0.5767 -1.2251 1.8411 0
M  V30 19 H -1.9951 1.2721 -1.4424 0
M  V30 20 H -2.2634 -0.5087 -1.5119 0
M  V30 21 H -3.1102 0.4889 -0.2753 0
M  V30 22 H 3.057 0.1491 -1.3923 0
M  V30 23 H 3.7022 -0.8617 -0.048 0
M  V30 24 H 2.6125 -1.6037 -1.2787 0
M  V30 END ATOM
M  V30 BEGIN BOND
M  V30 1 1 1 2
M  V30 2 1 2 3
M  V30 3 1 2 4
M  V30 4 1 3 5
M  V30 5 1 3 6
M  V30 6 1 3 7
M  V30 7 1 4 8
M  V30 8 1 1 9
M  V30 9 1 2 10
M  V30 10 1 4 11
M  V30 11 1 4 12
M  V30 12 1 5 13
M  V30 13 1 5 14
M  V30 14 1 5 15
M  V30 15 1 6 16
M  V30 16 1 6 17
M  V30 17 1 6 18
M  V30 18 1 7 19
M  V30 19 1 7 20
M  V30 20 1 7 21
M  V30 21 1 8 22
M  V30 22 1 8 23
M  V30 23 1 8 24
M  V30 END BOND
M  V30 BEGIN COLLECTION
M  V30 MDLV30/STEABS ATOMS=(1 2)
M  V30 END COLLECTION
M  V30 END CTAB
M  END
>  <Structure No>
4524

>  <LogS>
-1.1514

>  <MMFF94 Energy>
20.451

$$$$
Compound 4525
Actelion Java MolfileCreator 2.0

  0  0  0  0  0  0              0 V3000
M  V30 BEGIN CTAB
M  V30 COUNTS 12 11 0 0 0
M  V30 BEGIN ATOM
M  V30 1 Cl 1.1049 1.1049 -2.0405 0
M  V30 2 C 0.7168 0.3946 -0.4504 0 CFG=2
M  V30 3 C 1.1821 -1.0324 -0.4241 0
M  V30 4 C -0.7923 0.5012 -0.1915 0
M  V30 5 O 1.9931 -1.4167 0.4589 0
M  V30 6 O 0.7117 -1.9408 -1.3651 0 CHG=-1
M  V30 7 C -1.1452 0.0564 1.1954 0
M  V30 8 O -1.0131 0.8467 2.1668 0
M  V30 9 O -1.5793 -1.2438 1.4203 0 CHG=-1
M  V30 10 H 1.2644 0.9835 0.3185 0
M  V30 11 H -1.3535 -0.1094 -0.932 0
M  V30 12 H -1.1129 1.5583 -0.3179 0
M  V30 END ATOM
M  V30 BEGIN BOND
M  V30 1 1 1 2
M  V30 2 1 2 3
M  V30 3 1 2 4
M  V30 4 2 3 5
M  V30 5 1 3 6
M  V30 6 1 4 7
M  V30 7 2 7 8
M  V30 8 1 7 9
M  V30 9 1 2 10
M  V30 10 1 4 11
M  V30 11 1 4 12
M  V30 END BOND
M  V30 BEGIN COLLECTION
M  V30 MDLV30/STEABS ATOMS=(1 2)
M  V30 END COLLECTION
M  V30 END CTAB
M  END
>  <Structure No>
4525

>  <LogS>
-0.7953

>  <MMFF94 Energy>
87.665

$$$$
Compound 4526
Actelion Java MolfileCreator 2.0

  0  0  0  0  0  0              0 V3000
M  V30 BEGIN CTAB
M  V30 COUNTS 28 27 0 0 0
M  V30 BEGIN ATOM
M  V30 1 O -3.4011 0.7111 1.1854 0
M  V30 2 C -3.1963 1.3338 0.1077 0
M  V30 3 O -3.4297 2.7043 0.0481 0
M  V30 4 C -2.6547 0.6184 -1.1035 0 CFG=2
M  V30 5 C -3.3397 -0.7103 -1.3316 0
M  V30 6 C -1.1135 0.504 -1.0385 0
M  V30 7 O -2.7756 -1.6113 -2.008 0
M  V30 8 O -4.6422 -0.9153 -0.8893 0 CHG=-1
M  V30 9 C -0.5993 -0.3308 0.1526 0
M  V30 10 C 0.8998 -0.6534 0.0466 0
M  V30 11 C 1.7874 0.5846 0.2619 0
M  V30 12 C 3.2862 0.2556 0.1778 0
M  V30 13 C 3.7943 -0.5122 1.3981 0
M  V30 14 H -3.7777 3.2078 0.8555 0
M  V30 15 H -2.8953 1.2454 -1.9897 0
M  V30 16 H -0.7467 0.0611 -1.9906 0
M  V30 17 H -0.6919 1.5304 -0.9753 0
M  V30 18 H -0.7926 0.2063 1.1062 0
M  V30 19 H -1.1497 -1.2949 0.194 0
M  V30 20 H 1.1335 -1.4104 0.8246 0
M  V30 21 H 1.1173 -1.1102 -0.9435 0
M  V30 22 H 1.5588 1.0524 1.2448 0
M  V30 23 H 1.566 1.333 -0.5278 0
M  V30 24 H 3.5001 -0.3258 -0.7451 0
M  V30 25 H 3.8514 1.2107 0.1108 0
M  V30 26 H 3.5409 0.031 2.3334 0
M  V30 27 H 4.8985 -0.6114 1.3369 0
M  V30 28 H 3.3593 -1.5321 1.4326 0
M  V30 END ATOM
M  V30 BEGIN BOND
M  V30 1 2 1 2
M  V30 2 1 2 3
M  V30 3 1 2 4
M  V30 4 1 4 5
M  V30 5 1 4 6
M  V30 6 2 5 7
M  V30 7 1 5 8
M  V30 8 1 6 9
M  V30 9 1 9 10
M  V30 10 1 10 11
M  V30 11 1 11 12
M  V30 12 1 12 13
M  V30 13 1 3 14
M  V30 14 1 4 15
M  V30 15 1 6 16
M  V30 16 1 6 17
M  V30 17 1 9 18
M  V30 18 1 9 19
M  V30 19 1 10 20
M  V30 20 1 10 21
M  V30 21 1 11 22
M  V30 22 1 11 23
M  V30 23 1 12 24
M  V30 24 1 12 25
M  V30 25 1 13 26
M  V30 26 1 13 27
M  V30 27 1 13 28
M  V30 END BOND
M  V30 BEGIN COLLECTION
M  V30 MDLV30/STEABS ATOMS=(1 4)
M  V30 END COLLECTION
M  V30 END CTAB
M  END
>  <Structure No>
4526

>  <LogS>
-1.6566

>  <MMFF94 Energy>
-35.359

$$$$
Compound 4527
Actelion Java MolfileCreator 2.0

  0  0  0  0  0  0              0 V3000
M  V30 BEGIN CTAB
M  V30 COUNTS 18 18 0 0 0
M  V30 BEGIN ATOM
M  V30 1 Cl -0.6088 2.8727 0.0 0
M  V30 2 C -0.9896 1.1653 -0.2161 0
M  V30 3 C 0.0228 0.2539 -0.5784 0
M  V30 4 C -2.3165 0.7166 -0.0821 0
M  V30 5 O 1.3538 0.6688 -0.7021 0
M  V30 6 C -0.3079 -1.0848 -0.8432 0
M  V30 7 Cl -3.6124 1.8159 0.3731 0
M  V30 8 C -2.6273 -0.6253 -0.3228 0
M  V30 9 C 2.1691 0.9795 0.4266 0
M  V30 10 Cl 0.9276 -2.2316 -1.3387 0
M  V30 11 C -1.6289 -1.5206 -0.7083 0
M  V30 12 C 2.5315 -0.2688 1.1644 0
M  V30 13 O 3.5317 -0.9459 0.8097 0
M  V30 14 O 1.7327 -0.7153 2.2094 0 CHG=-1
M  V30 15 H -3.6474 -0.9741 -0.2218 0
M  V30 16 H 3.0953 1.4787 0.072 0
M  V30 17 H 1.6467 1.6787 1.1119 0
M  V30 18 H -1.8836 -2.5547 -0.9032 0
M  V30 END ATOM
M  V30 BEGIN BOND
M  V30 1 1 1 2
M  V30 2 2 2 3
M  V30 3 1 2 4
M  V30 4 1 3 5
M  V30 5 1 3 6
M  V30 6 1 4 7
M  V30 7 2 4 8
M  V30 8 1 5 9
M  V30 9 1 6 10
M  V30 10 2 6 11
M  V30 11 1 9 12
M  V30 12 2 12 13
M  V30 13 1 12 14
M  V30 14 1 8 11
M  V30 15 1 8 15
M  V30 16 1 9 16
M  V30 17 1 9 17
M  V30 18 1 11 18
M  V30 END BOND
M  V30 END CTAB
M  END
>  <Structure No>
4527

>  <LogS>
-2.6198

>  <MMFF94 Energy>
96.563

$$$$
Compound 4528
Actelion Java MolfileCreator 2.0

  0  0  0  0  0  0              0 V3000
M  V30 BEGIN CTAB
M  V30 COUNTS 21 21 0 0 0
M  V30 BEGIN ATOM
M  V30 1 O 0.7877 1.6548 1.4971 0
M  V30 2 C 0.5787 0.7047 0.6932 0
M  V30 3 C -0.8213 0.3059 0.3807 0
M  V30 4 C 1.7572 0.0025 0.0736 0
M  V30 5 C -1.1038 -0.7494 -0.5113 0
M  V30 6 C -1.899 0.9876 0.9811 0
M  V30 7 O 2.964 0.5738 0.5365 0
M  V30 8 C -2.4263 -1.1081 -0.791 0
M  V30 9 C -3.2188 0.6237 0.6968 0
M  V30 10 C 4.055 -0.096 -0.0539 0
M  V30 11 C -3.4822 -0.4227 -0.1881 0
M  V30 12 H 1.6788 0.1075 -1.0325 0
M  V30 13 H 1.7052 -1.0735 0.3564 0
M  V30 14 H -0.3112 -1.3022 -0.9964 0
M  V30 15 H -1.7241 1.8032 1.6714 0
M  V30 16 H -2.6321 -1.9195 -1.4772 0
M  V30 17 H -4.0383 1.1546 1.1639 0
M  V30 18 H 4.0435 0.0126 -1.1614 0
M  V30 19 H 4.9943 0.3622 0.3178 0
M  V30 20 H 4.07 -1.1715 0.2311 0
M  V30 21 H -4.5046 -0.7027 -0.4066 0
M  V30 END ATOM
M  V30 BEGIN BOND
M  V30 1 2 1 2
M  V30 2 1 2 3
M  V30 3 1 2 4
M  V30 4 2 3 5
M  V30 5 1 3 6
M  V30 6 1 4 7
M  V30 7 1 5 8
M  V30 8 2 6 9
M  V30 9 1 7 10
M  V30 10 2 8 11
M  V30 11 1 9 11
M  V30 12 1 4 12
M  V30 13 1 4 13
M  V30 14 1 5 14
M  V30 15 1 6 15
M  V30 16 1 8 16
M  V30 17 1 9 17
M  V30 18 1 10 18
M  V30 19 1 10 19
M  V30 20 1 10 20
M  V30 21 1 11 21
M  V30 END BOND
M  V30 END CTAB
M  END
>  <Structure No>
4528

>  <LogS>
-0.7616

>  <MMFF94 Energy>
65.164

$$$$
Compound 4529
Actelion Java MolfileCreator 2.0

  0  0  0  0  0  0              0 V3000
M  V30 BEGIN CTAB
M  V30 COUNTS 30 32 0 0 0
M  V30 BEGIN ATOM
M  V30 1 Cl 4.5593 2.1149 -0.813 0
M  V30 2 C 3.4879 0.7301 -0.6858 0
M  V30 3 C 2.7616 0.5368 0.4202 0
M  V30 4 C 1.8178 -0.6379 0.5606 0
M  V30 5 N 0.3925 -0.3073 0.2678 0 CHG=1
M  V30 6 C 0.2191 0.1492 -1.1376 0
M  V30 7 C -0.4256 -1.5357 0.4646 0
M  V30 8 C -0.1192 0.7468 1.1855 0
M  V30 9 N -1.203 0.4286 -1.4207 0 CFG=1
M  V30 10 N -1.8503 -1.2676 0.1883 0 CFG=2
M  V30 11 N -1.5424 1.0283 0.9096 0 CFG=1
M  V30 12 C -1.9885 -0.8015 -1.2046 0
M  V30 13 C -1.6822 1.4723 -0.4919 0
M  V30 14 C -2.3242 -0.2084 1.1 0
M  V30 15 H 3.4209 0.0418 -1.5226 0
M  V30 16 H 2.841 1.2441 1.2407 0
M  V30 17 H 1.914 -1.0119 1.6048 0
M  V30 18 H 2.1645 -1.4698 -0.0951 0
M  V30 19 H 0.5989 -0.6175 -1.8518 0
M  V30 20 H 0.8093 1.0722 -1.3348 0
M  V30 21 H -0.3197 -1.9201 1.506 0
M  V30 22 H -0.0715 -2.3586 -0.1993 0
M  V30 23 H 0.4597 1.6912 1.0745 0
M  V30 24 H 5.0E-4 0.4367 2.2495 0
M  V30 25 H -1.6563 -1.5965 -1.9093 0
M  V30 26 H -3.0605 -0.6168 -1.4414 0
M  V30 27 H -1.1158 2.4172 -0.6524 0
M  V30 28 H -2.7458 1.7183 -0.71 0
M  V30 29 H -3.4052 -0.0081 0.9242 0
M  V30 30 H -2.2486 -0.5503 2.1568 0
M  V30 END ATOM
M  V30 BEGIN BOND
M  V30 1 1 1 2
M  V30 2 2 2 3
M  V30 3 1 3 4
M  V30 4 1 4 5
M  V30 5 1 5 6
M  V30 6 1 5 7
M  V30 7 1 5 8
M  V30 8 1 6 9
M  V30 9 1 7 10
M  V30 10 1 8 11
M  V30 11 1 9 12
M  V30 12 1 9 13
M  V30 13 1 10 14
M  V30 14 1 10 12
M  V30 15 1 11 13
M  V30 16 1 11 14
M  V30 17 1 2 15
M  V30 18 1 3 16
M  V30 19 1 4 17
M  V30 20 1 4 18
M  V30 21 1 6 19
M  V30 22 1 6 20
M  V30 23 1 7 21
M  V30 24 1 7 22
M  V30 25 1 8 23
M  V30 26 1 8 24
M  V30 27 1 12 25
M  V30 28 1 12 26
M  V30 29 1 13 27
M  V30 30 1 13 28
M  V30 31 1 14 29
M  V30 32 1 14 30
M  V30 END BOND
M  V30 BEGIN COLLECTION
M  V30 MDLV30/STEABS ATOMS=(3 9 10 11)
M  V30 END COLLECTION
M  V30 END CTAB
M  END
>  <Structure No>
4529

>  <LogS>
0.0829

>  <MMFF94 Energy>
-452.33

$$$$
Compound 4530
Actelion Java MolfileCreator 2.0

  0  0  0  0  0  0              0 V3000
M  V30 BEGIN CTAB
M  V30 COUNTS 13 12 0 0 0
M  V30 BEGIN ATOM
M  V30 1 O 2.4899 -0.3769 -0.5277 0
M  V30 2 C 1.0917 -0.2995 -0.5821 0
M  V30 3 C 0.5432 0.183 0.7352 0
M  V30 4 C -0.77 0.3397 0.9689 0
M  V30 5 C -1.8273 0.0509 -0.0568 0
M  V30 6 H 2.8288 0.554 -0.5952 0
M  V30 7 H 0.6921 -1.3129 -0.7967 0
M  V30 8 H 0.7765 0.3836 -1.403 0
M  V30 9 H 1.2398 0.416 1.5362 0
M  V30 10 H -1.0856 0.6923 1.9466 0
M  V30 11 H -2.8298 0.2551 0.3737 0
M  V30 12 H -1.7833 -1.0155 -0.3615 0
M  V30 13 H -1.685 0.7004 -0.9458 0
M  V30 END ATOM
M  V30 BEGIN BOND
M  V30 1 1 1 2
M  V30 2 1 2 3
M  V30 3 2 3 4
M  V30 4 1 4 5
M  V30 5 1 1 6
M  V30 6 1 2 7
M  V30 7 1 2 8
M  V30 8 1 3 9
M  V30 9 1 4 10
M  V30 10 1 5 11
M  V30 11 1 5 12
M  V30 12 1 5 13
M  V30 END BOND
M  V30 END CTAB
M  END
>  <Structure No>
4530

>  <LogS>
0.3621

>  <MMFF94 Energy>
-2.964

$$$$
Compound 4531
Actelion Java MolfileCreator 2.0

  0  0  0  0  0  0              0 V3000
M  V30 BEGIN CTAB
M  V30 COUNTS 14 13 0 0 0
M  V30 BEGIN ATOM
M  V30 1 Cl 0.9442 -0.8583 -2.3188 0
M  V30 2 C 1.1557 0.1152 -0.8349 0
M  V30 3 C -0.0719 0.0219 0.1071 0
M  V30 4 N -0.3169 -1.3705 0.5153 0 CHG=1
M  V30 5 N 0.161 0.8219 1.3181 0 CHG=1
M  V30 6 N -1.2439 0.5544 -0.6061 0 CHG=1
M  V30 7 O 0.6433 -2.142 0.7216 0
M  V30 8 O -1.5502 -1.7168 1.0187 0 CHG=-1
M  V30 9 O 1.2846 0.8245 1.8633 0
M  V30 10 O -0.9165 1.2803 2.0414 0 CHG=-1
M  V30 11 O -1.9567 -0.1985 -1.3026 0
M  V30 12 O -1.3879 1.9156 -0.7513 0 CHG=-1
M  V30 13 H 1.3223 1.1729 -1.1313 0
M  V30 14 H 2.0745 -0.2411 -0.3226 0
M  V30 END ATOM
M  V30 BEGIN BOND
M  V30 1 1 1 2
M  V30 2 1 2 3
M  V30 3 1 3 4
M  V30 4 1 3 5
M  V30 5 1 3 6
M  V30 6 2 4 7
M  V30 7 1 4 8
M  V30 8 2 5 9
M  V30 9 1 5 10
M  V30 10 2 6 11
M  V30 11 1 6 12
M  V30 12 1 2 13
M  V30 13 1 2 14
M  V30 END BOND
M  V30 END CTAB
M  END
>  <Structure No>
4531

>  <LogS>
-0.2586

>  <MMFF94 Energy>
-114.59

$$$$
Compound 4532
Actelion Java MolfileCreator 2.0

  0  0  0  0  0  0              0 V3000
M  V30 BEGIN CTAB
M  V30 COUNTS 36 35 0 0 0
M  V30 BEGIN ATOM
M  V30 1 O 1.1966 -2.3943 -0.7178 0
M  V30 2 C 1.1059 -1.252 -1.2423 0
M  V30 3 O 1.3421 -1.1337 -2.6087 0 CHG=-1
M  V30 4 C 0.6452 -0.0397 -0.4184 0
M  V30 5 C -0.9785 -0.0418 -0.3757 0
M  V30 6 C 1.2758 -0.078 1.0335 0
M  V30 7 C 1.1612 1.2717 -1.1356 0
M  V30 8 C -1.4988 0.0878 -1.8173 0
M  V30 9 C -1.6005 1.1734 0.4256 0
M  V30 10 C -1.5487 -1.4033 0.1928 0
M  V30 11 C 2.6317 -0.7896 1.203 0
M  V30 12 C 2.6826 1.4134 -1.2766 0
M  V30 13 O -1.565 -0.919 -2.5734 0
M  V30 14 O -1.8586 1.3284 -2.3372 0 CHG=-1
M  V30 15 C -1.4777 1.182 1.9568 0
M  V30 16 C -3.0802 -1.4766 0.3021 0
M  V30 17 H 1.4207 0.9618 1.3947 0
M  V30 18 H 0.5993 -0.5529 1.7639 0
M  V30 19 H 0.8245 2.173 -0.5872 0
M  V30 20 H 0.7397 1.3468 -2.1592 0
M  V30 21 H -1.2219 2.1436 0.0509 0
M  V30 22 H -2.6903 1.2161 0.2054 0
M  V30 23 H -1.1354 -1.649 1.1876 0
M  V30 24 H -1.2495 -2.247 -0.462 0
M  V30 25 H 3.1404 -0.4049 2.1125 0
M  V30 26 H 3.3067 -0.6387 0.34 0
M  V30 27 H 2.4821 -1.8794 1.3503 0
M  V30 28 H 3.1367 0.5206 -1.7513 0
M  V30 29 H 2.908 2.2905 -1.9196 0
M  V30 30 H 3.1538 1.6007 -0.2898 0
M  V30 31 H -0.5001 1.5832 2.2813 0
M  V30 32 H -1.6492 0.1859 2.4068 0
M  V30 33 H -2.2456 1.8675 2.3745 0
M  V30 34 H -3.3798 -2.5142 0.5605 0
M  V30 35 H -3.4578 -0.8117 1.1054 0
M  V30 36 H -3.5666 -1.2074 -0.6579 0
M  V30 END ATOM
M  V30 BEGIN BOND
M  V30 1 2 1 2
M  V30 2 1 2 3
M  V30 3 1 2 4
M  V30 4 1 4 5
M  V30 5 1 4 6
M  V30 6 1 4 7
M  V30 7 1 5 8
M  V30 8 1 5 9
M  V30 9 1 5 10
M  V30 10 1 6 11
M  V30 11 1 7 12
M  V30 12 2 8 13
M  V30 13 1 8 14
M  V30 14 1 9 15
M  V30 15 1 10 16
M  V30 16 1 6 17
M  V30 17 1 6 18
M  V30 18 1 7 19
M  V30 19 1 7 20
M  V30 20 1 9 21
M  V30 21 1 9 22
M  V30 22 1 10 23
M  V30 23 1 10 24
M  V30 24 1 11 25
M  V30 25 1 11 26
M  V30 26 1 11 27
M  V30 27 1 12 28
M  V30 28 1 12 29
M  V30 29 1 12 30
M  V30 30 1 15 31
M  V30 31 1 15 32
M  V30 32 1 15 33
M  V30 33 1 16 34
M  V30 34 1 16 35
M  V30 35 1 16 36
M  V30 END BOND
M  V30 END CTAB
M  END
>  <Structure No>
4532

>  <LogS>
-2.9644

>  <MMFF94 Energy>
116.49

$$$$
Compound 4533
Actelion Java MolfileCreator 2.0

  0  0  0  0  0  0              0 V3000
M  V30 BEGIN CTAB
M  V30 COUNTS 27 26 0 0 0
M  V30 BEGIN ATOM
M  V30 1 O 3.0336 -0.3108 -1.3214 0
M  V30 2 C 2.977 -0.3715 -0.0625 0
M  V30 3 O 3.9483 0.2512 0.7263 0
M  V30 4 C 1.8352 -1.0793 0.5973 0
M  V30 5 C 5.0457 0.964 0.1689 0
M  V30 6 C 0.7264 -0.0956 0.9839 0
M  V30 7 O 0.2224 0.574 -0.1587 0
M  V30 8 C -0.8896 -0.1072 -0.7098 0
M  V30 9 C -2.1936 0.4695 -0.1493 0
M  V30 10 C -3.4147 -0.2071 -0.7823 0
M  V30 11 C -4.7139 0.3683 -0.2258 0
M  V30 12 H 1.4323 -1.8617 -0.0809 0
M  V30 13 H 2.2063 -1.5866 1.5135 0
M  V30 14 H 4.6754 1.8111 -0.4466 0
M  V30 15 H 5.661 0.2847 -0.4584 0
M  V30 16 H 5.6753 1.3644 0.9897 0
M  V30 17 H 1.1503 0.6671 1.6719 0
M  V30 18 H -0.064 -0.6253 1.5656 0
M  V30 19 H -0.8508 -1.2114 -0.5556 0
M  V30 20 H -0.8734 0.0561 -1.8086 0
M  V30 21 H -2.2196 0.3214 0.952 0
M  V30 22 H -2.2247 1.5618 -0.3566 0
M  V30 23 H -3.3874 -1.2991 -0.575 0
M  V30 24 H -3.398 -0.0571 -1.8839 0
M  V30 25 H -4.7778 1.4561 -0.4417 0
M  V30 26 H -4.7679 0.2081 0.8721 0
M  V30 27 H -5.5792 -0.1394 -0.7016 0
M  V30 END ATOM
M  V30 BEGIN BOND
M  V30 1 2 1 2
M  V30 2 1 2 3
M  V30 3 1 2 4
M  V30 4 1 3 5
M  V30 5 1 4 6
M  V30 6 1 6 7
M  V30 7 1 7 8
M  V30 8 1 8 9
M  V30 9 1 9 10
M  V30 10 1 10 11
M  V30 11 1 4 12
M  V30 12 1 4 13
M  V30 13 1 5 14
M  V30 14 1 5 15
M  V30 15 1 5 16
M  V30 16 1 6 17
M  V30 17 1 6 18
M  V30 18 1 8 19
M  V30 19 1 8 20
M  V30 20 1 9 21
M  V30 21 1 9 22
M  V30 22 1 10 23
M  V30 23 1 10 24
M  V30 24 1 11 25
M  V30 25 1 11 26
M  V30 26 1 11 27
M  V30 END BOND
M  V30 END CTAB
M  END
>  <Structure No>
4533

>  <LogS>
-1.2909

>  <MMFF94 Energy>
-11.292

$$$$
Compound 4534
Actelion Java MolfileCreator 2.0

  0  0  0  0  0  0              0 V3000
M  V30 BEGIN CTAB
M  V30 COUNTS 38 38 0 0 0
M  V30 BEGIN ATOM
M  V30 1 S -1.7529 -2.3909 -0.3981 0
M  V30 2 C -0.7515 -0.91 -0.4917 0
M  V30 3 C -2.2436 -2.1424 1.3443 0
M  V30 4 N -1.3334 0.2842 -0.7608 0
M  V30 5 N 0.5897 -0.9832 -0.3069 0
M  V30 6 C -1.1214 -2.5393 2.295 0
M  V30 7 C -0.5815 1.4124 -0.8356 0
M  V30 8 C 1.3514 0.1394 -0.382 0
M  V30 9 N 0.7612 1.3337 -0.6463 0
M  V30 10 N -1.1834 2.6877 -1.1095 0
M  V30 11 N 2.7714 0.0752 -0.1953 0
M  V30 12 C -2.6207 2.9235 -1.3005 0
M  V30 13 C 3.4748 -1.1772 0.1013 0
M  V30 14 C -3.1477 2.1882 -2.5371 0
M  V30 15 C -3.4176 2.5668 -0.0408 0
M  V30 16 C 4.964 -1.0409 -0.2308 0
M  V30 17 C 3.2886 -1.5478 1.5753 0
M  V30 18 H -3.1277 -2.7825 1.5476 0
M  V30 19 H -2.5381 -1.0854 1.5205 0
M  V30 20 H -0.7939 -3.5803 2.0899 0
M  V30 21 H -1.4839 -2.4785 3.3428 0
M  V30 22 H -0.2584 -1.852 2.1833 0
M  V30 23 H -0.5494 3.5168 -1.1669 0
M  V30 24 H 3.3188 0.9595 -0.3048 0
M  V30 25 H -2.7672 4.012 -1.4814 0
M  V30 26 H 3.0616 -1.9925 -0.5327 0
M  V30 27 H -2.5164 2.4307 -3.4181 0
M  V30 28 H -4.1881 2.5123 -2.7531 0
M  V30 29 H -3.1504 1.0893 -2.3881 0
M  V30 30 H -3.4238 1.4729 0.1424 0
M  V30 31 H -4.4695 2.9065 -0.1517 0
M  V30 32 H -2.9772 3.0769 0.8419 0
M  V30 33 H 5.0882 -0.7739 -1.3019 0
M  V30 34 H 5.488 -2.0033 -0.048 0
M  V30 35 H 5.4342 -0.2499 0.3924 0
M  V30 36 H 3.8216 -2.4952 1.8037 0
M  V30 37 H 3.684 -0.7425 2.2308 0
M  V30 38 H 2.2128 -1.6946 1.8026 0
M  V30 END ATOM
M  V30 BEGIN BOND
M  V30 1 1 1 2
M  V30 2 1 1 3
M  V30 3 2 2 4
M  V30 4 1 2 5
M  V30 5 1 3 6
M  V30 6 1 4 7
M  V30 7 2 5 8
M  V30 8 2 7 9
M  V30 9 1 7 10
M  V30 10 1 8 11
M  V30 11 1 10 12
M  V30 12 1 11 13
M  V30 13 1 12 14
M  V30 14 1 12 15
M  V30 15 1 13 16
M  V30 16 1 13 17
M  V30 17 1 8 9
M  V30 18 1 3 18
M  V30 19 1 3 19
M  V30 20 1 6 20
M  V30 21 1 6 21
M  V30 22 1 6 22
M  V30 23 1 10 23
M  V30 24 1 11 24
M  V30 25 1 12 25
M  V30 26 1 13 26
M  V30 27 1 14 27
M  V30 28 1 14 28
M  V30 29 1 14 29
M  V30 30 1 15 30
M  V30 31 1 15 31
M  V30 32 1 15 32
M  V30 33 1 16 33
M  V30 34 1 16 34
M  V30 35 1 16 35
M  V30 36 1 17 36
M  V30 37 1 17 37
M  V30 38 1 17 38
M  V30 END BOND
M  V30 END CTAB
M  END
>  <Structure No>
4534

>  <LogS>
-4.2031

>  <MMFF94 Energy>
-241.64

$$$$
Compound 4535
Actelion Java MolfileCreator 2.0

  0  0  0  0  0  0              0 V3000
M  V30 BEGIN CTAB
M  V30 COUNTS 26 26 0 0 0
M  V30 BEGIN ATOM
M  V30 1 O -5.441 0.4791 1.518 0
M  V30 2 N -4.9517 0.0223 0.464 0 CHG=1
M  V30 3 O -5.8009 -0.4483 -0.5111 0 CHG=-1
M  V30 4 C -3.5258 -0.0098 0.27 0
M  V30 5 C -2.9811 -0.5265 -0.918 0
M  V30 6 C -2.654 0.4659 1.2663 0
M  V30 7 C -1.5966 -0.5589 -1.1079 0
M  V30 8 C -1.2697 0.4335 1.0735 0
M  V30 9 C -0.7317 -0.0667 -0.1253 0
M  V30 10 O 0.6498 -0.1301 -0.3587 0
M  V30 11 C 1.6051 0.7407 0.184 0
M  V30 12 O 1.2647 1.8548 0.6677 0
M  V30 13 C 3.0615 0.3786 0.1142 0
M  V30 14 C 3.3088 -0.9692 0.7976 0
M  V30 15 C 3.5297 0.347 -1.343 0
M  V30 16 H -3.6244 -0.907 -1.7007 0
M  V30 17 H -3.0421 0.8554 2.1988 0
M  V30 18 H -1.1934 -0.9617 -2.0284 0
M  V30 19 H -0.6255 0.7713 1.8737 0
M  V30 20 H 3.6553 1.1509 0.6526 0
M  V30 21 H 2.9706 -0.9282 1.8554 0
M  V30 22 H 2.7608 -1.784 0.2768 0
M  V30 23 H 4.3939 -1.2073 0.7896 0
M  V30 24 H 3.3603 1.3366 -1.8194 0
M  V30 25 H 4.6164 0.1212 -1.3898 0
M  V30 26 H 2.978 -0.4276 -1.9185 0
M  V30 END ATOM
M  V30 BEGIN BOND
M  V30 1 2 1 2
M  V30 2 1 2 3
M  V30 3 1 2 4
M  V30 4 2 4 5
M  V30 5 1 4 6
M  V30 6 1 5 7
M  V30 7 2 6 8
M  V30 8 2 7 9
M  V30 9 1 9 10
M  V30 10 1 10 11
M  V30 11 2 11 12
M  V30 12 1 11 13
M  V30 13 1 13 14
M  V30 14 1 13 15
M  V30 15 1 8 9
M  V30 16 1 5 16
M  V30 17 1 6 17
M  V30 18 1 7 18
M  V30 19 1 8 19
M  V30 20 1 13 20
M  V30 21 1 14 21
M  V30 22 1 14 22
M  V30 23 1 14 23
M  V30 24 1 15 24
M  V30 25 1 15 25
M  V30 26 1 15 26
M  V30 END BOND
M  V30 END CTAB
M  END
>  <Structure No>
4535

>  <LogS>
-3.9588

>  <MMFF94 Energy>
60.186

$$$$
Compound 4536
Actelion Java MolfileCreator 2.0

  0  0  0  0  0  0              0 V3000
M  V30 BEGIN CTAB
M  V30 COUNTS 27 26 0 0 0
M  V30 BEGIN ATOM
M  V30 1 O 0.3883 -1.7097 -1.7097 0
M  V30 2 C 0.668 -0.5263 -1.3743 0
M  V30 3 O -0.2772 0.2743 -0.7272 0
M  V30 4 C 2.0396 0.0137 -1.6265 0
M  V30 5 C -1.5925 -0.1806 -0.4271 0
M  V30 6 C 2.9348 -0.2027 -0.4093 0
M  V30 7 C -2.3657 0.9348 0.2784 0
M  V30 8 O 4.2161 0.3233 -0.6818 0
M  V30 9 C -3.84 0.5752 0.5171 0
M  V30 10 C 5.0491 0.1284 0.4386 0
M  V30 11 C -4.0191 -0.5044 1.5838 0
M  V30 12 H 1.9687 1.1006 -1.8472 0
M  V30 13 H 2.4841 -0.4912 -2.5117 0
M  V30 14 H -2.1103 -0.4585 -1.3711 0
M  V30 15 H -1.5268 -1.0728 0.2313 0
M  V30 16 H 2.4772 0.3152 0.4656 0
M  V30 17 H 2.9967 -1.2966 -0.2034 0
M  V30 18 H -2.3286 1.8456 -0.3581 0
M  V30 19 H -1.8723 1.1794 1.2444 0
M  V30 20 H -4.3739 1.4899 0.8549 0
M  V30 21 H -4.3119 0.2427 -0.4327 0
M  V30 22 H 4.6571 0.6652 1.3311 0
M  V30 23 H 5.1786 -0.954 0.6616 0
M  V30 24 H 6.0513 0.5455 0.2106 0
M  V30 25 H -5.1011 -0.6393 1.7937 0
M  V30 26 H -3.6122 -1.4751 1.2328 0
M  V30 27 H -3.5112 -0.2083 2.5262 0
M  V30 END ATOM
M  V30 BEGIN BOND
M  V30 1 2 1 2
M  V30 2 1 2 3
M  V30 3 1 2 4
M  V30 4 1 3 5
M  V30 5 1 4 6
M  V30 6 1 5 7
M  V30 7 1 6 8
M  V30 8 1 7 9
M  V30 9 1 8 10
M  V30 10 1 9 11
M  V30 11 1 4 12
M  V30 12 1 4 13
M  V30 13 1 5 14
M  V30 14 1 5 15
M  V30 15 1 6 16
M  V30 16 1 6 17
M  V30 17 1 7 18
M  V30 18 1 7 19
M  V30 19 1 9 20
M  V30 20 1 9 21
M  V30 21 1 10 22
M  V30 22 1 10 23
M  V30 23 1 10 24
M  V30 24 1 11 25
M  V30 25 1 11 26
M  V30 26 1 11 27
M  V30 END BOND
M  V30 END CTAB
M  END
>  <Structure No>
4536

>  <LogS>
-1.2135

>  <MMFF94 Energy>
-12.116

$$$$
Compound 4537
Actelion Java MolfileCreator 2.0

  0  0  0  0  0  0              0 V3000
M  V30 BEGIN CTAB
M  V30 COUNTS 24 26 0 0 0
M  V30 BEGIN ATOM
M  V30 1 O -1.632 3.5931 -0.4894 0
M  V30 2 N -1.8197 2.5408 0.1556 0 CHG=1
M  V30 3 O -2.764 2.5348 1.1564 0 CHG=-1
M  V30 4 C -0.889 1.4521 0.0397 0
M  V30 5 C -1.3208 0.1018 0.0295 0
M  V30 6 C 0.484 1.7378 -0.0392 0
M  V30 7 C -0.3605 -0.9419 -0.0135 0
M  V30 8 C -2.684 -0.2525 0.0236 0
M  V30 9 C 1.4295 0.7067 -0.0896 0
M  V30 10 N -0.7684 -2.2417 -0.0165 0
M  V30 11 C 1.0072 -0.639 -0.0688 0
M  V30 12 C -3.0621 -1.5956 0.0196 0
M  V30 13 C 2.8015 0.9875 -0.1529 0
M  V30 14 C -2.0817 -2.5854 0.0072 0
M  V30 15 N 1.9337 -1.6374 -0.1127 0
M  V30 16 C 3.7241 -0.0592 -0.1956 0
M  V30 17 C 3.2668 -1.378 -0.174 0
M  V30 18 H 0.8155 2.77 -0.0343 0
M  V30 19 H -3.4648 0.4943 -5.0E-4 0
M  V30 20 H -4.1101 -1.8674 0.0189 0
M  V30 21 H 3.1581 2.0106 -0.1687 0
M  V30 22 H -2.3646 -3.6296 0.0033 0
M  V30 23 H 4.785 0.1498 -0.2444 0
M  V30 24 H 3.9727 -2.1972 -0.2069 0
M  V30 END ATOM
M  V30 BEGIN BOND
M  V30 1 2 1 2
M  V30 2 1 2 3
M  V30 3 1 2 4
M  V30 4 1 4 5
M  V30 5 2 4 6
M  V30 6 1 5 7
M  V30 7 2 5 8
M  V30 8 1 6 9
M  V30 9 2 7 10
M  V30 10 1 7 11
M  V30 11 1 8 12
M  V30 12 2 9 13
M  V30 13 1 10 14
M  V30 14 2 11 15
M  V30 15 1 13 16
M  V30 16 1 15 17
M  V30 17 1 9 11
M  V30 18 2 12 14
M  V30 19 2 16 17
M  V30 20 1 6 18
M  V30 21 1 8 19
M  V30 22 1 12 20
M  V30 23 1 13 21
M  V30 24 1 14 22
M  V30 25 1 16 23
M  V30 26 1 17 24
M  V30 END BOND
M  V30 END CTAB
M  END
>  <Structure No>
4537

>  <LogS>
-3.9172

>  <MMFF94 Energy>
105.96

$$$$
Compound 4538
Actelion Java MolfileCreator 2.0

  0  0  0  0  0  0              0 V3000
M  V30 BEGIN CTAB
M  V30 COUNTS 18 18 0 0 0
M  V30 BEGIN ATOM
M  V30 1 O 3.6823 0.7825 -0.3912 0
M  V30 2 C 2.4814 0.4882 -0.1465 0
M  V30 3 N 2.0302 -0.7741 -0.3791 0
M  V30 4 N 1.6376 1.4338 0.347 0
M  V30 5 C 0.7376 -1.1143 -0.1223 0
M  V30 6 C 0.3397 1.1371 0.6179 0
M  V30 7 O 0.3438 -2.2887 -0.3587 0
M  V30 8 C -0.1482 -0.1571 0.4015 0
M  V30 9 C -1.5976 -0.4772 0.6716 0
M  V30 10 C -2.4413 -0.2633 -0.5807 0
M  V30 11 H 2.6855 -1.4924 -0.7642 0
M  V30 12 H 1.9851 2.4044 0.5195 0
M  V30 13 H -0.3152 1.91 1.0021 0
M  V30 14 H -1.7037 -1.5296 1.013 0
M  V30 15 H -1.9867 0.1703 1.4875 0
M  V30 16 H -2.3744 0.7944 -0.9141 0
M  V30 17 H -3.5033 -0.4997 -0.3586 0
M  V30 18 H -2.0928 -0.9284 -1.3994 0
M  V30 END ATOM
M  V30 BEGIN BOND
M  V30 1 2 1 2
M  V30 2 1 2 3
M  V30 3 1 2 4
M  V30 4 1 3 5
M  V30 5 1 4 6
M  V30 6 2 5 7
M  V30 7 1 5 8
M  V30 8 1 8 9
M  V30 9 1 9 10
M  V30 10 2 6 8
M  V30 11 1 3 11
M  V30 12 1 4 12
M  V30 13 1 6 13
M  V30 14 1 9 14
M  V30 15 1 9 15
M  V30 16 1 10 16
M  V30 17 1 10 17
M  V30 18 1 10 18
M  V30 END BOND
M  V30 END CTAB
M  END
>  <Structure No>
4538

>  <LogS>
-1.9424

>  <MMFF94 Energy>
-96.495

$$$$
Compound 4539
Actelion Java MolfileCreator 2.0

  0  0  0  0  0  0              0 V3000
M  V30 BEGIN CTAB
M  V30 COUNTS 18 17 0 0 0
M  V30 BEGIN ATOM
M  V30 1 O -0.3965 2.6196 -0.6345 0
M  V30 2 C -0.2365 1.6537 0.1571 0
M  V30 3 O -0.2361 1.888 1.5274 0 CHG=-1
M  V30 4 C 0.0026 0.2642 -0.3874 0 CFG=2
M  V30 5 N -0.6906 -0.7707 0.4124 0 CHG=1
M  V30 6 C 1.5168 -0.0244 -0.4928 0
M  V30 7 C -2.1487 -0.6943 0.2621 0
M  V30 8 C 2.2058 -0.0581 0.8397 0
M  V30 9 O 2.2735 -1.1332 1.4917 0
M  V30 10 O 2.7518 1.1035 1.371 0 CHG=-1
M  V30 11 H -0.3896 0.2341 -1.4307 0
M  V30 12 H -0.3891 -1.7196 0.0885 0
M  V30 13 H -0.4504 -0.6803 1.4273 0
M  V30 14 H 1.9975 0.7518 -1.1275 0
M  V30 15 H 1.6706 -0.9986 -1.0063 0
M  V30 16 H -2.5365 0.2748 0.6435 0
M  V30 17 H -2.4414 -0.8163 -0.8037 0
M  V30 18 H -2.6278 -1.509 0.847 0
M  V30 END ATOM
M  V30 BEGIN BOND
M  V30 1 2 1 2
M  V30 2 1 2 3
M  V30 3 1 2 4
M  V30 4 1 4 5
M  V30 5 1 4 6
M  V30 6 1 5 7
M  V30 7 1 6 8
M  V30 8 2 8 9
M  V30 9 1 8 10
M  V30 10 1 4 11
M  V30 11 1 5 12
M  V30 12 1 5 13
M  V30 13 1 6 14
M  V30 14 1 6 15
M  V30 15 1 7 16
M  V30 16 1 7 17
M  V30 17 1 7 18
M  V30 END BOND
M  V30 BEGIN COLLECTION
M  V30 MDLV30/STEABS ATOMS=(1 4)
M  V30 END COLLECTION
M  V30 END CTAB
M  END
>  <Structure No>
4539

>  <LogS>
-0.7544

>  <MMFF94 Energy>
-43.588

$$$$
Compound 4540
Actelion Java MolfileCreator 2.0

  0  0  0  0  0  0              0 V3000
M  V30 BEGIN CTAB
M  V30 COUNTS 31 32 0 0 0
M  V30 BEGIN ATOM
M  V30 1 O 0.5709 0.0 -2.2854 0
M  V30 2 C 1.8219 0.068 -2.1574 0
M  V30 3 O 2.6072 0.1952 -3.2975 0 CHG=-1
M  V30 4 C 2.4609 -0.0414 -0.8223 0
M  V30 5 C 1.796 0.3138 0.3846 0
M  V30 6 C 3.7637 -0.5689 -0.753 0
M  V30 7 C 0.4716 0.9774 0.3932 0
M  V30 8 C 2.4409 0.0921 1.6154 0
M  V30 9 C 4.3883 -0.7717 0.478 0
M  V30 10 O 0.2667 1.9584 -0.3728 0
M  V30 11 C -0.6033 0.5625 1.3624 0
M  V30 12 C 3.7255 -0.4491 1.6597 0
M  V30 13 C -1.9388 0.4173 0.6659 0
M  V30 14 C -2.3956 -0.8098 0.1053 0
M  V30 15 C -2.7611 1.5571 0.5821 0
M  V30 16 C -1.5878 -2.0554 0.109 0
M  V30 17 C -3.6766 -0.8553 -0.4788 0
M  V30 18 C -4.0192 1.4897 -0.0152 0
M  V30 19 O -2.1605 -3.1775 0.127 0
M  V30 20 O -0.202 -2.0161 0.0404 0 CHG=-1
M  V30 21 C -4.4783 0.2848 -0.5392 0
M  V30 22 H 4.2937 -0.8511 -1.6544 0
M  V30 23 H 1.9602 0.3663 2.5466 0
M  V30 24 H 5.387 -1.1874 0.5155 0
M  V30 25 H -0.6709 1.3358 2.1582 0
M  V30 26 H -0.3374 -0.3787 1.8866 0
M  V30 27 H 4.2129 -0.6074 2.6131 0
M  V30 28 H -2.428 2.5043 0.9895 0
M  V30 29 H -4.0544 -1.7748 -0.9091 0
M  V30 30 H -4.6412 2.374 -0.0678 0
M  V30 31 H -5.4566 0.2342 -0.9998 0
M  V30 END ATOM
M  V30 BEGIN BOND
M  V30 1 2 1 2
M  V30 2 1 2 3
M  V30 3 1 2 4
M  V30 4 2 4 5
M  V30 5 1 4 6
M  V30 6 1 5 7
M  V30 7 1 5 8
M  V30 8 2 6 9
M  V30 9 2 7 10
M  V30 10 1 7 11
M  V30 11 2 8 12
M  V30 12 1 11 13
M  V30 13 2 13 14
M  V30 14 1 13 15
M  V30 15 1 14 16
M  V30 16 1 14 17
M  V30 17 2 15 18
M  V30 18 2 16 19
M  V30 19 1 16 20
M  V30 20 2 17 21
M  V30 21 1 9 12
M  V30 22 1 18 21
M  V30 23 1 6 22
M  V30 24 1 8 23
M  V30 25 1 9 24
M  V30 26 1 11 25
M  V30 27 1 11 26
M  V30 28 1 12 27
M  V30 29 1 15 28
M  V30 30 1 17 29
M  V30 31 1 18 30
M  V30 32 1 21 31
M  V30 END BOND
M  V30 END CTAB
M  END
>  <Structure No>
4540

>  <LogS>
-2.791

>  <MMFF94 Energy>
135.88

$$$$
Compound 4541
Actelion Java MolfileCreator 2.0

  0  0  0  0  0  0              0 V3000
M  V30 BEGIN CTAB
M  V30 COUNTS 18 18 0 0 0
M  V30 BEGIN ATOM
M  V30 1 O -2.6694 2.1685 1.0838 0
M  V30 2 N -2.2743 1.4584 0.1363 0 CHG=1
M  V30 3 O -2.9532 1.5084 -1.0594 0 CHG=-1
M  V30 4 C -0.9983 0.8023 0.2109 0
M  V30 5 C -0.7773 -0.466 -0.3835 0
M  V30 6 C 0.0706 1.4626 0.8375 0
M  V30 7 C -1.8778 -1.2785 -0.9533 0
M  V30 8 C 0.5215 -1.007 -0.3822 0
M  V30 9 C 1.3486 0.9045 0.8474 0
M  V30 10 O -3.0549 -1.1648 -0.5199 0
M  V30 11 O -1.6122 -2.2202 -1.9406 0 CHG=-1
M  V30 12 C 1.5898 -0.3296 0.2293 0
M  V30 13 C 2.9507 -0.9121 0.2345 0
M  V30 14 O 3.1753 -2.0218 -0.3178 0
M  V30 15 O 4.0017 -0.2412 0.8493 0 CHG=-1
M  V30 16 H -0.0805 2.432 1.2959 0
M  V30 17 H 0.6956 -1.9756 -0.8356 0
M  V30 18 H 2.1507 1.4484 1.3304 0
M  V30 END ATOM
M  V30 BEGIN BOND
M  V30 1 2 1 2
M  V30 2 1 2 3
M  V30 3 1 2 4
M  V30 4 2 4 5
M  V30 5 1 4 6
M  V30 6 1 5 7
M  V30 7 1 5 8
M  V30 8 2 6 9
M  V30 9 2 7 10
M  V30 10 1 7 11
M  V30 11 2 8 12
M  V30 12 1 12 13
M  V30 13 2 13 14
M  V30 14 1 13 15
M  V30 15 1 9 12
M  V30 16 1 6 16
M  V30 17 1 8 17
M  V30 18 1 9 18
M  V30 END BOND
M  V30 END CTAB
M  END
>  <Structure No>
4541

>  <LogS>
-1.3391

>  <MMFF94 Energy>
104.84

$$$$
Compound 4542
Actelion Java MolfileCreator 2.0

  0  0  0  0  0  0              0 V3000
M  V30 BEGIN CTAB
M  V30 COUNTS 24 25 0 0 0
M  V30 BEGIN ATOM
M  V30 1 Cl -6.3408 -0.1622 0.0811 0
M  V30 2 C -4.5928 -0.1826 -0.0639 0
M  V30 3 C -3.9895 -0.7716 -1.18 0
M  V30 4 C -3.8003 0.3901 0.9364 0
M  V30 5 C -2.5961 -0.7883 -1.2965 0
M  V30 6 C -2.4064 0.3746 0.8222 0
M  V30 7 C -1.7953 -0.2169 -0.2991 0
M  V30 8 N -0.3711 -0.251 -0.4491 0
M  V30 9 N 0.4136 0.2492 0.419 0
M  V30 10 C 1.8378 0.2151 0.2689 0
M  V30 11 C 2.4491 -0.3766 -0.8526 0
M  V30 12 C 2.6389 0.7867 1.2665 0
M  V30 13 C 3.8431 -0.3918 -0.9662 0
M  V30 14 C 4.0325 0.7696 1.1492 0
M  V30 15 C 4.6341 0.1807 0.0337 0
M  V30 16 H -4.5985 -1.2161 -1.9569 0
M  V30 17 H -4.2627 0.8473 1.8021 0
M  V30 18 H -2.1382 -1.2467 -2.1641 0
M  V30 19 H -1.81 0.8229 1.6065 0
M  V30 20 H 1.8528 -0.8248 -1.637 0
M  V30 21 H 2.1813 1.2452 2.1344 0
M  V30 22 H 4.3101 -0.8475 -1.8297 0
M  V30 23 H 4.6456 1.2127 1.9233 0
M  V30 24 H 5.7127 0.1681 -0.0557 0
M  V30 END ATOM
M  V30 BEGIN BOND
M  V30 1 1 1 2
M  V30 2 2 2 3
M  V30 3 1 2 4
M  V30 4 1 3 5
M  V30 5 2 4 6
M  V30 6 2 5 7
M  V30 7 1 7 8
M  V30 8 2 8 9
M  V30 9 1 9 10
M  V30 10 2 10 11
M  V30 11 1 10 12
M  V30 12 1 11 13
M  V30 13 2 12 14
M  V30 14 2 13 15
M  V30 15 1 6 7
M  V30 16 1 14 15
M  V30 17 1 3 16
M  V30 18 1 4 17
M  V30 19 1 5 18
M  V30 20 1 6 19
M  V30 21 1 11 20
M  V30 22 1 12 21
M  V30 23 1 13 22
M  V30 24 1 14 23
M  V30 25 1 15 24
M  V30 END BOND
M  V30 END CTAB
M  END
>  <Structure No>
4542

>  <LogS>
-5.7023

>  <MMFF94 Energy>
37.954

$$$$
Compound 4543
Actelion Java MolfileCreator 2.0

  0  0  0  0  0  0              0 V3000
M  V30 BEGIN CTAB
M  V30 COUNTS 26 27 0 0 0
M  V30 BEGIN ATOM
M  V30 1 O 4.9459 0.9715 2.0248 0
M  V30 2 N 5.1518 0.2653 1.0172 0 CHG=1
M  V30 3 O 6.441 -0.0745 0.6793 0 CHG=-1
M  V30 4 C 4.0527 -0.1847 0.2227 0
M  V30 5 O 2.7979 0.0995 0.4836 0
M  V30 6 C 4.1505 -0.9678 -0.9108 0
M  V30 7 C 2.0561 -0.4688 -0.4397 0
M  V30 8 C 2.8522 -1.1518 -1.3404 0
M  V30 9 C 0.5951 -0.3822 -0.4933 0
M  V30 10 N -0.0448 0.3013 0.4066 0
M  V30 11 N -1.4477 0.4456 0.4566 0
M  V30 12 C -1.9919 1.4623 1.3145 0
M  V30 13 C -2.3447 -0.3481 -0.4029 0
M  V30 14 O -1.236 2.128 2.0708 0
M  V30 15 O -3.3671 1.7007 1.3372 0
M  V30 16 C -3.7896 -0.3417 0.1133 0
M  V30 17 C -4.2405 1.0899 0.3937 0
M  V30 18 H 5.0503 -1.3567 -1.3683 0
M  V30 19 H 2.5277 -1.7156 -2.2052 0
M  V30 20 H 0.0748 -0.8783 -1.3015 0
M  V30 21 H -2.0013 -1.4043 -0.4341 0
M  V30 22 H -2.3186 0.0647 -1.4345 0
M  V30 23 H -3.8523 -0.937 1.0505 0
M  V30 24 H -4.4594 -0.805 -0.6426 0
M  V30 25 H -5.2743 1.0892 0.7988 0
M  V30 26 H -4.232 1.6781 -0.5494 0
M  V30 END ATOM
M  V30 BEGIN BOND
M  V30 1 2 1 2
M  V30 2 1 2 3
M  V30 3 1 2 4
M  V30 4 1 4 5
M  V30 5 2 4 6
M  V30 6 1 5 7
M  V30 7 1 6 8
M  V30 8 1 7 9
M  V30 9 2 9 10
M  V30 10 1 10 11
M  V30 11 1 11 12
M  V30 12 1 11 13
M  V30 13 2 12 14
M  V30 14 1 12 15
M  V30 15 1 13 16
M  V30 16 1 15 17
M  V30 17 2 7 8
M  V30 18 1 16 17
M  V30 19 1 6 18
M  V30 20 1 8 19
M  V30 21 1 9 20
M  V30 22 1 13 21
M  V30 23 1 13 22
M  V30 24 1 16 23
M  V30 25 1 16 24
M  V30 26 1 17 25
M  V30 27 1 17 26
M  V30 END BOND
M  V30 END CTAB
M  END
>  <Structure No>
4543

>  <LogS>
-3.4757

>  <MMFF94 Energy>
83.751

$$$$
Compound 4544
Actelion Java MolfileCreator 2.0

  0  0  0  0  0  0              0 V3000
M  V30 BEGIN CTAB
M  V30 COUNTS 22 24 0 0 0
M  V30 BEGIN ATOM
M  V30 1 O 4.5514 -0.7304 -0.4057 0
M  V30 2 C 3.3764 -0.3301 -0.1979 0
M  V30 3 O 3.0857 0.9017 0.3746 0
M  V30 4 C 2.1457 -1.115 -0.5343 0
M  V30 5 C 1.7082 0.9836 0.44 0
M  V30 6 C 1.1026 -0.1476 -0.0683 0
M  V30 7 C 0.9686 2.0494 0.9453 0
M  V30 8 C -0.294 -0.2668 -0.095 0
M  V30 9 C -0.4318 1.9599 0.9322 0
M  V30 10 C -1.0709 0.8098 0.4159 0
M  V30 11 C -0.9335 -1.4068 -0.6067 0
M  V30 12 C -2.4709 0.7173 0.4015 0
M  V30 13 C -2.3292 -1.4812 -0.6128 0
M  V30 14 C -3.0944 -0.4242 -0.1112 0
M  V30 15 H 2.0708 -1.2889 -1.6284 0
M  V30 16 H 2.1044 -2.06 0.0473 0
M  V30 17 H 1.4632 2.9276 1.3393 0
M  V30 18 H -1.0155 2.7845 1.3233 0
M  V30 19 H -0.36 -2.2369 -1.0001 0
M  V30 20 H -3.0816 1.5257 0.7857 0
M  V30 21 H -2.8203 -2.3612 -1.0079 0
M  V30 22 H -4.1749 -0.4901 -0.1197 0
M  V30 END ATOM
M  V30 BEGIN BOND
M  V30 1 2 1 2
M  V30 2 1 2 3
M  V30 3 1 2 4
M  V30 4 1 3 5
M  V30 5 1 4 6
M  V30 6 1 5 7
M  V30 7 1 6 8
M  V30 8 2 7 9
M  V30 9 1 8 10
M  V30 10 2 8 11
M  V30 11 2 10 12
M  V30 12 1 11 13
M  V30 13 1 12 14
M  V30 14 2 5 6
M  V30 15 1 9 10
M  V30 16 2 13 14
M  V30 17 1 4 15
M  V30 18 1 4 16
M  V30 19 1 7 17
M  V30 20 1 9 18
M  V30 21 1 11 19
M  V30 22 1 12 20
M  V30 23 1 13 21
M  V30 24 1 14 22
M  V30 END BOND
M  V30 END CTAB
M  END
>  <Structure No>
4544

>  <LogS>
-2.7078

>  <MMFF94 Energy>
38.054

$$$$
Compound 4545
Actelion Java MolfileCreator 2.0

  0  0  0  0  0  0              0 V3000
M  V30 BEGIN CTAB
M  V30 COUNTS 50 55 0 0 0
M  V30 BEGIN ATOM
M  V30 1 O 3.104 -2.4499 0.1631 0
M  V30 2 C 2.7288 -1.2157 -0.4012 0 CFG=1
M  V30 3 N 1.301 -1.2403 -0.8304 0 CFG=1
M  V30 4 C 3.0028 -0.0035 0.5666 0 CFG=2
M  V30 5 C 0.3617 -1.4088 0.3446 0 CFG=2
M  V30 6 C 1.0287 0.0662 -1.5121 0 CFG=2
M  V30 7 C 1.6355 0.6611 0.8981 0 CFG=2
M  V30 8 C 4.0129 1.0154 -0.0122 0
M  V30 9 C -1.0852 -1.1334 -0.1514 0 CFG=1
M  V30 10 C 0.7636 -0.4618 1.5044 0
M  V30 11 C 0.9629 1.1823 -0.4222 0 CFG=2
M  V30 12 C -0.361 0.0408 -2.1757 0
M  V30 13 C 5.4448 0.4803 0.0097 0
M  V30 14 N -2.1897 -1.1091 0.8081 0
M  V30 15 C -1.2049 0.2069 -0.9361 0 CFG=2
M  V30 16 C -0.5513 1.4318 -0.2439 0 CFG=2
M  V30 17 C -3.1966 -0.3433 0.1295 0
M  V30 18 C -2.4808 -2.2077 1.7234 0
M  V30 19 C -2.6875 0.3449 -0.9594 0
M  V30 20 O -0.9181 2.6123 -0.9153 0
M  V30 21 C -4.5652 -0.3128 0.4166 0
M  V30 22 C -3.5023 1.1274 -1.7775 0
M  V30 23 C -5.4062 0.4535 -0.4075 0
M  V30 24 C -4.8774 1.1706 -1.4989 0
M  V30 25 H 2.7191 -2.5132 1.0734 0
M  V30 26 H 3.355 -1.1089 -1.3141 0
M  V30 27 H 3.4373 -0.3739 1.5232 0
M  V30 28 H 0.4027 -2.4609 0.7013 0
M  V30 29 H 1.7955 0.2899 -2.2877 0
M  V30 30 H 1.7604 1.4864 1.6326 0
M  V30 31 H 3.9868 1.9465 0.5947 0
M  V30 32 H 3.7463 1.2851 -1.0562 0
M  V30 33 H -1.3111 -1.9748 -0.8527 0
M  V30 34 H 1.3342 -1.0251 2.2747 0
M  V30 35 H -0.1126 -0.0648 2.055 0
M  V30 36 H 1.4783 2.1028 -0.7753 0
M  V30 37 H -0.4871 0.8997 -2.8719 0
M  V30 38 H -0.5485 -0.9062 -2.7281 0
M  V30 39 H 5.5333 -0.4378 -0.6067 0
M  V30 40 H 6.1329 1.2478 -0.4027 0
M  V30 41 H 5.7558 0.2521 1.0513 0
M  V30 42 H -0.8743 1.5222 0.8161 0
M  V30 43 H -3.2041 -1.8771 2.497 0
M  V30 44 H -1.5519 -2.5294 2.2376 0
M  V30 45 H -2.904 -3.0651 1.1593 0
M  V30 46 H -0.6189 3.3686 -0.3458 0
M  V30 47 H -4.9777 -0.8672 1.2484 0
M  V30 48 H -3.0854 1.6933 -2.6001 0
M  V30 49 H -6.4681 0.4934 -0.2025 0
M  V30 50 H -5.5336 1.7648 -2.1213 0
M  V30 END ATOM
M  V30 BEGIN BOND
M  V30 1 1 1 2
M  V30 2 1 2 3
M  V30 3 1 2 4
M  V30 4 1 3 5
M  V30 5 1 3 6
M  V30 6 1 4 7
M  V30 7 1 4 8
M  V30 8 1 5 9
M  V30 9 1 5 10
M  V30 10 1 6 11
M  V30 11 1 6 12
M  V30 12 1 8 13
M  V30 13 1 9 14
M  V30 14 1 9 15
M  V30 15 1 11 16
M  V30 16 1 14 17
M  V30 17 1 14 18
M  V30 18 1 15 19
M  V30 19 1 16 20
M  V30 20 1 17 21
M  V30 21 1 19 22
M  V30 22 2 21 23
M  V30 23 2 22 24
M  V30 24 1 7 10
M  V30 25 1 7 11
M  V30 26 1 12 15
M  V30 27 1 15 16
M  V30 28 2 17 19
M  V30 29 1 23 24
M  V30 30 1 1 25
M  V30 31 1 2 26
M  V30 32 1 4 27
M  V30 33 1 5 28
M  V30 34 1 6 29
M  V30 35 1 7 30
M  V30 36 1 8 31
M  V30 37 1 8 32
M  V30 38 1 9 33
M  V30 39 1 10 34
M  V30 40 1 10 35
M  V30 41 1 11 36
M  V30 42 1 12 37
M  V30 43 1 12 38
M  V30 44 1 13 39
M  V30 45 1 13 40
M  V30 46 1 13 41
M  V30 47 1 16 42
M  V30 48 1 18 43
M  V30 49 1 18 44
M  V30 50 1 18 45
M  V30 51 1 20 46
M  V30 52 1 21 47
M  V30 53 1 22 48
M  V30 54 1 23 49
M  V30 55 1 24 50
M  V30 END BOND
M  V30 BEGIN COLLECTION
M  V30 MDLV30/STEABS ATOMS=(10 2 3 4 5 6 7 9 11 15 16)
M  V30 END COLLECTION
M  V30 END CTAB
M  END
>  <Structure No>
4545

>  <LogS>
-2.8266

>  <MMFF94 Energy>
87.335

$$$$
Compound 4546
Actelion Java MolfileCreator 2.0

  0  0  0  0  0  0              0 V3000
M  V30 BEGIN CTAB
M  V30 COUNTS 39 38 0 0 0
M  V30 BEGIN ATOM
M  V30 1 O 5.8708 -0.2374 -1.8218 0
M  V30 2 C 5.2202 -0.6991 -0.8464 0
M  V30 3 O 4.8612 -2.0411 -0.8373 0 CHG=-1
M  V30 4 C 4.8366 0.1865 0.307 0
M  V30 5 C 6.076 0.6271 1.0352 0
M  V30 6 C 4.0186 1.4142 -0.1523 0
M  V30 7 O 6.3063 0.21 2.201 0
M  V30 8 O 6.985 1.4836 0.4239 0 CHG=-1
M  V30 9 C 2.6923 1.0616 -0.8527 0
M  V30 10 C 1.6642 0.4298 0.0977 0
M  V30 11 C 0.3071 0.2603 -0.596 0
M  V30 12 C -0.7164 -0.3858 0.3454 0
M  V30 13 C -2.0733 -0.5553 -0.3483 0
M  V30 14 C -3.1019 -1.1864 0.6015 0
M  V30 15 C -4.4258 -1.5427 -0.0987 0
M  V30 16 C -5.1953 -0.3415 -0.6767 0
M  V30 17 C -5.623 0.6647 0.3911 0
M  V30 18 H 4.2205 -0.4059 1.017 0
M  V30 19 H 4.6299 2.0213 -0.8562 0
M  V30 20 H 3.7998 2.0607 0.7264 0
M  V30 21 H 2.2677 2.0039 -1.2639 0
M  V30 22 H 2.8799 0.3821 -1.7118 0
M  V30 23 H 2.023 -0.5686 0.4259 0
M  V30 24 H 1.5395 1.077 0.9936 0
M  V30 25 H 0.4328 -0.3791 -1.4976 0
M  V30 26 H -0.0685 1.2564 -0.9186 0
M  V30 27 H -0.3407 -1.3818 0.6681 0
M  V30 28 H -0.8421 0.2537 1.2471 0
M  V30 29 H -2.4336 0.4433 -0.6758 0
M  V30 30 H -1.9496 -1.2026 -1.2442 0
M  V30 31 H -3.2912 -0.5097 1.4617 0
M  V30 32 H -2.6779 -2.1277 1.0154 0
M  V30 33 H -5.0797 -2.0709 0.629 0
M  V30 34 H -4.2158 -2.2587 -0.923 0
M  V30 35 H -6.1108 -0.7273 -1.1754 0
M  V30 36 H -4.5942 0.1711 -1.4565 0
M  V30 37 H -6.1603 0.1518 1.2168 0
M  V30 38 H -6.3041 1.4157 -0.0615 0
M  V30 39 H -4.7413 1.2022 0.7977 0
M  V30 END ATOM
M  V30 BEGIN BOND
M  V30 1 2 1 2
M  V30 2 1 2 3
M  V30 3 1 2 4
M  V30 4 1 4 5
M  V30 5 1 4 6
M  V30 6 2 5 7
M  V30 7 1 5 8
M  V30 8 1 6 9
M  V30 9 1 9 10
M  V30 10 1 10 11
M  V30 11 1 11 12
M  V30 12 1 12 13
M  V30 13 1 13 14
M  V30 14 1 14 15
M  V30 15 1 15 16
M  V30 16 1 16 17
M  V30 17 1 4 18
M  V30 18 1 6 19
M  V30 19 1 6 20
M  V30 20 1 9 21
M  V30 21 1 9 22
M  V30 22 1 10 23
M  V30 23 1 10 24
M  V30 24 1 11 25
M  V30 25 1 11 26
M  V30 26 1 12 27
M  V30 27 1 12 28
M  V30 28 1 13 29
M  V30 29 1 13 30
M  V30 30 1 14 31
M  V30 31 1 14 32
M  V30 32 1 15 33
M  V30 33 1 15 34
M  V30 34 1 16 35
M  V30 35 1 16 36
M  V30 36 1 17 37
M  V30 37 1 17 38
M  V30 38 1 17 39
M  V30 END BOND
M  V30 END CTAB
M  END
>  <Structure No>
4546

>  <LogS>
-3.99

>  <MMFF94 Energy>
42.8

$$$$
Compound 4547
Actelion Java MolfileCreator 2.0

  0  0  0  0  0  0              0 V3000
M  V30 BEGIN CTAB
M  V30 COUNTS 20 20 0 0 0
M  V30 BEGIN ATOM
M  V30 1 O -1.9571 1.4871 1.3305 0
M  V30 2 C -0.8184 0.9389 0.74 0
M  V30 3 C -0.9285 -0.1776 -0.1112 0
M  V30 4 C 0.4409 1.4976 0.9978 0
M  V30 5 C 0.2327 -0.735 -0.6724 0
M  V30 6 C -2.2652 -0.8234 -0.3704 0
M  V30 7 C 1.5884 0.9481 0.4222 0
M  V30 8 C 1.4901 -0.1632 -0.4262 0
M  V30 9 O -2.5235 -1.8009 0.5996 0
M  V30 10 C 2.7278 -0.7832 -1.0045 0
M  V30 11 H -1.9018 2.2889 1.9478 0
M  V30 12 H 0.5322 2.3554 1.6521 0
M  V30 13 H 0.1575 -1.6139 -1.3022 0
M  V30 14 H -3.0794 -0.0637 -0.3869 0
M  V30 15 H -2.2653 -1.3071 -1.3706 0
M  V30 16 H 2.5539 1.387 0.6419 0
M  V30 17 H -2.8014 -1.3187 1.422 0
M  V30 18 H 3.1091 -1.5615 -0.311 0
M  V30 19 H 2.5085 -1.2501 -1.9884 0
M  V30 20 H 3.5166 -0.016 -1.1575 0
M  V30 END ATOM
M  V30 BEGIN BOND
M  V30 1 1 1 2
M  V30 2 2 2 3
M  V30 3 1 2 4
M  V30 4 1 3 5
M  V30 5 1 3 6
M  V30 6 2 4 7
M  V30 7 2 5 8
M  V30 8 1 6 9
M  V30 9 1 8 10
M  V30 10 1 7 8
M  V30 11 1 1 11
M  V30 12 1 4 12
M  V30 13 1 5 13
M  V30 14 1 6 14
M  V30 15 1 6 15
M  V30 16 1 7 16
M  V30 17 1 9 17
M  V30 18 1 10 18
M  V30 19 1 10 19
M  V30 20 1 10 20
M  V30 END BOND
M  V30 END CTAB
M  END
>  <Structure No>
4547

>  <LogS>
-0.3143

>  <MMFF94 Energy>
8.0796

$$$$
Compound 4548
Actelion Java MolfileCreator 2.0

  0  0  0  0  0  0              0 V3000
M  V30 BEGIN CTAB
M  V30 COUNTS 30 30 0 0 0
M  V30 BEGIN ATOM
M  V30 1 O 2.0475 2.4417 0.3935 0
M  V30 2 C 1.6201 1.2603 0.2799 0
M  V30 3 O 2.4705 0.1793 0.5263 0
M  V30 4 C 0.2206 1.0302 -0.1262 0
M  V30 5 C 3.8287 0.3404 0.9198 0
M  V30 6 N -0.6206 2.0278 -0.4609 0
M  V30 7 C -0.4308 -0.1935 -0.2318 0
M  V30 8 C 4.4668 -1.026 1.1095 0
M  V30 9 C -1.801 1.4706 -0.791 0
M  V30 10 C -1.7175 0.0832 -0.6866 0
M  V30 11 C 0.1471 -1.5449 0.0769 0
M  V30 12 C -2.9695 2.2825 -1.1747 0
M  V30 13 C -2.8087 -0.9224 -0.9482 0
M  V30 14 O -4.0954 1.7632 -1.3884 0
M  V30 15 C -3.6349 -1.1643 0.31 0
M  V30 16 H 3.8784 0.9051 1.876 0
M  V30 17 H 4.3832 0.8995 0.1352 0
M  V30 18 H -0.4021 3.0497 -0.4592 0
M  V30 19 H 3.9239 -1.5919 1.896 0
M  V30 20 H 5.5268 -0.9058 1.4172 0
M  V30 21 H 4.429 -1.5973 0.1579 0
M  V30 22 H 0.6281 -1.5283 1.0767 0
M  V30 23 H 0.9006 -1.8118 -0.6928 0
M  V30 24 H -0.6348 -2.329 0.1018 0
M  V30 25 H -2.8621 3.3556 -1.2618 0
M  V30 26 H -3.4672 -0.5766 -1.7703 0
M  V30 27 H -2.371 -1.882 -1.2928 0
M  V30 28 H -4.1101 -0.2192 0.6486 0
M  V30 29 H -4.4322 -1.9061 0.0945 0
M  V30 30 H -2.9905 -1.5605 1.1235 0
M  V30 END ATOM
M  V30 BEGIN BOND
M  V30 1 2 1 2
M  V30 2 1 2 3
M  V30 3 1 2 4
M  V30 4 1 3 5
M  V30 5 1 4 6
M  V30 6 2 4 7
M  V30 7 1 5 8
M  V30 8 1 6 9
M  V30 9 1 7 10
M  V30 10 1 7 11
M  V30 11 1 9 12
M  V30 12 1 10 13
M  V30 13 2 12 14
M  V30 14 1 13 15
M  V30 15 2 9 10
M  V30 16 1 5 16
M  V30 17 1 5 17
M  V30 18 1 6 18
M  V30 19 1 8 19
M  V30 20 1 8 20
M  V30 21 1 8 21
M  V30 22 1 11 22
M  V30 23 1 11 23
M  V30 24 1 11 24
M  V30 25 1 12 25
M  V30 26 1 13 26
M  V30 27 1 13 27
M  V30 28 1 15 28
M  V30 29 1 15 29
M  V30 30 1 15 30
M  V30 END BOND
M  V30 END CTAB
M  END
>  <Structure No>
4548

>  <LogS>
-2.7186

>  <MMFF94 Energy>
0.71495

$$$$
Compound 4549
Actelion Java MolfileCreator 2.0

  0  0  0  0  0  0              0 V3000
M  V30 BEGIN CTAB
M  V30 COUNTS 28 29 0 0 0
M  V30 BEGIN ATOM
M  V30 1 F 3.4471 2.3792 -0.6559 0
M  V30 2 C 3.5412 1.0468 -1.0116 0
M  V30 3 F 2.9974 0.8772 -2.2731 0
M  V30 4 F 4.8771 0.6881 -1.0655 0
M  V30 5 C 2.8014 0.2093 0.0017 0
M  V30 6 C 1.4158 0.0024 -0.1253 0
M  V30 7 C 3.4679 -0.3015 1.1285 0
M  V30 8 C 0.7075 -0.7336 0.843 0
M  V30 9 C 2.7726 -1.05 2.0807 0
M  V30 10 N -0.7034 -0.9797 0.7111 0
M  V30 11 C 1.4024 -1.2746 1.934 0
M  V30 12 C -1.6039 -0.0829 0.0398 0
M  V30 13 N -1.3685 1.2585 0.099 0
M  V30 14 C -2.7767 -0.557 -0.5979 0
M  V30 15 C -2.2178 2.1713 -0.4375 0
M  V30 16 C -3.067 -2.002 -0.7596 0
M  V30 17 C -3.6702 0.3862 -1.1353 0
M  V30 18 C -3.3905 1.7498 -1.0581 0
M  V30 19 O -4.2496 -2.3938 -0.9476 0
M  V30 20 O -2.0427 -2.9411 -0.7543 0 CHG=-1
M  V30 21 H 0.8938 0.4006 -0.9859 0
M  V30 22 H 4.5266 -0.1263 1.2714 0
M  V30 23 H 3.2966 -1.4536 2.9375 0
M  V30 24 H -1.1147 -1.7783 1.2452 0
M  V30 25 H 0.8773 -1.8564 2.6812 0
M  V30 26 H -1.9869 3.2259 -0.3708 0
M  V30 27 H -4.5763 0.0681 -1.6363 0
M  V30 28 H -4.0747 2.4736 -1.482 0
M  V30 END ATOM
M  V30 BEGIN BOND
M  V30 1 1 1 2
M  V30 2 1 2 3
M  V30 3 1 2 4
M  V30 4 1 2 5
M  V30 5 2 5 6
M  V30 6 1 5 7
M  V30 7 1 6 8
M  V30 8 2 7 9
M  V30 9 1 8 10
M  V30 10 2 8 11
M  V30 11 1 10 12
M  V30 12 2 12 13
M  V30 13 1 12 14
M  V30 14 1 13 15
M  V30 15 1 14 16
M  V30 16 2 14 17
M  V30 17 2 15 18
M  V30 18 2 16 19
M  V30 19 1 16 20
M  V30 20 1 9 11
M  V30 21 1 17 18
M  V30 22 1 6 21
M  V30 23 1 7 22
M  V30 24 1 9 23
M  V30 25 1 10 24
M  V30 26 1 11 25
M  V30 27 1 15 26
M  V30 28 1 17 27
M  V30 29 1 18 28
M  V30 END BOND
M  V30 END CTAB
M  END
>  <Structure No>
4549

>  <LogS>
-4.1718

>  <MMFF94 Energy>
25.524

$$$$
Compound 4550
Actelion Java MolfileCreator 2.0

  0  0  0  0  0  0              0 V3000
M  V30 BEGIN CTAB
M  V30 COUNTS 26 26 0 0 0
M  V30 BEGIN ATOM
M  V30 1 O 2.5852 -2.1148 -0.1565 0
M  V30 2 C 2.4802 -0.9055 -0.019 0
M  V30 3 C 1.3776 -0.1652 -0.7323 0
M  V30 4 C 3.4444 -0.1828 0.8732 0
M  V30 5 C 0.2434 0.2614 0.2282 0 CFG=1
M  V30 6 N -0.6261 1.2618 -0.4379 0 CHG=1
M  V30 7 C -0.5598 -0.967 0.7532 0
M  V30 8 C -1.9037 1.4356 0.2682 0
M  V30 9 C -1.9063 -1.1141 0.0419 0
M  V30 10 C -2.7591 0.1549 0.2009 0
M  V30 11 H 0.9605 -0.7974 -1.547 0
M  V30 12 H 1.8182 0.7362 -1.2107 0
M  V30 13 H 3.3558 -0.5725 1.9087 0
M  V30 14 H 3.2368 0.9079 0.8822 0
M  V30 15 H 4.4805 -0.3442 0.5094 0
M  V30 16 H 0.7155 0.7514 1.1113 0
M  V30 17 H -0.1305 2.1842 -0.4547 0
M  V30 18 H -0.8206 0.9863 -1.4301 0
M  V30 19 H -0.7522 -0.8371 1.8414 0
M  V30 20 H 0.0122 -1.9124 0.6434 0
M  V30 21 H -2.4712 2.279 -0.1839 0
M  V30 22 H -1.7109 1.7019 1.3324 0
M  V30 23 H -2.4561 -1.9869 0.4556 0
M  V30 24 H -1.7255 -1.3106 -1.0377 0
M  V30 25 H -3.368 0.08 1.1282 0
M  V30 26 H -3.4628 0.2214 -0.657 0
M  V30 END ATOM
M  V30 BEGIN BOND
M  V30 1 2 1 2
M  V30 2 1 2 3
M  V30 3 1 2 4
M  V30 4 1 3 5
M  V30 5 1 5 6
M  V30 6 1 5 7
M  V30 7 1 6 8
M  V30 8 1 7 9
M  V30 9 1 8 10
M  V30 10 1 9 10
M  V30 11 1 3 11
M  V30 12 1 3 12
M  V30 13 1 4 13
M  V30 14 1 4 14
M  V30 15 1 4 15
M  V30 16 1 5 16
M  V30 17 1 6 17
M  V30 18 1 6 18
M  V30 19 1 7 19
M  V30 20 1 7 20
M  V30 21 1 8 21
M  V30 22 1 8 22
M  V30 23 1 9 23
M  V30 24 1 9 24
M  V30 25 1 10 25
M  V30 26 1 10 26
M  V30 END BOND
M  V30 BEGIN COLLECTION
M  V30 MDLV30/STEABS ATOMS=(1 5)
M  V30 END COLLECTION
M  V30 END CTAB
M  END
>  <Structure No>
4550

>  <LogS>
-0.4509

>  <MMFF94 Energy>
-8.0663

$$$$
Compound 4551
Actelion Java MolfileCreator 2.0

  0  0  0  0  0  0              0 V3000
M  V30 BEGIN CTAB
M  V30 COUNTS 22 21 0 0 0
M  V30 BEGIN ATOM
M  V30 1 O 1.0851 -2.0935 -1.7832 0
M  V30 2 N 1.5433 -0.8338 -1.4711 0
M  V30 3 C 0.7864 0.0763 -0.9344 0
M  V30 4 C -0.6259 -0.1971 -0.5782 0
M  V30 5 C 1.3552 1.4528 -0.7196 0
M  V30 6 N -1.536 0.6462 -0.9634 0
M  V30 7 C -0.9797 -1.3548 0.3289 0
M  V30 8 C 1.5356 1.7472 0.7657 0
M  V30 9 O -2.8638 0.4975 -0.6321 0
M  V30 10 C -1.1436 -0.8877 1.7722 0
M  V30 11 H 1.711 -2.7712 -2.1988 0
M  V30 12 H 0.6809 2.2136 -1.1679 0
M  V30 13 H 2.3419 1.5423 -1.2251 0
M  V30 14 H -1.9217 -1.8323 -0.0163 0
M  V30 15 H -0.19 -2.1329 0.3104 0
M  V30 16 H 2.1807 0.9753 1.2373 0
M  V30 17 H 0.5503 1.7681 1.2775 0
M  V30 18 H 2.0173 2.7395 0.8916 0
M  V30 19 H -3.5436 1.1765 -0.9496 0
M  V30 20 H -0.1851 -0.477 2.1537 0
M  V30 21 H -1.932 -0.1093 1.847 0
M  V30 22 H -1.436 -1.7486 2.4097 0
M  V30 END ATOM
M  V30 BEGIN BOND
M  V30 1 1 1 2
M  V30 2 2 2 3
M  V30 3 1 3 4
M  V30 4 1 3 5
M  V30 5 2 4 6
M  V30 6 1 4 7
M  V30 7 1 5 8
M  V30 8 1 6 9
M  V30 9 1 7 10
M  V30 10 1 1 11
M  V30 11 1 5 12
M  V30 12 1 5 13
M  V30 13 1 7 14
M  V30 14 1 7 15
M  V30 15 1 8 16
M  V30 16 1 8 17
M  V30 17 1 8 18
M  V30 18 1 9 19
M  V30 19 1 10 20
M  V30 20 1 10 21
M  V30 21 1 10 22
M  V30 END BOND
M  V30 END CTAB
M  END
>  <Structure No>
4551

>  <LogS>
-2.5525

>  <MMFF94 Energy>
61.558

$$$$
Compound 4552
Actelion Java MolfileCreator 2.0

  0  0  0  0  0  0              0 V3000
M  V30 BEGIN CTAB
M  V30 COUNTS 33 34 0 0 0
M  V30 BEGIN ATOM
M  V30 1 S 1.1385 2.4408 -1.3826 0
M  V30 2 O 0.6099 2.3275 -2.7852 0
M  V30 3 O 1.9431 3.7038 -1.2605 0
M  V30 4 N -0.1989 2.5016 -0.2821 0
M  V30 5 C 2.1676 1.0655 -0.9967 0
M  V30 6 C -1.1043 1.4048 -0.1286 0
M  V30 7 C 2.4074 0.7263 0.3414 0
M  V30 8 C 2.7506 0.3045 -2.0193 0
M  V30 9 N -2.1141 1.487 0.776 0
M  V30 10 N -0.9593 0.2789 -0.8752 0
M  V30 11 C 3.216 -0.37 0.6555 0
M  V30 12 C 3.56 -0.7916 -1.7053 0
M  V30 13 C -2.9925 0.4645 0.958 0
M  V30 14 C -1.8062 -0.7713 -0.7339 0
M  V30 15 C 3.7955 -1.1349 -0.3664 0
M  V30 16 C -2.8551 -0.7116 0.1929 0
M  V30 17 C -4.084 0.6223 1.9752 0
M  V30 18 N 4.622 -2.2567 -0.0456 0
M  V30 19 C -3.7945 -1.8765 0.3503 0
M  V30 20 H -0.3302 3.3603 0.2976 0
M  V30 21 H 1.9665 1.3085 1.1408 0
M  V30 22 H 2.5797 0.557 -3.0577 0
M  V30 23 H 3.3907 -0.6229 1.6937 0
M  V30 24 H 4.0028 -1.3727 -2.5043 0
M  V30 25 H -1.6588 -1.652 -1.3454 0
M  V30 26 H -3.9881 -0.1584 2.7582 0
M  V30 27 H -4.0206 1.6179 2.4638 0
M  V30 28 H -5.0756 0.5365 1.4838 0
M  V30 29 H 5.0583 -2.8323 -0.7999 0
M  V30 30 H 4.8035 -2.5199 0.9487 0
M  V30 31 H -3.7531 -2.2554 1.3929 0
M  V30 32 H -4.8317 -1.558 0.1156 0
M  V30 33 H -3.5264 -2.7113 -0.3315 0
M  V30 END ATOM
M  V30 BEGIN BOND
M  V30 1 2 1 2
M  V30 2 2 1 3
M  V30 3 1 1 4
M  V30 4 1 1 5
M  V30 5 1 4 6
M  V30 6 2 5 7
M  V30 7 1 5 8
M  V30 8 2 6 9
M  V30 9 1 6 10
M  V30 10 1 7 11
M  V30 11 2 8 12
M  V30 12 1 9 13
M  V30 13 2 10 14
M  V30 14 2 11 15
M  V30 15 2 13 16
M  V30 16 1 13 17
M  V30 17 1 15 18
M  V30 18 1 16 19
M  V30 19 1 12 15
M  V30 20 1 14 16
M  V30 21 1 4 20
M  V30 22 1 7 21
M  V30 23 1 8 22
M  V30 24 1 11 23
M  V30 25 1 12 24
M  V30 26 1 14 25
M  V30 27 1 17 26
M  V30 28 1 17 27
M  V30 29 1 17 28
M  V30 30 1 18 29
M  V30 31 1 18 30
M  V30 32 1 19 31
M  V30 33 1 19 32
M  V30 34 1 19 33
M  V30 END BOND
M  V30 END CTAB
M  END
>  <Structure No>
4552

>  <LogS>
-3.1435

>  <MMFF94 Energy>
-131.27

$$$$
Compound 4553
Actelion Java MolfileCreator 2.0

  0  0  0  0  0  0              0 V3000
M  V30 BEGIN CTAB
M  V30 COUNTS 24 24 0 0 0
M  V30 BEGIN ATOM
M  V30 1 C -0.9402 0.1566 0.2349 0
M  V30 2 C 0.407 0.434 0.9302 0
M  V30 3 C -0.6685 0.4281 -1.2506 0
M  V30 4 C -1.3599 -1.3156 0.4428 0
M  V30 5 C -2.0504 1.0814 0.7704 0
M  V30 6 C 1.4988 0.3215 -0.1479 0 CFG=2
M  V30 7 C 0.7842 0.0449 -1.4748 0
M  V30 8 C 2.5331 -0.7609 0.1821 0
M  V30 9 H 0.4303 1.4667 1.3458 0
M  V30 10 H 0.5792 -0.2572 1.7858 0
M  V30 11 H -1.3466 -0.1437 -1.9218 0
M  V30 12 H -0.7852 1.5117 -1.4782 0
M  V30 13 H -1.5316 -1.5225 1.5212 0
M  V30 14 H -0.5733 -2.0102 0.0783 0
M  V30 15 H -2.3009 -1.5346 -0.1066 0
M  V30 16 H -3.0044 0.8929 0.2323 0
M  V30 17 H -2.213 0.9024 1.8551 0
M  V30 18 H -1.7786 2.1503 0.6315 0
M  V30 19 H 2.03 1.2972 -0.2266 0
M  V30 20 H 0.8357 -1.0333 -1.7458 0
M  V30 21 H 1.2291 0.6384 -2.3032 0
M  V30 22 H 3.0549 -0.5087 1.1297 0
M  V30 23 H 2.0437 -1.7523 0.295 0
M  V30 24 H 3.2896 -0.8222 -0.6289 0
M  V30 END ATOM
M  V30 BEGIN BOND
M  V30 1 1 1 2
M  V30 2 1 1 3
M  V30 3 1 1 4
M  V30 4 1 1 5
M  V30 5 1 2 6
M  V30 6 1 3 7
M  V30 7 1 6 8
M  V30 8 1 6 7
M  V30 9 1 2 9
M  V30 10 1 2 10
M  V30 11 1 3 11
M  V30 12 1 3 12
M  V30 13 1 4 13
M  V30 14 1 4 14
M  V30 15 1 4 15
M  V30 16 1 5 16
M  V30 17 1 5 17
M  V30 18 1 5 18
M  V30 19 1 6 19
M  V30 20 1 7 20
M  V30 21 1 7 21
M  V30 22 1 8 22
M  V30 23 1 8 23
M  V30 24 1 8 24
M  V30 END BOND
M  V30 BEGIN COLLECTION
M  V30 MDLV30/STEABS ATOMS=(1 6)
M  V30 END COLLECTION
M  V30 END CTAB
M  END
>  <Structure No>
4553

>  <LogS>
-4.4784

>  <MMFF94 Energy>
20.129

$$$$
Compound 4554
Actelion Java MolfileCreator 2.0

  0  0  0  0  0  0              0 V3000
M  V30 BEGIN CTAB
M  V30 COUNTS 17 17 0 0 0
M  V30 BEGIN ATOM
M  V30 1 O -0.4765 -1.43 -2.1457 0
M  V30 2 C -0.0492 -0.8323 -1.1221 0
M  V30 3 N 1.285 -0.3112 -1.1065 0
M  V30 4 C -0.9502 -0.645 0.0686 0 CFG=1
M  V30 5 C 1.7709 0.5152 -0.0042 0
M  V30 6 N -0.159 -0.5089 1.293 0
M  V30 7 C -1.8315 0.5891 -0.1196 0
M  V30 8 C 1.1412 0.0927 1.289 0
M  V30 9 O 1.7404 0.3011 2.377 0
M  V30 10 H 1.8882 -0.4294 -1.9512 0
M  V30 11 H -1.6058 -1.5381 0.1666 0
M  V30 12 H 2.8758 0.4222 0.0663 0
M  V30 13 H 1.5142 1.5769 -0.2025 0
M  V30 14 H -0.5982 -0.762 2.2069 0
M  V30 15 H -2.5016 0.7111 0.7577 0
M  V30 16 H -2.4608 0.4763 -1.0282 0
M  V30 17 H -1.2082 1.5032 -0.2225 0
M  V30 END ATOM
M  V30 BEGIN BOND
M  V30 1 2 1 2
M  V30 2 1 2 3
M  V30 3 1 2 4
M  V30 4 1 3 5
M  V30 5 1 4 6
M  V30 6 1 4 7
M  V30 7 1 5 8
M  V30 8 2 8 9
M  V30 9 1 6 8
M  V30 10 1 3 10
M  V30 11 1 4 11
M  V30 12 1 5 12
M  V30 13 1 5 13
M  V30 14 1 6 14
M  V30 15 1 7 15
M  V30 16 1 7 16
M  V30 17 1 7 17
M  V30 END BOND
M  V30 BEGIN COLLECTION
M  V30 MDLV30/STEABS ATOMS=(1 4)
M  V30 END COLLECTION
M  V30 END CTAB
M  END
>  <Structure No>
4554

>  <LogS>
0.2903

>  <MMFF94 Energy>
52.437

$$$$
Compound 4555
Actelion Java MolfileCreator 2.0

  0  0  0  0  0  0              0 V3000
M  V30 BEGIN CTAB
M  V30 COUNTS 12 11 0 0 0
M  V30 BEGIN ATOM
M  V30 1 O -0.6126 2.7593 0.1531 0
M  V30 2 N -1.2027 1.6638 0.0489 0
M  V30 3 N -0.5058 0.4427 0.0837 0
M  V30 4 C 0.9299 0.4299 0.2431 0
M  V30 5 C -1.2824 -0.7902 -0.046 0
M  V30 6 C 1.6489 -0.6932 0.2837 0
M  V30 7 H 1.4615 1.3689 0.3354 0
M  V30 8 H -2.3636 -0.5591 -0.1582 0
M  V30 9 H -1.1529 -1.4164 0.8618 0
M  V30 10 H -0.9518 -1.3529 -0.9443 0
M  V30 11 H 2.7231 -0.638 0.4052 0
M  V30 12 H 1.1969 -1.6715 0.199 0
M  V30 END ATOM
M  V30 BEGIN BOND
M  V30 1 2 1 2
M  V30 2 1 2 3
M  V30 3 1 3 4
M  V30 4 1 3 5
M  V30 5 2 4 6
M  V30 6 1 4 7
M  V30 7 1 5 8
M  V30 8 1 5 9
M  V30 9 1 5 10
M  V30 10 1 6 11
M  V30 11 1 6 12
M  V30 END BOND
M  V30 END CTAB
M  END
>  <Structure No>
4555

>  <LogS>
-0.4579

>  <MMFF94 Energy>
10.64

$$$$
Compound 4556
Actelion Java MolfileCreator 2.0

  0  0  0  0  0  0              0 V3000
M  V30 BEGIN CTAB
M  V30 COUNTS 11 11 0 0 0
M  V30 BEGIN ATOM
M  V30 1 O -0.3915 2.3511 0.0783 0
M  V30 2 C -0.1807 1.1093 0.0495 0
M  V30 3 N -1.2266 0.24 -0.0115 0
M  V30 4 C 1.1274 0.6229 0.0803 0
M  V30 5 C -1.0121 -1.1029 -0.043 0
M  V30 6 C 1.324 -0.7568 0.0472 0
M  V30 7 N 0.255 -1.5923 -0.0137 0
M  V30 8 H -2.2068 0.6018 -0.0346 0
M  V30 9 H 1.9734 1.2972 0.129 0
M  V30 10 H -1.8502 -1.7858 -0.0916 0
M  V30 11 H 2.3258 -1.1641 0.0698 0
M  V30 END ATOM
M  V30 BEGIN BOND
M  V30 1 2 1 2
M  V30 2 1 2 3
M  V30 3 1 2 4
M  V30 4 1 3 5
M  V30 5 2 4 6
M  V30 6 2 5 7
M  V30 7 1 6 7
M  V30 8 1 3 8
M  V30 9 1 4 9
M  V30 10 1 5 10
M  V30 11 1 6 11
M  V30 END BOND
M  V30 END CTAB
M  END
>  <Structure No>
4556

>  <LogS>
0.586

>  <MMFF94 Energy>
-57.572

$$$$
Compound 4557
Actelion Java MolfileCreator 2.0

  0  0  0  0  0  0              0 V3000
M  V30 BEGIN CTAB
M  V30 COUNTS 15 15 0 0 0
M  V30 BEGIN ATOM
M  V30 1 O 0.789 1.1048 1.6575 0
M  V30 2 C 0.8027 0.3866 0.6699 0
M  V30 3 C -0.4628 0.1742 -0.1089 0 CFG=2
M  V30 4 C 2.0735 -0.3025 0.276 0
M  V30 5 O -0.3129 0.4874 -1.4734 0
M  V30 6 C -1.1167 1.3608 -0.7088 0
M  V30 7 C -1.287 -1.09 0.1165 0
M  V30 8 H 1.9158 -0.9423 -0.6178 0
M  V30 9 H 2.8504 0.4552 0.0422 0
M  V30 10 H 2.4258 -0.9409 1.1132 0
M  V30 11 H -0.6167 2.3429 -0.5711 0
M  V30 12 H -2.187 1.2673 -0.9892 0
M  V30 13 H -0.64 -1.9836 -0.0083 0
M  V30 14 H -2.1305 -1.1604 -0.6036 0
M  V30 15 H -1.6967 -1.0832 1.1481 0
M  V30 END ATOM
M  V30 BEGIN BOND
M  V30 1 2 1 2
M  V30 2 1 2 3
M  V30 3 1 2 4
M  V30 4 1 3 5
M  V30 5 1 3 6
M  V30 6 1 3 7
M  V30 7 1 5 6
M  V30 8 1 4 8
M  V30 9 1 4 9
M  V30 10 1 4 10
M  V30 11 1 6 11
M  V30 12 1 6 12
M  V30 13 1 7 13
M  V30 14 1 7 14
M  V30 15 1 7 15
M  V30 END BOND
M  V30 BEGIN COLLECTION
M  V30 MDLV30/STEABS ATOMS=(1 3)
M  V30 END COLLECTION
M  V30 END CTAB
M  END
>  <Structure No>
4557

>  <LogS>
0.3797

>  <MMFF94 Energy>
25.188

$$$$
Compound 4558
Actelion Java MolfileCreator 2.0

  0  0  0  0  0  0              0 V3000
M  V30 BEGIN CTAB
M  V30 COUNTS 18 17 0 0 0
M  V30 BEGIN ATOM
M  V30 1 S -0.4163 -0.916 2.4164 0
M  V30 2 C -0.069 -1.1487 0.8306 0
M  V30 3 S 1.554 -1.7696 0.3875 0
M  V30 4 N -1.0557 -0.9589 -0.1956 0
M  V30 5 C 2.3233 -0.119 0.2336 0
M  V30 6 C -2.3618 -0.3416 0.0305 0
M  V30 7 C 1.9809 0.5239 -1.1043 0
M  V30 8 C -2.2095 1.1298 0.2505 0
M  V30 9 O -1.8173 1.8717 -0.6879 0
M  V30 10 O -2.4883 1.6822 1.4942 0 CHG=-1
M  V30 11 H -0.8149 -1.2507 -1.1694 0
M  V30 12 H 2.0055 0.5427 1.0677 0
M  V30 13 H 3.4245 -0.245 0.2979 0
M  V30 14 H -3.0039 -0.5018 -0.862 0
M  V30 15 H -2.8679 -0.8188 0.8968 0
M  V30 16 H 2.5361 1.4796 -1.2093 0
M  V30 17 H 2.2686 -0.1499 -1.9386 0
M  V30 18 H 0.8949 0.7415 -1.1645 0
M  V30 END ATOM
M  V30 BEGIN BOND
M  V30 1 2 1 2
M  V30 2 1 2 3
M  V30 3 1 2 4
M  V30 4 1 3 5
M  V30 5 1 4 6
M  V30 6 1 5 7
M  V30 7 1 6 8
M  V30 8 2 8 9
M  V30 9 1 8 10
M  V30 10 1 4 11
M  V30 11 1 5 12
M  V30 12 1 5 13
M  V30 13 1 6 14
M  V30 14 1 6 15
M  V30 15 1 7 16
M  V30 16 1 7 17
M  V30 17 1 7 18
M  V30 END BOND
M  V30 END CTAB
M  END
>  <Structure No>
4558

>  <LogS>
-1.0882

>  <MMFF94 Energy>
10.352

$$$$
Compound 4559
Actelion Java MolfileCreator 2.0

  0  0  0  0  0  0              0 V3000
M  V30 BEGIN CTAB
M  V30 COUNTS 45 46 0 0 0
M  V30 BEGIN ATOM
M  V30 1 O 1.6753 0.7177 -1.0368 0
M  V30 2 C 0.9148 -0.4792 -1.056 0 CFG=2
M  V30 3 C 2.4443 0.8673 0.1551 0 CFG=1
M  V30 4 O 0.0819 -0.573 0.093 0
M  V30 5 C 1.846 -1.719 -1.1413 0 CFG=1
M  V30 6 C 3.1015 -0.4681 0.6423 0 CFG=1
M  V30 7 C 3.4828 1.9751 -0.0982 0
M  V30 8 C -1.1238 0.1542 -0.0824 0 CFG=1
M  V30 9 O 1.98 -2.1599 -2.4703 0
M  V30 10 C 3.2395 -1.4414 -0.5297 0 CFG=1
M  V30 11 O 4.3591 -0.2587 1.2345 0
M  V30 12 O 2.8594 3.1317 -0.5888 0
M  V30 13 C -2.2018 -0.7094 -0.7045 0 CFG=2
M  V30 14 C -1.747 0.474 1.2804 0 CFG=2
M  V30 15 O 3.8175 -2.64 -0.0815 0
M  V30 16 O -2.2335 -0.6509 -2.1123 0
M  V30 17 C -3.4929 -0.1856 -0.0511 0 CFG=1
M  V30 18 O -3.1559 0.4107 1.1868 0
M  V30 19 C -1.3224 1.8439 1.8303 0
M  V30 20 O -4.1245 0.7702 -0.8706 0
M  V30 21 C -4.4798 -1.3342 0.2004 0
M  V30 22 O -1.7463 2.8843 0.9896 0
M  V30 23 O -5.6534 -0.8371 0.7829 0
M  V30 24 H 0.3041 -0.4743 -1.9875 0
M  V30 25 H 1.7804 1.2347 0.9657 0
M  V30 26 H 1.3673 -2.545 -0.5692 0
M  V30 27 H 2.4251 -0.944 1.3932 0
M  V30 28 H 4.0365 2.2197 0.8365 0
M  V30 29 H 4.219 1.6257 -0.8532 0
M  V30 30 H -0.9759 1.099 -0.6592 0
M  V30 31 H 2.346 -1.4042 -3.0009 0
M  V30 32 H 3.9054 -0.9673 -1.2896 0
M  V30 33 H 4.1888 0.1068 2.142 0
M  V30 34 H 2.3859 3.5471 0.1789 0
M  V30 35 H -2.0214 -1.7674 -0.4052 0
M  V30 36 H -1.4269 -0.2991 2.0154 0
M  V30 37 H 4.1118 -3.1339 -0.8909 0
M  V30 38 H -2.1978 0.2999 -2.3932 0
M  V30 39 H -1.7388 1.9806 2.8546 0
M  V30 40 H -0.2188 1.8841 1.9203 0
M  V30 41 H -3.5722 1.5951 -0.8503 0
M  V30 42 H -4.0185 -2.0836 0.8832 0
M  V30 43 H -4.7246 -1.8319 -0.7651 0
M  V30 44 H -2.7035 3.0473 1.1963 0
M  V30 45 H -6.2489 -1.6202 0.9142 0
M  V30 END ATOM
M  V30 BEGIN BOND
M  V30 1 1 1 2
M  V30 2 1 1 3
M  V30 3 1 2 4
M  V30 4 1 2 5
M  V30 5 1 3 6
M  V30 6 1 3 7
M  V30 7 1 4 8
M  V30 8 1 5 9
M  V30 9 1 5 10
M  V30 10 1 6 11
M  V30 11 1 7 12
M  V30 12 1 8 13
M  V30 13 1 8 14
M  V30 14 1 10 15
M  V30 15 1 13 16
M  V30 16 1 13 17
M  V30 17 1 14 18
M  V30 18 1 14 19
M  V30 19 1 17 20
M  V30 20 1 17 21
M  V30 21 1 19 22
M  V30 22 1 21 23
M  V30 23 1 6 10
M  V30 24 1 17 18
M  V30 25 1 2 24
M  V30 26 1 3 25
M  V30 27 1 5 26
M  V30 28 1 6 27
M  V30 29 1 7 28
M  V30 30 1 7 29
M  V30 31 1 8 30
M  V30 32 1 9 31
M  V30 33 1 10 32
M  V30 34 1 11 33
M  V30 35 1 12 34
M  V30 36 1 13 35
M  V30 37 1 14 36
M  V30 38 1 15 37
M  V30 39 1 16 38
M  V30 40 1 19 39
M  V30 41 1 19 40
M  V30 42 1 20 41
M  V30 43 1 21 42
M  V30 44 1 21 43
M  V30 45 1 22 44
M  V30 46 1 23 45
M  V30 END BOND
M  V30 BEGIN COLLECTION
M  V30 MDLV30/STEABS ATOMS=(9 2 3 5 6 8 10 13 14 17)
M  V30 END COLLECTION
M  V30 END CTAB
M  END
>  <Structure No>
4559

>  <LogS>
0.3487

>  <MMFF94 Energy>
195.97

$$$$
Compound 4560
Actelion Java MolfileCreator 2.0

  0  0  0  0  0  0              0 V3000
M  V30 BEGIN CTAB
M  V30 COUNTS 22 21 0 0 0
M  V30 BEGIN ATOM
M  V30 1 O 0.8499 -1.4684 -1.2364 0
M  V30 2 C 0.7848 -0.56 -0.3623 0
M  V30 3 O 1.9364 -0.1773 0.3346 0
M  V30 4 N -0.4734 0.0848 -0.0807 0
M  V30 5 C 3.2083 -0.7694 0.1003 0
M  V30 6 C -0.5321 1.1858 0.8894 0
M  V30 7 C -1.7021 -0.354 -0.7566 0
M  V30 8 C -0.025 2.4796 0.2614 0
M  V30 9 C -2.2395 -1.6282 -0.1143 0
M  V30 10 H 3.9574 -0.3005 0.7708 0
M  V30 11 H 3.1656 -1.8585 0.3136 0
M  V30 12 H 3.5157 -0.6045 -0.954 0
M  V30 13 H 0.0739 0.9366 1.7873 0
M  V30 14 H -1.576 1.343 1.2391 0
M  V30 15 H -1.5033 -0.5279 -1.8363 0
M  V30 16 H -2.4837 0.4346 -0.6961 0
M  V30 17 H 1.0356 2.372 -0.0476 0
M  V30 18 H -0.6396 2.7365 -0.6271 0
M  V30 19 H -0.0985 3.3062 0.9993 0
M  V30 20 H -1.5016 -2.4521 -0.2096 0
M  V30 21 H -2.4514 -1.4509 0.9614 0
M  V30 22 H -3.1803 -1.9324 -0.6196 0
M  V30 END ATOM
M  V30 BEGIN BOND
M  V30 1 2 1 2
M  V30 2 1 2 3
M  V30 3 1 2 4
M  V30 4 1 3 5
M  V30 5 1 4 6
M  V30 6 1 4 7
M  V30 7 1 6 8
M  V30 8 1 7 9
M  V30 9 1 5 10
M  V30 10 1 5 11
M  V30 11 1 5 12
M  V30 12 1 6 13
M  V30 13 1 6 14
M  V30 14 1 7 15
M  V30 15 1 7 16
M  V30 16 1 8 17
M  V30 17 1 8 18
M  V30 18 1 8 19
M  V30 19 1 9 20
M  V30 20 1 9 21
M  V30 21 1 9 22
M  V30 END BOND
M  V30 END CTAB
M  END
>  <Structure No>
4560

>  <LogS>
-0.2918

>  <MMFF94 Energy>
-53.009

$$$$
Compound 4561
Actelion Java MolfileCreator 2.0

  0  0  0  0  0  0              0 V3000
M  V30 BEGIN CTAB
M  V30 COUNTS 28 29 0 0 0
M  V30 BEGIN ATOM
M  V30 1 O -3.3073 2.8227 1.2896 0
M  V30 2 C -3.8023 1.6983 1.0139 0
M  V30 3 O -5.0823 1.6219 0.4796 0 CHG=-1
M  V30 4 C -2.9969 0.4533 1.2095 0
M  V30 5 C -2.203 0.1241 -0.0596 0
M  V30 6 C -1.3277 -1.0866 0.1266 0
M  V30 7 O -1.7998 -2.1205 0.6725 0
M  V30 8 C 0.023 -1.1435 -0.4724 0
M  V30 9 C 1.0735 -0.2674 -0.0909 0
M  V30 10 C 0.2544 -2.1023 -1.4713 0
M  V30 11 C 2.3238 -0.3492 -0.7625 0
M  V30 12 C 0.9302 0.6649 0.958 0
M  V30 13 C 1.4882 -2.1776 -2.1165 0
M  V30 14 C 2.5158 -1.3015 -1.7728 0
M  V30 15 C 3.3709 0.5153 -0.406 0
M  V30 16 C 1.9831 1.5161 1.3021 0
M  V30 17 C 3.1967 1.446 0.6187 0
M  V30 18 H -2.3074 0.5927 2.0699 0
M  V30 19 H -3.6852 -0.3849 1.4529 0
M  V30 20 H -1.584 1.001 -0.3496 0
M  V30 21 H -2.9083 -0.0799 -0.8939 0
M  V30 22 H -0.5341 -2.7836 -1.7681 0
M  V30 23 H 0.0166 0.7345 1.529 0
M  V30 24 H 1.6462 -2.9154 -2.8925 0
M  V30 25 H 3.4651 -1.3751 -2.29 0
M  V30 26 H 4.3259 0.4665 -0.9156 0
M  V30 27 H 1.8588 2.2297 2.1064 0
M  V30 28 H 4.0085 2.108 0.8912 0
M  V30 END ATOM
M  V30 BEGIN BOND
M  V30 1 2 1 2
M  V30 2 1 2 3
M  V30 3 1 2 4
M  V30 4 1 4 5
M  V30 5 1 5 6
M  V30 6 2 6 7
M  V30 7 1 6 8
M  V30 8 1 8 9
M  V30 9 2 8 10
M  V30 10 1 9 11
M  V30 11 2 9 12
M  V30 12 1 10 13
M  V30 13 1 11 14
M  V30 14 2 11 15
M  V30 15 1 12 16
M  V30 16 1 15 17
M  V30 17 2 13 14
M  V30 18 2 16 17
M  V30 19 1 4 18
M  V30 20 1 4 19
M  V30 21 1 5 20
M  V30 22 1 5 21
M  V30 23 1 10 22
M  V30 24 1 12 23
M  V30 25 1 13 24
M  V30 26 1 14 25
M  V30 27 1 15 26
M  V30 28 1 16 27
M  V30 29 1 17 28
M  V30 END BOND
M  V30 END CTAB
M  END
>  <Structure No>
4561

>  <LogS>
-3.4833

>  <MMFF94 Energy>
49.431

$$$$
Compound 4562
Actelion Java MolfileCreator 2.0

  0  0  0  0  0  0              0 V3000
M  V30 BEGIN CTAB
M  V30 COUNTS 27 28 0 0 0
M  V30 BEGIN ATOM
M  V30 1 O -0.3203 0.7209 -2.1639 0
M  V30 2 C -0.1514 0.4275 -0.9895 0
M  V30 3 C -1.2422 0.1893 0.018 0 CFG=2
M  V30 4 C 1.1764 0.1549 -0.344 0
M  V30 5 C -0.5454 0.6515 1.2817 0
M  V30 6 C -1.3354 -1.3307 0.2539 0
M  V30 7 C -2.5699 0.8905 -0.2752 0
M  V30 8 C 0.6699 -0.2533 1.0861 0 CFG=1
M  V30 9 C 1.9481 -0.9582 -1.0859 0
M  V30 10 C 2.047 1.4284 -0.2968 0
M  V30 11 C -0.0469 -1.6274 1.054 0
M  V30 12 H -1.1207 0.4182 2.2091 0
M  V30 13 H -0.3099 1.738 1.2815 0
M  V30 14 H -1.3606 -1.8953 -0.7044 0
M  V30 15 H -2.233 -1.5891 0.8584 0
M  V30 16 H -2.4077 1.9819 -0.4046 0
M  V30 17 H -3.2804 0.7329 0.5637 0
M  V30 18 H -3.0178 0.4803 -1.2049 0
M  V30 19 H 1.4345 -0.1709 1.8883 0
M  V30 20 H 2.4092 -0.5612 -2.0156 0
M  V30 21 H 2.7556 -1.3602 -0.4376 0
M  V30 22 H 1.2805 -1.7886 -1.3973 0
M  V30 23 H 2.3334 1.7405 -1.3242 0
M  V30 24 H 1.5215 2.2841 0.172 0
M  V30 25 H 2.9747 1.2321 0.2817 0
M  V30 26 H 0.5588 -2.4407 0.6076 0
M  V30 27 H -0.3066 -1.9377 2.0909 0
M  V30 END ATOM
M  V30 BEGIN BOND
M  V30 1 2 1 2
M  V30 2 1 2 3
M  V30 3 1 2 4
M  V30 4 1 3 5
M  V30 5 1 3 6
M  V30 6 1 3 7
M  V30 7 1 4 8
M  V30 8 1 4 9
M  V30 9 1 4 10
M  V30 10 1 6 11
M  V30 11 1 5 8
M  V30 12 1 8 11
M  V30 13 1 5 12
M  V30 14 1 5 13
M  V30 15 1 6 14
M  V30 16 1 6 15
M  V30 17 1 7 16
M  V30 18 1 7 17
M  V30 19 1 7 18
M  V30 20 1 8 19
M  V30 21 1 9 20
M  V30 22 1 9 21
M  V30 23 1 9 22
M  V30 24 1 10 23
M  V30 25 1 10 24
M  V30 26 1 10 25
M  V30 27 1 11 26
M  V30 28 1 11 27
M  V30 END BOND
M  V30 BEGIN COLLECTION
M  V30 MDLV30/STEABS ATOMS=(2 3 8)
M  V30 END COLLECTION
M  V30 END CTAB
M  END
>  <Structure No>
4562

>  <LogS>
-1.8507

>  <MMFF94 Energy>
40.822

$$$$
Compound 4563
Actelion Java MolfileCreator 2.0

  0  0  0  0  0  0              0 V3000
M  V30 BEGIN CTAB
M  V30 COUNTS 26 26 0 0 0
M  V30 BEGIN ATOM
M  V30 1 N 0.1543 0.4632 0.1543 0
M  V30 2 C 1.5714 0.339 -0.0706 0
M  V30 3 C -0.6351 -0.5417 0.8722 0
M  V30 4 C 2.242 1.3379 -0.7968 0
M  V30 5 C 2.3083 -0.7581 0.4198 0
M  V30 6 C -2.1232 -0.1684 0.9172 0
M  V30 7 C 3.6173 1.2437 -1.0304 0
M  V30 8 C 3.6838 -0.8471 0.1831 0
M  V30 9 C -2.7924 -0.3024 -0.4595 0
M  V30 10 C 4.3375 0.152 -0.541 0
M  V30 11 N -4.2117 0.0426 -0.3852 0 CHG=1
M  V30 12 H -0.3243 1.3209 -0.2046 0
M  V30 13 H -0.5166 -1.5332 0.3833 0
M  V30 14 H -0.2592 -0.617 1.9154 0
M  V30 15 H 1.698 2.1905 -1.1832 0
M  V30 16 H 1.8312 -1.5459 0.9861 0
M  V30 17 H -2.236 0.8706 1.2969 0
M  V30 18 H -2.6344 -0.8491 1.6325 0
M  V30 19 H 4.1245 2.0181 -1.5914 0
M  V30 20 H 4.2437 -1.692 0.5628 0
M  V30 21 H -2.2925 0.3677 -1.1925 0
M  V30 22 H -2.6887 -1.3491 -0.8225 0
M  V30 23 H 5.4021 0.0807 -0.7226 0
M  V30 24 H -4.7037 -0.5999 0.2774 0
M  V30 25 H -4.6386 -0.0586 -1.3341 0
M  V30 26 H -4.3241 1.0328 -0.0673 0
M  V30 END ATOM
M  V30 BEGIN BOND
M  V30 1 1 1 2
M  V30 2 1 1 3
M  V30 3 2 2 4
M  V30 4 1 2 5
M  V30 5 1 3 6
M  V30 6 1 4 7
M  V30 7 2 5 8
M  V30 8 1 6 9
M  V30 9 2 7 10
M  V30 10 1 9 11
M  V30 11 1 8 10
M  V30 12 1 1 12
M  V30 13 1 3 13
M  V30 14 1 3 14
M  V30 15 1 4 15
M  V30 16 1 5 16
M  V30 17 1 6 17
M  V30 18 1 6 18
M  V30 19 1 7 19
M  V30 20 1 8 20
M  V30 21 1 9 21
M  V30 22 1 9 22
M  V30 23 1 10 23
M  V30 24 1 11 24
M  V30 25 1 11 25
M  V30 26 1 11 26
M  V30 END BOND
M  V30 END CTAB
M  END
>  <Structure No>
4563

>  <LogS>
-1.6543

>  <MMFF94 Energy>
9.3696

$$$$
Compound 4564
Actelion Java MolfileCreator 2.0

  0  0  0  0  0  0              0 V3000
M  V30 BEGIN CTAB
M  V30 COUNTS 42 42 0 0 0
M  V30 BEGIN ATOM
M  V30 1 S 4.5625 1.1391 -0.9763 0
M  V30 2 O 4.878 1.0164 -2.4408 0
M  V30 3 O 4.8636 2.5441 -0.535 0
M  V30 4 C 2.8614 0.7767 -0.6986 0
M  V30 5 C 5.5662 -0.002 -0.0537 0
M  V30 6 C 2.1802 1.3801 0.3582 0
M  V30 7 C 2.1982 -0.1386 -1.5153 0
M  V30 8 C 0.8334 1.0815 0.6142 0
M  V30 9 C 0.8424 -0.4404 -1.3109 0
M  V30 10 N 0.1913 1.7209 1.733 0 CHG=1
M  V30 11 C 0.1456 0.1712 -0.2342 0
M  V30 12 N 0.203 -1.3768 -2.198 0 CHG=1
M  V30 13 O -0.6381 1.1076 2.4341 0
M  V30 14 O 0.6064 2.9673 2.1426 0 CHG=-1
M  V30 15 N -1.2445 -0.1315 -0.0019 0
M  V30 16 O 0.8634 -2.3064 -2.7065 0
M  V30 17 O -1.0894 -1.1808 -2.6223 0 CHG=-1
M  V30 18 C -1.6148 -1.2161 0.9199 0
M  V30 19 C -2.2884 0.6553 -0.676 0
M  V30 20 C -1.8248 -2.5352 0.1714 0
M  V30 21 C -2.7559 1.825 0.1951 0
M  V30 22 C -2.3144 -3.6309 1.1138 0
M  V30 23 C -3.9164 2.5692 -0.4589 0
M  V30 24 H 5.3378 0.0941 1.0279 0
M  V30 25 H 6.639 0.2226 -0.2257 0
M  V30 26 H 5.3485 -1.0384 -0.3847 0
M  V30 27 H 2.7099 2.0691 1.0038 0
M  V30 28 H 2.7365 -0.6081 -2.3291 0
M  V30 29 H -0.8177 -1.3569 1.6827 0
M  V30 30 H -2.5483 -0.9428 1.4589 0
M  V30 31 H -1.9013 1.056 -1.6385 0
M  V30 32 H -3.1543 -0.0015 -0.911 0
M  V30 33 H -2.5746 -2.397 -0.6366 0
M  V30 34 H -0.8659 -2.863 -0.2809 0
M  V30 35 H -1.918 2.5387 0.3402 0
M  V30 36 H -3.0852 1.4509 1.1879 0
M  V30 37 H -1.5738 -3.8026 1.9238 0
M  V30 38 H -3.2902 -3.347 1.5624 0
M  V30 39 H -2.4467 -4.5766 0.547 0
M  V30 40 H -4.785 1.8896 -0.5918 0
M  V30 41 H -3.6091 2.9704 -1.4482 0
M  V30 42 H -4.2256 3.4173 0.1877 0
M  V30 END ATOM
M  V30 BEGIN BOND
M  V30 1 2 1 2
M  V30 2 2 1 3
M  V30 3 1 1 4
M  V30 4 1 1 5
M  V30 5 2 4 6
M  V30 6 1 4 7
M  V30 7 1 6 8
M  V30 8 2 7 9
M  V30 9 1 8 10
M  V30 10 2 8 11
M  V30 11 1 9 12
M  V30 12 2 10 13
M  V30 13 1 10 14
M  V30 14 1 11 15
M  V30 15 2 12 16
M  V30 16 1 12 17
M  V30 17 1 15 18
M  V30 18 1 15 19
M  V30 19 1 18 20
M  V30 20 1 19 21
M  V30 21 1 20 22
M  V30 22 1 21 23
M  V30 23 1 9 11
M  V30 24 1 5 24
M  V30 25 1 5 25
M  V30 26 1 5 26
M  V30 27 1 6 27
M  V30 28 1 7 28
M  V30 29 1 18 29
M  V30 30 1 18 30
M  V30 31 1 19 31
M  V30 32 1 19 32
M  V30 33 1 20 33
M  V30 34 1 20 34
M  V30 35 1 21 35
M  V30 36 1 21 36
M  V30 37 1 22 37
M  V30 38 1 22 38
M  V30 39 1 22 39
M  V30 40 1 23 40
M  V30 41 1 23 41
M  V30 42 1 23 42
M  V30 END BOND
M  V30 END CTAB
M  END
>  <Structure No>
4564

>  <LogS>
-5.7601

>  <MMFF94 Energy>
126.63

$$$$
Compound 4565
Actelion Java MolfileCreator 2.0

  0  0  0  0  0  0              0 V3000
M  V30 BEGIN CTAB
M  V30 COUNTS 28 29 0 0 0
M  V30 BEGIN ATOM
M  V30 1 O 0.8053 -2.4174 -0.5636 0
M  V30 2 C 1.7884 -2.1822 0.1873 0
M  V30 3 O 2.2708 -3.2014 1.0004 0 CHG=-1
M  V30 4 C 2.459 -0.8583 0.1749 0
M  V30 5 C 1.806 0.334 -0.2428 0
M  V30 6 C 3.8177 -0.7975 0.5378 0
M  V30 7 C 0.3591 0.3923 -0.5359 0
M  V30 8 C 2.5432 1.5262 -0.3424 0
M  V30 9 C 4.5268 0.4017 0.454 0
M  V30 10 O -0.024 0.878 -1.6343 0
M  V30 11 N -0.5965 -0.0846 0.4273 0
M  V30 12 C 3.8939 1.5587 0.0047 0
M  V30 13 C -2.0211 -0.0187 0.2497 0
M  V30 14 C -2.8211 -1.0715 0.7206 0
M  V30 15 C -2.6388 1.1056 -0.3289 0
M  V30 16 C -4.2113 -1.0214 0.5802 0
M  V30 17 C -4.0298 1.1524 -0.4663 0
M  V30 18 C -4.8151 0.088 -0.0167 0
M  V30 19 H 4.3434 -1.6875 0.8612 0
M  V30 20 H 2.0628 2.4425 -0.6647 0
M  V30 21 H 5.5739 0.4306 0.7266 0
M  V30 22 H -0.2373 -0.582 1.2733 0
M  V30 23 H 4.4482 2.4857 -0.065 0
M  V30 24 H -2.3642 -1.9357 1.1864 0
M  V30 25 H -2.0538 1.9574 -0.6481 0
M  V30 26 H -4.8208 -1.8418 0.9365 0
M  V30 27 H -4.4998 2.0192 -0.9129 0
M  V30 28 H -5.8916 0.127 -0.1225 0
M  V30 END ATOM
M  V30 BEGIN BOND
M  V30 1 2 1 2
M  V30 2 1 2 3
M  V30 3 1 2 4
M  V30 4 2 4 5
M  V30 5 1 4 6
M  V30 6 1 5 7
M  V30 7 1 5 8
M  V30 8 2 6 9
M  V30 9 2 7 10
M  V30 10 1 7 11
M  V30 11 2 8 12
M  V30 12 1 11 13
M  V30 13 2 13 14
M  V30 14 1 13 15
M  V30 15 1 14 16
M  V30 16 2 15 17
M  V30 17 2 16 18
M  V30 18 1 9 12
M  V30 19 1 17 18
M  V30 20 1 6 19
M  V30 21 1 8 20
M  V30 22 1 9 21
M  V30 23 1 11 22
M  V30 24 1 12 23
M  V30 25 1 14 24
M  V30 26 1 15 25
M  V30 27 1 16 26
M  V30 28 1 17 27
M  V30 29 1 18 28
M  V30 END BOND
M  V30 END CTAB
M  END
>  <Structure No>
4565

>  <LogS>
-4.0814

>  <MMFF94 Energy>
23.502

$$$$
Compound 4566
Actelion Java MolfileCreator 2.0

  0  0  0  0  0  0              0 V3000
M  V30 BEGIN CTAB
M  V30 COUNTS 16 16 0 0 0
M  V30 BEGIN ATOM
M  V30 1 Cl 1.183 -2.8749 0.9294 0
M  V30 2 C 0.2519 -1.528 0.2838 0
M  V30 3 C 0.7533 -0.2082 0.3032 0
M  V30 4 C -1.0296 -1.7861 -0.2093 0
M  V30 5 N 2.0409 0.0536 0.8787 0 CHG=1
M  V30 6 C -0.0505 0.8517 -0.1948 0
M  V30 7 C -1.825 -0.7438 -0.6789 0
M  V30 8 O 3.053 -0.5455 0.4613 0
M  V30 9 O 2.1563 0.9131 1.9469 0 CHG=-1
M  V30 10 C 0.4375 2.2507 -0.2759 0
M  V30 11 C -1.3427 0.5646 -0.6704 0
M  V30 12 O 1.6701 2.5072 -0.299 0
M  V30 13 O -0.4676 3.3019 -0.3713 0 CHG=-1
M  V30 14 H -1.4167 -2.7972 -0.2165 0
M  V30 15 H -2.8186 -0.9506 -1.0554 0
M  V30 16 H -1.9767 1.352 -1.0591 0
M  V30 END ATOM
M  V30 BEGIN BOND
M  V30 1 1 1 2
M  V30 2 2 2 3
M  V30 3 1 2 4
M  V30 4 1 3 5
M  V30 5 1 3 6
M  V30 6 2 4 7
M  V30 7 2 5 8
M  V30 8 1 5 9
M  V30 9 1 6 10
M  V30 10 2 6 11
M  V30 11 2 10 12
M  V30 12 1 10 13
M  V30 13 1 7 11
M  V30 14 1 4 14
M  V30 15 1 7 15
M  V30 16 1 11 16
M  V30 END BOND
M  V30 END CTAB
M  END
>  <Structure No>
4566

>  <LogS>
-2.6323

>  <MMFF94 Energy>
20.762

$$$$
Compound 4567
Actelion Java MolfileCreator 2.0

  0  0  0  0  0  0              0 V3000
M  V30 BEGIN CTAB
M  V30 COUNTS 20 19 0 0 0
M  V30 BEGIN ATOM
M  V30 1 O -2.404 0.6199 2.0935 0
M  V30 2 C -2.0858 0.9368 0.917 0
M  V30 3 O -2.2284 2.2553 0.5005 0 CHG=-1
M  V30 4 C -1.5432 -0.1042 -0.0263 0 CFG=1
M  V30 5 N -2.3707 -0.1738 -1.2362 0 CHG=1
M  V30 6 C -0.0809 0.2026 -0.3852 0
M  V30 7 O 0.708 0.1858 0.7881 0
M  V30 8 C 2.0783 0.3389 0.4691 0
M  V30 9 C 2.7636 -1.0218 0.4196 0
M  V30 10 H -1.5727 -1.0973 0.4784 0
M  V30 11 H -2.0277 -0.9433 -1.8562 0
M  V30 12 H -3.3626 -0.3817 -0.9758 0
M  V30 13 H -2.3354 0.7303 -1.762 0
M  V30 14 H -0.0257 1.2028 -0.8737 0
M  V30 15 H 0.2723 -0.5701 -1.1057 0
M  V30 16 H 2.5531 0.9359 1.2763 0
M  V30 17 H 2.2616 0.8925 -0.4825 0
M  V30 18 H 2.6182 -1.5557 1.3827 0
M  V30 19 H 2.3436 -1.6361 -0.4038 0
M  V30 20 H 3.8517 -0.8865 0.2444 0
M  V30 END ATOM
M  V30 BEGIN BOND
M  V30 1 2 1 2
M  V30 2 1 2 3
M  V30 3 1 2 4
M  V30 4 1 4 5
M  V30 5 1 4 6
M  V30 6 1 6 7
M  V30 7 1 7 8
M  V30 8 1 8 9
M  V30 9 1 4 10
M  V30 10 1 5 11
M  V30 11 1 5 12
M  V30 12 1 5 13
M  V30 13 1 6 14
M  V30 14 1 6 15
M  V30 15 1 8 16
M  V30 16 1 8 17
M  V30 17 1 9 18
M  V30 18 1 9 19
M  V30 19 1 9 20
M  V30 END BOND
M  V30 BEGIN COLLECTION
M  V30 MDLV30/STEABS ATOMS=(1 4)
M  V30 END COLLECTION
M  V30 END CTAB
M  END
>  <Structure No>
4567

>  <LogS>
0.524

>  <MMFF94 Energy>
-2.6565

$$$$
Compound 4568
Actelion Java MolfileCreator 2.0

  0  0  0  0  0  0              0 V3000
M  V30 BEGIN CTAB
M  V30 COUNTS 20 19 0 0 0
M  V30 BEGIN ATOM
M  V30 1 S 0.685 0.0856 2.3992 0
M  V30 2 S -0.7435 -1.0429 1.2813 0
M  V30 3 C 2.1089 -0.3824 1.3549 0
M  V30 4 C -1.5492 0.4437 0.5908 0
M  V30 5 C 2.1289 0.4088 0.0469 0
M  V30 6 C -2.6297 0.0603 -0.421 0
M  V30 7 C 3.3959 0.1465 -0.7035 0
M  V30 8 C -3.787 -0.6216 0.2417 0
M  V30 9 O 3.4707 -0.8256 -1.5002 0
M  V30 10 O 4.5109 0.9461 -0.4865 0 CHG=-1
M  V30 11 O -4.6616 0.0561 0.8431 0
M  V30 12 O -3.8811 -2.0074 0.2262 0 CHG=-1
M  V30 13 H 3.032 -0.1621 1.9331 0
M  V30 14 H 2.0854 -1.4741 1.1473 0
M  V30 15 H -1.9942 1.0419 1.4153 0
M  V30 16 H -0.7921 1.073 0.0793 0
M  V30 17 H 1.2672 0.1146 -0.588 0
M  V30 18 H 2.052 1.4961 0.2635 0
M  V30 19 H -2.1968 -0.6037 -1.2 0
M  V30 20 H -2.9951 0.9799 -0.9271 0
M  V30 END ATOM
M  V30 BEGIN BOND
M  V30 1 1 1 2
M  V30 2 1 1 3
M  V30 3 1 2 4
M  V30 4 1 3 5
M  V30 5 1 4 6
M  V30 6 1 5 7
M  V30 7 1 6 8
M  V30 8 2 7 9
M  V30 9 1 7 10
M  V30 10 2 8 11
M  V30 11 1 8 12
M  V30 12 1 3 13
M  V30 13 1 3 14
M  V30 14 1 4 15
M  V30 15 1 4 16
M  V30 16 1 5 17
M  V30 17 1 5 18
M  V30 18 1 6 19
M  V30 19 1 6 20
M  V30 END BOND
M  V30 END CTAB
M  END
>  <Structure No>
4568

>  <LogS>
-0.9301

>  <MMFF94 Energy>
16.495

$$$$
Compound 4569
Actelion Java MolfileCreator 2.0

  0  0  0  0  0  0              0 V3000
M  V30 BEGIN CTAB
M  V30 COUNTS 10 9 0 0 0
M  V30 BEGIN ATOM
M  V30 1 N 3.3414 0.6827 0.4551 0
M  V30 2 C 2.2259 0.4841 0.6904 0
M  V30 3 C 0.8398 0.2371 0.9834 0
M  V30 4 C -0.0107 -0.0967 0.0136 0
M  V30 5 C -1.4525 -0.3546 0.3111 0
M  V30 6 H 0.4985 0.3276 2.0073 0
M  V30 7 H 0.3355 -0.1859 -1.01 0
M  V30 8 H -1.9184 0.5539 0.748 0
M  V30 9 H -1.9876 -0.6166 -0.6253 0
M  V30 10 H -1.5473 -1.199 1.0264 0
M  V30 END ATOM
M  V30 BEGIN BOND
M  V30 1 3 1 2
M  V30 2 1 2 3
M  V30 3 2 3 4
M  V30 4 1 4 5
M  V30 5 1 3 6
M  V30 6 1 4 7
M  V30 7 1 5 8
M  V30 8 1 5 9
M  V30 9 1 5 10
M  V30 END BOND
M  V30 END CTAB
M  END
>  <Structure No>
4569

>  <LogS>
-0.4287

>  <MMFF94 Energy>
MMFF94 error code 2

$$$$
Compound 4570
Actelion Java MolfileCreator 2.0

  0  0  0  0  0  0              0 V3000
M  V30 BEGIN CTAB
M  V30 COUNTS 19 18 0 0 0
M  V30 BEGIN ATOM
M  V30 1 O 1.2994 1.2994 -1.6818 0
M  V30 2 C 0.8778 0.2616 -0.8324 0 CFG=1
M  V30 3 C 1.7272 0.2373 0.4188 0
M  V30 4 C -0.6227 0.4158 -0.5114 0
M  V30 5 C 3.034 -0.0322 0.361 0
M  V30 6 C -1.2061 -0.841 0.1517 0
M  V30 7 C -2.6965 -0.6731 0.4332 0
M  V30 8 H 1.1713 2.1557 -1.1943 0
M  V30 9 H 1.0218 -0.6984 -1.3753 0
M  V30 10 H 1.2778 0.4377 1.3876 0
M  V30 11 H -1.1696 0.6026 -1.462 0
M  V30 12 H -0.7782 1.2982 0.1485 0
M  V30 13 H 3.5195 -0.2396 -0.5877 0
M  V30 14 H 3.6267 -0.0464 1.27 0
M  V30 15 H -1.0645 -1.7177 -0.517 0
M  V30 16 H -0.6842 -1.0447 1.1112 0
M  V30 17 H -2.865 0.1833 1.1205 0
M  V30 18 H -3.2511 -0.4989 -0.5133 0
M  V30 19 H -3.0909 -1.5945 0.9111 0
M  V30 END ATOM
M  V30 BEGIN BOND
M  V30 1 1 1 2
M  V30 2 1 2 3
M  V30 3 1 2 4
M  V30 4 2 3 5
M  V30 5 1 4 6
M  V30 6 1 6 7
M  V30 7 1 1 8
M  V30 8 1 2 9
M  V30 9 1 3 10
M  V30 10 1 4 11
M  V30 11 1 4 12
M  V30 12 1 5 13
M  V30 13 1 5 14
M  V30 14 1 6 15
M  V30 15 1 6 16
M  V30 16 1 7 17
M  V30 17 1 7 18
M  V30 18 1 7 19
M  V30 END BOND
M  V30 BEGIN COLLECTION
M  V30 MDLV30/STEABS ATOMS=(1 2)
M  V30 END COLLECTION
M  V30 END CTAB
M  END
>  <Structure No>
4570

>  <LogS>
-0.5993

>  <MMFF94 Energy>
0.7675

$$$$
Compound 4571
Actelion Java MolfileCreator 2.0

  0  0  0  0  0  0              0 V3000
M  V30 BEGIN CTAB
M  V30 COUNTS 19 18 0 0 0
M  V30 BEGIN ATOM
M  V30 1 O 0.8413 -1.9129 -0.2293 0
M  V30 2 C 0.5726 -0.536 -0.2925 0 CFG=2
M  V30 3 C 1.6071 0.1915 0.5348 0
M  V30 4 C -0.8535 -0.2601 0.2437 0
M  V30 5 C 2.4101 1.1206 0.0081 0
M  V30 6 C -1.2115 1.2328 0.1527 0
M  V30 7 C -1.8975 -1.0844 -0.5254 0
M  V30 8 H 1.6209 -2.0812 -0.8211 0
M  V30 9 H 0.6162 -0.2013 -1.357 0
M  V30 10 H 1.698 -0.047 1.5908 0
M  V30 11 H -0.9017 -0.5639 1.3136 0
M  V30 12 H 3.14 1.6234 0.634 0
M  V30 13 H 2.3473 1.3889 -1.0417 0
M  V30 14 H -2.2459 1.4037 0.5204 0
M  V30 15 H -1.1418 1.5889 -0.8974 0
M  V30 16 H -0.5286 1.839 0.784 0
M  V30 17 H -2.9165 -0.8762 -0.1347 0
M  V30 18 H -1.7059 -2.171 -0.4008 0
M  V30 19 H -1.872 -0.8362 -1.6084 0
M  V30 END ATOM
M  V30 BEGIN BOND
M  V30 1 1 1 2
M  V30 2 1 2 3
M  V30 3 1 2 4
M  V30 4 2 3 5
M  V30 5 1 4 6
M  V30 6 1 4 7
M  V30 7 1 1 8
M  V30 8 1 2 9
M  V30 9 1 3 10
M  V30 10 1 4 11
M  V30 11 1 5 12
M  V30 12 1 5 13
M  V30 13 1 6 14
M  V30 14 1 6 15
M  V30 15 1 6 16
M  V30 16 1 7 17
M  V30 17 1 7 18
M  V30 18 1 7 19
M  V30 END BOND
M  V30 BEGIN COLLECTION
M  V30 MDLV30/STEABS ATOMS=(1 2)
M  V30 END COLLECTION
M  V30 END CTAB
M  END
>  <Structure No>
4571

>  <LogS>
-0.515

>  <MMFF94 Energy>
5.3216

$$$$
Compound 4572
Actelion Java MolfileCreator 2.0

  0  0  0  0  0  0              0 V3000
M  V30 BEGIN CTAB
M  V30 COUNTS 19 18 0 0 0
M  V30 BEGIN ATOM
M  V30 1 O -0.8401 1.2222 -0.9929 0
M  V30 2 C -0.4812 -0.0068 -0.4113 0 CFG=1
M  V30 3 C 0.9042 0.0797 0.1852 0
M  V30 4 C -1.5139 -0.4365 0.6481 0
M  V30 5 C 1.9729 0.3257 -0.5846 0
M  V30 6 C -2.9034 -0.6247 0.0424 0
M  V30 7 C 3.3463 0.4071 0.0057 0
M  V30 8 H -0.841 1.9056 -0.2718 0
M  V30 9 H -0.4615 -0.7795 -1.2111 0
M  V30 10 H 1.0393 -0.0679 1.2543 0
M  V30 11 H -1.5699 0.3248 1.4569 0
M  V30 12 H -1.1959 -1.4 1.1036 0
M  V30 13 H 1.8516 0.47 -1.6549 0
M  V30 14 H -3.6086 -0.9636 0.8303 0
M  V30 15 H -3.2778 0.3329 -0.377 0
M  V30 16 H -2.874 -1.3913 -0.7607 0
M  V30 17 H 4.0862 0.6174 -0.7944 0
M  V30 18 H 3.3879 1.224 0.7569 0
M  V30 19 H 3.6073 -0.5563 0.4921 0
M  V30 END ATOM
M  V30 BEGIN BOND
M  V30 1 1 1 2
M  V30 2 1 2 3
M  V30 3 1 2 4
M  V30 4 2 3 5
M  V30 5 1 4 6
M  V30 6 1 5 7
M  V30 7 1 1 8
M  V30 8 1 2 9
M  V30 9 1 3 10
M  V30 10 1 4 11
M  V30 11 1 4 12
M  V30 12 1 5 13
M  V30 13 1 6 14
M  V30 14 1 6 15
M  V30 15 1 6 16
M  V30 16 1 7 17
M  V30 17 1 7 18
M  V30 18 1 7 19
M  V30 END BOND
M  V30 BEGIN COLLECTION
M  V30 MDLV30/STEABS ATOMS=(1 2)
M  V30 END COLLECTION
M  V30 END CTAB
M  END
>  <Structure No>
4572

>  <LogS>
-0.4198

>  <MMFF94 Energy>
-0.40114

$$$$
Compound 4573
Actelion Java MolfileCreator 2.0

  0  0  0  0  0  0              0 V3000
M  V30 BEGIN CTAB
M  V30 COUNTS 29 30 0 0 0
M  V30 BEGIN ATOM
M  V30 1 O 2.0067 -2.4888 -1.2839 0
M  V30 2 C 1.0319 -2.9873 -0.661 0
M  V30 3 O 1.0141 -4.355 -0.4201 0 CHG=-1
M  V30 4 C -0.125 -2.1626 -0.2448 0
M  V30 5 O -1.3128 -2.8595 0.0021 0
M  V30 6 C -0.0648 -0.8107 -0.101 0
M  V30 7 C 1.2228 -0.0718 -0.0883 0
M  V30 8 C -1.2969 -0.0045 0.0826 0
M  V30 9 C 2.2269 -0.4003 0.8396 0
M  V30 10 C 1.4225 1.0096 -0.9627 0
M  V30 11 C -1.4059 0.8816 1.168 0
M  V30 12 C -2.3409 -0.0705 -0.8573 0
M  V30 13 C 3.4224 0.3238 0.8695 0
M  V30 14 C 2.6196 1.7311 -0.929 0
M  V30 15 C -2.5514 1.6681 1.3238 0
M  V30 16 C -3.4845 0.7177 -0.6972 0
M  V30 17 C 3.6197 1.387 -0.0155 0
M  V30 18 C -3.5907 1.5846 0.3934 0
M  V30 19 H -2.139 -2.4349 0.4047 0
M  V30 20 H 2.0805 -1.2125 1.5409 0
M  V30 21 H 0.6542 1.2888 -1.6733 0
M  V30 22 H -0.6075 0.9582 1.8958 0
M  V30 23 H -2.2651 -0.7272 -1.715 0
M  V30 24 H 4.1941 0.0638 1.5823 0
M  V30 25 H 2.7711 2.5588 -1.6096 0
M  V30 26 H -2.6325 2.3441 2.1652 0
M  V30 27 H -4.2866 0.6598 -1.4215 0
M  V30 28 H 4.5451 1.9475 0.0098 0
M  V30 29 H -4.4761 2.1952 0.5151 0
M  V30 END ATOM
M  V30 BEGIN BOND
M  V30 1 2 1 2
M  V30 2 1 2 3
M  V30 3 1 2 4
M  V30 4 1 4 5
M  V30 5 2 4 6
M  V30 6 1 6 7
M  V30 7 1 6 8
M  V30 8 2 7 9
M  V30 9 1 7 10
M  V30 10 2 8 11
M  V30 11 1 8 12
M  V30 12 1 9 13
M  V30 13 2 10 14
M  V30 14 1 11 15
M  V30 15 2 12 16
M  V30 16 2 13 17
M  V30 17 2 15 18
M  V30 18 1 14 17
M  V30 19 1 16 18
M  V30 20 1 5 19
M  V30 21 1 9 20
M  V30 22 1 10 21
M  V30 23 1 11 22
M  V30 24 1 12 23
M  V30 25 1 13 24
M  V30 26 1 14 25
M  V30 27 1 15 26
M  V30 28 1 16 27
M  V30 29 1 17 28
M  V30 30 1 18 29
M  V30 END BOND
M  V30 END CTAB
M  END
>  <Structure No>
4573

>  <LogS>
-2.3354

>  <MMFF94 Energy>
104.19

$$$$
Compound 4574
Actelion Java MolfileCreator 2.0

  0  0  0  0  0  0              0 V3000
M  V30 BEGIN CTAB
M  V30 COUNTS 41 41 0 0 0
M  V30 BEGIN ATOM
M  V30 1 O 2.5199 -0.6295 1.1806 0
M  V30 2 C 2.2794 -0.1992 0.0203 0
M  V30 3 O 0.969 -0.1876 -0.4754 0
M  V30 4 N 3.3318 0.3401 -0.7947 0
M  V30 5 C -0.1053 -0.9189 0.0533 0
M  V30 6 C 4.7584 0.3955 -0.4187 0
M  V30 7 C -1.4007 -0.4104 -0.1067 0
M  V30 8 C 0.0731 -2.1593 0.6924 0
M  V30 9 C 5.5584 1.0218 -1.5794 0
M  V30 10 C 4.9464 1.2732 0.834 0
M  V30 11 C 5.2985 -1.0253 -0.1636 0
M  V30 12 C -2.514 -1.1049 0.4015 0
M  V30 13 C -1.0304 -2.8642 1.1784 0
M  V30 14 N -3.8514 -0.6023 0.2342 0
M  V30 15 C -2.3175 -2.3422 1.0318 0
M  V30 16 C -4.182 0.7984 0.2242 0
M  V30 17 O -3.3729 1.6326 0.7166 0
M  V30 18 N -5.4406 1.2599 -0.3109 0
M  V30 19 C -5.7779 2.6843 -0.2206 0
M  V30 20 C -6.3564 0.3274 -0.9754 0
M  V30 21 H 3.0422 0.7067 -1.7304 0
M  V30 22 H -1.5331 0.5202 -0.6427 0
M  V30 23 H 1.0551 -2.6027 0.7838 0
M  V30 24 H 6.6407 1.0794 -1.332 0
M  V30 25 H 5.1932 2.05 -1.7921 0
M  V30 26 H 5.4428 0.414 -2.5029 0
M  V30 27 H 6.0267 1.4072 1.0591 0
M  V30 28 H 4.4741 0.8161 1.7271 0
M  V30 29 H 4.4932 2.2751 0.6731 0
M  V30 30 H 4.823 -1.4882 0.725 0
M  V30 31 H 5.1016 -1.675 -1.0433 0
M  V30 32 H 6.3947 -1.0002 0.0182 0
M  V30 33 H -0.8889 -3.8226 1.6609 0
M  V30 34 H -4.6294 -1.2985 0.2205 0
M  V30 35 H -3.1636 -2.9013 1.4114 0
M  V30 36 H -5.0217 3.284 -0.77 0
M  V30 37 H -6.7768 2.9006 -0.6544 0
M  V30 38 H -5.7903 2.9987 0.8445 0
M  V30 39 H -7.213 0.8563 -1.4436 0
M  V30 40 H -5.8183 -0.2229 -1.776 0
M  V30 41 H -6.7616 -0.3932 -0.2346 0
M  V30 END ATOM
M  V30 BEGIN BOND
M  V30 1 2 1 2
M  V30 2 1 2 3
M  V30 3 1 2 4
M  V30 4 1 3 5
M  V30 5 1 4 6
M  V30 6 2 5 7
M  V30 7 1 5 8
M  V30 8 1 6 9
M  V30 9 1 6 10
M  V30 10 1 6 11
M  V30 11 1 7 12
M  V30 12 2 8 13
M  V30 13 1 12 14
M  V30 14 2 12 15
M  V30 15 1 14 16
M  V30 16 2 16 17
M  V30 17 1 16 18
M  V30 18 1 18 19
M  V30 19 1 18 20
M  V30 20 1 13 15
M  V30 21 1 4 21
M  V30 22 1 7 22
M  V30 23 1 8 23
M  V30 24 1 9 24
M  V30 25 1 9 25
M  V30 26 1 9 26
M  V30 27 1 10 27
M  V30 28 1 10 28
M  V30 29 1 10 29
M  V30 30 1 11 30
M  V30 31 1 11 31
M  V30 32 1 11 32
M  V30 33 1 13 33
M  V30 34 1 14 34
M  V30 35 1 15 35
M  V30 36 1 19 36
M  V30 37 1 19 37
M  V30 38 1 19 38
M  V30 39 1 20 39
M  V30 40 1 20 40
M  V30 41 1 20 41
M  V30 END BOND
M  V30 END CTAB
M  END
>  <Structure No>
4574

>  <LogS>
-2.9342

>  <MMFF94 Energy>
-70.386

$$$$
Compound 4575
Actelion Java MolfileCreator 2.0

  0  0  0  0  0  0              0 V3000
M  V30 BEGIN CTAB
M  V30 COUNTS 24 23 0 0 0
M  V30 BEGIN ATOM
M  V30 1 O 0.9313 2.0188 -0.0775 0
M  V30 2 C 1.4514 0.971 0.3944 0
M  V30 3 O 0.6614 -0.0085 1.0067 0
M  V30 4 C 2.9241 0.7492 0.2629 0
M  V30 5 C -0.7598 0.0706 1.0921 0
M  V30 6 C 3.2326 -0.0513 -1.0024 0
M  V30 7 C -1.395 -0.2562 -0.2653 0
M  V30 8 O 4.6157 -0.2357 -1.1334 0
M  V30 9 C -2.9256 -0.3628 -0.1915 0
M  V30 10 C -3.6003 0.9901 0.0321 0
M  V30 11 H 3.4492 1.7285 0.2229 0
M  V30 12 H 3.2897 0.1955 1.1541 0
M  V30 13 H -1.0597 1.0822 1.4402 0
M  V30 14 H -1.1031 -0.6698 1.8454 0
M  V30 15 H 2.7125 -1.0367 -0.9741 0
M  V30 16 H 2.866 0.5051 -1.8916 0
M  V30 17 H -0.994 -1.2326 -0.6141 0
M  V30 18 H -1.1076 0.511 -1.0159 0
M  V30 19 H 4.8697 -0.9466 -0.4885 0
M  V30 20 H -3.2948 -0.7813 -1.1528 0
M  V30 21 H -3.2225 -1.0658 0.6167 0
M  V30 22 H -3.3575 1.3888 1.0389 0
M  V30 23 H -3.278 1.7182 -0.7422 0
M  V30 24 H -4.702 0.8683 -0.0345 0
M  V30 END ATOM
M  V30 BEGIN BOND
M  V30 1 2 1 2
M  V30 2 1 2 3
M  V30 3 1 2 4
M  V30 4 1 3 5
M  V30 5 1 4 6
M  V30 6 1 5 7
M  V30 7 1 6 8
M  V30 8 1 7 9
M  V30 9 1 9 10
M  V30 10 1 4 11
M  V30 11 1 4 12
M  V30 12 1 5 13
M  V30 13 1 5 14
M  V30 14 1 6 15
M  V30 15 1 6 16
M  V30 16 1 7 17
M  V30 17 1 7 18
M  V30 18 1 8 19
M  V30 19 1 9 20
M  V30 20 1 9 21
M  V30 21 1 10 22
M  V30 22 1 10 23
M  V30 23 1 10 24
M  V30 END BOND
M  V30 END CTAB
M  END
>  <Structure No>
4575

>  <LogS>
-1.2899

>  <MMFF94 Energy>
-13.761

$$$$
Compound 4576
Actelion Java MolfileCreator 2.0

  0  0  0  0  0  0              0 V3000
M  V30 BEGIN CTAB
M  V30 COUNTS 23 22 0 0 0
M  V30 BEGIN ATOM
M  V30 1 S 0.0 0.3414 1.9643 0
M  V30 2 C -1.4852 -0.3504 1.1041 0 CFG=2
M  V30 3 C 1.4253 -0.0235 0.8513 0 CFG=1
M  V30 4 C -1.2515 -1.7088 0.5047 0
M  V30 5 C -2.1248 0.6389 0.1095 0
M  V30 6 C 1.7782 -1.4879 0.8731 0
M  V30 7 C 1.2615 0.5739 -0.5592 0
M  V30 8 O -1.0877 -2.7033 1.2598 0
M  V30 9 O -1.2224 -1.8895 -0.8735 0 CHG=-1
M  V30 10 C -2.4984 1.929 0.7737 0
M  V30 11 O 1.7836 -2.1765 -0.1819 0
M  V30 12 O 2.1132 -2.0916 2.0786 0 CHG=-1
M  V30 13 C 2.5793 0.6882 -1.2651 0
M  V30 14 O -3.5478 2.0048 1.4655 0
M  V30 15 O -1.6691 3.0375 0.658 0 CHG=-1
M  V30 16 O 3.3705 1.6255 -0.9804 0
M  V30 17 O 2.9455 -0.2544 -2.2174 0 CHG=-1
M  V30 18 H -2.2373 -0.504 1.9092 0
M  V30 19 H 2.2807 0.5029 1.3281 0
M  V30 20 H -1.4528 0.8515 -0.7421 0
M  V30 21 H -3.0477 0.1852 -0.3137 0
M  V30 22 H 0.8227 1.5918 -0.48 0
M  V30 23 H 0.5831 -0.0505 -1.1734 0
M  V30 END ATOM
M  V30 BEGIN BOND
M  V30 1 1 1 2
M  V30 2 1 1 3
M  V30 3 1 2 4
M  V30 4 1 2 5
M  V30 5 1 3 6
M  V30 6 1 3 7
M  V30 7 2 4 8
M  V30 8 1 4 9
M  V30 9 1 5 10
M  V30 10 2 6 11
M  V30 11 1 6 12
M  V30 12 1 7 13
M  V30 13 2 10 14
M  V30 14 1 10 15
M  V30 15 2 13 16
M  V30 16 1 13 17
M  V30 17 1 2 18
M  V30 18 1 3 19
M  V30 19 1 5 20
M  V30 20 1 5 21
M  V30 21 1 7 22
M  V30 22 1 7 23
M  V30 END BOND
M  V30 BEGIN COLLECTION
M  V30 MDLV30/STEABS ATOMS=(2 2 3)
M  V30 END COLLECTION
M  V30 END CTAB
M  END
>  <Structure No>
4576

>  <LogS>
-0.4908

>  <MMFF94 Energy>
394.88

$$$$
Compound 4577
Actelion Java MolfileCreator 2.0

  0  0  0  0  0  0              0 V3000
M  V30 BEGIN CTAB
M  V30 COUNTS 18 18 0 0 0
M  V30 BEGIN ATOM
M  V30 1 O -0.2393 2.6349 -1.2768 0
M  V30 2 N -0.0482 2.0094 -0.2138 0 CHG=1
M  V30 3 O 0.441 2.6783 0.884 0 CHG=-1
M  V30 4 C -0.2628 0.5917 -0.1624 0
M  V30 5 C -1.5239 0.0496 -0.504 0
M  V30 6 C 0.7888 -0.2782 0.2156 0
M  V30 7 O -2.6065 0.8613 -0.8473 0
M  V30 8 C -1.7178 -1.3347 -0.4783 0
M  V30 9 C 0.5593 -1.6631 0.26 0
M  V30 10 C 2.1492 0.2511 0.5821 0
M  V30 11 C -0.6839 -2.1863 -0.0934 0
M  V30 12 H -2.5702 1.8718 -0.8107 0
M  V30 13 H -2.6821 -1.7506 -0.7417 0
M  V30 14 H 1.348 -2.3424 0.559 0
M  V30 15 H 2.9169 -0.5513 0.5509 0
M  V30 16 H 2.4627 1.0407 -0.1329 0
M  V30 17 H 2.1208 0.6713 1.6091 0
M  V30 18 H -0.8478 -3.2559 -0.0649 0
M  V30 END ATOM
M  V30 BEGIN BOND
M  V30 1 2 1 2
M  V30 2 1 2 3
M  V30 3 1 2 4
M  V30 4 2 4 5
M  V30 5 1 4 6
M  V30 6 1 5 7
M  V30 7 1 5 8
M  V30 8 2 6 9
M  V30 9 1 6 10
M  V30 10 2 8 11
M  V30 11 1 9 11
M  V30 12 1 7 12
M  V30 13 1 8 13
M  V30 14 1 9 14
M  V30 15 1 10 15
M  V30 16 1 10 16
M  V30 17 1 10 17
M  V30 18 1 11 18
M  V30 END BOND
M  V30 END CTAB
M  END
>  <Structure No>
4577

>  <LogS>
-1.64

>  <MMFF94 Energy>
55.713

$$$$
Compound 4578
Actelion Java MolfileCreator 2.0

  0  0  0  0  0  0              0 V3000
M  V30 BEGIN CTAB
M  V30 COUNTS 14 13 0 0 0
M  V30 BEGIN ATOM
M  V30 1 Cl 3.3563 -0.5867 0.3352 0
M  V30 2 C 2.1776 -0.9 -0.9605 0
M  V30 3 C 1.0763 0.1091 -0.8924 0
M  V30 4 O 1.1245 1.1251 -1.6374 0
M  V30 5 N 0.0044 -0.0631 0.0485 0
M  V30 6 C -1.1032 0.8425 0.1792 0
M  V30 7 O -1.2179 1.8372 -0.5869 0
M  V30 8 C -2.1625 0.5816 1.2018 0
M  V30 9 Cl -3.3116 -0.6252 0.5777 0
M  V30 10 H 2.6929 -0.8426 -1.9427 0
M  V30 11 H 1.7628 -1.9226 -0.8392 0
M  V30 12 H 0.0319 -0.8983 0.6762 0
M  V30 13 H -1.7013 0.1994 2.1365 0
M  V30 14 H -2.7107 1.5187 1.4367 0
M  V30 END ATOM
M  V30 BEGIN BOND
M  V30 1 1 1 2
M  V30 2 1 2 3
M  V30 3 2 3 4
M  V30 4 1 3 5
M  V30 5 1 5 6
M  V30 6 2 6 7
M  V30 7 1 6 8
M  V30 8 1 8 9
M  V30 9 1 2 10
M  V30 10 1 2 11
M  V30 11 1 5 12
M  V30 12 1 8 13
M  V30 13 1 8 14
M  V30 END BOND
M  V30 END CTAB
M  END
>  <Structure No>
4578

>  <LogS>
-2.2304

>  <MMFF94 Energy>
2.5053

$$$$
Compound 4579
Actelion Java MolfileCreator 2.0

  0  0  0  0  0  0              0 V3000
M  V30 BEGIN CTAB
M  V30 COUNTS 49 52 0 0 0
M  V30 BEGIN ATOM
M  V30 1 S 2.6292 1.2318 1.2318 0
M  V30 2 C 1.665 -0.1595 1.2395 0
M  V30 3 C 3.972 0.3803 0.6976 0
M  V30 4 S -0.0525 -0.196 1.7437 0
M  V30 5 N 2.3492 -1.2647 0.8583 0
M  V30 6 C 3.634 -0.9555 0.5501 0
M  V30 7 C 5.2534 0.8536 0.4279 0
M  V30 8 N -0.6562 0.1033 0.0875 0
M  V30 9 C 4.5855 -1.8801 0.1165 0
M  V30 10 C 6.2192 -0.0673 -0.0082 0
M  V30 11 C -1.4073 1.378 -0.0696 0
M  V30 12 C -1.3012 -1.0782 -0.5414 0
M  V30 13 C 5.8866 -1.4281 -0.1639 0
M  V30 14 C -2.4241 1.6726 1.0651 0
M  V30 15 C -0.4159 2.5487 -0.1945 0
M  V30 16 C -0.2727 -2.2005 -0.7772 0
M  V30 17 C -2.5443 -1.6033 0.2343 0
M  V30 18 C -3.1649 2.9898 0.7965 0
M  V30 19 C -1.1518 3.8687 -0.4592 0
M  V30 20 C -0.8693 -3.3513 -1.6115 0
M  V30 21 C -2.789 -3.1138 0.046 0
M  V30 22 C -2.1793 4.1553 0.643 0
M  V30 23 C -2.3725 -3.5815 -1.3518 0
M  V30 24 H 5.4989 1.9001 0.5524 0
M  V30 25 H 4.3289 -2.9252 -0.0017 0
M  V30 26 H 7.2239 0.2703 -0.2275 0
M  V30 27 H -1.9773 1.35 -1.0267 0
M  V30 28 H -1.6458 -0.7859 -1.5599 0
M  V30 29 H 6.6379 -2.1295 -0.502 0
M  V30 30 H -3.1761 0.8655 1.1428 0
M  V30 31 H -1.911 1.7598 2.0463 0
M  V30 32 H 0.2902 2.3513 -1.0301 0
M  V30 33 H 0.1719 2.6488 0.7423 0
M  V30 34 H 0.0629 -2.6096 0.2 0
M  V30 35 H 0.6175 -1.7932 -1.3041 0
M  V30 36 H -2.459 -1.4097 1.323 0
M  V30 37 H -3.4413 -1.0574 -0.1311 0
M  V30 38 H -3.7778 2.8943 -0.1268 0
M  V30 39 H -3.8536 3.2028 1.6423 0
M  V30 40 H -0.4139 4.6986 -0.4976 0
M  V30 41 H -1.6638 3.8219 -1.4456 0
M  V30 42 H -0.3078 -4.2829 -1.3821 0
M  V30 43 H -0.7233 -3.136 -2.6925 0
M  V30 44 H -2.2094 -3.6826 0.8064 0
M  V30 45 H -3.8656 -3.3381 0.2086 0
M  V30 46 H -2.7409 5.0803 0.3896 0
M  V30 47 H -1.6528 4.3286 1.6074 0
M  V30 48 H -2.6081 -4.6613 -1.4675 0
M  V30 49 H -2.9697 -3.0257 -2.1081 0
M  V30 END ATOM
M  V30 BEGIN BOND
M  V30 1 1 1 2
M  V30 2 1 1 3
M  V30 3 1 2 4
M  V30 4 2 2 5
M  V30 5 2 3 6
M  V30 6 1 3 7
M  V30 7 1 4 8
M  V30 8 1 6 9
M  V30 9 2 7 10
M  V30 10 1 8 11
M  V30 11 1 8 12
M  V30 12 2 9 13
M  V30 13 1 11 14
M  V30 14 1 11 15
M  V30 15 1 12 16
M  V30 16 1 12 17
M  V30 17 1 14 18
M  V30 18 1 15 19
M  V30 19 1 16 20
M  V30 20 1 17 21
M  V30 21 1 18 22
M  V30 22 1 20 23
M  V30 23 1 5 6
M  V30 24 1 10 13
M  V30 25 1 19 22
M  V30 26 1 21 23
M  V30 27 1 7 24
M  V30 28 1 9 25
M  V30 29 1 10 26
M  V30 30 1 11 27
M  V30 31 1 12 28
M  V30 32 1 13 29
M  V30 33 1 14 30
M  V30 34 1 14 31
M  V30 35 1 15 32
M  V30 36 1 15 33
M  V30 37 1 16 34
M  V30 38 1 16 35
M  V30 39 1 17 36
M  V30 40 1 17 37
M  V30 41 1 18 38
M  V30 42 1 18 39
M  V30 43 1 19 40
M  V30 44 1 19 41
M  V30 45 1 20 42
M  V30 46 1 20 43
M  V30 47 1 21 44
M  V30 48 1 21 45
M  V30 49 1 22 46
M  V30 50 1 22 47
M  V30 51 1 23 48
M  V30 52 1 23 49
M  V30 END BOND
M  V30 END CTAB
M  END
>  <Structure No>
4579

>  <LogS>
-6.7886

>  <MMFF94 Energy>
37.401

$$$$
Compound 4580
Actelion Java MolfileCreator 2.0

  0  0  0  0  0  0              0 V3000
M  V30 BEGIN CTAB
M  V30 COUNTS 24 24 0 0 0
M  V30 BEGIN ATOM
M  V30 1 O 3.6506 0.8103 1.7024 0
M  V30 2 N 2.9023 1.2572 0.8086 0 CHG=1
M  V30 3 O 3.1484 2.5129 0.3029 0 CHG=-1
M  V30 4 C 1.6667 0.5907 0.5026 0
M  V30 5 C 1.5918 -0.8172 0.3692 0
M  V30 6 C 0.4965 1.3567 0.3887 0
M  V30 7 C 2.8017 -1.673 0.3514 0
M  V30 8 C 0.3361 -1.4215 0.1843 0
M  V30 9 C -0.7532 0.746 0.1853 0
M  V30 10 O 2.7359 -2.8737 0.727 0
M  V30 11 O 4.0104 -1.1834 -0.1289 0 CHG=-1
M  V30 12 C -0.8349 -0.648 0.0913 0
M  V30 13 O -1.9387 1.4909 0.0779 0
M  V30 14 O -2.099 -1.2285 -0.1013 0
M  V30 15 C -2.011 2.9111 0.1533 0
M  V30 16 C -2.338 -2.6275 -0.2148 0
M  V30 17 H 0.5643 2.431 0.4917 0
M  V30 18 H 0.2787 -2.4969 0.0832 0
M  V30 19 H -3.0671 3.2271 0.0301 0
M  V30 20 H -1.6495 3.2599 1.1436 0
M  V30 21 H -1.4065 3.3679 -0.6583 0
M  V30 22 H -2.0122 -3.1471 0.7109 0
M  V30 23 H -1.7985 -3.0371 -1.0946 0
M  V30 24 H -3.4249 -2.7992 -0.3541 0
M  V30 END ATOM
M  V30 BEGIN BOND
M  V30 1 2 1 2
M  V30 2 1 2 3
M  V30 3 1 2 4
M  V30 4 2 4 5
M  V30 5 1 4 6
M  V30 6 1 5 7
M  V30 7 1 5 8
M  V30 8 2 6 9
M  V30 9 2 7 10
M  V30 10 1 7 11
M  V30 11 2 8 12
M  V30 12 1 9 13
M  V30 13 1 12 14
M  V30 14 1 13 15
M  V30 15 1 14 16
M  V30 16 1 9 12
M  V30 17 1 6 17
M  V30 18 1 8 18
M  V30 19 1 15 19
M  V30 20 1 15 20
M  V30 21 1 15 21
M  V30 22 1 16 22
M  V30 23 1 16 23
M  V30 24 1 16 24
M  V30 END BOND
M  V30 END CTAB
M  END
>  <Structure No>
4580

>  <LogS>
-0.7543

>  <MMFF94 Energy>
50.867

$$$$
Compound 4581
Actelion Java MolfileCreator 2.0

  0  0  0  0  0  0              0 V3000
M  V30 BEGIN CTAB
M  V30 COUNTS 38 39 0 0 0
M  V30 BEGIN ATOM
M  V30 1 O -1.2007 0.8804 0.16 0
M  V30 2 C -1.3421 -0.3337 0.4706 0
M  V30 3 O -0.2432 -1.0708 0.9362 0
M  V30 4 C -2.6806 -0.9772 0.4088 0
M  V30 5 C 1.1033 -0.7111 0.7779 0
M  V30 6 C -3.816 -0.3019 -0.1064 0
M  V30 7 C -2.8262 -2.2957 0.8815 0
M  V30 8 C 2.0265 -1.148 1.7339 0
M  V30 9 C 1.5581 0.037 -0.323 0
M  V30 10 O -3.684 1.0053 -0.603 0
M  V30 11 C -5.0543 -0.9718 -0.1576 0
M  V30 12 C -4.0651 -2.9366 0.8394 0
M  V30 13 C 3.3808 -0.8243 1.6129 0
M  V30 14 C 2.9133 0.3594 -0.4459 0
M  V30 15 C -4.6859 1.9844 -0.5889 0
M  V30 16 C -5.1757 -2.2776 0.3177 0
M  V30 17 C 3.8392 -0.0813 0.5159 0
M  V30 18 O -5.6948 1.873 0.1589 0
M  V30 19 C -4.5003 3.229 -1.3874 0
M  V30 20 N 5.2342 0.2563 0.4265 0
M  V30 21 C 5.9556 0.3811 -0.8085 0
M  V30 22 O 5.4591 -0.0372 -1.889 0
M  V30 23 C 7.3478 0.9226 -0.8035 0
M  V30 24 H -1.9809 -2.8366 1.2877 0
M  V30 25 H 1.6908 -1.7335 2.5804 0
M  V30 26 H 0.876 0.3555 -1.0991 0
M  V30 27 H -5.9233 -0.4987 -0.5944 0
M  V30 28 H -4.162 -3.9502 1.2062 0
M  V30 29 H 4.0771 -1.163 2.37 0
M  V30 30 H 3.2302 0.9666 -1.283 0
M  V30 31 H -6.1317 -2.7831 0.2723 0
M  V30 32 H -4.1148 4.0366 -0.7311 0
M  V30 33 H -5.4684 3.5444 -1.8296 0
M  V30 34 H -3.7741 3.0489 -2.2076 0
M  V30 35 H 5.7789 0.333 1.3155 0
M  V30 36 H 8.0501 0.1313 -0.4688 0
M  V30 37 H 7.4139 1.7866 -0.1098 0
M  V30 38 H 7.6365 1.26 -1.8218 0
M  V30 END ATOM
M  V30 BEGIN BOND
M  V30 1 2 1 2
M  V30 2 1 2 3
M  V30 3 1 2 4
M  V30 4 1 3 5
M  V30 5 2 4 6
M  V30 6 1 4 7
M  V30 7 2 5 8
M  V30 8 1 5 9
M  V30 9 1 6 10
M  V30 10 1 6 11
M  V30 11 2 7 12
M  V30 12 1 8 13
M  V30 13 2 9 14
M  V30 14 1 10 15
M  V30 15 2 11 16
M  V30 16 2 13 17
M  V30 17 2 15 18
M  V30 18 1 15 19
M  V30 19 1 17 20
M  V30 20 1 20 21
M  V30 21 2 21 22
M  V30 22 1 21 23
M  V30 23 1 12 16
M  V30 24 1 14 17
M  V30 25 1 7 24
M  V30 26 1 8 25
M  V30 27 1 9 26
M  V30 28 1 11 27
M  V30 29 1 12 28
M  V30 30 1 13 29
M  V30 31 1 14 30
M  V30 32 1 16 31
M  V30 33 1 19 32
M  V30 34 1 19 33
M  V30 35 1 19 34
M  V30 36 1 20 35
M  V30 37 1 23 36
M  V30 38 1 23 37
M  V30 39 1 23 38
M  V30 END BOND
M  V30 END CTAB
M  END
>  <Structure No>
4581

>  <LogS>
-4.1949

>  <MMFF94 Energy>
53.755

$$$$
Compound 4582
Actelion Java MolfileCreator 2.0

  0  0  0  0  0  0              0 V3000
M  V30 BEGIN CTAB
M  V30 COUNTS 30 31 0 0 0
M  V30 BEGIN ATOM
M  V30 1 S 0.4089 -0.5725 -1.3089 0
M  V30 2 O 0.1454 -2.0383 -1.0973 0
M  V30 3 O 0.5391 -0.3171 -2.7848 0
M  V30 4 N -0.9123 0.3709 -0.6632 0
M  V30 5 C 1.9178 -0.115 -0.5215 0
M  V30 6 C -0.9072 0.2985 0.8155 0
M  V30 7 C -2.1999 -0.0136 -1.2956 0
M  V30 8 C 2.554 1.083 -0.8764 0
M  V30 9 C 2.4732 -0.9236 0.4816 0
M  V30 10 C -2.2622 0.7052 1.4029 0
M  V30 11 C -3.0565 -0.9259 -0.4056 0
M  V30 12 C 3.7409 1.4631 -0.2419 0
M  V30 13 C 3.6601 -0.5407 1.1145 0
M  V30 14 C -3.3756 -0.2504 0.9392 0
M  V30 15 C 4.2944 0.6511 0.7522 0
M  V30 16 H -0.6617 -0.7289 1.1685 0
M  V30 17 H -0.1295 0.9886 1.2073 0
M  V30 18 H -2.0463 -0.5078 -2.2798 0
M  V30 19 H -2.7747 0.914 -1.5063 0
M  V30 20 H 2.1293 1.7226 -1.6399 0
M  V30 21 H 1.9877 -1.8443 0.7782 0
M  V30 22 H -2.2061 0.705 2.5131 0
M  V30 23 H -2.4989 1.7413 1.0744 0
M  V30 24 H -2.5068 -1.8753 -0.2254 0
M  V30 25 H -4.0036 -1.179 -0.9295 0
M  V30 26 H 4.2301 2.388 -0.5192 0
M  V30 27 H 4.0866 -1.1666 1.8878 0
M  V30 28 H -4.3255 0.3209 0.8514 0
M  V30 29 H -3.5317 -1.0399 1.7064 0
M  V30 30 H 5.2124 0.9468 1.2436 0
M  V30 END ATOM
M  V30 BEGIN BOND
M  V30 1 2 1 2
M  V30 2 2 1 3
M  V30 3 1 1 4
M  V30 4 1 1 5
M  V30 5 1 4 6
M  V30 6 1 4 7
M  V30 7 2 5 8
M  V30 8 1 5 9
M  V30 9 1 6 10
M  V30 10 1 7 11
M  V30 11 1 8 12
M  V30 12 2 9 13
M  V30 13 1 10 14
M  V30 14 2 12 15
M  V30 15 1 11 14
M  V30 16 1 13 15
M  V30 17 1 6 16
M  V30 18 1 6 17
M  V30 19 1 7 18
M  V30 20 1 7 19
M  V30 21 1 8 20
M  V30 22 1 9 21
M  V30 23 1 10 22
M  V30 24 1 10 23
M  V30 25 1 11 24
M  V30 26 1 11 25
M  V30 27 1 12 26
M  V30 28 1 13 27
M  V30 29 1 14 28
M  V30 30 1 14 29
M  V30 31 1 15 30
M  V30 END BOND
M  V30 END CTAB
M  END
>  <Structure No>
4582

>  <LogS>
-2.5365

>  <MMFF94 Energy>
-23.434

$$$$
Compound 4583
Actelion Java MolfileCreator 2.0

  0  0  0  0  0  0              0 V3000
M  V30 BEGIN CTAB
M  V30 COUNTS 30 30 0 0 0
M  V30 BEGIN ATOM
M  V30 1 N 0.707 2.2011 -2.6732 0
M  V30 2 C 0.4715 1.2732 -2.023 0
M  V30 3 C 0.1678 0.0853 -1.1917 0 CFG=2
M  V30 4 N -1.0436 0.2736 -0.3498 0
M  V30 5 C 1.3379 -0.3609 -0.3318 0
M  V30 6 C -1.0294 1.5237 0.4461 0
M  V30 7 C -2.2944 0.1233 -1.1304 0
M  V30 8 C 1.3816 -1.6974 0.1053 0
M  V30 9 C 2.3463 0.5268 0.1013 0
M  V30 10 C -1.7405 1.3079 1.7784 0
M  V30 11 C -2.737 -1.3361 -1.1324 0
M  V30 12 C 2.4188 -2.1432 0.9295 0
M  V30 13 C 3.3811 0.075 0.9257 0
M  V30 14 C 3.4189 -1.2586 1.3372 0
M  V30 15 H -0.0113 -0.738 -1.9177 0
M  V30 16 H 0.0079 1.8404 0.6823 0
M  V30 17 H -1.5071 2.362 -0.1096 0
M  V30 18 H -2.1692 0.479 -2.1774 0
M  V30 19 H -3.1262 0.7165 -0.6898 0
M  V30 20 H 0.6079 -2.395 -0.1914 0
M  V30 21 H 2.3358 1.5689 -0.1894 0
M  V30 22 H -1.2502 0.4841 2.3393 0
M  V30 23 H -2.8087 1.0528 1.62 0
M  V30 24 H -1.6854 2.2361 2.3854 0
M  V30 25 H -1.9816 -1.9766 -1.6325 0
M  V30 26 H -3.6994 -1.4336 -1.6779 0
M  V30 27 H -2.8795 -1.6898 -0.0893 0
M  V30 28 H 2.4444 -3.1748 1.2557 0
M  V30 29 H 4.1523 0.7617 1.25 0
M  V30 30 H 4.2203 -1.6052 1.9769 0
M  V30 END ATOM
M  V30 BEGIN BOND
M  V30 1 3 1 2
M  V30 2 1 2 3
M  V30 3 1 3 4
M  V30 4 1 3 5
M  V30 5 1 4 6
M  V30 6 1 4 7
M  V30 7 2 5 8
M  V30 8 1 5 9
M  V30 9 1 6 10
M  V30 10 1 7 11
M  V30 11 1 8 12
M  V30 12 2 9 13
M  V30 13 2 12 14
M  V30 14 1 13 14
M  V30 15 1 3 15
M  V30 16 1 6 16
M  V30 17 1 6 17
M  V30 18 1 7 18
M  V30 19 1 7 19
M  V30 20 1 8 20
M  V30 21 1 9 21
M  V30 22 1 10 22
M  V30 23 1 10 23
M  V30 24 1 10 24
M  V30 25 1 11 25
M  V30 26 1 11 26
M  V30 27 1 11 27
M  V30 28 1 12 28
M  V30 29 1 13 29
M  V30 30 1 14 30
M  V30 END BOND
M  V30 BEGIN COLLECTION
M  V30 MDLV30/STEABS ATOMS=(1 3)
M  V30 END COLLECTION
M  V30 END CTAB
M  END
>  <Structure No>
4583

>  <LogS>
-0.9738

>  <MMFF94 Energy>
65.223

$$$$
Compound 4584
Actelion Java MolfileCreator 2.0

  0  0  0  0  0  0              0 V3000
M  V30 BEGIN CTAB
M  V30 COUNTS 22 23 0 0 0
M  V30 BEGIN ATOM
M  V30 1 O 4.2748 -0.3221 0.6443 0
M  V30 2 N 3.6169 0.7134 0.415 0 CHG=1
M  V30 3 O 3.4756 1.6572 1.4053 0 CHG=-1
M  V30 4 C 2.8186 0.8152 -0.7994 0
M  V30 5 C 1.4585 0.2292 -0.5677 0
M  V30 6 N 0.4422 1.0345 -0.1521 0
M  V30 7 C 1.2383 -1.1473 -0.7208 0
M  V30 8 C -0.802 0.5485 0.1036 0
M  V30 9 C -0.0289 -1.6759 -0.4662 0
M  V30 10 C -1.0656 -0.8309 -0.0513 0
M  V30 11 C -1.8218 1.4107 0.5226 0
M  V30 12 C -2.3502 -1.3283 0.2143 0
M  V30 13 C -3.0999 0.9068 0.7852 0
M  V30 14 C -3.3633 -0.4583 0.6314 0
M  V30 15 H 2.7229 1.8838 -1.0902 0
M  V30 16 H 3.3297 0.2881 -1.6349 0
M  V30 17 H 2.0411 -1.8037 -1.033 0
M  V30 18 H -0.1968 -2.7391 -0.5893 0
M  V30 19 H -1.6271 2.4691 0.6447 0
M  V30 20 H -2.5692 -2.3833 0.1008 0
M  V30 21 H -3.8874 1.5751 1.1087 0
M  V30 22 H -4.3542 -0.8427 0.8362 0
M  V30 END ATOM
M  V30 BEGIN BOND
M  V30 1 2 1 2
M  V30 2 1 2 3
M  V30 3 1 2 4
M  V30 4 1 4 5
M  V30 5 2 5 6
M  V30 6 1 5 7
M  V30 7 1 6 8
M  V30 8 2 7 9
M  V30 9 1 8 10
M  V30 10 2 8 11
M  V30 11 2 10 12
M  V30 12 1 11 13
M  V30 13 1 12 14
M  V30 14 1 9 10
M  V30 15 2 13 14
M  V30 16 1 4 15
M  V30 17 1 4 16
M  V30 18 1 7 17
M  V30 19 1 9 18
M  V30 20 1 11 19
M  V30 21 1 12 20
M  V30 22 1 13 21
M  V30 23 1 14 22
M  V30 END BOND
M  V30 END CTAB
M  END
>  <Structure No>
4584

>  <LogS>
-2.0545

>  <MMFF94 Energy>
51.373

$$$$
Compound 4585
Actelion Java MolfileCreator 2.0

  0  0  0  0  0  0              0 V3000
M  V30 BEGIN CTAB
M  V30 COUNTS 20 19 0 0 0
M  V30 BEGIN ATOM
M  V30 1 S -2.4887 -1.2867 -0.1714 0
M  V30 2 C -1.5283 0.1744 0.3617 0 CFG=2
M  V30 3 C -2.4663 1.3119 0.6463 0
M  V30 4 C -0.4765 0.5892 -0.6883 0
M  V30 5 O -3.1608 1.8163 -0.2759 0
M  V30 6 O -2.5761 1.8137 1.9372 0 CHG=-1
M  V30 7 C 0.5808 -0.4918 -0.9978 0
M  V30 8 C 1.4741 -0.8733 0.1994 0 CFG=1
M  V30 9 S 2.6602 -2.1689 -0.2932 0
M  V30 10 C 2.2245 0.3076 0.7454 0
M  V30 11 O 2.1278 0.6081 1.9644 0
M  V30 12 O 3.036 1.0713 -0.0854 0 CHG=-1
M  V30 13 H -2.9408 -0.6892 -1.3638 0
M  V30 14 H -1.0182 -0.0833 1.3124 0
M  V30 15 H 0.0374 1.5142 -0.3468 0
M  V30 16 H -0.9931 0.8444 -1.6395 0
M  V30 17 H 1.2225 -0.1148 -1.8242 0
M  V30 18 H 0.0762 -1.4042 -1.3808 0
M  V30 19 H 0.8461 -1.3165 1.0003 0
M  V30 20 H 3.2777 -1.3837 -1.286 0
M  V30 END ATOM
M  V30 BEGIN BOND
M  V30 1 1 1 2
M  V30 2 1 2 3
M  V30 3 1 2 4
M  V30 4 2 3 5
M  V30 5 1 3 6
M  V30 6 1 4 7
M  V30 7 1 7 8
M  V30 8 1 8 9
M  V30 9 1 8 10
M  V30 10 2 10 11
M  V30 11 1 10 12
M  V30 12 1 1 13
M  V30 13 1 2 14
M  V30 14 1 4 15
M  V30 15 1 4 16
M  V30 16 1 7 17
M  V30 17 1 7 18
M  V30 18 1 8 19
M  V30 19 1 9 20
M  V30 END BOND
M  V30 BEGIN COLLECTION
M  V30 MDLV30/STEABS ATOMS=(2 2 8)
M  V30 END COLLECTION
M  V30 END CTAB
M  END
>  <Structure No>
4585

>  <LogS>
-2.4758

>  <MMFF94 Energy>
138.3

$$$$
Compound 4586
Actelion Java MolfileCreator 2.0

  0  0  0  0  0  0              0 V3000
M  V30 BEGIN CTAB
M  V30 COUNTS 23 22 0 0 0
M  V30 BEGIN ATOM
M  V30 1 S 2.2614 -2.01 -1.4234 0
M  V30 2 C 0.9935 -1.0192 -1.127 0
M  V30 3 S 1.0767 0.6833 -1.6965 0
M  V30 4 N -0.1576 -1.5294 -0.4369 0
M  V30 5 C 2.0458 1.2552 -0.2601 0
M  V30 6 C -1.448 -0.829 -0.3893 0 CFG=1
M  V30 7 C 2.0943 2.7745 -0.239 0
M  V30 8 C -2.5863 -1.8161 -0.3729 0
M  V30 9 C -1.5242 0.124 0.8179 0
M  V30 10 O -3.6067 -1.6116 -1.082 0
M  V30 11 O -2.5455 -2.9313 0.456 0 CHG=-1
M  V30 12 C -1.2438 -0.5632 2.1215 0
M  V30 13 O -2.192 -1.0011 2.8243 0
M  V30 14 O 0.0664 -0.7419 2.5469 0 CHG=-1
M  V30 15 H -0.065 -2.4528 0.0447 0
M  V30 16 H 3.0791 0.8555 -0.333 0
M  V30 17 H 1.59 0.8937 0.6855 0
M  V30 18 H -1.5616 -0.2182 -1.312 0
M  V30 19 H 2.6956 3.1157 0.6294 0
M  V30 20 H 1.0673 3.1869 -0.1472 0
M  V30 21 H 2.5622 3.1562 -1.1708 0
M  V30 22 H -0.7947 0.9486 0.6851 0
M  V30 23 H -2.5309 0.5959 0.8565 0
M  V30 END ATOM
M  V30 BEGIN BOND
M  V30 1 2 1 2
M  V30 2 1 2 3
M  V30 3 1 2 4
M  V30 4 1 3 5
M  V30 5 1 4 6
M  V30 6 1 5 7
M  V30 7 1 6 8
M  V30 8 1 6 9
M  V30 9 2 8 10
M  V30 10 1 8 11
M  V30 11 1 9 12
M  V30 12 2 12 13
M  V30 13 1 12 14
M  V30 14 1 4 15
M  V30 15 1 5 16
M  V30 16 1 5 17
M  V30 17 1 6 18
M  V30 18 1 7 19
M  V30 19 1 7 20
M  V30 20 1 7 21
M  V30 21 1 9 22
M  V30 22 1 9 23
M  V30 END BOND
M  V30 BEGIN COLLECTION
M  V30 MDLV30/STEABS ATOMS=(1 6)
M  V30 END COLLECTION
M  V30 END CTAB
M  END
>  <Structure No>
4586

>  <LogS>
-1.3863

>  <MMFF94 Energy>
68.196

$$$$
Compound 4587
Actelion Java MolfileCreator 2.0

  0  0  0  0  0  0              0 V3000
M  V30 BEGIN CTAB
M  V30 COUNTS 33 32 0 0 0
M  V30 BEGIN ATOM
M  V30 1 Cl 5.1016 -0.2546 2.7185 0
M  V30 2 C 5.3907 0.3344 1.06 0
M  V30 3 C 5.2289 -0.7824 0.0276 0
M  V30 4 S 3.5276 -1.3085 -0.1677 0
M  V30 5 O 3.4744 -2.3408 -1.2587 0
M  V30 6 O 3.0299 -1.9233 1.1101 0
M  V30 7 C 2.4838 0.0739 -0.612 0
M  V30 8 C 1.076 -0.394 -0.967 0
M  V30 9 O 0.2849 0.7311 -1.2889 0
M  V30 10 C -1.0653 0.352 -1.4792 0
M  V30 11 C -1.8633 0.5913 -0.1966 0
M  V30 12 S -3.5903 0.2048 -0.4341 0
M  V30 13 O -3.729 -1.2378 -0.8318 0
M  V30 14 O -4.1564 1.0797 -1.5176 0
M  V30 15 C -4.4615 0.503 1.1 0
M  V30 16 C -5.9732 0.3296 0.9484 0
M  V30 17 Cl -6.4196 -1.3889 0.7783 0
M  V30 18 H 4.7077 1.1795 0.8384 0
M  V30 19 H 6.4314 0.7184 1.0131 0
M  V30 20 H 5.5923 -0.4155 -0.9554 0
M  V30 21 H 5.8503 -1.6556 0.3186 0
M  V30 22 H 2.4283 0.7777 0.2449 0
M  V30 23 H 2.9328 0.6013 -1.4803 0
M  V30 24 H 0.6538 -0.9424 -0.094 0
M  V30 25 H 1.1358 -1.0785 -1.843 0
M  V30 26 H -1.1878 -0.7029 -1.8228 0
M  V30 27 H -1.4853 0.9947 -2.2816 0
M  V30 28 H -1.4667 -0.0444 0.6222 0
M  V30 29 H -1.7717 1.656 0.1063 0
M  V30 30 H -4.2507 1.5451 1.421 0
M  V30 31 H -4.0759 -0.1833 1.8835 0
M  V30 32 H -6.3468 0.9 0.0723 0
M  V30 33 H -6.4754 0.7244 1.8567 0
M  V30 END ATOM
M  V30 BEGIN BOND
M  V30 1 1 1 2
M  V30 2 1 2 3
M  V30 3 1 3 4
M  V30 4 2 4 5
M  V30 5 2 4 6
M  V30 6 1 4 7
M  V30 7 1 7 8
M  V30 8 1 8 9
M  V30 9 1 9 10
M  V30 10 1 10 11
M  V30 11 1 11 12
M  V30 12 2 12 13
M  V30 13 2 12 14
M  V30 14 1 12 15
M  V30 15 1 15 16
M  V30 16 1 16 17
M  V30 17 1 2 18
M  V30 18 1 2 19
M  V30 19 1 3 20
M  V30 20 1 3 21
M  V30 21 1 7 22
M  V30 22 1 7 23
M  V30 23 1 8 24
M  V30 24 1 8 25
M  V30 25 1 10 26
M  V30 26 1 10 27
M  V30 27 1 11 28
M  V30 28 1 11 29
M  V30 29 1 15 30
M  V30 30 1 15 31
M  V30 31 1 16 32
M  V30 32 1 16 33
M  V30 END BOND
M  V30 END CTAB
M  END
>  <Structure No>
4587

>  <LogS>
-1.9408

>  <MMFF94 Energy>
-44.664

$$$$
Compound 4588
Actelion Java MolfileCreator 2.0

  0  0  0  0  0  0              0 V3000
M  V30 BEGIN CTAB
M  V30 COUNTS 20 20 0 0 0
M  V30 BEGIN ATOM
M  V30 1 O -1.7144 3.5129 -0.3263 0
M  V30 2 C -1.8304 2.2778 -0.105 0
M  V30 3 O -3.0976 1.7664 0.1486 0 CHG=-1
M  V30 4 C -0.6312 1.3972 -0.1176 0
M  V30 5 C -0.7249 0.0061 0.1267 0
M  V30 6 C 0.6309 1.9611 -0.3793 0
M  V30 7 O -1.9812 -0.5666 0.3893 0
M  V30 8 C 0.4451 -0.7814 0.1025 0
M  V30 9 C 1.7795 1.1705 -0.4002 0
M  V30 10 C -2.2095 -1.9481 0.6499 0
M  V30 11 C 1.6995 -0.2069 -0.1599 0
M  V30 12 C 2.9235 -1.0395 -0.1837 0
M  V30 13 O 2.8601 -2.2794 0.0313 0
M  V30 14 O 4.162 -0.4641 -0.4442 0 CHG=-1
M  V30 15 H 0.7344 3.0222 -0.57 0
M  V30 16 H 0.3838 -1.8449 0.288 0
M  V30 17 H 2.7324 1.6421 -0.6054 0
M  V30 18 H -3.2936 -2.1096 0.821 0
M  V30 19 H -1.8934 -2.559 -0.2219 0
M  V30 20 H -1.6564 -2.2618 1.5604 0
M  V30 END ATOM
M  V30 BEGIN BOND
M  V30 1 2 1 2
M  V30 2 1 2 3
M  V30 3 1 2 4
M  V30 4 2 4 5
M  V30 5 1 4 6
M  V30 6 1 5 7
M  V30 7 1 5 8
M  V30 8 2 6 9
M  V30 9 1 7 10
M  V30 10 2 8 11
M  V30 11 1 11 12
M  V30 12 2 12 13
M  V30 13 1 12 14
M  V30 14 1 9 11
M  V30 15 1 6 15
M  V30 16 1 8 16
M  V30 17 1 9 17
M  V30 18 1 10 18
M  V30 19 1 10 19
M  V30 20 1 10 20
M  V30 END BOND
M  V30 END CTAB
M  END
>  <Structure No>
4588

>  <LogS>
-1.9916

>  <MMFF94 Energy>
104.32

$$$$
Compound 4589
Actelion Java MolfileCreator 2.0

  0  0  0  0  0  0              0 V3000
M  V30 BEGIN CTAB
M  V30 COUNTS 22 22 0 0 0
M  V30 BEGIN ATOM
M  V30 1 Cl -4.6647 -1.1244 -0.1605 0
M  V30 2 C -2.9542 -0.7355 -0.1703 0
M  V30 3 C -2.5011 0.441 0.4322 0
M  V30 4 C -2.0466 -1.5973 -0.7877 0
M  V30 5 C -1.1322 0.761 0.4336 0
M  V30 6 C -0.6857 -1.2871 -0.8039 0
M  V30 7 C -0.2112 -0.1136 -0.1895 0
M  V30 8 C -0.6722 2.0357 1.0878 0
M  V30 9 N 1.1889 0.2164 -0.2449 0
M  V30 10 C 2.2381 -0.7484 -0.0751 0
M  V30 11 O 1.9801 -1.9114 0.3377 0
M  V30 12 C 3.6595 -0.35 -0.3038 0
M  V30 13 H -3.2179 1.1045 0.9008 0
M  V30 14 H -2.396 -2.5035 -1.266 0
M  V30 15 H -0.0052 -1.952 -1.3193 0
M  V30 16 H -0.3808 2.77 0.3079 0
M  V30 17 H -1.4734 2.485 1.7127 0
M  V30 18 H 0.1975 1.8338 1.7479 0
M  V30 19 H 1.4642 1.2176 -0.3611 0
M  V30 20 H 3.7295 0.3018 -1.1996 0
M  V30 21 H 4.2919 -1.2484 -0.4674 0
M  V30 22 H 4.0349 0.2036 0.5816 0
M  V30 END ATOM
M  V30 BEGIN BOND
M  V30 1 1 1 2
M  V30 2 2 2 3
M  V30 3 1 2 4
M  V30 4 1 3 5
M  V30 5 2 4 6
M  V30 6 2 5 7
M  V30 7 1 5 8
M  V30 8 1 7 9
M  V30 9 1 9 10
M  V30 10 2 10 11
M  V30 11 1 10 12
M  V30 12 1 6 7
M  V30 13 1 3 13
M  V30 14 1 4 14
M  V30 15 1 6 15
M  V30 16 1 8 16
M  V30 17 1 8 17
M  V30 18 1 8 18
M  V30 19 1 9 19
M  V30 20 1 12 20
M  V30 21 1 12 21
M  V30 22 1 12 22
M  V30 END BOND
M  V30 END CTAB
M  END
>  <Structure No>
4589

>  <LogS>
-2.3097

>  <MMFF94 Energy>
2.0281

$$$$
Compound 4590
Actelion Java MolfileCreator 2.0

  0  0  0  0  0  0              0 V3000
M  V30 BEGIN CTAB
M  V30 COUNTS 34 34 0 0 0
M  V30 BEGIN ATOM
M  V30 1 O -0.2347 -1.1739 2.2705 0
M  V30 2 C 0.3664 -0.5287 1.3682 0
M  V30 3 N 1.6973 -0.7365 1.1752 0
M  V30 4 C -0.3328 0.3953 0.5692 0
M  V30 5 C 2.3835 -0.0669 0.2031 0
M  V30 6 C 0.3899 1.062 -0.4433 0
M  V30 7 C -1.8217 0.6035 0.7665 0
M  V30 8 N 1.7177 0.8173 -0.5864 0
M  V30 9 N 3.7997 -0.281 -0.0051 0
M  V30 10 C -0.2496 2.0629 -1.3614 0
M  V30 11 C -2.6245 -0.4365 -0.0237 0
M  V30 12 C 4.4844 0.4624 -1.0688 0
M  V30 13 C 4.5561 -1.2232 0.8272 0
M  V30 14 C -4.1315 -0.2181 0.1513 0
M  V30 15 C -4.9332 -1.2543 -0.6307 0
M  V30 16 H 2.1793 -1.4266 1.7922 0
M  V30 17 H -2.0732 0.5232 1.8468 0
M  V30 18 H -2.1224 1.627 0.4586 0
M  V30 19 H -1.1384 1.6214 -1.8574 0
M  V30 20 H -0.5497 2.9637 -0.786 0
M  V30 21 H 0.4644 2.3766 -2.1522 0
M  V30 22 H -2.357 -1.4557 0.3328 0
M  V30 23 H -2.3657 -0.3646 -1.1027 0
M  V30 24 H 4.0223 0.2232 -2.05 0
M  V30 25 H 4.3968 1.5533 -0.8794 0
M  V30 26 H 5.5635 0.2081 -1.1252 0
M  V30 27 H 4.5045 -0.9103 1.8914 0
M  V30 28 H 5.627 -1.2627 0.5375 0
M  V30 29 H 4.1367 -2.2452 0.7145 0
M  V30 30 H -4.4076 0.7968 -0.2095 0
M  V30 31 H -4.399 -0.2941 1.228 0
M  V30 32 H -6.0188 -1.0714 -0.4854 0
M  V30 33 H -4.6944 -2.2781 -0.2717 0
M  V30 34 H -4.7028 -1.1823 -1.715 0
M  V30 END ATOM
M  V30 BEGIN BOND
M  V30 1 2 1 2
M  V30 2 1 2 3
M  V30 3 1 2 4
M  V30 4 1 3 5
M  V30 5 2 4 6
M  V30 6 1 4 7
M  V30 7 2 5 8
M  V30 8 1 5 9
M  V30 9 1 6 10
M  V30 10 1 7 11
M  V30 11 1 9 12
M  V30 12 1 9 13
M  V30 13 1 11 14
M  V30 14 1 14 15
M  V30 15 1 6 8
M  V30 16 1 3 16
M  V30 17 1 7 17
M  V30 18 1 7 18
M  V30 19 1 10 19
M  V30 20 1 10 20
M  V30 21 1 10 21
M  V30 22 1 11 22
M  V30 23 1 11 23
M  V30 24 1 12 24
M  V30 25 1 12 25
M  V30 26 1 12 26
M  V30 27 1 13 27
M  V30 28 1 13 28
M  V30 29 1 13 29
M  V30 30 1 14 30
M  V30 31 1 14 31
M  V30 32 1 15 32
M  V30 33 1 15 33
M  V30 34 1 15 34
M  V30 END BOND
M  V30 END CTAB
M  END
>  <Structure No>
4590

>  <LogS>
-2.2416

>  <MMFF94 Energy>
-106.6

$$$$
Compound 4591
Actelion Java MolfileCreator 2.0

  0  0  0  0  0  0              0 V3000
M  V30 BEGIN CTAB
M  V30 COUNTS 48 50 0 0 0
M  V30 BEGIN ATOM
M  V30 1 S -3.6868 3.8509 -0.4909 0
M  V30 2 O -4.9196 3.6501 0.3465 0
M  V30 3 O -2.5649 4.3598 0.3703 0
M  V30 4 O -3.2399 2.4005 -1.2446 0
M  V30 5 O -4.0195 4.9898 -1.6781 0 CHG=-1
M  V30 6 C -3.0274 1.4238 -0.2513 0
M  V30 7 C -2.5582 0.1176 -0.9154 0 CFG=2
M  V30 8 C -2.5085 -1.0481 0.0547 0
M  V30 9 C -1.2189 0.2969 -1.5736 0
M  V30 10 C -1.8819 -0.9372 1.3123 0
M  V30 11 C -3.0413 -2.2936 -0.3282 0
M  V30 12 O -1.1003 0.0874 -2.8124 0
M  V30 13 O -0.1141 0.6946 -0.8095 0
M  V30 14 C -1.8096 -2.04 2.1683 0
M  V30 15 C -2.9695 -3.3926 0.533 0
M  V30 16 C 1.1846 0.9256 -1.3605 0 CFG=2
M  V30 17 C -2.3556 -3.2653 1.7803 0
M  V30 18 C 1.8787 -0.426 -1.7146 0
M  V30 19 C 2.0075 1.801 -0.372 0
M  V30 20 C 2.7257 -0.9906 -0.5434 0 CFG=1
M  V30 21 C 2.8393 0.9579 0.6314 0 CFG=2
M  V30 22 N 3.6915 0.0397 -0.1363 0 CHG=1 CFG=1
M  V30 23 C 1.8368 -1.2426 0.6865 0
M  V30 24 C 1.9169 0.0639 1.4773 0
M  V30 25 C 4.8014 -0.5106 0.6675 0
M  V30 26 H -2.2615 1.7725 0.476 0
M  V30 27 H -3.9786 1.2196 0.2889 0
M  V30 28 H -3.3056 -0.1143 -1.7082 0
M  V30 29 H -1.4387 -0.0051 1.6323 0
M  V30 30 H -3.5101 -2.4168 -1.2961 0
M  V30 31 H -1.3255 -1.9455 3.1323 0
M  V30 32 H -3.3848 -4.345 0.23 0
M  V30 33 H 1.0621 1.5146 -2.2978 0
M  V30 34 H -2.2989 -4.118 2.4444 0
M  V30 35 H 1.1293 -1.1827 -2.0311 0
M  V30 36 H 2.5507 -0.2616 -2.5842 0
M  V30 37 H 2.7048 2.4428 -0.9548 0
M  V30 38 H 1.331 2.4887 0.1816 0
M  V30 39 H 3.2316 -1.9272 -0.8717 0
M  V30 40 H 3.4392 1.6405 1.2757 0
M  V30 41 H 4.1214 0.5168 -0.9661 0
M  V30 42 H 0.791 -1.4982 0.4112 0
M  V30 43 H 2.2515 -2.0797 1.2894 0
M  V30 44 H 0.9154 0.5168 1.638 0
M  V30 45 H 2.3782 -0.1201 2.4716 0
M  V30 46 H 4.4414 -1.0518 1.5669 0
M  V30 47 H 5.4767 0.3083 0.9977 0
M  V30 48 H 5.4018 -1.2154 0.0532 0
M  V30 END ATOM
M  V30 BEGIN BOND
M  V30 1 2 1 2
M  V30 2 2 1 3
M  V30 3 1 1 4
M  V30 4 1 1 5
M  V30 5 1 4 6
M  V30 6 1 6 7
M  V30 7 1 7 8
M  V30 8 1 7 9
M  V30 9 2 8 10
M  V30 10 1 8 11
M  V30 11 2 9 12
M  V30 12 1 9 13
M  V30 13 1 10 14
M  V30 14 2 11 15
M  V30 15 1 13 16
M  V30 16 2 14 17
M  V30 17 1 16 18
M  V30 18 1 16 19
M  V30 19 1 18 20
M  V30 20 1 19 21
M  V30 21 1 20 22
M  V30 22 1 20 23
M  V30 23 1 21 24
M  V30 24 1 22 25
M  V30 25 1 15 17
M  V30 26 1 21 22
M  V30 27 1 23 24
M  V30 28 1 6 26
M  V30 29 1 6 27
M  V30 30 1 7 28
M  V30 31 1 10 29
M  V30 32 1 11 30
M  V30 33 1 14 31
M  V30 34 1 15 32
M  V30 35 1 16 33
M  V30 36 1 17 34
M  V30 37 1 18 35
M  V30 38 1 18 36
M  V30 39 1 19 37
M  V30 40 1 19 38
M  V30 41 1 20 39
M  V30 42 1 21 40
M  V30 43 1 22 41
M  V30 44 1 23 42
M  V30 45 1 23 43
M  V30 46 1 24 44
M  V30 47 1 24 45
M  V30 48 1 25 46
M  V30 49 1 25 47
M  V30 50 1 25 48
M  V30 END BOND
M  V30 BEGIN COLLECTION
M  V30 MDLV30/STEABS ATOMS=(5 7 16 20 21 22)
M  V30 END COLLECTION
M  V30 END CTAB
M  END
>  <Structure No>
4591

>  <LogS>
-1.5675

>  <MMFF94 Energy>
-59.115

$$$$
Compound 4592
Actelion Java MolfileCreator 2.0

  0  0  0  0  0  0              0 V3000
M  V30 BEGIN CTAB
M  V30 COUNTS 23 23 0 0 0
M  V30 BEGIN ATOM
M  V30 1 O 1.9965 -1.3573 -1.597 0
M  V30 2 C 1.9829 -1.133 -0.3581 0
M  V30 3 O 1.9716 -2.1991 0.5322 0 CHG=-1
M  V30 4 C 2.0345 0.2728 0.155 0
M  V30 5 C 0.6578 0.947 0.3791 0
M  V30 6 C -0.1349 1.223 -0.9233 0
M  V30 7 C -0.2013 0.2866 1.4868 0
M  V30 8 C -1.0478 0.0679 -1.3564 0
M  V30 9 C -1.1105 -0.8418 0.9816 0
M  V30 10 C -1.9503 -0.3853 -0.2101 0
M  V30 11 H 2.6306 0.8901 -0.5521 0
M  V30 12 H 2.5958 0.2734 1.1145 0
M  V30 13 H 0.9214 1.9537 0.7771 0
M  V30 14 H 0.5613 1.4717 -1.7531 0
M  V30 15 H -0.7739 2.1197 -0.7622 0
M  V30 16 H -0.8493 1.0683 1.9422 0
M  V30 17 H 0.45 -0.1021 2.2992 0
M  V30 18 H -0.4493 -0.7896 -1.7218 0
M  V30 19 H -1.6828 0.4087 -2.2024 0
M  V30 20 H -0.5127 -1.7303 0.6974 0
M  V30 21 H -1.79 -1.1526 1.8042 0
M  V30 22 H -2.6218 0.447 0.0958 0
M  V30 23 H -2.585 -1.2295 -0.5556 0
M  V30 END ATOM
M  V30 BEGIN BOND
M  V30 1 2 1 2
M  V30 2 1 2 3
M  V30 3 1 2 4
M  V30 4 1 4 5
M  V30 5 1 5 6
M  V30 6 1 5 7
M  V30 7 1 6 8
M  V30 8 1 7 9
M  V30 9 1 8 10
M  V30 10 1 9 10
M  V30 11 1 4 11
M  V30 12 1 4 12
M  V30 13 1 5 13
M  V30 14 1 6 14
M  V30 15 1 6 15
M  V30 16 1 7 16
M  V30 17 1 7 17
M  V30 18 1 8 18
M  V30 19 1 8 19
M  V30 20 1 9 20
M  V30 21 1 9 21
M  V30 22 1 10 22
M  V30 23 1 10 23
M  V30 END BOND
M  V30 END CTAB
M  END
>  <Structure No>
4592

>  <LogS>
-1.6935

>  <MMFF94 Energy>
7.3078

$$$$
Compound 4593
Actelion Java MolfileCreator 2.0

  0  0  0  0  0  0              0 V3000
M  V30 BEGIN CTAB
M  V30 COUNTS 61 60 0 0 0
M  V30 BEGIN ATOM
M  V30 1 O 8.2086 0.4676 -1.4814 0
M  V30 2 C 7.8148 -0.7053 -1.2351 0
M  V30 3 N 6.4107 -1.0002 -1.1927 0
M  V30 4 C 8.8196 -1.7851 -0.9296 0 CFG=1
M  V30 5 C 5.3865 0.0143 -1.4329 0
M  V30 6 O 9.9867 -1.6208 -1.698 0
M  V30 7 C 9.1445 -1.8131 0.5672 0
M  V30 8 C 5.2197 0.909 -0.1973 0
M  V30 9 C 4.3133 2.126 -0.4561 0
M  V30 10 C 2.8601 1.7845 -0.8316 0
M  V30 11 C 2.1077 1.055 0.2912 0
M  V30 12 C 0.6222 0.8984 -0.0556 0
M  V30 13 C -0.1346 0.1805 1.0683 0
M  V30 14 C -1.6183 0.019 0.7164 0
M  V30 15 C -2.3834 -0.6692 1.8568 0
M  V30 16 C -3.842 -0.981 1.4858 0
M  V30 17 C -4.6998 0.2891 1.3408 0
M  V30 18 C -6.2032 -0.0174 1.242 0
M  V30 19 C -6.5902 -0.6423 -0.1096 0
M  V30 20 C -8.083 -1.011 -0.1937 0
M  V30 21 C -9.0528 0.1824 -0.1235 0
M  V30 22 C -8.8665 1.1742 -1.2714 0
M  V30 23 H 6.1036 -1.9859 -1.0298 0
M  V30 24 H 8.3769 -2.7677 -1.2012 0
M  V30 25 H 5.6606 0.6202 -2.3239 0
M  V30 26 H 4.4249 -0.4981 -1.648 0
M  V30 27 H 10.4514 -0.8032 -1.3784 0
M  V30 28 H 8.2238 -2.022 1.1539 0
M  V30 29 H 9.8845 -2.6143 0.7759 0
M  V30 30 H 9.5676 -0.8395 0.8963 0
M  V30 31 H 6.216 1.2939 0.1095 0
M  V30 32 H 4.8331 0.3086 0.6527 0
M  V30 33 H 4.3092 2.7648 0.454 0
M  V30 34 H 4.756 2.7346 -1.2747 0
M  V30 35 H 2.3376 2.7421 -1.0492 0
M  V30 36 H 2.8324 1.1816 -1.7636 0
M  V30 37 H 2.2057 1.631 1.2377 0
M  V30 38 H 2.5472 0.0456 0.44 0
M  V30 39 H 0.1728 1.9035 -0.215 0
M  V30 40 H 0.5249 0.3146 -0.9975 0
M  V30 41 H 0.3158 -0.8231 1.2331 0
M  V30 42 H -0.0415 0.7687 2.0079 0
M  V30 43 H -1.7108 -0.587 -0.2114 0
M  V30 44 H -2.0544 1.0238 0.5295 0
M  V30 45 H -2.3543 -0.034 2.7694 0
M  V30 46 H -1.8794 -1.6303 2.1005 0
M  V30 47 H -3.8602 -1.5685 0.5434 0
M  V30 48 H -4.27 -1.6177 2.2907 0
M  V30 49 H -4.3845 0.8662 0.4451 0
M  V30 50 H -4.5414 0.9347 2.2325 0
M  V30 51 H -6.5086 -0.6881 2.075 0
M  V30 52 H -6.7447 0.9442 1.3653 0
M  V30 53 H -6.3143 0.0413 -0.9403 0
M  V30 54 H -6.0147 -1.5803 -0.2558 0
M  V30 55 H -8.3272 -1.7153 0.6311 0
M  V30 56 H -8.2583 -1.557 -1.1465 0
M  V30 57 H -10.0898 -0.2145 -0.1749 0
M  V30 58 H -8.9581 0.7104 0.8482 0
M  V30 59 H -9.6943 1.9139 -1.2575 0
M  V30 60 H -7.9109 1.7278 -1.1603 0
M  V30 61 H -8.88 0.6463 -2.248 0
M  V30 END ATOM
M  V30 BEGIN BOND
M  V30 1 2 1 2
M  V30 2 1 2 3
M  V30 3 1 2 4
M  V30 4 1 3 5
M  V30 5 1 4 6
M  V30 6 1 4 7
M  V30 7 1 5 8
M  V30 8 1 8 9
M  V30 9 1 9 10
M  V30 10 1 10 11
M  V30 11 1 11 12
M  V30 12 1 12 13
M  V30 13 1 13 14
M  V30 14 1 14 15
M  V30 15 1 15 16
M  V30 16 1 16 17
M  V30 17 1 17 18
M  V30 18 1 18 19
M  V30 19 1 19 20
M  V30 20 1 20 21
M  V30 21 1 21 22
M  V30 22 1 3 23
M  V30 23 1 4 24
M  V30 24 1 5 25
M  V30 25 1 5 26
M  V30 26 1 6 27
M  V30 27 1 7 28
M  V30 28 1 7 29
M  V30 29 1 7 30
M  V30 30 1 8 31
M  V30 31 1 8 32
M  V30 32 1 9 33
M  V30 33 1 9 34
M  V30 34 1 10 35
M  V30 35 1 10 36
M  V30 36 1 11 37
M  V30 37 1 11 38
M  V30 38 1 12 39
M  V30 39 1 12 40
M  V30 40 1 13 41
M  V30 41 1 13 42
M  V30 42 1 14 43
M  V30 43 1 14 44
M  V30 44 1 15 45
M  V30 45 1 15 46
M  V30 46 1 16 47
M  V30 47 1 16 48
M  V30 48 1 17 49
M  V30 49 1 17 50
M  V30 50 1 18 51
M  V30 51 1 18 52
M  V30 52 1 19 53
M  V30 53 1 19 54
M  V30 54 1 20 55
M  V30 55 1 20 56
M  V30 56 1 21 57
M  V30 57 1 21 58
M  V30 58 1 22 59
M  V30 59 1 22 60
M  V30 60 1 22 61
M  V30 END BOND
M  V30 BEGIN COLLECTION
M  V30 MDLV30/STEABS ATOMS=(1 4)
M  V30 END COLLECTION
M  V30 END CTAB
M  END
>  <Structure No>
4593

>  <LogS>
-3.6512

>  <MMFF94 Energy>
4.4763

$$$$
Compound 4594
Actelion Java MolfileCreator 2.0

  0  0  0  0  0  0              0 V3000
M  V30 BEGIN CTAB
M  V30 COUNTS 28 27 0 0 0
M  V30 BEGIN ATOM
M  V30 1 O -1.8595 1.7044 1.7044 0
M  V30 2 C -1.9648 0.5744 1.154 0
M  V30 3 N -0.8177 -0.2783 1.0345 0
M  V30 4 C -3.2926 0.1463 0.5968 0 CFG=2
M  V30 5 C 0.4945 0.1347 1.5335 0
M  V30 6 O -3.5868 -1.1515 1.0422 0
M  V30 7 C -3.2604 0.185 -0.9321 0
M  V30 8 C 1.5905 -0.8791 1.1685 0
M  V30 9 C 1.8245 -1.0447 -0.3473 0
M  V30 10 C 2.2451 0.238 -1.0865 0
M  V30 11 C 3.554 0.8284 -0.5637 0
M  V30 12 H -0.9388 -1.2191 0.596 0
M  V30 13 H -4.0782 0.8522 0.956 0
M  V30 14 H 0.4448 0.2189 2.6404 0
M  V30 15 H 0.7532 1.1386 1.137 0
M  V30 16 H -4.5561 -1.297 0.8827 0
M  V30 17 H -4.2568 -0.0913 -1.3373 0
M  V30 18 H -2.506 -0.5291 -1.3265 0
M  V30 19 H -3.0105 1.2087 -1.2849 0
M  V30 20 H 2.5392 -0.5804 1.6624 0
M  V30 21 H 1.3127 -1.869 1.5917 0
M  V30 22 H 0.9034 -1.4399 -0.8252 0
M  V30 23 H 2.6124 -1.815 -0.4957 0
M  V30 24 H 1.4405 1.0011 -1.0367 0
M  V30 25 H 2.3832 -0.0136 -2.1602 0
M  V30 26 H 3.4156 1.2458 0.4553 0
M  V30 27 H 3.8794 1.6535 -1.2319 0
M  V30 28 H 4.3497 0.0537 -0.5439 0
M  V30 END ATOM
M  V30 BEGIN BOND
M  V30 1 2 1 2
M  V30 2 1 2 3
M  V30 3 1 2 4
M  V30 4 1 3 5
M  V30 5 1 4 6
M  V30 6 1 4 7
M  V30 7 1 5 8
M  V30 8 1 8 9
M  V30 9 1 9 10
M  V30 10 1 10 11
M  V30 11 1 3 12
M  V30 12 1 4 13
M  V30 13 1 5 14
M  V30 14 1 5 15
M  V30 15 1 6 16
M  V30 16 1 7 17
M  V30 17 1 7 18
M  V30 18 1 7 19
M  V30 19 1 8 20
M  V30 20 1 8 21
M  V30 21 1 9 22
M  V30 22 1 9 23
M  V30 23 1 10 24
M  V30 24 1 10 25
M  V30 25 1 11 26
M  V30 26 1 11 27
M  V30 27 1 11 28
M  V30 END BOND
M  V30 BEGIN COLLECTION
M  V30 MDLV30/STEABS ATOMS=(1 4)
M  V30 END COLLECTION
M  V30 END CTAB
M  END
>  <Structure No>
4594

>  <LogS>
-0.3825

>  <MMFF94 Energy>
4.9521

$$$$
Compound 4595
Actelion Java MolfileCreator 2.0

  0  0  0  0  0  0              0 V3000
M  V30 BEGIN CTAB
M  V30 COUNTS 38 39 0 0 0
M  V30 BEGIN ATOM
M  V30 1 O -0.1591 -0.0795 0.3183 0
M  V30 2 C 0.5764 -0.8879 -0.5861 0 CFG=1
M  V30 3 C -1.4102 0.2818 -0.2443 0 CFG=1
M  V30 4 O 1.8864 -1.103 -0.0621 0
M  V30 5 C -0.1142 -2.2493 -0.7775 0 CFG=1
M  V30 6 C -2.3071 -0.9781 -0.4149 0 CFG=1
M  V30 7 C -2.0351 1.4114 0.6124 0 CFG=2
M  V30 8 C 2.8436 -0.0965 0.1407 0
M  V30 9 O -0.0844 -2.9664 0.4313 0
M  V30 10 C -1.5651 -2.039 -1.2615 0 CFG=2
M  V30 11 O -2.7272 -1.5181 0.8151 0
M  V30 12 O -2.1329 1.04 1.9676 0
M  V30 13 C -3.3773 1.9302 0.0508 0
M  V30 14 C 4.0763 -0.4564 0.7008 0
M  V30 15 C 2.6109 1.2523 -0.198 0
M  V30 16 O -2.2593 -3.2601 -1.2483 0
M  V30 17 O -3.8091 3.0495 0.7767 0
M  V30 18 C 5.0631 0.5087 0.9243 0
M  V30 19 C 3.6004 2.2147 0.0271 0
M  V30 20 C 4.8251 1.8437 0.588 0
M  V30 21 H 0.6803 -0.3933 -1.5808 0
M  V30 22 H -1.2544 0.7278 -1.2563 0
M  V30 23 H 0.4471 -2.8118 -1.5609 0
M  V30 24 H -3.218 -0.6895 -0.9816 0
M  V30 25 H -1.3214 2.2638 0.566 0
M  V30 26 H -0.1711 -3.9281 0.2005 0
M  V30 27 H -1.5094 -1.6652 -2.3119 0
M  V30 28 H -1.9315 -1.6248 1.3962 0
M  V30 29 H -3.0063 0.5925 2.1116 0
M  V30 30 H -4.1579 1.1448 0.1283 0
M  V30 31 H -3.2682 2.1923 -1.0265 0
M  V30 32 H 4.2688 -1.4886 0.9649 0
M  V30 33 H 1.6737 1.5676 -0.6354 0
M  V30 34 H -3.0783 -3.1296 -1.7944 0
M  V30 35 H -3.26 3.8175 0.4692 0
M  V30 36 H 6.0121 0.2214 1.3583 0
M  V30 37 H 3.4175 3.2491 -0.2337 0
M  V30 38 H 5.5895 2.5902 0.7614 0
M  V30 END ATOM
M  V30 BEGIN BOND
M  V30 1 1 1 2
M  V30 2 1 1 3
M  V30 3 1 2 4
M  V30 4 1 2 5
M  V30 5 1 3 6
M  V30 6 1 3 7
M  V30 7 1 4 8
M  V30 8 1 5 9
M  V30 9 1 5 10
M  V30 10 1 6 11
M  V30 11 1 7 12
M  V30 12 1 7 13
M  V30 13 2 8 14
M  V30 14 1 8 15
M  V30 15 1 10 16
M  V30 16 1 13 17
M  V30 17 1 14 18
M  V30 18 2 15 19
M  V30 19 2 18 20
M  V30 20 1 6 10
M  V30 21 1 19 20
M  V30 22 1 2 21
M  V30 23 1 3 22
M  V30 24 1 5 23
M  V30 25 1 6 24
M  V30 26 1 7 25
M  V30 27 1 9 26
M  V30 28 1 10 27
M  V30 29 1 11 28
M  V30 30 1 12 29
M  V30 31 1 13 30
M  V30 32 1 13 31
M  V30 33 1 14 32
M  V30 34 1 15 33
M  V30 35 1 16 34
M  V30 36 1 17 35
M  V30 37 1 18 36
M  V30 38 1 19 37
M  V30 39 1 20 38
M  V30 END BOND
M  V30 BEGIN COLLECTION
M  V30 MDLV30/STEABS ATOMS=(6 2 3 5 6 7 10)
M  V30 END COLLECTION
M  V30 END CTAB
M  END
>  <Structure No>
4595

>  <LogS>
-1.5537

>  <MMFF94 Energy>
141.86

$$$$
Compound 4596
Actelion Java MolfileCreator 2.0

  0  0  0  0  0  0              0 V3000
M  V30 BEGIN CTAB
M  V30 COUNTS 44 44 0 0 0
M  V30 BEGIN ATOM
M  V30 1 O -3.2295 -1.0231 1.4956 0
M  V30 2 C -3.9662 -0.123 1.005 0
M  V30 3 O -3.5557 1.2161 1.0357 0
M  V30 4 C -5.2691 -0.4785 0.4024 0
M  V30 5 C -2.2919 1.6409 1.5424 0
M  V30 6 C -6.0981 0.514 -0.1476 0
M  V30 7 C -5.7089 -1.8127 0.3634 0
M  V30 8 C -1.1797 1.3342 0.5351 0
M  V30 9 N -7.2946 0.1797 -0.7012 0
M  V30 10 C -6.9417 -2.1279 -0.2108 0
M  V30 11 C 0.1822 1.8177 1.0547 0
M  V30 12 C -7.7293 -1.1069 -0.7436 0
M  V30 13 C 1.3074 1.643 0.0218 0
M  V30 14 C 1.7412 0.1753 -0.1356 0
M  V30 15 C 2.8525 -0.0031 -1.1824 0
M  V30 16 C 4.2073 0.559 -0.7159 0
M  V30 17 C 5.3573 0.1713 -1.6695 0
M  V30 18 C 6.2268 -0.9843 -1.1462 0
M  V30 19 C 5.4794 -2.3145 -1.0832 0
M  V30 20 H -2.0857 1.1484 2.5183 0
M  V30 21 H -2.3378 2.7375 1.7136 0
M  V30 22 H -5.7981 1.5538 -0.1393 0
M  V30 23 H -5.1026 -2.6099 0.7749 0
M  V30 24 H -1.1482 0.2397 0.3571 0
M  V30 25 H -1.4159 1.8412 -0.4258 0
M  V30 26 H -7.2835 -3.1544 -0.2424 0
M  V30 27 H 0.1067 2.9005 1.2982 0
M  V30 28 H 0.4434 1.2802 1.9927 0
M  V30 29 H -8.6866 -1.3372 -1.1917 0
M  V30 30 H 2.1747 2.2423 0.3706 0
M  V30 31 H 0.9857 2.0541 -0.96 0
M  V30 32 H 0.8721 -0.4304 -0.467 0
M  V30 33 H 2.0794 -0.2289 0.8436 0
M  V30 34 H 2.9525 -1.0891 -1.3883 0
M  V30 35 H 2.5526 0.4854 -2.1354 0
M  V30 36 H 4.4284 0.2223 0.3206 0
M  V30 37 H 4.1387 1.6677 -0.6923 0
M  V30 38 H 6.0225 1.0548 -1.7877 0
M  V30 39 H 4.9747 -0.0706 -2.6857 0
M  V30 40 H 6.6248 -0.7345 -0.1385 0
M  V30 41 H 7.0962 -1.1045 -1.8282 0
M  V30 42 H 6.1932 -3.1271 -0.8321 0
M  V30 43 H 5.0118 -2.5452 -2.064 0
M  V30 44 H 4.6998 -2.2855 -0.2935 0
M  V30 END ATOM
M  V30 BEGIN BOND
M  V30 1 2 1 2
M  V30 2 1 2 3
M  V30 3 1 2 4
M  V30 4 1 3 5
M  V30 5 2 4 6
M  V30 6 1 4 7
M  V30 7 1 5 8
M  V30 8 1 6 9
M  V30 9 2 7 10
M  V30 10 1 8 11
M  V30 11 2 9 12
M  V30 12 1 11 13
M  V30 13 1 13 14
M  V30 14 1 14 15
M  V30 15 1 15 16
M  V30 16 1 16 17
M  V30 17 1 17 18
M  V30 18 1 18 19
M  V30 19 1 10 12
M  V30 20 1 5 20
M  V30 21 1 5 21
M  V30 22 1 6 22
M  V30 23 1 7 23
M  V30 24 1 8 24
M  V30 25 1 8 25
M  V30 26 1 10 26
M  V30 27 1 11 27
M  V30 28 1 11 28
M  V30 29 1 12 29
M  V30 30 1 13 30
M  V30 31 1 13 31
M  V30 32 1 14 32
M  V30 33 1 14 33
M  V30 34 1 15 34
M  V30 35 1 15 35
M  V30 36 1 16 36
M  V30 37 1 16 37
M  V30 38 1 17 38
M  V30 39 1 17 39
M  V30 40 1 18 40
M  V30 41 1 18 41
M  V30 42 1 19 42
M  V30 43 1 19 43
M  V30 44 1 19 44
M  V30 END BOND
M  V30 END CTAB
M  END
>  <Structure No>
4596

>  <LogS>
-3.1901

>  <MMFF94 Energy>
22.76

$$$$
Compound 4597
Actelion Java MolfileCreator 2.0

  0  0  0  0  0  0              0 V3000
M  V30 BEGIN CTAB
M  V30 COUNTS 23 22 0 0 0
M  V30 BEGIN ATOM
M  V30 1 O 0.8668 -3.0761 0.3939 0
M  V30 2 C 0.4431 -2.2899 -0.4948 0
M  V30 3 O -0.5147 -2.7418 -1.395 0 CHG=-1
M  V30 4 C 1.0339 -0.909 -0.6469 0 CFG=2
M  V30 5 N 1.7914 -0.5148 0.5474 0
M  V30 6 C -0.0267 0.1621 -1.0048 0
M  V30 7 C 2.8755 0.4189 0.4964 0
M  V30 8 C -0.8942 0.6743 0.1752 0
M  V30 9 O 3.2728 0.891 -0.6017 0
M  V30 10 C -1.7511 1.8602 -0.2889 0
M  V30 11 C -1.8 -0.4191 0.7594 0
M  V30 12 H 1.7367 -0.984 -1.5058 0
M  V30 13 H 1.4666 -0.8245 1.4915 0
M  V30 14 H -0.6828 -0.2094 -1.8224 0
M  V30 15 H 0.5234 1.0321 -1.427 0
M  V30 16 H 3.3615 0.7252 1.413 0
M  V30 17 H -0.231 1.0486 0.9851 0
M  V30 18 H -2.4492 1.5473 -1.0951 0
M  V30 19 H -2.3421 2.2658 0.5601 0
M  V30 20 H -1.1031 2.6772 -0.6724 0
M  V30 21 H -2.4988 0.0153 1.5059 0
M  V30 22 H -1.1961 -1.1825 1.2899 0
M  V30 23 H -2.3949 -0.9074 -0.0419 0
M  V30 END ATOM
M  V30 BEGIN BOND
M  V30 1 2 1 2
M  V30 2 1 2 3
M  V30 3 1 2 4
M  V30 4 1 4 5
M  V30 5 1 4 6
M  V30 6 1 5 7
M  V30 7 1 6 8
M  V30 8 2 7 9
M  V30 9 1 8 10
M  V30 10 1 8 11
M  V30 11 1 4 12
M  V30 12 1 5 13
M  V30 13 1 6 14
M  V30 14 1 6 15
M  V30 15 1 7 16
M  V30 16 1 8 17
M  V30 17 1 10 18
M  V30 18 1 10 19
M  V30 19 1 10 20
M  V30 20 1 11 21
M  V30 21 1 11 22
M  V30 22 1 11 23
M  V30 END BOND
M  V30 BEGIN COLLECTION
M  V30 MDLV30/STEABS ATOMS=(1 4)
M  V30 END COLLECTION
M  V30 END CTAB
M  END
>  <Structure No>
4597

>  <LogS>
-0.7328

>  <MMFF94 Energy>
35.243

$$$$
Compound 4598
Actelion Java MolfileCreator 2.0

  0  0  0  0  0  0              0 V3000
M  V30 BEGIN CTAB
M  V30 COUNTS 15 14 0 0 0
M  V30 BEGIN ATOM
M  V30 1 S 1.2319 0.7038 -0.1759 0
M  V30 2 O 0.7608 0.036 -1.4376 0
M  V30 3 O 1.8759 2.0138 -0.5308 0
M  V30 4 N -0.0952 1.0097 0.904 0 CHG=-1
M  V30 5 C 2.4422 -0.3238 0.6291 0
M  V30 6 S -1.2611 -0.2774 0.8342 0
M  V30 7 O -0.5876 -1.6092 0.6532 0
M  V30 8 O -2.036 -0.2959 2.1211 0
M  V30 9 C -2.3961 0.0062 -0.5075 0
M  V30 10 H 2.014 -1.3244 0.8388 0
M  V30 11 H 3.3278 -0.4378 -0.0294 0
M  V30 12 H 2.753 0.1492 1.5832 0
M  V30 13 H -3.192 -0.7665 -0.4889 0
M  V30 14 H -2.8567 1.0096 -0.3962 0
M  V30 15 H -1.8615 -0.0459 -1.4769 0
M  V30 END ATOM
M  V30 BEGIN BOND
M  V30 1 2 1 2
M  V30 2 2 1 3
M  V30 3 1 1 4
M  V30 4 1 1 5
M  V30 5 1 4 6
M  V30 6 2 6 7
M  V30 7 2 6 8
M  V30 8 1 6 9
M  V30 9 1 5 10
M  V30 10 1 5 11
M  V30 11 1 5 12
M  V30 12 1 9 13
M  V30 13 1 9 14
M  V30 14 1 9 15
M  V30 END BOND
M  V30 END CTAB
M  END
>  <Structure No>
4598

>  <LogS>
0.0402

>  <MMFF94 Energy>
8.437

$$$$
Compound 4599
Actelion Java MolfileCreator 2.0

  0  0  0  0  0  0              0 V3000
M  V30 BEGIN CTAB
M  V30 COUNTS 24 23 0 0 0
M  V30 BEGIN ATOM
M  V30 1 O 0.3104 1.5531 -1.3977 0
M  V30 2 C -0.0854 0.8994 -0.3943 0
M  V30 3 O 0.4473 -0.3614 -0.1043 0
M  V30 4 C -1.1762 1.4513 0.4685 0
M  V30 5 C 1.5096 -0.9558 -0.8485 0
M  V30 6 C -2.556 1.0365 -0.0516 0
M  V30 7 C 2.8545 -0.3005 -0.5167 0
M  V30 8 O -2.6775 -0.374 -0.0963 0
M  V30 9 C 3.217 -0.464 0.9574 0
M  V30 10 C -3.291 -0.8536 1.0797 0
M  V30 11 H -1.1101 2.5609 0.483 0
M  V30 12 H -1.0385 1.0936 1.5106 0
M  V30 13 H 1.5568 -2.0374 -0.6001 0
M  V30 14 H 1.3051 -0.8709 -1.9379 0
M  V30 15 H -3.3506 1.5318 0.5559 0
M  V30 16 H -2.6769 1.4255 -1.0854 0
M  V30 17 H 3.6468 -0.7729 -1.1363 0
M  V30 18 H 2.8227 0.7805 -0.7698 0
M  V30 19 H 2.4663 0.0424 1.6005 0
M  V30 20 H 4.2104 -0.0062 1.1478 0
M  V30 21 H 3.265 -1.5406 1.2264 0
M  V30 22 H -2.7333 -0.541 1.9897 0
M  V30 23 H -4.3495 -0.5168 1.1383 0
M  V30 24 H -3.2919 -1.9624 1.0512 0
M  V30 END ATOM
M  V30 BEGIN BOND
M  V30 1 2 1 2
M  V30 2 1 2 3
M  V30 3 1 2 4
M  V30 4 1 3 5
M  V30 5 1 4 6
M  V30 6 1 5 7
M  V30 7 1 6 8
M  V30 8 1 7 9
M  V30 9 1 8 10
M  V30 10 1 4 11
M  V30 11 1 4 12
M  V30 12 1 5 13
M  V30 13 1 5 14
M  V30 14 1 6 15
M  V30 15 1 6 16
M  V30 16 1 7 17
M  V30 17 1 7 18
M  V30 18 1 9 19
M  V30 19 1 9 20
M  V30 20 1 9 21
M  V30 21 1 10 22
M  V30 22 1 10 23
M  V30 23 1 10 24
M  V30 END BOND
M  V30 END CTAB
M  END
>  <Structure No>
4599

>  <LogS>
-0.6598

>  <MMFF94 Energy>
-11.684

$$$$
Compound 4600
Actelion Java MolfileCreator 2.0

  0  0  0  0  0  0              0 V3000
M  V30 BEGIN CTAB
M  V30 COUNTS 28 27 0 0 0
M  V30 BEGIN ATOM
M  V30 1 O -2.943 -0.4642 0.3094 0
M  V30 2 C -1.889 0.2729 -0.2894 0
M  V30 3 C -3.2598 -1.597 -0.4701 0
M  V30 4 O -2.0222 1.6361 0.0639 0
M  V30 5 C -0.5725 -0.2216 0.2486 0
M  V30 6 C -3.0459 2.2354 -0.7003 0
M  V30 7 C 0.5907 0.2686 -0.2036 0
M  V30 8 C 1.9072 -0.226 0.3344 0
M  V30 9 O 2.0402 -1.5891 -0.0189 0
M  V30 10 O 2.9612 0.5111 -0.2645 0
M  V30 11 C 3.0639 -2.1883 0.7454 0
M  V30 12 C 3.2779 1.644 0.5152 0
M  V30 13 H -1.8558 0.1607 -1.405 0
M  V30 14 H -3.7038 -1.2929 -1.4435 0
M  V30 15 H -4.0164 -2.2002 0.0722 0
M  V30 16 H -2.3674 -2.2414 -0.6342 0
M  V30 17 H -0.5685 -0.9991 1.0088 0
M  V30 18 H -2.7706 2.2694 -1.7774 0
M  V30 19 H -4.0186 1.7123 -0.5644 0
M  V30 20 H -3.1776 3.2814 -0.3554 0
M  V30 21 H 0.5865 1.0461 -0.9638 0
M  V30 22 H 1.8738 -0.1137 1.4499 0
M  V30 23 H 2.7885 -2.2223 1.8226 0
M  V30 24 H 3.1955 -3.2343 0.4005 0
M  V30 25 H 4.0365 -1.6652 0.6095 0
M  V30 26 H 4.0344 2.2472 -0.027 0
M  V30 27 H 3.7219 1.3398 1.4886 0
M  V30 28 H 2.3854 2.2884 0.6794 0
M  V30 END ATOM
M  V30 BEGIN BOND
M  V30 1 1 1 2
M  V30 2 1 1 3
M  V30 3 1 2 4
M  V30 4 1 2 5
M  V30 5 1 4 6
M  V30 6 2 5 7
M  V30 7 1 7 8
M  V30 8 1 8 9
M  V30 9 1 8 10
M  V30 10 1 9 11
M  V30 11 1 10 12
M  V30 12 1 2 13
M  V30 13 1 3 14
M  V30 14 1 3 15
M  V30 15 1 3 16
M  V30 16 1 5 17
M  V30 17 1 6 18
M  V30 18 1 6 19
M  V30 19 1 6 20
M  V30 20 1 7 21
M  V30 21 1 8 22
M  V30 22 1 11 23
M  V30 23 1 11 24
M  V30 24 1 11 25
M  V30 25 1 12 26
M  V30 26 1 12 27
M  V30 27 1 12 28
M  V30 END BOND
M  V30 END CTAB
M  END
>  <Structure No>
4600

>  <LogS>
0.055

>  <MMFF94 Energy>
-31.058

$$$$
Compound 4601
Actelion Java MolfileCreator 2.0

  0  0  0  0  0  0              0 V3000
M  V30 BEGIN CTAB
M  V30 COUNTS 19 19 0 0 0
M  V30 BEGIN ATOM
M  V30 1 N -0.2316 -0.6952 -0.3861 0 CHG=1 CFG=2
M  V30 2 C 0.5719 0.4851 -0.2238 0
M  V30 3 C -1.6077 -0.238 -0.0877 0
M  V30 4 C 0.2035 -1.7478 0.5468 0
M  V30 5 C -0.0856 1.5267 0.2575 0
M  V30 6 C 2.0239 0.5519 -0.6039 0
M  V30 7 C -1.5034 1.1781 0.4883 0
M  V30 8 H -0.1634 -1.0383 -1.3734 0
M  V30 9 H -2.2056 -0.207 -1.0269 0
M  V30 10 H -2.1438 -0.9062 0.625 0
M  V30 11 H 0.1646 -1.3911 1.6012 0
M  V30 12 H -0.451 -2.6408 0.4465 0
M  V30 13 H 1.2417 -2.0699 0.3158 0
M  V30 14 H 0.3556 2.4989 0.4547 0
M  V30 15 H 2.3509 -0.404 -1.0627 0
M  V30 16 H 2.6388 0.7483 0.2994 0
M  V30 17 H 2.1827 1.3677 -1.3402 0
M  V30 18 H -2.1724 1.8856 -0.0468 0
M  V30 19 H -1.7197 1.1836 1.5783 0
M  V30 END ATOM
M  V30 BEGIN BOND
M  V30 1 1 1 2
M  V30 2 1 1 3
M  V30 3 1 1 4
M  V30 4 2 2 5
M  V30 5 1 2 6
M  V30 6 1 3 7
M  V30 7 1 5 7
M  V30 8 1 1 8
M  V30 9 1 3 9
M  V30 10 1 3 10
M  V30 11 1 4 11
M  V30 12 1 4 12
M  V30 13 1 4 13
M  V30 14 1 5 14
M  V30 15 1 6 15
M  V30 16 1 6 16
M  V30 17 1 6 17
M  V30 18 1 7 18
M  V30 19 1 7 19
M  V30 END BOND
M  V30 BEGIN COLLECTION
M  V30 MDLV30/STEABS ATOMS=(1 1)
M  V30 END COLLECTION
M  V30 END CTAB
M  END
>  <Structure No>
4601

>  <LogS>
0.1265

>  <MMFF94 Energy>
25.217

$$$$
Compound 4602
Actelion Java MolfileCreator 2.0

  0  0  0  0  0  0              0 V3000
M  V30 BEGIN CTAB
M  V30 COUNTS 24 24 0 0 0
M  V30 BEGIN ATOM
M  V30 1 O 4.1404 -0.159 0.477 0
M  V30 2 C 3.3373 -1.1094 0.668 0
M  V30 3 O 3.0956 -1.5571 1.9604 0 CHG=-1
M  V30 4 C 2.6761 -1.7816 -0.4935 0
M  V30 5 O 1.281 -1.9557 -0.2469 0
M  V30 6 C 0.3257 -0.926 -0.2205 0
M  V30 7 C 0.6482 0.4169 -0.4955 0
M  V30 8 C -0.9969 -1.2615 0.0904 0
M  V30 9 C -0.3393 1.4117 -0.4356 0
M  V30 10 C -1.9989 -0.2805 0.1154 0
M  V30 11 C -1.663 1.0566 -0.1385 0
M  V30 12 C 0.0054 2.8366 -0.7552 0
M  V30 13 C -3.4069 -0.6488 0.4797 0
M  V30 14 H 2.8341 -1.2117 -1.4346 0
M  V30 15 H 3.1384 -2.7816 -0.6252 0
M  V30 16 H 1.6601 0.6989 -0.7514 0
M  V30 17 H -1.2436 -2.2935 0.3089 0
M  V30 18 H -2.4313 1.8203 -0.1057 0
M  V30 19 H -0.0984 3.0052 -1.8473 0
M  V30 20 H -0.6687 3.535 -0.215 0
M  V30 21 H 1.0491 3.0647 -0.4508 0
M  V30 22 H -4.1312 0.0294 -0.0194 0
M  V30 23 H -3.6355 -1.6882 0.1612 0
M  V30 24 H -3.536 -0.5705 1.5793 0
M  V30 END ATOM
M  V30 BEGIN BOND
M  V30 1 2 1 2
M  V30 2 1 2 3
M  V30 3 1 2 4
M  V30 4 1 4 5
M  V30 5 1 5 6
M  V30 6 2 6 7
M  V30 7 1 6 8
M  V30 8 1 7 9
M  V30 9 2 8 10
M  V30 10 2 9 11
M  V30 11 1 9 12
M  V30 12 1 10 13
M  V30 13 1 10 11
M  V30 14 1 4 14
M  V30 15 1 4 15
M  V30 16 1 7 16
M  V30 17 1 8 17
M  V30 18 1 11 18
M  V30 19 1 12 19
M  V30 20 1 12 20
M  V30 21 1 12 21
M  V30 22 1 13 22
M  V30 23 1 13 23
M  V30 24 1 13 24
M  V30 END BOND
M  V30 END CTAB
M  END
>  <Structure No>
4602

>  <LogS>
-2.3527

>  <MMFF94 Energy>
73.741

$$$$
Compound 4603
Actelion Java MolfileCreator 2.0

  0  0  0  0  0  0              0 V3000
M  V30 BEGIN CTAB
M  V30 COUNTS 21 23 0 0 0
M  V30 BEGIN ATOM
M  V30 1 Cl -4.1918 2.0943 -0.2511 0
M  V30 2 C -2.9601 0.8644 -0.0363 0
M  V30 3 C -1.6001 1.2296 -0.0395 0
M  V30 4 C -3.3387 -0.4876 0.1389 0
M  V30 5 C -0.6604 0.2165 0.1348 0
M  V30 6 C -2.3635 -1.488 0.3128 0
M  V30 7 C -1.0254 -1.1024 0.3061 0
M  V30 8 C 0.7119 0.2282 0.1813 0
M  V30 9 O 0.0335 -1.8751 0.451 0
M  V30 10 C 1.0867 -1.0846 0.3776 0
M  V30 11 C 1.6442 1.2572 0.0706 0
M  V30 12 C 2.4276 -1.4474 0.4753 0
M  V30 13 C 3.0068 0.9151 0.1661 0
M  V30 14 C 3.3953 -0.4304 0.3675 0
M  V30 15 Cl 4.2292 2.1658 0.0345 0
M  V30 16 H -1.2951 2.2598 -0.1724 0
M  V30 17 H -4.3864 -0.7598 0.1402 0
M  V30 18 H -2.6448 -2.5242 0.4475 0
M  V30 19 H 1.3314 2.2822 -0.0832 0
M  V30 20 H 2.7166 -2.4788 0.6294 0
M  V30 21 H 4.4449 -0.685 0.4399 0
M  V30 END ATOM
M  V30 BEGIN BOND
M  V30 1 1 1 2
M  V30 2 2 2 3
M  V30 3 1 2 4
M  V30 4 1 3 5
M  V30 5 2 4 6
M  V30 6 2 5 7
M  V30 7 1 5 8
M  V30 8 1 7 9
M  V30 9 2 8 10
M  V30 10 1 8 11
M  V30 11 1 10 12
M  V30 12 2 11 13
M  V30 13 2 12 14
M  V30 14 1 13 15
M  V30 15 1 6 7
M  V30 16 1 9 10
M  V30 17 1 13 14
M  V30 18 1 3 16
M  V30 19 1 4 17
M  V30 20 1 6 18
M  V30 21 1 11 19
M  V30 22 1 12 20
M  V30 23 1 14 21
M  V30 END BOND
M  V30 END CTAB
M  END
>  <Structure No>
4603

>  <LogS>
-7.2135

>  <MMFF94 Energy>
21.217

$$$$
Compound 4604
Actelion Java MolfileCreator 2.0

  0  0  0  0  0  0              0 V3000
M  V30 BEGIN CTAB
M  V30 COUNTS 31 30 0 0 0
M  V30 BEGIN ATOM
M  V30 1 O -3.1046 1.8618 -0.2325 0
M  V30 2 C -2.833 0.6827 -0.59 0
M  V30 3 N -1.4673 0.2775 -0.7501 0
M  V30 4 C -3.9426 -0.3177 -0.7867 0 CFG=2
M  V30 5 C -0.3638 1.2168 -0.5428 0
M  V30 6 O -5.0954 0.3005 -1.3035 0
M  V30 7 C -4.2498 -1.0487 0.5235 0
M  V30 8 C 0.9997 0.5316 -0.7024 0
M  V30 9 C 1.3057 -0.4138 0.4714 0
M  V30 10 C 2.5745 -1.2555 0.2458 0
M  V30 11 C 3.875 -0.4427 0.1172 0
M  V30 12 C 4.2093 0.3537 1.3778 0
M  V30 13 H -1.2687 -0.7103 -1.0282 0
M  V30 14 H -3.6084 -1.0737 -1.5293 0
M  V30 15 H -0.4434 2.0343 -1.2916 0
M  V30 16 H -0.4395 1.6679 0.4708 0
M  V30 17 H -5.4661 0.8952 -0.5995 0
M  V30 18 H -3.3498 -1.5975 0.8748 0
M  V30 19 H -5.0687 -1.7813 0.3619 0
M  V30 20 H -4.5623 -0.3292 1.3107 0
M  V30 21 H 1.7757 1.3251 -0.7435 0
M  V30 22 H 1.0249 -0.0256 -1.6644 0
M  V30 23 H 0.4578 -1.1193 0.6056 0
M  V30 24 H 1.3921 0.1675 1.4137 0
M  V30 25 H 2.4437 -1.8633 -0.6758 0
M  V30 26 H 2.6802 -1.97 1.0913 0
M  V30 27 H 3.8258 0.2402 -0.7565 0
M  V30 28 H 4.7075 -1.1538 -0.0741 0
M  V30 29 H 4.1874 -0.3047 2.2719 0
M  V30 30 H 5.2275 0.7861 1.2816 0
M  V30 31 H 3.4928 1.1903 1.5138 0
M  V30 END ATOM
M  V30 BEGIN BOND
M  V30 1 2 1 2
M  V30 2 1 2 3
M  V30 3 1 2 4
M  V30 4 1 3 5
M  V30 5 1 4 6
M  V30 6 1 4 7
M  V30 7 1 5 8
M  V30 8 1 8 9
M  V30 9 1 9 10
M  V30 10 1 10 11
M  V30 11 1 11 12
M  V30 12 1 3 13
M  V30 13 1 4 14
M  V30 14 1 5 15
M  V30 15 1 5 16
M  V30 16 1 6 17
M  V30 17 1 7 18
M  V30 18 1 7 19
M  V30 19 1 7 20
M  V30 20 1 8 21
M  V30 21 1 8 22
M  V30 22 1 9 23
M  V30 23 1 9 24
M  V30 24 1 10 25
M  V30 25 1 10 26
M  V30 26 1 11 27
M  V30 27 1 11 28
M  V30 28 1 12 29
M  V30 29 1 12 30
M  V30 30 1 12 31
M  V30 END BOND
M  V30 BEGIN COLLECTION
M  V30 MDLV30/STEABS ATOMS=(1 4)
M  V30 END COLLECTION
M  V30 END CTAB
M  END
>  <Structure No>
4604

>  <LogS>
-0.9487

>  <MMFF94 Energy>
6.1002

$$$$
Compound 4605
Actelion Java MolfileCreator 2.0

  0  0  0  0  0  0              0 V3000
M  V30 BEGIN CTAB
M  V30 COUNTS 29 28 0 0 0
M  V30 BEGIN ATOM
M  V30 1 O 0.0782 0.9396 -1.6447 0
M  V30 2 C -0.4873 0.48 -0.615 0
M  V30 3 O -0.1519 -0.7842 -0.1154 0
M  V30 4 C -1.5018 1.3144 0.1098 0 CFG=1
M  V30 5 C 0.8857 -1.6015 -0.6559 0
M  V30 6 O -2.5903 0.5005 0.5468 0
M  V30 7 C -0.8535 1.9768 1.3214 0
M  V30 8 C 2.1983 -1.4011 0.1088 0
M  V30 9 C -3.5223 -0.0701 -0.3273 0
M  V30 10 C 2.7889 -4.0E-4 -0.0966 0
M  V30 11 O -3.4663 0.154 -1.5671 0
M  V30 12 C -4.6235 -0.9119 0.2212 0
M  V30 13 C 4.1515 0.1262 0.5785 0
M  V30 14 H -1.8859 2.1144 -0.5625 0
M  V30 15 H 0.5797 -2.6628 -0.5416 0
M  V30 16 H 1.0249 -1.4159 -1.7437 0
M  V30 17 H -0.4675 1.208 2.0253 0
M  V30 18 H -1.6025 2.6019 1.8525 0
M  V30 19 H -0.0135 2.6296 1.0 0
M  V30 20 H 2.9275 -2.1616 -0.2472 0
M  V30 21 H 2.0193 -1.5763 1.1924 0
M  V30 22 H 2.1099 0.7632 0.3389 0
M  V30 23 H 2.9061 0.204 -1.1832 0
M  V30 24 H -4.8483 -1.747 -0.4753 0
M  V30 25 H -4.324 -1.335 1.2029 0
M  V30 26 H -5.5331 -0.2901 0.3544 0
M  V30 27 H 4.8678 -0.6025 0.1428 0
M  V30 28 H 4.5496 1.1511 0.4228 0
M  V30 29 H 4.0592 -0.0571 1.6704 0
M  V30 END ATOM
M  V30 BEGIN BOND
M  V30 1 2 1 2
M  V30 2 1 2 3
M  V30 3 1 2 4
M  V30 4 1 3 5
M  V30 5 1 4 6
M  V30 6 1 4 7
M  V30 7 1 5 8
M  V30 8 1 6 9
M  V30 9 1 8 10
M  V30 10 2 9 11
M  V30 11 1 9 12
M  V30 12 1 10 13
M  V30 13 1 4 14
M  V30 14 1 5 15
M  V30 15 1 5 16
M  V30 16 1 7 17
M  V30 17 1 7 18
M  V30 18 1 7 19
M  V30 19 1 8 20
M  V30 20 1 8 21
M  V30 21 1 10 22
M  V30 22 1 10 23
M  V30 23 1 12 24
M  V30 24 1 12 25
M  V30 25 1 12 26
M  V30 26 1 13 27
M  V30 27 1 13 28
M  V30 28 1 13 29
M  V30 END BOND
M  V30 BEGIN COLLECTION
M  V30 MDLV30/STEABS ATOMS=(1 4)
M  V30 END COLLECTION
M  V30 END CTAB
M  END
>  <Structure No>
4605

>  <LogS>
-0.7536

>  <MMFF94 Energy>
-0.61015

$$$$
Compound 4606
Actelion Java MolfileCreator 2.0

  0  0  0  0  0  0              0 V3000
M  V30 BEGIN CTAB
M  V30 COUNTS 30 31 0 0 0
M  V30 BEGIN ATOM
M  V30 1 O 3.6378 1.4223 0.3159 0
M  V30 2 C 2.5784 0.7494 0.168 0
M  V30 3 N 2.657 -0.6073 -0.1002 0
M  V30 4 N 1.3559 1.3768 0.2775 0
M  V30 5 C 1.5088 -1.3547 -0.2346 0
M  V30 6 C 3.9728 -1.2647 -0.1718 0
M  V30 7 C 0.2351 0.6267 0.0976 0
M  V30 8 C 1.2642 2.8236 0.516 0
M  V30 9 O 1.5588 -2.5992 -0.4358 0
M  V30 10 C 0.2846 -0.703 -0.1428 0
M  V30 11 N -1.04 1.0579 0.141 0
M  V30 12 N -0.9693 -1.1762 -0.2604 0
M  V30 13 C -1.7553 -0.0778 -0.0838 0
M  V30 14 C -1.3811 -2.555 -0.5247 0
M  V30 15 C -3.2613 -0.1095 -0.1312 0
M  V30 16 C -3.8906 1.2624 0.1035 0
M  V30 17 H 3.9428 -2.1639 -0.8233 0
M  V30 18 H 4.2943 -1.565 0.8476 0
M  V30 19 H 4.7355 -0.5865 -0.6105 0
M  V30 20 H 0.2713 3.1062 0.9263 0
M  V30 21 H 1.4285 3.3686 -0.4373 0
M  V30 22 H 2.0258 3.1458 1.2579 0
M  V30 23 H -2.4853 -2.6448 -0.5726 0
M  V30 24 H -1.0119 -3.2169 0.2864 0
M  V30 25 H -0.9609 -2.8906 -1.4957 0
M  V30 26 H -3.5829 -0.4842 -1.1263 0
M  V30 27 H -3.6319 -0.81 0.6471 0
M  V30 28 H -3.5589 1.9783 -0.6784 0
M  V30 29 H -4.9967 1.1759 0.0577 0
M  V30 30 H -3.6074 1.6507 1.1053 0
M  V30 END ATOM
M  V30 BEGIN BOND
M  V30 1 2 1 2
M  V30 2 1 2 3
M  V30 3 1 2 4
M  V30 4 1 3 5
M  V30 5 1 3 6
M  V30 6 1 4 7
M  V30 7 1 4 8
M  V30 8 2 5 9
M  V30 9 1 5 10
M  V30 10 1 7 11
M  V30 11 1 10 12
M  V30 12 2 11 13
M  V30 13 1 12 14
M  V30 14 1 13 15
M  V30 15 1 15 16
M  V30 16 2 7 10
M  V30 17 1 12 13
M  V30 18 1 6 17
M  V30 19 1 6 18
M  V30 20 1 6 19
M  V30 21 1 8 20
M  V30 22 1 8 21
M  V30 23 1 8 22
M  V30 24 1 14 23
M  V30 25 1 14 24
M  V30 26 1 14 25
M  V30 27 1 15 26
M  V30 28 1 15 27
M  V30 29 1 16 28
M  V30 30 1 16 29
M  V30 31 1 16 30
M  V30 END BOND
M  V30 END CTAB
M  END
>  <Structure No>
4606

>  <LogS>
-1.5687

>  <MMFF94 Energy>
-122.95

$$$$
Compound 4607
Actelion Java MolfileCreator 2.0

  0  0  0  0  0  0              0 V3000
M  V30 BEGIN CTAB
M  V30 COUNTS 32 33 0 0 0
M  V30 BEGIN ATOM
M  V30 1 N -3.1212 0.6236 0.5456 0 CHG=1
M  V30 2 C -1.961 0.111 -0.1291 0
M  V30 3 C -4.3549 0.282 0.2798 0
M  V30 4 N -1.7925 -1.1718 -0.2689 0 CHG=1
M  V30 5 N -0.9798 1.0412 -0.6161 0
M  V30 6 N -5.4195 0.8119 1.0754 0
M  V30 7 N -4.6799 -0.5683 -0.8287 0
M  V30 8 C 0.4289 0.7693 -0.7109 0
M  V30 9 C 1.0745 -0.0665 0.218 0
M  V30 10 C 1.1848 1.4028 -1.7075 0
M  V30 11 C 2.4554 -0.298 0.1252 0
M  V30 12 C 2.5604 1.179 -1.8084 0
M  V30 13 C 3.2048 0.328 -0.8998 0
M  V30 14 C 3.1029 -1.1414 1.0421 0
M  V30 15 C 4.5861 0.0962 -0.9915 0
M  V30 16 C 4.4792 -1.3641 0.9398 0
M  V30 17 C 5.2181 -0.7479 -0.0737 0
M  V30 18 H -2.9459 1.3428 1.2834 0
M  V30 19 H -0.9776 -1.5609 -0.7924 0
M  V30 20 H -2.4779 -1.8496 0.133 0
M  V30 21 H -1.3184 1.9867 -0.9055 0
M  V30 22 H -5.2253 1.4441 1.8838 0
M  V30 23 H -6.4118 0.5684 0.8605 0
M  V30 24 H -3.9874 -0.805 -1.5721 0
M  V30 25 H -5.6652 -0.8835 -0.97 0
M  V30 26 H 0.5059 -0.5222 1.0199 0
M  V30 27 H 0.7023 2.0653 -2.4153 0
M  V30 28 H 3.1197 1.6727 -2.5943 0
M  V30 29 H 2.5462 -1.6278 1.8344 0
M  V30 30 H 5.1752 0.5674 -1.7693 0
M  V30 31 H 4.9743 -2.016 1.648 0
M  V30 32 H 6.2835 -0.9241 -0.1476 0
M  V30 END ATOM
M  V30 BEGIN BOND
M  V30 1 1 1 2
M  V30 2 2 1 3
M  V30 3 2 2 4
M  V30 4 1 2 5
M  V30 5 1 3 6
M  V30 6 1 3 7
M  V30 7 1 5 8
M  V30 8 2 8 9
M  V30 9 1 8 10
M  V30 10 1 9 11
M  V30 11 2 10 12
M  V30 12 1 11 13
M  V30 13 2 11 14
M  V30 14 2 13 15
M  V30 15 1 14 16
M  V30 16 1 15 17
M  V30 17 1 12 13
M  V30 18 2 16 17
M  V30 19 1 1 18
M  V30 20 1 4 19
M  V30 21 1 4 20
M  V30 22 1 5 21
M  V30 23 1 6 22
M  V30 24 1 6 23
M  V30 25 1 7 24
M  V30 26 1 7 25
M  V30 27 1 9 26
M  V30 28 1 10 27
M  V30 29 1 12 28
M  V30 30 1 14 29
M  V30 31 1 15 30
M  V30 32 1 16 31
M  V30 33 1 17 32
M  V30 END BOND
M  V30 END CTAB
M  END
>  <Structure No>
4607

>  <LogS>
-2.5497

>  <MMFF94 Energy>
-224.94

$$$$
Compound 4608
Actelion Java MolfileCreator 2.0

  0  0  0  0  0  0              0 V3000
M  V30 BEGIN CTAB
M  V30 COUNTS 16 16 0 0 0
M  V30 BEGIN ATOM
M  V30 1 O -1.9552 -1.5476 -2.0368 0
M  V30 2 C -1.4643 -0.7232 -1.2222 0
M  V30 3 N -1.8246 0.6428 -1.1847 0
M  V30 4 N -0.4978 -1.0728 -0.2417 0
M  V30 5 C -1.049 1.1695 -0.1184 0
M  V30 6 C -0.1731 0.1306 0.5241 0 CFG=2
M  V30 7 O -1.1182 2.3719 0.2494 0
M  V30 8 C 1.3116 0.4889 0.3814 0
M  V30 9 C 2.1779 -0.5357 1.0448 0
M  V30 10 O 2.3617 -0.4992 2.2899 0
M  V30 11 O 2.7502 -1.5549 0.2944 0 CHG=-1
M  V30 12 H -2.5196 1.1419 -1.7828 0
M  V30 13 H -0.1246 -2.0328 -0.0696 0
M  V30 14 H -0.4595 -0.0027 1.5902 0
M  V30 15 H 1.503 1.4782 0.8516 0
M  V30 16 H 1.5851 0.5634 -0.6939 0
M  V30 END ATOM
M  V30 BEGIN BOND
M  V30 1 2 1 2
M  V30 2 1 2 3
M  V30 3 1 2 4
M  V30 4 1 3 5
M  V30 5 1 4 6
M  V30 6 2 5 7
M  V30 7 1 6 8
M  V30 8 1 8 9
M  V30 9 2 9 10
M  V30 10 1 9 11
M  V30 11 1 5 6
M  V30 12 1 3 12
M  V30 13 1 4 13
M  V30 14 1 6 14
M  V30 15 1 8 15
M  V30 16 1 8 16
M  V30 END BOND
M  V30 BEGIN COLLECTION
M  V30 MDLV30/STEABS ATOMS=(1 6)
M  V30 END COLLECTION
M  V30 END CTAB
M  END
>  <Structure No>
4608

>  <LogS>
-1.1517

>  <MMFF94 Energy>
-93.325

$$$$
Compound 4609
Actelion Java MolfileCreator 2.0

  0  0  0  0  0  0              0 V3000
M  V30 BEGIN CTAB
M  V30 COUNTS 18 18 0 0 0
M  V30 BEGIN ATOM
M  V30 1 O 3.5947 1.1971 -0.0797 0
M  V30 2 N 3.0621 0.0785 0.0751 0 CHG=1
M  V30 3 O 3.8706 -1.0237 0.2336 0 CHG=-1
M  V30 4 C 1.629 -0.0573 0.0881 0
M  V30 5 C 0.7992 1.067 -0.0734 0
M  V30 6 C 1.0369 -1.3191 0.2629 0
M  V30 7 C -0.5969 0.934 -0.0607 0
M  V30 8 C -0.3533 -1.4555 0.2761 0
M  V30 9 O -1.4071 2.0583 -0.2222 0
M  V30 10 C -1.1798 -0.333 0.1148 0
M  V30 11 C -2.6748 -0.4838 0.1295 0
M  V30 12 H 1.2333 2.0494 -0.2097 0
M  V30 13 H 1.6487 -2.2027 0.3899 0
M  V30 14 H -0.7837 -2.4399 0.4127 0
M  V30 15 H -1.0133 2.9831 -0.3505 0
M  V30 16 H -3.0955 -0.1306 -0.8353 0
M  V30 17 H -2.9781 -1.5421 0.277 0
M  V30 18 H -3.1032 0.121 0.9564 0
M  V30 END ATOM
M  V30 BEGIN BOND
M  V30 1 2 1 2
M  V30 2 1 2 3
M  V30 3 1 2 4
M  V30 4 2 4 5
M  V30 5 1 4 6
M  V30 6 1 5 7
M  V30 7 2 6 8
M  V30 8 1 7 9
M  V30 9 2 7 10
M  V30 10 1 10 11
M  V30 11 1 8 10
M  V30 12 1 5 12
M  V30 13 1 6 13
M  V30 14 1 8 14
M  V30 15 1 9 15
M  V30 16 1 11 16
M  V30 17 1 11 17
M  V30 18 1 11 18
M  V30 END BOND
M  V30 END CTAB
M  END
>  <Structure No>
4609

>  <LogS>
-2.1851

>  <MMFF94 Energy>
35.836

$$$$
Compound 4610
Actelion Java MolfileCreator 2.0

  0  0  0  0  0  0              0 V3000
M  V30 BEGIN CTAB
M  V30 COUNTS 24 24 0 0 0
M  V30 BEGIN ATOM
M  V30 1 S 2.8378 1.4587 -0.567 0
M  V30 2 C 3.4389 0.057 0.376 0
M  V30 3 C 1.8906 0.4464 -1.7536 0
M  V30 4 O 2.7918 -0.3456 1.3781 0
M  V30 5 N 4.6492 -0.5941 -9.0E-4 0
M  V30 6 C 0.6707 -0.1241 -1.0993 0
M  V30 7 O 0.5781 -1.3717 -0.9437 0
M  V30 8 N -0.3911 0.7468 -0.6801 0
M  V30 9 C -1.4645 0.3477 0.189 0
M  V30 10 C -2.7268 0.9445 0.0427 0
M  V30 11 C -1.2632 -0.5833 1.2254 0
M  V30 12 C -3.7802 0.5903 0.8914 0
M  V30 13 C -2.3192 -0.9341 2.0728 0
M  V30 14 C -3.5776 -0.3514 1.9032 0
M  V30 15 H 1.5779 1.0925 -2.6001 0
M  V30 16 H 2.5339 -0.3625 -2.163 0
M  V30 17 H 5.0034 -1.4095 0.5464 0
M  V30 18 H 5.1889 -0.2639 -0.831 0
M  V30 19 H -0.4169 1.7108 -1.0836 0
M  V30 20 H -2.8956 1.6776 -0.7361 0
M  V30 21 H -0.2887 -1.0194 1.3986 0
M  V30 22 H -4.7529 1.0479 0.7659 0
M  V30 23 H -2.1591 -1.6514 2.8674 0
M  V30 24 H -4.393 -0.623 2.561 0
M  V30 END ATOM
M  V30 BEGIN BOND
M  V30 1 1 1 2
M  V30 2 1 1 3
M  V30 3 2 2 4
M  V30 4 1 2 5
M  V30 5 1 3 6
M  V30 6 2 6 7
M  V30 7 1 6 8
M  V30 8 1 8 9
M  V30 9 2 9 10
M  V30 10 1 9 11
M  V30 11 1 10 12
M  V30 12 2 11 13
M  V30 13 2 12 14
M  V30 14 1 13 14
M  V30 15 1 3 15
M  V30 16 1 3 16
M  V30 17 1 5 17
M  V30 18 1 5 18
M  V30 19 1 8 19
M  V30 20 1 10 20
M  V30 21 1 11 21
M  V30 22 1 12 22
M  V30 23 1 13 23
M  V30 24 1 14 24
M  V30 END BOND
M  V30 END CTAB
M  END
>  <Structure No>
4610

>  <LogS>
-1.3228

>  <MMFF94 Energy>
-59.285

$$$$
Compound 4611
Actelion Java MolfileCreator 2.0

  0  0  0  0  0  0              0 V3000
M  V30 BEGIN CTAB
M  V30 COUNTS 40 41 0 0 0
M  V30 BEGIN ATOM
M  V30 1 O 2.6431 -1.2007 1.9217 0
M  V30 2 C 1.9013 -0.7374 1.0122 0
M  V30 3 O 2.4486 0.076 0.0145 0
M  V30 4 C 0.4562 -1.0939 0.9795 0
M  V30 5 C 3.8061 0.5008 0.0189 0
M  V30 6 C -0.4619 -0.2907 0.3698 0
M  V30 7 C 0.0545 -2.4169 1.6106 0
M  V30 8 C 4.046 1.4324 -1.1579 0
M  V30 9 C -1.8586 -0.7311 0.1561 0
M  V30 10 C -0.144 1.0949 -0.055 0
M  V30 11 C 0.2769 -3.5589 0.6674 0
M  V30 12 C -2.1536 -1.7212 -0.7941 0
M  V30 13 C -2.9038 -0.1245 0.8702 0
M  V30 14 C 0.3447 2.0332 0.8713 0
M  V30 15 C -0.3601 1.4904 -1.3855 0
M  V30 16 O 1.4237 -3.7824 0.1973 0
M  V30 17 O -0.7765 -4.4008 0.3342 0 CHG=-1
M  V30 18 C -3.4771 -2.1194 -1.006 0
M  V30 19 C -4.2263 -0.5249 0.6554 0
M  V30 20 C 0.6409 3.337 0.463 0
M  V30 21 C -0.0627 2.7957 -1.789 0
M  V30 22 C -4.5125 -1.5237 -0.2798 0
M  V30 23 C 0.44 3.7172 -0.8664 0
M  V30 24 H 4.4762 -0.382 -0.0639 0
M  V30 25 H 4.027 1.0424 0.9643 0
M  V30 26 H 0.6479 -2.5987 2.5314 0
M  V30 27 H -1.0054 -2.4037 1.9423 0
M  V30 28 H 3.3822 2.3199 -1.0796 0
M  V30 29 H 5.1035 1.7707 -1.1598 0
M  V30 30 H 3.8336 0.9025 -2.1105 0
M  V30 31 H -1.3608 -2.176 -1.3747 0
M  V30 32 H -2.6928 0.6515 1.5959 0
M  V30 33 H 0.4982 1.7529 1.9062 0
M  V30 34 H -0.7451 0.7849 -2.1115 0
M  V30 35 H -3.7003 -2.8861 -1.7364 0
M  V30 36 H -5.0293 -0.06 1.2126 0
M  V30 37 H 1.0251 4.0531 1.1779 0
M  V30 38 H -0.2216 3.0927 -2.8176 0
M  V30 39 H -5.5366 -1.8319 -0.4458 0
M  V30 40 H 0.6706 4.7268 -1.1811 0
M  V30 END ATOM
M  V30 BEGIN BOND
M  V30 1 2 1 2
M  V30 2 1 2 3
M  V30 3 1 2 4
M  V30 4 1 3 5
M  V30 5 2 4 6
M  V30 6 1 4 7
M  V30 7 1 5 8
M  V30 8 1 6 9
M  V30 9 1 6 10
M  V30 10 1 7 11
M  V30 11 2 9 12
M  V30 12 1 9 13
M  V30 13 2 10 14
M  V30 14 1 10 15
M  V30 15 2 11 16
M  V30 16 1 11 17
M  V30 17 1 12 18
M  V30 18 2 13 19
M  V30 19 1 14 20
M  V30 20 2 15 21
M  V30 21 2 18 22
M  V30 22 2 20 23
M  V30 23 1 19 22
M  V30 24 1 21 23
M  V30 25 1 5 24
M  V30 26 1 5 25
M  V30 27 1 7 26
M  V30 28 1 7 27
M  V30 29 1 8 28
M  V30 30 1 8 29
M  V30 31 1 8 30
M  V30 32 1 12 31
M  V30 33 1 13 32
M  V30 34 1 14 33
M  V30 35 1 15 34
M  V30 36 1 18 35
M  V30 37 1 19 36
M  V30 38 1 20 37
M  V30 39 1 21 38
M  V30 40 1 22 39
M  V30 41 1 23 40
M  V30 END BOND
M  V30 END CTAB
M  END
>  <Structure No>
4611

>  <LogS>
-2.1908

>  <MMFF94 Energy>
52.892

$$$$
Compound 4612
Actelion Java MolfileCreator 2.0

  0  0  0  0  0  0              0 V3000
M  V30 BEGIN CTAB
M  V30 COUNTS 20 21 0 0 0
M  V30 BEGIN ATOM
M  V30 1 Cl 1.459 3.9756 1.9457 0
M  V30 2 C 0.6875 2.6015 1.1847 0
M  V30 3 N 1.3653 1.4178 1.0717 0
M  V30 4 N -0.5858 2.7163 0.7097 0
M  V30 5 C 0.8059 0.3156 0.4868 0
M  V30 6 C -1.1538 1.6361 0.1245 0
M  V30 7 N 1.5506 -0.9078 0.433 0
M  V30 8 C -0.5023 0.4484 -0.0094 0
M  V30 9 N -2.3788 1.5919 -0.4249 0
M  V30 10 N 2.9253 -0.9078 0.7196 0
M  V30 11 N -1.3122 -0.3964 -0.6804 0
M  V30 12 C -2.4409 0.3239 -0.9054 0
M  V30 13 C -1.0787 -1.7657 -1.1282 0
M  V30 14 H 1.0669 -1.8212 0.3066 0
M  V30 15 H 3.2506 -1.9016 0.7275 0
M  V30 16 H 3.4067 -0.4424 -0.0832 0
M  V30 17 H -3.3042 -0.0636 -1.4313 0
M  V30 18 H -0.1222 -1.8244 -1.6884 0
M  V30 19 H -1.8921 -2.0932 -1.8104 0
M  V30 20 H -1.066 -2.4503 -0.2547 0
M  V30 END ATOM
M  V30 BEGIN BOND
M  V30 1 1 1 2
M  V30 2 2 2 3
M  V30 3 1 2 4
M  V30 4 1 3 5
M  V30 5 2 4 6
M  V30 6 1 5 7
M  V30 7 2 5 8
M  V30 8 1 6 9
M  V30 9 1 7 10
M  V30 10 1 8 11
M  V30 11 2 9 12
M  V30 12 1 11 13
M  V30 13 1 6 8
M  V30 14 1 11 12
M  V30 15 1 7 14
M  V30 16 1 10 15
M  V30 17 1 10 16
M  V30 18 1 12 17
M  V30 19 1 13 18
M  V30 20 1 13 19
M  V30 21 1 13 20
M  V30 END BOND
M  V30 END CTAB
M  END
>  <Structure No>
4612

>  <LogS>
-1.1427

>  <MMFF94 Energy>
-34.745

$$$$
Compound 4613
Actelion Java MolfileCreator 2.0

  0  0  0  0  0  0              0 V3000
M  V30 BEGIN CTAB
M  V30 COUNTS 35 35 0 0 0
M  V30 BEGIN ATOM
M  V30 1 O 0.3976 0.7954 -1.3526 0
M  V30 2 C 0.2024 -0.1356 -0.5225 0
M  V30 3 C -1.1125 -0.4728 -0.1439 0
M  V30 4 C 1.301 -0.8058 0.05 0
M  V30 5 C -1.2809 -1.4976 0.8149 0
M  V30 6 C -2.2718 0.2429 -0.7399 0
M  V30 7 C 1.0339 -1.8169 1.0023 0
M  V30 8 C 2.6861 -0.4408 -0.3497 0
M  V30 9 O -0.2195 -2.1019 1.336 0
M  V30 10 C -2.6323 -1.9569 1.2785 0
M  V30 11 O -2.2211 0.6304 -1.94 0
M  V30 12 O -3.4133 0.4983 0.0298 0
M  V30 13 C 2.1212 -2.6125 1.6634 0
M  V30 14 O 3.6277 -0.4961 0.4878 0
M  V30 15 O 2.9402 -0.0209 -1.6618 0
M  V30 16 C -4.5435 1.2224 -0.4521 0
M  V30 17 C 4.219 0.4197 -2.114 0
M  V30 18 C -4.2486 2.7175 -0.4881 0
M  V30 19 C 4.5082 1.8305 -1.6145 0
M  V30 20 H -3.0781 -1.1978 1.9544 0
M  V30 21 H -2.5389 -2.9101 1.8407 0
M  V30 22 H -3.3008 -2.1369 0.4103 0
M  V30 23 H 2.8272 -3.0093 0.9038 0
M  V30 24 H 2.6631 -1.9775 2.3949 0
M  V30 25 H 1.685 -3.4758 2.2094 0
M  V30 26 H -4.8342 0.8606 -1.4623 0
M  V30 27 H -5.3965 1.044 0.236 0
M  V30 28 H 4.2172 0.4283 -3.2243 0
M  V30 29 H 5.0131 -0.2809 -1.7757 0
M  V30 30 H -3.4272 2.9338 -1.2024 0
M  V30 31 H -3.9544 3.07 0.5231 0
M  V30 32 H -5.1564 3.2693 -0.8115 0
M  V30 33 H 5.4802 2.1792 -2.0224 0
M  V30 34 H 3.7072 2.5227 -1.9507 0
M  V30 35 H 4.5608 1.8462 -0.5058 0
M  V30 END ATOM
M  V30 BEGIN BOND
M  V30 1 2 1 2
M  V30 2 1 2 3
M  V30 3 1 2 4
M  V30 4 2 3 5
M  V30 5 1 3 6
M  V30 6 2 4 7
M  V30 7 1 4 8
M  V30 8 1 5 9
M  V30 9 1 5 10
M  V30 10 2 6 11
M  V30 11 1 6 12
M  V30 12 1 7 13
M  V30 13 2 8 14
M  V30 14 1 8 15
M  V30 15 1 12 16
M  V30 16 1 15 17
M  V30 17 1 16 18
M  V30 18 1 17 19
M  V30 19 1 7 9
M  V30 20 1 10 20
M  V30 21 1 10 21
M  V30 22 1 10 22
M  V30 23 1 13 23
M  V30 24 1 13 24
M  V30 25 1 13 25
M  V30 26 1 16 26
M  V30 27 1 16 27
M  V30 28 1 17 28
M  V30 29 1 17 29
M  V30 30 1 18 30
M  V30 31 1 18 31
M  V30 32 1 18 32
M  V30 33 1 19 33
M  V30 34 1 19 34
M  V30 35 1 19 35
M  V30 END BOND
M  V30 END CTAB
M  END
>  <Structure No>
4613

>  <LogS>
-1.5255

>  <MMFF94 Energy>
-19.753

$$$$
Compound 4614
Actelion Java MolfileCreator 2.0

  0  0  0  0  0  0              0 V3000
M  V30 BEGIN CTAB
M  V30 COUNTS 31 30 0 0 0
M  V30 BEGIN ATOM
M  V30 1 O -0.5632 2.4157 1.9322 0
M  V30 2 C 0.2371 1.9225 1.0939 0
M  V30 3 O 0.9881 2.7765 0.2956 0 CHG=-1
M  V30 4 C 0.3631 0.4176 0.9734 0 CFG=1
M  V30 5 N -0.4786 -0.202 -0.0943 0
M  V30 6 C 1.8348 -0.0409 0.8452 0
M  V30 7 C -1.5624 -1.077 0.4015 0
M  V30 8 C -0.8548 0.6361 -1.2602 0
M  V30 9 C 2.4217 0.0742 -0.5706 0
M  V30 10 C -0.993 -2.4064 0.9087 0
M  V30 11 C -2.1433 1.4569 -1.0501 0
M  V30 12 C 3.8456 -0.3846 -0.5808 0
M  V30 13 C -2.0774 -3.3094 1.3108 0
M  V30 14 C -2.3299 2.4013 -2.1571 0
M  V30 15 O 4.7765 0.4328 -0.3557 0
M  V30 16 O 4.1425 -1.7255 -0.7896 0 CHG=-1
M  V30 17 N -2.9326 -4.0219 1.628 0
M  V30 18 N -2.477 3.1466 -3.0302 0
M  V30 19 H 0.0416 0.0333 1.9684 0
M  V30 20 H 2.464 0.5378 1.5581 0
M  V30 21 H 1.8927 -1.108 1.1557 0
M  V30 22 H -2.2705 -1.3182 -0.4234 0
M  V30 23 H -2.1359 -0.5643 1.2066 0
M  V30 24 H -1.0035 -0.032 -2.1367 0
M  V30 25 H -0.0141 1.3059 -1.5377 0
M  V30 26 H 1.8436 -0.56 -1.2758 0
M  V30 27 H 2.3807 1.1216 -0.9318 0
M  V30 28 H -0.3325 -2.2444 1.7849 0
M  V30 29 H -0.4023 -2.8918 0.103 0
M  V30 30 H -2.1112 2.0298 -0.1048 0
M  V30 31 H -3.0292 0.7901 -1.0181 0
M  V30 END ATOM
M  V30 BEGIN BOND
M  V30 1 2 1 2
M  V30 2 1 2 3
M  V30 3 1 2 4
M  V30 4 1 4 5
M  V30 5 1 4 6
M  V30 6 1 5 7
M  V30 7 1 5 8
M  V30 8 1 6 9
M  V30 9 1 7 10
M  V30 10 1 8 11
M  V30 11 1 9 12
M  V30 12 1 10 13
M  V30 13 1 11 14
M  V30 14 2 12 15
M  V30 15 1 12 16
M  V30 16 3 13 17
M  V30 17 3 14 18
M  V30 18 1 4 19
M  V30 19 1 6 20
M  V30 20 1 6 21
M  V30 21 1 7 22
M  V30 22 1 7 23
M  V30 23 1 8 24
M  V30 24 1 8 25
M  V30 25 1 9 26
M  V30 26 1 9 27
M  V30 27 1 10 28
M  V30 28 1 10 29
M  V30 29 1 11 30
M  V30 30 1 11 31
M  V30 END BOND
M  V30 BEGIN COLLECTION
M  V30 MDLV30/STEABS ATOMS=(1 4)
M  V30 END COLLECTION
M  V30 END CTAB
M  END
>  <Structure No>
4614

>  <LogS>
-0.2275

>  <MMFF94 Energy>
131.39

$$$$
Compound 4615
Actelion Java MolfileCreator 2.0

  0  0  0  0  0  0              0 V3000
M  V30 BEGIN CTAB
M  V30 COUNTS 33 32 0 0 0
M  V30 BEGIN ATOM
M  V30 1 S 1.8635 -3.6485 -0.4049 0
M  V30 2 C 0.4269 -2.5296 -0.5712 0
M  V30 3 C 3.103 -2.4578 -1.0136 0
M  V30 4 C 0.2441 -1.7022 0.7137 0
M  V30 5 C -0.9313 -0.675 0.7114 0 CFG=1
M  V30 6 N -0.5406 0.6949 0.2704 0
M  V30 7 C -2.1723 -1.1665 0.0043 0
M  V30 8 C 0.068 0.7515 -1.0799 0
M  V30 9 C 0.26 1.4147 1.2961 0
M  V30 10 O -2.7768 -0.439 -0.8276 0
M  V30 11 O -2.7097 -2.4042 0.3371 0 CHG=-1
M  V30 12 C -0.0413 2.153 -1.695 0
M  V30 13 C -0.5186 2.6209 1.8267 0
M  V30 14 C -1.4438 2.5709 -1.8166 0
M  V30 15 C -1.7386 2.2004 2.5271 0
M  V30 16 N -2.5493 2.9 -1.9108 0
M  V30 17 N -2.7005 1.8686 3.0783 0
M  V30 18 H -0.4643 -3.1685 -0.7359 0
M  V30 19 H 0.5526 -1.8946 -1.4663 0
M  V30 20 H 2.8798 -2.1783 -2.0642 0
M  V30 21 H 3.1161 -1.5484 -0.3791 0
M  V30 22 H 4.1053 -2.9315 -0.9769 0
M  V30 23 H 1.193 -1.1792 0.9512 0
M  V30 24 H 0.0701 -2.4207 1.5453 0
M  V30 25 H -1.2631 -0.5976 1.7718 0
M  V30 26 H -0.4542 0.0594 -1.7731 0
M  V30 27 H 1.138 0.4487 -1.0421 0
M  V30 28 H 1.2285 1.7784 0.8864 0
M  V30 29 H 0.5334 0.7631 2.1569 0
M  V30 30 H 0.4114 2.1398 -2.7089 0
M  V30 31 H 0.5125 2.8978 -1.0879 0
M  V30 32 H -0.7955 3.2981 0.9926 0
M  V30 33 H 0.1203 3.1871 2.537 0
M  V30 END ATOM
M  V30 BEGIN BOND
M  V30 1 1 1 2
M  V30 2 1 1 3
M  V30 3 1 2 4
M  V30 4 1 4 5
M  V30 5 1 5 6
M  V30 6 1 5 7
M  V30 7 1 6 8
M  V30 8 1 6 9
M  V30 9 2 7 10
M  V30 10 1 7 11
M  V30 11 1 8 12
M  V30 12 1 9 13
M  V30 13 1 12 14
M  V30 14 1 13 15
M  V30 15 3 14 16
M  V30 16 3 15 17
M  V30 17 1 2 18
M  V30 18 1 2 19
M  V30 19 1 3 20
M  V30 20 1 3 21
M  V30 21 1 3 22
M  V30 22 1 4 23
M  V30 23 1 4 24
M  V30 24 1 5 25
M  V30 25 1 8 26
M  V30 26 1 8 27
M  V30 27 1 9 28
M  V30 28 1 9 29
M  V30 29 1 12 30
M  V30 30 1 12 31
M  V30 31 1 13 32
M  V30 32 1 13 33
M  V30 END BOND
M  V30 BEGIN COLLECTION
M  V30 MDLV30/STEABS ATOMS=(1 5)
M  V30 END COLLECTION
M  V30 END CTAB
M  END
>  <Structure No>
4615

>  <LogS>
-1.3279

>  <MMFF94 Energy>
90.94

$$$$
Compound 4616
Actelion Java MolfileCreator 2.0

  0  0  0  0  0  0              0 V3000
M  V30 BEGIN CTAB
M  V30 COUNTS 36 35 0 0 0
M  V30 BEGIN ATOM
M  V30 1 O -3.742 -0.1557 1.8696 0
M  V30 2 C -3.4501 -0.3473 0.6571 0
M  V30 3 O -2.1724 -0.7829 0.2899 0
M  V30 4 C -4.4917 -0.1482 -0.4045 0 CFG=2
M  V30 5 C -1.1001 -0.9437 1.2174 0
M  V30 6 O -5.2032 1.038 -0.1688 0
M  V30 7 C -5.4617 -1.3263 -0.4175 0
M  V30 8 C -0.5446 0.4128 1.6751 0
M  V30 9 C -0.178 1.3596 0.5161 0
M  V30 10 C 0.8755 0.8096 -0.4614 0
M  V30 11 C 2.2308 0.5421 0.2092 0
M  V30 12 C 3.2915 0.1595 -0.8294 0
M  V30 13 C 4.6407 -0.1239 -0.1593 0
M  V30 14 C 5.6992 -0.504 -1.1904 0
M  V30 15 H -3.9953 -0.0968 -1.4011 0
M  V30 16 H -0.2938 -1.534 0.7352 0
M  V30 17 H -1.4452 -1.5254 2.0997 0
M  V30 18 H -4.5978 1.787 -0.4117 0
M  V30 19 H -5.9903 -1.4074 0.5567 0
M  V30 20 H -6.2156 -1.1825 -1.2203 0
M  V30 21 H -4.9141 -2.273 -0.6141 0
M  V30 22 H 0.3389 0.2462 2.3263 0
M  V30 23 H -1.3083 0.9171 2.3048 0
M  V30 24 H 0.1939 2.3152 0.9456 0
M  V30 25 H -1.0986 1.6045 -0.0567 0
M  V30 26 H 1.0156 1.5661 -1.2645 0
M  V30 27 H 0.502 -0.1157 -0.9489 0
M  V30 28 H 2.1275 -0.2904 0.9375 0
M  V30 29 H 2.5612 1.4541 0.7535 0
M  V30 30 H 3.4111 0.9917 -1.5579 0
M  V30 31 H 2.9563 -0.7472 -1.38 0
M  V30 32 H 4.983 0.7794 0.3911 0
M  V30 33 H 4.5309 -0.9583 0.5671 0
M  V30 34 H 5.3925 -1.4202 -1.7383 0
M  V30 35 H 5.8472 0.3248 -1.915 0
M  V30 36 H 6.6633 -0.7032 -0.677 0
M  V30 END ATOM
M  V30 BEGIN BOND
M  V30 1 2 1 2
M  V30 2 1 2 3
M  V30 3 1 2 4
M  V30 4 1 3 5
M  V30 5 1 4 6
M  V30 6 1 4 7
M  V30 7 1 5 8
M  V30 8 1 8 9
M  V30 9 1 9 10
M  V30 10 1 10 11
M  V30 11 1 11 12
M  V30 12 1 12 13
M  V30 13 1 13 14
M  V30 14 1 4 15
M  V30 15 1 5 16
M  V30 16 1 5 17
M  V30 17 1 6 18
M  V30 18 1 7 19
M  V30 19 1 7 20
M  V30 20 1 7 21
M  V30 21 1 8 22
M  V30 22 1 8 23
M  V30 23 1 9 24
M  V30 24 1 9 25
M  V30 25 1 10 26
M  V30 26 1 10 27
M  V30 27 1 11 28
M  V30 28 1 11 29
M  V30 29 1 12 30
M  V30 30 1 12 31
M  V30 31 1 13 32
M  V30 32 1 13 33
M  V30 33 1 14 34
M  V30 34 1 14 35
M  V30 35 1 14 36
M  V30 END BOND
M  V30 BEGIN COLLECTION
M  V30 MDLV30/STEABS ATOMS=(1 4)
M  V30 END COLLECTION
M  V30 END CTAB
M  END
>  <Structure No>
4616

>  <LogS>
-1.2726

>  <MMFF94 Energy>
23.852

$$$$
Compound 4617
Actelion Java MolfileCreator 2.0

  0  0  0  0  0  0              0 V3000
M  V30 BEGIN CTAB
M  V30 COUNTS 18 19 0 0 0
M  V30 BEGIN ATOM
M  V30 1 O -3.4632 -1.1265 0.2413 0
M  V30 2 C -2.3614 -0.5264 0.1302 0
M  V30 3 N -1.1575 -1.2726 -0.0708 0
M  V30 4 C -2.3208 0.9757 0.1256 0
M  V30 5 C 0.1073 -0.603 -0.0635 0
M  V30 6 O -1.0279 1.4711 0.4878 0
M  V30 7 C 0.156 0.7682 0.2349 0
M  V30 8 C 1.2949 -1.3076 -0.3047 0
M  V30 9 C 1.3893 1.4251 0.3045 0
M  V30 10 C 2.5248 -0.6438 -0.2476 0
M  V30 11 C 2.5721 0.7202 0.0589 0
M  V30 12 H -1.206 -2.3094 -0.1929 0
M  V30 13 H -2.5683 1.3319 -0.8962 0
M  V30 14 H -3.075 1.3804 0.833 0
M  V30 15 H 1.2674 -2.3661 -0.5301 0
M  V30 16 H 1.4299 2.4802 0.5435 0
M  V30 17 H 3.4417 -1.1876 -0.4343 0
M  V30 18 H 3.5253 1.2305 0.108 0
M  V30 END ATOM
M  V30 BEGIN BOND
M  V30 1 2 1 2
M  V30 2 1 2 3
M  V30 3 1 2 4
M  V30 4 1 3 5
M  V30 5 1 4 6
M  V30 6 2 5 7
M  V30 7 1 5 8
M  V30 8 1 7 9
M  V30 9 2 8 10
M  V30 10 2 9 11
M  V30 11 1 6 7
M  V30 12 1 10 11
M  V30 13 1 3 12
M  V30 14 1 4 13
M  V30 15 1 4 14
M  V30 16 1 8 15
M  V30 17 1 9 16
M  V30 18 1 10 17
M  V30 19 1 11 18
M  V30 END BOND
M  V30 END CTAB
M  END
>  <Structure No>
4617

>  <LogS>
-2.5716

>  <MMFF94 Energy>
36.843

$$$$
Compound 4618
Actelion Java MolfileCreator 2.0

  0  0  0  0  0  0              0 V3000
M  V30 BEGIN CTAB
M  V30 COUNTS 19 18 0 0 0
M  V30 BEGIN ATOM
M  V30 1 O 0.6408 -2.3243 1.362 0
M  V30 2 C -0.3442 -2.0658 0.6208 0
M  V30 3 O -1.0661 -3.1249 0.08 0 CHG=-1
M  V30 4 C -0.7231 -0.6556 0.3309 0
M  V30 5 C -1.7727 -0.4198 -0.4923 0
M  V30 6 C 0.1044 0.4528 0.9581 0
M  V30 7 C -2.3051 0.8951 -0.9199 0
M  V30 8 C 1.1514 1.0234 -0.0132 0
M  V30 9 O -3.322 0.9226 -1.6613 0
M  V30 10 O -1.7256 2.0998 -0.5456 0 CHG=-1
M  V30 11 C 2.2877 0.0404 -0.2895 0
M  V30 12 H -2.3093 -1.2688 -0.8986 0
M  V30 13 H 0.6216 0.0872 1.8711 0
M  V30 14 H -0.5535 1.2612 1.3349 0
M  V30 15 H 0.6785 1.3074 -0.9768 0
M  V30 16 H 1.5846 1.9438 0.4345 0
M  V30 17 H 3.0494 0.5273 -0.9341 0
M  V30 18 H 1.9051 -0.8572 -0.8188 0
M  V30 19 H 2.7735 -0.2686 0.6602 0
M  V30 END ATOM
M  V30 BEGIN BOND
M  V30 1 2 1 2
M  V30 2 1 2 3
M  V30 3 1 2 4
M  V30 4 2 4 5
M  V30 5 1 4 6
M  V30 6 1 5 7
M  V30 7 1 6 8
M  V30 8 2 7 9
M  V30 9 1 7 10
M  V30 10 1 8 11
M  V30 11 1 5 12
M  V30 12 1 6 13
M  V30 13 1 6 14
M  V30 14 1 8 15
M  V30 15 1 8 16
M  V30 16 1 11 17
M  V30 17 1 11 18
M  V30 18 1 11 19
M  V30 END BOND
M  V30 END CTAB
M  END
>  <Structure No>
4618

>  <LogS>
-1.1538

>  <MMFF94 Energy>
58.335

$$$$
Compound 4619
Actelion Java MolfileCreator 2.0

  0  0  0  0  0  0              0 V3000
M  V30 BEGIN CTAB
M  V30 COUNTS 34 34 0 0 0
M  V30 BEGIN ATOM
M  V30 1 O 3.3277 -0.7915 -1.2666 0
M  V30 2 C 2.7151 -0.0823 -0.4206 0
M  V30 3 O 3.3337 1.0511 0.1232 0
M  V30 4 N 1.3788 -0.4377 -0.0185 0
M  V30 5 C 4.6717 1.4403 -0.1806 0
M  V30 6 C 0.8078 -1.7169 -0.4676 0
M  V30 7 C 0.6334 0.4139 0.918 0
M  V30 8 C 5.6698 0.5525 0.5534 0
M  V30 9 C -0.5175 -2.0295 0.2358 0
M  V30 10 C -0.8445 0.4813 0.5172 0
M  V30 11 N -1.3938 -0.8496 0.2212 0
M  V30 12 C -2.8123 -0.9853 0.0163 0
M  V30 13 O -3.3317 -2.1287 -0.1112 0
M  V30 14 O -3.6176 0.1579 -0.0382 0
M  V30 15 C -5.0264 0.0987 -0.2356 0
M  V30 16 C -5.5986 1.5072 -0.244 0
M  V30 17 H 4.8179 2.49 0.1504 0
M  V30 18 H 4.8488 1.397 -1.2772 0
M  V30 19 H 1.5227 -2.5423 -0.258 0
M  V30 20 H 0.6355 -1.6704 -1.5649 0
M  V30 21 H 0.7247 -0.0063 1.9429 0
M  V30 22 H 1.0373 1.4489 0.9323 0
M  V30 23 H 6.7029 0.9051 0.35 0
M  V30 24 H 5.5785 -0.4992 0.2108 0
M  V30 25 H 5.4831 0.5969 1.6473 0
M  V30 26 H -0.9917 -2.892 -0.2801 0
M  V30 27 H -0.3214 -2.3234 1.2897 0
M  V30 28 H -0.9483 1.1238 -0.384 0
M  V30 29 H -1.4161 0.9476 1.3494 0
M  V30 30 H -5.2493 -0.3939 -1.2068 0
M  V30 31 H -5.4967 -0.4836 0.5863 0
M  V30 32 H -6.6976 1.4649 -0.3976 0
M  V30 33 H -5.3884 2.0079 0.7249 0
M  V30 34 H -5.1415 2.0974 -1.0664 0
M  V30 END ATOM
M  V30 BEGIN BOND
M  V30 1 2 1 2
M  V30 2 1 2 3
M  V30 3 1 2 4
M  V30 4 1 3 5
M  V30 5 1 4 6
M  V30 6 1 4 7
M  V30 7 1 5 8
M  V30 8 1 6 9
M  V30 9 1 7 10
M  V30 10 1 9 11
M  V30 11 1 11 12
M  V30 12 2 12 13
M  V30 13 1 12 14
M  V30 14 1 14 15
M  V30 15 1 15 16
M  V30 16 1 10 11
M  V30 17 1 5 17
M  V30 18 1 5 18
M  V30 19 1 6 19
M  V30 20 1 6 20
M  V30 21 1 7 21
M  V30 22 1 7 22
M  V30 23 1 8 23
M  V30 24 1 8 24
M  V30 25 1 8 25
M  V30 26 1 9 26
M  V30 27 1 9 27
M  V30 28 1 10 28
M  V30 29 1 10 29
M  V30 30 1 15 30
M  V30 31 1 15 31
M  V30 32 1 16 32
M  V30 33 1 16 33
M  V30 34 1 16 34
M  V30 END BOND
M  V30 END CTAB
M  END
>  <Structure No>
4619

>  <LogS>
-0.7288

>  <MMFF94 Energy>
-71.863

$$$$
Compound 4620
Actelion Java MolfileCreator 2.0

  0  0  0  0  0  0              0 V3000
M  V30 BEGIN CTAB
M  V30 COUNTS 37 37 0 0 0
M  V30 BEGIN ATOM
M  V30 1 O -0.1566 0.7049 1.5671 0
M  V30 2 C -0.0617 0.1442 0.2883 0
M  V30 3 C 1.1105 0.2879 -0.5066 0
M  V30 4 C -1.1821 -0.5559 -0.2219 0
M  V30 5 C 1.073 -0.1481 -1.846 0
M  V30 6 C 2.3816 0.9428 0.0349 0 CFG=1
M  V30 7 C -1.1567 -1.018 -1.5493 0
M  V30 8 C -2.4349 -0.7597 0.6255 0 CFG=1
M  V30 9 C -0.0459 -0.7989 -2.3556 0
M  V30 10 C 3.6802 0.186 -0.3356 0
M  V30 11 C 2.4544 2.3994 -0.4346 0
M  V30 12 C -3.6425 0.0202 0.0628 0
M  V30 13 C -2.7671 -2.2528 0.7587 0
M  V30 14 C 3.6797 -1.2569 0.1721 0
M  V30 15 C -3.4132 1.5321 0.0785 0
M  V30 16 H 0.4737 1.4054 1.9308 0
M  V30 17 H 1.9129 0.009 -2.5076 0
M  V30 18 H 2.3713 0.9508 1.1425 0
M  V30 19 H -2.0104 -1.5299 -1.9737 0
M  V30 20 H -2.2648 -0.3991 1.6628 0
M  V30 21 H -0.0506 -1.1388 -3.3833 0
M  V30 22 H 3.859 0.1942 -1.4308 0
M  V30 23 H 4.5442 0.7087 0.131 0
M  V30 24 H 3.3369 2.9045 0.0129 0
M  V30 25 H 1.5428 2.9492 -0.1158 0
M  V30 26 H 2.5357 2.4508 -1.5416 0
M  V30 27 H -3.8683 -0.3038 -0.976 0
M  V30 28 H -4.5395 -0.1972 0.6834 0
M  V30 29 H -3.5959 -2.3944 1.4852 0
M  V30 30 H -1.8812 -2.809 1.1336 0
M  V30 31 H -3.0796 -2.6862 -0.2144 0
M  V30 32 H 2.8873 -1.8501 -0.3302 0
M  V30 33 H 3.5144 -1.2802 1.2703 0
M  V30 34 H 4.6609 -1.7276 -0.0485 0
M  V30 35 H -2.5778 1.8079 -0.5989 0
M  V30 36 H -4.3317 2.0499 -0.2698 0
M  V30 37 H -3.1804 1.8773 1.1083 0
M  V30 END ATOM
M  V30 BEGIN BOND
M  V30 1 1 1 2
M  V30 2 2 2 3
M  V30 3 1 2 4
M  V30 4 1 3 5
M  V30 5 1 3 6
M  V30 6 2 4 7
M  V30 7 1 4 8
M  V30 8 2 5 9
M  V30 9 1 6 10
M  V30 10 1 6 11
M  V30 11 1 8 12
M  V30 12 1 8 13
M  V30 13 1 10 14
M  V30 14 1 12 15
M  V30 15 1 7 9
M  V30 16 1 1 16
M  V30 17 1 5 17
M  V30 18 1 6 18
M  V30 19 1 7 19
M  V30 20 1 8 20
M  V30 21 1 9 21
M  V30 22 1 10 22
M  V30 23 1 10 23
M  V30 24 1 11 24
M  V30 25 1 11 25
M  V30 26 1 11 26
M  V30 27 1 12 27
M  V30 28 1 12 28
M  V30 29 1 13 29
M  V30 30 1 13 30
M  V30 31 1 13 31
M  V30 32 1 14 32
M  V30 33 1 14 33
M  V30 34 1 14 34
M  V30 35 1 15 35
M  V30 36 1 15 36
M  V30 37 1 15 37
M  V30 END BOND
M  V30 BEGIN COLLECTION
M  V30 MDLV30/STEABS ATOMS=(2 6 8)
M  V30 END COLLECTION
M  V30 END CTAB
M  END
>  <Structure No>
4620

>  <LogS>
-5.0593

>  <MMFF94 Energy>
27.051

$$$$
Compound 4621
Actelion Java MolfileCreator 2.0

  0  0  0  0  0  0              0 V3000
M  V30 BEGIN CTAB
M  V30 COUNTS 28 31 0 0 0
M  V30 BEGIN ATOM
M  V30 1 O -4.9089 -0.245 0.7351 0
M  V30 2 N -3.9039 -0.6757 0.1329 0 CHG=1
M  V30 3 O -4.033 -1.7933 -0.659 0 CHG=-1
M  V30 4 C -2.7179 0.1306 0.0483 0
M  V30 5 C -1.4217 -0.4375 0.1406 0
M  V30 6 C -2.8516 1.5135 -0.1587 0
M  V30 7 C -0.2859 0.3963 -0.0242 0
M  V30 8 C -1.224 -1.8037 0.4266 0
M  V30 9 C -1.731 2.3291 -0.3138 0
M  V30 10 C 1.0145 -0.1511 0.0531 0
M  V30 11 C -0.4455 1.7808 -0.2581 0
M  V30 12 C 0.0635 -2.3419 0.5017 0
M  V30 13 C 1.1865 -1.5284 0.3105 0
M  V30 14 C 2.1449 0.6805 -0.1208 0
M  V30 15 C 0.684 2.5963 -0.4265 0
M  V30 16 C 2.4812 -2.0642 0.3837 0
M  V30 17 C 1.9685 2.05 -0.3619 0
M  V30 18 C 3.4313 0.1259 -0.0458 0
M  V30 19 C 3.5951 -1.2393 0.204 0
M  V30 20 H -3.836 1.9596 -0.2281 0
M  V30 21 H -2.0564 -2.4662 0.616 0
M  V30 22 H -1.8712 3.3897 -0.4866 0
M  V30 23 H 0.1805 -3.3972 0.7182 0
M  V30 24 H 0.5735 3.6589 -0.6079 0
M  V30 25 H 2.6316 -3.119 0.5811 0
M  V30 26 H 2.8248 2.7003 -0.496 0
M  V30 27 H 4.3088 0.7477 -0.1781 0
M  V30 28 H 4.5907 -1.6599 0.2616 0
M  V30 END ATOM
M  V30 BEGIN BOND
M  V30 1 2 1 2
M  V30 2 1 2 3
M  V30 3 1 2 4
M  V30 4 1 4 5
M  V30 5 2 4 6
M  V30 6 1 5 7
M  V30 7 2 5 8
M  V30 8 1 6 9
M  V30 9 2 7 10
M  V30 10 1 7 11
M  V30 11 1 8 12
M  V30 12 1 10 13
M  V30 13 1 10 14
M  V30 14 1 11 15
M  V30 15 1 13 16
M  V30 16 1 14 17
M  V30 17 2 14 18
M  V30 18 2 16 19
M  V30 19 2 9 11
M  V30 20 2 12 13
M  V30 21 2 15 17
M  V30 22 1 18 19
M  V30 23 1 6 20
M  V30 24 1 8 21
M  V30 25 1 9 22
M  V30 26 1 12 23
M  V30 27 1 15 24
M  V30 28 1 16 25
M  V30 29 1 17 26
M  V30 30 1 18 27
M  V30 31 1 19 28
M  V30 END BOND
M  V30 END CTAB
M  END
>  <Structure No>
4621

>  <LogS>
-7.3213

>  <MMFF94 Energy>
90.672

$$$$
Compound 4622
Actelion Java MolfileCreator 2.0

  0  0  0  0  0  0              0 V3000
M  V30 BEGIN CTAB
M  V30 COUNTS 26 26 0 0 0
M  V30 BEGIN ATOM
M  V30 1 O 5.2495 -0.0793 1.509 0
M  V30 2 N 4.296 -0.8139 1.8394 0 CHG=1
M  V30 3 O 4.5496 -2.0278 2.4331 0 CHG=-1
M  V30 4 C 2.9471 -0.404 1.6051 0
M  V30 5 O 1.9011 -1.1263 1.9294 0
M  V30 6 C 2.5558 0.785 1.0232 0
M  V30 7 C 0.821 -0.467 1.5767 0
M  V30 8 C 1.1776 0.7486 1.0099 0
M  V30 9 C -0.541 -0.9797 1.8243 0
M  V30 10 N -1.5939 -0.6325 1.1412 0
M  V30 11 N -1.5687 0.1675 -0.0164 0
M  V30 12 C -2.4305 1.3232 -0.0525 0
M  V30 13 C -0.9222 -0.3592 -1.2271 0
M  V30 14 O -3.1212 1.6108 0.9619 0
M  V30 15 N -2.5141 2.1698 -1.2036 0
M  V30 16 C -1.9408 -1.0563 -2.1236 0
M  V30 17 H 3.1906 1.5854 0.667 0
M  V30 18 H 0.5242 1.5345 0.6575 0
M  V30 19 H -0.6692 -1.6771 2.641 0
M  V30 20 H -0.1428 -1.1009 -0.9515 0
M  V30 21 H -0.403 0.4508 -1.7792 0
M  V30 22 H -3.1517 2.9967 -1.1908 0
M  V30 23 H -1.9548 2.0043 -2.0667 0
M  V30 24 H -1.4286 -1.4696 -3.0176 0
M  V30 25 H -2.7212 -0.3428 -2.4598 0
M  V30 26 H -2.4248 -1.8895 -1.5713 0
M  V30 END ATOM
M  V30 BEGIN BOND
M  V30 1 2 1 2
M  V30 2 1 2 3
M  V30 3 1 2 4
M  V30 4 1 4 5
M  V30 5 2 4 6
M  V30 6 1 5 7
M  V30 7 1 6 8
M  V30 8 1 7 9
M  V30 9 2 9 10
M  V30 10 1 10 11
M  V30 11 1 11 12
M  V30 12 1 11 13
M  V30 13 2 12 14
M  V30 14 1 12 15
M  V30 15 1 13 16
M  V30 16 2 7 8
M  V30 17 1 6 17
M  V30 18 1 8 18
M  V30 19 1 9 19
M  V30 20 1 13 20
M  V30 21 1 13 21
M  V30 22 1 15 22
M  V30 23 1 15 23
M  V30 24 1 16 24
M  V30 25 1 16 25
M  V30 26 1 16 26
M  V30 END BOND
M  V30 END CTAB
M  END
>  <Structure No>
4622

>  <LogS>
-2.9395

>  <MMFF94 Energy>
42.749

$$$$
Compound 4623
Actelion Java MolfileCreator 2.0

  0  0  0  0  0  0              0 V3000
M  V30 BEGIN CTAB
M  V30 COUNTS 29 29 0 0 0
M  V30 BEGIN ATOM
M  V30 1 O -4.917 1.8218 0.9502 0
M  V30 2 C -4.6951 0.6153 0.6669 0
M  V30 3 O -5.0653 -0.3807 1.5617 0 CHG=-1
M  V30 4 C -4.006 0.2566 -0.6138 0
M  V30 5 C -2.4949 0.5146 -0.5415 0
M  V30 6 C -1.7828 -0.4689 0.4031 0
M  V30 7 C -0.281 -0.1733 0.5405 0
M  V30 8 C 0.5135 -0.5422 -0.7199 0
M  V30 9 C 1.9887 -0.3538 -0.4862 0
M  V30 10 C 2.5876 0.8973 -0.711 0
M  V30 11 C 2.7687 -1.4106 0.0127 0
M  V30 12 C 3.9515 1.0799 -0.4625 0
M  V30 13 C 4.1323 -1.2236 0.2598 0
M  V30 14 C 4.7237 0.0199 0.0205 0
M  V30 15 H -4.1987 -0.8103 -0.8592 0
M  V30 16 H -4.4377 0.8703 -1.4338 0
M  V30 17 H -2.3097 1.5614 -0.2135 0
M  V30 18 H -2.0848 0.4023 -1.567 0
M  V30 19 H -1.9312 -1.5121 0.0475 0
M  V30 20 H -2.2355 -0.3918 1.4151 0
M  V30 21 H 0.1085 -0.7694 1.3952 0
M  V30 22 H -0.1288 0.9014 0.784 0
M  V30 23 H 0.3096 -1.5996 -0.9981 0
M  V30 24 H 0.1953 0.0926 -1.5738 0
M  V30 25 H 1.9982 1.7292 -1.0764 0
M  V30 26 H 2.3207 -2.3764 0.2113 0
M  V30 27 H 4.4091 2.0444 -0.6411 0
M  V30 28 H 4.7299 -2.0418 0.6404 0
M  V30 29 H 5.7789 0.1634 0.2136 0
M  V30 END ATOM
M  V30 BEGIN BOND
M  V30 1 2 1 2
M  V30 2 1 2 3
M  V30 3 1 2 4
M  V30 4 1 4 5
M  V30 5 1 5 6
M  V30 6 1 6 7
M  V30 7 1 7 8
M  V30 8 1 8 9
M  V30 9 2 9 10
M  V30 10 1 9 11
M  V30 11 1 10 12
M  V30 12 2 11 13
M  V30 13 2 12 14
M  V30 14 1 13 14
M  V30 15 1 4 15
M  V30 16 1 4 16
M  V30 17 1 5 17
M  V30 18 1 5 18
M  V30 19 1 6 19
M  V30 20 1 6 20
M  V30 21 1 7 21
M  V30 22 1 7 22
M  V30 23 1 8 23
M  V30 24 1 8 24
M  V30 25 1 10 25
M  V30 26 1 11 26
M  V30 27 1 12 27
M  V30 28 1 13 28
M  V30 29 1 14 29
M  V30 END BOND
M  V30 END CTAB
M  END
>  <Structure No>
4623

>  <LogS>
-2.6026

>  <MMFF94 Energy>
23.028

$$$$
Compound 4624
Actelion Java MolfileCreator 2.0

  0  0  0  0  0  0              0 V3000
M  V30 BEGIN CTAB
M  V30 COUNTS 27 26 0 0 0
M  V30 BEGIN ATOM
M  V30 1 O -1.7755 0.926 1.4666 0
M  V30 2 C -1.1317 0.0761 0.5438 0 CFG=2
M  V30 3 C 0.248 0.7223 0.2233 0
M  V30 4 C -2.0345 -0.0885 -0.7174 0
M  V30 5 C -0.9244 -1.3016 1.2092 0
M  V30 6 C 1.1604 -0.065 -0.7522 0
M  V30 7 C -2.3034 1.2207 -1.4631 0
M  V30 8 C 2.3376 -0.7641 -0.0501 0
M  V30 9 C 3.4566 0.2096 0.3204 0
M  V30 10 H -2.6558 0.5283 1.699 0
M  V30 11 H 0.7777 0.898 1.1846 0
M  V30 12 H 0.0833 1.7398 -0.191 0
M  V30 13 H -1.606 -0.8231 -1.4295 0
M  V30 14 H -3.0167 -0.5062 -0.404 0
M  V30 15 H -0.4413 -2.0177 0.5121 0
M  V30 16 H -0.2909 -1.2014 2.1165 0
M  V30 17 H -1.8996 -1.7358 1.5177 0
M  V30 18 H 1.5584 0.6308 -1.5233 0
M  V30 19 H 0.5895 -0.8328 -1.3085 0
M  V30 20 H -1.3859 1.5735 -1.9781 0
M  V30 21 H -3.0826 1.0507 -2.2359 0
M  V30 22 H -2.6665 2.0049 -0.7659 0
M  V30 23 H 2.7593 -1.5278 -0.7391 0
M  V30 24 H 1.9877 -1.2938 0.8613 0
M  V30 25 H 3.0973 0.9749 1.0389 0
M  V30 26 H 4.2907 -0.3496 0.7938 0
M  V30 27 H 3.8442 0.7163 -0.5889 0
M  V30 END ATOM
M  V30 BEGIN BOND
M  V30 1 1 1 2
M  V30 2 1 2 3
M  V30 3 1 2 4
M  V30 4 1 2 5
M  V30 5 1 3 6
M  V30 6 1 4 7
M  V30 7 1 6 8
M  V30 8 1 8 9
M  V30 9 1 1 10
M  V30 10 1 3 11
M  V30 11 1 3 12
M  V30 12 1 4 13
M  V30 13 1 4 14
M  V30 14 1 5 15
M  V30 15 1 5 16
M  V30 16 1 5 17
M  V30 17 1 6 18
M  V30 18 1 6 19
M  V30 19 1 7 20
M  V30 20 1 7 21
M  V30 21 1 7 22
M  V30 22 1 8 23
M  V30 23 1 8 24
M  V30 24 1 9 25
M  V30 25 1 9 26
M  V30 26 1 9 27
M  V30 END BOND
M  V30 BEGIN COLLECTION
M  V30 MDLV30/STEABS ATOMS=(1 2)
M  V30 END COLLECTION
M  V30 END CTAB
M  END
>  <Structure No>
4624

>  <LogS>
-1.7356

>  <MMFF94 Energy>
9.7465

$$$$
Compound 4625
Actelion Java MolfileCreator 2.0

  0  0  0  0  0  0              0 V3000
M  V30 BEGIN CTAB
M  V30 COUNTS 24 24 0 0 0
M  V30 BEGIN ATOM
M  V30 1 O 3.4272 -0.4776 -0.7165 0
M  V30 2 C 2.8339 0.5556 -0.3104 0
M  V30 3 O 3.5777 1.7012 -0.0549 0 CHG=-1
M  V30 4 C 1.3666 0.5788 -0.1097 0
M  V30 5 C 0.5278 -0.4514 -0.2404 0
M  V30 6 C 0.6662 1.8178 0.3219 0
M  V30 7 C -0.8928 -0.0649 0.0731 0
M  V30 8 C 0.9448 -1.8556 -0.5917 0
M  V30 9 C -0.8195 1.4698 0.2606 0
M  V30 10 C -1.84 -0.4266 -1.0875 0
M  V30 11 C -1.3542 -0.7486 1.3745 0
M  V30 12 H 0.9641 2.0707 1.3627 0
M  V30 13 H 0.9065 2.6636 -0.3583 0
M  V30 14 H 0.0786 -2.5471 -0.5789 0
M  V30 15 H 1.3863 -1.8746 -1.6098 0
M  V30 16 H 1.6839 -2.2274 0.1486 0
M  V30 17 H -1.2764 2.0075 -0.6005 0
M  V30 18 H -1.3391 1.815 1.182 0
M  V30 19 H -1.9331 -1.5269 -1.2023 0
M  V30 20 H -2.8545 -0.0153 -0.896 0
M  V30 21 H -1.464 -0.0047 -2.0449 0
M  V30 22 H -1.3738 -1.8528 1.2571 0
M  V30 23 H -0.668 -0.4973 2.2125 0
M  V30 24 H -2.3779 -0.4114 1.6455 0
M  V30 END ATOM
M  V30 BEGIN BOND
M  V30 1 2 1 2
M  V30 2 1 2 3
M  V30 3 1 2 4
M  V30 4 2 4 5
M  V30 5 1 4 6
M  V30 6 1 5 7
M  V30 7 1 5 8
M  V30 8 1 6 9
M  V30 9 1 7 10
M  V30 10 1 7 11
M  V30 11 1 7 9
M  V30 12 1 6 12
M  V30 13 1 6 13
M  V30 14 1 8 14
M  V30 15 1 8 15
M  V30 16 1 8 16
M  V30 17 1 9 17
M  V30 18 1 9 18
M  V30 19 1 10 19
M  V30 20 1 10 20
M  V30 21 1 10 21
M  V30 22 1 11 22
M  V30 23 1 11 23
M  V30 24 1 11 24
M  V30 END BOND
M  V30 END CTAB
M  END
>  <Structure No>
4625

>  <LogS>
-2.8871

>  <MMFF94 Energy>
22.805

$$$$
Compound 4626
Actelion Java MolfileCreator 2.0

  0  0  0  0  0  0              0 V3000
M  V30 BEGIN CTAB
M  V30 COUNTS 79 83 0 0 0
M  V30 BEGIN ATOM
M  V30 1 F -3.8158 0.1621 -0.5676 0
M  V30 2 C -2.775 -0.6975 -0.2411 0 CFG=2
M  V30 3 C -3.2068 -2.1684 -0.6834 0 CFG=2
M  V30 4 C -2.5033 -0.5208 1.2982 0 CFG=2
M  V30 5 C -1.5348 -0.2409 -1.0581 0 CFG=1
M  V30 6 C -1.969 -3.037 -0.9636 0
M  V30 7 C -4.0858 -2.1151 -1.9411 0
M  V30 8 C -4.0668 -2.8732 0.3946 0
M  V30 9 O -3.7039 -0.1881 1.9511 0
M  V30 10 C -1.4014 0.5223 1.6518 0
M  V30 11 C -1.2433 1.2814 -0.8052 0 CFG=1
M  V30 12 C -0.3059 -1.1914 -0.8707 0
M  V30 13 C -2.033 -4.0855 -1.8013 0
M  V30 14 C -0.6413 -2.6171 -0.4084 0
M  V30 15 C -4.1497 -3.1419 -2.7947 0
M  V30 16 C -1.2962 1.7511 0.6886 0 CFG=2
M  V30 17 C 0.0694 1.781 -1.4209 0
M  V30 18 C -3.1972 -4.2485 -2.6765 0
M  V30 19 C 0.0164 2.6424 0.9058 0 CFG=1
M  V30 20 C -2.569 2.6202 0.9261 0
M  V30 21 C 0.6737 2.7961 -0.4667 0 CFG=2
M  V30 22 O -3.326 -5.2802 -3.389 0
M  V30 23 O -0.3233 3.9567 1.2864 0
M  V30 24 C 0.9597 2.1149 2.002 0
M  V30 25 O 0.3964 4.093 -0.8976 0
M  V30 26 C 0.1583 4.8191 0.279 0
M  V30 27 O 0.5652 2.1361 3.1577 0
M  V30 28 C 2.3773 1.6523 1.7666 0
M  V30 29 C -0.8917 5.8957 -0.0104 0
M  V30 30 C 1.4561 5.4942 0.7534 0
M  V30 31 O 2.4117 0.5849 0.8252 0
M  V30 32 C 3.5987 0.1565 0.2254 0
M  V30 33 O 4.6864 0.7475 0.4644 0
M  V30 34 C 3.5838 -1.0346 -0.6871 0
M  V30 35 C 3.9652 -2.37 0.0151 0
M  V30 36 C 3.0673 -2.6253 1.2444 0
M  V30 37 C 5.4441 -2.351 0.4561 0
M  V30 38 C 3.7661 -3.5219 -0.9907 0
M  V30 39 H -2.1409 -1.4772 1.7221 0
M  V30 40 H -1.8196 -0.3213 -2.1332 0
M  V30 41 H -4.8177 -1.3282 -2.0619 0
M  V30 42 H -4.4947 -3.8211 0.0033 0
M  V30 43 H -4.9123 -2.2263 0.706 0
M  V30 44 H -3.4708 -3.1516 1.2868 0
M  V30 45 H -3.5951 -0.419 2.9103 0
M  V30 46 H -0.4345 -0.0142 1.689 0
M  V30 47 H -1.5702 0.8774 2.6907 0
M  V30 48 H -2.0381 1.8259 -1.3662 0
M  V30 49 H 0.2198 -1.2683 -1.8486 0
M  V30 50 H 0.4248 -0.7694 -0.1565 0
M  V30 51 H -1.176 -4.7271 -1.9562 0
M  V30 52 H 0.1756 -3.2978 -0.7326 0
M  V30 53 H -0.6614 -2.6779 0.6943 0
M  V30 54 H -4.8816 -3.1424 -3.5927 0
M  V30 55 H 0.8109 0.9773 -1.5791 0
M  V30 56 H -0.1129 2.2351 -2.4204 0
M  V30 57 H -2.6049 3.4735 0.2215 0
M  V30 58 H -2.584 3.016 1.9659 0
M  V30 59 H -3.5071 2.0578 0.7763 0
M  V30 60 H 1.7758 2.6864 -0.473 0
M  V30 61 H 2.9868 2.5101 1.4104 0
M  V30 62 H 2.8273 1.2987 2.7205 0
M  V30 63 H -1.1904 6.4087 0.9295 0
M  V30 64 H -0.4887 6.651 -0.7201 0
M  V30 65 H -1.7953 5.4525 -0.4745 0
M  V30 66 H 1.2706 6.083 1.677 0
M  V30 67 H 1.8576 6.1688 -0.0331 0
M  V30 68 H 2.2291 4.7354 0.9812 0
M  V30 69 H 2.571 -1.1216 -1.1361 0
M  V30 70 H 4.2808 -0.8403 -1.5327 0
M  V30 71 H 3.2966 -3.6196 1.6895 0
M  V30 72 H 3.2335 -1.856 2.0291 0
M  V30 73 H 1.9954 -2.6086 0.9593 0
M  V30 74 H 5.7292 -3.3264 0.9031 0
M  V30 75 H 6.1107 -2.1586 -0.4109 0
M  V30 76 H 5.6223 -1.5648 1.2214 0
M  V30 77 H 4.3528 -3.3367 -1.9197 0
M  V30 78 H 2.6929 -3.6268 -1.2677 0
M  V30 79 H 4.1061 -4.4897 -0.5551 0
M  V30 END ATOM
M  V30 BEGIN BOND
M  V30 1 1 1 2
M  V30 2 1 2 3
M  V30 3 1 2 4
M  V30 4 1 2 5
M  V30 5 1 3 6
M  V30 6 1 3 7
M  V30 7 1 3 8
M  V30 8 1 4 9
M  V30 9 1 4 10
M  V30 10 1 5 11
M  V30 11 1 5 12
M  V30 12 2 6 13
M  V30 13 1 6 14
M  V30 14 2 7 15
M  V30 15 1 10 16
M  V30 16 1 11 17
M  V30 17 1 13 18
M  V30 18 1 16 19
M  V30 19 1 16 20
M  V30 20 1 17 21
M  V30 21 2 18 22
M  V30 22 1 19 23
M  V30 23 1 19 24
M  V30 24 1 21 25
M  V30 25 1 23 26
M  V30 26 2 24 27
M  V30 27 1 24 28
M  V30 28 1 26 29
M  V30 29 1 26 30
M  V30 30 1 28 31
M  V30 31 1 31 32
M  V30 32 2 32 33
M  V30 33 1 32 34
M  V30 34 1 34 35
M  V30 35 1 35 36
M  V30 36 1 35 37
M  V30 37 1 35 38
M  V30 38 1 11 16
M  V30 39 1 12 14
M  V30 40 1 15 18
M  V30 41 1 19 21
M  V30 42 1 25 26
M  V30 43 1 4 39
M  V30 44 1 5 40
M  V30 45 1 7 41
M  V30 46 1 8 42
M  V30 47 1 8 43
M  V30 48 1 8 44
M  V30 49 1 9 45
M  V30 50 1 10 46
M  V30 51 1 10 47
M  V30 52 1 11 48
M  V30 53 1 12 49
M  V30 54 1 12 50
M  V30 55 1 13 51
M  V30 56 1 14 52
M  V30 57 1 14 53
M  V30 58 1 15 54
M  V30 59 1 17 55
M  V30 60 1 17 56
M  V30 61 1 20 57
M  V30 62 1 20 58
M  V30 63 1 20 59
M  V30 64 1 21 60
M  V30 65 1 28 61
M  V30 66 1 28 62
M  V30 67 1 29 63
M  V30 68 1 29 64
M  V30 69 1 29 65
M  V30 70 1 30 66
M  V30 71 1 30 67
M  V30 72 1 30 68
M  V30 73 1 34 69
M  V30 74 1 34 70
M  V30 75 1 36 71
M  V30 76 1 36 72
M  V30 77 1 36 73
M  V30 78 1 37 74
M  V30 79 1 37 75
M  V30 80 1 37 76
M  V30 81 1 38 77
M  V30 82 1 38 78
M  V30 83 1 38 79
M  V30 END BOND
M  V30 BEGIN COLLECTION
M  V30 MDLV30/STEABS ATOMS=(8 2 3 4 5 11 16 19 21)
M  V30 END COLLECTION
M  V30 END CTAB
M  END
>  <Structure No>
4626

>  <LogS>
-5.1244

>  <MMFF94 Energy>
175.48

$$$$
Compound 4627
Actelion Java MolfileCreator 2.0

  0  0  0  0  0  0              0 V3000
M  V30 BEGIN CTAB
M  V30 COUNTS 16 16 0 0 0
M  V30 BEGIN ATOM
M  V30 1 O 0.2345 0.3908 -0.7036 0
M  V30 2 C -0.968 0.5038 0.0187 0
M  V30 3 C 1.2479 -0.01 0.1893 0
M  V30 4 C -2.1782 0.5403 -0.8968 0
M  V30 5 C -1.875 -0.7098 -0.0892 0
M  V30 6 C 2.5486 -0.1873 -0.5783 0
M  V30 7 H -1.0333 1.1759 0.9035 0
M  V30 8 H 1.4081 0.7636 0.975 0
M  V30 9 H 0.992 -0.9821 0.6711 0
M  V30 10 H -3.0352 1.1299 -0.5079 0
M  V30 11 H -1.9613 0.4402 -1.9819 0
M  V30 12 H -1.4612 -1.5522 -0.6835 0
M  V30 13 H -2.5349 -0.86 0.7908 0
M  V30 14 H 3.3553 -0.5022 0.1167 0
M  V30 15 H 2.8404 0.7707 -1.0584 0
M  V30 16 H 2.4242 -0.9647 -1.3617 0
M  V30 END ATOM
M  V30 BEGIN BOND
M  V30 1 1 1 2
M  V30 2 1 1 3
M  V30 3 1 2 4
M  V30 4 1 2 5
M  V30 5 1 3 6
M  V30 6 1 4 5
M  V30 7 1 2 7
M  V30 8 1 3 8
M  V30 9 1 3 9
M  V30 10 1 4 10
M  V30 11 1 4 11
M  V30 12 1 5 12
M  V30 13 1 5 13
M  V30 14 1 6 14
M  V30 15 1 6 15
M  V30 16 1 6 16
M  V30 END BOND
M  V30 END CTAB
M  END
>  <Structure No>
4627

>  <LogS>
-0.6407

>  <MMFF94 Energy>
3.1193

$$$$
Compound 4628
Actelion Java MolfileCreator 2.0

  0  0  0  0  0  0              0 V3000
M  V30 BEGIN CTAB
M  V30 COUNTS 26 27 0 0 0
M  V30 BEGIN ATOM
M  V30 1 O 2.7331 0.8032 0.8836 0
M  V30 2 C 1.5307 0.5479 0.5903 0
M  V30 3 N 1.0753 -0.7611 0.6306 0
M  V30 4 N 0.6887 1.5772 0.227 0
M  V30 5 C -0.2175 -1.0551 0.2579 0
M  V30 6 C 1.9931 -1.8505 1.0145 0
M  V30 7 C -0.5837 1.2624 -0.1368 0
M  V30 8 C 1.1699 2.9632 0.1546 0
M  V30 9 O -0.6441 -2.2424 0.2546 0
M  V30 10 C -1.0452 -0.0084 -0.1254 0
M  V30 11 C 2.7123 -2.3672 -0.1909 0
M  V30 12 N -1.5378 2.1148 -0.5632 0
M  V30 13 N -2.3219 -0.0105 -0.5436 0
M  V30 14 O 2.199 -3.2777 -0.8924 0
M  V30 15 O 3.9266 -1.8088 -0.5687 0 CHG=-1
M  V30 16 C -2.5924 1.2924 -0.8024 0
M  V30 17 C -3.2245 -1.1452 -0.7099 0
M  V30 18 H 2.7332 -1.4997 1.766 0
M  V30 19 H 1.4418 -2.6812 1.507 0
M  V30 20 H 1.6974 3.1236 -0.8089 0
M  V30 21 H 1.8651 3.1806 0.9935 0
M  V30 22 H 0.3311 3.6873 0.2328 0
M  V30 23 H -3.5481 1.6466 -1.1668 0
M  V30 24 H -3.3461 -1.6726 0.2592 0
M  V30 25 H -2.8099 -1.8456 -1.4646 0
M  V30 26 H -4.2227 -0.8 -1.0538 0
M  V30 END ATOM
M  V30 BEGIN BOND
M  V30 1 2 1 2
M  V30 2 1 2 3
M  V30 3 1 2 4
M  V30 4 1 3 5
M  V30 5 1 3 6
M  V30 6 1 4 7
M  V30 7 1 4 8
M  V30 8 2 5 9
M  V30 9 1 5 10
M  V30 10 1 6 11
M  V30 11 1 7 12
M  V30 12 1 10 13
M  V30 13 2 11 14
M  V30 14 1 11 15
M  V30 15 2 12 16
M  V30 16 1 13 17
M  V30 17 2 7 10
M  V30 18 1 13 16
M  V30 19 1 6 18
M  V30 20 1 6 19
M  V30 21 1 8 20
M  V30 22 1 8 21
M  V30 23 1 8 22
M  V30 24 1 16 23
M  V30 25 1 17 24
M  V30 26 1 17 25
M  V30 27 1 17 26
M  V30 END BOND
M  V30 END CTAB
M  END
>  <Structure No>
4628

>  <LogS>
-1.3769

>  <MMFF94 Energy>
-90.119

$$$$
Compound 4629
Actelion Java MolfileCreator 2.0

  0  0  0  0  0  0              0 V3000
M  V30 BEGIN CTAB
M  V30 COUNTS 20 20 0 0 0
M  V30 BEGIN ATOM
M  V30 1 O -1.3484 2.3804 -0.7136 0
M  V30 2 C -0.8028 1.2737 -0.4583 0
M  V30 3 N 0.5303 1.2416 0.0641 0
M  V30 4 C -1.5662 -0.002 -0.6722 0 CFG=1
M  V30 5 C 1.1602 -0.0046 0.5113 0 CFG=1
M  V30 6 N -0.6455 -1.1125 -0.9116 0
M  V30 7 C -2.444 -0.3072 0.5412 0
M  V30 8 C 0.6405 -1.1793 -0.2841 0
M  V30 9 C 2.6839 0.1159 0.394 0
M  V30 10 O 1.3059 -2.2481 -0.3509 0
M  V30 11 H 0.9995 2.1531 0.27 0
M  V30 12 H -2.2206 0.1158 -1.5637 0
M  V30 13 H 0.9 -0.168 1.5792 0
M  V30 14 H -0.991 -1.9423 -1.4448 0
M  V30 15 H -1.8216 -0.4295 1.4538 0
M  V30 16 H -3.1701 0.5172 0.7068 0
M  V30 17 H -3.0126 -1.2455 0.3685 0
M  V30 18 H 3.0439 0.9817 0.9894 0
M  V30 19 H 3.1778 -0.7976 0.7883 0
M  V30 20 H 2.98 0.2624 -0.6668 0
M  V30 END ATOM
M  V30 BEGIN BOND
M  V30 1 2 1 2
M  V30 2 1 2 3
M  V30 3 1 2 4
M  V30 4 1 3 5
M  V30 5 1 4 6
M  V30 6 1 4 7
M  V30 7 1 5 8
M  V30 8 1 5 9
M  V30 9 2 8 10
M  V30 10 1 6 8
M  V30 11 1 3 11
M  V30 12 1 4 12
M  V30 13 1 5 13
M  V30 14 1 6 14
M  V30 15 1 7 15
M  V30 16 1 7 16
M  V30 17 1 7 17
M  V30 18 1 9 18
M  V30 19 1 9 19
M  V30 20 1 9 20
M  V30 END BOND
M  V30 BEGIN COLLECTION
M  V30 MDLV30/STEABS ATOMS=(2 4 5)
M  V30 END COLLECTION
M  V30 END CTAB
M  END
>  <Structure No>
4629

>  <LogS>
-0.1528

>  <MMFF94 Energy>
59.478

$$$$
Compound 4630
Actelion Java MolfileCreator 2.0

  0  0  0  0  0  0              0 V3000
M  V30 BEGIN CTAB
M  V30 COUNTS 27 28 0 0 0
M  V30 BEGIN ATOM
M  V30 1 O -4.4005 -2.4785 0.4793 0
M  V30 2 C -3.6765 -1.5032 0.1488 0
M  V30 3 N -2.4633 -1.6569 -0.5513 0
M  V30 4 C -3.9955 -0.0964 0.4597 0
M  V30 5 C -1.8549 -0.3586 -0.7765 0 CFG=1
M  V30 6 C -2.8526 0.683 -0.2114 0
M  V30 7 C -0.5203 -0.2788 -0.086 0
M  V30 8 O -0.379 -0.7902 1.0585 0
M  V30 9 N 0.5505 0.4645 -0.6883 0
M  V30 10 C 1.9096 0.4427 -0.2197 0
M  V30 11 C 2.4789 -0.7208 0.3311 0
M  V30 12 C 2.7069 1.5889 -0.3674 0
M  V30 13 C 3.8109 -0.7203 0.7573 0
M  V30 14 C 4.038 1.5855 0.0608 0
M  V30 15 C 4.5884 0.4329 0.6265 0
M  V30 16 H -2.0613 -2.5708 -0.8578 0
M  V30 17 H -4.9815 0.1837 0.0308 0
M  V30 18 H -3.9901 0.0591 1.5597 0
M  V30 19 H -1.7235 -0.2077 -1.8704 0
M  V30 20 H -3.2605 1.2966 -1.0444 0
M  V30 21 H -2.3756 1.3731 0.5198 0
M  V30 22 H 0.3083 1.1251 -1.4614 0
M  V30 23 H 1.9068 -1.6354 0.409 0
M  V30 24 H 2.2924 2.4879 -0.8058 0
M  V30 25 H 4.2431 -1.6176 1.181 0
M  V30 26 H 4.6433 2.4762 -0.0479 0
M  V30 27 H 5.6194 0.4309 0.9554 0
M  V30 END ATOM
M  V30 BEGIN BOND
M  V30 1 2 1 2
M  V30 2 1 2 3
M  V30 3 1 2 4
M  V30 4 1 3 5
M  V30 5 1 4 6
M  V30 6 1 5 7
M  V30 7 2 7 8
M  V30 8 1 7 9
M  V30 9 1 9 10
M  V30 10 2 10 11
M  V30 11 1 10 12
M  V30 12 1 11 13
M  V30 13 2 12 14
M  V30 14 2 13 15
M  V30 15 1 5 6
M  V30 16 1 14 15
M  V30 17 1 3 16
M  V30 18 1 4 17
M  V30 19 1 4 18
M  V30 20 1 5 19
M  V30 21 1 6 20
M  V30 22 1 6 21
M  V30 23 1 9 22
M  V30 24 1 11 23
M  V30 25 1 12 24
M  V30 26 1 13 25
M  V30 27 1 14 26
M  V30 28 1 15 27
M  V30 END BOND
M  V30 BEGIN COLLECTION
M  V30 MDLV30/STEABS ATOMS=(1 5)
M  V30 END COLLECTION
M  V30 END CTAB
M  END
>  <Structure No>
4630

>  <LogS>
-1.3278

>  <MMFF94 Energy>
9.5183

$$$$
Compound 4631
Actelion Java MolfileCreator 2.0

  0  0  0  0  0  0              0 V3000
M  V30 BEGIN CTAB
M  V30 COUNTS 24 25 0 0 0
M  V30 BEGIN ATOM
M  V30 1 S -0.4066 -1.546 1.7089 0
M  V30 2 C 0.94 -1.0328 0.6426 0
M  V30 3 C -1.5378 -0.3383 1.0187 0
M  V30 4 C 1.1155 -1.6391 -0.6073 0
M  V30 5 C 1.8205 -0.0265 1.059 0
M  V30 6 C -2.3344 -0.6725 -0.084 0
M  V30 7 C -1.6293 0.9407 1.5829 0
M  V30 8 C 2.1634 -1.2357 -1.4408 0
M  V30 9 C 2.8682 0.3767 0.2254 0
M  V30 10 C -3.2136 0.2716 -0.6243 0
M  V30 11 C -2.5091 1.8834 1.0412 0
M  V30 12 C 3.0429 -0.2251 -1.0259 0
M  V30 13 C -3.3006 1.5493 -0.0623 0
M  V30 14 O 4.0901 0.1864 -1.8471 0
M  V30 15 H 0.4392 -2.4185 -0.9347 0
M  V30 16 H 1.6914 0.4454 2.0247 0
M  V30 17 H -2.2701 -1.6594 -0.5243 0
M  V30 18 H -1.0178 1.2056 2.4361 0
M  V30 19 H 2.2906 -1.7073 -2.4067 0
M  V30 20 H 3.5442 1.157 0.5512 0
M  V30 21 H -3.8267 0.0134 -1.478 0
M  V30 22 H -2.5771 2.8723 1.476 0
M  V30 23 H -3.981 2.2795 -0.481 0
M  V30 24 H 4.243 -0.2296 -2.7582 0
M  V30 END ATOM
M  V30 BEGIN BOND
M  V30 1 1 1 2
M  V30 2 1 1 3
M  V30 3 2 2 4
M  V30 4 1 2 5
M  V30 5 2 3 6
M  V30 6 1 3 7
M  V30 7 1 4 8
M  V30 8 2 5 9
M  V30 9 1 6 10
M  V30 10 2 7 11
M  V30 11 2 8 12
M  V30 12 2 10 13
M  V30 13 1 12 14
M  V30 14 1 9 12
M  V30 15 1 11 13
M  V30 16 1 4 15
M  V30 17 1 5 16
M  V30 18 1 6 17
M  V30 19 1 7 18
M  V30 20 1 8 19
M  V30 21 1 9 20
M  V30 22 1 10 21
M  V30 23 1 11 22
M  V30 24 1 13 23
M  V30 25 1 14 24
M  V30 END BOND
M  V30 END CTAB
M  END
>  <Structure No>
4631

>  <LogS>
-2.7745

>  <MMFF94 Energy>
24.13

$$$$
Compound 4632
Actelion Java MolfileCreator 2.0

  0  0  0  0  0  0              0 V3000
M  V30 BEGIN CTAB
M  V30 COUNTS 23 22 0 0 0
M  V30 BEGIN ATOM
M  V30 1 O -0.231 -0.231 -0.462 0
M  V30 2 C 1.0389 -0.6232 0.0157 0
M  V30 3 C -0.9632 0.4109 0.5646 0
M  V30 4 O 1.8854 0.5067 0.1023 0
M  V30 5 O -2.1941 0.8749 0.05 0
M  V30 6 C 3.2046 0.1186 0.4377 0
M  V30 7 C -3.0964 -0.2026 -0.093 0
M  V30 8 C 4.0633 0.0278 -0.8186 0
M  V30 9 C -4.3772 0.3016 -0.7403 0
M  V30 10 H 1.4501 -1.3563 -0.7131 0
M  V30 11 H 0.9607 -1.1447 1.0003 0
M  V30 12 H -1.1187 -0.2651 1.4406 0
M  V30 13 H -0.4071 1.3017 0.9321 0
M  V30 14 H 3.6357 0.9032 1.0948 0
M  V30 15 H 3.2636 -0.8384 1.0084 0
M  V30 16 H -3.355 -0.6312 0.9016 0
M  V30 17 H -2.6707 -1.0015 -0.7421 0
M  V30 18 H 5.1129 -0.2019 -0.5384 0
M  V30 19 H 4.0405 0.9945 -1.365 0
M  V30 20 H 3.6881 -0.7761 -1.4853 0
M  V30 21 H -5.0962 -0.5369 -0.8541 0
M  V30 22 H -4.8391 1.0887 -0.107 0
M  V30 23 H -4.155 0.7243 -1.743 0
M  V30 END ATOM
M  V30 BEGIN BOND
M  V30 1 1 1 2
M  V30 2 1 1 3
M  V30 3 1 2 4
M  V30 4 1 3 5
M  V30 5 1 4 6
M  V30 6 1 5 7
M  V30 7 1 6 8
M  V30 8 1 7 9
M  V30 9 1 2 10
M  V30 10 1 2 11
M  V30 11 1 3 12
M  V30 12 1 3 13
M  V30 13 1 6 14
M  V30 14 1 6 15
M  V30 15 1 7 16
M  V30 16 1 7 17
M  V30 17 1 8 18
M  V30 18 1 8 19
M  V30 19 1 8 20
M  V30 20 1 9 21
M  V30 21 1 9 22
M  V30 22 1 9 23
M  V30 END BOND
M  V30 END CTAB
M  END
>  <Structure No>
4632

>  <LogS>
-0.1277

>  <MMFF94 Energy>
-24.628

$$$$
Compound 4633
Actelion Java MolfileCreator 2.0

  0  0  0  0  0  0              0 V3000
M  V30 BEGIN CTAB
M  V30 COUNTS 22 24 0 0 0
M  V30 BEGIN ATOM
M  V30 1 O 1.38 -2.9241 -0.4869 0
M  V30 2 C 1.7533 -1.7595 -0.1911 0
M  V30 3 O 3.0792 -1.4074 0.0187 0
M  V30 4 C 0.9025 -0.598 -0.0175 0
M  V30 5 C 3.1771 -0.0178 0.3371 0
M  V30 6 C -0.4873 -0.4131 -0.1145 0
M  V30 7 C 1.7501 0.442 0.2976 0
M  V30 8 C -0.9986 0.8939 0.125 0
M  V30 9 C -1.3745 -1.4553 -0.4341 0
M  V30 10 C 1.2634 1.7261 0.5346 0
M  V30 11 C -0.1183 1.9512 0.4474 0
M  V30 12 C -2.3802 1.1234 0.0388 0
M  V30 13 C -2.7476 -1.2066 -0.5152 0
M  V30 14 C -3.2481 0.0761 -0.2798 0
M  V30 15 H 3.7824 0.5106 -0.4288 0
M  V30 16 H 3.6055 0.1148 1.3528 0
M  V30 17 H -1.0223 -2.4587 -0.6219 0
M  V30 18 H 1.9384 2.5353 0.7814 0
M  V30 19 H -0.5004 2.9483 0.6309 0
M  V30 20 H -2.788 2.1112 0.2177 0
M  V30 21 H -3.4273 -2.012 -0.7615 0
M  V30 22 H -4.3129 0.2592 -0.3449 0
M  V30 END ATOM
M  V30 BEGIN BOND
M  V30 1 2 1 2
M  V30 2 1 2 3
M  V30 3 1 2 4
M  V30 4 1 3 5
M  V30 5 1 4 6
M  V30 6 2 4 7
M  V30 7 1 6 8
M  V30 8 2 6 9
M  V30 9 1 7 10
M  V30 10 1 8 11
M  V30 11 2 8 12
M  V30 12 1 9 13
M  V30 13 1 12 14
M  V30 14 1 5 7
M  V30 15 2 10 11
M  V30 16 2 13 14
M  V30 17 1 5 15
M  V30 18 1 5 16
M  V30 19 1 9 17
M  V30 20 1 10 18
M  V30 21 1 11 19
M  V30 22 1 12 20
M  V30 23 1 13 21
M  V30 24 1 14 22
M  V30 END BOND
M  V30 END CTAB
M  END
>  <Structure No>
4633

>  <LogS>
-3.3062

>  <MMFF94 Energy>
40.87

$$$$
Compound 4634
Actelion Java MolfileCreator 2.0

  0  0  0  0  0  0              0 V3000
M  V30 BEGIN CTAB
M  V30 COUNTS 18 18 0 0 0
M  V30 BEGIN ATOM
M  V30 1 O 0.1601 1.0412 1.8427 0
M  V30 2 C 0.0122 0.4649 0.731 0
M  V30 3 N 1.1513 -0.0944 0.0594 0
M  V30 4 C -1.3395 0.383 0.15 0
M  V30 5 C 2.4901 -0.0093 0.6423 0
M  V30 6 O -2.4054 0.8825 0.7343 0
M  V30 7 C -1.6982 -0.2048 -1.0504 0
M  V30 8 C 3.4984 -0.6605 -0.2506 0
M  V30 9 C -3.4517 0.6518 -0.0244 0
M  V30 10 C -3.0611 -0.0289 -1.1586 0
M  V30 11 O 3.7413 -1.891 -0.1396 0
M  V30 12 O 4.1304 0.0798 -1.2414 0 CHG=-1
M  V30 13 H 1.024 -0.5712 -0.861 0
M  V30 14 H 2.496 -0.51 1.6349 0
M  V30 15 H 2.7653 1.0577 0.7848 0
M  V30 16 H -1.0607 -0.7025 -1.7676 0
M  V30 17 H -4.4613 0.9562 0.2171 0
M  V30 18 H -3.6964 -0.3585 -1.9697 0
M  V30 END ATOM
M  V30 BEGIN BOND
M  V30 1 2 1 2
M  V30 2 1 2 3
M  V30 3 1 2 4
M  V30 4 1 3 5
M  V30 5 1 4 6
M  V30 6 2 4 7
M  V30 7 1 5 8
M  V30 8 1 6 9
M  V30 9 1 7 10
M  V30 10 2 8 11
M  V30 11 1 8 12
M  V30 12 2 9 10
M  V30 13 1 3 13
M  V30 14 1 5 14
M  V30 15 1 5 15
M  V30 16 1 7 16
M  V30 17 1 9 17
M  V30 18 1 10 18
M  V30 END BOND
M  V30 END CTAB
M  END
>  <Structure No>
4634

>  <LogS>
-0.7272

>  <MMFF94 Energy>
41.557

$$$$
Compound 4635
Actelion Java MolfileCreator 2.0

  0  0  0  0  0  0              0 V3000
M  V30 BEGIN CTAB
M  V30 COUNTS 26 27 0 0 0
M  V30 BEGIN ATOM
M  V30 1 S -0.5118 -0.7677 -2.4754 0
M  V30 2 O -1.2388 -0.3583 -3.7246 0
M  V30 3 O -0.4145 -2.2671 -2.43 0
M  V30 4 N 1.0863 -0.1031 -2.5005 0 CHG=-1
M  V30 5 C -1.3904 -0.1632 -1.0744 0
M  V30 6 C 1.9901 -0.2604 -1.4074 0
M  V30 7 C -1.2207 1.1654 -0.6623 0
M  V30 8 C -2.2633 -1.0013 -0.3671 0
M  V30 9 S 3.5376 0.3912 -1.3701 0
M  V30 10 N 1.6921 -0.9418 -0.2791 0
M  V30 11 C -1.9102 1.6498 0.4532 0
M  V30 12 C -2.9538 -0.5168 0.7482 0
M  V30 13 C 3.8508 -0.2264 0.1654 0
M  V30 14 C 2.7276 -0.9255 0.6011 0
M  V30 15 C -2.7796 0.8107 1.1646 0
M  V30 16 C 5.1026 -0.0489 0.9102 0
M  V30 17 N -3.4848 1.3058 2.306 0
M  V30 18 O 5.2383 -0.5517 2.0567 0
M  V30 19 O 6.1477 0.677 0.3529 0 CHG=-1
M  V30 20 H -0.5536 1.825 -1.2028 0
M  V30 21 H -2.4105 -2.028 -0.6767 0
M  V30 22 H -1.7676 2.6776 0.7627 0
M  V30 23 H -3.6237 -1.1749 1.2873 0
M  V30 24 H 2.6684 -1.4209 1.5613 0
M  V30 25 H -4.1347 0.6885 2.842 0
M  V30 26 H -3.3618 2.2932 2.6235 0
M  V30 END ATOM
M  V30 BEGIN BOND
M  V30 1 2 1 2
M  V30 2 2 1 3
M  V30 3 1 1 4
M  V30 4 1 1 5
M  V30 5 1 4 6
M  V30 6 2 5 7
M  V30 7 1 5 8
M  V30 8 1 6 9
M  V30 9 2 6 10
M  V30 10 1 7 11
M  V30 11 2 8 12
M  V30 12 1 9 13
M  V30 13 1 10 14
M  V30 14 2 11 15
M  V30 15 1 13 16
M  V30 16 1 15 17
M  V30 17 2 16 18
M  V30 18 1 16 19
M  V30 19 1 12 15
M  V30 20 2 13 14
M  V30 21 1 7 20
M  V30 22 1 8 21
M  V30 23 1 11 22
M  V30 24 1 12 23
M  V30 25 1 14 24
M  V30 26 1 17 25
M  V30 27 1 17 26
M  V30 END BOND
M  V30 END CTAB
M  END
>  <Structure No>
4635

>  <LogS>
-2.8741

>  <MMFF94 Energy>
100.83

$$$$
Compound 4636
Actelion Java MolfileCreator 2.0

  0  0  0  0  0  0              0 V3000
M  V30 BEGIN CTAB
M  V30 COUNTS 24 23 0 0 0
M  V30 BEGIN ATOM
M  V30 1 O 0.3198 0.0799 2.7208 0
M  V30 2 C 0.5176 0.6945 1.638 0
M  V30 3 O 1.2494 1.8774 1.6686 0 CHG=-1
M  V30 4 C 0.058 0.0944 0.3125 0
M  V30 5 C -0.0651 1.2142 -0.7732 0
M  V30 6 C 1.1051 -0.9723 -0.1401 0
M  V30 7 C -1.3221 -0.6118 0.5486 0
M  V30 8 C -1.1589 2.2097 -0.4983 0
M  V30 9 C 2.5514 -0.4692 -0.2395 0
M  V30 10 C -1.9462 -1.281 -0.683 0
M  V30 11 O -0.9708 3.1547 0.3122 0
M  V30 12 O -2.3899 2.0861 -1.1299 0 CHG=-1
M  V30 13 H 0.8877 1.7767 -0.8636 0
M  V30 14 H -0.2399 0.7616 -1.7723 0
M  V30 15 H 1.0931 -1.8278 0.5711 0
M  V30 16 H 0.8303 -1.3732 -1.1386 0
M  V30 17 H -1.2099 -1.4011 1.3246 0
M  V30 18 H -2.0547 0.1198 0.9545 0
M  V30 19 H 3.2079 -1.3099 -0.5485 0
M  V30 20 H 2.916 -0.0981 0.7403 0
M  V30 21 H 2.6463 0.33 -1.002 0
M  V30 22 H -2.1069 -0.557 -1.5056 0
M  V30 23 H -2.9368 -1.6985 -0.4043 0
M  V30 24 H -1.3191 -2.1219 -1.0419 0
M  V30 END ATOM
M  V30 BEGIN BOND
M  V30 1 2 1 2
M  V30 2 1 2 3
M  V30 3 1 2 4
M  V30 4 1 4 5
M  V30 5 1 4 6
M  V30 6 1 4 7
M  V30 7 1 5 8
M  V30 8 1 6 9
M  V30 9 1 7 10
M  V30 10 2 8 11
M  V30 11 1 8 12
M  V30 12 1 5 13
M  V30 13 1 5 14
M  V30 14 1 6 15
M  V30 15 1 6 16
M  V30 16 1 7 17
M  V30 17 1 7 18
M  V30 18 1 9 19
M  V30 19 1 9 20
M  V30 20 1 9 21
M  V30 21 1 10 22
M  V30 22 1 10 23
M  V30 23 1 10 24
M  V30 END BOND
M  V30 END CTAB
M  END
>  <Structure No>
4636

>  <LogS>
-0.7962

>  <MMFF94 Energy>
79.27

$$$$
Compound 4637
Actelion Java MolfileCreator 2.0

  0  0  0  0  0  0              0 V3000
M  V30 BEGIN CTAB
M  V30 COUNTS 22 22 0 0 0
M  V30 BEGIN ATOM
M  V30 1 O 2.7135 1.835 0.0797 0
M  V30 2 C 2.2665 0.9258 0.8281 0
M  V30 3 O 1.9366 1.2228 2.1445 0 CHG=-1
M  V30 4 C 2.0594 -0.4679 0.2973 0 CFG=2
M  V30 5 O 3.2567 -0.9613 -0.2508 0
M  V30 6 C 0.9104 -0.518 -0.744 0 CFG=1
M  V30 7 O 0.7963 -1.7975 -1.3179 0
M  V30 8 C -0.4189 -0.0855 -0.1504 0
M  V30 9 C -1.0429 -0.843 0.8594 0
M  V30 10 C -1.0358 1.0996 -0.5915 0
M  V30 11 C -2.2594 -0.4253 1.4076 0
M  V30 12 C -2.2524 1.5125 -0.0398 0
M  V30 13 C -2.8641 0.7506 0.958 0
M  V30 14 H 1.7957 -1.1247 1.1542 0
M  V30 15 H 3.4684 -0.4206 -1.0565 0
M  V30 16 H 1.1789 0.1754 -1.5717 0
M  V30 17 H 0.7393 -2.4622 -0.5833 0
M  V30 18 H -0.5892 -1.7534 1.2286 0
M  V30 19 H -0.5755 1.7074 -1.3604 0
M  V30 20 H -2.7327 -1.0131 2.1835 0
M  V30 21 H -2.7203 2.4253 -0.3852 0
M  V30 22 H -3.8054 1.0724 1.3844 0
M  V30 END ATOM
M  V30 BEGIN BOND
M  V30 1 2 1 2
M  V30 2 1 2 3
M  V30 3 1 2 4
M  V30 4 1 4 5
M  V30 5 1 4 6
M  V30 6 1 6 7
M  V30 7 1 6 8
M  V30 8 2 8 9
M  V30 9 1 8 10
M  V30 10 1 9 11
M  V30 11 2 10 12
M  V30 12 2 11 13
M  V30 13 1 12 13
M  V30 14 1 4 14
M  V30 15 1 5 15
M  V30 16 1 6 16
M  V30 17 1 7 17
M  V30 18 1 9 18
M  V30 19 1 10 19
M  V30 20 1 11 20
M  V30 21 1 12 21
M  V30 22 1 13 22
M  V30 END BOND
M  V30 BEGIN COLLECTION
M  V30 MDLV30/STEABS ATOMS=(2 4 6)
M  V30 END COLLECTION
M  V30 END CTAB
M  END
>  <Structure No>
4637

>  <LogS>
-0.3063

>  <MMFF94 Energy>
84.074

$$$$
Compound 4638
Actelion Java MolfileCreator 2.0

  0  0  0  0  0  0              0 V3000
M  V30 BEGIN CTAB
M  V30 COUNTS 24 24 0 0 0
M  V30 BEGIN ATOM
M  V30 1 O -2.7795 -1.4287 -1.667 0
M  V30 2 C -1.8453 -1.5902 -0.839 0
M  V30 3 O -1.162 -2.8003 -0.8434 0 CHG=-1
M  V30 4 C -1.4641 -0.5249 0.1327 0
M  V30 5 C -2.0785 0.6767 0.2096 0
M  V30 6 C -0.2915 -0.7838 1.0535 0
M  V30 7 C -3.2374 1.1121 -0.6351 0
M  V30 8 C 0.9947 -0.3343 0.4116 0
M  V30 9 C 1.4024 1.0074 0.5073 0
M  V30 10 C 1.779 -1.2397 -0.3232 0
M  V30 11 C 2.5814 1.4319 -0.1131 0
M  V30 12 C 2.9573 -0.8107 -0.9419 0
M  V30 13 C 3.3585 0.5235 -0.8366 0
M  V30 14 H -1.7246 1.3998 0.9359 0
M  V30 15 H -0.4306 -0.2557 2.0232 0
M  V30 16 H -0.2339 -1.8624 1.3153 0
M  V30 17 H -4.1039 0.4362 -0.4777 0
M  V30 18 H -2.9469 1.1297 -1.7064 0
M  V30 19 H -3.5433 2.139 -0.3443 0
M  V30 20 H 0.8086 1.7232 1.0616 0
M  V30 21 H 1.4813 -2.2763 -0.4152 0
M  V30 22 H 2.8916 2.4658 -0.0343 0
M  V30 23 H 3.5589 -1.5129 -1.5043 0
M  V30 24 H 4.2705 0.854 -1.3168 0
M  V30 END ATOM
M  V30 BEGIN BOND
M  V30 1 2 1 2
M  V30 2 1 2 3
M  V30 3 1 2 4
M  V30 4 2 4 5
M  V30 5 1 4 6
M  V30 6 1 5 7
M  V30 7 1 6 8
M  V30 8 2 8 9
M  V30 9 1 8 10
M  V30 10 1 9 11
M  V30 11 2 10 12
M  V30 12 2 11 13
M  V30 13 1 12 13
M  V30 14 1 5 14
M  V30 15 1 6 15
M  V30 16 1 6 16
M  V30 17 1 7 17
M  V30 18 1 7 18
M  V30 19 1 7 19
M  V30 20 1 9 20
M  V30 21 1 10 21
M  V30 22 1 11 22
M  V30 23 1 12 23
M  V30 24 1 13 24
M  V30 END BOND
M  V30 END CTAB
M  END
>  <Structure No>
4638

>  <LogS>
-2.5648

>  <MMFF94 Energy>
26.443

$$$$
Compound 4639
Actelion Java MolfileCreator 2.0

  0  0  0  0  0  0              0 V3000
M  V30 BEGIN CTAB
M  V30 COUNTS 27 28 0 0 0
M  V30 BEGIN ATOM
M  V30 1 O 6.0724 -1.1314 1.2931 0
M  V30 2 C 5.4795 -0.2819 0.5759 0
M  V30 3 O 6.2299 0.6876 -0.0793 0 CHG=-1
M  V30 4 C 4.0072 -0.314 0.4328 0
M  V30 5 C 3.3514 0.6323 -0.3724 0
M  V30 6 C 3.2436 -1.2942 1.0906 0
M  V30 7 C 1.9602 0.6056 -0.5093 0
M  V30 8 C 1.8529 -1.3202 0.9516 0
M  V30 9 C 1.1971 -0.36 0.169 0
M  V30 10 N -0.2318 -0.4259 0.0237 0
M  V30 11 C -1.0841 0.7329 -0.0528 0
M  V30 12 O -0.5957 1.8841 0.1127 0
M  V30 13 C -2.5382 0.6044 -0.3157 0
M  V30 14 C -3.2332 1.6527 -0.9447 0
M  V30 15 C -3.2645 -0.5358 0.0712 0
M  V30 16 N -4.5671 1.5473 -1.1868 0
M  V30 17 C -4.6338 -0.6169 -0.1886 0
M  V30 18 C -5.2741 0.4443 -0.828 0
M  V30 19 H 3.913 1.3891 -0.9054 0
M  V30 20 H 3.72 -2.0428 1.7112 0
M  V30 21 H 1.4873 1.3228 -1.1668 0
M  V30 22 H 1.2823 -2.0844 1.4643 0
M  V30 23 H -0.6611 -1.3768 0.0261 0
M  V30 24 H -2.714 2.5507 -1.2545 0
M  V30 25 H -2.7926 -1.3522 0.5993 0
M  V30 26 H -5.1959 -1.4922 0.1107 0
M  V30 27 H -6.3349 0.394 -1.034 0
M  V30 END ATOM
M  V30 BEGIN BOND
M  V30 1 2 1 2
M  V30 2 1 2 3
M  V30 3 1 2 4
M  V30 4 2 4 5
M  V30 5 1 4 6
M  V30 6 1 5 7
M  V30 7 2 6 8
M  V30 8 2 7 9
M  V30 9 1 9 10
M  V30 10 1 10 11
M  V30 11 2 11 12
M  V30 12 1 11 13
M  V30 13 2 13 14
M  V30 14 1 13 15
M  V30 15 1 14 16
M  V30 16 2 15 17
M  V30 17 2 16 18
M  V30 18 1 8 9
M  V30 19 1 17 18
M  V30 20 1 5 19
M  V30 21 1 6 20
M  V30 22 1 7 21
M  V30 23 1 8 22
M  V30 24 1 10 23
M  V30 25 1 14 24
M  V30 26 1 15 25
M  V30 27 1 17 26
M  V30 28 1 18 27
M  V30 END BOND
M  V30 END CTAB
M  END
>  <Structure No>
4639

>  <LogS>
-3.0832

>  <MMFF94 Energy>
54.035

$$$$
Compound 4640
Actelion Java MolfileCreator 2.0

  0  0  0  0  0  0              0 V3000
M  V30 BEGIN CTAB
M  V30 COUNTS 24 23 0 0 0
M  V30 BEGIN ATOM
M  V30 1 O -0.9298 2.8692 0.6973 0
M  V30 2 C -0.4493 2.0787 -0.1005 0
M  V30 3 C -0.7069 0.6025 0.0616 0
M  V30 4 C 0.3886 2.5975 -1.2312 0
M  V30 5 O -1.4038 0.1526 -1.0834 0
M  V30 6 O 0.5337 -0.0796 0.1597 0
M  V30 7 C -1.8015 -1.201 -0.9472 0
M  V30 8 C 0.9499 -0.1622 1.5068 0
M  V30 9 C -1.0656 -2.0536 -1.9713 0
M  V30 10 C 2.338 -0.78 1.5621 0
M  V30 11 H -1.3578 0.4578 0.9628 0
M  V30 12 H -0.2132 3.2943 -1.8514 0
M  V30 13 H 1.2685 3.1381 -0.8238 0
M  V30 14 H 0.7469 1.7664 -1.8746 0
M  V30 15 H -2.8908 -1.2652 -1.1539 0
M  V30 16 H -1.6387 -1.6358 0.0682 0
M  V30 17 H 0.9976 0.8476 1.9749 0
M  V30 18 H 0.2549 -0.8099 2.0877 0
M  V30 19 H -1.4142 -3.1058 -1.9042 0
M  V30 20 H -1.2635 -1.6731 -2.9958 0
M  V30 21 H 0.0271 -2.0239 -1.7766 0
M  V30 22 H 2.674 -0.8555 2.6178 0
M  V30 23 H 3.0572 -0.1481 0.9989 0
M  V30 24 H 2.3189 -1.7971 1.116 0
M  V30 END ATOM
M  V30 BEGIN BOND
M  V30 1 2 1 2
M  V30 2 1 2 3
M  V30 3 1 2 4
M  V30 4 1 3 5
M  V30 5 1 3 6
M  V30 6 1 5 7
M  V30 7 1 6 8
M  V30 8 1 7 9
M  V30 9 1 8 10
M  V30 10 1 3 11
M  V30 11 1 4 12
M  V30 12 1 4 13
M  V30 13 1 4 14
M  V30 14 1 7 15
M  V30 15 1 7 16
M  V30 16 1 8 17
M  V30 17 1 8 18
M  V30 18 1 9 19
M  V30 19 1 9 20
M  V30 20 1 9 21
M  V30 21 1 10 22
M  V30 22 1 10 23
M  V30 23 1 10 24
M  V30 END BOND
M  V30 END CTAB
M  END
>  <Structure No>
4640

>  <LogS>
-0.2059

>  <MMFF94 Energy>
30.924

$$$$
Compound 4641
Actelion Java MolfileCreator 2.0

  0  0  0  0  0  0              0 V3000
M  V30 BEGIN CTAB
M  V30 COUNTS 76 76 0 0 0
M  V30 BEGIN ATOM
M  V30 1 O 1.7357 -3.0786 2.4465 0
M  V30 2 C 1.7898 -3.1536 1.1897 0
M  V30 3 N 1.2208 -4.3015 0.5382 0
M  V30 4 C 2.51 -2.0698 0.4346 0
M  V30 5 C 1.1067 -4.4646 -0.9108 0
M  V30 6 C 3.9933 -2.4268 0.2522 0
M  V30 7 C -0.098 -3.6967 -1.4786 0
M  V30 8 C 4.7264 -1.4238 -0.6537 0
M  V30 9 C -1.4544 -4.2353 -0.9834 0
M  V30 10 C 5.0453 -0.1062 0.0678 0
M  V30 11 C -1.9638 -3.4869 0.261 0
M  V30 12 C 5.5981 0.9363 -0.9107 0
M  V30 13 C -3.2986 -4.0503 0.7707 0
M  V30 14 N 5.9006 2.1937 -0.2244 0
M  V30 15 C -4.4177 -3.837 -0.2157 0
M  V30 16 C 4.9201 3.1486 0.2225 0
M  V30 17 O -4.8211 -4.8248 -0.8866 0
M  V30 18 N -5.0055 -2.548 -0.4622 0
M  V30 19 O 5.3225 4.2175 0.7577 0
M  V30 20 C 3.4363 2.8724 0.1534 0
M  V30 21 C -4.816 -1.3574 0.369 0
M  V30 22 C 2.6017 4.1538 0.0235 0
M  V30 23 C -4.4572 -0.1577 -0.5114 0
M  V30 24 C 1.1073 3.8191 -0.0603 0
M  V30 25 C -4.3633 1.1289 0.3176 0
M  V30 26 C 0.2531 5.0928 -0.1231 0
M  V30 27 C -3.9648 2.3246 -0.5609 0
M  V30 28 C -1.2464 4.7691 -0.172 0
M  V30 29 C -4.0639 3.6614 0.1891 0
M  V30 30 N -1.7194 4.2197 1.1016 0
M  V30 31 C -3.063 3.7589 1.3106 0
M  V30 32 O -3.4089 3.39 2.465 0
M  V30 33 H 0.876 -5.0835 1.1401 0
M  V30 34 H 2.0355 -1.8994 -0.5512 0
M  V30 35 H 2.4148 -1.1223 1.0054 0
M  V30 36 H 0.9926 -5.5449 -1.1481 0
M  V30 37 H 2.04 -4.1294 -1.4096 0
M  V30 38 H 4.4953 -2.4826 1.2433 0
M  V30 39 H 4.0678 -3.4317 -0.2176 0
M  V30 40 H -0.065 -3.8068 -2.5846 0
M  V30 41 H -0.0095 -2.6104 -1.2681 0
M  V30 42 H 5.6825 -1.8827 -0.9886 0
M  V30 43 H 4.1153 -1.2277 -1.5627 0
M  V30 44 H -2.1943 -4.1 -1.8022 0
M  V30 45 H -1.3889 -5.3256 -0.7747 0
M  V30 46 H 4.1301 0.2867 0.5462 0
M  V30 47 H 5.7954 -0.2945 0.8664 0
M  V30 48 H -1.2221 -3.5755 1.0804 0
M  V30 49 H -2.0746 -2.4069 0.0259 0
M  V30 50 H 4.8891 1.1197 -1.7457 0
M  V30 51 H 6.535 0.5393 -1.36 0
M  V30 52 H -3.1811 -5.1382 0.9711 0
M  V30 53 H -3.5593 -3.5871 1.7448 0
M  V30 54 H 6.908 2.4525 -0.1207 0
M  V30 55 H -5.7262 -2.4892 -1.2173 0
M  V30 56 H 3.2052 2.2212 -0.7136 0
M  V30 57 H 3.1383 2.3415 1.0826 0
M  V30 58 H -5.7628 -1.1532 0.9143 0
M  V30 59 H -4.0155 -1.5009 1.1202 0
M  V30 60 H 2.78 4.8034 0.9087 0
M  V30 61 H 2.9096 4.7054 -0.8923 0
M  V30 62 H -5.2372 -0.0318 -1.2949 0
M  V30 63 H -3.4832 -0.3532 -1.0116 0
M  V30 64 H 0.8197 3.2191 0.83 0
M  V30 65 H 0.9186 3.2069 -0.9694 0
M  V30 66 H -3.6055 0.9918 1.1195 0
M  V30 67 H -5.3497 1.3285 0.7919 0
M  V30 68 H 0.5221 5.6635 -1.039 0
M  V30 69 H 0.4633 5.7398 0.757 0
M  V30 70 H -2.9312 2.1778 -0.9428 0
M  V30 71 H -4.646 2.3752 -1.4392 0
M  V30 72 H -1.8042 5.7053 -0.3904 0
M  V30 73 H -1.4385 4.0478 -0.994 0
M  V30 74 H -5.0909 3.7821 0.5982 0
M  V30 75 H -3.9133 4.4948 -0.5283 0
M  V30 76 H -1.0735 4.2006 1.9238 0
M  V30 END ATOM
M  V30 BEGIN BOND
M  V30 1 2 1 2
M  V30 2 1 2 3
M  V30 3 1 2 4
M  V30 4 1 3 5
M  V30 5 1 4 6
M  V30 6 1 5 7
M  V30 7 1 6 8
M  V30 8 1 7 9
M  V30 9 1 8 10
M  V30 10 1 9 11
M  V30 11 1 10 12
M  V30 12 1 11 13
M  V30 13 1 12 14
M  V30 14 1 13 15
M  V30 15 1 14 16
M  V30 16 2 15 17
M  V30 17 1 15 18
M  V30 18 2 16 19
M  V30 19 1 16 20
M  V30 20 1 18 21
M  V30 21 1 20 22
M  V30 22 1 21 23
M  V30 23 1 22 24
M  V30 24 1 23 25
M  V30 25 1 24 26
M  V30 26 1 25 27
M  V30 27 1 26 28
M  V30 28 1 27 29
M  V30 29 1 28 30
M  V30 30 1 29 31
M  V30 31 2 31 32
M  V30 32 1 30 31
M  V30 33 1 3 33
M  V30 34 1 4 34
M  V30 35 1 4 35
M  V30 36 1 5 36
M  V30 37 1 5 37
M  V30 38 1 6 38
M  V30 39 1 6 39
M  V30 40 1 7 40
M  V30 41 1 7 41
M  V30 42 1 8 42
M  V30 43 1 8 43
M  V30 44 1 9 44
M  V30 45 1 9 45
M  V30 46 1 10 46
M  V30 47 1 10 47
M  V30 48 1 11 48
M  V30 49 1 11 49
M  V30 50 1 12 50
M  V30 51 1 12 51
M  V30 52 1 13 52
M  V30 53 1 13 53
M  V30 54 1 14 54
M  V30 55 1 18 55
M  V30 56 1 20 56
M  V30 57 1 20 57
M  V30 58 1 21 58
M  V30 59 1 21 59
M  V30 60 1 22 60
M  V30 61 1 22 61
M  V30 62 1 23 62
M  V30 63 1 23 63
M  V30 64 1 24 64
M  V30 65 1 24 65
M  V30 66 1 25 66
M  V30 67 1 25 67
M  V30 68 1 26 68
M  V30 69 1 26 69
M  V30 70 1 27 70
M  V30 71 1 27 71
M  V30 72 1 28 72
M  V30 73 1 28 73
M  V30 74 1 29 74
M  V30 75 1 29 75
M  V30 76 1 30 76
M  V30 END BOND
M  V30 END CTAB
M  END
>  <Structure No>
4641

>  <LogS>
-2.8126

>  <MMFF94 Energy>
-85.702

$$$$
Compound 4642
Actelion Java MolfileCreator 2.0

  0  0  0  0  0  0              0 V3000
M  V30 BEGIN CTAB
M  V30 COUNTS 38 39 0 0 0
M  V30 BEGIN ATOM
M  V30 1 Cl -2.6134 5.3958 -0.7345 0
M  V30 2 C -1.9598 3.7769 -0.9048 0
M  V30 3 C -0.6816 3.4843 -0.4238 0
M  V30 4 C -2.7202 2.776 -1.5134 0
M  V30 5 C -0.1584 2.1948 -0.5551 0
M  V30 6 C -2.2023 1.4851 -1.6474 0
M  V30 7 C -0.9075 1.1753 -1.1851 0
M  V30 8 C -0.3963 -0.2674 -1.3193 0
M  V30 9 O -0.6712 -0.7233 -2.628 0
M  V30 10 C -1.1219 -1.1732 -0.3201 0
M  V30 11 C 1.0989 -0.3786 -1.0748 0
M  V30 12 C -1.4484 -2.5038 -0.6595 0
M  V30 13 C -1.3839 -0.737 0.9978 0
M  V30 14 O 1.9087 -0.1653 -2.0193 0
M  V30 15 O 1.5773 -0.6609 0.2121 0
M  V30 16 C -2.0634 -3.3477 0.2699 0
M  V30 17 C -1.9981 -1.5854 1.9228 0
M  V30 18 C 2.9626 -0.7041 0.5517 0
M  V30 19 C -2.3435 -2.8883 1.5587 0
M  V30 20 C 3.5241 0.7162 0.6618 0
M  V30 21 C 3.1201 -1.4451 1.8777 0
M  V30 22 Cl -3.1102 -3.9523 2.7237 0
M  V30 23 H -0.0932 4.2547 0.0582 0
M  V30 24 H -3.7155 2.9953 -1.8789 0
M  V30 25 H 0.8264 2.0037 -0.1533 0
M  V30 26 H -2.8156 0.7212 -2.1095 0
M  V30 27 H -0.2899 -0.0716 -3.2749 0
M  V30 28 H -1.2237 -2.899 -1.6415 0
M  V30 29 H -1.1042 0.2577 1.3186 0
M  V30 30 H -2.3144 -4.3625 -0.0114 0
M  V30 31 H -2.1976 -1.2302 2.926 0
M  V30 32 H 3.5248 -1.2647 -0.2278 0
M  V30 33 H 4.5961 0.6848 0.9517 0
M  V30 34 H 2.9588 1.2977 1.4214 0
M  V30 35 H 3.4447 1.237 -0.3149 0
M  V30 36 H 2.7135 -2.4744 1.7815 0
M  V30 37 H 2.5668 -0.9188 2.6851 0
M  V30 38 H 4.1933 -1.5152 2.1562 0
M  V30 END ATOM
M  V30 BEGIN BOND
M  V30 1 1 1 2
M  V30 2 2 2 3
M  V30 3 1 2 4
M  V30 4 1 3 5
M  V30 5 2 4 6
M  V30 6 2 5 7
M  V30 7 1 7 8
M  V30 8 1 8 9
M  V30 9 1 8 10
M  V30 10 1 8 11
M  V30 11 2 10 12
M  V30 12 1 10 13
M  V30 13 2 11 14
M  V30 14 1 11 15
M  V30 15 1 12 16
M  V30 16 2 13 17
M  V30 17 1 15 18
M  V30 18 2 16 19
M  V30 19 1 18 20
M  V30 20 1 18 21
M  V30 21 1 19 22
M  V30 22 1 6 7
M  V30 23 1 17 19
M  V30 24 1 3 23
M  V30 25 1 4 24
M  V30 26 1 5 25
M  V30 27 1 6 26
M  V30 28 1 9 27
M  V30 29 1 12 28
M  V30 30 1 13 29
M  V30 31 1 16 30
M  V30 32 1 17 31
M  V30 33 1 18 32
M  V30 34 1 20 33
M  V30 35 1 20 34
M  V30 36 1 20 35
M  V30 37 1 21 36
M  V30 38 1 21 37
M  V30 39 1 21 38
M  V30 END BOND
M  V30 END CTAB
M  END
>  <Structure No>
4642

>  <LogS>
-5.3544

>  <MMFF94 Energy>
114.54

$$$$
Compound 4643
Actelion Java MolfileCreator 2.0

  0  0  0  0  0  0              0 V3000
M  V30 BEGIN CTAB
M  V30 COUNTS 37 40 0 0 0
M  V30 BEGIN ATOM
M  V30 1 O 0.9746 -1.8687 -2.682 0
M  V30 2 C 1.446 -1.2426 -1.6957 0
M  V30 3 O 2.762 -1.0797 -1.6135 0
M  V30 4 C 0.5924 -0.7254 -0.6963 0
M  V30 5 C 3.3501 -0.4429 -0.6084 0
M  V30 6 C 1.1855 -0.0566 0.3955 0
M  V30 7 C -0.92 -0.9208 -0.7778 0 CFG=2
M  V30 8 C 2.5786 0.0952 0.4432 0
M  V30 9 C 4.7429 -0.3088 -0.5929 0
M  V30 10 O 0.3947 0.4525 1.4234 0 CHG=-1
M  V30 11 C -1.682 0.3906 -0.6174 0
M  V30 12 C -1.3538 -2.0075 0.2274 0
M  V30 13 C 3.2202 0.7625 1.5018 0
M  V30 14 C 5.3719 0.3569 0.4626 0
M  V30 15 C -2.8631 0.4695 0.1633 0
M  V30 16 C -1.2765 1.521 -1.3537 0
M  V30 17 C -2.8721 -2.0381 0.3806 0
M  V30 18 C 4.6125 0.8909 1.5073 0
M  V30 19 C -3.5508 1.6902 0.2597 0
M  V30 20 C -3.3644 -0.7109 0.9576 0
M  V30 21 C -1.9809 2.7225 -1.2601 0
M  V30 22 C -3.1111 2.8093 -0.4486 0
M  V30 23 H -1.198 -1.2945 -1.7872 0
M  V30 24 H 5.3377 -0.7207 -1.3982 0
M  V30 25 H -1.0044 -3.0 -0.1316 0
M  V30 26 H -0.8958 -1.8331 1.2258 0
M  V30 27 H 2.6525 1.1847 2.3218 0
M  V30 28 H 6.4493 0.4588 0.4713 0
M  V30 29 H -0.4095 1.4731 -2.0006 0
M  V30 30 H -3.3501 -2.2238 -0.6064 0
M  V30 31 H -3.1589 -2.8651 1.0655 0
M  V30 32 H 5.104 1.4054 2.323 0
M  V30 33 H -4.4344 1.7732 0.8808 0
M  V30 34 H -4.4762 -0.7205 0.9654 0
M  V30 35 H -3.0144 -0.6096 2.0077 0
M  V30 36 H -1.6506 3.5876 -1.8203 0
M  V30 37 H -3.6524 3.7436 -0.3739 0
M  V30 END ATOM
M  V30 BEGIN BOND
M  V30 1 2 1 2
M  V30 2 1 2 3
M  V30 3 1 2 4
M  V30 4 1 3 5
M  V30 5 2 4 6
M  V30 6 1 4 7
M  V30 7 2 5 8
M  V30 8 1 5 9
M  V30 9 1 6 10
M  V30 10 1 7 11
M  V30 11 1 7 12
M  V30 12 1 8 13
M  V30 13 2 9 14
M  V30 14 2 11 15
M  V30 15 1 11 16
M  V30 16 1 12 17
M  V30 17 2 13 18
M  V30 18 1 15 19
M  V30 19 1 15 20
M  V30 20 2 16 21
M  V30 21 2 19 22
M  V30 22 1 6 8
M  V30 23 1 14 18
M  V30 24 1 17 20
M  V30 25 1 21 22
M  V30 26 1 7 23
M  V30 27 1 9 24
M  V30 28 1 12 25
M  V30 29 1 12 26
M  V30 30 1 13 27
M  V30 31 1 14 28
M  V30 32 1 16 29
M  V30 33 1 17 30
M  V30 34 1 17 31
M  V30 35 1 18 32
M  V30 36 1 19 33
M  V30 37 1 20 34
M  V30 38 1 20 35
M  V30 39 1 21 36
M  V30 40 1 22 37
M  V30 END BOND
M  V30 BEGIN COLLECTION
M  V30 MDLV30/STEABS ATOMS=(1 7)
M  V30 END COLLECTION
M  V30 END CTAB
M  END
>  <Structure No>
4643

>  <LogS>
-4.8638

>  <MMFF94 Energy>
75.029

$$$$
Compound 4644
Actelion Java MolfileCreator 2.0

  0  0  0  0  0  0              0 V3000
M  V30 BEGIN CTAB
M  V30 COUNTS 15 14 0 0 0
M  V30 BEGIN ATOM
M  V30 1 S -2.5886 0.7275 -1.3746 0
M  V30 2 C -2.2637 -0.0829 0.224 0
M  V30 3 C -0.9547 -0.8642 0.1846 0
M  V30 4 O 0.1434 0.0297 0.0317 0
M  V30 5 C 1.4679 -0.4093 -0.0427 0
M  V30 6 O 1.7467 -1.6354 0.0524 0
M  V30 7 C 2.5657 0.5888 -0.1875 0
M  V30 8 H -1.5789 1.6909 -1.1883 0
M  V30 9 H -3.099 -0.7819 0.4398 0
M  V30 10 H -2.2274 0.6818 1.0289 0
M  V30 11 H -0.9755 -1.5878 -0.6593 0
M  V30 12 H -0.842 -1.4278 1.1361 0
M  V30 13 H 2.1718 1.5222 -0.6416 0
M  V30 14 H 3.3664 0.1826 -0.8408 0
M  V30 15 H 2.9893 0.8203 0.8116 0
M  V30 END ATOM
M  V30 BEGIN BOND
M  V30 1 1 1 2
M  V30 2 1 2 3
M  V30 3 1 3 4
M  V30 4 1 4 5
M  V30 5 2 5 6
M  V30 6 1 5 7
M  V30 7 1 1 8
M  V30 8 1 2 9
M  V30 9 1 2 10
M  V30 10 1 3 11
M  V30 11 1 3 12
M  V30 12 1 7 13
M  V30 13 1 7 14
M  V30 14 1 7 15
M  V30 END BOND
M  V30 END CTAB
M  END
>  <Structure No>
4644

>  <LogS>
-1.5

>  <MMFF94 Energy>
-0.84595

$$$$
Compound 4645
Actelion Java MolfileCreator 2.0

  0  0  0  0  0  0              0 V3000
M  V30 BEGIN CTAB
M  V30 COUNTS 27 27 0 0 0
M  V30 BEGIN ATOM
M  V30 1 Cl 3.2101 2.2462 0.6413 0
M  V30 2 C 2.0966 0.9152 0.303 0
M  V30 3 C 0.7135 1.117 0.3976 0
M  V30 4 C 2.5741 -0.3364 -0.0731 0
M  V30 5 O 0.3303 2.2789 0.6911 0
M  V30 6 N -0.1869 0.0841 0.1612 0
M  V30 7 N 1.6858 -1.3136 -0.371 0
M  V30 8 C 4.0507 -0.5995 -0.1946 0
M  V30 9 C 0.3423 -1.1223 -0.2773 0
M  V30 10 C -1.6933 0.2219 0.3147 0
M  V30 11 O -0.4057 -2.0785 -0.6144 0
M  V30 12 C -2.3677 0.1572 -1.0752 0
M  V30 13 C -2.1663 1.5493 0.9735 0
M  V30 14 C -2.2517 -0.9083 1.2261 0
M  V30 15 H 2.0366 -2.2459 -0.6902 0
M  V30 16 H 4.253 -1.6642 -0.4354 0
M  V30 17 H 4.4779 0.0302 -1.0031 0
M  V30 18 H 4.5576 -0.3622 0.7644 0
M  V30 19 H -2.2317 -0.8259 -1.5662 0
M  V30 20 H -3.4632 0.329 -0.9922 0
M  V30 21 H -1.9393 0.9369 -1.7411 0
M  V30 22 H -1.9846 2.4237 0.3124 0
M  V30 23 H -3.2655 1.5421 1.143 0
M  V30 24 H -1.6876 1.6947 1.9663 0
M  V30 25 H -3.2951 -0.6986 1.548 0
M  V30 26 H -1.6236 -1.0064 2.1373 0
M  V30 27 H -2.3044 -1.8911 0.7201 0
M  V30 END ATOM
M  V30 BEGIN BOND
M  V30 1 1 1 2
M  V30 2 1 2 3
M  V30 3 2 2 4
M  V30 4 2 3 5
M  V30 5 1 3 6
M  V30 6 1 4 7
M  V30 7 1 4 8
M  V30 8 1 6 9
M  V30 9 1 6 10
M  V30 10 2 9 11
M  V30 11 1 10 12
M  V30 12 1 10 13
M  V30 13 1 10 14
M  V30 14 1 7 9
M  V30 15 1 7 15
M  V30 16 1 8 16
M  V30 17 1 8 17
M  V30 18 1 8 18
M  V30 19 1 12 19
M  V30 20 1 12 20
M  V30 21 1 12 21
M  V30 22 1 13 22
M  V30 23 1 13 23
M  V30 24 1 13 24
M  V30 25 1 14 25
M  V30 26 1 14 26
M  V30 27 1 14 27
M  V30 END BOND
M  V30 END CTAB
M  END
>  <Structure No>
4645

>  <LogS>
-2.4845

>  <MMFF94 Energy>
-28.47

$$$$
Compound 4646
Actelion Java MolfileCreator 2.0

  0  0  0  0  0  0              0 V3000
M  V30 BEGIN CTAB
M  V30 COUNTS 27 26 0 0 0
M  V30 BEGIN ATOM
M  V30 1 O 3.6597 1.089 1.6339 0
M  V30 2 C 4.0874 0.7171 0.5085 0
M  V30 3 N 3.2103 0.0666 -0.4132 0
M  V30 4 N 5.4509 0.9489 0.1587 0
M  V30 5 N 1.8682 -0.1617 -0.0714 0
M  V30 6 C 1.0468 -0.7463 -0.8867 0
M  V30 7 C -0.3848 -0.9789 -0.4887 0 CFG=1
M  V30 8 O -0.4081 -1.7506 0.6837 0
M  V30 9 C -1.1283 0.3644 -0.2579 0 CFG=1
M  V30 10 O -0.8028 1.2845 -1.2732 0
M  V30 11 C -2.6755 0.2109 -0.1811 0 CFG=2
M  V30 12 O -3.2827 1.48 -0.192 0
M  V30 13 C -3.1509 -0.5896 1.0477 0
M  V30 14 O -4.5506 -0.5594 1.1398 0
M  V30 15 H 3.5793 -0.2351 -1.3438 0
M  V30 16 H 6.0945 1.4241 0.8297 0
M  V30 17 H 5.8195 0.6465 -0.77 0
M  V30 18 H 1.3849 -1.0796 -1.8608 0
M  V30 19 H -0.8918 -1.5285 -1.316 0
M  V30 20 H -0.2046 -2.6855 0.4174 0
M  V30 21 H -0.7715 0.7973 0.703 0
M  V30 22 H -1.1088 0.8971 -2.1352 0
M  V30 23 H -3.0213 -0.3284 -1.09 0
M  V30 24 H -2.9751 1.9643 0.6189 0
M  V30 25 H -2.6875 -0.1906 1.9797 0
M  V30 26 H -2.8491 -1.6508 0.9417 0
M  V30 27 H -4.7894 0.2689 1.6321 0
M  V30 END ATOM
M  V30 BEGIN BOND
M  V30 1 2 1 2
M  V30 2 1 2 3
M  V30 3 1 2 4
M  V30 4 1 3 5
M  V30 5 2 5 6
M  V30 6 1 6 7
M  V30 7 1 7 8
M  V30 8 1 7 9
M  V30 9 1 9 10
M  V30 10 1 9 11
M  V30 11 1 11 12
M  V30 12 1 11 13
M  V30 13 1 13 14
M  V30 14 1 3 15
M  V30 15 1 4 16
M  V30 16 1 4 17
M  V30 17 1 6 18
M  V30 18 1 7 19
M  V30 19 1 8 20
M  V30 20 1 9 21
M  V30 21 1 10 22
M  V30 22 1 11 23
M  V30 23 1 12 24
M  V30 24 1 13 25
M  V30 25 1 13 26
M  V30 26 1 14 27
M  V30 END BOND
M  V30 BEGIN COLLECTION
M  V30 MDLV30/STEABS ATOMS=(3 7 9 11)
M  V30 END COLLECTION
M  V30 END CTAB
M  END
>  <Structure No>
4646

>  <LogS>
-0.1288

>  <MMFF94 Energy>
39.319

$$$$
Compound 4647
Actelion Java MolfileCreator 2.0

  0  0  0  0  0  0              0 V3000
M  V30 BEGIN CTAB
M  V30 COUNTS 45 46 0 0 0
M  V30 BEGIN ATOM
M  V30 1 O -1.2782 0.3993 0.1597 0
M  V30 2 C -0.7982 -0.6358 -0.6806 0 CFG=2
M  V30 3 C -2.4494 -0.0228 0.8455 0 CFG=2
M  V30 4 O 0.5198 -0.342 -1.1058 0
M  V30 5 C -1.7313 -0.7733 -1.9142 0 CFG=2
M  V30 6 C -3.5252 -0.6296 -0.1199 0 CFG=1
M  V30 7 C -3.009 1.184 1.6131 0
M  V30 8 C 1.434 -0.3389 -0.0175 0 CFG=2
M  V30 9 O -1.2322 -0.0904 -3.0405 0
M  V30 10 C -3.1788 -0.3194 -1.5896 0 CFG=1
M  V30 11 O -3.5883 -2.0234 0.0473 0
M  V30 12 O -4.0752 0.8018 2.4408 0
M  V30 13 C 1.9021 1.1029 0.249 0 CFG=2
M  V30 14 C 2.6516 -1.2254 -0.3655 0 CFG=1
M  V30 15 O -3.3216 1.0602 -1.8231 0
M  V30 16 O 2.3062 1.7255 -0.9457 0
M  V30 17 C 3.0547 1.1074 1.2728 0 CFG=2
M  V30 18 O 3.5842 -1.2447 0.7029 0
M  V30 19 C 2.2211 -2.6726 -0.6592 0
M  V30 20 O 3.6503 2.3774 1.3451 0
M  V30 21 C 4.1343 0.0376 0.9623 0 CFG=1
M  V30 22 O 1.5669 -3.2435 0.4433 0
M  V30 23 O 5.0503 0.417 -0.0388 0
M  V30 24 H -0.7945 -1.6196 -0.1461 0
M  V30 25 H -2.158 -0.7801 1.6101 0
M  V30 26 H -1.7664 -1.8531 -2.1802 0
M  V30 27 H -4.5363 -0.2045 0.0856 0
M  V30 28 H -2.2022 1.6506 2.2239 0
M  V30 29 H -3.3684 1.9513 0.8946 0
M  V30 30 H 0.9968 -0.7286 0.9356 0
M  V30 31 H -1.0436 0.8463 -2.7702 0
M  V30 32 H -3.8768 -0.8768 -2.2581 0
M  V30 33 H -4.0599 -2.187 0.9057 0
M  V30 34 H -3.6768 0.335 3.2212 0
M  V30 35 H 1.0547 1.6756 0.6958 0
M  V30 36 H 3.1319 -0.852 -1.2974 0
M  V30 37 H -4.2954 1.243 -1.8897 0
M  V30 38 H 1.4854 2.063 -1.3911 0
M  V30 39 H 2.6223 0.8504 2.2695 0
M  V30 40 H 3.1133 -3.2798 -0.936 0
M  V30 41 H 1.5333 -2.6928 -1.5313 0
M  V30 42 H 2.9993 2.9739 1.7996 0
M  V30 43 H 4.7315 -0.0652 1.8936 0
M  V30 44 H 2.2728 -3.5162 1.0855 0
M  V30 45 H 4.5536 0.8137 -0.7957 0
M  V30 END ATOM
M  V30 BEGIN BOND
M  V30 1 1 1 2
M  V30 2 1 1 3
M  V30 3 1 2 4
M  V30 4 1 2 5
M  V30 5 1 3 6
M  V30 6 1 3 7
M  V30 7 1 4 8
M  V30 8 1 5 9
M  V30 9 1 5 10
M  V30 10 1 6 11
M  V30 11 1 7 12
M  V30 12 1 8 13
M  V30 13 1 8 14
M  V30 14 1 10 15
M  V30 15 1 13 16
M  V30 16 1 13 17
M  V30 17 1 14 18
M  V30 18 1 14 19
M  V30 19 1 17 20
M  V30 20 1 17 21
M  V30 21 1 19 22
M  V30 22 1 21 23
M  V30 23 1 6 10
M  V30 24 1 18 21
M  V30 25 1 2 24
M  V30 26 1 3 25
M  V30 27 1 5 26
M  V30 28 1 6 27
M  V30 29 1 7 28
M  V30 30 1 7 29
M  V30 31 1 8 30
M  V30 32 1 9 31
M  V30 33 1 10 32
M  V30 34 1 11 33
M  V30 35 1 12 34
M  V30 36 1 13 35
M  V30 37 1 14 36
M  V30 38 1 15 37
M  V30 39 1 16 38
M  V30 40 1 17 39
M  V30 41 1 19 40
M  V30 42 1 19 41
M  V30 43 1 20 42
M  V30 44 1 21 43
M  V30 45 1 22 44
M  V30 46 1 23 45
M  V30 END BOND
M  V30 BEGIN COLLECTION
M  V30 MDLV30/STEABS ATOMS=(10 2 3 5 6 8 10 13 14 17 21)
M  V30 END COLLECTION
M  V30 END CTAB
M  END
>  <Structure No>
4647

>  <LogS>
-0.8167

>  <MMFF94 Energy>
179.35

$$$$
Compound 4648
Actelion Java MolfileCreator 2.0

  0  0  0  0  0  0              0 V3000
M  V30 BEGIN CTAB
M  V30 COUNTS 45 44 0 0 0
M  V30 BEGIN ATOM
M  V30 1 S -0.0781 0.6252 0.2344 0
M  V30 2 C -1.0686 -0.8693 0.6147 0
M  V30 3 C 0.9712 -0.1183 -1.0704 0
M  V30 4 C -2.3021 -1.0077 -0.2999 0
M  V30 5 C 2.2356 -0.765 -0.4747 0
M  V30 6 N -3.2196 0.1649 -0.2927 0 CHG=1
M  V30 7 N 3.219 0.237 0.0248 0 CHG=1
M  V30 8 C -4.3129 -0.0685 -1.273 0
M  V30 9 C -3.7158 0.5302 1.0649 0
M  V30 10 C 3.9816 -0.2939 1.1875 0
M  V30 11 C 4.09 0.7193 -1.08 0
M  V30 12 C -5.2139 1.1544 -1.4839 0
M  V30 13 C -4.5189 -0.5686 1.7759 0
M  V30 14 C 4.9048 -1.4758 0.8553 0
M  V30 15 C 5.0011 1.8793 -0.6626 0
M  V30 16 H -1.376 -0.8373 1.6792 0
M  V30 17 H -0.4422 -1.7797 0.5109 0
M  V30 18 H 0.4004 -0.8825 -1.6374 0
M  V30 19 H 1.2436 0.6766 -1.7927 0
M  V30 20 H -1.927 -1.1769 -1.3336 0
M  V30 21 H -2.8495 -1.9343 -0.0215 0
M  V30 22 H 2.6986 -1.4133 -1.2525 0
M  V30 23 H 1.91 -1.4512 0.338 0
M  V30 24 H -2.6755 0.9861 -0.6479 0
M  V30 25 H 2.6893 1.0649 0.3871 0
M  V30 26 H -4.9348 -0.9431 -0.9851 0
M  V30 27 H -3.8721 -0.3104 -2.2669 0
M  V30 28 H -2.8674 0.8286 1.7156 0
M  V30 29 H -4.3411 1.4459 1.0133 0
M  V30 30 H 3.2719 -0.6175 1.9822 0
M  V30 31 H 4.5853 0.5125 1.6562 0
M  V30 32 H 3.4628 1.0934 -1.9172 0
M  V30 33 H 4.7071 -0.1042 -1.4987 0
M  V30 34 H -5.9036 1.2893 -0.6252 0
M  V30 35 H -5.8357 1.0024 -2.3915 0
M  V30 36 H -4.604 2.0716 -1.6252 0
M  V30 37 H -5.4355 -0.8301 1.2105 0
M  V30 38 H -3.9044 -1.4756 1.943 0
M  V30 39 H -4.8372 -0.1938 2.7716 0
M  V30 40 H 5.3126 -1.8945 1.7993 0
M  V30 41 H 5.7648 -1.1461 0.2374 0
M  V30 42 H 4.3545 -2.2836 0.331 0
M  V30 43 H 5.4685 2.3249 -1.5661 0
M  V30 44 H 5.8177 1.5226 -0.0019 0
M  V30 45 H 4.4166 2.6681 -0.1434 0
M  V30 END ATOM
M  V30 BEGIN BOND
M  V30 1 1 1 2
M  V30 2 1 1 3
M  V30 3 1 2 4
M  V30 4 1 3 5
M  V30 5 1 4 6
M  V30 6 1 5 7
M  V30 7 1 6 8
M  V30 8 1 6 9
M  V30 9 1 7 10
M  V30 10 1 7 11
M  V30 11 1 8 12
M  V30 12 1 9 13
M  V30 13 1 10 14
M  V30 14 1 11 15
M  V30 15 1 2 16
M  V30 16 1 2 17
M  V30 17 1 3 18
M  V30 18 1 3 19
M  V30 19 1 4 20
M  V30 20 1 4 21
M  V30 21 1 5 22
M  V30 22 1 5 23
M  V30 23 1 6 24
M  V30 24 1 7 25
M  V30 25 1 8 26
M  V30 26 1 8 27
M  V30 27 1 9 28
M  V30 28 1 9 29
M  V30 29 1 10 30
M  V30 30 1 10 31
M  V30 31 1 11 32
M  V30 32 1 11 33
M  V30 33 1 12 34
M  V30 34 1 12 35
M  V30 35 1 12 36
M  V30 36 1 13 37
M  V30 37 1 13 38
M  V30 38 1 13 39
M  V30 39 1 14 40
M  V30 40 1 14 41
M  V30 41 1 14 42
M  V30 42 1 15 43
M  V30 43 1 15 44
M  V30 44 1 15 45
M  V30 END BOND
M  V30 END CTAB
M  END
>  <Structure No>
4648

>  <LogS>
-2.3663

>  <MMFF94 Energy>
100.48

$$$$
Compound 4649
Actelion Java MolfileCreator 2.0

  0  0  0  0  0  0              0 V3000
M  V30 BEGIN CTAB
M  V30 COUNTS 28 28 0 0 0
M  V30 BEGIN ATOM
M  V30 1 O 1.3552 -3.1113 -0.1593 0
M  V30 2 C 0.2071 -2.7622 0.2221 0
M  V30 3 O -0.3128 -3.279 1.4022 0 CHG=-1
M  V30 4 C -0.5789 -1.7591 -0.5674 0
M  V30 5 C -0.4847 -0.3468 0.0539 0 CFG=1
M  V30 6 C 0.9576 0.1322 0.1121 0
M  V30 7 C -1.3525 0.6791 -0.7099 0
M  V30 8 C 1.5709 0.373 1.3554 0
M  V30 9 C 1.7038 0.3331 -1.0658 0
M  V30 10 C -2.826 0.4555 -0.4875 0
M  V30 11 C 2.8991 0.8056 1.4178 0
M  V30 12 C 3.0313 0.7658 -0.9974 0
M  V30 13 O -3.4333 -0.3425 -1.1853 0
M  V30 14 C -3.5592 1.2293 0.5663 0
M  V30 15 C 3.6285 1.002 0.2429 0
M  V30 16 H -0.2236 -1.7475 -1.6208 0
M  V30 17 H -1.636 -2.0968 -0.5793 0
M  V30 18 H -0.8852 -0.4107 1.0919 0
M  V30 19 H -1.0973 1.7037 -0.3586 0
M  V30 20 H -1.1349 0.6454 -1.7997 0
M  V30 21 H 1.0236 0.2244 2.278 0
M  V30 22 H 1.2602 0.1543 -2.0367 0
M  V30 23 H 3.3633 0.9881 2.3784 0
M  V30 24 H 3.5977 0.9175 -1.9071 0
M  V30 25 H -4.6148 0.8904 0.6392 0
M  V30 26 H -3.0671 1.0794 1.55 0
M  V30 27 H -3.546 2.3099 0.3121 0
M  V30 28 H 4.6564 1.3365 0.2938 0
M  V30 END ATOM
M  V30 BEGIN BOND
M  V30 1 2 1 2
M  V30 2 1 2 3
M  V30 3 1 2 4
M  V30 4 1 4 5
M  V30 5 1 5 6
M  V30 6 1 5 7
M  V30 7 2 6 8
M  V30 8 1 6 9
M  V30 9 1 7 10
M  V30 10 1 8 11
M  V30 11 2 9 12
M  V30 12 2 10 13
M  V30 13 1 10 14
M  V30 14 2 11 15
M  V30 15 1 12 15
M  V30 16 1 4 16
M  V30 17 1 4 17
M  V30 18 1 5 18
M  V30 19 1 7 19
M  V30 20 1 7 20
M  V30 21 1 8 21
M  V30 22 1 9 22
M  V30 23 1 11 23
M  V30 24 1 12 24
M  V30 25 1 14 25
M  V30 26 1 14 26
M  V30 27 1 14 27
M  V30 28 1 15 28
M  V30 END BOND
M  V30 BEGIN COLLECTION
M  V30 MDLV30/STEABS ATOMS=(1 5)
M  V30 END COLLECTION
M  V30 END CTAB
M  END
>  <Structure No>
4649

>  <LogS>
-1.4463

>  <MMFF94 Energy>
22.396

$$$$
Compound 4650
Actelion Java MolfileCreator 2.0

  0  0  0  0  0  0              0 V3000
M  V30 BEGIN CTAB
M  V30 COUNTS 28 28 0 0 0
M  V30 BEGIN ATOM
M  V30 1 O 2.3864 0.3289 2.8806 0
M  V30 2 N 1.2874 0.317 2.2882 0 CHG=1
M  V30 3 O 0.1302 0.4077 3.0277 0 CHG=-1
M  V30 4 N 1.2303 0.2518 0.8796 0
M  V30 5 C -0.0476 0.1727 0.2184 0
M  V30 6 C 2.462 0.3117 0.0768 0
M  V30 7 C -0.8625 -0.9837 0.3505 0
M  V30 8 C -0.5012 1.2619 -0.5662 0
M  V30 9 C 3.1186 -1.0594 -0.0194 0
M  V30 10 N -0.4776 -2.1063 1.171 0 CHG=1
M  V30 11 C -2.0882 -1.0399 -0.3331 0
M  V30 12 N 0.2431 2.4924 -0.6367 0 CHG=1
M  V30 13 C -1.7182 1.1593 -1.2572 0
M  V30 14 O 0.7214 -2.3622 1.3984 0
M  V30 15 O -1.434 -2.9771 1.6412 0 CHG=-1
M  V30 16 C -2.5182 0.0158 -1.149 0
M  V30 17 O 0.1619 3.2205 -1.6476 0
M  V30 18 O 0.9304 2.9578 0.4605 0 CHG=-1
M  V30 19 N -3.7707 -0.0651 -1.856 0 CHG=1
M  V30 20 O -4.4939 -1.0783 -1.7584 0
M  V30 21 O -4.1908 0.972 -2.6571 0 CHG=-1
M  V30 22 H 3.1744 1.0334 0.5309 0
M  V30 23 H 2.2428 0.6699 -0.9522 0
M  V30 24 H 2.4456 -1.7671 -0.5476 0
M  V30 25 H 4.0656 -0.9782 -0.5931 0
M  V30 26 H 3.3494 -1.4511 0.9934 0
M  V30 27 H -2.7051 -1.9245 -0.2429 0
M  V30 28 H -2.0566 1.9929 -1.8591 0
M  V30 END ATOM
M  V30 BEGIN BOND
M  V30 1 2 1 2
M  V30 2 1 2 3
M  V30 3 1 2 4
M  V30 4 1 4 5
M  V30 5 1 4 6
M  V30 6 2 5 7
M  V30 7 1 5 8
M  V30 8 1 6 9
M  V30 9 1 7 10
M  V30 10 1 7 11
M  V30 11 1 8 12
M  V30 12 2 8 13
M  V30 13 2 10 14
M  V30 14 1 10 15
M  V30 15 2 11 16
M  V30 16 2 12 17
M  V30 17 1 12 18
M  V30 18 1 16 19
M  V30 19 2 19 20
M  V30 20 1 19 21
M  V30 21 1 13 16
M  V30 22 1 6 22
M  V30 23 1 6 23
M  V30 24 1 9 24
M  V30 25 1 9 25
M  V30 26 1 9 26
M  V30 27 1 11 27
M  V30 28 1 13 28
M  V30 END BOND
M  V30 END CTAB
M  END
>  <Structure No>
4650

>  <LogS>
-3.7007

>  <MMFF94 Energy>
77.273

$$$$
Compound 4651
Actelion Java MolfileCreator 2.0

  0  0  0  0  0  0              0 V3000
M  V30 BEGIN CTAB
M  V30 COUNTS 28 29 0 0 0
M  V30 BEGIN ATOM
M  V30 1 N 3.791 2.131 4.4239 0
M  V30 2 C 2.9254 1.6504 3.3922 0
M  V30 3 C 1.5774 1.3803 3.6705 0
M  V30 4 C 3.4186 1.4458 2.0953 0
M  V30 5 C 0.7308 0.9101 2.6615 0
M  V30 6 C 2.5722 0.9756 1.0863 0
M  V30 7 C 1.2264 0.7069 1.3674 0
M  V30 8 C 0.3554 0.223 0.3292 0
M  V30 9 C -0.3742 -0.1822 -0.5404 0
M  V30 10 C -1.2452 -0.6662 -1.5785 0
M  V30 11 C -0.7406 -0.9069 -2.8628 0
M  V30 12 C -2.5997 -0.8979 -1.3072 0
M  V30 13 C -1.5872 -1.3775 -3.8716 0
M  V30 14 C -3.4461 -1.3685 -2.3161 0
M  V30 15 C -2.944 -1.6105 -3.603 0
M  V30 16 N -3.8095 -2.0916 -4.6346 0
M  V30 17 H 3.433 2.2859 5.3929 0
M  V30 18 H 4.7959 2.3353 4.2265 0
M  V30 19 H 1.1839 1.534 4.6675 0
M  V30 20 H 4.4571 1.6504 1.8672 0
M  V30 21 H -0.3083 0.7055 2.89 0
M  V30 22 H 2.966 0.8218 0.0888 0
M  V30 23 H 0.3054 -0.7312 -3.0835 0
M  V30 24 H -3.0006 -0.715 -0.3173 0
M  V30 25 H -1.1868 -1.5603 -4.8608 0
M  V30 26 H -4.4915 -1.5443 -2.0955 0
M  V30 27 H -3.4452 -2.2741 -5.5962 0
M  V30 28 H -4.8211 -2.2688 -4.4442 0
M  V30 END ATOM
M  V30 BEGIN BOND
M  V30 1 1 1 2
M  V30 2 2 2 3
M  V30 3 1 2 4
M  V30 4 1 3 5
M  V30 5 2 4 6
M  V30 6 2 5 7
M  V30 7 1 7 8
M  V30 8 3 8 9
M  V30 9 1 9 10
M  V30 10 2 10 11
M  V30 11 1 10 12
M  V30 12 1 11 13
M  V30 13 2 12 14
M  V30 14 2 13 15
M  V30 15 1 15 16
M  V30 16 1 6 7
M  V30 17 1 14 15
M  V30 18 1 1 17
M  V30 19 1 1 18
M  V30 20 1 3 19
M  V30 21 1 4 20
M  V30 22 1 5 21
M  V30 23 1 6 22
M  V30 24 1 11 23
M  V30 25 1 12 24
M  V30 26 1 13 25
M  V30 27 1 14 26
M  V30 28 1 16 27
M  V30 29 1 16 28
M  V30 END BOND
M  V30 END CTAB
M  END
>  <Structure No>
4651

>  <LogS>
-2.4326

>  <MMFF94 Energy>
12.633

$$$$
Compound 4652
Actelion Java MolfileCreator 2.0

  0  0  0  0  0  0              0 V3000
M  V30 BEGIN CTAB
M  V30 COUNTS 27 28 0 0 0
M  V30 BEGIN ATOM
M  V30 1 O -1.2147 -2.5117 1.701 0
M  V30 2 C -2.2974 -2.1136 1.1956 0
M  V30 3 O -3.4517 -2.858 1.4103 0 CHG=-1
M  V30 4 C -2.3614 -0.8455 0.4276 0
M  V30 5 C -1.231 -0.2817 -0.2257 0
M  V30 6 C -3.5858 -0.1523 0.3889 0
M  V30 7 C 0.0631 -0.9957 -0.3332 0
M  V30 8 C -1.3544 0.9661 -0.8625 0
M  V30 9 C -3.6886 1.0816 -0.2546 0
M  V30 10 O 0.0647 -2.1854 -0.7512 0
M  V30 11 C 1.3483 -0.3328 0.0148 0
M  V30 12 C -2.5737 1.6433 -0.8725 0
M  V30 13 C 2.5661 -0.7383 -0.5772 0
M  V30 14 C 1.3671 0.707 0.9652 0
M  V30 15 O 2.5866 -1.7557 -1.5313 0
M  V30 16 C 3.7652 -0.1054 -0.2158 0
M  V30 17 C 2.567 1.3312 1.314 0
M  V30 18 C 3.764 0.9256 0.7246 0
M  V30 19 H -4.4636 -0.554 0.8798 0
M  V30 20 H -0.5072 1.4072 -1.3738 0
M  V30 21 H -4.6348 1.6072 -0.2678 0
M  V30 22 H -2.6566 2.6006 -1.3705 0
M  V30 23 H 0.455 1.0295 1.4515 0
M  V30 24 H 3.4489 -2.0568 -1.9698 0
M  V30 25 H 4.7 -0.4109 -0.668 0
M  V30 26 H 2.5687 2.1278 2.0468 0
M  V30 27 H 4.6926 1.41 0.9977 0
M  V30 END ATOM
M  V30 BEGIN BOND
M  V30 1 2 1 2
M  V30 2 1 2 3
M  V30 3 1 2 4
M  V30 4 2 4 5
M  V30 5 1 4 6
M  V30 6 1 5 7
M  V30 7 1 5 8
M  V30 8 2 6 9
M  V30 9 2 7 10
M  V30 10 1 7 11
M  V30 11 2 8 12
M  V30 12 2 11 13
M  V30 13 1 11 14
M  V30 14 1 13 15
M  V30 15 1 13 16
M  V30 16 2 14 17
M  V30 17 2 16 18
M  V30 18 1 9 12
M  V30 19 1 17 18
M  V30 20 1 6 19
M  V30 21 1 8 20
M  V30 22 1 9 21
M  V30 23 1 12 22
M  V30 24 1 14 23
M  V30 25 1 15 24
M  V30 26 1 16 25
M  V30 27 1 17 26
M  V30 28 1 18 27
M  V30 END BOND
M  V30 END CTAB
M  END
>  <Structure No>
4652

>  <LogS>
-2.3428

>  <MMFF94 Energy>
67.91

$$$$
Compound 4653
Actelion Java MolfileCreator 2.0

  0  0  0  0  0  0              0 V3000
M  V30 BEGIN CTAB
M  V30 COUNTS 42 42 0 0 0
M  V30 BEGIN ATOM
M  V30 1 O 6.0151 -1.5012 -1.1675 0
M  V30 2 N 5.4927 -0.8544 -2.1 0 CHG=1
M  V30 3 O 5.9738 -1.0394 -3.3761 0 CHG=-1
M  V30 4 C 4.2119 -0.1592 -1.9007 0
M  V30 5 N 4.1027 0.9226 -2.8955 0 CHG=1
M  V30 6 N 3.113 -1.1193 -2.0759 0 CHG=1
M  V30 7 C 4.1467 0.4308 -0.4687 0
M  V30 8 O 4.691 2.008 -2.7052 0
M  V30 9 O 3.6622 0.6353 -4.1679 0 CHG=-1
M  V30 10 O 1.9863 -0.7303 -2.4487 0
M  V30 11 O 3.2393 -2.3987 -1.5851 0 CHG=-1
M  V30 12 O 2.9915 1.2538 -0.2982 0
M  V30 13 C 1.7799 0.8007 0.2406 0
M  V30 14 O 1.683 -0.3773 0.6808 0
M  V30 15 C 0.6396 1.7413 0.3574 0
M  V30 16 C -0.7203 1.3191 0.3754 0
M  V30 17 C 0.9306 3.1083 0.5246 0
M  V30 18 C -1.1414 -0.0686 0.0832 0
M  V30 19 C -1.7291 2.2671 0.6254 0
M  V30 20 C -0.0885 4.0347 0.7475 0
M  V30 21 O -0.5321 -0.7513 -0.7849 0
M  V30 22 O -2.2612 -0.5967 0.7327 0
M  V30 23 C -1.4142 3.6133 0.8096 0
M  V30 24 C -2.7488 -1.9127 0.484 0
M  V30 25 C -3.9945 -2.2045 1.3505 0
M  V30 26 N -4.58 -3.476 0.9005 0 CHG=1
M  V30 27 N -4.9849 -1.1241 1.2109 0 CHG=1
M  V30 28 N -3.6023 -2.3159 2.7654 0 CHG=1
M  V30 29 O -5.4848 -3.4854 0.0396 0
M  V30 30 O -3.9471 -4.6598 1.2046 0 CHG=-1
M  V30 31 O -5.1746 -0.5797 0.1025 0
M  V30 32 O -5.899 -0.9042 2.216 0 CHG=-1
M  V30 33 O -4.2751 -3.0245 3.5434 0
M  V30 34 O -2.7131 -1.4158 3.3075 0 CHG=-1
M  V30 35 H 5.0454 1.0606 -0.2948 0
M  V30 36 H 4.171 -0.3765 0.296 0
M  V30 37 H 1.9551 3.4601 0.5149 0
M  V30 38 H -2.7711 1.9701 0.6476 0
M  V30 39 H 0.1525 5.0809 0.8859 0
M  V30 40 H -2.2022 4.3336 0.9889 0
M  V30 41 H -3.0111 -2.006 -0.593 0
M  V30 42 H -1.9519 -2.6544 0.7126 0
M  V30 END ATOM
M  V30 BEGIN BOND
M  V30 1 2 1 2
M  V30 2 1 2 3
M  V30 3 1 2 4
M  V30 4 1 4 5
M  V30 5 1 4 6
M  V30 6 1 4 7
M  V30 7 2 5 8
M  V30 8 1 5 9
M  V30 9 2 6 10
M  V30 10 1 6 11
M  V30 11 1 7 12
M  V30 12 1 12 13
M  V30 13 2 13 14
M  V30 14 1 13 15
M  V30 15 2 15 16
M  V30 16 1 15 17
M  V30 17 1 16 18
M  V30 18 1 16 19
M  V30 19 2 17 20
M  V30 20 2 18 21
M  V30 21 1 18 22
M  V30 22 2 19 23
M  V30 23 1 22 24
M  V30 24 1 24 25
M  V30 25 1 25 26
M  V30 26 1 25 27
M  V30 27 1 25 28
M  V30 28 2 26 29
M  V30 29 1 26 30
M  V30 30 2 27 31
M  V30 31 1 27 32
M  V30 32 2 28 33
M  V30 33 1 28 34
M  V30 34 1 20 23
M  V30 35 1 7 35
M  V30 36 1 7 36
M  V30 37 1 17 37
M  V30 38 1 19 38
M  V30 39 1 20 39
M  V30 40 1 23 40
M  V30 41 1 24 41
M  V30 42 1 24 42
M  V30 END BOND
M  V30 END CTAB
M  END
>  <Structure No>
4653

>  <LogS>
-3.5782

>  <MMFF94 Energy>
-186.18

$$$$
Compound 4654
Actelion Java MolfileCreator 2.0

  0  0  0  0  0  0              0 V3000
M  V30 BEGIN CTAB
M  V30 COUNTS 15 14 0 0 0
M  V30 BEGIN ATOM
M  V30 1 Cl -3.1496 -0.4252 -0.7654 0
M  V30 2 C -1.84 0.4509 0.0724 0
M  V30 3 Cl -2.1951 0.4275 1.8233 0
M  V30 4 Cl -1.8879 2.1417 -0.5006 0
M  V30 5 C -0.477 -0.2122 -0.2417 0 CFG=2
M  V30 6 O -0.4958 -1.5546 0.1793 0
M  V30 7 C 0.7067 0.5067 0.4393 0
M  V30 8 C 2.0479 -0.0875 0.012 0
M  V30 9 H -0.316 -0.1564 -1.3456 0
M  V30 10 H -0.7991 -2.1021 -0.5911 0
M  V30 11 H 0.6196 0.4269 1.5442 0
M  V30 12 H 0.7109 1.584 0.1708 0
M  V30 13 H 2.1723 -0.0083 -1.0888 0
M  V30 14 H 2.8737 0.4697 0.5024 0
M  V30 15 H 2.1159 -1.1541 0.3135 0
M  V30 END ATOM
M  V30 BEGIN BOND
M  V30 1 1 1 2
M  V30 2 1 2 3
M  V30 3 1 2 4
M  V30 4 1 2 5
M  V30 5 1 5 6
M  V30 6 1 5 7
M  V30 7 1 7 8
M  V30 8 1 5 9
M  V30 9 1 6 10
M  V30 10 1 7 11
M  V30 11 1 7 12
M  V30 12 1 8 13
M  V30 13 1 8 14
M  V30 14 1 8 15
M  V30 END BOND
M  V30 BEGIN COLLECTION
M  V30 MDLV30/STEABS ATOMS=(1 5)
M  V30 END COLLECTION
M  V30 END CTAB
M  END
>  <Structure No>
4654

>  <LogS>
-0.9481

>  <MMFF94 Energy>
49.75

$$$$
Compound 4655
Actelion Java MolfileCreator 2.0

  0  0  0  0  0  0              0 V3000
M  V30 BEGIN CTAB
M  V30 COUNTS 23 23 0 0 0
M  V30 BEGIN ATOM
M  V30 1 O 1.9589 1.0966 -0.6265 0
M  V30 2 C 0.9291 0.1383 -0.539 0
M  V30 3 C 3.0967 0.4879 -0.1003 0
M  V30 4 O 1.3327 -0.9657 0.2365 0
M  V30 5 C -0.3133 0.7927 0.0831 0
M  V30 6 C 2.7217 -0.9282 0.2225 0
M  V30 7 C -1.5097 -0.1737 0.253 0
M  V30 8 C -2.6144 0.5027 1.0755 0
M  V30 9 C -2.0754 -0.6325 -1.0994 0
M  V30 10 H 0.6936 -0.2071 -1.5684 0
M  V30 11 H 3.9231 0.5221 -0.8421 0
M  V30 12 H 3.4049 1.0284 0.8206 0
M  V30 13 H -0.0238 1.1914 1.0808 0
M  V30 14 H -0.6196 1.6591 -0.5439 0
M  V30 15 H 3.1027 -1.6246 -0.5566 0
M  V30 16 H 3.1191 -1.2302 1.2149 0
M  V30 17 H -1.1779 -1.0726 0.8177 0
M  V30 18 H -2.2256 0.7967 2.0738 0
M  V30 19 H -3.4619 -0.1981 1.2329 0
M  V30 20 H -2.9905 1.4099 0.5553 0
M  V30 21 H -1.3398 -1.2642 -1.638 0
M  V30 22 H -2.9869 -1.2489 -0.946 0
M  V30 23 H -2.3392 0.2417 -1.7324 0
M  V30 END ATOM
M  V30 BEGIN BOND
M  V30 1 1 1 2
M  V30 2 1 1 3
M  V30 3 1 2 4
M  V30 4 1 2 5
M  V30 5 1 3 6
M  V30 6 1 5 7
M  V30 7 1 7 8
M  V30 8 1 7 9
M  V30 9 1 4 6
M  V30 10 1 2 10
M  V30 11 1 3 11
M  V30 12 1 3 12
M  V30 13 1 5 13
M  V30 14 1 5 14
M  V30 15 1 6 15
M  V30 16 1 6 16
M  V30 17 1 7 17
M  V30 18 1 8 18
M  V30 19 1 8 19
M  V30 20 1 8 20
M  V30 21 1 9 21
M  V30 22 1 9 22
M  V30 23 1 9 23
M  V30 END BOND
M  V30 END CTAB
M  END
>  <Structure No>
4655

>  <LogS>
-0.3695

>  <MMFF94 Energy>
14.662

$$$$
Compound 4656
Actelion Java MolfileCreator 2.0

  0  0  0  0  0  0              0 V3000
M  V30 BEGIN CTAB
M  V30 COUNTS 28 28 0 0 0
M  V30 BEGIN ATOM
M  V30 1 O -1.1034 2.7603 1.3399 0
M  V30 2 C -0.6379 1.9949 0.4535 0
M  V30 3 N 0.7765 1.718 0.4631 0
M  V30 4 C -1.618 1.3303 -0.4927 0
M  V30 5 C 1.5605 1.3139 -0.7025 0
M  V30 6 C -2.3003 0.1008 0.1514 0
M  V30 7 C 2.3681 0.0116 -0.4792 0
M  V30 8 C -1.8471 -1.272 -0.3996 0
M  V30 9 C 1.9292 -0.9544 0.6504 0
M  V30 10 C -0.3275 -1.4873 -0.5182 0
M  V30 11 C 0.4249 -1.2564 0.8054 0
M  V30 12 H 1.312 1.9783 1.3222 0
M  V30 13 H -1.1844 1.0824 -1.4773 0
M  V30 14 H -2.4072 2.08 -0.7211 0
M  V30 15 H 2.2718 2.1339 -0.9408 0
M  V30 16 H 0.9346 1.2181 -1.6069 0
M  V30 17 H -3.3943 0.176 -0.0347 0
M  V30 18 H -2.1987 0.1187 1.2583 0
M  V30 19 H 2.396 -0.5515 -1.4374 0
M  V30 20 H 3.424 0.293 -0.2726 0
M  V30 21 H -2.2921 -1.4094 -1.4092 0
M  V30 22 H -2.2708 -2.0679 0.2507 0
M  V30 23 H 2.4607 -1.9181 0.4929 0
M  V30 24 H 2.2974 -0.5508 1.619 0
M  V30 25 H -0.1435 -2.533 -0.8474 0
M  V30 26 H 0.0475 -0.8505 -1.3358 0
M  V30 27 H 0.3147 -2.1689 1.431 0
M  V30 28 H -0.0292 -0.4505 1.406 0
M  V30 END ATOM
M  V30 BEGIN BOND
M  V30 1 2 1 2
M  V30 2 1 2 3
M  V30 3 1 2 4
M  V30 4 1 3 5
M  V30 5 1 4 6
M  V30 6 1 5 7
M  V30 7 1 6 8
M  V30 8 1 7 9
M  V30 9 1 8 10
M  V30 10 1 9 11
M  V30 11 1 10 11
M  V30 12 1 3 12
M  V30 13 1 4 13
M  V30 14 1 4 14
M  V30 15 1 5 15
M  V30 16 1 5 16
M  V30 17 1 6 17
M  V30 18 1 6 18
M  V30 19 1 7 19
M  V30 20 1 7 20
M  V30 21 1 8 21
M  V30 22 1 8 22
M  V30 23 1 9 23
M  V30 24 1 9 24
M  V30 25 1 10 25
M  V30 26 1 10 26
M  V30 27 1 11 27
M  V30 28 1 11 28
M  V30 END BOND
M  V30 END CTAB
M  END
>  <Structure No>
4656

>  <LogS>
-1.0737

>  <MMFF94 Energy>
-10.233

$$$$
Compound 4657
Actelion Java MolfileCreator 2.0

  0  0  0  0  0  0              0 V3000
M  V30 BEGIN CTAB
M  V30 COUNTS 7 6 0 0 0
M  V30 BEGIN ATOM
M  V30 1 Cl 1.8174 -0.8689 0.3948 0
M  V30 2 N 0.7365 0.2332 -0.4161 0
M  V30 3 C -0.6301 -0.1067 -0.0396 0
M  V30 4 H 0.9416 1.1879 -0.042 0
M  V30 5 H -1.3342 0.5989 -0.5287 0
M  V30 6 H -0.7625 -0.0382 1.0624 0
M  V30 7 H -0.8728 -1.1354 -0.381 0
M  V30 END ATOM
M  V30 BEGIN BOND
M  V30 1 1 1 2
M  V30 2 1 2 3
M  V30 3 1 2 4
M  V30 4 1 3 5
M  V30 5 1 3 6
M  V30 6 1 3 7
M  V30 END BOND
M  V30 END CTAB
M  END
>  <Structure No>
4657

>  <LogS>
0.2806

>  <MMFF94 Energy>
-0.28275

$$$$
Compound 4658
Actelion Java MolfileCreator 2.0

  0  0  0  0  0  0              0 V3000
M  V30 BEGIN CTAB
M  V30 COUNTS 12 11 0 0 0
M  V30 BEGIN ATOM
M  V30 1 S -1.233 -1.7618 -0.176 0
M  V30 2 C -0.5251 -0.1288 -0.6021 0 CFG=1
M  V30 3 C -1.2933 0.9933 0.0409 0
M  V30 4 C 0.9779 -0.0542 -0.2892 0
M  V30 5 O -1.4834 2.0652 -0.592 0
M  V30 6 O -1.7543 0.8841 1.3479 0 CHG=-1
M  V30 7 S 1.3459 -0.1281 1.4972 0
M  V30 8 H -1.0546 -1.6335 1.2131 0
M  V30 9 H -0.6351 -0.0281 -1.704 0
M  V30 10 H 1.3903 0.895 -0.6939 0
M  V30 11 H 1.5007 -0.8934 -0.7955 0
M  V30 12 H 2.7338 -0.0328 1.2811 0
M  V30 END ATOM
M  V30 BEGIN BOND
M  V30 1 1 1 2
M  V30 2 1 2 3
M  V30 3 1 2 4
M  V30 4 2 3 5
M  V30 5 1 3 6
M  V30 6 1 4 7
M  V30 7 1 1 8
M  V30 8 1 2 9
M  V30 9 1 4 10
M  V30 10 1 4 11
M  V30 11 1 7 12
M  V30 END BOND
M  V30 BEGIN COLLECTION
M  V30 MDLV30/STEABS ATOMS=(1 2)
M  V30 END COLLECTION
M  V30 END CTAB
M  END
>  <Structure No>
4658

>  <LogS>
-0.2374

>  <MMFF94 Energy>
45.934

$$$$
Compound 4659
Actelion Java MolfileCreator 2.0

  0  0  0  0  0  0              0 V3000
M  V30 BEGIN CTAB
M  V30 COUNTS 14 14 0 0 0
M  V30 BEGIN ATOM
M  V30 1 O -2.9319 1.8724 0.4068 0
M  V30 2 N -2.658 0.6568 0.345 0 CHG=1
M  V30 3 O -3.6749 -0.2692 0.3642 0 CHG=-1
M  V30 4 C -1.2959 0.2345 0.2552 0
M  V30 5 O -0.2756 1.0584 0.2318 0
M  V30 6 C -0.866 -1.0726 0.1814 0
M  V30 7 C 0.8289 0.3512 0.1449 0
M  V30 8 C 0.5096 -1.0021 0.1097 0
M  V30 9 C 2.1619 0.9926 0.0976 0
M  V30 10 N 3.2914 0.3565 0.0122 0
M  V30 11 O 3.3951 -1.0128 -0.0461 0 CHG=-1
M  V30 12 H -1.4742 -1.9674 0.1798 0
M  V30 13 H 1.1697 -1.8529 0.0413 0
M  V30 14 H 2.191 2.0735 0.1377 0
M  V30 END ATOM
M  V30 BEGIN BOND
M  V30 1 2 1 2
M  V30 2 1 2 3
M  V30 3 1 2 4
M  V30 4 1 4 5
M  V30 5 2 4 6
M  V30 6 1 5 7
M  V30 7 1 6 8
M  V30 8 1 7 9
M  V30 9 2 9 10
M  V30 10 1 10 11
M  V30 11 2 7 8
M  V30 12 1 6 12
M  V30 13 1 8 13
M  V30 14 1 9 14
M  V30 END BOND
M  V30 END CTAB
M  END
>  <Structure No>
4659

>  <LogS>
-2.1934

>  <MMFF94 Energy>
78.366

$$$$
Compound 4660
Actelion Java MolfileCreator 2.0

  0  0  0  0  0  0              0 V3000
M  V30 BEGIN CTAB
M  V30 COUNTS 31 32 0 0 0
M  V30 BEGIN ATOM
M  V30 1 O 0.1599 1.6808 -1.4405 0
M  V30 2 C -0.6007 0.961 -0.7387 0
M  V30 3 N -0.4939 -0.478 -0.8275 0
M  V30 4 C -1.5581 1.6444 0.2045 0
M  V30 5 C 0.816 -1.0769 -0.9272 0
M  V30 6 C -1.6679 -1.3577 -1.0012 0
M  V30 7 C -2.3298 0.6686 1.1002 0
M  V30 8 O 0.9767 -2.1022 -1.645 0
M  V30 9 C 1.9848 -0.5237 -0.2005 0
M  V30 10 C -3.013 -0.616 -1.0297 0
M  V30 11 C -3.4376 -0.0832 0.3472 0
M  V30 12 C 3.2777 -0.6617 -0.7368 0
M  V30 13 C 1.8274 0.111 1.0451 0
M  V30 14 C 4.3855 -0.1517 -0.0528 0
M  V30 15 C 2.9381 0.6192 1.7253 0
M  V30 16 C 4.2156 0.4907 1.1757 0
M  V30 17 H -2.2687 2.2716 -0.376 0
M  V30 18 H -0.9689 2.3238 0.8575 0
M  V30 19 H -1.6807 -2.1194 -0.1914 0
M  V30 20 H -1.5708 -1.8993 -1.9673 0
M  V30 21 H -1.6297 -0.0554 1.5709 0
M  V30 22 H -2.8007 1.2413 1.9285 0
M  V30 23 H -2.978 0.2103 -1.7723 0
M  V30 24 H -3.7975 -1.3211 -1.3808 0
M  V30 25 H -4.3067 0.5957 0.207 0
M  V30 26 H -3.7801 -0.9322 0.9781 0
M  V30 27 H 3.4289 -1.153 -1.6899 0
M  V30 28 H 0.8511 0.1986 1.5022 0
M  V30 29 H 5.3763 -0.2549 -0.4758 0
M  V30 30 H 2.8086 1.1074 2.6826 0
M  V30 31 H 5.0744 0.8839 1.7042 0
M  V30 END ATOM
M  V30 BEGIN BOND
M  V30 1 2 1 2
M  V30 2 1 2 3
M  V30 3 1 2 4
M  V30 4 1 3 5
M  V30 5 1 3 6
M  V30 6 1 4 7
M  V30 7 2 5 8
M  V30 8 1 5 9
M  V30 9 1 6 10
M  V30 10 1 7 11
M  V30 11 2 9 12
M  V30 12 1 9 13
M  V30 13 1 12 14
M  V30 14 2 13 15
M  V30 15 2 14 16
M  V30 16 1 10 11
M  V30 17 1 15 16
M  V30 18 1 4 17
M  V30 19 1 4 18
M  V30 20 1 6 19
M  V30 21 1 6 20
M  V30 22 1 7 21
M  V30 23 1 7 22
M  V30 24 1 10 23
M  V30 25 1 10 24
M  V30 26 1 11 25
M  V30 27 1 11 26
M  V30 28 1 12 27
M  V30 29 1 13 28
M  V30 30 1 14 29
M  V30 31 1 15 30
M  V30 32 1 16 31
M  V30 END BOND
M  V30 END CTAB
M  END
>  <Structure No>
4660

>  <LogS>
-2.1667

>  <MMFF94 Energy>
14.072

$$$$
Compound 4661
Actelion Java MolfileCreator 2.0

  0  0  0  0  0  0              0 V3000
M  V30 BEGIN CTAB
M  V30 COUNTS 43 46 0 0 0
M  V30 BEGIN ATOM
M  V30 1 O -7.6625 2.0927 0.9654 0
M  V30 2 C -6.3381 1.8167 0.6339 0
M  V30 3 C -5.434 2.8705 0.4662 0
M  V30 4 C -5.9036 0.4948 0.467 0
M  V30 5 C -4.1015 2.6079 0.1335 0
M  V30 6 C -4.5715 0.2299 0.1342 0
M  V30 7 C -3.6606 1.2894 -0.0347 0
M  V30 8 N -2.2893 1.0547 -0.3753 0
M  V30 9 N -1.8258 -0.1186 -0.5421 0
M  V30 10 C -0.4526 -0.3637 -0.8833 0
M  V30 11 C 0.0063 -1.6883 -1.0544 0
M  V30 12 C 0.4425 0.704 -1.058 0
M  V30 13 C 1.3686 -1.928 -1.3868 0
M  V30 14 C -0.8673 -2.7837 -0.9019 0
M  V30 15 C 1.7753 0.4675 -1.3864 0
M  V30 16 C 2.2577 -0.8412 -1.5264 0
M  V30 17 C 1.8137 -3.2543 -1.5543 0
M  V30 18 C -0.4047 -4.0891 -1.0747 0
M  V30 19 N 3.6304 -1.0677 -1.895 0
M  V30 20 C 0.93 -4.3233 -1.3997 0
M  V30 21 N 4.6487 -0.5062 -1.3611 0
M  V30 22 C 4.6296 0.3289 -0.1921 0
M  V30 23 C 3.8983 -0.0313 0.9544 0
M  V30 24 C 5.4298 1.4784 -0.1631 0
M  V30 25 C 3.9259 0.7834 2.0903 0
M  V30 26 C 5.4561 2.2912 0.9746 0
M  V30 27 C 4.6998 1.9471 2.0986 0
M  V30 28 H -8.3416 1.3515 1.0935 0
M  V30 29 H -5.7641 3.8936 0.594 0
M  V30 30 H -6.5965 -0.3269 0.5948 0
M  V30 31 H -3.4106 3.4318 0.0062 0
M  V30 32 H -4.2554 -0.7977 0.0097 0
M  V30 33 H 0.1096 1.728 -0.9478 0
M  V30 34 H -1.9103 -2.6388 -0.6496 0
M  V30 35 H 2.4343 1.3123 -1.5416 0
M  V30 36 H 2.8447 -3.4725 -1.8022 0
M  V30 37 H -1.0846 -4.9228 -0.9555 0
M  V30 38 H 1.2825 -5.3382 -1.5306 0
M  V30 39 H 3.3201 -0.9458 0.9751 0
M  V30 40 H 6.0222 1.7496 -1.0278 0
M  V30 41 H 3.3544 0.508 2.9673 0
M  V30 42 H 6.0651 3.1858 0.9861 0
M  V30 43 H 4.7222 2.576 2.9792 0
M  V30 END ATOM
M  V30 BEGIN BOND
M  V30 1 1 1 2
M  V30 2 2 2 3
M  V30 3 1 2 4
M  V30 4 1 3 5
M  V30 5 2 4 6
M  V30 6 2 5 7
M  V30 7 1 7 8
M  V30 8 2 8 9
M  V30 9 1 9 10
M  V30 10 1 10 11
M  V30 11 2 10 12
M  V30 12 1 11 13
M  V30 13 2 11 14
M  V30 14 1 12 15
M  V30 15 1 13 16
M  V30 16 2 13 17
M  V30 17 1 14 18
M  V30 18 1 16 19
M  V30 19 1 17 20
M  V30 20 2 19 21
M  V30 21 1 21 22
M  V30 22 2 22 23
M  V30 23 1 22 24
M  V30 24 1 23 25
M  V30 25 2 24 26
M  V30 26 2 25 27
M  V30 27 1 6 7
M  V30 28 2 15 16
M  V30 29 2 18 20
M  V30 30 1 26 27
M  V30 31 1 1 28
M  V30 32 1 3 29
M  V30 33 1 4 30
M  V30 34 1 5 31
M  V30 35 1 6 32
M  V30 36 1 12 33
M  V30 37 1 14 34
M  V30 38 1 15 35
M  V30 39 1 17 36
M  V30 40 1 18 37
M  V30 41 1 20 38
M  V30 42 1 23 39
M  V30 43 1 24 40
M  V30 44 1 25 41
M  V30 45 1 26 42
M  V30 46 1 27 43
M  V30 END BOND
M  V30 END CTAB
M  END
>  <Structure No>
4661

>  <LogS>
-6.0092

>  <MMFF94 Energy>
93.675

$$$$
Compound 4662
Actelion Java MolfileCreator 2.0

  0  0  0  0  0  0              0 V3000
M  V30 BEGIN CTAB
M  V30 COUNTS 33 34 0 0 0
M  V30 BEGIN ATOM
M  V30 1 O 1.928 2.0084 -1.8476 0
M  V30 2 C 1.7919 0.7998 -1.5171 0
M  V30 3 O 2.2778 -0.1757 -2.3785 0 CHG=-1
M  V30 4 C 1.2984 0.4188 -0.1191 0 CFG=2
M  V30 5 N 2.4941 0.0239 0.6611 0 CHG=1
M  V30 6 C 0.1513 -0.6941 -0.1195 0 CFG=2
M  V30 7 C 0.5481 1.5972 0.5964 0
M  V30 8 C -1.1632 0.1222 -0.2939 0
M  V30 9 C -0.0108 -1.2174 1.3406 0
M  V30 10 C 0.3214 -1.8628 -1.1092 0
M  V30 11 C -0.8492 1.0076 0.921 0 CFG=1
M  V30 12 C -1.3219 0.9177 -1.6267 0
M  V30 13 C -2.492 -0.6917 -0.1513 0
M  V30 14 C -0.6402 -0.0137 2.0653 0
M  V30 15 H 2.3316 0.0533 1.6926 0
M  V30 16 H 2.8092 -0.9338 0.3843 0
M  V30 17 H 3.2819 0.6896 0.481 0
M  V30 18 H 1.0659 1.9403 1.5189 0
M  V30 19 H 0.4307 2.5067 -0.0271 0
M  V30 20 H 0.9275 -1.5618 1.8156 0
M  V30 21 H -0.682 -2.1005 1.3922 0
M  V30 22 H -0.4513 -2.6404 -0.9335 0
M  V30 23 H 0.2118 -1.5241 -2.1581 0
M  V30 24 H 1.3176 -2.3338 -0.9777 0
M  V30 25 H -1.6168 1.7788 1.1478 0
M  V30 26 H -1.3211 0.2242 -2.4929 0
M  V30 27 H -0.5667 1.694 -1.8127 0
M  V30 28 H -2.291 1.4615 -1.6321 0
M  V30 29 H -2.5885 -1.2994 0.7652 0
M  V30 30 H -2.6101 -1.3801 -1.015 0
M  V30 31 H -3.3612 6.0E-4 -0.1443 0
M  V30 32 H -1.6076 -0.2865 2.5386 0
M  V30 33 H 0.0293 0.3746 2.8635 0
M  V30 END ATOM
M  V30 BEGIN BOND
M  V30 1 2 1 2
M  V30 2 1 2 3
M  V30 3 1 2 4
M  V30 4 1 4 5
M  V30 5 1 4 6
M  V30 6 1 4 7
M  V30 7 1 6 8
M  V30 8 1 6 9
M  V30 9 1 6 10
M  V30 10 1 7 11
M  V30 11 1 8 12
M  V30 12 1 8 13
M  V30 13 1 9 14
M  V30 14 1 8 11
M  V30 15 1 11 14
M  V30 16 1 5 15
M  V30 17 1 5 16
M  V30 18 1 5 17
M  V30 19 1 7 18
M  V30 20 1 7 19
M  V30 21 1 9 20
M  V30 22 1 9 21
M  V30 23 1 10 22
M  V30 24 1 10 23
M  V30 25 1 10 24
M  V30 26 1 11 25
M  V30 27 1 12 26
M  V30 28 1 12 27
M  V30 29 1 12 28
M  V30 30 1 13 29
M  V30 31 1 13 30
M  V30 32 1 13 31
M  V30 33 1 14 32
M  V30 34 1 14 33
M  V30 END BOND
M  V30 BEGIN COLLECTION
M  V30 MDLV30/STEABS ATOMS=(3 4 6 11)
M  V30 END COLLECTION
M  V30 END CTAB
M  END
>  <Structure No>
4662

>  <LogS>
-1.5961

>  <MMFF94 Energy>
61.743

$$$$
Compound 4663
Actelion Java MolfileCreator 2.0

  0  0  0  0  0  0              0 V3000
M  V30 BEGIN CTAB
M  V30 COUNTS 22 22 0 0 0
M  V30 BEGIN ATOM
M  V30 1 S 2.8477 0.6503 -0.569 0
M  V30 2 O 2.9553 2.1406 -0.7316 0
M  V30 3 O 3.4553 -0.0098 -1.7748 0
M  V30 4 N 3.7065 0.1615 0.849 0
M  V30 5 C 1.1545 0.1878 -0.4239 0
M  V30 6 C 0.2402 1.0504 0.192 0
M  V30 7 C 0.7215 -1.0542 -0.898 0
M  V30 8 C -1.1093 0.6883 0.3266 0
M  V30 9 C -0.6176 -1.4274 -0.7712 0
M  V30 10 N -2.0141 1.6024 0.962 0
M  V30 11 C -1.5462 -0.5657 -0.1628 0
M  V30 12 C -2.9827 -0.9971 -0.0411 0
M  V30 13 H 3.229 0.6083 1.6637 0
M  V30 14 H 3.5692 -0.8691 0.9483 0
M  V30 15 H 0.5784 2.0066 0.5719 0
M  V30 16 H 1.4204 -1.7367 -1.364 0
M  V30 17 H -0.9281 -2.3938 -1.1486 0
M  V30 18 H -1.6736 2.5238 1.317 0
M  V30 19 H -3.0261 1.3848 1.0909 0
M  V30 20 H -3.1481 -2.0035 -0.4812 0
M  V30 21 H -3.6378 -0.2777 -0.5759 0
M  V30 22 H -3.2729 -1.0393 1.0296 0
M  V30 END ATOM
M  V30 BEGIN BOND
M  V30 1 2 1 2
M  V30 2 2 1 3
M  V30 3 1 1 4
M  V30 4 1 1 5
M  V30 5 2 5 6
M  V30 6 1 5 7
M  V30 7 1 6 8
M  V30 8 2 7 9
M  V30 9 1 8 10
M  V30 10 2 8 11
M  V30 11 1 11 12
M  V30 12 1 9 11
M  V30 13 1 4 13
M  V30 14 1 4 14
M  V30 15 1 6 15
M  V30 16 1 7 16
M  V30 17 1 9 17
M  V30 18 1 10 18
M  V30 19 1 10 19
M  V30 20 1 12 20
M  V30 21 1 12 21
M  V30 22 1 12 22
M  V30 END BOND
M  V30 END CTAB
M  END
>  <Structure No>
4663

>  <LogS>
-1.9169

>  <MMFF94 Energy>
-69.852

$$$$
Compound 4664
Actelion Java MolfileCreator 2.0

  0  0  0  0  0  0              0 V3000
M  V30 BEGIN CTAB
M  V30 COUNTS 37 36 0 0 0
M  V30 BEGIN ATOM
M  V30 1 O -2.4865 -0.6211 -1.3981 0
M  V30 2 C -3.2693 0.2403 -0.9112 0
M  V30 3 N -2.753 1.3193 -0.1183 0
M  V30 4 C -4.751 0.1005 -1.1173 0 CFG=1
M  V30 5 C -1.3292 1.4677 0.175 0
M  V30 6 O -4.9998 -0.4589 -2.3806 0
M  V30 7 C -5.346 -0.7872 -0.0239 0
M  V30 8 C -0.8937 0.4451 1.2332 0
M  V30 9 C 0.5514 0.6619 1.7075 0
M  V30 10 C 1.5865 0.2979 0.6325 0
M  V30 11 C 3.0137 0.3905 1.1929 0
M  V30 12 C 4.0885 0.1766 0.1156 0
M  V30 13 C 4.1565 -1.2782 -0.3708 0
M  V30 14 C 5.3207 -1.4803 -1.3365 0
M  V30 15 H -3.4107 2.0509 0.2342 0
M  V30 16 H -5.2182 1.1108 -1.0582 0
M  V30 17 H -1.1464 2.4943 0.5608 0
M  V30 18 H -0.7452 1.3438 -0.7611 0
M  V30 19 H -5.9572 -0.2922 -2.5848 0
M  V30 20 H -6.4455 -0.8674 -0.1591 0
M  V30 21 H -5.1475 -0.3484 0.9775 0
M  V30 22 H -4.9053 -1.8063 -0.0682 0
M  V30 23 H -1.5655 0.5421 2.114 0
M  V30 24 H -1.0078 -0.5873 0.8386 0
M  V30 25 H 0.7192 0.0187 2.5992 0
M  V30 26 H 0.6891 1.719 2.0246 0
M  V30 27 H 1.4902 0.9938 -0.2276 0
M  V30 28 H 1.3911 -0.7366 0.2792 0
M  V30 29 H 3.1625 1.4031 1.6284 0
M  V30 30 H 3.1486 -0.3505 2.0111 0
M  V30 31 H 5.0721 0.4545 0.5541 0
M  V30 32 H 3.9002 0.8555 -0.7448 0
M  V30 33 H 4.288 -1.9606 0.4968 0
M  V30 34 H 3.2162 -1.5496 -0.8954 0
M  V30 35 H 6.2844 -1.2534 -0.8329 0
M  V30 36 H 5.2052 -0.8206 -2.2228 0
M  V30 37 H 5.34 -2.5361 -1.6795 0
M  V30 END ATOM
M  V30 BEGIN BOND
M  V30 1 2 1 2
M  V30 2 1 2 3
M  V30 3 1 2 4
M  V30 4 1 3 5
M  V30 5 1 4 6
M  V30 6 1 4 7
M  V30 7 1 5 8
M  V30 8 1 8 9
M  V30 9 1 9 10
M  V30 10 1 10 11
M  V30 11 1 11 12
M  V30 12 1 12 13
M  V30 13 1 13 14
M  V30 14 1 3 15
M  V30 15 1 4 16
M  V30 16 1 5 17
M  V30 17 1 5 18
M  V30 18 1 6 19
M  V30 19 1 7 20
M  V30 20 1 7 21
M  V30 21 1 7 22
M  V30 22 1 8 23
M  V30 23 1 8 24
M  V30 24 1 9 25
M  V30 25 1 9 26
M  V30 26 1 10 27
M  V30 27 1 10 28
M  V30 28 1 11 29
M  V30 29 1 11 30
M  V30 30 1 12 31
M  V30 31 1 12 32
M  V30 32 1 13 33
M  V30 33 1 13 34
M  V30 34 1 14 35
M  V30 35 1 14 36
M  V30 36 1 14 37
M  V30 END BOND
M  V30 BEGIN COLLECTION
M  V30 MDLV30/STEABS ATOMS=(1 4)
M  V30 END COLLECTION
M  V30 END CTAB
M  END
>  <Structure No>
4664

>  <LogS>
-2.2827

>  <MMFF94 Energy>
4.7728

$$$$
Compound 4665
Actelion Java MolfileCreator 2.0

  0  0  0  0  0  0              0 V3000
M  V30 BEGIN CTAB
M  V30 COUNTS 43 42 0 0 0
M  V30 BEGIN ATOM
M  V30 1 O -4.4387 -1.7113 0.5442 0
M  V30 2 C -4.9435 -0.6003 0.2258 0
M  V30 3 N -4.1323 0.5842 0.2078 0
M  V30 4 C -6.397 -0.5335 -0.158 0 CFG=1
M  V30 5 C -2.7034 0.5636 0.5136 0
M  V30 6 O -7.0301 0.5174 0.5227 0
M  V30 7 C -6.5349 -0.3177 -1.6629 0
M  V30 8 C -1.9114 0.0017 -0.6746 0
M  V30 9 C -0.4148 -0.1576 -0.3653 0
M  V30 10 C 0.3078 1.1939 -0.226 0
M  V30 11 C 1.8364 1.0421 -0.1795 0
M  V30 12 C 2.3211 0.3478 1.1055 0
M  V30 13 C 3.8458 0.4275 1.2808 0
M  V30 14 C 4.6039 -0.4297 0.2565 0
M  V30 15 C 6.1092 -0.4273 0.5468 0
M  V30 16 C 6.8693 -1.269 -0.4741 0
M  V30 17 H -4.5835 1.506 0.0105 0
M  V30 18 H -6.8964 -1.4975 0.0974 0
M  V30 19 H -2.3704 1.6025 0.7217 0
M  V30 20 H -2.5242 -0.0436 1.4275 0
M  V30 21 H -7.1305 0.2264 1.467 0
M  V30 22 H -7.6097 -0.2976 -1.942 0
M  V30 23 H -6.0716 0.6461 -1.965 0
M  V30 24 H -6.0428 -1.1462 -2.2165 0
M  V30 25 H -2.0487 0.6599 -1.5603 0
M  V30 26 H -2.3146 -0.9995 -0.9387 0
M  V30 27 H -0.2942 -0.7543 0.5642 0
M  V30 28 H 0.0469 -0.7311 -1.1984 0
M  V30 29 H 0.0538 1.8333 -1.0997 0
M  V30 30 H -0.0358 1.7206 0.6899 0
M  V30 31 H 2.283 2.0591 -0.2336 0
M  V30 32 H 2.1752 0.4758 -1.0732 0
M  V30 33 H 1.8499 0.8415 1.9836 0
M  V30 34 H 2.0065 -0.7178 1.1073 0
M  V30 35 H 4.1786 1.4864 1.209 0
M  V30 36 H 4.0917 0.0668 2.3038 0
M  V30 37 H 4.4347 -0.0276 -0.7652 0
M  V30 38 H 4.2246 -1.4748 0.2952 0
M  V30 39 H 6.4957 0.6148 0.5129 0
M  V30 40 H 6.2967 -0.8395 1.5624 0
M  V30 41 H 6.721 -0.8618 -1.497 0
M  V30 42 H 7.9541 -1.2495 -0.238 0
M  V30 43 H 6.5179 -2.3225 -0.4437 0
M  V30 END ATOM
M  V30 BEGIN BOND
M  V30 1 2 1 2
M  V30 2 1 2 3
M  V30 3 1 2 4
M  V30 4 1 3 5
M  V30 5 1 4 6
M  V30 6 1 4 7
M  V30 7 1 5 8
M  V30 8 1 8 9
M  V30 9 1 9 10
M  V30 10 1 10 11
M  V30 11 1 11 12
M  V30 12 1 12 13
M  V30 13 1 13 14
M  V30 14 1 14 15
M  V30 15 1 15 16
M  V30 16 1 3 17
M  V30 17 1 4 18
M  V30 18 1 5 19
M  V30 19 1 5 20
M  V30 20 1 6 21
M  V30 21 1 7 22
M  V30 22 1 7 23
M  V30 23 1 7 24
M  V30 24 1 8 25
M  V30 25 1 8 26
M  V30 26 1 9 27
M  V30 27 1 9 28
M  V30 28 1 10 29
M  V30 29 1 10 30
M  V30 30 1 11 31
M  V30 31 1 11 32
M  V30 32 1 12 33
M  V30 33 1 12 34
M  V30 34 1 13 35
M  V30 35 1 13 36
M  V30 36 1 14 37
M  V30 37 1 14 38
M  V30 38 1 15 39
M  V30 39 1 15 40
M  V30 40 1 16 41
M  V30 41 1 16 42
M  V30 42 1 16 43
M  V30 END BOND
M  V30 BEGIN COLLECTION
M  V30 MDLV30/STEABS ATOMS=(1 4)
M  V30 END COLLECTION
M  V30 END CTAB
M  END
>  <Structure No>
4665

>  <LogS>
-3.3605

>  <MMFF94 Energy>
5.6452

$$$$
Compound 4666
Actelion Java MolfileCreator 2.0

  0  0  0  0  0  0              0 V3000
M  V30 BEGIN CTAB
M  V30 COUNTS 28 27 0 0 0
M  V30 BEGIN ATOM
M  V30 1 O 1.5674 0.9402 0.47 0
M  V30 2 C 1.2288 -0.2086 0.8669 0
M  V30 3 O 2.0843 -1.3032 0.7001 0
M  V30 4 C -0.0948 -0.4054 1.5463 0 CFG=2
M  V30 5 C 3.3288 -1.2227 0.0107 0
M  V30 6 O -1.1331 0.234 0.8041 0
M  V30 7 C -0.0539 0.174 2.9571 0
M  V30 8 C 3.0935 -1.0988 -1.4685 0
M  V30 9 C -1.5723 -0.216 -0.447 0
M  V30 10 C 3.3963 0.0146 -2.1415 0
M  V30 11 O -1.0787 -1.2541 -0.9667 0
M  V30 12 C -2.6649 0.5231 -1.156 0 CFG=2
M  V30 13 O -2.3889 1.8982 -1.1165 0
M  V30 14 C -4.0089 0.2383 -0.4847 0
M  V30 15 H -0.3145 -1.4934 1.6242 0
M  V30 16 H 3.8963 -2.158 0.1958 0
M  V30 17 H 3.9331 -0.3781 0.4099 0
M  V30 18 H 0.7418 -0.3213 3.5538 0
M  V30 19 H -1.0293 0.0035 3.4602 0
M  V30 20 H 0.1423 1.2675 2.9241 0
M  V30 21 H 2.634 -1.929 -1.9962 0
M  V30 22 H 3.1969 0.075 -3.2063 0
M  V30 23 H 3.8396 0.8705 -1.6418 0
M  V30 24 H -2.7082 0.1774 -2.2154 0
M  V30 25 H -2.9652 2.3262 -1.8027 0
M  V30 26 H -4.2243 -0.8515 -0.5035 0
M  V30 27 H -4.0 0.5893 0.5697 0
M  V30 28 H -4.8214 0.7652 -1.0286 0
M  V30 END ATOM
M  V30 BEGIN BOND
M  V30 1 2 1 2
M  V30 2 1 2 3
M  V30 3 1 2 4
M  V30 4 1 3 5
M  V30 5 1 4 6
M  V30 6 1 4 7
M  V30 7 1 5 8
M  V30 8 1 6 9
M  V30 9 2 8 10
M  V30 10 2 9 11
M  V30 11 1 9 12
M  V30 12 1 12 13
M  V30 13 1 12 14
M  V30 14 1 4 15
M  V30 15 1 5 16
M  V30 16 1 5 17
M  V30 17 1 7 18
M  V30 18 1 7 19
M  V30 19 1 7 20
M  V30 20 1 8 21
M  V30 21 1 10 22
M  V30 22 1 10 23
M  V30 23 1 12 24
M  V30 24 1 13 25
M  V30 25 1 14 26
M  V30 26 1 14 27
M  V30 27 1 14 28
M  V30 END BOND
M  V30 BEGIN COLLECTION
M  V30 MDLV30/STEABS ATOMS=(2 4 12)
M  V30 END COLLECTION
M  V30 END CTAB
M  END
>  <Structure No>
4666

>  <LogS>
-0.6826

>  <MMFF94 Energy>
38.438

$$$$
Compound 4667
Actelion Java MolfileCreator 2.0

  0  0  0  0  0  0              0 V3000
M  V30 BEGIN CTAB
M  V30 COUNTS 31 30 0 0 0
M  V30 BEGIN ATOM
M  V30 1 O -1.3118 -1.1574 -1.1574 0
M  V30 2 C -1.2137 -0.1967 -0.1326 0 CFG=2
M  V30 3 C -0.1646 -0.5927 0.9477 0 CFG=1
M  V30 4 C -2.6054 0.1086 0.4885 0 CFG=2
M  V30 5 O -0.4896 -1.8466 1.4945 0
M  V30 6 C 1.3006 -0.6182 0.4315 0 CFG=1
M  V30 7 O -3.1282 -1.0102 1.1629 0
M  V30 8 C -3.6097 0.6336 -0.5542 0
M  V30 9 O 1.4728 -1.6229 -0.5386 0
M  V30 10 C 1.7963 0.7715 -0.0617 0
M  V30 11 O -3.1727 1.8605 -1.071 0
M  V30 12 N 3.2654 0.898 -0.0417 0 CHG=1
M  V30 13 C 3.918 0.1149 -1.0963 0
M  V30 14 H -1.5273 -2.0324 -0.7449 0
M  V30 15 H -0.8691 0.7479 -0.6015 0
M  V30 16 H -0.2176 0.175 1.7563 0
M  V30 17 H -2.4724 0.9142 1.244 0
M  V30 18 H -0.0419 -1.904 2.379 0
M  V30 19 H 1.9285 -0.8988 1.3051 0
M  V30 20 H -3.4319 -1.6658 0.4827 0
M  V30 21 H -4.5989 0.7735 -0.0634 0
M  V30 22 H -3.7283 -0.104 -1.379 0
M  V30 23 H 1.1681 -1.2677 -1.4126 0
M  V30 24 H 1.405 0.9974 -1.0784 0
M  V30 25 H 1.3783 1.553 0.6117 0
M  V30 26 H -3.8558 2.1386 -1.7349 0
M  V30 27 H 3.6444 0.6135 0.8914 0
M  V30 28 H 3.507 1.9056 -0.1919 0
M  V30 29 H 3.8856 -0.9688 -0.8585 0
M  V30 30 H 4.9876 0.4076 -1.1696 0
M  V30 31 H 3.4424 0.2994 -2.0843 0
M  V30 END ATOM
M  V30 BEGIN BOND
M  V30 1 1 1 2
M  V30 2 1 2 3
M  V30 3 1 2 4
M  V30 4 1 3 5
M  V30 5 1 3 6
M  V30 6 1 4 7
M  V30 7 1 4 8
M  V30 8 1 6 9
M  V30 9 1 6 10
M  V30 10 1 8 11
M  V30 11 1 10 12
M  V30 12 1 12 13
M  V30 13 1 1 14
M  V30 14 1 2 15
M  V30 15 1 3 16
M  V30 16 1 4 17
M  V30 17 1 5 18
M  V30 18 1 6 19
M  V30 19 1 7 20
M  V30 20 1 8 21
M  V30 21 1 8 22
M  V30 22 1 9 23
M  V30 23 1 10 24
M  V30 24 1 10 25
M  V30 25 1 11 26
M  V30 26 1 12 27
M  V30 27 1 12 28
M  V30 28 1 13 29
M  V30 29 1 13 30
M  V30 30 1 13 31
M  V30 END BOND
M  V30 BEGIN COLLECTION
M  V30 MDLV30/STEABS ATOMS=(4 2 3 4 6)
M  V30 END COLLECTION
M  V30 END CTAB
M  END
>  <Structure No>
4667

>  <LogS>
0.4084

>  <MMFF94 Energy>
87.728

$$$$
Compound 4668
Actelion Java MolfileCreator 2.0

  0  0  0  0  0  0              0 V3000
M  V30 BEGIN CTAB
M  V30 COUNTS 20 19 0 0 0
M  V30 BEGIN ATOM
M  V30 1 O 1.0179 1.0962 -0.9396 0
M  V30 2 C 1.0695 0.0841 -0.1874 0
M  V30 3 O 2.1649 -0.1208 0.6559 0
M  V30 4 C -0.0368 -0.93 -0.219 0 CFG=1
M  V30 5 C 3.2537 0.791 0.7319 0
M  V30 6 O -1.3087 -0.2812 -0.2239 0
M  V30 7 C 0.088 -1.8026 -1.4643 0
M  V30 8 C -1.8257 0.4042 0.8812 0
M  V30 9 O -1.1922 0.4433 1.9709 0
M  V30 10 C -3.1647 1.0519 0.7828 0
M  V30 11 H 0.0376 -1.5884 0.6749 0
M  V30 12 H 3.7448 0.8803 -0.26 0
M  V30 13 H 3.994 0.4145 1.4672 0
M  V30 14 H 2.8923 1.7877 1.0631 0
M  V30 15 H -0.7198 -2.5645 -1.4699 0
M  V30 16 H 2.0E-4 -1.1844 -2.3835 0
M  V30 17 H 1.0675 -2.3274 -1.4699 0
M  V30 18 H -3.399 1.2788 -0.2783 0
M  V30 19 H -3.9377 0.3666 1.1881 0
M  V30 20 H -3.1736 1.9993 1.3621 0
M  V30 END ATOM
M  V30 BEGIN BOND
M  V30 1 2 1 2
M  V30 2 1 2 3
M  V30 3 1 2 4
M  V30 4 1 3 5
M  V30 5 1 4 6
M  V30 6 1 4 7
M  V30 7 1 6 8
M  V30 8 2 8 9
M  V30 9 1 8 10
M  V30 10 1 4 11
M  V30 11 1 5 12
M  V30 12 1 5 13
M  V30 13 1 5 14
M  V30 14 1 7 15
M  V30 15 1 7 16
M  V30 16 1 7 17
M  V30 17 1 10 18
M  V30 18 1 10 19
M  V30 19 1 10 20
M  V30 END BOND
M  V30 BEGIN COLLECTION
M  V30 MDLV30/STEABS ATOMS=(1 4)
M  V30 END COLLECTION
M  V30 END CTAB
M  END
>  <Structure No>
4668

>  <LogS>
-0.2617

>  <MMFF94 Energy>
3.6524

$$$$
Compound 4669
Actelion Java MolfileCreator 2.0

  0  0  0  0  0  0              0 V3000
M  V30 BEGIN CTAB
M  V30 COUNTS 23 22 0 0 0
M  V30 BEGIN ATOM
M  V30 1 O 1.4339 2.8693 -0.7167 0
M  V30 2 C 0.2261 2.581 -0.5073 0
M  V30 3 O -0.7526 3.0668 -1.3652 0 CHG=-1
M  V30 4 C -0.1581 1.7171 0.665 0
M  V30 5 N 0.0067 0.2663 0.4082 0
M  V30 6 C -0.9585 -0.2552 -0.5883 0
M  V30 7 C 1.4056 -0.0998 0.0963 0
M  V30 8 C -2.2538 -0.6775 0.1085 0
M  V30 9 C 1.712 -1.5078 0.6158 0
M  V30 10 C -3.1951 -1.2542 -0.858 0
M  V30 11 C 3.109 -1.8635 0.3428 0
M  V30 12 N -3.9375 -1.7092 -1.6203 0
M  V30 13 N 4.2107 -2.1444 0.1277 0
M  V30 14 H -1.21 1.936 0.9453 0
M  V30 15 H 0.4544 2.0076 1.5462 0
M  V30 16 H -1.1804 0.4952 -1.3775 0
M  V30 17 H -0.5491 -1.1478 -1.1122 0
M  V30 18 H 2.114 0.5992 0.5974 0
M  V30 19 H 1.5957 -0.0398 -1.0 0
M  V30 20 H -2.7372 0.1962 0.5919 0
M  V30 21 H -2.0289 -1.4374 0.8869 0
M  V30 22 H 1.0562 -2.2582 0.1287 0
M  V30 23 H 1.5402 -1.5464 1.7125 0
M  V30 END ATOM
M  V30 BEGIN BOND
M  V30 1 2 1 2
M  V30 2 1 2 3
M  V30 3 1 2 4
M  V30 4 1 4 5
M  V30 5 1 5 6
M  V30 6 1 5 7
M  V30 7 1 6 8
M  V30 8 1 7 9
M  V30 9 1 8 10
M  V30 10 1 9 11
M  V30 11 3 10 12
M  V30 12 3 11 13
M  V30 13 1 4 14
M  V30 14 1 4 15
M  V30 15 1 6 16
M  V30 16 1 6 17
M  V30 17 1 7 18
M  V30 18 1 7 19
M  V30 19 1 8 20
M  V30 20 1 8 21
M  V30 21 1 9 22
M  V30 22 1 9 23
M  V30 END BOND
M  V30 END CTAB
M  END
>  <Structure No>
4669

>  <LogS>
0.4578

>  <MMFF94 Energy>
81.115

$$$$
Compound 4670
Actelion Java MolfileCreator 2.0

  0  0  0  0  0  0              0 V3000
M  V30 BEGIN CTAB
M  V30 COUNTS 26 27 0 0 0
M  V30 BEGIN ATOM
M  V30 1 O -1.9111 -1.2737 -1.2737 0
M  V30 2 C -0.7887 -0.6038 -0.7469 0
M  V30 3 C -3.2677 -1.1114 -0.8747 0
M  V30 4 C 0.4714 -0.9254 -1.2998 0
M  V30 5 C -0.8745 0.3605 0.295 0
M  V30 6 N 0.5677 -1.8983 -2.3524 0
M  V30 7 C 1.6314 -0.2927 -0.8188 0
M  V30 8 O -2.1228 0.6856 0.8495 0
M  V30 9 C 0.301 0.9813 0.7606 0
M  V30 10 N 2.8567 -0.5859 -1.3354 0
M  V30 11 C 1.5398 0.66 0.2116 0
M  V30 12 C -2.3341 1.6318 1.8929 0
M  V30 13 C 3.9834 0.02 -0.8775 0
M  V30 14 N 2.6699 1.2642 0.6672 0
M  V30 15 C 3.8878 0.9648 0.1452 0
M  V30 16 H -3.5995 -0.067 -1.0533 0
M  V30 17 H -3.392 -1.3939 0.1918 0
M  V30 18 H -3.9031 -1.7843 -1.4859 0
M  V30 19 H 1.4871 -2.1525 -2.7767 0
M  V30 20 H -0.2772 -2.3827 -2.728 0
M  V30 21 H 0.2639 1.7181 1.552 0
M  V30 22 H -1.9967 2.6391 1.5699 0
M  V30 23 H -3.4181 1.6788 2.1239 0
M  V30 24 H -1.7902 1.3187 2.809 0
M  V30 25 H 4.9451 -0.2302 -1.3045 0
M  V30 26 H 4.7747 1.4569 0.5216 0
M  V30 END ATOM
M  V30 BEGIN BOND
M  V30 1 1 1 2
M  V30 2 1 1 3
M  V30 3 2 2 4
M  V30 4 1 2 5
M  V30 5 1 4 6
M  V30 6 1 4 7
M  V30 7 1 5 8
M  V30 8 2 5 9
M  V30 9 2 7 10
M  V30 10 1 7 11
M  V30 11 1 8 12
M  V30 12 1 10 13
M  V30 13 2 11 14
M  V30 14 2 13 15
M  V30 15 1 9 11
M  V30 16 1 14 15
M  V30 17 1 3 16
M  V30 18 1 3 17
M  V30 19 1 3 18
M  V30 20 1 6 19
M  V30 21 1 6 20
M  V30 22 1 9 21
M  V30 23 1 12 22
M  V30 24 1 12 23
M  V30 25 1 12 24
M  V30 26 1 13 25
M  V30 27 1 15 26
M  V30 END BOND
M  V30 END CTAB
M  END
>  <Structure No>
4670

>  <LogS>
-1.7102

>  <MMFF94 Energy>
131.01

$$$$
Compound 4671
Actelion Java MolfileCreator 2.0

  0  0  0  0  0  0              0 V3000
M  V30 BEGIN CTAB
M  V30 COUNTS 24 24 0 0 0
M  V30 BEGIN ATOM
M  V30 1 O 3.9952 0.0 -0.6258 0
M  V30 2 C 2.8381 0.2832 -0.2132 0
M  V30 3 N 1.7925 -0.71 -0.2614 0
M  V30 4 N 2.5948 1.5869 0.3232 0
M  V30 5 C 0.4066 -0.3349 -0.1419 0
M  V30 6 C 2.1519 -2.1284 -0.3518 0
M  V30 7 C -0.4272 -0.9751 0.7893 0
M  V30 8 C -0.1322 0.6587 -0.9751 0
M  V30 9 C -1.7741 -0.616 0.8963 0
M  V30 10 C -1.4791 1.0175 -0.8682 0
M  V30 11 C -2.3045 0.3939 0.0794 0
M  V30 12 C -3.7587 0.7511 0.1671 0
M  V30 13 H 3.3536 2.3042 0.3158 0
M  V30 14 H 1.6902 1.8282 0.784 0
M  V30 15 H 1.2695 -2.7453 -0.6275 0
M  V30 16 H 2.5452 -2.4762 0.6263 0
M  V30 17 H 2.9241 -2.2823 -1.135 0
M  V30 18 H -0.0314 -1.7469 1.4373 0
M  V30 19 H 0.4909 1.1473 -1.7134 0
M  V30 20 H -2.4027 -1.1243 1.6173 0
M  V30 21 H -1.8782 1.7804 -1.5253 0
M  V30 22 H -4.3393 0.1071 -0.5258 0
M  V30 23 H -3.9179 1.8156 -0.108 0
M  V30 24 H -4.1368 0.6039 1.2013 0
M  V30 END ATOM
M  V30 BEGIN BOND
M  V30 1 2 1 2
M  V30 2 1 2 3
M  V30 3 1 2 4
M  V30 4 1 3 5
M  V30 5 1 3 6
M  V30 6 2 5 7
M  V30 7 1 5 8
M  V30 8 1 7 9
M  V30 9 2 8 10
M  V30 10 2 9 11
M  V30 11 1 11 12
M  V30 12 1 10 11
M  V30 13 1 4 13
M  V30 14 1 4 14
M  V30 15 1 6 15
M  V30 16 1 6 16
M  V30 17 1 6 17
M  V30 18 1 7 18
M  V30 19 1 8 19
M  V30 20 1 9 20
M  V30 21 1 10 21
M  V30 22 1 12 22
M  V30 23 1 12 23
M  V30 24 1 12 24
M  V30 END BOND
M  V30 END CTAB
M  END
>  <Structure No>
4671

>  <LogS>
-0.423

>  <MMFF94 Energy>
-50.648

$$$$
Compound 4672
Actelion Java MolfileCreator 2.0

  0  0  0  0  0  0              0 V3000
M  V30 BEGIN CTAB
M  V30 COUNTS 24 23 0 0 0
M  V30 BEGIN ATOM
M  V30 1 O -2.1566 -1.8483 -1.0778 0
M  V30 2 C -1.167 -1.3126 -0.2393 0
M  V30 3 C -1.019 0.2108 -0.4436 0 CFG=2
M  V30 4 C -0.0922 0.8691 0.6169 0
M  V30 5 C -2.3977 0.8933 -0.3947 0
M  V30 6 C 1.4145 0.4838 0.6114 0
M  V30 7 C 1.7317 -0.7371 1.488 0
M  V30 8 C 2.0132 0.3383 -0.7936 0
M  V30 9 H -1.7907 -1.8259 -2.0006 0
M  V30 10 H -1.4439 -1.5269 0.815 0
M  V30 11 H -0.2089 -1.8255 -0.4568 0
M  V30 12 H -0.605 0.3943 -1.4583 0
M  V30 13 H -0.5159 0.7021 1.6318 0
M  V30 14 H -0.1324 1.9694 0.4532 0
M  V30 15 H -3.0525 0.5167 -1.2087 0
M  V30 16 H -2.2933 1.9901 -0.5374 0
M  V30 17 H -2.8928 0.7052 0.5823 0
M  V30 18 H 1.9493 1.3357 1.0895 0
M  V30 19 H 1.3678 -1.681 1.0431 0
M  V30 20 H 2.8314 -0.8281 1.617 0
M  V30 21 H 1.282 -0.618 2.4966 0
M  V30 22 H 1.623 -0.5646 -1.3063 0
M  V30 23 H 1.7783 1.2362 -1.4039 0
M  V30 24 H 3.1182 0.2474 -0.7259 0
M  V30 END ATOM
M  V30 BEGIN BOND
M  V30 1 1 1 2
M  V30 2 1 2 3
M  V30 3 1 3 4
M  V30 4 1 3 5
M  V30 5 1 4 6
M  V30 6 1 6 7
M  V30 7 1 6 8
M  V30 8 1 1 9
M  V30 9 1 2 10
M  V30 10 1 2 11
M  V30 11 1 3 12
M  V30 12 1 4 13
M  V30 13 1 4 14
M  V30 14 1 5 15
M  V30 15 1 5 16
M  V30 16 1 5 17
M  V30 17 1 6 18
M  V30 18 1 7 19
M  V30 19 1 7 20
M  V30 20 1 7 21
M  V30 21 1 8 22
M  V30 22 1 8 23
M  V30 23 1 8 24
M  V30 END BOND
M  V30 BEGIN COLLECTION
M  V30 MDLV30/STEABS ATOMS=(1 3)
M  V30 END COLLECTION
M  V30 END CTAB
M  END
>  <Structure No>
4672

>  <LogS>
-1.6007

>  <MMFF94 Energy>
11.877

$$$$
Compound 4673
Actelion Java MolfileCreator 2.0

  0  0  0  0  0  0              0 V3000
M  V30 BEGIN CTAB
M  V30 COUNTS 21 21 0 0 0
M  V30 BEGIN ATOM
M  V30 1 S -2.9589 -0.5748 -0.3284 0
M  V30 2 O -3.3641 -2.0109 -0.1476 0
M  V30 3 O -3.4312 -0.108 -1.6768 0
M  V30 4 N -3.6915 0.39 0.9046 0
M  V30 5 C -1.2065 -0.4322 -0.2281 0
M  V30 6 C -0.4727 -1.313 0.575 0
M  V30 7 C -0.5401 0.5764 -0.934 0
M  V30 8 C 0.9169 -1.1927 0.6651 0
M  V30 9 C 0.8496 0.7001 -0.8452 0
M  V30 10 C 1.5945 -0.1795 -0.0376 0
M  V30 11 C 3.0702 -0.0675 0.0649 0
M  V30 12 O 3.7478 -1.0684 0.4229 0
M  V30 13 N 3.749 1.1592 -0.2182 0
M  V30 14 H -3.3517 1.3684 0.7682 0
M  V30 15 H -3.3053 0.0619 1.8181 0
M  V30 16 H -0.9752 -2.0916 1.1347 0
M  V30 17 H -1.0952 1.2663 -1.5569 0
M  V30 18 H 1.4607 -1.8855 1.2954 0
M  V30 19 H 1.3348 1.4709 -1.428 0
M  V30 20 H 4.7923 1.193 -0.1955 0
M  V30 21 H 3.2321 2.0537 -0.3626 0
M  V30 END ATOM
M  V30 BEGIN BOND
M  V30 1 2 1 2
M  V30 2 2 1 3
M  V30 3 1 1 4
M  V30 4 1 1 5
M  V30 5 2 5 6
M  V30 6 1 5 7
M  V30 7 1 6 8
M  V30 8 2 7 9
M  V30 9 2 8 10
M  V30 10 1 10 11
M  V30 11 2 11 12
M  V30 12 1 11 13
M  V30 13 1 9 10
M  V30 14 1 4 14
M  V30 15 1 4 15
M  V30 16 1 6 16
M  V30 17 1 7 17
M  V30 18 1 8 18
M  V30 19 1 9 19
M  V30 20 1 13 20
M  V30 21 1 13 21
M  V30 END BOND
M  V30 END CTAB
M  END
>  <Structure No>
4673

>  <LogS>
-2.3015

>  <MMFF94 Energy>
-69.438

$$$$
Compound 4674
Actelion Java MolfileCreator 2.0

  0  0  0  0  0  0              0 V3000
M  V30 BEGIN CTAB
M  V30 COUNTS 28 29 0 0 0
M  V30 BEGIN ATOM
M  V30 1 O 0.0792 -1.9029 -2.1409 0
M  V30 2 C 0.8899 -1.3025 -1.383 0
M  V30 3 N 0.6738 0.0035 -1.025 0
M  V30 4 N 1.9838 -1.9679 -0.9218 0
M  V30 5 C 1.555 0.6328 -0.1914 0
M  V30 6 C -0.5229 0.7292 -1.4817 0
M  V30 7 C 2.8808 -1.365 -0.0982 0
M  V30 8 C 2.6903 -0.0316 0.2836 0
M  V30 9 C -1.6717 0.4874 -0.5387 0
M  V30 10 O 3.8792 -2.0131 0.3187 0
M  V30 11 C 3.6472 0.6562 1.2173 0
M  V30 12 C -1.7785 1.2298 0.6494 0
M  V30 13 C -2.6192 -0.5135 -0.8116 0
M  V30 14 C -2.8259 0.9835 1.5425 0
M  V30 15 C -3.6651 -0.7565 0.0841 0
M  V30 16 C -3.7691 -0.0081 1.2599 0
M  V30 17 H 2.1345 -2.964 -1.2024 0
M  V30 18 H 1.3775 1.6593 0.1097 0
M  V30 19 H -0.7954 0.4226 -2.5157 0
M  V30 20 H -0.3164 1.8213 -1.5453 0
M  V30 21 H 4.6918 0.5002 0.8745 0
M  V30 22 H 3.4587 1.7504 1.257 0
M  V30 23 H 3.5326 0.238 2.2392 0
M  V30 24 H -1.0523 1.9981 0.8835 0
M  V30 25 H -2.5501 -1.104 -1.7164 0
M  V30 26 H -2.9052 1.5602 2.455 0
M  V30 27 H -4.3943 -1.5266 -0.132 0
M  V30 28 H -4.5787 -0.1981 1.9526 0
M  V30 END ATOM
M  V30 BEGIN BOND
M  V30 1 2 1 2
M  V30 2 1 2 3
M  V30 3 1 2 4
M  V30 4 1 3 5
M  V30 5 1 3 6
M  V30 6 1 4 7
M  V30 7 2 5 8
M  V30 8 1 6 9
M  V30 9 2 7 10
M  V30 10 1 8 11
M  V30 11 2 9 12
M  V30 12 1 9 13
M  V30 13 1 12 14
M  V30 14 2 13 15
M  V30 15 2 14 16
M  V30 16 1 7 8
M  V30 17 1 15 16
M  V30 18 1 4 17
M  V30 19 1 5 18
M  V30 20 1 6 19
M  V30 21 1 6 20
M  V30 22 1 11 21
M  V30 23 1 11 22
M  V30 24 1 11 23
M  V30 25 1 12 24
M  V30 26 1 13 25
M  V30 27 1 14 26
M  V30 28 1 15 27
M  V30 29 1 16 28
M  V30 END BOND
M  V30 END CTAB
M  END
>  <Structure No>
4674

>  <LogS>
-2.2558

>  <MMFF94 Energy>
-65.885

$$$$
Compound 4675
Actelion Java MolfileCreator 2.0

  0  0  0  0  0  0              0 V3000
M  V30 BEGIN CTAB
M  V30 COUNTS 15 15 0 0 0
M  V30 BEGIN ATOM
M  V30 1 S 2.1013 0.1679 -0.336 0
M  V30 2 O 2.5565 -0.3253 1.0081 0
M  V30 3 O 2.923 1.3639 -0.7259 0
M  V30 4 O 2.306 -1.0395 -1.4851 0 CHG=-1
M  V30 5 C 0.4082 0.624 -0.255 0
M  V30 6 N -0.0519 1.8536 -0.5584 0
M  V30 7 C -0.641 -0.1833 0.1264 0
M  V30 8 C -1.3835 1.7644 -0.3459 0
M  V30 9 N -1.7682 0.5433 0.0748 0
M  V30 10 C -0.5668 -1.6028 0.5902 0
M  V30 11 H -2.0674 2.5899 -0.4925 0
M  V30 12 H -2.7369 0.2358 0.3148 0
M  V30 13 H -1.5853 -2.0403 0.6524 0
M  V30 14 H -0.0941 -1.641 1.5936 0
M  V30 15 H 0.0355 -2.2024 -0.1233 0
M  V30 END ATOM
M  V30 BEGIN BOND
M  V30 1 2 1 2
M  V30 2 2 1 3
M  V30 3 1 1 4
M  V30 4 1 1 5
M  V30 5 1 5 6
M  V30 6 2 5 7
M  V30 7 2 6 8
M  V30 8 1 7 9
M  V30 9 1 7 10
M  V30 10 1 8 9
M  V30 11 1 8 11
M  V30 12 1 9 12
M  V30 13 1 10 13
M  V30 14 1 10 14
M  V30 15 1 10 15
M  V30 END BOND
M  V30 END CTAB
M  END
>  <Structure No>
4675

>  <LogS>
0.188

>  <MMFF94 Energy>
116.15

$$$$
Compound 4676
Actelion Java MolfileCreator 2.0

  0  0  0  0  0  0              0 V3000
M  V30 BEGIN CTAB
M  V30 COUNTS 21 22 0 0 0
M  V30 BEGIN ATOM
M  V30 1 O 4.3174 0.2394 -0.3991 0
M  V30 2 C 3.0942 -0.028 -0.2538 0
M  V30 3 N 2.1639 0.9616 -0.3456 0
M  V30 4 C 2.6854 -1.3423 0.0018 0
M  V30 5 C 0.8363 0.6921 -0.1911 0
M  V30 6 O 3.624 -2.3644 0.0979 0 CHG=-1
M  V30 7 N 1.3624 -1.6187 0.1567 0 CHG=1
M  V30 8 C 0.4244 -0.6335 0.0678 0
M  V30 9 C -0.1215 1.7111 -0.291 0
M  V30 10 C -0.9396 -0.9212 0.2276 0
M  V30 11 C -1.4786 1.4171 -0.1308 0
M  V30 12 C -1.8941 0.1048 0.1443 0
M  V30 13 C -3.3546 -0.2115 0.2763 0
M  V30 14 H 2.4801 1.9402 -0.5381 0
M  V30 15 H 1.0724 -2.6052 0.3472 0
M  V30 16 H 0.1807 2.7307 -0.4965 0
M  V30 17 H -1.2574 -1.9398 0.4172 0
M  V30 18 H -2.2066 2.2141 -0.2207 0
M  V30 19 H -3.91 0.6604 0.6834 0
M  V30 20 H -3.7678 -0.4703 -0.7206 0
M  V30 21 H -3.509 -1.0683 0.9664 0
M  V30 END ATOM
M  V30 BEGIN BOND
M  V30 1 2 1 2
M  V30 2 1 2 3
M  V30 3 1 2 4
M  V30 4 1 3 5
M  V30 5 1 4 6
M  V30 6 2 4 7
M  V30 7 2 5 8
M  V30 8 1 5 9
M  V30 9 1 8 10
M  V30 10 2 9 11
M  V30 11 2 10 12
M  V30 12 1 12 13
M  V30 13 1 7 8
M  V30 14 1 11 12
M  V30 15 1 3 14
M  V30 16 1 7 15
M  V30 17 1 9 16
M  V30 18 1 10 17
M  V30 19 1 11 18
M  V30 20 1 13 19
M  V30 21 1 13 20
M  V30 22 1 13 21
M  V30 END BOND
M  V30 END CTAB
M  END
>  <Structure No>
4676

>  <LogS>
-3.0418

>  <MMFF94 Energy>
30.354

$$$$
Compound 4677
Actelion Java MolfileCreator 2.0

  0  0  0  0  0  0              0 V3000
M  V30 BEGIN CTAB
M  V30 COUNTS 39 42 0 0 0
M  V30 BEGIN ATOM
M  V30 1 O 0.3214 0.3214 -2.2517 0
M  V30 2 C 0.3338 0.111 -0.8586 0
M  V30 3 C -0.1872 1.3758 -0.1745 0
M  V30 4 C -0.5031 -1.1311 -0.5503 0
M  V30 5 C 1.7657 -0.1422 -0.3716 0
M  V30 6 C -1.4635 1.4138 0.4298 0
M  V30 7 C 0.5979 2.548 -0.1917 0
M  V30 8 C -1.7715 -1.0311 0.0633 0
M  V30 9 C -0.0257 -2.4022 -0.9337 0
M  V30 10 C 2.005 -0.3777 0.9984 0
M  V30 11 C 2.8637 -0.1475 -1.2581 0
M  V30 12 N -2.3358 0.267 0.3458 0
M  V30 13 C -1.8715 2.5853 1.1022 0
M  V30 14 C 0.1654 3.7066 0.4525 0
M  V30 15 C -2.4758 -2.2112 0.3832 0
M  V30 16 C -0.7495 -3.5562 -0.6362 0
M  V30 17 C 3.3009 -0.6109 1.4658 0
M  V30 18 C 4.1576 -0.3817 -0.783 0
M  V30 19 C -3.7927 0.433 0.4626 0
M  V30 20 C -1.0601 3.72 1.1126 0
M  V30 21 C -1.9649 -3.4618 0.0361 0
M  V30 22 C 4.3761 -0.613 0.5761 0
M  V30 23 H -0.6204 0.4813 -2.5264 0
M  V30 24 H 1.5565 2.5604 -0.6948 0
M  V30 25 H 0.9189 -2.5009 -1.4535 0
M  V30 26 H 1.1832 -0.3798 1.7039 0
M  V30 27 H 2.73 0.028 -2.317 0
M  V30 28 H -2.8174 2.6274 1.6255 0
M  V30 29 H 0.7863 4.5932 0.4465 0
M  V30 30 H -3.4218 -2.1717 0.9061 0
M  V30 31 H -0.3625 -4.5263 -0.9204 0
M  V30 32 H 3.4711 -0.7903 2.5196 0
M  V30 33 H 4.9931 -0.3837 -1.4712 0
M  V30 34 H -4.1086 1.431 0.092 0
M  V30 35 H -4.3276 -0.3076 -0.1685 0
M  V30 36 H -4.1006 0.313 1.5224 0
M  V30 37 H -1.3878 4.6151 1.6257 0
M  V30 38 H -2.5183 -4.3593 0.2804 0
M  V30 39 H 5.3792 -0.7938 0.94 0
M  V30 END ATOM
M  V30 BEGIN BOND
M  V30 1 1 1 2
M  V30 2 1 2 3
M  V30 3 1 2 4
M  V30 4 1 2 5
M  V30 5 2 3 6
M  V30 6 1 3 7
M  V30 7 2 4 8
M  V30 8 1 4 9
M  V30 9 2 5 10
M  V30 10 1 5 11
M  V30 11 1 6 12
M  V30 12 1 6 13
M  V30 13 2 7 14
M  V30 14 1 8 15
M  V30 15 2 9 16
M  V30 16 1 10 17
M  V30 17 2 11 18
M  V30 18 1 12 19
M  V30 19 2 13 20
M  V30 20 2 15 21
M  V30 21 2 17 22
M  V30 22 1 8 12
M  V30 23 1 14 20
M  V30 24 1 16 21
M  V30 25 1 18 22
M  V30 26 1 1 23
M  V30 27 1 7 24
M  V30 28 1 9 25
M  V30 29 1 10 26
M  V30 30 1 11 27
M  V30 31 1 13 28
M  V30 32 1 14 29
M  V30 33 1 15 30
M  V30 34 1 16 31
M  V30 35 1 17 32
M  V30 36 1 18 33
M  V30 37 1 19 34
M  V30 38 1 19 35
M  V30 39 1 19 36
M  V30 40 1 20 37
M  V30 41 1 21 38
M  V30 42 1 22 39
M  V30 END BOND
M  V30 END CTAB
M  END
>  <Structure No>
4677

>  <LogS>
-3.9031

>  <MMFF94 Energy>
71.702

$$$$
Compound 4678
Actelion Java MolfileCreator 2.0

  0  0  0  0  0  0              0 V3000
M  V30 BEGIN CTAB
M  V30 COUNTS 23 23 0 0 0
M  V30 BEGIN ATOM
M  V30 1 O 1.3028 3.178 -0.6512 0
M  V30 2 C 1.5127 1.9814 -0.3152 0
M  V30 3 O 2.8269 1.5619 -0.1455 0 CHG=-1
M  V30 4 C 0.3761 1.0369 -0.1015 0
M  V30 5 C -0.875 1.4537 -0.4005 0
M  V30 6 C 0.6533 -0.4154 0.3308 0 CFG=1
M  V30 7 C -2.1095 0.6223 -0.1888 0
M  V30 8 C 1.5927 -0.4352 1.5239 0
M  V30 9 C -0.6434 -1.1499 0.7728 0
M  V30 10 C 1.2901 -1.1657 -0.8655 0
M  V30 11 C -1.8085 -0.8723 -0.1737 0
M  V30 12 O 2.4483 -1.3512 1.6593 0
M  V30 13 O 1.4559 0.5131 2.5324 0 CHG=-1
M  V30 14 H -1.0439 2.4714 -0.7313 0
M  V30 15 H -2.5722 0.9177 0.7777 0
M  V30 16 H -2.8396 0.839 -0.9977 0
M  V30 17 H -0.9447 -0.8182 1.7932 0
M  V30 18 H -0.4719 -2.2475 0.8313 0
M  V30 19 H 2.2963 -0.7609 -1.102 0
M  V30 20 H 1.4064 -2.2482 -0.6419 0
M  V30 21 H 0.6655 -1.0652 -1.778 0
M  V30 22 H -1.5743 -1.2258 -1.2001 0
M  V30 23 H -2.7083 -1.4233 0.1759 0
M  V30 END ATOM
M  V30 BEGIN BOND
M  V30 1 2 1 2
M  V30 2 1 2 3
M  V30 3 1 2 4
M  V30 4 2 4 5
M  V30 5 1 4 6
M  V30 6 1 5 7
M  V30 7 1 6 8
M  V30 8 1 6 9
M  V30 9 1 6 10
M  V30 10 1 7 11
M  V30 11 2 8 12
M  V30 12 1 8 13
M  V30 13 1 9 11
M  V30 14 1 5 14
M  V30 15 1 7 15
M  V30 16 1 7 16
M  V30 17 1 9 17
M  V30 18 1 9 18
M  V30 19 1 10 19
M  V30 20 1 10 20
M  V30 21 1 10 21
M  V30 22 1 11 22
M  V30 23 1 11 23
M  V30 END BOND
M  V30 BEGIN COLLECTION
M  V30 MDLV30/STEABS ATOMS=(1 6)
M  V30 END COLLECTION
M  V30 END CTAB
M  END
>  <Structure No>
4678

>  <LogS>
-1.9642

>  <MMFF94 Energy>
117.86

$$$$
Compound 4679
Actelion Java MolfileCreator 2.0

  0  0  0  0  0  0              0 V3000
M  V30 BEGIN CTAB
M  V30 COUNTS 28 27 0 0 0
M  V30 BEGIN ATOM
M  V30 1 O -0.1613 -2.1803 -2.3419 0
M  V30 2 C 0.6761 -1.4196 -1.7889 0
M  V30 3 O 1.6128 -0.757 -2.5745 0 CHG=-1
M  V30 4 C 0.6346 -1.2187 -0.2874 0 CFG=2
M  V30 5 N -0.3107 -0.141 0.1157 0
M  V30 6 C 2.0362 -0.982 0.3181 0
M  V30 7 C -1.7221 -0.5134 -0.1418 0
M  V30 8 C 0.0295 1.207 -0.4106 0
M  V30 9 C 2.9096 -2.1926 0.1784 0
M  V30 10 C -2.6662 0.2577 0.7872 0
M  V30 11 C 0.3899 2.1322 0.7526 0
M  V30 12 O 3.7372 -2.2728 -0.7671 0
M  V30 13 O 2.7811 -3.2489 1.0714 0 CHG=-1
M  V30 14 C -4.0499 -0.1967 0.6072 0
M  V30 15 C 0.7091 3.4782 0.2633 0
M  V30 16 N -5.1412 -0.5548 0.4653 0
M  V30 17 N 0.9609 4.5399 -0.1225 0
M  V30 18 H 0.2801 -2.1747 0.1627 0
M  V30 19 H 1.9289 -0.7563 1.4012 0
M  V30 20 H 2.5381 -0.1104 -0.1534 0
M  V30 21 H -1.8788 -1.5988 0.0524 0
M  V30 22 H -1.9918 -0.3265 -1.2063 0
M  V30 23 H -0.8161 1.6566 -0.9797 0
M  V30 24 H 0.8841 1.1798 -1.1179 0
M  V30 25 H -2.3693 0.0926 1.8448 0
M  V30 26 H -2.6263 1.3448 0.5692 0
M  V30 27 H -0.4608 2.2025 1.462 0
M  V30 28 H 1.2713 1.7326 1.2962 0
M  V30 END ATOM
M  V30 BEGIN BOND
M  V30 1 2 1 2
M  V30 2 1 2 3
M  V30 3 1 2 4
M  V30 4 1 4 5
M  V30 5 1 4 6
M  V30 6 1 5 7
M  V30 7 1 5 8
M  V30 8 1 6 9
M  V30 9 1 7 10
M  V30 10 1 8 11
M  V30 11 2 9 12
M  V30 12 1 9 13
M  V30 13 1 10 14
M  V30 14 1 11 15
M  V30 15 3 14 16
M  V30 16 3 15 17
M  V30 17 1 4 18
M  V30 18 1 6 19
M  V30 19 1 6 20
M  V30 20 1 7 21
M  V30 21 1 7 22
M  V30 22 1 8 23
M  V30 23 1 8 24
M  V30 24 1 10 25
M  V30 25 1 10 26
M  V30 26 1 11 27
M  V30 27 1 11 28
M  V30 END BOND
M  V30 BEGIN COLLECTION
M  V30 MDLV30/STEABS ATOMS=(1 4)
M  V30 END COLLECTION
M  V30 END CTAB
M  END
>  <Structure No>
4679

>  <LogS>
-1.5337

>  <MMFF94 Energy>
130.74

$$$$
Compound 4680
Actelion Java MolfileCreator 2.0

  0  0  0  0  0  0              0 V3000
M  V30 BEGIN CTAB
M  V30 COUNTS 32 32 0 0 0
M  V30 BEGIN ATOM
M  V30 1 O -0.7871 1.1021 2.1263 0
M  V30 2 C -0.9146 0.6506 0.9555 0
M  V30 3 N -1.7617 -0.4907 0.7207 0
M  V30 4 C -0.2136 1.338 -0.1515 0
M  V30 5 C -2.0388 -1.4109 1.8262 0
M  V30 6 C -2.4782 -0.6268 -0.5516 0
M  V30 7 C 0.6429 0.6507 -1.0486 0
M  V30 8 C -0.421 2.717 -0.3187 0
M  V30 9 C 0.9749 -0.7818 -0.884 0
M  V30 10 C 1.2118 1.3481 -2.1269 0
M  V30 11 C 0.1701 3.3996 -1.3834 0
M  V30 12 O 0.79 -1.5623 -1.8575 0
M  V30 13 N 1.5342 -1.2919 0.3415 0
M  V30 14 C 0.9772 2.7146 -2.2911 0
M  V30 15 C 1.4025 -2.7191 0.6443 0
M  V30 16 C 2.3765 -0.4329 1.1805 0
M  V30 17 H -2.6009 -2.3041 1.4814 0
M  V30 18 H -1.0837 -1.7589 2.2731 0
M  V30 19 H -2.6358 -0.8919 2.6054 0
M  V30 20 H -1.7701 -0.8594 -1.3702 0
M  V30 21 H -3.2344 -1.4386 -0.5086 0
M  V30 22 H -3.0069 0.321 -0.7873 0
M  V30 23 H -1.0624 3.2614 0.3639 0
M  V30 24 H 1.859 0.837 -2.8294 0
M  V30 25 H -0.0052 4.4601 -1.5098 0
M  V30 26 H 1.4297 3.245 -3.119 0
M  V30 27 H 0.3348 -3.018 0.5857 0
M  V30 28 H 1.9863 -3.3134 -0.0895 0
M  V30 29 H 1.7681 -2.954 1.666 0
M  V30 30 H 3.1549 0.0538 0.5557 0
M  V30 31 H 1.7639 0.3489 1.6697 0
M  V30 32 H 2.8898 -1.0156 1.974 0
M  V30 END ATOM
M  V30 BEGIN BOND
M  V30 1 2 1 2
M  V30 2 1 2 3
M  V30 3 1 2 4
M  V30 4 1 3 5
M  V30 5 1 3 6
M  V30 6 2 4 7
M  V30 7 1 4 8
M  V30 8 1 7 9
M  V30 9 1 7 10
M  V30 10 2 8 11
M  V30 11 2 9 12
M  V30 12 1 9 13
M  V30 13 2 10 14
M  V30 14 1 13 15
M  V30 15 1 13 16
M  V30 16 1 11 14
M  V30 17 1 5 17
M  V30 18 1 5 18
M  V30 19 1 5 19
M  V30 20 1 6 20
M  V30 21 1 6 21
M  V30 22 1 6 22
M  V30 23 1 8 23
M  V30 24 1 10 24
M  V30 25 1 11 25
M  V30 26 1 14 26
M  V30 27 1 15 27
M  V30 28 1 15 28
M  V30 29 1 15 29
M  V30 30 1 16 30
M  V30 31 1 16 31
M  V30 32 1 16 32
M  V30 END BOND
M  V30 END CTAB
M  END
>  <Structure No>
4680

>  <LogS>
0.5083

>  <MMFF94 Energy>
16.378

$$$$
Compound 4681
Actelion Java MolfileCreator 2.0

  0  0  0  0  0  0              0 V3000
M  V30 BEGIN CTAB
M  V30 COUNTS 29 29 0 0 0
M  V30 BEGIN ATOM
M  V30 1 O -5.5696 -0.3176 -1.0325 0
M  V30 2 C -4.8313 -1.0648 -0.3388 0
M  V30 3 O -5.3337 -1.6487 0.8169 0 CHG=-1
M  V30 4 C -3.4056 -1.2754 -0.7227 0
M  V30 5 O -2.6098 -0.2409 -0.1525 0
M  V30 6 C -1.2192 -0.1281 -0.3082 0
M  V30 7 C -0.5638 0.9462 0.3132 0
M  V30 8 C -0.4742 -1.0553 -1.0611 0
M  V30 9 O -1.3323 1.8521 1.0617 0
M  V30 10 C 0.831 1.086 0.1738 0
M  V30 11 C 0.9074 -0.91 -1.1939 0
M  V30 12 C -0.8058 2.9839 1.7467 0
M  V30 13 C 1.5681 0.1653 -0.5854 0
M  V30 14 C 3.0625 0.3065 -0.7041 0
M  V30 15 C 3.7469 -0.2226 0.5248 0
M  V30 16 C 3.806 -1.5315 0.7872 0
M  V30 17 H -3.3137 -1.2567 -1.8305 0
M  V30 18 H -3.0674 -2.2638 -0.344 0
M  V30 19 H -0.9535 -1.8945 -1.5461 0
M  V30 20 H 1.3515 1.9047 0.6528 0
M  V30 21 H 1.4629 -1.6385 -1.7716 0
M  V30 22 H -0.3226 3.6763 1.0255 0
M  V30 23 H -0.0732 2.6585 2.5152 0
M  V30 24 H -1.6353 3.52 2.2519 0
M  V30 25 H 3.4437 -0.2221 -1.6051 0
M  V30 26 H 3.3205 1.3807 -0.8263 0
M  V30 27 H 4.2148 0.4771 1.211 0
M  V30 28 H 4.3112 -1.8839 1.6805 0
M  V30 29 H 3.355 -2.2567 0.1168 0
M  V30 END ATOM
M  V30 BEGIN BOND
M  V30 1 2 1 2
M  V30 2 1 2 3
M  V30 3 1 2 4
M  V30 4 1 4 5
M  V30 5 1 5 6
M  V30 6 2 6 7
M  V30 7 1 6 8
M  V30 8 1 7 9
M  V30 9 1 7 10
M  V30 10 2 8 11
M  V30 11 1 9 12
M  V30 12 2 10 13
M  V30 13 1 13 14
M  V30 14 1 14 15
M  V30 15 2 15 16
M  V30 16 1 11 13
M  V30 17 1 4 17
M  V30 18 1 4 18
M  V30 19 1 8 19
M  V30 20 1 10 20
M  V30 21 1 11 21
M  V30 22 1 12 22
M  V30 23 1 12 23
M  V30 24 1 12 24
M  V30 25 1 14 25
M  V30 26 1 14 26
M  V30 27 1 15 27
M  V30 28 1 16 28
M  V30 29 1 16 29
M  V30 END BOND
M  V30 END CTAB
M  END
>  <Structure No>
4681

>  <LogS>
-2.2786

>  <MMFF94 Energy>
100.01

$$$$
Compound 4682
Actelion Java MolfileCreator 2.0

  0  0  0  0  0  0              0 V3000
M  V30 BEGIN CTAB
M  V30 COUNTS 48 51 0 0 0
M  V30 BEGIN ATOM
M  V30 1 O -2.1144 0.4876 -3.7431 0
M  V30 2 C -2.1401 0.7562 -2.5118 0
M  V30 3 C -3.3073 1.426 -1.9091 0
M  V30 4 C -0.9484 0.4604 -1.6572 0
M  V30 5 C -3.4262 1.4945 -0.5732 0
M  V30 6 C -4.4114 1.9448 -2.7881 0
M  V30 7 C -1.3654 -0.0876 -0.2599 0 CFG=2
M  V30 8 C -2.4051 0.9346 0.3954 0 CFG=1
M  V30 9 C -0.0914 -0.3286 0.7185 0 CFG=2
M  V30 10 C -2.1423 -1.4216 -0.4817 0
M  V30 11 O -1.7956 2.021 1.0912 0
M  V30 12 C -0.5678 0.1395 2.0759 0 CFG=2
M  V30 13 C 1.0689 0.717 0.5172 0 CFG=2
M  V30 14 C 0.4614 -1.7833 0.7078 0
M  V30 15 C -0.7094 1.6423 1.9408 0 CFG=1
M  V30 16 O 0.2346 -0.2557 3.1652 0
M  V30 17 C -1.1214 -0.6622 3.1867 0
M  V30 18 O 2.2787 0.3041 1.1682 0
M  V30 19 C 0.584 2.0111 1.2095 0
M  V30 20 C 3.3312 -0.3592 0.5245 0
M  V30 21 O 3.2605 -0.6197 -0.7073 0
M  V30 22 C 4.5096 -0.7436 1.3278 0
M  V30 23 C 5.5864 -1.4076 0.8812 0
M  V30 24 C 5.7754 -1.8794 -0.5279 0
M  V30 25 H -0.4432 1.4412 -1.5608 0
M  V30 26 H -0.2669 -0.2544 -2.1684 0
M  V30 27 H -4.293 1.9831 -0.1429 0
M  V30 28 H -3.9964 2.3348 -3.7414 0
M  V30 29 H -5.1221 1.1221 -3.012 0
M  V30 30 H -4.9615 2.7751 -2.2952 0
M  V30 31 H -3.0124 0.3783 1.1468 0
M  V30 32 H -1.5364 -2.1485 -1.0631 0
M  V30 33 H -3.0857 -1.2641 -1.0452 0
M  V30 34 H -2.4292 -1.8761 0.4903 0
M  V30 35 H 1.3143 0.9192 -0.5416 0
M  V30 36 H 0.8444 -2.032 -0.3039 0
M  V30 37 H 1.2826 -1.9201 1.4403 0
M  V30 38 H -0.3058 -2.5293 0.9912 0
M  V30 39 H -0.7911 2.1576 2.9225 0
M  V30 40 H -1.2215 -1.7542 3.026 0
M  V30 41 H -1.6985 -0.1061 3.9542 0
M  V30 42 H 0.4111 2.8168 0.4621 0
M  V30 43 H 1.337 2.3812 1.9406 0
M  V30 44 H 4.4949 -0.4646 2.3743 0
M  V30 45 H 6.3781 -1.6242 1.5884 0
M  V30 46 H 4.9697 -2.5911 -0.8056 0
M  V30 47 H 5.7822 -1.0149 -1.2244 0
M  V30 48 H 6.7494 -2.4045 -0.6155 0
M  V30 END ATOM
M  V30 BEGIN BOND
M  V30 1 2 1 2
M  V30 2 1 2 3
M  V30 3 1 2 4
M  V30 4 2 3 5
M  V30 5 1 3 6
M  V30 6 1 4 7
M  V30 7 1 5 8
M  V30 8 1 7 9
M  V30 9 1 7 10
M  V30 10 1 8 11
M  V30 11 1 9 12
M  V30 12 1 9 13
M  V30 13 1 9 14
M  V30 14 1 11 15
M  V30 15 1 12 16
M  V30 16 1 12 17
M  V30 17 1 13 18
M  V30 18 1 13 19
M  V30 19 1 18 20
M  V30 20 2 20 21
M  V30 21 1 20 22
M  V30 22 2 22 23
M  V30 23 1 23 24
M  V30 24 1 7 8
M  V30 25 1 12 15
M  V30 26 1 15 19
M  V30 27 1 16 17
M  V30 28 1 4 25
M  V30 29 1 4 26
M  V30 30 1 5 27
M  V30 31 1 6 28
M  V30 32 1 6 29
M  V30 33 1 6 30
M  V30 34 1 8 31
M  V30 35 1 10 32
M  V30 36 1 10 33
M  V30 37 1 10 34
M  V30 38 1 13 35
M  V30 39 1 14 36
M  V30 40 1 14 37
M  V30 41 1 14 38
M  V30 42 1 15 39
M  V30 43 1 17 40
M  V30 44 1 17 41
M  V30 45 1 19 42
M  V30 46 1 19 43
M  V30 47 1 22 44
M  V30 48 1 23 45
M  V30 49 1 24 46
M  V30 50 1 24 47
M  V30 51 1 24 48
M  V30 END BOND
M  V30 BEGIN COLLECTION
M  V30 MDLV30/STEABS ATOMS=(6 7 8 9 12 13 15)
M  V30 END COLLECTION
M  V30 END CTAB
M  END
>  <Structure No>
4682

>  <LogS>
-2.9196

>  <MMFF94 Energy>
68.861

$$$$
Compound 4683
Actelion Java MolfileCreator 2.0

  0  0  0  0  0  0              0 V3000
M  V30 BEGIN CTAB
M  V30 COUNTS 27 26 0 0 0
M  V30 BEGIN ATOM
M  V30 1 O 1.4771 1.8662 -1.944 0
M  V30 2 C 1.658 0.8146 -1.2712 0
M  V30 3 O 1.0522 0.6547 -0.0193 0
M  V30 4 C 2.5306 -0.2795 -1.8184 0 CFG=2
M  V30 5 C 0.1347 1.5953 0.5369 0
M  V30 6 O 1.7804 -1.4503 -2.0206 0
M  V30 7 C 3.7206 -0.547 -0.8925 0
M  V30 8 C -1.2305 1.5297 -0.1636 0
M  V30 9 C -1.8314 0.1147 -0.212 0
M  V30 10 C -2.2047 -0.4183 1.1786 0
M  V30 11 C -2.9248 -1.7598 1.0773 0
M  V30 12 H 2.9335 0.0406 -2.8041 0
M  V30 13 H 0.5496 2.6237 0.4564 0
M  V30 14 H 0.0115 1.3786 1.618 0
M  V30 15 H 1.4502 -1.757 -1.1351 0
M  V30 16 H 4.3594 -1.346 -1.3247 0
M  V30 17 H 3.3741 -0.8721 0.1119 0
M  V30 18 H 4.3332 0.3734 -0.7822 0
M  V30 19 H -1.1171 1.8987 -1.2053 0
M  V30 20 H -1.9365 2.2174 0.3508 0
M  V30 21 H -1.1215 -0.5833 -0.7066 0
M  V30 22 H -2.7488 0.1561 -0.8394 0
M  V30 23 H -1.2884 -0.559 1.7903 0
M  V30 24 H -2.8689 0.308 1.6956 0
M  V30 25 H -2.2746 -2.5094 0.5779 0
M  V30 26 H -3.8681 -1.6497 0.5009 0
M  V30 27 H -3.1728 -2.1267 2.0956 0
M  V30 END ATOM
M  V30 BEGIN BOND
M  V30 1 2 1 2
M  V30 2 1 2 3
M  V30 3 1 2 4
M  V30 4 1 3 5
M  V30 5 1 4 6
M  V30 6 1 4 7
M  V30 7 1 5 8
M  V30 8 1 8 9
M  V30 9 1 9 10
M  V30 10 1 10 11
M  V30 11 1 4 12
M  V30 12 1 5 13
M  V30 13 1 5 14
M  V30 14 1 6 15
M  V30 15 1 7 16
M  V30 16 1 7 17
M  V30 17 1 7 18
M  V30 18 1 8 19
M  V30 19 1 8 20
M  V30 20 1 9 21
M  V30 21 1 9 22
M  V30 22 1 10 23
M  V30 23 1 10 24
M  V30 24 1 11 25
M  V30 25 1 11 26
M  V30 26 1 11 27
M  V30 END BOND
M  V30 BEGIN COLLECTION
M  V30 MDLV30/STEABS ATOMS=(1 4)
M  V30 END COLLECTION
M  V30 END CTAB
M  END
>  <Structure No>
4683

>  <LogS>
-1.2047

>  <MMFF94 Energy>
22.994

$$$$
Compound 4684
Actelion Java MolfileCreator 2.0

  0  0  0  0  0  0              0 V3000
M  V30 BEGIN CTAB
M  V30 COUNTS 22 22 0 0 0
M  V30 BEGIN ATOM
M  V30 1 Cl -3.0243 -3.0243 -1.5521 0
M  V30 2 C -1.8651 -1.8906 -0.8822 0
M  V30 3 C -1.909 -0.5442 -1.2532 0
M  V30 4 C -0.9009 -2.3326 0.025 0
M  V30 5 C -0.9803 0.3697 -0.7274 0
M  V30 6 C 0.018 -1.4317 0.5676 0
M  V30 7 C -0.0138 -0.0706 0.2015 0
M  V30 8 C -1.0594 1.8207 -1.1188 0
M  V30 9 O 0.8862 0.8677 0.7387 0
M  V30 10 O -1.7046 2.5397 -0.1056 0
M  V30 11 C 1.9558 0.572 1.6367 0
M  V30 12 C 3.0507 -0.1636 0.9314 0
M  V30 13 O 3.5342 0.2943 -0.137 0
M  V30 14 O 3.5578 -1.3403 1.4677 0 CHG=-1
M  V30 15 H -2.6669 -0.2111 -1.952 0
M  V30 16 H -0.8655 -3.3749 0.3157 0
M  V30 17 H 0.7444 -1.8057 1.2746 0
M  V30 18 H -0.0345 2.2244 -1.2784 0
M  V30 19 H -1.6175 1.9374 -2.0751 0
M  V30 20 H -1.7151 3.4864 -0.4035 0
M  V30 21 H 2.3679 1.5278 2.0219 0
M  V30 22 H 1.582 -0.0066 2.5083 0
M  V30 END ATOM
M  V30 BEGIN BOND
M  V30 1 1 1 2
M  V30 2 2 2 3
M  V30 3 1 2 4
M  V30 4 1 3 5
M  V30 5 2 4 6
M  V30 6 2 5 7
M  V30 7 1 5 8
M  V30 8 1 7 9
M  V30 9 1 8 10
M  V30 10 1 9 11
M  V30 11 1 11 12
M  V30 12 2 12 13
M  V30 13 1 12 14
M  V30 14 1 6 7
M  V30 15 1 3 15
M  V30 16 1 4 16
M  V30 17 1 6 17
M  V30 18 1 8 18
M  V30 19 1 8 19
M  V30 20 1 10 20
M  V30 21 1 11 21
M  V30 22 1 11 22
M  V30 END BOND
M  V30 END CTAB
M  END
>  <Structure No>
4684

>  <LogS>
-2.0347

>  <MMFF94 Energy>
61.012

$$$$
Compound 4685
Actelion Java MolfileCreator 2.0

  0  0  0  0  0  0              0 V3000
M  V30 BEGIN CTAB
M  V30 COUNTS 42 42 0 0 0
M  V30 BEGIN ATOM
M  V30 1 O 4.3131 -0.7048 0.5481 0
M  V30 2 C 4.4353 -0.2349 -0.6162 0
M  V30 3 O 3.3281 -0.131 -1.4679 0
M  V30 4 N 5.7251 0.1456 -1.103 0
M  V30 5 C 1.9853 -0.1956 -1.0658 0
M  V30 6 C 6.9219 0.0433 -0.2778 0
M  V30 7 C 1.5586 0.2496 0.1941 0
M  V30 8 C 1.0454 -0.6897 -1.9704 0
M  V30 9 C 0.203 0.2006 0.5528 0
M  V30 10 C -0.3095 -0.7878 -1.6239 0
M  V30 11 C -0.7458 -0.3132 -0.3631 0
M  V30 12 C -0.1881 0.633 1.9405 0
M  V30 13 C -1.266 -1.3724 -2.6293 0
M  V30 14 N -2.1421 -0.3709 -0.0085 0
M  V30 15 C -3.0879 0.5775 -0.6165 0
M  V30 16 C -2.6352 -1.5138 0.7711 0
M  V30 17 C -3.0359 1.9072 0.0787 0
M  V30 18 C -3.205 -1.0608 2.0871 0
M  V30 19 C -2.0827 2.8027 -0.1925 0
M  V30 20 C -4.4942 -0.7417 2.2282 0
M  V30 21 H 5.809 0.5123 -2.0774 0
M  V30 22 H 6.806 0.6673 0.6332 0
M  V30 23 H 7.0881 -1.015 0.014 0
M  V30 24 H 7.805 0.4017 -0.8479 0
M  V30 25 H 2.2744 0.6656 0.8905 0
M  V30 26 H 1.3809 -1.0233 -2.9451 0
M  V30 27 H 0.5036 1.4143 2.3202 0
M  V30 28 H -0.1458 -0.2413 2.622 0
M  V30 29 H -1.2085 1.0617 1.9635 0
M  V30 30 H -1.6182 -0.5746 -3.3151 0
M  V30 31 H -2.1389 -1.8454 -2.134 0
M  V30 32 H -0.7648 -2.1601 -3.2311 0
M  V30 33 H -4.1244 0.1858 -0.5434 0
M  V30 34 H -2.8778 0.707 -1.6988 0
M  V30 35 H -3.394 -2.0753 0.1835 0
M  V30 36 H -1.8036 -2.2213 0.9823 0
M  V30 37 H -3.7973 2.1478 0.8142 0
M  V30 38 H -2.5461 -0.9795 2.9459 0
M  V30 39 H -1.3095 2.5919 -0.9249 0
M  V30 40 H -2.0708 3.7565 0.3241 0
M  V30 41 H -5.1857 -0.8135 1.3951 0
M  V30 42 H -4.8674 -0.4096 3.1915 0
M  V30 END ATOM
M  V30 BEGIN BOND
M  V30 1 2 1 2
M  V30 2 1 2 3
M  V30 3 1 2 4
M  V30 4 1 3 5
M  V30 5 1 4 6
M  V30 6 2 5 7
M  V30 7 1 5 8
M  V30 8 1 7 9
M  V30 9 2 8 10
M  V30 10 2 9 11
M  V30 11 1 9 12
M  V30 12 1 10 13
M  V30 13 1 11 14
M  V30 14 1 14 15
M  V30 15 1 14 16
M  V30 16 1 15 17
M  V30 17 1 16 18
M  V30 18 2 17 19
M  V30 19 2 18 20
M  V30 20 1 10 11
M  V30 21 1 4 21
M  V30 22 1 6 22
M  V30 23 1 6 23
M  V30 24 1 6 24
M  V30 25 1 7 25
M  V30 26 1 8 26
M  V30 27 1 12 27
M  V30 28 1 12 28
M  V30 29 1 12 29
M  V30 30 1 13 30
M  V30 31 1 13 31
M  V30 32 1 13 32
M  V30 33 1 15 33
M  V30 34 1 15 34
M  V30 35 1 16 35
M  V30 36 1 16 36
M  V30 37 1 17 37
M  V30 38 1 18 38
M  V30 39 1 19 39
M  V30 40 1 19 40
M  V30 41 1 20 41
M  V30 42 1 20 42
M  V30 END BOND
M  V30 END CTAB
M  END
>  <Structure No>
4685

>  <LogS>
-3.5932

>  <MMFF94 Energy>
-3.6378

$$$$
Compound 4686
Actelion Java MolfileCreator 2.0

  0  0  0  0  0  0              0 V3000
M  V30 BEGIN CTAB
M  V30 COUNTS 23 24 0 0 0
M  V30 BEGIN ATOM
M  V30 1 Cl 3.2437 -1.1344 2.4321 0
M  V30 2 C 2.802 -0.2894 0.9598 0
M  V30 3 C 1.5159 -0.4359 0.4276 0
M  V30 4 C 3.7376 0.5242 0.3128 0
M  V30 5 C 1.1553 0.2437 -0.7509 0
M  V30 6 C 3.3907 1.1846 -0.8687 0
M  V30 7 O -0.1179 0.1113 -1.3241 0
M  V30 8 C 2.1062 1.0396 -1.4015 0
M  V30 9 C -1.3093 -0.1082 -0.617 0
M  V30 10 C -1.5108 0.4003 0.68 0
M  V30 11 C -2.3438 -0.8141 -1.2443 0
M  V30 12 C -2.7201 0.1733 1.3446 0
M  V30 13 C -3.552 -1.0399 -0.5772 0
M  V30 14 C -3.7387 -0.5496 0.718 0
M  V30 15 H 0.8095 -1.0911 0.9203 0
M  V30 16 H 4.7339 0.6396 0.7201 0
M  V30 17 H 4.1177 1.808 -1.3728 0
M  V30 18 H 1.8457 1.553 -2.3183 0
M  V30 19 H -0.7439 0.9868 1.1686 0
M  V30 20 H -2.2071 -1.1949 -2.2483 0
M  V30 21 H -2.8704 0.5642 2.3427 0
M  V30 22 H -4.3439 -1.5932 -1.0651 0
M  V30 23 H -4.6747 -0.7234 1.2329 0
M  V30 END ATOM
M  V30 BEGIN BOND
M  V30 1 1 1 2
M  V30 2 2 2 3
M  V30 3 1 2 4
M  V30 4 1 3 5
M  V30 5 2 4 6
M  V30 6 1 5 7
M  V30 7 2 5 8
M  V30 8 1 7 9
M  V30 9 2 9 10
M  V30 10 1 9 11
M  V30 11 1 10 12
M  V30 12 2 11 13
M  V30 13 2 12 14
M  V30 14 1 6 8
M  V30 15 1 13 14
M  V30 16 1 3 15
M  V30 17 1 4 16
M  V30 18 1 6 17
M  V30 19 1 8 18
M  V30 20 1 10 19
M  V30 21 1 11 20
M  V30 22 1 12 21
M  V30 23 1 13 22
M  V30 24 1 14 23
M  V30 END BOND
M  V30 END CTAB
M  END
>  <Structure No>
4686

>  <LogS>
-4.2107

>  <MMFF94 Energy>
36.38

$$$$
Compound 4687
Actelion Java MolfileCreator 2.0

  0  0  0  0  0  0              0 V3000
M  V30 BEGIN CTAB
M  V30 COUNTS 25 25 0 0 0
M  V30 BEGIN ATOM
M  V30 1 O 1.9724 2.2882 0.8674 0
M  V30 2 C 1.4233 1.2276 0.4647 0
M  V30 3 C 2.2411 0.1536 -0.1517 0
M  V30 4 C -0.0561 1.0459 0.6667 0
M  V30 5 C 1.6638 -0.9985 -0.5343 0
M  V30 6 C 3.7222 0.3507 -0.3235 0
M  V30 7 C -0.6221 0.0298 -0.343 0 CFG=1
M  V30 8 C 0.2001 -1.2729 -0.3092 0
M  V30 9 C -2.1033 -0.2333 -0.1047 0
M  V30 10 C -2.5414 -0.774 1.0453 0
M  V30 11 C -3.113 0.1119 -1.1689 0
M  V30 12 H -0.572 2.0223 0.5356 0
M  V30 13 H -0.2221 0.6995 1.7088 0
M  V30 14 H 2.2643 -1.7889 -0.9689 0
M  V30 15 H 4.1569 -0.3878 -1.0308 0
M  V30 16 H 4.2245 0.2428 0.6603 0
M  V30 17 H 3.926 1.3658 -0.7249 0
M  V30 18 H -0.4946 0.4706 -1.3576 0
M  V30 19 H 0.0911 -1.7791 0.6735 0
M  V30 20 H -0.1644 -1.9648 -1.0989 0
M  V30 21 H -3.6001 -0.9577 1.2042 0
M  V30 22 H -1.8561 -1.0409 1.8428 0
M  V30 23 H -3.8406 0.8503 -0.7701 0
M  V30 24 H -2.6314 0.5505 -2.0673 0
M  V30 25 H -3.6585 -0.8041 -1.4797 0
M  V30 END ATOM
M  V30 BEGIN BOND
M  V30 1 2 1 2
M  V30 2 1 2 3
M  V30 3 1 2 4
M  V30 4 2 3 5
M  V30 5 1 3 6
M  V30 6 1 4 7
M  V30 7 1 5 8
M  V30 8 1 7 9
M  V30 9 2 9 10
M  V30 10 1 9 11
M  V30 11 1 7 8
M  V30 12 1 4 12
M  V30 13 1 4 13
M  V30 14 1 5 14
M  V30 15 1 6 15
M  V30 16 1 6 16
M  V30 17 1 6 17
M  V30 18 1 7 18
M  V30 19 1 8 19
M  V30 20 1 8 20
M  V30 21 1 10 21
M  V30 22 1 10 22
M  V30 23 1 11 23
M  V30 24 1 11 24
M  V30 25 1 11 25
M  V30 END BOND
M  V30 BEGIN COLLECTION
M  V30 MDLV30/STEABS ATOMS=(1 7)
M  V30 END COLLECTION
M  V30 END CTAB
M  END
>  <Structure No>
4687

>  <LogS>
-2.0608

>  <MMFF94 Energy>
28.081

$$$$
Compound 4688
Actelion Java MolfileCreator 2.0

  0  0  0  0  0  0              0 V3000
M  V30 BEGIN CTAB
M  V30 COUNTS 28 29 0 0 0
M  V30 BEGIN ATOM
M  V30 1 Cl 6.6977 0.7425 0.7425 0
M  V30 2 C 4.9954 0.4954 0.3995 0
M  V30 3 C 4.0244 1.1474 1.166 0
M  V30 4 C 4.6071 -0.3445 -0.6487 0
M  V30 5 C 2.6666 0.9531 0.8929 0
M  V30 6 C 3.2503 -0.5396 -0.9245 0
M  V30 7 C 2.268 0.0898 -0.1443 0
M  V30 8 N 0.881 -0.1085 -0.4657 0
M  V30 9 C -0.1651 -0.2241 0.5158 0
M  V30 10 O 0.1074 -0.1786 1.7463 0
M  V30 11 C -1.5752 -0.392 0.1023 0
M  V30 12 C -1.9438 -1.2963 -0.913 0
M  V30 13 C -2.5747 0.3474 0.7583 0
M  V30 14 O -0.995 -2.1004 -1.5355 0 CHG=-1
M  V30 15 C -3.2847 -1.4191 -1.2865 0
M  V30 16 C -3.9258 0.2222 0.3891 0
M  V30 17 C -4.2692 -0.6656 -0.6447 0
M  V30 18 N -4.9392 0.9941 1.0602 0 CHG=1
M  V30 19 O -6.1401 0.8884 0.735 0
M  V30 20 O -4.6014 1.8623 2.0734 0 CHG=-1
M  V30 21 H 4.3204 1.8128 1.9673 0
M  V30 22 H 5.3546 -0.8443 -1.2513 0
M  V30 23 H 1.9348 1.4992 1.4726 0
M  V30 24 H 2.9618 -1.1906 -1.7404 0
M  V30 25 H 0.6365 -0.2237 -1.4743 0
M  V30 26 H -2.2941 1.034 1.5478 0
M  V30 27 H -3.5664 -2.1114 -2.0698 0
M  V30 28 H -5.3004 -0.7838 -0.952 0
M  V30 END ATOM
M  V30 BEGIN BOND
M  V30 1 1 1 2
M  V30 2 2 2 3
M  V30 3 1 2 4
M  V30 4 1 3 5
M  V30 5 2 4 6
M  V30 6 2 5 7
M  V30 7 1 7 8
M  V30 8 1 8 9
M  V30 9 2 9 10
M  V30 10 1 9 11
M  V30 11 2 11 12
M  V30 12 1 11 13
M  V30 13 1 12 14
M  V30 14 1 12 15
M  V30 15 2 13 16
M  V30 16 2 15 17
M  V30 17 1 16 18
M  V30 18 2 18 19
M  V30 19 1 18 20
M  V30 20 1 6 7
M  V30 21 1 16 17
M  V30 22 1 3 21
M  V30 23 1 4 22
M  V30 24 1 5 23
M  V30 25 1 6 24
M  V30 26 1 8 25
M  V30 27 1 13 26
M  V30 28 1 15 27
M  V30 29 1 17 28
M  V30 END BOND
M  V30 END CTAB
M  END
>  <Structure No>
4688

>  <LogS>
-5.122

>  <MMFF94 Energy>
33.519

$$$$
Compound 4689
Actelion Java MolfileCreator 2.0

  0  0  0  0  0  0              0 V3000
M  V30 BEGIN CTAB
M  V30 COUNTS 28 29 0 0 0
M  V30 BEGIN ATOM
M  V30 1 Cl -6.6993 0.8252 0.33 0
M  V30 2 C -4.9518 0.6927 0.257 0
M  V30 3 C -4.2062 1.6427 -0.4477 0
M  V30 4 C -4.301 -0.3565 0.9137 0
M  V30 5 C -2.8129 1.5392 -0.5038 0
M  V30 6 C -2.9077 -0.4628 0.8582 0
M  V30 7 C -2.1529 0.4752 0.1301 0
M  V30 8 N -0.718 0.4069 0.0773 0
M  V30 9 C 0.0268 -0.8186 -0.0418 0
M  V30 10 O -0.574 -1.9236 -0.1308 0
M  V30 11 C 1.5057 -0.8055 -0.0558 0
M  V30 12 C 2.2297 0.116 -0.8432 0
M  V30 13 C 2.2002 -1.7541 0.7089 0
M  V30 14 O 1.5446 0.9933 -1.6786 0 CHG=-1
M  V30 15 C 3.6445 0.1181 -0.8178 0
M  V30 16 C 3.5935 -1.7661 0.7238 0
M  V30 17 N 4.4085 1.0659 -1.5929 0 CHG=1
M  V30 18 C 4.3113 -0.8361 -0.0271 0
M  V30 19 O 5.6423 0.9253 -1.7246 0
M  V30 20 O 3.8118 2.1708 -2.1553 0 CHG=-1
M  V30 21 H -4.7041 2.4625 -0.9499 0
M  V30 22 H -4.8727 -1.0842 1.4756 0
M  V30 23 H -2.2462 2.2823 -1.0507 0
M  V30 24 H -2.4235 -1.2591 1.4071 0
M  V30 25 H -0.1964 1.312 0.0745 0
M  V30 26 H 1.6612 -2.4781 1.3082 0
M  V30 27 H 4.12 -2.4962 1.325 0
M  V30 28 H 5.3927 -0.8625 0.0115 0
M  V30 END ATOM
M  V30 BEGIN BOND
M  V30 1 1 1 2
M  V30 2 2 2 3
M  V30 3 1 2 4
M  V30 4 1 3 5
M  V30 5 2 4 6
M  V30 6 2 5 7
M  V30 7 1 7 8
M  V30 8 1 8 9
M  V30 9 2 9 10
M  V30 10 1 9 11
M  V30 11 2 11 12
M  V30 12 1 11 13
M  V30 13 1 12 14
M  V30 14 1 12 15
M  V30 15 2 13 16
M  V30 16 1 15 17
M  V30 17 2 15 18
M  V30 18 2 17 19
M  V30 19 1 17 20
M  V30 20 1 6 7
M  V30 21 1 16 18
M  V30 22 1 3 21
M  V30 23 1 4 22
M  V30 24 1 5 23
M  V30 25 1 6 24
M  V30 26 1 8 25
M  V30 27 1 13 26
M  V30 28 1 16 27
M  V30 29 1 18 28
M  V30 END BOND
M  V30 END CTAB
M  END
>  <Structure No>
4689

>  <LogS>
-4.5452

>  <MMFF94 Energy>
87.437

$$$$
Compound 4690
Actelion Java MolfileCreator 2.0

  0  0  0  0  0  0              0 V3000
M  V30 BEGIN CTAB
M  V30 COUNTS 38 39 0 0 0
M  V30 BEGIN ATOM
M  V30 1 O 0.7917 0.6333 1.6631 0
M  V30 2 C -0.2912 0.4238 1.0475 0
M  V30 3 N -0.5597 -0.8353 0.5297 0
M  V30 4 N -1.1909 1.457 0.8946 0
M  V30 5 C -1.7342 -1.0637 -0.1533 0
M  V30 6 C 0.417 -1.9347 0.6842 0
M  V30 7 C -2.3326 1.2118 0.1968 0
M  V30 8 C -0.8927 2.8027 1.4027 0
M  V30 9 O -2.0053 -2.2017 -0.6259 0
M  V30 10 C -2.6192 -0.0063 -0.3139 0
M  V30 11 C 1.2172 -2.1748 -0.6098 0
M  V30 12 N -3.3121 2.0938 -0.0888 0
M  V30 13 N -3.8034 0.0549 -0.9455 0
M  V30 14 C 2.073 -0.9757 -1.0519 0
M  V30 15 C -4.1987 1.3427 -0.7927 0
M  V30 16 C -4.5132 -1.0036 -1.6563 0
M  V30 17 C 3.3143 -0.7791 -0.1711 0
M  V30 18 C 4.1104 0.4102 -0.6393 0
M  V30 19 O 4.7085 0.3525 -1.703 0
M  V30 20 C 4.1898 1.6673 0.1759 0
M  V30 21 H 1.1055 -1.757 1.5364 0
M  V30 22 H -0.1191 -2.8733 0.9461 0
M  V30 23 H -0.2086 3.3223 0.6991 0
M  V30 24 H -1.8172 3.4074 1.5201 0
M  V30 25 H -0.4133 2.7445 2.4032 0
M  V30 26 H 1.8697 -3.0643 -0.4721 0
M  V30 27 H 0.5093 -2.4214 -1.4298 0
M  V30 28 H 2.4078 -1.1622 -2.096 0
M  V30 29 H 1.4607 -0.0489 -1.067 0
M  V30 30 H -5.1242 1.7385 -1.1911 0
M  V30 31 H -4.7243 -1.8442 -0.9628 0
M  V30 32 H -3.8934 -1.3668 -2.5027 0
M  V30 33 H -5.4767 -0.6234 -2.0575 0
M  V30 34 H 3.0146 -0.6389 0.8869 0
M  V30 35 H 3.9577 -1.6844 -0.2185 0
M  V30 36 H 3.5874 1.588 1.105 0
M  V30 37 H 3.8047 2.5204 -0.4208 0
M  V30 38 H 5.2466 1.8647 0.4521 0
M  V30 END ATOM
M  V30 BEGIN BOND
M  V30 1 2 1 2
M  V30 2 1 2 3
M  V30 3 1 2 4
M  V30 4 1 3 5
M  V30 5 1 3 6
M  V30 6 1 4 7
M  V30 7 1 4 8
M  V30 8 2 5 9
M  V30 9 1 5 10
M  V30 10 1 6 11
M  V30 11 1 7 12
M  V30 12 1 10 13
M  V30 13 1 11 14
M  V30 14 2 12 15
M  V30 15 1 13 16
M  V30 16 1 14 17
M  V30 17 1 17 18
M  V30 18 2 18 19
M  V30 19 1 18 20
M  V30 20 2 7 10
M  V30 21 1 13 15
M  V30 22 1 6 21
M  V30 23 1 6 22
M  V30 24 1 8 23
M  V30 25 1 8 24
M  V30 26 1 8 25
M  V30 27 1 11 26
M  V30 28 1 11 27
M  V30 29 1 14 28
M  V30 30 1 14 29
M  V30 31 1 15 30
M  V30 32 1 16 31
M  V30 33 1 16 32
M  V30 34 1 16 33
M  V30 35 1 17 34
M  V30 36 1 17 35
M  V30 37 1 20 36
M  V30 38 1 20 37
M  V30 39 1 20 38
M  V30 END BOND
M  V30 END CTAB
M  END
>  <Structure No>
4690

>  <LogS>
-0.558

>  <MMFF94 Energy>
-121.18

$$$$
Compound 4691
Actelion Java MolfileCreator 2.0

  0  0  0  0  0  0              0 V3000
M  V30 BEGIN CTAB
M  V30 COUNTS 31 31 0 0 0
M  V30 BEGIN ATOM
M  V30 1 O 0.788 1.7343 1.1034 0
M  V30 2 C 1.0813 0.8489 0.2531 0
M  V30 3 O 0.1076 0.3821 -0.6396 0
M  V30 4 C 2.4561 0.3058 0.1916 0
M  V30 5 C -1.2532 0.8086 -0.6147 0
M  V30 6 C 2.7873 -0.6823 -0.7525 0
M  V30 7 C 3.4508 0.766 1.0745 0
M  V30 8 C -2.01 0.1183 0.527 0
M  V30 9 C 4.0856 -1.1982 -0.8122 0
M  V30 10 C 4.748 0.2477 1.0117 0
M  V30 11 C -3.4375 0.6623 0.7161 0
M  V30 12 C 5.0694 -0.7341 0.0702 0
M  V30 13 C -4.3766 0.4424 -0.4832 0
M  V30 14 O 6.3659 -1.2409 0.0196 0
M  V30 15 C -4.6146 -1.035 -0.7927 0
M  V30 16 H -1.7141 0.5285 -1.5842 0
M  V30 17 H -1.305 1.915 -0.5127 0
M  V30 18 H 2.0447 -1.0581 -1.4453 0
M  V30 19 H 3.2277 1.5257 1.8134 0
M  V30 20 H -1.458 0.2846 1.4768 0
M  V30 21 H -2.0305 -0.9782 0.3545 0
M  V30 22 H 4.3256 -1.9585 -1.5444 0
M  V30 23 H 5.5046 0.6098 1.6963 0
M  V30 24 H -3.3819 1.7527 0.9277 0
M  V30 25 H -3.8835 0.1817 1.6142 0
M  V30 26 H -5.3569 0.9082 -0.2426 0
M  V30 27 H -3.9868 0.9572 -1.3862 0
M  V30 28 H 6.6301 -1.953 -0.6511 0
M  V30 29 H -3.6949 -1.5025 -1.2014 0
M  V30 30 H -4.9339 -1.5782 0.1221 0
M  V30 31 H -5.4154 -1.1275 -1.5564 0
M  V30 END ATOM
M  V30 BEGIN BOND
M  V30 1 2 1 2
M  V30 2 1 2 3
M  V30 3 1 2 4
M  V30 4 1 3 5
M  V30 5 2 4 6
M  V30 6 1 4 7
M  V30 7 1 5 8
M  V30 8 1 6 9
M  V30 9 2 7 10
M  V30 10 1 8 11
M  V30 11 2 9 12
M  V30 12 1 11 13
M  V30 13 1 12 14
M  V30 14 1 13 15
M  V30 15 1 10 12
M  V30 16 1 5 16
M  V30 17 1 5 17
M  V30 18 1 6 18
M  V30 19 1 7 19
M  V30 20 1 8 20
M  V30 21 1 8 21
M  V30 22 1 9 22
M  V30 23 1 10 23
M  V30 24 1 11 24
M  V30 25 1 11 25
M  V30 26 1 13 26
M  V30 27 1 13 27
M  V30 28 1 14 28
M  V30 29 1 15 29
M  V30 30 1 15 30
M  V30 31 1 15 31
M  V30 END BOND
M  V30 END CTAB
M  END
>  <Structure No>
4691

>  <LogS>
-3.8135

>  <MMFF94 Energy>
16.783

$$$$
Compound 4692
Actelion Java MolfileCreator 2.0

  0  0  0  0  0  0              0 V3000
M  V30 BEGIN CTAB
M  V30 COUNTS 51 54 0 0 0
M  V30 BEGIN ATOM
M  V30 1 O 6.0886 1.6209 -1.5398 0
M  V30 2 C 4.9855 1.1736 -1.128 0
M  V30 3 C 4.0898 0.4773 -2.0651 0
M  V30 4 C 4.605 1.3528 0.3122 0
M  V30 5 C 2.9484 -0.1013 -1.6522 0
M  V30 6 C 3.105 1.1089 0.5381 0
M  V30 7 C 2.6559 -0.2046 -0.1502 0 CFG=1
M  V30 8 C 1.9737 -0.5324 -2.727 0
M  V30 9 C 1.1953 -0.6705 0.1928 0 CFG=2
M  V30 10 C 0.649 -1.0893 -2.2094 0
M  V30 11 C 0.181 -0.3541 -0.9428 0 CFG=1
M  V30 12 C 0.6871 -0.2171 1.5936 0
M  V30 13 C -1.221 -0.8566 -0.5117 0 CFG=1
M  V30 14 C -0.7401 -0.7194 1.9141 0
M  V30 15 C -1.7421 -0.2632 0.8187 0 CFG=2
M  V30 16 C -2.3822 -0.7185 -1.4851 0
M  V30 17 C -3.1667 -0.9293 0.87 0 CFG=1
M  V30 18 C -1.8606 1.3194 0.7583 0
M  V30 19 C -3.6344 -0.9307 -0.618 0
M  V30 20 O -3.1018 -2.242 1.389 0
M  V30 21 C -4.1606 -0.2126 1.6925 0
M  V30 22 C -1.956 2.04 2.1152 0
M  V30 23 C -4.9957 0.3531 2.3546 0
M  V30 24 H 4.3236 0.5247 -3.1229 0
M  V30 25 H 4.8612 2.3831 0.6409 0
M  V30 26 H 5.1938 0.6364 0.9252 0
M  V30 27 H 2.5157 1.9644 0.1391 0
M  V30 28 H 2.9601 1.0593 1.6368 0
M  V30 29 H 3.3302 -0.9992 0.2441 0
M  V30 30 H 1.7477 0.3524 -3.3634 0
M  V30 31 H 2.4543 -1.2968 -3.376 0
M  V30 32 H 1.2482 -1.7827 0.2642 0
M  V30 33 H 0.762 -2.1776 -2.0061 0
M  V30 34 H -0.1054 -0.9826 -3.0178 0
M  V30 35 H 0.169 0.731 -1.1683 0
M  V30 36 H 0.7 0.8874 1.6581 0
M  V30 37 H 1.3757 -0.6071 2.3744 0
M  V30 38 H -1.0876 -1.9564 -0.3788 0
M  V30 39 H -0.7067 -1.8285 1.9811 0
M  V30 40 H -1.0539 -0.3558 2.9145 0
M  V30 41 H -2.3866 0.2967 -1.9392 0
M  V30 42 H -2.3295 -1.4818 -2.2915 0
M  V30 43 H -1.0006 1.7798 0.2421 0
M  V30 44 H -2.7469 1.6095 0.1544 0
M  V30 45 H -4.1363 -1.8876 -0.8818 0
M  V30 46 H -4.3555 -0.1085 -0.8285 0
M  V30 47 H -2.7641 -2.8637 0.6951 0
M  V30 48 H -2.3505 3.0664 1.9601 0
M  V30 49 H -0.956 2.1365 2.5833 0
M  V30 50 H -2.6152 1.5198 2.8328 0
M  V30 51 H -5.727 0.8505 2.9354 0
M  V30 END ATOM
M  V30 BEGIN BOND
M  V30 1 2 1 2
M  V30 2 1 2 3
M  V30 3 1 2 4
M  V30 4 2 3 5
M  V30 5 1 4 6
M  V30 6 1 5 7
M  V30 7 1 5 8
M  V30 8 1 7 9
M  V30 9 1 8 10
M  V30 10 1 9 11
M  V30 11 1 9 12
M  V30 12 1 11 13
M  V30 13 1 12 14
M  V30 14 1 13 15
M  V30 15 1 13 16
M  V30 16 1 15 17
M  V30 17 1 15 18
M  V30 18 1 16 19
M  V30 19 1 17 20
M  V30 20 1 17 21
M  V30 21 1 18 22
M  V30 22 3 21 23
M  V30 23 1 6 7
M  V30 24 1 10 11
M  V30 25 1 14 15
M  V30 26 1 17 19
M  V30 27 1 3 24
M  V30 28 1 4 25
M  V30 29 1 4 26
M  V30 30 1 6 27
M  V30 31 1 6 28
M  V30 32 1 7 29
M  V30 33 1 8 30
M  V30 34 1 8 31
M  V30 35 1 9 32
M  V30 36 1 10 33
M  V30 37 1 10 34
M  V30 38 1 11 35
M  V30 39 1 12 36
M  V30 40 1 12 37
M  V30 41 1 13 38
M  V30 42 1 14 39
M  V30 43 1 14 40
M  V30 44 1 16 41
M  V30 45 1 16 42
M  V30 46 1 18 43
M  V30 47 1 18 44
M  V30 48 1 19 45
M  V30 49 1 19 46
M  V30 50 1 20 47
M  V30 51 1 22 48
M  V30 52 1 22 49
M  V30 53 1 22 50
M  V30 54 1 23 51
M  V30 END BOND
M  V30 BEGIN COLLECTION
M  V30 MDLV30/STEABS ATOMS=(6 7 9 11 13 15 17)
M  V30 END COLLECTION
M  V30 END CTAB
M  END
>  <Structure No>
4692

>  <LogS>
-5.2567

>  <MMFF94 Energy>
74.967

$$$$
Compound 4693
Actelion Java MolfileCreator 2.0

  0  0  0  0  0  0              0 V3000
M  V30 BEGIN CTAB
M  V30 COUNTS 20 21 0 0 0
M  V30 BEGIN ATOM
M  V30 1 O -3.2194 0.0803 1.6892 0
M  V30 2 C -3.1946 0.5196 0.5503 0
M  V30 3 C -2.5393 -0.2583 -0.5491 0
M  V30 4 C -1.0539 -0.3329 -0.3275 0
M  V30 5 C -0.2175 0.7147 -0.775 0
M  V30 6 C -0.4902 -1.4297 0.3746 0
M  V30 7 C 1.1471 0.6153 -0.52 0
M  V30 8 C 0.8952 -1.4905 0.6107 0
M  V30 9 O 2.1522 1.5005 -0.8592 0
M  V30 10 C 1.6804 -0.4415 0.1428 0
M  V30 11 C 3.3941 0.9654 -0.3804 0
M  V30 12 O 3.0473 -0.2741 0.2528 0
M  V30 13 H -3.6575 1.4772 0.3352 0
M  V30 14 H -2.7491 0.237 -1.5219 0
M  V30 15 H -2.9808 -1.2774 -0.5955 0
M  V30 16 H -0.6176 1.5733 -1.2993 0
M  V30 17 H -1.1236 -2.23 0.7369 0
M  V30 18 H 1.3362 -2.3232 1.1424 0
M  V30 19 H 3.8505 1.6581 0.3575 0
M  V30 20 H 4.0848 0.7815 -1.2299 0
M  V30 END ATOM
M  V30 BEGIN BOND
M  V30 1 2 1 2
M  V30 2 1 2 3
M  V30 3 1 3 4
M  V30 4 2 4 5
M  V30 5 1 4 6
M  V30 6 1 5 7
M  V30 7 2 6 8
M  V30 8 1 7 9
M  V30 9 2 7 10
M  V30 10 1 9 11
M  V30 11 1 10 12
M  V30 12 1 8 10
M  V30 13 1 11 12
M  V30 14 1 2 13
M  V30 15 1 3 14
M  V30 16 1 3 15
M  V30 17 1 5 16
M  V30 18 1 6 17
M  V30 19 1 8 18
M  V30 20 1 11 19
M  V30 21 1 11 20
M  V30 END BOND
M  V30 END CTAB
M  END
>  <Structure No>
4693

>  <LogS>
-1.96

>  <MMFF94 Energy>
31.839

$$$$
Compound 4694
Actelion Java MolfileCreator 2.0

  0  0  0  0  0  0              0 V3000
M  V30 BEGIN CTAB
M  V30 COUNTS 23 24 0 0 0
M  V30 BEGIN ATOM
M  V30 1 O -0.0814 -2.937 0.489 0
M  V30 2 C -0.283 -1.7177 0.2394 0
M  V30 3 C 0.8529 -0.7683 0.161 0
M  V30 4 C -1.684 -1.2487 -0.0342 0
M  V30 5 C 0.6094 0.5974 -0.1106 0
M  V30 6 C 2.1724 -1.2062 0.3732 0
M  V30 7 C -1.8452 0.2358 0.3331 0 CFG=1
M  V30 8 C 1.6899 1.4899 -0.1984 0
M  V30 9 C -0.7901 1.0927 -0.3901 0
M  V30 10 C 3.2359 -0.3032 0.3001 0
M  V30 11 C -3.233 0.7152 0.0083 0
M  V30 12 C 2.9955 1.0411 0.0126 0
M  V30 13 O -3.6552 0.6999 -1.1787 0
M  V30 14 O -4.0608 1.1796 1.0227 0 CHG=-1
M  V30 15 H -2.4008 -1.8564 0.5609 0
M  V30 16 H -1.9029 -1.4055 -1.1129 0
M  V30 17 H 2.3825 -2.2453 0.593 0
M  V30 18 H -1.6896 0.3438 1.4307 0
M  V30 19 H 1.5207 2.5341 -0.431 0
M  V30 20 H -0.8911 2.1482 -0.0525 0
M  V30 21 H -0.9595 1.0627 -1.4888 0
M  V30 22 H 4.2491 -0.6476 0.4628 0
M  V30 23 H 3.8226 1.7363 -0.0505 0
M  V30 END ATOM
M  V30 BEGIN BOND
M  V30 1 2 1 2
M  V30 2 1 2 3
M  V30 3 1 2 4
M  V30 4 2 3 5
M  V30 5 1 3 6
M  V30 6 1 4 7
M  V30 7 1 5 8
M  V30 8 1 5 9
M  V30 9 2 6 10
M  V30 10 1 7 11
M  V30 11 2 8 12
M  V30 12 2 11 13
M  V30 13 1 11 14
M  V30 14 1 7 9
M  V30 15 1 10 12
M  V30 16 1 4 15
M  V30 17 1 4 16
M  V30 18 1 6 17
M  V30 19 1 7 18
M  V30 20 1 8 19
M  V30 21 1 9 20
M  V30 22 1 9 21
M  V30 23 1 10 22
M  V30 24 1 12 23
M  V30 END BOND
M  V30 BEGIN COLLECTION
M  V30 MDLV30/STEABS ATOMS=(1 7)
M  V30 END COLLECTION
M  V30 END CTAB
M  END
>  <Structure No>
4694

>  <LogS>
-2.1031

>  <MMFF94 Energy>
24.587

$$$$
Compound 4695
Actelion Java MolfileCreator 2.0

  0  0  0  0  0  0              0 V3000
M  V30 BEGIN CTAB
M  V30 COUNTS 31 31 0 0 0
M  V30 BEGIN ATOM
M  V30 1 Cl -2.4854 3.4487 -1.9237 0
M  V30 2 C -2.0656 1.936 -1.1509 0
M  V30 3 N -0.8386 1.7751 -0.5969 0
M  V30 4 N -2.9677 0.9247 -1.1064 0
M  V30 5 C -0.5093 0.6012 0.0036 0
M  V30 6 C -2.6468 -0.2512 -0.5053 0
M  V30 7 N -1.416 -0.4088 0.0463 0
M  V30 8 N 0.7839 0.4204 0.5908 0
M  V30 9 N -3.5906 -1.3286 -0.455 0
M  V30 10 C 1.7914 1.4795 0.5687 0
M  V30 11 C -4.9401 -1.2279 -1.0074 0
M  V30 12 C 3.0484 1.0238 1.2384 0
M  V30 13 C -5.8337 -0.395 -0.0947 0
M  V30 14 O 3.2126 1.2325 2.4714 0
M  V30 15 O 4.0072 0.327 0.4982 0
M  V30 16 C 5.2145 -0.1608 1.0734 0
M  V30 17 C 6.0358 -0.8699 0.0088 0
M  V30 18 H 0.9984 -0.4979 1.0433 0
M  V30 19 H -3.2846 -2.2434 -0.0531 0
M  V30 20 H 1.3969 2.3794 1.0886 0
M  V30 21 H 2.0194 1.7525 -0.4838 0
M  V30 22 H -4.9046 -0.7797 -2.0237 0
M  V30 23 H -5.3756 -2.2464 -1.0979 0
M  V30 24 H -5.4548 0.6454 -0.0201 0
M  V30 25 H -5.8656 -0.8449 0.9202 0
M  V30 26 H -6.8644 -0.3679 -0.5068 0
M  V30 27 H 4.9786 -0.8754 1.8916 0
M  V30 28 H 5.8027 0.6869 1.4871 0
M  V30 29 H 6.9782 -1.2517 0.4547 0
M  V30 30 H 5.461 -1.7242 -0.4069 0
M  V30 31 H 6.2845 -0.1636 -0.8112 0
M  V30 END ATOM
M  V30 BEGIN BOND
M  V30 1 1 1 2
M  V30 2 2 2 3
M  V30 3 1 2 4
M  V30 4 1 3 5
M  V30 5 2 4 6
M  V30 6 2 5 7
M  V30 7 1 5 8
M  V30 8 1 6 9
M  V30 9 1 8 10
M  V30 10 1 9 11
M  V30 11 1 10 12
M  V30 12 1 11 13
M  V30 13 2 12 14
M  V30 14 1 12 15
M  V30 15 1 15 16
M  V30 16 1 16 17
M  V30 17 1 6 7
M  V30 18 1 8 18
M  V30 19 1 9 19
M  V30 20 1 10 20
M  V30 21 1 10 21
M  V30 22 1 11 22
M  V30 23 1 11 23
M  V30 24 1 13 24
M  V30 25 1 13 25
M  V30 26 1 13 26
M  V30 27 1 16 27
M  V30 28 1 16 28
M  V30 29 1 17 29
M  V30 30 1 17 30
M  V30 31 1 17 31
M  V30 END BOND
M  V30 END CTAB
M  END
>  <Structure No>
4695

>  <LogS>
-2.9374

>  <MMFF94 Energy>
-212.44

$$$$
Compound 4696
Actelion Java MolfileCreator 2.0

  0  0  0  0  0  0              0 V3000
M  V30 BEGIN CTAB
M  V30 COUNTS 25 24 0 0 0
M  V30 BEGIN ATOM
M  V30 1 O 2.4259 -2.5042 -0.5473 0
M  V30 2 C 2.0809 -1.4855 0.1073 0
M  V30 3 O 1.8769 -1.5872 1.4784 0 CHG=-1
M  V30 4 C 1.9234 -0.161 -0.5844 0 CFG=1
M  V30 5 N 0.6639 0.4654 -0.1724 0
M  V30 6 C 3.1111 0.7571 -0.2538 0
M  V30 7 C -0.6107 -0.0177 -0.622 0
M  V30 8 O 4.3155 0.1964 -0.7039 0
M  V30 9 O -0.6721 -1.0065 -1.4034 0
M  V30 10 C -1.8809 0.6162 -0.1063 0 CFG=1
M  V30 11 N -2.9371 0.6023 -1.1275 0 CHG=1
M  V30 12 C -2.3447 -0.0812 1.1824 0
M  V30 13 O -2.6318 -1.4315 0.9388 0
M  V30 14 H 1.9038 -0.3135 -1.6869 0
M  V30 15 H 0.6842 1.2737 0.4908 0
M  V30 16 H 2.9581 1.7563 -0.7226 0
M  V30 17 H 3.1779 0.91 0.845 0
M  V30 18 H 4.3338 0.3156 -1.6894 0
M  V30 19 H -1.6609 1.678 0.1466 0
M  V30 20 H -3.7807 1.1063 -0.7688 0
M  V30 21 H -3.2072 -0.377 -1.377 0
M  V30 22 H -2.6029 1.0957 -1.9873 0
M  V30 23 H -3.2531 0.4308 1.5716 0
M  V30 24 H -1.545 -6.0E-4 1.9532 0
M  V30 25 H -2.9175 -1.8134 1.809 0
M  V30 END ATOM
M  V30 BEGIN BOND
M  V30 1 2 1 2
M  V30 2 1 2 3
M  V30 3 1 2 4
M  V30 4 1 4 5
M  V30 5 1 4 6
M  V30 6 1 5 7
M  V30 7 1 6 8
M  V30 8 2 7 9
M  V30 9 1 7 10
M  V30 10 1 10 11
M  V30 11 1 10 12
M  V30 12 1 12 13
M  V30 13 1 4 14
M  V30 14 1 5 15
M  V30 15 1 6 16
M  V30 16 1 6 17
M  V30 17 1 8 18
M  V30 18 1 10 19
M  V30 19 1 11 20
M  V30 20 1 11 21
M  V30 21 1 11 22
M  V30 22 1 12 23
M  V30 23 1 12 24
M  V30 24 1 13 25
M  V30 END BOND
M  V30 BEGIN COLLECTION
M  V30 MDLV30/STEABS ATOMS=(2 4 10)
M  V30 END COLLECTION
M  V30 END CTAB
M  END
>  <Structure No>
4696

>  <LogS>
-0.5847

>  <MMFF94 Energy>
28.399

$$$$
Compound 4697
Actelion Java MolfileCreator 2.0

  0  0  0  0  0  0              0 V3000
M  V30 BEGIN CTAB
M  V30 COUNTS 17 17 0 0 0
M  V30 BEGIN ATOM
M  V30 1 O 2.696 1.1094 -0.9508 0
M  V30 2 N 2.2671 -0.1005 -0.4555 0
M  V30 3 C 1.0345 -0.3111 -0.1067 0
M  V30 4 C -0.0523 0.6449 -0.1864 0
M  V30 5 C 0.557 -1.6098 0.4194 0
M  V30 6 N 0.0724 1.8579 -0.6366 0
M  V30 7 C -1.3195 0.0344 0.2927 0
M  V30 8 C -0.9266 -1.379 0.7626 0
M  V30 9 O -0.9768 2.7508 -0.7199 0
M  V30 10 H 3.6656 1.2345 -1.2118 0
M  V30 11 H 1.1344 -1.8956 1.3251 0
M  V30 12 H 0.6617 -2.3936 -0.3612 0
M  V30 13 H -2.052 -0.0219 -0.5412 0
M  V30 14 H -1.7409 0.6238 1.1355 0
M  V30 15 H -1.5621 -2.1431 0.2641 0
M  V30 16 H -1.0749 -1.464 1.8616 0
M  V30 17 H -1.9183 2.5074 -0.4364 0
M  V30 END ATOM
M  V30 BEGIN BOND
M  V30 1 1 1 2
M  V30 2 2 2 3
M  V30 3 1 3 4
M  V30 4 1 3 5
M  V30 5 2 4 6
M  V30 6 1 4 7
M  V30 7 1 5 8
M  V30 8 1 6 9
M  V30 9 1 7 8
M  V30 10 1 1 10
M  V30 11 1 5 11
M  V30 12 1 5 12
M  V30 13 1 7 13
M  V30 14 1 7 14
M  V30 15 1 8 15
M  V30 16 1 8 16
M  V30 17 1 9 17
M  V30 END BOND
M  V30 END CTAB
M  END
>  <Structure No>
4697

>  <LogS>
-1.9937

>  <MMFF94 Energy>
70.804

$$$$
Compound 4698
Actelion Java MolfileCreator 2.0

  0  0  0  0  0  0              0 V3000
M  V30 BEGIN CTAB
M  V30 COUNTS 26 27 0 0 0
M  V30 BEGIN ATOM
M  V30 1 O -0.3979 -2.1501 -1.7517 0
M  V30 2 C -1.0491 -1.3434 -1.0359 0
M  V30 3 N -0.4573 -0.2457 -0.3606 0
M  V30 4 C -2.5106 -1.4207 -0.8522 0
M  V30 5 C 0.9537 0.0479 -0.3159 0
M  V30 6 C -1.4986 0.5279 0.309 0 CFG=1
M  V30 7 C -2.843 -0.1243 -0.1016 0
M  V30 8 C 1.8964 -0.9891 -0.1943 0
M  V30 9 C 1.4069 1.3787 -0.3613 0
M  V30 10 C -1.2968 0.4917 1.8275 0
M  V30 11 C 3.263 -0.6999 -0.1353 0
M  V30 12 C 2.7747 1.6629 -0.303 0
M  V30 13 C 3.7021 0.6246 -0.1918 0
M  V30 14 H -3.0293 -1.4634 -1.834 0
M  V30 15 H -2.765 -2.3105 -0.2376 0
M  V30 16 H -1.4798 1.5824 -0.0411 0
M  V30 17 H -3.3931 0.5627 -0.7816 0
M  V30 18 H -3.499 -0.3385 0.7709 0
M  V30 19 H 1.5758 -2.0196 -0.1199 0
M  V30 20 H 0.7075 2.1978 -0.4561 0
M  V30 21 H -0.3307 0.9686 2.0959 0
M  V30 22 H -2.1124 1.051 2.3331 0
M  V30 23 H -1.2935 -0.5573 2.1935 0
M  V30 24 H 3.9818 -1.5033 -0.0391 0
M  V30 25 H 3.1156 2.6893 -0.3448 0
M  V30 26 H 4.7603 0.8467 -0.1453 0
M  V30 END ATOM
M  V30 BEGIN BOND
M  V30 1 2 1 2
M  V30 2 1 2 3
M  V30 3 1 2 4
M  V30 4 1 3 5
M  V30 5 1 3 6
M  V30 6 1 4 7
M  V30 7 2 5 8
M  V30 8 1 5 9
M  V30 9 1 6 10
M  V30 10 1 8 11
M  V30 11 2 9 12
M  V30 12 2 11 13
M  V30 13 1 6 7
M  V30 14 1 12 13
M  V30 15 1 4 14
M  V30 16 1 4 15
M  V30 17 1 6 16
M  V30 18 1 7 17
M  V30 19 1 7 18
M  V30 20 1 8 19
M  V30 21 1 9 20
M  V30 22 1 10 21
M  V30 23 1 10 22
M  V30 24 1 10 23
M  V30 25 1 11 24
M  V30 26 1 12 25
M  V30 27 1 13 26
M  V30 END BOND
M  V30 BEGIN COLLECTION
M  V30 MDLV30/STEABS ATOMS=(1 6)
M  V30 END COLLECTION
M  V30 END CTAB
M  END
>  <Structure No>
4698

>  <LogS>
-0.8457

>  <MMFF94 Energy>
14.492

$$$$
Compound 4699
Actelion Java MolfileCreator 2.0

  0  0  0  0  0  0              0 V3000
M  V30 BEGIN CTAB
M  V30 COUNTS 22 22 0 0 0
M  V30 BEGIN ATOM
M  V30 1 O 1.063 -2.782 -0.1634 0
M  V30 2 N -0.093 -2.6211 -0.6064 0 CHG=1
M  V30 3 O -0.707 -3.6706 -1.2503 0 CHG=-1
M  V30 4 C -0.8527 -1.4493 -0.2581 0
M  V30 5 C -0.2582 -0.1587 -0.1968 0
M  V30 6 C -2.2084 -1.6011 0.0672 0
M  V30 7 C -1.0458 0.9549 0.2127 0
M  V30 8 C 1.1663 0.015 -0.5517 0
M  V30 9 C -2.965 -0.5124 0.4881 0
M  V30 10 C -0.5307 2.3473 0.2307 0
M  V30 11 C -2.3887 0.7514 0.57 0
M  V30 12 O 1.5983 -0.4289 -1.6508 0
M  V30 13 O 2.0274 0.6629 0.3394 0
M  V30 14 O 0.3688 2.7172 -0.5688 0
M  V30 15 O -1.0798 3.2814 1.1018 0 CHG=-1
M  V30 16 C 3.4071 0.8654 0.0606 0
M  V30 17 H -2.675 -2.5773 0.0279 0
M  V30 18 H -4.006 -0.6487 0.7518 0
M  V30 19 H -3.0092 1.5825 0.8827 0
M  V30 20 H 3.5228 1.4805 -0.8566 0
M  V30 21 H 3.9147 -0.1127 -0.0759 0
M  V30 22 H 3.8764 1.3986 0.9125 0
M  V30 END ATOM
M  V30 BEGIN BOND
M  V30 1 2 1 2
M  V30 2 1 2 3
M  V30 3 1 2 4
M  V30 4 2 4 5
M  V30 5 1 4 6
M  V30 6 1 5 7
M  V30 7 1 5 8
M  V30 8 2 6 9
M  V30 9 1 7 10
M  V30 10 2 7 11
M  V30 11 2 8 12
M  V30 12 1 8 13
M  V30 13 2 10 14
M  V30 14 1 10 15
M  V30 15 1 13 16
M  V30 16 1 9 11
M  V30 17 1 6 17
M  V30 18 1 9 18
M  V30 19 1 11 19
M  V30 20 1 16 20
M  V30 21 1 16 21
M  V30 22 1 16 22
M  V30 END BOND
M  V30 END CTAB
M  END
>  <Structure No>
4699

>  <LogS>
-2.0853

>  <MMFF94 Energy>
20.59

$$$$
Compound 4700
Actelion Java MolfileCreator 2.0

  0  0  0  0  0  0              0 V3000
M  V30 BEGIN CTAB
M  V30 COUNTS 28 28 0 0 0
M  V30 BEGIN ATOM
M  V30 1 O -4.8686 -0.8102 0.9723 0
M  V30 2 N -4.5529 -0.5279 -0.202 0 CHG=1
M  V30 3 O -5.5375 -0.4958 -1.1627 0 CHG=-1
M  V30 4 C -3.2392 -0.024 -0.5038 0
M  V30 5 C -2.0714 -0.5572 0.1072 0
M  V30 6 C -3.1227 1.052 -1.396 0
M  V30 7 C -0.8036 0.0223 -0.1861 0
M  V30 8 C -2.186 -1.7037 1.0354 0
M  V30 9 C -1.8838 1.628 -1.6576 0
M  V30 10 C 0.4744 -0.518 0.3378 0
M  V30 11 C -0.7361 1.1258 -1.0522 0
M  V30 12 O -1.6494 -1.6571 2.1741 0
M  V30 13 O -2.9004 -2.836 0.6628 0 CHG=-1
M  V30 14 O 0.6051 -1.7532 0.5586 0
M  V30 15 O 1.5533 0.3511 0.5454 0
M  V30 16 C 2.847 -0.0804 0.9678 0
M  V30 17 C 3.5951 -0.7283 -0.2004 0
M  V30 18 C 3.6218 1.1252 1.4955 0
M  V30 19 H -4.0032 1.4709 -1.8665 0
M  V30 20 H -1.8123 2.4687 -2.3357 0
M  V30 21 H 0.2167 1.5822 -1.2916 0
M  V30 22 H 2.747 -0.8168 1.7963 0
M  V30 23 H 4.6112 -1.0426 0.1202 0
M  V30 24 H 3.0499 -1.628 -0.5537 0
M  V30 25 H 3.6856 -0.013 -1.0457 0
M  V30 26 H 3.741 1.8899 0.6982 0
M  V30 27 H 3.0715 1.5808 2.3459 0
M  V30 28 H 4.6258 0.8124 1.8539 0
M  V30 END ATOM
M  V30 BEGIN BOND
M  V30 1 2 1 2
M  V30 2 1 2 3
M  V30 3 1 2 4
M  V30 4 2 4 5
M  V30 5 1 4 6
M  V30 6 1 5 7
M  V30 7 1 5 8
M  V30 8 2 6 9
M  V30 9 1 7 10
M  V30 10 2 7 11
M  V30 11 2 8 12
M  V30 12 1 8 13
M  V30 13 2 10 14
M  V30 14 1 10 15
M  V30 15 1 15 16
M  V30 16 1 16 17
M  V30 17 1 16 18
M  V30 18 1 9 11
M  V30 19 1 6 19
M  V30 20 1 9 20
M  V30 21 1 11 21
M  V30 22 1 16 22
M  V30 23 1 17 23
M  V30 24 1 17 24
M  V30 25 1 17 25
M  V30 26 1 18 26
M  V30 27 1 18 27
M  V30 28 1 18 28
M  V30 END BOND
M  V30 END CTAB
M  END
>  <Structure No>
4700

>  <LogS>
-2.3466

>  <MMFF94 Energy>
27.381

$$$$
Compound 4701
Actelion Java MolfileCreator 2.0

  0  0  0  0  0  0              0 V3000
M  V30 BEGIN CTAB
M  V30 COUNTS 28 28 0 0 0
M  V30 BEGIN ATOM
M  V30 1 O 1.1344 0.0809 -3.4061 0
M  V30 2 N 1.0041 0.5877 -2.2724 0 CHG=1
M  V30 3 O 0.2832 1.7532 -2.1473 0 CHG=-1
M  V30 4 C 1.772 0.0842 -1.1637 0
M  V30 5 C 1.2665 0.1065 0.1637 0
M  V30 6 C 3.0696 -0.395 -1.401 0
M  V30 7 C 2.0884 -0.347 1.2336 0
M  V30 8 C -0.1048 0.596 0.4153 0
M  V30 9 C 3.8769 -0.8123 -0.3475 0
M  V30 10 C 1.6029 -0.4419 2.6334 0
M  V30 11 C 3.3965 -0.7804 0.958 0
M  V30 12 O -0.3058 1.4819 1.2911 0
M  V30 13 O -1.1673 0.0868 -0.3409 0
M  V30 14 O 2.4113 -0.3253 3.5929 0
M  V30 15 O 0.2686 -0.7163 2.9099 0 CHG=-1
M  V30 16 C -2.5282 0.4727 -0.1503 0
M  V30 17 C -3.3325 0.0674 -1.3834 0
M  V30 18 C -3.0963 -0.196 1.1044 0
M  V30 19 H 3.471 -0.4138 -2.4063 0
M  V30 20 H 4.8815 -1.1639 -0.5446 0
M  V30 21 H 4.0408 -1.132 1.7549 0
M  V30 22 H -2.5948 1.5785 -0.042 0
M  V30 23 H -4.393 0.3799 -1.2728 0
M  V30 24 H -2.9119 0.5635 -2.2837 0
M  V30 25 H -3.29 -1.033 -1.5311 0
M  V30 26 H -2.5358 0.1352 2.0032 0
M  V30 27 H -3.0157 -1.301 1.0236 0
M  V30 28 H -4.1634 0.0819 1.2394 0
M  V30 END ATOM
M  V30 BEGIN BOND
M  V30 1 2 1 2
M  V30 2 1 2 3
M  V30 3 1 2 4
M  V30 4 2 4 5
M  V30 5 1 4 6
M  V30 6 1 5 7
M  V30 7 1 5 8
M  V30 8 2 6 9
M  V30 9 1 7 10
M  V30 10 2 7 11
M  V30 11 2 8 12
M  V30 12 1 8 13
M  V30 13 2 10 14
M  V30 14 1 10 15
M  V30 15 1 13 16
M  V30 16 1 16 17
M  V30 17 1 16 18
M  V30 18 1 9 11
M  V30 19 1 6 19
M  V30 20 1 9 20
M  V30 21 1 11 21
M  V30 22 1 16 22
M  V30 23 1 17 23
M  V30 24 1 17 24
M  V30 25 1 17 25
M  V30 26 1 18 26
M  V30 27 1 18 27
M  V30 28 1 18 28
M  V30 END BOND
M  V30 END CTAB
M  END
>  <Structure No>
4701

>  <LogS>
-2.4897

>  <MMFF94 Energy>
23.511

$$$$
Compound 4702
Actelion Java MolfileCreator 2.0

  0  0  0  0  0  0              0 V3000
M  V30 BEGIN CTAB
M  V30 COUNTS 31 31 0 0 0
M  V30 BEGIN ATOM
M  V30 1 O 3.4789 2.5071 1.2934 0
M  V30 2 N 4.0024 1.5653 0.6642 0 CHG=1
M  V30 3 O 5.3451 1.6365 0.3708 0 CHG=-1
M  V30 4 C 3.266 0.3576 0.3835 0
M  V30 5 C 1.8655 0.3649 0.1353 0
M  V30 6 C 3.9663 -0.8572 0.3216 0
M  V30 7 C 1.194 -0.8554 -0.1553 0
M  V30 8 C 1.1367 1.6441 0.0727 0
M  V30 9 C 3.3066 -2.0469 0.0307 0
M  V30 10 C -0.27 -0.9225 -0.4089 0
M  V30 11 C 1.9355 -2.0486 -0.2057 0
M  V30 12 O 0.9098 2.1859 -1.0406 0
M  V30 13 O 0.67 2.2389 1.2384 0 CHG=-1
M  V30 14 O -0.7418 -1.8859 -1.0721 0
M  V30 15 O -1.1206 0.0656 0.1116 0
M  V30 16 C -2.5395 0.16 -0.0802 0
M  V30 17 C -2.8753 0.3043 -1.5768 0
M  V30 18 C -3.0117 1.4219 0.6578 0
M  V30 19 C -3.2521 -1.0656 0.5224 0
M  V30 20 H 5.0325 -0.8863 0.5071 0
M  V30 21 H 3.8617 -2.9754 -0.0087 0
M  V30 22 H 1.4503 -2.993 -0.4199 0
M  V30 23 H -2.6304 -0.6205 -2.1375 0
M  V30 24 H -3.9595 0.5064 -1.7162 0
M  V30 25 H -2.2979 1.1443 -2.0193 0
M  V30 26 H -2.7686 1.3489 1.7399 0
M  V30 27 H -2.4993 2.3204 0.2506 0
M  V30 28 H -4.1095 1.5608 0.5499 0
M  V30 29 H -3.013 -1.9909 -0.0397 0
M  V30 30 H -4.355 -0.9296 0.4929 0
M  V30 31 H -2.9407 -1.2081 1.5794 0
M  V30 END ATOM
M  V30 BEGIN BOND
M  V30 1 2 1 2
M  V30 2 1 2 3
M  V30 3 1 2 4
M  V30 4 2 4 5
M  V30 5 1 4 6
M  V30 6 1 5 7
M  V30 7 1 5 8
M  V30 8 2 6 9
M  V30 9 1 7 10
M  V30 10 2 7 11
M  V30 11 2 8 12
M  V30 12 1 8 13
M  V30 13 2 10 14
M  V30 14 1 10 15
M  V30 15 1 15 16
M  V30 16 1 16 17
M  V30 17 1 16 18
M  V30 18 1 16 19
M  V30 19 1 9 11
M  V30 20 1 6 20
M  V30 21 1 9 21
M  V30 22 1 11 22
M  V30 23 1 17 23
M  V30 24 1 17 24
M  V30 25 1 17 25
M  V30 26 1 18 26
M  V30 27 1 18 27
M  V30 28 1 18 28
M  V30 29 1 19 29
M  V30 30 1 19 30
M  V30 31 1 19 31
M  V30 END BOND
M  V30 END CTAB
M  END
>  <Structure No>
4702

>  <LogS>
-3.0467

>  <MMFF94 Energy>
37.154

$$$$
Compound 4703
Actelion Java MolfileCreator 2.0

  0  0  0  0  0  0              0 V3000
M  V30 BEGIN CTAB
M  V30 COUNTS 34 34 0 0 0
M  V30 BEGIN ATOM
M  V30 1 O -5.8121 0.2416 1.6925 0
M  V30 2 N -5.7581 -0.0939 0.4913 0 CHG=1
M  V30 3 O -6.9317 -0.3677 -0.1728 0 CHG=-1
M  V30 4 C -4.5275 0.0245 -0.2451 0
M  V30 5 C -3.2736 -0.3276 0.3253 0
M  V30 6 C -4.5732 0.5428 -1.5477 0
M  V30 7 C -2.0828 -0.1326 -0.432 0
M  V30 8 C -3.2207 -0.8909 1.6926 0
M  V30 9 C -3.4036 0.7537 -2.2707 0
M  V30 10 C -0.7413 -0.5463 0.048 0
M  V30 11 C -2.1695 0.4289 -1.7162 0
M  V30 12 O -2.4414 -0.4022 2.553 0
M  V30 13 O -4.0433 -1.9552 2.0422 0 CHG=-1
M  V30 14 O -0.6116 -1.5453 0.8079 0
M  V30 15 O 0.3902 0.1504 -0.3895 0
M  V30 16 C 1.7118 -0.1991 0.0083 0
M  V30 17 C 2.7064 0.7646 -0.6485 0
M  V30 18 C 4.1899 0.4981 -0.301 0
M  V30 19 C 4.4831 0.6753 1.195 0
M  V30 20 C 4.6708 -0.8732 -0.7943 0
M  V30 21 H -5.5203 0.8187 -1.9942 0
M  V30 22 H -3.4542 1.1703 -3.2685 0
M  V30 23 H -1.2781 0.5858 -2.3116 0
M  V30 24 H 1.7851 -0.1306 1.1143 0
M  V30 25 H 1.9204 -1.2417 -0.3115 0
M  V30 26 H 2.5798 0.7084 -1.7521 0
M  V30 27 H 2.4474 1.8033 -0.3463 0
M  V30 28 H 4.786 1.266 -0.8425 0
M  V30 29 H 5.58 0.6518 1.3695 0
M  V30 30 H 4.0195 -0.1365 1.794 0
M  V30 31 H 4.0977 1.6547 1.5505 0
M  V30 32 H 4.2087 -1.6954 -0.2086 0
M  V30 33 H 4.4201 -1.0066 -1.8682 0
M  V30 34 H 5.7739 -0.9473 -0.6853 0
M  V30 END ATOM
M  V30 BEGIN BOND
M  V30 1 2 1 2
M  V30 2 1 2 3
M  V30 3 1 2 4
M  V30 4 2 4 5
M  V30 5 1 4 6
M  V30 6 1 5 7
M  V30 7 1 5 8
M  V30 8 2 6 9
M  V30 9 1 7 10
M  V30 10 2 7 11
M  V30 11 2 8 12
M  V30 12 1 8 13
M  V30 13 2 10 14
M  V30 14 1 10 15
M  V30 15 1 15 16
M  V30 16 1 16 17
M  V30 17 1 17 18
M  V30 18 1 18 19
M  V30 19 1 18 20
M  V30 20 1 9 11
M  V30 21 1 6 21
M  V30 22 1 9 22
M  V30 23 1 11 23
M  V30 24 1 16 24
M  V30 25 1 16 25
M  V30 26 1 17 26
M  V30 27 1 17 27
M  V30 28 1 18 28
M  V30 29 1 19 29
M  V30 30 1 19 30
M  V30 31 1 19 31
M  V30 32 1 20 32
M  V30 33 1 20 33
M  V30 34 1 20 34
M  V30 END BOND
M  V30 END CTAB
M  END
>  <Structure No>
4703

>  <LogS>
-3.0689

>  <MMFF94 Energy>
26.645

$$$$
Compound 4704
Actelion Java MolfileCreator 2.0

  0  0  0  0  0  0              0 V3000
M  V30 BEGIN CTAB
M  V30 COUNTS 18 17 0 0 0
M  V30 BEGIN ATOM
M  V30 1 O 1.2988 -0.8402 0.5346 0
M  V30 2 C 0.3669 0.1588 0.1532 0 CFG=1
M  V30 3 C 1.9546 -1.3719 -0.5958 0
M  V30 4 C -1.0476 -0.4572 0.1294 0
M  V30 5 C 0.4607 1.3018 1.1681 0
M  V30 6 C -2.0975 0.4809 -0.467 0
M  V30 7 H 0.5902 0.6006 -0.8496 0
M  V30 8 H 2.6027 -2.2101 -0.268 0
M  V30 9 H 2.6062 -0.6045 -1.0686 0
M  V30 10 H 1.229 -1.7745 -1.3367 0
M  V30 11 H -1.3552 -0.7506 1.1568 0
M  V30 12 H -1.0283 -1.3813 -0.4871 0
M  V30 13 H 1.5098 1.6617 1.2268 0
M  V30 14 H 0.1494 0.9567 2.1774 0
M  V30 15 H -0.1741 2.1584 0.8607 0
M  V30 16 H -1.7831 0.8266 -1.4745 0
M  V30 17 H -2.2625 1.3582 0.1917 0
M  V30 18 H -3.0618 -0.0607 -0.5658 0
M  V30 END ATOM
M  V30 BEGIN BOND
M  V30 1 1 1 2
M  V30 2 1 1 3
M  V30 3 1 2 4
M  V30 4 1 2 5
M  V30 5 1 4 6
M  V30 6 1 2 7
M  V30 7 1 3 8
M  V30 8 1 3 9
M  V30 9 1 3 10
M  V30 10 1 4 11
M  V30 11 1 4 12
M  V30 12 1 5 13
M  V30 13 1 5 14
M  V30 14 1 5 15
M  V30 15 1 6 16
M  V30 16 1 6 17
M  V30 17 1 6 18
M  V30 END BOND
M  V30 BEGIN COLLECTION
M  V30 MDLV30/STEABS ATOMS=(1 2)
M  V30 END COLLECTION
M  V30 END CTAB
M  END
>  <Structure No>
4704

>  <LogS>
-0.7306

>  <MMFF94 Energy>
8.5939

$$$$
Compound 4705
Actelion Java MolfileCreator 2.0

  0  0  0  0  0  0              0 V3000
M  V30 BEGIN CTAB
M  V30 COUNTS 21 20 0 0 0
M  V30 BEGIN ATOM
M  V30 1 O 0.3841 -0.3073 0.0768 0
M  V30 2 C -0.9659 0.0951 -0.0888 0
M  V30 3 C 1.2586 0.793 -0.0634 0
M  V30 4 C -1.4287 -0.2785 -1.5074 0
M  V30 5 C -1.8212 -0.6212 0.9666 0
M  V30 6 C 2.6757 0.3136 0.0277 0
M  V30 7 O -2.7444 0.15 -1.7372 0
M  V30 8 O -1.4397 -0.2219 2.2558 0
M  V30 9 C 3.1503 -0.2458 1.1439 0
M  V30 10 H -1.1208 1.1931 0.0562 0
M  V30 11 H 1.1188 1.2845 -1.0526 0
M  V30 12 H 1.0835 1.5391 0.745 0
M  V30 13 H -0.7463 0.1742 -2.2618 0
M  V30 14 H -1.3825 -1.3807 -1.6397 0
M  V30 15 H -1.7296 -1.7268 0.8586 0
M  V30 16 H -2.8908 -0.3556 0.8266 0
M  V30 17 H 3.3336 0.4344 -0.8278 0
M  V30 18 H -2.7035 1.1327 -1.8727 0
M  V30 19 H -0.6295 -0.7455 2.4903 0
M  V30 20 H 4.1816 -0.5801 1.1879 0
M  V30 21 H 2.5169 -0.3734 2.0169 0
M  V30 END ATOM
M  V30 BEGIN BOND
M  V30 1 1 1 2
M  V30 2 1 1 3
M  V30 3 1 2 4
M  V30 4 1 2 5
M  V30 5 1 3 6
M  V30 6 1 4 7
M  V30 7 1 5 8
M  V30 8 2 6 9
M  V30 9 1 2 10
M  V30 10 1 3 11
M  V30 11 1 3 12
M  V30 12 1 4 13
M  V30 13 1 4 14
M  V30 14 1 5 15
M  V30 15 1 5 16
M  V30 16 1 6 17
M  V30 17 1 7 18
M  V30 18 1 8 19
M  V30 19 1 9 20
M  V30 20 1 9 21
M  V30 END BOND
M  V30 END CTAB
M  END
>  <Structure No>
4705

>  <LogS>
0.481

>  <MMFF94 Energy>
43.056

$$$$
Compound 4706
Actelion Java MolfileCreator 2.0

  0  0  0  0  0  0              0 V3000
M  V30 BEGIN CTAB
M  V30 COUNTS 16 15 0 0 0
M  V30 BEGIN ATOM
M  V30 1 O 3.1919 0.558 0.3188 0
M  V30 2 N 2.4334 0.1956 1.2421 0 CHG=1
M  V30 3 O 2.9265 0.1563 2.5242 0 CHG=-1
M  V30 4 N 1.0404 0.158 1.0532 0
M  V30 5 C 0.4404 -0.183 -0.0534 0
M  V30 6 N -0.9939 -0.0737 -0.1388 0
M  V30 7 N 1.1771 -0.6986 -1.1706 0
M  V30 8 N -1.727 -0.9734 -0.9409 0 CHG=1
M  V30 9 C -1.6783 1.0648 0.4825 0
M  V30 10 O -2.8764 -0.6813 -1.3319 0
M  V30 11 O -1.2336 -2.2302 -1.2065 0 CHG=-1
M  V30 12 H 0.7342 -0.7454 -2.1146 0
M  V30 13 H 2.1224 -1.1252 -1.0584 0
M  V30 14 H -2.697 0.7674 0.8091 0
M  V30 15 H -1.758 1.8939 -0.2512 0
M  V30 16 H -1.1326 1.4261 1.3791 0
M  V30 END ATOM
M  V30 BEGIN BOND
M  V30 1 2 1 2
M  V30 2 1 2 3
M  V30 3 1 2 4
M  V30 4 2 4 5
M  V30 5 1 5 6
M  V30 6 1 5 7
M  V30 7 1 6 8
M  V30 8 1 6 9
M  V30 9 2 8 10
M  V30 10 1 8 11
M  V30 11 1 7 12
M  V30 12 1 7 13
M  V30 13 1 9 14
M  V30 14 1 9 15
M  V30 15 1 9 16
M  V30 END BOND
M  V30 END CTAB
M  END
>  <Structure No>
4706

>  <LogS>
-0.6104

>  <MMFF94 Energy>
-98.942

$$$$
Compound 4707
Actelion Java MolfileCreator 2.0

  0  0  0  0  0  0              0 V3000
M  V30 BEGIN CTAB
M  V30 COUNTS 31 31 0 0 0
M  V30 BEGIN ATOM
M  V30 1 O 5.2593 -1.4543 0.7269 0
M  V30 2 N 5.0258 -0.6612 -0.2084 0 CHG=1
M  V30 3 O 6.0592 -0.2966 -1.0407 0 CHG=-1
M  V30 4 C 3.7679 0.0343 -0.2793 0
M  V30 5 C 2.5352 -0.6104 0.0154 0
M  V30 6 C 3.7733 1.3977 -0.6089 0
M  V30 7 C 1.3279 0.1453 -0.0138 0
M  V30 8 C 2.5208 -2.0524 0.3463 0
M  V30 9 C 2.5928 2.1339 -0.6107 0
M  V30 10 C -0.0104 -0.4582 0.1977 0
M  V30 11 C 1.3827 1.5176 -0.3069 0
M  V30 12 O 1.9295 -2.4627 1.3801 0
M  V30 13 O 3.1735 -2.9645 -0.4743 0 CHG=-1
M  V30 14 O -0.2384 -1.6493 -0.1504 0
M  V30 15 O -1.0358 0.3214 0.7489 0
M  V30 16 C -2.3773 -0.1383 0.9183 0 CFG=2
M  V30 17 C -3.1112 -0.1096 -0.4384 0
M  V30 18 C -3.0638 0.7569 1.9525 0
M  V30 19 C -4.4747 -0.7994 -0.3893 0
M  V30 20 H 4.7043 1.9032 -0.8324 0
M  V30 21 H 2.6156 3.1892 -0.851 0
M  V30 22 H 0.4775 2.1125 -0.3369 0
M  V30 23 H -2.3609 -1.177 1.319 0
M  V30 24 H -2.4934 -0.6335 -1.1986 0
M  V30 25 H -3.2391 0.9403 -0.7814 0
M  V30 26 H -4.0671 0.3614 2.2138 0
M  V30 27 H -2.4568 0.7845 2.8824 0
M  V30 28 H -3.1649 1.7938 1.5663 0
M  V30 29 H -5.1831 -0.2275 0.2448 0
M  V30 30 H -4.8976 -0.8533 -1.4146 0
M  V30 31 H -4.3735 -1.8327 0.0053 0
M  V30 END ATOM
M  V30 BEGIN BOND
M  V30 1 2 1 2
M  V30 2 1 2 3
M  V30 3 1 2 4
M  V30 4 2 4 5
M  V30 5 1 4 6
M  V30 6 1 5 7
M  V30 7 1 5 8
M  V30 8 2 6 9
M  V30 9 1 7 10
M  V30 10 2 7 11
M  V30 11 2 8 12
M  V30 12 1 8 13
M  V30 13 2 10 14
M  V30 14 1 10 15
M  V30 15 1 15 16
M  V30 16 1 16 17
M  V30 17 1 16 18
M  V30 18 1 17 19
M  V30 19 1 9 11
M  V30 20 1 6 20
M  V30 21 1 9 21
M  V30 22 1 11 22
M  V30 23 1 16 23
M  V30 24 1 17 24
M  V30 25 1 17 25
M  V30 26 1 18 26
M  V30 27 1 18 27
M  V30 28 1 18 28
M  V30 29 1 19 29
M  V30 30 1 19 30
M  V30 31 1 19 31
M  V30 END BOND
M  V30 BEGIN COLLECTION
M  V30 MDLV30/STEABS ATOMS=(1 16)
M  V30 END COLLECTION
M  V30 END CTAB
M  END
>  <Structure No>
4707

>  <LogS>
-2.7193

>  <MMFF94 Energy>
27.247

$$$$
Compound 4708
Actelion Java MolfileCreator 2.0

  0  0  0  0  0  0              0 V3000
M  V30 BEGIN CTAB
M  V30 COUNTS 24 24 0 0 0
M  V30 BEGIN ATOM
M  V30 1 C 0.3135 0.8625 -0.3135 0 CFG=1
M  V30 2 C 0.767 -0.4696 0.353 0 CFG=1
M  V30 3 C -1.1901 1.1062 -0.0638 0
M  V30 4 C 1.1154 2.0696 0.2003 0
M  V30 5 C -0.1111 -1.6424 -0.1328 0
M  V30 6 C 2.2436 -0.7877 0.0654 0
M  V30 7 C -2.0375 -0.0727 -0.5513 0
M  V30 8 C -1.5971 -1.3735 0.1231 0
M  V30 9 H 0.4745 0.7904 -1.4131 0
M  V30 10 H 0.6469 -0.3814 1.4568 0
M  V30 11 H -1.5167 2.0219 -0.6037 0
M  V30 12 H -1.3745 1.2661 1.0222 0
M  V30 13 H 1.0862 2.117 1.3101 0
M  V30 14 H 0.6955 3.014 -0.2075 0
M  V30 15 H 2.1711 2.0115 -0.1358 0
M  V30 16 H 0.176 -2.5735 0.4031 0
M  V30 17 H 0.0487 -1.8117 -1.2212 0
M  V30 18 H 2.4436 -0.7683 -1.0273 0
M  V30 19 H 2.5052 -1.7938 0.4575 0
M  V30 20 H 2.9082 -0.0583 0.5723 0
M  V30 21 H -1.9445 -0.171 -1.6553 0
M  V30 22 H -3.1058 0.1198 -0.313 0
M  V30 23 H -1.7845 -1.312 1.2179 0
M  V30 24 H -2.1975 -2.217 -0.2806 0
M  V30 END ATOM
M  V30 BEGIN BOND
M  V30 1 1 1 2
M  V30 2 1 1 3
M  V30 3 1 1 4
M  V30 4 1 2 5
M  V30 5 1 2 6
M  V30 6 1 3 7
M  V30 7 1 5 8
M  V30 8 1 7 8
M  V30 9 1 1 9
M  V30 10 1 2 10
M  V30 11 1 3 11
M  V30 12 1 3 12
M  V30 13 1 4 13
M  V30 14 1 4 14
M  V30 15 1 4 15
M  V30 16 1 5 16
M  V30 17 1 5 17
M  V30 18 1 6 18
M  V30 19 1 6 19
M  V30 20 1 6 20
M  V30 21 1 7 21
M  V30 22 1 7 22
M  V30 23 1 8 23
M  V30 24 1 8 24
M  V30 END BOND
M  V30 BEGIN COLLECTION
M  V30 MDLV30/STEABS ATOMS=(2 1 2)
M  V30 END COLLECTION
M  V30 END CTAB
M  END
>  <Structure No>
4708

>  <LogS>
-4.3341

>  <MMFF94 Energy>
6.2046

$$$$
Compound 4709
Actelion Java MolfileCreator 2.0

  0  0  0  0  0  0              0 V3000
M  V30 BEGIN CTAB
M  V30 COUNTS 14 13 0 0 0
M  V30 BEGIN ATOM
M  V30 1 O -0.077 2.0059 1.1568 0
M  V30 2 C -0.0219 1.5556 -0.0183 0
M  V30 3 O 0.1984 2.4282 -1.0764 0 CHG=-1
M  V30 4 C -0.1776 0.0807 -0.2798 0 CFG=2
M  V30 5 N -1.4527 -0.4042 0.2612 0 CHG=1
M  V30 6 C 1.0014 -0.7063 0.3206 0
M  V30 7 O 2.2175 -0.2838 -0.2362 0
M  V30 8 H -0.1787 -0.0826 -1.3813 0
M  V30 9 H -1.4757 -0.3038 1.3026 0
M  V30 10 H -1.5817 -1.4119 0.0125 0
M  V30 11 H -2.2442 0.1393 -0.1545 0
M  V30 12 H 0.8614 -1.7969 0.1429 0
M  V30 13 H 1.0401 -0.5503 1.4204 0
M  V30 14 H 2.2585 -0.6658 -1.1516 0
M  V30 END ATOM
M  V30 BEGIN BOND
M  V30 1 2 1 2
M  V30 2 1 2 3
M  V30 3 1 2 4
M  V30 4 1 4 5
M  V30 5 1 4 6
M  V30 6 1 6 7
M  V30 7 1 4 8
M  V30 8 1 5 9
M  V30 9 1 5 10
M  V30 10 1 5 11
M  V30 11 1 6 12
M  V30 12 1 6 13
M  V30 13 1 7 14
M  V30 END BOND
M  V30 BEGIN COLLECTION
M  V30 MDLV30/STEABS ATOMS=(1 4)
M  V30 END COLLECTION
M  V30 END CTAB
M  END
>  <Structure No>
4709

>  <LogS>
-0.3861

>  <MMFF94 Energy>
-5.0245

$$$$
Compound 4710
Actelion Java MolfileCreator 2.0

  0  0  0  0  0  0              0 V3000
M  V30 BEGIN CTAB
M  V30 COUNTS 18 17 0 0 0
M  V30 BEGIN ATOM
M  V30 1 O -2.0618 -0.7926 1.5857 0
M  V30 2 C -1.4025 -1.098 0.5566 0
M  V30 3 O -1.2882 -2.4323 0.1876 0 CHG=-1
M  V30 4 C -0.7306 -0.0295 -0.2664 0 CFG=1
M  V30 5 N -1.7251 0.9376 -0.7465 0 CHG=1
M  V30 6 C 0.374 0.6899 0.5426 0
M  V30 7 C 1.5281 -0.2335 0.9665 0
M  V30 8 C 2.3099 -0.725 -0.2127 0
M  V30 9 O 2.1493 -1.9001 -0.6351 0
M  V30 10 O 3.1943 0.1256 -0.8637 0 CHG=-1
M  V30 11 H -0.2648 -0.512 -1.1545 0
M  V30 12 H -1.2664 1.6317 -1.3807 0
M  V30 13 H -2.1645 1.4463 0.0554 0
M  V30 14 H -2.4697 0.4421 -1.2895 0
M  V30 15 H -0.0725 1.1406 1.4561 0
M  V30 16 H 0.7892 1.5264 -0.0619 0
M  V30 17 H 1.1423 -1.0925 1.5567 0
M  V30 18 H 2.215 0.3362 1.6283 0
M  V30 END ATOM
M  V30 BEGIN BOND
M  V30 1 2 1 2
M  V30 2 1 2 3
M  V30 3 1 2 4
M  V30 4 1 4 5
M  V30 5 1 4 6
M  V30 6 1 6 7
M  V30 7 1 7 8
M  V30 8 2 8 9
M  V30 9 1 8 10
M  V30 10 1 4 11
M  V30 11 1 5 12
M  V30 12 1 5 13
M  V30 13 1 5 14
M  V30 14 1 6 15
M  V30 15 1 6 16
M  V30 16 1 7 17
M  V30 17 1 7 18
M  V30 END BOND
M  V30 BEGIN COLLECTION
M  V30 MDLV30/STEABS ATOMS=(1 4)
M  V30 END COLLECTION
M  V30 END CTAB
M  END
>  <Structure No>
4710

>  <LogS>
-0.9916

>  <MMFF94 Energy>
-50.41

$$$$
Compound 4711
Actelion Java MolfileCreator 2.0

  0  0  0  0  0  0              0 V3000
M  V30 BEGIN CTAB
M  V30 COUNTS 23 24 0 0 0
M  V30 BEGIN ATOM
M  V30 1 Cl 2.568 -2.4851 1.3248 0
M  V30 2 C 2.5446 -0.9022 0.563 0
M  V30 3 C 1.3683 -0.4139 -0.0288 0
M  V30 4 C 3.7085 -0.1245 0.5607 0
M  V30 5 O 0.2182 -1.2182 -0.0285 0
M  V30 6 C 1.3841 0.849 -0.6504 0
M  V30 7 C 3.7095 1.136 -0.0415 0
M  V30 8 C -1.103 -0.7488 0.0048 0
M  V30 9 C 2.5496 1.6206 -0.6497 0
M  V30 10 C -2.1067 -1.5222 -0.5908 0
M  V30 11 C -1.4527 0.4474 0.659 0
M  V30 12 C -3.4382 -1.0956 -0.5649 0
M  V30 13 C -2.7844 0.8725 0.6843 0
M  V30 14 C -3.7778 0.1037 0.0692 0
M  V30 15 Cl -5.4485 0.6372 0.1031 0
M  V30 16 H 4.6131 -0.4971 1.0243 0
M  V30 17 H 0.5032 1.2281 -1.1514 0
M  V30 18 H 4.6114 1.7342 -0.0429 0
M  V30 19 H 2.5552 2.5918 -1.1275 0
M  V30 20 H -1.8522 -2.4529 -1.0814 0
M  V30 21 H -0.7018 1.0398 1.1648 0
M  V30 22 H -4.2041 -1.6983 -1.0361 0
M  V30 23 H -3.0439 1.795 1.1881 0
M  V30 END ATOM
M  V30 BEGIN BOND
M  V30 1 1 1 2
M  V30 2 2 2 3
M  V30 3 1 2 4
M  V30 4 1 3 5
M  V30 5 1 3 6
M  V30 6 2 4 7
M  V30 7 1 5 8
M  V30 8 2 6 9
M  V30 9 2 8 10
M  V30 10 1 8 11
M  V30 11 1 10 12
M  V30 12 2 11 13
M  V30 13 2 12 14
M  V30 14 1 14 15
M  V30 15 1 7 9
M  V30 16 1 13 14
M  V30 17 1 4 16
M  V30 18 1 6 17
M  V30 19 1 7 18
M  V30 20 1 9 19
M  V30 21 1 10 20
M  V30 22 1 11 21
M  V30 23 1 12 22
M  V30 24 1 13 23
M  V30 END BOND
M  V30 END CTAB
M  END
>  <Structure No>
4711

>  <LogS>
-5.52

>  <MMFF94 Energy>
48.549

$$$$
Compound 4712
Actelion Java MolfileCreator 2.0

  0  0  0  0  0  0              0 V3000
M  V30 BEGIN CTAB
M  V30 COUNTS 29 29 0 0 0
M  V30 BEGIN ATOM
M  V30 1 O -0.236 2.3623 -2.047 0
M  V30 2 C 0.2465 2.6548 -0.9194 0
M  V30 3 N 0.7554 1.6274 -0.0576 0
M  V30 4 C 0.2553 4.0786 -0.4671 0
M  V30 5 C 0.6916 0.2074 -0.4171 0
M  V30 6 N 1.6394 -0.5646 0.3921 0
M  V30 7 C -0.7094 -0.3129 -0.1992 0
M  V30 8 C 2.0742 -1.8771 0.0105 0
M  V30 9 C -1.2882 -0.2833 1.0823 0
M  V30 10 C -1.4509 -0.8325 -1.2746 0
M  V30 11 O 1.6809 -2.3912 -1.0715 0
M  V30 12 C 2.9718 -2.6569 0.9148 0
M  V30 13 C -2.5854 -0.7654 1.282 0
M  V30 14 C -2.7479 -1.3134 -1.0699 0
M  V30 15 C -3.3146 -1.2801 0.207 0
M  V30 16 H 1.0866 1.9029 0.8949 0
M  V30 17 H 1.2597 4.3404 -0.0733 0
M  V30 18 H -0.4991 4.2157 0.3352 0
M  V30 19 H 0.0142 4.7583 -1.3121 0
M  V30 20 H 0.9882 0.1078 -1.4857 0
M  V30 21 H 1.9348 -0.2002 1.3265 0
M  V30 22 H -0.7344 0.1127 1.9245 0
M  V30 23 H -1.0269 -0.8657 -2.2705 0
M  V30 24 H 3.8261 -2.0229 1.2323 0
M  V30 25 H 3.3669 -3.5546 0.3936 0
M  V30 26 H 2.4027 -2.9791 1.8115 0
M  V30 27 H -3.0252 -0.74 2.2707 0
M  V30 28 H -3.3139 -1.7124 -1.9017 0
M  V30 29 H -4.3186 -1.6529 0.3633 0
M  V30 END ATOM
M  V30 BEGIN BOND
M  V30 1 2 1 2
M  V30 2 1 2 3
M  V30 3 1 2 4
M  V30 4 1 3 5
M  V30 5 1 5 6
M  V30 6 1 5 7
M  V30 7 1 6 8
M  V30 8 2 7 9
M  V30 9 1 7 10
M  V30 10 2 8 11
M  V30 11 1 8 12
M  V30 12 1 9 13
M  V30 13 2 10 14
M  V30 14 2 13 15
M  V30 15 1 14 15
M  V30 16 1 3 16
M  V30 17 1 4 17
M  V30 18 1 4 18
M  V30 19 1 4 19
M  V30 20 1 5 20
M  V30 21 1 6 21
M  V30 22 1 9 22
M  V30 23 1 10 23
M  V30 24 1 12 24
M  V30 25 1 12 25
M  V30 26 1 12 26
M  V30 27 1 13 27
M  V30 28 1 14 28
M  V30 29 1 15 29
M  V30 END BOND
M  V30 END CTAB
M  END
>  <Structure No>
4712

>  <LogS>
-1.3144

>  <MMFF94 Energy>
-84.972

$$$$
Compound 4713
Actelion Java MolfileCreator 2.0

  0  0  0  0  0  0              0 V3000
M  V30 BEGIN CTAB
M  V30 COUNTS 16 16 0 0 0
M  V30 BEGIN ATOM
M  V30 1 Cl -1.3299 -1.8622 1.6848 0
M  V30 2 C -0.0495 -1.0338 0.8027 0
M  V30 3 C -0.2414 0.293 0.3819 0
M  V30 4 C 1.1625 -1.6867 0.5236 0
M  V30 5 O -1.4459 0.9441 0.6558 0
M  V30 6 C 0.7826 0.97 -0.3015 0
M  V30 7 Cl 1.4423 -3.3482 1.028 0
M  V30 8 C 2.1745 -1.0123 -0.1658 0
M  V30 9 C -2.536 0.8947 -0.2552 0
M  V30 10 Cl 0.5409 2.6431 -0.798 0
M  V30 11 C 1.9922 0.3111 -0.5772 0
M  V30 12 Cl 3.298 1.1198 -1.4344 0
M  V30 13 H 3.108 -1.5179 -0.3795 0
M  V30 14 H -2.2388 1.3358 -1.2299 0
M  V30 15 H -2.8587 -0.1566 -0.4073 0
M  V30 16 H -3.3848 1.4759 0.1595 0
M  V30 END ATOM
M  V30 BEGIN BOND
M  V30 1 1 1 2
M  V30 2 2 2 3
M  V30 3 1 2 4
M  V30 4 1 3 5
M  V30 5 1 3 6
M  V30 6 1 4 7
M  V30 7 2 4 8
M  V30 8 1 5 9
M  V30 9 1 6 10
M  V30 10 2 6 11
M  V30 11 1 11 12
M  V30 12 1 8 11
M  V30 13 1 8 13
M  V30 14 1 9 14
M  V30 15 1 9 15
M  V30 16 1 9 16
M  V30 END BOND
M  V30 END CTAB
M  END
>  <Structure No>
4713

>  <LogS>
-5.1307

>  <MMFF94 Energy>
45.295

$$$$
Compound 4714
Actelion Java MolfileCreator 2.0

  0  0  0  0  0  0              0 V3000
M  V30 BEGIN CTAB
M  V30 COUNTS 31 30 0 0 0
M  V30 BEGIN ATOM
M  V30 1 O 3.5917 -1.3262 0.1559 0
M  V30 2 C 4.2026 -0.2411 0.3485 0
M  V30 3 N 3.7731 0.9669 -0.2987 0
M  V30 4 N 5.3579 -0.226 1.1853 0
M  V30 5 N 2.562 1.0846 -1.0067 0
M  V30 6 C 1.4611 0.4966 -0.6503 0
M  V30 7 C 0.2201 0.6591 -1.4909 0 CFG=2
M  V30 8 O -0.103 2.0166 -1.6739 0
M  V30 9 C -0.9877 -0.1394 -0.9342 0 CFG=2
M  V30 10 O -2.0135 -0.1494 -1.8957 0
M  V30 11 C -1.5351 0.4333 0.4048 0 CFG=1
M  V30 12 O -2.3741 1.5325 0.1484 0
M  V30 13 C -2.2739 -0.6216 1.2716 0 CFG=2
M  V30 14 O -1.3658 -1.6263 1.6468 0
M  V30 15 C -3.4968 -1.261 0.5866 0
M  V30 16 O -4.4848 -0.299 0.327 0
M  V30 17 H 4.4542 1.7553 -0.3646 0
M  V30 18 H 5.687 -1.1028 1.6467 0
M  V30 19 H 5.8824 0.6613 1.3497 0
M  V30 20 H 1.423 -0.0944 0.2561 0
M  V30 21 H 0.4631 0.2385 -2.4909 0
M  V30 22 H -0.0839 2.4605 -0.786 0
M  V30 23 H -0.642 -1.1859 -0.7594 0
M  V30 24 H -1.7594 -0.8158 -2.5866 0
M  V30 25 H -0.6703 0.7828 1.0153 0
M  V30 26 H -2.4486 2.046 0.995 0
M  V30 27 H -2.6324 -0.101 2.1914 0
M  V30 28 H -1.746 -2.0791 2.4448 0
M  V30 29 H -3.1988 -1.8095 -0.3356 0
M  V30 30 H -3.9328 -2.0161 1.2747 0
M  V30 31 H -4.4302 -0.0772 -0.6384 0
M  V30 END ATOM
M  V30 BEGIN BOND
M  V30 1 2 1 2
M  V30 2 1 2 3
M  V30 3 1 2 4
M  V30 4 1 3 5
M  V30 5 2 5 6
M  V30 6 1 6 7
M  V30 7 1 7 8
M  V30 8 1 7 9
M  V30 9 1 9 10
M  V30 10 1 9 11
M  V30 11 1 11 12
M  V30 12 1 11 13
M  V30 13 1 13 14
M  V30 14 1 13 15
M  V30 15 1 15 16
M  V30 16 1 3 17
M  V30 17 1 4 18
M  V30 18 1 4 19
M  V30 19 1 6 20
M  V30 20 1 7 21
M  V30 21 1 8 22
M  V30 22 1 9 23
M  V30 23 1 10 24
M  V30 24 1 11 25
M  V30 25 1 12 26
M  V30 26 1 13 27
M  V30 27 1 14 28
M  V30 28 1 15 29
M  V30 29 1 15 30
M  V30 30 1 16 31
M  V30 END BOND
M  V30 BEGIN COLLECTION
M  V30 MDLV30/STEABS ATOMS=(4 7 9 11 13)
M  V30 END COLLECTION
M  V30 END CTAB
M  END
>  <Structure No>
4714

>  <LogS>
-0.4257

>  <MMFF94 Energy>
56.023

$$$$
Compound 4715
Actelion Java MolfileCreator 2.0

  0  0  0  0  0  0              0 V3000
M  V30 BEGIN CTAB
M  V30 COUNTS 26 26 0 0 0
M  V30 BEGIN ATOM
M  V30 1 O -0.5522 2.2896 -0.3944 0
M  V30 2 C -0.7405 1.1323 0.0721 0
M  V30 3 O 0.2345 0.5314 0.8781 0
M  V30 4 C -1.994 0.4071 -0.2262 0
M  V30 5 C 1.5087 1.1164 1.1426 0
M  V30 6 C -3.0018 0.994 -1.0116 0
M  V30 7 C -2.2036 -0.8906 0.2676 0
M  V30 8 C 2.4326 1.0228 -0.08 0
M  V30 9 N -4.1477 0.3124 -1.2787 0
M  V30 10 C -3.3894 -1.5678 -0.022 0
M  V30 11 C 2.5934 -0.4084 -0.6186 0
M  V30 12 C -4.3605 -0.9432 -0.805 0
M  V30 13 C 3.3357 -1.3261 0.3517 0
M  V30 14 H 1.3841 2.1805 1.4395 0
M  V30 15 H 1.972 0.591 2.003 0
M  V30 16 H -2.8808 1.992 -1.4127 0
M  V30 17 H -1.4538 -1.3823 0.8745 0
M  V30 18 H 2.0207 1.6597 -0.8917 0
M  V30 19 H 3.43 1.436 0.185 0
M  V30 20 H -3.554 -2.5681 0.3567 0
M  V30 21 H 1.6 -0.8452 -0.8582 0
M  V30 22 H 3.1727 -0.3613 -1.5658 0
M  V30 23 H -5.2839 -1.4566 -1.0369 0
M  V30 24 H 2.7239 -1.5152 1.2581 0
M  V30 25 H 4.3074 -0.8763 0.6465 0
M  V30 26 H 3.5327 -2.3014 -0.1408 0
M  V30 END ATOM
M  V30 BEGIN BOND
M  V30 1 2 1 2
M  V30 2 1 2 3
M  V30 3 1 2 4
M  V30 4 1 3 5
M  V30 5 2 4 6
M  V30 6 1 4 7
M  V30 7 1 5 8
M  V30 8 1 6 9
M  V30 9 2 7 10
M  V30 10 1 8 11
M  V30 11 2 9 12
M  V30 12 1 11 13
M  V30 13 1 10 12
M  V30 14 1 5 14
M  V30 15 1 5 15
M  V30 16 1 6 16
M  V30 17 1 7 17
M  V30 18 1 8 18
M  V30 19 1 8 19
M  V30 20 1 10 20
M  V30 21 1 11 21
M  V30 22 1 11 22
M  V30 23 1 12 23
M  V30 24 1 13 24
M  V30 25 1 13 25
M  V30 26 1 13 26
M  V30 END BOND
M  V30 END CTAB
M  END
>  <Structure No>
4715

>  <LogS>
-1.8367

>  <MMFF94 Energy>
23.178

$$$$
Compound 4716
Actelion Java MolfileCreator 2.0

  0  0  0  0  0  0              0 V3000
M  V30 BEGIN CTAB
M  V30 COUNTS 25 25 0 0 0
M  V30 BEGIN ATOM
M  V30 1 O 0.0787 -1.8134 0.0787 0
M  V30 2 C -0.2831 -0.6508 -0.2536 0
M  V30 3 O 0.6711 0.2978 -0.6433 0
M  V30 4 C -1.7173 -0.288 -0.2399 0
M  V30 5 C 2.0761 0.0522 -0.6319 0
M  V30 6 C -2.6932 -1.2283 0.1417 0
M  V30 7 C -2.1258 1.0069 -0.6083 0
M  V30 8 C 2.6189 0.1118 0.8 0
M  V30 9 C -4.0469 -0.8776 0.153 0
M  V30 10 C -3.481 1.3518 -0.595 0
M  V30 11 C 4.1307 -0.1322 0.846 0
M  V30 12 C -4.4405 0.4108 -0.2149 0
M  V30 13 O 4.8229 0.8775 0.1618 0
M  V30 14 H 2.2954 -0.9345 -1.0954 0
M  V30 15 H 2.5687 0.8367 -1.2442 0
M  V30 16 H -2.4118 -2.2329 0.4313 0
M  V30 17 H -1.4006 1.7535 -0.9061 0
M  V30 18 H 2.3892 1.1054 1.2426 0
M  V30 19 H 2.1172 -0.6626 1.4186 0
M  V30 20 H -4.7914 -1.606 0.4477 0
M  V30 21 H -3.7874 2.3502 -0.8798 0
M  V30 22 H 4.3662 -1.1117 0.378 0
M  V30 23 H 4.4689 -0.1775 1.9061 0
M  V30 24 H -5.4889 0.6801 -0.2054 0
M  V30 25 H 4.8023 1.681 0.7447 0
M  V30 END ATOM
M  V30 BEGIN BOND
M  V30 1 2 1 2
M  V30 2 1 2 3
M  V30 3 1 2 4
M  V30 4 1 3 5
M  V30 5 2 4 6
M  V30 6 1 4 7
M  V30 7 1 5 8
M  V30 8 1 6 9
M  V30 9 2 7 10
M  V30 10 1 8 11
M  V30 11 2 9 12
M  V30 12 1 11 13
M  V30 13 1 10 12
M  V30 14 1 5 14
M  V30 15 1 5 15
M  V30 16 1 6 16
M  V30 17 1 7 17
M  V30 18 1 8 18
M  V30 19 1 8 19
M  V30 20 1 9 20
M  V30 21 1 10 21
M  V30 22 1 11 22
M  V30 23 1 11 23
M  V30 24 1 12 24
M  V30 25 1 13 25
M  V30 END BOND
M  V30 END CTAB
M  END
>  <Structure No>
4716

>  <LogS>
-1.2558

>  <MMFF94 Energy>
30.704

$$$$
Compound 4717
Actelion Java MolfileCreator 2.0

  0  0  0  0  0  0              0 V3000
M  V30 BEGIN CTAB
M  V30 COUNTS 29 30 0 0 0
M  V30 BEGIN ATOM
M  V30 1 O 3.1908 -0.4781 0.0796 0
M  V30 2 C 2.5313 0.2372 -0.7236 0
M  V30 3 O 1.1349 0.1472 -0.7841 0
M  V30 4 N 3.2022 1.1955 -1.5465 0
M  V30 5 C 0.3638 -0.8989 -0.2516 0
M  V30 6 C 4.6503 1.3564 -1.5195 0
M  V30 7 C -0.9456 -0.6329 0.2101 0
M  V30 8 C 0.855 -2.2182 -0.2081 0
M  V30 9 C -1.7161 -1.6818 0.7432 0
M  V30 10 C -1.5294 0.76 0.1764 0
M  V30 11 C 0.0737 -3.2487 0.3178 0
M  V30 12 C -1.2072 -2.9801 0.7978 0
M  V30 13 O -2.7338 0.7466 -0.5552 0
M  V30 14 O -1.7402 1.2065 1.4942 0
M  V30 15 C -3.6696 1.4122 0.2344 0
M  V30 16 C -2.9419 1.9044 1.4515 0
M  V30 17 H 2.636 1.7945 -2.1883 0
M  V30 18 H 5.1405 0.4026 -1.8074 0
M  V30 19 H 4.9552 2.1477 -2.2363 0
M  V30 20 H 4.9778 1.6499 -0.4999 0
M  V30 21 H 1.8309 -2.46 -0.6061 0
M  V30 22 H -2.7148 -1.4919 1.117 0
M  V30 23 H -0.8361 1.4707 -0.3229 0
M  V30 24 H 0.4601 -4.2593 0.3466 0
M  V30 25 H -1.8102 -3.7806 1.2065 0
M  V30 26 H -4.1128 2.2579 -0.3337 0
M  V30 27 H -4.4732 0.7006 0.523 0
M  V30 28 H -3.5279 1.7059 2.374 0
M  V30 29 H -2.734 2.9942 1.3726 0
M  V30 END ATOM
M  V30 BEGIN BOND
M  V30 1 2 1 2
M  V30 2 1 2 3
M  V30 3 1 2 4
M  V30 4 1 3 5
M  V30 5 1 4 6
M  V30 6 2 5 7
M  V30 7 1 5 8
M  V30 8 1 7 9
M  V30 9 1 7 10
M  V30 10 2 8 11
M  V30 11 2 9 12
M  V30 12 1 10 13
M  V30 13 1 10 14
M  V30 14 1 13 15
M  V30 15 1 14 16
M  V30 16 1 11 12
M  V30 17 1 15 16
M  V30 18 1 4 17
M  V30 19 1 6 18
M  V30 20 1 6 19
M  V30 21 1 6 20
M  V30 22 1 8 21
M  V30 23 1 9 22
M  V30 24 1 10 23
M  V30 25 1 11 24
M  V30 26 1 12 25
M  V30 27 1 15 26
M  V30 28 1 15 27
M  V30 29 1 16 28
M  V30 30 1 16 29
M  V30 END BOND
M  V30 END CTAB
M  END
>  <Structure No>
4717

>  <LogS>
-1.5706

>  <MMFF94 Energy>
-6.4323

$$$$
Compound 4718
Actelion Java MolfileCreator 2.0

  0  0  0  0  0  0              0 V3000
M  V30 BEGIN CTAB
M  V30 COUNTS 23 24 0 0 0
M  V30 BEGIN ATOM
M  V30 1 Cl 5.3565 1.2154 0.324 0
M  V30 2 C 3.7715 0.5171 0.0467 0
M  V30 3 C 3.5628 -0.3362 -1.0413 0
M  V30 4 C 2.7167 0.8057 0.9187 0
M  V30 5 C 2.2999 -0.8944 -1.2619 0
M  V30 6 C 1.4532 0.2484 0.6993 0
M  V30 7 C 1.2331 -0.5948 -0.4056 0
M  V30 8 O -0.0146 -1.1866 -0.6509 0
M  V30 9 C -1.2591 -0.6226 -0.3332 0
M  V30 10 C -2.3298 -1.4769 -0.0404 0
M  V30 11 C -1.4725 0.7687 -0.3478 0
M  V30 12 C -3.5896 -0.9526 0.2658 0
M  V30 13 C -2.7334 1.2902 -0.0414 0
M  V30 14 C -3.7904 0.4304 0.2689 0
M  V30 15 H 4.3775 -0.5689 -1.715 0
M  V30 16 H 2.8762 1.4551 1.7701 0
M  V30 17 H 2.1468 -1.5559 -2.1049 0
M  V30 18 H 0.6563 0.4593 1.4003 0
M  V30 19 H -2.1825 -2.5493 -0.0432 0
M  V30 20 H -0.6731 1.4472 -0.6142 0
M  V30 21 H -4.4104 -1.6184 0.4989 0
M  V30 22 H -2.8929 2.3607 -0.0519 0
M  V30 23 H -4.7661 0.8352 0.5046 0
M  V30 END ATOM
M  V30 BEGIN BOND
M  V30 1 1 1 2
M  V30 2 2 2 3
M  V30 3 1 2 4
M  V30 4 1 3 5
M  V30 5 2 4 6
M  V30 6 2 5 7
M  V30 7 1 7 8
M  V30 8 1 8 9
M  V30 9 2 9 10
M  V30 10 1 9 11
M  V30 11 1 10 12
M  V30 12 2 11 13
M  V30 13 2 12 14
M  V30 14 1 6 7
M  V30 15 1 13 14
M  V30 16 1 3 15
M  V30 17 1 4 16
M  V30 18 1 5 17
M  V30 19 1 6 18
M  V30 20 1 10 19
M  V30 21 1 11 20
M  V30 22 1 12 21
M  V30 23 1 13 22
M  V30 24 1 14 23
M  V30 END BOND
M  V30 END CTAB
M  END
>  <Structure No>
4718

>  <LogS>
-4.7925

>  <MMFF94 Energy>
40.032

$$$$
Compound 4719
Actelion Java MolfileCreator 2.0

  0  0  0  0  0  0              0 V3000
M  V30 BEGIN CTAB
M  V30 COUNTS 17 17 0 0 0
M  V30 BEGIN ATOM
M  V30 1 Cl 1.4995 2.1665 1.5829 0
M  V30 2 C 0.5626 0.963 0.7028 0
M  V30 3 C 1.1797 -0.1452 0.0942 0
M  V30 4 C -0.824 1.1274 0.6164 0
M  V30 5 C 0.3888 -1.0757 -0.5952 0
M  V30 6 C 2.6687 -0.3399 0.1757 0
M  V30 7 C -1.6233 0.1982 -0.0734 0
M  V30 8 C -0.9973 -0.9126 -0.6824 0
M  V30 9 N -3.0512 0.3983 -0.1431 0 CHG=1
M  V30 10 O -1.7357 -1.864 -1.3777 0 CHG=-1
M  V30 11 O -3.7891 -0.407 -0.7471 0
M  V30 12 O -3.6306 1.4911 0.4609 0 CHG=-1
M  V30 13 H -1.2762 1.988 1.0927 0
M  V30 14 H 0.8472 -1.935 -1.0698 0
M  V30 15 H 2.9777 -0.4264 1.2386 0
M  V30 16 H 2.9918 -1.2602 -0.3555 0
M  V30 17 H 3.1859 0.527 -0.2867 0
M  V30 END ATOM
M  V30 BEGIN BOND
M  V30 1 1 1 2
M  V30 2 2 2 3
M  V30 3 1 2 4
M  V30 4 1 3 5
M  V30 5 1 3 6
M  V30 6 2 4 7
M  V30 7 2 5 8
M  V30 8 1 7 9
M  V30 9 1 8 10
M  V30 10 2 9 11
M  V30 11 1 9 12
M  V30 12 1 7 8
M  V30 13 1 4 13
M  V30 14 1 5 14
M  V30 15 1 6 15
M  V30 16 1 6 16
M  V30 17 1 6 17
M  V30 END BOND
M  V30 END CTAB
M  END
>  <Structure No>
4719

>  <LogS>
-4.3901

>  <MMFF94 Energy>
56.286

$$$$
Compound 4720
Actelion Java MolfileCreator 2.0

  0  0  0  0  0  0              0 V3000
M  V30 BEGIN CTAB
M  V30 COUNTS 18 18 0 0 0
M  V30 BEGIN ATOM
M  V30 1 Cl 0.0877 2.8115 2.2839 0
M  V30 2 C -0.0896 1.4484 1.1974 0
M  V30 3 N 1.013 0.8902 0.6364 0
M  V30 4 C -1.359 0.9471 0.8985 0
M  V30 5 C 0.9239 -0.155 -0.2302 0
M  V30 6 C -1.4941 -0.1623 0.0407 0
M  V30 7 O 2.0717 -0.7032 -0.8103 0
M  V30 8 C -0.3282 -0.6859 -0.5528 0
M  V30 9 C -2.871 -0.6837 -0.3492 0
M  V30 10 C 3.3802 -0.2171 -0.5352 0
M  V30 11 Cl -3.4501 0.2211 -1.769 0
M  V30 12 Cl -4.068 -0.4976 0.9669 0
M  V30 13 Cl -2.8506 -2.4249 -0.758 0
M  V30 14 H -2.2256 1.4316 1.3283 0
M  V30 15 H -0.3793 -1.4938 -1.2703 0
M  V30 16 H 3.6037 -0.3184 0.5478 0
M  V30 17 H 3.4615 0.8484 -0.8377 0
M  V30 18 H 4.1183 -0.8116 -1.1116 0
M  V30 END ATOM
M  V30 BEGIN BOND
M  V30 1 1 1 2
M  V30 2 2 2 3
M  V30 3 1 2 4
M  V30 4 1 3 5
M  V30 5 2 4 6
M  V30 6 1 5 7
M  V30 7 2 5 8
M  V30 8 1 6 9
M  V30 9 1 7 10
M  V30 10 1 9 11
M  V30 11 1 9 12
M  V30 12 1 9 13
M  V30 13 1 6 8
M  V30 14 1 4 14
M  V30 15 1 8 15
M  V30 16 1 10 16
M  V30 17 1 10 17
M  V30 18 1 10 18
M  V30 END BOND
M  V30 END CTAB
M  END
>  <Structure No>
4720

>  <LogS>
-4.3635

>  <MMFF94 Energy>
13.401

$$$$
Compound 4721
Actelion Java MolfileCreator 2.0

  0  0  0  0  0  0              0 V3000
M  V30 BEGIN CTAB
M  V30 COUNTS 31 31 0 0 0
M  V30 BEGIN ATOM
M  V30 1 O -4.1904 0.5526 1.5006 0
M  V30 2 C -3.1459 0.7564 0.8249 0
M  V30 3 N -2.3342 -0.3567 0.394 0
M  V30 4 C -2.7463 2.1687 0.5231 0
M  V30 5 C -0.9039 -0.2064 0.2931 0
M  V30 6 C -2.9313 -1.6364 0.0915 0
M  V30 7 C -0.1679 0.3319 1.3605 0
M  V30 8 C -0.2298 -0.6012 -0.873 0
M  V30 9 O -2.2426 -2.6885 0.1899 0
M  V30 10 C -4.3661 -1.7548 -0.3256 0
M  V30 11 C 1.2183 0.478 1.2599 0
M  V30 12 C 1.1568 -0.4549 -0.9735 0
M  V30 13 C 1.8924 0.0886 0.0969 0
M  V30 14 O 3.284 0.2564 0.0456 0
M  V30 15 C 4.0968 -0.0949 -1.0709 0
M  V30 16 C 5.5497 0.2297 -0.7633 0
M  V30 17 H -2.1727 2.2119 -0.4263 0
M  V30 18 H -2.1222 2.5663 1.3499 0
M  V30 19 H -3.65 2.8052 0.4155 0
M  V30 20 H -0.668 0.6289 2.2738 0
M  V30 21 H -0.7822 -1.0127 -1.7085 0
M  V30 22 H -4.5071 -2.6582 -0.9561 0
M  V30 23 H -5.0114 -1.8417 0.573 0
M  V30 24 H -4.6692 -0.8665 -0.9184 0
M  V30 25 H 1.7729 0.8942 2.0915 0
M  V30 26 H 1.6456 -0.7652 -1.8867 0
M  V30 27 H 3.7769 0.4814 -1.9659 0
M  V30 28 H 4.0032 -1.1832 -1.277 0
M  V30 29 H 5.8866 -0.3436 0.1262 0
M  V30 30 H 5.6609 1.3161 -0.5607 0
M  V30 31 H 6.1868 -0.0425 -1.631 0
M  V30 END ATOM
M  V30 BEGIN BOND
M  V30 1 2 1 2
M  V30 2 1 2 3
M  V30 3 1 2 4
M  V30 4 1 3 5
M  V30 5 1 3 6
M  V30 6 2 5 7
M  V30 7 1 5 8
M  V30 8 2 6 9
M  V30 9 1 6 10
M  V30 10 1 7 11
M  V30 11 2 8 12
M  V30 12 2 11 13
M  V30 13 1 13 14
M  V30 14 1 14 15
M  V30 15 1 15 16
M  V30 16 1 12 13
M  V30 17 1 4 17
M  V30 18 1 4 18
M  V30 19 1 4 19
M  V30 20 1 7 20
M  V30 21 1 8 21
M  V30 22 1 10 22
M  V30 23 1 10 23
M  V30 24 1 10 24
M  V30 25 1 11 25
M  V30 26 1 12 26
M  V30 27 1 15 27
M  V30 28 1 15 28
M  V30 29 1 16 29
M  V30 30 1 16 30
M  V30 31 1 16 31
M  V30 END BOND
M  V30 END CTAB
M  END
>  <Structure No>
4721

>  <LogS>
-1.947

>  <MMFF94 Energy>
18.493

$$$$
Compound 4722
Actelion Java MolfileCreator 2.0

  0  0  0  0  0  0              0 V3000
M  V30 BEGIN CTAB
M  V30 COUNTS 19 20 0 0 0
M  V30 BEGIN ATOM
M  V30 1 O -1.7057 -2.6814 -0.3247 0
M  V30 2 C -2.1652 -1.5524 -0.0088 0
M  V30 3 O -3.4861 -1.4554 0.4131 0 CHG=-1
M  V30 4 C -1.345 -0.3276 -0.1588 0
M  V30 5 C 0.0506 -0.2803 0.116 0
M  V30 6 C -1.9878 0.8339 -0.6229 0
M  V30 7 C 0.7669 0.9191 -0.1379 0
M  V30 8 C 0.7632 -1.3631 0.6722 0
M  V30 9 C -1.2695 2.0069 -0.8566 0
M  V30 10 N 2.1034 0.986 0.1074 0
M  V30 11 C 0.1034 2.0471 -0.6263 0
M  V30 12 C 2.1343 -1.257 0.9109 0
M  V30 13 C 2.7949 -0.0674 0.6117 0
M  V30 14 H -3.0506 0.8269 -0.8341 0
M  V30 15 H 0.277 -2.2851 0.9528 0
M  V30 16 H -1.7797 2.8869 -1.2272 0
M  V30 17 H 0.6501 2.9627 -0.8164 0
M  V30 18 H 2.6802 -2.0905 1.3342 0
M  V30 19 H 3.8572 0.0242 0.7942 0
M  V30 END ATOM
M  V30 BEGIN BOND
M  V30 1 2 1 2
M  V30 2 1 2 3
M  V30 3 1 2 4
M  V30 4 1 4 5
M  V30 5 2 4 6
M  V30 6 1 5 7
M  V30 7 2 5 8
M  V30 8 1 6 9
M  V30 9 2 7 10
M  V30 10 1 7 11
M  V30 11 1 8 12
M  V30 12 1 10 13
M  V30 13 2 9 11
M  V30 14 2 12 13
M  V30 15 1 6 14
M  V30 16 1 8 15
M  V30 17 1 9 16
M  V30 18 1 11 17
M  V30 19 1 12 18
M  V30 20 1 13 19
M  V30 END BOND
M  V30 END CTAB
M  END
>  <Structure No>
4722

>  <LogS>
-2.6774

>  <MMFF94 Energy>
47.133

$$$$
Compound 4723
Actelion Java MolfileCreator 2.0

  0  0  0  0  0  0              0 V3000
M  V30 BEGIN CTAB
M  V30 COUNTS 20 20 0 0 0
M  V30 BEGIN ATOM
M  V30 1 Cl -0.8296 -2.6565 -0.4147 0
M  V30 2 C -0.9734 -0.9026 -0.2377 0
M  V30 3 C -2.2563 -0.3274 -0.0779 0
M  V30 4 C 0.1793 -0.073 -0.2003 0
M  V30 5 N -3.4467 -1.127 -0.1154 0
M  V30 6 C -2.378 1.0527 0.1276 0
M  V30 7 C 1.5566 -0.5967 -0.3831 0
M  V30 8 C 0.0207 1.3064 0.0201 0
M  V30 9 C -1.247 1.864 0.1808 0
M  V30 10 O 1.7617 -1.6644 -1.022 0
M  V30 11 O 2.6409 0.125 0.1288 0
M  V30 12 Cl -1.4187 3.5902 0.4438 0
M  V30 13 C 3.9889 -0.3034 -0.0205 0
M  V30 14 H -4.3845 -0.6863 0.0172 0
M  V30 15 H -3.4245 -2.1556 -0.2846 0
M  V30 16 H -3.3578 1.4977 0.2515 0
M  V30 17 H 0.8838 1.9601 0.0528 0
M  V30 18 H 4.2502 -0.3676 -1.0979 0
M  V30 19 H 4.128 -1.2951 0.4596 0
M  V30 20 H 4.661 0.4305 0.4692 0
M  V30 END ATOM
M  V30 BEGIN BOND
M  V30 1 1 1 2
M  V30 2 2 2 3
M  V30 3 1 2 4
M  V30 4 1 3 5
M  V30 5 1 3 6
M  V30 6 1 4 7
M  V30 7 2 4 8
M  V30 8 2 6 9
M  V30 9 2 7 10
M  V30 10 1 7 11
M  V30 11 1 9 12
M  V30 12 1 11 13
M  V30 13 1 8 9
M  V30 14 1 5 14
M  V30 15 1 5 15
M  V30 16 1 6 16
M  V30 17 1 8 17
M  V30 18 1 13 18
M  V30 19 1 13 19
M  V30 20 1 13 20
M  V30 END BOND
M  V30 END CTAB
M  END
>  <Structure No>
4723

>  <LogS>
-3.2634

>  <MMFF94 Energy>
27.114

$$$$
Compound 4724
Actelion Java MolfileCreator 2.0

  0  0  0  0  0  0              0 V3000
M  V30 BEGIN CTAB
M  V30 COUNTS 27 26 0 0 0
M  V30 BEGIN ATOM
M  V30 1 O 0.6191 1.7809 0.4643 0
M  V30 2 C 0.316 0.4155 0.6573 0 CFG=1
M  V30 3 C -0.8531 0.0119 -0.3613 0
M  V30 4 C 1.6306 -0.4305 0.5096 0
M  V30 5 C -0.1448 0.2431 2.1339 0
M  V30 6 C -2.2168 0.5914 0.1039 0
M  V30 7 C -0.6094 0.5896 -1.7823 0
M  V30 8 C -1.0171 -1.5217 -0.491 0
M  V30 9 C 2.4017 -0.2588 -0.8008 0
M  V30 10 H 1.3394 2.0384 1.0983 0
M  V30 11 H 1.4298 -1.5095 0.6798 0
M  V30 12 H 2.3335 -0.1325 1.3195 0
M  V30 13 H -0.5155 -0.7838 2.3279 0
M  V30 14 H 0.6923 0.4373 2.8386 0
M  V30 15 H -0.9361 0.9752 2.3978 0
M  V30 16 H -2.1343 1.6826 0.2969 0
M  V30 17 H -3.0039 0.4393 -0.6665 0
M  V30 18 H -2.5813 0.0875 1.024 0
M  V30 19 H -1.476 0.3772 -2.4458 0
M  V30 20 H -0.4786 1.6919 -1.7555 0
M  V30 21 H 0.2645 0.1422 -2.2824 0
M  V30 22 H -1.1665 -1.998 0.4991 0
M  V30 23 H -0.1342 -1.9836 -0.9785 0
M  V30 24 H -1.8998 -1.7686 -1.1202 0
M  V30 25 H 3.4688 -0.5197 -0.6367 0
M  V30 26 H 2.3582 0.7884 -1.1654 0
M  V30 27 H 2.0206 -0.9578 -1.5716 0
M  V30 END ATOM
M  V30 BEGIN BOND
M  V30 1 1 1 2
M  V30 2 1 2 3
M  V30 3 1 2 4
M  V30 4 1 2 5
M  V30 5 1 3 6
M  V30 6 1 3 7
M  V30 7 1 3 8
M  V30 8 1 4 9
M  V30 9 1 1 10
M  V30 10 1 4 11
M  V30 11 1 4 12
M  V30 12 1 5 13
M  V30 13 1 5 14
M  V30 14 1 5 15
M  V30 15 1 6 16
M  V30 16 1 6 17
M  V30 17 1 6 18
M  V30 18 1 7 19
M  V30 19 1 7 20
M  V30 20 1 7 21
M  V30 21 1 8 22
M  V30 22 1 8 23
M  V30 23 1 8 24
M  V30 24 1 9 25
M  V30 25 1 9 26
M  V30 26 1 9 27
M  V30 END BOND
M  V30 BEGIN COLLECTION
M  V30 MDLV30/STEABS ATOMS=(1 2)
M  V30 END COLLECTION
M  V30 END CTAB
M  END
>  <Structure No>
4724

>  <LogS>
-1.2708

>  <MMFF94 Energy>
28.591

$$$$
Compound 4725
Actelion Java MolfileCreator 2.0

  0  0  0  0  0  0              0 V3000
M  V30 BEGIN CTAB
M  V30 COUNTS 28 27 0 0 0
M  V30 BEGIN ATOM
M  V30 1 O 1.7908 1.0119 1.3234 0
M  V30 2 C 1.8931 0.415 0.2151 0
M  V30 3 N 3.1982 0.2424 -0.3792 0
M  V30 4 C 0.6503 -0.1076 -0.4698 0
M  V30 5 C 4.3764 0.7654 0.3201 0
M  V30 6 C 3.3513 -0.4463 -1.6656 0
M  V30 7 C -0.6392 0.1749 0.321 0
M  V30 8 C -1.882 -0.3478 -0.364 0
M  V30 9 O -1.7798 -0.9446 -1.4722 0
M  V30 10 N -3.1871 -0.175 0.2304 0
M  V30 11 C -3.3403 0.5137 1.5171 0
M  V30 12 C -4.3654 -0.698 -0.4688 0
M  V30 13 H 0.5706 0.3698 -1.4701 0
M  V30 14 H 0.7562 -1.2055 -0.6046 0
M  V30 15 H 4.2773 1.8638 0.4505 0
M  V30 16 H 4.4633 0.2853 1.3178 0
M  V30 17 H 5.313 0.5671 -0.2418 0
M  V30 18 H 4.414 -0.4951 -1.9825 0
M  V30 19 H 2.786 0.0947 -2.4529 0
M  V30 20 H 2.9722 -1.4864 -1.5843 0
M  V30 21 H -0.7452 1.2728 0.4558 0
M  V30 22 H -0.5596 -0.3025 1.3213 0
M  V30 23 H -2.775 -0.0272 2.3043 0
M  V30 24 H -2.9613 1.5539 1.4357 0
M  V30 25 H -4.4031 0.5626 1.8339 0
M  V30 26 H -4.2664 -1.7964 -0.599 0
M  V30 27 H -4.4524 -0.2178 -1.4664 0
M  V30 28 H -5.3021 -0.4996 0.0932 0
M  V30 END ATOM
M  V30 BEGIN BOND
M  V30 1 2 1 2
M  V30 2 1 2 3
M  V30 3 1 2 4
M  V30 4 1 3 5
M  V30 5 1 3 6
M  V30 6 1 4 7
M  V30 7 1 7 8
M  V30 8 2 8 9
M  V30 9 1 8 10
M  V30 10 1 10 11
M  V30 11 1 10 12
M  V30 12 1 4 13
M  V30 13 1 4 14
M  V30 14 1 5 15
M  V30 15 1 5 16
M  V30 16 1 5 17
M  V30 17 1 6 18
M  V30 18 1 6 19
M  V30 19 1 6 20
M  V30 20 1 7 21
M  V30 21 1 7 22
M  V30 22 1 11 23
M  V30 23 1 11 24
M  V30 24 1 11 25
M  V30 25 1 12 26
M  V30 26 1 12 27
M  V30 27 1 12 28
M  V30 END BOND
M  V30 END CTAB
M  END
>  <Structure No>
4725

>  <LogS>
0.5035

>  <MMFF94 Energy>
-36.647

$$$$
Compound 4726
Actelion Java MolfileCreator 2.0

  0  0  0  0  0  0              0 V3000
M  V30 BEGIN CTAB
M  V30 COUNTS 22 22 0 0 0
M  V30 BEGIN ATOM
M  V30 1 O -1.3507 2.2255 -0.3176 0
M  V30 2 C -0.7598 1.1763 0.0568 0
M  V30 3 N -1.4802 -0.0652 0.1831 0
M  V30 4 C 0.6967 1.2411 0.4145 0
M  V30 5 C -0.8178 -1.2191 0.8014 0
M  V30 6 C -2.9257 -0.115 -0.0642 0
M  V30 7 N 1.3531 -0.0501 0.1713 0
M  V30 8 C 0.6252 -1.2722 0.3984 0
M  V30 9 O -3.6241 0.2362 1.0981 0
M  V30 10 C 2.7707 -0.0959 -0.2007 0
M  V30 11 O 1.1987 -2.39 0.2894 0
M  V30 12 O 3.5126 -0.6619 0.8435 0
M  V30 13 H 0.7888 1.4983 1.4907 0
M  V30 14 H 1.1814 2.044 -0.1824 0
M  V30 15 H -1.3194 -2.1635 0.4973 0
M  V30 16 H -0.8794 -1.1272 1.9065 0
M  V30 17 H -3.2269 -1.1408 -0.3642 0
M  V30 18 H -3.2054 0.5562 -0.9074 0
M  V30 19 H -3.5116 1.216 1.2088 0
M  V30 20 H 2.8876 -0.7035 -1.1256 0
M  V30 21 H 3.1574 0.926 -0.4118 0
M  V30 22 H 4.4519 -0.699 0.5256 0
M  V30 END ATOM
M  V30 BEGIN BOND
M  V30 1 2 1 2
M  V30 2 1 2 3
M  V30 3 1 2 4
M  V30 4 1 3 5
M  V30 5 1 3 6
M  V30 6 1 4 7
M  V30 7 1 5 8
M  V30 8 1 6 9
M  V30 9 1 7 10
M  V30 10 2 8 11
M  V30 11 1 10 12
M  V30 12 1 7 8
M  V30 13 1 4 13
M  V30 14 1 4 14
M  V30 15 1 5 15
M  V30 16 1 5 16
M  V30 17 1 6 17
M  V30 18 1 6 18
M  V30 19 1 9 19
M  V30 20 1 10 20
M  V30 21 1 10 21
M  V30 22 1 12 22
M  V30 END BOND
M  V30 END CTAB
M  END
>  <Structure No>
4726

>  <LogS>
-0.4168

>  <MMFF94 Energy>
-24.532

$$$$
Compound 4727
Actelion Java MolfileCreator 2.0

  0  0  0  0  0  0              0 V3000
M  V30 BEGIN CTAB
M  V30 COUNTS 21 21 0 0 0
M  V30 BEGIN ATOM
M  V30 1 O 4.188 0.0788 0.0 0
M  V30 2 C 2.9281 0.1192 -0.0036 0
M  V30 3 N 2.2881 1.3166 -0.0275 0
M  V30 4 N 2.2127 -1.0347 0.0165 0
M  V30 5 C 0.9299 1.3888 -0.032 0
M  V30 6 C 0.8526 -1.0201 0.0131 0
M  V30 7 O 0.3763 2.5219 -0.0546 0
M  V30 8 C 0.1551 0.2088 -0.0116 0 CHG=-1
M  V30 9 O 0.2295 -2.1153 0.0323 0
M  V30 10 C -1.3725 0.2772 -0.0163 0
M  V30 11 C -1.9661 -0.3717 -1.2734 0
M  V30 12 C -1.972 -0.324 1.2615 0
M  V30 13 H 2.8503 2.1986 -0.0428 0
M  V30 14 H 2.7174 -1.9507 0.0349 0
M  V30 15 H -1.7013 1.3387 -0.037 0
M  V30 16 H -3.0589 -0.1758 -1.3194 0
M  V30 17 H -1.8122 -1.4702 -1.2791 0
M  V30 18 H -1.4984 0.0625 -2.1828 0
M  V30 19 H -1.8182 -1.4215 1.3092 0
M  V30 20 H -3.0649 -0.1266 1.2951 0
M  V30 21 H -1.5084 0.1441 2.1562 0
M  V30 END ATOM
M  V30 BEGIN BOND
M  V30 1 2 1 2
M  V30 2 1 2 3
M  V30 3 1 2 4
M  V30 4 1 3 5
M  V30 5 1 4 6
M  V30 6 2 5 7
M  V30 7 1 5 8
M  V30 8 2 6 9
M  V30 9 1 8 10
M  V30 10 1 10 11
M  V30 11 1 10 12
M  V30 12 1 6 8
M  V30 13 1 3 13
M  V30 14 1 4 14
M  V30 15 1 10 15
M  V30 16 1 11 16
M  V30 17 1 11 17
M  V30 18 1 11 18
M  V30 19 1 12 19
M  V30 20 1 12 20
M  V30 21 1 12 21
M  V30 END BOND
M  V30 END CTAB
M  END
>  <Structure No>
4727

>  <LogS>
-1.4556

>  <MMFF94 Energy>
-176.89

$$$$
Compound 4728
Actelion Java MolfileCreator 2.0

  0  0  0  0  0  0              0 V3000
M  V30 BEGIN CTAB
M  V30 COUNTS 13 12 0 0 0
M  V30 BEGIN ATOM
M  V30 1 O -0.9366 2.4992 0.3901 0
M  V30 2 N -0.0977 1.5772 0.32 0
M  V30 3 N -0.4786 0.2546 0.0278 0
M  V30 4 C 0.5446 -0.7417 -0.1473 0
M  V30 5 C -1.883 -0.0695 -0.2406 0
M  V30 6 O 0.2436 -1.8995 -0.547 0
M  V30 7 C 1.981 -0.4171 0.1243 0
M  V30 8 H -2.0984 0.0764 -1.3196 0
M  V30 9 H -2.5554 0.58 0.3581 0
M  V30 10 H -2.1049 -1.121 0.0401 0
M  V30 11 H 2.613 -1.3252 0.0242 0
M  V30 12 H 2.3335 0.3464 -0.6 0
M  V30 13 H 2.0869 -0.0222 1.1563 0
M  V30 END ATOM
M  V30 BEGIN BOND
M  V30 1 2 1 2
M  V30 2 1 2 3
M  V30 3 1 3 4
M  V30 4 1 3 5
M  V30 5 2 4 6
M  V30 6 1 4 7
M  V30 7 1 5 8
M  V30 8 1 5 9
M  V30 9 1 5 10
M  V30 10 1 7 11
M  V30 11 1 7 12
M  V30 12 1 7 13
M  V30 END BOND
M  V30 END CTAB
M  END
>  <Structure No>
4728

>  <LogS>
-0.7684

>  <MMFF94 Energy>
-6.2848

$$$$
Compound 4729
Actelion Java MolfileCreator 2.0

  0  0  0  0  0  0              0 V3000
M  V30 BEGIN CTAB
M  V30 COUNTS 27 31 0 0 0
M  V30 BEGIN ATOM
M  V30 1 Cl -1.4658 2.9331 1.1908 0
M  V30 2 C -1.8227 1.4075 0.2998 0
M  V30 3 Cl -3.4962 1.5709 -0.3488 0
M  V30 4 C -0.7919 0.9978 -0.7586 0 CFG=2
M  V30 5 C -1.5859 0.1544 1.1339 0 CFG=1
M  V30 6 Cl -0.6522 2.1322 -2.1343 0
M  V30 7 C -1.2377 -0.4716 -1.1439 0 CFG=1
M  V30 8 C 0.4982 0.9111 0.097 0 CFG=1
M  V30 9 Cl -2.4609 0.0599 2.6892 0
M  V30 10 C -1.9264 -0.9471 0.1426 0 CFG=1
M  V30 11 C -0.0308 0.0401 1.2511 0 CFG=2
M  V30 12 Cl -2.151 -0.8081 -2.6457 0
M  V30 13 C -0.7131 -1.6813 -0.305 0 CFG=2
M  V30 14 C 1.6674 0.1547 -0.5784 0 CFG=1
M  V30 15 Cl -3.5081 -1.7885 0.0545 0
M  V30 16 C 0.3418 -1.3558 0.7577 0 CFG=1
M  V30 17 C 2.9742 0.8971 -0.4533 0
M  V30 18 C 1.7087 -1.2111 0.11 0
M  V30 19 O 3.1197 1.9744 -1.009 0
M  V30 20 H 0.8275 1.9102 0.4594 0
M  V30 21 H 0.3971 0.3074 2.2419 0
M  V30 22 H -0.9063 -2.7172 -0.6546 0
M  V30 23 H 1.4623 0.0086 -1.6626 0
M  V30 24 H 0.3345 -2.1081 1.5762 0
M  V30 25 H 3.8023 0.4827 0.1129 0
M  V30 26 H 1.9112 -2.0293 -0.6156 0
M  V30 27 H 2.479 -1.2463 0.9123 0
M  V30 END ATOM
M  V30 BEGIN BOND
M  V30 1 1 1 2
M  V30 2 1 2 3
M  V30 3 1 2 4
M  V30 4 1 2 5
M  V30 5 1 4 6
M  V30 6 1 4 7
M  V30 7 1 4 8
M  V30 8 1 5 9
M  V30 9 1 5 10
M  V30 10 1 5 11
M  V30 11 1 7 12
M  V30 12 1 7 13
M  V30 13 1 8 14
M  V30 14 1 10 15
M  V30 15 1 11 16
M  V30 16 1 14 17
M  V30 17 1 14 18
M  V30 18 2 17 19
M  V30 19 1 7 10
M  V30 20 1 8 11
M  V30 21 1 10 13
M  V30 22 1 13 16
M  V30 23 1 16 18
M  V30 24 1 8 20
M  V30 25 1 11 21
M  V30 26 1 13 22
M  V30 27 1 14 23
M  V30 28 1 16 24
M  V30 29 1 17 25
M  V30 30 1 18 26
M  V30 31 1 18 27
M  V30 END BOND
M  V30 BEGIN COLLECTION
M  V30 MDLV30/STEABS ATOMS=(9 4 5 7 8 10 11 13 14 16)
M  V30 END COLLECTION
M  V30 END CTAB
M  END
>  <Structure No>
4729

>  <LogS>
-7.2006

>  <MMFF94 Energy>
103.67

$$$$
Compound 4730
Actelion Java MolfileCreator 2.0

  0  0  0  0  0  0              0 V3000
M  V30 BEGIN CTAB
M  V30 COUNTS 3 2 0 0 0
M  V30 BEGIN ATOM
M  V30 1 S 0 0 0 0
M  V30 2 O 0 0 0 0
M  V30 3 O 0 0 0 0
M  V30 END ATOM
M  V30 BEGIN BOND
M  V30 1 2 1 2
M  V30 2 2 1 3
M  V30 END BOND
M  V30 END CTAB
M  END
>  <Structure No>
4730

>  <LogS>
0.2235

>  <MMFF94 Energy>
4.6415e-15

$$$$
Compound 4731
Actelion Java MolfileCreator 2.0

  0  0  0  0  0  0              0 V3000
M  V30 BEGIN CTAB
M  V30 COUNTS 26 26 0 0 0
M  V30 BEGIN ATOM
M  V30 1 O -1.1387 2.197 -1.7085 0
M  V30 2 N -0.0459 2.2936 -1.1133 0 CHG=1
M  V30 3 O 0.5261 3.5392 -0.9891 0 CHG=-1
M  V30 4 C 0.6569 1.1222 -0.6492 0
M  V30 5 C -0.0171 -0.0947 -0.3837 0
M  V30 6 C 2.0429 1.1975 -0.4356 0
M  V30 7 N -1.4423 -0.1618 -0.4925 0
M  V30 8 C 0.7074 -1.2231 0.066 0
M  V30 9 C 2.769 0.0895 0.0256 0
M  V30 10 C -2.2843 0.0822 0.6762 0
M  V30 11 N 0.0517 -2.4818 0.3201 0 CHG=1
M  V30 12 C 2.0924 -1.1126 0.2716 0
M  V30 13 N 4.1907 0.1807 0.2387 0 CHG=1
M  V30 14 C -3.7612 -0.0249 0.3144 0
M  V30 15 O 0.5716 -3.3201 1.0855 0
M  V30 16 O -1.0962 -2.8294 -0.3539 0 CHG=-1
M  V30 17 O 4.8012 1.2478 0.0198 0
M  V30 18 O 4.9021 -0.9072 0.6905 0 CHG=-1
M  V30 19 H 2.5615 2.1256 -0.6374 0
M  V30 20 H -1.8641 -0.361 -1.4284 0
M  V30 21 H -2.0475 -0.6623 1.4663 0
M  V30 22 H -2.0789 1.0996 1.0737 0
M  V30 23 H 2.6479 -1.9756 0.6148 0
M  V30 24 H -4.0193 0.7266 -0.4616 0
M  V30 25 H -3.9868 -1.0423 -0.0698 0
M  V30 26 H -4.3813 0.1634 1.2161 0
M  V30 END ATOM
M  V30 BEGIN BOND
M  V30 1 2 1 2
M  V30 2 1 2 3
M  V30 3 1 2 4
M  V30 4 2 4 5
M  V30 5 1 4 6
M  V30 6 1 5 7
M  V30 7 1 5 8
M  V30 8 2 6 9
M  V30 9 1 7 10
M  V30 10 1 8 11
M  V30 11 2 8 12
M  V30 12 1 9 13
M  V30 13 1 10 14
M  V30 14 2 11 15
M  V30 15 1 11 16
M  V30 16 2 13 17
M  V30 17 1 13 18
M  V30 18 1 9 12
M  V30 19 1 6 19
M  V30 20 1 7 20
M  V30 21 1 10 21
M  V30 22 1 10 22
M  V30 23 1 12 23
M  V30 24 1 14 24
M  V30 25 1 14 25
M  V30 26 1 14 26
M  V30 END BOND
M  V30 END CTAB
M  END
>  <Structure No>
4731

>  <LogS>
-3.4085

>  <MMFF94 Energy>
119.41

$$$$
Compound 4732
Actelion Java MolfileCreator 2.0

  0  0  0  0  0  0              0 V3000
M  V30 BEGIN CTAB
M  V30 COUNTS 17 18 0 0 0
M  V30 BEGIN ATOM
M  V30 1 S -1.3967 -1.7256 0.4106 0
M  V30 2 C -2.2003 -0.3035 -0.0317 0
M  V30 3 C 0.1052 -0.9887 0.2622 0
M  V30 4 N -1.3553 0.7225 -0.2909 0
M  V30 5 N -3.6167 -0.1832 -0.1259 0
M  V30 6 C -0.0647 0.3334 -0.1246 0
M  V30 7 C 1.365 -1.5416 0.4742 0
M  V30 8 C 1.0497 1.1618 -0.3156 0
M  V30 9 C 2.4879 -0.7217 0.2861 0
M  V30 10 O 0.9123 2.4934 -0.7039 0
M  V30 11 C 2.3316 0.6221 -0.1065 0
M  V30 12 H -4.0506 0.7244 -0.4049 0
M  V30 13 H -4.2305 -1.0012 0.0831 0
M  V30 14 H 1.4764 -2.5749 0.7759 0
M  V30 15 H 3.48 -1.1244 0.4437 0
M  V30 16 H 0.0037 2.9124 -0.8626 0
M  V30 17 H 3.2071 1.2429 -0.2479 0
M  V30 END ATOM
M  V30 BEGIN BOND
M  V30 1 1 1 2
M  V30 2 1 1 3
M  V30 3 2 2 4
M  V30 4 1 2 5
M  V30 5 2 3 6
M  V30 6 1 3 7
M  V30 7 1 6 8
M  V30 8 2 7 9
M  V30 9 1 8 10
M  V30 10 2 8 11
M  V30 11 1 4 6
M  V30 12 1 9 11
M  V30 13 1 5 12
M  V30 14 1 5 13
M  V30 15 1 7 14
M  V30 16 1 9 15
M  V30 17 1 10 16
M  V30 18 1 11 17
M  V30 END BOND
M  V30 END CTAB
M  END
>  <Structure No>
4732

>  <LogS>
-1.9196

>  <MMFF94 Energy>
-10.143

$$$$
Compound 4733
Actelion Java MolfileCreator 2.0

  0  0  0  0  0  0              0 V3000
M  V30 BEGIN CTAB
M  V30 COUNTS 17 17 0 0 0
M  V30 BEGIN ATOM
M  V30 1 O -1.2202 -1.0575 -1.953 0
M  V30 2 C -0.2782 -0.626 -1.2363 0
M  V30 3 O 1.0416 -0.714 -1.6155 0
M  V30 4 C -0.4617 0.0425 0.0803 0 CFG=2
M  V30 5 C 1.8948 -0.1104 -0.6616 0
M  V30 6 C -1.1433 1.3836 -0.0979 0
M  V30 7 C 1.0042 0.2283 0.5486 0
M  V30 8 C -1.2507 -0.8705 1.0369 0
M  V30 9 O -0.8446 2.1255 -1.0724 0
M  V30 10 O -2.0511 1.847 0.848 0 CHG=-1
M  V30 11 H 2.7101 -0.8108 -0.3815 0
M  V30 12 H 2.328 0.8173 -1.0929 0
M  V30 13 H 1.2089 1.2624 0.9056 0
M  V30 14 H 1.2534 -0.4674 1.3806 0
M  V30 15 H -0.7742 -1.8728 1.1064 0
M  V30 16 H -1.2809 -0.4288 2.0561 0
M  V30 17 H -2.2937 -1.0037 0.6762 0
M  V30 END ATOM
M  V30 BEGIN BOND
M  V30 1 2 1 2
M  V30 2 1 2 3
M  V30 3 1 2 4
M  V30 4 1 3 5
M  V30 5 1 4 6
M  V30 6 1 4 7
M  V30 7 1 4 8
M  V30 8 2 6 9
M  V30 9 1 6 10
M  V30 10 1 5 7
M  V30 11 1 5 11
M  V30 12 1 5 12
M  V30 13 1 7 13
M  V30 14 1 7 14
M  V30 15 1 8 15
M  V30 16 1 8 16
M  V30 17 1 8 17
M  V30 END BOND
M  V30 BEGIN COLLECTION
M  V30 MDLV30/STEABS ATOMS=(1 4)
M  V30 END COLLECTION
M  V30 END CTAB
M  END
>  <Structure No>
4733

>  <LogS>
0.8412

>  <MMFF94 Energy>
-21.294

$$$$
Compound 4734
Actelion Java MolfileCreator 2.0

  0  0  0  0  0  0              0 V3000
M  V30 BEGIN CTAB
M  V30 COUNTS 28 30 0 0 0
M  V30 BEGIN ATOM
M  V30 1 O 0.2505 2.4243 0.167 0
M  V30 2 C 0.4252 1.1768 0.1162 0
M  V30 3 C -0.7374 0.2458 -0.046 0
M  V30 4 C 1.8096 0.6507 0.1585 0
M  V30 5 C -2.0955 0.6718 0.0902 0
M  V30 6 C -0.468 -1.1005 -0.3914 0
M  V30 7 C 2.0561 -0.705 -0.1301 0
M  V30 8 C 2.8898 1.4992 0.4678 0
M  V30 9 C -3.1525 -0.2411 -0.1808 0
M  V30 10 C -2.4181 2.0525 0.5053 0
M  V30 11 C 0.9281 -1.5981 -0.465 0
M  V30 12 C -1.5265 -1.9752 -0.6669 0
M  V30 13 C 3.376 -1.1922 -0.1041 0
M  V30 14 C 4.1947 1.0031 0.4928 0
M  V30 15 C -4.59 0.1084 -0.0269 0
M  V30 16 C -2.844 -1.5472 -0.5789 0
M  V30 17 O -2.0718 2.4697 1.642 0
M  V30 18 O -3.1244 2.8902 -0.3491 0 CHG=-1
M  V30 19 O 1.1554 -2.7924 -0.8045 0
M  V30 20 C 4.4375 -0.3402 0.2073 0
M  V30 21 O -4.9625 0.9908 0.7908 0
M  V30 22 O -5.5549 -0.5757 -0.7575 0 CHG=-1
M  V30 23 H 2.7262 2.5457 0.6935 0
M  V30 24 H -1.3371 -3.004 -0.9473 0
M  V30 25 H 3.5882 -2.2311 -0.3229 0
M  V30 26 H 5.0193 1.6617 0.7335 0
M  V30 27 H -3.6314 -2.2615 -0.7871 0
M  V30 28 H 5.45 -0.7221 0.2265 0
M  V30 END ATOM
M  V30 BEGIN BOND
M  V30 1 2 1 2
M  V30 2 1 2 3
M  V30 3 1 2 4
M  V30 4 2 3 5
M  V30 5 1 3 6
M  V30 6 2 4 7
M  V30 7 1 4 8
M  V30 8 1 5 9
M  V30 9 1 5 10
M  V30 10 1 6 11
M  V30 11 2 6 12
M  V30 12 1 7 13
M  V30 13 2 8 14
M  V30 14 1 9 15
M  V30 15 2 9 16
M  V30 16 2 10 17
M  V30 17 1 10 18
M  V30 18 2 11 19
M  V30 19 2 13 20
M  V30 20 2 15 21
M  V30 21 1 15 22
M  V30 22 1 7 11
M  V30 23 1 12 16
M  V30 24 1 14 20
M  V30 25 1 8 23
M  V30 26 1 12 24
M  V30 27 1 13 25
M  V30 28 1 14 26
M  V30 29 1 16 27
M  V30 30 1 20 28
M  V30 END BOND
M  V30 END CTAB
M  END
>  <Structure No>
4734

>  <LogS>
-2.8141

>  <MMFF94 Energy>
152.48

$$$$
Compound 4735
Actelion Java MolfileCreator 2.0

  0  0  0  0  0  0              0 V3000
M  V30 BEGIN CTAB
M  V30 COUNTS 28 29 0 0 0
M  V30 BEGIN ATOM
M  V30 1 O 0.0794 0.4768 -1.7493 0
M  V30 2 C 1.0982 0.443 -1.0081 0
M  V30 3 N 2.3156 0.695 -1.5564 0
M  V30 4 N 0.9884 0.151 0.3311 0
M  V30 5 C 3.45 0.6574 -0.8136 0
M  V30 6 C 2.1205 0.0888 1.0974 0
M  V30 7 C -0.3136 -0.1491 0.9618 0 CFG=1
M  V30 8 N 4.7107 0.9291 -1.426 0
M  V30 9 C 3.3719 0.3463 0.5419 0
M  V30 10 O -1.3006 0.7626 0.539 0
M  V30 11 C -0.7796 -1.5522 0.6228 0
M  V30 12 C -2.5314 0.0683 0.5252 0 CFG=2
M  V30 13 C -2.2725 -1.4306 0.703 0
M  V30 14 C -3.2709 0.3632 -0.7868 0
M  V30 15 O -3.4674 1.743 -0.9402 0
M  V30 16 H 2.064 -0.1618 2.1503 0
M  V30 17 H -0.2361 -0.0602 2.0713 0
M  V30 18 H 4.7623 1.1593 -2.4432 0
M  V30 19 H 5.5947 0.9026 -0.8703 0
M  V30 20 H 4.2623 0.301 1.1564 0
M  V30 21 H -0.4822 -1.8353 -0.4107 0
M  V30 22 H -0.3853 -2.3005 1.3444 0
M  V30 23 H -3.1554 0.4337 1.3714 0
M  V30 24 H -2.7661 -2.0615 -0.0693 0
M  V30 25 H -2.622 -1.757 1.7078 0
M  V30 26 H -4.2508 -0.167 -0.8031 0
M  V30 27 H -2.6699 -0.0057 -1.6452 0
M  V30 28 H -4.205 1.995 -0.3249 0
M  V30 END ATOM
M  V30 BEGIN BOND
M  V30 1 2 1 2
M  V30 2 1 2 3
M  V30 3 1 2 4
M  V30 4 2 3 5
M  V30 5 1 4 6
M  V30 6 1 4 7
M  V30 7 1 5 8
M  V30 8 1 5 9
M  V30 9 1 7 10
M  V30 10 1 7 11
M  V30 11 1 10 12
M  V30 12 1 11 13
M  V30 13 1 12 14
M  V30 14 1 14 15
M  V30 15 2 6 9
M  V30 16 1 12 13
M  V30 17 1 6 16
M  V30 18 1 7 17
M  V30 19 1 8 18
M  V30 20 1 8 19
M  V30 21 1 9 20
M  V30 22 1 11 21
M  V30 23 1 11 22
M  V30 24 1 12 23
M  V30 25 1 13 24
M  V30 26 1 13 25
M  V30 27 1 14 26
M  V30 28 1 14 27
M  V30 29 1 15 28
M  V30 END BOND
M  V30 BEGIN COLLECTION
M  V30 MDLV30/STEABS ATOMS=(2 7 12)
M  V30 END COLLECTION
M  V30 END CTAB
M  END
>  <Structure No>
4735

>  <LogS>
-0.4416

>  <MMFF94 Energy>
-71.299

$$$$
Compound 4736
Actelion Java MolfileCreator 2.0

  0  0  0  0  0  0              0 V3000
M  V30 BEGIN CTAB
M  V30 COUNTS 28 28 0 0 0
M  V30 BEGIN ATOM
M  V30 1 O 0.7098 -0.9464 1.1043 0
M  V30 2 C 1.4573 -0.1241 0.2138 0 CFG=2
M  V30 3 C -0.398 -1.5785 0.4902 0
M  V30 4 O 2.4101 0.5486 1.0402 0
M  V30 5 C 0.4903 0.8643 -0.5107 0
M  V30 6 C 2.2167 -1.0129 -0.8046 0
M  V30 7 C -1.3311 -0.5603 -0.1954 0 CFG=2
M  V30 8 C 3.0057 1.6964 0.4628 0
M  V30 9 O -0.5828 0.1903 -1.1387 0
M  V30 10 O -1.8993 0.269 0.8185 0
M  V30 11 C -2.4223 -1.3509 -0.9486 0
M  V30 12 C -2.7755 1.2513 0.2983 0
M  V30 13 H -0.0555 -2.3659 -0.2145 0
M  V30 14 H -0.9693 -2.1081 1.2828 0
M  V30 15 H 0.1074 1.6235 0.2069 0
M  V30 16 H 1.0357 1.4199 -1.3022 0
M  V30 17 H 2.7796 -1.8049 -0.2667 0
M  V30 18 H 1.5239 -1.4941 -1.5249 0
M  V30 19 H 2.936 -0.4304 -1.4119 0
M  V30 20 H 3.3178 1.5499 -0.5902 0
M  V30 21 H 2.3242 2.5693 0.5447 0
M  V30 22 H 3.9199 1.9422 1.0408 0
M  V30 23 H -3.0359 -0.6761 -1.5816 0
M  V30 24 H -1.9643 -2.1033 -1.6262 0
M  V30 25 H -3.0877 -1.874 -0.2288 0
M  V30 26 H -2.8998 2.0475 1.0605 0
M  V30 27 H -3.779 0.8136 0.1131 0
M  V30 28 H -2.3909 1.738 -0.6241 0
M  V30 END ATOM
M  V30 BEGIN BOND
M  V30 1 1 1 2
M  V30 2 1 1 3
M  V30 3 1 2 4
M  V30 4 1 2 5
M  V30 5 1 2 6
M  V30 6 1 3 7
M  V30 7 1 4 8
M  V30 8 1 5 9
M  V30 9 1 7 10
M  V30 10 1 7 11
M  V30 11 1 10 12
M  V30 12 1 7 9
M  V30 13 1 3 13
M  V30 14 1 3 14
M  V30 15 1 5 15
M  V30 16 1 5 16
M  V30 17 1 6 17
M  V30 18 1 6 18
M  V30 19 1 6 19
M  V30 20 1 8 20
M  V30 21 1 8 21
M  V30 22 1 8 22
M  V30 23 1 11 23
M  V30 24 1 11 24
M  V30 25 1 11 25
M  V30 26 1 12 26
M  V30 27 1 12 27
M  V30 28 1 12 28
M  V30 END BOND
M  V30 BEGIN COLLECTION
M  V30 MDLV30/STEABS ATOMS=(2 2 7)
M  V30 END COLLECTION
M  V30 END CTAB
M  END
>  <Structure No>
4736

>  <LogS>
-1.246

>  <MMFF94 Energy>
81.262

$$$$
Compound 4737
Actelion Java MolfileCreator 2.0

  0  0  0  0  0  0              0 V3000
M  V30 BEGIN CTAB
M  V30 COUNTS 29 29 0 0 0
M  V30 BEGIN ATOM
M  V30 1 O -5.5683 0.9528 1.5885 0
M  V30 2 C -4.9414 1.5134 0.6517 0
M  V30 3 O -5.6253 1.9257 -0.4847 0 CHG=-1
M  V30 4 C -3.4618 1.681 0.7348 0
M  V30 5 O -2.8292 0.5079 0.2324 0
M  V30 6 C -1.4396 0.3226 0.1563 0
M  V30 7 C -0.9564 -0.8875 -0.3616 0
M  V30 8 C -0.5302 1.3063 0.5842 0
M  V30 9 O -1.8881 -1.8531 -0.7754 0
M  V30 10 C 0.433 -1.1016 -0.4519 0
M  V30 11 C 0.8454 1.0886 0.4914 0
M  V30 12 C -1.5472 -3.1241 -1.3192 0
M  V30 13 C 1.3426 -0.1148 -0.0399 0
M  V30 14 C 2.7955 -0.3979 -0.1493 0
M  V30 15 C 3.7425 0.5476 -0.158 0
M  V30 16 C 5.1863 0.1813 -0.2861 0
M  V30 17 H -3.1666 1.8463 1.7938 0
M  V30 18 H -3.1592 2.562 0.1288 0
M  V30 19 H -0.8767 2.2435 0.998 0
M  V30 20 H 0.8138 -2.0325 -0.8506 0
M  V30 21 H 1.509 1.8582 0.8596 0
M  V30 22 H -2.4784 -3.6779 -1.5568 0
M  V30 23 H -0.9634 -3.7118 -0.5797 0
M  V30 24 H -0.9624 -2.995 -2.2543 0
M  V30 25 H 3.1007 -1.4318 -0.269 0
M  V30 26 H 3.4905 1.5973 -0.0994 0
M  V30 27 H 5.8086 1.1008 -0.2868 0
M  V30 28 H 5.4923 -0.4576 0.5689 0
M  V30 29 H 5.3562 -0.3666 -1.2369 0
M  V30 END ATOM
M  V30 BEGIN BOND
M  V30 1 2 1 2
M  V30 2 1 2 3
M  V30 3 1 2 4
M  V30 4 1 4 5
M  V30 5 1 5 6
M  V30 6 2 6 7
M  V30 7 1 6 8
M  V30 8 1 7 9
M  V30 9 1 7 10
M  V30 10 2 8 11
M  V30 11 1 9 12
M  V30 12 2 10 13
M  V30 13 1 13 14
M  V30 14 2 14 15
M  V30 15 1 15 16
M  V30 16 1 11 13
M  V30 17 1 4 17
M  V30 18 1 4 18
M  V30 19 1 8 19
M  V30 20 1 10 20
M  V30 21 1 11 21
M  V30 22 1 12 22
M  V30 23 1 12 23
M  V30 24 1 12 24
M  V30 25 1 14 25
M  V30 26 1 15 26
M  V30 27 1 16 27
M  V30 28 1 16 28
M  V30 29 1 16 29
M  V30 END BOND
M  V30 END CTAB
M  END
>  <Structure No>
4737

>  <LogS>
-1.5826

>  <MMFF94 Energy>
87.274

$$$$
Compound 4738
Actelion Java MolfileCreator 2.0

  0  0  0  0  0  0              0 V3000
M  V30 BEGIN CTAB
M  V30 COUNTS 40 40 0 0 0
M  V30 BEGIN ATOM
M  V30 1 O 0.5503 4.4095 -1.2583 0
M  V30 2 C 0.293 3.4374 -0.499 0
M  V30 3 N -1.0436 2.8991 -0.4875 0
M  V30 4 C 1.4119 2.8475 0.3195 0
M  V30 5 C -1.5289 1.8465 0.4102 0
M  V30 6 C 1.8973 1.5273 -0.2977 0
M  V30 7 C -1.9823 0.6229 -0.3934 0
M  V30 8 C 2.5434 0.6134 0.7542 0
M  V30 9 C -2.5221 -0.4783 0.5348 0
M  V30 10 C 3.0424 -0.726 0.1747 0
M  V30 11 C -2.7298 -1.8189 -0.199 0
M  V30 12 C 1.9967 -1.5373 -0.6177 0
M  V30 13 C -1.6254 -2.8631 0.0704 0
M  V30 14 C 0.7272 -1.855 0.1891 0
M  V30 15 C -0.3033 -2.5953 -0.677 0
M  V30 16 H -1.7371 3.3162 -1.1493 0
M  V30 17 H 1.0757 2.7159 1.3688 0
M  V30 18 H 2.2647 3.5603 0.3577 0
M  V30 19 H -2.3878 2.2453 0.992 0
M  V30 20 H -0.753 1.5346 1.135 0
M  V30 21 H 2.628 1.7447 -1.1072 0
M  V30 22 H 1.0375 1.0027 -0.7546 0
M  V30 23 H -1.1306 0.2396 -0.9897 0
M  V30 24 H -2.7827 0.924 -1.1041 0
M  V30 25 H 3.412 1.1429 1.2032 0
M  V30 26 H 1.8247 0.416 1.5783 0
M  V30 27 H -1.8588 -0.6164 1.4155 0
M  V30 28 H -3.5022 -0.1344 0.9335 0
M  V30 29 H 3.9057 -0.5226 -0.4952 0
M  V30 30 H 3.4206 -1.3514 1.0123 0
M  V30 31 H -3.6857 -2.2566 0.1642 0
M  V30 32 H -2.8591 -1.6658 -1.2932 0
M  V30 33 H 1.7336 -0.9971 -1.552 0
M  V30 34 H 2.4687 -2.495 -0.9279 0
M  V30 35 H -1.4535 -2.9737 1.1637 0
M  V30 36 H -2.0149 -3.8438 -0.2809 0
M  V30 37 H 0.9975 -2.4832 1.0658 0
M  V30 38 H 0.2771 -0.9184 0.5626 0
M  V30 39 H -0.4976 -2.0324 -1.6157 0
M  V30 40 H 0.1379 -3.573 -0.9717 0
M  V30 END ATOM
M  V30 BEGIN BOND
M  V30 1 2 1 2
M  V30 2 1 2 3
M  V30 3 1 2 4
M  V30 4 1 3 5
M  V30 5 1 4 6
M  V30 6 1 5 7
M  V30 7 1 6 8
M  V30 8 1 7 9
M  V30 9 1 8 10
M  V30 10 1 9 11
M  V30 11 1 10 12
M  V30 12 1 11 13
M  V30 13 1 12 14
M  V30 14 1 13 15
M  V30 15 1 14 15
M  V30 16 1 3 16
M  V30 17 1 4 17
M  V30 18 1 4 18
M  V30 19 1 5 19
M  V30 20 1 5 20
M  V30 21 1 6 21
M  V30 22 1 6 22
M  V30 23 1 7 23
M  V30 24 1 7 24
M  V30 25 1 8 25
M  V30 26 1 8 26
M  V30 27 1 9 27
M  V30 28 1 9 28
M  V30 29 1 10 29
M  V30 30 1 10 30
M  V30 31 1 11 31
M  V30 32 1 11 32
M  V30 33 1 12 33
M  V30 34 1 12 34
M  V30 35 1 13 35
M  V30 36 1 13 36
M  V30 37 1 14 37
M  V30 38 1 14 38
M  V30 39 1 15 39
M  V30 40 1 15 40
M  V30 END BOND
M  V30 END CTAB
M  END
>  <Structure No>
4738

>  <LogS>
-2.626

>  <MMFF94 Energy>
-13.556

$$$$
Compound 4739
Actelion Java MolfileCreator 2.0

  0  0  0  0  0  0              0 V3000
M  V30 BEGIN CTAB
M  V30 COUNTS 16 16 0 0 0
M  V30 BEGIN ATOM
M  V30 1 Cl 3.9561 0.3435 -0.6872 0
M  V30 2 C 2.2332 0.216 -0.3326 0
M  V30 3 C 1.7059 -0.9754 0.1971 0
M  V30 4 C 1.3768 1.3033 -0.5825 0
M  V30 5 Cl 2.7341 -2.3666 0.516 0
M  V30 6 C 0.3382 -1.072 0.4768 0
M  V30 7 Cl 1.9863 2.8103 -1.2551 0
M  V30 8 C 0.0104 1.1978 -0.2997 0
M  V30 9 C -0.5141 0.0168 0.2445 0
M  V30 10 C -1.9867 -0.1044 0.5116 0
M  V30 11 O -2.6267 -0.589 -0.6349 0
M  V30 12 H -0.0606 -1.9968 0.8761 0
M  V30 13 H -0.6433 2.0373 -0.5039 0
M  V30 14 H -2.407 0.889 0.7878 0
M  V30 15 H -2.1634 -0.7975 1.3648 0
M  V30 16 H -3.5908 -0.6502 -0.4069 0
M  V30 END ATOM
M  V30 BEGIN BOND
M  V30 1 1 1 2
M  V30 2 2 2 3
M  V30 3 1 2 4
M  V30 4 1 3 5
M  V30 5 1 3 6
M  V30 6 1 4 7
M  V30 7 2 4 8
M  V30 8 2 6 9
M  V30 9 1 9 10
M  V30 10 1 10 11
M  V30 11 1 8 9
M  V30 12 1 6 12
M  V30 13 1 8 13
M  V30 14 1 10 14
M  V30 15 1 10 15
M  V30 16 1 11 16
M  V30 END BOND
M  V30 END CTAB
M  END
>  <Structure No>
4739

>  <LogS>
-3.0948

>  <MMFF94 Energy>
27.084

$$$$
Compound 4740
Actelion Java MolfileCreator 2.0

  0  0  0  0  0  0              0 V3000
M  V30 BEGIN CTAB
M  V30 COUNTS 17 18 0 0 0
M  V30 BEGIN ATOM
M  V30 1 O -1.2823 2.3252 -0.8814 0
M  V30 2 C -1.0855 1.0315 -0.3973 0
M  V30 3 C 0.2062 0.5216 -0.1679 0
M  V30 4 C -2.2023 0.2281 -0.1361 0
M  V30 5 N 1.3078 1.2804 -0.413 0
M  V30 6 C 0.3639 -0.7923 0.3224 0
M  V30 7 C -2.0416 -1.0733 0.3497 0
M  V30 8 C 2.5576 0.7948 -0.1939 0
M  V30 9 C 1.6611 -1.2679 0.5393 0
M  V30 10 C -0.762 -1.5858 0.5797 0
M  V30 11 N 2.727 -0.4679 0.2778 0
M  V30 12 H -0.5111 2.9488 -1.0871 0
M  V30 13 H -3.1985 0.6144 -0.3103 0
M  V30 14 H -2.9116 -1.6858 0.5483 0
M  V30 15 H 3.4198 1.4153 -0.3955 0
M  V30 16 H 1.8284 -2.2697 0.9148 0
M  V30 17 H -0.6529 -2.5959 0.9563 0
M  V30 END ATOM
M  V30 BEGIN BOND
M  V30 1 1 1 2
M  V30 2 1 2 3
M  V30 3 2 2 4
M  V30 4 2 3 5
M  V30 5 1 3 6
M  V30 6 1 4 7
M  V30 7 1 5 8
M  V30 8 2 6 9
M  V30 9 1 6 10
M  V30 10 2 8 11
M  V30 11 2 7 10
M  V30 12 1 9 11
M  V30 13 1 1 12
M  V30 14 1 4 13
M  V30 15 1 7 14
M  V30 16 1 8 15
M  V30 17 1 9 16
M  V30 18 1 10 17
M  V30 END BOND
M  V30 END CTAB
M  END
>  <Structure No>
4740

>  <LogS>
-2.0361

>  <MMFF94 Energy>
30.098

$$$$
Compound 4741
Actelion Java MolfileCreator 2.0

  0  0  0  0  0  0              0 V3000
M  V30 BEGIN CTAB
M  V30 COUNTS 29 28 0 0 0
M  V30 BEGIN ATOM
M  V30 1 S -0.3256 0.4884 -0.407 0 CFG=1
M  V30 2 S 0.4613 -1.4541 -0.0835 0
M  V30 3 O -0.5804 0.5399 -1.9075 0
M  V30 4 C -1.963 0.4811 0.3661 0
M  V30 5 C 1.9486 -0.8583 0.7891 0
M  V30 6 C -2.9148 -0.5078 -0.3212 0
M  V30 7 C 3.0025 -0.3725 -0.2086 0
M  V30 8 C -4.2592 -0.6347 0.4112 0
M  V30 9 C 4.2701 0.0944 0.5154 0
M  V30 10 C -5.124 0.6188 0.2812 0
M  V30 11 C 5.3236 0.58 -0.4758 0
M  V30 12 H -1.842 0.212 1.4371 0
M  V30 13 H -2.3731 1.5102 0.3031 0
M  V30 14 H 2.3609 -1.7062 1.3766 0
M  V30 15 H 1.6767 -0.0473 1.499 0
M  V30 16 H -2.442 -1.5126 -0.3407 0
M  V30 17 H -3.0906 -0.1964 -1.3738 0
M  V30 18 H 2.5893 0.4698 -0.8044 0
M  V30 19 H 3.2573 -1.2036 -0.9024 0
M  V30 20 H -4.0896 -0.8607 1.4865 0
M  V30 21 H -4.8183 -1.4898 -0.027 0
M  V30 22 H 4.02 0.9258 1.2103 0
M  V30 23 H 4.6944 -0.7449 1.1085 0
M  V30 24 H -5.262 0.8872 -0.7876 0
M  V30 25 H -6.1221 0.4263 0.7284 0
M  V30 26 H -4.6633 1.4721 0.8209 0
M  V30 27 H 4.9333 1.4376 -1.0645 0
M  V30 28 H 5.6095 -0.2405 -1.1677 0
M  V30 29 H 6.2287 0.9109 0.0759 0
M  V30 END ATOM
M  V30 BEGIN BOND
M  V30 1 1 1 2
M  V30 2 2 1 3
M  V30 3 1 1 4
M  V30 4 1 2 5
M  V30 5 1 4 6
M  V30 6 1 5 7
M  V30 7 1 6 8
M  V30 8 1 7 9
M  V30 9 1 8 10
M  V30 10 1 9 11
M  V30 11 1 4 12
M  V30 12 1 4 13
M  V30 13 1 5 14
M  V30 14 1 5 15
M  V30 15 1 6 16
M  V30 16 1 6 17
M  V30 17 1 7 18
M  V30 18 1 7 19
M  V30 19 1 8 20
M  V30 20 1 8 21
M  V30 21 1 9 22
M  V30 22 1 9 23
M  V30 23 1 10 24
M  V30 24 1 10 25
M  V30 25 1 10 26
M  V30 26 1 11 27
M  V30 27 1 11 28
M  V30 28 1 11 29
M  V30 END BOND
M  V30 BEGIN COLLECTION
M  V30 MDLV30/STEABS ATOMS=(1 1)
M  V30 END COLLECTION
M  V30 END CTAB
M  END
>  <Structure No>
4741

>  <LogS>
-2.2886

>  <MMFF94 Energy>
-6.6791

$$$$
Compound 4742
Actelion Java MolfileCreator 2.0

  0  0  0  0  0  0              0 V3000
M  V30 BEGIN CTAB
M  V30 COUNTS 22 22 0 0 0
M  V30 BEGIN ATOM
M  V30 1 O -1.3148 1.4696 1.7792 0
M  V30 2 C -1.0888 0.906 0.5131 0 CFG=1
M  V30 3 C 0.3211 0.3576 0.4356 0
M  V30 4 C -2.1323 -0.1979 0.2637 0
M  V30 5 C 1.1294 0.6377 -0.6802 0
M  V30 6 C 0.8269 -0.4653 1.4585 0
M  V30 7 N -2.0435 -0.7367 -1.0951 0 CHG=1
M  V30 8 C 2.4232 0.1139 -0.7639 0
M  V30 9 C 2.1214 -0.9863 1.3702 0
M  V30 10 C 2.9192 -0.6961 0.2607 0
M  V30 11 H -0.795 2.3154 1.8134 0
M  V30 12 H -1.237 1.6972 -0.2593 0
M  V30 13 H -2.0032 -1.0212 1.0012 0
M  V30 14 H -3.1481 0.2305 0.4164 0
M  V30 15 H 0.7577 1.2576 -1.4867 0
M  V30 16 H 0.2186 -0.7036 2.3223 0
M  V30 17 H -2.1285 0.034 -1.797 0
M  V30 18 H -2.8253 -1.4147 -1.2439 0
M  V30 19 H -1.1371 -1.2405 -1.228 0
M  V30 20 H 3.0407 0.3345 -1.6251 0
M  V30 21 H 2.5053 -1.6171 2.1616 0
M  V30 22 H 3.9207 -1.1012 0.1934 0
M  V30 END ATOM
M  V30 BEGIN BOND
M  V30 1 1 1 2
M  V30 2 1 2 3
M  V30 3 1 2 4
M  V30 4 2 3 5
M  V30 5 1 3 6
M  V30 6 1 4 7
M  V30 7 1 5 8
M  V30 8 2 6 9
M  V30 9 2 8 10
M  V30 10 1 9 10
M  V30 11 1 1 11
M  V30 12 1 2 12
M  V30 13 1 4 13
M  V30 14 1 4 14
M  V30 15 1 5 15
M  V30 16 1 6 16
M  V30 17 1 7 17
M  V30 18 1 7 18
M  V30 19 1 7 19
M  V30 20 1 8 20
M  V30 21 1 9 21
M  V30 22 1 10 22
M  V30 END BOND
M  V30 BEGIN COLLECTION
M  V30 MDLV30/STEABS ATOMS=(1 2)
M  V30 END COLLECTION
M  V30 END CTAB
M  END
>  <Structure No>
4742

>  <LogS>
-0.4764

>  <MMFF94 Energy>
45.216

$$$$
Compound 4743
Actelion Java MolfileCreator 2.0

  0  0  0  0  0  0              0 V3000
M  V30 BEGIN CTAB
M  V30 COUNTS 14 13 0 0 0
M  V30 BEGIN ATOM
M  V30 1 Cl 1.4786 0.0821 2.2185 0
M  V30 2 C 0.6995 -0.3338 0.6616 0 CFG=1
M  V30 3 C -0.7454 0.2163 0.6283 0 CFG=2
M  V30 4 C 1.5688 0.2219 -0.4706 0
M  V30 5 Cl -1.6988 -0.4816 1.9731 0
M  V30 6 C -1.4682 -0.1015 -0.6844 0
M  V30 7 H 0.675 -1.4423 0.5797 0
M  V30 8 H -0.7244 1.3197 0.7643 0
M  V30 9 H 1.2289 -0.1657 -1.4533 0
M  V30 10 H 1.5353 1.3324 -0.4798 0
M  V30 11 H 2.6224 -0.1019 -0.3328 0
M  V30 12 H -2.5343 0.202 -0.6127 0
M  V30 13 H -1.421 -1.1898 -0.9024 0
M  V30 14 H -1.0187 0.4637 -1.5269 0
M  V30 END ATOM
M  V30 BEGIN BOND
M  V30 1 1 1 2
M  V30 2 1 2 3
M  V30 3 1 2 4
M  V30 4 1 3 5
M  V30 5 1 3 6
M  V30 6 1 2 7
M  V30 7 1 3 8
M  V30 8 1 4 9
M  V30 9 1 4 10
M  V30 10 1 4 11
M  V30 11 1 6 12
M  V30 12 1 6 13
M  V30 13 1 6 14
M  V30 END BOND
M  V30 BEGIN COLLECTION
M  V30 MDLV30/STEABS ATOMS=(2 2 3)
M  V30 END COLLECTION
M  V30 END CTAB
M  END
>  <Structure No>
4743

>  <LogS>
-2.3541

>  <MMFF94 Energy>
10.933

$$$$
Compound 4744
Actelion Java MolfileCreator 2.0

  0  0  0  0  0  0              0 V3000
M  V30 BEGIN CTAB
M  V30 COUNTS 24 25 0 0 0
M  V30 BEGIN ATOM
M  V30 1 O 0.7155 1.5907 0.7155 0
M  V30 2 C 0.9984 0.4468 0.2658 0
M  V30 3 N -0.0117 -0.5799 0.2232 0
M  V30 4 C 2.3756 0.1749 -0.1832 0
M  V30 5 O 0.3689 -1.8821 0.1875 0
M  V30 6 C -1.4194 -0.2668 0.2427 0
M  V30 7 O 2.7735 -0.9581 -0.7149 0
M  V30 8 C 3.4344 1.0608 -0.1211 0
M  V30 9 C -1.9193 0.8672 -0.426 0
M  V30 10 C -2.3227 -1.1251 0.8945 0
M  V30 11 C 4.0505 -0.8614 -1.0054 0
M  V30 12 C 4.5143 0.3888 -0.6516 0
M  V30 13 C -3.2892 1.1477 -0.4164 0
M  V30 14 C -3.6917 -0.8398 0.9021 0
M  V30 15 C -4.1742 0.297 0.2497 0
M  V30 16 H 0.4841 -2.1441 1.1371 0
M  V30 17 H 3.4242 2.0727 0.2624 0
M  V30 18 H -1.2551 1.5236 -0.9726 0
M  V30 19 H -1.9679 -2.0093 1.4078 0
M  V30 20 H 4.6363 -1.652 -1.4546 0
M  V30 21 H 5.5214 0.7658 -0.7678 0
M  V30 22 H -3.6655 2.0216 -0.9323 0
M  V30 23 H -4.3789 -1.5014 1.4134 0
M  V30 24 H -5.2343 0.5152 0.255 0
M  V30 END ATOM
M  V30 BEGIN BOND
M  V30 1 2 1 2
M  V30 2 1 2 3
M  V30 3 1 2 4
M  V30 4 1 3 5
M  V30 5 1 3 6
M  V30 6 1 4 7
M  V30 7 2 4 8
M  V30 8 2 6 9
M  V30 9 1 6 10
M  V30 10 1 7 11
M  V30 11 1 8 12
M  V30 12 1 9 13
M  V30 13 2 10 14
M  V30 14 2 13 15
M  V30 15 2 11 12
M  V30 16 1 14 15
M  V30 17 1 5 16
M  V30 18 1 8 17
M  V30 19 1 9 18
M  V30 20 1 10 19
M  V30 21 1 11 20
M  V30 22 1 12 21
M  V30 23 1 13 22
M  V30 24 1 14 23
M  V30 25 1 15 24
M  V30 END BOND
M  V30 END CTAB
M  END
>  <Structure No>
4744

>  <LogS>
-3.194

>  <MMFF94 Energy>
81.237

$$$$
Compound 4745
Actelion Java MolfileCreator 2.0

  0  0  0  0  0  0              0 V3000
M  V30 BEGIN CTAB
M  V30 COUNTS 1 0 0 0 0
M  V30 BEGIN ATOM
M  V30 1 F 0.0 0.0 0.0 0 CHG=-1
M  V30 END ATOM
M  V30 BEGIN BOND
M  V30 END BOND
M  V30 END CTAB
M  END
>  <Structure No>
4745

>  <LogS>
1.6988

>  <MMFF94 Energy>
MMFF94 error code 2

$$$$
Compound 4746
Actelion Java MolfileCreator 2.0

  0  0  0  0  0  0              0 V3000
M  V30 BEGIN CTAB
M  V30 COUNTS 5 4 0 0 0
M  V30 BEGIN ATOM
M  V30 1 S 0.0 0.0 0.0 0
M  V30 2 O -0.0203 -0.9452 -1.1672 0
M  V30 3 O -0.1725 -0.7751 1.2752 0
M  V30 4 O 1.4679 0.8152 0.0347 0 CHG=-1
M  V30 5 O -1.2523 1.1083 -0.1551 0 CHG=-1
M  V30 END ATOM
M  V30 BEGIN BOND
M  V30 1 2 1 2
M  V30 2 2 1 3
M  V30 3 1 1 4
M  V30 4 1 1 5
M  V30 END BOND
M  V30 END CTAB
M  END
>  <Structure No>
4746

>  <LogS>
1.0084

>  <MMFF94 Energy>
27.585

$$$$
Compound 4747
Actelion Java MolfileCreator 2.0

  0  0  0  0  0  0              0 V3000
M  V30 BEGIN CTAB
M  V30 COUNTS 23 23 0 0 0
M  V30 BEGIN ATOM
M  V30 1 O -0.0789 0.6317 -1.7379 0
M  V30 2 C 0.3736 0.0453 -0.716 0
M  V30 3 O -0.4526 -0.8035 0.0316 0
M  V30 4 C 1.7808 0.247 -0.3085 0
M  V30 5 C -1.8337 -1.0122 -0.2564 0
M  V30 6 C 2.6348 1.088 -1.0437 0
M  V30 7 C 2.296 -0.3988 0.8272 0
M  V30 8 C -2.6648 0.1887 0.2035 0
M  V30 9 N 3.9263 1.2635 -0.6552 0
M  V30 10 C 3.6257 -0.2008 1.2036 0
M  V30 11 C -4.152 -0.0393 -0.0493 0
M  V30 12 C 4.4341 0.6429 0.4418 0
M  V30 13 H -2.1694 -1.9189 0.2905 0
M  V30 14 H -1.9745 -1.1945 -1.3446 0
M  V30 15 H 2.2787 1.6054 -1.925 0
M  V30 16 H 1.6743 -1.0546 1.4236 0
M  V30 17 H -2.3429 1.1014 -0.3416 0
M  V30 18 H -2.5016 0.3547 1.2904 0
M  V30 19 H 4.0256 -0.6971 2.0784 0
M  V30 20 H -4.5067 -0.9308 0.5102 0
M  V30 21 H -4.7273 0.8465 0.2928 0
M  V30 22 H -4.3399 -0.1878 -1.1341 0
M  V30 23 H 5.4662 0.8051 0.7223 0
M  V30 END ATOM
M  V30 BEGIN BOND
M  V30 1 2 1 2
M  V30 2 1 2 3
M  V30 3 1 2 4
M  V30 4 1 3 5
M  V30 5 2 4 6
M  V30 6 1 4 7
M  V30 7 1 5 8
M  V30 8 1 6 9
M  V30 9 2 7 10
M  V30 10 1 8 11
M  V30 11 2 9 12
M  V30 12 1 10 12
M  V30 13 1 5 13
M  V30 14 1 5 14
M  V30 15 1 6 15
M  V30 16 1 7 16
M  V30 17 1 8 17
M  V30 18 1 8 18
M  V30 19 1 10 19
M  V30 20 1 11 20
M  V30 21 1 11 21
M  V30 22 1 11 22
M  V30 23 1 12 23
M  V30 END BOND
M  V30 END CTAB
M  END
>  <Structure No>
4747

>  <LogS>
-1.2403

>  <MMFF94 Energy>
23.405

$$$$
Compound 4748
Actelion Java MolfileCreator 2.0

  0  0  0  0  0  0              0 V3000
M  V30 BEGIN CTAB
M  V30 COUNTS 22 22 0 0 0
M  V30 BEGIN ATOM
M  V30 1 O -3.9892 -0.7171 0.6374 0
M  V30 2 N -3.4375 0.3888 0.4683 0 CHG=1
M  V30 3 O -4.1723 1.5363 0.6569 0 CHG=-1
M  V30 4 C -2.0467 0.481 0.1226 0
M  V30 5 N -1.2234 -0.5567 -0.1371 0
M  V30 6 C -1.337 1.6549 0.0073 0
M  V30 7 C -0.021 0.0171 -0.3854 0
M  V30 8 C -1.5546 -1.9827 -0.1475 0
M  V30 9 N -0.0614 1.3677 -0.317 0
M  V30 10 C 1.2249 -0.7435 -0.7475 0
M  V30 11 O 2.3692 0.1093 -0.7526 0
M  V30 12 C 2.9692 0.5945 0.4148 0
M  V30 13 O 2.5196 0.2789 1.55 0
M  V30 14 N 4.101 1.4545 0.3178 0
M  V30 15 H -1.718 2.6574 0.1508 0
M  V30 16 H -0.7057 -2.593 -0.5161 0
M  V30 17 H -2.4159 -2.164 -0.824 0
M  V30 18 H -1.8089 -2.315 0.8807 0
M  V30 19 H 1.3864 -1.5809 -0.0349 0
M  V30 20 H 1.0956 -1.1683 -1.7645 0
M  V30 21 H 4.4785 1.721 -0.6182 0
M  V30 22 H 4.5603 1.8255 1.179 0
M  V30 END ATOM
M  V30 BEGIN BOND
M  V30 1 2 1 2
M  V30 2 1 2 3
M  V30 3 1 2 4
M  V30 4 1 4 5
M  V30 5 2 4 6
M  V30 6 1 5 7
M  V30 7 1 5 8
M  V30 8 1 6 9
M  V30 9 1 7 10
M  V30 10 1 10 11
M  V30 11 1 11 12
M  V30 12 2 12 13
M  V30 13 1 12 14
M  V30 14 2 7 9
M  V30 15 1 6 15
M  V30 16 1 8 16
M  V30 17 1 8 17
M  V30 18 1 8 18
M  V30 19 1 10 19
M  V30 20 1 10 20
M  V30 21 1 14 21
M  V30 22 1 14 22
M  V30 END BOND
M  V30 END CTAB
M  END
>  <Structure No>
4748

>  <LogS>
-1.8433

>  <MMFF94 Energy>
-67.884

$$$$
Compound 4749
Actelion Java MolfileCreator 2.0

  0  0  0  0  0  0              0 V3000
M  V30 BEGIN CTAB
M  V30 COUNTS 26 25 0 0 0
M  V30 BEGIN ATOM
M  V30 1 O 0.8649 -2.9117 -0.7076 0
M  V30 2 C 0.7854 -1.7096 -1.0734 0
M  V30 3 O 0.7204 -1.4072 -2.4281 0 CHG=-1
M  V30 4 C 0.7458 -0.609 -0.0499 0 CFG=1
M  V30 5 N 1.793 0.3714 -0.3512 0
M  V30 6 C -0.635 0.0763 -0.031 0
M  V30 7 C 3.1812 0.1059 -0.1074 0
M  V30 8 C -1.7411 -0.856 0.4948 0
M  V30 9 O 3.5436 -0.9953 0.3881 0
M  V30 10 C 4.2087 1.1313 -0.4595 0
M  V30 11 C -3.1317 -0.204 0.4515 0
M  V30 12 C -3.3022 0.8986 1.4961 0
M  V30 13 H 0.9355 -1.0306 0.9632 0
M  V30 14 H 1.5327 1.2914 -0.7754 0
M  V30 15 H -0.569 0.9655 0.6316 0
M  V30 16 H -0.894 0.4307 -1.0532 0
M  V30 17 H -1.5067 -1.1739 1.5344 0
M  V30 18 H -1.7776 -1.7702 -0.1357 0
M  V30 19 H 3.9464 2.1001 0.0144 0
M  V30 20 H 5.2128 0.8179 -0.103 0
M  V30 21 H 4.2399 1.2601 -1.5613 0
M  V30 22 H -3.3303 0.2079 -0.5616 0
M  V30 23 H -3.8931 -0.9894 0.6492 0
M  V30 24 H -3.0523 0.5175 2.509 0
M  V30 25 H -4.3578 1.2426 1.4996 0
M  V30 26 H -2.6576 1.7697 1.2584 0
M  V30 END ATOM
M  V30 BEGIN BOND
M  V30 1 2 1 2
M  V30 2 1 2 3
M  V30 3 1 2 4
M  V30 4 1 4 5
M  V30 5 1 4 6
M  V30 6 1 5 7
M  V30 7 1 6 8
M  V30 8 2 7 9
M  V30 9 1 7 10
M  V30 10 1 8 11
M  V30 11 1 11 12
M  V30 12 1 4 13
M  V30 13 1 5 14
M  V30 14 1 6 15
M  V30 15 1 6 16
M  V30 16 1 8 17
M  V30 17 1 8 18
M  V30 18 1 10 19
M  V30 19 1 10 20
M  V30 20 1 10 21
M  V30 21 1 11 22
M  V30 22 1 11 23
M  V30 23 1 12 24
M  V30 24 1 12 25
M  V30 25 1 12 26
M  V30 END BOND
M  V30 BEGIN COLLECTION
M  V30 MDLV30/STEABS ATOMS=(1 4)
M  V30 END COLLECTION
M  V30 END CTAB
M  END
>  <Structure No>
4749

>  <LogS>
-0.6823

>  <MMFF94 Energy>
28.022

$$$$
Compound 4750
Actelion Java MolfileCreator 2.0

  0  0  0  0  0  0              0 V3000
M  V30 BEGIN CTAB
M  V30 COUNTS 20 21 0 0 0
M  V30 BEGIN ATOM
M  V30 1 Cl 3.8994 0.9116 -0.1657 0
M  V30 2 C 2.1374 0.8538 -0.1681 0
M  V30 3 C 1.4278 -0.3612 -0.0309 0
M  V30 4 C 1.45 2.0658 -0.2631 0
M  V30 5 C 0.0055 -0.3359 -0.0105 0
M  V30 6 C 2.1785 -1.6286 0.1149 0
M  V30 7 C 0.0592 2.0976 -0.2231 0
M  V30 8 C -0.6715 0.9107 -0.0994 0
M  V30 9 C -0.7673 -1.5165 0.0637 0
M  V30 10 O 3.0662 -1.9417 -0.7215 0
M  V30 11 O 1.9257 -2.4733 1.1892 0 CHG=-1
M  V30 12 C -2.0748 0.9545 -0.0746 0
M  V30 13 C -2.1629 -1.455 0.0848 0
M  V30 14 C -2.8143 -0.224 0.0218 0
M  V30 15 H 1.9987 2.9945 -0.3576 0
M  V30 16 H -0.4467 3.0535 -0.294 0
M  V30 17 H -0.3087 -2.4947 0.0882 0
M  V30 18 H -2.5999 1.9007 -0.1355 0
M  V30 19 H -2.7422 -2.3674 0.1446 0
M  V30 20 H -3.8958 -0.1838 0.0377 0
M  V30 END ATOM
M  V30 BEGIN BOND
M  V30 1 1 1 2
M  V30 2 2 2 3
M  V30 3 1 2 4
M  V30 4 1 3 5
M  V30 5 1 3 6
M  V30 6 2 4 7
M  V30 7 1 5 8
M  V30 8 2 5 9
M  V30 9 2 6 10
M  V30 10 1 6 11
M  V30 11 2 8 12
M  V30 12 1 9 13
M  V30 13 1 12 14
M  V30 14 1 7 8
M  V30 15 2 13 14
M  V30 16 1 4 15
M  V30 17 1 7 16
M  V30 18 1 9 17
M  V30 19 1 12 18
M  V30 20 1 13 19
M  V30 21 1 14 20
M  V30 END BOND
M  V30 END CTAB
M  END
>  <Structure No>
4750

>  <LogS>
-2.3152

>  <MMFF94 Energy>
40.353

$$$$
Compound 4751
Actelion Java MolfileCreator 2.0

  0  0  0  0  0  0              0 V3000
M  V30 BEGIN CTAB
M  V30 COUNTS 47 47 0 0 0
M  V30 BEGIN ATOM
M  V30 1 Cl -2.1424 -3.5727 -0.9517 0
M  V30 2 C -1.8574 -2.0589 -1.8455 0
M  V30 3 C -0.4678 -1.5565 -1.5687 0
M  V30 4 O 0.501 -2.3016 -1.8801 0
M  V30 5 N -0.2114 -0.2594 -0.9805 0
M  V30 6 C -1.281 0.6563 -0.6717 0
M  V30 7 C 1.1719 0.181 -0.7382 0
M  V30 8 C -1.9811 0.5608 0.5608 0
M  V30 9 C -1.5944 1.7034 -1.576 0
M  V30 10 C 1.7057 -0.3814 0.5765 0
M  V30 11 C -2.9286 1.5458 0.8886 0
M  V30 12 C -1.7213 -0.5539 1.554 0
M  V30 13 C -2.576 2.6445 -1.2307 0
M  V30 14 C -0.9419 1.8131 -2.9361 0
M  V30 15 O 3.065 -0.0255 0.7108 0
M  V30 16 C -3.2257 2.5735 -0.0022 0
M  V30 17 C -2.9848 -1.3646 1.8435 0
M  V30 18 C -1.8219 1.1886 -4.0138 0
M  V30 19 C 3.5685 -0.5371 1.9265 0
M  V30 20 C 5.0385 -0.1435 2.06 0
M  V30 21 C 5.6399 -0.6704 3.3599 0
M  V30 22 H -2.639 -1.3275 -1.5619 0
M  V30 23 H -1.9591 -2.2659 -2.9309 0
M  V30 24 H 1.8259 -0.1417 -1.5774 0
M  V30 25 H 1.2237 1.2919 -0.6991 0
M  V30 26 H 1.5903 -1.4891 0.566 0
M  V30 27 H 1.1079 0.0506 1.4104 0
M  V30 28 H -3.4454 1.5176 1.8392 0
M  V30 29 H -1.3426 -0.1161 2.5024 0
M  V30 30 H -0.9506 -1.2595 1.1872 0
M  V30 31 H -2.834 3.4431 -1.9156 0
M  V30 32 H -0.7726 2.8836 -3.184 0
M  V30 33 H 0.0525 1.3247 -2.9573 0
M  V30 34 H -3.9687 3.3161 0.2589 0
M  V30 35 H -3.4595 -1.6986 0.8978 0
M  V30 36 H -3.7158 -0.762 2.4215 0
M  V30 37 H -2.722 -2.2596 2.4459 0
M  V30 38 H -1.9798 0.1105 -3.807 0
M  V30 39 H -1.3275 1.2907 -5.0026 0
M  V30 40 H -2.8067 1.7009 -4.0552 0
M  V30 41 H 3.4946 -1.649 1.9431 0
M  V30 42 H 3.0069 -0.1139 2.7914 0
M  V30 43 H 5.1277 0.9644 2.0411 0
M  V30 44 H 5.6109 -0.5562 1.2011 0
M  V30 45 H 5.5832 -1.7793 3.3899 0
M  V30 46 H 6.7061 -0.3676 3.4252 0
M  V30 47 H 5.0976 -0.2511 4.2341 0
M  V30 END ATOM
M  V30 BEGIN BOND
M  V30 1 1 1 2
M  V30 2 1 2 3
M  V30 3 2 3 4
M  V30 4 1 3 5
M  V30 5 1 5 6
M  V30 6 1 5 7
M  V30 7 2 6 8
M  V30 8 1 6 9
M  V30 9 1 7 10
M  V30 10 1 8 11
M  V30 11 1 8 12
M  V30 12 2 9 13
M  V30 13 1 9 14
M  V30 14 1 10 15
M  V30 15 2 11 16
M  V30 16 1 12 17
M  V30 17 1 14 18
M  V30 18 1 15 19
M  V30 19 1 19 20
M  V30 20 1 20 21
M  V30 21 1 13 16
M  V30 22 1 2 22
M  V30 23 1 2 23
M  V30 24 1 7 24
M  V30 25 1 7 25
M  V30 26 1 10 26
M  V30 27 1 10 27
M  V30 28 1 11 28
M  V30 29 1 12 29
M  V30 30 1 12 30
M  V30 31 1 13 31
M  V30 32 1 14 32
M  V30 33 1 14 33
M  V30 34 1 16 34
M  V30 35 1 17 35
M  V30 36 1 17 36
M  V30 37 1 17 37
M  V30 38 1 18 38
M  V30 39 1 18 39
M  V30 40 1 18 40
M  V30 41 1 19 41
M  V30 42 1 19 42
M  V30 43 1 20 43
M  V30 44 1 20 44
M  V30 45 1 21 45
M  V30 46 1 21 46
M  V30 47 1 21 47
M  V30 END BOND
M  V30 END CTAB
M  END
>  <Structure No>
4751

>  <LogS>
-3.795

>  <MMFF94 Energy>
58.448

$$$$
Compound 4752
Actelion Java MolfileCreator 2.0

  0  0  0  0  0  0              0 V3000
M  V30 BEGIN CTAB
M  V30 COUNTS 2 1 0 0 0
M  V30 BEGIN ATOM
M  V30 1 N 0 0 0 0
M  V30 2 N 0 0 0 0
M  V30 END ATOM
M  V30 BEGIN BOND
M  V30 1 3 1 2
M  V30 END BOND
M  V30 END CTAB
M  END
>  <Structure No>
4752

>  <LogS>
-0.1901

>  <MMFF94 Energy>
6.1913e-17

$$$$
Compound 4753
Actelion Java MolfileCreator 2.0

  0  0  0  0  0  0              0 V3000
M  V30 BEGIN CTAB
M  V30 COUNTS 2 1 0 0 0
M  V30 BEGIN ATOM
M  V30 1 O 0 0 0 0
M  V30 2 O 0 0 0 0
M  V30 END ATOM
M  V30 BEGIN BOND
M  V30 1 2 1 2
M  V30 END BOND
M  V30 END CTAB
M  END
>  <Structure No>
4753

>  <LogS>
0.0691

>  <MMFF94 Energy>
Couldn't assign an atom type to atom 0 (O)

$$$$
Compound 4754
Actelion Java MolfileCreator 2.0

  0  0  0  0  0  0              0 V3000
M  V30 BEGIN CTAB
M  V30 COUNTS 2 1 0 0 0
M  V30 BEGIN ATOM
M  V30 1 Cl 0 0 0 0
M  V30 2 Cl 0 0 0 0
M  V30 END ATOM
M  V30 BEGIN BOND
M  V30 1 1 1 2
M  V30 END BOND
M  V30 END CTAB
M  END
>  <Structure No>
4754

>  <LogS>
-1.0513

>  <MMFF94 Energy>
1.1659e-11

$$$$
Compound 4755
Actelion Java MolfileCreator 2.0

  0  0  0  0  0  0              0 V3000
M  V30 BEGIN CTAB
M  V30 COUNTS 11 10 0 0 0
M  V30 BEGIN ATOM
M  V30 1 Cl 1.2233 1.9229 -0.5241 0
M  V30 2 C 1.2422 0.2476 0.0916 0
M  V30 3 Cl 2.6681 -0.5718 -0.5939 0
M  V30 4 Cl 1.4275 0.278 1.8668 0
M  V30 5 C -0.0257 -0.5176 -0.3264 0
M  V30 6 C -1.322 0.0977 0.2077 0
M  V30 7 H -0.0824 -0.5511 -1.4362 0
M  V30 8 H 0.0435 -1.5656 0.0384 0
M  V30 9 H -1.4549 1.1323 -0.1711 0
M  V30 10 H -1.3277 0.1081 1.3176 0
M  V30 11 H -2.1852 -0.5098 -0.1364 0
M  V30 END ATOM
M  V30 BEGIN BOND
M  V30 1 1 1 2
M  V30 2 1 2 3
M  V30 3 1 2 4
M  V30 4 1 2 5
M  V30 5 1 5 6
M  V30 6 1 5 7
M  V30 7 1 5 8
M  V30 8 1 6 9
M  V30 9 1 6 10
M  V30 10 1 6 11
M  V30 END BOND
M  V30 END CTAB
M  END
>  <Structure No>
4755

>  <LogS>
-1.8898

>  <MMFF94 Energy>
2.9464

$$$$
Compound 4756
Actelion Java MolfileCreator 2.0

  0  0  0  0  0  0              0 V3000
M  V30 BEGIN CTAB
M  V30 COUNTS 35 35 0 0 0
M  V30 BEGIN ATOM
M  V30 1 O 3.6956 -1.7285 0.0785 0
M  V30 2 C 3.6622 -0.4964 0.3488 0
M  V30 3 O 2.4853 0.2443 0.1786 0
M  V30 4 N 4.8177 0.1496 0.8907 0
M  V30 5 C 1.3747 -0.1578 -0.5787 0
M  V30 6 C 6.0684 -0.5649 1.1126 0
M  V30 7 C 0.1109 0.3221 -0.2138 0
M  V30 8 C 1.4959 -0.9875 -1.7077 0
M  V30 9 C -1.0383 -0.0414 -0.9421 0
M  V30 10 C 0.3619 -1.3522 -2.4363 0
M  V30 11 C -0.8987 -0.8877 -2.0553 0
M  V30 12 C -2.4151 0.4605 -0.5349 0
M  V30 13 C -2.8084 -0.0586 0.8691 0
M  V30 14 C -2.4558 2.0054 -0.6118 0
M  V30 15 C -2.8502 -1.5864 0.9356 0
M  V30 16 C -3.8787 2.5675 -0.6045 0
M  V30 17 H 4.7633 1.1653 1.1296 0
M  V30 18 H 6.4452 -0.9721 0.1508 0
M  V30 19 H 6.8287 0.127 1.5324 0
M  V30 20 H 5.9048 -1.3966 1.83 0
M  V30 21 H 0.0272 0.9731 0.6471 0
M  V30 22 H 2.464 -1.3299 -2.0461 0
M  V30 23 H 0.4611 -1.9912 -3.3043 0
M  V30 24 H -1.7644 -1.1852 -2.6338 0
M  V30 25 H -3.1678 0.0714 -1.2576 0
M  V30 26 H -3.8204 0.3114 1.135 0
M  V30 27 H -2.1011 0.3206 1.6379 0
M  V30 28 H -1.971 2.3361 -1.5572 0
M  V30 29 H -1.8862 2.4519 0.2321 0
M  V30 30 H -1.8364 -2.0137 0.7857 0
M  V30 31 H -3.5372 -1.9883 0.1608 0
M  V30 32 H -3.2174 -1.9041 1.9342 0
M  V30 33 H -3.8423 3.6626 -0.7852 0
M  V30 34 H -4.367 2.4 0.3771 0
M  V30 35 H -4.4875 2.1 -1.4071 0
M  V30 END ATOM
M  V30 BEGIN BOND
M  V30 1 2 1 2
M  V30 2 1 2 3
M  V30 3 1 2 4
M  V30 4 1 3 5
M  V30 5 1 4 6
M  V30 6 2 5 7
M  V30 7 1 5 8
M  V30 8 1 7 9
M  V30 9 2 8 10
M  V30 10 2 9 11
M  V30 11 1 9 12
M  V30 12 1 12 13
M  V30 13 1 12 14
M  V30 14 1 13 15
M  V30 15 1 14 16
M  V30 16 1 10 11
M  V30 17 1 4 17
M  V30 18 1 6 18
M  V30 19 1 6 19
M  V30 20 1 6 20
M  V30 21 1 7 21
M  V30 22 1 8 22
M  V30 23 1 10 23
M  V30 24 1 11 24
M  V30 25 1 12 25
M  V30 26 1 13 26
M  V30 27 1 13 27
M  V30 28 1 14 28
M  V30 29 1 14 29
M  V30 30 1 15 30
M  V30 31 1 15 31
M  V30 32 1 15 32
M  V30 33 1 16 33
M  V30 34 1 16 34
M  V30 35 1 16 35
M  V30 END BOND
M  V30 END CTAB
M  END
>  <Structure No>
4756

>  <LogS>
-3.947

>  <MMFF94 Energy>
-13.424

$$$$
Compound 4757
Actelion Java MolfileCreator 2.0

  0  0  0  0  0  0              0 V3000
M  V30 BEGIN CTAB
M  V30 COUNTS 34 33 0 0 0
M  V30 BEGIN ATOM
M  V30 1 O 2.3229 0.2321 0.2321 0
M  V30 2 C 3.1831 1.3469 0.374 0
M  V30 3 C 2.4175 -0.3081 -1.0701 0
M  V30 4 C 4.4928 0.9206 1.0383 0
M  V30 5 C 1.5715 -1.583 -1.1676 0
M  V30 6 O 5.2974 2.0403 1.2905 0
M  V30 7 C 0.0658 -1.3113 -1.3284 0
M  V30 8 C -0.5764 -0.7203 -0.0646 0
M  V30 9 C -2.1027 -0.6566 -0.2014 0
M  V30 10 C -2.7413 -0.036 1.0501 0
M  V30 11 C -4.2768 -0.0656 1.006 0
M  V30 12 C -4.8577 0.9062 -0.0207 0
M  V30 13 H 2.6791 2.0825 1.0364 0
M  V30 14 H 3.3927 1.8782 -0.585 0
M  V30 15 H 3.4726 -0.5828 -1.2984 0
M  V30 16 H 2.068 0.4269 -1.8306 0
M  V30 17 H 5.0357 0.1918 0.3955 0
M  V30 18 H 4.2668 0.422 2.0048 0
M  V30 19 H 1.7537 -2.2288 -0.2807 0
M  V30 20 H 1.9091 -2.1522 -2.0611 0
M  V30 21 H 5.6957 2.3051 0.4204 0
M  V30 22 H -0.1044 -0.6304 -2.1911 0
M  V30 23 H -0.4288 -2.2792 -1.564 0
M  V30 24 H -0.3122 -1.348 0.8147 0
M  V30 25 H -0.1919 0.3085 0.1002 0
M  V30 26 H -2.3577 -0.0455 -1.0935 0
M  V30 27 H -2.5016 -1.6844 -0.3481 0
M  V30 28 H -2.4135 -0.6113 1.9436 0
M  V30 29 H -2.3888 1.0113 1.1761 0
M  V30 30 H -4.6342 -1.0955 0.7883 0
M  V30 31 H -4.662 0.2179 2.0095 0
M  V30 32 H -4.6088 0.5836 -1.0526 0
M  V30 33 H -4.4688 1.9323 0.1511 0
M  V30 34 H -5.9637 0.9274 0.0764 0
M  V30 END ATOM
M  V30 BEGIN BOND
M  V30 1 1 1 2
M  V30 2 1 1 3
M  V30 3 1 2 4
M  V30 4 1 3 5
M  V30 5 1 4 6
M  V30 6 1 5 7
M  V30 7 1 7 8
M  V30 8 1 8 9
M  V30 9 1 9 10
M  V30 10 1 10 11
M  V30 11 1 11 12
M  V30 12 1 2 13
M  V30 13 1 2 14
M  V30 14 1 3 15
M  V30 15 1 3 16
M  V30 16 1 4 17
M  V30 17 1 4 18
M  V30 18 1 5 19
M  V30 19 1 5 20
M  V30 20 1 6 21
M  V30 21 1 7 22
M  V30 22 1 7 23
M  V30 23 1 8 24
M  V30 24 1 8 25
M  V30 25 1 9 26
M  V30 26 1 9 27
M  V30 27 1 10 28
M  V30 28 1 10 29
M  V30 29 1 11 30
M  V30 30 1 11 31
M  V30 31 1 12 32
M  V30 32 1 12 33
M  V30 33 1 12 34
M  V30 END BOND
M  V30 END CTAB
M  END
>  <Structure No>
4757

>  <LogS>
-2.125

>  <MMFF94 Energy>
23.087

$$$$
Compound 4758
Actelion Java MolfileCreator 2.0

  0  0  0  0  0  0              0 V3000
M  V30 BEGIN CTAB
M  V30 COUNTS 16 15 0 0 0
M  V30 BEGIN ATOM
M  V30 1 O 0.85 -0.2317 -1.6233 0
M  V30 2 C 0.6612 -0.8229 -0.3634 0 CFG=1
M  V30 3 C 1.9527 -0.9154 0.3381 0
M  V30 4 C -0.3626 -0.012 0.4654 0
M  V30 5 N 2.9676 -0.9881 0.8892 0
M  V30 6 C 0.0438 1.4635 0.6191 0
M  V30 7 C -1.7617 -0.1101 -0.1576 0
M  V30 8 H 1.2505 -0.9248 -2.2111 0
M  V30 9 H 0.2736 -1.8608 -0.4865 0
M  V30 10 H -0.4229 -0.458 1.4839 0
M  V30 11 H -0.698 1.9994 1.2489 0
M  V30 12 H 0.0958 1.9656 -0.3704 0
M  V30 13 H 1.0326 1.5466 1.1168 0
M  V30 14 H -1.7722 0.3348 -1.1757 0
M  V30 15 H -2.5014 0.4266 0.474 0
M  V30 16 H -2.0779 -1.1727 -0.2271 0
M  V30 END ATOM
M  V30 BEGIN BOND
M  V30 1 1 1 2
M  V30 2 1 2 3
M  V30 3 1 2 4
M  V30 4 3 3 5
M  V30 5 1 4 6
M  V30 6 1 4 7
M  V30 7 1 1 8
M  V30 8 1 2 9
M  V30 9 1 4 10
M  V30 10 1 6 11
M  V30 11 1 6 12
M  V30 12 1 6 13
M  V30 13 1 7 14
M  V30 14 1 7 15
M  V30 15 1 7 16
M  V30 END BOND
M  V30 BEGIN COLLECTION
M  V30 MDLV30/STEABS ATOMS=(1 2)
M  V30 END COLLECTION
M  V30 END CTAB
M  END
>  <Structure No>
4758

>  <LogS>
0.3048

>  <MMFF94 Energy>
26.056

$$$$
Compound 4759
Actelion Java MolfileCreator 2.0

  0  0  0  0  0  0              0 V3000
M  V30 BEGIN CTAB
M  V30 COUNTS 26 25 0 0 0
M  V30 BEGIN ATOM
M  V30 1 O 2.4871 1.1652 0.699 0
M  V30 2 C 2.6063 -0.0708 0.4802 0
M  V30 3 O 1.8615 -0.6971 -0.5249 0
M  V30 4 C 3.5202 -0.8852 1.3306 0
M  V30 5 C 0.8892 -0.0206 -1.3223 0
M  V30 6 C -0.4057 0.2356 -0.5224 0
M  V30 7 C -1.3764 1.0817 -1.3803 0
M  V30 8 C -1.0464 -1.1076 -0.0663 0
M  V30 9 C -2.6023 1.5595 -0.6025 0
M  V30 10 C -1.4696 -1.0764 1.4024 0
M  V30 11 H 4.4292 -0.2997 1.5836 0
M  V30 12 H 3.825 -1.804 0.7875 0
M  V30 13 H 2.996 -1.1719 2.2659 0
M  V30 14 H 1.3182 0.9351 -1.6965 0
M  V30 15 H 0.6575 -0.6521 -2.2069 0
M  V30 16 H -0.1247 0.8439 0.3661 0
M  V30 17 H -1.7094 0.5008 -2.2682 0
M  V30 18 H -0.8437 1.9848 -1.752 0
M  V30 19 H -1.928 -1.3623 -0.6937 0
M  V30 20 H -0.3334 -1.9525 -0.1831 0
M  V30 21 H -3.1844 2.2673 -1.2295 0
M  V30 22 H -2.2939 2.0835 0.3269 0
M  V30 23 H -3.2627 0.705 -0.3478 0
M  V30 24 H -2.1996 -0.2625 1.5885 0
M  V30 25 H -0.5813 -0.9228 2.0518 0
M  V30 26 H -1.9422 -2.0437 1.6741 0
M  V30 END ATOM
M  V30 BEGIN BOND
M  V30 1 2 1 2
M  V30 2 1 2 3
M  V30 3 1 2 4
M  V30 4 1 3 5
M  V30 5 1 5 6
M  V30 6 1 6 7
M  V30 7 1 6 8
M  V30 8 1 7 9
M  V30 9 1 8 10
M  V30 10 1 4 11
M  V30 11 1 4 12
M  V30 12 1 4 13
M  V30 13 1 5 14
M  V30 14 1 5 15
M  V30 15 1 6 16
M  V30 16 1 7 17
M  V30 17 1 7 18
M  V30 18 1 8 19
M  V30 19 1 8 20
M  V30 20 1 9 21
M  V30 21 1 9 22
M  V30 22 1 9 23
M  V30 23 1 10 24
M  V30 24 1 10 25
M  V30 25 1 10 26
M  V30 END BOND
M  V30 END CTAB
M  END
>  <Structure No>
4759

>  <LogS>
-1.3528

>  <MMFF94 Energy>
-5.0457

$$$$
Compound 4760
Actelion Java MolfileCreator 2.0

  0  0  0  0  0  0              0 V3000
M  V30 BEGIN CTAB
M  V30 COUNTS 9 8 0 0 0
M  V30 BEGIN ATOM
M  V30 1 Cl 1.2637 1.8539 0.6738 0
M  V30 2 C 1.3002 0.1131 0.4052 0
M  V30 3 C 0.2252 -0.5872 0.0151 0
M  V30 4 C -1.1185 0.0352 -0.2365 0
M  V30 5 Cl -1.092 0.9887 -1.7421 0
M  V30 6 H 2.2364 -0.4078 0.5779 0
M  V30 7 H 0.3218 -1.6628 -0.1008 0
M  V30 8 H -1.8778 -0.7668 -0.3479 0
M  V30 9 H -1.4163 0.6798 0.6174 0
M  V30 END ATOM
M  V30 BEGIN BOND
M  V30 1 1 1 2
M  V30 2 2 2 3
M  V30 3 1 3 4
M  V30 4 1 4 5
M  V30 5 1 2 6
M  V30 6 1 3 7
M  V30 7 1 4 8
M  V30 8 1 4 9
M  V30 END BOND
M  V30 END CTAB
M  END
>  <Structure No>
4760

>  <LogS>
-1.598

>  <MMFF94 Energy>
-1.0422

$$$$
Compound 4761
Actelion Java MolfileCreator 2.0

  0  0  0  0  0  0              0 V3000
M  V30 BEGIN CTAB
M  V30 COUNTS 16 16 0 0 0
M  V30 BEGIN ATOM
M  V30 1 O -1.5652 -1.8125 -1.1531 0
M  V30 2 C -1.1199 -1.3261 -0.0804 0
M  V30 3 O -1.0616 -2.1153 1.0608 0 CHG=-1
M  V30 4 C -0.7121 0.116 -0.0155 0
M  V30 5 C -1.7376 1.1072 0.4365 0
M  V30 6 C 0.746 0.4659 0.297 0 CFG=2
M  V30 7 C 0.2167 0.6018 -1.1285 0
M  V30 8 O -1.8321 1.4071 1.6555 0
M  V30 9 O -2.6186 1.6654 -0.4808 0 CHG=-1
M  V30 10 C 1.7414 -0.6812 0.5014 0
M  V30 11 H 0.928 1.4337 0.8129 0
M  V30 12 H 0.5622 -0.1759 -1.8435 0
M  V30 13 H 0.0749 1.6566 -1.4483 0
M  V30 14 H 1.6729 -1.0394 1.5494 0
M  V30 15 H 1.5628 -1.5378 -0.1828 0
M  V30 16 H 2.7693 -0.303 0.3242 0
M  V30 END ATOM
M  V30 BEGIN BOND
M  V30 1 2 1 2
M  V30 2 1 2 3
M  V30 3 1 2 4
M  V30 4 1 4 5
M  V30 5 1 4 6
M  V30 6 1 4 7
M  V30 7 2 5 8
M  V30 8 1 5 9
M  V30 9 1 6 10
M  V30 10 1 6 7
M  V30 11 1 6 11
M  V30 12 1 7 12
M  V30 13 1 7 13
M  V30 14 1 10 14
M  V30 15 1 10 15
M  V30 16 1 10 16
M  V30 END BOND
M  V30 BEGIN COLLECTION
M  V30 MDLV30/STEABS ATOMS=(1 6)
M  V30 END COLLECTION
M  V30 END CTAB
M  END
>  <Structure No>
4761

>  <LogS>
0.8412

>  <MMFF94 Energy>
76.279

$$$$
Compound 4762
Actelion Java MolfileCreator 2.0

  0  0  0  0  0  0              0 V3000
M  V30 BEGIN CTAB
M  V30 COUNTS 32 33 0 0 0
M  V30 BEGIN ATOM
M  V30 1 O -1.8685 2.275 0.812 0
M  V30 2 C -0.6315 2.0294 0.8109 0
M  V30 3 O 0.2023 2.8185 1.597 0 CHG=-1
M  V30 4 C -0.0439 0.9569 -0.1086 0
M  V30 5 C 0.957 0.0287 0.6182 0
M  V30 6 C -1.1961 0.0623 -0.6219 0
M  V30 7 C 0.6812 1.7197 -1.2706 0
M  V30 8 C 1.7166 -0.8994 -0.1308 0
M  V30 9 C 1.0596 -0.0257 2.0297 0
M  V30 10 C -1.8797 -0.7687 0.2958 0
M  V30 11 C -1.638 0.0612 -1.9675 0
M  V30 12 C 1.8971 2.4916 -0.8334 0
M  V30 13 C 2.6003 -1.7808 0.4972 0
M  V30 14 C 1.9458 -0.9107 2.6507 0
M  V30 15 C -2.935 -1.5853 -0.1178 0
M  V30 16 C -2.6951 -0.7595 -2.3729 0
M  V30 17 O 1.8208 3.7318 -0.6284 0
M  V30 18 O 3.1126 1.8427 -0.656 0 CHG=-1
M  V30 19 C 2.7224 -1.7796 1.8858 0
M  V30 20 C -3.3399 -1.5837 -1.4514 0
M  V30 21 H -0.0275 2.4349 -1.7456 0
M  V30 22 H 1.0024 1.02 -2.0695 0
M  V30 23 H 1.6199 -0.9562 -1.206 0
M  V30 24 H 0.444 0.5909 2.6678 0
M  V30 25 H -1.5987 -0.7805 1.341 0
M  V30 26 H -1.1851 0.6873 -2.721 0
M  V30 27 H 3.1834 -2.4745 -0.0947 0
M  V30 28 H 2.0195 -0.9316 3.7305 0
M  V30 29 H -3.4424 -2.2175 0.5996 0
M  V30 30 H -3.0176 -0.753 -3.4063 0
M  V30 31 H 3.4045 -2.4662 2.3705 0
M  V30 32 H -4.1586 -2.2161 -1.77 0
M  V30 END ATOM
M  V30 BEGIN BOND
M  V30 1 2 1 2
M  V30 2 1 2 3
M  V30 3 1 2 4
M  V30 4 1 4 5
M  V30 5 1 4 6
M  V30 6 1 4 7
M  V30 7 2 5 8
M  V30 8 1 5 9
M  V30 9 2 6 10
M  V30 10 1 6 11
M  V30 11 1 7 12
M  V30 12 1 8 13
M  V30 13 2 9 14
M  V30 14 1 10 15
M  V30 15 2 11 16
M  V30 16 2 12 17
M  V30 17 1 12 18
M  V30 18 2 13 19
M  V30 19 2 15 20
M  V30 20 1 14 19
M  V30 21 1 16 20
M  V30 22 1 7 21
M  V30 23 1 7 22
M  V30 24 1 8 23
M  V30 25 1 9 24
M  V30 26 1 10 25
M  V30 27 1 11 26
M  V30 28 1 13 27
M  V30 29 1 14 28
M  V30 30 1 15 29
M  V30 31 1 16 30
M  V30 32 1 19 31
M  V30 33 1 20 32
M  V30 END BOND
M  V30 END CTAB
M  END
>  <Structure No>
4762

>  <LogS>
-2.4318

>  <MMFF94 Energy>
171.75

$$$$
Compound 4763
Actelion Java MolfileCreator 2.0

  0  0  0  0  0  0              0 V3000
M  V30 BEGIN CTAB
M  V30 COUNTS 60 62 0 0 0
M  V30 BEGIN ATOM
M  V30 1 Cl 6.8823 -6.3074 -1.7991 0
M  V30 2 C 5.2687 -6.0408 -1.1631 0
M  V30 3 C 4.7902 -4.7396 -0.9914 0
M  V30 4 C 4.4636 -7.1289 -0.8256 0
M  V30 5 C 3.5028 -4.5129 -0.4739 0
M  V30 6 C 3.1754 -6.9209 -0.3285 0
M  V30 7 C 2.6747 -5.6141 -0.16 0
M  V30 8 C 3.0358 -3.12 -0.2977 0
M  V30 9 O 1.3623 -5.3828 0.285 0
M  V30 10 O 3.3311 -2.2565 -1.1694 0
M  V30 11 N 2.287 -2.7354 0.8666 0
M  V30 12 C 0.4267 -6.4037 0.6156 0
M  V30 13 C 1.7118 -1.4012 1.024 0
M  V30 14 C 2.7948 -0.3925 1.4173 0
M  V30 15 C 2.1977 0.9758 1.6085 0
M  V30 16 C 2.0057 1.8229 0.506 0
M  V30 17 C 1.7715 1.3935 2.8795 0
M  V30 18 C 1.4114 3.0765 0.6754 0
M  V30 19 C 1.1782 2.6484 3.0477 0
M  V30 20 C 0.9967 3.4952 1.9456 0
M  V30 21 S 0.2131 5.0606 2.1304 0
M  V30 22 O 1.2008 6.1459 1.8082 0
M  V30 23 O -0.2813 5.2513 3.5372 0
M  V30 24 N -1.1263 5.1584 1.0386 0 CHG=-1
M  V30 25 C -2.179 4.1927 1.0395 0
M  V30 26 O -2.212 3.2928 1.9237 0
M  V30 27 N -3.1952 4.2572 0.0317 0
M  V30 28 C -4.2408 3.2331 -0.0964 0
M  V30 29 C -5.3884 3.7191 -1.0078 0
M  V30 30 C -3.6518 1.9089 -0.6247 0
M  V30 31 C -4.9725 3.7983 -2.4855 0
M  V30 32 C -3.2175 2.0261 -2.0909 0
M  V30 33 C -4.3903 2.4674 -2.9726 0
M  V30 34 H 5.4299 -3.9037 -1.2476 0
M  V30 35 H 4.8322 -8.1385 -0.9553 0
M  V30 36 H 2.5717 -7.7854 -0.0905 0
M  V30 37 H 2.1562 -3.4197 1.6443 0
M  V30 38 H -0.5253 -5.9324 0.9338 0
M  V30 39 H 0.8149 -7.021 1.4535 0
M  V30 40 H 0.2281 -7.0414 -0.2712 0
M  V30 41 H 0.9376 -1.434 1.8226 0
M  V30 42 H 1.2133 -1.0925 0.0787 0
M  V30 43 H 3.5784 -0.3475 0.6309 0
M  V30 44 H 3.289 -0.7287 2.3551 0
M  V30 45 H 2.3096 1.5091 -0.4845 0
M  V30 46 H 1.8939 0.746 3.7388 0
M  V30 47 H 1.2662 3.7179 -0.1849 0
M  V30 48 H 0.8548 2.9519 4.0348 0
M  V30 49 H -3.2021 5.095 -0.5921 0
M  V30 50 H -4.6754 3.0467 0.9106 0
M  V30 51 H -5.7373 4.719 -0.669 0
M  V30 52 H -6.2476 3.0185 -0.9131 0
M  V30 53 H -4.4178 1.1068 -0.5339 0
M  V30 54 H -2.7796 1.6 -0.0098 0
M  V30 55 H -5.8631 4.0521 -3.1002 0
M  V30 56 H -4.2249 4.607 -2.6317 0
M  V30 57 H -2.3824 2.7555 -2.1803 0
M  V30 58 H -2.8475 1.0391 -2.4423 0
M  V30 59 H -4.0383 2.5828 -4.0207 0
M  V30 60 H -5.1821 1.6861 -2.9609 0
M  V30 END ATOM
M  V30 BEGIN BOND
M  V30 1 1 1 2
M  V30 2 2 2 3
M  V30 3 1 2 4
M  V30 4 1 3 5
M  V30 5 2 4 6
M  V30 6 2 5 7
M  V30 7 1 5 8
M  V30 8 1 7 9
M  V30 9 2 8 10
M  V30 10 1 8 11
M  V30 11 1 9 12
M  V30 12 1 11 13
M  V30 13 1 13 14
M  V30 14 1 14 15
M  V30 15 2 15 16
M  V30 16 1 15 17
M  V30 17 1 16 18
M  V30 18 2 17 19
M  V30 19 2 18 20
M  V30 20 1 20 21
M  V30 21 2 21 22
M  V30 22 2 21 23
M  V30 23 1 21 24
M  V30 24 1 24 25
M  V30 25 2 25 26
M  V30 26 1 25 27
M  V30 27 1 27 28
M  V30 28 1 28 29
M  V30 29 1 28 30
M  V30 30 1 29 31
M  V30 31 1 30 32
M  V30 32 1 31 33
M  V30 33 1 6 7
M  V30 34 1 19 20
M  V30 35 1 32 33
M  V30 36 1 3 34
M  V30 37 1 4 35
M  V30 38 1 6 36
M  V30 39 1 11 37
M  V30 40 1 12 38
M  V30 41 1 12 39
M  V30 42 1 12 40
M  V30 43 1 13 41
M  V30 44 1 13 42
M  V30 45 1 14 43
M  V30 46 1 14 44
M  V30 47 1 16 45
M  V30 48 1 17 46
M  V30 49 1 18 47
M  V30 50 1 19 48
M  V30 51 1 27 49
M  V30 52 1 28 50
M  V30 53 1 29 51
M  V30 54 1 29 52
M  V30 55 1 30 53
M  V30 56 1 30 54
M  V30 57 1 31 55
M  V30 58 1 31 56
M  V30 59 1 32 57
M  V30 60 1 32 58
M  V30 61 1 33 59
M  V30 62 1 33 60
M  V30 END BOND
M  V30 END CTAB
M  END
>  <Structure No>
4763

>  <LogS>
-5.0917

>  <MMFF94 Energy>
17.049

$$$$
Compound 4764
Actelion Java MolfileCreator 2.0

  0  0  0  0  0  0              0 V3000
M  V30 BEGIN CTAB
M  V30 COUNTS 28 28 0 0 0
M  V30 BEGIN ATOM
M  V30 1 O -2.4211 0.8585 -0.7805 0
M  V30 2 C -2.5073 1.0722 0.6171 0
M  V30 3 C -2.4416 -0.525 -1.0574 0
M  V30 4 C -1.5289 0.1841 1.4231 0
M  V30 5 C -1.1624 -1.211 -0.5308 0
M  V30 6 N -0.5049 -0.4338 0.5521 0 CHG=1
M  V30 7 C 0.4554 0.5797 0.0182 0
M  V30 8 C 1.9361 0.1362 0.1445 0
M  V30 9 C 2.2476 -1.0932 -0.7198 0
M  V30 10 C 2.8696 1.2916 -0.2411 0
M  V30 11 H -3.5521 0.909 0.9634 0
M  V30 12 H -2.2644 2.1379 0.8139 0
M  V30 13 H -3.349 -1.0008 -0.6181 0
M  V30 14 H -2.5071 -0.6665 -2.1569 0
M  V30 15 H -2.1134 -0.6193 1.9275 0
M  V30 16 H -1.0509 0.775 2.237 0
M  V30 17 H -0.4646 -1.3837 -1.3788 0
M  V30 18 H -1.4389 -2.2207 -0.1515 0
M  V30 19 H 0.0133 -1.1148 1.1568 0
M  V30 20 H 0.3554 1.5431 0.569 0
M  V30 21 H 0.2357 0.8296 -1.0449 0
M  V30 22 H 2.1436 -0.12 1.2071 0
M  V30 23 H 1.6714 -1.9743 -0.3696 0
M  V30 24 H 2.003 -0.8955 -1.7854 0
M  V30 25 H 3.3253 -1.352 -0.6446 0
M  V30 26 H 2.7028 1.5938 -1.2974 0
M  V30 27 H 2.6887 2.169 0.4158 0
M  V30 28 H 3.9309 0.9871 -0.1181 0
M  V30 END ATOM
M  V30 BEGIN BOND
M  V30 1 1 1 2
M  V30 2 1 1 3
M  V30 3 1 2 4
M  V30 4 1 3 5
M  V30 5 1 4 6
M  V30 6 1 6 7
M  V30 7 1 7 8
M  V30 8 1 8 9
M  V30 9 1 8 10
M  V30 10 1 5 6
M  V30 11 1 2 11
M  V30 12 1 2 12
M  V30 13 1 3 13
M  V30 14 1 3 14
M  V30 15 1 4 15
M  V30 16 1 4 16
M  V30 17 1 5 17
M  V30 18 1 5 18
M  V30 19 1 6 19
M  V30 20 1 7 20
M  V30 21 1 7 21
M  V30 22 1 8 22
M  V30 23 1 9 23
M  V30 24 1 9 24
M  V30 25 1 9 25
M  V30 26 1 10 26
M  V30 27 1 10 27
M  V30 28 1 10 28
M  V30 END BOND
M  V30 END CTAB
M  END
>  <Structure No>
4764

>  <LogS>
-0.7089

>  <MMFF94 Energy>
83.415

$$$$
Compound 4765
Actelion Java MolfileCreator 2.0

  0  0  0  0  0  0              0 V3000
M  V30 BEGIN CTAB
M  V30 COUNTS 19 20 0 0 0
M  V30 BEGIN ATOM
M  V30 1 O -4.3077 -0.3246 -0.1623 0
M  V30 2 C -3.343 0.4789 -0.2672 0
M  V30 3 O -3.6079 1.8187 -0.5268 0 CHG=-1
M  V30 4 C -1.9491 0.0052 -0.1166 0
M  V30 5 C -0.8767 0.9082 -0.2349 0
M  V30 6 C -1.6789 -1.3509 0.1464 0
M  V30 7 C 0.4452 0.4611 -0.0925 0
M  V30 8 C -0.3628 -1.7998 0.2889 0
M  V30 9 C 0.7011 -0.9019 0.1711 0
M  V30 10 C 1.528 1.3434 -0.2067 0
M  V30 11 N 1.9825 -1.3383 0.3097 0
M  V30 12 C 2.8316 0.8648 -0.0592 0
M  V30 13 C 3.041 -0.4917 0.2011 0
M  V30 14 H -1.0671 1.9558 -0.4372 0
M  V30 15 H -2.4858 -2.0666 0.2423 0
M  V30 16 H -0.1732 -2.8467 0.4911 0
M  V30 17 H 1.3671 2.3956 -0.4084 0
M  V30 18 H 3.6734 1.5396 -0.1459 0
M  V30 19 H 4.0471 -0.8719 0.3169 0
M  V30 END ATOM
M  V30 BEGIN BOND
M  V30 1 2 1 2
M  V30 2 1 2 3
M  V30 3 1 2 4
M  V30 4 2 4 5
M  V30 5 1 4 6
M  V30 6 1 5 7
M  V30 7 2 6 8
M  V30 8 1 7 9
M  V30 9 2 7 10
M  V30 10 2 9 11
M  V30 11 1 10 12
M  V30 12 1 11 13
M  V30 13 1 8 9
M  V30 14 2 12 13
M  V30 15 1 5 14
M  V30 16 1 6 15
M  V30 17 1 8 16
M  V30 18 1 10 17
M  V30 19 1 12 18
M  V30 20 1 13 19
M  V30 END BOND
M  V30 END CTAB
M  END
>  <Structure No>
4765

>  <LogS>
-0.0456

>  <MMFF94 Energy>
49.557

$$$$
Compound 4766
Actelion Java MolfileCreator 2.0

  0  0  0  0  0  0              0 V3000
M  V30 BEGIN CTAB
M  V30 COUNTS 31 32 0 0 0
M  V30 BEGIN ATOM
M  V30 1 O -0.9572 0.2392 -2.3144 0
M  V30 2 C -1.2463 -0.0325 -1.1165 0
M  V30 3 N -0.1927 -0.2597 -0.1653 0
M  V30 4 C -2.6709 -0.0948 -0.7096 0
M  V30 5 C 1.2188 -0.3025 -0.5591 0
M  V30 6 C -3.6568 0.5548 -1.4736 0
M  V30 7 C -3.0781 -0.8172 0.4256 0
M  V30 8 C 1.7839 1.1374 -0.6159 0
M  V30 9 C 2.0139 -1.2266 0.3983 0
M  V30 10 N -4.9643 0.4941 -1.1045 0
M  V30 11 C -4.4275 -0.8637 0.7809 0
M  V30 12 C 3.2959 1.1609 -0.3709 0
M  V30 13 C 2.6568 -0.4412 1.5468 0
M  V30 14 C -5.3658 -0.1926 -0.0031 0
M  V30 15 C 3.6533 0.6146 1.0264 0
M  V30 16 H -0.4149 -0.2141 0.8546 0
M  V30 17 H 1.2974 -0.7515 -1.5749 0
M  V30 18 H -3.3881 1.1189 -2.3575 0
M  V30 19 H -2.3652 -1.3654 1.0266 0
M  V30 20 H 1.5632 1.5833 -1.6099 0
M  V30 21 H 1.2918 1.7743 0.1528 0
M  V30 22 H 1.3531 -2.0199 0.8114 0
M  V30 23 H 2.8196 -1.7414 -0.1707 0
M  V30 24 H -4.744 -1.4208 1.6533 0
M  V30 25 H 3.797 0.5455 -1.1504 0
M  V30 26 H 3.6737 2.2016 -0.4704 0
M  V30 27 H 1.8564 0.0604 2.1342 0
M  V30 28 H 3.1827 -1.1431 2.2295 0
M  V30 29 H -6.4146 -0.2213 0.2607 0
M  V30 30 H 4.6718 0.1709 0.9839 0
M  V30 31 H 3.69 1.4558 1.7528 0
M  V30 END ATOM
M  V30 BEGIN BOND
M  V30 1 2 1 2
M  V30 2 1 2 3
M  V30 3 1 2 4
M  V30 4 1 3 5
M  V30 5 2 4 6
M  V30 6 1 4 7
M  V30 7 1 5 8
M  V30 8 1 5 9
M  V30 9 1 6 10
M  V30 10 2 7 11
M  V30 11 1 8 12
M  V30 12 1 9 13
M  V30 13 2 10 14
M  V30 14 1 12 15
M  V30 15 1 11 14
M  V30 16 1 13 15
M  V30 17 1 3 16
M  V30 18 1 5 17
M  V30 19 1 6 18
M  V30 20 1 7 19
M  V30 21 1 8 20
M  V30 22 1 8 21
M  V30 23 1 9 22
M  V30 24 1 9 23
M  V30 25 1 11 24
M  V30 26 1 12 25
M  V30 27 1 12 26
M  V30 28 1 13 27
M  V30 29 1 13 28
M  V30 30 1 14 29
M  V30 31 1 15 30
M  V30 32 1 15 31
M  V30 END BOND
M  V30 END CTAB
M  END
>  <Structure No>
4766

>  <LogS>
-2.319

>  <MMFF94 Energy>
12.062

$$$$
Compound 4767
Actelion Java MolfileCreator 2.0

  0  0  0  0  0  0              0 V3000
M  V30 BEGIN CTAB
M  V30 COUNTS 28 29 0 0 0
M  V30 BEGIN ATOM
M  V30 1 O -0.3211 1.4455 2.4102 0
M  V30 2 C -0.2268 1.0541 1.2571 0
M  V30 3 C -0.3593 -0.3783 0.7949 0 CFG=2
M  V30 4 C -0.0853 1.9369 0.0546 0 CFG=1
M  V30 5 C 0.5884 -0.376 -0.4219 0
M  V30 6 C -1.7651 -0.4612 0.1509 0
M  V30 7 C -0.0844 -1.4341 1.8721 0
M  V30 8 O 1.1313 2.6323 0.0778 0
M  V30 9 C -0.1192 0.8479 -1.0613 0 CFG=1
M  V30 10 C 2.0895 -0.1337 -0.0714 0
M  V30 11 C 0.5479 -1.6583 -1.3085 0
M  V30 12 C -1.5972 0.3743 -1.1434 0
M  V30 13 H -0.9348 2.6555 -0.0086 0
M  V30 14 H -2.5468 -0.0253 0.813 0
M  V30 15 H -2.053 -1.5091 -0.0803 0
M  V30 16 H -0.8278 -1.3408 2.692 0
M  V30 17 H -0.162 -2.454 1.4414 0
M  V30 18 H 0.9322 -1.2998 2.2973 0
M  V30 19 H 1.1249 3.2277 -0.7159 0
M  V30 20 H 0.2982 1.1789 -2.0366 0
M  V30 21 H 2.2488 0.5726 0.7666 0
M  V30 22 H 2.6287 0.2488 -0.9639 0
M  V30 23 H 2.575 -1.0814 0.2454 0
M  V30 24 H -0.4635 -1.9897 -1.6057 0
M  V30 25 H 1.0117 -2.5126 -0.7711 0
M  V30 26 H 1.1246 -1.4835 -2.2419 0
M  V30 27 H -1.7731 -0.2393 -2.0521 0
M  V30 28 H -2.3122 1.2255 -1.1723 0
M  V30 END ATOM
M  V30 BEGIN BOND
M  V30 1 2 1 2
M  V30 2 1 2 3
M  V30 3 1 2 4
M  V30 4 1 3 5
M  V30 5 1 3 6
M  V30 6 1 3 7
M  V30 7 1 4 8
M  V30 8 1 4 9
M  V30 9 1 5 10
M  V30 10 1 5 11
M  V30 11 1 6 12
M  V30 12 1 5 9
M  V30 13 1 9 12
M  V30 14 1 4 13
M  V30 15 1 6 14
M  V30 16 1 6 15
M  V30 17 1 7 16
M  V30 18 1 7 17
M  V30 19 1 7 18
M  V30 20 1 8 19
M  V30 21 1 9 20
M  V30 22 1 10 21
M  V30 23 1 10 22
M  V30 24 1 10 23
M  V30 25 1 11 24
M  V30 26 1 11 25
M  V30 27 1 11 26
M  V30 28 1 12 27
M  V30 29 1 12 28
M  V30 END BOND
M  V30 BEGIN COLLECTION
M  V30 MDLV30/STEABS ATOMS=(3 3 4 9)
M  V30 END COLLECTION
M  V30 END CTAB
M  END
>  <Structure No>
4767

>  <LogS>
-0.9249

>  <MMFF94 Energy>
69.143

$$$$
Compound 4768
Actelion Java MolfileCreator 2.0

  0  0  0  0  0  0              0 V3000
M  V30 BEGIN CTAB
M  V30 COUNTS 38 37 0 0 0
M  V30 BEGIN ATOM
M  V30 1 O -2.0178 -0.2326 1.0861 0
M  V30 2 C -3.0869 0.6929 1.0072 0
M  V30 3 C -1.1867 -0.1324 -0.0518 0
M  V30 4 C -4.3493 0.0109 0.4492 0 CFG=1
M  V30 5 C -0.1492 -1.2565 -0.0091 0
M  V30 6 O -4.7383 -1.0473 1.2871 0
M  V30 7 C -5.5081 1.006 0.3232 0
M  V30 8 C 0.6994 -1.3424 -1.2904 0
M  V30 9 O -5.8766 1.4918 1.5853 0
M  V30 10 C 1.5337 -0.0844 -1.6074 0
M  V30 11 C 2.4895 0.3682 -0.4886 0
M  V30 12 C 3.5604 -0.6846 -0.1561 0
M  V30 13 C 4.5496 -0.1995 0.9153 0
M  V30 14 C 5.5355 0.8412 0.3846 0
M  V30 15 H -3.2981 1.0506 2.0376 0
M  V30 16 H -2.8393 1.6023 0.4081 0
M  V30 17 H -0.6606 0.8479 -0.0435 0
M  V30 18 H -1.7804 -0.2294 -0.9895 0
M  V30 19 H -4.1331 -0.3757 -0.5736 0
M  V30 20 H -0.6852 -2.2236 0.11 0
M  V30 21 H 0.5022 -1.1373 0.882 0
M  V30 22 H -4.1556 -1.8202 1.0657 0
M  V30 23 H -6.3768 0.4913 -0.1452 0
M  V30 24 H -5.2068 1.8514 -0.3358 0
M  V30 25 H 1.3715 -2.2232 -1.2166 0
M  V30 26 H 0.0245 -1.5386 -2.152 0
M  V30 27 H -6.622 2.1281 1.4283 0
M  V30 28 H 2.1283 -0.2826 -2.5257 0
M  V30 29 H 0.8499 0.7556 -1.8541 0
M  V30 30 H 2.9862 1.2968 -0.8396 0
M  V30 31 H 1.9164 0.6332 0.4245 0
M  V30 32 H 4.1121 -0.9732 -1.0775 0
M  V30 33 H 3.0628 -1.5947 0.2404 0
M  V30 34 H 3.9981 0.2178 1.786 0
M  V30 35 H 5.1323 -1.0747 1.2761 0
M  V30 36 H 5.0154 1.7892 0.137 0
M  V30 37 H 6.295 1.0598 1.1647 0
M  V30 38 H 6.0578 0.4581 -0.5176 0
M  V30 END ATOM
M  V30 BEGIN BOND
M  V30 1 1 1 2
M  V30 2 1 1 3
M  V30 3 1 2 4
M  V30 4 1 3 5
M  V30 5 1 4 6
M  V30 6 1 4 7
M  V30 7 1 5 8
M  V30 8 1 7 9
M  V30 9 1 8 10
M  V30 10 1 10 11
M  V30 11 1 11 12
M  V30 12 1 12 13
M  V30 13 1 13 14
M  V30 14 1 2 15
M  V30 15 1 2 16
M  V30 16 1 3 17
M  V30 17 1 3 18
M  V30 18 1 4 19
M  V30 19 1 5 20
M  V30 20 1 5 21
M  V30 21 1 6 22
M  V30 22 1 7 23
M  V30 23 1 7 24
M  V30 24 1 8 25
M  V30 25 1 8 26
M  V30 26 1 9 27
M  V30 27 1 10 28
M  V30 28 1 10 29
M  V30 29 1 11 30
M  V30 30 1 11 31
M  V30 31 1 12 32
M  V30 32 1 12 33
M  V30 33 1 13 34
M  V30 34 1 13 35
M  V30 35 1 14 36
M  V30 36 1 14 37
M  V30 37 1 14 38
M  V30 END BOND
M  V30 BEGIN COLLECTION
M  V30 MDLV30/STEABS ATOMS=(1 4)
M  V30 END COLLECTION
M  V30 END CTAB
M  END
>  <Structure No>
4768

>  <LogS>
-1.9208

>  <MMFF94 Energy>
37.281

$$$$
Compound 4769
Actelion Java MolfileCreator 2.0

  0  0  0  0  0  0              0 V3000
M  V30 BEGIN CTAB
M  V30 COUNTS 34 34 0 0 0
M  V30 BEGIN ATOM
M  V30 1 Cl -5.2053 2.8803 1.5994 0
M  V30 2 C -3.9751 1.7436 1.0775 0
M  V30 3 C -4.313 0.6915 0.2218 0
M  V30 4 C -2.658 1.8902 1.5171 0
M  V30 5 C -3.3336 -0.223 -0.2006 0
M  V30 6 C -1.6755 0.9875 1.1038 0
M  V30 7 C -2.0031 -0.0774 0.2408 0
M  V30 8 C -3.7036 -1.3514 -1.1221 0
M  V30 9 O -1.0396 -1.0019 -0.1955 0
M  V30 10 C 0.3364 -0.9695 0.1728 0
M  V30 11 C 1.0724 -2.1206 -0.5159 0
M  V30 12 C 2.5466 -2.2039 -0.0991 0
M  V30 13 C 3.3203 -1.0112 -0.5692 0
M  V30 14 O 3.7186 -0.9546 -1.7647 0
M  V30 15 O 3.5564 0.0465 0.3161 0
M  V30 16 C 4.1479 1.2823 -0.0786 0
M  V30 17 C 3.1392 2.1408 -0.8331 0
M  V30 18 H -5.3382 0.5886 -0.1124 0
M  V30 19 H -2.3935 2.7044 2.1801 0
M  V30 20 H -0.6645 1.1273 1.4612 0
M  V30 21 H -3.4717 -2.3224 -0.6358 0
M  V30 22 H -4.7855 -1.337 -1.3746 0
M  V30 23 H -3.1234 -1.2689 -2.0652 0
M  V30 24 H 0.7777 -4.0E-4 -0.1453 0
M  V30 25 H 0.4271 -1.076 1.2761 0
M  V30 26 H 0.5744 -3.0763 -0.2426 0
M  V30 27 H 0.9981 -2.0026 -1.6194 0
M  V30 28 H 2.9953 -3.1212 -0.5377 0
M  V30 29 H 2.6243 -2.289 1.0065 0
M  V30 30 H 4.4692 1.8282 0.8335 0
M  V30 31 H 5.0471 1.0996 -0.7064 0
M  V30 32 H 2.8247 1.635 -1.7699 0
M  V30 33 H 3.5992 3.1179 -1.0916 0
M  V30 34 H 2.245 2.3201 -0.1989 0
M  V30 END ATOM
M  V30 BEGIN BOND
M  V30 1 1 1 2
M  V30 2 2 2 3
M  V30 3 1 2 4
M  V30 4 1 3 5
M  V30 5 2 4 6
M  V30 6 2 5 7
M  V30 7 1 5 8
M  V30 8 1 7 9
M  V30 9 1 9 10
M  V30 10 1 10 11
M  V30 11 1 11 12
M  V30 12 1 12 13
M  V30 13 2 13 14
M  V30 14 1 13 15
M  V30 15 1 15 16
M  V30 16 1 16 17
M  V30 17 1 6 7
M  V30 18 1 3 18
M  V30 19 1 4 19
M  V30 20 1 6 20
M  V30 21 1 8 21
M  V30 22 1 8 22
M  V30 23 1 8 23
M  V30 24 1 10 24
M  V30 25 1 10 25
M  V30 26 1 11 26
M  V30 27 1 11 27
M  V30 28 1 12 28
M  V30 29 1 12 29
M  V30 30 1 16 30
M  V30 31 1 16 31
M  V30 32 1 17 32
M  V30 33 1 17 33
M  V30 34 1 17 34
M  V30 END BOND
M  V30 END CTAB
M  END
>  <Structure No>
4769

>  <LogS>
-4.4095

>  <MMFF94 Energy>
7.2247

$$$$
Compound 4770
Actelion Java MolfileCreator 2.0

  0  0  0  0  0  0              0 V3000
M  V30 BEGIN CTAB
M  V30 COUNTS 15 15 0 0 0
M  V30 BEGIN ATOM
M  V30 1 Cl -2.1749 -2.8099 0.0905 0
M  V30 2 C -1.3266 -1.262 0.0435 0
M  V30 3 C -2.0538 -0.0655 0.1433 0
M  V30 4 C 0.0743 -1.2253 -0.0874 0
M  V30 5 Cl -3.8091 -0.0877 0.3064 0
M  V30 6 C -1.3854 1.163 0.1287 0
M  V30 7 Cl 0.973 -2.7467 -0.1611 0
M  V30 8 C 0.7505 0.0164 -0.1418 0
M  V30 9 O -2.1112 2.3447 0.2496 0 CHG=-1
M  V30 10 C 0.0085 1.2116 -0.0025 0
M  V30 11 C 2.2556 0.0596 -0.2679 0
M  V30 12 Cl 0.7967 2.7915 0.0319 0
M  V30 13 H 2.6022 0.9947 -0.7522 0
M  V30 14 H 2.7141 -0.0198 0.7397 0
M  V30 15 H 2.6303 -0.766 -0.9064 0
M  V30 END ATOM
M  V30 BEGIN BOND
M  V30 1 1 1 2
M  V30 2 2 2 3
M  V30 3 1 2 4
M  V30 4 1 3 5
M  V30 5 1 3 6
M  V30 6 1 4 7
M  V30 7 2 4 8
M  V30 8 1 6 9
M  V30 9 2 6 10
M  V30 10 1 8 11
M  V30 11 1 10 12
M  V30 12 1 8 10
M  V30 13 1 11 13
M  V30 14 1 11 14
M  V30 15 1 11 15
M  V30 END BOND
M  V30 END CTAB
M  END
>  <Structure No>
4770

>  <LogS>
-4.6021

>  <MMFF94 Energy>
58.053

$$$$
Compound 4771
Actelion Java MolfileCreator 2.0

  0  0  0  0  0  0              0 V3000
M  V30 BEGIN CTAB
M  V30 COUNTS 38 38 0 0 0
M  V30 BEGIN ATOM
M  V30 1 O 1.1985 4.1596 0.0798 0
M  V30 2 N 0.1501 3.5509 -0.2196 0 CHG=1
M  V30 3 O -0.9417 4.2789 -0.6343 0 CHG=-1
M  V30 4 C 0.0834 2.1148 -0.1333 0
M  V30 5 C -1.1003 1.4388 -0.4724 0
M  V30 6 C 1.1984 1.3706 0.2902 0
M  V30 7 C -1.1789 0.0389 -0.3929 0
M  V30 8 C 1.1393 -0.0296 0.3767 0
M  V30 9 C -2.4346 -0.6579 -0.7536 0
M  V30 10 C -0.0539 -0.6875 0.0328 0
M  V30 11 C 2.3227 -0.7987 0.8242 0
M  V30 12 O -2.5035 -1.9162 -0.6832 0
M  V30 13 O -3.5442 0.0833 -1.1805 0
M  V30 14 O 2.2677 -2.0572 0.903 0
M  V30 15 O 3.5019 -0.1244 1.1675 0
M  V30 16 C -4.8099 -0.4968 -1.497 0
M  V30 17 C 4.7064 -0.7844 1.5574 0
M  V30 18 C -5.5526 -0.8779 -0.2132 0
M  V30 19 C -5.6251 0.5088 -2.3072 0
M  V30 20 C 5.4008 -1.3848 0.3318 0
M  V30 21 C 5.6208 0.225 2.2484 0
M  V30 22 H -1.9626 2.0059 -0.7989 0
M  V30 23 H 2.1139 1.8856 0.5529 0
M  V30 24 H -0.1071 -1.7673 0.0968 0
M  V30 25 H -4.6623 -1.4057 -2.1218 0
M  V30 26 H 4.4742 -1.5946 2.2841 0
M  V30 27 H -4.9762 -1.6394 0.352 0
M  V30 28 H -5.6911 0.015 0.4332 0
M  V30 29 H -6.5476 -1.3076 -0.4575 0
M  V30 30 H -5.0781 0.771 -3.2375 0
M  V30 31 H -6.6077 0.0727 -2.5881 0
M  V30 32 H -5.7927 1.4369 -1.7194 0
M  V30 33 H 5.6221 -0.5919 -0.4142 0
M  V30 34 H 4.7493 -2.1474 -0.143 0
M  V30 35 H 6.3503 -1.878 0.6308 0
M  V30 36 H 5.8748 1.0566 1.5566 0
M  V30 37 H 5.1074 0.6471 3.1384 0
M  V30 38 H 6.5575 -0.2689 2.5845 0
M  V30 END ATOM
M  V30 BEGIN BOND
M  V30 1 2 1 2
M  V30 2 1 2 3
M  V30 3 1 2 4
M  V30 4 2 4 5
M  V30 5 1 4 6
M  V30 6 1 5 7
M  V30 7 2 6 8
M  V30 8 1 7 9
M  V30 9 2 7 10
M  V30 10 1 8 11
M  V30 11 2 9 12
M  V30 12 1 9 13
M  V30 13 2 11 14
M  V30 14 1 11 15
M  V30 15 1 13 16
M  V30 16 1 15 17
M  V30 17 1 16 18
M  V30 18 1 16 19
M  V30 19 1 17 20
M  V30 20 1 17 21
M  V30 21 1 8 10
M  V30 22 1 5 22
M  V30 23 1 6 23
M  V30 24 1 10 24
M  V30 25 1 16 25
M  V30 26 1 17 26
M  V30 27 1 18 27
M  V30 28 1 18 28
M  V30 29 1 18 29
M  V30 30 1 19 30
M  V30 31 1 19 31
M  V30 32 1 19 32
M  V30 33 1 20 33
M  V30 34 1 20 34
M  V30 35 1 20 35
M  V30 36 1 21 36
M  V30 37 1 21 37
M  V30 38 1 21 38
M  V30 END BOND
M  V30 END CTAB
M  END
>  <Structure No>
4771

>  <LogS>
-5.0389

>  <MMFF94 Energy>
45.763

$$$$
Compound 4772
Actelion Java MolfileCreator 2.0

  0  0  0  0  0  0              0 V3000
M  V30 BEGIN CTAB
M  V30 COUNTS 95 102 0 0 0
M  V30 BEGIN ATOM
M  V30 1 O -1.5568 3.3618 1.3109 0
M  V30 2 C -2.4372 3.0578 0.4632 0
M  V30 3 O -2.9244 1.7469 0.4011 0
M  V30 4 C -2.9671 4.0653 -0.4941 0
M  V30 5 C -2.4137 0.6514 1.1688 0 CFG=2
M  V30 6 C -2.5815 5.3598 -0.5256 0
M  V30 7 C -3.9539 3.5847 -1.5258 0
M  V30 8 C -1.4013 -0.2311 0.3242 0 CFG=1
M  V30 9 C -3.6388 -0.1878 1.7197 0
M  V30 10 C -1.6093 5.9987 0.4173 0
M  V30 11 C -0.0895 0.4866 -0.1612 0 CFG=1
M  V30 12 C -1.138 -1.4377 1.2683 0 CFG=1
M  V30 13 C -2.0574 -0.5305 -1.0287 0
M  V30 14 C -3.3032 -1.5783 2.3792 0 CFG=2
M  V30 15 C 1.3017 -0.2808 0.1541 0 CFG=2
M  V30 16 C -0.4586 0.9178 -1.6468 0 CFG=1
M  V30 17 C -2.3122 -2.3873 1.4722 0 CFG=1
M  V30 18 C 0.1067 -2.288 1.2473 0 CFG=2
M  V30 19 O -1.7992 0.5544 -1.8685 0
M  V30 20 O -4.5161 -2.2997 2.6119 0
M  V30 21 C 2.5137 0.2055 -0.7656 0 CFG=2
M  V30 22 C 1.0776 -1.8636 0.1399 0 CFG=1
M  V30 23 C 1.7435 0.1347 1.594 0
M  V30 24 O -0.3806 2.3226 -1.7255 0
M  V30 25 C 0.3288 0.3228 -2.8069 0
M  V30 26 C -2.9846 -2.9432 0.2106 0
M  V30 27 C -1.5246 -3.5639 2.0592 0
M  V30 28 O -0.322 -3.6295 1.2939 0
M  V30 29 C -4.6389 -3.3278 3.5537 0
M  V30 30 O 2.8297 -0.6697 -1.8293 0
M  V30 31 C 3.8523 -0.4521 -0.8759 0 CFG=1
M  V30 32 C 2.8478 1.6981 -1.0611 0 CFG=1
M  V30 33 O 0.6306 -2.3221 -1.1031 0
M  V30 34 O 0.1346 -0.8704 -3.16 0
M  V30 35 O 1.1338 1.148 -3.6001 0
M  V30 36 O -4.2169 -2.7641 -5.0E-4 0
M  V30 37 O -2.233 -3.6996 -0.6985 0
M  V30 38 O -3.6802 -3.6264 4.3146 0
M  V30 39 C -5.9378 -4.045 3.6933 0
M  V30 40 C 4.8789 0.6194 -1.3233 0 CFG=1
M  V30 41 C 4.3343 -1.7909 -0.3005 0
M  V30 42 O 3.1701 2.4108 0.128 0
M  V30 43 C 4.0364 1.6729 -2.0148 0
M  V30 44 C 1.714 0.7032 -4.8202 0
M  V30 45 C -2.7958 -4.2539 -1.8832 0
M  V30 46 C 5.5289 1.3496 -0.1242 0 CFG=2
M  V30 47 C 4.5008 2.2604 0.6446 0 CFG=2
M  V30 48 O 6.6193 2.1098 -0.5968 0
M  V30 49 C 5.9978 0.4183 0.9537 0
M  V30 50 O 4.4512 1.6919 1.944 0
M  V30 51 C 5.3558 0.6556 2.0792 0
M  V30 52 H -1.8837 1.0522 2.0611 0
M  V30 53 H -3.0065 6.0181 -1.2744 0
M  V30 54 H -3.4249 2.9744 -2.2866 0
M  V30 55 H -4.4661 4.425 -2.0425 0
M  V30 56 H -4.7394 2.9619 -1.0477 0
M  V30 57 H -4.3745 -0.3407 0.9018 0
M  V30 58 H -4.1665 0.4306 2.4781 0
M  V30 59 H -1.9742 5.9131 1.4627 0
M  V30 60 H -1.5127 7.079 0.1728 0
M  V30 61 H -0.6095 5.5299 0.3113 0
M  V30 62 H -0.0353 1.4344 0.4137 0
M  V30 63 H -0.9716 -0.9502 2.2604 0
M  V30 64 H -3.1569 -0.6434 -0.9734 0
M  V30 65 H -1.6472 -1.4456 -1.4935 0
M  V30 66 H -2.8322 -1.3621 3.366 0
M  V30 67 H 0.6856 -2.1719 2.1976 0
M  V30 68 H 2.0155 -2.3764 0.3964 0
M  V30 69 H 1.9317 1.2159 1.6687 0
M  V30 70 H 0.9683 -0.0142 2.3597 0
M  V30 71 H 2.6512 -0.418 1.9089 0
M  V30 72 H -0.8008 2.6117 -2.5782 0
M  V30 73 H -2.0781 -4.5268 1.9865 0
M  V30 74 H -1.2822 -3.3971 3.1344 0
M  V30 75 H 2.0167 2.2217 -1.5527 0
M  V30 76 H 0.8673 -3.2842 -1.1659 0
M  V30 77 H -5.7555 -5.1227 3.8901 0
M  V30 78 H -6.5324 -3.9505 2.7578 0
M  V30 79 H -6.5122 -3.6118 4.539 0
M  V30 80 H 5.6423 0.193 -2.0101 0
M  V30 81 H 4.1844 -1.8264 0.7988 0
M  V30 82 H 3.8398 -2.6549 -0.7954 0
M  V30 83 H 5.4201 -1.9134 -0.4972 0
M  V30 84 H 4.5266 2.6688 -2.1065 0
M  V30 85 H 3.7469 1.3333 -3.0302 0
M  V30 86 H 2.3332 1.5188 -5.2515 0
M  V30 87 H 0.9138 0.4352 -5.5437 0
M  V30 88 H 2.3619 -0.1798 -4.6352 0
M  V30 89 H -2.0015 -4.7831 -2.4468 0
M  V30 90 H -3.2077 -3.4422 -2.5187 0
M  V30 91 H -3.5994 -4.9768 -1.6214 0
M  V30 92 H 4.9241 3.2831 0.7476 0
M  V30 93 H 7.0588 2.5479 0.1802 0
M  V30 94 H 6.7569 -0.3407 0.836 0
M  V30 95 H 5.5099 0.1056 2.9988 0
M  V30 END ATOM
M  V30 BEGIN BOND
M  V30 1 2 1 2
M  V30 2 1 2 3
M  V30 3 1 2 4
M  V30 4 1 3 5
M  V30 5 2 4 6
M  V30 6 1 4 7
M  V30 7 1 5 8
M  V30 8 1 5 9
M  V30 9 1 6 10
M  V30 10 1 8 11
M  V30 11 1 8 12
M  V30 12 1 8 13
M  V30 13 1 9 14
M  V30 14 1 11 15
M  V30 15 1 11 16
M  V30 16 1 12 17
M  V30 17 1 12 18
M  V30 18 1 13 19
M  V30 19 1 14 20
M  V30 20 1 15 21
M  V30 21 1 15 22
M  V30 22 1 15 23
M  V30 23 1 16 24
M  V30 24 1 16 25
M  V30 25 1 17 26
M  V30 26 1 17 27
M  V30 27 1 18 28
M  V30 28 1 20 29
M  V30 29 1 21 30
M  V30 30 1 21 31
M  V30 31 1 21 32
M  V30 32 1 22 33
M  V30 33 2 25 34
M  V30 34 1 25 35
M  V30 35 2 26 36
M  V30 36 1 26 37
M  V30 37 2 29 38
M  V30 38 1 29 39
M  V30 39 1 31 40
M  V30 40 1 31 41
M  V30 41 1 32 42
M  V30 42 1 32 43
M  V30 43 1 35 44
M  V30 44 1 37 45
M  V30 45 1 40 46
M  V30 46 1 42 47
M  V30 47 1 46 48
M  V30 48 1 46 49
M  V30 49 1 47 50
M  V30 50 2 49 51
M  V30 51 1 14 17
M  V30 52 1 16 19
M  V30 53 1 18 22
M  V30 54 1 27 28
M  V30 55 1 30 31
M  V30 56 1 40 43
M  V30 57 1 46 47
M  V30 58 1 50 51
M  V30 59 1 5 52
M  V30 60 1 6 53
M  V30 61 1 7 54
M  V30 62 1 7 55
M  V30 63 1 7 56
M  V30 64 1 9 57
M  V30 65 1 9 58
M  V30 66 1 10 59
M  V30 67 1 10 60
M  V30 68 1 10 61
M  V30 69 1 11 62
M  V30 70 1 12 63
M  V30 71 1 13 64
M  V30 72 1 13 65
M  V30 73 1 14 66
M  V30 74 1 18 67
M  V30 75 1 22 68
M  V30 76 1 23 69
M  V30 77 1 23 70
M  V30 78 1 23 71
M  V30 79 1 24 72
M  V30 80 1 27 73
M  V30 81 1 27 74
M  V30 82 1 32 75
M  V30 83 1 33 76
M  V30 84 1 39 77
M  V30 85 1 39 78
M  V30 86 1 39 79
M  V30 87 1 40 80
M  V30 88 1 41 81
M  V30 89 1 41 82
M  V30 90 1 41 83
M  V30 91 1 43 84
M  V30 92 1 43 85
M  V30 93 1 44 86
M  V30 94 1 44 87
M  V30 95 1 44 88
M  V30 96 1 45 89
M  V30 97 1 45 90
M  V30 98 1 45 91
M  V30 99 1 47 92
M  V30 100 1 48 93
M  V30 101 1 49 94
M  V30 102 1 51 95
M  V30 END BOND
M  V30 BEGIN COLLECTION
M  V30 MDLV30/STEABS ATOMS=(16 5 8 11 12 14 15 16 17 18 21 22 31 32 40 46 47)
M  V30 END COLLECTION
M  V30 END CTAB
M  END
>  <Structure No>
4772

>  <LogS>
-3.4428

>  <MMFF94 Energy>
256.48

$$$$
Compound 4773
Actelion Java MolfileCreator 2.0

  0  0  0  0  0  0              0 V3000
M  V30 BEGIN CTAB
M  V30 COUNTS 14 14 0 0 0
M  V30 BEGIN ATOM
M  V30 1 C 0.5432 0.0 0.0 0
M  V30 2 C -0.2002 1.2466 0.0198 0
M  V30 3 C -0.3051 -1.0163 -0.0259 0
M  V30 4 C 2.0289 -0.1192 -0.0991 0
M  V30 5 C -1.493 0.9667 0.0294 0
M  V30 6 C -1.7106 -0.5119 0.0071 0
M  V30 7 H 0.2212 2.2433 0.0236 0
M  V30 8 H -0.0178 -2.0586 -0.0795 0
M  V30 9 H 2.3223 -0.2181 -1.165 0
M  V30 10 H 2.3815 -1.0102 0.4624 0
M  V30 11 H 2.5118 0.7845 0.3283 0
M  V30 12 H -2.2774 1.7118 0.0449 0
M  V30 13 H -2.2608 -0.8159 -0.908 0
M  V30 14 H -2.2311 -0.8498 0.9278 0
M  V30 END ATOM
M  V30 BEGIN BOND
M  V30 1 1 1 2
M  V30 2 2 1 3
M  V30 3 1 1 4
M  V30 4 2 2 5
M  V30 5 1 3 6
M  V30 6 1 5 6
M  V30 7 1 2 7
M  V30 8 1 3 8
M  V30 9 1 4 9
M  V30 10 1 4 10
M  V30 11 1 4 11
M  V30 12 1 5 12
M  V30 13 1 6 13
M  V30 14 1 6 14
M  V30 END BOND
M  V30 END CTAB
M  END
>  <Structure No>
4773

>  <LogS>
-3.8762

>  <MMFF94 Energy>
11.25

$$$$
Compound 4774
Actelion Java MolfileCreator 2.0

  0  0  0  0  0  0              0 V3000
M  V30 BEGIN CTAB
M  V30 COUNTS 29 29 0 0 0
M  V30 BEGIN ATOM
M  V30 1 O 2.5158 -0.0785 1.2573 0
M  V30 2 C 2.5342 -0.1738 -6.0E-4 0
M  V30 3 O 1.3586 -0.0277 -0.7481 0
M  V30 4 N 3.773 -0.3774 -0.6859 0
M  V30 5 C 0.0537 -0.0863 -0.2305 0
M  V30 6 C 5.0355 -0.5184 0.0282 0
M  V30 7 C -0.9682 0.676 -0.8391 0
M  V30 8 C -0.2567 -0.925 0.8539 0
M  V30 9 C -2.2787 0.6444 -0.2993 0
M  V30 10 C -0.6429 1.5696 -2.0133 0
M  V30 11 C -1.5537 -0.9696 1.3755 0
M  V30 12 C -2.5598 -0.1942 0.7904 0
M  V30 13 C -3.3951 1.4643 -0.8938 0
M  V30 14 C -1.8803 -1.9009 2.5061 0
M  V30 15 H 3.7701 -0.4305 -1.7292 0
M  V30 16 H 4.9869 -1.394 0.7093 0
M  V30 17 H 5.2396 0.4002 0.6174 0
M  V30 18 H 5.863 -0.672 -0.696 0
M  V30 19 H 0.5038 -1.5669 1.2785 0
M  V30 20 H -1.4379 1.5063 -2.7848 0
M  V30 21 H 0.305 1.2791 -2.5109 0
M  V30 22 H -0.5532 2.6198 -1.6652 0
M  V30 23 H -3.5676 -0.2467 1.1859 0
M  V30 24 H -4.2913 1.472 -0.2374 0
M  V30 25 H -3.6865 1.0399 -1.8772 0
M  V30 26 H -3.0704 2.5175 -1.0266 0
M  V30 27 H -2.1814 -2.8875 2.0963 0
M  V30 28 H -0.9994 -2.0374 3.1691 0
M  V30 29 H -2.7114 -1.4951 3.1216 0
M  V30 END ATOM
M  V30 BEGIN BOND
M  V30 1 2 1 2
M  V30 2 1 2 3
M  V30 3 1 2 4
M  V30 4 1 3 5
M  V30 5 1 4 6
M  V30 6 2 5 7
M  V30 7 1 5 8
M  V30 8 1 7 9
M  V30 9 1 7 10
M  V30 10 2 8 11
M  V30 11 2 9 12
M  V30 12 1 9 13
M  V30 13 1 11 14
M  V30 14 1 11 12
M  V30 15 1 4 15
M  V30 16 1 6 16
M  V30 17 1 6 17
M  V30 18 1 6 18
M  V30 19 1 8 19
M  V30 20 1 10 20
M  V30 21 1 10 21
M  V30 22 1 10 22
M  V30 23 1 12 23
M  V30 24 1 13 24
M  V30 25 1 13 25
M  V30 26 1 13 26
M  V30 27 1 14 27
M  V30 28 1 14 28
M  V30 29 1 14 29
M  V30 END BOND
M  V30 END CTAB
M  END
>  <Structure No>
4774

>  <LogS>
-1.9851

>  <MMFF94 Energy>


$$$$
Compound 4775
Actelion Java MolfileCreator 2.0

  0  0  0  0  0  0              0 V3000
M  V30 BEGIN CTAB
M  V30 COUNTS 35 37 0 0 0
M  V30 BEGIN ATOM
M  V30 1 O 4.5057 -0.8034 -0.482 0
M  V30 2 C 3.1337 -0.6471 -0.2343 0
M  V30 3 C 5.5149 0.0782 -5.0E-4 0
M  V30 4 C 2.2502 -1.5888 -0.7689 0
M  V30 5 C 2.6209 0.4151 0.5302 0
M  V30 6 C 0.8734 -1.4791 -0.5542 0
M  V30 7 C 1.2452 0.5275 0.747 0
M  V30 8 C 0.3459 -0.407 0.1975 0
M  V30 9 C -1.1579 -0.2445 0.4831 0 CFG=1
M  V30 10 O -1.3657 -0.3282 1.88 0
M  V30 11 C -1.612 1.1296 -0.0108 0
M  V30 12 C -2.0324 -1.2876 -0.2796 0
M  V30 13 C -2.424 1.9727 0.7701 0
M  V30 14 C -1.2917 1.5708 -1.3082 0
M  V30 15 C -2.3729 -2.609 0.4005 0
M  V30 16 C -3.4335 -1.525 0.2718 0
M  V30 17 N -2.8367 3.171 0.2827 0
M  V30 18 N -1.728 2.7773 -1.7516 0
M  V30 19 C -2.4899 3.577 -0.9643 0
M  V30 20 H 5.5096 0.0944 1.1098 0
M  V30 21 H 5.3494 1.1017 -0.3987 0
M  V30 22 H 6.5055 -0.2816 -0.3459 0
M  V30 23 H 2.6341 -2.4154 -1.3532 0
M  V30 24 H 3.2761 1.1579 0.9642 0
M  V30 25 H 0.2359 -2.2408 -0.9796 0
M  V30 26 H 0.8764 1.3513 1.3461 0
M  V30 27 H -0.8128 -1.0682 2.2445 0
M  V30 28 H -1.9856 -1.3227 -1.3902 0
M  V30 29 H -2.7367 1.6843 1.7644 0
M  V30 30 H -0.6958 0.9535 -1.9677 0
M  V30 31 H -2.5247 -3.4595 -0.2969 0
M  V30 32 H -2.0273 -2.7686 1.441 0
M  V30 33 H -3.6874 -1.0252 1.2304 0
M  V30 34 H -4.2025 -1.7412 -0.4996 0
M  V30 35 H -2.8281 4.5353 -1.334 0
M  V30 END ATOM
M  V30 BEGIN BOND
M  V30 1 1 1 2
M  V30 2 1 1 3
M  V30 3 2 2 4
M  V30 4 1 2 5
M  V30 5 1 4 6
M  V30 6 2 5 7
M  V30 7 2 6 8
M  V30 8 1 8 9
M  V30 9 1 9 10
M  V30 10 1 9 11
M  V30 11 1 9 12
M  V30 12 2 11 13
M  V30 13 1 11 14
M  V30 14 1 12 15
M  V30 15 1 12 16
M  V30 16 1 13 17
M  V30 17 2 14 18
M  V30 18 2 17 19
M  V30 19 1 7 8
M  V30 20 1 15 16
M  V30 21 1 18 19
M  V30 22 1 3 20
M  V30 23 1 3 21
M  V30 24 1 3 22
M  V30 25 1 4 23
M  V30 26 1 5 24
M  V30 27 1 6 25
M  V30 28 1 7 26
M  V30 29 1 10 27
M  V30 30 1 12 28
M  V30 31 1 13 29
M  V30 32 1 14 30
M  V30 33 1 15 31
M  V30 34 1 15 32
M  V30 35 1 16 33
M  V30 36 1 16 34
M  V30 37 1 19 35
M  V30 END BOND
M  V30 BEGIN COLLECTION
M  V30 MDLV30/STEABS ATOMS=(1 9)
M  V30 END COLLECTION
M  V30 END CTAB
M  END
>  <Structure No>
4775

>  <LogS>
-2.5959

>  <MMFF94 Energy>
44.966

$$$$
Compound 4776
Actelion Java MolfileCreator 2.0

  0  0  0  0  0  0              0 V3000
M  V30 BEGIN CTAB
M  V30 COUNTS 32 31 0 0 0
M  V30 BEGIN ATOM
M  V30 1 O 1.6267 0.6194 0.0 0
M  V30 2 C 2.9391 0.2553 0.3928 0
M  V30 3 C 0.6755 0.358 1.0189 0
M  V30 4 C 3.7021 -0.2086 -0.8469 0
M  V30 5 C 3.6433 1.4594 1.026 0
M  V30 6 C -0.0918 -0.9449 0.7382 0
M  V30 7 O 0.7924 -2.0323 0.8135 0
M  V30 8 C -0.7764 -0.9263 -0.6431 0
M  V30 9 O -1.6428 0.1875 -0.7694 0
M  V30 10 C -2.9536 -0.1132 -0.319 0
M  V30 11 C -3.5195 1.1211 0.3816 0
M  V30 12 C -3.8319 -0.4922 -1.5145 0
M  V30 13 H 2.956 -0.5947 1.1158 0
M  V30 14 H -0.0471 1.2014 1.0353 0
M  V30 15 H 1.1123 0.3258 2.0449 0
M  V30 16 H 3.1884 -1.0859 -1.2946 0
M  V30 17 H 3.745 0.6028 -1.6049 0
M  V30 18 H 4.7371 -0.5083 -0.5754 0
M  V30 19 H 3.6682 2.3127 0.3148 0
M  V30 20 H 3.1045 1.7782 1.9429 0
M  V30 21 H 4.6837 1.1923 1.3097 0
M  V30 22 H -0.8702 -1.0498 1.529 0
M  V30 23 H 0.2368 -2.8479 0.9248 0
M  V30 24 H 0.0025 -0.846 -1.4309 0
M  V30 25 H -1.2943 -1.896 -0.8311 0
M  V30 26 H -2.9837 -0.9467 0.4231 0
M  V30 27 H -3.5426 1.988 -0.3133 0
M  V30 28 H -4.5492 0.9209 0.7481 0
M  V30 29 H -2.8811 1.3812 1.2527 0
M  V30 30 H -3.4317 -1.4036 -2.0061 0
M  V30 31 H -3.852 0.3325 -2.2588 0
M  V30 32 H -4.8696 -0.7044 -1.1791 0
M  V30 END ATOM
M  V30 BEGIN BOND
M  V30 1 1 1 2
M  V30 2 1 1 3
M  V30 3 1 2 4
M  V30 4 1 2 5
M  V30 5 1 3 6
M  V30 6 1 6 7
M  V30 7 1 6 8
M  V30 8 1 8 9
M  V30 9 1 9 10
M  V30 10 1 10 11
M  V30 11 1 10 12
M  V30 12 1 2 13
M  V30 13 1 3 14
M  V30 14 1 3 15
M  V30 15 1 4 16
M  V30 16 1 4 17
M  V30 17 1 4 18
M  V30 18 1 5 19
M  V30 19 1 5 20
M  V30 20 1 5 21
M  V30 21 1 6 22
M  V30 22 1 7 23
M  V30 23 1 8 24
M  V30 24 1 8 25
M  V30 25 1 10 26
M  V30 26 1 11 27
M  V30 27 1 11 28
M  V30 28 1 11 29
M  V30 29 1 12 30
M  V30 30 1 12 31
M  V30 31 1 12 32
M  V30 END BOND
M  V30 END CTAB
M  END
>  <Structure No>
4776

>  <LogS>
0.0549

>  <MMFF94 Energy>
50.747

$$$$
Compound 4777
Actelion Java MolfileCreator 2.0

  0  0  0  0  0  0              0 V3000
M  V30 BEGIN CTAB
M  V30 COUNTS 20 20 0 0 0
M  V30 BEGIN ATOM
M  V30 1 O -3.5525 -0.8065 -1.9365 0
M  V30 2 C -2.6717 -1.2584 -1.158 0
M  V30 3 O -2.8189 -2.5496 -0.6638 0 CHG=-1
M  V30 4 C -1.4962 -0.4361 -0.7699 0
M  V30 5 C -1.3147 0.8791 -1.2526 0
M  V30 6 C -0.5344 -0.9797 0.1031 0
M  V30 7 O -2.2428 1.457 -2.1192 0
M  V30 8 C -0.1915 1.617 -0.8598 0
M  V30 9 C 0.5956 -0.2392 0.4991 0
M  V30 10 C 0.7536 1.0671 0.0052 0
M  V30 11 C 1.5955 -0.8412 1.4236 0
M  V30 12 O 1.4265 -2.016 1.8503 0
M  V30 13 C 2.8137 -0.0905 1.8721 0
M  V30 14 H -0.6655 -1.987 0.4781 0
M  V30 15 H -2.1266 2.3991 -2.474 0
M  V30 16 H -0.0491 2.6254 -1.2278 0
M  V30 17 H 1.6061 1.6724 0.2826 0
M  V30 18 H 3.4271 -0.7154 2.556 0
M  V30 19 H 3.4351 0.1799 0.9929 0
M  V30 20 H 2.5113 0.8294 2.415 0
M  V30 END ATOM
M  V30 BEGIN BOND
M  V30 1 2 1 2
M  V30 2 1 2 3
M  V30 3 1 2 4
M  V30 4 2 4 5
M  V30 5 1 4 6
M  V30 6 1 5 7
M  V30 7 1 5 8
M  V30 8 2 6 9
M  V30 9 2 8 10
M  V30 10 1 9 11
M  V30 11 2 11 12
M  V30 12 1 11 13
M  V30 13 1 9 10
M  V30 14 1 6 14
M  V30 15 1 7 15
M  V30 16 1 8 16
M  V30 17 1 10 17
M  V30 18 1 13 18
M  V30 19 1 13 19
M  V30 20 1 13 20
M  V30 END BOND
M  V30 END CTAB
M  END
>  <Structure No>
4777

>  <LogS>
-2.2304

>  <MMFF94 Energy>
21.161

$$$$
Compound 4778
Actelion Java MolfileCreator 2.0

  0  0  0  0  0  0              0 V3000
M  V30 BEGIN CTAB
M  V30 COUNTS 11 10 0 0 0
M  V30 BEGIN ATOM
M  V30 1 Cl -0.1835 1.0098 1.8365 0
M  V30 2 C -0.0039 0.4932 0.1306 0
M  V30 3 Cl 0.3269 1.9348 -0.8802 0
M  V30 4 C -1.3032 -0.1822 -0.3435 0
M  V30 5 C 1.1664 -0.4995 0.0126 0
M  V30 6 Cl -2.7181 0.9071 -0.2383 0
M  V30 7 Cl 2.7199 0.2085 0.5456 0
M  V30 8 H -1.513 -1.08 0.2769 0
M  V30 9 H -1.1978 -0.5089 -1.4001 0
M  V30 10 H 1.2812 -0.8275 -1.0427 0
M  V30 11 H 0.966 -1.3984 0.6344 0
M  V30 END ATOM
M  V30 BEGIN BOND
M  V30 1 1 1 2
M  V30 2 1 2 3
M  V30 3 1 2 4
M  V30 4 1 2 5
M  V30 5 1 4 6
M  V30 6 1 5 7
M  V30 7 1 4 8
M  V30 8 1 4 9
M  V30 9 1 5 10
M  V30 10 1 5 11
M  V30 END BOND
M  V30 END CTAB
M  END
>  <Structure No>
4778

>  <LogS>
-2.5785

>  <MMFF94 Energy>
27.641

$$$$
Compound 4779
Actelion Java MolfileCreator 2.0

  0  0  0  0  0  0              0 V3000
M  V30 BEGIN CTAB
M  V30 COUNTS 105 111 0 0 0
M  V30 BEGIN ATOM
M  V30 1 O 12.0292 1.7812 2.8349 0
M  V30 2 C 10.8614 1.9268 2.3836 0
M  V30 3 O 10.1154 3.0796 2.5104 0
M  V30 4 C 10.117 0.906 1.6965 0
M  V30 5 C 8.8602 2.8822 1.8655 0
M  V30 6 C 8.9357 1.4424 1.3744 0
M  V30 7 C 7.9068 0.8462 0.4283 0 CFG=2
M  V30 8 C 6.7934 -0.024 1.0746 0 CFG=2
M  V30 9 C 8.4997 -0.0085 -0.6766 0
M  V30 10 C 6.2723 -0.9351 -0.1199 0 CFG=1
M  V30 11 C 5.6542 0.8892 1.6332 0
M  V30 12 C 7.3769 -0.8717 2.2494 0
M  V30 13 C 7.3005 -0.7336 -1.2612 0
M  V30 14 O 6.2899 -2.3144 0.2122 0
M  V30 15 C 4.8403 -0.522 -0.6368 0 CFG=2
M  V30 16 C 4.3398 0.129 1.8328 0
M  V30 17 C 3.7857 -0.4667 0.4985 0 CFG=1
M  V30 18 C 4.3379 -1.4571 -1.7785 0
M  V30 19 C 2.3651 0.0995 0.0098 0 CFG=1
M  V30 20 C 2.8437 -1.3106 -2.1046 0
M  V30 21 C 2.2155 0.0173 -1.5641 0 CFG=2
M  V30 22 C 1.3081 -0.8145 0.6734 0
M  V30 23 C 2.101 1.5666 0.4712 0
M  V30 24 O 2.8441 1.1434 -2.1521 0
M  V30 25 C 0.7297 0.1033 -2.0211 0
M  V30 26 C -0.1279 -0.4602 0.3139 0
M  V30 27 C -0.3786 -0.5997 -1.2142 0 CFG=1
M  V30 28 O -1.5909 0.0278 -1.6304 0
M  V30 29 C -2.7808 -0.4783 -1.0561 0 CFG=1
M  V30 30 O -3.777 0.5264 -1.236 0
M  V30 31 C -3.2462 -1.7881 -1.7316 0 CFG=1
M  V30 32 C -4.9236 0.2918 -0.4383 0 CFG=2
M  V30 33 O -2.745 -2.8885 -0.998 0
M  V30 34 C -4.7979 -1.8607 -1.795 0 CFG=1
M  V30 35 C -5.4225 -1.1782 -0.5509 0 CFG=1
M  V30 36 C -6.0117 1.302 -0.8549 0
M  V30 37 O -5.2191 -1.1686 -2.9546 0
M  V30 38 O -5.0879 -1.8737 0.6298 0
M  V30 39 O -6.669 1.8664 0.2673 0
M  V30 40 C -6.3858 -1.7464 -3.495 0
M  V30 41 C -7.9377 1.2837 0.4834 0 CFG=2
M  V30 42 C -9.0527 2.1442 -0.1331 0 CFG=2
M  V30 43 C -8.1932 1.1838 2.0074 0 CFG=1
M  V30 44 O -9.1256 3.4159 0.4693 0
M  V30 45 C -10.3991 1.4351 0.0575 0
M  V30 46 O -9.5753 1.194 2.3795 0
M  V30 47 C -7.4783 -0.0227 2.6045 0
M  V30 48 C -10.4475 0.652 1.3914 0 CFG=2
M  V30 49 O -10.1397 -0.6962 1.1635 0
M  V30 50 H 10.4984 -0.0811 1.4401 0
M  V30 51 H 8.0429 3.0071 2.5997 0
M  V30 52 H 8.7454 3.5915 1.0218 0
M  V30 53 H 7.4031 1.6981 -0.097 0
M  V30 54 H 9.2049 -0.7772 -0.2751 0
M  V30 55 H 8.9994 0.62 -1.4402 0
M  V30 56 H 5.4542 1.7436 0.9386 0
M  V30 57 H 5.9508 1.3356 2.6173 0
M  V30 58 H 7.7014 -0.2161 3.0921 0
M  V30 59 H 6.6195 -1.5449 2.6837 0
M  V30 60 H 8.2385 -1.4753 1.902 0
M  V30 61 H 7.6106 -1.6955 -1.7341 0
M  V30 62 H 6.8883 -0.0956 -2.0688 0
M  V30 63 H 5.6201 -2.4886 0.927 0
M  V30 64 H 4.9326 0.5104 -1.0365 0
M  V30 65 H 4.5245 -0.6924 2.569 0
M  V30 66 H 3.6125 0.79 2.3346 0
M  V30 67 H 3.6298 -1.534 0.733 0
M  V30 68 H 4.925 -1.2524 -2.7004 0
M  V30 69 H 4.5333 -2.5178 -1.5076 0
M  V30 70 H 2.3067 -2.1949 -1.7337 0
M  V30 71 H 2.745 -1.3396 -3.2035 0
M  V30 72 H 1.4827 -1.8641 0.401 0
M  V30 73 H 1.4066 -0.7769 1.7681 0
M  V30 74 H 1.2912 2.0476 -0.1212 0
M  V30 75 H 3.0112 2.1874 0.3366 0
M  V30 76 H 1.7678 1.622 1.5284 0
M  V30 77 H 3.5353 0.8718 -2.8051 0
M  V30 78 H 0.6725 -0.2864 -3.0678 0
M  V30 79 H 0.4505 1.1778 -2.1188 0
M  V30 80 H -0.7517 -1.2036 0.8469 0
M  V30 81 H -0.3907 0.5645 0.6854 0
M  V30 82 H -0.4086 -1.6786 -1.4937 0
M  V30 83 H -2.6401 -0.6454 0.0314 0
M  V30 84 H -2.8382 -1.8291 -2.7674 0
M  V30 85 H -4.6432 0.5207 0.6132 0
M  V30 86 H -2.7684 -3.6787 -1.604 0
M  V30 87 H -5.1009 -2.9487 -1.8097 0
M  V30 88 H -6.5161 -1.2236 -0.6474 0
M  V30 89 H -6.7018 0.8707 -1.6172 0
M  V30 90 H -5.5254 2.1341 -1.3826 0
M  V30 91 H -5.4696 -2.785 0.5343 0
M  V30 92 H -7.2402 -1.6977 -2.7739 0
M  V30 93 H -6.1841 -2.8028 -3.8323 0
M  V30 94 H -6.6761 -1.1553 -4.393 0
M  V30 95 H -8.0149 0.2694 0.0516 0
M  V30 96 H -8.8697 2.2697 -1.2262 0
M  V30 97 H -7.7533 2.1006 2.4713 0
M  V30 98 H -8.1945 3.7805 0.5039 0
M  V30 99 H -10.5551 0.7201 -0.7852 0
M  V30 100 H -11.2121 2.1824 0.0302 0
M  V30 101 H -6.3826 0.109 2.49 0
M  V30 102 H -7.7211 -0.0899 3.6822 0
M  V30 103 H -7.7739 -0.9601 2.1052 0
M  V30 104 H -11.4784 0.7167 1.7905 0
M  V30 105 H -10.4279 -1.2144 1.9609 0
M  V30 END ATOM
M  V30 BEGIN BOND
M  V30 1 2 1 2
M  V30 2 1 2 3
M  V30 3 1 2 4
M  V30 4 1 3 5
M  V30 5 2 4 6
M  V30 6 1 6 7
M  V30 7 1 7 8
M  V30 8 1 7 9
M  V30 9 1 8 10
M  V30 10 1 8 11
M  V30 11 1 8 12
M  V30 12 1 9 13
M  V30 13 1 10 14
M  V30 14 1 10 15
M  V30 15 1 11 16
M  V30 16 1 15 17
M  V30 17 1 15 18
M  V30 18 1 17 19
M  V30 19 1 18 20
M  V30 20 1 19 21
M  V30 21 1 19 22
M  V30 22 1 19 23
M  V30 23 1 21 24
M  V30 24 1 21 25
M  V30 25 1 22 26
M  V30 26 1 25 27
M  V30 27 1 27 28
M  V30 28 1 28 29
M  V30 29 1 29 30
M  V30 30 1 29 31
M  V30 31 1 30 32
M  V30 32 1 31 33
M  V30 33 1 31 34
M  V30 34 1 32 35
M  V30 35 1 32 36
M  V30 36 1 34 37
M  V30 37 1 35 38
M  V30 38 1 36 39
M  V30 39 1 37 40
M  V30 40 1 39 41
M  V30 41 1 41 42
M  V30 42 1 41 43
M  V30 43 1 42 44
M  V30 44 1 42 45
M  V30 45 1 43 46
M  V30 46 1 43 47
M  V30 47 1 45 48
M  V30 48 1 48 49
M  V30 49 1 5 6
M  V30 50 1 10 13
M  V30 51 1 16 17
M  V30 52 1 20 21
M  V30 53 1 26 27
M  V30 54 1 34 35
M  V30 55 1 46 48
M  V30 56 1 4 50
M  V30 57 1 5 51
M  V30 58 1 5 52
M  V30 59 1 7 53
M  V30 60 1 9 54
M  V30 61 1 9 55
M  V30 62 1 11 56
M  V30 63 1 11 57
M  V30 64 1 12 58
M  V30 65 1 12 59
M  V30 66 1 12 60
M  V30 67 1 13 61
M  V30 68 1 13 62
M  V30 69 1 14 63
M  V30 70 1 15 64
M  V30 71 1 16 65
M  V30 72 1 16 66
M  V30 73 1 17 67
M  V30 74 1 18 68
M  V30 75 1 18 69
M  V30 76 1 20 70
M  V30 77 1 20 71
M  V30 78 1 22 72
M  V30 79 1 22 73
M  V30 80 1 23 74
M  V30 81 1 23 75
M  V30 82 1 23 76
M  V30 83 1 24 77
M  V30 84 1 25 78
M  V30 85 1 25 79
M  V30 86 1 26 80
M  V30 87 1 26 81
M  V30 88 1 27 82
M  V30 89 1 29 83
M  V30 90 1 31 84
M  V30 91 1 32 85
M  V30 92 1 33 86
M  V30 93 1 34 87
M  V30 94 1 35 88
M  V30 95 1 36 89
M  V30 96 1 36 90
M  V30 97 1 38 91
M  V30 98 1 40 92
M  V30 99 1 40 93
M  V30 100 1 40 94
M  V30 101 1 41 95
M  V30 102 1 42 96
M  V30 103 1 43 97
M  V30 104 1 44 98
M  V30 105 1 45 99
M  V30 106 1 45 100
M  V30 107 1 47 101
M  V30 108 1 47 102
M  V30 109 1 47 103
M  V30 110 1 48 104
M  V30 111 1 49 105
M  V30 END BOND
M  V30 BEGIN COLLECTION
M  V30 MDLV30/STEABS ATOMS=(17 7 8 10 15 17 19 21 27 29 31 32 34 35 41 42 43 48)
M  V30 END COLLECTION
M  V30 END CTAB
M  END
>  <Structure No>
4779

>  <LogS>
-1.94

>  <MMFF94 Energy>
202.18

$$$$
Compound 4780
Actelion Java MolfileCreator 2.0

  0  0  0  0  0  0              0 V3000
M  V30 BEGIN CTAB
M  V30 COUNTS 32 32 0 0 0
M  V30 BEGIN ATOM
M  V30 1 O 3.6252 -0.551 -1.7325 0
M  V30 2 C 2.9349 -0.1931 -0.739 0
M  V30 3 N 3.6007 0.3033 0.4382 0
M  V30 4 C 1.4593 -0.3101 -0.8095 0
M  V30 5 C 3.0344 1.3954 1.2342 0
M  V30 6 C 4.896 -0.2604 0.8184 0
M  V30 7 C 0.7053 -0.5988 0.3401 0
M  V30 8 C 0.7993 -0.1808 -2.0428 0
M  V30 9 C -0.685 -0.7196 0.2639 0
M  V30 10 C -0.5913 -0.302 -2.1183 0
M  V30 11 C -1.3462 -0.5515 -0.962 0
M  V30 12 C -2.8151 -0.6936 -1.053 0
M  V30 13 O -3.3037 -1.332 -2.0252 0
M  V30 14 N -3.6959 -0.1146 -0.069 0
M  V30 15 C -3.3331 1.1338 0.6107 0
M  V30 16 C -5.0254 -0.6985 0.1269 0
M  V30 17 H 2.7303 1.0138 2.2313 0
M  V30 18 H 2.1536 1.8478 0.7312 0
M  V30 19 H 3.7935 2.1948 1.3684 0
M  V30 20 H 5.6416 -0.0664 0.0189 0
M  V30 21 H 4.7964 -1.3559 0.9703 0
M  V30 22 H 5.2666 0.1918 1.7635 0
M  V30 23 H 1.1921 -0.7563 1.294 0
M  V30 24 H 1.3585 0.0257 -2.9469 0
M  V30 25 H -1.2404 -0.9734 1.1579 0
M  V30 26 H -1.0798 -0.1879 -3.0784 0
M  V30 27 H -2.5955 0.9347 1.4132 0
M  V30 28 H -4.2208 1.6163 1.0716 0
M  V30 29 H -2.9007 1.8509 -0.1191 0
M  V30 30 H -4.9254 -1.7736 0.3864 0
M  V30 31 H -5.6213 -0.6007 -0.8049 0
M  V30 32 H -5.5735 -0.1969 0.9523 0
M  V30 END ATOM
M  V30 BEGIN BOND
M  V30 1 2 1 2
M  V30 2 1 2 3
M  V30 3 1 2 4
M  V30 4 1 3 5
M  V30 5 1 3 6
M  V30 6 2 4 7
M  V30 7 1 4 8
M  V30 8 1 7 9
M  V30 9 2 8 10
M  V30 10 2 9 11
M  V30 11 1 11 12
M  V30 12 2 12 13
M  V30 13 1 12 14
M  V30 14 1 14 15
M  V30 15 1 14 16
M  V30 16 1 10 11
M  V30 17 1 5 17
M  V30 18 1 5 18
M  V30 19 1 5 19
M  V30 20 1 6 20
M  V30 21 1 6 21
M  V30 22 1 6 22
M  V30 23 1 7 23
M  V30 24 1 8 24
M  V30 25 1 9 25
M  V30 26 1 10 26
M  V30 27 1 15 27
M  V30 28 1 15 28
M  V30 29 1 15 29
M  V30 30 1 16 30
M  V30 31 1 16 31
M  V30 32 1 16 32
M  V30 END BOND
M  V30 END CTAB
M  END
>  <Structure No>
4780

>  <LogS>
0.2656

>  <MMFF94 Energy>
31.681

$$$$
Compound 4781
Actelion Java MolfileCreator 2.0

  0  0  0  0  0  0              0 V3000
M  V30 BEGIN CTAB
M  V30 COUNTS 24 25 0 0 0
M  V30 BEGIN ATOM
M  V30 1 O 0.0798 1.3589 0.8791 0
M  V30 2 C 0.5251 0.3324 0.2967 0
M  V30 3 N -0.3899 -0.6532 -0.2198 0
M  V30 4 C 1.9936 0.1649 0.1678 0
M  V30 5 C -1.8167 -0.4895 -0.2498 0
M  V30 6 C 2.5955 -1.1059 0.1108 0
M  V30 7 C 2.8266 1.296 0.1251 0
M  V30 8 N -2.6104 -1.5831 -0.0785 0
M  V30 9 C -2.4117 0.7556 -0.5202 0
M  V30 10 N 3.9461 -1.221 -7.0E-4 0
M  V30 11 C 4.2093 1.1485 0.0064 0
M  V30 12 C -3.9674 -1.5056 -0.1238 0
M  V30 13 C -3.8039 0.8548 -0.5689 0
M  V30 14 C 4.7565 -0.1321 -0.0594 0
M  V30 15 C -4.5899 -0.2797 -0.365 0
M  V30 16 H -0.0238 -1.5749 -0.5419 0
M  V30 17 H 2.0079 -2.009 0.1848 0
M  V30 18 H 2.4072 2.2937 0.1707 0
M  V30 19 H -1.8128 1.6335 -0.7215 0
M  V30 20 H 4.8507 2.0194 -0.0346 0
M  V30 21 H -4.5627 -2.3967 0.0243 0
M  V30 22 H -4.2726 1.8083 -0.7755 0
M  V30 23 H 5.8265 -0.2617 -0.1505 0
M  V30 24 H -5.6695 -0.2122 -0.4041 0
M  V30 END ATOM
M  V30 BEGIN BOND
M  V30 1 2 1 2
M  V30 2 1 2 3
M  V30 3 1 2 4
M  V30 4 1 3 5
M  V30 5 2 4 6
M  V30 6 1 4 7
M  V30 7 2 5 8
M  V30 8 1 5 9
M  V30 9 1 6 10
M  V30 10 2 7 11
M  V30 11 1 8 12
M  V30 12 2 9 13
M  V30 13 2 10 14
M  V30 14 2 12 15
M  V30 15 1 11 14
M  V30 16 1 13 15
M  V30 17 1 3 16
M  V30 18 1 6 17
M  V30 19 1 7 18
M  V30 20 1 9 19
M  V30 21 1 11 20
M  V30 22 1 12 21
M  V30 23 1 13 22
M  V30 24 1 14 23
M  V30 25 1 15 24
M  V30 END BOND
M  V30 END CTAB
M  END
>  <Structure No>
4781

>  <LogS>
-2.9771

>  <MMFF94 Energy>
-0.60072

$$$$
Compound 4782
Actelion Java MolfileCreator 2.0

  0  0  0  0  0  0              0 V3000
M  V30 BEGIN CTAB
M  V30 COUNTS 13 14 0 0 0
M  V30 BEGIN ATOM
M  V30 1 O -3.3111 -0.7261 0.1613 0
M  V30 2 C -2.0648 -0.5536 0.1173 0
M  V30 3 N -1.4964 0.6757 0.0393 0
M  V30 4 N -1.1802 -1.5872 0.1441 0 CHG=-1
M  V30 5 C -0.1877 0.4013 0.016 0
M  V30 6 C -0.0045 -0.9387 0.0781 0
M  V30 7 C 0.8998 1.2577 -0.058 0
M  V30 8 N 1.2294 -1.4978 0.0711 0
M  V30 9 N 2.1443 0.6948 -0.065 0
M  V30 10 C 2.3132 -0.6659 -0.0013 0
M  V30 11 H -1.9656 1.6084 0.006 0
M  V30 12 H 0.7746 2.3311 -0.1083 0
M  V30 13 H 3.3105 -1.0836 -0.0087 0
M  V30 END ATOM
M  V30 BEGIN BOND
M  V30 1 2 1 2
M  V30 2 1 2 3
M  V30 3 1 2 4
M  V30 4 1 3 5
M  V30 5 1 4 6
M  V30 6 1 5 7
M  V30 7 1 6 8
M  V30 8 2 7 9
M  V30 9 2 8 10
M  V30 10 2 5 6
M  V30 11 1 9 10
M  V30 12 1 3 11
M  V30 13 1 7 12
M  V30 14 1 10 13
M  V30 END BOND
M  V30 END CTAB
M  END
>  <Structure No>
4782

>  <LogS>
-1.5141

>  <MMFF94 Energy>
-7.2714

$$$$
Compound 4783
Actelion Java MolfileCreator 2.0

  0  0  0  0  0  0              0 V3000
M  V30 BEGIN CTAB
M  V30 COUNTS 13 12 0 0 0
M  V30 BEGIN ATOM
M  V30 1 O -0.9552 -2.3096 0.0795 0
M  V30 2 N -1.3988 -1.1503 -0.0553 0
M  V30 3 N -0.5452 -0.064 -0.3153 0
M  V30 4 C 0.9058 -0.2543 -0.414 0
M  V30 5 C -1.1405 1.2625 -0.4516 0
M  V30 6 C 1.4973 -0.3966 0.9511 0
M  V30 7 O 1.6591 0.6182 1.6784 0
M  V30 8 O 1.8368 -1.6529 1.4367 0 CHG=-1
M  V30 9 H 1.3837 0.6071 -0.9285 0
M  V30 10 H 1.1273 -1.1567 -1.023 0
M  V30 11 H -0.3652 2.044 -0.5983 0
M  V30 12 H -1.8281 1.2726 -1.323 0
M  V30 13 H -1.7146 1.5071 0.4667 0
M  V30 END ATOM
M  V30 BEGIN BOND
M  V30 1 2 1 2
M  V30 2 1 2 3
M  V30 3 1 3 4
M  V30 4 1 3 5
M  V30 5 1 4 6
M  V30 6 2 6 7
M  V30 7 1 6 8
M  V30 8 1 4 9
M  V30 9 1 4 10
M  V30 10 1 5 11
M  V30 11 1 5 12
M  V30 12 1 5 13
M  V30 END BOND
M  V30 END CTAB
M  END
>  <Structure No>
4783

>  <LogS>
0.9278

>  <MMFF94 Energy>
45.483

$$$$
Compound 4784
Actelion Java MolfileCreator 2.0

  0  0  0  0  0  0              0 V3000
M  V30 BEGIN CTAB
M  V30 COUNTS 32 33 0 0 0
M  V30 BEGIN ATOM
M  V30 1 N -2.8872 -0.8576 0.3118 0 CHG=1
M  V30 2 C -1.6505 -0.4834 -0.3162 0
M  V30 3 C -4.03 -0.2518 0.1232 0
M  V30 4 N -1.5807 -0.3797 -1.6118 0 CHG=1
M  V30 5 N -0.4644 -0.3936 0.4906 0
M  V30 6 N -5.2092 -0.7585 0.7556 0
M  V30 7 N -4.1277 0.9459 -0.6604 0
M  V30 8 C 0.6945 0.3771 0.1258 0
M  V30 9 C 2.0021 -0.1104 0.3678 0
M  V30 10 C 0.5283 1.6613 -0.4208 0
M  V30 11 C 3.1212 0.7052 0.0495 0
M  V30 12 C 2.2277 -1.3983 0.8956 0
M  V30 13 C 1.634 2.4513 -0.7348 0
M  V30 14 C 2.9245 1.9795 -0.5003 0
M  V30 15 C 4.4222 0.2321 0.282 0
M  V30 16 C 3.5294 -1.854 1.1199 0
M  V30 17 C 4.6221 -1.0412 0.8175 0
M  V30 18 H -2.8457 -1.6562 0.9847 0
M  V30 19 H -2.4251 -0.5301 -2.2076 0
M  V30 20 H -0.676 -0.1937 -2.0978 0
M  V30 21 H -0.4898 -0.8271 1.4408 0
M  V30 22 H -5.1773 -1.6212 1.3435 0
M  V30 23 H -6.1249 -0.2722 0.6335 0
M  V30 24 H -5.0636 1.3687 -0.8485 0
M  V30 25 H -3.2868 1.4771 -0.9755 0
M  V30 26 H -0.4647 2.0588 -0.5886 0
M  V30 27 H 1.4082 -2.0654 1.1266 0
M  V30 28 H 1.489 3.4386 -1.1544 0
M  V30 29 H 3.7694 2.6111 -0.7484 0
M  V30 30 H 5.2838 0.8459 0.047 0
M  V30 31 H 3.6914 -2.8441 1.5265 0
M  V30 32 H 5.6276 -1.4012 0.9933 0
M  V30 END ATOM
M  V30 BEGIN BOND
M  V30 1 1 1 2
M  V30 2 2 1 3
M  V30 3 2 2 4
M  V30 4 1 2 5
M  V30 5 1 3 6
M  V30 6 1 3 7
M  V30 7 1 5 8
M  V30 8 1 8 9
M  V30 9 2 8 10
M  V30 10 1 9 11
M  V30 11 2 9 12
M  V30 12 1 10 13
M  V30 13 1 11 14
M  V30 14 2 11 15
M  V30 15 1 12 16
M  V30 16 1 15 17
M  V30 17 2 13 14
M  V30 18 2 16 17
M  V30 19 1 1 18
M  V30 20 1 4 19
M  V30 21 1 4 20
M  V30 22 1 5 21
M  V30 23 1 6 22
M  V30 24 1 6 23
M  V30 25 1 7 24
M  V30 26 1 7 25
M  V30 27 1 10 26
M  V30 28 1 12 27
M  V30 29 1 13 28
M  V30 30 1 14 29
M  V30 31 1 15 30
M  V30 32 1 16 31
M  V30 33 1 17 32
M  V30 END BOND
M  V30 END CTAB
M  END
>  <Structure No>
4784

>  <LogS>
-2.3151

>  <MMFF94 Energy>
-209.38

$$$$
Compound 4785
Actelion Java MolfileCreator 2.0

  0  0  0  0  0  0              0 V3000
M  V30 BEGIN CTAB
M  V30 COUNTS 53 57 0 0 0
M  V30 BEGIN ATOM
M  V30 1 Cl 1.8908 -2.6651 -3.0094 0
M  V30 2 C 2.9428 -2.3874 -1.6411 0
M  V30 3 N 3.6389 -3.4191 -1.1015 0
M  V30 4 N 3.0766 -1.1375 -1.1304 0
M  V30 5 C 4.4696 -3.2001 -0.0517 0
M  V30 6 C 3.8995 -0.9162 -0.071 0
M  V30 7 Cl 5.3745 -4.5286 0.64 0
M  V30 8 N 4.603 -1.9503 0.4588 0
M  V30 9 N 4.0657 0.4014 0.4687 0
M  V30 10 C 3.2079 1.5132 0.1541 0
M  V30 11 C 3.744 2.8121 0.0028 0
M  V30 12 C 1.8136 1.3323 0.0919 0
M  V30 13 S 5.4884 3.0957 0.0334 0
M  V30 14 C 2.8794 3.9 -0.1861 0
M  V30 15 C 0.9562 2.426 -0.1057 0
M  V30 16 O 5.9804 3.0528 1.4528 0
M  V30 17 O 5.8065 4.44 -0.559 0
M  V30 18 O 6.2711 1.917 -0.8727 0 CHG=-1
M  V30 19 C 1.4983 3.7094 -0.2292 0
M  V30 20 N -0.4694 2.2562 -0.1097 0
M  V30 21 C -1.1115 1.072 -0.6032 0
M  V30 22 C -2.0114 0.3302 0.199 0
M  V30 23 C -0.9063 0.7159 -1.9368 0
M  V30 24 C -2.1648 0.6128 1.6588 0
M  V30 25 C -2.7529 -0.7292 -0.3867 0
M  V30 26 C -1.5805 -0.363 -2.5098 0
M  V30 27 O -1.4937 1.5284 2.21 0
M  V30 28 C -3.0726 -0.208 2.4902 0
M  V30 29 C -3.8232 -1.3855 0.4228 0
M  V30 30 C -2.5075 -1.0982 -1.7392 0
M  V30 31 S -1.258 -0.7597 -4.2062 0
M  V30 32 C -3.8799 -1.1891 1.8859 0
M  V30 33 C -3.1426 -0.0166 3.8836 0
M  V30 34 O -4.7318 -2.0574 -0.137 0
M  V30 35 N -3.1593 -2.2388 -2.3174 0
M  V30 36 O -1.0162 -2.2355 -4.3542 0
M  V30 37 O -0.0395 -0.0255 -4.6925 0
M  V30 38 O -2.5774 -0.3083 -5.1429 0 CHG=-1
M  V30 39 C -4.7499 -1.96 2.6799 0
M  V30 40 C -4.0055 -0.7916 4.6615 0
M  V30 41 C -4.8084 -1.7611 4.0605 0
M  V30 42 H 4.8654 0.5559 1.1225 0
M  V30 43 H 1.3906 0.3496 0.2569 0
M  V30 44 H 3.2721 4.9029 -0.2932 0
M  V30 45 H 0.8476 4.5646 -0.3658 0
M  V30 46 H -1.0776 3.0664 0.1509 0
M  V30 47 H -0.2228 1.3066 -2.5351 0
M  V30 48 H -2.5298 0.7301 4.373 0
M  V30 49 H -3.4174 -2.2657 -3.3279 0
M  V30 50 H -3.3043 -3.1106 -1.7627 0
M  V30 51 H -5.3805 -2.7203 2.2351 0
M  V30 52 H -4.0523 -0.6392 5.732 0
M  V30 53 H -5.4774 -2.3601 4.6651 0
M  V30 END ATOM
M  V30 BEGIN BOND
M  V30 1 1 1 2
M  V30 2 2 2 3
M  V30 3 1 2 4
M  V30 4 1 3 5
M  V30 5 2 4 6
M  V30 6 1 5 7
M  V30 7 2 5 8
M  V30 8 1 6 9
M  V30 9 1 9 10
M  V30 10 2 10 11
M  V30 11 1 10 12
M  V30 12 1 11 13
M  V30 13 1 11 14
M  V30 14 2 12 15
M  V30 15 2 13 16
M  V30 16 2 13 17
M  V30 17 1 13 18
M  V30 18 2 14 19
M  V30 19 1 15 20
M  V30 20 1 20 21
M  V30 21 2 21 22
M  V30 22 1 21 23
M  V30 23 1 22 24
M  V30 24 1 22 25
M  V30 25 2 23 26
M  V30 26 2 24 27
M  V30 27 1 24 28
M  V30 28 1 25 29
M  V30 29 2 25 30
M  V30 30 1 26 31
M  V30 31 2 28 32
M  V30 32 1 28 33
M  V30 33 2 29 34
M  V30 34 1 30 35
M  V30 35 2 31 36
M  V30 36 2 31 37
M  V30 37 1 31 38
M  V30 38 1 32 39
M  V30 39 2 33 40
M  V30 40 2 39 41
M  V30 41 1 6 8
M  V30 42 1 15 19
M  V30 43 1 26 30
M  V30 44 1 29 32
M  V30 45 1 40 41
M  V30 46 1 9 42
M  V30 47 1 12 43
M  V30 48 1 14 44
M  V30 49 1 19 45
M  V30 50 1 20 46
M  V30 51 1 23 47
M  V30 52 1 33 48
M  V30 53 1 35 49
M  V30 54 1 35 50
M  V30 55 1 39 51
M  V30 56 1 40 52
M  V30 57 1 41 53
M  V30 END BOND
M  V30 END CTAB
M  END
>  <Structure No>
4785

>  <LogS>
0.1956

>  <MMFF94 Energy>
7.4897

$$$$
Compound 4786
Actelion Java MolfileCreator 2.0

  0  0  0  0  0  0              0 V3000
M  V30 BEGIN CTAB
M  V30 COUNTS 23 22 0 0 0
M  V30 BEGIN ATOM
M  V30 1 N -0.8356 0.3797 0.0 0 CHG=1
M  V30 2 C 0.0434 -0.2601 -0.9925 0
M  V30 3 C -2.1904 -0.1888 -0.0672 0
M  V30 4 C 1.4098 0.4446 -1.1 0
M  V30 5 C -3.1018 0.447 0.9811 0
M  V30 6 C 2.2392 0.4465 0.1959 0
M  V30 7 C 2.6024 -0.9582 0.6753 0
M  V30 8 H -0.452 0.2155 0.9595 0
M  V30 9 H -0.8852 1.4091 -0.1878 0
M  V30 10 H -0.4301 -0.2171 -1.9994 0
M  V30 11 H 0.188 -1.3344 -0.7445 0
M  V30 12 H -2.6327 -0.0101 -1.0731 0
M  V30 13 H -2.1552 -1.2868 0.113 0
M  V30 14 H 1.9998 -0.0472 -1.9039 0
M  V30 15 H 1.2467 1.4977 -1.4168 0
M  V30 16 H -3.1756 1.5424 0.8125 0
M  V30 17 H -4.1183 0.0059 0.9086 0
M  V30 18 H -2.704 0.2596 2.001 0
M  V30 19 H 3.1828 1.0004 -3.0E-4 0
M  V30 20 H 1.706 0.9931 1.002 0
M  V30 21 H 3.072 -1.5403 -0.1457 0
M  V30 22 H 3.3243 -0.886 1.5158 0
M  V30 23 H 1.7011 -1.4921 1.0417 0
M  V30 END ATOM
M  V30 BEGIN BOND
M  V30 1 1 1 2
M  V30 2 1 1 3
M  V30 3 1 2 4
M  V30 4 1 3 5
M  V30 5 1 4 6
M  V30 6 1 6 7
M  V30 7 1 1 8
M  V30 8 1 1 9
M  V30 9 1 2 10
M  V30 10 1 2 11
M  V30 11 1 3 12
M  V30 12 1 3 13
M  V30 13 1 4 14
M  V30 14 1 4 15
M  V30 15 1 5 16
M  V30 16 1 5 17
M  V30 17 1 5 18
M  V30 18 1 6 19
M  V30 19 1 6 20
M  V30 20 1 7 21
M  V30 21 1 7 22
M  V30 22 1 7 23
M  V30 END BOND
M  V30 END CTAB
M  END
>  <Structure No>
4786

>  <LogS>
-0.4405

>  <MMFF94 Energy>
0.17794

$$$$
Compound 4787
Actelion Java MolfileCreator 2.0

  0  0  0  0  0  0              0 V3000
M  V30 BEGIN CTAB
M  V30 COUNTS 22 23 0 0 0
M  V30 BEGIN ATOM
M  V30 1 O 1.8403 2.1606 0.5598 0
M  V30 2 C 1.1595 1.1109 0.3786 0
M  V30 3 N 1.7926 -0.109 0.3351 0
M  V30 4 N -0.204 1.2018 0.228 0
M  V30 5 C 1.0633 -1.2568 0.1677 0
M  V30 6 C 3.2496 -0.188 0.5427 0
M  V30 7 C -0.9401 0.07 5.0E-4 0
M  V30 8 C -0.867 2.5182 0.2379 0
M  V30 9 O 1.6277 -2.3865 0.1774 0
M  V30 10 C -0.3145 -1.185 -0.02 0
M  V30 11 N -2.2877 0.1323 -0.2018 0
M  V30 12 N -1.0584 -2.306 -0.2281 0
M  V30 13 C -3.0281 -0.9869 -0.4141 0
M  V30 14 C -2.4006 -2.2331 -0.4241 0
M  V30 15 H 3.6859 -1.0742 0.0342 0
M  V30 16 H 3.7649 0.6986 0.1153 0
M  V30 17 H 3.4678 -0.2484 1.6298 0
M  V30 18 H -1.8759 2.4537 0.6988 0
M  V30 19 H -0.9635 2.8942 -0.8024 0
M  V30 20 H -0.3002 3.2592 0.8406 0
M  V30 21 H -4.0956 -0.9092 -0.5711 0
M  V30 22 H -2.9744 -3.1351 -0.5888 0
M  V30 END ATOM
M  V30 BEGIN BOND
M  V30 1 2 1 2
M  V30 2 1 2 3
M  V30 3 1 2 4
M  V30 4 1 3 5
M  V30 5 1 3 6
M  V30 6 1 4 7
M  V30 7 1 4 8
M  V30 8 2 5 9
M  V30 9 1 5 10
M  V30 10 1 7 11
M  V30 11 1 10 12
M  V30 12 2 11 13
M  V30 13 2 12 14
M  V30 14 2 7 10
M  V30 15 1 13 14
M  V30 16 1 6 15
M  V30 17 1 6 16
M  V30 18 1 6 17
M  V30 19 1 8 18
M  V30 20 1 8 19
M  V30 21 1 8 20
M  V30 22 1 13 21
M  V30 23 1 14 22
M  V30 END BOND
M  V30 END CTAB
M  END
>  <Structure No>
4787

>  <LogS>
-1.4598

>  <MMFF94 Energy>
6.07

$$$$
Compound 4788
Actelion Java MolfileCreator 2.0

  0  0  0  0  0  0              0 V3000
M  V30 BEGIN CTAB
M  V30 COUNTS 25 26 0 0 0
M  V30 BEGIN ATOM
M  V30 1 O 3.3884 0.4835 2.6616 0
M  V30 2 N 2.226 0.3522 2.2252 0 CHG=1
M  V30 3 O 1.1833 0.3102 3.122 0 CHG=-1
M  V30 4 C 1.9845 0.2472 0.8104 0
M  V30 5 C 0.6866 0.099 0.2972 0
M  V30 6 C 3.0498 0.2895 -0.1177 0
M  V30 7 O -0.4897 0.0343 1.0152 0
M  V30 8 C 0.4483 -0.0014 -1.045 0
M  V30 9 C 2.7998 0.1855 -1.4997 0
M  V30 10 C -1.6116 -0.1188 0.1421 0
M  V30 11 C 1.4876 0.0385 -1.973 0
M  V30 12 C -1.0086 -0.1488 -1.3005 0
M  V30 13 C -2.3322 -1.4325 0.4738 0
M  V30 14 C -2.5598 1.0735 0.3265 0
M  V30 15 H 4.0713 0.4023 0.2216 0
M  V30 16 H 3.6239 0.2194 -2.2004 0
M  V30 17 H 1.2875 -0.0419 -3.0335 0
M  V30 18 H -1.2019 -1.1097 -1.8252 0
M  V30 19 H -1.3658 0.6942 -1.9314 0
M  V30 20 H -2.7078 -1.4126 1.5192 0
M  V30 21 H -1.6325 -2.2896 0.3723 0
M  V30 22 H -3.1912 -1.5885 -0.2135 0
M  V30 23 H -2.9368 1.1082 1.371 0
M  V30 24 H -2.0245 2.0247 0.1187 0
M  V30 25 H -3.4257 0.9919 -0.3652 0
M  V30 END ATOM
M  V30 BEGIN BOND
M  V30 1 2 1 2
M  V30 2 1 2 3
M  V30 3 1 2 4
M  V30 4 2 4 5
M  V30 5 1 4 6
M  V30 6 1 5 7
M  V30 7 1 5 8
M  V30 8 2 6 9
M  V30 9 1 7 10
M  V30 10 2 8 11
M  V30 11 1 8 12
M  V30 12 1 10 13
M  V30 13 1 10 14
M  V30 14 1 9 11
M  V30 15 1 10 12
M  V30 16 1 6 15
M  V30 17 1 9 16
M  V30 18 1 11 17
M  V30 19 1 12 18
M  V30 20 1 12 19
M  V30 21 1 13 20
M  V30 22 1 13 21
M  V30 23 1 13 22
M  V30 24 1 14 23
M  V30 25 1 14 24
M  V30 26 1 14 25
M  V30 END BOND
M  V30 END CTAB
M  END
>  <Structure No>
4788

>  <LogS>
-3.2068

>  <MMFF94 Energy>
69.818

$$$$
Compound 4789
Actelion Java MolfileCreator 2.0

  0  0  0  0  0  0              0 V3000
M  V30 BEGIN CTAB
M  V30 COUNTS 28 28 0 0 0
M  V30 BEGIN ATOM
M  V30 1 Cl -4.2308 1.0987 -2.3677 0
M  V30 2 C -3.4274 0.7354 -0.8465 0
M  V30 3 C -3.4755 1.6314 0.2361 0
M  V30 4 C -2.7281 -0.4709 -0.7202 0
M  V30 5 Cl -4.3408 3.1576 0.1194 0
M  V30 6 C -2.8272 1.309 1.4342 0
M  V30 7 C -2.0697 -0.7831 0.475 0
M  V30 8 C -2.1303 0.1041 1.5553 0
M  V30 9 S -1.1748 -2.3324 0.6305 0
M  V30 10 C 0.366 -1.7179 -0.1464 0
M  V30 11 C 1.2156 -0.8825 0.825 0 CFG=2
M  V30 12 N 2.3825 -0.3423 0.1223 0
M  V30 13 C 1.6639 -1.7083 2.0001 0
M  V30 14 C 2.3073 0.8376 -0.6901 0
M  V30 15 O 1.3463 -1.3681 3.1702 0
M  V30 16 O 2.433 -2.8494 1.8039 0 CHG=-1
M  V30 17 O 1.2237 1.4741 -0.7953 0
M  V30 18 C 3.5118 1.3023 -1.4416 0
M  V30 19 H -2.6893 -1.1616 -1.553 0
M  V30 20 H -2.8633 1.9921 2.2734 0
M  V30 21 H -1.6348 -0.1368 2.4873 0
M  V30 22 H 0.9526 -2.5944 -0.4955 0
M  V30 23 H 0.1133 -1.1165 -1.0459 0
M  V30 24 H 0.6078 -0.0347 1.2074 0
M  V30 25 H 3.2845 -0.8713 0.1418 0
M  V30 26 H 3.732 0.5897 -2.2633 0
M  V30 27 H 3.3379 2.311 -1.8731 0
M  V30 28 H 4.3838 1.3518 -0.7567 0
M  V30 END ATOM
M  V30 BEGIN BOND
M  V30 1 1 1 2
M  V30 2 2 2 3
M  V30 3 1 2 4
M  V30 4 1 3 5
M  V30 5 1 3 6
M  V30 6 2 4 7
M  V30 7 2 6 8
M  V30 8 1 7 9
M  V30 9 1 9 10
M  V30 10 1 10 11
M  V30 11 1 11 12
M  V30 12 1 11 13
M  V30 13 1 12 14
M  V30 14 2 13 15
M  V30 15 1 13 16
M  V30 16 2 14 17
M  V30 17 1 14 18
M  V30 18 1 7 8
M  V30 19 1 4 19
M  V30 20 1 6 20
M  V30 21 1 8 21
M  V30 22 1 10 22
M  V30 23 1 10 23
M  V30 24 1 11 24
M  V30 25 1 12 25
M  V30 26 1 18 26
M  V30 27 1 18 27
M  V30 28 1 18 28
M  V30 END BOND
M  V30 BEGIN COLLECTION
M  V30 MDLV30/STEABS ATOMS=(1 11)
M  V30 END COLLECTION
M  V30 END CTAB
M  END
>  <Structure No>
4789

>  <LogS>
-2.8868

>  <MMFF94 Energy>
48.396

$$$$
Compound 4790
Actelion Java MolfileCreator 2.0

  0  0  0  0  0  0              0 V3000
M  V30 BEGIN CTAB
M  V30 COUNTS 69 68 0 0 0
M  V30 BEGIN ATOM
M  V30 1 N -9.437 0.5395 -2.2368 0 CHG=1
M  V30 2 C -9.9022 1.3893 -1.3684 0
M  V30 3 N -9.8993 1.1043 0.0438 0
M  V30 4 N -10.4471 2.6317 -1.8219 0
M  V30 5 C -9.2231 -0.0337 0.6683 0
M  V30 6 C -7.7032 0.167 0.6543 0
M  V30 7 C -6.9852 -1.0302 1.2944 0
M  V30 8 C -5.4694 -0.8123 1.4298 0
M  V30 9 C -4.739 -0.8813 0.0773 0
M  V30 10 C -3.2178 -0.71 0.2199 0
M  V30 11 C -2.5396 -1.9407 0.8466 0
M  V30 12 C -1.006 -1.8843 0.7412 0
M  V30 13 N -0.4388 -0.7828 1.5418 0 CHG=1
M  V30 14 C 1.0208 -0.9047 1.7078 0
M  V30 15 C 1.787 -0.5978 0.4089 0
M  V30 16 C 3.3014 -0.6066 0.6504 0
M  V30 17 C 4.0691 -0.3306 -0.6516 0
M  V30 18 C 5.5921 -0.4462 -0.4745 0
M  V30 19 C 6.1998 0.7852 0.2197 0
M  V30 20 C 7.699 0.6173 0.5146 0
M  V30 21 C 8.5636 0.63 -0.7545 0
M  V30 22 N 9.988 0.5916 -0.4149 0
M  V30 23 C 11.0385 0.5692 -1.3989 0
M  V30 24 N 10.7756 0.6001 -2.6727 0 CHG=1
M  V30 25 N 12.3994 0.5112 -0.9608 0
M  V30 26 H -9.4509 0.763 -3.257 0
M  V30 27 H -9.0481 -0.3872 -1.9621 0
M  V30 28 H -10.4159 1.7588 0.674 0
M  V30 29 H -10.8247 3.3245 -1.138 0
M  V30 30 H -10.469 2.8713 -2.8385 0
M  V30 31 H -9.5101 -0.9784 0.1597 0
M  V30 32 H -9.5626 -0.115 1.7244 0
M  V30 33 H -7.3593 0.2936 -0.3921 0
M  V30 34 H -7.4575 1.0942 1.217 0
M  V30 35 H -7.1826 -1.951 0.7021 0
M  V30 36 H -7.399 -1.1924 2.3142 0
M  V30 37 H -5.2711 0.1661 1.9198 0
M  V30 38 H -5.0787 -1.6081 2.0977 0
M  V30 39 H -4.9642 -1.8448 -0.4299 0
M  V30 40 H -5.1061 -0.063 -0.5772 0
M  V30 41 H -3.0038 0.1962 0.8263 0
M  V30 42 H -2.7964 -0.5449 -0.7958 0
M  V30 43 H -2.8857 -2.8564 0.3191 0
M  V30 44 H -2.8267 -2.0365 1.9149 0
M  V30 45 H -0.6094 -2.8611 1.0978 0
M  V30 46 H -0.7233 -1.7716 -0.3279 0
M  V30 47 H -0.8682 -0.7958 2.4969 0
M  V30 48 H -0.6618 0.137 1.0953 0
M  V30 49 H 1.3492 -0.1824 2.4884 0
M  V30 50 H 1.2874 -1.9209 2.0752 0
M  V30 51 H 1.4825 0.401 0.0265 0
M  V30 52 H 1.5424 -1.3624 -0.3582 0
M  V30 53 H 3.5491 0.1678 1.407 0
M  V30 54 H 3.6 -1.6004 1.051 0
M  V30 55 H 3.7558 -1.0785 -1.413 0
M  V30 56 H 3.8074 0.677 -1.0427 0
M  V30 57 H 6.0401 -0.5464 -1.4859 0
M  V30 58 H 5.837 -1.3698 0.0947 0
M  V30 59 H 6.0384 1.6899 -0.4062 0
M  V30 60 H 5.6874 0.9535 1.1899 0
M  V30 61 H 8.0171 1.4593 1.168 0
M  V30 62 H 7.8694 -0.3276 1.0755 0
M  V30 63 H 8.3218 -0.2568 -1.377 0
M  V30 64 H 8.352 1.5548 -1.3343 0
M  V30 65 H 10.2697 0.5663 0.5917 0
M  V30 66 H 9.8007 0.644 -3.0411 0
M  V30 67 H 11.5488 0.5812 -3.3746 0
M  V30 68 H 13.1857 0.4918 -1.648 0
M  V30 69 H 12.6267 0.4848 0.058 0
M  V30 END ATOM
M  V30 BEGIN BOND
M  V30 1 2 1 2
M  V30 2 1 2 3
M  V30 3 1 2 4
M  V30 4 1 3 5
M  V30 5 1 5 6
M  V30 6 1 6 7
M  V30 7 1 7 8
M  V30 8 1 8 9
M  V30 9 1 9 10
M  V30 10 1 10 11
M  V30 11 1 11 12
M  V30 12 1 12 13
M  V30 13 1 13 14
M  V30 14 1 14 15
M  V30 15 1 15 16
M  V30 16 1 16 17
M  V30 17 1 17 18
M  V30 18 1 18 19
M  V30 19 1 19 20
M  V30 20 1 20 21
M  V30 21 1 21 22
M  V30 22 1 22 23
M  V30 23 2 23 24
M  V30 24 1 23 25
M  V30 25 1 1 26
M  V30 26 1 1 27
M  V30 27 1 3 28
M  V30 28 1 4 29
M  V30 29 1 4 30
M  V30 30 1 5 31
M  V30 31 1 5 32
M  V30 32 1 6 33
M  V30 33 1 6 34
M  V30 34 1 7 35
M  V30 35 1 7 36
M  V30 36 1 8 37
M  V30 37 1 8 38
M  V30 38 1 9 39
M  V30 39 1 9 40
M  V30 40 1 10 41
M  V30 41 1 10 42
M  V30 42 1 11 43
M  V30 43 1 11 44
M  V30 44 1 12 45
M  V30 45 1 12 46
M  V30 46 1 13 47
M  V30 47 1 13 48
M  V30 48 1 14 49
M  V30 49 1 14 50
M  V30 50 1 15 51
M  V30 51 1 15 52
M  V30 52 1 16 53
M  V30 53 1 16 54
M  V30 54 1 17 55
M  V30 55 1 17 56
M  V30 56 1 18 57
M  V30 57 1 18 58
M  V30 58 1 19 59
M  V30 59 1 19 60
M  V30 60 1 20 61
M  V30 61 1 20 62
M  V30 62 1 21 63
M  V30 63 1 21 64
M  V30 64 1 22 65
M  V30 65 1 24 66
M  V30 66 1 24 67
M  V30 67 1 25 68
M  V30 68 1 25 69
M  V30 END BOND
M  V30 END CTAB
M  END
>  <Structure No>
4790

>  <LogS>
0.3322

>  <MMFF94 Energy>
-288.85

$$$$
Compound 4791
Actelion Java MolfileCreator 2.0

  0  0  0  0  0  0              0 V3000
M  V30 BEGIN CTAB
M  V30 COUNTS 35 35 0 0 0
M  V30 BEGIN ATOM
M  V30 1 O 1.5676 2.5876 -1.4892 0
M  V30 2 C 1.1084 1.4829 -0.7677 0
M  V30 3 C 0.7308 3.6894 -1.8215 0
M  V30 4 N -0.18 1.4162 -0.341 0
M  V30 5 N 1.9606 0.4653 -0.4914 0
M  V30 6 C -0.6232 0.3368 0.3565 0
M  V30 7 C 1.5309 -0.6171 0.2086 0
M  V30 8 N 0.2419 -0.6759 0.6302 0
M  V30 9 N -1.9938 0.2725 0.8107 0
M  V30 10 N 2.4247 -1.6958 0.5049 0
M  V30 11 C -2.4599 -0.8848 1.5911 0
M  V30 12 C -2.9079 1.3984 0.5593 0
M  V30 13 C 3.8213 -1.677 0.0709 0
M  V30 14 C -2.7189 -2.0807 0.6797 0
M  V30 15 C -3.4008 1.3821 -0.8846 0
M  V30 16 C 4.5485 -2.9418 0.5149 0
M  V30 17 H 1.3195 4.4347 -2.3945 0
M  V30 18 H -0.1205 3.3454 -2.4464 0
M  V30 19 H 0.3469 4.1683 -0.8958 0
M  V30 20 H 2.0548 -2.511 1.0457 0
M  V30 21 H -1.7061 -1.153 2.3628 0
M  V30 22 H -3.401 -0.6485 2.1326 0
M  V30 23 H -3.7924 1.3521 1.2305 0
M  V30 24 H -2.3949 2.3612 0.7729 0
M  V30 25 H 4.3327 -0.7922 0.5077 0
M  V30 26 H 3.8634 -1.6044 -1.0373 0
M  V30 27 H -1.7903 -2.3815 0.1522 0
M  V30 28 H -3.4971 -1.8269 -0.0702 0
M  V30 29 H -3.0758 -2.9399 1.2858 0
M  V30 30 H -4.0957 2.2321 -1.0499 0
M  V30 31 H -3.9414 0.435 -1.0922 0
M  V30 32 H -2.5511 1.4781 -1.5919 0
M  V30 33 H 5.6047 -2.9042 0.1743 0
M  V30 34 H 4.5321 -3.0231 1.6226 0
M  V30 35 H 4.0616 -3.8373 0.0736 0
M  V30 END ATOM
M  V30 BEGIN BOND
M  V30 1 1 1 2
M  V30 2 1 1 3
M  V30 3 2 2 4
M  V30 4 1 2 5
M  V30 5 1 4 6
M  V30 6 2 5 7
M  V30 7 2 6 8
M  V30 8 1 6 9
M  V30 9 1 7 10
M  V30 10 1 9 11
M  V30 11 1 9 12
M  V30 12 1 10 13
M  V30 13 1 11 14
M  V30 14 1 12 15
M  V30 15 1 13 16
M  V30 16 1 7 8
M  V30 17 1 3 17
M  V30 18 1 3 18
M  V30 19 1 3 19
M  V30 20 1 10 20
M  V30 21 1 11 21
M  V30 22 1 11 22
M  V30 23 1 12 23
M  V30 24 1 12 24
M  V30 25 1 13 25
M  V30 26 1 13 26
M  V30 27 1 14 27
M  V30 28 1 14 28
M  V30 29 1 14 29
M  V30 30 1 15 30
M  V30 31 1 15 31
M  V30 32 1 15 32
M  V30 33 1 16 33
M  V30 34 1 16 34
M  V30 35 1 16 35
M  V30 END BOND
M  V30 END CTAB
M  END
>  <Structure No>
4791

>  <LogS>
-2.9987

>  <MMFF94 Energy>
-232.58

$$$$
Compound 4792
Actelion Java MolfileCreator 2.0

  0  0  0  0  0  0              0 V3000
M  V30 BEGIN CTAB
M  V30 COUNTS 33 32 0 0 0
M  V30 BEGIN ATOM
M  V30 1 O 0.1567 -0.8621 -1.4895 0
M  V30 2 C 0.2121 0.353 -1.1536 0
M  V30 3 O 1.3896 0.8968 -0.6289 0
M  V30 4 C -0.9884 1.2348 -1.3356 0 CFG=2
M  V30 5 C 2.5503 0.121 -0.3383 0
M  V30 6 O -2.1528 0.6019 -0.8056 0
M  V30 7 C -1.2054 1.5311 -2.8165 0
M  V30 8 C 2.3483 -0.6778 0.9556 0
M  V30 9 C -2.3589 0.3951 0.5639 0
M  V30 10 C 3.5285 -1.611 1.2646 0
M  V30 11 O -1.5161 0.8023 1.4099 0
M  V30 12 C -3.6107 -0.2832 1.0283 0 CFG=2
M  V30 13 C 4.7859 -0.8532 1.6894 0
M  V30 14 O -3.8303 -1.4265 0.2455 0
M  V30 15 C -4.7983 0.6721 0.9067 0
M  V30 16 H -0.823 2.2011 -0.8091 0
M  V30 17 H 2.7785 -0.5568 -1.1898 0
M  V30 18 H 3.4041 0.8182 -0.2138 0
M  V30 19 H -1.3975 0.5917 -3.378 0
M  V30 20 H -0.3116 2.035 -3.243 0
M  V30 21 H -2.081 2.2035 -2.9389 0
M  V30 22 H 2.1834 0.0215 1.8041 0
M  V30 23 H 1.4342 -1.3014 0.8557 0
M  V30 24 H 3.756 -2.2454 0.3805 0
M  V30 25 H 3.2326 -2.2872 2.0958 0
M  V30 26 H -3.4889 -0.576 2.0978 0
M  V30 27 H 5.194 -0.2627 0.8434 0
M  V30 28 H 5.5627 -1.5789 2.01 0
M  V30 29 H 4.5629 -0.1759 2.541 0
M  V30 30 H -4.4914 -1.9849 0.7327 0
M  V30 31 H -4.9538 0.9674 -0.1532 0
M  V30 32 H -5.7206 0.1766 1.2774 0
M  V30 33 H -4.6215 1.5843 1.5162 0
M  V30 END ATOM
M  V30 BEGIN BOND
M  V30 1 2 1 2
M  V30 2 1 2 3
M  V30 3 1 2 4
M  V30 4 1 3 5
M  V30 5 1 4 6
M  V30 6 1 4 7
M  V30 7 1 5 8
M  V30 8 1 6 9
M  V30 9 1 8 10
M  V30 10 2 9 11
M  V30 11 1 9 12
M  V30 12 1 10 13
M  V30 13 1 12 14
M  V30 14 1 12 15
M  V30 15 1 4 16
M  V30 16 1 5 17
M  V30 17 1 5 18
M  V30 18 1 7 19
M  V30 19 1 7 20
M  V30 20 1 7 21
M  V30 21 1 8 22
M  V30 22 1 8 23
M  V30 23 1 10 24
M  V30 24 1 10 25
M  V30 25 1 12 26
M  V30 26 1 13 27
M  V30 27 1 13 28
M  V30 28 1 13 29
M  V30 29 1 14 30
M  V30 30 1 15 31
M  V30 31 1 15 32
M  V30 32 1 15 33
M  V30 END BOND
M  V30 BEGIN COLLECTION
M  V30 MDLV30/STEABS ATOMS=(2 4 12)
M  V30 END COLLECTION
M  V30 END CTAB
M  END
>  <Structure No>
4792

>  <LogS>
-1.3752

>  <MMFF94 Energy>
34.838

$$$$
Compound 4793
Actelion Java MolfileCreator 2.0

  0  0  0  0  0  0              0 V3000
M  V30 BEGIN CTAB
M  V30 COUNTS 17 16 0 0 0
M  V30 BEGIN ATOM
M  V30 1 O -1.7667 0.691 -1.1519 0
M  V30 2 C -1.8228 0.5429 0.0986 0
M  V30 3 N -1.0631 -0.4881 0.7416 0
M  V30 4 N -2.65 1.409 0.8741 0
M  V30 5 C -0.1935 -1.3954 -0.0026 0
M  V30 6 N 0.9305 -0.6598 -0.5754 0
M  V30 7 C 1.9439 -0.0554 0.238 0
M  V30 8 O 1.8958 -0.1526 1.4938 0
M  V30 9 N 3.0163 0.6606 -0.3723 0
M  V30 10 H -1.1421 -0.6065 1.7766 0
M  V30 11 H -3.2061 2.1618 0.4112 0
M  V30 12 H -2.7072 1.3006 1.9109 0
M  V30 13 H 0.1891 -2.1909 0.6726 0
M  V30 14 H -0.7758 -1.8864 -0.8122 0
M  V30 15 H 1.0028 -0.5851 -1.6151 0
M  V30 16 H 3.7576 1.1027 0.2153 0
M  V30 17 H 3.0707 0.7515 -1.4109 0
M  V30 END ATOM
M  V30 BEGIN BOND
M  V30 1 2 1 2
M  V30 2 1 2 3
M  V30 3 1 2 4
M  V30 4 1 3 5
M  V30 5 1 5 6
M  V30 6 1 6 7
M  V30 7 2 7 8
M  V30 8 1 7 9
M  V30 9 1 3 10
M  V30 10 1 4 11
M  V30 11 1 4 12
M  V30 12 1 5 13
M  V30 13 1 5 14
M  V30 14 1 6 15
M  V30 15 1 9 16
M  V30 16 1 9 17
M  V30 END BOND
M  V30 END CTAB
M  END
>  <Structure No>
4793

>  <LogS>
-0.6525

>  <MMFF94 Energy>
-254.39

$$$$
Compound 4794
Actelion Java MolfileCreator 2.0

  0  0  0  0  0  0              0 V3000
M  V30 BEGIN CTAB
M  V30 COUNTS 18 17 0 0 0
M  V30 BEGIN ATOM
M  V30 1 O -0.4524 1.8864 -0.0754 0
M  V30 2 C -0.0025 0.5586 -0.1867 0 CFG=1
M  V30 3 C 1.4777 0.4734 0.2488 0
M  V30 4 C -0.9078 -0.3919 0.626 0
M  V30 5 N 2.0886 -0.8096 -0.1055 0 CHG=1
M  V30 6 C -2.37 -0.292 0.1939 0
M  V30 7 H -0.3977 2.1418 0.883 0
M  V30 8 H -0.0673 0.2738 -1.2597 0
M  V30 9 H 2.0418 1.2897 -0.2552 0
M  V30 10 H 1.5626 0.6374 1.3464 0
M  V30 11 H -0.5821 -1.4427 0.4778 0
M  V30 12 H -0.833 -0.1555 1.7098 0
M  V30 13 H 1.9289 -1.0251 -1.1161 0
M  V30 14 H 3.1187 -0.7527 0.065 0
M  V30 15 H 1.7012 -1.5755 0.4901 0
M  V30 16 H -2.9771 -1.0238 0.7675 0
M  V30 17 H -2.4691 -0.5202 -0.8885 0
M  V30 18 H -2.7675 0.7255 0.3932 0
M  V30 END ATOM
M  V30 BEGIN BOND
M  V30 1 1 1 2
M  V30 2 1 2 3
M  V30 3 1 2 4
M  V30 4 1 3 5
M  V30 5 1 4 6
M  V30 6 1 1 7
M  V30 7 1 2 8
M  V30 8 1 3 9
M  V30 9 1 3 10
M  V30 10 1 4 11
M  V30 11 1 4 12
M  V30 12 1 5 13
M  V30 13 1 5 14
M  V30 14 1 5 15
M  V30 15 1 6 16
M  V30 16 1 6 17
M  V30 17 1 6 18
M  V30 END BOND
M  V30 BEGIN COLLECTION
M  V30 MDLV30/STEABS ATOMS=(1 2)
M  V30 END COLLECTION
M  V30 END CTAB
M  END
>  <Structure No>
4794

>  <LogS>
1.0499

>  <MMFF94 Energy>
15.448

$$$$
Compound 4795
Actelion Java MolfileCreator 2.0

  0  0  0  0  0  0              0 V3000
M  V30 BEGIN CTAB
M  V30 COUNTS 42 46 0 0 0
M  V30 BEGIN ATOM
M  V30 1 Cl 4.0915 -2.3233 2.3233 0
M  V30 2 C 3.5565 -1.3658 0.9476 0
M  V30 3 C 3.4902 -1.7859 -0.3182 0
M  V30 4 C 3.1189 0.0865 0.9557 0 CFG=1
M  V30 5 Cl 3.9204 -3.3897 -0.8989 0
M  V30 6 C 3.003 -0.6129 -1.1426 0 CFG=1
M  V30 7 Cl 3.7158 0.9917 2.3841 0
M  V30 8 C 3.7064 0.5251 -0.3865 0
M  V30 9 C 1.567 0.0572 0.7093 0 CFG=2
M  V30 10 Cl 3.4181 -0.7354 -2.8826 0
M  V30 11 C 1.484 -0.4529 -0.78 0 CFG=1
M  V30 12 Cl 3.3036 2.199 -0.8879 0
M  V30 13 Cl 5.5122 0.4248 -0.4528 0
M  V30 14 C 0.8077 1.3713 1.0172 0
M  V30 15 C 0.6772 0.36 -1.8446 0
M  V30 16 C -0.665 1.1858 1.4611 0
M  V30 17 C -0.7958 0.7316 -1.54 0
M  V30 18 C -1.4712 -0.0327 0.9042 0 CFG=2
M  V30 19 C -1.5544 -0.2833 -0.6499 0 CFG=1
M  V30 20 C -2.9902 -0.0041 1.2998 0 CFG=2
M  V30 21 C -3.1061 -0.3741 -0.8808 0 CFG=1
M  V30 22 Cl -3.4055 0.7062 2.8928 0
M  V30 23 C -3.4765 -1.4273 1.1243 0
M  V30 24 C -3.6941 0.644 0.0972 0
M  V30 25 Cl -3.7036 -0.2478 -2.5669 0
M  V30 26 C -3.5429 -1.6521 -0.1903 0
M  V30 27 Cl -3.9062 -2.5695 2.3914 0
M  V30 28 Cl -3.2926 2.3571 -0.2479 0
M  V30 29 Cl -5.5001 0.5856 0.2033 0
M  V30 30 Cl -4.0772 -3.1444 -0.9537 0
M  V30 31 H 1.1626 -0.7206 1.3937 0
M  V30 32 H 1.0362 -1.4718 -0.7686 0
M  V30 33 H 1.3094 1.9069 1.8473 0
M  V30 34 H 0.8648 2.085 0.1775 0
M  V30 35 H 0.6589 -0.2633 -2.7655 0
M  V30 36 H 1.2059 1.2854 -2.1357 0
M  V30 37 H -0.6466 1.0691 2.5671 0
M  V30 38 H -1.1945 2.1391 1.2827 0
M  V30 39 H -1.2978 0.8134 -2.5243 0
M  V30 40 H -0.8534 1.7564 -1.1347 0
M  V30 41 H -1.023 -0.9369 1.3737 0
M  V30 42 H -1.1495 -1.2913 -0.8877 0
M  V30 END ATOM
M  V30 BEGIN BOND
M  V30 1 1 1 2
M  V30 2 2 2 3
M  V30 3 1 2 4
M  V30 4 1 3 5
M  V30 5 1 3 6
M  V30 6 1 4 7
M  V30 7 1 4 8
M  V30 8 1 4 9
M  V30 9 1 6 10
M  V30 10 1 6 11
M  V30 11 1 8 12
M  V30 12 1 8 13
M  V30 13 1 9 14
M  V30 14 1 11 15
M  V30 15 1 14 16
M  V30 16 1 15 17
M  V30 17 1 16 18
M  V30 18 1 17 19
M  V30 19 1 18 20
M  V30 20 1 19 21
M  V30 21 1 20 22
M  V30 22 1 20 23
M  V30 23 1 20 24
M  V30 24 1 21 25
M  V30 25 1 21 26
M  V30 26 1 23 27
M  V30 27 1 24 28
M  V30 28 1 24 29
M  V30 29 1 26 30
M  V30 30 1 6 8
M  V30 31 1 9 11
M  V30 32 1 18 19
M  V30 33 1 21 24
M  V30 34 2 23 26
M  V30 35 1 9 31
M  V30 36 1 11 32
M  V30 37 1 14 33
M  V30 38 1 14 34
M  V30 39 1 15 35
M  V30 40 1 15 36
M  V30 41 1 16 37
M  V30 42 1 16 38
M  V30 43 1 17 39
M  V30 44 1 17 40
M  V30 45 1 18 41
M  V30 46 1 19 42
M  V30 END BOND
M  V30 BEGIN COLLECTION
M  V30 MDLV30/STEABS ATOMS=(8 4 6 9 11 18 19 20 21)
M  V30 END COLLECTION
M  V30 END CTAB
M  END
>  <Structure No>
4795

>  <LogS>
-13.1719

>  <MMFF94 Energy>
211.41

$$$$
Compound 4796
Actelion Java MolfileCreator 2.0

  0  0  0  0  0  0              0 V3000
M  V30 BEGIN CTAB
M  V30 COUNTS 14 14 0 0 0
M  V30 BEGIN ATOM
M  V30 1 O 3.003 -0.9732 -0.4054 0
M  V30 2 C 2.3342 0.0268 -0.0316 0
M  V30 3 O 3.0065 1.1744 0.3729 0 CHG=-1
M  V30 4 C 0.8557 -0.0177 -0.0224 0
M  V30 5 C 0.1688 -1.1728 -0.4293 0
M  V30 6 C 0.113 1.0976 0.3944 0
M  V30 7 C -1.2279 -1.1898 -0.4116 0
M  V30 8 C -1.2827 1.0385 0.3967 0
M  V30 9 N -1.9237 -0.0937 -0.0025 0 CHG=1
M  V30 10 O -3.2988 -0.1311 0.0073 0 CHG=-1
M  V30 11 H 0.704 -2.0547 -0.758 0
M  V30 12 H 0.6037 2.0076 0.7158 0
M  V30 13 H -1.7557 -2.0816 -0.7258 0
M  V30 14 H -1.8536 1.9005 0.719 0
M  V30 END ATOM
M  V30 BEGIN BOND
M  V30 1 2 1 2
M  V30 2 1 2 3
M  V30 3 1 2 4
M  V30 4 2 4 5
M  V30 5 1 4 6
M  V30 6 1 5 7
M  V30 7 2 6 8
M  V30 8 2 7 9
M  V30 9 1 9 10
M  V30 10 1 8 9
M  V30 11 1 5 11
M  V30 12 1 6 12
M  V30 13 1 7 13
M  V30 14 1 8 14
M  V30 END BOND
M  V30 END CTAB
M  END
>  <Structure No>
4796

>  <LogS>
-1.102

>  <MMFF94 Energy>
20.049

$$$$
Compound 4797
Actelion Java MolfileCreator 2.0

  0  0  0  0  0  0              0 V3000
M  V30 BEGIN CTAB
M  V30 COUNTS 27 27 0 0 0
M  V30 BEGIN ATOM
M  V30 1 N -2.3369 -0.1556 1.0121 0 CHG=1
M  V30 2 C -0.9338 -0.3231 1.4455 0
M  V30 3 C -2.4842 0.8917 -0.0061 0
M  V30 4 C 0.1023 -0.1045 0.3045 0 CFG=2
M  V30 5 C -1.7653 0.5018 -1.3105 0
M  V30 6 C -0.5384 -0.3949 -1.066 0
M  V30 7 C 1.3655 -0.963 0.5619 0
M  V30 8 C 2.54 -0.7116 -0.4021 0
M  V30 9 C 3.0621 0.7238 -0.3553 0
M  V30 10 H -2.7011 -1.062 0.6335 0
M  V30 11 H -2.9197 0.0988 1.8437 0
M  V30 12 H -0.7095 0.3924 2.2687 0
M  V30 13 H -0.8227 -1.3434 1.8775 0
M  V30 14 H -2.0702 1.8511 0.3794 0
M  V30 15 H -3.5631 1.0599 -0.2188 0
M  V30 16 H 0.3922 0.9686 0.3263 0
M  V30 17 H -1.4503 1.4303 -1.8349 0
M  V30 18 H -2.4733 -0.0351 -1.9788 0
M  V30 19 H 0.1858 -0.2173 -1.8873 0
M  V30 20 H -0.8461 -1.4631 -1.1081 0
M  V30 21 H 1.7227 -0.7763 1.599 0
M  V30 22 H 1.0923 -2.0395 0.5012 0
M  V30 23 H 3.3712 -1.3897 -0.1105 0
M  V30 24 H 2.2629 -0.9775 -1.4428 0
M  V30 25 H 4.0157 0.788 -0.9206 0
M  V30 26 H 3.2511 1.0367 0.6935 0
M  V30 27 H 2.338 1.4195 -0.8278 0
M  V30 END ATOM
M  V30 BEGIN BOND
M  V30 1 1 1 2
M  V30 2 1 1 3
M  V30 3 1 2 4
M  V30 4 1 3 5
M  V30 5 1 4 6
M  V30 6 1 4 7
M  V30 7 1 7 8
M  V30 8 1 8 9
M  V30 9 1 5 6
M  V30 10 1 1 10
M  V30 11 1 1 11
M  V30 12 1 2 12
M  V30 13 1 2 13
M  V30 14 1 3 14
M  V30 15 1 3 15
M  V30 16 1 4 16
M  V30 17 1 5 17
M  V30 18 1 5 18
M  V30 19 1 6 19
M  V30 20 1 6 20
M  V30 21 1 7 21
M  V30 22 1 7 22
M  V30 23 1 8 23
M  V30 24 1 8 24
M  V30 25 1 9 25
M  V30 26 1 9 26
M  V30 27 1 9 27
M  V30 END BOND
M  V30 BEGIN COLLECTION
M  V30 MDLV30/STEABS ATOMS=(1 4)
M  V30 END COLLECTION
M  V30 END CTAB
M  END
>  <Structure No>
4797

>  <LogS>
-1.011

>  <MMFF94 Energy>
4.3931

$$$$
Compound 4798
Actelion Java MolfileCreator 2.0

  0  0  0  0  0  0              0 V3000
M  V30 BEGIN CTAB
M  V30 COUNTS 55 58 0 0 0
M  V30 BEGIN ATOM
M  V30 1 Cl -3.1946 -3.7688 0.4909 0
M  V30 2 C -2.68 -2.083 0.5391 0
M  V30 3 C -3.5557 -0.9897 0.031 0
M  V30 4 C -1.4559 -1.8217 1.0193 0
M  V30 5 C -4.6685 -1.2696 -0.6719 0
M  V30 6 C -3.1727 0.4587 0.3527 0 CFG=2
M  V30 7 C -0.8999 -0.4184 1.1739 0 CFG=2
M  V30 8 C -5.4535 -0.1961 -1.2916 0
M  V30 9 C -3.8502 1.4715 -0.5643 0
M  V30 10 C -1.6175 0.602 0.2451 0 CFG=1
M  V30 11 C -3.6625 0.7809 1.7834 0
M  V30 12 C 0.6502 -0.4078 1.0229 0 CFG=1
M  V30 13 O -6.5316 -0.4608 -1.8856 0
M  V30 14 C -4.9461 1.177 -1.2645 0
M  V30 15 C -1.123 0.4431 -1.2121 0
M  V30 16 C 1.1948 -0.4115 -0.4239 0 CFG=1
M  V30 17 C 1.3142 0.7968 1.7058 0
M  V30 18 C 0.3957 0.5998 -1.3083 0
M  V30 19 C 2.6736 0.0898 -0.2461 0 CFG=2
M  V30 20 C 1.1194 -1.8238 -1.0639 0
M  V30 21 C 2.5844 1.113 0.9112 0
M  V30 22 O 3.1081 0.7498 -1.4488 0
M  V30 23 C 3.6547 -1.0543 0.0693 0
M  V30 24 C 4.3297 1.4219 -1.6002 0
M  V30 25 O 4.2616 -1.5755 -0.8551 0
M  V30 26 C 3.8748 -1.6233 1.4467 0
M  V30 27 O 5.153 1.4953 -0.6481 0
M  V30 28 C 4.6366 2.097 -2.8927 0
M  V30 29 H -0.8645 -2.6489 1.3939 0
M  V30 30 H -4.9745 -2.2904 -0.8577 0
M  V30 31 H -1.1045 -0.1292 2.227 0
M  V30 32 H -3.5014 2.4977 -0.5577 0
M  V30 33 H -1.348 1.6295 0.5765 0
M  V30 34 H -3.2807 1.7703 2.1162 0
M  V30 35 H -4.7739 0.8085 1.8163 0
M  V30 36 H -3.3401 0.0121 2.516 0
M  V30 37 H 1.0422 -1.3081 1.5473 0
M  V30 38 H -5.4481 1.9501 -1.8329 0
M  V30 39 H -1.4375 -0.5315 -1.6374 0
M  V30 40 H -1.5767 1.2302 -1.8515 0
M  V30 41 H 1.5589 0.5594 2.7642 0
M  V30 42 H 0.6491 1.6864 1.7036 0
M  V30 43 H 0.6417 1.6458 -1.0215 0
M  V30 44 H 0.6929 0.4853 -2.3741 0
M  V30 45 H 0.0742 -2.1401 -1.2457 0
M  V30 46 H 1.5744 -2.5941 -0.4066 0
M  V30 47 H 1.6528 -1.8302 -2.0383 0
M  V30 48 H 2.4991 2.1444 0.5022 0
M  V30 49 H 3.4842 1.1038 1.5636 0
M  V30 50 H 4.9449 -1.5144 1.7209 0
M  V30 51 H 3.2679 -1.1271 2.2256 0
M  V30 52 H 3.6142 -2.7024 1.444 0
M  V30 53 H 4.3887 3.1759 -2.8138 0
M  V30 54 H 5.7143 1.984 -3.1349 0
M  V30 55 H 4.0359 1.644 -3.7089 0
M  V30 END ATOM
M  V30 BEGIN BOND
M  V30 1 1 1 2
M  V30 2 1 2 3
M  V30 3 2 2 4
M  V30 4 2 3 5
M  V30 5 1 3 6
M  V30 6 1 4 7
M  V30 7 1 5 8
M  V30 8 1 6 9
M  V30 9 1 6 10
M  V30 10 1 6 11
M  V30 11 1 7 12
M  V30 12 2 8 13
M  V30 13 1 8 14
M  V30 14 1 10 15
M  V30 15 1 12 16
M  V30 16 1 12 17
M  V30 17 1 15 18
M  V30 18 1 16 19
M  V30 19 1 16 20
M  V30 20 1 17 21
M  V30 21 1 19 22
M  V30 22 1 19 23
M  V30 23 1 22 24
M  V30 24 2 23 25
M  V30 25 1 23 26
M  V30 26 2 24 27
M  V30 27 1 24 28
M  V30 28 1 7 10
M  V30 29 2 9 14
M  V30 30 1 16 18
M  V30 31 1 19 21
M  V30 32 1 4 29
M  V30 33 1 5 30
M  V30 34 1 7 31
M  V30 35 1 9 32
M  V30 36 1 10 33
M  V30 37 1 11 34
M  V30 38 1 11 35
M  V30 39 1 11 36
M  V30 40 1 12 37
M  V30 41 1 14 38
M  V30 42 1 15 39
M  V30 43 1 15 40
M  V30 44 1 17 41
M  V30 45 1 17 42
M  V30 46 1 18 43
M  V30 47 1 18 44
M  V30 48 1 20 45
M  V30 49 1 20 46
M  V30 50 1 20 47
M  V30 51 1 21 48
M  V30 52 1 21 49
M  V30 53 1 26 50
M  V30 54 1 26 51
M  V30 55 1 26 52
M  V30 56 1 28 53
M  V30 57 1 28 54
M  V30 58 1 28 55
M  V30 END BOND
M  V30 BEGIN COLLECTION
M  V30 MDLV30/STEABS ATOMS=(6 6 7 10 12 16 19)
M  V30 END COLLECTION
M  V30 END CTAB
M  END
>  <Structure No>
4798

>  <LogS>
-4.9453

>  <MMFF94 Energy>
74.064

$$$$
Compound 4799
Actelion Java MolfileCreator 2.0

  0  0  0  0  0  0              0 V3000
M  V30 BEGIN CTAB
M  V30 COUNTS 34 34 0 0 0
M  V30 BEGIN ATOM
M  V30 1 O -4.8097 -2.3225 -3.2847 0
M  V30 2 N -3.5958 -2.2648 -3.5704 0 CHG=1
M  V30 3 O -3.1966 -2.6148 -4.8403 0 CHG=-1
M  V30 4 C -2.6311 -1.8359 -2.5922 0
M  V30 5 C -1.2721 -1.7299 -2.9335 0
M  V30 6 C -3.0306 -1.5102 -1.2836 0
M  V30 7 C -0.333 -1.3108 -1.9871 0
M  V30 8 C -2.0909 -1.0949 -0.3363 0
M  V30 9 C -0.7299 -1.0006 -0.6764 0
M  V30 10 C 0.302 -0.5186 0.3258 0 CFG=2
M  V30 11 O -0.0733 -0.8424 1.6411 0
M  V30 12 C 0.5603 1.0033 0.1986 0 CFG=2
M  V30 13 N 1.6345 1.4025 1.115 0
M  V30 14 C -0.6921 1.8698 0.4399 0
M  V30 15 C 3.0203 1.1751 0.8189 0
M  V30 16 O -1.2137 1.6565 1.7239 0
M  V30 17 O 3.3679 0.7267 -0.3071 0
M  V30 18 C 4.0611 1.4116 1.8692 0
M  V30 19 N 4.2527 0.2067 2.6618 0 CHG=-1
M  V30 20 N 3.2498 -0.2903 3.4293 0 CHG=1
M  V30 21 N 2.4214 -0.6998 4.0622 0
M  V30 22 H -0.9342 -1.9656 -3.9345 0
M  V30 23 H -4.0712 -1.5744 -0.992 0
M  V30 24 H 0.7071 -1.2256 -2.2775 0
M  V30 25 H -2.4299 -0.8389 0.6597 0
M  V30 26 H 1.2646 -1.0357 0.1029 0
M  V30 27 H 0.0331 -1.8254 1.7376 0
M  V30 28 H 0.8895 1.2135 -0.8439 0
M  V30 29 H 1.3863 1.7804 2.0583 0
M  V30 30 H -0.414 2.942 0.3293 0
M  V30 31 H -1.464 1.6435 -0.3284 0
M  V30 32 H -2.0321 2.2142 1.7851 0
M  V30 33 H 5.023 1.6824 1.3862 0
M  V30 34 H 3.7585 2.2505 2.5319 0
M  V30 END ATOM
M  V30 BEGIN BOND
M  V30 1 2 1 2
M  V30 2 1 2 3
M  V30 3 1 2 4
M  V30 4 2 4 5
M  V30 5 1 4 6
M  V30 6 1 5 7
M  V30 7 2 6 8
M  V30 8 2 7 9
M  V30 9 1 9 10
M  V30 10 1 10 11
M  V30 11 1 10 12
M  V30 12 1 12 13
M  V30 13 1 12 14
M  V30 14 1 13 15
M  V30 15 1 14 16
M  V30 16 2 15 17
M  V30 17 1 15 18
M  V30 18 1 18 19
M  V30 19 1 19 20
M  V30 20 3 20 21
M  V30 21 1 8 9
M  V30 22 1 5 22
M  V30 23 1 6 23
M  V30 24 1 7 24
M  V30 25 1 8 25
M  V30 26 1 10 26
M  V30 27 1 11 27
M  V30 28 1 12 28
M  V30 29 1 13 29
M  V30 30 1 14 30
M  V30 31 1 14 31
M  V30 32 1 16 32
M  V30 33 1 18 33
M  V30 34 1 18 34
M  V30 END BOND
M  V30 BEGIN COLLECTION
M  V30 MDLV30/STEABS ATOMS=(2 10 12)
M  V30 END COLLECTION
M  V30 END CTAB
M  END
>  <Structure No>
4799

>  <LogS>
-1.1692

>  <MMFF94 Energy>
71.948

$$$$
Compound 4800
Actelion Java MolfileCreator 2.0

  0  0  0  0  0  0              0 V3000
M  V30 BEGIN CTAB
M  V30 COUNTS 17 16 0 0 0
M  V30 BEGIN ATOM
M  V30 1 N -1.4273 -1.0515 -0.5256 0 CHG=1
M  V30 2 C -0.4127 0.0051 -0.4237 0 CFG=2
M  V30 3 C 0.868 -0.5524 0.2394 0
M  V30 4 C -0.9801 1.2035 0.3552 0
M  V30 5 C 2.0517 0.412 0.1542 0
M  V30 6 H -1.0588 -1.8464 -1.0969 0
M  V30 7 H -1.6875 -1.4026 0.4253 0
M  V30 8 H -2.2825 -0.6816 -1.0013 0
M  V30 9 H -0.1618 0.3486 -1.4531 0
M  V30 10 H 0.6709 -0.7999 1.3056 0
M  V30 11 H 1.1619 -1.4935 -0.2743 0
M  V30 12 H -0.2773 2.0615 0.3233 0
M  V30 13 H -1.935 1.5383 -0.1025 0
M  V30 14 H -1.1715 0.927 1.4141 0
M  V30 15 H 2.9675 -0.095 0.5246 0
M  V30 16 H 1.8769 1.3076 0.7857 0
M  V30 17 H 2.2235 0.7259 -0.8971 0
M  V30 END ATOM
M  V30 BEGIN BOND
M  V30 1 1 1 2
M  V30 2 1 2 3
M  V30 3 1 2 4
M  V30 4 1 3 5
M  V30 5 1 1 6
M  V30 6 1 1 7
M  V30 7 1 1 8
M  V30 8 1 2 9
M  V30 9 1 3 10
M  V30 10 1 3 11
M  V30 11 1 4 12
M  V30 12 1 4 13
M  V30 13 1 4 14
M  V30 14 1 5 15
M  V30 15 1 5 16
M  V30 16 1 5 17
M  V30 END BOND
M  V30 BEGIN COLLECTION
M  V30 MDLV30/STEABS ATOMS=(1 2)
M  V30 END COLLECTION
M  V30 END CTAB
M  END
>  <Structure No>
4800

>  <LogS>
0.1851

>  <MMFF94 Energy>
1.4093

$$$$
Compound 4801
Actelion Java MolfileCreator 2.0

  0  0  0  0  0  0              0 V3000
M  V30 BEGIN CTAB
M  V30 COUNTS 31 33 0 0 0
M  V30 BEGIN ATOM
M  V30 1 S 1.9808 0.5774 -1.8156 0
M  V30 2 C 0.2636 0.2067 -1.4479 0
M  V30 3 C 2.5519 0.095 -0.1841 0
M  V30 4 C -0.2997 0.6616 -0.2415 0
M  V30 5 C -0.5223 -0.4678 -2.3856 0
M  V30 6 C 1.8631 0.5558 0.9542 0
M  V30 7 C 3.7155 -0.6687 -0.0465 0
M  V30 8 N 0.567 1.1743 0.7949 0
M  V30 9 C -1.6737 0.4674 -0.0107 0
M  V30 10 C -1.8845 -0.6615 -2.1472 0
M  V30 11 C 2.383 0.2712 2.2304 0
M  V30 12 C 4.2197 -0.9496 1.2257 0
M  V30 13 C 0.0707 2.1401 1.7791 0
M  V30 14 C -2.4736 -0.177 -0.9689 0
M  V30 15 C 3.5602 -0.4719 2.3615 0
M  V30 16 C -3.933 -0.4176 -0.6983 0
M  V30 17 C -4.1147 -1.7113 0.0283 0
M  V30 18 O -4.2773 -2.7816 -0.6145 0
M  V30 19 O -4.0547 -1.7439 1.4158 0 CHG=-1
M  V30 20 H -0.0844 -0.8213 -3.3103 0
M  V30 21 H 4.2439 -1.021 -0.923 0
M  V30 22 H -2.1168 0.7792 0.9264 0
M  V30 23 H -2.4825 -1.1837 -2.8838 0
M  V30 24 H 1.8623 0.5884 3.1242 0
M  V30 25 H 5.126 -1.5315 1.3317 0
M  V30 26 H -0.6608 2.8298 1.3069 0
M  V30 27 H -0.4178 1.6042 2.6198 0
M  V30 28 H 0.9085 2.7549 2.1715 0
M  V30 29 H 3.9515 -0.6943 3.3458 0
M  V30 30 H -4.3517 0.4105 -0.0866 0
M  V30 31 H -4.5045 -0.4388 -1.652 0
M  V30 END ATOM
M  V30 BEGIN BOND
M  V30 1 1 1 2
M  V30 2 1 1 3
M  V30 3 2 2 4
M  V30 4 1 2 5
M  V30 5 2 3 6
M  V30 6 1 3 7
M  V30 7 1 4 8
M  V30 8 1 4 9
M  V30 9 2 5 10
M  V30 10 1 6 11
M  V30 11 2 7 12
M  V30 12 1 8 13
M  V30 13 2 9 14
M  V30 14 2 11 15
M  V30 15 1 14 16
M  V30 16 1 16 17
M  V30 17 2 17 18
M  V30 18 1 17 19
M  V30 19 1 6 8
M  V30 20 1 10 14
M  V30 21 1 12 15
M  V30 22 1 5 20
M  V30 23 1 7 21
M  V30 24 1 9 22
M  V30 25 1 10 23
M  V30 26 1 11 24
M  V30 27 1 12 25
M  V30 28 1 13 26
M  V30 29 1 13 27
M  V30 30 1 13 28
M  V30 31 1 15 29
M  V30 32 1 16 30
M  V30 33 1 16 31
M  V30 END BOND
M  V30 END CTAB
M  END
>  <Structure No>
4801

>  <LogS>
-3.9422

>  <MMFF94 Energy>
93.183

$$$$
Compound 4802
Actelion Java MolfileCreator 2.0

  0  0  0  0  0  0              0 V3000
M  V30 BEGIN CTAB
M  V30 COUNTS 33 33 0 0 0
M  V30 BEGIN ATOM
M  V30 1 O -1.2708 -3.5773 3.0997 0
M  V30 2 C -0.8572 -2.7964 2.2022 0
M  V30 3 N 0.4482 -2.236 2.2892 0
M  V30 4 N -1.6824 -2.4944 1.0832 0
M  V30 5 C 0.9167 -1.2963 1.3169 0
M  V30 6 C -1.2355 -1.5966 0.0638 0
M  V30 7 O 2.1092 -0.8961 1.4009 0
M  V30 8 C -0.0249 -0.6853 0.2771 0
M  V30 9 O -1.9126 -1.5086 -0.9972 0
M  V30 10 C -0.5244 0.6741 0.8452 0
M  V30 11 C 0.7203 -0.5233 -1.0907 0
M  V30 12 C -1.3987 1.4461 -0.1129 0
M  V30 13 C 1.85 0.4811 -1.0768 0
M  V30 14 C -2.7363 1.3893 -0.0492 0
M  V30 15 C 3.1194 0.1216 -1.3148 0
M  V30 16 C -3.5855 2.1395 -1.0273 0
M  V30 17 C 4.2202 1.1363 -1.3062 0
M  V30 18 H 1.0811 -2.5301 3.0672 0
M  V30 19 H -2.602 -2.9792 0.9768 0
M  V30 20 H 0.3414 1.3183 1.1102 0
M  V30 21 H -1.0733 0.5016 1.7991 0
M  V30 22 H 1.0917 -1.5209 -1.4174 0
M  V30 23 H 0.0117 -0.1854 -1.877 0
M  V30 24 H -0.9217 2.0384 -0.8892 0
M  V30 25 H 1.6188 1.5266 -0.8935 0
M  V30 26 H -3.2225 0.787 0.7134 0
M  V30 27 H 3.3685 -0.9175 -1.5109 0
M  V30 28 H -4.6586 1.9579 -0.8082 0
M  V30 29 H -3.3819 3.2283 -0.9489 0
M  V30 30 H -3.3667 1.7953 -2.0602 0
M  V30 31 H 4.2776 1.6239 -0.3099 0
M  V30 32 H 5.1898 0.6393 -1.5189 0
M  V30 33 H 4.0325 1.9057 -2.0845 0
M  V30 END ATOM
M  V30 BEGIN BOND
M  V30 1 2 1 2
M  V30 2 1 2 3
M  V30 3 1 2 4
M  V30 4 1 3 5
M  V30 5 1 4 6
M  V30 6 2 5 7
M  V30 7 1 5 8
M  V30 8 2 6 9
M  V30 9 1 8 10
M  V30 10 1 8 11
M  V30 11 1 10 12
M  V30 12 1 11 13
M  V30 13 2 12 14
M  V30 14 2 13 15
M  V30 15 1 14 16
M  V30 16 1 15 17
M  V30 17 1 6 8
M  V30 18 1 3 18
M  V30 19 1 4 19
M  V30 20 1 10 20
M  V30 21 1 10 21
M  V30 22 1 11 22
M  V30 23 1 11 23
M  V30 24 1 12 24
M  V30 25 1 13 25
M  V30 26 1 14 26
M  V30 27 1 15 27
M  V30 28 1 16 28
M  V30 29 1 16 29
M  V30 30 1 16 30
M  V30 31 1 17 31
M  V30 32 1 17 32
M  V30 33 1 17 33
M  V30 END BOND
M  V30 END CTAB
M  END
>  <Structure No>
4802

>  <LogS>
-2.1973

>  <MMFF94 Energy>
-118.96

$$$$
Compound 4803
Actelion Java MolfileCreator 2.0

  0  0  0  0  0  0              0 V3000
M  V30 BEGIN CTAB
M  V30 COUNTS 30 30 0 0 0
M  V30 BEGIN ATOM
M  V30 1 O -4.6147 2.2257 0.0 0
M  V30 2 C -4.4217 0.9923 0.1635 0
M  V30 3 O -5.5042 0.167 0.4403 0 CHG=-1
M  V30 4 C -3.0602 0.4395 0.0606 0
M  V30 5 C -2.6561 -0.88 0.2086 0
M  V30 6 C -1.9131 1.1606 -0.2088 0
M  V30 7 O -1.3561 -0.965 0.0424 0
M  V30 8 C -3.5238 -2.0583 0.5103 0
M  V30 9 C -0.8855 0.2365 -0.2065 0
M  V30 10 C 0.5699 0.5367 -0.4533 0 CFG=2
M  V30 11 O 0.9739 -0.0899 -1.6445 0
M  V30 12 C 1.4466 0.1026 0.7526 0 CFG=2
M  V30 13 O 0.835 0.5576 1.9366 0
M  V30 14 C 2.8896 0.6788 0.6904 0 CFG=1
M  V30 15 O 3.5778 0.3529 1.8725 0
M  V30 16 C 3.717 0.1654 -0.5016 0
M  V30 17 O 3.697 -1.2353 -0.5763 0
M  V30 18 H -1.8336 2.2259 -0.3836 0
M  V30 19 H -4.0337 -1.9099 1.485 0
M  V30 20 H -4.2796 -2.1842 -0.2926 0
M  V30 21 H -2.9055 -2.9785 0.5669 0
M  V30 22 H 0.68 1.6348 -0.5906 0
M  V30 23 H 0.8932 -1.0715 -1.5148 0
M  V30 24 H 1.4967 -1.0127 0.768 0
M  V30 25 H 1.0545 -0.0946 2.6526 0
M  V30 26 H 2.8268 1.7892 0.5911 0
M  V30 27 H 3.3713 1.0601 2.5385 0
M  V30 28 H 4.7664 0.5287 -0.4101 0
M  V30 29 H 3.3285 0.5872 -1.4504 0
M  V30 30 H 4.3091 -1.5673 0.1309 0
M  V30 END ATOM
M  V30 BEGIN BOND
M  V30 1 2 1 2
M  V30 2 1 2 3
M  V30 3 1 2 4
M  V30 4 2 4 5
M  V30 5 1 4 6
M  V30 6 1 5 7
M  V30 7 1 5 8
M  V30 8 2 6 9
M  V30 9 1 9 10
M  V30 10 1 10 11
M  V30 11 1 10 12
M  V30 12 1 12 13
M  V30 13 1 12 14
M  V30 14 1 14 15
M  V30 15 1 14 16
M  V30 16 1 16 17
M  V30 17 1 7 9
M  V30 18 1 6 18
M  V30 19 1 8 19
M  V30 20 1 8 20
M  V30 21 1 8 21
M  V30 22 1 10 22
M  V30 23 1 11 23
M  V30 24 1 12 24
M  V30 25 1 13 25
M  V30 26 1 14 26
M  V30 27 1 15 27
M  V30 28 1 16 28
M  V30 29 1 16 29
M  V30 30 1 17 30
M  V30 END BOND
M  V30 BEGIN COLLECTION
M  V30 MDLV30/STEABS ATOMS=(3 10 12 14)
M  V30 END COLLECTION
M  V30 END CTAB
M  END
>  <Structure No>
4803

>  <LogS>
-1.2774

>  <MMFF94 Energy>
80.283

$$$$
Compound 4804
Actelion Java MolfileCreator 2.0

  0  0  0  0  0  0              0 V3000
M  V30 BEGIN CTAB
M  V30 COUNTS 22 23 0 0 0
M  V30 BEGIN ATOM
M  V30 1 N 1.8371 2.2368 0.2394 0
M  V30 2 C 1.9588 0.9052 0.0134 0
M  V30 3 C 0.6316 2.7792 0.5471 0
M  V30 4 N 3.1731 0.3678 -0.2738 0
M  V30 5 C 0.8289 0.0686 0.0908 0
M  V30 6 N -0.4726 1.9914 0.6264 0
M  V30 7 C 3.3174 -0.9676 -0.4807 0
M  V30 8 N 0.9852 -1.2687 -0.1035 0
M  V30 9 C -0.4194 0.6489 0.3973 0
M  V30 10 C 2.2015 -1.8034 -0.3895 0
M  V30 11 N -1.6351 -0.1268 0.4936 0
M  V30 12 C -1.8939 -1.2622 -0.3981 0
M  V30 13 C -2.6811 0.3126 1.4212 0
M  V30 14 H 0.5496 3.8418 0.7303 0
M  V30 15 H 4.2919 -1.3782 -0.7085 0
M  V30 16 H 2.3014 -2.8693 -0.5445 0
M  V30 17 H -1.435 -2.1825 0.0185 0
M  V30 18 H -1.482 -1.0574 -1.4094 0
M  V30 19 H -2.9845 -1.4391 -0.5135 0
M  V30 20 H -3.0879 1.2931 1.0947 0
M  V30 21 H -3.5157 -0.4189 1.469 0
M  V30 22 H -2.2565 0.4136 2.4425 0
M  V30 END ATOM
M  V30 BEGIN BOND
M  V30 1 1 1 2
M  V30 2 2 1 3
M  V30 3 2 2 4
M  V30 4 1 2 5
M  V30 5 1 3 6
M  V30 6 1 4 7
M  V30 7 2 5 8
M  V30 8 1 5 9
M  V30 9 2 7 10
M  V30 10 1 9 11
M  V30 11 1 11 12
M  V30 12 1 11 13
M  V30 13 2 6 9
M  V30 14 1 8 10
M  V30 15 1 3 14
M  V30 16 1 7 15
M  V30 17 1 10 16
M  V30 18 1 12 17
M  V30 19 1 12 18
M  V30 20 1 12 19
M  V30 21 1 13 20
M  V30 22 1 13 21
M  V30 23 1 13 22
M  V30 END BOND
M  V30 END CTAB
M  END
>  <Structure No>
4804

>  <LogS>
-1.0216

>  <MMFF94 Energy>
70.471

$$$$
Compound 4805
Actelion Java MolfileCreator 2.0

  0  0  0  0  0  0              0 V3000
M  V30 BEGIN CTAB
M  V30 COUNTS 21 20 0 0 0
M  V30 BEGIN ATOM
M  V30 1 O 1.5508 -1.706 0.3875 0
M  V30 2 C 1.5041 -0.4541 0.5366 0
M  V30 3 O 2.2631 0.3903 -0.2782 0
M  V30 4 C 0.592 0.1395 1.5646 0
M  V30 5 C 3.1201 -0.1007 -1.3015 0
M  V30 6 C -0.7143 0.6086 0.9276 0
M  V30 7 O -1.4102 -0.5027 0.3995 0
M  V30 8 C -2.5172 -0.0752 -0.371 0
M  V30 9 C -2.1459 -0.0354 -1.8492 0
M  V30 10 H 1.0992 1.006 2.0405 0
M  V30 11 H 0.3743 -0.6078 2.3585 0
M  V30 12 H 3.9007 -0.7567 -0.8614 0
M  V30 13 H 3.6123 0.7552 -1.8068 0
M  V30 14 H 2.5297 -0.6698 -2.0506 0
M  V30 15 H -0.4775 1.3597 0.1385 0
M  V30 16 H -1.3295 1.0978 1.716 0
M  V30 17 H -2.9321 0.9111 -0.0535 0
M  V30 18 H -3.3332 -0.8168 -0.2394 0
M  V30 19 H -3.0397 0.2295 -2.4525 0
M  V30 20 H -1.7745 -1.0302 -2.1743 0
M  V30 21 H -1.3562 0.7234 -2.0295 0
M  V30 END ATOM
M  V30 BEGIN BOND
M  V30 1 2 1 2
M  V30 2 1 2 3
M  V30 3 1 2 4
M  V30 4 1 3 5
M  V30 5 1 4 6
M  V30 6 1 6 7
M  V30 7 1 7 8
M  V30 8 1 8 9
M  V30 9 1 4 10
M  V30 10 1 4 11
M  V30 11 1 5 12
M  V30 12 1 5 13
M  V30 13 1 5 14
M  V30 14 1 6 15
M  V30 15 1 6 16
M  V30 16 1 8 17
M  V30 17 1 8 18
M  V30 18 1 9 19
M  V30 19 1 9 20
M  V30 20 1 9 21
M  V30 END BOND
M  V30 END CTAB
M  END
>  <Structure No>
4805

>  <LogS>
-0.0719

>  <MMFF94 Energy>
-11.571

$$$$
Compound 4806
Actelion Java MolfileCreator 2.0

  0  0  0  0  0  0              0 V3000
M  V30 BEGIN CTAB
M  V30 COUNTS 30 29 0 0 0
M  V30 BEGIN ATOM
M  V30 1 O -0.4665 2.3345 -0.6999 0
M  V30 2 C -0.0354 1.2725 -1.2266 0
M  V30 3 O -0.7955 0.0981 -1.1987 0
M  V30 4 C 1.3251 1.2506 -1.8482 0
M  V30 5 C -2.0408 -0.0138 -0.5132 0
M  V30 6 C 2.3985 0.9176 -0.8066 0
M  V30 7 C -1.8079 -0.1149 0.9995 0
M  V30 8 O 2.1347 -0.3282 -0.185 0
M  V30 9 C -3.0969 -0.4189 1.7774 0
M  V30 10 C 2.7681 -1.3928 -0.8699 0
M  V30 11 C -4.0665 0.7623 1.7956 0
M  V30 12 C 4.1208 -1.6986 -0.2369 0
M  V30 13 H 1.5446 2.2443 -2.2952 0
M  V30 14 H 1.3438 0.5011 -2.6673 0
M  V30 15 H -2.55 -0.9348 -0.8685 0
M  V30 16 H -2.6863 0.856 -0.761 0
M  V30 17 H 2.386 1.7034 -0.0211 0
M  V30 18 H 3.4097 0.9677 -1.2736 0
M  V30 19 H -1.3525 0.8251 1.379 0
M  V30 20 H -1.0841 -0.9373 1.1887 0
M  V30 21 H -3.6031 -1.3104 1.3473 0
M  V30 22 H -2.8242 -0.6617 2.8274 0
M  V30 23 H 2.1269 -2.2939 -0.7697 0
M  V30 24 H 2.8886 -1.2115 -1.9635 0
M  V30 25 H -4.9238 0.5257 2.4605 0
M  V30 26 H -3.5619 1.6738 2.1809 0
M  V30 27 H -4.4632 0.961 0.7784 0
M  V30 28 H 4.803 -0.8295 -0.3446 0
M  V30 29 H 3.9917 -1.9279 0.8421 0
M  V30 30 H 4.5788 -2.5766 -0.7388 0
M  V30 END ATOM
M  V30 BEGIN BOND
M  V30 1 2 1 2
M  V30 2 1 2 3
M  V30 3 1 2 4
M  V30 4 1 3 5
M  V30 5 1 4 6
M  V30 6 1 5 7
M  V30 7 1 6 8
M  V30 8 1 7 9
M  V30 9 1 8 10
M  V30 10 1 9 11
M  V30 11 1 10 12
M  V30 12 1 4 13
M  V30 13 1 4 14
M  V30 14 1 5 15
M  V30 15 1 5 16
M  V30 16 1 6 17
M  V30 17 1 6 18
M  V30 18 1 7 19
M  V30 19 1 7 20
M  V30 20 1 9 21
M  V30 21 1 9 22
M  V30 22 1 10 23
M  V30 23 1 10 24
M  V30 24 1 11 25
M  V30 25 1 11 26
M  V30 26 1 11 27
M  V30 27 1 12 28
M  V30 28 1 12 29
M  V30 29 1 12 30
M  V30 END BOND
M  V30 END CTAB
M  END
>  <Structure No>
4806

>  <LogS>
-1.6391

>  <MMFF94 Energy>
-14.148

$$$$
Compound 4807
Actelion Java MolfileCreator 2.0

  0  0  0  0  0  0              0 V3000
M  V30 BEGIN CTAB
M  V30 COUNTS 33 32 0 0 0
M  V30 BEGIN ATOM
M  V30 1 O 0.6224 -1.6344 -1.7902 0
M  V30 2 C 0.5235 -0.6513 -1.0059 0
M  V30 3 O -0.5007 -0.5952 -0.057 0
M  V30 4 C 1.5384 0.446 -1.0566 0
M  V30 5 C -1.4928 -1.6101 0.0641 0
M  V30 6 C 2.6558 0.1917 -0.0487 0
M  V30 7 C -2.4733 -1.2616 1.188 0
M  V30 8 O 3.587 1.2517 -0.1166 0
M  V30 9 C -3.1814 0.0894 0.9885 0
M  V30 10 C 4.7039 0.986 0.7111 0
M  V30 11 C -4.1662 0.074 -0.1895 0
M  V30 12 C 5.8447 0.4002 -0.1133 0
M  V30 13 C -4.9542 1.379 -0.2638 0
M  V30 14 H 1.0414 1.4128 -0.8248 0
M  V30 15 H 1.9674 0.5135 -2.0803 0
M  V30 16 H -2.0335 -1.7317 -0.8982 0
M  V30 17 H -1.0008 -2.5769 0.3071 0
M  V30 18 H 2.2119 0.1392 0.9722 0
M  V30 19 H 3.1413 -0.7813 -0.2934 0
M  V30 20 H -3.2298 -2.0713 1.2787 0
M  V30 21 H -1.9099 -1.226 2.1458 0
M  V30 22 H -3.7415 0.3203 1.9214 0
M  V30 23 H -2.4299 0.8958 0.8428 0
M  V30 24 H 4.4765 0.3177 1.5758 0
M  V30 25 H 5.0484 1.9502 1.1414 0
M  V30 26 H -4.8804 -0.77 -0.074 0
M  V30 27 H -3.6152 -0.0555 -1.1449 0
M  V30 28 H 6.7405 0.2669 0.5291 0
M  V30 29 H 6.1005 1.0858 -0.9489 0
M  V30 30 H 5.5539 -0.587 -0.5287 0
M  V30 31 H -5.6491 1.345 -1.1293 0
M  V30 32 H -5.5493 1.5246 0.6629 0
M  V30 33 H -4.2637 2.2393 -0.3959 0
M  V30 END ATOM
M  V30 BEGIN BOND
M  V30 1 2 1 2
M  V30 2 1 2 3
M  V30 3 1 2 4
M  V30 4 1 3 5
M  V30 5 1 4 6
M  V30 6 1 5 7
M  V30 7 1 6 8
M  V30 8 1 7 9
M  V30 9 1 8 10
M  V30 10 1 9 11
M  V30 11 1 10 12
M  V30 12 1 11 13
M  V30 13 1 4 14
M  V30 14 1 4 15
M  V30 15 1 5 16
M  V30 16 1 5 17
M  V30 17 1 6 18
M  V30 18 1 6 19
M  V30 19 1 7 20
M  V30 20 1 7 21
M  V30 21 1 9 22
M  V30 22 1 9 23
M  V30 23 1 10 24
M  V30 24 1 10 25
M  V30 25 1 11 26
M  V30 26 1 11 27
M  V30 27 1 12 28
M  V30 28 1 12 29
M  V30 29 1 12 30
M  V30 30 1 13 31
M  V30 31 1 13 32
M  V30 32 1 13 33
M  V30 END BOND
M  V30 END CTAB
M  END
>  <Structure No>
4807

>  <LogS>
-2.1956

>  <MMFF94 Energy>
-11.562

$$$$
Compound 4808
Actelion Java MolfileCreator 2.0

  0  0  0  0  0  0              0 V3000
M  V30 BEGIN CTAB
M  V30 COUNTS 36 35 0 0 0
M  V30 BEGIN ATOM
M  V30 1 O 1.4794 -0.0778 -3.1165 0
M  V30 2 C 1.6779 0.6046 -2.0743 0
M  V30 3 O 0.7013 0.6864 -1.0779 0
M  V30 4 C 2.9914 1.2934 -1.8755 0
M  V30 5 C -0.5521 0.0188 -1.1752 0
M  V30 6 C 3.9828 0.3844 -1.1518 0
M  V30 7 C -1.3789 0.3066 0.076 0
M  V30 8 O 3.5006 0.092 0.1445 0
M  V30 9 C -2.7355 -0.4057 0.0196 0
M  V30 10 C 4.4594 -0.6479 0.8763 0
M  V30 11 C -3.5713 -0.0968 1.2705 0
M  V30 12 C 5.2714 0.2807 1.7718 0
M  V30 13 C -4.879 -0.9015 1.3201 0
M  V30 14 C -5.892 -0.45 0.2683 0
M  V30 15 H 2.8371 2.2217 -1.2841 0
M  V30 16 H 3.4113 1.5833 -2.8631 0
M  V30 17 H -0.3809 -1.0763 -1.2664 0
M  V30 18 H -1.095 0.3804 -2.0762 0
M  V30 19 H 4.1112 -0.552 -1.7417 0
M  V30 20 H 4.9598 0.9163 -1.1003 0
M  V30 21 H -0.8136 -0.0393 0.9688 0
M  V30 22 H -1.5371 1.4038 0.1621 0
M  V30 23 H -3.2819 -0.0671 -0.8866 0
M  V30 24 H -2.5698 -1.5029 -0.0541 0
M  V30 25 H 3.9149 -1.3653 1.5261 0
M  V30 26 H 5.1435 -1.2564 0.2384 0
M  V30 27 H -2.9764 -0.3548 2.1742 0
M  V30 28 H -3.7973 0.9912 1.3155 0
M  V30 29 H 4.593 0.8581 2.4351 0
M  V30 30 H 5.9644 -0.3168 2.4004 0
M  V30 31 H 5.8669 0.9872 1.157 0
M  V30 32 H -4.6665 -1.985 1.1908 0
M  V30 33 H -5.336 -0.7665 2.3241 0
M  V30 34 H -6.8542 -0.9793 0.4322 0
M  V30 35 H -5.5336 -0.6955 -0.7527 0
M  V30 36 H -6.0729 0.6431 0.3456 0
M  V30 END ATOM
M  V30 BEGIN BOND
M  V30 1 2 1 2
M  V30 2 1 2 3
M  V30 3 1 2 4
M  V30 4 1 3 5
M  V30 5 1 4 6
M  V30 6 1 5 7
M  V30 7 1 6 8
M  V30 8 1 7 9
M  V30 9 1 8 10
M  V30 10 1 9 11
M  V30 11 1 10 12
M  V30 12 1 11 13
M  V30 13 1 13 14
M  V30 14 1 4 15
M  V30 15 1 4 16
M  V30 16 1 5 17
M  V30 17 1 5 18
M  V30 18 1 6 19
M  V30 19 1 6 20
M  V30 20 1 7 21
M  V30 21 1 7 22
M  V30 22 1 9 23
M  V30 23 1 9 24
M  V30 24 1 10 25
M  V30 25 1 10 26
M  V30 26 1 11 27
M  V30 27 1 11 28
M  V30 28 1 12 29
M  V30 29 1 12 30
M  V30 30 1 12 31
M  V30 31 1 13 32
M  V30 32 1 13 33
M  V30 33 1 14 34
M  V30 34 1 14 35
M  V30 35 1 14 36
M  V30 END BOND
M  V30 END CTAB
M  END
>  <Structure No>
4808

>  <LogS>
-2.8289

>  <MMFF94 Energy>
-14.573

$$$$
Compound 4809
Actelion Java MolfileCreator 2.0

  0  0  0  0  0  0              0 V3000
M  V30 BEGIN CTAB
M  V30 COUNTS 24 23 0 0 0
M  V30 BEGIN ATOM
M  V30 1 O 1.7084 0.3104 -1.7861 0
M  V30 2 C 1.8337 -0.1971 -0.6381 0
M  V30 3 O 2.2195 0.5891 0.451 0
M  V30 4 C 1.5241 -1.6468 -0.4269 0
M  V30 5 C 2.4582 1.9866 0.3392 0
M  V30 6 C 0.207 -1.8137 0.3273 0
M  V30 7 O -0.8458 -1.2544 -0.433 0
M  V30 8 C -2.0004 -1.0754 0.3655 0
M  V30 9 C -2.0357 0.3335 0.9724 0
M  V30 10 C -2.0005 1.4196 -0.1005 0
M  V30 11 H 1.4625 -2.1716 -1.4053 0
M  V30 12 H 2.3455 -2.1099 0.1603 0
M  V30 13 H 3.2815 2.1757 -0.3815 0
M  V30 14 H 1.5351 2.5029 -1.0E-4 0
M  V30 15 H 2.7494 2.3872 1.3317 0
M  V30 16 H 0.0202 -2.9 0.4776 0
M  V30 17 H 0.3103 -1.3296 1.3263 0
M  V30 18 H -2.0966 -1.8398 1.1728 0
M  V30 19 H -2.892 -1.2035 -0.2845 0
M  V30 20 H -1.176 0.4737 1.6614 0
M  V30 21 H -2.9684 0.4453 1.5664 0
M  V30 22 H -2.0736 2.4179 0.38 0
M  V30 23 H -2.8542 1.299 -0.8008 0
M  V30 24 H -1.0479 1.3729 -0.6695 0
M  V30 END ATOM
M  V30 BEGIN BOND
M  V30 1 2 1 2
M  V30 2 1 2 3
M  V30 3 1 2 4
M  V30 4 1 3 5
M  V30 5 1 4 6
M  V30 6 1 6 7
M  V30 7 1 7 8
M  V30 8 1 8 9
M  V30 9 1 9 10
M  V30 10 1 4 11
M  V30 11 1 4 12
M  V30 12 1 5 13
M  V30 13 1 5 14
M  V30 14 1 5 15
M  V30 15 1 6 16
M  V30 16 1 6 17
M  V30 17 1 8 18
M  V30 18 1 8 19
M  V30 19 1 9 20
M  V30 20 1 9 21
M  V30 21 1 10 22
M  V30 22 1 10 23
M  V30 23 1 10 24
M  V30 END BOND
M  V30 END CTAB
M  END
>  <Structure No>
4809

>  <LogS>
-0.6334

>  <MMFF94 Energy>
-9.6027

$$$$
Compound 4810
Actelion Java MolfileCreator 2.0

  0  0  0  0  0  0              0 V3000
M  V30 BEGIN CTAB
M  V30 COUNTS 30 29 0 0 0
M  V30 BEGIN ATOM
M  V30 1 O -1.9447 2.1782 -0.1554 0
M  V30 2 C -1.4409 1.0483 -0.4013 0
M  V30 3 O -2.0368 -0.1223 0.0804 0
M  V30 4 C -0.1615 0.9575 -1.1704 0
M  V30 5 C -3.2732 -0.1393 0.7931 0
M  V30 6 C 1.0349 0.939 -0.2233 0
M  V30 7 C -4.4604 0.0911 -0.1483 0
M  V30 8 O 2.2222 0.8524 -0.9837 0
M  V30 9 C -4.5616 -0.9999 -1.2115 0
M  V30 10 C 3.3452 0.6913 -0.137 0
M  V30 11 C 3.7212 -0.7901 -0.0384 0
M  V30 12 C 4.9788 -0.9883 0.8026 0
M  V30 13 H -0.0778 1.8241 -1.8621 0
M  V30 14 H -0.1678 0.0278 -1.7794 0
M  V30 15 H -3.3847 -1.1265 1.29 0
M  V30 16 H -3.2644 0.637 1.589 0
M  V30 17 H 0.9344 0.0648 0.4606 0
M  V30 18 H 1.0333 1.8798 0.3739 0
M  V30 19 H -5.3971 0.0981 0.4498 0
M  V30 20 H -4.3652 1.0804 -0.6443 0
M  V30 21 H -3.6579 -0.9978 -1.8573 0
M  V30 22 H -4.6695 -1.9967 -0.7332 0
M  V30 23 H -5.4513 -0.8144 -1.8495 0
M  V30 24 H 3.2019 1.1251 0.882 0
M  V30 25 H 4.194 1.2423 -0.5956 0
M  V30 26 H 3.8986 -1.1945 -1.0584 0
M  V30 27 H 2.8864 -1.36 0.4226 0
M  V30 28 H 5.2246 -2.0699 0.8541 0
M  V30 29 H 5.8372 -0.4505 0.3466 0
M  V30 30 H 4.8157 -0.6117 1.835 0
M  V30 END ATOM
M  V30 BEGIN BOND
M  V30 1 2 1 2
M  V30 2 1 2 3
M  V30 3 1 2 4
M  V30 4 1 3 5
M  V30 5 1 4 6
M  V30 6 1 5 7
M  V30 7 1 6 8
M  V30 8 1 7 9
M  V30 9 1 8 10
M  V30 10 1 10 11
M  V30 11 1 11 12
M  V30 12 1 4 13
M  V30 13 1 4 14
M  V30 14 1 5 15
M  V30 15 1 5 16
M  V30 16 1 6 17
M  V30 17 1 6 18
M  V30 18 1 7 19
M  V30 19 1 7 20
M  V30 20 1 9 21
M  V30 21 1 9 22
M  V30 22 1 9 23
M  V30 23 1 10 24
M  V30 24 1 10 25
M  V30 25 1 11 26
M  V30 26 1 11 27
M  V30 27 1 12 28
M  V30 28 1 12 29
M  V30 29 1 12 30
M  V30 END BOND
M  V30 END CTAB
M  END
>  <Structure No>
4810

>  <LogS>
-1.6848

>  <MMFF94 Energy>
-13.903

$$$$
Compound 4811
Actelion Java MolfileCreator 2.0

  0  0  0  0  0  0              0 V3000
M  V30 BEGIN CTAB
M  V30 COUNTS 36 35 0 0 0
M  V30 BEGIN ATOM
M  V30 1 O 1.5576 2.1813 -0.1556 0
M  V30 2 C 1.2522 1.2264 0.6098 0
M  V30 3 O 2.2352 0.3633 1.1069 0
M  V30 4 C -0.1816 0.9848 0.9586 0
M  V30 5 C 3.6124 0.4529 0.7478 0
M  V30 6 C -0.8177 0.0104 -0.0344 0
M  V30 7 C 3.8396 -0.142 -0.6476 0
M  V30 8 O -2.1515 -0.2704 0.347 0
M  V30 9 C 5.285 0.0328 -1.1372 0
M  V30 10 C -3.0569 0.538 -0.3777 0
M  V30 11 C 6.28 -0.8345 -0.3667 0
M  V30 12 C -4.4755 0.3281 0.1539 0
M  V30 13 C -4.965 -1.1067 -0.0818 0
M  V30 14 C -6.3896 -1.2936 0.4319 0
M  V30 15 H -0.2417 0.5612 1.9844 0
M  V30 16 H -0.733 1.9496 0.9516 0
M  V30 17 H 3.9488 1.5125 0.786 0
M  V30 18 H 4.1979 -0.1214 1.4949 0
M  V30 19 H -0.2507 -0.945 -0.0056 0
M  V30 20 H -0.7235 0.4011 -1.0766 0
M  V30 21 H 3.5675 -1.2201 -0.6418 0
M  V30 22 H 3.1677 0.3675 -1.3711 0
M  V30 23 H 5.5866 1.1007 -1.0657 0
M  V30 24 H 5.3289 -0.2571 -2.2095 0
M  V30 25 H -3.0333 0.277 -1.4603 0
M  V30 26 H -2.8051 1.6169 -0.2613 0
M  V30 27 H 6.3683 -0.4916 0.6849 0
M  V30 28 H 7.2812 -0.7558 -0.8402 0
M  V30 29 H 5.9634 -1.8991 -0.3846 0
M  V30 30 H -5.1573 1.0391 -0.3626 0
M  V30 31 H -4.494 0.5586 1.242 0
M  V30 32 H -4.2988 -1.8246 0.4441 0
M  V30 33 H -4.9422 -1.3373 -1.1693 0
M  V30 34 H -6.435 -1.0946 1.524 0
M  V30 35 H -6.7169 -2.3386 0.2479 0
M  V30 36 H -7.0844 -0.6054 -0.0956 0
M  V30 END ATOM
M  V30 BEGIN BOND
M  V30 1 2 1 2
M  V30 2 1 2 3
M  V30 3 1 2 4
M  V30 4 1 3 5
M  V30 5 1 4 6
M  V30 6 1 5 7
M  V30 7 1 6 8
M  V30 8 1 7 9
M  V30 9 1 8 10
M  V30 10 1 9 11
M  V30 11 1 10 12
M  V30 12 1 12 13
M  V30 13 1 13 14
M  V30 14 1 4 15
M  V30 15 1 4 16
M  V30 16 1 5 17
M  V30 17 1 5 18
M  V30 18 1 6 19
M  V30 19 1 6 20
M  V30 20 1 7 21
M  V30 21 1 7 22
M  V30 22 1 9 23
M  V30 23 1 9 24
M  V30 24 1 10 25
M  V30 25 1 10 26
M  V30 26 1 11 27
M  V30 27 1 11 28
M  V30 28 1 11 29
M  V30 29 1 12 30
M  V30 30 1 12 31
M  V30 31 1 13 32
M  V30 32 1 13 33
M  V30 33 1 14 34
M  V30 34 1 14 35
M  V30 35 1 14 36
M  V30 END BOND
M  V30 END CTAB
M  END
>  <Structure No>
4811

>  <LogS>
-2.4029

>  <MMFF94 Energy>
-12.137

$$$$
Compound 4812
Actelion Java MolfileCreator 2.0

  0  0  0  0  0  0              0 V3000
M  V30 BEGIN CTAB
M  V30 COUNTS 50 52 0 0 0
M  V30 BEGIN ATOM
M  V30 1 O -2.7164 1.757 -0.3991 0
M  V30 2 C -3.3231 0.5762 -0.8501 0
M  V30 3 C -2.9825 2.3482 0.8732 0
M  V30 4 C -3.2194 -0.6318 -0.1284 0
M  V30 5 C -3.9769 0.5914 -2.0888 0
M  V30 6 C -1.7646 3.1412 1.3409 0
M  V30 7 O -2.4752 -0.6523 1.0636 0
M  V30 8 C -3.8299 -1.7932 -0.6406 0
M  V30 9 C -4.5523 -0.5739 -2.6014 0
M  V30 10 O -0.656 2.2661 1.4692 0
M  V30 11 C -1.8612 -1.808 1.635 0
M  V30 12 C -4.4865 -1.7629 -1.874 0
M  V30 13 C 0.3497 2.5908 0.5245 0
M  V30 14 C -0.7771 -2.3547 0.6941 0
M  V30 15 C 1.3942 1.4836 0.5272 0
M  V30 16 O 0.2007 -3.0954 1.4059 0
M  V30 17 O 2.4649 1.8208 -0.3472 0
M  V30 18 C 1.2583 -2.2533 1.8335 0
M  V30 19 C 3.5726 1.0062 -0.6557 0
M  V30 20 C 2.3144 -2.0803 0.7321 0
M  V30 21 C 3.8014 -0.2738 -0.0861 0
M  V30 22 C 4.4805 1.4994 -1.6014 0
M  V30 23 O 2.9274 -0.8007 0.8661 0
M  V30 24 C 4.9278 -1.0184 -0.477 0
M  V30 25 C 5.5944 0.7448 -1.9868 0
M  V30 26 C 5.819 -0.5119 -1.4245 0
M  V30 27 H -3.8544 3.0286 0.7782 0
M  V30 28 H -3.2312 1.5841 1.6392 0
M  V30 29 H -4.0298 1.5095 -2.6595 0
M  V30 30 H -1.5997 4.0149 0.6597 0
M  V30 31 H -1.9867 3.5629 2.3484 0
M  V30 32 H -3.7892 -2.7282 -0.1015 0
M  V30 33 H -5.0445 -0.5568 -3.5654 0
M  V30 34 H -1.4057 -1.5058 2.6007 0
M  V30 35 H -2.6178 -2.5872 1.8655 0
M  V30 36 H -4.9358 -2.6617 -2.2689 0
M  V30 37 H 0.8375 3.5602 0.8072 0
M  V30 38 H -0.0683 2.6683 -0.5143 0
M  V30 39 H -1.2555 -3.038 -0.0375 0
M  V30 40 H -0.3402 -1.5257 0.0922 0
M  V30 41 H 1.7823 1.3523 1.555 0
M  V30 42 H 0.9133 0.5528 0.1779 0
M  V30 43 H 0.8907 -1.2595 2.1909 0
M  V30 44 H 1.7448 -2.7312 2.7124 0
M  V30 45 H 3.0717 -2.8893 0.7997 0
M  V30 46 H 1.8425 -2.1396 -0.273 0
M  V30 47 H 4.3149 2.4739 -2.0472 0
M  V30 48 H 5.125 -1.9868 -0.0353 0
M  V30 49 H 6.2886 1.1423 -2.7154 0
M  V30 50 H 6.69 -1.0939 -1.7176 0
M  V30 END ATOM
M  V30 BEGIN BOND
M  V30 1 1 1 2
M  V30 2 1 1 3
M  V30 3 2 2 4
M  V30 4 1 2 5
M  V30 5 1 3 6
M  V30 6 1 4 7
M  V30 7 1 4 8
M  V30 8 2 5 9
M  V30 9 1 6 10
M  V30 10 1 7 11
M  V30 11 2 8 12
M  V30 12 1 10 13
M  V30 13 1 11 14
M  V30 14 1 13 15
M  V30 15 1 14 16
M  V30 16 1 15 17
M  V30 17 1 16 18
M  V30 18 1 17 19
M  V30 19 1 18 20
M  V30 20 2 19 21
M  V30 21 1 19 22
M  V30 22 1 20 23
M  V30 23 1 21 24
M  V30 24 2 22 25
M  V30 25 2 24 26
M  V30 26 1 9 12
M  V30 27 1 21 23
M  V30 28 1 25 26
M  V30 29 1 3 27
M  V30 30 1 3 28
M  V30 31 1 5 29
M  V30 32 1 6 30
M  V30 33 1 6 31
M  V30 34 1 8 32
M  V30 35 1 9 33
M  V30 36 1 11 34
M  V30 37 1 11 35
M  V30 38 1 12 36
M  V30 39 1 13 37
M  V30 40 1 13 38
M  V30 41 1 14 39
M  V30 42 1 14 40
M  V30 43 1 15 41
M  V30 44 1 15 42
M  V30 45 1 18 43
M  V30 46 1 18 44
M  V30 47 1 20 45
M  V30 48 1 20 46
M  V30 49 1 22 47
M  V30 50 1 24 48
M  V30 51 1 25 49
M  V30 52 1 26 50
M  V30 END BOND
M  V30 END CTAB
M  END
>  <Structure No>
4812

>  <LogS>
-4.6935

>  <MMFF94 Energy>
155.31

$$$$
Compound 4813
Actelion Java MolfileCreator 2.0

  0  0  0  0  0  0              0 V3000
M  V30 BEGIN CTAB
M  V30 COUNTS 39 40 0 0 0
M  V30 BEGIN ATOM
M  V30 1 O -3.1701 -1.7426 -0.2374 0
M  V30 2 C -3.9683 -0.7681 -0.1568 0
M  V30 3 N -5.3402 -0.9368 -0.5723 0
M  V30 4 N -3.5064 0.4853 0.3789 0
M  V30 5 C -6.2635 0.2022 -0.5808 0
M  V30 6 C -5.7934 -2.255 -1.0276 0
M  V30 7 C -2.118 0.8495 0.4725 0
M  V30 8 C -1.6959 1.6969 1.5077 0
M  V30 9 C -1.1829 0.4277 -0.4893 0
M  V30 10 C -0.3558 2.0818 1.6071 0
M  V30 11 C 0.1568 0.8139 -0.3891 0
M  V30 12 C 0.5828 1.6292 0.6741 0
M  V30 13 O 1.9152 2.0487 0.8006 0
M  V30 14 C 3.0403 1.3181 0.3903 0
M  V30 15 C 4.1854 2.0153 -0.0088 0
M  V30 16 C 3.0649 -0.0873 0.4151 0
M  V30 17 C 5.3314 1.3234 -0.4107 0
M  V30 18 C 4.2109 -0.7803 0.0137 0
M  V30 19 C 5.3553 -0.076 -0.4066 0
M  V30 20 O 6.5284 -0.7241 -0.8208 0
M  V30 21 C 6.6918 -2.1378 -0.8665 0
M  V30 22 H -4.2034 1.1284 0.8158 0
M  V30 23 H -7.2364 -0.0609 -1.0463 0
M  V30 24 H -5.8238 1.0395 -1.1632 0
M  V30 25 H -6.46 0.5344 0.4599 0
M  V30 26 H -5.6488 -3.0004 -0.2172 0
M  V30 27 H -5.2076 -2.5653 -1.9186 0
M  V30 28 H -6.8691 -2.2499 -1.3019 0
M  V30 29 H -2.4058 2.0529 2.2439 0
M  V30 30 H -1.4905 -0.174 -1.334 0
M  V30 31 H -0.0438 2.7299 2.4164 0
M  V30 32 H 0.8533 0.4992 -1.1549 0
M  V30 33 H 4.1839 3.098 -0.0153 0
M  V30 34 H 2.2068 -0.6474 0.7625 0
M  V30 35 H 6.2066 1.8775 -0.7256 0
M  V30 36 H 4.199 -1.8613 0.041 0
M  V30 37 H 5.9517 -2.5854 -1.5631 0
M  V30 38 H 7.712 -2.373 -1.2327 0
M  V30 39 H 6.5704 -2.5692 0.1494 0
M  V30 END ATOM
M  V30 BEGIN BOND
M  V30 1 2 1 2
M  V30 2 1 2 3
M  V30 3 1 2 4
M  V30 4 1 3 5
M  V30 5 1 3 6
M  V30 6 1 4 7
M  V30 7 2 7 8
M  V30 8 1 7 9
M  V30 9 1 8 10
M  V30 10 2 9 11
M  V30 11 2 10 12
M  V30 12 1 12 13
M  V30 13 1 13 14
M  V30 14 2 14 15
M  V30 15 1 14 16
M  V30 16 1 15 17
M  V30 17 2 16 18
M  V30 18 2 17 19
M  V30 19 1 19 20
M  V30 20 1 20 21
M  V30 21 1 11 12
M  V30 22 1 18 19
M  V30 23 1 4 22
M  V30 24 1 5 23
M  V30 25 1 5 24
M  V30 26 1 5 25
M  V30 27 1 6 26
M  V30 28 1 6 27
M  V30 29 1 6 28
M  V30 30 1 8 29
M  V30 31 1 9 30
M  V30 32 1 10 31
M  V30 33 1 11 32
M  V30 34 1 15 33
M  V30 35 1 16 34
M  V30 36 1 17 35
M  V30 37 1 18 36
M  V30 38 1 21 37
M  V30 39 1 21 38
M  V30 40 1 21 39
M  V30 END BOND
M  V30 END CTAB
M  END
>  <Structure No>
4813

>  <LogS>
-4.1558

>  <MMFF94 Energy>
-17.623

$$$$
Compound 4814
Actelion Java MolfileCreator 2.0

  0  0  0  0  0  0              0 V3000
M  V30 BEGIN CTAB
M  V30 COUNTS 31 33 0 0 0
M  V30 BEGIN ATOM
M  V30 1 Cl 6.0746 1.769 0.5052 0
M  V30 2 C 4.5092 1.0257 0.2107 0
M  V30 3 C 3.3329 1.8127 0.1009 0
M  V30 4 C 4.4381 -0.3732 0.0752 0
M  V30 5 Cl 3.3966 3.5633 0.2488 0
M  V30 6 C 2.0881 1.198 -0.1375 0
M  V30 7 C 3.1911 -0.9451 -0.1574 0
M  V30 8 C 2.0543 -0.196 -0.2487 0
M  V30 9 N 2.9163 -2.2478 -0.3372 0
M  V30 10 N 1.0116 -1.0142 -0.4941 0
M  V30 11 C 1.5725 -2.2581 -0.5384 0
M  V30 12 C -0.3741 -0.6558 -0.6448 0
M  V30 13 C 0.8144 -3.5349 -0.767 0
M  V30 14 O -1.136 -1.3718 -1.3491 0
M  V30 15 O -0.8595 0.5143 -0.0468 0
M  V30 16 F 1.6404 -4.6231 -0.5496 0
M  V30 17 F 0.3565 -3.5786 -2.0703 0
M  V30 18 F -0.2558 -3.6122 0.1051 0
M  V30 19 C -2.2127 0.8346 0.1351 0
M  V30 20 C -2.5779 2.1865 0.1758 0
M  V30 21 C -3.2021 -0.1505 0.3199 0
M  V30 22 C -3.9136 2.5542 0.3656 0
M  V30 23 C -4.5371 0.2208 0.5106 0
M  V30 24 C -4.8934 1.5717 0.5289 0
M  V30 25 H 5.3257 -0.9889 0.145 0
M  V30 26 H 1.1989 1.8017 -0.244 0
M  V30 27 H -1.8241 2.9537 0.0519 0
M  V30 28 H -2.9447 -1.2002 0.3483 0
M  V30 29 H -4.1884 3.6009 0.3878 0
M  V30 30 H -5.2944 -0.5391 0.6533 0
M  V30 31 H -5.9267 1.8573 0.6781 0
M  V30 END ATOM
M  V30 BEGIN BOND
M  V30 1 1 1 2
M  V30 2 2 2 3
M  V30 3 1 2 4
M  V30 4 1 3 5
M  V30 5 1 3 6
M  V30 6 2 4 7
M  V30 7 2 6 8
M  V30 8 1 7 9
M  V30 9 1 8 10
M  V30 10 2 9 11
M  V30 11 1 10 12
M  V30 12 1 11 13
M  V30 13 2 12 14
M  V30 14 1 12 15
M  V30 15 1 13 16
M  V30 16 1 13 17
M  V30 17 1 13 18
M  V30 18 1 15 19
M  V30 19 2 19 20
M  V30 20 1 19 21
M  V30 21 1 20 22
M  V30 22 2 21 23
M  V30 23 2 22 24
M  V30 24 1 7 8
M  V30 25 1 10 11
M  V30 26 1 23 24
M  V30 27 1 4 25
M  V30 28 1 6 26
M  V30 29 1 20 27
M  V30 30 1 21 28
M  V30 31 1 22 29
M  V30 32 1 23 30
M  V30 33 1 24 31
M  V30 END BOND
M  V30 END CTAB
M  END
>  <Structure No>
4814

>  <LogS>
-4.4603

>  <MMFF94 Energy>
69.039

$$$$
Compound 4815
Actelion Java MolfileCreator 2.0

  0  0  0  0  0  0              0 V3000
M  V30 BEGIN CTAB
M  V30 COUNTS 26 25 0 0 0
M  V30 BEGIN ATOM
M  V30 1 O 1.6398 0.2341 1.5616 0
M  V30 2 C 0.956 0.124 0.5074 0
M  V30 3 N 1.379 -0.7823 -0.5251 0
M  V30 4 C -0.3229 0.9266 0.3818 0 CFG=1
M  V30 5 C 2.6261 -1.5373 -0.4358 0
M  V30 6 N -0.5347 1.4019 -0.9954 0 CHG=1
M  V30 7 C -1.5444 0.1495 0.9609 0
M  V30 8 C 3.7954 -0.6301 -0.6464 0
M  V30 9 C -2.8 1.0313 1.0274 0
M  V30 10 C -1.8596 -1.1647 0.2266 0
M  V30 11 O 4.0551 -0.1909 -1.7974 0
M  V30 12 O 4.5804 -0.2421 0.4319 0 CHG=-1
M  V30 13 H 0.7713 -0.9449 -1.3578 0
M  V30 14 H -0.1847 1.8291 1.0216 0
M  V30 15 H 2.6379 -2.3271 -1.2177 0
M  V30 16 H 2.6968 -2.039 0.5533 0
M  V30 17 H -1.2667 2.1478 -1.0062 0
M  V30 18 H -0.8295 0.6323 -1.6349 0
M  V30 19 H 0.348 1.8266 -1.3631 0
M  V30 20 H -1.2916 -0.1201 2.0114 0
M  V30 21 H -2.5751 1.9889 1.5434 0
M  V30 22 H -3.598 0.5127 1.6007 0
M  V30 23 H -3.1884 1.2493 0.0101 0
M  V30 24 H -2.6857 -1.6954 0.7465 0
M  V30 25 H -2.1783 -0.981 -0.8198 0
M  V30 26 H -0.981 -1.8411 0.2318 0
M  V30 END ATOM
M  V30 BEGIN BOND
M  V30 1 2 1 2
M  V30 2 1 2 3
M  V30 3 1 2 4
M  V30 4 1 3 5
M  V30 5 1 4 6
M  V30 6 1 4 7
M  V30 7 1 5 8
M  V30 8 1 7 9
M  V30 9 1 7 10
M  V30 10 2 8 11
M  V30 11 1 8 12
M  V30 12 1 3 13
M  V30 13 1 4 14
M  V30 14 1 5 15
M  V30 15 1 5 16
M  V30 16 1 6 17
M  V30 17 1 6 18
M  V30 18 1 6 19
M  V30 19 1 7 20
M  V30 20 1 9 21
M  V30 21 1 9 22
M  V30 22 1 9 23
M  V30 23 1 10 24
M  V30 24 1 10 25
M  V30 25 1 10 26
M  V30 END BOND
M  V30 BEGIN COLLECTION
M  V30 MDLV30/STEABS ATOMS=(1 4)
M  V30 END COLLECTION
M  V30 END CTAB
M  END
>  <Structure No>
4815

>  <LogS>
0.4579

>  <MMFF94 Energy>
-17.365

$$$$
Compound 4816
Actelion Java MolfileCreator 2.0

  0  0  0  0  0  0              0 V3000
M  V30 BEGIN CTAB
M  V30 COUNTS 32 32 0 0 0
M  V30 BEGIN ATOM
M  V30 1 O -1.4173 1.9689 0.9447 0
M  V30 2 C -1.8618 0.9173 0.408 0
M  V30 3 N -3.205 0.9004 -0.1162 0
M  V30 4 C -0.9791 -0.2658 0.3257 0
M  V30 5 C -3.5344 0.0842 -1.2899 0
M  V30 6 C -4.1955 1.8286 0.4351 0
M  V30 7 C 0.376 -0.1083 -0.0076 0
M  V30 8 C -1.4698 -1.5464 0.6228 0
M  V30 9 C 1.2337 -1.2211 -0.0673 0
M  V30 10 C -0.6276 -2.6575 0.5484 0
M  V30 11 C 2.6583 -1.0606 -0.4427 0
M  V30 12 C 0.7145 -2.4994 0.1963 0
M  V30 13 O 3.2314 -1.9872 -1.0782 0
M  V30 14 N 3.3995 0.1306 -0.1146 0
M  V30 15 C 4.4106 0.6239 -1.0497 0
M  V30 16 C 3.1994 0.8302 1.1573 0
M  V30 17 H -3.6503 -0.9786 -0.999 0
M  V30 18 H -2.7303 0.1735 -2.0511 0
M  V30 19 H -4.4832 0.4174 -1.761 0
M  V30 20 H -3.882 2.8756 0.238 0
M  V30 21 H -5.1986 1.6687 -0.0137 0
M  V30 22 H -4.2826 1.6728 1.5313 0
M  V30 23 H 0.7529 0.8778 -0.2496 0
M  V30 24 H -2.4986 -1.6849 0.9301 0
M  V30 25 H -1.0142 -3.6434 0.7726 0
M  V30 26 H 1.3523 -3.3735 0.1492 0
M  V30 27 H 4.8696 1.5666 -0.6812 0
M  V30 28 H 5.2128 -0.1339 -1.1726 0
M  V30 29 H 3.941 0.8253 -2.0357 0
M  V30 30 H 2.5438 0.2489 1.8396 0
M  V30 31 H 2.7427 1.8247 0.9704 0
M  V30 32 H 4.1765 0.9702 1.6661 0
M  V30 END ATOM
M  V30 BEGIN BOND
M  V30 1 2 1 2
M  V30 2 1 2 3
M  V30 3 1 2 4
M  V30 4 1 3 5
M  V30 5 1 3 6
M  V30 6 2 4 7
M  V30 7 1 4 8
M  V30 8 1 7 9
M  V30 9 2 8 10
M  V30 10 1 9 11
M  V30 11 2 9 12
M  V30 12 2 11 13
M  V30 13 1 11 14
M  V30 14 1 14 15
M  V30 15 1 14 16
M  V30 16 1 10 12
M  V30 17 1 5 17
M  V30 18 1 5 18
M  V30 19 1 5 19
M  V30 20 1 6 20
M  V30 21 1 6 21
M  V30 22 1 6 22
M  V30 23 1 7 23
M  V30 24 1 8 24
M  V30 25 1 10 25
M  V30 26 1 12 26
M  V30 27 1 15 27
M  V30 28 1 15 28
M  V30 29 1 15 29
M  V30 30 1 16 30
M  V30 31 1 16 31
M  V30 32 1 16 32
M  V30 END BOND
M  V30 END CTAB
M  END
>  <Structure No>
4816

>  <LogS>
0.487

>  <MMFF94 Energy>
20.927

$$$$
Compound 4817
Actelion Java MolfileCreator 2.0

  0  0  0  0  0  0              0 V3000
M  V30 BEGIN CTAB
M  V30 COUNTS 25 25 0 0 0
M  V30 BEGIN ATOM
M  V30 1 Cl -6.0499 -0.9661 1.1272 0
M  V30 2 C -4.3827 -0.6833 0.661 0
M  V30 3 C -3.5104 -1.7628 0.4909 0
M  V30 4 C -3.9237 0.622 0.4588 0
M  V30 5 C -2.1814 -1.5378 0.1194 0
M  V30 6 C -2.5947 0.8496 0.0872 0
M  V30 7 C -1.7113 -0.2343 -0.0855 0
M  V30 8 O -0.37 -0.0606 -0.457 0
M  V30 9 C 0.2417 1.2033 -0.6966 0
M  V30 10 C 1.6721 0.9924 -1.0606 0
M  V30 11 O 1.9922 0.8317 -2.2699 0
M  V30 12 O 2.6369 0.9329 -0.0488 0
M  V30 13 C 4.0145 0.6563 -0.2933 0
M  V30 14 C 4.2245 -0.8284 -0.5669 0
M  V30 15 H -3.8603 -2.7755 0.6462 0
M  V30 16 H -4.5955 1.4611 0.5894 0
M  V30 17 H -1.513 -2.3797 -0.0098 0
M  V30 18 H -2.2654 1.8687 -0.0627 0
M  V30 19 H 0.1873 1.8285 0.2205 0
M  V30 20 H -0.2814 1.7259 -1.5268 0
M  V30 21 H 4.3865 1.2633 -1.1472 0
M  V30 22 H 4.597 0.9381 0.609 0
M  V30 23 H 3.6891 -1.1319 -1.4907 0
M  V30 24 H 5.3076 -1.0341 -0.6988 0
M  V30 25 H 3.8453 -1.4281 0.2873 0
M  V30 END ATOM
M  V30 BEGIN BOND
M  V30 1 1 1 2
M  V30 2 2 2 3
M  V30 3 1 2 4
M  V30 4 1 3 5
M  V30 5 2 4 6
M  V30 6 2 5 7
M  V30 7 1 7 8
M  V30 8 1 8 9
M  V30 9 1 9 10
M  V30 10 2 10 11
M  V30 11 1 10 12
M  V30 12 1 12 13
M  V30 13 1 13 14
M  V30 14 1 6 7
M  V30 15 1 3 15
M  V30 16 1 4 16
M  V30 17 1 5 17
M  V30 18 1 6 18
M  V30 19 1 9 19
M  V30 20 1 9 20
M  V30 21 1 13 21
M  V30 22 1 13 22
M  V30 23 1 14 23
M  V30 24 1 14 24
M  V30 25 1 14 25
M  V30 END BOND
M  V30 END CTAB
M  END
>  <Structure No>
4817

>  <LogS>
-2.4206

>  <MMFF94 Energy>
32.847

$$$$
Compound 4818
Actelion Java MolfileCreator 2.0

  0  0  0  0  0  0              0 V3000
M  V30 BEGIN CTAB
M  V30 COUNTS 24 24 0 0 0
M  V30 BEGIN ATOM
M  V30 1 Cl -3.871 1.9753 2.3872 0
M  V30 2 C -2.8001 1.0041 1.3939 0
M  V30 3 C -2.8241 -0.3906 1.4954 0
M  V30 4 C -1.921 1.6235 0.4998 0
M  V30 5 C -1.9699 -1.1661 0.7056 0
M  V30 6 C -1.0662 0.8508 -0.2917 0
M  V30 7 C -1.0831 -0.5513 -0.1945 0
M  V30 8 C -0.1447 -1.385 -1.0353 0
M  V30 9 C 1.2132 -1.6449 -0.3579 0 CFG=2
M  V30 10 Cl 1.0313 -2.633 1.1239 0
M  V30 11 C 1.9506 -0.3674 -0.0726 0
M  V30 12 O 1.8224 0.2067 1.0443 0
M  V30 13 O 2.7305 0.2079 -1.0797 0
M  V30 14 C 3.4121 1.4443 -0.9075 0
M  V30 15 H -3.503 -0.8744 2.1862 0
M  V30 16 H -1.8981 2.7029 0.4184 0
M  V30 17 H -1.9995 -2.2448 0.7959 0
M  V30 18 H -0.388 1.3445 -0.9768 0
M  V30 19 H -0.6227 -2.3611 -1.2708 0
M  V30 20 H 0.0267 -0.8805 -2.0119 0
M  V30 21 H 1.8322 -2.2441 -1.0597 0
M  V30 22 H 3.9597 1.6917 -1.8398 0
M  V30 23 H 2.6818 2.2537 -0.6933 0
M  V30 24 H 4.1399 1.3645 -0.0723 0
M  V30 END ATOM
M  V30 BEGIN BOND
M  V30 1 1 1 2
M  V30 2 2 2 3
M  V30 3 1 2 4
M  V30 4 1 3 5
M  V30 5 2 4 6
M  V30 6 2 5 7
M  V30 7 1 7 8
M  V30 8 1 8 9
M  V30 9 1 9 10
M  V30 10 1 9 11
M  V30 11 2 11 12
M  V30 12 1 11 13
M  V30 13 1 13 14
M  V30 14 1 6 7
M  V30 15 1 3 15
M  V30 16 1 4 16
M  V30 17 1 5 17
M  V30 18 1 6 18
M  V30 19 1 8 19
M  V30 20 1 8 20
M  V30 21 1 9 21
M  V30 22 1 14 22
M  V30 23 1 14 23
M  V30 24 1 14 24
M  V30 END BOND
M  V30 BEGIN COLLECTION
M  V30 MDLV30/STEABS ATOMS=(1 9)
M  V30 END COLLECTION
M  V30 END CTAB
M  END
>  <Structure No>
4818

>  <LogS>
-3.7655

>  <MMFF94 Energy>
35.136

$$$$
Compound 4819
Actelion Java MolfileCreator 2.0

  0  0  0  0  0  0              0 V3000
M  V30 BEGIN CTAB
M  V30 COUNTS 24 25 0 0 0
M  V30 BEGIN ATOM
M  V30 1 O 0.239 -0.7969 0.7969 0
M  V30 2 C 1.5892 -0.8087 0.42 0
M  V30 3 C -0.7102 0.1586 0.3989 0
M  V30 4 N 2.5002 -1.3756 1.255 0
M  V30 5 C 2.0246 -0.2977 -0.8118 0
M  V30 6 C -2.0562 -0.2292 0.2464 0
M  V30 7 C -0.3518 1.5048 0.1972 0
M  V30 8 N 3.7966 -1.4342 0.9437 0
M  V30 9 C 3.3786 -0.358 -1.1334 0
M  V30 10 C -3.0141 0.7222 -0.1433 0
M  V30 11 C -2.4604 -1.6589 0.4715 0
M  V30 12 C -1.3136 2.4424 -0.1853 0
M  V30 13 C 4.2665 -0.9354 -0.2288 0
M  V30 14 C -2.6418 2.0509 -0.3597 0
M  V30 15 H 1.3252 0.1226 -1.5223 0
M  V30 16 H 0.6675 1.8325 0.3532 0
M  V30 17 H 3.7353 0.0319 -2.078 0
M  V30 18 H -4.0503 0.4374 -0.2785 0
M  V30 19 H -3.5587 -1.7941 0.3732 0
M  V30 20 H -2.1618 -1.9773 1.4926 0
M  V30 21 H -1.9572 -2.3095 -0.2742 0
M  V30 22 H -1.0299 3.4754 -0.3411 0
M  V30 23 H 5.3218 -0.995 -0.459 0
M  V30 24 H -3.3852 2.7794 -0.6567 0
M  V30 END ATOM
M  V30 BEGIN BOND
M  V30 1 1 1 2
M  V30 2 1 1 3
M  V30 3 2 2 4
M  V30 4 1 2 5
M  V30 5 2 3 6
M  V30 6 1 3 7
M  V30 7 1 4 8
M  V30 8 2 5 9
M  V30 9 1 6 10
M  V30 10 1 6 11
M  V30 11 2 7 12
M  V30 12 2 8 13
M  V30 13 2 10 14
M  V30 14 1 9 13
M  V30 15 1 12 14
M  V30 16 1 5 15
M  V30 17 1 7 16
M  V30 18 1 9 17
M  V30 19 1 10 18
M  V30 20 1 11 19
M  V30 21 1 11 20
M  V30 22 1 11 21
M  V30 23 1 12 22
M  V30 24 1 13 23
M  V30 25 1 14 24
M  V30 END BOND
M  V30 END CTAB
M  END
>  <Structure No>
4819

>  <LogS>
-1.969

>  <MMFF94 Energy>
53.153

$$$$
Compound 4820
Actelion Java MolfileCreator 2.0

  0  0  0  0  0  0              0 V3000
M  V30 BEGIN CTAB
M  V30 COUNTS 23 24 0 0 0
M  V30 BEGIN ATOM
M  V30 1 O -1.0273 -1.9763 0.0789 0
M  V30 2 C -1.3043 -0.7544 0.22 0
M  V30 3 N -0.3858 0.2357 0.2963 0
M  V30 4 N -2.5616 -0.268 0.2617 0
M  V30 5 N -1.0569 1.3783 0.3604 0
M  V30 6 C 1.0501 0.1243 0.2775 0
M  V30 7 C -2.3654 1.0644 0.3307 0
M  V30 8 C -3.8178 -0.99 0.0896 0
M  V30 9 C 1.8279 1.1171 -0.3443 0
M  V30 10 C 1.6966 -0.9629 0.8934 0
M  V30 11 O -3.2922 1.9177 0.3521 0
M  V30 12 C 3.2224 1.017 -0.3601 0
M  V30 13 C 3.0916 -1.0581 0.8762 0
M  V30 14 C 3.8537 -0.07 0.2485 0
M  V30 15 H -0.6398 2.3338 0.4268 0
M  V30 16 H -3.7337 -2.0104 0.5194 0
M  V30 17 H -4.6402 -0.4552 0.6104 0
M  V30 18 H -4.0572 -1.0662 -0.9913 0
M  V30 19 H 1.356 1.9595 -0.833 0
M  V30 20 H 1.1272 -1.7254 1.4077 0
M  V30 21 H 3.8138 1.782 -0.8466 0
M  V30 22 H 3.5822 -1.8957 1.3549 0
M  V30 23 H 4.9334 -0.1453 0.2363 0
M  V30 END ATOM
M  V30 BEGIN BOND
M  V30 1 2 1 2
M  V30 2 1 2 3
M  V30 3 1 2 4
M  V30 4 1 3 5
M  V30 5 1 3 6
M  V30 6 1 4 7
M  V30 7 1 4 8
M  V30 8 2 6 9
M  V30 9 1 6 10
M  V30 10 2 7 11
M  V30 11 1 9 12
M  V30 12 2 10 13
M  V30 13 2 12 14
M  V30 14 1 5 7
M  V30 15 1 13 14
M  V30 16 1 5 15
M  V30 17 1 8 16
M  V30 18 1 8 17
M  V30 19 1 8 18
M  V30 20 1 9 19
M  V30 21 1 10 20
M  V30 22 1 12 21
M  V30 23 1 13 22
M  V30 24 1 14 23
M  V30 END BOND
M  V30 END CTAB
M  END
>  <Structure No>
4820

>  <LogS>
-2.9804

>  <MMFF94 Energy>
-33.164

$$$$
Compound 4821
Actelion Java MolfileCreator 2.0

  0  0  0  0  0  0              0 V3000
M  V30 BEGIN CTAB
M  V30 COUNTS 24 24 0 0 0
M  V30 BEGIN ATOM
M  V30 1 O -2.7507 -1.7283 1.1781 0
M  V30 2 C -1.9175 -1.3368 0.3173 0
M  V30 3 N -1.2989 -2.2993 -0.5392 0
M  V30 4 C -1.6273 0.1098 0.1851 0
M  V30 5 C -0.3255 0.5809 -0.1018 0
M  V30 6 C -2.6699 1.0342 0.3752 0
M  V30 7 O 0.7271 -0.3409 -0.2215 0
M  V30 8 C -0.1081 1.9678 -0.2343 0
M  V30 9 C -2.4365 2.4043 0.248 0
M  V30 10 C 2.0825 0.0024 -0.4972 0
M  V30 11 C -1.1597 2.8696 -0.0616 0
M  V30 12 C 2.9109 -1.2442 -0.5625 0
M  V30 13 C 3.0679 -2.0308 0.5051 0
M  V30 14 H -0.7469 -2.0055 -1.3748 0
M  V30 15 H -1.4732 -3.3182 -0.3922 0
M  V30 16 H -3.6718 0.6934 0.6065 0
M  V30 17 H 0.8733 2.3609 -0.4599 0
M  V30 18 H -3.2485 3.1065 0.3869 0
M  V30 19 H 2.1425 0.5265 -1.4751 0
M  V30 20 H 2.478 0.6676 0.3009 0
M  V30 21 H -0.9821 3.9327 -0.1613 0
M  V30 22 H 3.3971 -1.5107 -1.4962 0
M  V30 23 H 3.6741 -2.928 0.4345 0
M  V30 24 H 2.5951 -1.7874 1.4521 0
M  V30 END ATOM
M  V30 BEGIN BOND
M  V30 1 2 1 2
M  V30 2 1 2 3
M  V30 3 1 2 4
M  V30 4 2 4 5
M  V30 5 1 4 6
M  V30 6 1 5 7
M  V30 7 1 5 8
M  V30 8 2 6 9
M  V30 9 1 7 10
M  V30 10 2 8 11
M  V30 11 1 10 12
M  V30 12 2 12 13
M  V30 13 1 9 11
M  V30 14 1 3 14
M  V30 15 1 3 15
M  V30 16 1 6 16
M  V30 17 1 8 17
M  V30 18 1 9 18
M  V30 19 1 10 19
M  V30 20 1 10 20
M  V30 21 1 11 21
M  V30 22 1 12 22
M  V30 23 1 13 23
M  V30 24 1 13 24
M  V30 END BOND
M  V30 END CTAB
M  END
>  <Structure No>
4821

>  <LogS>
-2.2273

>  <MMFF94 Energy>
28.116

$$$$
Compound 4822
Actelion Java MolfileCreator 2.0

  0  0  0  0  0  0              0 V3000
M  V30 BEGIN CTAB
M  V30 COUNTS 23 23 0 0 0
M  V30 BEGIN ATOM
M  V30 1 O 0.0793 -2.3813 -0.5552 0
M  V30 2 C 0.7172 -1.3799 -0.1342 0
M  V30 3 N 2.1454 -1.4484 -0.03 0
M  V30 4 C 0.024 -0.0816 0.2353 0 CFG=1
M  V30 5 C 2.9261 -0.2816 0.3797 0
M  V30 6 N 0.8523 1.019 -0.2835 0
M  V30 7 C -1.4683 -0.0034 -0.233 0
M  V30 8 C 2.2776 0.971 -0.1322 0
M  V30 9 C -2.3571 -0.9496 0.6008 0
M  V30 10 C -2.0553 1.4185 -0.1205 0
M  V30 11 O 2.9787 1.978 -0.4171 0
M  V30 12 H 2.6394 -2.3373 -0.2691 0
M  V30 13 H 0.0389 -0.0103 1.3454 0
M  V30 14 H 3.9614 -0.3683 -0.0141 0
M  V30 15 H 2.9654 -0.239 1.4885 0
M  V30 16 H 0.4478 1.8423 -0.7769 0
M  V30 17 H -1.5308 -0.3128 -1.2998 0
M  V30 18 H -2.3552 -0.6432 1.6692 0
M  V30 19 H -2.0226 -2.0022 0.5406 0
M  V30 20 H -3.4032 -0.9222 0.2274 0
M  V30 21 H -1.7063 2.0618 -0.9534 0
M  V30 22 H -1.7806 1.8816 0.8513 0
M  V30 23 H -3.1637 1.3982 -0.1987 0
M  V30 END ATOM
M  V30 BEGIN BOND
M  V30 1 2 1 2
M  V30 2 1 2 3
M  V30 3 1 2 4
M  V30 4 1 3 5
M  V30 5 1 4 6
M  V30 6 1 4 7
M  V30 7 1 5 8
M  V30 8 1 7 9
M  V30 9 1 7 10
M  V30 10 2 8 11
M  V30 11 1 6 8
M  V30 12 1 3 12
M  V30 13 1 4 13
M  V30 14 1 5 14
M  V30 15 1 5 15
M  V30 16 1 6 16
M  V30 17 1 7 17
M  V30 18 1 9 18
M  V30 19 1 9 19
M  V30 20 1 9 20
M  V30 21 1 10 21
M  V30 22 1 10 22
M  V30 23 1 10 23
M  V30 END BOND
M  V30 BEGIN COLLECTION
M  V30 MDLV30/STEABS ATOMS=(1 4)
M  V30 END COLLECTION
M  V30 END CTAB
M  END
>  <Structure No>
4822

>  <LogS>
-0.8926

>  <MMFF94 Energy>
57.948

$$$$
Compound 4823
Actelion Java MolfileCreator 2.0

  0  0  0  0  0  0              0 V3000
M  V30 BEGIN CTAB
M  V30 COUNTS 27 26 0 0 0
M  V30 BEGIN ATOM
M  V30 1 O -1.9298 -2.0843 0.3857 0
M  V30 2 C -1.1657 -0.9014 0.3666 0 CFG=1
M  V30 3 C -0.173 -0.9591 -0.8349 0 CFG=1
M  V30 4 C -2.1508 0.2936 0.2749 0
M  V30 5 C 0.7283 0.2952 -0.9811 0
M  V30 6 C 0.6765 -2.2428 -0.7976 0
M  V30 7 C -1.7789 1.4508 1.2043 0
M  V30 8 C 1.7309 0.5019 0.1693 0
M  V30 9 C 2.517 1.7965 -0.018 0
M  V30 10 H -1.4797 -2.7235 0.9985 0
M  V30 11 H -0.5872 -0.8282 1.3179 0
M  V30 12 H -0.7837 -1.0171 -1.7641 0
M  V30 13 H -3.1705 -0.0407 0.5693 0
M  V30 14 H -2.2358 0.6673 -0.7684 0
M  V30 15 H 1.3003 0.2052 -1.9312 0
M  V30 16 H 0.0945 1.1986 -1.0967 0
M  V30 17 H 1.4438 -2.2269 -1.6008 0
M  V30 18 H 1.1826 -2.3551 0.1845 0
M  V30 19 H 0.0361 -3.1344 -0.9667 0
M  V30 20 H -2.5467 2.249 1.1252 0
M  V30 21 H -1.7438 1.1021 2.2585 0
M  V30 22 H -0.7983 1.8877 0.9328 0
M  V30 23 H 2.4521 -0.3417 0.2013 0
M  V30 24 H 1.2074 0.5515 1.1452 0
M  V30 25 H 3.2406 1.9166 0.8157 0
M  V30 26 H 1.8289 2.6689 -0.0184 0
M  V30 27 H 3.0794 1.7719 -0.9756 0
M  V30 END ATOM
M  V30 BEGIN BOND
M  V30 1 1 1 2
M  V30 2 1 2 3
M  V30 3 1 2 4
M  V30 4 1 3 5
M  V30 5 1 3 6
M  V30 6 1 4 7
M  V30 7 1 5 8
M  V30 8 1 8 9
M  V30 9 1 1 10
M  V30 10 1 2 11
M  V30 11 1 3 12
M  V30 12 1 4 13
M  V30 13 1 4 14
M  V30 14 1 5 15
M  V30 15 1 5 16
M  V30 16 1 6 17
M  V30 17 1 6 18
M  V30 18 1 6 19
M  V30 19 1 7 20
M  V30 20 1 7 21
M  V30 21 1 7 22
M  V30 22 1 8 23
M  V30 23 1 8 24
M  V30 24 1 9 25
M  V30 25 1 9 26
M  V30 26 1 9 27
M  V30 END BOND
M  V30 BEGIN COLLECTION
M  V30 MDLV30/STEABS ATOMS=(2 2 3)
M  V30 END COLLECTION
M  V30 END CTAB
M  END
>  <Structure No>
4823

>  <LogS>
-1.9636

>  <MMFF94 Energy>
7.8114

$$$$
Compound 4824
Actelion Java MolfileCreator 2.0

  0  0  0  0  0  0              0 V3000
M  V30 BEGIN CTAB
M  V30 COUNTS 33 34 0 0 0
M  V30 BEGIN ATOM
M  V30 1 O -1.0318 -0.6348 -0.5555 0
M  V30 2 C -0.0385 0.0465 0.1826 0
M  V30 3 C -2.3 -0.1489 -0.1589 0
M  V30 4 O 0.9711 0.4916 -0.6996 0
M  V30 5 C -0.6818 1.2542 0.8628 0
M  V30 6 C 0.5876 -0.9142 1.1922 0
M  V30 7 C -2.1117 0.8364 1.0023 0
M  V30 8 C -2.9471 0.5543 -1.3643 0
M  V30 9 C -3.1729 -1.3372 0.2719 0
M  V30 10 C 2.2297 0.1429 -0.1556 0
M  V30 11 C 2.0156 -0.4698 1.2347 0
M  V30 12 C 2.8984 -0.8736 -1.0967 0
M  V30 13 C 3.0973 1.4074 -0.0652 0
M  V30 14 H -0.2233 1.506 1.8447 0
M  V30 15 H -0.6232 2.1467 0.2 0
M  V30 16 H 0.1089 -0.8761 2.1958 0
M  V30 17 H 0.5394 -1.959 0.8111 0
M  V30 18 H -2.2448 0.3357 1.9879 0
M  V30 19 H -2.7983 1.7108 0.9552 0
M  V30 20 H -3.0398 -0.1506 -2.2182 0
M  V30 21 H -3.9598 0.9308 -1.1035 0
M  V30 22 H -2.322 1.4127 -1.6921 0
M  V30 23 H -2.6866 -1.8902 1.1043 0
M  V30 24 H -3.3105 -2.0435 -0.5748 0
M  V30 25 H -4.1715 -0.9861 0.6112 0
M  V30 26 H 2.7004 -1.3191 1.4532 0
M  V30 27 H 2.1305 0.2922 2.0385 0
M  V30 28 H 3.9047 -1.1567 -0.7192 0
M  V30 29 H 3.01 -0.4417 -2.1144 0
M  V30 30 H 2.2773 -1.7915 -1.1777 0
M  V30 31 H 3.2536 1.8427 -1.0756 0
M  V30 32 H 2.5962 2.174 0.5645 0
M  V30 33 H 4.0878 1.1709 0.3799 0
M  V30 END ATOM
M  V30 BEGIN BOND
M  V30 1 1 1 2
M  V30 2 1 1 3
M  V30 3 1 2 4
M  V30 4 1 2 5
M  V30 5 1 2 6
M  V30 6 1 3 7
M  V30 7 1 3 8
M  V30 8 1 3 9
M  V30 9 1 4 10
M  V30 10 1 6 11
M  V30 11 1 10 12
M  V30 12 1 10 13
M  V30 13 1 5 7
M  V30 14 1 10 11
M  V30 15 1 5 14
M  V30 16 1 5 15
M  V30 17 1 6 16
M  V30 18 1 6 17
M  V30 19 1 7 18
M  V30 20 1 7 19
M  V30 21 1 8 20
M  V30 22 1 8 21
M  V30 23 1 8 22
M  V30 24 1 9 23
M  V30 25 1 9 24
M  V30 26 1 9 25
M  V30 27 1 11 26
M  V30 28 1 11 27
M  V30 29 1 12 28
M  V30 30 1 12 29
M  V30 31 1 12 30
M  V30 32 1 13 31
M  V30 33 1 13 32
M  V30 34 1 13 33
M  V30 END BOND
M  V30 END CTAB
M  END
>  <Structure No>
4824

>  <LogS>
-1.9644

>  <MMFF94 Energy>
20.033

$$$$
Compound 4825
Actelion Java MolfileCreator 2.0

  0  0  0  0  0  0              0 V3000
M  V30 BEGIN CTAB
M  V30 COUNTS 25 26 0 0 0
M  V30 BEGIN ATOM
M  V30 1 S 0.0836 -1.5897 -0.2508 0
M  V30 2 O 0.1205 -2.2572 -1.5973 0
M  V30 3 O 0.1641 -2.6449 0.8164 0
M  V30 4 C -1.4265 -0.6937 -0.0528 0
M  V30 5 C 1.472 -0.5031 -0.1404 0
M  V30 6 C -2.6337 -1.1888 -0.5819 0
M  V30 7 C -1.4348 0.5138 0.6645 0
M  V30 8 C 1.6926 0.4729 -1.1294 0
M  V30 9 C 2.3541 -0.5935 0.948 0
M  V30 10 O -2.6668 -2.3962 -1.2707 0 CHG=-1
M  V30 11 C -3.8211 -0.4673 -0.412 0
M  V30 12 C -2.6245 1.2284 0.831 0
M  V30 13 O 0.8273 0.5932 -2.2114 0 CHG=-1
M  V30 14 C 2.7881 1.3376 -1.0279 0
M  V30 15 C 3.4462 0.2739 1.0437 0
M  V30 16 C -3.816 0.74 0.2907 0
M  V30 17 C 3.6637 1.2379 0.0564 0
M  V30 18 H -0.5237 0.9041 1.0986 0
M  V30 19 H 2.1982 -1.3305 1.7248 0
M  V30 20 H -4.7489 -0.8456 -0.822 0
M  V30 21 H -2.6229 2.1604 1.3816 0
M  V30 22 H 2.959 2.0885 -1.7889 0
M  V30 23 H 4.1234 0.1997 1.8847 0
M  V30 24 H -4.7366 1.2942 0.4212 0
M  V30 25 H 4.5095 1.909 0.1324 0
M  V30 END ATOM
M  V30 BEGIN BOND
M  V30 1 2 1 2
M  V30 2 2 1 3
M  V30 3 1 1 4
M  V30 4 1 1 5
M  V30 5 2 4 6
M  V30 6 1 4 7
M  V30 7 2 5 8
M  V30 8 1 5 9
M  V30 9 1 6 10
M  V30 10 1 6 11
M  V30 11 2 7 12
M  V30 12 1 8 13
M  V30 13 1 8 14
M  V30 14 2 9 15
M  V30 15 2 11 16
M  V30 16 2 14 17
M  V30 17 1 12 16
M  V30 18 1 15 17
M  V30 19 1 7 18
M  V30 20 1 9 19
M  V30 21 1 11 20
M  V30 22 1 12 21
M  V30 23 1 14 22
M  V30 24 1 15 23
M  V30 25 1 16 24
M  V30 26 1 17 25
M  V30 END BOND
M  V30 END CTAB
M  END
>  <Structure No>
4825

>  <LogS>
-3.3192

>  <MMFF94 Energy>
181.96

$$$$
Compound 4826
Actelion Java MolfileCreator 2.0

  0  0  0  0  0  0              0 V3000
M  V30 BEGIN CTAB
M  V30 COUNTS 30 30 0 0 0
M  V30 BEGIN ATOM
M  V30 1 O -0.6341 -2.9355 -1.1892 0
M  V30 2 C -0.3028 -2.0688 -0.3381 0
M  V30 3 O -0.5161 -2.3264 1.0111 0 CHG=-1
M  V30 4 C 0.3651 -0.7896 -0.7921 0 CFG=2
M  V30 5 N 1.823 -0.9759 -0.9785 0 CHG=1
M  V30 6 C 0.0414 0.4165 0.1233 0
M  V30 7 C 2.582 -1.2758 0.2622 0
M  V30 8 C -1.422 0.7825 0.0737 0
M  V30 9 C 3.4424 -0.0917 0.7324 0
M  V30 10 C -1.9371 1.483 -1.0303 0
M  V30 11 C -2.2888 0.4085 1.115 0
M  V30 12 C 4.5627 0.1511 -0.1852 0
M  V30 13 C -3.2961 1.807 -1.0885 0
M  V30 14 C -3.6472 0.7343 1.0525 0
M  V30 15 N 5.4452 0.3427 -0.9088 0
M  V30 16 C -4.1505 1.4329 -0.048 0
M  V30 17 H -0.0612 -0.5501 -1.7939 0
M  V30 18 H 1.9636 -1.7676 -1.65 0
M  V30 19 H 2.2056 -0.1276 -1.4583 0
M  V30 20 H 0.6312 1.297 -0.2124 0
M  V30 21 H 0.3474 0.2087 1.1711 0
M  V30 22 H 1.9125 -1.568 1.0972 0
M  V30 23 H 3.2476 -2.1531 0.0936 0
M  V30 24 H 3.8579 -0.3201 1.7365 0
M  V30 25 H 2.8294 0.829 0.8148 0
M  V30 26 H -1.2862 1.7762 -1.8446 0
M  V30 27 H -1.9147 -0.1326 1.9747 0
M  V30 28 H -3.687 2.3469 -1.9411 0
M  V30 29 H -4.3101 0.4447 1.8576 0
M  V30 30 H -5.2023 1.684 -0.0947 0
M  V30 END ATOM
M  V30 BEGIN BOND
M  V30 1 2 1 2
M  V30 2 1 2 3
M  V30 3 1 2 4
M  V30 4 1 4 5
M  V30 5 1 4 6
M  V30 6 1 5 7
M  V30 7 1 6 8
M  V30 8 1 7 9
M  V30 9 2 8 10
M  V30 10 1 8 11
M  V30 11 1 9 12
M  V30 12 1 10 13
M  V30 13 2 11 14
M  V30 14 3 12 15
M  V30 15 2 13 16
M  V30 16 1 14 16
M  V30 17 1 4 17
M  V30 18 1 5 18
M  V30 19 1 5 19
M  V30 20 1 6 20
M  V30 21 1 6 21
M  V30 22 1 7 22
M  V30 23 1 7 23
M  V30 24 1 9 24
M  V30 25 1 9 25
M  V30 26 1 10 26
M  V30 27 1 11 27
M  V30 28 1 13 28
M  V30 29 1 14 29
M  V30 30 1 16 30
M  V30 END BOND
M  V30 BEGIN COLLECTION
M  V30 MDLV30/STEABS ATOMS=(1 4)
M  V30 END COLLECTION
M  V30 END CTAB
M  END
>  <Structure No>
4826

>  <LogS>
-1.4939

>  <MMFF94 Energy>
19.425

$$$$
Compound 4827
Actelion Java MolfileCreator 2.0

  0  0  0  0  0  0              0 V3000
M  V30 BEGIN CTAB
M  V30 COUNTS 11 10 0 0 0
M  V30 BEGIN ATOM
M  V30 1 Cl 2.0172 0.9602 0.9602 0
M  V30 2 C 1.16 0.4105 -0.5071 0
M  V30 3 Cl 2.3699 -0.3586 -1.5719 0
M  V30 4 C 0.0229 -0.5762 -0.1666 0
M  V30 5 Cl -0.7545 -1.1655 -1.6738 0
M  V30 6 C -1.0376 0.0342 0.7758 0
M  V30 7 Cl -1.9041 1.4065 0.0263 0
M  V30 8 Cl -2.2294 -1.1998 1.2682 0
M  V30 9 H 0.7529 1.2988 -1.034 0
M  V30 10 H 0.4719 -1.4576 0.341 0
M  V30 11 H -0.5571 0.399 1.7066 0
M  V30 END ATOM
M  V30 BEGIN BOND
M  V30 1 1 1 2
M  V30 2 1 2 3
M  V30 3 1 2 4
M  V30 4 1 4 5
M  V30 5 1 4 6
M  V30 6 1 6 7
M  V30 7 1 6 8
M  V30 8 1 2 9
M  V30 9 1 4 10
M  V30 10 1 6 11
M  V30 END BOND
M  V30 END CTAB
M  END
>  <Structure No>
4827

>  <LogS>
-2.7223

>  <MMFF94 Energy>
11.424

$$$$
Compound 4828
Actelion Java MolfileCreator 2.0

  0  0  0  0  0  0              0 V3000
M  V30 BEGIN CTAB
M  V30 COUNTS 23 23 0 0 0
M  V30 BEGIN ATOM
M  V30 1 Cl 3.5007 2.4995 1.0825 0
M  V30 2 C 2.6565 1.1821 0.2842 0
M  V30 3 C 3.3466 0.0254 -0.1044 0
M  V30 4 C 1.2831 1.2923 0.0412 0
M  V30 5 O 4.7121 -0.0852 0.1365 0 CHG=-1
M  V30 6 C 2.6575 -1.0202 -0.7346 0
M  V30 7 C 0.5894 0.2517 -0.5967 0
M  V30 8 Cl 3.5032 -2.4806 -1.2222 0
M  V30 9 C 1.2839 -0.9076 -0.9757 0
M  V30 10 C -0.8976 0.3545 -0.8287 0
M  V30 11 C -1.6991 -0.3792 0.2664 0 CFG=2
M  V30 12 N -3.1268 -0.4034 -0.0721 0 CHG=1
M  V30 13 C -1.4973 0.2739 1.6095 0
M  V30 14 O -0.8894 -0.3392 2.5261 0
M  V30 15 O -1.9627 1.5632 1.8398 0 CHG=-1
M  V30 16 H 0.7561 2.1861 0.3526 0
M  V30 17 H 0.7566 -1.7229 -1.4558 0
M  V30 18 H -1.2084 1.4219 -0.8778 0
M  V30 19 H -1.1357 -0.0907 -1.8195 0
M  V30 20 H -1.3375 -1.432 0.3213 0
M  V30 21 H -3.6617 -0.8975 0.6793 0
M  V30 22 H -3.2692 -0.9226 -0.9688 0
M  V30 23 H -3.4992 0.5688 -0.1772 0
M  V30 END ATOM
M  V30 BEGIN BOND
M  V30 1 1 1 2
M  V30 2 2 2 3
M  V30 3 1 2 4
M  V30 4 1 3 5
M  V30 5 1 3 6
M  V30 6 2 4 7
M  V30 7 1 6 8
M  V30 8 2 6 9
M  V30 9 1 7 10
M  V30 10 1 10 11
M  V30 11 1 11 12
M  V30 12 1 11 13
M  V30 13 2 13 14
M  V30 14 1 13 15
M  V30 15 1 7 9
M  V30 16 1 4 16
M  V30 17 1 9 17
M  V30 18 1 10 18
M  V30 19 1 10 19
M  V30 20 1 11 20
M  V30 21 1 12 21
M  V30 22 1 12 22
M  V30 23 1 12 23
M  V30 END BOND
M  V30 BEGIN COLLECTION
M  V30 MDLV30/STEABS ATOMS=(1 11)
M  V30 END COLLECTION
M  V30 END CTAB
M  END
>  <Structure No>
4828

>  <LogS>
-1.7546

>  <MMFF94 Energy>
30.845

$$$$
Compound 4829
Actelion Java MolfileCreator 2.0

  0  0  0  0  0  0              0 V3000
M  V30 BEGIN CTAB
M  V30 COUNTS 30 30 0 0 0
M  V30 BEGIN ATOM
M  V30 1 O -0.0808 1.3746 -1.1319 0
M  V30 2 C -0.316 0.7766 -0.0449 0
M  V30 3 N 0.7762 0.2093 0.7003 0
M  V30 4 C -1.7399 0.7216 0.5068 0
M  V30 5 C 2.0665 -0.0793 0.135 0
M  V30 6 O -1.82 1.5744 1.6268 0
M  V30 7 C -2.1005 -0.7365 0.9303 0
M  V30 8 C -2.7494 1.2538 -0.5517 0
M  V30 9 C 3.2064 -0.015 0.9522 0
M  V30 10 C 2.2072 -0.4854 -1.2055 0
M  V30 11 C -2.0237 -1.7213 -0.2015 0
M  V30 12 C -4.1645 1.2879 -0.0504 0
M  V30 13 C 4.4689 -0.315 0.4314 0
M  V30 14 C 3.4715 -0.7858 -1.7222 0
M  V30 15 O -3.0583 -2.0224 -0.8528 0
M  V30 16 O -0.8055 -2.2926 -0.547 0 CHG=-1
M  V30 17 O -4.5429 2.2102 0.7187 0
M  V30 18 O -5.0588 0.2905 -0.4179 0 CHG=-1
M  V30 19 C 4.6018 -0.6964 -0.9059 0
M  V30 20 H 0.6535 0.0572 1.7262 0
M  V30 21 H -1.2592 1.1989 2.3542 0
M  V30 22 H -1.4178 -1.0837 1.7346 0
M  V30 23 H -3.1204 -0.7635 1.371 0
M  V30 24 H -2.7053 0.6377 -1.4758 0
M  V30 25 H -2.4701 2.2908 -0.8421 0
M  V30 26 H 3.1163 0.277 1.991 0
M  V30 27 H 1.3424 -0.5951 -1.8461 0
M  V30 28 H 5.3439 -0.2541 1.0655 0
M  V30 29 H 3.5738 -1.0964 -2.754 0
M  V30 30 H 5.5792 -0.9308 -1.3072 0
M  V30 END ATOM
M  V30 BEGIN BOND
M  V30 1 2 1 2
M  V30 2 1 2 3
M  V30 3 1 2 4
M  V30 4 1 3 5
M  V30 5 1 4 6
M  V30 6 1 4 7
M  V30 7 1 4 8
M  V30 8 2 5 9
M  V30 9 1 5 10
M  V30 10 1 7 11
M  V30 11 1 8 12
M  V30 12 1 9 13
M  V30 13 2 10 14
M  V30 14 2 11 15
M  V30 15 1 11 16
M  V30 16 2 12 17
M  V30 17 1 12 18
M  V30 18 2 13 19
M  V30 19 1 14 19
M  V30 20 1 3 20
M  V30 21 1 6 21
M  V30 22 1 7 22
M  V30 23 1 7 23
M  V30 24 1 8 24
M  V30 25 1 8 25
M  V30 26 1 9 26
M  V30 27 1 10 27
M  V30 28 1 13 28
M  V30 29 1 14 29
M  V30 30 1 19 30
M  V30 END BOND
M  V30 END CTAB
M  END
>  <Structure No>
4829

>  <LogS>
-0.4874

>  <MMFF94 Energy>
40.105

$$$$
Compound 4830
Actelion Java MolfileCreator 2.0

  0  0  0  0  0  0              0 V3000
M  V30 BEGIN CTAB
M  V30 COUNTS 21 21 0 0 0
M  V30 BEGIN ATOM
M  V30 1 Cl 0.6696 -3.0999 -0.7534 0
M  V30 2 C 1.3461 -1.5141 -0.4146 0
M  V30 3 C 0.5144 -0.3835 -0.355 0
M  V30 4 C 2.7238 -1.3899 -0.2028 0
M  V30 5 O -0.8642 -0.5508 -0.5736 0
M  V30 6 C 1.088 0.8748 -0.0818 0
M  V30 7 C 3.2832 -0.1384 0.069 0
M  V30 8 C -1.8476 0.484 -0.5049 0 CFG=2
M  V30 9 C 2.4647 0.9922 0.1289 0
M  V30 10 Cl 5.0104 0.0127 0.3341 0
M  V30 11 C -2.0441 0.9316 0.9149 0
M  V30 12 C -3.1638 -0.0431 -1.0683 0
M  V30 13 O -2.079 0.0883 1.8499 0
M  V30 14 O -2.2323 2.2783 1.1978 0 CHG=-1
M  V30 15 H 3.3587 -2.2657 -0.2493 0
M  V30 16 H 0.4828 1.7685 -0.0297 0
M  V30 17 H -1.5295 1.3447 -1.1331 0
M  V30 18 H 2.8941 1.9636 0.3387 0
M  V30 19 H -3.5156 -0.919 -0.4818 0
M  V30 20 H -3.02 -0.3571 -2.1238 0
M  V30 21 H -3.941 0.7506 -1.0398 0
M  V30 END ATOM
M  V30 BEGIN BOND
M  V30 1 1 1 2
M  V30 2 2 2 3
M  V30 3 1 2 4
M  V30 4 1 3 5
M  V30 5 1 3 6
M  V30 6 2 4 7
M  V30 7 1 5 8
M  V30 8 2 6 9
M  V30 9 1 7 10
M  V30 10 1 8 11
M  V30 11 1 8 12
M  V30 12 2 11 13
M  V30 13 1 11 14
M  V30 14 1 7 9
M  V30 15 1 4 15
M  V30 16 1 6 16
M  V30 17 1 8 17
M  V30 18 1 9 18
M  V30 19 1 12 19
M  V30 20 1 12 20
M  V30 21 1 12 21
M  V30 END BOND
M  V30 BEGIN COLLECTION
M  V30 MDLV30/STEABS ATOMS=(1 8)
M  V30 END COLLECTION
M  V30 END CTAB
M  END
>  <Structure No>
4830

>  <LogS>
-2.6003

>  <MMFF94 Energy>
73.219

$$$$
Compound 4831
Actelion Java MolfileCreator 2.0

  0  0  0  0  0  0              0 V3000
M  V30 BEGIN CTAB
M  V30 COUNTS 28 29 0 0 0
M  V30 BEGIN ATOM
M  V30 1 Cl 0.3289 2.1395 0.0 0
M  V30 2 C -0.2504 0.5488 0.5843 0 CFG=2
M  V30 3 C -0.3997 -0.4621 -0.5133 0
M  V30 4 C -1.7065 0.5666 1.1217 0 CFG=1
M  V30 5 N 0.4853 -0.7776 -1.4112 0
M  V30 6 C -1.8066 -0.9699 -0.5029 0 CFG=1
M  V30 7 C -2.6719 1.2029 0.0904 0
M  V30 8 C -2.0906 -0.8981 0.9869 0
M  V30 9 O 1.7795 -0.2938 -1.4035 0
M  V30 10 C -2.6925 0.1632 -1.0583 0 CFG=2
M  V30 11 C 2.6689 -0.5579 -0.3581 0
M  V30 12 C -4.0565 -0.3146 -1.3449 0
M  V30 13 O 2.3775 -1.4087 0.5267 0
M  V30 14 N 3.9235 0.1269 -0.3149 0
M  V30 15 N -5.1277 -0.6902 -1.5699 0
M  V30 16 C 4.8885 -0.099 0.7533 0
M  V30 17 H 0.44 0.172 1.3681 0
M  V30 18 H -1.8061 0.975 2.1501 0
M  V30 19 H -1.941 -1.9738 -0.9615 0
M  V30 20 H -2.3338 2.1984 -0.2634 0
M  V30 21 H -3.6755 1.3314 0.5564 0
M  V30 22 H -3.1581 -1.0965 1.2399 0
M  V30 23 H -1.4404 -1.5762 1.5885 0
M  V30 24 H -2.2631 0.591 -1.9918 0
M  V30 25 H 4.1486 0.8168 -1.0664 0
M  V30 26 H 5.7832 0.5388 0.5945 0
M  V30 27 H 4.433 0.1584 1.7328 0
M  V30 28 H 5.2027 -1.164 0.7579 0
M  V30 END ATOM
M  V30 BEGIN BOND
M  V30 1 1 1 2
M  V30 2 1 2 3
M  V30 3 1 2 4
M  V30 4 2 3 5
M  V30 5 1 3 6
M  V30 6 1 4 7
M  V30 7 1 4 8
M  V30 8 1 5 9
M  V30 9 1 6 10
M  V30 10 1 9 11
M  V30 11 1 10 12
M  V30 12 2 11 13
M  V30 13 1 11 14
M  V30 14 3 12 15
M  V30 15 1 14 16
M  V30 16 1 6 8
M  V30 17 1 7 10
M  V30 18 1 2 17
M  V30 19 1 4 18
M  V30 20 1 6 19
M  V30 21 1 7 20
M  V30 22 1 7 21
M  V30 23 1 8 22
M  V30 24 1 8 23
M  V30 25 1 10 24
M  V30 26 1 14 25
M  V30 27 1 16 26
M  V30 28 1 16 27
M  V30 29 1 16 28
M  V30 END BOND
M  V30 BEGIN COLLECTION
M  V30 MDLV30/STEABS ATOMS=(4 2 4 6 10)
M  V30 END COLLECTION
M  V30 END CTAB
M  END
>  <Structure No>
4831

>  <LogS>
-2.0822

>  <MMFF94 Energy>
27.891

$$$$
Compound 4832
Actelion Java MolfileCreator 2.0

  0  0  0  0  0  0              0 V3000
M  V30 BEGIN CTAB
M  V30 COUNTS 41 42 0 0 0
M  V30 BEGIN ATOM
M  V30 1 O -2.0568 1.028 -0.8698 0
M  V30 2 C -1.7883 0.0282 -0.1492 0
M  V30 3 N -2.7038 -1.0819 -0.1095 0
M  V30 4 C -0.4904 -0.0022 0.6134 0 CFG=1
M  V30 5 C -3.2293 -1.6189 -1.3709 0
M  V30 6 C -3.1433 -1.6485 1.1735 0
M  V30 7 O 0.5532 0.4557 -0.2499 0
M  V30 8 C -0.581 0.8937 1.8523 0
M  V30 9 C -4.6183 -1.0624 -1.6637 0
M  V30 10 C -4.0897 -0.691 1.8944 0
M  V30 11 C 1.9363 0.2917 -0.0445 0
M  V30 12 C 2.8363 0.897 -0.9487 0
M  V30 13 C 2.449 -0.464 1.0294 0
M  V30 14 C 4.2349 0.7429 -0.7642 0
M  V30 15 C 2.3699 1.6581 -2.0379 0
M  V30 16 C 3.8263 -0.6097 1.2032 0
M  V30 17 C 4.7169 -0.0107 0.3137 0
M  V30 18 C 5.1295 1.3459 -1.6624 0
M  V30 19 C 3.2729 2.2521 -2.9235 0
M  V30 20 C 4.6475 2.0968 -2.7366 0
M  V30 21 H -0.2868 -1.0509 0.9144 0
M  V30 22 H -2.5488 -1.3589 -2.2116 0
M  V30 23 H -3.2767 -2.7283 -1.3225 0
M  V30 24 H -2.268 -1.8665 1.8198 0
M  V30 25 H -3.6762 -2.6107 1.0113 0
M  V30 26 H -0.8767 1.9258 1.5662 0
M  V30 27 H -1.3215 0.4859 2.5701 0
M  V30 28 H 0.3982 0.944 2.37 0
M  V30 29 H -5.3462 -1.431 -0.9117 0
M  V30 30 H -4.6007 0.0478 -1.6477 0
M  V30 31 H -4.95 -1.4005 -2.6679 0
M  V30 32 H -4.3619 -1.1126 2.8848 0
M  V30 33 H -3.6112 0.2974 2.0476 0
M  V30 34 H -5.0176 -0.5483 1.3038 0
M  V30 35 H 1.7958 -0.9477 1.7406 0
M  V30 36 H 1.3097 1.7976 -2.2095 0
M  V30 37 H 4.2054 -1.192 2.0332 0
M  V30 38 H 5.782 -0.1372 0.4679 0
M  V30 39 H 6.1998 1.2366 -1.5336 0
M  V30 40 H 2.9054 2.8355 -3.758 0
M  V30 41 H 5.3414 2.5596 -3.4262 0
M  V30 END ATOM
M  V30 BEGIN BOND
M  V30 1 2 1 2
M  V30 2 1 2 3
M  V30 3 1 2 4
M  V30 4 1 3 5
M  V30 5 1 3 6
M  V30 6 1 4 7
M  V30 7 1 4 8
M  V30 8 1 5 9
M  V30 9 1 6 10
M  V30 10 1 7 11
M  V30 11 1 11 12
M  V30 12 2 11 13
M  V30 13 1 12 14
M  V30 14 2 12 15
M  V30 15 1 13 16
M  V30 16 1 14 17
M  V30 17 2 14 18
M  V30 18 1 15 19
M  V30 19 1 18 20
M  V30 20 2 16 17
M  V30 21 2 19 20
M  V30 22 1 4 21
M  V30 23 1 5 22
M  V30 24 1 5 23
M  V30 25 1 6 24
M  V30 26 1 6 25
M  V30 27 1 8 26
M  V30 28 1 8 27
M  V30 29 1 8 28
M  V30 30 1 9 29
M  V30 31 1 9 30
M  V30 32 1 9 31
M  V30 33 1 10 32
M  V30 34 1 10 33
M  V30 35 1 10 34
M  V30 36 1 13 35
M  V30 37 1 15 36
M  V30 38 1 16 37
M  V30 39 1 17 38
M  V30 40 1 18 39
M  V30 41 1 19 40
M  V30 42 1 20 41
M  V30 END BOND
M  V30 BEGIN COLLECTION
M  V30 MDLV30/STEABS ATOMS=(1 4)
M  V30 END COLLECTION
M  V30 END CTAB
M  END
>  <Structure No>
4832

>  <LogS>
-3.5702

>  <MMFF94 Energy>
60.967

$$$$
Compound 4833
Actelion Java MolfileCreator 2.0

  0  0  0  0  0  0              0 V3000
M  V30 BEGIN CTAB
M  V30 COUNTS 21 22 0 0 0
M  V30 BEGIN ATOM
M  V30 1 O 3.4991 -0.7316 -1.3009 0
M  V30 2 N 2.8014 -0.1246 -0.4619 0 CHG=1
M  V30 3 O 3.4188 0.7579 0.393 0 CHG=-1
M  V30 4 C 1.4178 -0.4798 -0.2826 0
M  V30 5 C 0.4434 0.4774 0.137 0
M  V30 6 C 1.0115 -1.8164 -0.5438 0
M  V30 7 C -0.874 0.0268 0.2908 0
M  V30 8 C 0.7655 1.9339 0.3725 0
M  V30 9 C -0.324 -2.2133 -0.3753 0
M  V30 10 O -1.9905 0.7436 0.6839 0
M  V30 11 C -1.2365 -1.2576 0.0469 0
M  V30 12 O 1.3579 2.4982 -0.7656 0
M  V30 13 C -3.1161 -0.1439 0.6898 0
M  V30 14 O -2.5903 -1.4114 0.2764 0
M  V30 15 H 1.736 -2.554 -0.8645 0
M  V30 16 H -0.1455 2.5143 0.6432 0
M  V30 17 H 1.4574 2.0271 1.234 0
M  V30 18 H -0.6332 -3.2323 -0.5676 0
M  V30 19 H 0.6362 2.5973 -1.4405 0
M  V30 20 H -3.539 -0.2198 1.7134 0
M  V30 21 H -3.8841 0.2062 -0.0314 0
M  V30 END ATOM
M  V30 BEGIN BOND
M  V30 1 2 1 2
M  V30 2 1 2 3
M  V30 3 1 2 4
M  V30 4 2 4 5
M  V30 5 1 4 6
M  V30 6 1 5 7
M  V30 7 1 5 8
M  V30 8 2 6 9
M  V30 9 1 7 10
M  V30 10 2 7 11
M  V30 11 1 8 12
M  V30 12 1 10 13
M  V30 13 1 11 14
M  V30 14 1 9 11
M  V30 15 1 13 14
M  V30 16 1 6 15
M  V30 17 1 8 16
M  V30 18 1 8 17
M  V30 19 1 9 18
M  V30 20 1 12 19
M  V30 21 1 13 20
M  V30 22 1 13 21
M  V30 END BOND
M  V30 END CTAB
M  END
>  <Structure No>
4833

>  <LogS>
-3.0643

>  <MMFF94 Energy>
40.126

$$$$
Compound 4834
Actelion Java MolfileCreator 2.0

  0  0  0  0  0  0              0 V3000
M  V30 BEGIN CTAB
M  V30 COUNTS 30 31 0 0 0
M  V30 BEGIN ATOM
M  V30 1 F -4.8048 -1.3237 2.4831 0
M  V30 2 C -4.622 -0.0824 1.8982 0
M  V30 3 F -4.5232 0.8731 2.8922 0
M  V30 4 F -5.7305 0.1932 1.1162 0
M  V30 5 C -3.3652 -0.0622 1.0637 0
M  V30 6 C -3.2424 0.8327 -0.0114 0
M  V30 7 C -2.2734 -0.8728 1.4034 0
M  V30 8 C -2.0596 0.9009 -0.7722 0
M  V30 9 C -1.0966 -0.8209 0.6578 0
M  V30 10 N -1.9801 1.8271 -1.8765 0 CHG=1
M  V30 11 C -0.9711 0.066 -0.4251 0
M  V30 12 O -0.8924 2.0744 -2.4367 0
M  V30 13 O -3.1058 2.4901 -2.3098 0 CHG=-1
M  V30 14 O 0.2034 0.0882 -1.194 0
M  V30 15 C 1.5027 -0.1084 -0.7026 0
M  V30 16 C 2.473 -0.6327 -1.5619 0
M  V30 17 C 1.8656 0.249 0.6071 0
M  V30 18 C 3.7833 -0.8307 -1.1166 0
M  V30 19 C 3.1751 0.0527 1.055 0
M  V30 20 C 4.1483 -0.4934 0.1984 0
M  V30 21 N 5.4978 -0.6982 0.6549 0 CHG=1
M  V30 22 O 5.8279 -0.3995 1.8216 0
M  V30 23 O 6.4479 -1.2292 -0.1872 0 CHG=-1
M  V30 24 H -4.0713 1.4866 -0.2509 0
M  V30 25 H -2.331 -1.5538 2.2431 0
M  V30 26 H -0.2855 -1.4888 0.9169 0
M  V30 27 H 2.2082 -0.8953 -2.5784 0
M  V30 28 H 1.143 0.6967 1.2768 0
M  V30 29 H 4.5103 -1.2459 -1.8024 0
M  V30 30 H 3.4277 0.3344 2.0692 0
M  V30 END ATOM
M  V30 BEGIN BOND
M  V30 1 1 1 2
M  V30 2 1 2 3
M  V30 3 1 2 4
M  V30 4 1 2 5
M  V30 5 2 5 6
M  V30 6 1 5 7
M  V30 7 1 6 8
M  V30 8 2 7 9
M  V30 9 1 8 10
M  V30 10 2 8 11
M  V30 11 2 10 12
M  V30 12 1 10 13
M  V30 13 1 11 14
M  V30 14 1 14 15
M  V30 15 2 15 16
M  V30 16 1 15 17
M  V30 17 1 16 18
M  V30 18 2 17 19
M  V30 19 2 18 20
M  V30 20 1 20 21
M  V30 21 2 21 22
M  V30 22 1 21 23
M  V30 23 1 9 11
M  V30 24 1 19 20
M  V30 25 1 6 24
M  V30 26 1 7 25
M  V30 27 1 9 26
M  V30 28 1 16 27
M  V30 29 1 17 28
M  V30 30 1 18 29
M  V30 31 1 19 30
M  V30 END BOND
M  V30 END CTAB
M  END
>  <Structure No>
4834

>  <LogS>
-5.2151

>  <MMFF94 Energy>
128.68

$$$$
Compound 4835
Actelion Java MolfileCreator 2.0

  0  0  0  0  0  0              0 V3000
M  V30 BEGIN CTAB
M  V30 COUNTS 15 14 0 0 0
M  V30 BEGIN ATOM
M  V30 1 S -0.7225 -1.1242 0.8832 0
M  V30 2 N -1.7838 -0.0063 1.2479 0
M  V30 3 C -0.1218 -0.7793 -0.7697 0
M  V30 4 C -2.0193 1.1586 0.4307 0
M  V30 5 N 1.0924 -0.4152 -1.0065 0
M  V30 6 C 2.0961 -0.2378 0.0201 0
M  V30 7 O 3.3053 0.1517 -0.5673 0
M  V30 8 H -1.4605 -2.2968 0.7485 0
M  V30 9 H -0.8102 -0.884 -1.601 0
M  V30 10 H -2.7772 1.8012 0.9238 0
M  V30 11 H -2.4061 0.8558 -0.5648 0
M  V30 12 H -1.0793 1.7389 0.3145 0
M  V30 13 H 1.7639 0.5313 0.7547 0
M  V30 14 H 2.257 -1.198 0.5555 0
M  V30 15 H 3.1753 1.0829 -0.8865 0
M  V30 END ATOM
M  V30 BEGIN BOND
M  V30 1 2 1 2
M  V30 2 1 1 3
M  V30 3 1 2 4
M  V30 4 2 3 5
M  V30 5 1 5 6
M  V30 6 1 6 7
M  V30 7 1 1 8
M  V30 8 1 3 9
M  V30 9 1 4 10
M  V30 10 1 4 11
M  V30 11 1 4 12
M  V30 12 1 6 13
M  V30 13 1 6 14
M  V30 14 1 7 15
M  V30 END BOND
M  V30 END CTAB
M  END
>  <Structure No>
4835

>  <LogS>
-0.0798

>  <MMFF94 Energy>
-11.255

$$$$
Compound 4836
Actelion Java MolfileCreator 2.0

  0  0  0  0  0  0              0 V3000
M  V30 BEGIN CTAB
M  V30 COUNTS 15 14 0 0 0
M  V30 BEGIN ATOM
M  V30 1 O 1.0165 1.2512 1.4077 0
M  V30 2 C 1.2551 0.4817 0.4374 0
M  V30 3 O 0.21 -0.0839 -0.3023 0
M  V30 4 C 2.6662 0.2118 0.0396 0
M  V30 5 C -1.1688 0.1203 0.0034 0 CFG=2
M  V30 6 C -1.5241 -0.602 1.2346 0
M  V30 7 C -2.0207 -0.3828 -1.1569 0
M  V30 8 N -1.803 -1.1699 2.2038 0
M  V30 9 H 3.034 1.0389 -0.6024 0
M  V30 10 H 3.3085 0.1341 0.9422 0
M  V30 11 H 2.7249 -0.7419 -0.5252 0
M  V30 12 H -1.3677 1.2052 0.1458 0
M  V30 13 H -3.0993 -0.2181 -0.9448 0
M  V30 14 H -1.7563 0.1714 -2.0823 0
M  V30 15 H -1.8439 -1.4667 -1.3291 0
M  V30 END ATOM
M  V30 BEGIN BOND
M  V30 1 2 1 2
M  V30 2 1 2 3
M  V30 3 1 2 4
M  V30 4 1 3 5
M  V30 5 1 5 6
M  V30 6 1 5 7
M  V30 7 3 6 8
M  V30 8 1 4 9
M  V30 9 1 4 10
M  V30 10 1 4 11
M  V30 11 1 5 12
M  V30 12 1 7 13
M  V30 13 1 7 14
M  V30 14 1 7 15
M  V30 END BOND
M  V30 BEGIN COLLECTION
M  V30 MDLV30/STEABS ATOMS=(1 5)
M  V30 END COLLECTION
M  V30 END CTAB
M  END
>  <Structure No>
4836

>  <LogS>
0.2475

>  <MMFF94 Energy>
-6.255

$$$$
Compound 4837
Actelion Java MolfileCreator 2.0

  0  0  0  0  0  0              0 V3000
M  V30 BEGIN CTAB
M  V30 COUNTS 18 19 0 0 0
M  V30 BEGIN ATOM
M  V30 1 O -3.527 1.2013 0.2401 0
M  V30 2 C -2.4162 0.6107 0.1623 0
M  V30 3 N -1.2611 1.331 0.1437 0
M  V30 4 C -2.364 -0.7865 0.0948 0
M  V30 5 C -0.0501 0.7107 0.0599 0
M  V30 6 O -3.5359 -1.5356 0.1129 0 CHG=-1
M  V30 7 N -1.1592 -1.413 0.011 0 CHG=1
M  V30 8 C 0.002 -0.6998 -0.0081 0
M  V30 9 C 1.1405 1.453 0.0408 0
M  V30 10 C 1.2441 -1.347 -0.0945 0
M  V30 11 C 2.3727 0.798 -0.0454 0
M  V30 12 C 2.4244 -0.5975 -0.1128 0
M  V30 13 H -1.3117 2.3747 0.1948 0
M  V30 14 H -1.1358 -2.4572 -0.0385 0
M  V30 15 H 1.115 2.5345 0.0924 0
M  V30 16 H 1.2986 -2.4272 -0.1472 0
M  V30 17 H 3.2896 1.373 -0.06 0
M  V30 18 H 3.381 -1.0992 -0.1795 0
M  V30 END ATOM
M  V30 BEGIN BOND
M  V30 1 2 1 2
M  V30 2 1 2 3
M  V30 3 1 2 4
M  V30 4 1 3 5
M  V30 5 1 4 6
M  V30 6 2 4 7
M  V30 7 2 5 8
M  V30 8 1 5 9
M  V30 9 1 8 10
M  V30 10 2 9 11
M  V30 11 2 10 12
M  V30 12 1 7 8
M  V30 13 1 11 12
M  V30 14 1 3 13
M  V30 15 1 7 14
M  V30 16 1 9 15
M  V30 17 1 10 16
M  V30 18 1 11 17
M  V30 19 1 12 18
M  V30 END BOND
M  V30 END CTAB
M  END
>  <Structure No>
4837

>  <LogS>
-2.812

>  <MMFF94 Energy>
28.887

$$$$
Compound 4838
Actelion Java MolfileCreator 2.0

  0  0  0  0  0  0              0 V3000
M  V30 BEGIN CTAB
M  V30 COUNTS 32 31 0 0 0
M  V30 BEGIN ATOM
M  V30 1 C -0.696 -0.7733 -0.3092 0
M  V30 2 C 0.2843 -0.3016 0.8112 0
M  V30 3 C -1.3775 0.4084 -1.086 0
M  V30 4 C 0.0651 -1.6477 -1.3338 0
M  V30 5 C -1.7739 -1.6784 0.335 0
M  V30 6 C 1.4663 0.5799 0.3385 0
M  V30 7 C -1.8143 1.6539 -0.2823 0
M  V30 8 C 2.7911 -0.1963 0.2926 0
M  V30 9 C -2.9946 1.4155 0.6575 0
M  V30 10 C 3.931 0.6866 -0.2069 0
M  V30 11 H -0.2874 0.2626 1.5787 0
M  V30 12 H 0.6748 -1.1919 1.3538 0
M  V30 13 H -0.6768 0.7799 -1.8653 0
M  V30 14 H -2.2535 0.027 -1.6559 0
M  V30 15 H -0.6381 -2.0726 -2.0828 0
M  V30 16 H 0.584 -2.4907 -0.8281 0
M  V30 17 H 0.823 -1.0551 -1.8878 0
M  V30 18 H -1.3131 -2.603 0.7462 0
M  V30 19 H -2.538 -1.9835 -0.4121 0
M  V30 20 H -2.2881 -1.1785 1.1762 0
M  V30 21 H 1.5847 1.4231 1.0545 0
M  V30 22 H 1.2646 1.0308 -0.6543 0
M  V30 23 H -2.1281 2.4264 -1.0183 0
M  V30 24 H -0.9638 2.092 0.2795 0
M  V30 25 H 2.7003 -1.0751 -0.379 0
M  V30 26 H 3.043 -0.5624 1.3118 0
M  V30 27 H -3.7555 0.7594 0.1839 0
M  V30 28 H -2.6485 0.9742 1.6133 0
M  V30 29 H -3.4739 2.3876 0.9003 0
M  V30 30 H 3.7198 1.0418 -1.2381 0
M  V30 31 H 4.0634 1.5626 0.4635 0
M  V30 32 H 4.8755 0.1028 -0.2192 0
M  V30 END ATOM
M  V30 BEGIN BOND
M  V30 1 1 1 2
M  V30 2 1 1 3
M  V30 3 1 1 4
M  V30 4 1 1 5
M  V30 5 1 2 6
M  V30 6 1 3 7
M  V30 7 1 6 8
M  V30 8 1 7 9
M  V30 9 1 8 10
M  V30 10 1 2 11
M  V30 11 1 2 12
M  V30 12 1 3 13
M  V30 13 1 3 14
M  V30 14 1 4 15
M  V30 15 1 4 16
M  V30 16 1 4 17
M  V30 17 1 5 18
M  V30 18 1 5 19
M  V30 19 1 5 20
M  V30 20 1 6 21
M  V30 21 1 6 22
M  V30 22 1 7 23
M  V30 23 1 7 24
M  V30 24 1 8 25
M  V30 25 1 8 26
M  V30 26 1 9 27
M  V30 27 1 9 28
M  V30 28 1 9 29
M  V30 29 1 10 30
M  V30 30 1 10 31
M  V30 31 1 10 32
M  V30 END BOND
M  V30 END CTAB
M  END
>  <Structure No>
4838

>  <LogS>
-4.8108

>  <MMFF94 Energy>
15.112

$$$$
Compound 4839
Actelion Java MolfileCreator 2.0

  0  0  0  0  0  0              0 V3000
M  V30 BEGIN CTAB
M  V30 COUNTS 16 15 0 0 0
M  V30 BEGIN ATOM
M  V30 1 S 0.4744 1.2339 0.949 0
M  V30 2 S 1.3577 1.5497 -0.9642 0
M  V30 3 S -1.2134 2.4565 0.4837 0
M  V30 4 S 0.7069 -0.344 -1.7036 0
M  V30 5 C -2.3328 1.0589 0.1414 0
M  V30 6 C 2.2943 -1.1828 -1.3836 0
M  V30 7 C -2.7179 0.3749 1.4124 0
M  V30 8 C 2.4299 -1.5182 0.0655 0
M  V30 9 O -3.5528 0.9077 2.1899 0
M  V30 10 O -2.1336 -0.8375 1.7561 0 CHG=-1
M  V30 11 O 1.7109 -2.4162 0.5772 0
M  V30 12 O 3.3368 -0.8271 0.859 0 CHG=-1
M  V30 13 H -1.8558 0.3391 -0.553 0
M  V30 14 H -3.2466 1.4514 -0.352 0
M  V30 15 H 2.3226 -2.1213 -1.9756 0
M  V30 16 H 3.141 -0.5452 -1.7153 0
M  V30 END ATOM
M  V30 BEGIN BOND
M  V30 1 1 1 2
M  V30 2 1 1 3
M  V30 3 1 2 4
M  V30 4 1 3 5
M  V30 5 1 4 6
M  V30 6 1 5 7
M  V30 7 1 6 8
M  V30 8 2 7 9
M  V30 9 1 7 10
M  V30 10 2 8 11
M  V30 11 1 8 12
M  V30 12 1 5 13
M  V30 13 1 5 14
M  V30 14 1 6 15
M  V30 15 1 6 16
M  V30 END BOND
M  V30 END CTAB
M  END
>  <Structure No>
4839

>  <LogS>
-1.452

>  <MMFF94 Energy>
81.471

$$$$
Compound 4840
Actelion Java MolfileCreator 2.0

  0  0  0  0  0  0              0 V3000
M  V30 BEGIN CTAB
M  V30 COUNTS 26 25 0 0 0
M  V30 BEGIN ATOM
M  V30 1 O 4.1157 0.6203 1.5515 0
M  V30 2 C 3.9107 -0.2848 0.698 0
M  V30 3 O 2.9686 -0.1086 -0.3213 0
M  V30 4 N 4.6521 -1.4996 0.7661 0
M  V30 5 C 2.1466 1.0516 -0.4405 0
M  V30 6 C 1.0172 1.0307 0.5929 0
M  V30 7 O 0.2769 -0.173 0.4977 0
M  V30 8 C -0.8404 -0.0279 -0.3598 0
M  V30 9 C -2.0883 0.3342 0.4566 0
M  V30 10 C -3.3176 0.6012 -0.4253 0
M  V30 11 C -3.8568 -0.666 -1.088 0
M  V30 12 H 5.3609 -1.6465 1.5186 0
M  V30 13 H 4.4897 -2.2532 0.0622 0
M  V30 14 H 1.7097 1.0712 -1.4606 0
M  V30 15 H 2.7592 1.9714 -0.3192 0
M  V30 16 H 0.3885 1.946 0.4884 0
M  V30 17 H 1.4613 1.0805 1.6088 0
M  V30 18 H -0.6742 0.7131 -1.177 0
M  V30 19 H -1.0065 -1.0071 -0.8543 0
M  V30 20 H -1.8799 1.2543 1.0437 0
M  V30 21 H -2.3102 -0.4797 1.1809 0
M  V30 22 H -4.1211 1.0287 0.2131 0
M  V30 23 H -3.0726 1.3547 -1.2052 0
M  V30 24 H -3.1365 -1.0544 -1.8374 0
M  V30 25 H -4.0574 -1.4484 -0.3256 0
M  V30 26 H -4.8073 -0.4319 -1.6122 0
M  V30 END ATOM
M  V30 BEGIN BOND
M  V30 1 2 1 2
M  V30 2 1 2 3
M  V30 3 1 2 4
M  V30 4 1 3 5
M  V30 5 1 5 6
M  V30 6 1 6 7
M  V30 7 1 7 8
M  V30 8 1 8 9
M  V30 9 1 9 10
M  V30 10 1 10 11
M  V30 11 1 4 12
M  V30 12 1 4 13
M  V30 13 1 5 14
M  V30 14 1 5 15
M  V30 15 1 6 16
M  V30 16 1 6 17
M  V30 17 1 8 18
M  V30 18 1 8 19
M  V30 19 1 9 20
M  V30 20 1 9 21
M  V30 21 1 10 22
M  V30 22 1 10 23
M  V30 23 1 11 24
M  V30 24 1 11 25
M  V30 25 1 11 26
M  V30 END BOND
M  V30 END CTAB
M  END
>  <Structure No>
4840

>  <LogS>
-0.5084

>  <MMFF94 Energy>
-57.173

$$$$
Compound 4841
Actelion Java MolfileCreator 2.0

  0  0  0  0  0  0              0 V3000
M  V30 BEGIN CTAB
M  V30 COUNTS 16 16 0 0 0
M  V30 BEGIN ATOM
M  V30 1 Cl 4.0298 0.0914 0.0914 0
M  V30 2 C 2.2685 0.0152 -0.0123 0
M  V30 3 C 1.5383 1.1515 -0.3946 0
M  V30 4 C 1.5987 -1.1783 0.2989 0
M  V30 5 Cl 2.3868 2.6569 -0.7609 0
M  V30 6 C 0.1356 1.0944 -0.4815 0
M  V30 7 Cl 2.5217 -2.5971 0.8032 0
M  V30 8 C 0.1967 -1.2438 0.2144 0
M  V30 9 Cl -0.7564 2.5565 -0.9236 0
M  V30 10 C -0.5442 -0.1142 -0.203 0
M  V30 11 Cl -0.6233 -2.7477 0.6555 0
M  V30 12 C -2.0561 -0.185 -0.2823 0
M  V30 13 O -2.6164 0.0233 0.9848 0
M  V30 14 H -2.3776 -1.1781 -0.6573 0
M  V30 15 H -2.4727 0.5398 -1.0145 0
M  V30 16 H -2.5506 0.9971 1.1663 0
M  V30 END ATOM
M  V30 BEGIN BOND
M  V30 1 1 1 2
M  V30 2 2 2 3
M  V30 3 1 2 4
M  V30 4 1 3 5
M  V30 5 1 3 6
M  V30 6 1 4 7
M  V30 7 2 4 8
M  V30 8 1 6 9
M  V30 9 2 6 10
M  V30 10 1 8 11
M  V30 11 1 10 12
M  V30 12 1 12 13
M  V30 13 1 8 10
M  V30 14 1 12 14
M  V30 15 1 12 15
M  V30 16 1 13 16
M  V30 END BOND
M  V30 END CTAB
M  END
>  <Structure No>
4841

>  <LogS>
-5.1467

>  <MMFF94 Energy>
25.442

$$$$
Compound 4842
Actelion Java MolfileCreator 2.0

  0  0  0  0  0  0              0 V3000
M  V30 BEGIN CTAB
M  V30 COUNTS 12 11 0 0 0
M  V30 BEGIN ATOM
M  V30 1 Cl -1.1049 -2.2958 0.2549 0
M  V30 2 C -0.4308 -0.72 0.7536 0 CFG=2
M  V30 3 C -1.5252 0.3078 0.7658 0
M  V30 4 C 0.7121 -0.3227 -0.191 0
M  V30 5 O -2.197 0.5384 -0.2745 0
M  V30 6 O -1.7921 1.0229 1.9264 0 CHG=-1
M  V30 7 C 1.4101 0.9164 0.2808 0
M  V30 8 O 2.294 0.8441 1.1748 0
M  V30 9 O 1.0544 2.1557 -0.2361 0 CHG=-1
M  V30 10 H -0.0299 -0.8427 1.7836 0
M  V30 11 H 1.4523 -1.1508 -0.2402 0
M  V30 12 H 0.3219 -0.161 -1.2195 0
M  V30 END ATOM
M  V30 BEGIN BOND
M  V30 1 1 1 2
M  V30 2 1 2 3
M  V30 3 1 2 4
M  V30 4 2 3 5
M  V30 5 1 3 6
M  V30 6 1 4 7
M  V30 7 2 7 8
M  V30 8 1 7 9
M  V30 9 1 2 10
M  V30 10 1 4 11
M  V30 11 1 4 12
M  V30 END BOND
M  V30 BEGIN COLLECTION
M  V30 MDLV30/STEABS ATOMS=(1 2)
M  V30 END COLLECTION
M  V30 END CTAB
M  END
>  <Structure No>
4842

>  <LogS>
0.0767

>  <MMFF94 Energy>
99.077

$$$$
Compound 4843
Actelion Java MolfileCreator 2.0

  0  0  0  0  0  0              0 V3000
M  V30 BEGIN CTAB
M  V30 COUNTS 33 33 0 0 0
M  V30 BEGIN ATOM
M  V30 1 O -1.1817 -1.8124 0.2362 0
M  V30 2 C -0.7773 -0.6222 0.1278 0
M  V30 3 O 0.5876 -0.3274 0.216 0
M  V30 4 N -1.7099 0.4516 -0.0519 0
M  V30 5 C 1.5953 -1.3094 0.4594 0 CFG=1
M  V30 6 C -3.1084 0.273 -0.3351 0
M  V30 7 C 2.9364 -0.7389 0.0974 0
M  V30 8 C 1.587 -1.7312 1.9304 0
M  V30 9 C -4.0347 1.2048 0.1597 0
M  V30 10 C -3.5656 -0.7806 -1.1489 0
M  V30 11 O 3.7475 -1.4394 -0.5669 0
M  V30 12 N 3.3085 0.5763 0.5369 0
M  V30 13 C -5.3976 1.0658 -0.1202 0
M  V30 14 C -4.9294 -0.9155 -1.4274 0
M  V30 15 C 4.5941 1.1836 0.2004 0
M  V30 16 C -5.8452 0.004 -0.9098 0
M  V30 17 C 4.6081 1.6381 -1.2547 0
M  V30 18 H -1.3602 1.4208 0.1216 0
M  V30 19 H 1.4033 -2.2025 -0.1769 0
M  V30 20 H 2.3974 -2.4663 2.1231 0
M  V30 21 H 1.7329 -0.8489 2.5896 0
M  V30 22 H 0.6185 -2.2082 2.1873 0
M  V30 23 H -3.6999 2.0333 0.7713 0
M  V30 24 H -2.8715 -1.4822 -1.591 0
M  V30 25 H 2.661 1.1044 1.1645 0
M  V30 26 H -6.1064 1.7829 0.2732 0
M  V30 27 H -5.2755 -1.7282 -2.0527 0
M  V30 28 H 5.4174 0.4602 0.3844 0
M  V30 29 H 4.7632 2.0685 0.8514 0
M  V30 30 H -6.9 -0.1012 -1.1279 0
M  V30 31 H 5.5741 2.1373 -1.4794 0
M  V30 32 H 4.491 0.7693 -1.9354 0
M  V30 33 H 3.782 2.358 -1.4364 0
M  V30 END ATOM
M  V30 BEGIN BOND
M  V30 1 2 1 2
M  V30 2 1 2 3
M  V30 3 1 2 4
M  V30 4 1 3 5
M  V30 5 1 4 6
M  V30 6 1 5 7
M  V30 7 1 5 8
M  V30 8 2 6 9
M  V30 9 1 6 10
M  V30 10 2 7 11
M  V30 11 1 7 12
M  V30 12 1 9 13
M  V30 13 2 10 14
M  V30 14 1 12 15
M  V30 15 2 13 16
M  V30 16 1 15 17
M  V30 17 1 14 16
M  V30 18 1 4 18
M  V30 19 1 5 19
M  V30 20 1 8 20
M  V30 21 1 8 21
M  V30 22 1 8 22
M  V30 23 1 9 23
M  V30 24 1 10 24
M  V30 25 1 12 25
M  V30 26 1 13 26
M  V30 27 1 14 27
M  V30 28 1 15 28
M  V30 29 1 15 29
M  V30 30 1 16 30
M  V30 31 1 17 31
M  V30 32 1 17 32
M  V30 33 1 17 33
M  V30 END BOND
M  V30 BEGIN COLLECTION
M  V30 MDLV30/STEABS ATOMS=(1 5)
M  V30 END COLLECTION
M  V30 END CTAB
M  END
>  <Structure No>
4843

>  <LogS>
-1.8293

>  <MMFF94 Energy>
-39.971

$$$$
Compound 4844
Actelion Java MolfileCreator 2.0

  0  0  0  0  0  0              0 V3000
M  V30 BEGIN CTAB
M  V30 COUNTS 28 30 0 0 0
M  V30 BEGIN ATOM
M  V30 1 O -0.802 -2.6486 -0.7218 0 CHG=-1
M  V30 2 C 0.0266 -1.5976 -0.3437 0
M  V30 3 C -0.513 -0.362 0.0706 0
M  V30 4 C 1.4124 -1.7758 -0.4079 0
M  V30 5 C -1.9757 -0.1459 0.1612 0
M  V30 6 C 0.3564 0.6951 0.3884 0
M  V30 7 C 2.2793 -0.7258 -0.078 0
M  V30 8 N -2.8061 -1.0295 0.6001 0 CHG=1
M  V30 9 N -2.5989 1.0797 -0.1747 0
M  V30 10 C 1.7464 0.5222 0.3207 0
M  V30 11 C 3.6708 -0.8987 -0.1437 0
M  V30 12 C -4.1624 -0.4983 0.6065 0
M  V30 13 C -4.0221 0.9345 0.0673 0
M  V30 14 C 2.6154 1.5754 0.6481 0
M  V30 15 C 4.5252 0.1577 0.1845 0
M  V30 16 C 3.9992 1.3907 0.5792 0
M  V30 17 H 1.8085 -2.7331 -0.7263 0
M  V30 18 H -0.049 1.6483 0.7083 0
M  V30 19 H -2.5478 -1.9776 0.9525 0
M  V30 20 H -2.1323 1.9232 -0.576 0
M  V30 21 H 4.0961 -1.8475 -0.4482 0
M  V30 22 H -4.5619 -0.4942 1.6436 0
M  V30 23 H -4.8131 -1.1119 -0.0526 0
M  V30 24 H -4.583 1.0598 -0.8834 0
M  V30 25 H -4.3581 1.6815 0.818 0
M  V30 26 H 2.2256 2.5383 0.9564 0
M  V30 27 H 5.5976 0.0205 0.1329 0
M  V30 28 H 4.6656 2.2051 0.8324 0
M  V30 END ATOM
M  V30 BEGIN BOND
M  V30 1 1 1 2
M  V30 2 1 2 3
M  V30 3 2 2 4
M  V30 4 1 3 5
M  V30 5 2 3 6
M  V30 6 1 4 7
M  V30 7 2 5 8
M  V30 8 1 5 9
M  V30 9 1 6 10
M  V30 10 2 7 11
M  V30 11 1 8 12
M  V30 12 1 9 13
M  V30 13 2 10 14
M  V30 14 1 11 15
M  V30 15 1 14 16
M  V30 16 1 7 10
M  V30 17 1 12 13
M  V30 18 2 15 16
M  V30 19 1 4 17
M  V30 20 1 6 18
M  V30 21 1 8 19
M  V30 22 1 9 20
M  V30 23 1 11 21
M  V30 24 1 12 22
M  V30 25 1 12 23
M  V30 26 1 13 24
M  V30 27 1 13 25
M  V30 28 1 14 26
M  V30 29 1 15 27
M  V30 30 1 16 28
M  V30 END BOND
M  V30 END CTAB
M  END
>  <Structure No>
4844

>  <LogS>
-3.3015

>  <MMFF94 Energy>
-37.106

$$$$
Compound 4845
Actelion Java MolfileCreator 2.0

  0  0  0  0  0  0              0 V3000
M  V30 BEGIN CTAB
M  V30 COUNTS 24 24 0 0 0
M  V30 BEGIN ATOM
M  V30 1 O -3.2858 -3.2056 1.121 0
M  V30 2 C -2.3393 -2.791 0.4025 0
M  V30 3 O -1.6186 -3.6985 -0.3658 0 CHG=-1
M  V30 4 C -2.013 -1.3567 0.388 0
M  V30 5 C -1.0047 -0.8668 -0.3443 0
M  V30 6 C -0.6433 0.5722 -0.3621 0
M  V30 7 C 0.6963 0.9698 -0.5975 0
M  V30 8 C -1.6375 1.565 -0.2439 0
M  V30 9 O 1.7406 0.0422 -0.7087 0
M  V30 10 C 1.004 2.3284 -0.7414 0
M  V30 11 C -1.3083 2.9176 -0.3606 0
M  V30 12 C 2.0434 -0.9061 0.2753 0
M  V30 13 C 0.0088 3.2985 -0.6144 0
M  V30 14 O 1.5066 -0.8479 1.4152 0
M  V30 15 C 3.0716 -1.9486 -0.0027 0
M  V30 16 H -2.6014 -0.7004 1.0167 0
M  V30 17 H -0.393 -1.5481 -0.9233 0
M  V30 18 H -2.6767 1.3002 -0.0993 0
M  V30 19 H 2.0247 2.6333 -0.935 0
M  V30 20 H -2.0805 3.6713 -0.2731 0
M  V30 21 H 0.2588 4.3468 -0.7158 0
M  V30 22 H 2.8052 -2.8945 0.5144 0
M  V30 23 H 4.0607 -1.5983 0.3582 0
M  V30 24 H 3.1285 -2.1415 -1.0944 0
M  V30 END ATOM
M  V30 BEGIN BOND
M  V30 1 2 1 2
M  V30 2 1 2 3
M  V30 3 1 2 4
M  V30 4 2 4 5
M  V30 5 1 5 6
M  V30 6 2 6 7
M  V30 7 1 6 8
M  V30 8 1 7 9
M  V30 9 1 7 10
M  V30 10 2 8 11
M  V30 11 1 9 12
M  V30 12 2 10 13
M  V30 13 2 12 14
M  V30 14 1 12 15
M  V30 15 1 11 13
M  V30 16 1 4 16
M  V30 17 1 5 17
M  V30 18 1 8 18
M  V30 19 1 10 19
M  V30 20 1 11 20
M  V30 21 1 13 21
M  V30 22 1 15 22
M  V30 23 1 15 23
M  V30 24 1 15 24
M  V30 END BOND
M  V30 END CTAB
M  END
>  <Structure No>
4845

>  <LogS>
-3.1559

>  <MMFF94 Energy>
25.921

$$$$
Compound 4846
Actelion Java MolfileCreator 2.0

  0  0  0  0  0  0              0 V3000
M  V30 BEGIN CTAB
M  V30 COUNTS 22 22 0 0 0
M  V30 BEGIN ATOM
M  V30 1 Cl 2.5907 2.915 -0.809 0
M  V30 2 C 2.3057 1.2411 -0.3509 0
M  V30 3 C 3.3701 0.3436 -0.1412 0
M  V30 4 C 0.9842 0.8043 -0.1944 0
M  V30 5 O 4.7015 0.7356 -0.2858 0
M  V30 6 C 3.0954 -0.9782 0.2221 0
M  V30 7 C 0.7063 -0.5242 0.1708 0
M  V30 8 C 1.7764 -1.4117 0.3776 0
M  V30 9 C -0.693 -0.977 0.3338 0
M  V30 10 O -0.9389 -2.1708 0.6619 0
M  V30 11 O -1.7448 -0.0784 0.1237 0
M  V30 12 C -3.1127 -0.4479 0.2634 0
M  V30 13 C -3.997 0.7527 -0.0328 0
M  V30 14 H 0.1765 1.507 -0.3591 0
M  V30 15 H 4.9697 1.6761 -0.5464 0
M  V30 16 H 3.9092 -1.6736 0.3848 0
M  V30 17 H 1.5957 -2.4416 0.6597 0
M  V30 18 H -3.3551 -1.267 -0.448 0
M  V30 19 H -3.3034 -0.797 1.3016 0
M  V30 20 H -3.8208 1.1066 -1.0707 0
M  V30 21 H -3.7691 1.576 0.677 0
M  V30 22 H -5.0649 0.4681 0.0752 0
M  V30 END ATOM
M  V30 BEGIN BOND
M  V30 1 1 1 2
M  V30 2 2 2 3
M  V30 3 1 2 4
M  V30 4 1 3 5
M  V30 5 1 3 6
M  V30 6 2 4 7
M  V30 7 2 6 8
M  V30 8 1 7 9
M  V30 9 2 9 10
M  V30 10 1 9 11
M  V30 11 1 11 12
M  V30 12 1 12 13
M  V30 13 1 7 8
M  V30 14 1 4 14
M  V30 15 1 5 15
M  V30 16 1 6 16
M  V30 17 1 8 17
M  V30 18 1 12 18
M  V30 19 1 12 19
M  V30 20 1 13 20
M  V30 21 1 13 21
M  V30 22 1 13 22
M  V30 END BOND
M  V30 END CTAB
M  END
>  <Structure No>
4846

>  <LogS>
-3.2232

>  <MMFF94 Energy>
25.362

$$$$
Compound 4847
Actelion Java MolfileCreator 2.0

  0  0  0  0  0  0              0 V3000
M  V30 BEGIN CTAB
M  V30 COUNTS 37 36 0 0 0
M  V30 BEGIN ATOM
M  V30 1 O 3.2472 0.8704 2.6129 0
M  V30 2 C 2.8788 0.0173 1.7632 0
M  V30 3 O 3.3818 -1.2765 1.8279 0 CHG=-1
M  V30 4 C 1.8844 0.3906 0.7015 0 CFG=2
M  V30 5 N 0.6778 -0.4206 0.8765 0
M  V30 6 C 2.4529 0.1759 -0.7179 0
M  V30 7 C -0.4152 0.0015 1.7098 0
M  V30 8 C 3.5073 1.2191 -1.1251 0
M  V30 9 O -0.299 1.0416 2.4141 0
M  V30 10 C -1.7405 -0.7321 1.721 0 CFG=2
M  V30 11 C 4.8286 0.9819 -0.4608 0
M  V30 12 N -1.6037 -2.1699 1.4464 0 CHG=1
M  V30 13 C -2.8118 -0.0593 0.817 0
M  V30 14 O 5.2786 1.8128 0.3713 0
M  V30 15 O 5.5642 -0.1576 -0.7609 0 CHG=-1
M  V30 16 C -2.3373 0.5195 -0.5458 0
M  V30 17 C -1.9288 -0.5704 -1.5469 0
M  V30 18 C -3.4558 1.378 -1.1551 0
M  V30 19 H 1.6181 1.467 0.8035 0
M  V30 20 H 0.6705 -1.3788 0.4627 0
M  V30 21 H 2.8631 -0.8526 -0.826 0
M  V30 22 H 1.6104 0.2614 -1.4396 0
M  V30 23 H 3.1397 2.2446 -0.9011 0
M  V30 24 H 3.662 1.1581 -2.2236 0
M  V30 25 H -2.1245 -0.6502 2.7648 0
M  V30 26 H -2.5002 -2.6547 1.6824 0
M  V30 27 H -0.8518 -2.5787 2.0482 0
M  V30 28 H -1.3874 -2.3597 0.4454 0
M  V30 29 H -3.2379 0.7831 1.4069 0
M  V30 30 H -3.6534 -0.7669 0.6484 0
M  V30 31 H -1.4681 1.1931 -0.3853 0
M  V30 32 H -2.6966 -1.3719 -1.5952 0
M  V30 33 H -1.8041 -0.1391 -2.5633 0
M  V30 34 H -0.9497 -1.006 -1.2721 0
M  V30 35 H -3.1161 1.8374 -2.1081 0
M  V30 36 H -3.7311 2.2026 -0.4632 0
M  V30 37 H -4.3581 0.7608 -1.3554 0
M  V30 END ATOM
M  V30 BEGIN BOND
M  V30 1 2 1 2
M  V30 2 1 2 3
M  V30 3 1 2 4
M  V30 4 1 4 5
M  V30 5 1 4 6
M  V30 6 1 5 7
M  V30 7 1 6 8
M  V30 8 2 7 9
M  V30 9 1 7 10
M  V30 10 1 8 11
M  V30 11 1 10 12
M  V30 12 1 10 13
M  V30 13 2 11 14
M  V30 14 1 11 15
M  V30 15 1 13 16
M  V30 16 1 16 17
M  V30 17 1 16 18
M  V30 18 1 4 19
M  V30 19 1 5 20
M  V30 20 1 6 21
M  V30 21 1 6 22
M  V30 22 1 8 23
M  V30 23 1 8 24
M  V30 24 1 10 25
M  V30 25 1 12 26
M  V30 26 1 12 27
M  V30 27 1 12 28
M  V30 28 1 13 29
M  V30 29 1 13 30
M  V30 30 1 16 31
M  V30 31 1 17 32
M  V30 32 1 17 33
M  V30 33 1 17 34
M  V30 34 1 18 35
M  V30 35 1 18 36
M  V30 36 1 18 37
M  V30 END BOND
M  V30 BEGIN COLLECTION
M  V30 MDLV30/STEABS ATOMS=(2 4 10)
M  V30 END COLLECTION
M  V30 END CTAB
M  END
>  <Structure No>
4847

>  <LogS>
-0.8969

>  <MMFF94 Energy>
-44.017

$$$$
Compound 4848
Actelion Java MolfileCreator 2.0

  0  0  0  0  0  0              0 V3000
M  V30 BEGIN CTAB
M  V30 COUNTS 19 18 0 0 0
M  V30 BEGIN ATOM
M  V30 1 O -2.5801 2.0324 0.3124 0
M  V30 2 N -1.5526 1.3281 0.3947 0
M  V30 3 N -1.6241 -0.0728 0.5025 0
M  V30 4 C -0.4112 -0.8245 0.7001 0
M  V30 5 C -2.9255 -0.7462 0.5542 0
M  V30 6 O -0.4626 -2.07 0.8929 0
M  V30 7 C 0.9347 -0.1583 0.6392 0
M  V30 8 C 1.3783 0.0259 -0.8149 0
M  V30 9 C 2.7454 0.6991 -0.8923 0
M  V30 10 H -3.6852 -0.179 -0.0232 0
M  V30 11 H -3.258 -0.8323 1.6101 0
M  V30 12 H -2.8606 -1.7598 0.1051 0
M  V30 13 H 1.6794 -0.7856 1.1767 0
M  V30 14 H 0.8921 0.8251 1.1548 0
M  V30 15 H 0.6382 0.6518 -1.3601 0
M  V30 16 H 1.4367 -0.9653 -1.3157 0
M  V30 17 H 2.7065 1.7051 -0.4226 0
M  V30 18 H 3.0444 0.8142 -1.9557 0
M  V30 19 H 3.5097 0.0815 -0.3739 0
M  V30 END ATOM
M  V30 BEGIN BOND
M  V30 1 2 1 2
M  V30 2 1 2 3
M  V30 3 1 3 4
M  V30 4 1 3 5
M  V30 5 2 4 6
M  V30 6 1 4 7
M  V30 7 1 7 8
M  V30 8 1 8 9
M  V30 9 1 5 10
M  V30 10 1 5 11
M  V30 11 1 5 12
M  V30 12 1 7 13
M  V30 13 1 7 14
M  V30 14 1 8 15
M  V30 15 1 8 16
M  V30 16 1 9 17
M  V30 17 1 9 18
M  V30 18 1 9 19
M  V30 END BOND
M  V30 END CTAB
M  END
>  <Structure No>
4848

>  <LogS>
-1.5347

>  <MMFF94 Energy>
-2.1377

$$$$
Compound 4849
Actelion Java MolfileCreator 2.0

  0  0  0  0  0  0              0 V3000
M  V30 BEGIN CTAB
M  V30 COUNTS 24 24 0 0 0
M  V30 BEGIN ATOM
M  V30 1 Cl -4.3122 1.1377 2.1136 0
M  V30 2 C -2.8398 0.4901 1.414 0
M  V30 3 C -2.6023 0.6175 0.0415 0
M  V30 4 C -1.906 -0.1567 2.2274 0
M  V30 5 C -1.4303 0.0942 -0.5295 0
M  V30 6 C -0.7293 -0.6648 1.6733 0
M  V30 7 C -0.4736 -0.5261 0.3036 0
M  V30 8 C -1.2076 0.2348 -2.0093 0
M  V30 9 O 0.7244 -1.0296 -0.2122 0
M  V30 10 C 1.8185 -0.1869 -0.5735 0 CFG=2
M  V30 11 C 2.7965 -0.9788 -1.3854 0
M  V30 12 C 2.5028 0.3608 0.6795 0
M  V30 13 O 3.3275 -0.4719 -2.4086 0
M  V30 14 O 3.154 -2.2625 -0.9911 0 CHG=-1
M  V30 15 H -3.335 1.117 -0.5808 0
M  V30 16 H -2.0882 -0.2615 3.2894 0
M  V30 17 H -0.005 -1.1553 2.3114 0
M  V30 18 H -2.1752 0.199 -2.5541 0
M  V30 19 H -0.7158 1.2072 -2.2201 0
M  V30 20 H -0.5744 -0.59 -2.3983 0
M  V30 21 H 1.4526 0.6679 -1.1829 0
M  V30 22 H 3.3799 0.9825 0.3987 0
M  V30 23 H 1.7943 0.9975 1.2504 0
M  V30 24 H 2.8402 -0.4722 1.333 0
M  V30 END ATOM
M  V30 BEGIN BOND
M  V30 1 1 1 2
M  V30 2 2 2 3
M  V30 3 1 2 4
M  V30 4 1 3 5
M  V30 5 2 4 6
M  V30 6 2 5 7
M  V30 7 1 5 8
M  V30 8 1 7 9
M  V30 9 1 9 10
M  V30 10 1 10 11
M  V30 11 1 10 12
M  V30 12 2 11 13
M  V30 13 1 11 14
M  V30 14 1 6 7
M  V30 15 1 3 15
M  V30 16 1 4 16
M  V30 17 1 6 17
M  V30 18 1 8 18
M  V30 19 1 8 19
M  V30 20 1 8 20
M  V30 21 1 10 21
M  V30 22 1 12 22
M  V30 23 1 12 23
M  V30 24 1 12 24
M  V30 END BOND
M  V30 BEGIN COLLECTION
M  V30 MDLV30/STEABS ATOMS=(1 10)
M  V30 END COLLECTION
M  V30 END CTAB
M  END
>  <Structure No>
4849

>  <LogS>
-2.3972

>  <MMFF94 Energy>
73.146

$$$$
Compound 4850
Actelion Java MolfileCreator 2.0

  0  0  0  0  0  0              0 V3000
M  V30 BEGIN CTAB
M  V30 COUNTS 10 9 0 0 0
M  V30 BEGIN ATOM
M  V30 1 Cl -0.56 2.0014 0.24 0
M  V30 2 C 0.3629 0.5473 -0.12 0
M  V30 3 C -0.3283 -0.7114 -0.4887 0
M  V30 4 C 1.6935 0.6151 -0.0504 0
M  V30 5 O 0.3411 -1.7489 -0.7452 0
M  V30 6 N -1.7546 -0.7761 -0.561 0
M  V30 7 H 2.3172 -0.2444 -0.2603 0
M  V30 8 H 2.1814 1.5427 0.2204 0
M  V30 9 H -2.2228 -1.672 -0.8225 0
M  V30 10 H -2.3554 0.0523 -0.3587 0
M  V30 END ATOM
M  V30 BEGIN BOND
M  V30 1 1 1 2
M  V30 2 1 2 3
M  V30 3 2 2 4
M  V30 4 2 3 5
M  V30 5 1 3 6
M  V30 6 1 4 7
M  V30 7 1 4 8
M  V30 8 1 6 9
M  V30 9 1 6 10
M  V30 END BOND
M  V30 END CTAB
M  END
>  <Structure No>
4850

>  <LogS>
-0.2104

>  <MMFF94 Energy>
-9.9752

$$$$
Compound 4851
Actelion Java MolfileCreator 2.0

  0  0  0  0  0  0              0 V3000
M  V30 BEGIN CTAB
M  V30 COUNTS 14 14 0 0 0
M  V30 BEGIN ATOM
M  V30 1 O 0.5468 -0.4687 -0.1562 0
M  V30 2 C 1.6612 0.1704 0.3823 0
M  V30 3 C -0.69 -0.4991 0.5425 0
M  V30 4 C 2.8048 0.1884 -0.2889 0
M  V30 5 C -1.6181 0.6466 0.1877 0
M  V30 6 C -1.8755 -0.7454 -0.3694 0
M  V30 7 H 1.5996 0.6559 1.3495 0
M  V30 8 H -0.7404 -0.9316 1.5647 0
M  V30 9 H 3.672 0.6846 0.1267 0
M  V30 10 H 2.8816 -0.2912 -1.2561 0
M  V30 11 H -1.2128 1.3684 -0.5532 0
M  V30 12 H -2.306 0.9453 1.0065 0
M  V30 13 H -1.6301 -0.8557 -1.4474 0
M  V30 14 H -2.7231 -1.2765 0.1126 0
M  V30 END ATOM
M  V30 BEGIN BOND
M  V30 1 1 1 2
M  V30 2 1 1 3
M  V30 3 2 2 4
M  V30 4 1 3 5
M  V30 5 1 3 6
M  V30 6 1 5 6
M  V30 7 1 2 7
M  V30 8 1 3 8
M  V30 9 1 4 9
M  V30 10 1 4 10
M  V30 11 1 5 11
M  V30 12 1 5 12
M  V30 13 1 6 13
M  V30 14 1 6 14
M  V30 END BOND
M  V30 END CTAB
M  END
>  <Structure No>
4851

>  <LogS>
-1.1001

>  <MMFF94 Energy>
8.8699

$$$$
Compound 4852
Actelion Java MolfileCreator 2.0

  0  0  0  0  0  0              0 V3000
M  V30 BEGIN CTAB
M  V30 COUNTS 36 37 0 0 0
M  V30 BEGIN ATOM
M  V30 1 O -2.7815 3.1793 0.8735 0
M  V30 2 C -2.7604 2.0297 0.362 0
M  V30 3 N -3.0151 1.782 -1.0066 0
M  V30 4 N -2.4748 0.8498 1.1008 0
M  V30 5 C -2.8805 0.374 -1.131 0
M  V30 6 C -2.5359 -0.2878 0.1808 0 CFG=1
M  V30 7 O -3.0328 -0.234 -2.2237 0
M  V30 8 C -1.1775 -1.0292 0.1273 0
M  V30 9 C -3.663 -1.237 0.6087 0
M  V30 10 C 0.0175 -0.1075 -0.215 0
M  V30 11 N 1.2939 -0.8593 -0.3599 0 CHG=1
M  V30 12 C 2.2886 -0.1037 -1.1595 0
M  V30 13 C 1.8802 -1.2933 0.9346 0
M  V30 14 C 2.8509 1.1095 -0.4029 0
M  V30 15 C 2.4746 -0.1322 1.7527 0
M  V30 16 C 3.475 0.6705 0.9209 0
M  V30 17 H -3.2414 2.4747 -1.754 0
M  V30 18 H -2.2615 0.8063 2.1225 0
M  V30 19 H -1.0073 -1.5022 1.1161 0
M  V30 20 H -1.2409 -1.8423 -0.6287 0
M  V30 21 H -3.7565 -2.0788 -0.1107 0
M  V30 22 H -4.6331 -0.6957 0.65 0
M  V30 23 H -3.4534 -1.6531 1.6173 0
M  V30 24 H -0.221 0.4069 -1.1717 0
M  V30 25 H 0.1045 0.6854 0.5546 0
M  V30 26 H 1.0878 -1.7286 -0.9079 0
M  V30 27 H 3.1339 -0.7757 -1.4333 0
M  V30 28 H 1.8433 0.237 -2.1206 0
M  V30 29 H 1.1326 -1.8282 1.5547 0
M  V30 30 H 2.6914 -2.031 0.7387 0
M  V30 31 H 3.6278 1.6015 -1.0267 0
M  V30 32 H 2.0478 1.8544 -0.2164 0
M  V30 33 H 2.9965 -0.5469 2.642 0
M  V30 34 H 1.6722 0.5351 2.1301 0
M  V30 35 H 4.3742 0.0477 0.7191 0
M  V30 36 H 3.7989 1.5661 1.4933 0
M  V30 END ATOM
M  V30 BEGIN BOND
M  V30 1 2 1 2
M  V30 2 1 2 3
M  V30 3 1 2 4
M  V30 4 1 3 5
M  V30 5 1 4 6
M  V30 6 2 5 7
M  V30 7 1 6 8
M  V30 8 1 6 9
M  V30 9 1 8 10
M  V30 10 1 10 11
M  V30 11 1 11 12
M  V30 12 1 11 13
M  V30 13 1 12 14
M  V30 14 1 13 15
M  V30 15 1 14 16
M  V30 16 1 5 6
M  V30 17 1 15 16
M  V30 18 1 3 17
M  V30 19 1 4 18
M  V30 20 1 8 19
M  V30 21 1 8 20
M  V30 22 1 9 21
M  V30 23 1 9 22
M  V30 24 1 9 23
M  V30 25 1 10 24
M  V30 26 1 10 25
M  V30 27 1 11 26
M  V30 28 1 12 27
M  V30 29 1 12 28
M  V30 30 1 13 29
M  V30 31 1 13 30
M  V30 32 1 14 31
M  V30 33 1 14 32
M  V30 34 1 15 33
M  V30 35 1 15 34
M  V30 36 1 16 35
M  V30 37 1 16 36
M  V30 END BOND
M  V30 BEGIN COLLECTION
M  V30 MDLV30/STEABS ATOMS=(1 6)
M  V30 END COLLECTION
M  V30 END CTAB
M  END
>  <Structure No>
4852

>  <LogS>
-0.8213

>  <MMFF94 Energy>
-63.737

$$$$
Compound 4853
Actelion Java MolfileCreator 2.0

  0  0  0  0  0  0              0 V3000
M  V30 BEGIN CTAB
M  V30 COUNTS 43 45 0 0 0
M  V30 BEGIN ATOM
M  V30 1 O 1.5257 0.8028 2.9728 0
M  V30 2 C 1.6489 1.5632 1.9745 0
M  V30 3 O 1.0339 1.2526 0.7566 0
M  V30 4 C 2.5053 2.7787 2.0737 0
M  V30 5 C 0.2589 0.0687 0.5447 0 CFG=2
M  V30 6 C 1.1342 -1.1289 0.2362 0 CFG=2
M  V30 7 C -0.5511 0.2239 -0.7383 0 CFG=1
M  V30 8 O 2.4625 -0.9371 0.6165 0
M  V30 9 C 1.1044 -1.2476 -1.2543 0 CFG=1
M  V30 10 O 0.2144 -0.2993 -1.7997 0
M  V30 11 C -1.9117 -0.5036 -0.6624 0 CFG=1
M  V30 12 C 3.224 -0.9814 -0.5694 0
M  V30 13 O 2.3955 -0.9924 -1.7107 0
M  V30 14 O -2.7253 0.085 0.305 0
M  V30 15 C -2.6865 -0.419 -1.9508 0
M  V30 16 C 4.0881 -2.2476 -0.5624 0
M  V30 17 C 4.1168 0.2609 -0.6248 0
M  V30 18 C -4.0269 0.1075 -0.2416 0
M  V30 19 O -4.0256 -0.3258 -1.5853 0
M  V30 20 C -4.9247 -0.8242 0.5776 0
M  V30 21 C -4.5636 1.5411 -0.1808 0
M  V30 22 H 3.5676 2.4943 1.9241 0
M  V30 23 H 2.2123 3.5134 1.2948 0
M  V30 24 H 2.3873 3.2483 3.0731 0
M  V30 25 H -0.3931 -0.1203 1.4273 0
M  V30 26 H 0.7291 -2.0476 0.7163 0
M  V30 27 H -0.7403 1.3037 -0.9321 0
M  V30 28 H 0.7969 -2.27 -1.5663 0
M  V30 29 H -1.7564 -1.5736 -0.395 0
M  V30 30 H -2.5246 -1.3268 -2.5704 0
M  V30 31 H -2.414 0.4822 -2.5433 0
M  V30 32 H 3.4394 -3.1482 -0.5179 0
M  V30 33 H 4.7043 -2.3026 -1.4852 0
M  V30 34 H 4.7603 -2.254 0.3224 0
M  V30 35 H 3.4892 1.177 -0.6516 0
M  V30 36 H 4.7514 0.2441 -1.5366 0
M  V30 37 H 4.7719 0.3091 0.2715 0
M  V30 38 H -4.5334 -1.8627 0.5302 0
M  V30 39 H -5.9606 -0.819 0.1753 0
M  V30 40 H -4.9484 -0.5047 1.6416 0
M  V30 41 H -5.5906 1.5901 -0.6021 0
M  V30 42 H -4.5857 1.9036 0.8693 0
M  V30 43 H -3.9073 2.2151 -0.7716 0
M  V30 END ATOM
M  V30 BEGIN BOND
M  V30 1 2 1 2
M  V30 2 1 2 3
M  V30 3 1 2 4
M  V30 4 1 3 5
M  V30 5 1 5 6
M  V30 6 1 5 7
M  V30 7 1 6 8
M  V30 8 1 6 9
M  V30 9 1 7 10
M  V30 10 1 7 11
M  V30 11 1 8 12
M  V30 12 1 9 13
M  V30 13 1 11 14
M  V30 14 1 11 15
M  V30 15 1 12 16
M  V30 16 1 12 17
M  V30 17 1 14 18
M  V30 18 1 15 19
M  V30 19 1 18 20
M  V30 20 1 18 21
M  V30 21 1 9 10
M  V30 22 1 12 13
M  V30 23 1 18 19
M  V30 24 1 4 22
M  V30 25 1 4 23
M  V30 26 1 4 24
M  V30 27 1 5 25
M  V30 28 1 6 26
M  V30 29 1 7 27
M  V30 30 1 9 28
M  V30 31 1 11 29
M  V30 32 1 15 30
M  V30 33 1 15 31
M  V30 34 1 16 32
M  V30 35 1 16 33
M  V30 36 1 16 34
M  V30 37 1 17 35
M  V30 38 1 17 36
M  V30 39 1 17 37
M  V30 40 1 20 38
M  V30 41 1 20 39
M  V30 42 1 20 40
M  V30 43 1 21 41
M  V30 44 1 21 42
M  V30 45 1 21 43
M  V30 END BOND
M  V30 BEGIN COLLECTION
M  V30 MDLV30/STEABS ATOMS=(5 5 6 7 9 11)
M  V30 END COLLECTION
M  V30 END CTAB
M  END
>  <Structure No>
4853

>  <LogS>
-1.5229

>  <MMFF94 Energy>
49.671

$$$$
Compound 4854
Actelion Java MolfileCreator 2.0

  0  0  0  0  0  0              0 V3000
M  V30 BEGIN CTAB
M  V30 COUNTS 14 14 0 0 0
M  V30 BEGIN ATOM
M  V30 1 S -1.8016 -1.1461 -1.1461 0
M  V30 2 C -0.5875 -0.3537 -0.292 0
M  V30 3 C -3.0389 -0.4878 -0.2174 0
M  V30 4 N -1.1036 0.4102 0.6958 0
M  V30 5 C 0.8512 -0.4665 -0.5718 0
M  V30 6 C -2.4608 0.3377 0.7392 0
M  V30 7 O 1.2449 -1.2022 -1.5164 0
M  V30 8 N 1.8065 0.2504 0.2185 0
M  V30 9 N 3.1812 0.1332 -0.0424 0
M  V30 10 H -4.0974 -0.6722 -0.3404 0
M  V30 11 H -3.0405 0.8863 1.469 0
M  V30 12 H 1.4817 0.8371 1.0209 0
M  V30 13 H 3.6912 0.6832 0.6859 0
M  V30 14 H 3.3635 0.6076 -0.9559 0
M  V30 END ATOM
M  V30 BEGIN BOND
M  V30 1 1 1 2
M  V30 2 1 1 3
M  V30 3 2 2 4
M  V30 4 1 2 5
M  V30 5 2 3 6
M  V30 6 2 5 7
M  V30 7 1 5 8
M  V30 8 1 8 9
M  V30 9 1 4 6
M  V30 10 1 3 10
M  V30 11 1 6 11
M  V30 12 1 8 12
M  V30 13 1 9 13
M  V30 14 1 9 14
M  V30 END BOND
M  V30 END CTAB
M  END
>  <Structure No>
4854

>  <LogS>
-0.6787

>  <MMFF94 Energy>
99.168

$$$$
Compound 4855
Actelion Java MolfileCreator 2.0

  0  0  0  0  0  0              0 V3000
M  V30 BEGIN CTAB
M  V30 COUNTS 20 19 0 0 0
M  V30 BEGIN ATOM
M  V30 1 S -1.4434 0.8017 2.0854 0
M  V30 2 C -1.5094 -0.6746 1.0585 0
M  V30 3 C -2.3122 1.8334 0.8645 0
M  V30 4 N -0.5569 -0.9462 0.2229 0
M  V30 5 C -2.67 -1.6069 1.1749 0
M  V30 6 O 0.5363 -0.1196 0.0821 0
M  V30 7 C 1.5505 -0.4195 -0.8249 0
M  V30 8 O 1.4811 -1.461 -1.5332 0
M  V30 9 N 2.6692 0.4637 -0.9453 0
M  V30 10 C 3.7599 0.2038 -1.8761 0
M  V30 11 H -2.415 2.8622 1.2667 0
M  V30 12 H -3.3241 1.4209 0.6682 0
M  V30 13 H -1.7334 1.8732 -0.0817 0
M  V30 14 H -3.1878 -1.6819 0.1959 0
M  V30 15 H -2.3127 -2.6129 1.4792 0
M  V30 16 H -3.3919 -1.2386 1.9337 0
M  V30 17 H 2.7034 1.3201 -0.3478 0
M  V30 18 H 3.3685 0.1687 -2.9145 0
M  V30 19 H 4.5172 1.0129 -1.8048 0
M  V30 20 H 4.244 -0.7642 -1.6281 0
M  V30 END ATOM
M  V30 BEGIN BOND
M  V30 1 1 1 2
M  V30 2 1 1 3
M  V30 3 2 2 4
M  V30 4 1 2 5
M  V30 5 1 4 6
M  V30 6 1 6 7
M  V30 7 2 7 8
M  V30 8 1 7 9
M  V30 9 1 9 10
M  V30 10 1 3 11
M  V30 11 1 3 12
M  V30 12 1 3 13
M  V30 13 1 5 14
M  V30 14 1 5 15
M  V30 15 1 5 16
M  V30 16 1 9 17
M  V30 17 1 10 18
M  V30 18 1 10 19
M  V30 19 1 10 20
M  V30 END BOND
M  V30 END CTAB
M  END
>  <Structure No>
4855

>  <LogS>
-0.4466

>  <MMFF94 Energy>
-4.8331

$$$$
Compound 4856
Actelion Java MolfileCreator 2.0

  0  0  0  0  0  0              0 V3000
M  V30 BEGIN CTAB
M  V30 COUNTS 20 20 0 0 0
M  V30 BEGIN ATOM
M  V30 1 Cl 3.3097 1.4417 -1.1871 0
M  V30 2 C 1.6136 1.3685 -0.7076 0
M  V30 3 C 0.817 2.525 -0.7526 0
M  V30 4 C 1.0745 0.1406 -0.282 0
M  V30 5 Cl 1.5045 4.0592 -1.2882 0
M  V30 6 C -0.5288 2.4561 -0.3695 0
M  V30 7 O 1.9429 -0.9685 -0.2673 0
M  V30 8 C -0.2889 0.0751 0.105 0
M  V30 9 Cl -1.5644 3.8783 -0.4096 0
M  V30 10 C -1.073 1.2435 0.054 0
M  V30 11 C 1.6178 -2.2979 0.123 0
M  V30 12 O -0.8412 -1.1429 0.532 0
M  V30 13 C -2.192 -1.3292 0.9431 0
M  V30 14 H -2.1149 1.2226 0.3432 0
M  V30 15 H 0.8283 -2.7113 -0.539 0
M  V30 16 H 2.5218 -2.932 0.0202 0
M  V30 17 H 1.2993 -2.32 1.1864 0
M  V30 18 H -2.8827 -1.0838 0.109 0
M  V30 19 H -2.3405 -2.3917 1.2247 0
M  V30 20 H -2.414 -0.6941 1.8266 0
M  V30 END ATOM
M  V30 BEGIN BOND
M  V30 1 1 1 2
M  V30 2 2 2 3
M  V30 3 1 2 4
M  V30 4 1 3 5
M  V30 5 1 3 6
M  V30 6 1 4 7
M  V30 7 2 4 8
M  V30 8 1 6 9
M  V30 9 2 6 10
M  V30 10 1 7 11
M  V30 11 1 8 12
M  V30 12 1 12 13
M  V30 13 1 8 10
M  V30 14 1 10 14
M  V30 15 1 11 15
M  V30 16 1 11 16
M  V30 17 1 11 17
M  V30 18 1 13 18
M  V30 19 1 13 19
M  V30 20 1 13 20
M  V30 END BOND
M  V30 END CTAB
M  END
>  <Structure No>
4856

>  <LogS>
-4.3701

>  <MMFF94 Energy>
53.135

$$$$
Compound 4857
Actelion Java MolfileCreator 2.0

  0  0  0  0  0  0              0 V3000
M  V30 BEGIN CTAB
M  V30 COUNTS 17 17 0 0 0
M  V30 BEGIN ATOM
M  V30 1 Cl -2.1024 2.9929 0.3232 0
M  V30 2 C -1.5094 1.3565 0.1029 0
M  V30 3 C -0.1341 1.1016 0.1251 0
M  V30 4 C -2.4116 0.3084 -0.0945 0
M  V30 5 C 0.3503 -0.2105 -0.051 0
M  V30 6 C -1.9416 -0.9945 -0.27 0
M  V30 7 O 1.7233 -0.5043 -0.0348 0
M  V30 8 C -0.5677 -1.2599 -0.2494 0
M  V30 9 C 2.7531 0.4604 0.1559 0
M  V30 10 O -0.1332 -2.5731 -0.4281 0
M  V30 11 H 0.5458 1.9284 0.2797 0
M  V30 12 H -3.4767 0.5021 -0.1122 0
M  V30 13 H -2.6467 -1.8019 -0.4226 0
M  V30 14 H 2.6395 0.9496 1.1465 0
M  V30 15 H 3.7377 -0.0491 0.1225 0
M  V30 16 H 2.7187 1.2206 -0.6529 0
M  V30 17 H 0.8484 -2.8224 -0.4223 0
M  V30 END ATOM
M  V30 BEGIN BOND
M  V30 1 1 1 2
M  V30 2 2 2 3
M  V30 3 1 2 4
M  V30 4 1 3 5
M  V30 5 2 4 6
M  V30 6 1 5 7
M  V30 7 2 5 8
M  V30 8 1 7 9
M  V30 9 1 8 10
M  V30 10 1 6 8
M  V30 11 1 3 11
M  V30 12 1 4 12
M  V30 13 1 6 13
M  V30 14 1 9 14
M  V30 15 1 9 15
M  V30 16 1 9 16
M  V30 17 1 10 17
M  V30 END BOND
M  V30 END CTAB
M  END
>  <Structure No>
4857

>  <LogS>
-1.5013

>  <MMFF94 Energy>
13.236

$$$$
Compound 4858
Actelion Java MolfileCreator 2.0

  0  0  0  0  0  0              0 V3000
M  V30 BEGIN CTAB
M  V30 COUNTS 23 24 0 0 0
M  V30 BEGIN ATOM
M  V30 1 S 0.6805 1.9575 1.1911 0
M  V30 2 O -0.0154 2.7158 2.2854 0
M  V30 3 O 1.3778 2.9313 0.2828 0
M  V30 4 N 1.8594 0.8998 1.8898 0 CHG=-1
M  V30 5 C -0.5099 1.0202 0.2943 0
M  V30 6 C 2.6472 0.0129 1.097 0
M  V30 7 C -0.9366 -0.2212 0.7844 0
M  V30 8 C -1.0406 1.5099 -0.9071 0
M  V30 9 S 3.7855 -1.0529 1.7197 0
M  V30 10 N 2.5603 -0.0771 -0.247 0
M  V30 11 C -1.8787 -0.9719 0.0747 0
M  V30 12 C -1.9834 0.7596 -1.6167 0
M  V30 13 C 4.1423 -1.6157 0.1709 0
M  V30 14 N 3.3921 -0.9824 -0.7592 0
M  V30 15 C -2.4061 -0.4854 -1.1298 0
M  V30 16 N -3.3697 -1.2531 -1.856 0
M  V30 17 H -0.5393 -0.6084 1.7142 0
M  V30 18 H -0.7267 2.4705 -1.2952 0
M  V30 19 H -2.1978 -1.9309 0.4633 0
M  V30 20 H -2.3845 1.1481 -2.5445 0
M  V30 21 H 4.8697 -2.3799 -0.0658 0
M  V30 22 H -3.7686 -0.8988 -2.7539 0
M  V30 23 H -3.6909 -2.1814 -1.501 0
M  V30 END ATOM
M  V30 BEGIN BOND
M  V30 1 2 1 2
M  V30 2 2 1 3
M  V30 3 1 1 4
M  V30 4 1 1 5
M  V30 5 1 4 6
M  V30 6 2 5 7
M  V30 7 1 5 8
M  V30 8 1 6 9
M  V30 9 2 6 10
M  V30 10 1 7 11
M  V30 11 2 8 12
M  V30 12 1 9 13
M  V30 13 1 10 14
M  V30 14 2 11 15
M  V30 15 1 15 16
M  V30 16 1 12 15
M  V30 17 2 13 14
M  V30 18 1 7 17
M  V30 19 1 8 18
M  V30 20 1 11 19
M  V30 21 1 12 20
M  V30 22 1 13 21
M  V30 23 1 16 22
M  V30 24 1 16 23
M  V30 END BOND
M  V30 END CTAB
M  END
>  <Structure No>
4858

>  <LogS>
-2.8684

>  <MMFF94 Energy>
47.901

$$$$
Compound 4859
Actelion Java MolfileCreator 2.0

  0  0  0  0  0  0              0 V3000
M  V30 BEGIN CTAB
M  V30 COUNTS 27 27 0 0 0
M  V30 BEGIN ATOM
M  V30 1 O -3.2661 -1.8312 -2.1499 0
M  V30 2 C -2.8032 -1.0472 -1.2809 0
M  V30 3 O -1.4972 -0.613 -1.2871 0
M  V30 4 C -3.585 -0.51 -0.152 0
M  V30 5 C -1.2197 0.2239 -0.174 0 CFG=1
M  V30 6 C -2.6082 0.4858 0.4855 0
M  V30 7 C -0.2878 -0.5204 0.8119 0
M  V30 8 C -0.586 1.5368 -0.6657 0
M  V30 9 C 0.9947 -0.957 0.1698 0
M  V30 10 O 1.0334 -2.0345 -0.4849 0
M  V30 11 O 2.1281 -0.146 0.2763 0
M  V30 12 C 3.3677 -0.4752 -0.341 0
M  V30 13 C 4.3871 0.6135 -0.0472 0
M  V30 14 H -3.8359 -1.3286 0.556 0
M  V30 15 H -4.5065 -0.0043 -0.5128 0
M  V30 16 H -2.5863 0.3573 1.5905 0
M  V30 17 H -2.9664 1.5188 0.2783 0
M  V30 18 H -0.8073 -1.4206 1.2085 0
M  V30 19 H -0.0549 0.1359 1.6788 0
M  V30 20 H -1.276 2.06 -1.3622 0
M  V30 21 H -0.3682 2.2075 0.1928 0
M  V30 22 H 0.3573 1.3365 -1.2156 0
M  V30 23 H 3.7395 -1.4444 0.0564 0
M  V30 24 H 3.2283 -0.56 -1.4406 0
M  V30 25 H 4.5413 0.7032 1.049 0
M  V30 26 H 5.3552 0.3607 -0.5286 0
M  V30 27 H 4.0285 1.5862 -0.4461 0
M  V30 END ATOM
M  V30 BEGIN BOND
M  V30 1 2 1 2
M  V30 2 1 2 3
M  V30 3 1 2 4
M  V30 4 1 3 5
M  V30 5 1 4 6
M  V30 6 1 5 7
M  V30 7 1 5 8
M  V30 8 1 7 9
M  V30 9 2 9 10
M  V30 10 1 9 11
M  V30 11 1 11 12
M  V30 12 1 12 13
M  V30 13 1 5 6
M  V30 14 1 4 14
M  V30 15 1 4 15
M  V30 16 1 6 16
M  V30 17 1 6 17
M  V30 18 1 7 18
M  V30 19 1 7 19
M  V30 20 1 8 20
M  V30 21 1 8 21
M  V30 22 1 8 22
M  V30 23 1 12 23
M  V30 24 1 12 24
M  V30 25 1 13 25
M  V30 26 1 13 26
M  V30 27 1 13 27
M  V30 END BOND
M  V30 BEGIN COLLECTION
M  V30 MDLV30/STEABS ATOMS=(1 5)
M  V30 END COLLECTION
M  V30 END CTAB
M  END
>  <Structure No>
4859

>  <LogS>
-0.7472

>  <MMFF94 Energy>
-14.862

$$$$
Compound 4860
Actelion Java MolfileCreator 2.0

  0  0  0  0  0  0              0 V3000
M  V30 BEGIN CTAB
M  V30 COUNTS 28 28 0 0 0
M  V30 BEGIN ATOM
M  V30 1 O 0.4026 0.3221 -3.5475 0
M  V30 2 C 0.1979 0.8525 -2.4238 0
M  V30 3 O 0.3552 2.2264 -2.2795 0 CHG=-1
M  V30 4 C -0.1624 -0.0091 -1.2386 0 CFG=1
M  V30 5 C 1.1007 -0.3376 -0.4613 0
M  V30 6 C -1.256 0.6476 -0.345 0 CFG=1
M  V30 7 C 1.852 0.6745 0.1685 0
M  V30 8 C 1.5346 -1.6722 -0.3546 0
M  V30 9 C -2.4764 0.9791 -1.1702 0
M  V30 10 C -1.652 -0.2726 0.8352 0
M  V30 11 C 3.0073 0.3549 0.8878 0
M  V30 12 C 2.6908 -1.9857 0.3661 0
M  V30 13 O -2.8659 2.1723 -1.2724 0
M  V30 14 O -3.1798 -0.0283 -1.8203 0 CHG=-1
M  V30 15 C -2.6202 0.4048 1.8068 0
M  V30 16 C 3.4261 -0.9735 0.9869 0
M  V30 17 H -0.5949 -0.9542 -1.6405 0
M  V30 18 H -0.8501 1.5937 0.0784 0
M  V30 19 H 1.5458 1.7103 0.1044 0
M  V30 20 H 0.9776 -2.4721 -0.8259 0
M  V30 21 H -0.7475 -0.5548 1.4148 0
M  V30 22 H -2.1121 -1.2104 0.4532 0
M  V30 23 H 3.5782 1.1385 1.3691 0
M  V30 24 H 3.0163 -3.0149 0.4441 0
M  V30 25 H -2.1818 1.3499 2.1924 0
M  V30 26 H -2.8158 -0.2707 2.6661 0
M  V30 27 H -3.588 0.6242 1.3091 0
M  V30 28 H 4.3207 -1.2186 1.5446 0
M  V30 END ATOM
M  V30 BEGIN BOND
M  V30 1 2 1 2
M  V30 2 1 2 3
M  V30 3 1 2 4
M  V30 4 1 4 5
M  V30 5 1 4 6
M  V30 6 2 5 7
M  V30 7 1 5 8
M  V30 8 1 6 9
M  V30 9 1 6 10
M  V30 10 1 7 11
M  V30 11 2 8 12
M  V30 12 2 9 13
M  V30 13 1 9 14
M  V30 14 1 10 15
M  V30 15 2 11 16
M  V30 16 1 12 16
M  V30 17 1 4 17
M  V30 18 1 6 18
M  V30 19 1 7 19
M  V30 20 1 8 20
M  V30 21 1 10 21
M  V30 22 1 10 22
M  V30 23 1 11 23
M  V30 24 1 12 24
M  V30 25 1 15 25
M  V30 26 1 15 26
M  V30 27 1 15 27
M  V30 28 1 16 28
M  V30 END BOND
M  V30 BEGIN COLLECTION
M  V30 MDLV30/STEABS ATOMS=(2 4 6)
M  V30 END COLLECTION
M  V30 END CTAB
M  END
>  <Structure No>
4860

>  <LogS>
-2.3256

>  <MMFF94 Energy>
118.4

$$$$
Compound 4861
Actelion Java MolfileCreator 2.0

  0  0  0  0  0  0              0 V3000
M  V30 BEGIN CTAB
M  V30 COUNTS 27 28 0 0 0
M  V30 BEGIN ATOM
M  V30 1 Cl 1.8158 1.8158 1.5681 0
M  V30 2 C 2.5916 0.7522 0.3981 0
M  V30 3 C 1.8642 0.1398 -0.6447 0
M  V30 4 C 3.9766 0.5631 0.485 0
M  V30 5 C 0.4043 0.3061 -0.7705 0
M  V30 6 C 2.5462 -0.6277 -1.6018 0
M  V30 7 C 4.6433 -0.2205 -0.4615 0
M  V30 8 O -0.0554 0.8445 -1.8138 0
M  V30 9 N -0.4827 -0.1441 0.2733 0
M  V30 10 C 3.9281 -0.8112 -1.5068 0
M  V30 11 Cl 6.3785 -0.4503 -0.3456 0
M  V30 12 O 0.0374 -0.7356 1.3782 0
M  V30 13 C -1.906 0.0579 0.2109 0
M  V30 14 C -2.5946 0.512 1.3476 0
M  V30 15 C -2.6323 -0.2457 -0.9549 0
M  V30 16 C -3.981 0.6917 1.3095 0
M  V30 17 C -4.019 -0.0657 -0.9886 0
M  V30 18 C -4.6923 0.4063 0.1412 0
M  V30 19 H 4.5366 1.0346 1.283 0
M  V30 20 H 2.0048 -1.0953 -2.4155 0
M  V30 21 H 4.4415 -1.4129 -2.2459 0
M  V30 22 H 0.0512 -1.7044 1.1673 0
M  V30 23 H -2.0545 0.7376 2.2585 0
M  V30 24 H -2.1324 -0.6428 -1.8285 0
M  V30 25 H -4.5041 1.0509 2.1865 0
M  V30 26 H -4.5728 -0.3001 -1.8886 0
M  V30 27 H -5.7656 0.5438 0.1136 0
M  V30 END ATOM
M  V30 BEGIN BOND
M  V30 1 1 1 2
M  V30 2 2 2 3
M  V30 3 1 2 4
M  V30 4 1 3 5
M  V30 5 1 3 6
M  V30 6 2 4 7
M  V30 7 2 5 8
M  V30 8 1 5 9
M  V30 9 2 6 10
M  V30 10 1 7 11
M  V30 11 1 9 12
M  V30 12 1 9 13
M  V30 13 2 13 14
M  V30 14 1 13 15
M  V30 15 1 14 16
M  V30 16 2 15 17
M  V30 17 2 16 18
M  V30 18 1 7 10
M  V30 19 1 17 18
M  V30 20 1 4 19
M  V30 21 1 6 20
M  V30 22 1 10 21
M  V30 23 1 12 22
M  V30 24 1 14 23
M  V30 25 1 15 24
M  V30 26 1 16 25
M  V30 27 1 17 26
M  V30 28 1 18 27
M  V30 END BOND
M  V30 END CTAB
M  END
>  <Structure No>
4861

>  <LogS>
-3.6723

>  <MMFF94 Energy>
73.989

$$$$
Compound 4862
Actelion Java MolfileCreator 2.0

  0  0  0  0  0  0              0 V3000
M  V30 BEGIN CTAB
M  V30 COUNTS 18 19 0 0 0
M  V30 BEGIN ATOM
M  V30 1 S 2.9941 1.1636 0.9141 0
M  V30 2 C 1.3183 0.5575 0.7595 0
M  V30 3 C 3.6777 -0.1053 -0.1955 0
M  V30 4 N 0.5101 1.0418 -0.2217 0
M  V30 5 N 0.8547 -0.384 1.6263 0
M  V30 6 C -0.7638 0.5919 -0.3522 0
M  V30 7 C -0.414 -0.8623 1.5316 0
M  V30 8 N -1.5713 1.0734 -1.3327 0
M  V30 9 C -1.2571 -0.3808 0.5318 0
M  V30 10 C -2.8486 0.6254 -1.4677 0
M  V30 11 N -2.5331 -0.8283 0.3971 0
M  V30 12 C -3.339 -0.3442 -0.5857 0
M  V30 13 H 3.4852 -1.1173 0.2183 0
M  V30 14 H 3.2186 -0.0185 -1.2025 0
M  V30 15 H 4.7731 0.0438 -0.2855 0
M  V30 16 H -0.7604 -1.6116 2.2315 0
M  V30 17 H -3.4796 1.0184 -2.2534 0
M  V30 18 H -4.3529 -0.7086 -0.6825 0
M  V30 END ATOM
M  V30 BEGIN BOND
M  V30 1 1 1 2
M  V30 2 1 1 3
M  V30 3 2 2 4
M  V30 4 1 2 5
M  V30 5 1 4 6
M  V30 6 2 5 7
M  V30 7 2 6 8
M  V30 8 1 6 9
M  V30 9 1 8 10
M  V30 10 2 9 11
M  V30 11 2 10 12
M  V30 12 1 7 9
M  V30 13 1 11 12
M  V30 14 1 3 13
M  V30 15 1 3 14
M  V30 16 1 3 15
M  V30 17 1 7 16
M  V30 18 1 10 17
M  V30 19 1 12 18
M  V30 END BOND
M  V30 END CTAB
M  END
>  <Structure No>
4862

>  <LogS>
-1.7561

>  <MMFF94 Energy>
35.077

$$$$
Compound 4863
Actelion Java MolfileCreator 2.0

  0  0  0  0  0  0              0 V3000
M  V30 BEGIN CTAB
M  V30 COUNTS 22 22 0 0 0
M  V30 BEGIN ATOM
M  V30 1 S 3.1467 0.0849 -0.9347 0
M  V30 2 O 3.6578 1.4464 -1.3142 0
M  V30 3 O 3.4224 -0.8649 -2.0664 0
M  V30 4 N 3.9623 -0.4609 0.488 0
M  V30 5 C 1.4139 0.1623 -0.6302 0
M  V30 6 C 0.6059 -0.958 -0.8666 0
M  V30 7 C 0.8392 1.3348 -0.121 0
M  V30 8 C -0.7675 -0.9011 -0.6111 0
M  V30 9 C -0.5342 1.3916 0.1346 0
M  V30 10 C -1.3449 0.2762 -0.1166 0
M  V30 11 S -3.0717 0.3398 0.2199 0
M  V30 12 O -3.8121 -0.5289 -0.7583 0
M  V30 13 O -3.5666 1.7524 0.0808 0
M  V30 14 N -3.364 -0.217 1.83 0
M  V30 15 H 3.7105 0.2003 1.2565 0
M  V30 16 H 3.5489 -1.3866 0.7401 0
M  V30 17 H 1.0382 -1.8759 -1.2435 0
M  V30 18 H 1.4534 2.2027 0.0828 0
M  V30 19 H -1.3786 -1.7759 -0.7942 0
M  V30 20 H -0.9626 2.3028 0.5322 0
M  V30 21 H -3.0468 -1.2114 1.871 0
M  V30 22 H -4.3995 -0.2248 1.9675 0
M  V30 END ATOM
M  V30 BEGIN BOND
M  V30 1 2 1 2
M  V30 2 2 1 3
M  V30 3 1 1 4
M  V30 4 1 1 5
M  V30 5 2 5 6
M  V30 6 1 5 7
M  V30 7 1 6 8
M  V30 8 2 7 9
M  V30 9 2 8 10
M  V30 10 1 10 11
M  V30 11 2 11 12
M  V30 12 2 11 13
M  V30 13 1 11 14
M  V30 14 1 9 10
M  V30 15 1 4 15
M  V30 16 1 4 16
M  V30 17 1 6 17
M  V30 18 1 7 18
M  V30 19 1 8 19
M  V30 20 1 9 20
M  V30 21 1 14 21
M  V30 22 1 14 22
M  V30 END BOND
M  V30 END CTAB
M  END
>  <Structure No>
4863

>  <LogS>
-2.5283

>  <MMFF94 Energy>
-132.34

$$$$
Compound 4864
Actelion Java MolfileCreator 2.0

  0  0  0  0  0  0              0 V3000
M  V30 BEGIN CTAB
M  V30 COUNTS 37 37 0 0 0
M  V30 BEGIN ATOM
M  V30 1 O 1.2702 -3.4961 -2.6211 0
M  V30 2 C 0.963 -2.6027 -1.7881 0
M  V30 3 N 0.5923 -1.3047 -2.2392 0
M  V30 4 N 1.0068 -2.8836 -0.3931 0
M  V30 5 C 0.2548 -0.2695 -1.3125 0
M  V30 6 C 0.5991 -1.9113 0.5735 0
M  V30 7 O 0.125 0.9073 -1.7473 0
M  V30 8 C -0.0035 -0.5696 0.1631 0
M  V30 9 O 0.6629 -2.2134 1.7969 0
M  V30 10 C -1.542 -0.7052 0.3862 0
M  V30 11 C 0.5827 0.5698 1.0669 0
M  V30 12 C -2.3754 0.5551 0.0797 0
M  V30 13 C 2.12 0.5948 1.2425 0
M  V30 14 C -3.8618 0.3076 0.3656 0
M  V30 15 C 2.887 0.9246 -0.0448 0
M  V30 16 C -4.6973 1.5478 0.0605 0
M  V30 17 C 4.3646 1.1751 0.2434 0
M  V30 18 H 0.6307 -1.0874 -3.2606 0
M  V30 19 H 1.3387 -3.8202 -0.07 0
M  V30 20 H -1.7318 -0.9923 1.4452 0
M  V30 21 H -1.9242 -1.5384 -0.2463 0
M  V30 22 H 0.1466 0.4712 2.0858 0
M  V30 23 H 0.262 1.5672 0.6968 0
M  V30 24 H -2.0315 1.402 0.7096 0
M  V30 25 H -2.2656 0.8322 -0.9891 0
M  V30 26 H 2.3505 1.3764 1.9998 0
M  V30 27 H 2.4863 -0.3667 1.6584 0
M  V30 28 H -4.2291 -0.5352 -0.2596 0
M  V30 29 H -3.9988 0.0376 1.4355 0
M  V30 30 H 2.8167 0.0736 -0.7535 0
M  V30 31 H 2.4574 1.832 -0.5214 0
M  V30 32 H -4.3675 2.4003 0.6917 0
M  V30 33 H -4.5997 1.8248 -1.0107 0
M  V30 34 H -5.766 1.3385 0.277 0
M  V30 35 H 4.4841 2.0472 0.9211 0
M  V30 36 H 4.8973 1.3899 -0.7067 0
M  V30 37 H 4.823 0.2791 0.7135 0
M  V30 END ATOM
M  V30 BEGIN BOND
M  V30 1 2 1 2
M  V30 2 1 2 3
M  V30 3 1 2 4
M  V30 4 1 3 5
M  V30 5 1 4 6
M  V30 6 2 5 7
M  V30 7 1 5 8
M  V30 8 2 6 9
M  V30 9 1 8 10
M  V30 10 1 8 11
M  V30 11 1 10 12
M  V30 12 1 11 13
M  V30 13 1 12 14
M  V30 14 1 13 15
M  V30 15 1 14 16
M  V30 16 1 15 17
M  V30 17 1 6 8
M  V30 18 1 3 18
M  V30 19 1 4 19
M  V30 20 1 10 20
M  V30 21 1 10 21
M  V30 22 1 11 22
M  V30 23 1 11 23
M  V30 24 1 12 24
M  V30 25 1 12 25
M  V30 26 1 13 26
M  V30 27 1 13 27
M  V30 28 1 14 28
M  V30 29 1 14 29
M  V30 30 1 15 30
M  V30 31 1 15 31
M  V30 32 1 16 32
M  V30 33 1 16 33
M  V30 34 1 16 34
M  V30 35 1 17 35
M  V30 36 1 17 36
M  V30 37 1 17 37
M  V30 END BOND
M  V30 END CTAB
M  END
>  <Structure No>
4864

>  <LogS>
-2.8756

>  <MMFF94 Energy>
-129.1

$$$$
Compound 4865
Actelion Java MolfileCreator 2.0

  0  0  0  0  0  0              0 V3000
M  V30 BEGIN CTAB
M  V30 COUNTS 17 18 0 0 0
M  V30 BEGIN ATOM
M  V30 1 O -2.4068 -1.6843 0.0801 0
M  V30 2 C -1.5483 -0.5862 0.0151 0
M  V30 3 C -0.1508 -0.742 0.0693 0
M  V30 4 C -2.0956 0.6967 -0.1065 0
M  V30 5 N 0.4106 -1.9754 0.1873 0
M  V30 6 C 0.6876 0.3911 8.0E-4 0
M  V30 7 C -1.2636 1.8187 -0.1742 0
M  V30 8 N 1.734 -2.1388 0.2399 0
M  V30 9 C 2.0726 0.2101 0.0566 0
M  V30 10 C 0.125 1.6698 -0.1209 0
M  V30 11 C 2.584 -1.0806 0.178 0
M  V30 12 H -2.0646 -2.6335 0.1684 0
M  V30 13 H -3.17 0.8245 -0.1487 0
M  V30 14 H -1.6967 2.8063 -0.2682 0
M  V30 15 H 2.7496 1.0547 0.0071 0
M  V30 16 H 0.7561 2.5489 -0.1746 0
M  V30 17 H 3.6526 -1.2425 0.2229 0
M  V30 END ATOM
M  V30 BEGIN BOND
M  V30 1 1 1 2
M  V30 2 1 2 3
M  V30 3 2 2 4
M  V30 4 2 3 5
M  V30 5 1 3 6
M  V30 6 1 4 7
M  V30 7 1 5 8
M  V30 8 2 6 9
M  V30 9 1 6 10
M  V30 10 2 8 11
M  V30 11 2 7 10
M  V30 12 1 9 11
M  V30 13 1 1 12
M  V30 14 1 4 13
M  V30 15 1 7 14
M  V30 16 1 9 15
M  V30 17 1 10 16
M  V30 18 1 11 17
M  V30 END BOND
M  V30 END CTAB
M  END
>  <Structure No>
4865

>  <LogS>
-2.4089

>  <MMFF94 Energy>
58.221

$$$$
Compound 4866
Actelion Java MolfileCreator 2.0

  0  0  0  0  0  0              0 V3000
M  V30 BEGIN CTAB
M  V30 COUNTS 20 21 0 0 0
M  V30 BEGIN ATOM
M  V30 1 O 3.0409 1.5996 0.1598 0
M  V30 2 C 2.076 0.5961 0.0807 0
M  V30 3 C 0.7154 0.9343 0.0403 0
M  V30 4 C 2.459 -0.7502 0.0413 0
M  V30 5 N 0.3384 2.2387 0.0783 0
M  V30 6 C -0.2719 -0.0753 -0.0399 0
M  V30 7 C 1.4921 -1.7539 -0.0378 0
M  V30 8 N -0.9442 2.597 0.0418 0
M  V30 9 C -1.6307 0.3107 -0.0783 0
M  V30 10 C 0.1347 -1.4245 -0.0785 0
M  V30 11 C -1.9387 1.6772 -0.035 0
M  V30 12 C -2.7484 -0.696 -0.1637 0
M  V30 13 H 4.0302 1.3828 0.1905 0
M  V30 14 H 3.5068 -1.02 0.0722 0
M  V30 15 H 1.7957 -2.7923 -0.0678 0
M  V30 16 H -0.5848 -2.23 -0.1397 0
M  V30 17 H -2.9666 2.0153 -0.0622 0
M  V30 18 H -2.6443 -1.2956 -1.0922 0
M  V30 19 H -2.7164 -1.369 0.7187 0
M  V30 20 H -3.7441 -0.2036 -0.1834 0
M  V30 END ATOM
M  V30 BEGIN BOND
M  V30 1 1 1 2
M  V30 2 1 2 3
M  V30 3 2 2 4
M  V30 4 2 3 5
M  V30 5 1 3 6
M  V30 6 1 4 7
M  V30 7 1 5 8
M  V30 8 2 6 9
M  V30 9 1 6 10
M  V30 10 2 8 11
M  V30 11 1 9 12
M  V30 12 2 7 10
M  V30 13 1 9 11
M  V30 14 1 1 13
M  V30 15 1 4 14
M  V30 16 1 7 15
M  V30 17 1 10 16
M  V30 18 1 11 17
M  V30 19 1 12 18
M  V30 20 1 12 19
M  V30 21 1 12 20
M  V30 END BOND
M  V30 END CTAB
M  END
>  <Structure No>
4866

>  <LogS>
-2.6783

>  <MMFF94 Energy>
62.917

$$$$
Compound 4867
Actelion Java MolfileCreator 2.0

  0  0  0  0  0  0              0 V3000
M  V30 BEGIN CTAB
M  V30 COUNTS 17 18 0 0 0
M  V30 BEGIN ATOM
M  V30 1 O -1.6833 2.0844 0.8013 0
M  V30 2 C -1.3137 0.8299 0.3154 0
M  V30 3 C 0.0379 0.4652 0.1759 0
M  V30 4 C -2.3142 -0.0834 -0.0403 0
M  V30 5 N 1.0368 1.3261 0.5114 0
M  V30 6 C 0.3735 -0.8139 -0.3195 0
M  V30 7 C -1.977 -1.3498 -0.5308 0
M  V30 8 C 2.3437 0.9769 0.3779 0
M  V30 9 N 1.6826 -1.1564 -0.4504 0
M  V30 10 C -0.6352 -1.7163 -0.6709 0
M  V30 11 C 2.673 -0.289 -0.1124 0
M  V30 12 H -1.0 2.7813 1.0726 0
M  V30 13 H -3.3569 0.1893 0.0639 0
M  V30 14 H -2.7579 -2.0481 -0.8027 0
M  V30 15 H 3.1216 1.6774 0.6509 0
M  V30 16 H -0.3831 -2.6984 -1.0513 0
M  V30 17 H 3.7089 -0.5801 -0.2237 0
M  V30 END ATOM
M  V30 BEGIN BOND
M  V30 1 1 1 2
M  V30 2 1 2 3
M  V30 3 2 2 4
M  V30 4 2 3 5
M  V30 5 1 3 6
M  V30 6 1 4 7
M  V30 7 1 5 8
M  V30 8 2 6 9
M  V30 9 1 6 10
M  V30 10 2 8 11
M  V30 11 2 7 10
M  V30 12 1 9 11
M  V30 13 1 1 12
M  V30 14 1 4 13
M  V30 15 1 7 14
M  V30 16 1 8 15
M  V30 17 1 10 16
M  V30 18 1 11 17
M  V30 END BOND
M  V30 END CTAB
M  END
>  <Structure No>
4867

>  <LogS>
-1.3468

>  <MMFF94 Energy>
92.339

$$$$
Compound 4868
Actelion Java MolfileCreator 2.0

  0  0  0  0  0  0              0 V3000
M  V30 BEGIN CTAB
M  V30 COUNTS 17 18 0 0 0
M  V30 BEGIN ATOM
M  V30 1 O -2.4857 -1.6031 0.0801 0
M  V30 2 C -1.7338 -0.4291 0.13 0
M  V30 3 C -0.3368 -0.4396 -0.0172 0
M  V30 4 C -2.3845 0.7924 0.3319 0
M  V30 5 N 0.3352 -1.6073 -0.2153 0
M  V30 6 C 0.3783 0.7761 0.041 0
M  V30 7 N -1.6737 1.9509 0.3845 0
M  V30 8 C 1.6869 -1.6408 -0.3604 0
M  V30 9 C -0.3216 1.9714 0.2453 0
M  V30 10 C 1.7708 0.7572 -0.1066 0
M  V30 11 C 2.4285 -0.4577 -0.3085 0
M  V30 12 H -2.0603 -2.511 -0.0638 0
M  V30 13 H -3.4601 0.8211 0.4476 0
M  V30 14 H 2.1871 -2.5872 -0.5163 0
M  V30 15 H 0.2021 2.9179 0.2942 0
M  V30 16 H 2.3453 1.675 -0.0662 0
M  V30 17 H 3.5044 -0.4831 -0.4237 0
M  V30 END ATOM
M  V30 BEGIN BOND
M  V30 1 1 1 2
M  V30 2 1 2 3
M  V30 3 2 2 4
M  V30 4 2 3 5
M  V30 5 1 3 6
M  V30 6 1 4 7
M  V30 7 1 5 8
M  V30 8 1 6 9
M  V30 9 2 6 10
M  V30 10 2 8 11
M  V30 11 2 7 9
M  V30 12 1 10 11
M  V30 13 1 1 12
M  V30 14 1 4 13
M  V30 15 1 8 14
M  V30 16 1 9 15
M  V30 17 1 10 16
M  V30 18 1 11 17
M  V30 END BOND
M  V30 END CTAB
M  END
>  <Structure No>
4868

>  <LogS>
-1.6576

>  <MMFF94 Energy>
59.927

$$$$
Compound 4869
Actelion Java MolfileCreator 2.0

  0  0  0  0  0  0              0 V3000
M  V30 BEGIN CTAB
M  V30 COUNTS 27 26 0 0 0
M  V30 BEGIN ATOM
M  V30 1 O 4.5198 -1.1086 -1.4256 0
M  V30 2 C 4.1826 -0.3015 -0.5176 0
M  V30 3 N 2.9699 -0.5039 0.2177 0
M  V30 4 N 5.0176 0.8177 -0.2244 0
M  V30 5 C 2.0911 -1.6395 -0.0572 0
M  V30 6 C 0.8867 -1.6029 0.8341 0
M  V30 7 O 0.8448 -2.3421 1.8549 0
M  V30 8 N -0.1904 -0.7019 0.5483 0
M  V30 9 C -1.3728 -0.6301 1.4052 0
M  V30 10 C -2.3465 0.3783 0.8754 0
M  V30 11 O -2.4014 1.5245 1.3983 0
M  V30 12 N -3.1782 0.0519 -0.2467 0
M  V30 13 C -4.1027 1.0124 -0.8431 0
M  V30 14 C -3.3467 2.0454 -1.6156 0
M  V30 15 O -2.8214 1.7489 -2.7207 0
M  V30 16 O -3.1929 3.3268 -1.1017 0 CHG=-1
M  V30 17 H 2.7194 0.1835 0.9651 0
M  V30 18 H 5.9026 0.9697 -0.7573 0
M  V30 19 H 4.7542 1.4952 0.5247 0
M  V30 20 H 2.6492 -2.5873 0.1044 0
M  V30 21 H 1.7606 -1.6054 -1.1176 0
M  V30 22 H -0.1151 -0.0842 -0.2926 0
M  V30 23 H -1.864 -1.6261 1.4448 0
M  V30 24 H -1.0663 -0.3502 2.4366 0
M  V30 25 H -3.1278 -0.91 -0.6521 0
M  V30 26 H -4.7164 1.4921 -0.0504 0
M  V30 27 H -4.7935 0.4814 -1.5329 0
M  V30 END ATOM
M  V30 BEGIN BOND
M  V30 1 2 1 2
M  V30 2 1 2 3
M  V30 3 1 2 4
M  V30 4 1 3 5
M  V30 5 1 5 6
M  V30 6 2 6 7
M  V30 7 1 6 8
M  V30 8 1 8 9
M  V30 9 1 9 10
M  V30 10 2 10 11
M  V30 11 1 10 12
M  V30 12 1 12 13
M  V30 13 1 13 14
M  V30 14 2 14 15
M  V30 15 1 14 16
M  V30 16 1 3 17
M  V30 17 1 4 18
M  V30 18 1 4 19
M  V30 19 1 5 20
M  V30 20 1 5 21
M  V30 21 1 8 22
M  V30 22 1 9 23
M  V30 23 1 9 24
M  V30 24 1 12 25
M  V30 25 1 13 26
M  V30 26 1 13 27
M  V30 END BOND
M  V30 END CTAB
M  END
>  <Structure No>
4869

>  <LogS>
-1.3505

>  <MMFF94 Energy>
-68.241

$$$$
Compound 4870
Actelion Java MolfileCreator 2.0

  0  0  0  0  0  0              0 V3000
M  V30 BEGIN CTAB
M  V30 COUNTS 22 21 0 0 0
M  V30 BEGIN ATOM
M  V30 1 O 0.155 2.5607 0.5427 0
M  V30 2 C -0.212 2.0428 -0.5456 0
M  V30 3 O -0.1897 2.8064 -1.7058 0 CHG=-1
M  V30 4 C -0.6187 0.59 -0.6144 0 CFG=1
M  V30 5 N 0.4991 -0.2944 -1.0443 0 CHG=1
M  V30 6 C -1.3359 0.132 0.6837 0
M  V30 7 C 1.8308 -0.0484 -0.4484 0
M  V30 8 C -2.0016 -1.2401 0.561 0
M  V30 9 C 1.9239 -0.4426 1.026 0
M  V30 10 H -1.3993 0.5446 -1.4089 0
M  V30 11 H 0.2472 -1.3008 -0.9244 0
M  V30 12 H 0.612 -0.1605 -2.0771 0
M  V30 13 H -2.139 0.8673 0.913 0
M  V30 14 H -0.6577 0.1289 1.5561 0
M  V30 15 H 2.1507 1.0067 -0.5834 0
M  V30 16 H 2.5758 -0.6639 -1.0009 0
M  V30 17 H -2.6788 -1.3988 1.4269 0
M  V30 18 H -1.2447 -2.0507 0.5744 0
M  V30 19 H -2.6031 -1.3042 -0.3702 0
M  V30 20 H 2.9886 -0.6028 1.2979 0
M  V30 21 H 1.5427 0.375 1.6699 0
M  V30 22 H 1.3677 -1.3831 1.2237 0
M  V30 END ATOM
M  V30 BEGIN BOND
M  V30 1 2 1 2
M  V30 2 1 2 3
M  V30 3 1 2 4
M  V30 4 1 4 5
M  V30 5 1 4 6
M  V30 6 1 5 7
M  V30 7 1 6 8
M  V30 8 1 7 9
M  V30 9 1 4 10
M  V30 10 1 5 11
M  V30 11 1 5 12
M  V30 12 1 6 13
M  V30 13 1 6 14
M  V30 14 1 7 15
M  V30 15 1 7 16
M  V30 16 1 8 17
M  V30 17 1 8 18
M  V30 18 1 8 19
M  V30 19 1 9 20
M  V30 20 1 9 21
M  V30 21 1 9 22
M  V30 END BOND
M  V30 BEGIN COLLECTION
M  V30 MDLV30/STEABS ATOMS=(1 4)
M  V30 END COLLECTION
M  V30 END CTAB
M  END
>  <Structure No>
4870

>  <LogS>
-0.4189

>  <MMFF94 Energy>
-3.4761

$$$$
Compound 4871
Actelion Java MolfileCreator 2.0

  0  0  0  0  0  0              0 V3000
M  V30 BEGIN CTAB
M  V30 COUNTS 18 18 0 0 0
M  V30 BEGIN ATOM
M  V30 1 O -2.5567 1.5174 1.5174 0
M  V30 2 C -2.3389 1.0689 0.3612 0
M  V30 3 O -2.6117 1.8646 -0.7451 0 CHG=-1
M  V30 4 C -1.7354 -0.291 0.1841 0 CFG=1
M  V30 5 O -2.2817 -0.8995 -0.9569 0
M  V30 6 C -0.2343 -0.1679 0.0554 0
M  V30 7 C 0.5948 -0.4572 1.1534 0
M  V30 8 C 0.3494 0.2813 -1.1436 0
M  V30 9 C 1.9822 -0.3198 1.0461 0
M  V30 10 C 1.7373 0.417 -1.2458 0
M  V30 11 C 2.553 0.1149 -0.1526 0
M  V30 12 H -1.9961 -0.9064 1.0773 0
M  V30 13 H -2.0221 -1.8574 -0.9213 0
M  V30 14 H 0.1684 -0.7877 2.0924 0
M  V30 15 H -0.2697 0.5275 -1.9972 0
M  V30 16 H 2.615 -0.5478 1.8942 0
M  V30 17 H 2.18 0.7595 -2.1721 0
M  V30 18 H 3.627 0.2216 -0.233 0
M  V30 END ATOM
M  V30 BEGIN BOND
M  V30 1 2 1 2
M  V30 2 1 2 3
M  V30 3 1 2 4
M  V30 4 1 4 5
M  V30 5 1 4 6
M  V30 6 2 6 7
M  V30 7 1 6 8
M  V30 8 1 7 9
M  V30 9 2 8 10
M  V30 10 2 9 11
M  V30 11 1 10 11
M  V30 12 1 4 12
M  V30 13 1 5 13
M  V30 14 1 7 14
M  V30 15 1 8 15
M  V30 16 1 9 16
M  V30 17 1 10 17
M  V30 18 1 11 18
M  V30 END BOND
M  V30 BEGIN COLLECTION
M  V30 MDLV30/STEABS ATOMS=(1 4)
M  V30 END COLLECTION
M  V30 END CTAB
M  END
>  <Structure No>
4871

>  <LogS>
0.1592

>  <MMFF94 Energy>
97.524

$$$$
Compound 4872
Actelion Java MolfileCreator 2.0

  0  0  0  0  0  0              0 V3000
M  V30 BEGIN CTAB
M  V30 COUNTS 20 19 0 0 0
M  V30 BEGIN ATOM
M  V30 1 O -0.5528 -1.0268 -2.2917 0
M  V30 2 C -1.5069 -0.7685 -1.5093 0
M  V30 3 N -1.4296 -1.1334 -0.1249 0
M  V30 4 N -2.6693 -0.1098 -2.0098 0
M  V30 5 C -0.2592 -1.7929 0.4483 0
M  V30 6 C 0.8877 -0.8331 0.5282 0
M  V30 7 O 1.9097 -1.0228 -0.1853 0
M  V30 8 N 0.8122 0.3032 1.4002 0
M  V30 9 C 1.8644 1.3139 1.4633 0
M  V30 10 C 1.8437 2.1579 0.2294 0
M  V30 11 O 0.9303 3.008 0.0605 0
M  V30 12 O 2.8125 1.9842 -0.7505 0 CHG=-1
M  V30 13 H -2.2449 -0.9332 0.4972 0
M  V30 14 H -3.4681 0.1126 -1.3754 0
M  V30 15 H -2.7314 0.1582 -3.0171 0
M  V30 16 H -0.4992 -2.1469 1.4739 0
M  V30 17 H 0.0103 -2.6817 -0.1629 0
M  V30 18 H -0.0258 0.4159 2.0146 0
M  V30 19 H 1.6984 1.9657 2.3481 0
M  V30 20 H 2.8548 0.8244 1.5827 0
M  V30 END ATOM
M  V30 BEGIN BOND
M  V30 1 2 1 2
M  V30 2 1 2 3
M  V30 3 1 2 4
M  V30 4 1 3 5
M  V30 5 1 5 6
M  V30 6 2 6 7
M  V30 7 1 6 8
M  V30 8 1 8 9
M  V30 9 1 9 10
M  V30 10 2 10 11
M  V30 11 1 10 12
M  V30 12 1 3 13
M  V30 13 1 4 14
M  V30 14 1 4 15
M  V30 15 1 5 16
M  V30 16 1 5 17
M  V30 17 1 8 18
M  V30 18 1 9 19
M  V30 19 1 9 20
M  V30 END BOND
M  V30 END CTAB
M  END
>  <Structure No>
4872

>  <LogS>
-0.8996

>  <MMFF94 Energy>
-53.698

$$$$
Compound 4873
Actelion Java MolfileCreator 2.0

  0  0  0  0  0  0              0 V3000
M  V30 BEGIN CTAB
M  V30 COUNTS 24 23 0 0 0
M  V30 BEGIN ATOM
M  V30 1 O 0.3847 0.1538 -0.6925 0
M  V30 2 C -1.0 0.0518 -0.3638 0
M  V30 3 C 1.2826 -0.0427 0.3911 0
M  V30 4 C -1.3732 -1.3618 0.1423 0
M  V30 5 C -1.7676 0.2978 -1.6743 0
M  V30 6 C -1.4373 1.1369 0.6487 0
M  V30 7 C 2.1863 -1.2337 0.0712 0
M  V30 8 C 2.1234 1.2219 0.5689 0
M  V30 9 H 0.7932 -0.2525 1.3646 0
M  V30 10 H -0.9842 -2.1335 -0.5557 0
M  V30 11 H -0.9663 -1.5656 1.1532 0
M  V30 12 H -2.4771 -1.4733 0.2089 0
M  V30 13 H -1.4805 -0.4575 -2.4374 0
M  V30 14 H -2.8666 0.2377 -1.5163 0
M  V30 15 H -1.5257 1.3038 -2.0803 0
M  V30 16 H -1.0309 0.9509 1.6634 0
M  V30 17 H -1.0938 2.1376 0.3101 0
M  V30 18 H -2.5446 1.1592 0.7425 0
M  V30 19 H 2.9169 -1.3971 0.8922 0
M  V30 20 H 1.5732 -2.1527 -0.0383 0
M  V30 21 H 2.7382 -1.0602 -0.8774 0
M  V30 22 H 1.4646 2.0798 0.8196 0
M  V30 23 H 2.6736 1.4588 -0.3667 0
M  V30 24 H 2.8532 1.0887 1.396 0
M  V30 END ATOM
M  V30 BEGIN BOND
M  V30 1 1 1 2
M  V30 2 1 1 3
M  V30 3 1 2 4
M  V30 4 1 2 5
M  V30 5 1 2 6
M  V30 6 1 3 7
M  V30 7 1 3 8
M  V30 8 1 3 9
M  V30 9 1 4 10
M  V30 10 1 4 11
M  V30 11 1 4 12
M  V30 12 1 5 13
M  V30 13 1 5 14
M  V30 14 1 5 15
M  V30 15 1 6 16
M  V30 16 1 6 17
M  V30 17 1 6 18
M  V30 18 1 7 19
M  V30 19 1 7 20
M  V30 20 1 7 21
M  V30 21 1 8 22
M  V30 22 1 8 23
M  V30 23 1 8 24
M  V30 END BOND
M  V30 END CTAB
M  END
>  <Structure No>
4873

>  <LogS>
-2.3662

>  <MMFF94 Energy>
19.268

$$$$
Compound 4874
Actelion Java MolfileCreator 2.0

  0  0  0  0  0  0              0 V3000
M  V30 BEGIN CTAB
M  V30 COUNTS 27 27 0 0 0
M  V30 BEGIN ATOM
M  V30 1 O -1.7164 3.8446 -0.1633 0
M  V30 2 N -2.4776 2.8777 0.049 0 CHG=1
M  V30 3 O -3.8123 3.1316 0.2667 0 CHG=-1
M  V30 4 C -1.9706 1.5266 0.0074 0
M  V30 5 C -2.7327 0.4394 0.4939 0
M  V30 6 C -0.69 1.281 -0.5172 0
M  V30 7 O -3.9845 0.6703 1.0559 0 CHG=-1
M  V30 8 C -2.2197 -0.8785 0.4356 0
M  V30 9 C -0.1736 -0.0178 -0.5794 0
M  V30 10 N -2.9766 -2.0086 0.9206 0 CHG=1
M  V30 11 C -0.9372 -1.0874 -0.0976 0
M  V30 12 C 1.2156 -0.2547 -1.1198 0
M  V30 13 O -4.1843 -1.8998 1.2174 0
M  V30 14 O -2.3855 -3.2471 1.026 0 CHG=-1
M  V30 15 C 2.2981 0.0277 -0.0573 0 CFG=2
M  V30 16 N 3.6361 -0.0498 -0.6547 0 CHG=1
M  V30 17 C 2.1884 -0.9403 1.0927 0
M  V30 18 O 1.8527 -0.53 2.2349 0
M  V30 19 O 2.4371 -2.2935 0.8966 0 CHG=-1
M  V30 20 H -0.0889 2.103 -0.8864 0
M  V30 21 H -0.5261 -2.088 -0.1417 0
M  V30 22 H 1.3132 -1.2976 -1.495 0
M  V30 23 H 1.3772 0.4119 -1.9954 0
M  V30 24 H 2.15 1.0626 0.3293 0
M  V30 25 H 3.732 0.6746 -1.4033 0
M  V30 26 H 3.8015 -0.9955 -1.0711 0
M  V30 27 H 4.3623 0.137 0.0749 0
M  V30 END ATOM
M  V30 BEGIN BOND
M  V30 1 2 1 2
M  V30 2 1 2 3
M  V30 3 1 2 4
M  V30 4 2 4 5
M  V30 5 1 4 6
M  V30 6 1 5 7
M  V30 7 1 5 8
M  V30 8 2 6 9
M  V30 9 1 8 10
M  V30 10 2 8 11
M  V30 11 1 9 12
M  V30 12 2 10 13
M  V30 13 1 10 14
M  V30 14 1 12 15
M  V30 15 1 15 16
M  V30 16 1 15 17
M  V30 17 2 17 18
M  V30 18 1 17 19
M  V30 19 1 9 11
M  V30 20 1 6 20
M  V30 21 1 11 21
M  V30 22 1 12 22
M  V30 23 1 12 23
M  V30 24 1 15 24
M  V30 25 1 16 25
M  V30 26 1 16 26
M  V30 27 1 16 27
M  V30 END BOND
M  V30 BEGIN COLLECTION
M  V30 MDLV30/STEABS ATOMS=(1 15)
M  V30 END COLLECTION
M  V30 END CTAB
M  END
>  <Structure No>
4874

>  <LogS>
-1.5125

>  <MMFF94 Energy>
118.28

$$$$
Compound 4875
Actelion Java MolfileCreator 2.0

  0  0  0  0  0  0              0 V3000
M  V30 BEGIN CTAB
M  V30 COUNTS 29 29 0 0 0
M  V30 BEGIN ATOM
M  V30 1 O -6.526 0.3175 1.3502 0
M  V30 2 N -6.0515 -0.2851 0.3652 0 CHG=1
M  V30 3 O -6.9004 -1.0083 -0.441 0 CHG=-1
M  V30 4 C -4.6421 -0.2279 0.0784 0
M  V30 5 C -3.7719 0.5139 0.8973 0
M  V30 6 C -4.1144 -0.9073 -1.0324 0
M  V30 7 C -2.4036 0.5665 0.6159 0
M  V30 8 C -2.7462 -0.8528 -1.3132 0
M  V30 9 C -1.8761 -0.1331 -0.4826 0
M  V30 10 N -0.4767 -0.0759 -0.8086 0
M  V30 11 C 0.576 -6.0E-4 0.165 0
M  V30 12 O 0.3347 -0.2014 1.3864 0
M  V30 13 N 1.9157 0.2621 -0.2582 0
M  V30 14 N 2.955 0.314 0.6884 0
M  V30 15 C 4.203 0.5481 0.3999 0
M  V30 16 C 5.1936 0.5708 1.5244 0
M  V30 17 C 4.6598 0.7914 -1.0143 0
M  V30 18 H -4.1504 1.0614 1.7511 0
M  V30 19 H -4.7588 -1.4799 -1.6867 0
M  V30 20 H -1.7662 1.1754 1.2428 0
M  V30 21 H -2.3604 -1.382 -2.1755 0
M  V30 22 H -0.2013 -0.1823 -1.811 0
M  V30 23 H 2.0965 0.4172 -1.2747 0
M  V30 24 H 5.1935 -0.4129 2.039 0
M  V30 25 H 6.2226 0.7787 1.1639 0
M  V30 26 H 4.9103 1.3596 2.2527 0
M  V30 27 H 4.1464 1.685 -1.427 0
M  V30 28 H 4.4291 -0.0948 -1.6418 0
M  V30 29 H 5.7539 0.9712 -1.064 0
M  V30 END ATOM
M  V30 BEGIN BOND
M  V30 1 2 1 2
M  V30 2 1 2 3
M  V30 3 1 2 4
M  V30 4 2 4 5
M  V30 5 1 4 6
M  V30 6 1 5 7
M  V30 7 2 6 8
M  V30 8 2 7 9
M  V30 9 1 9 10
M  V30 10 1 10 11
M  V30 11 2 11 12
M  V30 12 1 11 13
M  V30 13 1 13 14
M  V30 14 2 14 15
M  V30 15 1 15 16
M  V30 16 1 15 17
M  V30 17 1 8 9
M  V30 18 1 5 18
M  V30 19 1 6 19
M  V30 20 1 7 20
M  V30 21 1 8 21
M  V30 22 1 10 22
M  V30 23 1 13 23
M  V30 24 1 16 24
M  V30 25 1 16 25
M  V30 26 1 16 26
M  V30 27 1 17 27
M  V30 28 1 17 28
M  V30 29 1 17 29
M  V30 END BOND
M  V30 END CTAB
M  END
>  <Structure No>
4875

>  <LogS>
-3.5952

>  <MMFF94 Energy>
37.928

$$$$
Compound 4876
Actelion Java MolfileCreator 2.0

  0  0  0  0  0  0              0 V3000
M  V30 BEGIN CTAB
M  V30 COUNTS 22 22 0 0 0
M  V30 BEGIN ATOM
M  V30 1 O -0.4143 -1.575 2.9028 0
M  V30 2 C 0.4397 -1.7042 1.9865 0
M  V30 3 O 1.3406 -2.7608 2.059 0 CHG=-1
M  V30 4 C 0.5068 -0.7385 0.8592 0
M  V30 5 C -0.5277 0.1948 0.6112 0
M  V30 6 C 1.6327 -0.752 0.0199 0
M  V30 7 O -1.6875 0.1737 1.3908 0
M  V30 8 C -0.3981 1.1379 -0.4359 0
M  V30 9 C 1.756 0.1557 -1.0418 0
M  V30 10 C -2.8087 -0.6208 1.0225 0
M  V30 11 C -1.431 2.1751 -0.6911 0
M  V30 12 C 0.7408 1.0977 -1.257 0
M  V30 13 C 2.9489 0.1313 -1.9195 0
M  V30 14 O -2.3365 2.4116 0.1516 0
M  V30 15 O -1.4004 2.9215 -1.8637 0 CHG=-1
M  V30 16 O 3.8681 -0.7091 -1.7292 0
M  V30 17 O 3.0717 1.0358 -2.9682 0 CHG=-1
M  V30 18 H 2.4254 -1.468 0.1996 0
M  V30 19 H -2.5213 -1.6927 0.985 0
M  V30 20 H -3.1897 -0.3061 0.028 0
M  V30 21 H -3.6125 -0.4886 1.7753 0
M  V30 22 H 0.8431 1.8122 -2.0643 0
M  V30 END ATOM
M  V30 BEGIN BOND
M  V30 1 2 1 2
M  V30 2 1 2 3
M  V30 3 1 2 4
M  V30 4 2 4 5
M  V30 5 1 4 6
M  V30 6 1 5 7
M  V30 7 1 5 8
M  V30 8 2 6 9
M  V30 9 1 7 10
M  V30 10 1 8 11
M  V30 11 2 8 12
M  V30 12 1 9 13
M  V30 13 2 11 14
M  V30 14 1 11 15
M  V30 15 2 13 16
M  V30 16 1 13 17
M  V30 17 1 9 12
M  V30 18 1 6 18
M  V30 19 1 10 19
M  V30 20 1 10 20
M  V30 21 1 10 21
M  V30 22 1 12 22
M  V30 END BOND
M  V30 END CTAB
M  END
>  <Structure No>
4876

>  <LogS>
-1.5354

>  <MMFF94 Energy>
237.86

$$$$
Compound 4877
Actelion Java MolfileCreator 2.0

  0  0  0  0  0  0              0 V3000
M  V30 BEGIN CTAB
M  V30 COUNTS 22 23 0 0 0
M  V30 BEGIN ATOM
M  V30 1 O -0.2403 3.0476 -1.2021 0
M  V30 2 C -0.232 2.0362 -0.453 0
M  V30 3 O -1.2308 1.7325 0.4636 0
M  V30 4 C 0.7906 1.0231 -0.4087 0
M  V30 5 C -0.9129 0.5159 1.1541 0 CFG=2
M  V30 6 C 0.4029 0.1078 0.5413 0
M  V30 7 C 1.9784 0.8914 -1.1253 0
M  V30 8 C -2.02 -0.5346 0.9629 0
M  V30 9 C 1.2043 -0.997 0.8373 0
M  V30 10 C 2.7935 -0.2189 -0.8487 0
M  V30 11 C -2.324 -0.8366 -0.5063 0
M  V30 12 C 2.4086 -1.1591 0.1297 0
M  V30 13 H -0.7714 0.7283 2.2357 0
M  V30 14 H 2.2662 1.6219 -1.87 0
M  V30 15 H -1.7264 -1.4767 1.4745 0
M  V30 16 H -2.9483 -0.1643 1.4488 0
M  V30 17 H 0.9058 -1.7128 1.5919 0
M  V30 18 H 3.7229 -0.3515 -1.3871 0
M  V30 19 H -3.1422 -1.5847 -0.5671 0
M  V30 20 H -1.4296 -1.2551 -1.0137 0
M  V30 21 H -2.6504 0.0838 -1.0346 0
M  V30 22 H 3.0445 -2.0093 0.3388 0
M  V30 END ATOM
M  V30 BEGIN BOND
M  V30 1 2 1 2
M  V30 2 1 2 3
M  V30 3 1 2 4
M  V30 4 1 3 5
M  V30 5 2 4 6
M  V30 6 1 4 7
M  V30 7 1 5 8
M  V30 8 1 6 9
M  V30 9 2 7 10
M  V30 10 1 8 11
M  V30 11 2 9 12
M  V30 12 1 5 6
M  V30 13 1 10 12
M  V30 14 1 5 13
M  V30 15 1 7 14
M  V30 16 1 8 15
M  V30 17 1 8 16
M  V30 18 1 9 17
M  V30 19 1 10 18
M  V30 20 1 11 19
M  V30 21 1 11 20
M  V30 22 1 11 21
M  V30 23 1 12 22
M  V30 END BOND
M  V30 BEGIN COLLECTION
M  V30 MDLV30/STEABS ATOMS=(1 5)
M  V30 END COLLECTION
M  V30 END CTAB
M  END
>  <Structure No>
4877

>  <LogS>
-1.747

>  <MMFF94 Energy>
29.812

$$$$
Compound 4878
Actelion Java MolfileCreator 2.0

  0  0  0  0  0  0              0 V3000
M  V30 BEGIN CTAB
M  V30 COUNTS 40 42 0 0 0
M  V30 BEGIN ATOM
M  V30 1 Cl 5.5467 -0.9917 -0.8264 0
M  V30 2 C 3.9211 -0.491 -0.3721 0
M  V30 3 C 3.6692 0.7239 0.2998 0
M  V30 4 C 2.8577 -1.338 -0.7035 0
M  V30 5 S 4.9794 1.8327 0.7321 0
M  V30 6 C 2.3457 1.0747 0.6106 0
M  V30 7 C 1.5419 -0.9922 -0.3734 0
M  V30 8 O 6.1008 1.0728 1.3831 0
M  V30 9 O 4.4806 2.8652 1.7044 0
M  V30 10 N 5.5617 2.6349 -0.6848 0
M  V30 11 C 1.2822 0.2213 0.2767 0
M  V30 12 N 0.4576 -1.87 -0.7099 0
M  V30 13 C -0.1192 0.5848 0.5548 0
M  V30 14 C -0.8572 -1.7462 -0.0752 0 CFG=2
M  V30 15 O -0.3984 1.7082 1.0576 0
M  V30 16 N -1.17 -0.3374 0.2133 0
M  V30 17 C -0.8833 -2.5662 1.2148 0
M  V30 18 C -2.5438 0.073 0.3078 0
M  V30 19 C -3.2928 0.3673 -0.853 0
M  V30 20 C -3.1443 0.1866 1.5708 0
M  V30 21 C -4.6443 0.7303 -0.7255 0
M  V30 22 C -2.6815 0.2543 -2.2227 0
M  V30 23 C -4.4836 0.5654 1.684 0
M  V30 24 C -5.2337 0.8325 0.5374 0
M  V30 25 H 3.0562 -2.2715 -1.2155 0
M  V30 26 H 2.142 2.0156 1.1058 0
M  V30 27 H 5.9182 1.8996 -1.3346 0
M  V30 28 H 4.7342 3.072 -1.1492 0
M  V30 29 H 0.6518 -2.7293 -1.2726 0
M  V30 30 H -1.6208 -2.163 -0.7683 0
M  V30 31 H -1.8968 -2.5341 1.6675 0
M  V30 32 H -0.6302 -3.6252 0.9961 0
M  V30 33 H -0.1488 -2.1633 1.9444 0
M  V30 34 H -2.5725 -0.0272 2.465 0
M  V30 35 H -5.2423 0.9391 -1.6041 0
M  V30 36 H -3.2336 0.8789 -2.9569 0
M  V30 37 H -2.7145 -0.8027 -2.5583 0
M  V30 38 H -1.6271 0.6026 -2.2121 0
M  V30 39 H -4.9419 0.6467 2.6612 0
M  V30 40 H -6.2737 1.1189 0.6271 0
M  V30 END ATOM
M  V30 BEGIN BOND
M  V30 1 1 1 2
M  V30 2 2 2 3
M  V30 3 1 2 4
M  V30 4 1 3 5
M  V30 5 1 3 6
M  V30 6 2 4 7
M  V30 7 2 5 8
M  V30 8 2 5 9
M  V30 9 1 5 10
M  V30 10 2 6 11
M  V30 11 1 7 12
M  V30 12 1 11 13
M  V30 13 1 12 14
M  V30 14 2 13 15
M  V30 15 1 13 16
M  V30 16 1 14 17
M  V30 17 1 16 18
M  V30 18 2 18 19
M  V30 19 1 18 20
M  V30 20 1 19 21
M  V30 21 1 19 22
M  V30 22 2 20 23
M  V30 23 2 21 24
M  V30 24 1 7 11
M  V30 25 1 14 16
M  V30 26 1 23 24
M  V30 27 1 4 25
M  V30 28 1 6 26
M  V30 29 1 10 27
M  V30 30 1 10 28
M  V30 31 1 12 29
M  V30 32 1 14 30
M  V30 33 1 17 31
M  V30 34 1 17 32
M  V30 35 1 17 33
M  V30 36 1 20 34
M  V30 37 1 21 35
M  V30 38 1 22 36
M  V30 39 1 22 37
M  V30 40 1 22 38
M  V30 41 1 23 39
M  V30 42 1 24 40
M  V30 END BOND
M  V30 BEGIN COLLECTION
M  V30 MDLV30/STEABS ATOMS=(1 14)
M  V30 END COLLECTION
M  V30 END CTAB
M  END
>  <Structure No>
4878

>  <LogS>
-3.783

>  <MMFF94 Energy>
-75.36

$$$$
Compound 4879
Actelion Java MolfileCreator 2.0

  0  0  0  0  0  0              0 V3000
M  V30 BEGIN CTAB
M  V30 COUNTS 17 17 0 0 0
M  V30 BEGIN ATOM
M  V30 1 N 1.9635 0.7065 -0.5494 0
M  V30 2 N 0.8477 1.417 -0.7138 0
M  V30 3 C 1.9193 -0.5458 -0.0283 0
M  V30 4 C -0.3681 0.9174 -0.368 0
M  V30 5 N 0.7244 -1.0802 0.3292 0
M  V30 6 N 3.1201 -1.2949 0.1421 0
M  V30 7 C -0.4293 -0.38 0.1736 0
M  V30 8 C -1.593 1.7579 -0.5733 0
M  V30 9 C -1.7272 -1.0104 0.5827 0
M  V30 10 H 4.0411 -0.8867 -0.1318 0
M  V30 11 H 3.0892 -2.2586 0.5427 0
M  V30 12 H -2.2911 1.2464 -1.2683 0
M  V30 13 H -2.0993 1.9332 0.3988 0
M  V30 14 H -1.321 2.7422 -1.0101 0
M  V30 15 H -2.4038 -1.0874 -0.2938 0
M  V30 16 H -2.2119 -0.4005 1.3734 0
M  V30 17 H -1.5547 -2.0317 0.9837 0
M  V30 END ATOM
M  V30 BEGIN BOND
M  V30 1 2 1 2
M  V30 2 1 1 3
M  V30 3 1 2 4
M  V30 4 2 3 5
M  V30 5 1 3 6
M  V30 6 2 4 7
M  V30 7 1 4 8
M  V30 8 1 7 9
M  V30 9 1 5 7
M  V30 10 1 6 10
M  V30 11 1 6 11
M  V30 12 1 8 12
M  V30 13 1 8 13
M  V30 14 1 8 14
M  V30 15 1 9 15
M  V30 16 1 9 16
M  V30 17 1 9 17
M  V30 END BOND
M  V30 END CTAB
M  END
>  <Structure No>
4879

>  <LogS>
-1.0939

>  <MMFF94 Energy>
-21.985

$$$$
Compound 4880
Actelion Java MolfileCreator 2.0

  0  0  0  0  0  0              0 V3000
M  V30 BEGIN CTAB
M  V30 COUNTS 48 49 0 0 0
M  V30 BEGIN ATOM
M  V30 1 S -1.9335 2.5226 -0.9244 0
M  V30 2 S -0.2666 1.6553 0.0098 0
M  V30 3 O -2.0521 3.9557 -0.4897 0
M  V30 4 O -1.737 2.4791 -2.4141 0
M  V30 5 C -3.3977 1.6591 -0.4645 0
M  V30 6 C -0.4042 0.0642 -0.8818 0
M  V30 7 C -4.3664 1.3351 -1.4262 0
M  V30 8 C -3.5956 1.2824 0.8717 0
M  V30 9 C 0.4889 -1.0333 -0.2384 0
M  V30 10 C -5.5197 0.6374 -1.0528 0
M  V30 11 C -4.7486 0.583 1.2416 0
M  V30 12 N 0.5762 -2.2495 -1.1159 0 CHG=1
M  V30 13 C -0.0837 -1.3709 1.1762 0
M  V30 14 C -5.7107 0.2613 0.2802 0
M  V30 15 C 1.1626 -1.9364 -2.4402 0
M  V30 16 C 1.3807 -3.3251 -0.4971 0
M  V30 17 S 1.2052 -1.8743 2.3843 0
M  V30 18 S 1.851 0.0503 2.9457 0
M  V30 19 O 0.6639 0.9558 3.1216 0
M  V30 20 O 2.5676 -0.0533 4.2619 0
M  V30 21 C 2.9648 0.7098 1.752 0
M  V30 22 C 2.9006 2.0632 1.389 0
M  V30 23 C 3.9318 -0.1189 1.1642 0
M  V30 24 C 3.7772 2.5747 0.4271 0
M  V30 25 C 4.8066 0.395 0.2023 0
M  V30 26 C 4.7284 1.7407 -0.1671 0
M  V30 27 H -0.0925 0.2889 -1.9178 0
M  V30 28 H -1.4578 -0.2865 -0.9009 0
M  V30 29 H -4.2311 1.6194 -2.4618 0
M  V30 30 H -2.8576 1.5273 1.6253 0
M  V30 31 H 1.503 -0.5991 -0.1217 0
M  V30 32 H -6.2642 0.3862 -1.7974 0
M  V30 33 H -4.896 0.2905 2.2731 0
M  V30 34 H -0.3889 -2.626 -1.2744 0
M  V30 35 H -0.6594 -0.5309 1.6124 0
M  V30 36 H -0.8185 -2.1987 1.0888 0
M  V30 37 H -6.6027 -0.2811 0.5668 0
M  V30 38 H 1.4549 -2.8574 -2.9912 0
M  V30 39 H 2.0633 -1.291 -2.3411 0
M  V30 40 H 0.4167 -1.4443 -3.0985 0
M  V30 41 H 2.3806 -2.948 -0.1873 0
M  V30 42 H 0.8538 -3.7637 0.375 0
M  V30 43 H 1.5255 -4.1765 -1.1979 0
M  V30 44 H 2.1702 2.7206 1.8428 0
M  V30 45 H 4.0005 -1.1628 1.4407 0
M  V30 46 H 3.7195 3.6176 0.1433 0
M  V30 47 H 5.544 -0.2493 -0.2576 0
M  V30 48 H 5.4052 2.1374 -0.9127 0
M  V30 END ATOM
M  V30 BEGIN BOND
M  V30 1 1 1 2
M  V30 2 2 1 3
M  V30 3 2 1 4
M  V30 4 1 1 5
M  V30 5 1 2 6
M  V30 6 2 5 7
M  V30 7 1 5 8
M  V30 8 1 6 9
M  V30 9 1 7 10
M  V30 10 2 8 11
M  V30 11 1 9 12
M  V30 12 1 9 13
M  V30 13 2 10 14
M  V30 14 1 12 15
M  V30 15 1 12 16
M  V30 16 1 13 17
M  V30 17 1 17 18
M  V30 18 2 18 19
M  V30 19 2 18 20
M  V30 20 1 18 21
M  V30 21 2 21 22
M  V30 22 1 21 23
M  V30 23 1 22 24
M  V30 24 2 23 25
M  V30 25 2 24 26
M  V30 26 1 11 14
M  V30 27 1 25 26
M  V30 28 1 6 27
M  V30 29 1 6 28
M  V30 30 1 7 29
M  V30 31 1 8 30
M  V30 32 1 9 31
M  V30 33 1 10 32
M  V30 34 1 11 33
M  V30 35 1 12 34
M  V30 36 1 13 35
M  V30 37 1 13 36
M  V30 38 1 14 37
M  V30 39 1 15 38
M  V30 40 1 15 39
M  V30 41 1 15 40
M  V30 42 1 16 41
M  V30 43 1 16 42
M  V30 44 1 16 43
M  V30 45 1 22 44
M  V30 46 1 23 45
M  V30 47 1 24 46
M  V30 48 1 25 47
M  V30 49 1 26 48
M  V30 END BOND
M  V30 END CTAB
M  END
>  <Structure No>
4880

>  <LogS>
-5.76

>  <MMFF94 Energy>
63.827

$$$$
Compound 4881
Actelion Java MolfileCreator 2.0

  0  0  0  0  0  0              0 V3000
M  V30 BEGIN CTAB
M  V30 COUNTS 16 15 0 0 0
M  V30 BEGIN ATOM
M  V30 1 N -0.3909 2.5825 1.4862 0
M  V30 2 C -0.1242 1.5415 1.0568 0
M  V30 3 C 0.215 0.2156 0.5104 0 CFG=2
M  V30 4 C 1.7306 0.1569 0.2448 0
M  V30 5 C -0.598 -0.0557 -0.7749 0
M  V30 6 C 2.1725 -1.2114 -0.0569 0
M  V30 7 C -2.0965 -0.1894 -0.4987 0
M  V30 8 N 2.5205 -2.289 -0.2947 0
M  V30 9 H -0.044 -0.5453 1.28 0
M  V30 10 H 2.0023 0.8214 -0.6037 0
M  V30 11 H 2.2869 0.4989 1.1447 0
M  V30 12 H -0.2565 -1.0046 -1.2415 0
M  V30 13 H -0.4328 0.7606 -1.5125 0
M  V30 14 H -2.5089 0.7619 -0.1015 0
M  V30 15 H -2.627 -0.4332 -1.4431 0
M  V30 16 H -2.283 -1.0045 0.2324 0
M  V30 END ATOM
M  V30 BEGIN BOND
M  V30 1 3 1 2
M  V30 2 1 2 3
M  V30 3 1 3 4
M  V30 4 1 3 5
M  V30 5 1 4 6
M  V30 6 1 5 7
M  V30 7 3 6 8
M  V30 8 1 3 9
M  V30 9 1 4 10
M  V30 10 1 4 11
M  V30 11 1 5 12
M  V30 12 1 5 13
M  V30 13 1 7 14
M  V30 14 1 7 15
M  V30 15 1 7 16
M  V30 END BOND
M  V30 BEGIN COLLECTION
M  V30 MDLV30/STEABS ATOMS=(1 3)
M  V30 END COLLECTION
M  V30 END CTAB
M  END
>  <Structure No>
4881

>  <LogS>
-0.6916

>  <MMFF94 Energy>
-11.795

$$$$
Compound 4882
Actelion Java MolfileCreator 2.0

  0  0  0  0  0  0              0 V3000
M  V30 BEGIN CTAB
M  V30 COUNTS 88 91 0 0 0
M  V30 BEGIN ATOM
M  V30 1 O 0.2389 -3.7491 -0.5577 0
M  V30 2 C 0.609 -2.5645 -0.3417 0
M  V30 3 N 1.9305 -2.3188 -0.1478 0
M  V30 4 N -0.2995 -1.5345 -0.3011 0
M  V30 5 C 2.3974 -1.07 0.1088 0
M  V30 6 C 0.1372 -0.2682 -0.0267 0
M  V30 7 C -1.7412 -1.7669 -0.5193 0 CFG=2
M  V30 8 N 3.8023 -0.8278 0.3027 0
M  V30 9 C 1.4912 -0.0125 0.1861 0
M  V30 10 O -2.2321 -0.8317 -1.4829 0
M  V30 11 C -2.4861 -1.7972 0.8374 0
M  V30 12 C 4.8283 -1.8262 0.145 0
M  V30 13 C -3.3051 -0.0259 -1.0223 0 CFG=2
M  V30 14 C -4.0043 -1.8433 0.6193 0
M  V30 15 O 4.516 -3.0334 -0.043 0
M  V30 16 C 6.2626 -1.4566 0.208 0
M  V30 17 C -4.476 -0.9019 -0.5158 0 CFG=1
M  V30 18 C -3.7381 0.8876 -2.1706 0
M  V30 19 C 6.7035 -0.1784 -0.1825 0
M  V30 20 C 7.2118 -2.4025 0.6319 0
M  V30 21 O -5.5099 -0.059 -0.0163 0
M  V30 22 C 8.0613 0.1546 -0.1218 0
M  V30 23 C 8.5683 -2.066 0.6993 0
M  V30 24 C -6.6642 -0.0443 -0.8471 0 CFG=2
M  V30 25 C 9.0014 -0.7815 0.3434 0
M  V30 26 O -7.1475 1.2921 -0.9536 0
M  V30 27 C -7.7195 -1.0865 -0.3707 0 CFG=1
M  V30 28 N 10.404 -0.4667 0.4011 0
M  V30 29 C -8.0089 1.7052 0.0954 0 CFG=1
M  V30 30 O -7.4901 -1.4363 0.9729 0
M  V30 31 C -9.1496 -0.5395 -0.5362 0 CFG=1
M  V30 32 C 10.9092 0.8162 0.8275 0
M  V30 33 C -9.2852 0.8047 0.2378 0 CFG=2
M  V30 34 C -7.2477 1.895 1.42 0
M  V30 35 O -9.4925 -0.4555 -1.8963 0
M  V30 36 O 10.1149 1.6548 1.3383 0
M  V30 37 C 12.3742 1.2062 0.6268 0 CFG=1
M  V30 38 N -10.5574 1.5597 4.0E-4 0 CHG=1
M  V30 39 N 13.2549 0.0241 0.7204 0 CHG=1
M  V30 40 C 12.5066 1.8583 -0.77 0
M  V30 41 C 12.7905 2.2216 1.7191 0
M  V30 42 C -10.7542 2.0493 -1.3819 0
M  V30 43 C -11.7407 0.7931 0.4339 0
M  V30 44 O 13.8421 2.1833 -1.06 0
M  V30 45 H -0.56 0.5585 0.0292 0
M  V30 46 H -1.9027 -2.7678 -0.976 0
M  V30 47 H 4.0878 0.1447 0.5693 0
M  V30 48 H 1.8257 0.9942 0.4039 0
M  V30 49 H -2.2302 -0.8909 1.4319 0
M  V30 50 H -2.1603 -2.6857 1.4252 0
M  V30 51 H -2.9574 0.6383 -0.2022 0
M  V30 52 H -4.5015 -1.5811 1.5799 0
M  V30 53 H -4.3018 -2.8881 0.3741 0
M  V30 54 H -4.796 -1.5646 -1.3555 0
M  V30 55 H -4.5 1.6195 -1.8247 0
M  V30 56 H -4.1503 0.2887 -3.0121 0
M  V30 57 H -2.8568 1.4582 -2.541 0
M  V30 58 H 6.0081 0.5567 -0.5659 0
M  V30 59 H 6.904 -3.3977 0.9277 0
M  V30 60 H 8.3777 1.1332 -0.4635 0
M  V30 61 H 9.2817 -2.8043 1.043 0
M  V30 62 H -6.4216 -0.3126 -1.8995 0
M  V30 63 H -7.612 -2.0061 -0.9951 0
M  V30 64 H 11.0713 -1.2514 0.2288 0
M  V30 65 H -8.3339 2.7343 -0.1739 0
M  V30 66 H -8.0855 -2.203 1.1799 0
M  V30 67 H -9.8479 -1.2711 -0.0762 0
M  V30 68 H -9.3072 0.4969 1.3094 0
M  V30 69 H -7.9131 2.3893 2.1644 0
M  V30 70 H -6.3571 2.5403 1.2518 0
M  V30 71 H -6.9191 0.9228 1.8419 0
M  V30 72 H -8.8635 0.1649 -2.3488 0
M  V30 73 H -10.5232 2.404 0.6215 0
M  V30 74 H 13.0348 -0.5303 1.5804 0
M  V30 75 H 14.259 0.3169 0.7636 0
M  V30 76 H 13.1547 -0.5878 -0.1208 0
M  V30 77 H 12.1492 1.1465 -1.5457 0
M  V30 78 H 11.8571 2.763 -0.8388 0
M  V30 79 H 12.624 1.7888 2.73 0
M  V30 80 H 13.8688 2.4793 1.6317 0
M  V30 81 H 12.2046 3.1635 1.6309 0
M  V30 82 H -11.4765 2.8943 -1.3793 0
M  V30 83 H -11.1852 1.2655 -2.0417 0
M  V30 84 H -9.8098 2.4208 -1.8308 0
M  V30 85 H -11.628 0.4518 1.486 0
M  V30 86 H -12.6517 1.4287 0.3872 0
M  V30 87 H -11.9081 -0.0949 -0.213 0
M  V30 88 H 13.9874 3.1187 -0.7543 0
M  V30 END ATOM
M  V30 BEGIN BOND
M  V30 1 2 1 2
M  V30 2 1 2 3
M  V30 3 1 2 4
M  V30 4 2 3 5
M  V30 5 1 4 6
M  V30 6 1 4 7
M  V30 7 1 5 8
M  V30 8 1 5 9
M  V30 9 1 7 10
M  V30 10 1 7 11
M  V30 11 1 8 12
M  V30 12 1 10 13
M  V30 13 1 11 14
M  V30 14 2 12 15
M  V30 15 1 12 16
M  V30 16 1 13 17
M  V30 17 1 13 18
M  V30 18 2 16 19
M  V30 19 1 16 20
M  V30 20 1 17 21
M  V30 21 1 19 22
M  V30 22 2 20 23
M  V30 23 1 21 24
M  V30 24 2 22 25
M  V30 25 1 24 26
M  V30 26 1 24 27
M  V30 27 1 25 28
M  V30 28 1 26 29
M  V30 29 1 27 30
M  V30 30 1 27 31
M  V30 31 1 28 32
M  V30 32 1 29 33
M  V30 33 1 29 34
M  V30 34 1 31 35
M  V30 35 2 32 36
M  V30 36 1 32 37
M  V30 37 1 33 38
M  V30 38 1 37 39
M  V30 39 1 37 40
M  V30 40 1 37 41
M  V30 41 1 38 42
M  V30 42 1 38 43
M  V30 43 1 40 44
M  V30 44 2 6 9
M  V30 45 1 14 17
M  V30 46 1 23 25
M  V30 47 1 31 33
M  V30 48 1 6 45
M  V30 49 1 7 46
M  V30 50 1 8 47
M  V30 51 1 9 48
M  V30 52 1 11 49
M  V30 53 1 11 50
M  V30 54 1 13 51
M  V30 55 1 14 52
M  V30 56 1 14 53
M  V30 57 1 17 54
M  V30 58 1 18 55
M  V30 59 1 18 56
M  V30 60 1 18 57
M  V30 61 1 19 58
M  V30 62 1 20 59
M  V30 63 1 22 60
M  V30 64 1 23 61
M  V30 65 1 24 62
M  V30 66 1 27 63
M  V30 67 1 28 64
M  V30 68 1 29 65
M  V30 69 1 30 66
M  V30 70 1 31 67
M  V30 71 1 33 68
M  V30 72 1 34 69
M  V30 73 1 34 70
M  V30 74 1 34 71
M  V30 75 1 35 72
M  V30 76 1 38 73
M  V30 77 1 39 74
M  V30 78 1 39 75
M  V30 79 1 39 76
M  V30 80 1 40 77
M  V30 81 1 40 78
M  V30 82 1 41 79
M  V30 83 1 41 80
M  V30 84 1 41 81
M  V30 85 1 42 82
M  V30 86 1 42 83
M  V30 87 1 42 84
M  V30 88 1 43 85
M  V30 89 1 43 86
M  V30 90 1 43 87
M  V30 91 1 44 88
M  V30 END BOND
M  V30 BEGIN COLLECTION
M  V30 MDLV30/STEABS ATOMS=(9 7 13 17 24 27 29 31 33 37)
M  V30 END COLLECTION
M  V30 END CTAB
M  END
>  <Structure No>
4882

>  <LogS>
-2.4904

>  <MMFF94 Energy>
131.77

$$$$
Compound 4883
Actelion Java MolfileCreator 2.0

  0  0  0  0  0  0              0 V3000
M  V30 BEGIN CTAB
M  V30 COUNTS 24 24 0 0 0
M  V30 BEGIN ATOM
M  V30 1 O 0.642 -1.9271 -0.5617 0
M  V30 2 C 0.4072 -0.7223 -0.2695 0
M  V30 3 O 1.4634 0.1824 -0.1214 0
M  V30 4 C -0.987 -0.2409 -0.1434 0
M  V30 5 C 2.8288 -0.2006 -0.2519 0
M  V30 6 C -2.0473 -1.0535 0.3485 0
M  V30 7 C -1.2743 1.0611 -0.5917 0
M  V30 8 C 3.7261 1.0098 -0.0341 0
M  V30 9 C -1.8262 -2.3814 0.9668 0
M  V30 10 C -3.3632 -0.5568 0.3105 0
M  V30 11 C -2.5843 1.5409 -0.5991 0
M  V30 12 O 3.5459 1.5064 1.2627 0
M  V30 13 O -0.7784 -2.621 1.6228 0
M  V30 14 O -2.8095 -3.3605 0.8846 0 CHG=-1
M  V30 15 C -3.6277 0.7296 -0.1601 0
M  V30 16 H 3.0058 -0.6071 -1.2713 0
M  V30 17 H 3.0735 -0.9845 0.4975 0
M  V30 18 H -0.4855 1.7008 -0.9688 0
M  V30 19 H 4.7869 0.7059 -0.1763 0
M  V30 20 H 3.4727 1.7957 -0.7804 0
M  V30 21 H -4.1889 -1.1546 0.6768 0
M  V30 22 H -2.792 2.5406 -0.9584 0
M  V30 23 H 4.1492 2.2902 1.3428 0
M  V30 24 H -4.6437 1.1027 -0.172 0
M  V30 END ATOM
M  V30 BEGIN BOND
M  V30 1 2 1 2
M  V30 2 1 2 3
M  V30 3 1 2 4
M  V30 4 1 3 5
M  V30 5 2 4 6
M  V30 6 1 4 7
M  V30 7 1 5 8
M  V30 8 1 6 9
M  V30 9 1 6 10
M  V30 10 2 7 11
M  V30 11 1 8 12
M  V30 12 2 9 13
M  V30 13 1 9 14
M  V30 14 2 10 15
M  V30 15 1 11 15
M  V30 16 1 5 16
M  V30 17 1 5 17
M  V30 18 1 7 18
M  V30 19 1 8 19
M  V30 20 1 8 20
M  V30 21 1 10 21
M  V30 22 1 11 22
M  V30 23 1 12 23
M  V30 24 1 15 24
M  V30 END BOND
M  V30 END CTAB
M  END
>  <Structure No>
4883

>  <LogS>
-1.4825

>  <MMFF94 Energy>
36.623

$$$$
Compound 4884
Actelion Java MolfileCreator 2.0

  0  0  0  0  0  0              0 V3000
M  V30 BEGIN CTAB
M  V30 COUNTS 18 18 0 0 0
M  V30 BEGIN ATOM
M  V30 1 O -3.5358 -0.9858 0.0821 0
M  V30 2 N -2.4296 -1.5465 -0.0641 0 CHG=1
M  V30 3 O -2.41 -2.9007 -0.3061 0 CHG=-1
M  V30 4 C -1.2101 -0.7741 -0.0353 0
M  V30 5 C 0.0552 -1.3991 0.0577 0
M  V30 6 C -1.2746 0.6292 -0.0941 0
M  V30 7 O 0.1352 -2.7843 0.1601 0 CHG=-1
M  V30 8 C 1.2393 -0.6224 0.0698 0
M  V30 9 C -0.1112 1.4031 -0.0726 0
M  V30 10 N 2.5455 -1.2323 0.1523 0 CHG=1
M  V30 11 C 1.136 0.7775 0.0075 0
M  V30 12 N -0.1963 2.8299 -0.1368 0
M  V30 13 O 2.6942 -2.4648 0.0218 0
M  V30 14 O 3.6653 -0.4537 0.3378 0 CHG=-1
M  V30 15 H -2.2339 1.127 -0.165 0
M  V30 16 H 2.0286 1.3901 0.0162 0
M  V30 17 H 0.6661 3.419 -0.1229 0
M  V30 18 H -1.1225 3.3089 -0.1982 0
M  V30 END ATOM
M  V30 BEGIN BOND
M  V30 1 2 1 2
M  V30 2 1 2 3
M  V30 3 1 2 4
M  V30 4 2 4 5
M  V30 5 1 4 6
M  V30 6 1 5 7
M  V30 7 1 5 8
M  V30 8 2 6 9
M  V30 9 1 8 10
M  V30 10 2 8 11
M  V30 11 1 9 12
M  V30 12 2 10 13
M  V30 13 1 10 14
M  V30 14 1 9 11
M  V30 15 1 6 15
M  V30 16 1 11 16
M  V30 17 1 12 17
M  V30 18 1 12 18
M  V30 END BOND
M  V30 END CTAB
M  END
>  <Structure No>
4884

>  <LogS>
-2.3853

>  <MMFF94 Energy>
111.39

$$$$
Compound 4885
Actelion Java MolfileCreator 2.0

  0  0  0  0  0  0              0 V3000
M  V30 BEGIN CTAB
M  V30 COUNTS 33 35 0 0 0
M  V30 BEGIN ATOM
M  V30 1 Cl 6.006 -2.7494 -0.4162 0
M  V30 2 C 4.4924 -1.8693 -0.3106 0
M  V30 3 C 3.4039 -2.2505 -1.1014 0
M  V30 4 C 4.3688 -0.7919 0.5723 0
M  V30 5 C 2.1964 -1.5506 -1.0165 0
M  V30 6 C 3.1625 -0.0907 0.6585 0
M  V30 7 C 2.0721 -0.4527 -0.1494 0
M  V30 8 C 0.7844 0.2635 -0.0554 0
M  V30 9 N -0.3857 -0.426 0.0432 0
M  V30 10 C 0.6344 1.6573 -0.0914 0
M  V30 11 C -1.4682 0.3824 0.1054 0
M  V30 12 S -1.0088 2.0008 0.0215 0
M  V30 13 C 1.6961 2.7001 -0.2964 0
M  V30 14 C -2.8565 -0.1199 0.2193 0
M  V30 15 C 2.0428 3.3774 0.9924 0
M  V30 16 C -3.1047 -1.5044 0.2684 0
M  V30 17 C -3.9464 0.7691 0.2806 0
M  V30 18 O 1.1575 3.986 1.6499 0
M  V30 19 O 3.3538 3.371 1.4516 0 CHG=-1
M  V30 20 C -4.4129 -1.9863 0.3761 0
M  V30 21 C -5.2525 0.2813 0.3884 0
M  V30 22 C -5.4856 -1.0946 0.436 0
M  V30 23 H 3.4917 -3.0887 -1.7806 0
M  V30 24 H 5.2033 -0.5027 1.1984 0
M  V30 25 H 1.3623 -1.8576 -1.6357 0
M  V30 26 H 3.0732 0.716 1.3724 0
M  V30 27 H 2.6045 2.2479 -0.7462 0
M  V30 28 H 1.3222 3.4624 -1.0121 0
M  V30 29 H -2.2891 -2.2151 0.2236 0
M  V30 30 H -3.7948 1.8399 0.2461 0
M  V30 31 H -4.5945 -3.0526 0.4133 0
M  V30 32 H -6.085 0.9715 0.435 0
M  V30 33 H -6.4975 -1.4696 0.5194 0
M  V30 END ATOM
M  V30 BEGIN BOND
M  V30 1 1 1 2
M  V30 2 2 2 3
M  V30 3 1 2 4
M  V30 4 1 3 5
M  V30 5 2 4 6
M  V30 6 2 5 7
M  V30 7 1 7 8
M  V30 8 1 8 9
M  V30 9 2 8 10
M  V30 10 2 9 11
M  V30 11 1 10 12
M  V30 12 1 10 13
M  V30 13 1 11 14
M  V30 14 1 13 15
M  V30 15 2 14 16
M  V30 16 1 14 17
M  V30 17 2 15 18
M  V30 18 1 15 19
M  V30 19 1 16 20
M  V30 20 2 17 21
M  V30 21 2 20 22
M  V30 22 1 6 7
M  V30 23 1 11 12
M  V30 24 1 21 22
M  V30 25 1 3 23
M  V30 26 1 4 24
M  V30 27 1 5 25
M  V30 28 1 6 26
M  V30 29 1 13 27
M  V30 30 1 13 28
M  V30 31 1 16 29
M  V30 32 1 17 30
M  V30 33 1 20 31
M  V30 34 1 21 32
M  V30 35 1 22 33
M  V30 END BOND
M  V30 END CTAB
M  END
>  <Structure No>
4885

>  <LogS>
-4.9644

>  <MMFF94 Energy>
79.923

$$$$
Compound 4886
Actelion Java MolfileCreator 2.0

  0  0  0  0  0  0              0 V3000
M  V30 BEGIN CTAB
M  V30 COUNTS 17 16 0 0 0
M  V30 BEGIN ATOM
M  V30 1 S 3.9483 1.341 0.9464 0
M  V30 2 C 2.6719 0.9729 0.0352 0
M  V30 3 N 1.6624 0.6809 -0.6827 0
M  V30 4 C 1.044 -0.6411 -0.6448 0
M  V30 5 C 0.3854 -0.9259 0.716 0
M  V30 6 C -0.7212 0.0762 1.0748 0
M  V30 7 C -1.9044 -0.0513 0.153 0
M  V30 8 C -2.1897 0.8797 -0.7615 0
M  V30 9 H 0.2817 -0.7036 -1.4495 0
M  V30 10 H 1.8117 -1.418 -0.8545 0
M  V30 11 H 1.1634 -0.9008 1.5096 0
M  V30 12 H -0.0371 -1.9544 0.705 0
M  V30 13 H -1.0682 -0.1357 2.1085 0
M  V30 14 H -0.3169 1.1123 1.0752 0
M  V30 15 H -2.5187 -0.9451 0.2083 0
M  V30 16 H -1.582 1.7738 -0.8609 0
M  V30 17 H -3.0386 0.7464 -1.424 0
M  V30 END ATOM
M  V30 BEGIN BOND
M  V30 1 2 1 2
M  V30 2 2 2 3
M  V30 3 1 3 4
M  V30 4 1 4 5
M  V30 5 1 5 6
M  V30 6 1 6 7
M  V30 7 2 7 8
M  V30 8 1 4 9
M  V30 9 1 4 10
M  V30 10 1 5 11
M  V30 11 1 5 12
M  V30 12 1 6 13
M  V30 13 1 6 14
M  V30 14 1 7 15
M  V30 15 1 8 16
M  V30 16 1 8 17
M  V30 END BOND
M  V30 END CTAB
M  END
>  <Structure No>
4886

>  <LogS>
-2.9004

>  <MMFF94 Energy>
4.9329

$$$$
Compound 4887
Actelion Java MolfileCreator 2.0

  0  0  0  0  0  0              0 V3000
M  V30 BEGIN CTAB
M  V30 COUNTS 24 25 0 0 0
M  V30 BEGIN ATOM
M  V30 1 O 5.1999 0.2432 -0.8111 0
M  V30 2 N 4.5002 0.1835 0.2209 0 CHG=1
M  V30 3 O 5.1338 0.1789 1.4428 0 CHG=-1
M  V30 4 C 3.0602 0.1172 0.1464 0
M  V30 5 C 2.377 0.133 -1.0909 0
M  V30 6 C 2.3059 0.0351 1.3305 0
M  V30 7 O 3.0685 0.2182 -2.2944 0 CHG=-1
M  V30 8 C 0.9797 0.0653 -1.1263 0
M  V30 9 C 0.9114 -0.0304 1.2885 0
M  V30 10 C 0.2323 -0.0167 0.06 0
M  V30 11 C -1.2508 -0.0876 0.0159 0
M  V30 12 C -1.9015 -0.8738 -0.9541 0
M  V30 13 C -2.03 0.63 0.9437 0
M  V30 14 C -3.2978 -0.9392 -0.9929 0
M  V30 15 C -3.426 0.5616 0.8995 0
M  V30 16 C -4.0592 -0.222 -0.0674 0
M  V30 17 H 2.7947 0.0171 2.2959 0
M  V30 18 H 0.4791 0.0959 -2.0863 0
M  V30 19 H 0.3645 -0.1105 2.2198 0
M  V30 20 H -1.331 -1.4515 -1.6705 0
M  V30 21 H -1.5608 1.2573 1.6913 0
M  V30 22 H -3.7896 -1.5492 -1.7395 0
M  V30 23 H -4.0173 1.1199 1.6139 0
M  V30 24 H -5.1399 -0.2738 -0.0995 0
M  V30 END ATOM
M  V30 BEGIN BOND
M  V30 1 2 1 2
M  V30 2 1 2 3
M  V30 3 1 2 4
M  V30 4 2 4 5
M  V30 5 1 4 6
M  V30 6 1 5 7
M  V30 7 1 5 8
M  V30 8 2 6 9
M  V30 9 2 8 10
M  V30 10 1 10 11
M  V30 11 2 11 12
M  V30 12 1 11 13
M  V30 13 1 12 14
M  V30 14 2 13 15
M  V30 15 2 14 16
M  V30 16 1 9 10
M  V30 17 1 15 16
M  V30 18 1 6 17
M  V30 19 1 8 18
M  V30 20 1 9 19
M  V30 21 1 12 20
M  V30 22 1 13 21
M  V30 23 1 14 22
M  V30 24 1 15 23
M  V30 25 1 16 24
M  V30 END BOND
M  V30 END CTAB
M  END
>  <Structure No>
4887

>  <LogS>
-3.8557

>  <MMFF94 Energy>
95.691

$$$$
Compound 4888
Actelion Java MolfileCreator 2.0

  0  0  0  0  0  0              0 V3000
M  V30 BEGIN CTAB
M  V30 COUNTS 22 22 0 0 0
M  V30 BEGIN ATOM
M  V30 1 O -4.0414 1.1873 0.1582 0
M  V30 2 C -3.2111 0.2689 -0.0758 0
M  V30 3 C -1.7516 0.5024 0.0677 0
M  V30 4 C -0.8016 -0.521 -0.1918 0
M  V30 5 C -1.3025 1.7689 0.4706 0
M  V30 6 C 0.5842 -0.2557 -0.0424 0
M  V30 7 C -1.2659 -1.8939 -0.6274 0
M  V30 8 C 0.0547 2.0291 0.6171 0
M  V30 9 O 1.4895 -1.3022 -0.3112 0
M  V30 10 C 1.0036 1.0349 0.3663 0
M  V30 11 C 2.909 -1.2454 -0.2229 0
M  V30 12 O 2.3533 1.3431 0.5267 0
M  V30 13 H -3.5954 -0.6927 -0.3838 0
M  V30 14 H -2.0047 2.5678 0.6754 0
M  V30 15 H -1.8318 -1.8127 -1.5793 0
M  V30 16 H -1.9189 -2.3337 0.1554 0
M  V30 17 H -0.433 -2.6049 -0.7991 0
M  V30 18 H 0.3718 3.0162 0.9296 0
M  V30 19 H 3.3243 -2.236 -0.4994 0
M  V30 20 H 3.3091 -0.4921 -0.9335 0
M  V30 21 H 3.221 -1.0182 0.8181 0
M  V30 22 H 2.6619 2.2633 0.8186 0
M  V30 END ATOM
M  V30 BEGIN BOND
M  V30 1 2 1 2
M  V30 2 1 2 3
M  V30 3 2 3 4
M  V30 4 1 3 5
M  V30 5 1 4 6
M  V30 6 1 4 7
M  V30 7 2 5 8
M  V30 8 1 6 9
M  V30 9 2 6 10
M  V30 10 1 9 11
M  V30 11 1 10 12
M  V30 12 1 8 10
M  V30 13 1 2 13
M  V30 14 1 5 14
M  V30 15 1 7 15
M  V30 16 1 7 16
M  V30 17 1 7 17
M  V30 18 1 8 18
M  V30 19 1 11 19
M  V30 20 1 11 20
M  V30 21 1 11 21
M  V30 22 1 12 22
M  V30 END BOND
M  V30 END CTAB
M  END
>  <Structure No>
4888

>  <LogS>
-1.3755

>  <MMFF94 Energy>
37.474

$$$$
Compound 4889
Actelion Java MolfileCreator 2.0

  0  0  0  0  0  0              0 V3000
M  V30 BEGIN CTAB
M  V30 COUNTS 26 26 0 0 0
M  V30 BEGIN ATOM
M  V30 1 O 0.864 -1.8073 -1.0998 0
M  V30 2 C 0.563 -0.8136 -0.3822 0
M  V30 3 O 1.5696 -0.0695 0.2467 0
M  V30 4 C -0.8549 -0.4354 -0.1958 0
M  V30 5 C 2.9643 -0.3274 0.0826 0
M  V30 6 C -1.8824 -1.1712 -0.814 0
M  V30 7 C -1.1951 0.6695 0.6043 0
M  V30 8 C 3.4382 0.1771 -1.2831 0
M  V30 9 C 3.7306 0.3695 1.2048 0
M  V30 10 C -3.2206 -0.8082 -0.6343 0
M  V30 11 C -2.5341 1.0303 0.7823 0
M  V30 12 C -3.5528 0.2937 0.1642 0
M  V30 13 N -4.9219 0.6639 0.3471 0
M  V30 14 H 3.157 -1.4207 0.1595 0
M  V30 15 H -1.6532 -2.0271 -1.4365 0
M  V30 16 H -0.4278 1.2565 1.0934 0
M  V30 17 H 3.2347 1.2645 -1.3854 0
M  V30 18 H 4.528 -0.0016 -1.4022 0
M  V30 19 H 2.9083 -0.3613 -2.096 0
M  V30 20 H 3.3817 -0.0104 2.1884 0
M  V30 21 H 4.8187 0.1645 1.1149 0
M  V30 22 H 3.5619 1.4672 1.1673 0
M  V30 23 H -3.9984 -1.386 -1.1176 0
M  V30 24 H -2.7774 1.8843 1.4019 0
M  V30 25 H -5.6883 0.1208 -0.1094 0
M  V30 26 H -5.1793 1.4839 0.9408 0
M  V30 END ATOM
M  V30 BEGIN BOND
M  V30 1 2 1 2
M  V30 2 1 2 3
M  V30 3 1 2 4
M  V30 4 1 3 5
M  V30 5 2 4 6
M  V30 6 1 4 7
M  V30 7 1 5 8
M  V30 8 1 5 9
M  V30 9 1 6 10
M  V30 10 2 7 11
M  V30 11 2 10 12
M  V30 12 1 12 13
M  V30 13 1 11 12
M  V30 14 1 5 14
M  V30 15 1 6 15
M  V30 16 1 7 16
M  V30 17 1 8 17
M  V30 18 1 8 18
M  V30 19 1 8 19
M  V30 20 1 9 20
M  V30 21 1 9 21
M  V30 22 1 9 22
M  V30 23 1 10 23
M  V30 24 1 11 24
M  V30 25 1 13 25
M  V30 26 1 13 26
M  V30 END BOND
M  V30 END CTAB
M  END
>  <Structure No>
4889

>  <LogS>
-2.6099

>  <MMFF94 Energy>
21.026

$$$$
Compound 4890
Actelion Java MolfileCreator 2.0

  0  0  0  0  0  0              0 V3000
M  V30 BEGIN CTAB
M  V30 COUNTS 13 12 0 0 0
M  V30 BEGIN ATOM
M  V30 1 O 3.325 -0.2316 -1.0816 0
M  V30 2 N 2.2185 0.2028 -0.7029 0 CHG=1
M  V30 3 O 1.9705 1.5538 -0.7817 0 CHG=-1
M  V30 4 N 1.283 -0.6839 -0.136 0
M  V30 5 C -0.0492 -0.3028 0.2467 0
M  V30 6 N -0.4964 0.8837 -0.052 0
M  V30 7 N -0.8729 -1.2691 0.9133 0
M  V30 8 N -1.756 1.3849 0.3145 0
M  V30 9 H 1.5692 -1.6783 0.0106 0
M  V30 10 H -1.9052 -1.1642 1.0083 0
M  V30 11 H -0.4579 -2.1749 1.2247 0
M  V30 12 H -2.0589 2.3117 -0.0565 0
M  V30 13 H -2.3452 0.9411 1.0512 0
M  V30 END ATOM
M  V30 BEGIN BOND
M  V30 1 2 1 2
M  V30 2 1 2 3
M  V30 3 1 2 4
M  V30 4 1 4 5
M  V30 5 2 5 6
M  V30 6 1 5 7
M  V30 7 1 6 8
M  V30 8 1 4 9
M  V30 9 1 7 10
M  V30 10 1 7 11
M  V30 11 1 8 12
M  V30 12 1 8 13
M  V30 END BOND
M  V30 END CTAB
M  END
>  <Structure No>
4890

>  <LogS>
-1.6458

>  <MMFF94 Energy>
-98.405

$$$$
Compound 4891
Actelion Java MolfileCreator 2.0

  0  0  0  0  0  0              0 V3000
M  V30 BEGIN CTAB
M  V30 COUNTS 23 23 0 0 0
M  V30 BEGIN ATOM
M  V30 1 O 1.9016 2.536 -0.3959 0
M  V30 2 N 0.5942 2.1396 -0.2285 0
M  V30 3 C 0.2513 0.8924 -0.1001 0
M  V30 4 C 1.243 -0.2095 -0.0912 0
M  V30 5 C -1.2106 0.5278 -0.0483 0 CFG=1
M  V30 6 N 2.2897 -0.2053 0.6787 0
M  V30 7 C 0.9366 -1.4232 -0.9177 0
M  V30 8 C -1.4996 -0.6983 -0.9462 0
M  V30 9 C -1.6447 0.2922 1.4034 0
M  V30 10 O 2.5583 0.8178 1.5592 0
M  V30 11 C -0.5189 -1.8614 -0.7068 0
M  V30 12 H 2.1241 3.5186 -0.4904 0
M  V30 13 H -1.8126 1.3776 -0.4419 0
M  V30 14 H 1.1007 -1.1787 -1.9892 0
M  V30 15 H 1.614 -2.2627 -0.6474 0
M  V30 16 H -2.5398 -1.0541 -0.7807 0
M  V30 17 H -1.4278 -0.3871 -2.0118 0
M  V30 18 H -1.0485 -0.5164 1.8757 0
M  V30 19 H -1.5042 1.2225 1.9947 0
M  V30 20 H -2.7203 0.0176 1.4429 0
M  V30 21 H 3.3861 0.7813 2.1401 0
M  V30 22 H -0.7541 -2.6852 -1.4145 0
M  V30 23 H -0.6453 -2.2603 0.3224 0
M  V30 END ATOM
M  V30 BEGIN BOND
M  V30 1 1 1 2
M  V30 2 2 2 3
M  V30 3 1 3 4
M  V30 4 1 3 5
M  V30 5 2 4 6
M  V30 6 1 4 7
M  V30 7 1 5 8
M  V30 8 1 5 9
M  V30 9 1 6 10
M  V30 10 1 7 11
M  V30 11 1 8 11
M  V30 12 1 1 12
M  V30 13 1 5 13
M  V30 14 1 7 14
M  V30 15 1 7 15
M  V30 16 1 8 16
M  V30 17 1 8 17
M  V30 18 1 9 18
M  V30 19 1 9 19
M  V30 20 1 9 20
M  V30 21 1 10 21
M  V30 22 1 11 22
M  V30 23 1 11 23
M  V30 END BOND
M  V30 BEGIN COLLECTION
M  V30 MDLV30/STEABS ATOMS=(1 5)
M  V30 END COLLECTION
M  V30 END CTAB
M  END
>  <Structure No>
4891

>  <LogS>
-1.5916

>  <MMFF94 Energy>
72.542

$$$$
Compound 4892
Actelion Java MolfileCreator 2.0

  0  0  0  0  0  0              0 V3000
M  V30 BEGIN CTAB
M  V30 COUNTS 23 23 0 0 0
M  V30 BEGIN ATOM
M  V30 1 O 1.5848 3.0922 -0.8714 0
M  V30 2 N 1.9358 1.8152 -0.496 0
M  V30 3 C 1.0505 0.8905 -0.2694 0
M  V30 4 C 1.5066 -0.4408 0.198 0
M  V30 5 C -0.4257 1.2072 -0.3631 0
M  V30 6 N 2.7776 -0.6427 0.3812 0
M  V30 7 C 0.5243 -1.5812 0.3444 0
M  V30 8 C -1.2882 -0.0562 -0.5281 0 CFG=1
M  V30 9 O 3.2801 -1.8686 0.7552 0
M  V30 10 C -0.9147 -1.0952 0.5398 0
M  V30 11 C -2.7777 0.2958 -0.4415 0
M  V30 12 H 2.3026 3.7856 -1.0391 0
M  V30 13 H -0.6124 1.8757 -1.2318 0
M  V30 14 H -0.7219 1.7504 0.5609 0
M  V30 15 H 0.7985 -2.2125 1.217 0
M  V30 16 H 0.5778 -2.2132 -0.5682 0
M  V30 17 H -1.0992 -0.4903 -1.5361 0
M  V30 18 H 4.2762 -1.9877 0.8885 0
M  V30 19 H -1.0241 -0.6545 1.5561 0
M  V30 20 H -1.5957 -1.9717 0.4718 0
M  V30 21 H -3.0254 0.7168 0.5567 0
M  V30 22 H -3.0399 1.0425 -1.2213 0
M  V30 23 H -3.3956 -0.6116 -0.6108 0
M  V30 END ATOM
M  V30 BEGIN BOND
M  V30 1 1 1 2
M  V30 2 2 2 3
M  V30 3 1 3 4
M  V30 4 1 3 5
M  V30 5 2 4 6
M  V30 6 1 4 7
M  V30 7 1 5 8
M  V30 8 1 6 9
M  V30 9 1 7 10
M  V30 10 1 8 11
M  V30 11 1 8 10
M  V30 12 1 1 12
M  V30 13 1 5 13
M  V30 14 1 5 14
M  V30 15 1 7 15
M  V30 16 1 7 16
M  V30 17 1 8 17
M  V30 18 1 9 18
M  V30 19 1 10 19
M  V30 20 1 10 20
M  V30 21 1 11 21
M  V30 22 1 11 22
M  V30 23 1 11 23
M  V30 END BOND
M  V30 BEGIN COLLECTION
M  V30 MDLV30/STEABS ATOMS=(1 8)
M  V30 END COLLECTION
M  V30 END CTAB
M  END
>  <Structure No>
4892

>  <LogS>
-1.6622

>  <MMFF94 Energy>
69.013

$$$$
Compound 4893
Actelion Java MolfileCreator 2.0

  0  0  0  0  0  0              0 V3000
M  V30 BEGIN CTAB
M  V30 COUNTS 29 29 0 0 0
M  V30 BEGIN ATOM
M  V30 1 O 1.6627 -2.6932 2.2967 0
M  V30 2 N 2.3035 -1.8469 1.4199 0
M  V30 3 C 1.6557 -1.0071 0.668 0
M  V30 4 C 2.419 -0.165 -0.2814 0
M  V30 5 C 0.1445 -0.9569 0.7188 0
M  V30 6 N 3.7216 -0.2117 -0.2432 0
M  V30 7 C 1.6988 0.7921 -1.2001 0
M  V30 8 C -0.4642 0.2914 0.0357 0 CFG=1
M  V30 9 O 4.5641 0.576 -1.0037 0
M  V30 10 C 0.2068 0.4788 -1.3416 0
M  V30 11 C -2.0214 0.1748 -0.089 0
M  V30 12 C -2.6887 -0.1251 1.2673 0
M  V30 13 C -2.6514 1.4543 -0.6738 0
M  V30 14 H 2.2007 -3.3336 2.8663 0
M  V30 15 H -0.2497 -1.8779 0.2366 0
M  V30 16 H -0.1581 -0.962 1.7874 0
M  V30 17 H 2.1438 0.746 -2.2169 0
M  V30 18 H 1.8219 1.8245 -0.8063 0
M  V30 19 H -0.2305 1.1799 0.6657 0
M  V30 20 H 4.229 1.3128 -1.611 0
M  V30 21 H -0.2432 1.3259 -1.8958 0
M  V30 22 H 0.0727 -0.4392 -1.9559 0
M  V30 23 H -2.2652 -0.6667 -0.775 0
M  V30 24 H -2.4336 -1.1471 1.6156 0
M  V30 25 H -3.7956 -0.0926 1.1778 0
M  V30 26 H -2.3714 0.6163 2.0316 0
M  V30 27 H -2.422 1.5552 -1.7534 0
M  V30 28 H -3.7594 1.4189 -0.5984 0
M  V30 29 H -2.2898 2.3541 -0.1314 0
M  V30 END ATOM
M  V30 BEGIN BOND
M  V30 1 1 1 2
M  V30 2 2 2 3
M  V30 3 1 3 4
M  V30 4 1 3 5
M  V30 5 2 4 6
M  V30 6 1 4 7
M  V30 7 1 5 8
M  V30 8 1 6 9
M  V30 9 1 7 10
M  V30 10 1 8 11
M  V30 11 1 11 12
M  V30 12 1 11 13
M  V30 13 1 8 10
M  V30 14 1 1 14
M  V30 15 1 5 15
M  V30 16 1 5 16
M  V30 17 1 7 17
M  V30 18 1 7 18
M  V30 19 1 8 19
M  V30 20 1 9 20
M  V30 21 1 10 21
M  V30 22 1 10 22
M  V30 23 1 11 23
M  V30 24 1 12 24
M  V30 25 1 12 25
M  V30 26 1 12 26
M  V30 27 1 13 27
M  V30 28 1 13 28
M  V30 29 1 13 29
M  V30 END BOND
M  V30 BEGIN COLLECTION
M  V30 MDLV30/STEABS ATOMS=(1 8)
M  V30 END COLLECTION
M  V30 END CTAB
M  END
>  <Structure No>
4893

>  <LogS>
-2.3903

>  <MMFF94 Energy>
76.087

$$$$
Compound 4894
Actelion Java MolfileCreator 2.0

  0  0  0  0  0  0              0 V3000
M  V30 BEGIN CTAB
M  V30 COUNTS 16 15 0 0 0
M  V30 BEGIN ATOM
M  V30 1 O 0.8642 1.5718 1.4145 0
M  V30 2 C 1.3521 0.8935 0.4708 0
M  V30 3 N 0.501 0.1129 -0.3798 0
M  V30 4 N 2.7619 0.9068 0.2512 0
M  V30 5 C -0.9463 0.0176 -0.1666 0 CFG=1
M  V30 6 C -1.6388 -0.3536 -1.4482 0
M  V30 7 C -1.2517 -1.0073 0.9276 0
M  V30 8 O -1.3956 -1.4541 -2.0117 0
M  V30 9 O -2.5512 0.5224 -2.0231 0 CHG=-1
M  V30 10 H 0.9485 -0.4603 -1.131 0
M  V30 11 H 3.3865 1.4732 0.8672 0
M  V30 12 H 3.1839 0.352 -0.5259 0
M  V30 13 H -1.3373 1.0076 0.1579 0
M  V30 14 H -0.8491 -2.0056 0.6514 0
M  V30 15 H -2.3493 -1.0884 1.0817 0
M  V30 16 H -0.7881 -0.6906 1.8858 0
M  V30 END ATOM
M  V30 BEGIN BOND
M  V30 1 2 1 2
M  V30 2 1 2 3
M  V30 3 1 2 4
M  V30 4 1 3 5
M  V30 5 1 5 6
M  V30 6 1 5 7
M  V30 7 2 6 8
M  V30 8 1 6 9
M  V30 9 1 3 10
M  V30 10 1 4 11
M  V30 11 1 4 12
M  V30 12 1 5 13
M  V30 13 1 7 14
M  V30 14 1 7 15
M  V30 15 1 7 16
M  V30 END BOND
M  V30 BEGIN COLLECTION
M  V30 MDLV30/STEABS ATOMS=(1 5)
M  V30 END COLLECTION
M  V30 END CTAB
M  END
>  <Structure No>
4894

>  <LogS>
-0.9656

>  <MMFF94 Energy>
-54.409

$$$$
Compound 4895
Actelion Java MolfileCreator 2.0

  0  0  0  0  0  0              0 V3000
M  V30 BEGIN CTAB
M  V30 COUNTS 36 39 0 0 0
M  V30 BEGIN ATOM
M  V30 1 C 2.0072 0.1604 -0.0802 0
M  V30 2 C 0.8163 0.9526 -0.2162 0
M  V30 3 C 1.8758 -1.2627 -0.0708 0
M  V30 4 C 3.2671 0.8404 0.0244 0
M  V30 5 C -0.4693 0.3394 -0.0871 0
M  V30 6 C 0.9515 2.3332 -0.4978 0
M  V30 7 C 0.6072 -1.8407 0.0396 0
M  V30 8 C 3.023 -2.2174 -0.3078 0
M  V30 9 C 3.3399 2.2103 -0.2636 0
M  V30 10 C 4.5312 0.2047 0.5523 0
M  V30 11 C -0.5503 -1.0666 0.054 0
M  V30 12 C -1.6796 1.0802 -0.0559 0
M  V30 13 C 2.1986 2.9384 -0.5503 0
M  V30 14 C -1.7952 -1.7056 0.1793 0
M  V30 15 C -2.9213 0.4402 0.0724 0
M  V30 16 C -2.9791 -0.9642 0.1866 0
M  V30 17 C -4.1123 1.1865 0.0942 0
M  V30 18 C -4.2231 -1.6035 0.3145 0
M  V30 19 C -5.3452 0.5405 0.2221 0
M  V30 20 C -5.4006 -0.8508 0.3312 0
M  V30 21 H 0.1124 2.971 -0.7189 0
M  V30 22 H 0.5178 -2.9212 0.0892 0
M  V30 23 H 3.5706 -2.4202 0.6335 0
M  V30 24 H 3.6934 -1.8303 -1.1003 0
M  V30 25 H 2.6612 -3.1979 -0.6863 0
M  V30 26 H 4.2897 2.7315 -0.2372 0
M  V30 27 H 4.3023 -0.4711 1.3999 0
M  V30 28 H 5.2218 0.9707 0.967 0
M  V30 29 H 5.0799 -0.3181 -0.2556 0
M  V30 30 H -1.69 2.1571 -0.0958 0
M  V30 31 H 2.277 3.9948 -0.7747 0
M  V30 32 H -1.8428 -2.7857 0.2735 0
M  V30 33 H -4.0905 2.2667 0.0103 0
M  V30 34 H -4.2846 -2.6816 0.4034 0
M  V30 35 H -6.2595 1.1197 0.2367 0
M  V30 36 H -6.3575 -1.3469 0.4303 0
M  V30 END ATOM
M  V30 BEGIN BOND
M  V30 1 1 1 2
M  V30 2 1 1 3
M  V30 3 2 1 4
M  V30 4 1 2 5
M  V30 5 2 2 6
M  V30 6 2 3 7
M  V30 7 1 3 8
M  V30 8 1 4 9
M  V30 9 1 4 10
M  V30 10 1 5 11
M  V30 11 2 5 12
M  V30 12 1 6 13
M  V30 13 2 11 14
M  V30 14 1 12 15
M  V30 15 1 14 16
M  V30 16 2 15 17
M  V30 17 2 16 18
M  V30 18 1 17 19
M  V30 19 1 18 20
M  V30 20 1 7 11
M  V30 21 2 9 13
M  V30 22 1 15 16
M  V30 23 2 19 20
M  V30 24 1 6 21
M  V30 25 1 7 22
M  V30 26 1 8 23
M  V30 27 1 8 24
M  V30 28 1 8 25
M  V30 29 1 9 26
M  V30 30 1 10 27
M  V30 31 1 10 28
M  V30 32 1 10 29
M  V30 33 1 12 30
M  V30 34 1 13 31
M  V30 35 1 14 32
M  V30 36 1 17 33
M  V30 37 1 18 34
M  V30 38 1 19 35
M  V30 39 1 20 36
M  V30 END BOND
M  V30 END CTAB
M  END
>  <Structure No>
4895

>  <LogS>
-7.9743

>  <MMFF94 Energy>
81.248

$$$$
Compound 4896
Actelion Java MolfileCreator 2.0

  0  0  0  0  0  0              0 V3000
M  V30 BEGIN CTAB
M  V30 COUNTS 32 32 0 0 0
M  V30 BEGIN ATOM
M  V30 1 O 2.373 -1.1068 2.0563 0
M  V30 2 N 1.7439 -1.6452 0.9565 0
M  V30 3 C 1.3935 -0.9413 -0.0816 0
M  V30 4 C 1.7431 0.5123 -0.1828 0
M  V30 5 C 0.7009 -1.6753 -1.2079 0
M  V30 6 N 2.8561 0.9105 0.3702 0
M  V30 7 C 0.8094 1.5009 -0.865 0
M  V30 8 C -0.5696 -2.4365 -0.7655 0
M  V30 9 O 3.3167 2.2126 0.4182 0
M  V30 10 C -0.1128 2.2509 0.1145 0
M  V30 11 C -1.521 -1.6545 0.1606 0
M  V30 12 C -0.9414 1.3631 1.067 0
M  V30 13 C -2.1135 -0.3874 -0.4923 0
M  V30 14 C -2.2562 0.8003 0.4775 0
M  V30 15 H 2.622 -1.7 2.8374 0
M  V30 16 H 0.4672 -1.0209 -2.0664 0
M  V30 17 H 1.419 -2.4203 -1.6138 0
M  V30 18 H 0.2069 1.038 -1.6549 0
M  V30 19 H 1.4058 2.2431 -1.4341 0
M  V30 20 H -0.2571 -3.3606 -0.2314 0
M  V30 21 H -1.1275 -2.7605 -1.6709 0
M  V30 22 H 2.7969 3.0007 0.0572 0
M  V30 23 H 0.5202 2.9173 0.739 0
M  V30 24 H -0.7915 2.9153 -0.4629 0
M  V30 25 H -1.0054 -1.44 1.1157 0
M  V30 26 H -2.3612 -2.329 0.4361 0
M  V30 27 H -0.3132 0.5782 1.5265 0
M  V30 28 H -1.2417 2.0137 1.9178 0
M  V30 29 H -1.5653 -0.0829 -1.3962 0
M  V30 30 H -3.1311 -0.6409 -0.8631 0
M  V30 31 H -2.9018 0.4734 1.3221 0
M  V30 32 H -2.8029 1.6191 -0.0387 0
M  V30 END ATOM
M  V30 BEGIN BOND
M  V30 1 1 1 2
M  V30 2 2 2 3
M  V30 3 1 3 4
M  V30 4 1 3 5
M  V30 5 2 4 6
M  V30 6 1 4 7
M  V30 7 1 5 8
M  V30 8 1 6 9
M  V30 9 1 7 10
M  V30 10 1 8 11
M  V30 11 1 10 12
M  V30 12 1 11 13
M  V30 13 1 12 14
M  V30 14 1 13 14
M  V30 15 1 1 15
M  V30 16 1 5 16
M  V30 17 1 5 17
M  V30 18 1 7 18
M  V30 19 1 7 19
M  V30 20 1 8 20
M  V30 21 1 8 21
M  V30 22 1 9 22
M  V30 23 1 10 23
M  V30 24 1 10 24
M  V30 25 1 11 25
M  V30 26 1 11 26
M  V30 27 1 12 27
M  V30 28 1 12 28
M  V30 29 1 13 29
M  V30 30 1 13 30
M  V30 31 1 14 31
M  V30 32 1 14 32
M  V30 END BOND
M  V30 END CTAB
M  END
>  <Structure No>
4896

>  <LogS>
-2.5813

>  <MMFF94 Energy>
72.939

$$$$
Compound 4897
Actelion Java MolfileCreator 2.0

  0  0  0  0  0  0              0 V3000
M  V30 BEGIN CTAB
M  V30 COUNTS 53 55 0 0 0
M  V30 BEGIN ATOM
M  V30 1 O -4.6712 2.7363 0.7237 0
M  V30 2 C -4.1606 1.749 0.1244 0
M  V30 3 O -4.717 1.296 -1.0763 0
M  V30 4 C -2.9657 1.0668 0.6788 0
M  V30 5 C -5.863 1.8968 -1.6671 0
M  V30 6 C -2.3996 1.5072 1.8127 0
M  V30 7 C -2.4245 -0.1691 -0.0327 0 CFG=1
M  V30 8 O -1.2141 0.9476 2.2861 0
M  V30 9 C -1.1122 -0.7502 0.5554 0 CFG=1
M  V30 10 C -3.457 -1.3161 0.0179 0
M  V30 11 C -0.3236 0.2542 1.421 0 CFG=1
M  V30 12 C -1.5244 -2.013 1.3218 0 CFG=1
M  V30 13 C -2.7356 -2.5542 0.5545 0 CFG=2
M  V30 14 O 0.3111 1.2008 0.573 0
M  V30 15 C -0.3879 -3.0388 1.4658 0
M  V30 16 O -2.3666 -3.4185 -0.4962 0
M  V30 17 C 1.7132 1.0086 0.5368 0 CFG=1
M  V30 18 O 2.0037 -0.2581 -0.0351 0
M  V30 19 C 2.3338 2.1214 -0.3255 0 CFG=1
M  V30 20 C 3.3919 -0.5353 0.0275 0 CFG=2
M  V30 21 O 2.0321 3.3745 0.2323 0
M  V30 22 C 3.8608 1.9241 -0.4206 0 CFG=2
M  V30 23 C 4.1705 0.4776 -0.8563 0 CFG=1
M  V30 24 C 3.6023 -1.981 -0.4514 0
M  V30 25 O 4.4632 2.19 0.8229 0
M  V30 26 O 5.5574 0.2402 -0.8409 0
M  V30 27 O 4.9257 -2.398 -0.2478 0
M  V30 28 H -5.6546 2.9618 -1.9038 0
M  V30 29 H -6.1113 1.3615 -2.6064 0
M  V30 30 H -6.7283 1.8279 -0.974 0
M  V30 31 H -2.8463 2.3121 2.3828 0
M  V30 32 H -2.2365 0.1068 -1.0948 0
M  V30 33 H -0.4662 -1.0581 -0.2978 0
M  V30 34 H -4.3002 -1.0748 0.7043 0
M  V30 35 H -3.8884 -1.5058 -0.9898 0
M  V30 36 H 0.3936 -0.2997 2.071 0
M  V30 37 H -1.8674 -1.7264 2.3427 0
M  V30 38 H -3.401 -3.1155 1.247 0
M  V30 39 H -0.7785 -3.9704 1.9275 0
M  V30 40 H 0.0604 -3.2867 0.4804 0
M  V30 41 H 0.4112 -2.639 2.1235 0
M  V30 42 H -1.8278 -2.8998 -1.1494 0
M  V30 43 H 2.1229 1.0911 1.5741 0
M  V30 44 H 1.8943 2.0537 -1.3491 0
M  V30 45 H 3.7464 -0.4769 1.0836 0
M  V30 46 H 2.2322 4.0523 -0.4651 0
M  V30 47 H 4.2703 2.6145 -1.1957 0
M  V30 48 H 3.8215 0.36 -1.9065 0
M  V30 49 H 2.9053 -2.6602 0.0915 0
M  V30 50 H 3.3624 -2.0593 -1.5334 0
M  V30 51 H 4.5872 3.1733 0.8811 0
M  V30 52 H 5.8537 0.2234 0.1064 0
M  V30 53 H 5.0226 -2.5723 0.7249 0
M  V30 END ATOM
M  V30 BEGIN BOND
M  V30 1 2 1 2
M  V30 2 1 2 3
M  V30 3 1 2 4
M  V30 4 1 3 5
M  V30 5 2 4 6
M  V30 6 1 4 7
M  V30 7 1 6 8
M  V30 8 1 7 9
M  V30 9 1 7 10
M  V30 10 1 8 11
M  V30 11 1 9 12
M  V30 12 1 10 13
M  V30 13 1 11 14
M  V30 14 1 12 15
M  V30 15 1 13 16
M  V30 16 1 14 17
M  V30 17 1 17 18
M  V30 18 1 17 19
M  V30 19 1 18 20
M  V30 20 1 19 21
M  V30 21 1 19 22
M  V30 22 1 20 23
M  V30 23 1 20 24
M  V30 24 1 22 25
M  V30 25 1 23 26
M  V30 26 1 24 27
M  V30 27 1 9 11
M  V30 28 1 12 13
M  V30 29 1 22 23
M  V30 30 1 5 28
M  V30 31 1 5 29
M  V30 32 1 5 30
M  V30 33 1 6 31
M  V30 34 1 7 32
M  V30 35 1 9 33
M  V30 36 1 10 34
M  V30 37 1 10 35
M  V30 38 1 11 36
M  V30 39 1 12 37
M  V30 40 1 13 38
M  V30 41 1 15 39
M  V30 42 1 15 40
M  V30 43 1 15 41
M  V30 44 1 16 42
M  V30 45 1 17 43
M  V30 46 1 19 44
M  V30 47 1 20 45
M  V30 48 1 21 46
M  V30 49 1 22 47
M  V30 50 1 23 48
M  V30 51 1 24 49
M  V30 52 1 24 50
M  V30 53 1 25 51
M  V30 54 1 26 52
M  V30 55 1 27 53
M  V30 END BOND
M  V30 BEGIN COLLECTION
M  V30 MDLV30/STEABS ATOMS=(10 7 9 11 12 13 17 19 20 22 23)
M  V30 END COLLECTION
M  V30 END CTAB
M  END
>  <Structure No>
4897

>  <LogS>
-0.5911

>  <MMFF94 Energy>
105.86

$$$$
Compound 4898
Actelion Java MolfileCreator 2.0

  0  0  0  0  0  0              0 V3000
M  V30 BEGIN CTAB
M  V30 COUNTS 17 16 0 0 0
M  V30 BEGIN ATOM
M  V30 1 S 1.0054 1.6761 -0.0837 0 CFG=2
M  V30 2 S -0.8723 1.2066 0.8123 0
M  V30 3 O 0.891 1.3234 -1.5616 0
M  V30 4 C 2.2126 0.5066 0.5936 0
M  V30 5 C -1.5235 0.1817 -0.5505 0
M  V30 6 C 1.8312 -0.9446 0.3274 0
M  V30 7 C -2.846 -0.4459 -0.1373 0
M  V30 8 H 2.2945 0.6707 1.6888 0
M  V30 9 H 3.2019 0.7145 0.1342 0
M  V30 10 H -1.6891 0.8194 -1.4446 0
M  V30 11 H -0.8063 -0.6249 -0.8048 0
M  V30 12 H 1.7079 -1.1213 -0.7615 0
M  V30 13 H 0.8913 -1.2014 0.8586 0
M  V30 14 H 2.6354 -1.6115 0.7033 0
M  V30 15 H -3.2423 -1.0637 -0.9705 0
M  V30 16 H -2.699 -1.0958 0.7514 0
M  V30 17 H -3.5866 0.3455 0.105 0
M  V30 END ATOM
M  V30 BEGIN BOND
M  V30 1 1 1 2
M  V30 2 2 1 3
M  V30 3 1 1 4
M  V30 4 1 2 5
M  V30 5 1 4 6
M  V30 6 1 5 7
M  V30 7 1 4 8
M  V30 8 1 4 9
M  V30 9 1 5 10
M  V30 10 1 5 11
M  V30 11 1 6 12
M  V30 12 1 6 13
M  V30 13 1 6 14
M  V30 14 1 7 15
M  V30 15 1 7 16
M  V30 16 1 7 17
M  V30 END BOND
M  V30 BEGIN COLLECTION
M  V30 MDLV30/STEABS ATOMS=(1 1)
M  V30 END COLLECTION
M  V30 END CTAB
M  END
>  <Structure No>
4898

>  <LogS>
-0.0993

>  <MMFF94 Energy>
-6.7591

$$$$
Compound 4899
Actelion Java MolfileCreator 2.0

  0  0  0  0  0  0              0 V3000
M  V30 BEGIN CTAB
M  V30 COUNTS 39 39 0 0 0
M  V30 BEGIN ATOM
M  V30 1 O -5.2397 -0.9368 1.4055 0
M  V30 2 C -3.9884 -0.8167 0.7971 0
M  V30 3 C -3.6209 0.3265 0.0496 0
M  V30 4 C -3.0811 -1.871 0.941 0
M  V30 5 C -2.3549 0.3702 -0.5603 0
M  V30 6 C -4.5654 1.4893 -0.1314 0
M  V30 7 C -1.8226 -1.8126 0.3415 0
M  V30 8 C -1.4537 -0.6982 -0.4273 0
M  V30 9 O -5.6278 1.1263 -0.97 0
M  V30 10 C -0.0794 -0.618 -1.0583 0 CFG=2
M  V30 11 O 0.2527 -1.8458 -1.6547 0
M  V30 12 C 0.9709 -0.2554 0.0079 0
M  V30 13 N 2.3006 -0.0473 -0.6031 0 CHG=1
M  V30 14 C 3.3838 0.3364 0.3467 0
M  V30 15 C 3.6106 -0.7557 1.4184 0
M  V30 16 C 3.0775 1.6849 1.0408 0
M  V30 17 C 4.6965 0.4999 -0.4534 0
M  V30 18 H -5.9612 -0.2313 1.334 0
M  V30 19 H -3.3549 -2.7429 1.5216 0
M  V30 20 H -2.0676 1.2402 -1.139 0
M  V30 21 H -4.0403 2.3795 -0.5471 0
M  V30 22 H -4.9684 1.8007 0.8549 0
M  V30 23 H -1.1355 -2.6389 0.4754 0
M  V30 24 H -5.2609 1.0918 -1.8921 0
M  V30 25 H -0.071 0.1789 -1.8388 0
M  V30 26 H -0.3005 -1.9233 -2.4758 0
M  V30 27 H 0.6317 0.672 0.5161 0
M  V30 28 H 1.0086 -1.0784 0.753 0
M  V30 29 H 2.5804 -0.931 -1.0912 0
M  V30 30 H 2.213 0.6988 -1.3336 0
M  V30 31 H 4.5274 -0.5405 2.009 0
M  V30 32 H 3.7284 -1.7519 0.9409 0
M  V30 33 H 2.7662 -0.802 2.1371 0
M  V30 34 H 2.2484 1.588 1.7721 0
M  V30 35 H 3.9649 2.0455 1.6048 0
M  V30 36 H 2.8038 2.4568 0.29 0
M  V30 37 H 4.5844 1.2867 -1.2302 0
M  V30 38 H 5.539 0.7879 0.2123 0
M  V30 39 H 4.9658 -0.4519 -0.96 0
M  V30 END ATOM
M  V30 BEGIN BOND
M  V30 1 1 1 2
M  V30 2 2 2 3
M  V30 3 1 2 4
M  V30 4 1 3 5
M  V30 5 1 3 6
M  V30 6 2 4 7
M  V30 7 2 5 8
M  V30 8 1 6 9
M  V30 9 1 8 10
M  V30 10 1 10 11
M  V30 11 1 10 12
M  V30 12 1 12 13
M  V30 13 1 13 14
M  V30 14 1 14 15
M  V30 15 1 14 16
M  V30 16 1 14 17
M  V30 17 1 7 8
M  V30 18 1 1 18
M  V30 19 1 4 19
M  V30 20 1 5 20
M  V30 21 1 6 21
M  V30 22 1 6 22
M  V30 23 1 7 23
M  V30 24 1 9 24
M  V30 25 1 10 25
M  V30 26 1 11 26
M  V30 27 1 12 27
M  V30 28 1 12 28
M  V30 29 1 13 29
M  V30 30 1 13 30
M  V30 31 1 15 31
M  V30 32 1 15 32
M  V30 33 1 15 33
M  V30 34 1 16 34
M  V30 35 1 16 35
M  V30 36 1 16 36
M  V30 37 1 17 37
M  V30 38 1 17 38
M  V30 39 1 17 39
M  V30 END BOND
M  V30 BEGIN COLLECTION
M  V30 MDLV30/STEABS ATOMS=(1 10)
M  V30 END COLLECTION
M  V30 END CTAB
M  END
>  <Structure No>
4899

>  <LogS>
-1.2298

>  <MMFF94 Energy>
53.954

$$$$
Compound 4900
Actelion Java MolfileCreator 2.0

  0  0  0  0  0  0              0 V3000
M  V30 BEGIN CTAB
M  V30 COUNTS 23 23 0 0 0
M  V30 BEGIN ATOM
M  V30 1 O 0.2358 0.1572 1.0224 0
M  V30 2 C 0.9455 -0.2317 -0.1432 0 CFG=1
M  V30 3 C -1.1534 0.3527 0.7676 0 CFG=2
M  V30 4 O 2.3346 -0.223 0.1237 0
M  V30 5 C 0.5341 -1.6593 -0.5539 0
M  V30 6 C -1.7504 -0.6157 -0.2873 0
M  V30 7 C -1.4315 1.8169 0.4162 0
M  V30 8 C 2.8099 1.105 0.1719 0
M  V30 9 C -0.9594 -1.9226 -0.298 0
M  V30 10 H 0.7112 0.4483 -0.9998 0
M  V30 11 H -1.6802 0.1474 1.7253 0
M  V30 12 H 0.7589 -1.8016 -1.6336 0
M  V30 13 H 1.1294 -2.4075 0.0146 0
M  V30 14 H -2.8176 -0.8228 -0.0535 0
M  V30 15 H -1.7082 -0.1658 -1.3043 0
M  V30 16 H -0.9433 2.0946 -0.541 0
M  V30 17 H -1.0401 2.4767 1.2193 0
M  V30 18 H -2.5258 1.9851 0.323 0
M  V30 19 H 2.7268 1.5946 -0.8233 0
M  V30 20 H 3.8845 1.0856 0.4464 0
M  V30 21 H 2.2773 1.7034 0.9443 0
M  V30 22 H -1.3639 -2.6021 -1.079 0
M  V30 23 H -1.0837 -2.4245 0.6871 0
M  V30 END ATOM
M  V30 BEGIN BOND
M  V30 1 1 1 2
M  V30 2 1 1 3
M  V30 3 1 2 4
M  V30 4 1 2 5
M  V30 5 1 3 6
M  V30 6 1 3 7
M  V30 7 1 4 8
M  V30 8 1 5 9
M  V30 9 1 6 9
M  V30 10 1 2 10
M  V30 11 1 3 11
M  V30 12 1 5 12
M  V30 13 1 5 13
M  V30 14 1 6 14
M  V30 15 1 6 15
M  V30 16 1 7 16
M  V30 17 1 7 17
M  V30 18 1 7 18
M  V30 19 1 8 19
M  V30 20 1 8 20
M  V30 21 1 8 21
M  V30 22 1 9 22
M  V30 23 1 9 23
M  V30 END BOND
M  V30 BEGIN COLLECTION
M  V30 MDLV30/STEABS ATOMS=(2 2 3)
M  V30 END COLLECTION
M  V30 END CTAB
M  END
>  <Structure No>
4900

>  <LogS>
-0.5921

>  <MMFF94 Energy>
-5.8156

$$$$
Compound 4901
Actelion Java MolfileCreator 2.0

  0  0  0  0  0  0              0 V3000
M  V30 BEGIN CTAB
M  V30 COUNTS 28 29 0 0 0
M  V30 BEGIN ATOM
M  V30 1 O -1.7703 2.2535 -0.9653 0
M  V30 2 C -1.0612 1.2755 -0.7811 0
M  V30 3 C -1.2727 0.2967 0.3677 0 CFG=2
M  V30 4 C 0.0937 0.9559 -1.6927 0
M  V30 5 O -0.089 0.2773 1.1682 0
M  V30 6 C -1.4737 -1.1126 -0.2584 0
M  V30 7 C -2.4699 0.677 1.2472 0
M  V30 8 C 0.7734 -0.3109 -1.1088 0 CFG=1
M  V30 9 C 1.095 -0.0529 0.4198 0
M  V30 10 C -0.2786 -1.4492 -1.1917 0
M  V30 11 C 2.099 1.1093 0.5765 0
M  V30 12 C 1.7355 -1.3028 1.0612 0
M  V30 13 H 0.8001 1.8092 -1.748 0
M  V30 14 H -0.2799 0.7641 -2.7218 0
M  V30 15 H -1.5418 -1.8741 0.5492 0
M  V30 16 H -2.4219 -1.144 -0.8397 0
M  V30 17 H -2.5884 -0.0598 2.0699 0
M  V30 18 H -3.406 0.6961 0.6485 0
M  V30 19 H -2.3103 1.6801 1.6975 0
M  V30 20 H 1.6849 -0.5716 -1.6896 0
M  V30 21 H 0.1702 -2.427 -0.9189 0
M  V30 22 H -0.6369 -1.5575 -2.2392 0
M  V30 23 H 1.6292 2.0824 0.3264 0
M  V30 24 H 2.4448 1.1933 1.6293 0
M  V30 25 H 2.9855 0.9538 -0.075 0
M  V30 26 H 2.0937 -1.0788 2.089 0
M  V30 27 H 0.9997 -2.1261 1.1617 0
M  V30 28 H 2.5974 -1.6567 0.4559 0
M  V30 END ATOM
M  V30 BEGIN BOND
M  V30 1 2 1 2
M  V30 2 1 2 3
M  V30 3 1 2 4
M  V30 4 1 3 5
M  V30 5 1 3 6
M  V30 6 1 3 7
M  V30 7 1 4 8
M  V30 8 1 5 9
M  V30 9 1 6 10
M  V30 10 1 9 11
M  V30 11 1 9 12
M  V30 12 1 8 9
M  V30 13 1 8 10
M  V30 14 1 4 13
M  V30 15 1 4 14
M  V30 16 1 6 15
M  V30 17 1 6 16
M  V30 18 1 7 17
M  V30 19 1 7 18
M  V30 20 1 7 19
M  V30 21 1 8 20
M  V30 22 1 10 21
M  V30 23 1 10 22
M  V30 24 1 11 23
M  V30 25 1 11 24
M  V30 26 1 11 25
M  V30 27 1 12 26
M  V30 28 1 12 27
M  V30 29 1 12 28
M  V30 END BOND
M  V30 BEGIN COLLECTION
M  V30 MDLV30/STEABS ATOMS=(2 3 8)
M  V30 END COLLECTION
M  V30 END CTAB
M  END
>  <Structure No>
4901

>  <LogS>
-0.9249

>  <MMFF94 Energy>
56.576

$$$$
Compound 4902
Actelion Java MolfileCreator 2.0

  0  0  0  0  0  0              0 V3000
M  V30 BEGIN CTAB
M  V30 COUNTS 26 27 0 0 0
M  V30 BEGIN ATOM
M  V30 1 S -0.1621 0.7297 -0.8919 0
M  V30 2 C 0.2525 -0.5425 0.1564 0
M  V30 3 C -1.8044 0.4773 -0.6634 0
M  V30 4 N -0.8437 -1.1642 0.6603 0
M  V30 5 N 1.5968 -0.9796 0.434 0
M  V30 6 C -1.985 -0.5871 0.2054 0
M  V30 7 C -2.8775 1.169 -1.2194 0
M  V30 8 C 2.7285 -0.1608 0.0897 0
M  V30 9 C 1.8214 -2.3515 0.8948 0
M  V30 10 C -3.2715 -1.0029 0.553 0
M  V30 11 C -4.1761 0.7607 -0.8756 0
M  V30 12 O 3.7524 -0.6924 -0.4206 0
M  V30 13 N 2.7159 1.2471 0.3615 0
M  V30 14 C -4.3725 -0.3204 0.0066 0
M  V30 15 C 3.7977 2.1221 -0.0715 0
M  V30 16 H -2.7166 1.9971 -1.8974 0
M  V30 17 H 1.729 -3.0519 0.0385 0
M  V30 18 H 2.8328 -2.4566 1.343 0
M  V30 19 H 1.0812 -2.6257 1.6759 0
M  V30 20 H -3.4211 -1.8343 1.2298 0
M  V30 21 H -5.0307 1.2786 -1.2911 0
M  V30 22 H 1.927 1.6582 0.9091 0
M  V30 23 H -5.3774 -0.6281 0.2649 0
M  V30 24 H 4.7552 1.7919 0.3833 0
M  V30 25 H 3.5898 3.1652 0.2474 0
M  V30 26 H 3.8824 2.095 -1.1781 0
M  V30 END ATOM
M  V30 BEGIN BOND
M  V30 1 1 1 2
M  V30 2 1 1 3
M  V30 3 2 2 4
M  V30 4 1 2 5
M  V30 5 2 3 6
M  V30 6 1 3 7
M  V30 7 1 5 8
M  V30 8 1 5 9
M  V30 9 1 6 10
M  V30 10 2 7 11
M  V30 11 2 8 12
M  V30 12 1 8 13
M  V30 13 2 10 14
M  V30 14 1 13 15
M  V30 15 1 4 6
M  V30 16 1 11 14
M  V30 17 1 7 16
M  V30 18 1 9 17
M  V30 19 1 9 18
M  V30 20 1 9 19
M  V30 21 1 10 20
M  V30 22 1 11 21
M  V30 23 1 13 22
M  V30 24 1 14 23
M  V30 25 1 15 24
M  V30 26 1 15 25
M  V30 27 1 15 26
M  V30 END BOND
M  V30 END CTAB
M  END
>  <Structure No>
4902

>  <LogS>
-3.5741

>  <MMFF94 Energy>
-68.844

$$$$
Compound 4903
Actelion Java MolfileCreator 2.0

  0  0  0  0  0  0              0 V3000
M  V30 BEGIN CTAB
M  V30 COUNTS 27 26 0 0 0
M  V30 BEGIN ATOM
M  V30 1 O -0.6168 -1.6971 1.0025 0
M  V30 2 C -0.8272 -0.3681 0.5884 0 CFG=2
M  V30 3 C -2.2381 -0.2471 -0.0544 0
M  V30 4 C 0.2956 0.0217 -0.3954 0
M  V30 5 C -3.3242 -0.7442 0.914 0
M  V30 6 C -2.5625 1.1956 -0.4801 0
M  V30 7 C 1.6886 -0.1525 0.2288 0
M  V30 8 C 2.7866 0.3016 -0.7402 0
M  V30 9 C 4.1722 0.1246 -0.126 0
M  V30 10 H -0.8011 -1.7369 1.9775 0
M  V30 11 H -0.7708 0.3265 1.4623 0
M  V30 12 H -2.2757 -0.8912 -0.9612 0
M  V30 13 H 0.2208 -0.6041 -1.3118 0
M  V30 14 H 0.1844 1.0875 -0.686 0
M  V30 15 H -4.3303 -0.6437 0.4534 0
M  V30 16 H -3.1761 -1.8188 1.151 0
M  V30 17 H -3.3029 -0.1591 1.8586 0
M  V30 18 H -2.4037 1.8999 0.3645 0
M  V30 19 H -3.6195 1.2742 -0.8138 0
M  V30 20 H -1.9335 1.5041 -1.3399 0
M  V30 21 H 1.751 0.4487 1.1628 0
M  V30 22 H 1.8519 -1.2221 0.4854 0
M  V30 23 H 2.7295 -0.2945 -1.6771 0
M  V30 24 H 2.6418 1.374 -0.9959 0
M  V30 25 H 4.9449 0.462 -0.8486 0
M  V30 26 H 4.3538 -0.9445 0.1149 0
M  V30 27 H 4.2638 0.7305 0.8007 0
M  V30 END ATOM
M  V30 BEGIN BOND
M  V30 1 1 1 2
M  V30 2 1 2 3
M  V30 3 1 2 4
M  V30 4 1 3 5
M  V30 5 1 3 6
M  V30 6 1 4 7
M  V30 7 1 7 8
M  V30 8 1 8 9
M  V30 9 1 1 10
M  V30 10 1 2 11
M  V30 11 1 3 12
M  V30 12 1 4 13
M  V30 13 1 4 14
M  V30 14 1 5 15
M  V30 15 1 5 16
M  V30 16 1 5 17
M  V30 17 1 6 18
M  V30 18 1 6 19
M  V30 19 1 6 20
M  V30 20 1 7 21
M  V30 21 1 7 22
M  V30 22 1 8 23
M  V30 23 1 8 24
M  V30 24 1 9 25
M  V30 25 1 9 26
M  V30 26 1 9 27
M  V30 END BOND
M  V30 BEGIN COLLECTION
M  V30 MDLV30/STEABS ATOMS=(1 2)
M  V30 END COLLECTION
M  V30 END CTAB
M  END
>  <Structure No>
4903

>  <LogS>
-1.8122

>  <MMFF94 Energy>
6.3821

$$$$
Compound 4904
Actelion Java MolfileCreator 2.0

  0  0  0  0  0  0              0 V3000
M  V30 BEGIN CTAB
M  V30 COUNTS 27 26 0 0 0
M  V30 BEGIN ATOM
M  V30 1 O 0.9255 2.0061 -0.694 0
M  V30 2 C 1.1766 0.7514 -0.1152 0 CFG=1
M  V30 3 C 0.4765 -0.3434 -0.9562 0
M  V30 4 C 2.7038 0.5298 -0.0628 0
M  V30 5 C -1.0712 -0.3732 -0.8545 0 CFG=1
M  V30 6 C 3.1115 -0.5887 0.8981 0
M  V30 7 C -1.5514 -0.6839 0.5834 0
M  V30 8 C -1.7184 0.9055 -1.4117 0
M  V30 9 C -3.0057 -1.1544 0.6279 0
M  V30 10 H 1.0598 2.6863 0.017 0
M  V30 11 H 0.7806 0.7323 0.9254 0
M  V30 12 H 0.7665 -0.2193 -2.0232 0
M  V30 13 H 0.8461 -1.3446 -0.652 0
M  V30 14 H 3.1928 1.4655 0.2868 0
M  V30 15 H 3.0966 0.3098 -1.0794 0
M  V30 16 H -1.3983 -1.2113 -1.5103 0
M  V30 17 H 4.2189 -0.6257 0.97 0
M  V30 18 H 2.7592 -1.576 0.5371 0
M  V30 19 H 2.7008 -0.3988 1.9126 0
M  V30 20 H -0.9214 -1.49 1.019 0
M  V30 21 H -1.4498 0.2132 1.2311 0
M  V30 22 H -2.8 0.7388 -1.5971 0
M  V30 23 H -1.6137 1.7506 -0.6993 0
M  V30 24 H -1.2534 1.1857 -2.3806 0
M  V30 25 H -3.1483 -2.0407 -0.0261 0
M  V30 26 H -3.2697 -1.4393 1.6683 0
M  V30 27 H -3.6918 -0.3434 0.3072 0
M  V30 END ATOM
M  V30 BEGIN BOND
M  V30 1 1 1 2
M  V30 2 1 2 3
M  V30 3 1 2 4
M  V30 4 1 3 5
M  V30 5 1 4 6
M  V30 6 1 5 7
M  V30 7 1 5 8
M  V30 8 1 7 9
M  V30 9 1 1 10
M  V30 10 1 2 11
M  V30 11 1 3 12
M  V30 12 1 3 13
M  V30 13 1 4 14
M  V30 14 1 4 15
M  V30 15 1 5 16
M  V30 16 1 6 17
M  V30 17 1 6 18
M  V30 18 1 6 19
M  V30 19 1 7 20
M  V30 20 1 7 21
M  V30 21 1 8 22
M  V30 22 1 8 23
M  V30 23 1 8 24
M  V30 24 1 9 25
M  V30 25 1 9 26
M  V30 26 1 9 27
M  V30 END BOND
M  V30 BEGIN COLLECTION
M  V30 MDLV30/STEABS ATOMS=(2 2 5)
M  V30 END COLLECTION
M  V30 END CTAB
M  END
>  <Structure No>
4904

>  <LogS>
-1.8602

>  <MMFF94 Energy>
10.435

$$$$
Compound 4905
Actelion Java MolfileCreator 2.0

  0  0  0  0  0  0              0 V3000
M  V30 BEGIN CTAB
M  V30 COUNTS 27 26 0 0 0
M  V30 BEGIN ATOM
M  V30 1 O 1.3109 1.9283 1.1566 0
M  V30 2 C 1.5681 1.0088 0.1239 0 CFG=2
M  V30 3 C 0.4644 -0.071 0.0717 0
M  V30 4 C 2.9753 0.4009 0.3087 0
M  V30 5 C -0.9329 0.5527 -0.0924 0
M  V30 6 C 3.4698 -0.3474 -0.9295 0
M  V30 7 C -2.0326 -0.5012 -0.3535 0
M  V30 8 C -2.2653 -1.4024 0.8687 0
M  V30 9 C -3.3435 0.1934 -0.7445 0
M  V30 10 H 1.3205 1.4263 2.0138 0
M  V30 11 H 1.5551 1.573 -0.8346 0
M  V30 12 H 0.5009 -0.6716 1.0055 0
M  V30 13 H 0.6515 -0.7485 -0.7876 0
M  V30 14 H 3.6925 1.2241 0.5199 0
M  V30 15 H 2.9853 -0.2858 1.183 0
M  V30 16 H -0.9009 1.255 -0.9548 0
M  V30 17 H -1.1894 1.1435 0.8145 0
M  V30 18 H 3.4083 0.3019 -1.8283 0
M  V30 19 H 4.5295 -0.6437 -0.7813 0
M  V30 20 H 2.8766 -1.2697 -1.0966 0
M  V30 21 H -1.7242 -1.1423 -1.2089 0
M  V30 22 H -2.4978 -0.7926 1.7682 0
M  V30 23 H -3.1126 -2.0955 0.6795 0
M  V30 24 H -1.3703 -2.025 1.0726 0
M  V30 25 H -3.1953 0.8096 -1.6569 0
M  V30 26 H -3.6994 0.8502 0.0784 0
M  V30 27 H -4.1282 -0.5609 -0.9665 0
M  V30 END ATOM
M  V30 BEGIN BOND
M  V30 1 1 1 2
M  V30 2 1 2 3
M  V30 3 1 2 4
M  V30 4 1 3 5
M  V30 5 1 4 6
M  V30 6 1 5 7
M  V30 7 1 7 8
M  V30 8 1 7 9
M  V30 9 1 1 10
M  V30 10 1 2 11
M  V30 11 1 3 12
M  V30 12 1 3 13
M  V30 13 1 4 14
M  V30 14 1 4 15
M  V30 15 1 5 16
M  V30 16 1 5 17
M  V30 17 1 6 18
M  V30 18 1 6 19
M  V30 19 1 6 20
M  V30 20 1 7 21
M  V30 21 1 8 22
M  V30 22 1 8 23
M  V30 23 1 8 24
M  V30 24 1 9 25
M  V30 25 1 9 26
M  V30 26 1 9 27
M  V30 END BOND
M  V30 BEGIN COLLECTION
M  V30 MDLV30/STEABS ATOMS=(1 2)
M  V30 END COLLECTION
M  V30 END CTAB
M  END
>  <Structure No>
4905

>  <LogS>
-1.9272

>  <MMFF94 Energy>
7.0905

$$$$
Compound 4906
Actelion Java MolfileCreator 2.0

  0  0  0  0  0  0              0 V3000
M  V30 BEGIN CTAB
M  V30 COUNTS 29 29 0 0 0
M  V30 BEGIN ATOM
M  V30 1 O 6.2322 -0.7973 -1.1961 0
M  V30 2 N 5.6775 -0.1581 -0.2779 0 CHG=1
M  V30 3 O 6.4563 0.6019 0.5645 0 CHG=-1
M  V30 4 C 4.2496 -0.2122 -0.1038 0
M  V30 5 C 3.4504 -0.9915 -0.9598 0
M  V30 6 C 3.6315 0.5085 0.9322 0
M  V30 7 C 2.0636 -1.0405 -0.7879 0
M  V30 8 C 2.245 0.4569 1.103 0
M  V30 9 C 1.4489 -0.3017 0.2387 0
M  V30 10 O 0.0634 -0.3279 0.457 0
M  V30 11 C -0.9093 -0.5328 -0.5299 0
M  V30 12 O -0.6314 -0.408 -1.7537 0
M  V30 13 C -2.3223 -0.8105 -0.1162 0
M  V30 14 C -3.018 0.4543 0.427 0
M  V30 15 C -3.2087 1.51 -0.6724 0
M  V30 16 C -4.3738 0.0884 1.0431 0
M  V30 17 H 3.8982 -1.5703 -1.7574 0
M  V30 18 H 4.2188 1.1117 1.6124 0
M  V30 19 H 1.4819 -1.6789 -1.4384 0
M  V30 20 H 1.7847 1.0173 1.9071 0
M  V30 21 H -2.8951 -1.2253 -0.975 0
M  V30 22 H -2.2963 -1.5903 0.6756 0
M  V30 23 H -2.3887 0.8957 1.2321 0
M  V30 24 H -2.2256 1.8437 -1.0659 0
M  V30 25 H -3.7282 2.402 -0.2615 0
M  V30 26 H -3.8117 1.0991 -1.5105 0
M  V30 27 H -4.8631 0.994 1.4617 0
M  V30 28 H -5.0438 -0.3605 0.2783 0
M  V30 29 H -4.2356 -0.6394 1.871 0
M  V30 END ATOM
M  V30 BEGIN BOND
M  V30 1 2 1 2
M  V30 2 1 2 3
M  V30 3 1 2 4
M  V30 4 2 4 5
M  V30 5 1 4 6
M  V30 6 1 5 7
M  V30 7 2 6 8
M  V30 8 2 7 9
M  V30 9 1 9 10
M  V30 10 1 10 11
M  V30 11 2 11 12
M  V30 12 1 11 13
M  V30 13 1 13 14
M  V30 14 1 14 15
M  V30 15 1 14 16
M  V30 16 1 8 9
M  V30 17 1 5 17
M  V30 18 1 6 18
M  V30 19 1 7 19
M  V30 20 1 8 20
M  V30 21 1 13 21
M  V30 22 1 13 22
M  V30 23 1 14 23
M  V30 24 1 15 24
M  V30 25 1 15 25
M  V30 26 1 15 26
M  V30 27 1 16 27
M  V30 28 1 16 28
M  V30 29 1 16 29
M  V30 END BOND
M  V30 END CTAB
M  END
>  <Structure No>
4906

>  <LogS>
-4.3945

>  <MMFF94 Energy>
60.463

$$$$
Compound 4907
Actelion Java MolfileCreator 2.0

  0  0  0  0  0  0              0 V3000
M  V30 BEGIN CTAB
M  V30 COUNTS 33 34 0 0 0
M  V30 BEGIN ATOM
M  V30 1 S -1.4685 -0.2446 -2.7753 0
M  V30 2 O -1.1452 -0.9322 -4.0713 0
M  V30 3 O -2.03 1.1187 -3.068 0
M  V30 4 N -2.656 -1.1676 -1.9141 0
M  V30 5 C -2.0E-4 -0.1149 -1.8127 0
M  V30 6 C -3.1081 -0.7877 -0.6084 0
M  V30 7 C 0.7332 1.0782 -1.7921 0
M  V30 8 C 0.445 -1.2132 -1.0673 0
M  V30 9 N -2.6343 0.3455 -0.0177 0
M  V30 10 C -4.038 -1.5845 0.0734 0
M  V30 11 C 1.8931 1.1781 -1.0179 0
M  V30 12 C 1.6046 -1.1149 -0.2935 0
M  V30 13 C -3.0356 0.732 1.2225 0
M  V30 14 C -4.4629 -1.2042 1.3483 0
M  V30 15 C 2.3281 0.0862 -0.2451 0
M  V30 16 C -3.9602 -0.039 1.9298 0
M  V30 17 N 3.5289 0.1543 0.543 0
M  V30 18 C 3.9897 1.3403 1.2087 0
M  V30 19 O 3.232 2.3392 1.3416 0
M  V30 20 C 5.3444 1.3607 1.838 0
M  V30 21 H -3.0292 -2.0334 -2.3634 0
M  V30 22 H 0.4136 1.9291 -2.3798 0
M  V30 23 H -0.1059 -2.1451 -1.0841 0
M  V30 24 H -4.4264 -2.4891 -0.377 0
M  V30 25 H 2.46 2.0988 -1.0456 0
M  V30 26 H 1.9352 -1.9727 0.2785 0
M  V30 27 H -2.6365 1.6377 1.6592 0
M  V30 28 H -5.1801 -1.812 1.8848 0
M  V30 29 H -4.2833 0.2632 2.9175 0
M  V30 30 H 4.0568 -0.7319 0.7121 0
M  V30 31 H 6.0702 0.8258 1.1904 0
M  V30 32 H 5.6921 2.4068 1.9731 0
M  V30 33 H 5.2994 0.8606 2.8277 0
M  V30 END ATOM
M  V30 BEGIN BOND
M  V30 1 2 1 2
M  V30 2 2 1 3
M  V30 3 1 1 4
M  V30 4 1 1 5
M  V30 5 1 4 6
M  V30 6 2 5 7
M  V30 7 1 5 8
M  V30 8 2 6 9
M  V30 9 1 6 10
M  V30 10 1 7 11
M  V30 11 2 8 12
M  V30 12 1 9 13
M  V30 13 2 10 14
M  V30 14 2 11 15
M  V30 15 2 13 16
M  V30 16 1 15 17
M  V30 17 1 17 18
M  V30 18 2 18 19
M  V30 19 1 18 20
M  V30 20 1 12 15
M  V30 21 1 14 16
M  V30 22 1 4 21
M  V30 23 1 7 22
M  V30 24 1 8 23
M  V30 25 1 10 24
M  V30 26 1 11 25
M  V30 27 1 12 26
M  V30 28 1 13 27
M  V30 29 1 14 28
M  V30 30 1 16 29
M  V30 31 1 17 30
M  V30 32 1 20 31
M  V30 33 1 20 32
M  V30 34 1 20 33
M  V30 END BOND
M  V30 END CTAB
M  END
>  <Structure No>
4907

>  <LogS>
-3.7162

>  <MMFF94 Energy>
-75.867

$$$$
Compound 4908
Actelion Java MolfileCreator 2.0

  0  0  0  0  0  0              0 V3000
M  V30 BEGIN CTAB
M  V30 COUNTS 30 31 0 0 0
M  V30 BEGIN ATOM
M  V30 1 N 2.6966 -0.1584 1.4269 0
M  V30 2 C 3.8074 0.0573 0.6726 0
M  V30 3 C 1.4593 -0.0952 0.8729 0
M  V30 4 N 3.6862 0.3408 -0.6529 0
M  V30 5 N 5.0993 -0.0126 1.2709 0
M  V30 6 N 0.3546 -0.3083 1.6305 0
M  V30 7 C 1.3143 0.1932 -0.4902 0
M  V30 8 C 2.4682 0.4148 -1.2543 0
M  V30 9 C -0.8995 -0.2448 1.103 0
M  V30 10 N 0.0696 0.2489 -1.03 0
M  V30 11 N 2.3893 0.7152 -2.6499 0
M  V30 12 C -1.0466 0.0263 -0.2823 0
M  V30 13 C -2.065 -0.525 2.0155 0
M  V30 14 C -2.3861 0.1396 -0.9621 0
M  V30 15 C -2.3895 -2.0153 2.0373 0
M  V30 16 C -2.9006 1.5746 -0.9086 0
M  V30 17 H 5.2002 -0.2294 2.2873 0
M  V30 18 H 5.9567 0.152 0.6982 0
M  V30 19 H 1.4717 0.7804 -3.144 0
M  V30 20 H 3.2622 0.876 -3.1998 0
M  V30 21 H -1.8066 -0.202 3.0473 0
M  V30 22 H -2.9631 0.0539 1.7183 0
M  V30 23 H -3.1311 -0.5469 -0.5112 0
M  V30 24 H -2.2812 -0.1611 -2.027 0
M  V30 25 H -3.2494 -2.1984 2.7155 0
M  V30 26 H -1.5159 -2.5932 2.4077 0
M  V30 27 H -2.6566 -2.373 1.0209 0
M  V30 28 H -3.0216 1.9083 0.1433 0
M  V30 29 H -3.8865 1.635 -1.4158 0
M  V30 30 H -2.1924 2.2561 -1.4266 0
M  V30 END ATOM
M  V30 BEGIN BOND
M  V30 1 2 1 2
M  V30 2 1 1 3
M  V30 3 1 2 4
M  V30 4 1 2 5
M  V30 5 2 3 6
M  V30 6 1 3 7
M  V30 7 2 4 8
M  V30 8 1 6 9
M  V30 9 2 7 10
M  V30 10 1 8 11
M  V30 11 2 9 12
M  V30 12 1 9 13
M  V30 13 1 12 14
M  V30 14 1 13 15
M  V30 15 1 14 16
M  V30 16 1 7 8
M  V30 17 1 10 12
M  V30 18 1 5 17
M  V30 19 1 5 18
M  V30 20 1 11 19
M  V30 21 1 11 20
M  V30 22 1 13 21
M  V30 23 1 13 22
M  V30 24 1 14 23
M  V30 25 1 14 24
M  V30 26 1 15 25
M  V30 27 1 15 26
M  V30 28 1 15 27
M  V30 29 1 16 28
M  V30 30 1 16 29
M  V30 31 1 16 30
M  V30 END BOND
M  V30 END CTAB
M  END
>  <Structure No>
4908

>  <LogS>
-3.2671

>  <MMFF94 Energy>
-28.754

$$$$
Compound 4909
Actelion Java MolfileCreator 2.0

  0  0  0  0  0  0              0 V3000
M  V30 BEGIN CTAB
M  V30 COUNTS 19 20 0 0 0
M  V30 BEGIN ATOM
M  V30 1 N 0.0799 -0.7198 -0.9598 0
M  V30 2 C 1.1919 -0.1686 -0.4003 0
M  V30 3 C -1.1518 -0.4724 -0.4457 0
M  V30 4 N 1.0729 0.6422 0.6896 0
M  V30 5 N 2.479 -0.4459 -0.9623 0
M  V30 6 N -2.2597 -1.0238 -1.0061 0
M  V30 7 C -1.2882 0.3604 0.6759 0
M  V30 8 C -0.1406 0.9166 1.2367 0
M  V30 9 C 3.7031 0.1161 -0.4054 0
M  V30 10 C -3.4962 -0.7789 -0.4945 0
M  V30 11 N -2.5233 0.6052 1.1871 0
M  V30 12 C -3.6306 0.0516 0.6238 0
M  V30 13 H 2.5445 -1.0702 -1.7976 0
M  V30 14 H -0.2074 1.5635 2.1018 0
M  V30 15 H 3.8253 -0.2159 0.647 0
M  V30 16 H 3.6597 1.2249 -0.4431 0
M  V30 17 H 4.5786 -0.2289 -0.9946 0
M  V30 18 H -4.369 -1.2252 -0.9518 0
M  V30 19 H -4.6083 0.2543 1.0401 0
M  V30 END ATOM
M  V30 BEGIN BOND
M  V30 1 2 1 2
M  V30 2 1 1 3
M  V30 3 1 2 4
M  V30 4 1 2 5
M  V30 5 2 3 6
M  V30 6 1 3 7
M  V30 7 2 4 8
M  V30 8 1 5 9
M  V30 9 1 6 10
M  V30 10 2 7 11
M  V30 11 2 10 12
M  V30 12 1 7 8
M  V30 13 1 11 12
M  V30 14 1 5 13
M  V30 15 1 8 14
M  V30 16 1 9 15
M  V30 17 1 9 16
M  V30 18 1 9 17
M  V30 19 1 10 18
M  V30 20 1 12 19
M  V30 END BOND
M  V30 END CTAB
M  END
>  <Structure No>
4909

>  <LogS>
-1.7124

>  <MMFF94 Energy>
-12.093

$$$$
Compound 4910
Actelion Java MolfileCreator 2.0

  0  0  0  0  0  0              0 V3000
M  V30 BEGIN CTAB
M  V30 COUNTS 34 36 0 0 0
M  V30 BEGIN ATOM
M  V30 1 O 0.8029 2.0081 0.0 0
M  V30 2 C 1.4574 0.9347 -0.1041 0
M  V30 3 N 0.7685 -0.3297 -0.0839 0
M  V30 4 C 2.9324 1.0055 -0.2393 0
M  V30 5 C -0.6636 -0.4511 -0.013 0
M  V30 6 C 3.7694 -0.0257 0.2249 0
M  V30 7 C 3.5311 2.1366 -0.8195 0
M  V30 8 C -1.2459 -1.4333 0.8082 0
M  V30 9 C -1.4929 0.3638 -0.8044 0
M  V30 10 N 5.1192 0.0741 0.0922 0
M  V30 11 C 4.919 2.211 -0.9464 0
M  V30 12 N -0.4638 -2.2467 1.5716 0
M  V30 13 C -2.6515 -1.5708 0.8579 0
M  V30 14 C -2.894 0.2296 -0.7557 0
M  V30 15 C 5.7051 1.1567 -0.4826 0
M  V30 16 C -0.9939 -3.1993 2.3839 0
M  V30 17 C -3.4634 -0.7359 0.0801 0
M  V30 18 C -3.2101 -2.5487 1.692 0
M  V30 19 O -3.7526 1.031 -1.5237 0
M  V30 20 C -2.3779 -3.3667 2.4578 0
M  V30 21 C -3.3184 2.055 -2.4128 0
M  V30 22 H 1.322 -1.2138 -0.0833 0
M  V30 23 H 3.3637 -0.8967 0.719 0
M  V30 24 H 2.9253 2.9563 -1.1856 0
M  V30 25 H -1.0417 1.0817 -1.4743 0
M  V30 26 H 5.3808 3.0782 -1.4005 0
M  V30 27 H 6.782 1.2013 -0.5736 0
M  V30 28 H -0.3397 -3.8268 2.974 0
M  V30 29 H -4.5422 -0.8363 0.1146 0
M  V30 30 H -4.2842 -2.679 1.7515 0
M  V30 31 H -2.802 -4.1241 3.1044 0
M  V30 32 H -2.7508 2.8298 -1.8553 0
M  V30 33 H -4.2056 2.5308 -2.8785 0
M  V30 34 H -2.6859 1.6206 -3.2156 0
M  V30 END ATOM
M  V30 BEGIN BOND
M  V30 1 2 1 2
M  V30 2 1 2 3
M  V30 3 1 2 4
M  V30 4 1 3 5
M  V30 5 2 4 6
M  V30 6 1 4 7
M  V30 7 1 5 8
M  V30 8 2 5 9
M  V30 9 1 6 10
M  V30 10 2 7 11
M  V30 11 2 8 12
M  V30 12 1 8 13
M  V30 13 1 9 14
M  V30 14 2 10 15
M  V30 15 1 12 16
M  V30 16 1 13 17
M  V30 17 2 13 18
M  V30 18 1 14 19
M  V30 19 2 16 20
M  V30 20 1 19 21
M  V30 21 1 11 15
M  V30 22 2 14 17
M  V30 23 1 18 20
M  V30 24 1 3 22
M  V30 25 1 6 23
M  V30 26 1 7 24
M  V30 27 1 9 25
M  V30 28 1 11 26
M  V30 29 1 15 27
M  V30 30 1 16 28
M  V30 31 1 17 29
M  V30 32 1 18 30
M  V30 33 1 20 31
M  V30 34 1 21 32
M  V30 35 1 21 33
M  V30 36 1 21 34
M  V30 END BOND
M  V30 END CTAB
M  END
>  <Structure No>
4910

>  <LogS>
-4.4461

>  <MMFF94 Energy>
67.115

$$$$
Compound 4911
Actelion Java MolfileCreator 2.0

  0  0  0  0  0  0              0 V3000
M  V30 BEGIN CTAB
M  V30 COUNTS 60 61 0 0 0
M  V30 BEGIN ATOM
M  V30 1 O -2.5579 -0.8787 2.0779 0
M  V30 2 C -3.5014 -0.1272 1.7095 0
M  V30 3 N -3.7858 0.04 0.3757 0
M  V30 4 N -4.2413 0.5129 2.655 0
M  V30 5 C -4.8485 0.8182 0.0086 0
M  V30 6 C -3.0149 -0.6472 -0.6824 0 CFG=1
M  V30 7 C -5.2868 1.3099 2.3158 0
M  V30 8 C -5.6322 1.4669 0.968 0
M  V30 9 O -1.6275 -0.5926 -0.4172 0
M  V30 10 C -3.4403 -2.1067 -0.8188 0 CFG=1
M  V30 11 O -5.9413 1.8987 3.2185 0
M  V30 12 C -6.7678 2.3604 0.5348 0
M  V30 13 C -1.1104 -1.9001 -0.5664 0 CFG=1
M  V30 14 O -4.4686 -2.2641 -1.762 0
M  V30 15 C -2.1624 -2.7664 -1.2672 0 CFG=2
M  V30 16 O -6.2787 3.6252 0.1808 0
M  V30 17 C 0.2595 -1.8494 -1.2817 0 CFG=1
M  V30 18 O -2.0276 -2.6888 -2.6658 0
M  V30 19 N 1.1879 -1.0208 -0.5077 0
M  V30 20 C 0.8508 -3.2228 -1.4563 0
M  V30 21 C 1.3587 0.3865 -0.7542 0
M  V30 22 O 0.9043 -4.0259 -0.487 0
M  V30 23 O 1.3837 -3.5952 -2.6838 0 CHG=-1
M  V30 24 O 0.8137 0.9202 -1.7598 0
M  V30 25 C 2.2163 1.2481 0.1496 0 CFG=1
M  V30 26 N 2.0633 0.8867 1.5679 0 CHG=1
M  V30 27 C 3.7085 1.2903 -0.2874 0 CFG=2
M  V30 28 O 3.8053 2.0241 -1.4849 0
M  V30 29 C 4.3748 -0.1097 -0.4571 0 CFG=1
M  V30 30 O 3.9054 -0.7589 -1.6146 0
M  V30 31 C 5.9157 -0.0434 -0.4815 0
M  V30 32 O 6.4341 0.2847 0.8092 0
M  V30 33 C 6.8756 1.5617 1.1744 0
M  V30 34 O 6.8719 2.5109 0.3438 0
M  V30 35 N 7.3393 1.7883 2.504 0
M  V30 36 H -4.0017 0.386 3.6656 0
M  V30 37 H -5.0971 0.9426 -1.0392 0
M  V30 38 H -3.1685 -0.1359 -1.6616 0
M  V30 39 H -3.7462 -2.5338 0.1654 0
M  V30 40 H -7.2783 1.9165 -0.348 0
M  V30 41 H -7.5374 2.4549 1.3342 0
M  V30 42 H -0.9502 -2.3141 0.4552 0
M  V30 43 H -5.2927 -1.9031 -1.3412 0
M  V30 44 H -2.103 -3.8234 -0.9162 0
M  V30 45 H -6.0278 4.0808 1.028 0
M  V30 46 H 0.1233 -1.4077 -2.2929 0
M  V30 47 H -2.4704 -3.4935 -3.0416 0
M  V30 48 H 1.6433 -1.4507 0.3287 0
M  V30 49 H 1.8305 2.2895 0.0466 0
M  V30 50 H 1.048 0.8046 1.8087 0
M  V30 51 H 2.5428 -0.0097 1.8008 0
M  V30 52 H 2.474 1.6409 2.1642 0
M  V30 53 H 4.2425 1.843 0.5189 0
M  V30 54 H 4.7127 2.4294 -1.5128 0
M  V30 55 H 4.1067 -0.7485 0.4086 0
M  V30 56 H 4.2549 -0.2689 -2.4047 0
M  V30 57 H 6.2825 0.6576 -1.2618 0
M  V30 58 H 6.3017 -1.0503 -0.75 0
M  V30 59 H 7.3762 1.0002 3.1871 0
M  V30 60 H 7.6591 2.7376 2.7998 0
M  V30 END ATOM
M  V30 BEGIN BOND
M  V30 1 2 1 2
M  V30 2 1 2 3
M  V30 3 1 2 4
M  V30 4 1 3 5
M  V30 5 1 3 6
M  V30 6 1 4 7
M  V30 7 2 5 8
M  V30 8 1 6 9
M  V30 9 1 6 10
M  V30 10 2 7 11
M  V30 11 1 8 12
M  V30 12 1 9 13
M  V30 13 1 10 14
M  V30 14 1 10 15
M  V30 15 1 12 16
M  V30 16 1 13 17
M  V30 17 1 15 18
M  V30 18 1 17 19
M  V30 19 1 17 20
M  V30 20 1 19 21
M  V30 21 2 20 22
M  V30 22 1 20 23
M  V30 23 2 21 24
M  V30 24 1 21 25
M  V30 25 1 25 26
M  V30 26 1 25 27
M  V30 27 1 27 28
M  V30 28 1 27 29
M  V30 29 1 29 30
M  V30 30 1 29 31
M  V30 31 1 31 32
M  V30 32 1 32 33
M  V30 33 2 33 34
M  V30 34 1 33 35
M  V30 35 1 7 8
M  V30 36 1 13 15
M  V30 37 1 4 36
M  V30 38 1 5 37
M  V30 39 1 6 38
M  V30 40 1 10 39
M  V30 41 1 12 40
M  V30 42 1 12 41
M  V30 43 1 13 42
M  V30 44 1 14 43
M  V30 45 1 15 44
M  V30 46 1 16 45
M  V30 47 1 17 46
M  V30 48 1 18 47
M  V30 49 1 19 48
M  V30 50 1 25 49
M  V30 51 1 26 50
M  V30 52 1 26 51
M  V30 53 1 26 52
M  V30 54 1 27 53
M  V30 55 1 28 54
M  V30 56 1 29 55
M  V30 57 1 30 56
M  V30 58 1 31 57
M  V30 59 1 31 58
M  V30 60 1 35 59
M  V30 61 1 35 60
M  V30 END BOND
M  V30 BEGIN COLLECTION
M  V30 MDLV30/STEABS ATOMS=(8 6 10 13 15 17 25 27 29)
M  V30 END COLLECTION
M  V30 END CTAB
M  END
>  <Structure No>
4911

>  <LogS>
0.2946

>  <MMFF94 Energy>
-95.893

$$$$
Compound 4912
Actelion Java MolfileCreator 2.0

  0  0  0  0  0  0              0 V3000
M  V30 BEGIN CTAB
M  V30 COUNTS 18 18 0 0 0
M  V30 BEGIN ATOM
M  V30 1 Cl -2.3891 3.1314 -0.9057 0
M  V30 2 C -1.4311 1.7127 -0.5108 0
M  V30 3 C -0.0333 1.7919 -0.4527 0
M  V30 4 C -2.0748 0.4987 -0.2539 0
M  V30 5 O 0.6059 3.0006 -0.7085 0 CHG=-1
M  V30 6 C 0.7271 0.6574 -0.1373 0
M  V30 7 C -1.3279 -0.6471 0.0634 0
M  V30 8 O 2.1247 0.7812 -0.0899 0
M  V30 9 C 0.0717 -0.5627 0.1204 0
M  V30 10 C -1.9916 -1.9356 0.3372 0
M  V30 11 C 3.0187 -0.2839 0.2161 0
M  V30 12 O -3.246 -2.0439 0.294 0
M  V30 13 H -3.156 0.4533 -0.3026 0
M  V30 14 H 0.6428 -1.4485 0.3655 0
M  V30 15 H -1.3994 -2.8086 0.5803 0
M  V30 16 H 4.0602 0.096 0.182 0
M  V30 17 H 2.8152 -0.672 1.2365 0
M  V30 18 H 2.9129 -1.098 -0.5316 0
M  V30 END ATOM
M  V30 BEGIN BOND
M  V30 1 1 1 2
M  V30 2 2 2 3
M  V30 3 1 2 4
M  V30 4 1 3 5
M  V30 5 1 3 6
M  V30 6 2 4 7
M  V30 7 1 6 8
M  V30 8 2 6 9
M  V30 9 1 7 10
M  V30 10 1 8 11
M  V30 11 2 10 12
M  V30 12 1 7 9
M  V30 13 1 4 13
M  V30 14 1 9 14
M  V30 15 1 10 15
M  V30 16 1 11 16
M  V30 17 1 11 17
M  V30 18 1 11 18
M  V30 END BOND
M  V30 END CTAB
M  END
>  <Structure No>
4912

>  <LogS>
-2.8747

>  <MMFF94 Energy>
47.066

$$$$
Compound 4913
Actelion Java MolfileCreator 2.0

  0  0  0  0  0  0              0 V3000
M  V30 BEGIN CTAB
M  V30 COUNTS 30 29 0 0 0
M  V30 BEGIN ATOM
M  V30 1 O -0.8505 -0.5411 -1.8564 0
M  V30 2 C -0.0838 -0.8277 -0.7132 0 CFG=1
M  V30 3 C 1.1861 0.0857 -0.6437 0 CFG=2
M  V30 4 C -0.9958 -0.8894 0.5547 0 CFG=1
M  V30 5 C 1.9745 -0.0976 0.6754 0
M  V30 6 C 0.9143 1.5713 -0.955 0
M  V30 7 C -1.649 0.4415 1.0093 0
M  V30 8 C -2.0548 -1.9965 0.3995 0
M  V30 9 C 3.3968 0.4603 0.6031 0
M  V30 10 C -2.5538 1.1178 -0.024 0
M  V30 11 H -0.3201 -0.8315 -2.644 0
M  V30 12 H 0.3134 -1.8656 -0.8281 0
M  V30 13 H 1.8466 -0.2731 -1.466 0
M  V30 14 H -0.3603 -1.2209 1.4043 0
M  V30 15 H 1.4418 0.3945 1.5169 0
M  V30 16 H 2.0518 -1.1827 0.9061 0
M  V30 17 H 0.4589 2.1032 -0.0996 0
M  V30 18 H 0.2628 1.6831 -1.8457 0
M  V30 19 H 1.867 2.0861 -1.1981 0
M  V30 20 H -2.2631 0.24 1.9143 0
M  V30 21 H -0.8719 1.153 1.3457 0
M  V30 22 H -2.7119 -1.8081 -0.4745 0
M  V30 23 H -1.5596 -2.9806 0.2557 0
M  V30 24 H -2.6838 -2.0656 1.3126 0
M  V30 25 H 3.3817 1.5666 0.5174 0
M  V30 26 H 3.9426 0.0276 -0.2618 0
M  V30 27 H 3.944 0.1956 1.5324 0
M  V30 28 H -3.3499 0.4287 -0.3715 0
M  V30 29 H -3.0435 1.998 0.4433 0
M  V30 30 H -1.971 1.4826 -0.8913 0
M  V30 END ATOM
M  V30 BEGIN BOND
M  V30 1 1 1 2
M  V30 2 1 2 3
M  V30 3 1 2 4
M  V30 4 1 3 5
M  V30 5 1 3 6
M  V30 6 1 4 7
M  V30 7 1 4 8
M  V30 8 1 5 9
M  V30 9 1 7 10
M  V30 10 1 1 11
M  V30 11 1 2 12
M  V30 12 1 3 13
M  V30 13 1 4 14
M  V30 14 1 5 15
M  V30 15 1 5 16
M  V30 16 1 6 17
M  V30 17 1 6 18
M  V30 18 1 6 19
M  V30 19 1 7 20
M  V30 20 1 7 21
M  V30 21 1 8 22
M  V30 22 1 8 23
M  V30 23 1 8 24
M  V30 24 1 9 25
M  V30 25 1 9 26
M  V30 26 1 9 27
M  V30 27 1 10 28
M  V30 28 1 10 29
M  V30 29 1 10 30
M  V30 END BOND
M  V30 BEGIN COLLECTION
M  V30 MDLV30/STEABS ATOMS=(3 2 3 4)
M  V30 END COLLECTION
M  V30 END CTAB
M  END
>  <Structure No>
4913

>  <LogS>
-2.5108

>  <MMFF94 Energy>
17.902

$$$$
Compound 4914
Actelion Java MolfileCreator 2.0

  0  0  0  0  0  0              0 V3000
M  V30 BEGIN CTAB
M  V30 COUNTS 26 27 0 0 0
M  V30 BEGIN ATOM
M  V30 1 Cl -2.884 -3.214 -1.4824 0
M  V30 2 C -2.525 -1.5907 -0.9081 0
M  V30 3 C -1.5384 -1.354 0.0714 0
M  V30 4 C -3.2436 -0.5198 -1.4495 0
M  V30 5 O -0.8029 -2.4069 0.6212 0
M  V30 6 C -1.288 -0.0345 0.5052 0
M  V30 7 C -2.9881 0.7859 -1.0274 0
M  V30 8 C -2.0132 1.0286 -0.0576 0
M  V30 9 C -0.2135 0.2589 1.523 0
M  V30 10 Cl -3.8885 2.1232 -1.7193 0
M  V30 11 C 1.1138 0.4593 0.8419 0
M  V30 12 C 1.443 1.7084 0.2883 0
M  V30 13 C 2.0164 -0.6098 0.7114 0
M  V30 14 C 2.662 1.8871 -0.3728 0
M  V30 15 C 3.2344 -0.4266 0.0493 0
M  V30 16 C 3.5572 0.8207 -0.4915 0
M  V30 17 H -4.0001 -0.7028 -2.2025 0
M  V30 18 H -0.9349 -3.3722 0.348 0
M  V30 19 H -1.8192 2.047 0.2567 0
M  V30 20 H -0.476 1.1701 2.1047 0
M  V30 21 H -0.1486 -0.5646 2.2671 0
M  V30 22 H 0.756 2.5418 0.3682 0
M  V30 23 H 1.7793 -1.5829 1.1224 0
M  V30 24 H 2.9113 2.8518 -0.7953 0
M  V30 25 H 3.9272 -1.2526 -0.0459 0
M  V30 26 H 4.5 0.9605 -1.0045 0
M  V30 END ATOM
M  V30 BEGIN BOND
M  V30 1 1 1 2
M  V30 2 2 2 3
M  V30 3 1 2 4
M  V30 4 1 3 5
M  V30 5 1 3 6
M  V30 6 2 4 7
M  V30 7 2 6 8
M  V30 8 1 6 9
M  V30 9 1 7 10
M  V30 10 1 9 11
M  V30 11 2 11 12
M  V30 12 1 11 13
M  V30 13 1 12 14
M  V30 14 2 13 15
M  V30 15 2 14 16
M  V30 16 1 7 8
M  V30 17 1 15 16
M  V30 18 1 4 17
M  V30 19 1 5 18
M  V30 20 1 8 19
M  V30 21 1 9 20
M  V30 22 1 9 21
M  V30 23 1 12 22
M  V30 24 1 13 23
M  V30 25 1 14 24
M  V30 26 1 15 25
M  V30 27 1 16 26
M  V30 END BOND
M  V30 END CTAB
M  END
>  <Structure No>
4914

>  <LogS>
-4.6399

>  <MMFF94 Energy>
37.336

$$$$
Compound 4915
Actelion Java MolfileCreator 2.0

  0  0  0  0  0  0              0 V3000
M  V30 BEGIN CTAB
M  V30 COUNTS 16 17 0 0 0
M  V30 BEGIN ATOM
M  V30 1 Cl 3.7489 1.0819 0.0831 0
M  V30 2 C 2.1077 0.4651 0.0457 0
M  V30 3 C 1.0229 1.3554 0.1367 0
M  V30 4 C 1.8796 -0.9229 -0.0755 0
M  V30 5 C -0.2636 0.8214 0.1029 0
M  V30 6 C 0.5677 -1.4287 -0.1066 0
M  V30 7 C -1.554 1.4555 0.1733 0
M  V30 8 C -0.4937 -0.5279 -0.0149 0
M  V30 9 O -1.7678 2.6907 0.2858 0
M  V30 10 O -2.5507 0.4913 0.0979 0
M  V30 11 C -1.9678 -0.8116 -0.0244 0
M  V30 12 H 1.1795 2.4224 0.2303 0
M  V30 13 H 2.7167 -1.6055 -0.1453 0
M  V30 14 H 0.3864 -2.4915 -0.1994 0
M  V30 15 H -2.2526 -1.4436 0.8427 0
M  V30 16 H -2.272 -1.2807 -0.9836 0
M  V30 END ATOM
M  V30 BEGIN BOND
M  V30 1 1 1 2
M  V30 2 2 2 3
M  V30 3 1 2 4
M  V30 4 1 3 5
M  V30 5 2 4 6
M  V30 6 1 5 7
M  V30 7 2 5 8
M  V30 8 2 7 9
M  V30 9 1 7 10
M  V30 10 1 8 11
M  V30 11 1 6 8
M  V30 12 1 10 11
M  V30 13 1 3 12
M  V30 14 1 4 13
M  V30 15 1 6 14
M  V30 16 1 11 15
M  V30 17 1 11 16
M  V30 END BOND
M  V30 END CTAB
M  END
>  <Structure No>
4915

>  <LogS>
-2.4817

>  <MMFF94 Energy>
18.484

$$$$
Compound 4916
Actelion Java MolfileCreator 2.0

  0  0  0  0  0  0              0 V3000
M  V30 BEGIN CTAB
M  V30 COUNTS 27 28 0 0 0
M  V30 BEGIN ATOM
M  V30 1 O 3.9426 -0.5625 1.7686 0
M  V30 2 C 3.3 -1.3048 0.9802 0
M  V30 3 O 3.8373 -2.5357 0.6223 0 CHG=-1
M  V30 4 C 1.9517 -0.919 0.5019 0
M  V30 5 C 1.6007 0.4087 0.1352 0
M  V30 6 C 0.9776 -1.9245 0.4411 0
M  V30 7 C 0.252 0.7016 -0.2222 0
M  V30 8 C 2.5569 1.4477 0.0738 0
M  V30 9 C -0.3342 -1.6349 0.0772 0
M  V30 10 C -0.7179 -0.3226 -0.2425 0
M  V30 11 C -0.1036 2.0208 -0.5669 0
M  V30 12 C 2.181 2.7451 -0.2764 0
M  V30 13 O -2.0423 -0.0031 -0.5995 0
M  V30 14 C 0.8549 3.0325 -0.5864 0
M  V30 15 C -3.1614 -0.8888 -0.5524 0
M  V30 16 C -3.6195 -1.106 0.8858 0
M  V30 17 H 1.2266 -2.9451 0.7065 0
M  V30 18 H 3.6044 1.2718 0.2661 0
M  V30 19 H -1.0444 -2.4483 0.0567 0
M  V30 20 H -1.1223 2.2762 -0.8312 0
M  V30 21 H 2.9249 3.5305 -0.3153 0
M  V30 22 H 0.5706 4.0413 -0.8575 0
M  V30 23 H -2.9271 -1.8539 -1.0486 0
M  V30 24 H -3.9964 -0.4231 -1.1169 0
M  V30 25 H -4.5175 -1.7588 0.8964 0
M  V30 26 H -2.8212 -1.5897 1.4849 0
M  V30 27 H -3.8785 -0.1311 1.3504 0
M  V30 END ATOM
M  V30 BEGIN BOND
M  V30 1 2 1 2
M  V30 2 1 2 3
M  V30 3 1 2 4
M  V30 4 1 4 5
M  V30 5 2 4 6
M  V30 6 1 5 7
M  V30 7 2 5 8
M  V30 8 1 6 9
M  V30 9 1 7 10
M  V30 10 2 7 11
M  V30 11 1 8 12
M  V30 12 1 10 13
M  V30 13 1 11 14
M  V30 14 1 13 15
M  V30 15 1 15 16
M  V30 16 2 9 10
M  V30 17 2 12 14
M  V30 18 1 6 17
M  V30 19 1 8 18
M  V30 20 1 9 19
M  V30 21 1 11 20
M  V30 22 1 12 21
M  V30 23 1 14 22
M  V30 24 1 15 23
M  V30 25 1 15 24
M  V30 26 1 16 25
M  V30 27 1 16 26
M  V30 28 1 16 27
M  V30 END BOND
M  V30 END CTAB
M  END
>  <Structure No>
4916

>  <LogS>
-4.1122

>  <MMFF94 Energy>
63.492

$$$$
Compound 4917
Actelion Java MolfileCreator 2.0

  0  0  0  0  0  0              0 V3000
M  V30 BEGIN CTAB
M  V30 COUNTS 29 29 0 0 0
M  V30 BEGIN ATOM
M  V30 1 O -1.0975 -1.8036 -0.0783 0
M  V30 2 C -1.2725 -0.4866 -0.5511 0 CFG=2
M  V30 3 C 0.0755 0.0562 -1.1479 0 CFG=1
M  V30 4 C -1.7802 0.4273 0.6072 0
M  V30 5 C -2.3408 -0.514 -1.6717 0
M  V30 6 O -0.0798 1.3861 -1.5846 0
M  V30 7 C 1.3507 -0.0798 -0.308 0
M  V30 8 C -2.8498 -0.2247 1.4885 0
M  V30 9 C 1.3939 -0.623 0.9963 0
M  V30 10 C 2.5606 0.3449 -0.8922 0
M  V30 11 C 2.6062 -0.719 1.6871 0
M  V30 12 C 3.7684 0.2458 -0.1965 0
M  V30 13 C 3.791 -0.2843 1.0929 0
M  V30 14 H -0.7507 -2.357 -0.8266 0
M  V30 15 H 0.2779 -0.5488 -2.0597 0
M  V30 16 H -2.201 1.3692 0.1917 0
M  V30 17 H -0.9441 0.7355 1.2664 0
M  V30 18 H -3.2809 -0.9802 -1.3116 0
M  V30 19 H -1.986 -1.1134 -2.5373 0
M  V30 20 H -2.5694 0.5118 -2.0322 0
M  V30 21 H -0.0324 1.9747 -0.7865 0
M  V30 22 H -3.1607 0.4911 2.2786 0
M  V30 23 H -3.7473 -0.4927 0.8952 0
M  V30 24 H -2.4481 -1.1327 1.9852 0
M  V30 25 H 0.5111 -0.9785 1.5019 0
M  V30 26 H 2.5679 0.7558 -1.8945 0
M  V30 27 H 2.6263 -1.1339 2.6867 0
M  V30 28 H 4.688 0.5797 -0.6596 0
M  V30 29 H 4.7271 -0.3611 1.6309 0
M  V30 END ATOM
M  V30 BEGIN BOND
M  V30 1 1 1 2
M  V30 2 1 2 3
M  V30 3 1 2 4
M  V30 4 1 2 5
M  V30 5 1 3 6
M  V30 6 1 3 7
M  V30 7 1 4 8
M  V30 8 2 7 9
M  V30 9 1 7 10
M  V30 10 1 9 11
M  V30 11 2 10 12
M  V30 12 2 11 13
M  V30 13 1 12 13
M  V30 14 1 1 14
M  V30 15 1 3 15
M  V30 16 1 4 16
M  V30 17 1 4 17
M  V30 18 1 5 18
M  V30 19 1 5 19
M  V30 20 1 5 20
M  V30 21 1 6 21
M  V30 22 1 8 22
M  V30 23 1 8 23
M  V30 24 1 8 24
M  V30 25 1 9 25
M  V30 26 1 10 26
M  V30 27 1 11 27
M  V30 28 1 12 28
M  V30 29 1 13 29
M  V30 END BOND
M  V30 BEGIN COLLECTION
M  V30 MDLV30/STEABS ATOMS=(2 2 3)
M  V30 END COLLECTION
M  V30 END CTAB
M  END
>  <Structure No>
4917

>  <LogS>
-1.7244

>  <MMFF94 Energy>
59.595

$$$$
Compound 4918
Actelion Java MolfileCreator 2.0

  0  0  0  0  0  0              0 V3000
M  V30 BEGIN CTAB
M  V30 COUNTS 26 25 0 0 0
M  V30 BEGIN ATOM
M  V30 1 O 0.3934 -1.7319 -2.9141 0
M  V30 2 C 0.5568 -2.1444 -1.7347 0
M  V30 3 O 1.1268 -3.3935 -1.5239 0 CHG=-1
M  V30 4 C 0.1955 -1.285 -0.5514 0 CFG=1
M  V30 5 N 1.3892 -0.6088 -0.0297 0
M  V30 6 C -0.9402 -0.2828 -0.8697 0
M  V30 7 C 2.1743 0.3389 -0.7706 0
M  V30 8 C -1.3223 0.6317 0.3197 0
M  V30 9 O 1.9082 0.5947 -1.9756 0
M  V30 10 C 3.3384 1.009 -0.117 0
M  V30 11 C -2.324 1.6983 -0.1424 0
M  V30 12 C -1.9136 -0.1634 1.4935 0
M  V30 13 H -0.179 -1.982 0.2285 0
M  V30 14 H 1.6796 -0.827 0.9504 0
M  V30 15 H -0.6337 0.3571 -1.7249 0
M  V30 16 H -1.8392 -0.8509 -1.1976 0
M  V30 17 H -0.415 1.1643 0.6796 0
M  V30 18 H 3.7326 1.8239 -0.7606 0
M  V30 19 H 4.1423 0.2645 0.0587 0
M  V30 20 H 3.022 1.4425 0.8547 0
M  V30 21 H -2.5732 2.3827 0.6965 0
M  V30 22 H -3.26 1.2241 -0.5091 0
M  V30 23 H -1.886 2.3085 -0.9609 0
M  V30 24 H -2.2705 0.528 2.2865 0
M  V30 25 H -1.1426 -0.816 1.952 0
M  V30 26 H -2.7678 -0.7881 1.1547 0
M  V30 END ATOM
M  V30 BEGIN BOND
M  V30 1 2 1 2
M  V30 2 1 2 3
M  V30 3 1 2 4
M  V30 4 1 4 5
M  V30 5 1 4 6
M  V30 6 1 5 7
M  V30 7 1 6 8
M  V30 8 2 7 9
M  V30 9 1 7 10
M  V30 10 1 8 11
M  V30 11 1 8 12
M  V30 12 1 4 13
M  V30 13 1 5 14
M  V30 14 1 6 15
M  V30 15 1 6 16
M  V30 16 1 8 17
M  V30 17 1 10 18
M  V30 18 1 10 19
M  V30 19 1 10 20
M  V30 20 1 11 21
M  V30 21 1 11 22
M  V30 22 1 11 23
M  V30 23 1 12 24
M  V30 24 1 12 25
M  V30 25 1 12 26
M  V30 END BOND
M  V30 BEGIN COLLECTION
M  V30 MDLV30/STEABS ATOMS=(1 4)
M  V30 END COLLECTION
M  V30 END CTAB
M  END
>  <Structure No>
4918

>  <LogS>
-1.3301

>  <MMFF94 Energy>
35.373

$$$$
Compound 4919
Actelion Java MolfileCreator 2.0

  0  0  0  0  0  0              0 V3000
M  V30 BEGIN CTAB
M  V30 COUNTS 17 16 0 0 0
M  V30 BEGIN ATOM
M  V30 1 O -2.0124 0.9284 -1.238 0
M  V30 2 C -1.6412 0.9427 -0.0342 0
M  V30 3 O -1.9749 2.0233 0.7725 0 CHG=-1
M  V30 4 C -0.8281 -0.1931 0.5288 0 CFG=1
M  V30 5 N -1.5397 -1.4656 0.36 0 CHG=1
M  V30 6 C 0.557 -0.2514 -0.1348 0
M  V30 7 O 1.2538 0.9514 0.1184 0
M  V30 8 C 2.5151 0.9028 -0.5091 0
M  V30 9 H -0.6809 -0.0135 1.6181 0
M  V30 10 H -2.4802 -1.4089 0.815 0
M  V30 11 H -1.0011 -2.2359 0.8188 0
M  V30 12 H -1.6613 -1.6908 -0.6545 0
M  V30 13 H 1.1149 -1.1152 0.2944 0
M  V30 14 H 0.4289 -0.4138 -1.2307 0
M  V30 15 H 2.4118 0.8191 -1.6139 0
M  V30 16 H 3.0534 1.8485 -0.2939 0
M  V30 17 H 3.1322 0.0667 -0.1112 0
M  V30 END ATOM
M  V30 BEGIN BOND
M  V30 1 2 1 2
M  V30 2 1 2 3
M  V30 3 1 2 4
M  V30 4 1 4 5
M  V30 5 1 4 6
M  V30 6 1 6 7
M  V30 7 1 7 8
M  V30 8 1 4 9
M  V30 9 1 5 10
M  V30 10 1 5 11
M  V30 11 1 5 12
M  V30 12 1 6 13
M  V30 13 1 6 14
M  V30 14 1 8 15
M  V30 15 1 8 16
M  V30 16 1 8 17
M  V30 END BOND
M  V30 BEGIN COLLECTION
M  V30 MDLV30/STEABS ATOMS=(1 4)
M  V30 END COLLECTION
M  V30 END CTAB
M  END
>  <Structure No>
4919

>  <LogS>
0.6524

>  <MMFF94 Energy>
-2.9113

$$$$
Compound 4920
Actelion Java MolfileCreator 2.0

  0  0  0  0  0  0              0 V3000
M  V30 BEGIN CTAB
M  V30 COUNTS 13 13 0 0 0
M  V30 BEGIN ATOM
M  V30 1 Cl 3.1039 -1.3413 -1.2575 0
M  V30 2 C 1.5923 -0.8469 -0.5224 0
M  V30 3 N 1.0443 -1.604 0.4638 0 CHG=-1
M  V30 4 C 0.9518 0.3193 -0.9465 0
M  V30 5 C -0.1265 -1.2628 1.0654 0
M  V30 6 C -0.2555 0.6989 -0.3476 0
M  V30 7 O -0.5917 -2.0002 1.9753 0
M  V30 8 C -0.805 -0.0971 0.6697 0
M  V30 9 O -0.9079 1.861 -0.7596 0
M  V30 10 C -2.0494 0.2807 1.2972 0
M  V30 11 N -3.0468 0.5836 1.8001 0
M  V30 12 H 1.387 0.9239 -1.7322 0
M  V30 13 H -0.5296 2.4506 -1.4918 0
M  V30 END ATOM
M  V30 BEGIN BOND
M  V30 1 1 1 2
M  V30 2 1 2 3
M  V30 3 2 2 4
M  V30 4 1 3 5
M  V30 5 1 4 6
M  V30 6 2 5 7
M  V30 7 1 5 8
M  V30 8 1 6 9
M  V30 9 1 8 10
M  V30 10 3 10 11
M  V30 11 2 6 8
M  V30 12 1 4 12
M  V30 13 1 9 13
M  V30 END BOND
M  V30 END CTAB
M  END
>  <Structure No>
4920

>  <LogS>
-1.2319

>  <MMFF94 Energy>
21.884

$$$$
Compound 4921
Actelion Java MolfileCreator 2.0

  0  0  0  0  0  0              0 V3000
M  V30 BEGIN CTAB
M  V30 COUNTS 51 52 0 0 0
M  V30 BEGIN ATOM
M  V30 1 O -0.5586 3.1952 3.9152 0
M  V30 2 C -0.5615 2.7586 2.7341 0
M  V30 3 O -1.3943 3.2415 1.7489 0
M  V30 4 C 0.3059 1.7272 2.2209 0
M  V30 5 C -1.2285 2.532 0.5229 0 CFG=1
M  V30 6 C 1.3076 1.1622 2.8972 0
M  V30 7 C 0.0051 1.5665 0.7562 0 CFG=2
M  V30 8 C -2.5232 1.8204 0.2181 0
M  V30 9 C -0.1277 0.075 0.2811 0 CFG=1
M  V30 10 C -2.7958 1.2692 -0.9796 0
M  V30 11 O 1.1531 -0.5578 0.2803 0
M  V30 12 C -1.0814 -0.7794 1.1478 0
M  V30 13 C -3.6155 -0.0049 -1.0304 0
M  V30 14 C -2.2066 1.8298 -2.261 0
M  V30 15 C 2.1424 -0.3136 -0.6789 0
M  V30 16 C -1.4898 -2.1023 0.5181 0
M  V30 17 C -2.7717 -1.1922 -1.5522 0
M  V30 18 O -2.6301 3.1522 -2.452 0
M  V30 19 O 1.9125 0.4423 -1.6634 0
M  V30 20 C 3.4938 -0.9485 -0.5138 0 CFG=2
M  V30 21 C -2.3431 -2.2358 -0.5346 0
M  V30 22 C -1.0465 -3.374 1.203 0
M  V30 23 C 4.5515 0.1274 -0.2302 0
M  V30 24 C 3.8503 -1.7789 -1.7528 0
M  V30 25 O 5.7788 -0.4747 0.0764 0
M  V30 26 H -0.9977 3.2705 -0.2741 0
M  V30 27 H 1.9794 0.463 2.4208 0
M  V30 28 H 1.4746 1.4043 3.9389 0
M  V30 29 H 0.8604 2.0171 0.2072 0
M  V30 30 H -3.1228 1.5308 1.0768 0
M  V30 31 H -0.4853 0.0818 -0.7578 0
M  V30 32 H -0.5672 -0.9663 2.1143 0
M  V30 33 H -1.9995 -0.2632 1.4499 0
M  V30 34 H -4.4655 0.1725 -1.7249 0
M  V30 35 H -4.0631 -0.2591 -0.0443 0
M  V30 36 H -1.0982 1.8112 -2.2172 0
M  V30 37 H -2.5078 1.2142 -3.1383 0
M  V30 38 H -3.3997 -1.7241 -2.3003 0
M  V30 39 H -1.8871 -0.868 -2.1352 0
M  V30 40 H -3.5874 3.1085 -2.7124 0
M  V30 41 H 3.4519 -1.6353 0.3605 0
M  V30 42 H -2.6572 -3.2468 -0.7867 0
M  V30 43 H -0.5164 -4.024 0.475 0
M  V30 44 H -0.3529 -3.1782 2.0469 0
M  V30 45 H -1.9306 -3.9179 1.5985 0
M  V30 46 H 4.2228 0.7472 0.635 0
M  V30 47 H 4.6681 0.7913 -1.1169 0
M  V30 48 H 3.9447 -1.1302 -2.6502 0
M  V30 49 H 3.0624 -2.5395 -1.941 0
M  V30 50 H 4.8117 -2.3119 -1.5948 0
M  V30 51 H 6.4164 0.2677 0.2414 0
M  V30 END ATOM
M  V30 BEGIN BOND
M  V30 1 2 1 2
M  V30 2 1 2 3
M  V30 3 1 2 4
M  V30 4 1 3 5
M  V30 5 2 4 6
M  V30 6 1 4 7
M  V30 7 1 5 8
M  V30 8 1 7 9
M  V30 9 2 8 10
M  V30 10 1 9 11
M  V30 11 1 9 12
M  V30 12 1 10 13
M  V30 13 1 10 14
M  V30 14 1 11 15
M  V30 15 1 12 16
M  V30 16 1 13 17
M  V30 17 1 14 18
M  V30 18 2 15 19
M  V30 19 1 15 20
M  V30 20 2 16 21
M  V30 21 1 16 22
M  V30 22 1 20 23
M  V30 23 1 20 24
M  V30 24 1 23 25
M  V30 25 1 5 7
M  V30 26 1 17 21
M  V30 27 1 5 26
M  V30 28 1 6 27
M  V30 29 1 6 28
M  V30 30 1 7 29
M  V30 31 1 8 30
M  V30 32 1 9 31
M  V30 33 1 12 32
M  V30 34 1 12 33
M  V30 35 1 13 34
M  V30 36 1 13 35
M  V30 37 1 14 36
M  V30 38 1 14 37
M  V30 39 1 17 38
M  V30 40 1 17 39
M  V30 41 1 18 40
M  V30 42 1 20 41
M  V30 43 1 21 42
M  V30 44 1 22 43
M  V30 45 1 22 44
M  V30 46 1 22 45
M  V30 47 1 23 46
M  V30 48 1 23 47
M  V30 49 1 24 48
M  V30 50 1 24 49
M  V30 51 1 24 50
M  V30 52 1 25 51
M  V30 END BOND
M  V30 BEGIN COLLECTION
M  V30 MDLV30/STEABS ATOMS=(4 5 7 9 20)
M  V30 END COLLECTION
M  V30 END CTAB
M  END
>  <Structure No>
4921

>  <LogS>
-2.2436

>  <MMFF94 Energy>
40.27

$$$$
Compound 4922
Actelion Java MolfileCreator 2.0

  0  0  0  0  0  0              0 V3000
M  V30 BEGIN CTAB
M  V30 COUNTS 20 19 0 0 0
M  V30 BEGIN ATOM
M  V30 1 N 0.3781 0.3781 0.2268 0 CHG=1
M  V30 2 C -1.064 0.0419 0.2352 0
M  V30 3 C 1.2334 -0.8163 0.1116 0
M  V30 4 C -1.8871 1.2648 0.6687 0
M  V30 5 C -1.5488 -0.4387 -1.1451 0
M  V30 6 C 2.7077 -0.4496 0.2777 0
M  V30 7 H 0.587 1.0353 -0.5618 0
M  V30 8 H 0.6154 0.8609 1.1261 0
M  V30 9 H -1.2603 -0.7654 0.977 0
M  V30 10 H 0.966 -1.5629 0.8925 0
M  V30 11 H 1.1116 -1.2859 -0.8876 0
M  V30 12 H -1.5856 1.5885 1.6877 0
M  V30 13 H -2.9692 1.0137 0.6969 0
M  V30 14 H -1.7304 2.1092 -0.0362 0
M  V30 15 H -1.2917 0.3023 -1.9318 0
M  V30 16 H -2.6507 -0.5818 -1.138 0
M  V30 17 H -1.0957 -1.4171 -1.4037 0
M  V30 18 H 3.3336 -1.36 0.1646 0
M  V30 19 H 2.8868 -0.0187 1.2857 0
M  V30 20 H 3.0089 0.2889 -0.4951 0
M  V30 END ATOM
M  V30 BEGIN BOND
M  V30 1 1 1 2
M  V30 2 1 1 3
M  V30 3 1 2 4
M  V30 4 1 2 5
M  V30 5 1 3 6
M  V30 6 1 1 7
M  V30 7 1 1 8
M  V30 8 1 2 9
M  V30 9 1 3 10
M  V30 10 1 3 11
M  V30 11 1 4 12
M  V30 12 1 4 13
M  V30 13 1 4 14
M  V30 14 1 5 15
M  V30 15 1 5 16
M  V30 16 1 5 17
M  V30 17 1 6 18
M  V30 18 1 6 19
M  V30 19 1 6 20
M  V30 END BOND
M  V30 END CTAB
M  END
>  <Structure No>
4922

>  <LogS>
1.0597

>  <MMFF94 Energy>
5.3489

$$$$
Compound 4923
Actelion Java MolfileCreator 2.0

  0  0  0  0  0  0              0 V3000
M  V30 BEGIN CTAB
M  V30 COUNTS 18 19 0 0 0
M  V30 BEGIN ATOM
M  V30 1 Cl 3.8942 -1.5033 0.2651 0
M  V30 2 C 2.3459 -0.6594 0.1529 0
M  V30 3 C 2.3189 0.7442 0.1199 0
M  V30 4 C 1.1487 -1.3935 0.097 0
M  V30 5 Cl 3.8334 1.6514 0.1912 0
M  V30 6 C 1.0943 1.4285 0.0308 0
M  V30 7 Cl 1.2247 -3.1615 0.1412 0
M  V30 8 C -0.0896 -0.7186 0.0073 0
M  V30 9 Cl 1.1023 3.1984 -0.008 0
M  V30 10 C -0.117 0.703 -0.0259 0
M  V30 11 C -1.3071 -1.4299 -0.0501 0
M  V30 12 C -1.361 1.3637 -0.1157 0
M  V30 13 C -2.5236 -0.7533 -0.1386 0
M  V30 14 C -2.5504 0.6376 -0.1712 0
M  V30 15 H -1.3347 -2.5105 -0.0276 0
M  V30 16 H -1.43 2.4424 -0.1439 0
M  V30 17 H -3.4502 -1.3112 -0.182 0
M  V30 18 H -3.4978 1.1569 -0.2398 0
M  V30 END ATOM
M  V30 BEGIN BOND
M  V30 1 1 1 2
M  V30 2 1 2 3
M  V30 3 2 2 4
M  V30 4 1 3 5
M  V30 5 2 3 6
M  V30 6 1 4 7
M  V30 7 1 4 8
M  V30 8 1 6 9
M  V30 9 1 6 10
M  V30 10 2 8 11
M  V30 11 2 10 12
M  V30 12 1 11 13
M  V30 13 1 12 14
M  V30 14 1 8 10
M  V30 15 2 13 14
M  V30 16 1 11 15
M  V30 17 1 12 16
M  V30 18 1 13 17
M  V30 19 1 14 18
M  V30 END BOND
M  V30 END CTAB
M  END
>  <Structure No>
4923

>  <LogS>
-7.7954

>  <MMFF94 Energy>
54.986

$$$$
Compound 4924
Actelion Java MolfileCreator 2.0

  0  0  0  0  0  0              0 V3000
M  V30 BEGIN CTAB
M  V30 COUNTS 53 53 0 0 0
M  V30 BEGIN ATOM
M  V30 1 O 2.6698 -1.9626 1.884 0
M  V30 2 C 3.482 -1.0814 1.4878 0
M  V30 3 O 3.4855 0.1899 2.0769 0
M  V30 4 C 4.4351 -1.3885 0.3989 0
M  V30 5 C 2.55 0.6104 3.0704 0
M  V30 6 C 4.4452 -2.6564 -0.2108 0
M  V30 7 C 5.3429 -0.4114 -0.0458 0
M  V30 8 C 1.3731 1.3619 2.4384 0
M  V30 9 C 5.3446 -2.9387 -1.2433 0
M  V30 10 C 6.242 -0.6966 -1.0778 0
M  V30 11 C 0.4863 0.446 1.5799 0
M  V30 12 C 6.2468 -1.9609 -1.6816 0
M  V30 13 C -0.73 1.1826 0.9958 0
M  V30 14 N 7.1662 -2.2507 -2.7377 0
M  V30 15 C -1.8646 1.351 2.0212 0
M  V30 16 C -3.0339 2.1996 1.4882 0
M  V30 17 C -3.7588 1.6165 0.261 0
M  V30 18 C -4.4352 0.2644 0.5482 0
M  V30 19 C -5.3084 -0.217 -0.6312 0
M  V30 20 C -4.6662 -1.3463 -1.4595 0
M  V30 21 C -3.3868 -0.9455 -2.2116 0
M  V30 22 C -3.6403 0.0889 -3.3078 0
M  V30 23 H 3.0733 1.3079 3.7582 0
M  V30 24 H 2.1933 -0.2463 3.6832 0
M  V30 25 H 3.7579 -3.4298 0.1082 0
M  V30 26 H 5.3596 0.5742 0.4021 0
M  V30 27 H 0.7734 1.8054 3.2603 0
M  V30 28 H 1.7664 2.1938 1.8142 0
M  V30 29 H 5.3378 -3.9197 -1.7016 0
M  V30 30 H 6.9343 0.068 -1.4072 0
M  V30 31 H 1.0894 0.066 0.7279 0
M  V30 32 H 0.1487 -0.4309 2.175 0
M  V30 33 H -1.1055 0.5784 0.1438 0
M  V30 34 H -0.4197 2.1738 0.5979 0
M  V30 35 H 7.175 -3.1891 -3.1966 0
M  V30 36 H 7.8431 -1.5284 -3.0707 0
M  V30 37 H -1.4735 1.865 2.9237 0
M  V30 38 H -2.2292 0.356 2.3522 0
M  V30 39 H -3.7721 2.3392 2.308 0
M  V30 40 H -2.6511 3.2099 1.2247 0
M  V30 41 H -4.5406 2.3481 -0.0392 0
M  V30 42 H -3.0566 1.533 -0.5913 0
M  V30 43 H -3.6731 -0.5033 0.7983 0
M  V30 44 H -5.0861 0.3839 1.4423 0
M  V30 45 H -5.61 0.6248 -1.2898 0
M  V30 46 H -6.2547 -0.623 -0.2115 0
M  V30 47 H -5.4138 -1.7182 -2.1937 0
M  V30 48 H -4.4295 -2.1978 -0.7846 0
M  V30 49 H -2.9679 -1.8575 -2.6894 0
M  V30 50 H -2.6187 -0.571 -1.5051 0
M  V30 51 H -3.9444 1.0624 -2.872 0
M  V30 52 H -2.7067 0.2476 -3.8875 0
M  V30 53 H -4.431 -0.2674 -4.0019 0
M  V30 END ATOM
M  V30 BEGIN BOND
M  V30 1 2 1 2
M  V30 2 1 2 3
M  V30 3 1 2 4
M  V30 4 1 3 5
M  V30 5 2 4 6
M  V30 6 1 4 7
M  V30 7 1 5 8
M  V30 8 1 6 9
M  V30 9 2 7 10
M  V30 10 1 8 11
M  V30 11 2 9 12
M  V30 12 1 11 13
M  V30 13 1 12 14
M  V30 14 1 13 15
M  V30 15 1 15 16
M  V30 16 1 16 17
M  V30 17 1 17 18
M  V30 18 1 18 19
M  V30 19 1 19 20
M  V30 20 1 20 21
M  V30 21 1 21 22
M  V30 22 1 10 12
M  V30 23 1 5 23
M  V30 24 1 5 24
M  V30 25 1 6 25
M  V30 26 1 7 26
M  V30 27 1 8 27
M  V30 28 1 8 28
M  V30 29 1 9 29
M  V30 30 1 10 30
M  V30 31 1 11 31
M  V30 32 1 11 32
M  V30 33 1 13 33
M  V30 34 1 13 34
M  V30 35 1 14 35
M  V30 36 1 14 36
M  V30 37 1 15 37
M  V30 38 1 15 38
M  V30 39 1 16 39
M  V30 40 1 16 40
M  V30 41 1 17 41
M  V30 42 1 17 42
M  V30 43 1 18 43
M  V30 44 1 18 44
M  V30 45 1 19 45
M  V30 46 1 19 46
M  V30 47 1 20 47
M  V30 48 1 20 48
M  V30 49 1 21 49
M  V30 50 1 21 50
M  V30 51 1 22 51
M  V30 52 1 22 52
M  V30 53 1 22 53
M  V30 END BOND
M  V30 END CTAB
M  END
>  <Structure No>
4924

>  <LogS>
-7.8

>  <MMFF94 Energy>
17.749

$$$$
Compound 4925
Actelion Java MolfileCreator 2.0

  0  0  0  0  0  0              0 V3000
M  V30 BEGIN CTAB
M  V30 COUNTS 35 35 0 0 0
M  V30 BEGIN ATOM
M  V30 1 O 7.2953 -2.3744 -0.6327 0
M  V30 2 N 6.7152 -1.2698 -0.6019 0 CHG=1
M  V30 3 O 7.4341 -0.1199 -0.8282 0 CHG=-1
M  V30 4 C 5.3134 -1.1916 -0.3339 0
M  V30 5 O 4.6439 -0.0639 -0.2873 0
M  V30 6 C 4.4782 -2.2653 -0.0904 0
M  V30 7 C 3.3898 -0.348 -0.021 0
M  V30 8 C 3.2288 -1.7171 0.1125 0
M  V30 9 C 2.339 0.6663 0.1076 0
M  V30 10 N 1.1201 0.3187 0.3894 0
M  V30 11 N 0.0542 1.2327 0.5169 0
M  V30 12 C 0.0209 2.4545 -0.2481 0
M  V30 13 C -1.1582 0.7611 1.1889 0
M  V30 14 O 0.5309 2.4882 -1.4 0
M  V30 15 N -0.5906 3.6332 0.2786 0
M  V30 16 C -2.0705 0.0409 0.1913 0
M  V30 17 C -3.3439 -0.4724 0.8789 0
M  V30 18 C -4.2277 -1.3045 -0.0624 0
M  V30 19 C -4.9051 -0.4579 -1.1397 0
M  V30 20 H 4.7425 -3.314 -0.0638 0
M  V30 21 H 2.3141 -2.2527 0.3308 0
M  V30 22 H 2.6063 1.7084 -0.0126 0
M  V30 23 H -1.705 1.6059 1.6563 0
M  V30 24 H -0.8746 0.0619 2.0059 0
M  V30 25 H -0.66 4.4936 -0.3087 0
M  V30 26 H -0.9015 3.6836 1.2731 0
M  V30 27 H -1.5174 -0.814 -0.2554 0
M  V30 28 H -2.3415 0.7502 -0.6193 0
M  V30 29 H -3.9272 0.3834 1.2843 0
M  V30 30 H -3.0536 -1.1185 1.7364 0
M  V30 31 H -3.6268 -2.1072 -0.5421 0
M  V30 32 H -5.0203 -1.7952 0.5431 0
M  V30 33 H -4.1561 -0.0549 -1.8521 0
M  V30 34 H -5.6185 -1.0893 -1.71 0
M  V30 35 H -5.4675 0.3815 -0.6786 0
M  V30 END ATOM
M  V30 BEGIN BOND
M  V30 1 2 1 2
M  V30 2 1 2 3
M  V30 3 1 2 4
M  V30 4 1 4 5
M  V30 5 2 4 6
M  V30 6 1 5 7
M  V30 7 1 6 8
M  V30 8 1 7 9
M  V30 9 2 9 10
M  V30 10 1 10 11
M  V30 11 1 11 12
M  V30 12 1 11 13
M  V30 13 2 12 14
M  V30 14 1 12 15
M  V30 15 1 13 16
M  V30 16 1 16 17
M  V30 17 1 17 18
M  V30 18 1 18 19
M  V30 19 2 7 8
M  V30 20 1 6 20
M  V30 21 1 8 21
M  V30 22 1 9 22
M  V30 23 1 13 23
M  V30 24 1 13 24
M  V30 25 1 15 25
M  V30 26 1 15 26
M  V30 27 1 16 27
M  V30 28 1 16 28
M  V30 29 1 17 29
M  V30 30 1 17 30
M  V30 31 1 18 31
M  V30 32 1 18 32
M  V30 33 1 19 33
M  V30 34 1 19 34
M  V30 35 1 19 35
M  V30 END BOND
M  V30 END CTAB
M  END
>  <Structure No>
4925

>  <LogS>
-2.8971

>  <MMFF94 Energy>
49.348

$$$$
Compound 4926
Actelion Java MolfileCreator 2.0

  0  0  0  0  0  0              0 V3000
M  V30 BEGIN CTAB
M  V30 COUNTS 22 22 0 0 0
M  V30 BEGIN ATOM
M  V30 1 Cl 0.5855 -1.9248 1.8411 0
M  V30 2 C 1.8569 -0.6802 1.9843 0
M  V30 3 Cl 3.3883 -1.5077 2.366 0
M  V30 4 Cl 1.4621 0.3996 3.3498 0
M  V30 5 C 2.0245 0.1065 0.6712 0
M  V30 6 C 0.7845 0.8896 0.2813 0
M  V30 7 C -0.324 0.2295 -0.4542 0
M  V30 8 C 0.6733 2.1752 0.6392 0
M  V30 9 C -1.6528 0.3637 -0.0087 0
M  V30 10 C -0.0634 -0.5483 -1.5969 0
M  V30 11 C -2.6951 -0.2714 -0.6903 0
M  V30 12 C -1.1101 -1.1805 -2.2754 0
M  V30 13 C -2.4241 -1.0433 -1.8221 0
M  V30 14 H 2.8904 0.7981 0.7722 0
M  V30 15 H 2.2967 -0.6032 -0.1364 0
M  V30 16 H 1.4612 2.671 1.1924 0
M  V30 17 H -0.2004 2.7573 0.3736 0
M  V30 18 H -1.8804 0.945 0.8762 0
M  V30 19 H 0.9431 -0.6522 -1.9796 0
M  V30 20 H -3.7135 -0.1675 -0.3383 0
M  V30 21 H -0.9022 -1.7742 -3.1561 0
M  V30 22 H -3.2323 -1.5341 -2.3487 0
M  V30 END ATOM
M  V30 BEGIN BOND
M  V30 1 1 1 2
M  V30 2 1 2 3
M  V30 3 1 2 4
M  V30 4 1 2 5
M  V30 5 1 5 6
M  V30 6 1 6 7
M  V30 7 2 6 8
M  V30 8 2 7 9
M  V30 9 1 7 10
M  V30 10 1 9 11
M  V30 11 2 10 12
M  V30 12 2 11 13
M  V30 13 1 12 13
M  V30 14 1 5 14
M  V30 15 1 5 15
M  V30 16 1 8 16
M  V30 17 1 8 17
M  V30 18 1 9 18
M  V30 19 1 10 19
M  V30 20 1 11 20
M  V30 21 1 12 21
M  V30 22 1 13 22
M  V30 END BOND
M  V30 END CTAB
M  END
>  <Structure No>
4926

>  <LogS>
-4.2822

>  <MMFF94 Energy>
47.652

$$$$
Compound 4927
Actelion Java MolfileCreator 2.0

  0  0  0  0  0  0              0 V3000
M  V30 BEGIN CTAB
M  V30 COUNTS 44 46 0 0 0
M  V30 BEGIN ATOM
M  V30 1 O 0.9618 -1.6837 -2.4862 0
M  V30 2 C 0.7084 -1.0701 -1.4135 0
M  V30 3 N -0.6371 -1.057 -0.9076 0
M  V30 4 C 1.7913 -0.404 -0.6625 0
M  V30 5 C -1.3354 0.012 -0.4618 0
M  V30 6 C -1.4714 -2.1256 -0.7977 0
M  V30 7 C 3.0428 -0.3187 -1.1346 0
M  V30 8 C -2.5981 -0.3622 -0.0745 0
M  V30 9 C -0.934 1.3511 -0.416 0
M  V30 10 C -2.7128 -1.722 -0.2981 0
M  V30 11 C -1.1079 -3.5277 -1.1952 0
M  V30 12 C 4.153 0.339 -0.4031 0
M  V30 13 C -3.5221 0.5592 0.4192 0
M  V30 14 C -1.8439 2.3022 0.0772 0
M  V30 15 C -3.9076 -2.583 -0.0025 0
M  V30 16 C 5.4753 0.0 -0.7386 0
M  V30 17 C 3.9321 1.3181 0.5881 0
M  V30 18 C -3.1422 1.9115 0.5024 0
M  V30 19 C -3.8648 -3.0525 1.4157 0
M  V30 20 C 6.5521 0.6032 -0.0818 0
M  V30 21 C 5.0135 1.9186 1.2411 0
M  V30 22 O -4.075 2.8318 1.0029 0
M  V30 23 O -4.3489 -2.3391 2.3336 0
M  V30 24 O -3.2496 -4.2567 1.7326 0 CHG=-1
M  V30 25 C 6.3214 1.5592 0.9094 0
M  V30 26 C -3.8305 4.2274 1.1438 0
M  V30 27 H 1.546 -0.0062 0.312 0
M  V30 28 H 3.2786 -0.7825 -2.0856 0
M  V30 29 H 0.0419 1.6648 -0.7587 0
M  V30 30 H -1.3167 -3.6713 -2.2755 0
M  V30 31 H -0.0323 -3.7175 -0.9995 0
M  V30 32 H -1.6891 -4.2679 -0.6088 0
M  V30 33 H -4.5116 0.2469 0.7273 0
M  V30 34 H -1.5337 3.3372 0.1194 0
M  V30 35 H -3.9311 -3.4568 -0.6868 0
M  V30 36 H -4.8415 -2.0077 -0.1793 0
M  V30 37 H 5.6747 -0.7395 -1.5047 0
M  V30 38 H 2.9339 1.6432 0.8469 0
M  V30 39 H 7.5663 0.3297 -0.3427 0
M  V30 40 H 4.8366 2.6697 2.0003 0
M  V30 41 H 7.1562 2.0267 1.4155 0
M  V30 42 H -4.7344 4.7131 1.565 0
M  V30 43 H -3.6135 4.6789 0.1528 0
M  V30 44 H -2.9796 4.3979 1.8367 0
M  V30 END ATOM
M  V30 BEGIN BOND
M  V30 1 2 1 2
M  V30 2 1 2 3
M  V30 3 1 2 4
M  V30 4 1 3 5
M  V30 5 1 3 6
M  V30 6 2 4 7
M  V30 7 2 5 8
M  V30 8 1 5 9
M  V30 9 2 6 10
M  V30 10 1 6 11
M  V30 11 1 7 12
M  V30 12 1 8 13
M  V30 13 2 9 14
M  V30 14 1 10 15
M  V30 15 2 12 16
M  V30 16 1 12 17
M  V30 17 2 13 18
M  V30 18 1 15 19
M  V30 19 1 16 20
M  V30 20 2 17 21
M  V30 21 1 18 22
M  V30 22 2 19 23
M  V30 23 1 19 24
M  V30 24 2 20 25
M  V30 25 1 22 26
M  V30 26 1 8 10
M  V30 27 1 14 18
M  V30 28 1 21 25
M  V30 29 1 4 27
M  V30 30 1 7 28
M  V30 31 1 9 29
M  V30 32 1 11 30
M  V30 33 1 11 31
M  V30 34 1 11 32
M  V30 35 1 13 33
M  V30 36 1 14 34
M  V30 37 1 15 35
M  V30 38 1 15 36
M  V30 39 1 16 37
M  V30 40 1 17 38
M  V30 41 1 20 39
M  V30 42 1 21 40
M  V30 43 1 25 41
M  V30 44 1 26 42
M  V30 45 1 26 43
M  V30 46 1 26 44
M  V30 END BOND
M  V30 END CTAB
M  END
>  <Structure No>
4927

>  <LogS>
-5.5433

>  <MMFF94 Energy>
121.97

$$$$
Compound 4928
Actelion Java MolfileCreator 2.0

  0  0  0  0  0  0              0 V3000
M  V30 BEGIN CTAB
M  V30 COUNTS 21 20 0 0 0
M  V30 BEGIN ATOM
M  V30 1 O 1.6145 -0.6916 1.2299 0
M  V30 2 C 1.0128 -0.5033 -0.0275 0 CFG=1
M  V30 3 C -0.4663 -0.0221 0.1578 0
M  V30 4 C 1.8897 0.4466 -0.8614 0
M  V30 5 C -1.2388 -1.0899 0.9656 0
M  V30 6 C -0.5359 1.3173 0.9252 0
M  V30 7 C -1.169 0.1424 -1.2086 0
M  V30 8 H 2.3771 -1.3139 1.0984 0
M  V30 9 H 0.9856 -1.4805 -0.567 0
M  V30 10 H 2.9113 0.0205 -0.9527 0
M  V30 11 H 1.9805 1.4401 -0.3772 0
M  V30 12 H 1.4915 0.5644 -1.8895 0
M  V30 13 H -0.8009 -1.2172 1.9789 0
M  V30 14 H -1.2092 -2.0721 0.446 0
M  V30 15 H -2.3043 -0.7982 1.0916 0
M  V30 16 H -0.0865 2.1436 0.3362 0
M  V30 17 H -0.0051 1.2459 1.8983 0
M  V30 18 H -1.5931 1.5941 1.1297 0
M  V30 19 H -1.0654 -0.7816 -1.8172 0
M  V30 20 H -0.7469 0.9947 -1.7808 0
M  V30 21 H -2.253 0.3473 -1.0703 0
M  V30 END ATOM
M  V30 BEGIN BOND
M  V30 1 1 1 2
M  V30 2 1 2 3
M  V30 3 1 2 4
M  V30 4 1 3 5
M  V30 5 1 3 6
M  V30 6 1 3 7
M  V30 7 1 1 8
M  V30 8 1 2 9
M  V30 9 1 4 10
M  V30 10 1 4 11
M  V30 11 1 4 12
M  V30 12 1 5 13
M  V30 13 1 5 14
M  V30 14 1 5 15
M  V30 15 1 6 16
M  V30 16 1 6 17
M  V30 17 1 6 18
M  V30 18 1 7 19
M  V30 19 1 7 20
M  V30 20 1 7 21
M  V30 END BOND
M  V30 BEGIN COLLECTION
M  V30 MDLV30/STEABS ATOMS=(1 2)
M  V30 END COLLECTION
M  V30 END CTAB
M  END
>  <Structure No>
4928

>  <LogS>
-0.6238

>  <MMFF94 Energy>
16.567

$$$$
Compound 4929
Actelion Java MolfileCreator 2.0

  0  0  0  0  0  0              0 V3000
M  V30 BEGIN CTAB
M  V30 COUNTS 27 26 0 0 0
M  V30 BEGIN ATOM
M  V30 1 O -0.7706 -1.0789 -0.6164 0
M  V30 2 C -1.3422 -0.0176 0.1063 0 CFG=1
M  V30 3 C -0.4276 1.2204 0.0029 0
M  V30 4 C -2.7357 0.2996 -0.4682 0
M  V30 5 C 0.8036 1.1615 0.9293 0
M  V30 6 C -3.7039 -0.8716 -0.3092 0
M  V30 7 C 1.8083 0.0371 0.623 0
M  V30 8 C 2.4361 0.1588 -0.773 0
M  V30 9 C 3.5434 -0.8727 -0.9689 0
M  V30 10 H -0.993 -1.9167 -0.1323 0
M  V30 11 H -1.4553 -0.2843 1.185 0
M  V30 12 H -1.0048 2.1229 0.3024 0
M  V30 13 H -0.1181 1.3831 -1.0512 0
M  V30 14 H -3.1671 1.177 0.0617 0
M  V30 15 H -2.649 0.5555 -1.5471 0
M  V30 16 H 0.4577 1.0498 1.9801 0
M  V30 17 H 1.3343 2.137 0.8699 0
M  V30 18 H -3.3596 -1.7459 -0.9007 0
M  V30 19 H -3.7898 -1.1602 0.76 0
M  V30 20 H -4.7084 -0.5744 -0.6775 0
M  V30 21 H 2.6173 0.0964 1.3838 0
M  V30 22 H 1.3272 -0.9555 0.7446 0
M  V30 23 H 2.8644 1.176 -0.9066 0
M  V30 24 H 1.6649 -0.0068 -1.5542 0
M  V30 25 H 3.137 -1.9004 -0.855 0
M  V30 26 H 4.355 -0.7143 -0.227 0
M  V30 27 H 3.9706 -0.7703 -1.9886 0
M  V30 END ATOM
M  V30 BEGIN BOND
M  V30 1 1 1 2
M  V30 2 1 2 3
M  V30 3 1 2 4
M  V30 4 1 3 5
M  V30 5 1 4 6
M  V30 6 1 5 7
M  V30 7 1 7 8
M  V30 8 1 8 9
M  V30 9 1 1 10
M  V30 10 1 2 11
M  V30 11 1 3 12
M  V30 12 1 3 13
M  V30 13 1 4 14
M  V30 14 1 4 15
M  V30 15 1 5 16
M  V30 16 1 5 17
M  V30 17 1 6 18
M  V30 18 1 6 19
M  V30 19 1 6 20
M  V30 20 1 7 21
M  V30 21 1 7 22
M  V30 22 1 8 23
M  V30 23 1 8 24
M  V30 24 1 9 25
M  V30 25 1 9 26
M  V30 26 1 9 27
M  V30 END BOND
M  V30 BEGIN COLLECTION
M  V30 MDLV30/STEABS ATOMS=(1 2)
M  V30 END COLLECTION
M  V30 END CTAB
M  END
>  <Structure No>
4929

>  <LogS>
-2.0171

>  <MMFF94 Energy>
1.7598

$$$$
Compound 4930
Actelion Java MolfileCreator 2.0

  0  0  0  0  0  0              0 V3000
M  V30 BEGIN CTAB
M  V30 COUNTS 36 35 0 0 0
M  V30 BEGIN ATOM
M  V30 1 O 1.1644 -1.0091 -0.388 0
M  V30 2 C 2.401 -0.9658 0.3054 0 CFG=2
M  V30 3 C 0.3794 0.1528 -0.1722 0
M  V30 4 C 3.4776 -0.2913 -0.5613 0
M  V30 5 C 2.8158 -2.4034 0.6221 0
M  V30 6 C -0.9872 -0.2389 0.4149 0 CFG=2
M  V30 7 O 3.1675 1.0755 -0.7318 0
M  V30 8 O -1.8205 0.9036 0.5137 0
M  V30 9 C -0.8167 -0.8248 1.8174 0
M  V30 10 C 4.136 1.6766 -1.5609 0
M  V30 11 C -2.4921 1.1819 -0.7046 0
M  V30 12 C -4.0106 1.0618 -0.5103 0 CFG=1
M  V30 13 O -4.6725 1.4877 -1.6724 0
M  V30 14 C -4.4188 -0.3808 -0.2115 0
M  V30 15 H 2.3265 -0.4422 1.2881 0
M  V30 16 H 0.8485 0.9281 0.4782 0
M  V30 17 H 0.2227 0.6361 -1.1591 0
M  V30 18 H 4.4633 -0.3957 -0.0512 0
M  V30 19 H 3.5189 -0.8132 -1.5458 0
M  V30 20 H 2.9355 -2.9898 -0.3141 0
M  V30 21 H 2.038 -2.8902 1.2477 0
M  V30 22 H 3.7738 -2.4167 1.1846 0
M  V30 23 H -1.4489 -1.0402 -0.2099 0
M  V30 24 H -1.8119 -1.0721 2.244 0
M  V30 25 H -0.3157 -0.0939 2.4878 0
M  V30 26 H -0.2152 -1.7572 1.7809 0
M  V30 27 H 5.1506 1.614 -1.1082 0
M  V30 28 H 4.1341 1.2222 -2.5765 0
M  V30 29 H 3.8855 2.7512 -1.6746 0
M  V30 30 H -2.257 2.2313 -0.9829 0
M  V30 31 H -2.1736 0.5545 -1.571 0
M  V30 32 H -4.3206 1.6952 0.3537 0
M  V30 33 H -4.6435 2.4803 -1.6722 0
M  V30 34 H -4.0956 -1.0553 -1.0331 0
M  V30 35 H -3.965 -0.7236 0.7421 0
M  V30 36 H -5.5231 -0.4449 -0.1119 0
M  V30 END ATOM
M  V30 BEGIN BOND
M  V30 1 1 1 2
M  V30 2 1 1 3
M  V30 3 1 2 4
M  V30 4 1 2 5
M  V30 5 1 3 6
M  V30 6 1 4 7
M  V30 7 1 6 8
M  V30 8 1 6 9
M  V30 9 1 7 10
M  V30 10 1 8 11
M  V30 11 1 11 12
M  V30 12 1 12 13
M  V30 13 1 12 14
M  V30 14 1 2 15
M  V30 15 1 3 16
M  V30 16 1 3 17
M  V30 17 1 4 18
M  V30 18 1 4 19
M  V30 19 1 5 20
M  V30 20 1 5 21
M  V30 21 1 5 22
M  V30 22 1 6 23
M  V30 23 1 9 24
M  V30 24 1 9 25
M  V30 25 1 9 26
M  V30 26 1 10 27
M  V30 27 1 10 28
M  V30 28 1 10 29
M  V30 29 1 11 30
M  V30 30 1 11 31
M  V30 31 1 12 32
M  V30 32 1 13 33
M  V30 33 1 14 34
M  V30 34 1 14 35
M  V30 35 1 14 36
M  V30 END BOND
M  V30 BEGIN COLLECTION
M  V30 MDLV30/STEABS ATOMS=(3 2 6 12)
M  V30 END COLLECTION
M  V30 END CTAB
M  END
>  <Structure No>
4930

>  <LogS>
0.6855

>  <MMFF94 Energy>
78.497

$$$$
Compound 4931
Actelion Java MolfileCreator 2.0

  0  0  0  0  0  0              0 V3000
M  V30 BEGIN CTAB
M  V30 COUNTS 29 29 0 0 0
M  V30 BEGIN ATOM
M  V30 1 O 4.3231 -1.1776 0.5494 0
M  V30 2 C 4.3554 -0.039 0.0091 0
M  V30 3 N 3.1469 0.7084 -0.1986 0
M  V30 4 C 5.6756 0.5747 -0.3258 0
M  V30 5 C 1.8247 0.154 -0.0843 0
M  V30 6 C 0.7726 0.9703 0.3548 0
M  V30 7 C 1.549 -1.1724 -0.4584 0
M  V30 8 C -0.5267 0.4639 0.4548 0
M  V30 9 C 0.2496 -1.6782 -0.3596 0
M  V30 10 C -0.7983 -0.8704 0.0961 0
M  V30 11 O -2.0821 -1.4352 0.1776 0
M  V30 12 C -3.2776 -0.7344 0.5216 0
M  V30 13 C -3.7612 0.117 -0.6561 0
M  V30 14 C -5.0476 0.8599 -0.3083 0
M  V30 15 H 3.2359 1.7371 -0.3625 0
M  V30 16 H 6.4449 -0.2144 -0.4633 0
M  V30 17 H 5.5934 1.1587 -1.2663 0
M  V30 18 H 5.9886 1.2498 0.4975 0
M  V30 19 H 0.9631 1.9998 0.6316 0
M  V30 20 H 2.3283 -1.8116 -0.8511 0
M  V30 21 H -1.3069 1.1207 0.8118 0
M  V30 22 H 0.0529 -2.7026 -0.6497 0
M  V30 23 H -3.1214 -0.1175 1.4325 0
M  V30 24 H -4.0586 -1.4868 0.7624 0
M  V30 25 H -2.984 0.8577 -0.9386 0
M  V30 26 H -3.9468 -0.5409 -1.5325 0
M  V30 27 H -5.3758 1.4636 -1.1806 0
M  V30 28 H -4.8777 1.542 0.5521 0
M  V30 29 H -5.853 0.1389 -0.0519 0
M  V30 END ATOM
M  V30 BEGIN BOND
M  V30 1 2 1 2
M  V30 2 1 2 3
M  V30 3 1 2 4
M  V30 4 1 3 5
M  V30 5 2 5 6
M  V30 6 1 5 7
M  V30 7 1 6 8
M  V30 8 2 7 9
M  V30 9 2 8 10
M  V30 10 1 10 11
M  V30 11 1 11 12
M  V30 12 1 12 13
M  V30 13 1 13 14
M  V30 14 1 9 10
M  V30 15 1 3 15
M  V30 16 1 4 16
M  V30 17 1 4 17
M  V30 18 1 4 18
M  V30 19 1 6 19
M  V30 20 1 7 20
M  V30 21 1 8 21
M  V30 22 1 9 22
M  V30 23 1 12 23
M  V30 24 1 12 24
M  V30 25 1 13 25
M  V30 26 1 13 26
M  V30 27 1 14 27
M  V30 28 1 14 28
M  V30 29 1 14 29
M  V30 END BOND
M  V30 END CTAB
M  END
>  <Structure No>
4931

>  <LogS>
-3.0557

>  <MMFF94 Energy>
0.82124

$$$$
Compound 4932
Actelion Java MolfileCreator 2.0

  0  0  0  0  0  0              0 V3000
M  V30 BEGIN CTAB
M  V30 COUNTS 31 32 0 0 0
M  V30 BEGIN ATOM
M  V30 1 O 1.2826 -0.561 2.2454 0
M  V30 2 C 0.8015 -0.1877 1.1861 0
M  V30 3 C -0.4656 -0.7139 0.5537 0 CFG=1
M  V30 4 C 1.389 0.8599 0.2829 0 CFG=2
M  V30 5 C -0.9923 0.5612 -0.1431 0
M  V30 6 C 0.0096 -1.5954 -0.6268 0
M  V30 7 C -1.431 -1.4072 1.5222 0
M  V30 8 C 0.3503 0.7944 -0.888 0 CFG=2
M  V30 9 C 2.8694 0.6272 -0.0923 0
M  V30 10 C -2.2171 0.3517 -1.0865 0
M  V30 11 C -1.3863 1.7185 0.8292 0
M  V30 12 C 0.5318 -0.5519 -1.6441 0
M  V30 13 O 3.1923 -0.7373 -0.1313 0
M  V30 14 H 1.3305 1.8573 0.7699 0
M  V30 15 H 0.8165 -2.2972 -0.3182 0
M  V30 16 H -0.8215 -2.1943 -1.0571 0
M  V30 17 H -2.3529 -1.721 0.9894 0
M  V30 18 H -0.9497 -2.3094 1.9553 0
M  V30 19 H -1.7103 -0.7214 2.3496 0
M  V30 20 H 0.364 1.6863 -1.5507 0
M  V30 21 H 3.0829 1.1026 -1.0757 0
M  V30 22 H 3.5097 1.1221 0.672 0
M  V30 23 H -2.1352 -0.5077 -1.7761 0
M  V30 24 H -3.1382 0.1787 -0.4903 0
M  V30 25 H -2.3715 1.2623 -1.704 0
M  V30 26 H -0.7066 1.8364 1.6961 0
M  V30 27 H -1.4148 2.6812 0.2758 0
M  V30 28 H -2.3936 1.5384 1.262 0
M  V30 29 H -0.0694 -0.5628 -2.5775 0
M  V30 30 H 1.5763 -0.7501 -1.9526 0
M  V30 31 H 4.1446 -0.7877 -0.4057 0
M  V30 END ATOM
M  V30 BEGIN BOND
M  V30 1 2 1 2
M  V30 2 1 2 3
M  V30 3 1 2 4
M  V30 4 1 3 5
M  V30 5 1 3 6
M  V30 6 1 3 7
M  V30 7 1 4 8
M  V30 8 1 4 9
M  V30 9 1 5 10
M  V30 10 1 5 11
M  V30 11 1 6 12
M  V30 12 1 9 13
M  V30 13 1 5 8
M  V30 14 1 8 12
M  V30 15 1 4 14
M  V30 16 1 6 15
M  V30 17 1 6 16
M  V30 18 1 7 17
M  V30 19 1 7 18
M  V30 20 1 7 19
M  V30 21 1 8 20
M  V30 22 1 9 21
M  V30 23 1 9 22
M  V30 24 1 10 23
M  V30 25 1 10 24
M  V30 26 1 10 25
M  V30 27 1 11 26
M  V30 28 1 11 27
M  V30 29 1 11 28
M  V30 30 1 12 29
M  V30 31 1 12 30
M  V30 32 1 13 31
M  V30 END BOND
M  V30 BEGIN COLLECTION
M  V30 MDLV30/STEABS ATOMS=(3 3 4 8)
M  V30 END COLLECTION
M  V30 END CTAB
M  END
>  <Structure No>
4932

>  <LogS>
-0.215

>  <MMFF94 Energy>
48.299

$$$$
Compound 4933
Actelion Java MolfileCreator 2.0

  0  0  0  0  0  0              0 V3000
M  V30 BEGIN CTAB
M  V30 COUNTS 24 24 0 0 0
M  V30 BEGIN ATOM
M  V30 1 O -1.2519 0.7823 2.035 0
M  V30 2 C -1.8141 0.1852 1.0769 0
M  V30 3 N -1.1023 -0.0123 -0.1622 0
M  V30 4 N -3.1567 -0.2789 1.2462 0
M  V30 5 C 0.2779 0.3765 -0.2632 0
M  V30 6 C -1.775 -0.5491 -1.3464 0
M  V30 7 C 1.2965 -0.3827 0.3565 0
M  V30 8 C 0.6151 1.5238 -0.9967 0
M  V30 9 C 2.6302 0.0501 0.2626 0
M  V30 10 C 0.973 -1.6233 1.143 0
M  V30 11 C 1.9466 1.9328 -1.0959 0
M  V30 12 C 2.9517 1.1999 -0.4631 0
M  V30 13 H -3.6648 -0.7922 0.4939 0
M  V30 14 H -3.6528 -0.1156 2.1504 0
M  V30 15 H -2.1078 -1.5897 -1.1496 0
M  V30 16 H -1.0895 -0.5675 -2.2213 0
M  V30 17 H -2.6501 0.0842 -1.6032 0
M  V30 18 H -0.1591 2.1045 -1.4823 0
M  V30 19 H 3.4236 -0.5056 0.7469 0
M  V30 20 H 0.1831 -2.2132 0.6319 0
M  V30 21 H 0.621 -1.3401 2.1566 0
M  V30 22 H 1.8662 -2.2755 1.2458 0
M  V30 23 H 2.1986 2.822 -1.659 0
M  V30 24 H 3.9824 1.5225 -0.5357 0
M  V30 END ATOM
M  V30 BEGIN BOND
M  V30 1 2 1 2
M  V30 2 1 2 3
M  V30 3 1 2 4
M  V30 4 1 3 5
M  V30 5 1 3 6
M  V30 6 2 5 7
M  V30 7 1 5 8
M  V30 8 1 7 9
M  V30 9 1 7 10
M  V30 10 2 8 11
M  V30 11 2 9 12
M  V30 12 1 11 12
M  V30 13 1 4 13
M  V30 14 1 4 14
M  V30 15 1 6 15
M  V30 16 1 6 16
M  V30 17 1 6 17
M  V30 18 1 8 18
M  V30 19 1 9 19
M  V30 20 1 10 20
M  V30 21 1 10 21
M  V30 22 1 10 22
M  V30 23 1 11 23
M  V30 24 1 12 24
M  V30 END BOND
M  V30 END CTAB
M  END
>  <Structure No>
4933

>  <LogS>
-0.4032

>  <MMFF94 Energy>
-49.143

$$$$
Compound 4934
Actelion Java MolfileCreator 2.0

  0  0  0  0  0  0              0 V3000
M  V30 BEGIN CTAB
M  V30 COUNTS 23 22 0 0 0
M  V30 BEGIN ATOM
M  V30 1 O 3.9195 0.7829 -0.1565 0
M  V30 2 N 3.0282 1.441 0.4197 0 CHG=1
M  V30 3 O 1.9893 0.8128 1.0798 0
M  V30 4 O 3.1061 2.8127 0.4378 0 CHG=-1
M  V30 5 C 1.813 -0.6028 1.0661 0
M  V30 6 C 1.2981 -1.089 -0.2959 0
M  V30 7 C 0.0047 -0.3905 -0.7488 0
M  V30 8 C -1.1984 -0.7339 0.1464 0
M  V30 9 C -2.531 -0.2538 -0.4491 0
M  V30 10 C -2.6625 1.2688 -0.4492 0
M  V30 11 H 2.7758 -1.1041 1.3042 0
M  V30 12 H 1.0932 -0.8833 1.8625 0
M  V30 13 H 2.0819 -0.9095 -1.0623 0
M  V30 14 H 1.1328 -2.1875 -0.2507 0
M  V30 15 H 0.165 0.7083 -0.7708 0
M  V30 16 H -0.2121 -0.7187 -1.7887 0
M  V30 17 H -1.0663 -0.2862 1.1548 0
M  V30 18 H -1.256 -1.8375 0.2693 0
M  V30 19 H -2.6481 -0.638 -1.4857 0
M  V30 20 H -3.3599 -0.6752 0.16 0
M  V30 21 H -2.5005 1.6734 0.5724 0
M  V30 22 H -3.6835 1.5508 -0.7827 0
M  V30 23 H -1.9323 1.726 -1.1485 0
M  V30 END ATOM
M  V30 BEGIN BOND
M  V30 1 2 1 2
M  V30 2 1 2 3
M  V30 3 1 2 4
M  V30 4 1 3 5
M  V30 5 1 5 6
M  V30 6 1 6 7
M  V30 7 1 7 8
M  V30 8 1 8 9
M  V30 9 1 9 10
M  V30 10 1 5 11
M  V30 11 1 5 12
M  V30 12 1 6 13
M  V30 13 1 6 14
M  V30 14 1 7 15
M  V30 15 1 7 16
M  V30 16 1 8 17
M  V30 17 1 8 18
M  V30 18 1 9 19
M  V30 19 1 9 20
M  V30 20 1 10 21
M  V30 21 1 10 22
M  V30 22 1 10 23
M  V30 END BOND
M  V30 END CTAB
M  END
>  <Structure No>
4934

>  <LogS>
-3.1265

>  <MMFF94 Energy>
-17.872

$$$$
Compound 4935
Actelion Java MolfileCreator 2.0

  0  0  0  0  0  0              0 V3000
M  V30 BEGIN CTAB
M  V30 COUNTS 27 27 0 0 0
M  V30 BEGIN ATOM
M  V30 1 O -2.8185 1.5651 -0.704 0
M  V30 2 C -1.5683 1.4781 -0.5665 0
M  V30 3 N -1.0067 0.4867 0.3207 0
M  V30 4 N -0.7287 2.3748 -1.3002 0
M  V30 5 C 0.4143 0.2758 0.3807 0
M  V30 6 C -1.876 -0.304 1.2016 0
M  V30 7 C 1.1041 -0.4223 -0.6406 0
M  V30 8 C 1.1284 0.7841 1.4766 0
M  V30 9 C -2.3748 -1.5522 0.483 0
M  V30 10 C 2.492 -0.6095 -0.525 0
M  V30 11 C 0.3886 -1.0506 -1.8063 0
M  V30 12 C 2.5094 0.6026 1.5682 0
M  V30 13 C 3.19 -0.0935 0.5693 0
M  V30 14 H 0.309 2.3682 -1.1937 0
M  V30 15 H -1.1541 3.0732 -1.9497 0
M  V30 16 H -1.324 -0.6103 2.1175 0
M  V30 17 H -2.7442 0.3053 1.5351 0
M  V30 18 H 0.6094 1.3252 2.2581 0
M  V30 19 H -2.9085 -1.2735 -0.4499 0
M  V30 20 H -3.0736 -2.1079 1.1431 0
M  V30 21 H -1.5202 -2.2149 0.2336 0
M  V30 22 H 3.035 -1.16 -1.2834 0
M  V30 23 H -0.582 -0.5609 -2.0173 0
M  V30 24 H 0.2089 -2.1245 -1.5919 0
M  V30 25 H 1.0077 -0.9695 -2.7251 0
M  V30 26 H 3.052 0.9998 2.4165 0
M  V30 27 H 4.2599 -0.2394 0.6456 0
M  V30 END ATOM
M  V30 BEGIN BOND
M  V30 1 2 1 2
M  V30 2 1 2 3
M  V30 3 1 2 4
M  V30 4 1 3 5
M  V30 5 1 3 6
M  V30 6 2 5 7
M  V30 7 1 5 8
M  V30 8 1 6 9
M  V30 9 1 7 10
M  V30 10 1 7 11
M  V30 11 2 8 12
M  V30 12 2 10 13
M  V30 13 1 12 13
M  V30 14 1 4 14
M  V30 15 1 4 15
M  V30 16 1 6 16
M  V30 17 1 6 17
M  V30 18 1 8 18
M  V30 19 1 9 19
M  V30 20 1 9 20
M  V30 21 1 9 21
M  V30 22 1 10 22
M  V30 23 1 11 23
M  V30 24 1 11 24
M  V30 25 1 11 25
M  V30 26 1 12 26
M  V30 27 1 13 27
M  V30 END BOND
M  V30 END CTAB
M  END
>  <Structure No>
4935

>  <LogS>
-0.2096

>  <MMFF94 Energy>
-50.906

$$$$
Compound 4936
Actelion Java MolfileCreator 2.0

  0  0  0  0  0  0              0 V3000
M  V30 BEGIN CTAB
M  V30 COUNTS 17 17 0 0 0
M  V30 BEGIN ATOM
M  V30 1 O -3.4531 -1.1232 -0.0802 0
M  V30 2 C -2.2601 -0.7223 -0.1467 0
M  V30 3 N -1.2442 -1.6235 -0.2296 0
M  V30 4 N -1.9901 0.6105 -0.1326 0
M  V30 5 C 0.0513 -1.2132 -0.3023 0
M  V30 6 C -0.7114 1.0634 -0.2038 0
M  V30 7 O 0.9733 -2.0711 -0.3671 0
M  V30 8 C 0.3529 0.1594 -0.3034 0
M  V30 9 C 1.7729 0.6619 -0.3502 0
M  V30 10 C 2.3402 0.7339 1.0311 0
M  V30 11 O 2.1736 1.7673 1.731 0
M  V30 12 O 3.0126 -0.3578 1.565 0 CHG=-1
M  V30 13 H -1.4623 -2.6463 -0.2341 0
M  V30 14 H -2.7721 1.3005 -0.0633 0
M  V30 15 H -0.5214 2.1299 -0.182 0
M  V30 16 H 1.811 1.6687 -0.821 0
M  V30 17 H 2.4012 -0.008 -0.9755 0
M  V30 END ATOM
M  V30 BEGIN BOND
M  V30 1 2 1 2
M  V30 2 1 2 3
M  V30 3 1 2 4
M  V30 4 1 3 5
M  V30 5 1 4 6
M  V30 6 2 5 7
M  V30 7 1 5 8
M  V30 8 1 8 9
M  V30 9 1 9 10
M  V30 10 2 10 11
M  V30 11 1 10 12
M  V30 12 2 6 8
M  V30 13 1 3 13
M  V30 14 1 4 14
M  V30 15 1 6 15
M  V30 16 1 9 16
M  V30 17 1 9 17
M  V30 END BOND
M  V30 END CTAB
M  END
>  <Structure No>
4936

>  <LogS>
-1.6287

>  <MMFF94 Energy>
-85.906

$$$$
Compound 4937
Actelion Java MolfileCreator 2.0

  0  0  0  0  0  0              0 V3000
M  V30 BEGIN CTAB
M  V30 COUNTS 38 38 0 0 0
M  V30 BEGIN ATOM
M  V30 1 O 0.0 -0.5485 1.8033 0
M  V30 2 C -0.3546 0.2038 0.6623 0
M  V30 3 C 0.8756 1.0737 0.2076 0 CFG=1
M  V30 4 C -0.7805 -0.7603 -0.4964 0
M  V30 5 C -1.5361 1.1272 1.0993 0
M  V30 6 O 1.1966 2.0785 1.1413 0
M  V30 7 C 2.1153 0.2575 -0.1338 0
M  V30 8 C -1.9993 -1.64 -0.1651 0
M  V30 9 C -2.1365 2.0134 -0.0092 0
M  V30 10 C 2.9858 -0.2138 0.8692 0
M  V30 11 C 2.3989 -0.0545 -1.4774 0
M  V30 12 C -2.2315 -2.689 -1.249 0
M  V30 13 C -3.2919 2.8525 0.5303 0
M  V30 14 C 4.1104 -0.973 0.5324 0
M  V30 15 C 3.5247 -0.8141 -1.808 0
M  V30 16 C 4.3801 -1.2721 -0.8043 0
M  V30 17 H 0.5768 -1.306 1.5248 0
M  V30 18 H 0.5784 1.6082 -0.7193 0
M  V30 19 H -0.9843 -0.1838 -1.4237 0
M  V30 20 H 0.0694 -1.436 -0.7335 0
M  V30 21 H -1.1968 1.7847 1.929 0
M  V30 22 H -2.3442 0.5032 1.538 0
M  V30 23 H 1.2508 1.6635 2.0402 0
M  V30 24 H -1.8438 -2.1585 0.8051 0
M  V30 25 H -2.9139 -1.0152 -0.0914 0
M  V30 26 H -1.3686 2.7059 -0.4106 0
M  V30 27 H -2.5254 1.3903 -0.8401 0
M  V30 28 H 2.7961 -0.0063 1.9135 0
M  V30 29 H 1.7445 0.2847 -2.2706 0
M  V30 30 H -1.3551 -3.3672 -1.3248 0
M  V30 31 H -3.1267 -3.2946 -0.9947 0
M  V30 32 H -2.4017 -2.1974 -2.2306 0
M  V30 33 H -4.1005 2.1945 0.9144 0
M  V30 34 H -2.9388 3.5161 1.3482 0
M  V30 35 H -3.7058 3.4836 -0.2842 0
M  V30 36 H 4.7723 -1.3321 1.3097 0
M  V30 37 H 3.7327 -1.0493 -2.8438 0
M  V30 38 H 5.2508 -1.8609 -1.0621 0
M  V30 END ATOM
M  V30 BEGIN BOND
M  V30 1 1 1 2
M  V30 2 1 2 3
M  V30 3 1 2 4
M  V30 4 1 2 5
M  V30 5 1 3 6
M  V30 6 1 3 7
M  V30 7 1 4 8
M  V30 8 1 5 9
M  V30 9 2 7 10
M  V30 10 1 7 11
M  V30 11 1 8 12
M  V30 12 1 9 13
M  V30 13 1 10 14
M  V30 14 2 11 15
M  V30 15 2 14 16
M  V30 16 1 15 16
M  V30 17 1 1 17
M  V30 18 1 3 18
M  V30 19 1 4 19
M  V30 20 1 4 20
M  V30 21 1 5 21
M  V30 22 1 5 22
M  V30 23 1 6 23
M  V30 24 1 8 24
M  V30 25 1 8 25
M  V30 26 1 9 26
M  V30 27 1 9 27
M  V30 28 1 10 28
M  V30 29 1 11 29
M  V30 30 1 12 30
M  V30 31 1 12 31
M  V30 32 1 12 32
M  V30 33 1 13 33
M  V30 34 1 13 34
M  V30 35 1 13 35
M  V30 36 1 14 36
M  V30 37 1 15 37
M  V30 38 1 16 38
M  V30 END BOND
M  V30 BEGIN COLLECTION
M  V30 MDLV30/STEABS ATOMS=(1 3)
M  V30 END COLLECTION
M  V30 END CTAB
M  END
>  <Structure No>
4937

>  <LogS>
-2.648

>  <MMFF94 Energy>
68.004

$$$$
Compound 4938
Actelion Java MolfileCreator 2.0

  0  0  0  0  0  0              0 V3000
M  V30 BEGIN CTAB
M  V30 COUNTS 44 44 0 0 0
M  V30 BEGIN ATOM
M  V30 1 O 0.8621 0.6269 1.7249 0
M  V30 2 C 0.0734 -0.1123 0.8171 0
M  V30 3 C 0.882 -1.3629 0.3079 0 CFG=2
M  V30 4 C -1.2471 -0.5564 1.5362 0
M  V30 5 C -0.2174 0.8253 -0.3948 0
M  V30 6 O 0.9766 -2.3835 1.2743 0
M  V30 7 C 2.2613 -1.0114 -0.2364 0
M  V30 8 C -2.2754 -1.2737 0.6405 0
M  V30 9 C -1.0286 2.0874 -0.0369 0
M  V30 10 C 3.3293 -0.6801 0.6216 0
M  V30 11 C 2.4777 -0.9835 -1.6279 0
M  V30 12 C -3.5175 -1.6703 1.4477 0
M  V30 13 C -1.181 3.0454 -1.2296 0
M  V30 14 C 4.58 -0.3393 0.0978 0
M  V30 15 C 3.7303 -0.6413 -2.1456 0
M  V30 16 C -4.544 -2.38 0.5692 0
M  V30 17 C 0.1011 3.8192 -1.5379 0
M  V30 18 C 4.7806 -0.3206 -1.2837 0
M  V30 19 H 0.924 0.1272 2.5796 0
M  V30 20 H 0.3022 -1.8064 -0.5298 0
M  V30 21 H -1.7271 0.3302 2.0031 0
M  V30 22 H -0.9934 -1.2316 2.3823 0
M  V30 23 H -0.7401 0.2694 -1.2024 0
M  V30 24 H 0.7555 1.1513 -0.8158 0
M  V30 25 H 1.3993 -2.0112 2.0883 0
M  V30 26 H -1.8257 -2.1919 0.2083 0
M  V30 27 H -2.5931 -0.6067 -0.1874 0
M  V30 28 H -2.0513 1.7884 0.2739 0
M  V30 29 H -0.558 2.6228 0.816 0
M  V30 30 H 3.202 -0.6776 1.6955 0
M  V30 31 H 1.6748 -1.2197 -2.315 0
M  V30 32 H -3.9866 -0.7617 1.885 0
M  V30 33 H -3.225 -2.3497 2.278 0
M  V30 34 H -1.9777 3.7822 -0.9875 0
M  V30 35 H -1.5067 2.4855 -2.1332 0
M  V30 36 H 5.3942 -0.0864 0.7647 0
M  V30 37 H 3.8854 -0.6223 -3.2166 0
M  V30 38 H -5.4298 -2.6544 1.1802 0
M  V30 39 H -4.8743 -1.7122 -0.2548 0
M  V30 40 H -4.1084 -3.3068 0.1388 0
M  V30 41 H -0.1077 4.5803 -2.319 0
M  V30 42 H 0.4696 4.3405 -0.6289 0
M  V30 43 H 0.8913 3.1423 -1.9222 0
M  V30 44 H 5.7495 -0.0548 -1.6864 0
M  V30 END ATOM
M  V30 BEGIN BOND
M  V30 1 1 1 2
M  V30 2 1 2 3
M  V30 3 1 2 4
M  V30 4 1 2 5
M  V30 5 1 3 6
M  V30 6 1 3 7
M  V30 7 1 4 8
M  V30 8 1 5 9
M  V30 9 2 7 10
M  V30 10 1 7 11
M  V30 11 1 8 12
M  V30 12 1 9 13
M  V30 13 1 10 14
M  V30 14 2 11 15
M  V30 15 1 12 16
M  V30 16 1 13 17
M  V30 17 2 14 18
M  V30 18 1 15 18
M  V30 19 1 1 19
M  V30 20 1 3 20
M  V30 21 1 4 21
M  V30 22 1 4 22
M  V30 23 1 5 23
M  V30 24 1 5 24
M  V30 25 1 6 25
M  V30 26 1 8 26
M  V30 27 1 8 27
M  V30 28 1 9 28
M  V30 29 1 9 29
M  V30 30 1 10 30
M  V30 31 1 11 31
M  V30 32 1 12 32
M  V30 33 1 12 33
M  V30 34 1 13 34
M  V30 35 1 13 35
M  V30 36 1 14 36
M  V30 37 1 15 37
M  V30 38 1 16 38
M  V30 39 1 16 39
M  V30 40 1 16 40
M  V30 41 1 17 41
M  V30 42 1 17 42
M  V30 43 1 17 43
M  V30 44 1 18 44
M  V30 END BOND
M  V30 BEGIN COLLECTION
M  V30 MDLV30/STEABS ATOMS=(1 3)
M  V30 END COLLECTION
M  V30 END CTAB
M  END
>  <Structure No>
4938

>  <LogS>
-3.2225

>  <MMFF94 Energy>
59.934

$$$$
Compound 4939
Actelion Java MolfileCreator 2.0

  0  0  0  0  0  0              0 V3000
M  V30 BEGIN CTAB
M  V30 COUNTS 24 24 0 0 0
M  V30 BEGIN ATOM
M  V30 1 N 1.4771 0.6217 0.0 0 CHG=1
M  V30 2 C 0.2454 1.2094 0.0464 0
M  V30 3 C 1.635 -0.7303 4.0E-4 0
M  V30 4 C -0.9221 0.4033 0.0422 0
M  V30 5 C 0.1603 2.7144 0.0701 0
M  V30 6 C 0.5129 -1.5602 0.0265 0
M  V30 7 C 3.0083 -1.3291 -0.0882 0
M  V30 8 C -0.7713 -1.0048 0.0742 0
M  V30 9 C -2.2984 1.0339 0.0781 0
M  V30 10 C -1.9593 -1.9314 0.126 0
M  V30 11 H 2.3303 1.2249 -0.0337 0
M  V30 12 H -0.1989 3.0848 -0.9125 0
M  V30 13 H -0.5302 3.0489 0.8726 0
M  V30 14 H 1.152 3.1703 0.2731 0
M  V30 15 H 0.6424 -2.6362 0.0148 0
M  V30 16 H 3.0481 -2.3016 0.447 0
M  V30 17 H 3.7581 -0.6524 0.373 0
M  V30 18 H 3.2723 -1.4892 -1.1541 0
M  V30 19 H -2.3186 2.0023 -0.4612 0
M  V30 20 H -2.6024 1.1982 1.1328 0
M  V30 21 H -3.0549 0.3969 -0.4229 0
M  V30 22 H -1.6539 -2.9767 0.3454 0
M  V30 23 H -2.4845 -1.9207 -0.8517 0
M  V30 24 H -2.6582 -1.6148 0.9286 0
M  V30 END ATOM
M  V30 BEGIN BOND
M  V30 1 2 1 2
M  V30 2 1 1 3
M  V30 3 1 2 4
M  V30 4 1 2 5
M  V30 5 2 3 6
M  V30 6 1 3 7
M  V30 7 2 4 8
M  V30 8 1 4 9
M  V30 9 1 8 10
M  V30 10 1 6 8
M  V30 11 1 1 11
M  V30 12 1 5 12
M  V30 13 1 5 13
M  V30 14 1 5 14
M  V30 15 1 6 15
M  V30 16 1 7 16
M  V30 17 1 7 17
M  V30 18 1 7 18
M  V30 19 1 9 19
M  V30 20 1 9 20
M  V30 21 1 9 21
M  V30 22 1 10 22
M  V30 23 1 10 23
M  V30 24 1 10 24
M  V30 END BOND
M  V30 END CTAB
M  END
>  <Structure No>
4939

>  <LogS>
-1.3069

>  <MMFF94 Energy>
45.918

$$$$
Compound 4940
Actelion Java MolfileCreator 2.0

  0  0  0  0  0  0              0 V3000
M  V30 BEGIN CTAB
M  V30 COUNTS 119 126 0 0 0
M  V30 BEGIN ATOM
M  V30 1 O -13.6631 -0.7284 3.1593 0
M  V30 2 C -13.0278 -0.8529 2.0853 0
M  V30 3 O -13.5866 -0.645 0.8384 0
M  V30 4 C -11.6168 -1.0915 1.9706 0
M  V30 5 C -12.5454 -0.705 -0.138 0
M  V30 6 C -11.3089 -1.0012 0.6824 0
M  V30 7 C -9.9045 -1.2666 0.1549 0 CFG=2
M  V30 8 C -8.8148 -0.1394 0.4067 0 CFG=2
M  V30 9 C -9.8552 -1.5943 -1.3401 0
M  V30 10 C -8.2211 0.1418 -1.0449 0 CFG=1
M  V30 11 C -7.7411 -0.7404 1.3938 0 CFG=2
M  V30 12 C -9.4047 1.1634 1.0351 0
M  V30 13 C -8.4618 -1.1858 -1.7723 0
M  V30 14 O -9.0091 1.0822 -1.7491 0
M  V30 15 C -6.6917 0.5324 -1.1436 0 CFG=2
M  V30 16 O -8.2103 -0.6942 2.7212 0
M  V30 17 C -6.3742 -0.0396 1.2991 0
M  V30 18 C -5.8021 -0.2369 -0.1252 0 CFG=2
M  V30 19 C -6.4224 2.0661 -1.0581 0
M  V30 20 C -4.2757 0.0933 -0.3251 0 CFG=1
M  V30 21 C -4.9336 2.4355 -1.1921 0
M  V30 22 C -4.0483 1.6354 -0.2154 0 CFG=2
M  V30 23 C -3.4064 -0.5531 0.793 0
M  V30 24 C -3.8518 -0.4951 -1.7256 0
M  V30 25 C -2.5492 2.0798 -0.2605 0
M  V30 26 C -1.9041 -0.2546 0.6486 0
M  V30 27 C -1.5429 0.9122 -0.3186 0 CFG=2
M  V30 28 O -0.2212 1.3961 -0.0892 0
M  V30 29 C 0.7456 0.3785 -0.3648 0 CFG=2
M  V30 30 O 1.0754 -0.32 0.8333 0
M  V30 31 C 1.9481 0.9707 -1.1215 0
M  V30 32 C 2.2914 0.1291 1.4009 0 CFG=2
M  V30 33 C 3.1203 -0.001 -1.0212 0 CFG=1
M  V30 34 C 3.4723 -0.2676 0.4696 0 CFG=1
M  V30 35 C 2.444 -0.4922 2.7853 0
M  V30 36 O 2.7923 -1.2071 -1.6701 0
M  V30 37 O 4.6303 0.4822 0.8382 0
M  V30 38 C 5.7595 -0.3572 1.0503 0 CFG=1
M  V30 39 O 6.2321 -0.9109 -0.1699 0
M  V30 40 C 6.8716 0.3939 1.8031 0
M  V30 41 C 6.7496 0.0894 -1.0293 0 CFG=1
M  V30 42 C 7.5822 1.4156 0.9205 0 CFG=1
M  V30 43 C 7.9866 0.7499 -0.413 0 CFG=1
M  V30 44 C 7.0634 -0.5341 -2.3915 0
M  V30 45 O 6.7266 2.5156 0.6795 0
M  V30 46 O 8.9751 -0.242 -0.1867 0
M  V30 47 C 10.2894 0.2541 -0.38 0 CFG=1
M  V30 48 O 10.9999 0.1357 0.8431 0
M  V30 49 C 10.9374 -0.5137 -1.5549 0
M  V30 50 C 11.5007 -1.1727 1.0297 0 CFG=1
M  V30 51 C 12.4325 -0.7628 -1.3157 0 CFG=2
M  V30 52 C 12.6814 -1.4291 0.0695 0 CFG=2
M  V30 53 C 11.9329 -1.3442 2.484 0
M  V30 54 O 13.1515 0.4424 -1.4522 0
M  V30 55 O 12.8494 -2.8173 -0.0901 0
M  V30 56 H -10.9258 -1.3257 2.7663 0
M  V30 57 H -12.4654 0.2793 -0.6589 0
M  V30 58 H -12.7432 -1.5256 -0.8679 0
M  V30 59 H -9.5962 -2.22 0.6441 0
M  V30 60 H -10.6044 -0.9877 -1.9006 0
M  V30 61 H -10.0337 -2.6768 -1.5573 0
M  V30 62 H -7.5571 -1.8178 1.1419 0
M  V30 63 H -8.5948 1.8955 1.2633 0
M  V30 64 H -10.1808 1.6313 0.3912 0
M  V30 65 H -9.8897 0.9612 2.0099 0
M  V30 66 H -7.7399 -1.9534 -1.4313 0
M  V30 67 H -8.4112 -1.0546 -2.8798 0
M  V30 68 H -8.9292 1.9704 -1.3357 0
M  V30 69 H -6.3791 0.2314 -2.1607 0
M  V30 70 H -7.6047 -1.2664 3.2739 0
M  V30 71 H -6.441 1.0381 1.5827 0
M  V30 72 H -5.7266 -0.5369 2.0412 0
M  V30 73 H -5.8826 -1.3276 -0.3209 0
M  V30 74 H -6.8255 2.4816 -0.1153 0
M  V30 75 H -6.9373 2.5855 -1.8909 0
M  V30 76 H -4.595 2.3151 -2.2397 0
M  V30 77 H -4.8333 3.5167 -0.9442 0
M  V30 78 H -4.408 1.9409 0.7892 0
M  V30 79 H -3.5702 -1.6477 0.8196 0
M  V30 80 H -3.6734 -0.1378 1.7863 0
M  V30 81 H -4.6191 -1.1609 -2.1687 0
M  V30 82 H -2.9508 -1.1375 -1.6643 0
M  V30 83 H -3.6649 0.3072 -2.4723 0
M  V30 84 H -2.3182 2.7129 0.6337 0
M  V30 85 H -2.3673 2.7158 -1.1611 0
M  V30 86 H -1.4737 -0.0363 1.6499 0
M  V30 87 H -1.4137 -1.1813 0.2752 0
M  V30 88 H -1.5933 0.5495 -1.3648 0
M  V30 89 H 0.3588 -0.4007 -1.061 0
M  V30 90 H 2.233 1.9652 -0.6966 0
M  V30 91 H 1.6805 1.1322 -2.1875 0
M  V30 92 H 2.2697 1.2409 1.5567 0
M  V30 93 H 3.9628 0.474 -1.5464 0
M  V30 94 H 3.6331 -1.3674 0.5898 0
M  V30 95 H 2.4498 -1.6027 2.7219 0
M  V30 96 H 3.3798 -0.1296 3.2653 0
M  V30 97 H 1.578 -0.1812 3.4085 0
M  V30 98 H 3.6436 -1.6902 -1.8097 0
M  V30 99 H 5.4783 -1.2063 1.7161 0
M  V30 100 H 6.4395 0.9 2.6923 0
M  V30 101 H 7.6246 -0.3511 2.1585 0
M  V30 102 H 6.0082 0.8991 -1.2029 0
M  V30 103 H 8.5056 1.756 1.45 0
M  V30 104 H 8.2973 1.5398 -1.146 0
M  V30 105 H 6.1374 -0.9737 -2.8095 0
M  V30 106 H 7.4461 0.231 -3.0961 0
M  V30 107 H 7.8111 -1.3442 -2.2768 0
M  V30 108 H 7.3101 3.2676 0.4142 0
M  V30 109 H 10.3539 1.3356 -0.6477 0
M  V30 110 H 10.4498 -1.496 -1.6774 0
M  V30 111 H 10.782 0.0533 -2.4968 0
M  V30 112 H 10.695 -1.9154 0.8443 0
M  V30 113 H 12.7911 -1.4397 -2.1231 0
M  V30 114 H 13.6152 -0.9969 0.5073 0
M  V30 115 H 12.3127 -2.3822 2.6482 0
M  V30 116 H 12.7238 -0.6125 2.7486 0
M  V30 117 H 11.06 -1.1842 3.1544 0
M  V30 118 H 12.9601 1.0179 -0.6775 0
M  V30 119 H 13.7356 -2.9436 -0.4945 0
M  V30 END ATOM
M  V30 BEGIN BOND
M  V30 1 2 1 2
M  V30 2 1 2 3
M  V30 3 1 2 4
M  V30 4 1 3 5
M  V30 5 2 4 6
M  V30 6 1 6 7
M  V30 7 1 7 8
M  V30 8 1 7 9
M  V30 9 1 8 10
M  V30 10 1 8 11
M  V30 11 1 8 12
M  V30 12 1 9 13
M  V30 13 1 10 14
M  V30 14 1 10 15
M  V30 15 1 11 16
M  V30 16 1 11 17
M  V30 17 1 15 18
M  V30 18 1 15 19
M  V30 19 1 18 20
M  V30 20 1 19 21
M  V30 21 1 20 22
M  V30 22 1 20 23
M  V30 23 1 20 24
M  V30 24 1 22 25
M  V30 25 1 23 26
M  V30 26 1 25 27
M  V30 27 1 27 28
M  V30 28 1 28 29
M  V30 29 1 29 30
M  V30 30 1 29 31
M  V30 31 1 30 32
M  V30 32 1 31 33
M  V30 33 1 32 34
M  V30 34 1 32 35
M  V30 35 1 33 36
M  V30 36 1 34 37
M  V30 37 1 37 38
M  V30 38 1 38 39
M  V30 39 1 38 40
M  V30 40 1 39 41
M  V30 41 1 40 42
M  V30 42 1 41 43
M  V30 43 1 41 44
M  V30 44 1 42 45
M  V30 45 1 43 46
M  V30 46 1 46 47
M  V30 47 1 47 48
M  V30 48 1 47 49
M  V30 49 1 48 50
M  V30 50 1 49 51
M  V30 51 1 50 52
M  V30 52 1 50 53
M  V30 53 1 51 54
M  V30 54 1 52 55
M  V30 55 1 5 6
M  V30 56 1 10 13
M  V30 57 1 17 18
M  V30 58 1 21 22
M  V30 59 1 26 27
M  V30 60 1 33 34
M  V30 61 1 42 43
M  V30 62 1 51 52
M  V30 63 1 4 56
M  V30 64 1 5 57
M  V30 65 1 5 58
M  V30 66 1 7 59
M  V30 67 1 9 60
M  V30 68 1 9 61
M  V30 69 1 11 62
M  V30 70 1 12 63
M  V30 71 1 12 64
M  V30 72 1 12 65
M  V30 73 1 13 66
M  V30 74 1 13 67
M  V30 75 1 14 68
M  V30 76 1 15 69
M  V30 77 1 16 70
M  V30 78 1 17 71
M  V30 79 1 17 72
M  V30 80 1 18 73
M  V30 81 1 19 74
M  V30 82 1 19 75
M  V30 83 1 21 76
M  V30 84 1 21 77
M  V30 85 1 22 78
M  V30 86 1 23 79
M  V30 87 1 23 80
M  V30 88 1 24 81
M  V30 89 1 24 82
M  V30 90 1 24 83
M  V30 91 1 25 84
M  V30 92 1 25 85
M  V30 93 1 26 86
M  V30 94 1 26 87
M  V30 95 1 27 88
M  V30 96 1 29 89
M  V30 97 1 31 90
M  V30 98 1 31 91
M  V30 99 1 32 92
M  V30 100 1 33 93
M  V30 101 1 34 94
M  V30 102 1 35 95
M  V30 103 1 35 96
M  V30 104 1 35 97
M  V30 105 1 36 98
M  V30 106 1 38 99
M  V30 107 1 40 100
M  V30 108 1 40 101
M  V30 109 1 41 102
M  V30 110 1 42 103
M  V30 111 1 43 104
M  V30 112 1 44 105
M  V30 113 1 44 106
M  V30 114 1 44 107
M  V30 115 1 45 108
M  V30 116 1 47 109
M  V30 117 1 49 110
M  V30 118 1 49 111
M  V30 119 1 50 112
M  V30 120 1 51 113
M  V30 121 1 52 114
M  V30 122 1 53 115
M  V30 123 1 53 116
M  V30 124 1 53 117
M  V30 125 1 54 118
M  V30 126 1 55 119
M  V30 END BOND
M  V30 BEGIN COLLECTION
M  V30 MDLV30/STEABS ATOMS=(21 7 8 10 11 15 18 20 22 27 29 32 33 34 38 41 42 43 47 50 51 52)
M  V30 END COLLECTION
M  V30 END CTAB
M  END
>  <Structure No>
4940

>  <LogS>
-4.0811

>  <MMFF94 Energy>
155.79

$$$$
Compound 4941
Actelion Java MolfileCreator 2.0

  0  0  0  0  0  0              0 V3000
M  V30 BEGIN CTAB
M  V30 COUNTS 24 24 0 0 0
M  V30 BEGIN ATOM
M  V30 1 Cl 2.9632 2.4399 -1.568 0
M  V30 2 C 2.5886 1.0301 -0.5856 0
M  V30 3 C 3.5899 0.3601 0.1352 0
M  V30 4 C 1.2653 0.5761 -0.5293 0
M  V30 5 Cl 5.263 0.8989 0.0906 0
M  V30 6 C 3.2587 -0.7585 0.9048 0
M  V30 7 C 0.9253 -0.5484 0.2481 0
M  V30 8 C 1.9379 -1.2098 0.9606 0
M  V30 9 N -0.4269 -1.0417 0.3297 0
M  V30 10 C -1.583 -0.3787 -0.2912 0 CFG=2
M  V30 11 N -1.8217 0.905 0.3786 0
M  V30 12 C -2.8474 -1.2674 -0.2176 0
M  V30 13 C -2.1184 2.1174 -0.3236 0
M  V30 14 Cl -3.3331 -1.5899 1.472 0
M  V30 15 Cl -2.5542 -2.8281 -1.0329 0
M  V30 16 Cl -4.2145 -0.478 -1.0493 0
M  V30 17 O -2.151 2.1484 -1.5822 0
M  V30 18 H 0.5159 1.1067 -1.0976 0
M  V30 19 H 4.0255 -1.2808 1.4626 0
M  V30 20 H 1.703 -2.0778 1.5639 0
M  V30 21 H -0.5872 -1.9118 0.8869 0
M  V30 22 H -1.3571 -0.2196 -1.3682 0
M  V30 23 H -1.8336 0.9327 1.423 0
M  V30 24 H -2.3168 3.0228 0.2341 0
M  V30 END ATOM
M  V30 BEGIN BOND
M  V30 1 1 1 2
M  V30 2 2 2 3
M  V30 3 1 2 4
M  V30 4 1 3 5
M  V30 5 1 3 6
M  V30 6 2 4 7
M  V30 7 2 6 8
M  V30 8 1 7 9
M  V30 9 1 9 10
M  V30 10 1 10 11
M  V30 11 1 10 12
M  V30 12 1 11 13
M  V30 13 1 12 14
M  V30 14 1 12 15
M  V30 15 1 12 16
M  V30 16 2 13 17
M  V30 17 1 7 8
M  V30 18 1 4 18
M  V30 19 1 6 19
M  V30 20 1 8 20
M  V30 21 1 9 21
M  V30 22 1 10 22
M  V30 23 1 11 23
M  V30 24 1 13 24
M  V30 END BOND
M  V30 BEGIN COLLECTION
M  V30 MDLV30/STEABS ATOMS=(1 10)
M  V30 END COLLECTION
M  V30 END CTAB
M  END
>  <Structure No>
4941

>  <LogS>
-3.3228

>  <MMFF94 Energy>
41.588

$$$$
Compound 4942
Actelion Java MolfileCreator 2.0

  0  0  0  0  0  0              0 V3000
M  V30 BEGIN CTAB
M  V30 COUNTS 9 9 0 0 0
M  V30 BEGIN ATOM
M  V30 1 S 2.9282 0.3546 0.1772 0
M  V30 2 C 1.2982 0.3458 0.0661 0
M  V30 3 S 0.3136 1.6879 0.059 0
M  V30 4 N 0.537 -0.7651 -0.0352 0
M  V30 5 N -1.1204 0.8589 -0.0753 0
M  V30 6 C -0.7954 -0.4611 -0.1121 0
M  V30 7 S -1.9384 -1.6243 -0.2417 0
M  V30 8 H 0.9204 -1.7371 -0.0524 0
M  V30 9 H -2.0784 1.2716 -0.1221 0
M  V30 END ATOM
M  V30 BEGIN BOND
M  V30 1 2 1 2
M  V30 2 1 2 3
M  V30 3 1 2 4
M  V30 4 1 3 5
M  V30 5 1 4 6
M  V30 6 2 6 7
M  V30 7 1 5 6
M  V30 8 1 4 8
M  V30 9 1 5 9
M  V30 END BOND
M  V30 END CTAB
M  END
>  <Structure No>
4942

>  <LogS>
-1.7618

>  <MMFF94 Energy>
-48.847

$$$$
Compound 4943
Actelion Java MolfileCreator 2.0

  0  0  0  0  0  0              0 V3000
M  V30 BEGIN CTAB
M  V30 COUNTS 45 46 0 0 0
M  V30 BEGIN ATOM
M  V30 1 O 4.2999 1.193 -0.9543 0
M  V30 2 C 3.8665 0.4483 -0.0344 0
M  V30 3 C 2.4557 -0.0035 -0.069 0
M  V30 4 C 4.7852 0.0748 1.0873 0
M  V30 5 C 2.0866 -1.3551 0.078 0
M  V30 6 C 1.4608 0.956 -0.2869 0
M  V30 7 C 0.7285 -1.6955 0.0953 0
M  V30 8 C 3.111 -2.4539 0.2038 0
M  V30 9 C 0.0874 0.6263 -0.2962 0
M  V30 10 C -0.288 -0.725 -0.0446 0
M  V30 11 C -0.9351 1.7449 -0.5869 0
M  V30 12 C -1.7576 -1.165 -0.0581 0
M  V30 13 C -2.4168 1.2502 -0.5752 0
M  V30 14 C -0.7737 2.8887 0.4489 0
M  V30 15 C -0.6543 2.3302 -1.9923 0
M  V30 16 C -2.6833 0.0342 0.3258 0 CFG=2
M  V30 17 C -2.0899 -1.673 -1.4822 0
M  V30 18 C -2.0306 -2.3371 0.9287 0
M  V30 19 C -2.6068 0.417 1.8205 0
M  V30 20 H 5.3973 0.9544 1.378 0
M  V30 21 H 4.206 -0.2522 1.9764 0
M  V30 22 H 5.4642 -0.7405 0.7636 0
M  V30 23 H 1.7711 1.9803 -0.4443 0
M  V30 24 H 0.4717 -2.7392 0.1998 0
M  V30 25 H 3.4789 -2.507 1.2491 0
M  V30 26 H 2.6788 -3.4417 -0.0635 0
M  V30 27 H 3.9614 -2.2747 -0.4865 0
M  V30 28 H -3.1082 2.0741 -0.2905 0
M  V30 29 H -2.7472 0.9854 -1.6025 0
M  V30 30 H -0.8364 2.5098 1.4872 0
M  V30 31 H 0.203 3.4041 0.3436 0
M  V30 32 H -1.5573 3.6645 0.3109 0
M  V30 33 H -0.6805 1.5264 -2.7597 0
M  V30 34 H -1.4193 3.0925 -2.2575 0
M  V30 35 H 0.3383 2.8237 -2.0461 0
M  V30 36 H -3.74 -0.2672 0.1423 0
M  V30 37 H -1.8021 -0.935 -2.2594 0
M  V30 38 H -3.175 -1.8923 -1.5801 0
M  V30 39 H -1.5279 -2.605 -1.7078 0
M  V30 40 H -1.5646 -2.1418 1.9182 0
M  V30 41 H -3.1235 -2.4794 1.0739 0
M  V30 42 H -1.6388 -3.3049 0.5517 0
M  V30 43 H -3.1511 -0.3294 2.4364 0
M  V30 44 H -3.0904 1.4001 2.0037 0
M  V30 45 H -1.5563 0.4541 2.1748 0
M  V30 END ATOM
M  V30 BEGIN BOND
M  V30 1 2 1 2
M  V30 2 1 2 3
M  V30 3 1 2 4
M  V30 4 2 3 5
M  V30 5 1 3 6
M  V30 6 1 5 7
M  V30 7 1 5 8
M  V30 8 2 6 9
M  V30 9 2 7 10
M  V30 10 1 9 11
M  V30 11 1 10 12
M  V30 12 1 11 13
M  V30 13 1 11 14
M  V30 14 1 11 15
M  V30 15 1 12 16
M  V30 16 1 12 17
M  V30 17 1 12 18
M  V30 18 1 16 19
M  V30 19 1 9 10
M  V30 20 1 13 16
M  V30 21 1 4 20
M  V30 22 1 4 21
M  V30 23 1 4 22
M  V30 24 1 6 23
M  V30 25 1 7 24
M  V30 26 1 8 25
M  V30 27 1 8 26
M  V30 28 1 8 27
M  V30 29 1 13 28
M  V30 30 1 13 29
M  V30 31 1 14 30
M  V30 32 1 14 31
M  V30 33 1 14 32
M  V30 34 1 15 33
M  V30 35 1 15 34
M  V30 36 1 15 35
M  V30 37 1 16 36
M  V30 38 1 17 37
M  V30 39 1 17 38
M  V30 40 1 17 39
M  V30 41 1 18 40
M  V30 42 1 18 41
M  V30 43 1 18 42
M  V30 44 1 19 43
M  V30 45 1 19 44
M  V30 46 1 19 45
M  V30 END BOND
M  V30 BEGIN COLLECTION
M  V30 MDLV30/STEABS ATOMS=(1 16)
M  V30 END COLLECTION
M  V30 END CTAB
M  END
>  <Structure No>
4943

>  <LogS>
-5.3154

>  <MMFF94 Energy>
84.808

$$$$
Compound 4944
Actelion Java MolfileCreator 2.0

  0  0  0  0  0  0              0 V3000
M  V30 BEGIN CTAB
M  V30 COUNTS 18 18 0 0 0
M  V30 BEGIN ATOM
M  V30 1 O -0.9173 2.2528 1.5014 0
M  V30 2 N -0.3641 1.9328 0.4292 0 CHG=1
M  V30 3 O 0.0438 2.9127 -0.4458 0 CHG=-1
M  V30 4 C -0.1367 0.5526 0.1195 0
M  V30 5 C 1.1896 0.0541 0.0263 0
M  V30 6 C -1.2362 -0.3197 -0.0987 0
M  V30 7 C 2.3764 0.9048 0.2982 0
M  V30 8 C 1.3923 -1.2987 -0.295 0
M  V30 9 C -2.6429 0.1566 -0.0746 0
M  V30 10 C -0.9904 -1.673 -0.387 0
M  V30 11 O 3.5058 0.5816 -0.1573 0
M  V30 12 O 2.2766 2.0443 1.0875 0 CHG=-1
M  V30 13 C 0.3115 -2.1534 -0.4911 0
M  V30 14 O -3.5844 -0.6566 0.125 0
M  V30 15 O -2.9523 1.491 -0.3098 0 CHG=-1
M  V30 16 H 2.3931 -1.706 -0.3693 0
M  V30 17 H -1.81 -2.3597 -0.5603 0
M  V30 18 H 0.4842 -3.1959 -0.7262 0
M  V30 END ATOM
M  V30 BEGIN BOND
M  V30 1 2 1 2
M  V30 2 1 2 3
M  V30 3 1 2 4
M  V30 4 2 4 5
M  V30 5 1 4 6
M  V30 6 1 5 7
M  V30 7 1 5 8
M  V30 8 1 6 9
M  V30 9 2 6 10
M  V30 10 2 7 11
M  V30 11 1 7 12
M  V30 12 2 8 13
M  V30 13 2 9 14
M  V30 14 1 9 15
M  V30 15 1 10 13
M  V30 16 1 8 16
M  V30 17 1 10 17
M  V30 18 1 13 18
M  V30 END BOND
M  V30 END CTAB
M  END
>  <Structure No>
4944

>  <LogS>
-1.9901

>  <MMFF94 Energy>
82.116

$$$$
Compound 4945
Actelion Java MolfileCreator 2.0

  0  0  0  0  0  0              0 V3000
M  V30 BEGIN CTAB
M  V30 COUNTS 27 27 0 0 0
M  V30 BEGIN ATOM
M  V30 1 Cl -2.3289 -4.0985 0.4012 0
M  V30 2 C -2.2684 -2.3895 -0.1128 0
M  V30 3 C -0.8528 -1.8932 -0.2519 0
M  V30 4 O 0.0729 -2.7339 -0.4247 0
M  V30 5 N -0.5376 -0.4806 -0.2343 0
M  V30 6 C 0.8448 -0.0943 -0.1115 0
M  V30 7 C -1.6 0.5477 -0.2465 0 CFG=1
M  V30 8 C 1.7134 -0.2411 -1.2039 0
M  V30 9 C 1.3336 0.4331 1.0941 0
M  V30 10 C -1.9887 0.8937 1.1289 0
M  V30 11 C -1.176 1.8086 -1.0109 0
M  V30 12 C 3.0539 0.1399 -1.0928 0
M  V30 13 C 2.6749 0.8131 1.202 0
M  V30 14 C -2.3086 1.175 2.2567 0
M  V30 15 C 3.5344 0.6675 0.1091 0
M  V30 16 H -2.809 -1.795 0.6517 0
M  V30 17 H -2.7897 -2.2913 -1.0876 0
M  V30 18 H -2.4983 0.1569 -0.769 0
M  V30 19 H 1.3464 -0.6439 -2.1394 0
M  V30 20 H 0.6804 0.5417 1.9495 0
M  V30 21 H -2.0364 2.5061 -1.1017 0
M  V30 22 H -0.3497 2.3376 -0.4891 0
M  V30 23 H -0.8404 1.5344 -2.0335 0
M  V30 24 H 3.7198 0.0275 -1.9385 0
M  V30 25 H 3.0485 1.2188 2.1332 0
M  V30 26 H -2.5888 1.4216 3.2469 0
M  V30 27 H 4.5722 0.9621 0.1942 0
M  V30 END ATOM
M  V30 BEGIN BOND
M  V30 1 1 1 2
M  V30 2 1 2 3
M  V30 3 2 3 4
M  V30 4 1 3 5
M  V30 5 1 5 6
M  V30 6 1 5 7
M  V30 7 2 6 8
M  V30 8 1 6 9
M  V30 9 1 7 10
M  V30 10 1 7 11
M  V30 11 1 8 12
M  V30 12 2 9 13
M  V30 13 3 10 14
M  V30 14 2 12 15
M  V30 15 1 13 15
M  V30 16 1 2 16
M  V30 17 1 2 17
M  V30 18 1 7 18
M  V30 19 1 8 19
M  V30 20 1 9 20
M  V30 21 1 11 21
M  V30 22 1 11 22
M  V30 23 1 11 23
M  V30 24 1 12 24
M  V30 25 1 13 25
M  V30 26 1 14 26
M  V30 27 1 15 27
M  V30 END BOND
M  V30 BEGIN COLLECTION
M  V30 MDLV30/STEABS ATOMS=(1 7)
M  V30 END COLLECTION
M  V30 END CTAB
M  END
>  <Structure No>
4945

>  <LogS>
-2.6468

>  <MMFF94 Energy>
35.708

$$$$
Compound 4946
Actelion Java MolfileCreator 2.0

  0  0  0  0  0  0              0 V3000
M  V30 BEGIN CTAB
M  V30 COUNTS 18 17 0 0 0
M  V30 BEGIN ATOM
M  V30 1 Cl 1.2647 2.2141 0.0 0
M  V30 2 C 0.8324 0.5353 -0.4615 0 CFG=2
M  V30 3 C -0.4485 0.0309 0.2834 0
M  V30 4 C 2.0605 -0.3524 -0.2223 0
M  V30 5 O -0.2154 -0.057 1.6703 0
M  V30 6 C -0.8415 -1.3739 -0.2141 0
M  V30 7 C -1.6424 0.9761 0.0142 0
M  V30 8 H 0.6311 0.5497 -1.5553 0
M  V30 9 H 1.9222 -1.3526 -0.6811 0
M  V30 10 H 2.2588 -0.4675 0.8642 0
M  V30 11 H 2.9547 0.1044 -0.6971 0
M  V30 12 H -0.0525 0.8582 2.0177 0
M  V30 13 H -0.0891 -2.1298 0.0922 0
M  V30 14 H -1.8113 -1.6876 0.2292 0
M  V30 15 H -0.9396 -1.3887 -1.3211 0
M  V30 16 H -1.4501 1.9946 0.4108 0
M  V30 17 H -2.5591 0.5958 0.5145 0
M  V30 18 H -1.841 1.0542 -1.0765 0
M  V30 END ATOM
M  V30 BEGIN BOND
M  V30 1 1 1 2
M  V30 2 1 2 3
M  V30 3 1 2 4
M  V30 4 1 3 5
M  V30 5 1 3 6
M  V30 6 1 3 7
M  V30 7 1 2 8
M  V30 8 1 4 9
M  V30 9 1 4 10
M  V30 10 1 4 11
M  V30 11 1 5 12
M  V30 12 1 6 13
M  V30 13 1 6 14
M  V30 14 1 6 15
M  V30 15 1 7 16
M  V30 16 1 7 17
M  V30 17 1 7 18
M  V30 END BOND
M  V30 BEGIN COLLECTION
M  V30 MDLV30/STEABS ATOMS=(1 2)
M  V30 END COLLECTION
M  V30 END CTAB
M  END
>  <Structure No>
4946

>  <LogS>
-0.2926

>  <MMFF94 Energy>
26.657

$$$$
Compound 4947
Actelion Java MolfileCreator 2.0

  0  0  0  0  0  0              0 V3000
M  V30 BEGIN CTAB
M  V30 COUNTS 26 27 0 0 0
M  V30 BEGIN ATOM
M  V30 1 O 5.1758 -0.328 -0.41 0
M  V30 2 N 4.3449 -1.1818 -0.0357 0 CHG=1
M  V30 3 O 4.8103 -2.412 0.3671 0 CHG=-1
M  V30 4 C 2.9329 -0.8783 -0.0383 0
M  V30 5 C 1.9804 -1.8009 0.4408 0
M  V30 6 C 2.4825 0.3596 -0.5335 0
M  V30 7 O 2.3644 -3.0394 0.9419 0 CHG=-1
M  V30 8 C 0.6216 -1.4795 0.4301 0
M  V30 9 C 1.1163 0.6851 -0.563 0
M  V30 10 C 0.1741 -0.2409 -0.0524 0
M  V30 11 N 0.7094 1.9358 -1.1476 0 CHG=1
M  V30 12 C -1.2694 0.0771 0.0492 0
M  V30 13 O -0.3357 2.0092 -1.8261 0
M  V30 14 O 1.5576 3.0188 -1.1188 0 CHG=-1
M  V30 15 C -1.6987 1.2241 0.7396 0
M  V30 16 C -2.2267 -0.7856 -0.5112 0
M  V30 17 C -3.0626 1.5117 0.8491 0
M  V30 18 C -3.5898 -0.4938 -0.3992 0
M  V30 19 C -4.0073 0.6544 0.2788 0
M  V30 20 H 3.1984 1.0692 -0.9277 0
M  V30 21 H -0.0887 -2.1947 0.8281 0
M  V30 22 H -0.978 1.8913 1.1963 0
M  V30 23 H -1.9173 -1.6775 -1.0419 0
M  V30 24 H -3.3874 2.3977 1.3791 0
M  V30 25 H -4.3225 -1.1586 -0.8379 0
M  V30 26 H -5.0626 0.8782 0.365 0
M  V30 END ATOM
M  V30 BEGIN BOND
M  V30 1 2 1 2
M  V30 2 1 2 3
M  V30 3 1 2 4
M  V30 4 2 4 5
M  V30 5 1 4 6
M  V30 6 1 5 7
M  V30 7 1 5 8
M  V30 8 2 6 9
M  V30 9 2 8 10
M  V30 10 1 9 11
M  V30 11 1 10 12
M  V30 12 2 11 13
M  V30 13 1 11 14
M  V30 14 2 12 15
M  V30 15 1 12 16
M  V30 16 1 15 17
M  V30 17 2 16 18
M  V30 18 2 17 19
M  V30 19 1 9 10
M  V30 20 1 18 19
M  V30 21 1 6 20
M  V30 22 1 8 21
M  V30 23 1 15 22
M  V30 24 1 16 23
M  V30 25 1 17 24
M  V30 26 1 18 25
M  V30 27 1 19 26
M  V30 END BOND
M  V30 END CTAB
M  END
>  <Structure No>
4947

>  <LogS>
-4.4611

>  <MMFF94 Energy>
103.14

$$$$
Compound 4948
Actelion Java MolfileCreator 2.0

  0  0  0  0  0  0              0 V3000
M  V30 BEGIN CTAB
M  V30 COUNTS 20 21 0 0 0
M  V30 BEGIN ATOM
M  V30 1 S 0.6123 0.6998 1.1374 0
M  V30 2 C 0.9709 0.6604 -0.5164 0
M  V30 3 C -1.0364 0.5811 0.8459 0
M  V30 4 S 2.6277 0.7424 -1.1848 0
M  V30 5 N -0.1369 0.5609 -1.2893 0
M  V30 6 C -1.2554 0.5162 -0.5217 0
M  V30 7 C -2.0825 0.5468 1.7646 0
M  V30 8 C 2.8453 -1.0667 -1.1694 0
M  V30 9 C -2.5538 0.4127 -1.024 0
M  V30 10 C -3.3928 0.4428 1.2708 0
M  V30 11 S 4.5026 -1.496 -1.7916 0
M  V30 12 C -3.6276 0.376 -0.1172 0
M  V30 13 C 5.3339 -0.9835 -0.3184 0
M  V30 14 N 5.8779 -0.6476 0.6461 0
M  V30 15 H -1.8923 0.5988 2.8289 0
M  V30 16 H 2.7036 -1.468 -0.1426 0
M  V30 17 H 2.0904 -1.5297 -1.8389 0
M  V30 18 H -2.7328 0.3615 -2.0904 0
M  V30 19 H -4.2269 0.4137 1.9601 0
M  V30 20 H -4.6414 0.2959 -0.4879 0
M  V30 END ATOM
M  V30 BEGIN BOND
M  V30 1 1 1 2
M  V30 2 1 1 3
M  V30 3 1 2 4
M  V30 4 2 2 5
M  V30 5 2 3 6
M  V30 6 1 3 7
M  V30 7 1 4 8
M  V30 8 1 6 9
M  V30 9 2 7 10
M  V30 10 1 8 11
M  V30 11 2 9 12
M  V30 12 1 11 13
M  V30 13 3 13 14
M  V30 14 1 5 6
M  V30 15 1 10 12
M  V30 16 1 7 15
M  V30 17 1 8 16
M  V30 18 1 8 17
M  V30 19 1 9 18
M  V30 20 1 10 19
M  V30 21 1 12 20
M  V30 END BOND
M  V30 END CTAB
M  END
>  <Structure No>
4948

>  <LogS>
-3.2803

>  <MMFF94 Energy>
-15.694

$$$$
Compound 4949
Actelion Java MolfileCreator 2.0

  0  0  0  0  0  0              0 V3000
M  V30 BEGIN CTAB
M  V30 COUNTS 27 26 0 0 0
M  V30 BEGIN ATOM
M  V30 1 O 1.6201 1.7745 0.3855 0
M  V30 2 C 0.7207 0.716 0.1612 0 CFG=1
M  V30 3 C -0.7431 1.2276 0.2532 0
M  V30 4 C 1.0109 0.0509 -1.206 0
M  V30 5 C -1.6833 0.2963 1.0566 0
M  V30 6 C 2.4213 -0.5551 -1.299 0
M  V30 7 C -3.0531 0.9636 1.2393 0
M  V30 8 C -1.8575 -1.0743 0.388 0
M  V30 9 C 2.5725 -1.8295 -0.4685 0
M  V30 10 H 1.471 2.4507 -0.3266 0
M  V30 11 H 0.8886 -0.0272 0.9678 0
M  V30 12 H -1.1624 1.406 -0.7619 0
M  V30 13 H -0.7369 2.2164 0.7642 0
M  V30 14 H 0.2614 -0.7369 -1.426 0
M  V30 15 H 0.9101 0.8167 -2.0062 0
M  V30 16 H -1.2507 0.1383 2.0696 0
M  V30 17 H 3.1858 0.1879 -0.9857 0
M  V30 18 H 2.6216 -0.8102 -2.3621 0
M  V30 19 H -3.5365 1.1415 0.2546 0
M  V30 20 H -3.7172 0.3189 1.8539 0
M  V30 21 H -2.9412 1.9359 1.7651 0
M  V30 22 H -2.1961 -0.9581 -0.6637 0
M  V30 23 H -2.609 -1.6792 0.939 0
M  V30 24 H -0.9037 -1.6406 0.4084 0
M  V30 25 H 2.5237 -1.6029 0.6161 0
M  V30 26 H 1.7789 -2.5614 -0.7299 0
M  V30 27 H 3.5602 -2.2908 -0.6788 0
M  V30 END ATOM
M  V30 BEGIN BOND
M  V30 1 1 1 2
M  V30 2 1 2 3
M  V30 3 1 2 4
M  V30 4 1 3 5
M  V30 5 1 4 6
M  V30 6 1 5 7
M  V30 7 1 5 8
M  V30 8 1 6 9
M  V30 9 1 1 10
M  V30 10 1 2 11
M  V30 11 1 3 12
M  V30 12 1 3 13
M  V30 13 1 4 14
M  V30 14 1 4 15
M  V30 15 1 5 16
M  V30 16 1 6 17
M  V30 17 1 6 18
M  V30 18 1 7 19
M  V30 19 1 7 20
M  V30 20 1 7 21
M  V30 21 1 8 22
M  V30 22 1 8 23
M  V30 23 1 8 24
M  V30 24 1 9 25
M  V30 25 1 9 26
M  V30 26 1 9 27
M  V30 END BOND
M  V30 BEGIN COLLECTION
M  V30 MDLV30/STEABS ATOMS=(1 2)
M  V30 END COLLECTION
M  V30 END CTAB
M  END
>  <Structure No>
4949

>  <LogS>
-1.9079

>  <MMFF94 Energy>
8.9011

$$$$
Compound 4950
Actelion Java MolfileCreator 2.0

  0  0  0  0  0  0              0 V3000
M  V30 BEGIN CTAB
M  V30 COUNTS 21 22 0 0 0
M  V30 BEGIN ATOM
M  V30 1 O -3.2123 1.0431 0.0 0
M  V30 2 C -1.9547 0.9838 -0.0691 0
M  V30 3 N -1.2783 -0.2846 -0.1948 0
M  V30 4 C -1.1635 2.2573 -0.0886 0
M  V30 5 C 0.1609 -0.3196 -0.0375 0
M  V30 6 C -2.0437 -1.5138 -0.4437 0
M  V30 7 O 0.1375 2.0617 0.4613 0
M  V30 8 C 0.8415 0.8633 0.3155 0
M  V30 9 C 0.9018 -1.5118 -0.1826 0
M  V30 10 C 2.2218 0.8461 0.5422 0
M  V30 11 C 2.2837 -1.5161 0.0297 0
M  V30 12 C 2.942 -0.3406 0.3955 0
M  V30 13 H -1.687 3.0467 0.4913 0
M  V30 14 H -1.064 2.597 -1.1409 0
M  V30 15 H -3.1329 -1.3186 -0.5258 0
M  V30 16 H -1.7146 -1.9739 -1.3991 0
M  V30 17 H -1.8863 -2.2299 0.3904 0
M  V30 18 H 0.4236 -2.443 -0.452 0
M  V30 19 H 2.7363 1.756 0.8238 0
M  V30 20 H 2.8444 -2.4352 -0.0825 0
M  V30 21 H 4.011 -0.3492 0.5651 0
M  V30 END ATOM
M  V30 BEGIN BOND
M  V30 1 2 1 2
M  V30 2 1 2 3
M  V30 3 1 2 4
M  V30 4 1 3 5
M  V30 5 1 3 6
M  V30 6 1 4 7
M  V30 7 2 5 8
M  V30 8 1 5 9
M  V30 9 1 8 10
M  V30 10 2 9 11
M  V30 11 2 10 12
M  V30 12 1 7 8
M  V30 13 1 11 12
M  V30 14 1 4 13
M  V30 15 1 4 14
M  V30 16 1 6 15
M  V30 17 1 6 16
M  V30 18 1 6 17
M  V30 19 1 9 18
M  V30 20 1 10 19
M  V30 21 1 11 20
M  V30 22 1 12 21
M  V30 END BOND
M  V30 END CTAB
M  END
>  <Structure No>
4950

>  <LogS>
-2.1445

>  <MMFF94 Energy>
47.191

$$$$
Compound 4951
Actelion Java MolfileCreator 2.0

  0  0  0  0  0  0              0 V3000
M  V30 BEGIN CTAB
M  V30 COUNTS 24 24 0 0 0
M  V30 BEGIN ATOM
M  V30 1 Cl -3.6822 -0.4378 2.8047 0
M  V30 2 C -2.6955 -0.1237 1.3834 0
M  V30 3 C -3.1891 0.6322 0.3075 0
M  V30 4 C -1.3963 -0.642 1.3328 0
M  V30 5 Cl -4.8152 1.3011 0.3318 0
M  V30 6 C -2.3783 0.8624 -0.8081 0
M  V30 7 C -0.5768 -0.4147 0.2136 0
M  V30 8 C -1.0823 0.3436 -0.8575 0
M  V30 9 C 0.8271 -0.9957 0.1703 0 CFG=2
M  V30 10 O 1.7309 -0.0781 -0.4517 0
M  V30 11 C 0.8835 -2.354 -0.5637 0
M  V30 12 C 2.1157 1.136 0.128 0
M  V30 13 Cl 2.5425 -3.0048 -0.4806 0
M  V30 14 Cl 0.4419 -2.2019 -2.2876 0
M  V30 15 Cl -0.2009 -3.5501 0.1998 0
M  V30 16 O 1.7081 1.4613 1.2764 0
M  V30 17 C 3.0573 2.0313 -0.602 0
M  V30 18 H -1.0257 -1.2251 2.167 0
M  V30 19 H -2.7521 1.4452 -1.6405 0
M  V30 20 H -0.473 0.5388 -1.7305 0
M  V30 21 H 1.1786 -1.1704 1.2129 0
M  V30 22 H 2.7954 3.0942 -0.4149 0
M  V30 23 H 4.0935 1.8413 -0.2533 0
M  V30 24 H 2.9974 1.8343 -1.6928 0
M  V30 END ATOM
M  V30 BEGIN BOND
M  V30 1 1 1 2
M  V30 2 2 2 3
M  V30 3 1 2 4
M  V30 4 1 3 5
M  V30 5 1 3 6
M  V30 6 2 4 7
M  V30 7 2 6 8
M  V30 8 1 7 9
M  V30 9 1 9 10
M  V30 10 1 9 11
M  V30 11 1 10 12
M  V30 12 1 11 13
M  V30 13 1 11 14
M  V30 14 1 11 15
M  V30 15 2 12 16
M  V30 16 1 12 17
M  V30 17 1 7 8
M  V30 18 1 4 18
M  V30 19 1 6 19
M  V30 20 1 8 20
M  V30 21 1 9 21
M  V30 22 1 17 22
M  V30 23 1 17 23
M  V30 24 1 17 24
M  V30 END BOND
M  V30 BEGIN COLLECTION
M  V30 MDLV30/STEABS ATOMS=(1 9)
M  V30 END COLLECTION
M  V30 END CTAB
M  END
>  <Structure No>
4951

>  <LogS>
-3.8279

>  <MMFF94 Energy>
65.012

$$$$
Compound 4952
Actelion Java MolfileCreator 2.0

  0  0  0  0  0  0              0 V3000
M  V30 BEGIN CTAB
M  V30 COUNTS 31 30 0 0 0
M  V30 BEGIN ATOM
M  V30 1 O -3.3077 1.6912 -0.6916 0
M  V30 2 C -2.2081 1.2405 0.0577 0 CFG=2
M  V30 3 C -1.0226 0.9799 -0.8997 0
M  V30 4 C -2.6063 0.0085 0.902 0
M  V30 5 N 0.2491 0.7068 -0.1885 0 CHG=1
M  V30 6 C -3.2297 -1.1235 0.0818 0
M  V30 7 C 0.6634 -0.7024 -0.3285 0
M  V30 8 C 1.8946 -1.0708 0.5364 0 CFG=2
M  V30 9 O 1.5461 -1.1134 1.8988 0
M  V30 10 C 3.1385 -0.1789 0.3109 0
M  V30 11 C 3.6685 -0.2499 -1.1209 0
M  V30 12 H -3.9396 2.1128 -0.0518 0
M  V30 13 H -1.898 2.0515 0.758 0
M  V30 14 H -0.8969 1.8978 -1.5187 0
M  V30 15 H -1.2807 0.1763 -1.6246 0
M  V30 16 H -1.7292 -0.378 1.4615 0
M  V30 17 H -3.3502 0.3312 1.6627 0
M  V30 18 H 0.1744 0.9667 0.8209 0
M  V30 19 H 0.9901 1.3112 -0.6131 0
M  V30 20 H -4.1348 -0.767 -0.4532 0
M  V30 21 H -3.5303 -1.9469 0.7632 0
M  V30 22 H -2.507 -1.5323 -0.6524 0
M  V30 23 H 0.8899 -0.9214 -1.3956 0
M  V30 24 H -0.1677 -1.378 -0.0339 0
M  V30 25 H 2.1814 -2.1073 0.2533 0
M  V30 26 H 1.5 -0.1817 2.2363 0
M  V30 27 H 2.9211 0.8778 0.5748 0
M  V30 28 H 3.9448 -0.5253 0.9935 0
M  V30 29 H 3.8564 -1.3046 -1.4139 0
M  V30 30 H 2.9483 0.2082 -1.8299 0
M  V30 31 H 4.6242 0.3111 -1.1889 0
M  V30 END ATOM
M  V30 BEGIN BOND
M  V30 1 1 1 2
M  V30 2 1 2 3
M  V30 3 1 2 4
M  V30 4 1 3 5
M  V30 5 1 4 6
M  V30 6 1 5 7
M  V30 7 1 7 8
M  V30 8 1 8 9
M  V30 9 1 8 10
M  V30 10 1 10 11
M  V30 11 1 1 12
M  V30 12 1 2 13
M  V30 13 1 3 14
M  V30 14 1 3 15
M  V30 15 1 4 16
M  V30 16 1 4 17
M  V30 17 1 5 18
M  V30 18 1 5 19
M  V30 19 1 6 20
M  V30 20 1 6 21
M  V30 21 1 6 22
M  V30 22 1 7 23
M  V30 23 1 7 24
M  V30 24 1 8 25
M  V30 25 1 9 26
M  V30 26 1 10 27
M  V30 27 1 10 28
M  V30 28 1 11 29
M  V30 29 1 11 30
M  V30 30 1 11 31
M  V30 END BOND
M  V30 BEGIN COLLECTION
M  V30 MDLV30/STEABS ATOMS=(2 2 8)
M  V30 END COLLECTION
M  V30 END CTAB
M  END
>  <Structure No>
4952

>  <LogS>
0.7925

>  <MMFF94 Energy>
35.411

$$$$
Compound 4953
Actelion Java MolfileCreator 2.0

  0  0  0  0  0  0              0 V3000
M  V30 BEGIN CTAB
M  V30 COUNTS 20 19 0 0 0
M  V30 BEGIN ATOM
M  V30 1 O -3.8406 1.0961 0.8611 0
M  V30 2 N -2.7533 0.4946 0.759 0 CHG=1
M  V30 3 O -1.9882 0.6645 -0.3782 0
M  V30 4 O -2.3587 -0.3638 1.7599 0 CHG=-1
M  V30 5 C -0.7157 0.0412 -0.5442 0 CFG=2
M  V30 6 C 0.3337 0.7853 0.3116 0
M  V30 7 C -0.3615 0.0627 -2.0328 0
M  V30 8 C 1.7445 0.1699 0.2854 0
M  V30 9 C 1.7909 -1.2427 0.8667 0
M  V30 10 H -0.7964 -1.0192 -0.2233 0
M  V30 11 H 0.4028 1.8386 -0.038 0
M  V30 12 H -0.0128 0.8222 1.3668 0
M  V30 13 H -1.2025 -0.3597 -2.6226 0
M  V30 14 H -0.1762 1.1029 -2.3765 0
M  V30 15 H 0.5354 -0.5589 -2.233 0
M  V30 16 H 2.1536 0.1656 -0.7462 0
M  V30 17 H 2.4124 0.8163 0.895 0
M  V30 18 H 2.8488 -1.5618 0.9756 0
M  V30 19 H 1.3089 -1.2688 1.8672 0
M  V30 20 H 1.2842 -1.9616 0.1904 0
M  V30 END ATOM
M  V30 BEGIN BOND
M  V30 1 2 1 2
M  V30 2 1 2 3
M  V30 3 1 2 4
M  V30 4 1 3 5
M  V30 5 1 5 6
M  V30 6 1 5 7
M  V30 7 1 6 8
M  V30 8 1 8 9
M  V30 9 1 5 10
M  V30 10 1 6 11
M  V30 11 1 6 12
M  V30 12 1 7 13
M  V30 13 1 7 14
M  V30 14 1 7 15
M  V30 15 1 8 16
M  V30 16 1 8 17
M  V30 17 1 9 18
M  V30 18 1 9 19
M  V30 19 1 9 20
M  V30 END BOND
M  V30 BEGIN COLLECTION
M  V30 MDLV30/STEABS ATOMS=(1 5)
M  V30 END COLLECTION
M  V30 END CTAB
M  END
>  <Structure No>
4953

>  <LogS>
-2.4809

>  <MMFF94 Energy>
-11.855

$$$$
Compound 4954
Actelion Java MolfileCreator 2.0

  0  0  0  0  0  0              0 V3000
M  V30 BEGIN CTAB
M  V30 COUNTS 30 29 0 0 0
M  V30 BEGIN ATOM
M  V30 1 S -2.6783 0.2432 -0.4054 0
M  V30 2 C -2.0123 1.4911 -1.5083 0
M  V30 3 C -1.2784 0.3027 0.7741 0
M  V30 4 O -1.3535 1.1417 -2.5224 0
M  V30 5 N -2.2384 2.8738 -1.2464 0
M  V30 6 C -0.0031 -0.4075 0.2493 0
M  V30 7 N -0.2456 -1.8314 -0.147 0 CHG=1
M  V30 8 C 1.1664 -0.2214 1.2656 0
M  V30 9 C 0.9633 -2.4588 -0.7144 0
M  V30 10 C -0.8073 -2.6797 0.9253 0
M  V30 11 S 2.727 0.2594 0.4355 0
M  V30 12 C 2.2954 1.9955 0.2895 0
M  V30 13 O 2.5221 2.7764 1.2506 0
M  V30 14 N 1.7149 2.4961 -0.9127 0
M  V30 15 H -1.0486 1.3693 0.9896 0
M  V30 16 H -1.6025 -0.1447 1.7361 0
M  V30 17 H -1.8494 3.603 -1.8843 0
M  V30 18 H -2.7862 3.1691 -0.4083 0
M  V30 19 H 0.271 0.1475 -0.6714 0
M  V30 20 H -0.9475 -1.8282 -0.924 0
M  V30 21 H 1.3674 -1.1449 1.8388 0
M  V30 22 H 0.9251 0.5491 2.0299 0
M  V30 23 H 1.725 -2.659 0.0692 0
M  V30 24 H 1.4111 -1.8106 -1.4992 0
M  V30 25 H 0.7055 -3.4275 -1.197 0
M  V30 26 H -0.1692 -2.6905 1.831 0
M  V30 27 H -0.9156 -3.7293 0.5731 0
M  V30 28 H -1.8279 -2.3435 1.2029 0
M  V30 29 H 1.578 1.8697 -1.7361 0
M  V30 30 H 1.4388 3.5002 -0.9875 0
M  V30 END ATOM
M  V30 BEGIN BOND
M  V30 1 1 1 2
M  V30 2 1 1 3
M  V30 3 2 2 4
M  V30 4 1 2 5
M  V30 5 1 3 6
M  V30 6 1 6 7
M  V30 7 1 6 8
M  V30 8 1 7 9
M  V30 9 1 7 10
M  V30 10 1 8 11
M  V30 11 1 11 12
M  V30 12 2 12 13
M  V30 13 1 12 14
M  V30 14 1 3 15
M  V30 15 1 3 16
M  V30 16 1 5 17
M  V30 17 1 5 18
M  V30 18 1 6 19
M  V30 19 1 7 20
M  V30 20 1 8 21
M  V30 21 1 8 22
M  V30 22 1 9 23
M  V30 23 1 9 24
M  V30 24 1 9 25
M  V30 25 1 10 26
M  V30 26 1 10 27
M  V30 27 1 10 28
M  V30 28 1 14 29
M  V30 29 1 14 30
M  V30 END BOND
M  V30 END CTAB
M  END
>  <Structure No>
4954

>  <LogS>
-0.1364

>  <MMFF94 Energy>
-106.49

$$$$
Compound 4955
Actelion Java MolfileCreator 2.0

  0  0  0  0  0  0              0 V3000
M  V30 BEGIN CTAB
M  V30 COUNTS 12 12 0 0 0
M  V30 BEGIN ATOM
M  V30 1 S 0.6823 2.1335 -0.3411 0
M  V30 2 N 2.2285 1.5583 -0.1776 0
M  V30 3 C -0.1274 0.6952 -0.1048 0
M  V30 4 N 2.1511 0.2519 0.0611 0
M  V30 5 C 0.8798 -0.2557 0.1081 0
M  V30 6 C -1.6103 0.5101 -0.1252 0
M  V30 7 C 0.6461 -1.688 0.3646 0
M  V30 8 O 1.6255 -2.4588 0.5433 0
M  V30 9 O -0.6412 -2.2078 0.4133 0 CHG=-1
M  V30 10 H -2.1139 1.4794 -0.3229 0
M  V30 11 H -1.9538 0.1248 0.8572 0
M  V30 12 H -1.8881 -0.2051 -0.9268 0
M  V30 END ATOM
M  V30 BEGIN BOND
M  V30 1 1 1 2
M  V30 2 1 1 3
M  V30 3 2 2 4
M  V30 4 2 3 5
M  V30 5 1 3 6
M  V30 6 1 5 7
M  V30 7 2 7 8
M  V30 8 1 7 9
M  V30 9 1 4 5
M  V30 10 1 6 10
M  V30 11 1 6 11
M  V30 12 1 6 12
M  V30 END BOND
M  V30 END CTAB
M  END
>  <Structure No>
4955

>  <LogS>
-0.4598

>  <MMFF94 Energy>
38.203

$$$$
Compound 4956
Actelion Java MolfileCreator 2.0

  0  0  0  0  0  0              0 V3000
M  V30 BEGIN CTAB
M  V30 COUNTS 28 29 0 0 0
M  V30 BEGIN ATOM
M  V30 1 O 2.3112 -2.0719 -1.5137 0
M  V30 2 C 2.4944 -1.0968 -0.7376 0
M  V30 3 N 3.736 -0.5604 -0.6094 0
M  V30 4 C 1.4339 -0.5591 -0.0052 0
M  V30 5 C 3.9703 0.4938 0.2195 0
M  V30 6 N 0.1724 -1.0578 -0.0973 0
M  V30 7 C 1.6893 0.5281 0.8449 0
M  V30 8 N 2.9481 1.0341 0.9427 0
M  V30 9 N 5.2893 1.0291 0.3264 0
M  V30 10 C -0.8522 -0.5281 0.6264 0
M  V30 11 N 0.6671 1.0668 1.5604 0
M  V30 12 C -0.5942 0.5681 1.4696 0
M  V30 13 C -2.2425 -1.0991 0.4615 0 CFG=1
M  V30 14 O -2.9935 -0.9542 1.6415 0
M  V30 15 C -2.9825 -0.4515 -0.7326 0 CFG=1
M  V30 16 O -4.1613 -1.1616 -1.0206 0
M  V30 17 C -3.2974 1.0376 -0.5198 0
M  V30 18 H 3.1309 1.8444 1.5774 0
M  V30 19 H 5.4878 1.8375 0.9568 0
M  V30 20 H 6.0721 0.6159 -0.2271 0
M  V30 21 H -1.388 1.027 2.0444 0
M  V30 22 H -2.1402 -2.1862 0.2334 0
M  V30 23 H -2.6182 -1.5951 2.3008 0
M  V30 24 H -2.3272 -0.5292 -1.628 0
M  V30 25 H -4.7734 -1.0579 -0.2455 0
M  V30 26 H -3.8811 1.422 -1.3829 0
M  V30 27 H -2.3605 1.6284 -0.4514 0
M  V30 28 H -3.8932 1.1892 0.4049 0
M  V30 END ATOM
M  V30 BEGIN BOND
M  V30 1 2 1 2
M  V30 2 1 2 3
M  V30 3 1 2 4
M  V30 4 2 3 5
M  V30 5 2 4 6
M  V30 6 1 4 7
M  V30 7 1 5 8
M  V30 8 1 5 9
M  V30 9 1 6 10
M  V30 10 2 7 11
M  V30 11 2 10 12
M  V30 12 1 10 13
M  V30 13 1 13 14
M  V30 14 1 13 15
M  V30 15 1 15 16
M  V30 16 1 15 17
M  V30 17 1 7 8
M  V30 18 1 11 12
M  V30 19 1 8 18
M  V30 20 1 9 19
M  V30 21 1 9 20
M  V30 22 1 12 21
M  V30 23 1 13 22
M  V30 24 1 14 23
M  V30 25 1 15 24
M  V30 26 1 16 25
M  V30 27 1 17 26
M  V30 28 1 17 27
M  V30 29 1 17 28
M  V30 END BOND
M  V30 BEGIN COLLECTION
M  V30 MDLV30/STEABS ATOMS=(2 13 15)
M  V30 END COLLECTION
M  V30 END CTAB
M  END
>  <Structure No>
4956

>  <LogS>
-2.5301

>  <MMFF94 Energy>
28.539

$$$$
Compound 4957
Actelion Java MolfileCreator 2.0

  0  0  0  0  0  0              0 V3000
M  V30 BEGIN CTAB
M  V30 COUNTS 41 42 0 0 0
M  V30 BEGIN ATOM
M  V30 1 Cl -0.6516 -4.8135 2.4453 0
M  V30 2 C -0.2149 -3.8003 1.0767 0
M  V30 3 C 0.5854 -4.2924 0.0309 0
M  V30 4 C -0.6767 -2.4795 1.0369 0
M  V30 5 Cl 1.1909 -5.9429 0.0448 0
M  V30 6 C 0.9106 -3.4598 -1.0462 0
M  V30 7 C -0.3388 -1.6432 -0.0365 0
M  V30 8 C 0.4472 -2.1425 -1.0825 0
M  V30 9 N -0.8008 -0.2826 -0.0764 0
M  V30 10 C -2.1551 -0.0349 -0.4978 0
M  V30 11 C -0.0103 0.7968 0.5475 0 CFG=2
M  V30 12 O -3.0733 -0.8155 -0.1244 0
M  V30 13 C -2.4884 1.1053 -1.3819 0
M  V30 14 C 1.4168 0.7673 0.0698 0
M  V30 15 C -0.0811 0.7067 2.0749 0
M  V30 16 C -1.5345 1.6188 -2.2786 0
M  V30 17 C -3.7771 1.668 -1.3586 0
M  V30 18 O 1.7864 1.5624 -0.8367 0
M  V30 19 O 2.3083 -0.1766 0.5957 0
M  V30 20 C -1.8578 2.6892 -3.1178 0
M  V30 21 C -4.0953 2.7396 -2.199 0
M  V30 22 C 3.6649 -0.2968 0.1754 0
M  V30 23 C -3.1359 3.2512 -3.076 0
M  V30 24 C 4.515 0.8141 0.7797 0
M  V30 25 H -1.2948 -2.1004 1.8412 0
M  V30 26 H 1.5243 -3.8328 -1.8562 0
M  V30 27 H 0.7059 -1.5058 -1.9193 0
M  V30 28 H -0.4381 1.7856 0.2708 0
M  V30 29 H 0.3843 -0.2312 2.4442 0
M  V30 30 H -1.1414 0.733 2.4048 0
M  V30 31 H 0.4498 1.5692 2.5317 0
M  V30 32 H -0.5456 1.1835 -2.3413 0
M  V30 33 H -4.5332 1.2869 -0.6833 0
M  V30 34 H -1.1183 3.0795 -3.8046 0
M  V30 35 H -5.0868 3.173 -2.1706 0
M  V30 36 H 4.0558 -1.2756 0.5245 0
M  V30 37 H 3.7303 -0.2762 -0.9344 0
M  V30 38 H -3.3847 4.0794 -3.7269 0
M  V30 39 H 4.1785 1.8045 0.4085 0
M  V30 40 H 4.4338 0.7934 1.8874 0
M  V30 41 H 5.5775 0.6682 0.4929 0
M  V30 END ATOM
M  V30 BEGIN BOND
M  V30 1 1 1 2
M  V30 2 2 2 3
M  V30 3 1 2 4
M  V30 4 1 3 5
M  V30 5 1 3 6
M  V30 6 2 4 7
M  V30 7 2 6 8
M  V30 8 1 7 9
M  V30 9 1 9 10
M  V30 10 1 9 11
M  V30 11 2 10 12
M  V30 12 1 10 13
M  V30 13 1 11 14
M  V30 14 1 11 15
M  V30 15 2 13 16
M  V30 16 1 13 17
M  V30 17 2 14 18
M  V30 18 1 14 19
M  V30 19 1 16 20
M  V30 20 2 17 21
M  V30 21 1 19 22
M  V30 22 2 20 23
M  V30 23 1 22 24
M  V30 24 1 7 8
M  V30 25 1 21 23
M  V30 26 1 4 25
M  V30 27 1 6 26
M  V30 28 1 8 27
M  V30 29 1 11 28
M  V30 30 1 15 29
M  V30 31 1 15 30
M  V30 32 1 15 31
M  V30 33 1 16 32
M  V30 34 1 17 33
M  V30 35 1 20 34
M  V30 36 1 21 35
M  V30 37 1 22 36
M  V30 38 1 22 37
M  V30 39 1 23 38
M  V30 40 1 24 39
M  V30 41 1 24 40
M  V30 42 1 24 41
M  V30 END BOND
M  V30 BEGIN COLLECTION
M  V30 MDLV30/STEABS ATOMS=(1 11)
M  V30 END COLLECTION
M  V30 END CTAB
M  END
>  <Structure No>
4957

>  <LogS>
-4.2627

>  <MMFF94 Energy>
73.626

$$$$
Compound 4958
Actelion Java MolfileCreator 2.0

  0  0  0  0  0  0              0 V3000
M  V30 BEGIN CTAB
M  V30 COUNTS 27 27 0 0 0
M  V30 BEGIN ATOM
M  V30 1 O 2.7529 -0.5501 -1.8871 0
M  V30 2 C 3.2802 -0.3751 -0.7553 0
M  V30 3 N 2.5274 0.2039 0.322 0
M  V30 4 C 4.7333 -0.6856 -0.5689 0
M  V30 5 C 1.0994 0.3736 0.3091 0
M  V30 6 O 5.5095 0.4332 -0.8977 0
M  V30 7 C 0.5304 1.4619 0.985 0
M  V30 8 C 0.2541 -0.5588 -0.3167 0
M  V30 9 C -0.8559 1.6374 1.0058 0
M  V30 10 C -1.133 -0.3836 -0.295 0
M  V30 11 C -1.7001 0.721 0.3692 0
M  V30 12 O -3.0851 0.9509 0.4207 0
M  V30 13 C -4.0926 0.0714 -0.079 0
M  V30 14 C -4.2889 -1.1146 0.8589 0
M  V30 15 H 3.0615 0.6011 1.1282 0
M  V30 16 H 4.9279 -1.0035 0.4803 0
M  V30 17 H 5.0201 -1.5284 -1.2327 0
M  V30 18 H 5.4378 1.0637 -0.1339 0
M  V30 19 H 1.164 2.1817 1.4881 0
M  V30 20 H 0.6603 -1.4362 -0.8017 0
M  V30 21 H -1.2777 2.4897 1.5236 0
M  V30 22 H -1.75 -1.1174 -0.7932 0
M  V30 23 H -5.0485 0.6335 -0.1352 0
M  V30 24 H -3.8482 -0.2689 -1.1074 0
M  V30 25 H -4.5649 -0.7528 1.8719 0
M  V30 26 H -5.1043 -1.7628 0.4746 0
M  V30 27 H -3.3602 -1.7167 0.9319 0
M  V30 END ATOM
M  V30 BEGIN BOND
M  V30 1 2 1 2
M  V30 2 1 2 3
M  V30 3 1 2 4
M  V30 4 1 3 5
M  V30 5 1 4 6
M  V30 6 2 5 7
M  V30 7 1 5 8
M  V30 8 1 7 9
M  V30 9 2 8 10
M  V30 10 2 9 11
M  V30 11 1 11 12
M  V30 12 1 12 13
M  V30 13 1 13 14
M  V30 14 1 10 11
M  V30 15 1 3 15
M  V30 16 1 4 16
M  V30 17 1 4 17
M  V30 18 1 6 18
M  V30 19 1 7 19
M  V30 20 1 8 20
M  V30 21 1 9 21
M  V30 22 1 10 22
M  V30 23 1 13 23
M  V30 24 1 13 24
M  V30 25 1 14 25
M  V30 26 1 14 26
M  V30 27 1 14 27
M  V30 END BOND
M  V30 END CTAB
M  END
>  <Structure No>
4958

>  <LogS>
-2.1058

>  <MMFF94 Energy>
30.154

$$$$
Compound 4959
Actelion Java MolfileCreator 2.0

  0  0  0  0  0  0              0 V3000
M  V30 BEGIN CTAB
M  V30 COUNTS 31 32 0 0 0
M  V30 BEGIN ATOM
M  V30 1 O -0.658 -2.0574 -1.2341 0
M  V30 2 C -1.8225 -1.5845 -1.1727 0
M  V30 3 O -2.8846 -2.3568 -1.6285 0 CHG=-1
M  V30 4 C -2.0659 -0.2041 -0.6868 0
M  V30 5 C -1.2896 0.418 0.3382 0
M  V30 6 C -3.1203 0.5125 -1.2825 0
M  V30 7 C -1.5706 1.7645 0.6684 0
M  V30 8 C -0.1755 -0.332 1.0782 0
M  V30 9 C -3.3878 1.8303 -0.9176 0
M  V30 10 C -2.6085 2.4576 0.0477 0
M  V30 11 C 1.1621 -0.2926 0.3377 0
M  V30 12 C -0.0077 0.1344 2.5044 0
M  V30 13 C 2.0478 -1.4115 0.3146 0
M  V30 14 C 1.553 0.8873 -0.3331 0
M  V30 15 O -0.7958 -0.2785 3.3959 0
M  V30 16 O 0.9772 1.0568 2.8408 0 CHG=-1
M  V30 17 C 1.8027 -2.6596 1.0751 0
M  V30 18 C 3.2253 -1.3416 -0.4514 0
M  V30 19 C 2.7373 0.9388 -1.0669 0
M  V30 20 O 1.2833 -2.6287 2.2216 0
M  V30 21 O 2.2099 -3.8816 0.5532 0 CHG=-1
M  V30 22 C 3.5642 -0.1772 -1.1377 0
M  V30 23 H -3.7287 0.0578 -2.0549 0
M  V30 24 H -0.9857 2.2901 1.4111 0
M  V30 25 H -0.5197 -1.3827 1.1532 0
M  V30 26 H -4.1954 2.3705 -1.3947 0
M  V30 27 H -2.8104 3.4858 0.3194 0
M  V30 28 H 0.9395 1.7761 -0.3019 0
M  V30 29 H 3.904 -2.1846 -0.4964 0
M  V30 30 H 3.0127 1.848 -1.5856 0
M  V30 31 H 4.4807 -0.1349 -1.712 0
M  V30 END ATOM
M  V30 BEGIN BOND
M  V30 1 2 1 2
M  V30 2 1 2 3
M  V30 3 1 2 4
M  V30 4 2 4 5
M  V30 5 1 4 6
M  V30 6 1 5 7
M  V30 7 1 5 8
M  V30 8 2 6 9
M  V30 9 2 7 10
M  V30 10 1 8 11
M  V30 11 1 8 12
M  V30 12 2 11 13
M  V30 13 1 11 14
M  V30 14 2 12 15
M  V30 15 1 12 16
M  V30 16 1 13 17
M  V30 17 1 13 18
M  V30 18 2 14 19
M  V30 19 2 17 20
M  V30 20 1 17 21
M  V30 21 2 18 22
M  V30 22 1 9 10
M  V30 23 1 19 22
M  V30 24 1 6 23
M  V30 25 1 7 24
M  V30 26 1 8 25
M  V30 27 1 9 26
M  V30 28 1 10 27
M  V30 29 1 14 28
M  V30 30 1 18 29
M  V30 31 1 19 30
M  V30 32 1 22 31
M  V30 END BOND
M  V30 END CTAB
M  END
>  <Structure No>
4959

>  <LogS>
-2.4998

>  <MMFF94 Energy>
337.8

$$$$
Compound 4960
Actelion Java MolfileCreator 2.0

  0  0  0  0  0  0              0 V3000
M  V30 BEGIN CTAB
M  V30 COUNTS 27 27 0 0 0
M  V30 BEGIN ATOM
M  V30 1 Cl 3.418 0.2695 0.4492 0
M  V30 2 C 2.6067 -0.8758 -0.6592 0
M  V30 3 Cl 1.8034 -2.141 0.3222 0
M  V30 4 S 1.3611 0.0317 -1.6662 0
M  V30 5 C 3.6581 -1.514 -1.5964 0
M  V30 6 N 0.3606 0.5885 -0.3056 0
M  V30 7 Cl 2.9097 -2.6781 -2.7297 0
M  V30 8 Cl 4.9205 -2.3853 -0.6763 0
M  V30 9 F 4.2772 -0.5252 -2.3415 0
M  V30 10 S 0.5527 2.2278 0.2442 0
M  V30 11 C -0.7643 -0.194 0.1372 0
M  V30 12 O 1.1015 2.2408 1.6429 0
M  V30 13 O 1.5046 2.9578 -0.6614 0
M  V30 14 C -1.0153 3.0693 0.2028 0
M  V30 15 C -1.1263 -0.2166 1.4961 0
M  V30 16 C -1.5091 -0.9599 -0.7784 0
M  V30 17 C -2.212 -0.9845 1.9273 0
M  V30 18 C -2.5943 -1.7261 -0.3425 0
M  V30 19 C -2.9458 -1.7383 1.0089 0
M  V30 20 H -1.4501 2.9909 -0.8147 0
M  V30 21 H -1.7089 2.6085 0.9355 0
M  V30 22 H -0.8697 4.1386 0.4605 0
M  V30 23 H -0.561 0.3446 2.2267 0
M  V30 24 H -1.2627 -0.9554 -1.8317 0
M  V30 25 H -2.4819 -0.9982 2.9753 0
M  V30 26 H -3.1644 -2.3093 -1.054 0
M  V30 27 H -3.7858 -2.3324 1.3445 0
M  V30 END ATOM
M  V30 BEGIN BOND
M  V30 1 1 1 2
M  V30 2 1 2 3
M  V30 3 1 2 4
M  V30 4 1 2 5
M  V30 5 1 4 6
M  V30 6 1 5 7
M  V30 7 1 5 8
M  V30 8 1 5 9
M  V30 9 1 6 10
M  V30 10 1 6 11
M  V30 11 2 10 12
M  V30 12 2 10 13
M  V30 13 1 10 14
M  V30 14 2 11 15
M  V30 15 1 11 16
M  V30 16 1 15 17
M  V30 17 2 16 18
M  V30 18 2 17 19
M  V30 19 1 18 19
M  V30 20 1 14 20
M  V30 21 1 14 21
M  V30 22 1 14 22
M  V30 23 1 15 23
M  V30 24 1 16 24
M  V30 25 1 17 25
M  V30 26 1 18 26
M  V30 27 1 19 27
M  V30 END BOND
M  V30 END CTAB
M  END
>  <Structure No>
4960

>  <LogS>
-5.1485

>  <MMFF94 Energy>
98.009

$$$$
Compound 4961
Actelion Java MolfileCreator 2.0

  0  0  0  0  0  0              0 V3000
M  V30 BEGIN CTAB
M  V30 COUNTS 21 21 0 0 0
M  V30 BEGIN ATOM
M  V30 1 O 1.3065 -2.2872 -0.2448 0
M  V30 2 N 0.2388 -2.2222 -0.8886 0 CHG=1
M  V30 3 O -0.1322 -3.2958 -1.6654 0 CHG=-1
M  V30 4 C -0.6862 -1.1432 -0.6631 0
M  V30 5 C -0.2441 0.1792 -0.3919 0
M  V30 6 C -2.0658 -1.4155 -0.6748 0
M  V30 7 C 1.1846 0.558 -0.4798 0
M  V30 8 C -1.1949 1.1778 -0.1106 0
M  V30 9 C -2.9936 -0.4104 -0.3969 0
M  V30 10 O 1.8687 0.1731 -1.467 0
M  V30 11 C 1.8344 1.4139 0.5706 0
M  V30 12 C -2.5587 0.8818 -0.1092 0
M  V30 13 C 2.9644 0.6744 1.2123 0
M  V30 14 O 2.742 -0.1197 2.1639 0
M  V30 15 O 4.2582 0.8248 0.7293 0 CHG=-1
M  V30 16 H -2.4251 -2.4168 -0.8756 0
M  V30 17 H -0.884 2.198 0.0775 0
M  V30 18 H -4.0523 -0.6359 -0.4 0
M  V30 19 H 2.2166 2.3441 0.099 0
M  V30 20 H 1.1052 1.7047 1.3571 0
M  V30 21 H -3.2808 1.6602 0.1021 0
M  V30 END ATOM
M  V30 BEGIN BOND
M  V30 1 2 1 2
M  V30 2 1 2 3
M  V30 3 1 2 4
M  V30 4 2 4 5
M  V30 5 1 4 6
M  V30 6 1 5 7
M  V30 7 1 5 8
M  V30 8 2 6 9
M  V30 9 2 7 10
M  V30 10 1 7 11
M  V30 11 2 8 12
M  V30 12 1 11 13
M  V30 13 2 13 14
M  V30 14 1 13 15
M  V30 15 1 9 12
M  V30 16 1 6 16
M  V30 17 1 8 17
M  V30 18 1 9 18
M  V30 19 1 11 19
M  V30 20 1 11 20
M  V30 21 1 12 21
M  V30 END BOND
M  V30 END CTAB
M  END
>  <Structure No>
4961

>  <LogS>
-1.8434

>  <MMFF94 Energy>
23.988

$$$$
Compound 4962
Actelion Java MolfileCreator 2.0

  0  0  0  0  0  0              0 V3000
M  V30 BEGIN CTAB
M  V30 COUNTS 29 30 0 0 0
M  V30 BEGIN ATOM
M  V30 1 O 3.1167 1.1179 0.9582 0
M  V30 2 C 2.8937 0.0199 0.3783 0
M  V30 3 O 1.6344 -0.2623 -0.1655 0
M  V30 4 N 3.9153 -0.9796 0.3207 0
M  V30 5 C 0.6345 0.6843 -0.4316 0
M  V30 6 C 5.2415 -0.7608 0.8842 0
M  V30 7 C -0.7005 0.2838 -0.4435 0
M  V30 8 C 0.907 2.0408 -0.7343 0
M  V30 9 O -1.2225 -0.9733 -0.2011 0
M  V30 10 C -1.7141 1.1488 -0.7077 0
M  V30 11 C -0.1502 2.9374 -1.0074 0
M  V30 12 C -2.6526 -0.8951 -0.3196 0
M  V30 13 O -2.9214 0.4787 -0.6438 0
M  V30 14 C -1.4835 2.491 -0.9917 0
M  V30 15 C -3.1354 -1.8048 -1.4495 0
M  V30 16 C -3.3096 -1.2577 1.0125 0
M  V30 17 H 3.7041 -1.8913 -0.1433 0
M  V30 18 H 5.8722 -1.6604 0.7238 0
M  V30 19 H 5.7227 0.1082 0.3882 0
M  V30 20 H 5.1604 -0.5688 1.9748 0
M  V30 21 H 1.9234 2.4042 -0.7923 0
M  V30 22 H 0.0673 3.9717 -1.2397 0
M  V30 23 H -2.3028 3.166 -1.2017 0
M  V30 24 H -2.642 -1.518 -2.4023 0
M  V30 25 H -4.235 -1.71 -1.5769 0
M  V30 26 H -2.8852 -2.8634 -1.225 0
M  V30 27 H -2.9401 -0.5816 1.8125 0
M  V30 28 H -4.4129 -1.1509 0.9394 0
M  V30 29 H -3.0631 -2.3045 1.291 0
M  V30 END ATOM
M  V30 BEGIN BOND
M  V30 1 2 1 2
M  V30 2 1 2 3
M  V30 3 1 2 4
M  V30 4 1 3 5
M  V30 5 1 4 6
M  V30 6 2 5 7
M  V30 7 1 5 8
M  V30 8 1 7 9
M  V30 9 1 7 10
M  V30 10 2 8 11
M  V30 11 1 9 12
M  V30 12 1 10 13
M  V30 13 2 10 14
M  V30 14 1 12 15
M  V30 15 1 12 16
M  V30 16 1 11 14
M  V30 17 1 12 13
M  V30 18 1 4 17
M  V30 19 1 6 18
M  V30 20 1 6 19
M  V30 21 1 6 20
M  V30 22 1 8 21
M  V30 23 1 11 22
M  V30 24 1 14 23
M  V30 25 1 15 24
M  V30 26 1 15 25
M  V30 27 1 15 26
M  V30 28 1 16 27
M  V30 29 1 16 28
M  V30 30 1 16 29
M  V30 END BOND
M  V30 END CTAB
M  END
>  <Structure No>
4962

>  <LogS>
-2.9338

>  <MMFF94 Energy>
-7.9492

$$$$
Compound 4963
Actelion Java MolfileCreator 2.0

  0  0  0  0  0  0              0 V3000
M  V30 BEGIN CTAB
M  V30 COUNTS 39 40 0 0 0
M  V30 BEGIN ATOM
M  V30 1 O -3.0915 -1.0296 -1.9016 0
M  V30 2 C -3.7158 -0.2289 -1.1541 0
M  V30 3 O -3.4207 -0.1431 0.2107 0
M  V30 4 C -4.8193 0.599 -1.7188 0
M  V30 5 C -2.3678 -0.8824 0.8373 0 CFG=2
M  V30 6 C -2.4785 -0.776 2.3538 0 CFG=2
M  V30 7 C -0.9949 -0.2588 0.4997 0 CFG=1
M  V30 8 O -3.7829 -0.4552 2.7636 0
M  V30 9 C -1.4948 0.3187 2.7211 0
M  V30 10 N -0.4001 0.2223 1.7603 0 CHG=1
M  V30 11 C -0.0724 -1.2644 -0.2251 0
M  V30 12 C 1.2143 -0.6129 -0.6634 0
M  V30 13 C 1.2379 0.1997 -1.8072 0
M  V30 14 C 2.3905 -0.7805 0.0839 0
M  V30 15 C 2.4224 0.8272 -2.2028 0
M  V30 16 C 3.5751 -0.1524 -0.3119 0
M  V30 17 C 3.5984 0.6585 -1.4629 0
M  V30 18 O 4.7609 1.31 -1.9011 0
M  V30 19 C 6.023 1.2282 -1.2469 0
M  V30 20 H -5.7518 -0.0016 -1.7536 0
M  V30 21 H -4.9853 1.4937 -1.0827 0
M  V30 22 H -4.5584 0.9326 -2.7453 0
M  V30 23 H -2.4399 -1.9543 0.5422 0
M  V30 24 H -2.1519 -1.7391 2.8127 0
M  V30 25 H -1.1538 0.6127 -0.178 0
M  V30 26 H -3.8024 -0.5647 3.7501 0
M  V30 27 H -1.1257 0.1883 3.7629 0
M  V30 28 H -1.9842 1.3166 2.6364 0
M  V30 29 H 0.3087 -0.4522 2.134 0
M  V30 30 H 0.0497 1.1585 1.6268 0
M  V30 31 H 0.1356 -2.1344 0.4362 0
M  V30 32 H -0.5914 -1.6635 -1.1231 0
M  V30 33 H 0.3376 0.3488 -2.3909 0
M  V30 34 H 2.3915 -1.3968 0.9744 0
M  V30 35 H 2.4264 1.4503 -3.0882 0
M  V30 36 H 4.4651 -0.3021 0.2838 0
M  V30 37 H 5.9438 1.6259 -0.2129 0
M  V30 38 H 6.3746 0.175 -1.2259 0
M  V30 39 H 6.7615 1.8383 -1.8064 0
M  V30 END ATOM
M  V30 BEGIN BOND
M  V30 1 2 1 2
M  V30 2 1 2 3
M  V30 3 1 2 4
M  V30 4 1 3 5
M  V30 5 1 5 6
M  V30 6 1 5 7
M  V30 7 1 6 8
M  V30 8 1 6 9
M  V30 9 1 7 10
M  V30 10 1 7 11
M  V30 11 1 11 12
M  V30 12 2 12 13
M  V30 13 1 12 14
M  V30 14 1 13 15
M  V30 15 2 14 16
M  V30 16 2 15 17
M  V30 17 1 17 18
M  V30 18 1 18 19
M  V30 19 1 9 10
M  V30 20 1 16 17
M  V30 21 1 4 20
M  V30 22 1 4 21
M  V30 23 1 4 22
M  V30 24 1 5 23
M  V30 25 1 6 24
M  V30 26 1 7 25
M  V30 27 1 8 26
M  V30 28 1 9 27
M  V30 29 1 9 28
M  V30 30 1 10 29
M  V30 31 1 10 30
M  V30 32 1 11 31
M  V30 33 1 11 32
M  V30 34 1 13 33
M  V30 35 1 14 34
M  V30 36 1 15 35
M  V30 37 1 16 36
M  V30 38 1 19 37
M  V30 39 1 19 38
M  V30 40 1 19 39
M  V30 END BOND
M  V30 BEGIN COLLECTION
M  V30 MDLV30/STEABS ATOMS=(3 5 6 7)
M  V30 END COLLECTION
M  V30 END CTAB
M  END
>  <Structure No>
4963

>  <LogS>
-1.6075

>  <MMFF94 Energy>
70.659

$$$$
Compound 4964
Actelion Java MolfileCreator 2.0

  0  0  0  0  0  0              0 V3000
M  V30 BEGIN CTAB
M  V30 COUNTS 10 9 0 0 0
M  V30 BEGIN ATOM
M  V30 1 F 0.5137 -1.2846 -1.1989 0
M  V30 2 C -0.1753 -0.2596 -0.5737 0
M  V30 3 F -1.0769 0.2763 -1.4778 0
M  V30 4 C -0.9159 -0.8087 0.6099 0
M  V30 5 C 0.8145 0.8243 -0.1442 0
M  V30 6 O -1.986 -0.2687 0.9967 0
M  V30 7 O -0.3961 -1.8841 1.3201 0 CHG=-1
M  V30 8 F 0.1473 1.8769 0.4581 0
M  V30 9 F 1.7451 0.3061 0.7396 0
M  V30 10 H 1.35 1.2091 -1.0378 0
M  V30 END ATOM
M  V30 BEGIN BOND
M  V30 1 1 1 2
M  V30 2 1 2 3
M  V30 3 1 2 4
M  V30 4 1 2 5
M  V30 5 2 4 6
M  V30 6 1 4 7
M  V30 7 1 5 8
M  V30 8 1 5 9
M  V30 9 1 5 10
M  V30 END BOND
M  V30 END CTAB
M  END
>  <Structure No>
4964

>  <LogS>
-0.8829

>  <MMFF94 Energy>
106.35

$$$$
Compound 4965
Actelion Java MolfileCreator 2.0

  0  0  0  0  0  0              0 V3000
M  V30 BEGIN CTAB
M  V30 COUNTS 38 38 0 0 0
M  V30 BEGIN ATOM
M  V30 1 S 1.5942 4.0691 0.478 0
M  V30 2 C 1.5328 2.2838 0.3932 0
M  V30 3 C 1.8533 4.2583 -1.3125 0
M  V30 4 N 0.3503 1.6567 0.1767 0
M  V30 5 N 2.6682 1.5572 0.5444 0
M  V30 6 C 0.2986 0.3009 0.1033 0
M  V30 7 C 2.6246 0.202 0.4788 0
M  V30 8 N 1.4377 -0.4218 0.2557 0
M  V30 9 N -0.945 -0.3738 -0.1281 0
M  V30 10 N 3.8307 -0.5557 0.6369 0
M  V30 11 C -2.2072 0.3478 -0.3447 0 CFG=2
M  V30 12 C 3.8606 -2.0164 0.5973 0
M  V30 13 C -3.4535 -0.5448 -0.0697 0
M  V30 14 C -2.2297 0.9544 -1.755 0
M  V30 15 C 3.313 -2.6008 1.8949 0
M  V30 16 C -3.6061 -1.7266 -1.0443 0
M  V30 17 C -3.4669 -1.0446 1.3825 0
M  V30 18 H 0.9958 3.8255 -1.8693 0
M  V30 19 H 1.932 5.3377 -1.5555 0
M  V30 20 H 2.7927 3.7511 -1.6173 0
M  V30 21 H -0.9304 -1.4172 -0.116 0
M  V30 22 H 4.7357 -0.0417 0.732 0
M  V30 23 H -2.2592 1.1947 0.3762 0
M  V30 24 H 4.9104 -2.3577 0.4691 0
M  V30 25 H 3.272 -2.3871 -0.2694 0
M  V30 26 H -4.3554 0.0958 -0.1935 0
M  V30 27 H -2.0099 0.181 -2.5205 0
M  V30 28 H -3.2202 1.4102 -1.9668 0
M  V30 29 H -1.4613 1.7509 -1.8413 0
M  V30 30 H 2.2474 -2.3209 2.0309 0
M  V30 31 H 3.9014 -2.226 2.7592 0
M  V30 32 H 3.3871 -3.7083 1.8646 0
M  V30 33 H -2.7433 -2.4206 -0.9885 0
M  V30 34 H -4.5253 -2.3003 -0.799 0
M  V30 35 H -3.7156 -1.3655 -2.0872 0
M  V30 36 H -3.3824 -0.1886 2.0854 0
M  V30 37 H -4.4222 -1.57 1.5966 0
M  V30 38 H -2.6286 -1.7478 1.5712 0
M  V30 END ATOM
M  V30 BEGIN BOND
M  V30 1 1 1 2
M  V30 2 1 1 3
M  V30 3 2 2 4
M  V30 4 1 2 5
M  V30 5 1 4 6
M  V30 6 2 5 7
M  V30 7 2 6 8
M  V30 8 1 6 9
M  V30 9 1 7 10
M  V30 10 1 9 11
M  V30 11 1 10 12
M  V30 12 1 11 13
M  V30 13 1 11 14
M  V30 14 1 12 15
M  V30 15 1 13 16
M  V30 16 1 13 17
M  V30 17 1 7 8
M  V30 18 1 3 18
M  V30 19 1 3 19
M  V30 20 1 3 20
M  V30 21 1 9 21
M  V30 22 1 10 22
M  V30 23 1 11 23
M  V30 24 1 12 24
M  V30 25 1 12 25
M  V30 26 1 13 26
M  V30 27 1 14 27
M  V30 28 1 14 28
M  V30 29 1 14 29
M  V30 30 1 15 30
M  V30 31 1 15 31
M  V30 32 1 15 32
M  V30 33 1 16 33
M  V30 34 1 16 34
M  V30 35 1 16 35
M  V30 36 1 17 36
M  V30 37 1 17 37
M  V30 38 1 17 38
M  V30 END BOND
M  V30 BEGIN COLLECTION
M  V30 MDLV30/STEABS ATOMS=(1 11)
M  V30 END COLLECTION
M  V30 END CTAB
M  END
>  <Structure No>
4965

>  <LogS>
-3.7082

>  <MMFF94 Energy>
-238.44

$$$$
Compound 4966
Actelion Java MolfileCreator 2.0

  0  0  0  0  0  0              0 V3000
M  V30 BEGIN CTAB
M  V30 COUNTS 29 30 0 0 0
M  V30 BEGIN ATOM
M  V30 1 Cl 2.0201 -1.1308 -3.7193 0
M  V30 2 C 1.0831 -0.6684 -2.3158 0
M  V30 3 N 1.6714 -0.6181 -1.0956 0
M  V30 4 N -0.2304 -0.3605 -2.4479 0
M  V30 5 C 0.9543 -0.2608 8.0E-4 0
M  V30 6 C -0.9595 -0.0014 -1.3606 0
M  V30 7 N -0.3612 0.0462 -0.1419 0
M  V30 8 N 1.5469 -0.1955 1.3141 0
M  V30 9 N -2.3505 0.3218 -1.5176 0
M  V30 10 C 2.926 -0.4824 1.7506 0
M  V30 11 C -3.2563 0.7245 -0.4336 0
M  V30 12 C 3.6631 -1.5904 1.0176 0
M  V30 13 C 4.041 -0.1272 0.7817 0
M  V30 14 C -3.4174 -0.3918 0.6035 0
M  V30 15 C -2.8079 2.0411 0.2091 0
M  V30 16 H 0.9047 0.0973 2.0844 0
M  V30 17 H -2.7513 0.2662 -2.4813 0
M  V30 18 H 3.1576 -0.3672 2.8312 0
M  V30 19 H -4.2612 0.9042 -0.8773 0
M  V30 20 H 3.1272 -2.092 0.1905 0
M  V30 21 H 4.3897 -2.1425 1.6501 0
M  V30 22 H 4.9881 0.1746 1.2764 0
M  V30 23 H 3.7441 0.2988 -0.1948 0
M  V30 24 H -3.6935 -1.3408 0.097 0
M  V30 25 H -4.2266 -0.1287 1.3176 0
M  V30 26 H -2.4835 -0.5507 1.1803 0
M  V30 27 H -2.6535 2.8113 -0.5759 0
M  V30 28 H -1.8656 1.9162 0.7804 0
M  V30 29 H -3.5917 2.4059 0.9067 0
M  V30 END ATOM
M  V30 BEGIN BOND
M  V30 1 1 1 2
M  V30 2 2 2 3
M  V30 3 1 2 4
M  V30 4 1 3 5
M  V30 5 2 4 6
M  V30 6 2 5 7
M  V30 7 1 5 8
M  V30 8 1 6 9
M  V30 9 1 8 10
M  V30 10 1 9 11
M  V30 11 1 10 12
M  V30 12 1 10 13
M  V30 13 1 11 14
M  V30 14 1 11 15
M  V30 15 1 6 7
M  V30 16 1 12 13
M  V30 17 1 8 16
M  V30 18 1 9 17
M  V30 19 1 10 18
M  V30 20 1 11 19
M  V30 21 1 12 20
M  V30 22 1 12 21
M  V30 23 1 13 22
M  V30 24 1 13 23
M  V30 25 1 14 24
M  V30 26 1 14 25
M  V30 27 1 14 26
M  V30 28 1 15 27
M  V30 29 1 15 28
M  V30 30 1 15 29
M  V30 END BOND
M  V30 END CTAB
M  END
>  <Structure No>
4966

>  <LogS>
-3.5185

>  <MMFF94 Energy>
-211.43

$$$$
Compound 4967
Actelion Java MolfileCreator 2.0

  0  0  0  0  0  0              0 V3000
M  V30 BEGIN CTAB
M  V30 COUNTS 46 47 0 0 0
M  V30 BEGIN ATOM
M  V30 1 O 3.1941 -2.6346 -0.5584 0
M  V30 2 C 2.8142 -1.5209 -0.1083 0
M  V30 3 C 3.5084 -0.2689 -0.3176 0
M  V30 4 C 1.5981 -1.3244 0.7163 0
M  V30 5 C 2.8526 0.6976 0.3179 0
M  V30 6 C 4.8187 -0.1275 -1.0406 0
M  V30 7 C 1.6063 0.1951 0.9905 0 CFG=1
M  V30 8 C 3.2946 2.129 0.3787 0
M  V30 9 C 5.9297 -0.2494 -0.0922 0
M  V30 10 O 0.469 0.8351 0.4138 0
M  V30 11 C 6.8413 -0.3475 0.6908 0
M  V30 12 C -0.8371 0.6374 0.8716 0
M  V30 13 O -1.0564 -0.071 1.8911 0
M  V30 14 C -1.9756 1.3617 0.2057 0 CFG=1
M  V30 15 C -2.0901 1.2547 -1.3247 0
M  V30 16 C -3.1014 0.5194 -0.43 0 CFG=1
M  V30 17 C -2.6337 2.5066 -2.0214 0
M  V30 18 C -1.0488 0.44 -2.1166 0
M  V30 19 C -2.9962 -0.9865 -0.3065 0
M  V30 20 C -3.54 -1.6697 0.722 0
M  V30 21 C -3.3838 -3.1679 0.7589 0
M  V30 22 C -4.3115 -0.9676 1.8149 0
M  V30 23 H 1.6833 -1.8974 1.6648 0
M  V30 24 H 0.6975 -1.6474 0.1508 0
M  V30 25 H 4.9114 -0.9208 -1.8111 0
M  V30 26 H 4.8785 0.8544 -1.5552 0
M  V30 27 H 1.6582 0.4047 2.0808 0
M  V30 28 H 3.3037 2.5641 -0.6427 0
M  V30 29 H 4.312 2.193 0.8186 0
M  V30 30 H 2.599 2.721 1.0091 0
M  V30 31 H 7.6401 -0.4295 1.3807 0
M  V30 32 H -2.3172 2.3153 0.6615 0
M  V30 33 H -4.1131 0.9772 -0.3762 0
M  V30 34 H -1.7964 3.2026 -2.2351 0
M  V30 35 H -3.3842 3.0423 -1.4001 0
M  V30 36 H -3.1124 2.2179 -2.9797 0
M  V30 37 H -0.2059 1.1032 -2.4032 0
M  V30 38 H -0.6288 -0.416 -1.5536 0
M  V30 39 H -1.5185 0.0489 -3.0427 0
M  V30 40 H -2.5256 -1.5496 -1.1062 0
M  V30 41 H -2.3049 -3.4273 0.8069 0
M  V30 42 H -3.8883 -3.6121 1.6422 0
M  V30 43 H -3.8247 -3.6153 -0.1585 0
M  V30 44 H -4.6463 -1.6791 2.5984 0
M  V30 45 H -3.679 -0.1949 2.2993 0
M  V30 46 H -5.212 -0.4807 1.3842 0
M  V30 END ATOM
M  V30 BEGIN BOND
M  V30 1 2 1 2
M  V30 2 1 2 3
M  V30 3 1 2 4
M  V30 4 2 3 5
M  V30 5 1 3 6
M  V30 6 1 4 7
M  V30 7 1 5 8
M  V30 8 1 6 9
M  V30 9 1 7 10
M  V30 10 3 9 11
M  V30 11 1 10 12
M  V30 12 2 12 13
M  V30 13 1 12 14
M  V30 14 1 14 15
M  V30 15 1 14 16
M  V30 16 1 15 17
M  V30 17 1 15 18
M  V30 18 1 16 19
M  V30 19 2 19 20
M  V30 20 1 20 21
M  V30 21 1 20 22
M  V30 22 1 5 7
M  V30 23 1 15 16
M  V30 24 1 4 23
M  V30 25 1 4 24
M  V30 26 1 6 25
M  V30 27 1 6 26
M  V30 28 1 7 27
M  V30 29 1 8 28
M  V30 30 1 8 29
M  V30 31 1 8 30
M  V30 32 1 11 31
M  V30 33 1 14 32
M  V30 34 1 16 33
M  V30 35 1 17 34
M  V30 36 1 17 35
M  V30 37 1 17 36
M  V30 38 1 18 37
M  V30 39 1 18 38
M  V30 40 1 18 39
M  V30 41 1 19 40
M  V30 42 1 21 41
M  V30 43 1 21 42
M  V30 44 1 21 43
M  V30 45 1 22 44
M  V30 46 1 22 45
M  V30 47 1 22 46
M  V30 END BOND
M  V30 BEGIN COLLECTION
M  V30 MDLV30/STEABS ATOMS=(3 7 14 16)
M  V30 END COLLECTION
M  V30 END CTAB
M  END
>  <Structure No>
4967

>  <LogS>
-4.5746

>  <MMFF94 Energy>
15.066

$$$$
Compound 4968
Actelion Java MolfileCreator 2.0

  0  0  0  0  0  0              0 V3000
M  V30 BEGIN CTAB
M  V30 COUNTS 27 28 0 0 0
M  V30 BEGIN ATOM
M  V30 1 O 3.3238 1.2652 0.4743 0
M  V30 2 C 2.1894 0.7618 0.2353 0
M  V30 3 N 1.1553 1.5732 -0.2019 0
M  V30 4 N 1.9943 -0.5895 0.4219 0
M  V30 5 C -0.1032 1.0495 -0.3945 0
M  V30 6 C 1.3821 3.0174 -0.3796 0
M  V30 7 C 0.7455 -1.0888 0.2158 0
M  V30 8 C 3.0767 -1.4534 0.9122 0
M  V30 9 O -1.0679 1.7836 -0.7432 0
M  V30 10 C -0.2885 -0.3128 -0.1852 0
M  V30 11 N 0.3448 -2.3618 0.4054 0
M  V30 12 N -1.3928 -1.0773 -0.2797 0
M  V30 13 C -0.9756 -2.3128 0.0931 0
M  V30 14 C -2.7666 -0.6903 -0.6023 0
M  V30 15 C -3.4679 -0.1386 0.6336 0
M  V30 16 H 2.4161 3.2202 -0.7318 0
M  V30 17 H 0.7015 3.4428 -1.1479 0
M  V30 18 H 1.2153 3.5419 0.5848 0
M  V30 19 H 2.9023 -2.5152 0.6358 0
M  V30 20 H 3.1446 -1.3734 2.0176 0
M  V30 21 H 4.0488 -1.1572 0.4632 0
M  V30 22 H -1.6288 -3.1741 0.1504 0
M  V30 23 H -3.328 -1.5759 -0.972 0
M  V30 24 H -2.7736 0.0654 -1.4152 0
M  V30 25 H -4.5092 0.1474 0.3757 0
M  V30 26 H -2.9338 0.7576 1.0132 0
M  V30 27 H -3.4948 -0.9106 1.4317 0
M  V30 END ATOM
M  V30 BEGIN BOND
M  V30 1 2 1 2
M  V30 2 1 2 3
M  V30 3 1 2 4
M  V30 4 1 3 5
M  V30 5 1 3 6
M  V30 6 1 4 7
M  V30 7 1 4 8
M  V30 8 2 5 9
M  V30 9 1 5 10
M  V30 10 1 7 11
M  V30 11 1 10 12
M  V30 12 2 11 13
M  V30 13 1 12 14
M  V30 14 1 14 15
M  V30 15 2 7 10
M  V30 16 1 12 13
M  V30 17 1 6 16
M  V30 18 1 6 17
M  V30 19 1 6 18
M  V30 20 1 8 19
M  V30 21 1 8 20
M  V30 22 1 8 21
M  V30 23 1 13 22
M  V30 24 1 14 23
M  V30 25 1 14 24
M  V30 26 1 15 25
M  V30 27 1 15 26
M  V30 28 1 15 27
M  V30 END BOND
M  V30 END CTAB
M  END
>  <Structure No>
4968

>  <LogS>
-0.7544

>  <MMFF94 Energy>
-125.72

$$$$
Compound 4969
Actelion Java MolfileCreator 2.0

  0  0  0  0  0  0              0 V3000
M  V30 BEGIN CTAB
M  V30 COUNTS 35 35 0 0 0
M  V30 BEGIN ATOM
M  V30 1 O 2.047 0.3147 1.6531 0
M  V30 2 C 2.4116 -0.034 0.4957 0
M  V30 3 O 1.4558 -0.2713 -0.5007 0
M  V30 4 N 3.808 -0.2076 0.2022 0
M  V30 5 C 0.0966 0.0193 -0.3447 0
M  V30 6 C 4.8079 0.0303 1.2467 0
M  V30 7 C 4.2119 -0.6118 -1.1461 0
M  V30 8 N -0.7931 -1.0032 -0.4123 0
M  V30 9 C -0.3659 1.3378 -0.1421 0
M  V30 10 C -2.1266 -0.803 -0.2462 0
M  V30 11 C -1.7498 1.5203 0.0727 0
M  V30 12 C 0.5883 2.5072 -0.142 0
M  V30 13 N -2.5859 0.4513 0.0026 0
M  V30 14 N -3.0437 -1.9115 -0.3214 0
M  V30 15 C -2.3432 2.8725 0.3419 0
M  V30 16 C -2.5338 -3.2607 -0.5839 0
M  V30 17 C -4.4796 -1.6815 -0.1355 0
M  V30 18 H 4.629 -0.6581 2.0996 0
M  V30 19 H 4.7345 1.0797 1.6027 0
M  V30 20 H 5.8396 -0.139 0.8737 0
M  V30 21 H 3.8644 0.1435 -1.8825 0
M  V30 22 H 5.3147 -0.7024 -1.2346 0
M  V30 23 H 3.7606 -1.5962 -1.3923 0
M  V30 24 H 0.1287 3.3934 -0.6264 0
M  V30 25 H 1.51 2.2785 -0.7161 0
M  V30 26 H 0.8619 2.7652 0.9021 0
M  V30 27 H -1.7777 3.3882 1.1465 0
M  V30 28 H -2.3188 3.4844 -0.5838 0
M  V30 29 H -3.3996 2.7743 0.6713 0
M  V30 30 H -3.3514 -4.0111 -0.6147 0
M  V30 31 H -1.8232 -3.5548 0.2172 0
M  V30 32 H -2.0095 -3.2787 -1.5627 0
M  V30 33 H -4.8485 -0.9741 -0.9081 0
M  V30 34 H -5.062 -2.6227 -0.221 0
M  V30 35 H -4.6625 -1.2508 0.8716 0
M  V30 END ATOM
M  V30 BEGIN BOND
M  V30 1 2 1 2
M  V30 2 1 2 3
M  V30 3 1 2 4
M  V30 4 1 3 5
M  V30 5 1 4 6
M  V30 6 1 4 7
M  V30 7 2 5 8
M  V30 8 1 5 9
M  V30 9 1 8 10
M  V30 10 2 9 11
M  V30 11 1 9 12
M  V30 12 2 10 13
M  V30 13 1 10 14
M  V30 14 1 11 15
M  V30 15 1 14 16
M  V30 16 1 14 17
M  V30 17 1 11 13
M  V30 18 1 6 18
M  V30 19 1 6 19
M  V30 20 1 6 20
M  V30 21 1 7 21
M  V30 22 1 7 22
M  V30 23 1 7 23
M  V30 24 1 12 24
M  V30 25 1 12 25
M  V30 26 1 12 26
M  V30 27 1 15 27
M  V30 28 1 15 28
M  V30 29 1 15 29
M  V30 30 1 16 30
M  V30 31 1 16 31
M  V30 32 1 16 32
M  V30 33 1 17 33
M  V30 34 1 17 34
M  V30 35 1 17 35
M  V30 END BOND
M  V30 END CTAB
M  END
>  <Structure No>
4969

>  <LogS>
-1.9457

>  <MMFF94 Energy>
-110.48

$$$$
Compound 4970
Actelion Java MolfileCreator 2.0

  0  0  0  0  0  0              0 V3000
M  V30 BEGIN CTAB
M  V30 COUNTS 27 26 0 0 0
M  V30 BEGIN ATOM
M  V30 1 S 0.0 0.4807 -2.8071 0
M  V30 2 C -0.6653 0.2364 -1.1497 0
M  V30 3 C 0.5398 2.1866 -2.4735 0
M  V30 4 N 0.104 -0.1915 -0.1986 0
M  V30 5 C -2.0856 0.5621 -0.8821 0
M  V30 6 O 1.4311 -0.4898 -0.417 0
M  V30 7 O -2.7142 1.2365 -1.7432 0
M  V30 8 N -2.7707 0.1483 0.322 0
M  V30 9 C 2.2417 -0.9492 0.6188 0
M  V30 10 C -2.3576 -1.0438 1.0702 0
M  V30 11 C -3.9737 0.8781 0.7342 0
M  V30 12 O 1.7656 -1.1021 1.777 0
M  V30 13 N 3.6163 -1.2451 0.357 0
M  V30 14 C 4.5129 -1.7285 1.3994 0
M  V30 15 H 1.2809 2.1975 -1.647 0
M  V30 16 H -0.3319 2.818 -2.2027 0
M  V30 17 H 1.014 2.6014 -3.3865 0
M  V30 18 H -3.1825 -1.4254 1.7085 0
M  V30 19 H -1.4985 -0.7987 1.7282 0
M  V30 20 H -2.0778 -1.8578 0.368 0
M  V30 21 H -3.7358 1.9571 0.8468 0
M  V30 22 H -4.3614 0.5112 1.7083 0
M  V30 23 H -4.769 0.7565 -0.0312 0
M  V30 24 H 3.9868 -1.1098 -0.6103 0
M  V30 25 H 4.1336 -2.6893 1.8066 0
M  V30 26 H 5.5271 -1.892 0.9782 0
M  V30 27 H 4.5797 -0.9791 2.2161 0
M  V30 END ATOM
M  V30 BEGIN BOND
M  V30 1 1 1 2
M  V30 2 1 1 3
M  V30 3 2 2 4
M  V30 4 1 2 5
M  V30 5 1 4 6
M  V30 6 2 5 7
M  V30 7 1 5 8
M  V30 8 1 6 9
M  V30 9 1 8 10
M  V30 10 1 8 11
M  V30 11 2 9 12
M  V30 12 1 9 13
M  V30 13 1 13 14
M  V30 14 1 3 15
M  V30 15 1 3 16
M  V30 16 1 3 17
M  V30 17 1 10 18
M  V30 18 1 10 19
M  V30 19 1 10 20
M  V30 20 1 11 21
M  V30 21 1 11 22
M  V30 22 1 11 23
M  V30 23 1 13 24
M  V30 24 1 14 25
M  V30 25 1 14 26
M  V30 26 1 14 27
M  V30 END BOND
M  V30 END CTAB
M  END
>  <Structure No>
4970

>  <LogS>
0.1062

>  <MMFF94 Energy>
41.815

$$$$
Compound 4971
Actelion Java MolfileCreator 2.0

  0  0  0  0  0  0              0 V3000
M  V30 BEGIN CTAB
M  V30 COUNTS 31 32 0 0 0
M  V30 BEGIN ATOM
M  V30 1 O -3.9574 -0.5533 -1.1068 0
M  V30 2 C -2.8021 -0.3374 -0.6421 0
M  V30 3 N -2.0464 -1.3936 -0.1601 0
M  V30 4 N -2.312 0.9503 -0.6147 0
M  V30 5 C -0.8178 -1.1613 0.4155 0
M  V30 6 C -2.5953 -2.7598 -0.1877 0
M  V30 7 C -1.0917 1.1568 -0.0495 0
M  V30 8 C -3.114 2.0795 -1.1041 0
M  V30 9 O -0.1395 -2.1047 0.9062 0
M  V30 10 C -0.3458 0.1462 0.4547 0
M  V30 11 N -0.4635 2.3397 0.1035 0
M  V30 12 N 0.7956 0.6568 0.953 0
M  V30 13 C 0.6942 1.9893 0.7201 0
M  V30 14 C 1.9349 -0.033 1.5622 0
M  V30 15 C 2.8262 -0.6849 0.4967 0
M  V30 16 C 3.5166 0.3529 -0.3944 0
M  V30 17 O 4.3658 -0.2845 -1.3093 0
M  V30 18 H -1.7871 -3.5197 -0.2481 0
M  V30 19 H -3.2376 -2.9156 -1.0807 0
M  V30 20 H -3.1952 -2.9384 0.7294 0
M  V30 21 H -3.828 2.398 -0.3154 0
M  V30 22 H -2.4711 2.9425 -1.3802 0
M  V30 23 H -3.6799 1.7924 -2.0161 0
M  V30 24 H 1.46 2.705 0.9901 0
M  V30 25 H 1.5683 -0.8093 2.2665 0
M  V30 26 H 2.535 0.6845 2.1639 0
M  V30 27 H 3.6018 -1.2918 1.0121 0
M  V30 28 H 2.2221 -1.3701 -0.1356 0
M  V30 29 H 2.7533 0.9206 -0.9666 0
M  V30 30 H 4.0926 1.0771 0.2261 0
M  V30 31 H 5.1809 -0.546 -0.8062 0
M  V30 END ATOM
M  V30 BEGIN BOND
M  V30 1 2 1 2
M  V30 2 1 2 3
M  V30 3 1 2 4
M  V30 4 1 3 5
M  V30 5 1 3 6
M  V30 6 1 4 7
M  V30 7 1 4 8
M  V30 8 2 5 9
M  V30 9 1 5 10
M  V30 10 1 7 11
M  V30 11 1 10 12
M  V30 12 2 11 13
M  V30 13 1 12 14
M  V30 14 1 14 15
M  V30 15 1 15 16
M  V30 16 1 16 17
M  V30 17 2 7 10
M  V30 18 1 12 13
M  V30 19 1 6 18
M  V30 20 1 6 19
M  V30 21 1 6 20
M  V30 22 1 8 21
M  V30 23 1 8 22
M  V30 24 1 8 23
M  V30 25 1 13 24
M  V30 26 1 14 25
M  V30 27 1 14 26
M  V30 28 1 15 27
M  V30 29 1 15 28
M  V30 30 1 16 29
M  V30 31 1 16 30
M  V30 32 1 17 31
M  V30 END BOND
M  V30 END CTAB
M  END
>  <Structure No>
4971

>  <LogS>
-0.1551

>  <MMFF94 Energy>
-127.08

$$$$
Compound 4972
Actelion Java MolfileCreator 2.0

  0  0  0  0  0  0              0 V3000
M  V30 BEGIN CTAB
M  V30 COUNTS 32 32 0 0 0
M  V30 BEGIN ATOM
M  V30 1 O 4.4588 0.0 -1.0155 0
M  V30 2 C 4.1938 0.3067 0.1792 0
M  V30 3 O 2.871 0.3216 0.6401 0
M  V30 4 N 5.2436 0.7015 1.0671 0
M  V30 5 C 1.7805 -0.2868 4.0E-4 0
M  V30 6 C 6.6393 0.7281 0.6482 0
M  V30 7 C 0.5057 0.2604 0.1917 0
M  V30 8 C 1.9208 -1.4436 -0.7867 0
M  V30 9 C -0.6268 -0.3169 -0.4049 0
M  V30 10 C 0.8042 -2.0143 -1.4011 0
M  V30 11 N -1.9149 0.2983 -0.205 0 CHG=1
M  V30 12 C -0.4618 -1.4519 -1.223 0
M  V30 13 C -3.0365 -0.3704 -0.2103 0
M  V30 14 N -4.3139 0.2653 0.0034 0
M  V30 15 C -5.5035 -0.5885 0.0271 0
M  V30 16 C -4.4413 1.717 0.1733 0
M  V30 17 H 5.0014 0.974 2.0462 0
M  V30 18 H 6.9567 -0.2876 0.3316 0
M  V30 19 H 7.2802 1.0578 1.4929 0
M  V30 20 H 6.7654 1.4375 -0.1964 0
M  V30 21 H 0.3965 1.1421 0.8115 0
M  V30 22 H 2.8831 -1.9204 -0.9103 0
M  V30 23 H 0.9205 -2.8963 -2.0177 0
M  V30 24 H -1.9173 1.3206 0.0048 0
M  V30 25 H -1.302 -1.8964 -1.7391 0
M  V30 26 H -3.0236 -1.4448 -0.3495 0
M  V30 27 H -5.4099 -1.3366 0.8426 0
M  V30 28 H -6.4303 -0.002 0.1994 0
M  V30 29 H -5.6022 -1.1192 -0.9434 0
M  V30 30 H -4.0245 2.2378 -0.7143 0
M  V30 31 H -5.5019 2.0264 0.2819 0
M  V30 32 H -3.8975 2.038 1.0867 0
M  V30 END ATOM
M  V30 BEGIN BOND
M  V30 1 2 1 2
M  V30 2 1 2 3
M  V30 3 1 2 4
M  V30 4 1 3 5
M  V30 5 1 4 6
M  V30 6 2 5 7
M  V30 7 1 5 8
M  V30 8 1 7 9
M  V30 9 2 8 10
M  V30 10 1 9 11
M  V30 11 2 9 12
M  V30 12 2 11 13
M  V30 13 1 13 14
M  V30 14 1 14 15
M  V30 15 1 14 16
M  V30 16 1 10 12
M  V30 17 1 4 17
M  V30 18 1 6 18
M  V30 19 1 6 19
M  V30 20 1 6 20
M  V30 21 1 7 21
M  V30 22 1 8 22
M  V30 23 1 10 23
M  V30 24 1 11 24
M  V30 25 1 12 25
M  V30 26 1 13 26
M  V30 27 1 15 27
M  V30 28 1 15 28
M  V30 29 1 15 29
M  V30 30 1 16 30
M  V30 31 1 16 31
M  V30 32 1 16 32
M  V30 END BOND
M  V30 END CTAB
M  END
>  <Structure No>
4972

>  <LogS>
0.5037

>  <MMFF94 Energy>
-28.751

$$$$
Compound 4973
Actelion Java MolfileCreator 2.0

  0  0  0  0  0  0              0 V3000
M  V30 BEGIN CTAB
M  V30 COUNTS 36 36 0 0 0
M  V30 BEGIN ATOM
M  V30 1 S 2.5065 -0.5655 -2.1019 0
M  V30 2 C 2.0233 -0.0685 -0.608 0
M  V30 3 N 0.8269 -0.615 -0.0281 0
M  V30 4 N 2.6028 1.1048 -0.0108 0
M  V30 5 C 0.34 -1.9461 -0.2769 0
M  V30 6 C 3.947 1.5587 -0.2247 0
M  V30 7 C -1.0476 -2.1876 -0.3492 0
M  V30 8 C 1.2337 -3.0283 -0.3684 0
M  V30 9 O 4.7774 0.8443 -0.8508 0
M  V30 10 O 4.3377 2.7934 0.3016 0
M  V30 11 N -1.9721 -1.0903 -0.2902 0
M  V30 12 C -1.5143 -3.4924 -0.5789 0
M  V30 13 C 0.7563 -4.3247 -0.5746 0
M  V30 14 C 5.6535 3.3117 0.1468 0
M  V30 15 C -3.053 -0.9893 0.6581 0
M  V30 16 C -0.6153 -4.5556 -0.6859 0
M  V30 17 S -3.35 -2.1869 1.7424 0
M  V30 18 N -3.9187 0.1552 0.6542 0
M  V30 19 C -3.4748 1.4897 0.3799 0
M  V30 20 O -2.2429 1.7597 0.334 0
M  V30 21 O -4.4246 2.5007 0.2091 0
M  V30 22 C -4.0669 3.8532 -0.0492 0
M  V30 23 H 0.2775 -0.0054 0.6188 0
M  V30 24 H 2.0302 1.6325 0.6855 0
M  V30 25 H 2.2995 -2.871 -0.2637 0
M  V30 26 H -1.8059 -0.3003 -0.9517 0
M  V30 27 H -2.5746 -3.682 -0.6888 0
M  V30 28 H 1.451 -5.1514 -0.6476 0
M  V30 29 H 5.7173 4.2999 0.6469 0
M  V30 30 H 6.3904 2.6241 0.6134 0
M  V30 31 H 5.888 3.4381 -0.9313 0
M  V30 32 H -0.9827 -5.5592 -0.8573 0
M  V30 33 H -4.9101 0.0301 0.9598 0
M  V30 34 H -3.4604 4.2535 0.7906 0
M  V30 35 H -4.9892 4.4618 -0.1485 0
M  V30 36 H -3.4884 3.9193 -0.995 0
M  V30 END ATOM
M  V30 BEGIN BOND
M  V30 1 2 1 2
M  V30 2 1 2 3
M  V30 3 1 2 4
M  V30 4 1 3 5
M  V30 5 1 4 6
M  V30 6 2 5 7
M  V30 7 1 5 8
M  V30 8 2 6 9
M  V30 9 1 6 10
M  V30 10 1 7 11
M  V30 11 1 7 12
M  V30 12 2 8 13
M  V30 13 1 10 14
M  V30 14 1 11 15
M  V30 15 2 12 16
M  V30 16 2 15 17
M  V30 17 1 15 18
M  V30 18 1 18 19
M  V30 19 2 19 20
M  V30 20 1 19 21
M  V30 21 1 21 22
M  V30 22 1 13 16
M  V30 23 1 3 23
M  V30 24 1 4 24
M  V30 25 1 8 25
M  V30 26 1 11 26
M  V30 27 1 12 27
M  V30 28 1 13 28
M  V30 29 1 14 29
M  V30 30 1 14 30
M  V30 31 1 14 31
M  V30 32 1 16 32
M  V30 33 1 18 33
M  V30 34 1 22 34
M  V30 35 1 22 35
M  V30 36 1 22 36
M  V30 END BOND
M  V30 END CTAB
M  END
>  <Structure No>
4973

>  <LogS>
-4.1097

>  <MMFF94 Energy>
-150.56

$$$$
Compound 4974
Actelion Java MolfileCreator 2.0

  0  0  0  0  0  0              0 V3000
M  V30 BEGIN CTAB
M  V30 COUNTS 36 35 0 0 0
M  V30 BEGIN ATOM
M  V30 1 O 2.864 0.0 -2.7844 0
M  V30 2 C 3.3447 -0.4914 -1.7293 0
M  V30 3 O 3.9899 -1.7207 -1.7768 0 CHG=-1
M  V30 4 C 3.2116 0.2406 -0.4236 0
M  V30 5 C 1.9564 -0.1649 0.4085 0
M  V30 6 C 0.6631 0.1639 -0.4068 0
M  V30 7 C 2.0247 -1.6709 0.755 0
M  V30 8 C 1.9932 0.6481 1.7239 0
M  V30 9 C -0.6712 -0.0934 0.3369 0
M  V30 10 C -1.9645 0.2353 -0.4784 0
M  V30 11 C -3.2197 -0.1701 0.3538 0
M  V30 12 C -2.0015 -0.5776 -1.7935 0
M  V30 13 C -2.033 1.7414 -0.8247 0
M  V30 14 C -3.3529 0.5618 1.6594 0
M  V30 15 O -2.8722 0.0706 2.7145 0
M  V30 16 O -3.9981 1.7914 1.7069 0 CHG=-1
M  V30 17 H 4.1347 0.0526 0.1676 0
M  V30 18 H 3.1869 1.3338 -0.6302 0
M  V30 19 H 0.7055 1.2304 -0.7127 0
M  V30 20 H 0.6728 -0.4495 -1.3296 0
M  V30 21 H 1.2575 -1.9477 1.5079 0
M  V30 22 H 1.8599 -2.2945 -0.149 0
M  V30 23 H 3.0173 -1.9278 1.1836 0
M  V30 24 H 1.2189 0.3035 2.4405 0
M  V30 25 H 2.9754 0.53 2.2308 0
M  V30 26 H 1.8343 1.7292 1.5209 0
M  V30 27 H -0.6811 0.52 1.2599 0
M  V30 28 H -0.7138 -1.1598 0.643 0
M  V30 29 H -4.143 0.0178 -0.2374 0
M  V30 30 H -3.1951 -1.2632 0.5605 0
M  V30 31 H -1.8426 -1.6587 -1.5906 0
M  V30 32 H -1.2273 -0.2329 -2.5102 0
M  V30 33 H -2.9838 -0.4595 -2.3005 0
M  V30 34 H -1.8682 2.3652 0.0792 0
M  V30 35 H -1.2659 2.0183 -1.5777 0
M  V30 36 H -3.0257 1.9984 -1.2533 0
M  V30 END ATOM
M  V30 BEGIN BOND
M  V30 1 2 1 2
M  V30 2 1 2 3
M  V30 3 1 2 4
M  V30 4 1 4 5
M  V30 5 1 5 6
M  V30 6 1 5 7
M  V30 7 1 5 8
M  V30 8 1 6 9
M  V30 9 1 9 10
M  V30 10 1 10 11
M  V30 11 1 10 12
M  V30 12 1 10 13
M  V30 13 1 11 14
M  V30 14 2 14 15
M  V30 15 1 14 16
M  V30 16 1 4 17
M  V30 17 1 4 18
M  V30 18 1 6 19
M  V30 19 1 6 20
M  V30 20 1 7 21
M  V30 21 1 7 22
M  V30 22 1 7 23
M  V30 23 1 8 24
M  V30 24 1 8 25
M  V30 25 1 8 26
M  V30 26 1 9 27
M  V30 27 1 9 28
M  V30 28 1 11 29
M  V30 29 1 11 30
M  V30 30 1 12 31
M  V30 31 1 12 32
M  V30 32 1 12 33
M  V30 33 1 13 34
M  V30 34 1 13 35
M  V30 35 1 13 36
M  V30 END BOND
M  V30 END CTAB
M  END
>  <Structure No>
4974

>  <LogS>
-3.1319

>  <MMFF94 Energy>
79.268

$$$$
Compound 4975
Actelion Java MolfileCreator 2.0

  0  0  0  0  0  0              0 V3000
M  V30 BEGIN CTAB
M  V30 COUNTS 32 32 0 0 0
M  V30 BEGIN ATOM
M  V30 1 O 1.813 1.9708 0.8667 0
M  V30 2 C 2.0292 1.0246 0.0602 0
M  V30 3 O 1.1932 0.8402 -1.0481 0
M  V30 4 C 3.1696 0.1096 0.2795 0
M  V30 5 C 0.0208 1.6173 -1.2894 0
M  V30 6 C 3.4095 -0.9584 -0.6013 0
M  V30 7 C 4.0366 0.2817 1.3719 0
M  V30 8 C -1.1184 1.2105 -0.3478 0
M  V30 9 N 4.4588 -1.7979 -0.3925 0
M  V30 10 C 5.1062 -0.5945 1.5626 0
M  V30 11 C -1.532 -0.2545 -0.559 0
M  V30 12 C 5.3034 -1.6397 0.66 0
M  V30 13 C -2.5998 -0.7178 0.4443 0
M  V30 14 C -3.976 -0.0924 0.1745 0
M  V30 15 C -5.0362 -0.6764 1.1039 0
M  V30 16 H -0.2995 1.4616 -2.3415 0
M  V30 17 H 0.2485 2.6984 -1.1649 0
M  V30 18 H 2.7653 -1.1287 -1.454 0
M  V30 19 H 3.8889 1.0906 2.0765 0
M  V30 20 H -1.983 1.8771 -0.5493 0
M  V30 21 H -0.8027 1.3661 0.706 0
M  V30 22 H 5.7761 -0.4648 2.4027 0
M  V30 23 H -0.6397 -0.9047 -0.4281 0
M  V30 24 H -1.9029 -0.3979 -1.5975 0
M  V30 25 H 6.1284 -2.326 0.7959 0
M  V30 26 H -2.6872 -1.8236 0.3646 0
M  V30 27 H -2.2718 -0.4802 1.4802 0
M  V30 28 H -4.2779 -0.2836 -0.878 0
M  V30 29 H -3.9355 1.0052 0.3373 0
M  V30 30 H -6.0174 -0.2005 0.8945 0
M  V30 31 H -5.1316 -1.7712 0.9418 0
M  V30 32 H -4.7674 -0.4842 2.1645 0
M  V30 END ATOM
M  V30 BEGIN BOND
M  V30 1 2 1 2
M  V30 2 1 2 3
M  V30 3 1 2 4
M  V30 4 1 3 5
M  V30 5 2 4 6
M  V30 6 1 4 7
M  V30 7 1 5 8
M  V30 8 1 6 9
M  V30 9 2 7 10
M  V30 10 1 8 11
M  V30 11 2 9 12
M  V30 12 1 11 13
M  V30 13 1 13 14
M  V30 14 1 14 15
M  V30 15 1 10 12
M  V30 16 1 5 16
M  V30 17 1 5 17
M  V30 18 1 6 18
M  V30 19 1 7 19
M  V30 20 1 8 20
M  V30 21 1 8 21
M  V30 22 1 10 22
M  V30 23 1 11 23
M  V30 24 1 11 24
M  V30 25 1 12 25
M  V30 26 1 13 26
M  V30 27 1 13 27
M  V30 28 1 14 28
M  V30 29 1 14 29
M  V30 30 1 15 30
M  V30 31 1 15 31
M  V30 32 1 15 32
M  V30 END BOND
M  V30 END CTAB
M  END
>  <Structure No>
4975

>  <LogS>
-2.6538

>  <MMFF94 Energy>
23.836

$$$$
Compound 4976
Actelion Java MolfileCreator 2.0

  0  0  0  0  0  0              0 V3000
M  V30 BEGIN CTAB
M  V30 COUNTS 21 22 0 0 0
M  V30 BEGIN ATOM
M  V30 1 N 2.93 0.7912 0.7912 0
M  V30 2 C 1.6633 0.3907 0.5267 0
M  V30 3 C 3.9512 -0.0745 0.5094 0
M  V30 4 N 0.5386 1.095 0.7332 0
M  V30 5 C 1.3875 -0.8233 -1.0E-4 0
M  V30 6 N 3.6883 -1.3107 -0.0256 0
M  V30 7 C -0.4233 0.231 0.2993 0
M  V30 8 N 0.0662 -0.9544 -0.1566 0
M  V30 9 C 2.4102 -1.7124 -0.2914 0
M  V30 10 N -1.8269 0.5527 0.325 0
M  V30 11 C -2.8128 -0.4186 -0.1555 0
M  V30 12 C -2.2536 1.8581 0.8357 0
M  V30 13 H 4.9727 0.2173 0.7098 0
M  V30 14 H -0.4518 -1.7763 -0.5387 0
M  V30 15 H 2.2105 -2.6884 -0.7132 0
M  V30 16 H -2.7458 -1.3493 0.4463 0
M  V30 17 H -3.8487 -0.0281 -0.0727 0
M  V30 18 H -2.6169 -0.6543 -1.2227 0
M  V30 19 H -3.3571 1.9741 0.799 0
M  V30 20 H -1.799 2.6659 0.2241 0
M  V30 21 H -1.9277 1.9717 1.8912 0
M  V30 END ATOM
M  V30 BEGIN BOND
M  V30 1 2 1 2
M  V30 2 1 1 3
M  V30 3 1 2 4
M  V30 4 1 2 5
M  V30 5 2 3 6
M  V30 6 2 4 7
M  V30 7 1 5 8
M  V30 8 2 5 9
M  V30 9 1 7 10
M  V30 10 1 10 11
M  V30 11 1 10 12
M  V30 12 1 6 9
M  V30 13 1 7 8
M  V30 14 1 3 13
M  V30 15 1 8 14
M  V30 16 1 9 15
M  V30 17 1 11 16
M  V30 18 1 11 17
M  V30 19 1 11 18
M  V30 20 1 12 19
M  V30 21 1 12 20
M  V30 22 1 12 21
M  V30 END BOND
M  V30 END CTAB
M  END
>  <Structure No>
4976

>  <LogS>
-1.3885

>  <MMFF94 Energy>
-53.317

$$$$
Compound 4977
Actelion Java MolfileCreator 2.0

  0  0  0  0  0  0              0 V3000
M  V30 BEGIN CTAB
M  V30 COUNTS 23 24 0 0 0
M  V30 BEGIN ATOM
M  V30 1 N 1.9173 -0.1596 -0.9583 0
M  V30 2 C 0.6916 -0.0766 -0.3803 0
M  V30 3 C 3.0476 -0.0106 -0.2143 0
M  V30 4 N -0.4343 -0.2327 -1.1213 0
M  V30 5 C 0.5816 0.1747 0.9936 0
M  V30 6 N 2.9559 0.2476 1.1201 0
M  V30 7 C 4.3857 -0.0666 -0.8723 0
M  V30 8 C -1.6717 -0.1517 -0.5576 0
M  V30 9 N -0.6462 0.2581 1.5661 0
M  V30 10 C 1.7484 0.3381 1.738 0
M  V30 11 C -1.7811 0.1011 0.8298 0
M  V30 12 C -2.8799 -0.3335 -1.4275 0
M  V30 13 C -3.1116 0.2031 1.5145 0
M  V30 14 H 4.671 0.9495 -1.2153 0
M  V30 15 H 5.1491 -0.4381 -0.1566 0
M  V30 16 H 4.3542 -0.7513 -1.7458 0
M  V30 17 H 1.701 0.5395 2.8004 0
M  V30 18 H -2.5775 -0.5206 -2.4796 0
M  V30 19 H -3.4742 -1.2017 -1.0737 0
M  V30 20 H -3.5073 0.5817 -1.4006 0
M  V30 21 H -3.7013 1.0345 1.0748 0
M  V30 22 H -3.6701 -0.7493 1.4007 0
M  V30 23 H -2.9773 0.4035 2.5988 0
M  V30 END ATOM
M  V30 BEGIN BOND
M  V30 1 1 1 2
M  V30 2 2 1 3
M  V30 3 2 2 4
M  V30 4 1 2 5
M  V30 5 1 3 6
M  V30 6 1 3 7
M  V30 7 1 4 8
M  V30 8 2 5 9
M  V30 9 1 5 10
M  V30 10 2 8 11
M  V30 11 1 8 12
M  V30 12 1 11 13
M  V30 13 2 6 10
M  V30 14 1 9 11
M  V30 15 1 7 14
M  V30 16 1 7 15
M  V30 17 1 7 16
M  V30 18 1 10 17
M  V30 19 1 12 18
M  V30 20 1 12 19
M  V30 21 1 12 20
M  V30 22 1 13 21
M  V30 23 1 13 22
M  V30 24 1 13 23
M  V30 END BOND
M  V30 END CTAB
M  END
>  <Structure No>
4977

>  <LogS>
-1.1442

>  <MMFF94 Energy>
70.142

$$$$
Compound 4978
Actelion Java MolfileCreator 2.0

  0  0  0  0  0  0              0 V3000
M  V30 BEGIN CTAB
M  V30 COUNTS 31 30 0 0 0
M  V30 BEGIN ATOM
M  V30 1 O 4.4521 1.7946 -0.1559 0
M  V30 2 C 3.7772 1.211 0.7339 0
M  V30 3 N 2.6683 0.3867 0.369 0
M  V30 4 N 4.1252 1.3778 2.1076 0
M  V30 5 N 2.336 0.2193 -0.9874 0
M  V30 6 C 1.3327 -0.481 -1.4317 0
M  V30 7 C 0.3756 -1.2431 -0.5442 0 CFG=2
M  V30 8 O 0.9613 -2.4771 -0.2156 0
M  V30 9 C -0.9782 -1.5078 -1.2565 0 CFG=1
M  V30 10 O -1.7584 -2.3789 -0.474 0
M  V30 11 C -1.8238 -0.2383 -1.587 0 CFG=2
M  V30 12 O -1.3297 0.3861 -2.7486 0
M  V30 13 C -2.0154 0.7944 -0.4368 0 CFG=1
M  V30 14 O -2.7881 1.8611 -0.9299 0
M  V30 15 C -2.7222 0.1905 0.7881 0
M  V30 16 O -2.9597 1.1898 1.7411 0
M  V30 17 H 2.1352 -0.0872 1.1294 0
M  V30 18 H 4.9347 1.9795 2.3775 0
M  V30 19 H 3.5756 0.9014 2.8565 0
M  V30 20 H 1.208 -0.5517 -2.5045 0
M  V30 21 H 0.1616 -0.6752 0.3849 0
M  V30 22 H 1.5943 -2.3151 0.5311 0
M  V30 23 H -0.7619 -2.0101 -2.231 0
M  V30 24 H -1.4603 -3.3053 -0.6714 0
M  V30 25 H -2.8404 -0.604 -1.8545 0
M  V30 26 H -0.6159 1.0216 -2.4836 0
M  V30 27 H -1.017 1.1785 -0.1233 0
M  V30 28 H -2.5462 2.6683 -0.4045 0
M  V30 29 H -2.0851 -0.5937 1.2487 0
M  V30 30 H -3.6892 -0.2643 0.476 0
M  V30 31 H -3.4325 0.7475 2.4933 0
M  V30 END ATOM
M  V30 BEGIN BOND
M  V30 1 2 1 2
M  V30 2 1 2 3
M  V30 3 1 2 4
M  V30 4 1 3 5
M  V30 5 2 5 6
M  V30 6 1 6 7
M  V30 7 1 7 8
M  V30 8 1 7 9
M  V30 9 1 9 10
M  V30 10 1 9 11
M  V30 11 1 11 12
M  V30 12 1 11 13
M  V30 13 1 13 14
M  V30 14 1 13 15
M  V30 15 1 15 16
M  V30 16 1 3 17
M  V30 17 1 4 18
M  V30 18 1 4 19
M  V30 19 1 6 20
M  V30 20 1 7 21
M  V30 21 1 8 22
M  V30 22 1 9 23
M  V30 23 1 10 24
M  V30 24 1 11 25
M  V30 25 1 12 26
M  V30 26 1 13 27
M  V30 27 1 14 28
M  V30 28 1 15 29
M  V30 29 1 15 30
M  V30 30 1 16 31
M  V30 END BOND
M  V30 BEGIN COLLECTION
M  V30 MDLV30/STEABS ATOMS=(4 7 9 11 13)
M  V30 END COLLECTION
M  V30 END CTAB
M  END
>  <Structure No>
4978

>  <LogS>
-1.0041

>  <MMFF94 Energy>
50.45

$$$$
Compound 4979
Actelion Java MolfileCreator 2.0

  0  0  0  0  0  0              0 V3000
M  V30 BEGIN CTAB
M  V30 COUNTS 14 14 0 0 0
M  V30 BEGIN ATOM
M  V30 1 O 3.1519 -0.3229 -0.2421 0
M  V30 2 C 1.9019 -0.1887 -0.1516 0
M  V30 3 N 1.081 -1.2092 -0.5163 0
M  V30 4 N 1.3761 0.9759 0.3104 0
M  V30 5 C -0.2719 -1.0892 -0.4279 0
M  V30 6 C 0.032 1.1418 0.4159 0
M  V30 7 O -0.9997 -2.0584 -0.7758 0
M  V30 8 C -0.8432 0.1093 0.0484 0
M  V30 9 C -2.3103 0.3057 0.1696 0
M  V30 10 O -3.116 -0.6065 -0.1541 0
M  V30 11 O -2.8192 1.5089 0.6457 0 CHG=-1
M  V30 12 H 1.4968 -2.1012 -0.8704 0
M  V30 13 H 2.0095 1.7589 0.59 0
M  V30 14 H -0.3526 2.0835 0.7882 0
M  V30 END ATOM
M  V30 BEGIN BOND
M  V30 1 2 1 2
M  V30 2 1 2 3
M  V30 3 1 2 4
M  V30 4 1 3 5
M  V30 5 1 4 6
M  V30 6 2 5 7
M  V30 7 1 5 8
M  V30 8 1 8 9
M  V30 9 2 9 10
M  V30 10 1 9 11
M  V30 11 2 6 8
M  V30 12 1 3 12
M  V30 13 1 4 13
M  V30 14 1 6 14
M  V30 END BOND
M  V30 END CTAB
M  END
>  <Structure No>
4979

>  <LogS>
-1.9381

>  <MMFF94 Energy>
-103.97

$$$$
Compound 4980
Actelion Java MolfileCreator 2.0

  0  0  0  0  0  0              0 V3000
M  V30 BEGIN CTAB
M  V30 COUNTS 27 27 0 0 0
M  V30 BEGIN ATOM
M  V30 1 Cl 3.606 0.2455 -3.3598 0
M  V30 2 C 3.2019 0.4472 -1.6644 0
M  V30 3 C 4.1725 0.8968 -0.765 0
M  V30 4 C 1.911 0.1502 -1.213 0
M  V30 5 C 3.8567 1.0447 0.5882 0
M  V30 6 C 1.5774 0.3072 0.1455 0
M  V30 7 Cl 5.0781 1.6031 1.7169 0
M  V30 8 C 2.5672 0.7477 1.0433 0
M  V30 9 C 0.2162 -0.0109 0.6398 0
M  V30 10 O 0.0603 -0.3262 1.8512 0
M  V30 11 N -0.9258 0.0594 -0.2369 0
M  V30 12 C -2.2508 -0.4972 0.0904 0
M  V30 13 C -2.7725 0.1359 1.3174 0
M  V30 14 C -3.2329 -0.2053 -1.0579 0
M  V30 15 C -2.1493 -2.0186 0.293 0
M  V30 16 C -3.199 0.6535 2.3198 0
M  V30 17 H 5.171 1.1257 -1.1158 0
M  V30 18 H 1.1846 -0.2245 -1.922 0
M  V30 19 H 2.3374 0.8721 2.0947 0
M  V30 20 H -0.8081 0.5554 -1.1494 0
M  V30 21 H -2.8745 -0.6716 -2.0011 0
M  V30 22 H -4.2433 -0.6093 -0.8284 0
M  V30 23 H -3.3226 0.8905 -1.2239 0
M  V30 24 H -3.1537 -2.4584 0.4786 0
M  V30 25 H -1.5026 -2.2671 1.1605 0
M  V30 26 H -1.7165 -2.4975 -0.6115 0
M  V30 27 H -3.5728 1.1077 3.1996 0
M  V30 END ATOM
M  V30 BEGIN BOND
M  V30 1 1 1 2
M  V30 2 2 2 3
M  V30 3 1 2 4
M  V30 4 1 3 5
M  V30 5 2 4 6
M  V30 6 1 5 7
M  V30 7 2 5 8
M  V30 8 1 6 9
M  V30 9 2 9 10
M  V30 10 1 9 11
M  V30 11 1 11 12
M  V30 12 1 12 13
M  V30 13 1 12 14
M  V30 14 1 12 15
M  V30 15 3 13 16
M  V30 16 1 6 8
M  V30 17 1 3 17
M  V30 18 1 4 18
M  V30 19 1 8 19
M  V30 20 1 11 20
M  V30 21 1 14 21
M  V30 22 1 14 22
M  V30 23 1 14 23
M  V30 24 1 15 24
M  V30 25 1 15 25
M  V30 26 1 15 26
M  V30 27 1 16 27
M  V30 END BOND
M  V30 END CTAB
M  END
>  <Structure No>
4980

>  <LogS>
-4.2324

>  <MMFF94 Energy>
-14.182

$$$$
Compound 4981
Actelion Java MolfileCreator 2.0

  0  0  0  0  0  0              0 V3000
M  V30 BEGIN CTAB
M  V30 COUNTS 28 30 0 0 0
M  V30 BEGIN ATOM
M  V30 1 O -1.2898 0.1611 3.6308 0
M  V30 2 C -1.3825 0.1069 2.3768 0
M  V30 3 O -2.5844 0.0637 1.6821 0
M  V30 4 C -0.284 0.08 1.4465 0
M  V30 5 C -2.3411 0.0065 0.2691 0
M  V30 6 C -0.8307 0.0202 0.1863 0
M  V30 7 C 1.0909 0.105 1.6647 0
M  V30 8 C -2.9167 -1.2924 -0.3045 0
M  V30 9 C -2.9456 1.239 -0.4119 0
M  V30 10 C -0.0136 -0.0185 -0.9463 0
M  V30 11 C 1.9411 0.0671 0.542 0
M  V30 12 C 1.3855 0.0049 -0.7719 0
M  V30 13 C 3.3345 0.09 0.7029 0
M  V30 14 C 2.2416 -0.0323 -1.8826 0
M  V30 15 C 4.1713 0.0521 -0.416 0
M  V30 16 C 3.6275 -0.0087 -1.7023 0
M  V30 17 H 1.4852 0.1524 2.6728 0
M  V30 18 H -4.0169 -1.3222 -0.1523 0
M  V30 19 H -2.7044 -1.3667 -1.3926 0
M  V30 20 H -2.4685 -2.1709 0.2076 0
M  V30 21 H -2.5181 2.1678 0.0235 0
M  V30 22 H -2.734 1.2258 -1.5026 0
M  V30 23 H -4.0462 1.2566 -0.2616 0
M  V30 24 H -0.4554 -0.0654 -1.9343 0
M  V30 25 H 3.7752 0.1371 1.6917 0
M  V30 26 H 1.8397 -0.0796 -2.8877 0
M  V30 27 H 5.2456 0.0699 -0.286 0
M  V30 28 H 4.2831 -0.0378 -2.5629 0
M  V30 END ATOM
M  V30 BEGIN BOND
M  V30 1 2 1 2
M  V30 2 1 2 3
M  V30 3 1 2 4
M  V30 4 1 3 5
M  V30 5 1 4 6
M  V30 6 2 4 7
M  V30 7 1 5 8
M  V30 8 1 5 9
M  V30 9 2 6 10
M  V30 10 1 7 11
M  V30 11 1 10 12
M  V30 12 2 11 13
M  V30 13 2 12 14
M  V30 14 1 13 15
M  V30 15 1 14 16
M  V30 16 1 5 6
M  V30 17 1 11 12
M  V30 18 2 15 16
M  V30 19 1 7 17
M  V30 20 1 8 18
M  V30 21 1 8 19
M  V30 22 1 8 20
M  V30 23 1 9 21
M  V30 24 1 9 22
M  V30 25 1 9 23
M  V30 26 1 10 24
M  V30 27 1 13 25
M  V30 28 1 14 26
M  V30 29 1 15 27
M  V30 30 1 16 28
M  V30 END BOND
M  V30 END CTAB
M  END
>  <Structure No>
4981

>  <LogS>
-2.9844

>  <MMFF94 Energy>
45.829

$$$$
Compound 4982
Actelion Java MolfileCreator 2.0

  0  0  0  0  0  0              0 V3000
M  V30 BEGIN CTAB
M  V30 COUNTS 41 41 0 0 0
M  V30 BEGIN ATOM
M  V30 1 Cl -0.5564 -1.6699 4.5376 0
M  V30 2 C 0.0044 -1.3618 2.8697 0
M  V30 3 C -1.108 -0.8884 1.9709 0
M  V30 4 O -2.2251 -0.5859 2.4748 0
M  V30 5 N -0.9114 -0.748 0.547 0
M  V30 6 C -2.0301 -0.3997 -0.2888 0
M  V30 7 C 0.4086 -0.9104 -0.071 0
M  V30 8 C -2.2357 0.9424 -0.6828 0
M  V30 9 C -2.925 -1.4042 -0.7214 0
M  V30 10 O 1.2648 0.1131 0.3888 0
M  V30 11 C -3.3206 1.2596 -1.5146 0
M  V30 12 C -1.283 2.0299 -0.2654 0
M  V30 13 C -4.0178 -1.0558 -1.5297 0
M  V30 14 C -2.7306 -2.8377 -0.3074 0
M  V30 15 C 2.5323 -0.0137 -0.2198 0
M  V30 16 C -4.2094 0.2672 -1.9268 0
M  V30 17 C 3.4586 1.102 0.2886 0
M  V30 18 C 4.8754 0.9195 -0.2682 0
M  V30 19 C 2.9136 2.4873 -0.0857 0
M  V30 20 H 0.8035 -0.5929 2.9063 0
M  V30 21 H 0.4276 -2.3082 2.4754 0
M  V30 22 H 0.8105 -1.9147 0.19 0
M  V30 23 H 0.3088 -0.8653 -1.1811 0
M  V30 24 H -3.4839 2.2793 -1.8409 0
M  V30 25 H -0.3726 1.9865 -0.8987 0
M  V30 26 H -1.7451 3.0338 -0.3769 0
M  V30 27 H -0.9968 1.91 0.8005 0
M  V30 28 H -4.721 -1.8102 -1.86 0
M  V30 29 H -2.9474 -2.9457 0.776 0
M  V30 30 H -1.6839 -3.1522 -0.5034 0
M  V30 31 H -3.4026 -3.5193 -0.8711 0
M  V30 32 H 2.9855 -0.9973 0.0435 0
M  V30 33 H 2.4477 0.0617 -1.329 0
M  V30 34 H -5.0493 0.5244 -2.5593 0
M  V30 35 H 3.5131 1.036 1.3981 0
M  V30 36 H 5.5489 1.7077 0.1315 0
M  V30 37 H 4.8718 0.979 -1.3779 0
M  V30 38 H 5.2834 -0.0675 0.0369 0
M  V30 39 H 3.5945 3.281 0.2896 0
M  V30 40 H 1.9165 2.6486 0.3762 0
M  V30 41 H 2.8194 2.5879 -1.1883 0
M  V30 END ATOM
M  V30 BEGIN BOND
M  V30 1 1 1 2
M  V30 2 1 2 3
M  V30 3 2 3 4
M  V30 4 1 3 5
M  V30 5 1 5 6
M  V30 6 1 5 7
M  V30 7 2 6 8
M  V30 8 1 6 9
M  V30 9 1 7 10
M  V30 10 1 8 11
M  V30 11 1 8 12
M  V30 12 2 9 13
M  V30 13 1 9 14
M  V30 14 1 10 15
M  V30 15 2 11 16
M  V30 16 1 15 17
M  V30 17 1 17 18
M  V30 18 1 17 19
M  V30 19 1 13 16
M  V30 20 1 2 20
M  V30 21 1 2 21
M  V30 22 1 7 22
M  V30 23 1 7 23
M  V30 24 1 11 24
M  V30 25 1 12 25
M  V30 26 1 12 26
M  V30 27 1 12 27
M  V30 28 1 13 28
M  V30 29 1 14 29
M  V30 30 1 14 30
M  V30 31 1 14 31
M  V30 32 1 15 32
M  V30 33 1 15 33
M  V30 34 1 16 34
M  V30 35 1 17 35
M  V30 36 1 18 36
M  V30 37 1 18 37
M  V30 38 1 18 38
M  V30 39 1 19 39
M  V30 40 1 19 40
M  V30 41 1 19 41
M  V30 END BOND
M  V30 END CTAB
M  END
>  <Structure No>
4982

>  <LogS>
-3.6822

>  <MMFF94 Energy>
30.929

$$$$
Compound 4983
Actelion Java MolfileCreator 2.0

  0  0  0  0  0  0              0 V3000
M  V30 BEGIN CTAB
M  V30 COUNTS 26 27 0 0 0
M  V30 BEGIN ATOM
M  V30 1 O -0.0792 1.5066 -1.1892 0
M  V30 2 C 0.5301 0.8512 -0.3015 0
M  V30 3 N -0.1814 -0.0863 0.5256 0
M  V30 4 C 1.9778 1.0794 -0.1258 0
M  V30 5 C -1.5808 -0.3826 0.3852 0
M  V30 6 C 2.9744 0.1745 0.2188 0
M  V30 7 C 2.6224 2.2815 -0.3406 0
M  V30 8 C -2.5274 0.631 0.1448 0
M  V30 9 C -2.023 -1.7036 0.5578 0
M  V30 10 O 4.1347 0.7901 0.2459 0
M  V30 11 C 2.8243 -1.2847 0.5061 0
M  V30 12 C 3.9577 2.0491 -0.0838 0
M  V30 13 C -3.886 0.3157 0.0395 0
M  V30 14 C -3.3821 -2.015 0.4508 0
M  V30 15 C -4.3126 -1.0066 0.1873 0
M  V30 16 H 0.3475 -0.63 1.2408 0
M  V30 17 H 2.174 3.2208 -0.6371 0
M  V30 18 H -2.2248 1.6666 0.068 0
M  V30 19 H -1.3108 -2.4927 0.7647 0
M  V30 20 H 2.0481 -1.7309 -0.1503 0
M  V30 21 H 3.7861 -1.8033 0.3115 0
M  V30 22 H 2.5523 -1.4308 1.5719 0
M  V30 23 H 4.7513 2.7818 -0.1437 0
M  V30 24 H -4.6098 1.0988 -0.1463 0
M  V30 25 H -3.7139 -3.0378 0.5746 0
M  V30 26 H -5.3647 -1.2482 0.1072 0
M  V30 END ATOM
M  V30 BEGIN BOND
M  V30 1 2 1 2
M  V30 2 1 2 3
M  V30 3 1 2 4
M  V30 4 1 3 5
M  V30 5 2 4 6
M  V30 6 1 4 7
M  V30 7 2 5 8
M  V30 8 1 5 9
M  V30 9 1 6 10
M  V30 10 1 6 11
M  V30 11 2 7 12
M  V30 12 1 8 13
M  V30 13 2 9 14
M  V30 14 2 13 15
M  V30 15 1 10 12
M  V30 16 1 14 15
M  V30 17 1 3 16
M  V30 18 1 7 17
M  V30 19 1 8 18
M  V30 20 1 9 19
M  V30 21 1 11 20
M  V30 22 1 11 21
M  V30 23 1 11 22
M  V30 24 1 12 23
M  V30 25 1 13 24
M  V30 26 1 14 25
M  V30 27 1 15 26
M  V30 END BOND
M  V30 END CTAB
M  END
>  <Structure No>
4983

>  <LogS>
-3.3037

>  <MMFF94 Energy>
4.5463

$$$$
Compound 4984
Actelion Java MolfileCreator 2.0

  0  0  0  0  0  0              0 V3000
M  V30 BEGIN CTAB
M  V30 COUNTS 30 29 0 0 0
M  V30 BEGIN ATOM
M  V30 1 O -2.5449 3.4209 -0.3973 0
M  V30 2 C -1.6494 2.7145 -0.9305 0
M  V30 3 O -1.6759 2.4902 -2.3012 0 CHG=-1
M  V30 4 C -0.5648 2.1071 -0.0915 0
M  V30 5 C -0.7121 0.5695 0.0151 0 CFG=2
M  V30 6 C -1.942 0.204 0.8929 0
M  V30 7 C 0.5818 -0.0578 0.5988 0
M  V30 8 C -2.481 -1.2149 0.6401 0
M  V30 9 C 1.69 -0.2117 -0.4559 0
M  V30 10 C -3.1091 -1.3382 -0.7146 0
M  V30 11 C 2.9359 -0.8702 0.1485 0
M  V30 12 O -4.2387 -0.8286 -0.9381 0
M  V30 13 O -2.4351 -1.9927 -1.7379 0 CHG=-1
M  V30 14 C 4.0386 -1.0268 -0.8945 0
M  V30 15 H 0.402 2.376 -0.5629 0
M  V30 16 H -0.5714 2.5604 0.9246 0
M  V30 17 H -0.8696 0.1675 -1.0101 0
M  V30 18 H -1.67 0.2996 1.9673 0
M  V30 19 H -2.776 0.9181 0.7199 0
M  V30 20 H 0.367 -1.0666 1.0085 0
M  V30 21 H 0.952 0.5611 1.4463 0
M  V30 22 H -3.2515 -1.4451 1.4075 0
M  V30 23 H -1.6785 -1.9728 0.7486 0
M  V30 24 H 1.9716 0.7816 -0.8636 0
M  V30 25 H 1.3146 -0.8414 -1.2924 0
M  V30 26 H 3.3193 -0.2478 0.9865 0
M  V30 27 H 2.6741 -1.8747 0.5472 0
M  V30 28 H 4.3392 -0.0333 -1.2905 0
M  V30 29 H 4.9253 -1.5062 -0.4288 0
M  V30 30 H 3.6884 -1.6659 -1.733 0
M  V30 END ATOM
M  V30 BEGIN BOND
M  V30 1 2 1 2
M  V30 2 1 2 3
M  V30 3 1 2 4
M  V30 4 1 4 5
M  V30 5 1 5 6
M  V30 6 1 5 7
M  V30 7 1 6 8
M  V30 8 1 7 9
M  V30 9 1 8 10
M  V30 10 1 9 11
M  V30 11 2 10 12
M  V30 12 1 10 13
M  V30 13 1 11 14
M  V30 14 1 4 15
M  V30 15 1 4 16
M  V30 16 1 5 17
M  V30 17 1 6 18
M  V30 18 1 6 19
M  V30 19 1 7 20
M  V30 20 1 7 21
M  V30 21 1 8 22
M  V30 22 1 8 23
M  V30 23 1 9 24
M  V30 24 1 9 25
M  V30 25 1 11 26
M  V30 26 1 11 27
M  V30 27 1 14 28
M  V30 28 1 14 29
M  V30 29 1 14 30
M  V30 END BOND
M  V30 BEGIN COLLECTION
M  V30 MDLV30/STEABS ATOMS=(1 5)
M  V30 END COLLECTION
M  V30 END CTAB
M  END
>  <Structure No>
4984

>  <LogS>
-1.3974

>  <MMFF94 Energy>
56.458

$$$$
Compound 4985
Actelion Java MolfileCreator 2.0

  0  0  0  0  0  0              0 V3000
M  V30 BEGIN CTAB
M  V30 COUNTS 38 38 0 0 0
M  V30 BEGIN ATOM
M  V30 1 O 0.8701 1.8991 2.3744 0
M  V30 2 C 1.1055 0.7907 1.9193 0
M  V30 3 C 0.9512 0.4468 0.4733 0 CFG=1
M  V30 4 C 1.6405 -0.3186 2.7491 0
M  V30 5 C 1.8174 -0.8333 0.3704 0 CFG=1
M  V30 6 C -0.5418 0.2394 0.1158 0
M  V30 7 C 1.7742 -1.4759 1.7646 0
M  V30 8 C 1.4597 -1.8375 -0.7457 0
M  V30 9 C -1.3713 1.5285 0.2582 0
M  V30 10 C 1.6273 -1.2372 -2.1098 0
M  V30 11 C -2.7602 1.4215 -0.3974 0
M  V30 12 O 0.6868 -1.3134 -2.9469 0
M  V30 13 O 2.8373 -0.6274 -2.4541 0
M  V30 14 C -3.6645 0.3223 0.1879 0
M  V30 15 C 3.0584 -0.0285 -3.7248 0
M  V30 16 C -3.9879 0.5388 1.6657 0
M  V30 17 H 1.3905 1.245 -0.1654 0
M  V30 18 H 2.6336 -0.0345 3.1592 0
M  V30 19 H 0.9391 -0.5711 3.5732 0
M  V30 20 H 2.8715 -0.5087 0.2048 0
M  V30 21 H -0.6185 -0.0925 -0.9391 0
M  V30 22 H -0.971 -0.5545 0.7648 0
M  V30 23 H 2.6922 -2.07 1.9649 0
M  V30 24 H 0.8848 -2.1389 1.8553 0
M  V30 25 H 2.1419 -2.7115 -0.6744 0
M  V30 26 H 0.4251 -2.2217 -0.6135 0
M  V30 27 H -0.8289 2.3642 -0.2351 0
M  V30 28 H -1.4864 1.797 1.3285 0
M  V30 29 H -3.2752 2.402 -0.2989 0
M  V30 30 H -2.6317 1.2322 -1.4854 0
M  V30 31 H -4.6198 0.3229 -0.3801 0
M  V30 32 H -3.2041 -0.6781 0.0475 0
M  V30 33 H 4.0856 0.3889 -3.7572 0
M  V30 34 H 2.9532 -0.7891 -4.5271 0
M  V30 35 H 2.3302 0.7938 -3.8888 0
M  V30 36 H -4.7609 -0.1915 1.9849 0
M  V30 37 H -3.0854 0.3788 2.2915 0
M  V30 38 H -4.3797 1.5646 1.8324 0
M  V30 END ATOM
M  V30 BEGIN BOND
M  V30 1 2 1 2
M  V30 2 1 2 3
M  V30 3 1 2 4
M  V30 4 1 3 5
M  V30 5 1 3 6
M  V30 6 1 4 7
M  V30 7 1 5 8
M  V30 8 1 6 9
M  V30 9 1 8 10
M  V30 10 1 9 11
M  V30 11 2 10 12
M  V30 12 1 10 13
M  V30 13 1 11 14
M  V30 14 1 13 15
M  V30 15 1 14 16
M  V30 16 1 5 7
M  V30 17 1 3 17
M  V30 18 1 4 18
M  V30 19 1 4 19
M  V30 20 1 5 20
M  V30 21 1 6 21
M  V30 22 1 6 22
M  V30 23 1 7 23
M  V30 24 1 7 24
M  V30 25 1 8 25
M  V30 26 1 8 26
M  V30 27 1 9 27
M  V30 28 1 9 28
M  V30 29 1 11 29
M  V30 30 1 11 30
M  V30 31 1 14 31
M  V30 32 1 14 32
M  V30 33 1 15 33
M  V30 34 1 15 34
M  V30 35 1 15 35
M  V30 36 1 16 36
M  V30 37 1 16 37
M  V30 38 1 16 38
M  V30 END BOND
M  V30 BEGIN COLLECTION
M  V30 MDLV30/STEABS ATOMS=(2 3 5)
M  V30 END COLLECTION
M  V30 END CTAB
M  END
>  <Structure No>
4985

>  <LogS>
-2.9076

>  <MMFF94 Energy>
4.4778

$$$$
Compound 4986
Actelion Java MolfileCreator 2.0

  0  0  0  0  0  0              0 V3000
M  V30 BEGIN CTAB
M  V30 COUNTS 34 37 0 0 0
M  V30 BEGIN ATOM
M  V30 1 O 5.0394 -0.8115 0.2434 0
M  V30 2 C 4.1969 -1.7093 0.509 0
M  V30 3 N 4.6218 -2.951 0.863 0
M  V30 4 C 2.8261 -1.4438 0.4427 0
M  V30 5 C 3.7353 -3.9414 1.1537 0
M  V30 6 N 2.3464 -0.2259 0.0818 0
M  V30 7 C 1.9296 -2.4763 0.7454 0
M  V30 8 N 2.398 -3.7017 1.0951 0 CHG=-1
M  V30 9 C 1.0091 0.0234 0.0132 0
M  V30 10 N 0.5959 -2.2351 0.6994 0
M  V30 11 C 0.1002 -1.0129 0.3578 0
M  V30 12 C 0.5725 1.3547 -0.4649 0
M  V30 13 C -1.366 -0.8164 0.4106 0
M  V30 14 C 1.1536 2.5148 0.0735 0
M  V30 15 C -0.3826 1.478 -1.4901 0
M  V30 16 C -2.2186 -1.7574 -0.19 0
M  V30 17 C -1.9254 0.2758 1.0983 0
M  V30 18 C 0.7591 3.7773 -0.3801 0
M  V30 19 C -0.7747 2.7424 -1.94 0
M  V30 20 C -3.6057 -1.5891 -0.1349 0
M  V30 21 C -3.3128 0.4406 1.1502 0
M  V30 22 C -0.207 3.8912 -1.3831 0
M  V30 23 C -4.1523 -0.489 0.5312 0
M  V30 24 H 4.0952 -4.9218 1.4332 0
M  V30 25 H 1.9017 2.4424 0.8535 0
M  V30 26 H -0.8173 0.5979 -1.947 0
M  V30 27 H -1.8094 -2.6136 -0.7121 0
M  V30 28 H -1.2903 0.9944 1.601 0
M  V30 29 H 1.2029 4.6679 0.0458 0
M  V30 30 H -1.515 2.8312 -2.7245 0
M  V30 31 H -4.2572 -2.3121 -0.6084 0
M  V30 32 H -3.7373 1.2865 1.6752 0
M  V30 33 H -0.5108 4.8691 -1.7334 0
M  V30 34 H -5.2261 -0.3604 0.5732 0
M  V30 END ATOM
M  V30 BEGIN BOND
M  V30 1 2 1 2
M  V30 2 1 2 3
M  V30 3 1 2 4
M  V30 4 2 3 5
M  V30 5 2 4 6
M  V30 6 1 4 7
M  V30 7 1 5 8
M  V30 8 1 6 9
M  V30 9 2 7 10
M  V30 10 2 9 11
M  V30 11 1 9 12
M  V30 12 1 11 13
M  V30 13 2 12 14
M  V30 14 1 12 15
M  V30 15 2 13 16
M  V30 16 1 13 17
M  V30 17 1 14 18
M  V30 18 2 15 19
M  V30 19 1 16 20
M  V30 20 2 17 21
M  V30 21 2 18 22
M  V30 22 2 20 23
M  V30 23 1 7 8
M  V30 24 1 10 11
M  V30 25 1 19 22
M  V30 26 1 21 23
M  V30 27 1 5 24
M  V30 28 1 14 25
M  V30 29 1 15 26
M  V30 30 1 16 27
M  V30 31 1 17 28
M  V30 32 1 18 29
M  V30 33 1 19 30
M  V30 34 1 20 31
M  V30 35 1 21 32
M  V30 36 1 22 33
M  V30 37 1 23 34
M  V30 END BOND
M  V30 END CTAB
M  END
>  <Structure No>
4986

>  <LogS>
-3.1766

>  <MMFF94 Energy>
186.19

$$$$
Compound 4987
Actelion Java MolfileCreator 2.0

  0  0  0  0  0  0              0 V3000
M  V30 BEGIN CTAB
M  V30 COUNTS 23 24 0 0 0
M  V30 BEGIN ATOM
M  V30 1 Cl 1.8219 3.3975 -0.0827 0
M  V30 2 C 2.206 1.6832 -0.0927 0
M  V30 3 C 1.2328 0.7333 0.2563 0
M  V30 4 C 3.4907 1.2704 -0.464 0
M  V30 5 O -0.044 1.1723 0.6397 0
M  V30 6 C 1.5741 -0.6321 0.2603 0
M  V30 7 C 3.8157 -0.088 -0.4772 0
M  V30 8 C -1.2408 0.4696 0.4371 0
M  V30 9 C 2.8594 -1.0397 -0.1116 0
M  V30 10 C -1.4259 -0.3844 -0.6664 0
M  V30 11 C -2.2962 0.6647 1.3372 0
M  V30 12 Cl 3.2741 -2.744 -0.1096 0
M  V30 13 C -2.641 -1.054 -0.8414 0
M  V30 14 C -3.5102 -0.0063 1.1598 0
M  V30 15 C -3.6813 -0.8682 0.0732 0
M  V30 16 H 4.2385 2.0024 -0.7412 0
M  V30 17 H 0.8512 -1.3759 0.5693 0
M  V30 18 H 4.8119 -0.3989 -0.7647 0
M  V30 19 H -0.6414 -0.5173 -1.3995 0
M  V30 20 H -2.1717 1.3327 2.18 0
M  V30 21 H -2.7787 -1.7113 -1.6901 0
M  V30 22 H -4.3186 0.143 1.8638 0
M  V30 23 H -4.6217 -1.3859 -0.064 0
M  V30 END ATOM
M  V30 BEGIN BOND
M  V30 1 1 1 2
M  V30 2 2 2 3
M  V30 3 1 2 4
M  V30 4 1 3 5
M  V30 5 1 3 6
M  V30 6 2 4 7
M  V30 7 1 5 8
M  V30 8 2 6 9
M  V30 9 2 8 10
M  V30 10 1 8 11
M  V30 11 1 9 12
M  V30 12 1 10 13
M  V30 13 2 11 14
M  V30 14 2 13 15
M  V30 15 1 7 9
M  V30 16 1 14 15
M  V30 17 1 4 16
M  V30 18 1 6 17
M  V30 19 1 7 18
M  V30 20 1 10 19
M  V30 21 1 11 20
M  V30 22 1 13 21
M  V30 23 1 14 22
M  V30 24 1 15 23
M  V30 END BOND
M  V30 END CTAB
M  END
>  <Structure No>
4987

>  <LogS>
-4.9703

>  <MMFF94 Energy>
43.714

$$$$
Compound 4988
Actelion Java MolfileCreator 2.0

  0  0  0  0  0  0              0 V3000
M  V30 BEGIN CTAB
M  V30 COUNTS 23 24 0 0 0
M  V30 BEGIN ATOM
M  V30 1 Cl -3.215 -2.1989 1.6065 0
M  V30 2 C -2.7989 -0.802 0.6305 0
M  V30 3 C -3.7675 0.1664 0.3469 0
M  V30 4 C -1.5005 -0.6608 0.1288 0
M  V30 5 C -3.4406 1.2722 -0.4445 0
M  V30 6 C -1.1602 0.4603 -0.6505 0
M  V30 7 Cl -4.6589 2.4803 -0.8098 0
M  V30 8 C -2.142 1.4139 -0.9461 0
M  V30 9 O 0.1259 0.6304 -1.1838 0
M  V30 10 C 1.3174 0.1884 -0.5899 0
M  V30 11 C 2.3954 -0.1509 -1.4165 0
M  V30 12 C 1.4739 0.1235 0.8073 0
M  V30 13 C 3.6045 -0.5817 -0.8617 0
M  V30 14 C 2.6836 -0.307 1.3608 0
M  V30 15 C 3.7486 -0.6638 0.5272 0
M  V30 16 Cl 5.2662 -1.2023 1.2227 0
M  V30 17 H -4.7726 0.0563 0.7344 0
M  V30 18 H -0.7675 -1.4311 0.3304 0
M  V30 19 H -1.8913 2.2698 -1.5603 0
M  V30 20 H 2.2924 -0.0879 -2.4924 0
M  V30 21 H 0.6705 0.4231 1.4675 0
M  V30 22 H 4.428 -0.8494 -1.5114 0
M  V30 23 H 2.7943 -0.3561 2.4367 0
M  V30 END ATOM
M  V30 BEGIN BOND
M  V30 1 1 1 2
M  V30 2 2 2 3
M  V30 3 1 2 4
M  V30 4 1 3 5
M  V30 5 2 4 6
M  V30 6 1 5 7
M  V30 7 2 5 8
M  V30 8 1 6 9
M  V30 9 1 9 10
M  V30 10 2 10 11
M  V30 11 1 10 12
M  V30 12 1 11 13
M  V30 13 2 12 14
M  V30 14 2 13 15
M  V30 15 1 15 16
M  V30 16 1 6 8
M  V30 17 1 14 15
M  V30 18 1 3 17
M  V30 19 1 4 18
M  V30 20 1 8 19
M  V30 21 1 11 20
M  V30 22 1 12 21
M  V30 23 1 13 22
M  V30 24 1 14 23
M  V30 END BOND
M  V30 END CTAB
M  END
>  <Structure No>
4988

>  <LogS>
-5.5201

>  <MMFF94 Energy>
21.742

$$$$
Compound 4989
Actelion Java MolfileCreator 2.0

  0  0  0  0  0  0              0 V3000
M  V30 BEGIN CTAB
M  V30 COUNTS 27 28 0 0 0
M  V30 BEGIN ATOM
M  V30 1 Cl 1.4098 2.2397 -1.0779 0
M  V30 2 C 2.0796 0.9549 -0.081 0
M  V30 3 C 1.6587 -0.4037 -0.1008 0
M  V30 4 C 3.1029 1.3317 0.8093 0
M  V30 5 N 0.6848 -0.9823 -0.8866 0
M  V30 6 C 2.2711 -1.3042 0.7754 0
M  V30 7 C 3.699 0.3966 1.6681 0
M  V30 8 C 0.5463 -2.3052 -0.5908 0
M  V30 9 C -0.1585 -0.3204 -1.8939 0
M  V30 10 S 1.6035 -2.8321 0.6056 0
M  V30 11 C 3.2808 -0.9351 1.657 0
M  V30 12 O -0.2921 -3.062 -1.1495 0
M  V30 13 C -1.2582 0.4615 -1.2429 0
M  V30 14 O -1.7943 1.4156 -1.8693 0
M  V30 15 O -1.7094 0.1012 0.0326 0
M  V30 16 C -2.7843 0.7578 0.7004 0
M  V30 17 C -4.1245 0.3171 0.1237 0
M  V30 18 H 3.4394 2.3605 0.8412 0
M  V30 19 H 4.4829 0.7093 2.3455 0
M  V30 20 H -0.6279 -1.0697 -2.5663 0
M  V30 21 H 0.458 0.314 -2.5605 0
M  V30 22 H 3.7316 -1.6606 2.3217 0
M  V30 23 H -2.6733 1.8612 0.6224 0
M  V30 24 H -2.7518 0.4835 1.7759 0
M  V30 25 H -4.9504 0.7939 0.6923 0
M  V30 26 H -4.225 -0.7861 0.1998 0
M  V30 27 H -4.2058 0.6175 -0.9414 0
M  V30 END ATOM
M  V30 BEGIN BOND
M  V30 1 1 1 2
M  V30 2 2 2 3
M  V30 3 1 2 4
M  V30 4 1 3 5
M  V30 5 1 3 6
M  V30 6 2 4 7
M  V30 7 1 5 8
M  V30 8 1 5 9
M  V30 9 1 6 10
M  V30 10 2 6 11
M  V30 11 2 8 12
M  V30 12 1 9 13
M  V30 13 2 13 14
M  V30 14 1 13 15
M  V30 15 1 15 16
M  V30 16 1 16 17
M  V30 17 1 7 11
M  V30 18 1 8 10
M  V30 19 1 4 18
M  V30 20 1 7 19
M  V30 21 1 9 20
M  V30 22 1 9 21
M  V30 23 1 11 22
M  V30 24 1 16 23
M  V30 25 1 16 24
M  V30 26 1 17 25
M  V30 27 1 17 26
M  V30 28 1 17 27
M  V30 END BOND
M  V30 END CTAB
M  END
>  <Structure No>
4989

>  <LogS>
-3.762

>  <MMFF94 Energy>
17.164

$$$$
Compound 4990
Actelion Java MolfileCreator 2.0

  0  0  0  0  0  0              0 V3000
M  V30 BEGIN CTAB
M  V30 COUNTS 22 22 0 0 0
M  V30 BEGIN ATOM
M  V30 1 O -0.577 3.1354 -0.1648 0
M  V30 2 N 0.5485 2.5967 -0.1407 0 CHG=1
M  V30 3 O 1.6614 3.4063 -0.1182 0 CHG=-1
M  V30 4 C 0.6906 1.1608 -0.0849 0
M  V30 5 C -0.4036 0.2974 -0.336 0
M  V30 6 C 1.947 0.6054 0.2236 0
M  V30 7 O -1.6548 0.8484 -0.6685 0
M  V30 8 C -0.2116 -1.0956 -0.2608 0
M  V30 9 C 2.1318 -0.7843 0.2961 0
M  V30 10 C -2.8602 0.114 -0.8844 0
M  V30 11 C 1.0385 -1.6275 0.0519 0
M  V30 12 N 3.4239 -1.3327 0.6177 0 CHG=1
M  V30 13 C -3.3788 -0.4435 0.4032 0
M  V30 14 O 3.5926 -2.5681 0.6853 0
M  V30 15 O 4.4968 -0.5043 0.8557 0 CHG=-1
M  V30 16 O -3.5342 0.3085 1.4011 0
M  V30 17 O -3.7186 -1.7872 0.4945 0 CHG=-1
M  V30 18 H 2.7856 1.2608 0.4181 0
M  V30 19 H -1.0229 -1.7838 -0.4485 0
M  V30 20 H -2.6963 -0.6908 -1.6323 0
M  V30 21 H -3.6242 0.8039 -1.2992 0
M  V30 22 H 1.15 -2.7032 0.1 0
M  V30 END ATOM
M  V30 BEGIN BOND
M  V30 1 2 1 2
M  V30 2 1 2 3
M  V30 3 1 2 4
M  V30 4 2 4 5
M  V30 5 1 4 6
M  V30 6 1 5 7
M  V30 7 1 5 8
M  V30 8 2 6 9
M  V30 9 1 7 10
M  V30 10 2 8 11
M  V30 11 1 9 12
M  V30 12 1 10 13
M  V30 13 2 12 14
M  V30 14 1 12 15
M  V30 15 2 13 16
M  V30 16 1 13 17
M  V30 17 1 9 11
M  V30 18 1 6 18
M  V30 19 1 8 19
M  V30 20 1 10 20
M  V30 21 1 10 21
M  V30 22 1 11 22
M  V30 END BOND
M  V30 END CTAB
M  END
>  <Structure No>
4990

>  <LogS>
-1.9369

>  <MMFF94 Energy>
116.49

$$$$
Compound 4991
Actelion Java MolfileCreator 2.0

  0  0  0  0  0  0              0 V3000
M  V30 BEGIN CTAB
M  V30 COUNTS 43 43 0 0 0
M  V30 BEGIN ATOM
M  V30 1 Cl 5.0079 0.8064 2.6631 0
M  V30 2 C 5.104 0.0568 1.0768 0
M  V30 3 C 4.3354 0.5493 0.009 0
M  V30 4 C 5.9516 -1.041 0.8901 0
M  V30 5 O 3.494 1.6521 0.2374 0
M  V30 6 C 4.4335 -0.0754 -1.2507 0
M  V30 7 C 6.0408 -1.6551 -0.362 0
M  V30 8 C 2.5971 2.218 -0.7181 0
M  V30 9 C 5.282 -1.1713 -1.4309 0
M  V30 10 Cl 7.104 -3.0311 -0.5917 0
M  V30 11 C 1.4589 1.2866 -0.9909 0
M  V30 12 O 0.9705 1.2212 -2.1516 0
M  V30 13 O 0.9277 0.5235 0.0547 0
M  V30 14 C -0.1985 -0.3399 -0.0941 0
M  V30 15 C -1.5186 0.4585 -0.1715 0 CFG=1
M  V30 16 C -2.7114 -0.5143 -0.3363 0
M  V30 17 C -1.6763 1.4476 1.0154 0
M  V30 18 C -4.0527 0.2088 -0.5567 0
M  V30 19 C -1.8445 0.7832 2.3845 0
M  V30 20 C -5.1707 -0.7461 -1.0026 0
M  V30 21 C -5.5943 -1.714 0.1017 0
M  V30 22 H 6.5398 -1.4166 1.7181 0
M  V30 23 H 3.861 0.2762 -2.0973 0
M  V30 24 H 3.1411 2.4727 -1.653 0
M  V30 25 H 2.1833 3.1587 -0.2997 0
M  V30 26 H 5.3487 -1.6436 -2.4029 0
M  V30 27 H -0.2257 -1.0366 0.7692 0
M  V30 28 H -0.0703 -0.9621 -1.0072 0
M  V30 29 H -1.471 1.0749 -1.0963 0
M  V30 30 H -2.7804 -1.1818 0.5479 0
M  V30 31 H -2.5131 -1.1603 -1.22 0
M  V30 32 H -2.5469 2.1124 0.8332 0
M  V30 33 H -0.7905 2.1174 1.057 0
M  V30 34 H -4.368 0.7259 0.3747 0
M  V30 35 H -3.9239 0.9793 -1.3477 0
M  V30 36 H -1.9134 1.5702 3.1649 0
M  V30 37 H -0.9743 0.1393 2.6249 0
M  V30 38 H -2.7772 0.1842 2.4241 0
M  V30 39 H -6.0559 -0.1391 -1.2927 0
M  V30 40 H -4.8501 -1.3201 -1.8988 0
M  V30 41 H -6.4763 -2.2974 -0.2371 0
M  V30 42 H -5.8716 -1.1568 1.0219 0
M  V30 43 H -4.7765 -2.4274 0.3335 0
M  V30 END ATOM
M  V30 BEGIN BOND
M  V30 1 1 1 2
M  V30 2 2 2 3
M  V30 3 1 2 4
M  V30 4 1 3 5
M  V30 5 1 3 6
M  V30 6 2 4 7
M  V30 7 1 5 8
M  V30 8 2 6 9
M  V30 9 1 7 10
M  V30 10 1 8 11
M  V30 11 2 11 12
M  V30 12 1 11 13
M  V30 13 1 13 14
M  V30 14 1 14 15
M  V30 15 1 15 16
M  V30 16 1 15 17
M  V30 17 1 16 18
M  V30 18 1 17 19
M  V30 19 1 18 20
M  V30 20 1 20 21
M  V30 21 1 7 9
M  V30 22 1 4 22
M  V30 23 1 6 23
M  V30 24 1 8 24
M  V30 25 1 8 25
M  V30 26 1 9 26
M  V30 27 1 14 27
M  V30 28 1 14 28
M  V30 29 1 15 29
M  V30 30 1 16 30
M  V30 31 1 16 31
M  V30 32 1 17 32
M  V30 33 1 17 33
M  V30 34 1 18 34
M  V30 35 1 18 35
M  V30 36 1 19 36
M  V30 37 1 19 37
M  V30 38 1 19 38
M  V30 39 1 20 39
M  V30 40 1 20 40
M  V30 41 1 21 41
M  V30 42 1 21 42
M  V30 43 1 21 43
M  V30 END BOND
M  V30 BEGIN COLLECTION
M  V30 MDLV30/STEABS ATOMS=(1 15)
M  V30 END COLLECTION
M  V30 END CTAB
M  END
>  <Structure No>
4991

>  <LogS>
-7.0122

>  <MMFF94 Energy>
45.363

$$$$
Compound 4992
Actelion Java MolfileCreator 2.0

  0  0  0  0  0  0              0 V3000
M  V30 BEGIN CTAB
M  V30 COUNTS 18 17 0 0 0
M  V30 BEGIN ATOM
M  V30 1 C 0.6847 0.3042 0.5325 0
M  V30 2 C 1.5015 -0.3984 -0.2643 0
M  V30 3 C -0.4797 -0.3405 1.236 0
M  V30 4 C 2.6606 0.2565 -0.9487 0
M  V30 5 C -1.5968 -0.7473 0.2641 0
M  V30 6 C -2.2569 0.4613 -0.3985 0
M  V30 7 H 0.8729 1.3612 0.7017 0
M  V30 8 H 1.33 -1.4596 -0.4223 0
M  V30 9 H -0.1232 -1.2397 1.7837 0
M  V30 10 H -0.8873 0.3669 1.9903 0
M  V30 11 H 2.2976 1.0664 -1.6162 0
M  V30 12 H 3.208 -0.4926 -1.558 0
M  V30 13 H 3.355 0.6824 -0.1941 0
M  V30 14 H -2.3727 -1.3066 0.8302 0
M  V30 15 H -1.197 -1.4272 -0.5189 0
M  V30 16 H -2.67 1.1467 0.3718 0
M  V30 17 H -1.5233 1.0117 -1.0247 0
M  V30 18 H -3.0878 0.1186 -1.0502 0
M  V30 END ATOM
M  V30 BEGIN BOND
M  V30 1 2 1 2
M  V30 2 1 1 3
M  V30 3 1 2 4
M  V30 4 1 3 5
M  V30 5 1 5 6
M  V30 6 1 1 7
M  V30 7 1 2 8
M  V30 8 1 3 9
M  V30 9 1 3 10
M  V30 10 1 4 11
M  V30 11 1 4 12
M  V30 12 1 4 13
M  V30 13 1 5 14
M  V30 14 1 5 15
M  V30 15 1 6 16
M  V30 16 1 6 17
M  V30 17 1 6 18
M  V30 END BOND
M  V30 END CTAB
M  END
>  <Structure No>
4992

>  <LogS>
-3.2262

>  <MMFF94 Energy>
3.9898

$$$$
Compound 4993
Actelion Java MolfileCreator 2.0

  0  0  0  0  0  0              0 V3000
M  V30 BEGIN CTAB
M  V30 COUNTS 23 22 0 0 0
M  V30 BEGIN ATOM
M  V30 1 O -0.231 -0.1539 -0.385 0
M  V30 2 C -1.2076 -0.8288 0.3915 0 CFG=2
M  V30 3 C 1.0061 -0.094 0.3039 0 CFG=2
M  V30 4 O -1.0397 -2.2196 0.2805 0
M  V30 5 C -2.6091 -0.4375 -0.0969 0
M  V30 6 O 0.9661 0.9075 1.2908 0
M  V30 7 C 2.122 0.2001 -0.7083 0
M  V30 8 C -2.8939 1.046 0.1301 0
M  V30 9 C 3.5023 0.2041 -0.0538 0
M  V30 10 H -1.1426 -0.5547 1.4711 0
M  V30 11 H 1.2436 -1.0693 0.7907 0
M  V30 12 H -0.991 -2.4323 -0.6882 0
M  V30 13 H -2.707 -0.6654 -1.1806 0
M  V30 14 H -3.3689 -1.0349 0.4525 0
M  V30 15 H 0.6384 1.7366 0.8531 0
M  V30 16 H 2.1065 -0.5785 -1.5016 0
M  V30 17 H 1.9427 1.1854 -1.1914 0
M  V30 18 H -2.1753 1.6719 -0.4403 0
M  V30 19 H -3.9216 1.2838 -0.2163 0
M  V30 20 H -2.8178 1.2934 1.2104 0
M  V30 21 H 4.2777 0.3928 -0.8257 0
M  V30 22 H 3.7075 -0.7784 0.4216 0
M  V30 23 H 3.5666 1.0044 0.7135 0
M  V30 END ATOM
M  V30 BEGIN BOND
M  V30 1 1 1 2
M  V30 2 1 1 3
M  V30 3 1 2 4
M  V30 4 1 2 5
M  V30 5 1 3 6
M  V30 6 1 3 7
M  V30 7 1 5 8
M  V30 8 1 7 9
M  V30 9 1 2 10
M  V30 10 1 3 11
M  V30 11 1 4 12
M  V30 12 1 5 13
M  V30 13 1 5 14
M  V30 14 1 6 15
M  V30 15 1 7 16
M  V30 16 1 7 17
M  V30 17 1 8 18
M  V30 18 1 8 19
M  V30 19 1 8 20
M  V30 20 1 9 21
M  V30 21 1 9 22
M  V30 22 1 9 23
M  V30 END BOND
M  V30 BEGIN COLLECTION
M  V30 MDLV30/STEABS ATOMS=(2 2 3)
M  V30 END COLLECTION
M  V30 END CTAB
M  END
>  <Structure No>
4993

>  <LogS>
0.8723

>  <MMFF94 Energy>
-48.09

$$$$
Compound 4994
Actelion Java MolfileCreator 2.0

  0  0  0  0  0  0              0 V3000
M  V30 BEGIN CTAB
M  V30 COUNTS 40 41 0 0 0
M  V30 BEGIN ATOM
M  V30 1 S 5.854 -0.0811 0.4868 0
M  V30 2 O 6.2686 0.6137 -0.7797 0
M  V30 3 O 6.5244 -1.4252 0.5395 0
M  V30 4 N 6.3459 0.8619 1.8491 0
M  V30 5 C 4.1051 -0.2855 0.5094 0
M  V30 6 C 3.2779 0.6533 -0.1174 0
M  V30 7 C 3.5312 -1.3728 1.1774 0
M  V30 8 C 1.8883 0.5016 -0.0897 0
M  V30 9 C 2.1427 -1.5277 1.2063 0
M  V30 10 C 1.3025 -0.5974 0.5719 0
M  V30 11 N -0.1261 -0.7962 0.6312 0
M  V30 12 C -1.1344 0.0349 -0.0354 0 CFG=2
M  V30 13 O -2.3543 -0.0836 0.6815 0
M  V30 14 C -1.3283 -0.4504 -1.4909 0 CFG=2
M  V30 15 C -3.3405 0.782 0.1428 0 CFG=1
M  V30 16 O -0.1308 -0.3209 -2.2118 0
M  V30 17 C -2.4541 0.3539 -2.1766 0 CFG=1
M  V30 18 C -3.7161 0.351 -1.2949 0 CFG=1
M  V30 19 C -4.5611 0.8021 1.0735 0
M  V30 20 O -2.0457 1.6815 -2.3974 0
M  V30 21 O -4.2827 -0.9353 -1.2811 0
M  V30 22 O -5.0124 -0.4998 1.3288 0
M  V30 23 H 6.002 0.3672 2.7026 0
M  V30 24 H 5.8271 1.7672 1.7967 0
M  V30 25 H 3.7078 1.5064 -0.6269 0
M  V30 26 H 4.157 -2.1001 1.6789 0
M  V30 27 H 1.2914 1.2474 -0.5919 0
M  V30 28 H 1.7198 -2.3776 1.7272 0
M  V30 29 H -0.4794 -1.6201 1.1703 0
M  V30 30 H -0.804 1.0965 -0.0129 0
M  V30 31 H -1.6239 -1.5259 -1.4573 0
M  V30 32 H -2.9616 1.8311 0.1154 0
M  V30 33 H -0.2306 -0.8694 -3.0332 0
M  V30 34 H -2.7045 -0.1261 -3.1523 0
M  V30 35 H -4.4515 1.0815 -1.708 0
M  V30 36 H -5.3763 1.4051 0.6136 0
M  V30 37 H -4.2711 1.2848 2.0338 0
M  V30 38 H -1.4997 1.6835 -3.2264 0
M  V30 39 H -4.7679 -1.0448 -2.1404 0
M  V30 40 H -5.8007 -0.406 1.9247 0
M  V30 END ATOM
M  V30 BEGIN BOND
M  V30 1 2 1 2
M  V30 2 2 1 3
M  V30 3 1 1 4
M  V30 4 1 1 5
M  V30 5 2 5 6
M  V30 6 1 5 7
M  V30 7 1 6 8
M  V30 8 2 7 9
M  V30 9 2 8 10
M  V30 10 1 10 11
M  V30 11 1 11 12
M  V30 12 1 12 13
M  V30 13 1 12 14
M  V30 14 1 13 15
M  V30 15 1 14 16
M  V30 16 1 14 17
M  V30 17 1 15 18
M  V30 18 1 15 19
M  V30 19 1 17 20
M  V30 20 1 18 21
M  V30 21 1 19 22
M  V30 22 1 9 10
M  V30 23 1 17 18
M  V30 24 1 4 23
M  V30 25 1 4 24
M  V30 26 1 6 25
M  V30 27 1 7 26
M  V30 28 1 8 27
M  V30 29 1 9 28
M  V30 30 1 11 29
M  V30 31 1 12 30
M  V30 32 1 14 31
M  V30 33 1 15 32
M  V30 34 1 16 33
M  V30 35 1 17 34
M  V30 36 1 18 35
M  V30 37 1 19 36
M  V30 38 1 19 37
M  V30 39 1 20 38
M  V30 40 1 21 39
M  V30 41 1 22 40
M  V30 END BOND
M  V30 BEGIN COLLECTION
M  V30 MDLV30/STEABS ATOMS=(5 12 14 15 17 18)
M  V30 END COLLECTION
M  V30 END CTAB
M  END
>  <Structure No>
4994

>  <LogS>
-0.9801

>  <MMFF94 Energy>
25.453

$$$$
Compound 4995
Actelion Java MolfileCreator 2.0

  0  0  0  0  0  0              0 V3000
M  V30 BEGIN CTAB
M  V30 COUNTS 28 28 0 0 0
M  V30 BEGIN ATOM
M  V30 1 Cl -3.2831 -2.9544 -2.3794 0
M  V30 2 C -2.51 -1.6288 -1.5293 0
M  V30 3 C -3.0111 -0.3305 -1.6543 0
M  V30 4 C -1.3933 -1.8711 -0.7275 0
M  V30 5 C -2.3973 0.7364 -0.9767 0
M  V30 6 C -0.7744 -0.8185 -0.0499 0
M  V30 7 C -1.267 0.4963 -0.1694 0
M  V30 8 C -2.9381 2.1312 -1.1222 0
M  V30 9 O -0.6656 1.583 0.4917 0
M  V30 10 C 0.5095 1.516 1.3022 0
M  V30 11 C 1.7438 1.2965 0.4724 0
M  V30 12 S 3.3261 1.0204 1.278 0
M  V30 13 O 1.6969 1.3702 -0.7456 0
M  V30 14 C 3.1533 -0.7946 1.3996 0
M  V30 15 C 3.3557 -1.4653 0.0461 0
M  V30 16 H -3.8778 -0.1548 -2.2799 0
M  V30 17 H -1.0028 -2.8758 -0.628 0
M  V30 18 H 0.0863 -1.0402 0.5619 0
M  V30 19 H -2.1668 2.7839 -1.5827 0
M  V30 20 H -3.8453 2.155 -1.7626 0
M  V30 21 H -3.2069 2.5349 -0.1232 0
M  V30 22 H 0.6206 2.4818 1.837 0
M  V30 23 H 0.4042 0.7198 2.0689 0
M  V30 24 H 2.1617 -1.0649 1.8184 0
M  V30 25 H 3.9296 -1.1664 2.1008 0
M  V30 26 H 2.5424 -1.1852 -0.6544 0
M  V30 27 H 4.3341 -1.1675 -0.3863 0
M  V30 28 H 3.3424 -2.568 0.1737 0
M  V30 END ATOM
M  V30 BEGIN BOND
M  V30 1 1 1 2
M  V30 2 2 2 3
M  V30 3 1 2 4
M  V30 4 1 3 5
M  V30 5 2 4 6
M  V30 6 2 5 7
M  V30 7 1 5 8
M  V30 8 1 7 9
M  V30 9 1 9 10
M  V30 10 1 10 11
M  V30 11 1 11 12
M  V30 12 2 11 13
M  V30 13 1 12 14
M  V30 14 1 14 15
M  V30 15 1 6 7
M  V30 16 1 3 16
M  V30 17 1 4 17
M  V30 18 1 6 18
M  V30 19 1 8 19
M  V30 20 1 8 20
M  V30 21 1 8 21
M  V30 22 1 10 22
M  V30 23 1 10 23
M  V30 24 1 14 24
M  V30 25 1 14 25
M  V30 26 1 15 26
M  V30 27 1 15 27
M  V30 28 1 15 28
M  V30 END BOND
M  V30 END CTAB
M  END
>  <Structure No>
4995

>  <LogS>
-5.027

>  <MMFF94 Energy>
38.013

$$$$
Compound 4996
Actelion Java MolfileCreator 2.0

  0  0  0  0  0  0              0 V3000
M  V30 BEGIN CTAB
M  V30 COUNTS 21 21 0 0 0
M  V30 BEGIN ATOM
M  V30 1 O 1.661 -1.4236 1.2653 0
M  V30 2 C 1.9863 -0.4109 0.5882 0
M  V30 3 C 0.9623 0.316 -0.1957 0
M  V30 4 C 3.4212 0.0186 0.5667 0
M  V30 5 N 1.3394 1.2718 -0.9925 0
M  V30 6 C -0.4707 -0.0456 -0.0646 0
M  V30 7 O 0.446 2.0175 -1.7284 0
M  V30 8 C -1.2381 -0.3461 -1.2037 0
M  V30 9 C -1.0738 -0.1046 1.2036 0
M  V30 10 C -2.5867 -0.6929 -1.0744 0
M  V30 11 C -2.4227 -0.4514 1.3282 0
M  V30 12 C -3.1788 -0.7446 0.1903 0
M  V30 13 H 4.0199 -0.5841 1.2824 0
M  V30 14 H 3.8371 -0.1195 -0.453 0
M  V30 15 H 3.4983 1.0885 0.8539 0
M  V30 16 H 0.7816 2.7522 -2.338 0
M  V30 17 H -0.7901 -0.3249 -2.1894 0
M  V30 18 H -0.5031 0.1282 2.0943 0
M  V30 19 H -3.1721 -0.9247 -1.9547 0
M  V30 20 H -2.8825 -0.4914 2.3073 0
M  V30 21 H -4.2226 -1.0134 0.2885 0
M  V30 END ATOM
M  V30 BEGIN BOND
M  V30 1 2 1 2
M  V30 2 1 2 3
M  V30 3 1 2 4
M  V30 4 2 3 5
M  V30 5 1 3 6
M  V30 6 1 5 7
M  V30 7 2 6 8
M  V30 8 1 6 9
M  V30 9 1 8 10
M  V30 10 2 9 11
M  V30 11 2 10 12
M  V30 12 1 11 12
M  V30 13 1 4 13
M  V30 14 1 4 14
M  V30 15 1 4 15
M  V30 16 1 7 16
M  V30 17 1 8 17
M  V30 18 1 9 18
M  V30 19 1 10 19
M  V30 20 1 11 20
M  V30 21 1 12 21
M  V30 END BOND
M  V30 END CTAB
M  END
>  <Structure No>
4996

>  <LogS>
-2.3676

>  <MMFF94 Energy>
80.79

$$$$
Compound 4997
Actelion Java MolfileCreator 2.0

  0  0  0  0  0  0              0 V3000
M  V30 BEGIN CTAB
M  V30 COUNTS 22 22 0 0 0
M  V30 BEGIN ATOM
M  V30 1 S 1.6637 0.9148 0.1662 0
M  V30 2 C 0.8063 -0.5236 0.3931 0
M  V30 3 C 3.1292 0.1129 0.3874 0
M  V30 4 N 1.6501 -1.5613 0.597 0
M  V30 5 N -0.6266 -0.6706 0.3158 0
M  V30 6 N 2.9349 -1.2093 0.5897 0
M  V30 7 C 4.4778 0.7419 0.256 0
M  V30 8 C -1.4861 0.4794 0.1928 0
M  V30 9 C -1.2062 -2.0153 0.2551 0
M  V30 10 F 5.4207 -0.0148 0.9275 0
M  V30 11 F 4.821 0.8153 -1.0806 0
M  V30 12 F 4.4581 2.0159 0.793 0
M  V30 13 O -1.2096 1.5394 0.8185 0
M  V30 14 N -2.6641 0.4251 -0.6251 0
M  V30 15 C -3.5951 1.5439 -0.7026 0
M  V30 16 H -1.1512 -2.3987 -0.7851 0
M  V30 17 H -2.2665 -2.0025 0.5872 0
M  V30 18 H -0.661 -2.7078 0.9306 0
M  V30 19 H -2.8543 -0.4214 -1.2065 0
M  V30 20 H -4.0178 1.7518 0.3028 0
M  V30 21 H -3.0694 2.4465 -1.0792 0
M  V30 22 H -4.4256 1.2967 -1.3971 0
M  V30 END ATOM
M  V30 BEGIN BOND
M  V30 1 1 1 2
M  V30 2 1 1 3
M  V30 3 2 2 4
M  V30 4 1 2 5
M  V30 5 2 3 6
M  V30 6 1 3 7
M  V30 7 1 5 8
M  V30 8 1 5 9
M  V30 9 1 7 10
M  V30 10 1 7 11
M  V30 11 1 7 12
M  V30 12 2 8 13
M  V30 13 1 8 14
M  V30 14 1 14 15
M  V30 15 1 4 6
M  V30 16 1 9 16
M  V30 17 1 9 17
M  V30 18 1 9 18
M  V30 19 1 14 19
M  V30 20 1 15 20
M  V30 21 1 15 21
M  V30 22 1 15 22
M  V30 END BOND
M  V30 END CTAB
M  END
>  <Structure No>
4997

>  <LogS>
-2.0584

>  <MMFF94 Energy>
-47.616

$$$$
Compound 4998
Actelion Java MolfileCreator 2.0

  0  0  0  0  0  0              0 V3000
M  V30 BEGIN CTAB
M  V30 COUNTS 19 19 0 0 0
M  V30 BEGIN ATOM
M  V30 1 O 4.4765 -0.2394 0.0 0
M  V30 2 C 3.8231 0.8236 0.1755 0
M  V30 3 O 4.5048 2.02 0.3559 0 CHG=-1
M  V30 4 C 2.3503 0.8206 0.1929 0
M  V30 5 C 1.6362 -0.3028 0.0245 0
M  V30 6 C 0.1495 -0.375 0.0311 0
M  V30 7 C -0.6818 0.7513 0.2187 0
M  V30 8 C -0.4532 -1.6316 -0.1596 0
M  V30 9 C -2.0754 0.6161 0.2143 0
M  V30 10 C -1.8441 -1.7633 -0.1635 0
M  V30 11 O -2.875 1.7417 0.4014 0
M  V30 12 C -2.6547 -0.6434 0.0228 0
M  V30 13 H 1.8699 1.7735 0.3489 0
M  V30 14 H 2.1714 -1.2331 -0.1286 0
M  V30 15 H -0.2755 1.7395 0.3696 0
M  V30 16 H 0.1543 -2.5164 -0.3063 0
M  V30 17 H -2.2941 -2.7366 -0.3114 0
M  V30 18 H -3.8864 1.6787 0.4038 0
M  V30 19 H -3.7315 -0.7547 0.0183 0
M  V30 END ATOM
M  V30 BEGIN BOND
M  V30 1 2 1 2
M  V30 2 1 2 3
M  V30 3 1 2 4
M  V30 4 2 4 5
M  V30 5 1 5 6
M  V30 6 2 6 7
M  V30 7 1 6 8
M  V30 8 1 7 9
M  V30 9 2 8 10
M  V30 10 1 9 11
M  V30 11 2 9 12
M  V30 12 1 10 12
M  V30 13 1 4 13
M  V30 14 1 5 14
M  V30 15 1 7 15
M  V30 16 1 8 16
M  V30 17 1 10 17
M  V30 18 1 11 18
M  V30 19 1 12 19
M  V30 END BOND
M  V30 END CTAB
M  END
>  <Structure No>
4998

>  <LogS>
-2.099

>  <MMFF94 Energy>
-2.495

$$$$
Compound 4999
Actelion Java MolfileCreator 2.0

  0  0  0  0  0  0              0 V3000
M  V30 BEGIN CTAB
M  V30 COUNTS 36 35 0 0 0
M  V30 BEGIN ATOM
M  V30 1 O 1.7082 0.7761 0.0 0
M  V30 2 C 1.0362 0.1974 1.1072 0 CFG=2
M  V30 3 C 2.8822 0.0585 -0.3443 0 CFG=2
M  V30 4 C 0.0159 -0.8429 0.62 0
M  V30 5 C 0.3349 1.3123 1.8853 0
M  V30 6 C 4.0981 0.7259 0.3184 0
M  V30 7 C 3.0154 0.0689 -1.868 0
M  V30 8 O -0.8428 -0.2575 -0.3385 0
M  V30 9 O 5.2605 -0.029 0.0995 0
M  V30 10 C -1.9007 -1.1385 -0.6764 0 CFG=1
M  V30 11 C -3.1498 -0.7921 0.1484 0
M  V30 12 C -2.1854 -1.0027 -2.1732 0
M  V30 13 O -3.4705 0.5746 -0.0146 0
M  V30 14 C -4.6029 0.8858 0.7649 0
M  V30 15 H 1.738 -0.2931 1.8238 0
M  V30 16 H 2.8442 -1.0129 -0.0332 0
M  V30 17 H -0.5533 -1.2253 1.4982 0
M  V30 18 H 0.5647 -1.6954 0.1616 0
M  V30 19 H -0.3899 1.8491 1.2362 0
M  V30 20 H -0.2041 0.8939 2.7621 0
M  V30 21 H 1.0879 2.0417 2.2523 0
M  V30 22 H 3.9279 0.784 1.4141 0
M  V30 23 H 4.2201 1.7715 -0.0502 0
M  V30 24 H 3.1243 1.109 -2.2436 0
M  V30 25 H 3.8937 -0.5301 -2.1889 0
M  V30 26 H 2.1065 -0.3787 -2.3238 0
M  V30 27 H 5.6866 0.3282 -0.7226 0
M  V30 28 H -1.648 -2.2127 -0.499 0
M  V30 29 H -3.993 -1.4402 -0.1852 0
M  V30 30 H -2.9357 -1.0182 1.2179 0
M  V30 31 H -1.2799 -1.2844 -2.7517 0
M  V30 32 H -2.4558 0.044 -2.429 0
M  V30 33 H -3.0165 -1.6767 -2.4728 0
M  V30 34 H -4.4011 0.7299 1.8482 0
M  V30 35 H -5.4889 0.2936 0.4446 0
M  V30 36 H -4.847 1.9584 0.6208 0
M  V30 END ATOM
M  V30 BEGIN BOND
M  V30 1 1 1 2
M  V30 2 1 1 3
M  V30 3 1 2 4
M  V30 4 1 2 5
M  V30 5 1 3 6
M  V30 6 1 3 7
M  V30 7 1 4 8
M  V30 8 1 6 9
M  V30 9 1 8 10
M  V30 10 1 10 11
M  V30 11 1 10 12
M  V30 12 1 11 13
M  V30 13 1 13 14
M  V30 14 1 2 15
M  V30 15 1 3 16
M  V30 16 1 4 17
M  V30 17 1 4 18
M  V30 18 1 5 19
M  V30 19 1 5 20
M  V30 20 1 5 21
M  V30 21 1 6 22
M  V30 22 1 6 23
M  V30 23 1 7 24
M  V30 24 1 7 25
M  V30 25 1 7 26
M  V30 26 1 9 27
M  V30 27 1 10 28
M  V30 28 1 11 29
M  V30 29 1 11 30
M  V30 30 1 12 31
M  V30 31 1 12 32
M  V30 32 1 12 33
M  V30 33 1 14 34
M  V30 34 1 14 35
M  V30 35 1 14 36
M  V30 END BOND
M  V30 BEGIN COLLECTION
M  V30 MDLV30/STEABS ATOMS=(3 2 3 10)
M  V30 END COLLECTION
M  V30 END CTAB
M  END
>  <Structure No>
4999

>  <LogS>
0.6855

>  <MMFF94 Energy>
76.461

$$$$
Compound 5000
Actelion Java MolfileCreator 2.0

  0  0  0  0  0  0              0 V3000
M  V30 BEGIN CTAB
M  V30 COUNTS 22 23 0 0 0
M  V30 BEGIN ATOM
M  V30 1 S 3.2417 -0.4982 1.3289 0
M  V30 2 C 1.6252 -0.5775 0.5461 0
M  V30 3 C 3.8354 0.8391 0.247 0
M  V30 4 C 0.5161 0.2617 1.052 0
M  V30 5 C 1.4355 -1.4091 -0.4858 0
M  V30 6 O 0.7105 1.0315 2.0317 0
M  V30 7 C -0.8154 0.1936 0.4042 0
M  V30 8 C 0.1266 -1.5086 -1.1562 0
M  V30 9 C -1.0076 -0.6804 -0.6863 0
M  V30 10 C -1.8863 0.9834 0.8578 0
M  V30 11 O -0.0123 -2.3009 -2.1265 0
M  V30 12 C -2.267 -0.7513 -1.3067 0
M  V30 13 C -3.1336 0.9041 0.2327 0
M  V30 14 C -3.3235 0.039 -0.8465 0
M  V30 15 H 4.8741 1.1027 0.5333 0
M  V30 16 H 3.8277 0.5048 -0.8115 0
M  V30 17 H 3.1917 1.7364 0.3612 0
M  V30 18 H 2.2556 -2.0208 -0.8422 0
M  V30 19 H -1.7601 1.6608 1.6931 0
M  V30 20 H -2.4344 -1.4159 -2.145 0
M  V30 21 H -3.9547 1.5147 0.5859 0
M  V30 22 H -4.2913 -0.0193 -1.3277 0
M  V30 END ATOM
M  V30 BEGIN BOND
M  V30 1 1 1 2
M  V30 2 1 1 3
M  V30 3 1 2 4
M  V30 4 2 2 5
M  V30 5 2 4 6
M  V30 6 1 4 7
M  V30 7 1 5 8
M  V30 8 2 7 9
M  V30 9 1 7 10
M  V30 10 2 8 11
M  V30 11 1 9 12
M  V30 12 2 10 13
M  V30 13 2 12 14
M  V30 14 1 8 9
M  V30 15 1 13 14
M  V30 16 1 3 15
M  V30 17 1 3 16
M  V30 18 1 3 17
M  V30 19 1 5 18
M  V30 20 1 10 19
M  V30 21 1 12 20
M  V30 22 1 13 21
M  V30 23 1 14 22
M  V30 END BOND
M  V30 END CTAB
M  END
>  <Structure No>
5000

>  <LogS>
-4.4651

>  <MMFF94 Energy>
46.299

$$$$
Compound 5001
Actelion Java MolfileCreator 2.0

  0  0  0  0  0  0              0 V3000
M  V30 BEGIN CTAB
M  V30 COUNTS 40 41 0 0 0
M  V30 BEGIN ATOM
M  V30 1 F 5.8014 0.0815 1.2235 0
M  V30 2 C 5.0723 1.1978 0.8506 0
M  V30 3 F 5.6947 1.7729 -0.2436 0
M  V30 4 F 5.0708 2.1031 1.8952 0
M  V30 5 C 3.6486 0.8256 0.5147 0
M  V30 6 C 3.0435 -0.2891 1.1072 0
M  V30 7 C 2.8915 1.6382 -0.3372 0
M  V30 8 C 1.7024 -0.6085 0.8506 0
M  V30 9 C 1.5589 1.3255 -0.6447 0
M  V30 10 N 1.1397 -1.7698 1.482 0 CHG=1
M  V30 11 C 0.9393 0.2097 -0.0204 0
M  V30 12 N 0.8712 2.1295 -1.6199 0 CHG=1
M  V30 13 O -0.0054 -1.7325 1.9726 0
M  V30 14 O 1.9317 -2.8664 1.7327 0 CHG=-1
M  V30 15 N -0.4405 -0.1145 -0.2969 0
M  V30 16 O 0.0906 1.6053 -2.4401 0
M  V30 17 O 1.2013 3.4561 -1.7763 0 CHG=-1
M  V30 18 C -0.7308 -1.2097 -1.2346 0
M  V30 19 C -1.5023 0.8311 0.0915 0
M  V30 20 C -1.8466 -2.1208 -0.6997 0
M  V30 21 C -1.875 0.6565 1.5651 0
M  V30 22 C -3.2316 -1.9212 -1.2988 0
M  V30 23 C -2.384 -3.1082 -1.725 0
M  V30 24 C -2.9526 1.6519 1.9842 0
M  V30 25 H 3.6109 -0.9049 1.7939 0
M  V30 26 H 3.3535 2.5044 -0.7944 0
M  V30 27 H 0.1753 -1.8379 -1.3786 0
M  V30 28 H -0.9922 -0.7825 -2.2268 0
M  V30 29 H -1.1704 1.8769 -0.0751 0
M  V30 30 H -2.4064 0.6766 -0.5353 0
M  V30 31 H -1.804 -2.5278 0.331 0
M  V30 32 H -2.2579 -0.3725 1.7321 0
M  V30 33 H -0.9753 0.8132 2.1986 0
M  V30 34 H -3.3254 -1.1326 -2.0755 0
M  V30 35 H -4.0664 -2.1836 -0.6154 0
M  V30 36 H -2.7254 -4.0763 -1.3019 0
M  V30 37 H -1.9761 -3.0204 -2.755 0
M  V30 38 H -2.5891 2.6931 1.8518 0
M  V30 39 H -3.2043 1.4977 3.0547 0
M  V30 40 H -3.8717 1.5034 1.3783 0
M  V30 END ATOM
M  V30 BEGIN BOND
M  V30 1 1 1 2
M  V30 2 1 2 3
M  V30 3 1 2 4
M  V30 4 1 2 5
M  V30 5 2 5 6
M  V30 6 1 5 7
M  V30 7 1 6 8
M  V30 8 2 7 9
M  V30 9 1 8 10
M  V30 10 2 8 11
M  V30 11 1 9 12
M  V30 12 2 10 13
M  V30 13 1 10 14
M  V30 14 1 11 15
M  V30 15 2 12 16
M  V30 16 1 12 17
M  V30 17 1 15 18
M  V30 18 1 15 19
M  V30 19 1 18 20
M  V30 20 1 19 21
M  V30 21 1 20 22
M  V30 22 1 20 23
M  V30 23 1 21 24
M  V30 24 1 9 11
M  V30 25 1 22 23
M  V30 26 1 6 25
M  V30 27 1 7 26
M  V30 28 1 18 27
M  V30 29 1 18 28
M  V30 30 1 19 29
M  V30 31 1 19 30
M  V30 32 1 20 31
M  V30 33 1 21 32
M  V30 34 1 21 33
M  V30 35 1 22 34
M  V30 36 1 22 35
M  V30 37 1 23 36
M  V30 38 1 23 37
M  V30 39 1 24 38
M  V30 40 1 24 39
M  V30 41 1 24 40
M  V30 END BOND
M  V30 END CTAB
M  END
>  <Structure No>
5001

>  <LogS>
-6.5407

>  <MMFF94 Energy>
155.04

$$$$
Compound 5002
Actelion Java MolfileCreator 2.0

  0  0  0  0  0  0              0 V3000
M  V30 BEGIN CTAB
M  V30 COUNTS 28 28 0 0 0
M  V30 BEGIN ATOM
M  V30 1 S -2.0691 -0.4963 1.4067 0
M  V30 2 C -1.4238 -1.5398 0.0413 0 CFG=1
M  V30 3 C -2.9708 0.6774 0.3493 0 CFG=2
M  V30 4 S -1.8801 -0.8664 -1.5974 0
M  V30 5 C 0.0751 -1.5941 0.1404 0
M  V30 6 C -2.0125 -2.947 0.1798 0
M  V30 7 C -3.3389 -0.0107 -0.9549 0
M  V30 8 C -2.127 1.935 0.1226 0
M  V30 9 N 0.775 -0.5085 0.0588 0
M  V30 10 O 2.148 -0.5491 0.1497 0
M  V30 11 C 2.9051 0.6175 0.0645 0
M  V30 12 O 2.3369 1.7323 -0.0975 0
M  V30 13 N 4.3299 0.5399 0.1624 0
M  V30 14 C 5.174 1.7251 0.0807 0
M  V30 15 H -3.9043 0.975 0.874 0
M  V30 16 H 0.5794 -2.5438 0.2826 0
M  V30 17 H -3.1209 -2.9106 0.1164 0
M  V30 18 H -1.7329 -3.391 1.1596 0
M  V30 19 H -1.6357 -3.6082 -0.63 0
M  V30 20 H -4.1422 -0.756 -0.7718 0
M  V30 21 H -3.7075 0.7216 -1.7041 0
M  V30 22 H -2.6835 2.661 -0.5071 0
M  V30 23 H -1.1661 1.6876 -0.3756 0
M  V30 24 H -1.9051 2.419 1.0973 0
M  V30 25 H 4.777 -0.3945 0.2965 0
M  V30 26 H 6.2412 1.4354 0.1803 0
M  V30 27 H 4.9148 2.4292 0.8992 0
M  V30 28 H 5.0273 2.2249 -0.8998 0
M  V30 END ATOM
M  V30 BEGIN BOND
M  V30 1 1 1 2
M  V30 2 1 1 3
M  V30 3 1 2 4
M  V30 4 1 2 5
M  V30 5 1 2 6
M  V30 6 1 3 7
M  V30 7 1 3 8
M  V30 8 2 5 9
M  V30 9 1 9 10
M  V30 10 1 10 11
M  V30 11 2 11 12
M  V30 12 1 11 13
M  V30 13 1 13 14
M  V30 14 1 4 7
M  V30 15 1 3 15
M  V30 16 1 5 16
M  V30 17 1 6 17
M  V30 18 1 6 18
M  V30 19 1 6 19
M  V30 20 1 7 20
M  V30 21 1 7 21
M  V30 22 1 8 22
M  V30 23 1 8 23
M  V30 24 1 8 24
M  V30 25 1 13 25
M  V30 26 1 14 26
M  V30 27 1 14 27
M  V30 28 1 14 28
M  V30 END BOND
M  V30 BEGIN COLLECTION
M  V30 MDLV30/STEABS ATOMS=(2 2 3)
M  V30 END COLLECTION
M  V30 END CTAB
M  END
>  <Structure No>
5002

>  <LogS>
-2.3698

>  <MMFF94 Energy>
36.769

$$$$
Compound 5003
Actelion Java MolfileCreator 2.0

  0  0  0  0  0  0              0 V3000
M  V30 BEGIN CTAB
M  V30 COUNTS 33 33 0 0 0
M  V30 BEGIN ATOM
M  V30 1 S 3.1871 -0.1591 1.8316 0
M  V30 2 N 3.3891 -0.2443 0.1865 0
M  V30 3 C 4.008 1.2663 2.1379 0
M  V30 4 C 4.1061 0.8533 -0.1651 0
M  V30 5 C 2.8566 -1.2836 -0.6928 0
M  V30 6 C 4.4644 1.7077 0.8971 0
M  V30 7 O 4.4292 1.0912 -1.3593 0
M  V30 8 C 1.625 -0.7864 -1.4606 0
M  V30 9 C 0.4526 -0.4589 -0.5253 0
M  V30 10 C -0.7961 -0.0642 -1.3281 0
M  V30 11 C -1.9474 0.4245 -0.4341 0
M  V30 12 C -2.6113 -0.7187 0.3526 0
M  V30 13 C -3.7716 -0.2298 1.2341 0
M  V30 14 C -5.0131 0.1471 0.4256 0
M  V30 15 H 4.1538 1.7483 3.0949 0
M  V30 16 H 2.5921 -2.1837 -0.0964 0
M  V30 17 H 3.6413 -1.5853 -1.4197 0
M  V30 18 H 5.0355 2.6175 0.7661 0
M  V30 19 H 1.314 -1.5824 -2.172 0
M  V30 20 H 1.8963 0.1142 -2.0533 0
M  V30 21 H 0.7382 0.383 0.1417 0
M  V30 22 H 0.2314 -1.3502 0.099 0
M  V30 23 H -0.5276 0.7629 -2.0219 0
M  V30 24 H -1.1372 -0.9236 -1.9461 0
M  V30 25 H -1.5755 1.2036 0.267 0
M  V30 26 H -2.7032 0.8996 -1.0944 0
M  V30 27 H -2.9747 -1.5029 -0.3472 0
M  V30 28 H -1.8595 -1.1861 1.0222 0
M  V30 29 H -3.4477 0.6388 1.8478 0
M  V30 30 H -4.0499 -1.0484 1.933 0
M  V30 31 H -4.8249 1.0511 -0.1891 0
M  V30 32 H -5.8502 0.3718 1.1198 0
M  V30 33 H -5.3184 -0.6929 -0.2337 0
M  V30 END ATOM
M  V30 BEGIN BOND
M  V30 1 1 1 2
M  V30 2 1 1 3
M  V30 3 1 2 4
M  V30 4 1 2 5
M  V30 5 2 3 6
M  V30 6 2 4 7
M  V30 7 1 5 8
M  V30 8 1 8 9
M  V30 9 1 9 10
M  V30 10 1 10 11
M  V30 11 1 11 12
M  V30 12 1 12 13
M  V30 13 1 13 14
M  V30 14 1 4 6
M  V30 15 1 3 15
M  V30 16 1 5 16
M  V30 17 1 5 17
M  V30 18 1 6 18
M  V30 19 1 8 19
M  V30 20 1 8 20
M  V30 21 1 9 21
M  V30 22 1 9 22
M  V30 23 1 10 23
M  V30 24 1 10 24
M  V30 25 1 11 25
M  V30 26 1 11 26
M  V30 27 1 12 27
M  V30 28 1 12 28
M  V30 29 1 13 29
M  V30 30 1 13 30
M  V30 31 1 14 31
M  V30 32 1 14 32
M  V30 33 1 14 33
M  V30 END BOND
M  V30 END CTAB
M  END
>  <Structure No>
5003

>  <LogS>
-2.6301

>  <MMFF94 Energy>
-17.114

$$$$
Compound 5004
Actelion Java MolfileCreator 2.0

  0  0  0  0  0  0              0 V3000
M  V30 BEGIN CTAB
M  V30 COUNTS 22 23 0 0 0
M  V30 BEGIN ATOM
M  V30 1 Cl 5.2487 0.0903 0.5421 0
M  V30 2 C 3.4925 0.0637 0.3626 0
M  V30 3 C 2.6969 0.9535 1.1051 0
M  V30 4 C 2.8907 -0.8474 -0.5225 0
M  V30 5 Cl 3.4542 2.0969 2.2169 0
M  V30 6 C 1.2987 0.9331 0.9635 0
M  V30 7 Cl 3.8912 -1.9644 -1.4539 0
M  V30 8 C 1.4927 -0.8699 -0.6659 0
M  V30 9 Cl 0.301 2.0517 1.9004 0
M  V30 10 C 0.6942 0.02 0.078 0
M  V30 11 Cl 0.739 -2.0181 -1.7785 0
M  V30 12 C -0.7762 -0.0048 -0.0691 0
M  V30 13 C -1.5749 -0.8318 0.7457 0
M  V30 14 C -1.3842 0.8092 -1.0371 0
M  V30 15 Cl -0.8606 -1.8705 1.9738 0
M  V30 16 C -2.9656 -0.834 0.5827 0
M  V30 17 C -2.7729 0.8005 -1.1925 0
M  V30 18 C -3.5626 -0.02 -0.3837 0
M  V30 19 H -0.7815 1.4496 -1.6696 0
M  V30 20 H -3.5853 -1.4668 1.2053 0
M  V30 21 H -3.2372 1.4302 -1.9404 0
M  V30 22 H -4.6381 -0.0254 -0.5056 0
M  V30 END ATOM
M  V30 BEGIN BOND
M  V30 1 1 1 2
M  V30 2 2 2 3
M  V30 3 1 2 4
M  V30 4 1 3 5
M  V30 5 1 3 6
M  V30 6 1 4 7
M  V30 7 2 4 8
M  V30 8 1 6 9
M  V30 9 2 6 10
M  V30 10 1 8 11
M  V30 11 1 10 12
M  V30 12 2 12 13
M  V30 13 1 12 14
M  V30 14 1 13 15
M  V30 15 1 13 16
M  V30 16 2 14 17
M  V30 17 2 16 18
M  V30 18 1 8 10
M  V30 19 1 17 18
M  V30 20 1 14 19
M  V30 21 1 16 20
M  V30 22 1 17 21
M  V30 23 1 18 22
M  V30 END BOND
M  V30 END CTAB
M  END
>  <Structure No>
5004

>  <LogS>
-8.0133

>  <MMFF94 Energy>
60.731

$$$$
Compound 5005
Actelion Java MolfileCreator 2.0

  0  0  0  0  0  0              0 V3000
M  V30 BEGIN CTAB
M  V30 COUNTS 26 26 0 0 0
M  V30 BEGIN ATOM
M  V30 1 O -4.0743 0.8777 -0.7978 0
M  V30 2 C -3.2258 1.4932 -0.1002 0
M  V30 3 O -2.9527 2.8284 -0.3684 0 CHG=-1
M  V30 4 C -2.4763 0.7782 0.9781 0
M  V30 5 C -1.1894 0.2087 0.4276 0
M  V30 6 C -1.2336 -1.0836 -0.3083 0
M  V30 7 C -0.0703 0.9615 0.4976 0
M  V30 8 O -0.5454 -1.2382 -1.3534 0
M  V30 9 C -2.1464 -2.1893 0.121 0
M  V30 10 C 1.2807 0.5226 0.0835 0
M  V30 11 C 2.1084 1.418 -0.6113 0
M  V30 12 C 1.7871 -0.7383 0.449 0
M  V30 13 C 3.4041 1.0416 -0.9788 0
M  V30 14 C 3.0832 -1.1109 0.0797 0
M  V30 15 C 3.8894 -0.2233 -0.6376 0
M  V30 16 H -3.1131 -0.0237 1.4063 0
M  V30 17 H -2.2714 1.4862 1.8109 0
M  V30 18 H -0.1446 1.9692 0.8914 0
M  V30 19 H -3.1806 -1.9744 -0.2195 0
M  V30 20 H -1.8165 -3.1539 -0.3195 0
M  V30 21 H -2.1315 -2.288 1.2268 0
M  V30 22 H 1.747 2.404 -0.8776 0
M  V30 23 H 1.1866 -1.4272 1.0297 0
M  V30 24 H 4.0331 1.7324 -1.5251 0
M  V30 25 H 3.4655 -2.0845 0.3572 0
M  V30 26 H 4.8931 -0.5124 -0.9211 0
M  V30 END ATOM
M  V30 BEGIN BOND
M  V30 1 2 1 2
M  V30 2 1 2 3
M  V30 3 1 2 4
M  V30 4 1 4 5
M  V30 5 1 5 6
M  V30 6 2 5 7
M  V30 7 2 6 8
M  V30 8 1 6 9
M  V30 9 1 7 10
M  V30 10 2 10 11
M  V30 11 1 10 12
M  V30 12 1 11 13
M  V30 13 2 12 14
M  V30 14 2 13 15
M  V30 15 1 14 15
M  V30 16 1 4 16
M  V30 17 1 4 17
M  V30 18 1 7 18
M  V30 19 1 9 19
M  V30 20 1 9 20
M  V30 21 1 9 21
M  V30 22 1 11 22
M  V30 23 1 12 23
M  V30 24 1 13 24
M  V30 25 1 14 25
M  V30 26 1 15 26
M  V30 END BOND
M  V30 END CTAB
M  END
>  <Structure No>
5005

>  <LogS>
-1.6111

>  <MMFF94 Energy>
48.153

$$$$
Compound 5006
Actelion Java MolfileCreator 2.0

  0  0  0  0  0  0              0 V3000
M  V30 BEGIN CTAB
M  V30 COUNTS 46 45 0 0 0
M  V30 BEGIN ATOM
M  V30 1 O -5.1048 1.7255 -2.275 0
M  V30 2 C -5.3168 1.8308 -1.0361 0
M  V30 3 O -4.2533 1.8778 -0.128 0
M  V30 4 C -6.723 1.8736 -0.5239 0
M  V30 5 C -2.8891 1.7152 -0.5085 0
M  V30 6 C -7.3502 0.4745 -0.4761 0
M  V30 7 C -2.5789 0.2405 -0.771 0
M  V30 8 C -6.6794 -0.427 0.56 0
M  V30 9 O -1.2303 0.0888 -1.172 0
M  V30 10 C -0.4242 -0.2813 -0.0727 0
M  V30 11 C 1.0364 -0.3205 -0.5148 0
M  V30 12 O 1.8773 -0.5878 0.5917 0
M  V30 13 C 2.1897 -1.964 0.6578 0
M  V30 14 C 3.0049 -2.2353 1.9197 0
M  V30 15 O 4.1989 -1.4554 1.9267 0
M  V30 16 C 5.3158 -1.7512 1.1379 0
M  V30 17 O 5.3541 -2.8002 0.4389 0
M  V30 18 C 6.4533 -0.7821 1.0863 0
M  V30 19 C 6.189 0.2873 0.0228 0
M  V30 20 C 7.331 1.2975 -0.0385 0
M  V30 21 H -7.3298 2.5224 -1.1926 0
M  V30 22 H -6.7396 2.3325 0.4882 0
M  V30 23 H -2.6636 2.3268 -1.4093 0
M  V30 24 H -2.2506 2.0813 0.3219 0
M  V30 25 H -8.4253 0.5772 -0.2128 0
M  V30 26 H -7.2905 -0.0035 -1.4783 0
M  V30 27 H -2.8554 -0.3712 0.1209 0
M  V30 28 H -3.2209 -0.1152 -1.6036 0
M  V30 29 H -6.7224 0.0406 1.567 0
M  V30 30 H -5.62 -0.6157 0.2862 0
M  V30 31 H -7.2092 -1.402 0.5988 0
M  V30 32 H -0.7142 -1.2929 0.2909 0
M  V30 33 H -0.5204 0.4535 0.7587 0
M  V30 34 H 1.1629 -1.0392 -1.3598 0
M  V30 35 H 1.3076 0.6806 -0.9123 0
M  V30 36 H 1.2649 -2.5821 0.7042 0
M  V30 37 H 2.7875 -2.2702 -0.2298 0
M  V30 38 H 2.3965 -1.96 2.8073 0
M  V30 39 H 3.2492 -3.317 1.9958 0
M  V30 40 H 7.3947 -1.3258 0.852 0
M  V30 41 H 6.5657 -0.3034 2.0831 0
M  V30 42 H 5.244 0.8257 0.2582 0
M  V30 43 H 6.0796 -0.1942 -0.9735 0
M  V30 44 H 8.282 0.7885 -0.3036 0
M  V30 45 H 7.4483 1.8079 0.941 0
M  V30 46 H 7.1097 2.0618 -0.8129 0
M  V30 END ATOM
M  V30 BEGIN BOND
M  V30 1 2 1 2
M  V30 2 1 2 3
M  V30 3 1 2 4
M  V30 4 1 3 5
M  V30 5 1 4 6
M  V30 6 1 5 7
M  V30 7 1 6 8
M  V30 8 1 7 9
M  V30 9 1 9 10
M  V30 10 1 10 11
M  V30 11 1 11 12
M  V30 12 1 12 13
M  V30 13 1 13 14
M  V30 14 1 14 15
M  V30 15 1 15 16
M  V30 16 2 16 17
M  V30 17 1 16 18
M  V30 18 1 18 19
M  V30 19 1 19 20
M  V30 20 1 4 21
M  V30 21 1 4 22
M  V30 22 1 5 23
M  V30 23 1 5 24
M  V30 24 1 6 25
M  V30 25 1 6 26
M  V30 26 1 7 27
M  V30 27 1 7 28
M  V30 28 1 8 29
M  V30 29 1 8 30
M  V30 30 1 8 31
M  V30 31 1 10 32
M  V30 32 1 10 33
M  V30 33 1 11 34
M  V30 34 1 11 35
M  V30 35 1 13 36
M  V30 36 1 13 37
M  V30 37 1 14 38
M  V30 38 1 14 39
M  V30 39 1 18 40
M  V30 40 1 18 41
M  V30 41 1 19 42
M  V30 42 1 19 43
M  V30 43 1 20 44
M  V30 44 1 20 45
M  V30 45 1 20 46
M  V30 END BOND
M  V30 END CTAB
M  END
>  <Structure No>
5006

>  <LogS>
-1.5598

>  <MMFF94 Energy>
30.501

$$$$
Compound 5007
Actelion Java MolfileCreator 2.0

  0  0  0  0  0  0              0 V3000
M  V30 BEGIN CTAB
M  V30 COUNTS 29 30 0 0 0
M  V30 BEGIN ATOM
M  V30 1 O 0.8782 -0.4789 1.4373 0
M  V30 2 C 0.5074 -0.3886 0.2352 0
M  V30 3 N 1.4805 -0.3507 -0.8202 0
M  V30 4 N -0.8906 -0.3498 -0.0919 0
M  V30 5 C 2.8913 -0.1643 -0.6127 0
M  V30 6 C -1.9425 -0.5079 0.8773 0
M  V30 7 C 3.38 0.6767 0.405 0
M  V30 8 C 3.8026 -0.7854 -1.4816 0
M  V30 9 O -1.6782 -0.9657 2.0228 0
M  V30 10 C -3.3471 -0.1708 0.5404 0
M  V30 11 C 4.757 0.859 0.5682 0
M  V30 12 C 5.1786 -0.6012 -1.3144 0
M  V30 13 C -3.6571 0.7426 -0.4836 0
M  V30 14 C -4.4077 -0.7442 1.2627 0
M  V30 15 C 5.6556 0.217 -0.2875 0
M  V30 16 N -4.953 1.0418 -0.7678 0
M  V30 17 C -5.7287 -0.4217 0.9476 0
M  V30 18 C -5.9846 0.4811 -0.084 0
M  V30 19 H 1.1505 -0.558 -1.79 0
M  V30 20 H -1.1457 -0.234 -1.0975 0
M  V30 21 H 2.7023 1.2127 1.0557 0
M  V30 22 H 3.445 -1.4202 -2.2825 0
M  V30 23 H 5.1273 1.5058 1.3532 0
M  V30 24 H 5.8747 -1.0913 -1.9826 0
M  V30 25 H -2.8767 1.2387 -1.0437 0
M  V30 26 H -4.2162 -1.449 2.0624 0
M  V30 27 H 6.7209 0.3608 -0.1604 0
M  V30 28 H -6.5468 -0.8677 1.4985 0
M  V30 29 H -7.0035 0.7409 -0.3384 0
M  V30 END ATOM
M  V30 BEGIN BOND
M  V30 1 2 1 2
M  V30 2 1 2 3
M  V30 3 1 2 4
M  V30 4 1 3 5
M  V30 5 1 4 6
M  V30 6 2 5 7
M  V30 7 1 5 8
M  V30 8 2 6 9
M  V30 9 1 6 10
M  V30 10 1 7 11
M  V30 11 2 8 12
M  V30 12 2 10 13
M  V30 13 1 10 14
M  V30 14 2 11 15
M  V30 15 1 13 16
M  V30 16 2 14 17
M  V30 17 2 16 18
M  V30 18 1 12 15
M  V30 19 1 17 18
M  V30 20 1 3 19
M  V30 21 1 4 20
M  V30 22 1 7 21
M  V30 23 1 8 22
M  V30 24 1 11 23
M  V30 25 1 12 24
M  V30 26 1 13 25
M  V30 27 1 14 26
M  V30 28 1 15 27
M  V30 29 1 17 28
M  V30 30 1 18 29
M  V30 END BOND
M  V30 END CTAB
M  END
>  <Structure No>
5007

>  <LogS>
-3.3825

>  <MMFF94 Energy>
-25.832

$$$$
Compound 5008
Actelion Java MolfileCreator 2.0

  0  0  0  0  0  0              0 V3000
M  V30 BEGIN CTAB
M  V30 COUNTS 18 18 0 0 0
M  V30 BEGIN ATOM
M  V30 1 Cl -1.2053 -1.298 1.9475 0
M  V30 2 C -1.0118 -1.0708 0.1788 0
M  V30 3 Cl -2.0894 -2.2599 -0.6124 0
M  V30 4 C -1.4091 0.3593 -0.2797 0 CFG=1
M  V30 5 C 0.4364 -1.3977 -0.234 0
M  V30 6 Cl -3.0609 0.8044 0.2607 0
M  V30 7 C -0.3855 1.4547 0.1158 0 CFG=1
M  V30 8 C 1.4297 -0.3248 0.238 0 CFG=2
M  V30 9 Cl -0.4438 1.8683 1.861 0
M  V30 10 C 1.0509 1.0731 -0.2919 0 CFG=1
M  V30 11 Cl 3.0902 -0.7689 -0.2549 0
M  V30 12 Cl 1.2339 1.184 -2.0745 0
M  V30 13 H -1.4574 0.3485 -1.3909 0
M  V30 14 H 0.7293 -2.3814 0.1942 0
M  V30 15 H 0.4953 -1.4908 -1.3408 0
M  V30 16 H -0.6604 2.3897 -0.4199 0
M  V30 17 H 1.4319 -0.3 1.3491 0
M  V30 18 H 1.7536 1.8172 0.1425 0
M  V30 END ATOM
M  V30 BEGIN BOND
M  V30 1 1 1 2
M  V30 2 1 2 3
M  V30 3 1 2 4
M  V30 4 1 2 5
M  V30 5 1 4 6
M  V30 6 1 4 7
M  V30 7 1 5 8
M  V30 8 1 7 9
M  V30 9 1 7 10
M  V30 10 1 8 11
M  V30 11 1 10 12
M  V30 12 1 8 10
M  V30 13 1 4 13
M  V30 14 1 5 14
M  V30 15 1 5 15
M  V30 16 1 7 16
M  V30 17 1 8 17
M  V30 18 1 10 18
M  V30 END BOND
M  V30 BEGIN COLLECTION
M  V30 MDLV30/STEABS ATOMS=(4 4 7 8 10)
M  V30 END COLLECTION
M  V30 END CTAB
M  END
>  <Structure No>
5008

>  <LogS>
-4.9408

>  <MMFF94 Energy>
22.92

$$$$
Compound 5009
Actelion Java MolfileCreator 2.0

  0  0  0  0  0  0              0 V3000
M  V30 BEGIN CTAB
M  V30 COUNTS 45 44 0 0 0
M  V30 BEGIN ATOM
M  V30 1 O -1.7854 2.0962 -0.3879 0
M  V30 2 C -2.2628 0.7931 -0.1578 0 CFG=1
M  V30 3 C -1.3054 0.0519 0.8009 0
M  V30 4 C -3.7133 0.8325 0.3723 0
M  V30 5 C -1.5659 -1.4647 0.8564 0
M  V30 6 C -4.6493 1.577 -0.5899 0
M  V30 7 C -0.4697 -2.2166 1.642 0
M  V30 8 C -6.0877 1.5646 -0.0803 0
M  V30 9 C 0.518 -2.9875 0.7446 0
M  V30 10 C 1.3769 -2.1045 -0.1762 0
M  V30 11 C 2.3983 -1.2568 0.5969 0
M  V30 12 C 3.2646 -0.4331 -0.3631 0
M  V30 13 C 4.2742 0.429 0.4091 0
M  V30 14 C 5.2373 1.1845 -0.5195 0
M  V30 15 C 4.5532 2.3158 -1.2869 0
M  V30 16 H -1.7877 2.574 0.4831 0
M  V30 17 H -2.2595 0.2612 -1.1346 0
M  V30 18 H -0.2676 0.2341 0.4538 0
M  V30 19 H -1.3907 0.4796 1.8243 0
M  V30 20 H -4.0921 -0.2043 0.4934 0
M  V30 21 H -3.7346 1.3288 1.3677 0
M  V30 22 H -2.5356 -1.6368 1.3705 0
M  V30 23 H -1.664 -1.8773 -0.1715 0
M  V30 24 H -4.3203 2.6333 -0.698 0
M  V30 25 H -4.6186 1.0943 -1.591 0
M  V30 26 H 0.0737 -1.538 2.3332 0
M  V30 27 H -0.9686 -2.9689 2.2918 0
M  V30 28 H -6.1497 2.0604 0.9119 0
M  V30 29 H -6.7394 2.1131 -0.7927 0
M  V30 30 H -6.4576 0.5207 0.0073 0
M  V30 31 H 1.1876 -3.596 1.3907 0
M  V30 32 H -0.0554 -3.703 0.1154 0
M  V30 33 H 0.7291 -1.4574 -0.8039 0
M  V30 34 H 1.9298 -2.7761 -0.869 0
M  V30 35 H 3.0503 -1.927 1.1993 0
M  V30 36 H 1.874 -0.5637 1.2874 0
M  V30 37 H 2.6029 0.2209 -0.9705 0
M  V30 38 H 3.8109 -1.1199 -1.0465 0
M  V30 39 H 4.8803 -0.231 1.0677 0
M  V30 40 H 3.7355 1.152 1.0606 0
M  V30 41 H 6.048 1.6255 0.1 0
M  V30 42 H 5.7095 0.4792 -1.2374 0
M  V30 43 H 5.3173 2.8972 -1.8447 0
M  V30 44 H 4.0305 3.0011 -0.586 0
M  V30 45 H 3.8258 1.9104 -2.0202 0
M  V30 END ATOM
M  V30 BEGIN BOND
M  V30 1 1 1 2
M  V30 2 1 2 3
M  V30 3 1 2 4
M  V30 4 1 3 5
M  V30 5 1 4 6
M  V30 6 1 5 7
M  V30 7 1 6 8
M  V30 8 1 7 9
M  V30 9 1 9 10
M  V30 10 1 10 11
M  V30 11 1 11 12
M  V30 12 1 12 13
M  V30 13 1 13 14
M  V30 14 1 14 15
M  V30 15 1 1 16
M  V30 16 1 2 17
M  V30 17 1 3 18
M  V30 18 1 3 19
M  V30 19 1 4 20
M  V30 20 1 4 21
M  V30 21 1 5 22
M  V30 22 1 5 23
M  V30 23 1 6 24
M  V30 24 1 6 25
M  V30 25 1 7 26
M  V30 26 1 7 27
M  V30 27 1 8 28
M  V30 28 1 8 29
M  V30 29 1 8 30
M  V30 30 1 9 31
M  V30 31 1 9 32
M  V30 32 1 10 33
M  V30 33 1 10 34
M  V30 34 1 11 35
M  V30 35 1 11 36
M  V30 36 1 12 37
M  V30 37 1 12 38
M  V30 38 1 13 39
M  V30 39 1 13 40
M  V30 40 1 14 41
M  V30 41 1 14 42
M  V30 42 1 15 43
M  V30 43 1 15 44
M  V30 44 1 15 45
M  V30 END BOND
M  V30 BEGIN COLLECTION
M  V30 MDLV30/STEABS ATOMS=(1 2)
M  V30 END COLLECTION
M  V30 END CTAB
M  END
>  <Structure No>
5009

>  <LogS>
-5.837

>  <MMFF94 Energy>
1.8538

$$$$
Compound 5010
Actelion Java MolfileCreator 2.0

  0  0  0  0  0  0              0 V3000
M  V30 BEGIN CTAB
M  V30 COUNTS 29 30 0 0 0
M  V30 BEGIN ATOM
M  V30 1 Cl 3.2136 -3.0486 0.0823 0
M  V30 2 C 2.3138 -1.545 -0.1329 0
M  V30 3 C 0.9139 -1.5901 -0.1884 0
M  V30 4 C 2.9703 -0.3048 -0.2388 0
M  V30 5 O 0.3209 -2.6967 -0.0562 0
M  V30 6 N 0.2002 -0.4331 -0.3621 0
M  V30 7 N 4.4106 -0.2203 -0.184 0
M  V30 8 C 2.1825 0.8447 -0.3929 0
M  V30 9 N 0.8317 0.7402 -0.4481 0
M  V30 10 C -1.2385 -0.434 -0.4365 0
M  V30 11 C 5.147 1.0362 -0.2817 0
M  V30 12 C -1.9809 0.4739 0.3369 0
M  V30 13 C -1.9128 -1.2958 -1.3177 0
M  V30 14 C -3.3857 0.495 0.2703 0
M  V30 15 C -3.3056 -1.2608 -1.4095 0
M  V30 16 C -4.0396 -0.3674 -0.6259 0
M  V30 17 C -4.1718 1.4993 1.0756 0
M  V30 18 F -4.2831 2.6735 0.3546 0
M  V30 19 F -5.44 1.0195 1.3544 0
M  V30 20 F -3.5372 1.7657 2.2765 0
M  V30 21 H 4.9807 -1.0871 -0.0708 0
M  V30 22 H 2.6277 1.826 -0.4724 0
M  V30 23 H 4.8574 1.7107 0.5513 0
M  V30 24 H 6.2382 0.8408 -0.2143 0
M  V30 25 H 4.9357 1.5241 -1.2565 0
M  V30 26 H -1.4597 1.1573 0.9962 0
M  V30 27 H -1.3588 -1.9766 -1.951 0
M  V30 28 H -3.8172 -1.9201 -2.0987 0
M  V30 29 H -5.1176 -0.3459 -0.7264 0
M  V30 END ATOM
M  V30 BEGIN BOND
M  V30 1 1 1 2
M  V30 2 1 2 3
M  V30 3 2 2 4
M  V30 4 2 3 5
M  V30 5 1 3 6
M  V30 6 1 4 7
M  V30 7 1 4 8
M  V30 8 1 6 9
M  V30 9 1 6 10
M  V30 10 1 7 11
M  V30 11 2 10 12
M  V30 12 1 10 13
M  V30 13 1 12 14
M  V30 14 2 13 15
M  V30 15 2 14 16
M  V30 16 1 14 17
M  V30 17 1 17 18
M  V30 18 1 17 19
M  V30 19 1 17 20
M  V30 20 2 8 9
M  V30 21 1 15 16
M  V30 22 1 7 21
M  V30 23 1 8 22
M  V30 24 1 11 23
M  V30 25 1 11 24
M  V30 26 1 11 25
M  V30 27 1 12 26
M  V30 28 1 13 27
M  V30 29 1 15 28
M  V30 30 1 16 29
M  V30 END BOND
M  V30 END CTAB
M  END
>  <Structure No>
5010

>  <LogS>
-3.9548

>  <MMFF94 Energy>
131.2

$$$$
Compound 5011
Actelion Java MolfileCreator 2.0

  0  0  0  0  0  0              0 V3000
M  V30 BEGIN CTAB
M  V30 COUNTS 16 17 0 0 0
M  V30 BEGIN ATOM
M  V30 1 Cl 3.638 1.2723 0.0908 0
M  V30 2 C 2.0236 0.5635 0.0401 0
M  V30 3 C 1.8662 -0.8355 -0.1381 0
M  V30 4 C 0.8887 1.393 0.1777 0
M  V30 5 Cl 3.284 -1.8704 -0.3097 0
M  V30 6 C 0.5738 -1.405 -0.1789 0
M  V30 7 Cl 1.0458 3.1331 0.4006 0
M  V30 8 C -0.3717 0.7925 0.132 0
M  V30 9 Cl 0.3361 -3.1358 -0.3984 0
M  V30 10 C -0.531 -0.5618 -0.0402 0
M  V30 11 C -1.7013 1.3487 0.239 0
M  V30 12 C -1.9904 -0.9242 -0.0497 0
M  V30 13 O -1.9899 2.5627 0.4048 0
M  V30 14 O -2.6429 0.3355 0.1313 0
M  V30 15 H -2.2794 -1.3691 -1.025 0
M  V30 16 H -2.2324 -1.6061 0.7924 0
M  V30 END ATOM
M  V30 BEGIN BOND
M  V30 1 1 1 2
M  V30 2 2 2 3
M  V30 3 1 2 4
M  V30 4 1 3 5
M  V30 5 1 3 6
M  V30 6 1 4 7
M  V30 7 2 4 8
M  V30 8 1 6 9
M  V30 9 2 6 10
M  V30 10 1 8 11
M  V30 11 1 10 12
M  V30 12 2 11 13
M  V30 13 1 11 14
M  V30 14 1 8 10
M  V30 15 1 12 14
M  V30 16 1 12 15
M  V30 17 1 12 16
M  V30 END BOND
M  V30 END CTAB
M  END
>  <Structure No>
5011

>  <LogS>
-5.0365

>  <MMFF94 Energy>
14.104

$$$$
Compound 5012
Actelion Java MolfileCreator 2.0

  0  0  0  0  0  0              0 V3000
M  V30 BEGIN CTAB
M  V30 COUNTS 27 28 0 0 0
M  V30 BEGIN ATOM
M  V30 1 Cl -3.0753 2.9943 0.8894 0
M  V30 2 C -2.7959 1.2761 0.6773 0
M  V30 3 C -1.6958 0.8353 -0.0848 0
M  V30 4 C -3.6747 0.3398 1.2744 0
M  V30 5 C -1.5186 -0.54 -0.2227 0
M  V30 6 C -3.4604 -1.0429 1.1164 0
M  V30 7 C -2.3644 -1.4421 0.3556 0
M  V30 8 C -0.5688 -1.3053 -0.8704 0
M  V30 9 N -1.9489 -2.6894 0.0822 0
M  V30 10 N -0.8485 -2.6147 -0.6593 0
M  V30 11 C 0.6339 -0.8114 -1.6105 0
M  V30 12 C 1.7272 -0.4867 -0.6458 0
M  V30 13 O 2.5757 -1.369 -0.3409 0
M  V30 14 O 1.7628 0.7787 -0.0492 0
M  V30 15 C 2.7679 1.1821 0.8783 0
M  V30 16 C 4.074 1.4912 0.1559 0
M  V30 17 H -1.0136 1.5384 -0.5449 0
M  V30 18 H -4.5171 0.6851 1.8601 0
M  V30 19 H -4.1219 -1.7679 1.5728 0
M  V30 20 H -2.3918 -3.5808 0.3978 0
M  V30 21 H 0.9782 -1.589 -2.326 0
M  V30 22 H 0.3703 0.0961 -2.1942 0
M  V30 23 H 2.4213 2.1007 1.397 0
M  V30 24 H 2.9272 0.3926 1.6448 0
M  V30 25 H 4.8266 1.8569 0.8859 0
M  V30 26 H 4.4696 0.5788 -0.3368 0
M  V30 27 H 3.9056 2.2762 -0.6114 0
M  V30 END ATOM
M  V30 BEGIN BOND
M  V30 1 1 1 2
M  V30 2 2 2 3
M  V30 3 1 2 4
M  V30 4 1 3 5
M  V30 5 2 4 6
M  V30 6 2 5 7
M  V30 7 1 5 8
M  V30 8 1 7 9
M  V30 9 2 8 10
M  V30 10 1 8 11
M  V30 11 1 11 12
M  V30 12 2 12 13
M  V30 13 1 12 14
M  V30 14 1 14 15
M  V30 15 1 15 16
M  V30 16 1 6 7
M  V30 17 1 9 10
M  V30 18 1 3 17
M  V30 19 1 4 18
M  V30 20 1 6 19
M  V30 21 1 9 20
M  V30 22 1 11 21
M  V30 23 1 11 22
M  V30 24 1 15 23
M  V30 25 1 15 24
M  V30 26 1 16 25
M  V30 27 1 16 26
M  V30 28 1 16 27
M  V30 END BOND
M  V30 END CTAB
M  END
>  <Structure No>
5012

>  <LogS>
-3.0256

>  <MMFF94 Energy>
23.481

$$$$
Compound 5013
Actelion Java MolfileCreator 2.0

  0  0  0  0  0  0              0 V3000
M  V30 BEGIN CTAB
M  V30 COUNTS 25 26 0 0 0
M  V30 BEGIN ATOM
M  V30 1 Cl 1.6292 -2.6592 -1.715 0
M  V30 2 C 0.5286 -1.4568 -1.0397 0
M  V30 3 C 1.0021 -0.3121 -0.5075 0
M  V30 4 C -0.9203 -1.7559 -1.0338 0
M  V30 5 N 2.4136 -0.0391 -0.5264 0
M  V30 6 C 0.0634 0.6937 0.0532 0
M  V30 7 O -1.3364 -2.8323 -1.5419 0
M  V30 8 C -1.8738 -0.7992 -0.4294 0
M  V30 9 C 3.1409 0.3631 0.6437 0
M  V30 10 O 0.5031 1.8058 0.454 0
M  V30 11 C -1.3881 0.408 0.1093 0
M  V30 12 C -3.252 -1.075 -0.3866 0
M  V30 13 O 2.5873 0.3345 1.7772 0
M  V30 14 C 4.5833 0.7536 0.5356 0
M  V30 15 C -2.2877 1.3242 0.6829 0
M  V30 16 C -4.136 -0.1577 0.1872 0
M  V30 17 Cl 4.8786 2.2837 1.3997 0
M  V30 18 Cl 5.6063 -0.5263 1.2303 0
M  V30 19 C -3.6549 1.0392 0.7208 0
M  V30 20 H 2.9479 -0.222 -1.4057 0
M  V30 21 H -3.6455 -1.9973 -0.795 0
M  V30 22 H 4.8666 0.8967 -0.5281 0
M  V30 23 H -1.9352 2.2583 1.1022 0
M  V30 24 H -5.1959 -0.3751 0.2181 0
M  V30 25 H -4.3427 1.7477 1.1643 0
M  V30 END ATOM
M  V30 BEGIN BOND
M  V30 1 1 1 2
M  V30 2 2 2 3
M  V30 3 1 2 4
M  V30 4 1 3 5
M  V30 5 1 3 6
M  V30 6 2 4 7
M  V30 7 1 4 8
M  V30 8 1 5 9
M  V30 9 2 6 10
M  V30 10 1 6 11
M  V30 11 1 8 12
M  V30 12 2 9 13
M  V30 13 1 9 14
M  V30 14 1 11 15
M  V30 15 2 12 16
M  V30 16 1 14 17
M  V30 17 1 14 18
M  V30 18 2 15 19
M  V30 19 2 8 11
M  V30 20 1 16 19
M  V30 21 1 5 20
M  V30 22 1 12 21
M  V30 23 1 14 22
M  V30 24 1 15 23
M  V30 25 1 16 24
M  V30 26 1 19 25
M  V30 END BOND
M  V30 END CTAB
M  END
>  <Structure No>
5013

>  <LogS>
-5.0261

>  <MMFF94 Energy>
103.99

$$$$
Compound 5014
Actelion Java MolfileCreator 2.0

  0  0  0  0  0  0              0 V3000
M  V30 BEGIN CTAB
M  V30 COUNTS 66 66 0 0 0
M  V30 BEGIN ATOM
M  V30 1 O 2.1288 3.0761 -0.5515 0
M  V30 2 C 1.2346 2.2039 -0.3742 0
M  V30 3 O 1.3849 0.9182 -0.9088 0
M  V30 4 C 0.0443 2.5289 0.4413 0
M  V30 5 C 2.5239 0.5065 -1.6619 0
M  V30 6 C -1.251 2.0228 0.1446 0
M  V30 7 C 0.2252 3.3194 1.591 0
M  V30 8 C 3.7236 0.2677 -0.7391 0
M  V30 9 C -1.5633 1.2952 -1.1075 0
M  V30 10 C -2.3048 2.2772 1.0416 0
M  V30 11 C -0.8388 3.5745 2.4561 0
M  V30 12 C 4.9345 -0.2461 -1.5315 0
M  V30 13 O -0.9422 1.5624 -2.1726 0
M  V30 14 O -2.5953 0.351 -1.1165 0
M  V30 15 C -2.0987 3.0455 2.1876 0
M  V30 16 C 6.2108 -0.3292 -0.6786 0
M  V30 17 C -2.9632 -0.3752 -2.2852 0
M  V30 18 C 6.1479 -1.4578 0.37 0
M  V30 19 C -4.1155 -1.336 -1.975 0
M  V30 20 C 7.463 -1.6776 1.1558 0
M  V30 21 C -5.4929 -0.6498 -1.9223 0
M  V30 22 C 8.6088 -2.1703 0.2611 0
M  V30 23 C 7.8852 -0.4354 1.9524 0
M  V30 24 C -5.6766 0.364 -0.7768 0
M  V30 25 C -5.4495 -0.1975 0.6421 0
M  V30 26 C -6.3335 -1.4112 1.0174 0
M  V30 27 C -5.9495 -1.9209 2.4125 0
M  V30 28 C -7.8302 -1.0679 0.982 0
M  V30 29 H 2.269 -0.4404 -2.184 0
M  V30 30 H 2.7665 1.2699 -2.4336 0
M  V30 31 H 1.2022 3.7171 1.8369 0
M  V30 32 H 3.9913 1.218 -0.2293 0
M  V30 33 H 3.4325 -0.4767 0.0316 0
M  V30 34 H -3.3018 1.9088 0.8399 0
M  V30 35 H -0.6832 4.1755 3.3427 0
M  V30 36 H 4.7053 -1.2439 -1.9667 0
M  V30 37 H 5.1331 0.4512 -2.3748 0
M  V30 38 H -2.9225 3.2429 2.8614 0
M  V30 39 H 7.0594 -0.5133 -1.3698 0
M  V30 40 H 6.3824 0.6496 -0.1823 0
M  V30 41 H -3.2533 0.3272 -3.0976 0
M  V30 42 H -2.0877 -0.9681 -2.6302 0
M  V30 43 H 5.8714 -2.4099 -0.1334 0
M  V30 44 H 5.3439 -1.2322 1.1026 0
M  V30 45 H -4.1531 -2.094 -2.7865 0
M  V30 46 H -3.9105 -1.89 -1.036 0
M  V30 47 H 7.2602 -2.4848 1.8946 0
M  V30 48 H -6.279 -1.4307 -1.8528 0
M  V30 49 H -5.6679 -0.1234 -2.885 0
M  V30 50 H 9.4625 -2.5011 0.8903 0
M  V30 51 H 8.2761 -3.0357 -0.3503 0
M  V30 52 H 8.9692 -1.3654 -0.4124 0
M  V30 53 H 8.7281 -0.69 2.6291 0
M  V30 54 H 8.2171 0.3796 1.2761 0
M  V30 55 H 7.0399 -0.0703 2.5738 0
M  V30 56 H -6.7002 0.7895 -0.8413 0
M  V30 57 H -4.9899 1.2215 -0.9359 0
M  V30 58 H -5.6357 0.624 1.3685 0
M  V30 59 H -4.3794 -0.4727 0.7528 0
M  V30 60 H -6.145 -2.242 0.3049 0
M  V30 61 H -4.8745 -2.2003 2.436 0
M  V30 62 H -6.1349 -1.1399 3.1814 0
M  V30 63 H -6.5426 -2.8241 2.6686 0
M  V30 64 H -8.4318 -1.9319 1.3368 0
M  V30 65 H -8.0473 -0.1918 1.6304 0
M  V30 66 H -8.1561 -0.8432 -0.0543 0
M  V30 END ATOM
M  V30 BEGIN BOND
M  V30 1 2 1 2
M  V30 2 1 2 3
M  V30 3 1 2 4
M  V30 4 1 3 5
M  V30 5 2 4 6
M  V30 6 1 4 7
M  V30 7 1 5 8
M  V30 8 1 6 9
M  V30 9 1 6 10
M  V30 10 2 7 11
M  V30 11 1 8 12
M  V30 12 2 9 13
M  V30 13 1 9 14
M  V30 14 2 10 15
M  V30 15 1 12 16
M  V30 16 1 14 17
M  V30 17 1 16 18
M  V30 18 1 17 19
M  V30 19 1 18 20
M  V30 20 1 19 21
M  V30 21 1 20 22
M  V30 22 1 20 23
M  V30 23 1 21 24
M  V30 24 1 24 25
M  V30 25 1 25 26
M  V30 26 1 26 27
M  V30 27 1 26 28
M  V30 28 1 11 15
M  V30 29 1 5 29
M  V30 30 1 5 30
M  V30 31 1 7 31
M  V30 32 1 8 32
M  V30 33 1 8 33
M  V30 34 1 10 34
M  V30 35 1 11 35
M  V30 36 1 12 36
M  V30 37 1 12 37
M  V30 38 1 15 38
M  V30 39 1 16 39
M  V30 40 1 16 40
M  V30 41 1 17 41
M  V30 42 1 17 42
M  V30 43 1 18 43
M  V30 44 1 18 44
M  V30 45 1 19 45
M  V30 46 1 19 46
M  V30 47 1 20 47
M  V30 48 1 21 48
M  V30 49 1 21 49
M  V30 50 1 22 50
M  V30 51 1 22 51
M  V30 52 1 22 52
M  V30 53 1 23 53
M  V30 54 1 23 54
M  V30 55 1 23 55
M  V30 56 1 24 56
M  V30 57 1 24 57
M  V30 58 1 25 58
M  V30 59 1 25 59
M  V30 60 1 26 60
M  V30 61 1 27 61
M  V30 62 1 27 62
M  V30 63 1 27 63
M  V30 64 1 28 64
M  V30 65 1 28 65
M  V30 66 1 28 66
M  V30 END BOND
M  V30 END CTAB
M  END
>  <Structure No>
5014

>  <LogS>
-6.6375

>  <MMFF94 Energy>
28.454

$$$$
Compound 5015
Actelion Java MolfileCreator 2.0

  0  0  0  0  0  0              0 V3000
M  V30 BEGIN CTAB
M  V30 COUNTS 24 25 0 0 0
M  V30 BEGIN ATOM
M  V30 1 S 0.9931 1.6556 1.49 0
M  V30 2 O 1.8121 2.9004 1.2979 0
M  V30 3 O 0.5457 1.4723 2.9124 0
M  V30 4 N -0.3368 1.5893 0.3882 0
M  V30 5 C 1.7591 0.2478 0.8456 0
M  V30 6 C -0.2095 0.5698 -0.4122 0
M  V30 7 C 0.9949 -0.2457 -0.1899 0
M  V30 8 C 2.9479 -0.361 1.2414 0
M  V30 9 O -1.1457 0.2708 -1.4084 0
M  V30 10 C 1.3931 -1.3894 -0.8857 0
M  V30 11 C 3.3635 -1.5117 0.5523 0
M  V30 12 C -2.3373 1.027 -1.6165 0
M  V30 13 C 2.5888 -2.0243 -0.5076 0
M  V30 14 C -3.3056 0.8153 -0.4877 0
M  V30 15 C -3.8128 -0.3914 -0.2236 0
M  V30 16 H 3.5341 0.0411 2.0571 0
M  V30 17 H 0.7956 -1.7811 -1.6988 0
M  V30 18 H 4.2827 -2.0071 0.8368 0
M  V30 19 H -2.0897 2.1068 -1.707 0
M  V30 20 H -2.8087 0.7034 -2.5685 0
M  V30 21 H 2.9161 -2.9118 -1.0333 0
M  V30 22 H -3.6008 1.663 0.1235 0
M  V30 23 H -4.5114 -0.5192 0.5968 0
M  V30 24 H -3.5357 -1.2556 -0.8197 0
M  V30 END ATOM
M  V30 BEGIN BOND
M  V30 1 2 1 2
M  V30 2 2 1 3
M  V30 3 1 1 4
M  V30 4 1 1 5
M  V30 5 2 4 6
M  V30 6 2 5 7
M  V30 7 1 5 8
M  V30 8 1 6 9
M  V30 9 1 7 10
M  V30 10 2 8 11
M  V30 11 1 9 12
M  V30 12 2 10 13
M  V30 13 1 12 14
M  V30 14 2 14 15
M  V30 15 1 6 7
M  V30 16 1 11 13
M  V30 17 1 8 16
M  V30 18 1 10 17
M  V30 19 1 11 18
M  V30 20 1 12 19
M  V30 21 1 12 20
M  V30 22 1 13 21
M  V30 23 1 14 22
M  V30 24 1 15 23
M  V30 25 1 15 24
M  V30 END BOND
M  V30 END CTAB
M  END
>  <Structure No>
5015

>  <LogS>
-3.1727

>  <MMFF94 Energy>
-1.562

$$$$
Compound 5016
Actelion Java MolfileCreator 2.0

  0  0  0  0  0  0              0 V3000
M  V30 BEGIN CTAB
M  V30 COUNTS 22 21 0 0 0
M  V30 BEGIN ATOM
M  V30 1 O -1.4737 1.0857 -1.5513 0
M  V30 2 C -1.2564 0.3507 -0.598 0
M  V30 3 C -2.2203 0.3215 0.5661 0
M  V30 4 C 0.0098 -0.4671 -0.5612 0 CFG=2
M  V30 5 O -1.6833 1.0326 1.6493 0
M  V30 6 O -3.4635 0.8713 0.2083 0
M  V30 7 O 1.1147 0.4091 -0.7138 0
M  V30 8 C 7.0E-4 -1.4916 -1.6984 0
M  V30 9 C 2.2251 -0.0073 0.0593 0
M  V30 10 C 2.1793 0.6302 1.4444 0
M  V30 11 H -2.3649 -0.7349 0.8878 0
M  V30 12 H 0.0294 -1.025 0.406 0
M  V30 13 H -1.6423 1.988 1.3802 0
M  V30 14 H -3.9153 0.2027 -0.3703 0
M  V30 15 H 0.9102 -2.126 -1.6456 0
M  V30 16 H -0.89 -2.1506 -1.6141 0
M  V30 17 H -0.0171 -0.9805 -2.6849 0
M  V30 18 H 3.1474 0.3418 -0.4508 0
M  V30 19 H 2.3122 -1.1156 0.143 0
M  V30 20 H 3.0923 0.3548 2.0131 0
M  V30 21 H 1.2896 0.2764 2.006 0
M  V30 22 H 2.1331 1.7361 1.3516 0
M  V30 END ATOM
M  V30 BEGIN BOND
M  V30 1 2 1 2
M  V30 2 1 2 3
M  V30 3 1 2 4
M  V30 4 1 3 5
M  V30 5 1 3 6
M  V30 6 1 4 7
M  V30 7 1 4 8
M  V30 8 1 7 9
M  V30 9 1 9 10
M  V30 10 1 3 11
M  V30 11 1 4 12
M  V30 12 1 5 13
M  V30 13 1 6 14
M  V30 14 1 8 15
M  V30 15 1 8 16
M  V30 16 1 8 17
M  V30 17 1 9 18
M  V30 18 1 9 19
M  V30 19 1 10 20
M  V30 20 1 10 21
M  V30 21 1 10 22
M  V30 END BOND
M  V30 BEGIN COLLECTION
M  V30 MDLV30/STEABS ATOMS=(1 4)
M  V30 END COLLECTION
M  V30 END CTAB
M  END
>  <Structure No>
5016

>  <LogS>
-0.1707

>  <MMFF94 Energy>
28.633

$$$$
Compound 5017
Actelion Java MolfileCreator 2.0

  0  0  0  0  0  0              0 V3000
M  V30 BEGIN CTAB
M  V30 COUNTS 14 15 0 0 0
M  V30 BEGIN ATOM
M  V30 1 S -3.5781 1.3 0.0 0
M  V30 2 C -2.0605 0.6906 -0.0018 0
M  V30 3 N -1.0049 1.5183 0.2692 0
M  V30 4 N -1.8489 -0.6421 -0.2738 0
M  V30 5 C 0.2414 0.9894 0.2615 0
M  V30 6 C -0.5878 -1.1704 -0.2801 0
M  V30 7 N 1.3925 1.6388 0.5021 0
M  V30 8 C 0.4667 -0.3151 -0.003 0
M  V30 9 C 2.3163 0.6473 0.3659 0
M  V30 10 N 1.7793 -0.5603 0.0566 0
M  V30 11 H -2.6583 -1.2703 -0.4803 0
M  V30 12 H -0.4221 -2.2186 -0.494 0
M  V30 13 H 3.3787 0.8085 0.4925 0
M  V30 14 H 2.2765 -1.4654 -0.0974 0
M  V30 END ATOM
M  V30 BEGIN BOND
M  V30 1 2 1 2
M  V30 2 1 2 3
M  V30 3 1 2 4
M  V30 4 2 3 5
M  V30 5 1 4 6
M  V30 6 1 5 7
M  V30 7 1 5 8
M  V30 8 2 7 9
M  V30 9 1 8 10
M  V30 10 2 6 8
M  V30 11 1 9 10
M  V30 12 1 4 11
M  V30 13 1 6 12
M  V30 14 1 9 13
M  V30 15 1 10 14
M  V30 END BOND
M  V30 END CTAB
M  END
>  <Structure No>
5017

>  <LogS>
-2.5803

>  <MMFF94 Energy>
-24.603

$$$$
Compound 5018
Actelion Java MolfileCreator 2.0

  0  0  0  0  0  0              0 V3000
M  V30 BEGIN CTAB
M  V30 COUNTS 26 27 0 0 0
M  V30 BEGIN ATOM
M  V30 1 O 0.2459 -2.7901 0.0 0
M  V30 2 N -0.558 -2.3509 0.848 0 CHG=1
M  V30 3 O -0.8185 -3.1013 1.9712 0 CHG=-1
M  V30 4 C -1.2883 -1.1355 0.6018 0
M  V30 5 C -0.6442 0.0157 0.0744 0
M  V30 6 C -2.671 -1.0977 0.8595 0
M  V30 7 C -1.4042 1.1879 -0.1862 0
M  V30 8 C 0.8098 -0.0117 -0.2055 0
M  V30 9 O -3.3283 -2.214 1.365 0 CHG=-1
M  V30 10 C -3.4082 0.0525 0.5863 0
M  V30 11 N -0.7949 2.3985 -0.6731 0 CHG=1
M  V30 12 C -2.7848 1.1802 0.0606 0
M  V30 13 C 1.7308 -0.1545 0.8452 0
M  V30 14 C 1.2784 0.1001 -1.5248 0
M  V30 15 O 0.3346 2.7488 -0.2738 0
M  V30 16 O -1.5265 3.2763 -1.4396 0 CHG=-1
M  V30 17 C 3.1028 -0.1833 0.5779 0
M  V30 18 C 2.6514 0.0712 -1.7875 0
M  V30 19 C 3.5627 -0.0704 -0.7371 0
M  V30 20 H -4.4733 0.0712 0.7805 0
M  V30 21 H -3.3802 2.0642 -0.1293 0
M  V30 22 H 1.3853 -0.2402 1.8682 0
M  V30 23 H 0.5807 0.207 -2.3463 0
M  V30 24 H 3.8095 -0.2929 1.3902 0
M  V30 25 H 3.0089 0.1578 -2.8052 0
M  V30 26 H 4.6251 -0.0928 -0.9423 0
M  V30 END ATOM
M  V30 BEGIN BOND
M  V30 1 2 1 2
M  V30 2 1 2 3
M  V30 3 1 2 4
M  V30 4 2 4 5
M  V30 5 1 4 6
M  V30 6 1 5 7
M  V30 7 1 5 8
M  V30 8 1 6 9
M  V30 9 2 6 10
M  V30 10 1 7 11
M  V30 11 2 7 12
M  V30 12 2 8 13
M  V30 13 1 8 14
M  V30 14 2 11 15
M  V30 15 1 11 16
M  V30 16 1 13 17
M  V30 17 2 14 18
M  V30 18 2 17 19
M  V30 19 1 10 12
M  V30 20 1 18 19
M  V30 21 1 10 20
M  V30 22 1 12 21
M  V30 23 1 13 22
M  V30 24 1 14 23
M  V30 25 1 17 24
M  V30 26 1 18 25
M  V30 27 1 19 26
M  V30 END BOND
M  V30 END CTAB
M  END
>  <Structure No>
5018

>  <LogS>
-3.7164

>  <MMFF94 Energy>
100.2

$$$$
Compound 5019
Actelion Java MolfileCreator 2.0

  0  0  0  0  0  0              0 V3000
M  V30 BEGIN CTAB
M  V30 COUNTS 27 27 0 0 0
M  V30 BEGIN ATOM
M  V30 1 Cl 3.1497 -3.2306 -1.7758 0
M  V30 2 C 2.2108 -1.8408 -1.2614 0
M  V30 3 C 2.7495 -0.9332 -0.3455 0
M  V30 4 C 0.9274 -1.639 -1.7712 0
M  V30 5 C 2.004 0.1805 0.078 0
M  V30 6 C 0.1803 -0.5308 -1.3688 0
M  V30 7 C 0.7035 0.3856 -0.4386 0
M  V30 8 C 2.6044 1.1396 1.0695 0
M  V30 9 N -0.0654 1.5382 -0.0488 0
M  V30 10 C -1.4971 1.5303 0.0662 0
M  V30 11 S -2.3173 2.9255 -0.2011 0
M  V30 12 N -2.1989 0.3608 0.5344 0
M  V30 13 C -3.4959 0.0049 -0.044 0
M  V30 14 C -1.5945 -0.5258 1.5309 0
M  V30 15 H 3.7487 -1.0997 0.0379 0
M  V30 16 H 0.51 -2.336 -2.4867 0
M  V30 17 H -0.8032 -0.3806 -1.7944 0
M  V30 18 H 1.8802 1.3473 1.8856 0
M  V30 19 H 2.8651 2.0894 0.5575 0
M  V30 20 H 3.5251 0.7244 1.5318 0
M  V30 21 H 0.432 2.4463 0.0908 0
M  V30 22 H -4.2565 0.7629 0.2373 0
M  V30 23 H -3.8379 -0.9868 0.3222 0
M  V30 24 H -3.4136 -0.0417 -1.1504 0
M  V30 25 H -1.2309 -1.4518 1.0387 0
M  V30 26 H -0.7465 -0.0269 2.0471 0
M  V30 27 H -2.347 -0.7962 2.3016 0
M  V30 END ATOM
M  V30 BEGIN BOND
M  V30 1 1 1 2
M  V30 2 2 2 3
M  V30 3 1 2 4
M  V30 4 1 3 5
M  V30 5 2 4 6
M  V30 6 2 5 7
M  V30 7 1 5 8
M  V30 8 1 7 9
M  V30 9 1 9 10
M  V30 10 2 10 11
M  V30 11 1 10 12
M  V30 12 1 12 13
M  V30 13 1 12 14
M  V30 14 1 6 7
M  V30 15 1 3 15
M  V30 16 1 4 16
M  V30 17 1 6 17
M  V30 18 1 8 18
M  V30 19 1 8 19
M  V30 20 1 8 20
M  V30 21 1 9 21
M  V30 22 1 13 22
M  V30 23 1 13 23
M  V30 24 1 13 24
M  V30 25 1 14 25
M  V30 26 1 14 26
M  V30 27 1 14 27
M  V30 END BOND
M  V30 END CTAB
M  END
>  <Structure No>
5019

>  <LogS>
-3.6604

>  <MMFF94 Energy>
-11.254

$$$$
Compound 5020
Actelion Java MolfileCreator 2.0

  0  0  0  0  0  0              0 V3000
M  V30 BEGIN CTAB
M  V30 COUNTS 23 24 0 0 0
M  V30 BEGIN ATOM
M  V30 1 Cl -1.0764 -1.7393 1.5735 0
M  V30 2 C -1.8373 -0.4811 0.609 0
M  V30 3 C -1.3036 -0.0867 -0.6352 0
M  V30 4 C -3.0245 0.0973 1.0727 0
M  V30 5 O -0.1158 -0.6434 -1.1264 0
M  V30 6 C -1.9894 0.8595 -1.4133 0
M  V30 7 C -3.6885 1.0547 0.3025 0
M  V30 8 C 1.1295 -0.549 -0.4875 0
M  V30 9 Cl -1.3582 1.354 -2.9763 0
M  V30 10 C -3.1752 1.4318 -0.9399 0
M  V30 11 C 2.1636 -1.3952 -0.9071 0
M  V30 12 C 1.3766 0.3833 0.5391 0
M  V30 13 C 3.4221 -1.329 -0.3012 0
M  V30 14 C 2.6361 0.4467 1.1432 0
M  V30 15 C 3.6576 -0.41 0.7248 0
M  V30 16 H -3.4399 -0.2024 2.0265 0
M  V30 17 H -4.607 1.498 0.665 0
M  V30 18 H -3.6996 2.1689 -1.5347 0
M  V30 19 H 1.989 -2.1092 -1.7018 0
M  V30 20 H 0.603 1.0648 0.8675 0
M  V30 21 H 4.2146 -1.9896 -0.6276 0
M  V30 22 H 2.8213 1.163 1.9332 0
M  V30 23 H 4.632 -0.3592 1.1928 0
M  V30 END ATOM
M  V30 BEGIN BOND
M  V30 1 1 1 2
M  V30 2 2 2 3
M  V30 3 1 2 4
M  V30 4 1 3 5
M  V30 5 1 3 6
M  V30 6 2 4 7
M  V30 7 1 5 8
M  V30 8 1 6 9
M  V30 9 2 6 10
M  V30 10 2 8 11
M  V30 11 1 8 12
M  V30 12 1 11 13
M  V30 13 2 12 14
M  V30 14 2 13 15
M  V30 15 1 7 10
M  V30 16 1 14 15
M  V30 17 1 4 16
M  V30 18 1 7 17
M  V30 19 1 10 18
M  V30 20 1 11 19
M  V30 21 1 12 20
M  V30 22 1 13 21
M  V30 23 1 14 22
M  V30 24 1 15 23
M  V30 END BOND
M  V30 END CTAB
M  END
>  <Structure No>
5020

>  <LogS>
-5.0605

>  <MMFF94 Energy>
52.859

$$$$
Compound 5021
Actelion Java MolfileCreator 2.0

  0  0  0  0  0  0              0 V3000
M  V30 BEGIN CTAB
M  V30 COUNTS 51 53 0 0 0
M  V30 BEGIN ATOM
M  V30 1 O -0.3978 -1.7513 0.0795 0
M  V30 2 C -1.0405 -0.6663 0.0878 0
M  V30 3 O -0.4591 0.5066 0.5825 0
M  V30 4 C -2.4218 -0.6213 -0.4916 0 CFG=1
M  V30 5 C 0.8532 0.555 1.1374 0
M  V30 6 C -3.5241 -1.3808 0.2619 0
M  V30 7 C -3.4407 0.1481 0.3611 0 CFG=2
M  V30 8 C 1.8848 0.3589 0.07 0
M  V30 9 C -4.6112 -2.0068 -0.6249 0
M  V30 10 C -3.1664 -2.1347 1.5516 0
M  V30 11 C -4.4507 0.9405 -0.4322 0
M  V30 12 C 1.9935 1.0681 -1.1099 0
M  V30 13 C 2.9372 -0.531 0.0975 0
M  V30 14 C -5.6441 1.3079 0.0764 0
M  V30 15 O 3.041 0.6403 -1.7768 0
M  V30 16 C 3.6196 -0.315 -1.0836 0
M  V30 17 C -6.5927 2.092 -0.7916 0
M  V30 18 C -6.0388 0.9491 1.4896 0
M  V30 19 C 4.8685 -1.0172 -1.5106 0
M  V30 20 C 6.0727 -0.2699 -1.009 0
M  V30 21 C 6.6132 -0.5629 0.2545 0
M  V30 22 C 6.6297 0.7701 -1.7722 0
M  V30 23 C 7.7099 0.1593 0.7355 0
M  V30 24 C 7.7265 1.4898 -1.2872 0
M  V30 25 C 8.2677 1.1833 -0.0355 0
M  V30 26 H -2.5304 -0.529 -1.5939 0
M  V30 27 H 1.0082 1.551 1.6019 0
M  V30 28 H 0.9568 -0.2163 1.9315 0
M  V30 29 H -3.0542 0.5771 1.3117 0
M  V30 30 H -4.3432 -3.0613 -0.846 0
M  V30 31 H -5.5827 -1.993 -0.0882 0
M  V30 32 H -4.7313 -1.4735 -1.5919 0
M  V30 33 H -4.0917 -2.3264 2.1338 0
M  V30 34 H -2.4665 -1.5644 2.1985 0
M  V30 35 H -2.7005 -3.1086 1.2936 0
M  V30 36 H -4.1968 1.228 -1.4496 0
M  V30 37 H 1.3327 1.8562 -1.4465 0
M  V30 38 H 3.1828 -1.2371 0.8801 0
M  V30 39 H -6.1205 3.0511 -1.0917 0
M  V30 40 H -7.5398 2.3211 -0.2609 0
M  V30 41 H -6.837 1.5071 -1.7034 0
M  V30 42 H -5.3217 1.4001 2.2071 0
M  V30 43 H -7.0539 1.3231 1.7371 0
M  V30 44 H -6.0381 -0.1536 1.6166 0
M  V30 45 H 4.8678 -2.0579 -1.1192 0
M  V30 46 H 4.8914 -1.0838 -2.6196 0
M  V30 47 H 6.1835 -1.3468 0.8664 0
M  V30 48 H 6.2133 1.0243 -2.7392 0
M  V30 49 H 8.1254 -0.0722 1.7079 0
M  V30 50 H 8.1539 2.2882 -1.8799 0
M  V30 51 H 9.1154 1.7422 0.3389 0
M  V30 END ATOM
M  V30 BEGIN BOND
M  V30 1 2 1 2
M  V30 2 1 2 3
M  V30 3 1 2 4
M  V30 4 1 3 5
M  V30 5 1 4 6
M  V30 6 1 4 7
M  V30 7 1 5 8
M  V30 8 1 6 9
M  V30 9 1 6 10
M  V30 10 1 7 11
M  V30 11 2 8 12
M  V30 12 1 8 13
M  V30 13 2 11 14
M  V30 14 1 12 15
M  V30 15 2 13 16
M  V30 16 1 14 17
M  V30 17 1 14 18
M  V30 18 1 16 19
M  V30 19 1 19 20
M  V30 20 2 20 21
M  V30 21 1 20 22
M  V30 22 1 21 23
M  V30 23 2 22 24
M  V30 24 2 23 25
M  V30 25 1 6 7
M  V30 26 1 15 16
M  V30 27 1 24 25
M  V30 28 1 4 26
M  V30 29 1 5 27
M  V30 30 1 5 28
M  V30 31 1 7 29
M  V30 32 1 9 30
M  V30 33 1 9 31
M  V30 34 1 9 32
M  V30 35 1 10 33
M  V30 36 1 10 34
M  V30 37 1 10 35
M  V30 38 1 11 36
M  V30 39 1 12 37
M  V30 40 1 13 38
M  V30 41 1 17 39
M  V30 42 1 17 40
M  V30 43 1 17 41
M  V30 44 1 18 42
M  V30 45 1 18 43
M  V30 46 1 18 44
M  V30 47 1 19 45
M  V30 48 1 19 46
M  V30 49 1 21 47
M  V30 50 1 22 48
M  V30 51 1 23 49
M  V30 52 1 24 50
M  V30 53 1 25 51
M  V30 END BOND
M  V30 BEGIN COLLECTION
M  V30 MDLV30/STEABS ATOMS=(2 4 7)
M  V30 END COLLECTION
M  V30 END CTAB
M  END
>  <Structure No>
5021

>  <LogS>
-6.0524

>  <MMFF94 Energy>
45.123

$$$$
Compound 5022
Actelion Java MolfileCreator 2.0

  0  0  0  0  0  0              0 V3000
M  V30 BEGIN CTAB
M  V30 COUNTS 18 18 0 0 0
M  V30 BEGIN ATOM
M  V30 1 S 1.1456 0.5286 -1.7628 0
M  V30 2 S -0.7335 1.4676 -1.3996 0
M  V30 3 C 1.529 0.3711 0.0136 0 CFG=2
M  V30 4 C -1.4591 -0.0329 -0.6583 0 CFG=2
M  V30 5 C 2.9747 7.0E-4 0.1628 0
M  V30 6 C 0.6362 -0.7061 0.6539 0
M  V30 7 C -2.9416 0.1589 -0.5366 0
M  V30 8 C -0.8415 -0.2898 0.7274 0
M  V30 9 O 3.7612 0.7605 0.7876 0
M  V30 10 O 3.4566 -1.1818 -0.386 0 CHG=-1
M  V30 11 O -3.7315 -0.6163 -1.1371 0
M  V30 12 O -3.4545 1.1925 0.2391 0 CHG=-1
M  V30 13 H 1.3567 1.3483 0.5177 0
M  V30 14 H -1.2651 -0.9048 -1.3224 0
M  V30 15 H 0.7244 -1.6608 0.0894 0
M  V30 16 H 0.9868 -0.899 1.6921 0
M  V30 17 H -0.9397 0.6174 1.3638 0
M  V30 18 H -1.4014 -1.1105 1.2283 0
M  V30 END ATOM
M  V30 BEGIN BOND
M  V30 1 1 1 2
M  V30 2 1 1 3
M  V30 3 1 2 4
M  V30 4 1 3 5
M  V30 5 1 3 6
M  V30 6 1 4 7
M  V30 7 1 4 8
M  V30 8 2 5 9
M  V30 9 1 5 10
M  V30 10 2 7 11
M  V30 11 1 7 12
M  V30 12 1 6 8
M  V30 13 1 3 13
M  V30 14 1 4 14
M  V30 15 1 6 15
M  V30 16 1 6 16
M  V30 17 1 8 17
M  V30 18 1 8 18
M  V30 END BOND
M  V30 BEGIN COLLECTION
M  V30 MDLV30/STEABS ATOMS=(2 3 4)
M  V30 END COLLECTION
M  V30 END CTAB
M  END
>  <Structure No>
5022

>  <LogS>
-1.1709

>  <MMFF94 Energy>
125.43

$$$$
Compound 5023
Actelion Java MolfileCreator 2.0

  0  0  0  0  0  0              0 V3000
M  V30 BEGIN CTAB
M  V30 COUNTS 16 16 0 0 0
M  V30 BEGIN ATOM
M  V30 1 O 3.5682 0.2429 0.8911 0
M  V30 2 N 2.4856 -0.3777 0.9269 0 CHG=1
M  V30 3 O 2.4409 -1.5812 1.5932 0 CHG=-1
M  V30 4 C 1.3018 0.1457 0.2872 0
M  V30 5 C 1.2989 1.3732 -0.4021 0
M  V30 6 C 0.0967 -0.5724 0.3358 0
M  V30 7 O 2.3407 2.0753 -0.4882 0
M  V30 8 N 0.1588 1.8149 -0.9881 0 CHG=-1
M  V30 9 N -1.0338 -0.0892 -0.2605 0
M  V30 10 C -0.995 1.1042 -0.9282 0
M  V30 11 C -2.279 -0.8654 -0.2057 0
M  V30 12 O -2.0257 1.5586 -1.4952 0
M  V30 13 H 0.0664 -1.5228 0.8547 0
M  V30 14 H -3.1044 -0.2321 0.1845 0
M  V30 15 H -2.5422 -1.2225 -1.224 0
M  V30 16 H -2.1858 -1.7489 0.4623 0
M  V30 END ATOM
M  V30 BEGIN BOND
M  V30 1 2 1 2
M  V30 2 1 2 3
M  V30 3 1 2 4
M  V30 4 1 4 5
M  V30 5 2 4 6
M  V30 6 2 5 7
M  V30 7 1 5 8
M  V30 8 1 6 9
M  V30 9 1 8 10
M  V30 10 1 9 11
M  V30 11 2 10 12
M  V30 12 1 9 10
M  V30 13 1 6 13
M  V30 14 1 11 14
M  V30 15 1 11 15
M  V30 16 1 11 16
M  V30 END BOND
M  V30 END CTAB
M  END
>  <Structure No>
5023

>  <LogS>
-1.9977

>  <MMFF94 Energy>
26.368

$$$$
Compound 5024
Actelion Java MolfileCreator 2.0

  0  0  0  0  0  0              0 V3000
M  V30 BEGIN CTAB
M  V30 COUNTS 35 35 0 0 0
M  V30 BEGIN ATOM
M  V30 1 F 4.8731 -0.4054 -0.892 0
M  V30 2 C 4.1285 -1.2685 -0.1087 0
M  V30 3 F 4.6195 -1.2577 1.1848 0
M  V30 4 F 4.2876 -2.5489 -0.6112 0
M  V30 5 C 2.6744 -0.8319 -0.1106 0
M  V30 6 C 2.2773 0.4129 0.437 0
M  V30 7 C 1.6982 -1.6772 -0.6603 0
M  V30 8 N 3.2444 1.2868 1.0471 0
M  V30 9 C 0.911 0.7834 0.4255 0
M  V30 10 C 0.3428 -1.3285 -0.6702 0
M  V30 11 N 0.5195 2.0735 0.9206 0 CHG=1
M  V30 12 C -0.0614 -0.0936 -0.1102 0
M  V30 13 N -0.6007 -2.2533 -1.243 0 CHG=1
M  V30 14 O 1.0431 3.1076 0.4567 0
M  V30 15 O -0.4004 2.1851 1.9358 0 CHG=-1
M  V30 16 N -1.4577 0.2625 -0.0577 0
M  V30 17 O -1.5861 -1.8472 -1.8907 0
M  V30 18 O -0.345 -3.6051 -1.2113 0 CHG=-1
M  V30 19 C -2.0884 0.9503 -1.1939 0
M  V30 20 C -2.2501 -0.0733 1.1345 0
M  V30 21 C -2.1559 2.4571 -0.9696 0
M  V30 22 C -2.9002 -1.4451 0.9995 0
M  V30 23 H 1.9879 -2.6231 -1.0985 0
M  V30 24 H 4.2699 1.1803 0.8959 0
M  V30 25 H 2.9549 2.0477 1.6999 0
M  V30 26 H -3.1188 0.5605 -1.3409 0
M  V30 27 H -1.52 0.7549 -2.1292 0
M  V30 28 H -1.6053 -0.0734 2.0395 0
M  V30 29 H -3.0458 0.6865 1.2901 0
M  V30 30 H -1.1407 2.8977 -1.0206 0
M  V30 31 H -2.7725 2.9218 -1.7676 0
M  V30 32 H -2.6152 2.691 0.0133 0
M  V30 33 H -2.1241 -2.2373 0.9705 0
M  V30 34 H -3.5554 -1.632 1.8764 0
M  V30 35 H -3.519 -1.493 0.0793 0
M  V30 END ATOM
M  V30 BEGIN BOND
M  V30 1 1 1 2
M  V30 2 1 2 3
M  V30 3 1 2 4
M  V30 4 1 2 5
M  V30 5 2 5 6
M  V30 6 1 5 7
M  V30 7 1 6 8
M  V30 8 1 6 9
M  V30 9 2 7 10
M  V30 10 1 9 11
M  V30 11 2 9 12
M  V30 12 1 10 13
M  V30 13 2 11 14
M  V30 14 1 11 15
M  V30 15 1 12 16
M  V30 16 2 13 17
M  V30 17 1 13 18
M  V30 18 1 16 19
M  V30 19 1 16 20
M  V30 20 1 19 21
M  V30 21 1 20 22
M  V30 22 1 10 12
M  V30 23 1 7 23
M  V30 24 1 8 24
M  V30 25 1 8 25
M  V30 26 1 19 26
M  V30 27 1 19 27
M  V30 28 1 20 28
M  V30 29 1 20 29
M  V30 30 1 21 30
M  V30 31 1 21 31
M  V30 32 1 21 32
M  V30 33 1 22 33
M  V30 34 1 22 34
M  V30 35 1 22 35
M  V30 END BOND
M  V30 END CTAB
M  END
>  <Structure No>
5024

>  <LogS>
-5.4668

>  <MMFF94 Energy>
163.17

$$$$
Compound 5025
Actelion Java MolfileCreator 2.0

  0  0  0  0  0  0              0 V3000
M  V30 BEGIN CTAB
M  V30 COUNTS 43 44 0 0 0
M  V30 BEGIN ATOM
M  V30 1 Cl -4.7624 0.4835 -2.7423 0
M  V30 2 C -4.0475 0.3531 -1.1419 0
M  V30 3 C -2.6547 0.2788 -0.9715 0
M  V30 4 C -4.8906 0.2863 -0.0321 0
M  V30 5 O -1.8028 0.3843 -2.0749 0
M  V30 6 C -2.1123 0.0909 0.318 0
M  V30 7 C -4.3602 0.1345 1.2482 0
M  V30 8 C -1.5321 1.6362 -2.6939 0
M  V30 9 C -2.9697 0.0278 1.4374 0
M  V30 10 C -0.6456 -0.0238 0.4994 0
M  V30 11 O -2.4127 -0.1581 2.7143 0
M  V30 12 O -0.0882 0.622 1.4278 0
M  V30 13 N 0.1514 -0.8781 -0.3464 0
M  V30 14 C -3.1642 -0.2512 3.9201 0
M  V30 15 O 1.5063 -0.6446 -0.5142 0
M  V30 16 C -0.3374 -2.2118 -0.7014 0
M  V30 17 C 2.0588 0.6334 -0.6695 0
M  V30 18 C -0.1372 -3.1772 0.4608 0
M  V30 19 O 1.3103 1.6268 -0.8781 0
M  V30 20 C 3.5268 0.808 -0.6267 0
M  V30 21 C 4.367 -0.2986 -0.4064 0
M  V30 22 C 4.1052 2.0794 -0.8026 0
M  V30 23 C 5.7552 -0.1355 -0.3643 0
M  V30 24 C 5.494 2.2364 -0.7594 0
M  V30 25 C 6.3181 1.1304 -0.5406 0
M  V30 26 H -5.964 0.3455 -0.1612 0
M  V30 27 H -5.0433 0.0862 2.085 0
M  V30 28 H -0.7799 1.49 -3.4956 0
M  V30 29 H -1.1272 2.3493 -1.9456 0
M  V30 30 H -2.4546 2.0591 -3.1406 0
M  V30 31 H -3.8537 -1.1204 3.8741 0
M  V30 32 H -2.4672 -0.3959 4.7707 0
M  V30 33 H -3.7376 0.685 4.0861 0
M  V30 34 H -1.412 -2.1834 -0.9768 0
M  V30 35 H 0.2219 -2.585 -1.5859 0
M  V30 36 H 0.9383 -3.2308 0.7323 0
M  V30 37 H -0.7211 -2.8396 1.3436 0
M  V30 38 H -0.485 -4.1903 0.1689 0
M  V30 39 H 3.9538 -1.2894 -0.266 0
M  V30 40 H 3.4861 2.9515 -0.973 0
M  V30 41 H 6.3949 -0.9917 -0.1942 0
M  V30 42 H 5.9314 3.217 -0.8957 0
M  V30 43 H 7.3927 1.2543 -0.5076 0
M  V30 END ATOM
M  V30 BEGIN BOND
M  V30 1 1 1 2
M  V30 2 2 2 3
M  V30 3 1 2 4
M  V30 4 1 3 5
M  V30 5 1 3 6
M  V30 6 2 4 7
M  V30 7 1 5 8
M  V30 8 2 6 9
M  V30 9 1 6 10
M  V30 10 1 9 11
M  V30 11 2 10 12
M  V30 12 1 10 13
M  V30 13 1 11 14
M  V30 14 1 13 15
M  V30 15 1 13 16
M  V30 16 1 15 17
M  V30 17 1 16 18
M  V30 18 2 17 19
M  V30 19 1 17 20
M  V30 20 2 20 21
M  V30 21 1 20 22
M  V30 22 1 21 23
M  V30 23 2 22 24
M  V30 24 2 23 25
M  V30 25 1 7 9
M  V30 26 1 24 25
M  V30 27 1 4 26
M  V30 28 1 7 27
M  V30 29 1 8 28
M  V30 30 1 8 29
M  V30 31 1 8 30
M  V30 32 1 14 31
M  V30 33 1 14 32
M  V30 34 1 14 33
M  V30 35 1 16 34
M  V30 36 1 16 35
M  V30 37 1 18 36
M  V30 38 1 18 37
M  V30 39 1 18 38
M  V30 40 1 21 39
M  V30 41 1 22 40
M  V30 42 1 23 41
M  V30 43 1 24 42
M  V30 44 1 25 43
M  V30 END BOND
M  V30 END CTAB
M  END
>  <Structure No>
5025

>  <LogS>
-4.0837

>  <MMFF94 Energy>
116.36

$$$$
Compound 5026
Actelion Java MolfileCreator 2.0

  0  0  0  0  0  0              0 V3000
M  V30 BEGIN CTAB
M  V30 COUNTS 42 42 0 0 0
M  V30 BEGIN ATOM
M  V30 1 O 5.9527 -2.5813 -0.1562 0
M  V30 2 C 6.091 -1.3337 -0.2641 0
M  V30 3 N 7.0214 -0.6493 0.5745 0
M  V30 4 C 5.2454 -0.5721 -1.238 0
M  V30 5 C 4.0154 -0.0436 -0.5531 0
M  V30 6 C 4.0216 1.2311 0.0328 0
M  V30 7 C 2.8667 -0.8424 -0.4464 0
M  V30 8 C 2.8872 1.708 0.6953 0
M  V30 9 C 1.7322 -0.3651 0.2167 0
M  V30 10 C 1.7331 0.9216 0.7901 0
M  V30 11 O 0.6236 1.4542 1.4675 0
M  V30 12 C -0.6647 0.8445 1.5587 0
M  V30 13 C -1.4309 0.976 0.2312 0 CFG=2
M  V30 14 O -1.6283 2.3346 -0.0661 0
M  V30 15 C -2.7955 0.2699 0.3283 0
M  V30 16 N -3.5052 0.3051 -0.9661 0 CHG=1
M  V30 17 C -4.8114 -0.3954 -0.9729 0
M  V30 18 C -4.673 -1.9083 -0.7345 0
M  V30 19 C -5.8227 0.2283 0.0029 0
M  V30 20 H 7.5982 -1.1799 1.2643 0
M  V30 21 H 7.1335 0.3867 0.5113 0
M  V30 22 H 4.9569 -1.2344 -2.0834 0
M  V30 23 H 5.8367 0.2636 -1.671 0
M  V30 24 H 4.9045 1.8558 -0.0227 0
M  V30 25 H 2.8509 -1.8368 -0.8751 0
M  V30 26 H 2.9044 2.6956 1.1386 0
M  V30 27 H 0.8667 -1.0087 0.28 0
M  V30 28 H -1.2363 1.365 2.3567 0
M  V30 29 H -0.567 -0.2179 1.8683 0
M  V30 30 H -0.8464 0.4881 -0.5819 0
M  V30 31 H -0.7849 2.667 -0.4709 0
M  V30 32 H -2.6184 -0.7821 0.6381 0
M  V30 33 H -3.3972 0.7755 1.1144 0
M  V30 34 H -2.896 -0.1245 -1.7018 0
M  V30 35 H -3.6677 1.3025 -1.2406 0
M  V30 36 H -5.2443 -0.2768 -1.9926 0
M  V30 37 H -3.8835 -2.332 -1.3904 0
M  V30 38 H -4.4266 -2.1313 0.3244 0
M  V30 39 H -5.6319 -2.4148 -0.9757 0
M  V30 40 H -5.5612 -7.0E-4 1.0571 0
M  V30 41 H -5.8602 1.3299 -0.1327 0
M  V30 42 H -6.8366 -0.18 -0.1952 0
M  V30 END ATOM
M  V30 BEGIN BOND
M  V30 1 2 1 2
M  V30 2 1 2 3
M  V30 3 1 2 4
M  V30 4 1 4 5
M  V30 5 2 5 6
M  V30 6 1 5 7
M  V30 7 1 6 8
M  V30 8 2 7 9
M  V30 9 2 8 10
M  V30 10 1 10 11
M  V30 11 1 11 12
M  V30 12 1 12 13
M  V30 13 1 13 14
M  V30 14 1 13 15
M  V30 15 1 15 16
M  V30 16 1 16 17
M  V30 17 1 17 18
M  V30 18 1 17 19
M  V30 19 1 9 10
M  V30 20 1 3 20
M  V30 21 1 3 21
M  V30 22 1 4 22
M  V30 23 1 4 23
M  V30 24 1 6 24
M  V30 25 1 7 25
M  V30 26 1 8 26
M  V30 27 1 9 27
M  V30 28 1 12 28
M  V30 29 1 12 29
M  V30 30 1 13 30
M  V30 31 1 14 31
M  V30 32 1 15 32
M  V30 33 1 15 33
M  V30 34 1 16 34
M  V30 35 1 16 35
M  V30 36 1 17 36
M  V30 37 1 18 37
M  V30 38 1 18 38
M  V30 39 1 18 39
M  V30 40 1 19 40
M  V30 41 1 19 41
M  V30 42 1 19 42
M  V30 END BOND
M  V30 BEGIN COLLECTION
M  V30 MDLV30/STEABS ATOMS=(1 13)
M  V30 END COLLECTION
M  V30 END CTAB
M  END
>  <Structure No>
5026

>  <LogS>
-1.3016

>  <MMFF94 Energy>
46.152

$$$$
Compound 5027
Actelion Java MolfileCreator 2.0

  0  0  0  0  0  0              0 V3000
M  V30 BEGIN CTAB
M  V30 COUNTS 25 24 0 0 0
M  V30 BEGIN ATOM
M  V30 1 O -1.3256 1.7937 -1.1695 0
M  V30 2 C -0.3829 1.5612 -0.3642 0
M  V30 3 N 0.2934 2.6692 0.2379 0
M  V30 4 C 0.1086 0.1315 -0.1412 0
M  V30 5 C 0.4799 -0.0608 1.3316 0
M  V30 6 C -0.9871 -0.9107 -0.5401 0
M  V30 7 C 1.3657 -0.0228 -1.0631 0
M  V30 8 O 1.4798 -0.7568 1.654 0
M  V30 9 N -0.3167 0.5093 2.3759 0
M  V30 10 C -2.2961 -0.8217 0.2558 0
M  V30 11 C 1.8588 -1.4566 -1.3094 0
M  V30 12 H 1.1433 2.5294 0.8277 0
M  V30 13 H -0.0407 3.6434 0.0662 0
M  V30 14 H -0.5987 -1.9411 -0.3928 0
M  V30 15 H -1.2251 -0.8026 -1.6214 0
M  V30 16 H 1.149 0.4127 -2.0649 0
M  V30 17 H 2.2075 0.5688 -0.6392 0
M  V30 18 H -1.1679 1.0761 2.1673 0
M  V30 19 H -0.0543 0.3586 3.3752 0
M  V30 20 H -2.1352 -1.1352 1.308 0
M  V30 21 H -3.042 -1.5127 -0.1905 0
M  V30 22 H -2.7217 0.2015 0.2369 0
M  V30 23 H 1.9842 -2.024 -0.3668 0
M  V30 24 H 2.8423 -1.4209 -1.8238 0
M  V30 25 H 1.1545 -2.0014 -1.9725 0
M  V30 END ATOM
M  V30 BEGIN BOND
M  V30 1 2 1 2
M  V30 2 1 2 3
M  V30 3 1 2 4
M  V30 4 1 4 5
M  V30 5 1 4 6
M  V30 6 1 4 7
M  V30 7 2 5 8
M  V30 8 1 5 9
M  V30 9 1 6 10
M  V30 10 1 7 11
M  V30 11 1 3 12
M  V30 12 1 3 13
M  V30 13 1 6 14
M  V30 14 1 6 15
M  V30 15 1 7 16
M  V30 16 1 7 17
M  V30 17 1 9 18
M  V30 18 1 9 19
M  V30 19 1 10 20
M  V30 20 1 10 21
M  V30 21 1 10 22
M  V30 22 1 11 23
M  V30 23 1 11 24
M  V30 24 1 11 25
M  V30 END BOND
M  V30 END CTAB
M  END
>  <Structure No>
5027

>  <LogS>
-1.1992

>  <MMFF94 Energy>
-31.618

$$$$
Compound 5028
Actelion Java MolfileCreator 2.0

  0  0  0  0  0  0              0 V3000
M  V30 BEGIN CTAB
M  V30 COUNTS 51 50 0 0 0
M  V30 BEGIN ATOM
M  V30 1 O -4.5905 0.7768 0.466 0
M  V30 2 C -4.7673 -0.5578 0.0637 0 CFG=2
M  V30 3 C -4.1363 -0.7971 -1.3282 0
M  V30 4 C -6.268 -0.9327 0.0589 0
M  V30 5 C -2.5973 -0.7559 -1.3219 0
M  V30 6 C -6.887 -1.0089 1.4662 0
M  V30 7 C -2.0303 0.6653 -1.1572 0
M  V30 8 C -7.1333 0.3627 2.0939 0
M  V30 9 C -0.537 0.7497 -1.5104 0
M  V30 10 C 0.3499 -5.0E-4 -0.5058 0
M  V30 11 C 1.8361 0.2093 -0.8207 0
M  V30 12 C 2.7224 -0.5418 0.1844 0
M  V30 13 C 4.2164 -0.4688 -0.1699 0
M  V30 14 C 4.8228 0.9172 0.1098 0
M  V30 15 C 6.318 0.9883 -0.24 0
M  V30 16 C 7.1997 0.2394 0.7704 0
M  V30 17 C 8.6805 0.445 0.4647 0
M  V30 18 H -5.0562 1.3552 -0.1933 0
M  V30 19 H -4.2494 -1.2148 0.7962 0
M  V30 20 H -4.4307 -1.8089 -1.6839 0
M  V30 21 H -4.5371 -0.0677 -2.0658 0
M  V30 22 H -6.382 -1.9397 -0.399 0
M  V30 23 H -6.8426 -0.2226 -0.5755 0
M  V30 24 H -2.2462 -1.1723 -2.2915 0
M  V30 25 H -2.2128 -1.4163 -0.5153 0
M  V30 26 H -7.867 -1.5275 1.3848 0
M  V30 27 H -6.2447 -1.6179 2.1384 0
M  V30 28 H -2.1738 1.0161 -0.1136 0
M  V30 29 H -2.5799 1.3591 -1.8302 0
M  V30 30 H -6.177 0.8359 2.395 0
M  V30 31 H -7.6736 1.0269 1.3863 0
M  V30 32 H -7.7539 0.2429 3.0069 0
M  V30 33 H -0.3691 0.3515 -2.5351 0
M  V30 34 H -0.2466 1.8234 -1.5157 0
M  V30 35 H 0.1378 0.367 0.5223 0
M  V30 36 H 0.1228 -1.0872 -0.5484 0
M  V30 37 H 2.0606 1.2961 -0.7797 0
M  V30 38 H 2.0474 -0.159 -1.8486 0
M  V30 39 H 2.5574 -0.1416 1.209 0
M  V30 40 H 2.4248 -1.6135 0.1908 0
M  V30 41 H 4.7417 -1.2279 0.4464 0
M  V30 42 H 4.364 -0.7412 -1.2378 0
M  V30 43 H 4.3001 1.6758 -0.5092 0
M  V30 44 H 4.6721 1.1914 1.177 0
M  V30 45 H 6.6168 2.0597 -0.2482 0
M  V30 46 H 6.486 0.5849 -1.2627 0
M  V30 47 H 6.9921 0.6083 1.7984 0
M  V30 48 H 6.984 -0.8487 0.7349 0
M  V30 49 H 8.9198 0.0692 -0.5529 0
M  V30 50 H 8.9427 1.5226 0.5291 0
M  V30 51 H 9.2937 -0.1134 1.2029 0
M  V30 END ATOM
M  V30 BEGIN BOND
M  V30 1 1 1 2
M  V30 2 1 2 3
M  V30 3 1 2 4
M  V30 4 1 3 5
M  V30 5 1 4 6
M  V30 6 1 5 7
M  V30 7 1 6 8
M  V30 8 1 7 9
M  V30 9 1 9 10
M  V30 10 1 10 11
M  V30 11 1 11 12
M  V30 12 1 12 13
M  V30 13 1 13 14
M  V30 14 1 14 15
M  V30 15 1 15 16
M  V30 16 1 16 17
M  V30 17 1 1 18
M  V30 18 1 2 19
M  V30 19 1 3 20
M  V30 20 1 3 21
M  V30 21 1 4 22
M  V30 22 1 4 23
M  V30 23 1 5 24
M  V30 24 1 5 25
M  V30 25 1 6 26
M  V30 26 1 6 27
M  V30 27 1 7 28
M  V30 28 1 7 29
M  V30 29 1 8 30
M  V30 30 1 8 31
M  V30 31 1 8 32
M  V30 32 1 9 33
M  V30 33 1 9 34
M  V30 34 1 10 35
M  V30 35 1 10 36
M  V30 36 1 11 37
M  V30 37 1 11 38
M  V30 38 1 12 39
M  V30 39 1 12 40
M  V30 40 1 13 41
M  V30 41 1 13 42
M  V30 42 1 14 43
M  V30 43 1 14 44
M  V30 44 1 15 45
M  V30 45 1 15 46
M  V30 46 1 16 47
M  V30 47 1 16 48
M  V30 48 1 17 49
M  V30 49 1 17 50
M  V30 50 1 17 51
M  V30 END BOND
M  V30 BEGIN COLLECTION
M  V30 MDLV30/STEABS ATOMS=(1 2)
M  V30 END COLLECTION
M  V30 END CTAB
M  END
>  <Structure No>
5028

>  <LogS>
-6.7708

>  <MMFF94 Energy>
0.77286

$$$$
Compound 5029
Actelion Java MolfileCreator 2.0

  0  0  0  0  0  0              0 V3000
M  V30 BEGIN CTAB
M  V30 COUNTS 33 35 0 0 0
M  V30 BEGIN ATOM
M  V30 1 O 0.7202 -1.6812 1.6812 0
M  V30 2 C 0.2078 -1.1017 0.6849 0
M  V30 3 N 1.0499 -0.6094 -0.3738 0
M  V30 4 C -1.2659 -1.021 0.5786 0
M  V30 5 O 0.5263 -0.4853 -1.62 0
M  V30 6 C 2.4295 -0.2535 -0.1535 0
M  V30 7 C -1.9483 0.1929 0.2985 0
M  V30 8 C -2.0048 -2.2028 0.7487 0
M  V30 9 C 3.3738 -0.4254 -1.181 0
M  V30 10 C 2.8455 0.3149 1.0658 0
M  V30 11 C -3.3616 0.175 0.145 0
M  V30 12 C -1.274 1.4294 0.2011 0
M  V30 13 C -3.3918 -2.2045 0.6043 0
M  V30 14 C 4.7099 -0.0636 -0.9831 0
M  V30 15 C 4.1824 0.6762 1.2585 0
M  V30 16 C -4.0679 -1.0263 0.2943 0
M  V30 17 C -4.0525 1.3627 -0.1427 0
M  V30 18 C -1.9776 2.6023 -0.0827 0
M  V30 19 C 5.1144 0.484 0.2363 0
M  V30 20 C -3.3603 2.5684 -0.2607 0
M  V30 21 H 0.6539 -1.3729 -2.0432 0
M  V30 22 H -1.5012 -3.1359 0.9712 0
M  V30 23 H 3.08 -0.85 -2.1321 0
M  V30 24 H 2.1346 0.4996 1.8606 0
M  V30 25 H -0.2076 1.5066 0.3589 0
M  V30 26 H -3.9449 -3.1269 0.726 0
M  V30 27 H 5.4317 -0.2069 -1.7766 0
M  V30 28 H 4.4943 1.1123 2.1987 0
M  V30 29 H -5.1455 -1.0518 0.1823 0
M  V30 30 H -5.1287 1.3596 -0.2692 0
M  V30 31 H -1.4484 3.5433 -0.1589 0
M  V30 32 H 6.1486 0.7653 0.3869 0
M  V30 33 H -3.899 3.4814 -0.4794 0
M  V30 END ATOM
M  V30 BEGIN BOND
M  V30 1 2 1 2
M  V30 2 1 2 3
M  V30 3 1 2 4
M  V30 4 1 3 5
M  V30 5 1 3 6
M  V30 6 1 4 7
M  V30 7 2 4 8
M  V30 8 2 6 9
M  V30 9 1 6 10
M  V30 10 1 7 11
M  V30 11 2 7 12
M  V30 12 1 8 13
M  V30 13 1 9 14
M  V30 14 2 10 15
M  V30 15 1 11 16
M  V30 16 2 11 17
M  V30 17 1 12 18
M  V30 18 2 14 19
M  V30 19 1 17 20
M  V30 20 2 13 16
M  V30 21 1 15 19
M  V30 22 2 18 20
M  V30 23 1 5 21
M  V30 24 1 8 22
M  V30 25 1 9 23
M  V30 26 1 10 24
M  V30 27 1 12 25
M  V30 28 1 13 26
M  V30 29 1 14 27
M  V30 30 1 15 28
M  V30 31 1 16 29
M  V30 32 1 17 30
M  V30 33 1 18 31
M  V30 34 1 19 32
M  V30 35 1 20 33
M  V30 END BOND
M  V30 END CTAB
M  END
>  <Structure No>
5029

>  <LogS>
-3.9433

>  <MMFF94 Energy>
102.61

$$$$
Compound 5030
Actelion Java MolfileCreator 2.0

  0  0  0  0  0  0              0 V3000
M  V30 BEGIN CTAB
M  V30 COUNTS 33 35 0 0 0
M  V30 BEGIN ATOM
M  V30 1 O 0.6399 1.2802 -1.0401 0
M  V30 2 C 1.1321 0.3139 -0.395 0
M  V30 3 N 0.266 -0.7251 0.0996 0
M  V30 4 C 2.5913 0.287 -0.1507 0
M  V30 5 O 0.7169 -1.6299 1.003 0
M  V30 6 C -1.0876 -0.8329 -0.3613 0
M  V30 7 C 3.309 -0.9221 -0.1813 0
M  V30 8 C 3.2866 1.4886 0.0728 0
M  V30 9 C -2.0994 0.0366 0.1086 0
M  V30 10 C -1.4068 -1.8341 -1.2871 0
M  V30 11 C 4.6903 -0.9292 0.0362 0
M  V30 12 C 4.6676 1.4764 0.2908 0
M  V30 13 C -3.4219 -0.1019 -0.389 0
M  V30 14 C -1.8318 1.0309 1.0699 0
M  V30 15 C -2.7098 -1.9653 -1.7694 0
M  V30 16 C 5.3684 0.2683 0.2759 0
M  V30 17 C -3.7135 -1.1022 -1.3279 0
M  V30 18 C -4.4338 0.7579 0.0654 0
M  V30 19 C -2.8506 1.8782 1.5131 0
M  V30 20 C -4.146 1.7441 1.0111 0
M  V30 21 H 0.5232 -1.2266 1.8879 0
M  V30 22 H 2.8101 -1.8576 -0.3984 0
M  V30 23 H 2.7588 2.4344 0.0907 0
M  V30 24 H -0.6373 -2.508 -1.6421 0
M  V30 25 H 5.2365 -1.8631 0.011 0
M  V30 26 H 5.1946 2.4045 0.4708 0
M  V30 27 H -0.8407 1.1563 1.4862 0
M  V30 28 H -2.9423 -2.7386 -2.49 0
M  V30 29 H 6.4377 0.2608 0.4429 0
M  V30 30 H -4.7185 -1.2202 -1.7155 0
M  V30 31 H -5.4469 0.6653 -0.3079 0
M  V30 32 H -2.6352 2.6408 2.2505 0
M  V30 33 H -4.9304 2.4039 1.359 0
M  V30 END ATOM
M  V30 BEGIN BOND
M  V30 1 2 1 2
M  V30 2 1 2 3
M  V30 3 1 2 4
M  V30 4 1 3 5
M  V30 5 1 3 6
M  V30 6 2 4 7
M  V30 7 1 4 8
M  V30 8 1 6 9
M  V30 9 2 6 10
M  V30 10 1 7 11
M  V30 11 2 8 12
M  V30 12 1 9 13
M  V30 13 2 9 14
M  V30 14 1 10 15
M  V30 15 2 11 16
M  V30 16 1 13 17
M  V30 17 2 13 18
M  V30 18 1 14 19
M  V30 19 1 18 20
M  V30 20 1 12 16
M  V30 21 2 15 17
M  V30 22 2 19 20
M  V30 23 1 5 21
M  V30 24 1 7 22
M  V30 25 1 8 23
M  V30 26 1 10 24
M  V30 27 1 11 25
M  V30 28 1 12 26
M  V30 29 1 14 27
M  V30 30 1 15 28
M  V30 31 1 16 29
M  V30 32 1 17 30
M  V30 33 1 18 31
M  V30 34 1 19 32
M  V30 35 1 20 33
M  V30 END BOND
M  V30 END CTAB
M  END
>  <Structure No>
5030

>  <LogS>
-3.3065

>  <MMFF94 Energy>
112.09

$$$$
Compound 5031
Actelion Java MolfileCreator 2.0

  0  0  0  0  0  0              0 V3000
M  V30 BEGIN CTAB
M  V30 COUNTS 31 32 0 0 0
M  V30 BEGIN ATOM
M  V30 1 O 4.8023 0.8127 -2.4397 0
M  V30 2 N 3.5793 0.7712 -2.1911 0 CHG=1
M  V30 3 O 2.6932 1.184 -3.1598 0 CHG=-1
M  V30 4 C 3.1038 0.3036 -0.9146 0
M  V30 5 C 4.0084 -0.1108 0.0784 0
M  V30 6 C 1.7259 0.2509 -0.6479 0
M  V30 7 C 3.5501 -0.579 1.3223 0
M  V30 8 C 1.2492 -0.2 0.5936 0
M  V30 9 N 4.4816 -1.0076 2.3335 0 CHG=1
M  V30 10 C 2.1679 -0.6235 1.5677 0
M  V30 11 C -0.2065 -0.2634 0.8669 0
M  V30 12 O 5.712 -0.9702 2.124 0
M  V30 13 O 4.0317 -1.467 3.5502 0 CHG=-1
M  V30 14 O -0.6416 -1.0909 1.7142 0
M  V30 15 N -1.1272 0.628 0.2106 0
M  V30 16 O -0.7212 1.8912 -0.0769 0
M  V30 17 C -2.4827 0.2367 -0.0923 0
M  V30 18 C -3.5008 1.2058 -0.1541 0
M  V30 19 C -2.8046 -1.1058 -0.3726 0
M  V30 20 C -4.8135 0.8368 -0.4638 0
M  V30 21 C -4.1188 -1.4693 -0.6825 0
M  V30 22 C -5.1228 -0.4996 -0.7251 0
M  V30 23 H 5.0719 -0.0729 -0.1187 0
M  V30 24 H 1.0226 0.5416 -1.4172 0
M  V30 25 H 1.8045 -0.978 2.5242 0
M  V30 26 H -0.903 2.4148 0.7455 0
M  V30 27 H -3.2838 2.2467 0.0472 0
M  V30 28 H -2.0389 -1.8702 -0.3714 0
M  V30 29 H -5.5916 1.5883 -0.5017 0
M  V30 30 H -4.3573 -2.5031 -0.8963 0
M  V30 31 H -6.1392 -0.7829 -0.9661 0
M  V30 END ATOM
M  V30 BEGIN BOND
M  V30 1 2 1 2
M  V30 2 1 2 3
M  V30 3 1 2 4
M  V30 4 2 4 5
M  V30 5 1 4 6
M  V30 6 1 5 7
M  V30 7 2 6 8
M  V30 8 1 7 9
M  V30 9 2 7 10
M  V30 10 1 8 11
M  V30 11 2 9 12
M  V30 12 1 9 13
M  V30 13 2 11 14
M  V30 14 1 11 15
M  V30 15 1 15 16
M  V30 16 1 15 17
M  V30 17 2 17 18
M  V30 18 1 17 19
M  V30 19 1 18 20
M  V30 20 2 19 21
M  V30 21 2 20 22
M  V30 22 1 8 10
M  V30 23 1 21 22
M  V30 24 1 5 23
M  V30 25 1 6 24
M  V30 26 1 10 25
M  V30 27 1 16 26
M  V30 28 1 18 27
M  V30 29 1 19 28
M  V30 30 1 20 29
M  V30 31 1 21 30
M  V30 32 1 22 31
M  V30 END BOND
M  V30 END CTAB
M  END
>  <Structure No>
5031

>  <LogS>
-3.6367

>  <MMFF94 Energy>
118.32

$$$$
Compound 5032
Actelion Java MolfileCreator 2.0

  0  0  0  0  0  0              0 V3000
M  V30 BEGIN CTAB
M  V30 COUNTS 12 11 0 0 0
M  V30 BEGIN ATOM
M  V30 1 S -1.2901 0.6019 -2.3231 0
M  V30 2 C -1.1904 0.476 -0.6959 0
M  V30 3 S -0.1841 1.6423 0.223 0
M  V30 4 N -1.9445 -0.5179 -0.0049 0
M  V30 5 C 1.3341 0.6332 0.1486 0
M  V30 6 C 1.248 -0.5113 1.1051 0
M  V30 7 O 1.0483 -1.6795 0.6804 0
M  V30 8 O 1.3598 -0.285 2.471 0 CHG=-1
M  V30 9 H -2.5445 -1.1936 -0.5282 0
M  V30 10 H -1.9008 -0.5815 1.0359 0
M  V30 11 H 1.5087 0.2688 -0.8867 0
M  V30 12 H 2.1949 1.2731 0.4333 0
M  V30 END ATOM
M  V30 BEGIN BOND
M  V30 1 2 1 2
M  V30 2 1 2 3
M  V30 3 1 2 4
M  V30 4 1 3 5
M  V30 5 1 5 6
M  V30 6 2 6 7
M  V30 7 1 6 8
M  V30 8 1 4 9
M  V30 9 1 4 10
M  V30 10 1 5 11
M  V30 11 1 5 12
M  V30 END BOND
M  V30 END CTAB
M  END
>  <Structure No>
5032

>  <LogS>
-0.7482

>  <MMFF94 Energy>
-20.394

$$$$
Compound 5033
Actelion Java MolfileCreator 2.0

  0  0  0  0  0  0              0 V3000
M  V30 BEGIN CTAB
M  V30 COUNTS 17 16 0 0 0
M  V30 BEGIN ATOM
M  V30 1 S 0.9427 2.5725 -0.3427 0
M  V30 2 C 0.1614 1.1425 -0.4871 0
M  V30 3 S 0.7664 -0.0601 -1.681 0
M  V30 4 N -1.0289 0.9034 0.2766 0
M  V30 5 C 1.8177 -0.9586 -0.4888 0
M  V30 6 C -1.8341 -0.3046 0.1029 0
M  V30 7 C 3.1003 -0.2264 -0.2647 0
M  V30 8 C -3.0252 -0.2791 1.0074 0
M  V30 9 O 3.9683 -0.1773 -1.1754 0
M  V30 10 O 3.3329 0.4184 0.9434 0 CHG=-1
M  V30 11 O -4.0995 0.2545 0.6249 0
M  V30 12 O -2.9329 -0.7966 2.2931 0 CHG=-1
M  V30 13 H -1.3329 1.6325 0.9626 0
M  V30 14 H 2.043 -1.9624 -0.9053 0
M  V30 15 H 1.2839 -1.1027 0.4743 0
M  V30 16 H -2.1738 -0.3771 -0.9527 0
M  V30 17 H -1.2206 -1.1995 0.3391 0
M  V30 END ATOM
M  V30 BEGIN BOND
M  V30 1 2 1 2
M  V30 2 1 2 3
M  V30 3 1 2 4
M  V30 4 1 3 5
M  V30 5 1 4 6
M  V30 6 1 5 7
M  V30 7 1 6 8
M  V30 8 2 7 9
M  V30 9 1 7 10
M  V30 10 2 8 11
M  V30 11 1 8 12
M  V30 12 1 4 13
M  V30 13 1 5 14
M  V30 14 1 5 15
M  V30 15 1 6 16
M  V30 16 1 6 17
M  V30 END BOND
M  V30 END CTAB
M  END
>  <Structure No>
5033

>  <LogS>
-1.3011

>  <MMFF94 Energy>
88.047

$$$$
Compound 5034
Actelion Java MolfileCreator 2.0

  0  0  0  0  0  0              0 V3000
M  V30 BEGIN CTAB
M  V30 COUNTS 29 30 0 0 0
M  V30 BEGIN ATOM
M  V30 1 O 0.7909 0.079 -2.2159 0
M  V30 2 C 1.1031 -0.1213 -1.0097 0
M  V30 3 N 0.0672 -0.2381 -0.0216 0
M  V30 4 C 2.5341 -0.2504 -0.6421 0
M  V30 5 C -1.3295 0.0462 -0.3511 0
M  V30 6 C 2.9807 0.0376 0.6621 0
M  V30 7 C 3.4764 -0.6423 -1.6118 0
M  V30 8 C -2.2314 -0.1549 0.8691 0
M  V30 9 C 4.3351 -0.0832 0.9893 0
M  V30 10 C 4.8292 -0.7623 -1.2784 0
M  V30 11 C -3.6573 0.1474 0.5247 0
M  V30 12 C 5.2577 -0.4854 0.0213 0
M  V30 13 N -4.2081 1.3704 0.5612 0
M  V30 14 C -4.5881 -0.7413 0.036 0
M  V30 15 C -5.4656 1.2003 0.1116 0
M  V30 16 N -5.7348 -0.0808 -0.2213 0
M  V30 17 H 0.3079 -0.5752 0.9376 0
M  V30 18 H -1.6581 -0.632 -1.1692 0
M  V30 19 H -1.4133 1.0982 -0.7028 0
M  V30 20 H 2.2949 0.3803 1.4252 0
M  V30 21 H 3.1657 -0.8662 -2.6248 0
M  V30 22 H -2.1516 -1.205 1.2254 0
M  V30 23 H -1.9038 0.5177 1.6912 0
M  V30 24 H 4.6705 0.1421 1.9935 0
M  V30 25 H 5.5455 -1.0704 -2.0291 0
M  V30 26 H 6.3054 -0.5774 0.2771 0
M  V30 27 H -3.7588 2.2639 0.8612 0
M  V30 28 H -4.4412 -1.7999 -0.1325 0
M  V30 29 H -6.1825 2.0054 0.0176 0
M  V30 END ATOM
M  V30 BEGIN BOND
M  V30 1 2 1 2
M  V30 2 1 2 3
M  V30 3 1 2 4
M  V30 4 1 3 5
M  V30 5 2 4 6
M  V30 6 1 4 7
M  V30 7 1 5 8
M  V30 8 1 6 9
M  V30 9 2 7 10
M  V30 10 1 8 11
M  V30 11 2 9 12
M  V30 12 1 11 13
M  V30 13 2 11 14
M  V30 14 1 13 15
M  V30 15 1 14 16
M  V30 16 1 10 12
M  V30 17 2 15 16
M  V30 18 1 3 17
M  V30 19 1 5 18
M  V30 20 1 5 19
M  V30 21 1 6 20
M  V30 22 1 7 21
M  V30 23 1 8 22
M  V30 24 1 8 23
M  V30 25 1 9 24
M  V30 26 1 10 25
M  V30 27 1 12 26
M  V30 28 1 13 27
M  V30 29 1 14 28
M  V30 30 1 15 29
M  V30 END BOND
M  V30 END CTAB
M  END
>  <Structure No>
5034

>  <LogS>
-0.634

>  <MMFF94 Energy>
16.833

$$$$
Compound 5035
Actelion Java MolfileCreator 2.0

  0  0  0  0  0  0              0 V3000
M  V30 BEGIN CTAB
M  V30 COUNTS 30 30 0 0 0
M  V30 BEGIN ATOM
M  V30 1 S 1.9278 0.6422 -0.5619 0
M  V30 2 C 1.3211 0.0048 1.0379 0
M  V30 3 C 2.8659 2.0489 0.1327 0
M  V30 4 C 0.4881 -1.2257 0.8022 0
M  V30 5 C 4.281 1.6233 0.5022 0
M  V30 6 C -0.8616 -1.1171 0.405 0
M  V30 7 C 1.0792 -2.4958 0.9129 0
M  V30 8 O -1.4358 0.1582 0.2764 0
M  V30 9 C -1.6117 -2.2882 0.184 0
M  V30 10 C 0.3287 -3.6482 0.6712 0
M  V30 11 C -2.4561 0.5006 -0.6201 0
M  V30 12 C -1.0159 -3.5447 0.3145 0
M  V30 13 O -2.744 -0.2533 -1.59 0
M  V30 14 N -3.134 1.7496 -0.4573 0
M  V30 15 C -4.1898 2.1788 -1.3659 0
M  V30 16 H 0.7129 0.7827 1.5471 0
M  V30 17 H 2.1805 -0.2336 1.6992 0
M  V30 18 H 2.3514 2.4767 1.0193 0
M  V30 19 H 2.9231 2.8418 -0.6424 0
M  V30 20 H 4.8005 1.2104 -0.3882 0
M  V30 21 H 4.2614 0.8553 1.3027 0
M  V30 22 H 4.8491 2.5034 0.8704 0
M  V30 23 H 2.1222 -2.594 1.1879 0
M  V30 24 H -2.663 -2.2351 -0.0644 0
M  V30 25 H 0.7893 -4.6231 0.7656 0
M  V30 26 H -1.5992 -4.44 0.1422 0
M  V30 27 H -2.8651 2.3703 0.3389 0
M  V30 28 H -5.0236 1.4456 -1.3474 0
M  V30 29 H -3.7885 2.2598 -2.3979 0
M  V30 30 H -4.577 3.1712 -1.0521 0
M  V30 END ATOM
M  V30 BEGIN BOND
M  V30 1 1 1 2
M  V30 2 1 1 3
M  V30 3 1 2 4
M  V30 4 1 3 5
M  V30 5 2 4 6
M  V30 6 1 4 7
M  V30 7 1 6 8
M  V30 8 1 6 9
M  V30 9 2 7 10
M  V30 10 1 8 11
M  V30 11 2 9 12
M  V30 12 2 11 13
M  V30 13 1 11 14
M  V30 14 1 14 15
M  V30 15 1 10 12
M  V30 16 1 2 16
M  V30 17 1 2 17
M  V30 18 1 3 18
M  V30 19 1 3 19
M  V30 20 1 5 20
M  V30 21 1 5 21
M  V30 22 1 5 22
M  V30 23 1 7 23
M  V30 24 1 9 24
M  V30 25 1 10 25
M  V30 26 1 12 26
M  V30 27 1 14 27
M  V30 28 1 15 28
M  V30 29 1 15 29
M  V30 30 1 15 30
M  V30 END BOND
M  V30 END CTAB
M  END
>  <Structure No>
5035

>  <LogS>
-2.0927

>  <MMFF94 Energy>
-12.773

$$$$
Compound 5036
Actelion Java MolfileCreator 2.0

  0  0  0  0  0  0              0 V3000
M  V30 BEGIN CTAB
M  V30 COUNTS 12 13 0 0 0
M  V30 BEGIN ATOM
M  V30 1 O -1.4528 -1.1298 -0.1613 0
M  V30 2 C -0.7247 0.0612 -0.3389 0 CFG=1
M  V30 3 C -1.8714 -0.0146 0.5918 0
M  V30 4 C 0.6561 -0.0364 0.301 0 CFG=2
M  V30 5 O 1.3846 1.1542 0.123 0
M  V30 6 C 1.8027 0.0388 -0.6297 0
M  V30 7 H -0.8901 0.5096 -1.342 0
M  V30 8 H -1.6538 -0.1542 1.672 0
M  V30 9 H -2.835 0.3858 0.2141 0
M  V30 10 H 0.8214 -0.4842 1.3045 0
M  V30 11 H 1.5851 0.1784 -1.7099 0
M  V30 12 H 2.766 -0.3619 -0.252 0
M  V30 END ATOM
M  V30 BEGIN BOND
M  V30 1 1 1 2
M  V30 2 1 1 3
M  V30 3 1 2 4
M  V30 4 1 4 5
M  V30 5 1 4 6
M  V30 6 1 2 3
M  V30 7 1 5 6
M  V30 8 1 2 7
M  V30 9 1 3 8
M  V30 10 1 3 9
M  V30 11 1 4 10
M  V30 12 1 6 11
M  V30 13 1 6 12
M  V30 END BOND
M  V30 BEGIN COLLECTION
M  V30 MDLV30/STEABS ATOMS=(2 2 4)
M  V30 END COLLECTION
M  V30 END CTAB
M  END
>  <Structure No>
5036

>  <LogS>
1.065

>  <MMFF94 Energy>
9.9286

$$$$
Compound 5037
Actelion Java MolfileCreator 2.0

  0  0  0  0  0  0              0 V3000
M  V30 BEGIN CTAB
M  V30 COUNTS 28 28 0 0 0
M  V30 BEGIN ATOM
M  V30 1 S 3.4954 1.0809 -0.5819 0
M  V30 2 O 4.5046 0.4259 -1.4826 0
M  V30 3 O 3.4783 2.5571 -0.8612 0
M  V30 4 C 1.9075 0.4149 -0.9056 0
M  V30 5 C 3.9464 0.7976 1.1224 0
M  V30 6 S 0.4846 0.9422 -0.1806 0
M  V30 7 N 1.6837 -0.6127 -1.7514 0
M  V30 8 C 3.9766 -0.692 1.4412 0
M  V30 9 C -0.406 -0.2138 -1.0347 0
M  V30 10 N 0.4008 -0.9636 -1.8214 0
M  V30 11 N -1.8261 -0.4366 -0.9168 0
M  V30 12 C -2.6558 0.4512 -0.1422 0
M  V30 13 C -2.4126 -1.6442 -1.5043 0
M  V30 14 O -2.4313 1.6925 -0.1569 0
M  V30 15 N -3.7466 -0.0633 0.6356 0
M  V30 16 C -4.6517 0.8178 1.3625 0
M  V30 17 H 3.2092 1.3025 1.7818 0
M  V30 18 H 4.9492 1.2364 1.3091 0
M  V30 19 H 2.9719 -1.14 1.2894 0
M  V30 20 H 4.7129 -1.2105 0.7917 0
M  V30 21 H 4.2726 -0.8382 2.5011 0
M  V30 22 H -1.9456 -1.8685 -2.4864 0
M  V30 23 H -2.259 -2.5046 -0.8199 0
M  V30 24 H -3.5005 -1.5065 -1.6839 0
M  V30 25 H -3.8875 -1.0952 0.7138 0
M  V30 26 H -5.4113 0.2155 1.9041 0
M  V30 27 H -4.0803 1.4208 2.0993 0
M  V30 28 H -5.1706 1.4939 0.6509 0
M  V30 END ATOM
M  V30 BEGIN BOND
M  V30 1 2 1 2
M  V30 2 2 1 3
M  V30 3 1 1 4
M  V30 4 1 1 5
M  V30 5 1 4 6
M  V30 6 2 4 7
M  V30 7 1 5 8
M  V30 8 1 6 9
M  V30 9 1 7 10
M  V30 10 1 9 11
M  V30 11 1 11 12
M  V30 12 1 11 13
M  V30 13 2 12 14
M  V30 14 1 12 15
M  V30 15 1 15 16
M  V30 16 2 9 10
M  V30 17 1 5 17
M  V30 18 1 5 18
M  V30 19 1 8 19
M  V30 20 1 8 20
M  V30 21 1 8 21
M  V30 22 1 13 22
M  V30 23 1 13 23
M  V30 24 1 13 24
M  V30 25 1 15 25
M  V30 26 1 16 26
M  V30 27 1 16 27
M  V30 28 1 16 28
M  V30 END BOND
M  V30 END CTAB
M  END
>  <Structure No>
5037

>  <LogS>
-1.945

>  <MMFF94 Energy>
-45.731

$$$$
Compound 5038
Actelion Java MolfileCreator 2.0

  0  0  0  0  0  0              0 V3000
M  V30 BEGIN CTAB
M  V30 COUNTS 21 21 0 0 0
M  V30 BEGIN ATOM
M  V30 1 Cl 4.721 1.4575 -0.1713 0
M  V30 2 C 3.1153 0.7858 0.0786 0
M  V30 3 C 2.2253 1.3513 1.0069 0
M  V30 4 C 2.7286 -0.3388 -0.6589 0
M  V30 5 Cl 2.6738 2.7589 1.9603 0
M  V30 6 C 0.9554 0.7908 1.1822 0
M  V30 7 C 1.4578 -0.898 -0.4845 0
M  V30 8 C 0.5606 -0.3221 0.4316 0
M  V30 9 Cl 1.0334 -2.3482 -1.3817 0
M  V30 10 O -0.7174 -0.8535 0.6239 0
M  V30 11 C -1.7715 -0.6766 -0.3223 0 CFG=1
M  V30 12 C -2.8837 -1.6255 0.0025 0
M  V30 13 C -2.285 0.7632 -0.2797 0
M  V30 14 O -3.4736 -2.249 -0.9187 0
M  V30 15 O -3.2983 -1.7916 1.3184 0 CHG=-1
M  V30 16 H 3.42 -0.7838 -1.3633 0
M  V30 17 H 0.2663 1.2266 1.8949 0
M  V30 18 H -1.4001 -0.8925 -1.3478 0
M  V30 19 H -2.6244 1.0241 0.7457 0
M  V30 20 H -1.4756 1.463 -0.5761 0
M  V30 21 H -3.1318 0.8912 -0.9876 0
M  V30 END ATOM
M  V30 BEGIN BOND
M  V30 1 1 1 2
M  V30 2 2 2 3
M  V30 3 1 2 4
M  V30 4 1 3 5
M  V30 5 1 3 6
M  V30 6 2 4 7
M  V30 7 2 6 8
M  V30 8 1 7 9
M  V30 9 1 8 10
M  V30 10 1 10 11
M  V30 11 1 11 12
M  V30 12 1 11 13
M  V30 13 2 12 14
M  V30 14 1 12 15
M  V30 15 1 7 8
M  V30 16 1 4 16
M  V30 17 1 6 17
M  V30 18 1 11 18
M  V30 19 1 13 19
M  V30 20 1 13 20
M  V30 21 1 13 21
M  V30 END BOND
M  V30 BEGIN COLLECTION
M  V30 MDLV30/STEABS ATOMS=(1 11)
M  V30 END COLLECTION
M  V30 END CTAB
M  END
>  <Structure No>
5038

>  <LogS>
-3.1295

>  <MMFF94 Energy>
76.568

$$$$
Compound 5039
Actelion Java MolfileCreator 2.0

  0  0  0  0  0  0              0 V3000
M  V30 BEGIN CTAB
M  V30 COUNTS 20 20 0 0 0
M  V30 BEGIN ATOM
M  V30 1 O 0.3133 -0.8617 -0.7834 0
M  V30 2 C 1.4618 -1.0899 0.0076 0 CFG=1
M  V30 3 C -0.1957 0.4156 -0.4605 0 CFG=2
M  V30 4 O 2.5859 -1.2517 -0.818 0
M  V30 5 C 1.6588 0.0705 0.9722 0
M  V30 6 C 0.8459 1.1673 0.3588 0
M  V30 7 C -1.5232 0.2709 0.306 0
M  V30 8 C -2.5905 -0.4249 -0.5361 0
M  V30 9 H 1.3176 -2.0279 0.5852 0
M  V30 10 H -0.3855 0.9772 -1.402 0
M  V30 11 H 2.6241 -0.4625 -1.4196 0
M  V30 12 H 2.727 0.3607 1.0812 0
M  V30 13 H 1.2433 -0.1912 1.9707 0
M  V30 14 H 0.4053 1.8354 1.1315 0
M  V30 15 H 1.4893 1.7719 -0.3184 0
M  V30 16 H -1.3603 -0.3123 1.2386 0
M  V30 17 H -1.9013 1.2781 0.5874 0
M  V30 18 H -3.5385 -0.4812 0.0392 0
M  V30 19 H -2.7768 0.1448 -1.4713 0
M  V30 20 H -2.2722 -1.4575 -0.7921 0
M  V30 END ATOM
M  V30 BEGIN BOND
M  V30 1 1 1 2
M  V30 2 1 1 3
M  V30 3 1 2 4
M  V30 4 1 2 5
M  V30 5 1 3 6
M  V30 6 1 3 7
M  V30 7 1 7 8
M  V30 8 1 5 6
M  V30 9 1 2 9
M  V30 10 1 3 10
M  V30 11 1 4 11
M  V30 12 1 5 12
M  V30 13 1 5 13
M  V30 14 1 6 14
M  V30 15 1 6 15
M  V30 16 1 7 16
M  V30 17 1 7 17
M  V30 18 1 8 18
M  V30 19 1 8 19
M  V30 20 1 8 20
M  V30 END BOND
M  V30 BEGIN COLLECTION
M  V30 MDLV30/STEABS ATOMS=(2 2 3)
M  V30 END COLLECTION
M  V30 END CTAB
M  END
>  <Structure No>
5039

>  <LogS>
-0.0651

>  <MMFF94 Energy>
-18.042

$$$$
Compound 5040
Actelion Java MolfileCreator 2.0

  0  0  0  0  0  0              0 V3000
M  V30 BEGIN CTAB
M  V30 COUNTS 12 13 0 0 0
M  V30 BEGIN ATOM
M  V30 1 O -1.2913 -1.049 0.6455 0
M  V30 2 C -0.7077 -0.1386 -0.2548 0 CFG=1
M  V30 3 C -1.7647 0.2774 0.6921 0
M  V30 4 C 0.7211 0.2022 0.1548 0 CFG=2
M  V30 5 O 1.3038 1.1145 -0.7443 0
M  V30 6 C 1.778 -0.2116 -0.793 0
M  V30 7 H -0.9961 -0.3462 -1.3076 0
M  V30 8 H -1.4505 0.7843 1.6293 0
M  V30 9 H -2.791 0.3523 0.2767 0
M  V30 10 H 1.0099 0.4074 1.208 0
M  V30 11 H 1.4639 -0.7169 -1.7309 0
M  V30 12 H 2.8046 -0.2861 -0.3785 0
M  V30 END ATOM
M  V30 BEGIN BOND
M  V30 1 1 1 2
M  V30 2 1 1 3
M  V30 3 1 2 4
M  V30 4 1 4 5
M  V30 5 1 4 6
M  V30 6 1 2 3
M  V30 7 1 5 6
M  V30 8 1 2 7
M  V30 9 1 3 8
M  V30 10 1 3 9
M  V30 11 1 4 10
M  V30 12 1 6 11
M  V30 13 1 6 12
M  V30 END BOND
M  V30 BEGIN COLLECTION
M  V30 MDLV30/STEABS ATOMS=(2 2 4)
M  V30 END COLLECTION
M  V30 END CTAB
M  END
>  <Structure No>
5040

>  <LogS>
1.065

>  <MMFF94 Energy>
9.9286

$$$$
Compound 5041
Actelion Java MolfileCreator 2.0

  0  0  0  0  0  0              0 V3000
M  V30 BEGIN CTAB
M  V30 COUNTS 27 28 0 0 0
M  V30 BEGIN ATOM
M  V30 1 O 0.7152 0.9537 0.6357 0
M  V30 2 C -0.0186 -0.0599 -0.0197 0
M  V30 3 C 2.0139 0.9812 0.0806 0 CFG=2
M  V30 4 O -0.8701 0.5428 -0.9724 0
M  V30 5 C 0.9662 -0.9861 -0.7203 0
M  V30 6 C -0.8818 -0.8065 0.9884 0
M  V30 7 C 2.119 -0.0777 -1.0128 0
M  V30 8 C 3.0381 0.7489 1.1927 0
M  V30 9 C -2.1738 0.5827 -0.4295 0 CFG=2
M  V30 10 C -2.1576 -0.0244 0.9702 0
M  V30 11 C -3.1264 -0.1691 -1.3606 0
M  V30 12 H 2.1961 1.9866 -0.3589 0
M  V30 13 H 0.5427 -1.4311 -1.6476 0
M  V30 14 H 1.3061 -1.7977 -0.0376 0
M  V30 15 H -0.4242 -0.8305 2.002 0
M  V30 16 H -1.0869 -1.8462 0.6461 0
M  V30 17 H 3.0859 -0.6281 -1.0086 0
M  V30 18 H 1.9761 0.3961 -2.0096 0
M  V30 19 H 2.8855 -0.2486 1.6579 0
M  V30 20 H 4.0693 0.8078 0.7839 0
M  V30 21 H 2.9251 1.5284 1.9758 0
M  V30 22 H -2.5063 1.6424 -0.3695 0
M  V30 23 H -2.1082 0.7865 1.7309 0
M  V30 24 H -3.0374 -0.6704 1.1861 0
M  V30 25 H -3.1036 0.2906 -2.3714 0
M  V30 26 H -4.166 -0.1144 -0.9727 0
M  V30 27 H -2.8237 -1.2348 -1.4464 0
M  V30 END ATOM
M  V30 BEGIN BOND
M  V30 1 1 1 2
M  V30 2 1 1 3
M  V30 3 1 2 4
M  V30 4 1 2 5
M  V30 5 1 2 6
M  V30 6 1 3 7
M  V30 7 1 3 8
M  V30 8 1 4 9
M  V30 9 1 6 10
M  V30 10 1 9 11
M  V30 11 1 5 7
M  V30 12 1 9 10
M  V30 13 1 3 12
M  V30 14 1 5 13
M  V30 15 1 5 14
M  V30 16 1 6 15
M  V30 17 1 6 16
M  V30 18 1 7 17
M  V30 19 1 7 18
M  V30 20 1 8 19
M  V30 21 1 8 20
M  V30 22 1 8 21
M  V30 23 1 9 22
M  V30 24 1 10 23
M  V30 25 1 10 24
M  V30 26 1 11 25
M  V30 27 1 11 26
M  V30 28 1 11 27
M  V30 END BOND
M  V30 BEGIN COLLECTION
M  V30 MDLV30/STEABS ATOMS=(2 3 9)
M  V30 END COLLECTION
M  V30 END CTAB
M  END
>  <Structure No>
5041

>  <LogS>
-0.4487

>  <MMFF94 Energy>
5.8193

$$$$
Compound 5042
Actelion Java MolfileCreator 2.0

  0  0  0  0  0  0              0 V3000
M  V30 BEGIN CTAB
M  V30 COUNTS 32 33 0 0 0
M  V30 BEGIN ATOM
M  V30 1 O -0.8805 -3.2851 1.4412 0
M  V30 2 C -0.9905 -2.0678 1.7552 0
M  V30 3 N -0.6899 -1.0816 0.8488 0
M  V30 4 N -1.4054 -1.7443 3.0104 0
M  V30 5 C -0.773 0.2304 1.2297 0
M  V30 6 C -0.2018 -1.4181 -0.5056 0 CFG=1
M  V30 7 C -1.5186 -0.4498 3.4056 0
M  V30 8 C -1.2086 0.5806 2.5115 0
M  V30 9 O -0.7445 -0.5239 -1.4582 0
M  V30 10 C 1.3253 -1.3577 -0.5586 0
M  V30 11 O -1.8977 -0.1857 4.5793 0
M  V30 12 C -1.2832 2.0236 2.9276 0
M  V30 13 C 0.3198 -0.0705 -2.261 0 CFG=2
M  V30 14 C 1.5983 -0.1757 -1.4442 0 CFG=2
M  V30 15 C 0.0548 1.3653 -2.7208 0
M  V30 16 N 2.7548 -0.412 -2.3006 0 CHG=-1
M  V30 17 O -1.1036 1.4013 -3.5069 0
M  V30 18 N 3.8151 0.4333 -2.2853 0 CHG=1
M  V30 19 N 4.6906 1.1316 -2.2728 0
M  V30 20 H -1.6339 -2.5079 3.6878 0
M  V30 21 H -0.4972 1.0166 0.5372 0
M  V30 22 H -0.533 -2.4401 -0.7951 0
M  V30 23 H 1.7859 -1.2218 0.4449 0
M  V30 24 H 1.72 -2.295 -1.012 0
M  V30 25 H -0.4447 2.2539 3.6175 0
M  V30 26 H -2.2458 2.2225 3.4446 0
M  V30 27 H -1.2199 2.7016 2.0499 0
M  V30 28 H 0.387 -0.7281 -3.1586 0
M  V30 29 H 1.7493 0.732 -0.8147 0
M  V30 30 H 0.921 1.7272 -3.3191 0
M  V30 31 H -0.0739 2.0277 -1.8351 0
M  V30 32 H -1.2259 2.3496 -3.7734 0
M  V30 END ATOM
M  V30 BEGIN BOND
M  V30 1 2 1 2
M  V30 2 1 2 3
M  V30 3 1 2 4
M  V30 4 1 3 5
M  V30 5 1 3 6
M  V30 6 1 4 7
M  V30 7 2 5 8
M  V30 8 1 6 9
M  V30 9 1 6 10
M  V30 10 2 7 11
M  V30 11 1 8 12
M  V30 12 1 9 13
M  V30 13 1 10 14
M  V30 14 1 13 15
M  V30 15 1 14 16
M  V30 16 1 15 17
M  V30 17 1 16 18
M  V30 18 3 18 19
M  V30 19 1 7 8
M  V30 20 1 13 14
M  V30 21 1 4 20
M  V30 22 1 5 21
M  V30 23 1 6 22
M  V30 24 1 10 23
M  V30 25 1 10 24
M  V30 26 1 12 25
M  V30 27 1 12 26
M  V30 28 1 12 27
M  V30 29 1 13 28
M  V30 30 1 14 29
M  V30 31 1 15 30
M  V30 32 1 15 31
M  V30 33 1 17 32
M  V30 END BOND
M  V30 BEGIN COLLECTION
M  V30 MDLV30/STEABS ATOMS=(3 6 13 14)
M  V30 END COLLECTION
M  V30 END CTAB
M  END
>  <Structure No>
5042

>  <LogS>
-1.1221

>  <MMFF94 Energy>
-52.723

$$$$
Compound 5043
Actelion Java MolfileCreator 2.0

  0  0  0  0  0  0              0 V3000
M  V30 BEGIN CTAB
M  V30 COUNTS 44 45 0 0 0
M  V30 BEGIN ATOM
M  V30 1 F 4.6658 -3.2965 -1.2854 0
M  V30 2 C 5.3749 -2.1078 -1.2656 0
M  V30 3 F 6.4053 -2.213 -0.3502 0
M  V30 4 F 5.9104 -1.9033 -2.5256 0
M  V30 5 C 4.4772 -0.9611 -0.873 0
M  V30 6 C 3.4344 -1.1599 0.0493 0
M  V30 7 C 4.7268 0.3361 -1.352 0
M  V30 8 C 2.6267 -0.0892 0.4635 0
M  V30 9 C 3.9159 1.4022 -0.9574 0
M  V30 10 N 1.5469 -0.3332 1.3825 0
M  V30 11 C 2.8649 1.1927 -0.0627 0
M  V30 12 C 0.9253 0.6903 2.1768 0
M  V30 13 C -0.4857 0.7814 2.2785 0
M  V30 14 C 1.7322 1.5521 2.9397 0
M  V30 15 C -1.3885 -0.0651 1.4603 0
M  V30 16 C -1.0462 1.7342 3.1513 0
M  V30 17 C 1.1572 2.4977 3.7887 0
M  V30 18 O -2.5863 -0.2346 1.8204 0
M  V30 19 O -0.9239 -0.6544 0.2778 0
M  V30 20 C -0.2293 2.5862 3.8971 0
M  V30 21 C -1.7461 -1.4233 -0.5972 0
M  V30 22 C -2.6396 -0.5118 -1.4334 0
M  V30 23 O -3.3932 -1.3005 -2.3306 0
M  V30 24 C -4.33 -0.5016 -3.0289 0
M  V30 25 C -5.6996 -0.5884 -2.3599 0
M  V30 26 O -6.6347 0.1338 -3.1109 0
M  V30 27 H 3.2525 -2.1474 0.4554 0
M  V30 28 H 5.5456 0.5253 -2.0345 0
M  V30 29 H 4.1028 2.3947 -1.3466 0
M  V30 30 H 1.2147 -1.3159 1.5117 0
M  V30 31 H 2.2371 2.0304 0.2108 0
M  V30 32 H 2.811 1.475 2.89 0
M  V30 33 H -2.1206 1.8343 3.2444 0
M  V30 34 H 1.7882 3.1559 4.372 0
M  V30 35 H -0.6735 3.3184 4.5591 0
M  V30 36 H -1.0871 -2.0034 -1.2772 0
M  V30 37 H -2.361 -2.1444 -0.0156 0
M  V30 38 H -1.9902 0.1958 -1.9969 0
M  V30 39 H -3.3053 0.0622 -0.7503 0
M  V30 40 H -4.0208 0.5662 -3.1335 0
M  V30 41 H -4.4191 -0.905 -4.0599 0
M  V30 42 H -5.6412 -0.168 -1.3316 0
M  V30 43 H -6.011 -1.6552 -2.2974 0
M  V30 44 H -7.501 0.039 -2.6359 0
M  V30 END ATOM
M  V30 BEGIN BOND
M  V30 1 1 1 2
M  V30 2 1 2 3
M  V30 3 1 2 4
M  V30 4 1 2 5
M  V30 5 2 5 6
M  V30 6 1 5 7
M  V30 7 1 6 8
M  V30 8 2 7 9
M  V30 9 1 8 10
M  V30 10 2 8 11
M  V30 11 1 10 12
M  V30 12 2 12 13
M  V30 13 1 12 14
M  V30 14 1 13 15
M  V30 15 1 13 16
M  V30 16 2 14 17
M  V30 17 2 15 18
M  V30 18 1 15 19
M  V30 19 2 16 20
M  V30 20 1 19 21
M  V30 21 1 21 22
M  V30 22 1 22 23
M  V30 23 1 23 24
M  V30 24 1 24 25
M  V30 25 1 25 26
M  V30 26 1 9 11
M  V30 27 1 17 20
M  V30 28 1 6 27
M  V30 29 1 7 28
M  V30 30 1 9 29
M  V30 31 1 10 30
M  V30 32 1 11 31
M  V30 33 1 14 32
M  V30 34 1 16 33
M  V30 35 1 17 34
M  V30 36 1 20 35
M  V30 37 1 21 36
M  V30 38 1 21 37
M  V30 39 1 22 38
M  V30 40 1 22 39
M  V30 41 1 24 40
M  V30 42 1 24 41
M  V30 43 1 25 42
M  V30 44 1 25 43
M  V30 45 1 26 44
M  V30 END BOND
M  V30 END CTAB
M  END
>  <Structure No>
5043

>  <LogS>
-5.3633

>  <MMFF94 Energy>
111.43

$$$$
Compound 5044
Actelion Java MolfileCreator 2.0

  0  0  0  0  0  0              0 V3000
M  V30 BEGIN CTAB
M  V30 COUNTS 18 19 0 0 0
M  V30 BEGIN ATOM
M  V30 1 O 1.853 -0.8858 -0.0805 0
M  V30 2 C 0.8809 0.1145 0.0242 0
M  V30 3 C 3.2474 -0.6144 -0.0078 0
M  V30 4 N 1.2365 1.4175 0.2038 0
M  V30 5 C -0.4732 -0.2175 -0.0552 0
M  V30 6 C 0.2996 2.3984 0.3069 0
M  V30 7 N -0.8866 -1.5004 -0.2336 0
M  V30 8 C -1.4261 0.8091 0.0534 0
M  V30 9 N -1.0228 2.0928 0.2318 0
M  V30 10 C -2.2105 -1.8018 -0.3083 0
M  V30 11 N -2.7478 0.5042 -0.0216 0
M  V30 12 C -3.1596 -0.7795 -0.2001 0
M  V30 13 H 3.5438 0.075 -0.8264 0
M  V30 14 H 3.8097 -1.5643 -0.1168 0
M  V30 15 H 3.4957 -0.1601 0.9747 0
M  V30 16 H 0.6079 3.425 0.4492 0
M  V30 17 H -2.5249 -2.827 -0.4505 0
M  V30 18 H -4.2158 -1.0059 -0.2578 0
M  V30 END ATOM
M  V30 BEGIN BOND
M  V30 1 1 1 2
M  V30 2 1 1 3
M  V30 3 2 2 4
M  V30 4 1 2 5
M  V30 5 1 4 6
M  V30 6 2 5 7
M  V30 7 1 5 8
M  V30 8 2 6 9
M  V30 9 1 7 10
M  V30 10 2 8 11
M  V30 11 2 10 12
M  V30 12 1 8 9
M  V30 13 1 11 12
M  V30 14 1 3 13
M  V30 15 1 3 14
M  V30 16 1 3 15
M  V30 17 1 6 16
M  V30 18 1 10 17
M  V30 19 1 12 18
M  V30 END BOND
M  V30 END CTAB
M  END
>  <Structure No>
5044

>  <LogS>
-1.113

>  <MMFF94 Energy>
65.907

$$$$
Compound 5045
Actelion Java MolfileCreator 2.0

  0  0  0  0  0  0              0 V3000
M  V30 BEGIN CTAB
M  V30 COUNTS 29 32 0 0 0
M  V30 BEGIN ATOM
M  V30 1 C -1.6147 0.3227 -0.0806 0
M  V30 2 C -2.3138 -0.8851 0.1962 0
M  V30 3 C -0.2131 0.3132 -0.0098 0
M  V30 4 C -2.3335 1.4821 -0.4141 0
M  V30 5 C -1.5983 -2.056 0.5326 0
M  V30 6 C -3.7156 -0.9012 0.132 0
M  V30 7 C 0.4668 -0.8458 0.3217 0
M  V30 8 C 0.7438 1.4506 -0.2559 0
M  V30 9 C -3.7295 1.4468 -0.4729 0
M  V30 10 C -0.1975 -2.0399 0.5967 0
M  V30 11 C -4.4174 0.2609 -0.2012 0
M  V30 12 C 1.8855 -0.5607 0.3177 0
M  V30 13 C 2.058 0.7685 -0.016 0
M  V30 14 C 2.9702 -1.3967 0.5859 0
M  V30 15 C 3.3355 1.3248 -0.0967 0
M  V30 16 C 4.2622 -0.8518 0.5087 0
M  V30 17 C 4.4443 0.5034 0.1688 0
M  V30 18 H -1.8223 2.4121 -0.6286 0
M  V30 19 H -2.1236 -2.9794 0.7447 0
M  V30 20 H -4.2672 -1.8104 0.3393 0
M  V30 21 H 0.6717 1.8115 -1.3035 0
M  V30 22 H 0.5848 2.2698 0.4768 0
M  V30 23 H -4.2808 2.3421 -0.7302 0
M  V30 24 H 0.3506 -2.9365 0.8543 0
M  V30 25 H -5.4985 0.2424 -0.2491 0
M  V30 26 H 2.8245 -2.4367 0.8466 0
M  V30 27 H 3.4701 2.3663 -0.3583 0
M  V30 28 H 5.1224 -1.4764 0.7116 0
M  V30 29 H 5.4439 0.9145 0.1119 0
M  V30 END ATOM
M  V30 BEGIN BOND
M  V30 1 1 1 2
M  V30 2 1 1 3
M  V30 3 2 1 4
M  V30 4 1 2 5
M  V30 5 2 2 6
M  V30 6 2 3 7
M  V30 7 1 3 8
M  V30 8 1 4 9
M  V30 9 2 5 10
M  V30 10 1 6 11
M  V30 11 1 7 12
M  V30 12 1 8 13
M  V30 13 1 12 14
M  V30 14 1 13 15
M  V30 15 2 14 16
M  V30 16 2 15 17
M  V30 17 1 7 10
M  V30 18 2 9 11
M  V30 19 2 12 13
M  V30 20 1 16 17
M  V30 21 1 4 18
M  V30 22 1 5 19
M  V30 23 1 6 20
M  V30 24 1 8 21
M  V30 25 1 8 22
M  V30 26 1 9 23
M  V30 27 1 10 24
M  V30 28 1 11 25
M  V30 29 1 14 26
M  V30 30 1 15 27
M  V30 31 1 16 28
M  V30 32 1 17 29
M  V30 END BOND
M  V30 END CTAB
M  END
>  <Structure No>
5045

>  <LogS>
-6.678

>  <MMFF94 Energy>
64.557

$$$$
Compound 5046
Actelion Java MolfileCreator 2.0

  0  0  0  0  0  0              0 V3000
M  V30 BEGIN CTAB
M  V30 COUNTS 36 37 0 0 0
M  V30 BEGIN ATOM
M  V30 1 O -4.1826 -1.2612 1.2612 0
M  V30 2 C -3.2102 -0.7753 0.617 0
M  V30 3 N -3.4483 0.0054 -0.5021 0
M  V30 4 N -1.9233 -1.0223 1.0433 0
M  V30 5 C -2.4008 0.5998 -1.1685 0
M  V30 6 C -4.8324 0.2706 -0.9293 0
M  V30 7 C -0.9016 -0.4342 0.3642 0
M  V30 8 C -1.661 -1.8258 2.2448 0
M  V30 9 O -2.6027 1.363 -2.1524 0
M  V30 10 C -1.1087 0.3527 -0.7185 0
M  V30 11 N 0.4103 -0.5093 0.661 0
M  V30 12 N 0.0776 0.8001 -1.17 0
M  V30 13 C 0.9751 0.2684 -0.2978 0
M  V30 14 C 0.344 1.6469 -2.3316 0
M  V30 15 N 2.3871 0.516 -0.3545 0
M  V30 16 C 3.3145 -0.6098 -0.509 0
M  V30 17 C 2.8867 1.8619 -0.066 0
M  V30 18 C 3.6897 -1.2143 0.845 0
M  V30 19 O 4.3735 -0.2716 1.6229 0
M  V30 20 H -5.4871 -0.6049 -0.7318 0
M  V30 21 H -5.2278 1.1529 -0.3834 0
M  V30 22 H -4.8891 0.4628 -2.022 0
M  V30 23 H -2.3693 -2.6793 2.3082 0
M  V30 24 H -1.7716 -1.1903 3.1485 0
M  V30 25 H -0.6366 -2.2555 2.2277 0
M  V30 26 H 1.4035 1.5537 -2.6481 0
M  V30 27 H -0.282 1.3274 -3.1899 0
M  V30 28 H 0.1229 2.7054 -2.081 0
M  V30 29 H 4.2347 -0.2763 -1.0361 0
M  V30 30 H 2.8458 -1.396 -1.1409 0
M  V30 31 H 2.5313 2.5796 -0.832 0
M  V30 32 H 3.9971 1.8842 -0.0603 0
M  V30 33 H 2.5239 2.1891 0.9312 0
M  V30 34 H 2.774 -1.5543 1.3763 0
M  V30 35 H 4.3439 -2.0976 0.6727 0
M  V30 36 H 4.5784 -0.7216 2.4833 0
M  V30 END ATOM
M  V30 BEGIN BOND
M  V30 1 2 1 2
M  V30 2 1 2 3
M  V30 3 1 2 4
M  V30 4 1 3 5
M  V30 5 1 3 6
M  V30 6 1 4 7
M  V30 7 1 4 8
M  V30 8 2 5 9
M  V30 9 1 5 10
M  V30 10 1 7 11
M  V30 11 1 10 12
M  V30 12 2 11 13
M  V30 13 1 12 14
M  V30 14 1 13 15
M  V30 15 1 15 16
M  V30 16 1 15 17
M  V30 17 1 16 18
M  V30 18 1 18 19
M  V30 19 2 7 10
M  V30 20 1 12 13
M  V30 21 1 6 20
M  V30 22 1 6 21
M  V30 23 1 6 22
M  V30 24 1 8 23
M  V30 25 1 8 24
M  V30 26 1 8 25
M  V30 27 1 14 26
M  V30 28 1 14 27
M  V30 29 1 14 28
M  V30 30 1 16 29
M  V30 31 1 16 30
M  V30 32 1 17 31
M  V30 33 1 17 32
M  V30 34 1 17 33
M  V30 35 1 18 34
M  V30 36 1 18 35
M  V30 37 1 19 36
M  V30 END BOND
M  V30 END CTAB
M  END
>  <Structure No>
5046

>  <LogS>
-0.6488

>  <MMFF94 Energy>
-117.84

$$$$
Compound 5047
Actelion Java MolfileCreator 2.0

  0  0  0  0  0  0              0 V3000
M  V30 BEGIN CTAB
M  V30 COUNTS 28 28 0 0 0
M  V30 BEGIN ATOM
M  V30 1 O -3.392 -1.8921 1.7343 0
M  V30 2 C -3.3153 -0.8706 1.0014 0
M  V30 3 N -2.1103 -0.3808 0.4462 0
M  V30 4 N -4.4315 -0.0901 0.6468 0
M  V30 5 C -0.7985 -0.9414 0.6252 0
M  V30 6 C -2.436 0.8099 -0.3348 0
M  V30 7 C -3.9682 0.9997 -0.2 0
M  V30 8 O -0.65 -1.9713 1.338 0
M  V30 9 N 0.344 -0.3383 1.0E-4 0
M  V30 10 C 1.6879 -0.8922 0.1776 0
M  V30 11 C 2.758 -0.0247 -0.5162 0
M  V30 12 C 2.9187 1.3304 0.1882 0
M  V30 13 C 4.1023 -0.762 -0.5466 0
M  V30 14 H -5.4186 -0.2618 0.9407 0
M  V30 15 H -2.1569 0.6538 -1.3991 0
M  V30 16 H -1.8981 1.6919 0.0753 0
M  V30 17 H -4.2042 1.9738 0.2794 0
M  V30 18 H -4.462 0.939 -1.1933 0
M  V30 19 H 0.206 0.4972 -0.6103 0
M  V30 20 H 1.9167 -0.9714 1.2634 0
M  V30 21 H 1.7034 -1.9174 -0.2531 0
M  V30 22 H 2.4466 0.1574 -1.5688 0
M  V30 23 H 1.9637 1.8959 0.1764 0
M  V30 24 H 3.683 1.9443 -0.3343 0
M  V30 25 H 3.2359 1.1885 1.2438 0
M  V30 26 H 4.454 -0.9791 0.4849 0
M  V30 27 H 4.0024 -1.7196 -1.1007 0
M  V30 28 H 4.8673 -0.1448 -1.0646 0
M  V30 END ATOM
M  V30 BEGIN BOND
M  V30 1 2 1 2
M  V30 2 1 2 3
M  V30 3 1 2 4
M  V30 4 1 3 5
M  V30 5 1 3 6
M  V30 6 1 4 7
M  V30 7 2 5 8
M  V30 8 1 5 9
M  V30 9 1 9 10
M  V30 10 1 10 11
M  V30 11 1 11 12
M  V30 12 1 11 13
M  V30 13 1 6 7
M  V30 14 1 4 14
M  V30 15 1 6 15
M  V30 16 1 6 16
M  V30 17 1 7 17
M  V30 18 1 7 18
M  V30 19 1 9 19
M  V30 20 1 10 20
M  V30 21 1 10 21
M  V30 22 1 11 22
M  V30 23 1 12 23
M  V30 24 1 12 24
M  V30 25 1 12 25
M  V30 26 1 13 26
M  V30 27 1 13 27
M  V30 28 1 13 28
M  V30 END BOND
M  V30 END CTAB
M  END
>  <Structure No>
5047

>  <LogS>
-2.1538

>  <MMFF94 Energy>
-119.9

$$$$
Compound 5048
Actelion Java MolfileCreator 2.0

  0  0  0  0  0  0              0 V3000
M  V30 BEGIN CTAB
M  V30 COUNTS 17 17 0 0 0
M  V30 BEGIN ATOM
M  V30 1 S 1.3462 2.778 -1.0937 0
M  V30 2 C 0.1026 1.9 -0.4842 0
M  V30 3 S -1.3075 2.5936 0.101 0
M  V30 4 N 0.0737 0.5432 -0.384 0
M  V30 5 C -1.9983 1.1188 0.5134 0
M  V30 6 C -1.0968 0.107 0.1847 0
M  V30 7 C 1.1822 -0.3377 -0.7848 0
M  V30 8 C -1.42 -1.3411 0.4152 0
M  V30 9 C 2.1921 -0.4347 0.3149 0
M  V30 10 O 2.0118 -1.2313 1.2729 0
M  V30 11 O 3.3153 0.3821 0.3032 0 CHG=-1
M  V30 12 H -2.9749 0.9833 0.9591 0
M  V30 13 H 1.6691 0.0501 -1.7049 0
M  V30 14 H 0.812 -1.3524 -1.0413 0
M  V30 15 H -2.3693 -1.4507 0.9816 0
M  V30 16 H -0.6112 -1.8231 1.0013 0
M  V30 17 H -1.531 -1.8581 -0.5603 0
M  V30 END ATOM
M  V30 BEGIN BOND
M  V30 1 2 1 2
M  V30 2 1 2 3
M  V30 3 1 2 4
M  V30 4 1 3 5
M  V30 5 1 4 6
M  V30 6 1 4 7
M  V30 7 1 6 8
M  V30 8 1 7 9
M  V30 9 2 9 10
M  V30 10 1 9 11
M  V30 11 2 5 6
M  V30 12 1 5 12
M  V30 13 1 7 13
M  V30 14 1 7 14
M  V30 15 1 8 15
M  V30 16 1 8 16
M  V30 17 1 8 17
M  V30 END BOND
M  V30 END CTAB
M  END
>  <Structure No>
5048

>  <LogS>
-1.9632

>  <MMFF94 Energy>
52.9

$$$$
Compound 5049
Actelion Java MolfileCreator 2.0

  0  0  0  0  0  0              0 V3000
M  V30 BEGIN CTAB
M  V30 COUNTS 27 26 0 0 0
M  V30 BEGIN ATOM
M  V30 1 O -2.3926 1.6203 1.0028 0
M  V30 2 C -1.7145 0.3899 1.0867 0 CFG=2
M  V30 3 C -0.6552 0.2654 -0.0488 0 CFG=1
M  V30 4 C -2.7107 -0.782 1.1624 0
M  V30 5 C 0.366 -0.861 0.2628 0
M  V30 6 C -1.2893 0.083 -1.441 0
M  V30 7 C 1.5699 -0.9434 -0.6997 0
M  V30 8 C 2.4185 0.3363 -0.8019 0
M  V30 9 C 3.0111 0.7692 0.5385 0
M  V30 10 H -3.0735 1.5525 0.2848 0
M  V30 11 H -1.1682 0.404 2.0552 0
M  V30 12 H -0.1087 1.2321 -0.0567 0
M  V30 13 H -3.4053 -0.6208 2.014 0
M  V30 14 H -2.1813 -1.7412 1.3334 0
M  V30 15 H -3.3152 -0.8573 0.2348 0
M  V30 16 H -0.1508 -1.8436 0.2298 0
M  V30 17 H 0.7494 -0.7425 1.2989 0
M  V30 18 H -1.7225 -0.9333 -1.551 0
M  V30 19 H -0.5261 0.228 -2.233 0
M  V30 20 H -2.0822 0.8363 -1.6225 0
M  V30 21 H 2.2264 -1.7748 -0.3616 0
M  V30 22 H 1.2168 -1.222 -1.7148 0
M  V30 23 H 3.2572 0.1375 -1.5035 0
M  V30 24 H 1.8262 1.167 -1.2387 0
M  V30 25 H 3.5563 -0.0743 1.0127 0
M  V30 26 H 3.7241 1.6044 0.3744 0
M  V30 27 H 2.2132 1.1268 1.2221 0
M  V30 END ATOM
M  V30 BEGIN BOND
M  V30 1 1 1 2
M  V30 2 1 2 3
M  V30 3 1 2 4
M  V30 4 1 3 5
M  V30 5 1 3 6
M  V30 6 1 5 7
M  V30 7 1 7 8
M  V30 8 1 8 9
M  V30 9 1 1 10
M  V30 10 1 2 11
M  V30 11 1 3 12
M  V30 12 1 4 13
M  V30 13 1 4 14
M  V30 14 1 4 15
M  V30 15 1 5 16
M  V30 16 1 5 17
M  V30 17 1 6 18
M  V30 18 1 6 19
M  V30 19 1 6 20
M  V30 20 1 7 21
M  V30 21 1 7 22
M  V30 22 1 8 23
M  V30 23 1 8 24
M  V30 24 1 9 25
M  V30 25 1 9 26
M  V30 26 1 9 27
M  V30 END BOND
M  V30 BEGIN COLLECTION
M  V30 MDLV30/STEABS ATOMS=(2 2 3)
M  V30 END COLLECTION
M  V30 END CTAB
M  END
>  <Structure No>
5049

>  <LogS>
-2.0578

>  <MMFF94 Energy>
7.8107

$$$$
Compound 5050
Actelion Java MolfileCreator 2.0

  0  0  0  0  0  0              0 V3000
M  V30 BEGIN CTAB
M  V30 COUNTS 35 39 0 0 0
M  V30 BEGIN ATOM
M  V30 1 C -0.2428 -0.2428 0.0809 0
M  V30 2 C -1.525 -0.8061 0.2993 0
M  V30 3 C -0.1257 1.1538 -0.1395 0
M  V30 4 C 0.9119 -1.0793 0.0845 0
M  V30 5 C -2.6738 0.0149 0.2975 0
M  V30 6 C -1.6644 -2.1933 0.521 0
M  V30 7 C -1.2893 1.9703 -0.1392 0
M  V30 8 C 1.1482 1.7025 -0.3549 0
M  V30 9 C 2.1971 -0.4982 -0.1368 0
M  V30 10 C 0.7324 -2.466 0.3102 0
M  V30 11 C -2.5461 1.3881 0.0794 0
M  V30 12 C -3.9393 -0.5526 0.5149 0
M  V30 13 C -0.5331 -3.0084 0.5239 0
M  V30 14 C -2.9367 -2.7445 0.7366 0
M  V30 15 C -1.2208 3.461 -0.3685 0
M  V30 16 C 2.2935 0.9021 -0.3555 0
M  V30 17 C 3.3978 -1.2539 -0.1501 0
M  V30 18 C -4.0668 -1.9253 0.7331 0
M  V30 19 C 3.5457 1.5019 -0.5763 0
M  V30 20 C 4.632 -0.6391 -0.3711 0
M  V30 21 C 4.7063 0.7333 -0.5834 0
M  V30 22 H 1.2661 2.7652 -0.5257 0
M  V30 23 H 1.5507 -3.1649 0.3286 0
M  V30 24 H -3.4344 2.0105 0.0798 0
M  V30 25 H -4.8298 0.0649 0.5163 0
M  V30 26 H -0.6261 -4.0751 0.6928 0
M  V30 27 H -3.057 -3.8076 0.9078 0
M  V30 28 H -2.2253 3.934 -0.3337 0
M  V30 29 H -0.7845 3.6687 -1.3682 0
M  V30 30 H -0.5971 3.9351 0.4182 0
M  V30 31 H 3.422 -2.3187 0.0061 0
M  V30 32 H -5.0456 -2.3561 0.9 0
M  V30 33 H 3.6273 2.5697 -0.7439 0
M  V30 34 H 5.5373 -1.2328 -0.3775 0
M  V30 35 H 5.6662 1.2034 -0.7541 0
M  V30 END ATOM
M  V30 BEGIN BOND
M  V30 1 2 1 2
M  V30 2 1 1 3
M  V30 3 1 1 4
M  V30 4 1 2 5
M  V30 5 1 2 6
M  V30 6 1 3 7
M  V30 7 2 3 8
M  V30 8 1 4 9
M  V30 9 2 4 10
M  V30 10 1 5 11
M  V30 11 2 5 12
M  V30 12 2 6 13
M  V30 13 1 6 14
M  V30 14 1 7 15
M  V30 15 1 8 16
M  V30 16 2 9 17
M  V30 17 1 12 18
M  V30 18 2 16 19
M  V30 19 1 17 20
M  V30 20 1 19 21
M  V30 21 2 7 11
M  V30 22 1 9 16
M  V30 23 1 10 13
M  V30 24 2 14 18
M  V30 25 2 20 21
M  V30 26 1 8 22
M  V30 27 1 10 23
M  V30 28 1 11 24
M  V30 29 1 12 25
M  V30 30 1 13 26
M  V30 31 1 14 27
M  V30 32 1 15 28
M  V30 33 1 15 29
M  V30 34 1 15 30
M  V30 35 1 17 31
M  V30 36 1 18 32
M  V30 37 1 19 33
M  V30 38 1 20 34
M  V30 39 1 21 35
M  V30 END BOND
M  V30 END CTAB
M  END
>  <Structure No>
5050

>  <LogS>
-8.5224

>  <MMFF94 Energy>
84.54

$$$$
Compound 5051
Actelion Java MolfileCreator 2.0

  0  0  0  0  0  0              0 V3000
M  V30 BEGIN CTAB
M  V30 COUNTS 37 37 0 0 0
M  V30 BEGIN ATOM
M  V30 1 O -5.3714 -2.209 1.1829 0
M  V30 2 C -4.2506 -1.7871 0.9456 0
M  V30 3 C -4.0594 -0.5492 0.1079 0 CFG=1
M  V30 4 C -3.3124 0.5315 0.9298 0
M  V30 5 C -3.3528 -0.9112 -1.2369 0
M  V30 6 C -1.8203 0.3622 0.8309 0
M  V30 7 C -2.1668 0.0091 -1.5706 0
M  V30 8 C -1.2585 0.1293 -0.3684 0
M  V30 9 C 0.2305 -0.0919 -0.4909 0
M  V30 10 C 0.9976 1.2197 -0.2683 0
M  V30 11 C 2.4934 1.1325 -0.638 0
M  V30 12 C 3.3572 0.1481 0.2001 0
M  V30 13 O 2.9771 -1.1718 -0.1085 0
M  V30 14 C 3.1948 0.4073 1.7135 0
M  V30 15 C 4.8361 0.3434 -0.1916 0
M  V30 16 H -3.3867 -2.3164 1.3357 0
M  V30 17 H -5.0655 -0.1363 -0.133 0
M  V30 18 H -3.628 0.5186 1.9961 0
M  V30 19 H -3.5715 1.5338 0.5236 0
M  V30 20 H -2.9705 -1.9568 -1.2147 0
M  V30 21 H -4.0897 -0.8611 -2.0679 0
M  V30 22 H -1.2151 0.3946 1.7326 0
M  V30 23 H -1.6219 -0.3915 -2.4519 0
M  V30 24 H -2.548 1.0188 -1.8376 0
M  V30 25 H 0.536 -0.8499 0.2607 0
M  V30 26 H 0.475 -0.4929 -1.4978 0
M  V30 27 H 0.878 1.5623 0.7811 0
M  V30 28 H 0.5436 2.0053 -0.9125 0
M  V30 29 H 2.5769 0.8647 -1.7146 0
M  V30 30 H 2.9138 2.1577 -0.5339 0
M  V30 31 H 3.5229 -1.7884 0.4472 0
M  V30 32 H 3.3567 1.4818 1.9468 0
M  V30 33 H 3.9293 -0.1916 2.2936 0
M  V30 34 H 2.182 0.1097 2.0571 0
M  V30 35 H 4.9764 0.1506 -1.277 0
M  V30 36 H 5.1701 1.38 0.0314 0
M  V30 37 H 5.4874 -0.3603 0.3699 0
M  V30 END ATOM
M  V30 BEGIN BOND
M  V30 1 2 1 2
M  V30 2 1 2 3
M  V30 3 1 3 4
M  V30 4 1 3 5
M  V30 5 1 4 6
M  V30 6 1 5 7
M  V30 7 2 6 8
M  V30 8 1 8 9
M  V30 9 1 9 10
M  V30 10 1 10 11
M  V30 11 1 11 12
M  V30 12 1 12 13
M  V30 13 1 12 14
M  V30 14 1 12 15
M  V30 15 1 7 8
M  V30 16 1 2 16
M  V30 17 1 3 17
M  V30 18 1 4 18
M  V30 19 1 4 19
M  V30 20 1 5 20
M  V30 21 1 5 21
M  V30 22 1 6 22
M  V30 23 1 7 23
M  V30 24 1 7 24
M  V30 25 1 9 25
M  V30 26 1 9 26
M  V30 27 1 10 27
M  V30 28 1 10 28
M  V30 29 1 11 29
M  V30 30 1 11 30
M  V30 31 1 13 31
M  V30 32 1 14 32
M  V30 33 1 14 33
M  V30 34 1 14 34
M  V30 35 1 15 35
M  V30 36 1 15 36
M  V30 37 1 15 37
M  V30 END BOND
M  V30 BEGIN COLLECTION
M  V30 MDLV30/STEABS ATOMS=(1 3)
M  V30 END COLLECTION
M  V30 END CTAB
M  END
>  <Structure No>
5051

>  <LogS>
-1.5376

>  <MMFF94 Energy>
17.726

$$$$
Compound 5052
Actelion Java MolfileCreator 2.0

  0  0  0  0  0  0              0 V3000
M  V30 BEGIN CTAB
M  V30 COUNTS 18 19 0 0 0
M  V30 BEGIN ATOM
M  V30 1 Cl -3.9143 -1.6218 0.286 0
M  V30 2 C -2.4064 -0.7195 0.0734 0
M  V30 3 C -2.4557 0.6673 -0.086 0
M  V30 4 C -1.1762 -1.3947 0.0516 0
M  V30 5 Cl -4.0285 1.4777 -0.142 0
M  V30 6 C -1.2711 1.4151 -0.1779 0
M  V30 7 Cl -1.2085 -3.1108 0.4893 0
M  V30 8 C 0.0354 -0.6714 -0.15 0
M  V30 9 Cl -1.4495 3.1373 -0.5494 0
M  V30 10 C -0.0053 0.7626 -0.1157 0
M  V30 11 C 1.29 -1.3167 -0.3788 0
M  V30 12 C 1.2269 1.4746 -0.0238 0
M  V30 13 Cl 1.4351 -3.0036 -0.8948 0
M  V30 14 C 2.4758 -0.5689 -0.3576 0
M  V30 15 Cl 1.3809 3.1785 0.4085 0
M  V30 16 C 2.4371 0.798 -0.1377 0
M  V30 17 Cl 4.053 -1.3218 -0.5869 0
M  V30 18 H 3.3682 1.3479 -0.0677 0
M  V30 END ATOM
M  V30 BEGIN BOND
M  V30 1 1 1 2
M  V30 2 1 2 3
M  V30 3 2 2 4
M  V30 4 1 3 5
M  V30 5 2 3 6
M  V30 6 1 4 7
M  V30 7 1 4 8
M  V30 8 1 6 9
M  V30 9 1 6 10
M  V30 10 2 8 11
M  V30 11 2 10 12
M  V30 12 1 11 13
M  V30 13 1 11 14
M  V30 14 1 12 15
M  V30 15 1 12 16
M  V30 16 1 14 17
M  V30 17 1 8 10
M  V30 18 2 14 16
M  V30 19 1 16 18
M  V30 END BOND
M  V30 END CTAB
M  END
>  <Structure No>
5052

>  <LogS>
-8.775

>  <MMFF94 Energy>
69.973

$$$$
Compound 5053
Actelion Java MolfileCreator 2.0

  0  0  0  0  0  0              0 V3000
M  V30 BEGIN CTAB
M  V30 COUNTS 16 16 0 0 0
M  V30 BEGIN ATOM
M  V30 1 O -0.3124 2.5798 1.0938 0
M  V30 2 C -0.2512 1.4112 0.6254 0
M  V30 3 N -1.3736 0.6427 0.5803 0
M  V30 4 C 0.9663 0.9007 0.1513 0
M  V30 5 C -1.3339 -0.6226 0.0792 0
M  V30 6 O 2.1359 1.6625 0.1831 0
M  V30 7 C 0.9846 -0.404 -0.3603 0
M  V30 8 N -0.1625 -1.1317 -0.3838 0
M  V30 9 N -2.5178 -1.4195 0.037 0
M  V30 10 N 2.193 -0.9823 -0.8587 0
M  V30 11 H -2.2774 1.0304 0.9357 0
M  V30 12 H 2.1531 2.6077 0.5469 0
M  V30 13 H -2.4864 -2.3897 -0.3474 0
M  V30 14 H -3.4267 -1.0444 0.3886 0
M  V30 15 H 3.093 -0.453 -0.8564 0
M  V30 16 H 2.1897 -1.9558 -1.2366 0
M  V30 END ATOM
M  V30 BEGIN BOND
M  V30 1 2 1 2
M  V30 2 1 2 3
M  V30 3 1 2 4
M  V30 4 1 3 5
M  V30 5 1 4 6
M  V30 6 2 4 7
M  V30 7 2 5 8
M  V30 8 1 5 9
M  V30 9 1 7 10
M  V30 10 1 7 8
M  V30 11 1 3 11
M  V30 12 1 6 12
M  V30 13 1 9 13
M  V30 14 1 9 14
M  V30 15 1 10 15
M  V30 16 1 10 16
M  V30 END BOND
M  V30 END CTAB
M  END
>  <Structure No>
5053

>  <LogS>
-1.6978

>  <MMFF94 Energy>
-112.2

$$$$
Compound 5054
Actelion Java MolfileCreator 2.0

  0  0  0  0  0  0              0 V3000
M  V30 BEGIN CTAB
M  V30 COUNTS 11 11 0 0 0
M  V30 BEGIN ATOM
M  V30 1 Cl -2.664 -1.9286 -1.0099 0
M  V30 2 C -1.3442 -0.9141 -0.4619 0
M  V30 3 O -0.0808 -1.1353 -0.7453 0
M  V30 4 C -1.4594 0.2178 0.317 0
M  V30 5 C 0.6475 -0.1939 -0.1845 0
M  V30 6 Cl -2.9389 0.919 0.9481 0
M  V30 7 C -0.1769 0.6868 0.4991 0
M  V30 8 C 2.1114 -0.1329 -0.2977 0
M  V30 9 Cl 0.2843 2.1123 1.4162 0
M  V30 10 O 2.7238 -1.0121 -0.9581 0
M  V30 11 O 2.832 0.8841 0.3151 0 CHG=-1
M  V30 END ATOM
M  V30 BEGIN BOND
M  V30 1 1 1 2
M  V30 2 1 2 3
M  V30 3 2 2 4
M  V30 4 1 3 5
M  V30 5 1 4 6
M  V30 6 1 4 7
M  V30 7 1 5 8
M  V30 8 1 7 9
M  V30 9 2 8 10
M  V30 10 1 8 11
M  V30 11 2 5 7
M  V30 END BOND
M  V30 END CTAB
M  END
>  <Structure No>
5054

>  <LogS>
-2.2193

>  <MMFF94 Energy>
25.808

$$$$
Compound 5055
Actelion Java MolfileCreator 2.0

  0  0  0  0  0  0              0 V3000
M  V30 BEGIN CTAB
M  V30 COUNTS 57 56 0 0 0
M  V30 BEGIN ATOM
M  V30 1 S -2.7274 1.7641 -4.4953 0
M  V30 2 O -2.2634 3.1047 -4.9893 0
M  V30 3 O -2.0204 0.6862 -5.2685 0
M  V30 4 O -2.3718 1.6361 -2.8415 0
M  V30 5 O -4.3862 1.6387 -4.7357 0 CHG=-1
M  V30 6 C -2.75 0.3626 -2.3521 0 CFG=1
M  V30 7 C -1.4941 -0.5271 -2.205 0
M  V30 8 C -3.5057 0.5682 -1.0216 0
M  V30 9 C -0.5217 -0.0167 -1.1736 0
M  V30 10 C -4.0695 -0.7365 -0.4366 0
M  V30 11 C 0.2883 1.0237 -1.4202 0
M  V30 12 C -4.9531 -0.4545 0.7848 0
M  V30 13 C 1.2491 1.5362 -0.3832 0
M  V30 14 C -5.4932 -1.7607 1.3859 0
M  V30 15 C 2.403 0.5511 -0.1592 0
M  V30 16 C -6.4806 -1.5166 2.5376 0
M  V30 17 C 3.4126 1.1107 0.8545 0
M  V30 18 C -5.7995 -0.9811 3.7968 0
M  V30 19 C 4.5059 0.0961 1.2273 0
M  V30 20 C 5.5305 -0.1097 0.0983 0
M  V30 21 C 6.6071 -1.1519 0.4551 0
M  V30 22 C 7.581 -0.7063 1.5579 0
M  V30 23 C 8.3727 0.4991 1.1538 0
M  V30 24 O 8.0767 1.6346 1.6106 0
M  V30 25 O 9.4179 0.3728 0.2475 0 CHG=-1
M  V30 26 H -3.4548 -0.1692 -3.0346 0
M  V30 27 H -1.7999 -1.5581 -1.9297 0
M  V30 28 H -0.9774 -0.6122 -3.1849 0
M  V30 29 H -4.3516 1.2644 -1.2161 0
M  V30 30 H -2.8428 1.0578 -0.2749 0
M  V30 31 H -0.4708 -0.5269 -0.2154 0
M  V30 32 H -3.2327 -1.3973 -0.1245 0
M  V30 33 H -4.6704 -1.2616 -1.2113 0
M  V30 34 H 0.2426 1.5313 -2.3798 0
M  V30 35 H -5.8055 0.1919 0.4803 0
M  V30 36 H -4.3509 0.0863 1.5458 0
M  V30 37 H 0.7044 1.7158 0.5696 0
M  V30 38 H 1.6605 2.508 -0.733 0
M  V30 39 H -4.6492 -2.392 1.7412 0
M  V30 40 H -6.0269 -2.3277 0.5918 0
M  V30 41 H 1.9981 -0.4131 0.2183 0
M  V30 42 H 2.9078 0.3674 -1.1313 0
M  V30 43 H -6.9693 -2.4824 2.791 0
M  V30 44 H -7.2778 -0.8114 2.2163 0
M  V30 45 H 3.8787 2.0379 0.4539 0
M  V30 46 H 2.8685 1.3838 1.7856 0
M  V30 47 H -4.9647 -1.6474 4.1012 0
M  V30 48 H -5.4122 0.045 3.6287 0
M  V30 49 H -6.5376 -0.9392 4.6256 0
M  V30 50 H 4.0407 -0.8754 1.5035 0
M  V30 51 H 5.028 0.4881 2.1251 0
M  V30 52 H 6.0063 0.859 -0.1655 0
M  V30 53 H 5.0061 -0.4779 -0.8079 0
M  V30 54 H 6.1119 -2.0955 0.7726 0
M  V30 55 H 7.1907 -1.3862 -0.4622 0
M  V30 56 H 7.0396 -0.5123 2.5075 0
M  V30 57 H 8.2906 -1.5375 1.7582 0
M  V30 END ATOM
M  V30 BEGIN BOND
M  V30 1 2 1 2
M  V30 2 2 1 3
M  V30 3 1 1 4
M  V30 4 1 1 5
M  V30 5 1 4 6
M  V30 6 1 6 7
M  V30 7 1 6 8
M  V30 8 1 7 9
M  V30 9 1 8 10
M  V30 10 2 9 11
M  V30 11 1 10 12
M  V30 12 1 11 13
M  V30 13 1 12 14
M  V30 14 1 13 15
M  V30 15 1 14 16
M  V30 16 1 15 17
M  V30 17 1 16 18
M  V30 18 1 17 19
M  V30 19 1 19 20
M  V30 20 1 20 21
M  V30 21 1 21 22
M  V30 22 1 22 23
M  V30 23 2 23 24
M  V30 24 1 23 25
M  V30 25 1 6 26
M  V30 26 1 7 27
M  V30 27 1 7 28
M  V30 28 1 8 29
M  V30 29 1 8 30
M  V30 30 1 9 31
M  V30 31 1 10 32
M  V30 32 1 10 33
M  V30 33 1 11 34
M  V30 34 1 12 35
M  V30 35 1 12 36
M  V30 36 1 13 37
M  V30 37 1 13 38
M  V30 38 1 14 39
M  V30 39 1 14 40
M  V30 40 1 15 41
M  V30 41 1 15 42
M  V30 42 1 16 43
M  V30 43 1 16 44
M  V30 44 1 17 45
M  V30 45 1 17 46
M  V30 46 1 18 47
M  V30 47 1 18 48
M  V30 48 1 18 49
M  V30 49 1 19 50
M  V30 50 1 19 51
M  V30 51 1 20 52
M  V30 52 1 20 53
M  V30 53 1 21 54
M  V30 54 1 21 55
M  V30 55 1 22 56
M  V30 56 1 22 57
M  V30 END BOND
M  V30 BEGIN COLLECTION
M  V30 MDLV30/STEABS ATOMS=(1 6)
M  V30 END COLLECTION
M  V30 END CTAB
M  END
>  <Structure No>
5055

>  <LogS>
-0.5781

>  <MMFF94 Energy>
-4.3252

$$$$
Compound 5056
Actelion Java MolfileCreator 2.0

  0  0  0  0  0  0              0 V3000
M  V30 BEGIN CTAB
M  V30 COUNTS 24 25 0 0 0
M  V30 BEGIN ATOM
M  V30 1 O -3.3955 -2.9099 0.9692 0
M  V30 2 C -2.573 -1.981 0.7482 0
M  V30 3 N -1.3369 -2.2701 0.2629 0
M  V30 4 C -2.9391 -0.6587 0.9969 0
M  V30 5 C -0.4152 -1.293 0.0254 0
M  V30 6 C -2.0383 0.3849 0.7408 0
M  V30 7 C -0.7353 0.0677 0.2728 0
M  V30 8 C 0.858 -1.6367 -0.4519 0
M  V30 9 C -2.5175 1.7713 0.9497 0
M  V30 10 C 0.2674 1.0437 0.0825 0
M  V30 11 C 1.8241 -0.6542 -0.6647 0
M  V30 12 O -2.2105 2.6897 0.1448 0
M  V30 13 O -3.3809 2.056 2.0013 0 CHG=-1
M  V30 14 C 1.5376 0.693 -0.3887 0
M  V30 15 O 2.4858 1.7125 -0.5642 0
M  V30 16 C 3.8141 1.5047 -1.0332 0
M  V30 17 H -1.0924 -3.2712 0.0811 0
M  V30 18 H -3.9376 -0.4455 1.3621 0
M  V30 19 H 1.1065 -2.6717 -0.6528 0
M  V30 20 H 0.0955 2.0828 0.3201 0
M  V30 21 H 2.796 -0.955 -1.0312 0
M  V30 22 H 4.3634 0.8335 -0.3395 0
M  V30 23 H 4.3406 2.4802 -1.0749 0
M  V30 24 H 3.7946 1.0673 -2.0538 0
M  V30 END ATOM
M  V30 BEGIN BOND
M  V30 1 2 1 2
M  V30 2 1 2 3
M  V30 3 1 2 4
M  V30 4 1 3 5
M  V30 5 2 4 6
M  V30 6 2 5 7
M  V30 7 1 5 8
M  V30 8 1 6 9
M  V30 9 1 7 10
M  V30 10 2 8 11
M  V30 11 2 9 12
M  V30 12 1 9 13
M  V30 13 2 10 14
M  V30 14 1 14 15
M  V30 15 1 15 16
M  V30 16 1 6 7
M  V30 17 1 11 14
M  V30 18 1 3 17
M  V30 19 1 4 18
M  V30 20 1 8 19
M  V30 21 1 10 20
M  V30 22 1 11 21
M  V30 23 1 16 22
M  V30 24 1 16 23
M  V30 25 1 16 24
M  V30 END BOND
M  V30 END CTAB
M  END
>  <Structure No>
5056

>  <LogS>
-3.1104

>  <MMFF94 Energy>
1.3833

$$$$
Compound 5057
Actelion Java MolfileCreator 2.0

  0  0  0  0  0  0              0 V3000
M  V30 BEGIN CTAB
M  V30 COUNTS 20 20 0 0 0
M  V30 BEGIN ATOM
M  V30 1 O -2.0044 2.0044 -1.5231 0
M  V30 2 C -1.3131 1.3195 -0.7245 0
M  V30 3 O 0.0446 1.1443 -0.8718 0
M  V30 4 C -1.8494 0.6452 0.4765 0 CFG=1
M  V30 5 C 0.5808 0.4189 0.2227 0 CFG=1
M  V30 6 O -2.98 -0.1172 0.1465 0
M  V30 7 C -0.6511 -0.227 0.9177 0 CFG=2
M  V30 8 C 1.6692 -0.5689 -0.2473 0 CFG=2
M  V30 9 O -0.8284 -1.5555 0.489 0
M  V30 10 O 2.2286 -1.233 0.8567 0
M  V30 11 C 2.7639 0.1601 -0.9735 0
M  V30 12 O 3.4501 0.9889 -0.3957 0
M  V30 13 H -2.0917 1.4116 1.248 0
M  V30 14 H 1.0337 1.1496 0.9312 0
M  V30 15 H -3.3931 -0.3871 1.0078 0
M  V30 16 H -0.5232 -0.1885 2.0253 0
M  V30 17 H 1.2278 -1.3011 -0.9638 0
M  V30 18 H -1.3594 -2.0148 1.1908 0
M  V30 19 H 1.6858 -2.0484 1.0159 0
M  V30 20 H 2.9545 -0.0542 -2.02 0
M  V30 END ATOM
M  V30 BEGIN BOND
M  V30 1 2 1 2
M  V30 2 1 2 3
M  V30 3 1 2 4
M  V30 4 1 3 5
M  V30 5 1 4 6
M  V30 6 1 4 7
M  V30 7 1 5 8
M  V30 8 1 7 9
M  V30 9 1 8 10
M  V30 10 1 8 11
M  V30 11 2 11 12
M  V30 12 1 5 7
M  V30 13 1 4 13
M  V30 14 1 5 14
M  V30 15 1 6 15
M  V30 16 1 7 16
M  V30 17 1 8 17
M  V30 18 1 9 18
M  V30 19 1 10 19
M  V30 20 1 11 20
M  V30 END BOND
M  V30 BEGIN COLLECTION
M  V30 MDLV30/STEABS ATOMS=(4 4 5 7 8)
M  V30 END COLLECTION
M  V30 END CTAB
M  END
>  <Structure No>
5057

>  <LogS>
0.1641

>  <MMFF94 Energy>
78.534

$$$$
Compound 5058
Actelion Java MolfileCreator 2.0

  0  0  0  0  0  0              0 V3000
M  V30 BEGIN CTAB
M  V30 COUNTS 18 17 0 0 0
M  V30 BEGIN ATOM
M  V30 1 O -0.3903 2.4219 -1.6401 0
M  V30 2 C -0.646 1.8665 -0.5393 0
M  V30 3 O -0.5636 2.6042 0.6356 0 CHG=-1
M  V30 4 C -1.0337 0.4113 -0.4971 0 CFG=2
M  V30 5 O -2.3281 0.2815 0.0364 0
M  V30 6 C -0.0079 -0.432 0.306 0 CFG=1
M  V30 7 N -0.4316 -1.8367 0.3857 0 CHG=1
M  V30 8 C 1.3654 -0.3401 -0.3198 0
M  V30 9 O 1.5962 -0.9101 -1.4202 0
M  V30 10 N 2.3995 0.4171 0.3097 0
M  V30 11 H -1.065 0.0245 -1.5401 0
M  V30 12 H -2.2955 0.574 0.9852 0
M  V30 13 H 0.0466 -0.0295 1.3433 0
M  V30 14 H -1.3234 -1.9117 0.9267 0
M  V30 15 H -0.5774 -2.2351 -0.5708 0
M  V30 16 H 0.2954 -2.3995 0.885 0
M  V30 17 H 2.2256 0.9184 1.2089 0
M  V30 18 H 3.3436 0.4852 -0.1307 0
M  V30 END ATOM
M  V30 BEGIN BOND
M  V30 1 2 1 2
M  V30 2 1 2 3
M  V30 3 1 2 4
M  V30 4 1 4 5
M  V30 5 1 4 6
M  V30 6 1 6 7
M  V30 7 1 6 8
M  V30 8 2 8 9
M  V30 9 1 8 10
M  V30 10 1 4 11
M  V30 11 1 5 12
M  V30 12 1 6 13
M  V30 13 1 7 14
M  V30 14 1 7 15
M  V30 15 1 7 16
M  V30 16 1 10 17
M  V30 17 1 10 18
M  V30 END BOND
M  V30 BEGIN COLLECTION
M  V30 MDLV30/STEABS ATOMS=(2 4 6)
M  V30 END COLLECTION
M  V30 END CTAB
M  END
>  <Structure No>
5058

>  <LogS>
-1.1494

>  <MMFF94 Energy>
-34.57

$$$$
Compound 5059
Actelion Java MolfileCreator 2.0

  0  0  0  0  0  0              0 V3000
M  V30 BEGIN CTAB
M  V30 COUNTS 19 19 0 0 0
M  V30 BEGIN ATOM
M  V30 1 O -3.9113 -0.0781 0.7031 0
M  V30 2 C -2.698 -0.1081 0.3682 0
M  V30 3 N -1.9468 1.018 0.4562 0
M  V30 4 N -2.1405 -1.2643 -0.0763 0
M  V30 5 C -0.634 1.0299 0.1033 0
M  V30 6 C -0.8336 -1.3088 -0.4435 0
M  V30 7 N 0.1005 2.2514 0.2415 0
M  V30 8 C -0.0365 -0.1564 -0.3794 0
M  V30 9 C 1.4169 -0.2402 -0.7815 0
M  V30 10 C 2.3097 -0.4492 0.4381 0
M  V30 11 H -2.7184 -2.1331 -0.1376 0
M  V30 12 H -0.4123 -2.2453 -0.789 0
M  V30 13 H -0.3857 3.1099 0.5833 0
M  V30 14 H 1.1212 2.3235 0.0433 0
M  V30 15 H 1.5714 -1.089 -1.4831 0
M  V30 16 H 1.7268 0.672 -1.332 0
M  V30 17 H 2.2019 0.394 1.1525 0
M  V30 18 H 2.0411 -1.3972 0.9515 0
M  V30 19 H 3.3707 -0.5077 0.1162 0
M  V30 END ATOM
M  V30 BEGIN BOND
M  V30 1 2 1 2
M  V30 2 1 2 3
M  V30 3 1 2 4
M  V30 4 2 3 5
M  V30 5 1 4 6
M  V30 6 1 5 7
M  V30 7 1 5 8
M  V30 8 1 8 9
M  V30 9 1 9 10
M  V30 10 2 6 8
M  V30 11 1 4 11
M  V30 12 1 6 12
M  V30 13 1 7 13
M  V30 14 1 7 14
M  V30 15 1 9 15
M  V30 16 1 9 16
M  V30 17 1 10 17
M  V30 18 1 10 18
M  V30 19 1 10 19
M  V30 END BOND
M  V30 END CTAB
M  END
>  <Structure No>
5059

>  <LogS>
-1.0197

>  <MMFF94 Energy>
-86.178

$$$$
Compound 5060
Actelion Java MolfileCreator 2.0

  0  0  0  0  0  0              0 V3000
M  V30 BEGIN CTAB
M  V30 COUNTS 22 23 0 0 0
M  V30 BEGIN ATOM
M  V30 1 Cl -3.8951 2.5661 -0.4421 0
M  V30 2 C -2.9346 1.1037 -0.214 0
M  V30 3 C -1.5278 1.1776 -0.1653 0
M  V30 4 C -3.5761 -0.1392 -0.0732 0
M  V30 5 Cl -0.7328 2.7524 -0.2706 0
M  V30 6 C -0.7682 -4.0E-4 0.0171 0
M  V30 7 Cl -5.3292 -0.2763 -0.1281 0
M  V30 8 C -2.8199 -1.2966 0.1213 0
M  V30 9 C 0.7112 0.0244 0.0552 0
M  V30 10 C -1.4283 -1.2291 0.1688 0
M  V30 11 C 1.4445 0.5102 -1.0393 0
M  V30 12 C 1.396 -0.4748 1.1738 0
M  V30 13 C 2.844 0.5185 -1.0092 0
M  V30 14 C 2.7928 -0.468 1.2061 0
M  V30 15 Cl 3.7215 1.1421 -2.3995 0
M  V30 16 C 3.5215 0.0289 0.12 0
M  V30 17 Cl 5.2782 0.0213 0.1981 0
M  V30 18 H -3.3116 -2.2546 0.2334 0
M  V30 19 H -0.8619 -2.1415 0.3113 0
M  V30 20 H 0.9278 0.8749 -1.919 0
M  V30 21 H 0.8477 -0.8614 2.0244 0
M  V30 22 H 3.3087 -0.8502 2.0778 0
M  V30 END ATOM
M  V30 BEGIN BOND
M  V30 1 1 1 2
M  V30 2 2 2 3
M  V30 3 1 2 4
M  V30 4 1 3 5
M  V30 5 1 3 6
M  V30 6 1 4 7
M  V30 7 2 4 8
M  V30 8 1 6 9
M  V30 9 2 6 10
M  V30 10 2 9 11
M  V30 11 1 9 12
M  V30 12 1 11 13
M  V30 13 2 12 14
M  V30 14 1 13 15
M  V30 15 2 13 16
M  V30 16 1 16 17
M  V30 17 1 8 10
M  V30 18 1 14 16
M  V30 19 1 8 18
M  V30 20 1 10 19
M  V30 21 1 11 20
M  V30 22 1 12 21
M  V30 23 1 14 22
M  V30 END BOND
M  V30 END CTAB
M  END
>  <Structure No>
5060

>  <LogS>
-7.9823

>  <MMFF94 Energy>
61.178

$$$$
Compound 5061
Actelion Java MolfileCreator 2.0

  0  0  0  0  0  0              0 V3000
M  V30 BEGIN CTAB
M  V30 COUNTS 18 18 0 0 0
M  V30 BEGIN ATOM
M  V30 1 S -0.8825 1.8538 -0.5294 0
M  V30 2 S 0.8591 1.2361 -1.6182 0
M  V30 3 C -1.5019 0.1479 -0.3687 0 CFG=2
M  V30 4 C 1.4697 -0.1013 -0.5043 0 CFG=1
M  V30 5 C -2.9707 0.1709 -0.0627 0
M  V30 6 C -0.7266 -0.608 0.73 0
M  V30 7 C 2.9412 0.0939 -0.2925 0
M  V30 8 C 0.7521 -0.1921 0.8537 0
M  V30 9 O -3.7701 -0.5212 -0.7467 0
M  V30 10 O -3.4561 0.9313 0.9951 0 CHG=-1
M  V30 11 O 3.7576 -0.792 -0.6585 0
M  V30 12 O 3.4129 1.2518 0.3151 0 CHG=-1
M  V30 13 H -1.357 -0.3754 -1.3401 0
M  V30 14 H 1.3154 -1.0647 -1.0388 0
M  V30 15 H -1.2012 -0.4417 1.7227 0
M  V30 16 H -0.7829 -1.6986 0.5195 0
M  V30 17 H 1.2644 -0.948 1.4895 0
M  V30 18 H 0.8295 0.7798 1.3892 0
M  V30 END ATOM
M  V30 BEGIN BOND
M  V30 1 1 1 2
M  V30 2 1 1 3
M  V30 3 1 2 4
M  V30 4 1 3 5
M  V30 5 1 3 6
M  V30 6 1 4 7
M  V30 7 1 4 8
M  V30 8 2 5 9
M  V30 9 1 5 10
M  V30 10 2 7 11
M  V30 11 1 7 12
M  V30 12 1 6 8
M  V30 13 1 3 13
M  V30 14 1 4 14
M  V30 15 1 6 15
M  V30 16 1 6 16
M  V30 17 1 8 17
M  V30 18 1 8 18
M  V30 END BOND
M  V30 BEGIN COLLECTION
M  V30 MDLV30/STEABS ATOMS=(2 3 4)
M  V30 END COLLECTION
M  V30 END CTAB
M  END
>  <Structure No>
5061

>  <LogS>
-1.5241

>  <MMFF94 Energy>
135.74

$$$$
Compound 5062
Actelion Java MolfileCreator 2.0

  0  0  0  0  0  0              0 V3000
M  V30 BEGIN CTAB
M  V30 COUNTS 22 23 0 0 0
M  V30 BEGIN ATOM
M  V30 1 Cl -5.3357 0.3611 0.5417 0
M  V30 2 C -3.5826 0.2348 0.399 0
M  V30 3 C -3.0028 -0.8764 -0.2366 0
M  V30 4 C -2.7558 1.2449 0.9203 0
M  V30 5 Cl -3.9954 -2.1635 -0.9097 0
M  V30 6 C -1.6116 -0.9731 -0.3475 0
M  V30 7 Cl -3.4337 2.6525 1.7296 0
M  V30 8 C -1.3655 1.1414 0.8049 0
M  V30 9 C -0.779 0.0331 0.1709 0
M  V30 10 C 0.6975 -0.0732 0.0507 0
M  V30 11 C 1.3439 -1.3031 0.2604 0
M  V30 12 C 1.4702 1.0546 -0.2744 0
M  V30 13 C 2.7345 -1.407 0.1485 0
M  V30 14 C 2.8611 0.9583 -0.3887 0
M  V30 15 Cl 3.4896 -2.9712 0.428 0
M  V30 16 C 3.5011 -0.2749 -0.1773 0
M  V30 17 Cl 3.7764 2.4023 -0.8041 0
M  V30 18 Cl 5.2542 -0.4012 -0.32 0
M  V30 19 H -1.1825 -1.8279 -0.8557 0
M  V30 20 H -0.743 1.9205 1.2276 0
M  V30 21 H 0.7704 -2.1817 0.5294 0
M  V30 22 H 0.9919 2.0091 -0.4575 0
M  V30 END ATOM
M  V30 BEGIN BOND
M  V30 1 1 1 2
M  V30 2 2 2 3
M  V30 3 1 2 4
M  V30 4 1 3 5
M  V30 5 1 3 6
M  V30 6 1 4 7
M  V30 7 2 4 8
M  V30 8 2 6 9
M  V30 9 1 9 10
M  V30 10 2 10 11
M  V30 11 1 10 12
M  V30 12 1 11 13
M  V30 13 2 12 14
M  V30 14 1 13 15
M  V30 15 2 13 16
M  V30 16 1 14 17
M  V30 17 1 16 18
M  V30 18 1 8 9
M  V30 19 1 14 16
M  V30 20 1 6 19
M  V30 21 1 8 20
M  V30 22 1 11 21
M  V30 23 1 12 22
M  V30 END BOND
M  V30 END CTAB
M  END
>  <Structure No>
5062

>  <LogS>
-8.8498

>  <MMFF94 Energy>
48.967

$$$$
Compound 5063
Actelion Java MolfileCreator 2.0

  0  0  0  0  0  0              0 V3000
M  V30 BEGIN CTAB
M  V30 COUNTS 29 31 0 0 0
M  V30 BEGIN ATOM
M  V30 1 Cl 4.6935 2.7638 -0.7532 0
M  V30 2 C 3.8227 1.2721 -0.4465 0
M  V30 3 C 4.5272 0.0873 -0.2129 0
M  V30 4 C 2.4234 1.2675 -0.4411 0
M  V30 5 C 3.8342 -1.1033 0.0254 0
M  V30 6 C 1.718 0.0759 -0.2016 0
M  V30 7 Cl 4.7193 -2.5881 0.3235 0
M  V30 8 C 2.435 -1.1099 0.0305 0
M  V30 9 N 0.2794 0.0674 -0.1963 0
M  V30 10 C -0.5837 1.0629 0.3386 0
M  V30 11 C -0.5699 -0.9204 -0.7648 0
M  V30 12 O -0.1681 2.093 0.933 0
M  V30 13 C -2.0332 0.7441 0.148 0 CFG=2
M  V30 14 O -0.1403 -1.9137 -1.4094 0
M  V30 15 C -2.0223 -0.6076 -0.596 0 CFG=1
M  V30 16 C -2.5705 0.6434 -1.2781 0
M  V30 17 C -3.0071 0.9073 1.321 0
M  V30 18 C -2.9851 -1.7012 -0.1192 0
M  V30 19 H 5.61 0.0919 -0.2169 0
M  V30 20 H 1.8894 2.1867 -0.6442 0
M  V30 21 H 1.9089 -2.0337 0.234 0
M  V30 22 H -3.6767 0.685 -1.3684 0
M  V30 23 H -1.909 1.0795 -2.0575 0
M  V30 24 H -2.9523 1.9499 1.6975 0
M  V30 25 H -4.0568 0.71 1.0194 0
M  V30 26 H -2.7251 0.219 2.1452 0
M  V30 27 H -2.7048 -2.0317 0.9029 0
M  V30 28 H -4.0394 -1.3541 -0.1179 0
M  V30 29 H -2.9145 -2.5719 -0.8037 0
M  V30 END ATOM
M  V30 BEGIN BOND
M  V30 1 1 1 2
M  V30 2 2 2 3
M  V30 3 1 2 4
M  V30 4 1 3 5
M  V30 5 2 4 6
M  V30 6 1 5 7
M  V30 7 2 5 8
M  V30 8 1 6 9
M  V30 9 1 9 10
M  V30 10 1 9 11
M  V30 11 2 10 12
M  V30 12 1 10 13
M  V30 13 2 11 14
M  V30 14 1 11 15
M  V30 15 1 13 16
M  V30 16 1 13 17
M  V30 17 1 15 18
M  V30 18 1 6 8
M  V30 19 1 13 15
M  V30 20 1 15 16
M  V30 21 1 3 19
M  V30 22 1 4 20
M  V30 23 1 8 21
M  V30 24 1 16 22
M  V30 25 1 16 23
M  V30 26 1 17 24
M  V30 27 1 17 25
M  V30 28 1 17 26
M  V30 29 1 18 27
M  V30 30 1 18 28
M  V30 31 1 18 29
M  V30 END BOND
M  V30 BEGIN COLLECTION
M  V30 MDLV30/STEABS ATOMS=(2 13 15)
M  V30 END COLLECTION
M  V30 END CTAB
M  END
>  <Structure No>
5063

>  <LogS>
-4.8003

>  <MMFF94 Energy>
26.523

$$$$
Compound 5064
Actelion Java MolfileCreator 2.0

  0  0  0  0  0  0              0 V3000
M  V30 BEGIN CTAB
M  V30 COUNTS 47 48 0 0 0
M  V30 BEGIN ATOM
M  V30 1 N 2.3497 0.9393 0.7827 0 CHG=1
M  V30 2 C 3.5611 0.3558 0.2791 0
M  V30 3 C 1.2404 0.2596 0.8602 0
M  V30 4 C 3.6552 -0.1583 -1.038 0
M  V30 5 C 4.6928 0.3453 1.1055 0
M  V30 6 N 0.0235 0.8423 1.3635 0
M  V30 7 C 4.8592 -0.7465 -1.4616 0
M  V30 8 C 2.4969 -0.097 -1.9984 0
M  V30 9 C 5.8891 -0.2236 0.6659 0
M  V30 10 C -1.2196 0.2642 0.9233 0
M  V30 11 C 0.0493 1.9827 2.2867 0
M  V30 12 C 5.9722 -0.7954 -0.6097 0
M  V30 13 N -2.3289 0.948 0.9031 0 CHG=1
M  V30 14 C 7.2666 -1.3811 -1.0914 0
M  V30 15 C -3.5667 0.3689 0.4623 0
M  V30 16 C -3.7303 -0.1447 -0.8482 0
M  V30 17 C -4.6545 0.3624 1.3457 0
M  V30 18 C -4.9567 -0.7284 -1.2094 0
M  V30 19 C -2.6228 -0.0874 -1.8667 0
M  V30 20 C -5.874 -0.202 0.9683 0
M  V30 21 C -6.0247 -0.7734 -0.3015 0
M  V30 22 C -7.3443 -1.3542 -0.7161 0
M  V30 23 H 2.4029 1.9189 1.1395 0
M  V30 24 H 1.2135 -0.7611 0.4941 0
M  V30 25 H 4.6397 0.7677 2.1014 0
M  V30 26 H 4.9353 -1.157 -2.4619 0
M  V30 27 H 1.907 0.8314 -1.8476 0
M  V30 28 H 1.842 -0.9808 -1.8523 0
M  V30 29 H 2.8548 -0.0928 -3.0501 0
M  V30 30 H 6.7492 -0.2238 1.3243 0
M  V30 31 H -1.2154 -0.7567 0.5565 0
M  V30 32 H 0.0362 2.9321 1.7114 0
M  V30 33 H 0.9551 1.9468 2.9284 0
M  V30 34 H -0.8224 1.9499 2.9741 0
M  V30 35 H -2.3603 1.9278 1.2621 0
M  V30 36 H 7.8646 -0.5919 -1.5934 0
M  V30 37 H 7.0789 -2.2066 -1.8106 0
M  V30 38 H 7.8514 -1.7934 -0.2416 0
M  V30 39 H -4.5491 0.7844 2.3376 0
M  V30 40 H -5.0856 -1.1385 -2.2045 0
M  V30 41 H -1.9644 -0.9736 -1.7545 0
M  V30 42 H -2.0225 0.8389 -1.7466 0
M  V30 43 H -3.0342 -0.0818 -2.8986 0
M  V30 44 H -6.6993 -0.1991 1.6699 0
M  V30 45 H -7.8862 -1.7646 0.1626 0
M  V30 46 H -7.9645 -0.5629 -1.1866 0
M  V30 47 H -7.1969 -2.1802 -1.4441 0
M  V30 END ATOM
M  V30 BEGIN BOND
M  V30 1 1 1 2
M  V30 2 2 1 3
M  V30 3 2 2 4
M  V30 4 1 2 5
M  V30 5 1 3 6
M  V30 6 1 4 7
M  V30 7 1 4 8
M  V30 8 2 5 9
M  V30 9 1 6 10
M  V30 10 1 6 11
M  V30 11 2 7 12
M  V30 12 2 10 13
M  V30 13 1 12 14
M  V30 14 1 13 15
M  V30 15 2 15 16
M  V30 16 1 15 17
M  V30 17 1 16 18
M  V30 18 1 16 19
M  V30 19 2 17 20
M  V30 20 2 18 21
M  V30 21 1 21 22
M  V30 22 1 9 12
M  V30 23 1 20 21
M  V30 24 1 1 23
M  V30 25 1 3 24
M  V30 26 1 5 25
M  V30 27 1 7 26
M  V30 28 1 8 27
M  V30 29 1 8 28
M  V30 30 1 8 29
M  V30 31 1 9 30
M  V30 32 1 10 31
M  V30 33 1 11 32
M  V30 34 1 11 33
M  V30 35 1 11 34
M  V30 36 1 13 35
M  V30 37 1 14 36
M  V30 38 1 14 37
M  V30 39 1 14 38
M  V30 40 1 17 39
M  V30 41 1 18 40
M  V30 42 1 19 41
M  V30 43 1 19 42
M  V30 44 1 19 43
M  V30 45 1 20 44
M  V30 46 1 22 45
M  V30 47 1 22 46
M  V30 48 1 22 47
M  V30 END BOND
M  V30 END CTAB
M  END
>  <Structure No>
5064

>  <LogS>
-5.4675

>  <MMFF94 Energy>
126.93

$$$$
Compound 5065
Actelion Java MolfileCreator 2.0

  0  0  0  0  0  0              0 V3000
M  V30 BEGIN CTAB
M  V30 COUNTS 22 23 0 0 0
M  V30 BEGIN ATOM
M  V30 1 Cl -0.4701 -1.2226 2.4462 0
M  V30 2 C -1.4194 -0.5887 1.0978 0
M  V30 3 C -2.8256 -0.6425 1.141 0
M  V30 4 C -0.7707 -0.0287 -0.0226 0
M  V30 5 Cl -3.6464 -1.3408 2.5378 0
M  V30 6 C -3.5772 -0.1376 0.0665 0
M  V30 7 C 0.7073 0.0323 -0.0767 0
M  V30 8 C -1.5359 0.4733 -1.0921 0
M  V30 9 Cl -5.336 -0.1846 0.0786 0
M  V30 10 C -2.9301 0.4157 -1.0404 0
M  V30 11 C 1.4439 -1.0336 -0.6345 0
M  V30 12 C 1.3845 1.1577 0.4295 0
M  V30 13 Cl -0.7731 1.1813 -2.5126 0
M  V30 14 Cl 0.6052 -2.4516 -1.2728 0
M  V30 15 C 2.8492 -0.967 -0.6819 0
M  V30 16 Cl 0.5102 2.5135 1.1359 0
M  V30 17 C 2.7787 1.2149 0.3781 0
M  V30 18 Cl 3.7791 -2.2949 -1.3774 0
M  V30 19 C 3.5126 0.1622 -0.1729 0
M  V30 20 Cl 5.2669 0.2871 -0.2119 0
M  V30 21 H -3.5143 0.8033 -1.8657 0
M  V30 22 H 3.295 2.0828 0.7691 0
M  V30 END ATOM
M  V30 BEGIN BOND
M  V30 1 1 1 2
M  V30 2 2 2 3
M  V30 3 1 2 4
M  V30 4 1 3 5
M  V30 5 1 3 6
M  V30 6 1 4 7
M  V30 7 2 4 8
M  V30 8 1 6 9
M  V30 9 2 6 10
M  V30 10 2 7 11
M  V30 11 1 7 12
M  V30 12 1 8 13
M  V30 13 1 11 14
M  V30 14 1 11 15
M  V30 15 1 12 16
M  V30 16 2 12 17
M  V30 17 1 15 18
M  V30 18 2 15 19
M  V30 19 1 19 20
M  V30 20 1 8 10
M  V30 21 1 17 19
M  V30 22 1 10 21
M  V30 23 1 17 22
M  V30 END BOND
M  V30 BEGIN COLLECTION
M  V30 MDLV30/STEABS BONDS=(1 6)
M  V30 END COLLECTION
M  V30 END CTAB
M  END
>  <Structure No>
5065

>  <LogS>
-9.1

>  <MMFF94 Energy>
45.978

$$$$
Compound 5066
Actelion Java MolfileCreator 2.0

  0  0  0  0  0  0              0 V3000
M  V30 BEGIN CTAB
M  V30 COUNTS 25 25 0 0 0
M  V30 BEGIN ATOM
M  V30 1 O 1.4895 1.7249 1.568 0
M  V30 2 C 1.9751 0.6419 1.1423 0
M  V30 3 N 1.3015 -0.1084 0.121 0
M  V30 4 C 3.2192 0.0997 1.7664 0
M  V30 5 C 0.1648 0.3955 -0.6024 0
M  V30 6 C -0.9715 -0.4197 -0.8366 0
M  V30 7 C 0.1901 1.7051 -1.115 0
M  V30 8 C -2.0651 0.1136 -1.5431 0
M  V30 9 C -1.0792 -1.8199 -0.2763 0
M  V30 10 C -0.8986 2.2116 -1.8261 0
M  V30 11 C -2.0254 1.4187 -2.0365 0
M  V30 12 C -1.4129 -1.7891 1.2124 0
M  V30 13 H 1.6369 -1.0778 -0.0718 0
M  V30 14 H 3.7769 0.9081 2.2853 0
M  V30 15 H 3.8736 -0.3383 0.984 0
M  V30 16 H 2.9504 -0.6872 2.5012 0
M  V30 17 H 1.0625 2.3309 -0.9761 0
M  V30 18 H -2.9545 -0.4815 -1.7102 0
M  V30 19 H -0.1383 -2.3835 -0.4402 0
M  V30 20 H -1.8746 -2.3888 -0.8055 0
M  V30 21 H -0.8677 3.2211 -2.2157 0
M  V30 22 H -2.8712 1.8161 -2.583 0
M  V30 23 H -0.6082 -1.2792 1.7831 0
M  V30 24 H -1.5117 -2.8276 1.5926 0
M  V30 25 H -2.3735 -1.2562 1.3796 0
M  V30 END ATOM
M  V30 BEGIN BOND
M  V30 1 2 1 2
M  V30 2 1 2 3
M  V30 3 1 2 4
M  V30 4 1 3 5
M  V30 5 2 5 6
M  V30 6 1 5 7
M  V30 7 1 6 8
M  V30 8 1 6 9
M  V30 9 2 7 10
M  V30 10 2 8 11
M  V30 11 1 9 12
M  V30 12 1 10 11
M  V30 13 1 3 13
M  V30 14 1 4 14
M  V30 15 1 4 15
M  V30 16 1 4 16
M  V30 17 1 7 17
M  V30 18 1 8 18
M  V30 19 1 9 19
M  V30 20 1 9 20
M  V30 21 1 10 21
M  V30 22 1 11 22
M  V30 23 1 12 23
M  V30 24 1 12 24
M  V30 25 1 12 25
M  V30 END BOND
M  V30 END CTAB
M  END
>  <Structure No>
5066

>  <LogS>
-1.5906

>  <MMFF94 Energy>
4.8638

$$$$
Compound 5067
Actelion Java MolfileCreator 2.0

  0  0  0  0  0  0              0 V3000
M  V30 BEGIN CTAB
M  V30 COUNTS 25 27 0 0 0
M  V30 BEGIN ATOM
M  V30 1 Cl -2.6187 -2.8996 0.1869 0
M  V30 2 C -1.9115 -1.2906 0.1335 0
M  V30 3 C -2.1041 -0.3163 1.032 0
M  V30 4 C -1.0892 -0.6918 -0.9892 0 CFG=1
M  V30 5 Cl -3.0725 -0.4374 2.4953 0
M  V30 6 C -1.3397 0.8977 0.5368 0 CFG=1
M  V30 7 Cl -1.2287 -1.5171 -2.5692 0
M  V30 8 C -1.6214 0.754 -0.963 0
M  V30 9 C 0.3656 -0.473 -0.4935 0 CFG=1
M  V30 10 Cl -1.83 2.4492 1.2805 0
M  V30 11 C 0.1593 0.4865 0.7009 0 CFG=1
M  V30 12 Cl -0.7489 1.9413 -1.9994 0
M  V30 13 Cl -3.3712 0.8904 -1.3949 0
M  V30 14 C 1.2189 -1.6799 -0.0787 0
M  V30 15 C 1.2766 1.5185 0.7491 0
M  V30 16 O 2.5878 -1.5264 -0.4101 0
M  V30 17 O 2.4381 0.8774 1.2438 0
M  V30 18 S 3.3 0.0062 0.0158 0 CFG=2
M  V30 19 O 3.2635 0.8482 -1.2546 0
M  V30 20 H 0.895 0.0123 -1.3403 0
M  V30 21 H 0.2363 -0.0469 1.6799 0
M  V30 22 H 0.8471 -2.5689 -0.6294 0
M  V30 23 H 1.1238 -1.9326 0.9984 0
M  V30 24 H 0.998 2.3077 1.477 0
M  V30 25 H 1.4418 2.0334 -0.219 0
M  V30 END ATOM
M  V30 BEGIN BOND
M  V30 1 1 1 2
M  V30 2 2 2 3
M  V30 3 1 2 4
M  V30 4 1 3 5
M  V30 5 1 3 6
M  V30 6 1 4 7
M  V30 7 1 4 8
M  V30 8 1 4 9
M  V30 9 1 6 10
M  V30 10 1 6 11
M  V30 11 1 8 12
M  V30 12 1 8 13
M  V30 13 1 9 14
M  V30 14 1 11 15
M  V30 15 1 14 16
M  V30 16 1 15 17
M  V30 17 1 16 18
M  V30 18 2 18 19
M  V30 19 1 6 8
M  V30 20 1 9 11
M  V30 21 1 17 18
M  V30 22 1 9 20
M  V30 23 1 11 21
M  V30 24 1 14 22
M  V30 25 1 14 23
M  V30 26 1 15 24
M  V30 27 1 15 25
M  V30 END BOND
M  V30 BEGIN COLLECTION
M  V30 MDLV30/STEABS ATOMS=(5 4 6 9 11 18)
M  V30 END COLLECTION
M  V30 END CTAB
M  END
>  <Structure No>
5067

>  <LogS>
-5.9563

>  <MMFF94 Energy>
55.894

$$$$
Compound 5068
Actelion Java MolfileCreator 2.0

  0  0  0  0  0  0              0 V3000
M  V30 BEGIN CTAB
M  V30 COUNTS 36 36 0 0 0
M  V30 BEGIN ATOM
M  V30 1 Cl -2.0574 -0.4935 -4.448 0
M  V30 2 C -2.0154 -0.1186 -2.707 0
M  V30 3 C -0.7533 -0.7115 -2.0759 0
M  V30 4 N -0.646 -0.3837 -0.644 0
M  V30 5 C 0.6523 -0.0459 -0.1131 0
M  V30 6 C -1.6948 -0.8161 0.2957 0
M  V30 7 C 0.943 1.2862 0.2749 0
M  V30 8 C 1.6571 -1.0404 0.0076 0
M  V30 9 C -2.5108 0.3763 0.8022 0
M  V30 10 N 0.0016 2.3539 0.0757 0 CHG=1
M  V30 11 C 2.1928 1.5876 0.8361 0
M  V30 12 N 1.4319 -2.3963 -0.4175 0 CHG=1
M  V30 13 C 2.9097 -0.6975 0.54 0
M  V30 14 C -3.6856 -0.0837 1.6603 0
M  V30 15 O -0.7058 2.3916 -0.9504 0
M  V30 16 O -2.0E-4 3.4391 0.9219 0 CHG=-1
M  V30 17 C 3.1731 0.6005 0.9933 0
M  V30 18 O 2.3664 -3.0579 -0.9151 0
M  V30 19 O 0.2545 -3.0401 -0.1179 0 CHG=-1
M  V30 20 C 4.5348 0.9576 1.5372 0
M  V30 21 F 5.3528 1.3497 0.4941 0
M  V30 22 F 5.1075 -0.129 2.1756 0
M  V30 23 F 4.4408 1.9936 2.4508 0
M  V30 24 H -2.03 0.9827 -2.5867 0
M  V30 25 H -2.9274 -0.5444 -2.2405 0
M  V30 26 H -0.7638 -1.8143 -2.2059 0
M  V30 27 H 0.1301 -0.3122 -2.6222 0
M  V30 28 H -2.3718 -1.5478 -0.1964 0
M  V30 29 H -1.2364 -1.337 1.1651 0
M  V30 30 H -2.9025 0.959 -0.0585 0
M  V30 31 H -1.8635 1.036 1.4171 0
M  V30 32 H 2.4143 2.6088 1.1211 0
M  V30 33 H 3.6778 -1.4572 0.6187 0
M  V30 34 H -4.2484 0.8012 2.0249 0
M  V30 35 H -4.3735 -0.7202 1.0639 0
M  V30 36 H -3.3206 -0.659 2.5378 0
M  V30 END ATOM
M  V30 BEGIN BOND
M  V30 1 1 1 2
M  V30 2 1 2 3
M  V30 3 1 3 4
M  V30 4 1 4 5
M  V30 5 1 4 6
M  V30 6 2 5 7
M  V30 7 1 5 8
M  V30 8 1 6 9
M  V30 9 1 7 10
M  V30 10 1 7 11
M  V30 11 1 8 12
M  V30 12 2 8 13
M  V30 13 1 9 14
M  V30 14 2 10 15
M  V30 15 1 10 16
M  V30 16 2 11 17
M  V30 17 2 12 18
M  V30 18 1 12 19
M  V30 19 1 17 20
M  V30 20 1 20 21
M  V30 21 1 20 22
M  V30 22 1 20 23
M  V30 23 1 13 17
M  V30 24 1 2 24
M  V30 25 1 2 25
M  V30 26 1 3 26
M  V30 27 1 3 27
M  V30 28 1 6 28
M  V30 29 1 6 29
M  V30 30 1 9 30
M  V30 31 1 9 31
M  V30 32 1 11 32
M  V30 33 1 13 33
M  V30 34 1 14 34
M  V30 35 1 14 35
M  V30 36 1 14 36
M  V30 END BOND
M  V30 END CTAB
M  END
>  <Structure No>
5068

>  <LogS>
-5.5968

>  <MMFF94 Energy>
159.23

$$$$
Compound 5069
Actelion Java MolfileCreator 2.0

  0  0  0  0  0  0              0 V3000
M  V30 BEGIN CTAB
M  V30 COUNTS 22 23 0 0 0
M  V30 BEGIN ATOM
M  V30 1 Cl 3.2026 3.2026 -0.6918 0
M  V30 2 C 2.5818 1.5892 -0.3939 0
M  V30 3 C 3.4671 0.521 -0.225 0
M  V30 4 C 1.2012 1.3736 -0.3212 0
M  V30 5 C 2.9742 -0.7642 0.0169 0
M  V30 6 C 0.6924 0.084 -0.0778 0
M  V30 7 Cl 4.087 -2.1047 0.2229 0
M  V30 8 C 1.5942 -0.9833 0.0907 0
M  V30 9 C -0.7728 -0.1467 0.0 0
M  V30 10 C -1.6461 0.4939 -0.8989 0
M  V30 11 C -1.31 -1.0094 0.9736 0
M  V30 12 C -3.0261 0.2751 -0.8246 0
M  V30 13 C -2.6906 -1.2254 1.0457 0
M  V30 14 Cl -4.103 1.0753 -1.955 0
M  V30 15 C -3.5475 -0.5836 0.1471 0
M  V30 16 Cl -3.3476 -2.2986 2.2681 0
M  V30 17 H 4.5351 0.6893 -0.2817 0
M  V30 18 H 0.5295 2.2152 -0.437 0
M  V30 19 H 1.2287 -1.9883 0.2616 0
M  V30 20 H -1.2573 1.1489 -1.6688 0
M  V30 21 H -0.6619 -1.5009 1.6885 0
M  V30 22 H -4.6156 -0.7518 0.2038 0
M  V30 END ATOM
M  V30 BEGIN BOND
M  V30 1 1 1 2
M  V30 2 2 2 3
M  V30 3 1 2 4
M  V30 4 1 3 5
M  V30 5 2 4 6
M  V30 6 1 5 7
M  V30 7 2 5 8
M  V30 8 1 6 9
M  V30 9 2 9 10
M  V30 10 1 9 11
M  V30 11 1 10 12
M  V30 12 2 11 13
M  V30 13 1 12 14
M  V30 14 2 12 15
M  V30 15 1 13 16
M  V30 16 1 6 8
M  V30 17 1 13 15
M  V30 18 1 3 17
M  V30 19 1 4 18
M  V30 20 1 8 19
M  V30 21 1 10 20
M  V30 22 1 11 21
M  V30 23 1 15 22
M  V30 END BOND
M  V30 END CTAB
M  END
>  <Structure No>
5069

>  <LogS>
-8.3748

>  <MMFF94 Energy>
7.8251

$$$$
Compound 5070
Actelion Java MolfileCreator 2.0

  0  0  0  0  0  0              0 V3000
M  V30 BEGIN CTAB
M  V30 COUNTS 22 23 0 0 0
M  V30 BEGIN ATOM
M  V30 1 Cl -0.6926 -2.5992 -0.9524 0
M  V30 2 C -1.5013 -1.0953 -0.4986 0
M  V30 3 C -0.7511 0.0236 -0.0741 0
M  V30 4 C -2.9009 -1.0054 -0.5854 0
M  V30 5 C -1.4146 1.2249 0.2593 0
M  V30 6 C 0.7216 -0.0623 0.0205 0
M  V30 7 Cl -3.8748 -2.3725 -1.1125 0
M  V30 8 C -3.5471 0.1868 -0.2539 0
M  V30 9 Cl -0.5019 2.6284 0.824 0
M  V30 10 C -2.8147 1.2987 0.166 0
M  V30 11 C 1.3213 -0.8231 1.0367 0
M  V30 12 C 1.5303 0.6164 -0.9048 0
M  V30 13 Cl -3.683 2.7735 0.5747 0
M  V30 14 C 2.7145 -0.9034 1.1245 0
M  V30 15 C 2.9231 0.534 -0.8132 0
M  V30 16 C 3.5148 -0.2253 0.2004 0
M  V30 17 H -4.6261 0.2499 -0.3233 0
M  V30 18 H 0.7099 -1.3503 1.7589 0
M  V30 19 H 1.0813 1.2054 -1.695 0
M  V30 20 H 3.1737 -1.4906 1.9092 0
M  V30 21 H 3.5438 1.0583 -1.5283 0
M  V30 22 H 4.5929 -0.2881 0.2698 0
M  V30 END ATOM
M  V30 BEGIN BOND
M  V30 1 1 1 2
M  V30 2 2 2 3
M  V30 3 1 2 4
M  V30 4 1 3 5
M  V30 5 1 3 6
M  V30 6 1 4 7
M  V30 7 2 4 8
M  V30 8 1 5 9
M  V30 9 2 5 10
M  V30 10 2 6 11
M  V30 11 1 6 12
M  V30 12 1 10 13
M  V30 13 1 11 14
M  V30 14 2 12 15
M  V30 15 2 14 16
M  V30 16 1 8 10
M  V30 17 1 15 16
M  V30 18 1 8 17
M  V30 19 1 11 18
M  V30 20 1 12 19
M  V30 21 1 14 20
M  V30 22 1 15 21
M  V30 23 1 16 22
M  V30 END BOND
M  V30 END CTAB
M  END
>  <Structure No>
5070

>  <LogS>
-7.25

>  <MMFF94 Energy>
51.724

$$$$
Compound 5071
Actelion Java MolfileCreator 2.0

  0  0  0  0  0  0              0 V3000
M  V30 BEGIN CTAB
M  V30 COUNTS 42 42 0 0 0
M  V30 BEGIN ATOM
M  V30 1 O 1.1942 -3.1871 0.9553 0
M  V30 2 N 0.3773 -2.3329 1.3569 0 CHG=1
M  V30 3 O -0.126 -2.4482 2.6325 0 CHG=-1
M  V30 4 C -0.1378 -1.3283 0.4622 0
M  V30 5 C 0.6302 -0.84 -0.6176 0
M  V30 6 C -1.4351 -0.836 0.6626 0
M  V30 7 N 2.002 -1.2347 -0.7585 0
M  V30 8 C 0.0665 0.0938 -1.5169 0
M  V30 9 C -2.0089 0.1189 -0.199 0
M  V30 10 C 3.0446 -0.7186 0.1364 0 CFG=2
M  V30 11 N 0.8119 0.6038 -2.6414 0 CHG=1
M  V30 12 C -1.2377 0.5642 -1.2937 0
M  V30 13 C -3.4445 0.6212 0.0711 0
M  V30 14 C 3.3263 0.7629 -0.191 0
M  V30 15 C 4.3082 -1.5807 0.0083 0
M  V30 16 O 1.7117 -0.074 -3.1781 0
M  V30 17 O 0.4747 1.8132 -3.2051 0 CHG=-1
M  V30 18 C -3.5119 1.2608 1.4757 0
M  V30 19 C -4.4273 -0.5676 0.0013 0
M  V30 20 C -3.9215 1.6846 -0.9478 0
M  V30 21 C 4.2584 1.431 0.8199 0
M  V30 22 H -2.009 -1.2202 1.4944 0
M  V30 23 H 2.2371 -1.94 -1.4937 0
M  V30 24 H 2.6858 -0.7949 1.1866 0
M  V30 25 H -1.6381 1.2782 -1.9957 0
M  V30 26 H 2.3678 1.3252 -0.1834 0
M  V30 27 H 3.7613 0.8526 -1.2102 0
M  V30 28 H 5.0544 -1.3028 0.781 0
M  V30 29 H 4.0509 -2.6505 0.1611 0
M  V30 30 H 4.7613 -1.4637 -0.9991 0
M  V30 31 H -3.296 0.5214 2.2745 0
M  V30 32 H -4.5251 1.6734 1.6735 0
M  V30 33 H -2.7754 2.0892 1.5583 0
M  V30 34 H -4.2122 -1.3229 0.7855 0
M  V30 35 H -5.4739 -0.2234 0.15 0
M  V30 36 H -4.3609 -1.0656 -0.99 0
M  V30 37 H -3.9455 1.2659 -1.9771 0
M  V30 38 H -3.2595 2.5773 -0.9277 0
M  V30 39 H -4.9514 2.0277 -0.7069 0
M  V30 40 H 5.2858 1.0203 0.7399 0
M  V30 41 H 3.879 1.2866 1.8539 0
M  V30 42 H 4.3078 2.5206 0.6116 0
M  V30 END ATOM
M  V30 BEGIN BOND
M  V30 1 2 1 2
M  V30 2 1 2 3
M  V30 3 1 2 4
M  V30 4 2 4 5
M  V30 5 1 4 6
M  V30 6 1 5 7
M  V30 7 1 5 8
M  V30 8 2 6 9
M  V30 9 1 7 10
M  V30 10 1 8 11
M  V30 11 2 8 12
M  V30 12 1 9 13
M  V30 13 1 10 14
M  V30 14 1 10 15
M  V30 15 2 11 16
M  V30 16 1 11 17
M  V30 17 1 13 18
M  V30 18 1 13 19
M  V30 19 1 13 20
M  V30 20 1 14 21
M  V30 21 1 9 12
M  V30 22 1 6 22
M  V30 23 1 7 23
M  V30 24 1 10 24
M  V30 25 1 12 25
M  V30 26 1 14 26
M  V30 27 1 14 27
M  V30 28 1 15 28
M  V30 29 1 15 29
M  V30 30 1 15 30
M  V30 31 1 18 31
M  V30 32 1 18 32
M  V30 33 1 18 33
M  V30 34 1 19 34
M  V30 35 1 19 35
M  V30 36 1 19 36
M  V30 37 1 20 37
M  V30 38 1 20 38
M  V30 39 1 20 39
M  V30 40 1 21 40
M  V30 41 1 21 41
M  V30 42 1 21 42
M  V30 END BOND
M  V30 BEGIN COLLECTION
M  V30 MDLV30/STEABS ATOMS=(1 10)
M  V30 END COLLECTION
M  V30 END CTAB
M  END
>  <Structure No>
5071

>  <LogS>
-5.4703

>  <MMFF94 Energy>
134.42

$$$$
Compound 5072
Actelion Java MolfileCreator 2.0

  0  0  0  0  0  0              0 V3000
M  V30 BEGIN CTAB
M  V30 COUNTS 20 20 0 0 0
M  V30 BEGIN ATOM
M  V30 1 O 2.4621 1.7468 -0.9525 0
M  V30 2 C 2.0765 0.6232 -0.5285 0
M  V30 3 C 0.6339 0.3987 -0.2378 0
M  V30 4 C 3.1021 -0.4531 -0.333 0
M  V30 5 C 0.1667 -0.8421 0.2365 0
M  V30 6 C -0.2938 1.4381 -0.436 0
M  V30 7 C -1.1949 -1.0398 0.5064 0
M  V30 8 C -1.6556 1.2445 -0.1674 0
M  V30 9 O -1.6427 -2.2741 0.9757 0
M  V30 10 C -2.1085 0.0069 0.3037 0
M  V30 11 O -2.5668 2.2805 -0.3671 0
M  V30 12 O -3.4681 -0.1667 0.5653 0
M  V30 13 H 2.8621 -1.3243 -0.9779 0
M  V30 14 H 4.1132 -0.0824 -0.6062 0
M  V30 15 H 3.1201 -0.768 0.7313 0
M  V30 16 H 0.8503 -1.6641 0.4009 0
M  V30 17 H 0.0349 2.4037 -0.7998 0
M  V30 18 H -1.0057 -3.0468 1.1311 0
M  V30 19 H -2.2722 3.1886 -0.7069 0
M  V30 20 H -3.8437 -1.0431 0.9072 0
M  V30 END ATOM
M  V30 BEGIN BOND
M  V30 1 2 1 2
M  V30 2 1 2 3
M  V30 3 1 2 4
M  V30 4 2 3 5
M  V30 5 1 3 6
M  V30 6 1 5 7
M  V30 7 2 6 8
M  V30 8 1 7 9
M  V30 9 2 7 10
M  V30 10 1 8 11
M  V30 11 1 10 12
M  V30 12 1 8 10
M  V30 13 1 4 13
M  V30 14 1 4 14
M  V30 15 1 4 15
M  V30 16 1 5 16
M  V30 17 1 6 17
M  V30 18 1 9 18
M  V30 19 1 11 19
M  V30 20 1 12 20
M  V30 END BOND
M  V30 END CTAB
M  END
>  <Structure No>
5072

>  <LogS>
-1.4711

>  <MMFF94 Energy>
12.541

$$$$
Compound 5073
Actelion Java MolfileCreator 2.0

  0  0  0  0  0  0              0 V3000
M  V30 BEGIN CTAB
M  V30 COUNTS 45 45 0 0 0
M  V30 BEGIN ATOM
M  V30 1 O -1.5095 2.5434 -0.5559 0
M  V30 2 N -0.3704 2.4901 -0.05 0 CHG=1
M  V30 3 O 0.2301 3.6633 0.346 0 CHG=-1
M  V30 4 C 0.3648 1.2521 -0.0077 0
M  V30 5 C -0.2853 -0.0026 0.1222 0
M  V30 6 C 1.7624 1.2969 -0.1173 0
M  V30 7 N -1.7189 -0.0609 0.2813 0
M  V30 8 C 0.4829 -1.1971 0.0813 0
M  V30 9 C 2.5271 0.1249 -0.1429 0
M  V30 10 C -2.2741 -0.0722 1.645 0
M  V30 11 C -2.6104 -0.4266 -0.8366 0
M  V30 12 N -0.1255 -2.5025 0.1428 0 CHG=1
M  V30 13 C 1.8764 -1.1135 -0.0579 0
M  V30 14 C 4.0371 0.2076 -0.2804 0
M  V30 15 C -2.4431 1.3471 2.1923 0
M  V30 16 C -1.947 -0.3136 -2.2209 0
M  V30 17 O -1.1612 -2.7029 0.8081 0
M  V30 18 O 0.5023 -3.5817 -0.4356 0 CHG=-1
M  V30 19 C 4.7389 -0.4085 0.9356 0
M  V30 20 C 4.5102 -0.4489 -1.5827 0
M  V30 21 C -3.0997 1.3325 3.5697 0
M  V30 22 C -2.9445 -0.6193 -3.334 0
M  V30 23 H 2.2574 2.2555 -0.2112 0
M  V30 24 H -3.2646 -0.5798 1.6484 0
M  V30 25 H -1.6069 -0.6492 2.3224 0
M  V30 26 H -3.5002 0.2398 -0.81 0
M  V30 27 H -2.9653 -1.47 -0.6936 0
M  V30 28 H 2.4614 -2.0234 -0.0854 0
M  V30 29 H 4.348 1.2754 -0.3249 0
M  V30 30 H -1.4498 1.8342 2.2828 0
M  V30 31 H -3.078 1.9403 1.4999 0
M  V30 32 H -1.1059 -1.0353 -2.2967 0
M  V30 33 H -1.5488 0.7109 -2.3731 0
M  V30 34 H 4.5469 -1.5003 1.0005 0
M  V30 35 H 4.379 0.0758 1.8686 0
M  V30 36 H 5.8357 -0.2479 0.8627 0
M  V30 37 H 3.9902 0.0099 -2.4506 0
M  V30 38 H 5.6027 -0.2938 -1.7112 0
M  V30 39 H 4.3073 -1.5407 -1.5786 0
M  V30 40 H -2.4784 0.7558 4.2874 0
M  V30 41 H -4.1113 0.8772 3.511 0
M  V30 42 H -3.2008 2.3732 3.944 0
M  V30 43 H -3.7857 0.1058 -3.3085 0
M  V30 44 H -2.4381 -0.5404 -4.3189 0
M  V30 45 H -3.3442 -1.6496 -3.2215 0
M  V30 END ATOM
M  V30 BEGIN BOND
M  V30 1 2 1 2
M  V30 2 1 2 3
M  V30 3 1 2 4
M  V30 4 2 4 5
M  V30 5 1 4 6
M  V30 6 1 5 7
M  V30 7 1 5 8
M  V30 8 2 6 9
M  V30 9 1 7 10
M  V30 10 1 7 11
M  V30 11 1 8 12
M  V30 12 2 8 13
M  V30 13 1 9 14
M  V30 14 1 10 15
M  V30 15 1 11 16
M  V30 16 2 12 17
M  V30 17 1 12 18
M  V30 18 1 14 19
M  V30 19 1 14 20
M  V30 20 1 15 21
M  V30 21 1 16 22
M  V30 22 1 9 13
M  V30 23 1 6 23
M  V30 24 1 10 24
M  V30 25 1 10 25
M  V30 26 1 11 26
M  V30 27 1 11 27
M  V30 28 1 13 28
M  V30 29 1 14 29
M  V30 30 1 15 30
M  V30 31 1 15 31
M  V30 32 1 16 32
M  V30 33 1 16 33
M  V30 34 1 19 34
M  V30 35 1 19 35
M  V30 36 1 19 36
M  V30 37 1 20 37
M  V30 38 1 20 38
M  V30 39 1 20 39
M  V30 40 1 21 40
M  V30 41 1 21 41
M  V30 42 1 21 42
M  V30 43 1 22 43
M  V30 44 1 22 44
M  V30 45 1 22 45
M  V30 END BOND
M  V30 END CTAB
M  END
>  <Structure No>
5073

>  <LogS>
-6.4491

>  <MMFF94 Energy>
124.93

$$$$
Compound 5074
Actelion Java MolfileCreator 2.0

  0  0  0  0  0  0              0 V3000
M  V30 BEGIN CTAB
M  V30 COUNTS 24 24 0 0 0
M  V30 BEGIN ATOM
M  V30 1 S 0.164 -0.7381 0.328 0
M  V30 2 O 0.4305 -0.5448 1.7951 0
M  V30 3 O 0.337 -2.1937 -0.0062 0
M  V30 4 C -1.4809 -0.2356 -0.0461 0
M  V30 5 C 1.3049 0.2418 -0.6283 0
M  V30 6 C -2.183 -0.8444 -1.0967 0
M  V30 7 C -2.0872 0.7957 0.6861 0
M  V30 8 C 2.7102 -0.1597 -0.3232 0
M  V30 9 C -3.4846 -0.4338 -1.4024 0
M  V30 10 C -3.3891 1.2042 0.3781 0
M  V30 11 O 3.2723 -1.0502 -1.0176 0
M  V30 12 O 3.3732 0.4262 0.7588 0
M  V30 13 C -4.088 0.5889 -0.6645 0
M  V30 14 C 4.7001 0.0707 1.1272 0
M  V30 15 H 1.1613 1.3144 -0.3798 0
M  V30 16 H 1.093 0.0994 -1.7094 0
M  V30 17 H -1.7235 -1.6323 -1.6798 0
M  V30 18 H -1.5533 1.2846 1.4909 0
M  V30 19 H -4.0246 -0.9067 -2.2126 0
M  V30 20 H -3.855 1.9991 0.9461 0
M  V30 21 H -5.0951 0.9064 -0.9025 0
M  V30 22 H 5.0061 0.6689 2.01 0
M  V30 23 H 5.3973 0.2831 0.2891 0
M  V30 24 H 4.7456 -1.0074 1.3895 0
M  V30 END ATOM
M  V30 BEGIN BOND
M  V30 1 2 1 2
M  V30 2 2 1 3
M  V30 3 1 1 4
M  V30 4 1 1 5
M  V30 5 2 4 6
M  V30 6 1 4 7
M  V30 7 1 5 8
M  V30 8 1 6 9
M  V30 9 2 7 10
M  V30 10 2 8 11
M  V30 11 1 8 12
M  V30 12 2 9 13
M  V30 13 1 12 14
M  V30 14 1 10 13
M  V30 15 1 5 15
M  V30 16 1 5 16
M  V30 17 1 6 17
M  V30 18 1 7 18
M  V30 19 1 9 19
M  V30 20 1 10 20
M  V30 21 1 13 21
M  V30 22 1 14 22
M  V30 23 1 14 23
M  V30 24 1 14 24
M  V30 END BOND
M  V30 END CTAB
M  END
>  <Structure No>
5074

>  <LogS>
-1.1406

>  <MMFF94 Energy>
-1.3596

$$$$
Compound 5075
Actelion Java MolfileCreator 2.0

  0  0  0  0  0  0              0 V3000
M  V30 BEGIN CTAB
M  V30 COUNTS 21 20 0 0 0
M  V30 BEGIN ATOM
M  V30 1 S -0.2476 1.0735 2.0653 0
M  V30 2 C 0.0396 -0.2247 1.1059 0
M  V30 3 S 1.6371 -1.0266 1.2181 0
M  V30 4 N -0.9645 -0.7845 0.2394 0
M  V30 5 C 2.3435 -0.0643 -0.1596 0
M  V30 6 C -2.2347 -0.1489 -0.1363 0 CFG=1
M  V30 7 C 3.7827 -0.4894 -0.4058 0
M  V30 8 C -3.1221 0.0469 1.0656 0
M  V30 9 C -1.9834 1.1461 -0.9209 0
M  V30 10 O -3.8843 1.0467 1.1509 0
M  V30 11 O -3.1608 -0.9229 2.06 0 CHG=-1
M  V30 12 H -0.7416 -1.6992 -0.2136 0
M  V30 13 H 2.3187 1.0182 0.0893 0
M  V30 14 H 1.7472 -0.2387 -1.081 0
M  V30 15 H -2.7754 -0.8394 -0.8204 0
M  V30 16 H 4.3952 -0.3095 0.5029 0
M  V30 17 H 3.8232 -1.5677 -0.6686 0
M  V30 18 H 4.2071 0.0998 -1.2457 0
M  V30 19 H -1.5584 1.939 -0.2727 0
M  V30 20 H -1.2768 0.95 -1.7551 0
M  V30 21 H -2.9358 1.519 -1.3546 0
M  V30 END ATOM
M  V30 BEGIN BOND
M  V30 1 2 1 2
M  V30 2 1 2 3
M  V30 3 1 2 4
M  V30 4 1 3 5
M  V30 5 1 4 6
M  V30 6 1 5 7
M  V30 7 1 6 8
M  V30 8 1 6 9
M  V30 9 2 8 10
M  V30 10 1 8 11
M  V30 11 1 4 12
M  V30 12 1 5 13
M  V30 13 1 5 14
M  V30 14 1 6 15
M  V30 15 1 7 16
M  V30 16 1 7 17
M  V30 17 1 7 18
M  V30 18 1 9 19
M  V30 19 1 9 20
M  V30 20 1 9 21
M  V30 END BOND
M  V30 BEGIN COLLECTION
M  V30 MDLV30/STEABS ATOMS=(1 6)
M  V30 END COLLECTION
M  V30 END CTAB
M  END
>  <Structure No>
5075

>  <LogS>
-0.9613

>  <MMFF94 Energy>
17.502

$$$$
Compound 5076
Actelion Java MolfileCreator 2.0

  0  0  0  0  0  0              0 V3000
M  V30 BEGIN CTAB
M  V30 COUNTS 41 42 0 0 0
M  V30 BEGIN ATOM
M  V30 1 O -1.4373 -1.5173 -3.9966 0
M  V30 2 N -1.3649 -1.8072 -2.7834 0 CHG=1
M  V30 3 O -2.5013 -2.2203 -2.1252 0 CHG=-1
M  V30 4 C -0.1009 -1.6197 -2.059 0 CFG=1
M  V30 5 C -0.1246 -0.2765 -1.26 0
M  V30 6 C 0.1912 -2.8615 -1.1974 0
M  V30 7 C -1.123 -0.3137 -0.1062 0
M  V30 8 C 1.2307 0.2785 -0.8041 0
M  V30 9 C -2.414 0.2202 -0.2746 0
M  V30 10 C -0.775 -0.8679 1.1402 0
M  V30 11 C 1.2464 1.5128 -0.121 0
M  V30 12 C 2.4721 -0.3186 -1.125 0
M  V30 13 C -3.337 0.1974 0.7761 0
M  V30 14 C -1.6999 -0.8891 2.19 0
M  V30 15 C 2.4502 2.1111 0.2594 0
M  V30 16 C 3.6737 0.2815 -0.7367 0
M  V30 17 C -2.9841 -0.3583 2.02 0
M  V30 18 C 3.6765 1.4944 -0.0422 0
M  V30 19 O -3.8722 -0.4007 3.1042 0
M  V30 20 O 4.9114 2.0557 0.3162 0
M  V30 21 C -5.202 0.1092 3.0765 0
M  V30 22 C 5.0568 3.2967 1.0029 0
M  V30 23 H 0.701 -1.5507 -2.8259 0
M  V30 24 H -0.4845 0.4838 -1.9903 0
M  V30 25 H -0.6536 -3.082 -0.513 0
M  V30 26 H 1.1092 -2.7273 -0.5918 0
M  V30 27 H 0.3375 -3.7443 -1.8541 0
M  V30 28 H -2.7087 0.6522 -1.2229 0
M  V30 29 H 0.2141 -1.2796 1.303 0
M  V30 30 H 0.3183 2.0197 0.1137 0
M  V30 31 H 2.541 -1.2465 -1.6703 0
M  V30 32 H -4.3203 0.6158 0.6123 0
M  V30 33 H -1.4142 -1.3185 3.1431 0
M  V30 34 H 2.4139 3.0566 0.779 0
M  V30 35 H 4.615 -0.1992 -0.9869 0
M  V30 36 H -5.1875 1.2005 2.8769 0
M  V30 37 H -5.6777 -0.0647 4.0614 0
M  V30 38 H -5.797 -0.4139 2.2994 0
M  V30 39 H 4.5706 3.2393 2.0035 0
M  V30 40 H 6.1376 3.5078 1.1438 0
M  V30 41 H 4.6076 4.1221 0.4058 0
M  V30 END ATOM
M  V30 BEGIN BOND
M  V30 1 2 1 2
M  V30 2 1 2 3
M  V30 3 1 2 4
M  V30 4 1 4 5
M  V30 5 1 4 6
M  V30 6 1 5 7
M  V30 7 1 5 8
M  V30 8 2 7 9
M  V30 9 1 7 10
M  V30 10 2 8 11
M  V30 11 1 8 12
M  V30 12 1 9 13
M  V30 13 2 10 14
M  V30 14 1 11 15
M  V30 15 2 12 16
M  V30 16 2 13 17
M  V30 17 2 15 18
M  V30 18 1 17 19
M  V30 19 1 18 20
M  V30 20 1 19 21
M  V30 21 1 20 22
M  V30 22 1 14 17
M  V30 23 1 16 18
M  V30 24 1 4 23
M  V30 25 1 5 24
M  V30 26 1 6 25
M  V30 27 1 6 26
M  V30 28 1 6 27
M  V30 29 1 9 28
M  V30 30 1 10 29
M  V30 31 1 11 30
M  V30 32 1 12 31
M  V30 33 1 13 32
M  V30 34 1 14 33
M  V30 35 1 15 34
M  V30 36 1 16 35
M  V30 37 1 21 36
M  V30 38 1 21 37
M  V30 39 1 21 38
M  V30 40 1 22 39
M  V30 41 1 22 40
M  V30 42 1 22 41
M  V30 END BOND
M  V30 BEGIN COLLECTION
M  V30 MDLV30/STEABS ATOMS=(1 4)
M  V30 END COLLECTION
M  V30 END CTAB
M  END
>  <Structure No>
5076

>  <LogS>
-4.5446

>  <MMFF94 Energy>
61.85

$$$$
Compound 5077
Actelion Java MolfileCreator 2.0

  0  0  0  0  0  0              0 V3000
M  V30 BEGIN CTAB
M  V30 COUNTS 42 43 0 0 0
M  V30 BEGIN ATOM
M  V30 1 Cl -0.8016 2.4865 1.1223 0
M  V30 2 C 0.2071 1.1816 0.5082 0
M  V30 3 C -0.3327 0.109 -0.233 0
M  V30 4 C 1.5873 1.2527 0.7323 0
M  V30 5 N -1.7496 -4.0E-4 -0.46 0
M  V30 6 C 0.5324 -0.8804 -0.7282 0
M  V30 7 C 2.4495 0.2748 0.2178 0
M  V30 8 N -2.6795 0.2365 0.4509 0
M  V30 9 C -2.3863 -0.3866 -1.5811 0
M  V30 10 C 1.908 -0.803 -0.5008 0
M  V30 11 N 3.8599 0.3649 0.4854 0
M  V30 12 C -3.8607 -0.0099 -0.1603 0
M  V30 13 O -1.8168 -0.6805 -2.6654 0
M  V30 14 O -3.6842 -0.3945 -1.4095 0
M  V30 15 C 4.8755 -0.1095 -0.4173 0
M  V30 16 C -5.2054 0.1369 0.5161 0
M  V30 17 O 4.5897 -0.2985 -1.6319 0
M  V30 18 N 6.2251 -0.3404 0.0396 0
M  V30 19 C -5.2841 -0.8437 1.6997 0
M  V30 20 C -5.3593 1.581 1.0278 0
M  V30 21 C -6.3417 -0.1729 -0.478 0
M  V30 22 C 6.5625 -0.2225 1.4616 0
M  V30 23 C 7.2511 -0.7364 -0.9302 0
M  V30 24 H 1.994 2.083 1.2968 0
M  V30 25 H 0.1383 -1.7319 -1.2676 0
M  V30 26 H 2.5422 -1.6012 -0.8628 0
M  V30 27 H 4.1559 0.893 1.3361 0
M  V30 28 H -4.4877 -0.6276 2.4446 0
M  V30 29 H -6.2679 -0.7626 2.2109 0
M  V30 30 H -5.1575 -1.8905 1.3475 0
M  V30 31 H -6.346 1.7189 1.5207 0
M  V30 32 H -4.5659 1.8247 1.7675 0
M  V30 33 H -5.2843 2.3028 0.1857 0
M  V30 34 H -6.3047 0.5228 -1.3443 0
M  V30 35 H -7.3331 -0.0641 0.0129 0
M  V30 36 H -6.2559 -1.2135 -0.8595 0
M  V30 37 H 6.4729 0.8362 1.7826 0
M  V30 38 H 5.8774 -0.8549 2.0652 0
M  V30 39 H 7.6013 -0.5563 1.6662 0
M  V30 40 H 6.9654 -1.6982 -1.4061 0
M  V30 41 H 8.2442 -0.8659 -0.4509 0
M  V30 42 H 7.3466 0.0449 -1.7135 0
M  V30 END ATOM
M  V30 BEGIN BOND
M  V30 1 1 1 2
M  V30 2 2 2 3
M  V30 3 1 2 4
M  V30 4 1 3 5
M  V30 5 1 3 6
M  V30 6 2 4 7
M  V30 7 1 5 8
M  V30 8 1 5 9
M  V30 9 2 6 10
M  V30 10 1 7 11
M  V30 11 2 8 12
M  V30 12 2 9 13
M  V30 13 1 9 14
M  V30 14 1 11 15
M  V30 15 1 12 16
M  V30 16 2 15 17
M  V30 17 1 15 18
M  V30 18 1 16 19
M  V30 19 1 16 20
M  V30 20 1 16 21
M  V30 21 1 18 22
M  V30 22 1 18 23
M  V30 23 1 7 10
M  V30 24 1 12 14
M  V30 25 1 4 24
M  V30 26 1 6 25
M  V30 27 1 10 26
M  V30 28 1 11 27
M  V30 29 1 19 28
M  V30 30 1 19 29
M  V30 31 1 19 30
M  V30 32 1 20 31
M  V30 33 1 20 32
M  V30 34 1 20 33
M  V30 35 1 21 34
M  V30 36 1 21 35
M  V30 37 1 21 36
M  V30 38 1 22 37
M  V30 39 1 22 38
M  V30 40 1 22 39
M  V30 41 1 23 40
M  V30 42 1 23 41
M  V30 43 1 23 42
M  V30 END BOND
M  V30 END CTAB
M  END
>  <Structure No>
5077

>  <LogS>
-4.3258

>  <MMFF94 Energy>
-17.07

$$$$
Compound 5078
Actelion Java MolfileCreator 2.0

  0  0  0  0  0  0              0 V3000
M  V30 BEGIN CTAB
M  V30 COUNTS 26 25 0 0 0
M  V30 BEGIN ATOM
M  V30 1 O 0.0 0.0771 -1.0811 0
M  V30 2 C 1.3684 -0.0949 -0.7485 0 CFG=2
M  V30 3 C -0.8083 -0.9451 -0.5267 0
M  V30 4 C 1.9967 1.2837 -0.517 0
M  V30 5 C 2.086 -0.8371 -1.8814 0
M  V30 6 C -1.3276 -0.5266 0.8567 0 CFG=1
M  V30 7 O 1.8317 2.0943 -1.6485 0
M  V30 8 O -2.0605 0.6801 0.7206 0
M  V30 9 C -2.2422 -1.6142 1.427 0
M  V30 10 C -1.7905 1.5519 1.7963 0
M  V30 11 H 1.5184 -0.6713 0.1958 0
M  V30 12 H -1.6764 -1.0921 -1.2048 0
M  V30 13 H -0.2864 -1.9298 -0.4743 0
M  V30 14 H 3.0799 1.1705 -0.2858 0
M  V30 15 H 1.5017 1.7617 0.3577 0
M  V30 16 H 1.9695 -0.2922 -2.8423 0
M  V30 17 H 1.6576 -1.8544 -1.9998 0
M  V30 18 H 3.1678 -0.9406 -1.6509 0
M  V30 19 H -0.4423 -0.4339 1.5318 0
M  V30 20 H 2.2563 2.9638 -1.428 0
M  V30 21 H -2.5941 -1.3224 2.4387 0
M  V30 22 H -3.1277 -1.7609 0.772 0
M  V30 23 H -1.6915 -2.575 1.5142 0
M  V30 24 H -2.0192 1.0732 2.7743 0
M  V30 25 H -0.7329 1.8948 1.7692 0
M  V30 26 H -2.4382 2.447 1.6985 0
M  V30 END ATOM
M  V30 BEGIN BOND
M  V30 1 1 1 2
M  V30 2 1 1 3
M  V30 3 1 2 4
M  V30 4 1 2 5
M  V30 5 1 3 6
M  V30 6 1 4 7
M  V30 7 1 6 8
M  V30 8 1 6 9
M  V30 9 1 8 10
M  V30 10 1 2 11
M  V30 11 1 3 12
M  V30 12 1 3 13
M  V30 13 1 4 14
M  V30 14 1 4 15
M  V30 15 1 5 16
M  V30 16 1 5 17
M  V30 17 1 5 18
M  V30 18 1 6 19
M  V30 19 1 7 20
M  V30 20 1 9 21
M  V30 21 1 9 22
M  V30 22 1 9 23
M  V30 23 1 10 24
M  V30 24 1 10 25
M  V30 25 1 10 26
M  V30 END BOND
M  V30 BEGIN COLLECTION
M  V30 MDLV30/STEABS ATOMS=(2 2 6)
M  V30 END COLLECTION
M  V30 END CTAB
M  END
>  <Structure No>
5078

>  <LogS>
0.8292

>  <MMFF94 Energy>
49.166

$$$$
Compound 5079
Actelion Java MolfileCreator 2.0

  0  0  0  0  0  0              0 V3000
M  V30 BEGIN CTAB
M  V30 COUNTS 32 32 0 0 0
M  V30 BEGIN ATOM
M  V30 1 Cl 1.5464 1.3021 -2.1166 0
M  V30 2 C 2.7434 0.3503 -1.2446 0
M  V30 3 C 2.4453 -0.2786 -0.0146 0
M  V30 4 C 4.0204 0.218 -1.804 0
M  V30 5 C 3.4355 -1.053 0.6156 0
M  V30 6 C 1.077 -0.1879 0.6069 0
M  V30 7 C 4.9986 -0.5412 -1.1589 0
M  V30 8 C 4.7058 -1.178 0.0478 0
M  V30 9 S -0.0154 -1.4436 -0.1356 0
M  V30 10 C -1.4266 -0.9729 0.873 0
M  V30 11 O -1.5778 -1.5435 1.9865 0
M  V30 12 N -2.3644 0.0384 0.4422 0
M  V30 13 C -3.3395 0.582 1.3983 0
M  V30 14 C -2.3635 0.5335 -0.9419 0
M  V30 15 C -2.6634 1.5673 2.3457 0
M  V30 16 C -3.0185 -0.4796 -1.8741 0
M  V30 17 H 4.255 0.7014 -2.7439 0
M  V30 18 H 3.2239 -1.5617 1.548 0
M  V30 19 H 1.14 -0.3594 1.7035 0
M  V30 20 H 0.6488 0.8259 0.459 0
M  V30 21 H 5.983 -0.6405 -1.5976 0
M  V30 22 H 5.463 -1.7723 0.5427 0
M  V30 23 H -3.8071 -0.2422 1.9789 0
M  V30 24 H -4.1634 1.1058 0.8666 0
M  V30 25 H -2.92 1.4933 -1.0151 0
M  V30 26 H -1.3279 0.7481 -1.2767 0
M  V30 27 H -2.2059 2.3972 1.7666 0
M  V30 28 H -3.4156 1.9893 3.0449 0
M  V30 29 H -1.8739 1.0575 2.9368 0
M  V30 30 H -3.028 -0.081 -2.9102 0
M  V30 31 H -4.0647 -0.6689 -1.553 0
M  V30 32 H -2.4573 -1.4368 -1.8665 0
M  V30 END ATOM
M  V30 BEGIN BOND
M  V30 1 1 1 2
M  V30 2 2 2 3
M  V30 3 1 2 4
M  V30 4 1 3 5
M  V30 5 1 3 6
M  V30 6 2 4 7
M  V30 7 2 5 8
M  V30 8 1 6 9
M  V30 9 1 9 10
M  V30 10 2 10 11
M  V30 11 1 10 12
M  V30 12 1 12 13
M  V30 13 1 12 14
M  V30 14 1 13 15
M  V30 15 1 14 16
M  V30 16 1 7 8
M  V30 17 1 4 17
M  V30 18 1 5 18
M  V30 19 1 6 19
M  V30 20 1 6 20
M  V30 21 1 7 21
M  V30 22 1 8 22
M  V30 23 1 13 23
M  V30 24 1 13 24
M  V30 25 1 14 25
M  V30 26 1 14 26
M  V30 27 1 15 27
M  V30 28 1 15 28
M  V30 29 1 15 29
M  V30 30 1 16 30
M  V30 31 1 16 31
M  V30 32 1 16 32
M  V30 END BOND
M  V30 END CTAB
M  END
>  <Structure No>
5079

>  <LogS>
-4.031

>  <MMFF94 Energy>
-29.012

$$$$
Compound 5080
Actelion Java MolfileCreator 2.0

  0  0  0  0  0  0              0 V3000
M  V30 BEGIN CTAB
M  V30 COUNTS 26 25 0 0 0
M  V30 BEGIN ATOM
M  V30 1 S -3.3536 -0.6381 1.0371 0
M  V30 2 C -2.3406 0.0307 -0.3361 0 CFG=1
M  V30 3 C -2.5523 0.3376 2.3516 0
M  V30 4 C -0.9264 -0.4948 -0.2741 0
M  V30 5 C -2.9904 -0.3176 -1.675 0
M  V30 6 N 0.0534 0.356 -0.2409 0
M  V30 7 C -0.6466 -1.9747 -0.2684 0
M  V30 8 O 1.3699 -0.049 -0.19 0
M  V30 9 C 2.4057 0.8821 -0.1512 0
M  V30 10 O 2.1494 2.1173 -0.1618 0
M  V30 11 N 3.76 0.425 -0.0988 0
M  V30 12 C 4.885 1.3506 -0.0562 0
M  V30 13 H -2.3304 1.1408 -0.2557 0
M  V30 14 H -1.4772 0.0736 2.4265 0
M  V30 15 H -3.0428 0.1089 3.3199 0
M  V30 16 H -2.6601 1.4225 2.1445 0
M  V30 17 H -2.3801 0.0836 -2.5121 0
M  V30 18 H -3.091 -1.4169 -1.7962 0
M  V30 19 H -4.002 0.1375 -1.7316 0
M  V30 20 H -0.0899 -2.245 0.6533 0
M  V30 21 H -0.0371 -2.243 -1.1566 0
M  V30 22 H -1.5849 -2.566 -0.2945 0
M  V30 23 H 3.9463 -0.6027 -0.091 0
M  V30 24 H 4.8819 1.9892 -0.9645 0
M  V30 25 H 5.8387 0.7832 -0.0192 0
M  V30 26 H 4.8122 1.9903 0.8484 0
M  V30 END ATOM
M  V30 BEGIN BOND
M  V30 1 1 1 2
M  V30 2 1 1 3
M  V30 3 1 2 4
M  V30 4 1 2 5
M  V30 5 2 4 6
M  V30 6 1 4 7
M  V30 7 1 6 8
M  V30 8 1 8 9
M  V30 9 2 9 10
M  V30 10 1 9 11
M  V30 11 1 11 12
M  V30 12 1 2 13
M  V30 13 1 3 14
M  V30 14 1 3 15
M  V30 15 1 3 16
M  V30 16 1 5 17
M  V30 17 1 5 18
M  V30 18 1 5 19
M  V30 19 1 7 20
M  V30 20 1 7 21
M  V30 21 1 7 22
M  V30 22 1 11 23
M  V30 23 1 12 24
M  V30 24 1 12 25
M  V30 25 1 12 26
M  V30 END BOND
M  V30 BEGIN COLLECTION
M  V30 MDLV30/STEABS ATOMS=(1 2)
M  V30 END COLLECTION
M  V30 END CTAB
M  END
>  <Structure No>
5080

>  <LogS>
-0.7353

>  <MMFF94 Energy>
23.878

$$$$
Compound 5081
Actelion Java MolfileCreator 2.0

  0  0  0  0  0  0              0 V3000
M  V30 BEGIN CTAB
M  V30 COUNTS 28 27 0 0 0
M  V30 BEGIN ATOM
M  V30 1 S -2.6628 0.9676 1.0483 0
M  V30 2 O -3.2114 0.0194 2.0773 0
M  V30 3 O -1.7071 1.9186 1.7127 0
M  V30 4 C -1.8066 0.0677 -0.2471 0 CFG=1
M  V30 5 C -4.0059 1.9018 0.3476 0
M  V30 6 C -0.4716 -0.4457 0.241 0
M  V30 7 C -2.6743 -1.0621 -0.8086 0
M  V30 8 N 0.61 0.0333 -0.2942 0
M  V30 9 C -0.3777 -1.4782 1.3342 0
M  V30 10 O 1.8646 -0.3782 0.1011 0
M  V30 11 C 3.0115 0.1513 -0.4866 0
M  V30 12 O 2.9151 1.0211 -1.3953 0
M  V30 13 N 4.2969 -0.2996 -0.0508 0
M  V30 14 C 5.5315 0.217 -0.6274 0
M  V30 15 H -1.629 0.7883 -1.0763 0
M  V30 16 H -3.6207 2.5594 -0.4585 0
M  V30 17 H -4.4756 2.5246 1.1366 0
M  V30 18 H -4.7654 1.2105 -0.0712 0
M  V30 19 H -3.5872 -0.641 -1.2794 0
M  V30 20 H -2.1131 -1.6219 -1.5869 0
M  V30 21 H -2.9846 -1.7693 -0.0118 0
M  V30 22 H 0.1867 -1.0601 2.1938 0
M  V30 23 H 0.1501 -2.3771 0.9531 0
M  V30 24 H -1.3777 -1.79 1.6947 0
M  V30 25 H 4.3505 -1.0206 0.7032 0
M  V30 26 H 6.4053 -0.268 -0.1439 0
M  V30 27 H 5.5577 0.0014 -1.7162 0
M  V30 28 H 5.5935 1.3135 -0.4639 0
M  V30 END ATOM
M  V30 BEGIN BOND
M  V30 1 2 1 2
M  V30 2 2 1 3
M  V30 3 1 1 4
M  V30 4 1 1 5
M  V30 5 1 4 6
M  V30 6 1 4 7
M  V30 7 2 6 8
M  V30 8 1 6 9
M  V30 9 1 8 10
M  V30 10 1 10 11
M  V30 11 2 11 12
M  V30 12 1 11 13
M  V30 13 1 13 14
M  V30 14 1 4 15
M  V30 15 1 5 16
M  V30 16 1 5 17
M  V30 17 1 5 18
M  V30 18 1 7 19
M  V30 19 1 7 20
M  V30 20 1 7 21
M  V30 21 1 9 22
M  V30 22 1 9 23
M  V30 23 1 9 24
M  V30 24 1 13 25
M  V30 25 1 14 26
M  V30 26 1 14 27
M  V30 27 1 14 28
M  V30 END BOND
M  V30 BEGIN COLLECTION
M  V30 MDLV30/STEABS ATOMS=(1 4)
M  V30 END COLLECTION
M  V30 END CTAB
M  END
>  <Structure No>
5081

>  <LogS>
-0.0267

>  <MMFF94 Energy>
-13.139

$$$$
Compound 5082
Actelion Java MolfileCreator 2.0

  0  0  0  0  0  0              0 V3000
M  V30 BEGIN CTAB
M  V30 COUNTS 23 22 0 0 0
M  V30 BEGIN ATOM
M  V30 1 S 0.3542 0.7086 1.1517 0
M  V30 2 C -0.1381 -0.2437 -0.3342 0
M  V30 3 C -0.1319 2.3553 0.5274 0
M  V30 4 S 0.6491 -1.8971 -0.3049 0
M  V30 5 S -1.961 -0.4231 -0.4509 0
M  V30 6 C 0.9514 2.9233 -0.329 0
M  V30 7 C 2.1804 -1.4528 -1.2014 0
M  V30 8 C -2.2731 -1.1958 1.1764 0
M  V30 9 O 0.8396 2.9171 -1.5829 0
M  V30 10 O 2.1026 3.4346 0.2566 0 CHG=-1
M  V30 11 C 3.0927 -0.6424 -0.3398 0
M  V30 12 C -3.7034 -1.6125 1.2512 0
M  V30 13 O 3.5803 -1.139 0.7094 0
M  V30 14 O 3.4111 0.6614 -0.6963 0 CHG=-1
M  V30 15 O -4.0519 -2.7549 0.8528 0
M  V30 16 O -4.664 -0.7223 1.7148 0 CHG=-1
M  V30 17 H 0.1866 0.2991 -1.244 0
M  V30 18 H -0.2861 3.026 1.3982 0
M  V30 19 H -1.0895 2.3062 -0.0322 0
M  V30 20 H 2.7009 -2.3907 -1.4867 0
M  V30 21 H 1.94 -0.906 -2.1376 0
M  V30 22 H -1.6256 -2.0843 1.3227 0
M  V30 23 H -2.0704 -0.4666 1.9874 0
M  V30 END ATOM
M  V30 BEGIN BOND
M  V30 1 1 1 2
M  V30 2 1 1 3
M  V30 3 1 2 4
M  V30 4 1 2 5
M  V30 5 1 3 6
M  V30 6 1 4 7
M  V30 7 1 5 8
M  V30 8 2 6 9
M  V30 9 1 6 10
M  V30 10 1 7 11
M  V30 11 1 8 12
M  V30 12 2 11 13
M  V30 13 1 11 14
M  V30 14 2 12 15
M  V30 15 1 12 16
M  V30 16 1 2 17
M  V30 17 1 3 18
M  V30 18 1 3 19
M  V30 19 1 7 20
M  V30 20 1 7 21
M  V30 21 1 8 22
M  V30 22 1 8 23
M  V30 END BOND
M  V30 END CTAB
M  END
>  <Structure No>
5082

>  <LogS>
-1.4243

>  <MMFF94 Energy>
222.32

$$$$
Compound 5083
Actelion Java MolfileCreator 2.0

  0  0  0  0  0  0              0 V3000
M  V30 BEGIN CTAB
M  V30 COUNTS 22 23 0 0 0
M  V30 BEGIN ATOM
M  V30 1 Cl 3.6894 0.2763 -2.8585 0
M  V30 2 C 2.8379 0.0838 -1.3244 0
M  V30 3 C 3.5672 -0.0795 -0.1316 0
M  V30 4 C 1.43 0.0905 -1.2942 0
M  V30 5 Cl 5.3312 -0.0894 -0.1615 0
M  V30 6 C 2.8866 -0.2372 1.0865 0
M  V30 7 Cl 0.5165 0.2606 -2.7969 0
M  V30 8 C 0.7544 -0.0668 -0.067 0
M  V30 9 Cl 3.7575 -0.4454 2.6009 0
M  V30 10 C 1.4908 -0.2291 1.1135 0
M  V30 11 C -0.7223 -0.0493 0.0057 0
M  V30 12 C -1.4525 -1.2107 0.3267 0
M  V30 13 C -1.4078 1.1519 -0.2331 0
M  V30 14 Cl -0.6519 -2.7533 0.608 0
M  V30 15 C -2.8487 -1.1571 0.4008 0
M  V30 16 C -2.8038 1.2017 -0.1586 0
M  V30 17 C -3.5277 0.0419 0.1605 0
M  V30 18 Cl -3.6186 2.729 -0.4678 0
M  V30 19 Cl -5.283 0.0619 0.2633 0
M  V30 20 H 0.9755 -0.3453 2.0598 0
M  V30 21 H -0.8541 2.0515 -0.474 0
M  V30 22 H -3.4087 -2.0518 0.6425 0
M  V30 END ATOM
M  V30 BEGIN BOND
M  V30 1 1 1 2
M  V30 2 2 2 3
M  V30 3 1 2 4
M  V30 4 1 3 5
M  V30 5 1 3 6
M  V30 6 1 4 7
M  V30 7 2 4 8
M  V30 8 1 6 9
M  V30 9 2 6 10
M  V30 10 1 8 11
M  V30 11 2 11 12
M  V30 12 1 11 13
M  V30 13 1 12 14
M  V30 14 1 12 15
M  V30 15 2 13 16
M  V30 16 2 15 17
M  V30 17 1 16 18
M  V30 18 1 17 19
M  V30 19 1 8 10
M  V30 20 1 16 17
M  V30 21 1 10 20
M  V30 22 1 13 21
M  V30 23 1 15 22
M  V30 END BOND
M  V30 END CTAB
M  END
>  <Structure No>
5083

>  <LogS>
-8.0115

>  <MMFF94 Energy>
56.493

$$$$
Compound 5084
Actelion Java MolfileCreator 2.0

  0  0  0  0  0  0              0 V3000
M  V30 BEGIN CTAB
M  V30 COUNTS 22 23 0 0 0
M  V30 BEGIN ATOM
M  V30 1 Cl 3.8759 -1.8444 1.6599 0
M  V30 2 C 2.8933 -0.8265 0.6047 0
M  V30 3 C 3.5091 -0.0427 -0.3893 0
M  V30 4 C 1.494 -0.7956 0.7592 0
M  V30 5 Cl 5.2617 -0.0765 -0.5898 0
M  V30 6 C 2.7242 0.7717 -1.2222 0
M  V30 7 Cl 0.7225 -1.753 2.0281 0
M  V30 8 C 0.7136 0.0158 -0.0881 0
M  V30 9 Cl 3.4522 1.7709 -2.474 0
M  V30 10 C 1.3368 0.7992 -1.0668 0
M  V30 11 C -0.7568 0.0685 0.0403 0
M  V30 12 C -1.5726 -0.9776 -0.4393 0
M  V30 13 C -1.3459 1.1888 0.6411 0
M  V30 14 Cl -0.846 -2.3741 -1.2406 0
M  V30 15 C -2.9718 -0.896 -0.2952 0
M  V30 16 C -2.7311 1.267 0.7814 0
M  V30 17 Cl -4.0037 -2.1989 -0.8862 0
M  V30 18 C -3.5468 0.2307 0.3197 0
M  V30 19 Cl -5.2887 0.3741 0.5209 0
M  V30 20 H 0.7391 1.4284 -1.716 0
M  V30 21 H -0.729 2.0006 1.0076 0
M  V30 22 H -3.1715 2.1368 1.2522 0
M  V30 END ATOM
M  V30 BEGIN BOND
M  V30 1 1 1 2
M  V30 2 2 2 3
M  V30 3 1 2 4
M  V30 4 1 3 5
M  V30 5 1 3 6
M  V30 6 1 4 7
M  V30 7 2 4 8
M  V30 8 1 6 9
M  V30 9 2 6 10
M  V30 10 1 8 11
M  V30 11 2 11 12
M  V30 12 1 11 13
M  V30 13 1 12 14
M  V30 14 1 12 15
M  V30 15 2 13 16
M  V30 16 1 15 17
M  V30 17 2 15 18
M  V30 18 1 18 19
M  V30 19 1 8 10
M  V30 20 1 16 18
M  V30 21 1 10 20
M  V30 22 1 13 21
M  V30 23 1 16 22
M  V30 END BOND
M  V30 END CTAB
M  END
>  <Structure No>
5084

>  <LogS>
-8.0566

>  <MMFF94 Energy>
69.345

$$$$
Compound 5085
Actelion Java MolfileCreator 2.0

  0  0  0  0  0  0              0 V3000
M  V30 BEGIN CTAB
M  V30 COUNTS 22 22 0 0 0
M  V30 BEGIN ATOM
M  V30 1 Cl 0.4871 2.1124 -2.6004 0
M  V30 2 C 1.2759 0.9817 -1.5069 0
M  V30 3 C 0.5398 0.2243 -0.5693 0
M  V30 4 C 2.6702 0.8667 -1.5639 0
M  V30 5 N -0.8974 0.3295 -0.5221 0
M  V30 6 C 1.2329 -0.6524 0.2896 0
M  V30 7 C 3.3421 -2.0E-4 -0.7013 0
M  V30 8 C -1.704 0.0249 0.6644 0 CFG=1
M  V30 9 C 2.6244 -0.7593 0.2229 0
M  V30 10 C -2.7725 1.0674 0.8381 0
M  V30 11 C -2.3284 -1.3651 0.5297 0
M  V30 12 O -3.6339 1.2578 -0.0613 0
M  V30 13 O -2.8154 1.8302 1.9984 0 CHG=-1
M  V30 14 H 3.2355 1.453 -2.2772 0
M  V30 15 H -1.4058 0.5864 -1.3985 0
M  V30 16 H 0.7053 -1.2732 0.9998 0
M  V30 17 H 4.42 -0.0854 -0.7508 0
M  V30 18 H -1.0683 0.0438 1.5757 0
M  V30 19 H 3.1465 -1.4372 0.8857 0
M  V30 20 H -1.5327 -2.1328 0.4324 0
M  V30 21 H -2.9795 -1.4165 -0.3691 0
M  V30 22 H -2.9346 -1.6013 1.4305 0
M  V30 END ATOM
M  V30 BEGIN BOND
M  V30 1 1 1 2
M  V30 2 2 2 3
M  V30 3 1 2 4
M  V30 4 1 3 5
M  V30 5 1 3 6
M  V30 6 2 4 7
M  V30 7 1 5 8
M  V30 8 2 6 9
M  V30 9 1 8 10
M  V30 10 1 8 11
M  V30 11 2 10 12
M  V30 12 1 10 13
M  V30 13 1 7 9
M  V30 14 1 4 14
M  V30 15 1 5 15
M  V30 16 1 6 16
M  V30 17 1 7 17
M  V30 18 1 8 18
M  V30 19 1 9 19
M  V30 20 1 11 20
M  V30 21 1 11 21
M  V30 22 1 11 22
M  V30 END BOND
M  V30 BEGIN COLLECTION
M  V30 MDLV30/STEABS ATOMS=(1 8)
M  V30 END COLLECTION
M  V30 END CTAB
M  END
>  <Structure No>
5085

>  <LogS>
-2.3271

>  <MMFF94 Energy>
113.2

$$$$
Compound 5086
Actelion Java MolfileCreator 2.0

  0  0  0  0  0  0              0 V3000
M  V30 BEGIN CTAB
M  V30 COUNTS 40 40 0 0 0
M  V30 BEGIN ATOM
M  V30 1 O -0.9412 1.1766 -1.0197 0
M  V30 2 C -1.0721 0.2818 -0.1399 0
M  V30 3 N 0.0293 0.0205 0.7545 0
M  V30 4 C -2.3603 -0.5342 -0.1087 0
M  V30 5 C 0.4723 1.0392 1.7297 0
M  V30 6 C 0.8912 -1.1405 0.496 0
M  V30 7 C -2.4753 -1.3955 1.1673 0
M  V30 8 C -2.4059 -1.4515 -1.3456 0
M  V30 9 C -3.5661 0.4275 -0.1513 0
M  V30 10 C 0.8814 2.3464 1.0382 0
M  V30 11 C -0.6072 1.2927 2.7845 0
M  V30 12 C 2.0317 -0.7529 -0.4053 0
M  V30 13 C 1.8362 -0.6742 -1.7942 0
M  V30 14 C 3.2825 -0.4104 0.1348 0
M  V30 15 C 2.882 -0.2724 -2.6306 0
M  V30 16 C 4.3256 -0.0089 -0.7053 0
M  V30 17 C 4.126 0.0591 -2.0869 0
M  V30 18 H 1.3706 0.6682 2.2719 0
M  V30 19 H 1.2713 -1.551 1.457 0
M  V30 20 H 0.3169 -1.9608 0.0196 0
M  V30 21 H -2.4819 -0.7577 2.074 0
M  V30 22 H -1.6429 -2.123 1.2481 0
M  V30 23 H -3.4233 -1.976 1.159 0
M  V30 24 H -2.3406 -0.8546 -2.2812 0
M  V30 25 H -3.3553 -2.0292 -1.3703 0
M  V30 26 H -1.5641 -2.1744 -1.3368 0
M  V30 27 H -3.5391 1.1252 0.7136 0
M  V30 28 H -3.5632 1.0301 -1.0855 0
M  V30 29 H -4.5228 -0.1374 -0.1137 0
M  V30 30 H -0.0046 2.8836 0.6397 0
M  V30 31 H 1.3924 3.0136 1.7649 0
M  V30 32 H 1.5852 2.1359 0.2058 0
M  V30 33 H -0.8163 0.355 3.3404 0
M  V30 34 H -1.5437 1.6571 2.3118 0
M  V30 35 H -0.2575 2.0533 3.515 0
M  V30 36 H 0.8744 -0.9205 -2.227 0
M  V30 37 H 3.4489 -0.4497 1.204 0
M  V30 38 H 2.7269 -0.2149 -3.7002 0
M  V30 39 H 5.288 0.2531 -0.2849 0
M  V30 40 H 4.934 0.3715 -2.7355 0
M  V30 END ATOM
M  V30 BEGIN BOND
M  V30 1 2 1 2
M  V30 2 1 2 3
M  V30 3 1 2 4
M  V30 4 1 3 5
M  V30 5 1 3 6
M  V30 6 1 4 7
M  V30 7 1 4 8
M  V30 8 1 4 9
M  V30 9 1 5 10
M  V30 10 1 5 11
M  V30 11 1 6 12
M  V30 12 2 12 13
M  V30 13 1 12 14
M  V30 14 1 13 15
M  V30 15 2 14 16
M  V30 16 2 15 17
M  V30 17 1 16 17
M  V30 18 1 5 18
M  V30 19 1 6 19
M  V30 20 1 6 20
M  V30 21 1 7 21
M  V30 22 1 7 22
M  V30 23 1 7 23
M  V30 24 1 8 24
M  V30 25 1 8 25
M  V30 26 1 8 26
M  V30 27 1 9 27
M  V30 28 1 9 28
M  V30 29 1 9 29
M  V30 30 1 10 30
M  V30 31 1 10 31
M  V30 32 1 10 32
M  V30 33 1 11 33
M  V30 34 1 11 34
M  V30 35 1 11 35
M  V30 36 1 13 36
M  V30 37 1 14 37
M  V30 38 1 15 38
M  V30 39 1 16 39
M  V30 40 1 17 40
M  V30 END BOND
M  V30 END CTAB
M  END
>  <Structure No>
5086

>  <LogS>
-2.4704

>  <MMFF94 Energy>
29.219

$$$$
Compound 5087
Actelion Java MolfileCreator 2.0

  0  0  0  0  0  0              0 V3000
M  V30 BEGIN CTAB
M  V30 COUNTS 27 27 0 0 0
M  V30 BEGIN ATOM
M  V30 1 O -0.0796 -0.1592 -1.9117 0
M  V30 2 C -0.4223 -0.4572 -0.7346 0
M  V30 3 N 0.5065 -1.1408 0.1238 0
M  V30 4 C -1.7745 -0.0792 -0.2576 0
M  V30 5 C 1.8209 -1.5858 -0.3385 0
M  V30 6 C -2.4183 -0.8037 0.764 0
M  V30 7 C -2.4471 1.008 -0.8464 0
M  V30 8 C 2.799 -0.4096 -0.4539 0
M  V30 9 C -3.6959 -0.434 1.1964 0
M  V30 10 C -3.7239 1.3736 -0.4092 0
M  V30 11 C 3.0673 0.2461 0.9056 0
M  V30 12 C -4.3468 0.6548 0.613 0
M  V30 13 C 4.0623 1.3541 0.7643 0
M  V30 14 O 3.6756 2.5229 0.5001 0
M  V30 15 O 5.4209 1.087 0.8755 0 CHG=-1
M  V30 16 H 0.2605 -1.3222 1.1219 0
M  V30 17 H 2.2295 -2.3341 0.3753 0
M  V30 18 H 1.7201 -2.0896 -1.324 0
M  V30 19 H -1.9538 -1.6705 1.2135 0
M  V30 20 H -1.9808 1.5828 -1.6371 0
M  V30 21 H 3.7566 -0.7913 -0.8711 0
M  V30 22 H 2.3975 0.3464 -1.1628 0
M  V30 23 H -4.1849 -0.9975 1.9806 0
M  V30 24 H -4.2305 2.2153 -0.8634 0
M  V30 25 H 2.1228 0.6551 1.3257 0
M  V30 26 H 3.4652 -0.5093 1.617 0
M  V30 27 H -5.3358 0.9383 0.9491 0
M  V30 END ATOM
M  V30 BEGIN BOND
M  V30 1 2 1 2
M  V30 2 1 2 3
M  V30 3 1 2 4
M  V30 4 1 3 5
M  V30 5 2 4 6
M  V30 6 1 4 7
M  V30 7 1 5 8
M  V30 8 1 6 9
M  V30 9 2 7 10
M  V30 10 1 8 11
M  V30 11 2 9 12
M  V30 12 1 11 13
M  V30 13 2 13 14
M  V30 14 1 13 15
M  V30 15 1 10 12
M  V30 16 1 3 16
M  V30 17 1 5 17
M  V30 18 1 5 18
M  V30 19 1 6 19
M  V30 20 1 7 20
M  V30 21 1 8 21
M  V30 22 1 8 22
M  V30 23 1 9 23
M  V30 24 1 10 24
M  V30 25 1 11 25
M  V30 26 1 11 26
M  V30 27 1 12 27
M  V30 END BOND
M  V30 END CTAB
M  END
>  <Structure No>
5087

>  <LogS>
-1.2025

>  <MMFF94 Energy>
6.4124

$$$$
Compound 5088
Actelion Java MolfileCreator 2.0

  0  0  0  0  0  0              0 V3000
M  V30 BEGIN CTAB
M  V30 COUNTS 18 18 0 0 0
M  V30 BEGIN ATOM
M  V30 1 Cl -1.8962 2.5564 0.3295 0
M  V30 2 C -0.8274 1.1689 0.1479 0
M  V30 3 C -1.3356 -0.1323 -0.0133 0
M  V30 4 C 0.5541 1.3812 0.1784 0
M  V30 5 C -0.4419 -1.2025 -0.1668 0
M  V30 6 C -2.8183 -0.383 -0.0419 0
M  V30 7 C 1.4543 0.3103 0.0494 0
M  V30 8 C 0.9418 -0.9939 -0.1585 0
M  V30 9 C 2.902 0.5926 0.1688 0
M  V30 10 O 1.7645 -2.098 -0.3938 0
M  V30 11 O 3.6824 -0.2424 0.6968 0
M  V30 12 O 3.4071 1.8211 -0.2413 0 CHG=-1
M  V30 13 H 0.925 2.3879 0.3306 0
M  V30 14 H -0.8191 -2.207 -0.3164 0
M  V30 15 H -3.2787 -0.0219 0.9017 0
M  V30 16 H -3.0498 -1.4644 -0.147 0
M  V30 17 H -3.2722 0.1552 -0.9004 0
M  V30 18 H 2.7559 -2.0273 -0.5762 0
M  V30 END ATOM
M  V30 BEGIN BOND
M  V30 1 1 1 2
M  V30 2 2 2 3
M  V30 3 1 2 4
M  V30 4 1 3 5
M  V30 5 1 3 6
M  V30 6 2 4 7
M  V30 7 2 5 8
M  V30 8 1 7 9
M  V30 9 1 8 10
M  V30 10 2 9 11
M  V30 11 1 9 12
M  V30 12 1 7 8
M  V30 13 1 4 13
M  V30 14 1 5 14
M  V30 15 1 6 15
M  V30 16 1 6 16
M  V30 17 1 6 17
M  V30 18 1 10 18
M  V30 END BOND
M  V30 END CTAB
M  END
>  <Structure No>
5088

>  <LogS>
-3.1248

>  <MMFF94 Energy>
6.847

$$$$
Compound 5089
Actelion Java MolfileCreator 2.0

  0  0  0  0  0  0              0 V3000
M  V30 BEGIN CTAB
M  V30 COUNTS 33 34 0 0 0
M  V30 BEGIN ATOM
M  V30 1 Cl -0.0812 -1.8704 2.6031 0
M  V30 2 C -0.9916 -1.5576 1.1276 0
M  V30 3 C -0.531 -0.6777 0.1147 0
M  V30 4 C -2.2193 -2.2148 0.9772 0
M  V30 5 C -1.3386 -0.4756 -1.0219 0
M  V30 6 C 0.7725 0.097 0.2308 0 CFG=2
M  V30 7 C -3.0011 -2.0063 -0.1606 0
M  V30 8 C -2.5607 -1.1361 -1.1579 0
M  V30 9 O 1.8068 -0.7829 0.6463 0
M  V30 10 C 0.6363 1.2573 1.2346 0
M  V30 11 Cl -4.5386 -2.833 -0.3334 0
M  V30 12 C 3.0307 -0.5058 -0.0086 0
M  V30 13 N -0.4118 2.1881 0.8185 0
M  V30 14 C 3.0655 -1.1493 -1.3672 0
M  V30 15 C -1.6897 2.2138 1.2433 0
M  V30 16 C -0.3217 3.1321 -0.1314 0
M  V30 17 C 2.9406 -2.4705 -1.5152 0
M  V30 18 N -2.4239 3.1504 0.6071 0
M  V30 19 C -1.5583 3.725 -0.254 0
M  V30 20 H -2.5691 -2.8877 1.7502 0
M  V30 21 H -1.0271 0.2036 -1.8059 0
M  V30 22 H 0.9926 0.5499 -0.7673 0
M  V30 23 H -3.1667 -0.967 -2.0388 0
M  V30 24 H 1.6011 1.805 1.2984 0
M  V30 25 H 0.4144 0.873 2.2524 0
M  V30 26 H 3.2275 0.5875 -0.093 0
M  V30 27 H 3.8565 -0.927 0.6026 0
M  V30 28 H 3.1961 -0.5245 -2.2455 0
M  V30 29 H -2.0909 1.5489 1.9974 0
M  V30 30 H 0.5694 3.3622 -0.7009 0
M  V30 31 H 2.9684 -2.9109 -2.5064 0
M  V30 32 H 2.8087 -3.1185 -0.6538 0
M  V30 33 H -1.8176 4.5224 -0.9372 0
M  V30 END ATOM
M  V30 BEGIN BOND
M  V30 1 1 1 2
M  V30 2 2 2 3
M  V30 3 1 2 4
M  V30 4 1 3 5
M  V30 5 1 3 6
M  V30 6 2 4 7
M  V30 7 2 5 8
M  V30 8 1 6 9
M  V30 9 1 6 10
M  V30 10 1 7 11
M  V30 11 1 9 12
M  V30 12 1 10 13
M  V30 13 1 12 14
M  V30 14 1 13 15
M  V30 15 1 13 16
M  V30 16 2 14 17
M  V30 17 2 15 18
M  V30 18 2 16 19
M  V30 19 1 7 8
M  V30 20 1 18 19
M  V30 21 1 4 20
M  V30 22 1 5 21
M  V30 23 1 6 22
M  V30 24 1 8 23
M  V30 25 1 10 24
M  V30 26 1 10 25
M  V30 27 1 12 26
M  V30 28 1 12 27
M  V30 29 1 14 28
M  V30 30 1 15 29
M  V30 31 1 16 30
M  V30 32 1 17 31
M  V30 33 1 17 32
M  V30 34 1 19 33
M  V30 END BOND
M  V30 BEGIN COLLECTION
M  V30 MDLV30/STEABS ATOMS=(1 6)
M  V30 END COLLECTION
M  V30 END CTAB
M  END
>  <Structure No>
5089

>  <LogS>
-3.2178

>  <MMFF94 Energy>
30.241

$$$$
Compound 5090
Actelion Java MolfileCreator 2.0

  0  0  0  0  0  0              0 V3000
M  V30 BEGIN CTAB
M  V30 COUNTS 35 37 0 0 0
M  V30 BEGIN ATOM
M  V30 1 S -2.8171 0.9107 1.3249 0
M  V30 2 O -3.3131 0.1716 2.5366 0
M  V30 3 O -3.262 2.3454 1.3688 0
M  V30 4 N -1.0933 0.8333 1.2575 0
M  V30 5 C -3.4262 0.1396 -0.1081 0
M  V30 6 C -0.417 0.5029 0.0221 0
M  V30 7 C -0.3388 1.1037 2.4841 0
M  V30 8 C -2.5411 -0.228 -1.1387 0
M  V30 9 C -4.8006 -0.1101 -0.2227 0
M  V30 10 C -1.0712 0.0375 -1.0723 0
M  V30 11 C 1.0504 0.6864 -0.0543 0
M  V30 12 C -3.0743 -0.8559 -2.2842 0
M  V30 13 C -5.3079 -0.7322 -1.363 0
M  V30 14 O -0.3292 -0.205 -2.2288 0 CHG=-1
M  V30 15 O 1.5318 1.8424 0.0891 0
M  V30 16 N 1.9084 -0.4374 -0.3136 0
M  V30 17 C -4.4453 -1.1057 -2.3923 0
M  V30 18 C 3.3409 -0.3997 -0.2231 0
M  V30 19 N 4.0757 -1.1981 -1.0464 0
M  V30 20 C 3.9993 0.3885 0.7373 0
M  V30 21 C 5.4342 -1.233 -0.9954 0
M  V30 22 C 5.394 0.3668 0.8035 0
M  V30 23 C 6.1194 -0.444 -0.0698 0
M  V30 24 H 0.3296 0.2467 2.712 0
M  V30 25 H -1.0192 1.2541 3.3484 0
M  V30 26 H 0.2649 2.0266 2.3631 0
M  V30 27 H -5.4778 0.1769 0.5722 0
M  V30 28 H -2.4337 -1.1599 -3.1019 0
M  V30 29 H -6.3696 -0.925 -1.4486 0
M  V30 30 H 1.4728 -1.3257 -0.6495 0
M  V30 31 H -4.8386 -1.5892 -3.2773 0
M  V30 32 H 3.4466 0.9896 1.4468 0
M  V30 33 H 5.9817 -1.8759 -1.6715 0
M  V30 34 H 5.9114 0.9701 1.5384 0
M  V30 35 H 7.2004 -0.4691 -0.0232 0
M  V30 END ATOM
M  V30 BEGIN BOND
M  V30 1 2 1 2
M  V30 2 2 1 3
M  V30 3 1 1 4
M  V30 4 1 1 5
M  V30 5 1 4 6
M  V30 6 1 4 7
M  V30 7 2 5 8
M  V30 8 1 5 9
M  V30 9 2 6 10
M  V30 10 1 6 11
M  V30 11 1 8 12
M  V30 12 2 9 13
M  V30 13 1 10 14
M  V30 14 2 11 15
M  V30 15 1 11 16
M  V30 16 2 12 17
M  V30 17 1 16 18
M  V30 18 2 18 19
M  V30 19 1 18 20
M  V30 20 1 19 21
M  V30 21 2 20 22
M  V30 22 2 21 23
M  V30 23 1 8 10
M  V30 24 1 13 17
M  V30 25 1 22 23
M  V30 26 1 7 24
M  V30 27 1 7 25
M  V30 28 1 7 26
M  V30 29 1 9 27
M  V30 30 1 12 28
M  V30 31 1 13 29
M  V30 32 1 16 30
M  V30 33 1 17 31
M  V30 34 1 20 32
M  V30 35 1 21 33
M  V30 36 1 22 34
M  V30 37 1 23 35
M  V30 END BOND
M  V30 END CTAB
M  END
>  <Structure No>
5090

>  <LogS>
-4.1586

>  <MMFF94 Energy>
-5.7415

$$$$
Compound 5091
Actelion Java MolfileCreator 2.0

  0  0  0  0  0  0              0 V3000
M  V30 BEGIN CTAB
M  V30 COUNTS 32 33 0 0 0
M  V30 BEGIN ATOM
M  V30 1 O 5.2349 1.0453 1.6085 0
M  V30 2 C 5.246 0.8124 0.3711 0
M  V30 3 O 5.3162 1.8698 -0.527 0 CHG=-1
M  V30 4 C 5.1433 -0.5954 -0.1312 0
M  V30 5 C 3.6932 -1.1007 -0.1024 0
M  V30 6 C 2.7829 -0.3547 -1.0513 0
M  V30 7 O 3.2574 0.1065 -2.1259 0
M  V30 8 C 1.3308 -0.2026 -0.7792 0
M  V30 9 C 0.6562 -1.0687 0.1003 0
M  V30 10 C 0.6003 0.8117 -1.4218 0
M  V30 11 C -0.712 -0.9134 0.3408 0
M  V30 12 C -0.7671 0.968 -1.1794 0
M  V30 13 C -1.4388 0.1079 -0.2941 0
M  V30 14 C -2.8925 0.2734 -0.0371 0
M  V30 15 C -3.4525 1.5574 0.1056 0
M  V30 16 C -3.7339 -0.8506 0.0675 0
M  V30 17 C -4.8212 1.7104 0.3479 0
M  V30 18 C -5.102 -0.6915 0.309 0
M  V30 19 C -5.645 0.5874 0.4494 0
M  V30 20 H 5.5553 -0.6609 -1.1614 0
M  V30 21 H 5.7653 -1.2526 0.5142 0
M  V30 22 H 3.6825 -2.176 -0.3807 0
M  V30 23 H 3.3152 -1.0134 0.9393 0
M  V30 24 H 1.1762 -1.8787 0.594 0
M  V30 25 H 1.0885 1.4919 -2.1086 0
M  V30 26 H -1.1989 -1.5863 1.0355 0
M  V30 27 H -1.3029 1.7524 -1.699 0
M  V30 28 H -2.83 2.4414 0.0477 0
M  V30 29 H -3.3377 -1.8508 -0.0548 0
M  V30 30 H -5.2427 2.7011 0.4606 0
M  V30 31 H -5.7422 -1.561 0.3839 0
M  V30 32 H -6.7043 0.7082 0.6365 0
M  V30 END ATOM
M  V30 BEGIN BOND
M  V30 1 2 1 2
M  V30 2 1 2 3
M  V30 3 1 2 4
M  V30 4 1 4 5
M  V30 5 1 5 6
M  V30 6 2 6 7
M  V30 7 1 6 8
M  V30 8 2 8 9
M  V30 9 1 8 10
M  V30 10 1 9 11
M  V30 11 2 10 12
M  V30 12 2 11 13
M  V30 13 1 13 14
M  V30 14 2 14 15
M  V30 15 1 14 16
M  V30 16 1 15 17
M  V30 17 2 16 18
M  V30 18 2 17 19
M  V30 19 1 12 13
M  V30 20 1 18 19
M  V30 21 1 4 20
M  V30 22 1 4 21
M  V30 23 1 5 22
M  V30 24 1 5 23
M  V30 25 1 9 24
M  V30 26 1 10 25
M  V30 27 1 11 26
M  V30 28 1 12 27
M  V30 29 1 15 28
M  V30 30 1 16 29
M  V30 31 1 17 30
M  V30 32 1 18 31
M  V30 33 1 19 32
M  V30 END BOND
M  V30 END CTAB
M  END
>  <Structure No>
5091

>  <LogS>
-5.0609

>  <MMFF94 Energy>
52.773

$$$$
Compound 5092
Actelion Java MolfileCreator 2.0

  0  0  0  0  0  0              0 V3000
M  V30 BEGIN CTAB
M  V30 COUNTS 22 23 0 0 0
M  V30 BEGIN ATOM
M  V30 1 Cl -0.8653 1.7312 -2.0777 0
M  V30 2 C -1.5563 0.5666 -0.9446 0
M  V30 3 C -2.9418 0.3171 -0.9538 0
M  V30 4 C -0.726 -0.1392 -0.0464 0
M  V30 5 Cl -4.0169 1.1668 -2.0568 0
M  V30 6 C -3.4891 -0.625 -0.0764 0
M  V30 7 C 0.731 0.1045 0.0068 0
M  V30 8 C -1.2927 -1.0815 0.826 0
M  V30 9 C -2.6672 -1.3224 0.8093 0
M  V30 10 C 1.6537 -0.8764 -0.4125 0
M  V30 11 C 1.2056 1.3306 0.5007 0
M  V30 12 Cl 1.1212 -2.4204 -1.0697 0
M  V30 13 C 3.0278 -0.6185 -0.3355 0
M  V30 14 C 2.5784 1.5793 0.5741 0
M  V30 15 C 3.4899 0.6057 0.1572 0
M  V30 16 Cl 5.213 0.9207 0.2494 0
M  V30 17 H -4.5542 -0.819 -0.0815 0
M  V30 18 H -0.668 -1.6262 1.5237 0
M  V30 19 H -3.0964 -2.0501 1.4858 0
M  V30 20 H 0.5103 2.0922 0.8329 0
M  V30 21 H 3.7368 -1.3688 -0.662 0
M  V30 22 H 2.932 2.5283 0.9567 0
M  V30 END ATOM
M  V30 BEGIN BOND
M  V30 1 1 1 2
M  V30 2 2 2 3
M  V30 3 1 2 4
M  V30 4 1 3 5
M  V30 5 1 3 6
M  V30 6 1 4 7
M  V30 7 2 4 8
M  V30 8 2 6 9
M  V30 9 2 7 10
M  V30 10 1 7 11
M  V30 11 1 10 12
M  V30 12 1 10 13
M  V30 13 2 11 14
M  V30 14 2 13 15
M  V30 15 1 15 16
M  V30 16 1 8 9
M  V30 17 1 14 15
M  V30 18 1 6 17
M  V30 19 1 8 18
M  V30 20 1 9 19
M  V30 21 1 11 20
M  V30 22 1 13 21
M  V30 23 1 14 22
M  V30 END BOND
M  V30 END CTAB
M  END
>  <Structure No>
5092

>  <LogS>
-6.6813

>  <MMFF94 Energy>
49.08

$$$$
Compound 5093
Actelion Java MolfileCreator 2.0

  0  0  0  0  0  0              0 V3000
M  V30 BEGIN CTAB
M  V30 COUNTS 19 18 0 0 0
M  V30 BEGIN ATOM
M  V30 1 C -0.2298 -0.383 -0.2298 0
M  V30 2 C 0.8444 -0.7523 0.1746 0
M  V30 3 C -1.539 0.0696 -0.7231 0
M  V30 4 C 2.1514 -1.1994 0.6668 0
M  V30 5 C -2.6231 -0.2362 0.3126 0
M  V30 6 C -1.4896 1.5661 -1.0385 0
M  V30 7 C 3.1072 -0.0194 0.7905 0
M  V30 8 H -1.771 -0.4851 -1.6578 0
M  V30 9 H 2.0209 -1.6795 1.6595 0
M  V30 10 H 2.5699 -1.9457 -0.0409 0
M  V30 11 H -3.6168 0.0802 -0.0704 0
M  V30 12 H -2.6625 -1.3285 0.5143 0
M  V30 13 H -2.4198 0.2981 1.2664 0
M  V30 14 H -0.7142 1.7696 -1.8083 0
M  V30 15 H -2.4698 1.9043 -1.4376 0
M  V30 16 H -1.2521 2.1542 -0.1253 0
M  V30 17 H 2.7065 0.7294 1.5074 0
M  V30 18 H 4.0905 -0.3763 1.1632 0
M  V30 19 H 3.2565 0.4629 -0.1994 0
M  V30 END ATOM
M  V30 BEGIN BOND
M  V30 1 3 1 2
M  V30 2 1 1 3
M  V30 3 1 2 4
M  V30 4 1 3 5
M  V30 5 1 3 6
M  V30 6 1 4 7
M  V30 7 1 3 8
M  V30 8 1 4 9
M  V30 9 1 4 10
M  V30 10 1 5 11
M  V30 11 1 5 12
M  V30 12 1 5 13
M  V30 13 1 6 14
M  V30 14 1 6 15
M  V30 15 1 6 16
M  V30 16 1 7 17
M  V30 17 1 7 18
M  V30 18 1 7 19
M  V30 END BOND
M  V30 END CTAB
M  END
>  <Structure No>
5093

>  <LogS>
-2.7448

>  <MMFF94 Energy>
1.2818

$$$$
Compound 5094
Actelion Java MolfileCreator 2.0

  0  0  0  0  0  0              0 V3000
M  V30 BEGIN CTAB
M  V30 COUNTS 57 56 0 0 0
M  V30 BEGIN ATOM
M  V30 1 S -3.2897 2.6471 3.611 0
M  V30 2 O -3.9649 3.7751 4.3435 0
M  V30 3 O -4.3384 1.6902 3.1123 0
M  V30 4 O -2.4039 3.287 2.3128 0
M  V30 5 O -2.2529 1.8516 4.6658 0 CHG=-1
M  V30 6 C -1.8709 2.2411 1.522 0 CFG=2
M  V30 7 C -0.4138 2.6034 1.1712 0
M  V30 8 C -2.7294 2.0998 0.2436 0
M  V30 9 C 0.4929 2.4638 2.3677 0
M  V30 10 C -2.5205 0.7699 -0.5086 0
M  V30 11 C 0.9932 1.2968 2.8176 0
M  V30 12 C -3.2584 -0.4067 0.1565 0
M  V30 13 C 0.7569 -0.0538 2.1814 0
M  V30 14 C -2.8981 -1.766 -0.4695 0
M  V30 15 C 2.0131 -0.5753 1.4727 0
M  V30 16 C -3.2904 -1.9175 -1.949 0
M  V30 17 C 2.3273 0.2229 0.1967 0
M  V30 18 C -4.7982 -1.8157 -2.1833 0
M  V30 19 C 3.5646 -0.3047 -0.5442 0
M  V30 20 C 3.2719 -1.6014 -1.3198 0
M  V30 21 C 4.4826 -2.0953 -2.1267 0
M  V30 22 C 4.7427 -1.2459 -3.3776 0
M  V30 23 C 5.834 -1.8517 -4.2029 0
M  V30 24 O 5.5568 -2.6818 -5.109 0
M  V30 25 O 7.1622 -1.5347 -3.9417 0 CHG=-1
M  V30 26 H -1.8556 1.2682 2.0586 0
M  V30 27 H -0.0201 1.9942 0.3349 0
M  V30 28 H -0.3797 3.6602 0.8253 0
M  V30 29 H -2.499 2.9433 -0.4448 0
M  V30 30 H -3.8065 2.1967 0.5039 0
M  V30 31 H 0.7794 3.373 2.8874 0
M  V30 32 H -1.4411 0.5355 -0.6042 0
M  V30 33 H -2.92 0.9033 -1.5365 0
M  V30 34 H 1.6607 1.3292 3.6739 0
M  V30 35 H -2.9874 -0.4632 1.2291 0
M  V30 36 H -4.3545 -0.2398 0.1134 0
M  V30 37 H -0.0937 -0.0566 1.472 0
M  V30 38 H 0.4915 -0.7645 2.9929 0
M  V30 39 H -3.3946 -2.5695 0.1192 0
M  V30 40 H -1.8021 -1.9284 -0.3747 0
M  V30 41 H 1.834 -1.639 1.2105 0
M  V30 42 H 2.8802 -0.5372 2.1681 0
M  V30 43 H -2.7626 -1.1666 -2.5706 0
M  V30 44 H -2.9537 -2.9163 -2.2958 0
M  V30 45 H 2.5191 1.2804 0.4753 0
M  V30 46 H 1.4508 0.208 -0.4861 0
M  V30 47 H -5.1441 -0.7705 -2.0446 0
M  V30 48 H -5.0323 -2.1204 -3.2272 0
M  V30 49 H -5.3496 -2.484 -1.4895 0
M  V30 50 H 3.8847 0.4849 -1.256 0
M  V30 51 H 4.3984 -0.47 0.1741 0
M  V30 52 H 2.9996 -2.4019 -0.601 0
M  V30 53 H 2.4047 -1.4522 -1.9994 0
M  V30 54 H 4.2782 -3.1422 -2.4431 0
M  V30 55 H 5.3885 -2.1095 -1.4814 0
M  V30 56 H 5.0474 -0.2185 -3.0897 0
M  V30 57 H 3.8163 -1.1748 -3.9892 0
M  V30 END ATOM
M  V30 BEGIN BOND
M  V30 1 2 1 2
M  V30 2 2 1 3
M  V30 3 1 1 4
M  V30 4 1 1 5
M  V30 5 1 4 6
M  V30 6 1 6 7
M  V30 7 1 6 8
M  V30 8 1 7 9
M  V30 9 1 8 10
M  V30 10 2 9 11
M  V30 11 1 10 12
M  V30 12 1 11 13
M  V30 13 1 12 14
M  V30 14 1 13 15
M  V30 15 1 14 16
M  V30 16 1 15 17
M  V30 17 1 16 18
M  V30 18 1 17 19
M  V30 19 1 19 20
M  V30 20 1 20 21
M  V30 21 1 21 22
M  V30 22 1 22 23
M  V30 23 2 23 24
M  V30 24 1 23 25
M  V30 25 1 6 26
M  V30 26 1 7 27
M  V30 27 1 7 28
M  V30 28 1 8 29
M  V30 29 1 8 30
M  V30 30 1 9 31
M  V30 31 1 10 32
M  V30 32 1 10 33
M  V30 33 1 11 34
M  V30 34 1 12 35
M  V30 35 1 12 36
M  V30 36 1 13 37
M  V30 37 1 13 38
M  V30 38 1 14 39
M  V30 39 1 14 40
M  V30 40 1 15 41
M  V30 41 1 15 42
M  V30 42 1 16 43
M  V30 43 1 16 44
M  V30 44 1 17 45
M  V30 45 1 17 46
M  V30 46 1 18 47
M  V30 47 1 18 48
M  V30 48 1 18 49
M  V30 49 1 19 50
M  V30 50 1 19 51
M  V30 51 1 20 52
M  V30 52 1 20 53
M  V30 53 1 21 54
M  V30 54 1 21 55
M  V30 55 1 22 56
M  V30 56 1 22 57
M  V30 END BOND
M  V30 BEGIN COLLECTION
M  V30 MDLV30/STEABS ATOMS=(1 6)
M  V30 END COLLECTION
M  V30 END CTAB
M  END
>  <Structure No>
5094

>  <LogS>
-0.5781

>  <MMFF94 Energy>
-7.6604

$$$$
Compound 5095
Actelion Java MolfileCreator 2.0

  0  0  0  0  0  0              0 V3000
M  V30 BEGIN CTAB
M  V30 COUNTS 51 50 0 0 0
M  V30 BEGIN ATOM
M  V30 1 O -8.0247 0.0776 0.5437 0
M  V30 2 C -7.0216 -0.3389 1.4306 0
M  V30 3 C -6.2641 -1.5543 0.8781 0
M  V30 4 C -5.6794 -1.3391 -0.5313 0
M  V30 5 C -4.6821 -0.1727 -0.6546 0
M  V30 6 C -3.4192 -0.3727 0.2003 0
M  V30 7 C -2.3997 0.7639 0.0234 0
M  V30 8 C -1.697 0.728 -1.3457 0
M  V30 9 C -0.5085 1.7108 -1.4138 0
M  V30 10 C 0.8647 1.0267 -1.3021 0
M  V30 11 C 1.111 0.4057 0.0824 0
M  V30 12 C 2.5105 -0.2176 0.2088 0
M  V30 13 C 3.6253 0.8403 0.2989 0
M  V30 14 C 4.9792 0.2404 0.7117 0
M  V30 15 C 5.6061 -0.6202 -0.3985 0
M  V30 16 C 6.9662 -1.2073 0.0094 0
M  V30 17 C 8.0786 -0.1593 0.0431 0
M  V30 18 H -8.7542 -0.5929 0.6056 0
M  V30 19 H -6.3195 0.5017 1.6072 0
M  V30 20 H -7.4681 -0.5996 2.4168 0
M  V30 21 H -6.967 -2.4144 0.8332 0
M  V30 22 H -5.4601 -1.841 1.5877 0
M  V30 23 H -5.1755 -2.2773 -0.8504 0
M  V30 24 H -6.5142 -1.1665 -1.2449 0
M  V30 25 H -4.3925 -0.105 -1.7239 0
M  V30 26 H -5.1755 0.7862 -0.3902 0
M  V30 27 H -2.9431 -1.3477 -0.0425 0
M  V30 28 H -3.7069 -0.3936 1.2725 0
M  V30 29 H -2.9039 1.7459 0.1596 0
M  V30 30 H -1.6437 0.6699 0.8308 0
M  V30 31 H -1.364 -0.3063 -1.5818 0
M  V30 32 H -2.4314 1.02 -2.1265 0
M  V30 33 H -0.5405 2.226 -2.399 0
M  V30 34 H -0.5978 2.5077 -0.6425 0
M  V30 35 H 1.6369 1.7982 -1.5035 0
M  V30 36 H 0.9571 0.2453 -2.088 0
M  V30 37 H 0.9637 1.1699 0.8767 0
M  V30 38 H 0.3709 -0.4056 0.2482 0
M  V30 39 H 2.6891 -0.8938 -0.654 0
M  V30 40 H 2.5251 -0.8364 1.1328 0
M  V30 41 H 3.7396 1.3644 -0.6735 0
M  V30 42 H 3.343 1.5992 1.0611 0
M  V30 43 H 4.8575 -0.3626 1.638 0
M  V30 44 H 5.66 1.0851 0.9477 0
M  V30 45 H 4.9301 -1.4714 -0.6248 0
M  V30 46 H 5.7181 -0.0209 -1.3287 0
M  V30 47 H 7.248 -1.9866 -0.7315 0
M  V30 48 H 6.8885 -1.7015 1.0022 0
M  V30 49 H 7.9116 0.5678 0.864 0
M  V30 50 H 9.0524 -0.662 0.2221 0
M  V30 51 H 8.1339 0.3809 -0.9256 0
M  V30 END ATOM
M  V30 BEGIN BOND
M  V30 1 1 1 2
M  V30 2 1 2 3
M  V30 3 1 3 4
M  V30 4 1 4 5
M  V30 5 1 5 6
M  V30 6 1 6 7
M  V30 7 1 7 8
M  V30 8 1 8 9
M  V30 9 1 9 10
M  V30 10 1 10 11
M  V30 11 1 11 12
M  V30 12 1 12 13
M  V30 13 1 13 14
M  V30 14 1 14 15
M  V30 15 1 15 16
M  V30 16 1 16 17
M  V30 17 1 1 18
M  V30 18 1 2 19
M  V30 19 1 2 20
M  V30 20 1 3 21
M  V30 21 1 3 22
M  V30 22 1 4 23
M  V30 23 1 4 24
M  V30 24 1 5 25
M  V30 25 1 5 26
M  V30 26 1 6 27
M  V30 27 1 6 28
M  V30 28 1 7 29
M  V30 29 1 7 30
M  V30 30 1 8 31
M  V30 31 1 8 32
M  V30 32 1 9 33
M  V30 33 1 9 34
M  V30 34 1 10 35
M  V30 35 1 10 36
M  V30 36 1 11 37
M  V30 37 1 11 38
M  V30 38 1 12 39
M  V30 39 1 12 40
M  V30 40 1 13 41
M  V30 41 1 13 42
M  V30 42 1 14 43
M  V30 43 1 14 44
M  V30 44 1 15 45
M  V30 45 1 15 46
M  V30 46 1 16 47
M  V30 47 1 16 48
M  V30 48 1 17 49
M  V30 49 1 17 50
M  V30 50 1 17 51
M  V30 END BOND
M  V30 END CTAB
M  END
>  <Structure No>
5095

>  <LogS>
-6.7697

>  <MMFF94 Energy>
-2.7994

$$$$
Compound 5096
Actelion Java MolfileCreator 2.0

  0  0  0  0  0  0              0 V3000
M  V30 BEGIN CTAB
M  V30 COUNTS 34 35 0 0 0
M  V30 BEGIN ATOM
M  V30 1 Cl 5.9354 -2.882 0.1645 0
M  V30 2 C 5.2196 -1.2869 0.0189 0
M  V30 3 C 6.0364 -0.1523 0.0175 0
M  V30 4 C 3.8321 -1.1511 -0.1004 0
M  V30 5 C 5.4674 1.1189 -0.1039 0
M  V30 6 C 3.2505 0.1224 -0.2234 0
M  V30 7 Cl 6.4929 2.5421 -0.0987 0
M  V30 8 C 4.0802 1.2567 -0.2244 0
M  V30 9 N 1.8241 0.2632 -0.3467 0
M  V30 10 C 0.8117 -0.4885 0.305 0
M  V30 11 C 1.1007 1.1916 -1.1507 0
M  V30 12 O 1.0494 -1.3919 1.1511 0
M  V30 13 N -0.5039 -0.0731 -0.0598 0
M  V30 14 O 1.6493 2.0173 -1.9275 0
M  V30 15 C -0.3813 1.0339 -1.0089 0
M  V30 16 C -1.7365 -0.6185 0.4403 0
M  V30 17 O -1.7083 -1.5679 1.2701 0
M  V30 18 N -2.9992 -0.0939 -0.0018 0
M  V30 19 C -4.2776 -0.5888 0.5203 0
M  V30 20 C -4.5246 -0.0271 1.9236 0
M  V30 21 C -5.4234 -0.1999 -0.4197 0
M  V30 22 H 7.1099 -0.2581 0.1104 0
M  V30 23 H 3.2128 -2.0383 -0.1187 0
M  V30 24 H 3.6508 2.2473 -0.2969 0
M  V30 25 H -0.8374 0.762 -1.9845 0
M  V30 26 H -0.8314 1.9587 -0.5896 0
M  V30 27 H -3.0071 0.6487 -0.7365 0
M  V30 28 H -4.2487 -1.6997 0.5746 0
M  V30 29 H -5.4926 -0.3993 2.3217 0
M  V30 30 H -3.7194 -0.3512 2.6156 0
M  V30 31 H -4.5465 1.0835 1.8982 0
M  V30 32 H -5.5113 0.9053 -0.4944 0
M  V30 33 H -6.3844 -0.6137 -0.0461 0
M  V30 34 H -5.2359 -0.6136 -1.4333 0
M  V30 END ATOM
M  V30 BEGIN BOND
M  V30 1 1 1 2
M  V30 2 2 2 3
M  V30 3 1 2 4
M  V30 4 1 3 5
M  V30 5 2 4 6
M  V30 6 1 5 7
M  V30 7 2 5 8
M  V30 8 1 6 9
M  V30 9 1 9 10
M  V30 10 1 9 11
M  V30 11 2 10 12
M  V30 12 1 10 13
M  V30 13 2 11 14
M  V30 14 1 11 15
M  V30 15 1 13 16
M  V30 16 2 16 17
M  V30 17 1 16 18
M  V30 18 1 18 19
M  V30 19 1 19 20
M  V30 20 1 19 21
M  V30 21 1 6 8
M  V30 22 1 13 15
M  V30 23 1 3 22
M  V30 24 1 4 23
M  V30 25 1 8 24
M  V30 26 1 15 25
M  V30 27 1 15 26
M  V30 28 1 18 27
M  V30 29 1 19 28
M  V30 30 1 20 29
M  V30 31 1 20 30
M  V30 32 1 20 31
M  V30 33 1 21 32
M  V30 34 1 21 33
M  V30 35 1 21 34
M  V30 END BOND
M  V30 END CTAB
M  END
>  <Structure No>
5096

>  <LogS>
-4.3757

>  <MMFF94 Energy>
-96.885

$$$$
Compound 5097
Actelion Java MolfileCreator 2.0

  0  0  0  0  0  0              0 V3000
M  V30 BEGIN CTAB
M  V30 COUNTS 44 44 0 0 0
M  V30 BEGIN ATOM
M  V30 1 S 0.876 -2.1514 0.0796 0
M  V30 2 C 0.3509 -0.6263 -0.7056 0
M  V30 3 C 1.2963 -1.3628 1.6732 0
M  V30 4 O 1.2145 0.055 -1.3203 0
M  V30 5 N -1.0134 -0.152 -0.6231 0
M  V30 6 C 2.5907 -0.6042 1.5683 0
M  V30 7 C -2.1333 -0.9213 -1.2355 0 CFG=2
M  V30 8 C -1.1778 1.2884 -0.3153 0 CFG=1
M  V30 9 C 3.8042 -1.2976 1.426 0
M  V30 10 C 2.5997 0.8007 1.5918 0
M  V30 11 C -3.0357 -1.639 -0.1987 0
M  V30 12 C -1.6681 -1.8734 -2.3519 0
M  V30 13 C -1.309 2.1193 -1.614 0
M  V30 14 C -2.3508 1.5299 0.6435 0
M  V30 15 C 5.0075 -0.5951 1.3085 0
M  V30 16 C 3.8049 1.4994 1.4732 0
M  V30 17 C -2.3073 -2.5426 0.7886 0
M  V30 18 C -1.0126 3.6026 -1.392 0
M  V30 19 C 5.0078 0.8023 1.3316 0
M  V30 20 H 1.403 -2.1596 2.4391 0
M  V30 21 H 0.4653 -0.7015 2.0022 0
M  V30 22 H -2.8081 -0.204 -1.7492 0
M  V30 23 H -0.27 1.6385 0.2269 0
M  V30 24 H 3.8162 -2.3803 1.4028 0
M  V30 25 H 1.6766 1.3553 1.7021 0
M  V30 26 H -3.7912 -2.2505 -0.7389 0
M  V30 27 H -3.6128 -0.8922 0.3818 0
M  V30 28 H -1.0521 -1.3181 -3.091 0
M  V30 29 H -1.0749 -2.7178 -1.9484 0
M  V30 30 H -2.5477 -2.2928 -2.8856 0
M  V30 31 H -0.5908 1.7373 -2.3708 0
M  V30 32 H -2.3289 2.021 -2.0433 0
M  V30 33 H -3.3245 1.4024 0.1262 0
M  V30 34 H -2.3079 2.5611 1.0518 0
M  V30 35 H -2.2888 0.8271 1.5013 0
M  V30 36 H 5.9396 -1.134 1.1981 0
M  V30 37 H 3.8063 2.5817 1.4909 0
M  V30 38 H -3.0515 -3.0389 1.4465 0
M  V30 39 H -1.7417 -3.3342 0.2571 0
M  V30 40 H -1.6349 -1.9425 1.4338 0
M  V30 41 H 0.0044 3.7361 -0.9658 0
M  V30 42 H -1.7616 4.0553 -0.7097 0
M  V30 43 H -1.0595 4.138 -2.3637 0
M  V30 44 H 5.9399 1.3447 1.2396 0
M  V30 END ATOM
M  V30 BEGIN BOND
M  V30 1 1 1 2
M  V30 2 1 1 3
M  V30 3 2 2 4
M  V30 4 1 2 5
M  V30 5 1 3 6
M  V30 6 1 5 7
M  V30 7 1 5 8
M  V30 8 2 6 9
M  V30 9 1 6 10
M  V30 10 1 7 11
M  V30 11 1 7 12
M  V30 12 1 8 13
M  V30 13 1 8 14
M  V30 14 1 9 15
M  V30 15 2 10 16
M  V30 16 1 11 17
M  V30 17 1 13 18
M  V30 18 2 15 19
M  V30 19 1 16 19
M  V30 20 1 3 20
M  V30 21 1 3 21
M  V30 22 1 7 22
M  V30 23 1 8 23
M  V30 24 1 9 24
M  V30 25 1 10 25
M  V30 26 1 11 26
M  V30 27 1 11 27
M  V30 28 1 12 28
M  V30 29 1 12 29
M  V30 30 1 12 30
M  V30 31 1 13 31
M  V30 32 1 13 32
M  V30 33 1 14 33
M  V30 34 1 14 34
M  V30 35 1 14 35
M  V30 36 1 15 36
M  V30 37 1 16 37
M  V30 38 1 17 38
M  V30 39 1 17 39
M  V30 40 1 17 40
M  V30 41 1 18 41
M  V30 42 1 18 42
M  V30 43 1 18 43
M  V30 44 1 19 44
M  V30 END BOND
M  V30 BEGIN COLLECTION
M  V30 MDLV30/STEABS ATOMS=(2 7 8)
M  V30 END COLLECTION
M  V30 END CTAB
M  END
>  <Structure No>
5097

>  <LogS>
-5.0484

>  <MMFF94 Energy>
-11.407

$$$$
Compound 5098
Actelion Java MolfileCreator 2.0

  0  0  0  0  0  0              0 V3000
M  V30 BEGIN CTAB
M  V30 COUNTS 18 18 0 0 0
M  V30 BEGIN ATOM
M  V30 1 Cl 3.1555 1.2447 1.4107 0
M  V30 2 C 1.9112 0.4312 0.4677 0
M  V30 3 C 0.5404 0.7404 0.617 0
M  V30 4 C 2.3152 -0.5626 -0.4279 0
M  V30 5 N 0.1264 1.7108 1.5933 0
M  V30 6 C -0.416 0.0457 -0.1693 0
M  V30 7 C 1.3718 -1.2588 -1.1816 0
M  V30 8 C -1.8589 0.3771 -0.1286 0
M  V30 9 C 0.0157 -0.9565 -1.0546 0
M  V30 10 Cl 1.8918 -2.5048 -2.3019 0
M  V30 11 O -2.2298 1.5814 -0.1124 0
M  V30 12 N -2.845 -0.6568 -0.1459 0
M  V30 13 H 3.3667 -0.7995 -0.5333 0
M  V30 14 H -0.8588 1.7623 1.9317 0
M  V30 15 H 0.8103 2.3461 2.059 0
M  V30 16 H -0.6994 -1.4871 -1.6714 0
M  V30 17 H -3.8604 -0.4136 -0.158 0
M  V30 18 H -2.5709 -1.6633 -0.1035 0
M  V30 END ATOM
M  V30 BEGIN BOND
M  V30 1 1 1 2
M  V30 2 2 2 3
M  V30 3 1 2 4
M  V30 4 1 3 5
M  V30 5 1 3 6
M  V30 6 2 4 7
M  V30 7 1 6 8
M  V30 8 2 6 9
M  V30 9 1 7 10
M  V30 10 2 8 11
M  V30 11 1 8 12
M  V30 12 1 7 9
M  V30 13 1 4 13
M  V30 14 1 5 14
M  V30 15 1 5 15
M  V30 16 1 9 16
M  V30 17 1 12 17
M  V30 18 1 12 18
M  V30 END BOND
M  V30 END CTAB
M  END
>  <Structure No>
5098

>  <LogS>
-2.0814

>  <MMFF94 Energy>
16.558

$$$$
Compound 5099
Actelion Java MolfileCreator 2.0

  0  0  0  0  0  0              0 V3000
M  V30 BEGIN CTAB
M  V30 COUNTS 29 30 0 0 0
M  V30 BEGIN ATOM
M  V30 1 O 4.8775 -1.1178 1.1977 0
M  V30 2 C 4.5661 -0.1497 0.4543 0
M  V30 3 N 5.5958 0.6345 -0.1491 0
M  V30 4 C 3.1491 0.1593 0.218 0
M  V30 5 N 2.135 -0.5471 0.7559 0
M  V30 6 N 2.721 1.1733 -0.5676 0
M  V30 7 N 1.0331 0.0333 0.3187 0
M  V30 8 C 1.3818 1.056 -0.4819 0
M  V30 9 C -0.3181 -0.4486 0.6007 0 CFG=1
M  V30 10 O -1.201 0.6442 0.7678 0
M  V30 11 C -0.8229 -1.3452 -0.5298 0 CFG=1
M  V30 12 C -2.2411 0.5019 -0.1748 0 CFG=1
M  V30 13 O -0.6521 -2.7028 -0.2147 0
M  V30 14 C -2.2797 -0.9561 -0.6352 0 CFG=2
M  V30 15 C -3.5712 0.9988 0.4106 0
M  V30 16 O -3.1032 -1.7619 0.1794 0
M  V30 17 O -3.5261 2.3855 0.6132 0
M  V30 18 H 5.3657 1.4423 -0.7692 0
M  V30 19 H 6.5996 0.4061 0.0253 0
M  V30 20 H 0.6819 1.6971 -1.0019 0
M  V30 21 H -0.306 -1.0197 1.5561 0
M  V30 22 H -0.3005 -1.0987 -1.485 0
M  V30 23 H -1.9964 1.1374 -1.0565 0
M  V30 24 H -0.8686 -3.2107 -1.0396 0
M  V30 25 H -2.6328 -1.029 -1.687 0
M  V30 26 H -3.8026 0.479 1.3681 0
M  V30 27 H -4.3913 0.7783 -0.3056 0
M  V30 28 H -2.768 -1.7084 1.1129 0
M  V30 29 H -3.0107 2.5354 1.4483 0
M  V30 END ATOM
M  V30 BEGIN BOND
M  V30 1 2 1 2
M  V30 2 1 2 3
M  V30 3 1 2 4
M  V30 4 2 4 5
M  V30 5 1 4 6
M  V30 6 1 5 7
M  V30 7 2 6 8
M  V30 8 1 7 9
M  V30 9 1 9 10
M  V30 10 1 9 11
M  V30 11 1 10 12
M  V30 12 1 11 13
M  V30 13 1 11 14
M  V30 14 1 12 15
M  V30 15 1 14 16
M  V30 16 1 15 17
M  V30 17 1 7 8
M  V30 18 1 12 14
M  V30 19 1 3 18
M  V30 20 1 3 19
M  V30 21 1 8 20
M  V30 22 1 9 21
M  V30 23 1 11 22
M  V30 24 1 12 23
M  V30 25 1 13 24
M  V30 26 1 14 25
M  V30 27 1 15 26
M  V30 28 1 15 27
M  V30 29 1 16 28
M  V30 30 1 17 29
M  V30 END BOND
M  V30 BEGIN COLLECTION
M  V30 MDLV30/STEABS ATOMS=(4 9 11 12 14)
M  V30 END COLLECTION
M  V30 END CTAB
M  END
>  <Structure No>
5099

>  <LogS>
-0.2355

>  <MMFF94 Energy>
139.83

$$$$
Compound 5100
Actelion Java MolfileCreator 2.0

  0  0  0  0  0  0              0 V3000
M  V30 BEGIN CTAB
M  V30 COUNTS 49 50 0 0 0
M  V30 BEGIN ATOM
M  V30 1 O 4.8157 -1.1036 3.0768 0
M  V30 2 C 5.403 -0.4406 2.1799 0
M  V30 3 N 6.4395 0.4691 2.5551 0
M  V30 4 C 4.9808 -0.5843 0.7666 0
M  V30 5 C 5.9111 -0.5303 -0.2919 0
M  V30 6 C 3.6231 -0.8031 0.4743 0
M  V30 7 O 7.2741 -0.386 -0.0325 0
M  V30 8 C 5.4679 -0.6476 -1.6159 0
M  V30 9 C 3.181 -0.9413 -0.8536 0
M  V30 10 C 4.1159 -0.848 -1.8955 0
M  V30 11 C 1.7137 -1.1584 -1.1668 0 CFG=1
M  V30 12 O 1.2288 -2.2946 -0.4902 0
M  V30 13 C 0.8825 0.1074 -0.8497 0
M  V30 14 N -0.5348 -0.0766 -1.2116 0 CHG=1
M  V30 15 C -1.3129 1.1801 -1.0552 0 CFG=2
M  V30 16 C -2.802 0.8789 -0.7494 0
M  V30 17 C -1.2141 2.0441 -2.3282 0
M  V30 18 C -3.0338 0.5445 0.7319 0
M  V30 19 C -4.4874 0.2465 0.9844 0
M  V30 20 C -5.3918 1.2925 1.2308 0
M  V30 21 C -4.9622 -1.0744 0.924 0
M  V30 22 C -6.7475 1.0164 1.4361 0
M  V30 23 C -6.3184 -1.3461 1.1308 0
M  V30 24 C -7.2096 -0.3019 1.3893 0
M  V30 25 H 6.7684 0.5054 3.545 0
M  V30 26 H 6.8112 1.1746 1.8826 0
M  V30 27 H 2.9063 -0.8452 1.2843 0
M  V30 28 H 7.9576 -0.3515 -0.7794 0
M  V30 29 H 6.1762 -0.592 -2.4325 0
M  V30 30 H 3.8013 -0.9325 -2.9278 0
M  V30 31 H 1.6048 -1.3606 -2.2552 0
M  V30 32 H 1.0807 -2.0502 0.4598 0
M  V30 33 H 0.9618 0.3436 0.2371 0
M  V30 34 H 1.3189 0.9622 -1.4143 0
M  V30 35 H -0.9249 -0.8241 -0.592 0
M  V30 36 H -0.6076 -0.4226 -2.1991 0
M  V30 37 H -0.9056 1.7895 -0.214 0
M  V30 38 H -3.4252 1.7666 -0.9968 0
M  V30 39 H -3.1528 0.0385 -1.3874 0
M  V30 40 H -1.7579 3.0036 -2.1852 0
M  V30 41 H -1.6548 1.5116 -3.2004 0
M  V30 42 H -0.1566 2.2885 -2.5576 0
M  V30 43 H -2.7172 1.4046 1.3621 0
M  V30 44 H -2.418 -0.3262 1.0396 0
M  V30 45 H -5.0479 2.3177 1.2608 0
M  V30 46 H -4.2842 -1.8914 0.715 0
M  V30 47 H -7.4401 1.8253 1.6277 0
M  V30 48 H -6.679 -2.3665 1.086 0
M  V30 49 H -8.2595 -0.5149 1.5492 0
M  V30 END ATOM
M  V30 BEGIN BOND
M  V30 1 2 1 2
M  V30 2 1 2 3
M  V30 3 1 2 4
M  V30 4 2 4 5
M  V30 5 1 4 6
M  V30 6 1 5 7
M  V30 7 1 5 8
M  V30 8 2 6 9
M  V30 9 2 8 10
M  V30 10 1 9 11
M  V30 11 1 11 12
M  V30 12 1 11 13
M  V30 13 1 13 14
M  V30 14 1 14 15
M  V30 15 1 15 16
M  V30 16 1 15 17
M  V30 17 1 16 18
M  V30 18 1 18 19
M  V30 19 2 19 20
M  V30 20 1 19 21
M  V30 21 1 20 22
M  V30 22 2 21 23
M  V30 23 2 22 24
M  V30 24 1 9 10
M  V30 25 1 23 24
M  V30 26 1 3 25
M  V30 27 1 3 26
M  V30 28 1 6 27
M  V30 29 1 7 28
M  V30 30 1 8 29
M  V30 31 1 10 30
M  V30 32 1 11 31
M  V30 33 1 12 32
M  V30 34 1 13 33
M  V30 35 1 13 34
M  V30 36 1 14 35
M  V30 37 1 14 36
M  V30 38 1 15 37
M  V30 39 1 16 38
M  V30 40 1 16 39
M  V30 41 1 17 40
M  V30 42 1 17 41
M  V30 43 1 17 42
M  V30 44 1 18 43
M  V30 45 1 18 44
M  V30 46 1 20 45
M  V30 47 1 21 46
M  V30 48 1 22 47
M  V30 49 1 23 48
M  V30 50 1 24 49
M  V30 END BOND
M  V30 BEGIN COLLECTION
M  V30 MDLV30/STEABS ATOMS=(2 11 15)
M  V30 END COLLECTION
M  V30 END CTAB
M  END
>  <Structure No>
5100

>  <LogS>
-3.4482

>  <MMFF94 Energy>
56.337

$$$$
Compound 5101
Actelion Java MolfileCreator 2.0

  0  0  0  0  0  0              0 V3000
M  V30 BEGIN CTAB
M  V30 COUNTS 44 44 0 0 0
M  V30 BEGIN ATOM
M  V30 1 O 1.6485 -1.8056 -0.7847 0
M  V30 2 C 2.3643 -0.8022 -1.0568 0
M  V30 3 O 1.8191 0.2844 -1.7537 0
M  V30 4 C 3.7837 -0.7702 -0.6414 0
M  V30 5 C 0.4463 0.3793 -2.1347 0
M  V30 6 C 4.5835 0.3486 -0.9338 0
M  V30 7 C 4.3537 -1.8526 0.0535 0
M  V30 8 C -0.3533 1.2041 -1.1204 0
M  V30 9 C 5.9248 0.3832 -0.5405 0
M  V30 10 C 5.6952 -1.8153 0.4457 0
M  V30 11 C -0.4945 0.4911 0.2333 0
M  V30 12 C 6.4869 -0.6978 0.1507 0
M  V30 13 C -1.2599 1.3264 1.2763 0
M  V30 14 N 7.8588 -0.6607 0.5525 0
M  V30 15 C -2.7219 1.6484 0.915 0
M  V30 16 C -3.585 0.3922 0.7248 0
M  V30 17 C -5.0653 0.7639 0.5516 0
M  V30 18 C -5.9762 -0.4696 0.4542 0
M  V30 19 C -5.8082 -1.2269 -0.8628 0
M  V30 20 H -0.0085 -0.6253 -2.2779 0
M  V30 21 H 0.3997 0.9008 -3.1141 0
M  V30 22 H 4.1745 1.1984 -1.4658 0
M  V30 23 H 3.764 -2.7282 0.2947 0
M  V30 24 H 0.142 2.1892 -0.9778 0
M  V30 25 H -1.3599 1.3801 -1.5543 0
M  V30 26 H 6.5257 1.2532 -0.7742 0
M  V30 27 H 6.1174 -2.6575 0.9797 0
M  V30 28 H 0.5182 0.304 0.6483 0
M  V30 29 H -0.9803 -0.4981 0.0977 0
M  V30 30 H -0.7171 2.2833 1.4383 0
M  V30 31 H -1.2447 0.7793 2.2443 0
M  V30 32 H 8.2867 -1.4619 1.0683 0
M  V30 33 H 8.4569 0.168 0.3372 0
M  V30 34 H -2.7648 2.2814 0.0038 0
M  V30 35 H -3.1448 2.2531 1.7472 0
M  V30 36 H -3.2406 -0.1499 -0.1796 0
M  V30 37 H -3.4715 -0.2722 1.6092 0
M  V30 38 H -5.1933 1.3991 -0.3524 0
M  V30 39 H -5.3921 1.3606 1.4315 0
M  V30 40 H -5.7833 -1.1567 1.3066 0
M  V30 41 H -7.0328 -0.1318 0.5281 0
M  V30 42 H -4.8074 -1.7027 -0.9189 0
M  V30 43 H -6.5743 -2.0282 -0.9273 0
M  V30 44 H -5.9419 -0.5409 -1.7262 0
M  V30 END ATOM
M  V30 BEGIN BOND
M  V30 1 2 1 2
M  V30 2 1 2 3
M  V30 3 1 2 4
M  V30 4 1 3 5
M  V30 5 2 4 6
M  V30 6 1 4 7
M  V30 7 1 5 8
M  V30 8 1 6 9
M  V30 9 2 7 10
M  V30 10 1 8 11
M  V30 11 2 9 12
M  V30 12 1 11 13
M  V30 13 1 12 14
M  V30 14 1 13 15
M  V30 15 1 15 16
M  V30 16 1 16 17
M  V30 17 1 17 18
M  V30 18 1 18 19
M  V30 19 1 10 12
M  V30 20 1 5 20
M  V30 21 1 5 21
M  V30 22 1 6 22
M  V30 23 1 7 23
M  V30 24 1 8 24
M  V30 25 1 8 25
M  V30 26 1 9 26
M  V30 27 1 10 27
M  V30 28 1 11 28
M  V30 29 1 11 29
M  V30 30 1 13 30
M  V30 31 1 13 31
M  V30 32 1 14 32
M  V30 33 1 14 33
M  V30 34 1 15 34
M  V30 35 1 15 35
M  V30 36 1 16 36
M  V30 37 1 16 37
M  V30 38 1 17 38
M  V30 39 1 17 39
M  V30 40 1 18 40
M  V30 41 1 18 41
M  V30 42 1 19 42
M  V30 43 1 19 43
M  V30 44 1 19 44
M  V30 END BOND
M  V30 END CTAB
M  END
>  <Structure No>
5101

>  <LogS>
-6.0

>  <MMFF94 Energy>
17.861

$$$$
Compound 5102
Actelion Java MolfileCreator 2.0

  0  0  0  0  0  0              0 V3000
M  V30 BEGIN CTAB
M  V30 COUNTS 70 72 0 0 0
M  V30 BEGIN ATOM
M  V30 1 O -4.1543 0.0 0.2393 0
M  V30 2 C -3.6262 -0.0781 -1.0828 0 CFG=2
M  V30 3 C -5.4531 -0.561 0.297 0 CFG=2
M  V30 4 O -2.4461 0.7043 -1.1499 0
M  V30 5 C -4.6526 0.4152 -2.1515 0 CFG=2
M  V30 6 C -6.4749 0.393 -0.3946 0 CFG=2
M  V30 7 C -5.7929 -0.8739 1.7592 0
M  V30 8 C -1.3897 0.1326 -0.3868 0 CFG=1
M  V30 9 O -4.0414 1.1119 -3.21 0
M  V30 10 C -5.7877 1.233 -1.4987 0 CFG=1
M  V30 11 O -7.0883 1.2612 0.5287 0
M  V30 12 O -7.0399 -1.5069 1.8403 0
M  V30 13 C -0.4136 -0.5982 -1.3308 0 CFG=1
M  V30 14 C -0.7021 1.2537 0.4574 0 CFG=2
M  V30 15 O -5.2645 2.4172 -0.941 0
M  V30 16 O -0.0395 0.2372 -2.3975 0
M  V30 17 C 0.8171 -1.0734 -0.5298 0 CFG=1
M  V30 18 C 0.8097 1.4337 0.164 0
M  V30 19 C -0.9939 1.1065 1.9658 0
M  V30 20 O 1.6548 -1.8412 -1.357 0
M  V30 21 C 1.6319 0.1151 0.0808 0 CFG=1
M  V30 22 O -0.5392 -0.1277 2.449 0
M  V30 23 N 2.2426 -0.2375 1.4015 0 CHG=1
M  V30 24 C 3.723 -0.3154 1.4015 0 CFG=1
M  V30 25 C 4.2232 -1.3404 0.3998 0
M  V30 26 C 4.3856 1.0768 1.2385 0 CFG=1
M  V30 27 C 5.3673 -1.1992 -0.3023 0
M  V30 28 O 4.1352 1.8425 2.3912 0
M  V30 29 C 5.9051 0.9007 1.043 0 CFG=1
M  V30 30 C 6.1879 0.0821 -0.2362 0 CFG=1
M  V30 31 C 5.7504 -2.2784 -1.2883 0
M  V30 32 O 6.5623 2.1444 0.9849 0
M  V30 33 O 7.5631 -0.193 -0.3365 0
M  V30 34 O 6.0561 -3.4672 -0.6139 0
M  V30 35 H -3.3813 -1.1404 -1.3241 0
M  V30 36 H -5.4679 -1.543 -0.2358 0
M  V30 37 H -5.1274 -0.4869 -2.5993 0
M  V30 38 H -7.2507 -0.2433 -0.8884 0
M  V30 39 H -5.7945 0.0607 2.3647 0
M  V30 40 H -5.0107 -1.5491 2.1739 0
M  V30 41 H -1.7581 -0.6513 0.3211 0
M  V30 42 H -3.6906 1.9697 -2.8582 0
M  V30 43 H -6.5542 1.4774 -2.274 0
M  V30 44 H -7.9393 0.8384 0.8142 0
M  V30 45 H -7.2044 -1.6656 2.8057 0
M  V30 46 H -0.9436 -1.4927 -1.7357 0
M  V30 47 H -1.1695 2.2256 0.1717 0
M  V30 48 H -5.4079 3.1435 -1.6038 0
M  V30 49 H 0.3738 -0.3423 -3.0887 0
M  V30 50 H 0.4279 -1.7242 0.2879 0
M  V30 51 H 1.2651 2.1446 0.8867 0
M  V30 52 H 0.8961 1.9543 -0.814 0
M  V30 53 H -2.0932 1.1852 2.1304 0
M  V30 54 H -0.5065 1.9344 2.5283 0
M  V30 55 H 1.2056 -2.7177 -1.4962 0
M  V30 56 H 2.4343 0.3361 -0.6595 0
M  V30 57 H -0.7854 -0.1572 3.4098 0
M  V30 58 H 1.9626 0.4477 2.1408 0
M  V30 59 H 1.8864 -1.1568 1.7513 0
M  V30 60 H 4.0384 -0.7029 2.3975 0
M  V30 61 H 3.6716 -2.2744 0.3251 0
M  V30 62 H 3.9701 1.602 0.3489 0
M  V30 63 H 4.3351 2.7872 2.1626 0
M  V30 64 H 6.3087 0.3458 1.9208 0
M  V30 65 H 5.8986 0.6953 -1.1185 0
M  V30 66 H 6.6111 -1.9661 -1.9199 0
M  V30 67 H 4.8974 -2.4645 -1.9758 0
M  V30 68 H 6.1555 2.6666 0.2427 0
M  V30 69 H 7.8077 -0.7807 0.425 0
M  V30 70 H 6.9469 -3.3351 -0.1949 0
M  V30 END ATOM
M  V30 BEGIN BOND
M  V30 1 1 1 2
M  V30 2 1 1 3
M  V30 3 1 2 4
M  V30 4 1 2 5
M  V30 5 1 3 6
M  V30 6 1 3 7
M  V30 7 1 4 8
M  V30 8 1 5 9
M  V30 9 1 5 10
M  V30 10 1 6 11
M  V30 11 1 7 12
M  V30 12 1 8 13
M  V30 13 1 8 14
M  V30 14 1 10 15
M  V30 15 1 13 16
M  V30 16 1 13 17
M  V30 17 1 14 18
M  V30 18 1 14 19
M  V30 19 1 17 20
M  V30 20 1 17 21
M  V30 21 1 19 22
M  V30 22 1 21 23
M  V30 23 1 23 24
M  V30 24 1 24 25
M  V30 25 1 24 26
M  V30 26 2 25 27
M  V30 27 1 26 28
M  V30 28 1 26 29
M  V30 29 1 27 30
M  V30 30 1 27 31
M  V30 31 1 29 32
M  V30 32 1 30 33
M  V30 33 1 31 34
M  V30 34 1 6 10
M  V30 35 1 18 21
M  V30 36 1 29 30
M  V30 37 1 2 35
M  V30 38 1 3 36
M  V30 39 1 5 37
M  V30 40 1 6 38
M  V30 41 1 7 39
M  V30 42 1 7 40
M  V30 43 1 8 41
M  V30 44 1 9 42
M  V30 45 1 10 43
M  V30 46 1 11 44
M  V30 47 1 12 45
M  V30 48 1 13 46
M  V30 49 1 14 47
M  V30 50 1 15 48
M  V30 51 1 16 49
M  V30 52 1 17 50
M  V30 53 1 18 51
M  V30 54 1 18 52
M  V30 55 1 19 53
M  V30 56 1 19 54
M  V30 57 1 20 55
M  V30 58 1 21 56
M  V30 59 1 22 57
M  V30 60 1 23 58
M  V30 61 1 23 59
M  V30 62 1 24 60
M  V30 63 1 25 61
M  V30 64 1 26 62
M  V30 65 1 28 63
M  V30 66 1 29 64
M  V30 67 1 30 65
M  V30 68 1 31 66
M  V30 69 1 31 67
M  V30 70 1 32 68
M  V30 71 1 33 69
M  V30 72 1 34 70
M  V30 END BOND
M  V30 BEGIN COLLECTION
M  V30 MDLV30/STEABS ATOMS=(14 2 3 5 6 8 10 13 14 17 21 24 26 29 30)
M  V30 END COLLECTION
M  V30 END CTAB
M  END
>  <Structure No>
5102

>  <LogS>
0.3032

>  <MMFF94 Energy>
201.01

$$$$
Compound 5103
Actelion Java MolfileCreator 2.0

  0  0  0  0  0  0              0 V3000
M  V30 BEGIN CTAB
M  V30 COUNTS 45 45 0 0 0
M  V30 BEGIN ATOM
M  V30 1 O -0.078 -2.0298 -0.078 0
M  V30 2 C 1.2102 -1.5198 0.1534 0
M  V30 3 C -1.2426 -1.2507 -0.3545 0
M  V30 4 C 2.2244 -2.4217 0.4959 0
M  V30 5 C 1.52 -0.1496 0.0459 0
M  V30 6 C -1.7783 -0.5985 0.9307 0 CFG=2
M  V30 7 C 3.5256 -1.9724 0.7364 0
M  V30 8 C 2.8213 0.3001 0.2873 0
M  V30 9 O -2.2714 -1.5957 1.7877 0
M  V30 10 C -2.8663 0.4616 0.6427 0
M  V30 11 C 3.8309 -0.6064 0.6441 0
M  V30 12 N -4.1026 -0.127 0.0906 0 CHG=1
M  V30 13 C 5.2402 -0.1256 0.8717 0
M  V30 14 C -5.1391 0.8966 -0.1799 0
M  V30 15 C 6.0801 -0.2317 -0.4065 0
M  V30 16 C -6.2148 0.3255 -1.1174 0
M  V30 17 C -5.806 1.3937 1.1166 0
M  V30 18 O 5.4972 0.5112 -1.462 0
M  V30 19 C 6.0518 1.8069 -1.5182 0
M  V30 20 H -1.0238 -0.4934 -1.1374 0
M  V30 21 H -2.0127 -1.9349 -0.7676 0
M  V30 22 H 2.0021 -3.4783 0.5748 0
M  V30 23 H 0.7681 0.5776 -0.2249 0
M  V30 24 H -0.9313 -0.0755 1.43 0
M  V30 25 H 4.2957 -2.6892 0.9933 0
M  V30 26 H 3.0429 1.3561 0.1927 0
M  V30 27 H -2.3579 -1.1847 2.6874 0
M  V30 28 H -2.4548 1.2195 -0.0611 0
M  V30 29 H -3.0824 0.9795 1.6007 0
M  V30 30 H -3.8619 -0.5992 -0.8108 0
M  V30 31 H -4.4814 -0.8488 0.7477 0
M  V30 32 H 5.7179 -0.7358 1.6689 0
M  V30 33 H 5.2346 0.9244 1.2348 0
M  V30 34 H -4.6844 1.7717 -0.6981 0
M  V30 35 H 6.1185 -1.2977 -0.717 0
M  V30 36 H 7.1348 0.0606 -0.1888 0
M  V30 37 H -6.9897 1.0923 -1.3318 0
M  V30 38 H -6.7011 -0.5608 -0.6563 0
M  V30 39 H -5.7597 0.0224 -2.084 0
M  V30 40 H -6.6415 2.0861 0.8782 0
M  V30 41 H -5.0873 1.958 1.7439 0
M  V30 42 H -6.2096 0.5409 1.7033 0
M  V30 43 H 7.1255 1.7649 -1.8053 0
M  V30 44 H 5.9283 2.3477 -0.5544 0
M  V30 45 H 5.5172 2.3865 -2.2982 0
M  V30 END ATOM
M  V30 BEGIN BOND
M  V30 1 1 1 2
M  V30 2 1 1 3
M  V30 3 2 2 4
M  V30 4 1 2 5
M  V30 5 1 3 6
M  V30 6 1 4 7
M  V30 7 2 5 8
M  V30 8 1 6 9
M  V30 9 1 6 10
M  V30 10 2 7 11
M  V30 11 1 10 12
M  V30 12 1 11 13
M  V30 13 1 12 14
M  V30 14 1 13 15
M  V30 15 1 14 16
M  V30 16 1 14 17
M  V30 17 1 15 18
M  V30 18 1 18 19
M  V30 19 1 8 11
M  V30 20 1 3 20
M  V30 21 1 3 21
M  V30 22 1 4 22
M  V30 23 1 5 23
M  V30 24 1 6 24
M  V30 25 1 7 25
M  V30 26 1 8 26
M  V30 27 1 9 27
M  V30 28 1 10 28
M  V30 29 1 10 29
M  V30 30 1 12 30
M  V30 31 1 12 31
M  V30 32 1 13 32
M  V30 33 1 13 33
M  V30 34 1 14 34
M  V30 35 1 15 35
M  V30 36 1 15 36
M  V30 37 1 16 37
M  V30 38 1 16 38
M  V30 39 1 16 39
M  V30 40 1 17 40
M  V30 41 1 17 41
M  V30 42 1 17 42
M  V30 43 1 19 43
M  V30 44 1 19 44
M  V30 45 1 19 45
M  V30 END BOND
M  V30 BEGIN COLLECTION
M  V30 MDLV30/STEABS ATOMS=(1 6)
M  V30 END COLLECTION
M  V30 END CTAB
M  END
>  <Structure No>
5103

>  <LogS>
-1.1992

>  <MMFF94 Energy>
67.232

$$$$
Compound 5104
Actelion Java MolfileCreator 2.0

  0  0  0  0  0  0              0 V3000
M  V30 BEGIN CTAB
M  V30 COUNTS 87 89 0 0 0
M  V30 BEGIN ATOM
M  V30 1 O -2.7718 1.4247 -3.0097 0
M  V30 2 C -2.8152 1.8628 -1.8131 0
M  V30 3 N -1.8055 1.4898 -0.8686 0
M  V30 4 C -3.971 2.7422 -1.3803 0 CFG=1
M  V30 5 C -0.6311 0.6967 -1.247 0 CFG=2
M  V30 6 O -4.5755 3.3183 -2.5005 0
M  V30 7 C -4.9937 1.8919 -0.6023 0
M  V30 8 C 0.0827 0.1937 0.0518 0 CFG=1
M  V30 9 C 0.3129 1.5541 -2.1267 0
M  V30 10 C -6.3158 2.6281 -0.3142 0
M  V30 11 O -0.2843 -1.1459 0.3653 0
M  V30 12 C 1.6248 0.2165 -0.0746 0 CFG=2
M  V30 13 C 1.102 2.4745 -1.1995 0 CFG=1
M  V30 14 N -6.1028 3.9005 0.3724 0 CHG=1
M  V30 15 C -1.537 -1.2309 1.0023 0 CFG=2
M  V30 16 O 2.1507 -0.1891 1.166 0
M  V30 17 C 2.1658 1.6488 -0.4286 0 CFG=2
M  V30 18 N 1.6596 3.6386 -1.8989 0 CHG=1
M  V30 19 O -1.442 -2.1786 2.0815 0
M  V30 20 C -2.6573 -1.5451 -0.0532 0 CFG=1
M  V30 21 O 3.3705 1.5698 -1.1966 0
M  V30 22 C -2.3594 -3.281 2.0046 0 CFG=2
M  V30 23 O -2.3969 -2.7153 -0.7955 0
M  V30 24 C -3.9734 -1.7131 0.7221 0 CFG=2
M  V30 25 C 4.3908 0.9313 -0.4244 0 CFG=1
M  V30 26 C -3.841 -2.8628 1.7442 0 CFG=2
M  V30 27 C -2.2581 -4.1089 3.2884 0
M  V30 28 N -5.111 -1.8985 -0.1849 0 CHG=1
M  V30 29 O 4.3739 -0.466 -0.6862 0
M  V30 30 C 5.7859 1.4671 -0.7991 0 CFG=1
M  V30 31 O -4.4558 -2.4899 2.9519 0
M  V30 32 O -3.119 -5.2221 3.1937 0
M  V30 33 C 5.1681 -1.1435 0.2596 0 CFG=2
M  V30 34 O 5.8178 2.8643 -0.6389 0
M  V30 35 C 6.8427 0.7936 0.1188 0 CFG=2
M  V30 36 C 6.6645 -0.7516 0.1069 0 CFG=2
M  V30 37 C 4.928 -2.6494 0.108 0
M  V30 38 O 6.7181 1.2558 1.4545 0
M  V30 39 O 7.2366 -1.3025 -1.0516 0
M  V30 40 N 5.3535 -3.3712 1.287 0 CHG=1
M  V30 41 H -1.9949 1.6976 0.1374 0
M  V30 42 H -3.5852 3.5364 -0.6942 0
M  V30 43 H -0.936 -0.1863 -1.8525 0
M  V30 44 H -4.521 4.2991 -2.3814 0
M  V30 45 H -4.5394 1.5858 0.3709 0
M  V30 46 H -5.2379 0.9825 -1.204 0
M  V30 47 H -0.0664 0.9441 0.8819 0
M  V30 48 H -0.2725 2.1327 -2.8737 0
M  V30 49 H 1.0033 0.8975 -2.7038 0
M  V30 50 H -6.9358 1.9583 0.3275 0
M  V30 51 H -6.8627 2.815 -1.2606 0
M  V30 52 H 1.8927 -0.5155 -0.8868 0
M  V30 53 H 0.3705 2.8436 -0.453 0
M  V30 54 H -5.8494 4.6384 -0.3213 0
M  V30 55 H -5.3457 3.8027 1.0871 0
M  V30 56 H -6.9985 4.1736 0.8505 0
M  V30 57 H -1.848 -0.2842 1.503 0
M  V30 58 H 2.3571 -1.1586 1.0619 0
M  V30 59 H 2.3433 2.2244 0.512 0
M  V30 60 H 2.194 3.3449 -2.7669 0
M  V30 61 H 0.8583 4.2509 -2.1881 0
M  V30 62 H 2.2778 4.1865 -1.2555 0
M  V30 63 H -2.7962 -0.7246 -0.7645 0
M  V30 64 H -2.0179 -3.9668 1.1978 0
M  V30 65 H -1.4544 -2.6757 -1.1272 0
M  V30 66 H -4.1311 -0.7696 1.2895 0
M  V30 67 H 4.2431 1.1429 0.6761 0
M  V30 68 H -4.3583 -3.7726 1.3384 0
M  V30 69 H -1.202 -4.4502 3.3751 0
M  V30 70 H -2.4745 -3.4699 4.193 0
M  V30 71 H -5.1143 -2.8491 -0.6068 0
M  V30 72 H -5.9913 -1.7623 0.376 0
M  V30 73 H -5.0635 -1.183 -0.9397 0
M  V30 74 H 5.9835 1.1841 -1.8501 0
M  V30 75 H -5.4373 -2.4158 2.7595 0
M  V30 76 H -3.6174 -5.2648 4.0639 0
M  V30 77 H 4.8555 -0.8531 1.2897 0
M  V30 78 H 5.6049 3.2558 -1.5356 0
M  V30 79 H 7.8595 1.0079 -0.2709 0
M  V30 80 H 7.1999 -1.1773 0.977 0
M  V30 81 H 3.8355 -2.8097 -0.0357 0
M  V30 82 H 5.4455 -3.0466 -0.7838 0
M  V30 83 H 7.4255 1.951 1.5672 0
M  V30 84 H 6.6386 -1.0964 -1.8149 0
M  V30 85 H 4.8908 -2.973 2.1442 0
M  V30 86 H 6.4101 -3.3092 1.3973 0
M  V30 87 H 5.0782 -4.3586 1.179 0
M  V30 END ATOM
M  V30 BEGIN BOND
M  V30 1 2 1 2
M  V30 2 1 2 3
M  V30 3 1 2 4
M  V30 4 1 3 5
M  V30 5 1 4 6
M  V30 6 1 4 7
M  V30 7 1 5 8
M  V30 8 1 5 9
M  V30 9 1 7 10
M  V30 10 1 8 11
M  V30 11 1 8 12
M  V30 12 1 9 13
M  V30 13 1 10 14
M  V30 14 1 11 15
M  V30 15 1 12 16
M  V30 16 1 12 17
M  V30 17 1 13 18
M  V30 18 1 15 19
M  V30 19 1 15 20
M  V30 20 1 17 21
M  V30 21 1 19 22
M  V30 22 1 20 23
M  V30 23 1 20 24
M  V30 24 1 21 25
M  V30 25 1 22 26
M  V30 26 1 22 27
M  V30 27 1 24 28
M  V30 28 1 25 29
M  V30 29 1 25 30
M  V30 30 1 26 31
M  V30 31 1 27 32
M  V30 32 1 29 33
M  V30 33 1 30 34
M  V30 34 1 30 35
M  V30 35 1 33 36
M  V30 36 1 33 37
M  V30 37 1 35 38
M  V30 38 1 36 39
M  V30 39 1 37 40
M  V30 40 1 13 17
M  V30 41 1 24 26
M  V30 42 1 35 36
M  V30 43 1 3 41
M  V30 44 1 4 42
M  V30 45 1 5 43
M  V30 46 1 6 44
M  V30 47 1 7 45
M  V30 48 1 7 46
M  V30 49 1 8 47
M  V30 50 1 9 48
M  V30 51 1 9 49
M  V30 52 1 10 50
M  V30 53 1 10 51
M  V30 54 1 12 52
M  V30 55 1 13 53
M  V30 56 1 14 54
M  V30 57 1 14 55
M  V30 58 1 14 56
M  V30 59 1 15 57
M  V30 60 1 16 58
M  V30 61 1 17 59
M  V30 62 1 18 60
M  V30 63 1 18 61
M  V30 64 1 18 62
M  V30 65 1 20 63
M  V30 66 1 22 64
M  V30 67 1 23 65
M  V30 68 1 24 66
M  V30 69 1 25 67
M  V30 70 1 26 68
M  V30 71 1 27 69
M  V30 72 1 27 70
M  V30 73 1 28 71
M  V30 74 1 28 72
M  V30 75 1 28 73
M  V30 76 1 30 74
M  V30 77 1 31 75
M  V30 78 1 32 76
M  V30 79 1 33 77
M  V30 80 1 34 78
M  V30 81 1 35 79
M  V30 82 1 36 80
M  V30 83 1 37 81
M  V30 84 1 37 82
M  V30 85 1 38 83
M  V30 86 1 39 84
M  V30 87 1 40 85
M  V30 88 1 40 86
M  V30 89 1 40 87
M  V30 END BOND
M  V30 BEGIN COLLECTION
M  V30 MDLV30/STEABS ATOMS=(16 4 5 8 12 13 15 17 20 22 24 25 26 30 33 35 36)
M  V30 END COLLECTION
M  V30 END CTAB
M  END
>  <Structure No>
5104

>  <LogS>
-0.5004

>  <MMFF94 Energy>
440.85

$$$$
Compound 5105
Actelion Java MolfileCreator 2.0

  0  0  0  0  0  0              0 V3000
M  V30 BEGIN CTAB
M  V30 COUNTS 26 26 0 0 0
M  V30 BEGIN ATOM
M  V30 1 O 2.1482 1.2725 1.9889 0
M  V30 2 C 2.1692 1.2757 0.7286 0
M  V30 3 N 1.6575 0.159 -0.0109 0
M  V30 4 N 2.7081 2.4015 0.0375 0
M  V30 5 C 1.139 -1.0479 0.6396 0 CFG=2
M  V30 6 C 2.2504 -2.0427 0.8041 0
M  V30 7 C -0.0014 -1.6626 -0.1896 0
M  V30 8 O 2.4412 -2.6004 1.9169 0
M  V30 9 O 3.0568 -2.3766 -0.2774 0 CHG=-1
M  V30 10 C -1.1775 -0.7238 -0.2806 0
M  V30 11 C -2.105 -0.6489 0.7722 0
M  V30 12 C -1.3309 0.1202 -1.3937 0
M  V30 13 C -3.178 0.2451 0.7038 0
M  V30 14 C -2.4052 1.0132 -1.4579 0
M  V30 15 C -3.3287 1.0746 -0.4106 0
M  V30 16 H 1.7778 0.1592 -1.0495 0
M  V30 17 H 2.7302 2.4234 -1.0059 0
M  V30 18 H 3.0836 3.2175 0.5699 0
M  V30 19 H 0.7339 -0.7914 1.6447 0
M  V30 20 H 0.3634 -1.9203 -1.2087 0
M  V30 21 H -0.3334 -2.6133 0.2839 0
M  V30 22 H -1.9946 -1.2805 1.645 0
M  V30 23 H -0.6189 0.0887 -2.2091 0
M  V30 24 H -3.8911 0.2972 1.5165 0
M  V30 25 H -2.5201 1.6596 -2.3182 0
M  V30 26 H -4.159 1.7672 -0.4614 0
M  V30 END ATOM
M  V30 BEGIN BOND
M  V30 1 2 1 2
M  V30 2 1 2 3
M  V30 3 1 2 4
M  V30 4 1 3 5
M  V30 5 1 5 6
M  V30 6 1 5 7
M  V30 7 2 6 8
M  V30 8 1 6 9
M  V30 9 1 7 10
M  V30 10 2 10 11
M  V30 11 1 10 12
M  V30 12 1 11 13
M  V30 13 2 12 14
M  V30 14 2 13 15
M  V30 15 1 14 15
M  V30 16 1 3 16
M  V30 17 1 4 17
M  V30 18 1 4 18
M  V30 19 1 5 19
M  V30 20 1 7 20
M  V30 21 1 7 21
M  V30 22 1 11 22
M  V30 23 1 12 23
M  V30 24 1 13 24
M  V30 25 1 14 25
M  V30 26 1 15 26
M  V30 END BOND
M  V30 BEGIN COLLECTION
M  V30 MDLV30/STEABS ATOMS=(1 5)
M  V30 END COLLECTION
M  V30 END CTAB
M  END
>  <Structure No>
5105

>  <LogS>
-2.0958

>  <MMFF94 Energy>
-30.372

$$$$
Compound 5106
Actelion Java MolfileCreator 2.0

  0  0  0  0  0  0              0 V3000
M  V30 BEGIN CTAB
M  V30 COUNTS 16 17 0 0 0
M  V30 BEGIN ATOM
M  V30 1 O 1.3631 2.8884 0.0 0
M  V30 2 C 1.3358 1.6292 0.022 0
M  V30 3 N 2.4988 0.9318 0.1006 0
M  V30 4 C 0.1199 0.9416 -0.0337 0
M  V30 5 C 2.5055 -0.4273 0.1265 0
M  V30 6 N -1.067 1.6041 -0.1129 0
M  V30 7 C 0.1444 -0.466 -0.0059 0
M  V30 8 N 1.3364 -1.1213 0.0735 0
M  V30 9 C -2.251 0.9367 -0.1673 0
M  V30 10 C -1.0682 -1.1655 -0.0613 0
M  V30 11 C -2.2718 -0.4608 -0.1423 0
M  V30 12 H 3.4474 -0.9565 0.1895 0
M  V30 13 H 1.3671 -2.166 0.0947 0
M  V30 14 H -3.1779 1.4912 -0.2299 0
M  V30 15 H -1.0818 -2.2482 -0.0417 0
M  V30 16 H -3.2134 -0.9928 -0.1855 0
M  V30 END ATOM
M  V30 BEGIN BOND
M  V30 1 2 1 2
M  V30 2 1 2 3
M  V30 3 1 2 4
M  V30 4 2 3 5
M  V30 5 2 4 6
M  V30 6 1 4 7
M  V30 7 1 5 8
M  V30 8 1 6 9
M  V30 9 2 7 10
M  V30 10 2 9 11
M  V30 11 1 7 8
M  V30 12 1 10 11
M  V30 13 1 5 12
M  V30 14 1 8 13
M  V30 15 1 9 14
M  V30 16 1 10 15
M  V30 17 1 11 16
M  V30 END BOND
M  V30 END CTAB
M  END
>  <Structure No>
5106

>  <LogS>
-2.0656

>  <MMFF94 Energy>
60.569

$$$$
Compound 5107
Actelion Java MolfileCreator 2.0

  0  0  0  0  0  0              0 V3000
M  V30 BEGIN CTAB
M  V30 COUNTS 22 23 0 0 0
M  V30 BEGIN ATOM
M  V30 1 Cl -0.5925 1.016 2.6261 0
M  V30 2 C -1.4421 0.6745 1.1216 0
M  V30 3 C -0.7783 0.1444 -0.0081 0
M  V30 4 C -2.8252 0.8924 1.0784 0
M  V30 5 C 0.6833 -0.0892 -0.014 0
M  V30 6 C -1.5264 -0.1723 -1.1559 0
M  V30 7 C -3.5534 0.5844 -0.0726 0
M  V30 8 C 1.576 0.9662 0.2377 0
M  V30 9 C 1.1925 -1.3649 -0.3097 0
M  V30 10 C -2.9055 0.0497 -1.187 0
M  V30 11 C 2.9571 0.7433 0.2153 0
M  V30 12 C 2.5739 -1.5856 -0.3319 0
M  V30 13 Cl 4.064 2.0658 0.5361 0
M  V30 14 C 3.4552 -0.5324 -0.0674 0
M  V30 15 Cl 3.2007 -3.1839 -0.6923 0
M  V30 16 H -3.3398 1.2933 1.9427 0
M  V30 17 H -1.0385 -0.58 -2.033 0
M  V30 18 H -4.6221 0.7545 -0.0983 0
M  V30 19 H 1.1995 1.9616 0.441 0
M  V30 20 H 0.5167 -2.187 -0.513 0
M  V30 21 H -3.472 -0.1914 -2.0772 0
M  V30 22 H 4.5242 -0.704 -0.0851 0
M  V30 END ATOM
M  V30 BEGIN BOND
M  V30 1 1 1 2
M  V30 2 2 2 3
M  V30 3 1 2 4
M  V30 4 1 3 5
M  V30 5 1 3 6
M  V30 6 2 4 7
M  V30 7 2 5 8
M  V30 8 1 5 9
M  V30 9 2 6 10
M  V30 10 1 8 11
M  V30 11 2 9 12
M  V30 12 1 11 13
M  V30 13 2 11 14
M  V30 14 1 12 15
M  V30 15 1 7 10
M  V30 16 1 12 14
M  V30 17 1 4 16
M  V30 18 1 6 17
M  V30 19 1 7 18
M  V30 20 1 8 19
M  V30 21 1 9 20
M  V30 22 1 10 21
M  V30 23 1 14 22
M  V30 END BOND
M  V30 END CTAB
M  END
>  <Structure No>
5107

>  <LogS>
-6.2999

>  <MMFF94 Energy>
30.738

$$$$
Compound 5108
Actelion Java MolfileCreator 2.0

  0  0  0  0  0  0              0 V3000
M  V30 BEGIN CTAB
M  V30 COUNTS 23 22 0 0 0
M  V30 BEGIN ATOM
M  V30 1 Cl 0.2426 -2.996 2.5907 0
M  V30 2 C -0.0617 -2.469 0.9134 0
M  V30 3 Cl -0.9172 -3.7649 0.0441 0
M  V30 4 C -0.8918 -1.2104 0.883 0
M  V30 5 O -1.7786 -1.0571 1.7683 0
M  V30 6 N -0.7555 -0.2183 -0.1657 0
M  V30 7 C 0.178 -0.4065 -1.288 0
M  V30 8 C -1.6061 0.9831 -0.1321 0
M  V30 9 C 1.5808 -0.0621 -0.872 0
M  V30 10 C -1.1985 1.8901 0.9951 0
M  V30 11 C 2.5955 -0.1525 -1.7343 0
M  V30 12 C -0.0774 2.6134 0.9403 0
M  V30 13 H 0.9279 -2.3144 0.443 0
M  V30 14 H 0.1289 -1.4536 -1.6555 0
M  V30 15 H -0.1029 0.2405 -2.1466 0
M  V30 16 H -2.6671 0.6807 0.0024 0
M  V30 17 H -1.5576 1.5493 -1.0875 0
M  V30 18 H 1.7807 0.2579 0.1468 0
M  V30 19 H -1.836 1.9639 1.8712 0
M  V30 20 H 3.6025 0.0959 -1.4158 0
M  V30 21 H 2.4302 -0.4736 -2.7583 0
M  V30 22 H 0.5723 2.5721 0.0718 0
M  V30 23 H 0.1918 3.261 1.7682 0
M  V30 END ATOM
M  V30 BEGIN BOND
M  V30 1 1 1 2
M  V30 2 1 2 3
M  V30 3 1 2 4
M  V30 4 2 4 5
M  V30 5 1 4 6
M  V30 6 1 6 7
M  V30 7 1 6 8
M  V30 8 1 7 9
M  V30 9 1 8 10
M  V30 10 2 9 11
M  V30 11 2 10 12
M  V30 12 1 2 13
M  V30 13 1 7 14
M  V30 14 1 7 15
M  V30 15 1 8 16
M  V30 16 1 8 17
M  V30 17 1 9 18
M  V30 18 1 10 19
M  V30 19 1 11 20
M  V30 20 1 11 21
M  V30 21 1 12 22
M  V30 22 1 12 23
M  V30 END BOND
M  V30 END CTAB
M  END
>  <Structure No>
5108

>  <LogS>
-1.6193

>  <MMFF94 Energy>
35.193

$$$$
Compound 5109
Actelion Java MolfileCreator 2.0

  0  0  0  0  0  0              0 V3000
M  V30 BEGIN CTAB
M  V30 COUNTS 13 12 0 0 0
M  V30 BEGIN ATOM
M  V30 1 Cl -1.3832 0.0813 1.9532 0
M  V30 2 C -0.8942 0.9589 0.4752 0
M  V30 3 C 0.2281 0.2469 -0.297 0 CFG=1
M  V30 4 N 1.4302 0.1237 0.5306 0 CHG=1
M  V30 5 C -0.2157 -1.1207 -0.831 0
M  V30 6 O 2.2542 1.0606 0.5643 0
M  V30 7 O 1.5678 -0.9188 1.4188 0 CHG=-1
M  V30 8 H -0.5526 1.9742 0.7692 0
M  V30 9 H -1.7847 1.0766 -0.1783 0
M  V30 10 H 0.4727 0.8756 -1.1826 0
M  V30 11 H -1.0936 -1.0019 -1.5013 0
M  V30 12 H -0.4894 -1.8076 -0.0028 0
M  V30 13 H 0.6094 -1.581 -1.415 0
M  V30 END ATOM
M  V30 BEGIN BOND
M  V30 1 1 1 2
M  V30 2 1 2 3
M  V30 3 1 3 4
M  V30 4 1 3 5
M  V30 5 2 4 6
M  V30 6 1 4 7
M  V30 7 1 2 8
M  V30 8 1 2 9
M  V30 9 1 3 10
M  V30 10 1 5 11
M  V30 11 1 5 12
M  V30 12 1 5 13
M  V30 END BOND
M  V30 BEGIN COLLECTION
M  V30 MDLV30/STEABS ATOMS=(1 3)
M  V30 END COLLECTION
M  V30 END CTAB
M  END
>  <Structure No>
5109

>  <LogS>
-1.1887

>  <MMFF94 Energy>
-9.9275

$$$$
Compound 5110
Actelion Java MolfileCreator 2.0

  0  0  0  0  0  0              0 V3000
M  V30 BEGIN CTAB
M  V30 COUNTS 22 24 0 0 0
M  V30 BEGIN ATOM
M  V30 1 Cl 5.1458 -1.4952 0.8408 0
M  V30 2 C 3.6481 -0.6963 0.3587 0
M  V30 3 C 3.6913 0.4836 -0.4103 0
M  V30 4 C 2.4081 -1.2387 0.7431 0
M  V30 5 Cl 5.2433 1.1688 -0.8954 0
M  V30 6 C 2.4942 1.117 -0.7922 0
M  V30 7 Cl 2.3227 -2.7126 1.7047 0
M  V30 8 C 1.2209 -0.6039 0.36 0
M  V30 9 Cl 2.5173 2.5933 -1.7537 0
M  V30 10 C 1.2638 0.5722 -0.4065 0
M  V30 11 O -0.0212 -1.1327 0.7356 0
M  V30 12 O 0.0631 1.1916 -0.7794 0
M  V30 13 C -1.2214 -0.5138 0.3631 0
M  V30 14 C -1.1759 0.6612 -0.4027 0
M  V30 15 C -2.4553 -1.0563 0.7474 0
M  V30 16 C -2.3594 1.2943 -0.7848 0
M  V30 17 Cl -2.4851 -2.532 1.7087 0
M  V30 18 C -3.6504 -0.4181 0.3622 0
M  V30 19 C -3.5963 0.7606 -0.4062 0
M  V30 20 Cl -5.2088 -1.0916 0.84 0
M  V30 21 Cl -5.0632 1.591 -0.9096 0
M  V30 22 H -2.3165 2.2006 -1.3757 0
M  V30 END ATOM
M  V30 BEGIN BOND
M  V30 1 1 1 2
M  V30 2 2 2 3
M  V30 3 1 2 4
M  V30 4 1 3 5
M  V30 5 1 3 6
M  V30 6 1 4 7
M  V30 7 2 4 8
M  V30 8 1 6 9
M  V30 9 2 6 10
M  V30 10 1 8 11
M  V30 11 1 10 12
M  V30 12 1 11 13
M  V30 13 1 12 14
M  V30 14 1 13 15
M  V30 15 1 14 16
M  V30 16 1 15 17
M  V30 17 2 15 18
M  V30 18 2 16 19
M  V30 19 1 18 20
M  V30 20 1 19 21
M  V30 21 1 8 10
M  V30 22 2 13 14
M  V30 23 1 18 19
M  V30 24 1 16 22
M  V30 END BOND
M  V30 END CTAB
M  END
>  <Structure No>
5110

>  <LogS>
-11.4795

>  <MMFF94 Energy>
70.127

$$$$
Compound 5111
Actelion Java MolfileCreator 2.0

  0  0  0  0  0  0              0 V3000
M  V30 BEGIN CTAB
M  V30 COUNTS 35 36 0 0 0
M  V30 BEGIN ATOM
M  V30 1 S 2.5505 -0.7646 1.0196 0
M  V30 2 O 3.3661 -0.0224 2.0418 0
M  V30 3 O 2.8414 -2.2323 1.1666 0
M  V30 4 C 0.8371 -0.4647 1.2819 0
M  V30 5 C 2.982 -0.2253 -0.598 0
M  V30 6 C -0.111 -1.4113 0.8741 0
M  V30 7 C 0.413 0.7353 1.8629 0
M  V30 8 C 2.8704 -1.1025 -1.6863 0
M  V30 9 C 3.4022 1.0953 -0.8124 0
M  V30 10 C -1.4834 -1.1742 1.0585 0
M  V30 11 C -0.9488 0.9889 2.0341 0
M  V30 12 C 3.1915 -0.6658 -2.9755 0
M  V30 13 C 3.7227 1.5292 -2.1027 0
M  V30 14 C -1.9027 0.054 1.616 0
M  V30 15 C -2.4736 -2.2159 0.618 0
M  V30 16 C 3.619 0.6487 -3.1834 0
M  V30 17 N -3.2879 0.3674 1.7788 0 CHG=-1
M  V30 18 S -4.3008 0.8054 0.4427 0
M  V30 19 O -5.0118 -0.4106 -0.0793 0
M  V30 20 O -5.3167 1.8069 0.9144 0
M  V30 21 C -3.3393 1.5491 -0.8625 0
M  V30 22 F -2.6171 2.6134 -0.3574 0
M  V30 23 F -2.4703 0.6168 -1.396 0
M  V30 24 F -4.1851 2.0027 -1.8566 0
M  V30 25 H 0.2202 -2.3341 0.4133 0
M  V30 26 H 1.1346 1.4807 2.172 0
M  V30 27 H 2.5313 -2.1197 -1.5383 0
M  V30 28 H 3.477 1.7886 0.0157 0
M  V30 29 H -1.2654 1.9267 2.4734 0
M  V30 30 H 3.1059 -1.3454 -3.8134 0
M  V30 31 H 4.0484 2.5485 -2.265 0
M  V30 32 H -3.3544 -2.2331 1.2936 0
M  V30 33 H -2.8043 -1.9991 -0.4184 0
M  V30 34 H -2.0178 -3.2287 0.6406 0
M  V30 35 H 3.866 0.986 -4.1817 0
M  V30 END ATOM
M  V30 BEGIN BOND
M  V30 1 2 1 2
M  V30 2 2 1 3
M  V30 3 1 1 4
M  V30 4 1 1 5
M  V30 5 2 4 6
M  V30 6 1 4 7
M  V30 7 2 5 8
M  V30 8 1 5 9
M  V30 9 1 6 10
M  V30 10 2 7 11
M  V30 11 1 8 12
M  V30 12 2 9 13
M  V30 13 2 10 14
M  V30 14 1 10 15
M  V30 15 2 12 16
M  V30 16 1 14 17
M  V30 17 1 17 18
M  V30 18 2 18 19
M  V30 19 2 18 20
M  V30 20 1 18 21
M  V30 21 1 21 22
M  V30 22 1 21 23
M  V30 23 1 21 24
M  V30 24 1 11 14
M  V30 25 1 13 16
M  V30 26 1 6 25
M  V30 27 1 7 26
M  V30 28 1 8 27
M  V30 29 1 9 28
M  V30 30 1 11 29
M  V30 31 1 12 30
M  V30 32 1 13 31
M  V30 33 1 15 32
M  V30 34 1 15 33
M  V30 35 1 15 34
M  V30 36 1 16 35
M  V30 END BOND
M  V30 END CTAB
M  END
>  <Structure No>
5111

>  <LogS>
-3.8009

>  <MMFF94 Energy>
236.57

$$$$
Compound 5112
Actelion Java MolfileCreator 2.0

  0  0  0  0  0  0              0 V3000
M  V30 BEGIN CTAB
M  V30 COUNTS 21 21 0 0 0
M  V30 BEGIN ATOM
M  V30 1 S -4.9882 -0.8032 -1.3658 0
M  V30 2 C -3.4305 -0.6181 -0.8886 0
M  V30 3 N -2.7794 0.5526 -1.1278 0
M  V30 4 N -2.7885 -1.6349 -0.2535 0
M  V30 5 C -1.4864 0.7306 -0.7416 0
M  V30 6 C -1.4984 -1.5019 0.1498 0
M  V30 7 O -0.9189 1.8304 -0.9833 0
M  V30 8 C -0.7987 -0.3075 -0.081 0
M  V30 9 C 0.6128 -0.1715 0.3637 0
M  V30 10 O 1.1845 -1.1369 0.9425 0
M  V30 11 O 1.3103 1.0246 0.151 0
M  V30 12 C 2.6808 1.2111 0.4997 0
M  V30 13 C 3.5908 0.5111 -0.5029 0
M  V30 14 H -3.2768 1.3324 -1.617 0
M  V30 15 H -3.2846 -2.5361 -0.0677 0
M  V30 16 H -1.0187 -2.3327 0.6529 0
M  V30 17 H 2.9041 2.2987 0.4846 0
M  V30 18 H 2.8748 0.8338 1.5274 0
M  V30 19 H 3.4223 -0.5856 -0.4796 0
M  V30 20 H 3.3872 0.8894 -1.527 0
M  V30 21 H 4.6523 0.7141 -0.2485 0
M  V30 END ATOM
M  V30 BEGIN BOND
M  V30 1 2 1 2
M  V30 2 1 2 3
M  V30 3 1 2 4
M  V30 4 1 3 5
M  V30 5 1 4 6
M  V30 6 2 5 7
M  V30 7 1 5 8
M  V30 8 1 8 9
M  V30 9 2 9 10
M  V30 10 1 9 11
M  V30 11 1 11 12
M  V30 12 1 12 13
M  V30 13 2 6 8
M  V30 14 1 3 14
M  V30 15 1 4 15
M  V30 16 1 6 16
M  V30 17 1 12 17
M  V30 18 1 12 18
M  V30 19 1 13 19
M  V30 20 1 13 20
M  V30 21 1 13 21
M  V30 END BOND
M  V30 END CTAB
M  END
>  <Structure No>
5112

>  <LogS>
-2.0985

>  <MMFF94 Energy>
-71.099

$$$$
Compound 5113
Actelion Java MolfileCreator 2.0

  0  0  0  0  0  0              0 V3000
M  V30 BEGIN CTAB
M  V30 COUNTS 39 38 0 0 0
M  V30 BEGIN ATOM
M  V30 1 O 1.7259 -4.5551 0.7842 0
M  V30 2 C 1.1714 -3.5054 1.2041 0
M  V30 3 O 0.3557 -3.5648 2.3281 0 CHG=-1
M  V30 4 C 1.3822 -2.201 0.4888 0 CFG=1
M  V30 5 N 0.0992 -1.7322 -0.0441 0
M  V30 6 C 1.9753 -1.1574 1.454 0
M  V30 7 C -0.0356 -1.1281 -1.3395 0
M  V30 8 C 2.5053 0.0773 0.7139 0
M  V30 9 O 0.9652 -1.029 -2.1012 0
M  V30 10 C -1.3659 -0.5557 -1.7731 0 CFG=2
M  V30 11 C 3.0472 1.0795 1.6871 0
M  V30 12 N -1.6216 -0.8723 -3.1845 0 CHG=1
M  V30 13 C -1.4018 0.9756 -1.5522 0
M  V30 14 O 4.2782 1.0927 1.954 0
M  V30 15 N 2.1695 1.9922 2.3461 0
M  V30 16 C -1.4129 1.4001 -0.0616 0
M  V30 17 C -1.0668 2.8894 0.0632 0
M  V30 18 C -2.7713 1.1256 0.6013 0
M  V30 19 H 2.1035 -2.3786 -0.34 0
M  V30 20 H -0.7287 -1.7223 0.5946 0
M  V30 21 H 2.8195 -1.616 2.0164 0
M  V30 22 H 1.1999 -0.8487 2.1906 0
M  V30 23 H 3.3089 -0.2247 0.0074 0
M  V30 24 H 1.697 0.5551 0.124 0
M  V30 25 H -2.1708 -1.0331 -1.1749 0
M  V30 26 H -1.5592 -1.9058 -3.3349 0
M  V30 27 H -2.5861 -0.5633 -3.4465 0
M  V30 28 H -0.9307 -0.3906 -3.8055 0
M  V30 29 H -0.5164 1.4204 -2.0594 0
M  V30 30 H -2.3002 1.4002 -2.0523 0
M  V30 31 H 1.1432 1.975 2.156 0
M  V30 32 H 2.546 2.6837 3.0319 0
M  V30 33 H -0.6378 0.8361 0.4965 0
M  V30 34 H -1.807 3.5109 -0.4854 0
M  V30 35 H -0.0547 3.0838 -0.3516 0
M  V30 36 H -1.0607 3.1966 1.1309 0
M  V30 37 H -2.9801 0.0376 0.6407 0
M  V30 38 H -2.7686 1.4974 1.6483 0
M  V30 39 H -3.5897 1.6328 0.0468 0
M  V30 END ATOM
M  V30 BEGIN BOND
M  V30 1 2 1 2
M  V30 2 1 2 3
M  V30 3 1 2 4
M  V30 4 1 4 5
M  V30 5 1 4 6
M  V30 6 1 5 7
M  V30 7 1 6 8
M  V30 8 2 7 9
M  V30 9 1 7 10
M  V30 10 1 8 11
M  V30 11 1 10 12
M  V30 12 1 10 13
M  V30 13 2 11 14
M  V30 14 1 11 15
M  V30 15 1 13 16
M  V30 16 1 16 17
M  V30 17 1 16 18
M  V30 18 1 4 19
M  V30 19 1 5 20
M  V30 20 1 6 21
M  V30 21 1 6 22
M  V30 22 1 8 23
M  V30 23 1 8 24
M  V30 24 1 10 25
M  V30 25 1 12 26
M  V30 26 1 12 27
M  V30 27 1 12 28
M  V30 28 1 13 29
M  V30 29 1 13 30
M  V30 30 1 15 31
M  V30 31 1 15 32
M  V30 32 1 16 33
M  V30 33 1 17 34
M  V30 34 1 17 35
M  V30 35 1 17 36
M  V30 36 1 18 37
M  V30 37 1 18 38
M  V30 38 1 18 39
M  V30 END BOND
M  V30 BEGIN COLLECTION
M  V30 MDLV30/STEABS ATOMS=(2 4 10)
M  V30 END COLLECTION
M  V30 END CTAB
M  END
>  <Structure No>
5113

>  <LogS>
-1.5687

>  <MMFF94 Energy>
-23.009

$$$$
Compound 5114
Actelion Java MolfileCreator 2.0

  0  0  0  0  0  0              0 V3000
M  V30 BEGIN CTAB
M  V30 COUNTS 39 40 0 0 0
M  V30 BEGIN ATOM
M  V30 1 O 1.1246 2.8937 -0.8835 0
M  V30 2 C 1.0204 1.7162 -0.4454 0
M  V30 3 N -0.0454 0.8789 -0.903 0
M  V30 4 C 2.0551 1.142 0.4873 0 CFG=1
M  V30 5 C -0.1918 -0.5162 -0.4586 0 CFG=1
M  V30 6 O 2.6561 2.1809 1.2274 0
M  V30 7 N 1.3857 0.2318 1.4153 0
M  V30 8 C 3.0945 0.3393 -0.2974 0
M  V30 9 O 0.4215 -1.3539 -1.4455 0
M  V30 10 C 0.4079 -0.6987 0.9366 0
M  V30 11 C -1.7201 -0.8857 -0.4525 0 CFG=1
M  V30 12 C 4.2963 0.0887 0.2536 0
M  V30 13 C 2.709 -0.3879 -1.5785 0
M  V30 14 C 1.8145 -1.6101 -1.2953 0
M  V30 15 O 0.1412 -1.7221 1.623 0
M  V30 16 O -1.8461 -2.2843 -0.3259 0
M  V30 17 C -2.6603 -0.2083 0.6158 0 CFG=1
M  V30 18 O -2.3505 -0.7087 1.8961 0
M  V30 19 C -2.5735 1.3418 0.6199 0
M  V30 20 C -4.1201 -0.6035 0.2817 0
M  V30 21 O -1.4498 1.7759 1.3357 0
M  V30 22 H -0.6087 1.2151 -1.7169 0
M  V30 23 H 3.2051 2.7246 0.6024 0
M  V30 24 H 1.7794 0.1004 2.3747 0
M  V30 25 H -2.1171 -0.5837 -1.4535 0
M  V30 26 H 5.0202 -0.5501 -0.2428 0
M  V30 27 H 4.5732 0.507 1.2162 0
M  V30 28 H 2.2124 0.2988 -2.2952 0
M  V30 29 H 3.6277 -0.7354 -2.1016 0
M  V30 30 H 2.0593 -2.0983 -0.3273 0
M  V30 31 H 2.0702 -2.3788 -2.0549 0
M  V30 32 H -1.7992 -2.6753 -1.2375 0
M  V30 33 H -2.9576 -0.2773 2.5539 0
M  V30 34 H -2.5518 1.7322 -0.4213 0
M  V30 35 H -3.4767 1.7702 1.1113 0
M  V30 36 H -4.8279 -0.1702 1.0212 0
M  V30 37 H -4.4062 -0.2369 -0.7278 0
M  V30 38 H -4.248 -1.7064 0.309 0
M  V30 39 H -1.4324 2.7646 1.2515 0
M  V30 END ATOM
M  V30 BEGIN BOND
M  V30 1 2 1 2
M  V30 2 1 2 3
M  V30 3 1 2 4
M  V30 4 1 3 5
M  V30 5 1 4 6
M  V30 6 1 4 7
M  V30 7 1 4 8
M  V30 8 1 5 9
M  V30 9 1 5 10
M  V30 10 1 5 11
M  V30 11 2 8 12
M  V30 12 1 8 13
M  V30 13 1 9 14
M  V30 14 2 10 15
M  V30 15 1 11 16
M  V30 16 1 11 17
M  V30 17 1 17 18
M  V30 18 1 17 19
M  V30 19 1 17 20
M  V30 20 1 19 21
M  V30 21 1 7 10
M  V30 22 1 13 14
M  V30 23 1 3 22
M  V30 24 1 6 23
M  V30 25 1 7 24
M  V30 26 1 11 25
M  V30 27 1 12 26
M  V30 28 1 12 27
M  V30 29 1 13 28
M  V30 30 1 13 29
M  V30 31 1 14 30
M  V30 32 1 14 31
M  V30 33 1 16 32
M  V30 34 1 18 33
M  V30 35 1 19 34
M  V30 36 1 19 35
M  V30 37 1 20 36
M  V30 38 1 20 37
M  V30 39 1 20 38
M  V30 40 1 21 39
M  V30 END BOND
M  V30 BEGIN COLLECTION
M  V30 MDLV30/STEABS ATOMS=(4 4 5 11 17)
M  V30 END COLLECTION
M  V30 END CTAB
M  END
>  <Structure No>
5114

>  <LogS>
-0.1971

>  <MMFF94 Energy>
160

$$$$
Compound 5115
Actelion Java MolfileCreator 2.0

  0  0  0  0  0  0              0 V3000
M  V30 BEGIN CTAB
M  V30 COUNTS 31 32 0 0 0
M  V30 BEGIN ATOM
M  V30 1 O -4.5731 0.7873 0.0 0
M  V30 2 N -3.2198 0.4977 0.01 0
M  V30 3 C -2.3523 1.4276 0.5248 0
M  V30 4 C -2.7333 -0.6741 -0.518 0
M  V30 5 N -1.0126 1.2028 0.4825 0
M  V30 6 N -2.7882 2.5358 1.0479 0 CHG=1
M  V30 7 N -3.6082 -1.708 -0.9914 0
M  V30 8 C -1.3527 -0.8919 -0.5736 0
M  V30 9 C -0.4846 0.0738 -0.0547 0
M  V30 10 N 0.9487 -0.1077 -0.0774 0
M  V30 11 C 1.5321 -1.4601 -0.1264 0
M  V30 12 C 1.8332 1.0594 0.0649 0
M  V30 13 C 2.9849 -1.4613 0.3618 0
M  V30 14 C 3.1093 0.8584 -0.758 0
M  V30 15 C 3.8494 -0.4478 -0.405 0
M  V30 16 H -5.254 0.2459 -0.5138 0
M  V30 17 H -2.1172 3.2388 1.4325 0
M  V30 18 H -3.805 2.7646 1.1084 0
M  V30 19 H -4.6082 -1.7695 -0.7057 0
M  V30 20 H -3.2222 -2.5212 -1.5211 0
M  V30 21 H -0.9714 -1.8056 -1.0099 0
M  V30 22 H 1.4887 -1.8431 -1.1687 0
M  V30 23 H 0.9513 -2.1451 0.5293 0
M  V30 24 H 1.3291 1.9805 -0.301 0
M  V30 25 H 2.0885 1.2036 1.1371 0
M  V30 26 H 3.416 -2.4795 0.2502 0
M  V30 27 H 2.9983 -1.2071 1.4445 0
M  V30 28 H 3.787 1.7265 -0.6072 0
M  V30 29 H 2.8296 0.8372 -1.8344 0
M  V30 30 H 4.2143 -0.9186 -1.3439 0
M  V30 31 H 4.7441 -0.2109 0.2108 0
M  V30 END ATOM
M  V30 BEGIN BOND
M  V30 1 1 1 2
M  V30 2 1 2 3
M  V30 3 1 2 4
M  V30 4 1 3 5
M  V30 5 2 3 6
M  V30 6 1 4 7
M  V30 7 2 4 8
M  V30 8 2 5 9
M  V30 9 1 9 10
M  V30 10 1 10 11
M  V30 11 1 10 12
M  V30 12 1 11 13
M  V30 13 1 12 14
M  V30 14 1 13 15
M  V30 15 1 8 9
M  V30 16 1 14 15
M  V30 17 1 1 16
M  V30 18 1 6 17
M  V30 19 1 6 18
M  V30 20 1 7 19
M  V30 21 1 7 20
M  V30 22 1 8 21
M  V30 23 1 11 22
M  V30 24 1 11 23
M  V30 25 1 12 24
M  V30 26 1 12 25
M  V30 27 1 13 26
M  V30 28 1 13 27
M  V30 29 1 14 28
M  V30 30 1 14 29
M  V30 31 1 15 30
M  V30 32 1 15 31
M  V30 END BOND
M  V30 END CTAB
M  END
>  <Structure No>
5115

>  <LogS>
-1.9782

>  <MMFF94 Energy>
-114.3

$$$$
Compound 5116
Actelion Java MolfileCreator 2.0

  0  0  0  0  0  0              0 V3000
M  V30 BEGIN CTAB
M  V30 COUNTS 51 52 0 0 0
M  V30 BEGIN ATOM
M  V30 1 O -0.7085 2.2845 -0.7873 0
M  V30 2 C -1.5469 1.354 -1.4255 0
M  V30 3 C 0.459 2.8795 -1.3561 0
M  V30 4 C -2.389 0.5336 -0.6386 0
M  V30 5 C -1.5691 1.2234 -2.8288 0
M  V30 6 C 1.5634 1.8314 -1.5876 0 CFG=1
M  V30 7 C -3.2255 -0.4039 -1.2773 0
M  V30 8 C -2.3771 0.6269 0.8828 0
M  V30 9 C -2.4074 0.2908 -3.441 0
M  V30 10 O 2.7001 2.4623 -2.1181 0
M  V30 11 C 1.9396 1.1228 -0.2699 0
M  V30 12 C -3.2333 -0.5215 -2.6672 0
M  V30 13 C -3.743 1.0346 1.4536 0
M  V30 14 C -1.9992 -0.7059 1.5502 0
M  V30 15 N 2.9109 0.0351 -0.5095 0 CHG=1
M  V30 16 C -3.9636 0.1555 2.6727 0
M  V30 17 C -3.1972 -1.1228 2.3904 0
M  V30 18 C 3.2856 -0.7581 0.6959 0
M  V30 19 C 4.3121 -1.833 0.2704 0
M  V30 20 C 3.9449 0.1317 1.7757 0
M  V30 21 C 2.0595 -1.4828 1.3023 0
M  V30 22 H 0.2054 3.4026 -2.3022 0
M  V30 23 H 0.8345 3.6518 -0.6512 0
M  V30 24 H -0.9464 1.8417 -3.4587 0
M  V30 25 H 1.1921 1.0645 -2.3055 0
M  V30 26 H -3.8706 -1.0502 -0.6952 0
M  V30 27 H -1.6382 1.3853 1.2225 0
M  V30 28 H -2.4166 0.1984 -4.5194 0
M  V30 29 H 2.5063 2.6456 -3.0746 0
M  V30 30 H 2.365 1.8807 0.4222 0
M  V30 31 H 1.0126 0.7111 0.1795 0
M  V30 32 H -3.8806 -1.2456 -3.145 0
M  V30 33 H -4.5669 0.8577 0.7277 0
M  V30 34 H -3.7553 2.1101 1.7363 0
M  V30 35 H -1.7351 -1.5026 0.8203 0
M  V30 36 H -1.1226 -0.5531 2.218 0
M  V30 37 H 3.7788 0.4544 -0.92 0
M  V30 38 H 2.5077 -0.6138 -1.2268 0
M  V30 39 H -5.0438 -0.0476 2.8395 0
M  V30 40 H -3.5392 0.6523 3.5734 0
M  V30 41 H -3.8392 -1.8189 1.8065 0
M  V30 42 H -2.881 -1.6207 3.3327 0
M  V30 43 H 3.8743 -2.5079 -0.4964 0
M  V30 44 H 4.6273 -2.4525 1.1382 0
M  V30 45 H 5.2186 -1.3575 -0.1623 0
M  V30 46 H 4.3655 -0.492 2.5939 0
M  V30 47 H 4.7689 0.733 1.3352 0
M  V30 48 H 3.2084 0.8213 2.2385 0
M  V30 49 H 1.3752 -0.771 1.8082 0
M  V30 50 H 2.3795 -2.2204 2.0697 0
M  V30 51 H 1.494 -2.0229 0.5129 0
M  V30 END ATOM
M  V30 BEGIN BOND
M  V30 1 1 1 2
M  V30 2 1 1 3
M  V30 3 2 2 4
M  V30 4 1 2 5
M  V30 5 1 3 6
M  V30 6 1 4 7
M  V30 7 1 4 8
M  V30 8 2 5 9
M  V30 9 1 6 10
M  V30 10 1 6 11
M  V30 11 2 7 12
M  V30 12 1 8 13
M  V30 13 1 8 14
M  V30 14 1 11 15
M  V30 15 1 13 16
M  V30 16 1 14 17
M  V30 17 1 15 18
M  V30 18 1 18 19
M  V30 19 1 18 20
M  V30 20 1 18 21
M  V30 21 1 9 12
M  V30 22 1 16 17
M  V30 23 1 3 22
M  V30 24 1 3 23
M  V30 25 1 5 24
M  V30 26 1 6 25
M  V30 27 1 7 26
M  V30 28 1 8 27
M  V30 29 1 9 28
M  V30 30 1 10 29
M  V30 31 1 11 30
M  V30 32 1 11 31
M  V30 33 1 12 32
M  V30 34 1 13 33
M  V30 35 1 13 34
M  V30 36 1 14 35
M  V30 37 1 14 36
M  V30 38 1 15 37
M  V30 39 1 15 38
M  V30 40 1 16 39
M  V30 41 1 16 40
M  V30 42 1 17 41
M  V30 43 1 17 42
M  V30 44 1 19 43
M  V30 45 1 19 44
M  V30 46 1 19 45
M  V30 47 1 20 46
M  V30 48 1 20 47
M  V30 49 1 20 48
M  V30 50 1 21 49
M  V30 51 1 21 50
M  V30 52 1 21 51
M  V30 END BOND
M  V30 BEGIN COLLECTION
M  V30 MDLV30/STEABS ATOMS=(1 6)
M  V30 END COLLECTION
M  V30 END CTAB
M  END
>  <Structure No>
5116

>  <LogS>
-1.6195

>  <MMFF94 Energy>
70.959

$$$$
Compound 5117
Actelion Java MolfileCreator 2.0

  0  0  0  0  0  0              0 V3000
M  V30 BEGIN CTAB
M  V30 COUNTS 22 23 0 0 0
M  V30 BEGIN ATOM
M  V30 1 Cl -0.4511 2.0765 -1.8958 0
M  V30 2 C -1.4183 1.1219 -0.7679 0
M  V30 3 C -0.8102 0.1298 0.0312 0
M  V30 4 C -2.8017 1.3533 -0.6603 0
M  V30 5 C -1.595 -0.6168 0.9327 0
M  V30 6 C 0.641 -0.1254 -0.073 0
M  V30 7 Cl -3.6029 2.5778 -1.6367 0
M  V30 8 C -3.568 0.6037 0.2364 0
M  V30 9 Cl -0.8865 -1.8695 1.9474 0
M  V30 10 C -2.9683 -0.3752 1.0286 0
M  V30 11 C 1.1587 -0.985 -1.0601 0
M  V30 12 C 1.5143 0.4991 0.829 0
M  V30 13 Cl 0.1033 -1.801 -2.2082 0
M  V30 14 C 2.5379 -1.2066 -1.135 0
M  V30 15 C 2.893 0.2756 0.7519 0
M  V30 16 C 3.4074 -0.5808 -0.2349 0
M  V30 17 Cl 3.9512 1.0803 1.9029 0
M  V30 18 Cl 5.1337 -0.8883 -0.3655 0
M  V30 19 H -4.633 0.7797 0.3212 0
M  V30 20 H -3.5744 -0.9485 1.7185 0
M  V30 21 H 1.1208 1.1611 1.5914 0
M  V30 22 H 2.9354 -1.8684 -1.8944 0
M  V30 END ATOM
M  V30 BEGIN BOND
M  V30 1 1 1 2
M  V30 2 2 2 3
M  V30 3 1 2 4
M  V30 4 1 3 5
M  V30 5 1 3 6
M  V30 6 1 4 7
M  V30 7 2 4 8
M  V30 8 1 5 9
M  V30 9 2 5 10
M  V30 10 2 6 11
M  V30 11 1 6 12
M  V30 12 1 11 13
M  V30 13 1 11 14
M  V30 14 2 12 15
M  V30 15 2 14 16
M  V30 16 1 15 17
M  V30 17 1 16 18
M  V30 18 1 8 10
M  V30 19 1 15 16
M  V30 20 1 8 19
M  V30 21 1 10 20
M  V30 22 1 12 21
M  V30 23 1 14 22
M  V30 END BOND
M  V30 BEGIN COLLECTION
M  V30 MDLV30/STEABS BONDS=(1 5)
M  V30 END COLLECTION
M  V30 END CTAB
M  END
>  <Structure No>
5117

>  <LogS>
-7.93

>  <MMFF94 Energy>
50.821

$$$$
Compound 5118
Actelion Java MolfileCreator 2.0

  0  0  0  0  0  0              0 V3000
M  V30 BEGIN CTAB
M  V30 COUNTS 22 23 0 0 0
M  V30 BEGIN ATOM
M  V30 1 Cl -3.8868 -1.7161 1.7161 0
M  V30 2 C -2.8796 -0.6973 0.6869 0
M  V30 3 C -1.4754 -0.7699 0.7732 0
M  V30 4 C -3.4789 0.1913 -0.224 0
M  V30 5 Cl -0.7127 -1.8856 1.91 0
M  V30 6 C -0.6803 0.0492 -0.0538 0
M  V30 7 Cl -5.2281 0.3151 -0.3651 0
M  V30 8 C -2.6816 0.9983 -1.0403 0
M  V30 9 C 0.7951 -0.001 0.0121 0
M  V30 10 C -1.2912 0.9286 -0.9569 0
M  V30 11 C 1.4941 0.799 0.9415 0
M  V30 12 C 1.5116 -0.85 -0.8549 0
M  V30 13 Cl 0.6151 1.8728 2.034 0
M  V30 14 C 2.8984 0.7397 0.9958 0
M  V30 15 Cl 0.6865 -1.8712 -2.0285 0
M  V30 16 C 2.9067 -0.8977 -0.7893 0
M  V30 17 Cl 3.8116 1.7169 2.1388 0
M  V30 18 C 3.596 -0.1078 0.1307 0
M  V30 19 H -3.1403 1.6828 -1.7426 0
M  V30 20 H -0.688 1.5613 -1.5967 0
M  V30 21 H 3.4601 -1.55 -1.4529 0
M  V30 22 H 4.6769 -0.1553 0.1706 0
M  V30 END ATOM
M  V30 BEGIN BOND
M  V30 1 1 1 2
M  V30 2 2 2 3
M  V30 3 1 2 4
M  V30 4 1 3 5
M  V30 5 1 3 6
M  V30 6 1 4 7
M  V30 7 2 4 8
M  V30 8 1 6 9
M  V30 9 2 6 10
M  V30 10 2 9 11
M  V30 11 1 9 12
M  V30 12 1 11 13
M  V30 13 1 11 14
M  V30 14 1 12 15
M  V30 15 2 12 16
M  V30 16 1 14 17
M  V30 17 2 14 18
M  V30 18 1 8 10
M  V30 19 1 16 18
M  V30 20 1 8 19
M  V30 21 1 10 20
M  V30 22 1 16 21
M  V30 23 1 18 22
M  V30 END BOND
M  V30 BEGIN COLLECTION
M  V30 MDLV30/STEABS BONDS=(1 8)
M  V30 END COLLECTION
M  V30 END CTAB
M  END
>  <Structure No>
5118

>  <LogS>
-7.65

>  <MMFF94 Energy>
63.681

$$$$
Compound 5119
Actelion Java MolfileCreator 2.0

  0  0  0  0  0  0              0 V3000
M  V30 BEGIN CTAB
M  V30 COUNTS 22 23 0 0 0
M  V30 BEGIN ATOM
M  V30 1 Cl 3.9778 -1.5356 1.8971 0
M  V30 2 C 2.9643 -0.57 0.8216 0
M  V30 3 C 3.5544 0.3819 -0.0301 0
M  V30 4 C 1.568 -0.7569 0.8116 0
M  V30 5 Cl 5.3024 0.6218 -0.0213 0
M  V30 6 C 2.7484 1.1394 -0.8945 0
M  V30 7 Cl 0.8468 -2.0054 1.8338 0
M  V30 8 C 0.7615 0.0186 -0.0496 0
M  V30 9 Cl 3.4445 2.3358 -1.9804 0
M  V30 10 C 1.3649 0.9538 -0.902 0
M  V30 11 C -0.7109 -0.1291 -0.0808 0
M  V30 12 C -1.4744 0.0922 1.0768 0
M  V30 13 C -1.3613 -0.4543 -1.2811 0
M  V30 14 C -2.8684 -0.0316 1.0425 0
M  V30 15 C -2.7526 -0.5779 -1.3176 0
M  V30 16 Cl -3.784 0.248 2.5174 0
M  V30 17 C -3.5106 -0.3703 -0.1601 0
M  V30 18 Cl -5.2591 -0.5355 -0.2459 0
M  V30 19 H 0.7539 1.5522 -1.5677 0
M  V30 20 H -0.9861 0.3686 2.0035 0
M  V30 21 H -0.7901 -0.6202 -2.1862 0
M  V30 22 H -3.2414 -0.8355 -2.2485 0
M  V30 END ATOM
M  V30 BEGIN BOND
M  V30 1 1 1 2
M  V30 2 2 2 3
M  V30 3 1 2 4
M  V30 4 1 3 5
M  V30 5 1 3 6
M  V30 6 1 4 7
M  V30 7 2 4 8
M  V30 8 1 6 9
M  V30 9 2 6 10
M  V30 10 1 8 11
M  V30 11 2 11 12
M  V30 12 1 11 13
M  V30 13 1 12 14
M  V30 14 2 13 15
M  V30 15 1 14 16
M  V30 16 2 14 17
M  V30 17 1 17 18
M  V30 18 1 8 10
M  V30 19 1 15 17
M  V30 20 1 10 19
M  V30 21 1 12 20
M  V30 22 1 13 21
M  V30 23 1 15 22
M  V30 END BOND
M  V30 END CTAB
M  END
>  <Structure No>
5119

>  <LogS>
-7.8306

>  <MMFF94 Energy>
60.367

$$$$
Compound 5120
Actelion Java MolfileCreator 2.0

  0  0  0  0  0  0              0 V3000
M  V30 BEGIN CTAB
M  V30 COUNTS 22 23 0 0 0
M  V30 BEGIN ATOM
M  V30 1 Cl 3.7827 -2.2131 -1.3828 0
M  V30 2 C 2.8371 -0.9167 -0.6479 0
M  V30 3 C 3.4865 0.2107 -0.1099 0
M  V30 4 C 1.4331 -1.0093 -0.5997 0
M  V30 5 Cl 5.2455 0.3349 -0.1661 0
M  V30 6 C 2.7297 1.2407 0.4732 0
M  V30 7 Cl 0.6125 -2.4191 -1.2771 0
M  V30 8 C 0.6835 0.0274 -0.012 0
M  V30 9 Cl 3.4994 2.6674 1.1566 0
M  V30 10 C 1.3375 1.145 0.5193 0
M  V30 11 C -0.7911 -0.0394 0.0558 0
M  V30 12 C -1.4257 -0.6827 1.1401 0
M  V30 13 C -1.5714 0.5412 -0.9638 0
M  V30 14 Cl -0.466 -1.4119 2.4308 0
M  V30 15 C -2.8302 -0.7412 1.1916 0
M  V30 16 Cl -0.8284 1.3518 -2.3391 0
M  V30 17 C -2.9659 0.4753 -0.8986 0
M  V30 18 Cl -3.6644 -1.5339 2.5221 0
M  V30 19 C -3.5916 -0.1623 0.1724 0
M  V30 20 H 0.7609 1.9436 0.9713 0
M  V30 21 H -3.5684 0.919 -1.6812 0
M  V30 22 H -4.6728 -0.206 0.2096 0
M  V30 END ATOM
M  V30 BEGIN BOND
M  V30 1 1 1 2
M  V30 2 2 2 3
M  V30 3 1 2 4
M  V30 4 1 3 5
M  V30 5 1 3 6
M  V30 6 1 4 7
M  V30 7 2 4 8
M  V30 8 1 6 9
M  V30 9 2 6 10
M  V30 10 1 8 11
M  V30 11 2 11 12
M  V30 12 1 11 13
M  V30 13 1 12 14
M  V30 14 1 12 15
M  V30 15 1 13 16
M  V30 16 2 13 17
M  V30 17 1 15 18
M  V30 18 2 15 19
M  V30 19 1 8 10
M  V30 20 1 17 19
M  V30 21 1 10 20
M  V30 22 1 17 21
M  V30 23 1 19 22
M  V30 END BOND
M  V30 BEGIN COLLECTION
M  V30 MDLV30/STEABS BONDS=(1 10)
M  V30 END COLLECTION
M  V30 END CTAB
M  END
>  <Structure No>
5120

>  <LogS>
-8.5901

>  <MMFF94 Energy>
62.631

$$$$
Compound 5121
Actelion Java MolfileCreator 2.0

  0  0  0  0  0  0              0 V3000
M  V30 BEGIN CTAB
M  V30 COUNTS 22 23 0 0 0
M  V30 BEGIN ATOM
M  V30 1 Cl 0.8467 0.0846 2.7113 0
M  V30 2 C 1.5514 -0.0014 1.0994 0
M  V30 3 C 0.7463 -0.0686 -0.0587 0
M  V30 4 C 2.9456 -0.0319 0.9849 0
M  V30 5 C 1.3651 -0.1656 -1.3243 0
M  V30 6 C -0.7276 -0.0369 0.0524 0
M  V30 7 C 3.5477 -0.1281 -0.2699 0
M  V30 8 Cl 0.4236 -0.2157 -2.812 0
M  V30 9 C 2.7607 -0.1945 -1.4201 0
M  V30 10 C -1.3799 1.1332 0.4726 0
M  V30 11 C -1.4849 -1.1767 -0.2603 0
M  V30 12 C -2.7752 1.1615 0.5788 0
M  V30 13 C -2.8786 -1.1452 -0.1541 0
M  V30 14 Cl -3.5852 2.6258 1.1047 0
M  V30 15 C -3.5235 0.0219 0.2651 0
M  V30 16 H 3.5654 0.0146 1.8714 0
M  V30 17 H 4.6267 -0.1509 -0.3513 0
M  V30 18 H 3.2381 -0.2641 -2.3892 0
M  V30 19 H -0.8051 2.0193 0.7134 0
M  V30 20 H -0.9955 -2.0876 -0.5826 0
M  V30 21 H -3.459 -2.0261 -0.3957 0
M  V30 22 H -4.6029 0.0395 0.3456 0
M  V30 END ATOM
M  V30 BEGIN BOND
M  V30 1 1 1 2
M  V30 2 2 2 3
M  V30 3 1 2 4
M  V30 4 1 3 5
M  V30 5 1 3 6
M  V30 6 2 4 7
M  V30 7 1 5 8
M  V30 8 2 5 9
M  V30 9 2 6 10
M  V30 10 1 6 11
M  V30 11 1 10 12
M  V30 12 2 11 13
M  V30 13 1 12 14
M  V30 14 2 12 15
M  V30 15 1 7 9
M  V30 16 1 13 15
M  V30 17 1 4 16
M  V30 18 1 7 17
M  V30 19 1 9 18
M  V30 20 1 10 19
M  V30 21 1 11 20
M  V30 22 1 13 21
M  V30 23 1 15 22
M  V30 END BOND
M  V30 END CTAB
M  END
>  <Structure No>
5121

>  <LogS>
-6.8245

>  <MMFF94 Energy>
42.769

$$$$
Compound 5122
Actelion Java MolfileCreator 2.0

  0  0  0  0  0  0              0 V3000
M  V30 BEGIN CTAB
M  V30 COUNTS 22 23 0 0 0
M  V30 BEGIN ATOM
M  V30 1 O -2.4448 -2.037 -1.6293 0
M  V30 2 N -2.6798 -1.5882 -0.4885 0 CHG=1
M  V30 3 O -3.7852 -2.0477 0.1897 0 CHG=-1
M  V30 4 C -1.9858 -0.423 -0.0139 0
M  V30 5 C -0.5756 -0.2951 -0.109 0
M  V30 6 C -2.732 0.6276 0.5445 0
M  V30 7 C 0.0448 0.9075 0.3156 0
M  V30 8 C 0.2502 -1.3355 -0.5754 0
M  V30 9 C -2.1084 1.8024 0.9668 0
M  V30 10 N 1.3953 1.0481 0.2235 0
M  V30 11 C -0.7264 1.9485 0.847 0
M  V30 12 C 1.6317 -1.1561 -0.655 0
M  V30 13 C 2.1947 0.0618 -0.2617 0
M  V30 14 O -0.1217 3.1293 1.2645 0 CHG=-1
M  V30 15 C 3.6753 0.2648 -0.3181 0
M  V30 16 H -3.8085 0.5468 0.6291 0
M  V30 17 H -0.1525 -2.2973 -0.8585 0
M  V30 18 H -2.7034 2.606 1.3824 0
M  V30 19 H 2.2593 -1.9626 -1.0142 0
M  V30 20 H 4.0648 -0.0473 -1.31 0
M  V30 21 H 3.9269 1.3352 -0.1608 0
M  V30 22 H 4.1638 -0.3396 0.4743 0
M  V30 END ATOM
M  V30 BEGIN BOND
M  V30 1 2 1 2
M  V30 2 1 2 3
M  V30 3 1 2 4
M  V30 4 1 4 5
M  V30 5 2 4 6
M  V30 6 1 5 7
M  V30 7 2 5 8
M  V30 8 1 6 9
M  V30 9 2 7 10
M  V30 10 1 7 11
M  V30 11 1 8 12
M  V30 12 1 10 13
M  V30 13 1 11 14
M  V30 14 1 13 15
M  V30 15 2 9 11
M  V30 16 2 12 13
M  V30 17 1 6 16
M  V30 18 1 8 17
M  V30 19 1 9 18
M  V30 20 1 12 19
M  V30 21 1 15 20
M  V30 22 1 15 21
M  V30 23 1 15 22
M  V30 END BOND
M  V30 END CTAB
M  END
>  <Structure No>
5122

>  <LogS>
-3.9598

>  <MMFF94 Energy>
76.727

$$$$
Compound 5123
Actelion Java MolfileCreator 2.0

  0  0  0  0  0  0              0 V3000
M  V30 BEGIN CTAB
M  V30 COUNTS 20 19 0 0 0
M  V30 BEGIN ATOM
M  V30 1 S 1.1881 -0.2545 -0.7637 0
M  V30 2 O 0.8414 -1.7164 -0.8041 0
M  V30 3 O 1.1305 0.3065 -2.1566 0
M  V30 4 C 0.0422 0.6286 0.299 0
M  V30 5 C 2.8474 -0.0709 -0.146 0
M  V30 6 S -1.5739 0.7756 -0.4701 0
M  V30 7 C -0.0654 -0.0526 1.6637 0
M  V30 8 O -2.5078 1.4778 0.4752 0
M  V30 9 O -1.4546 1.5938 -1.725 0
M  V30 10 C -2.2663 -0.8134 -0.8824 0
M  V30 11 H 0.4382 1.6552 0.4515 0
M  V30 12 H 2.943 -0.5819 0.8335 0
M  V30 13 H 3.5617 -0.5241 -0.8638 0
M  V30 14 H 3.0819 1.0067 -0.0253 0
M  V30 15 H -0.4266 -1.0966 1.5577 0
M  V30 16 H 0.9254 -0.0663 2.1633 0
M  V30 17 H -0.7682 0.5063 2.317 0
M  V30 18 H -3.3024 -0.6773 -1.2548 0
M  V30 19 H -1.6598 -1.2941 -1.6762 0
M  V30 20 H -2.2867 -1.4624 0.0162 0
M  V30 END ATOM
M  V30 BEGIN BOND
M  V30 1 2 1 2
M  V30 2 2 1 3
M  V30 3 1 1 4
M  V30 4 1 1 5
M  V30 5 1 4 6
M  V30 6 1 4 7
M  V30 7 2 6 8
M  V30 8 2 6 9
M  V30 9 1 6 10
M  V30 10 1 4 11
M  V30 11 1 5 12
M  V30 12 1 5 13
M  V30 13 1 5 14
M  V30 14 1 7 15
M  V30 15 1 7 16
M  V30 16 1 7 17
M  V30 17 1 10 18
M  V30 18 1 10 19
M  V30 19 1 10 20
M  V30 END BOND
M  V30 END CTAB
M  END
>  <Structure No>
5123

>  <LogS>
-1.4188

>  <MMFF94 Energy>
-54.132

$$$$
Compound 5124
Actelion Java MolfileCreator 2.0

  0  0  0  0  0  0              0 V3000
M  V30 BEGIN CTAB
M  V30 COUNTS 19 18 0 0 0
M  V30 BEGIN ATOM
M  V30 1 O 1.2589 -1.9676 0.1572 0
M  V30 2 C 1.6423 -0.8526 -0.2877 0
M  V30 3 N 0.7844 0.2994 -0.2207 0
M  V30 4 N 2.9469 -0.7364 -0.8541 0
M  V30 5 C -0.601 0.2715 0.2858 0
M  V30 6 C -0.6304 -0.2613 1.7027 0
M  V30 7 C -1.1678 1.7033 0.3021 0
M  V30 8 C -1.4702 -0.5944 -0.648 0
M  V30 9 O 0.2979 0.0244 2.5053 0
M  V30 10 O -1.715 -1.0022 2.1599 0 CHG=-1
M  V30 11 H 1.1778 1.2037 -0.5691 0
M  V30 12 H 3.2854 0.178 -1.2266 0
M  V30 13 H 3.5769 -1.5677 -0.9024 0
M  V30 14 H -1.1747 2.1307 -0.7239 0
M  V30 15 H -0.545 2.3601 0.9478 0
M  V30 16 H -2.2085 1.712 0.6933 0
M  V30 17 H -2.5418 -0.5387 -0.357 0
M  V30 18 H -1.376 -0.2404 -1.6972 0
M  V30 19 H -1.1609 -1.6596 -0.6114 0
M  V30 END ATOM
M  V30 BEGIN BOND
M  V30 1 2 1 2
M  V30 2 1 2 3
M  V30 3 1 2 4
M  V30 4 1 3 5
M  V30 5 1 5 6
M  V30 6 1 5 7
M  V30 7 1 5 8
M  V30 8 2 6 9
M  V30 9 1 6 10
M  V30 10 1 3 11
M  V30 11 1 4 12
M  V30 12 1 4 13
M  V30 13 1 7 14
M  V30 14 1 7 15
M  V30 15 1 7 16
M  V30 16 1 8 17
M  V30 17 1 8 18
M  V30 18 1 8 19
M  V30 END BOND
M  V30 END CTAB
M  END
>  <Structure No>
5124

>  <LogS>
-1.1648

>  <MMFF94 Energy>
-44.598

$$$$
Compound 5125
Actelion Java MolfileCreator 2.0

  0  0  0  0  0  0              0 V3000
M  V30 BEGIN CTAB
M  V30 COUNTS 25 25 0 0 0
M  V30 BEGIN ATOM
M  V30 1 O 5.1716 -0.6353 0.9532 0
M  V30 2 C 4.0166 -0.9845 0.5949 0
M  V30 3 O 3.7084 -2.3378 0.5123 0 CHG=-1
M  V30 4 C 3.0156 0.0433 0.2688 0
M  V30 5 C 1.766 -0.2739 -0.0953 0
M  V30 6 C 0.7281 0.7388 -0.4192 0
M  V30 7 C -0.6364 0.4166 -0.2443 0
M  V30 8 C 1.0757 2.0036 -0.9364 0
M  V30 9 O -0.978 -0.8496 0.2603 0
M  V30 10 C -1.6214 1.3713 -0.5692 0
M  V30 11 C 0.0876 2.9377 -1.2517 0
M  V30 12 C -2.3107 -1.3014 0.4861 0
M  V30 13 C -1.2572 2.6235 -1.0658 0
M  V30 14 C -2.2785 -2.7198 1.0314 0
M  V30 15 H 3.3153 1.0791 0.3602 0
M  V30 16 H 1.4771 -1.3179 -0.1175 0
M  V30 17 H 2.1076 2.2678 -1.1242 0
M  V30 18 H -2.6731 1.1557 -0.441 0
M  V30 19 H 0.3655 3.9054 -1.6492 0
M  V30 20 H -2.813 -0.6395 1.2244 0
M  V30 21 H -2.8786 -1.2921 -0.4693 0
M  V30 22 H -2.0205 3.35 -1.3133 0
M  V30 23 H -1.7834 -3.3953 0.302 0
M  V30 24 H -3.3147 -3.0772 1.2091 0
M  V30 25 H -1.7185 -2.745 1.9901 0
M  V30 END ATOM
M  V30 BEGIN BOND
M  V30 1 2 1 2
M  V30 2 1 2 3
M  V30 3 1 2 4
M  V30 4 2 4 5
M  V30 5 1 5 6
M  V30 6 2 6 7
M  V30 7 1 6 8
M  V30 8 1 7 9
M  V30 9 1 7 10
M  V30 10 2 8 11
M  V30 11 1 9 12
M  V30 12 2 10 13
M  V30 13 1 12 14
M  V30 14 1 11 13
M  V30 15 1 4 15
M  V30 16 1 5 16
M  V30 17 1 8 17
M  V30 18 1 10 18
M  V30 19 1 11 19
M  V30 20 1 12 20
M  V30 21 1 12 21
M  V30 22 1 13 22
M  V30 23 1 14 23
M  V30 24 1 14 24
M  V30 25 1 14 25
M  V30 END BOND
M  V30 END CTAB
M  END
>  <Structure No>
5125

>  <LogS>
-2.5234

>  <MMFF94 Energy>
25.5

$$$$
Compound 5126
Actelion Java MolfileCreator 2.0

  0  0  0  0  0  0              0 V3000
M  V30 BEGIN CTAB
M  V30 COUNTS 43 43 0 0 0
M  V30 BEGIN ATOM
M  V30 1 Cl -1.6755 -1.5158 -3.5131 0
M  V30 2 C -1.6592 0.0418 -2.649 0
M  V30 3 C -0.2411 0.4647 -2.384 0
M  V30 4 O 0.5235 0.6179 -3.3754 0
M  V30 5 N 0.2592 0.7176 -1.0498 0
M  V30 6 C -0.5875 0.6066 0.1115 0
M  V30 7 C 1.6583 1.1243 -0.8496 0
M  V30 8 C -1.1704 1.7726 0.6707 0
M  V30 9 C -0.7848 -0.6496 0.7449 0
M  V30 10 C 2.5512 -0.0728 -0.8181 0
M  V30 11 C -1.9227 1.6717 1.8509 0
M  V30 12 C -1.0506 3.1275 0.0086 0
M  V30 13 C -1.5122 -0.7046 1.9461 0
M  V30 14 C -0.2151 -1.9371 0.1849 0
M  V30 15 O 3.0151 -0.5391 -1.8943 0
M  V30 16 O 2.8227 -0.6927 0.4045 0
M  V30 17 C -2.0799 0.445 2.4891 0
M  V30 18 C -2.288 3.4365 -0.8279 0
M  V30 19 C -1.3136 -2.9483 -0.1429 0
M  V30 20 C 3.6032 -1.8783 0.5074 0
M  V30 21 C 3.6939 -2.3021 1.9645 0
M  V30 22 H -2.152 0.8041 -3.2875 0
M  V30 23 H -2.2526 -0.063 -1.7197 0
M  V30 24 H 1.9804 1.818 -1.6562 0
M  V30 25 H 1.7681 1.6786 0.1084 0
M  V30 26 H -2.3836 2.5517 2.2833 0
M  V30 27 H -0.9351 3.914 0.7862 0
M  V30 28 H -0.1533 3.1918 -0.639 0
M  V30 29 H -1.6446 -1.6449 2.4662 0
M  V30 30 H 0.3671 -1.7621 -0.7407 0
M  V30 31 H 0.4778 -2.3829 0.9298 0
M  V30 32 H -2.6489 0.3838 3.408 0
M  V30 33 H -2.18 4.4379 -1.2954 0
M  V30 34 H -2.4092 2.6822 -1.6318 0
M  V30 35 H -3.1971 3.4396 -0.1893 0
M  V30 36 H -0.8739 -3.811 -0.6865 0
M  V30 37 H -1.7871 -3.3293 0.7858 0
M  V30 38 H -2.0937 -2.4844 -0.7812 0
M  V30 39 H 3.1276 -2.6922 -0.082 0
M  V30 40 H 4.6256 -1.6905 0.1138 0
M  V30 41 H 4.1758 -1.5003 2.5633 0
M  V30 42 H 2.6774 -2.4969 2.3676 0
M  V30 43 H 4.2993 -3.2291 2.0485 0
M  V30 END ATOM
M  V30 BEGIN BOND
M  V30 1 1 1 2
M  V30 2 1 2 3
M  V30 3 2 3 4
M  V30 4 1 3 5
M  V30 5 1 5 6
M  V30 6 1 5 7
M  V30 7 2 6 8
M  V30 8 1 6 9
M  V30 9 1 7 10
M  V30 10 1 8 11
M  V30 11 1 8 12
M  V30 12 2 9 13
M  V30 13 1 9 14
M  V30 14 2 10 15
M  V30 15 1 10 16
M  V30 16 2 11 17
M  V30 17 1 12 18
M  V30 18 1 14 19
M  V30 19 1 16 20
M  V30 20 1 20 21
M  V30 21 1 13 17
M  V30 22 1 2 22
M  V30 23 1 2 23
M  V30 24 1 7 24
M  V30 25 1 7 25
M  V30 26 1 11 26
M  V30 27 1 12 27
M  V30 28 1 12 28
M  V30 29 1 13 29
M  V30 30 1 14 30
M  V30 31 1 14 31
M  V30 32 1 17 32
M  V30 33 1 18 33
M  V30 34 1 18 34
M  V30 35 1 18 35
M  V30 36 1 19 36
M  V30 37 1 19 37
M  V30 38 1 19 38
M  V30 39 1 20 39
M  V30 40 1 20 40
M  V30 41 1 21 41
M  V30 42 1 21 42
M  V30 43 1 21 43
M  V30 END BOND
M  V30 END CTAB
M  END
>  <Structure No>
5126

>  <LogS>
-3.4727

>  <MMFF94 Energy>
55.841

$$$$
Compound 5127
Actelion Java MolfileCreator 2.0

  0  0  0  0  0  0              0 V3000
M  V30 BEGIN CTAB
M  V30 COUNTS 23 22 0 0 0
M  V30 BEGIN ATOM
M  V30 1 S 0.8234 -1.3177 -0.4116 0 CFG=2
M  V30 2 S -0.7453 -0.4812 -1.5962 0
M  V30 3 O 0.1701 -1.889 0.8402 0
M  V30 4 C 1.7971 0.1003 0.1672 0
M  V30 5 C -2.1023 -0.4953 -0.3608 0
M  V30 6 C 2.7775 -0.3423 1.2553 0
M  V30 7 C 2.5493 0.7245 -1.009 0
M  V30 8 C -1.9136 0.6147 0.6768 0
M  V30 9 C -3.4295 -0.3071 -1.0963 0
M  V30 10 H 1.1149 0.8648 0.5932 0
M  V30 11 H -2.1442 -1.4807 0.1483 0
M  V30 12 H 3.461 -1.1286 0.869 0
M  V30 13 H 2.223 -0.745 2.1291 0
M  V30 14 H 3.3823 0.5227 1.6021 0
M  V30 15 H 3.1449 1.5967 -0.6643 0
M  V30 16 H 3.2329 -0.018 -1.4739 0
M  V30 17 H 1.831 1.0809 -1.777 0
M  V30 18 H -2.8047 0.6805 1.3372 0
M  V30 19 H -1.7639 1.5955 0.1769 0
M  V30 20 H -1.0404 0.3991 1.3228 0
M  V30 21 H -3.567 -1.1177 -1.8434 0
M  V30 22 H -3.4504 0.6719 -1.6219 0
M  V30 23 H -4.2774 -0.35 -0.3794 0
M  V30 END ATOM
M  V30 BEGIN BOND
M  V30 1 1 1 2
M  V30 2 2 1 3
M  V30 3 1 1 4
M  V30 4 1 2 5
M  V30 5 1 4 6
M  V30 6 1 4 7
M  V30 7 1 5 8
M  V30 8 1 5 9
M  V30 9 1 4 10
M  V30 10 1 5 11
M  V30 11 1 6 12
M  V30 12 1 6 13
M  V30 13 1 6 14
M  V30 14 1 7 15
M  V30 15 1 7 16
M  V30 16 1 7 17
M  V30 17 1 8 18
M  V30 18 1 8 19
M  V30 19 1 8 20
M  V30 20 1 9 21
M  V30 21 1 9 22
M  V30 22 1 9 23
M  V30 END BOND
M  V30 BEGIN COLLECTION
M  V30 MDLV30/STEABS ATOMS=(1 1)
M  V30 END COLLECTION
M  V30 END CTAB
M  END
>  <Structure No>
5127

>  <LogS>
-0.823

>  <MMFF94 Energy>
2.7014

$$$$
Compound 5128
Actelion Java MolfileCreator 2.0

  0  0  0  0  0  0              0 V3000
M  V30 BEGIN CTAB
M  V30 COUNTS 38 39 0 0 0
M  V30 BEGIN ATOM
M  V30 1 O -1.2668 -1.1084 1.4252 0
M  V30 2 C -0.6345 -0.6152 0.2653 0 CFG=2
M  V30 3 C 0.8784 -0.3825 0.5565 0
M  V30 4 C -1.2848 0.7648 -0.1006 0
M  V30 5 C -0.8437 -1.6793 -0.8562 0
M  V30 6 C 1.8766 -0.1217 -0.4472 0
M  V30 7 C 1.2959 -0.3632 1.9113 0
M  V30 8 C -2.821 0.9777 0.1041 0
M  V30 9 C 3.2433 0.0123 -0.0556 0
M  V30 10 C 1.5788 0.0322 -1.8222 0
M  V30 11 C 2.6317 -0.2145 2.2673 0
M  V30 12 O -3.1533 2.1593 -0.5917 0
M  V30 13 C -3.1676 1.184 1.5979 0
M  V30 14 C -3.6542 -0.1835 -0.4745 0
M  V30 15 C 3.6026 -0.0499 1.2931 0
M  V30 16 C 4.2447 0.229 -1.0163 0
M  V30 17 C 2.587 0.2536 -2.7628 0
M  V30 18 C 3.9159 0.3423 -2.3634 0
M  V30 19 H -0.8874 -2.0043 1.6317 0
M  V30 20 H -1.0602 1.0037 -1.1593 0
M  V30 21 H -0.7676 1.564 0.4769 0
M  V30 22 H 0.0673 -2.2987 -1.0001 0
M  V30 23 H -1.137 -1.2354 -1.8282 0
M  V30 24 H -1.6595 -2.3852 -0.5926 0
M  V30 25 H 0.5895 -0.4676 2.7236 0
M  V30 26 H 0.5805 0.0106 -2.2057 0
M  V30 27 H 2.9157 -0.227 3.3119 0
M  V30 28 H -4.1273 2.3271 -0.4893 0
M  V30 29 H -2.522 1.97 2.0443 0
M  V30 30 H -4.2239 1.5117 1.706 0
M  V30 31 H -3.0621 0.2543 2.1892 0
M  V30 32 H -4.7381 0.0555 -0.4241 0
M  V30 33 H -3.3931 -0.3547 -1.5398 0
M  V30 34 H -3.5014 -1.1179 0.1017 0
M  V30 35 H 4.6373 0.0573 1.5976 0
M  V30 36 H 5.2838 0.3215 -0.7225 0
M  V30 37 H 2.3333 0.3636 -3.8094 0
M  V30 38 H 4.6918 0.5143 -3.098 0
M  V30 END ATOM
M  V30 BEGIN BOND
M  V30 1 1 1 2
M  V30 2 1 2 3
M  V30 3 1 2 4
M  V30 4 1 2 5
M  V30 5 1 3 6
M  V30 6 2 3 7
M  V30 7 1 4 8
M  V30 8 1 6 9
M  V30 9 2 6 10
M  V30 10 1 7 11
M  V30 11 1 8 12
M  V30 12 1 8 13
M  V30 13 1 8 14
M  V30 14 1 9 15
M  V30 15 2 9 16
M  V30 16 1 10 17
M  V30 17 1 16 18
M  V30 18 2 11 15
M  V30 19 2 17 18
M  V30 20 1 1 19
M  V30 21 1 4 20
M  V30 22 1 4 21
M  V30 23 1 5 22
M  V30 24 1 5 23
M  V30 25 1 5 24
M  V30 26 1 7 25
M  V30 27 1 10 26
M  V30 28 1 11 27
M  V30 29 1 12 28
M  V30 30 1 13 29
M  V30 31 1 13 30
M  V30 32 1 13 31
M  V30 33 1 14 32
M  V30 34 1 14 33
M  V30 35 1 14 34
M  V30 36 1 15 35
M  V30 37 1 16 36
M  V30 38 1 17 37
M  V30 39 1 18 38
M  V30 END BOND
M  V30 BEGIN COLLECTION
M  V30 MDLV30/STEABS ATOMS=(1 2)
M  V30 END COLLECTION
M  V30 END CTAB
M  END
>  <Structure No>
5128

>  <LogS>
-3.2419

>  <MMFF94 Energy>
63.694

$$$$
Compound 5129
Actelion Java MolfileCreator 2.0

  0  0  0  0  0  0              0 V3000
M  V30 BEGIN CTAB
M  V30 COUNTS 22 24 0 0 0
M  V30 BEGIN ATOM
M  V30 1 Cl 5.328 -0.2532 0.6754 0
M  V30 2 C 3.6969 0.047 0.1044 0
M  V30 3 C 2.6041 -0.501 0.7878 0
M  V30 4 C 3.4877 0.835 -1.0348 0
M  V30 5 C 1.3044 -0.2608 0.3313 0
M  V30 6 C 2.188 1.0767 -1.4933 0
M  V30 7 O 0.2031 -0.8028 1.0055 0
M  V30 8 C 1.0955 0.5305 -0.8128 0
M  V30 9 C -1.1027 -0.5688 0.5573 0
M  V30 10 O -0.2102 0.7646 -1.2609 0
M  V30 11 C -1.3114 0.2226 -0.5868 0
M  V30 12 C -2.1951 -1.1151 1.2383 0
M  V30 13 C -2.6112 0.4626 -1.0429 0
M  V30 14 C -3.496 -0.8733 0.7796 0
M  V30 15 C -3.7026 -0.085 -0.3599 0
M  V30 16 Cl -4.8676 -1.5578 1.6325 0
M  V30 17 H 2.7627 -1.1103 1.6687 0
M  V30 18 H 4.3306 1.2598 -1.5648 0
M  V30 19 H 2.0302 1.686 -2.374 0
M  V30 20 H -2.0326 -1.7239 2.1189 0
M  V30 21 H -2.7746 1.0712 -1.923 0
M  V30 22 H -4.7074 0.1032 -0.7164 0
M  V30 END ATOM
M  V30 BEGIN BOND
M  V30 1 1 1 2
M  V30 2 2 2 3
M  V30 3 1 2 4
M  V30 4 1 3 5
M  V30 5 2 4 6
M  V30 6 1 5 7
M  V30 7 2 5 8
M  V30 8 1 7 9
M  V30 9 1 8 10
M  V30 10 2 9 11
M  V30 11 1 9 12
M  V30 12 1 11 13
M  V30 13 2 12 14
M  V30 14 2 13 15
M  V30 15 1 14 16
M  V30 16 1 6 8
M  V30 17 1 10 11
M  V30 18 1 14 15
M  V30 19 1 3 17
M  V30 20 1 4 18
M  V30 21 1 6 19
M  V30 22 1 12 20
M  V30 23 1 13 21
M  V30 24 1 15 22
M  V30 END BOND
M  V30 END CTAB
M  END
>  <Structure No>
5129

>  <LogS>
-7.1806

>  <MMFF94 Energy>
36.747

$$$$
Compound 5130
Actelion Java MolfileCreator 2.0

  0  0  0  0  0  0              0 V3000
M  V30 BEGIN CTAB
M  V30 COUNTS 21 23 0 0 0
M  V30 BEGIN ATOM
M  V30 1 Cl 5.0466 0.9509 0.095 0
M  V30 2 C 3.3564 0.4686 -0.0553 0
M  V30 3 C 3.0218 -0.8589 -0.4197 0
M  V30 4 C 2.3406 1.421 0.1457 0
M  V30 5 Cl 4.3118 -2.0149 -0.764 0
M  V30 6 C 1.6661 -1.2535 -0.5455 0
M  V30 7 Cl 2.7019 3.1017 0.5221 0
M  V30 8 C 1.0177 1.0058 0.0402 0
M  V30 9 Cl 1.3148 -2.7841 -1.3376 0
M  V30 10 C 0.6671 -0.3089 -0.2227 0
M  V30 11 O -0.0381 1.7751 0.1529 0
M  V30 12 C -0.7366 -0.3157 -0.1959 0
M  V30 13 C -1.0916 1.0097 -5.0E-4 0
M  V30 14 C -1.7326 -1.3167 -0.2109 0
M  V30 15 C -2.4158 1.4322 0.0392 0
M  V30 16 Cl -1.3764 -3.0238 0.0192 0
M  V30 17 C -3.0896 -0.9068 -0.197 0
M  V30 18 Cl -2.7824 3.1404 0.2513 0
M  V30 19 C -3.4285 0.4647 -0.0928 0
M  V30 20 Cl -4.376 -2.1152 -0.2631 0
M  V30 21 Cl -5.1203 0.9643 -0.0728 0
M  V30 END ATOM
M  V30 BEGIN BOND
M  V30 1 1 1 2
M  V30 2 2 2 3
M  V30 3 1 2 4
M  V30 4 1 3 5
M  V30 5 1 3 6
M  V30 6 1 4 7
M  V30 7 2 4 8
M  V30 8 1 6 9
M  V30 9 2 6 10
M  V30 10 1 8 11
M  V30 11 1 10 12
M  V30 12 1 11 13
M  V30 13 1 12 14
M  V30 14 1 13 15
M  V30 15 1 14 16
M  V30 16 2 14 17
M  V30 17 1 15 18
M  V30 18 2 15 19
M  V30 19 1 17 20
M  V30 20 1 19 21
M  V30 21 1 8 10
M  V30 22 2 12 13
M  V30 23 1 17 19
M  V30 END BOND
M  V30 END CTAB
M  END
>  <Structure No>
5130

>  <LogS>
-11.5827

>  <MMFF94 Energy>
66.156

$$$$
Compound 5131
Actelion Java MolfileCreator 2.0

  0  0  0  0  0  0              0 V3000
M  V30 BEGIN CTAB
M  V30 COUNTS 32 31 0 0 0
M  V30 BEGIN ATOM
M  V30 1 S 0.398 1.832 1.832 0
M  V30 2 C 0.1665 0.0163 1.7851 0
M  V30 3 C -1.3523 2.2483 2.1077 0
M  V30 4 C -0.3139 -0.4491 0.4201 0
M  V30 5 N 0.4589 -0.2746 -0.6137 0
M  V30 6 C -1.6315 -1.2056 0.1952 0
M  V30 7 O 1.6927 0.3339 -0.5274 0
M  V30 8 C -2.4574 -0.4746 -0.885 0
M  V30 9 C -1.3048 -2.6289 -0.3026 0
M  V30 10 C -2.5023 -1.3302 1.4657 0
M  V30 11 C 2.4866 0.5083 -1.6586 0
M  V30 12 O 2.0847 0.105 -2.7844 0
M  V30 13 N 3.7593 1.1486 -1.5317 0
M  V30 14 C 4.6338 1.3598 -2.6782 0
M  V30 15 H 1.1513 -0.4557 1.9848 0
M  V30 16 H -0.4858 -0.2895 2.6227 0
M  V30 17 H -1.4458 3.347 2.2282 0
M  V30 18 H -1.726 1.7564 3.0296 0
M  V30 19 H -1.9596 1.9358 1.2361 0
M  V30 20 H -1.8996 -0.4175 -1.8446 0
M  V30 21 H -2.6988 0.5596 -0.5618 0
M  V30 22 H -3.4126 -1.0087 -1.0805 0
M  V30 23 H -0.7415 -2.5975 -1.2604 0
M  V30 24 H -2.2363 -3.2112 -0.4739 0
M  V30 25 H -0.6871 -3.1694 0.4469 0
M  V30 26 H -3.4608 -1.8434 1.2333 0
M  V30 27 H -2.7514 -0.3307 1.8785 0
M  V30 28 H -1.989 -1.9346 2.2441 0
M  V30 29 H 4.0691 1.4745 -0.5885 0
M  V30 30 H 5.5643 1.8715 -2.3534 0
M  V30 31 H 4.9011 0.3829 -3.133 0
M  V30 32 H 4.1202 1.993 -3.4319 0
M  V30 END ATOM
M  V30 BEGIN BOND
M  V30 1 1 1 2
M  V30 2 1 1 3
M  V30 3 1 2 4
M  V30 4 2 4 5
M  V30 5 1 4 6
M  V30 6 1 5 7
M  V30 7 1 6 8
M  V30 8 1 6 9
M  V30 9 1 6 10
M  V30 10 1 7 11
M  V30 11 2 11 12
M  V30 12 1 11 13
M  V30 13 1 13 14
M  V30 14 1 2 15
M  V30 15 1 2 16
M  V30 16 1 3 17
M  V30 17 1 3 18
M  V30 18 1 3 19
M  V30 19 1 8 20
M  V30 20 1 8 21
M  V30 21 1 8 22
M  V30 22 1 9 23
M  V30 23 1 9 24
M  V30 24 1 9 25
M  V30 25 1 10 26
M  V30 26 1 10 27
M  V30 27 1 10 28
M  V30 28 1 13 29
M  V30 29 1 14 30
M  V30 30 1 14 31
M  V30 31 1 14 32
M  V30 END BOND
M  V30 END CTAB
M  END
>  <Structure No>
5131

>  <LogS>
-1.6231

>  <MMFF94 Energy>
30.839

$$$$
Compound 5132
Actelion Java MolfileCreator 2.0

  0  0  0  0  0  0              0 V3000
M  V30 BEGIN CTAB
M  V30 COUNTS 50 50 0 0 0
M  V30 BEGIN ATOM
M  V30 1 O 4.0828 -3.121 0.8795 0
M  V30 2 N 3.085 -2.3906 1.0535 0 CHG=1
M  V30 3 O 3.0469 -1.5712 2.1584 0 CHG=-1
M  V30 4 C 1.9218 -2.5394 0.2206 0
M  V30 5 C 1.0681 -1.4419 -0.0442 0
M  V30 6 C 1.5989 -3.8054 -0.2766 0
M  V30 7 O 1.4238 -0.1645 0.4087 0
M  V30 8 C -0.1622 -1.6305 -0.7439 0
M  V30 9 C 0.4075 -4.0224 -0.9712 0
M  V30 10 C 2.625 0.4739 0.0758 0
M  V30 11 C -0.4712 -2.9476 -1.1738 0
M  V30 12 C -1.1505 -0.4395 -0.9793 0
M  V30 13 N 0.078 -5.343 -1.4466 0 CHG=1
M  V30 14 O 3.4083 -0.0346 -0.7735 0
M  V30 15 C 2.9366 1.765 0.7075 0
M  V30 16 C -1.7138 -0.0089 0.4321 0
M  V30 17 C -0.4046 0.6908 -1.7312 0
M  V30 18 C -2.3309 -0.8629 -1.9029 0
M  V30 19 O -0.9852 -5.5524 -2.067 0
M  V30 20 O 0.9366 -6.3975 -1.2344 0 CHG=-1
M  V30 21 C 4.0524 2.4471 0.4345 0
M  V30 22 C -2.4163 1.3751 0.6996 0
M  V30 23 C 4.3306 3.758 1.0965 0
M  V30 24 C -3.5743 1.6691 -0.2733 0
M  V30 25 C -3.0156 1.308 2.1265 0
M  V30 26 C -1.4123 2.5523 0.6805 0
M  V30 27 H 2.2625 -4.6369 -0.0772 0
M  V30 28 H -1.3995 -3.169 -1.6729 0
M  V30 29 H 2.2247 2.1679 1.4187 0
M  V30 30 H -2.418 -0.813 0.7444 0
M  V30 31 H -0.8997 -0.0808 1.1825 0
M  V30 32 H 0.1853 0.2659 -2.5719 0
M  V30 33 H -1.1084 1.4256 -2.1728 0
M  V30 34 H 0.2853 1.2571 -1.084 0
M  V30 35 H -3.003 -1.5895 -1.3979 0
M  V30 36 H -2.954 -0.0107 -2.2248 0
M  V30 37 H -1.9469 -1.3096 -2.8457 0
M  V30 38 H 4.776 2.061 -0.2735 0
M  V30 39 H 4.3844 3.623 2.1976 0
M  V30 40 H 3.5269 4.4845 0.8518 0
M  V30 41 H 5.3002 4.1615 0.737 0
M  V30 42 H -4.1797 2.5287 0.0882 0
M  V30 43 H -3.1993 1.9579 -1.2745 0
M  V30 44 H -4.2478 0.7899 -0.3595 0
M  V30 45 H -2.2205 1.1128 2.8788 0
M  V30 46 H -3.7722 0.4966 2.2003 0
M  V30 47 H -3.517 2.2623 2.3997 0
M  V30 48 H -1.153 2.864 -0.3489 0
M  V30 49 H -0.4813 2.2899 1.2271 0
M  V30 50 H -1.851 3.4515 1.1651 0
M  V30 END ATOM
M  V30 BEGIN BOND
M  V30 1 2 1 2
M  V30 2 1 2 3
M  V30 3 1 2 4
M  V30 4 2 4 5
M  V30 5 1 4 6
M  V30 6 1 5 7
M  V30 7 1 5 8
M  V30 8 2 6 9
M  V30 9 1 7 10
M  V30 10 2 8 11
M  V30 11 1 8 12
M  V30 12 1 9 13
M  V30 13 2 10 14
M  V30 14 1 10 15
M  V30 15 1 12 16
M  V30 16 1 12 17
M  V30 17 1 12 18
M  V30 18 2 13 19
M  V30 19 1 13 20
M  V30 20 2 15 21
M  V30 21 1 16 22
M  V30 22 1 21 23
M  V30 23 1 22 24
M  V30 24 1 22 25
M  V30 25 1 22 26
M  V30 26 1 9 11
M  V30 27 1 6 27
M  V30 28 1 11 28
M  V30 29 1 15 29
M  V30 30 1 16 30
M  V30 31 1 16 31
M  V30 32 1 17 32
M  V30 33 1 17 33
M  V30 34 1 17 34
M  V30 35 1 18 35
M  V30 36 1 18 36
M  V30 37 1 18 37
M  V30 38 1 21 38
M  V30 39 1 23 39
M  V30 40 1 23 40
M  V30 41 1 23 41
M  V30 42 1 24 42
M  V30 43 1 24 43
M  V30 44 1 24 44
M  V30 45 1 25 45
M  V30 46 1 25 46
M  V30 47 1 25 47
M  V30 48 1 26 48
M  V30 49 1 26 49
M  V30 50 1 26 50
M  V30 END BOND
M  V30 END CTAB
M  END
>  <Structure No>
5132

>  <LogS>
-4.9595

>  <MMFF94 Energy>
125.91

$$$$
Compound 5133
Actelion Java MolfileCreator 2.0

  0  0  0  0  0  0              0 V3000
M  V30 BEGIN CTAB
M  V30 COUNTS 22 23 0 0 0
M  V30 BEGIN ATOM
M  V30 1 Cl -0.4416 -2.0326 -2.0326 0
M  V30 2 C -1.3815 -1.0546 -0.9096 0
M  V30 3 C -0.763 -0.1177 -0.0568 0
M  V30 4 C -2.77 -1.2233 -0.8721 0
M  V30 5 C -1.5544 0.6438 0.8271 0
M  V30 6 C 0.7018 0.0643 -0.089 0
M  V30 7 C -3.5489 -0.4663 0.007 0
M  V30 8 Cl -0.8345 1.8269 1.9145 0
M  V30 9 C -2.9418 0.4645 0.8539 0
M  V30 10 C 1.5479 -0.6995 0.7387 0
M  V30 11 C 1.257 1.0145 -0.9592 0
M  V30 12 Cl -5.2891 -0.6849 0.0477 0
M  V30 13 Cl 0.8998 -1.9034 1.8473 0
M  V30 14 C 2.9333 -0.5047 0.6863 0
M  V30 15 C 2.6407 1.203 -1.0058 0
M  V30 16 C 3.4795 0.4444 -0.1839 0
M  V30 17 Cl 5.2162 0.6828 -0.2442 0
M  V30 18 H -3.2442 -1.9439 -1.5268 0
M  V30 19 H -3.5488 1.0492 1.534 0
M  V30 20 H 0.6169 1.6081 -1.6006 0
M  V30 21 H 3.5854 -1.0908 1.3217 0
M  V30 22 H 3.0595 1.9388 -1.6807 0
M  V30 END ATOM
M  V30 BEGIN BOND
M  V30 1 1 1 2
M  V30 2 2 2 3
M  V30 3 1 2 4
M  V30 4 1 3 5
M  V30 5 1 3 6
M  V30 6 2 4 7
M  V30 7 1 5 8
M  V30 8 2 5 9
M  V30 9 2 6 10
M  V30 10 1 6 11
M  V30 11 1 7 12
M  V30 12 1 10 13
M  V30 13 1 10 14
M  V30 14 2 11 15
M  V30 15 2 14 16
M  V30 16 1 16 17
M  V30 17 1 7 9
M  V30 18 1 15 16
M  V30 19 1 4 18
M  V30 20 1 9 19
M  V30 21 1 11 20
M  V30 22 1 14 21
M  V30 23 1 15 22
M  V30 END BOND
M  V30 END CTAB
M  END
>  <Structure No>
5133

>  <LogS>
-7.66

>  <MMFF94 Energy>
24.006

$$$$
Compound 5134
Actelion Java MolfileCreator 2.0

  0  0  0  0  0  0              0 V3000
M  V30 BEGIN CTAB
M  V30 COUNTS 53 55 0 0 0
M  V30 BEGIN ATOM
M  V30 1 O -2.5627 1.4409 -1.1205 0
M  V30 2 C -2.1681 0.9614 -0.0234 0
M  V30 3 O -0.9214 0.3321 0.0684 0
M  V30 4 C -2.995 1.149 1.2191 0 CFG=2
M  V30 5 C -0.1016 0.0422 -1.0639 0 CFG=2
M  V30 6 C -3.3302 -0.1147 2.0299 0
M  V30 7 C -4.4365 0.5994 1.2375 0 CFG=2
M  V30 8 C -0.7333 -0.9978 -1.8899 0
M  V30 9 C 1.2504 -0.4422 -0.6068 0
M  V30 10 C -2.8284 -1.4901 1.5491 0
M  V30 11 C -3.3941 0.0852 3.5479 0
M  V30 12 C -4.9511 -0.0452 -0.0326 0
M  V30 13 N -1.2295 -1.8185 -2.5382 0
M  V30 14 C 2.4144 -0.0211 -1.2737 0
M  V30 15 C 1.3606 -1.373 0.4419 0
M  V30 16 C -5.599 0.6553 -0.9864 0
M  V30 17 C 3.6729 -0.4964 -0.885 0
M  V30 18 C 2.6115 -1.8611 0.8231 0
M  V30 19 C -6.0814 -0.0679 -2.2171 0
M  V30 20 C -5.8559 2.1373 -0.8374 0
M  V30 21 O 4.8032 -0.061 -1.594 0
M  V30 22 C 3.7639 -1.4317 0.1618 0
M  V30 23 C 6.1038 0.029 -1.0761 0
M  V30 24 C 7.1879 -0.178 -1.9397 0
M  V30 25 C 6.3488 0.3616 0.2695 0
M  V30 26 C 8.4992 -0.0926 -1.4606 0
M  V30 27 C 7.6611 0.4521 0.7447 0
M  V30 28 C 8.7357 0.22 -0.1185 0
M  V30 29 H -2.8464 2.0833 1.803 0
M  V30 30 H 0.0125 0.9648 -1.6746 0
M  V30 31 H -5.1534 1.1901 1.8488 0
M  V30 32 H -2.7127 -1.5626 0.4494 0
M  V30 33 H -3.5417 -2.2749 1.8773 0
M  V30 34 H -1.8404 -1.6992 2.0091 0
M  V30 35 H -2.3821 -0.0535 3.9825 0
M  V30 36 H -3.7563 1.0983 3.824 0
M  V30 37 H -4.0812 -0.6654 3.9904 0
M  V30 38 H -4.8556 -1.1189 -0.1569 0
M  V30 39 H 2.3468 0.6764 -2.0994 0
M  V30 40 H 0.4761 -1.7316 0.9531 0
M  V30 41 H 2.6868 -2.5852 1.6243 0
M  V30 42 H -6.5982 0.6192 -2.9198 0
M  V30 43 H -6.7933 -0.8703 -1.927 0
M  V30 44 H -5.2175 -0.5221 -2.7475 0
M  V30 45 H -6.3653 2.557 -1.7305 0
M  V30 46 H -6.5047 2.3187 0.0457 0
M  V30 47 H -4.8979 2.6812 -0.7023 0
M  V30 48 H 4.7194 -1.8481 0.4495 0
M  V30 49 H 7.0125 -0.4167 -2.9804 0
M  V30 50 H 5.5297 0.5665 0.9447 0
M  V30 51 H 9.3323 -0.2679 -2.1292 0
M  V30 52 H 7.8454 0.7057 1.7807 0
M  V30 53 H 9.7508 0.2861 0.2517 0
M  V30 END ATOM
M  V30 BEGIN BOND
M  V30 1 2 1 2
M  V30 2 1 2 3
M  V30 3 1 2 4
M  V30 4 1 3 5
M  V30 5 1 4 6
M  V30 6 1 4 7
M  V30 7 1 5 8
M  V30 8 1 5 9
M  V30 9 1 6 10
M  V30 10 1 6 11
M  V30 11 1 7 12
M  V30 12 3 8 13
M  V30 13 2 9 14
M  V30 14 1 9 15
M  V30 15 2 12 16
M  V30 16 1 14 17
M  V30 17 2 15 18
M  V30 18 1 16 19
M  V30 19 1 16 20
M  V30 20 1 17 21
M  V30 21 2 17 22
M  V30 22 1 21 23
M  V30 23 2 23 24
M  V30 24 1 23 25
M  V30 25 1 24 26
M  V30 26 2 25 27
M  V30 27 2 26 28
M  V30 28 1 6 7
M  V30 29 1 18 22
M  V30 30 1 27 28
M  V30 31 1 4 29
M  V30 32 1 5 30
M  V30 33 1 7 31
M  V30 34 1 10 32
M  V30 35 1 10 33
M  V30 36 1 10 34
M  V30 37 1 11 35
M  V30 38 1 11 36
M  V30 39 1 11 37
M  V30 40 1 12 38
M  V30 41 1 14 39
M  V30 42 1 15 40
M  V30 43 1 18 41
M  V30 44 1 19 42
M  V30 45 1 19 43
M  V30 46 1 19 44
M  V30 47 1 20 45
M  V30 48 1 20 46
M  V30 49 1 20 47
M  V30 50 1 22 48
M  V30 51 1 24 49
M  V30 52 1 25 50
M  V30 53 1 26 51
M  V30 54 1 27 52
M  V30 55 1 28 53
M  V30 END BOND
M  V30 BEGIN COLLECTION
M  V30 MDLV30/STEABS ATOMS=(3 4 5 7)
M  V30 END COLLECTION
M  V30 END CTAB
M  END
>  <Structure No>
5134

>  <LogS>
-7.5746

>  <MMFF94 Energy>
79.349

$$$$
Compound 5135
Actelion Java MolfileCreator 2.0

  0  0  0  0  0  0              0 V3000
M  V30 BEGIN CTAB
M  V30 COUNTS 49 51 0 0 0
M  V30 BEGIN ATOM
M  V30 1 O 0.4009 0.8822 -1.8452 0
M  V30 2 C 1.3529 0.0611 -1.7234 0
M  V30 3 O 1.1221 -1.316 -1.8163 0
M  V30 4 C 2.7599 0.5683 -1.5944 0
M  V30 5 C -0.1841 -1.8861 -1.8011 0 CFG=1
M  V30 6 C 3.0754 1.529 -0.4246 0
M  V30 7 C 3.5977 0.0698 -0.396 0
M  V30 8 C -0.1231 -3.2427 -2.3617 0
M  V30 9 C -0.7126 -1.9068 -0.3842 0
M  V30 10 C 1.962 1.9223 0.5709 0
M  V30 11 C 4.0881 2.6418 -0.7409 0
M  V30 12 C 5.0901 -0.1617 -0.6872 0
M  V30 13 C 2.9767 -0.9004 0.6305 0
M  V30 14 N -0.0742 -4.3114 -2.8017 0
M  V30 15 C -1.6675 -0.9579 0.022 0
M  V30 16 C -0.1925 -2.8051 0.5671 0
M  V30 17 C -2.131 -0.9358 1.3519 0
M  V30 18 C -0.6442 -2.7754 1.8882 0
M  V30 19 O -3.0561 0.0185 1.8019 0
M  V30 20 C -1.6131 -1.8489 2.2761 0
M  V30 21 C -4.066 0.6131 1.0329 0
M  V30 22 C -4.685 -0.0572 -0.0399 0
M  V30 23 C -4.5017 1.8963 1.3821 0
M  V30 24 C -5.7073 0.5666 -0.7599 0
M  V30 25 C -5.5261 2.5144 0.6608 0
M  V30 26 C -6.1234 1.8538 -0.4138 0
M  V30 27 H 3.3172 0.7414 -2.5398 0
M  V30 28 H -0.8583 -1.3007 -2.4646 0
M  V30 29 H 1.5062 2.8836 0.2553 0
M  V30 30 H 2.4071 2.0615 1.5784 0
M  V30 31 H 1.1373 1.1892 0.6516 0
M  V30 32 H 4.8172 2.7271 0.0919 0
M  V30 33 H 4.6379 2.4674 -1.689 0
M  V30 34 H 3.5614 3.613 -0.8465 0
M  V30 35 H 5.2809 -1.2489 -0.7981 0
M  V30 36 H 5.433 0.3268 -1.6219 0
M  V30 37 H 5.6946 0.2159 0.1653 0
M  V30 38 H 3.2457 -1.9465 0.369 0
M  V30 39 H 1.8745 -0.8543 0.6897 0
M  V30 40 H 3.3859 -0.6773 1.6367 0
M  V30 41 H -2.0253 -0.2225 -0.685 0
M  V30 42 H 0.5678 -3.5245 0.2876 0
M  V30 43 H -0.2451 -3.4732 2.6126 0
M  V30 44 H -1.9553 -1.831 3.3047 0
M  V30 45 H -4.3992 -1.0696 -0.3002 0
M  V30 46 H -4.0442 2.4141 2.2147 0
M  V30 47 H -6.1811 0.0489 -1.5835 0
M  V30 48 H -5.8562 3.5081 0.9366 0
M  V30 49 H -6.9169 2.3342 -0.9697 0
M  V30 END ATOM
M  V30 BEGIN BOND
M  V30 1 2 1 2
M  V30 2 1 2 3
M  V30 3 1 2 4
M  V30 4 1 3 5
M  V30 5 1 4 6
M  V30 6 1 4 7
M  V30 7 1 5 8
M  V30 8 1 5 9
M  V30 9 1 6 10
M  V30 10 1 6 11
M  V30 11 1 7 12
M  V30 12 1 7 13
M  V30 13 3 8 14
M  V30 14 2 9 15
M  V30 15 1 9 16
M  V30 16 1 15 17
M  V30 17 2 16 18
M  V30 18 1 17 19
M  V30 19 2 17 20
M  V30 20 1 19 21
M  V30 21 2 21 22
M  V30 22 1 21 23
M  V30 23 1 22 24
M  V30 24 2 23 25
M  V30 25 2 24 26
M  V30 26 1 6 7
M  V30 27 1 18 20
M  V30 28 1 25 26
M  V30 29 1 4 27
M  V30 30 1 5 28
M  V30 31 1 10 29
M  V30 32 1 10 30
M  V30 33 1 10 31
M  V30 34 1 11 32
M  V30 35 1 11 33
M  V30 36 1 11 34
M  V30 37 1 12 35
M  V30 38 1 12 36
M  V30 39 1 12 37
M  V30 40 1 13 38
M  V30 41 1 13 39
M  V30 42 1 13 40
M  V30 43 1 15 41
M  V30 44 1 16 42
M  V30 45 1 18 43
M  V30 46 1 20 44
M  V30 47 1 22 45
M  V30 48 1 23 46
M  V30 49 1 24 47
M  V30 50 1 25 48
M  V30 51 1 26 49
M  V30 END BOND
M  V30 BEGIN COLLECTION
M  V30 MDLV30/STEABS ATOMS=(1 5)
M  V30 END COLLECTION
M  V30 END CTAB
M  END
>  <Structure No>
5135

>  <LogS>
-6.0248

>  <MMFF94 Energy>
89.981

$$$$
Compound 5136
Actelion Java MolfileCreator 2.0

  0  0  0  0  0  0              0 V3000
M  V30 BEGIN CTAB
M  V30 COUNTS 24 23 0 0 0
M  V30 BEGIN ATOM
M  V30 1 O 3.55 -1.0245 -0.8668 0
M  V30 2 C 2.9342 -0.2671 -0.0714 0
M  V30 3 O 3.2021 1.0959 -0.0722 0 CHG=-1
M  V30 4 C 1.8934 -0.827 0.849 0
M  V30 5 C 0.579 -1.1356 0.1124 0
M  V30 6 C -0.1463 0.1313 -0.4038 0 CFG=2
M  V30 7 C -0.6089 1.0216 0.7353 0
M  V30 8 C -1.3055 -0.2044 -1.3716 0
M  V30 9 O -1.279 0.5554 1.6446 0
M  V30 10 C -0.2354 2.4742 0.7868 0
M  V30 11 C -2.4127 -1.0815 -0.7795 0
M  V30 12 H 2.2835 -1.7673 1.2948 0
M  V30 13 H 1.7111 -0.1184 1.685 0
M  V30 14 H -0.083 -1.6891 0.8123 0
M  V30 15 H 0.7966 -1.8155 -0.7406 0
M  V30 16 H 0.5852 0.6996 -1.0177 0
M  V30 17 H -0.8899 -0.7229 -2.2633 0
M  V30 18 H -1.7608 0.7437 -1.7329 0
M  V30 19 H -1.1569 3.0924 0.8186 0
M  V30 20 H 0.3649 2.6697 1.6998 0
M  V30 21 H 0.3597 2.775 -0.1001 0
M  V30 22 H -2.013 -2.0644 -0.4568 0
M  V30 23 H -3.1836 -1.2668 -1.5567 0
M  V30 24 H -2.9078 -0.5777 0.0749 0
M  V30 END ATOM
M  V30 BEGIN BOND
M  V30 1 2 1 2
M  V30 2 1 2 3
M  V30 3 1 2 4
M  V30 4 1 4 5
M  V30 5 1 5 6
M  V30 6 1 6 7
M  V30 7 1 6 8
M  V30 8 2 7 9
M  V30 9 1 7 10
M  V30 10 1 8 11
M  V30 11 1 4 12
M  V30 12 1 4 13
M  V30 13 1 5 14
M  V30 14 1 5 15
M  V30 15 1 6 16
M  V30 16 1 8 17
M  V30 17 1 8 18
M  V30 18 1 10 19
M  V30 19 1 10 20
M  V30 20 1 10 21
M  V30 21 1 11 22
M  V30 22 1 11 23
M  V30 23 1 11 24
M  V30 END BOND
M  V30 BEGIN COLLECTION
M  V30 MDLV30/STEABS ATOMS=(1 6)
M  V30 END COLLECTION
M  V30 END CTAB
M  END
>  <Structure No>
5136

>  <LogS>
-0.451

>  <MMFF94 Energy>
9.4246

$$$$
Compound 5137
Actelion Java MolfileCreator 2.0

  0  0  0  0  0  0              0 V3000
M  V30 BEGIN CTAB
M  V30 COUNTS 20 19 0 0 0
M  V30 BEGIN ATOM
M  V30 1 O 1.8825 0.1567 -1.2547 0
M  V30 2 C 1.2217 0.1441 -0.1796 0
M  V30 3 N -0.1603 -0.2678 -0.1943 0
M  V30 4 N 1.8529 0.5441 1.046 0
M  V30 5 C -1.0101 0.1121 -1.3046 0
M  V30 6 C -0.7096 -0.9636 0.9759 0
M  V30 7 C 3.2721 0.8702 1.1056 0
M  V30 8 O -0.5751 0.9065 -2.1832 0
M  V30 9 C -2.4269 -0.3745 -1.4361 0
M  V30 10 C -3.2984 0.3333 -0.4936 0
M  V30 11 N -3.9864 0.8919 0.2507 0
M  V30 12 H 1.2837 0.6403 1.9166 0
M  V30 13 H -1.3695 -1.7985 0.6678 0
M  V30 14 H -1.2797 -0.248 1.6047 0
M  V30 15 H 0.1007 -1.4164 1.5863 0
M  V30 16 H 3.8739 -0.015 0.8106 0
M  V30 17 H 3.549 1.1641 2.14 0
M  V30 18 H 3.4941 1.7159 0.4211 0
M  V30 19 H -2.4862 -1.4677 -1.2612 0
M  V30 20 H -2.7972 -0.1855 -2.4664 0
M  V30 END ATOM
M  V30 BEGIN BOND
M  V30 1 2 1 2
M  V30 2 1 2 3
M  V30 3 1 2 4
M  V30 4 1 3 5
M  V30 5 1 3 6
M  V30 6 1 4 7
M  V30 7 2 5 8
M  V30 8 1 5 9
M  V30 9 1 9 10
M  V30 10 3 10 11
M  V30 11 1 4 12
M  V30 12 1 6 13
M  V30 13 1 6 14
M  V30 14 1 6 15
M  V30 15 1 7 16
M  V30 16 1 7 17
M  V30 17 1 7 18
M  V30 18 1 9 19
M  V30 19 1 9 20
M  V30 END BOND
M  V30 END CTAB
M  END
>  <Structure No>
5137

>  <LogS>
0.1709

>  <MMFF94 Energy>
-87.693

$$$$
Compound 5138
Actelion Java MolfileCreator 2.0

  0  0  0  0  0  0              0 V3000
M  V30 BEGIN CTAB
M  V30 COUNTS 22 23 0 0 0
M  V30 BEGIN ATOM
M  V30 1 Cl -4.0603 -1.3829 -1.9365 0
M  V30 2 C -2.9981 -0.7571 -0.673 0
M  V30 3 C -3.5331 -0.3967 0.5777 0
M  V30 4 C -1.6165 -0.625 -0.9142 0
M  V30 5 Cl -5.2629 -0.5586 0.886 0
M  V30 6 C -2.685 0.0878 1.586 0
M  V30 7 Cl -0.9467 -1.1481 -2.4639 0
M  V30 8 C -0.7712 -0.123 0.0992 0
M  V30 9 Cl -3.3102 0.5441 3.1661 0
M  V30 10 C -1.3166 0.2194 1.3446 0
M  V30 11 C 0.683 0.0508 -0.1148 0
M  V30 12 C 1.6006 -0.5965 0.7248 0
M  V30 13 C 1.1568 0.893 -1.1313 0
M  V30 14 C 2.9765 -0.4242 0.5401 0
M  V30 15 C 2.5309 1.0706 -1.3236 0
M  V30 16 Cl 4.085 -1.2674 1.6146 0
M  V30 17 C 3.4493 0.4099 -0.4885 0
M  V30 18 Cl 3.0723 2.1323 -2.6173 0
M  V30 19 Cl 5.1824 0.6298 -0.7265 0
M  V30 20 H -0.6749 0.6037 2.129 0
M  V30 21 H 1.2454 -1.2427 1.5187 0
M  V30 22 H 0.4566 1.4181 -1.77 0
M  V30 END ATOM
M  V30 BEGIN BOND
M  V30 1 1 1 2
M  V30 2 2 2 3
M  V30 3 1 2 4
M  V30 4 1 3 5
M  V30 5 1 3 6
M  V30 6 1 4 7
M  V30 7 2 4 8
M  V30 8 1 6 9
M  V30 9 2 6 10
M  V30 10 1 8 11
M  V30 11 2 11 12
M  V30 12 1 11 13
M  V30 13 1 12 14
M  V30 14 2 13 15
M  V30 15 1 14 16
M  V30 16 2 14 17
M  V30 17 1 15 18
M  V30 18 1 17 19
M  V30 19 1 8 10
M  V30 20 1 15 17
M  V30 21 1 10 20
M  V30 22 1 12 21
M  V30 23 1 13 22
M  V30 END BOND
M  V30 END CTAB
M  END
>  <Structure No>
5138

>  <LogS>
-8.7202

>  <MMFF94 Energy>
60.652

$$$$
Compound 5139
Actelion Java MolfileCreator 2.0

  0  0  0  0  0  0              0 V3000
M  V30 BEGIN CTAB
M  V30 COUNTS 26 26 0 0 0
M  V30 BEGIN ATOM
M  V30 1 O 0.2361 0.1574 -2.0478 0
M  V30 2 C 0.4924 -0.6934 -1.1535 0
M  V30 3 N -0.4874 -1.025 -0.157 0
M  V30 4 C 1.8345 -1.3593 -1.1421 0
M  V30 5 C -1.6705 -0.2487 0.0975 0
M  V30 6 N 2.8402 -0.4508 -0.5984 0
M  V30 7 C -1.6691 1.1536 -0.024 0
M  V30 8 C -2.8365 -0.8948 0.5377 0
M  V30 9 C 2.9047 -0.1175 0.7948 0
M  V30 10 C -2.8269 1.8866 0.2552 0
M  V30 11 C -3.9923 -0.1584 0.815 0
M  V30 12 O 2.1069 -0.6461 1.6157 0
M  V30 13 C 3.9451 0.835 1.2857 0
M  V30 14 C -3.9888 1.231 0.67 0
M  V30 15 H -0.367 -1.9202 0.3686 0
M  V30 16 H 1.81 -2.297 -0.5466 0
M  V30 17 H 2.1091 -1.6324 -2.1838 0
M  V30 18 H 3.5455 -0.0389 -1.2504 0
M  V30 19 H -0.7708 1.6853 -0.3076 0
M  V30 20 H -2.851 -1.9709 0.6564 0
M  V30 21 H -2.8205 2.9647 0.1591 0
M  V30 22 H -4.8902 -0.6649 1.1448 0
M  V30 23 H 4.9408 0.3469 1.2466 0
M  V30 24 H 3.7312 1.1412 2.3319 0
M  V30 25 H 3.956 1.7407 0.6441 0
M  V30 26 H -4.8834 1.8002 0.8873 0
M  V30 END ATOM
M  V30 BEGIN BOND
M  V30 1 2 1 2
M  V30 2 1 2 3
M  V30 3 1 2 4
M  V30 4 1 3 5
M  V30 5 1 4 6
M  V30 6 2 5 7
M  V30 7 1 5 8
M  V30 8 1 6 9
M  V30 9 1 7 10
M  V30 10 2 8 11
M  V30 11 2 9 12
M  V30 12 1 9 13
M  V30 13 2 10 14
M  V30 14 1 11 14
M  V30 15 1 3 15
M  V30 16 1 4 16
M  V30 17 1 4 17
M  V30 18 1 6 18
M  V30 19 1 7 19
M  V30 20 1 8 20
M  V30 21 1 10 21
M  V30 22 1 11 22
M  V30 23 1 13 23
M  V30 24 1 13 24
M  V30 25 1 13 25
M  V30 26 1 14 26
M  V30 END BOND
M  V30 END CTAB
M  END
>  <Structure No>
5139

>  <LogS>
-1.5678

>  <MMFF94 Energy>
1.2325

$$$$
Compound 5140
Actelion Java MolfileCreator 2.0

  0  0  0  0  0  0              0 V3000
M  V30 BEGIN CTAB
M  V30 COUNTS 36 37 0 0 0
M  V30 BEGIN ATOM
M  V30 1 Cl 4.9926 -1.3895 3.1898 0
M  V30 2 C 3.4329 -0.897 2.5473 0
M  V30 3 C 3.2378 -0.7842 1.1632 0
M  V30 4 C 2.3844 -0.6301 3.4324 0
M  V30 5 O 4.3149 -1.0714 0.3062 0
M  V30 6 C 1.9749 -0.3902 0.6798 0
M  V30 7 C 1.132 -0.2362 2.9515 0
M  V30 8 C 4.2903 -0.9705 -1.1168 0
M  V30 9 C 0.927 -0.0969 1.5649 0
M  V30 10 Cl -0.1755 -0.0104 4.1067 0
M  V30 11 C 4.2518 0.4367 -1.53 0
M  V30 12 N -0.3412 0.3135 1.0337 0
M  V30 13 C 4.2173 1.5933 -1.8678 0
M  V30 14 N -0.9906 -0.3283 0.0769 0
M  V30 15 C -1.0323 1.4357 1.2998 0
M  V30 16 C -2.0846 0.4241 -0.1846 0
M  V30 17 O -0.6722 2.3232 2.118 0
M  V30 18 O -2.1108 1.5117 0.5621 0
M  V30 19 C -3.1237 0.0668 -1.2239 0
M  V30 20 C -2.4706 0.0964 -2.6171 0
M  V30 21 C -3.6677 -1.3443 -0.9356 0
M  V30 22 C -4.288 1.0761 -1.1852 0
M  V30 23 H 2.5404 -0.7413 4.4983 0
M  V30 24 H 1.7963 -0.2918 -0.3818 0
M  V30 25 H 3.4221 -1.5222 -1.5346 0
M  V30 26 H 5.2159 -1.4286 -1.5212 0
M  V30 27 H 4.1866 2.6088 -2.1639 0
M  V30 28 H -2.0605 1.1068 -2.834 0
M  V30 29 H -3.2144 -0.1559 -3.4037 0
M  V30 30 H -1.6384 -0.6379 -2.6778 0
M  V30 31 H -4.1222 -1.3871 0.078 0
M  V30 32 H -4.4445 -1.6243 -1.6798 0
M  V30 33 H -2.8537 -2.0997 -0.9854 0
M  V30 34 H -4.7716 1.0774 -0.184 0
M  V30 35 H -3.9239 2.1041 -1.4004 0
M  V30 36 H -5.0582 0.8157 -1.9431 0
M  V30 END ATOM
M  V30 BEGIN BOND
M  V30 1 1 1 2
M  V30 2 2 2 3
M  V30 3 1 2 4
M  V30 4 1 3 5
M  V30 5 1 3 6
M  V30 6 2 4 7
M  V30 7 1 5 8
M  V30 8 2 6 9
M  V30 9 1 7 10
M  V30 10 1 8 11
M  V30 11 1 9 12
M  V30 12 3 11 13
M  V30 13 1 12 14
M  V30 14 1 12 15
M  V30 15 2 14 16
M  V30 16 2 15 17
M  V30 17 1 15 18
M  V30 18 1 16 19
M  V30 19 1 19 20
M  V30 20 1 19 21
M  V30 21 1 19 22
M  V30 22 1 7 9
M  V30 23 1 16 18
M  V30 24 1 4 23
M  V30 25 1 6 24
M  V30 26 1 8 25
M  V30 27 1 8 26
M  V30 28 1 13 27
M  V30 29 1 20 28
M  V30 30 1 20 29
M  V30 31 1 20 30
M  V30 32 1 21 31
M  V30 33 1 21 32
M  V30 34 1 21 33
M  V30 35 1 22 34
M  V30 36 1 22 35
M  V30 37 1 22 36
M  V30 END BOND
M  V30 END CTAB
M  END
>  <Structure No>
5140

>  <LogS>
-5.9648

>  <MMFF94 Energy>
59.622

$$$$
Compound 5141
Actelion Java MolfileCreator 2.0

  0  0  0  0  0  0              0 V3000
M  V30 BEGIN CTAB
M  V30 COUNTS 27 28 0 0 0
M  V30 BEGIN ATOM
M  V30 1 O -2.2146 1.5815 -1.0277 0
M  V30 2 C -1.1621 0.9582 -0.7107 0
M  V30 3 N -1.2452 -0.3534 -0.2686 0
M  V30 4 N 0.0568 1.5945 -0.8082 0
M  V30 5 C -0.1042 -1.035 0.0923 0
M  V30 6 C -2.5623 -1.0067 -0.1367 0
M  V30 7 C 1.173 0.8893 -0.4794 0
M  V30 8 C 0.1563 2.9699 -1.3148 0
M  V30 9 O -0.1581 -2.2185 0.5258 0
M  V30 10 C 1.1165 -0.3854 -0.0322 0
M  V30 11 C -3.1482 -0.7494 1.2476 0
M  V30 12 N 2.449 1.3222 -0.5324 0
M  V30 13 N 2.3646 -0.8127 0.2205 0
M  V30 14 C 3.1516 0.2453 -0.094 0
M  V30 15 C 2.7995 -2.1157 0.7129 0
M  V30 16 H -3.2685 -0.636 -0.9111 0
M  V30 17 H -2.48 -2.1029 -0.3037 0
M  V30 18 H 1.1085 3.4499 -1.0041 0
M  V30 19 H 0.1012 2.9623 -2.4236 0
M  V30 20 H -0.669 3.5948 -0.9115 0
M  V30 21 H -3.2797 0.341 1.4109 0
M  V30 22 H -2.4735 -1.1565 2.03 0
M  V30 23 H -4.1373 -1.2465 1.3333 0
M  V30 24 H 4.2305 0.2384 -0.0071 0
M  V30 25 H 2.3459 -2.311 1.7072 0
M  V30 26 H 2.4883 -2.9081 4.0E-4 0
M  V30 27 H 3.9053 -2.1429 0.815 0
M  V30 END ATOM
M  V30 BEGIN BOND
M  V30 1 2 1 2
M  V30 2 1 2 3
M  V30 3 1 2 4
M  V30 4 1 3 5
M  V30 5 1 3 6
M  V30 6 1 4 7
M  V30 7 1 4 8
M  V30 8 2 5 9
M  V30 9 1 5 10
M  V30 10 1 6 11
M  V30 11 1 7 12
M  V30 12 1 10 13
M  V30 13 2 12 14
M  V30 14 1 13 15
M  V30 15 2 7 10
M  V30 16 1 13 14
M  V30 17 1 6 16
M  V30 18 1 6 17
M  V30 19 1 8 18
M  V30 20 1 8 19
M  V30 21 1 8 20
M  V30 22 1 11 21
M  V30 23 1 11 22
M  V30 24 1 11 23
M  V30 25 1 14 24
M  V30 26 1 15 25
M  V30 27 1 15 26
M  V30 28 1 15 27
M  V30 END BOND
M  V30 END CTAB
M  END
>  <Structure No>
5141

>  <LogS>
-0.719

>  <MMFF94 Energy>
-125.19

$$$$
Compound 5142
Actelion Java MolfileCreator 2.0

  0  0  0  0  0  0              0 V3000
M  V30 BEGIN CTAB
M  V30 COUNTS 33 33 0 0 0
M  V30 BEGIN ATOM
M  V30 1 O -1.893 0.4729 1.814 0
M  V30 2 C -2.0839 0.0271 0.6489 0
M  V30 3 O -3.3776 -0.0377 0.1229 0
M  V30 4 C -0.949 -0.4755 -0.1608 0
M  V30 5 C -4.5252 0.3906 0.8485 0
M  V30 6 N -1.1486 -1.6028 -1.0346 0
M  V30 7 C 0.2624 0.1123 -0.1473 0
M  V30 8 C -5.7705 0.1746 0.0039 0
M  V30 9 C -2.033 -2.6944 -0.7493 0
M  V30 10 C 0.5716 1.3738 0.5648 0
M  V30 11 O -2.5902 -2.808 0.3747 0
M  V30 12 C 1.8168 1.793 0.8331 0
M  V30 13 C 3.0472 1.0009 0.6132 0
M  V30 14 C 3.1358 -0.3472 1.0074 0
M  V30 15 C 4.181 1.6338 0.0797 0
M  V30 16 C 4.3253 -1.0588 0.8227 0
M  V30 17 C 5.3688 0.9186 -0.1033 0
M  V30 18 C 5.4393 -0.4278 0.2633 0
M  V30 19 H -4.4312 1.4702 1.0966 0
M  V30 20 H -4.6143 -0.1945 1.7895 0
M  V30 21 H -0.5621 -1.6838 -1.8961 0
M  V30 22 H 1.0484 -0.3331 -0.7454 0
M  V30 23 H -6.6681 0.5061 0.5674 0
M  V30 24 H -5.8774 -0.9025 -0.2448 0
M  V30 25 H -5.6974 0.761 -0.9364 0
M  V30 26 H -2.2013 -3.4538 -1.5011 0
M  V30 27 H -0.2394 2.0502 0.8027 0
M  V30 28 H 1.9369 2.7974 1.2217 0
M  V30 29 H 2.2931 -0.8437 1.4722 0
M  V30 30 H 4.1424 2.6785 -0.2041 0
M  V30 31 H 4.3859 -2.0972 1.122 0
M  V30 32 H 6.2357 1.4096 -0.5263 0
M  V30 33 H 6.3599 -0.9794 0.123 0
M  V30 END ATOM
M  V30 BEGIN BOND
M  V30 1 2 1 2
M  V30 2 1 2 3
M  V30 3 1 2 4
M  V30 4 1 3 5
M  V30 5 1 4 6
M  V30 6 2 4 7
M  V30 7 1 5 8
M  V30 8 1 6 9
M  V30 9 1 7 10
M  V30 10 2 9 11
M  V30 11 2 10 12
M  V30 12 1 12 13
M  V30 13 2 13 14
M  V30 14 1 13 15
M  V30 15 1 14 16
M  V30 16 2 15 17
M  V30 17 2 16 18
M  V30 18 1 17 18
M  V30 19 1 5 19
M  V30 20 1 5 20
M  V30 21 1 6 21
M  V30 22 1 7 22
M  V30 23 1 8 23
M  V30 24 1 8 24
M  V30 25 1 8 25
M  V30 26 1 9 26
M  V30 27 1 10 27
M  V30 28 1 12 28
M  V30 29 1 14 29
M  V30 30 1 15 30
M  V30 31 1 16 31
M  V30 32 1 17 32
M  V30 33 1 18 33
M  V30 END BOND
M  V30 END CTAB
M  END
>  <Structure No>
5142

>  <LogS>
-3.3483

>  <MMFF94 Energy>
35.817

$$$$
Compound 5143
Actelion Java MolfileCreator 2.0

  0  0  0  0  0  0              0 V3000
M  V30 BEGIN CTAB
M  V30 COUNTS 22 23 0 0 0
M  V30 BEGIN ATOM
M  V30 1 Cl 0.5527 1.2899 -2.3965 0
M  V30 2 C 1.4545 0.5878 -1.0491 0
M  V30 3 C 2.8622 0.6102 -1.0577 0
M  V30 4 C 0.7666 0.0054 0.0361 0
M  V30 5 Cl 3.7316 1.3345 -2.4111 0
M  V30 6 C 3.5762 0.0533 0.0167 0
M  V30 7 C 1.4941 -0.5473 1.1067 0
M  V30 8 C -0.7106 -0.0252 0.0528 0
M  V30 9 Cl 5.3352 0.0592 0.0468 0
M  V30 10 C 2.8902 -0.5201 1.0896 0
M  V30 11 Cl 0.6822 -1.289 2.4823 0
M  V30 12 C -1.4244 -1.0777 -0.5562 0
M  V30 13 C -1.4069 1.0132 0.688 0
M  V30 14 Cl -0.5611 -2.3946 -1.3539 0
M  V30 15 C -2.831 -1.0741 -0.5219 0
M  V30 16 C -2.8034 1.0099 0.7183 0
M  V30 17 Cl -3.7662 -2.364 -1.2674 0
M  V30 18 C -3.5129 -0.031 0.1144 0
M  V30 19 Cl -3.6663 2.3133 1.5144 0
M  V30 20 H 3.4455 -0.9482 1.9149 0
M  V30 21 H -0.8627 1.8237 1.1579 0
M  V30 22 H -4.5955 -0.0298 0.14 0
M  V30 END ATOM
M  V30 BEGIN BOND
M  V30 1 1 1 2
M  V30 2 2 2 3
M  V30 3 1 2 4
M  V30 4 1 3 5
M  V30 5 1 3 6
M  V30 6 2 4 7
M  V30 7 1 4 8
M  V30 8 1 6 9
M  V30 9 2 6 10
M  V30 10 1 7 11
M  V30 11 2 8 12
M  V30 12 1 8 13
M  V30 13 1 12 14
M  V30 14 1 12 15
M  V30 15 2 13 16
M  V30 16 1 15 17
M  V30 17 2 15 18
M  V30 18 1 16 19
M  V30 19 1 7 10
M  V30 20 1 16 18
M  V30 21 1 10 20
M  V30 22 1 13 21
M  V30 23 1 18 22
M  V30 END BOND
M  V30 BEGIN COLLECTION
M  V30 MDLV30/STEABS BONDS=(1 7)
M  V30 END COLLECTION
M  V30 END CTAB
M  END
>  <Structure No>
5143

>  <LogS>
-8.68

>  <MMFF94 Energy>
44.508

$$$$
Compound 5144
Actelion Java MolfileCreator 2.0

  0  0  0  0  0  0              0 V3000
M  V30 BEGIN CTAB
M  V30 COUNTS 22 23 0 0 0
M  V30 BEGIN ATOM
M  V30 1 Cl 0.8463 1.7872 -1.9755 0
M  V30 2 C 1.5587 0.6314 -0.8451 0
M  V30 3 C 2.9529 0.4386 -0.8217 0
M  V30 4 C 0.7324 -0.0989 0.0345 0
M  V30 5 Cl 3.9946 1.3474 -1.9177 0
M  V30 6 C 3.5158 -0.4815 0.0786 0
M  V30 7 C -0.7351 0.0971 0.0172 0
M  V30 8 C 1.3094 -1.0175 0.9315 0
M  V30 9 Cl 5.2527 -0.7537 0.1416 0
M  V30 10 C 2.6933 -1.202 0.9474 0
M  V30 11 C -1.3276 1.0745 0.8443 0
M  V30 12 C -1.5441 -0.6928 -0.8261 0
M  V30 13 Cl 0.3208 -1.9528 2.049 0
M  V30 14 Cl -0.3277 2.0715 1.9052 0
M  V30 15 C -2.7206 1.2549 0.8228 0
M  V30 16 Cl -0.8165 -1.9197 -1.8673 0
M  V30 17 C -2.9357 -0.5012 -0.8371 0
M  V30 18 Cl -3.5024 2.4615 1.8368 0
M  V30 19 C -3.5144 0.4685 -0.0151 0
M  V30 20 Cl -3.983 -1.4631 -1.8727 0
M  V30 21 H 3.1324 -1.9099 1.6394 0
M  V30 22 H -4.5878 0.6119 -0.0276 0
M  V30 END ATOM
M  V30 BEGIN BOND
M  V30 1 1 1 2
M  V30 2 2 2 3
M  V30 3 1 2 4
M  V30 4 1 3 5
M  V30 5 1 3 6
M  V30 6 1 4 7
M  V30 7 2 4 8
M  V30 8 1 6 9
M  V30 9 2 6 10
M  V30 10 2 7 11
M  V30 11 1 7 12
M  V30 12 1 8 13
M  V30 13 1 11 14
M  V30 14 1 11 15
M  V30 15 1 12 16
M  V30 16 2 12 17
M  V30 17 1 15 18
M  V30 18 2 15 19
M  V30 19 1 17 20
M  V30 20 1 8 10
M  V30 21 1 17 19
M  V30 22 1 10 21
M  V30 23 1 19 22
M  V30 END BOND
M  V30 END CTAB
M  END
>  <Structure No>
5144

>  <LogS>
-9.1999

>  <MMFF94 Energy>
49.155

$$$$
Compound 5145
Actelion Java MolfileCreator 2.0

  0  0  0  0  0  0              0 V3000
M  V30 BEGIN CTAB
M  V30 COUNTS 39 39 0 0 0
M  V30 BEGIN ATOM
M  V30 1 O 1.9914 3.0282 0.1592 0
M  V30 2 N 1.1381 2.1666 0.4544 0 CHG=1
M  V30 3 O -0.1129 2.5711 0.8564 0 CHG=-1
M  V30 4 C 1.4449 0.7696 0.315 0
M  V30 5 C 0.6124 -0.0518 -0.4771 0
M  V30 6 C 2.5801 0.2186 0.9608 0
M  V30 7 N -0.5965 0.4941 -1.0331 0
M  V30 8 C 0.9779 -1.3925 -0.7232 0
M  V30 9 C 2.9259 -1.1335 0.7246 0
M  V30 10 C 3.4266 1.0796 1.8731 0
M  V30 11 C -1.9302 -0.0492 -0.7207 0
M  V30 12 N 0.261 -2.198 -1.6733 0 CHG=1
M  V30 13 C 2.1157 -1.9209 -0.1026 0
M  V30 14 C 4.1482 -1.7598 1.3477 0
M  V30 15 C -2.1888 -0.0211 0.8053 0
M  V30 16 C -3.0194 0.6744 -1.5512 0
M  V30 17 O 0.1964 -3.4363 -1.5282 0
M  V30 18 O -0.1996 -1.6406 -2.8443 0 CHG=-1
M  V30 19 C -3.489 -0.7213 1.2013 0
M  V30 20 C -3.2793 2.1241 -1.1299 0
M  V30 21 H -0.5103 1.3704 -1.5957 0
M  V30 22 H 4.2425 1.5513 1.287 0
M  V30 23 H 2.82 1.8709 2.3604 0
M  V30 24 H 3.8676 0.4878 2.7006 0
M  V30 25 H -1.9589 -1.1122 -1.036 0
M  V30 26 H 2.3938 -2.9494 -0.2991 0
M  V30 27 H 5.033 -1.1057 1.1992 0
M  V30 28 H 3.9767 -1.9138 2.4335 0
M  V30 29 H 4.3835 -2.7445 0.8907 0
M  V30 30 H -1.3578 -0.5471 1.3228 0
M  V30 31 H -2.2016 1.0208 1.1852 0
M  V30 32 H -2.7138 0.6662 -2.6201 0
M  V30 33 H -3.9737 0.1084 -1.4933 0
M  V30 34 H -4.3696 -0.1549 0.8343 0
M  V30 35 H -3.5546 -0.7792 2.3082 0
M  V30 36 H -3.5149 -1.7533 0.7919 0
M  V30 37 H -2.338 2.7094 -1.0954 0
M  V30 38 H -3.7727 2.162 -0.1368 0
M  V30 39 H -3.9602 2.6023 -1.8652 0
M  V30 END ATOM
M  V30 BEGIN BOND
M  V30 1 2 1 2
M  V30 2 1 2 3
M  V30 3 1 2 4
M  V30 4 2 4 5
M  V30 5 1 4 6
M  V30 6 1 5 7
M  V30 7 1 5 8
M  V30 8 2 6 9
M  V30 9 1 6 10
M  V30 10 1 7 11
M  V30 11 1 8 12
M  V30 12 2 8 13
M  V30 13 1 9 14
M  V30 14 1 11 15
M  V30 15 1 11 16
M  V30 16 2 12 17
M  V30 17 1 12 18
M  V30 18 1 15 19
M  V30 19 1 16 20
M  V30 20 1 9 13
M  V30 21 1 7 21
M  V30 22 1 10 22
M  V30 23 1 10 23
M  V30 24 1 10 24
M  V30 25 1 11 25
M  V30 26 1 13 26
M  V30 27 1 14 27
M  V30 28 1 14 28
M  V30 29 1 14 29
M  V30 30 1 15 30
M  V30 31 1 15 31
M  V30 32 1 16 32
M  V30 33 1 16 33
M  V30 34 1 19 34
M  V30 35 1 19 35
M  V30 36 1 19 36
M  V30 37 1 20 37
M  V30 38 1 20 38
M  V30 39 1 20 39
M  V30 END BOND
M  V30 END CTAB
M  END
>  <Structure No>
5145

>  <LogS>
-5.9721

>  <MMFF94 Energy>
126.66

$$$$
Compound 5146
Actelion Java MolfileCreator 2.0

  0  0  0  0  0  0              0 V3000
M  V30 BEGIN CTAB
M  V30 COUNTS 56 55 0 0 0
M  V30 BEGIN ATOM
M  V30 1 O 5.2415 0.7028 1.0153 0
M  V30 2 C 5.0599 0.4626 -0.2089 0
M  V30 3 O 6.1104 -0.0282 -0.9923 0
M  V30 4 C 3.7437 0.6667 -0.8509 0
M  V30 5 C 7.4008 -0.3504 -0.4723 0
M  V30 6 C 2.6602 1.2327 -0.2833 0
M  V30 7 C 7.3463 -1.6787 0.2875 0
M  V30 8 C 8.393 -0.437 -1.6301 0
M  V30 9 C 1.4262 1.3332 -1.0911 0
M  V30 10 C 2.6809 1.8457 1.0927 0
M  V30 11 C 0.2519 0.7795 -0.7557 0
M  V30 12 C 0.0164 -0.0791 0.4631 0
M  V30 13 C -0.8786 0.6193 1.5131 0 CFG=1
M  V30 14 C -2.2694 1.0522 0.9784 0
M  V30 15 C -1.0036 -0.2549 2.7697 0
M  V30 16 C -3.1239 -0.0932 0.4052 0
M  V30 17 C -4.4953 0.4302 -0.0652 0
M  V30 18 C -5.5007 -0.6709 -0.5469 0
M  V30 19 O -6.6477 -0.1032 -1.1831 0
M  V30 20 C -5.9326 -1.5919 0.6207 0
M  V30 21 C -4.8371 -1.5513 -1.6247 0
M  V30 22 C -7.3164 0.8811 -0.4169 0
M  V30 23 H 3.6597 0.3067 -1.8705 0
M  V30 24 H 7.7424 0.4546 0.2164 0
M  V30 25 H 8.3529 -1.94 0.6782 0
M  V30 26 H 6.6505 -1.5988 1.1486 0
M  V30 27 H 6.9932 -2.4922 -0.3818 0
M  V30 28 H 8.0805 -1.2212 -2.3529 0
M  V30 29 H 8.4349 0.5384 -2.1597 0
M  V30 30 H 9.4098 -0.6746 -1.2508 0
M  V30 31 H 1.4941 1.8395 -2.0466 0
M  V30 32 H 2.7844 1.0549 1.8648 0
M  V30 33 H 1.746 2.41 1.2866 0
M  V30 34 H 3.5173 2.5711 1.1765 0
M  V30 35 H -0.5798 0.9146 -1.4356 0
M  V30 36 H -0.4482 -1.0327 0.1363 0
M  V30 37 H 0.9782 -0.3693 0.9345 0
M  V30 38 H -0.3612 1.5502 1.8306 0
M  V30 39 H -2.133 1.8305 0.197 0
M  V30 40 H -2.8277 1.539 1.808 0
M  V30 41 H -1.6662 0.2306 3.5174 0
M  V30 42 H -1.4104 -1.2577 2.5218 0
M  V30 43 H -0.0045 -0.3911 3.2359 0
M  V30 44 H -3.2709 -0.869 1.1829 0
M  V30 45 H -2.5928 -0.5378 -0.4594 0
M  V30 46 H -4.3311 1.1521 -0.8956 0
M  V30 47 H -4.9484 0.9929 0.78 0
M  V30 48 H -5.1185 -2.2904 0.9092 0
M  V30 49 H -6.8128 -2.1998 0.3211 0
M  V30 50 H -6.196 -1.0077 1.5264 0
M  V30 51 H -5.5869 -2.2425 -2.0671 0
M  V30 52 H -4.4287 -0.9192 -2.4423 0
M  V30 53 H -4.0171 -2.1738 -1.2085 0
M  V30 54 H -8.31 1.062 -0.8755 0
M  V30 55 H -6.7666 1.8449 -0.4503 0
M  V30 56 H -7.4991 0.568 0.6303 0
M  V30 END ATOM
M  V30 BEGIN BOND
M  V30 1 2 1 2
M  V30 2 1 2 3
M  V30 3 1 2 4
M  V30 4 1 3 5
M  V30 5 2 4 6
M  V30 6 1 5 7
M  V30 7 1 5 8
M  V30 8 1 6 9
M  V30 9 1 6 10
M  V30 10 2 9 11
M  V30 11 1 11 12
M  V30 12 1 12 13
M  V30 13 1 13 14
M  V30 14 1 13 15
M  V30 15 1 14 16
M  V30 16 1 16 17
M  V30 17 1 17 18
M  V30 18 1 18 19
M  V30 19 1 18 20
M  V30 20 1 18 21
M  V30 21 1 19 22
M  V30 22 1 4 23
M  V30 23 1 5 24
M  V30 24 1 7 25
M  V30 25 1 7 26
M  V30 26 1 7 27
M  V30 27 1 8 28
M  V30 28 1 8 29
M  V30 29 1 8 30
M  V30 30 1 9 31
M  V30 31 1 10 32
M  V30 32 1 10 33
M  V30 33 1 10 34
M  V30 34 1 11 35
M  V30 35 1 12 36
M  V30 36 1 12 37
M  V30 37 1 13 38
M  V30 38 1 14 39
M  V30 39 1 14 40
M  V30 40 1 15 41
M  V30 41 1 15 42
M  V30 42 1 15 43
M  V30 43 1 16 44
M  V30 44 1 16 45
M  V30 45 1 17 46
M  V30 46 1 17 47
M  V30 47 1 20 48
M  V30 48 1 20 49
M  V30 49 1 20 50
M  V30 50 1 21 51
M  V30 51 1 21 52
M  V30 52 1 21 53
M  V30 53 1 22 54
M  V30 54 1 22 55
M  V30 55 1 22 56
M  V30 END BOND
M  V30 BEGIN COLLECTION
M  V30 MDLV30/STEABS ATOMS=(1 13)
M  V30 END COLLECTION
M  V30 END CTAB
M  END
>  <Structure No>
5146

>  <LogS>
-5.3459

>  <MMFF94 Energy>
31.86

$$$$
Compound 5147
Actelion Java MolfileCreator 2.0

  0  0  0  0  0  0              0 V3000
M  V30 BEGIN CTAB
M  V30 COUNTS 22 23 0 0 0
M  V30 BEGIN ATOM
M  V30 1 N 0.0797 0.798 0.0797 0
M  V30 2 C -0.8634 -0.1866 0.1042 0
M  V30 3 C 1.3995 0.504 0.1971 0
M  V30 4 N -0.4745 -1.4865 0.2487 0
M  V30 5 N -2.2603 0.1433 -0.0215 0
M  V30 6 N 2.3337 1.49 0.1719 0
M  V30 7 C 1.8087 -0.8299 0.3461 0
M  V30 8 C 0.8358 -1.8263 0.3696 0
M  V30 9 C -2.666 1.5438 -0.1763 0
M  V30 10 C -3.2654 -0.9236 0.0061 0
M  V30 11 C 3.6578 1.2002 0.2893 0
M  V30 12 N 3.1311 -1.12 0.4633 0
M  V30 13 C 4.0644 -0.1308 0.4379 0
M  V30 14 H 1.1139 -2.8661 0.483 0
M  V30 15 H -2.2065 1.9673 -1.0944 0
M  V30 16 H -2.3301 2.1303 0.705 0
M  V30 17 H -3.7682 1.6464 -0.2612 0
M  V30 18 H -4.2951 -0.5225 -0.1009 0
M  V30 19 H -3.2049 -1.47 0.9711 0
M  V30 20 H -3.0812 -1.6329 -0.8282 0
M  V30 21 H 4.3899 1.9963 0.2675 0
M  V30 22 H 5.1141 -0.3746 0.5321 0
M  V30 END ATOM
M  V30 BEGIN BOND
M  V30 1 2 1 2
M  V30 2 1 1 3
M  V30 3 1 2 4
M  V30 4 1 2 5
M  V30 5 2 3 6
M  V30 6 1 3 7
M  V30 7 2 4 8
M  V30 8 1 5 9
M  V30 9 1 5 10
M  V30 10 1 6 11
M  V30 11 2 7 12
M  V30 12 2 11 13
M  V30 13 1 7 8
M  V30 14 1 12 13
M  V30 15 1 8 14
M  V30 16 1 9 15
M  V30 17 1 9 16
M  V30 18 1 9 17
M  V30 19 1 10 18
M  V30 20 1 10 19
M  V30 21 1 10 20
M  V30 22 1 11 21
M  V30 23 1 13 22
M  V30 END BOND
M  V30 END CTAB
M  END
>  <Structure No>
5147

>  <LogS>
0.3586

>  <MMFF94 Energy>
1.7016

$$$$
Compound 5148
Actelion Java MolfileCreator 2.0

  0  0  0  0  0  0              0 V3000
M  V30 BEGIN CTAB
M  V30 COUNTS 20 21 0 0 0
M  V30 BEGIN ATOM
M  V30 1 Cl 4.6991 -0.0852 -1.7069 0
M  V30 2 C 3.2685 -0.1669 -0.694 0
M  V30 3 C 1.8934 0.0607 -1.1321 0
M  V30 4 C 3.2453 -0.4385 0.6081 0
M  V30 5 O 1.5501 0.3883 -2.2988 0
M  V30 6 N 0.9909 -0.085 -0.0379 0
M  V30 7 Cl 4.6385 -0.7914 1.6149 0
M  V30 8 C 1.8539 -0.4003 1.0524 0
M  V30 9 C -0.4411 0.0526 -0.0347 0
M  V30 10 O 1.4595 -0.6571 2.2208 0
M  V30 11 C -1.1992 -0.3597 -1.1445 0
M  V30 12 C -1.102 0.6012 1.0783 0
M  V30 13 C -2.5912 -0.2258 -1.1392 0
M  V30 14 C -2.494 0.7348 1.0792 0
M  V30 15 C -3.2387 0.3214 -0.0284 0
M  V30 16 F -4.5883 0.4511 -0.0255 0
M  V30 17 H -0.7184 -0.8048 -2.0053 0
M  V30 18 H -0.5416 0.9465 1.9368 0
M  V30 19 H -3.1675 -0.5506 -1.996 0
M  V30 20 H -2.9943 1.1631 1.9384 0
M  V30 END ATOM
M  V30 BEGIN BOND
M  V30 1 1 1 2
M  V30 2 1 2 3
M  V30 3 2 2 4
M  V30 4 2 3 5
M  V30 5 1 3 6
M  V30 6 1 4 7
M  V30 7 1 4 8
M  V30 8 1 6 9
M  V30 9 2 8 10
M  V30 10 2 9 11
M  V30 11 1 9 12
M  V30 12 1 11 13
M  V30 13 2 12 14
M  V30 14 2 13 15
M  V30 15 1 15 16
M  V30 16 1 6 8
M  V30 17 1 14 15
M  V30 18 1 11 17
M  V30 19 1 12 18
M  V30 20 1 13 19
M  V30 21 1 14 20
M  V30 END BOND
M  V30 END CTAB
M  END
>  <Structure No>
5148

>  <LogS>
-4.6442

>  <MMFF94 Energy>
5.5018

$$$$
Compound 5149
Actelion Java MolfileCreator 2.0

  0  0  0  0  0  0              0 V3000
M  V30 BEGIN CTAB
M  V30 COUNTS 34 35 0 0 0
M  V30 BEGIN ATOM
M  V30 1 O 0.9533 -0.2382 2.5437 0
M  V30 2 C 0.755 0.0496 1.3315 0
M  V30 3 C -0.559 -0.2757 0.7248 0
M  V30 4 C 1.8443 0.7016 0.5641 0
M  V30 5 C -1.722 -0.2464 1.5111 0
M  V30 6 C -0.6566 -0.6587 -0.622 0
M  V30 7 C 3.1871 0.4189 0.8719 0
M  V30 8 C 1.5575 1.636 -0.4471 0
M  V30 9 C -2.9725 -0.5677 0.9571 0
M  V30 10 C -1.8953 -0.9793 -1.1805 0
M  V30 11 C 4.2289 1.0478 0.1716 0
M  V30 12 C 2.5926 2.2491 -1.1571 0
M  V30 13 C -3.0649 -0.9345 -0.3988 0
M  V30 14 C -4.2093 -0.5181 1.8104 0
M  V30 15 C 3.9232 1.9506 -0.8569 0
M  V30 16 C 5.6574 0.7018 0.4727 0
M  V30 17 O -4.3262 -1.2487 -0.9324 0
M  V30 18 C -4.5586 -1.6332 -2.2836 0
M  V30 19 H -1.6556 0.0392 2.5545 0
M  V30 20 H 0.2285 -0.725 -1.2421 0
M  V30 21 H 3.4236 -0.2987 1.649 0
M  V30 22 H 0.5341 1.9001 -0.6823 0
M  V30 23 H -1.931 -1.2668 -2.2223 0
M  V30 24 H 2.3624 2.9595 -1.9407 0
M  V30 25 H -4.6901 -1.5189 1.8306 0
M  V30 26 H -4.924 0.2204 1.3898 0
M  V30 27 H -3.9764 -0.2223 2.8556 0
M  V30 28 H 4.7144 2.4278 -1.4221 0
M  V30 29 H 5.9634 -0.1699 -0.1422 0
M  V30 30 H 5.7804 0.4487 1.5474 0
M  V30 31 H 6.3258 1.5593 0.2441 0
M  V30 32 H -4.2433 -0.8204 -2.9715 0
M  V30 33 H -4.0051 -2.5677 -2.5152 0
M  V30 34 H -5.643 -1.8183 -2.4261 0
M  V30 END ATOM
M  V30 BEGIN BOND
M  V30 1 2 1 2
M  V30 2 1 2 3
M  V30 3 1 2 4
M  V30 4 2 3 5
M  V30 5 1 3 6
M  V30 6 2 4 7
M  V30 7 1 4 8
M  V30 8 1 5 9
M  V30 9 2 6 10
M  V30 10 1 7 11
M  V30 11 2 8 12
M  V30 12 2 9 13
M  V30 13 1 9 14
M  V30 14 2 11 15
M  V30 15 1 11 16
M  V30 16 1 13 17
M  V30 17 1 17 18
M  V30 18 1 10 13
M  V30 19 1 12 15
M  V30 20 1 5 19
M  V30 21 1 6 20
M  V30 22 1 7 21
M  V30 23 1 8 22
M  V30 24 1 10 23
M  V30 25 1 12 24
M  V30 26 1 14 25
M  V30 27 1 14 26
M  V30 28 1 14 27
M  V30 29 1 15 28
M  V30 30 1 16 29
M  V30 31 1 16 30
M  V30 32 1 16 31
M  V30 33 1 18 32
M  V30 34 1 18 33
M  V30 35 1 18 34
M  V30 END BOND
M  V30 END CTAB
M  END
>  <Structure No>
5149

>  <LogS>
-5.0797

>  <MMFF94 Energy>
79.001

$$$$
Compound 5150
Actelion Java MolfileCreator 2.0

  0  0  0  0  0  0              0 V3000
M  V30 BEGIN CTAB
M  V30 COUNTS 31 30 0 0 0
M  V30 BEGIN ATOM
M  V30 1 O 5.3137 -0.0779 -1.0922 0
M  V30 2 C 4.5908 0.4289 -0.193 0
M  V30 3 N 3.2072 0.0818 -0.1035 0
M  V30 4 N 5.1599 1.3509 0.7354 0
M  V30 5 N 2.6484 -0.8229 -1.0241 0
M  V30 6 C 1.4065 -1.2119 -1.0141 0
M  V30 7 C 0.3945 -0.737 0.0088 0 CFG=2
M  V30 8 O 0.7689 -1.1394 1.3041 0
M  V30 9 C -1.0391 -1.2219 -0.3485 0 CFG=1
M  V30 10 O -1.1066 -2.6282 -0.3754 0
M  V30 11 C -2.1812 -0.6341 0.5377 0 CFG=1
M  V30 12 O -2.0939 -1.1119 1.8593 0
M  V30 13 C -2.3043 0.9217 0.5187 0 CFG=2
M  V30 14 O -3.3651 1.3345 1.3452 0
M  V30 15 C -2.4744 1.52 -0.8905 0
M  V30 16 O -3.5509 0.9201 -1.558 0
M  V30 17 H 2.6318 0.5207 0.6488 0
M  V30 18 H 6.1703 1.6066 0.6729 0
M  V30 19 H 4.574 1.779 1.4861 0
M  V30 20 H 1.0887 -1.9039 -1.7837 0
M  V30 21 H 0.4003 0.3709 -0.028 0
M  V30 22 H 0.9743 -2.1103 1.2788 0
M  V30 23 H -1.2401 -0.8909 -1.3896 0
M  V30 24 H -1.0369 -2.9601 0.5562 0
M  V30 25 H -3.13 -1.0392 0.1222 0
M  V30 26 H -1.4191 -0.5678 2.3413 0
M  V30 27 H -1.3794 1.3583 0.9503 0
M  V30 28 H -4.2015 0.9408 0.9828 0
M  V30 29 H -2.658 2.614 -0.7974 0
M  V30 30 H -1.5393 1.3877 -1.4775 0
M  V30 31 H -3.5916 1.3462 -2.4532 0
M  V30 END ATOM
M  V30 BEGIN BOND
M  V30 1 2 1 2
M  V30 2 1 2 3
M  V30 3 1 2 4
M  V30 4 1 3 5
M  V30 5 2 5 6
M  V30 6 1 6 7
M  V30 7 1 7 8
M  V30 8 1 7 9
M  V30 9 1 9 10
M  V30 10 1 9 11
M  V30 11 1 11 12
M  V30 12 1 11 13
M  V30 13 1 13 14
M  V30 14 1 13 15
M  V30 15 1 15 16
M  V30 16 1 3 17
M  V30 17 1 4 18
M  V30 18 1 4 19
M  V30 19 1 6 20
M  V30 20 1 7 21
M  V30 21 1 8 22
M  V30 22 1 9 23
M  V30 23 1 10 24
M  V30 24 1 11 25
M  V30 25 1 12 26
M  V30 26 1 13 27
M  V30 27 1 14 28
M  V30 28 1 15 29
M  V30 29 1 15 30
M  V30 30 1 16 31
M  V30 END BOND
M  V30 BEGIN COLLECTION
M  V30 MDLV30/STEABS ATOMS=(4 7 9 11 13)
M  V30 END COLLECTION
M  V30 END CTAB
M  END
>  <Structure No>
5150

>  <LogS>
-0.53

>  <MMFF94 Energy>
61.137

$$$$
Compound 5151
Actelion Java MolfileCreator 2.0

  0  0  0  0  0  0              0 V3000
M  V30 BEGIN CTAB
M  V30 COUNTS 25 26 0 0 0
M  V30 BEGIN ATOM
M  V30 1 O -0.2386 1.5916 1.1935 0
M  V30 2 C -0.7424 0.725 0.4268 0
M  V30 3 N -2.0951 0.7024 0.2104 0
M  V30 4 C 0.081 -0.2379 -0.1839 0
M  V30 5 N -2.916 1.679 0.8166 0
M  V30 6 C -2.6344 -0.2762 -0.5867 0
M  V30 7 N -0.5065 -1.1908 -0.9484 0
M  V30 8 C 1.5532 -0.2686 -0.0054 0
M  V30 9 N -1.8219 -1.2094 -1.1454 0
M  V30 10 C -4.1075 -0.3612 -0.8611 0
M  V30 11 C 2.2091 -1.5007 0.1651 0
M  V30 12 C 2.3195 0.9115 -0.0513 0
M  V30 13 C 3.5983 -1.5483 0.3167 0
M  V30 14 C 3.7086 0.8584 0.0998 0
M  V30 15 C 4.3471 -0.3696 0.2872 0
M  V30 16 H -2.513 2.4331 1.4164 0
M  V30 17 H -3.9514 1.6924 0.6912 0
M  V30 18 H -4.6611 -0.5131 0.0889 0
M  V30 19 H -4.3305 -1.2169 -1.5335 0
M  V30 20 H -4.4542 0.5689 -1.3579 0
M  V30 21 H 1.6447 -2.4246 0.1933 0
M  V30 22 H 1.8503 1.8708 -0.2273 0
M  V30 23 H 4.0945 -2.5 0.4561 0
M  V30 24 H 4.2914 1.7698 0.0635 0
M  V30 25 H 5.4224 -0.4085 0.4028 0
M  V30 END ATOM
M  V30 BEGIN BOND
M  V30 1 2 1 2
M  V30 2 1 2 3
M  V30 3 1 2 4
M  V30 4 1 3 5
M  V30 5 1 3 6
M  V30 6 2 4 7
M  V30 7 1 4 8
M  V30 8 2 6 9
M  V30 9 1 6 10
M  V30 10 2 8 11
M  V30 11 1 8 12
M  V30 12 1 11 13
M  V30 13 2 12 14
M  V30 14 2 13 15
M  V30 15 1 7 9
M  V30 16 1 14 15
M  V30 17 1 5 16
M  V30 18 1 5 17
M  V30 19 1 10 18
M  V30 20 1 10 19
M  V30 21 1 10 20
M  V30 22 1 11 21
M  V30 23 1 12 22
M  V30 24 1 13 23
M  V30 25 1 14 24
M  V30 26 1 15 25
M  V30 END BOND
M  V30 END CTAB
M  END
>  <Structure No>
5151

>  <LogS>
-2.0506

>  <MMFF94 Energy>
138.29

$$$$
Compound 5152
Actelion Java MolfileCreator 2.0

  0  0  0  0  0  0              0 V3000
M  V30 BEGIN CTAB
M  V30 COUNTS 22 23 0 0 0
M  V30 BEGIN ATOM
M  V30 1 Cl -4.1586 -1.558 0.6057 0
M  V30 2 C -2.9491 -0.3387 0.2283 0
M  V30 3 C -3.3109 0.9997 -0.0027 0
M  V30 4 C -1.6033 -0.7179 0.1594 0
M  V30 5 Cl -4.9896 1.5173 0.0745 0
M  V30 6 C -2.323 1.9452 -0.3007 0
M  V30 7 C -0.6133 0.23 -0.1398 0
M  V30 8 C -0.9806 1.564 -0.3697 0
M  V30 9 C 0.8067 -0.1742 -0.2131 0
M  V30 10 C 1.7281 0.274 0.7587 0
M  V30 11 C 1.257 -1.0138 -1.2555 0
M  V30 12 Cl 1.228 1.2924 2.1062 0
M  V30 13 C 3.0701 -0.1139 0.6816 0
M  V30 14 Cl 0.1702 -1.5808 -2.5203 0
M  V30 15 C 2.6028 -1.3917 -1.317 0
M  V30 16 C 3.5056 -0.9435 -0.3521 0
M  V30 17 H -1.3271 -1.7497 0.3414 0
M  V30 18 H -2.5949 2.9776 -0.4804 0
M  V30 19 H -0.2275 2.3061 -0.605 0
M  V30 20 H 3.7779 0.2243 1.4278 0
M  V30 21 H 2.952 -2.0313 -2.1175 0
M  V30 22 H 4.5453 -1.2398 -0.4058 0
M  V30 END ATOM
M  V30 BEGIN BOND
M  V30 1 1 1 2
M  V30 2 2 2 3
M  V30 3 1 2 4
M  V30 4 1 3 5
M  V30 5 1 3 6
M  V30 6 2 4 7
M  V30 7 2 6 8
M  V30 8 1 7 9
M  V30 9 2 9 10
M  V30 10 1 9 11
M  V30 11 1 10 12
M  V30 12 1 10 13
M  V30 13 1 11 14
M  V30 14 2 11 15
M  V30 15 2 13 16
M  V30 16 1 7 8
M  V30 17 1 15 16
M  V30 18 1 4 17
M  V30 19 1 6 18
M  V30 20 1 8 19
M  V30 21 1 13 20
M  V30 22 1 15 21
M  V30 23 1 16 22
M  V30 END BOND
M  V30 END CTAB
M  END
>  <Structure No>
5152

>  <LogS>
-7.0199

>  <MMFF94 Energy>
51.603

$$$$
Compound 5153
Actelion Java MolfileCreator 2.0

  0  0  0  0  0  0              0 V3000
M  V30 BEGIN CTAB
M  V30 COUNTS 22 23 0 0 0
M  V30 BEGIN ATOM
M  V30 1 Cl -0.6924 0.6924 2.7717 0
M  V30 2 C -1.5162 0.279 1.2651 0
M  V30 3 C -0.7723 -0.0029 0.099 0
M  V30 4 C -2.9217 0.2346 1.224 0
M  V30 5 C -1.4458 -0.3231 -1.0968 0
M  V30 6 C 0.7043 0.037 0.1285 0
M  V30 7 Cl -3.89 0.5773 2.6524 0
M  V30 8 C -3.5762 -0.086 0.0313 0
M  V30 9 Cl -0.565 -0.6899 -2.577 0
M  V30 10 C -2.8427 -0.3627 -1.1222 0
M  V30 11 C 1.4544 -1.0779 0.5532 0
M  V30 12 C 1.3683 1.2059 -0.2748 0
M  V30 13 Cl 0.6701 -2.5704 1.0586 0
M  V30 14 C 2.8529 -1.0089 0.5714 0
M  V30 15 C 2.7642 1.2655 -0.2535 0
M  V30 16 C 3.5055 0.1597 0.1695 0
M  V30 17 H -4.6578 -0.1209 -0.0029 0
M  V30 18 H -3.3631 -0.6105 -2.0387 0
M  V30 19 H 0.8034 2.0697 -0.6043 0
M  V30 20 H 3.4354 -1.8618 0.896 0
M  V30 21 H 3.2716 2.1694 -0.5649 0
M  V30 22 H 4.5868 0.2077 0.1852 0
M  V30 END ATOM
M  V30 BEGIN BOND
M  V30 1 1 1 2
M  V30 2 2 2 3
M  V30 3 1 2 4
M  V30 4 1 3 5
M  V30 5 1 3 6
M  V30 6 1 4 7
M  V30 7 2 4 8
M  V30 8 1 5 9
M  V30 9 2 5 10
M  V30 10 2 6 11
M  V30 11 1 6 12
M  V30 12 1 11 13
M  V30 13 1 11 14
M  V30 14 2 12 15
M  V30 15 2 14 16
M  V30 16 1 8 10
M  V30 17 1 15 16
M  V30 18 1 8 17
M  V30 19 1 10 18
M  V30 20 1 12 19
M  V30 21 1 14 20
M  V30 22 1 15 21
M  V30 23 1 16 22
M  V30 END BOND
M  V30 BEGIN COLLECTION
M  V30 MDLV30/STEABS BONDS=(1 5)
M  V30 END COLLECTION
M  V30 END CTAB
M  END
>  <Structure No>
5153

>  <LogS>
-6.3001

>  <MMFF94 Energy>
54.184

$$$$
Compound 5154
Actelion Java MolfileCreator 2.0

  0  0  0  0  0  0              0 V3000
M  V30 BEGIN CTAB
M  V30 COUNTS 45 45 0 0 0
M  V30 BEGIN ATOM
M  V30 1 S 2.4854 -1.4425 1.202 0
M  V30 2 O 3.1009 -0.4784 2.1775 0
M  V30 3 O 2.7046 -2.8473 1.691 0
M  V30 4 O 0.8063 -1.1437 1.1047 0
M  V30 5 N 3.2094 -1.2293 -0.3707 0
M  V30 6 C 0.2832 0.0711 0.6524 0
M  V30 7 C 2.5431 -2.1147 -1.3332 0
M  V30 8 C 4.6404 -1.5469 -0.2964 0
M  V30 9 N 1.1166 1.0961 0.3317 0
M  V30 10 C -1.108 0.2315 0.5201 0
M  V30 11 C 0.6403 2.281 -0.1237 0
M  V30 12 C -1.5837 1.4656 0.0202 0
M  V30 13 C -2.0337 -0.9239 0.8372 0
M  V30 14 N -0.6979 2.4522 -0.2779 0
M  V30 15 N 1.5551 3.3344 -0.4509 0
M  V30 16 C -3.0457 1.7409 -0.1771 0
M  V30 17 C -2.1548 -1.8647 -0.3671 0
M  V30 18 C 1.1179 4.6439 -0.931 0
M  V30 19 C -3.0948 -3.0352 -0.0592 0
M  V30 20 C 0.554 5.4761 0.2155 0
M  V30 21 C -3.211 -3.977 -1.2539 0
M  V30 22 H 2.6329 -3.1822 -1.0331 0
M  V30 23 H 1.4676 -1.8494 -1.4122 0
M  V30 24 H 2.9878 -1.984 -2.3431 0
M  V30 25 H 5.1427 -0.8698 0.4265 0
M  V30 26 H 4.8075 -2.6014 0.0164 0
M  V30 27 H 5.1179 -1.3842 -1.2864 0
M  V30 28 H -3.0389 -0.558 1.1336 0
M  V30 29 H -1.6423 -1.4881 1.7116 0
M  V30 30 H 2.5806 3.1419 -0.3942 0
M  V30 31 H -3.5042 0.9557 -0.8132 0
M  V30 32 H -3.5588 1.7741 0.8066 0
M  V30 33 H -3.1924 2.7205 -0.68 0
M  V30 34 H -1.1487 -2.2612 -0.6276 0
M  V30 35 H -2.5453 -1.2991 -1.2413 0
M  V30 36 H 0.3543 4.5228 -1.7294 0
M  V30 37 H 1.9866 5.1826 -1.3673 0
M  V30 38 H -4.106 -2.6475 0.1928 0
M  V30 39 H -2.7087 -3.6067 0.8128 0
M  V30 40 H 1.3184 5.5926 1.0127 0
M  V30 41 H -0.3478 4.9913 0.6437 0
M  V30 42 H 0.271 6.4823 -0.1589 0
M  V30 43 H -3.8968 -4.8132 -1.0026 0
M  V30 44 H -2.216 -4.3984 -1.5109 0
M  V30 45 H -3.6189 -3.4353 -2.1338 0
M  V30 END ATOM
M  V30 BEGIN BOND
M  V30 1 2 1 2
M  V30 2 2 1 3
M  V30 3 1 1 4
M  V30 4 1 1 5
M  V30 5 1 4 6
M  V30 6 1 5 7
M  V30 7 1 5 8
M  V30 8 2 6 9
M  V30 9 1 6 10
M  V30 10 1 9 11
M  V30 11 2 10 12
M  V30 12 1 10 13
M  V30 13 2 11 14
M  V30 14 1 11 15
M  V30 15 1 12 16
M  V30 16 1 13 17
M  V30 17 1 15 18
M  V30 18 1 17 19
M  V30 19 1 18 20
M  V30 20 1 19 21
M  V30 21 1 12 14
M  V30 22 1 7 22
M  V30 23 1 7 23
M  V30 24 1 7 24
M  V30 25 1 8 25
M  V30 26 1 8 26
M  V30 27 1 8 27
M  V30 28 1 13 28
M  V30 29 1 13 29
M  V30 30 1 15 30
M  V30 31 1 16 31
M  V30 32 1 16 32
M  V30 33 1 16 33
M  V30 34 1 17 34
M  V30 35 1 17 35
M  V30 36 1 18 36
M  V30 37 1 18 37
M  V30 38 1 19 38
M  V30 39 1 19 39
M  V30 40 1 20 40
M  V30 41 1 20 41
M  V30 42 1 20 42
M  V30 43 1 21 43
M  V30 44 1 21 44
M  V30 45 1 21 45
M  V30 END BOND
M  V30 END CTAB
M  END
>  <Structure No>
5154

>  <LogS>
-4.1579

>  <MMFF94 Energy>
-189.61

$$$$
Compound 5155
Actelion Java MolfileCreator 2.0

  0  0  0  0  0  0              0 V3000
M  V30 BEGIN CTAB
M  V30 COUNTS 29 29 0 0 0
M  V30 BEGIN ATOM
M  V30 1 O 2.7497 1.6491 1.7277 0
M  V30 2 C 3.3294 1.1951 0.7042 0
M  V30 3 N 2.6332 0.3324 -0.2077 0
M  V30 4 C 4.7781 1.4901 0.4908 0
M  V30 5 C 1.2113 0.1109 -0.164 0
M  V30 6 C 0.6763 -1.175 -0.4043 0
M  V30 7 C 0.3358 1.1859 0.066 0
M  V30 8 C -0.7171 -1.3568 -0.4048 0
M  V30 9 C 1.5749 -2.352 -0.6721 0
M  V30 10 C -1.0463 0.9906 0.074 0
M  V30 11 C -1.583 -0.286 -0.1622 0
M  V30 12 O -2.9642 -0.532 -0.1687 0
M  V30 13 C -3.9608 0.4603 0.0617 0
M  V30 14 C -5.339 -0.1758 -0.0196 0
M  V30 15 H 3.2031 -0.2003 -0.9026 0
M  V30 16 H 4.975 1.653 -0.5894 0
M  V30 17 H 5.3858 0.6332 0.8482 0
M  V30 18 H 5.0734 2.4044 1.048 0
M  V30 19 H 0.7214 2.1861 0.2152 0
M  V30 20 H -1.1377 -2.3374 -0.5929 0
M  V30 21 H 2.3885 -2.3909 0.0826 0
M  V30 22 H 1.0172 -3.3112 -0.6173 0
M  V30 23 H 2.0167 -2.2594 -1.6862 0
M  V30 24 H -1.6886 1.8418 0.2541 0
M  V30 25 H -3.8244 0.904 1.0717 0
M  V30 26 H -3.8829 1.2584 -0.7081 0
M  V30 27 H -5.4935 -0.6188 -1.0262 0
M  V30 28 H -5.4352 -0.9723 0.7484 0
M  V30 29 H -6.1189 0.5941 0.1592 0
M  V30 END ATOM
M  V30 BEGIN BOND
M  V30 1 2 1 2
M  V30 2 1 2 3
M  V30 3 1 2 4
M  V30 4 1 3 5
M  V30 5 2 5 6
M  V30 6 1 5 7
M  V30 7 1 6 8
M  V30 8 1 6 9
M  V30 9 2 7 10
M  V30 10 2 8 11
M  V30 11 1 11 12
M  V30 12 1 12 13
M  V30 13 1 13 14
M  V30 14 1 10 11
M  V30 15 1 3 15
M  V30 16 1 4 16
M  V30 17 1 4 17
M  V30 18 1 4 18
M  V30 19 1 7 19
M  V30 20 1 8 20
M  V30 21 1 9 21
M  V30 22 1 9 22
M  V30 23 1 9 23
M  V30 24 1 10 24
M  V30 25 1 13 25
M  V30 26 1 13 26
M  V30 27 1 14 27
M  V30 28 1 14 28
M  V30 29 1 14 29
M  V30 END BOND
M  V30 END CTAB
M  END
>  <Structure No>
5155

>  <LogS>
-1.839

>  <MMFF94 Energy>
5.7235

$$$$
Compound 5156
Actelion Java MolfileCreator 2.0

  0  0  0  0  0  0              0 V3000
M  V30 BEGIN CTAB
M  V30 COUNTS 20 22 0 0 0
M  V30 BEGIN ATOM
M  V30 1 S 0.9898 2.7237 0.4123 0
M  V30 2 C 2.0718 1.4376 0.2922 0
M  V30 3 C -0.3184 1.6346 0.2205 0
M  V30 4 N 3.4103 1.3683 0.3375 0
M  V30 5 N 1.4947 0.2654 0.1193 0
M  V30 6 C 0.1425 0.3207 0.0717 0
M  V30 7 C -1.676 1.9359 0.2041 0
M  V30 8 N 3.688 0.0721 0.1834 0
M  V30 9 C 2.5154 -0.6009 0.0502 0
M  V30 10 C -0.7597 -0.745 -0.1005 0
M  V30 11 C -2.5891 0.8858 0.0333 0
M  V30 12 C -2.1383 -0.44 -0.1173 0
M  V30 13 C -0.2974 -2.1635 -0.2627 0
M  V30 14 H -2.0204 2.9553 0.32 0
M  V30 15 H 2.4349 -1.6689 -0.0891 0
M  V30 16 H -3.6505 1.0966 0.0174 0
M  V30 17 H -2.8703 -1.2273 -0.2473 0
M  V30 18 H -1.1553 -2.8583 -0.3862 0
M  V30 19 H 0.2707 -2.4775 0.6373 0
M  V30 20 H 0.3437 -2.2477 -1.1647 0
M  V30 END ATOM
M  V30 BEGIN BOND
M  V30 1 1 1 2
M  V30 2 1 1 3
M  V30 3 2 2 4
M  V30 4 1 2 5
M  V30 5 2 3 6
M  V30 6 1 3 7
M  V30 7 1 4 8
M  V30 8 1 5 9
M  V30 9 1 6 10
M  V30 10 2 7 11
M  V30 11 2 10 12
M  V30 12 1 10 13
M  V30 13 1 5 6
M  V30 14 2 8 9
M  V30 15 1 11 12
M  V30 16 1 7 14
M  V30 17 1 9 15
M  V30 18 1 11 16
M  V30 19 1 12 17
M  V30 20 1 13 18
M  V30 21 1 13 19
M  V30 22 1 13 20
M  V30 END BOND
M  V30 END CTAB
M  END
>  <Structure No>
5156

>  <LogS>
-2.0729

>  <MMFF94 Energy>
41.045

$$$$
Compound 5157
Actelion Java MolfileCreator 2.0

  0  0  0  0  0  0              0 V3000
M  V30 BEGIN CTAB
M  V30 COUNTS 22 22 0 0 0
M  V30 BEGIN ATOM
M  V30 1 O -0.8699 1.1863 -3.0076 0
M  V30 2 C -1.5158 0.7058 -2.0382 0
M  V30 3 C -0.8243 0.2633 -0.8024 0
M  V30 4 C -1.5428 -0.2782 0.2923 0
M  V30 5 C 0.5756 0.3829 -0.7124 0
M  V30 6 C -0.8453 -0.6836 1.4419 0
M  V30 7 C -3.0417 -0.4317 0.2569 0
M  V30 8 C 1.2649 -0.0262 0.4438 0
M  V30 9 C 0.5459 -0.5593 1.5182 0
M  V30 10 O 2.6599 0.0807 0.5621 0
M  V30 11 O 1.225 -0.966 2.6659 0
M  V30 12 C 3.5187 0.6021 -0.4469 0
M  V30 13 H -2.5894 0.6252 -2.1333 0
M  V30 14 H 1.1275 0.7958 -1.5457 0
M  V30 15 H -1.3827 -1.0992 2.2858 0
M  V30 16 H -3.4341 -0.872 1.1984 0
M  V30 17 H -3.3317 -1.102 -0.5792 0
M  V30 18 H -3.5187 0.5616 0.1211 0
M  V30 19 H 0.7355 -1.3564 3.4627 0
M  V30 20 H 3.2537 1.6582 -0.6661 0
M  V30 21 H 3.4413 -0.0117 -1.369 0
M  V30 22 H 4.5664 0.5674 -0.0844 0
M  V30 END ATOM
M  V30 BEGIN BOND
M  V30 1 2 1 2
M  V30 2 1 2 3
M  V30 3 2 3 4
M  V30 4 1 3 5
M  V30 5 1 4 6
M  V30 6 1 4 7
M  V30 7 2 5 8
M  V30 8 2 6 9
M  V30 9 1 8 10
M  V30 10 1 9 11
M  V30 11 1 10 12
M  V30 12 1 8 9
M  V30 13 1 2 13
M  V30 14 1 5 14
M  V30 15 1 6 15
M  V30 16 1 7 16
M  V30 17 1 7 17
M  V30 18 1 7 18
M  V30 19 1 11 19
M  V30 20 1 12 20
M  V30 21 1 12 21
M  V30 22 1 12 22
M  V30 END BOND
M  V30 END CTAB
M  END
>  <Structure No>
5157

>  <LogS>
-2.7435

>  <MMFF94 Energy>
34.481

$$$$
Compound 5158
Actelion Java MolfileCreator 2.0

  0  0  0  0  0  0              0 V3000
M  V30 BEGIN CTAB
M  V30 COUNTS 50 51 0 0 0
M  V30 BEGIN ATOM
M  V30 1 O -0.9468 -0.4733 1.4204 0
M  V30 2 C -1.8762 0.5469 1.1449 0
M  V30 3 C 0.4522 -0.3067 1.6593 0
M  V30 4 C -3.1444 0.1847 0.6388 0
M  V30 5 C -1.5878 1.9054 1.3783 0
M  V30 6 C 1.2199 -0.16 0.333 0 CFG=1
M  V30 7 C -4.1197 1.1865 0.4038 0
M  V30 8 C -3.4738 -1.2835 0.4576 0
M  V30 9 C -2.5414 2.8866 1.1137 0
M  V30 10 O 0.8368 1.0136 -0.339 0
M  V30 11 C 2.7475 -0.1941 0.5676 0
M  V30 12 C -3.7965 2.5322 0.6255 0
M  V30 13 C -5.4718 0.8596 -0.185 0
M  V30 14 C -4.6918 -1.5258 -0.4429 0 CFG=2
M  V30 15 N 3.4844 -0.126 -0.7119 0 CHG=1
M  V30 16 C -5.8548 -0.6172 -0.0041 0 CFG=2
M  V30 17 O -5.0675 -2.8755 -0.3435 0
M  V30 18 C 4.9685 -0.2066 -0.5965 0
M  V30 19 O -7.0287 -0.9093 -0.7214 0
M  V30 20 C 5.534 0.9523 0.2575 0
M  V30 21 C 5.573 -0.0932 -2.0151 0
M  V30 22 C 5.4176 -1.559 0.0059 0
M  V30 23 H 0.6538 0.5373 2.3502 0
M  V30 24 H 0.8098 -1.2249 2.1722 0
M  V30 25 H -0.6365 2.2214 1.7775 0
M  V30 26 H 0.9491 -1.0263 -0.3091 0
M  V30 27 H -3.6638 -1.722 1.462 0
M  V30 28 H -2.6042 -1.8145 0.0122 0
M  V30 29 H -2.3072 3.9284 1.2916 0
M  V30 30 H 1.1593 1.7848 0.1967 0
M  V30 31 H 3.0206 0.6606 1.2225 0
M  V30 32 H 2.9876 -1.1382 1.0998 0
M  V30 33 H -4.5213 3.3105 0.4192 0
M  V30 34 H -6.2535 1.49 0.2929 0
M  V30 35 H -5.4455 1.1108 -1.2678 0
M  V30 36 H -4.4031 -1.2861 -1.4947 0
M  V30 37 H 3.2343 0.7734 -1.1872 0
M  V30 38 H 3.1501 -0.907 -1.3254 0
M  V30 39 H -6.0639 -0.798 1.074 0
M  V30 40 H -5.5682 -3.0982 -1.1713 0
M  V30 41 H -6.8312 -0.7868 -1.687 0
M  V30 42 H 5.139 1.9279 -0.0987 0
M  V30 43 H 5.2726 0.8318 1.3296 0
M  V30 44 H 6.6434 0.9801 0.1949 0
M  V30 45 H 6.6828 -0.1498 -1.9839 0
M  V30 46 H 5.2021 -0.916 -2.6638 0
M  V30 47 H 5.2891 0.8733 -2.4844 0
M  V30 48 H 5.1705 -1.6271 1.0857 0
M  V30 49 H 6.5193 -1.6797 -0.0806 0
M  V30 50 H 4.9311 -2.4041 -0.5262 0
M  V30 END ATOM
M  V30 BEGIN BOND
M  V30 1 1 1 2
M  V30 2 1 1 3
M  V30 3 2 2 4
M  V30 4 1 2 5
M  V30 5 1 3 6
M  V30 6 1 4 7
M  V30 7 1 4 8
M  V30 8 2 5 9
M  V30 9 1 6 10
M  V30 10 1 6 11
M  V30 11 2 7 12
M  V30 12 1 7 13
M  V30 13 1 8 14
M  V30 14 1 11 15
M  V30 15 1 13 16
M  V30 16 1 14 17
M  V30 17 1 15 18
M  V30 18 1 16 19
M  V30 19 1 18 20
M  V30 20 1 18 21
M  V30 21 1 18 22
M  V30 22 1 9 12
M  V30 23 1 14 16
M  V30 24 1 3 23
M  V30 25 1 3 24
M  V30 26 1 5 25
M  V30 27 1 6 26
M  V30 28 1 8 27
M  V30 29 1 8 28
M  V30 30 1 9 29
M  V30 31 1 10 30
M  V30 32 1 11 31
M  V30 33 1 11 32
M  V30 34 1 12 33
M  V30 35 1 13 34
M  V30 36 1 13 35
M  V30 37 1 14 36
M  V30 38 1 15 37
M  V30 39 1 15 38
M  V30 40 1 16 39
M  V30 41 1 17 40
M  V30 42 1 19 41
M  V30 43 1 20 42
M  V30 44 1 20 43
M  V30 45 1 20 44
M  V30 46 1 21 45
M  V30 47 1 21 46
M  V30 48 1 21 47
M  V30 49 1 22 48
M  V30 50 1 22 49
M  V30 51 1 22 50
M  V30 END BOND
M  V30 BEGIN COLLECTION
M  V30 MDLV30/STEABS ATOMS=(3 6 14 16)
M  V30 END COLLECTION
M  V30 END CTAB
M  END
>  <Structure No>
5158

>  <LogS>
-1.5699

>  <MMFF94 Energy>
107.71

$$$$
Compound 5159
Actelion Java MolfileCreator 2.0

  0  0  0  0  0  0              0 V3000
M  V30 BEGIN CTAB
M  V30 COUNTS 31 32 0 0 0
M  V30 BEGIN ATOM
M  V30 1 Cl -2.0817 2.3317 -0.0832 0
M  V30 2 C -3.1473 0.9591 0.1883 0
M  V30 3 C -2.673 -0.2381 0.7633 0
M  V30 4 C -4.506 1.0897 -0.1249 0
M  V30 5 O -1.3224 -0.4154 1.0883 0
M  V30 6 C -3.5746 -1.2702 1.0501 0
M  V30 7 C -5.395 0.0433 0.1419 0
M  V30 8 C -0.2637 -0.3247 0.1718 0
M  V30 9 C -4.9292 -1.1339 0.7347 0
M  V30 10 Cl -7.096 0.2144 -0.2514 0
M  V30 11 C 1.0359 -0.1774 0.6642 0
M  V30 12 C -0.4684 -0.4115 -1.2137 0
M  V30 13 C 2.1382 -0.0943 -0.2054 0
M  V30 14 C 0.6109 -0.3113 -2.0911 0
M  V30 15 C 1.9171 -0.1304 -1.6064 0
M  V30 16 C 3.4954 -0.0355 0.3843 0
M  V30 17 N 2.9869 0.071 -2.5443 0 CHG=1
M  V30 18 O 4.4805 -0.5268 -0.2322 0
M  V30 19 O 3.673 0.5249 1.6541 0
M  V30 20 O 2.9802 -0.5274 -3.6399 0
M  V30 21 O 3.8892 1.0916 -2.3501 0 CHG=-1
M  V30 22 C 4.9432 0.5972 2.2905 0
M  V30 23 H -4.873 2.0086 -0.5649 0
M  V30 24 H -3.2206 -2.186 1.5065 0
M  V30 25 H -5.615 -1.9431 0.9513 0
M  V30 26 H 1.1835 -0.1509 1.7373 0
M  V30 27 H -1.4618 -0.5527 -1.6187 0
M  V30 28 H 0.4238 -0.3473 -3.1571 0
M  V30 29 H 4.8273 1.0827 3.2812 0
M  V30 30 H 5.354 -0.4242 2.4362 0
M  V30 31 H 5.6435 1.1995 1.6738 0
M  V30 END ATOM
M  V30 BEGIN BOND
M  V30 1 1 1 2
M  V30 2 2 2 3
M  V30 3 1 2 4
M  V30 4 1 3 5
M  V30 5 1 3 6
M  V30 6 2 4 7
M  V30 7 1 5 8
M  V30 8 2 6 9
M  V30 9 1 7 10
M  V30 10 2 8 11
M  V30 11 1 8 12
M  V30 12 1 11 13
M  V30 13 2 12 14
M  V30 14 2 13 15
M  V30 15 1 13 16
M  V30 16 1 15 17
M  V30 17 2 16 18
M  V30 18 1 16 19
M  V30 19 2 17 20
M  V30 20 1 17 21
M  V30 21 1 19 22
M  V30 22 1 7 9
M  V30 23 1 14 15
M  V30 24 1 4 23
M  V30 25 1 6 24
M  V30 26 1 9 25
M  V30 27 1 11 26
M  V30 28 1 12 27
M  V30 29 1 14 28
M  V30 30 1 22 29
M  V30 31 1 22 30
M  V30 32 1 22 31
M  V30 END BOND
M  V30 END CTAB
M  END
>  <Structure No>
5159

>  <LogS>
-5.9343

>  <MMFF94 Energy>
48.561

$$$$
Compound 5160
Actelion Java MolfileCreator 2.0

  0  0  0  0  0  0              0 V3000
M  V30 BEGIN CTAB
M  V30 COUNTS 48 47 0 0 0
M  V30 BEGIN ATOM
M  V30 1 O 4.1464 -0.3124 -1.8759 0
M  V30 2 C 4.5245 -0.8787 -0.8168 0
M  V30 3 O 5.8429 -1.3487 -0.7574 0
M  V30 4 C 3.5724 -1.0811 0.3086 0
M  V30 5 C 6.4089 -2.0041 0.3725 0
M  V30 6 C 2.4168 -0.4085 0.4812 0
M  V30 7 C 7.8293 -2.2517 0.1245 0
M  V30 8 C 2.0187 0.7123 -0.4037 0
M  V30 9 C 1.552 -0.756 1.6643 0
M  V30 10 C 9.0 -2.4538 -0.0804 0
M  V30 11 C 0.8547 0.7771 -1.0644 0
M  V30 12 C -0.1897 -0.311 -1.0288 0
M  V30 13 C -1.3598 -0.0438 -2.0038 0 CFG=2
M  V30 14 C -2.1567 1.2672 -1.7306 0
M  V30 15 C -2.2815 -1.2706 -2.096 0
M  V30 16 C -2.4078 1.6631 -0.26 0
M  V30 17 C -3.368 0.7173 0.4812 0
M  V30 18 C -3.8412 1.2964 1.8365 0
M  V30 19 C -4.9246 2.3705 1.6523 0
M  V30 20 C -4.3783 0.1748 2.7368 0
M  V30 21 H 3.8277 -1.8392 1.0392 0
M  V30 22 H 5.9012 -2.9775 0.5402 0
M  V30 23 H 6.3094 -1.3641 1.2762 0
M  V30 24 H 2.7408 1.5033 -0.5675 0
M  V30 25 H 1.0092 -1.7039 1.4642 0
M  V30 26 H 0.8165 0.0515 1.8706 0
M  V30 27 H 2.1729 -0.8785 2.5775 0
M  V30 28 H 10.0274 -2.6323 -0.2596 0
M  V30 29 H 0.6938 1.6381 -1.7031 0
M  V30 30 H -0.5829 -0.4301 -5.0E-4 0
M  V30 31 H 0.3015 -1.2682 -1.3116 0
M  V30 32 H -0.9156 0.0661 -3.0189 0
M  V30 33 H -3.1295 1.2378 -2.2673 0
M  V30 34 H -1.5966 2.1056 -2.1969 0
M  V30 35 H -3.1172 -1.0778 -2.8032 0
M  V30 36 H -2.7027 -1.5476 -1.1105 0
M  V30 37 H -1.7107 -2.1431 -2.4812 0
M  V30 38 H -1.4494 1.7435 0.2958 0
M  V30 39 H -2.841 2.6846 -0.2778 0
M  V30 40 H -4.2466 0.4787 -0.1564 0
M  V30 41 H -2.8242 -0.2272 0.68 0
M  V30 42 H -2.9738 1.7576 2.3584 0
M  V30 43 H -5.7938 1.9605 1.0944 0
M  V30 44 H -4.5278 3.2484 1.1041 0
M  V30 45 H -5.2775 2.7324 2.6419 0
M  V30 46 H -4.6838 0.5862 3.7228 0
M  V30 47 H -5.2562 -0.3192 2.2666 0
M  V30 48 H -3.5908 -0.5881 2.9179 0
M  V30 END ATOM
M  V30 BEGIN BOND
M  V30 1 2 1 2
M  V30 2 1 2 3
M  V30 3 1 2 4
M  V30 4 1 3 5
M  V30 5 2 4 6
M  V30 6 1 5 7
M  V30 7 1 6 8
M  V30 8 1 6 9
M  V30 9 3 7 10
M  V30 10 2 8 11
M  V30 11 1 11 12
M  V30 12 1 12 13
M  V30 13 1 13 14
M  V30 14 1 13 15
M  V30 15 1 14 16
M  V30 16 1 16 17
M  V30 17 1 17 18
M  V30 18 1 18 19
M  V30 19 1 18 20
M  V30 20 1 4 21
M  V30 21 1 5 22
M  V30 22 1 5 23
M  V30 23 1 8 24
M  V30 24 1 9 25
M  V30 25 1 9 26
M  V30 26 1 9 27
M  V30 27 1 10 28
M  V30 28 1 11 29
M  V30 29 1 12 30
M  V30 30 1 12 31
M  V30 31 1 13 32
M  V30 32 1 14 33
M  V30 33 1 14 34
M  V30 34 1 15 35
M  V30 35 1 15 36
M  V30 36 1 15 37
M  V30 37 1 16 38
M  V30 38 1 16 39
M  V30 39 1 17 40
M  V30 40 1 17 41
M  V30 41 1 18 42
M  V30 42 1 19 43
M  V30 43 1 19 44
M  V30 44 1 19 45
M  V30 45 1 20 46
M  V30 46 1 20 47
M  V30 47 1 20 48
M  V30 END BOND
M  V30 BEGIN COLLECTION
M  V30 MDLV30/STEABS ATOMS=(1 13)
M  V30 END COLLECTION
M  V30 END CTAB
M  END
>  <Structure No>
5160

>  <LogS>
-4.7239

>  <MMFF94 Energy>
11.359

$$$$
Compound 5161
Actelion Java MolfileCreator 2.0

  0  0  0  0  0  0              0 V3000
M  V30 BEGIN CTAB
M  V30 COUNTS 40 41 0 0 0
M  V30 BEGIN ATOM
M  V30 1 O 0.7113 -1.5022 0.0 0
M  V30 2 C 0.3783 -0.3452 0.3725 0
M  V30 3 N 1.387 0.6107 0.7347 0
M  V30 4 N -1.0103 0.0174 0.4843 0
M  V30 5 C 2.7881 0.4508 0.4533 0
M  V30 6 C -2.1584 -0.8539 0.1508 0
M  V30 7 C 3.2335 -0.173 -0.7258 0
M  V30 8 C 3.7334 0.9865 1.3405 0
M  V30 9 C -3.4466 -0.0071 0.1744 0
M  V30 10 C -2.0083 -1.4302 -1.2756 0
M  V30 11 C -2.1973 -2.0215 1.1632 0
M  V30 12 C 4.6015 -0.294 -0.9878 0
M  V30 13 C 5.1011 0.8644 1.079 0
M  V30 14 C -3.4922 1.1864 -0.5805 0
M  V30 15 C -4.6129 -0.3881 0.8808 0
M  V30 16 C 5.5439 0.2059 -0.0773 0
M  V30 17 C -4.6446 1.9759 -0.6108 0
M  V30 18 C -5.7621 0.4079 0.8452 0
M  V30 19 C 7.0102 0.1114 -0.3786 0
M  V30 20 C -5.7777 1.5883 0.1026 0
M  V30 21 H 1.0929 1.4335 1.3083 0
M  V30 22 H -1.2048 0.9618 0.8896 0
M  V30 23 H 2.5279 -0.5407 -1.4587 0
M  V30 24 H 3.4084 1.494 2.2403 0
M  V30 25 H -1.747 -0.6283 -1.9985 0
M  V30 26 H -1.2235 -2.212 -1.327 0
M  V30 27 H -2.9596 -1.9031 -1.6037 0
M  V30 28 H -2.3616 -1.6359 2.1924 0
M  V30 29 H -1.2424 -2.5854 1.1644 0
M  V30 30 H -2.9986 -2.7466 0.9047 0
M  V30 31 H 4.9253 -0.7707 -1.9048 0
M  V30 32 H 5.8142 1.2847 1.7776 0
M  V30 33 H -2.6291 1.5094 -1.1489 0
M  V30 34 H -4.657 -1.2943 1.466 0
M  V30 35 H -4.6586 2.8895 -1.1913 0
M  V30 36 H -6.645 0.1061 1.3941 0
M  V30 37 H 7.6005 0.0589 0.5608 0
M  V30 38 H 7.3268 1.005 -0.956 0
M  V30 39 H 7.2297 -0.8008 -0.9732 0
M  V30 40 H -6.6699 2.2007 0.0774 0
M  V30 END ATOM
M  V30 BEGIN BOND
M  V30 1 2 1 2
M  V30 2 1 2 3
M  V30 3 1 2 4
M  V30 4 1 3 5
M  V30 5 1 4 6
M  V30 6 2 5 7
M  V30 7 1 5 8
M  V30 8 1 6 9
M  V30 9 1 6 10
M  V30 10 1 6 11
M  V30 11 1 7 12
M  V30 12 2 8 13
M  V30 13 2 9 14
M  V30 14 1 9 15
M  V30 15 2 12 16
M  V30 16 1 14 17
M  V30 17 2 15 18
M  V30 18 1 16 19
M  V30 19 2 17 20
M  V30 20 1 13 16
M  V30 21 1 18 20
M  V30 22 1 3 21
M  V30 23 1 4 22
M  V30 24 1 7 23
M  V30 25 1 8 24
M  V30 26 1 10 25
M  V30 27 1 10 26
M  V30 28 1 10 27
M  V30 29 1 11 28
M  V30 30 1 11 29
M  V30 31 1 11 30
M  V30 32 1 12 31
M  V30 33 1 13 32
M  V30 34 1 14 33
M  V30 35 1 15 34
M  V30 36 1 17 35
M  V30 37 1 18 36
M  V30 38 1 19 37
M  V30 39 1 19 38
M  V30 40 1 19 39
M  V30 41 1 20 40
M  V30 END BOND
M  V30 END CTAB
M  END
>  <Structure No>
5161

>  <LogS>
-5.3495

>  <MMFF94 Energy>
-26.632

$$$$
Compound 5162
Actelion Java MolfileCreator 2.0

  0  0  0  0  0  0              0 V3000
M  V30 BEGIN CTAB
M  V30 COUNTS 40 41 0 0 0
M  V30 BEGIN ATOM
M  V30 1 O 1.1068 0.7905 1.4232 0
M  V30 2 C 0.8318 0.1951 0.3462 0
M  V30 3 N 1.8834 -0.4833 -0.373 0
M  V30 4 N -0.5196 0.1993 -0.1576 0
M  V30 5 C 3.2608 -0.1535 -0.1116 0
M  V30 6 C 1.5592 -1.4549 -1.4221 0
M  V30 7 C -1.7175 0.6172 0.6027 0
M  V30 8 C 3.6919 1.1832 -0.1646 0
M  V30 9 C 4.1871 -1.1617 0.2058 0
M  V30 10 C -2.9728 0.1246 -0.1427 0
M  V30 11 C -1.7313 -0.0339 2.0043 0
M  V30 12 C -1.6836 2.1546 0.757 0
M  V30 13 C 5.0286 1.504 0.0911 0
M  V30 14 C 5.523 -0.8366 0.4614 0
M  V30 15 C -4.1044 0.9423 -0.376 0
M  V30 16 C -3.0341 -1.2239 -0.5596 0
M  V30 17 C 5.9436 0.4949 0.4034 0
M  V30 18 C -5.2311 0.433 -1.0292 0
M  V30 19 C -4.1639 -1.7251 -1.2114 0
M  V30 20 C -5.2601 -0.8967 -1.4486 0
M  V30 21 H -0.645 -0.0247 -1.1704 0
M  V30 22 H 2.4389 -2.0796 -1.6833 0
M  V30 23 H 1.2346 -0.9194 -2.3388 0
M  V30 24 H 0.7478 -2.1316 -1.0785 0
M  V30 25 H 2.9933 1.9726 -0.4125 0
M  V30 26 H 3.8711 -2.1951 0.2692 0
M  V30 27 H -0.9697 0.4118 2.676 0
M  V30 28 H -1.537 -1.1253 1.9313 0
M  V30 29 H -2.7203 0.1149 2.4905 0
M  V30 30 H -1.7651 2.6446 -0.2369 0
M  V30 31 H -0.7342 2.4905 1.2214 0
M  V30 32 H -2.5062 2.5091 1.4146 0
M  V30 33 H 5.3553 2.535 0.0462 0
M  V30 34 H 6.2316 -1.6168 0.7079 0
M  V30 35 H -4.1371 1.9751 -0.0627 0
M  V30 36 H -2.2016 -1.8927 -0.3786 0
M  V30 37 H 6.9779 0.7448 0.6018 0
M  V30 38 H -6.0869 1.0719 -1.2068 0
M  V30 39 H -4.1899 -2.7594 -1.5292 0
M  V30 40 H -6.135 -1.2869 -1.9525 0
M  V30 END ATOM
M  V30 BEGIN BOND
M  V30 1 2 1 2
M  V30 2 1 2 3
M  V30 3 1 2 4
M  V30 4 1 3 5
M  V30 5 1 3 6
M  V30 6 1 4 7
M  V30 7 2 5 8
M  V30 8 1 5 9
M  V30 9 1 7 10
M  V30 10 1 7 11
M  V30 11 1 7 12
M  V30 12 1 8 13
M  V30 13 2 9 14
M  V30 14 2 10 15
M  V30 15 1 10 16
M  V30 16 2 13 17
M  V30 17 1 15 18
M  V30 18 2 16 19
M  V30 19 2 18 20
M  V30 20 1 14 17
M  V30 21 1 19 20
M  V30 22 1 4 21
M  V30 23 1 6 22
M  V30 24 1 6 23
M  V30 25 1 6 24
M  V30 26 1 8 25
M  V30 27 1 9 26
M  V30 28 1 11 27
M  V30 29 1 11 28
M  V30 30 1 11 29
M  V30 31 1 12 30
M  V30 32 1 12 31
M  V30 33 1 12 32
M  V30 34 1 13 33
M  V30 35 1 14 34
M  V30 36 1 15 35
M  V30 37 1 16 36
M  V30 38 1 17 37
M  V30 39 1 18 38
M  V30 40 1 19 39
M  V30 41 1 20 40
M  V30 END BOND
M  V30 END CTAB
M  END
>  <Structure No>
5162

>  <LogS>
-3.3495

>  <MMFF94 Energy>
-13.619

$$$$
Compound 5163
Actelion Java MolfileCreator 2.0

  0  0  0  0  0  0              0 V3000
M  V30 BEGIN CTAB
M  V30 COUNTS 22 23 0 0 0
M  V30 BEGIN ATOM
M  V30 1 Cl -4.0483 -2.2582 -0.094 0
M  V30 2 C -2.9666 -0.8665 -0.1835 0
M  V30 3 C -3.4984 0.4334 -0.2838 0
M  V30 4 C -1.5718 -1.0558 -0.1551 0
M  V30 5 Cl -5.2451 0.6796 -0.3199 0
M  V30 6 C -2.6334 1.5383 -0.3555 0
M  V30 7 Cl -0.899 -2.6843 -0.033 0
M  V30 8 C -0.7132 0.0577 -0.2266 0
M  V30 9 Cl -3.2543 3.1796 -0.4821 0
M  V30 10 C -1.2507 1.3463 -0.3267 0
M  V30 11 C 0.7551 -0.1064 -0.1983 0
M  V30 12 C 1.4441 -0.1417 1.0322 0
M  V30 13 C 1.4731 -0.2275 -1.4029 0
M  V30 14 Cl 0.5546 0.0134 2.5511 0
M  V30 15 C 2.8429 -0.301 1.0496 0
M  V30 16 Cl 0.6588 -0.192 -2.9641 0
M  V30 17 C 2.8604 -0.3849 -1.3758 0
M  V30 18 Cl 3.7134 -0.3486 2.5835 0
M  V30 19 C 3.5471 -0.4226 -0.1601 0
M  V30 20 Cl 5.2948 -0.6236 -0.1847 0
M  V30 21 H -0.5903 2.2038 -0.3822 0
M  V30 22 H 3.4082 -0.4792 -2.3051 0
M  V30 END ATOM
M  V30 BEGIN BOND
M  V30 1 1 1 2
M  V30 2 2 2 3
M  V30 3 1 2 4
M  V30 4 1 3 5
M  V30 5 1 3 6
M  V30 6 1 4 7
M  V30 7 2 4 8
M  V30 8 1 6 9
M  V30 9 2 6 10
M  V30 10 1 8 11
M  V30 11 2 11 12
M  V30 12 1 11 13
M  V30 13 1 12 14
M  V30 14 1 12 15
M  V30 15 1 13 16
M  V30 16 2 13 17
M  V30 17 1 15 18
M  V30 18 2 15 19
M  V30 19 1 19 20
M  V30 20 1 8 10
M  V30 21 1 17 19
M  V30 22 1 10 21
M  V30 23 1 17 22
M  V30 END BOND
M  V30 BEGIN COLLECTION
M  V30 MDLV30/STEABS BONDS=(1 10)
M  V30 END COLLECTION
M  V30 END CTAB
M  END
>  <Structure No>
5163

>  <LogS>
-9.42

>  <MMFF94 Energy>
58.785

$$$$
Compound 5164
Actelion Java MolfileCreator 2.0

  0  0  0  0  0  0              0 V3000
M  V30 BEGIN CTAB
M  V30 COUNTS 35 36 0 0 0
M  V30 BEGIN ATOM
M  V30 1 Cl -3.3049 -3.1395 0.4126 0
M  V30 2 C -3.0371 -1.4355 0.0785 0
M  V30 3 C -1.8527 -1.0114 -0.5401 0
M  V30 4 C -4.0091 -0.5019 0.4559 0
M  V30 5 O -0.8973 -1.9678 -0.9183 0
M  V30 6 C -1.6667 0.3571 -0.8022 0
M  V30 7 C -3.8268 0.8662 0.1916 0
M  V30 8 C 0.4888 -1.7568 -0.9587 0
M  V30 9 C -2.6371 1.2882 -0.4243 0
M  V30 10 C -4.8519 1.8751 0.6455 0
M  V30 11 C 1.1311 -0.8828 -0.068 0
M  V30 12 C 1.2484 -2.4712 -1.8833 0
M  V30 13 F -4.5587 2.2719 1.9367 0
M  V30 14 F -6.1224 1.3264 0.6199 0
M  V30 15 F -4.8447 2.9861 -0.1801 0
M  V30 16 C 2.5253 -0.6814 -0.13 0
M  V30 17 C 2.6302 -2.2964 -1.9481 0
M  V30 18 O 3.1757 0.2241 0.7275 0
M  V30 19 C 3.2876 -1.4057 -1.0783 0
M  V30 20 C 2.5421 1.1239 1.6384 0
M  V30 21 N 4.7197 -1.2477 -1.1713 0 CHG=1
M  V30 22 C 1.9011 2.2904 0.8934 0
M  V30 23 O 5.3432 -1.713 -2.1479 0
M  V30 24 O 5.4368 -0.6337 -0.1705 0 CHG=-1
M  V30 25 H -4.9053 -0.8465 0.9573 0
M  V30 26 H -0.776 0.7045 -1.3089 0
M  V30 27 H -2.4586 2.3384 -0.6183 0
M  V30 28 H 0.5373 -0.3773 0.6778 0
M  V30 29 H 0.7636 -3.1622 -2.5613 0
M  V30 30 H 3.1891 -2.8668 -2.6787 0
M  V30 31 H 1.7982 0.5939 2.2696 0
M  V30 32 H 3.3187 1.5311 2.3194 0
M  V30 33 H 2.6687 2.821 0.2916 0
M  V30 34 H 1.0966 1.9346 0.2181 0
M  V30 35 H 1.4618 3.0023 1.6234 0
M  V30 END ATOM
M  V30 BEGIN BOND
M  V30 1 1 1 2
M  V30 2 2 2 3
M  V30 3 1 2 4
M  V30 4 1 3 5
M  V30 5 1 3 6
M  V30 6 2 4 7
M  V30 7 1 5 8
M  V30 8 2 6 9
M  V30 9 1 7 10
M  V30 10 2 8 11
M  V30 11 1 8 12
M  V30 12 1 10 13
M  V30 13 1 10 14
M  V30 14 1 10 15
M  V30 15 1 11 16
M  V30 16 2 12 17
M  V30 17 1 16 18
M  V30 18 2 16 19
M  V30 19 1 18 20
M  V30 20 1 19 21
M  V30 21 1 20 22
M  V30 22 2 21 23
M  V30 23 1 21 24
M  V30 24 1 7 9
M  V30 25 1 17 19
M  V30 26 1 4 25
M  V30 27 1 6 26
M  V30 28 1 9 27
M  V30 29 1 11 28
M  V30 30 1 12 29
M  V30 31 1 17 30
M  V30 32 1 20 31
M  V30 33 1 20 32
M  V30 34 1 22 33
M  V30 35 1 22 34
M  V30 36 1 22 35
M  V30 END BOND
M  V30 END CTAB
M  END
>  <Structure No>
5164

>  <LogS>
-6.4939

>  <MMFF94 Energy>
110.58

$$$$
Compound 5165
Actelion Java MolfileCreator 2.0

  0  0  0  0  0  0              0 V3000
M  V30 BEGIN CTAB
M  V30 COUNTS 32 31 0 0 0
M  V30 BEGIN ATOM
M  V30 1 O -2.0134 0.0 -0.0773 0
M  V30 2 C -1.2323 1.1714 -0.1926 0
M  V30 3 C -3.0337 0.0134 -1.0538 0
M  V30 4 C -0.0994 1.1415 0.8406 0
M  V30 5 C -3.8986 -1.2393 -0.91 0
M  V30 6 O 0.6117 2.3499 0.7743 0
M  V30 7 C 0.8527 -0.0483 0.6178 0
M  V30 8 C -4.6459 -1.2649 0.4217 0
M  V30 9 O 1.4246 -0.003 -0.6792 0
M  V30 10 C 2.7691 0.4368 -0.6441 0
M  V30 11 C 3.7159 -0.7555 -0.4712 0
M  V30 12 C 5.1756 -0.3119 -0.4994 0
M  V30 13 H -1.8585 2.0709 0.0096 0
M  V30 14 H -0.7941 1.2634 -1.2132 0
M  V30 15 H -3.6825 0.9135 -0.946 0
M  V30 16 H -2.5913 0.007 -2.076 0
M  V30 17 H -0.5632 1.0392 1.85 0
M  V30 18 H -3.2578 -2.1441 -0.9907 0
M  V30 19 H -4.6394 -1.2655 -1.7383 0
M  V30 20 H 1.1261 2.4268 1.6204 0
M  V30 21 H 1.6022 -0.0859 1.4436 0
M  V30 22 H 0.2742 -0.9925 0.704 0
M  V30 23 H -5.3018 -0.3729 0.5141 0
M  V30 24 H -3.929 -1.2827 1.2699 0
M  V30 25 H -5.2779 -2.1763 0.4748 0
M  V30 26 H 2.9886 0.9237 -1.6181 0
M  V30 27 H 2.9544 1.2081 0.1397 0
M  V30 28 H 3.5125 -1.262 0.4963 0
M  V30 29 H 3.5419 -1.486 -1.2906 0
M  V30 30 H 5.3773 0.4025 0.3269 0
M  V30 31 H 5.8352 -1.1962 -0.3732 0
M  V30 32 H 5.4133 0.1727 -1.4703 0
M  V30 END ATOM
M  V30 BEGIN BOND
M  V30 1 1 1 2
M  V30 2 1 1 3
M  V30 3 1 2 4
M  V30 4 1 3 5
M  V30 5 1 4 6
M  V30 6 1 4 7
M  V30 7 1 5 8
M  V30 8 1 7 9
M  V30 9 1 9 10
M  V30 10 1 10 11
M  V30 11 1 11 12
M  V30 12 1 2 13
M  V30 13 1 2 14
M  V30 14 1 3 15
M  V30 15 1 3 16
M  V30 16 1 4 17
M  V30 17 1 5 18
M  V30 18 1 5 19
M  V30 19 1 6 20
M  V30 20 1 7 21
M  V30 21 1 7 22
M  V30 22 1 8 23
M  V30 23 1 8 24
M  V30 24 1 8 25
M  V30 25 1 10 26
M  V30 26 1 10 27
M  V30 27 1 11 28
M  V30 28 1 11 29
M  V30 29 1 12 30
M  V30 30 1 12 31
M  V30 31 1 12 32
M  V30 END BOND
M  V30 END CTAB
M  END
>  <Structure No>
5165

>  <LogS>
-0.3431

>  <MMFF94 Energy>
42.2

$$$$
Compound 5166
Actelion Java MolfileCreator 2.0

  0  0  0  0  0  0              0 V3000
M  V30 BEGIN CTAB
M  V30 COUNTS 36 37 0 0 0
M  V30 BEGIN ATOM
M  V30 1 Cl 6.6992 0.0 -0.2415 0
M  V30 2 C 4.9588 -0.0463 -0.4551 0
M  V30 3 C 4.1132 0.2385 0.6212 0
M  V30 4 C 4.4146 -0.3687 -1.7019 0
M  V30 5 C 2.7253 0.2023 0.4533 0
M  V30 6 C 3.0274 -0.4052 -1.8725 0
M  V30 7 C 2.1709 -0.1195 -0.8017 0
M  V30 8 O 0.7862 -0.1675 -1.0288 0
M  V30 9 C -0.2178 0.1389 -0.059 0 CFG=1
M  V30 10 N -0.1693 1.5577 0.2955 0
M  V30 11 C -1.5762 -0.1896 -0.6337 0
M  V30 12 N -0.4066 2.0301 1.5049 0
M  V30 13 C 0.0379 2.598 -0.53 0
M  V30 14 O -1.8714 0.2885 -1.7209 0
M  V30 15 C -2.5692 -1.0958 0.0992 0
M  V30 16 C -0.3201 3.3697 1.3937 0
M  V30 17 N -0.0443 3.7678 0.132 0
M  V30 18 C -2.8602 -0.5287 1.5037 0
M  V30 19 C -3.9048 -1.1826 -0.6748 0
M  V30 20 C -1.9832 -2.5163 0.2208 0
M  V30 21 H 4.5298 0.488 1.5888 0
M  V30 22 H 5.0644 -0.5905 -2.5388 0
M  V30 23 H 2.0972 0.4256 1.3039 0
M  V30 24 H 2.615 -0.6547 -2.8418 0
M  V30 25 H -0.0318 -0.4702 0.8492 0
M  V30 26 H 0.2383 2.5127 -1.5901 0
M  V30 27 H -0.4627 4.0515 2.2212 0
M  V30 28 H -3.6309 -1.1401 2.0212 0
M  V30 29 H -1.9507 -0.5305 2.1399 0
M  V30 30 H -3.2335 0.5157 1.4306 0
M  V30 31 H -4.3623 -0.1749 -0.7811 0
M  V30 32 H -3.7441 -1.6054 -1.6902 0
M  V30 33 H -4.6295 -1.8358 -0.1418 0
M  V30 34 H -1.0615 -2.5247 0.839 0
M  V30 35 H -1.7329 -2.9197 -0.784 0
M  V30 36 H -2.7154 -3.2017 0.7001 0
M  V30 END ATOM
M  V30 BEGIN BOND
M  V30 1 1 1 2
M  V30 2 2 2 3
M  V30 3 1 2 4
M  V30 4 1 3 5
M  V30 5 2 4 6
M  V30 6 2 5 7
M  V30 7 1 7 8
M  V30 8 1 8 9
M  V30 9 1 9 10
M  V30 10 1 9 11
M  V30 11 1 10 12
M  V30 12 1 10 13
M  V30 13 2 11 14
M  V30 14 1 11 15
M  V30 15 2 12 16
M  V30 16 2 13 17
M  V30 17 1 15 18
M  V30 18 1 15 19
M  V30 19 1 15 20
M  V30 20 1 6 7
M  V30 21 1 16 17
M  V30 22 1 3 21
M  V30 23 1 4 22
M  V30 24 1 5 23
M  V30 25 1 6 24
M  V30 26 1 9 25
M  V30 27 1 13 26
M  V30 28 1 16 27
M  V30 29 1 18 28
M  V30 30 1 18 29
M  V30 31 1 18 30
M  V30 32 1 19 31
M  V30 33 1 19 32
M  V30 34 1 19 33
M  V30 35 1 20 34
M  V30 36 1 20 35
M  V30 37 1 20 36
M  V30 END BOND
M  V30 BEGIN COLLECTION
M  V30 MDLV30/STEABS ATOMS=(1 9)
M  V30 END COLLECTION
M  V30 END CTAB
M  END
>  <Structure No>
5166

>  <LogS>
-3.6137

>  <MMFF94 Energy>
69.114

$$$$
Compound 5167
Actelion Java MolfileCreator 2.0

  0  0  0  0  0  0              0 V3000
M  V30 BEGIN CTAB
M  V30 COUNTS 20 20 0 0 0
M  V30 BEGIN ATOM
M  V30 1 O 1.2687 1.8242 -1.2687 0
M  V30 2 C 1.7292 0.8428 -0.6252 0
M  V30 3 N 0.8923 -0.297 -0.3627 0
M  V30 4 C 3.1466 0.8721 -0.2088 0
M  V30 5 C -0.5452 -0.2468 -0.3585 0
M  V30 6 O 3.9848 1.8412 -0.7497 0 CHG=-1
M  V30 7 C 3.6474 0.0168 0.6828 0
M  V30 8 C -1.2769 -1.3944 -0.7044 0
M  V30 9 C -1.2383 0.9125 0.0389 0
M  V30 10 C -2.675 -1.3749 -0.6869 0
M  V30 11 C -2.6366 0.9273 0.056 0
M  V30 12 C -3.3544 -0.2137 -0.3103 0
M  V30 13 H 1.3466 -1.2348 -0.288 0
M  V30 14 H 4.6914 0.0761 0.9627 0
M  V30 15 H 3.0355 -0.7324 1.1664 0
M  V30 16 H -0.7626 -2.3013 -0.9964 0
M  V30 17 H -0.7031 1.7971 0.3574 0
M  V30 18 H -3.2315 -2.2611 -0.9632 0
M  V30 19 H -3.164 1.8218 0.3613 0
M  V30 20 H -4.4366 -0.2007 -0.2951 0
M  V30 END ATOM
M  V30 BEGIN BOND
M  V30 1 2 1 2
M  V30 2 1 2 3
M  V30 3 1 2 4
M  V30 4 1 3 5
M  V30 5 1 4 6
M  V30 6 2 4 7
M  V30 7 2 5 8
M  V30 8 1 5 9
M  V30 9 1 8 10
M  V30 10 2 9 11
M  V30 11 2 10 12
M  V30 12 1 11 12
M  V30 13 1 3 13
M  V30 14 1 7 14
M  V30 15 1 7 15
M  V30 16 1 8 16
M  V30 17 1 9 17
M  V30 18 1 10 18
M  V30 19 1 11 19
M  V30 20 1 12 20
M  V30 END BOND
M  V30 END CTAB
M  END
>  <Structure No>
5167

>  <LogS>
-1.3676

>  <MMFF94 Energy>
12.111

$$$$
Compound 5168
Actelion Java MolfileCreator 2.0

  0  0  0  0  0  0              0 V3000
M  V30 BEGIN CTAB
M  V30 COUNTS 34 34 0 0 0
M  V30 BEGIN ATOM
M  V30 1 S 0.8138 0.651 -1.7911 0
M  V30 2 O 1.751 0.8354 -2.9514 0
M  V30 3 O -0.2628 1.6956 -1.9013 0
M  V30 4 N 0.1008 -0.946 -1.9022 0
M  V30 5 C 1.7304 0.9129 -0.3007 0
M  V30 6 C -1.2425 -1.0494 -1.2946 0
M  V30 7 C 1.0303 -2.0002 -1.4804 0
M  V30 8 C 3.0045 0.3435 -0.1514 0
M  V30 9 C 1.2231 1.7378 0.7162 0
M  V30 10 C -1.2551 -0.9395 0.2443 0
M  V30 11 C 3.7428 0.563 1.0154 0
M  V30 12 C 1.9633 1.9551 1.8824 0
M  V30 13 C -2.6653 -1.1134 0.8384 0
M  V30 14 C 3.2208 1.3651 2.0338 0
M  V30 15 C -3.6274 0.0483 0.5389 0
M  V30 16 C -3.1391 1.3465 1.105 0
M  V30 17 O -3.1841 1.5537 2.3462 0
M  V30 18 O -2.6103 2.3173 0.264 0 CHG=-1
M  V30 19 H -1.8928 -0.2671 -1.736 0
M  V30 20 H -1.6919 -2.0231 -1.5889 0
M  V30 21 H 1.9308 -1.9832 -2.1296 0
M  V30 22 H 0.5564 -2.9985 -1.5937 0
M  V30 23 H 1.3479 -1.8687 -0.426 0
M  V30 24 H 3.4258 -0.2703 -0.937 0
M  V30 25 H 0.2565 2.2125 0.611 0
M  V30 26 H -0.8384 0.0306 0.5668 0
M  V30 27 H -0.6208 -1.7392 0.6787 0
M  V30 28 H 4.7213 0.1146 1.1285 0
M  V30 29 H 1.5635 2.5844 2.6672 0
M  V30 30 H -3.1113 -2.0577 0.4571 0
M  V30 31 H -2.5735 -1.2228 1.9416 0
M  V30 32 H 3.7935 1.5352 2.9364 0
M  V30 33 H -4.6155 -0.1842 0.9915 0
M  V30 34 H -3.7918 0.1498 -0.5535 0
M  V30 END ATOM
M  V30 BEGIN BOND
M  V30 1 2 1 2
M  V30 2 2 1 3
M  V30 3 1 1 4
M  V30 4 1 1 5
M  V30 5 1 4 6
M  V30 6 1 4 7
M  V30 7 2 5 8
M  V30 8 1 5 9
M  V30 9 1 6 10
M  V30 10 1 8 11
M  V30 11 2 9 12
M  V30 12 1 10 13
M  V30 13 2 11 14
M  V30 14 1 13 15
M  V30 15 1 15 16
M  V30 16 2 16 17
M  V30 17 1 16 18
M  V30 18 1 12 14
M  V30 19 1 6 19
M  V30 20 1 6 20
M  V30 21 1 7 21
M  V30 22 1 7 22
M  V30 23 1 7 23
M  V30 24 1 8 24
M  V30 25 1 9 25
M  V30 26 1 10 26
M  V30 27 1 10 27
M  V30 28 1 11 28
M  V30 29 1 12 29
M  V30 30 1 13 30
M  V30 31 1 13 31
M  V30 32 1 14 32
M  V30 33 1 15 33
M  V30 34 1 15 34
M  V30 END BOND
M  V30 END CTAB
M  END
>  <Structure No>
5168

>  <LogS>
-1.5585

>  <MMFF94 Energy>
-18.128

$$$$
Compound 5169
Actelion Java MolfileCreator 2.0

  0  0  0  0  0  0              0 V3000
M  V30 BEGIN CTAB
M  V30 COUNTS 29 29 0 0 0
M  V30 BEGIN ATOM
M  V30 1 O -1.2615 -0.0788 1.656 0
M  V30 2 C -1.6501 -0.3963 0.4981 0
M  V30 3 O -0.7869 -1.0741 -0.3723 0
M  V30 4 C -3.0216 -0.0604 0.0586 0
M  V30 5 C 0.5673 -1.3865 -0.0525 0
M  V30 6 C -3.4663 -0.4077 -1.2283 0
M  V30 7 C -3.9112 0.6133 0.9129 0
M  V30 8 C 1.4468 -0.1382 -0.1662 0
M  V30 9 N -4.7286 -0.0947 -1.626 0
M  V30 10 C -5.2015 0.9223 0.479 0
M  V30 11 C 2.9148 -0.469 0.1253 0
M  V30 12 C -5.5965 0.5561 -0.8077 0
M  V30 13 C 3.7931 0.7821 0.0118 0
M  V30 14 C 5.2556 0.457 0.3012 0
M  V30 15 H 0.9259 -2.1523 -0.7728 0
M  V30 16 H 0.6289 -1.8198 0.9699 0
M  V30 17 H -2.814 -0.9263 -1.9185 0
M  V30 18 H -3.6111 0.9007 1.9129 0
M  V30 19 H 1.3554 0.2752 -1.1944 0
M  V30 20 H 1.0926 0.6306 0.5538 0
M  V30 21 H -5.8892 1.441 1.1344 0
M  V30 22 H 3.0003 -0.8866 1.1529 0
M  V30 23 H 3.2706 -1.235 -0.5985 0
M  V30 24 H -6.5935 0.7894 -1.1568 0
M  V30 25 H 3.7148 1.2034 -1.0141 0
M  V30 26 H 3.4459 1.5512 0.7359 0
M  V30 27 H 5.6356 -0.2918 -0.4256 0
M  V30 28 H 5.3653 0.0572 1.3318 0
M  V30 29 H 5.8662 1.3801 0.2119 0
M  V30 END ATOM
M  V30 BEGIN BOND
M  V30 1 2 1 2
M  V30 2 1 2 3
M  V30 3 1 2 4
M  V30 4 1 3 5
M  V30 5 2 4 6
M  V30 6 1 4 7
M  V30 7 1 5 8
M  V30 8 1 6 9
M  V30 9 2 7 10
M  V30 10 1 8 11
M  V30 11 2 9 12
M  V30 12 1 11 13
M  V30 13 1 13 14
M  V30 14 1 10 12
M  V30 15 1 5 15
M  V30 16 1 5 16
M  V30 17 1 6 17
M  V30 18 1 7 18
M  V30 19 1 8 19
M  V30 20 1 8 20
M  V30 21 1 10 21
M  V30 22 1 11 22
M  V30 23 1 11 23
M  V30 24 1 12 24
M  V30 25 1 13 25
M  V30 26 1 13 26
M  V30 27 1 14 27
M  V30 28 1 14 28
M  V30 29 1 14 29
M  V30 END BOND
M  V30 END CTAB
M  END
>  <Structure No>
5169

>  <LogS>
-2.3776

>  <MMFF94 Energy>
23.971

$$$$
Compound 5170
Actelion Java MolfileCreator 2.0

  0  0  0  0  0  0              0 V3000
M  V30 BEGIN CTAB
M  V30 COUNTS 24 24 0 0 0
M  V30 BEGIN ATOM
M  V30 1 O 2.6807 -2.5228 -1.4973 0
M  V30 2 N 2.9408 -1.3318 -1.2265 0 CHG=1
M  V30 3 O 4.1438 -0.8145 -1.6484 0 CHG=-1
M  V30 4 C 1.9884 -0.5221 -0.5028 0
M  V30 5 C 2.2901 0.8041 -0.1145 0
M  V30 6 C 0.7259 -1.0546 -0.1715 0
M  V30 7 O 3.5286 1.3714 -0.4119 0
M  V30 8 C 1.3383 1.5636 0.5806 0
M  V30 9 C -0.2192 -0.2922 0.5314 0
M  V30 10 C 0.0933 1.0225 0.899 0
M  V30 11 C -1.5737 -0.8714 0.852 0
M  V30 12 C -2.5165 -0.8304 -0.3605 0
M  V30 13 N -2.8598 0.5416 -0.739 0 CHG=1
M  V30 14 H 0.4701 -2.0658 -0.4635 0
M  V30 15 H 3.7599 2.32 -0.1397 0
M  V30 16 H 1.5644 2.5807 0.8753 0
M  V30 17 H -0.6288 1.6307 1.4298 0
M  V30 18 H -1.4499 -1.9288 1.1728 0
M  V30 19 H -2.0388 -0.3325 1.7066 0
M  V30 20 H -2.0477 -1.3525 -1.2241 0
M  V30 21 H -3.4483 -1.3803 -0.1015 0
M  V30 22 H -3.2575 1.0552 0.0808 0
M  V30 23 H -3.5763 0.5153 -1.4998 0
M  V30 24 H -2.0141 1.0416 -1.0962 0
M  V30 END ATOM
M  V30 BEGIN BOND
M  V30 1 2 1 2
M  V30 2 1 2 3
M  V30 3 1 2 4
M  V30 4 2 4 5
M  V30 5 1 4 6
M  V30 6 1 5 7
M  V30 7 1 5 8
M  V30 8 2 6 9
M  V30 9 2 8 10
M  V30 10 1 9 11
M  V30 11 1 11 12
M  V30 12 1 12 13
M  V30 13 1 9 10
M  V30 14 1 6 14
M  V30 15 1 7 15
M  V30 16 1 8 16
M  V30 17 1 10 17
M  V30 18 1 11 18
M  V30 19 1 11 19
M  V30 20 1 12 20
M  V30 21 1 12 21
M  V30 22 1 13 22
M  V30 23 1 13 23
M  V30 24 1 13 24
M  V30 END BOND
M  V30 END CTAB
M  END
>  <Structure No>
5170

>  <LogS>
-1.3399

>  <MMFF94 Energy>
70.16

$$$$
Compound 5171
Actelion Java MolfileCreator 2.0

  0  0  0  0  0  0              0 V3000
M  V30 BEGIN CTAB
M  V30 COUNTS 25 26 0 0 0
M  V30 BEGIN ATOM
M  V30 1 O -4.3104 0.0 -0.3188 0
M  V30 2 C -3.1029 0.3636 -0.2654 0
M  V30 3 N -2.1057 -0.5552 -0.0427 0
M  V30 4 N -2.8025 1.682 -0.4344 0
M  V30 5 C -0.7972 -0.1431 -0.0385 0
M  V30 6 C -2.4288 -1.9835 0.115 0
M  V30 7 C -1.5184 2.1236 -0.4098 0
M  V30 8 N 0.2211 -1.0309 0.1339 0
M  V30 9 C -0.4824 1.2134 -0.2155 0
M  V30 10 O -1.2705 3.3498 -0.5688 0
M  V30 11 C 1.5248 -0.6418 0.1456 0
M  V30 12 N 0.817 1.6116 -0.2032 0
M  V30 13 C 1.8327 0.7243 -0.0257 0
M  V30 14 C 2.5912 -1.6776 0.3429 0
M  V30 15 C 3.2458 1.2266 -0.0226 0
M  V30 16 H -3.5762 2.3682 -0.5924 0
M  V30 17 H -1.7511 -2.4639 0.8528 0
M  V30 18 H -2.3282 -2.4981 -0.8636 0
M  V30 19 H -3.461 -2.1307 0.4978 0
M  V30 20 H 3.2719 -1.6924 -0.5337 0
M  V30 21 H 2.1387 -2.686 0.4526 0
M  V30 22 H 3.1727 -1.4523 1.2612 0
M  V30 23 H 3.8174 0.7538 -0.8483 0
M  V30 24 H 3.7301 0.9899 0.9477 0
M  V30 25 H 3.2679 2.3279 -0.166 0
M  V30 END ATOM
M  V30 BEGIN BOND
M  V30 1 2 1 2
M  V30 2 1 2 3
M  V30 3 1 2 4
M  V30 4 1 3 5
M  V30 5 1 3 6
M  V30 6 1 4 7
M  V30 7 2 5 8
M  V30 8 1 5 9
M  V30 9 2 7 10
M  V30 10 1 8 11
M  V30 11 2 9 12
M  V30 12 2 11 13
M  V30 13 1 11 14
M  V30 14 1 13 15
M  V30 15 1 7 9
M  V30 16 1 12 13
M  V30 17 1 4 16
M  V30 18 1 6 17
M  V30 19 1 6 18
M  V30 20 1 6 19
M  V30 21 1 14 20
M  V30 22 1 14 21
M  V30 23 1 14 22
M  V30 24 1 15 23
M  V30 25 1 15 24
M  V30 26 1 15 25
M  V30 END BOND
M  V30 END CTAB
M  END
>  <Structure No>
5171

>  <LogS>
-2.1129

>  <MMFF94 Energy>
-3.6389

$$$$
Compound 5172
Actelion Java MolfileCreator 2.0

  0  0  0  0  0  0              0 V3000
M  V30 BEGIN CTAB
M  V30 COUNTS 36 36 0 0 0
M  V30 BEGIN ATOM
M  V30 1 S -2.0572 2.7162 0.9047 0
M  V30 2 C -0.6577 1.6652 1.2204 0
M  V30 3 C -0.9929 3.5846 -0.2846 0
M  V30 4 S 0.7826 2.6233 1.6496 0
M  V30 5 C -0.6221 0.3518 0.8898 0
M  V30 6 C 0.3935 3.8335 0.3323 0
M  V30 7 C -1.855 -0.3966 0.5418 0
M  V30 8 C 0.6501 -0.4076 0.8802 0
M  V30 9 O -2.9698 -0.065 1.0314 0
M  V30 10 O -1.7625 -1.5088 -0.3045 0
M  V30 11 O 0.6536 -1.6197 1.2316 0
M  V30 12 O 1.8309 0.1976 0.4334 0
M  V30 13 C -2.8905 -2.2702 -0.736 0
M  V30 14 C 3.1072 -0.4404 0.457 0
M  V30 15 C -3.6684 -1.5012 -1.8079 0
M  V30 16 C -2.4012 -3.608 -1.2867 0
M  V30 17 C 4.062 0.3362 -0.4469 0
M  V30 18 C 3.6462 -0.4881 1.8897 0
M  V30 19 H -0.8913 2.9573 -1.197 0
M  V30 20 H -1.4645 4.5473 -0.5741 0
M  V30 21 H 0.4196 4.8481 0.7831 0
M  V30 22 H 1.1735 3.7825 -0.4564 0
M  V30 23 H -3.5596 -2.4763 0.1291 0
M  V30 24 H 3.0187 -1.4763 0.0603 0
M  V30 25 H -3.0097 -1.2698 -2.6722 0
M  V30 26 H -4.5337 -2.1021 -2.1606 0
M  V30 27 H -4.0556 -0.548 -1.3914 0
M  V30 28 H -3.2626 -4.2322 -1.607 0
M  V30 29 H -1.8439 -4.1559 -0.4975 0
M  V30 30 H -1.7249 -3.4472 -2.1535 0
M  V30 31 H 5.0602 -0.1512 -0.4642 0
M  V30 32 H 3.6626 0.3568 -1.483 0
M  V30 33 H 4.1725 1.3821 -0.0877 0
M  V30 34 H 4.6515 -0.9605 1.9072 0
M  V30 35 H 3.7186 0.538 2.3096 0
M  V30 36 H 2.9701 -1.0881 2.5337 0
M  V30 END ATOM
M  V30 BEGIN BOND
M  V30 1 1 1 2
M  V30 2 1 1 3
M  V30 3 1 2 4
M  V30 4 2 2 5
M  V30 5 1 3 6
M  V30 6 1 5 7
M  V30 7 1 5 8
M  V30 8 2 7 9
M  V30 9 1 7 10
M  V30 10 2 8 11
M  V30 11 1 8 12
M  V30 12 1 10 13
M  V30 13 1 12 14
M  V30 14 1 13 15
M  V30 15 1 13 16
M  V30 16 1 14 17
M  V30 17 1 14 18
M  V30 18 1 4 6
M  V30 19 1 3 19
M  V30 20 1 3 20
M  V30 21 1 6 21
M  V30 22 1 6 22
M  V30 23 1 13 23
M  V30 24 1 14 24
M  V30 25 1 15 25
M  V30 26 1 15 26
M  V30 27 1 15 27
M  V30 28 1 16 28
M  V30 29 1 16 29
M  V30 30 1 16 30
M  V30 31 1 17 31
M  V30 32 1 17 32
M  V30 33 1 17 33
M  V30 34 1 18 34
M  V30 35 1 18 35
M  V30 36 1 18 36
M  V30 END BOND
M  V30 END CTAB
M  END
>  <Structure No>
5172

>  <LogS>
-3.7306

>  <MMFF94 Energy>
-18.893

$$$$
Compound 5173
Actelion Java MolfileCreator 2.0

  0  0  0  0  0  0              0 V3000
M  V30 BEGIN CTAB
M  V30 COUNTS 30 31 0 0 0
M  V30 BEGIN ATOM
M  V30 1 Cl -0.6735 0.6735 -2.3589 0
M  V30 2 C -1.764 0.0248 -1.1407 0
M  V30 3 C -1.3423 -0.965 -0.2317 0
M  V30 4 C -3.0931 0.4644 -1.1255 0
M  V30 5 O -0.021 -1.4285 -0.2071 0
M  V30 6 C -2.2696 -1.5324 0.6475 0
M  V30 7 C -4.0134 -0.0681 -0.206 0
M  V30 8 C 1.1039 -0.6186 0.0102 0
M  V30 9 C -3.5953 -1.0915 0.6609 0
M  V30 10 C -5.455 0.3739 -0.2266 0
M  V30 11 C 2.3635 -1.1187 -0.3307 0
M  V30 12 C 1.0024 0.6621 0.5746 0
M  V30 13 F -6.1582 -0.4082 -1.1234 0
M  V30 14 F -6.0246 0.2446 1.0284 0
M  V30 15 F -5.5533 1.7002 -0.6109 0
M  V30 16 C 3.5276 -0.3513 -0.1393 0
M  V30 17 C 2.1476 1.4284 0.7895 0
M  V30 18 C 3.4179 0.9321 0.4561 0
M  V30 19 C 4.8188 -0.8872 -0.6294 0
M  V30 20 N 4.5752 1.717 0.7858 0 CHG=1
M  V30 21 O 5.0086 -2.1313 -0.6879 0
M  V30 22 O 5.8163 -0.0322 -1.0833 0 CHG=-1
M  V30 23 O 5.5565 1.1833 1.3431 0
M  V30 24 O 4.5122 3.0902 0.7251 0 CHG=-1
M  V30 25 H -3.4097 1.2132 -1.8412 0
M  V30 26 H -1.9587 -2.3132 1.3299 0
M  V30 27 H -4.2937 -1.5521 1.3483 0
M  V30 28 H 2.4257 -2.1018 -0.7819 0
M  V30 29 H 0.0411 1.0635 0.8676 0
M  V30 30 H 2.0462 2.4026 1.2513 0
M  V30 END ATOM
M  V30 BEGIN BOND
M  V30 1 1 1 2
M  V30 2 2 2 3
M  V30 3 1 2 4
M  V30 4 1 3 5
M  V30 5 1 3 6
M  V30 6 2 4 7
M  V30 7 1 5 8
M  V30 8 2 6 9
M  V30 9 1 7 10
M  V30 10 2 8 11
M  V30 11 1 8 12
M  V30 12 1 10 13
M  V30 13 1 10 14
M  V30 14 1 10 15
M  V30 15 1 11 16
M  V30 16 2 12 17
M  V30 17 2 16 18
M  V30 18 1 16 19
M  V30 19 1 18 20
M  V30 20 2 19 21
M  V30 21 1 19 22
M  V30 22 2 20 23
M  V30 23 1 20 24
M  V30 24 1 7 9
M  V30 25 1 17 18
M  V30 26 1 4 25
M  V30 27 1 6 26
M  V30 28 1 9 27
M  V30 29 1 11 28
M  V30 30 1 12 29
M  V30 31 1 17 30
M  V30 END BOND
M  V30 END CTAB
M  END
>  <Structure No>
5173

>  <LogS>
-3.4791

>  <MMFF94 Energy>
90.707

$$$$
Compound 5174
Actelion Java MolfileCreator 2.0

  0  0  0  0  0  0              0 V3000
M  V30 BEGIN CTAB
M  V30 COUNTS 77 80 0 0 0
M  V30 BEGIN ATOM
M  V30 1 O -6.0488 -2.4638 0.0794 0
M  V30 2 C -5.5932 -1.1281 0.1037 0
M  V30 3 C -5.8676 -0.4991 -1.2752 0
M  V30 4 C -6.4325 -0.4106 1.1876 0
M  V30 5 C -4.037 -1.1404 0.3763 0 CFG=1
M  V30 6 C -5.9797 0.9012 -1.4277 0
M  V30 7 C -5.973 -1.3049 -2.4301 0
M  V30 8 C -5.9324 -0.0823 2.4708 0
M  V30 9 C -7.8084 -0.1939 0.9448 0
M  V30 10 C -3.2661 -2.0506 -0.6036 0
M  V30 11 C -3.3736 0.2548 0.3556 0
M  V30 12 C -6.2073 1.4684 -2.6842 0
M  V30 13 C -6.2001 -0.7306 -3.6839 0
M  V30 14 C -6.7577 0.5127 3.4299 0
M  V30 15 C -8.6269 0.4003 1.9084 0
M  V30 16 C -1.7745 -2.1013 -0.2351 0
M  V30 17 C -1.8878 0.1378 0.7194 0
M  V30 18 C -6.3193 0.6535 -3.8107 0
M  V30 19 C -8.1 0.7611 3.1471 0
M  V30 20 N -1.1677 -0.7471 -0.2273 0 CHG=1 CFG=1
M  V30 21 C 0.2677 -0.8018 0.1476 0
M  V30 22 C 1.1505 -1.4095 -0.964 0
M  V30 23 C 2.6538 -1.2664 -0.662 0
M  V30 24 C 3.2188 0.1242 -1.0365 0 CFG=2
M  V30 25 O 3.1066 0.3805 -2.4156 0
M  V30 26 C 4.6602 0.2683 -0.5872 0
M  V30 27 C 5.6717 -0.5382 -1.1309 0
M  V30 28 C 5.0017 1.2085 0.3951 0
M  V30 29 C 6.996 -0.4069 -0.7049 0
M  V30 30 C 6.3246 1.3437 0.8214 0
M  V30 31 C 7.3529 0.5391 0.2838 0
M  V30 32 C 8.8015 0.7199 0.7828 0
M  V30 33 C 9.2696 2.1615 0.4886 0
M  V30 34 C 8.8591 0.4624 2.3046 0
M  V30 35 C 9.8019 -0.2473 0.1055 0
M  V30 36 H -5.8633 -2.8694 0.9675 0
M  V30 37 H -3.8758 -1.5896 1.3803 0
M  V30 38 H -5.8871 1.5589 -0.5727 0
M  V30 39 H -5.87 -2.3804 -2.3692 0
M  V30 40 H -4.9121 -0.2771 2.7585 0
M  V30 41 H -8.2526 -0.4868 0.0017 0
M  V30 42 H -3.6721 -3.0844 -0.5716 0
M  V30 43 H -3.3614 -1.6732 -1.6442 0
M  V30 44 H -3.8653 0.9476 1.0675 0
M  V30 45 H -3.4434 0.7052 -0.6567 0
M  V30 46 H -6.2931 2.5426 -2.7842 0
M  V30 47 H -6.2789 -1.3611 -4.5601 0
M  V30 48 H -6.356 0.7728 4.4009 0
M  V30 49 H -9.6743 0.5733 1.6962 0
M  V30 50 H -1.278 -2.7452 -0.9907 0
M  V30 51 H -1.6572 -2.5904 0.7588 0
M  V30 52 H -1.791 -0.2413 1.7628 0
M  V30 53 H -1.4528 1.1623 0.6915 0
M  V30 54 H -6.4934 1.0953 -4.7832 0
M  V30 55 H -8.7357 1.2189 3.8938 0
M  V30 56 H -1.2465 -0.3314 -1.1867 0
M  V30 57 H 0.4036 -1.3856 1.0864 0
M  V30 58 H 0.6353 0.2266 0.3533 0
M  V30 59 H 0.9336 -2.4946 -1.044 0
M  V30 60 H 0.9112 -0.9463 -1.9451 0
M  V30 61 H 3.1996 -2.0481 -1.2337 0
M  V30 62 H 2.8378 -1.4688 0.4163 0
M  V30 63 H 2.6095 0.8931 -0.5176 0
M  V30 64 H 3.4988 -0.3874 -2.9068 0
M  V30 65 H 5.4391 -1.2776 -1.8861 0
M  V30 66 H 4.2429 1.8431 0.8364 0
M  V30 67 H 7.7252 -1.0579 -1.1627 0
M  V30 68 H 6.539 2.0852 1.5787 0
M  V30 69 H 10.3256 2.3052 0.8045 0
M  V30 70 H 9.1978 2.3764 -0.5995 0
M  V30 71 H 8.6552 2.9093 1.0326 0
M  V30 72 H 9.9029 0.541 2.6787 0
M  V30 73 H 8.4801 -0.556 2.5386 0
M  V30 74 H 8.2494 1.1996 2.868 0
M  V30 75 H 9.833 -0.0802 -0.9927 0
M  V30 76 H 10.8307 -0.087 0.4955 0
M  V30 77 H 9.5288 -1.3053 0.3092 0
M  V30 END ATOM
M  V30 BEGIN BOND
M  V30 1 1 1 2
M  V30 2 1 2 3
M  V30 3 1 2 4
M  V30 4 1 2 5
M  V30 5 2 3 6
M  V30 6 1 3 7
M  V30 7 2 4 8
M  V30 8 1 4 9
M  V30 9 1 5 10
M  V30 10 1 5 11
M  V30 11 1 6 12
M  V30 12 2 7 13
M  V30 13 1 8 14
M  V30 14 2 9 15
M  V30 15 1 10 16
M  V30 16 1 11 17
M  V30 17 2 12 18
M  V30 18 2 14 19
M  V30 19 1 16 20
M  V30 20 1 20 21
M  V30 21 1 21 22
M  V30 22 1 22 23
M  V30 23 1 23 24
M  V30 24 1 24 25
M  V30 25 1 24 26
M  V30 26 2 26 27
M  V30 27 1 26 28
M  V30 28 1 27 29
M  V30 29 2 28 30
M  V30 30 2 29 31
M  V30 31 1 31 32
M  V30 32 1 32 33
M  V30 33 1 32 34
M  V30 34 1 32 35
M  V30 35 1 13 18
M  V30 36 1 15 19
M  V30 37 1 17 20
M  V30 38 1 30 31
M  V30 39 1 1 36
M  V30 40 1 5 37
M  V30 41 1 6 38
M  V30 42 1 7 39
M  V30 43 1 8 40
M  V30 44 1 9 41
M  V30 45 1 10 42
M  V30 46 1 10 43
M  V30 47 1 11 44
M  V30 48 1 11 45
M  V30 49 1 12 46
M  V30 50 1 13 47
M  V30 51 1 14 48
M  V30 52 1 15 49
M  V30 53 1 16 50
M  V30 54 1 16 51
M  V30 55 1 17 52
M  V30 56 1 17 53
M  V30 57 1 18 54
M  V30 58 1 19 55
M  V30 59 1 20 56
M  V30 60 1 21 57
M  V30 61 1 21 58
M  V30 62 1 22 59
M  V30 63 1 22 60
M  V30 64 1 23 61
M  V30 65 1 23 62
M  V30 66 1 24 63
M  V30 67 1 25 64
M  V30 68 1 27 65
M  V30 69 1 28 66
M  V30 70 1 29 67
M  V30 71 1 30 68
M  V30 72 1 33 69
M  V30 73 1 33 70
M  V30 74 1 33 71
M  V30 75 1 34 72
M  V30 76 1 34 73
M  V30 77 1 34 74
M  V30 78 1 35 75
M  V30 79 1 35 76
M  V30 80 1 35 77
M  V30 END BOND
M  V30 BEGIN COLLECTION
M  V30 MDLV30/STEABS ATOMS=(3 5 20 24)
M  V30 END COLLECTION
M  V30 END CTAB
M  END
>  <Structure No>
5174

>  <LogS>
-6.69

>  <MMFF94 Energy>
97.921

$$$$
Compound 5175
Actelion Java MolfileCreator 2.0

  0  0  0  0  0  0              0 V3000
M  V30 BEGIN CTAB
M  V30 COUNTS 46 46 0 0 0
M  V30 BEGIN ATOM
M  V30 1 O -0.1571 4.3287 1.8871 0
M  V30 2 C -0.2712 3.2795 1.1986 0
M  V30 3 N -1.5323 2.9939 0.5681 0
M  V30 4 C 0.91 2.3536 1.0954 0
M  V30 5 C -1.6983 2.1335 -0.605 0
M  V30 6 C 1.8955 2.7968 0.0049 0
M  V30 7 C -2.6396 0.9583 -0.3083 0
M  V30 8 C 2.9222 1.6896 -0.2982 0
M  V30 9 C -2.0602 0.006 0.7506 0
M  V30 10 C 2.3892 0.6642 -1.3231 0
M  V30 11 C -2.7906 -1.3472 0.7976 0
M  V30 12 C 2.9462 -0.7535 -1.0939 0
M  V30 13 C -2.3262 -2.3231 -0.3086 0
M  V30 14 C 2.1841 -1.5261 9.0E-4 0
M  V30 15 C -1.2821 -3.3601 0.16 0
M  V30 16 C 0.8708 -2.1368 -0.5198 0
M  V30 17 C 0.0662 -2.7778 0.6235 0
M  V30 18 H -2.3696 3.531 0.8894 0
M  V30 19 H 1.4385 2.3355 2.0737 0
M  V30 20 H 0.5684 1.321 0.9121 0
M  V30 21 H -2.1364 2.7403 -1.4262 0
M  V30 22 H -0.7272 1.7547 -0.9761 0
M  V30 23 H 2.4346 3.7006 0.3645 0
M  V30 24 H 1.3564 3.0811 -0.9257 0
M  V30 25 H -2.8092 0.41 -1.2595 0
M  V30 26 H -3.6234 1.3449 0.0369 0
M  V30 27 H 3.2242 1.1946 0.651 0
M  V30 28 H 3.841 2.1567 -0.7155 0
M  V30 29 H -2.1366 0.4927 1.7475 0
M  V30 30 H -0.9916 -0.1692 0.5464 0
M  V30 31 H 2.6858 1.0026 -2.3399 0
M  V30 32 H 1.2824 0.6339 -1.3197 0
M  V30 33 H -3.8846 -1.1705 0.6995 0
M  V30 34 H -2.6378 -1.8088 1.7975 0
M  V30 35 H 2.8987 -1.3239 -2.0474 0
M  V30 36 H 4.0212 -0.6862 -0.8167 0
M  V30 37 H -1.9598 -1.7814 -1.2046 0
M  V30 38 H -3.2172 -2.895 -0.6486 0
M  V30 39 H 2.8336 -2.351 0.3672 0
M  V30 40 H 1.9784 -0.8568 0.8642 0
M  V30 41 H -1.0966 -4.0762 -0.67 0
M  V30 42 H -1.7175 -3.9481 0.9973 0
M  V30 43 H 1.1045 -2.9121 -1.2818 0
M  V30 44 H 0.2658 -1.3521 -1.0121 0
M  V30 45 H -0.0956 -2.053 1.4483 0
M  V30 46 H 0.669 -3.6104 1.0477 0
M  V30 END ATOM
M  V30 BEGIN BOND
M  V30 1 2 1 2
M  V30 2 1 2 3
M  V30 3 1 2 4
M  V30 4 1 3 5
M  V30 5 1 4 6
M  V30 6 1 5 7
M  V30 7 1 6 8
M  V30 8 1 7 9
M  V30 9 1 8 10
M  V30 10 1 9 11
M  V30 11 1 10 12
M  V30 12 1 11 13
M  V30 13 1 12 14
M  V30 14 1 13 15
M  V30 15 1 14 16
M  V30 16 1 15 17
M  V30 17 1 16 17
M  V30 18 1 3 18
M  V30 19 1 4 19
M  V30 20 1 4 20
M  V30 21 1 5 21
M  V30 22 1 5 22
M  V30 23 1 6 23
M  V30 24 1 6 24
M  V30 25 1 7 25
M  V30 26 1 7 26
M  V30 27 1 8 27
M  V30 28 1 8 28
M  V30 29 1 9 29
M  V30 30 1 9 30
M  V30 31 1 10 31
M  V30 32 1 10 32
M  V30 33 1 11 33
M  V30 34 1 11 34
M  V30 35 1 12 35
M  V30 36 1 12 36
M  V30 37 1 13 37
M  V30 38 1 13 38
M  V30 39 1 14 39
M  V30 40 1 14 40
M  V30 41 1 15 41
M  V30 42 1 15 42
M  V30 43 1 16 43
M  V30 44 1 16 44
M  V30 45 1 17 45
M  V30 46 1 17 46
M  V30 END BOND
M  V30 END CTAB
M  END
>  <Structure No>
5175

>  <LogS>
-2.874

>  <MMFF94 Energy>
-10.975

$$$$
Compound 5176
Actelion Java MolfileCreator 2.0

  0  0  0  0  0  0              0 V3000
M  V30 BEGIN CTAB
M  V30 COUNTS 46 45 0 0 0
M  V30 BEGIN ATOM
M  V30 1 O 1.7933 2.4177 1.8714 0
M  V30 2 C 2.4468 1.3848 2.1812 0
M  V30 3 N 1.7635 0.1761 2.5431 0
M  V30 4 C 3.946 1.4166 2.1248 0
M  V30 5 C 0.3127 0.0367 2.4458 0
M  V30 6 C 4.4619 1.206 0.6952 0
M  V30 7 C -0.1108 -0.1044 0.9819 0
M  V30 8 C 4.1761 -0.2105 0.1746 0
M  V30 9 N -1.5553 -0.3002 0.8836 0
M  V30 10 C 4.7719 -0.4128 -1.2227 0
M  V30 11 C -2.4918 0.7724 1.0607 0
M  V30 12 C 4.4784 -1.8149 -1.7485 0
M  V30 13 O -2.0838 1.9385 1.314 0
M  V30 14 C -3.9644 0.5262 0.9048 0
M  V30 15 C -4.4873 1.0217 -0.4525 0
M  V30 16 C -3.8837 0.2944 -1.6711 0
M  V30 17 C -4.2213 -1.2043 -1.7617 0
M  V30 18 C -5.7168 -1.4716 -1.9279 0
M  V30 19 H 2.3187 -0.637 2.8929 0
M  V30 20 H 4.3733 0.6452 2.8014 0
M  V30 21 H 4.2971 2.4058 2.491 0
M  V30 22 H -0.0035 -0.873 3.001 0
M  V30 23 H -0.1807 0.9131 2.918 0
M  V30 24 H 5.5605 1.3779 0.6946 0
M  V30 25 H 4.0 1.9579 0.0176 0
M  V30 26 H 0.4066 -0.9844 0.5415 0
M  V30 27 H 0.1866 0.792 0.3966 0
M  V30 28 H 3.0777 -0.3745 0.1256 0
M  V30 29 H 4.6149 -0.9562 0.8737 0
M  V30 30 H -1.9087 -1.2446 0.6112 0
M  V30 31 H 5.8733 -0.2656 -1.186 0
M  V30 32 H 4.3397 0.3324 -1.9257 0
M  V30 33 H 4.9195 -1.9319 -2.7606 0
M  V30 34 H 3.3819 -1.9795 -1.8174 0
M  V30 35 H 4.923 -2.5797 -1.0767 0
M  V30 36 H -4.198 -0.549 1.0478 0
M  V30 37 H -4.4993 1.075 1.7098 0
M  V30 38 H -5.5938 0.9332 -0.47 0
M  V30 39 H -4.2609 2.1065 -0.5462 0
M  V30 40 H -4.2459 0.7974 -2.5941 0
M  V30 41 H -2.779 0.4117 -1.6605 0
M  V30 42 H -3.8415 -1.7499 -0.8741 0
M  V30 43 H -3.695 -1.6215 -2.6473 0
M  V30 44 H -6.1299 -0.8704 -2.7655 0
M  V30 45 H -5.8761 -2.5472 -2.1529 0
M  V30 46 H -6.2635 -1.2328 -0.9922 0
M  V30 END ATOM
M  V30 BEGIN BOND
M  V30 1 2 1 2
M  V30 2 1 2 3
M  V30 3 1 2 4
M  V30 4 1 3 5
M  V30 5 1 4 6
M  V30 6 1 5 7
M  V30 7 1 6 8
M  V30 8 1 7 9
M  V30 9 1 8 10
M  V30 10 1 9 11
M  V30 11 1 10 12
M  V30 12 2 11 13
M  V30 13 1 11 14
M  V30 14 1 14 15
M  V30 15 1 15 16
M  V30 16 1 16 17
M  V30 17 1 17 18
M  V30 18 1 3 19
M  V30 19 1 4 20
M  V30 20 1 4 21
M  V30 21 1 5 22
M  V30 22 1 5 23
M  V30 23 1 6 24
M  V30 24 1 6 25
M  V30 25 1 7 26
M  V30 26 1 7 27
M  V30 27 1 8 28
M  V30 28 1 8 29
M  V30 29 1 9 30
M  V30 30 1 10 31
M  V30 31 1 10 32
M  V30 32 1 12 33
M  V30 33 1 12 34
M  V30 34 1 12 35
M  V30 35 1 14 36
M  V30 36 1 14 37
M  V30 37 1 15 38
M  V30 38 1 15 39
M  V30 39 1 16 40
M  V30 40 1 16 41
M  V30 41 1 17 42
M  V30 42 1 17 43
M  V30 43 1 18 44
M  V30 44 1 18 45
M  V30 45 1 18 46
M  V30 END BOND
M  V30 END CTAB
M  END
>  <Structure No>
5176

>  <LogS>
-3.1079

>  <MMFF94 Energy>
-37.241

$$$$
Compound 5177
Actelion Java MolfileCreator 2.0

  0  0  0  0  0  0              0 V3000
M  V30 BEGIN CTAB
M  V30 COUNTS 23 23 0 0 0
M  V30 BEGIN ATOM
M  V30 1 O 0.7216 -2.4071 2.5677 0
M  V30 2 C 0.8051 -2.1128 1.3462 0
M  V30 3 O 0.787 -3.1253 0.3943 0 CHG=-1
M  V30 4 C 0.8651 -0.6776 0.9213 0 CFG=1
M  V30 5 O 1.7042 -0.5582 -0.2285 0
M  V30 6 C -0.5301 -0.1794 0.6217 0
M  V30 7 C 2.1265 0.6713 -0.7464 0
M  V30 8 C -1.2106 0.6212 1.5559 0
M  V30 9 C -1.18 -0.5411 -0.5728 0
M  V30 10 O 1.8167 1.7528 -0.1762 0
M  V30 11 C 2.9935 0.6982 -1.9585 0
M  V30 12 C -2.5089 1.0677 1.29 0
M  V30 13 C -2.4782 -0.092 -0.8341 0
M  V30 14 C -3.1414 0.713 0.0955 0
M  V30 15 H 1.3183 -0.0872 1.75 0
M  V30 16 H -0.7371 0.9002 2.489 0
M  V30 17 H -0.6815 -1.1693 -1.3004 0
M  V30 18 H 2.8437 -0.2281 -2.5517 0
M  V30 19 H 4.0576 0.7661 -1.6506 0
M  V30 20 H 2.7373 1.5741 -2.5913 0
M  V30 21 H -3.0259 1.6872 2.0116 0
M  V30 22 H -2.971 -0.3701 -1.7567 0
M  V30 23 H -4.1466 1.0592 -0.1078 0
M  V30 END ATOM
M  V30 BEGIN BOND
M  V30 1 2 1 2
M  V30 2 1 2 3
M  V30 3 1 2 4
M  V30 4 1 4 5
M  V30 5 1 4 6
M  V30 6 1 5 7
M  V30 7 2 6 8
M  V30 8 1 6 9
M  V30 9 2 7 10
M  V30 10 1 7 11
M  V30 11 1 8 12
M  V30 12 2 9 13
M  V30 13 2 12 14
M  V30 14 1 13 14
M  V30 15 1 4 15
M  V30 16 1 8 16
M  V30 17 1 9 17
M  V30 18 1 11 18
M  V30 19 1 11 19
M  V30 20 1 11 20
M  V30 21 1 12 21
M  V30 22 1 13 22
M  V30 23 1 14 23
M  V30 END BOND
M  V30 BEGIN COLLECTION
M  V30 MDLV30/STEABS ATOMS=(1 4)
M  V30 END COLLECTION
M  V30 END CTAB
M  END
>  <Structure No>
5177

>  <LogS>
-1.2313

>  <MMFF94 Energy>
80.413

$$$$
Compound 5178
Actelion Java MolfileCreator 2.0

  0  0  0  0  0  0              0 V3000
M  V30 BEGIN CTAB
M  V30 COUNTS 18 19 0 0 0
M  V30 BEGIN ATOM
M  V30 1 O 1.4385 -0.2396 -1.0388 0
M  V30 2 C 0.7415 0.4142 -0.002 0 CFG=2
M  V30 3 C 1.7835 -0.601 0.2786 0 CFG=2
M  V30 4 C -0.6975 -0.0805 0.0839 0 CFG=1
M  V30 5 C 3.1589 -0.0693 0.6657 0
M  V30 6 O -1.3969 0.5781 1.1161 0
M  V30 7 C -1.7391 0.9332 -0.2038 0 CFG=2
M  V30 8 C -3.1137 0.3995 -0.5912 0
M  V30 9 H 0.9973 1.495 0.0521 0
M  V30 10 H 1.4835 -1.6429 0.5203 0
M  V30 11 H -0.9534 -1.1613 0.0335 0
M  V30 12 H 3.2113 0.0374 1.7689 0
M  V30 13 H 3.9345 -0.7925 0.3392 0
M  V30 14 H 3.3725 0.9158 0.1971 0
M  V30 15 H -1.439 1.9741 -0.4497 0
M  V30 16 H -3.8901 1.125 -0.2715 0
M  V30 17 H -3.1631 0.2856 -1.6938 0
M  V30 18 H -3.3288 -0.5825 -0.1167 0
M  V30 END ATOM
M  V30 BEGIN BOND
M  V30 1 1 1 2
M  V30 2 1 1 3
M  V30 3 1 2 4
M  V30 4 1 3 5
M  V30 5 1 4 6
M  V30 6 1 4 7
M  V30 7 1 7 8
M  V30 8 1 2 3
M  V30 9 1 6 7
M  V30 10 1 2 9
M  V30 11 1 3 10
M  V30 12 1 4 11
M  V30 13 1 5 12
M  V30 14 1 5 13
M  V30 15 1 5 14
M  V30 16 1 7 15
M  V30 17 1 8 16
M  V30 18 1 8 17
M  V30 19 1 8 18
M  V30 END BOND
M  V30 BEGIN COLLECTION
M  V30 MDLV30/STEABS ATOMS=(4 2 3 4 7)
M  V30 END COLLECTION
M  V30 END CTAB
M  END
>  <Structure No>
5178

>  <LogS>
-0.0575

>  <MMFF94 Energy>
13.021

$$$$
Compound 5179
Actelion Java MolfileCreator 2.0

  0  0  0  0  0  0              0 V3000
M  V30 BEGIN CTAB
M  V30 COUNTS 27 28 0 0 0
M  V30 BEGIN ATOM
M  V30 1 O 2.2216 2.0628 1.269 0
M  V30 2 C 1.4135 2.0008 0.3046 0
M  V30 3 N 1.3885 3.0537 -0.6592 0
M  V30 4 C 0.5225 0.8302 0.1706 0
M  V30 5 N -0.8096 0.9047 -0.1017 0
M  V30 6 C 0.8986 -0.5017 0.3879 0
M  V30 7 C -1.2672 -0.3655 -0.0895 0
M  V30 8 C -1.603 2.1107 -0.3489 0
M  V30 9 C -0.2569 -1.2448 0.2175 0
M  V30 10 C 2.2445 -1.0289 0.6944 0
M  V30 11 C -2.5673 -0.8143 -0.3504 0
M  V30 12 C -0.4768 -2.6235 0.2745 0
M  V30 13 O 2.3651 -2.0321 1.4465 0
M  V30 14 N 3.4141 -0.4354 0.1291 0
M  V30 15 C -2.8158 -2.1962 -0.2889 0
M  V30 16 C -1.7758 -3.0964 0.0217 0
M  V30 17 H 1.998 3.8925 -0.5365 0
M  V30 18 H 0.8135 2.9733 -1.5265 0
M  V30 19 H -1.1545 2.9879 0.1611 0
M  V30 20 H -2.6287 1.991 0.057 0
M  V30 21 H -1.6604 2.3024 -1.4405 0
M  V30 22 H -3.3652 -0.1293 -0.6029 0
M  V30 23 H 0.3227 -3.3165 0.4978 0
M  V30 24 H 3.3436 0.2989 -0.6089 0
M  V30 25 H 4.3603 -0.7892 0.3925 0
M  V30 26 H -3.811 -2.5725 -0.4871 0
M  V30 27 H -1.9778 -4.1588 0.0596 0
M  V30 END ATOM
M  V30 BEGIN BOND
M  V30 1 2 1 2
M  V30 2 1 2 3
M  V30 3 1 2 4
M  V30 4 1 4 5
M  V30 5 2 4 6
M  V30 6 1 5 7
M  V30 7 1 5 8
M  V30 8 1 6 9
M  V30 9 1 6 10
M  V30 10 1 7 11
M  V30 11 1 9 12
M  V30 12 2 10 13
M  V30 13 1 10 14
M  V30 14 2 11 15
M  V30 15 2 12 16
M  V30 16 2 7 9
M  V30 17 1 15 16
M  V30 18 1 3 17
M  V30 19 1 3 18
M  V30 20 1 8 19
M  V30 21 1 8 20
M  V30 22 1 8 21
M  V30 23 1 11 22
M  V30 24 1 12 23
M  V30 25 1 14 24
M  V30 26 1 14 25
M  V30 27 1 15 26
M  V30 28 1 16 27
M  V30 END BOND
M  V30 END CTAB
M  END
>  <Structure No>
5179

>  <LogS>
-1.8184

>  <MMFF94 Energy>
-59.42

$$$$
Compound 5180
Actelion Java MolfileCreator 2.0

  0  0  0  0  0  0              0 V3000
M  V30 BEGIN CTAB
M  V30 COUNTS 19 19 0 0 0
M  V30 BEGIN ATOM
M  V30 1 S -2.6943 -0.6948 -0.4342 0
M  V30 2 O -3.4287 -0.6176 0.8743 0
M  V30 3 O -2.9228 -2.0499 -1.043 0
M  V30 4 O -3.2942 0.4622 -1.495 0 CHG=-1
M  V30 5 C -0.9631 -0.431 -0.1654 0
M  V30 6 C -0.4059 0.8606 0.0226 0
M  V30 7 C -0.1129 -1.5468 -0.1942 0
M  V30 8 C -1.233 2.086 0.1262 0
M  V30 9 C 0.9915 0.9943 0.1302 0
M  V30 10 C 1.2676 -1.3988 -0.0678 0
M  V30 11 O -0.7946 3.1827 -0.3122 0
M  V30 12 O -2.4701 2.0629 0.7573 0 CHG=-1
M  V30 13 C 1.8349 -0.1266 0.0876 0
M  V30 14 C 3.3011 0.0339 0.2131 0
M  V30 15 O 4.0608 -0.9704 0.1805 0
M  V30 16 O 3.8614 1.2967 0.3683 0 CHG=-1
M  V30 17 H -0.5166 -2.5422 -0.3259 0
M  V30 18 H 1.4221 1.9789 0.2697 0
M  V30 19 H 1.8916 -2.2831 -0.0996 0
M  V30 END ATOM
M  V30 BEGIN BOND
M  V30 1 2 1 2
M  V30 2 2 1 3
M  V30 3 1 1 4
M  V30 4 1 1 5
M  V30 5 2 5 6
M  V30 6 1 5 7
M  V30 7 1 6 8
M  V30 8 1 6 9
M  V30 9 2 7 10
M  V30 10 2 8 11
M  V30 11 1 8 12
M  V30 12 2 9 13
M  V30 13 1 13 14
M  V30 14 2 14 15
M  V30 15 1 14 16
M  V30 16 1 10 13
M  V30 17 1 7 17
M  V30 18 1 9 18
M  V30 19 1 10 19
M  V30 END BOND
M  V30 END CTAB
M  END
>  <Structure No>
5180

>  <LogS>
0.6087

>  <MMFF94 Energy>
224.87

$$$$
Compound 5181
Actelion Java MolfileCreator 2.0

  0  0  0  0  0  0              0 V3000
M  V30 BEGIN CTAB
M  V30 COUNTS 27 28 0 0 0
M  V30 BEGIN ATOM
M  V30 1 N -0.7862 -1.2581 -0.3144 0
M  V30 2 N 0.0011 -0.2199 -0.0719 0
M  V30 3 C -2.0635 -0.8249 -0.2843 0
M  V30 4 C 1.4339 -0.3167 -0.0349 0
M  V30 5 C -0.7623 0.8776 0.1294 0
M  V30 6 C -2.0925 0.5348 -0.017 0
M  V30 7 C -3.2462 -1.7184 -0.4707 0
M  V30 8 C 2.0454 -1.4221 0.5784 0
M  V30 9 C 2.2373 0.651 -0.6625 0
M  V30 10 N -0.2767 2.1442 0.5858 0
M  V30 11 C -3.2912 1.3937 0.2402 0
M  V30 12 C 3.4388 -1.5389 0.5956 0
M  V30 13 C 3.6303 0.5309 -0.644 0
M  V30 14 C 4.2308 -0.5611 -0.0121 0
M  V30 15 H -2.9134 -2.7593 -0.6668 0
M  V30 16 H -3.8492 -1.3656 -1.3331 0
M  V30 17 H -3.8716 -1.7063 0.4462 0
M  V30 18 H 1.442 -2.1863 1.0521 0
M  V30 19 H 1.7856 1.4867 -1.1815 0
M  V30 20 H 0.7184 2.2718 0.8701 0
M  V30 21 H -0.9311 2.9458 0.722 0
M  V30 22 H -4.1951 0.9516 -0.2276 0
M  V30 23 H -3.1343 2.4036 -0.1922 0
M  V30 24 H -3.4547 1.4831 1.3342 0
M  V30 25 H 3.9042 -2.3884 1.0783 0
M  V30 26 H 4.2441 1.2805 -1.1266 0
M  V30 27 H 5.309 -0.6536 1.0E-4 0
M  V30 END ATOM
M  V30 BEGIN BOND
M  V30 1 1 1 2
M  V30 2 2 1 3
M  V30 3 1 2 4
M  V30 4 1 2 5
M  V30 5 1 3 6
M  V30 6 1 3 7
M  V30 7 2 4 8
M  V30 8 1 4 9
M  V30 9 1 5 10
M  V30 10 1 6 11
M  V30 11 1 8 12
M  V30 12 2 9 13
M  V30 13 2 12 14
M  V30 14 2 5 6
M  V30 15 1 13 14
M  V30 16 1 7 15
M  V30 17 1 7 16
M  V30 18 1 7 17
M  V30 19 1 8 18
M  V30 20 1 9 19
M  V30 21 1 10 20
M  V30 22 1 10 21
M  V30 23 1 11 22
M  V30 24 1 11 23
M  V30 25 1 11 24
M  V30 26 1 12 25
M  V30 27 1 13 26
M  V30 28 1 14 27
M  V30 END BOND
M  V30 END CTAB
M  END
>  <Structure No>
5181

>  <LogS>
-1.6704

>  <MMFF94 Energy>
80.757

$$$$
Compound 5182
Actelion Java MolfileCreator 2.0

  0  0  0  0  0  0              0 V3000
M  V30 BEGIN CTAB
M  V30 COUNTS 41 41 0 0 0
M  V30 BEGIN ATOM
M  V30 1 Cl 0.477 2.4667 2.865 0
M  V30 2 C -0.6761 2.5096 1.5104 0
M  V30 3 C 0.0441 2.2127 0.2251 0
M  V30 4 O 0.695 3.1472 -0.3164 0
M  V30 5 N 0.0252 0.8982 -0.3842 0
M  V30 6 C -1.1433 0.0712 -0.1836 0
M  V30 7 C 1.0164 0.5795 -1.4462 0 CFG=1
M  V30 8 C -1.1759 -0.8995 0.8523 0
M  V30 9 C -2.2905 0.2655 -0.9951 0
M  V30 10 C 2.4547 0.6004 -0.8897 0
M  V30 11 C 0.7526 -0.7655 -2.1544 0
M  V30 12 C -2.3255 -1.6899 1.017 0
M  V30 13 C -0.0438 -1.0645 1.8422 0
M  V30 14 C -3.4115 -0.559 -0.819 0
M  V30 15 C -2.3276 1.3295 -2.0623 0
M  V30 16 O 2.6197 -0.4226 0.0687 0
M  V30 17 C -3.4258 -1.5304 0.1783 0
M  V30 18 C 0.6482 -2.4186 1.6997 0
M  V30 19 C 3.9181 -0.3567 0.6116 0
M  V30 20 H -1.125 3.5241 1.4571 0
M  V30 21 H -1.4958 1.7922 1.7097 0
M  V30 22 H 0.9481 1.3651 -2.2313 0
M  V30 23 H 2.6661 1.5976 -0.4444 0
M  V30 24 H 3.1629 0.4529 -1.7371 0
M  V30 25 H 1.5347 -0.9551 -2.9204 0
M  V30 26 H 0.7579 -1.6049 -1.4324 0
M  V30 27 H -0.2231 -0.7529 -2.6781 0
M  V30 28 H -2.3754 -2.4266 1.8092 0
M  V30 29 H -0.4506 -0.9773 2.8728 0
M  V30 30 H 0.7107 -0.2624 1.7376 0
M  V30 31 H -4.286 -0.4411 -1.4474 0
M  V30 32 H -1.7396 1.0072 -2.9444 0
M  V30 33 H -1.9147 2.2843 -1.6791 0
M  V30 34 H -3.3686 1.5316 -2.3929 0
M  V30 35 H -4.3025 -2.1511 0.3144 0
M  V30 36 H 1.5021 -2.4732 2.4079 0
M  V30 37 H -0.0549 -3.2444 1.9353 0
M  V30 38 H 1.0345 -2.5572 0.6702 0
M  V30 39 H 4.0758 0.5992 1.1582 0
M  V30 40 H 4.0366 -1.1832 1.3417 0
M  V30 41 H 4.6931 -0.4884 -0.1756 0
M  V30 END ATOM
M  V30 BEGIN BOND
M  V30 1 1 1 2
M  V30 2 1 2 3
M  V30 3 2 3 4
M  V30 4 1 3 5
M  V30 5 1 5 6
M  V30 6 1 5 7
M  V30 7 2 6 8
M  V30 8 1 6 9
M  V30 9 1 7 10
M  V30 10 1 7 11
M  V30 11 1 8 12
M  V30 12 1 8 13
M  V30 13 2 9 14
M  V30 14 1 9 15
M  V30 15 1 10 16
M  V30 16 2 12 17
M  V30 17 1 13 18
M  V30 18 1 16 19
M  V30 19 1 14 17
M  V30 20 1 2 20
M  V30 21 1 2 21
M  V30 22 1 7 22
M  V30 23 1 10 23
M  V30 24 1 10 24
M  V30 25 1 11 25
M  V30 26 1 11 26
M  V30 27 1 11 27
M  V30 28 1 12 28
M  V30 29 1 13 29
M  V30 30 1 13 30
M  V30 31 1 14 31
M  V30 32 1 15 32
M  V30 33 1 15 33
M  V30 34 1 15 34
M  V30 35 1 17 35
M  V30 36 1 18 36
M  V30 37 1 18 37
M  V30 38 1 18 38
M  V30 39 1 19 39
M  V30 40 1 19 40
M  V30 41 1 19 41
M  V30 END BOND
M  V30 BEGIN COLLECTION
M  V30 MDLV30/STEABS ATOMS=(1 7)
M  V30 END COLLECTION
M  V30 END CTAB
M  END
>  <Structure No>
5182

>  <LogS>
-2.7287

>  <MMFF94 Energy>
72.107

$$$$
Compound 5183
Actelion Java MolfileCreator 2.0

  0  0  0  0  0  0              0 V3000
M  V30 BEGIN CTAB
M  V30 COUNTS 38 39 0 0 0
M  V30 BEGIN ATOM
M  V30 1 O 0.1587 -1.747 2.2239 0
M  V30 2 C -0.3928 -1.0734 1.3121 0
M  V30 3 N -1.7395 -1.1068 1.2133 0
M  V30 4 N 0.3483 -0.3145 0.4411 0
M  V30 5 C -2.3911 -0.411 0.2552 0
M  V30 6 C -0.3142 0.3918 -0.5393 0
M  V30 7 C 1.8326 -0.27 0.5653 0
M  V30 8 N -1.6791 0.3183 -0.6568 0
M  V30 9 N -3.827 -0.4556 0.2219 0
M  V30 10 O 0.335 1.1213 -1.3408 0
M  V30 11 C 2.5304 -0.8418 -0.688 0
M  V30 12 C 2.3415 1.1504 0.9367 0
M  V30 13 C -2.3625 1.0489 -1.7385 0
M  V30 14 C -4.4902 -1.7576 0.2327 0
M  V30 15 C -4.582 0.7113 0.6767 0
M  V30 16 C 4.0576 -0.9271 -0.4919 0
M  V30 17 C 3.741 1.4559 0.3705 0
M  V30 18 C 4.6332 0.2095 0.3804 0
M  V30 19 H 2.1687 -0.9302 1.3955 0
M  V30 20 H 2.1313 -1.8557 -0.9083 0
M  V30 21 H 2.3319 -0.2053 -1.574 0
M  V30 22 H 2.3773 1.2326 2.0456 0
M  V30 23 H 1.6457 1.9428 0.5932 0
M  V30 24 H -3.3367 0.583 -1.997 0
M  V30 25 H -1.7576 1.0333 -2.6703 0
M  V30 26 H -2.528 2.1031 -1.4322 0
M  V30 27 H -3.9078 -2.4919 -0.364 0
M  V30 28 H -4.5804 -2.1247 1.277 0
M  V30 29 H -5.5034 -1.6746 -0.2145 0
M  V30 30 H -5.5273 0.7986 0.1006 0
M  V30 31 H -4.8198 0.6048 1.7562 0
M  V30 32 H -3.9982 1.6449 0.5337 0
M  V30 33 H 4.5451 -0.9085 -1.4911 0
M  V30 34 H 4.3128 -1.9016 -0.0211 0
M  V30 35 H 4.2165 2.259 0.9739 0
M  V30 36 H 3.6472 1.8293 -0.6729 0
M  V30 37 H 4.7387 -0.1461 1.4293 0
M  V30 38 H 5.6484 0.4784 0.0166 0
M  V30 END ATOM
M  V30 BEGIN BOND
M  V30 1 2 1 2
M  V30 2 1 2 3
M  V30 3 1 2 4
M  V30 4 2 3 5
M  V30 5 1 4 6
M  V30 6 1 4 7
M  V30 7 1 5 8
M  V30 8 1 5 9
M  V30 9 2 6 10
M  V30 10 1 7 11
M  V30 11 1 7 12
M  V30 12 1 8 13
M  V30 13 1 9 14
M  V30 14 1 9 15
M  V30 15 1 11 16
M  V30 16 1 12 17
M  V30 17 1 16 18
M  V30 18 1 6 8
M  V30 19 1 17 18
M  V30 20 1 7 19
M  V30 21 1 11 20
M  V30 22 1 11 21
M  V30 23 1 12 22
M  V30 24 1 12 23
M  V30 25 1 13 24
M  V30 26 1 13 25
M  V30 27 1 13 26
M  V30 28 1 14 27
M  V30 29 1 14 28
M  V30 30 1 14 29
M  V30 31 1 15 30
M  V30 32 1 15 31
M  V30 33 1 15 32
M  V30 34 1 16 33
M  V30 35 1 16 34
M  V30 36 1 17 35
M  V30 37 1 17 36
M  V30 38 1 18 37
M  V30 39 1 18 38
M  V30 END BOND
M  V30 END CTAB
M  END
>  <Structure No>
5183

>  <LogS>
-0.8834

>  <MMFF94 Energy>
-184.65

$$$$
Compound 5184
Actelion Java MolfileCreator 2.0

  0  0  0  0  0  0              0 V3000
M  V30 BEGIN CTAB
M  V30 COUNTS 53 54 0 0 0
M  V30 BEGIN ATOM
M  V30 1 S 1.5374 -0.0808 0.0 0
M  V30 2 C 3.0352 0.6811 0.6491 0
M  V30 3 C 0.4482 0.7556 1.1965 0
M  V30 4 S 3.9191 -0.1589 1.9602 0
M  V30 5 N 3.4355 1.863 0.2802 0
M  V30 6 C -0.9828 0.4784 0.8415 0
M  V30 7 C 5.1789 -0.9093 0.8634 0
M  V30 8 C 2.8589 2.664 -0.7609 0
M  V30 9 C -1.6488 1.2898 -0.0845 0
M  V30 10 C -1.6446 -0.6305 1.3804 0
M  V30 11 C 4.6335 -2.0697 0.0153 0
M  V30 12 C 2.6044 2.1424 -2.0402 0
M  V30 13 C 2.6185 4.0218 -0.5286 0
M  V30 14 C -2.9696 1.0143 -0.4488 0
M  V30 15 C -2.9647 -0.9096 1.0195 0
M  V30 16 C 3.9961 -3.209 0.8295 0
M  V30 17 N 2.0866 2.9403 -3.0122 0
M  V30 18 C 2.0826 4.82 -1.5408 0
M  V30 19 C -3.6603 -0.0925 0.1 0
M  V30 20 C 4.9968 -3.9219 1.7378 0
M  V30 21 C 1.8144 4.2534 -2.7884 0
M  V30 22 C -5.1161 -0.4374 -0.2758 0
M  V30 23 C -5.1614 -1.8391 -0.9214 0
M  V30 24 C -5.993 -0.4298 0.9954 0
M  V30 25 C -5.7375 0.5635 -1.2796 0
M  V30 26 H 0.6727 0.3882 2.221 0
M  V30 27 H 0.6342 1.8515 1.1778 0
M  V30 28 H 5.5923 -0.1282 0.1899 0
M  V30 29 H 6.0208 -1.2678 1.4907 0
M  V30 30 H -1.1426 2.1382 -0.5293 0
M  V30 31 H -1.1375 -1.283 2.0804 0
M  V30 32 H 5.4655 -2.4826 -0.5955 0
M  V30 33 H 3.8813 -1.6773 -0.6998 0
M  V30 34 H 2.8337 1.1105 -2.2699 0
M  V30 35 H 2.8331 4.4552 0.4402 0
M  V30 36 H -3.4298 1.6784 -1.1647 0
M  V30 37 H -3.4387 -1.7751 1.4618 0
M  V30 38 H 3.5816 -3.954 0.1165 0
M  V30 39 H 3.1465 -2.8291 1.4355 0
M  V30 40 H 1.88 5.868 -1.3613 0
M  V30 41 H 4.5136 -4.8127 2.1913 0
M  V30 42 H 5.3249 -3.2523 2.5597 0
M  V30 43 H 5.8811 -4.2566 1.1554 0
M  V30 44 H 1.4005 4.8602 -3.5825 0
M  V30 45 H -4.8278 -2.6256 -0.2127 0
M  V30 46 H -6.1958 -2.0939 -1.239 0
M  V30 47 H -4.5027 -1.8736 -1.8159 0
M  V30 48 H -7.0567 -0.6307 0.7423 0
M  V30 49 H -5.6726 -1.2086 1.7184 0
M  V30 50 H -5.9349 0.5592 1.4992 0
M  V30 51 H -5.1718 0.5682 -2.2364 0
M  V30 52 H -5.7529 1.5909 -0.8557 0
M  V30 53 H -6.7874 0.2842 -1.5162 0
M  V30 END ATOM
M  V30 BEGIN BOND
M  V30 1 1 1 2
M  V30 2 1 1 3
M  V30 3 1 2 4
M  V30 4 2 2 5
M  V30 5 1 3 6
M  V30 6 1 4 7
M  V30 7 1 5 8
M  V30 8 2 6 9
M  V30 9 1 6 10
M  V30 10 1 7 11
M  V30 11 2 8 12
M  V30 12 1 8 13
M  V30 13 1 9 14
M  V30 14 2 10 15
M  V30 15 1 11 16
M  V30 16 1 12 17
M  V30 17 2 13 18
M  V30 18 2 14 19
M  V30 19 1 16 20
M  V30 20 2 17 21
M  V30 21 1 19 22
M  V30 22 1 22 23
M  V30 23 1 22 24
M  V30 24 1 22 25
M  V30 25 1 15 19
M  V30 26 1 18 21
M  V30 27 1 3 26
M  V30 28 1 3 27
M  V30 29 1 7 28
M  V30 30 1 7 29
M  V30 31 1 9 30
M  V30 32 1 10 31
M  V30 33 1 11 32
M  V30 34 1 11 33
M  V30 35 1 12 34
M  V30 36 1 13 35
M  V30 37 1 14 36
M  V30 38 1 15 37
M  V30 39 1 16 38
M  V30 40 1 16 39
M  V30 41 1 18 40
M  V30 42 1 20 41
M  V30 43 1 20 42
M  V30 44 1 20 43
M  V30 45 1 21 44
M  V30 46 1 23 45
M  V30 47 1 23 46
M  V30 48 1 23 47
M  V30 49 1 24 48
M  V30 50 1 24 49
M  V30 51 1 24 50
M  V30 52 1 25 51
M  V30 53 1 25 52
M  V30 54 1 25 53
M  V30 END BOND
M  V30 END CTAB
M  END
>  <Structure No>
5184

>  <LogS>
-5.5712

>  <MMFF94 Energy>
41.706

$$$$
Compound 5185
Actelion Java MolfileCreator 2.0

  0  0  0  0  0  0              0 V3000
M  V30 BEGIN CTAB
M  V30 COUNTS 41 41 0 0 0
M  V30 BEGIN ATOM
M  V30 1 S 1.6042 0.3206 -0.8018 0
M  V30 2 C 1.2094 1.9004 -0.3653 0
M  V30 3 C 3.236 0.6026 -0.4571 0
M  V30 4 N 2.3045 2.6031 -0.0118 0
M  V30 5 N -0.0921 2.4865 -0.4478 0 CHG=-1
M  V30 6 N 3.4254 1.885 -0.061 0
M  V30 7 C 4.3554 -0.4032 -0.651 0
M  V30 8 C -1.3033 1.7399 -0.5976 0
M  V30 9 C 4.5583 -0.645 -2.1576 0
M  V30 10 C 5.6709 0.1252 -0.0418 0
M  V30 11 C 3.9858 -1.7298 0.0408 0
M  V30 12 O -2.1978 2.184 -1.3649 0
M  V30 13 N -1.5251 0.5188 0.1335 0
M  V30 14 C -2.2935 -0.5755 -0.4744 0
M  V30 15 C -1.1075 0.4278 1.5364 0
M  V30 16 C -3.7477 -0.5935 0.0186 0
M  V30 17 O -4.4037 0.58 -0.4389 0
M  V30 18 O -4.3763 -1.728 -0.5468 0
M  V30 19 C -4.7899 1.3959 0.6453 0
M  V30 20 C -5.6087 -1.9739 0.0946 0
M  V30 21 H 3.6338 -1.0531 -2.6198 0
M  V30 22 H 4.8158 0.3053 -2.6734 0
M  V30 23 H 5.3814 -1.3715 -2.3306 0
M  V30 24 H 6.4887 -0.6167 -0.1685 0
M  V30 25 H 5.984 1.0693 -0.5381 0
M  V30 26 H 5.5461 0.3233 1.045 0
M  V30 27 H 4.8108 -2.4678 -0.0606 0
M  V30 28 H 3.0733 -2.1748 -0.411 0
M  V30 29 H 3.7953 -1.5639 1.1236 0
M  V30 30 H -1.8078 -1.5438 -0.2228 0
M  V30 31 H -2.2763 -0.4886 -1.5836 0
M  V30 32 H -0.0044 0.4768 1.6196 0
M  V30 33 H -1.439 -0.5293 1.9917 0
M  V30 34 H -1.5516 1.2645 2.1155 0
M  V30 35 H -3.7086 -0.6954 1.1342 0
M  V30 36 H -3.9059 1.7248 1.2339 0
M  V30 37 H -5.5187 0.8706 1.3014 0
M  V30 38 H -5.2861 2.3045 0.2464 0
M  V30 39 H -5.4681 -2.1806 1.1788 0
M  V30 40 H -6.0675 -2.8763 -0.3587 0
M  V30 41 H -6.3171 -1.1301 -0.0539 0
M  V30 END ATOM
M  V30 BEGIN BOND
M  V30 1 1 1 2
M  V30 2 1 1 3
M  V30 3 2 2 4
M  V30 4 1 2 5
M  V30 5 2 3 6
M  V30 6 1 3 7
M  V30 7 1 5 8
M  V30 8 1 7 9
M  V30 9 1 7 10
M  V30 10 1 7 11
M  V30 11 2 8 12
M  V30 12 1 8 13
M  V30 13 1 13 14
M  V30 14 1 13 15
M  V30 15 1 14 16
M  V30 16 1 16 17
M  V30 17 1 16 18
M  V30 18 1 17 19
M  V30 19 1 18 20
M  V30 20 1 4 6
M  V30 21 1 9 21
M  V30 22 1 9 22
M  V30 23 1 9 23
M  V30 24 1 10 24
M  V30 25 1 10 25
M  V30 26 1 10 26
M  V30 27 1 11 27
M  V30 28 1 11 28
M  V30 29 1 11 29
M  V30 30 1 14 30
M  V30 31 1 14 31
M  V30 32 1 15 32
M  V30 33 1 15 33
M  V30 34 1 15 34
M  V30 35 1 16 35
M  V30 36 1 19 36
M  V30 37 1 19 37
M  V30 38 1 19 38
M  V30 39 1 20 39
M  V30 40 1 20 40
M  V30 41 1 20 41
M  V30 END BOND
M  V30 END CTAB
M  END
>  <Structure No>
5185

>  <LogS>
-1.8678

>  <MMFF94 Energy>
17.618

$$$$
Compound 5186
Actelion Java MolfileCreator 2.0

  0  0  0  0  0  0              0 V3000
M  V30 BEGIN CTAB
M  V30 COUNTS 33 33 0 0 0
M  V30 BEGIN ATOM
M  V30 1 S -1.1975 0.1596 -0.7982 0
M  V30 2 C -2.1839 -0.4413 0.6139 0
M  V30 3 C 0.3476 0.4201 0.1423 0
M  V30 4 C -3.5603 -0.79 0.143 0
M  V30 5 C 1.1872 -0.8574 0.1607 0
M  V30 6 N -3.9265 -2.0052 -0.2931 0
M  V30 7 C -4.6337 0.064 -0.009 0
M  V30 8 N 2.4291 -0.6431 0.9029 0
M  V30 9 C -5.2103 -1.8716 -0.6789 0
M  V30 10 N -5.6806 -0.6151 -0.519 0
M  V30 11 C -4.6711 1.5179 0.3343 0
M  V30 12 C 3.5545 0.0682 0.3653 0
M  V30 13 N 3.4875 0.5548 -0.8436 0
M  V30 14 N 4.6978 0.2806 1.2097 0
M  V30 15 C 4.5042 1.3588 -1.5108 0
M  V30 16 C 6.0101 0.0701 0.7613 0
M  V30 17 N 7.0936 -0.1041 0.3939 0
M  V30 18 H -1.7095 -1.342 1.055 0
M  V30 19 H -2.2441 0.3458 1.3948 0
M  V30 20 H 0.1311 0.7531 1.1801 0
M  V30 21 H 0.9148 1.2301 -0.3609 0
M  V30 22 H 1.4171 -1.1855 -0.8761 0
M  V30 23 H 0.6105 -1.6692 0.6524 0
M  V30 24 H -3.342 -2.8694 -0.3346 0
M  V30 25 H 2.5196 -1.0793 1.8481 0
M  V30 26 H -5.8017 -2.6831 -1.0815 0
M  V30 27 H -3.8439 2.0474 -0.1827 0
M  V30 28 H -5.6373 1.9624 0.0151 0
M  V30 29 H -4.5602 1.6446 1.4313 0
M  V30 30 H 4.5508 0.2873 2.2433 0
M  V30 31 H 5.3755 0.7276 -1.7811 0
M  V30 32 H 4.077 1.7754 -2.4458 0
M  V30 33 H 4.8192 2.2021 -0.8598 0
M  V30 END ATOM
M  V30 BEGIN BOND
M  V30 1 1 1 2
M  V30 2 1 1 3
M  V30 3 1 2 4
M  V30 4 1 3 5
M  V30 5 1 4 6
M  V30 6 2 4 7
M  V30 7 1 5 8
M  V30 8 1 6 9
M  V30 9 1 7 10
M  V30 10 1 7 11
M  V30 11 1 8 12
M  V30 12 2 12 13
M  V30 13 1 12 14
M  V30 14 1 13 15
M  V30 15 1 14 16
M  V30 16 3 16 17
M  V30 17 2 9 10
M  V30 18 1 2 18
M  V30 19 1 2 19
M  V30 20 1 3 20
M  V30 21 1 3 21
M  V30 22 1 5 22
M  V30 23 1 5 23
M  V30 24 1 6 24
M  V30 25 1 8 25
M  V30 26 1 9 26
M  V30 27 1 11 27
M  V30 28 1 11 28
M  V30 29 1 11 29
M  V30 30 1 14 30
M  V30 31 1 15 31
M  V30 32 1 15 32
M  V30 33 1 15 33
M  V30 END BOND
M  V30 END CTAB
M  END
>  <Structure No>
5186

>  <LogS>
-1.4298

>  <MMFF94 Energy>
-137.54

$$$$
Compound 5187
Actelion Java MolfileCreator 2.0

  0  0  0  0  0  0              0 V3000
M  V30 BEGIN CTAB
M  V30 COUNTS 31 31 0 0 0
M  V30 BEGIN ATOM
M  V30 1 Cl -4.4103 2.2433 -1.9226 0
M  V30 2 C -2.7073 1.7606 -1.7015 0
M  V30 3 C -2.5405 0.9282 -0.433 0 CFG=1
M  V30 4 O -1.1692 0.5247 -0.3542 0
M  V30 5 O -2.8698 1.7447 0.6767 0
M  V30 6 C -0.665 -0.6667 0.1986 0
M  V30 7 C -3.2169 0.9581 1.7934 0
M  V30 8 C 0.7306 -0.8005 0.2978 0
M  V30 9 C -1.4927 -1.7237 0.6328 0
M  V30 10 O 1.5366 0.2645 -0.1349 0
M  V30 11 C 1.2825 -1.9662 0.8623 0
M  V30 12 C -0.9318 -2.8827 1.1738 0
M  V30 13 C 2.8343 0.1432 -0.6479 0
M  V30 14 C 0.4521 -3.0018 1.2928 0
M  V30 15 O 3.2717 -0.9725 -1.0424 0
M  V30 16 N 3.6439 1.3157 -0.7743 0
M  V30 17 C 4.9951 1.2653 -1.318 0
M  V30 18 H -2.392 1.1654 -2.5848 0
M  V30 19 H -2.0763 2.6735 -1.6454 0
M  V30 20 H -3.2221 0.0574 -0.5525 0
M  V30 21 H -4.0441 0.2508 1.5619 0
M  V30 22 H -3.578 1.6319 2.5973 0
M  V30 23 H -2.3309 0.4206 2.1906 0
M  V30 24 H -2.5679 -1.6703 0.5668 0
M  V30 25 H 2.3504 -2.066 0.999 0
M  V30 26 H -1.573 -3.6876 1.5092 0
M  V30 27 H 0.8821 -3.8951 1.7272 0
M  V30 28 H 3.255 2.234 -0.4631 0
M  V30 29 H 5.6273 0.5988 -0.6943 0
M  V30 30 H 5.4389 2.2832 -1.3198 0
M  V30 31 H 4.9676 0.8837 -2.3603 0
M  V30 END ATOM
M  V30 BEGIN BOND
M  V30 1 1 1 2
M  V30 2 1 2 3
M  V30 3 1 3 4
M  V30 4 1 3 5
M  V30 5 1 4 6
M  V30 6 1 5 7
M  V30 7 2 6 8
M  V30 8 1 6 9
M  V30 9 1 8 10
M  V30 10 1 8 11
M  V30 11 2 9 12
M  V30 12 1 10 13
M  V30 13 2 11 14
M  V30 14 2 13 15
M  V30 15 1 13 16
M  V30 16 1 16 17
M  V30 17 1 12 14
M  V30 18 1 2 18
M  V30 19 1 2 19
M  V30 20 1 3 20
M  V30 21 1 7 21
M  V30 22 1 7 22
M  V30 23 1 7 23
M  V30 24 1 9 24
M  V30 25 1 11 25
M  V30 26 1 12 26
M  V30 27 1 14 27
M  V30 28 1 16 28
M  V30 29 1 17 29
M  V30 30 1 17 30
M  V30 31 1 17 31
M  V30 END BOND
M  V30 BEGIN COLLECTION
M  V30 MDLV30/STEABS ATOMS=(1 3)
M  V30 END COLLECTION
M  V30 END CTAB
M  END
>  <Structure No>
5187

>  <LogS>
-2.3005

>  <MMFF94 Energy>
8.9205

$$$$
Compound 5188
Actelion Java MolfileCreator 2.0

  0  0  0  0  0  0              0 V3000
M  V30 BEGIN CTAB
M  V30 COUNTS 82 86 0 0 0
M  V30 BEGIN ATOM
M  V30 1 O -2.3357 -2.7388 2.0939 0
M  V30 2 C -1.6126 -2.1299 1.2636 0
M  V30 3 O -0.2842 -1.8649 1.6571 0
M  V30 4 C -2.1442 -1.8894 -0.162 0 CFG=1
M  V30 5 C 0.6954 -1.125 0.9049 0 CFG=2
M  V30 6 C -2.0807 -3.2133 -0.8696 0
M  V30 7 C -3.5987 -1.2966 -0.2728 0 CFG=2
M  V30 8 C 2.0649 -1.2792 1.5813 0
M  V30 9 C 0.2857 0.3505 0.8251 0
M  V30 10 C -3.0821 -4.1058 -0.7814 0
M  V30 11 O -3.882 -0.8712 -1.5901 0
M  V30 12 C -3.8206 -0.186 0.6987 0
M  V30 13 C -4.6789 -2.2807 0.2125 0 CFG=1
M  V30 14 C 2.9501 -0.0136 1.3991 0 CFG=2
M  V30 15 C 0.9273 1.2067 1.9356 0 CFG=1
M  V30 16 C -4.4033 -3.7893 -0.0694 0 CFG=1
M  V30 17 C -2.8476 -5.4914 -1.3439 0
M  V30 18 C -3.6522 1.1315 0.5074 0
M  V30 19 C -4.5281 -0.7194 1.8881 0
M  V30 20 O -4.8893 -2.0625 1.5936 0
M  V30 21 O 2.3525 1.1313 1.9985 0
M  V30 22 O 3.1253 0.2762 0.0038 0
M  V30 23 C 4.292 -0.2288 2.1549 0
M  V30 24 C 0.4925 2.6889 1.8123 0
M  V30 25 O -5.4747 -4.2942 -0.8417 0
M  V30 26 C -3.8335 1.7816 -0.8077 0
M  V30 27 C 4.2934 -0.3085 -0.5547 0 CFG=2
M  V30 28 C 5.3673 0.6635 1.5443 0
M  V30 29 C 1.1424 3.4054 0.6425 0
M  V30 30 C -3.02 2.7107 -1.2934 0
M  V30 31 C 5.5736 0.3375 0.0528 0 CFG=1
M  V30 32 C 4.2465 -0.1058 -2.0768 0
M  V30 33 C 0.499 4.0916 -0.3392 0
M  V30 34 C -1.5411 2.7256 -1.0316 0 CFG=2
M  V30 35 C 6.8044 -0.5658 -0.1434 0
M  V30 36 C -1.0226 4.0978 -0.5453 0
M  V30 37 C 1.3558 4.8509 -1.3233 0
M  V30 38 C -0.8204 2.2124 -2.2925 0
M  V30 39 H -1.4802 -1.1959 -0.7073 0
M  V30 40 H 0.7648 -1.5451 -0.124 0
M  V30 41 H -1.1612 -3.4758 -1.4052 0
M  V30 42 H 2.5712 -2.1836 1.1749 0
M  V30 43 H 1.9143 -1.4489 2.676 0
M  V30 44 H -0.8148 0.393 0.9454 0
M  V30 45 H 0.5749 0.7489 -0.1709 0
M  V30 46 H -3.8134 -1.6514 -2.2014 0
M  V30 47 H -5.6379 -2.0135 -0.2904 0
M  V30 48 H 0.5319 0.8329 2.9081 0
M  V30 49 H -4.3731 -4.32 0.9093 0
M  V30 50 H -1.8564 -5.8897 -1.0212 0
M  V30 51 H -3.6187 -6.1961 -0.9718 0
M  V30 52 H -2.8961 -5.4601 -2.454 0
M  V30 53 H -3.7684 1.7974 1.3619 0
M  V30 54 H -3.8475 -0.6754 2.7934 0
M  V30 55 H -5.4684 -0.1297 2.0889 0
M  V30 56 H 4.1729 0.0128 3.2372 0
M  V30 57 H 4.6321 -1.2901 2.0815 0
M  V30 58 H -0.6169 2.7609 1.8163 0
M  V30 59 H 0.8143 3.2247 2.733 0
M  V30 60 H -5.7122 -5.1948 -0.4951 0
M  V30 61 H -4.7859 1.6418 -1.2876 0
M  V30 62 H 4.2813 -1.4048 -0.356 0
M  V30 63 H 5.038 1.7176 1.6582 0
M  V30 64 H 6.3092 0.5786 2.1194 0
M  V30 65 H 2.2375 3.4355 0.6637 0
M  V30 66 H -3.3614 3.2852 -2.1425 0
M  V30 67 H 5.7863 1.2851 -0.4674 0
M  V30 68 H 5.1329 -0.5523 -2.5677 0
M  V30 69 H 4.1954 0.9748 -2.3239 0
M  V30 70 H 3.345 -0.6016 -2.4801 0
M  V30 71 H -1.3593 2.0293 -0.2151 0
M  V30 72 H 6.6628 -1.5449 0.3524 0
M  V30 73 H 7.7151 -0.0767 0.2715 0
M  V30 74 H 6.9867 -0.7606 -1.2212 0
M  V30 75 H -1.3077 4.865 -1.297 0
M  V30 76 H -1.5337 4.3725 0.403 0
M  V30 77 H 0.7426 5.333 -2.1068 0
M  V30 78 H 1.9293 5.6296 -0.7796 0
M  V30 79 H 2.0514 4.1509 -1.832 0
M  V30 80 H 0.2721 2.15 -2.1504 0
M  V30 81 H -1.1617 1.1853 -2.5448 0
M  V30 82 H -1.0126 2.8713 -3.1641 0
M  V30 END ATOM
M  V30 BEGIN BOND
M  V30 1 2 1 2
M  V30 2 1 2 3
M  V30 3 1 2 4
M  V30 4 1 3 5
M  V30 5 1 4 6
M  V30 6 1 4 7
M  V30 7 1 5 8
M  V30 8 1 5 9
M  V30 9 2 6 10
M  V30 10 1 7 11
M  V30 11 1 7 12
M  V30 12 1 7 13
M  V30 13 1 8 14
M  V30 14 1 9 15
M  V30 15 1 10 16
M  V30 16 1 10 17
M  V30 17 2 12 18
M  V30 18 1 12 19
M  V30 19 1 13 20
M  V30 20 1 14 21
M  V30 21 1 14 22
M  V30 22 1 14 23
M  V30 23 1 15 24
M  V30 24 1 16 25
M  V30 25 1 18 26
M  V30 26 1 22 27
M  V30 27 1 23 28
M  V30 28 1 24 29
M  V30 29 2 26 30
M  V30 30 1 27 31
M  V30 31 1 27 32
M  V30 32 2 29 33
M  V30 33 1 30 34
M  V30 34 1 31 35
M  V30 35 1 33 36
M  V30 36 1 33 37
M  V30 37 1 34 38
M  V30 38 1 13 16
M  V30 39 1 15 21
M  V30 40 1 19 20
M  V30 41 1 28 31
M  V30 42 1 34 36
M  V30 43 1 4 39
M  V30 44 1 5 40
M  V30 45 1 6 41
M  V30 46 1 8 42
M  V30 47 1 8 43
M  V30 48 1 9 44
M  V30 49 1 9 45
M  V30 50 1 11 46
M  V30 51 1 13 47
M  V30 52 1 15 48
M  V30 53 1 16 49
M  V30 54 1 17 50
M  V30 55 1 17 51
M  V30 56 1 17 52
M  V30 57 1 18 53
M  V30 58 1 19 54
M  V30 59 1 19 55
M  V30 60 1 23 56
M  V30 61 1 23 57
M  V30 62 1 24 58
M  V30 63 1 24 59
M  V30 64 1 25 60
M  V30 65 1 26 61
M  V30 66 1 27 62
M  V30 67 1 28 63
M  V30 68 1 28 64
M  V30 69 1 29 65
M  V30 70 1 30 66
M  V30 71 1 31 67
M  V30 72 1 32 68
M  V30 73 1 32 69
M  V30 74 1 32 70
M  V30 75 1 34 71
M  V30 76 1 35 72
M  V30 77 1 35 73
M  V30 78 1 35 74
M  V30 79 1 36 75
M  V30 80 1 36 76
M  V30 81 1 37 77
M  V30 82 1 37 78
M  V30 83 1 37 79
M  V30 84 1 38 80
M  V30 85 1 38 81
M  V30 86 1 38 82
M  V30 END BOND
M  V30 BEGIN COLLECTION
M  V30 MDLV30/STEABS ATOMS=(10 4 5 7 13 14 15 16 27 31 34)
M  V30 END COLLECTION
M  V30 END CTAB
M  END
>  <Structure No>
5188

>  <LogS>
-5.7787

>  <MMFF94 Energy>
140.01

$$$$
Compound 5189
Actelion Java MolfileCreator 2.0

  0  0  0  0  0  0              0 V3000
M  V30 BEGIN CTAB
M  V30 COUNTS 85 89 0 0 0
M  V30 BEGIN ATOM
M  V30 1 O -2.4127 -0.6429 -1.9298 0
M  V30 2 C -1.7434 -0.8867 -0.8906 0
M  V30 3 O -0.3489 -0.8773 -1.0193 0
M  V30 4 C -2.4489 -1.1961 0.4285 0 CFG=2
M  V30 5 C 0.5944 -0.4073 -0.0531 0 CFG=1
M  V30 6 C -1.9753 -2.5514 0.9606 0
M  V30 7 C -4.0151 -1.2313 0.36 0 CFG=1
M  V30 8 C 1.9964 -0.7247 -0.592 0
M  V30 9 C 0.4345 1.0995 0.1473 0
M  V30 10 C -2.6941 -3.7093 0.8529 0
M  V30 11 O -4.5884 -1.3672 1.6445 0
M  V30 12 C -4.7641 -0.1821 -0.3826 0
M  V30 13 C -4.3944 -2.4414 -0.4943 0 CFG=1
M  V30 14 C 3.153 0.0117 0.1534 0 CFG=2
M  V30 15 C 1.6179 1.6661 0.9446 0 CFG=1
M  V30 16 C -4.121 -3.7377 0.2795 0 CFG=1
M  V30 17 C -2.1643 -4.9537 1.5177 0
M  V30 18 C -4.7421 1.1474 -0.1998 0
M  V30 19 C -5.7732 -0.8702 -1.2463 0
M  V30 20 O -5.7185 -2.2507 -0.9254 0
M  V30 21 O 2.8405 1.3988 0.2781 0
M  V30 22 O 4.3332 -0.0149 -0.6516 0
M  V30 23 C 3.4416 -0.5992 1.5656 0
M  V30 24 C 1.5184 3.1888 1.2024 0
M  V30 25 O -4.3156 -4.854 -0.5535 0
M  V30 26 C -4.2247 1.7718 1.0267 0
M  V30 27 C 4.9301 -1.2964 -0.7887 0 CFG=2
M  V30 28 C 4.2147 -1.9201 1.5116 0
M  V30 29 C 1.0594 4.0192 0.0167 0
M  V30 30 C -3.5084 2.9042 1.1067 0
M  V30 31 C 5.4243 -1.8197 0.5781 0 CFG=2
M  V30 32 C 6.0701 -1.2102 -1.8207 0
M  V30 33 C -0.2079 4.4649 -0.1944 0
M  V30 34 C -2.6927 3.6154 0.0271 0 CFG=1
M  V30 35 C 6.5369 -0.949 1.1941 0
M  V30 36 C 5.5367 -0.9277 -3.2245 0
M  V30 37 C -1.3776 4.1013 0.7135 0
M  V30 38 C -0.419 5.4904 -1.2806 0
M  V30 39 C -2.4394 2.7586 -1.2279 0
M  V30 40 H -2.1443 -0.4117 1.1517 0
M  V30 41 H 0.449 -0.9284 0.9149 0
M  V30 42 H -1.009 -2.5849 1.4527 0
M  V30 43 H 2.1243 -1.8258 -0.5454 0
M  V30 44 H 2.0376 -0.4317 -1.6656 0
M  V30 45 H 0.3762 1.5891 -0.8487 0
M  V30 46 H -0.5035 1.2796 0.7064 0
M  V30 47 H -4.0848 -0.7986 2.2813 0
M  V30 48 H -3.7739 -2.5104 -1.4158 0
M  V30 49 H 1.6144 1.2073 1.9558 0
M  V30 50 H -4.8376 -3.8191 1.1247 0
M  V30 51 H -2.539 -5.8665 0.9986 0
M  V30 52 H -1.0484 -4.9771 1.4892 0
M  V30 53 H -2.506 -4.9783 2.5789 0
M  V30 54 H -5.3334 1.774 -0.8564 0
M  V30 55 H -6.7923 -0.4873 -1.0269 0
M  V30 56 H -5.5379 -0.7132 -2.3219 0
M  V30 57 H 4.027 0.1326 2.1634 0
M  V30 58 H 2.5002 -0.7948 2.119 0
M  V30 59 H 2.5327 3.551 1.479 0
M  V30 60 H 0.9193 3.3967 2.1111 0
M  V30 61 H -3.6088 -4.8374 -1.2516 0
M  V30 62 H -4.6053 1.3743 1.9579 0
M  V30 63 H 4.2072 -2.0337 -1.1987 0
M  V30 64 H 3.5385 -2.7263 1.1523 0
M  V30 65 H 4.5357 -2.2065 2.5371 0
M  V30 66 H 1.8421 4.3379 -0.6686 0
M  V30 67 H -3.4144 3.3136 2.1075 0
M  V30 68 H 5.8325 -2.8466 0.4441 0
M  V30 69 H 6.6309 -2.1701 -1.8433 0
M  V30 70 H 6.7751 -0.3965 -1.5449 0
M  V30 71 H -3.2674 4.5117 -0.2922 0
M  V30 72 H 6.7481 -1.2691 2.2369 0
M  V30 73 H 7.4778 -1.0641 0.6172 0
M  V30 74 H 6.2525 0.1242 1.2011 0
M  V30 75 H 4.865 -1.7478 -3.5557 0
M  V30 76 H 6.3852 -0.8531 -3.9363 0
M  V30 77 H 4.9798 0.0325 -3.2427 0
M  V30 78 H -1.0769 3.3224 1.4351 0
M  V30 79 H -1.6132 4.9991 1.3256 0
M  V30 80 H -1.4753 5.828 -1.3203 0
M  V30 81 H -0.1462 5.0609 -2.2678 0
M  V30 82 H 0.2177 6.3794 -1.0859 0
M  V30 83 H -3.37 2.661 -1.8205 0
M  V30 84 H -2.0758 1.7582 -0.948 0
M  V30 85 H -1.7031 3.2171 -1.9124 0
M  V30 END ATOM
M  V30 BEGIN BOND
M  V30 1 2 1 2
M  V30 2 1 2 3
M  V30 3 1 2 4
M  V30 4 1 3 5
M  V30 5 1 4 6
M  V30 6 1 4 7
M  V30 7 1 5 8
M  V30 8 1 5 9
M  V30 9 2 6 10
M  V30 10 1 7 11
M  V30 11 1 7 12
M  V30 12 1 7 13
M  V30 13 1 8 14
M  V30 14 1 9 15
M  V30 15 1 10 16
M  V30 16 1 10 17
M  V30 17 2 12 18
M  V30 18 1 12 19
M  V30 19 1 13 20
M  V30 20 1 14 21
M  V30 21 1 14 22
M  V30 22 1 14 23
M  V30 23 1 15 24
M  V30 24 1 16 25
M  V30 25 1 18 26
M  V30 26 1 22 27
M  V30 27 1 23 28
M  V30 28 1 24 29
M  V30 29 2 26 30
M  V30 30 1 27 31
M  V30 31 1 27 32
M  V30 32 2 29 33
M  V30 33 1 30 34
M  V30 34 1 31 35
M  V30 35 1 32 36
M  V30 36 1 33 37
M  V30 37 1 33 38
M  V30 38 1 34 39
M  V30 39 1 13 16
M  V30 40 1 15 21
M  V30 41 1 19 20
M  V30 42 1 28 31
M  V30 43 1 34 37
M  V30 44 1 4 40
M  V30 45 1 5 41
M  V30 46 1 6 42
M  V30 47 1 8 43
M  V30 48 1 8 44
M  V30 49 1 9 45
M  V30 50 1 9 46
M  V30 51 1 11 47
M  V30 52 1 13 48
M  V30 53 1 15 49
M  V30 54 1 16 50
M  V30 55 1 17 51
M  V30 56 1 17 52
M  V30 57 1 17 53
M  V30 58 1 18 54
M  V30 59 1 19 55
M  V30 60 1 19 56
M  V30 61 1 23 57
M  V30 62 1 23 58
M  V30 63 1 24 59
M  V30 64 1 24 60
M  V30 65 1 25 61
M  V30 66 1 26 62
M  V30 67 1 27 63
M  V30 68 1 28 64
M  V30 69 1 28 65
M  V30 70 1 29 66
M  V30 71 1 30 67
M  V30 72 1 31 68
M  V30 73 1 32 69
M  V30 74 1 32 70
M  V30 75 1 34 71
M  V30 76 1 35 72
M  V30 77 1 35 73
M  V30 78 1 35 74
M  V30 79 1 36 75
M  V30 80 1 36 76
M  V30 81 1 36 77
M  V30 82 1 37 78
M  V30 83 1 37 79
M  V30 84 1 38 80
M  V30 85 1 38 81
M  V30 86 1 38 82
M  V30 87 1 39 83
M  V30 88 1 39 84
M  V30 89 1 39 85
M  V30 END BOND
M  V30 BEGIN COLLECTION
M  V30 MDLV30/STEABS ATOMS=(10 4 5 7 13 14 15 16 27 31 34)
M  V30 END COLLECTION
M  V30 END CTAB
M  END
>  <Structure No>
5189

>  <LogS>
-4.8772

>  <MMFF94 Energy>
142.28

$$$$
Compound 5190
Actelion Java MolfileCreator 2.0

  0  0  0  0  0  0              0 V3000
M  V30 BEGIN CTAB
M  V30 COUNTS 23 24 0 0 0
M  V30 BEGIN ATOM
M  V30 1 Cl 0.4966 -0.331 -2.4022 0
M  V30 2 C 1.5583 -0.1794 -1.0085 0
M  V30 3 C 1.1828 -0.6707 0.2589 0
M  V30 4 C 2.8237 0.3933 -1.1853 0
M  V30 5 O -0.0736 -1.2469 0.4831 0
M  V30 6 C 2.0957 -0.6147 1.3188 0
M  V30 7 C 3.7198 0.4679 -0.114 0
M  V30 8 C -1.2976 -0.5926 0.2775 0
M  V30 9 C 3.3568 -0.0414 1.1361 0
M  V30 10 Cl 5.304 1.1851 -0.3431 0
M  V30 11 C -2.4663 -1.3615 0.2121 0
M  V30 12 C -1.3882 0.8086 0.1632 0
M  V30 13 C -3.7073 -0.7478 0.0149 0
M  V30 14 C -2.6307 1.4192 -0.034 0
M  V30 15 C -3.7891 0.6415 -0.1104 0
M  V30 16 H 3.1148 0.7701 -2.1578 0
M  V30 17 H 1.8204 -1.0046 2.2905 0
M  V30 18 H 4.0502 0.0059 1.966 0
M  V30 19 H -2.4111 -2.4383 0.3088 0
M  V30 20 H -0.5045 1.4289 0.2341 0
M  V30 21 H -4.6054 -1.3492 -0.0398 0
M  V30 22 H -2.6958 2.4958 -0.1239 0
M  V30 23 H -4.7503 1.1156 -0.2623 0
M  V30 END ATOM
M  V30 BEGIN BOND
M  V30 1 1 1 2
M  V30 2 2 2 3
M  V30 3 1 2 4
M  V30 4 1 3 5
M  V30 5 1 3 6
M  V30 6 2 4 7
M  V30 7 1 5 8
M  V30 8 2 6 9
M  V30 9 1 7 10
M  V30 10 2 8 11
M  V30 11 1 8 12
M  V30 12 1 11 13
M  V30 13 2 12 14
M  V30 14 2 13 15
M  V30 15 1 7 9
M  V30 16 1 14 15
M  V30 17 1 4 16
M  V30 18 1 6 17
M  V30 19 1 9 18
M  V30 20 1 11 19
M  V30 21 1 12 20
M  V30 22 1 13 21
M  V30 23 1 14 22
M  V30 24 1 15 23
M  V30 END BOND
M  V30 END CTAB
M  END
>  <Structure No>
5190

>  <LogS>
-4.6304

>  <MMFF94 Energy>
41.43

$$$$
Compound 5191
Actelion Java MolfileCreator 2.0

  0  0  0  0  0  0              0 V3000
M  V30 BEGIN CTAB
M  V30 COUNTS 22 23 0 0 0
M  V30 BEGIN ATOM
M  V30 1 Cl -0.7218 1.8053 -2.0763 0
M  V30 2 C -1.5099 0.7836 -0.8706 0
M  V30 3 C -2.9141 0.7676 -0.7757 0
M  V30 4 C -0.7435 -0.0407 -0.0182 0
M  V30 5 Cl -3.9125 1.7728 -1.8187 0
M  V30 6 C -3.5436 -0.0609 0.159 0
M  V30 7 C 0.7337 -0.0418 -0.0745 0
M  V30 8 C -1.3912 -0.8664 0.9139 0
M  V30 9 C -2.7852 -0.877 1.0009 0
M  V30 10 C 1.4475 -1.1672 -0.5326 0
M  V30 11 C 1.4385 1.0944 0.3527 0
M  V30 12 Cl -3.5829 -1.9137 2.1697 0
M  V30 13 Cl 0.6202 -2.6101 -1.1104 0
M  V30 14 C 2.8462 -1.1405 -0.5603 0
M  V30 15 C 2.8368 1.1175 0.3232 0
M  V30 16 C 3.544 -0.0053 -0.1346 0
M  V30 17 Cl 3.6757 2.5643 0.867 0
M  V30 18 Cl 5.3016 -0.0165 -0.1883 0
M  V30 19 H -4.6242 -0.0718 0.2297 0
M  V30 20 H -0.8103 -1.498 1.5755 0
M  V30 21 H 0.898 1.9619 0.7128 0
M  V30 22 H 3.393 -2.0042 -0.9176 0
M  V30 END ATOM
M  V30 BEGIN BOND
M  V30 1 1 1 2
M  V30 2 2 2 3
M  V30 3 1 2 4
M  V30 4 1 3 5
M  V30 5 1 3 6
M  V30 6 1 4 7
M  V30 7 2 4 8
M  V30 8 2 6 9
M  V30 9 2 7 10
M  V30 10 1 7 11
M  V30 11 1 9 12
M  V30 12 1 10 13
M  V30 13 1 10 14
M  V30 14 2 11 15
M  V30 15 2 14 16
M  V30 16 1 15 17
M  V30 17 1 16 18
M  V30 18 1 8 9
M  V30 19 1 15 16
M  V30 20 1 6 19
M  V30 21 1 8 20
M  V30 22 1 11 21
M  V30 23 1 14 22
M  V30 END BOND
M  V30 END CTAB
M  END
>  <Structure No>
5191

>  <LogS>
-8.5801

>  <MMFF94 Energy>
42.182

$$$$
Compound 5192
Actelion Java MolfileCreator 2.0

  0  0  0  0  0  0              0 V3000
M  V30 BEGIN CTAB
M  V30 COUNTS 39 41 0 0 0
M  V30 BEGIN ATOM
M  V30 1 O 3.7026 3.0579 0.4019 0
M  V30 2 C 3.3367 1.851 0.3549 0
M  V30 3 C 4.2906 0.8176 0.2652 0
M  V30 4 C 1.9692 1.5337 0.3884 0
M  V30 5 C 5.7513 1.0972 0.2156 0
M  V30 6 C 3.836 -0.5125 0.2185 0
M  V30 7 C 1.5666 0.185 0.3403 0
M  V30 8 C 0.9724 2.5187 0.4634 0
M  V30 9 O 6.579 0.1504 0.139 0
M  V30 10 O 6.234 2.4002 0.2525 0 CHG=-1
M  V30 11 N 2.5029 -0.8143 0.2703 0
M  V30 12 N 0.2378 -0.1112 0.3606 0
M  V30 13 N -0.3363 2.1612 0.4816 0
M  V30 14 C 2.0949 -2.2282 0.1968 0
M  V30 15 C -0.7157 0.8562 0.4291 0
M  V30 16 C 1.8041 -2.6255 -1.2465 0
M  V30 17 N -2.1124 0.4947 0.447 0
M  V30 18 C -2.4796 -0.9227 0.5719 0
M  V30 19 C -3.1583 1.5248 0.5463 0
M  V30 20 C -3.9991 -1.105 0.5366 0
M  V30 21 C -4.4042 1.1639 -0.2944 0
M  V30 22 N -4.5733 -0.284 -0.5348 0 CHG=1
M  V30 23 H 4.5594 -1.3161 0.1389 0
M  V30 24 H 1.2275 3.5698 0.5044 0
M  V30 25 H 2.8928 -2.8896 0.6017 0
M  V30 26 H 1.1945 -2.4118 0.8229 0
M  V30 27 H 1.5095 -3.6951 -1.2875 0
M  V30 28 H 2.7098 -2.4781 -1.8719 0
M  V30 29 H 0.9744 -2.0106 -1.6551 0
M  V30 30 H -2.0349 -1.4903 -0.2747 0
M  V30 31 H -2.0782 -1.3345 1.5231 0
M  V30 32 H -2.7858 2.5159 0.21 0
M  V30 33 H -3.4523 1.6251 1.6137 0
M  V30 34 H -4.4413 -0.8194 1.5178 0
M  V30 35 H -4.2351 -2.1773 0.3581 0
M  V30 36 H -4.3396 1.6876 -1.2745 0
M  V30 37 H -5.305 1.5669 0.2209 0
M  V30 38 H -4.1241 -0.5421 -1.4455 0
M  V30 39 H -5.5947 -0.4995 -0.6127 0
M  V30 END ATOM
M  V30 BEGIN BOND
M  V30 1 2 1 2
M  V30 2 1 2 3
M  V30 3 1 2 4
M  V30 4 1 3 5
M  V30 5 2 3 6
M  V30 6 2 4 7
M  V30 7 1 4 8
M  V30 8 2 5 9
M  V30 9 1 5 10
M  V30 10 1 6 11
M  V30 11 1 7 12
M  V30 12 2 8 13
M  V30 13 1 11 14
M  V30 14 2 12 15
M  V30 15 1 14 16
M  V30 16 1 15 17
M  V30 17 1 17 18
M  V30 18 1 17 19
M  V30 19 1 18 20
M  V30 20 1 19 21
M  V30 21 1 20 22
M  V30 22 1 7 11
M  V30 23 1 13 15
M  V30 24 1 21 22
M  V30 25 1 6 23
M  V30 26 1 8 24
M  V30 27 1 14 25
M  V30 28 1 14 26
M  V30 29 1 16 27
M  V30 30 1 16 28
M  V30 31 1 16 29
M  V30 32 1 18 30
M  V30 33 1 18 31
M  V30 34 1 19 32
M  V30 35 1 19 33
M  V30 36 1 20 34
M  V30 37 1 20 35
M  V30 38 1 21 36
M  V30 39 1 21 37
M  V30 40 1 22 38
M  V30 41 1 22 39
M  V30 END BOND
M  V30 END CTAB
M  END
>  <Structure No>
5192

>  <LogS>
-2.974

>  <MMFF94 Energy>
-32.768

$$$$
Compound 5193
Actelion Java MolfileCreator 2.0

  0  0  0  0  0  0              0 V3000
M  V30 BEGIN CTAB
M  V30 COUNTS 11 11 0 0 0
M  V30 BEGIN ATOM
M  V30 1 O -0.3132 2.3511 0.0 0
M  V30 2 C -0.1389 1.1033 -0.0054 0
M  V30 3 N 1.1214 0.5895 0.0155 0
M  V30 4 C -1.2398 0.2451 -0.033 0
M  V30 5 C 1.3229 -0.7557 0.0099 0
M  V30 6 C -1.0102 -1.1298 -0.0382 0
M  V30 7 N 0.262 -1.6045 -0.0167 0
M  V30 8 H 1.9469 1.2299 0.0362 0
M  V30 9 H -2.2508 0.6332 -0.0499 0
M  V30 10 H 2.3286 -1.1544 0.0267 0
M  V30 11 H -1.8428 -1.8202 -0.0594 0
M  V30 END ATOM
M  V30 BEGIN BOND
M  V30 1 2 1 2
M  V30 2 1 2 3
M  V30 3 1 2 4
M  V30 4 1 3 5
M  V30 5 2 4 6
M  V30 6 2 5 7
M  V30 7 1 6 7
M  V30 8 1 3 8
M  V30 9 1 4 9
M  V30 10 1 5 10
M  V30 11 1 6 11
M  V30 END BOND
M  V30 END CTAB
M  END
>  <Structure No>
5193

>  <LogS>
0.586

>  <MMFF94 Energy>
-57.572

$$$$
Compound 5194
Actelion Java MolfileCreator 2.0

  0  0  0  0  0  0              0 V3000
M  V30 BEGIN CTAB
M  V30 COUNTS 36 38 0 0 0
M  V30 BEGIN ATOM
M  V30 1 Cl 3.2869 -2.6289 -2.4644 0
M  V30 2 C 3.5161 -1.603 -1.058 0
M  V30 3 C 2.4621 -0.8727 -0.4965 0
M  V30 4 C 4.7863 -1.4946 -0.4617 0
M  V30 5 C 1.0537 -0.7627 -0.8739 0
M  V30 6 C 2.6561 -0.0727 0.6045 0
M  V30 7 C 4.9794 -0.6698 0.6661 0
M  V30 8 O 0.5312 -1.3743 -1.8413 0
M  V30 9 N 0.3494 0.1154 0.03 0
M  V30 10 C 1.3835 0.5504 0.9312 0
M  V30 11 C 3.9051 0.054 1.2099 0
M  V30 12 C -1.0046 0.73 -0.061 0
M  V30 13 O 1.2127 1.3935 1.852 0
M  V30 14 C -0.8483 2.1729 -0.5275 0
M  V30 15 C -1.915 0.0092 -1.0995 0
M  V30 16 C -1.6585 0.6676 1.3688 0
M  V30 17 O 0.2034 2.5276 -1.1265 0
M  V30 18 N -1.9038 3.1257 -0.3737 0
M  V30 19 C -2.4139 -1.341 -0.5689 0
M  V30 20 C -3.12 0.1906 1.3801 0
M  V30 21 C -3.2703 -1.1836 0.7052 0
M  V30 22 H 5.6241 -2.0453 -0.8696 0
M  V30 23 H 5.9611 -0.5931 1.1148 0
M  V30 24 H 4.0448 0.6911 2.0735 0
M  V30 25 H -1.417 -0.1022 -2.0817 0
M  V30 26 H -2.81 0.6339 -1.3189 0
M  V30 27 H -1.5948 1.6506 1.8849 0
M  V30 28 H -1.0961 -0.0463 2.0109 0
M  V30 29 H -1.775 4.1057 -0.71 0
M  V30 30 H -2.8203 2.8651 0.048 0
M  V30 31 H -1.5444 -1.9954 -0.3457 0
M  V30 32 H -3.0123 -1.8456 -1.358 0
M  V30 33 H -3.4783 0.1235 2.4303 0
M  V30 34 H -3.7659 0.9303 0.8629 0
M  V30 35 H -4.3422 -1.3362 0.4528 0
M  V30 36 H -2.9876 -1.978 1.4303 0
M  V30 END ATOM
M  V30 BEGIN BOND
M  V30 1 1 1 2
M  V30 2 2 2 3
M  V30 3 1 2 4
M  V30 4 1 3 5
M  V30 5 1 3 6
M  V30 6 2 4 7
M  V30 7 2 5 8
M  V30 8 1 5 9
M  V30 9 1 6 10
M  V30 10 2 6 11
M  V30 11 1 9 12
M  V30 12 2 10 13
M  V30 13 1 12 14
M  V30 14 1 12 15
M  V30 15 1 12 16
M  V30 16 2 14 17
M  V30 17 1 14 18
M  V30 18 1 15 19
M  V30 19 1 16 20
M  V30 20 1 19 21
M  V30 21 1 7 11
M  V30 22 1 9 10
M  V30 23 1 20 21
M  V30 24 1 4 22
M  V30 25 1 7 23
M  V30 26 1 11 24
M  V30 27 1 15 25
M  V30 28 1 15 26
M  V30 29 1 16 27
M  V30 30 1 16 28
M  V30 31 1 18 29
M  V30 32 1 18 30
M  V30 33 1 19 31
M  V30 34 1 19 32
M  V30 35 1 20 33
M  V30 36 1 20 34
M  V30 37 1 21 35
M  V30 38 1 21 36
M  V30 END BOND
M  V30 END CTAB
M  END
>  <Structure No>
5194

>  <LogS>
-4.0097

>  <MMFF94 Energy>
-8.8855

$$$$
Compound 5195
Actelion Java MolfileCreator 2.0

  0  0  0  0  0  0              0 V3000
M  V30 BEGIN CTAB
M  V30 COUNTS 24 24 0 0 0
M  V30 BEGIN ATOM
M  V30 1 S 1.8855 0.3277 -0.8194 0
M  V30 2 C 0.2025 0.3904 -0.0969 0
M  V30 3 C 2.7588 -0.0345 0.7405 0
M  V30 4 C -0.6657 1.345 -0.9323 0
M  V30 5 C -0.4157 -1.0185 -0.078 0
M  V30 6 C 4.2148 -0.1993 0.4623 0
M  V30 7 C -2.106 1.3845 -0.406 0
M  V30 8 C -1.8564 -0.9807 0.4475 0
M  V30 9 O 4.9814 0.7991 0.4865 0
M  V30 10 O 4.7211 -1.4482 0.1255 0 CHG=-1
M  V30 11 C -2.7195 -0.0202 -0.3791 0
M  V30 12 H 0.253 0.7853 0.9422 0
M  V30 13 H 2.3659 -0.969 1.1912 0
M  V30 14 H 2.6091 0.8005 1.4579 0
M  V30 15 H -0.6714 1.0209 -1.9966 0
M  V30 16 H -0.2369 2.3697 -0.8879 0
M  V30 17 H 0.184 -1.686 0.5756 0
M  V30 18 H -0.4089 -1.4487 -1.104 0
M  V30 19 H -2.1183 1.8178 0.6184 0
M  V30 20 H -2.7185 2.0397 -1.062 0
M  V30 21 H -2.2926 -2.0015 0.3965 0
M  V30 22 H -1.8572 -0.661 1.513 0
M  V30 23 H -2.8168 -0.4055 -1.4179 0
M  V30 24 H -3.7375 0.0321 0.0635 0
M  V30 END ATOM
M  V30 BEGIN BOND
M  V30 1 1 1 2
M  V30 2 1 1 3
M  V30 3 1 2 4
M  V30 4 1 2 5
M  V30 5 1 3 6
M  V30 6 1 4 7
M  V30 7 1 5 8
M  V30 8 2 6 9
M  V30 9 1 6 10
M  V30 10 1 7 11
M  V30 11 1 8 11
M  V30 12 1 2 12
M  V30 13 1 3 13
M  V30 14 1 3 14
M  V30 15 1 4 15
M  V30 16 1 4 16
M  V30 17 1 5 17
M  V30 18 1 5 18
M  V30 19 1 7 19
M  V30 20 1 7 20
M  V30 21 1 8 21
M  V30 22 1 8 22
M  V30 23 1 11 23
M  V30 24 1 11 24
M  V30 END BOND
M  V30 END CTAB
M  END
>  <Structure No>
5195

>  <LogS>
-1.3381

>  <MMFF94 Energy>
60.563

$$$$
Compound 5196
Actelion Java MolfileCreator 2.0

  0  0  0  0  0  0              0 V3000
M  V30 BEGIN CTAB
M  V30 COUNTS 18 18 0 0 0
M  V30 BEGIN ATOM
M  V30 1 O -3.0611 1.7713 -1.4491 0
M  V30 2 C -2.1265 0.989 -1.1372 0
M  V30 3 O -1.3959 1.1095 0.0352 0
M  V30 4 N -1.7269 -0.0978 -1.9517 0 CHG=-1
M  V30 5 C -0.4041 0.0884 0.0957 0 CFG=1
M  V30 6 C -0.6715 -0.662 -1.1853 0
M  V30 7 C 0.9913 0.7564 0.1142 0
M  V30 8 C -0.6677 -0.7944 1.3235 0
M  V30 9 O -0.0661 -1.707 -1.5418 0
M  V30 10 C 2.1687 -0.2186 0.2006 0
M  V30 11 H 1.0471 1.4474 0.9836 0
M  V30 12 H 1.1122 1.3755 -0.802 0
M  V30 13 H -0.4664 -0.2251 2.2558 0
M  V30 14 H -1.7294 -1.1228 1.3374 0
M  V30 15 H -0.0279 -1.7017 1.3068 0
M  V30 16 H 3.1188 0.3557 0.1836 0
M  V30 17 H 2.1374 -0.7952 1.148 0
M  V30 18 H 2.1756 -0.9149 -0.6617 0
M  V30 END ATOM
M  V30 BEGIN BOND
M  V30 1 2 1 2
M  V30 2 1 2 3
M  V30 3 1 2 4
M  V30 4 1 3 5
M  V30 5 1 4 6
M  V30 6 1 5 7
M  V30 7 1 5 8
M  V30 8 2 6 9
M  V30 9 1 7 10
M  V30 10 1 5 6
M  V30 11 1 7 11
M  V30 12 1 7 12
M  V30 13 1 8 13
M  V30 14 1 8 14
M  V30 15 1 8 15
M  V30 16 1 10 16
M  V30 17 1 10 17
M  V30 18 1 10 18
M  V30 END BOND
M  V30 BEGIN COLLECTION
M  V30 MDLV30/STEABS ATOMS=(1 5)
M  V30 END COLLECTION
M  V30 END CTAB
M  END
>  <Structure No>
5196

>  <LogS>
0.0203

>  <MMFF94 Energy>
4.4167

$$$$
Compound 5197
Actelion Java MolfileCreator 2.0

  0  0  0  0  0  0              0 V3000
M  V30 BEGIN CTAB
M  V30 COUNTS 39 41 0 0 0
M  V30 BEGIN ATOM
M  V30 1 O 1.9951 1.7556 -1.3564 0
M  V30 2 C 1.6641 0.5411 -1.4266 0
M  V30 3 N 2.1159 -0.3984 -0.4367 0
M  V30 4 C 0.7756 0.0871 -2.5542 0 CFG=2
M  V30 5 C 3.0894 -0.0941 0.576 0
M  V30 6 O -0.2756 -0.7468 -2.062 0
M  V30 7 C 1.5959 -0.6963 -3.5746 0
M  V30 8 C 2.9696 -0.6835 1.8445 0
M  V30 9 C 4.1948 0.7344 0.307 0
M  V30 10 C -1.3371 -0.3234 -1.245 0
M  V30 11 C 3.9161 -0.4202 2.8396 0
M  V30 12 C 5.14 0.9944 1.3046 0
M  V30 13 C -2.2309 -1.2918 -0.7724 0
M  V30 14 C -1.531 1.0257 -0.8903 0
M  V30 15 C 4.9984 0.4215 2.5711 0
M  V30 16 C -3.3069 -0.9305 0.0521 0
M  V30 17 C -2.5998 1.3959 -0.0696 0
M  V30 18 C -3.4927 0.4267 0.4076 0
M  V30 19 C -4.2011 -1.9018 0.5294 0
M  V30 20 C -4.569 0.7882 1.2332 0
M  V30 21 C -5.269 -1.5291 1.351 0
M  V30 22 C -5.4523 -0.1887 1.7018 0
M  V30 23 H 1.6415 -1.3286 -0.3919 0
M  V30 24 H 0.3368 0.9663 -3.0765 0
M  V30 25 H 2.0374 -1.6028 -3.1072 0
M  V30 26 H 0.9436 -1.0128 -4.4159 0
M  V30 27 H 2.4126 -0.0617 -3.981 0
M  V30 28 H 2.1358 -1.3388 2.0639 0
M  V30 29 H 4.3439 1.1584 -0.6768 0
M  V30 30 H 3.8114 -0.8706 3.8182 0
M  V30 31 H 5.9877 1.6332 1.0927 0
M  V30 32 H -2.0794 -2.3289 -1.0486 0
M  V30 33 H -0.864 1.7989 -1.2437 0
M  V30 34 H 5.7317 0.6227 3.3414 0
M  V30 35 H -2.7285 2.4398 0.1912 0
M  V30 36 H -4.0746 -2.9456 0.2679 0
M  V30 37 H -4.7263 1.8225 1.5151 0
M  V30 38 H -5.9563 -2.2809 1.7169 0
M  V30 39 H -6.2809 0.0938 2.3382 0
M  V30 END ATOM
M  V30 BEGIN BOND
M  V30 1 2 1 2
M  V30 2 1 2 3
M  V30 3 1 2 4
M  V30 4 1 3 5
M  V30 5 1 4 6
M  V30 6 1 4 7
M  V30 7 2 5 8
M  V30 8 1 5 9
M  V30 9 1 6 10
M  V30 10 1 8 11
M  V30 11 2 9 12
M  V30 12 2 10 13
M  V30 13 1 10 14
M  V30 14 2 11 15
M  V30 15 1 13 16
M  V30 16 2 14 17
M  V30 17 1 16 18
M  V30 18 2 16 19
M  V30 19 2 18 20
M  V30 20 1 19 21
M  V30 21 1 20 22
M  V30 22 1 12 15
M  V30 23 1 17 18
M  V30 24 2 21 22
M  V30 25 1 3 23
M  V30 26 1 4 24
M  V30 27 1 7 25
M  V30 28 1 7 26
M  V30 29 1 7 27
M  V30 30 1 8 28
M  V30 31 1 9 29
M  V30 32 1 11 30
M  V30 33 1 12 31
M  V30 34 1 13 32
M  V30 35 1 14 33
M  V30 36 1 15 34
M  V30 37 1 17 35
M  V30 38 1 19 36
M  V30 39 1 20 37
M  V30 40 1 21 38
M  V30 41 1 22 39
M  V30 END BOND
M  V30 BEGIN COLLECTION
M  V30 MDLV30/STEABS ATOMS=(1 4)
M  V30 END COLLECTION
M  V30 END CTAB
M  END
>  <Structure No>
5197

>  <LogS>
-5.5894

>  <MMFF94 Energy>
60.519

$$$$
Compound 5198
Actelion Java MolfileCreator 2.0

  0  0  0  0  0  0              0 V3000
M  V30 BEGIN CTAB
M  V30 COUNTS 22 23 0 0 0
M  V30 BEGIN ATOM
M  V30 1 Cl 3.896 -0.2653 -2.3895 0
M  V30 2 C 2.8612 -0.3075 -0.9611 0
M  V30 3 C 1.4765 -0.0747 -1.0801 0
M  V30 4 C 3.4201 -0.5714 0.3021 0
M  V30 5 Cl 0.7761 0.2889 -2.6605 0
M  V30 6 C 0.6586 -0.1073 0.0694 0
M  V30 7 Cl 5.1432 -0.8673 0.4967 0
M  V30 8 C 2.603 -0.6009 1.435 0
M  V30 9 C -0.8 0.1171 -0.0182 0
M  V30 10 C 1.2323 -0.3715 1.321 0
M  V30 11 C -1.3943 1.2895 0.4977 0
M  V30 12 C -1.6071 -0.8649 -0.6137 0
M  V30 13 Cl -0.398 2.554 1.2231 0
M  V30 14 C -2.7889 1.4598 0.4081 0
M  V30 15 C -2.9887 -0.6869 -0.6984 0
M  V30 16 Cl -3.5756 2.9047 1.0313 0
M  V30 17 C -3.5778 0.4706 -0.1884 0
M  V30 18 H 3.0307 -0.8039 2.4087 0
M  V30 19 H 0.614 -0.4038 2.2101 0
M  V30 20 H -1.1641 -1.771 -1.0089 0
M  V30 21 H -3.6043 -1.4488 -1.1587 0
M  V30 22 H -4.6506 0.5991 -0.2589 0
M  V30 END ATOM
M  V30 BEGIN BOND
M  V30 1 1 1 2
M  V30 2 2 2 3
M  V30 3 1 2 4
M  V30 4 1 3 5
M  V30 5 1 3 6
M  V30 6 1 4 7
M  V30 7 2 4 8
M  V30 8 1 6 9
M  V30 9 2 6 10
M  V30 10 2 9 11
M  V30 11 1 9 12
M  V30 12 1 11 13
M  V30 13 1 11 14
M  V30 14 2 12 15
M  V30 15 1 14 16
M  V30 16 2 14 17
M  V30 17 1 8 10
M  V30 18 1 15 17
M  V30 19 1 8 18
M  V30 20 1 10 19
M  V30 21 1 12 20
M  V30 22 1 15 21
M  V30 23 1 17 22
M  V30 END BOND
M  V30 END CTAB
M  END
>  <Structure No>
5198

>  <LogS>
-7.0502

>  <MMFF94 Energy>
67.255

$$$$
Compound 5199
Actelion Java MolfileCreator 2.0

  0  0  0  0  0  0              0 V3000
M  V30 BEGIN CTAB
M  V30 COUNTS 22 23 0 0 0
M  V30 BEGIN ATOM
M  V30 1 Cl -0.6317 -2.5286 -0.9928 0
M  V30 2 C -1.4526 -1.0599 -0.455 0
M  V30 3 C -0.7078 0.0414 0.0166 0
M  V30 4 C -2.8551 -0.9877 -0.4944 0
M  V30 5 C -1.3746 1.209 0.4432 0
M  V30 6 C 0.7672 -0.0279 0.0637 0
M  V30 7 Cl -3.8244 -2.3372 -1.0729 0
M  V30 8 C -3.5077 0.1714 -0.0689 0
M  V30 9 Cl -0.4558 2.5961 1.0361 0
M  V30 10 C -2.7777 1.2669 0.3981 0
M  V30 11 C 1.4363 -0.506 1.2077 0
M  V30 12 C 1.5104 0.3899 -1.0506 0
M  V30 13 Cl -3.6512 2.7014 0.9217 0
M  V30 14 Cl 0.5488 -1.0412 2.6301 0
M  V30 15 C 2.835 -0.5599 1.2229 0
M  V30 16 C 2.9076 0.3329 -1.0274 0
M  V30 17 C 3.5685 -0.142 0.1093 0
M  V30 18 Cl 3.8302 0.857 -2.424 0
M  V30 19 H -4.589 0.2215 -0.1012 0
M  V30 20 H 1.003 0.759 -1.9339 0
M  V30 21 H 3.3555 -0.9263 2.0987 0
M  V30 22 H 4.6499 -0.1877 0.1312 0
M  V30 END ATOM
M  V30 BEGIN BOND
M  V30 1 1 1 2
M  V30 2 2 2 3
M  V30 3 1 2 4
M  V30 4 1 3 5
M  V30 5 1 3 6
M  V30 6 1 4 7
M  V30 7 2 4 8
M  V30 8 1 5 9
M  V30 9 2 5 10
M  V30 10 2 6 11
M  V30 11 1 6 12
M  V30 12 1 10 13
M  V30 13 1 11 14
M  V30 14 1 11 15
M  V30 15 2 12 16
M  V30 16 2 15 17
M  V30 17 1 16 18
M  V30 18 1 8 10
M  V30 19 1 16 17
M  V30 20 1 8 19
M  V30 21 1 12 20
M  V30 22 1 15 21
M  V30 23 1 17 22
M  V30 END BOND
M  V30 END CTAB
M  END
>  <Structure No>
5199

>  <LogS>
-7.4254

>  <MMFF94 Energy>
47.693

$$$$
Compound 5200
Actelion Java MolfileCreator 2.0

  0  0  0  0  0  0              0 V3000
M  V30 BEGIN CTAB
M  V30 COUNTS 22 23 0 0 0
M  V30 BEGIN ATOM
M  V30 1 Cl 0.2764 2.2128 -1.6593 0
M  V30 2 C 1.2842 1.0545 -0.7865 0
M  V30 3 C 0.6916 0.0181 -0.0351 0
M  V30 4 C 2.6836 1.165 -0.8396 0
M  V30 5 C 1.5069 -0.9007 0.6581 0
M  V30 6 C -0.7825 -0.1047 0.0256 0
M  V30 7 Cl 3.4655 2.4415 -1.7637 0
M  V30 8 C 3.4834 0.251 -0.1503 0
M  V30 9 Cl 0.7793 -2.2031 1.6034 0
M  V30 10 C 2.9048 -0.7778 0.5958 0
M  V30 11 C -1.5112 0.559 1.0359 0
M  V30 12 C -1.4654 -0.8868 -0.9271 0
M  V30 13 Cl 3.9601 -1.9008 1.4444 0
M  V30 14 Cl -0.6739 1.5437 2.2391 0
M  V30 15 C -2.9113 0.434 1.0828 0
M  V30 16 Cl -0.6025 -1.7342 -2.2066 0
M  V30 17 C -2.8568 -1.0014 -0.8676 0
M  V30 18 Cl -3.8607 1.2428 2.3233 0
M  V30 19 C -3.5755 -0.3448 0.1313 0
M  V30 20 H 4.5616 0.341 -0.1947 0
M  V30 21 H -3.3846 -1.6014 -1.5981 0
M  V30 22 H -4.6533 -0.4427 0.165 0
M  V30 END ATOM
M  V30 BEGIN BOND
M  V30 1 1 1 2
M  V30 2 2 2 3
M  V30 3 1 2 4
M  V30 4 1 3 5
M  V30 5 1 3 6
M  V30 6 1 4 7
M  V30 7 2 4 8
M  V30 8 1 5 9
M  V30 9 2 5 10
M  V30 10 2 6 11
M  V30 11 1 6 12
M  V30 12 1 10 13
M  V30 13 1 11 14
M  V30 14 1 11 15
M  V30 15 1 12 16
M  V30 16 2 12 17
M  V30 17 1 15 18
M  V30 18 2 15 19
M  V30 19 1 8 10
M  V30 20 1 17 19
M  V30 21 1 8 20
M  V30 22 1 17 21
M  V30 23 1 19 22
M  V30 END BOND
M  V30 END CTAB
M  END
>  <Structure No>
5200

>  <LogS>
-7.94

>  <MMFF94 Energy>
53.248

$$$$
Compound 5201
Actelion Java MolfileCreator 2.0

  0  0  0  0  0  0              0 V3000
M  V30 BEGIN CTAB
M  V30 COUNTS 22 23 0 0 0
M  V30 BEGIN ATOM
M  V30 1 Cl -0.8294 -1.7515 -1.936 0
M  V30 2 C -1.5288 -0.6651 -0.731 0
M  V30 3 C -2.9268 -0.5787 -0.5893 0
M  V30 4 C -0.6888 0.1157 0.09 0
M  V30 5 Cl -3.9859 -1.5512 -1.6112 0
M  V30 6 C -3.4795 0.2861 0.3703 0
M  V30 7 C 0.7821 0.0315 -0.0516 0
M  V30 8 C -1.2557 0.978 1.0475 0
M  V30 9 Cl -5.2205 0.4255 0.5813 0
M  V30 10 C -2.6434 1.0571 1.1807 0
M  V30 11 C 1.5177 -0.9061 0.7044 0
M  V30 12 C 1.4553 0.8896 -0.944 0
M  V30 13 Cl -0.2497 1.9726 2.0961 0
M  V30 14 Cl 0.6923 -1.9902 1.8277 0
M  V30 15 C 2.915 -0.9759 0.5605 0
M  V30 16 Cl 0.5834 2.076 -1.9097 0
M  V30 17 C 2.844 0.8085 -1.076 0
M  V30 18 Cl 3.8726 -2.1285 1.4817 0
M  V30 19 C 3.5694 -0.1186 -0.3282 0
M  V30 20 H -3.0747 1.7219 1.9188 0
M  V30 21 H 3.3644 1.4661 -1.7607 0
M  V30 22 H 4.6449 -0.1702 -0.4408 0
M  V30 END ATOM
M  V30 BEGIN BOND
M  V30 1 1 1 2
M  V30 2 2 2 3
M  V30 3 1 2 4
M  V30 4 1 3 5
M  V30 5 1 3 6
M  V30 6 1 4 7
M  V30 7 2 4 8
M  V30 8 1 6 9
M  V30 9 2 6 10
M  V30 10 2 7 11
M  V30 11 1 7 12
M  V30 12 1 8 13
M  V30 13 1 11 14
M  V30 14 1 11 15
M  V30 15 1 12 16
M  V30 16 2 12 17
M  V30 17 1 15 18
M  V30 18 2 15 19
M  V30 19 1 8 10
M  V30 20 1 17 19
M  V30 21 1 10 20
M  V30 22 1 17 21
M  V30 23 1 19 22
M  V30 END BOND
M  V30 BEGIN COLLECTION
M  V30 MDLV30/STEABS BONDS=(1 6)
M  V30 END COLLECTION
M  V30 END CTAB
M  END
>  <Structure No>
5201

>  <LogS>
-8.1501

>  <MMFF94 Energy>
50.067

$$$$
Compound 5202
Actelion Java MolfileCreator 2.0

  0  0  0  0  0  0              0 V3000
M  V30 BEGIN CTAB
M  V30 COUNTS 22 23 0 0 0
M  V30 BEGIN ATOM
M  V30 1 Cl 0.737 -0.4605 -2.6733 0
M  V30 2 C 1.5129 -0.2806 -1.0968 0
M  V30 3 C 0.7344 -0.0835 0.0628 0
M  V30 4 C 2.9133 -0.3316 -0.9962 0
M  V30 5 C 1.3653 0.0587 1.3164 0
M  V30 6 C -0.7391 -0.026 -0.0352 0
M  V30 7 Cl 3.9238 -0.5733 -2.4159 0
M  V30 8 C 3.5302 -0.1884 0.2484 0
M  V30 9 Cl 0.4037 0.3067 2.7772 0
M  V30 10 C 2.7666 0.0056 1.4018 0
M  V30 11 C -1.4076 1.1964 -0.2521 0
M  V30 12 C -1.4774 -1.2116 0.0908 0
M  V30 13 Cl 3.5962 0.1803 2.9433 0
M  V30 14 Cl -0.4912 2.6964 -0.4122 0
M  V30 15 C -2.8119 1.2139 -0.3404 0
M  V30 16 C -2.8712 -1.1863 0.0021 0
M  V30 17 Cl -3.6914 2.7132 -0.6101 0
M  V30 18 C -3.5358 0.0234 -0.2127 0
M  V30 19 Cl -3.7867 -2.6741 0.161 0
M  V30 20 H 4.6101 -0.2282 0.3201 0
M  V30 21 H -0.9678 -2.153 0.2577 0
M  V30 22 H -4.6166 0.0388 -0.2809 0
M  V30 END ATOM
M  V30 BEGIN BOND
M  V30 1 1 1 2
M  V30 2 2 2 3
M  V30 3 1 2 4
M  V30 4 1 3 5
M  V30 5 1 3 6
M  V30 6 1 4 7
M  V30 7 2 4 8
M  V30 8 1 5 9
M  V30 9 2 5 10
M  V30 10 2 6 11
M  V30 11 1 6 12
M  V30 12 1 10 13
M  V30 13 1 11 14
M  V30 14 1 11 15
M  V30 15 2 12 16
M  V30 16 1 15 17
M  V30 17 2 15 18
M  V30 18 1 16 19
M  V30 19 1 8 10
M  V30 20 1 16 18
M  V30 21 1 8 20
M  V30 22 1 12 21
M  V30 23 1 18 22
M  V30 END BOND
M  V30 END CTAB
M  END
>  <Structure No>
5202

>  <LogS>
-8.5901

>  <MMFF94 Energy>
47.712

$$$$
Compound 5203
Actelion Java MolfileCreator 2.0

  0  0  0  0  0  0              0 V3000
M  V30 BEGIN CTAB
M  V30 COUNTS 22 23 0 0 0
M  V30 BEGIN ATOM
M  V30 1 Cl -3.2285 2.9515 -1.3828 0
M  V30 2 C -2.566 1.414 -0.8269 0
M  V30 3 C -1.1828 1.279 -0.5972 0
M  V30 4 C -3.4206 0.3176 -0.6117 0
M  V30 5 Cl -0.1009 2.649 -0.864 0
M  V30 6 C -0.6645 0.0458 -0.153 0
M  V30 7 Cl -5.154 0.4411 -0.8856 0
M  V30 8 C -2.8967 -0.9008 -0.1712 0
M  V30 9 C 0.7815 -0.1296 0.0975 0
M  V30 10 C -1.5276 -1.0371 0.0569 0
M  V30 11 C 1.6315 -0.5629 -0.9414 0
M  V30 12 C 1.3149 0.1366 1.376 0
M  V30 13 Cl 0.9783 -0.8992 -2.5477 0
M  V30 14 C 3.0054 -0.7247 -0.6968 0
M  V30 15 Cl 0.2632 0.6812 2.6866 0
M  V30 16 C 2.6908 -0.0294 1.6061 0
M  V30 17 Cl 4.1028 -1.2609 -1.9629 0
M  V30 18 C 3.5256 -0.4578 0.5716 0
M  V30 19 Cl 3.3997 0.2927 3.1837 0
M  V30 20 H -3.5521 -1.7462 -0.0048 0
M  V30 21 H -1.1379 -1.9885 0.3982 0
M  V30 22 H 4.5855 -0.584 0.7546 0
M  V30 END ATOM
M  V30 BEGIN BOND
M  V30 1 1 1 2
M  V30 2 2 2 3
M  V30 3 1 2 4
M  V30 4 1 3 5
M  V30 5 1 3 6
M  V30 6 1 4 7
M  V30 7 2 4 8
M  V30 8 1 6 9
M  V30 9 2 6 10
M  V30 10 2 9 11
M  V30 11 1 9 12
M  V30 12 1 11 13
M  V30 13 1 11 14
M  V30 14 1 12 15
M  V30 15 2 12 16
M  V30 16 1 14 17
M  V30 17 2 14 18
M  V30 18 1 16 19
M  V30 19 1 8 10
M  V30 20 1 16 18
M  V30 21 1 8 20
M  V30 22 1 10 21
M  V30 23 1 18 22
M  V30 END BOND
M  V30 END CTAB
M  END
>  <Structure No>
5203

>  <LogS>
-8.42

>  <MMFF94 Energy>
62.81

$$$$
Compound 5204
Actelion Java MolfileCreator 2.0

  0  0  0  0  0  0              0 V3000
M  V30 BEGIN CTAB
M  V30 COUNTS 22 23 0 0 0
M  V30 BEGIN ATOM
M  V30 1 Cl -0.3686 1.3828 2.3976 0
M  V30 2 C -1.3503 0.5836 1.1649 0
M  V30 3 C -2.7538 0.581 1.2765 0
M  V30 4 C -0.7303 -0.0517 0.0687 0
M  V30 5 Cl -3.5388 1.3749 2.6428 0
M  V30 6 C -3.5314 -0.0565 0.2951 0
M  V30 7 C -1.5212 -0.6878 -0.9065 0
M  V30 8 C 0.7419 -0.0515 -0.0585 0
M  V30 9 Cl -5.2878 -0.0834 0.3947 0
M  V30 10 C -2.9126 -0.6855 -0.7873 0
M  V30 11 Cl -0.7955 -1.4912 -2.2955 0
M  V30 12 C 1.4174 1.0021 -0.7068 0
M  V30 13 C 1.471 -1.1209 0.4768 0
M  V30 14 Cl 0.5045 2.3516 -1.3885 0
M  V30 15 C 2.8219 0.9733 -0.8108 0
M  V30 16 C 2.8613 -1.1471 0.3723 0
M  V30 17 Cl 3.6802 2.2852 -1.6191 0
M  V30 18 C 3.5407 -0.1068 -0.2675 0
M  V30 19 Cl 5.2948 -0.1842 -0.3742 0
M  V30 20 H -3.5168 -1.1748 -1.5411 0
M  V30 21 H 0.9599 -1.935 0.9764 0
M  V30 22 H 3.4121 -1.9798 0.7911 0
M  V30 END ATOM
M  V30 BEGIN BOND
M  V30 1 1 1 2
M  V30 2 2 2 3
M  V30 3 1 2 4
M  V30 4 1 3 5
M  V30 5 1 3 6
M  V30 6 2 4 7
M  V30 7 1 4 8
M  V30 8 1 6 9
M  V30 9 2 6 10
M  V30 10 1 7 11
M  V30 11 2 8 12
M  V30 12 1 8 13
M  V30 13 1 12 14
M  V30 14 1 12 15
M  V30 15 2 13 16
M  V30 16 1 15 17
M  V30 17 2 15 18
M  V30 18 1 18 19
M  V30 19 1 7 10
M  V30 20 1 16 18
M  V30 21 1 10 20
M  V30 22 1 13 21
M  V30 23 1 16 22
M  V30 END BOND
M  V30 BEGIN COLLECTION
M  V30 MDLV30/STEABS BONDS=(1 7)
M  V30 END COLLECTION
M  V30 END CTAB
M  END
>  <Structure No>
5204

>  <LogS>
-8.2605

>  <MMFF94 Energy>
59.613

$$$$
Compound 5205
Actelion Java MolfileCreator 2.0

  0  0  0  0  0  0              0 V3000
M  V30 BEGIN CTAB
M  V30 COUNTS 22 23 0 0 0
M  V30 BEGIN ATOM
M  V30 1 Cl 5.3332 -0.1804 0.0902 0
M  V30 2 C 3.571 -0.1204 0.0711 0
M  V30 3 C 2.8765 -0.1078 -1.1514 0
M  V30 4 C 2.8512 -0.0807 1.2786 0
M  V30 5 Cl 3.7317 -0.15 -2.6879 0
M  V30 6 C 1.4784 -0.0609 -1.1619 0
M  V30 7 Cl 3.674 -0.0835 2.8332 0
M  V30 8 C 1.4532 -0.0333 1.2587 0
M  V30 9 C 0.7573 -0.0343 0.0408 0
M  V30 10 C -0.7212 0.0323 0.0198 0
M  V30 11 C -1.5171 -0.9319 0.6753 0
M  V30 12 C -1.3482 1.0809 -0.6737 0
M  V30 13 Cl -0.8101 -2.3223 1.4931 0
M  V30 14 C -2.912 -0.8237 0.6416 0
M  V30 15 C -2.7427 1.1845 -0.7043 0
M  V30 16 C -3.5281 0.2296 -0.0407 0
M  V30 17 Cl -3.4781 2.5213 -1.5786 0
M  V30 18 Cl -5.2841 0.3228 -0.056 0
M  V30 19 H 0.952 -0.0544 -2.1089 0
M  V30 20 H 0.9084 0.0137 2.194 0
M  V30 21 H -0.7499 1.8281 -1.1819 0
M  V30 22 H -3.5207 -1.5672 1.141 0
M  V30 END ATOM
M  V30 BEGIN BOND
M  V30 1 1 1 2
M  V30 2 2 2 3
M  V30 3 1 2 4
M  V30 4 1 3 5
M  V30 5 1 3 6
M  V30 6 1 4 7
M  V30 7 2 4 8
M  V30 8 2 6 9
M  V30 9 1 9 10
M  V30 10 2 10 11
M  V30 11 1 10 12
M  V30 12 1 11 13
M  V30 13 1 11 14
M  V30 14 2 12 15
M  V30 15 2 14 16
M  V30 16 1 15 17
M  V30 17 1 16 18
M  V30 18 1 8 9
M  V30 19 1 15 16
M  V30 20 1 6 19
M  V30 21 1 8 20
M  V30 22 1 12 21
M  V30 23 1 14 22
M  V30 END BOND
M  V30 END CTAB
M  END
>  <Structure No>
5205

>  <LogS>
-8.21

>  <MMFF94 Energy>
48.337

$$$$
Compound 5206
Actelion Java MolfileCreator 2.0

  0  0  0  0  0  0              0 V3000
M  V30 BEGIN CTAB
M  V30 COUNTS 22 23 0 0 0
M  V30 BEGIN ATOM
M  V30 1 Cl 5.2774 0.1881 0.4704 0
M  V30 2 C 3.52 0.1235 0.3138 0
M  V30 3 C 2.8651 -1.119 0.2567 0
M  V30 4 C 2.7765 1.3147 0.2462 0
M  V30 5 Cl 3.8003 -2.614 0.3416 0
M  V30 6 C 1.4661 -1.1718 0.1321 0
M  V30 7 Cl 3.6003 2.8746 0.3179 0
M  V30 8 C 1.3775 1.2647 0.1216 0
M  V30 9 Cl 0.6455 -2.7356 0.0602 0
M  V30 10 C 0.7199 0.0206 0.0643 0
M  V30 11 Cl 0.4451 2.764 0.0363 0
M  V30 12 C -0.7543 -0.0335 -0.0668 0
M  V30 13 C -1.355 -0.0608 -1.3439 0
M  V30 14 C -1.5653 -0.0581 1.0857 0
M  V30 15 Cl -0.3563 -0.0305 -2.7999 0
M  V30 16 C -2.7562 -0.1122 -1.4548 0
M  V30 17 Cl -0.8649 -0.0256 2.701 0
M  V30 18 C -2.956 -0.1093 0.9595 0
M  V30 19 Cl -3.5485 -0.1478 -3.0249 0
M  V30 20 C -3.5481 -0.1361 -0.3032 0
M  V30 21 H -3.5819 -0.1282 1.8428 0
M  V30 22 H -4.6269 -0.1757 -0.3858 0
M  V30 END ATOM
M  V30 BEGIN BOND
M  V30 1 1 1 2
M  V30 2 2 2 3
M  V30 3 1 2 4
M  V30 4 1 3 5
M  V30 5 1 3 6
M  V30 6 1 4 7
M  V30 7 2 4 8
M  V30 8 1 6 9
M  V30 9 2 6 10
M  V30 10 1 8 11
M  V30 11 1 10 12
M  V30 12 2 12 13
M  V30 13 1 12 14
M  V30 14 1 13 15
M  V30 15 1 13 16
M  V30 16 1 14 17
M  V30 17 2 14 18
M  V30 18 1 16 19
M  V30 19 2 16 20
M  V30 20 1 8 10
M  V30 21 1 18 20
M  V30 22 1 18 21
M  V30 23 1 20 22
M  V30 END BOND
M  V30 END CTAB
M  END
>  <Structure No>
5206

>  <LogS>
-9.1

>  <MMFF94 Energy>
61.264

$$$$
Compound 5207
Actelion Java MolfileCreator 2.0

  0  0  0  0  0  0              0 V3000
M  V30 BEGIN CTAB
M  V30 COUNTS 22 23 0 0 0
M  V30 BEGIN ATOM
M  V30 1 Cl 3.7818 2.3971 1.0137 0
M  V30 2 C 2.828 1.0368 0.4176 0
M  V30 3 C 3.4717 -0.0754 -0.157 0
M  V30 4 C 1.4237 1.0627 0.5196 0
M  V30 5 Cl 5.2306 -0.1148 -0.2893 0
M  V30 6 C 2.7095 -1.1592 -0.6231 0
M  V30 7 Cl 0.6163 2.4427 1.2716 0
M  V30 8 C 0.6667 -0.024 0.0387 0
M  V30 9 Cl 3.4725 -2.5714 -1.3434 0
M  V30 10 C 1.3172 -1.1299 -0.5213 0
M  V30 11 C -0.8078 -0.0293 0.1233 0
M  V30 12 C -1.5952 0.7368 -0.7622 0
M  V30 13 C -1.4302 -0.8236 1.0976 0
M  V30 14 Cl -0.833 1.7069 -2.0254 0
M  V30 15 C -2.9975 0.7087 -0.6469 0
M  V30 16 C -2.8227 -0.8467 1.2051 0
M  V30 17 Cl -4.0221 1.6488 -1.7244 0
M  V30 18 C -3.6034 -0.0805 0.3366 0
M  V30 19 Cl -3.5911 -1.8375 2.432 0
M  V30 20 H 0.7373 -1.9695 -0.8864 0
M  V30 21 H -0.8313 -1.4188 1.7767 0
M  V30 22 H -4.6827 -0.101 0.4234 0
M  V30 END ATOM
M  V30 BEGIN BOND
M  V30 1 1 1 2
M  V30 2 2 2 3
M  V30 3 1 2 4
M  V30 4 1 3 5
M  V30 5 1 3 6
M  V30 6 1 4 7
M  V30 7 2 4 8
M  V30 8 1 6 9
M  V30 9 2 6 10
M  V30 10 1 8 11
M  V30 11 2 11 12
M  V30 12 1 11 13
M  V30 13 1 12 14
M  V30 14 1 12 15
M  V30 15 2 13 16
M  V30 16 1 15 17
M  V30 17 2 15 18
M  V30 18 1 16 19
M  V30 19 1 8 10
M  V30 20 1 16 18
M  V30 21 1 10 20
M  V30 22 1 13 21
M  V30 23 1 18 22
M  V30 END BOND
M  V30 END CTAB
M  END
>  <Structure No>
5207

>  <LogS>
-9.1

>  <MMFF94 Energy>
54.254

$$$$
Compound 5208
Actelion Java MolfileCreator 2.0

  0  0  0  0  0  0              0 V3000
M  V30 BEGIN CTAB
M  V30 COUNTS 22 23 0 0 0
M  V30 BEGIN ATOM
M  V30 1 Cl 3.6713 -2.7291 -0.3761 0
M  V30 2 C 2.7707 -1.2897 0.1055 0
M  V30 3 C 3.4291 -0.2354 0.7672 0
M  V30 4 C 1.3935 -1.1951 -0.1716 0
M  V30 5 Cl 5.1545 -0.3457 1.1184 0
M  V30 6 C 2.708 0.9084 1.1486 0
M  V30 7 Cl 0.5619 -2.5141 -1.0012 0
M  V30 8 C 0.6797 -0.0447 0.2147 0
M  V30 9 Cl 3.4903 2.249 1.9771 0
M  V30 10 C 1.3423 0.9982 0.872 0
M  V30 11 C -0.7666 0.0859 -0.0612 0
M  V30 12 C -1.206 0.6672 -1.2691 0
M  V30 13 C -1.7105 -0.37 0.8827 0
M  V30 14 Cl -0.0361 1.2428 -2.4605 0
M  V30 15 C -2.5823 0.7858 -1.5257 0
M  V30 16 Cl -1.1754 -1.0998 2.3995 0
M  V30 17 C -3.0835 -0.2448 0.6125 0
M  V30 18 Cl -3.1757 1.502 -3.0191 0
M  V30 19 C -3.5104 0.3304 -0.5864 0
M  V30 20 Cl -4.2959 -0.8015 1.7594 0
M  V30 21 H 0.7933 1.884 1.1695 0
M  V30 22 H -4.5701 0.4242 -0.7896 0
M  V30 END ATOM
M  V30 BEGIN BOND
M  V30 1 1 1 2
M  V30 2 2 2 3
M  V30 3 1 2 4
M  V30 4 1 3 5
M  V30 5 1 3 6
M  V30 6 1 4 7
M  V30 7 2 4 8
M  V30 8 1 6 9
M  V30 9 2 6 10
M  V30 10 1 8 11
M  V30 11 2 11 12
M  V30 12 1 11 13
M  V30 13 1 12 14
M  V30 14 1 12 15
M  V30 15 1 13 16
M  V30 16 2 13 17
M  V30 17 1 15 18
M  V30 18 2 15 19
M  V30 19 1 17 20
M  V30 20 1 8 10
M  V30 21 1 17 19
M  V30 22 1 10 21
M  V30 23 1 19 22
M  V30 END BOND
M  V30 END CTAB
M  END
>  <Structure No>
5208

>  <LogS>
-9.29

>  <MMFF94 Energy>
61.986

$$$$
Compound 5209
Actelion Java MolfileCreator 2.0

  0  0  0  0  0  0              0 V3000
M  V30 BEGIN CTAB
M  V30 COUNTS 22 23 0 0 0
M  V30 BEGIN ATOM
M  V30 1 Cl -5.2749 0.6583 0.188 0
M  V30 2 C -3.5305 0.4293 0.0409 0
M  V30 3 C -3.0229 -0.7498 -0.5316 0
M  V30 4 C -2.6501 1.4262 0.4965 0
M  V30 5 Cl -4.1299 -2.0008 -1.1032 0
M  V30 6 C -1.6343 -0.9337 -0.649 0
M  V30 7 Cl -3.2895 2.9067 1.2157 0
M  V30 8 C -1.2612 1.2449 0.3804 0
M  V30 9 Cl -0.999 -2.418 -1.3683 0
M  V30 10 C -0.7511 0.0634 -0.1915 0
M  V30 11 Cl -0.1568 2.4995 0.9556 0
M  V30 12 C 0.7092 -0.1299 -0.3114 0
M  V30 13 C 1.4474 -0.7446 0.7172 0
M  V30 14 C 1.3666 0.3075 -1.4702 0
M  V30 15 Cl 0.6676 -1.3101 2.1905 0
M  V30 16 C 2.8288 -0.9143 0.5757 0
M  V30 17 C 2.7481 0.1367 -1.6093 0
M  V30 18 C 3.4827 -0.4771 -0.5814 0
M  V30 19 Cl 3.5316 0.7002 -3.0792 0
M  V30 20 Cl 5.2203 -0.7105 -0.7169 0
M  V30 21 H 0.8026 0.7815 -2.2651 0
M  V30 22 H 3.3961 -1.3874 1.3676 0
M  V30 END ATOM
M  V30 BEGIN BOND
M  V30 1 1 1 2
M  V30 2 2 2 3
M  V30 3 1 2 4
M  V30 4 1 3 5
M  V30 5 1 3 6
M  V30 6 1 4 7
M  V30 7 2 4 8
M  V30 8 1 6 9
M  V30 9 2 6 10
M  V30 10 1 8 11
M  V30 11 1 10 12
M  V30 12 2 12 13
M  V30 13 1 12 14
M  V30 14 1 13 15
M  V30 15 1 13 16
M  V30 16 2 14 17
M  V30 17 2 16 18
M  V30 18 1 17 19
M  V30 19 1 18 20
M  V30 20 1 8 10
M  V30 21 1 17 18
M  V30 22 1 14 21
M  V30 23 1 16 22
M  V30 END BOND
M  V30 END CTAB
M  END
>  <Structure No>
5209

>  <LogS>
-9.5

>  <MMFF94 Energy>
58.238

$$$$
Compound 5210
Actelion Java MolfileCreator 2.0

  0  0  0  0  0  0              0 V3000
M  V30 BEGIN CTAB
M  V30 COUNTS 22 23 0 0 0
M  V30 BEGIN ATOM
M  V30 1 Cl 5.2862 0.0 0.5758 0
M  V30 2 C 3.5305 0.0135 0.3898 0
M  V30 3 C 2.7035 -0.0481 1.5249 0
M  V30 4 C 2.9607 0.0862 -0.893 0
M  V30 5 Cl 3.4206 -0.1391 3.1355 0
M  V30 6 C 1.3058 -0.0373 1.3783 0
M  V30 7 Cl 4.0006 0.1637 -2.3174 0
M  V30 8 C 1.5633 0.0971 -1.0425 0
M  V30 9 Cl 0.2681 -0.115 2.8072 0
M  V30 10 C 0.7333 0.0353 0.0937 0
M  V30 11 Cl 0.8493 0.1883 -2.6567 0
M  V30 12 C -0.7398 0.0467 -0.0622 0
M  V30 13 C -1.4452 -1.1666 -0.2046 0
M  V30 14 C -1.4408 1.2711 -0.0687 0
M  V30 15 Cl -0.5812 -2.7069 -0.1982 0
M  V30 16 C -2.8421 -1.148 -0.3521 0
M  V30 17 Cl -0.5713 2.7982 0.1087 0
M  V30 18 C -2.8377 1.2741 -0.217 0
M  V30 19 Cl -3.7624 -2.6364 -0.5326 0
M  V30 20 C -3.5284 0.0684 -0.3575 0
M  V30 21 Cl -3.7526 2.7769 -0.2308 0
M  V30 22 H -4.6053 0.0767 -0.4715 0
M  V30 END ATOM
M  V30 BEGIN BOND
M  V30 1 1 1 2
M  V30 2 2 2 3
M  V30 3 1 2 4
M  V30 4 1 3 5
M  V30 5 1 3 6
M  V30 6 1 4 7
M  V30 7 2 4 8
M  V30 8 1 6 9
M  V30 9 2 6 10
M  V30 10 1 8 11
M  V30 11 1 10 12
M  V30 12 2 12 13
M  V30 13 1 12 14
M  V30 14 1 13 15
M  V30 15 1 13 16
M  V30 16 1 14 17
M  V30 17 2 14 18
M  V30 18 1 16 19
M  V30 19 2 16 20
M  V30 20 1 18 21
M  V30 21 1 8 10
M  V30 22 1 18 20
M  V30 23 1 20 22
M  V30 END BOND
M  V30 END CTAB
M  END
>  <Structure No>
5210

>  <LogS>
-10.4115

>  <MMFF94 Energy>
60.549

$$$$
Compound 5211
Actelion Java MolfileCreator 2.0

  0  0  0  0  0  0              0 V3000
M  V30 BEGIN CTAB
M  V30 COUNTS 22 23 0 0 0
M  V30 BEGIN ATOM
M  V30 1 Cl -5.2774 -0.094 -0.4704 0
M  V30 2 C -3.5187 -0.057 -0.322 0
M  V30 3 C -2.7919 -1.2595 -0.2799 0
M  V30 4 C -2.846 1.175 -0.2456 0
M  V30 5 Cl -3.6384 -2.8057 -0.3754 0
M  V30 6 C -1.3917 -1.2315 -0.1614 0
M  V30 7 Cl -3.7603 2.6843 -0.2979 0
M  V30 8 C -1.4459 1.2058 -0.127 0
M  V30 9 Cl -0.481 -2.7452 -0.1063 0
M  V30 10 C -0.7166 0.0019 -0.0835 0
M  V30 11 Cl -0.6031 2.7564 -0.0287 0
M  V30 12 C 0.7559 0.0329 0.0446 0
M  V30 13 C 1.3775 0.029 1.3097 0
M  V30 14 C 1.5393 0.0665 -1.1159 0
M  V30 15 Cl 0.3964 -0.013 2.7776 0
M  V30 16 C 2.7831 0.0591 1.3983 0
M  V30 17 C 2.9305 0.0961 -1.0254 0
M  V30 18 Cl 3.5743 0.0547 2.9748 0
M  V30 19 C 3.5565 0.0927 0.224 0
M  V30 20 Cl 5.3141 0.1309 0.2872 0
M  V30 21 H 1.0697 0.0698 -2.0921 0
M  V30 22 H 3.5234 0.122 -1.9308 0
M  V30 END ATOM
M  V30 BEGIN BOND
M  V30 1 1 1 2
M  V30 2 2 2 3
M  V30 3 1 2 4
M  V30 4 1 3 5
M  V30 5 1 3 6
M  V30 6 1 4 7
M  V30 7 2 4 8
M  V30 8 1 6 9
M  V30 9 2 6 10
M  V30 10 1 8 11
M  V30 11 1 10 12
M  V30 12 2 12 13
M  V30 13 1 12 14
M  V30 14 1 13 15
M  V30 15 1 13 16
M  V30 16 2 14 17
M  V30 17 1 16 18
M  V30 18 2 16 19
M  V30 19 1 19 20
M  V30 20 1 8 10
M  V30 21 1 17 19
M  V30 22 1 14 21
M  V30 23 1 17 22
M  V30 END BOND
M  V30 END CTAB
M  END
>  <Structure No>
5211

>  <LogS>
-9.29

>  <MMFF94 Energy>
71.066

$$$$
Compound 5212
Actelion Java MolfileCreator 2.0

  0  0  0  0  0  0              0 V3000
M  V30 BEGIN CTAB
M  V30 COUNTS 22 23 0 0 0
M  V30 BEGIN ATOM
M  V30 1 Cl -5.2862 -0.2878 0.0 0
M  V30 2 C -3.5229 -0.1999 -0.001 0
M  V30 3 C -2.8364 0.1497 1.1749 0
M  V30 4 C -2.8064 -0.4793 -1.1776 0
M  V30 5 Cl -3.7378 0.5006 2.6519 0
M  V30 6 C -1.4328 0.2201 1.1754 0
M  V30 7 Cl -3.6702 -0.9179 -2.6535 0
M  V30 8 C -1.4028 -0.4096 -1.1798 0
M  V30 9 Cl -0.5722 0.6604 2.6552 0
M  V30 10 C -0.7136 -0.0594 -0.0025 0
M  V30 11 Cl -0.5044 -0.761 -2.6609 0
M  V30 12 C 0.7656 0.0142 -0.0034 0
M  V30 13 C 1.418 1.2248 -0.3186 0
M  V30 14 C 1.5277 -1.1266 0.3114 0
M  V30 15 Cl 0.4724 2.6637 -0.7154 0
M  V30 16 C 2.8245 1.2858 -0.317 0
M  V30 17 Cl 0.7603 -2.6603 0.7118 0
M  V30 18 C 2.9223 -1.0565 0.3104 0
M  V30 19 Cl 3.6493 2.795 -0.7099 0
M  V30 20 C 3.5728 0.1394 -9.0E-4 0
M  V30 21 Cl 5.3318 0.1708 0.0131 0
M  V30 22 H 3.504 -1.9369 0.5533 0
M  V30 END ATOM
M  V30 BEGIN BOND
M  V30 1 1 1 2
M  V30 2 2 2 3
M  V30 3 1 2 4
M  V30 4 1 3 5
M  V30 5 1 3 6
M  V30 6 1 4 7
M  V30 7 2 4 8
M  V30 8 1 6 9
M  V30 9 2 6 10
M  V30 10 1 8 11
M  V30 11 1 10 12
M  V30 12 2 12 13
M  V30 13 1 12 14
M  V30 14 1 13 15
M  V30 15 1 13 16
M  V30 16 1 14 17
M  V30 17 2 14 18
M  V30 18 1 16 19
M  V30 19 2 16 20
M  V30 20 1 20 21
M  V30 21 1 8 10
M  V30 22 1 18 20
M  V30 23 1 18 22
M  V30 END BOND
M  V30 END CTAB
M  END
>  <Structure No>
5212

>  <LogS>
-10.1035

>  <MMFF94 Energy>
57.375

$$$$
Compound 5213
Actelion Java MolfileCreator 2.0

  0  0  0  0  0  0              0 V3000
M  V30 BEGIN CTAB
M  V30 COUNTS 22 23 0 0 0
M  V30 BEGIN ATOM
M  V30 1 Cl 0.632 -0.2708 2.7106 0
M  V30 2 C 1.4749 -0.2394 1.1588 0
M  V30 3 C 0.7545 -0.0588 -0.0405 0
M  V30 4 C 2.8703 -0.3981 1.1171 0
M  V30 5 C 1.4387 -0.0364 -1.2739 0
M  V30 6 C -0.7138 0.1058 -0.0048 0
M  V30 7 Cl 3.8089 -0.6279 2.5874 0
M  V30 8 C 3.5399 -0.3757 -0.1082 0
M  V30 9 Cl 0.5502 0.1875 -2.7839 0
M  V30 10 C 2.8342 -0.1964 -1.3001 0
M  V30 11 C -1.5742 -1.0088 -0.0856 0
M  V30 12 C -1.2532 1.3951 0.1113 0
M  V30 13 Cl 3.7284 -0.1773 -2.8151 0
M  V30 14 Cl -0.9102 -2.6376 -0.232 0
M  V30 15 C -2.9678 -0.8148 -0.0486 0
M  V30 16 C -2.6364 1.5786 0.1473 0
M  V30 17 Cl -4.0823 -2.1722 -0.146 0
M  V30 18 C -3.4909 0.4778 0.0676 0
M  V30 19 H 4.6155 -0.4988 -0.1345 0
M  V30 20 H -0.6004 2.2574 0.1741 0
M  V30 21 H -3.047 2.5761 0.2371 0
M  V30 22 H -4.5624 0.6306 0.0963 0
M  V30 END ATOM
M  V30 BEGIN BOND
M  V30 1 1 1 2
M  V30 2 2 2 3
M  V30 3 1 2 4
M  V30 4 1 3 5
M  V30 5 1 3 6
M  V30 6 1 4 7
M  V30 7 2 4 8
M  V30 8 1 5 9
M  V30 9 2 5 10
M  V30 10 2 6 11
M  V30 11 1 6 12
M  V30 12 1 10 13
M  V30 13 1 11 14
M  V30 14 1 11 15
M  V30 15 2 12 16
M  V30 16 1 15 17
M  V30 17 2 15 18
M  V30 18 1 8 10
M  V30 19 1 16 18
M  V30 20 1 8 19
M  V30 21 1 12 20
M  V30 22 1 16 21
M  V30 23 1 18 22
M  V30 END BOND
M  V30 END CTAB
M  END
>  <Structure No>
5213

>  <LogS>
-8.6036

>  <MMFF94 Energy>
59.927

$$$$
Compound 5214
Actelion Java MolfileCreator 2.0

  0  0  0  0  0  0              0 V3000
M  V30 BEGIN CTAB
M  V30 COUNTS 22 23 0 0 0
M  V30 BEGIN ATOM
M  V30 1 Cl 3.9764 -1.8965 -1.4447 0
M  V30 2 C 2.9275 -0.7235 -0.6452 0
M  V30 3 C 3.4863 0.4005 -0.008 0
M  V30 4 C 1.5316 -0.9098 -0.6477 0
M  V30 5 Cl 5.2341 0.6408 3.0E-4 0
M  V30 6 C 2.6475 1.3363 0.6197 0
M  V30 7 Cl 0.8267 -2.3 -1.4796 0
M  V30 8 C 0.6988 0.0276 -0.0048 0
M  V30 9 Cl 3.3026 2.7579 1.4229 0
M  V30 10 C 1.264 1.1478 0.6163 0
M  V30 11 C -0.7684 -0.1377 0.0192 0
M  V30 12 C -1.3843 -1.0851 0.8627 0
M  V30 13 C -1.5632 0.6756 -0.8035 0
M  V30 14 Cl -0.441 -2.0982 1.9503 0
M  V30 15 C -2.7781 -1.2166 0.8598 0
M  V30 16 C -2.955 0.5374 -0.8001 0
M  V30 17 C -3.5608 -0.41 0.0298 0
M  V30 18 Cl -3.9399 1.5529 -1.8371 0
M  V30 19 H 0.6252 1.8737 1.1059 0
M  V30 20 H -1.0998 1.4109 -1.4504 0
M  V30 21 H -3.2571 -1.9418 1.5053 0
M  V30 22 H -4.6379 -0.5194 0.0358 0
M  V30 END ATOM
M  V30 BEGIN BOND
M  V30 1 1 1 2
M  V30 2 2 2 3
M  V30 3 1 2 4
M  V30 4 1 3 5
M  V30 5 1 3 6
M  V30 6 1 4 7
M  V30 7 2 4 8
M  V30 8 1 6 9
M  V30 9 2 6 10
M  V30 10 1 8 11
M  V30 11 2 11 12
M  V30 12 1 11 13
M  V30 13 1 12 14
M  V30 14 1 12 15
M  V30 15 2 13 16
M  V30 16 2 15 17
M  V30 17 1 16 18
M  V30 18 1 8 10
M  V30 19 1 16 17
M  V30 20 1 10 19
M  V30 21 1 13 20
M  V30 22 1 15 21
M  V30 23 1 17 22
M  V30 END BOND
M  V30 END CTAB
M  END
>  <Structure No>
5214

>  <LogS>
-7.6794

>  <MMFF94 Energy>
53.972

$$$$
Compound 5215
Actelion Java MolfileCreator 2.0

  0  0  0  0  0  0              0 V3000
M  V30 BEGIN CTAB
M  V30 COUNTS 44 45 0 0 0
M  V30 BEGIN ATOM
M  V30 1 Cl -3.3935 4.6886 0.6457 0
M  V30 2 C -2.8215 3.24 -0.1639 0
M  V30 3 C -3.4501 2.7862 -1.3301 0
M  V30 4 C -1.7361 2.5328 0.3655 0
M  V30 5 F -4.5046 3.4631 -1.8495 0
M  V30 6 C -2.9935 1.6268 -1.9628 0
M  V30 7 C -1.2713 1.367 -0.2664 0
M  V30 8 C -1.9109 0.9189 -1.4349 0
M  V30 9 N -0.168 0.6233 0.2911 0
M  V30 10 C -0.2752 -0.8137 0.4236 0
M  V30 11 C 1.1073 1.3188 0.5544 0 CFG=2
M  V30 12 O 0.7252 -1.5417 0.1809 0
M  V30 13 C -1.546 -1.4556 0.8347 0
M  V30 14 C 2.1272 0.9607 -0.4925 0
M  V30 15 C 1.6019 1.0352 1.9786 0
M  V30 16 C -2.4323 -0.7998 1.7081 0
M  V30 17 C -1.8711 -2.7422 0.3695 0
M  V30 18 O 2.0133 1.4455 -1.6516 0
M  V30 19 O 3.1687 0.073 -0.1929 0
M  V30 20 C -3.6316 -1.4108 2.0873 0
M  V30 21 C -3.0719 -3.3488 0.751 0
M  V30 22 C 4.1046 -0.3995 -1.1613 0
M  V30 23 C -3.9526 -2.683 1.6073 0
M  V30 24 C 5.3161 -0.9799 -0.4348 0
M  V30 25 C 3.4521 -1.4633 -2.0488 0
M  V30 26 H -1.2693 2.8773 1.2796 0
M  V30 27 H -3.4798 1.2741 -2.8632 0
M  V30 28 H -1.5661 0.024 -1.9372 0
M  V30 29 H 0.9601 2.4197 0.49 0
M  V30 30 H 2.5233 1.6209 2.1855 0
M  V30 31 H 1.8257 -0.0426 2.1219 0
M  V30 32 H 0.8231 1.3361 2.7114 0
M  V30 33 H -2.1915 0.1763 2.1103 0
M  V30 34 H -1.2038 -3.2708 -0.2998 0
M  V30 35 H -4.3097 -0.8997 2.7584 0
M  V30 36 H -3.3193 -4.336 0.3832 0
M  V30 37 H 4.4529 0.4468 -1.7948 0
M  V30 38 H -4.8808 -3.1546 1.9028 0
M  V30 39 H 6.0713 -1.3363 -1.1675 0
M  V30 40 H 5.7834 -0.1966 0.1988 0
M  V30 41 H 5.0096 -1.828 0.2153 0
M  V30 42 H 2.5813 -1.0345 -2.5878 0
M  V30 43 H 4.1792 -1.834 -2.8025 0
M  V30 44 H 3.1005 -2.3185 -1.4322 0
M  V30 END ATOM
M  V30 BEGIN BOND
M  V30 1 1 1 2
M  V30 2 2 2 3
M  V30 3 1 2 4
M  V30 4 1 3 5
M  V30 5 1 3 6
M  V30 6 2 4 7
M  V30 7 2 6 8
M  V30 8 1 7 9
M  V30 9 1 9 10
M  V30 10 1 9 11
M  V30 11 2 10 12
M  V30 12 1 10 13
M  V30 13 1 11 14
M  V30 14 1 11 15
M  V30 15 2 13 16
M  V30 16 1 13 17
M  V30 17 2 14 18
M  V30 18 1 14 19
M  V30 19 1 16 20
M  V30 20 2 17 21
M  V30 21 1 19 22
M  V30 22 2 20 23
M  V30 23 1 22 24
M  V30 24 1 22 25
M  V30 25 1 7 8
M  V30 26 1 21 23
M  V30 27 1 4 26
M  V30 28 1 6 27
M  V30 29 1 8 28
M  V30 30 1 11 29
M  V30 31 1 15 30
M  V30 32 1 15 31
M  V30 33 1 15 32
M  V30 34 1 16 33
M  V30 35 1 17 34
M  V30 36 1 20 35
M  V30 37 1 21 36
M  V30 38 1 22 37
M  V30 39 1 23 38
M  V30 40 1 24 39
M  V30 41 1 24 40
M  V30 42 1 24 41
M  V30 43 1 25 42
M  V30 44 1 25 43
M  V30 45 1 25 44
M  V30 END BOND
M  V30 BEGIN COLLECTION
M  V30 MDLV30/STEABS ATOMS=(1 11)
M  V30 END COLLECTION
M  V30 END CTAB
M  END
>  <Structure No>
5215

>  <LogS>
-4.3056

>  <MMFF94 Energy>
70.787

$$$$
Compound 5216
Actelion Java MolfileCreator 2.0

  0  0  0  0  0  0              0 V3000
M  V30 BEGIN CTAB
M  V30 COUNTS 38 39 0 0 0
M  V30 BEGIN ATOM
M  V30 1 Cl 2.9204 3.9765 -2.4332 0
M  V30 2 C 2.3771 2.9698 -1.1018 0
M  V30 3 C 2.9711 3.0852 0.1619 0
M  V30 4 C 1.3445 2.0478 -1.3062 0
M  V30 5 F 3.9733 3.9751 0.3703 0
M  V30 6 C 2.5284 2.2821 1.2176 0
M  V30 7 C 0.9068 1.2334 -0.2509 0
M  V30 8 C 1.4965 1.362 1.0139 0
M  V30 9 N -0.1505 0.2811 -0.4528 0
M  V30 10 C -1.5074 0.7613 -0.4611 0
M  V30 11 C 0.1502 -1.0909 -0.9062 0 CFG=2
M  V30 12 O -1.7761 1.8501 -1.0387 0
M  V30 13 C -2.5907 0.0136 0.2173 0
M  V30 14 C 1.2008 -1.7296 -0.0369 0
M  V30 15 C 0.5754 -1.0938 -2.3775 0
M  V30 16 C -2.3065 -0.8239 1.3109 0
M  V30 17 C -3.9249 0.1586 -0.2033 0
M  V30 18 O 0.853 -2.5253 0.8779 0
M  V30 19 O 2.5491 -1.4027 -0.2167 0
M  V30 20 C -3.3343 -1.5196 1.9543 0
M  V30 21 C -4.9495 -0.5396 0.4433 0
M  V30 22 C 3.5795 -1.9115 0.6202 0
M  V30 23 C -4.6544 -1.3797 1.5195 0
M  V30 24 H 0.8841 1.9616 -2.2824 0
M  V30 25 H 2.9846 2.3722 2.195 0
M  V30 26 H 1.1588 0.7435 1.836 0
M  V30 27 H -0.7665 -1.7176 -0.8419 0
M  V30 28 H 1.5247 -0.5363 -2.5221 0
M  V30 29 H 0.7198 -2.1376 -2.7294 0
M  V30 30 H -0.2145 -0.6205 -2.9985 0
M  V30 31 H -1.2936 -0.9285 1.6774 0
M  V30 32 H -4.1731 0.8022 -1.0381 0
M  V30 33 H -3.1077 -2.1637 2.7941 0
M  V30 34 H -5.9733 -0.4287 0.1097 0
M  V30 35 H 3.6059 -3.02 0.5601 0
M  V30 36 H 3.4054 -1.595 1.6705 0
M  V30 37 H 4.5557 -1.5086 0.2812 0
M  V30 38 H -5.4489 -1.9183 2.0195 0
M  V30 END ATOM
M  V30 BEGIN BOND
M  V30 1 1 1 2
M  V30 2 2 2 3
M  V30 3 1 2 4
M  V30 4 1 3 5
M  V30 5 1 3 6
M  V30 6 2 4 7
M  V30 7 2 6 8
M  V30 8 1 7 9
M  V30 9 1 9 10
M  V30 10 1 9 11
M  V30 11 2 10 12
M  V30 12 1 10 13
M  V30 13 1 11 14
M  V30 14 1 11 15
M  V30 15 2 13 16
M  V30 16 1 13 17
M  V30 17 2 14 18
M  V30 18 1 14 19
M  V30 19 1 16 20
M  V30 20 2 17 21
M  V30 21 1 19 22
M  V30 22 2 20 23
M  V30 23 1 7 8
M  V30 24 1 21 23
M  V30 25 1 4 24
M  V30 26 1 6 25
M  V30 27 1 8 26
M  V30 28 1 11 27
M  V30 29 1 15 28
M  V30 30 1 15 29
M  V30 31 1 15 30
M  V30 32 1 16 31
M  V30 33 1 17 32
M  V30 34 1 20 33
M  V30 35 1 21 34
M  V30 36 1 22 35
M  V30 37 1 22 36
M  V30 38 1 22 37
M  V30 39 1 23 38
M  V30 END BOND
M  V30 BEGIN COLLECTION
M  V30 MDLV30/STEABS ATOMS=(1 11)
M  V30 END COLLECTION
M  V30 END CTAB
M  END
>  <Structure No>
5216

>  <LogS>
-3.982

>  <MMFF94 Energy>
70.495

$$$$
Compound 5217
Actelion Java MolfileCreator 2.0

  0  0  0  0  0  0              0 V3000
M  V30 BEGIN CTAB
M  V30 COUNTS 38 38 0 0 0
M  V30 BEGIN ATOM
M  V30 1 S 0.6381 -1.5959 -1.4362 0
M  V30 2 C 0.0235 -0.0493 -0.7508 0
M  V30 3 C 1.7644 -1.9436 -0.0406 0
M  V30 4 O 0.5961 1.0205 -1.0914 0
M  V30 5 N -1.0797 -0.017 0.1816 0
M  V30 6 C 2.9418 -1.0083 -0.0547 0
M  V30 7 C -1.3156 1.1964 0.9788 0
M  V30 8 C -1.9373 -1.1963 0.3804 0
M  V30 9 C 3.0111 0.0646 0.8504 0
M  V30 10 C 3.9683 -1.1806 -0.9978 0
M  V30 11 C -2.1491 2.2069 0.1847 0
M  V30 12 C -2.8616 -1.4023 -0.8255 0
M  V30 13 C 4.096 0.9459 0.8156 0
M  V30 14 C 5.0521 -0.2976 -1.0283 0
M  V30 15 C -2.3674 3.4897 0.9812 0
M  V30 16 C -3.7383 -2.6376 -0.6439 0
M  V30 17 C 5.1163 0.7645 -0.1219 0
M  V30 18 H 2.1259 -2.9893 -0.1358 0
M  V30 19 H 1.2099 -1.8768 0.9202 0
M  V30 20 H -0.3422 1.6478 1.2733 0
M  V30 21 H -1.8462 0.9472 1.9235 0
M  V30 22 H -2.5669 -1.0746 1.2887 0
M  V30 23 H -1.3102 -2.0975 0.5483 0
M  V30 24 H 2.2235 0.2224 1.5771 0
M  V30 25 H 3.9264 -1.9962 -1.7092 0
M  V30 26 H -3.1378 1.7621 -0.058 0
M  V30 27 H -1.6355 2.458 -0.7676 0
M  V30 28 H -2.2626 -1.5228 -1.7525 0
M  V30 29 H -3.5145 -0.5121 -0.9487 0
M  V30 30 H 4.1446 1.7712 1.5143 0
M  V30 31 H 5.8411 -0.4351 -1.7562 0
M  V30 32 H -2.977 4.1994 0.3833 0
M  V30 33 H -2.9054 3.2695 1.928 0
M  V30 34 H -1.3927 3.9686 1.2154 0
M  V30 35 H -4.3976 -2.7589 -1.5292 0
M  V30 36 H -4.3745 -2.5303 0.2604 0
M  V30 37 H -3.1072 -3.5463 -0.5436 0
M  V30 38 H 5.955 1.448 -0.1479 0
M  V30 END ATOM
M  V30 BEGIN BOND
M  V30 1 1 1 2
M  V30 2 1 1 3
M  V30 3 2 2 4
M  V30 4 1 2 5
M  V30 5 1 3 6
M  V30 6 1 5 7
M  V30 7 1 5 8
M  V30 8 2 6 9
M  V30 9 1 6 10
M  V30 10 1 7 11
M  V30 11 1 8 12
M  V30 12 1 9 13
M  V30 13 2 10 14
M  V30 14 1 11 15
M  V30 15 1 12 16
M  V30 16 2 13 17
M  V30 17 1 14 17
M  V30 18 1 3 18
M  V30 19 1 3 19
M  V30 20 1 7 20
M  V30 21 1 7 21
M  V30 22 1 8 22
M  V30 23 1 8 23
M  V30 24 1 9 24
M  V30 25 1 10 25
M  V30 26 1 11 26
M  V30 27 1 11 27
M  V30 28 1 12 28
M  V30 29 1 12 29
M  V30 30 1 13 30
M  V30 31 1 14 31
M  V30 32 1 15 32
M  V30 33 1 15 33
M  V30 34 1 15 34
M  V30 35 1 16 35
M  V30 36 1 16 36
M  V30 37 1 16 37
M  V30 38 1 17 38
M  V30 END BOND
M  V30 END CTAB
M  END
>  <Structure No>
5217

>  <LogS>
-4.2798

>  <MMFF94 Energy>
-26.811

$$$$
Compound 5218
Actelion Java MolfileCreator 2.0

  0  0  0  0  0  0              0 V3000
M  V30 BEGIN CTAB
M  V30 COUNTS 39 39 0 0 0
M  V30 BEGIN ATOM
M  V30 1 O -5.1524 -3.8029 -0.3956 0
M  V30 2 N -5.3166 -2.5814 -0.5883 0 CHG=1
M  V30 3 O -6.3869 -2.1509 -1.3373 0 CHG=-1
M  V30 4 C -4.396 -1.6398 -0.0338 0
M  V30 5 O -3.3554 -1.976 0.6913 0
M  V30 6 C -4.4705 -0.2692 -0.1731 0
M  V30 7 C -2.7235 -0.8771 1.0353 0
M  V30 8 C -3.3904 0.2275 0.5251 0
M  V30 9 C -1.5169 -0.8842 1.8854 0
M  V30 10 N -0.6116 0.0516 1.8849 0
M  V30 11 N -0.5685 1.1257 0.9757 0
M  V30 12 C -0.4522 2.4578 1.5144 0
M  V30 13 C -0.3628 0.8441 -0.4546 0
M  V30 14 O -0.3667 2.6154 2.762 0
M  V30 15 N -0.4531 3.615 0.6725 0
M  V30 16 C 1.1109 1.0354 -0.8688 0 CFG=2
M  V30 17 O 1.2295 0.9374 -2.2667 0
M  V30 18 C 2.0398 0.0214 -0.1674 0
M  V30 19 C 3.5086 0.2212 -0.5756 0
M  V30 20 C 4.4714 -0.6578 0.237 0
M  V30 21 C 4.3461 -2.1424 -0.1034 0
M  V30 22 H -5.2229 0.3002 -0.7025 0
M  V30 23 H -3.1485 1.2719 0.6652 0
M  V30 24 H -1.393 -1.7148 2.5668 0
M  V30 25 H -0.6662 -0.1994 -0.6859 0
M  V30 26 H -1.0211 1.4951 -1.0668 0
M  V30 27 H -0.5677 3.5564 -0.3613 0
M  V30 28 H -0.3561 4.5638 1.0978 0
M  V30 29 H 1.4304 2.0586 -0.5778 0
M  V30 30 H 0.9595 0.0178 -2.5271 0
M  V30 31 H 1.7146 -1.0096 -0.423 0
M  V30 32 H 1.9558 0.1506 0.933 0
M  V30 33 H 3.788 1.2838 -0.4042 0
M  V30 34 H 3.6358 0.0095 -1.6596 0
M  V30 35 H 4.2995 -0.5094 1.3253 0
M  V30 36 H 5.5119 -0.3361 0.015 0
M  V30 37 H 3.3647 -2.5403 0.2278 0
M  V30 38 H 5.1433 -2.7094 0.4218 0
M  V30 39 H 4.4613 -2.3018 -1.1965 0
M  V30 END ATOM
M  V30 BEGIN BOND
M  V30 1 2 1 2
M  V30 2 1 2 3
M  V30 3 1 2 4
M  V30 4 1 4 5
M  V30 5 2 4 6
M  V30 6 1 5 7
M  V30 7 1 6 8
M  V30 8 1 7 9
M  V30 9 2 9 10
M  V30 10 1 10 11
M  V30 11 1 11 12
M  V30 12 1 11 13
M  V30 13 2 12 14
M  V30 14 1 12 15
M  V30 15 1 13 16
M  V30 16 1 16 17
M  V30 17 1 16 18
M  V30 18 1 18 19
M  V30 19 1 19 20
M  V30 20 1 20 21
M  V30 21 2 7 8
M  V30 22 1 6 22
M  V30 23 1 8 23
M  V30 24 1 9 24
M  V30 25 1 13 25
M  V30 26 1 13 26
M  V30 27 1 15 27
M  V30 28 1 15 28
M  V30 29 1 16 29
M  V30 30 1 17 30
M  V30 31 1 18 31
M  V30 32 1 18 32
M  V30 33 1 19 33
M  V30 34 1 19 34
M  V30 35 1 20 35
M  V30 36 1 20 36
M  V30 37 1 21 37
M  V30 38 1 21 38
M  V30 39 1 21 39
M  V30 END BOND
M  V30 BEGIN COLLECTION
M  V30 MDLV30/STEABS ATOMS=(1 16)
M  V30 END COLLECTION
M  V30 END CTAB
M  END
>  <Structure No>
5218

>  <LogS>
-3.5716

>  <MMFF94 Energy>
56.383

$$$$
Compound 5219
Actelion Java MolfileCreator 2.0

  0  0  0  0  0  0              0 V3000
M  V30 BEGIN CTAB
M  V30 COUNTS 28 29 0 0 0
M  V30 BEGIN ATOM
M  V30 1 N -1.7414 -1.3454 -0.6329 0
M  V30 2 C -0.584 -0.6682 -0.4082 0
M  V30 3 C -2.9521 -0.7579 -0.4392 0
M  V30 4 N -0.6329 0.6309 -0.0059 0
M  V30 5 N 0.6726 -1.3152 -0.6534 0
M  V30 6 C -3.0149 0.5736 -0.0177 0
M  V30 7 C -4.206 -1.5275 -0.7066 0
M  V30 8 C -1.8185 1.2617 0.2035 0
M  V30 9 C 1.9467 -0.7852 -0.2503 0
M  V30 10 C -1.8349 2.6931 0.6351 0
M  V30 11 C 2.1042 -0.1 0.969 0
M  V30 12 C 3.0722 -1.0087 -1.0588 0
M  V30 13 C 3.3601 0.3845 1.3481 0
M  V30 14 C 4.3261 -0.522 -0.6765 0
M  V30 15 C 4.469 0.178 0.524 0
M  V30 16 H 0.6621 -2.1852 -1.2325 0
M  V30 17 H -3.9705 1.0628 0.131 0
M  V30 18 H -4.8767 -1.4768 0.177 0
M  V30 19 H -4.7273 -1.0966 -1.5871 0
M  V30 20 H -3.9725 -2.5933 -0.9139 0
M  V30 21 H -2.4873 2.8129 1.5258 0
M  V30 22 H -0.8104 3.032 0.8984 0
M  V30 23 H -2.2216 3.3267 -0.1903 0
M  V30 24 H 1.2665 0.0388 1.6393 0
M  V30 25 H 2.9741 -1.5514 -1.9905 0
M  V30 26 H 3.475 0.9126 2.286 0
M  V30 27 H 5.1872 -0.6896 -1.3101 0
M  V30 28 H 5.4405 0.5523 0.82 0
M  V30 END ATOM
M  V30 BEGIN BOND
M  V30 1 2 1 2
M  V30 2 1 1 3
M  V30 3 1 2 4
M  V30 4 1 2 5
M  V30 5 2 3 6
M  V30 6 1 3 7
M  V30 7 2 4 8
M  V30 8 1 5 9
M  V30 9 1 8 10
M  V30 10 2 9 11
M  V30 11 1 9 12
M  V30 12 1 11 13
M  V30 13 2 12 14
M  V30 14 2 13 15
M  V30 15 1 6 8
M  V30 16 1 14 15
M  V30 17 1 5 16
M  V30 18 1 6 17
M  V30 19 1 7 18
M  V30 20 1 7 19
M  V30 21 1 7 20
M  V30 22 1 10 21
M  V30 23 1 10 22
M  V30 24 1 10 23
M  V30 25 1 11 24
M  V30 26 1 12 25
M  V30 27 1 13 26
M  V30 28 1 14 27
M  V30 29 1 15 28
M  V30 END BOND
M  V30 END CTAB
M  END
>  <Structure No>
5219

>  <LogS>
-3.2166

>  <MMFF94 Energy>
-42.194

$$$$
Compound 5220
Actelion Java MolfileCreator 2.0

  0  0  0  0  0  0              0 V3000
M  V30 BEGIN CTAB
M  V30 COUNTS 18 19 0 0 0
M  V30 BEGIN ATOM
M  V30 1 Cl 4.0677 1.1484 -0.3532 0
M  V30 2 C 2.4516 0.4539 -0.2023 0
M  V30 3 C 1.3203 1.2902 -0.1562 0
M  V30 4 C 2.2986 -0.9382 -0.128 0
M  V30 5 Cl 1.5457 3.0429 -0.2519 0
M  V30 6 C 0.028 0.7244 -0.035 0
M  V30 7 Cl 3.6911 -2.0132 -0.1826 0
M  V30 8 C 1.0275 -1.5006 -0.0086 0
M  V30 9 C -0.1184 -0.6885 0.0396 0
M  V30 10 C -1.1248 1.5343 0.0137 0
M  V30 11 C -1.4107 -1.2522 0.1606 0
M  V30 12 C -2.3906 0.9623 0.1333 0
M  V30 13 Cl -1.6794 -2.9921 0.2591 0
M  V30 14 C -2.5329 -0.4208 0.2063 0
M  V30 15 H 0.9495 -2.5782 0.0457 0
M  V30 16 H -1.0628 2.6126 -0.0394 0
M  V30 17 H -3.2675 1.5961 0.1696 0
M  V30 18 H -3.5233 -0.8486 0.299 0
M  V30 END ATOM
M  V30 BEGIN BOND
M  V30 1 1 1 2
M  V30 2 2 2 3
M  V30 3 1 2 4
M  V30 4 1 3 5
M  V30 5 1 3 6
M  V30 6 1 4 7
M  V30 7 2 4 8
M  V30 8 1 6 9
M  V30 9 2 6 10
M  V30 10 2 9 11
M  V30 11 1 10 12
M  V30 12 1 11 13
M  V30 13 1 11 14
M  V30 14 1 8 9
M  V30 15 2 12 14
M  V30 16 1 8 15
M  V30 17 1 10 16
M  V30 18 1 12 17
M  V30 19 1 14 18
M  V30 END BOND
M  V30 END CTAB
M  END
>  <Structure No>
5220

>  <LogS>
-7.8566

>  <MMFF94 Energy>
48.016

$$$$
Compound 5221
Actelion Java MolfileCreator 2.0

  0  0  0  0  0  0              0 V3000
M  V30 BEGIN CTAB
M  V30 COUNTS 18 19 0 0 0
M  V30 BEGIN ATOM
M  V30 1 Cl -0.6174 3.3552 0.0881 0
M  V30 2 C -0.9165 1.6177 0.069 0
M  V30 3 C 0.1308 0.6687 0.0213 0
M  V30 4 C -2.2463 1.1882 0.1029 0
M  V30 5 C -0.1811 -0.7202 0.0083 0
M  V30 6 C 1.4801 1.0702 -0.0135 0
M  V30 7 C -2.5525 -0.1721 0.0902 0
M  V30 8 C 0.8662 -1.6693 -0.0393 0
M  V30 9 C -1.5305 -1.1216 0.0433 0
M  V30 10 C 2.5021 0.1207 -0.0604 0
M  V30 11 Cl -4.2284 -0.6907 0.1334 0
M  V30 12 Cl 0.5671 -3.4067 -0.0583 0
M  V30 13 C 2.1959 -1.2397 -0.0731 0
M  V30 14 Cl 4.1779 0.6394 -0.1034 0
M  V30 15 H -3.0472 1.9166 0.1395 0
M  V30 16 H 1.7536 2.117 -0.0047 0
M  V30 17 H -1.8041 -2.1684 0.0347 0
M  V30 18 H 2.9967 -1.9679 -0.1095 0
M  V30 END ATOM
M  V30 BEGIN BOND
M  V30 1 1 1 2
M  V30 2 1 2 3
M  V30 3 2 2 4
M  V30 4 1 3 5
M  V30 5 2 3 6
M  V30 6 1 4 7
M  V30 7 2 5 8
M  V30 8 1 5 9
M  V30 9 1 6 10
M  V30 10 1 7 11
M  V30 11 1 8 12
M  V30 12 1 8 13
M  V30 13 1 10 14
M  V30 14 2 7 9
M  V30 15 2 10 13
M  V30 16 1 4 15
M  V30 17 1 6 16
M  V30 18 1 9 17
M  V30 19 1 13 18
M  V30 END BOND
M  V30 END CTAB
M  END
>  <Structure No>
5221

>  <LogS>
-7.8228

>  <MMFF94 Energy>
16.446

$$$$
Compound 5222
Actelion Java MolfileCreator 2.0

  0  0  0  0  0  0              0 V3000
M  V30 BEGIN CTAB
M  V30 COUNTS 35 35 0 0 0
M  V30 BEGIN ATOM
M  V30 1 O 3.8522 1.0994 -1.9639 0
M  V30 2 C 3.4351 0.8386 -0.8031 0
M  V30 3 N 3.281 1.9002 0.1453 0
M  V30 4 C 3.1003 -0.5863 -0.4423 0 CFG=2
M  V30 5 O 3.5694 3.1773 -0.2013 0
M  V30 6 C 1.6153 -0.7317 -0.1559 0
M  V30 7 C 3.9982 -1.0997 0.6924 0
M  V30 8 C 0.7434 -1.0547 -1.2111 0
M  V30 9 C 1.0701 -0.4849 1.1198 0
M  V30 10 C -0.6327 -1.1574 -0.993 0
M  V30 11 C -0.3066 -0.5888 1.3362 0
M  V30 12 C -1.1672 -0.9319 0.2834 0
M  V30 13 C -2.6563 -1.0164 0.5081 0
M  V30 14 C -3.3925 0.2414 -0.0011 0
M  V30 15 C -4.9096 0.0262 0.0603 0
M  V30 16 C -3.0065 1.4897 0.8065 0
M  V30 17 H 2.926 1.7076 1.1074 0
M  V30 18 H 3.3413 -1.2265 -1.3215 0
M  V30 19 H 4.5213 3.2989 0.0469 0
M  V30 20 H 3.6983 -2.1302 0.9791 0
M  V30 21 H 3.9487 -0.4469 1.5882 0
M  V30 22 H 5.0546 -1.1293 0.3496 0
M  V30 23 H 1.1293 -1.2231 -2.2088 0
M  V30 24 H 1.7001 -0.2085 1.9531 0
M  V30 25 H -1.284 -1.407 -1.8216 0
M  V30 26 H -0.7026 -0.3916 2.3248 0
M  V30 27 H -2.8773 -1.1732 1.5874 0
M  V30 28 H -3.0398 -1.9126 -0.0278 0
M  V30 29 H -3.1192 0.4149 -1.0657 0
M  V30 30 H -5.1986 -0.8488 -0.56 0
M  V30 31 H -5.2384 -0.1512 1.107 0
M  V30 32 H -5.441 0.9175 -0.3367 0
M  V30 33 H -3.5779 2.3718 0.4467 0
M  V30 34 H -1.927 1.7155 0.6806 0
M  V30 35 H -3.221 1.3402 1.8865 0
M  V30 END ATOM
M  V30 BEGIN BOND
M  V30 1 2 1 2
M  V30 2 1 2 3
M  V30 3 1 2 4
M  V30 4 1 3 5
M  V30 5 1 4 6
M  V30 6 1 4 7
M  V30 7 2 6 8
M  V30 8 1 6 9
M  V30 9 1 8 10
M  V30 10 2 9 11
M  V30 11 2 10 12
M  V30 12 1 12 13
M  V30 13 1 13 14
M  V30 14 1 14 15
M  V30 15 1 14 16
M  V30 16 1 11 12
M  V30 17 1 3 17
M  V30 18 1 4 18
M  V30 19 1 5 19
M  V30 20 1 7 20
M  V30 21 1 7 21
M  V30 22 1 7 22
M  V30 23 1 8 23
M  V30 24 1 9 24
M  V30 25 1 10 25
M  V30 26 1 11 26
M  V30 27 1 13 27
M  V30 28 1 13 28
M  V30 29 1 14 29
M  V30 30 1 15 30
M  V30 31 1 15 31
M  V30 32 1 15 32
M  V30 33 1 16 33
M  V30 34 1 16 34
M  V30 35 1 16 35
M  V30 END BOND
M  V30 BEGIN COLLECTION
M  V30 MDLV30/STEABS ATOMS=(1 4)
M  V30 END COLLECTION
M  V30 END CTAB
M  END
>  <Structure No>
5222

>  <LogS>
-3.044

>  <MMFF94 Energy>
65.182

$$$$
Compound 5223
Actelion Java MolfileCreator 2.0

  0  0  0  0  0  0              0 V3000
M  V30 BEGIN CTAB
M  V30 COUNTS 32 32 0 0 0
M  V30 BEGIN ATOM
M  V30 1 S 2.9001 1.5735 -0.4139 0
M  V30 2 O 2.1053 2.6276 -1.1325 0
M  V30 3 O 2.7765 1.7624 1.072 0
M  V30 4 N 2.3249 -9.0E-4 -0.8568 0 CHG=-1
M  V30 5 C 4.612 1.7141 -0.8788 0
M  V30 6 C 1.0034 -0.5076 -0.6092 0
M  V30 7 F 5.3492 0.7449 -0.2256 0
M  V30 8 F 4.7359 1.5415 -2.2442 0
M  V30 9 F 5.086 2.9643 -0.5293 0
M  V30 10 C 0.6862 -1.82 -1.0056 0
M  V30 11 C 0.0194 0.2823 0.0096 0
M  V30 12 C -0.6049 -2.3213 -0.7831 0
M  V30 13 C 1.7183 -2.6817 -1.6812 0
M  V30 14 C -1.2685 -0.2235 0.2522 0
M  V30 15 C -1.5835 -1.5385 -0.1517 0
M  V30 16 N -2.2705 0.6146 0.8579 0
M  V30 17 C -2.9575 -2.111 0.0719 0
M  V30 18 C -2.0052 1.4946 1.9608 0
M  V30 19 O -0.9138 1.4265 2.5885 0
M  V30 20 C -3.0616 2.4422 2.4276 0
M  V30 21 H 0.2373 1.304 0.2828 0
M  V30 22 H -0.8489 -3.3283 -1.1004 0
M  V30 23 H 2.6127 -2.7767 -1.0299 0
M  V30 24 H 2.0173 -2.219 -2.645 0
M  V30 25 H 1.3314 -3.702 -1.888 0
M  V30 26 H -3.2562 0.5444 0.5186 0
M  V30 27 H -2.9733 -3.2097 -0.0912 0
M  V30 28 H -3.2852 -1.9211 1.116 0
M  V30 29 H -3.6759 -1.6401 -0.6311 0
M  V30 30 H -2.6112 3.257 3.0334 0
M  V30 31 H -3.5777 2.8925 1.5539 0
M  V30 32 H -3.8018 1.8942 3.0468 0
M  V30 END ATOM
M  V30 BEGIN BOND
M  V30 1 2 1 2
M  V30 2 2 1 3
M  V30 3 1 1 4
M  V30 4 1 1 5
M  V30 5 1 4 6
M  V30 6 1 5 7
M  V30 7 1 5 8
M  V30 8 1 5 9
M  V30 9 2 6 10
M  V30 10 1 6 11
M  V30 11 1 10 12
M  V30 12 1 10 13
M  V30 13 2 11 14
M  V30 14 2 12 15
M  V30 15 1 14 16
M  V30 16 1 15 17
M  V30 17 1 16 18
M  V30 18 2 18 19
M  V30 19 1 18 20
M  V30 20 1 14 15
M  V30 21 1 11 21
M  V30 22 1 12 22
M  V30 23 1 13 23
M  V30 24 1 13 24
M  V30 25 1 13 25
M  V30 26 1 16 26
M  V30 27 1 17 27
M  V30 28 1 17 28
M  V30 29 1 17 29
M  V30 30 1 20 30
M  V30 31 1 20 31
M  V30 32 1 20 32
M  V30 END BOND
M  V30 END CTAB
M  END
>  <Structure No>
5223

>  <LogS>
-3.2365

>  <MMFF94 Energy>
171.91

$$$$
Compound 5224
Actelion Java MolfileCreator 2.0

  0  0  0  0  0  0              0 V3000
M  V30 BEGIN CTAB
M  V30 COUNTS 47 48 0 0 0
M  V30 BEGIN ATOM
M  V30 1 O 3.0006 0.0 0.0 0
M  V30 2 C 1.6448 0.0672 0.3703 0
M  V30 3 C 3.5302 -0.762 -1.0876 0
M  V30 4 C 0.7012 -0.9371 0.0399 0
M  V30 5 C 1.2367 1.1969 1.0982 0
M  V30 6 C 4.9514 -0.284 -1.3869 0
M  V30 7 O 1.1168 -2.0862 -0.6581 0
M  V30 8 C -0.641 -0.7733 0.4326 0
M  V30 9 O 2.2034 2.1659 1.4144 0
M  V30 10 C -0.1103 1.3413 1.4751 0
M  V30 11 O 5.8055 -0.5514 -0.2865 0
M  V30 12 C 0.2708 -3.1707 -1.0238 0
M  V30 13 C -1.0513 0.3624 1.1413 0
M  V30 14 C 1.9275 3.4011 2.0725 0
M  V30 15 C 6.5627 -1.7182 -0.5232 0
M  V30 16 C -2.4997 0.5175 1.5437 0
M  V30 17 C -3.431 0.6379 0.3487 0
M  V30 18 C -4.7205 0.056 0.3354 0
M  V30 19 C -3.0456 1.3786 -0.7826 0
M  V30 20 N -5.4875 0.1577 -0.7819 0
M  V30 21 N -5.2625 -0.6295 1.4729 0
M  V30 22 N -3.8559 1.4526 -1.8703 0 CHG=1
M  V30 23 C -5.0665 0.8365 -1.88 0
M  V30 24 N -5.9051 0.9031 -3.033 0
M  V30 25 H 2.9034 -0.6059 -1.9952 0
M  V30 26 H 3.555 -1.8471 -0.8243 0
M  V30 27 H 5.3021 -0.7282 -2.3471 0
M  V30 28 H 4.9273 0.8159 -1.5449 0
M  V30 29 H -1.3806 -1.5258 0.1862 0
M  V30 30 H -0.4339 2.2143 2.0243 0
M  V30 31 H -0.527 -2.8195 -1.7118 0
M  V30 32 H -0.1779 -3.627 -0.1171 0
M  V30 33 H 0.8767 -3.9403 -1.5453 0
M  V30 34 H 1.5289 3.2109 3.0922 0
M  V30 35 H 1.1979 3.9948 1.4784 0
M  V30 36 H 2.8688 3.9833 2.1636 0
M  V30 37 H 7.2965 -1.5536 -1.3413 0
M  V30 38 H 5.9125 -2.588 -0.7594 0
M  V30 39 H 7.1309 -1.9624 0.3944 0
M  V30 40 H -2.7453 -0.3755 2.1526 0
M  V30 41 H -2.6416 1.4096 2.1914 0
M  V30 42 H -2.089 1.8835 -0.8063 0
M  V30 43 H -4.903 -0.4724 2.4403 0
M  V30 44 H -6.144 -1.1858 1.3701 0
M  V30 45 H -3.536 1.9841 -2.7067 0
M  V30 46 H -5.5791 1.377 -3.9026 0
M  V30 47 H -6.8439 0.4474 -3.0295 0
M  V30 END ATOM
M  V30 BEGIN BOND
M  V30 1 1 1 2
M  V30 2 1 1 3
M  V30 3 2 2 4
M  V30 4 1 2 5
M  V30 5 1 3 6
M  V30 6 1 4 7
M  V30 7 1 4 8
M  V30 8 1 5 9
M  V30 9 2 5 10
M  V30 10 1 6 11
M  V30 11 1 7 12
M  V30 12 2 8 13
M  V30 13 1 9 14
M  V30 14 1 11 15
M  V30 15 1 13 16
M  V30 16 1 16 17
M  V30 17 2 17 18
M  V30 18 1 17 19
M  V30 19 1 18 20
M  V30 20 1 18 21
M  V30 21 2 19 22
M  V30 22 2 20 23
M  V30 23 1 23 24
M  V30 24 1 10 13
M  V30 25 1 22 23
M  V30 26 1 3 25
M  V30 27 1 3 26
M  V30 28 1 6 27
M  V30 29 1 6 28
M  V30 30 1 8 29
M  V30 31 1 10 30
M  V30 32 1 12 31
M  V30 33 1 12 32
M  V30 34 1 12 33
M  V30 35 1 14 34
M  V30 36 1 14 35
M  V30 37 1 14 36
M  V30 38 1 15 37
M  V30 39 1 15 38
M  V30 40 1 15 39
M  V30 41 1 16 40
M  V30 42 1 16 41
M  V30 43 1 19 42
M  V30 44 1 21 43
M  V30 45 1 21 44
M  V30 46 1 22 45
M  V30 47 1 24 46
M  V30 48 1 24 47
M  V30 END BOND
M  V30 END CTAB
M  END
>  <Structure No>
5224

>  <LogS>
-2.101

>  <MMFF94 Energy>
-17.339

$$$$
Compound 5225
Actelion Java MolfileCreator 2.0

  0  0  0  0  0  0              0 V3000
M  V30 BEGIN CTAB
M  V30 COUNTS 11 10 0 0 0
M  V30 BEGIN ATOM
M  V30 1 Cl 0.6574 -1.9732 0.6574 0
M  V30 2 C 0.7371 -0.3142 0.0629 0
M  V30 3 C 2.0709 0.2789 -0.1605 0
M  V30 4 C -0.3841 0.3845 -0.1777 0
M  V30 5 O 2.1938 1.4594 -0.5841 0
M  V30 6 O 3.2129 -0.469 0.0975 0 CHG=-1
M  V30 7 C -1.753 -0.1838 0.0374 0
M  V30 8 H -0.3211 1.4028 -0.5427 0
M  V30 9 H -2.5192 0.5745 -0.2275 0
M  V30 10 H -1.9006 -1.0766 -0.6059 0
M  V30 11 H -1.8861 -0.4646 1.1034 0
M  V30 END ATOM
M  V30 BEGIN BOND
M  V30 1 1 1 2
M  V30 2 1 2 3
M  V30 3 2 2 4
M  V30 4 2 3 5
M  V30 5 1 3 6
M  V30 6 1 4 7
M  V30 7 1 4 8
M  V30 8 1 7 9
M  V30 9 1 7 10
M  V30 10 1 7 11
M  V30 END BOND
M  V30 END CTAB
M  END
>  <Structure No>
5225

>  <LogS>
0.9189

>  <MMFF94 Energy>
40.178

$$$$
Compound 5226
Actelion Java MolfileCreator 2.0

  0  0  0  0  0  0              0 V3000
M  V30 BEGIN CTAB
M  V30 COUNTS 38 40 0 0 0
M  V30 BEGIN ATOM
M  V30 1 Cl -6.3338 -1.2477 -1.1645 0
M  V30 2 C -4.851 -0.7535 -0.3459 0
M  V30 3 C -4.3951 0.5226 -0.3692 0
M  V30 4 C -4.1732 -1.8161 0.4991 0
M  V30 5 N -3.1873 0.809 0.3379 0
M  V30 6 C -5.0335 1.6142 -1.1418 0
M  V30 7 S -2.3396 -1.6912 0.5095 0
M  V30 8 C -2.0458 1.7427 0.1936 0
M  V30 9 C -2.3773 -0.0034 1.2095 0 CFG=1
M  V30 10 O -5.8024 1.376 -2.11 0
M  V30 11 O -4.7595 2.936 -0.8142 0 CHG=-1
M  V30 12 O -1.8425 2.8182 -0.428 0
M  V30 13 C -1.2107 0.839 1.05 0 CFG=1
M  V30 14 N -0.1153 0.2273 0.2925 0
M  V30 15 C 0.8699 -0.5955 0.9383 0
M  V30 16 O 0.8203 -0.7629 2.1878 0
M  V30 17 C 1.9994 -1.2417 0.1654 0 CFG=1
M  V30 18 N 1.5803 -1.6857 -1.1712 0 CHG=1
M  V30 19 C 3.1996 -0.316 0.0849 0
M  V30 20 C 3.1047 0.949 -0.5277 0
M  V30 21 C 4.4375 -0.7217 0.6176 0
M  V30 22 C 4.2213 1.7875 -0.5976 0
M  V30 23 C 5.551 0.1209 0.5446 0
M  V30 24 C 5.4429 1.3744 -0.0616 0
M  V30 25 H -4.4452 -2.8232 0.1198 0
M  V30 26 H -4.5472 -1.7393 1.5422 0
M  V30 27 H -2.777 0.0104 2.2483 0
M  V30 28 H -0.8713 1.3466 1.9796 0
M  V30 29 H -0.0475 0.4115 -0.7327 0
M  V30 30 H 2.2869 -2.1545 0.737 0
M  V30 31 H 0.6996 -2.2465 -1.1024 0
M  V30 32 H 2.3249 -2.2965 -1.5795 0
M  V30 33 H 1.4289 -0.8796 -1.8187 0
M  V30 34 H 2.1705 1.2902 -0.9519 0
M  V30 35 H 4.5438 -1.69 1.0906 0
M  V30 36 H 4.1392 2.7586 -1.0689 0
M  V30 37 H 6.4987 -0.1987 0.9581 0
M  V30 38 H 6.3061 2.0251 -0.1172 0
M  V30 END ATOM
M  V30 BEGIN BOND
M  V30 1 1 1 2
M  V30 2 2 2 3
M  V30 3 1 2 4
M  V30 4 1 3 5
M  V30 5 1 3 6
M  V30 6 1 4 7
M  V30 7 1 5 8
M  V30 8 1 5 9
M  V30 9 2 6 10
M  V30 10 1 6 11
M  V30 11 2 8 12
M  V30 12 1 8 13
M  V30 13 1 13 14
M  V30 14 1 14 15
M  V30 15 2 15 16
M  V30 16 1 15 17
M  V30 17 1 17 18
M  V30 18 1 17 19
M  V30 19 2 19 20
M  V30 20 1 19 21
M  V30 21 1 20 22
M  V30 22 2 21 23
M  V30 23 2 22 24
M  V30 24 1 7 9
M  V30 25 1 9 13
M  V30 26 1 23 24
M  V30 27 1 4 25
M  V30 28 1 4 26
M  V30 29 1 9 27
M  V30 30 1 13 28
M  V30 31 1 14 29
M  V30 32 1 17 30
M  V30 33 1 18 31
M  V30 34 1 18 32
M  V30 35 1 18 33
M  V30 36 1 20 34
M  V30 37 1 21 35
M  V30 38 1 22 36
M  V30 39 1 23 37
M  V30 40 1 24 38
M  V30 END BOND
M  V30 BEGIN COLLECTION
M  V30 MDLV30/STEABS ATOMS=(3 9 13 17)
M  V30 END COLLECTION
M  V30 END CTAB
M  END
>  <Structure No>
5226

>  <LogS>
-1.5656

>  <MMFF94 Energy>
19.063

$$$$
Compound 5227
Actelion Java MolfileCreator 2.0

  0  0  0  0  0  0              0 V3000
M  V30 BEGIN CTAB
M  V30 COUNTS 29 29 0 0 0
M  V30 BEGIN ATOM
M  V30 1 O 0.2365 -1.9724 0.3153 0
M  V30 2 C 0.5438 -0.7965 -0.0199 0
M  V30 3 N -0.4881 0.1706 -0.2983 0
M  V30 4 C 1.9756 -0.4351 -0.1576 0
M  V30 5 C -1.9035 0.0502 0.1173 0
M  V30 6 C 2.3921 0.9086 -0.0959 0
M  V30 7 C 2.9463 -1.4403 -0.3284 0
M  V30 8 C -2.6022 1.4 -0.0276 0
M  V30 9 C -2.5945 -0.9969 -0.7787 0
M  V30 10 C -1.9992 -0.3613 1.6012 0
M  V30 11 C 3.7459 1.2365 -0.2192 0
M  V30 12 C 4.2984 -1.1062 -0.452 0
M  V30 13 O -1.9232 2.4567 -0.1424 0
M  V30 14 N -4.0272 1.5105 0.0487 0
M  V30 15 C 4.6976 0.2307 -0.3996 0
M  V30 16 H -0.2334 0.9292 -0.9703 0
M  V30 17 H 1.6794 1.7064 0.0681 0
M  V30 18 H 2.6594 -2.4834 -0.3759 0
M  V30 19 H -2.621 -0.6424 -1.8316 0
M  V30 20 H -2.0502 -1.9628 -0.7557 0
M  V30 21 H -3.6323 -1.202 -0.4443 0
M  V30 22 H -1.6548 -1.4023 1.7631 0
M  V30 23 H -1.383 0.3185 2.2281 0
M  V30 24 H -3.0502 -0.3109 1.9591 0
M  V30 25 H 4.0577 2.2718 -0.1692 0
M  V30 26 H 5.0373 -1.8853 -0.5887 0
M  V30 27 H -4.6318 0.6907 0.2716 0
M  V30 28 H -4.484 2.4427 -0.0646 0
M  V30 29 H 5.7449 0.4872 -0.4942 0
M  V30 END ATOM
M  V30 BEGIN BOND
M  V30 1 2 1 2
M  V30 2 1 2 3
M  V30 3 1 2 4
M  V30 4 1 3 5
M  V30 5 2 4 6
M  V30 6 1 4 7
M  V30 7 1 5 8
M  V30 8 1 5 9
M  V30 9 1 5 10
M  V30 10 1 6 11
M  V30 11 2 7 12
M  V30 12 2 8 13
M  V30 13 1 8 14
M  V30 14 2 11 15
M  V30 15 1 12 15
M  V30 16 1 3 16
M  V30 17 1 6 17
M  V30 18 1 7 18
M  V30 19 1 9 19
M  V30 20 1 9 20
M  V30 21 1 9 21
M  V30 22 1 10 22
M  V30 23 1 10 23
M  V30 24 1 10 24
M  V30 25 1 11 25
M  V30 26 1 12 26
M  V30 27 1 14 27
M  V30 28 1 14 28
M  V30 29 1 15 29
M  V30 END BOND
M  V30 END CTAB
M  END
>  <Structure No>
5227

>  <LogS>
-1.6154

>  <MMFF94 Energy>
27.969

$$$$
Compound 5228
Actelion Java MolfileCreator 2.0

  0  0  0  0  0  0              0 V3000
M  V30 BEGIN CTAB
M  V30 COUNTS 16 16 0 0 0
M  V30 BEGIN ATOM
M  V30 1 Cl 3.1871 2.325 0.086 0
M  V30 2 C 1.9705 1.0489 0.0347 0
M  V30 3 C 0.602 1.3695 0.1209 0
M  V30 4 C 2.3646 -0.2941 -0.0927 0
M  V30 5 Cl 0.0839 3.0467 0.2814 0
M  V30 6 C -0.3679 0.3535 0.08 0
M  V30 7 Cl 4.0617 -0.7433 -0.2039 0
M  V30 8 C 1.3991 -1.3029 -0.1332 0
M  V30 9 O -1.7234 0.7098 0.1687 0
M  V30 10 C 0.0429 -0.986 -0.0477 0
M  V30 11 C -2.805 -0.2159 0.1402 0
M  V30 12 H 1.6997 -2.3383 -0.2313 0
M  V30 13 H -0.6781 -1.7911 -0.0821 0
M  V30 14 H -2.8051 -0.7733 -0.8201 0
M  V30 15 H -3.7606 0.3404 0.2277 0
M  V30 16 H -2.7257 -0.9222 0.9934 0
M  V30 END ATOM
M  V30 BEGIN BOND
M  V30 1 1 1 2
M  V30 2 2 2 3
M  V30 3 1 2 4
M  V30 4 1 3 5
M  V30 5 1 3 6
M  V30 6 1 4 7
M  V30 7 2 4 8
M  V30 8 1 6 9
M  V30 9 2 6 10
M  V30 10 1 9 11
M  V30 11 1 8 10
M  V30 12 1 8 12
M  V30 13 1 10 13
M  V30 14 1 11 14
M  V30 15 1 11 15
M  V30 16 1 11 16
M  V30 END BOND
M  V30 END CTAB
M  END
>  <Structure No>
5228

>  <LogS>
-4.2918

>  <MMFF94 Energy>
43.043

$$$$
Compound 5229
Actelion Java MolfileCreator 2.0

  0  0  0  0  0  0              0 V3000
M  V30 BEGIN CTAB
M  V30 COUNTS 46 46 0 0 0
M  V30 BEGIN ATOM
M  V30 1 O -1.0249 -0.3941 -2.4453 0
M  V30 2 C -0.4611 -0.0029 -1.3874 0
M  V30 3 O -1.1694 0.0685 -0.1825 0
M  V30 4 C 0.9745 0.4231 -1.4319 0 CFG=2
M  V30 5 C -2.5076 -0.4015 -0.0241 0 CFG=1
M  V30 6 C 2.0224 -0.692 -1.5664 0
M  V30 7 C 1.8064 -0.0024 -0.2129 0 CFG=1
M  V30 8 C -2.5379 -1.8681 -0.1254 0
M  V30 9 C -3.027 0.0139 1.341 0
M  V30 10 C 1.5537 -2.1536 -1.6311 0
M  V30 11 C 3.2647 -0.327 -2.393 0
M  V30 12 C 2.8463 1.0032 0.2157 0
M  V30 13 C -2.5594 -3.0704 -0.2101 0
M  V30 14 C -4.2744 0.5004 1.5447 0
M  V30 15 C -2.1495 -0.2023 2.5506 0
M  V30 16 C 3.9235 0.6618 0.9507 0
M  V30 17 C -5.2998 0.7431 0.4662 0
M  V30 18 C 4.9145 1.7319 1.3267 0
M  V30 19 C 4.1481 -0.7629 1.3981 0
M  V30 20 C -5.0684 2.0863 -0.2216 0
M  V30 21 H 1.2223 1.4078 -1.8845 0
M  V30 22 H -3.1222 0.0158 -0.845 0
M  V30 23 H 1.265 -0.5764 0.5709 0
M  V30 24 H 2.405 -2.8234 -1.389 0
M  V30 25 H 0.7329 -2.3704 -0.9145 0
M  V30 26 H 1.2001 -2.3834 -2.6578 0
M  V30 27 H 3.4719 0.7642 -2.3922 0
M  V30 28 H 4.1506 -0.8575 -1.9864 0
M  V30 29 H 3.1123 -0.6455 -3.4453 0
M  V30 30 H 2.7117 2.042 -0.0768 0
M  V30 31 H -2.5774 -4.1258 -0.2845 0
M  V30 32 H -4.585 0.726 2.5623 0
M  V30 33 H -1.1826 -0.6731 2.2737 0
M  V30 34 H -1.9387 0.7719 3.04 0
M  V30 35 H -2.6615 -0.8713 3.2747 0
M  V30 36 H -6.3059 0.7662 0.9374 0
M  V30 37 H -5.3106 -0.0859 -0.2723 0
M  V30 38 H 5.3401 2.1877 0.4078 0
M  V30 39 H 4.4076 2.5205 1.9222 0
M  V30 40 H 5.7503 1.3224 1.9312 0
M  V30 41 H 4.2188 -1.4318 0.5149 0
M  V30 42 H 3.3049 -1.0934 2.0406 0
M  V30 43 H 5.0862 -0.8639 1.9823 0
M  V30 44 H -5.8352 2.2353 -1.0109 0
M  V30 45 H -4.0641 2.129 -0.6914 0
M  V30 46 H -5.1544 2.9125 0.5164 0
M  V30 END ATOM
M  V30 BEGIN BOND
M  V30 1 2 1 2
M  V30 2 1 2 3
M  V30 3 1 2 4
M  V30 4 1 3 5
M  V30 5 1 4 6
M  V30 6 1 4 7
M  V30 7 1 5 8
M  V30 8 1 5 9
M  V30 9 1 6 10
M  V30 10 1 6 11
M  V30 11 1 7 12
M  V30 12 3 8 13
M  V30 13 2 9 14
M  V30 14 1 9 15
M  V30 15 2 12 16
M  V30 16 1 14 17
M  V30 17 1 16 18
M  V30 18 1 16 19
M  V30 19 1 17 20
M  V30 20 1 6 7
M  V30 21 1 4 21
M  V30 22 1 5 22
M  V30 23 1 7 23
M  V30 24 1 10 24
M  V30 25 1 10 25
M  V30 26 1 10 26
M  V30 27 1 11 27
M  V30 28 1 11 28
M  V30 29 1 11 29
M  V30 30 1 12 30
M  V30 31 1 13 31
M  V30 32 1 14 32
M  V30 33 1 15 33
M  V30 34 1 15 34
M  V30 35 1 15 35
M  V30 36 1 17 36
M  V30 37 1 17 37
M  V30 38 1 18 38
M  V30 39 1 18 39
M  V30 40 1 18 40
M  V30 41 1 19 41
M  V30 42 1 19 42
M  V30 43 1 19 43
M  V30 44 1 20 44
M  V30 45 1 20 45
M  V30 46 1 20 46
M  V30 END BOND
M  V30 BEGIN COLLECTION
M  V30 MDLV30/STEABS ATOMS=(3 4 5 7)
M  V30 END COLLECTION
M  V30 END CTAB
M  END
>  <Structure No>
5229

>  <LogS>
-6.3931

>  <MMFF94 Energy>
23.6

$$$$
Compound 5230
Actelion Java MolfileCreator 2.0

  0  0  0  0  0  0              0 V3000
M  V30 BEGIN CTAB
M  V30 COUNTS 40 39 0 0 0
M  V30 BEGIN ATOM
M  V30 1 O 2.2597 -2.9619 -1.2462 0
M  V30 2 C 1.7334 -2.7783 -0.1155 0
M  V30 3 N 0.3069 -2.7776 0.0285 0
M  V30 4 C 2.6077 -2.5224 1.0764 0
M  V30 5 C -0.6001 -2.6673 -1.1126 0
M  V30 6 C 2.4604 -1.0825 1.589 0
M  V30 7 C -0.4655 -1.2997 -1.7922 0
M  V30 8 C 2.9482 -0.0461 0.5662 0
M  V30 9 N -0.7001 -0.2071 -0.8479 0
M  V30 10 C 2.86 1.3684 1.131 0
M  V30 11 C -0.5274 1.1616 -1.2339 0
M  V30 12 O -0.1953 1.4519 -2.4148 0
M  V30 13 C -0.7727 2.2638 -0.2453 0
M  V30 14 C -2.1599 2.899 -0.4273 0
M  V30 15 C -3.3315 1.9404 -0.15 0
M  V30 16 C -3.4458 1.5507 1.3236 0
M  V30 17 H -0.104 -2.8113 0.9893 0
M  V30 18 H 3.6709 -2.7256 0.8244 0
M  V30 19 H 2.3171 -3.226 1.8869 0
M  V30 20 H -1.6476 -2.797 -0.7644 0
M  V30 21 H -0.3821 -3.4751 -1.8438 0
M  V30 22 H 1.397 -0.8836 1.8477 0
M  V30 23 H 3.0593 -0.9836 2.5204 0
M  V30 24 H -1.2041 -1.2322 -2.6195 0
M  V30 25 H 0.5506 -1.1999 -2.228 0
M  V30 26 H 4.0038 -0.2588 0.2908 0
M  V30 27 H 2.3273 -0.0984 -0.3537 0
M  V30 28 H -0.9868 -0.4187 0.1348 0
M  V30 29 H 3.4936 1.4619 2.0388 0
M  V30 30 H 1.8097 1.6161 1.3909 0
M  V30 31 H 3.2192 2.0929 0.3704 0
M  V30 32 H -0.6492 1.8891 0.7915 0
M  V30 33 H 3.0E-4 3.0492 -0.3931 0
M  V30 34 H -2.2487 3.2749 -1.4707 0
M  V30 35 H -2.2428 3.7816 0.2436 0
M  V30 36 H -3.2437 1.0248 -0.7733 0
M  V30 37 H -4.2739 2.4497 -0.4458 0
M  V30 38 H -3.4929 2.4568 1.9638 0
M  V30 39 H -2.5869 0.9216 1.6336 0
M  V30 40 H -4.3749 0.962 1.4757 0
M  V30 END ATOM
M  V30 BEGIN BOND
M  V30 1 2 1 2
M  V30 2 1 2 3
M  V30 3 1 2 4
M  V30 4 1 3 5
M  V30 5 1 4 6
M  V30 6 1 5 7
M  V30 7 1 6 8
M  V30 8 1 7 9
M  V30 9 1 8 10
M  V30 10 1 9 11
M  V30 11 2 11 12
M  V30 12 1 11 13
M  V30 13 1 13 14
M  V30 14 1 14 15
M  V30 15 1 15 16
M  V30 16 1 3 17
M  V30 17 1 4 18
M  V30 18 1 4 19
M  V30 19 1 5 20
M  V30 20 1 5 21
M  V30 21 1 6 22
M  V30 22 1 6 23
M  V30 23 1 7 24
M  V30 24 1 7 25
M  V30 25 1 8 26
M  V30 26 1 8 27
M  V30 27 1 9 28
M  V30 28 1 10 29
M  V30 29 1 10 30
M  V30 30 1 10 31
M  V30 31 1 13 32
M  V30 32 1 13 33
M  V30 33 1 14 34
M  V30 34 1 14 35
M  V30 35 1 15 36
M  V30 36 1 15 37
M  V30 37 1 16 38
M  V30 38 1 16 39
M  V30 39 1 16 40
M  V30 END BOND
M  V30 END CTAB
M  END
>  <Structure No>
5230

>  <LogS>
-1.8145

>  <MMFF94 Energy>
-42.923

$$$$
Compound 5231
Actelion Java MolfileCreator 2.0

  0  0  0  0  0  0              0 V3000
M  V30 BEGIN CTAB
M  V30 COUNTS 14 14 0 0 0
M  V30 BEGIN ATOM
M  V30 1 O 3.2988 0.0803 -0.0803 0
M  V30 2 N 2.3498 -0.6528 -0.4257 0
M  V30 3 N 1.0161 -0.2753 -0.2004 0
M  V30 4 C 0.5831 0.9212 0.4146 0
M  V30 5 C -0.1175 -1.0898 -0.5821 0
M  V30 6 O 1.369 1.808 0.8417 0
M  V30 7 C -0.8872 1.0147 0.4999 0
M  V30 8 C -1.3686 -0.2964 -0.1492 0
M  V30 9 H -0.1136 -1.2495 -1.6818 0
M  V30 10 H -0.0714 -2.0688 -0.0582 0
M  V30 11 H -1.2073 1.0761 1.5622 0
M  V30 12 H -1.2496 1.8986 -0.0674 0
M  V30 13 H -2.0065 -0.0748 -1.0323 0
M  V30 14 H -1.9647 -0.8882 0.5793 0
M  V30 END ATOM
M  V30 BEGIN BOND
M  V30 1 2 1 2
M  V30 2 1 2 3
M  V30 3 1 3 4
M  V30 4 1 3 5
M  V30 5 2 4 6
M  V30 6 1 4 7
M  V30 7 1 5 8
M  V30 8 1 7 8
M  V30 9 1 5 9
M  V30 10 1 5 10
M  V30 11 1 7 11
M  V30 12 1 7 12
M  V30 13 1 8 13
M  V30 14 1 8 14
M  V30 END BOND
M  V30 END CTAB
M  END
>  <Structure No>
5231

>  <LogS>
0.0523

>  <MMFF94 Energy>
0.18779

$$$$
Compound 5232
Actelion Java MolfileCreator 2.0

  0  0  0  0  0  0              0 V3000
M  V30 BEGIN CTAB
M  V30 COUNTS 26 25 0 0 0
M  V30 BEGIN ATOM
M  V30 1 O 0.7085 -2.7577 0.7873 0
M  V30 2 C 0.8093 -2.3381 -0.3961 0
M  V30 3 O 1.3531 -3.1675 -1.3686 0 CHG=-1
M  V30 4 C 0.4005 -0.9326 -0.7585 0 CFG=2
M  V30 5 N 1.5337 -0.0215 -0.5475 0
M  V30 6 C -0.8885 -0.4512 -0.0234 0 CFG=1
M  V30 7 C 2.13 0.2609 0.7291 0
M  V30 8 C -1.205 1.025 -0.3792 0
M  V30 9 C -2.0826 -1.3603 -0.3796 0
M  V30 10 O 1.7012 -0.2891 1.7785 0
M  V30 11 C 3.2614 1.2319 0.8188 0
M  V30 12 C -2.3506 1.6124 0.4473 0
M  V30 13 H 0.1711 -0.9358 -1.8482 0
M  V30 14 H 1.934 0.4535 -1.3882 0
M  V30 15 H -0.727 -0.5192 1.0739 0
M  V30 16 H -1.4498 1.1139 -1.4602 0
M  V30 17 H -0.3131 1.6579 -0.1863 0
M  V30 18 H -2.9705 -1.1018 0.2325 0
M  V30 19 H -2.3423 -1.2627 -1.4554 0
M  V30 20 H -1.8512 -2.4242 -0.1666 0
M  V30 21 H 2.9049 2.2423 0.5293 0
M  V30 22 H 4.075 0.9202 0.1314 0
M  V30 23 H 3.6619 1.2729 1.8541 0
M  V30 24 H -2.1791 1.4387 1.5308 0
M  V30 25 H -2.4085 2.7074 0.2715 0
M  V30 26 H -3.3225 1.1699 0.1472 0
M  V30 END ATOM
M  V30 BEGIN BOND
M  V30 1 2 1 2
M  V30 2 1 2 3
M  V30 3 1 2 4
M  V30 4 1 4 5
M  V30 5 1 4 6
M  V30 6 1 5 7
M  V30 7 1 6 8
M  V30 8 1 6 9
M  V30 9 2 7 10
M  V30 10 1 7 11
M  V30 11 1 8 12
M  V30 12 1 4 13
M  V30 13 1 5 14
M  V30 14 1 6 15
M  V30 15 1 8 16
M  V30 16 1 8 17
M  V30 17 1 9 18
M  V30 18 1 9 19
M  V30 19 1 9 20
M  V30 20 1 11 21
M  V30 21 1 11 22
M  V30 22 1 11 23
M  V30 23 1 12 24
M  V30 24 1 12 25
M  V30 25 1 12 26
M  V30 END BOND
M  V30 BEGIN COLLECTION
M  V30 MDLV30/STEABS ATOMS=(2 4 6)
M  V30 END COLLECTION
M  V30 END CTAB
M  END
>  <Structure No>
5232

>  <LogS>
-0.5912

>  <MMFF94 Energy>
35.043

$$$$
Compound 5233
Actelion Java MolfileCreator 2.0

  0  0  0  0  0  0              0 V3000
M  V30 BEGIN CTAB
M  V30 COUNTS 18 18 0 0 0
M  V30 BEGIN ATOM
M  V30 1 S 2.522 -0.8943 0.569 0
M  V30 2 C 0.796 -0.4205 0.447 0
M  V30 3 C 2.9862 -0.0606 -0.9802 0
M  V30 4 C 0.3558 0.7782 1.0212 0
M  V30 5 C -0.1147 -1.2541 -0.2132 0
M  V30 6 C -0.9903 1.149 0.9307 0
M  V30 7 C -1.4621 -0.8889 -0.3071 0
M  V30 8 O -1.4137 2.3459 1.504 0
M  V30 9 C -1.8996 0.3142 0.2651 0
M  V30 10 O -2.3567 -1.7264 -0.9697 0
M  V30 11 H 2.7739 1.0266 -0.9065 0
M  V30 12 H 2.4216 -0.4957 -1.8312 0
M  V30 13 H 4.0716 -0.2039 -1.1579 0
M  V30 14 H 1.0579 1.4231 1.535 0
M  V30 15 H 0.223 -2.183 -0.6553 0
M  V30 16 H -2.3814 2.643 1.4559 0
M  V30 17 H -2.9419 0.599 0.1937 0
M  V30 18 H -3.3385 -1.4908 -1.055 0
M  V30 END ATOM
M  V30 BEGIN BOND
M  V30 1 1 1 2
M  V30 2 1 1 3
M  V30 3 2 2 4
M  V30 4 1 2 5
M  V30 5 1 4 6
M  V30 6 2 5 7
M  V30 7 1 6 8
M  V30 8 2 6 9
M  V30 9 1 7 10
M  V30 10 1 7 9
M  V30 11 1 3 11
M  V30 12 1 3 12
M  V30 13 1 3 13
M  V30 14 1 4 14
M  V30 15 1 5 15
M  V30 16 1 8 16
M  V30 17 1 9 17
M  V30 18 1 10 18
M  V30 END BOND
M  V30 END CTAB
M  END
>  <Structure No>
5233

>  <LogS>
-1.7957

>  <MMFF94 Energy>
-6.5254

$$$$
Compound 5234
Actelion Java MolfileCreator 2.0

  0  0  0  0  0  0              0 V3000
M  V30 BEGIN CTAB
M  V30 COUNTS 27 27 0 0 0
M  V30 BEGIN ATOM
M  V30 1 S 0.5622 1.2051 1.3658 0
M  V30 2 C -1.0037 0.4905 0.8551 0
M  V30 3 C 1.5647 -0.2819 0.992 0
M  V30 4 C -1.7504 -0.2784 1.7562 0
M  V30 5 C -1.4952 0.7268 -0.4345 0
M  V30 6 C 1.8095 -0.4827 -0.5123 0
M  V30 7 C -2.9763 -0.8277 1.3649 0
M  V30 8 C -2.7225 0.1778 -0.8314 0
M  V30 9 C 2.5075 0.7002 -1.2054 0
M  V30 10 O -3.7051 -1.5968 2.2695 0
M  V30 11 C -3.4601 -0.5995 0.0685 0
M  V30 12 O -3.217 0.3991 -2.1147 0
M  V30 13 C 3.929 0.9334 -0.6953 0
M  V30 14 H 1.059 -1.1819 1.4026 0
M  V30 15 H 2.5353 -0.1935 1.5218 0
M  V30 16 H -1.3775 -0.4539 2.7576 0
M  V30 17 H -0.9235 1.3317 -1.1272 0
M  V30 18 H 2.4237 -1.3988 -0.6521 0
M  V30 19 H 0.8401 -0.6717 -1.0186 0
M  V30 20 H 1.9116 1.63 -1.0876 0
M  V30 21 H 2.5605 0.4811 -2.2939 0
M  V30 22 H -4.5959 -2.0084 2.0172 0
M  V30 23 H -4.408 -1.0229 -0.2391 0
M  V30 24 H -2.7069 0.9568 -2.7898 0
M  V30 25 H 4.5204 -0.0051 -0.748 0
M  V30 26 H 3.9136 1.305 0.3502 0
M  V30 27 H 4.4259 1.7005 -1.326 0
M  V30 END ATOM
M  V30 BEGIN BOND
M  V30 1 1 1 2
M  V30 2 1 1 3
M  V30 3 2 2 4
M  V30 4 1 2 5
M  V30 5 1 3 6
M  V30 6 1 4 7
M  V30 7 2 5 8
M  V30 8 1 6 9
M  V30 9 1 7 10
M  V30 10 2 7 11
M  V30 11 1 8 12
M  V30 12 1 9 13
M  V30 13 1 8 11
M  V30 14 1 3 14
M  V30 15 1 3 15
M  V30 16 1 4 16
M  V30 17 1 5 17
M  V30 18 1 6 18
M  V30 19 1 6 19
M  V30 20 1 9 20
M  V30 21 1 9 21
M  V30 22 1 10 22
M  V30 23 1 11 23
M  V30 24 1 12 24
M  V30 25 1 13 25
M  V30 26 1 13 26
M  V30 27 1 13 27
M  V30 END BOND
M  V30 END CTAB
M  END
>  <Structure No>
5234

>  <LogS>
-2.5191

>  <MMFF94 Energy>
-7.7396

$$$$
Compound 5235
Actelion Java MolfileCreator 2.0

  0  0  0  0  0  0              0 V3000
M  V30 BEGIN CTAB
M  V30 COUNTS 48 50 0 0 0
M  V30 BEGIN ATOM
M  V30 1 O -0.5566 0.9544 0.6362 0
M  V30 2 C 0.7625 0.6558 0.2602 0
M  V30 3 C -1.7346 0.3066 0.1464 0 CFG=1
M  V30 4 C 1.8025 1.2444 0.9869 0
M  V30 5 C 1.0762 -0.1958 -0.8144 0
M  V30 6 N -1.7587 -1.0669 0.6565 0
M  V30 7 C -2.9769 1.1137 0.6229 0 CFG=1
M  V30 8 C 3.1362 0.9826 0.6623 0
M  V30 9 C 2.4096 -0.4601 -1.1399 0
M  V30 10 N -1.7976 -1.3893 1.9365 0
M  V30 11 C -1.6289 -2.1986 -0.0569 0
M  V30 12 O -2.7213 2.4847 0.4179 0
M  V30 13 C -4.3464 0.7504 -0.0591 0
M  V30 14 C 3.4552 0.1247 -0.4045 0
M  V30 15 C -1.7154 -2.733 1.9752 0
M  V30 16 N -1.6062 -3.2802 0.7447 0
M  V30 17 C -4.7446 -0.7192 0.1965 0
M  V30 18 C -4.3121 1.0044 -1.5837 0
M  V30 19 C -5.4503 1.6448 0.5551 0
M  V30 20 C 4.8719 -0.1561 -0.7511 0
M  V30 21 C 5.8333 0.872 -0.7235 0
M  V30 22 C 5.2761 -1.4555 -1.1122 0
M  V30 23 C 7.166 0.6045 -1.051 0
M  V30 24 C 6.6105 -1.7175 -1.437 0
M  V30 25 C 7.5543 -0.6887 -1.4072 0
M  V30 26 H -1.7074 0.3104 -0.9617 0
M  V30 27 H 1.5751 1.9035 1.8152 0
M  V30 28 H 0.3035 -0.6477 -1.417 0
M  V30 29 H -3.0954 0.9295 1.7188 0
M  V30 30 H 3.9176 1.4374 1.2581 0
M  V30 31 H 2.6225 -1.1065 -1.9821 0
M  V30 32 H -1.5559 -2.242 -1.1355 0
M  V30 33 H -2.2734 2.8318 1.2336 0
M  V30 34 H -1.7266 -3.3093 2.8902 0
M  V30 35 H -5.8016 -0.8985 -0.0974 0
M  V30 36 H -4.6374 -0.9774 1.2718 0
M  V30 37 H -4.1315 -1.4133 -0.4095 0
M  V30 38 H -3.98 2.0404 -1.8076 0
M  V30 39 H -5.3236 0.8659 -2.0236 0
M  V30 40 H -3.6335 0.2948 -2.0995 0
M  V30 41 H -5.508 1.4961 1.6551 0
M  V30 42 H -6.4458 1.4047 0.1222 0
M  V30 43 H -5.2515 2.72 0.3574 0
M  V30 44 H 5.5515 1.8855 -0.4667 0
M  V30 45 H 4.5648 -2.2718 -1.1259 0
M  V30 46 H 7.8976 1.402 -1.0317 0
M  V30 47 H 6.9134 -2.7201 -1.7094 0
M  V30 48 H 8.5865 -0.8935 -1.6597 0
M  V30 END ATOM
M  V30 BEGIN BOND
M  V30 1 1 1 2
M  V30 2 1 1 3
M  V30 3 2 2 4
M  V30 4 1 2 5
M  V30 5 1 3 6
M  V30 6 1 3 7
M  V30 7 1 4 8
M  V30 8 2 5 9
M  V30 9 1 6 10
M  V30 10 1 6 11
M  V30 11 1 7 12
M  V30 12 1 7 13
M  V30 13 2 8 14
M  V30 14 2 10 15
M  V30 15 2 11 16
M  V30 16 1 13 17
M  V30 17 1 13 18
M  V30 18 1 13 19
M  V30 19 1 14 20
M  V30 20 2 20 21
M  V30 21 1 20 22
M  V30 22 1 21 23
M  V30 23 2 22 24
M  V30 24 2 23 25
M  V30 25 1 9 14
M  V30 26 1 15 16
M  V30 27 1 24 25
M  V30 28 1 3 26
M  V30 29 1 4 27
M  V30 30 1 5 28
M  V30 31 1 7 29
M  V30 32 1 8 30
M  V30 33 1 9 31
M  V30 34 1 11 32
M  V30 35 1 12 33
M  V30 36 1 15 34
M  V30 37 1 17 35
M  V30 38 1 17 36
M  V30 39 1 17 37
M  V30 40 1 18 38
M  V30 41 1 18 39
M  V30 42 1 18 40
M  V30 43 1 19 41
M  V30 44 1 19 42
M  V30 45 1 19 43
M  V30 46 1 21 44
M  V30 47 1 22 45
M  V30 48 1 23 46
M  V30 49 1 24 47
M  V30 50 1 25 48
M  V30 END BOND
M  V30 BEGIN COLLECTION
M  V30 MDLV30/STEABS ATOMS=(2 3 7)
M  V30 END COLLECTION
M  V30 END CTAB
M  END
>  <Structure No>
5235

>  <LogS>
-4.8292

>  <MMFF94 Energy>
110.66

$$$$
Compound 5236
Actelion Java MolfileCreator 2.0

  0  0  0  0  0  0              0 V3000
M  V30 BEGIN CTAB
M  V30 COUNTS 22 23 0 0 0
M  V30 BEGIN ATOM
M  V30 1 Cl -0.7958 0.442 -2.6543 0
M  V30 2 C -1.5316 0.1448 -1.0758 0
M  V30 3 C -2.9328 0.0773 -0.9551 0
M  V30 4 C -0.718 -0.0285 0.0636 0
M  V30 5 Cl -3.959 0.2948 -2.3735 0
M  V30 6 C -3.5149 -0.1642 0.3006 0
M  V30 7 C -1.3144 -0.2718 1.3152 0
M  V30 8 C 0.753 0.0438 -0.0522 0
M  V30 9 Cl -5.2609 -0.2557 0.4969 0
M  V30 10 C -2.705 -0.3373 1.4249 0
M  V30 11 Cl -0.3434 -0.4887 2.7683 0
M  V30 12 C 1.4273 1.2802 0.0029 0
M  V30 13 C 1.4885 -1.1396 -0.2182 0
M  V30 14 Cl 0.5518 2.7916 0.2193 0
M  V30 15 C 2.8223 1.3168 -0.1107 0
M  V30 16 C 2.8804 -1.0932 -0.3306 0
M  V30 17 C 3.5465 0.1334 -0.2774 0
M  V30 18 H -3.1591 -0.5226 2.3904 0
M  V30 19 H 0.9823 -2.0961 -0.2613 0
M  V30 20 H 3.3467 2.2629 -0.0689 0
M  V30 21 H 3.443 -2.0086 -0.4592 0
M  V30 22 H 4.6246 0.1672 -0.3645 0
M  V30 END ATOM
M  V30 BEGIN BOND
M  V30 1 1 1 2
M  V30 2 2 2 3
M  V30 3 1 2 4
M  V30 4 1 3 5
M  V30 5 1 3 6
M  V30 6 2 4 7
M  V30 7 1 4 8
M  V30 8 1 6 9
M  V30 9 2 6 10
M  V30 10 1 7 11
M  V30 11 2 8 12
M  V30 12 1 8 13
M  V30 13 1 12 14
M  V30 14 1 12 15
M  V30 15 2 13 16
M  V30 16 2 15 17
M  V30 17 1 7 10
M  V30 18 1 16 17
M  V30 19 1 10 18
M  V30 20 1 13 19
M  V30 21 1 15 20
M  V30 22 1 16 21
M  V30 23 1 17 22
M  V30 END BOND
M  V30 BEGIN COLLECTION
M  V30 MDLV30/STEABS BONDS=(1 7)
M  V30 END COLLECTION
M  V30 END CTAB
M  END
>  <Structure No>
5236

>  <LogS>
-7.4346

>  <MMFF94 Energy>
49.683

$$$$
Compound 5237
Actelion Java MolfileCreator 2.0

  0  0  0  0  0  0              0 V3000
M  V30 BEGIN CTAB
M  V30 COUNTS 38 39 0 0 0
M  V30 BEGIN ATOM
M  V30 1 Cl 5.7079 2.9714 -0.8024 0
M  V30 2 C 4.3494 1.8909 -0.5502 0
M  V30 3 C 4.0401 0.92 -1.5068 0
M  V30 4 C 3.5748 1.9983 0.6087 0
M  V30 5 C 2.9572 0.0593 -1.3059 0
M  V30 6 C 2.4909 1.1384 0.8121 0
M  V30 7 C 2.1705 0.1604 -0.1515 0
M  V30 8 O 1.0941 -0.731 -0.0092 0
M  V30 9 C 0.0984 -0.6964 1.0188 0 CFG=2
M  V30 10 N -0.5871 -1.9881 1.1033 0
M  V30 11 C -0.8994 0.4868 0.8141 0 CFG=2
M  V30 12 N -1.4459 -2.3096 2.0538 0
M  V30 13 C -0.3972 -3.0727 0.329 0
M  V30 14 O -1.6937 0.626 1.9677 0
M  V30 15 C -1.8245 0.465 -0.4612 0
M  V30 16 C -1.7847 -3.5922 1.8222 0
M  V30 17 N -1.1469 -4.1093 0.7495 0
M  V30 18 C -1.0157 0.2298 -1.7547 0
M  V30 19 C -2.9412 -0.6012 -0.368 0
M  V30 20 C -2.5065 1.8494 -0.5801 0
M  V30 21 H 4.6367 0.8314 -2.4056 0
M  V30 22 H 3.8121 2.7474 1.3534 0
M  V30 23 H 2.7236 -0.6882 -2.0534 0
M  V30 24 H 1.9163 1.2466 1.7203 0
M  V30 25 H 0.6144 -0.5561 1.993 0
M  V30 26 H -0.2714 1.403 0.7204 0
M  V30 27 H 0.2703 -3.1174 -0.5213 0
M  V30 28 H -1.1195 1.0208 2.6754 0
M  V30 29 H -2.4835 -4.1485 2.432 0
M  V30 30 H -0.1685 0.9454 -1.8239 0
M  V30 31 H -0.6219 -0.8066 -1.7994 0
M  V30 32 H -1.6588 0.3697 -2.6505 0
M  V30 33 H -2.5426 -1.6257 -0.4862 0
M  V30 34 H -3.4847 -0.5344 0.5979 0
M  V30 35 H -3.6829 -0.4601 -1.1839 0
M  V30 36 H -3.1313 2.0617 0.314 0
M  V30 37 H -3.1659 1.8955 -1.4741 0
M  V30 38 H -1.7485 2.6568 -0.6756 0
M  V30 END ATOM
M  V30 BEGIN BOND
M  V30 1 1 1 2
M  V30 2 2 2 3
M  V30 3 1 2 4
M  V30 4 1 3 5
M  V30 5 2 4 6
M  V30 6 2 5 7
M  V30 7 1 7 8
M  V30 8 1 8 9
M  V30 9 1 9 10
M  V30 10 1 9 11
M  V30 11 1 10 12
M  V30 12 1 10 13
M  V30 13 1 11 14
M  V30 14 1 11 15
M  V30 15 2 12 16
M  V30 16 2 13 17
M  V30 17 1 15 18
M  V30 18 1 15 19
M  V30 19 1 15 20
M  V30 20 1 6 7
M  V30 21 1 16 17
M  V30 22 1 3 21
M  V30 23 1 4 22
M  V30 24 1 5 23
M  V30 25 1 6 24
M  V30 26 1 9 25
M  V30 27 1 11 26
M  V30 28 1 13 27
M  V30 29 1 14 28
M  V30 30 1 16 29
M  V30 31 1 18 30
M  V30 32 1 18 31
M  V30 33 1 18 32
M  V30 34 1 19 33
M  V30 35 1 19 34
M  V30 36 1 19 35
M  V30 37 1 20 36
M  V30 38 1 20 37
M  V30 39 1 20 38
M  V30 END BOND
M  V30 BEGIN COLLECTION
M  V30 MDLV30/STEABS ATOMS=(2 9 11)
M  V30 END COLLECTION
M  V30 END CTAB
M  END
>  <Structure No>
5237

>  <LogS>
-3.3918

>  <MMFF94 Energy>
86.657

$$$$
Compound 5238
Actelion Java MolfileCreator 2.0

  0  0  0  0  0  0              0 V3000
M  V30 BEGIN CTAB
M  V30 COUNTS 44 45 0 0 0
M  V30 BEGIN ATOM
M  V30 1 O 1.0276 -2.2144 2.4519 0
M  V30 2 C 0.0397 -1.8356 1.7606 0
M  V30 3 N 0.1853 -0.7834 0.87 0
M  V30 4 N -1.1717 -2.4767 1.903 0
M  V30 5 C -0.8812 -0.3751 0.1001 0
M  V30 6 C 1.4989 -0.1294 0.7063 0
M  V30 7 C -2.2205 -2.0337 1.1581 0
M  V30 8 C -1.3466 -3.5602 2.8798 0
M  V30 9 O -0.7598 0.5606 -0.7368 0
M  V30 10 C -2.1006 -1.0219 0.2674 0
M  V30 11 C 2.308 -0.8351 -0.3908 0
M  V30 12 N -3.4858 -2.4974 1.19 0
M  V30 13 N -3.296 -0.8137 -0.3155 0
M  V30 14 C 3.7366 -0.2853 -0.524 0
M  V30 15 C -4.1165 -1.7182 0.2743 0
M  V30 16 C -3.691 0.2085 -1.2849 0
M  V30 17 C 3.7747 1.1095 -1.1646 0
M  V30 18 C -3.9811 1.5318 -0.5713 0
M  V30 19 C 5.1944 1.5619 -1.3715 0
M  V30 20 C -4.3806 2.6189 -1.5642 0
M  V30 21 O 5.9028 0.986 -2.1836 0
M  V30 22 C 5.7388 2.7304 -0.6067 0
M  V30 23 H 1.3637 0.9439 0.4549 0
M  V30 24 H 2.0654 -0.1437 1.6632 0
M  V30 25 H -0.455 -4.2229 2.8918 0
M  V30 26 H -2.2208 -4.1974 2.6274 0
M  V30 27 H -1.4952 -3.128 3.8917 0
M  V30 28 H 1.7771 -0.7513 -1.3641 0
M  V30 29 H 2.3759 -1.916 -0.1393 0
M  V30 30 H 4.226 -0.2567 0.4744 0
M  V30 31 H 4.3148 -0.9898 -1.1617 0
M  V30 32 H -5.1715 -1.8074 0.0485 0
M  V30 33 H -4.6031 -0.1274 -1.8257 0
M  V30 34 H -2.8908 0.3414 -2.0435 0
M  V30 35 H 3.2564 1.0919 -2.1478 0
M  V30 36 H 3.2492 1.8379 -0.5116 0
M  V30 37 H -3.0789 1.865 -0.0147 0
M  V30 38 H -4.8068 1.3849 0.1584 0
M  V30 39 H -3.5582 2.7999 -2.2886 0
M  V30 40 H -4.5871 3.5633 -1.0179 0
M  V30 41 H -5.2972 2.3196 -2.1158 0
M  V30 42 H 6.8082 2.8994 -0.8561 0
M  V30 43 H 5.6521 2.5353 0.4826 0
M  V30 44 H 5.162 3.6439 -0.8618 0
M  V30 END ATOM
M  V30 BEGIN BOND
M  V30 1 2 1 2
M  V30 2 1 2 3
M  V30 3 1 2 4
M  V30 4 1 3 5
M  V30 5 1 3 6
M  V30 6 1 4 7
M  V30 7 1 4 8
M  V30 8 2 5 9
M  V30 9 1 5 10
M  V30 10 1 6 11
M  V30 11 1 7 12
M  V30 12 1 10 13
M  V30 13 1 11 14
M  V30 14 2 12 15
M  V30 15 1 13 16
M  V30 16 1 14 17
M  V30 17 1 16 18
M  V30 18 1 17 19
M  V30 19 1 18 20
M  V30 20 2 19 21
M  V30 21 1 19 22
M  V30 22 2 7 10
M  V30 23 1 13 15
M  V30 24 1 6 23
M  V30 25 1 6 24
M  V30 26 1 8 25
M  V30 27 1 8 26
M  V30 28 1 8 27
M  V30 29 1 11 28
M  V30 30 1 11 29
M  V30 31 1 14 30
M  V30 32 1 14 31
M  V30 33 1 15 32
M  V30 34 1 16 33
M  V30 35 1 16 34
M  V30 36 1 17 35
M  V30 37 1 17 36
M  V30 38 1 18 37
M  V30 39 1 18 38
M  V30 40 1 20 39
M  V30 41 1 20 40
M  V30 42 1 20 41
M  V30 43 1 22 42
M  V30 44 1 22 43
M  V30 45 1 22 44
M  V30 END BOND
M  V30 END CTAB
M  END
>  <Structure No>
5238

>  <LogS>
-0.9811

>  <MMFF94 Energy>
-123.88

$$$$
Compound 5239
Actelion Java MolfileCreator 2.0

  0  0  0  0  0  0              0 V3000
M  V30 BEGIN CTAB
M  V30 COUNTS 47 50 0 0 0
M  V30 BEGIN ATOM
M  V30 1 O 0.7277 1.7795 3.3184 0
M  V30 2 C 0.7538 1.0659 2.2812 0
M  V30 3 N 2.0022 0.6045 1.742 0
M  V30 4 C -0.5405 0.658 1.6423 0
M  V30 5 C 1.9454 -0.416 0.6854 0 CFG=2
M  V30 6 C 3.2836 1.0584 2.2955 0
M  V30 7 N -0.3872 0.3184 0.2111 0
M  V30 8 C 3.2993 -0.6844 0.0467 0
M  V30 9 C 0.9334 0.0346 -0.3775 0
M  V30 10 C 4.2523 1.3714 1.1607 0
M  V30 11 C -1.5412 0.2883 -0.6619 0
M  V30 12 C 4.397 0.1762 0.2649 0
M  V30 13 C 3.463 -1.8077 -0.7828 0
M  V30 14 O -1.3741 0.4001 -1.9086 0
M  V30 15 C -2.9475 0.0541 -0.1396 0
M  V30 16 C 5.6186 -0.0719 -0.3821 0
M  V30 17 C 4.6883 -2.056 -1.4072 0
M  V30 18 C -3.8809 1.2281 -0.5468 0
M  V30 19 C -3.4747 -1.3331 -0.6048 0
M  V30 20 C 5.7625 -1.1858 -1.2125 0
M  V30 21 C -5.354 0.8034 -0.5349 0
M  V30 22 C -4.3979 -1.2231 -1.8247 0
M  V30 23 C -5.6395 -0.369 -1.513 0
M  V30 24 H -0.9407 -0.2205 2.1894 0
M  V30 25 H -1.252 1.5053 1.7467 0
M  V30 26 H 1.5798 -1.3652 1.1379 0
M  V30 27 H 3.7051 0.2607 2.9448 0
M  V30 28 H 3.156 1.9756 2.9103 0
M  V30 29 H 1.3051 0.947 -0.8894 0
M  V30 30 H 0.8322 -0.7724 -1.1339 0
M  V30 31 H 5.2342 1.657 1.5952 0
M  V30 32 H 3.8683 2.2266 0.5652 0
M  V30 33 H 2.6379 -2.4897 -0.9507 0
M  V30 34 H -2.9386 0.0228 0.9707 0
M  V30 35 H 6.461 0.5929 -0.238 0
M  V30 36 H 4.8032 -2.9211 -2.0485 0
M  V30 37 H -3.7367 2.072 0.1669 0
M  V30 38 H -3.637 1.611 -1.5642 0
M  V30 39 H -4.0497 -1.8064 0.2217 0
M  V30 40 H -2.6331 -2.0215 -0.8349 0
M  V30 41 H 6.7085 -1.3771 -1.7045 0
M  V30 42 H -5.9936 1.6789 -0.8064 0
M  V30 43 H -5.6251 0.4948 0.5042 0
M  V30 44 H -4.7201 -2.2411 -2.1412 0
M  V30 45 H -3.8357 -0.7673 -2.6679 0
M  V30 46 H -6.4254 -1.0246 -1.0657 0
M  V30 47 H -6.0504 0.0293 -2.4745 0
M  V30 END ATOM
M  V30 BEGIN BOND
M  V30 1 2 1 2
M  V30 2 1 2 3
M  V30 3 1 2 4
M  V30 4 1 3 5
M  V30 5 1 3 6
M  V30 6 1 4 7
M  V30 7 1 5 8
M  V30 8 1 5 9
M  V30 9 1 6 10
M  V30 10 1 7 11
M  V30 11 2 8 12
M  V30 12 1 8 13
M  V30 13 2 11 14
M  V30 14 1 11 15
M  V30 15 1 12 16
M  V30 16 2 13 17
M  V30 17 1 15 18
M  V30 18 1 15 19
M  V30 19 2 16 20
M  V30 20 1 18 21
M  V30 21 1 19 22
M  V30 22 1 21 23
M  V30 23 1 7 9
M  V30 24 1 10 12
M  V30 25 1 17 20
M  V30 26 1 22 23
M  V30 27 1 4 24
M  V30 28 1 4 25
M  V30 29 1 5 26
M  V30 30 1 6 27
M  V30 31 1 6 28
M  V30 32 1 9 29
M  V30 33 1 9 30
M  V30 34 1 10 31
M  V30 35 1 10 32
M  V30 36 1 13 33
M  V30 37 1 15 34
M  V30 38 1 16 35
M  V30 39 1 17 36
M  V30 40 1 18 37
M  V30 41 1 18 38
M  V30 42 1 19 39
M  V30 43 1 19 40
M  V30 44 1 20 41
M  V30 45 1 21 42
M  V30 46 1 21 43
M  V30 47 1 22 44
M  V30 48 1 22 45
M  V30 49 1 23 46
M  V30 50 1 23 47
M  V30 END BOND
M  V30 BEGIN COLLECTION
M  V30 MDLV30/STEABS ATOMS=(1 5)
M  V30 END COLLECTION
M  V30 END CTAB
M  END
>  <Structure No>
5239

>  <LogS>
-2.8927

>  <MMFF94 Energy>
78.656

$$$$
Compound 5240
Actelion Java MolfileCreator 2.0

  0  0  0  0  0  0              0 V3000
M  V30 BEGIN CTAB
M  V30 COUNTS 22 22 0 0 0
M  V30 BEGIN ATOM
M  V30 1 S 0.1711 -1.7979 0.0 0
M  V30 2 O 0.5054 -2.393 1.3389 0
M  V30 3 O -0.5638 -2.8151 -0.8267 0
M  V30 4 C -0.8648 -0.3795 0.2405 0
M  V30 5 C 1.6811 -1.3855 -0.8468 0
M  V30 6 C -0.4018 0.8921 0.0971 0
M  V30 7 C -2.2948 -0.6458 0.6456 0
M  V30 8 C 2.3271 -0.1777 -0.1927 0
M  V30 9 S 1.2716 1.2443 -0.3697 0
M  V30 10 C -1.3117 2.0795 0.3032 0
M  V30 11 O 1.2953 1.6986 -1.8019 0
M  V30 12 O 1.8123 2.3381 0.5077 0
M  V30 13 H 1.4628 -1.1735 -1.9153 0
M  V30 14 H 2.3738 -2.2517 -0.7938 0
M  V30 15 H -2.9899 -0.2483 -0.123 0
M  V30 16 H -2.4849 -1.7344 0.7489 0
M  V30 17 H -2.5101 -0.1715 1.626 0
M  V30 18 H 2.5084 -0.3749 0.8854 0
M  V30 19 H 3.302 0.0323 -0.681 0
M  V30 20 H -2.1722 2.0286 -0.396 0
M  V30 21 H -1.6808 2.1007 1.3499 0
M  V30 22 H -0.7759 3.0321 0.1098 0
M  V30 END ATOM
M  V30 BEGIN BOND
M  V30 1 2 1 2
M  V30 2 2 1 3
M  V30 3 1 1 4
M  V30 4 1 1 5
M  V30 5 2 4 6
M  V30 6 1 4 7
M  V30 7 1 5 8
M  V30 8 1 6 9
M  V30 9 1 6 10
M  V30 10 2 9 11
M  V30 11 2 9 12
M  V30 12 1 8 9
M  V30 13 1 5 13
M  V30 14 1 5 14
M  V30 15 1 7 15
M  V30 16 1 7 16
M  V30 17 1 7 17
M  V30 18 1 8 18
M  V30 19 1 8 19
M  V30 20 1 10 20
M  V30 21 1 10 21
M  V30 22 1 10 22
M  V30 END BOND
M  V30 END CTAB
M  END
>  <Structure No>
5240

>  <LogS>
-1.66

>  <MMFF94 Energy>
-30.458

$$$$
Compound 5241
Actelion Java MolfileCreator 2.0

  0  0  0  0  0  0              0 V3000
M  V30 BEGIN CTAB
M  V30 COUNTS 22 23 0 0 0
M  V30 BEGIN ATOM
M  V30 1 Cl 3.7183 0.3537 2.6549 0
M  V30 2 C 2.7975 0.0507 1.1801 0
M  V30 3 C 3.4631 -0.3414 0.0035 0
M  V30 4 C 1.3977 0.2047 1.1794 0
M  V30 5 Cl 5.2165 -0.5374 -0.0033 0
M  V30 6 C 2.7277 -0.5734 -1.1704 0
M  V30 7 Cl 0.5656 0.7336 2.6455 0
M  V30 8 C 0.6667 -0.0421 2.0E-4 0
M  V30 9 Cl 3.5191 -1.0595 -2.6644 0
M  V30 10 C 1.3398 -0.4208 -1.1673 0
M  V30 11 C -0.8025 0.1018 -0.0368 0
M  V30 12 C -1.6478 -0.8628 0.5495 0
M  V30 13 C -1.3663 1.2135 -0.6825 0
M  V30 14 Cl -0.9986 -2.3012 1.3298 0
M  V30 15 C -3.0369 -0.6947 0.4966 0
M  V30 16 C -2.7538 1.3724 -0.7299 0
M  V30 17 C -3.5879 0.4209 -0.1391 0
M  V30 18 H 0.7806 -0.6052 -2.0771 0
M  V30 19 H -0.7301 1.9594 -1.143 0
M  V30 20 H -3.6915 -1.4315 0.9445 0
M  V30 21 H -3.1827 2.234 -1.2251 0
M  V30 22 H -4.6624 0.5455 -0.1775 0
M  V30 END ATOM
M  V30 BEGIN BOND
M  V30 1 1 1 2
M  V30 2 2 2 3
M  V30 3 1 2 4
M  V30 4 1 3 5
M  V30 5 1 3 6
M  V30 6 1 4 7
M  V30 7 2 4 8
M  V30 8 1 6 9
M  V30 9 2 6 10
M  V30 10 1 8 11
M  V30 11 2 11 12
M  V30 12 1 11 13
M  V30 13 1 12 14
M  V30 14 1 12 15
M  V30 15 2 13 16
M  V30 16 2 15 17
M  V30 17 1 8 10
M  V30 18 1 16 17
M  V30 19 1 10 18
M  V30 20 1 13 19
M  V30 21 1 15 20
M  V30 22 1 16 21
M  V30 23 1 17 22
M  V30 END BOND
M  V30 END CTAB
M  END
>  <Structure No>
5241

>  <LogS>
-7.5226

>  <MMFF94 Energy>
58.908

$$$$
Compound 5242
Actelion Java MolfileCreator 2.0

  0  0  0  0  0  0              0 V3000
M  V30 BEGIN CTAB
M  V30 COUNTS 17 17 0 0 0
M  V30 BEGIN ATOM
M  V30 1 Cl -2.9853 -1.4919 -1.9309 0
M  V30 2 C -2.1396 -0.5458 -0.7174 0
M  V30 3 N -0.7799 -0.5469 -0.7156 0
M  V30 4 C -2.8374 0.2043 0.2415 0
M  V30 5 C -0.0552 0.1625 0.1945 0
M  V30 6 Cl -4.5948 0.2394 0.2822 0
M  V30 7 C -2.1148 0.9397 1.1849 0
M  V30 8 O 1.3429 0.1378 0.1663 0
M  V30 9 C -0.718 0.9225 1.1662 0
M  V30 10 C 2.082 -0.6114 -0.7913 0
M  V30 11 Cl 0.1836 1.8492 2.355 0
M  V30 12 C 3.5405 -0.4194 -0.5468 0
M  V30 13 O 4.1467 -1.1559 0.2747 0
M  V30 14 O 4.2229 0.6091 -1.1838 0 CHG=-1
M  V30 15 H -2.638 1.5238 1.9317 0
M  V30 16 H 1.8268 -1.6901 -0.7046 0
M  V30 17 H 1.8305 -0.2633 -1.8164 0
M  V30 END ATOM
M  V30 BEGIN BOND
M  V30 1 1 1 2
M  V30 2 2 2 3
M  V30 3 1 2 4
M  V30 4 1 3 5
M  V30 5 1 4 6
M  V30 6 2 4 7
M  V30 7 1 5 8
M  V30 8 2 5 9
M  V30 9 1 8 10
M  V30 10 1 9 11
M  V30 11 1 10 12
M  V30 12 2 12 13
M  V30 13 1 12 14
M  V30 14 1 7 9
M  V30 15 1 7 15
M  V30 16 1 10 16
M  V30 17 1 10 17
M  V30 END BOND
M  V30 END CTAB
M  END
>  <Structure No>
5242

>  <LogS>
-2.7656

>  <MMFF94 Energy>
74.908

$$$$
Compound 5243
Actelion Java MolfileCreator 2.0

  0  0  0  0  0  0              0 V3000
M  V30 BEGIN CTAB
M  V30 COUNTS 33 34 0 0 0
M  V30 BEGIN ATOM
M  V30 1 S -0.7293 -0.7293 -0.4051 0
M  V30 2 C 0.4381 0.2962 0.2428 0
M  V30 3 C -1.9489 0.3938 -0.0705 0
M  V30 4 N -0.1084 1.4525 0.676 0
M  V30 5 N 1.8398 0.0013 0.3198 0
M  V30 6 N -1.4271 1.5088 0.4961 0
M  V30 7 C -3.4114 0.2342 -0.4431 0
M  V30 8 C 2.8527 0.8686 0.7883 0
M  V30 9 C 2.4787 -1.2249 -0.1561 0 CFG=2
M  V30 10 C -3.5566 0.366 -1.9694 0
M  V30 11 C -4.2662 1.3204 0.2428 0
M  V30 12 C -3.9164 -1.1506 0.0067 0
M  V30 13 O 2.6362 2.0152 1.2645 0
M  V30 14 N 4.1391 0.3078 0.6574 0
M  V30 15 O 2.0183 -2.3171 0.5937 0
M  V30 16 C 4.0056 -1.0148 0.0595 0
M  V30 17 C 5.3919 0.9499 1.0335 0
M  V30 18 H 2.2523 -1.3649 -1.2385 0
M  V30 19 H -3.1884 1.3576 -2.3118 0
M  V30 20 H -4.6212 0.264 -2.2722 0
M  V30 21 H -2.9709 -0.4217 -2.4905 0
M  V30 22 H -3.9518 2.3353 -0.084 0
M  V30 23 H -4.1625 1.2586 1.348 0
M  V30 24 H -5.3406 1.1954 -0.0134 0
M  V30 25 H -3.3673 -1.9642 -0.5138 0
M  V30 26 H -3.7772 -1.2784 1.1022 0
M  V30 27 H -4.9973 -1.268 -0.2246 0
M  V30 28 H 2.313 -3.1324 0.1104 0
M  V30 29 H 4.5423 -1.043 -0.913 0
M  V30 30 H 4.4319 -1.7807 0.7432 0
M  V30 31 H 6.2493 0.2812 0.8084 0
M  V30 32 H 5.5125 1.8951 0.4641 0
M  V30 33 H 5.3846 1.1733 2.1208 0
M  V30 END ATOM
M  V30 BEGIN BOND
M  V30 1 1 1 2
M  V30 2 1 1 3
M  V30 3 2 2 4
M  V30 4 1 2 5
M  V30 5 2 3 6
M  V30 6 1 3 7
M  V30 7 1 5 8
M  V30 8 1 5 9
M  V30 9 1 7 10
M  V30 10 1 7 11
M  V30 11 1 7 12
M  V30 12 2 8 13
M  V30 13 1 8 14
M  V30 14 1 9 15
M  V30 15 1 9 16
M  V30 16 1 14 17
M  V30 17 1 4 6
M  V30 18 1 14 16
M  V30 19 1 9 18
M  V30 20 1 10 19
M  V30 21 1 10 20
M  V30 22 1 10 21
M  V30 23 1 11 22
M  V30 24 1 11 23
M  V30 25 1 11 24
M  V30 26 1 12 25
M  V30 27 1 12 26
M  V30 28 1 12 27
M  V30 29 1 15 28
M  V30 30 1 16 29
M  V30 31 1 16 30
M  V30 32 1 17 31
M  V30 33 1 17 32
M  V30 34 1 17 33
M  V30 END BOND
M  V30 BEGIN COLLECTION
M  V30 MDLV30/STEABS ATOMS=(1 9)
M  V30 END COLLECTION
M  V30 END CTAB
M  END
>  <Structure No>
5243

>  <LogS>
-1.8773

>  <MMFF94 Energy>
-54.281

$$$$
Compound 5244
Actelion Java MolfileCreator 2.0

  0  0  0  0  0  0              0 V3000
M  V30 BEGIN CTAB
M  V30 COUNTS 48 49 0 0 0
M  V30 BEGIN ATOM
M  V30 1 Cl -1.8698 0.7313 5.4542 0
M  V30 2 C -2.7499 0.5937 3.9458 0
M  V30 3 N -3.9941 1.1236 3.837 0
M  V30 4 C -2.1783 -0.0456 2.8488 0
M  V30 5 N -4.694 1.0289 2.7056 0
M  V30 6 C -2.8872 -0.1185 1.6499 0
M  V30 7 C -4.1974 0.4071 1.6007 0
M  V30 8 O -2.2663 -0.7083 0.5427 0
M  V30 9 C -5.0684 0.2741 0.4109 0
M  V30 10 C -2.1019 -0.0628 -0.6872 0
M  V30 11 C -5.1656 -0.9457 -0.2835 0
M  V30 12 C -5.8487 1.3646 -0.0102 0
M  V30 13 S -1.4268 -0.972 -2.0731 0
M  V30 14 O -2.404 1.1526 -0.8296 0
M  V30 15 C -6.0022 -1.0589 -1.3978 0
M  V30 16 C -6.6841 1.2467 -1.1253 0
M  V30 17 C 0.31 -0.5408 -1.7051 0
M  V30 18 C -6.7585 0.037 -1.8203 0
M  V30 19 C 0.868 -1.4358 -0.5919 0
M  V30 20 C 2.368 -1.2095 -0.3496 0
M  V30 21 C 2.6595 0.1546 0.3006 0
M  V30 22 C 4.1112 0.2776 0.7898 0
M  V30 23 C 5.1196 0.3511 -0.3662 0
M  V30 24 C 6.5379 0.6024 0.1587 0
M  V30 25 C 7.5463 0.666 -0.9847 0
M  V30 26 H -1.1784 -0.4557 2.9153 0
M  V30 27 H -4.6044 -1.8124 0.0421 0
M  V30 28 H -5.7997 2.3106 0.5151 0
M  V30 29 H -6.0685 -1.9987 -1.9305 0
M  V30 30 H -7.2747 2.0936 -1.4503 0
M  V30 31 H 0.3801 0.5317 -1.4261 0
M  V30 32 H 0.9008 -0.6948 -2.6329 0
M  V30 33 H -7.4062 -0.0525 -2.6827 0
M  V30 34 H 0.3098 -1.2668 0.3533 0
M  V30 35 H 0.7198 -2.4981 -0.8841 0
M  V30 36 H 2.9133 -1.3007 -1.3132 0
M  V30 37 H 2.7309 -2.0167 0.3234 0
M  V30 38 H 2.4432 0.9757 -0.4157 0
M  V30 39 H 1.9909 0.2877 1.1795 0
M  V30 40 H 4.1906 1.2069 1.3957 0
M  V30 41 H 4.3586 -0.579 1.4545 0
M  V30 42 H 4.8327 1.1751 -1.0563 0
M  V30 43 H 5.1104 -0.6053 -0.9312 0
M  V30 44 H 6.8312 -0.2158 0.8519 0
M  V30 45 H 6.5672 1.5638 0.7165 0
M  V30 46 H 7.557 -0.2939 -1.5437 0
M  V30 47 H 8.5618 0.8492 -0.5748 0
M  V30 48 H 7.2893 1.4931 -1.6803 0
M  V30 END ATOM
M  V30 BEGIN BOND
M  V30 1 1 1 2
M  V30 2 2 2 3
M  V30 3 1 2 4
M  V30 4 1 3 5
M  V30 5 2 4 6
M  V30 6 2 5 7
M  V30 7 1 6 8
M  V30 8 1 7 9
M  V30 9 1 8 10
M  V30 10 2 9 11
M  V30 11 1 9 12
M  V30 12 1 10 13
M  V30 13 2 10 14
M  V30 14 1 11 15
M  V30 15 2 12 16
M  V30 16 1 13 17
M  V30 17 2 15 18
M  V30 18 1 17 19
M  V30 19 1 19 20
M  V30 20 1 20 21
M  V30 21 1 21 22
M  V30 22 1 22 23
M  V30 23 1 23 24
M  V30 24 1 24 25
M  V30 25 1 6 7
M  V30 26 1 16 18
M  V30 27 1 4 26
M  V30 28 1 11 27
M  V30 29 1 12 28
M  V30 30 1 15 29
M  V30 31 1 16 30
M  V30 32 1 17 31
M  V30 33 1 17 32
M  V30 34 1 18 33
M  V30 35 1 19 34
M  V30 36 1 19 35
M  V30 37 1 20 36
M  V30 38 1 20 37
M  V30 39 1 21 38
M  V30 40 1 21 39
M  V30 41 1 22 40
M  V30 42 1 22 41
M  V30 43 1 23 42
M  V30 44 1 23 43
M  V30 45 1 24 44
M  V30 46 1 24 45
M  V30 47 1 25 46
M  V30 48 1 25 47
M  V30 49 1 25 48
M  V30 END BOND
M  V30 END CTAB
M  END
>  <Structure No>
5244

>  <LogS>
-5.4025

>  <MMFF94 Energy>
51.059

$$$$
Compound 5245
Actelion Java MolfileCreator 2.0

  0  0  0  0  0  0              0 V3000
M  V30 BEGIN CTAB
M  V30 COUNTS 23 24 0 0 0
M  V30 BEGIN ATOM
M  V30 1 Cl 4.8929 1.2422 1.6566 0
M  V30 2 C 3.553 0.4736 0.8165 0
M  V30 3 C 3.6891 -0.8007 0.2406 0
M  V30 4 C 2.3321 1.1526 0.7231 0
M  V30 5 Cl 5.2047 -1.6871 0.3336 0
M  V30 6 C 2.6053 -1.3788 -0.4289 0
M  V30 7 C 1.2397 0.5682 0.072 0
M  V30 8 C 1.3882 -0.6983 -0.5195 0
M  V30 9 O 0.0399 1.2901 -0.0111 0
M  V30 10 C -1.2447 0.7295 -0.0648 0
M  V30 11 C -2.2547 1.4257 -0.7408 0
M  V30 12 C -1.5564 -0.4824 0.5794 0
M  V30 13 C -3.5517 0.9065 -0.803 0
M  V30 14 C -2.8543 -0.9991 0.5159 0
M  V30 15 C -3.8506 -0.3071 -0.178 0
M  V30 16 H 2.2272 2.1357 1.1649 0
M  V30 17 H 2.7068 -2.3547 -0.8864 0
M  V30 18 H 0.5719 -1.1511 -1.0666 0
M  V30 19 H -2.0312 2.3678 -1.2252 0
M  V30 20 H -0.8045 -1.0163 1.1454 0
M  V30 21 H -4.3253 1.4459 -1.334 0
M  V30 22 H -3.0895 -1.9323 1.011 0
M  V30 23 H -4.855 -0.7073 -0.2253 0
M  V30 END ATOM
M  V30 BEGIN BOND
M  V30 1 1 1 2
M  V30 2 2 2 3
M  V30 3 1 2 4
M  V30 4 1 3 5
M  V30 5 1 3 6
M  V30 6 2 4 7
M  V30 7 2 6 8
M  V30 8 1 7 9
M  V30 9 1 9 10
M  V30 10 2 10 11
M  V30 11 1 10 12
M  V30 12 1 11 13
M  V30 13 2 12 14
M  V30 14 2 13 15
M  V30 15 1 7 8
M  V30 16 1 14 15
M  V30 17 1 4 16
M  V30 18 1 6 17
M  V30 19 1 8 18
M  V30 20 1 11 19
M  V30 21 1 12 20
M  V30 22 1 13 21
M  V30 23 1 14 22
M  V30 24 1 15 23
M  V30 END BOND
M  V30 END CTAB
M  END
>  <Structure No>
5245

>  <LogS>
-4.7206

>  <MMFF94 Energy>
44.909

$$$$
Compound 5246
Actelion Java MolfileCreator 2.0

  0  0  0  0  0  0              0 V3000
M  V30 BEGIN CTAB
M  V30 COUNTS 22 23 0 0 0
M  V30 BEGIN ATOM
M  V30 1 Cl -3.8173 0.4236 2.5437 0
M  V30 2 C -2.8607 0.1616 1.0845 0
M  V30 3 C -1.4531 0.2108 1.1388 0
M  V30 4 C -3.5062 -0.0902 -0.1387 0
M  V30 5 Cl -0.6522 0.5998 2.6654 0
M  V30 6 C -0.6965 -0.0011 -0.0364 0
M  V30 7 Cl -5.2606 -0.1604 -0.2508 0
M  V30 8 C -2.753 -0.284 -1.2982 0
M  V30 9 C 0.7833 0.0216 -0.0254 0
M  V30 10 C -1.3607 -0.2377 -1.2495 0
M  V30 11 C 1.5051 -0.8727 0.7835 0
M  V30 12 C 1.4818 0.9135 -0.8568 0
M  V30 13 C 2.9033 -0.8586 0.7755 0
M  V30 14 C 2.88 0.9242 -0.8616 0
M  V30 15 C 3.5901 0.0402 -0.0446 0
M  V30 16 H -3.2478 -0.4747 -2.2421 0
M  V30 17 H -0.7967 -0.4004 -2.1601 0
M  V30 18 H 0.9856 -1.585 1.4126 0
M  V30 19 H 0.9436 1.6049 -1.4937 0
M  V30 20 H 3.4542 -1.5478 1.4024 0
M  V30 21 H 3.413 1.6173 -1.4995 0
M  V30 22 H 4.6723 0.0492 -0.0503 0
M  V30 END ATOM
M  V30 BEGIN BOND
M  V30 1 1 1 2
M  V30 2 2 2 3
M  V30 3 1 2 4
M  V30 4 1 3 5
M  V30 5 1 3 6
M  V30 6 1 4 7
M  V30 7 2 4 8
M  V30 8 1 6 9
M  V30 9 2 6 10
M  V30 10 2 9 11
M  V30 11 1 9 12
M  V30 12 1 11 13
M  V30 13 2 12 14
M  V30 14 2 13 15
M  V30 15 1 8 10
M  V30 16 1 14 15
M  V30 17 1 8 16
M  V30 18 1 10 17
M  V30 19 1 11 18
M  V30 20 1 12 19
M  V30 21 1 13 20
M  V30 22 1 14 21
M  V30 23 1 15 22
M  V30 END BOND
M  V30 END CTAB
M  END
>  <Structure No>
5246

>  <LogS>
-6.1799

>  <MMFF94 Energy>
55.978

$$$$
Compound 5247
Actelion Java MolfileCreator 2.0

  0  0  0  0  0  0              0 V3000
M  V30 BEGIN CTAB
M  V30 COUNTS 18 19 0 0 0
M  V30 BEGIN ATOM
M  V30 1 Cl 1.1174 3.1826 -0.2577 0
M  V30 2 C 1.1538 1.4266 -0.1112 0
M  V30 3 C -0.0249 0.6495 -0.0415 0
M  V30 4 C 2.4049 0.8006 -0.0638 0
M  V30 5 C 0.0804 -0.7616 0.0759 0
M  V30 6 C -1.3049 1.2372 -0.0854 0
M  V30 7 C 2.501 -0.5878 0.0518 0
M  V30 8 C 1.3446 -1.3674 0.1216 0
M  V30 9 C -1.0807 -1.5467 0.146 0
M  V30 10 C -2.4531 0.4412 -0.0144 0
M  V30 11 Cl 4.0783 -1.354 0.1095 0
M  V30 12 C -2.34 -0.9461 0.101 0
M  V30 13 Cl -4.0405 1.1866 -0.0703 0
M  V30 14 H 3.3075 1.3967 -0.1171 0
M  V30 15 H -1.4257 2.3087 -0.1744 0
M  V30 16 H 1.4342 -2.4438 0.2111 0
M  V30 17 H -1.0143 -2.6247 0.2359 0
M  V30 18 H -3.2293 -1.5613 0.1559 0
M  V30 END ATOM
M  V30 BEGIN BOND
M  V30 1 1 1 2
M  V30 2 1 2 3
M  V30 3 2 2 4
M  V30 4 1 3 5
M  V30 5 2 3 6
M  V30 6 1 4 7
M  V30 7 1 5 8
M  V30 8 2 5 9
M  V30 9 1 6 10
M  V30 10 1 7 11
M  V30 11 1 9 12
M  V30 12 1 10 13
M  V30 13 2 7 8
M  V30 14 2 10 12
M  V30 15 1 4 14
M  V30 16 1 6 15
M  V30 17 1 8 16
M  V30 18 1 9 17
M  V30 19 1 12 18
M  V30 END BOND
M  V30 END CTAB
M  END
>  <Structure No>
5247

>  <LogS>
-6.5557

>  <MMFF94 Energy>
19.903

$$$$
Compound 5248
Actelion Java MolfileCreator 2.0

  0  0  0  0  0  0              0 V3000
M  V30 BEGIN CTAB
M  V30 COUNTS 18 19 0 0 0
M  V30 BEGIN ATOM
M  V30 1 Cl -3.8713 1.6332 0.4296 0
M  V30 2 C -2.3907 0.7075 0.2208 0
M  V30 3 C -2.4208 -0.6905 0.0816 0
M  V30 4 C -1.1671 1.3867 0.1946 0
M  V30 5 Cl -3.9406 -1.5752 0.1101 0
M  V30 6 C -1.2273 -1.4027 -0.0832 0
M  V30 7 C 0.0327 0.6796 0.0297 0
M  V30 8 C 0.0022 -0.7285 -0.1104 0
M  V30 9 C 1.2633 1.3544 0.0024 0
M  V30 10 C 1.2029 -1.436 -0.2753 0
M  V30 11 C 2.4538 0.6382 -0.1625 0
M  V30 12 C 2.4223 -0.7532 -0.3009 0
M  V30 13 Cl 3.9889 1.4866 -0.1958 0
M  V30 14 H -1.1551 2.4652 0.3029 0
M  V30 15 H -1.2616 -2.4807 -0.1896 0
M  V30 16 H 1.3005 2.4324 0.1088 0
M  V30 17 H 1.1983 -2.514 -0.3841 0
M  V30 18 H 3.3435 -1.3074 -0.4285 0
M  V30 END ATOM
M  V30 BEGIN BOND
M  V30 1 1 1 2
M  V30 2 1 2 3
M  V30 3 2 2 4
M  V30 4 1 3 5
M  V30 5 2 3 6
M  V30 6 1 4 7
M  V30 7 1 6 8
M  V30 8 2 7 9
M  V30 9 2 8 10
M  V30 10 1 9 11
M  V30 11 1 10 12
M  V30 12 1 11 13
M  V30 13 1 7 8
M  V30 14 2 11 12
M  V30 15 1 4 14
M  V30 16 1 6 15
M  V30 17 1 9 16
M  V30 18 1 10 17
M  V30 19 1 12 18
M  V30 END BOND
M  V30 END CTAB
M  END
>  <Structure No>
5248

>  <LogS>
-7.1419

>  <MMFF94 Energy>
28.618

$$$$
Compound 5249
Actelion Java MolfileCreator 2.0

  0  0  0  0  0  0              0 V3000
M  V30 BEGIN CTAB
M  V30 COUNTS 18 19 0 0 0
M  V30 BEGIN ATOM
M  V30 1 Cl 3.7105 -1.9424 -0.0882 0
M  V30 2 C 2.2806 -0.9193 -0.0314 0
M  V30 3 C 2.3877 0.4665 0.1448 0
M  V30 4 C 1.0217 -1.5108 -0.1657 0
M  V30 5 Cl 3.9568 1.2427 0.3171 0
M  V30 6 C 1.2357 1.2564 0.1863 0
M  V30 7 C -0.1496 -0.7301 -0.1262 0
M  V30 8 C -0.0408 0.6771 0.0527 0
M  V30 9 C -1.4282 -1.3177 -0.261 0
M  V30 10 C -1.2129 1.4664 0.0931 0
M  V30 11 Cl -1.6534 -3.0517 -0.4859 0
M  V30 12 C -2.5713 -0.5159 -0.2175 0
M  V30 13 Cl -1.1686 3.2155 0.3113 0
M  V30 14 C -2.4648 0.8618 -0.0422 0
M  V30 15 H 0.9728 -2.5831 -0.3004 0
M  V30 16 H 1.3524 2.3232 0.3237 0
M  V30 17 H -3.552 -0.9631 -0.3205 0
M  V30 18 H -3.3645 1.4637 -0.0117 0
M  V30 END ATOM
M  V30 BEGIN BOND
M  V30 1 1 1 2
M  V30 2 1 2 3
M  V30 3 2 2 4
M  V30 4 1 3 5
M  V30 5 2 3 6
M  V30 6 1 4 7
M  V30 7 1 6 8
M  V30 8 2 7 9
M  V30 9 2 8 10
M  V30 10 1 9 11
M  V30 11 1 9 12
M  V30 12 1 10 13
M  V30 13 1 10 14
M  V30 14 1 7 8
M  V30 15 2 12 14
M  V30 16 1 4 15
M  V30 17 1 6 16
M  V30 18 1 12 17
M  V30 19 1 14 18
M  V30 END BOND
M  V30 END CTAB
M  END
>  <Structure No>
5249

>  <LogS>
-7.5163

>  <MMFF94 Energy>
42.452

$$$$
Compound 5250
Actelion Java MolfileCreator 2.0

  0  0  0  0  0  0              0 V3000
M  V30 BEGIN CTAB
M  V30 COUNTS 39 40 0 0 0
M  V30 BEGIN ATOM
M  V30 1 O -2.297 -0.95 -2.0592 0
M  V30 2 C -2.3953 -0.6991 -0.8276 0
M  V30 3 N -1.2195 -0.589 -0.0071 0
M  V30 4 C -3.7388 -0.5287 -0.2373 0
M  V30 5 C 0.1228 -0.7296 -0.4998 0
M  V30 6 C -4.1027 0.6251 0.5042 0
M  V30 7 C -4.6878 -1.5448 -0.4393 0
M  V30 8 C 1.1323 0.0967 0.0156 0
M  V30 9 C 0.4596 -1.7183 -1.4393 0
M  V30 10 C -5.384 0.6954 1.0782 0
M  V30 11 C -3.1608 1.784 0.7049 0
M  V30 12 C -5.9625 -1.4481 0.1215 0
M  V30 13 C 2.4574 -0.0261 -0.4205 0
M  V30 14 C 1.7775 -1.8462 -1.8828 0
M  V30 15 C -6.307 -0.3342 0.886 0
M  V30 16 O 3.4149 0.8454 0.1247 0
M  V30 17 C 2.7735 -1.0029 -1.3845 0
M  V30 18 C 4.8226 0.8005 -0.119 0
M  V30 19 C 5.4376 2.1271 0.3228 0
M  V30 20 C 5.4581 -0.3603 0.6527 0
M  V30 21 H -1.3389 -0.3175 0.9943 0
M  V30 22 H -4.4333 -2.4252 -1.0173 0
M  V30 23 H 0.8847 0.8484 0.7553 0
M  V30 24 H -0.2856 -2.4086 -1.8105 0
M  V30 25 H -5.6751 1.5573 1.6663 0
M  V30 26 H -2.5674 1.6284 1.6295 0
M  V30 27 H -3.7263 2.7348 0.8066 0
M  V30 28 H -2.4773 1.9022 -0.1614 0
M  V30 29 H -6.682 -2.2421 -0.031 0
M  V30 30 H 2.0297 -2.6075 -2.6096 0
M  V30 31 H -7.2937 -0.265 1.3258 0
M  V30 32 H 3.7812 -1.1272 -1.7527 0
M  V30 33 H 5.0214 0.687 -1.2065 0
M  V30 34 H 5.2616 2.296 1.407 0
M  V30 35 H 4.9759 2.9619 -0.246 0
M  V30 36 H 6.5312 2.1309 0.1263 0
M  V30 37 H 5.2732 -0.2469 1.7424 0
M  V30 38 H 5.0295 -1.3287 0.3233 0
M  V30 39 H 6.5538 -0.3873 0.4716 0
M  V30 END ATOM
M  V30 BEGIN BOND
M  V30 1 2 1 2
M  V30 2 1 2 3
M  V30 3 1 2 4
M  V30 4 1 3 5
M  V30 5 2 4 6
M  V30 6 1 4 7
M  V30 7 2 5 8
M  V30 8 1 5 9
M  V30 9 1 6 10
M  V30 10 1 6 11
M  V30 11 2 7 12
M  V30 12 1 8 13
M  V30 13 2 9 14
M  V30 14 2 10 15
M  V30 15 1 13 16
M  V30 16 2 13 17
M  V30 17 1 16 18
M  V30 18 1 18 19
M  V30 19 1 18 20
M  V30 20 1 12 15
M  V30 21 1 14 17
M  V30 22 1 3 21
M  V30 23 1 7 22
M  V30 24 1 8 23
M  V30 25 1 9 24
M  V30 26 1 10 25
M  V30 27 1 11 26
M  V30 28 1 11 27
M  V30 29 1 11 28
M  V30 30 1 12 29
M  V30 31 1 14 30
M  V30 32 1 15 31
M  V30 33 1 17 32
M  V30 34 1 18 33
M  V30 35 1 19 34
M  V30 36 1 19 35
M  V30 37 1 19 36
M  V30 38 1 20 37
M  V30 39 1 20 38
M  V30 40 1 20 39
M  V30 END BOND
M  V30 END CTAB
M  END
>  <Structure No>
5250

>  <LogS>
-4.3265

>  <MMFF94 Energy>
43.807

$$$$
Compound 5251
Actelion Java MolfileCreator 2.0

  0  0  0  0  0  0              0 V3000
M  V30 BEGIN CTAB
M  V30 COUNTS 32 32 0 0 0
M  V30 BEGIN ATOM
M  V30 1 O 2.6704 1.4131 1.3345 0
M  V30 2 C 2.8537 0.5547 0.4278 0
M  V30 3 N 4.2039 0.2184 0.0373 0
M  V30 4 N 1.718 -0.0724 -0.1996 0
M  V30 5 C 5.3258 0.8855 0.7071 0
M  V30 6 C 4.462 -0.7732 -1.0113 0
M  V30 7 C 0.3567 0.2218 0.1469 0
M  V30 8 N -0.0237 1.1073 1.0875 0
M  V30 9 C -0.7484 -0.3597 -0.4334 0
M  V30 10 O -1.3251 1.0907 1.1061 0
M  V30 11 C -1.8072 0.2394 0.225 0
M  V30 12 C -3.2815 -0.0233 -0.0102 0
M  V30 13 C -3.6362 0.3168 -1.4699 0
M  V30 14 C -3.5883 -1.507 0.2664 0
M  V30 15 C -4.1327 0.8513 0.9319 0
M  V30 16 H 1.867 -0.7822 -0.9493 0
M  V30 17 H 5.2579 1.9827 0.5482 0
M  V30 18 H 6.3062 0.5401 0.3172 0
M  V30 19 H 5.2923 0.6714 1.7964 0
M  V30 20 H 4.0029 -0.4392 -1.9658 0
M  V30 21 H 4.0375 -1.755 -0.7131 0
M  V30 22 H 5.5489 -0.9129 -1.1882 0
M  V30 23 H -0.7778 -1.1059 -1.2164 0
M  V30 24 H -4.7196 0.1536 -1.658 0
M  V30 25 H -3.064 -0.3227 -2.176 0
M  V30 26 H -3.3985 1.3802 -1.6909 0
M  V30 27 H -3.3157 -1.773 1.3109 0
M  V30 28 H -3.0157 -2.1651 -0.422 0
M  V30 29 H -4.6705 -1.7167 0.1226 0
M  V30 30 H -5.2165 0.6664 0.7676 0
M  V30 31 H -3.9337 1.9302 0.7516 0
M  V30 32 H -3.8994 0.6241 1.995 0
M  V30 END ATOM
M  V30 BEGIN BOND
M  V30 1 2 1 2
M  V30 2 1 2 3
M  V30 3 1 2 4
M  V30 4 1 3 5
M  V30 5 1 3 6
M  V30 6 1 4 7
M  V30 7 2 7 8
M  V30 8 1 7 9
M  V30 9 1 8 10
M  V30 10 2 9 11
M  V30 11 1 11 12
M  V30 12 1 12 13
M  V30 13 1 12 14
M  V30 14 1 12 15
M  V30 15 1 10 11
M  V30 16 1 4 16
M  V30 17 1 5 17
M  V30 18 1 5 18
M  V30 19 1 5 19
M  V30 20 1 6 20
M  V30 21 1 6 21
M  V30 22 1 6 22
M  V30 23 1 9 23
M  V30 24 1 13 24
M  V30 25 1 13 25
M  V30 26 1 13 26
M  V30 27 1 14 27
M  V30 28 1 14 28
M  V30 29 1 14 29
M  V30 30 1 15 30
M  V30 31 1 15 31
M  V30 32 1 15 32
M  V30 END BOND
M  V30 END CTAB
M  END
>  <Structure No>
5251

>  <LogS>
-2.4272

>  <MMFF94 Energy>
-75.618

$$$$
Compound 5252
Actelion Java MolfileCreator 2.0

  0  0  0  0  0  0              0 V3000
M  V30 BEGIN CTAB
M  V30 COUNTS 58 60 0 0 0
M  V30 BEGIN ATOM
M  V30 1 S 6.498 0.9606 -0.8004 0
M  V30 2 C 5.5555 -0.2728 -0.1546 0
M  V30 3 C 7.9482 0.4614 -0.1103 0
M  V30 4 C 6.3631 -1.0833 0.6328 0
M  V30 5 C 4.0736 -0.4066 -0.3213 0
M  V30 6 C 7.7023 -0.6747 0.6496 0
M  V30 7 C 3.3411 0.3698 0.7936 0
M  V30 8 N 1.8589 0.3492 0.7044 0 CHG=1 CFG=1
M  V30 9 C 1.3527 1.0396 -0.4991 0
M  V30 10 C 1.2998 -1.0144 0.8012 0
M  V30 11 C -0.1786 1.1671 -0.4486 0
M  V30 12 C -0.2355 -0.9744 0.8928 0
M  V30 13 C -0.9131 -0.1988 -0.2846 0 CFG=1
M  V30 14 N -2.3526 0.06 0.0183 0
M  V30 15 C -0.8148 -1.0087 -1.6077 0
M  V30 16 C -3.1124 0.9877 -0.7799 0
M  V30 17 C -3.1226 -0.77 0.9121 0
M  V30 18 O -1.5468 -2.213 -1.5044 0
M  V30 19 C -3.1868 2.3428 -0.4184 0
M  V30 20 C -3.8463 0.5271 -1.8842 0
M  V30 21 O -3.0886 -2.0254 0.7983 0
M  V30 22 C -4.0506 -0.14 1.9142 0
M  V30 23 C -1.5019 -2.8977 -2.7356 0
M  V30 24 C -3.958 3.2311 -1.1745 0
M  V30 25 C -4.6179 1.4169 -2.6372 0
M  V30 26 C -4.0133 -0.8683 3.2549 0
M  V30 27 C -4.6711 2.769 -2.2852 0
M  V30 28 H 8.9075 0.9471 -0.2267 0
M  V30 29 H 5.9966 -1.939 1.184 0
M  V30 30 H 3.8035 -0.0145 -1.3223 0
M  V30 31 H 3.8167 -1.4853 -0.2839 0
M  V30 32 H 8.4714 -1.1899 1.2085 0
M  V30 33 H 3.6919 1.4266 0.7824 0
M  V30 34 H 3.6526 -0.048 1.7777 0
M  V30 35 H 1.5218 0.887 1.5403 0
M  V30 36 H 1.6447 0.5046 -1.4264 0
M  V30 37 H 1.7823 2.065 -0.5585 0
M  V30 38 H 1.6886 -1.5197 1.7141 0
M  V30 39 H 1.5943 -1.6349 -0.0706 0
M  V30 40 H -0.4354 1.8232 0.4101 0
M  V30 41 H -0.5181 1.6839 -1.3721 0
M  V30 42 H -0.5109 -0.4893 1.856 0
M  V30 43 H -0.5974 -2.0231 0.9351 0
M  V30 44 H -1.2147 -0.3816 -2.4374 0
M  V30 45 H 0.2457 -1.2335 -1.8469 0
M  V30 46 H -2.6573 2.7067 0.4529 0
M  V30 47 H -3.8209 -0.5204 -2.156 0
M  V30 48 H -5.0848 -0.1559 1.5114 0
M  V30 49 H -3.7562 0.9189 2.0811 0
M  V30 50 H -0.4584 -3.1691 -3.0098 0
M  V30 51 H -2.0786 -3.8393 -2.6372 0
M  V30 52 H -1.9733 -2.2995 -3.5459 0
M  V30 53 H -4.0094 4.2757 -0.8944 0
M  V30 54 H -5.1795 1.0567 -3.4889 0
M  V30 55 H -4.6686 -0.3402 3.9807 0
M  V30 56 H -2.9778 -0.8837 3.6597 0
M  V30 57 H -4.3795 -1.9106 3.1409 0
M  V30 58 H -5.2699 3.4566 -2.8676 0
M  V30 END ATOM
M  V30 BEGIN BOND
M  V30 1 1 1 2
M  V30 2 1 1 3
M  V30 3 2 2 4
M  V30 4 1 2 5
M  V30 5 2 3 6
M  V30 6 1 5 7
M  V30 7 1 7 8
M  V30 8 1 8 9
M  V30 9 1 8 10
M  V30 10 1 9 11
M  V30 11 1 10 12
M  V30 12 1 11 13
M  V30 13 1 13 14
M  V30 14 1 13 15
M  V30 15 1 14 16
M  V30 16 1 14 17
M  V30 17 1 15 18
M  V30 18 2 16 19
M  V30 19 1 16 20
M  V30 20 2 17 21
M  V30 21 1 17 22
M  V30 22 1 18 23
M  V30 23 1 19 24
M  V30 24 2 20 25
M  V30 25 1 22 26
M  V30 26 2 24 27
M  V30 27 1 4 6
M  V30 28 1 12 13
M  V30 29 1 25 27
M  V30 30 1 3 28
M  V30 31 1 4 29
M  V30 32 1 5 30
M  V30 33 1 5 31
M  V30 34 1 6 32
M  V30 35 1 7 33
M  V30 36 1 7 34
M  V30 37 1 8 35
M  V30 38 1 9 36
M  V30 39 1 9 37
M  V30 40 1 10 38
M  V30 41 1 10 39
M  V30 42 1 11 40
M  V30 43 1 11 41
M  V30 44 1 12 42
M  V30 45 1 12 43
M  V30 46 1 15 44
M  V30 47 1 15 45
M  V30 48 1 19 46
M  V30 49 1 20 47
M  V30 50 1 22 48
M  V30 51 1 22 49
M  V30 52 1 23 50
M  V30 53 1 23 51
M  V30 54 1 23 52
M  V30 55 1 24 53
M  V30 56 1 25 54
M  V30 57 1 26 55
M  V30 58 1 26 56
M  V30 59 1 26 57
M  V30 60 1 27 58
M  V30 END BOND
M  V30 BEGIN COLLECTION
M  V30 MDLV30/STEABS ATOMS=(2 8 13)
M  V30 END COLLECTION
M  V30 END CTAB
M  END
>  <Structure No>
5252

>  <LogS>
-3.7064

>  <MMFF94 Energy>
42.773

$$$$
Compound 5253
Actelion Java MolfileCreator 2.0

  0  0  0  0  0  0              0 V3000
M  V30 BEGIN CTAB
M  V30 COUNTS 22 23 0 0 0
M  V30 BEGIN ATOM
M  V30 1 Cl -0.6317 1.896 -1.896 0
M  V30 2 C -1.4846 0.7809 -0.8231 0
M  V30 3 C -2.8917 0.7321 -0.8352 0
M  V30 4 C -0.7586 -0.0581 0.0479 0
M  V30 5 Cl -3.8087 1.7763 -1.9221 0
M  V30 6 C -3.5673 -0.1521 0.0227 0
M  V30 7 C -1.4482 -0.9381 0.9034 0
M  V30 8 C 0.718 -0.0166 0.0655 0
M  V30 9 Cl -5.324 -0.2463 0.0402 0
M  V30 10 C -2.8439 -0.9792 0.8848 0
M  V30 11 Cl -0.5882 -2.0101 2.0046 0
M  V30 12 C 1.4781 -0.7787 -0.8434 0
M  V30 13 C 1.3714 0.7954 1.0048 0
M  V30 14 Cl 0.7061 -1.8194 -2.0345 0
M  V30 15 C 2.8762 -0.718 -0.8034 0
M  V30 16 C 2.7671 0.8505 1.0385 0
M  V30 17 C 3.5202 0.095 0.135 0
M  V30 18 Cl 5.2722 0.1658 0.1792 0
M  V30 19 H -3.3699 -1.6592 1.5434 0
M  V30 20 H 0.7983 1.3856 1.7096 0
M  V30 21 H 3.4621 -1.3032 -1.5009 0
M  V30 22 H 3.2618 1.4806 1.7667 0
M  V30 END ATOM
M  V30 BEGIN BOND
M  V30 1 1 1 2
M  V30 2 2 2 3
M  V30 3 1 2 4
M  V30 4 1 3 5
M  V30 5 1 3 6
M  V30 6 2 4 7
M  V30 7 1 4 8
M  V30 8 1 6 9
M  V30 9 2 6 10
M  V30 10 1 7 11
M  V30 11 2 8 12
M  V30 12 1 8 13
M  V30 13 1 12 14
M  V30 14 1 12 15
M  V30 15 2 13 16
M  V30 16 2 15 17
M  V30 17 1 17 18
M  V30 18 1 7 10
M  V30 19 1 16 17
M  V30 20 1 10 19
M  V30 21 1 13 20
M  V30 22 1 15 21
M  V30 23 1 16 22
M  V30 END BOND
M  V30 BEGIN COLLECTION
M  V30 MDLV30/STEABS BONDS=(1 7)
M  V30 END COLLECTION
M  V30 END CTAB
M  END
>  <Structure No>
5253

>  <LogS>
-7.4721

>  <MMFF94 Energy>
41.263

$$$$
Compound 5254
Actelion Java MolfileCreator 2.0

  0  0  0  0  0  0              0 V3000
M  V30 BEGIN CTAB
M  V30 COUNTS 27 26 0 0 0
M  V30 BEGIN ATOM
M  V30 1 O 2.469 0.0 -1.3882 0
M  V30 2 C 1.8641 0.5293 -0.2345 0 CFG=1
M  V30 3 C 0.9807 -0.5245 0.4693 0
M  V30 4 C 2.9312 1.0764 0.7194 0
M  V30 5 C -0.0867 -1.1635 -0.4539 0 CFG=2
M  V30 6 C -1.0671 -0.148 -1.0966 0
M  V30 7 C -0.8403 -2.2718 0.2974 0
M  V30 8 C -1.8321 0.7288 -0.0895 0
M  V30 9 C -2.8118 1.6546 -0.8053 0
M  V30 10 H 3.0309 -0.7688 -1.1059 0
M  V30 11 H 1.2308 1.3889 -0.5389 0
M  V30 12 H 0.4903 -0.0654 1.3548 0
M  V30 13 H 1.64 -1.3336 0.8557 0
M  V30 14 H 3.596 0.2601 1.0744 0
M  V30 15 H 2.4498 1.5573 1.5977 0
M  V30 16 H 3.5485 1.8374 0.1964 0
M  V30 17 H 0.4482 -1.6643 -1.291 0
M  V30 18 H -0.5076 0.5057 -1.7995 0
M  V30 19 H -1.8011 -0.709 -1.7166 0
M  V30 20 H -1.3204 -1.8777 1.2174 0
M  V30 21 H -0.1339 -3.077 0.5923 0
M  V30 22 H -1.6194 -2.723 -0.3532 0
M  V30 23 H -2.4044 0.0935 0.6182 0
M  V30 24 H -1.1235 1.3571 0.4892 0
M  V30 25 H -3.3462 2.2795 -0.0589 0
M  V30 26 H -3.5605 1.0612 -1.372 0
M  V30 27 H -2.2683 2.3248 -1.505 0
M  V30 END ATOM
M  V30 BEGIN BOND
M  V30 1 1 1 2
M  V30 2 1 2 3
M  V30 3 1 2 4
M  V30 4 1 3 5
M  V30 5 1 5 6
M  V30 6 1 5 7
M  V30 7 1 6 8
M  V30 8 1 8 9
M  V30 9 1 1 10
M  V30 10 1 2 11
M  V30 11 1 3 12
M  V30 12 1 3 13
M  V30 13 1 4 14
M  V30 14 1 4 15
M  V30 15 1 4 16
M  V30 16 1 5 17
M  V30 17 1 6 18
M  V30 18 1 6 19
M  V30 19 1 7 20
M  V30 20 1 7 21
M  V30 21 1 7 22
M  V30 22 1 8 23
M  V30 23 1 8 24
M  V30 24 1 9 25
M  V30 25 1 9 26
M  V30 26 1 9 27
M  V30 END BOND
M  V30 BEGIN COLLECTION
M  V30 MDLV30/STEABS ATOMS=(2 2 5)
M  V30 END COLLECTION
M  V30 END CTAB
M  END
>  <Structure No>
5254

>  <LogS>
-1.8779

>  <MMFF94 Energy>
10.693

$$$$
Compound 5255
Actelion Java MolfileCreator 2.0

  0  0  0  0  0  0              0 V3000
M  V30 BEGIN CTAB
M  V30 COUNTS 37 38 0 0 0
M  V30 BEGIN ATOM
M  V30 1 F 5.1019 0.3233 2.508 0
M  V30 2 C 5.549 0.4121 1.2019 0
M  V30 3 F 6.7181 1.1476 1.1805 0
M  V30 4 F 5.8088 -0.8525 0.705 0
M  V30 5 O 4.5752 1.0677 0.3923 0
M  V30 6 C 3.2613 0.6193 0.1797 0
M  V30 7 C 2.4302 1.3783 -0.6454 0
M  V30 8 C 2.7572 -0.5601 0.7524 0
M  V30 9 C 1.1129 0.983 -0.8872 0
M  V30 10 C 1.4391 -0.9591 0.5115 0
M  V30 11 C 0.5691 -0.1688 -0.2751 0
M  V30 12 C -0.8732 -0.6118 -0.6314 0 CFG=2
M  V30 13 O -0.7893 -1.2844 -1.8698 0
M  V30 14 C -1.8123 0.6065 -0.7579 0
M  V30 15 C -1.4972 -1.6308 0.3961 0
M  V30 16 C -1.7762 1.663 0.1722 0
M  V30 17 C -2.7857 0.6832 -1.772 0
M  V30 18 C -1.5988 -1.0922 1.8375 0
M  V30 19 C -2.881 -2.1459 -0.0462 0
M  V30 20 N -2.6322 2.7104 0.0586 0
M  V30 21 N -3.6216 1.7506 -1.8437 0
M  V30 22 C -3.5466 2.7604 -0.9416 0
M  V30 23 H 2.8112 2.2773 -1.1132 0
M  V30 24 H 3.3768 -1.186 1.3788 0
M  V30 25 H 0.5176 1.5831 -1.5635 0
M  V30 26 H 1.1222 -1.8889 0.9555 0
M  V30 27 H -0.4364 -0.6507 -2.5494 0
M  V30 28 H -0.857 -2.5376 0.4176 0
M  V30 29 H -1.0648 1.657 0.987 0
M  V30 30 H -2.892 -0.1078 -2.5017 0
M  V30 31 H -1.8344 -1.9264 2.5324 0
M  V30 32 H -2.4086 -0.338 1.926 0
M  V30 33 H -0.6494 -0.6318 2.1749 0
M  V30 34 H -3.641 -1.337 -0.0147 0
M  V30 35 H -2.8387 -2.5619 -1.0746 0
M  V30 36 H -3.2171 -2.9595 0.632 0
M  V30 37 H -4.2204 3.6028 -1.016 0
M  V30 END ATOM
M  V30 BEGIN BOND
M  V30 1 1 1 2
M  V30 2 1 2 3
M  V30 3 1 2 4
M  V30 4 1 2 5
M  V30 5 1 5 6
M  V30 6 2 6 7
M  V30 7 1 6 8
M  V30 8 1 7 9
M  V30 9 2 8 10
M  V30 10 2 9 11
M  V30 11 1 11 12
M  V30 12 1 12 13
M  V30 13 1 12 14
M  V30 14 1 12 15
M  V30 15 2 14 16
M  V30 16 1 14 17
M  V30 17 1 15 18
M  V30 18 1 15 19
M  V30 19 1 16 20
M  V30 20 2 17 21
M  V30 21 2 20 22
M  V30 22 1 10 11
M  V30 23 1 21 22
M  V30 24 1 7 23
M  V30 25 1 8 24
M  V30 26 1 9 25
M  V30 27 1 10 26
M  V30 28 1 13 27
M  V30 29 1 15 28
M  V30 30 1 16 29
M  V30 31 1 17 30
M  V30 32 1 18 31
M  V30 33 1 18 32
M  V30 34 1 18 33
M  V30 35 1 19 34
M  V30 36 1 19 35
M  V30 37 1 19 36
M  V30 38 1 22 37
M  V30 END BOND
M  V30 BEGIN COLLECTION
M  V30 MDLV30/STEABS ATOMS=(1 12)
M  V30 END COLLECTION
M  V30 END CTAB
M  END
>  <Structure No>
5255

>  <LogS>
-3.4377

>  <MMFF94 Energy>
38.074

$$$$
Compound 5256
Actelion Java MolfileCreator 2.0

  0  0  0  0  0  0              0 V3000
M  V30 BEGIN CTAB
M  V30 COUNTS 19 19 0 0 0
M  V30 BEGIN ATOM
M  V30 1 O -3.392 0.4727 2.9182 0
M  V30 2 C -3.0197 -0.038 1.8294 0
M  V30 3 C -1.6545 0.1894 1.3214 0
M  V30 4 O -0.76 0.9674 2.0586 0
M  V30 5 C -1.2734 -0.3773 0.1661 0
M  V30 6 C 0.0671 -0.208 -0.4395 0
M  V30 7 C 0.7336 1.0328 -0.4415 0
M  V30 8 C 0.6596 -1.3014 -1.0925 0
M  V30 9 C 1.9868 1.1593 -1.0493 0
M  V30 10 C 1.9132 -1.1701 -1.6981 0
M  V30 11 C 2.5785 0.0579 -1.6724 0
M  V30 12 H -3.7193 -0.6472 1.2704 0
M  V30 13 H -1.022 1.3988 2.9368 0
M  V30 14 H -1.9585 -1.0516 -0.3365 0
M  V30 15 H 0.2782 1.9105 -0.0021 0
M  V30 16 H 0.1555 -2.2599 -1.1238 0
M  V30 17 H 2.4949 2.1151 -1.0463 0
M  V30 18 H 2.3677 -2.0206 -2.1898 0
M  V30 19 H 3.5476 0.1586 -2.1437 0
M  V30 END ATOM
M  V30 BEGIN BOND
M  V30 1 2 1 2
M  V30 2 1 2 3
M  V30 3 1 3 4
M  V30 4 2 3 5
M  V30 5 1 5 6
M  V30 6 2 6 7
M  V30 7 1 6 8
M  V30 8 1 7 9
M  V30 9 2 8 10
M  V30 10 2 9 11
M  V30 11 1 10 11
M  V30 12 1 2 12
M  V30 13 1 4 13
M  V30 14 1 5 14
M  V30 15 1 7 15
M  V30 16 1 8 16
M  V30 17 1 9 17
M  V30 18 1 10 18
M  V30 19 1 11 19
M  V30 END BOND
M  V30 END CTAB
M  END
>  <Structure No>
5256

>  <LogS>
-2.1707

>  <MMFF94 Energy>
42.717

$$$$
Compound 5257
Actelion Java MolfileCreator 2.0

  0  0  0  0  0  0              0 V3000
M  V30 BEGIN CTAB
M  V30 COUNTS 22 23 0 0 0
M  V30 BEGIN ATOM
M  V30 1 Cl 0.3534 0.7953 2.7413 0
M  V30 2 C 1.2923 0.308 1.3339 0
M  V30 3 C 0.6699 0.0026 0.1065 0
M  V30 4 C 2.684 0.2265 1.451 0
M  V30 5 C -0.801 0.0867 -0.0246 0
M  V30 6 C 1.4607 -0.3833 -0.9948 0
M  V30 7 C 3.4622 -0.1565 0.3559 0
M  V30 8 C -1.411 1.2927 -0.4269 0
M  V30 9 C -1.6047 -1.0386 0.2513 0
M  V30 10 Cl 0.7359 -0.7756 -2.5506 0
M  V30 11 C 2.8514 -0.4604 -0.8633 0
M  V30 12 Cl 5.2066 -0.2561 0.5116 0
M  V30 13 Cl -0.4565 2.7284 -0.7839 0
M  V30 14 C -2.8031 1.3643 -0.5487 0
M  V30 15 Cl -0.8963 -2.5691 0.757 0
M  V30 16 C -2.9954 -0.9513 0.1249 0
M  V30 17 C -3.5923 0.2462 -0.2737 0
M  V30 18 H 3.1611 0.4613 2.3944 0
M  V30 19 H 3.4579 -0.7569 -1.7098 0
M  V30 20 H -3.2756 2.2884 -0.8572 0
M  V30 21 H -3.6161 -1.8128 0.3358 0
M  V30 22 H -4.6687 0.3076 -0.3697 0
M  V30 END ATOM
M  V30 BEGIN BOND
M  V30 1 1 1 2
M  V30 2 2 2 3
M  V30 3 1 2 4
M  V30 4 1 3 5
M  V30 5 1 3 6
M  V30 6 2 4 7
M  V30 7 2 5 8
M  V30 8 1 5 9
M  V30 9 1 6 10
M  V30 10 2 6 11
M  V30 11 1 7 12
M  V30 12 1 8 13
M  V30 13 1 8 14
M  V30 14 1 9 15
M  V30 15 2 9 16
M  V30 16 2 14 17
M  V30 17 1 7 11
M  V30 18 1 16 17
M  V30 19 1 4 18
M  V30 20 1 11 19
M  V30 21 1 14 20
M  V30 22 1 16 21
M  V30 23 1 17 22
M  V30 END BOND
M  V30 END CTAB
M  END
>  <Structure No>
5257

>  <LogS>
-7.316

>  <MMFF94 Energy>
27.003

$$$$
Compound 5258
Actelion Java MolfileCreator 2.0

  0  0  0  0  0  0              0 V3000
M  V30 BEGIN CTAB
M  V30 COUNTS 22 23 0 0 0
M  V30 BEGIN ATOM
M  V30 1 Cl -0.3534 -2.7413 0.6185 0
M  V30 2 C -1.3389 -1.2946 0.4214 0
M  V30 3 C -0.7659 -0.0478 0.088 0
M  V30 4 C -2.7183 -1.3967 0.6328 0
M  V30 5 C -1.5996 1.0858 -0.0277 0
M  V30 6 C 0.6905 0.0692 -0.1365 0
M  V30 7 C -3.5357 -0.2703 0.5159 0
M  V30 8 Cl -0.9566 2.6636 -0.475 0
M  V30 9 C -2.9772 0.9665 0.1866 0
M  V30 10 C 1.4901 0.782 0.7699 0
M  V30 11 C 1.2828 -0.5304 -1.2573 0
M  V30 12 Cl -5.2641 -0.4092 0.7828 0
M  V30 13 C 2.8694 0.8961 0.5596 0
M  V30 14 C 2.6593 -0.4185 -1.469 0
M  V30 15 Cl 3.8353 1.7986 1.7192 0
M  V30 16 C 3.4571 0.2927 -0.5654 0
M  V30 17 Cl 5.1856 0.4119 -0.8661 0
M  V30 18 H -3.1552 -2.3528 0.8931 0
M  V30 19 H -3.6155 1.8363 0.0927 0
M  V30 20 H 1.0401 1.2454 1.6399 0
M  V30 21 H 0.6774 -1.0808 -1.9671 0
M  V30 22 H 3.1055 -0.8853 -2.3379 0
M  V30 END ATOM
M  V30 BEGIN BOND
M  V30 1 1 1 2
M  V30 2 2 2 3
M  V30 3 1 2 4
M  V30 4 1 3 5
M  V30 5 1 3 6
M  V30 6 2 4 7
M  V30 7 1 5 8
M  V30 8 2 5 9
M  V30 9 2 6 10
M  V30 10 1 6 11
M  V30 11 1 7 12
M  V30 12 1 10 13
M  V30 13 2 11 14
M  V30 14 1 13 15
M  V30 15 2 13 16
M  V30 16 1 16 17
M  V30 17 1 7 9
M  V30 18 1 14 16
M  V30 19 1 4 18
M  V30 20 1 9 19
M  V30 21 1 10 20
M  V30 22 1 11 21
M  V30 23 1 14 22
M  V30 END BOND
M  V30 END CTAB
M  END
>  <Structure No>
5258

>  <LogS>
-7.91

>  <MMFF94 Energy>
36.181

$$$$
Compound 5259
Actelion Java MolfileCreator 2.0

  0  0  0  0  0  0              0 V3000
M  V30 BEGIN CTAB
M  V30 COUNTS 22 23 0 0 0
M  V30 BEGIN ATOM
M  V30 1 Cl 0.2649 2.5631 -1.3251 0
M  V30 2 C 1.3144 1.2976 -0.6933 0
M  V30 3 C 0.7904 0.1284 -0.1004 0
M  V30 4 C 2.6986 1.4598 -0.8167 0
M  V30 5 C 1.6776 -0.8673 0.3626 0
M  V30 6 C -0.6708 -0.0511 0.0339 0
M  V30 7 C 3.5691 0.4699 -0.356 0
M  V30 8 Cl 1.0938 -2.3337 1.1447 0
M  V30 9 C 3.0591 -0.6895 0.2318 0
M  V30 10 C -1.4041 0.7582 0.9159 0
M  V30 11 C -1.3345 -1.032 -0.7193 0
M  V30 12 Cl 5.3029 0.683 -0.5153 0
M  V30 13 C -2.7871 0.5879 1.0421 0
M  V30 14 C -2.7173 -1.2017 -0.5909 0
M  V30 15 Cl -3.6983 1.6025 2.1453 0
M  V30 16 C -3.443 -0.3917 0.2891 0
M  V30 17 Cl -3.5413 -2.4293 -1.5345 0
M  V30 18 H 3.0982 2.3553 -1.276 0
M  V30 19 H 3.738 -1.4524 0.5918 0
M  V30 20 H -0.9006 1.5159 1.5041 0
M  V30 21 H -0.7779 -1.6594 -1.4049 0
M  V30 22 H -4.5132 -0.5231 0.3876 0
M  V30 END ATOM
M  V30 BEGIN BOND
M  V30 1 1 1 2
M  V30 2 2 2 3
M  V30 3 1 2 4
M  V30 4 1 3 5
M  V30 5 1 3 6
M  V30 6 2 4 7
M  V30 7 1 5 8
M  V30 8 2 5 9
M  V30 9 2 6 10
M  V30 10 1 6 11
M  V30 11 1 7 12
M  V30 12 1 10 13
M  V30 13 2 11 14
M  V30 14 1 13 15
M  V30 15 2 13 16
M  V30 16 1 14 17
M  V30 17 1 7 9
M  V30 18 1 14 16
M  V30 19 1 4 18
M  V30 20 1 9 19
M  V30 21 1 10 20
M  V30 22 1 11 21
M  V30 23 1 16 22
M  V30 END BOND
M  V30 END CTAB
M  END
>  <Structure No>
5259

>  <LogS>
-7.92

>  <MMFF94 Energy>
15.751

$$$$
Compound 5260
Actelion Java MolfileCreator 2.0

  0  0  0  0  0  0              0 V3000
M  V30 BEGIN CTAB
M  V30 COUNTS 26 27 0 0 0
M  V30 BEGIN ATOM
M  V30 1 F -4.1023 1.6876 -2.0093 0
M  V30 2 C -3.6728 0.9919 -0.9262 0
M  V30 3 C -4.5413 0.6845 0.1175 0
M  V30 4 C -2.3507 0.5623 -0.8439 0
M  V30 5 O -5.7437 1.0589 0.0711 0
M  V30 6 N -4.0887 -0.0226 1.186 0
M  V30 7 N -1.9156 -0.1419 0.2436 0
M  V30 8 C -2.7926 -0.436 1.258 0
M  V30 9 C -0.5453 -0.5876 0.2993 0
M  V30 10 O -2.4075 -1.0789 2.2739 0
M  V30 11 O -0.2918 -1.7701 0.6592 0
M  V30 12 N 0.5247 0.2977 -0.0792 0
M  V30 13 C 1.9199 -0.0282 0.0403 0
M  V30 14 C 2.8212 0.444 -0.9268 0
M  V30 15 C 2.4139 -0.7552 1.1399 0
M  V30 16 C 4.1865 0.161 -0.8204 0
M  V30 17 C 3.7803 -1.0352 1.2432 0
M  V30 18 C 4.6652 -0.5817 0.2616 0
M  V30 19 H -1.6836 0.7764 -1.6703 0
M  V30 20 H -4.746 -0.2502 1.9672 0
M  V30 21 H 0.282 1.2137 -0.5185 0
M  V30 22 H 2.4621 1.0227 -1.7687 0
M  V30 23 H 1.753 -1.0823 1.9314 0
M  V30 24 H 4.8736 0.5201 -1.5758 0
M  V30 25 H 4.1546 -1.5957 2.0903 0
M  V30 26 H 5.7224 -0.7979 0.3443 0
M  V30 END ATOM
M  V30 BEGIN BOND
M  V30 1 1 1 2
M  V30 2 1 2 3
M  V30 3 2 2 4
M  V30 4 2 3 5
M  V30 5 1 3 6
M  V30 6 1 4 7
M  V30 7 1 6 8
M  V30 8 1 7 9
M  V30 9 2 8 10
M  V30 10 2 9 11
M  V30 11 1 9 12
M  V30 12 1 12 13
M  V30 13 2 13 14
M  V30 14 1 13 15
M  V30 15 1 14 16
M  V30 16 2 15 17
M  V30 17 2 16 18
M  V30 18 1 7 8
M  V30 19 1 17 18
M  V30 20 1 4 19
M  V30 21 1 6 20
M  V30 22 1 12 21
M  V30 23 1 14 22
M  V30 24 1 15 23
M  V30 25 1 16 24
M  V30 26 1 17 25
M  V30 27 1 18 26
M  V30 END BOND
M  V30 END CTAB
M  END
>  <Structure No>
5260

>  <LogS>
-1.6184

>  <MMFF94 Energy>
-74.637

$$$$
Compound 5261
Actelion Java MolfileCreator 2.0

  0  0  0  0  0  0              0 V3000
M  V30 BEGIN CTAB
M  V30 COUNTS 38 38 0 0 0
M  V30 BEGIN ATOM
M  V30 1 S 0.9618 3.5303 -1.042 0
M  V30 2 C -0.1988 2.2145 -0.6512 0
M  V30 3 C 1.0917 3.0522 -2.7925 0
M  V30 4 N -1.5261 2.4632 -0.7537 0
M  V30 5 N 0.2331 0.99 -0.2344 0
M  V30 6 N -2.4252 1.5238 -0.4741 0
M  V30 7 N 1.6221 0.7582 -0.1458 0
M  V30 8 C -0.6795 -0.0029 0.0164 0
M  V30 9 C -2.0624 0.2723 -0.0837 0
M  V30 10 C 2.1855 0.1491 0.8534 0
M  V30 11 O -0.2813 -1.1629 0.3083 0
M  V30 12 C -3.1526 -0.7731 0.2045 0
M  V30 13 C 3.674 -0.0597 0.8605 0
M  V30 14 C -3.0277 -1.295 1.6524 0
M  V30 15 C -3.0423 -1.9477 -0.7906 0
M  V30 16 C -4.5617 -0.1504 0.0484 0
M  V30 17 C 4.1408 -0.5787 2.2248 0
M  V30 18 C 4.0812 -1.0324 -0.2513 0
M  V30 19 H 1.789 3.7449 -3.3067 0
M  V30 20 H 0.0962 3.1159 -3.2797 0
M  V30 21 H 1.4849 2.0175 -2.8772 0
M  V30 22 H 1.5919 -0.1651 1.7047 0
M  V30 23 H 4.169 0.9192 0.6758 0
M  V30 24 H -3.8731 -1.9738 1.8986 0
M  V30 25 H -2.0927 -1.8705 1.8065 0
M  V30 26 H -3.0403 -0.4476 2.3718 0
M  V30 27 H -3.0759 -1.5732 -1.8367 0
M  V30 28 H -2.1013 -2.5179 -0.6538 0
M  V30 29 H -3.8827 -2.6615 -0.6483 0
M  V30 30 H -4.7155 0.2223 -0.9877 0
M  V30 31 H -5.3541 -0.9008 0.261 0
M  V30 32 H -4.6968 0.6985 0.7536 0
M  V30 33 H 3.8623 0.1424 3.0231 0
M  V30 34 H 3.6762 -1.5631 2.4513 0
M  V30 35 H 5.2458 -0.6933 2.2331 0
M  V30 36 H 3.5902 -2.0193 -0.1076 0
M  V30 37 H 5.183 -1.1754 -0.2506 0
M  V30 38 H 3.7884 -0.627 -1.2436 0
M  V30 END ATOM
M  V30 BEGIN BOND
M  V30 1 1 1 2
M  V30 2 1 1 3
M  V30 3 2 2 4
M  V30 4 1 2 5
M  V30 5 1 4 6
M  V30 6 1 5 7
M  V30 7 1 5 8
M  V30 8 2 6 9
M  V30 9 2 7 10
M  V30 10 2 8 11
M  V30 11 1 9 12
M  V30 12 1 10 13
M  V30 13 1 12 14
M  V30 14 1 12 15
M  V30 15 1 12 16
M  V30 16 1 13 17
M  V30 17 1 13 18
M  V30 18 1 8 9
M  V30 19 1 3 19
M  V30 20 1 3 20
M  V30 21 1 3 21
M  V30 22 1 10 22
M  V30 23 1 13 23
M  V30 24 1 14 24
M  V30 25 1 14 25
M  V30 26 1 14 26
M  V30 27 1 15 27
M  V30 28 1 15 28
M  V30 29 1 15 29
M  V30 30 1 16 30
M  V30 31 1 16 31
M  V30 32 1 16 32
M  V30 33 1 17 33
M  V30 34 1 17 34
M  V30 35 1 17 35
M  V30 36 1 18 36
M  V30 37 1 18 37
M  V30 38 1 18 38
M  V30 END BOND
M  V30 END CTAB
M  END
>  <Structure No>
5261

>  <LogS>
-4.4288

>  <MMFF94 Energy>
108.05

$$$$
Compound 5262
Actelion Java MolfileCreator 2.0

  0  0  0  0  0  0              0 V3000
M  V30 BEGIN CTAB
M  V30 COUNTS 17 17 0 0 0
M  V30 BEGIN ATOM
M  V30 1 Cl -0.4296 -3.0962 0.7734 0
M  V30 2 C 0.372 -1.5524 0.4813 0
M  V30 3 C 1.7589 -1.4267 0.6784 0
M  V30 4 C -0.3938 -0.4534 0.0503 0
M  V30 5 Cl 2.71 -2.8108 1.2191 0
M  V30 6 C 2.3857 -0.1941 0.4429 0
M  V30 7 O -1.7762 -0.6565 -0.1243 0
M  V30 8 C 0.2507 0.7861 -0.1839 0
M  V30 9 Cl 4.1175 0.0114 0.6756 0
M  V30 10 C 1.6326 0.8999 0.0154 0
M  V30 11 C -2.7253 0.3145 -0.5508 0
M  V30 12 O -0.4623 1.9045 -0.6116 0
M  V30 13 H 2.1249 1.8477 -0.1638 0
M  V30 14 H -3.7285 -0.1571 -0.588 0
M  V30 15 H -2.765 1.1566 0.1717 0
M  V30 16 H -2.4741 0.6761 -1.5699 0
M  V30 17 H -0.0093 2.7951 -0.7816 0
M  V30 END ATOM
M  V30 BEGIN BOND
M  V30 1 1 1 2
M  V30 2 2 2 3
M  V30 3 1 2 4
M  V30 4 1 3 5
M  V30 5 1 3 6
M  V30 6 1 4 7
M  V30 7 2 4 8
M  V30 8 1 6 9
M  V30 9 2 6 10
M  V30 10 1 7 11
M  V30 11 1 8 12
M  V30 12 1 8 10
M  V30 13 1 10 13
M  V30 14 1 11 14
M  V30 15 1 11 15
M  V30 16 1 11 16
M  V30 17 1 12 17
M  V30 END BOND
M  V30 END CTAB
M  END
>  <Structure No>
5262

>  <LogS>
-2.8712

>  <MMFF94 Energy>
36.958

$$$$
Compound 5263
Actelion Java MolfileCreator 2.0

  0  0  0  0  0  0              0 V3000
M  V30 BEGIN CTAB
M  V30 COUNTS 21 23 0 0 0
M  V30 BEGIN ATOM
M  V30 1 Cl 5.009 -0.5358 0.8932 0
M  V30 2 C 3.3201 -0.2597 0.4718 0
M  V30 3 C 2.3011 -0.9863 1.1336 0
M  V30 4 C 2.9822 0.691 -0.5304 0
M  V30 5 Cl 2.6599 -2.1735 2.3804 0
M  V30 6 C 0.9789 -0.7375 0.7702 0
M  V30 7 Cl 4.2266 1.6079 -1.3685 0
M  V30 8 C 1.6361 0.9178 -0.8733 0
M  V30 9 O -0.1091 -1.3014 1.2593 0
M  V30 10 C 0.6632 0.1856 -0.202 0
M  V30 11 C -1.1305 -0.7625 0.6232 0
M  V30 12 C -0.7067 0.1694 -0.2977 0
M  V30 13 C -2.482 -1.0429 0.8001 0
M  V30 14 C -1.5973 0.879 -1.098 0
M  V30 15 C -3.4147 -0.3444 0.0074 0
M  V30 16 C -2.9722 0.6166 -0.9415 0
M  V30 17 Cl -5.1259 -0.6871 0.2188 0
M  V30 18 Cl -4.1188 1.4988 -1.94 0
M  V30 19 H 1.3651 1.6384 -1.6343 0
M  V30 20 H -2.8028 -1.7777 1.5272 0
M  V30 21 H -1.2435 1.6076 -1.816 0
M  V30 END ATOM
M  V30 BEGIN BOND
M  V30 1 1 1 2
M  V30 2 2 2 3
M  V30 3 1 2 4
M  V30 4 1 3 5
M  V30 5 1 3 6
M  V30 6 1 4 7
M  V30 7 2 4 8
M  V30 8 1 6 9
M  V30 9 2 6 10
M  V30 10 1 9 11
M  V30 11 1 10 12
M  V30 12 1 11 13
M  V30 13 1 12 14
M  V30 14 2 13 15
M  V30 15 2 14 16
M  V30 16 1 15 17
M  V30 17 1 16 18
M  V30 18 1 8 10
M  V30 19 2 11 12
M  V30 20 1 15 16
M  V30 21 1 8 19
M  V30 22 1 13 20
M  V30 23 1 14 21
M  V30 END BOND
M  V30 END CTAB
M  END
>  <Structure No>
5263

>  <LogS>
-9.1609

>  <MMFF94 Energy>
40.109

$$$$
Compound 5264
Actelion Java MolfileCreator 2.0

  0  0  0  0  0  0              0 V3000
M  V30 BEGIN CTAB
M  V30 COUNTS 18 19 0 0 0
M  V30 BEGIN ATOM
M  V30 1 O -1.4454 2.9728 -0.7225 0
M  V30 2 C -1.5596 1.7522 -0.4377 0
M  V30 3 O -2.7719 1.0851 -0.3201 0
M  V30 4 C -0.4787 0.8358 -0.1853 0
M  V30 5 C -2.5472 -0.2901 0.0122 0
M  V30 6 C -1.0506 -0.3833 0.0838 0
M  V30 7 C 0.9015 1.0259 -0.1846 0
M  V30 8 C -0.2602 -1.4951 0.3728 0
M  V30 9 C 1.723 -0.082 0.1044 0
M  V30 10 C 1.1372 -1.3395 0.3823 0
M  V30 11 N 3.145 0.0649 0.1168 0
M  V30 12 H -3.0038 -0.5279 0.996 0
M  V30 13 H -2.9448 -0.9493 -0.7876 0
M  V30 14 H 1.3252 1.9985 -0.4003 0
M  V30 15 H -0.7116 -2.4556 0.5848 0
M  V30 16 H 1.7638 -2.1939 0.6049 0
M  V30 17 H 3.7643 -0.7484 0.3295 0
M  V30 18 H 3.5883 0.9885 -0.0867 0
M  V30 END ATOM
M  V30 BEGIN BOND
M  V30 1 2 1 2
M  V30 2 1 2 3
M  V30 3 1 2 4
M  V30 4 1 3 5
M  V30 5 2 4 6
M  V30 6 1 4 7
M  V30 7 1 6 8
M  V30 8 2 7 9
M  V30 9 2 8 10
M  V30 10 1 9 11
M  V30 11 1 5 6
M  V30 12 1 9 10
M  V30 13 1 5 12
M  V30 14 1 5 13
M  V30 15 1 7 14
M  V30 16 1 8 15
M  V30 17 1 10 16
M  V30 18 1 11 17
M  V30 19 1 11 18
M  V30 END BOND
M  V30 END CTAB
M  END
>  <Structure No>
5264

>  <LogS>
-2.0414

>  <MMFF94 Energy>
15.491

$$$$
Compound 5265
Actelion Java MolfileCreator 2.0

  0  0  0  0  0  0              0 V3000
M  V30 BEGIN CTAB
M  V30 COUNTS 24 26 0 0 0
M  V30 BEGIN ATOM
M  V30 1 O -0.8911 -3.3246 0.2429 0
M  V30 2 C -0.9271 -2.0718 0.1167 0
M  V30 3 N 0.2613 -1.293 0.2683 0
M  V30 4 C -2.208 -1.3754 -0.2909 0
M  V30 5 C 0.2216 0.0963 0.1234 0
M  V30 6 C 1.6548 -1.731 0.2701 0
M  V30 7 C -2.2678 0.1048 0.1782 0
M  V30 8 C -0.9507 0.8264 0.0068 0
M  V30 9 C 1.4586 0.6495 0.0443 0
M  V30 10 C 2.4956 -0.4233 0.1513 0
M  V30 11 C -0.8374 2.2205 -0.1534 0
M  V30 12 C 1.6067 2.0264 -0.1373 0
M  V30 13 C 0.4422 2.8172 -0.2326 0
M  V30 14 H -2.277 -1.4036 -1.3993 0
M  V30 15 H -3.0818 -1.9245 0.1211 0
M  V30 16 H 1.8441 -2.3954 -0.6003 0
M  V30 17 H 1.8831 -2.2665 1.2164 0
M  V30 18 H -2.5388 0.1305 1.2556 0
M  V30 19 H -3.0656 0.6324 -0.3876 0
M  V30 20 H 3.1309 -0.4388 -0.7597 0
M  V30 21 H 3.1176 -0.2661 1.0583 0
M  V30 22 H -1.7245 2.8379 -0.2148 0
M  V30 23 H 2.5892 2.4749 -0.2042 0
M  V30 24 H 0.5291 3.8878 -0.3649 0
M  V30 END ATOM
M  V30 BEGIN BOND
M  V30 1 2 1 2
M  V30 2 1 2 3
M  V30 3 1 2 4
M  V30 4 1 3 5
M  V30 5 1 3 6
M  V30 6 1 4 7
M  V30 7 2 5 8
M  V30 8 1 5 9
M  V30 9 1 6 10
M  V30 10 1 8 11
M  V30 11 2 9 12
M  V30 12 2 11 13
M  V30 13 1 7 8
M  V30 14 1 9 10
M  V30 15 1 12 13
M  V30 16 1 4 14
M  V30 17 1 4 15
M  V30 18 1 6 16
M  V30 19 1 6 17
M  V30 20 1 7 18
M  V30 21 1 7 19
M  V30 22 1 10 20
M  V30 23 1 10 21
M  V30 24 1 11 22
M  V30 25 1 12 23
M  V30 26 1 13 24
M  V30 END BOND
M  V30 END CTAB
M  END
>  <Structure No>
5265

>  <LogS>
-1.6365

>  <MMFF94 Energy>
11.646

$$$$
Compound 5266
Actelion Java MolfileCreator 2.0

  0  0  0  0  0  0              0 V3000
M  V30 BEGIN CTAB
M  V30 COUNTS 47 48 0 0 0
M  V30 BEGIN ATOM
M  V30 1 O -1.9042 -0.9517 0.0 0
M  V30 2 C -2.3271 0.0129 0.6954 0
M  V30 3 O -1.5841 0.4754 1.7914 0
M  V30 4 N -3.5992 0.6166 0.3897 0
M  V30 5 C -0.2324 0.1916 2.0354 0
M  V30 6 C -4.4888 -0.0018 -0.5583 0
M  V30 7 C -4.0573 1.7867 1.1496 0
M  V30 8 C 0.6894 -0.0293 0.9945 0
M  V30 9 C 0.2141 0.17 3.3609 0
M  V30 10 C -4.8843 -1.3398 -0.3922 0
M  V30 11 C -4.979 0.7294 -1.6527 0
M  V30 12 C -4.7543 1.3465 2.4325 0
M  V30 13 C 2.0399 -0.2863 1.2783 0
M  V30 14 C 1.5507 -0.1097 3.6525 0
M  V30 15 C -5.755 -1.9364 -1.3093 0
M  V30 16 C -5.8491 0.1292 -2.5683 0
M  V30 17 N 2.9523 -0.5327 0.1943 0
M  V30 18 C 2.4595 -0.3484 2.619 0
M  V30 19 C -6.2369 -1.2025 -2.3968 0
M  V30 20 C 4.3337 -0.1484 0.1965 0
M  V30 21 O 4.7874 0.6107 1.0964 0
M  V30 22 O 5.1653 -0.6001 -0.8344 0
M  V30 23 C 6.5374 -0.226 -0.9642 0
M  V30 24 C 7.2307 -1.2082 -1.9063 0
M  V30 25 C 6.6477 1.2027 -1.5044 0
M  V30 26 H -4.766 2.393 0.5456 0
M  V30 27 H -3.1977 2.4458 1.399 0
M  V30 28 H 0.3745 0.0369 -0.0381 0
M  V30 29 H -0.4826 0.3536 4.1692 0
M  V30 30 H -4.5258 -1.9139 0.4529 0
M  V30 31 H -4.677 1.7582 -1.8024 0
M  V30 32 H -4.0542 0.7695 3.0729 0
M  V30 33 H -5.6334 0.7124 2.1902 0
M  V30 34 H -5.1001 2.2392 2.995 0
M  V30 35 H 1.8815 -0.1495 4.6824 0
M  V30 36 H -6.0581 -2.9669 -1.1756 0
M  V30 37 H -6.2212 0.6961 -3.412 0
M  V30 38 H 2.5716 -0.9384 -0.6901 0
M  V30 39 H 3.4813 -0.5988 2.8704 0
M  V30 40 H -6.9108 -1.6655 -3.1061 0
M  V30 41 H 7.0396 -0.2853 0.0272 0
M  V30 42 H 8.3076 -0.9538 -2.0051 0
M  V30 43 H 7.1489 -2.2384 -1.4993 0
M  V30 44 H 6.7564 -1.1838 -2.911 0
M  V30 45 H 6.1339 1.2858 -2.486 0
M  V30 46 H 6.1795 1.918 -0.7967 0
M  V30 47 H 7.7149 1.486 -1.6274 0
M  V30 END ATOM
M  V30 BEGIN BOND
M  V30 1 2 1 2
M  V30 2 1 2 3
M  V30 3 1 2 4
M  V30 4 1 3 5
M  V30 5 1 4 6
M  V30 6 1 4 7
M  V30 7 2 5 8
M  V30 8 1 5 9
M  V30 9 2 6 10
M  V30 10 1 6 11
M  V30 11 1 7 12
M  V30 12 1 8 13
M  V30 13 2 9 14
M  V30 14 1 10 15
M  V30 15 2 11 16
M  V30 16 1 13 17
M  V30 17 2 13 18
M  V30 18 2 15 19
M  V30 19 1 17 20
M  V30 20 2 20 21
M  V30 21 1 20 22
M  V30 22 1 22 23
M  V30 23 1 23 24
M  V30 24 1 23 25
M  V30 25 1 14 18
M  V30 26 1 16 19
M  V30 27 1 7 26
M  V30 28 1 7 27
M  V30 29 1 8 28
M  V30 30 1 9 29
M  V30 31 1 10 30
M  V30 32 1 11 31
M  V30 33 1 12 32
M  V30 34 1 12 33
M  V30 35 1 12 34
M  V30 36 1 14 35
M  V30 37 1 15 36
M  V30 38 1 16 37
M  V30 39 1 17 38
M  V30 40 1 18 39
M  V30 41 1 19 40
M  V30 42 1 23 41
M  V30 43 1 24 42
M  V30 44 1 24 43
M  V30 45 1 24 44
M  V30 46 1 25 45
M  V30 47 1 25 46
M  V30 48 1 25 47
M  V30 END BOND
M  V30 END CTAB
M  END
>  <Structure No>
5266

>  <LogS>
-5.0574

>  <MMFF94 Energy>
-26.048

$$$$
Compound 5267
Actelion Java MolfileCreator 2.0

  0  0  0  0  0  0              0 V3000
M  V30 BEGIN CTAB
M  V30 COUNTS 44 47 0 0 0
M  V30 BEGIN ATOM
M  V30 1 F 3.0068 1.8683 -2.8441 0
M  V30 2 C 3.7951 0.8988 -2.2485 0
M  V30 3 F 5.0436 1.4461 -2.0071 0
M  V30 4 F 3.9321 -0.1673 -3.1177 0
M  V30 5 C 3.159 0.4166 -0.9684 0
M  V30 6 C 1.7635 0.2711 -0.8866 0
M  V30 7 C 3.9502 0.0374 0.1266 0
M  V30 8 C 1.1459 -0.2486 0.2736 0
M  V30 9 C 3.3523 -0.411 1.3036 0
M  V30 10 C 1.9644 -0.5273 1.3887 0
M  V30 11 C -0.3909 -0.2949 0.39 0
M  V30 12 N -0.8297 -1.3 1.3852 0
M  V30 13 C -1.0841 -0.7168 -0.9218 0
M  V30 14 C -0.7748 1.1309 0.834 0
M  V30 15 N -1.9466 -1.213 2.0895 0
M  V30 16 C -0.3778 -2.566 1.5075 0
M  V30 17 C -2.428 -0.3553 -1.1688 0
M  V30 18 C -0.4876 -1.662 -1.7877 0
M  V30 19 C -0.7489 1.4916 2.2004 0
M  V30 20 C -0.9559 2.1625 -0.1162 0
M  V30 21 C -2.1111 -2.409 2.6836 0
M  V30 22 N -1.1512 -3.2914 2.3374 0
M  V30 23 C -3.0982 -0.8168 -2.3051 0
M  V30 24 C -1.1622 -2.1205 -2.9225 0
M  V30 25 C -1.0058 2.806 2.6004 0
M  V30 26 C -1.2127 3.4748 0.2897 0
M  V30 27 C -2.4613 -1.688 -3.1882 0
M  V30 28 C -1.249 3.7942 1.6468 0
M  V30 29 H 1.1558 0.5684 -1.7313 0
M  V30 30 H 5.0296 0.1068 0.0814 0
M  V30 31 H 3.9671 -0.6598 2.1592 0
M  V30 32 H 1.5343 -0.8293 2.3342 0
M  V30 33 H 0.4761 -2.9683 0.9781 0
M  V30 34 H -2.967 0.2793 -0.4773 0
M  V30 35 H 0.4979 -2.0589 -1.584 0
M  V30 36 H -0.5112 0.7626 2.9636 0
M  V30 37 H -0.8926 1.9576 -1.1767 0
M  V30 38 H -2.9366 -2.6453 3.3411 0
M  V30 39 H -4.1197 -0.511 -2.4913 0
M  V30 40 H -0.682 -2.8266 -3.5878 0
M  V30 41 H -0.9992 3.0616 3.6522 0
M  V30 42 H -1.3692 4.2485 -0.4508 0
M  V30 43 H -2.9841 -2.0491 -4.0644 0
M  V30 44 H -1.4423 4.8125 1.9589 0
M  V30 END ATOM
M  V30 BEGIN BOND
M  V30 1 1 1 2
M  V30 2 1 2 3
M  V30 3 1 2 4
M  V30 4 1 2 5
M  V30 5 2 5 6
M  V30 6 1 5 7
M  V30 7 1 6 8
M  V30 8 2 7 9
M  V30 9 2 8 10
M  V30 10 1 8 11
M  V30 11 1 11 12
M  V30 12 1 11 13
M  V30 13 1 11 14
M  V30 14 1 12 15
M  V30 15 1 12 16
M  V30 16 2 13 17
M  V30 17 1 13 18
M  V30 18 2 14 19
M  V30 19 1 14 20
M  V30 20 2 15 21
M  V30 21 2 16 22
M  V30 22 1 17 23
M  V30 23 2 18 24
M  V30 24 1 19 25
M  V30 25 2 20 26
M  V30 26 2 23 27
M  V30 27 2 25 28
M  V30 28 1 9 10
M  V30 29 1 21 22
M  V30 30 1 24 27
M  V30 31 1 26 28
M  V30 32 1 6 29
M  V30 33 1 7 30
M  V30 34 1 9 31
M  V30 35 1 10 32
M  V30 36 1 16 33
M  V30 37 1 17 34
M  V30 38 1 18 35
M  V30 39 1 19 36
M  V30 40 1 20 37
M  V30 41 1 21 38
M  V30 42 1 23 39
M  V30 43 1 24 40
M  V30 44 1 25 41
M  V30 45 1 26 42
M  V30 46 1 27 43
M  V30 47 1 28 44
M  V30 END BOND
M  V30 END CTAB
M  END
>  <Structure No>
5267

>  <LogS>
-8.403

>  <MMFF94 Energy>
190.44

$$$$
Compound 5268
Actelion Java MolfileCreator 2.0

  0  0  0  0  0  0              0 V3000
M  V30 BEGIN CTAB
M  V30 COUNTS 31 31 0 0 0
M  V30 BEGIN ATOM
M  V30 1 O 1.4219 2.1335 -0.0789 0
M  V30 2 C 1.6722 0.8993 -0.1655 0
M  V30 3 O 0.6265 -0.0299 -0.1412 0
M  V30 4 C 3.07 0.4316 -0.2927 0
M  V30 5 C -0.7399 0.3513 -0.0213 0
M  V30 6 C 4.1363 1.3505 -0.319 0
M  V30 7 C 3.3523 -0.9433 -0.3894 0
M  V30 8 C -1.618 -0.8966 -0.0221 0
M  V30 9 C 5.4549 0.9004 -0.4395 0
M  V30 10 C 4.673 -1.3875 -0.5098 0
M  V30 11 N -3.0338 -0.5274 0.1201 0
M  V30 12 C 5.723 -0.4669 -0.5348 0
M  V30 13 C -3.7824 -0.0737 -1.0301 0
M  V30 14 C -3.6752 -0.6127 1.437 0
M  V30 15 O -3.2254 -0.0103 -2.1601 0
M  V30 16 C -5.222 0.332 -0.9175 0
M  V30 17 H -1.0175 1.0086 -0.8737 0
M  V30 18 H -0.8891 0.907 0.9303 0
M  V30 19 H 3.9525 2.4153 -0.2466 0
M  V30 20 H 2.5549 -1.6758 -0.3723 0
M  V30 21 H -1.3001 -1.5625 0.8097 0
M  V30 22 H -1.4647 -1.4687 -0.9631 0
M  V30 23 H 6.2695 1.6129 -0.459 0
M  V30 24 H 4.882 -2.447 -0.5837 0
M  V30 25 H 6.7443 -0.813 -0.628 0
M  V30 26 H -4.5077 -1.3464 1.4042 0
M  V30 27 H -2.9575 -0.9359 2.2204 0
M  V30 28 H -4.0682 0.383 1.7308 0
M  V30 29 H -5.3161 1.2004 -0.233 0
M  V30 30 H -5.8246 -0.5153 -0.5299 0
M  V30 31 H -5.6236 0.6227 -1.9117 0
M  V30 END ATOM
M  V30 BEGIN BOND
M  V30 1 2 1 2
M  V30 2 1 2 3
M  V30 3 1 2 4
M  V30 4 1 3 5
M  V30 5 2 4 6
M  V30 6 1 4 7
M  V30 7 1 5 8
M  V30 8 1 6 9
M  V30 9 2 7 10
M  V30 10 1 8 11
M  V30 11 2 9 12
M  V30 12 1 11 13
M  V30 13 1 11 14
M  V30 14 2 13 15
M  V30 15 1 13 16
M  V30 16 1 10 12
M  V30 17 1 5 17
M  V30 18 1 5 18
M  V30 19 1 6 19
M  V30 20 1 7 20
M  V30 21 1 8 21
M  V30 22 1 8 22
M  V30 23 1 9 23
M  V30 24 1 10 24
M  V30 25 1 12 25
M  V30 26 1 14 26
M  V30 27 1 14 27
M  V30 28 1 14 28
M  V30 29 1 16 29
M  V30 30 1 16 30
M  V30 31 1 16 31
M  V30 END BOND
M  V30 END CTAB
M  END
>  <Structure No>
5268

>  <LogS>
-0.8494

>  <MMFF94 Energy>
26.171

$$$$
Compound 5269
Actelion Java MolfileCreator 2.0

  0  0  0  0  0  0              0 V3000
M  V30 BEGIN CTAB
M  V30 COUNTS 41 42 0 0 0
M  V30 BEGIN ATOM
M  V30 1 O 0.1588 2.4641 -0.6354 0
M  V30 2 C -0.4515 1.4337 -0.2441 0
M  V30 3 N 0.2774 0.3767 0.4286 0
M  V30 4 C -1.8964 1.3419 -0.5352 0
M  V30 5 C -0.0872 -1.0045 0.2041 0
M  V30 6 C 1.5535 0.6473 1.1274 0 CFG=1
M  V30 7 O -2.4942 2.1034 -1.4238 0
M  V30 8 C -2.8254 0.505 0.057 0
M  V30 9 C -0.0102 -1.5698 -1.0965 0
M  V30 10 C -0.5062 -1.8169 1.29 0
M  V30 11 C 2.6655 0.8906 0.1428 0
M  V30 12 C 1.4221 1.7958 2.139 0
M  V30 13 C -3.7714 1.8016 -1.4522 0
M  V30 14 C -4.0313 0.8019 -0.5393 0
M  V30 15 C -0.3616 -2.9147 -1.2888 0
M  V30 16 C 0.3913 -0.755 -2.298 0
M  V30 17 C -0.8122 -3.1679 1.0692 0
M  V30 18 C -0.6337 -1.2687 2.687 0
M  V30 19 O 3.3242 -0.0906 -0.2988 0
M  V30 20 O 2.9409 2.1859 -0.3078 0
M  V30 21 C -0.747 -3.7089 -0.2119 0
M  V30 22 C 3.9486 2.4634 -1.2719 0
M  V30 23 H 1.8447 -0.2471 1.7213 0
M  V30 24 H -2.6695 -0.2149 0.8446 0
M  V30 25 H 1.2177 2.7653 1.6405 0
M  V30 26 H 0.5984 1.5851 2.8516 0
M  V30 27 H 2.3642 1.8952 2.7194 0
M  V30 28 H -4.4979 2.2769 -2.0975 0
M  V30 29 H -4.9907 0.3501 -0.3256 0
M  V30 30 H -0.3283 -3.3555 -2.2777 0
M  V30 31 H 0.7801 -1.4059 -3.1098 0
M  V30 32 H -0.4907 -0.2018 -2.6823 0
M  V30 33 H 1.1936 -0.0345 -2.045 0
M  V30 34 H -1.1188 -3.8032 1.8913 0
M  V30 35 H -1.3827 -1.845 3.2709 0
M  V30 36 H -0.9773 -0.2144 2.669 0
M  V30 37 H 0.3431 -1.3338 3.2085 0
M  V30 38 H -1.0019 -4.7487 -0.3721 0
M  V30 39 H 3.7225 1.9318 -2.2207 0
M  V30 40 H 4.9404 2.1429 -0.8883 0
M  V30 41 H 3.9741 3.5549 -1.4685 0
M  V30 END ATOM
M  V30 BEGIN BOND
M  V30 1 2 1 2
M  V30 2 1 2 3
M  V30 3 1 2 4
M  V30 4 1 3 5
M  V30 5 1 3 6
M  V30 6 1 4 7
M  V30 7 2 4 8
M  V30 8 2 5 9
M  V30 9 1 5 10
M  V30 10 1 6 11
M  V30 11 1 6 12
M  V30 12 1 7 13
M  V30 13 1 8 14
M  V30 14 1 9 15
M  V30 15 1 9 16
M  V30 16 2 10 17
M  V30 17 1 10 18
M  V30 18 2 11 19
M  V30 19 1 11 20
M  V30 20 2 15 21
M  V30 21 1 20 22
M  V30 22 2 13 14
M  V30 23 1 17 21
M  V30 24 1 6 23
M  V30 25 1 8 24
M  V30 26 1 12 25
M  V30 27 1 12 26
M  V30 28 1 12 27
M  V30 29 1 13 28
M  V30 30 1 14 29
M  V30 31 1 15 30
M  V30 32 1 16 31
M  V30 33 1 16 32
M  V30 34 1 16 33
M  V30 35 1 17 34
M  V30 36 1 18 35
M  V30 37 1 18 36
M  V30 38 1 18 37
M  V30 39 1 21 38
M  V30 40 1 22 39
M  V30 41 1 22 40
M  V30 42 1 22 41
M  V30 END BOND
M  V30 BEGIN COLLECTION
M  V30 MDLV30/STEABS ATOMS=(1 6)
M  V30 END COLLECTION
M  V30 END CTAB
M  END
>  <Structure No>
5269

>  <LogS>
-3.1173

>  <MMFF94 Energy>
62.413

$$$$
Compound 5270
Actelion Java MolfileCreator 2.0

  0  0  0  0  0  0              0 V3000
M  V30 BEGIN CTAB
M  V30 COUNTS 32 33 0 0 0
M  V30 BEGIN ATOM
M  V30 1 N -0.4743 -0.3162 0.079 0
M  V30 2 N 0.5001 0.4514 -0.203 0
M  V30 3 C -1.8441 0.0706 -0.1008 0
M  V30 4 C 1.8634 0.0521 -0.0206 0
M  V30 5 C -2.2637 1.0133 -1.0755 0
M  V30 6 C -2.7953 -0.4985 0.7572 0
M  V30 7 C 2.2005 -1.2157 0.4864 0
M  V30 8 C 2.883 0.9479 -0.3634 0
M  V30 9 N -1.3727 1.5229 -2.0762 0
M  V30 10 C -3.6076 1.4166 -1.105 0
M  V30 11 C -4.1429 -0.1174 0.6938 0
M  V30 12 C 3.5421 -1.5739 0.6505 0
M  V30 13 C 4.2246 0.5897 -0.1993 0
M  V30 14 C -4.5375 0.864 -0.223 0
M  V30 15 C -5.1373 -0.694 1.6578 0
M  V30 16 C 4.5621 -0.6677 0.3232 0
M  V30 17 C 6.0012 -1.067 0.4621 0
M  V30 18 H -2.4761 -1.2238 1.4966 0
M  V30 19 H 1.4303 -1.9286 0.7515 0
M  V30 20 H 2.636 1.924 -0.7623 0
M  V30 21 H -1.6616 2.3253 -2.6795 0
M  V30 22 H -0.5036 1.0156 -2.3492 0
M  V30 23 H -3.9414 2.1458 -1.8328 0
M  V30 24 H 3.7851 -2.5575 1.0334 0
M  V30 25 H 4.9991 1.2931 -0.4793 0
M  V30 26 H -5.5694 1.1907 -0.2667 0
M  V30 27 H -5.1595 -0.0756 2.5794 0
M  V30 28 H -6.1536 -0.7125 1.2093 0
M  V30 29 H -4.8626 -1.7362 1.9271 0
M  V30 30 H 6.636 -0.1792 0.6695 0
M  V30 31 H 6.3439 -1.5453 -0.479 0
M  V30 32 H 6.1297 -1.784 1.3008 0
M  V30 END ATOM
M  V30 BEGIN BOND
M  V30 1 2 1 2
M  V30 2 1 1 3
M  V30 3 1 2 4
M  V30 4 2 3 5
M  V30 5 1 3 6
M  V30 6 2 4 7
M  V30 7 1 4 8
M  V30 8 1 5 9
M  V30 9 1 5 10
M  V30 10 2 6 11
M  V30 11 1 7 12
M  V30 12 2 8 13
M  V30 13 2 10 14
M  V30 14 1 11 15
M  V30 15 2 12 16
M  V30 16 1 16 17
M  V30 17 1 11 14
M  V30 18 1 13 16
M  V30 19 1 6 18
M  V30 20 1 7 19
M  V30 21 1 8 20
M  V30 22 1 9 21
M  V30 23 1 9 22
M  V30 24 1 10 23
M  V30 25 1 12 24
M  V30 26 1 13 25
M  V30 27 1 14 26
M  V30 28 1 15 27
M  V30 29 1 15 28
M  V30 30 1 15 29
M  V30 31 1 17 30
M  V30 32 1 17 31
M  V30 33 1 17 32
M  V30 END BOND
M  V30 END CTAB
M  END
>  <Structure No>
5270

>  <LogS>
-3.9031

>  <MMFF94 Energy>
62.067

$$$$
Compound 5271
Actelion Java MolfileCreator 2.0

  0  0  0  0  0  0              0 V3000
M  V30 BEGIN CTAB
M  V30 COUNTS 26 26 0 0 0
M  V30 BEGIN ATOM
M  V30 1 O -3.0202 -2.7019 0.4764 0
M  V30 2 C -2.1579 -1.8002 0.3037 0
M  V30 3 N -2.3377 -0.8296 -0.7198 0
M  V30 4 N -1.0149 -1.7356 1.1489 0
M  V30 5 C -1.3447 0.1657 -0.9781 0
M  V30 6 C -0.0114 -0.7296 0.9741 0
M  V30 7 O -1.5859 1.0392 -1.8563 0
M  V30 8 C 0.0296 0.1274 -0.3058 0
M  V30 9 N 0.9104 -0.636 1.8845 0
M  V30 10 C 0.9885 -0.5268 -1.3463 0
M  V30 11 C 0.4677 1.6003 -0.0023 0
M  V30 12 C 2.4364 -0.7385 -0.8894 0
M  V30 13 C -0.4504 2.3238 0.9906 0
M  V30 14 H -3.2173 -0.8369 -1.2841 0
M  V30 15 H -0.9361 -2.4086 1.945 0
M  V30 16 H 1.7147 0.0249 1.8408 0
M  V30 17 H 1.013 0.0959 -2.2682 0
M  V30 18 H 0.5838 -1.521 -1.6411 0
M  V30 19 H 0.4901 2.1888 -0.9458 0
M  V30 20 H 1.5001 1.6492 0.3941 0
M  V30 21 H 2.4872 -1.4611 -0.0499 0
M  V30 22 H 3.0214 -1.1656 -1.7312 0
M  V30 23 H 2.9165 0.2167 -0.5989 0
M  V30 24 H -1.4894 2.3787 0.6042 0
M  V30 25 H -0.4535 1.8091 1.9736 0
M  V30 26 H -0.083 3.3604 1.1436 0
M  V30 END ATOM
M  V30 BEGIN BOND
M  V30 1 2 1 2
M  V30 2 1 2 3
M  V30 3 1 2 4
M  V30 4 1 3 5
M  V30 5 1 4 6
M  V30 6 2 5 7
M  V30 7 1 5 8
M  V30 8 2 6 9
M  V30 9 1 8 10
M  V30 10 1 8 11
M  V30 11 1 10 12
M  V30 12 1 11 13
M  V30 13 1 6 8
M  V30 14 1 3 14
M  V30 15 1 4 15
M  V30 16 1 9 16
M  V30 17 1 10 17
M  V30 18 1 10 18
M  V30 19 1 11 19
M  V30 20 1 11 20
M  V30 21 1 12 21
M  V30 22 1 12 22
M  V30 23 1 12 23
M  V30 24 1 13 24
M  V30 25 1 13 25
M  V30 26 1 13 26
M  V30 END BOND
M  V30 END CTAB
M  END
>  <Structure No>
5271

>  <LogS>
-1.3967

>  <MMFF94 Energy>
-115.68

$$$$
Compound 5272
Actelion Java MolfileCreator 2.0

  0  0  0  0  0  0              0 V3000
M  V30 BEGIN CTAB
M  V30 COUNTS 21 22 0 0 0
M  V30 BEGIN ATOM
M  V30 1 O 4.3292 0.9789 -0.2446 0
M  V30 2 N 3.6379 -0.0026 0.098 0 CHG=1
M  V30 3 O 4.2692 -1.1089 0.6189 0 CHG=-1
M  V30 4 C 2.2065 0.0211 -0.0467 0
M  V30 5 C 1.4342 -1.0959 0.3426 0
M  V30 6 C 1.5538 1.1614 -0.5847 0
M  V30 7 C 0.0514 -1.0315 0.187 0
M  V30 8 C 0.156 1.1893 -0.7298 0
M  V30 9 C -0.9755 -2.0 0.4708 0
M  V30 10 C -0.5787 0.0749 -0.3265 0
M  V30 11 O -0.7975 -3.149 0.9528 0
M  V30 12 O -2.2162 -1.478 0.1285 0
M  V30 13 C -2.0671 -0.1502 -0.391 0 CFG=1
M  V30 14 C -2.8284 0.8449 0.4802 0
M  V30 15 H 1.8925 -1.9874 0.7505 0
M  V30 16 H 2.1252 2.0269 -0.8938 0
M  V30 17 H -0.3383 2.0577 -1.1455 0
M  V30 18 H -2.4224 -0.1095 -1.4429 0
M  V30 19 H -3.9117 0.6016 0.4637 0
M  V30 20 H -2.6913 1.8764 0.0918 0
M  V30 21 H -2.4668 0.7992 1.53 0
M  V30 END ATOM
M  V30 BEGIN BOND
M  V30 1 2 1 2
M  V30 2 1 2 3
M  V30 3 1 2 4
M  V30 4 2 4 5
M  V30 5 1 4 6
M  V30 6 1 5 7
M  V30 7 2 6 8
M  V30 8 1 7 9
M  V30 9 2 7 10
M  V30 10 2 9 11
M  V30 11 1 9 12
M  V30 12 1 10 13
M  V30 13 1 13 14
M  V30 14 1 8 10
M  V30 15 1 12 13
M  V30 16 1 5 15
M  V30 17 1 6 16
M  V30 18 1 8 17
M  V30 19 1 13 18
M  V30 20 1 14 19
M  V30 21 1 14 20
M  V30 22 1 14 21
M  V30 END BOND
M  V30 BEGIN COLLECTION
M  V30 MDLV30/STEABS ATOMS=(1 13)
M  V30 END COLLECTION
M  V30 END CTAB
M  END
>  <Structure No>
5272

>  <LogS>
-2.6157

>  <MMFF94 Energy>
53.111

$$$$
Compound 5273
Actelion Java MolfileCreator 2.0

  0  0  0  0  0  0              0 V3000
M  V30 BEGIN CTAB
M  V30 COUNTS 45 46 0 0 0
M  V30 BEGIN ATOM
M  V30 1 Cl 3.9973 -2.0379 -2.4459 0
M  V30 2 C 4.775 -0.9327 -1.3181 0
M  V30 3 C 4.0078 -0.122 -0.464 0
M  V30 4 C 6.1713 -0.8883 -1.277 0
M  V30 5 N 2.5764 -0.2217 -0.5478 0
M  V30 6 C 4.6724 0.7623 0.4237 0
M  V30 7 C 6.8341 -0.0256 -0.3901 0
M  V30 8 N 1.7881 0.205 0.3537 0
M  V30 9 Cl 3.8236 1.8851 1.4846 0
M  V30 10 C 6.072 0.7984 0.452 0
M  V30 11 N 8.2725 0.0208 -0.3476 0 CHG=1
M  V30 12 C 0.362 0.0981 0.2385 0
M  V30 13 O 8.9558 -0.7152 -1.0894 0
M  V30 14 O 8.9197 0.8683 0.5223 0 CHG=-1
M  V30 15 C -0.4559 0.5152 1.3078 0
M  V30 16 C -0.2333 -0.4133 -0.9282 0
M  V30 17 C -1.8528 0.4236 1.1906 0
M  V30 18 C 0.1557 1.0723 2.5638 0
M  V30 19 C -1.6221 -0.5034 -1.0328 0
M  V30 20 C -2.4422 -0.0875 0.0249 0
M  V30 21 N -3.8762 -0.1821 -0.0853 0
M  V30 22 C -4.7049 1.0196 0.0974 0
M  V30 23 C -4.508 -1.4776 -0.3798 0
M  V30 24 C -4.4652 2.0229 -1.0296 0
M  V30 25 C -4.4929 -2.3844 0.8542 0
M  V30 26 O -4.7858 1.4391 -2.2618 0
M  V30 27 O -3.1826 -2.7453 1.1978 0
M  V30 28 H 6.7369 -1.5306 -1.9392 0
M  V30 29 H 6.565 1.4818 1.1321 0
M  V30 30 H 0.3748 -0.7353 -1.7643 0
M  V30 31 H -2.4824 0.7303 2.0155 0
M  V30 32 H -0.6086 1.2379 3.3534 0
M  V30 33 H 0.9134 0.3649 2.9622 0
M  V30 34 H 0.6452 2.0431 2.3396 0
M  V30 35 H -2.0578 -0.8792 -1.9497 0
M  V30 36 H -4.4746 1.4984 1.0723 0
M  V30 37 H -5.7855 0.7584 0.1199 0
M  V30 38 H -5.5636 -1.3343 -0.696 0
M  V30 39 H -3.9941 -1.9793 -1.2267 0
M  V30 40 H -5.1073 2.9158 -0.8606 0
M  V30 41 H -3.4004 2.3459 -1.0238 0
M  V30 42 H -5.1007 -3.2964 0.657 0
M  V30 43 H -4.9545 -1.8477 1.7106 0
M  V30 44 H -4.5527 2.1101 -2.9538 0
M  V30 45 H -2.8817 -3.4036 0.5178 0
M  V30 END ATOM
M  V30 BEGIN BOND
M  V30 1 1 1 2
M  V30 2 2 2 3
M  V30 3 1 2 4
M  V30 4 1 3 5
M  V30 5 1 3 6
M  V30 6 2 4 7
M  V30 7 2 5 8
M  V30 8 1 6 9
M  V30 9 2 6 10
M  V30 10 1 7 11
M  V30 11 1 8 12
M  V30 12 2 11 13
M  V30 13 1 11 14
M  V30 14 2 12 15
M  V30 15 1 12 16
M  V30 16 1 15 17
M  V30 17 1 15 18
M  V30 18 2 16 19
M  V30 19 2 17 20
M  V30 20 1 20 21
M  V30 21 1 21 22
M  V30 22 1 21 23
M  V30 23 1 22 24
M  V30 24 1 23 25
M  V30 25 1 24 26
M  V30 26 1 25 27
M  V30 27 1 7 10
M  V30 28 1 19 20
M  V30 29 1 4 28
M  V30 30 1 10 29
M  V30 31 1 16 30
M  V30 32 1 17 31
M  V30 33 1 18 32
M  V30 34 1 18 33
M  V30 35 1 18 34
M  V30 36 1 19 35
M  V30 37 1 22 36
M  V30 38 1 22 37
M  V30 39 1 23 38
M  V30 40 1 23 39
M  V30 41 1 24 40
M  V30 42 1 24 41
M  V30 43 1 25 42
M  V30 44 1 25 43
M  V30 45 1 26 44
M  V30 46 1 27 45
M  V30 END BOND
M  V30 END CTAB
M  END
>  <Structure No>
5273

>  <LogS>
-5.9592

>  <MMFF94 Energy>
117

$$$$
Compound 5274
Actelion Java MolfileCreator 2.0

  0  0  0  0  0  0              0 V3000
M  V30 BEGIN CTAB
M  V30 COUNTS 34 35 0 0 0
M  V30 BEGIN ATOM
M  V30 1 Cl 0.5729 4.0155 2.1291 0
M  V30 2 C 0.9104 2.9539 0.7727 0
M  V30 3 C 1.2764 3.4869 -0.4691 0
M  V30 4 C 0.8106 1.568 0.9359 0
M  V30 5 F 1.3742 4.8293 -0.6378 0
M  V30 6 C 1.5392 2.6338 -1.5444 0
M  V30 7 C 1.0758 0.7036 -0.1404 0
M  V30 8 C 1.4388 1.2493 -1.3835 0
M  V30 9 N 0.9488 -0.7244 0.0235 0
M  V30 10 C -0.2119 -1.2629 0.699 0
M  V30 11 C 2.0716 -1.5993 -0.3685 0 CFG=1
M  V30 12 O -0.0808 -2.2401 1.4852 0
M  V30 13 C -1.5612 -0.6866 0.49 0
M  V30 14 C 2.7811 -2.1298 0.8493 0
M  V30 15 C 1.5912 -2.7161 -1.3034 0
M  V30 16 C -2.5202 -0.742 1.5172 0
M  V30 17 C -1.9103 -0.0992 -0.7394 0
M  V30 18 O 3.4771 -1.3508 1.5522 0
M  V30 19 O 2.655 -3.4612 1.2305 0 CHG=-1
M  V30 20 C -3.7939 -0.1978 1.325 0
M  V30 21 C -3.1849 0.4437 -0.9266 0
M  V30 22 C -4.125 0.3971 0.1053 0
M  V30 23 H 0.5308 1.1625 1.9002 0
M  V30 24 H 1.8152 3.0455 -2.5066 0
M  V30 25 H 1.6223 0.6035 -2.2325 0
M  V30 26 H 2.8262 -1.0161 -0.9408 0
M  V30 27 H 1.0933 -2.2715 -2.1913 0
M  V30 28 H 2.4561 -3.3196 -1.6523 0
M  V30 29 H 0.8698 -3.3878 -0.792 0
M  V30 30 H -2.2797 -1.1931 2.4719 0
M  V30 31 H -1.2054 -0.0743 -1.5603 0
M  V30 32 H -4.5243 -0.2368 2.1228 0
M  V30 33 H -3.4457 0.8957 -1.8747 0
M  V30 34 H -5.1115 0.8173 -0.0417 0
M  V30 END ATOM
M  V30 BEGIN BOND
M  V30 1 1 1 2
M  V30 2 2 2 3
M  V30 3 1 2 4
M  V30 4 1 3 5
M  V30 5 1 3 6
M  V30 6 2 4 7
M  V30 7 2 6 8
M  V30 8 1 7 9
M  V30 9 1 9 10
M  V30 10 1 9 11
M  V30 11 2 10 12
M  V30 12 1 10 13
M  V30 13 1 11 14
M  V30 14 1 11 15
M  V30 15 2 13 16
M  V30 16 1 13 17
M  V30 17 2 14 18
M  V30 18 1 14 19
M  V30 19 1 16 20
M  V30 20 2 17 21
M  V30 21 2 20 22
M  V30 22 1 7 8
M  V30 23 1 21 22
M  V30 24 1 4 23
M  V30 25 1 6 24
M  V30 26 1 8 25
M  V30 27 1 11 26
M  V30 28 1 15 27
M  V30 29 1 15 28
M  V30 30 1 15 29
M  V30 31 1 16 30
M  V30 32 1 17 31
M  V30 33 1 20 32
M  V30 34 1 21 33
M  V30 35 1 22 34
M  V30 END BOND
M  V30 BEGIN COLLECTION
M  V30 MDLV30/STEABS ATOMS=(1 11)
M  V30 END COLLECTION
M  V30 END CTAB
M  END
>  <Structure No>
5274

>  <LogS>
-4.2474

>  <MMFF94 Energy>
99.522

$$$$
Compound 5275
Actelion Java MolfileCreator 2.0

  0  0  0  0  0  0              0 V3000
M  V30 BEGIN CTAB
M  V30 COUNTS 35 36 0 0 0
M  V30 BEGIN ATOM
M  V30 1 Cl 0.324 3.9756 1.7835 0
M  V30 2 C -0.3105 2.9111 0.5015 0
M  V30 3 C 0.7742 2.0006 -0.0075 0
M  V30 4 O 1.8894 2.5087 -0.3093 0
M  V30 5 N 0.5599 0.5816 -0.1949 0
M  V30 6 C -0.7892 0.0689 -0.2395 0
M  V30 7 C 1.7218 -0.2798 -0.5167 0 CFG=2
M  V30 8 C -1.5476 0.1747 -1.4289 0
M  V30 9 C -1.3626 -0.5276 0.9074 0
M  V30 10 C 1.3825 -1.7152 -0.7137 0
M  V30 11 C 2.7188 -0.3417 0.6599 0
M  V30 12 C -2.8599 -0.322 -1.4595 0
M  V30 13 C -0.9765 0.8387 -2.6528 0
M  V30 14 C -2.6672 -1.0405 0.8411 0
M  V30 15 C -0.5855 -0.6519 2.1889 0
M  V30 16 O 0.6288 -2.1486 -1.6246 0
M  V30 17 O 2.0442 -2.5498 0.156 0
M  V30 18 C 2.9172 -1.8298 1.0046 0
M  V30 19 C -3.4108 -0.933 -0.3336 0
M  V30 20 H -1.1587 2.3422 0.9333 0
M  V30 21 H -0.69 3.5341 -0.3357 0
M  V30 22 H 2.227 0.0936 -1.4345 0
M  V30 23 H 3.6876 0.118 0.3662 0
M  V30 24 H 2.3329 0.1985 1.5518 0
M  V30 25 H -3.4585 -0.2418 -2.3587 0
M  V30 26 H -1.6206 0.6747 -3.5429 0
M  V30 27 H 0.0277 0.4252 -2.8811 0
M  V30 28 H -0.8914 1.9316 -2.4781 0
M  V30 29 H -3.1151 -1.5183 1.7041 0
M  V30 30 H 0.1337 -1.4917 2.1066 0
M  V30 31 H -1.259 -0.8475 3.0505 0
M  V30 32 H -0.0357 0.2882 2.4029 0
M  V30 33 H 3.9656 -2.1412 0.8082 0
M  V30 34 H 2.6607 -2.0308 2.0667 0
M  V30 35 H -4.4202 -1.3222 -0.3706 0
M  V30 END ATOM
M  V30 BEGIN BOND
M  V30 1 1 1 2
M  V30 2 1 2 3
M  V30 3 2 3 4
M  V30 4 1 3 5
M  V30 5 1 5 6
M  V30 6 1 5 7
M  V30 7 2 6 8
M  V30 8 1 6 9
M  V30 9 1 7 10
M  V30 10 1 7 11
M  V30 11 1 8 12
M  V30 12 1 8 13
M  V30 13 2 9 14
M  V30 14 1 9 15
M  V30 15 2 10 16
M  V30 16 1 10 17
M  V30 17 1 11 18
M  V30 18 2 12 19
M  V30 19 1 14 19
M  V30 20 1 17 18
M  V30 21 1 2 20
M  V30 22 1 2 21
M  V30 23 1 7 22
M  V30 24 1 11 23
M  V30 25 1 11 24
M  V30 26 1 12 25
M  V30 27 1 13 26
M  V30 28 1 13 27
M  V30 29 1 13 28
M  V30 30 1 14 29
M  V30 31 1 15 30
M  V30 32 1 15 31
M  V30 33 1 15 32
M  V30 34 1 18 33
M  V30 35 1 18 34
M  V30 36 1 19 35
M  V30 END BOND
M  V30 BEGIN COLLECTION
M  V30 MDLV30/STEABS ATOMS=(1 7)
M  V30 END COLLECTION
M  V30 END CTAB
M  END
>  <Structure No>
5275

>  <LogS>
-3.2855

>  <MMFF94 Energy>
55.645

$$$$
Compound 5276
Actelion Java MolfileCreator 2.0

  0  0  0  0  0  0              0 V3000
M  V30 BEGIN CTAB
M  V30 COUNTS 39 39 0 0 0
M  V30 BEGIN ATOM
M  V30 1 Cl 6.7023 0.8863 0.5639 0
M  V30 2 C 5.5125 -0.2378 1.2721 0
M  V30 3 C 4.5884 -0.8168 0.1994 0
M  V30 4 N 3.7116 0.2158 -0.3576 0
M  V30 5 N 4.1766 0.9656 -1.4535 0
M  V30 6 C 2.435 0.4867 0.2528 0
M  V30 7 O 3.6219 2.0267 -1.8069 0
M  V30 8 O 2.2977 0.3458 1.4988 0
M  V30 9 N 1.3099 0.8757 -0.5504 0
M  V30 10 C 0.0154 1.2385 0.0272 0
M  V30 11 C -0.7725 -0.0136 0.4617 0 CFG=1
M  V30 12 O -1.8885 0.3545 1.2727 0
M  V30 13 C -1.098 -0.9917 -0.7068 0 CFG=2
M  V30 14 C -3.1307 0.3777 0.5835 0 CFG=1
M  V30 15 O -1.4253 -0.3021 -1.8903 0
M  V30 16 C -2.2715 -1.8804 -0.2953 0 CFG=1
M  V30 17 O -3.1109 1.3241 -0.4739 0
M  V30 18 C -3.5145 -1.0238 0.0408 0 CFG=1
M  V30 19 O -2.5631 -2.7811 -1.3328 0
M  V30 20 C -3.2626 2.6319 0.0354 0
M  V30 21 O -4.298 -1.6942 0.9964 0
M  V30 22 H 6.066 -1.066 1.7627 0
M  V30 23 H 4.9229 0.2945 2.0474 0
M  V30 24 H 5.1977 -1.2717 -0.6115 0
M  V30 25 H 3.9764 -1.6317 0.645 0
M  V30 26 H 1.4086 0.9056 -1.5891 0
M  V30 27 H 0.1746 1.9064 0.9017 0
M  V30 28 H -0.5654 1.8176 -0.7202 0
M  V30 29 H -0.1034 -0.5824 1.1429 0
M  V30 30 H -0.2122 -1.6502 -0.8811 0
M  V30 31 H -3.9192 0.6524 1.3253 0
M  V30 32 H -0.6005 -0.2472 -2.4393 0
M  V30 33 H -1.9568 -2.4496 0.6129 0
M  V30 34 H -4.1195 -0.8733 -0.8855 0
M  V30 35 H -3.0934 -3.5187 -0.9326 0
M  V30 36 H -3.1137 3.3534 -0.7936 0
M  V30 37 H -4.29 2.7822 0.4339 0
M  V30 38 H -2.5064 2.8597 0.8195 0
M  V30 39 H -4.7934 -2.4079 0.5159 0
M  V30 END ATOM
M  V30 BEGIN BOND
M  V30 1 1 1 2
M  V30 2 1 2 3
M  V30 3 1 3 4
M  V30 4 1 4 5
M  V30 5 1 4 6
M  V30 6 2 5 7
M  V30 7 2 6 8
M  V30 8 1 6 9
M  V30 9 1 9 10
M  V30 10 1 10 11
M  V30 11 1 11 12
M  V30 12 1 11 13
M  V30 13 1 12 14
M  V30 14 1 13 15
M  V30 15 1 13 16
M  V30 16 1 14 17
M  V30 17 1 14 18
M  V30 18 1 16 19
M  V30 19 1 17 20
M  V30 20 1 18 21
M  V30 21 1 16 18
M  V30 22 1 2 22
M  V30 23 1 2 23
M  V30 24 1 3 24
M  V30 25 1 3 25
M  V30 26 1 9 26
M  V30 27 1 10 27
M  V30 28 1 10 28
M  V30 29 1 11 29
M  V30 30 1 13 30
M  V30 31 1 14 31
M  V30 32 1 15 32
M  V30 33 1 16 33
M  V30 34 1 18 34
M  V30 35 1 19 35
M  V30 36 1 20 36
M  V30 37 1 20 37
M  V30 38 1 20 38
M  V30 39 1 21 39
M  V30 END BOND
M  V30 BEGIN COLLECTION
M  V30 MDLV30/STEABS ATOMS=(5 11 13 14 16 18)
M  V30 END COLLECTION
M  V30 END CTAB
M  END
>  <Structure No>
5276

>  <LogS>
-1.5613

>  <MMFF94 Energy>
49.907

$$$$
Compound 5277
Actelion Java MolfileCreator 2.0

  0  0  0  0  0  0              0 V3000
M  V30 BEGIN CTAB
M  V30 COUNTS 23 24 0 0 0
M  V30 BEGIN ATOM
M  V30 1 Cl -0.93 -0.93 -2.4531 0
M  V30 2 C -1.7577 -0.2984 -1.0358 0
M  V30 3 C -1.2315 -0.4716 0.2611 0
M  V30 4 C -2.9924 0.3397 -1.2059 0
M  V30 5 O 0.0011 -1.0991 0.4784 0
M  V30 6 C -1.9693 -0.0366 1.3688 0
M  V30 7 C -3.7106 0.7935 -0.0948 0
M  V30 8 C 1.2225 -0.6605 -0.0544 0
M  V30 9 C -3.2008 0.5998 1.1923 0
M  V30 10 Cl -5.2578 1.5905 -0.315 0
M  V30 11 C 2.311 -1.5414 -0.0495 0
M  V30 12 C 1.3924 0.6406 -0.5658 0
M  V30 13 C 3.5476 -1.1421 -0.5656 0
M  V30 14 C 2.6297 1.038 -1.0816 0
M  V30 15 C 3.7075 0.1468 -1.0841 0
M  V30 16 Cl 5.2592 0.6471 -1.731 0
M  V30 17 H -3.3993 0.4726 -2.2005 0
M  V30 18 H -1.5794 -0.1808 2.3684 0
M  V30 19 H -3.7572 0.9414 2.0559 0
M  V30 20 H 2.1955 -2.5408 0.3504 0
M  V30 21 H 0.575 1.3496 -0.5597 0
M  V30 22 H 4.3798 -1.8344 -0.5611 0
M  V30 23 H 2.7504 2.0393 -1.4752 0
M  V30 END ATOM
M  V30 BEGIN BOND
M  V30 1 1 1 2
M  V30 2 2 2 3
M  V30 3 1 2 4
M  V30 4 1 3 5
M  V30 5 1 3 6
M  V30 6 2 4 7
M  V30 7 1 5 8
M  V30 8 2 6 9
M  V30 9 1 7 10
M  V30 10 2 8 11
M  V30 11 1 8 12
M  V30 12 1 11 13
M  V30 13 2 12 14
M  V30 14 2 13 15
M  V30 15 1 15 16
M  V30 16 1 7 9
M  V30 17 1 14 15
M  V30 18 1 4 17
M  V30 19 1 6 18
M  V30 20 1 9 19
M  V30 21 1 11 20
M  V30 22 1 12 21
M  V30 23 1 13 22
M  V30 24 1 14 23
M  V30 END BOND
M  V30 END CTAB
M  END
>  <Structure No>
5277

>  <LogS>
-6.2196

>  <MMFF94 Energy>
40.068

$$$$
Compound 5278
Actelion Java MolfileCreator 2.0

  0  0  0  0  0  0              0 V3000
M  V30 BEGIN CTAB
M  V30 COUNTS 22 23 0 0 0
M  V30 BEGIN ATOM
M  V30 1 Cl 4.066 -2.0767 -0.5414 0
M  V30 2 C 2.9539 -0.8319 0.0292 0
M  V30 3 C 1.5715 -0.949 -0.2151 0
M  V30 4 C 3.4473 0.2827 0.7314 0
M  V30 5 Cl 0.941 -2.3441 -1.0956 0
M  V30 6 C 0.6921 0.0517 0.2455 0
M  V30 7 Cl 5.1655 0.4699 1.0592 0
M  V30 8 C 2.567 1.2693 1.184 0
M  V30 9 C -0.7626 -0.0402 0.0062 0
M  V30 10 C 1.198 1.1559 0.9433 0
M  V30 11 C -1.3276 0.5174 -1.1588 0
M  V30 12 C -1.5971 -0.6862 0.941 0
M  V30 13 Cl -0.3323 1.3342 -2.3597 0
M  V30 14 C -2.7061 0.4247 -1.3801 0
M  V30 15 Cl -0.9446 -1.401 2.412 0
M  V30 16 C -2.9739 -0.7714 0.7067 0
M  V30 17 C -3.5279 -0.2177 -0.4504 0
M  V30 18 Cl -5.255 -0.3298 -0.7361 0
M  V30 19 H 2.9441 2.1282 1.7247 0
M  V30 20 H 0.5293 1.9297 1.3011 0
M  V30 21 H -3.1391 0.8524 -2.2757 0
M  V30 22 H -3.6141 -1.2688 1.4248 0
M  V30 END ATOM
M  V30 BEGIN BOND
M  V30 1 1 1 2
M  V30 2 2 2 3
M  V30 3 1 2 4
M  V30 4 1 3 5
M  V30 5 1 3 6
M  V30 6 1 4 7
M  V30 7 2 4 8
M  V30 8 1 6 9
M  V30 9 2 6 10
M  V30 10 2 9 11
M  V30 11 1 9 12
M  V30 12 1 11 13
M  V30 13 1 11 14
M  V30 14 1 12 15
M  V30 15 2 12 16
M  V30 16 2 14 17
M  V30 17 1 17 18
M  V30 18 1 8 10
M  V30 19 1 16 17
M  V30 20 1 8 19
M  V30 21 1 10 20
M  V30 22 1 14 21
M  V30 23 1 16 22
M  V30 END BOND
M  V30 END CTAB
M  END
>  <Structure No>
5278

>  <LogS>
-8.2399

>  <MMFF94 Energy>
42.155

$$$$
Compound 5279
Actelion Java MolfileCreator 2.0

  0  0  0  0  0  0              0 V3000
M  V30 BEGIN CTAB
M  V30 COUNTS 20 19 0 0 0
M  V30 BEGIN ATOM
M  V30 1 O 3.5193 -1.3283 -1.3283 0
M  V30 2 C 3.2375 -0.2567 -0.7303 0
M  V30 3 O 3.744 0.948 -1.2011 0 CHG=-1
M  V30 4 C 2.3185 -0.2722 0.449 0
M  V30 5 C 0.8905 -0.101 0.0132 0
M  V30 6 C -0.102 -0.0808 0.9175 0
M  V30 7 C -1.5555 0.0882 0.5354 0
M  V30 8 C -1.8021 1.4418 -0.1407 0
M  V30 9 C -2.0402 -1.0689 -0.3456 0
M  V30 10 H 2.4285 -1.2353 0.9931 0
M  V30 11 H 2.5968 0.5534 1.1386 0
M  V30 12 H 0.6608 0.0067 -1.0437 0
M  V30 13 H 0.1378 -0.1895 1.9722 0
M  V30 14 H -2.1538 0.0684 1.4731 0
M  V30 15 H -1.4458 2.2657 0.514 0
M  V30 16 H -2.8894 1.5852 -0.3178 0
M  V30 17 H -1.2741 1.5036 -1.1158 0
M  V30 18 H -1.5181 -1.0705 -1.3258 0
M  V30 19 H -1.8539 -2.039 0.1627 0
M  V30 20 H -3.1322 -0.9763 -0.5269 0
M  V30 END ATOM
M  V30 BEGIN BOND
M  V30 1 2 1 2
M  V30 2 1 2 3
M  V30 3 1 2 4
M  V30 4 1 4 5
M  V30 5 2 5 6
M  V30 6 1 6 7
M  V30 7 1 7 8
M  V30 8 1 7 9
M  V30 9 1 4 10
M  V30 10 1 4 11
M  V30 11 1 5 12
M  V30 12 1 6 13
M  V30 13 1 7 14
M  V30 14 1 8 15
M  V30 15 1 8 16
M  V30 16 1 8 17
M  V30 17 1 9 18
M  V30 18 1 9 19
M  V30 19 1 9 20
M  V30 END BOND
M  V30 END CTAB
M  END
>  <Structure No>
5279

>  <LogS>
-1.1487

>  <MMFF94 Energy>
41.9

$$$$
Compound 5280
Actelion Java MolfileCreator 2.0

  0  0  0  0  0  0              0 V3000
M  V30 BEGIN CTAB
M  V30 COUNTS 39 38 0 0 0
M  V30 BEGIN ATOM
M  V30 1 S 0.4954 1.7348 -2.0655 0
M  V30 2 N -0.1898 0.1696 -2.5345 0
M  V30 3 N -1.0981 2.4807 -1.8412 0
M  V30 4 C 0.0255 -0.9601 -1.677 0
M  V30 5 C -0.6299 -0.021 -3.9153 0
M  V30 6 C -1.7785 2.3888 -0.5806 0
M  V30 7 C -1.6667 3.2756 -2.9274 0
M  V30 8 O -0.643 -2.0175 -1.8382 0
M  V30 9 O 1.0093 -0.904 -0.6903 0
M  V30 10 O -2.8768 2.9865 -0.4117 0
M  V30 11 O -1.2306 1.6463 0.4651 0
M  V30 12 N 1.3005 -2.0069 0.0819 0
M  V30 13 N -1.8348 1.634 1.705 0
M  V30 14 C 2.266 -1.9955 0.946 0
M  V30 15 C -1.3769 0.9271 2.6907 0
M  V30 16 S 3.2921 -0.534 1.1653 0
M  V30 17 C 2.5261 -3.2139 1.7676 0
M  V30 18 S -2.222 0.9866 4.2702 0
M  V30 19 C -0.1679 0.0615 2.529 0
M  V30 20 C 4.4856 -1.0353 -0.1125 0
M  V30 21 C -3.3177 -0.4097 3.8691 0
M  V30 22 H 0.2565 -0.1067 -4.5786 0
M  V30 23 H -1.2514 -0.9353 -4.0164 0
M  V30 24 H -1.2457 0.8397 -4.2435 0
M  V30 25 H -0.9858 3.2869 -3.8037 0
M  V30 26 H -1.8193 4.3228 -2.5896 0
M  V30 27 H -2.6414 2.8436 -3.2377 0
M  V30 28 H 1.6334 -3.4444 2.387 0
M  V30 29 H 3.3956 -3.0525 2.4393 0
M  V30 30 H 2.7445 -4.0739 1.1006 0
M  V30 31 H 0.1008 -0.4208 3.4911 0
M  V30 32 H 0.6895 0.6768 2.1869 0
M  V30 33 H -0.3854 -0.7293 1.7827 0
M  V30 34 H 4.9551 -2.0033 0.1616 0
M  V30 35 H 5.2775 -0.262 -0.1921 0
M  V30 36 H 3.9771 -1.1275 -1.0949 0
M  V30 37 H -3.9853 -0.6067 4.733 0
M  V30 38 H -2.7164 -1.3206 3.6649 0
M  V30 39 H -3.9395 -0.1649 2.9828 0
M  V30 END ATOM
M  V30 BEGIN BOND
M  V30 1 1 1 2
M  V30 2 1 1 3
M  V30 3 1 2 4
M  V30 4 1 2 5
M  V30 5 1 3 6
M  V30 6 1 3 7
M  V30 7 2 4 8
M  V30 8 1 4 9
M  V30 9 2 6 10
M  V30 10 1 6 11
M  V30 11 1 9 12
M  V30 12 1 11 13
M  V30 13 2 12 14
M  V30 14 2 13 15
M  V30 15 1 14 16
M  V30 16 1 14 17
M  V30 17 1 15 18
M  V30 18 1 15 19
M  V30 19 1 16 20
M  V30 20 1 18 21
M  V30 21 1 5 22
M  V30 22 1 5 23
M  V30 23 1 5 24
M  V30 24 1 7 25
M  V30 25 1 7 26
M  V30 26 1 7 27
M  V30 27 1 17 28
M  V30 28 1 17 29
M  V30 29 1 17 30
M  V30 30 1 19 31
M  V30 31 1 19 32
M  V30 32 1 19 33
M  V30 33 1 20 34
M  V30 34 1 20 35
M  V30 35 1 20 36
M  V30 36 1 21 37
M  V30 37 1 21 38
M  V30 38 1 21 39
M  V30 END BOND
M  V30 END CTAB
M  END
>  <Structure No>
5280

>  <LogS>
-4.0055

>  <MMFF94 Energy>
48.211

$$$$
Compound 5281
Actelion Java MolfileCreator 2.0

  0  0  0  0  0  0              0 V3000
M  V30 BEGIN CTAB
M  V30 COUNTS 38 40 0 0 0
M  V30 BEGIN ATOM
M  V30 1 F 6.6498 0.4045 -0.8091 0
M  V30 2 C 5.4019 0.2488 -1.3875 0
M  V30 3 F 5.2942 1.1089 -2.4641 0
M  V30 4 F 5.295 -1.055 -1.8393 0
M  V30 5 C 4.3098 0.5577 -0.3944 0
M  V30 6 C 3.0385 -0.0277 -0.5322 0
M  V30 7 C 4.5191 1.5036 0.6234 0
M  V30 8 C 1.9989 0.2929 0.3586 0
M  V30 9 C 3.4921 1.821 1.5148 0
M  V30 10 C 0.6671 -0.3485 0.2174 0
M  V30 11 C 2.2405 1.2159 1.3893 0
M  V30 12 C -0.5196 0.4085 0.212 0
M  V30 13 C 0.5794 -1.7408 0.0701 0
M  V30 14 O -0.4658 1.6675 0.2806 0
M  V30 15 C -1.7639 -0.2374 0.0853 0
M  V30 16 N -0.6317 -2.3585 -0.048 0
M  V30 17 C -3.0392 0.5232 0.0853 0
M  V30 18 C -1.7876 -1.6327 -0.0585 0
M  V30 19 C -0.6878 -3.8106 -0.2331 0
M  V30 20 C -3.3062 1.4731 1.0882 0
M  V30 21 C -4.0062 0.2889 -0.9087 0
M  V30 22 C -4.5124 2.1804 1.0884 0
M  V30 23 C -5.2106 0.9992 -0.9044 0
M  V30 24 C -5.463 1.9448 0.0923 0
M  V30 25 H 2.8516 -0.7228 -1.3419 0
M  V30 26 H 5.4766 1.9976 0.7302 0
M  V30 27 H 3.6667 2.5398 2.3051 0
M  V30 28 H 1.4626 1.4628 2.1012 0
M  V30 29 H 1.4882 -2.3325 0.0653 0
M  V30 30 H -2.7405 -2.1396 -0.1641 0
M  V30 31 H -0.6393 -4.0489 -1.3162 0
M  V30 32 H 0.1588 -4.3088 0.2867 0
M  V30 33 H -1.6282 -4.2274 0.1885 0
M  V30 34 H -2.5889 1.6558 1.8786 0
M  V30 35 H -3.8235 -0.4339 -1.694 0
M  V30 36 H -4.7117 2.9087 1.8638 0
M  V30 37 H -5.9481 0.8172 -1.6753 0
M  V30 38 H -6.3962 2.4931 0.0944 0
M  V30 END ATOM
M  V30 BEGIN BOND
M  V30 1 1 1 2
M  V30 2 1 2 3
M  V30 3 1 2 4
M  V30 4 1 2 5
M  V30 5 2 5 6
M  V30 6 1 5 7
M  V30 7 1 6 8
M  V30 8 2 7 9
M  V30 9 1 8 10
M  V30 10 2 8 11
M  V30 11 1 10 12
M  V30 12 2 10 13
M  V30 13 2 12 14
M  V30 14 1 12 15
M  V30 15 1 13 16
M  V30 16 1 15 17
M  V30 17 2 15 18
M  V30 18 1 16 19
M  V30 19 2 17 20
M  V30 20 1 17 21
M  V30 21 1 20 22
M  V30 22 2 21 23
M  V30 23 2 22 24
M  V30 24 1 9 11
M  V30 25 1 16 18
M  V30 26 1 23 24
M  V30 27 1 6 25
M  V30 28 1 7 26
M  V30 29 1 9 27
M  V30 30 1 11 28
M  V30 31 1 13 29
M  V30 32 1 18 30
M  V30 33 1 19 31
M  V30 34 1 19 32
M  V30 35 1 19 33
M  V30 36 1 20 34
M  V30 37 1 21 35
M  V30 38 1 22 36
M  V30 39 1 23 37
M  V30 40 1 24 38
M  V30 END BOND
M  V30 END CTAB
M  END
>  <Structure No>
5281

>  <LogS>
-4.4384

>  <MMFF94 Energy>
112.34

$$$$
Compound 5282
Actelion Java MolfileCreator 2.0

  0  0  0  0  0  0              0 V3000
M  V30 BEGIN CTAB
M  V30 COUNTS 25 25 0 0 0
M  V30 BEGIN ATOM
M  V30 1 O 2.8617 -3.1005 1.1121 0
M  V30 2 C 3.4651 -2.2839 0.3659 0
M  V30 3 O 4.7458 -2.5846 -0.0781 0 CHG=-1
M  V30 4 C 2.8373 -1.0162 -0.0415 0
M  V30 5 C 1.5955 -0.6783 0.334 0
M  V30 6 C 0.9357 0.5889 -0.0738 0
M  V30 7 C -0.4742 0.648 -0.1425 0
M  V30 8 C 1.6876 1.7479 -0.3558 0
M  V30 9 O -1.2194 -0.5065 0.1511 0
M  V30 10 C -1.1003 1.8559 -0.5117 0
M  V30 11 C 1.0514 2.9353 -0.7211 0
M  V30 12 C -2.642 -0.5849 0.1186 0
M  V30 13 C -0.3386 2.9884 -0.8017 0
M  V30 14 C -3.0801 -1.99 0.4981 0
M  V30 15 H 3.4112 -0.3667 -0.6887 0
M  V30 16 H 1.0218 -1.3771 0.9312 0
M  V30 17 H 2.7657 1.7507 -0.2704 0
M  V30 18 H -2.177 1.9302 -0.578 0
M  V30 19 H 1.6382 3.8195 -0.9342 0
M  V30 20 H -3.076 0.1387 0.8422 0
M  V30 21 H -3.0089 -0.3539 -0.9047 0
M  V30 22 H -0.8281 3.9117 -1.0836 0
M  V30 23 H -2.7251 -2.2345 1.5218 0
M  V30 24 H -2.6585 -2.7254 -0.2193 0
M  V30 25 H -4.1882 -2.0569 0.4747 0
M  V30 END ATOM
M  V30 BEGIN BOND
M  V30 1 2 1 2
M  V30 2 1 2 3
M  V30 3 1 2 4
M  V30 4 2 4 5
M  V30 5 1 5 6
M  V30 6 2 6 7
M  V30 7 1 6 8
M  V30 8 1 7 9
M  V30 9 1 7 10
M  V30 10 2 8 11
M  V30 11 1 9 12
M  V30 12 2 10 13
M  V30 13 1 12 14
M  V30 14 1 11 13
M  V30 15 1 4 15
M  V30 16 1 5 16
M  V30 17 1 8 17
M  V30 18 1 10 18
M  V30 19 1 11 19
M  V30 20 1 12 20
M  V30 21 1 12 21
M  V30 22 1 13 22
M  V30 23 1 14 23
M  V30 24 1 14 24
M  V30 25 1 14 25
M  V30 END BOND
M  V30 END CTAB
M  END
>  <Structure No>
5282

>  <LogS>
-3.3248

>  <MMFF94 Energy>
25.5

$$$$
Compound 5283
Actelion Java MolfileCreator 2.0

  0  0  0  0  0  0              0 V3000
M  V30 BEGIN CTAB
M  V30 COUNTS 22 23 0 0 0
M  V30 BEGIN ATOM
M  V30 1 Cl 0.6183 0.6183 -2.6519 0
M  V30 2 C 1.4398 0.0969 -1.1843 0
M  V30 3 C 0.7332 -0.112 0.0175 0
M  V30 4 C 2.8232 -0.1077 -1.2261 0
M  V30 5 C 1.4313 -0.5295 1.1689 0
M  V30 6 C -0.7265 0.1039 0.07 0
M  V30 7 C 3.5098 -0.5201 -0.0811 0
M  V30 8 Cl 0.5991 -0.8056 2.6959 0
M  V30 9 C 2.8149 -0.7304 1.1127 0
M  V30 10 C -1.2638 1.3623 0.4063 0
M  V30 11 C -1.5897 -0.9636 -0.2204 0
M  V30 12 Cl 5.2444 -0.7739 -0.1426 0
M  V30 13 Cl -0.2231 2.7321 0.7785 0
M  V30 14 C -2.6522 1.5366 0.4477 0
M  V30 15 C -2.9758 -0.7811 -0.1766 0
M  V30 16 C -3.5057 0.4688 0.1574 0
M  V30 17 Cl -4.0488 -2.1201 -0.5408 0
M  V30 18 H 3.3653 0.0541 -2.1494 0
M  V30 19 H 3.3505 -1.05 1.9979 0
M  V30 20 H -1.1842 -1.9342 -0.4797 0
M  V30 21 H -3.0718 2.501 0.7054 0
M  V30 22 H -4.578 0.6141 0.1922 0
M  V30 END ATOM
M  V30 BEGIN BOND
M  V30 1 1 1 2
M  V30 2 2 2 3
M  V30 3 1 2 4
M  V30 4 1 3 5
M  V30 5 1 3 6
M  V30 6 2 4 7
M  V30 7 1 5 8
M  V30 8 2 5 9
M  V30 9 2 6 10
M  V30 10 1 6 11
M  V30 11 1 7 12
M  V30 12 1 10 13
M  V30 13 1 10 14
M  V30 14 2 11 15
M  V30 15 2 14 16
M  V30 16 1 15 17
M  V30 17 1 7 9
M  V30 18 1 15 16
M  V30 19 1 4 18
M  V30 20 1 9 19
M  V30 21 1 11 20
M  V30 22 1 14 21
M  V30 23 1 16 22
M  V30 END BOND
M  V30 END CTAB
M  END
>  <Structure No>
5283

>  <LogS>
-7.47

>  <MMFF94 Energy>
27.222

$$$$
Compound 5284
Actelion Java MolfileCreator 2.0

  0  0  0  0  0  0              0 V3000
M  V30 BEGIN CTAB
M  V30 COUNTS 22 23 0 0 0
M  V30 BEGIN ATOM
M  V30 1 Cl 0.6313 -1.0825 2.5271 0
M  V30 2 C 1.4838 -0.4214 1.1355 0
M  V30 3 C 0.7901 0.0076 -0.0142 0
M  V30 4 C 2.8789 -0.3277 1.1855 0
M  V30 5 C 1.513 0.531 -1.1053 0
M  V30 6 C -0.682 -0.0898 -0.0748 0
M  V30 7 C 3.59 0.1906 0.1001 0
M  V30 8 Cl 0.6976 1.0813 -2.5657 0
M  V30 9 C 2.9079 0.6189 -1.0416 0
M  V30 10 C -1.3136 -1.2467 -0.5682 0
M  V30 11 C -1.46 0.9898 0.3672 0
M  V30 12 Cl 5.3391 0.3041 0.1712 0
M  V30 13 Cl -0.3806 -2.6274 -1.1348 0
M  V30 14 C -2.7106 -1.3105 -0.6135 0
M  V30 15 C -2.8567 0.9235 0.3207 0
M  V30 16 C -3.4851 -0.232 -0.1718 0
M  V30 17 Cl -3.7934 2.3006 0.8853 0
M  V30 18 Cl -5.2377 -0.3551 -0.247 0
M  V30 19 H 3.411 -0.6583 2.0688 0
M  V30 20 H 3.4625 1.0201 -1.8806 0
M  V30 21 H -0.9785 1.8828 0.7479 0
M  V30 22 H -3.1959 -2.2008 -0.9933 0
M  V30 END ATOM
M  V30 BEGIN BOND
M  V30 1 1 1 2
M  V30 2 2 2 3
M  V30 3 1 2 4
M  V30 4 1 3 5
M  V30 5 1 3 6
M  V30 6 2 4 7
M  V30 7 1 5 8
M  V30 8 2 5 9
M  V30 9 2 6 10
M  V30 10 1 6 11
M  V30 11 1 7 12
M  V30 12 1 10 13
M  V30 13 1 10 14
M  V30 14 2 11 15
M  V30 15 2 14 16
M  V30 16 1 15 17
M  V30 17 1 16 18
M  V30 18 1 7 9
M  V30 19 1 15 16
M  V30 20 1 4 19
M  V30 21 1 9 20
M  V30 22 1 11 21
M  V30 23 1 14 22
M  V30 END BOND
M  V30 END CTAB
M  END
>  <Structure No>
5284

>  <LogS>
-8.1199

>  <MMFF94 Energy>
29.29

$$$$
Compound 5285
Actelion Java MolfileCreator 2.0

  0  0  0  0  0  0              0 V3000
M  V30 BEGIN CTAB
M  V30 COUNTS 22 23 0 0 0
M  V30 BEGIN ATOM
M  V30 1 Cl 3.7809 -2.581 0.2763 0
M  V30 2 C 2.8388 -1.0924 0.1706 0
M  V30 3 C 3.4914 0.1552 0.1682 0
M  V30 4 C 1.4346 -1.152 0.0887 0
M  V30 5 Cl 5.2506 0.239 0.2705 0
M  V30 6 C 2.7373 1.3376 0.0839 0
M  V30 7 Cl 0.6104 -2.7141 0.0916 0
M  V30 8 C 0.6878 0.0385 0.0046 0
M  V30 9 Cl 3.5109 2.9177 0.0777 0
M  V30 10 C 1.3447 1.2742 0.0029 0
M  V30 11 C -0.7866 0.0106 -0.0825 0
M  V30 12 C -1.423 -0.0453 -1.339 0
M  V30 13 C -1.5684 0.0412 1.0902 0
M  V30 14 Cl -0.4957 -0.0852 -2.8351 0
M  V30 15 C -2.8198 -0.073 -1.4141 0
M  V30 16 Cl -0.8259 0.1111 2.6852 0
M  V30 17 C -2.9644 0.0129 1.0002 0
M  V30 18 C -3.5893 -0.0442 -0.248 0
M  V30 19 Cl -5.3401 -0.0796 -0.3515 0
M  V30 20 H 0.7703 2.1909 -0.0618 0
M  V30 21 H -3.308 -0.1172 -2.3796 0
M  V30 22 H -3.5641 0.0353 1.9016 0
M  V30 END ATOM
M  V30 BEGIN BOND
M  V30 1 1 1 2
M  V30 2 2 2 3
M  V30 3 1 2 4
M  V30 4 1 3 5
M  V30 5 1 3 6
M  V30 6 1 4 7
M  V30 7 2 4 8
M  V30 8 1 6 9
M  V30 9 2 6 10
M  V30 10 1 8 11
M  V30 11 2 11 12
M  V30 12 1 11 13
M  V30 13 1 12 14
M  V30 14 1 12 15
M  V30 15 1 13 16
M  V30 16 2 13 17
M  V30 17 2 15 18
M  V30 18 1 18 19
M  V30 19 1 8 10
M  V30 20 1 17 18
M  V30 21 1 10 20
M  V30 22 1 15 21
M  V30 23 1 17 22
M  V30 END BOND
M  V30 END CTAB
M  END
>  <Structure No>
5285

>  <LogS>
-8.68

>  <MMFF94 Energy>
41.108

$$$$
Compound 5286
Actelion Java MolfileCreator 2.0

  0  0  0  0  0  0              0 V3000
M  V30 BEGIN CTAB
M  V30 COUNTS 23 22 0 0 0
M  V30 BEGIN ATOM
M  V30 1 S -1.6818 0.2521 -0.5883 0
M  V30 2 O -1.4697 0.6761 -2.0149 0
M  V30 3 O -2.776 -0.7781 -0.5511 0
M  V30 4 C -0.1595 -0.4715 0.0612 0
M  V30 5 C -2.2182 1.6718 0.3467 0
M  V30 6 S 1.1449 0.7767 0.1125 0
M  V30 7 C 0.2685 -1.6253 -0.8598 0
M  V30 8 C -0.4113 -1.0157 1.4767 0
M  V30 9 O 1.2423 1.4655 -1.2197 0
M  V30 10 O 0.8332 1.7999 1.1687 0
M  V30 11 C 2.7315 0.0564 0.4889 0
M  V30 12 H -1.5065 2.5098 0.2037 0
M  V30 13 H -3.2187 1.9897 -0.012 0
M  V30 14 H -2.2864 1.417 1.4234 0
M  V30 15 H 0.5149 -1.2445 -1.8737 0
M  V30 16 H -0.5479 -2.3727 -0.9548 0
M  V30 17 H 1.1606 -2.1473 -0.4542 0
M  V30 18 H 0.4992 -1.5096 1.8761 0
M  V30 19 H -1.232 -1.7643 1.4681 0
M  V30 20 H -0.6919 -0.1975 2.1717 0
M  V30 21 H 3.0475 -0.6134 -0.3365 0
M  V30 22 H 2.6719 -0.5195 1.4344 0
M  V30 23 H 3.4835 0.8639 0.6036 0
M  V30 END ATOM
M  V30 BEGIN BOND
M  V30 1 2 1 2
M  V30 2 2 1 3
M  V30 3 1 1 4
M  V30 4 1 1 5
M  V30 5 1 4 6
M  V30 6 1 4 7
M  V30 7 1 4 8
M  V30 8 2 6 9
M  V30 9 2 6 10
M  V30 10 1 6 11
M  V30 11 1 5 12
M  V30 12 1 5 13
M  V30 13 1 5 14
M  V30 14 1 7 15
M  V30 15 1 7 16
M  V30 16 1 7 17
M  V30 17 1 8 18
M  V30 18 1 8 19
M  V30 19 1 8 20
M  V30 20 1 11 21
M  V30 21 1 11 22
M  V30 22 1 11 23
M  V30 END BOND
M  V30 END CTAB
M  END
>  <Structure No>
5286

>  <LogS>
-1.4504

>  <MMFF94 Energy>
-47.264

$$$$
Compound 5287
Actelion Java MolfileCreator 2.0

  0  0  0  0  0  0              0 V3000
M  V30 BEGIN CTAB
M  V30 COUNTS 34 36 0 0 0
M  V30 BEGIN ATOM
M  V30 1 Cl -2.891 1.5686 -1.4034 0
M  V30 2 C -2.7153 0.3189 -0.1714 0
M  V30 3 C -1.4802 -0.3427 0.0816 0
M  V30 4 C -3.8672 -0.0339 0.5418 0
M  V30 5 C -1.4893 -1.4193 1.0021 0
M  V30 6 C -0.204 0.0368 -0.7125 0 CFG=1
M  V30 7 C -3.8312 -1.0602 1.4827 0
M  V30 8 C -2.6481 -1.7589 1.7031 0
M  V30 9 O -0.4643 -0.2245 -2.076 0
M  V30 10 C 0.1217 1.5291 -0.5762 0
M  V30 11 C 1.0568 -0.7257 -0.2608 0
M  V30 12 C 0.8467 2.1942 -1.5813 0
M  V30 13 C -0.1875 2.2677 0.5833 0
M  V30 14 C 1.7626 -1.5817 -1.1364 0
M  V30 15 C 1.5666 -0.5456 1.045 0
M  V30 16 N 1.1783 3.5031 -1.4393 0
M  V30 17 N 0.1651 3.5751 0.6794 0
M  V30 18 C 2.9185 -2.2433 -0.7119 0
M  V30 19 C 2.7218 -1.2104 1.4631 0
M  V30 20 C 0.8358 4.1943 -0.3237 0
M  V30 21 C 3.3979 -2.06 0.5864 0
M  V30 22 Cl 4.8489 -2.8929 1.1134 0
M  V30 23 H -4.8014 0.4811 0.3555 0
M  V30 24 H -0.6122 -2.022 1.183 0
M  V30 25 H -4.7282 -1.329 2.0258 0
M  V30 26 H -2.63 -2.5761 2.4127 0
M  V30 27 H -0.8116 -1.1529 -2.1554 0
M  V30 28 H 1.1546 1.672 -2.4776 0
M  V30 29 H -0.7074 1.8093 1.4135 0
M  V30 30 H 1.4365 -1.7425 -2.1545 0
M  V30 31 H 1.0584 0.0972 1.7506 0
M  V30 32 H 3.4439 -2.8966 -1.3968 0
M  V30 33 H 3.0895 -1.0644 2.4709 0
M  V30 34 H 1.1076 5.2365 -0.229 0
M  V30 END ATOM
M  V30 BEGIN BOND
M  V30 1 1 1 2
M  V30 2 2 2 3
M  V30 3 1 2 4
M  V30 4 1 3 5
M  V30 5 1 3 6
M  V30 6 2 4 7
M  V30 7 2 5 8
M  V30 8 1 6 9
M  V30 9 1 6 10
M  V30 10 1 6 11
M  V30 11 2 10 12
M  V30 12 1 10 13
M  V30 13 2 11 14
M  V30 14 1 11 15
M  V30 15 1 12 16
M  V30 16 2 13 17
M  V30 17 1 14 18
M  V30 18 2 15 19
M  V30 19 2 16 20
M  V30 20 2 18 21
M  V30 21 1 21 22
M  V30 22 1 7 8
M  V30 23 1 17 20
M  V30 24 1 19 21
M  V30 25 1 4 23
M  V30 26 1 5 24
M  V30 27 1 7 25
M  V30 28 1 8 26
M  V30 29 1 9 27
M  V30 30 1 12 28
M  V30 31 1 13 29
M  V30 32 1 14 30
M  V30 33 1 15 31
M  V30 34 1 18 32
M  V30 35 1 19 33
M  V30 36 1 20 34
M  V30 END BOND
M  V30 BEGIN COLLECTION
M  V30 MDLV30/STEABS ATOMS=(1 6)
M  V30 END COLLECTION
M  V30 END CTAB
M  END
>  <Structure No>
5287

>  <LogS>
-4.374

>  <MMFF94 Energy>
46.558

$$$$
Compound 5288
Actelion Java MolfileCreator 2.0

  0  0  0  0  0  0              0 V3000
M  V30 BEGIN CTAB
M  V30 COUNTS 30 32 0 0 0
M  V30 BEGIN ATOM
M  V30 1 Cl -1.8217 -0.5793 -2.5677 0
M  V30 2 C -1.7789 -0.634 -0.8065 0
M  V30 3 C -0.7939 0.0413 -0.0357 0
M  V30 4 C -2.7641 -1.4007 -0.1716 0
M  V30 5 C -0.8219 -0.1174 1.3679 0
M  V30 6 C 0.3296 0.8599 -0.6849 0
M  V30 7 C -2.7825 -1.5246 1.2178 0
M  V30 8 C -1.8094 -0.8868 1.9851 0
M  V30 9 O -0.198 1.6489 -1.7302 0
M  V30 10 O 0.9562 1.6898 0.2762 0
M  V30 11 C 1.3996 -0.0791 -1.2756 0
M  V30 12 Cl -4.0195 -2.4938 1.9976 0
M  V30 13 C -0.3132 2.9331 -1.2114 0
M  V30 14 C 0.6568 3.0042 -0.075 0
M  V30 15 N 1.9837 -0.9366 -0.2458 0
M  V30 16 N 2.9359 -0.5639 0.5885 0
M  V30 17 C 1.6153 -2.1905 0.064 0
M  V30 18 C 3.1392 -1.6216 1.398 0
M  V30 19 N 2.3291 -2.6628 1.1037 0
M  V30 20 H -3.5154 -1.9099 -0.7625 0
M  V30 21 H -0.0725 0.3433 1.9979 0
M  V30 22 H -1.8122 -0.9912 3.0628 0
M  V30 23 H 2.2055 0.5312 -1.7383 0
M  V30 24 H 0.9661 -0.7075 -2.0826 0
M  V30 25 H -1.3538 3.0948 -0.8529 0
M  V30 26 H -0.069 3.6828 -1.9937 0
M  V30 27 H 1.5906 3.5175 -0.391 0
M  V30 28 H 0.2155 3.5384 0.7933 0
M  V30 29 H 0.8373 -2.7465 -0.4431 0
M  V30 30 H 3.8665 -1.6339 2.1984 0
M  V30 END ATOM
M  V30 BEGIN BOND
M  V30 1 1 1 2
M  V30 2 2 2 3
M  V30 3 1 2 4
M  V30 4 1 3 5
M  V30 5 1 3 6
M  V30 6 2 4 7
M  V30 7 2 5 8
M  V30 8 1 6 9
M  V30 9 1 6 10
M  V30 10 1 6 11
M  V30 11 1 7 12
M  V30 12 1 9 13
M  V30 13 1 10 14
M  V30 14 1 11 15
M  V30 15 1 15 16
M  V30 16 1 15 17
M  V30 17 2 16 18
M  V30 18 2 17 19
M  V30 19 1 7 8
M  V30 20 1 13 14
M  V30 21 1 18 19
M  V30 22 1 4 20
M  V30 23 1 5 21
M  V30 24 1 8 22
M  V30 25 1 11 23
M  V30 26 1 11 24
M  V30 27 1 13 25
M  V30 28 1 13 26
M  V30 29 1 14 27
M  V30 30 1 14 28
M  V30 31 1 17 29
M  V30 32 1 18 30
M  V30 END BOND
M  V30 END CTAB
M  END
>  <Structure No>
5288

>  <LogS>
-3.0031

>  <MMFF94 Energy>
38.034

$$$$
Compound 5289
Actelion Java MolfileCreator 2.0

  0  0  0  0  0  0              0 V3000
M  V30 BEGIN CTAB
M  V30 COUNTS 39 41 0 0 0
M  V30 BEGIN ATOM
M  V30 1 Cl -2.4559 0.4908 -2.292 0
M  V30 2 C -2.5413 -0.5683 -0.8855 0
M  V30 3 C -1.5733 -0.5819 0.1604 0
M  V30 4 C -3.6576 -1.4127 -0.8165 0
M  V30 5 C -1.8054 -1.4277 1.2675 0
M  V30 6 C -0.3382 0.3289 0.1989 0 CFG=1
M  V30 7 C -3.8465 -2.2584 0.2764 0
M  V30 8 C -2.9233 -2.2606 1.3195 0
M  V30 9 O 0.7288 -0.3692 0.8131 0
M  V30 10 O 0.0371 0.742 -1.1002 0
M  V30 11 C -0.6294 1.5776 1.0544 0
M  V30 12 Cl -5.2536 -3.3036 0.3466 0
M  V30 13 C 1.6056 -0.7061 -0.2124 0 CFG=1
M  V30 14 C 1.3401 0.2962 -1.2995 0
M  V30 15 N -1.7004 2.3914 0.4833 0
M  V30 16 C 3.0522 -0.6766 0.3062 0
M  V30 17 N -1.5315 3.2936 -0.4652 0
M  V30 18 C -3.0053 2.3454 0.7978 0
M  V30 19 C 4.0517 -1.1606 -0.7534 0
M  V30 20 C -2.7595 3.7913 -0.7107 0
M  V30 21 N -3.7133 3.2217 0.0597 0
M  V30 22 C 5.4747 -1.1717 -0.2029 0
M  V30 23 H -4.3901 -1.4044 -1.6145 0
M  V30 24 H -1.119 -1.4412 2.105 0
M  V30 25 H -3.0734 -2.9043 2.177 0
M  V30 26 H -0.9003 1.2748 2.0903 0
M  V30 27 H 0.2933 2.1941 1.1259 0
M  V30 28 H 1.3549 -1.7312 -0.5693 0
M  V30 29 H 2.0269 1.169 -1.2393 0
M  V30 30 H 1.4297 -0.1735 -2.3022 0
M  V30 31 H 3.3154 0.3535 0.6345 0
M  V30 32 H 3.119 -1.3424 1.1947 0
M  V30 33 H -3.4369 1.6857 1.5396 0
M  V30 34 H 4.0189 -0.4914 -1.6401 0
M  V30 35 H 3.7841 -2.1893 -1.079 0
M  V30 36 H -2.9603 4.5585 -1.446 0
M  V30 37 H 5.5464 -1.8576 0.6681 0
M  V30 38 H 5.7753 -0.1489 0.1095 0
M  V30 39 H 6.175 -1.523 -0.9897 0
M  V30 END ATOM
M  V30 BEGIN BOND
M  V30 1 1 1 2
M  V30 2 2 2 3
M  V30 3 1 2 4
M  V30 4 1 3 5
M  V30 5 1 3 6
M  V30 6 2 4 7
M  V30 7 2 5 8
M  V30 8 1 6 9
M  V30 9 1 6 10
M  V30 10 1 6 11
M  V30 11 1 7 12
M  V30 12 1 9 13
M  V30 13 1 10 14
M  V30 14 1 11 15
M  V30 15 1 13 16
M  V30 16 1 15 17
M  V30 17 1 15 18
M  V30 18 1 16 19
M  V30 19 2 17 20
M  V30 20 2 18 21
M  V30 21 1 19 22
M  V30 22 1 7 8
M  V30 23 1 13 14
M  V30 24 1 20 21
M  V30 25 1 4 23
M  V30 26 1 5 24
M  V30 27 1 8 25
M  V30 28 1 11 26
M  V30 29 1 11 27
M  V30 30 1 13 28
M  V30 31 1 14 29
M  V30 32 1 14 30
M  V30 33 1 16 31
M  V30 34 1 16 32
M  V30 35 1 18 33
M  V30 36 1 19 34
M  V30 37 1 19 35
M  V30 38 1 20 36
M  V30 39 1 22 37
M  V30 40 1 22 38
M  V30 41 1 22 39
M  V30 END BOND
M  V30 BEGIN COLLECTION
M  V30 MDLV30/STEABS ATOMS=(2 6 13)
M  V30 END COLLECTION
M  V30 END CTAB
M  END
>  <Structure No>
5289

>  <LogS>
-3.4929

>  <MMFF94 Energy>
39.301

$$$$
Compound 5290
Actelion Java MolfileCreator 2.0

  0  0  0  0  0  0              0 V3000
M  V30 BEGIN CTAB
M  V30 COUNTS 36 38 0 0 0
M  V30 BEGIN ATOM
M  V30 1 Cl -1.8888 0.3282 2.4641 0
M  V30 2 C -2.0344 -0.6764 1.0232 0
M  V30 3 C -1.0537 -0.7328 -0.0089 0
M  V30 4 C -3.21 -1.4308 0.9132 0
M  V30 5 C -1.3312 -1.5249 -1.1444 0
M  V30 6 C 0.2484 0.0806 0.0 0 CFG=2
M  V30 7 C -3.4447 -2.2269 -0.2074 0
M  V30 8 C -2.5079 -2.2686 -1.2372 0
M  V30 9 O 1.2682 -0.6745 -0.6287 0
M  V30 10 O 0.6417 0.4165 1.3131 0
M  V30 11 C 0.0658 1.3778 -0.812 0
M  V30 12 Cl -4.9252 -3.1599 -0.3284 0
M  V30 13 C 2.232 -0.9456 0.3439 0 CFG=2
M  V30 14 C 1.6434 -0.4853 1.649 0
M  V30 15 N -0.9544 2.2467 -0.2297 0
M  V30 16 C 3.5382 -0.2051 0.0083 0
M  V30 17 N -2.2308 2.2335 -0.5658 0
M  V30 18 C -0.7796 3.1625 0.7365 0
M  V30 19 C 4.128 -0.6753 -1.3193 0
M  V30 20 C -2.818 3.1614 0.2146 0
M  V30 21 N -1.9422 3.7674 1.0473 0
M  V30 22 H -3.952 -1.3907 1.7014 0
M  V30 23 H -0.6346 -1.5661 -1.9723 0
M  V30 24 H -2.6924 -2.8735 -2.1158 0
M  V30 25 H -0.214 1.1322 -1.8599 0
M  V30 26 H 1.0332 1.9251 -0.8531 0
M  V30 27 H 2.4231 -2.0409 0.382 0
M  V30 28 H 1.1921 -1.343 2.1953 0
M  V30 29 H 2.3887 0.0051 2.3117 0
M  V30 30 H 3.3505 0.8899 -0.0456 0
M  V30 31 H 4.2853 -0.3909 0.8106 0
M  V30 32 H 0.1678 3.3841 1.2104 0
M  V30 33 H 5.0835 -0.143 -1.5099 0
M  V30 34 H 3.4295 -0.4554 -2.1544 0
M  V30 35 H 4.33 -1.767 -1.2868 0
M  V30 36 H -3.8738 3.3934 0.181 0
M  V30 END ATOM
M  V30 BEGIN BOND
M  V30 1 1 1 2
M  V30 2 2 2 3
M  V30 3 1 2 4
M  V30 4 1 3 5
M  V30 5 1 3 6
M  V30 6 2 4 7
M  V30 7 2 5 8
M  V30 8 1 6 9
M  V30 9 1 6 10
M  V30 10 1 6 11
M  V30 11 1 7 12
M  V30 12 1 9 13
M  V30 13 1 10 14
M  V30 14 1 11 15
M  V30 15 1 13 16
M  V30 16 1 15 17
M  V30 17 1 15 18
M  V30 18 1 16 19
M  V30 19 2 17 20
M  V30 20 2 18 21
M  V30 21 1 7 8
M  V30 22 1 13 14
M  V30 23 1 20 21
M  V30 24 1 4 22
M  V30 25 1 5 23
M  V30 26 1 8 24
M  V30 27 1 11 25
M  V30 28 1 11 26
M  V30 29 1 13 27
M  V30 30 1 14 28
M  V30 31 1 14 29
M  V30 32 1 16 30
M  V30 33 1 16 31
M  V30 34 1 18 32
M  V30 35 1 19 33
M  V30 36 1 19 34
M  V30 37 1 19 35
M  V30 38 1 20 36
M  V30 END BOND
M  V30 BEGIN COLLECTION
M  V30 MDLV30/STEABS ATOMS=(2 6 13)
M  V30 END COLLECTION
M  V30 END CTAB
M  END
>  <Structure No>
5290

>  <LogS>
-3.613

>  <MMFF94 Energy>
39.299

$$$$
Compound 5291
Actelion Java MolfileCreator 2.0

  0  0  0  0  0  0              0 V3000
M  V30 BEGIN CTAB
M  V30 COUNTS 22 23 0 0 0
M  V30 BEGIN ATOM
M  V30 1 Cl -0.7785 -2.5101 -1.0381 0
M  V30 2 C -1.5209 -1.1286 -0.2359 0
M  V30 3 C -0.7598 -0.0107 0.1697 0
M  V30 4 C -2.9049 -1.145 -0.0302 0
M  V30 5 C -1.4114 1.0824 0.7814 0
M  V30 6 C 0.7027 0.0152 -0.0439 0
M  V30 7 C -3.5414 -0.0596 0.5758 0
M  V30 8 Cl -0.5191 2.4932 1.344 0
M  V30 9 C -2.7962 1.05 0.9801 0
M  V30 10 C 1.2659 0.9055 -0.9723 0
M  V30 11 C 1.5387 -0.8493 0.6802 0
M  V30 12 Cl -5.2771 -0.0901 0.8291 0
M  V30 13 C 2.6507 0.9301 -1.1728 0
M  V30 14 C 2.9216 -0.8229 0.4773 0
M  V30 15 Cl 3.349 2.0445 -2.3333 0
M  V30 16 C 3.4775 0.0653 -0.4476 0
M  V30 17 H -3.4875 -2.0012 -0.3464 0
M  V30 18 H -3.2934 1.8875 1.4537 0
M  V30 19 H 0.6291 1.5747 -1.5385 0
M  V30 20 H 1.1189 -1.5391 1.4022 0
M  V30 21 H 3.5627 -1.4907 1.038 0
M  V30 22 H 4.5491 0.081 -0.5997 0
M  V30 END ATOM
M  V30 BEGIN BOND
M  V30 1 1 1 2
M  V30 2 2 2 3
M  V30 3 1 2 4
M  V30 4 1 3 5
M  V30 5 1 3 6
M  V30 6 2 4 7
M  V30 7 1 5 8
M  V30 8 2 5 9
M  V30 9 2 6 10
M  V30 10 1 6 11
M  V30 11 1 7 12
M  V30 12 1 10 13
M  V30 13 2 11 14
M  V30 14 1 13 15
M  V30 15 2 13 16
M  V30 16 1 7 9
M  V30 17 1 14 16
M  V30 18 1 4 17
M  V30 19 1 9 18
M  V30 20 1 10 19
M  V30 21 1 11 20
M  V30 22 1 14 21
M  V30 23 1 16 22
M  V30 END BOND
M  V30 END CTAB
M  END
>  <Structure No>
5291

>  <LogS>
-7.1547

>  <MMFF94 Energy>
27.119

$$$$
Compound 5292
Actelion Java MolfileCreator 2.0

  0  0  0  0  0  0              0 V3000
M  V30 BEGIN CTAB
M  V30 COUNTS 22 23 0 0 0
M  V30 BEGIN ATOM
M  V30 1 Cl 0.707 1.2375 -2.3876 0
M  V30 2 C 1.5068 0.5117 -0.9912 0
M  V30 3 C 2.9116 0.4471 -0.9366 0
M  V30 4 C 0.744 -0.0068 0.0758 0
M  V30 5 Cl 3.9067 1.0798 -2.2417 0
M  V30 6 C 3.5424 -0.1287 0.1717 0
M  V30 7 C -0.732 0.043 0.054 0
M  V30 8 C 1.3906 -0.581 1.1798 0
M  V30 9 C 2.7844 -0.6409 1.2261 0
M  V30 10 C -1.4135 1.154 0.5917 0
M  V30 11 C -1.4707 -1.0196 -0.5047 0
M  V30 12 Cl -0.5413 2.5094 1.3008 0
M  V30 13 C -2.8118 1.1955 0.5658 0
M  V30 14 Cl -0.6712 -2.4303 -1.1911 0
M  V30 15 C -2.8686 -0.9647 -0.524 0
M  V30 16 C -3.5384 0.1395 0.0095 0
M  V30 17 Cl -5.2913 0.2003 -0.0194 0
M  V30 18 H 4.6229 -0.18 0.2169 0
M  V30 19 H 0.8134 -0.9819 2.0042 0
M  V30 20 H 3.278 -1.0853 2.0806 0
M  V30 21 H -3.3345 2.0497 0.978 0
M  V30 22 H -3.4352 -1.7809 -0.9544 0
M  V30 END ATOM
M  V30 BEGIN BOND
M  V30 1 1 1 2
M  V30 2 2 2 3
M  V30 3 1 2 4
M  V30 4 1 3 5
M  V30 5 1 3 6
M  V30 6 1 4 7
M  V30 7 2 4 8
M  V30 8 2 6 9
M  V30 9 2 7 10
M  V30 10 1 7 11
M  V30 11 1 10 12
M  V30 12 1 10 13
M  V30 13 1 11 14
M  V30 14 2 11 15
M  V30 15 2 13 16
M  V30 16 1 16 17
M  V30 17 1 8 9
M  V30 18 1 15 16
M  V30 19 1 6 18
M  V30 20 1 8 19
M  V30 21 1 9 20
M  V30 22 1 13 21
M  V30 23 1 15 22
M  V30 END BOND
M  V30 END CTAB
M  END
>  <Structure No>
5292

>  <LogS>
-7.3999

>  <MMFF94 Energy>
39.472

$$$$
Compound 5293
Actelion Java MolfileCreator 2.0

  0  0  0  0  0  0              0 V3000
M  V30 BEGIN CTAB
M  V30 COUNTS 24 24 0 0 0
M  V30 BEGIN ATOM
M  V30 1 S 1.7168 -1.5532 -0.899 0
M  V30 2 C 0.1052 -0.8245 -1.4381 0 CFG=1
M  V30 3 C 2.6944 -0.0467 -0.5182 0
M  V30 4 C -0.8094 -0.3931 -0.2923 0
M  V30 5 C 0.3312 0.2435 -2.4791 0
M  V30 6 C 2.2061 0.666 0.7366 0
M  V30 7 C -1.8858 0.4894 -0.5316 0
M  V30 8 C -0.7114 -0.9865 0.9856 0
M  V30 9 O 0.4665 -0.0801 -3.6884 0
M  V30 10 O 0.4444 1.5817 -2.1165 0 CHG=-1
M  V30 11 C -2.7665 0.8406 0.4954 0
M  V30 12 C -1.5945 -0.6302 2.0093 0
M  V30 13 C -2.6147 0.2897 1.7676 0
M  V30 14 H -0.4335 -1.6551 -1.943 0
M  V30 15 H 3.7406 -0.3742 -0.3419 0
M  V30 16 H 2.7196 0.6497 -1.3794 0
M  V30 17 H 2.9424 1.444 1.029 0
M  V30 18 H 1.2364 1.1686 0.5496 0
M  V30 19 H 2.1015 -0.0546 1.5747 0
M  V30 20 H -2.0556 0.9053 -1.5161 0
M  V30 21 H 0.0421 -1.7293 1.2046 0
M  V30 22 H -3.576 1.5325 0.3005 0
M  V30 23 H -1.4944 -1.0787 2.9894 0
M  V30 24 H -3.2997 0.5601 2.5607 0
M  V30 END ATOM
M  V30 BEGIN BOND
M  V30 1 1 1 2
M  V30 2 1 1 3
M  V30 3 1 2 4
M  V30 4 1 2 5
M  V30 5 1 3 6
M  V30 6 2 4 7
M  V30 7 1 4 8
M  V30 8 2 5 9
M  V30 9 1 5 10
M  V30 10 1 7 11
M  V30 11 2 8 12
M  V30 12 2 11 13
M  V30 13 1 12 13
M  V30 14 1 2 14
M  V30 15 1 3 15
M  V30 16 1 3 16
M  V30 17 1 6 17
M  V30 18 1 6 18
M  V30 19 1 6 19
M  V30 20 1 7 20
M  V30 21 1 8 21
M  V30 22 1 11 22
M  V30 23 1 12 23
M  V30 24 1 13 24
M  V30 END BOND
M  V30 BEGIN COLLECTION
M  V30 MDLV30/STEABS ATOMS=(1 2)
M  V30 END COLLECTION
M  V30 END CTAB
M  END
>  <Structure No>
5293

>  <LogS>
-1.5686

>  <MMFF94 Energy>
98.921

$$$$
Compound 5294
Actelion Java MolfileCreator 2.0

  0  0  0  0  0  0              0 V3000
M  V30 BEGIN CTAB
M  V30 COUNTS 12 12 0 0 0
M  V30 BEGIN ATOM
M  V30 1 S -2.0519 -0.2563 0.0854 0
M  V30 2 O -2.4929 -0.6189 -1.304 0
M  V30 3 O -2.6404 1.0697 0.4758 0
M  V30 4 O -2.5836 -1.4339 1.1587 0 CHG=-1
M  V30 5 C -0.3038 -0.1638 0.1426 0
M  V30 6 N 0.4665 -0.9328 0.9361 0
M  V30 7 C 0.4788 0.6874 -0.5999 0
M  V30 8 C 1.7219 -0.5243 0.6527 0
M  V30 9 N 1.758 0.454 -0.2724 0
M  V30 10 H 0.1456 1.4205 -1.3228 0
M  V30 11 H 2.6047 -0.9399 1.1202 0
M  V30 12 H 2.6045 0.9308 -0.6544 0
M  V30 END ATOM
M  V30 BEGIN BOND
M  V30 1 2 1 2
M  V30 2 2 1 3
M  V30 3 1 1 4
M  V30 4 1 1 5
M  V30 5 1 5 6
M  V30 6 2 5 7
M  V30 7 2 6 8
M  V30 8 1 7 9
M  V30 9 1 8 9
M  V30 10 1 7 10
M  V30 11 1 8 11
M  V30 12 1 9 12
M  V30 END BOND
M  V30 END CTAB
M  END
>  <Structure No>
5294

>  <LogS>
0.1304

>  <MMFF94 Energy>
112.74

$$$$
Compound 5295
Actelion Java MolfileCreator 2.0

  0  0  0  0  0  0              0 V3000
M  V30 BEGIN CTAB
M  V30 COUNTS 8 7 0 0 0
M  V30 BEGIN ATOM
M  V30 1 S -0.8166 2.3695 0.4082 0
M  V30 2 C -0.2388 0.8667 0.1261 0
M  V30 3 N 1.1761 0.6727 0.0481 0 CHG=-1
M  V30 4 N -1.1508 -0.2238 -0.0371 0
M  V30 5 C 1.7653 -0.5772 -0.1899 0
M  V30 6 N 2.252 -1.6086 -0.3863 0
M  V30 7 H -0.8112 -1.1936 -0.2181 0
M  V30 8 H -2.1814 -0.0652 0.0228 0
M  V30 END ATOM
M  V30 BEGIN BOND
M  V30 1 2 1 2
M  V30 2 1 2 3
M  V30 3 1 2 4
M  V30 4 1 3 5
M  V30 5 3 5 6
M  V30 6 1 4 7
M  V30 7 1 4 8
M  V30 END BOND
M  V30 END CTAB
M  END
>  <Structure No>
5295

>  <LogS>
-0.0049

>  <MMFF94 Energy>
-36.995

$$$$
Compound 5296
Actelion Java MolfileCreator 2.0

  0  0  0  0  0  0              0 V3000
M  V30 BEGIN CTAB
M  V30 COUNTS 23 24 0 0 0
M  V30 BEGIN ATOM
M  V30 1 Cl 4.9124 0.0845 -2.0306 0
M  V30 2 C 3.5719 -0.0454 -0.9001 0
M  V30 3 C 3.7675 0.108 0.4827 0
M  V30 4 C 2.2894 -0.3088 -1.3962 0
M  V30 5 Cl 5.3611 0.4382 1.148 0
M  V30 6 C 2.68 -0.011 1.3549 0
M  V30 7 C 1.1962 -0.4081 -0.5283 0
M  V30 8 C 1.4016 -0.2734 0.8559 0
M  V30 9 O -0.068 -0.6881 -1.0671 0
M  V30 10 C -1.2947 -0.2789 -0.5213 0
M  V30 11 C -2.4304 -1.082 -0.7132 0
M  V30 12 C -1.4232 0.94 0.1709 0
M  V30 13 Cl -2.3119 -2.5969 -1.5947 0
M  V30 14 C -3.6681 -0.6865 -0.192 0
M  V30 15 C -2.6616 1.3297 0.6886 0
M  V30 16 C -3.7823 0.5155 0.5105 0
M  V30 17 H 2.1383 -0.4294 -2.4616 0
M  V30 18 H 2.8254 0.093 2.4227 0
M  V30 19 H 0.5798 -0.3902 1.5499 0
M  V30 20 H -0.5724 1.5971 0.2934 0
M  V30 21 H -4.5423 -1.3095 -0.3324 0
M  V30 22 H -2.7541 2.2671 1.2217 0
M  V30 23 H -4.7409 0.8194 0.911 0
M  V30 END ATOM
M  V30 BEGIN BOND
M  V30 1 1 1 2
M  V30 2 2 2 3
M  V30 3 1 2 4
M  V30 4 1 3 5
M  V30 5 1 3 6
M  V30 6 2 4 7
M  V30 7 2 6 8
M  V30 8 1 7 9
M  V30 9 1 9 10
M  V30 10 2 10 11
M  V30 11 1 10 12
M  V30 12 1 11 13
M  V30 13 1 11 14
M  V30 14 2 12 15
M  V30 15 2 14 16
M  V30 16 1 7 8
M  V30 17 1 15 16
M  V30 18 1 4 17
M  V30 19 1 6 18
M  V30 20 1 8 19
M  V30 21 1 12 20
M  V30 22 1 14 21
M  V30 23 1 15 22
M  V30 24 1 16 23
M  V30 END BOND
M  V30 END CTAB
M  END
>  <Structure No>
5296

>  <LogS>
-5.199

>  <MMFF94 Energy>
53.518

$$$$
Compound 5297
Actelion Java MolfileCreator 2.0

  0  0  0  0  0  0              0 V3000
M  V30 BEGIN CTAB
M  V30 COUNTS 23 22 0 0 0
M  V30 BEGIN ATOM
M  V30 1 O 2.5068 0.6262 1.1744 0
M  V30 2 C 1.6239 0.3791 0.308 0
M  V30 3 O 1.4835 -0.9083 -0.2192 0
M  V30 4 C 0.7399 1.4848 -0.1908 0 CFG=2
M  V30 5 C 2.2845 -2.0027 0.2083 0
M  V30 6 O -0.588 1.001 -0.3899 0
M  V30 7 C 1.279 2.0245 -1.5117 0
M  V30 8 C -1.439 0.6385 0.6604 0
M  V30 9 O -1.0743 0.7689 1.861 0
M  V30 10 C -2.7734 0.0406 0.35 0
M  V30 11 C -2.6444 -1.4613 0.1263 0
M  V30 12 H 0.7223 2.3182 0.5471 0
M  V30 13 H 3.3559 -1.7916 0.0055 0
M  V30 14 H 1.985 -2.9132 -0.3499 0
M  V30 15 H 2.1354 -2.181 1.2943 0
M  V30 16 H 0.6284 2.8492 -1.8726 0
M  V30 17 H 1.2975 1.2228 -2.2811 0
M  V30 18 H 2.3077 2.4217 -1.3744 0
M  V30 19 H -3.4783 0.2318 1.1882 0
M  V30 20 H -3.1855 0.5162 -0.5656 0
M  V30 21 H -3.6419 -1.8893 -0.1078 0
M  V30 22 H -2.251 -1.9549 1.0408 0
M  V30 23 H -1.9599 -1.6673 -0.7244 0
M  V30 END ATOM
M  V30 BEGIN BOND
M  V30 1 2 1 2
M  V30 2 1 2 3
M  V30 3 1 2 4
M  V30 4 1 3 5
M  V30 5 1 4 6
M  V30 6 1 4 7
M  V30 7 1 6 8
M  V30 8 2 8 9
M  V30 9 1 8 10
M  V30 10 1 10 11
M  V30 11 1 4 12
M  V30 12 1 5 13
M  V30 13 1 5 14
M  V30 14 1 5 15
M  V30 15 1 7 16
M  V30 16 1 7 17
M  V30 17 1 7 18
M  V30 18 1 10 19
M  V30 19 1 10 20
M  V30 20 1 11 21
M  V30 21 1 11 22
M  V30 22 1 11 23
M  V30 END BOND
M  V30 BEGIN COLLECTION
M  V30 MDLV30/STEABS ATOMS=(1 4)
M  V30 END COLLECTION
M  V30 END CTAB
M  END
>  <Structure No>
5297

>  <LogS>
-0.8622

>  <MMFF94 Energy>
0.8362

$$$$
Compound 5298
Actelion Java MolfileCreator 2.0

  0  0  0  0  0  0              0 V3000
M  V30 BEGIN CTAB
M  V30 COUNTS 39 40 0 0 0
M  V30 BEGIN ATOM
M  V30 1 S 0.8885 0.4846 1.4543 0
M  V30 2 C -0.4732 -0.6124 1.8922 0
M  V30 3 C 1.4744 -0.3217 -0.1182 0
M  V30 4 O -0.2281 -1.6313 2.5924 0
M  V30 5 N -1.8267 -0.3098 1.5039 0
M  V30 6 C 2.7095 0.4016 -0.7017 0
M  V30 7 C 1.8583 -1.7862 0.1778 0
M  V30 8 C 0.3251 -0.2749 -1.1487 0
M  V30 9 C -2.2055 1.0795 1.2019 0
M  V30 10 C -2.8527 -1.362 1.5221 0
M  V30 11 C 3.2455 -0.0148 -1.9447 0
M  V30 12 C 3.3714 1.4588 -0.0279 0
M  V30 13 C -3.722 1.2284 1.0391 0
M  V30 14 C -3.7599 -1.2383 0.2914 0
M  V30 15 C 4.3659 0.6115 -2.4965 0
M  V30 16 C 4.4919 2.0797 -0.5882 0
M  V30 17 C -4.2727 0.1987 0.044 0
M  V30 18 C 4.9862 1.6601 -1.821 0
M  V30 19 H 2.2949 -2.2813 -0.7143 0
M  V30 20 H 2.6052 -1.8276 0.9992 0
M  V30 21 H 0.9727 -2.3867 0.4682 0
M  V30 22 H -0.5763 -0.7983 -0.7739 0
M  V30 23 H 0.599 -0.7772 -2.0981 0
M  V30 24 H 0.0571 0.7789 -1.3751 0
M  V30 25 H -1.7078 1.4041 0.2641 0
M  V30 26 H -1.8706 1.7452 2.0266 0
M  V30 27 H -3.4582 -1.2694 2.4495 0
M  V30 28 H -2.3883 -2.3724 1.5138 0
M  V30 29 H 2.8065 -0.8349 -2.4957 0
M  V30 30 H 3.0468 1.8226 0.9342 0
M  V30 31 H -3.9595 2.2545 0.6843 0
M  V30 32 H -4.214 1.0897 2.0269 0
M  V30 33 H -4.623 -1.9292 0.4089 0
M  V30 34 H -3.1882 -1.5759 -0.601 0
M  V30 35 H 4.756 0.2786 -3.4497 0
M  V30 36 H 4.9808 2.8887 -0.0605 0
M  V30 37 H -5.3831 0.2119 0.0971 0
M  V30 38 H -3.9915 0.5128 -0.9852 0
M  V30 39 H 5.8546 2.143 -2.2501 0
M  V30 END ATOM
M  V30 BEGIN BOND
M  V30 1 1 1 2
M  V30 2 1 1 3
M  V30 3 2 2 4
M  V30 4 1 2 5
M  V30 5 1 3 6
M  V30 6 1 3 7
M  V30 7 1 3 8
M  V30 8 1 5 9
M  V30 9 1 5 10
M  V30 10 2 6 11
M  V30 11 1 6 12
M  V30 12 1 9 13
M  V30 13 1 10 14
M  V30 14 1 11 15
M  V30 15 2 12 16
M  V30 16 1 13 17
M  V30 17 2 15 18
M  V30 18 1 14 17
M  V30 19 1 16 18
M  V30 20 1 7 19
M  V30 21 1 7 20
M  V30 22 1 7 21
M  V30 23 1 8 22
M  V30 24 1 8 23
M  V30 25 1 8 24
M  V30 26 1 9 25
M  V30 27 1 9 26
M  V30 28 1 10 27
M  V30 29 1 10 28
M  V30 30 1 11 29
M  V30 31 1 12 30
M  V30 32 1 13 31
M  V30 33 1 13 32
M  V30 34 1 14 33
M  V30 35 1 14 34
M  V30 36 1 15 35
M  V30 37 1 16 36
M  V30 38 1 17 37
M  V30 39 1 17 38
M  V30 40 1 18 39
M  V30 END BOND
M  V30 END CTAB
M  END
>  <Structure No>
5298

>  <LogS>
-4.1196

>  <MMFF94 Energy>
-5.1642

$$$$
Compound 5299
Actelion Java MolfileCreator 2.0

  0  0  0  0  0  0              0 V3000
M  V30 BEGIN CTAB
M  V30 COUNTS 22 22 0 0 0
M  V30 BEGIN ATOM
M  V30 1 N 1.6969 0.3854 1.1567 0 CHG=1
M  V30 2 C 1.0777 0.4906 -0.0353 0
M  V30 3 C 2.9185 -0.1057 0.8805 0
M  V30 4 N 1.8576 0.076 -1.0524 0
M  V30 5 C -0.34 0.9521 -0.2046 0
M  V30 6 C 3.0177 -0.2965 -0.482 0
M  V30 7 C -1.3064 -0.2325 -0.4063 0
M  V30 8 C -1.3955 -1.1093 0.8519 0
M  V30 9 C -2.7001 0.2817 -0.7868 0
M  V30 10 H 1.3106 0.6216 2.0977 0
M  V30 11 H 3.6799 -0.3177 1.6195 0
M  V30 12 H 1.6137 0.0397 -2.0671 0
M  V30 13 H -0.379 1.6217 -1.0913 0
M  V30 14 H -0.647 1.5517 0.6804 0
M  V30 15 H 3.8721 -0.6869 -1.0188 0
M  V30 16 H -0.9362 -0.8612 -1.2469 0
M  V30 17 H -2.1159 -1.9396 0.6908 0
M  V30 18 H -0.4076 -1.5604 1.0823 0
M  V30 19 H -1.7302 -0.5091 1.7254 0
M  V30 20 H -3.3899 -0.5712 -0.9628 0
M  V30 21 H -2.6471 0.8779 -1.7228 0
M  V30 22 H -3.117 0.9198 0.0221 0
M  V30 END ATOM
M  V30 BEGIN BOND
M  V30 1 2 1 2
M  V30 2 1 1 3
M  V30 3 1 2 4
M  V30 4 1 2 5
M  V30 5 2 3 6
M  V30 6 1 5 7
M  V30 7 1 7 8
M  V30 8 1 7 9
M  V30 9 1 4 6
M  V30 10 1 1 10
M  V30 11 1 3 11
M  V30 12 1 4 12
M  V30 13 1 5 13
M  V30 14 1 5 14
M  V30 15 1 6 15
M  V30 16 1 7 16
M  V30 17 1 8 17
M  V30 18 1 8 18
M  V30 19 1 8 19
M  V30 20 1 9 20
M  V30 21 1 9 21
M  V30 22 1 9 22
M  V30 END BOND
M  V30 END CTAB
M  END
>  <Structure No>
5299

>  <LogS>
-1.0488

>  <MMFF94 Energy>
27.194

$$$$
Compound 5300
Actelion Java MolfileCreator 2.0

  0  0  0  0  0  0              0 V3000
M  V30 BEGIN CTAB
M  V30 COUNTS 29 30 0 0 0
M  V30 BEGIN ATOM
M  V30 1 S 3.2127 -2.3284 -1.2841 0
M  V30 2 C 2.0237 -1.3418 -0.6294 0
M  V30 3 C 4.4654 -1.2767 -0.9052 0
M  V30 4 N 0.764 -1.6799 -0.6483 0
M  V30 5 N 2.5613 -0.1937 -0.1168 0
M  V30 6 C 3.9181 -0.1678 -0.2719 0
M  V30 7 C -0.3501 -0.9513 -0.1231 0
M  V30 8 C 1.8475 0.9113 0.5283 0
M  V30 9 C -1.1275 -0.1272 -0.9616 0
M  V30 10 C -0.7282 -1.1416 1.2119 0
M  V30 11 C -2.2399 0.5454 -0.4281 0
M  V30 12 C -0.7652 0.0443 -2.411 0
M  V30 13 C -1.8363 -0.4715 1.7338 0
M  V30 14 C -2.5861 0.3918 0.923 0
M  V30 15 C -3.798 1.0825 1.4749 0
M  V30 16 H 5.5145 -1.432 -1.1166 0
M  V30 17 H 4.5305 0.6571 0.0703 0
M  V30 18 H 2.5464 1.7309 0.8016 0
M  V30 19 H 1.0966 1.3408 -0.1646 0
M  V30 20 H 1.3685 0.5609 1.4645 0
M  V30 21 H -0.1557 -1.8047 1.8482 0
M  V30 22 H -2.8397 1.1867 -1.0632 0
M  V30 23 H -1.4889 0.7003 -2.9396 0
M  V30 24 H 0.244 0.4993 -2.4933 0
M  V30 25 H -0.7599 -0.9449 -2.915 0
M  V30 26 H -2.1103 -0.6272 2.7699 0
M  V30 27 H -3.9595 2.0562 0.9651 0
M  V30 28 H -3.6763 1.2808 2.5611 0
M  V30 29 H -4.6905 0.4408 1.3217 0
M  V30 END ATOM
M  V30 BEGIN BOND
M  V30 1 1 1 2
M  V30 2 1 1 3
M  V30 3 2 2 4
M  V30 4 1 2 5
M  V30 5 2 3 6
M  V30 6 1 4 7
M  V30 7 1 5 8
M  V30 8 2 7 9
M  V30 9 1 7 10
M  V30 10 1 9 11
M  V30 11 1 9 12
M  V30 12 2 10 13
M  V30 13 2 11 14
M  V30 14 1 14 15
M  V30 15 1 5 6
M  V30 16 1 13 14
M  V30 17 1 3 16
M  V30 18 1 6 17
M  V30 19 1 8 18
M  V30 20 1 8 19
M  V30 21 1 8 20
M  V30 22 1 10 21
M  V30 23 1 11 22
M  V30 24 1 12 23
M  V30 25 1 12 24
M  V30 26 1 12 25
M  V30 27 1 13 26
M  V30 28 1 15 27
M  V30 29 1 15 28
M  V30 30 1 15 29
M  V30 END BOND
M  V30 END CTAB
M  END
>  <Structure No>
5300

>  <LogS>
-3.163

>  <MMFF94 Energy>
16.347

$$$$
Compound 5301
Actelion Java MolfileCreator 2.0

  0  0  0  0  0  0              0 V3000
M  V30 BEGIN CTAB
M  V30 COUNTS 21 20 0 0 0
M  V30 BEGIN ATOM
M  V30 1 S 1.7303 0.4716 -0.7862 0
M  V30 2 C 0.2224 -0.3684 -0.2348 0
M  V30 3 C 1.7585 1.6098 0.6335 0
M  V30 4 N 0.3008 -1.4686 0.4703 0 CHG=1
M  V30 5 N -1.0655 0.185 -0.6012 0
M  V30 6 C 1.5662 -2.0953 0.8483 0
M  V30 7 C -2.2745 -0.1444 0.1628 0
M  V30 8 C -1.1606 1.1161 -1.7305 0
M  V30 9 H 1.8324 1.0406 1.5829 0
M  V30 10 H 2.6401 2.2769 0.5452 0
M  V30 11 H 0.8381 2.2301 0.6435 0
M  V30 12 H -0.5655 -1.9666 0.7706 0
M  V30 13 H 2.1566 -1.4115 1.4932 0
M  V30 14 H 1.3691 -3.028 1.4182 0
M  V30 15 H 2.1497 -2.3576 -0.0595 0
M  V30 16 H -2.5883 -1.1861 -0.0573 0
M  V30 17 H -3.1172 0.5317 -0.0934 0
M  V30 18 H -2.0759 -0.0335 1.25 0
M  V30 19 H -0.6976 0.6611 -2.6315 0
M  V30 20 H -2.2164 1.3549 -1.9782 0
M  V30 21 H -0.6378 2.0639 -1.485 0
M  V30 END ATOM
M  V30 BEGIN BOND
M  V30 1 1 1 2
M  V30 2 1 1 3
M  V30 3 2 2 4
M  V30 4 1 2 5
M  V30 5 1 4 6
M  V30 6 1 5 7
M  V30 7 1 5 8
M  V30 8 1 3 9
M  V30 9 1 3 10
M  V30 10 1 3 11
M  V30 11 1 4 12
M  V30 12 1 6 13
M  V30 13 1 6 14
M  V30 14 1 6 15
M  V30 15 1 7 16
M  V30 16 1 7 17
M  V30 17 1 7 18
M  V30 18 1 8 19
M  V30 19 1 8 20
M  V30 20 1 8 21
M  V30 END BOND
M  V30 END CTAB
M  END
>  <Structure No>
5301

>  <LogS>
-0.4401

>  <MMFF94 Energy>
-60.496

$$$$
Compound 5302
Actelion Java MolfileCreator 2.0

  0  0  0  0  0  0              0 V3000
M  V30 BEGIN CTAB
M  V30 COUNTS 22 23 0 0 0
M  V30 BEGIN ATOM
M  V30 1 Cl -0.9933 1.8969 1.8065 0
M  V30 2 C -1.6254 0.7261 0.644 0
M  V30 3 C -3.0158 0.5922 0.4667 0
M  V30 4 C -0.7397 -0.0743 -0.1072 0
M  V30 5 Cl -4.1319 1.5876 1.403 0
M  V30 6 C -3.5153 -0.3384 -0.46 0
M  V30 7 C -1.2536 -1.0017 -1.0331 0
M  V30 8 C 0.7208 0.0567 0.0744 0
M  V30 9 Cl -5.2448 -0.5391 -0.7131 0
M  V30 10 C -2.634 -1.1274 -1.2025 0
M  V30 11 Cl -0.1899 -2.0274 -1.9913 0
M  V30 12 C 1.4009 -0.6793 1.067 0
M  V30 13 C 1.4362 0.9293 -0.7583 0
M  V30 14 Cl 0.515 -1.7858 2.1192 0
M  V30 15 C 2.7926 -0.5285 1.2124 0
M  V30 16 C 2.8163 1.0727 -0.6075 0
M  V30 17 Cl 3.6859 -1.4237 2.435 0
M  V30 18 C 3.4923 0.3467 0.3745 0
M  V30 19 H -3.0245 -1.8434 -1.9148 0
M  V30 20 H 0.9226 1.4986 -1.5237 0
M  V30 21 H 3.363 1.748 -1.2529 0
M  V30 22 H 4.5629 0.4651 0.4835 0
M  V30 END ATOM
M  V30 BEGIN BOND
M  V30 1 1 1 2
M  V30 2 2 2 3
M  V30 3 1 2 4
M  V30 4 1 3 5
M  V30 5 1 3 6
M  V30 6 2 4 7
M  V30 7 1 4 8
M  V30 8 1 6 9
M  V30 9 2 6 10
M  V30 10 1 7 11
M  V30 11 2 8 12
M  V30 12 1 8 13
M  V30 13 1 12 14
M  V30 14 1 12 15
M  V30 15 2 13 16
M  V30 16 1 15 17
M  V30 17 2 15 18
M  V30 18 1 7 10
M  V30 19 1 16 18
M  V30 20 1 10 19
M  V30 21 1 13 20
M  V30 22 1 16 21
M  V30 23 1 18 22
M  V30 END BOND
M  V30 BEGIN COLLECTION
M  V30 MDLV30/STEABS BONDS=(1 7)
M  V30 END COLLECTION
M  V30 END CTAB
M  END
>  <Structure No>
5302

>  <LogS>
-8.48

>  <MMFF94 Energy>
56.726

$$$$
Compound 5303
Actelion Java MolfileCreator 2.0

  0  0  0  0  0  0              0 V3000
M  V30 BEGIN CTAB
M  V30 COUNTS 25 25 0 0 0
M  V30 BEGIN ATOM
M  V30 1 O 0.6307 -1.8143 -1.1829 0
M  V30 2 C 0.3067 -0.8319 -0.4611 0
M  V30 3 N 1.3248 -0.0446 0.1731 0
M  V30 4 C -1.1202 -0.4743 -0.3065 0
M  V30 5 C 2.7449 -0.3258 -0.0354 0
M  V30 6 C -2.1214 -1.4523 -0.0867 0
M  V30 7 C -1.4969 0.8762 -0.4181 0
M  V30 8 C 3.6171 0.6481 0.7534 0
M  V30 9 O -1.8192 -2.8028 0.1002 0
M  V30 10 C -3.4653 -1.0655 -0.0222 0
M  V30 11 C -2.8441 1.2513 -0.3372 0
M  V30 12 O 4.9673 0.3535 0.5296 0
M  V30 13 C -3.825 0.2774 -0.1442 0
M  V30 14 O -3.2174 2.5885 -0.4536 0
M  V30 15 H 1.0379 0.7303 0.8139 0
M  V30 16 H 2.9666 -1.3643 0.2934 0
M  V30 17 H 2.9819 -0.2346 -1.1176 0
M  V30 18 H -0.7476 1.6382 -0.5954 0
M  V30 19 H 3.4007 1.6889 0.423 0
M  V30 20 H 3.3878 0.5542 1.8387 0
M  V30 21 H -0.875 -3.1529 0.1911 0
M  V30 22 H -4.2342 -1.8101 0.1409 0
M  V30 23 H 5.4841 1.0122 1.0623 0
M  V30 24 H -4.8678 0.5622 -0.084 0
M  V30 25 H -2.5308 3.32 -0.5957 0
M  V30 END ATOM
M  V30 BEGIN BOND
M  V30 1 2 1 2
M  V30 2 1 2 3
M  V30 3 1 2 4
M  V30 4 1 3 5
M  V30 5 2 4 6
M  V30 6 1 4 7
M  V30 7 1 5 8
M  V30 8 1 6 9
M  V30 9 1 6 10
M  V30 10 2 7 11
M  V30 11 1 8 12
M  V30 12 2 10 13
M  V30 13 1 11 14
M  V30 14 1 11 13
M  V30 15 1 3 15
M  V30 16 1 5 16
M  V30 17 1 5 17
M  V30 18 1 7 18
M  V30 19 1 8 19
M  V30 20 1 8 20
M  V30 21 1 9 21
M  V30 22 1 10 22
M  V30 23 1 12 23
M  V30 24 1 13 24
M  V30 25 1 14 25
M  V30 END BOND
M  V30 END CTAB
M  END
>  <Structure No>
5303

>  <LogS>
-0.5436

>  <MMFF94 Energy>
13.485

$$$$
Compound 5304
Actelion Java MolfileCreator 2.0

  0  0  0  0  0  0              0 V3000
M  V30 BEGIN CTAB
M  V30 COUNTS 29 30 0 0 0
M  V30 BEGIN ATOM
M  V30 1 S 3.8295 0.8897 0.4447 0
M  V30 2 O 4.3166 1.3341 -0.9054 0
M  V30 3 O 4.7803 -0.138 0.9919 0
M  V30 4 O 3.8019 2.1988 1.4978 0 CHG=-1
M  V30 5 C 2.1998 0.2116 0.2937 0
M  V30 6 C 1.0834 1.0299 0.0158 0
M  V30 7 C 2.0258 -1.1606 0.491 0
M  V30 8 N 1.2628 2.4465 -0.154 0
M  V30 9 C -0.2076 0.4452 -0.0769 0
M  V30 10 C 0.7607 -1.7535 0.4357 0
M  V30 11 C -0.3719 -0.9525 0.1489 0
M  V30 12 C -1.3392 1.2188 -0.4214 0
M  V30 13 S 0.6416 -3.5014 0.7225 0
M  V30 14 C -1.6669 -1.5092 0.0702 0
M  V30 15 C -2.6095 0.6415 -0.505 0
M  V30 16 O 1.9938 -4.0825 1.0283 0
M  V30 17 O 0.0929 -4.1772 -0.5025 0
M  V30 18 O -0.37 -3.7892 2.0328 0 CHG=-1
M  V30 19 C -2.7693 -0.7182 -0.2445 0
M  V30 20 S -4.0041 1.6354 -0.918 0
M  V30 21 O -5.0948 0.7782 -1.4963 0
M  V30 22 O -3.6091 2.6664 -1.9376 0
M  V30 23 O -4.572 2.4018 0.4643 0 CHG=-1
M  V30 24 H 2.8899 -1.7751 0.7019 0
M  V30 25 H 0.5493 3.1311 0.1777 0
M  V30 26 H 2.1518 2.8434 -0.5274 0
M  V30 27 H -1.2538 2.271 -0.6482 0
M  V30 28 H -1.8485 -2.559 0.2447 0
M  V30 29 H -3.7502 -1.174 -0.2938 0
M  V30 END ATOM
M  V30 BEGIN BOND
M  V30 1 2 1 2
M  V30 2 2 1 3
M  V30 3 1 1 4
M  V30 4 1 1 5
M  V30 5 2 5 6
M  V30 6 1 5 7
M  V30 7 1 6 8
M  V30 8 1 6 9
M  V30 9 2 7 10
M  V30 10 1 9 11
M  V30 11 2 9 12
M  V30 12 1 10 13
M  V30 13 2 11 14
M  V30 14 1 12 15
M  V30 15 2 13 16
M  V30 16 2 13 17
M  V30 17 1 13 18
M  V30 18 1 14 19
M  V30 19 1 15 20
M  V30 20 2 20 21
M  V30 21 2 20 22
M  V30 22 1 20 23
M  V30 23 1 10 11
M  V30 24 2 15 19
M  V30 25 1 7 24
M  V30 26 1 8 25
M  V30 27 1 8 26
M  V30 28 1 12 27
M  V30 29 1 14 28
M  V30 30 1 19 29
M  V30 END BOND
M  V30 END CTAB
M  END
>  <Structure No>
5304

>  <LogS>
-0.3188

>  <MMFF94 Energy>
240.08

$$$$
Compound 5305
Actelion Java MolfileCreator 2.0

  0  0  0  0  0  0              0 V3000
M  V30 BEGIN CTAB
M  V30 COUNTS 23 23 0 0 0
M  V30 BEGIN ATOM
M  V30 1 Cl 1.9757 -0.1645 -2.4701 0
M  V30 2 C 2.0702 0.1218 -0.7296 0
M  V30 3 C 3.0864 -0.5096 0.0144 0
M  V30 4 C 1.148 0.9725 -0.0714 0
M  V30 5 Cl 4.2567 -1.5764 -0.7532 0
M  V30 6 C 3.183 -0.297 1.3929 0
M  V30 7 C 1.2651 1.1706 1.3146 0
M  V30 8 C 0.0229 1.6733 -0.7968 0
M  V30 9 C 2.2759 0.5401 2.0401 0
M  V30 10 O -1.2405 1.203 -0.3305 0
M  V30 11 C -1.7445 -0.0688 -0.6228 0
M  V30 12 O -1.097 -0.8615 -1.3605 0
M  V30 13 N -3.0067 -0.4624 -0.0772 0
M  V30 14 C -3.5843 -1.7746 -0.3391 0
M  V30 15 H 3.9635 -0.7821 1.9652 0
M  V30 16 H 0.5676 1.8156 1.8353 0
M  V30 17 H 0.091 2.7613 -0.5841 0
M  V30 18 H 0.0768 1.5662 -1.8988 0
M  V30 19 H 2.3552 0.7003 3.1078 0
M  V30 20 H -3.5273 0.2104 0.529 0
M  V30 21 H -2.9019 -2.5674 0.033 0
M  V30 22 H -4.5607 -1.8676 0.1815 0
M  V30 23 H -3.7451 -1.9044 -1.43 0
M  V30 END ATOM
M  V30 BEGIN BOND
M  V30 1 1 1 2
M  V30 2 2 2 3
M  V30 3 1 2 4
M  V30 4 1 3 5
M  V30 5 1 3 6
M  V30 6 2 4 7
M  V30 7 1 4 8
M  V30 8 2 6 9
M  V30 9 1 8 10
M  V30 10 1 10 11
M  V30 11 2 11 12
M  V30 12 1 11 13
M  V30 13 1 13 14
M  V30 14 1 7 9
M  V30 15 1 6 15
M  V30 16 1 7 16
M  V30 17 1 8 17
M  V30 18 1 8 18
M  V30 19 1 9 19
M  V30 20 1 13 20
M  V30 21 1 14 21
M  V30 22 1 14 22
M  V30 23 1 14 23
M  V30 END BOND
M  V30 END CTAB
M  END
>  <Structure No>
5305

>  <LogS>
-3.1389

>  <MMFF94 Energy>
-43.777

$$$$
Compound 5306
Actelion Java MolfileCreator 2.0

  0  0  0  0  0  0              0 V3000
M  V30 BEGIN CTAB
M  V30 COUNTS 30 30 0 0 0
M  V30 BEGIN ATOM
M  V30 1 O 1.3302 -3.1321 -0.3128 0
M  V30 2 C 0.3632 -2.3875 -0.6305 0
M  V30 3 N 0.5155 -0.9515 -0.5675 0
M  V30 4 N -0.8626 -2.9958 -1.0494 0
M  V30 5 C 1.5855 -0.3891 0.2157 0
M  V30 6 C -0.4556 -0.0444 -1.1956 0
M  V30 7 C 2.5065 0.4972 -0.3671 0
M  V30 8 C 1.7153 -0.7198 1.575 0
M  V30 9 C -1.5427 0.3497 -0.1896 0
M  V30 10 C 3.5391 1.0453 0.4 0
M  V30 11 C 2.7486 -0.1692 2.3391 0
M  V30 12 C -2.5987 1.2479 -0.8425 0
M  V30 13 C 3.6596 0.7132 1.7522 0
M  V30 14 C -3.6763 1.6498 0.1602 0
M  V30 15 H -1.7242 -2.4425 -1.2435 0
M  V30 16 H -0.9265 -4.0356 -1.1196 0
M  V30 17 H 0.0548 0.8754 -1.5533 0
M  V30 18 H -0.903 -0.5171 -2.0957 0
M  V30 19 H 2.4334 0.7516 -1.4166 0
M  V30 20 H 1.0092 -1.3952 2.0414 0
M  V30 21 H -1.0708 0.8911 0.6596 0
M  V30 22 H -2.0308 -0.5645 0.2108 0
M  V30 23 H 4.2477 1.7255 -0.0544 0
M  V30 24 H 2.8419 -0.425 3.3866 0
M  V30 25 H -2.1158 2.1676 -1.2391 0
M  V30 26 H -3.078 0.7085 -1.6883 0
M  V30 27 H 4.4593 1.1384 2.3447 0
M  V30 28 H -4.4261 2.2984 -0.3397 0
M  V30 29 H -3.2263 2.2133 1.0052 0
M  V30 30 H -4.1926 0.7483 0.5537 0
M  V30 END ATOM
M  V30 BEGIN BOND
M  V30 1 2 1 2
M  V30 2 1 2 3
M  V30 3 1 2 4
M  V30 4 1 3 5
M  V30 5 1 3 6
M  V30 6 2 5 7
M  V30 7 1 5 8
M  V30 8 1 6 9
M  V30 9 1 7 10
M  V30 10 2 8 11
M  V30 11 1 9 12
M  V30 12 2 10 13
M  V30 13 1 12 14
M  V30 14 1 11 13
M  V30 15 1 4 15
M  V30 16 1 4 16
M  V30 17 1 6 17
M  V30 18 1 6 18
M  V30 19 1 7 19
M  V30 20 1 8 20
M  V30 21 1 9 21
M  V30 22 1 9 22
M  V30 23 1 10 23
M  V30 24 1 11 24
M  V30 25 1 12 25
M  V30 26 1 12 26
M  V30 27 1 13 27
M  V30 28 1 14 28
M  V30 29 1 14 29
M  V30 30 1 14 30
M  V30 END BOND
M  V30 END CTAB
M  END
>  <Structure No>
5306

>  <LogS>
-1.2971

>  <MMFF94 Energy>
-55.104

$$$$
Compound 5307
Actelion Java MolfileCreator 2.0

  0  0  0  0  0  0              0 V3000
M  V30 BEGIN CTAB
M  V30 COUNTS 22 23 0 0 0
M  V30 BEGIN ATOM
M  V30 1 Cl 0.865 -0.3459 2.6834 0
M  V30 2 C 1.5238 -0.2077 1.0564 0
M  V30 3 C 0.6856 -0.0179 -0.061 0
M  V30 4 C 2.9096 -0.2924 0.8841 0
M  V30 5 C 1.2562 0.0867 -1.3458 0
M  V30 6 C -0.7779 0.0701 0.1127 0
M  V30 7 C 3.469 -0.1889 -0.3918 0
M  V30 8 Cl 0.2568 0.3232 -2.7761 0
M  V30 9 C 2.6437 2.0E-4 -1.5033 0
M  V30 10 C -1.5872 -1.0823 0.0621 0
M  V30 11 C -1.37 1.3235 0.3319 0
M  V30 12 Cl 5.2074 -0.2968 -0.5987 0
M  V30 13 Cl -0.8932 -2.6765 -0.2097 0
M  V30 14 C -2.9725 -0.9671 0.2306 0
M  V30 15 C -2.7535 1.429 0.4989 0
M  V30 16 C -3.5537 0.2851 0.4482 0
M  V30 17 H 3.5525 -0.439 1.7431 0
M  V30 18 H 3.0809 0.0798 -2.4906 0
M  V30 19 H -0.7592 2.2172 0.3731 0
M  V30 20 H -3.6003 -1.8482 0.1929 0
M  V30 21 H -3.2054 2.398 0.6676 0
M  V30 22 H -4.6251 0.3689 0.5779 0
M  V30 END ATOM
M  V30 BEGIN BOND
M  V30 1 1 1 2
M  V30 2 2 2 3
M  V30 3 1 2 4
M  V30 4 1 3 5
M  V30 5 1 3 6
M  V30 6 2 4 7
M  V30 7 1 5 8
M  V30 8 2 5 9
M  V30 9 2 6 10
M  V30 10 1 6 11
M  V30 11 1 7 12
M  V30 12 1 10 13
M  V30 13 1 10 14
M  V30 14 2 11 15
M  V30 15 2 14 16
M  V30 16 1 7 9
M  V30 17 1 15 16
M  V30 18 1 4 17
M  V30 19 1 9 18
M  V30 20 1 11 19
M  V30 21 1 14 20
M  V30 22 1 15 21
M  V30 23 1 16 22
M  V30 END BOND
M  V30 END CTAB
M  END
>  <Structure No>
5307

>  <LogS>
-6.65

>  <MMFF94 Energy>
32.638

$$$$
Compound 5308
Actelion Java MolfileCreator 2.0

  0  0  0  0  0  0              0 V3000
M  V30 BEGIN CTAB
M  V30 COUNTS 36 36 0 0 0
M  V30 BEGIN ATOM
M  V30 1 S -2.881 -2.0 -0.3997 0
M  V30 2 C -3.9837 -1.2944 0.8324 0
M  V30 3 C -1.5619 -0.7797 -0.0908 0
M  V30 4 O -3.8847 -1.6933 2.024 0
M  V30 5 N -4.9661 -0.3 0.4804 0
M  V30 6 C -0.3936 -1.0274 -1.0434 0
M  V30 7 C -5.1542 0.0906 -0.92 0
M  V30 8 C -5.7858 0.3035 1.5351 0
M  V30 9 C 0.7332 -0.0157 -0.8078 0
M  V30 10 C 1.9033 -0.2623 -1.7653 0
M  V30 11 O 2.9436 0.69 -1.5434 0
M  V30 12 C 3.8508 0.6737 -0.471 0
M  V30 13 C 4.7432 1.7467 -0.3451 0
M  V30 14 C 3.9028 -0.3747 0.4705 0
M  V30 15 C 5.6687 1.7822 0.7023 0
M  V30 16 C 4.8298 -0.3352 1.5171 0
M  V30 17 C 5.7114 0.7422 1.6336 0
M  V30 18 H -1.9613 0.2455 -0.2485 0
M  V30 19 H -1.2156 -0.8766 0.961 0
M  V30 20 H -0.0049 -2.0573 -0.8838 0
M  V30 21 H -0.7541 -0.9427 -2.0922 0
M  V30 22 H -4.2195 0.5403 -1.315 0
M  V30 23 H -5.969 0.8361 -1.0331 0
M  V30 24 H -5.4184 -0.8013 -1.5259 0
M  V30 25 H -6.3774 -0.4845 2.047 0
M  V30 26 H -5.1297 0.8072 2.2762 0
M  V30 27 H -6.4911 1.0584 1.1284 0
M  V30 28 H 0.3481 1.0149 -0.9688 0
M  V30 29 H 1.084 -0.0944 0.2431 0
M  V30 30 H 2.2946 -1.2979 -1.6712 0
M  V30 31 H 1.5426 -0.1391 -2.8086 0
M  V30 32 H 4.7173 2.5575 -1.0621 0
M  V30 33 H 3.2378 -1.2239 0.4056 0
M  V30 34 H 6.3526 2.6164 0.7918 0
M  V30 35 H 4.8654 -1.1418 2.2382 0
M  V30 36 H 6.428 0.7702 2.4442 0
M  V30 END ATOM
M  V30 BEGIN BOND
M  V30 1 1 1 2
M  V30 2 1 1 3
M  V30 3 2 2 4
M  V30 4 1 2 5
M  V30 5 1 3 6
M  V30 6 1 5 7
M  V30 7 1 5 8
M  V30 8 1 6 9
M  V30 9 1 9 10
M  V30 10 1 10 11
M  V30 11 1 11 12
M  V30 12 2 12 13
M  V30 13 1 12 14
M  V30 14 1 13 15
M  V30 15 2 14 16
M  V30 16 2 15 17
M  V30 17 1 16 17
M  V30 18 1 3 18
M  V30 19 1 3 19
M  V30 20 1 6 20
M  V30 21 1 6 21
M  V30 22 1 7 22
M  V30 23 1 7 23
M  V30 24 1 7 24
M  V30 25 1 8 25
M  V30 26 1 8 26
M  V30 27 1 8 27
M  V30 28 1 9 28
M  V30 29 1 9 29
M  V30 30 1 10 30
M  V30 31 1 10 31
M  V30 32 1 13 32
M  V30 33 1 14 33
M  V30 34 1 15 34
M  V30 35 1 16 35
M  V30 36 1 17 36
M  V30 END BOND
M  V30 END CTAB
M  END
>  <Structure No>
5308

>  <LogS>
-3.9266

>  <MMFF94 Energy>
-20.006

$$$$
Compound 5309
Actelion Java MolfileCreator 2.0

  0  0  0  0  0  0              0 V3000
M  V30 BEGIN CTAB
M  V30 COUNTS 24 25 0 0 0
M  V30 BEGIN ATOM
M  V30 1 Cl -2.6552 -2.9044 0.8292 0
M  V30 2 C -1.9533 -1.3632 0.3425 0
M  V30 3 C -2.7501 -0.2835 -0.0981 0
M  V30 4 C -0.5632 -1.2276 0.4175 0
M  V30 5 C -2.1239 0.9453 -0.4028 0
M  V30 6 C -4.2524 -0.4145 -0.1606 0
M  V30 7 C 0.0643 -0.0215 0.0705 0
M  V30 8 Cl -3.047 2.3742 -0.8631 0
M  V30 9 C -0.7324 1.0659 -0.3242 0
M  V30 10 C 1.5424 0.0965 0.1636 0
M  V30 11 N 2.2224 -0.6751 1.0571 0
M  V30 12 C 2.2709 0.9698 -0.6588 0
M  V30 13 N 3.5498 -0.6142 1.1808 0
M  V30 14 C 3.6561 1.0349 -0.5299 0
M  V30 15 C 4.2911 0.2257 0.4099 0
M  V30 16 O 5.5432 0.2699 0.5416 0
M  V30 17 H 0.0288 -2.0743 0.743 0
M  V30 18 H -4.69 -0.1304 0.819 0
M  V30 19 H -4.5589 -1.4507 -0.41 0
M  V30 20 H -4.6829 0.2309 -0.9531 0
M  V30 21 H -0.2822 2.0249 -0.5442 0
M  V30 22 H 1.7845 1.5784 -1.4093 0
M  V30 23 H 4.0206 -1.2263 1.884 0
M  V30 24 H 4.2293 1.7035 -1.1603 0
M  V30 END ATOM
M  V30 BEGIN BOND
M  V30 1 1 1 2
M  V30 2 2 2 3
M  V30 3 1 2 4
M  V30 4 1 3 5
M  V30 5 1 3 6
M  V30 6 2 4 7
M  V30 7 1 5 8
M  V30 8 2 5 9
M  V30 9 1 7 10
M  V30 10 2 10 11
M  V30 11 1 10 12
M  V30 12 1 11 13
M  V30 13 2 12 14
M  V30 14 1 13 15
M  V30 15 2 15 16
M  V30 16 1 7 9
M  V30 17 1 14 15
M  V30 18 1 4 17
M  V30 19 1 6 18
M  V30 20 1 6 19
M  V30 21 1 6 20
M  V30 22 1 9 21
M  V30 23 1 12 22
M  V30 24 1 13 23
M  V30 25 1 14 24
M  V30 END BOND
M  V30 END CTAB
M  END
>  <Structure No>
5309

>  <LogS>
-5.5375

>  <MMFF94 Energy>
44.097

$$$$
Compound 5310
Actelion Java MolfileCreator 2.0

  0  0  0  0  0  0              0 V3000
M  V30 BEGIN CTAB
M  V30 COUNTS 21 21 0 0 0
M  V30 BEGIN ATOM
M  V30 1 O 2.2394 -0.4795 1.2792 0
M  V30 2 N 0.9685 -0.2707 0.7888 0
M  V30 3 C 2.4447 -0.7036 2.6638 0
M  V30 4 C 0.7409 -0.0621 -0.4728 0
M  V30 5 C 3.8728 -0.8948 2.9176 0
M  V30 6 C 1.8484 -0.0459 -1.4037 0
M  V30 7 C -0.6542 0.1579 -0.9472 0
M  V30 8 N 5.0023 -1.046 3.1183 0
M  V30 9 N 2.7347 -0.0332 -2.1476 0
M  V30 10 C -1.7303 0.1411 -0.0351 0
M  V30 11 C -0.9328 0.3869 -2.3114 0
M  V30 12 C -3.0411 0.3471 -0.4758 0
M  V30 13 C -2.2462 0.5921 -2.7449 0
M  V30 14 C -3.299 0.5723 -1.8286 0
M  V30 15 H 1.8915 -1.6117 2.9829 0
M  V30 16 H 2.0841 0.1723 3.2431 0
M  V30 17 H -1.5624 -0.0308 1.0206 0
M  V30 18 H -0.1405 0.4087 -3.048 0
M  V30 19 H -3.8585 0.332 0.2337 0
M  V30 20 H -2.4478 0.7669 -3.7938 0
M  V30 21 H -4.3146 0.7315 -2.1672 0
M  V30 END ATOM
M  V30 BEGIN BOND
M  V30 1 1 1 2
M  V30 2 1 1 3
M  V30 3 2 2 4
M  V30 4 1 3 5
M  V30 5 1 4 6
M  V30 6 1 4 7
M  V30 7 3 5 8
M  V30 8 3 6 9
M  V30 9 2 7 10
M  V30 10 1 7 11
M  V30 11 1 10 12
M  V30 12 2 11 13
M  V30 13 2 12 14
M  V30 14 1 13 14
M  V30 15 1 3 15
M  V30 16 1 3 16
M  V30 17 1 10 17
M  V30 18 1 11 18
M  V30 19 1 12 19
M  V30 20 1 13 20
M  V30 21 1 14 21
M  V30 END BOND
M  V30 END CTAB
M  END
>  <Structure No>
5310

>  <LogS>
-3.2899

>  <MMFF94 Energy>
97.861

$$$$
Compound 5311
Actelion Java MolfileCreator 2.0

  0  0  0  0  0  0              0 V3000
M  V30 BEGIN CTAB
M  V30 COUNTS 34 36 0 0 0
M  V30 BEGIN ATOM
M  V30 1 Cl 0.491 2.457 2.2931 0
M  V30 2 C -0.3834 2.4017 0.7625 0
M  V30 3 C -0.7533 1.1804 0.1311 0
M  V30 4 C -0.6755 3.6293 0.1555 0
M  V30 5 C -1.365 1.2586 -1.1452 0
M  V30 6 C -0.4186 -0.1787 0.7831 0 CFG=1
M  V30 7 C -1.3107 3.6744 -1.0832 0
M  V30 8 C -1.6472 2.4919 -1.735 0
M  V30 9 O -0.8602 -0.0969 2.1251 0
M  V30 10 C -1.1655 -1.3391 0.0915 0
M  V30 11 C 1.1061 -0.402 0.763 0
M  V30 12 C -0.5492 -2.2298 -0.8106 0
M  V30 13 C -2.5482 -1.497 0.2978 0
M  V30 14 C 1.8956 0.0599 -0.3165 0
M  V30 15 C 1.745 -1.1482 1.7784 0
M  V30 16 N -1.275 -3.2057 -1.4139 0
M  V30 17 N -3.2311 -2.4878 -0.3298 0
M  V30 18 C 3.2726 -0.1735 -0.349 0
M  V30 19 C 3.1233 -1.3776 1.7386 0
M  V30 20 C -2.6031 -3.3411 -1.1757 0
M  V30 21 C 3.8872 -0.8866 0.6798 0
M  V30 22 F 5.2232 -1.1144 0.644 0
M  V30 23 H -0.3974 4.5559 0.6418 0
M  V30 24 H -1.6235 0.3723 -1.7066 0
M  V30 25 H -1.5286 4.6285 -1.5455 0
M  V30 26 H -2.1229 2.5295 -2.7067 0
M  V30 27 H -0.949 -1.0109 2.5038 0
M  V30 28 H 0.502 -2.1592 -1.0447 0
M  V30 29 H -3.0857 -0.8242 0.9537 0
M  V30 30 H 1.4491 0.5922 -1.1455 0
M  V30 31 H 1.1897 -1.5625 2.6071 0
M  V30 32 H 3.862 0.1932 -1.1794 0
M  V30 33 H 3.5981 -1.9438 2.5297 0
M  V30 34 H -3.1629 -4.1252 -1.6664 0
M  V30 END ATOM
M  V30 BEGIN BOND
M  V30 1 1 1 2
M  V30 2 2 2 3
M  V30 3 1 2 4
M  V30 4 1 3 5
M  V30 5 1 3 6
M  V30 6 2 4 7
M  V30 7 2 5 8
M  V30 8 1 6 9
M  V30 9 1 6 10
M  V30 10 1 6 11
M  V30 11 2 10 12
M  V30 12 1 10 13
M  V30 13 2 11 14
M  V30 14 1 11 15
M  V30 15 1 12 16
M  V30 16 2 13 17
M  V30 17 1 14 18
M  V30 18 2 15 19
M  V30 19 2 16 20
M  V30 20 2 18 21
M  V30 21 1 21 22
M  V30 22 1 7 8
M  V30 23 1 17 20
M  V30 24 1 19 21
M  V30 25 1 4 23
M  V30 26 1 5 24
M  V30 27 1 7 25
M  V30 28 1 8 26
M  V30 29 1 9 27
M  V30 30 1 12 28
M  V30 31 1 13 29
M  V30 32 1 14 30
M  V30 33 1 15 31
M  V30 34 1 18 32
M  V30 35 1 19 33
M  V30 36 1 20 34
M  V30 END BOND
M  V30 BEGIN COLLECTION
M  V30 MDLV30/STEABS ATOMS=(1 6)
M  V30 END COLLECTION
M  V30 END CTAB
M  END
>  <Structure No>
5311

>  <LogS>
-4.083

>  <MMFF94 Energy>
43.824

$$$$
Compound 5312
Actelion Java MolfileCreator 2.0

  0  0  0  0  0  0              0 V3000
M  V30 BEGIN CTAB
M  V30 COUNTS 23 24 0 0 0
M  V30 BEGIN ATOM
M  V30 1 Cl -2.369 3.1314 -1.5225 0
M  V30 2 C -2.4261 1.482 -0.9154 0
M  V30 3 C -3.6452 0.8749 -0.5695 0
M  V30 4 C -1.2301 0.7661 -0.7849 0
M  V30 5 Cl -5.1698 1.7385 -0.7185 0
M  V30 6 C -3.656 -0.4446 -0.1046 0
M  V30 7 C -1.2395 -0.5531 -0.2973 0
M  V30 8 C -2.4602 -1.1558 0.0244 0
M  V30 9 O -0.0622 -1.3046 -0.1674 0
M  V30 10 C 1.2055 -0.7845 0.1322 0
M  V30 11 C 2.3375 -1.4502 -0.3537 0
M  V30 12 C 1.3712 0.3536 0.9432 0
M  V30 13 C 3.6189 -0.971 -0.0642 0
M  V30 14 C 2.6531 0.8314 1.2321 0
M  V30 15 C 3.7778 0.1722 0.7257 0
M  V30 16 Cl 5.3855 0.7717 1.0901 0
M  V30 17 H -0.2993 1.2318 -1.0814 0
M  V30 18 H -4.5923 -0.9216 0.1567 0
M  V30 19 H -2.4809 -2.1769 0.3836 0
M  V30 20 H 2.2228 -2.3369 -0.9639 0
M  V30 21 H 0.5135 0.8592 1.3671 0
M  V30 22 H 4.4861 -1.4895 -0.4525 0
M  V30 23 H 2.7709 1.7092 1.855 0
M  V30 END ATOM
M  V30 BEGIN BOND
M  V30 1 1 1 2
M  V30 2 2 2 3
M  V30 3 1 2 4
M  V30 4 1 3 5
M  V30 5 1 3 6
M  V30 6 2 4 7
M  V30 7 2 6 8
M  V30 8 1 7 9
M  V30 9 1 9 10
M  V30 10 2 10 11
M  V30 11 1 10 12
M  V30 12 1 11 13
M  V30 13 2 12 14
M  V30 14 2 13 15
M  V30 15 1 15 16
M  V30 16 1 7 8
M  V30 17 1 14 15
M  V30 18 1 4 17
M  V30 19 1 6 18
M  V30 20 1 8 19
M  V30 21 1 11 20
M  V30 22 1 12 21
M  V30 23 1 13 22
M  V30 24 1 14 23
M  V30 END BOND
M  V30 END CTAB
M  END
>  <Structure No>
5312

>  <LogS>
-5.6603

>  <MMFF94 Energy>
43.106

$$$$
Compound 5313
Actelion Java MolfileCreator 2.0

  0  0  0  0  0  0              0 V3000
M  V30 BEGIN CTAB
M  V30 COUNTS 38 39 0 0 0
M  V30 BEGIN ATOM
M  V30 1 Cl 0.4865 -5.0359 0.8109 0
M  V30 2 C 0.3834 -3.5412 -0.1036 0
M  V30 3 C 0.1225 -3.5699 -1.479 0
M  V30 4 C 0.5568 -2.3157 0.549 0
M  V30 5 F -0.048 -4.7529 -2.1205 0
M  V30 6 C 0.0337 -2.3746 -2.1976 0
M  V30 7 C 0.4707 -1.1102 -0.1677 0
M  V30 8 C 0.2055 -1.1499 -1.547 0
M  V30 9 N 0.6311 0.1544 0.5074 0
M  V30 10 C -0.3103 1.2234 0.2528 0
M  V30 11 C 1.8499 0.3949 1.3059 0 CFG=1
M  V30 12 O 0.1022 2.4121 0.1645 0
M  V30 13 C -1.7584 0.9528 0.0909 0
M  V30 14 C 2.7989 1.3054 0.5685 0
M  V30 15 C 1.4827 0.9299 2.6973 0
M  V30 16 C -2.5459 1.7852 -0.7239 0
M  V30 17 C -2.3698 -0.1194 0.7654 0
M  V30 18 O 3.6032 2.0399 1.2065 0
M  V30 19 O 2.832 1.2723 -0.8292 0
M  V30 20 C -3.9126 1.5335 -0.8799 0
M  V30 21 C -3.7364 -0.3672 0.6062 0
M  V30 22 C 3.7062 2.0908 -1.5957 0
M  V30 23 C -4.5067 0.4565 -0.2178 0
M  V30 24 H 0.7374 -2.3002 1.6165 0
M  V30 25 H -0.1685 -2.3958 -3.2606 0
M  V30 26 H 0.1387 -0.232 -2.1172 0
M  V30 27 H 2.3957 -0.5605 1.4636 0
M  V30 28 H 2.3839 0.9628 3.346 0
M  V30 29 H 0.7377 0.2573 3.1732 0
M  V30 30 H 1.0531 1.9518 2.6325 0
M  V30 31 H -2.1018 2.621 -1.2503 0
M  V30 32 H -1.797 -0.7547 1.4283 0
M  V30 33 H -4.5109 2.1735 -1.5151 0
M  V30 34 H -4.1996 -1.1952 1.1269 0
M  V30 35 H 3.4962 3.1627 -1.3948 0
M  V30 36 H 3.5424 1.8883 -2.6738 0
M  V30 37 H 4.7625 1.8607 -1.3422 0
M  V30 38 H -5.5647 0.2635 -0.3392 0
M  V30 END ATOM
M  V30 BEGIN BOND
M  V30 1 1 1 2
M  V30 2 2 2 3
M  V30 3 1 2 4
M  V30 4 1 3 5
M  V30 5 1 3 6
M  V30 6 2 4 7
M  V30 7 2 6 8
M  V30 8 1 7 9
M  V30 9 1 9 10
M  V30 10 1 9 11
M  V30 11 2 10 12
M  V30 12 1 10 13
M  V30 13 1 11 14
M  V30 14 1 11 15
M  V30 15 2 13 16
M  V30 16 1 13 17
M  V30 17 2 14 18
M  V30 18 1 14 19
M  V30 19 1 16 20
M  V30 20 2 17 21
M  V30 21 1 19 22
M  V30 22 2 20 23
M  V30 23 1 7 8
M  V30 24 1 21 23
M  V30 25 1 4 24
M  V30 26 1 6 25
M  V30 27 1 8 26
M  V30 28 1 11 27
M  V30 29 1 15 28
M  V30 30 1 15 29
M  V30 31 1 15 30
M  V30 32 1 16 31
M  V30 33 1 17 32
M  V30 34 1 20 33
M  V30 35 1 21 34
M  V30 36 1 22 35
M  V30 37 1 22 36
M  V30 38 1 22 37
M  V30 39 1 23 38
M  V30 END BOND
M  V30 BEGIN COLLECTION
M  V30 MDLV30/STEABS ATOMS=(1 11)
M  V30 END COLLECTION
M  V30 END CTAB
M  END
>  <Structure No>
5313

>  <LogS>
-4.3219

>  <MMFF94 Energy>
70.675

$$$$
Compound 5314
Actelion Java MolfileCreator 2.0

  0  0  0  0  0  0              0 V3000
M  V30 BEGIN CTAB
M  V30 COUNTS 44 45 0 0 0
M  V30 BEGIN ATOM
M  V30 1 Cl 1.6149 4.6886 2.0189 0
M  V30 2 C 0.2389 3.624 1.782 0
M  V30 3 C -0.9826 3.8979 2.4081 0
M  V30 4 C 0.3695 2.4949 0.9657 0
M  V30 5 F -1.1181 4.9903 3.2011 0
M  V30 6 C -2.0701 3.0419 2.2188 0
M  V30 7 C -0.7224 1.6291 0.7649 0
M  V30 8 C -1.9415 1.9134 1.405 0
M  V30 9 N -0.6107 0.4486 -0.063 0
M  V30 10 C -1.0461 -0.8071 0.4915 0
M  V30 11 C 0.0813 0.4494 -1.3711 0 CFG=2
M  V30 12 O -0.6506 -1.1401 1.6422 0
M  V30 13 C -1.9646 -1.7005 -0.2516 0
M  V30 14 C 1.5674 0.2761 -1.1969 0
M  V30 15 C -0.2635 1.7023 -2.1914 0
M  V30 16 C -2.0082 -3.0757 0.0407 0
M  V30 17 C -2.8272 -1.1837 -1.2356 0
M  V30 18 O 2.3464 0.5114 -2.1614 0
M  V30 19 O 2.0695 -0.2014 0.02 0
M  V30 20 C -2.8826 -3.9184 -0.6527 0
M  V30 21 C -3.6998 -2.0304 -1.926 0
M  V30 22 C 3.455 -0.4304 0.2705 0
M  V30 23 C -3.7261 -3.3966 -1.6365 0
M  V30 24 C 3.6784 -0.4819 1.7802 0
M  V30 25 C 3.8989 -1.7411 -0.3839 0
M  V30 26 H 1.3245 2.2986 0.5021 0
M  V30 27 H -3.0153 3.2524 2.7026 0
M  V30 28 H -2.7958 1.2631 1.2638 0
M  V30 29 H -0.2637 -0.4206 -1.9702 0
M  V30 30 H 0.0924 1.5827 -3.2371 0
M  V30 31 H -1.3642 1.8481 -2.2166 0
M  V30 32 H 0.2101 2.6103 -1.7644 0
M  V30 33 H -1.3596 -3.4999 0.7973 0
M  V30 34 H -2.8364 -0.1252 -1.4619 0
M  V30 35 H -2.9061 -4.9767 -0.4268 0
M  V30 36 H -4.3595 -1.6257 -2.6826 0
M  V30 37 H 4.0571 0.4109 -0.1396 0
M  V30 38 H -4.4028 -4.0503 -2.1715 0
M  V30 39 H 4.7553 -0.635 2.0066 0
M  V30 40 H 3.0887 -1.3082 2.2323 0
M  V30 41 H 3.355 0.477 2.2386 0
M  V30 42 H 4.9721 -1.9333 -0.1706 0
M  V30 43 H 3.7689 -1.6828 -1.4846 0
M  V30 44 H 3.2935 -2.5897 9.0E-4 0
M  V30 END ATOM
M  V30 BEGIN BOND
M  V30 1 1 1 2
M  V30 2 2 2 3
M  V30 3 1 2 4
M  V30 4 1 3 5
M  V30 5 1 3 6
M  V30 6 2 4 7
M  V30 7 2 6 8
M  V30 8 1 7 9
M  V30 9 1 9 10
M  V30 10 1 9 11
M  V30 11 2 10 12
M  V30 12 1 10 13
M  V30 13 1 11 14
M  V30 14 1 11 15
M  V30 15 2 13 16
M  V30 16 1 13 17
M  V30 17 2 14 18
M  V30 18 1 14 19
M  V30 19 1 16 20
M  V30 20 2 17 21
M  V30 21 1 19 22
M  V30 22 2 20 23
M  V30 23 1 22 24
M  V30 24 1 22 25
M  V30 25 1 7 8
M  V30 26 1 21 23
M  V30 27 1 4 26
M  V30 28 1 6 27
M  V30 29 1 8 28
M  V30 30 1 11 29
M  V30 31 1 15 30
M  V30 32 1 15 31
M  V30 33 1 15 32
M  V30 34 1 16 33
M  V30 35 1 17 34
M  V30 36 1 20 35
M  V30 37 1 21 36
M  V30 38 1 22 37
M  V30 39 1 23 38
M  V30 40 1 24 39
M  V30 41 1 24 40
M  V30 42 1 24 41
M  V30 43 1 25 42
M  V30 44 1 25 43
M  V30 45 1 25 44
M  V30 END BOND
M  V30 BEGIN COLLECTION
M  V30 MDLV30/STEABS ATOMS=(1 11)
M  V30 END COLLECTION
M  V30 END CTAB
M  END
>  <Structure No>
5314

>  <LogS>
-4.4817

>  <MMFF94 Energy>
69.819

$$$$
Compound 5315
Actelion Java MolfileCreator 2.0

  0  0  0  0  0  0              0 V3000
M  V30 BEGIN CTAB
M  V30 COUNTS 42 44 0 0 0
M  V30 BEGIN ATOM
M  V30 1 O -4.3909 -0.877 0.3985 0
M  V30 2 C -5.427 0.0513 0.6351 0 CFG=1
M  V30 3 C -3.4051 -0.5892 1.3378 0 CFG=2
M  V30 4 O -5.0383 1.0334 1.5704 0
M  V30 5 C -5.8293 0.7319 -0.6779 0
M  V30 6 C -3.6867 0.8111 1.8134 0
M  V30 7 C -2.0195 -0.7337 0.7053 0
M  V30 8 C -6.3909 -0.2662 -1.6881 0
M  V30 9 O -1.014 -0.4421 1.6734 0
M  V30 10 C 0.3645 -0.4736 1.4186 0
M  V30 11 C 1.2408 -0.156 2.4626 0
M  V30 12 C 0.8926 -0.8148 0.1589 0
M  V30 13 C 2.6233 -0.1702 2.2581 0
M  V30 14 C 2.2757 -0.8283 -0.0444 0
M  V30 15 C 3.1506 -0.4888 1.0024 0
M  V30 16 O 4.5438 -0.5058 0.8407 0
M  V30 17 C 5.2279 -0.2183 -0.3495 0
M  V30 18 C 4.7309 0.7026 -1.291 0
M  V30 19 C 6.4654 -0.8327 -0.5795 0
M  V30 20 C 5.4526 0.9749 -2.4572 0
M  V30 21 C 7.1848 -0.559 -1.7469 0
M  V30 22 C 6.677 0.3418 -2.687 0
M  V30 23 H -6.3052 -0.4921 1.0475 0
M  V30 24 H -3.5002 -1.3036 2.1864 0
M  V30 25 H -6.6035 1.5017 -0.4683 0
M  V30 26 H -4.9448 1.2412 -1.1185 0
M  V30 27 H -3.0938 1.5697 1.2559 0
M  V30 28 H -3.4757 0.9098 2.8998 0
M  V30 29 H -1.8953 -1.7783 0.3461 0
M  V30 30 H -1.9252 -0.0409 -0.16 0
M  V30 31 H -7.2814 -0.7807 -1.2685 0
M  V30 32 H -6.6943 0.2716 -2.6109 0
M  V30 33 H -5.6226 -1.0217 -1.9568 0
M  V30 34 H 0.8476 0.1029 3.4375 0
M  V30 35 H 0.2449 -1.0785 -0.6656 0
M  V30 36 H 3.2879 0.0758 3.0765 0
M  V30 37 H 2.6618 -1.1224 -1.0114 0
M  V30 38 H 3.799 1.2235 -1.1152 0
M  V30 39 H 6.8662 -1.5294 0.1458 0
M  V30 40 H 5.0663 1.6827 -3.179 0
M  V30 41 H 8.1366 -1.0437 -1.9216 0
M  V30 42 H 7.2354 0.5547 -3.5892 0
M  V30 END ATOM
M  V30 BEGIN BOND
M  V30 1 1 1 2
M  V30 2 1 1 3
M  V30 3 1 2 4
M  V30 4 1 2 5
M  V30 5 1 3 6
M  V30 6 1 3 7
M  V30 7 1 5 8
M  V30 8 1 7 9
M  V30 9 1 9 10
M  V30 10 2 10 11
M  V30 11 1 10 12
M  V30 12 1 11 13
M  V30 13 2 12 14
M  V30 14 2 13 15
M  V30 15 1 15 16
M  V30 16 1 16 17
M  V30 17 2 17 18
M  V30 18 1 17 19
M  V30 19 1 18 20
M  V30 20 2 19 21
M  V30 21 2 20 22
M  V30 22 1 4 6
M  V30 23 1 14 15
M  V30 24 1 21 22
M  V30 25 1 2 23
M  V30 26 1 3 24
M  V30 27 1 5 25
M  V30 28 1 5 26
M  V30 29 1 6 27
M  V30 30 1 6 28
M  V30 31 1 7 29
M  V30 32 1 7 30
M  V30 33 1 8 31
M  V30 34 1 8 32
M  V30 35 1 8 33
M  V30 36 1 11 34
M  V30 37 1 12 35
M  V30 38 1 13 36
M  V30 39 1 14 37
M  V30 40 1 18 38
M  V30 41 1 19 39
M  V30 42 1 20 40
M  V30 43 1 21 41
M  V30 44 1 22 42
M  V30 END BOND
M  V30 BEGIN COLLECTION
M  V30 MDLV30/STEABS ATOMS=(2 2 3)
M  V30 END COLLECTION
M  V30 END CTAB
M  END
>  <Structure No>
5315

>  <LogS>
-4.7874

>  <MMFF94 Energy>
66.473

$$$$
Compound 5316
Actelion Java MolfileCreator 2.0

  0  0  0  0  0  0              0 V3000
M  V30 BEGIN CTAB
M  V30 COUNTS 30 31 0 0 0
M  V30 BEGIN ATOM
M  V30 1 O 1.1058 -2.3708 -0.6317 0
M  V30 2 C 0.2844 -1.4364 -0.4102 0
M  V30 3 N 0.7286 -0.1233 -0.3723 0
M  V30 4 N -1.0454 -1.7376 -0.2074 0
M  V30 5 C -0.1574 0.8994 -0.1161 0
M  V30 6 C 2.1622 0.1772 -0.5553 0
M  V30 7 C -1.9076 -0.7074 0.0083 0
M  V30 8 C -1.5301 -3.122 -0.2874 0
M  V30 9 O 0.2289 2.0984 -0.0455 0
M  V30 10 C -1.4961 0.5792 0.0649 0
M  V30 11 C 2.8891 0.1365 0.7924 0
M  V30 12 N -3.2396 -0.7932 0.2013 0
M  V30 13 N -2.5596 1.3654 0.3007 0
M  V30 14 C 4.3743 0.4451 0.6304 0
M  V30 15 C -3.6034 0.5038 0.3771 0
M  V30 16 C -2.6067 2.8174 0.4386 0
M  V30 17 H 2.6279 -0.5488 -1.2575 0
M  V30 18 H 2.2957 1.1769 -1.025 0
M  V30 19 H -0.8121 -3.8153 0.2003 0
M  V30 20 H -1.653 -3.4117 -1.352 0
M  V30 21 H -2.5035 -3.2429 0.2338 0
M  V30 22 H 2.7762 -0.8717 1.2458 0
M  V30 23 H 2.4374 0.8827 1.4814 0
M  V30 24 H 4.5127 1.4603 0.2015 0
M  V30 25 H 4.8533 -0.3036 -0.0355 0
M  V30 26 H 4.8718 0.4079 1.6223 0
M  V30 27 H -4.6249 0.8121 0.5592 0
M  V30 28 H -3.6472 3.1556 0.6313 0
M  V30 29 H -1.9671 3.134 1.2889 0
M  V30 30 H -2.245 3.2944 -0.4961 0
M  V30 END ATOM
M  V30 BEGIN BOND
M  V30 1 2 1 2
M  V30 2 1 2 3
M  V30 3 1 2 4
M  V30 4 1 3 5
M  V30 5 1 3 6
M  V30 6 1 4 7
M  V30 7 1 4 8
M  V30 8 2 5 9
M  V30 9 1 5 10
M  V30 10 1 6 11
M  V30 11 1 7 12
M  V30 12 1 10 13
M  V30 13 1 11 14
M  V30 14 2 12 15
M  V30 15 1 13 16
M  V30 16 2 7 10
M  V30 17 1 13 15
M  V30 18 1 6 17
M  V30 19 1 6 18
M  V30 20 1 8 19
M  V30 21 1 8 20
M  V30 22 1 8 21
M  V30 23 1 11 22
M  V30 24 1 11 23
M  V30 25 1 14 24
M  V30 26 1 14 25
M  V30 27 1 14 26
M  V30 28 1 15 27
M  V30 29 1 16 28
M  V30 30 1 16 29
M  V30 31 1 16 30
M  V30 END BOND
M  V30 END CTAB
M  END
>  <Structure No>
5316

>  <LogS>
-1.2082

>  <MMFF94 Energy>
-125.56

$$$$
Compound 5317
Actelion Java MolfileCreator 2.0

  0  0  0  0  0  0              0 V3000
M  V30 BEGIN CTAB
M  V30 COUNTS 16 15 0 0 0
M  V30 BEGIN ATOM
M  V30 1 Cl 0.0842 -2.1084 0.5057 0
M  V30 2 N 0.0788 -0.6521 -0.4675 0
M  V30 3 C 0.898 0.3968 0.1619 0
M  V30 4 C -1.2966 -0.2154 -0.783 0
M  V30 5 C 2.3726 0.1678 -0.1585 0
M  V30 6 C -2.1352 0.2211 0.4364 0
M  V30 7 Cl 3.3662 1.4577 0.5649 0
M  V30 8 Cl -2.9525 -1.1593 1.2182 0
M  V30 9 H 0.6155 1.4011 -0.2266 0
M  V30 10 H 0.7578 0.3989 1.2657 0
M  V30 11 H -1.2428 0.6354 -1.4972 0
M  V30 12 H -1.8239 -1.0298 -1.3253 0
M  V30 13 H 2.5252 0.1719 -1.2585 0
M  V30 14 H 2.7082 -0.8088 0.2489 0
M  V30 15 H -1.5332 0.7691 1.1877 0
M  V30 16 H -2.9321 0.9117 0.088 0
M  V30 END ATOM
M  V30 BEGIN BOND
M  V30 1 1 1 2
M  V30 2 1 2 3
M  V30 3 1 2 4
M  V30 4 1 3 5
M  V30 5 1 4 6
M  V30 6 1 5 7
M  V30 7 1 6 8
M  V30 8 1 3 9
M  V30 9 1 3 10
M  V30 10 1 4 11
M  V30 11 1 4 12
M  V30 12 1 5 13
M  V30 13 1 5 14
M  V30 14 1 6 15
M  V30 15 1 6 16
M  V30 END BOND
M  V30 END CTAB
M  END
>  <Structure No>
5317

>  <LogS>
-1.9203

>  <MMFF94 Energy>
28.527

$$$$
Compound 5318
Actelion Java MolfileCreator 2.0

  0  0  0  0  0  0              0 V3000
M  V30 BEGIN CTAB
M  V30 COUNTS 54 57 0 0 0
M  V30 BEGIN ATOM
M  V30 1 Cl 1.8864 -2.2147 1.6401 0
M  V30 2 C 0.6995 -1.2511 0.7127 0
M  V30 3 Cl -0.8161 -0.7928 1.5479 0
M  V30 4 C 1.1605 -0.4367 -0.5056 0 CFG=2
M  V30 5 C 0.4706 -1.7919 -0.6937 0
M  V30 6 C 2.6362 -0.3887 -0.8087 0
M  V30 7 C 0.3425 0.7625 -0.8752 0
M  V30 8 C 3.5182 0.2201 0.0961 0
M  V30 9 C 3.1301 -0.866 -2.032 0
M  V30 10 O 0.3827 1.791 -0.1456 0
M  V30 11 O -0.4327 0.7432 -2.0406 0
M  V30 12 C 4.8842 0.2991 -0.1907 0
M  V30 13 C 4.4955 -0.7865 -2.3199 0
M  V30 14 C -1.3828 1.7593 -2.3593 0 CFG=1
M  V30 15 C 5.3859 -0.2163 -1.4019 0
M  V30 16 C -1.884 1.5358 -3.7185 0
M  V30 17 C -2.5366 1.7332 -1.3839 0
M  V30 18 O 6.7488 -0.1757 -1.7402 0
M  V30 19 N -2.279 1.3612 -4.7919 0
M  V30 20 C -3.089 0.5094 -0.9639 0
M  V30 21 C -3.0751 2.9329 -0.8911 0
M  V30 22 C 7.8085 0.2263 -0.8705 0
M  V30 23 C -4.1184 0.4784 -0.0175 0
M  V30 24 C -4.1326 2.9077 0.0218 0
M  V30 25 C 8.0916 -0.8516 0.1704 0
M  V30 26 O -4.6103 -0.7655 0.4025 0
M  V30 27 C -4.6547 1.6873 0.4584 0
M  V30 28 C -5.049 -1.0708 1.6989 0
M  V30 29 C -4.5751 -0.3817 2.8326 0
M  V30 30 C -5.9533 -2.1277 1.8693 0
M  V30 31 C -5.0364 -0.7239 4.1083 0
M  V30 32 C -6.4058 -2.4742 3.1472 0
M  V30 33 C -5.9549 -1.7672 4.2654 0
M  V30 34 H -0.5848 -1.7549 -1.039 0
M  V30 35 H 1.1356 -2.6346 -0.9797 0
M  V30 36 H 3.1471 0.629 1.0279 0
M  V30 37 H 2.459 -1.3009 -2.7618 0
M  V30 38 H 5.5349 0.767 0.534 0
M  V30 39 H 4.8656 -1.1723 -3.2615 0
M  V30 40 H -0.8741 2.7485 -2.3411 0
M  V30 41 H -2.6983 -0.4244 -1.3484 0
M  V30 42 H -2.676 3.8866 -1.2126 0
M  V30 43 H 7.5792 1.2 -0.3861 0
M  V30 44 H 8.7242 0.3679 -1.4831 0
M  V30 45 H -4.5483 3.8355 0.3933 0
M  V30 46 H 8.3244 -1.8121 -0.3357 0
M  V30 47 H 7.2154 -0.9973 0.8343 0
M  V30 48 H 8.9638 -0.5523 0.7894 0
M  V30 49 H -5.4821 1.6853 1.1561 0
M  V30 50 H -3.8415 0.4084 2.7347 0
M  V30 51 H -6.3122 -2.678 1.0082 0
M  V30 52 H -4.6772 -0.1832 4.9761 0
M  V30 53 H -7.108 -3.2867 3.2707 0
M  V30 54 H -6.3129 -2.0308 5.2537 0
M  V30 END ATOM
M  V30 BEGIN BOND
M  V30 1 1 1 2
M  V30 2 1 2 3
M  V30 3 1 2 4
M  V30 4 1 2 5
M  V30 5 1 4 6
M  V30 6 1 4 7
M  V30 7 2 6 8
M  V30 8 1 6 9
M  V30 9 2 7 10
M  V30 10 1 7 11
M  V30 11 1 8 12
M  V30 12 2 9 13
M  V30 13 1 11 14
M  V30 14 2 12 15
M  V30 15 1 14 16
M  V30 16 1 14 17
M  V30 17 1 15 18
M  V30 18 3 16 19
M  V30 19 2 17 20
M  V30 20 1 17 21
M  V30 21 1 18 22
M  V30 22 1 20 23
M  V30 23 2 21 24
M  V30 24 1 22 25
M  V30 25 1 23 26
M  V30 26 2 23 27
M  V30 27 1 26 28
M  V30 28 2 28 29
M  V30 29 1 28 30
M  V30 30 1 29 31
M  V30 31 2 30 32
M  V30 32 2 31 33
M  V30 33 1 4 5
M  V30 34 1 13 15
M  V30 35 1 24 27
M  V30 36 1 32 33
M  V30 37 1 5 34
M  V30 38 1 5 35
M  V30 39 1 8 36
M  V30 40 1 9 37
M  V30 41 1 12 38
M  V30 42 1 13 39
M  V30 43 1 14 40
M  V30 44 1 20 41
M  V30 45 1 21 42
M  V30 46 1 22 43
M  V30 47 1 22 44
M  V30 48 1 24 45
M  V30 49 1 25 46
M  V30 50 1 25 47
M  V30 51 1 25 48
M  V30 52 1 27 49
M  V30 53 1 29 50
M  V30 54 1 30 51
M  V30 55 1 31 52
M  V30 56 1 32 53
M  V30 57 1 33 54
M  V30 END BOND
M  V30 BEGIN COLLECTION
M  V30 MDLV30/STEABS ATOMS=(2 4 14)
M  V30 END COLLECTION
M  V30 END CTAB
M  END
>  <Structure No>
5318

>  <LogS>
-6.7243

>  <MMFF94 Energy>
74.57

$$$$
Compound 5319
Actelion Java MolfileCreator 2.0

  0  0  0  0  0  0              0 V3000
M  V30 BEGIN CTAB
M  V30 COUNTS 51 52 0 0 0
M  V30 BEGIN ATOM
M  V30 1 O -4.9387 0.5566 -1.5911 0
M  V30 2 C -4.702 0.0088 -0.4788 0
M  V30 3 O -5.604 -0.9238 0.0505 0
M  V30 4 N -3.5029 0.3415 0.244 0
M  V30 5 C -6.8398 -1.2676 -0.572 0
M  V30 6 C -3.1855 -0.3336 1.5105 0
M  V30 7 C -2.7081 1.5012 -0.1802 0
M  V30 8 C -7.8623 -0.1504 -0.3922 0
M  V30 9 C -1.6659 -0.5692 1.6742 0
M  V30 10 C -1.4472 1.646 0.6703 0
M  V30 11 N -0.8314 0.3194 0.8273 0
M  V30 12 C 0.5359 0.4442 1.3723 0
M  V30 13 N 1.2219 -0.8679 1.3837 0
M  V30 14 C 2.4595 -0.8449 2.2127 0
M  V30 15 C 1.4147 -1.4225 0.0234 0
M  V30 16 C 3.7507 -1.1679 1.4387 0
M  V30 17 C 2.5454 -0.7129 -0.7361 0
M  V30 18 N 3.7225 -0.5284 0.1193 0
M  V30 19 C 4.8559 0.1984 -0.3886 0
M  V30 20 O 5.8594 0.4066 0.3471 0
M  V30 21 O 4.8329 0.6906 -1.7004 0
M  V30 22 C 5.905 1.4282 -2.2836 0
M  V30 23 C 7.0553 0.5019 -2.6624 0
M  V30 24 H -6.6835 -1.4798 -1.6517 0
M  V30 25 H -7.2323 -2.1902 -0.0927 0
M  V30 26 H -3.5495 0.3008 2.3473 0
M  V30 27 H -3.7051 -1.3119 1.5853 0
M  V30 28 H -3.319 2.4252 -0.1017 0
M  V30 29 H -2.404 1.3655 -1.2404 0
M  V30 30 H -7.9748 0.0925 0.6865 0
M  V30 31 H -8.8463 -0.4759 -0.7935 0
M  V30 32 H -7.538 0.7612 -0.9381 0
M  V30 33 H -1.4429 -1.6236 1.3934 0
M  V30 34 H -1.4134 -0.4559 2.7554 0
M  V30 35 H -0.7571 2.3464 0.1487 0
M  V30 36 H -1.6992 2.0837 1.6637 0
M  V30 37 H 1.1279 1.1694 0.772 0
M  V30 38 H 0.48 0.8574 2.4065 0
M  V30 39 H 2.6062 0.1422 2.711 0
M  V30 40 H 2.3452 -1.5899 3.0293 0
M  V30 41 H 0.4763 -1.3662 -0.5694 0
M  V30 42 H 1.6583 -2.5038 0.1097 0
M  V30 43 H 4.6226 -0.8305 2.0418 0
M  V30 44 H 3.8449 -2.2687 1.3054 0
M  V30 45 H 2.1849 0.2768 -1.0912 0
M  V30 46 H 2.8236 -1.3168 -1.6276 0
M  V30 47 H 5.5311 1.9256 -3.2035 0
M  V30 48 H 6.2569 2.2181 -1.5839 0
M  V30 49 H 7.8598 1.0882 -3.1543 0
M  V30 50 H 6.696 -0.2774 -3.367 0
M  V30 51 H 7.4734 0.0118 -1.759 0
M  V30 END ATOM
M  V30 BEGIN BOND
M  V30 1 2 1 2
M  V30 2 1 2 3
M  V30 3 1 2 4
M  V30 4 1 3 5
M  V30 5 1 4 6
M  V30 6 1 4 7
M  V30 7 1 5 8
M  V30 8 1 6 9
M  V30 9 1 7 10
M  V30 10 1 9 11
M  V30 11 1 11 12
M  V30 12 1 12 13
M  V30 13 1 13 14
M  V30 14 1 13 15
M  V30 15 1 14 16
M  V30 16 1 15 17
M  V30 17 1 16 18
M  V30 18 1 18 19
M  V30 19 2 19 20
M  V30 20 1 19 21
M  V30 21 1 21 22
M  V30 22 1 22 23
M  V30 23 1 10 11
M  V30 24 1 17 18
M  V30 25 1 5 24
M  V30 26 1 5 25
M  V30 27 1 6 26
M  V30 28 1 6 27
M  V30 29 1 7 28
M  V30 30 1 7 29
M  V30 31 1 8 30
M  V30 32 1 8 31
M  V30 33 1 8 32
M  V30 34 1 9 33
M  V30 35 1 9 34
M  V30 36 1 10 35
M  V30 37 1 10 36
M  V30 38 1 12 37
M  V30 39 1 12 38
M  V30 40 1 14 39
M  V30 41 1 14 40
M  V30 42 1 15 41
M  V30 43 1 15 42
M  V30 44 1 16 43
M  V30 45 1 16 44
M  V30 46 1 17 45
M  V30 47 1 17 46
M  V30 48 1 22 47
M  V30 49 1 22 48
M  V30 50 1 23 49
M  V30 51 1 23 50
M  V30 52 1 23 51
M  V30 END BOND
M  V30 END CTAB
M  END
>  <Structure No>
5319

>  <LogS>
-0.8443

>  <MMFF94 Energy>
-48.329

$$$$
Compound 5320
Actelion Java MolfileCreator 2.0

  0  0  0  0  0  0              0 V3000
M  V30 BEGIN CTAB
M  V30 COUNTS 27 27 0 0 0
M  V30 BEGIN ATOM
M  V30 1 F 5.2733 -0.638 -2.1546 0
M  V30 2 C 4.515 -0.3414 -1.0691 0
M  V30 3 C 5.0545 -0.3782 0.214 0
M  V30 4 C 3.1729 0.0042 -1.2182 0
M  V30 5 O 6.2615 -0.6901 0.389 0
M  V30 6 N 4.2748 -0.071 1.2801 0 CHG=-1
M  V30 7 N 2.4037 0.2901 -0.1249 0
M  V30 8 C 2.967 0.2661 1.1265 0
M  V30 9 C 1.0174 0.6318 -0.3203 0
M  V30 10 O 2.2937 0.5776 2.1458 0
M  V30 11 O 0.6958 1.4183 -1.2534 0
M  V30 12 N -6.0E-4 0.0602 0.5167 0
M  V30 13 C -1.4097 0.4322 0.4068 0
M  V30 14 C -2.0592 -0.2814 -0.786 0
M  V30 15 C -3.5118 0.1607 -1.0194 0
M  V30 16 C -4.4654 -0.3448 0.0627 0
M  V30 17 H 2.7458 0.0252 -2.2144 0
M  V30 18 H 0.265 -0.6558 1.2294 0
M  V30 19 H -1.4997 1.5355 0.3011 0
M  V30 20 H -1.9282 0.1354 1.3429 0
M  V30 21 H -1.4798 -0.0522 -1.706 0
M  V30 22 H -2.0178 -1.3819 -0.6313 0
M  V30 23 H -3.5694 1.2694 -1.0788 0
M  V30 24 H -3.8493 -0.2456 -1.9974 0
M  V30 25 H -4.2483 0.1404 1.0366 0
M  V30 26 H -5.5097 -0.0963 -0.2209 0
M  V30 27 H -4.3818 -1.4471 0.1707 0
M  V30 END ATOM
M  V30 BEGIN BOND
M  V30 1 1 1 2
M  V30 2 1 2 3
M  V30 3 2 2 4
M  V30 4 2 3 5
M  V30 5 1 3 6
M  V30 6 1 4 7
M  V30 7 1 6 8
M  V30 8 1 7 9
M  V30 9 2 8 10
M  V30 10 2 9 11
M  V30 11 1 9 12
M  V30 12 1 12 13
M  V30 13 1 13 14
M  V30 14 1 14 15
M  V30 15 1 15 16
M  V30 16 1 7 8
M  V30 17 1 4 17
M  V30 18 1 12 18
M  V30 19 1 13 19
M  V30 20 1 13 20
M  V30 21 1 14 21
M  V30 22 1 14 22
M  V30 23 1 15 23
M  V30 24 1 15 24
M  V30 25 1 16 25
M  V30 26 1 16 26
M  V30 27 1 16 27
M  V30 END BOND
M  V30 END CTAB
M  END
>  <Structure No>
5320

>  <LogS>
-2.4464

>  <MMFF94 Energy>
-26.392

$$$$
Compound 5321
Actelion Java MolfileCreator 2.0

  0  0  0  0  0  0              0 V3000
M  V30 BEGIN CTAB
M  V30 COUNTS 74 77 0 0 0
M  V30 BEGIN ATOM
M  V30 1 O 7.8425 -3.1476 -1.4518 0
M  V30 2 C 7.2538 -3.4025 -0.365 0
M  V30 3 O 7.1572 -4.7185 0.0727 0 CHG=-1
M  V30 4 C 6.7088 -2.2967 0.4871 0
M  V30 5 N 6.2787 -1.1644 -0.3322 0
M  V30 6 C 5.133 -1.2276 -1.1942 0
M  V30 7 O 4.4343 -2.2767 -1.246 0
M  V30 8 C 4.7381 -0.0377 -2.022 0
M  V30 9 C 3.4132 0.5892 -1.55 0
M  V30 10 C 3.4273 1.0975 -0.0772 0 CFG=2
M  V30 11 C 2.0333 1.6081 0.4587 0 CFG=2
M  V30 12 C 4.4974 2.1962 0.1097 0
M  V30 13 C 0.8742 0.569 0.6737 0 CFG=2
M  V30 14 C 1.4206 2.7106 -0.4222 0
M  V30 15 C 0.0419 0.6651 -0.6346 0 CFG=2
M  V30 16 C 0.0257 1.0346 1.8989 0
M  V30 17 C 1.4039 -0.8614 0.9557 0
M  V30 18 C 0.2136 2.1088 -1.1375 0
M  V30 19 C -1.4654 0.2421 -0.5676 0 CFG=1
M  V30 20 C -1.382 0.4343 1.9604 0
M  V30 21 C -1.6633 -1.286 -0.7164 0 CFG=2
M  V30 22 C -2.1954 0.7993 0.693 0 CFG=2
M  V30 23 O -1.0696 -1.73 -1.9124 0
M  V30 24 C -3.1525 -1.6304 -0.7647 0
M  V30 25 C -3.7305 0.3948 0.7457 0 CFG=2
M  V30 26 C -3.9049 -1.1398 0.4935 0 CFG=1
M  V30 27 C -4.5342 1.2398 -0.3122 0
M  V30 28 C -4.3091 0.7425 2.151 0
M  V30 29 C -5.396 -1.58 0.4446 0
M  V30 30 C -5.7028 0.514 -1.0104 0
M  V30 31 C -6.3866 -0.5372 -0.1298 0 CFG=1
M  V30 32 O -7.375 -1.2041 -0.8741 0
M  V30 33 H 7.505 -1.9645 1.1888 0
M  V30 34 H 5.8516 -2.6672 1.0897 0
M  V30 35 H 6.8221 -0.2745 -0.2671 0
M  V30 36 H 5.5469 0.7229 -2.029 0
M  V30 37 H 4.6156 -0.3719 -3.0753 0
M  V30 38 H 2.6358 -0.1798 -1.6888 0
M  V30 39 H 3.1697 1.4239 -2.2411 0
M  V30 40 H 3.7506 0.2617 0.5755 0
M  V30 41 H 2.26 2.0587 1.4529 0
M  V30 42 H 5.5164 1.7714 0.0161 0
M  V30 43 H 4.383 3.0037 -0.6419 0
M  V30 44 H 4.4365 2.6441 1.1238 0
M  V30 45 H 2.132 3.1442 -1.1536 0
M  V30 46 H 1.0792 3.5497 0.2244 0
M  V30 47 H 0.5233 0.0289 -1.4007 0
M  V30 48 H 0.5616 0.7913 2.8439 0
M  V30 49 H -0.0917 2.1409 1.8888 0
M  V30 50 H 1.8643 -1.324 0.0619 0
M  V30 51 H 0.6068 -1.5415 1.3016 0
M  V30 52 H 2.1557 -0.838 1.7723 0
M  V30 53 H -0.6817 2.7323 -0.9259 0
M  V30 54 H 0.3741 2.1148 -2.2378 0
M  V30 55 H -1.9384 0.6857 -1.4697 0
M  V30 56 H -1.3433 -0.6609 2.1186 0
M  V30 57 H -1.847 0.874 2.8652 0
M  V30 58 H -1.2209 -1.8169 0.1504 0
M  V30 59 H -2.1721 1.9102 0.6323 0
M  V30 60 H -0.6877 -2.6295 -1.7378 0
M  V30 61 H -3.5895 -1.2094 -1.6897 0
M  V30 62 H -3.2466 -2.737 -0.8352 0
M  V30 63 H -3.4458 -1.6852 1.3501 0
M  V30 64 H -3.873 1.619 -1.1165 0
M  V30 65 H -4.9302 2.167 0.1624 0
M  V30 66 H -5.4102 0.6827 2.1832 0
M  V30 67 H -3.9397 0.0426 2.9281 0
M  V30 68 H -4.0373 1.7806 2.4392 0
M  V30 69 H -5.4836 -2.5344 -0.1223 0
M  V30 70 H -5.7255 -1.8274 1.4793 0
M  V30 71 H -6.4588 1.2726 -1.3157 0
M  V30 72 H -5.3578 0.0418 -1.9528 0
M  V30 73 H -6.8843 -0.0128 0.7169 0
M  V30 74 H -8.1295 -0.5701 -0.9914 0
M  V30 END ATOM
M  V30 BEGIN BOND
M  V30 1 2 1 2
M  V30 2 1 2 3
M  V30 3 1 2 4
M  V30 4 1 4 5
M  V30 5 1 5 6
M  V30 6 2 6 7
M  V30 7 1 6 8
M  V30 8 1 8 9
M  V30 9 1 9 10
M  V30 10 1 10 11
M  V30 11 1 10 12
M  V30 12 1 11 13
M  V30 13 1 11 14
M  V30 14 1 13 15
M  V30 15 1 13 16
M  V30 16 1 13 17
M  V30 17 1 14 18
M  V30 18 1 15 19
M  V30 19 1 16 20
M  V30 20 1 19 21
M  V30 21 1 19 22
M  V30 22 1 21 23
M  V30 23 1 21 24
M  V30 24 1 22 25
M  V30 25 1 24 26
M  V30 26 1 25 27
M  V30 27 1 25 28
M  V30 28 1 26 29
M  V30 29 1 27 30
M  V30 30 1 29 31
M  V30 31 1 31 32
M  V30 32 1 15 18
M  V30 33 1 20 22
M  V30 34 1 25 26
M  V30 35 1 30 31
M  V30 36 1 4 33
M  V30 37 1 4 34
M  V30 38 1 5 35
M  V30 39 1 8 36
M  V30 40 1 8 37
M  V30 41 1 9 38
M  V30 42 1 9 39
M  V30 43 1 10 40
M  V30 44 1 11 41
M  V30 45 1 12 42
M  V30 46 1 12 43
M  V30 47 1 12 44
M  V30 48 1 14 45
M  V30 49 1 14 46
M  V30 50 1 15 47
M  V30 51 1 16 48
M  V30 52 1 16 49
M  V30 53 1 17 50
M  V30 54 1 17 51
M  V30 55 1 17 52
M  V30 56 1 18 53
M  V30 57 1 18 54
M  V30 58 1 19 55
M  V30 59 1 20 56
M  V30 60 1 20 57
M  V30 61 1 21 58
M  V30 62 1 22 59
M  V30 63 1 23 60
M  V30 64 1 24 61
M  V30 65 1 24 62
M  V30 66 1 26 63
M  V30 67 1 27 64
M  V30 68 1 27 65
M  V30 69 1 28 66
M  V30 70 1 28 67
M  V30 71 1 28 68
M  V30 72 1 29 69
M  V30 73 1 29 70
M  V30 74 1 30 71
M  V30 75 1 30 72
M  V30 76 1 31 73
M  V30 77 1 32 74
M  V30 END BOND
M  V30 BEGIN COLLECTION
M  V30 MDLV30/STEABS ATOMS=(10 10 11 13 15 19 21 22 25 26 31)
M  V30 END COLLECTION
M  V30 END CTAB
M  END
>  <Structure No>
5321

>  <LogS>
-5.5225

>  <MMFF94 Energy>
124.73

$$$$
Compound 5322
Actelion Java MolfileCreator 2.0

  0  0  0  0  0  0              0 V3000
M  V30 BEGIN CTAB
M  V30 COUNTS 31 31 0 0 0
M  V30 BEGIN ATOM
M  V30 1 S 3.4575 -1.4462 -0.2409 0
M  V30 2 C 1.7076 -1.0467 -0.0946 0
M  V30 3 C 4.0026 0.2883 -0.4209 0
M  V30 4 N 1.1925 -0.8958 1.1488 0
M  V30 5 N 0.8944 -0.9078 -1.1877 0
M  V30 6 C 4.1032 0.9735 0.9357 0
M  V30 7 N -0.0905 -0.6019 1.3344 0
M  V30 8 N 1.4057 -1.0733 -2.4933 0
M  V30 9 C -0.4295 -0.603 -1.0102 0
M  V30 10 C -0.9496 -0.4407 0.2936 0
M  V30 11 O -1.18 -0.4692 -2.0144 0
M  V30 12 C -2.4215 -0.0975 0.578 0
M  V30 13 C -2.6723 0.0133 2.1018 0
M  V30 14 C -2.788 1.2598 -0.0591 0
M  V30 15 C -3.3459 -1.2049 0.0283 0
M  V30 16 H 5.006 0.287 -0.8962 0
M  V30 17 H 3.311 0.8521 -1.0831 0
M  V30 18 H 3.1019 1.0522 1.407 0
M  V30 19 H 4.5115 1.9976 0.8047 0
M  V30 20 H 4.7808 0.4018 1.6044 0
M  V30 21 H 2.4043 -1.313 -2.6739 0
M  V30 22 H 0.7975 -0.963 -3.3351 0
M  V30 23 H -2.0403 0.812 2.5478 0
M  V30 24 H -2.4394 -0.9474 2.6103 0
M  V30 25 H -3.7352 0.262 2.313 0
M  V30 26 H -2.0877 2.0511 0.2857 0
M  V30 27 H -2.7528 1.2203 -1.1664 0
M  V30 28 H -3.82 1.5599 0.2248 0
M  V30 29 H -4.4022 -1.0114 0.3154 0
M  V30 30 H -3.0493 -2.195 0.437 0
M  V30 31 H -3.3132 -1.2596 -1.0783 0
M  V30 END ATOM
M  V30 BEGIN BOND
M  V30 1 1 1 2
M  V30 2 1 1 3
M  V30 3 2 2 4
M  V30 4 1 2 5
M  V30 5 1 3 6
M  V30 6 1 4 7
M  V30 7 1 5 8
M  V30 8 1 5 9
M  V30 9 2 7 10
M  V30 10 2 9 11
M  V30 11 1 10 12
M  V30 12 1 12 13
M  V30 13 1 12 14
M  V30 14 1 12 15
M  V30 15 1 9 10
M  V30 16 1 3 16
M  V30 17 1 3 17
M  V30 18 1 6 18
M  V30 19 1 6 19
M  V30 20 1 6 20
M  V30 21 1 8 21
M  V30 22 1 8 22
M  V30 23 1 13 23
M  V30 24 1 13 24
M  V30 25 1 13 25
M  V30 26 1 14 26
M  V30 27 1 14 27
M  V30 28 1 14 28
M  V30 29 1 15 29
M  V30 30 1 15 30
M  V30 31 1 15 31
M  V30 END BOND
M  V30 END CTAB
M  END
>  <Structure No>
5322

>  <LogS>
-2.7353

>  <MMFF94 Energy>
112.44

$$$$
Compound 5323
Actelion Java MolfileCreator 2.0

  0  0  0  0  0  0              0 V3000
M  V30 BEGIN CTAB
M  V30 COUNTS 34 35 0 0 0
M  V30 BEGIN ATOM
M  V30 1 Cl 3.7061 -1.4812 0.0 0
M  V30 2 C 4.5917 0.0318 -0.1699 0
M  V30 3 C 3.9804 1.2905 0.0365 0
M  V30 4 C 5.9622 -0.0386 -0.4509 0
M  V30 5 C 2.535 1.4237 0.3196 0
M  V30 6 C 4.7719 2.4515 -0.0144 0
M  V30 7 C 6.731 1.1249 -0.5189 0
M  V30 8 O 2.1569 2.2241 1.218 0
M  V30 9 N 1.5683 0.7023 -0.4617 0
M  V30 10 C 6.1376 2.3678 -0.2956 0
M  V30 11 C 0.1789 0.5943 -0.1155 0
M  V30 12 O -0.2517 1.1001 0.9564 0
M  V30 13 N -0.722 -0.0705 -1.0144 0
M  V30 14 C -2.0726 -0.4353 -0.6815 0
M  V30 15 C -2.4212 -0.8603 0.6123 0
M  V30 16 C -3.0537 -0.4265 -1.6827 0
M  V30 17 C -3.7369 -1.2333 0.9048 0
M  V30 18 C -4.3688 -0.798 -1.39 0
M  V30 19 C -4.7248 -1.2006 -0.0978 0
M  V30 20 O -6.0611 -1.5613 0.1396 0
M  V30 21 C -6.5874 -1.9938 1.3923 0
M  V30 22 F -5.9511 -3.1514 1.8029 0
M  V30 23 F -6.4265 -1.0036 2.3449 0
M  V30 24 F -7.9359 -2.2552 1.2457 0
M  V30 25 H 6.4369 -0.9995 -0.6044 0
M  V30 26 H 4.3281 3.4264 0.1478 0
M  V30 27 H 7.7897 1.062 -0.7347 0
M  V30 28 H 1.889 0.2409 -1.3423 0
M  V30 29 H 6.7363 3.2684 -0.3419 0
M  V30 30 H -0.4008 -0.2215 -1.9973 0
M  V30 31 H -1.6746 -0.9303 1.3919 0
M  V30 32 H -2.8004 -0.1205 -2.6901 0
M  V30 33 H -3.9693 -1.5527 1.9106 0
M  V30 34 H -5.1164 -0.7749 -2.1728 0
M  V30 END ATOM
M  V30 BEGIN BOND
M  V30 1 1 1 2
M  V30 2 2 2 3
M  V30 3 1 2 4
M  V30 4 1 3 5
M  V30 5 1 3 6
M  V30 6 2 4 7
M  V30 7 2 5 8
M  V30 8 1 5 9
M  V30 9 2 6 10
M  V30 10 1 9 11
M  V30 11 2 11 12
M  V30 12 1 11 13
M  V30 13 1 13 14
M  V30 14 2 14 15
M  V30 15 1 14 16
M  V30 16 1 15 17
M  V30 17 2 16 18
M  V30 18 2 17 19
M  V30 19 1 19 20
M  V30 20 1 20 21
M  V30 21 1 21 22
M  V30 22 1 21 23
M  V30 23 1 21 24
M  V30 24 1 7 10
M  V30 25 1 18 19
M  V30 26 1 4 25
M  V30 27 1 6 26
M  V30 28 1 7 27
M  V30 29 1 9 28
M  V30 30 1 10 29
M  V30 31 1 13 30
M  V30 32 1 15 31
M  V30 33 1 16 32
M  V30 34 1 17 33
M  V30 35 1 18 34
M  V30 END BOND
M  V30 END CTAB
M  END
>  <Structure No>
5323

>  <LogS>
-7.1568

>  <MMFF94 Energy>
-24.701

$$$$
Compound 5324
Actelion Java MolfileCreator 2.0

  0  0  0  0  0  0              0 V3000
M  V30 BEGIN CTAB
M  V30 COUNTS 22 22 0 0 0
M  V30 BEGIN ATOM
M  V30 1 O -0.2376 -1.8227 -1.5055 0
M  V30 2 C -0.1197 -0.9195 -0.6314 0
M  V30 3 O 1.0538 -0.8262 0.1246 0
M  V30 4 C -1.2204 0.0426 -0.4038 0
M  V30 5 C 2.1518 -1.7152 -0.0454 0
M  V30 6 C -1.0909 1.0527 0.5672 0
M  V30 7 C -2.4105 -0.0357 -1.1519 0
M  V30 8 C 3.2431 -1.3366 0.9025 0
M  V30 9 C -2.1301 1.9634 0.7838 0
M  V30 10 C -3.4463 0.8776 -0.9308 0
M  V30 11 O 3.4083 -1.9933 1.9649 0
M  V30 12 N 4.0731 -0.208 0.6304 0
M  V30 13 C -3.3064 1.8761 0.0358 0
M  V30 14 H 2.5309 -1.6504 -1.0881 0
M  V30 15 H 1.8237 -2.7594 0.1513 0
M  V30 16 H -0.1885 1.1405 1.1593 0
M  V30 17 H -2.5415 -0.8011 -1.9065 0
M  V30 18 H -2.0228 2.7376 1.5327 0
M  V30 19 H -4.3584 0.811 -1.5099 0
M  V30 20 H 3.9327 0.3587 -0.2352 0
M  V30 21 H 4.8277 0.0649 1.2986 0
M  V30 22 H -4.1093 2.5819 0.2052 0
M  V30 END ATOM
M  V30 BEGIN BOND
M  V30 1 2 1 2
M  V30 2 1 2 3
M  V30 3 1 2 4
M  V30 4 1 3 5
M  V30 5 2 4 6
M  V30 6 1 4 7
M  V30 7 1 5 8
M  V30 8 1 6 9
M  V30 9 2 7 10
M  V30 10 2 8 11
M  V30 11 1 8 12
M  V30 12 2 9 13
M  V30 13 1 10 13
M  V30 14 1 5 14
M  V30 15 1 5 15
M  V30 16 1 6 16
M  V30 17 1 7 17
M  V30 18 1 9 18
M  V30 19 1 10 19
M  V30 20 1 12 20
M  V30 21 1 12 21
M  V30 22 1 13 22
M  V30 END BOND
M  V30 END CTAB
M  END
>  <Structure No>
5324

>  <LogS>
-1.6405

>  <MMFF94 Energy>
23.964

$$$$
Compound 5325
Actelion Java MolfileCreator 2.0

  0  0  0  0  0  0              0 V3000
M  V30 BEGIN CTAB
M  V30 COUNTS 28 28 0 0 0
M  V30 BEGIN ATOM
M  V30 1 O 0.0 1.3435 -0.1579 0
M  V30 2 C 0.8047 0.4573 -0.5575 0
M  V30 3 O 0.413 -0.4521 -1.5483 0
M  V30 4 C 2.1658 0.3786 0.0166 0
M  V30 5 C -0.8923 -0.4756 -2.1213 0
M  V30 6 C 2.5804 1.2851 1.0109 0
M  V30 7 C 3.0665 -0.6081 -0.4242 0
M  V30 8 C -1.8823 -1.0222 -1.1377 0
M  V30 9 C 3.8682 1.2038 1.5496 0
M  V30 10 C 4.3531 -0.6847 0.1182 0
M  V30 11 O -1.8745 -2.2554 -0.8757 0
M  V30 12 N -2.806 -0.1485 -0.4752 0
M  V30 13 C 4.7537 0.2201 1.1039 0
M  V30 14 C -3.7502 -0.6529 0.5209 0
M  V30 15 C -4.6073 0.4762 1.0834 0
M  V30 16 H -1.1822 0.5431 -2.4582 0
M  V30 17 H -0.8757 -1.1327 -3.0158 0
M  V30 18 H 1.9111 2.056 1.3722 0
M  V30 19 H 2.7786 -1.3208 -1.1867 0
M  V30 20 H 4.1797 1.9044 2.3138 0
M  V30 21 H 5.0402 -1.4467 -0.2262 0
M  V30 22 H -2.792 0.8704 -0.7102 0
M  V30 23 H 5.7499 0.1588 1.5223 0
M  V30 24 H -4.4122 -1.4124 0.052 0
M  V30 25 H -3.1896 -1.1312 1.3531 0
M  V30 26 H -5.1896 0.9561 0.2682 0
M  V30 27 H -3.9629 1.2378 1.5718 0
M  V30 28 H -5.3141 0.0689 1.8366 0
M  V30 END ATOM
M  V30 BEGIN BOND
M  V30 1 2 1 2
M  V30 2 1 2 3
M  V30 3 1 2 4
M  V30 4 1 3 5
M  V30 5 2 4 6
M  V30 6 1 4 7
M  V30 7 1 5 8
M  V30 8 1 6 9
M  V30 9 2 7 10
M  V30 10 2 8 11
M  V30 11 1 8 12
M  V30 12 2 9 13
M  V30 13 1 12 14
M  V30 14 1 14 15
M  V30 15 1 10 13
M  V30 16 1 5 16
M  V30 17 1 5 17
M  V30 18 1 6 18
M  V30 19 1 7 19
M  V30 20 1 9 20
M  V30 21 1 10 21
M  V30 22 1 12 22
M  V30 23 1 13 23
M  V30 24 1 14 24
M  V30 25 1 14 25
M  V30 26 1 15 26
M  V30 27 1 15 27
M  V30 28 1 15 28
M  V30 END BOND
M  V30 END CTAB
M  END
>  <Structure No>
5325

>  <LogS>
-2.2373

>  <MMFF94 Energy>
24.206

$$$$
Compound 5326
Actelion Java MolfileCreator 2.0

  0  0  0  0  0  0              0 V3000
M  V30 BEGIN CTAB
M  V30 COUNTS 34 34 0 0 0
M  V30 BEGIN ATOM
M  V30 1 O 1.1839 -1.5787 0.4734 0
M  V30 2 C 1.751 -0.4513 0.5032 0
M  V30 3 O 1.0184 0.6938 0.8428 0
M  V30 4 C 3.1898 -0.3355 0.1797 0
M  V30 5 C -0.377 0.6708 1.1403 0
M  V30 6 C 3.9442 -1.4744 -0.1604 0
M  V30 7 C 3.8249 0.9197 0.2065 0
M  V30 8 C -1.1862 0.4193 -0.1043 0
M  V30 9 C 5.3038 -1.3568 -0.4661 0
M  V30 10 C 5.1847 1.0313 -0.1001 0
M  V30 11 O -0.7289 0.8072 -1.2142 0
M  V30 12 N -2.4737 -0.2342 -0.0536 0
M  V30 13 C 5.9234 -0.1054 -0.436 0
M  V30 14 C -2.9438 -0.9832 -1.2276 0
M  V30 15 C -3.3444 -0.1284 1.129 0
M  V30 16 C -3.8125 -0.1018 -2.1183 0
M  V30 17 C -3.8499 1.3007 1.3124 0
M  V30 18 H -0.5718 -0.1084 1.9062 0
M  V30 19 H -0.6615 1.6562 1.5615 0
M  V30 20 H 3.4853 -2.4547 -0.1905 0
M  V30 21 H 3.2729 1.8152 0.4635 0
M  V30 22 H 5.8772 -2.237 -0.7267 0
M  V30 23 H 5.6661 2.0006 -0.0773 0
M  V30 24 H 6.9758 -0.0165 -0.6729 0
M  V30 25 H -2.079 -1.363 -1.8147 0
M  V30 26 H -3.5279 -1.8735 -0.9081 0
M  V30 27 H -2.8063 -0.4612 2.04 0
M  V30 28 H -4.2294 -0.7928 1.0215 0
M  V30 29 H -4.7341 0.1988 -1.5778 0
M  V30 30 H -3.2536 0.8073 -2.4248 0
M  V30 31 H -4.1047 -0.6662 -3.0287 0
M  V30 32 H -4.5412 1.3414 2.1804 0
M  V30 33 H -3.0082 1.9965 1.502 0
M  V30 34 H -4.3972 1.6345 0.4065 0
M  V30 END ATOM
M  V30 BEGIN BOND
M  V30 1 2 1 2
M  V30 2 1 2 3
M  V30 3 1 2 4
M  V30 4 1 3 5
M  V30 5 2 4 6
M  V30 6 1 4 7
M  V30 7 1 5 8
M  V30 8 1 6 9
M  V30 9 2 7 10
M  V30 10 2 8 11
M  V30 11 1 8 12
M  V30 12 2 9 13
M  V30 13 1 12 14
M  V30 14 1 12 15
M  V30 15 1 14 16
M  V30 16 1 15 17
M  V30 17 1 10 13
M  V30 18 1 5 18
M  V30 19 1 5 19
M  V30 20 1 6 20
M  V30 21 1 7 21
M  V30 22 1 9 22
M  V30 23 1 10 23
M  V30 24 1 13 24
M  V30 25 1 14 25
M  V30 26 1 14 26
M  V30 27 1 15 27
M  V30 28 1 15 28
M  V30 29 1 16 29
M  V30 30 1 16 30
M  V30 31 1 16 31
M  V30 32 1 17 32
M  V30 33 1 17 33
M  V30 34 1 17 34
M  V30 END BOND
M  V30 END CTAB
M  END
>  <Structure No>
5326

>  <LogS>
-2.0706

>  <MMFF94 Energy>
35.453

$$$$
Compound 5327
Actelion Java MolfileCreator 2.0

  0  0  0  0  0  0              0 V3000
M  V30 BEGIN CTAB
M  V30 COUNTS 19 18 0 0 0
M  V30 BEGIN ATOM
M  V30 1 O -2.0124 1.8575 0.0 0
M  V30 2 C -1.6215 0.8472 -0.643 0
M  V30 3 O -1.9125 0.7429 -1.9972 0 CHG=-1
M  V30 4 C -0.8494 -0.2493 0.0468 0 CFG=1
M  V30 5 N 0.3788 0.2683 0.692 0 CHG=1
M  V30 6 C -1.7501 -0.9329 1.0841 0
M  V30 7 C 1.3784 0.784 -0.2651 0
M  V30 8 C 2.1148 -0.3348 -1.0082 0
M  V30 9 H -0.5849 -1.0244 -0.7038 0
M  V30 10 H 0.8205 -0.488 1.2663 0
M  V30 11 H 0.1236 1.0427 1.3498 0
M  V30 12 H -2.6719 -1.3191 0.5983 0
M  V30 13 H -1.2168 -1.7913 1.545 0
M  V30 14 H -2.0367 -0.2194 1.8864 0
M  V30 15 H 0.9143 1.4774 -0.9996 0
M  V30 16 H 2.1379 1.3739 0.2949 0
M  V30 17 H 2.538 -1.0681 -0.2897 0
M  V30 18 H 1.4375 -0.8559 -1.7147 0
M  V30 19 H 2.9494 0.1021 -1.5959 0
M  V30 END ATOM
M  V30 BEGIN BOND
M  V30 1 2 1 2
M  V30 2 1 2 3
M  V30 3 1 2 4
M  V30 4 1 4 5
M  V30 5 1 4 6
M  V30 6 1 5 7
M  V30 7 1 7 8
M  V30 8 1 4 9
M  V30 9 1 5 10
M  V30 10 1 5 11
M  V30 11 1 6 12
M  V30 12 1 6 13
M  V30 13 1 6 14
M  V30 14 1 7 15
M  V30 15 1 7 16
M  V30 16 1 8 17
M  V30 17 1 8 18
M  V30 18 1 8 19
M  V30 END BOND
M  V30 BEGIN COLLECTION
M  V30 MDLV30/STEABS ATOMS=(1 4)
M  V30 END COLLECTION
M  V30 END CTAB
M  END
>  <Structure No>
5327

>  <LogS>
0.6522

>  <MMFF94 Energy>
-3.0857

$$$$
Compound 5328
Actelion Java MolfileCreator 2.0

  0  0  0  0  0  0              0 V3000
M  V30 BEGIN CTAB
M  V30 COUNTS 21 21 0 0 0
M  V30 BEGIN ATOM
M  V30 1 S 1.6747 2.6327 -0.7175 0
M  V30 2 C 0.8014 1.2806 -0.334 0
M  V30 3 N 1.414 0.0509 -0.2523 0
M  V30 4 C -0.5815 1.393 -0.0896 0
M  V30 5 C 0.6788 -1.0662 0.0669 0
M  V30 6 C 2.8659 -0.069 -0.5085 0
M  V30 7 N -1.2665 2.6582 -0.1632 0
M  V30 8 C -1.3026 0.2378 0.233 0
M  V30 9 O 1.251 -2.1908 0.1394 0
M  V30 10 N -0.6703 -0.9764 0.3086 0
M  V30 11 O -2.6773 0.3616 0.4741 0
M  V30 12 C -1.4506 -2.1803 0.6505 0
M  V30 13 H 3.2448 -1.1071 -0.4132 0
M  V30 14 H 3.4302 0.5525 0.2191 0
M  V30 15 H 3.0961 0.2692 -1.5414 0
M  V30 16 H -0.7807 3.5503 -0.399 0
M  V30 17 H -2.2918 2.7309 0.0196 0
M  V30 18 H -3.2848 -0.4103 0.7136 0
M  V30 19 H -2.2444 -2.3442 -0.1094 0
M  V30 20 H -1.9095 -2.0602 1.6552 0
M  V30 21 H -0.8366 -3.1037 0.6826 0
M  V30 END ATOM
M  V30 BEGIN BOND
M  V30 1 2 1 2
M  V30 2 1 2 3
M  V30 3 1 2 4
M  V30 4 1 3 5
M  V30 5 1 3 6
M  V30 6 1 4 7
M  V30 7 2 4 8
M  V30 8 2 5 9
M  V30 9 1 5 10
M  V30 10 1 8 11
M  V30 11 1 10 12
M  V30 12 1 8 10
M  V30 13 1 6 13
M  V30 14 1 6 14
M  V30 15 1 6 15
M  V30 16 1 7 16
M  V30 17 1 7 17
M  V30 18 1 11 18
M  V30 19 1 12 19
M  V30 20 1 12 20
M  V30 21 1 12 21
M  V30 END BOND
M  V30 END CTAB
M  END
>  <Structure No>
5328

>  <LogS>
-1.117

>  <MMFF94 Energy>
-33.01

$$$$
Compound 5329
Actelion Java MolfileCreator 2.0

  0  0  0  0  0  0              0 V3000
M  V30 BEGIN CTAB
M  V30 COUNTS 22 23 0 0 0
M  V30 BEGIN ATOM
M  V30 1 Cl -3.7166 -2.4766 -1.4147 0
M  V30 2 C -2.8302 -1.1665 -0.6335 0
M  V30 3 C -1.431 -1.0753 -0.7706 0
M  V30 4 C -3.5224 -0.2063 0.1261 0
M  V30 5 Cl -0.5611 -2.2561 -1.7553 0
M  V30 6 C -0.732 -0.0252 -0.1384 0
M  V30 7 Cl -5.2689 -0.2814 0.3243 0
M  V30 8 C -2.8229 0.8369 0.7384 0
M  V30 9 C 0.7347 0.0996 -0.2534 0
M  V30 10 C -1.4379 0.9294 0.6055 0
M  V30 11 C 1.6005 -0.7541 0.4607 0
M  V30 12 C 1.2749 1.0981 -1.0786 0
M  V30 13 Cl 0.9799 -1.9919 1.5481 0
M  V30 14 C 2.9867 -0.6094 0.3273 0
M  V30 15 C 2.6595 1.2356 -1.2059 0
M  V30 16 C 3.516 0.3814 -0.5056 0
M  V30 17 Cl 5.2538 0.5564 -0.6666 0
M  V30 18 H -3.3537 1.5793 1.3209 0
M  V30 19 H -0.912 1.7434 1.0899 0
M  V30 20 H 0.6222 1.7655 -1.6283 0
M  V30 21 H 3.653 -1.2641 0.8752 0
M  V30 22 H 3.0652 2.0062 -1.849 0
M  V30 END ATOM
M  V30 BEGIN BOND
M  V30 1 1 1 2
M  V30 2 2 2 3
M  V30 3 1 2 4
M  V30 4 1 3 5
M  V30 5 1 3 6
M  V30 6 1 4 7
M  V30 7 2 4 8
M  V30 8 1 6 9
M  V30 9 2 6 10
M  V30 10 2 9 11
M  V30 11 1 9 12
M  V30 12 1 11 13
M  V30 13 1 11 14
M  V30 14 2 12 15
M  V30 15 2 14 16
M  V30 16 1 16 17
M  V30 17 1 8 10
M  V30 18 1 15 16
M  V30 19 1 8 18
M  V30 20 1 10 19
M  V30 21 1 12 20
M  V30 22 1 14 21
M  V30 23 1 15 22
M  V30 END BOND
M  V30 END CTAB
M  END
>  <Structure No>
5329

>  <LogS>
-7.62

>  <MMFF94 Energy>
51.776

$$$$
Compound 5330
Actelion Java MolfileCreator 2.0

  0  0  0  0  0  0              0 V3000
M  V30 BEGIN CTAB
M  V30 COUNTS 14 15 0 0 0
M  V30 BEGIN ATOM
M  V30 1 S -1.4148 2.9146 0.2495 0
M  V30 2 C -1.3576 1.2833 0.1099 0
M  V30 3 N -2.5203 0.5844 0.022 0
M  V30 4 C -0.1372 0.5935 0.079 0
M  V30 5 C -2.5244 -0.7705 -0.0951 0
M  V30 6 N 1.062 1.2322 0.1626 0
M  V30 7 C -0.1649 -0.8069 -0.0428 0
M  V30 8 N -1.3526 -1.4582 -0.127 0 CHG=-1
M  V30 9 C 2.2293 0.5358 0.1298 0
M  V30 10 N 1.0038 -1.4987 -0.075 0
M  V30 11 C 2.1995 -0.8567 0.0087 0
M  V30 12 H -3.4633 -1.3025 -0.1633 0
M  V30 13 H 3.1737 1.0591 0.1974 0
M  V30 14 H 3.1208 -1.4231 -0.0185 0
M  V30 END ATOM
M  V30 BEGIN BOND
M  V30 1 2 1 2
M  V30 2 1 2 3
M  V30 3 1 2 4
M  V30 4 2 3 5
M  V30 5 2 4 6
M  V30 6 1 4 7
M  V30 7 1 5 8
M  V30 8 1 6 9
M  V30 9 2 7 10
M  V30 10 2 9 11
M  V30 11 1 7 8
M  V30 12 1 10 11
M  V30 13 1 5 12
M  V30 14 1 9 13
M  V30 15 1 11 14
M  V30 END BOND
M  V30 END CTAB
M  END
>  <Structure No>
5330

>  <LogS>
-2.6471

>  <MMFF94 Energy>
107.44

$$$$
Compound 5331
Actelion Java MolfileCreator 2.0

  0  0  0  0  0  0              0 V3000
M  V30 BEGIN CTAB
M  V30 COUNTS 35 35 0 0 0
M  V30 BEGIN ATOM
M  V30 1 O 0.3999 -2.3214 -2.081 0
M  V30 2 N 0.3696 -1.2833 -1.3886 0 CHG=1
M  V30 3 O 0.4786 -0.0629 -2.0153 0 CHG=-1
M  V30 4 C 0.41 -1.3884 0.0738 0 CFG=2
M  V30 5 C -0.5133 -0.3483 0.7634 0 CFG=1
M  V30 6 C 1.8608 -1.3426 0.5913 0
M  V30 7 O -0.1447 0.9919 0.4188 0
M  V30 8 C -1.961 -0.5985 0.3922 0
M  V30 9 O 2.5211 -0.1281 0.237 0
M  V30 10 C 0.5958 1.8464 1.2445 0
M  V30 11 C -2.7148 -1.5361 1.1214 0
M  V30 12 C -2.5574 0.046 -0.709 0
M  V30 13 C 3.2868 0.037 -0.9217 0
M  V30 14 O 0.9234 1.5003 2.4119 0
M  V30 15 C 0.9694 3.2 0.7456 0
M  V30 16 C -4.0412 -1.8056 0.7712 0
M  V30 17 C -3.8843 -0.2272 -1.0547 0
M  V30 18 O 3.4764 -0.9236 -1.716 0
M  V30 19 C 3.8389 1.3831 -1.2448 0
M  V30 20 C -4.626 -1.1506 -0.3146 0
M  V30 21 H 0.0209 -2.3933 0.358 0
M  V30 22 H -0.4297 -0.4845 1.8654 0
M  V30 23 H 1.8491 -1.4219 1.6992 0
M  V30 24 H 2.4287 -2.2214 0.215 0
M  V30 25 H -2.2738 -2.0606 1.9599 0
M  V30 26 H -2.0011 0.7603 -1.3014 0
M  V30 27 H 0.9878 3.2015 -0.3643 0
M  V30 28 H 0.2259 3.9436 1.0999 0
M  V30 29 H 1.977 3.479 1.1194 0
M  V30 30 H -4.6147 -2.5258 1.3402 0
M  V30 31 H -4.3369 0.2754 -1.8996 0
M  V30 32 H 4.8184 1.2823 -1.7579 0
M  V30 33 H 3.9803 1.9676 -0.3116 0
M  V30 34 H 3.1302 1.9225 -1.9068 0
M  V30 35 H -5.6525 -1.3614 -0.5849 0
M  V30 END ATOM
M  V30 BEGIN BOND
M  V30 1 2 1 2
M  V30 2 1 2 3
M  V30 3 1 2 4
M  V30 4 1 4 5
M  V30 5 1 4 6
M  V30 6 1 5 7
M  V30 7 1 5 8
M  V30 8 1 6 9
M  V30 9 1 7 10
M  V30 10 2 8 11
M  V30 11 1 8 12
M  V30 12 1 9 13
M  V30 13 2 10 14
M  V30 14 1 10 15
M  V30 15 1 11 16
M  V30 16 2 12 17
M  V30 17 2 13 18
M  V30 18 1 13 19
M  V30 19 2 16 20
M  V30 20 1 17 20
M  V30 21 1 4 21
M  V30 22 1 5 22
M  V30 23 1 6 23
M  V30 24 1 6 24
M  V30 25 1 11 25
M  V30 26 1 12 26
M  V30 27 1 15 27
M  V30 28 1 15 28
M  V30 29 1 15 29
M  V30 30 1 16 30
M  V30 31 1 17 31
M  V30 32 1 19 32
M  V30 33 1 19 33
M  V30 34 1 19 34
M  V30 35 1 20 35
M  V30 END BOND
M  V30 BEGIN COLLECTION
M  V30 MDLV30/STEABS ATOMS=(2 4 5)
M  V30 END COLLECTION
M  V30 END CTAB
M  END
>  <Structure No>
5331

>  <LogS>
-3.972

>  <MMFF94 Energy>
-16.888

$$$$
Compound 5332
Actelion Java MolfileCreator 2.0

  0  0  0  0  0  0              0 V3000
M  V30 BEGIN CTAB
M  V30 COUNTS 35 35 0 0 0
M  V30 BEGIN ATOM
M  V30 1 O 0.72 -1.0401 1.6005 0
M  V30 2 N 1.2216 -0.0922 0.9608 0 CHG=1
M  V30 3 O 2.0375 0.7986 1.6189 0 CHG=-1
M  V30 4 C 0.8002 0.1974 -0.4127 0 CFG=2
M  V30 5 C -0.547 0.9701 -0.4395 0 CFG=2
M  V30 6 C 0.7712 -1.0773 -1.2793 0
M  V30 7 O -0.4297 2.1941 0.2914 0
M  V30 8 C -1.7024 0.1582 0.1142 0
M  V30 9 O 2.0954 -1.5673 -1.4907 0
M  V30 10 C 0.2557 3.3191 -0.1804 0
M  V30 11 C -2.4757 -0.6425 -0.7456 0
M  V30 12 C -2.0086 0.1727 1.489 0
M  V30 13 C 2.7047 -2.5431 -0.6949 0
M  V30 14 O 0.7305 3.3457 -1.3483 0
M  V30 15 C 0.3726 4.5229 0.6904 0
M  V30 16 C -3.5286 -1.4119 -0.2419 0
M  V30 17 C -3.0631 -0.5978 1.9878 0
M  V30 18 O 2.0559 -3.149 0.2006 0
M  V30 19 C 4.1351 -2.8878 -0.9366 0
M  V30 20 C -3.8234 -1.3884 1.123 0
M  V30 21 H 1.5658 0.8621 -0.8701 0
M  V30 22 H -0.7854 1.2246 -1.4976 0
M  V30 23 H 0.3476 -0.8224 -2.2741 0
M  V30 24 H 0.1207 -1.8618 -0.8359 0
M  V30 25 H -2.2588 -0.6773 -1.8058 0
M  V30 26 H -1.4261 0.7713 2.178 0
M  V30 27 H -0.4613 5.2209 0.4713 0
M  V30 28 H 0.3272 4.2226 1.7583 0
M  V30 29 H 1.3391 5.0366 0.5035 0
M  V30 30 H -4.112 -2.0315 -0.9095 0
M  V30 31 H -3.289 -0.5844 3.0465 0
M  V30 32 H 4.4911 -3.629 -0.1901 0
M  V30 33 H 4.2451 -3.3167 -1.9543 0
M  V30 34 H 4.7538 -1.9695 -0.855 0
M  V30 35 H -4.6376 -1.9866 1.5109 0
M  V30 END ATOM
M  V30 BEGIN BOND
M  V30 1 2 1 2
M  V30 2 1 2 3
M  V30 3 1 2 4
M  V30 4 1 4 5
M  V30 5 1 4 6
M  V30 6 1 5 7
M  V30 7 1 5 8
M  V30 8 1 6 9
M  V30 9 1 7 10
M  V30 10 2 8 11
M  V30 11 1 8 12
M  V30 12 1 9 13
M  V30 13 2 10 14
M  V30 14 1 10 15
M  V30 15 1 11 16
M  V30 16 2 12 17
M  V30 17 2 13 18
M  V30 18 1 13 19
M  V30 19 2 16 20
M  V30 20 1 17 20
M  V30 21 1 4 21
M  V30 22 1 5 22
M  V30 23 1 6 23
M  V30 24 1 6 24
M  V30 25 1 11 25
M  V30 26 1 12 26
M  V30 27 1 15 27
M  V30 28 1 15 28
M  V30 29 1 15 29
M  V30 30 1 16 30
M  V30 31 1 17 31
M  V30 32 1 19 32
M  V30 33 1 19 33
M  V30 34 1 19 34
M  V30 35 1 20 35
M  V30 END BOND
M  V30 BEGIN COLLECTION
M  V30 MDLV30/STEABS ATOMS=(2 4 5)
M  V30 END COLLECTION
M  V30 END CTAB
M  END
>  <Structure No>
5332

>  <LogS>
-3.972

>  <MMFF94 Energy>
-18.392

$$$$
Compound 5333
Actelion Java MolfileCreator 2.0

  0  0  0  0  0  0              0 V3000
M  V30 BEGIN CTAB
M  V30 COUNTS 52 54 0 0 0
M  V30 BEGIN ATOM
M  V30 1 Cl -0.646 -4.8534 -0.4845 0
M  V30 2 C -1.1053 -3.3117 0.2203 0
M  V30 3 C -1.5391 -2.2673 -0.6023 0
M  V30 4 C -1.0431 -3.1279 1.6052 0
M  V30 5 C -1.9006 -1.0367 -0.0449 0
M  V30 6 C -1.3997 -1.8961 2.1661 0
M  V30 7 C -1.8235 -0.8267 1.3476 0
M  V30 8 C -2.1783 0.5133 1.9837 0 CFG=1
M  V30 9 C -1.4225 1.6577 1.3423 0
M  V30 10 C -3.715 0.7497 2.1134 0
M  V30 11 O -0.5537 2.2771 2.0149 0
M  V30 12 O -1.6623 2.0166 0.0107 0
M  V30 13 C -4.0155 2.0159 2.9321 0
M  V30 14 C -4.4784 0.7961 0.7798 0
M  V30 15 C -0.8695 2.9652 -0.7018 0 CFG=2
M  V30 16 C -1.4969 3.2266 -2.0028 0
M  V30 17 C 0.5283 2.4301 -0.911 0
M  V30 18 N -1.9894 3.4203 -3.0308 0
M  V30 19 C 0.7235 1.1343 -1.4245 0
M  V30 20 C 1.6482 3.2195 -0.5954 0
M  V30 21 C 2.0116 0.6121 -1.5761 0
M  V30 22 C 2.9389 2.7174 -0.7819 0
M  V30 23 O 2.1535 -0.6956 -2.065 0
M  V30 24 C 3.1234 1.42 -1.2687 0
M  V30 25 C 3.2161 -1.56 -1.7624 0
M  V30 26 C 3.6296 -2.4854 -2.7269 0
M  V30 27 C 3.8472 -1.5498 -0.5037 0
M  V30 28 C 4.6883 -3.3608 -2.4592 0
M  V30 29 C 4.9064 -2.4253 -0.2389 0
M  V30 30 C 5.3307 -3.3263 -1.2177 0
M  V30 31 H -1.6019 -2.4089 -1.6741 0
M  V30 32 H -0.718 -3.9383 2.2464 0
M  V30 33 H -2.246 -0.2579 -0.7092 0
M  V30 34 H -1.341 -1.7784 3.2392 0
M  V30 35 H -1.8082 0.4718 3.0353 0
M  V30 36 H -4.13 -0.1059 2.6903 0
M  V30 37 H -5.1098 2.1133 3.1047 0
M  V30 38 H -3.5171 1.9624 3.9234 0
M  V30 39 H -3.6631 2.9233 2.3984 0
M  V30 40 H -5.5566 0.9933 0.9668 0
M  V30 41 H -4.0977 1.5998 0.1203 0
M  V30 42 H -4.4208 -0.1801 0.2597 0
M  V30 43 H -0.8499 3.9226 -0.1327 0
M  V30 44 H -0.1276 0.5188 -1.6868 0
M  V30 45 H 1.5227 4.2209 -0.2063 0
M  V30 46 H 3.7975 3.331 -0.5401 0
M  V30 47 H 4.1321 1.0545 -1.4168 0
M  V30 48 H 3.1376 -2.5181 -3.6895 0
M  V30 49 H 3.5151 -0.8738 0.2724 0
M  V30 50 H 5.0115 -4.065 -3.214 0
M  V30 51 H 5.3966 -2.4055 0.7239 0
M  V30 52 H 6.1513 -4.0026 -1.0128 0
M  V30 END ATOM
M  V30 BEGIN BOND
M  V30 1 1 1 2
M  V30 2 2 2 3
M  V30 3 1 2 4
M  V30 4 1 3 5
M  V30 5 2 4 6
M  V30 6 2 5 7
M  V30 7 1 7 8
M  V30 8 1 8 9
M  V30 9 1 8 10
M  V30 10 2 9 11
M  V30 11 1 9 12
M  V30 12 1 10 13
M  V30 13 1 10 14
M  V30 14 1 12 15
M  V30 15 1 15 16
M  V30 16 1 15 17
M  V30 17 3 16 18
M  V30 18 2 17 19
M  V30 19 1 17 20
M  V30 20 1 19 21
M  V30 21 2 20 22
M  V30 22 1 21 23
M  V30 23 2 21 24
M  V30 24 1 23 25
M  V30 25 2 25 26
M  V30 26 1 25 27
M  V30 27 1 26 28
M  V30 28 2 27 29
M  V30 29 2 28 30
M  V30 30 1 6 7
M  V30 31 1 22 24
M  V30 32 1 29 30
M  V30 33 1 3 31
M  V30 34 1 4 32
M  V30 35 1 5 33
M  V30 36 1 6 34
M  V30 37 1 8 35
M  V30 38 1 10 36
M  V30 39 1 13 37
M  V30 40 1 13 38
M  V30 41 1 13 39
M  V30 42 1 14 40
M  V30 43 1 14 41
M  V30 44 1 14 42
M  V30 45 1 15 43
M  V30 46 1 19 44
M  V30 47 1 20 45
M  V30 48 1 22 46
M  V30 49 1 24 47
M  V30 50 1 26 48
M  V30 51 1 27 49
M  V30 52 1 28 50
M  V30 53 1 29 51
M  V30 54 1 30 52
M  V30 END BOND
M  V30 BEGIN COLLECTION
M  V30 MDLV30/STEABS ATOMS=(2 8 15)
M  V30 END COLLECTION
M  V30 END CTAB
M  END
>  <Structure No>
5333

>  <LogS>
-8.3221

>  <MMFF94 Energy>
94.845

$$$$
Compound 5334
Actelion Java MolfileCreator 2.0

  0  0  0  0  0  0              0 V3000
M  V30 BEGIN CTAB
M  V30 COUNTS 33 34 0 0 0
M  V30 BEGIN ATOM
M  V30 1 Cl -0.7332 -0.2443 -2.9353 0
M  V30 2 C -1.547 -0.5799 -1.4088 0
M  V30 3 C -1.0342 -0.1546 -0.1566 0
M  V30 4 C -2.7446 -1.3041 -1.4656 0
M  V30 5 C -1.7533 -0.4831 1.0117 0
M  V30 6 C 0.2782 0.6176 -0.0392 0 CFG=2
M  V30 7 C -3.442 -1.616 -0.2971 0
M  V30 8 C -2.9455 -1.2055 0.9397 0
M  V30 9 C 1.328 -0.1978 0.7478 0
M  V30 10 C 0.0196 2.0104 0.5903 0
M  V30 11 Cl -4.939 -2.5262 -0.3839 0
M  V30 12 N 1.4973 -1.5256 0.1622 0
M  V30 13 C 1.2239 2.9708 0.5678 0
M  V30 14 N 0.931 -2.6255 0.6223 0
M  V30 15 C 2.1644 -1.8301 -0.9622 0
M  V30 16 C 1.6725 3.3449 -0.8447 0
M  V30 17 C 1.2831 -3.5987 -0.24 0
M  V30 18 N 2.0555 -3.1411 -1.2506 0
M  V30 19 H -3.1338 -1.6282 -2.4228 0
M  V30 20 H -1.3887 -0.1864 1.9863 0
M  V30 21 H 0.7 0.7851 -1.0467 0
M  V30 22 H -3.4813 -1.4483 1.8487 0
M  V30 23 H 2.3089 0.3215 0.7255 0
M  V30 24 H 1.0283 -0.296 1.8137 0
M  V30 25 H -0.2957 1.8882 1.6488 0
M  V30 26 H -0.8252 2.499 0.0556 0
M  V30 27 H 2.0788 2.5478 1.1344 0
M  V30 28 H 0.924 3.905 1.0907 0
M  V30 29 H 2.707 -1.116 -1.5681 0
M  V30 30 H 0.8041 3.6635 -1.4597 0
M  V30 31 H 2.3947 4.1868 -0.7909 0
M  V30 32 H 2.1834 2.4903 -1.3343 0
M  V30 33 H 0.9753 -4.6305 -0.139 0
M  V30 END ATOM
M  V30 BEGIN BOND
M  V30 1 1 1 2
M  V30 2 2 2 3
M  V30 3 1 2 4
M  V30 4 1 3 5
M  V30 5 1 3 6
M  V30 6 2 4 7
M  V30 7 2 5 8
M  V30 8 1 6 9
M  V30 9 1 6 10
M  V30 10 1 7 11
M  V30 11 1 9 12
M  V30 12 1 10 13
M  V30 13 1 12 14
M  V30 14 1 12 15
M  V30 15 1 13 16
M  V30 16 2 14 17
M  V30 17 2 15 18
M  V30 18 1 7 8
M  V30 19 1 17 18
M  V30 20 1 4 19
M  V30 21 1 5 20
M  V30 22 1 6 21
M  V30 23 1 8 22
M  V30 24 1 9 23
M  V30 25 1 9 24
M  V30 26 1 10 25
M  V30 27 1 10 26
M  V30 28 1 13 27
M  V30 29 1 13 28
M  V30 30 1 15 29
M  V30 31 1 16 30
M  V30 32 1 16 31
M  V30 33 1 16 32
M  V30 34 1 17 33
M  V30 END BOND
M  V30 BEGIN COLLECTION
M  V30 MDLV30/STEABS ATOMS=(1 6)
M  V30 END COLLECTION
M  V30 END CTAB
M  END
>  <Structure No>
5334

>  <LogS>
-3.5903

>  <MMFF94 Energy>
25.597

$$$$
Compound 5335
Actelion Java MolfileCreator 2.0

  0  0  0  0  0  0              0 V3000
M  V30 BEGIN CTAB
M  V30 COUNTS 39 40 0 0 0
M  V30 BEGIN ATOM
M  V30 1 F -2.8994 -1.0463 -1.7711 0
M  V30 2 C -3.7565 -1.1293 -0.6902 0
M  V30 3 F -4.7985 -1.9785 -1.023 0
M  V30 4 F -3.0903 -1.6929 0.3834 0
M  V30 5 C -4.2723 0.2553 -0.3408 0
M  V30 6 C -3.5295 1.1691 0.4596 0
M  V30 7 C -5.5269 0.6605 -0.8406 0
M  V30 8 C -2.1667 0.8752 0.9518 0
M  V30 9 C -4.098 2.4084 0.8019 0
M  V30 10 C -6.063 1.9053 -0.5074 0
M  V30 11 O -1.8907 1.0826 2.1649 0
M  V30 12 N -1.1413 0.4525 0.0404 0
M  V30 13 C -5.3558 2.7723 0.3216 0
M  V30 14 C 0.0787 -0.192 0.4453 0
M  V30 15 C 1.2303 -0.0428 -0.3425 0
M  V30 16 C 0.1297 -1.0171 1.5823 0
M  V30 17 C 2.4312 -0.6721 0.0085 0
M  V30 18 C 1.3214 -1.6522 1.9374 0
M  V30 19 O 3.5481 -0.4708 -0.8197 0
M  V30 20 C 2.4694 -1.4818 1.1602 0
M  V30 21 C 4.8736 -0.9428 -0.5669 0
M  V30 22 C 5.6761 -0.8637 -1.8643 0
M  V30 23 C 5.5409 -0.0943 0.5205 0
M  V30 24 H -6.1043 0.0098 -1.485 0
M  V30 25 H -3.5535 3.109 1.424 0
M  V30 26 H -7.0328 2.1964 -0.8905 0
M  V30 27 H -1.2513 0.7155 -0.9649 0
M  V30 28 H -5.7767 3.7349 0.5823 0
M  V30 29 H 1.197 0.576 -1.2309 0
M  V30 30 H -0.7532 -1.1921 2.182 0
M  V30 31 H 1.3531 -2.287 2.8137 0
M  V30 32 H 3.3723 -1.9926 1.4614 0
M  V30 33 H 4.8494 -2.0091 -0.2544 0
M  V30 34 H 5.7268 0.1853 -2.2275 0
M  V30 35 H 5.1888 -1.4864 -2.6444 0
M  V30 36 H 6.7076 -1.2443 -1.7047 0
M  V30 37 H 5.5788 0.9717 0.2097 0
M  V30 38 H 4.9737 -0.1622 1.4713 0
M  V30 39 H 6.5749 -0.4544 0.7079 0
M  V30 END ATOM
M  V30 BEGIN BOND
M  V30 1 1 1 2
M  V30 2 1 2 3
M  V30 3 1 2 4
M  V30 4 1 2 5
M  V30 5 2 5 6
M  V30 6 1 5 7
M  V30 7 1 6 8
M  V30 8 1 6 9
M  V30 9 2 7 10
M  V30 10 2 8 11
M  V30 11 1 8 12
M  V30 12 2 9 13
M  V30 13 1 12 14
M  V30 14 2 14 15
M  V30 15 1 14 16
M  V30 16 1 15 17
M  V30 17 2 16 18
M  V30 18 1 17 19
M  V30 19 2 17 20
M  V30 20 1 19 21
M  V30 21 1 21 22
M  V30 22 1 21 23
M  V30 23 1 10 13
M  V30 24 1 18 20
M  V30 25 1 7 24
M  V30 26 1 9 25
M  V30 27 1 10 26
M  V30 28 1 12 27
M  V30 29 1 13 28
M  V30 30 1 15 29
M  V30 31 1 16 30
M  V30 32 1 18 31
M  V30 33 1 20 32
M  V30 34 1 21 33
M  V30 35 1 22 34
M  V30 36 1 22 35
M  V30 37 1 22 36
M  V30 38 1 23 37
M  V30 39 1 23 38
M  V30 40 1 23 39
M  V30 END BOND
M  V30 END CTAB
M  END
>  <Structure No>
5335

>  <LogS>
-4.6947

>  <MMFF94 Energy>
38.167

$$$$
Compound 5336
Actelion Java MolfileCreator 2.0

  0  0  0  0  0  0              0 V3000
M  V30 BEGIN CTAB
M  V30 COUNTS 41 43 0 0 0
M  V30 BEGIN ATOM
M  V30 1 Cl 8.041 -0.3239 -3.1618 0
M  V30 2 C 7.2211 -0.2176 -1.6153 0
M  V30 3 C 5.8191 -0.346 -1.5552 0
M  V30 4 C 7.9701 -0.0037 -0.4329 0
M  V30 5 C 5.2189 -0.2537 -0.303 0
M  V30 6 C 7.3237 0.0831 0.8155 0
M  V30 7 O 3.9549 -0.3405 0.0086 0
M  V30 8 C 5.9375 -0.0474 0.8352 0
M  V30 9 C 3.9021 -0.1829 1.3221 0
M  V30 10 N 5.1183 -0.0013 1.8997 0
M  V30 11 O 2.7215 -0.2328 2.0703 0
M  V30 12 C 1.4273 -0.1758 1.5336 0
M  V30 13 C 0.3861 -0.788 2.239 0
M  V30 14 C 1.1369 0.5045 0.3372 0
M  V30 15 C -0.9214 -0.7518 1.7473 0
M  V30 16 C -0.1715 0.5419 -0.1547 0
M  V30 17 C -1.2146 -0.0893 0.5502 0
M  V30 18 O -2.5468 -0.0903 0.1042 0
M  V30 19 C -3.0507 0.6182 -1.0299 0 CFG=1
M  V30 20 C -4.4003 0.0696 -1.3784 0
M  V30 21 C -3.1737 2.1108 -0.7145 0
M  V30 22 O -4.7124 -0.1068 -2.588 0
M  V30 23 O -5.3179 -0.2044 -0.3595 0
M  V30 24 C -6.6244 -0.7071 -0.6176 0
M  V30 25 C -7.3651 -0.8981 0.696 0
M  V30 26 H 5.2276 -0.5105 -2.4464 0
M  V30 27 H 9.0468 0.0937 -0.4838 0
M  V30 28 H 7.8852 0.2456 1.7264 0
M  V30 29 H 0.5931 -1.3027 3.1687 0
M  V30 30 H 1.9091 1.0329 -0.2039 0
M  V30 31 H -1.7134 -1.2393 2.3019 0
M  V30 32 H -0.3553 1.0697 -1.0791 0
M  V30 33 H -2.3778 0.4687 -1.9022 0
M  V30 34 H -2.1809 2.542 -0.473 0
M  V30 35 H -3.584 2.6553 -1.5918 0
M  V30 36 H -3.8458 2.2682 0.1565 0
M  V30 37 H -6.5537 -1.6833 -1.1448 0
M  V30 38 H -7.1846 0.0121 -1.2538 0
M  V30 39 H -6.8183 -1.6207 1.3381 0
M  V30 40 H -8.3848 -1.2903 0.4982 0
M  V30 41 H -7.4486 0.0727 1.2288 0
M  V30 END ATOM
M  V30 BEGIN BOND
M  V30 1 1 1 2
M  V30 2 2 2 3
M  V30 3 1 2 4
M  V30 4 1 3 5
M  V30 5 2 4 6
M  V30 6 1 5 7
M  V30 7 2 5 8
M  V30 8 1 7 9
M  V30 9 1 8 10
M  V30 10 1 9 11
M  V30 11 1 11 12
M  V30 12 2 12 13
M  V30 13 1 12 14
M  V30 14 1 13 15
M  V30 15 2 14 16
M  V30 16 2 15 17
M  V30 17 1 17 18
M  V30 18 1 18 19
M  V30 19 1 19 20
M  V30 20 1 19 21
M  V30 21 2 20 22
M  V30 22 1 20 23
M  V30 23 1 23 24
M  V30 24 1 24 25
M  V30 25 1 6 8
M  V30 26 2 9 10
M  V30 27 1 16 17
M  V30 28 1 3 26
M  V30 29 1 4 27
M  V30 30 1 6 28
M  V30 31 1 13 29
M  V30 32 1 14 30
M  V30 33 1 15 31
M  V30 34 1 16 32
M  V30 35 1 19 33
M  V30 36 1 21 34
M  V30 37 1 21 35
M  V30 38 1 21 36
M  V30 39 1 24 37
M  V30 40 1 24 38
M  V30 41 1 25 39
M  V30 42 1 25 40
M  V30 43 1 25 41
M  V30 END BOND
M  V30 BEGIN COLLECTION
M  V30 MDLV30/STEABS ATOMS=(1 19)
M  V30 END COLLECTION
M  V30 END CTAB
M  END
>  <Structure No>
5336

>  <LogS>
-5.6042

>  <MMFF94 Energy>
50.946

$$$$
Compound 5337
Actelion Java MolfileCreator 2.0

  0  0  0  0  0  0              0 V3000
M  V30 BEGIN CTAB
M  V30 COUNTS 23 24 0 0 0
M  V30 BEGIN ATOM
M  V30 1 Cl -4.6573 2.1997 1.3532 0
M  V30 2 C -3.4457 1.1028 0.7046 0
M  V30 3 C -3.7587 -0.2338 0.4052 0
M  V30 4 C -2.1479 1.5799 0.4842 0
M  V30 5 Cl -5.3762 -0.8728 0.6657 0
M  V30 6 C -2.7727 -1.0767 -0.1184 0
M  V30 7 C -1.1539 0.7335 -0.02 0
M  V30 8 C -1.4786 -0.5972 -0.3367 0
M  V30 9 O 0.1289 1.2569 -0.2391 0
M  V30 10 C 1.327 0.5314 -0.163 0
M  V30 11 C 1.4874 -0.5505 0.7228 0
M  V30 12 C 2.4068 0.9309 -0.96 0
M  V30 13 C 2.7042 -1.2396 0.7799 0
M  V30 14 C 3.6219 0.2416 -0.9016 0
M  V30 15 Cl 2.8962 -2.5911 1.8816 0
M  V30 16 C 3.7698 -0.845 -0.0355 0
M  V30 17 H -1.9066 2.6106 0.7128 0
M  V30 18 H -3.0101 -2.1042 -0.3638 0
M  V30 19 H -0.7389 -1.2577 -0.7692 0
M  V30 20 H 0.6794 -0.8457 1.3795 0
M  V30 21 H 2.3005 1.7729 -1.6321 0
M  V30 22 H 4.4493 0.551 -1.5267 0
M  V30 23 H 4.7133 -1.3741 0.006 0
M  V30 END ATOM
M  V30 BEGIN BOND
M  V30 1 1 1 2
M  V30 2 2 2 3
M  V30 3 1 2 4
M  V30 4 1 3 5
M  V30 5 1 3 6
M  V30 6 2 4 7
M  V30 7 2 6 8
M  V30 8 1 7 9
M  V30 9 1 9 10
M  V30 10 2 10 11
M  V30 11 1 10 12
M  V30 12 1 11 13
M  V30 13 2 12 14
M  V30 14 1 13 15
M  V30 15 2 13 16
M  V30 16 1 7 8
M  V30 17 1 14 16
M  V30 18 1 4 17
M  V30 19 1 6 18
M  V30 20 1 8 19
M  V30 21 1 11 20
M  V30 22 1 12 21
M  V30 23 1 14 22
M  V30 24 1 16 23
M  V30 END BOND
M  V30 END CTAB
M  END
>  <Structure No>
5337

>  <LogS>
-5.437

>  <MMFF94 Energy>
39.455

$$$$
Compound 5338
Actelion Java MolfileCreator 2.0

  0  0  0  0  0  0              0 V3000
M  V30 BEGIN CTAB
M  V30 COUNTS 31 31 0 0 0
M  V30 BEGIN ATOM
M  V30 1 N -2.0277 0.3896 0.0 0 CHG=1
M  V30 2 C -0.5329 0.3568 -0.0657 0 CFG=1
M  V30 3 C -2.6526 -0.1077 -1.2422 0
M  V30 4 C -2.595 -0.302 1.1761 0
M  V30 5 C 0.0917 1.1634 1.1124 0
M  V30 6 C 0.0516 -1.0924 -0.1287 0
M  V30 7 C 1.5169 1.6796 0.8508 0
M  V30 8 C 1.0492 -1.3112 -1.2809 0
M  V30 9 C 2.5742 0.6142 1.0121 0
M  V30 10 C 2.257 -0.3629 -1.2878 0
M  V30 11 C 2.9218 -0.2691 0.0599 0
M  V30 12 H -2.3182 1.3942 0.0737 0
M  V30 13 H -0.2448 0.8992 -0.9944 0
M  V30 14 H -3.7369 0.1409 -1.2518 0
M  V30 15 H -2.1982 0.3743 -2.1351 0
M  V30 16 H -2.5601 -1.2089 -1.3438 0
M  V30 17 H -2.3771 -1.3895 1.1667 0
M  V30 18 H -3.7003 -0.1775 1.1977 0
M  V30 19 H -2.2085 0.1348 2.12 0
M  V30 20 H -0.5366 2.0604 1.3036 0
M  V30 21 H 0.0809 0.5685 2.0517 0
M  V30 22 H -0.7435 -1.8476 -0.2708 0
M  V30 23 H 0.5304 -1.3739 0.8337 0
M  V30 24 H 1.5909 2.1917 -0.1306 0
M  V30 25 H 1.7289 2.4621 1.6116 0
M  V30 26 H 1.4219 -2.3575 -1.2216 0
M  V30 27 H 0.5123 -1.2107 -2.2493 0
M  V30 28 H 3.1266 0.5953 1.9472 0
M  V30 29 H 3.0009 -0.7645 -2.009 0
M  V30 30 H 1.9752 0.6351 -1.6778 0
M  V30 31 H 3.7205 -0.972 0.2779 0
M  V30 END ATOM
M  V30 BEGIN BOND
M  V30 1 1 1 2
M  V30 2 1 1 3
M  V30 3 1 1 4
M  V30 4 1 2 5
M  V30 5 1 2 6
M  V30 6 1 5 7
M  V30 7 1 6 8
M  V30 8 1 7 9
M  V30 9 1 8 10
M  V30 10 2 9 11
M  V30 11 1 10 11
M  V30 12 1 1 12
M  V30 13 1 2 13
M  V30 14 1 3 14
M  V30 15 1 3 15
M  V30 16 1 3 16
M  V30 17 1 4 17
M  V30 18 1 4 18
M  V30 19 1 4 19
M  V30 20 1 5 20
M  V30 21 1 5 21
M  V30 22 1 6 22
M  V30 23 1 6 23
M  V30 24 1 7 24
M  V30 25 1 7 25
M  V30 26 1 8 26
M  V30 27 1 8 27
M  V30 28 1 9 28
M  V30 29 1 10 29
M  V30 30 1 10 30
M  V30 31 1 11 31
M  V30 END BOND
M  V30 BEGIN COLLECTION
M  V30 MDLV30/STEABS ATOMS=(1 2)
M  V30 END COLLECTION
M  V30 END CTAB
M  END
>  <Structure No>
5338

>  <LogS>
-1.6004

>  <MMFF94 Energy>
29.364

$$$$
Compound 5339
Actelion Java MolfileCreator 2.0

  0  0  0  0  0  0              0 V3000
M  V30 BEGIN CTAB
M  V30 COUNTS 27 27 0 0 0
M  V30 BEGIN ATOM
M  V30 1 S 4.0131 -0.8351 -0.1669 0
M  V30 2 O 3.9827 -2.3289 -0.0043 0
M  V30 3 O 5.3576 -0.4306 -0.7014 0
M  V30 4 O 2.8079 -0.3378 -1.2769 0
M  V30 5 C 3.7646 -0.0431 1.4088 0
M  V30 6 C 1.4361 -0.6032 -1.1561 0
M  V30 7 C 0.9025 -1.4375 -0.1542 0
M  V30 8 C 0.5679 -0.0127 -2.0836 0
M  V30 9 C -0.476 -1.662 -0.0844 0
M  V30 10 C -0.8096 -0.2381 -2.0127 0
M  V30 11 C -1.3347 -1.0594 -1.0097 0
M  V30 12 S -3.1015 -1.3466 -0.9168 0
M  V30 13 C -3.3609 0.0564 0.1642 0
M  V30 14 O -3.3217 -0.1076 1.413 0
M  V30 15 N -3.6099 1.3506 -0.3931 0
M  V30 16 C -3.7996 2.526 0.447 0
M  V30 17 H 4.5821 -0.3318 2.1012 0
M  V30 18 H 3.7711 1.0579 1.2726 0
M  V30 19 H 2.793 -0.3498 1.8449 0
M  V30 20 H 1.5356 -1.9244 0.571 0
M  V30 21 H 0.9639 0.6273 -2.8618 0
M  V30 22 H -0.8758 -2.3037 0.6906 0
M  V30 23 H -1.4673 0.2287 -2.7349 0
M  V30 24 H -3.6459 1.4585 -1.4315 0
M  V30 25 H -3.9704 3.4204 -0.1884 0
M  V30 26 H -4.6814 2.3797 1.1059 0
M  V30 27 H -2.8949 2.6945 1.0684 0
M  V30 END ATOM
M  V30 BEGIN BOND
M  V30 1 2 1 2
M  V30 2 2 1 3
M  V30 3 1 1 4
M  V30 4 1 1 5
M  V30 5 1 4 6
M  V30 6 2 6 7
M  V30 7 1 6 8
M  V30 8 1 7 9
M  V30 9 2 8 10
M  V30 10 2 9 11
M  V30 11 1 11 12
M  V30 12 1 12 13
M  V30 13 2 13 14
M  V30 14 1 13 15
M  V30 15 1 15 16
M  V30 16 1 10 11
M  V30 17 1 5 17
M  V30 18 1 5 18
M  V30 19 1 5 19
M  V30 20 1 7 20
M  V30 21 1 8 21
M  V30 22 1 9 22
M  V30 23 1 10 23
M  V30 24 1 15 24
M  V30 25 1 16 25
M  V30 26 1 16 26
M  V30 27 1 16 27
M  V30 END BOND
M  V30 END CTAB
M  END
>  <Structure No>
5339

>  <LogS>
-2.7359

>  <MMFF94 Energy>
-16.259

$$$$
Compound 5340
Actelion Java MolfileCreator 2.0

  0  0  0  0  0  0              0 V3000
M  V30 BEGIN CTAB
M  V30 COUNTS 18 18 0 0 0
M  V30 BEGIN ATOM
M  V30 1 O 1.9958 1.1173 -0.7979 0
M  V30 2 C 0.9166 0.5633 -0.647 0
M  V30 3 C 0.5961 -0.31 0.5194 0 CFG=2
M  V30 4 C -0.2028 0.7167 -1.6078 0
M  V30 5 C 1.608 -1.3737 0.6638 0
M  V30 6 C -0.7765 -0.9009 0.1449 0
M  V30 7 C 0.5207 0.525 1.807 0
M  V30 8 C -1.3754 0.027 -0.9179 0
M  V30 9 N 2.4019 -2.2083 0.7772 0
M  V30 10 H 0.0509 0.2072 -2.5622 0
M  V30 11 H -0.4247 1.7903 -1.79 0
M  V30 12 H -1.4561 -0.9908 1.0212 0
M  V30 13 H -0.6655 -1.9144 -0.3043 0
M  V30 14 H -0.2387 1.331 1.7065 0
M  V30 15 H 1.5043 0.9948 2.0263 0
M  V30 16 H 0.2382 -0.1169 2.6694 0
M  V30 17 H -2.0134 0.7906 -0.42 0
M  V30 18 H -1.9945 -0.5397 -1.6466 0
M  V30 END ATOM
M  V30 BEGIN BOND
M  V30 1 2 1 2
M  V30 2 1 2 3
M  V30 3 1 2 4
M  V30 4 1 3 5
M  V30 5 1 3 6
M  V30 6 1 3 7
M  V30 7 1 4 8
M  V30 8 3 5 9
M  V30 9 1 6 8
M  V30 10 1 4 10
M  V30 11 1 4 11
M  V30 12 1 6 12
M  V30 13 1 6 13
M  V30 14 1 7 14
M  V30 15 1 7 15
M  V30 16 1 7 16
M  V30 17 1 8 17
M  V30 18 1 8 18
M  V30 END BOND
M  V30 BEGIN COLLECTION
M  V30 MDLV30/STEABS ATOMS=(1 3)
M  V30 END COLLECTION
M  V30 END CTAB
M  END
>  <Structure No>
5340

>  <LogS>
0.9095

>  <MMFF94 Energy>
3.1676

$$$$
Compound 5341
Actelion Java MolfileCreator 2.0

  0  0  0  0  0  0              0 V3000
M  V30 BEGIN CTAB
M  V30 COUNTS 35 36 0 0 0
M  V30 BEGIN ATOM
M  V30 1 Cl 1.2829 2.5671 -3.29 0
M  V30 2 C 1.182 2.7233 -1.5192 0
M  V30 3 C 0.0208 1.9269 -1.0024 0
M  V30 4 O -1.0725 2.5286 -0.8162 0
M  V30 5 N 0.1012 0.5034 -0.7562 0
M  V30 6 C -1.0333 -0.1639 -0.169 0
M  V30 7 C 1.2986 -0.2978 -1.0596 0
M  V30 8 C -1.3099 -0.0233 1.2141 0
M  V30 9 C -1.8901 -0.9517 -0.9761 0
M  V30 10 N 2.0429 -0.5799 0.1634 0
M  V30 11 C -2.4127 -0.6894 1.7692 0
M  V30 12 C -0.5024 0.887 2.1012 0
M  V30 13 C -2.964 -1.6336 -0.3849 0
M  V30 14 C -1.6639 -1.1033 -2.4567 0
M  V30 15 N 1.711 -1.5312 1.0215 0
M  V30 16 C 3.116 0.0932 0.6178 0
M  V30 17 C -3.2233 -1.5007 0.9776 0
M  V30 18 C 2.5859 -1.4764 2.044 0
M  V30 19 C 3.4926 -0.4574 1.8232 0
M  V30 20 H 1.0435 3.7968 -1.2692 0
M  V30 21 H 2.1298 2.3946 -1.0514 0
M  V30 22 H 1.953 0.2024 -1.8014 0
M  V30 23 H 1.0007 -1.2609 -1.5239 0
M  V30 24 H -2.646 -0.5802 2.8215 0
M  V30 25 H 0.5271 1.0345 1.7218 0
M  V30 26 H -1.0024 1.876 2.164 0
M  V30 27 H -0.421 0.4598 3.1234 0
M  V30 28 H -3.6125 -2.2606 -0.9848 0
M  V30 29 H -1.0249 -1.9902 -2.6468 0
M  V30 30 H -2.6302 -1.2425 -2.9868 0
M  V30 31 H -1.1797 -0.2013 -2.8859 0
M  V30 32 H 3.595 0.9212 0.1131 0
M  V30 33 H -4.0642 -2.0191 1.42 0
M  V30 34 H 2.5637 -2.1358 2.9009 0
M  V30 35 H 4.3154 -0.157 2.4578 0
M  V30 END ATOM
M  V30 BEGIN BOND
M  V30 1 1 1 2
M  V30 2 1 2 3
M  V30 3 2 3 4
M  V30 4 1 3 5
M  V30 5 1 5 6
M  V30 6 1 5 7
M  V30 7 2 6 8
M  V30 8 1 6 9
M  V30 9 1 7 10
M  V30 10 1 8 11
M  V30 11 1 8 12
M  V30 12 2 9 13
M  V30 13 1 9 14
M  V30 14 1 10 15
M  V30 15 1 10 16
M  V30 16 2 11 17
M  V30 17 2 15 18
M  V30 18 2 16 19
M  V30 19 1 13 17
M  V30 20 1 18 19
M  V30 21 1 2 20
M  V30 22 1 2 21
M  V30 23 1 7 22
M  V30 24 1 7 23
M  V30 25 1 11 24
M  V30 26 1 12 25
M  V30 27 1 12 26
M  V30 28 1 12 27
M  V30 29 1 13 28
M  V30 30 1 14 29
M  V30 31 1 14 30
M  V30 32 1 14 31
M  V30 33 1 16 32
M  V30 34 1 17 33
M  V30 35 1 18 34
M  V30 36 1 19 35
M  V30 END BOND
M  V30 END CTAB
M  END
>  <Structure No>
5341

>  <LogS>
-2.8102

>  <MMFF94 Energy>
59.941

$$$$
Compound 5342
Actelion Java MolfileCreator 2.0

  0  0  0  0  0  0              0 V3000
M  V30 BEGIN CTAB
M  V30 COUNTS 29 28 0 0 0
M  V30 BEGIN ATOM
M  V30 1 O 2.4026 -1.162 0.0 0
M  V30 2 C 2.3195 0.0667 -0.2585 0
M  V30 3 N 1.0426 0.7292 -0.3584 0
M  V30 4 N 3.5193 0.813 -0.4597 0
M  V30 5 C -0.3078 0.1416 -0.1636 0
M  V30 6 C -0.7642 -0.5823 -1.4723 0
M  V30 7 C -1.2898 1.3389 0.0922 0
M  V30 8 C -0.3425 -0.8493 1.048 0
M  V30 9 C 0.2125 -1.6088 -2.0502 0
M  V30 10 C -2.7472 0.9744 0.406 0
M  V30 11 C 0.1016 -0.2322 2.3789 0
M  V30 12 H 1.0946 1.7458 -0.5989 0
M  V30 13 H 3.4832 1.8338 -0.6758 0
M  V30 14 H 4.4497 0.3439 -0.3916 0
M  V30 15 H -0.9515 0.1724 -2.2675 0
M  V30 16 H -1.7238 -1.1117 -1.2923 0
M  V30 17 H -0.9055 1.966 0.9254 0
M  V30 18 H -1.2967 2.0022 -0.8011 0
M  V30 19 H -1.3647 -1.2621 1.1763 0
M  V30 20 H 0.2821 -1.7408 0.858 0
M  V30 21 H 0.4458 -2.4051 -1.3157 0
M  V30 22 H 1.1437 -1.1164 -2.3966 0
M  V30 23 H -0.2536 -2.0938 -2.9339 0
M  V30 24 H -3.343 1.9082 0.4844 0
M  V30 25 H -3.1954 0.3581 -0.3983 0
M  V30 26 H -2.8308 0.4481 1.3781 0
M  V30 27 H -0.633 0.5202 2.7314 0
M  V30 28 H 0.1654 -1.0292 3.1496 0
M  V30 29 H 1.0997 0.2425 2.2872 0
M  V30 END ATOM
M  V30 BEGIN BOND
M  V30 1 2 1 2
M  V30 2 1 2 3
M  V30 3 1 2 4
M  V30 4 1 3 5
M  V30 5 1 5 6
M  V30 6 1 5 7
M  V30 7 1 5 8
M  V30 8 1 6 9
M  V30 9 1 7 10
M  V30 10 1 8 11
M  V30 11 1 3 12
M  V30 12 1 4 13
M  V30 13 1 4 14
M  V30 14 1 6 15
M  V30 15 1 6 16
M  V30 16 1 7 17
M  V30 17 1 7 18
M  V30 18 1 8 19
M  V30 19 1 8 20
M  V30 20 1 9 21
M  V30 21 1 9 22
M  V30 22 1 9 23
M  V30 23 1 10 24
M  V30 24 1 10 25
M  V30 25 1 10 26
M  V30 26 1 11 27
M  V30 27 1 11 28
M  V30 28 1 11 29
M  V30 END BOND
M  V30 END CTAB
M  END
>  <Structure No>
5342

>  <LogS>
-1.8191

>  <MMFF94 Energy>
-83.658

$$$$
Compound 5343
Actelion Java MolfileCreator 2.0

  0  0  0  0  0  0              0 V3000
M  V30 BEGIN CTAB
M  V30 COUNTS 56 57 0 0 0
M  V30 BEGIN ATOM
M  V30 1 O -6.0762 0.0787 -0.1574 0
M  V30 2 C -5.3211 -0.1153 -1.3448 0 CFG=2
M  V30 3 C -5.2808 0.5588 0.9132 0 CFG=2
M  V30 4 C -4.0859 -1.0183 -1.1181 0
M  V30 5 C -4.9839 1.212 -2.0431 0
M  V30 6 C -4.1139 -0.4018 1.2073 0
M  V30 7 C -6.167 0.706 2.1492 0
M  V30 8 N -3.2582 -0.5475 0.0126 0 CHG=1
M  V30 9 C -2.1257 -1.4861 0.2735 0
M  V30 10 C -0.7517 -0.7688 0.3628 0 CFG=2
M  V30 11 C 0.3842 -1.8178 0.4159 0
M  V30 12 C -0.6869 0.1674 1.5828 0
M  V30 13 C 1.7494 -1.1936 0.2636 0
M  V30 14 C 2.191 -0.7632 -0.9932 0
M  V30 15 C 2.581 -1.0185 1.3762 0
M  V30 16 C 3.4485 -0.172 -1.141 0
M  V30 17 C 3.839 -0.4285 1.2329 0
M  V30 18 C 4.3034 0.0077 -0.0278 0
M  V30 19 C 5.699 0.6551 -0.1429 0
M  V30 20 C 6.0568 1.0731 -1.5895 0
M  V30 21 C 5.7531 1.922 0.7382 0
M  V30 22 C 6.7725 -0.3472 0.3339 0
M  V30 23 H -5.981 -0.6656 -2.0503 0
M  V30 24 H -4.8819 1.5706 0.6815 0
M  V30 25 H -4.444 -2.0553 -0.9208 0
M  V30 26 H -3.4776 -1.0478 -2.0505 0
M  V30 27 H -4.5781 1.0109 -3.0571 0
M  V30 28 H -5.9054 1.822 -2.1513 0
M  V30 29 H -4.2317 1.8016 -1.4826 0
M  V30 30 H -4.5239 -1.3925 1.5132 0
M  V30 31 H -3.5201 -0.0017 2.0577 0
M  V30 32 H -5.5776 1.1057 3.0021 0
M  V30 33 H -6.996 1.4133 1.934 0
M  V30 34 H -6.6017 -0.2756 2.4356 0
M  V30 35 H -2.8827 0.3951 -0.2438 0
M  V30 36 H -2.0504 -2.2458 -0.5386 0
M  V30 37 H -2.2855 -2.0783 1.2041 0
M  V30 38 H -0.6197 -0.1584 -0.5583 0
M  V30 39 H 0.322 -2.3919 1.367 0
M  V30 40 H 0.2535 -2.5548 -0.4067 0
M  V30 41 H -1.4411 0.976 1.5007 0
M  V30 42 H -0.8618 -0.3998 2.5218 0
M  V30 43 H 0.3033 0.6639 1.644 0
M  V30 44 H 1.5581 -0.8862 -1.8638 0
M  V30 45 H 2.2546 -1.3357 2.3588 0
M  V30 46 H 3.7311 0.1378 -2.1356 0
M  V30 47 H 4.4477 -0.3126 2.1192 0
M  V30 48 H 6.0643 0.1913 -2.2659 0
M  V30 49 H 5.3356 1.8262 -1.9745 0
M  V30 50 H 7.0689 1.5316 -1.6286 0
M  V30 51 H 4.957 2.6366 0.4364 0
M  V30 52 H 6.7361 2.4312 0.6372 0
M  V30 53 H 5.6145 1.6786 1.8121 0
M  V30 54 H 7.7915 0.0823 0.2204 0
M  V30 55 H 6.7193 -1.2829 -0.2632 0
M  V30 56 H 6.6408 -0.6091 1.4043 0
M  V30 END ATOM
M  V30 BEGIN BOND
M  V30 1 1 1 2
M  V30 2 1 1 3
M  V30 3 1 2 4
M  V30 4 1 2 5
M  V30 5 1 3 6
M  V30 6 1 3 7
M  V30 7 1 4 8
M  V30 8 1 8 9
M  V30 9 1 9 10
M  V30 10 1 10 11
M  V30 11 1 10 12
M  V30 12 1 11 13
M  V30 13 2 13 14
M  V30 14 1 13 15
M  V30 15 1 14 16
M  V30 16 2 15 17
M  V30 17 2 16 18
M  V30 18 1 18 19
M  V30 19 1 19 20
M  V30 20 1 19 21
M  V30 21 1 19 22
M  V30 22 1 6 8
M  V30 23 1 17 18
M  V30 24 1 2 23
M  V30 25 1 3 24
M  V30 26 1 4 25
M  V30 27 1 4 26
M  V30 28 1 5 27
M  V30 29 1 5 28
M  V30 30 1 5 29
M  V30 31 1 6 30
M  V30 32 1 6 31
M  V30 33 1 7 32
M  V30 34 1 7 33
M  V30 35 1 7 34
M  V30 36 1 8 35
M  V30 37 1 9 36
M  V30 38 1 9 37
M  V30 39 1 10 38
M  V30 40 1 11 39
M  V30 41 1 11 40
M  V30 42 1 12 41
M  V30 43 1 12 42
M  V30 44 1 12 43
M  V30 45 1 14 44
M  V30 46 1 15 45
M  V30 47 1 16 46
M  V30 48 1 17 47
M  V30 49 1 20 48
M  V30 50 1 20 49
M  V30 51 1 20 50
M  V30 52 1 21 51
M  V30 53 1 21 52
M  V30 54 1 21 53
M  V30 55 1 22 54
M  V30 56 1 22 55
M  V30 57 1 22 56
M  V30 END BOND
M  V30 BEGIN COLLECTION
M  V30 MDLV30/STEABS ATOMS=(3 2 3 10)
M  V30 END COLLECTION
M  V30 END CTAB
M  END
>  <Structure No>
5343

>  <LogS>
-2.4821

>  <MMFF94 Energy>
124.05

$$$$
Compound 5344
Actelion Java MolfileCreator 2.0

  0  0  0  0  0  0              0 V3000
M  V30 BEGIN CTAB
M  V30 COUNTS 47 49 0 0 0
M  V30 BEGIN ATOM
M  V30 1 Cl -3.363 4.2667 2.4599 0
M  V30 2 C -4.196 2.9129 1.7134 0
M  V30 3 Cl -5.397 2.0441 2.6667 0
M  V30 4 C -3.9134 2.5788 0.4461 0
M  V30 5 C -4.6325 1.4551 -0.2652 0 CFG=1
M  V30 6 C -3.9206 0.7632 -1.4383 0
M  V30 7 C -4.0726 0.0277 -0.0955 0 CFG=1
M  V30 8 C -2.5331 1.2703 -1.8794 0
M  V30 9 C -4.8447 0.2693 -2.5561 0
M  V30 10 C -2.827 -0.1639 0.7247 0
M  V30 11 O -2.8283 0.1365 1.9493 0
M  V30 12 O -1.7046 -0.7596 0.1392 0
M  V30 13 C -0.4816 -0.9933 0.836 0 CFG=1
M  V30 14 C -0.634 -2.1324 1.7517 0
M  V30 15 C 0.6181 -1.285 -0.1529 0
M  V30 16 N -0.7546 -3.0295 2.4728 0
M  V30 17 C 1.8975 -0.7327 0.0296 0
M  V30 18 C 0.3896 -2.1378 -1.2475 0
M  V30 19 C 2.9366 -1.0215 -0.8738 0
M  V30 20 C 1.4139 -2.4049 -2.1587 0
M  V30 21 O 4.2195 -0.4734 -0.7272 0
M  V30 22 C 2.679 -1.8422 -1.9769 0
M  V30 23 C 4.8393 -0.1717 0.4944 0
M  V30 24 C 5.7728 0.8715 0.5358 0
M  V30 25 C 4.5852 -0.9151 1.6626 0
M  V30 26 C 6.422 1.1925 1.7322 0
M  V30 27 C 5.2361 -0.5921 2.8574 0
M  V30 28 C 6.1509 0.4635 2.8933 0
M  V30 29 H -3.2137 3.1974 -0.1059 0
M  V30 30 H -5.7406 1.5104 -0.3327 0
M  V30 31 H -4.8427 -0.7718 -0.059 0
M  V30 32 H -1.8797 1.5684 -1.0347 0
M  V30 33 H -2.0133 0.4694 -2.4461 0
M  V30 34 H -2.659 2.1481 -2.5467 0
M  V30 35 H -5.014 1.0886 -3.2855 0
M  V30 36 H -5.8309 -0.0658 -2.1682 0
M  V30 37 H -4.3665 -0.5843 -3.0798 0
M  V30 38 H -0.223 -0.0889 1.4305 0
M  V30 39 H 2.0789 -0.0656 0.8629 0
M  V30 40 H -0.5826 -2.59 -1.3983 0
M  V30 41 H 1.2273 -3.0516 -3.0063 0
M  V30 42 H 3.4667 -2.0553 -2.6882 0
M  V30 43 H 5.9894 1.4396 -0.36 0
M  V30 44 H 3.9011 -1.7532 1.6466 0
M  V30 45 H 7.1363 2.0053 1.7586 0
M  V30 46 H 5.0365 -1.1652 3.7538 0
M  V30 47 H 6.6556 0.7117 3.8181 0
M  V30 END ATOM
M  V30 BEGIN BOND
M  V30 1 1 1 2
M  V30 2 1 2 3
M  V30 3 2 2 4
M  V30 4 1 4 5
M  V30 5 1 5 6
M  V30 6 1 5 7
M  V30 7 1 6 8
M  V30 8 1 6 9
M  V30 9 1 7 10
M  V30 10 2 10 11
M  V30 11 1 10 12
M  V30 12 1 12 13
M  V30 13 1 13 14
M  V30 14 1 13 15
M  V30 15 3 14 16
M  V30 16 2 15 17
M  V30 17 1 15 18
M  V30 18 1 17 19
M  V30 19 2 18 20
M  V30 20 1 19 21
M  V30 21 2 19 22
M  V30 22 1 21 23
M  V30 23 2 23 24
M  V30 24 1 23 25
M  V30 25 1 24 26
M  V30 26 2 25 27
M  V30 27 2 26 28
M  V30 28 1 6 7
M  V30 29 1 20 22
M  V30 30 1 27 28
M  V30 31 1 4 29
M  V30 32 1 5 30
M  V30 33 1 7 31
M  V30 34 1 8 32
M  V30 35 1 8 33
M  V30 36 1 8 34
M  V30 37 1 9 35
M  V30 38 1 9 36
M  V30 39 1 9 37
M  V30 40 1 13 38
M  V30 41 1 17 39
M  V30 42 1 18 40
M  V30 43 1 20 41
M  V30 44 1 22 42
M  V30 45 1 24 43
M  V30 46 1 25 44
M  V30 47 1 26 45
M  V30 48 1 27 46
M  V30 49 1 28 47
M  V30 END BOND
M  V30 BEGIN COLLECTION
M  V30 MDLV30/STEABS ATOMS=(3 5 7 13)
M  V30 END COLLECTION
M  V30 END CTAB
M  END
>  <Structure No>
5344

>  <LogS>
-7.6194

>  <MMFF94 Energy>
81.272

$$$$
Compound 5345
Actelion Java MolfileCreator 2.0

  0  0  0  0  0  0              0 V3000
M  V30 BEGIN CTAB
M  V30 COUNTS 59 61 0 0 0
M  V30 BEGIN ATOM
M  V30 1 F -0.1618 -6.2455 -1.2953 0
M  V30 2 C -0.9552 -5.2898 -1.9175 0
M  V30 3 F -2.0836 -5.9051 -2.4349 0
M  V30 4 F -0.2266 -4.7332 -2.9572 0
M  V30 5 C -1.3814 -4.2245 -0.9334 0
M  V30 6 C -1.6338 -4.5558 0.4096 0
M  V30 7 C -1.6201 -2.9084 -1.3669 0
M  V30 8 C -2.0704 -3.5822 1.3119 0
M  V30 9 C -2.0528 -1.9341 -0.4636 0
M  V30 10 C -2.2571 -2.2552 0.8909 0
M  V30 11 C -2.7627 -1.2551 1.8594 0
M  V30 12 C -2.3573 0.0235 1.9344 0
M  V30 13 C -1.2231 0.5899 1.1722 0
M  V30 14 N -0.1517 -0.1384 1.0433 0
M  V30 15 C -1.2819 1.9896 0.6724 0
M  V30 16 N 0.9849 0.2187 0.2972 0
M  V30 17 C -2.4445 2.6426 0.4994 0
M  V30 18 C 2.1907 -0.536 0.4361 0
M  V30 19 C -2.541 4.0373 0.0037 0
M  V30 20 N 2.2817 -1.4462 1.36 0
M  V30 21 N 3.2854 -0.3079 -0.4652 0
M  V30 22 C -1.5415 4.6291 -0.7917 0
M  V30 23 C -3.6936 4.7778 0.3049 0
M  V30 24 C 3.5104 -2.1954 1.6239 0
M  V30 25 C 4.5439 -1.055 -0.3604 0
M  V30 26 C -1.6925 5.9364 -1.261 0
M  V30 27 C -3.8472 6.0841 -0.1694 0
M  V30 28 C 4.3259 -2.4249 0.3304 0
M  V30 29 C -2.8561 6.6693 -0.9746 0
M  V30 30 C 5.6891 -3.0446 0.6893 0
M  V30 31 C 3.5715 -3.3891 -0.6129 0
M  V30 32 C -2.9954 8.0885 -1.4645 0
M  V30 33 F -2.3144 8.9362 -0.6096 0
M  V30 34 F -4.3261 8.47 -1.511 0
M  V30 35 F -2.4664 8.209 -2.7375 0
M  V30 36 H -1.4866 -5.5714 0.7614 0
M  V30 37 H -1.4706 -2.6358 -2.4073 0
M  V30 38 H -2.2538 -3.8603 2.3435 0
M  V30 39 H -2.2417 -0.9296 -0.8313 0
M  V30 40 H -3.5238 -1.5848 2.557 0
M  V30 41 H -2.8737 0.6762 2.6233 0
M  V30 42 H -0.3545 2.4999 0.4655 0
M  V30 43 H 0.9364 0.9595 -0.4404 0
M  V30 44 H -3.3736 2.147 0.7526 0
M  V30 45 H 3.2308 0.4715 -1.1549 0
M  V30 46 H -0.6532 4.0829 -1.0774 0
M  V30 47 H -4.4757 4.3462 0.9196 0
M  V30 48 H 3.2483 -3.1663 2.1024 0
M  V30 49 H 4.1161 -1.6136 2.3512 0
M  V30 50 H 4.9731 -1.2022 -1.3772 0
M  V30 51 H 5.262 -0.4397 0.2232 0
M  V30 52 H -0.9025 6.3726 -1.8595 0
M  V30 53 H -4.7464 6.6322 0.09 0
M  V30 54 H 6.2858 -3.2198 -0.2292 0
M  V30 55 H 6.268 -2.3735 1.3635 0
M  V30 56 H 5.5527 -4.0182 1.2065 0
M  V30 57 H 3.3587 -4.3547 -0.1027 0
M  V30 58 H 4.1749 -3.6023 -1.5216 0
M  V30 59 H 2.6014 -2.9566 -0.9422 0
M  V30 END ATOM
M  V30 BEGIN BOND
M  V30 1 1 1 2
M  V30 2 1 2 3
M  V30 3 1 2 4
M  V30 4 1 2 5
M  V30 5 2 5 6
M  V30 6 1 5 7
M  V30 7 1 6 8
M  V30 8 2 7 9
M  V30 9 2 8 10
M  V30 10 1 10 11
M  V30 11 2 11 12
M  V30 12 1 12 13
M  V30 13 2 13 14
M  V30 14 1 13 15
M  V30 15 1 14 16
M  V30 16 2 15 17
M  V30 17 1 16 18
M  V30 18 1 17 19
M  V30 19 2 18 20
M  V30 20 1 18 21
M  V30 21 2 19 22
M  V30 22 1 19 23
M  V30 23 1 20 24
M  V30 24 1 21 25
M  V30 25 1 22 26
M  V30 26 2 23 27
M  V30 27 1 24 28
M  V30 28 2 26 29
M  V30 29 1 28 30
M  V30 30 1 28 31
M  V30 31 1 29 32
M  V30 32 1 32 33
M  V30 33 1 32 34
M  V30 34 1 32 35
M  V30 35 1 9 10
M  V30 36 1 25 28
M  V30 37 1 27 29
M  V30 38 1 6 36
M  V30 39 1 7 37
M  V30 40 1 8 38
M  V30 41 1 9 39
M  V30 42 1 11 40
M  V30 43 1 12 41
M  V30 44 1 15 42
M  V30 45 1 16 43
M  V30 46 1 17 44
M  V30 47 1 21 45
M  V30 48 1 22 46
M  V30 49 1 23 47
M  V30 50 1 24 48
M  V30 51 1 24 49
M  V30 52 1 25 50
M  V30 53 1 25 51
M  V30 54 1 26 52
M  V30 55 1 27 53
M  V30 56 1 30 54
M  V30 57 1 30 55
M  V30 58 1 30 56
M  V30 59 1 31 57
M  V30 60 1 31 58
M  V30 61 1 31 59
M  V30 END BOND
M  V30 END CTAB
M  END
>  <Structure No>
5345

>  <LogS>
-7.916

>  <MMFF94 Energy>
55.59

$$$$
Compound 5346
Actelion Java MolfileCreator 2.0

  0  0  0  0  0  0              0 V3000
M  V30 BEGIN CTAB
M  V30 COUNTS 21 23 0 0 0
M  V30 BEGIN ATOM
M  V30 1 Cl 5.0352 -0.3724 1.1175 0
M  V30 2 C 3.3656 -0.2315 0.5667 0
M  V30 3 C 3.0679 -0.2527 -0.822 0
M  V30 4 C 2.3279 -0.0976 1.5141 0
M  V30 5 Cl 4.3746 -0.4206 -1.9958 0
M  V30 6 C 1.7301 -0.1401 -1.2712 0
M  V30 7 Cl 2.6432 -0.0656 3.2446 0
M  V30 8 C 1.022 0.0113 1.0468 0
M  V30 9 Cl 1.3618 -0.1666 -2.9929 0
M  V30 10 C 0.725 -0.0084 -0.3021 0
M  V30 11 O -0.0662 0.1422 1.7768 0
M  V30 12 C -0.6533 0.1218 -0.3671 0
M  V30 13 C -1.0802 0.2099 0.9416 0
M  V30 14 C -1.5568 0.1705 -1.4298 0
M  V30 15 C -2.4276 0.3513 1.2679 0
M  V30 16 C -2.9252 0.3129 -1.1341 0
M  V30 17 Cl -2.9145 0.4588 2.9548 0
M  V30 18 C -3.3659 0.4037 0.2124 0
M  V30 19 Cl -4.0693 0.375 -2.4686 0
M  V30 20 Cl -5.0824 0.5817 0.571 0
M  V30 21 H -1.2336 0.1025 -2.4565 0
M  V30 END ATOM
M  V30 BEGIN BOND
M  V30 1 1 1 2
M  V30 2 2 2 3
M  V30 3 1 2 4
M  V30 4 1 3 5
M  V30 5 1 3 6
M  V30 6 1 4 7
M  V30 7 2 4 8
M  V30 8 1 6 9
M  V30 9 2 6 10
M  V30 10 1 8 11
M  V30 11 1 10 12
M  V30 12 1 11 13
M  V30 13 1 12 14
M  V30 14 1 13 15
M  V30 15 2 14 16
M  V30 16 1 15 17
M  V30 17 2 15 18
M  V30 18 1 16 19
M  V30 19 1 18 20
M  V30 20 1 8 10
M  V30 21 2 12 13
M  V30 22 1 16 18
M  V30 23 1 14 21
M  V30 END BOND
M  V30 END CTAB
M  END
>  <Structure No>
5346

>  <LogS>
-11.4817

>  <MMFF94 Energy>
55.273

$$$$
Compound 5347
Actelion Java MolfileCreator 2.0

  0  0  0  0  0  0              0 V3000
M  V30 BEGIN CTAB
M  V30 COUNTS 56 57 0 0 0
M  V30 BEGIN ATOM
M  V30 1 O 5.1297 -0.2363 1.1031 0
M  V30 2 C 4.0986 0.2027 1.976 0 CFG=2
M  V30 3 C 4.7949 -1.4868 0.5336 0 CFG=1
M  V30 4 C 2.6875 0.0632 1.3359 0
M  V30 5 C 4.3805 1.6571 2.3538 0
M  V30 6 C 3.5773 -1.3396 -0.4186 0
M  V30 7 C 6.0125 -2.0399 -0.2053 0
M  V30 8 N 2.8002 -0.1099 -0.1283 0 CHG=1 CFG=1
M  V30 9 C 1.458 -0.1569 -0.7787 0
M  V30 10 C 1.0889 1.1661 -1.5051 0 CFG=1
M  V30 11 C -0.1663 1.0014 -2.3976 0
M  V30 12 C 0.9344 2.345 -0.5312 0
M  V30 13 C -1.4181 0.6432 -1.6299 0
M  V30 14 C -2.2435 1.6474 -1.1086 0
M  V30 15 C -1.7637 -0.6978 -1.4223 0
M  V30 16 C -3.3907 1.3195 -0.3809 0
M  V30 17 C -2.9089 -1.0302 -0.6956 0
M  V30 18 C -3.7485 -0.0307 -0.1555 0
M  V30 19 C -5.0016 -0.4398 0.6461 0
M  V30 20 C -5.9379 -1.2761 -0.2529 0
M  V30 21 C -5.8106 0.7719 1.1683 0
M  V30 22 C -4.5776 -1.2821 1.869 0
M  V30 23 H 4.1346 -0.3945 2.9157 0
M  V30 24 H 4.5451 -2.2176 1.3397 0
M  V30 25 H 2.0495 0.9381 1.586 0
M  V30 26 H 2.1824 -0.8252 1.7809 0
M  V30 27 H 4.3367 2.3053 1.4524 0
M  V30 28 H 5.3922 1.7401 2.8048 0
M  V30 29 H 3.6361 2.0148 3.0972 0
M  V30 30 H 3.9101 -1.3099 -1.4816 0
M  V30 31 H 2.9379 -2.2448 -0.3004 0
M  V30 32 H 6.334 -1.3368 -1.0034 0
M  V30 33 H 6.8535 -2.1773 0.5069 0
M  V30 34 H 5.7701 -3.0237 -0.6608 0
M  V30 35 H 3.3481 0.6979 -0.511 0
M  V30 36 H 1.4231 -0.9632 -1.5473 0
M  V30 37 H 0.6633 -0.4136 -0.0419 0
M  V30 38 H 1.9247 1.4176 -2.1955 0
M  V30 39 H -0.338 1.9428 -2.9649 0
M  V30 40 H 0.0326 0.2223 -3.1661 0
M  V30 41 H 0.5662 3.2445 -1.0688 0
M  V30 42 H 0.2216 2.0958 0.283 0
M  V30 43 H 1.9151 2.6093 -0.0842 0
M  V30 44 H -1.9973 2.6908 -1.2626 0
M  V30 45 H -1.142 -1.4904 -1.8197 0
M  V30 46 H -3.9828 2.1391 -0.0027 0
M  V30 47 H -3.1338 -2.0788 -0.5565 0
M  V30 48 H -5.456 -2.2222 -0.5765 0
M  V30 49 H -6.869 -1.5467 0.291 0
M  V30 50 H -6.2187 -0.699 -1.1604 0
M  V30 51 H -6.1736 1.3991 0.3255 0
M  V30 52 H -5.1942 1.395 1.8519 0
M  V30 53 H -6.7026 0.434 1.7397 0
M  V30 54 H -3.8685 -0.7095 2.5053 0
M  V30 55 H -5.4612 -1.5528 2.487 0
M  V30 56 H -4.0848 -2.2282 1.5625 0
M  V30 END ATOM
M  V30 BEGIN BOND
M  V30 1 1 1 2
M  V30 2 1 1 3
M  V30 3 1 2 4
M  V30 4 1 2 5
M  V30 5 1 3 6
M  V30 6 1 3 7
M  V30 7 1 4 8
M  V30 8 1 8 9
M  V30 9 1 9 10
M  V30 10 1 10 11
M  V30 11 1 10 12
M  V30 12 1 11 13
M  V30 13 2 13 14
M  V30 14 1 13 15
M  V30 15 1 14 16
M  V30 16 2 15 17
M  V30 17 2 16 18
M  V30 18 1 18 19
M  V30 19 1 19 20
M  V30 20 1 19 21
M  V30 21 1 19 22
M  V30 22 1 6 8
M  V30 23 1 17 18
M  V30 24 1 2 23
M  V30 25 1 3 24
M  V30 26 1 4 25
M  V30 27 1 4 26
M  V30 28 1 5 27
M  V30 29 1 5 28
M  V30 30 1 5 29
M  V30 31 1 6 30
M  V30 32 1 6 31
M  V30 33 1 7 32
M  V30 34 1 7 33
M  V30 35 1 7 34
M  V30 36 1 8 35
M  V30 37 1 9 36
M  V30 38 1 9 37
M  V30 39 1 10 38
M  V30 40 1 11 39
M  V30 41 1 11 40
M  V30 42 1 12 41
M  V30 43 1 12 42
M  V30 44 1 12 43
M  V30 45 1 14 44
M  V30 46 1 15 45
M  V30 47 1 16 46
M  V30 48 1 17 47
M  V30 49 1 20 48
M  V30 50 1 20 49
M  V30 51 1 20 50
M  V30 52 1 21 51
M  V30 53 1 21 52
M  V30 54 1 21 53
M  V30 55 1 22 54
M  V30 56 1 22 55
M  V30 57 1 22 56
M  V30 END BOND
M  V30 BEGIN COLLECTION
M  V30 MDLV30/STEABS ATOMS=(4 2 3 8 10)
M  V30 END COLLECTION
M  V30 END CTAB
M  END
>  <Structure No>
5347

>  <LogS>
-4.8487

>  <MMFF94 Energy>
124.41

$$$$
Compound 5348
Actelion Java MolfileCreator 2.0

  0  0  0  0  0  0              0 V3000
M  V30 BEGIN CTAB
M  V30 COUNTS 39 40 0 0 0
M  V30 BEGIN ATOM
M  V30 1 Cl 2.1368 -2.4659 -1.9723 0
M  V30 2 C 3.1031 -1.1527 -1.3187 0
M  V30 3 C 2.5033 -0.1314 -0.5655 0
M  V30 4 C 4.4839 -1.1361 -1.5432 0
M  V30 5 O 1.127 -0.1546 -0.3407 0
M  V30 6 C 3.2951 0.8988 -0.0316 0
M  V30 7 C 5.2697 -0.1069 -1.0142 0
M  V30 8 C 0.2199 0.5203 -1.2045 0
M  V30 9 Cl 2.5788 2.1722 0.9414 0
M  V30 10 C 4.6753 0.9081 -0.259 0
M  V30 11 Cl 7.0023 -0.0951 -1.2898 0
M  V30 12 C -1.2143 0.0663 -0.923 0
M  V30 13 N -1.5625 0.1356 0.5077 0
M  V30 14 C -2.4239 -0.8818 1.0554 0
M  V30 15 C -1.4031 1.3944 1.2558 0
M  V30 16 O -3.4684 -0.5458 1.6778 0
M  V30 17 N -2.1101 -2.2752 0.9085 0
M  V30 18 C -2.3966 2.459 0.7743 0
M  V30 19 C -0.9018 -2.829 0.686 0
M  V30 20 C -2.9645 -3.3053 1.0245 0
M  V30 21 C -2.2935 3.7285 1.6143 0
M  V30 22 N -0.952 -4.1762 0.6405 0
M  V30 23 C -2.2515 -4.4693 0.8504 0
M  V30 24 H 4.947 -1.9255 -2.122 0
M  V30 25 H 0.4646 0.2838 -2.2637 0
M  V30 26 H 0.3137 1.6192 -1.0708 0
M  V30 27 H 5.2866 1.6999 0.1552 0
M  V30 28 H -1.921 0.6911 -1.5075 0
M  V30 29 H -1.3248 -0.9724 -1.3019 0
M  V30 30 H -1.5553 1.2072 2.3427 0
M  V30 31 H -0.3667 1.773 1.1496 0
M  V30 32 H -2.1866 2.7192 -0.2849 0
M  V30 33 H -3.4331 2.0639 0.8437 0
M  V30 34 H 0.0147 -2.2679 0.5813 0
M  V30 35 H -4.0264 -3.2201 1.2158 0
M  V30 36 H -3.04 4.47 1.2582 0
M  V30 37 H -2.5007 3.5045 2.6825 0
M  V30 38 H -1.2785 4.1712 1.5199 0
M  V30 39 H -2.6526 -5.4731 0.8797 0
M  V30 END ATOM
M  V30 BEGIN BOND
M  V30 1 1 1 2
M  V30 2 2 2 3
M  V30 3 1 2 4
M  V30 4 1 3 5
M  V30 5 1 3 6
M  V30 6 2 4 7
M  V30 7 1 5 8
M  V30 8 1 6 9
M  V30 9 2 6 10
M  V30 10 1 7 11
M  V30 11 1 8 12
M  V30 12 1 12 13
M  V30 13 1 13 14
M  V30 14 1 13 15
M  V30 15 2 14 16
M  V30 16 1 14 17
M  V30 17 1 15 18
M  V30 18 1 17 19
M  V30 19 1 17 20
M  V30 20 1 18 21
M  V30 21 2 19 22
M  V30 22 2 20 23
M  V30 23 1 7 10
M  V30 24 1 22 23
M  V30 25 1 4 24
M  V30 26 1 8 25
M  V30 27 1 8 26
M  V30 28 1 10 27
M  V30 29 1 12 28
M  V30 30 1 12 29
M  V30 31 1 15 30
M  V30 32 1 15 31
M  V30 33 1 18 32
M  V30 34 1 18 33
M  V30 35 1 19 34
M  V30 36 1 20 35
M  V30 37 1 21 36
M  V30 38 1 21 37
M  V30 39 1 21 38
M  V30 40 1 23 39
M  V30 END BOND
M  V30 END CTAB
M  END
>  <Structure No>
5348

>  <LogS>
-4.0445

>  <MMFF94 Energy>
64.085

$$$$
Compound 5349
Actelion Java MolfileCreator 2.0

  0  0  0  0  0  0              0 V3000
M  V30 BEGIN CTAB
M  V30 COUNTS 21 20 0 0 0
M  V30 BEGIN ATOM
M  V30 1 O 1.5776 -1.4987 2.7622 0
M  V30 2 N 1.235 -1.6219 1.568 0
M  V30 3 N 1.656 -0.7197 0.5718 0
M  V30 4 C 2.591 0.343 0.8665 0
M  V30 5 C 1.0924 -0.8856 -0.7688 0
M  V30 6 O 3.3224 0.2736 1.8903 0
M  V30 7 N 2.7156 1.482 0.0097 0
M  V30 8 C -0.1579 -0.0762 -0.9119 0
M  V30 9 O -0.3051 0.6762 -1.9132 0
M  V30 10 O -1.1623 -0.1824 0.0572 0
M  V30 11 C -2.4061 0.5106 -0.0215 0
M  V30 12 C -3.3307 -0.1563 -1.0332 0
M  V30 13 H 0.8417 -1.9546 -0.9396 0
M  V30 14 H 1.8396 -0.6021 -1.5419 0
M  V30 15 H 3.4235 2.2189 0.2245 0
M  V30 16 H 2.0869 1.6308 -0.8083 0
M  V30 17 H -2.8905 0.4813 0.9772 0
M  V30 18 H -2.24 1.5759 -0.2929 0
M  V30 19 H -3.4873 -1.2208 -0.7587 0
M  V30 20 H -2.8935 -0.1032 -2.0519 0
M  V30 21 H -4.3128 0.3619 -1.0396 0
M  V30 END ATOM
M  V30 BEGIN BOND
M  V30 1 2 1 2
M  V30 2 1 2 3
M  V30 3 1 3 4
M  V30 4 1 3 5
M  V30 5 2 4 6
M  V30 6 1 4 7
M  V30 7 1 5 8
M  V30 8 2 8 9
M  V30 9 1 8 10
M  V30 10 1 10 11
M  V30 11 1 11 12
M  V30 12 1 5 13
M  V30 13 1 5 14
M  V30 14 1 7 15
M  V30 15 1 7 16
M  V30 16 1 11 17
M  V30 17 1 11 18
M  V30 18 1 12 19
M  V30 19 1 12 20
M  V30 20 1 12 21
M  V30 END BOND
M  V30 END CTAB
M  END
>  <Structure No>
5349

>  <LogS>
0.7566

>  <MMFF94 Energy>
-57.346

$$$$
Compound 5350
Actelion Java MolfileCreator 2.0

  0  0  0  0  0  0              0 V3000
M  V30 BEGIN CTAB
M  V30 COUNTS 17 18 0 0 0
M  V30 BEGIN ATOM
M  V30 1 O -1.3565 -2.6346 -0.4786 0
M  V30 2 C -1.2631 -1.405 -0.2153 0
M  V30 3 N -2.3911 -0.6703 1.0E-4 0
M  V30 4 C -0.0046 -0.7912 -0.1434 0
M  V30 5 C -2.3341 0.6597 0.2871 0
M  V30 6 N 1.1353 -1.5056 -0.3549 0
M  V30 7 C 0.0733 0.5857 0.1526 0
M  V30 8 C -1.1023 1.313 0.3688 0
M  V30 9 C 2.3637 -0.926 -0.289 0
M  V30 10 C 1.3326 1.195 0.2236 0
M  V30 11 C 2.4833 0.4355 0.0015 0
M  V30 12 H -3.3265 -1.1332 -0.0547 0
M  V30 13 H -3.2479 1.2161 0.4532 0
M  V30 14 H -1.0695 2.3714 0.5978 0
M  V30 15 H 3.2491 -1.5226 -0.4625 0
M  V30 16 H 1.4259 2.2507 0.4489 0
M  V30 17 H 3.4604 0.8977 0.0542 0
M  V30 END ATOM
M  V30 BEGIN BOND
M  V30 1 2 1 2
M  V30 2 1 2 3
M  V30 3 1 2 4
M  V30 4 1 3 5
M  V30 5 2 4 6
M  V30 6 1 4 7
M  V30 7 2 5 8
M  V30 8 1 6 9
M  V30 9 2 7 10
M  V30 10 2 9 11
M  V30 11 1 7 8
M  V30 12 1 10 11
M  V30 13 1 3 12
M  V30 14 1 5 13
M  V30 15 1 8 14
M  V30 16 1 9 15
M  V30 17 1 10 16
M  V30 18 1 11 17
M  V30 END BOND
M  V30 END CTAB
M  END
>  <Structure No>
5350

>  <LogS>
-1.1428

>  <MMFF94 Energy>
66.067

$$$$
Compound 5351
Actelion Java MolfileCreator 2.0

  0  0  0  0  0  0              0 V3000
M  V30 BEGIN CTAB
M  V30 COUNTS 35 37 0 0 0
M  V30 BEGIN ATOM
M  V30 1 Cl 5.4467 0.9886 -2.0605 0
M  V30 2 C 3.7712 0.915 -1.5358 0
M  V30 3 C 3.2763 -0.2301 -0.8972 0
M  V30 4 C 2.9357 2.0111 -1.7646 0
M  V30 5 O 4.1456 -1.3113 -0.683 0
M  V30 6 C 1.929 -0.2604 -0.4896 0
M  V30 7 C 1.5977 1.9818 -1.3599 0
M  V30 8 C 3.7752 -2.5329 -0.0521 0
M  V30 9 C 1.0822 0.8381 -0.7168 0
M  V30 10 Cl 0.5848 3.3719 -1.7314 0
M  V30 11 C 4.9345 -3.4243 -0.0126 0
M  V30 12 N -0.2856 0.7897 -0.2737 0
M  V30 13 C 5.8897 -4.1586 0.0197 0
M  V30 14 N -0.903 1.776 0.3657 0
M  V30 15 C -1.1525 -0.2393 -0.3766 0
M  V30 16 C -2.1423 1.3171 0.6442 0
M  V30 17 O -0.8946 -1.344 -0.9262 0
M  V30 18 N -2.3372 0.0724 0.1705 0
M  V30 19 C -3.2241 2.1072 1.3116 0
M  V30 20 C -3.5256 -0.7541 0.3687 0
M  V30 21 C -4.333 1.1678 1.8182 0
M  V30 22 C -4.7267 0.1273 0.7528 0
M  V30 23 H 3.3267 2.8877 -2.2663 0
M  V30 24 H 1.5366 -1.1263 0.0247 0
M  V30 25 H 2.9627 -3.0261 -0.6265 0
M  V30 26 H 3.4384 -2.3365 0.9877 0
M  V30 27 H 6.7284 -4.8031 0.0481 0
M  V30 28 H -2.8011 2.6819 2.1629 0
M  V30 29 H -3.6496 2.8219 0.5752 0
M  V30 30 H -3.3266 -1.4839 1.1828 0
M  V30 31 H -3.7563 -1.3144 -0.5626 0
M  V30 32 H -3.9824 0.6411 2.733 0
M  V30 33 H -5.2251 1.7702 2.0935 0
M  V30 34 H -5.5455 -0.5142 1.1432 0
M  V30 35 H -5.1028 0.6534 -0.1518 0
M  V30 END ATOM
M  V30 BEGIN BOND
M  V30 1 1 1 2
M  V30 2 2 2 3
M  V30 3 1 2 4
M  V30 4 1 3 5
M  V30 5 1 3 6
M  V30 6 2 4 7
M  V30 7 1 5 8
M  V30 8 2 6 9
M  V30 9 1 7 10
M  V30 10 1 8 11
M  V30 11 1 9 12
M  V30 12 3 11 13
M  V30 13 1 12 14
M  V30 14 1 12 15
M  V30 15 2 14 16
M  V30 16 2 15 17
M  V30 17 1 15 18
M  V30 18 1 16 19
M  V30 19 1 18 20
M  V30 20 1 19 21
M  V30 21 1 20 22
M  V30 22 1 7 9
M  V30 23 1 16 18
M  V30 24 1 21 22
M  V30 25 1 4 23
M  V30 26 1 6 24
M  V30 27 1 8 25
M  V30 28 1 8 26
M  V30 29 1 13 27
M  V30 30 1 19 28
M  V30 31 1 19 29
M  V30 32 1 20 30
M  V30 33 1 20 31
M  V30 34 1 21 32
M  V30 35 1 21 33
M  V30 36 1 22 34
M  V30 37 1 22 35
M  V30 END BOND
M  V30 END CTAB
M  END
>  <Structure No>
5351

>  <LogS>
-4.3251

>  <MMFF94 Energy>
37.901

$$$$
Compound 5352
Actelion Java MolfileCreator 2.0

  0  0  0  0  0  0              0 V3000
M  V30 BEGIN CTAB
M  V30 COUNTS 50 52 0 0 0
M  V30 BEGIN ATOM
M  V30 1 Cl -8.2958 -1.7206 -0.3275 0
M  V30 2 C -6.5376 -1.8412 -0.4168 0
M  V30 3 C -5.8399 -0.7089 -0.6336 0
M  V30 4 C -5.8894 -3.1977 -0.2617 0
M  V30 5 C -4.3374 -0.666 -0.7842 0 CFG=1
M  V30 6 F -6.8535 -4.1875 -0.1905 0
M  V30 7 F -5.144 -3.2322 0.9012 0
M  V30 8 F -5.071 -3.4658 -1.3438 0
M  V30 9 C -3.6138 0.5896 -0.2727 0
M  V30 10 C -3.5601 -0.7124 0.5383 0 CFG=2
M  V30 11 C -4.4246 1.7198 0.3792 0
M  V30 12 C -2.381 1.0111 -1.0878 0
M  V30 13 C -2.2917 -1.5082 0.4808 0
M  V30 14 O -2.3223 -2.7101 0.1004 0
M  V30 15 O -1.0923 -0.9198 0.8967 0
M  V30 16 C 0.1553 -1.6122 0.9258 0 CFG=2
M  V30 17 C 0.1946 -2.5258 2.0762 0
M  V30 18 C 1.2891 -0.6231 1.0268 0
M  V30 19 N 0.2253 -3.2458 2.9818 0
M  V30 20 C 2.4889 -0.8549 0.3318 0
M  V30 21 C 1.1839 0.5114 1.851 0
M  V30 22 C 3.5527 0.0506 0.4182 0
M  V30 23 C 2.2491 1.409 1.9544 0
M  V30 24 O 4.732 -0.2296 -0.2871 0
M  V30 25 C 3.4306 1.182 1.2435 0
M  V30 26 C 5.6096 0.7251 -0.8202 0
M  V30 27 C 5.1631 1.9839 -1.266 0
M  V30 28 C 6.962 0.3894 -0.9601 0
M  V30 29 C 6.0678 2.8977 -1.8155 0
M  V30 30 C 7.865 1.3044 -1.5106 0
M  V30 31 C 7.4187 2.5589 -1.9363 0
M  V30 32 H -6.3926 0.2137 -0.7842 0
M  V30 33 H -3.8743 -1.1842 -1.6508 0
M  V30 34 H -4.176 -0.7613 1.4628 0
M  V30 35 H -3.7431 2.3659 0.9699 0
M  V30 36 H -4.9052 2.3359 -0.4096 0
M  V30 37 H -5.2102 1.3394 1.0665 0
M  V30 38 H -1.9028 0.1562 -1.6118 0
M  V30 39 H -1.6331 1.4798 -0.4141 0
M  V30 40 H -2.6841 1.7554 -1.8536 0
M  V30 41 H 0.264 -2.2073 -0.0085 0
M  V30 42 H 2.5965 -1.7364 -0.2881 0
M  V30 43 H 0.2824 0.6958 2.4212 0
M  V30 44 H 2.1639 2.2764 2.596 0
M  V30 45 H 4.2553 1.8723 1.3591 0
M  V30 46 H 4.1166 2.2498 -1.2122 0
M  V30 47 H 7.3144 -0.5821 -0.6357 0
M  V30 48 H 5.7203 3.8648 -2.1577 0
M  V30 49 H 8.9101 1.0397 -1.6102 0
M  V30 50 H 8.1177 3.2656 -2.3657 0
M  V30 END ATOM
M  V30 BEGIN BOND
M  V30 1 1 1 2
M  V30 2 2 2 3
M  V30 3 1 2 4
M  V30 4 1 3 5
M  V30 5 1 4 6
M  V30 6 1 4 7
M  V30 7 1 4 8
M  V30 8 1 5 9
M  V30 9 1 5 10
M  V30 10 1 9 11
M  V30 11 1 9 12
M  V30 12 1 10 13
M  V30 13 2 13 14
M  V30 14 1 13 15
M  V30 15 1 15 16
M  V30 16 1 16 17
M  V30 17 1 16 18
M  V30 18 3 17 19
M  V30 19 2 18 20
M  V30 20 1 18 21
M  V30 21 1 20 22
M  V30 22 2 21 23
M  V30 23 1 22 24
M  V30 24 2 22 25
M  V30 25 1 24 26
M  V30 26 2 26 27
M  V30 27 1 26 28
M  V30 28 1 27 29
M  V30 29 2 28 30
M  V30 30 2 29 31
M  V30 31 1 9 10
M  V30 32 1 23 25
M  V30 33 1 30 31
M  V30 34 1 3 32
M  V30 35 1 5 33
M  V30 36 1 10 34
M  V30 37 1 11 35
M  V30 38 1 11 36
M  V30 39 1 11 37
M  V30 40 1 12 38
M  V30 41 1 12 39
M  V30 42 1 12 40
M  V30 43 1 16 41
M  V30 44 1 20 42
M  V30 45 1 21 43
M  V30 46 1 23 44
M  V30 47 1 25 45
M  V30 48 1 27 46
M  V30 49 1 28 47
M  V30 50 1 29 48
M  V30 51 1 30 49
M  V30 52 1 31 50
M  V30 END BOND
M  V30 BEGIN COLLECTION
M  V30 MDLV30/STEABS ATOMS=(3 5 10 16)
M  V30 END COLLECTION
M  V30 END CTAB
M  END
>  <Structure No>
5352

>  <LogS>
-7.9541

>  <MMFF94 Energy>
100.72

$$$$
Compound 5353
Actelion Java MolfileCreator 2.0

  0  0  0  0  0  0              0 V3000
M  V30 BEGIN CTAB
M  V30 COUNTS 27 28 0 0 0
M  V30 BEGIN ATOM
M  V30 1 Cl -6.3232 -0.8089 -2.1043 0
M  V30 2 C -5.0209 -0.071 -1.1936 0
M  V30 3 N -5.2027 1.1524 -0.6302 0
M  V30 4 C -3.8012 -0.7372 -1.0431 0
M  V30 5 C -4.2218 1.7581 0.0895 0
M  V30 6 C -2.7628 -0.1293 -0.324 0
M  V30 7 C -2.9874 1.1274 0.2631 0
M  V30 8 N -1.5186 -0.8295 -0.1521 0
M  V30 9 C -0.2353 -0.19 -0.077 0
M  V30 10 O -0.1162 1.0331 -0.3605 0
M  V30 11 N 0.9108 -0.9558 0.3237 0
M  V30 12 C 2.2683 -0.4912 0.2264 0
M  V30 13 C 2.6943 0.3148 -0.846 0
M  V30 14 C 3.2059 -0.8996 1.1882 0
M  V30 15 C 4.0266 0.732 -0.9284 0
M  V30 16 C 4.5368 -0.4796 1.1027 0
M  V30 17 C 4.946 0.3391 0.0473 0
M  V30 18 H -3.6587 -1.7134 -1.4895 0
M  V30 19 H -4.4033 2.7266 0.5361 0
M  V30 20 H -2.2312 1.606 0.8706 0
M  V30 21 H -1.5358 -1.8742 -0.1734 0
M  V30 22 H 0.7373 -1.8698 0.7998 0
M  V30 23 H 2.0089 0.6004 -1.6325 0
M  V30 24 H 2.9014 -1.5358 2.0099 0
M  V30 25 H 4.3485 1.3527 -1.7546 0
M  V30 26 H 5.2514 -0.7908 1.8537 0
M  V30 27 H 5.977 0.6616 -0.019 0
M  V30 END ATOM
M  V30 BEGIN BOND
M  V30 1 1 1 2
M  V30 2 2 2 3
M  V30 3 1 2 4
M  V30 4 1 3 5
M  V30 5 2 4 6
M  V30 6 2 5 7
M  V30 7 1 6 8
M  V30 8 1 8 9
M  V30 9 2 9 10
M  V30 10 1 9 11
M  V30 11 1 11 12
M  V30 12 2 12 13
M  V30 13 1 12 14
M  V30 14 1 13 15
M  V30 15 2 14 16
M  V30 16 2 15 17
M  V30 17 1 6 7
M  V30 18 1 16 17
M  V30 19 1 4 18
M  V30 20 1 5 19
M  V30 21 1 7 20
M  V30 22 1 8 21
M  V30 23 1 11 22
M  V30 24 1 13 23
M  V30 25 1 14 24
M  V30 26 1 15 25
M  V30 27 1 16 26
M  V30 28 1 17 27
M  V30 END BOND
M  V30 END CTAB
M  END
>  <Structure No>
5353

>  <LogS>
-3.8028

>  <MMFF94 Energy>
-43.16

$$$$
Compound 5354
Actelion Java MolfileCreator 2.0

  0  0  0  0  0  0              0 V3000
M  V30 BEGIN CTAB
M  V30 COUNTS 22 23 0 0 0
M  V30 BEGIN ATOM
M  V30 1 Cl -0.2594 2.7701 0.5189 0
M  V30 2 C -1.2473 1.3354 0.2662 0
M  V30 3 C -0.6623 0.077 0.0236 0
M  V30 4 C -2.6414 1.458 0.3088 0
M  V30 5 C 0.8043 -0.0845 -0.0271 0
M  V30 6 C -1.4842 -1.0427 -0.173 0
M  V30 7 C -3.4542 0.3369 0.1118 0
M  V30 8 C 1.4931 0.0583 -1.2492 0
M  V30 9 C 1.5276 -0.3831 1.1459 0
M  V30 10 C -2.8747 -0.9123 -0.1289 0
M  V30 11 Cl -5.2001 0.4982 0.1667 0
M  V30 12 Cl 0.6407 0.4319 -2.7438 0
M  V30 13 C 2.8834 -0.0945 -1.2889 0
M  V30 14 Cl 0.7191 -0.5716 2.6988 0
M  V30 15 C 2.9176 -0.533 1.0899 0
M  V30 16 C 3.5929 -0.3891 -0.1233 0
M  V30 17 H -3.093 2.4244 0.4952 0
M  V30 18 H -1.0465 -2.0157 -0.3602 0
M  V30 19 H -3.5004 -1.7824 -0.2819 0
M  V30 20 H 3.4161 0.0153 -2.225 0
M  V30 21 H 3.4769 -0.7614 1.9884 0
M  V30 22 H 4.6682 -0.506 -0.1603 0
M  V30 END ATOM
M  V30 BEGIN BOND
M  V30 1 1 1 2
M  V30 2 2 2 3
M  V30 3 1 2 4
M  V30 4 1 3 5
M  V30 5 1 3 6
M  V30 6 2 4 7
M  V30 7 2 5 8
M  V30 8 1 5 9
M  V30 9 2 6 10
M  V30 10 1 7 11
M  V30 11 1 8 12
M  V30 12 1 8 13
M  V30 13 1 9 14
M  V30 14 2 9 15
M  V30 15 2 13 16
M  V30 16 1 7 10
M  V30 17 1 15 16
M  V30 18 1 4 17
M  V30 19 1 6 18
M  V30 20 1 10 19
M  V30 21 1 13 20
M  V30 22 1 15 21
M  V30 23 1 16 22
M  V30 END BOND
M  V30 END CTAB
M  END
>  <Structure No>
5354

>  <LogS>
-6.65

>  <MMFF94 Energy>
39.647

$$$$
Compound 5355
Actelion Java MolfileCreator 2.0

  0  0  0  0  0  0              0 V3000
M  V30 BEGIN CTAB
M  V30 COUNTS 22 23 0 0 0
M  V30 BEGIN ATOM
M  V30 1 Cl -0.7069 1.9449 -2.1218 0
M  V30 2 C -1.5166 0.7828 -1.0672 0
M  V30 3 C -2.9177 0.6555 -1.1099 0
M  V30 4 C -0.7672 -0.042 -0.2003 0
M  V30 5 Cl -3.8946 1.6567 -2.1769 0
M  V30 6 C -3.5608 -0.2834 -0.2967 0
M  V30 7 C 0.7044 0.0703 -0.1135 0
M  V30 8 C -1.4284 -0.9793 0.6085 0
M  V30 9 C -2.8189 -1.0998 0.5594 0
M  V30 10 C 1.5463 -0.9634 -0.5742 0
M  V30 11 C 1.2741 1.2214 0.4548 0
M  V30 12 Cl -3.6336 -2.2755 1.5751 0
M  V30 13 Cl 0.8943 -2.4171 -1.3236 0
M  V30 14 C 2.9359 -0.8314 -0.4637 0
M  V30 15 C 2.6616 1.3447 0.561 0
M  V30 16 C 3.4932 0.3191 0.103 0
M  V30 17 Cl 5.2351 0.4764 0.2367 0
M  V30 18 H -4.6389 -0.3798 -0.3317 0
M  V30 19 H -0.8612 -1.6126 1.2805 0
M  V30 20 H 0.6413 2.0217 0.8195 0
M  V30 21 H 3.5833 -1.6221 -0.8217 0
M  V30 22 H 3.089 2.2367 1.001 0
M  V30 END ATOM
M  V30 BEGIN BOND
M  V30 1 1 1 2
M  V30 2 2 2 3
M  V30 3 1 2 4
M  V30 4 1 3 5
M  V30 5 1 3 6
M  V30 6 1 4 7
M  V30 7 2 4 8
M  V30 8 2 6 9
M  V30 9 2 7 10
M  V30 10 1 7 11
M  V30 11 1 9 12
M  V30 12 1 10 13
M  V30 13 1 10 14
M  V30 14 2 11 15
M  V30 15 2 14 16
M  V30 16 1 16 17
M  V30 17 1 8 9
M  V30 18 1 15 16
M  V30 19 1 6 18
M  V30 20 1 8 19
M  V30 21 1 11 20
M  V30 22 1 14 21
M  V30 23 1 15 22
M  V30 END BOND
M  V30 END CTAB
M  END
>  <Structure No>
5355

>  <LogS>
-7.82

>  <MMFF94 Energy>
36.644

$$$$
Compound 5356
Actelion Java MolfileCreator 2.0

  0  0  0  0  0  0              0 V3000
M  V30 BEGIN CTAB
M  V30 COUNTS 22 23 0 0 0
M  V30 BEGIN ATOM
M  V30 1 Cl -0.6185 -2.7413 0.4418 0
M  V30 2 C -1.479 -1.2241 0.1615 0
M  V30 3 C -0.7665 -0.0196 -0.0365 0
M  V30 4 C -2.8859 -1.2115 0.1631 0
M  V30 5 C -1.4775 1.1839 -0.2289 0
M  V30 6 C 0.7117 -0.0174 -0.0431 0
M  V30 7 Cl -3.8143 -2.6855 0.4095 0
M  V30 8 C -3.5747 -0.0114 -0.0294 0
M  V30 9 Cl -0.6486 2.7119 -0.5133 0
M  V30 10 C -2.8751 1.1787 -0.2239 0
M  V30 11 C 1.4218 0.5808 1.0092 0
M  V30 12 C 1.4141 -0.6123 -1.1026 0
M  V30 13 C 2.8209 0.5835 1.0016 0
M  V30 14 C 2.8132 -0.6096 -1.1081 0
M  V30 15 Cl 3.7032 1.333 2.3193 0
M  V30 16 C 3.5157 -0.0116 -0.0564 0
M  V30 17 Cl 3.6859 -1.3552 -2.434 0
M  V30 18 H -4.6574 3.0E-4 -0.0288 0
M  V30 19 H -3.4228 2.1001 -0.3758 0
M  V30 20 H 0.8882 1.0406 1.8324 0
M  V30 21 H 0.8745 -1.0736 -1.9209 0
M  V30 22 H 4.5984 -0.0095 -0.0614 0
M  V30 END ATOM
M  V30 BEGIN BOND
M  V30 1 1 1 2
M  V30 2 2 2 3
M  V30 3 1 2 4
M  V30 4 1 3 5
M  V30 5 1 3 6
M  V30 6 1 4 7
M  V30 7 2 4 8
M  V30 8 1 5 9
M  V30 9 2 5 10
M  V30 10 2 6 11
M  V30 11 1 6 12
M  V30 12 1 11 13
M  V30 13 2 12 14
M  V30 14 1 13 15
M  V30 15 2 13 16
M  V30 16 1 14 17
M  V30 17 1 8 10
M  V30 18 1 14 16
M  V30 19 1 8 18
M  V30 20 1 10 19
M  V30 21 1 11 20
M  V30 22 1 12 21
M  V30 23 1 16 22
M  V30 END BOND
M  V30 END CTAB
M  END
>  <Structure No>
5356

>  <LogS>
-7.95

>  <MMFF94 Energy>
37.314

$$$$
Compound 5357
Actelion Java MolfileCreator 2.0

  0  0  0  0  0  0              0 V3000
M  V30 BEGIN CTAB
M  V30 COUNTS 22 23 0 0 0
M  V30 BEGIN ATOM
M  V30 1 Cl 0.2652 2.8315 0.2652 0
M  V30 2 C 1.2829 1.3871 0.2631 0
M  V30 3 C 0.7154 0.1093 0.0628 0
M  V30 4 C 2.6713 1.5154 0.4375 0
M  V30 5 C 1.5493 -1.0302 0.0386 0
M  V30 6 C -0.7445 -0.0344 -0.1206 0
M  V30 7 Cl 3.4212 3.0876 0.6865 0
M  V30 8 C 3.487 0.3826 0.4113 0
M  V30 9 Cl 0.8605 -2.6429 -0.1779 0
M  V30 10 C 2.936 -0.8847 0.2134 0
M  V30 11 C -1.6155 0.1581 0.9632 0
M  V30 12 C -1.2693 -0.3647 -1.3799 0
M  V30 13 Cl 4.012 -2.2768 0.1941 0
M  V30 14 C -2.9961 0.022 0.7881 0
M  V30 15 C -2.6504 -0.5008 -1.5521 0
M  V30 16 C -3.5147 -0.3075 -0.4688 0
M  V30 17 Cl -5.2469 -0.4783 -0.6866 0
M  V30 18 H 4.5565 0.4882 0.5459 0
M  V30 19 H -1.2242 0.4113 1.9411 0
M  V30 20 H -0.6091 -0.5142 -2.2256 0
M  V30 21 H -3.661 0.172 1.6293 0
M  V30 22 H -3.047 -0.7555 -2.5266 0
M  V30 END ATOM
M  V30 BEGIN BOND
M  V30 1 1 1 2
M  V30 2 2 2 3
M  V30 3 1 2 4
M  V30 4 1 3 5
M  V30 5 1 3 6
M  V30 6 1 4 7
M  V30 7 2 4 8
M  V30 8 1 5 9
M  V30 9 2 5 10
M  V30 10 2 6 11
M  V30 11 1 6 12
M  V30 12 1 10 13
M  V30 13 1 11 14
M  V30 14 2 12 15
M  V30 15 2 14 16
M  V30 16 1 16 17
M  V30 17 1 8 10
M  V30 18 1 15 16
M  V30 19 1 8 18
M  V30 20 1 11 19
M  V30 21 1 12 20
M  V30 22 1 14 21
M  V30 23 1 15 22
M  V30 END BOND
M  V30 END CTAB
M  END
>  <Structure No>
5357

>  <LogS>
-7.88

>  <MMFF94 Energy>
50.326

$$$$
Compound 5358
Actelion Java MolfileCreator 2.0

  0  0  0  0  0  0              0 V3000
M  V30 BEGIN CTAB
M  V30 COUNTS 22 23 0 0 0
M  V30 BEGIN ATOM
M  V30 1 Cl -5.3093 -0.1766 -0.1766 0
M  V30 2 C -3.5539 -0.1004 -0.1027 0
M  V30 3 C -2.8531 1.0164 -0.5828 0
M  V30 4 C -2.8525 -1.1743 0.4534 0
M  V30 5 Cl -3.6975 2.3903 -1.2844 0
M  V30 6 C -1.4567 1.0463 -0.5082 0
M  V30 7 C -1.4553 -1.1496 0.5303 0
M  V30 8 C -0.7439 -0.034 0.038 0
M  V30 9 Cl -0.6412 -2.5043 1.3076 0
M  V30 10 C 0.7341 0.0293 0.0857 0
M  V30 11 C 1.5112 -0.9622 -0.5361 0
M  V30 12 C 1.3738 1.1059 0.7227 0
M  V30 13 C 2.908 -0.8887 -0.5019 0
M  V30 14 C 2.7707 1.1776 0.7553 0
M  V30 15 Cl 3.8702 -2.1341 -1.2764 0
M  V30 16 C 3.5368 0.1795 0.145 0
M  V30 17 Cl 3.5611 2.5202 1.5612 0
M  V30 18 H -3.3966 -2.0288 0.8362 0
M  V30 19 H -0.9239 1.9094 -0.8894 0
M  V30 20 H 1.0325 -1.7844 -1.054 0
M  V30 21 H 0.7877 1.882 1.2001 0
M  V30 22 H 4.6178 0.236 0.1704 0
M  V30 END ATOM
M  V30 BEGIN BOND
M  V30 1 1 1 2
M  V30 2 2 2 3
M  V30 3 1 2 4
M  V30 4 1 3 5
M  V30 5 1 3 6
M  V30 6 2 4 7
M  V30 7 2 6 8
M  V30 8 1 7 9
M  V30 9 1 8 10
M  V30 10 2 10 11
M  V30 11 1 10 12
M  V30 12 1 11 13
M  V30 13 2 12 14
M  V30 14 1 13 15
M  V30 15 2 13 16
M  V30 16 1 14 17
M  V30 17 1 7 8
M  V30 18 1 14 16
M  V30 19 1 4 18
M  V30 20 1 6 19
M  V30 21 1 11 20
M  V30 22 1 12 21
M  V30 23 1 16 22
M  V30 END BOND
M  V30 END CTAB
M  END
>  <Structure No>
5358

>  <LogS>
-7.47

>  <MMFF94 Energy>
27.859

$$$$
Compound 5359
Actelion Java MolfileCreator 2.0

  0  0  0  0  0  0              0 V3000
M  V30 BEGIN CTAB
M  V30 COUNTS 22 23 0 0 0
M  V30 BEGIN ATOM
M  V30 1 Cl 0.722 0.4512 2.4382 0
M  V30 2 C 1.4874 0.0615 0.8943 0
M  V30 3 C 2.886 -0.0824 0.8199 0
M  V30 4 C 0.6997 -0.1094 -0.2635 0
M  V30 5 Cl 3.8798 0.1312 2.2619 0
M  V30 6 C 3.4913 -0.3981 -0.4079 0
M  V30 7 C 1.319 -0.4276 -1.4869 0
M  V30 8 C -0.7683 0.0427 -0.1961 0
M  V30 9 Cl 5.235 -0.5869 -0.5463 0
M  V30 10 C 2.7067 -0.5689 -1.5507 0
M  V30 11 Cl 0.3809 -0.6457 -2.9612 0
M  V30 12 C -1.3745 1.3097 -0.3105 0
M  V30 13 C -1.5693 -1.0952 -0.0169 0
M  V30 14 Cl -0.4144 2.7659 -0.5459 0
M  V30 15 C -2.7681 1.4223 -0.2419 0
M  V30 16 C -2.9611 -0.9742 0.0503 0
M  V30 17 C -3.5591 0.2845 -0.0618 0
M  V30 18 Cl -3.9558 -2.4012 0.2752 0
M  V30 19 H 3.1786 -0.8115 -2.4946 0
M  V30 20 H -1.1111 -2.073 0.071 0
M  V30 21 H -3.2402 2.3926 -0.3294 0
M  V30 22 H -4.636 0.3824 -0.0104 0
M  V30 END ATOM
M  V30 BEGIN BOND
M  V30 1 1 1 2
M  V30 2 2 2 3
M  V30 3 1 2 4
M  V30 4 1 3 5
M  V30 5 1 3 6
M  V30 6 2 4 7
M  V30 7 1 4 8
M  V30 8 1 6 9
M  V30 9 2 6 10
M  V30 10 1 7 11
M  V30 11 2 8 12
M  V30 12 1 8 13
M  V30 13 1 12 14
M  V30 14 1 12 15
M  V30 15 2 13 16
M  V30 16 2 15 17
M  V30 17 1 16 18
M  V30 18 1 7 10
M  V30 19 1 16 17
M  V30 20 1 10 19
M  V30 21 1 13 20
M  V30 22 1 15 21
M  V30 23 1 17 22
M  V30 END BOND
M  V30 BEGIN COLLECTION
M  V30 MDLV30/STEABS BONDS=(1 7)
M  V30 END COLLECTION
M  V30 END CTAB
M  END
>  <Structure No>
5359

>  <LogS>
-8.01

>  <MMFF94 Energy>
44.488

$$$$
Compound 5360
Actelion Java MolfileCreator 2.0

  0  0  0  0  0  0              0 V3000
M  V30 BEGIN CTAB
M  V30 COUNTS 22 23 0 0 0
M  V30 BEGIN ATOM
M  V30 1 Cl 3.8868 -2.5298 -0.0902 0
M  V30 2 C 2.898 -1.0704 -0.0043 0
M  V30 3 C 3.5129 0.1955 0.0353 0
M  V30 4 C 1.4941 -1.1717 0.0245 0
M  V30 5 Cl 5.2715 0.3316 -3.0E-4 0
M  V30 6 C 2.7216 1.3546 0.1037 0
M  V30 7 Cl 0.7169 -2.7571 -0.0247 0
M  V30 8 C 0.7097 -0.0044 0.093 0
M  V30 9 Cl 3.4475 2.9563 0.1552 0
M  V30 10 C 1.3296 1.2498 0.1323 0
M  V30 11 C -0.7654 -0.0759 0.125 0
M  V30 12 C -1.5038 -0.059 -1.076 0
M  V30 13 C -1.4464 -0.1603 1.3568 0
M  V30 14 Cl -0.7054 0.0451 -2.6417 0
M  V30 15 C -2.9009 -0.1282 -1.0376 0
M  V30 16 Cl -0.5749 -0.1851 2.8865 0
M  V30 17 C -2.8439 -0.2288 1.3788 0
M  V30 18 C -3.5683 -0.213 0.1856 0
M  V30 19 H 0.7264 2.1487 0.185 0
M  V30 20 H -3.4717 -0.1166 -1.9575 0
M  V30 21 H -3.3706 -0.2948 2.3224 0
M  V30 22 H -4.6491 -0.2664 0.2089 0
M  V30 END ATOM
M  V30 BEGIN BOND
M  V30 1 1 1 2
M  V30 2 2 2 3
M  V30 3 1 2 4
M  V30 4 1 3 5
M  V30 5 1 3 6
M  V30 6 1 4 7
M  V30 7 2 4 8
M  V30 8 1 6 9
M  V30 9 2 6 10
M  V30 10 1 8 11
M  V30 11 2 11 12
M  V30 12 1 11 13
M  V30 13 1 12 14
M  V30 14 1 12 15
M  V30 15 1 13 16
M  V30 16 2 13 17
M  V30 17 2 15 18
M  V30 18 1 8 10
M  V30 19 1 17 18
M  V30 20 1 10 19
M  V30 21 1 15 20
M  V30 22 1 17 21
M  V30 23 1 18 22
M  V30 END BOND
M  V30 END CTAB
M  END
>  <Structure No>
5360

>  <LogS>
-8.13

>  <MMFF94 Energy>
56.302

$$$$
Compound 5361
Actelion Java MolfileCreator 2.0

  0  0  0  0  0  0              0 V3000
M  V30 BEGIN CTAB
M  V30 COUNTS 22 23 0 0 0
M  V30 BEGIN ATOM
M  V30 1 Cl 5.2749 -0.094 -0.4702 0
M  V30 2 C 3.5162 -0.0504 -0.3223 0
M  V30 3 C 2.866 -0.9074 0.5826 0
M  V30 4 C 2.7669 0.8413 -1.1094 0
M  V30 5 Cl 3.8081 -2.0267 1.5703 0
M  V30 6 C 1.4659 -0.8739 0.7009 0
M  V30 7 Cl 3.5849 1.9169 -2.2453 0
M  V30 8 C 1.3668 0.8767 -0.9929 0
M  V30 9 Cl 0.6509 -1.9541 1.8382 0
M  V30 10 C 0.7139 0.0176 -0.0879 0
M  V30 11 Cl 0.4271 1.9977 -1.9853 0
M  V30 12 C -0.759 0.0516 0.0333 0
M  V30 13 C -1.5752 -0.7713 -0.7695 0
M  V30 14 C -1.3465 0.9196 0.9649 0
M  V30 15 Cl -0.8493 -1.8685 -1.9461 0
M  V30 16 C -2.9738 -0.713 -0.6274 0
M  V30 17 C -2.7358 0.9722 1.1004 0
M  V30 18 Cl -4.034 -1.7193 -1.6055 0
M  V30 19 C -3.5464 0.1577 0.3061 0
M  V30 20 Cl -3.4622 2.0609 2.2682 0
M  V30 21 H -0.7233 1.5538 1.5839 0
M  V30 22 H -4.623 0.2014 0.4141 0
M  V30 END ATOM
M  V30 BEGIN BOND
M  V30 1 1 1 2
M  V30 2 2 2 3
M  V30 3 1 2 4
M  V30 4 1 3 5
M  V30 5 1 3 6
M  V30 6 1 4 7
M  V30 7 2 4 8
M  V30 8 1 6 9
M  V30 9 2 6 10
M  V30 10 1 8 11
M  V30 11 1 10 12
M  V30 12 2 12 13
M  V30 13 1 12 14
M  V30 14 1 13 15
M  V30 15 1 13 16
M  V30 16 2 14 17
M  V30 17 1 16 18
M  V30 18 2 16 19
M  V30 19 1 17 20
M  V30 20 1 8 10
M  V30 21 1 17 19
M  V30 22 1 14 21
M  V30 23 1 19 22
M  V30 END BOND
M  V30 END CTAB
M  END
>  <Structure No>
5361

>  <LogS>
-9.42

>  <MMFF94 Energy>
55.976

$$$$
Compound 5362
Actelion Java MolfileCreator 2.0

  0  0  0  0  0  0              0 V3000
M  V30 BEGIN CTAB
M  V30 COUNTS 34 34 0 0 0
M  V30 BEGIN ATOM
M  V30 1 Cl -2.4015 3.8445 -1.0401 0
M  V30 2 C -1.7478 2.324 -0.472 0
M  V30 3 N -2.5811 1.356 -0.0166 0
M  V30 4 N -0.4083 2.1137 -0.4873 0
M  V30 5 C -2.0782 0.1724 0.4238 0
M  V30 6 C 0.1025 0.9338 -0.0464 0
M  V30 7 N -0.7358 -0.0329 0.4085 0
M  V30 8 N -2.9488 -0.8577 0.9101 0
M  V30 9 N 1.5154 0.7017 -0.0575 0
M  V30 10 C -4.4092 -0.718 0.9244 0
M  V30 11 C 2.4555 1.7127 -0.5389 0
M  V30 12 C -4.9697 -0.9145 -0.4873 0
M  V30 13 C -5.0303 -1.7314 1.8914 0
M  V30 14 C 3.8601 1.2076 -0.4504 0
M  V30 15 O 4.5445 1.4395 0.5833 0
M  V30 16 O 4.3828 0.4456 -1.5011 0
M  V30 17 C 5.6768 -0.1532 -1.4679 0
M  V30 18 C 5.6724 -1.3924 -0.5802 0
M  V30 19 H -2.5112 -1.7299 1.2866 0
M  V30 20 H 1.8688 -0.2194 0.2903 0
M  V30 21 H -4.6794 0.2996 1.2837 0
M  V30 22 H 2.2244 1.9598 -1.5973 0
M  V30 23 H 2.3519 2.6373 0.0696 0
M  V30 24 H -4.7039 -1.9221 -0.8731 0
M  V30 25 H -4.5561 -0.1493 -1.1769 0
M  V30 26 H -6.0757 -0.8101 -0.4795 0
M  V30 27 H -6.1322 -1.5957 1.9348 0
M  V30 28 H -4.8072 -2.7707 1.5668 0
M  V30 29 H -4.6194 -1.5789 2.9122 0
M  V30 30 H 5.9529 -0.4551 -2.5001 0
M  V30 31 H 6.4335 0.5775 -1.1081 0
M  V30 32 H 5.4422 -1.1163 0.4699 0
M  V30 33 H 6.671 -1.8769 -0.6107 0
M  V30 34 H 4.9103 -2.1147 -0.9421 0
M  V30 END ATOM
M  V30 BEGIN BOND
M  V30 1 1 1 2
M  V30 2 2 2 3
M  V30 3 1 2 4
M  V30 4 1 3 5
M  V30 5 2 4 6
M  V30 6 2 5 7
M  V30 7 1 5 8
M  V30 8 1 6 9
M  V30 9 1 8 10
M  V30 10 1 9 11
M  V30 11 1 10 12
M  V30 12 1 10 13
M  V30 13 1 11 14
M  V30 14 2 14 15
M  V30 15 1 14 16
M  V30 16 1 16 17
M  V30 17 1 17 18
M  V30 18 1 6 7
M  V30 19 1 8 19
M  V30 20 1 9 20
M  V30 21 1 10 21
M  V30 22 1 11 22
M  V30 23 1 11 23
M  V30 24 1 12 24
M  V30 25 1 12 25
M  V30 26 1 12 26
M  V30 27 1 13 27
M  V30 28 1 13 28
M  V30 29 1 13 29
M  V30 30 1 17 30
M  V30 31 1 17 31
M  V30 32 1 18 32
M  V30 33 1 18 33
M  V30 34 1 18 34
M  V30 END BOND
M  V30 END CTAB
M  END
>  <Structure No>
5362

>  <LogS>
-2.5622

>  <MMFF94 Energy>
-211.06

$$$$
Compound 5363
Actelion Java MolfileCreator 2.0

  0  0  0  0  0  0              0 V3000
M  V30 BEGIN CTAB
M  V30 COUNTS 38 39 0 0 0
M  V30 BEGIN ATOM
M  V30 1 O -5.9846 0.0785 -1.6508 0
M  V30 2 C -4.834 -0.0272 -0.8554 0
M  V30 3 C -7.3138 -0.085 -1.1672 0
M  V30 4 C -3.5866 0.1565 -1.4621 0
M  V30 5 C -4.8913 -0.3141 0.5216 0
M  V30 6 C -2.4106 0.0631 -0.7126 0
M  V30 7 C -3.7149 -0.4079 1.2713 0
M  V30 8 C -2.467 -0.2025 0.6667 0
M  V30 9 N -1.2705 -0.3311 1.4544 0
M  V30 10 C -0.0291 0.3275 1.1542 0
M  V30 11 N -0.0247 1.5373 0.6745 0 CHG=1
M  V30 12 N 1.2016 -0.3078 1.5365 0
M  V30 13 C 2.445 -0.1561 0.83 0
M  V30 14 C 3.6538 -0.3383 1.5161 0
M  V30 15 C 2.4752 0.1093 -0.5502 0
M  V30 16 C 4.8754 -0.2219 0.846 0
M  V30 17 C 3.6964 0.2252 -1.2201 0
M  V30 18 C 4.9041 0.0647 -0.5317 0
M  V30 19 O 6.1027 0.1926 -1.2492 0
M  V30 20 C 7.3997 0.0538 -0.6783 0
M  V30 21 H -7.5327 0.6748 -0.3873 0
M  V30 22 H -7.4466 -1.1068 -0.7534 0
M  V30 23 H -8.0248 0.0532 -2.0072 0
M  V30 24 H -3.5284 0.3658 -2.5228 0
M  V30 25 H -5.838 -0.4684 1.0211 0
M  V30 26 H -1.459 0.1826 -1.214 0
M  V30 27 H -3.7759 -0.6322 2.329 0
M  V30 28 H -1.2913 -0.9737 2.2782 0
M  V30 29 H 0.8668 2.0615 0.5334 0
M  V30 30 H -0.9146 2.0448 0.4742 0
M  V30 31 H 1.1797 -0.9504 2.3603 0
M  V30 32 H 3.6487 -0.5623 2.5757 0
M  V30 33 H 1.5568 0.2112 -1.1136 0
M  V30 34 H 5.7895 -0.3587 1.4073 0
M  V30 35 H 3.7046 0.4342 -2.2824 0
M  V30 36 H 7.5238 -0.9656 -0.256 0
M  V30 37 H 7.5519 0.8171 0.1137 0
M  V30 38 H 8.1621 0.2058 -1.4694 0
M  V30 END ATOM
M  V30 BEGIN BOND
M  V30 1 1 1 2
M  V30 2 1 1 3
M  V30 3 2 2 4
M  V30 4 1 2 5
M  V30 5 1 4 6
M  V30 6 2 5 7
M  V30 7 2 6 8
M  V30 8 1 8 9
M  V30 9 1 9 10
M  V30 10 2 10 11
M  V30 11 1 10 12
M  V30 12 1 12 13
M  V30 13 2 13 14
M  V30 14 1 13 15
M  V30 15 1 14 16
M  V30 16 2 15 17
M  V30 17 2 16 18
M  V30 18 1 18 19
M  V30 19 1 19 20
M  V30 20 1 7 8
M  V30 21 1 17 18
M  V30 22 1 3 21
M  V30 23 1 3 22
M  V30 24 1 3 23
M  V30 25 1 4 24
M  V30 26 1 5 25
M  V30 27 1 6 26
M  V30 28 1 7 27
M  V30 29 1 9 28
M  V30 30 1 11 29
M  V30 31 1 11 30
M  V30 32 1 12 31
M  V30 33 1 14 32
M  V30 34 1 15 33
M  V30 35 1 16 34
M  V30 36 1 17 35
M  V30 37 1 20 36
M  V30 38 1 20 37
M  V30 39 1 20 38
M  V30 END BOND
M  V30 END CTAB
M  END
>  <Structure No>
5363

>  <LogS>
-2.7345

>  <MMFF94 Energy>
-117.7

$$$$
Compound 5364
Actelion Java MolfileCreator 2.0

  0  0  0  0  0  0              0 V3000
M  V30 BEGIN CTAB
M  V30 COUNTS 33 34 0 0 0
M  V30 BEGIN ATOM
M  V30 1 S 3.2721 0.572 -0.4903 0
M  V30 2 O 4.7183 0.9495 -0.3358 0
M  V30 3 O 3.1894 -0.7586 -1.1838 0
M  V30 4 O 2.5634 0.4654 1.0652 0
M  V30 5 C 2.4511 1.8199 -1.4724 0
M  V30 6 C 1.2344 0.1013 1.3224 0
M  V30 7 C 2.3486 3.1311 -0.7046 0
M  V30 8 C 0.3652 -0.3794 0.3157 0
M  V30 9 C 0.7589 0.2217 2.6455 0
M  V30 10 C -0.9491 -0.7081 0.6621 0
M  V30 11 C -0.5648 -0.1176 2.9657 0
M  V30 12 C -1.3932 -0.578 1.9467 0
M  V30 13 C -2.0537 -1.2237 -0.2101 0
M  V30 14 O -2.7125 -0.953 2.0704 0
M  V30 15 C -3.2332 -1.37 0.809 0
M  V30 16 C -2.3901 -0.2058 -1.3134 0
M  V30 17 C -1.6709 -2.5822 -0.8214 0
M  V30 18 H 1.4334 1.4744 -1.7471 0
M  V30 19 H 3.0295 1.982 -2.4064 0
M  V30 20 H 1.742 2.9921 0.2153 0
M  V30 21 H 1.8567 3.8966 -1.3409 0
M  V30 22 H 3.3604 3.4954 -0.427 0
M  V30 23 H 0.6879 -0.507 -0.7054 0
M  V30 24 H 1.418 0.5851 3.4238 0
M  V30 25 H -0.933 -0.0222 3.9789 0
M  V30 26 H -4.1005 -0.7272 0.5435 0
M  V30 27 H -3.5897 -2.4196 0.8919 0
M  V30 28 H -1.528 -0.0758 -2.0024 0
M  V30 29 H -2.637 0.7836 -0.8707 0
M  V30 30 H -3.2635 -0.5553 -1.9046 0
M  V30 31 H -0.8039 -2.4726 -1.5077 0
M  V30 32 H -2.5252 -2.9979 -1.3977 0
M  V30 33 H -1.3976 -3.3069 -0.0238 0
M  V30 END ATOM
M  V30 BEGIN BOND
M  V30 1 2 1 2
M  V30 2 2 1 3
M  V30 3 1 1 4
M  V30 4 1 1 5
M  V30 5 1 4 6
M  V30 6 1 5 7
M  V30 7 2 6 8
M  V30 8 1 6 9
M  V30 9 1 8 10
M  V30 10 2 9 11
M  V30 11 2 10 12
M  V30 12 1 10 13
M  V30 13 1 12 14
M  V30 14 1 13 15
M  V30 15 1 13 16
M  V30 16 1 13 17
M  V30 17 1 11 12
M  V30 18 1 14 15
M  V30 19 1 5 18
M  V30 20 1 5 19
M  V30 21 1 7 20
M  V30 22 1 7 21
M  V30 23 1 7 22
M  V30 24 1 8 23
M  V30 25 1 9 24
M  V30 26 1 11 25
M  V30 27 1 15 26
M  V30 28 1 15 27
M  V30 29 1 16 28
M  V30 30 1 16 29
M  V30 31 1 16 30
M  V30 32 1 17 31
M  V30 33 1 17 32
M  V30 34 1 17 33
M  V30 END BOND
M  V30 END CTAB
M  END
>  <Structure No>
5364

>  <LogS>
-2.9921

>  <MMFF94 Energy>
38.622

$$$$
Compound 5365
Actelion Java MolfileCreator 2.0

  0  0  0  0  0  0              0 V3000
M  V30 BEGIN CTAB
M  V30 COUNTS 27 27 0 0 0
M  V30 BEGIN ATOM
M  V30 1 O -1.3529 0.4773 -2.7072 0
M  V30 2 C -1.2131 0.1782 -1.4889 0
M  V30 3 O -0.0424 -0.4513 -1.053 0
M  V30 4 C -2.2843 0.4934 -0.5185 0
M  V30 5 C 1.0265 -0.7821 -1.9317 0
M  V30 6 C -3.4669 1.1335 -0.9353 0
M  V30 7 C -2.1342 0.1558 0.8391 0
M  V30 8 C 2.1296 -1.417 -1.148 0
M  V30 9 C -4.4745 1.4289 -0.0118 0
M  V30 10 C -3.1452 0.4538 1.7581 0
M  V30 11 O 2.3112 -2.6616 -1.2331 0
M  V30 12 N 2.9449 -0.6113 -0.2824 0
M  V30 13 C -4.3138 1.0898 1.3334 0
M  V30 14 C 4.0236 -1.125 0.514 0
M  V30 15 O 4.3149 -2.3512 0.4946 0
M  V30 16 C 4.8217 -0.1938 1.3678 0
M  V30 17 H 0.6644 -1.4809 -2.717 0
M  V30 18 H 1.409 0.1387 -2.4224 0
M  V30 19 H -3.6133 1.4063 -1.9728 0
M  V30 20 H -1.2375 -0.3377 1.1919 0
M  V30 21 H -5.3806 1.9218 -0.3397 0
M  V30 22 H -3.0222 0.1909 2.8009 0
M  V30 23 H 2.7431 0.413 -0.2314 0
M  V30 24 H -5.0946 1.3201 2.0466 0
M  V30 25 H 5.5747 -0.7543 1.9619 0
M  V30 26 H 4.1457 0.3467 2.0632 0
M  V30 27 H 5.346 0.5411 0.722 0
M  V30 END ATOM
M  V30 BEGIN BOND
M  V30 1 2 1 2
M  V30 2 1 2 3
M  V30 3 1 2 4
M  V30 4 1 3 5
M  V30 5 2 4 6
M  V30 6 1 4 7
M  V30 7 1 5 8
M  V30 8 1 6 9
M  V30 9 2 7 10
M  V30 10 2 8 11
M  V30 11 1 8 12
M  V30 12 2 9 13
M  V30 13 1 12 14
M  V30 14 2 14 15
M  V30 15 1 14 16
M  V30 16 1 10 13
M  V30 17 1 5 17
M  V30 18 1 5 18
M  V30 19 1 6 19
M  V30 20 1 7 20
M  V30 21 1 9 21
M  V30 22 1 10 22
M  V30 23 1 12 23
M  V30 24 1 13 24
M  V30 25 1 16 25
M  V30 26 1 16 26
M  V30 27 1 16 27
M  V30 END BOND
M  V30 END CTAB
M  END
>  <Structure No>
5365

>  <LogS>
-2.4003

>  <MMFF94 Energy>
8.4013

$$$$
Compound 5366
Actelion Java MolfileCreator 2.0

  0  0  0  0  0  0              0 V3000
M  V30 BEGIN CTAB
M  V30 COUNTS 23 24 0 0 0
M  V30 BEGIN ATOM
M  V30 1 Cl 2.3688 2.1994 -2.1148 0
M  V30 2 C 2.3959 0.9349 -0.8956 0
M  V30 3 C 1.2127 0.2734 -0.5299 0
M  V30 4 C 3.6089 0.5989 -0.2836 0
M  V30 5 O 0.0111 0.6259 -1.1646 0
M  V30 6 C 1.2664 -0.744 0.4426 0
M  V30 7 C 3.6513 -0.4034 0.6901 0
M  V30 8 C -1.2655 0.3131 -0.6822 0
M  V30 9 C 2.48 -1.0754 1.0505 0
M  V30 10 Cl 5.1737 -0.8214 1.4543 0
M  V30 11 C -1.7018 0.734 0.5916 0
M  V30 12 C -2.1374 -0.4089 -1.5062 0
M  V30 13 Cl -0.6941 1.7444 1.6192 0
M  V30 14 C -2.9862 0.3934 1.0339 0
M  V30 15 C -3.4175 -0.7453 -1.0574 0
M  V30 16 C -3.8395 -0.3492 0.2136 0
M  V30 17 H 4.5176 1.1163 -0.5649 0
M  V30 18 H 0.3742 -1.2866 0.7257 0
M  V30 19 H 2.5094 -1.8571 1.7988 0
M  V30 20 H -1.8159 -0.7212 -2.4915 0
M  V30 21 H -3.3287 0.7145 2.0095 0
M  V30 22 H -4.0825 -1.3128 -1.6954 0
M  V30 23 H -4.8318 -0.6084 0.5593 0
M  V30 END ATOM
M  V30 BEGIN BOND
M  V30 1 1 1 2
M  V30 2 2 2 3
M  V30 3 1 2 4
M  V30 4 1 3 5
M  V30 5 1 3 6
M  V30 6 2 4 7
M  V30 7 1 5 8
M  V30 8 2 6 9
M  V30 9 1 7 10
M  V30 10 2 8 11
M  V30 11 1 8 12
M  V30 12 1 11 13
M  V30 13 1 11 14
M  V30 14 2 12 15
M  V30 15 2 14 16
M  V30 16 1 7 9
M  V30 17 1 15 16
M  V30 18 1 4 17
M  V30 19 1 6 18
M  V30 20 1 9 19
M  V30 21 1 12 20
M  V30 22 1 14 21
M  V30 23 1 15 22
M  V30 24 1 16 23
M  V30 END BOND
M  V30 END CTAB
M  END
>  <Structure No>
5366

>  <LogS>
-4.9499

>  <MMFF94 Energy>
50.603

$$$$
Compound 5367
Actelion Java MolfileCreator 2.0

  0  0  0  0  0  0              0 V3000
M  V30 BEGIN CTAB
M  V30 COUNTS 44 45 0 0 0
M  V30 BEGIN ATOM
M  V30 1 S -0.4823 -1.6888 1.3669 0
M  V30 2 C -1.0559 -0.06 0.8854 0
M  V30 3 C 0.6032 -1.741 -0.0847 0
M  V30 4 N -2.2842 0.176 0.5086 0
M  V30 5 N -0.0801 0.9937 0.816 0
M  V30 6 N 1.6215 -0.6877 0.0082 0
M  V30 7 C -3.4549 -0.713 0.4335 0
M  V30 8 C 1.2795 0.6498 0.4471 0
M  V30 9 C -0.498 2.3911 1.0729 0
M  V30 10 C 2.9367 -0.9586 -0.5091 0
M  V30 11 C -3.8127 -1.2756 1.8237 0
M  V30 12 C -4.6333 0.1439 -0.0598 0
M  V30 13 C -3.2237 -1.8504 -0.5818 0
M  V30 14 O 2.1877 1.5224 0.5162 0
M  V30 15 C 0.2227 2.9801 2.2923 0
M  V30 16 C -0.3168 3.263 -0.1745 0
M  V30 17 C 3.7245 -1.9724 0.0592 0
M  V30 18 C 3.441 -0.2197 -1.5926 0
M  V30 19 C 5.0006 -2.2397 -0.4464 0
M  V30 20 C 4.7173 -0.4899 -2.0957 0
M  V30 21 C 5.4967 -1.4989 -1.5229 0
M  V30 22 H 1.0736 -2.7462 -0.1211 0
M  V30 23 H 0.0114 -1.6088 -1.0164 0
M  V30 24 H -1.5821 2.4195 1.3232 0
M  V30 25 H -3.0608 -2.0055 2.1804 0
M  V30 26 H -3.8826 -0.4519 2.5665 0
M  V30 27 H -4.7905 -1.8033 1.7902 0
M  V30 28 H -4.8219 0.9851 0.6424 0
M  V30 29 H -4.4074 0.5745 -1.0596 0
M  V30 30 H -5.5629 -0.4605 -0.14 0
M  V30 31 H -4.1722 -2.3952 -0.7791 0
M  V30 32 H -2.4947 -2.5958 -0.2104 0
M  V30 33 H -2.848 -1.4382 -1.543 0
M  V30 34 H 0.1546 2.2751 3.1481 0
M  V30 35 H 1.2903 3.1907 2.0811 0
M  V30 36 H -0.2606 3.9355 2.5891 0
M  V30 37 H 0.7551 3.3918 -0.4288 0
M  V30 38 H -0.8369 2.7958 -1.0376 0
M  V30 39 H -0.7588 4.2676 -0.0016 0
M  V30 40 H 3.3524 -2.5464 0.8988 0
M  V30 41 H 2.8412 0.5574 -2.0495 0
M  V30 42 H 5.6052 -3.0201 -0.0027 0
M  V30 43 H 5.1012 0.0812 -2.9311 0
M  V30 44 H 6.4844 -1.7071 -1.9134 0
M  V30 END ATOM
M  V30 BEGIN BOND
M  V30 1 1 1 2
M  V30 2 1 1 3
M  V30 3 2 2 4
M  V30 4 1 2 5
M  V30 5 1 3 6
M  V30 6 1 4 7
M  V30 7 1 5 8
M  V30 8 1 5 9
M  V30 9 1 6 10
M  V30 10 1 7 11
M  V30 11 1 7 12
M  V30 12 1 7 13
M  V30 13 2 8 14
M  V30 14 1 9 15
M  V30 15 1 9 16
M  V30 16 2 10 17
M  V30 17 1 10 18
M  V30 18 1 17 19
M  V30 19 2 18 20
M  V30 20 2 19 21
M  V30 21 1 6 8
M  V30 22 1 20 21
M  V30 23 1 3 22
M  V30 24 1 3 23
M  V30 25 1 9 24
M  V30 26 1 11 25
M  V30 27 1 11 26
M  V30 28 1 11 27
M  V30 29 1 12 28
M  V30 30 1 12 29
M  V30 31 1 12 30
M  V30 32 1 13 31
M  V30 33 1 13 32
M  V30 34 1 13 33
M  V30 35 1 15 34
M  V30 36 1 15 35
M  V30 37 1 15 36
M  V30 38 1 16 37
M  V30 39 1 16 38
M  V30 40 1 16 39
M  V30 41 1 17 40
M  V30 42 1 18 41
M  V30 43 1 19 42
M  V30 44 1 20 43
M  V30 45 1 21 44
M  V30 END BOND
M  V30 END CTAB
M  END
>  <Structure No>
5367

>  <LogS>
-5.5307

>  <MMFF94 Energy>
-70.598

$$$$
Compound 5368
Actelion Java MolfileCreator 2.0

  0  0  0  0  0  0              0 V3000
M  V30 BEGIN CTAB
M  V30 COUNTS 19 19 0 0 0
M  V30 BEGIN ATOM
M  V30 1 Cl -2.7324 2.9888 0.4265 0
M  V30 2 C -1.6444 1.6271 0.1726 0
M  V30 3 C -0.339 1.881 -0.2605 0
M  V30 4 C -2.053 0.2955 0.3934 0
M  V30 5 F 0.0765 3.153 -0.4798 0
M  V30 6 N 0.5239 0.8549 -0.4655 0
M  V30 7 N -3.3883 0.0071 0.8383 0
M  V30 8 C -1.1302 -0.7487 0.1707 0
M  V30 9 C 0.1671 -0.4419 -0.2623 0
M  V30 10 Cl -1.5663 -2.4376 0.426 0
M  V30 11 O 1.0869 -1.4748 -0.4849 0
M  V30 12 C 2.4362 -1.2551 -0.8894 0
M  V30 13 C 3.235 -0.6968 0.2447 0
M  V30 14 O 3.6758 0.4813 0.1923 0
M  V30 15 O 3.4763 -1.473 1.3708 0 CHG=-1
M  V30 16 H -3.7128 -0.9693 1.0078 0
M  V30 17 H -4.0858 0.7635 1.009 0
M  V30 18 H 2.8799 -2.2265 -1.1905 0
M  V30 19 H 2.4677 -0.5771 -1.7703 0
M  V30 END ATOM
M  V30 BEGIN BOND
M  V30 1 1 1 2
M  V30 2 2 2 3
M  V30 3 1 2 4
M  V30 4 1 3 5
M  V30 5 1 3 6
M  V30 6 1 4 7
M  V30 7 2 4 8
M  V30 8 2 6 9
M  V30 9 1 8 10
M  V30 10 1 9 11
M  V30 11 1 11 12
M  V30 12 1 12 13
M  V30 13 2 13 14
M  V30 14 1 13 15
M  V30 15 1 8 9
M  V30 16 1 7 16
M  V30 17 1 7 17
M  V30 18 1 12 18
M  V30 19 1 12 19
M  V30 END BOND
M  V30 END CTAB
M  END
>  <Structure No>
5368

>  <LogS>
-3.4475

>  <MMFF94 Energy>
109.44

$$$$
Compound 5369
Actelion Java MolfileCreator 2.0

  0  0  0  0  0  0              0 V3000
M  V30 BEGIN CTAB
M  V30 COUNTS 57 59 0 0 0
M  V30 BEGIN ATOM
M  V30 1 Cl -4.9735 2.6067 -0.6512 0
M  V30 2 C -4.4301 0.9745 -1.0285 0
M  V30 3 C -3.4669 0.3229 -0.2331 0
M  V30 4 C -5.015 0.3089 -2.1149 0
M  V30 5 N -2.8981 0.9935 0.9093 0
M  V30 6 C -3.0765 -0.9851 -0.573 0
M  V30 7 C -4.6217 -0.9981 -2.4544 0
M  V30 8 C -2.4951 0.2954 2.1349 0 CFG=1
M  V30 9 C -3.6549 -1.6416 -1.6643 0
M  V30 10 C -5.2879 -1.7405 -3.5868 0
M  V30 11 C -0.9974 0.1903 2.1522 0
M  V30 12 C -3.0265 1.0501 3.3827 0
M  V30 13 F -4.3683 -2.529 -4.2532 0
M  V30 14 F -6.2867 -2.5482 -3.0747 0
M  V30 15 F -5.845 -0.8607 -4.4988 0
M  V30 16 O -0.4508 -0.9404 2.2648 0
M  V30 17 O -0.2227 1.3557 2.0391 0
M  V30 18 C -4.5591 1.1578 3.3433 0
M  V30 19 C -2.5928 0.3628 4.6877 0
M  V30 20 C 1.2097 1.3796 2.0292 0 CFG=1
M  V30 21 C 1.7209 0.831 3.3012 0
M  V30 22 C 1.7905 0.6658 0.8143 0
M  V30 23 N 2.1213 0.3978 4.2982 0
M  V30 24 C 3.1451 0.2746 0.7963 0
M  V30 25 C 1.0264 0.4945 -0.3586 0
M  V30 26 C 3.7094 -0.3245 -0.3362 0
M  V30 27 C 1.5796 -0.125 -1.4834 0
M  V30 28 O 5.0512 -0.7302 -0.2799 0
M  V30 29 C 2.9115 -0.5444 -1.4715 0
M  V30 30 C 5.9587 -0.7259 -1.3509 0
M  V30 31 C 5.8388 0.166 -2.4342 0
M  V30 32 C 7.0528 -1.5989 -1.3005 0
M  V30 33 C 6.7953 0.1627 -3.4568 0
M  V30 34 C 8.0068 -1.5995 -2.324 0
M  V30 35 C 7.8776 -0.7201 -3.4025 0
M  V30 36 H -5.7809 0.8152 -2.6883 0
M  V30 37 H -2.761 2.03 0.8669 0
M  V30 38 H -2.3182 -1.4997 0.0047 0
M  V30 39 H -2.9313 -0.7292 2.1467 0
M  V30 40 H -3.349 -2.6565 -1.8909 0
M  V30 41 H -2.6133 2.0841 3.3867 0
M  V30 42 H -4.9323 1.6909 4.2454 0
M  V30 43 H -4.8849 1.7374 2.4533 0
M  V30 44 H -5.0213 0.1469 3.3078 0
M  V30 45 H -3.0433 0.876 5.5655 0
M  V30 46 H -1.4898 0.4133 4.8014 0
M  V30 47 H -2.9067 -0.7047 4.6948 0
M  V30 48 H 1.5283 2.4421 1.9761 0
M  V30 49 H 3.7767 0.443 1.6606 0
M  V30 50 H -0.0011 0.8334 -0.4095 0
M  V30 51 H 0.9744 -0.2785 -2.3682 0
M  V30 52 H 3.3173 -1.0448 -2.342 0
M  V30 53 H 5.025 0.879 -2.4804 0
M  V30 54 H 7.1639 -2.2757 -0.4627 0
M  V30 55 H 6.7029 0.8555 -4.2839 0
M  V30 56 H 8.8528 -2.2744 -2.2734 0
M  V30 57 H 8.6242 -0.712 -4.1889 0
M  V30 END ATOM
M  V30 BEGIN BOND
M  V30 1 1 1 2
M  V30 2 2 2 3
M  V30 3 1 2 4
M  V30 4 1 3 5
M  V30 5 1 3 6
M  V30 6 2 4 7
M  V30 7 1 5 8
M  V30 8 2 6 9
M  V30 9 1 7 10
M  V30 10 1 8 11
M  V30 11 1 8 12
M  V30 12 1 10 13
M  V30 13 1 10 14
M  V30 14 1 10 15
M  V30 15 2 11 16
M  V30 16 1 11 17
M  V30 17 1 12 18
M  V30 18 1 12 19
M  V30 19 1 17 20
M  V30 20 1 20 21
M  V30 21 1 20 22
M  V30 22 3 21 23
M  V30 23 2 22 24
M  V30 24 1 22 25
M  V30 25 1 24 26
M  V30 26 2 25 27
M  V30 27 1 26 28
M  V30 28 2 26 29
M  V30 29 1 28 30
M  V30 30 2 30 31
M  V30 31 1 30 32
M  V30 32 1 31 33
M  V30 33 2 32 34
M  V30 34 2 33 35
M  V30 35 1 7 9
M  V30 36 1 27 29
M  V30 37 1 34 35
M  V30 38 1 4 36
M  V30 39 1 5 37
M  V30 40 1 6 38
M  V30 41 1 8 39
M  V30 42 1 9 40
M  V30 43 1 12 41
M  V30 44 1 18 42
M  V30 45 1 18 43
M  V30 46 1 18 44
M  V30 47 1 19 45
M  V30 48 1 19 46
M  V30 49 1 19 47
M  V30 50 1 20 48
M  V30 51 1 24 49
M  V30 52 1 25 50
M  V30 53 1 27 51
M  V30 54 1 29 52
M  V30 55 1 31 53
M  V30 56 1 32 54
M  V30 57 1 33 55
M  V30 58 1 34 56
M  V30 59 1 35 57
M  V30 END BOND
M  V30 BEGIN COLLECTION
M  V30 MDLV30/STEABS ATOMS=(2 8 20)
M  V30 END COLLECTION
M  V30 END CTAB
M  END
>  <Structure No>
5369

>  <LogS>
-8.0025

>  <MMFF94 Energy>
155.47

$$$$
Compound 5370
Actelion Java MolfileCreator 2.0

  0  0  0  0  0  0              0 V3000
M  V30 BEGIN CTAB
M  V30 COUNTS 33 35 0 0 0
M  V30 BEGIN ATOM
M  V30 1 Cl 3.4475 -3.0366 2.1331 0
M  V30 2 C 2.6887 -2.1836 0.8015 0
M  V30 3 C 1.7385 -1.189 1.0584 0
M  V30 4 C 3.0332 -2.4969 -0.5175 0
M  V30 5 C 1.1249 -0.5048 -0.0034 0
M  V30 6 C 2.4296 -1.8165 -1.5787 0
M  V30 7 N 0.1388 0.5111 0.2602 0
M  V30 8 C 1.4794 -0.823 -1.3245 0
M  V30 9 C -1.0428 0.1832 1.032 0
M  V30 10 C 0.3472 1.8569 -0.3121 0 CFG=2
M  V30 11 O -1.7378 1.0976 1.5519 0
M  V30 12 C -1.4616 -1.2452 1.2471 0
M  V30 13 C 0.3335 2.9073 0.7287 0
M  V30 14 C -0.8047 2.2813 -1.2432 0
M  V30 15 C -2.903 -1.5497 0.8641 0
M  V30 16 C -1.7677 -2.0158 -0.0289 0
M  V30 17 O 1.1467 2.9647 1.688 0
M  V30 18 O -0.6609 3.8383 0.5351 0
M  V30 19 C -1.4368 3.5384 -0.6119 0
M  V30 20 H 1.4794 -0.9444 2.0811 0
M  V30 21 H 3.7675 -3.2659 -0.7209 0
M  V30 22 H 2.6959 -2.0611 -2.5988 0
M  V30 23 H 1.0092 -0.3102 -2.1542 0
M  V30 24 H 1.3164 1.9174 -0.8564 0
M  V30 25 H -1.0493 -1.8351 2.0927 0
M  V30 26 H -1.5652 1.4783 -1.3595 0
M  V30 27 H -0.4044 2.5261 -2.2514 0
M  V30 28 H -3.3745 -2.366 1.4511 0
M  V30 29 H -3.4896 -0.7085 0.4351 0
M  V30 30 H -1.6796 -1.4447 -0.9787 0
M  V30 31 H -1.5593 -3.1046 0.0332 0
M  V30 32 H -1.4094 4.3952 -1.3185 0
M  V30 33 H -2.4864 3.3377 -0.3074 0
M  V30 END ATOM
M  V30 BEGIN BOND
M  V30 1 1 1 2
M  V30 2 2 2 3
M  V30 3 1 2 4
M  V30 4 1 3 5
M  V30 5 2 4 6
M  V30 6 1 5 7
M  V30 7 2 5 8
M  V30 8 1 7 9
M  V30 9 1 7 10
M  V30 10 2 9 11
M  V30 11 1 9 12
M  V30 12 1 10 13
M  V30 13 1 10 14
M  V30 14 1 12 15
M  V30 15 1 12 16
M  V30 16 2 13 17
M  V30 17 1 13 18
M  V30 18 1 14 19
M  V30 19 1 6 8
M  V30 20 1 15 16
M  V30 21 1 18 19
M  V30 22 1 3 20
M  V30 23 1 4 21
M  V30 24 1 6 22
M  V30 25 1 8 23
M  V30 26 1 10 24
M  V30 27 1 12 25
M  V30 28 1 14 26
M  V30 29 1 14 27
M  V30 30 1 15 28
M  V30 31 1 15 29
M  V30 32 1 16 30
M  V30 33 1 16 31
M  V30 34 1 19 32
M  V30 35 1 19 33
M  V30 END BOND
M  V30 BEGIN COLLECTION
M  V30 MDLV30/STEABS ATOMS=(1 10)
M  V30 END COLLECTION
M  V30 END CTAB
M  END
>  <Structure No>
5370

>  <LogS>
-2.6878

>  <MMFF94 Energy>
41.642

$$$$
Compound 5371
Actelion Java MolfileCreator 2.0

  0  0  0  0  0  0              0 V3000
M  V30 BEGIN CTAB
M  V30 COUNTS 23 22 0 0 0
M  V30 BEGIN ATOM
M  V30 1 O 2.2848 1.7132 -1.3867 0
M  V30 2 C 2.3879 0.9317 -0.4028 0
M  V30 3 O 3.6189 0.8164 0.2358 0 CHG=-1
M  V30 4 C 1.2209 0.0478 0.0056 0
M  V30 5 C 1.3772 -0.2998 1.4752 0
M  V30 6 C -0.1218 0.8216 -0.2348 0
M  V30 7 C 1.3061 -1.2134 -0.8862 0
M  V30 8 O 1.407 -1.4985 1.864 0
M  V30 9 O 1.4721 0.7178 2.4184 0 CHG=-1
M  V30 10 C -1.3781 0.3719 0.5633 0 CFG=1
M  V30 11 C -2.5034 1.3347 0.2909 0
M  V30 12 C -1.8415 -1.0518 0.2342 0
M  V30 13 O -2.9308 2.0853 1.2074 0
M  V30 14 O -3.0667 1.4146 -0.9774 0 CHG=-1
M  V30 15 H 0.0482 1.8888 0.0381 0
M  V30 16 H -0.3599 0.8208 -1.3222 0
M  V30 17 H 1.1624 -0.9481 -1.956 0
M  V30 18 H 2.3044 -1.6931 -0.7846 0
M  V30 19 H 0.5524 -1.9753 -0.6188 0
M  V30 20 H -1.157 0.415 1.6521 0
M  V30 21 H -2.8691 -1.2249 0.6215 0
M  V30 22 H -1.1888 -1.7929 0.7373 0
M  V30 23 H -1.8432 -1.2262 -0.8629 0
M  V30 END ATOM
M  V30 BEGIN BOND
M  V30 1 2 1 2
M  V30 2 1 2 3
M  V30 3 1 2 4
M  V30 4 1 4 5
M  V30 5 1 4 6
M  V30 6 1 4 7
M  V30 7 2 5 8
M  V30 8 1 5 9
M  V30 9 1 6 10
M  V30 10 1 10 11
M  V30 11 1 10 12
M  V30 12 2 11 13
M  V30 13 1 11 14
M  V30 14 1 6 15
M  V30 15 1 6 16
M  V30 16 1 7 17
M  V30 17 1 7 18
M  V30 18 1 7 19
M  V30 19 1 10 20
M  V30 20 1 12 21
M  V30 21 1 12 22
M  V30 22 1 12 23
M  V30 END BOND
M  V30 BEGIN COLLECTION
M  V30 MDLV30/STEABS ATOMS=(1 10)
M  V30 END COLLECTION
M  V30 END CTAB
M  END
>  <Structure No>
5371

>  <LogS>
-0.1086

>  <MMFF94 Energy>
179.7

$$$$
Compound 5372
Actelion Java MolfileCreator 2.0

  0  0  0  0  0  0              0 V3000
M  V30 BEGIN CTAB
M  V30 COUNTS 11 11 0 0 0
M  V30 BEGIN ATOM
M  V30 1 Cl 0.3518 2.5527 -0.0879 0
M  V30 2 C -0.1836 0.8808 -0.0315 0
M  V30 3 C 0.5915 -0.2636 0.0562 0
M  V30 4 C -1.4886 0.4426 -0.0667 0
M  V30 5 O -0.1883 -1.323 0.073 0
M  V30 6 C 2.0576 -0.3398 0.1228 0
M  V30 7 Cl -2.9333 1.4295 -0.1757 0
M  V30 8 C -1.4416 -0.933 6.0E-4 0
M  V30 9 O 2.6215 -1.4622 0.2005 0
M  V30 10 O 2.8328 0.8124 0.1015 0 CHG=-1
M  V30 11 H -2.2919 -1.6017 -0.004 0
M  V30 END ATOM
M  V30 BEGIN BOND
M  V30 1 1 1 2
M  V30 2 2 2 3
M  V30 3 1 2 4
M  V30 4 1 3 5
M  V30 5 1 3 6
M  V30 6 1 4 7
M  V30 7 2 4 8
M  V30 8 2 6 9
M  V30 9 1 6 10
M  V30 10 1 5 8
M  V30 11 1 8 11
M  V30 END BOND
M  V30 END CTAB
M  END
>  <Structure No>
5372

>  <LogS>
-1.8263

>  <MMFF94 Energy>
31.348

$$$$
Compound 5373
Actelion Java MolfileCreator 2.0

  0  0  0  0  0  0              0 V3000
M  V30 BEGIN CTAB
M  V30 COUNTS 22 23 0 0 0
M  V30 BEGIN ATOM
M  V30 1 Cl -5.262 -0.0921 0.3686 0
M  V30 2 C -3.5009 -0.0761 0.2454 0
M  V30 3 C -2.7263 0.4025 1.3158 0
M  V30 4 C -2.8745 -0.5422 -0.9229 0
M  V30 5 Cl -3.5162 0.9842 2.7841 0
M  V30 6 C -1.324 0.4155 1.2201 0
M  V30 7 Cl -3.8506 -1.1397 -2.2674 0
M  V30 8 C -1.4725 -0.5296 -1.0233 0
M  V30 9 Cl -0.3575 0.9898 2.5848 0
M  V30 10 C -0.6926 -0.0506 0.0491 0
M  V30 11 Cl -0.6954 -1.0882 -2.51 0
M  V30 12 C 0.782 -0.0373 -0.0541 0
M  V30 13 C 1.4677 1.1771 -0.2107 0
M  V30 14 C 1.5046 -1.239 0.0041 0
M  V30 15 C 2.8633 1.189 -0.3078 0
M  V30 16 C 2.9 -1.2254 -0.0941 0
M  V30 17 Cl 3.7157 2.7094 -0.5027 0
M  V30 18 C 3.5787 -0.0118 -0.2497 0
M  V30 19 Cl 3.7985 -2.73 -0.0217 0
M  V30 20 H 0.9174 2.1093 -0.2583 0
M  V30 21 H 0.9832 -2.1807 0.1269 0
M  V30 22 H 4.6587 -0.0021 -0.3253 0
M  V30 END ATOM
M  V30 BEGIN BOND
M  V30 1 1 1 2
M  V30 2 2 2 3
M  V30 3 1 2 4
M  V30 4 1 3 5
M  V30 5 1 3 6
M  V30 6 1 4 7
M  V30 7 2 4 8
M  V30 8 1 6 9
M  V30 9 2 6 10
M  V30 10 1 8 11
M  V30 11 1 10 12
M  V30 12 2 12 13
M  V30 13 1 12 14
M  V30 14 1 13 15
M  V30 15 2 14 16
M  V30 16 1 15 17
M  V30 17 2 15 18
M  V30 18 1 16 19
M  V30 19 1 8 10
M  V30 20 1 16 18
M  V30 21 1 13 20
M  V30 22 1 14 21
M  V30 23 1 18 22
M  V30 END BOND
M  V30 END CTAB
M  END
>  <Structure No>
5373

>  <LogS>
-9.1

>  <MMFF94 Energy>
44.779

$$$$
Compound 5374
Actelion Java MolfileCreator 2.0

  0  0  0  0  0  0              0 V3000
M  V30 BEGIN CTAB
M  V30 COUNTS 38 39 0 0 0
M  V30 BEGIN ATOM
M  V30 1 Cl 4.682 -3.2839 -1.5588 0
M  V30 2 C 4.5775 -1.6561 -0.9065 0
M  V30 3 C 3.3577 -1.1447 -0.4476 0
M  V30 4 C 5.7209 -0.8545 -0.8538 0
M  V30 5 O 2.2133 -1.9538 -0.4768 0
M  V30 6 N 3.3069 0.121 0.053 0
M  V30 7 C 5.6522 0.4414 -0.3192 0
M  V30 8 C 0.8925 -1.4939 -0.3707 0
M  V30 9 C 4.4057 0.9181 0.1164 0
M  V30 10 C 6.8674 1.3334 -0.3033 0
M  V30 11 C -0.0631 -2.3335 0.2102 0
M  V30 12 C 0.4928 -0.2411 -0.8685 0
M  V30 13 F 6.9402 2.0246 -1.4981 0
M  V30 14 F 6.7939 2.241 0.7391 0
M  V30 15 F 8.0203 0.584 -0.1444 0
M  V30 16 C -1.3927 -1.9194 0.328 0
M  V30 17 C -0.8376 0.1736 -0.7524 0
M  V30 18 C -1.7926 -0.6636 -0.1433 0
M  V30 19 O -3.1424 -0.3022 0.0034 0
M  V30 20 C -3.7082 0.9704 -0.3179 0 CFG=1
M  V30 21 C -5.1999 0.8366 -0.361 0
M  V30 22 C -3.3198 2.009 0.7373 0
M  V30 23 O -5.8555 1.4196 -1.2677 0
M  V30 24 O -5.8563 0.0986 0.629 0
M  V30 25 C -7.2702 -0.0525 0.6609 0
M  V30 26 H 6.6592 -1.2436 -1.2295 0
M  V30 27 H 4.3038 1.9224 0.5065 0
M  V30 28 H 0.2279 -3.3083 0.5808 0
M  V30 29 H 1.1979 0.4048 -1.3736 0
M  V30 30 H -2.1177 -2.578 0.7893 0
M  V30 31 H -1.1085 1.1407 -1.1505 0
M  V30 32 H -3.359 1.2998 -1.3207 0
M  V30 33 H -3.7796 2.9913 0.4954 0
M  V30 34 H -2.2192 2.1406 0.7687 0
M  V30 35 H -3.6638 1.6857 1.7434 0
M  V30 36 H -7.6201 -0.5521 -0.2672 0
M  V30 37 H -7.7568 0.9411 0.7588 0
M  V30 38 H -7.5505 -0.6777 1.5333 0
M  V30 END ATOM
M  V30 BEGIN BOND
M  V30 1 1 1 2
M  V30 2 2 2 3
M  V30 3 1 2 4
M  V30 4 1 3 5
M  V30 5 1 3 6
M  V30 6 2 4 7
M  V30 7 1 5 8
M  V30 8 2 6 9
M  V30 9 1 7 10
M  V30 10 2 8 11
M  V30 11 1 8 12
M  V30 12 1 10 13
M  V30 13 1 10 14
M  V30 14 1 10 15
M  V30 15 1 11 16
M  V30 16 2 12 17
M  V30 17 2 16 18
M  V30 18 1 18 19
M  V30 19 1 19 20
M  V30 20 1 20 21
M  V30 21 1 20 22
M  V30 22 2 21 23
M  V30 23 1 21 24
M  V30 24 1 24 25
M  V30 25 1 7 9
M  V30 26 1 17 18
M  V30 27 1 4 26
M  V30 28 1 9 27
M  V30 29 1 11 28
M  V30 30 1 12 29
M  V30 31 1 16 30
M  V30 32 1 17 31
M  V30 33 1 20 32
M  V30 34 1 22 33
M  V30 35 1 22 34
M  V30 36 1 22 35
M  V30 37 1 25 36
M  V30 38 1 25 37
M  V30 39 1 25 38
M  V30 END BOND
M  V30 BEGIN COLLECTION
M  V30 MDLV30/STEABS ATOMS=(1 20)
M  V30 END COLLECTION
M  V30 END CTAB
M  END
>  <Structure No>
5374

>  <LogS>
-4.6064

>  <MMFF94 Energy>
84.894

$$$$
Compound 5375
Actelion Java MolfileCreator 2.0

  0  0  0  0  0  0              0 V3000
M  V30 BEGIN CTAB
M  V30 COUNTS 47 48 0 0 0
M  V30 BEGIN ATOM
M  V30 1 F -9.2803 0.7239 0.1608 0
M  V30 2 C -8.9706 -0.5529 -0.2743 0
M  V30 3 F -9.5211 -1.4591 0.6152 0
M  V30 4 F -9.5288 -0.7513 -1.5231 0
M  V30 5 C -7.4771 -0.7358 -0.3631 0
M  V30 6 C -6.8991 -2.0059 -0.2095 0
M  V30 7 C -6.642 0.3395 -0.7017 0
M  V30 8 N -5.5555 -2.1685 -0.3376 0
M  V30 9 C -5.2657 0.1473 -0.8278 0
M  V30 10 C -4.724 -1.1311 -0.6212 0
M  V30 11 O -3.3512 -1.3837 -0.7513 0
M  V30 12 C -2.325 -0.4696 -0.4688 0
M  V30 13 C -2.4517 0.505 0.536 0
M  V30 14 C -1.1242 -0.5667 -1.1793 0
M  V30 15 C -1.3994 1.3866 0.7984 0
M  V30 16 C -0.0712 0.315 -0.9181 0
M  V30 17 C -0.2033 1.3031 0.0769 0
M  V30 18 O 0.8207 2.2148 0.3821 0
M  V30 19 C 2.1152 2.2374 -0.2231 0 CFG=2
M  V30 20 C 2.9192 1.046 0.2088 0
M  V30 21 C 2.8338 3.5208 0.182 0
M  V30 22 O 2.9025 0.6796 1.4161 0
M  V30 23 O 3.7009 0.369 -0.7336 0
M  V30 24 C 4.5442 -0.7334 -0.4071 0
M  V30 25 C 5.8308 -0.2413 0.2677 0
M  V30 26 C 6.731 -1.3945 0.7356 0
M  V30 27 C 7.3841 -2.1431 -0.4255 0
M  V30 28 H -7.514 -2.8692 0.0085 0
M  V30 29 H -7.0543 1.3253 -0.8771 0
M  V30 30 H -4.6356 0.981 -1.1084 0
M  V30 31 H -3.354 0.5719 1.1295 0
M  V30 32 H -1.0098 -1.3244 -1.944 0
M  V30 33 H -1.5106 2.1343 1.5735 0
M  V30 34 H 0.8374 0.2164 -1.4944 0
M  V30 35 H 2.0093 2.2417 -1.3301 0
M  V30 36 H 3.8391 3.5645 -0.2892 0
M  V30 37 H 2.2474 4.4012 -0.1563 0
M  V30 38 H 2.9467 3.5723 1.2864 0
M  V30 39 H 4.7987 -1.2585 -1.3506 0
M  V30 40 H 4.0008 -1.4473 0.25 0
M  V30 41 H 6.3896 0.4189 -0.4307 0
M  V30 42 H 5.5616 0.3669 1.1577 0
M  V30 43 H 6.147 -2.1072 1.3576 0
M  V30 44 H 7.5368 -0.9731 1.3749 0
M  V30 45 H 6.6228 -2.6911 -1.018 0
M  V30 46 H 7.9301 -1.4363 -1.0859 0
M  V30 47 H 8.1084 -2.8835 -0.0256 0
M  V30 END ATOM
M  V30 BEGIN BOND
M  V30 1 1 1 2
M  V30 2 1 2 3
M  V30 3 1 2 4
M  V30 4 1 2 5
M  V30 5 2 5 6
M  V30 6 1 5 7
M  V30 7 1 6 8
M  V30 8 2 7 9
M  V30 9 2 8 10
M  V30 10 1 10 11
M  V30 11 1 11 12
M  V30 12 2 12 13
M  V30 13 1 12 14
M  V30 14 1 13 15
M  V30 15 2 14 16
M  V30 16 2 15 17
M  V30 17 1 17 18
M  V30 18 1 18 19
M  V30 19 1 19 20
M  V30 20 1 19 21
M  V30 21 2 20 22
M  V30 22 1 20 23
M  V30 23 1 23 24
M  V30 24 1 24 25
M  V30 25 1 25 26
M  V30 26 1 26 27
M  V30 27 1 9 10
M  V30 28 1 16 17
M  V30 29 1 6 28
M  V30 30 1 7 29
M  V30 31 1 9 30
M  V30 32 1 13 31
M  V30 33 1 14 32
M  V30 34 1 15 33
M  V30 35 1 16 34
M  V30 36 1 19 35
M  V30 37 1 21 36
M  V30 38 1 21 37
M  V30 39 1 21 38
M  V30 40 1 24 39
M  V30 41 1 24 40
M  V30 42 1 25 41
M  V30 43 1 25 42
M  V30 44 1 26 43
M  V30 45 1 26 44
M  V30 46 1 27 45
M  V30 47 1 27 46
M  V30 48 1 27 47
M  V30 END BOND
M  V30 BEGIN COLLECTION
M  V30 MDLV30/STEABS ATOMS=(1 19)
M  V30 END COLLECTION
M  V30 END CTAB
M  END
>  <Structure No>
5375

>  <LogS>
-5.5836

>  <MMFF94 Energy>
66.956

$$$$
Compound 5376
Actelion Java MolfileCreator 2.0

  0  0  0  0  0  0              0 V3000
M  V30 BEGIN CTAB
M  V30 COUNTS 41 42 0 0 0
M  V30 BEGIN ATOM
M  V30 1 O 3.8325 -1.6753 -1.1964 0
M  V30 2 C 2.7131 -1.1478 -0.9598 0
M  V30 3 N 1.4896 -1.8509 -1.0134 0
M  V30 4 C 2.4808 0.2822 -0.5884 0 CFG=1
M  V30 5 C 0.5166 -0.8671 -0.6779 0
M  V30 6 N 1.021 0.3076 -0.446 0
M  V30 7 C 3.1945 0.6728 0.7484 0
M  V30 8 C 2.8959 1.1867 -1.7616 0
M  V30 9 C -0.9476 -1.1209 -0.7229 0
M  V30 10 C 2.7839 2.0736 1.2373 0
M  V30 11 C 2.9596 -0.3504 1.8768 0
M  V30 12 C -1.8878 -0.366 0.0328 0
M  V30 13 C -1.4256 -2.0856 -1.6288 0
M  V30 14 C -1.4899 0.6044 1.0732 0
M  V30 15 C -3.2633 -0.5709 -0.1732 0
M  V30 16 C -2.7941 -2.2921 -1.8027 0
M  V30 17 O -0.5472 0.333 1.8649 0
M  V30 18 O -2.2034 1.7992 1.2114 0
M  V30 19 C -3.7204 -1.542 -1.0722 0
M  V30 20 C -1.8756 2.7775 2.1906 0
M  V30 21 C -5.1918 -1.7305 -1.2977 0
M  V30 22 H 1.3514 -2.8692 -1.1957 0
M  V30 23 H 4.2912 0.6965 0.5603 0
M  V30 24 H 2.4626 0.8129 -2.7149 0
M  V30 25 H 4.002 1.2108 -1.8632 0
M  V30 26 H 2.5231 2.2213 -1.6148 0
M  V30 27 H 1.6862 2.1329 1.396 0
M  V30 28 H 3.0892 2.8523 0.5094 0
M  V30 29 H 3.2909 2.3108 2.1969 0
M  V30 30 H 3.3864 -1.3389 1.6081 0
M  V30 31 H 1.8781 -0.4724 2.085 0
M  V30 32 H 3.4641 -0.0196 2.8098 0
M  V30 33 H -0.7414 -2.6586 -2.2408 0
M  V30 34 H -3.9855 0.0087 0.3909 0
M  V30 35 H -3.1313 -3.029 -2.5213 0
M  V30 36 H -2.576 3.6329 2.1002 0
M  V30 37 H -0.8387 3.1423 2.0307 0
M  V30 38 H -1.9677 2.3426 3.2083 0
M  V30 39 H -5.4116 -2.7732 -1.6113 0
M  V30 40 H -5.76 -1.5268 -0.3649 0
M  V30 41 H -5.5358 -1.0341 -2.0907 0
M  V30 END ATOM
M  V30 BEGIN BOND
M  V30 1 2 1 2
M  V30 2 1 2 3
M  V30 3 1 2 4
M  V30 4 1 3 5
M  V30 5 1 4 6
M  V30 6 1 4 7
M  V30 7 1 4 8
M  V30 8 1 5 9
M  V30 9 1 7 10
M  V30 10 1 7 11
M  V30 11 2 9 12
M  V30 12 1 9 13
M  V30 13 1 12 14
M  V30 14 1 12 15
M  V30 15 2 13 16
M  V30 16 2 14 17
M  V30 17 1 14 18
M  V30 18 2 15 19
M  V30 19 1 18 20
M  V30 20 1 19 21
M  V30 21 2 5 6
M  V30 22 1 16 19
M  V30 23 1 3 22
M  V30 24 1 7 23
M  V30 25 1 8 24
M  V30 26 1 8 25
M  V30 27 1 8 26
M  V30 28 1 10 27
M  V30 29 1 10 28
M  V30 30 1 10 29
M  V30 31 1 11 30
M  V30 32 1 11 31
M  V30 33 1 11 32
M  V30 34 1 13 33
M  V30 35 1 15 34
M  V30 36 1 16 35
M  V30 37 1 20 36
M  V30 38 1 20 37
M  V30 39 1 20 38
M  V30 40 1 21 39
M  V30 41 1 21 40
M  V30 42 1 21 41
M  V30 END BOND
M  V30 BEGIN COLLECTION
M  V30 MDLV30/STEABS ATOMS=(1 4)
M  V30 END COLLECTION
M  V30 END CTAB
M  END
>  <Structure No>
5376

>  <LogS>
-2.3262

>  <MMFF94 Energy>
39.289

$$$$
Compound 5377
Actelion Java MolfileCreator 2.0

  0  0  0  0  0  0              0 V3000
M  V30 BEGIN CTAB
M  V30 COUNTS 56 58 0 0 0
M  V30 BEGIN ATOM
M  V30 1 F 9.2089 -1.208 0.161 0
M  V30 2 C 8.1605 -0.4855 -0.3749 0
M  V30 3 F 8.3342 -0.3902 -1.7434 0
M  V30 4 O 6.937 -1.1549 -0.0843 0
M  V30 5 C 5.6613 -0.6653 -0.4047 0
M  V30 6 C 4.5483 -1.4346 -0.0522 0
M  V30 7 C 5.4635 0.5655 -1.0567 0
M  V30 8 C 3.2552 -0.9934 -0.345 0
M  V30 9 C 4.171 1.0068 -1.3545 0
M  V30 10 C 3.0504 0.2286 -1.0164 0
M  V30 11 C 1.6572 0.7599 -1.3188 0 CFG=1
M  V30 12 C 0.6921 -0.3438 -1.6882 0
M  V30 13 C 1.1375 1.7195 -0.2027 0
M  V30 14 O 0.5298 -0.6473 -2.9019 0
M  V30 15 O 0.0068 -1.0407 -0.6893 0
M  V30 16 C -0.2443 2.2992 -0.5474 0
M  V30 17 C 1.1216 1.1124 1.2126 0
M  V30 18 C -1.0121 -2.0011 -0.945 0 CFG=1
M  V30 19 C -0.4165 -3.2651 -1.4075 0
M  V30 20 C -1.8069 -2.1902 0.3238 0
M  V30 21 N 0.0535 -4.2581 -1.7711 0
M  V30 22 C -3.0044 -1.4761 0.4986 0
M  V30 23 C -1.2999 -2.9445 1.3995 0
M  V30 24 C -3.6938 -1.52 1.7234 0
M  V30 25 C -2.0106 -3.0288 2.5992 0
M  V30 26 O -4.8746 -0.7922 1.9294 0
M  V30 27 C -3.2074 -2.3259 2.7571 0
M  V30 28 C -5.1484 0.4696 1.3782 0
M  V30 29 C -4.1259 1.3961 1.0923 0
M  V30 30 C -6.4823 0.8295 1.1476 0
M  V30 31 C -4.44 2.6462 0.551 0
M  V30 32 C -6.7935 2.0818 0.608 0
M  V30 33 C -5.7729 2.9881 0.3055 0
M  V30 34 H 8.1588 0.5279 0.0781 0
M  V30 35 H 4.6859 -2.3786 0.4595 0
M  V30 36 H 6.2997 1.1918 -1.3341 0
M  V30 37 H 2.4199 -1.6059 -0.0356 0
M  V30 38 H 4.0441 1.9627 -1.8481 0
M  V30 39 H 1.748 1.389 -2.2344 0
M  V30 40 H 1.8417 2.5814 -0.1669 0
M  V30 41 H -0.5165 3.0947 0.1795 0
M  V30 42 H -1.0278 1.5113 -0.5138 0
M  V30 43 H -0.2314 2.7513 -1.5622 0
M  V30 44 H 0.3896 0.2859 1.3024 0
M  V30 45 H 0.8382 1.8938 1.95 0
M  V30 46 H 2.1279 0.7446 1.4984 0
M  V30 47 H -1.6806 -1.6264 -1.7515 0
M  V30 48 H -3.394 -0.8757 -0.3137 0
M  V30 49 H -0.3532 -3.4625 1.3124 0
M  V30 50 H -1.6224 -3.6237 3.4162 0
M  V30 51 H -3.742 -2.3826 3.6968 0
M  V30 52 H -3.0908 1.161 1.303 0
M  V30 53 H -7.2784 0.1337 1.3804 0
M  V30 54 H -3.65 3.3527 0.3297 0
M  V30 55 H -7.8258 2.3497 0.4245 0
M  V30 56 H -6.0148 3.9569 -0.1113 0
M  V30 END ATOM
M  V30 BEGIN BOND
M  V30 1 1 1 2
M  V30 2 1 2 3
M  V30 3 1 2 4
M  V30 4 1 4 5
M  V30 5 2 5 6
M  V30 6 1 5 7
M  V30 7 1 6 8
M  V30 8 2 7 9
M  V30 9 2 8 10
M  V30 10 1 10 11
M  V30 11 1 11 12
M  V30 12 1 11 13
M  V30 13 2 12 14
M  V30 14 1 12 15
M  V30 15 1 13 16
M  V30 16 1 13 17
M  V30 17 1 15 18
M  V30 18 1 18 19
M  V30 19 1 18 20
M  V30 20 3 19 21
M  V30 21 2 20 22
M  V30 22 1 20 23
M  V30 23 1 22 24
M  V30 24 2 23 25
M  V30 25 1 24 26
M  V30 26 2 24 27
M  V30 27 1 26 28
M  V30 28 2 28 29
M  V30 29 1 28 30
M  V30 30 1 29 31
M  V30 31 2 30 32
M  V30 32 2 31 33
M  V30 33 1 9 10
M  V30 34 1 25 27
M  V30 35 1 32 33
M  V30 36 1 2 34
M  V30 37 1 6 35
M  V30 38 1 7 36
M  V30 39 1 8 37
M  V30 40 1 9 38
M  V30 41 1 11 39
M  V30 42 1 13 40
M  V30 43 1 16 41
M  V30 44 1 16 42
M  V30 45 1 16 43
M  V30 46 1 17 44
M  V30 47 1 17 45
M  V30 48 1 17 46
M  V30 49 1 18 47
M  V30 50 1 22 48
M  V30 51 1 23 49
M  V30 52 1 25 50
M  V30 53 1 27 51
M  V30 54 1 29 52
M  V30 55 1 30 53
M  V30 56 1 31 54
M  V30 57 1 32 55
M  V30 58 1 33 56
M  V30 END BOND
M  V30 BEGIN COLLECTION
M  V30 MDLV30/STEABS ATOMS=(2 11 18)
M  V30 END COLLECTION
M  V30 END CTAB
M  END
>  <Structure No>
5377

>  <LogS>
-6.8765

>  <MMFF94 Energy>
96.709

$$$$
Compound 5378
Actelion Java MolfileCreator 2.0

  0  0  0  0  0  0              0 V3000
M  V30 BEGIN CTAB
M  V30 COUNTS 38 38 0 0 0
M  V30 BEGIN ATOM
M  V30 1 O 4.3352 1.1021 -1.6535 0
M  V30 2 C 3.7353 0.8081 -0.5826 0
M  V30 3 O 2.3667 1.0653 -0.4529 0
M  V30 4 C 4.4757 0.1904 0.5384 0
M  V30 5 C 1.5871 1.6416 -1.4964 0
M  V30 6 C 3.8137 -0.1529 1.7297 0
M  V30 7 C 5.8532 -0.0689 0.4411 0
M  V30 8 C 0.1347 1.7903 -1.0435 0
M  V30 9 N 4.5003 -0.7215 2.7568 0
M  V30 10 C 6.5334 -0.6535 1.5109 0
M  V30 11 C -0.5172 0.4273 -0.7748 0
M  V30 12 C 5.8323 -0.9762 2.6731 0
M  V30 13 C -1.9786 0.5925 -0.3409 0
M  V30 14 C -2.632 -0.7729 -0.0799 0
M  V30 15 C -4.0567 -0.6497 0.4831 0
M  V30 16 C -5.0646 -0.15 -0.5622 0
M  V30 17 C -6.4861 -0.1688 -0.0073 0
M  V30 18 H 1.6369 1.0016 -2.4044 0
M  V30 19 H 1.9915 2.6464 -1.7469 0
M  V30 20 H 2.7532 0.0284 1.8465 0
M  V30 21 H 6.4032 0.1791 -0.4578 0
M  V30 22 H 0.1033 2.4113 -0.1214 0
M  V30 23 H -0.4324 2.3208 -1.8394 0
M  V30 24 H 7.5945 -0.8546 1.4397 0
M  V30 25 H -0.4759 -0.1891 -1.6997 0
M  V30 26 H 0.0451 -0.1001 0.0268 0
M  V30 27 H 6.3472 -1.4296 3.5096 0
M  V30 28 H -2.0184 1.2053 0.5864 0
M  V30 29 H -2.5327 1.1251 -1.1429 0
M  V30 30 H -2.6479 -1.3709 -1.0174 0
M  V30 31 H -2.0179 -1.328 0.6627 0
M  V30 32 H -4.0566 0.029 1.3642 0
M  V30 33 H -4.3739 -1.6563 0.8342 0
M  V30 34 H -5.0239 -0.7971 -1.4652 0
M  V30 35 H -4.8202 0.8909 -0.8614 0
M  V30 36 H -7.1915 0.2058 -0.7789 0
M  V30 37 H -6.5592 0.4846 0.8881 0
M  V30 38 H -6.7798 -1.204 0.2685 0
M  V30 END ATOM
M  V30 BEGIN BOND
M  V30 1 2 1 2
M  V30 2 1 2 3
M  V30 3 1 2 4
M  V30 4 1 3 5
M  V30 5 2 4 6
M  V30 6 1 4 7
M  V30 7 1 5 8
M  V30 8 1 6 9
M  V30 9 2 7 10
M  V30 10 1 8 11
M  V30 11 2 9 12
M  V30 12 1 11 13
M  V30 13 1 13 14
M  V30 14 1 14 15
M  V30 15 1 15 16
M  V30 16 1 16 17
M  V30 17 1 10 12
M  V30 18 1 5 18
M  V30 19 1 5 19
M  V30 20 1 6 20
M  V30 21 1 7 21
M  V30 22 1 8 22
M  V30 23 1 8 23
M  V30 24 1 10 24
M  V30 25 1 11 25
M  V30 26 1 11 26
M  V30 27 1 12 27
M  V30 28 1 13 28
M  V30 29 1 13 29
M  V30 30 1 14 30
M  V30 31 1 14 31
M  V30 32 1 15 32
M  V30 33 1 15 33
M  V30 34 1 16 34
M  V30 35 1 16 35
M  V30 36 1 17 36
M  V30 37 1 17 37
M  V30 38 1 17 38
M  V30 END BOND
M  V30 END CTAB
M  END
>  <Structure No>
5378

>  <LogS>
-3.0929

>  <MMFF94 Energy>
23.413

$$$$
Compound 5379
Actelion Java MolfileCreator 2.0

  0  0  0  0  0  0              0 V3000
M  V30 BEGIN CTAB
M  V30 COUNTS 22 23 0 0 0
M  V30 BEGIN ATOM
M  V30 1 Cl -5.1996 0.4325 0.346 0
M  V30 2 C -3.4469 0.3049 0.2808 0
M  V30 3 C -2.6235 1.3444 0.7433 0
M  V30 4 C -2.8714 -0.8597 -0.2378 0
M  V30 5 Cl -3.3069 2.8222 1.4081 0
M  V30 6 C -1.2324 1.2113 0.6778 0
M  V30 7 C -1.4804 -0.9959 -0.3048 0
M  V30 8 C -0.6516 0.0497 0.1477 0
M  V30 9 Cl -0.8077 -2.4981 -0.93 0
M  V30 10 C 0.8198 -0.0578 0.0897 0
M  V30 11 C 1.515 0.0494 -1.1329 0
M  V30 12 C 1.5398 -0.2547 1.2788 0
M  V30 13 Cl 0.6704 0.3506 -2.6482 0
M  V30 14 C 2.911 -0.0589 -1.151 0
M  V30 15 C 2.9329 -0.3616 1.2504 0
M  V30 16 C 3.6173 -0.2663 0.0368 0
M  V30 17 H -3.5076 -1.6642 -0.5854 0
M  V30 18 H -0.6013 2.0172 1.034 0
M  V30 19 H 1.0204 -0.3322 2.2266 0
M  V30 20 H 3.4509 0.0231 -2.0858 0
M  V30 21 H 3.482 -0.5184 2.1699 0
M  V30 22 H 4.6964 -0.3485 0.0168 0
M  V30 END ATOM
M  V30 BEGIN BOND
M  V30 1 1 1 2
M  V30 2 2 2 3
M  V30 3 1 2 4
M  V30 4 1 3 5
M  V30 5 1 3 6
M  V30 6 2 4 7
M  V30 7 2 6 8
M  V30 8 1 7 9
M  V30 9 1 8 10
M  V30 10 2 10 11
M  V30 11 1 10 12
M  V30 12 1 11 13
M  V30 13 1 11 14
M  V30 14 2 12 15
M  V30 15 2 14 16
M  V30 16 1 7 8
M  V30 17 1 15 16
M  V30 18 1 4 17
M  V30 19 1 6 18
M  V30 20 1 12 19
M  V30 21 1 14 20
M  V30 22 1 15 21
M  V30 23 1 16 22
M  V30 END BOND
M  V30 END CTAB
M  END
>  <Structure No>
5379

>  <LogS>
-7.2505

>  <MMFF94 Energy>
47.278

$$$$
Compound 5380
Actelion Java MolfileCreator 2.0

  0  0  0  0  0  0              0 V3000
M  V30 BEGIN CTAB
M  V30 COUNTS 22 23 0 0 0
M  V30 BEGIN ATOM
M  V30 1 Cl 5.2888 0.173 -0.0865 0
M  V30 2 C 3.5268 0.103 -0.0725 0
M  V30 3 C 2.7721 1.1636 -0.6048 0
M  V30 4 C 2.8673 -1.0118 0.4748 0
M  V30 5 Cl 3.5503 2.5822 -1.295 0
M  V30 6 C 1.3743 1.1034 -0.5923 0
M  V30 7 Cl 3.7663 -2.3583 1.1625 0
M  V30 8 C 1.4692 -1.0633 0.4835 0
M  V30 9 C 0.7138 -0.013 -0.0588 0
M  V30 10 C -0.7656 -0.0604 -0.0349 0
M  V30 11 C -1.4853 -1.1214 -0.6301 0
M  V30 12 C -1.4733 0.9794 0.5937 0
M  V30 13 Cl -0.6781 -2.4156 -1.5106 0
M  V30 14 C -2.8847 -1.1329 -0.5719 0
M  V30 15 C -2.8693 0.9568 0.6454 0
M  V30 16 C -3.5739 -0.0994 0.0663 0
M  V30 17 H 0.8014 1.9242 -1.0074 0
M  V30 18 H 0.9705 -1.919 0.9227 0
M  V30 19 H -0.9424 1.8029 1.0559 0
M  V30 20 H -3.4413 -1.9405 -1.0306 0
M  V30 21 H -3.4052 1.7587 1.1369 0
M  V30 22 H -4.6555 -0.1144 0.1064 0
M  V30 END ATOM
M  V30 BEGIN BOND
M  V30 1 1 1 2
M  V30 2 2 2 3
M  V30 3 1 2 4
M  V30 4 1 3 5
M  V30 5 1 3 6
M  V30 6 1 4 7
M  V30 7 2 4 8
M  V30 8 2 6 9
M  V30 9 1 9 10
M  V30 10 2 10 11
M  V30 11 1 10 12
M  V30 12 1 11 13
M  V30 13 1 11 14
M  V30 14 2 12 15
M  V30 15 2 14 16
M  V30 16 1 8 9
M  V30 17 1 15 16
M  V30 18 1 6 17
M  V30 19 1 8 18
M  V30 20 1 12 19
M  V30 21 1 14 20
M  V30 22 1 15 21
M  V30 23 1 16 22
M  V30 END BOND
M  V30 END CTAB
M  END
>  <Structure No>
5380

>  <LogS>
-6.9069

>  <MMFF94 Energy>
50.76

$$$$
Compound 5381
Actelion Java MolfileCreator 2.0

  0  0  0  0  0  0              0 V3000
M  V30 BEGIN CTAB
M  V30 COUNTS 22 23 0 0 0
M  V30 BEGIN ATOM
M  V30 1 Cl 5.223 0.1767 -0.5303 0
M  V30 2 C 3.4687 0.0986 -0.3707 0
M  V30 3 C 2.665 1.1346 -0.8794 0
M  V30 4 C 2.8644 -0.9978 0.2694 0
M  V30 5 Cl 3.3736 2.5298 -1.6828 0
M  V30 6 C 1.2734 1.0682 -0.7512 0
M  V30 7 Cl 3.8267 -2.3128 0.9318 0
M  V30 8 C 1.4722 -1.0557 0.3936 0
M  V30 9 C 0.6671 -0.0304 -0.1245 0
M  V30 10 C -0.8049 -0.0837 0.0213 0
M  V30 11 C -1.5618 -1.1691 -0.4745 0
M  V30 12 C -1.467 0.9751 0.6671 0
M  V30 13 Cl -0.8185 -2.491 -1.3698 0
M  V30 14 C -2.9514 -1.1853 -0.3029 0
M  V30 15 C -2.8551 0.9489 0.8332 0
M  V30 16 C -3.5954 -0.1328 0.351 0
M  V30 17 Cl -3.6665 2.2728 1.6491 0
M  V30 18 H 0.6624 1.8699 -1.1487 0
M  V30 19 H 1.0173 -1.8964 0.9033 0
M  V30 20 H -0.902 1.8154 1.0528 0
M  V30 21 H -3.5367 -2.0119 -0.6854 0
M  V30 22 H -4.6704 -0.1562 0.4764 0
M  V30 END ATOM
M  V30 BEGIN BOND
M  V30 1 1 1 2
M  V30 2 2 2 3
M  V30 3 1 2 4
M  V30 4 1 3 5
M  V30 5 1 3 6
M  V30 6 1 4 7
M  V30 7 2 4 8
M  V30 8 2 6 9
M  V30 9 1 9 10
M  V30 10 2 10 11
M  V30 11 1 10 12
M  V30 12 1 11 13
M  V30 13 1 11 14
M  V30 14 2 12 15
M  V30 15 2 14 16
M  V30 16 1 15 17
M  V30 17 1 8 9
M  V30 18 1 15 16
M  V30 19 1 6 18
M  V30 20 1 8 19
M  V30 21 1 12 20
M  V30 22 1 14 21
M  V30 23 1 16 22
M  V30 END BOND
M  V30 END CTAB
M  END
>  <Structure No>
5381

>  <LogS>
-7.3149

>  <MMFF94 Energy>
45.818

$$$$
Compound 5382
Actelion Java MolfileCreator 2.0

  0  0  0  0  0  0              0 V3000
M  V30 BEGIN CTAB
M  V30 COUNTS 62 64 0 0 0
M  V30 BEGIN ATOM
M  V30 1 O 2.6196 -1.1901 0.6345 0
M  V30 2 C 1.5452 -1.8357 0.5013 0
M  V30 3 C 1.2775 -3.017 1.3559 0
M  V30 4 C 0.4789 -1.3301 -0.4022 0
M  V30 5 C -0.0636 -3.2867 1.7102 0
M  V30 6 C 2.3139 -3.8412 1.863 0
M  V30 7 C -0.8705 -1.6293 -0.0877 0
M  V30 8 C 0.7826 -0.5218 -1.5248 0
M  V30 9 C -1.1425 -2.4448 1.1313 0
M  V30 10 C -0.3522 -4.3359 2.6105 0
M  V30 11 O 3.6465 -3.7103 1.4651 0
M  V30 12 C 2.0078 -4.8552 2.7733 0
M  V30 13 C -1.9133 -1.1175 -0.9063 0
M  V30 14 N 2.1472 -0.2904 -1.9235 0
M  V30 15 C -0.2621 0.0038 -2.2935 0
M  V30 16 O -2.2594 -2.3764 1.7109 0
M  V30 17 O -1.6695 -4.6269 2.9663 0
M  V30 18 C 0.6889 -5.1 3.1467 0
M  V30 19 N -3.2897 -1.4872 -0.6827 0
M  V30 20 C -1.5864 -0.2903 -1.9911 0
M  V30 21 C 2.6393 1.0009 -2.4055 0
M  V30 22 C -4.4309 -0.6113 -0.965 0
M  V30 23 C 2.4673 2.0826 -1.3249 0
M  V30 24 C -4.3451 0.7079 -0.1807 0
M  V30 25 N 3.025 3.383 -1.7472 0 CHG=1
M  V30 26 N -4.334 0.4727 1.2733 0 CHG=1
M  V30 27 C 4.4747 3.5001 -1.4927 0
M  V30 28 C -4.4538 1.7216 2.0486 0
M  V30 29 C 4.7778 3.9161 -0.0442 0
M  V30 30 C -3.154 2.5472 2.0651 0
M  V30 31 O 6.1591 4.0715 0.1352 0
M  V30 32 O -2.9975 3.2718 0.8755 0
M  V30 33 H 3.9416 -3.1517 0.6763 0
M  V30 34 H 2.7985 -5.4769 3.1745 0
M  V30 35 H 2.837 -1.0708 -1.8381 0
M  V30 36 H -0.0564 0.6101 -3.1645 0
M  V30 37 H -1.8949 -5.3782 3.6081 0
M  V30 38 H 0.4739 -5.9023 3.8412 0
M  V30 39 H -3.5063 -2.4481 -0.3364 0
M  V30 40 H -2.3556 0.1029 -2.6404 0
M  V30 41 H 2.1043 1.2917 -3.3333 0
M  V30 42 H 3.7135 0.8977 -2.6654 0
M  V30 43 H -4.4862 -0.3993 -2.0529 0
M  V30 44 H -5.373 -1.136 -0.6934 0
M  V30 45 H 2.9294 1.7349 -0.3756 0
M  V30 46 H 1.3797 2.2068 -1.1255 0
M  V30 47 H -5.2229 1.3319 -0.4614 0
M  V30 48 H -3.4271 1.2478 -0.4919 0
M  V30 49 H 2.8474 3.5265 -2.7693 0
M  V30 50 H 2.5173 4.1496 -1.2458 0
M  V30 51 H -5.1487 -0.1366 1.5223 0
M  V30 52 H -3.4587 -0.0287 1.5483 0
M  V30 53 H 5.0016 2.5496 -1.7248 0
M  V30 54 H 4.8987 4.2771 -2.1673 0
M  V30 55 H -4.6942 1.4578 3.1029 0
M  V30 56 H -5.3017 2.3405 1.6782 0
M  V30 57 H 4.3829 3.1676 0.6774 0
M  V30 58 H 4.2867 4.8891 0.1714 0
M  V30 59 H -2.2752 1.8824 2.2047 0
M  V30 60 H -3.1746 3.2485 2.9308 0
M  V30 61 H 6.544 3.1576 0.1779 0
M  V30 62 H -3.6305 4.0352 0.9212 0
M  V30 END ATOM
M  V30 BEGIN BOND
M  V30 1 2 1 2
M  V30 2 1 2 3
M  V30 3 1 2 4
M  V30 4 2 3 5
M  V30 5 1 3 6
M  V30 6 2 4 7
M  V30 7 1 4 8
M  V30 8 1 5 9
M  V30 9 1 5 10
M  V30 10 1 6 11
M  V30 11 2 6 12
M  V30 12 1 7 13
M  V30 13 1 8 14
M  V30 14 2 8 15
M  V30 15 2 9 16
M  V30 16 1 10 17
M  V30 17 2 10 18
M  V30 18 1 13 19
M  V30 19 2 13 20
M  V30 20 1 14 21
M  V30 21 1 19 22
M  V30 22 1 21 23
M  V30 23 1 22 24
M  V30 24 1 23 25
M  V30 25 1 24 26
M  V30 26 1 25 27
M  V30 27 1 26 28
M  V30 28 1 27 29
M  V30 29 1 28 30
M  V30 30 1 29 31
M  V30 31 1 30 32
M  V30 32 1 7 9
M  V30 33 1 12 18
M  V30 34 1 15 20
M  V30 35 1 11 33
M  V30 36 1 12 34
M  V30 37 1 14 35
M  V30 38 1 15 36
M  V30 39 1 17 37
M  V30 40 1 18 38
M  V30 41 1 19 39
M  V30 42 1 20 40
M  V30 43 1 21 41
M  V30 44 1 21 42
M  V30 45 1 22 43
M  V30 46 1 22 44
M  V30 47 1 23 45
M  V30 48 1 23 46
M  V30 49 1 24 47
M  V30 50 1 24 48
M  V30 51 1 25 49
M  V30 52 1 25 50
M  V30 53 1 26 51
M  V30 54 1 26 52
M  V30 55 1 27 53
M  V30 56 1 27 54
M  V30 57 1 28 55
M  V30 58 1 28 56
M  V30 59 1 29 57
M  V30 60 1 29 58
M  V30 61 1 30 59
M  V30 62 1 30 60
M  V30 63 1 31 61
M  V30 64 1 32 62
M  V30 END BOND
M  V30 END CTAB
M  END
>  <Structure No>
5382

>  <LogS>
-1.8388

>  <MMFF94 Energy>
178.96

$$$$
Compound 5383
Actelion Java MolfileCreator 2.0

  0  0  0  0  0  0              0 V3000
M  V30 BEGIN CTAB
M  V30 COUNTS 21 20 0 0 0
M  V30 BEGIN ATOM
M  V30 1 S -0.4127 -0.2476 2.5612 0
M  V30 2 C 0.2231 0.4476 1.2184 0
M  V30 3 S 1.7862 1.3159 1.3608 0
M  V30 4 N -0.4682 0.4459 -0.0414 0
M  V30 5 C 2.8206 -0.1474 1.0031 0
M  V30 6 C -1.7483 -0.2295 -0.2779 0 CFG=2
M  V30 7 C 2.8704 -0.4335 -0.4925 0
M  V30 8 C -1.8444 -0.6534 -1.7167 0
M  V30 9 C -2.9062 0.7029 0.0815 0
M  V30 10 O -1.8993 -1.876 -2.0139 0
M  V30 11 O -1.8584 0.2983 -2.7299 0 CHG=-1
M  V30 12 H -0.0645 1.0323 -0.8071 0
M  V30 13 H 3.8503 0.0635 1.3609 0
M  V30 14 H 2.4441 -1.0382 1.5502 0
M  V30 15 H -1.8179 -1.1414 0.3548 0
M  V30 16 H 1.8708 -0.7398 -0.8637 0
M  V30 17 H 3.2085 0.4686 -1.0448 0
M  V30 18 H 3.585 -1.2604 -0.6881 0
M  V30 19 H -2.8576 0.9731 1.1573 0
M  V30 20 H -2.8586 1.6362 -0.5198 0
M  V30 21 H -3.8779 0.1982 -0.1078 0
M  V30 END ATOM
M  V30 BEGIN BOND
M  V30 1 2 1 2
M  V30 2 1 2 3
M  V30 3 1 2 4
M  V30 4 1 3 5
M  V30 5 1 4 6
M  V30 6 1 5 7
M  V30 7 1 6 8
M  V30 8 1 6 9
M  V30 9 2 8 10
M  V30 10 1 8 11
M  V30 11 1 4 12
M  V30 12 1 5 13
M  V30 13 1 5 14
M  V30 14 1 6 15
M  V30 15 1 7 16
M  V30 16 1 7 17
M  V30 17 1 7 18
M  V30 18 1 9 19
M  V30 19 1 9 20
M  V30 20 1 9 21
M  V30 END BOND
M  V30 BEGIN COLLECTION
M  V30 MDLV30/STEABS ATOMS=(1 6)
M  V30 END COLLECTION
M  V30 END CTAB
M  END
>  <Structure No>
5383

>  <LogS>
-1.2343

>  <MMFF94 Energy>
15.863

$$$$
Compound 5384
Actelion Java MolfileCreator 2.0

  0  0  0  0  0  0              0 V3000
M  V30 BEGIN CTAB
M  V30 COUNTS 32 33 0 0 0
M  V30 BEGIN ATOM
M  V30 1 S -1.8313 -2.4145 -1.748 0
M  V30 2 O -2.5268 -2.8322 -3.0122 0
M  V30 3 O -2.4245 -3.1639 -0.5878 0
M  V30 4 N -0.1476 -2.8039 -1.8666 0 CHG=-1
M  V30 5 C -2.031 -0.6782 -1.5305 0
M  V30 6 C 0.8075 -2.4382 -0.8691 0
M  V30 7 C -3.0161 -0.1785 -0.6677 0
M  V30 8 C -1.1897 0.2126 -2.2103 0
M  V30 9 S 0.4615 -1.648 0.5807 0
M  V30 10 N 2.1304 -2.6621 -1.0102 0
M  V30 11 C -3.1516 1.2001 -0.4789 0
M  V30 12 C -1.3237 1.5911 -2.0203 0
M  V30 13 C 2.0983 -1.6336 0.9822 0
M  V30 14 N 2.8485 -2.2109 0.0167 0
M  V30 15 C -2.3045 2.0915 -1.1524 0
M  V30 16 C 2.6739 -0.9889 2.2043 0
M  V30 17 N -2.44 3.5014 -0.9557 0
M  V30 18 C 3.268 0.3908 1.8928 0
M  V30 19 C 2.1998 1.415 1.5084 0
M  V30 20 H -3.676 -0.8533 -0.138 0
M  V30 21 H -0.426 -0.1597 -2.8809 0
M  V30 22 H -3.9142 1.5735 0.1929 0
M  V30 23 H -0.6633 2.2681 -2.5472 0
M  V30 24 H 3.4767 -1.6439 2.605 0
M  V30 25 H 1.892 -0.8991 2.9892 0
M  V30 26 H -3.1674 3.8838 -0.3112 0
M  V30 27 H -1.8133 4.1731 -1.4524 0
M  V30 28 H 3.7991 0.7591 2.797 0
M  V30 29 H 4.0143 0.3074 1.0729 0
M  V30 30 H 2.6721 2.4114 1.3788 0
M  V30 31 H 1.7143 1.1326 0.5507 0
M  V30 32 H 1.4289 1.4888 2.3046 0
M  V30 END ATOM
M  V30 BEGIN BOND
M  V30 1 2 1 2
M  V30 2 2 1 3
M  V30 3 1 1 4
M  V30 4 1 1 5
M  V30 5 1 4 6
M  V30 6 2 5 7
M  V30 7 1 5 8
M  V30 8 1 6 9
M  V30 9 2 6 10
M  V30 10 1 7 11
M  V30 11 2 8 12
M  V30 12 1 9 13
M  V30 13 1 10 14
M  V30 14 2 11 15
M  V30 15 1 13 16
M  V30 16 1 15 17
M  V30 17 1 16 18
M  V30 18 1 18 19
M  V30 19 1 12 15
M  V30 20 2 13 14
M  V30 21 1 7 20
M  V30 22 1 8 21
M  V30 23 1 11 22
M  V30 24 1 12 23
M  V30 25 1 16 24
M  V30 26 1 16 25
M  V30 27 1 17 26
M  V30 28 1 17 27
M  V30 29 1 18 28
M  V30 30 1 18 29
M  V30 31 1 19 30
M  V30 32 1 19 31
M  V30 33 1 19 32
M  V30 END BOND
M  V30 END CTAB
M  END
>  <Structure No>
5384

>  <LogS>
-3.3075

>  <MMFF94 Energy>
46.951

$$$$
Compound 5385
Actelion Java MolfileCreator 2.0

  0  0  0  0  0  0              0 V3000
M  V30 BEGIN CTAB
M  V30 COUNTS 41 43 0 0 0
M  V30 BEGIN ATOM
M  V30 1 Cl -7.3088 0.0809 4.9493 0
M  V30 2 C -6.808 0.3317 3.2877 0
M  V30 3 C -5.4783 0.0606 2.9083 0
M  V30 4 C -7.7407 0.8051 2.3333 0
M  V30 5 C -5.1336 0.2768 1.5776 0
M  V30 6 C -7.3513 1.0104 0.9955 0
M  V30 7 O -3.9821 0.1002 0.99 0
M  V30 8 C -6.029 0.7327 0.6583 0
M  V30 9 C -4.1715 0.4503 -0.2727 0
M  V30 10 N -5.4409 0.8507 -0.5442 0
M  V30 11 O -3.183 0.3858 -1.2601 0
M  V30 12 C -1.8128 0.2164 -1.0152 0
M  V30 13 C -1.1969 0.6675 0.1659 0
M  V30 14 C -1.0297 -0.3905 -2.0029 0
M  V30 15 C 0.175 0.483 0.3592 0
M  V30 16 C 0.3423 -0.5764 -1.8096 0
M  V30 17 C 0.9572 -0.138 -0.6209 0
M  V30 18 O 2.3295 -0.2987 -0.3664 0
M  V30 19 C 3.2973 -0.8085 -1.2862 0 CFG=2
M  V30 20 C 4.5402 -1.1624 -0.5291 0
M  V30 21 C 3.6305 0.2431 -2.347 0
M  V30 22 O 5.1593 -2.2267 -0.8044 0
M  V30 23 O 5.0214 -0.2892 0.454 0
M  V30 24 C 6.241 -0.4999 1.1622 0
M  V30 25 C 7.4383 -0.1591 0.2825 0
M  V30 26 H -4.7496 -0.3022 3.6215 0
M  V30 27 H -8.7613 1.0116 2.6295 0
M  V30 28 H -8.0551 1.3713 0.2568 0
M  V30 29 H -1.7621 1.1887 0.9258 0
M  V30 30 H -1.49 -0.73 -2.9223 0
M  V30 31 H 0.6365 0.8353 1.2733 0
M  V30 32 H 0.9078 -1.0622 -2.5911 0
M  V30 33 H 2.9111 -1.7302 -1.7735 0
M  V30 34 H 2.727 0.505 -2.9346 0
M  V30 35 H 4.0175 1.1678 -1.8671 0
M  V30 36 H 4.3981 -0.1497 -3.0478 0
M  V30 37 H 6.3076 -1.5517 1.5159 0
M  V30 38 H 6.252 0.1642 2.052 0
M  V30 39 H 7.4797 -0.8373 -0.5951 0
M  V30 40 H 7.361 0.8905 -0.0718 0
M  V30 41 H 8.3755 -0.2742 0.8667 0
M  V30 END ATOM
M  V30 BEGIN BOND
M  V30 1 1 1 2
M  V30 2 2 2 3
M  V30 3 1 2 4
M  V30 4 1 3 5
M  V30 5 2 4 6
M  V30 6 1 5 7
M  V30 7 2 5 8
M  V30 8 1 7 9
M  V30 9 1 8 10
M  V30 10 1 9 11
M  V30 11 1 11 12
M  V30 12 2 12 13
M  V30 13 1 12 14
M  V30 14 1 13 15
M  V30 15 2 14 16
M  V30 16 2 15 17
M  V30 17 1 17 18
M  V30 18 1 18 19
M  V30 19 1 19 20
M  V30 20 1 19 21
M  V30 21 2 20 22
M  V30 22 1 20 23
M  V30 23 1 23 24
M  V30 24 1 24 25
M  V30 25 1 6 8
M  V30 26 2 9 10
M  V30 27 1 16 17
M  V30 28 1 3 26
M  V30 29 1 4 27
M  V30 30 1 6 28
M  V30 31 1 13 29
M  V30 32 1 14 30
M  V30 33 1 15 31
M  V30 34 1 16 32
M  V30 35 1 19 33
M  V30 36 1 21 34
M  V30 37 1 21 35
M  V30 38 1 21 36
M  V30 39 1 24 37
M  V30 40 1 24 38
M  V30 41 1 25 39
M  V30 42 1 25 40
M  V30 43 1 25 41
M  V30 END BOND
M  V30 BEGIN COLLECTION
M  V30 MDLV30/STEABS ATOMS=(1 19)
M  V30 END COLLECTION
M  V30 END CTAB
M  END
>  <Structure No>
5385

>  <LogS>
-5.6042

>  <MMFF94 Energy>
50.559

$$$$
Compound 5386
Actelion Java MolfileCreator 2.0

  0  0  0  0  0  0              0 V3000
M  V30 BEGIN CTAB
M  V30 COUNTS 43 45 0 0 0
M  V30 BEGIN ATOM
M  V30 1 Cl -1.7194 1.2279 1.7194 0
M  V30 2 C -3.2204 1.0731 0.8124 0
M  V30 3 C -3.2484 0.6233 -0.5279 0
M  V30 4 C -4.4107 1.4549 1.4443 0
M  V30 5 C -2.0258 0.1935 -1.2408 0
M  V30 6 C -4.4741 0.6003 -1.2153 0
M  V30 7 C -5.6253 1.406 0.755 0
M  V30 8 O -1.8209 0.6174 -2.4102 0
M  V30 9 C -1.0709 -0.7675 -0.6521 0
M  V30 10 C -5.6551 0.9836 -0.5755 0
M  V30 11 Cl -7.1098 1.887 1.5566 0
M  V30 12 C 0.2908 -0.8636 -0.8897 0
M  V30 13 C -1.3536 -1.8912 0.1205 0
M  V30 14 O 1.0941 0.0231 -1.6158 0
M  V30 15 N 0.7608 -1.9775 -0.2989 0
M  V30 16 N -0.223 -2.5963 0.3336 0
M  V30 17 C -2.6924 -2.3238 0.6277 0
M  V30 18 C 1.1487 1.4247 -1.3533 0
M  V30 19 C 2.1534 -2.4023 -0.2397 0
M  V30 20 C 1.8203 1.6862 -0.0331 0
M  V30 21 O 1.2146 2.3927 0.8177 0
M  V30 22 C 3.1639 1.1392 0.292 0
M  V30 23 C 3.6149 1.1318 1.6262 0
M  V30 24 C 4.0054 0.6146 -0.7097 0
M  V30 25 C 4.8681 0.6031 1.9498 0
M  V30 26 C 5.2572 0.0867 -0.3795 0
M  V30 27 C 5.6875 0.0795 0.9484 0
M  V30 28 H -4.3902 1.7991 2.4709 0
M  V30 29 H -4.5189 0.2674 -2.2452 0
M  V30 30 H -6.593 0.9499 -1.115 0
M  V30 31 H -3.4521 -2.2365 -0.1764 0
M  V30 32 H -2.9883 -1.6941 1.4915 0
M  V30 33 H -2.6494 -3.3829 0.958 0
M  V30 34 H 0.132 1.8667 -1.3601 0
M  V30 35 H 1.728 1.9212 -2.159 0
M  V30 36 H 2.2087 -3.4971 -0.0639 0
M  V30 37 H 2.6667 -2.1707 -1.1971 0
M  V30 38 H 2.6673 -1.875 0.5907 0
M  V30 39 H 2.9941 1.5236 2.4225 0
M  V30 40 H 3.7043 0.6105 -1.7482 0
M  V30 41 H 5.2026 0.5972 2.9792 0
M  V30 42 H 5.8947 -0.317 -1.1554 0
M  V30 43 H 6.6568 -0.3303 1.2012 0
M  V30 END ATOM
M  V30 BEGIN BOND
M  V30 1 1 1 2
M  V30 2 2 2 3
M  V30 3 1 2 4
M  V30 4 1 3 5
M  V30 5 1 3 6
M  V30 6 2 4 7
M  V30 7 2 5 8
M  V30 8 1 5 9
M  V30 9 2 6 10
M  V30 10 1 7 11
M  V30 11 2 9 12
M  V30 12 1 9 13
M  V30 13 1 12 14
M  V30 14 1 12 15
M  V30 15 2 13 16
M  V30 16 1 13 17
M  V30 17 1 14 18
M  V30 18 1 15 19
M  V30 19 1 18 20
M  V30 20 2 20 21
M  V30 21 1 20 22
M  V30 22 2 22 23
M  V30 23 1 22 24
M  V30 24 1 23 25
M  V30 25 2 24 26
M  V30 26 2 25 27
M  V30 27 1 7 10
M  V30 28 1 15 16
M  V30 29 1 26 27
M  V30 30 1 4 28
M  V30 31 1 6 29
M  V30 32 1 10 30
M  V30 33 1 17 31
M  V30 34 1 17 32
M  V30 35 1 17 33
M  V30 36 1 18 34
M  V30 37 1 18 35
M  V30 38 1 19 36
M  V30 39 1 19 37
M  V30 40 1 19 38
M  V30 41 1 23 39
M  V30 42 1 24 40
M  V30 43 1 25 41
M  V30 44 1 26 42
M  V30 45 1 27 43
M  V30 END BOND
M  V30 END CTAB
M  END
>  <Structure No>
5386

>  <LogS>
-2.6514

>  <MMFF94 Energy>
111.63

$$$$
Compound 5387
Actelion Java MolfileCreator 2.0

  0  0  0  0  0  0              0 V3000
M  V30 BEGIN CTAB
M  V30 COUNTS 47 48 0 0 0
M  V30 BEGIN ATOM
M  V30 1 O -1.1906 2.9389 0.6348 0
M  V30 2 C -1.7239 1.992 -0.0069 0
M  V30 3 O -2.9645 1.478 0.3881 0
M  V30 4 C -1.0096 1.4011 -1.192 0 CFG=1
M  V30 5 C -3.7143 2.0265 1.465 0
M  V30 6 N -0.3376 0.1281 -0.834 0
M  V30 7 C -1.9819 1.2276 -2.3647 0
M  V30 8 C -1.1036 -1.0266 -0.4245 0
M  V30 9 C 1.1021 0.023 -0.7876 0
M  V30 10 C -1.3767 -1.2527 0.9503 0
M  V30 11 C -1.531 -1.9853 -1.38 0
M  V30 12 O 1.647 -1.0955 -0.9995 0
M  V30 13 C 1.9718 1.2242 -0.5158 0
M  V30 14 C -2.1719 -2.3442 1.3277 0
M  V30 15 C -0.7969 -0.3985 2.0472 0
M  V30 16 C -2.3362 -3.0585 -0.9713 0
M  V30 17 C -1.1522 -1.9023 -2.8344 0
M  V30 18 C 3.2315 0.8401 0.2178 0
M  V30 19 C -2.6645 -3.2279 0.3712 0
M  V30 20 C 4.4196 0.593 -0.4912 0
M  V30 21 C 3.2154 0.6727 1.613 0
M  V30 22 C 5.5784 0.2043 0.1894 0
M  V30 23 C 4.3766 0.2836 2.2896 0
M  V30 24 C 5.5579 0.0517 1.5787 0
M  V30 25 H -0.2589 2.1418 -1.5438 0
M  V30 26 H -4.6393 1.4299 1.6056 0
M  V30 27 H -3.9919 3.0772 1.2356 0
M  V30 28 H -3.1198 1.995 2.4019 0
M  V30 29 H -2.7803 0.494 -2.1217 0
M  V30 30 H -2.4644 2.1997 -2.6045 0
M  V30 31 H -1.4305 0.8951 -3.2692 0
M  V30 32 H 2.2192 1.7163 -1.481 0
M  V30 33 H 1.4163 1.962 0.1023 0
M  V30 34 H -2.4011 -2.5183 2.372 0
M  V30 35 H -1.6155 0.0101 2.6751 0
M  V30 36 H -0.1947 0.4477 1.6667 0
M  V30 37 H -0.1356 -1.0208 2.6866 0
M  V30 38 H -2.6982 -3.7782 -1.6955 0
M  V30 39 H -0.2814 -1.2372 -3.003 0
M  V30 40 H -2.0169 -1.5359 -3.4257 0
M  V30 41 H -0.8718 -2.9095 -3.21 0
M  V30 42 H -3.2793 -4.0652 0.6753 0
M  V30 43 H 4.4467 0.6985 -1.5689 0
M  V30 44 H 2.3053 0.842 2.1751 0
M  V30 45 H 6.4919 0.018 -0.3608 0
M  V30 46 H 4.3606 0.159 3.3646 0
M  V30 47 H 6.4555 -0.2507 2.1041 0
M  V30 END ATOM
M  V30 BEGIN BOND
M  V30 1 2 1 2
M  V30 2 1 2 3
M  V30 3 1 2 4
M  V30 4 1 3 5
M  V30 5 1 4 6
M  V30 6 1 4 7
M  V30 7 1 6 8
M  V30 8 1 6 9
M  V30 9 2 8 10
M  V30 10 1 8 11
M  V30 11 2 9 12
M  V30 12 1 9 13
M  V30 13 1 10 14
M  V30 14 1 10 15
M  V30 15 2 11 16
M  V30 16 1 11 17
M  V30 17 1 13 18
M  V30 18 2 14 19
M  V30 19 2 18 20
M  V30 20 1 18 21
M  V30 21 1 20 22
M  V30 22 2 21 23
M  V30 23 2 22 24
M  V30 24 1 16 19
M  V30 25 1 23 24
M  V30 26 1 4 25
M  V30 27 1 5 26
M  V30 28 1 5 27
M  V30 29 1 5 28
M  V30 30 1 7 29
M  V30 31 1 7 30
M  V30 32 1 7 31
M  V30 33 1 13 32
M  V30 34 1 13 33
M  V30 35 1 14 34
M  V30 36 1 15 35
M  V30 37 1 15 36
M  V30 38 1 15 37
M  V30 39 1 16 38
M  V30 40 1 17 39
M  V30 41 1 17 40
M  V30 42 1 17 41
M  V30 43 1 19 42
M  V30 44 1 20 43
M  V30 45 1 21 44
M  V30 46 1 22 45
M  V30 47 1 23 46
M  V30 48 1 24 47
M  V30 END BOND
M  V30 BEGIN COLLECTION
M  V30 MDLV30/STEABS ATOMS=(1 4)
M  V30 END COLLECTION
M  V30 END CTAB
M  END
>  <Structure No>
5387

>  <LogS>
-3.9442

>  <MMFF94 Energy>
77.586

$$$$
Compound 5388
Actelion Java MolfileCreator 2.0

  0  0  0  0  0  0              0 V3000
M  V30 BEGIN CTAB
M  V30 COUNTS 47 49 0 0 0
M  V30 BEGIN ATOM
M  V30 1 Cl 4.597 4.926 -0.9017 0
M  V30 2 C 3.9242 3.2997 -0.8561 0
M  V30 3 Cl 2.1708 3.1086 -0.9901 0
M  V30 4 C 4.7497 2.2528 -0.7212 0
M  V30 5 C 4.2558 0.8309 -0.6338 0 CFG=2
M  V30 6 C 5.0387 -0.2217 -1.4322 0
M  V30 7 C 3.6744 0.2676 -1.941 0 CFG=1
M  V30 8 C 5.1335 -1.605 -0.7661 0
M  V30 9 C 6.2394 0.2175 -2.2872 0
M  V30 10 C 2.5137 -0.663 -1.7556 0
M  V30 11 O 2.4218 -1.6909 -2.4827 0
M  V30 12 O 1.5272 -0.3629 -0.8094 0
M  V30 13 C 0.5412 -1.3028 -0.3809 0 CFG=1
M  V30 14 C 1.1594 -2.2749 0.5318 0
M  V30 15 C -0.597 -0.6051 0.3252 0
M  V30 16 N 1.6479 -3.0376 1.2503 0
M  V30 17 C -1.833 -1.2633 0.4571 0
M  V30 18 C -0.4369 0.6708 0.9023 0
M  V30 19 C -2.903 -0.6514 1.1207 0
M  V30 20 C -1.502 1.2859 1.5652 0
M  V30 21 O -4.1043 -1.3666 1.2556 0
M  V30 22 C -2.7277 0.6307 1.6801 0
M  V30 23 C -5.3789 -0.7925 1.3758 0
M  V30 24 C -5.7317 0.3883 0.6936 0
M  V30 25 C -6.3394 -1.445 2.1575 0
M  V30 26 C -7.024 0.9129 0.8153 0
M  V30 27 C -7.6259 -0.9107 2.2892 0
M  V30 28 C -7.9677 0.2693 1.619 0
M  V30 29 H 5.8159 2.4358 -0.6029 0
M  V30 30 H 3.7518 0.5024 0.2969 0
M  V30 31 H 3.6731 0.958 -2.8125 0
M  V30 32 H 5.1131 -2.3938 -1.5466 0
M  V30 33 H 6.0963 -1.6778 -0.2117 0
M  V30 34 H 4.3072 -1.7925 -0.0461 0
M  V30 35 H 6.4655 -0.5719 -3.0343 0
M  V30 36 H 6.0476 1.1623 -2.838 0
M  V30 37 H 7.1275 0.3583 -1.6355 0
M  V30 38 H 0.1344 -1.842 -1.2644 0
M  V30 39 H -1.9641 -2.2593 0.0445 0
M  V30 40 H 0.5104 1.1911 0.8478 0
M  V30 41 H -1.3756 2.2685 2.0026 0
M  V30 42 H -3.5254 1.1114 2.2313 0
M  V30 43 H -5.0183 0.8845 0.0536 0
M  V30 44 H -6.0841 -2.3629 2.6767 0
M  V30 45 H -7.2957 1.8155 0.2823 0
M  V30 46 H -8.3575 -1.414 2.9064 0
M  V30 47 H -8.9662 0.6767 1.7163 0
M  V30 END ATOM
M  V30 BEGIN BOND
M  V30 1 1 1 2
M  V30 2 1 2 3
M  V30 3 2 2 4
M  V30 4 1 4 5
M  V30 5 1 5 6
M  V30 6 1 5 7
M  V30 7 1 6 8
M  V30 8 1 6 9
M  V30 9 1 7 10
M  V30 10 2 10 11
M  V30 11 1 10 12
M  V30 12 1 12 13
M  V30 13 1 13 14
M  V30 14 1 13 15
M  V30 15 3 14 16
M  V30 16 2 15 17
M  V30 17 1 15 18
M  V30 18 1 17 19
M  V30 19 2 18 20
M  V30 20 1 19 21
M  V30 21 2 19 22
M  V30 22 1 21 23
M  V30 23 2 23 24
M  V30 24 1 23 25
M  V30 25 1 24 26
M  V30 26 2 25 27
M  V30 27 2 26 28
M  V30 28 1 6 7
M  V30 29 1 20 22
M  V30 30 1 27 28
M  V30 31 1 4 29
M  V30 32 1 5 30
M  V30 33 1 7 31
M  V30 34 1 8 32
M  V30 35 1 8 33
M  V30 36 1 8 34
M  V30 37 1 9 35
M  V30 38 1 9 36
M  V30 39 1 9 37
M  V30 40 1 13 38
M  V30 41 1 17 39
M  V30 42 1 18 40
M  V30 43 1 20 41
M  V30 44 1 22 42
M  V30 45 1 24 43
M  V30 46 1 25 44
M  V30 47 1 26 45
M  V30 48 1 27 46
M  V30 49 1 28 47
M  V30 END BOND
M  V30 BEGIN COLLECTION
M  V30 MDLV30/STEABS ATOMS=(3 5 7 13)
M  V30 END COLLECTION
M  V30 END CTAB
M  END
>  <Structure No>
5388

>  <LogS>
-6.5587

>  <MMFF94 Energy>
75.481

$$$$
Compound 5389
Actelion Java MolfileCreator 2.0

  0  0  0  0  0  0              0 V3000
M  V30 BEGIN CTAB
M  V30 COUNTS 14 13 0 0 0
M  V30 BEGIN ATOM
M  V30 1 O 0.3117 -2.1057 0.6235 0
M  V30 2 C -0.4893 -1.1374 0.7191 0
M  V30 3 N -1.7192 -1.3217 1.4247 0
M  V30 4 C -0.1662 0.1594 0.0832 0
M  V30 5 N -1.1134 1.0399 -0.0518 0
M  V30 6 C 1.2055 0.4333 -0.4135 0
M  V30 7 O -0.9059 2.2766 -0.6201 0
M  V30 8 O 1.3722 1.1182 -1.458 0
M  V30 9 N 2.351 -0.0629 0.2818 0
M  V30 10 H -2.4033 -0.5417 1.5399 0
M  V30 11 H -1.9433 -2.2475 1.8523 0
M  V30 12 H -1.6741 2.93 -0.7045 0
M  V30 13 H 2.2604 -0.5254 1.2132 0
M  V30 14 H 3.3078 0.0976 -0.1038 0
M  V30 END ATOM
M  V30 BEGIN BOND
M  V30 1 2 1 2
M  V30 2 1 2 3
M  V30 3 1 2 4
M  V30 4 2 4 5
M  V30 5 1 4 6
M  V30 6 1 5 7
M  V30 7 2 6 8
M  V30 8 1 6 9
M  V30 9 1 3 10
M  V30 10 1 3 11
M  V30 11 1 7 12
M  V30 12 1 9 13
M  V30 13 1 9 14
M  V30 END BOND
M  V30 END CTAB
M  END
>  <Structure No>
5389

>  <LogS>
-0.0384

>  <MMFF94 Energy>
50.537

$$$$
Compound 5390
Actelion Java MolfileCreator 2.0

  0  0  0  0  0  0              0 V3000
M  V30 BEGIN CTAB
M  V30 COUNTS 21 20 0 0 0
M  V30 BEGIN ATOM
M  V30 1 S -1.3611 -0.7654 0.5953 0
M  V30 2 O -1.4786 -2.1949 1.0442 0
M  V30 3 O -0.6899 0.0423 1.671 0
M  V30 4 N -0.4533 -0.6904 -0.8834 0 CHG=-1
M  V30 5 C -2.9983 -0.1165 0.3083 0
M  V30 6 S 1.2215 -1.04 -0.5818 0
M  V30 7 C -2.9351 1.3345 -0.1517 0
M  V30 8 O 1.3667 -2.0774 0.4975 0
M  V30 9 O 1.8346 -1.5673 -1.8484 0
M  V30 10 C 2.0714 0.4579 -0.1043 0
M  V30 11 C 3.561 0.2024 0.0865 0
M  V30 12 H -3.5855 -0.1821 1.2486 0
M  V30 13 H -3.5003 -0.7301 -0.4692 0
M  V30 14 H -2.3658 1.4135 -1.1018 0
M  V30 15 H -2.4475 1.9638 0.6226 0
M  V30 16 H -3.9643 1.7149 -0.3219 0
M  V30 17 H 1.9252 1.2237 -0.8948 0
M  V30 18 H 1.6426 0.8423 0.8436 0
M  V30 19 H 3.7229 -0.5548 0.8826 0
M  V30 20 H 4.0639 1.146 0.3863 0
M  V30 21 H 4.0157 -0.1561 -0.8609 0
M  V30 END ATOM
M  V30 BEGIN BOND
M  V30 1 2 1 2
M  V30 2 2 1 3
M  V30 3 1 1 4
M  V30 4 1 1 5
M  V30 5 1 4 6
M  V30 6 1 5 7
M  V30 7 2 6 8
M  V30 8 2 6 9
M  V30 9 1 6 10
M  V30 10 1 10 11
M  V30 11 1 5 12
M  V30 12 1 5 13
M  V30 13 1 7 14
M  V30 14 1 7 15
M  V30 15 1 7 16
M  V30 16 1 10 17
M  V30 17 1 10 18
M  V30 18 1 11 19
M  V30 19 1 11 20
M  V30 20 1 11 21
M  V30 END BOND
M  V30 END CTAB
M  END
>  <Structure No>
5390

>  <LogS>
0.5413

>  <MMFF94 Energy>
8.5564

$$$$
Compound 5391
Actelion Java MolfileCreator 2.0

  0  0  0  0  0  0              0 V3000
M  V30 BEGIN CTAB
M  V30 COUNTS 41 42 0 0 0
M  V30 BEGIN ATOM
M  V30 1 O 5.162 0.6342 -1.348 0
M  V30 2 C 5.1354 -0.4641 -0.7272 0
M  V30 3 O 6.3174 -1.0345 -0.2422 0
M  V30 4 N 3.8946 -1.1488 -0.5231 0
M  V30 5 C 7.5942 -0.408 -0.3506 0
M  V30 6 C 2.6124 -0.6163 -0.9792 0
M  V30 7 C 7.7265 0.7232 0.6625 0
M  V30 8 C 2.151 0.5248 -0.0689 0
M  V30 9 O 0.8826 1.0252 -0.4923 0
M  V30 10 C -0.3563 0.3986 -0.2785 0
M  V30 11 C -1.4948 0.976 -0.8528 0
M  V30 12 C -0.497 -0.7753 0.4872 0
M  V30 13 C -2.7546 0.3989 -0.6712 0
M  V30 14 C -1.7578 -1.352 0.6675 0
M  V30 15 C -2.8955 -0.7636 0.1058 0
M  V30 16 O -4.1394 -1.3827 0.2978 0
M  V30 17 C -5.3767 -0.7238 0.3504 0
M  V30 18 C -6.5229 -1.4101 -0.0703 0
M  V30 19 C -5.5039 0.5833 0.857 0
M  V30 20 C -7.7763 -0.7921 -0.0183 0
M  V30 21 C -6.7586 1.1988 0.9081 0
M  V30 22 C -7.8937 0.513 0.4672 0
M  V30 23 H 3.9145 -2.0916 -0.0736 0
M  V30 24 H 7.7514 -0.0237 -1.3817 0
M  V30 25 H 8.3783 -1.1661 -0.1424 0
M  V30 26 H 2.7022 -0.2573 -2.0272 0
M  V30 27 H 1.8586 -1.4313 -0.9666 0
M  V30 28 H 8.7449 1.1614 0.6017 0
M  V30 29 H 7.5632 0.3331 1.6894 0
M  V30 30 H 6.983 1.5202 0.4532 0
M  V30 31 H 2.8842 1.3555 -0.1317 0
M  V30 32 H 2.1119 0.2011 0.9928 0
M  V30 33 H -1.4007 1.8733 -1.4512 0
M  V30 34 H 0.3556 -1.2525 0.9481 0
M  V30 35 H -3.6133 0.8485 -1.1522 0
M  V30 36 H -1.853 -2.2564 1.2551 0
M  V30 37 H -6.4401 -2.4223 -0.4452 0
M  V30 38 H -4.6402 1.1178 1.2295 0
M  V30 39 H -8.6566 -1.3257 -0.3526 0
M  V30 40 H -6.8521 2.2047 1.2965 0
M  V30 41 H -8.8645 0.9899 0.5086 0
M  V30 END ATOM
M  V30 BEGIN BOND
M  V30 1 2 1 2
M  V30 2 1 2 3
M  V30 3 1 2 4
M  V30 4 1 3 5
M  V30 5 1 4 6
M  V30 6 1 5 7
M  V30 7 1 6 8
M  V30 8 1 8 9
M  V30 9 1 9 10
M  V30 10 2 10 11
M  V30 11 1 10 12
M  V30 12 1 11 13
M  V30 13 2 12 14
M  V30 14 2 13 15
M  V30 15 1 15 16
M  V30 16 1 16 17
M  V30 17 2 17 18
M  V30 18 1 17 19
M  V30 19 1 18 20
M  V30 20 2 19 21
M  V30 21 2 20 22
M  V30 22 1 14 15
M  V30 23 1 21 22
M  V30 24 1 4 23
M  V30 25 1 5 24
M  V30 26 1 5 25
M  V30 27 1 6 26
M  V30 28 1 6 27
M  V30 29 1 7 28
M  V30 30 1 7 29
M  V30 31 1 7 30
M  V30 32 1 8 31
M  V30 33 1 8 32
M  V30 34 1 11 33
M  V30 35 1 12 34
M  V30 36 1 13 35
M  V30 37 1 14 36
M  V30 38 1 18 37
M  V30 39 1 19 38
M  V30 40 1 20 39
M  V30 41 1 21 40
M  V30 42 1 22 41
M  V30 END BOND
M  V30 END CTAB
M  END
>  <Structure No>
5391

>  <LogS>
-4.7009

>  <MMFF94 Energy>
-11.925

$$$$
Compound 5392
Actelion Java MolfileCreator 2.0

  0  0  0  0  0  0              0 V3000
M  V30 BEGIN CTAB
M  V30 COUNTS 57 58 0 0 0
M  V30 BEGIN ATOM
M  V30 1 O 9.5765 0.802 2.0864 0
M  V30 2 N 9.1733 0.4112 0.9713 0 CHG=1
M  V30 3 O 10.1012 0.0353 0.0272 0 CHG=-1
M  V30 4 C 7.7648 0.3549 0.677 0
M  V30 5 C 6.8163 0.7435 1.6364 0
M  V30 6 C 7.3201 -0.0894 -0.5758 0
M  V30 7 C 5.4434 0.6921 1.3576 0
M  V30 8 C 5.9534 -0.1465 -0.8711 0
M  V30 9 C 4.5364 1.1123 2.3993 0
M  V30 10 C 4.9962 0.2411 0.087 0
M  V30 11 C 5.5431 -0.6102 -2.175 0
M  V30 12 N 3.8128 1.4501 3.2373 0
M  V30 13 N 3.6044 0.1605 -0.2781 0
M  V30 14 N 5.2139 -0.9818 -3.2203 0
M  V30 15 N 2.6467 0.4693 0.4979 0
M  V30 16 C 1.2564 0.3932 0.1372 0
M  V30 17 C 0.7823 0.0169 -1.1509 0
M  V30 18 C 0.3303 0.7207 1.1336 0
M  V30 19 C -0.6054 -0.0212 -1.3851 0
M  V30 20 C 1.7057 -0.341 -2.2869 0
M  V30 21 C -1.0402 0.6764 0.8862 0
M  V30 22 C -1.527 0.3022 -0.3742 0
M  V30 23 N -2.9524 0.2449 -0.624 0
M  V30 24 C -3.8412 1.2886 -0.0914 0
M  V30 25 C -3.5387 -0.8622 -1.3986 0
M  V30 26 C -4.6595 0.7591 1.0915 0
M  V30 27 C -3.2934 -2.2045 -0.6939 0
M  V30 28 O -5.4603 1.7979 1.6513 0
M  V30 29 C -4.0171 -3.373 -1.3791 0
M  V30 30 C -4.9455 2.8104 2.4688 0
M  V30 31 C -3.4016 -3.735 -2.7301 0
M  V30 32 O -3.731 2.8127 2.8079 0
M  V30 33 C -5.856 3.8712 2.9862 0
M  V30 34 H 7.1468 1.09 2.6088 0
M  V30 35 H 8.038 -0.393 -1.3283 0
M  V30 36 H 0.6778 1.0096 2.1182 0
M  V30 37 H -0.9657 -0.288 -2.3686 0
M  V30 38 H 2.3726 0.5155 -2.5185 0
M  V30 39 H 2.305 -1.2362 -2.0191 0
M  V30 40 H 1.1462 -0.5837 -3.2154 0
M  V30 41 H -1.719 0.9237 1.6901 0
M  V30 42 H -4.5324 1.6323 -0.8914 0
M  V30 43 H -3.2518 2.1777 0.2199 0
M  V30 44 H -3.1142 -0.8726 -2.4218 0
M  V30 45 H -4.6346 -0.7122 -1.5152 0
M  V30 46 H -3.9985 0.3242 1.871 0
M  V30 47 H -5.3359 -0.0462 0.737 0
M  V30 48 H -3.6663 -2.1291 0.3507 0
M  V30 49 H -2.2038 -2.418 -0.6455 0
M  V30 50 H -5.0942 -3.1322 -1.5121 0
M  V30 51 H -3.9512 -4.263 -0.7167 0
M  V30 52 H -2.3125 -3.9247 -2.6233 0
M  V30 53 H -3.884 -4.6557 -3.1203 0
M  V30 54 H -3.5647 -2.9215 -3.4669 0
M  V30 55 H -5.3515 4.86 2.9397 0
M  V30 56 H -6.7811 3.9111 2.3723 0
M  V30 57 H -6.1272 3.6455 4.0391 0
M  V30 END ATOM
M  V30 BEGIN BOND
M  V30 1 2 1 2
M  V30 2 1 2 3
M  V30 3 1 2 4
M  V30 4 2 4 5
M  V30 5 1 4 6
M  V30 6 1 5 7
M  V30 7 2 6 8
M  V30 8 1 7 9
M  V30 9 2 7 10
M  V30 10 1 8 11
M  V30 11 3 9 12
M  V30 12 1 10 13
M  V30 13 3 11 14
M  V30 14 2 13 15
M  V30 15 1 15 16
M  V30 16 2 16 17
M  V30 17 1 16 18
M  V30 18 1 17 19
M  V30 19 1 17 20
M  V30 20 2 18 21
M  V30 21 2 19 22
M  V30 22 1 22 23
M  V30 23 1 23 24
M  V30 24 1 23 25
M  V30 25 1 24 26
M  V30 26 1 25 27
M  V30 27 1 26 28
M  V30 28 1 27 29
M  V30 29 1 28 30
M  V30 30 1 29 31
M  V30 31 2 30 32
M  V30 32 1 30 33
M  V30 33 1 8 10
M  V30 34 1 21 22
M  V30 35 1 5 34
M  V30 36 1 6 35
M  V30 37 1 18 36
M  V30 38 1 19 37
M  V30 39 1 20 38
M  V30 40 1 20 39
M  V30 41 1 20 40
M  V30 42 1 21 41
M  V30 43 1 24 42
M  V30 44 1 24 43
M  V30 45 1 25 44
M  V30 46 1 25 45
M  V30 47 1 26 46
M  V30 48 1 26 47
M  V30 49 1 27 48
M  V30 50 1 27 49
M  V30 51 1 29 50
M  V30 52 1 29 51
M  V30 53 1 31 52
M  V30 54 1 31 53
M  V30 55 1 31 54
M  V30 56 1 33 55
M  V30 57 1 33 56
M  V30 58 1 33 57
M  V30 END BOND
M  V30 END CTAB
M  END
>  <Structure No>
5392

>  <LogS>
-8.8809

>  <MMFF94 Energy>
76.065

$$$$
Compound 5393
Actelion Java MolfileCreator 2.0

  0  0  0  0  0  0              0 V3000
M  V30 BEGIN CTAB
M  V30 COUNTS 27 28 0 0 0
M  V30 BEGIN ATOM
M  V30 1 Cl 3.3097 4.5847 -1.6963 0
M  V30 2 C 3.0996 2.9196 -1.2006 0
M  V30 3 S 1.6263 2.2164 -0.8202 0
M  V30 4 N 4.1167 2.0423 -1.0788 0
M  V30 5 C 2.3045 0.7126 -0.4798 0
M  V30 6 C 3.6927 0.8106 -0.679 0
M  V30 7 C 1.5138 -0.4558 -0.0525 0
M  V30 8 C 4.6717 -0.312 -0.4832 0
M  V30 9 O 2.0719 -1.5596 0.1898 0
M  V30 10 O 0.1285 -0.3251 0.0818 0
M  V30 11 F 5.9561 0.1195 -0.7637 0
M  V30 12 F 4.6303 -0.7488 0.8278 0
M  V30 13 F 4.3634 -1.3582 -1.3329 0
M  V30 14 C -0.7108 -1.3999 0.4886 0
M  V30 15 C -2.1337 -0.9258 0.5308 0
M  V30 16 C -2.6514 -0.3432 1.6994 0
M  V30 17 C -2.9379 -0.9967 -0.6185 0
M  V30 18 C -3.9658 0.134 1.725 0
M  V30 19 C -4.2518 -0.5182 -0.5886 0
M  V30 20 C -4.7661 0.0443 0.5827 0
M  V30 21 H -0.6104 -2.2454 -0.2265 0
M  V30 22 H -0.398 -1.7606 1.493 0
M  V30 23 H -2.0385 -0.2582 2.5882 0
M  V30 24 H -2.5481 -1.4208 -1.5355 0
M  V30 25 H -4.3626 0.5772 2.6292 0
M  V30 26 H -4.8698 -0.5799 -1.475 0
M  V30 27 H -5.7826 0.4155 0.6037 0
M  V30 END ATOM
M  V30 BEGIN BOND
M  V30 1 1 1 2
M  V30 2 1 2 3
M  V30 3 2 2 4
M  V30 4 1 3 5
M  V30 5 1 4 6
M  V30 6 1 5 7
M  V30 7 1 6 8
M  V30 8 2 7 9
M  V30 9 1 7 10
M  V30 10 1 8 11
M  V30 11 1 8 12
M  V30 12 1 8 13
M  V30 13 1 10 14
M  V30 14 1 14 15
M  V30 15 2 15 16
M  V30 16 1 15 17
M  V30 17 1 16 18
M  V30 18 2 17 19
M  V30 19 2 18 20
M  V30 20 2 5 6
M  V30 21 1 19 20
M  V30 22 1 14 21
M  V30 23 1 14 22
M  V30 24 1 16 23
M  V30 25 1 17 24
M  V30 26 1 18 25
M  V30 27 1 19 26
M  V30 28 1 20 27
M  V30 END BOND
M  V30 END CTAB
M  END
>  <Structure No>
5393

>  <LogS>
-5.8085

>  <MMFF94 Energy>
41.583

$$$$
Compound 5394
Actelion Java MolfileCreator 2.0

  0  0  0  0  0  0              0 V3000
M  V30 BEGIN CTAB
M  V30 COUNTS 21 21 0 0 0
M  V30 BEGIN ATOM
M  V30 1 O 2.5846 -2.1143 -0.7043 0
M  V30 2 C 1.9683 -0.9085 -0.3734 0
M  V30 3 C 2.7538 0.2108 -0.0744 0
M  V30 4 C 0.5691 -0.8111 -0.3428 0
M  V30 5 O 4.1435 0.1082 -0.1027 0
M  V30 6 C 2.1387 1.4266 0.2473 0
M  V30 7 C -0.0562 0.4064 -0.0052 0
M  V30 8 C 0.7454 1.5246 0.2762 0
M  V30 9 C -1.5312 0.5648 0.0307 0
M  V30 10 C -2.3897 -0.4542 0.1552 0
M  V30 11 C -3.8642 -0.21 0.1979 0
M  V30 12 H 2.045 -2.9426 -0.9267 0
M  V30 13 H -0.0138 -1.6822 -0.6066 0
M  V30 14 H 4.7378 0.9016 0.1077 0
M  V30 15 H 2.74 2.2977 0.4748 0
M  V30 16 H 0.2916 2.4758 0.528 0
M  V30 17 H -1.9314 1.5724 -0.0064 0
M  V30 18 H -2.0432 -1.4733 0.2544 0
M  V30 19 H -4.1961 0.2701 -0.7468 0
M  V30 20 H -4.1155 0.449 1.0558 0
M  V30 21 H -4.4015 -1.174 0.3177 0
M  V30 END ATOM
M  V30 BEGIN BOND
M  V30 1 1 1 2
M  V30 2 2 2 3
M  V30 3 1 2 4
M  V30 4 1 3 5
M  V30 5 1 3 6
M  V30 6 2 4 7
M  V30 7 2 6 8
M  V30 8 1 7 9
M  V30 9 2 9 10
M  V30 10 1 10 11
M  V30 11 1 7 8
M  V30 12 1 1 12
M  V30 13 1 4 13
M  V30 14 1 5 14
M  V30 15 1 6 15
M  V30 16 1 8 16
M  V30 17 1 9 17
M  V30 18 1 10 18
M  V30 19 1 11 19
M  V30 20 1 11 20
M  V30 21 1 11 21
M  V30 END BOND
M  V30 END CTAB
M  END
>  <Structure No>
5394

>  <LogS>
-1.3505

>  <MMFF94 Energy>
8.1156

$$$$
Compound 5395
Actelion Java MolfileCreator 2.0

  0  0  0  0  0  0              0 V3000
M  V30 BEGIN CTAB
M  V30 COUNTS 45 46 0 0 0
M  V30 BEGIN ATOM
M  V30 1 O 3.7617 -0.8794 1.7594 0
M  V30 2 C 3.5104 -1.4623 0.6709 0
M  V30 3 N 2.3098 -2.1709 0.417 0
M  V30 4 N 4.3967 -1.4696 -0.4436 0
M  V30 5 C 2.4389 -2.5938 -0.936 0
M  V30 6 C 1.0759 -2.1277 1.197 0
M  V30 7 C 3.749 -2.1877 -1.5393 0
M  V30 8 C 5.6762 -0.7733 -0.5293 0
M  V30 9 O 1.5364 -3.2173 -1.5547 0
M  V30 10 O 0.1317 -1.2581 0.5776 0
M  V30 11 C 6.6529 -1.4082 0.3603 0
M  V30 12 C 0.2639 0.1342 0.5595 0
M  V30 13 C 7.4551 -1.9306 1.0926 0
M  V30 14 O 1.2371 0.6984 1.1279 0
M  V30 15 C -0.7371 0.9654 -0.1836 0 CFG=2
M  V30 16 C -1.6657 1.8565 0.6553 0
M  V30 17 C -2.1995 0.5553 0.0416 0 CFG=1
M  V30 18 C -1.5335 1.8443 2.1854 0
M  V30 19 C -2.0514 3.1943 0.0058 0
M  V30 20 C -3.0796 0.6854 -1.1769 0
M  V30 21 C -4.4203 0.7978 -1.0932 0
M  V30 22 C -5.2183 0.9319 -2.3632 0
M  V30 23 C -5.1261 0.7916 0.2419 0
M  V30 24 H 0.6421 -3.1483 1.2402 0
M  V30 25 H 1.2797 -1.7992 2.2392 0
M  V30 26 H 3.5859 -1.5105 -2.4042 0
M  V30 27 H 4.346 -3.0789 -1.8257 0
M  V30 28 H 6.062 -0.8116 -1.5699 0
M  V30 29 H 5.5446 0.29 -0.2381 0
M  V30 30 H 8.1591 -2.3894 1.7358 0
M  V30 31 H -0.4741 1.3253 -1.2018 0
M  V30 32 H -2.3631 -0.3033 0.729 0
M  V30 33 H -1.3702 0.8232 2.591 0
M  V30 34 H -2.4639 2.2472 2.6376 0
M  V30 35 H -0.6823 2.4889 2.4884 0
M  V30 36 H -1.3471 3.983 0.3435 0
M  V30 37 H -2.0158 3.1554 -1.1034 0
M  V30 38 H -3.0777 3.4774 0.3191 0
M  V30 39 H -2.6083 0.6814 -2.1568 0
M  V30 40 H -5.0532 0.0414 -3.006 0
M  V30 41 H -6.3056 1.0157 -2.1575 0
M  V30 42 H -4.8968 1.8416 -2.9133 0
M  V30 43 H -4.9328 -0.1678 0.7658 0
M  V30 44 H -4.7596 1.6308 0.8693 0
M  V30 45 H -6.2237 0.9046 0.1235 0
M  V30 END ATOM
M  V30 BEGIN BOND
M  V30 1 2 1 2
M  V30 2 1 2 3
M  V30 3 1 2 4
M  V30 4 1 3 5
M  V30 5 1 3 6
M  V30 6 1 4 7
M  V30 7 1 4 8
M  V30 8 2 5 9
M  V30 9 1 6 10
M  V30 10 1 8 11
M  V30 11 1 10 12
M  V30 12 3 11 13
M  V30 13 2 12 14
M  V30 14 1 12 15
M  V30 15 1 15 16
M  V30 16 1 15 17
M  V30 17 1 16 18
M  V30 18 1 16 19
M  V30 19 1 17 20
M  V30 20 2 20 21
M  V30 21 1 21 22
M  V30 22 1 21 23
M  V30 23 1 5 7
M  V30 24 1 16 17
M  V30 25 1 6 24
M  V30 26 1 6 25
M  V30 27 1 7 26
M  V30 28 1 7 27
M  V30 29 1 8 28
M  V30 30 1 8 29
M  V30 31 1 13 30
M  V30 32 1 15 31
M  V30 33 1 17 32
M  V30 34 1 18 33
M  V30 35 1 18 34
M  V30 36 1 18 35
M  V30 37 1 19 36
M  V30 38 1 19 37
M  V30 39 1 19 38
M  V30 40 1 20 39
M  V30 41 1 22 40
M  V30 42 1 22 41
M  V30 43 1 22 42
M  V30 44 1 23 43
M  V30 45 1 23 44
M  V30 46 1 23 45
M  V30 END BOND
M  V30 BEGIN COLLECTION
M  V30 MDLV30/STEABS ATOMS=(2 15 17)
M  V30 END COLLECTION
M  V30 END CTAB
M  END
>  <Structure No>
5395

>  <LogS>
-3.5321

>  <MMFF94 Energy>
-85.602

$$$$
Compound 5396
Actelion Java MolfileCreator 2.0

  0  0  0  0  0  0              0 V3000
M  V30 BEGIN CTAB
M  V30 COUNTS 35 37 0 0 0
M  V30 BEGIN ATOM
M  V30 1 S 1.6265 0.4877 -0.3251 0
M  V30 2 C 1.857 0.0453 1.2993 0
M  V30 3 C 3.2731 0.6997 -0.5675 0
M  V30 4 O 0.8421 -0.2983 2.1989 0
M  V30 5 N 3.1632 0.0579 1.6575 0
M  V30 6 C 3.9482 0.4233 0.6118 0
M  V30 7 C 3.9388 1.0872 -1.7275 0
M  V30 8 C -0.5389 -0.3456 1.8447 0
M  V30 9 C 5.3391 0.5282 0.669 0
M  V30 10 C 5.3379 1.1959 -1.6817 0
M  V30 11 C -0.8353 -1.5446 0.9792 0
M  V30 12 C 6.0351 0.9176 -0.4886 0
M  V30 13 O -0.091 -2.5588 1.0772 0
M  V30 14 N -1.9951 -1.5931 0.1203 0
M  V30 15 C -2.8211 -0.4364 -0.0844 0
M  V30 16 C -2.4282 -2.8742 -0.4419 0
M  V30 17 C -2.3612 0.627 -0.8758 0
M  V30 18 C -4.1049 -0.3766 0.4784 0
M  V30 19 C -3.1708 1.7479 -1.0852 0
M  V30 20 C -4.9126 0.7452 0.2667 0
M  V30 21 C -4.4453 1.8077 -0.5131 0
M  V30 22 H 3.3945 1.2989 -2.6387 0
M  V30 23 H -1.1396 -0.4318 2.7737 0
M  V30 24 H -0.8208 0.6044 1.3472 0
M  V30 25 H 5.8737 0.3142 1.5858 0
M  V30 26 H 5.8836 1.4949 -2.567 0
M  V30 27 H 7.1136 1.0043 -0.4636 0
M  V30 28 H -1.5711 -3.3883 -0.9258 0
M  V30 29 H -3.2148 -2.7235 -1.213 0
M  V30 30 H -2.8363 -3.5172 0.3661 0
M  V30 31 H -1.3784 0.5837 -1.3273 0
M  V30 32 H -4.4726 -1.1956 1.0835 0
M  V30 33 H -2.8114 2.5686 -1.6925 0
M  V30 34 H -5.9006 0.7909 0.7064 0
M  V30 35 H -5.0713 2.6754 -0.6763 0
M  V30 END ATOM
M  V30 BEGIN BOND
M  V30 1 1 1 2
M  V30 2 1 1 3
M  V30 3 1 2 4
M  V30 4 2 2 5
M  V30 5 2 3 6
M  V30 6 1 3 7
M  V30 7 1 4 8
M  V30 8 1 6 9
M  V30 9 2 7 10
M  V30 10 1 8 11
M  V30 11 2 9 12
M  V30 12 2 11 13
M  V30 13 1 11 14
M  V30 14 1 14 15
M  V30 15 1 14 16
M  V30 16 2 15 17
M  V30 17 1 15 18
M  V30 18 1 17 19
M  V30 19 2 18 20
M  V30 20 2 19 21
M  V30 21 1 5 6
M  V30 22 1 10 12
M  V30 23 1 20 21
M  V30 24 1 7 22
M  V30 25 1 8 23
M  V30 26 1 8 24
M  V30 27 1 9 25
M  V30 28 1 10 26
M  V30 29 1 12 27
M  V30 30 1 16 28
M  V30 31 1 16 29
M  V30 32 1 16 30
M  V30 33 1 17 31
M  V30 34 1 18 32
M  V30 35 1 19 33
M  V30 36 1 20 34
M  V30 37 1 21 35
M  V30 END BOND
M  V30 END CTAB
M  END
>  <Structure No>
5396

>  <LogS>
-4.8727

>  <MMFF94 Energy>
40.938

$$$$
Compound 5397
Actelion Java MolfileCreator 2.0

  0  0  0  0  0  0              0 V3000
M  V30 BEGIN CTAB
M  V30 COUNTS 22 23 0 0 0
M  V30 BEGIN ATOM
M  V30 1 Cl 5.2864 0.2595 -0.0865 0
M  V30 2 C 3.5308 0.1664 -0.0419 0
M  V30 3 C 2.8451 -0.081 1.1572 0
M  V30 4 C 2.8126 0.3517 -1.2272 0
M  V30 5 Cl 3.7101 -0.3138 2.6706 0
M  V30 6 C 1.448 -0.1476 1.1589 0
M  V30 7 C 1.4145 0.2858 -1.2311 0
M  V30 8 C 0.7197 0.0251 -0.03 0
M  V30 9 Cl 0.5714 0.5999 -2.7453 0
M  V30 10 C -0.7571 -0.067 0.0107 0
M  V30 11 C -1.4919 0.7547 0.8825 0
M  V30 12 C -1.4368 -1.0008 -0.7899 0
M  V30 13 C -2.8871 0.6576 0.9363 0
M  V30 14 C -2.8305 -1.0953 -0.7336 0
M  V30 15 Cl -3.7976 1.6936 2.0202 0
M  V30 16 C -3.5555 -0.2662 0.1265 0
M  V30 17 H 3.3433 0.5568 -2.1486 0
M  V30 18 H 0.9279 -0.3477 2.0884 0
M  V30 19 H -0.9819 1.4744 1.5115 0
M  V30 20 H -0.8873 -1.6614 -1.4489 0
M  V30 21 H -3.3487 -1.815 -1.3541 0
M  V30 22 H -4.6346 -0.3452 0.1656 0
M  V30 END ATOM
M  V30 BEGIN BOND
M  V30 1 1 1 2
M  V30 2 2 2 3
M  V30 3 1 2 4
M  V30 4 1 3 5
M  V30 5 1 3 6
M  V30 6 2 4 7
M  V30 7 2 6 8
M  V30 8 1 7 9
M  V30 9 1 8 10
M  V30 10 2 10 11
M  V30 11 1 10 12
M  V30 12 1 11 13
M  V30 13 2 12 14
M  V30 14 1 13 15
M  V30 15 2 13 16
M  V30 16 1 7 8
M  V30 17 1 14 16
M  V30 18 1 4 17
M  V30 19 1 6 18
M  V30 20 1 11 19
M  V30 21 1 12 20
M  V30 22 1 14 21
M  V30 23 1 16 22
M  V30 END BOND
M  V30 END CTAB
M  END
>  <Structure No>
5397

>  <LogS>
-7.1299

>  <MMFF94 Energy>
38.969

$$$$
Compound 5398
Actelion Java MolfileCreator 2.0

  0  0  0  0  0  0              0 V3000
M  V30 BEGIN CTAB
M  V30 COUNTS 22 23 0 0 0
M  V30 BEGIN ATOM
M  V30 1 Cl 0.5304 -2.4772 -1.2381 0
M  V30 2 C 1.3955 -1.0896 -0.5704 0
M  V30 3 C 0.6842 -0.0079 -0.0099 0
M  V30 4 C 2.7998 -1.0606 -0.5995 0
M  V30 5 C 1.3864 1.0949 0.5196 0
M  V30 6 C -0.7928 -0.0296 0.0215 0
M  V30 7 Cl 3.7276 -2.3861 -1.2901 0
M  V30 8 C 3.4872 0.0357 -0.074 0
M  V30 9 Cl 0.5098 2.4571 1.2238 0
M  V30 10 C 2.7907 1.1102 0.4836 0
M  V30 11 C -1.5508 0.4978 -1.0427 0
M  V30 12 C -1.4486 -0.5853 1.1308 0
M  V30 13 Cl 3.7074 2.4652 1.1303 0
M  V30 14 Cl -0.7756 1.2053 -2.4555 0
M  V30 15 C -2.9493 0.463 -0.9844 0
M  V30 16 C -2.8448 -0.6157 1.1803 0
M  V30 17 C -3.5942 -0.0922 0.1241 0
M  V30 18 H 4.5696 0.0528 -0.0992 0
M  V30 19 H -0.8776 -0.9939 1.9554 0
M  V30 20 H -3.538 0.8664 -1.7983 0
M  V30 21 H -3.3461 -1.0453 2.0381 0
M  V30 22 H -4.6755 -0.1166 0.1643 0
M  V30 END ATOM
M  V30 BEGIN BOND
M  V30 1 1 1 2
M  V30 2 2 2 3
M  V30 3 1 2 4
M  V30 4 1 3 5
M  V30 5 1 3 6
M  V30 6 1 4 7
M  V30 7 2 4 8
M  V30 8 1 5 9
M  V30 9 2 5 10
M  V30 10 2 6 11
M  V30 11 1 6 12
M  V30 12 1 10 13
M  V30 13 1 11 14
M  V30 14 1 11 15
M  V30 15 2 12 16
M  V30 16 2 15 17
M  V30 17 1 8 10
M  V30 18 1 16 17
M  V30 19 1 8 18
M  V30 20 1 12 19
M  V30 21 1 15 20
M  V30 22 1 16 21
M  V30 23 1 17 22
M  V30 END BOND
M  V30 END CTAB
M  END
>  <Structure No>
5398

>  <LogS>
-7.3999

>  <MMFF94 Energy>
52.885

$$$$
Compound 5399
Actelion Java MolfileCreator 2.0

  0  0  0  0  0  0              0 V3000
M  V30 BEGIN CTAB
M  V30 COUNTS 22 23 0 0 0
M  V30 BEGIN ATOM
M  V30 1 Cl 3.8947 -0.1768 2.4772 0
M  V30 2 C 2.9045 0.0315 1.0322 0
M  V30 3 C 1.5023 -0.0804 1.1106 0
M  V30 4 C 3.5153 0.3105 -0.2036 0
M  V30 5 Cl 0.7249 -0.43 2.6574 0
M  V30 6 C 0.7209 0.088 -0.0502 0
M  V30 7 Cl 5.2621 0.459 -0.3478 0
M  V30 8 C 2.7315 0.4758 -1.3488 0
M  V30 9 C -0.7512 -0.0227 -0.0031 0
M  V30 10 C 1.3432 0.3656 -1.274 0
M  V30 11 C -1.3769 -1.27 -0.2061 0
M  V30 12 C -1.5423 1.1178 0.245 0
M  V30 13 Cl -0.4385 -2.7266 -0.5186 0
M  V30 14 C -2.7721 -1.3671 -0.1583 0
M  V30 15 Cl -0.8143 2.6995 0.5069 0
M  V30 16 C -2.9363 1.0045 0.2897 0
M  V30 17 C -3.5488 -0.2337 0.0889 0
M  V30 18 H 3.1989 0.6907 -2.3014 0
M  V30 19 H 0.7505 0.4965 -2.1713 0
M  V30 20 H -3.2565 -2.323 -0.3126 0
M  V30 21 H -3.5475 1.8775 0.4809 0
M  V30 22 H -4.6275 -0.3153 0.1249 0
M  V30 END ATOM
M  V30 BEGIN BOND
M  V30 1 1 1 2
M  V30 2 2 2 3
M  V30 3 1 2 4
M  V30 4 1 3 5
M  V30 5 1 3 6
M  V30 6 1 4 7
M  V30 7 2 4 8
M  V30 8 1 6 9
M  V30 9 2 6 10
M  V30 10 2 9 11
M  V30 11 1 9 12
M  V30 12 1 11 13
M  V30 13 1 11 14
M  V30 14 1 12 15
M  V30 15 2 12 16
M  V30 16 2 14 17
M  V30 17 1 8 10
M  V30 18 1 16 17
M  V30 19 1 8 18
M  V30 20 1 10 19
M  V30 21 1 14 20
M  V30 22 1 16 21
M  V30 23 1 17 22
M  V30 END BOND
M  V30 END CTAB
M  END
>  <Structure No>
5399

>  <LogS>
-6.7798

>  <MMFF94 Energy>
57.578

$$$$
Compound 5400
Actelion Java MolfileCreator 2.0

  0  0  0  0  0  0              0 V3000
M  V30 BEGIN CTAB
M  V30 COUNTS 39 38 0 0 0
M  V30 BEGIN ATOM
M  V30 1 O -0.1567 0.8621 -0.235 0
M  V30 2 C -0.449 -0.304 -0.6166 0
M  V30 3 O 0.5248 -1.1445 -1.1672 0
M  V30 4 C -1.8434 -0.8196 -0.4379 0 CFG=2
M  V30 5 C 1.9127 -0.8184 -1.2408 0
M  V30 6 O -2.7739 0.2258 -0.7211 0
M  V30 7 C -2.0269 -1.3244 0.9942 0
M  V30 8 C 2.6865 -1.4656 -0.085 0
M  V30 9 C -4.1353 0.0057 -0.9626 0
M  V30 10 C 2.3674 -0.8734 1.3 0
M  V30 11 O -4.601 -1.1655 -1.0077 0
M  V30 12 C -5.0395 1.176 -1.2157 0 CFG=1
M  V30 13 C 2.8016 0.5935 1.4987 0
M  V30 14 O -4.7789 2.192 -0.2841 0
M  V30 15 C -4.8131 1.7149 -2.6251 0
M  V30 16 C 4.3034 0.8634 1.3011 0
M  V30 17 C 5.1857 0.0726 2.266 0
M  V30 18 H -1.9999 -1.6611 -1.1487 0
M  V30 19 H 2.0774 0.2785 -1.2871 0
M  V30 20 H 2.3079 -1.2385 -2.1895 0
M  V30 21 H -1.8977 -0.4911 1.718 0
M  V30 22 H -1.2835 -2.1191 1.2191 0
M  V30 23 H -3.0426 -1.7527 1.123 0
M  V30 24 H 2.437 -2.5488 -0.0652 0
M  V30 25 H 3.7754 -1.4011 -0.2872 0
M  V30 26 H 1.2759 -0.95 1.4887 0
M  V30 27 H 2.8534 -1.5037 2.0744 0
M  V30 28 H -6.1041 0.8544 -1.133 0
M  V30 29 H 2.5185 0.9023 2.5286 0
M  V30 30 H 2.2322 1.2501 0.8101 0
M  V30 31 H -5.1643 1.8923 0.5807 0
M  V30 32 H -3.7638 2.0603 -2.7469 0
M  V30 33 H -5.4939 2.5721 -2.8129 0
M  V30 34 H -5.0257 0.9254 -3.3775 0
M  V30 35 H 4.484 1.9462 1.4755 0
M  V30 36 H 4.6054 0.6527 0.2541 0
M  V30 37 H 4.8496 0.2246 3.3137 0
M  V30 38 H 6.2358 0.4222 2.1766 0
M  V30 39 H 5.1615 -1.0094 2.021 0
M  V30 END ATOM
M  V30 BEGIN BOND
M  V30 1 2 1 2
M  V30 2 1 2 3
M  V30 3 1 2 4
M  V30 4 1 3 5
M  V30 5 1 4 6
M  V30 6 1 4 7
M  V30 7 1 5 8
M  V30 8 1 6 9
M  V30 9 1 8 10
M  V30 10 2 9 11
M  V30 11 1 9 12
M  V30 12 1 10 13
M  V30 13 1 12 14
M  V30 14 1 12 15
M  V30 15 1 13 16
M  V30 16 1 16 17
M  V30 17 1 4 18
M  V30 18 1 5 19
M  V30 19 1 5 20
M  V30 20 1 7 21
M  V30 21 1 7 22
M  V30 22 1 7 23
M  V30 23 1 8 24
M  V30 24 1 8 25
M  V30 25 1 10 26
M  V30 26 1 10 27
M  V30 27 1 12 28
M  V30 28 1 13 29
M  V30 29 1 13 30
M  V30 30 1 14 31
M  V30 31 1 15 32
M  V30 32 1 15 33
M  V30 33 1 15 34
M  V30 34 1 16 35
M  V30 35 1 16 36
M  V30 36 1 17 37
M  V30 37 1 17 38
M  V30 38 1 17 39
M  V30 END BOND
M  V30 BEGIN COLLECTION
M  V30 MDLV30/STEABS ATOMS=(2 4 12)
M  V30 END COLLECTION
M  V30 END CTAB
M  END
>  <Structure No>
5400

>  <LogS>
-2.4884

>  <MMFF94 Energy>
34.181

$$$$
Compound 5401
Actelion Java MolfileCreator 2.0

  0  0  0  0  0  0              0 V3000
M  V30 BEGIN CTAB
M  V30 COUNTS 20 20 0 0 0
M  V30 BEGIN ATOM
M  V30 1 O 2.9195 -1.9719 0.1576 0
M  V30 2 C 2.5804 -0.7745 -0.0397 0
M  V30 3 N 3.5916 0.2208 -0.2097 0
M  V30 4 C 1.1522 -0.4208 -0.0918 0
M  V30 5 N 0.769 0.8668 -0.3041 0
M  V30 6 N 0.2072 -1.3854 0.0727 0
M  V30 7 C -0.5446 1.2132 -0.3555 0
M  V30 8 C -1.1189 -1.0888 0.0295 0
M  V30 9 C -1.5252 0.2311 -0.1878 0
M  V30 10 C -0.9323 2.638 -0.5903 0
M  V30 11 C -2.1327 -2.1722 0.2143 0
M  V30 12 H 3.3464 1.222 -0.3748 0
M  V30 13 H 4.6003 -0.0458 -0.1699 0
M  V30 14 H -2.5774 0.4873 -0.2254 0
M  V30 15 H -1.5294 3.0109 0.2683 0
M  V30 16 H -1.5377 2.7139 -1.5179 0
M  V30 17 H -0.0294 3.2753 -0.7004 0
M  V30 18 H -2.7748 -2.2429 -0.6886 0
M  V30 19 H -1.6333 -3.1512 0.3745 0
M  V30 20 H -2.7664 -1.9463 1.0975 0
M  V30 END ATOM
M  V30 BEGIN BOND
M  V30 1 2 1 2
M  V30 2 1 2 3
M  V30 3 1 2 4
M  V30 4 2 4 5
M  V30 5 1 4 6
M  V30 6 1 5 7
M  V30 7 2 6 8
M  V30 8 2 7 9
M  V30 9 1 7 10
M  V30 10 1 8 11
M  V30 11 1 8 9
M  V30 12 1 3 12
M  V30 13 1 3 13
M  V30 14 1 9 14
M  V30 15 1 10 15
M  V30 16 1 10 16
M  V30 17 1 10 17
M  V30 18 1 11 18
M  V30 19 1 11 19
M  V30 20 1 11 20
M  V30 END BOND
M  V30 END CTAB
M  END
>  <Structure No>
5401

>  <LogS>
0.1216

>  <MMFF94 Energy>
45.468

$$$$
Compound 5402
Actelion Java MolfileCreator 2.0

  0  0  0  0  0  0              0 V3000
M  V30 BEGIN CTAB
M  V30 COUNTS 52 55 0 0 0
M  V30 BEGIN ATOM
M  V30 1 F -8.7823 -1.2051 -2.1699 0
M  V30 2 C -7.7438 -0.8008 -1.3977 0
M  V30 3 C -7.9595 -0.4526 -0.0628 0
M  V30 4 C -6.4584 -0.7275 -1.9378 0
M  V30 5 C -6.8903 -0.0341 0.7348 0
M  V30 6 C -5.3848 -0.3104 -1.1446 0
M  V30 7 C -5.5865 0.0352 0.2071 0
M  V30 8 C -4.4655 0.4883 1.0732 0
M  V30 9 O -4.7253 1.1911 2.0892 0
M  V30 10 C -3.0197 0.1671 0.7577 0 CFG=1
M  V30 11 C -2.351 1.3569 0.0466 0
M  V30 12 C -2.2359 -0.2034 2.0326 0
M  V30 13 C -0.8666 1.0606 -0.2164 0
M  V30 14 C -0.7564 -0.4488 1.6989 0
M  V30 15 N -0.1648 0.7419 1.0476 0 CHG=1 CFG=1
M  V30 16 C 1.305 0.6295 0.8737 0
M  V30 17 C 1.7719 -0.5269 -0.0361 0
M  V30 18 N 3.2451 -0.5157 -0.1465 0
M  V30 19 C 4.0083 -1.2047 0.7645 0
M  V30 20 C 3.8563 0.2289 -1.1257 0
M  V30 21 O 3.4603 -1.8628 1.692 0
M  V30 22 N 5.3661 -1.1858 0.6843 0
M  V30 23 O 3.1612 0.8954 -1.944 0
M  V30 24 C 5.2576 0.258 -1.2212 0
M  V30 25 C 6.0066 -0.4782 -0.2831 0
M  V30 26 C 5.9259 0.9972 -2.2164 0
M  V30 27 C 7.4095 -0.4706 -0.3495 0
M  V30 28 C 7.3225 0.9968 -2.2727 0
M  V30 29 C 8.0623 0.2646 -1.3419 0
M  V30 30 H -8.9561 -0.5067 0.3562 0
M  V30 31 H -6.2924 -0.9888 -2.9751 0
M  V30 32 H -7.0824 0.2256 1.7685 0
M  V30 33 H -4.4082 -0.2428 -1.6028 0
M  V30 34 H -2.9796 -0.7201 0.0889 0
M  V30 35 H -2.859 1.5544 -0.922 0
M  V30 36 H -2.4377 2.2737 0.6714 0
M  V30 37 H -2.6673 -1.1243 2.4824 0
M  V30 38 H -2.3045 0.6134 2.7848 0
M  V30 39 H -0.8046 0.2129 -0.9326 0
M  V30 40 H -0.4082 1.9537 -0.6966 0
M  V30 41 H -0.2144 -0.6803 2.6429 0
M  V30 42 H -0.6929 -1.3392 1.036 0
M  V30 43 H -0.3048 1.555 1.6959 0
M  V30 44 H 1.6991 1.5853 0.4607 0
M  V30 45 H 1.7831 0.5063 1.8716 0
M  V30 46 H 1.4318 -1.5034 0.3659 0
M  V30 47 H 1.3182 -0.4432 -1.0446 0
M  V30 48 H 5.9211 -1.7257 1.388 0
M  V30 49 H 5.3744 1.5729 -2.9494 0
M  V30 50 H 7.9964 -1.0322 0.3667 0
M  V30 51 H 7.8321 1.5657 -3.0397 0
M  V30 52 H 9.1435 0.2674 -1.3891 0
M  V30 END ATOM
M  V30 BEGIN BOND
M  V30 1 1 1 2
M  V30 2 2 2 3
M  V30 3 1 2 4
M  V30 4 1 3 5
M  V30 5 2 4 6
M  V30 6 2 5 7
M  V30 7 1 7 8
M  V30 8 2 8 9
M  V30 9 1 8 10
M  V30 10 1 10 11
M  V30 11 1 10 12
M  V30 12 1 11 13
M  V30 13 1 12 14
M  V30 14 1 13 15
M  V30 15 1 15 16
M  V30 16 1 16 17
M  V30 17 1 17 18
M  V30 18 1 18 19
M  V30 19 1 18 20
M  V30 20 2 19 21
M  V30 21 1 19 22
M  V30 22 2 20 23
M  V30 23 1 20 24
M  V30 24 1 22 25
M  V30 25 1 24 26
M  V30 26 1 25 27
M  V30 27 2 26 28
M  V30 28 2 27 29
M  V30 29 1 6 7
M  V30 30 1 14 15
M  V30 31 2 24 25
M  V30 32 1 28 29
M  V30 33 1 3 30
M  V30 34 1 4 31
M  V30 35 1 5 32
M  V30 36 1 6 33
M  V30 37 1 10 34
M  V30 38 1 11 35
M  V30 39 1 11 36
M  V30 40 1 12 37
M  V30 41 1 12 38
M  V30 42 1 13 39
M  V30 43 1 13 40
M  V30 44 1 14 41
M  V30 45 1 14 42
M  V30 46 1 15 43
M  V30 47 1 16 44
M  V30 48 1 16 45
M  V30 49 1 17 46
M  V30 50 1 17 47
M  V30 51 1 22 48
M  V30 52 1 26 49
M  V30 53 1 27 50
M  V30 54 1 28 51
M  V30 55 1 29 52
M  V30 END BOND
M  V30 BEGIN COLLECTION
M  V30 MDLV30/STEABS ATOMS=(2 10 15)
M  V30 END COLLECTION
M  V30 END CTAB
M  END
>  <Structure No>
5402

>  <LogS>
-4.5971

>  <MMFF94 Energy>
-13.966

$$$$
Compound 5403
Actelion Java MolfileCreator 2.0

  0  0  0  0  0  0              0 V3000
M  V30 BEGIN CTAB
M  V30 COUNTS 27 28 0 0 0
M  V30 BEGIN ATOM
M  V30 1 Cl -1.2248 -1.715 2.5325 0
M  V30 2 C -1.5288 -0.7734 1.0722 0
M  V30 3 C -2.7655 -0.8576 0.392 0
M  V30 4 C -0.4967 0.0359 0.5725 0
M  V30 5 N -3.7806 -1.7639 0.853 0
M  V30 6 C -2.9705 -0.0818 -0.7762 0
M  V30 7 O 0.7163 0.1087 1.2757 0
M  V30 8 C -0.7094 0.7879 -0.5914 0
M  V30 9 N -4.2348 -0.066 -1.4593 0 CHG=1
M  V30 10 C -1.929 0.7221 -1.2609 0
M  V30 11 C 1.9808 0.3024 0.7002 0
M  V30 12 O -5.2996 0.0055 -0.8114 0
M  V30 13 O -4.2755 0.1124 -2.8232 0 CHG=-1
M  V30 14 C 2.2918 -0.1651 -0.5906 0
M  V30 15 C 2.9736 0.9385 1.4563 0
M  V30 16 C 3.5703 0.0333 -1.1214 0
M  V30 17 C 4.2514 1.1358 0.9229 0
M  V30 18 C 4.5484 0.6867 -0.3666 0
M  V30 19 H -3.7358 -2.2064 1.7965 0
M  V30 20 H -4.5544 -2.0785 0.2281 0
M  V30 21 H 0.0604 1.4486 -0.968 0
M  V30 22 H -2.0737 1.3292 -2.1457 0
M  V30 23 H 1.5553 -0.6982 -1.1774 0
M  V30 24 H 2.7514 1.287 2.4571 0
M  V30 25 H 3.805 -0.326 -2.115 0
M  V30 26 H 5.0113 1.6352 1.5101 0
M  V30 27 H 5.538 0.8384 -0.778 0
M  V30 END ATOM
M  V30 BEGIN BOND
M  V30 1 1 1 2
M  V30 2 2 2 3
M  V30 3 1 2 4
M  V30 4 1 3 5
M  V30 5 1 3 6
M  V30 6 1 4 7
M  V30 7 2 4 8
M  V30 8 1 6 9
M  V30 9 2 6 10
M  V30 10 1 7 11
M  V30 11 2 9 12
M  V30 12 1 9 13
M  V30 13 2 11 14
M  V30 14 1 11 15
M  V30 15 1 14 16
M  V30 16 2 15 17
M  V30 17 2 16 18
M  V30 18 1 8 10
M  V30 19 1 17 18
M  V30 20 1 5 19
M  V30 21 1 5 20
M  V30 22 1 8 21
M  V30 23 1 10 22
M  V30 24 1 14 23
M  V30 25 1 15 24
M  V30 26 1 16 25
M  V30 27 1 17 26
M  V30 28 1 18 27
M  V30 END BOND
M  V30 END CTAB
M  END
>  <Structure No>
5403

>  <LogS>
-5.0248

>  <MMFF94 Energy>
113.33

$$$$
Compound 5404
Actelion Java MolfileCreator 2.0

  0  0  0  0  0  0              0 V3000
M  V30 BEGIN CTAB
M  V30 COUNTS 27 27 0 0 0
M  V30 BEGIN ATOM
M  V30 1 O 2.9763 -1.174 0.8608 0
M  V30 2 C 3.2631 -0.4207 -0.1087 0
M  V30 3 N 4.6249 -0.0467 -0.3376 0
M  V30 4 N 2.2403 0.0296 -1.0101 0
M  V30 5 N 5.647 -0.5053 0.5087 0
M  V30 6 C 0.8298 -0.1153 -0.7697 0
M  V30 7 C 0.2901 -0.0098 0.5239 0
M  V30 8 C -0.0362 -0.3072 -1.855 0
M  V30 9 C -1.0879 -0.1305 0.7286 0
M  V30 10 C -1.4133 -0.4288 -1.6502 0
M  V30 11 C -1.953 -0.3423 -0.362 0
M  V30 12 O -3.344 -0.4753 -0.2171 0
M  V30 13 C -4.0723 -0.3108 0.9998 0
M  V30 14 C -4.2113 1.1665 1.3514 0
M  V30 15 H 4.8611 0.548 -1.1645 0
M  V30 16 H 2.5442 0.4079 -1.9356 0
M  V30 17 H 6.5564 -0.1624 0.1232 0
M  V30 18 H 5.5181 -0.0333 1.4325 0
M  V30 19 H 0.9269 0.1906 1.3749 0
M  V30 20 H 0.3585 -0.3732 -2.861 0
M  V30 21 H -1.4649 -0.0512 1.738 0
M  V30 22 H -2.0665 -0.5876 -2.4989 0
M  V30 23 H -3.5944 -0.8749 1.8283 0
M  V30 24 H -5.0893 -0.7324 0.8564 0
M  V30 25 H -3.2163 1.6262 1.521 0
M  V30 26 H -4.8157 1.2742 2.2765 0
M  V30 27 H -4.7211 1.7046 0.5245 0
M  V30 END ATOM
M  V30 BEGIN BOND
M  V30 1 2 1 2
M  V30 2 1 2 3
M  V30 3 1 2 4
M  V30 4 1 3 5
M  V30 5 1 4 6
M  V30 6 2 6 7
M  V30 7 1 6 8
M  V30 8 1 7 9
M  V30 9 2 8 10
M  V30 10 2 9 11
M  V30 11 1 11 12
M  V30 12 1 12 13
M  V30 13 1 13 14
M  V30 14 1 10 11
M  V30 15 1 3 15
M  V30 16 1 4 16
M  V30 17 1 5 17
M  V30 18 1 5 18
M  V30 19 1 7 19
M  V30 20 1 8 20
M  V30 21 1 9 21
M  V30 22 1 10 22
M  V30 23 1 13 23
M  V30 24 1 13 24
M  V30 25 1 14 25
M  V30 26 1 14 26
M  V30 27 1 14 27
M  V30 END BOND
M  V30 END CTAB
M  END
>  <Structure No>
5404

>  <LogS>
-1.6471

>  <MMFF94 Energy>
17.462

$$$$
Compound 5405
Actelion Java MolfileCreator 2.0

  0  0  0  0  0  0              0 V3000
M  V30 BEGIN CTAB
M  V30 COUNTS 28 30 0 0 0
M  V30 BEGIN ATOM
M  V30 1 Cl 2.7581 -2.5071 -1.6709 0
M  V30 2 C 3.5342 -1.2315 -0.7357 0
M  V30 3 C 2.8081 -0.1814 -0.1179 0
M  V30 4 C 4.9334 -1.2494 -0.6623 0
M  V30 5 C 1.3254 -0.1134 -0.142 0
M  V30 6 C 3.5224 0.8366 0.5437 0
M  V30 7 C 5.6212 -0.2382 0.0091 0
M  V30 8 N 0.6927 1.0871 -0.0818 0
M  V30 9 N 0.57 -1.2408 -0.1757 0
M  V30 10 C 4.917 0.805 0.6081 0
M  V30 11 N -0.6375 1.1571 -0.0792 0
M  V30 12 N -0.76 -1.1707 -0.1731 0
M  V30 13 C -1.3928 0.0296 -0.1367 0
M  V30 14 C -2.8743 0.1174 -0.1067 0
M  V30 15 C -3.709 -0.8504 -0.7214 0
M  V30 16 C -3.4755 1.2047 0.5575 0
M  V30 17 Cl -3.0745 -2.2 -1.6593 0
M  V30 18 C -5.1021 -0.7216 -0.6427 0
M  V30 19 C -4.8656 1.3194 0.6271 0
M  V30 20 C -5.6776 0.3559 0.0312 0
M  V30 21 H 5.4922 -2.0462 -1.1367 0
M  V30 22 H 3.0002 1.6527 1.028 0
M  V30 23 H 6.7022 -0.2601 0.0593 0
M  V30 24 H 5.4522 1.5903 1.1261 0
M  V30 25 H -2.8688 1.9615 1.0395 0
M  V30 26 H -5.7433 -1.4551 -1.1148 0
M  V30 27 H -5.3137 2.1566 1.1471 0
M  V30 28 H -6.7547 0.4476 0.0855 0
M  V30 END ATOM
M  V30 BEGIN BOND
M  V30 1 1 1 2
M  V30 2 2 2 3
M  V30 3 1 2 4
M  V30 4 1 3 5
M  V30 5 1 3 6
M  V30 6 2 4 7
M  V30 7 2 5 8
M  V30 8 1 5 9
M  V30 9 2 6 10
M  V30 10 1 8 11
M  V30 11 2 9 12
M  V30 12 2 11 13
M  V30 13 1 13 14
M  V30 14 2 14 15
M  V30 15 1 14 16
M  V30 16 1 15 17
M  V30 17 1 15 18
M  V30 18 2 16 19
M  V30 19 2 18 20
M  V30 20 1 7 10
M  V30 21 1 12 13
M  V30 22 1 19 20
M  V30 23 1 4 21
M  V30 24 1 6 22
M  V30 25 1 7 23
M  V30 26 1 10 24
M  V30 27 1 16 25
M  V30 28 1 18 26
M  V30 29 1 19 27
M  V30 30 1 20 28
M  V30 END BOND
M  V30 END CTAB
M  END
>  <Structure No>
5405

>  <LogS>
-5.4817

>  <MMFF94 Energy>
129.32

$$$$
Compound 5406
Actelion Java MolfileCreator 2.0

  0  0  0  0  0  0              0 V3000
M  V30 BEGIN CTAB
M  V30 COUNTS 40 41 0 0 0
M  V30 BEGIN ATOM
M  V30 1 S 2.1311 1.0651 -1.475 0
M  V30 2 O 2.2216 -0.1918 -2.2945 0
M  V30 3 O 2.9399 2.1476 -2.1316 0
M  V30 4 N 0.4726 1.5647 -1.4263 0 CHG=-1
M  V30 5 C 2.7461 0.7862 0.1643 0
M  V30 6 C -0.5765 0.7028 -0.9806 0
M  V30 7 C 3.8856 -0.0209 0.4281 0
M  V30 8 C 2.0401 1.3488 1.2414 0
M  V30 9 O -0.3099 -0.4709 -0.6053 0
M  V30 10 N -1.925 1.1925 -0.9634 0
M  V30 11 C 4.7352 -0.5857 -0.6441 0
M  V30 12 C 4.2426 -0.2831 1.7642 0
M  V30 13 C 2.4228 1.0917 2.558 0
M  V30 14 C -3.0604 0.4403 -0.5091 0
M  V30 15 O 5.2648 -1.7206 -0.4886 0
M  V30 16 O 4.9954 0.1549 -1.8009 0
M  V30 17 C 3.5159 0.2696 2.8191 0
M  V30 18 N -4.2959 1.0076 -0.5472 0
M  V30 19 N -2.9193 -0.8284 -0.0376 0
M  V30 20 C 5.8038 -0.3365 -2.8625 0
M  V30 21 C -5.3976 0.3317 -0.1252 0
M  V30 22 C -3.9899 -1.5448 0.3959 0
M  V30 23 C -5.2642 -0.9715 0.3622 0
M  V30 24 C -6.7407 0.9874 -0.1757 0
M  V30 25 C -3.7979 -2.9347 0.9126 0
M  V30 26 H 1.1813 1.9832 1.067 0
M  V30 27 H -2.09 2.1677 -1.3007 0
M  V30 28 H 5.1031 -0.8998 1.9933 0
M  V30 29 H 1.8653 1.5261 3.3779 0
M  V30 30 H 3.8081 0.0679 3.8417 0
M  V30 31 H 5.3598 -1.2653 -3.2789 0
M  V30 32 H 5.8554 0.4279 -3.6645 0
M  V30 33 H 6.831 -0.5427 -2.4943 0
M  V30 34 H -6.1298 -1.5251 0.7066 0
M  V30 35 H -6.664 2.0004 -0.6248 0
M  V30 36 H -7.1498 1.0821 0.8519 0
M  V30 37 H -7.4342 0.3767 -0.7913 0
M  V30 38 H -4.4128 -3.6443 0.32 0
M  V30 39 H -2.7317 -3.2361 0.8347 0
M  V30 40 H -4.106 -2.9839 1.9782 0
M  V30 END ATOM
M  V30 BEGIN BOND
M  V30 1 2 1 2
M  V30 2 2 1 3
M  V30 3 1 1 4
M  V30 4 1 1 5
M  V30 5 1 4 6
M  V30 6 2 5 7
M  V30 7 1 5 8
M  V30 8 2 6 9
M  V30 9 1 6 10
M  V30 10 1 7 11
M  V30 11 1 7 12
M  V30 12 2 8 13
M  V30 13 1 10 14
M  V30 14 2 11 15
M  V30 15 1 11 16
M  V30 16 2 12 17
M  V30 17 2 14 18
M  V30 18 1 14 19
M  V30 19 1 16 20
M  V30 20 1 18 21
M  V30 21 2 19 22
M  V30 22 2 21 23
M  V30 23 1 21 24
M  V30 24 1 22 25
M  V30 25 1 13 17
M  V30 26 1 22 23
M  V30 27 1 8 26
M  V30 28 1 10 27
M  V30 29 1 12 28
M  V30 30 1 13 29
M  V30 31 1 17 30
M  V30 32 1 20 31
M  V30 33 1 20 32
M  V30 34 1 20 33
M  V30 35 1 23 34
M  V30 36 1 24 35
M  V30 37 1 24 36
M  V30 38 1 24 37
M  V30 39 1 25 38
M  V30 40 1 25 39
M  V30 41 1 25 40
M  V30 END BOND
M  V30 END CTAB
M  END
>  <Structure No>
5406

>  <LogS>
-3.1742

>  <MMFF94 Energy>
-48.856

$$$$
Compound 5407
Actelion Java MolfileCreator 2.0

  0  0  0  0  0  0              0 V3000
M  V30 BEGIN CTAB
M  V30 COUNTS 22 23 0 0 0
M  V30 BEGIN ATOM
M  V30 1 Cl 4.2473 -1.732 0.1731 0
M  V30 2 C 3.0122 -0.4993 -0.0902 0
M  V30 3 C 1.6456 -0.8269 0.0208 0
M  V30 4 C 3.3938 0.8166 -0.4051 0
M  V30 5 Cl 1.1764 -2.4653 0.4882 0
M  V30 6 C 0.6646 0.1685 -0.1928 0
M  V30 7 Cl 5.0877 1.2681 -0.5537 0
M  V30 8 C 2.4197 1.7978 -0.6004 0
M  V30 9 C -0.7823 -0.1315 -0.1058 0
M  V30 10 C 1.0668 1.4789 -0.493 0
M  V30 11 C -1.5975 0.5782 0.7919 0
M  V30 12 C -1.3623 -1.0976 -0.9452 0
M  V30 13 C -2.9692 0.3096 0.8633 0
M  V30 14 C -2.7327 -1.3636 -0.8713 0
M  V30 15 Cl -3.9787 1.1932 1.9935 0
M  V30 16 C -3.5354 -0.6628 0.0326 0
M  V30 17 H 2.711 2.8129 -0.8395 0
M  V30 18 H 0.3284 2.2546 -0.6578 0
M  V30 19 H -1.166 1.3321 1.4396 0
M  V30 20 H -0.7552 -1.6376 -1.6614 0
M  V30 21 H -3.1737 -2.1107 -1.5186 0
M  V30 22 H -4.5962 -0.8733 0.084 0
M  V30 END ATOM
M  V30 BEGIN BOND
M  V30 1 1 1 2
M  V30 2 2 2 3
M  V30 3 1 2 4
M  V30 4 1 3 5
M  V30 5 1 3 6
M  V30 6 1 4 7
M  V30 7 2 4 8
M  V30 8 1 6 9
M  V30 9 2 6 10
M  V30 10 2 9 11
M  V30 11 1 9 12
M  V30 12 1 11 13
M  V30 13 2 12 14
M  V30 14 1 13 15
M  V30 15 2 13 16
M  V30 16 1 8 10
M  V30 17 1 14 16
M  V30 18 1 8 17
M  V30 19 1 10 18
M  V30 20 1 11 19
M  V30 21 1 12 20
M  V30 22 1 14 21
M  V30 23 1 16 22
M  V30 END BOND
M  V30 END CTAB
M  END
>  <Structure No>
5407

>  <LogS>
-6.77

>  <MMFF94 Energy>
51.89

$$$$
Compound 5408
Actelion Java MolfileCreator 2.0

  0  0  0  0  0  0              0 V3000
M  V30 BEGIN CTAB
M  V30 COUNTS 22 23 0 0 0
M  V30 BEGIN ATOM
M  V30 1 Cl 1.3846 -2.4241 -0.5191 0
M  V30 2 C 1.7661 -0.7196 -0.2554 0
M  V30 3 C 3.1101 -0.3009 -0.2609 0
M  V30 4 C 0.7424 0.219 0.0112 0
M  V30 5 Cl 4.4192 -1.4304 -0.5861 0
M  V30 6 C 3.4296 1.0344 0.0031 0
M  V30 7 C -0.6867 -0.166 0.011 0
M  V30 8 C 1.0849 1.5532 0.2868 0
M  V30 9 C 2.4211 1.9585 0.2803 0
M  V30 10 C -1.4775 0.0556 1.1508 0
M  V30 11 C -1.2769 -0.7189 -1.1378 0
M  V30 12 Cl 2.832 3.6305 0.6165 0
M  V30 13 C -2.8322 -0.2903 1.1475 0
M  V30 14 C -2.6318 -1.0639 -1.1382 0
M  V30 15 C -3.41 -0.852 0.0044 0
M  V30 16 Cl -5.1099 -1.2846 0.0018 0
M  V30 17 H 4.4645 1.3532 -0.0012 0
M  V30 18 H 0.3102 2.2819 0.4943 0
M  V30 19 H -1.043 0.4886 2.0435 0
M  V30 20 H -0.6904 -0.874 -2.035 0
M  V30 21 H -3.4315 -0.1209 2.0331 0
M  V30 22 H -3.0762 -1.4914 -2.0278 0
M  V30 END ATOM
M  V30 BEGIN BOND
M  V30 1 1 1 2
M  V30 2 2 2 3
M  V30 3 1 2 4
M  V30 4 1 3 5
M  V30 5 1 3 6
M  V30 6 1 4 7
M  V30 7 2 4 8
M  V30 8 2 6 9
M  V30 9 2 7 10
M  V30 10 1 7 11
M  V30 11 1 9 12
M  V30 12 1 10 13
M  V30 13 2 11 14
M  V30 14 2 13 15
M  V30 15 1 15 16
M  V30 16 1 8 9
M  V30 17 1 14 15
M  V30 18 1 6 17
M  V30 19 1 8 18
M  V30 20 1 10 19
M  V30 21 1 11 20
M  V30 22 1 13 21
M  V30 23 1 14 22
M  V30 END BOND
M  V30 END CTAB
M  END
>  <Structure No>
5408

>  <LogS>
-6.77

>  <MMFF94 Energy>
39.453

$$$$
Compound 5409
Actelion Java MolfileCreator 2.0

  0  0  0  0  0  0              0 V3000
M  V30 BEGIN CTAB
M  V30 COUNTS 22 23 0 0 0
M  V30 BEGIN ATOM
M  V30 1 Cl -0.8842 -0.8842 -2.5658 0
M  V30 2 C -1.6025 -0.2485 -1.0816 0
M  V30 3 C -0.7865 0.1171 0.0116 0
M  V30 4 C -2.9991 -0.1306 -0.9809 0
M  V30 5 C -1.3818 0.5978 1.1987 0
M  V30 6 C 0.6837 -0.0034 -0.0858 0
M  V30 7 Cl -4.0542 -0.5777 -2.3163 0
M  V30 8 C -3.5778 0.3454 0.1971 0
M  V30 9 Cl -0.3816 1.0918 2.5691 0
M  V30 10 C -2.7801 0.7087 1.2838 0
M  V30 11 C 1.36 -1.0003 0.6349 0
M  V30 12 C 1.4125 0.8785 -0.899 0
M  V30 13 Cl -3.5641 1.3059 2.7415 0
M  V30 14 C 2.7519 -1.1126 0.5428 0
M  V30 15 C 2.8028 0.7635 -0.9896 0
M  V30 16 Cl 3.5928 -2.3593 1.4458 0
M  V30 17 C 3.4723 -0.2304 -0.2698 0
M  V30 18 H -4.6549 0.4335 0.2686 0
M  V30 19 H 0.8056 -1.6868 1.2636 0
M  V30 20 H 0.9037 1.6539 -1.4588 0
M  V30 21 H 3.3617 1.4453 -1.6174 0
M  V30 22 H 4.5491 -0.3139 -0.344 0
M  V30 END ATOM
M  V30 BEGIN BOND
M  V30 1 1 1 2
M  V30 2 2 2 3
M  V30 3 1 2 4
M  V30 4 1 3 5
M  V30 5 1 3 6
M  V30 6 1 4 7
M  V30 7 2 4 8
M  V30 8 1 5 9
M  V30 9 2 5 10
M  V30 10 2 6 11
M  V30 11 1 6 12
M  V30 12 1 10 13
M  V30 13 1 11 14
M  V30 14 2 12 15
M  V30 15 1 14 16
M  V30 16 2 14 17
M  V30 17 1 8 10
M  V30 18 1 15 17
M  V30 19 1 8 18
M  V30 20 1 11 19
M  V30 21 1 12 20
M  V30 22 1 15 21
M  V30 23 1 17 22
M  V30 END BOND
M  V30 END CTAB
M  END
>  <Structure No>
5409

>  <LogS>
-7.76

>  <MMFF94 Energy>
47.632

$$$$
Compound 5410
Actelion Java MolfileCreator 2.0

  0  0  0  0  0  0              0 V3000
M  V30 BEGIN CTAB
M  V30 COUNTS 22 23 0 0 0
M  V30 BEGIN ATOM
M  V30 1 Cl 3.7183 2.4778 -1.2383 0
M  V30 2 C 2.8168 1.0653 -0.683 0
M  V30 3 C 3.4978 -0.1315 -0.3943 0
M  V30 4 C 1.419 1.1387 -0.5228 0
M  V30 5 Cl 5.248 -0.2302 -0.5938 0
M  V30 6 C 2.7811 -1.2496 0.0602 0
M  V30 7 Cl 0.5853 2.6686 -0.8192 0
M  V30 8 C 0.7023 0.0059 -0.0794 0
M  V30 9 Cl 3.5927 -2.7639 0.4389 0
M  V30 10 C 1.396 -1.1755 0.2171 0
M  V30 11 C -0.7684 0.0298 0.0853 0
M  V30 12 C -1.6043 0.316 -1.0071 0
M  V30 13 C -1.3443 -0.2735 1.3303 0
M  V30 14 C -2.9936 0.3192 -0.8501 0
M  V30 15 C -2.7339 -0.2694 1.4842 0
M  V30 16 C -3.5595 0.0287 0.3954 0
M  V30 17 Cl -5.3026 0.0323 0.5903 0
M  V30 18 H 0.8544 -2.0493 0.5598 0
M  V30 19 H -1.1805 0.528 -1.9809 0
M  V30 20 H -0.7168 -0.5049 2.1822 0
M  V30 21 H -3.6287 0.5435 -1.6976 0
M  V30 22 H -3.1675 -0.4987 2.4493 0
M  V30 END ATOM
M  V30 BEGIN BOND
M  V30 1 1 1 2
M  V30 2 2 2 3
M  V30 3 1 2 4
M  V30 4 1 3 5
M  V30 5 1 3 6
M  V30 6 1 4 7
M  V30 7 2 4 8
M  V30 8 1 6 9
M  V30 9 2 6 10
M  V30 10 1 8 11
M  V30 11 2 11 12
M  V30 12 1 11 13
M  V30 13 1 12 14
M  V30 14 2 13 15
M  V30 15 2 14 16
M  V30 16 1 16 17
M  V30 17 1 8 10
M  V30 18 1 15 16
M  V30 19 1 10 18
M  V30 20 1 12 19
M  V30 21 1 13 20
M  V30 22 1 14 21
M  V30 23 1 15 22
M  V30 END BOND
M  V30 END CTAB
M  END
>  <Structure No>
5410

>  <LogS>
-7.3102

>  <MMFF94 Energy>
53.536

$$$$
Compound 5411
Actelion Java MolfileCreator 2.0

  0  0  0  0  0  0              0 V3000
M  V30 BEGIN CTAB
M  V30 COUNTS 22 23 0 0 0
M  V30 BEGIN ATOM
M  V30 1 Cl 0.7958 -2.5658 0.7073 0
M  V30 2 C 1.5697 -1.0548 0.2153 0
M  V30 3 C 2.9741 -0.9822 0.1412 0
M  V30 4 C 0.7877 0.0848 -0.0766 0
M  V30 5 Cl 3.9591 -2.3998 0.5072 0
M  V30 6 C 3.5935 0.2249 -0.2222 0
M  V30 7 C 1.4244 1.289 -0.439 0
M  V30 8 C -0.6874 0.019 -0.0045 0
M  V30 9 Cl 5.3446 0.3592 -0.3279 0
M  V30 10 C 2.8177 1.3496 -0.5088 0
M  V30 11 Cl 0.5036 2.7351 -0.8452 0
M  V30 12 C -1.3756 0.689 1.0192 0
M  V30 13 C -1.41 -0.7123 -0.9601 0
M  V30 14 C -2.771 0.6269 1.0858 0
M  V30 15 C -2.8052 -0.7732 -0.891 0
M  V30 16 C -3.4869 -0.1039 0.1313 0
M  V30 17 Cl -5.2372 -0.181 0.2163 0
M  V30 18 H 3.3011 2.2765 -0.7923 0
M  V30 19 H -0.8312 1.2557 1.7647 0
M  V30 20 H -0.8925 -1.2316 -1.7574 0
M  V30 21 H -3.2941 1.1461 1.8788 0
M  V30 22 H -3.355 -1.3393 -1.6321 0
M  V30 END ATOM
M  V30 BEGIN BOND
M  V30 1 1 1 2
M  V30 2 2 2 3
M  V30 3 1 2 4
M  V30 4 1 3 5
M  V30 5 1 3 6
M  V30 6 2 4 7
M  V30 7 1 4 8
M  V30 8 1 6 9
M  V30 9 2 6 10
M  V30 10 1 7 11
M  V30 11 2 8 12
M  V30 12 1 8 13
M  V30 13 1 12 14
M  V30 14 2 13 15
M  V30 15 2 14 16
M  V30 16 1 16 17
M  V30 17 1 7 10
M  V30 18 1 15 16
M  V30 19 1 10 18
M  V30 20 1 12 19
M  V30 21 1 13 20
M  V30 22 1 14 21
M  V30 23 1 15 22
M  V30 END BOND
M  V30 END CTAB
M  END
>  <Structure No>
5411

>  <LogS>
-7.95

>  <MMFF94 Energy>
47.111

$$$$
Compound 5412
Actelion Java MolfileCreator 2.0

  0  0  0  0  0  0              0 V3000
M  V30 BEGIN CTAB
M  V30 COUNTS 22 23 0 0 0
M  V30 BEGIN ATOM
M  V30 1 Cl 0.5416 -1.8063 2.0775 0
M  V30 2 C 1.4402 -0.7724 0.9605 0
M  V30 3 C 2.8468 -0.7389 1.019 0
M  V30 4 C 0.753 0.0386 0.0302 0
M  V30 5 Cl 3.7134 -1.7464 2.1799 0
M  V30 6 C 3.5626 0.1028 0.1519 0
M  V30 7 C 1.4857 0.8788 -0.8322 0
M  V30 8 C -0.7234 0.0095 -0.0414 0
M  V30 9 Cl 5.3202 0.175 0.1908 0
M  V30 10 C 2.8802 0.9044 -0.765 0
M  V30 11 Cl 0.6881 1.8905 -2.034 0
M  V30 12 C -1.4736 1.1116 0.3957 0
M  V30 13 C -1.3835 -1.1187 -0.549 0
M  V30 14 C -2.8717 1.0884 0.3272 0
M  V30 15 C -2.7789 -1.1447 -0.6175 0
M  V30 16 Cl -3.7746 2.4906 0.885 0
M  V30 17 C -3.5278 -0.0456 -0.1816 0
M  V30 18 Cl -5.2819 -0.1153 -0.2844 0
M  V30 19 H 3.438 1.5486 -1.4334 0
M  V30 20 H -0.9702 1.9861 0.7908 0
M  V30 21 H -0.8167 -1.9753 -0.8928 0
M  V30 22 H -3.2779 -2.0211 -1.0113 0
M  V30 END ATOM
M  V30 BEGIN BOND
M  V30 1 1 1 2
M  V30 2 2 2 3
M  V30 3 1 2 4
M  V30 4 1 3 5
M  V30 5 1 3 6
M  V30 6 2 4 7
M  V30 7 1 4 8
M  V30 8 1 6 9
M  V30 9 2 6 10
M  V30 10 1 7 11
M  V30 11 2 8 12
M  V30 12 1 8 13
M  V30 13 1 12 14
M  V30 14 2 13 15
M  V30 15 1 14 16
M  V30 16 2 14 17
M  V30 17 1 17 18
M  V30 18 1 7 10
M  V30 19 1 15 17
M  V30 20 1 10 19
M  V30 21 1 12 20
M  V30 22 1 13 21
M  V30 23 1 15 22
M  V30 END BOND
M  V30 END CTAB
M  END
>  <Structure No>
5412

>  <LogS>
-7.6505

>  <MMFF94 Energy>
53.684

$$$$
Compound 5413
Actelion Java MolfileCreator 2.0

  0  0  0  0  0  0              0 V3000
M  V30 BEGIN CTAB
M  V30 COUNTS 22 23 0 0 0
M  V30 BEGIN ATOM
M  V30 1 Cl 0.9028 -2.5292 -0.9931 0
M  V30 2 C 1.562 -1.0878 -0.2126 0
M  V30 3 C 0.7166 -0.0144 0.1445 0
M  V30 4 C 2.943 -0.9999 0.0309 0
M  V30 5 C 1.2668 1.1402 0.7433 0
M  V30 6 C -0.7376 -0.0986 -0.1075 0
M  V30 7 Cl 4.0336 -2.311 -0.4007 0
M  V30 8 C 3.4771 0.1459 0.623 0
M  V30 9 Cl 0.2264 2.4834 1.2281 0
M  V30 10 C 2.6501 1.2128 0.9789 0
M  V30 11 C -1.3254 0.6798 -1.1157 0
M  V30 12 C -1.5384 -0.9564 0.6597 0
M  V30 13 Cl 3.3781 2.63 1.7255 0
M  V30 14 C -2.7024 0.6035 -1.3562 0
M  V30 15 C -2.9128 -1.0348 0.4211 0
M  V30 16 Cl -3.4001 1.5964 -2.6285 0
M  V30 17 C -3.5002 -0.2582 -0.584 0
M  V30 18 Cl -5.233 -0.3838 -0.8542 0
M  V30 19 H 4.5424 0.2079 0.8076 0
M  V30 20 H -0.7121 1.3432 -1.7135 0
M  V30 21 H -1.0978 -1.5612 1.4428 0
M  V30 22 H -3.5216 -1.7003 1.0197 0
M  V30 END ATOM
M  V30 BEGIN BOND
M  V30 1 1 1 2
M  V30 2 2 2 3
M  V30 3 1 2 4
M  V30 4 1 3 5
M  V30 5 1 3 6
M  V30 6 1 4 7
M  V30 7 2 4 8
M  V30 8 1 5 9
M  V30 9 2 5 10
M  V30 10 2 6 11
M  V30 11 1 6 12
M  V30 12 1 10 13
M  V30 13 1 11 14
M  V30 14 2 12 15
M  V30 15 1 14 16
M  V30 16 2 14 17
M  V30 17 1 17 18
M  V30 18 1 8 10
M  V30 19 1 15 17
M  V30 20 1 8 19
M  V30 21 1 11 20
M  V30 22 1 12 21
M  V30 23 1 15 22
M  V30 END BOND
M  V30 END CTAB
M  END
>  <Structure No>
5413

>  <LogS>
-8.48

>  <MMFF94 Energy>
56.903

$$$$
Compound 5414
Actelion Java MolfileCreator 2.0

  0  0  0  0  0  0              0 V3000
M  V30 BEGIN CTAB
M  V30 COUNTS 22 23 0 0 0
M  V30 BEGIN ATOM
M  V30 1 Cl -0.6319 1.8061 -2.258 0
M  V30 2 C -1.5017 0.7077 -1.182 0
M  V30 3 C -0.8012 -0.0821 -0.2421 0
M  V30 4 C -2.9008 0.5993 -1.2811 0
M  V30 5 C -1.5164 -0.9732 0.5857 0
M  V30 6 C 0.6687 0.0226 -0.1247 0
M  V30 7 Cl -3.8137 1.5599 -2.4383 0
M  V30 8 C -3.5941 -0.2873 -0.4533 0
M  V30 9 Cl -0.7055 -1.9606 1.7983 0
M  V30 10 C -2.9061 -1.0688 0.4738 0
M  V30 11 C 1.4865 -1.0344 -0.545 0
M  V30 12 C 1.2528 1.1791 0.4089 0
M  V30 13 C 2.8778 -0.9403 -0.4347 0
M  V30 14 C 2.6433 1.2826 0.5218 0
M  V30 15 Cl 3.8613 -2.2943 -0.9759 0
M  V30 16 C 3.4642 0.2211 0.0999 0
M  V30 17 Cl 3.3285 2.7552 1.1972 0
M  V30 18 Cl 5.2173 0.3458 0.2405 0
M  V30 19 H -4.6709 -0.3721 -0.5279 0
M  V30 20 H -3.4575 -1.7486 1.1112 0
M  V30 21 H 1.0407 -1.9303 -0.9605 0
M  V30 22 H 0.6255 1.9988 0.7387 0
M  V30 END ATOM
M  V30 BEGIN BOND
M  V30 1 1 1 2
M  V30 2 2 2 3
M  V30 3 1 2 4
M  V30 4 1 3 5
M  V30 5 1 3 6
M  V30 6 1 4 7
M  V30 7 2 4 8
M  V30 8 1 5 9
M  V30 9 2 5 10
M  V30 10 2 6 11
M  V30 11 1 6 12
M  V30 12 1 11 13
M  V30 13 2 12 14
M  V30 14 1 13 15
M  V30 15 2 13 16
M  V30 16 1 14 17
M  V30 17 1 16 18
M  V30 18 1 8 10
M  V30 19 1 14 16
M  V30 20 1 8 19
M  V30 21 1 10 20
M  V30 22 1 11 21
M  V30 23 1 12 22
M  V30 END BOND
M  V30 END CTAB
M  END
>  <Structure No>
5414

>  <LogS>
-8.27

>  <MMFF94 Energy>
57.544

$$$$
Compound 5415
Actelion Java MolfileCreator 2.0

  0  0  0  0  0  0              0 V3000
M  V30 BEGIN CTAB
M  V30 COUNTS 22 23 0 0 0
M  V30 BEGIN ATOM
M  V30 1 Cl 0.6316 -0.1804 2.7091 0
M  V30 2 C 1.4705 -0.0204 1.1623 0
M  V30 3 C 0.7415 0.0644 -0.0442 0
M  V30 4 C 2.8736 0.0482 1.1371 0
M  V30 5 C 1.4299 0.2184 -1.2677 0
M  V30 6 C -0.7349 -0.0075 -0.0266 0
M  V30 7 Cl 3.8216 -0.0495 2.6161 0
M  V30 8 C 3.5445 0.2011 -0.0776 0
M  V30 9 Cl 0.5428 0.2942 -2.794 0
M  V30 10 C 2.8332 0.2866 -1.2757 0
M  V30 11 C -1.501 1.1379 -0.2931 0
M  V30 12 C -1.3794 -1.2216 0.2566 0
M  V30 13 Cl 3.7319 0.4745 -2.7766 0
M  V30 14 C -2.8983 1.0687 -0.2768 0
M  V30 15 C -2.7767 -1.2886 0.2735 0
M  V30 16 Cl -3.8511 2.5029 -0.6114 0
M  V30 17 C -3.5354 -0.144 0.0066 0
M  V30 18 Cl -3.5771 -2.8083 0.629 0
M  V30 19 H 4.6261 0.2538 -0.0903 0
M  V30 20 H -1.012 2.0799 -0.5106 0
M  V30 21 H -0.796 -2.1112 0.4614 0
M  V30 22 H -4.6169 -0.1966 0.0196 0
M  V30 END ATOM
M  V30 BEGIN BOND
M  V30 1 1 1 2
M  V30 2 2 2 3
M  V30 3 1 2 4
M  V30 4 1 3 5
M  V30 5 1 3 6
M  V30 6 1 4 7
M  V30 7 2 4 8
M  V30 8 1 5 9
M  V30 9 2 5 10
M  V30 10 2 6 11
M  V30 11 1 6 12
M  V30 12 1 10 13
M  V30 13 1 11 14
M  V30 14 2 12 15
M  V30 15 1 14 16
M  V30 16 2 14 17
M  V30 17 1 15 18
M  V30 18 1 8 10
M  V30 19 1 15 17
M  V30 20 1 8 19
M  V30 21 1 11 20
M  V30 22 1 12 21
M  V30 23 1 17 22
M  V30 END BOND
M  V30 END CTAB
M  END
>  <Structure No>
5415

>  <LogS>
-8.2696

>  <MMFF94 Energy>
36.489

$$$$
Compound 5416
Actelion Java MolfileCreator 2.0

  0  0  0  0  0  0              0 V3000
M  V30 BEGIN CTAB
M  V30 COUNTS 22 23 0 0 0
M  V30 BEGIN ATOM
M  V30 1 Cl 5.2626 0.2765 0.8297 0
M  V30 2 C 3.523 0.1977 0.539 0
M  V30 3 C 2.6733 1.1704 1.0943 0
M  V30 4 C 2.9883 -0.8374 -0.2472 0
M  V30 5 Cl 3.3461 2.4698 2.082 0
M  V30 6 C 1.288 1.1085 0.864 0
M  V30 7 Cl 4.0567 -2.0582 -0.9435 0
M  V30 8 C 1.6035 -0.9014 -0.479 0
M  V30 9 Cl 0.2221 2.3319 1.5653 0
M  V30 10 C 0.7508 0.0714 0.0775 0
M  V30 11 Cl 0.9342 -2.2058 -1.4664 0
M  V30 12 C -0.7059 0.0032 -0.1623 0
M  V30 13 C -1.5537 -0.7098 0.708 0
M  V30 14 C -1.2504 0.6603 -1.276 0
M  V30 15 Cl -0.9191 -1.5504 2.1181 0
M  V30 16 C -2.9299 -0.7567 0.4551 0
M  V30 17 C -2.6249 0.6089 -1.5215 0
M  V30 18 C -3.4654 -0.099 -0.657 0
M  V30 19 Cl -5.1906 -0.1622 -0.9675 0
M  V30 20 H -0.6091 1.212 -1.9525 0
M  V30 21 H -3.5833 -1.3042 1.1229 0
M  V30 22 H -3.0355 1.1192 -2.3835 0
M  V30 END ATOM
M  V30 BEGIN BOND
M  V30 1 1 1 2
M  V30 2 2 2 3
M  V30 3 1 2 4
M  V30 4 1 3 5
M  V30 5 1 3 6
M  V30 6 1 4 7
M  V30 7 2 4 8
M  V30 8 1 6 9
M  V30 9 2 6 10
M  V30 10 1 8 11
M  V30 11 1 10 12
M  V30 12 2 12 13
M  V30 13 1 12 14
M  V30 14 1 13 15
M  V30 15 1 13 16
M  V30 16 2 14 17
M  V30 17 2 16 18
M  V30 18 1 18 19
M  V30 19 1 8 10
M  V30 20 1 17 18
M  V30 21 1 14 20
M  V30 22 1 16 21
M  V30 23 1 17 22
M  V30 END BOND
M  V30 END CTAB
M  END
>  <Structure No>
5416

>  <LogS>
-8.9706

>  <MMFF94 Energy>
52.519

$$$$
Compound 5417
Actelion Java MolfileCreator 2.0

  0  0  0  0  0  0              0 V3000
M  V30 BEGIN CTAB
M  V30 COUNTS 22 23 0 0 0
M  V30 BEGIN ATOM
M  V30 1 Cl -0.7372 1.936 -2.0283 0
M  V30 2 C -1.5282 0.7867 -0.943 0
M  V30 3 C -2.9339 0.7037 -0.9188 0
M  V30 4 C -0.7568 -0.065 -0.1215 0
M  V30 5 Cl -3.9057 1.762 -1.9433 0
M  V30 6 C -3.5649 -0.2277 -0.0779 0
M  V30 7 C -1.4049 -0.9951 0.7159 0
M  V30 8 C 0.7193 0.0158 -0.1369 0
M  V30 9 Cl -5.3181 -0.3644 -0.0162 0
M  V30 10 C -2.7994 -1.0692 0.7314 0
M  V30 11 Cl -0.4994 -2.0625 1.7859 0
M  V30 12 C 1.4761 -1.0193 -0.7017 0
M  V30 13 C 1.3704 1.1273 0.4148 0
M  V30 14 C 2.8731 -0.9478 -0.7172 0
M  V30 15 C 2.767 1.2079 0.4026 0
M  V30 16 Cl 3.7787 -2.2727 -1.4372 0
M  V30 17 C 3.5267 0.1686 -0.1644 0
M  V30 18 Cl 3.5374 2.624 1.1065 0
M  V30 19 Cl 5.2873 0.2645 -0.1818 0
M  V30 20 H -3.2919 -1.7827 1.3805 0
M  V30 21 H 0.9781 -1.8803 -1.1316 0
M  V30 22 H 0.7906 1.9295 0.8559 0
M  V30 END ATOM
M  V30 BEGIN BOND
M  V30 1 1 1 2
M  V30 2 2 2 3
M  V30 3 1 2 4
M  V30 4 1 3 5
M  V30 5 1 3 6
M  V30 6 2 4 7
M  V30 7 1 4 8
M  V30 8 1 6 9
M  V30 9 2 6 10
M  V30 10 1 7 11
M  V30 11 2 8 12
M  V30 12 1 8 13
M  V30 13 1 12 14
M  V30 14 2 13 15
M  V30 15 1 14 16
M  V30 16 2 14 17
M  V30 17 1 15 18
M  V30 18 1 17 19
M  V30 19 1 7 10
M  V30 20 1 15 17
M  V30 21 1 10 20
M  V30 22 1 12 21
M  V30 23 1 13 22
M  V30 END BOND
M  V30 END CTAB
M  END
>  <Structure No>
5417

>  <LogS>
-9.1

>  <MMFF94 Energy>
53.711

$$$$
Compound 5418
Actelion Java MolfileCreator 2.0

  0  0  0  0  0  0              0 V3000
M  V30 BEGIN CTAB
M  V30 COUNTS 22 23 0 0 0
M  V30 BEGIN ATOM
M  V30 1 Cl -5.2749 0.094 0.094 0
M  V30 2 C -3.5103 0.1269 0.0496 0
M  V30 3 C -2.8287 -0.3031 -1.102 0
M  V30 4 C -2.788 0.5833 1.1659 0
M  V30 5 Cl -3.7375 -0.8758 -2.503 0
M  V30 6 C -1.4239 -0.2775 -1.1388 0
M  V30 7 Cl -3.6457 1.1233 2.6116 0
M  V30 8 C -1.3831 0.6101 1.1318 0
M  V30 9 Cl -0.5695 -0.8189 -2.5882 0
M  V30 10 C -0.6989 0.1794 -0.0212 0
M  V30 11 Cl -0.4775 1.1844 2.5369 0
M  V30 12 C 0.7809 0.2071 -0.0585 0
M  V30 13 C 1.5234 -0.9134 0.3665 0
M  V30 14 C 1.4589 1.3542 -0.5193 0
M  V30 15 Cl 0.728 -2.3715 0.9513 0
M  V30 16 C 2.9215 -0.8803 0.3285 0
M  V30 17 Cl 0.5813 2.7811 -1.0616 0
M  V30 18 C 2.8574 1.3732 -0.5518 0
M  V30 19 C 3.5875 0.2594 -0.1291 0
M  V30 20 Cl 5.3408 0.2921 -0.1734 0
M  V30 21 H 3.4909 -1.7415 0.6552 0
M  V30 22 H 3.3772 2.2547 -0.9058 0
M  V30 END ATOM
M  V30 BEGIN BOND
M  V30 1 1 1 2
M  V30 2 2 2 3
M  V30 3 1 2 4
M  V30 4 1 3 5
M  V30 5 1 3 6
M  V30 6 1 4 7
M  V30 7 2 4 8
M  V30 8 1 6 9
M  V30 9 2 6 10
M  V30 10 1 8 11
M  V30 11 1 10 12
M  V30 12 2 12 13
M  V30 13 1 12 14
M  V30 14 1 13 15
M  V30 15 1 13 16
M  V30 16 1 14 17
M  V30 17 2 14 18
M  V30 18 2 16 19
M  V30 19 1 19 20
M  V30 20 1 8 10
M  V30 21 1 18 19
M  V30 22 1 16 21
M  V30 23 1 18 22
M  V30 END BOND
M  V30 END CTAB
M  END
>  <Structure No>
5418

>  <LogS>
-9.48

>  <MMFF94 Energy>
39.779

$$$$
Compound 5419
Actelion Java MolfileCreator 2.0

  0  0  0  0  0  0              0 V3000
M  V30 BEGIN CTAB
M  V30 COUNTS 22 23 0 0 0
M  V30 BEGIN ATOM
M  V30 1 Cl 5.3712 0.2822 -0.2822 0
M  V30 2 C 3.6104 0.195 -0.1809 0
M  V30 3 C 2.8273 0.4718 -1.3147 0
M  V30 4 C 2.9931 -0.1508 1.0332 0
M  V30 5 Cl 3.6059 0.9031 -2.8396 0
M  V30 6 C 1.4254 0.4024 -1.2363 0
M  V30 7 Cl 3.9795 -0.4946 2.4567 0
M  V30 8 C 1.5914 -0.2201 1.1161 0
M  V30 9 Cl 0.4501 0.7213 -2.6762 0
M  V30 10 C 0.803 0.0562 -0.0194 0
M  V30 11 Cl 0.8233 -0.6253 2.6564 0
M  V30 12 C -0.6714 -0.0167 0.0652 0
M  V30 13 C -1.4369 1.1567 0.0519 0
M  V30 14 C -1.311 -1.2596 0.1593 0
M  V30 15 C -2.8322 1.0924 0.1314 0
M  V30 16 C -2.7057 -1.3334 0.2404 0
M  V30 17 Cl -3.7495 2.5932 0.1101 0
M  V30 18 C -3.4748 -0.1554 0.2266 0
M  V30 19 Cl -3.4623 -2.917 0.3582 0
M  V30 20 Cl -5.233 -0.2424 0.3277 0
M  V30 21 H -0.9472 2.1206 -0.0186 0
M  V30 22 H -0.7239 -2.1701 0.1683 0
M  V30 END ATOM
M  V30 BEGIN BOND
M  V30 1 1 1 2
M  V30 2 2 2 3
M  V30 3 1 2 4
M  V30 4 1 3 5
M  V30 5 1 3 6
M  V30 6 1 4 7
M  V30 7 2 4 8
M  V30 8 1 6 9
M  V30 9 2 6 10
M  V30 10 1 8 11
M  V30 11 1 10 12
M  V30 12 2 12 13
M  V30 13 1 12 14
M  V30 14 1 13 15
M  V30 15 2 14 16
M  V30 16 1 15 17
M  V30 17 2 15 18
M  V30 18 1 16 19
M  V30 19 1 18 20
M  V30 20 1 8 10
M  V30 21 1 16 18
M  V30 22 1 13 21
M  V30 23 1 14 22
M  V30 END BOND
M  V30 END CTAB
M  END
>  <Structure No>
5419

>  <LogS>
-9.6997

>  <MMFF94 Energy>
65.432

$$$$
Compound 5420
Actelion Java MolfileCreator 2.0

  0  0  0  0  0  0              0 V3000
M  V30 BEGIN CTAB
M  V30 COUNTS 22 23 0 0 0
M  V30 BEGIN ATOM
M  V30 1 Cl 0.6447 -2.0273 1.8429 0
M  V30 2 C 1.4639 -0.9151 0.7426 0
M  V30 3 C 0.7182 -0.0142 -0.0463 0
M  V30 4 C 2.8657 -0.9262 0.6517 0
M  V30 5 C 1.3837 0.8694 -0.9215 0
M  V30 6 C -0.7589 0.0034 0.0438 0
M  V30 7 Cl 3.8356 -2.032 1.6166 0
M  V30 8 C 3.5167 -0.048 -0.2173 0
M  V30 9 Cl 0.4635 2.0027 -1.9156 0
M  V30 10 C 2.7859 0.8468 -1.0019 0
M  V30 11 C -1.4039 0.8429 0.9749 0
M  V30 12 C -1.5323 -0.8188 -0.8004 0
M  V30 13 Cl 3.6575 1.9304 -2.0792 0
M  V30 14 Cl -0.4871 1.8901 2.0533 0
M  V30 15 C -2.8006 0.8546 1.0547 0
M  V30 16 Cl -0.7789 -1.8859 -1.9805 0
M  V30 17 C -2.9282 -0.7968 -0.7094 0
M  V30 18 C -3.5615 0.0373 0.2152 0
M  V30 19 Cl -5.3121 0.0583 0.3223 0
M  V30 20 H 4.5974 -0.0609 -0.2833 0
M  V30 21 H -3.2951 1.4998 1.7702 0
M  V30 22 H -3.5214 -1.4289 -1.3583 0
M  V30 END ATOM
M  V30 BEGIN BOND
M  V30 1 1 1 2
M  V30 2 2 2 3
M  V30 3 1 2 4
M  V30 4 1 3 5
M  V30 5 1 3 6
M  V30 6 1 4 7
M  V30 7 2 4 8
M  V30 8 1 5 9
M  V30 9 2 5 10
M  V30 10 2 6 11
M  V30 11 1 6 12
M  V30 12 1 10 13
M  V30 13 1 11 14
M  V30 14 1 11 15
M  V30 15 1 12 16
M  V30 16 2 12 17
M  V30 17 2 15 18
M  V30 18 1 18 19
M  V30 19 1 8 10
M  V30 20 1 17 18
M  V30 21 1 8 20
M  V30 22 1 15 21
M  V30 23 1 17 22
M  V30 END BOND
M  V30 END CTAB
M  END
>  <Structure No>
5420

>  <LogS>
-8.4901

>  <MMFF94 Energy>
31.75

$$$$
Compound 5421
Actelion Java MolfileCreator 2.0

  0  0  0  0  0  0              0 V3000
M  V30 BEGIN CTAB
M  V30 COUNTS 11 10 0 0 0
M  V30 BEGIN ATOM
M  V30 1 Cl -0.2969 -2.2776 0.0989 0
M  V30 2 C -0.0055 -0.62 -0.4836 0
M  V30 3 S -1.3881 0.4215 -0.0434 0
M  V30 4 S 1.5121 0.0032 0.2216 0
M  V30 5 O -2.6412 -0.1234 -0.6683 0
M  V30 6 O -1.1553 1.8182 -0.5464 0
M  V30 7 O -1.5741 0.4553 1.626 0 CHG=-1
M  V30 8 O 1.4038 0.0542 1.7197 0
M  V30 9 O 1.7908 1.3826 -0.305 0
M  V30 10 O 2.7791 -1.0133 -0.2057 0 CHG=-1
M  V30 11 H 0.093 -0.6425 -1.5887 0
M  V30 END ATOM
M  V30 BEGIN BOND
M  V30 1 1 1 2
M  V30 2 1 2 3
M  V30 3 1 2 4
M  V30 4 2 3 5
M  V30 5 2 3 6
M  V30 6 1 3 7
M  V30 7 2 4 8
M  V30 8 2 4 9
M  V30 9 1 4 10
M  V30 10 1 2 11
M  V30 END BOND
M  V30 END CTAB
M  END
>  <Structure No>
5421

>  <LogS>
0.6765

>  <MMFF94 Energy>
159.38

$$$$
Compound 5422
Actelion Java MolfileCreator 2.0

  0  0  0  0  0  0              0 V3000
M  V30 BEGIN CTAB
M  V30 COUNTS 21 22 0 0 0
M  V30 BEGIN ATOM
M  V30 1 Cl 1.3331 -2.3338 1.083 0
M  V30 2 C 1.5695 -0.6671 0.5487 0
M  V30 3 C 2.8708 -0.1293 0.5193 0
M  V30 4 C 0.4792 0.1141 0.0986 0
M  V30 5 Cl 4.2599 -1.0623 1.0633 0
M  V30 6 C 3.0824 1.1682 0.0441 0
M  V30 7 C -0.9103 -0.3951 0.1307 0
M  V30 8 C 0.716 1.4131 -0.3818 0
M  V30 9 C 2.0093 1.9351 -0.4074 0
M  V30 10 C -1.8474 -0.3479 -0.8883 0
M  V30 11 C -1.5556 -0.9615 1.2166 0
M  V30 12 C -1.6509 0.1339 -2.2299 0
M  V30 13 C -3.0107 -0.8975 -0.3928 0
M  V30 14 N -2.8259 -1.2657 0.8884 0
M  V30 15 N -1.492 0.5217 -3.3083 0
M  V30 16 H 4.0821 1.5831 0.0205 0
M  V30 17 H -0.1054 2.0323 -0.7206 0
M  V30 18 H 2.1794 2.9392 -0.774 0
M  V30 19 H -1.1292 -1.1252 2.1978 0
M  V30 20 H -3.9398 -1.0228 -0.9342 0
M  V30 21 H -3.5383 -1.7012 1.515 0
M  V30 END ATOM
M  V30 BEGIN BOND
M  V30 1 1 1 2
M  V30 2 2 2 3
M  V30 3 1 2 4
M  V30 4 1 3 5
M  V30 5 1 3 6
M  V30 6 1 4 7
M  V30 7 2 4 8
M  V30 8 2 6 9
M  V30 9 1 7 10
M  V30 10 2 7 11
M  V30 11 1 10 12
M  V30 12 2 10 13
M  V30 13 1 11 14
M  V30 14 3 12 15
M  V30 15 1 8 9
M  V30 16 1 13 14
M  V30 17 1 6 16
M  V30 18 1 8 17
M  V30 19 1 9 18
M  V30 20 1 11 19
M  V30 21 1 13 20
M  V30 22 1 14 21
M  V30 END BOND
M  V30 END CTAB
M  END
>  <Structure No>
5422

>  <LogS>
-4.6937

>  <MMFF94 Energy>
56.269

$$$$
Compound 5423
Actelion Java MolfileCreator 2.0

  0  0  0  0  0  0              0 V3000
M  V30 BEGIN CTAB
M  V30 COUNTS 29 30 0 0 0
M  V30 BEGIN ATOM
M  V30 1 O 2.9652 0.8007 0.4804 0
M  V30 2 C 2.6212 -0.5631 0.3954 0
M  V30 3 C 4.3221 0.8729 0.1705 0
M  V30 4 O 3.7691 -1.3696 0.2894 0
M  V30 5 C 1.8282 -0.9711 1.6367 0
M  V30 6 C 4.7642 -0.5186 -0.1778 0
M  V30 7 O 0.658 -0.1754 1.7685 0
M  V30 8 N -0.3756 -0.2882 0.8628 0
M  V30 9 C -1.4519 0.4336 0.9486 0
M  V30 10 C -1.584 1.3914 2.025 0
M  V30 11 C -2.5343 0.2708 -0.0618 0
M  V30 12 N -1.689 2.1574 2.8863 0
M  V30 13 C -2.3878 -0.6453 -1.1244 0
M  V30 14 C -3.7249 1.0242 0.0171 0
M  V30 15 C -3.4007 -0.801 -2.0754 0
M  V30 16 C -4.7337 0.863 -0.9375 0
M  V30 17 C -4.5721 -0.0479 -1.9823 0
M  V30 18 H 1.9886 -0.7203 -0.5065 0
M  V30 19 H 4.4799 1.5664 -0.6831 0
M  V30 20 H 4.8779 1.2473 1.0572 0
M  V30 21 H 2.4591 -0.8323 2.5404 0
M  V30 22 H 1.5423 -2.0432 1.5697 0
M  V30 23 H 4.8645 -0.6364 -1.2792 0
M  V30 24 H 5.7319 -0.7636 0.3097 0
M  V30 25 H -1.4905 -1.2429 -1.2239 0
M  V30 26 H -3.8829 1.7386 0.8145 0
M  V30 27 H -3.2765 -1.507 -2.8863 0
M  V30 28 H -5.6429 1.4463 -0.8665 0
M  V30 29 H -5.3547 -0.1704 -2.7199 0
M  V30 END ATOM
M  V30 BEGIN BOND
M  V30 1 1 1 2
M  V30 2 1 1 3
M  V30 3 1 2 4
M  V30 4 1 2 5
M  V30 5 1 3 6
M  V30 6 1 5 7
M  V30 7 1 7 8
M  V30 8 2 8 9
M  V30 9 1 9 10
M  V30 10 1 9 11
M  V30 11 3 10 12
M  V30 12 2 11 13
M  V30 13 1 11 14
M  V30 14 1 13 15
M  V30 15 2 14 16
M  V30 16 2 15 17
M  V30 17 1 4 6
M  V30 18 1 16 17
M  V30 19 1 2 18
M  V30 20 1 3 19
M  V30 21 1 3 20
M  V30 22 1 5 21
M  V30 23 1 5 22
M  V30 24 1 6 23
M  V30 25 1 6 24
M  V30 26 1 13 25
M  V30 27 1 14 26
M  V30 28 1 15 27
M  V30 29 1 16 28
M  V30 30 1 17 29
M  V30 END BOND
M  V30 END CTAB
M  END
>  <Structure No>
5423

>  <LogS>
-4.0649

>  <MMFF94 Energy>
115.42

$$$$
Compound 5424
Actelion Java MolfileCreator 2.0

  0  0  0  0  0  0              0 V3000
M  V30 BEGIN CTAB
M  V30 COUNTS 40 41 0 0 0
M  V30 BEGIN ATOM
M  V30 1 Cl 3.0849 1.0545 1.8663 0
M  V30 2 C 3.2077 -0.0911 0.5354 0
M  V30 3 C 2.4101 0.0114 -0.6289 0
M  V30 4 C 4.1395 -1.1301 0.6529 0
M  V30 5 C 2.5752 -0.9383 -1.653 0
M  V30 6 C 1.3657 1.0945 -0.8042 0
M  V30 7 C 4.2889 -2.0675 -0.3721 0
M  V30 8 C 3.5074 -1.9697 -1.5246 0
M  V30 9 C -0.0756 0.5582 -0.6362 0 CFG=2
M  V30 10 Cl 5.4584 -3.3649 -0.212 0
M  V30 11 N -1.0227 1.5629 -1.133 0
M  V30 12 C -0.375 0.1073 0.8348 0 CFG=1
M  V30 13 N -1.1289 2.8007 -0.6835 0
M  V30 14 C -1.8265 1.439 -2.2041 0
M  V30 15 O -0.1065 1.1289 1.7656 0
M  V30 16 C -1.7621 -0.5876 1.1165 0
M  V30 17 C -2.0316 3.4029 -1.4808 0
M  V30 18 N -2.4919 2.5834 -2.451 0
M  V30 19 C -2.0361 -1.7043 0.0851 0
M  V30 20 C -1.7029 -1.2417 2.5172 0
M  V30 21 C -2.954 0.3979 1.1098 0
M  V30 22 H 4.7496 -1.2092 1.5442 0
M  V30 23 H 1.9766 -0.8806 -2.554 0
M  V30 24 H 1.4729 1.5093 -1.8309 0
M  V30 25 H 1.5385 1.95 -0.1195 0
M  V30 26 H 3.6202 -2.6934 -2.3218 0
M  V30 27 H -0.153 -0.34 -1.2865 0
M  V30 28 H 0.3831 -0.6809 1.0367 0
M  V30 29 H -1.9228 0.5415 -2.801 0
M  V30 30 H -0.7075 1.8899 1.5766 0
M  V30 31 H -2.344 4.4317 -1.3646 0
M  V30 32 H -1.169 -2.3958 0.0152 0
M  V30 33 H -2.2363 -1.2801 -0.9207 0
M  V30 34 H -2.9304 -2.2979 0.3742 0
M  V30 35 H -0.8878 -1.9958 2.5681 0
M  V30 36 H -2.6587 -1.756 2.7578 0
M  V30 37 H -1.5198 -0.4773 3.3028 0
M  V30 38 H -3.8961 -0.1379 1.3574 0
M  V30 39 H -2.8269 1.1993 1.8664 0
M  V30 40 H -3.1049 0.8589 0.1174 0
M  V30 END ATOM
M  V30 BEGIN BOND
M  V30 1 1 1 2
M  V30 2 2 2 3
M  V30 3 1 2 4
M  V30 4 1 3 5
M  V30 5 1 3 6
M  V30 6 2 4 7
M  V30 7 2 5 8
M  V30 8 1 6 9
M  V30 9 1 7 10
M  V30 10 1 9 11
M  V30 11 1 9 12
M  V30 12 1 11 13
M  V30 13 1 11 14
M  V30 14 1 12 15
M  V30 15 1 12 16
M  V30 16 2 13 17
M  V30 17 2 14 18
M  V30 18 1 16 19
M  V30 19 1 16 20
M  V30 20 1 16 21
M  V30 21 1 7 8
M  V30 22 1 17 18
M  V30 23 1 4 22
M  V30 24 1 5 23
M  V30 25 1 6 24
M  V30 26 1 6 25
M  V30 27 1 8 26
M  V30 28 1 9 27
M  V30 29 1 12 28
M  V30 30 1 14 29
M  V30 31 1 15 30
M  V30 32 1 17 31
M  V30 33 1 19 32
M  V30 34 1 19 33
M  V30 35 1 19 34
M  V30 36 1 20 35
M  V30 37 1 20 36
M  V30 38 1 20 37
M  V30 39 1 21 38
M  V30 40 1 21 39
M  V30 41 1 21 40
M  V30 END BOND
M  V30 BEGIN COLLECTION
M  V30 MDLV30/STEABS ATOMS=(2 9 12)
M  V30 END COLLECTION
M  V30 END CTAB
M  END
>  <Structure No>
5424

>  <LogS>
-4.5619

>  <MMFF94 Energy>
51.198

$$$$
Compound 5425
Actelion Java MolfileCreator 2.0

  0  0  0  0  0  0              0 V3000
M  V30 BEGIN CTAB
M  V30 COUNTS 54 55 0 0 0
M  V30 BEGIN ATOM
M  V30 1 O 4.4786 -3.5977 1.5977 0
M  V30 2 C 4.3897 -2.3585 1.3921 0
M  V30 3 O 4.8906 -1.4686 2.3354 0 CHG=-1
M  V30 4 C 3.7889 -1.8503 0.1098 0 CFG=1
M  V30 5 N 3.0108 -0.6403 0.3492 0
M  V30 6 C 4.8793 -1.4359 -0.8763 0
M  V30 7 C 1.7487 -0.6602 1.0516 0
M  V30 8 C 3.6669 0.5483 -0.1772 0
M  V30 9 C 5.0067 0.0757 -0.7274 0
M  V30 10 O 1.4827 -1.6445 1.7965 0
M  V30 11 C 0.6795 0.3971 0.8689 0 CFG=2
M  V30 12 N 0.2249 0.3922 -0.5359 0
M  V30 13 C 1.1344 1.7888 1.341 0
M  V30 14 C -1.1958 0.7516 -0.7115 0 CFG=1
M  V30 15 C -1.3991 2.2429 -0.6401 0
M  V30 16 C -1.7083 0.2181 -2.0644 0
M  V30 17 O -0.7708 3.0075 -1.424 0
M  V30 18 O -2.2971 2.7675 0.2939 0
M  V30 19 C -1.5352 -1.3023 -2.2264 0
M  V30 20 C -2.5272 4.1662 0.4337 0
M  V30 21 C -2.3037 -2.0783 -1.1882 0
M  V30 22 C -3.5768 4.4031 1.5084 0
M  V30 23 C -1.643 -2.6227 -0.0739 0
M  V30 24 C -3.6955 -2.2309 -1.3053 0
M  V30 25 C -2.3643 -3.3137 0.9041 0
M  V30 26 C -4.4128 -2.9272 -0.3271 0
M  V30 27 C -3.7477 -3.467 0.7771 0
M  V30 28 H 3.1424 -2.632 -0.3473 0
M  V30 29 H 5.8508 -1.9474 -0.6957 0
M  V30 30 H 4.5431 -1.6699 -1.9103 0
M  V30 31 H 3.8316 1.2904 0.6322 0
M  V30 32 H 3.0674 0.9901 -0.997 0
M  V30 33 H 5.8135 0.3074 0.0022 0
M  V30 34 H 5.243 0.5601 -1.6997 0
M  V30 35 H -0.1609 0.1029 1.5387 0
M  V30 36 H 0.8311 0.9897 -1.1436 0
M  V30 37 H 0.2487 2.4099 1.5907 0
M  V30 38 H 1.7532 1.705 2.2597 0
M  V30 39 H 1.7102 2.3254 0.5601 0
M  V30 40 H -1.8163 0.2823 0.0839 0
M  V30 41 H -1.1577 0.7183 -2.8919 0
M  V30 42 H -2.7848 0.4751 -2.1789 0
M  V30 43 H -0.4559 -1.5659 -2.1919 0
M  V30 44 H -1.8963 -1.5949 -3.2359 0
M  V30 45 H -2.8885 4.5858 -0.5313 0
M  V30 46 H -1.5813 4.6752 0.723 0
M  V30 47 H -3.2398 3.9678 2.4729 0
M  V30 48 H -4.536 3.9278 1.2103 0
M  V30 49 H -3.7413 5.4935 1.6415 0
M  V30 50 H -0.5725 -2.5076 0.0395 0
M  V30 51 H -4.2225 -1.8111 -2.153 0
M  V30 52 H -1.8505 -3.729 1.761 0
M  V30 53 H -5.4842 -3.0463 -0.4242 0
M  V30 54 H -4.304 -4.0017 1.5351 0
M  V30 END ATOM
M  V30 BEGIN BOND
M  V30 1 2 1 2
M  V30 2 1 2 3
M  V30 3 1 2 4
M  V30 4 1 4 5
M  V30 5 1 4 6
M  V30 6 1 5 7
M  V30 7 1 5 8
M  V30 8 1 6 9
M  V30 9 2 7 10
M  V30 10 1 7 11
M  V30 11 1 11 12
M  V30 12 1 11 13
M  V30 13 1 12 14
M  V30 14 1 14 15
M  V30 15 1 14 16
M  V30 16 2 15 17
M  V30 17 1 15 18
M  V30 18 1 16 19
M  V30 19 1 18 20
M  V30 20 1 19 21
M  V30 21 1 20 22
M  V30 22 2 21 23
M  V30 23 1 21 24
M  V30 24 1 23 25
M  V30 25 2 24 26
M  V30 26 2 25 27
M  V30 27 1 8 9
M  V30 28 1 26 27
M  V30 29 1 4 28
M  V30 30 1 6 29
M  V30 31 1 6 30
M  V30 32 1 8 31
M  V30 33 1 8 32
M  V30 34 1 9 33
M  V30 35 1 9 34
M  V30 36 1 11 35
M  V30 37 1 12 36
M  V30 38 1 13 37
M  V30 39 1 13 38
M  V30 40 1 13 39
M  V30 41 1 14 40
M  V30 42 1 16 41
M  V30 43 1 16 42
M  V30 44 1 19 43
M  V30 45 1 19 44
M  V30 46 1 20 45
M  V30 47 1 20 46
M  V30 48 1 22 47
M  V30 49 1 22 48
M  V30 50 1 22 49
M  V30 51 1 23 50
M  V30 52 1 24 51
M  V30 53 1 25 52
M  V30 54 1 26 53
M  V30 55 1 27 54
M  V30 END BOND
M  V30 BEGIN COLLECTION
M  V30 MDLV30/STEABS ATOMS=(3 4 11 14)
M  V30 END COLLECTION
M  V30 END CTAB
M  END
>  <Structure No>
5425

>  <LogS>
-1.3609

>  <MMFF94 Energy>
141.48

$$$$
Compound 5426
Actelion Java MolfileCreator 2.0

  0  0  0  0  0  0              0 V3000
M  V30 BEGIN CTAB
M  V30 COUNTS 18 18 0 0 0
M  V30 BEGIN ATOM
M  V30 1 O -3.0668 -1.8077 0.2356 0
M  V30 2 C -2.0913 -1.0191 0.1309 0
M  V30 3 N -2.1575 0.3481 0.5103 0
M  V30 4 C -0.7469 -1.4044 -0.4061 0
M  V30 5 C -0.8632 0.8431 0.2223 0
M  V30 6 N 0.006 -0.1566 -0.3033 0
M  V30 7 N -0.5169 2.078 0.3931 0
M  V30 8 C 1.3767 0.0409 -0.7693 0
M  V30 9 C 2.3194 0.228 0.4132 0
M  V30 10 H -2.9778 0.8695 0.8919 0
M  V30 11 H -0.8274 -1.7234 -1.4668 0
M  V30 12 H -0.2804 -2.1918 0.2225 0
M  V30 13 H -1.192 2.779 0.7715 0
M  V30 14 H 1.7057 -0.8454 -1.3535 0
M  V30 15 H 1.4215 0.9297 -1.4343 0
M  V30 16 H 2.0448 1.1369 0.9883 0
M  V30 17 H 3.3608 0.341 0.0453 0
M  V30 18 H 2.2694 -0.6567 1.0828 0
M  V30 END ATOM
M  V30 BEGIN BOND
M  V30 1 2 1 2
M  V30 2 1 2 3
M  V30 3 1 2 4
M  V30 4 1 3 5
M  V30 5 1 4 6
M  V30 6 2 5 7
M  V30 7 1 6 8
M  V30 8 1 8 9
M  V30 9 1 5 6
M  V30 10 1 3 10
M  V30 11 1 4 11
M  V30 12 1 4 12
M  V30 13 1 7 13
M  V30 14 1 8 14
M  V30 15 1 8 15
M  V30 16 1 9 16
M  V30 17 1 9 17
M  V30 18 1 9 18
M  V30 END BOND
M  V30 END CTAB
M  END
>  <Structure No>
5426

>  <LogS>
-0.165

>  <MMFF94 Energy>
-83.422

$$$$
Compound 5427
Actelion Java MolfileCreator 2.0

  0  0  0  0  0  0              0 V3000
M  V30 BEGIN CTAB
M  V30 COUNTS 28 29 0 0 0
M  V30 BEGIN ATOM
M  V30 1 Cl -6.0952 -1.4318 0.3578 0
M  V30 2 C -4.4041 -1.0451 0.0238 0
M  V30 3 C -3.6322 -1.9167 -0.7593 0
M  V30 4 C -3.8385 0.1364 0.5336 0
M  V30 5 Cl -4.352 -3.3983 -1.3968 0
M  V30 6 C -2.2885 -1.6153 -1.0327 0
M  V30 7 Cl -4.8631 1.2491 1.452 0
M  V30 8 C -2.4861 0.4507 0.2656 0
M  V30 9 Cl -1.3196 -2.7522 -1.9809 0
M  V30 10 C -1.7072 -0.437 -0.5193 0
M  V30 11 C -1.9037 1.7212 0.7653 0
M  V30 12 C -0.2739 -0.1668 -0.7719 0
M  V30 13 O -2.0906 2.0866 1.9559 0
M  V30 14 O -1.1301 2.5157 -0.0728 0 CHG=-1
M  V30 15 O 0.13 -0.0377 -1.9593 0
M  V30 16 N 0.6383 -0.0272 0.3291 0
M  V30 17 C 2.0496 0.1915 0.1659 0
M  V30 18 C 2.723 1.1257 0.9808 0
M  V30 19 C 2.781 -0.5614 -0.7685 0
M  V30 20 Cl 1.8254 2.0871 2.1567 0
M  V30 21 C 4.1103 1.3121 0.8322 0
M  V30 22 C 4.1565 -0.371 -0.9089 0
M  V30 23 Cl 4.9871 2.4771 1.8164 0
M  V30 24 C 4.8186 0.5641 -0.1133 0
M  V30 25 H 0.2469 -0.0336 1.2979 0
M  V30 26 H 2.2915 -1.3134 -1.3736 0
M  V30 27 H 4.7118 -0.9555 -1.6309 0
M  V30 28 H 5.8859 0.7036 -0.2292 0
M  V30 END ATOM
M  V30 BEGIN BOND
M  V30 1 1 1 2
M  V30 2 2 2 3
M  V30 3 1 2 4
M  V30 4 1 3 5
M  V30 5 1 3 6
M  V30 6 1 4 7
M  V30 7 2 4 8
M  V30 8 1 6 9
M  V30 9 2 6 10
M  V30 10 1 8 11
M  V30 11 1 10 12
M  V30 12 2 11 13
M  V30 13 1 11 14
M  V30 14 2 12 15
M  V30 15 1 12 16
M  V30 16 1 16 17
M  V30 17 2 17 18
M  V30 18 1 17 19
M  V30 19 1 18 20
M  V30 20 1 18 21
M  V30 21 2 19 22
M  V30 22 1 21 23
M  V30 23 2 21 24
M  V30 24 1 8 10
M  V30 25 1 22 24
M  V30 26 1 16 25
M  V30 27 1 19 26
M  V30 28 1 22 27
M  V30 29 1 24 28
M  V30 END BOND
M  V30 END CTAB
M  END
>  <Structure No>
5427

>  <LogS>
-4.5051

>  <MMFF94 Energy>
17.391

$$$$
Compound 5428
Actelion Java MolfileCreator 2.0

  0  0  0  0  0  0              0 V3000
M  V30 BEGIN CTAB
M  V30 COUNTS 14 13 0 0 0
M  V30 BEGIN ATOM
M  V30 1 Cl 0.6122 0.102 -2.1438 0
M  V30 2 C 0.1519 -0.0047 -0.4242 0
M  V30 3 S 1.6325 0.1262 0.5783 0
M  V30 4 S -0.6493 -1.5824 -0.1339 0
M  V30 5 S -0.9726 1.3387 -0.0417 0
M  V30 6 O 1.2821 0.0281 2.0366 0
M  V30 7 O 2.3082 1.4438 0.3222 0
M  V30 8 O 2.6956 -1.1139 0.1851 0 CHG=-1
M  V30 9 O 0.293 -2.7034 -0.4711 0
M  V30 10 O -1.8742 -1.6992 -0.9968 0
M  V30 11 O -1.1012 -1.7127 1.4792 0 CHG=-1
M  V30 12 O -1.3729 1.2841 1.4059 0
M  V30 13 O -2.2039 1.2336 -0.8971 0
M  V30 14 O -0.2233 2.811 -0.3484 0 CHG=-1
M  V30 END ATOM
M  V30 BEGIN BOND
M  V30 1 1 1 2
M  V30 2 1 2 3
M  V30 3 1 2 4
M  V30 4 1 2 5
M  V30 5 2 3 6
M  V30 6 2 3 7
M  V30 7 1 3 8
M  V30 8 2 4 9
M  V30 9 2 4 10
M  V30 10 1 4 11
M  V30 11 2 5 12
M  V30 12 2 5 13
M  V30 13 1 5 14
M  V30 END BOND
M  V30 END CTAB
M  END
>  <Structure No>
5428

>  <LogS>
0.5366

>  <MMFF94 Energy>
303.03

$$$$
Compound 5429
Actelion Java MolfileCreator 2.0

  0  0  0  0  0  0              0 V3000
M  V30 BEGIN CTAB
M  V30 COUNTS 24 23 0 0 0
M  V30 BEGIN ATOM
M  V30 1 Cl 4.2334 1.1169 1.8354 0
M  V30 2 C 3.31 1.893 0.5271 0
M  V30 3 C 2.5711 0.8518 -0.2498 0
M  V30 4 O 3.0661 0.4104 -1.322 0
M  V30 5 N 1.3303 0.3301 0.2474 0
M  V30 6 C 0.6153 -0.7606 -0.4208 0 CFG=2
M  V30 7 C -0.8499 -0.6985 -0.093 0
M  V30 8 C 1.206 -2.109 -0.0044 0
M  V30 9 O -1.2374 -0.8383 1.1002 0
M  V30 10 O -1.7742 -0.4844 -1.1221 0
M  V30 11 C -3.1772 -0.3516 -0.9023 0
M  V30 12 C -3.5039 1.0217 -0.3269 0
M  V30 13 H 4.0105 2.4441 -0.1356 0
M  V30 14 H 2.5931 2.6189 0.9652 0
M  V30 15 H 0.9847 0.6759 1.1722 0
M  V30 16 H 0.7235 -0.6538 -1.5229 0
M  V30 17 H 0.6577 -2.9377 -0.5017 0
M  V30 18 H 2.2731 -2.1652 -0.3068 0
M  V30 19 H 1.1421 -2.2406 1.0972 0
M  V30 20 H -3.6995 -0.4636 -1.8757 0
M  V30 21 H -3.5407 -1.1521 -0.2217 0
M  V30 22 H -4.6036 1.1276 -0.2151 0
M  V30 23 H -3.1332 1.816 -1.009 0
M  V30 24 H -3.0308 1.1474 0.6692 0
M  V30 END ATOM
M  V30 BEGIN BOND
M  V30 1 1 1 2
M  V30 2 1 2 3
M  V30 3 2 3 4
M  V30 4 1 3 5
M  V30 5 1 5 6
M  V30 6 1 6 7
M  V30 7 1 6 8
M  V30 8 2 7 9
M  V30 9 1 7 10
M  V30 10 1 10 11
M  V30 11 1 11 12
M  V30 12 1 2 13
M  V30 13 1 2 14
M  V30 14 1 5 15
M  V30 15 1 6 16
M  V30 16 1 8 17
M  V30 17 1 8 18
M  V30 18 1 8 19
M  V30 19 1 11 20
M  V30 20 1 11 21
M  V30 21 1 12 22
M  V30 22 1 12 23
M  V30 23 1 12 24
M  V30 END BOND
M  V30 BEGIN COLLECTION
M  V30 MDLV30/STEABS ATOMS=(1 6)
M  V30 END COLLECTION
M  V30 END CTAB
M  END
>  <Structure No>
5429

>  <LogS>
-0.4628

>  <MMFF94 Energy>
25.694

$$$$
Compound 5430
Actelion Java MolfileCreator 2.0

  0  0  0  0  0  0              0 V3000
M  V30 BEGIN CTAB
M  V30 COUNTS 28 28 0 0 0
M  V30 BEGIN ATOM
M  V30 1 S 4.5572 -0.8126 0.0 0
M  V30 2 C 3.0967 0.2494 -0.2285 0
M  V30 3 C 5.7579 0.5362 -0.2307 0
M  V30 4 O 1.9234 -0.5443 -0.1015 0
M  V30 5 C 0.6336 -0.0155 -0.2261 0
M  V30 6 O 0.4838 1.215 -0.4604 0
M  V30 7 C -0.5447 -0.9094 -0.0794 0
M  V30 8 C -1.8726 -0.431 -0.2133 0
M  V30 9 C -0.3354 -2.2712 0.2119 0
M  V30 10 O -2.1 0.921 -0.5175 0
M  V30 11 C -2.9481 -1.3316 -0.083 0
M  V30 12 C -1.4142 -3.1444 0.3567 0
M  V30 13 C -3.2168 1.6655 -0.1165 0
M  V30 14 C -2.7173 -2.6767 0.2052 0
M  V30 15 O -3.961 1.2684 0.8205 0
M  V30 16 C -3.4587 3.0027 -0.729 0
M  V30 17 H 3.1269 0.7095 -1.2394 0
M  V30 18 H 3.0922 1.046 0.5462 0
M  V30 19 H 5.6082 1.3176 0.5432 0
M  V30 20 H 5.6429 0.9813 -1.2409 0
M  V30 21 H 6.7844 0.1274 -0.1337 0
M  V30 22 H 0.6656 -2.6666 0.3287 0
M  V30 23 H -3.9674 -1.0033 -0.2337 0
M  V30 24 H -1.2381 -4.189 0.579 0
M  V30 25 H -3.5512 -3.3598 0.3023 0
M  V30 26 H -4.5484 3.2122 -0.7723 0
M  V30 27 H -2.9585 3.7842 -0.1203 0
M  V30 28 H -3.0484 3.0254 -1.7602 0
M  V30 END ATOM
M  V30 BEGIN BOND
M  V30 1 1 1 2
M  V30 2 1 1 3
M  V30 3 1 2 4
M  V30 4 1 4 5
M  V30 5 2 5 6
M  V30 6 1 5 7
M  V30 7 2 7 8
M  V30 8 1 7 9
M  V30 9 1 8 10
M  V30 10 1 8 11
M  V30 11 2 9 12
M  V30 12 1 10 13
M  V30 13 2 11 14
M  V30 14 2 13 15
M  V30 15 1 13 16
M  V30 16 1 12 14
M  V30 17 1 2 17
M  V30 18 1 2 18
M  V30 19 1 3 19
M  V30 20 1 3 20
M  V30 21 1 3 21
M  V30 22 1 9 22
M  V30 23 1 11 23
M  V30 24 1 12 24
M  V30 25 1 14 25
M  V30 26 1 16 26
M  V30 27 1 16 27
M  V30 28 1 16 28
M  V30 END BOND
M  V30 END CTAB
M  END
>  <Structure No>
5430

>  <LogS>
-2.6404

>  <MMFF94 Energy>
22.124

$$$$
Compound 5431
Actelion Java MolfileCreator 2.0

  0  0  0  0  0  0              0 V3000
M  V30 BEGIN CTAB
M  V30 COUNTS 29 29 0 0 0
M  V30 BEGIN ATOM
M  V30 1 S 4.3337 0.3265 1.3885 0 CFG=2
M  V30 2 O 5.0156 0.17 2.741 0
M  V30 3 C 2.5787 0.2563 1.7899 0
M  V30 4 C 4.6637 -1.2421 0.5652 0
M  V30 5 O 1.8228 0.2471 0.5851 0
M  V30 6 C 0.4249 0.1909 0.5669 0
M  V30 7 O -0.2127 0.1608 1.6552 0
M  V30 8 C -0.2918 0.1663 -0.7347 0
M  V30 9 C -1.7067 0.1303 -0.8134 0
M  V30 10 C 0.4586 0.1889 -1.9262 0
M  V30 11 O -2.4707 0.0957 0.3647 0
M  V30 12 C -2.3275 0.0861 -2.0771 0
M  V30 13 C -0.1748 0.1645 -3.1692 0
M  V30 14 C -3.7543 0.6361 0.5147 0
M  V30 15 C -1.5645 0.1087 -3.2445 0
M  V30 16 O -4.2052 1.4795 -0.3067 0
M  V30 17 C -4.5503 0.2959 1.7282 0
M  V30 18 H 2.3699 -0.665 2.3745 0
M  V30 19 H 2.3107 1.1478 2.3959 0
M  V30 20 H 5.7518 -1.3354 0.3708 0
M  V30 21 H 4.1157 -1.2766 -0.3988 0
M  V30 22 H 4.3313 -2.0835 1.2079 0
M  V30 23 H 1.5404 0.2236 -1.9007 0
M  V30 24 H -3.4023 0.0039 -2.1642 0
M  V30 25 H 0.4146 0.1803 -4.0768 0
M  V30 26 H -2.0521 0.0735 -4.2102 0
M  V30 27 H -5.6343 0.2962 1.4872 0
M  V30 28 H -4.3508 1.0441 2.5231 0
M  V30 29 H -4.2656 -0.7118 2.0962 0
M  V30 END ATOM
M  V30 BEGIN BOND
M  V30 1 2 1 2
M  V30 2 1 1 3
M  V30 3 1 1 4
M  V30 4 1 3 5
M  V30 5 1 5 6
M  V30 6 2 6 7
M  V30 7 1 6 8
M  V30 8 2 8 9
M  V30 9 1 8 10
M  V30 10 1 9 11
M  V30 11 1 9 12
M  V30 12 2 10 13
M  V30 13 1 11 14
M  V30 14 2 12 15
M  V30 15 2 14 16
M  V30 16 1 14 17
M  V30 17 1 13 15
M  V30 18 1 3 18
M  V30 19 1 3 19
M  V30 20 1 4 20
M  V30 21 1 4 21
M  V30 22 1 4 22
M  V30 23 1 10 23
M  V30 24 1 12 24
M  V30 25 1 13 25
M  V30 26 1 15 26
M  V30 27 1 17 27
M  V30 28 1 17 28
M  V30 29 1 17 29
M  V30 END BOND
M  V30 BEGIN COLLECTION
M  V30 MDLV30/STEABS ATOMS=(1 1)
M  V30 END COLLECTION
M  V30 END CTAB
M  END
>  <Structure No>
5431

>  <LogS>
-1.7824

>  <MMFF94 Energy>
33.068

$$$$
Compound 5432
Actelion Java MolfileCreator 2.0

  0  0  0  0  0  0              0 V3000
M  V30 BEGIN CTAB
M  V30 COUNTS 30 30 0 0 0
M  V30 BEGIN ATOM
M  V30 1 S 3.1976 -0.7372 0.4914 0
M  V30 2 O 3.4842 0.6794 0.9016 0
M  V30 3 O 2.7415 -1.5204 1.6899 0
M  V30 4 C 1.9249 -0.7667 -0.7584 0
M  V30 5 C 4.6807 -1.4696 -0.1613 0
M  V30 6 O 0.6808 -0.3385 -0.2118 0
M  V30 7 C 0.339 1.0054 -0.0199 0
M  V30 8 O 1.142 1.9177 -0.3596 0
M  V30 9 C -0.9562 1.3594 0.6054 0
M  V30 10 C -2.0612 0.4709 0.5935 0
M  V30 11 C -1.0799 2.5891 1.2798 0
M  V30 12 O -2.0406 -0.7353 -0.1156 0
M  V30 13 C -3.2221 0.7961 1.3063 0
M  V30 14 C -2.2561 2.9124 1.9604 0
M  V30 15 C -1.8806 -0.8031 -1.5044 0
M  V30 16 C -3.3215 2.0127 1.9828 0
M  V30 17 O -1.8986 0.2436 -2.2078 0
M  V30 18 C -1.7458 -2.1327 -2.1635 0
M  V30 19 H 2.2165 -0.1313 -1.6218 0
M  V30 20 H 1.8117 -1.8101 -1.1181 0
M  V30 21 H 4.4772 -2.5193 -0.4574 0
M  V30 22 H 5.0182 -0.8958 -1.0488 0
M  V30 23 H 5.4754 -1.4525 0.6126 0
M  V30 24 H -0.2556 3.2912 1.305 0
M  V30 25 H -4.0606 0.1114 1.3139 0
M  V30 26 H -2.3359 3.8566 2.4837 0
M  V30 27 H -4.2281 2.2612 2.5192 0
M  V30 28 H -2.7412 -2.4741 -2.516 0
M  V30 29 H -1.0535 -2.0604 -3.0287 0
M  V30 30 H -1.3397 -2.8725 -1.4423 0
M  V30 END ATOM
M  V30 BEGIN BOND
M  V30 1 2 1 2
M  V30 2 2 1 3
M  V30 3 1 1 4
M  V30 4 1 1 5
M  V30 5 1 4 6
M  V30 6 1 6 7
M  V30 7 2 7 8
M  V30 8 1 7 9
M  V30 9 2 9 10
M  V30 10 1 9 11
M  V30 11 1 10 12
M  V30 12 1 10 13
M  V30 13 2 11 14
M  V30 14 1 12 15
M  V30 15 2 13 16
M  V30 16 2 15 17
M  V30 17 1 15 18
M  V30 18 1 14 16
M  V30 19 1 4 19
M  V30 20 1 4 20
M  V30 21 1 5 21
M  V30 22 1 5 22
M  V30 23 1 5 23
M  V30 24 1 11 24
M  V30 25 1 13 25
M  V30 26 1 14 26
M  V30 27 1 16 27
M  V30 28 1 18 28
M  V30 29 1 18 29
M  V30 30 1 18 30
M  V30 END BOND
M  V30 END CTAB
M  END
>  <Structure No>
5432

>  <LogS>
-3.3936

>  <MMFF94 Energy>
57.827

$$$$
Compound 5433
Actelion Java MolfileCreator 2.0

  0  0  0  0  0  0              0 V3000
M  V30 BEGIN CTAB
M  V30 COUNTS 21 21 0 0 0
M  V30 BEGIN ATOM
M  V30 1 Cl 0.817 -1.88 2.5346 0
M  V30 2 C 1.4109 -0.9406 1.1736 0
M  V30 3 C 0.5137 -0.3918 0.2415 0
M  V30 4 C 2.7889 -0.7421 1.0301 0
M  V30 5 O -0.8619 -0.6182 0.4235 0
M  V30 6 C 1.0238 0.354 -0.8413 0
M  V30 7 C 3.2828 0.0014 -0.0432 0
M  V30 8 C -1.917 -0.0474 -0.3534 0 CFG=1
M  V30 9 C 2.4015 0.548 -0.9775 0
M  V30 10 C -3.1796 -0.8075 -0.0827 0
M  V30 11 C -2.1171 1.4237 0.0183 0
M  V30 12 O -3.9801 -1.0606 -1.0213 0
M  V30 13 O -3.4972 -1.1961 1.2132 0 CHG=-1
M  V30 14 H 3.4777 -1.1644 1.7507 0
M  V30 15 H 0.3715 0.7867 -1.5854 0
M  V30 16 H 4.349 0.153 -0.1515 0
M  V30 17 H -1.6838 -0.1374 -1.4366 0
M  V30 18 H 2.7865 1.1221 -1.8105 0
M  V30 19 H -2.3506 1.521 1.1004 0
M  V30 20 H -2.9512 1.8583 -0.5731 0
M  V30 21 H -1.1996 2.0087 -0.196 0
M  V30 END ATOM
M  V30 BEGIN BOND
M  V30 1 1 1 2
M  V30 2 2 2 3
M  V30 3 1 2 4
M  V30 4 1 3 5
M  V30 5 1 3 6
M  V30 6 2 4 7
M  V30 7 1 5 8
M  V30 8 2 6 9
M  V30 9 1 8 10
M  V30 10 1 8 11
M  V30 11 2 10 12
M  V30 12 1 10 13
M  V30 13 1 7 9
M  V30 14 1 4 14
M  V30 15 1 6 15
M  V30 16 1 7 16
M  V30 17 1 8 17
M  V30 18 1 9 18
M  V30 19 1 11 19
M  V30 20 1 11 20
M  V30 21 1 11 21
M  V30 END BOND
M  V30 BEGIN COLLECTION
M  V30 MDLV30/STEABS ATOMS=(1 8)
M  V30 END COLLECTION
M  V30 END CTAB
M  END
>  <Structure No>
5433

>  <LogS>
-2.2232

>  <MMFF94 Energy>
85.49

$$$$
Compound 5434
Actelion Java MolfileCreator 2.0

  0  0  0  0  0  0              0 V3000
M  V30 BEGIN CTAB
M  V30 COUNTS 36 38 0 0 0
M  V30 BEGIN ATOM
M  V30 1 Cl 8.2201 0.1639 0.3278 0
M  V30 2 C 6.4874 0.1594 0.0547 0
M  V30 3 C 5.9481 0.8683 -1.0261 0
M  V30 4 C 5.645 -0.5534 0.9183 0
M  V30 5 C 4.5657 0.8634 -1.2416 0
M  V30 6 C 4.262 -0.5612 0.7059 0
M  V30 7 N 4.0235 1.5427 -2.2862 0
M  V30 8 C 3.7196 0.1459 -0.3718 0
M  V30 9 C 2.6813 1.5441 -2.5024 0
M  V30 10 N 2.3794 0.1507 -0.5942 0
M  V30 11 C 1.8372 0.8419 -1.6354 0
M  V30 12 O 0.4574 0.8302 -1.877 0
M  V30 13 C -0.5236 0.4496 -0.9497 0
M  V30 14 C -0.3735 0.6641 0.4316 0
M  V30 15 C -1.7073 -0.1236 -1.4261 0
M  V30 16 C -1.3833 0.2785 1.3177 0
M  V30 17 C -2.7175 -0.5104 -0.5404 0
M  V30 18 C -2.5615 -0.3106 0.845 0
M  V30 19 O -3.538 -0.6808 1.785 0
M  V30 20 C -4.8381 -1.1927 1.4841 0 CFG=1
M  V30 21 C -5.4147 -1.8036 2.7249 0
M  V30 22 C -5.754 -0.0681 0.9954 0
M  V30 23 O -6.0708 -2.8763 2.6568 0
M  V30 24 O -5.2691 -1.1655 3.951 0 CHG=-1
M  V30 25 H 6.6003 1.4186 -1.6932 0
M  V30 26 H 6.0612 -1.1014 1.7539 0
M  V30 27 H 3.6172 -1.1142 1.3776 0
M  V30 28 H 2.2721 2.0896 -3.3423 0
M  V30 29 H 0.5063 1.1539 0.8255 0
M  V30 30 H -1.8403 -0.28 -2.4891 0
M  V30 31 H -1.2546 0.4487 2.3792 0
M  V30 32 H -3.6096 -0.9629 -0.948 0
M  V30 33 H -4.7647 -1.9861 0.7089 0
M  V30 34 H -6.7688 -0.4664 0.7804 0
M  V30 35 H -5.8331 0.729 1.7656 0
M  V30 36 H -5.3553 0.3829 0.064 0
M  V30 END ATOM
M  V30 BEGIN BOND
M  V30 1 1 1 2
M  V30 2 2 2 3
M  V30 3 1 2 4
M  V30 4 1 3 5
M  V30 5 2 4 6
M  V30 6 2 5 7
M  V30 7 1 5 8
M  V30 8 1 7 9
M  V30 9 2 8 10
M  V30 10 2 9 11
M  V30 11 1 11 12
M  V30 12 1 12 13
M  V30 13 2 13 14
M  V30 14 1 13 15
M  V30 15 1 14 16
M  V30 16 2 15 17
M  V30 17 2 16 18
M  V30 18 1 18 19
M  V30 19 1 19 20
M  V30 20 1 20 21
M  V30 21 1 20 22
M  V30 22 2 21 23
M  V30 23 1 21 24
M  V30 24 1 6 8
M  V30 25 1 10 11
M  V30 26 1 17 18
M  V30 27 1 3 25
M  V30 28 1 4 26
M  V30 29 1 6 27
M  V30 30 1 9 28
M  V30 31 1 14 29
M  V30 32 1 15 30
M  V30 33 1 16 31
M  V30 34 1 17 32
M  V30 35 1 20 33
M  V30 36 1 22 34
M  V30 37 1 22 35
M  V30 38 1 22 36
M  V30 END BOND
M  V30 BEGIN COLLECTION
M  V30 MDLV30/STEABS ATOMS=(1 20)
M  V30 END COLLECTION
M  V30 END CTAB
M  END
>  <Structure No>
5434

>  <LogS>
-6.0604

>  <MMFF94 Energy>
144.31

$$$$
Compound 5435
Actelion Java MolfileCreator 2.0

  0  0  0  0  0  0              0 V3000
M  V30 BEGIN CTAB
M  V30 COUNTS 35 37 0 0 0
M  V30 BEGIN ATOM
M  V30 1 F 0.646 1.3731 -1.6156 0
M  V30 2 C -0.1337 1.6383 -0.5369 0
M  V30 3 C -0.4037 0.64 0.4295 0
M  V30 4 C -0.6785 2.9192 -0.4055 0
M  V30 5 C -1.2712 0.9611 1.4972 0
M  V30 6 C 0.1516 -0.7864 0.2628 0 CFG=2
M  V30 7 C -1.5114 3.223 0.6711 0
M  V30 8 C -1.8113 2.2441 1.6176 0
M  V30 9 O -0.045 -1.5482 1.4345 0
M  V30 10 C 1.6677 -0.7386 -0.0222 0
M  V30 11 C -0.6539 -1.4856 -0.8661 0
M  V30 12 C 2.2849 -1.5024 -1.0412 0
M  V30 13 C 2.4963 0.0537 0.8033 0
M  V30 14 N -2.0937 -1.4323 -0.6108 0
M  V30 15 C 3.6676 -1.443 -1.2403 0
M  V30 16 C 3.8771 0.1076 0.5981 0
M  V30 17 N -2.7309 -2.2008 0.2525 0
M  V30 18 C -2.9792 -0.5799 -1.1528 0
M  V30 19 C 4.4623 -0.6376 -0.4246 0
M  V30 20 C -4.0161 -1.7986 0.2126 0
M  V30 21 N -4.2143 -0.7819 -0.6555 0
M  V30 22 F 5.8026 -0.5848 -0.6215 0
M  V30 23 H -0.4608 3.6777 -1.1465 0
M  V30 24 H -1.5485 0.221 2.2356 0
M  V30 25 H -1.9336 4.2151 0.766 0
M  V30 26 H -2.471 2.4769 2.4435 0
M  V30 27 H 0.4546 -1.1203 2.1784 0
M  V30 28 H -0.4363 -1.0141 -1.8497 0
M  V30 29 H -0.3591 -2.5554 -0.9303 0
M  V30 30 H 1.718 -2.1467 -1.6955 0
M  V30 31 H 2.0712 0.6379 1.6101 0
M  V30 32 H 4.1234 -2.0274 -2.0292 0
M  V30 33 H 4.4933 0.7272 1.2368 0
M  V30 34 H -2.7343 0.1801 -1.8833 0
M  V30 35 H -4.8015 -2.2375 0.8127 0
M  V30 END ATOM
M  V30 BEGIN BOND
M  V30 1 1 1 2
M  V30 2 2 2 3
M  V30 3 1 2 4
M  V30 4 1 3 5
M  V30 5 1 3 6
M  V30 6 2 4 7
M  V30 7 2 5 8
M  V30 8 1 6 9
M  V30 9 1 6 10
M  V30 10 1 6 11
M  V30 11 2 10 12
M  V30 12 1 10 13
M  V30 13 1 11 14
M  V30 14 1 12 15
M  V30 15 2 13 16
M  V30 16 1 14 17
M  V30 17 1 14 18
M  V30 18 2 15 19
M  V30 19 2 17 20
M  V30 20 2 18 21
M  V30 21 1 19 22
M  V30 22 1 7 8
M  V30 23 1 16 19
M  V30 24 1 20 21
M  V30 25 1 4 23
M  V30 26 1 5 24
M  V30 27 1 7 25
M  V30 28 1 8 26
M  V30 29 1 9 27
M  V30 30 1 11 28
M  V30 31 1 11 29
M  V30 32 1 12 30
M  V30 33 1 13 31
M  V30 34 1 15 32
M  V30 35 1 16 33
M  V30 36 1 18 34
M  V30 37 1 20 35
M  V30 END BOND
M  V30 BEGIN COLLECTION
M  V30 MDLV30/STEABS ATOMS=(1 6)
M  V30 END COLLECTION
M  V30 END CTAB
M  END
>  <Structure No>
5435

>  <LogS>
-3.3651

>  <MMFF94 Energy>
64.642

$$$$
Compound 5436
Actelion Java MolfileCreator 2.0

  0  0  0  0  0  0              0 V3000
M  V30 BEGIN CTAB
M  V30 COUNTS 22 23 0 0 0
M  V30 BEGIN ATOM
M  V30 1 Cl 5.2254 -0.6189 -0.6189 0
M  V30 2 C 3.4883 -0.394 -0.4163 0
M  V30 3 C 2.9824 0.8363 0.0399 0
M  V30 4 C 2.5995 -1.4424 -0.7133 0
M  V30 5 Cl 4.0527 2.1799 0.419 0
M  V30 6 C 1.6035 1.0101 0.2 0
M  V30 7 Cl 3.1822 -2.9962 -1.2965 0
M  V30 8 C 1.2222 -1.2597 -0.5508 0
M  V30 9 C 0.7158 -0.038 -0.0829 0
M  V30 10 C -0.7426 0.1605 0.0727 0
M  V30 11 C -1.5201 -0.6654 0.9181 0
M  V30 12 C -1.3658 1.1997 -0.638 0
M  V30 13 Cl -0.7632 -1.9261 1.8966 0
M  V30 14 C -2.9077 -0.4477 1.0194 0
M  V30 15 C -2.7413 1.4071 -0.5293 0
M  V30 16 Cl -3.9177 -1.4467 2.0575 0
M  V30 17 C -3.5101 0.5843 0.2931 0
M  V30 18 H 1.223 1.9608 0.5542 0
M  V30 19 H 0.5444 -2.0681 -0.7971 0
M  V30 20 H -0.786 1.8431 -1.2888 0
M  V30 21 H -3.2128 2.2065 -1.0862 0
M  V30 22 H -4.5767 0.7536 0.3702 0
M  V30 END ATOM
M  V30 BEGIN BOND
M  V30 1 1 1 2
M  V30 2 2 2 3
M  V30 3 1 2 4
M  V30 4 1 3 5
M  V30 5 1 3 6
M  V30 6 1 4 7
M  V30 7 2 4 8
M  V30 8 2 6 9
M  V30 9 1 9 10
M  V30 10 2 10 11
M  V30 11 1 10 12
M  V30 12 1 11 13
M  V30 13 1 11 14
M  V30 14 2 12 15
M  V30 15 1 14 16
M  V30 16 2 14 17
M  V30 17 1 8 9
M  V30 18 1 15 17
M  V30 19 1 6 18
M  V30 20 1 8 19
M  V30 21 1 12 20
M  V30 22 1 15 21
M  V30 23 1 17 22
M  V30 END BOND
M  V30 END CTAB
M  END
>  <Structure No>
5436

>  <LogS>
-7.4052

>  <MMFF94 Energy>
58.089

$$$$
Compound 5437
Actelion Java MolfileCreator 2.0

  0  0  0  0  0  0              0 V3000
M  V30 BEGIN CTAB
M  V30 COUNTS 39 38 0 0 0
M  V30 BEGIN ATOM
M  V30 1 O -0.5489 -0.5489 -2.5112 0
M  V30 2 C -0.4899 -0.6197 -1.2532 0
M  V30 3 N 0.7847 -0.6322 -0.5906 0
M  V30 4 C -1.7725 -0.6746 -0.4551 0 CFG=1
M  V30 5 C 2.0505 -0.6446 -1.329 0 CFG=1
M  V30 6 N -1.779 -1.8605 0.4139 0 CHG=1
M  V30 7 C -1.9371 0.649 0.3397 0
M  V30 8 C 3.1617 -0.113 -0.4601 0
M  V30 9 C 2.3676 -2.0648 -1.8029 0
M  V30 10 C -3.2774 0.8673 1.0936 0
M  V30 11 O 3.511 -0.7551 0.5685 0
M  V30 12 N 3.8055 1.1281 -0.7859 0
M  V30 13 C -4.5143 0.5159 0.2571 0
M  V30 14 C -3.3191 0.1818 2.4674 0
M  V30 15 C 4.851 1.7104 0.0516 0
M  V30 16 C 4.2565 2.2728 1.3029 0
M  V30 17 O 3.6244 3.3612 1.2688 0
M  V30 18 O 4.3685 1.5793 2.5013 0 CHG=-1
M  V30 19 H 0.805 -0.6988 0.4522 0
M  V30 20 H -2.6097 -0.7628 -1.183 0
M  V30 21 H 1.9583 0.0073 -2.2253 0
M  V30 22 H -1.2374 -1.69 1.2921 0
M  V30 23 H -2.7622 -2.1198 0.6502 0
M  V30 24 H -1.3634 -2.6809 -0.0853 0
M  V30 25 H -1.0932 0.7663 1.0542 0
M  V30 26 H -1.8365 1.4861 -0.3874 0
M  V30 27 H 1.5748 -2.4212 -2.494 0
M  V30 28 H 3.3366 -2.0798 -2.3461 0
M  V30 29 H 2.4238 -2.7619 -0.9392 0
M  V30 30 H -3.3367 1.9601 1.2999 0
M  V30 31 H 3.5278 1.6372 -1.6551 0
M  V30 32 H -4.4579 1.0088 -0.7366 0
M  V30 33 H -5.4318 0.8762 0.7701 0
M  V30 34 H -4.6049 -0.581 0.1165 0
M  V30 35 H -4.1803 0.5712 3.0518 0
M  V30 36 H -2.3931 0.4003 3.0404 0
M  V30 37 H -3.4416 -0.9143 2.3825 0
M  V30 38 H 5.3583 2.5276 -0.5048 0
M  V30 39 H 5.6149 0.9414 0.2965 0
M  V30 END ATOM
M  V30 BEGIN BOND
M  V30 1 2 1 2
M  V30 2 1 2 3
M  V30 3 1 2 4
M  V30 4 1 3 5
M  V30 5 1 4 6
M  V30 6 1 4 7
M  V30 7 1 5 8
M  V30 8 1 5 9
M  V30 9 1 7 10
M  V30 10 2 8 11
M  V30 11 1 8 12
M  V30 12 1 10 13
M  V30 13 1 10 14
M  V30 14 1 12 15
M  V30 15 1 15 16
M  V30 16 2 16 17
M  V30 17 1 16 18
M  V30 18 1 3 19
M  V30 19 1 4 20
M  V30 20 1 5 21
M  V30 21 1 6 22
M  V30 22 1 6 23
M  V30 23 1 6 24
M  V30 24 1 7 25
M  V30 25 1 7 26
M  V30 26 1 9 27
M  V30 27 1 9 28
M  V30 28 1 9 29
M  V30 29 1 10 30
M  V30 30 1 12 31
M  V30 31 1 13 32
M  V30 32 1 13 33
M  V30 33 1 13 34
M  V30 34 1 14 35
M  V30 35 1 14 36
M  V30 36 1 14 37
M  V30 37 1 15 38
M  V30 38 1 15 39
M  V30 END BOND
M  V30 BEGIN COLLECTION
M  V30 MDLV30/STEABS ATOMS=(2 4 5)
M  V30 END COLLECTION
M  V30 END CTAB
M  END
>  <Structure No>
5437

>  <LogS>
-0.8953

>  <MMFF94 Energy>
-24.566

$$$$
Compound 5438
Actelion Java MolfileCreator 2.0

  0  0  0  0  0  0              0 V3000
M  V30 BEGIN CTAB
M  V30 COUNTS 22 21 0 0 0
M  V30 BEGIN ATOM
M  V30 1 O 0.0 -2.1639 -0.6951 0
M  V30 2 C -0.0485 -1.0184 -0.1662 0
M  V30 3 O 1.0187 -0.1279 -0.3262 0
M  V30 4 N -1.2007 -0.6275 0.6031 0
M  V30 5 C 2.1818 -0.4474 -1.0818 0
M  V30 6 C -1.2655 0.7101 1.2056 0
M  V30 7 C -2.3048 -1.574 0.7855 0
M  V30 8 C 3.139 0.7334 -1.0644 0
M  V30 9 C -1.6445 1.7504 0.1571 0
M  V30 10 H 2.6846 -1.3348 -0.64 0
M  V30 11 H 1.8968 -0.6734 -2.1322 0
M  V30 12 H -2.017 0.7378 2.0242 0
M  V30 13 H -0.2853 0.9714 1.6604 0
M  V30 14 H -2.7041 -1.8789 -0.2047 0
M  V30 15 H -1.9418 -2.473 1.327 0
M  V30 16 H -3.1367 -1.1237 1.3673 0
M  V30 17 H 2.649 1.6252 -1.5094 0
M  V30 18 H 4.0475 0.4885 -1.654 0
M  V30 19 H 3.4374 0.9643 -0.0199 0
M  V30 20 H -0.8798 1.7891 -0.6467 0
M  V30 21 H -2.6299 1.4981 -0.2889 0
M  V30 22 H -1.7118 2.7517 0.6322 0
M  V30 END ATOM
M  V30 BEGIN BOND
M  V30 1 2 1 2
M  V30 2 1 2 3
M  V30 3 1 2 4
M  V30 4 1 3 5
M  V30 5 1 4 6
M  V30 6 1 4 7
M  V30 7 1 5 8
M  V30 8 1 6 9
M  V30 9 1 5 10
M  V30 10 1 5 11
M  V30 11 1 6 12
M  V30 12 1 6 13
M  V30 13 1 7 14
M  V30 14 1 7 15
M  V30 15 1 7 16
M  V30 16 1 8 17
M  V30 17 1 8 18
M  V30 18 1 8 19
M  V30 19 1 9 20
M  V30 20 1 9 21
M  V30 21 1 9 22
M  V30 END BOND
M  V30 END CTAB
M  END
>  <Structure No>
5438

>  <LogS>
-0.4189

>  <MMFF94 Energy>
-54.567

$$$$
Compound 5439
Actelion Java MolfileCreator 2.0

  0  0  0  0  0  0              0 V3000
M  V30 BEGIN CTAB
M  V30 COUNTS 43 44 0 0 0
M  V30 BEGIN ATOM
M  V30 1 Cl -2.9727 -0.1649 2.2289 0
M  V30 2 C -4.193 0.3184 1.058 0
M  V30 3 C -3.8519 1.0462 -0.0989 0
M  V30 4 C -5.5352 0.0229 1.3248 0
M  V30 5 O -2.5222 1.3581 -0.4089 0
M  V30 6 C -4.8645 1.5064 -0.9463 0
M  V30 7 C -6.5493 0.4399 0.4453 0
M  V30 8 C -1.5018 0.4112 -0.5853 0
M  V30 9 C -6.2029 1.2094 -0.6777 0
M  V30 10 C -7.9969 0.1607 0.763 0
M  V30 11 C -0.1737 0.8443 -0.5462 0
M  V30 12 C -1.7766 -0.9426 -0.8326 0
M  V30 13 F -8.1248 -1.037 1.4448 0
M  V30 14 F -8.4957 1.1824 1.5496 0
M  V30 15 F -8.7457 0.079 -0.3983 0
M  V30 16 C 0.8906 -0.0573 -0.7294 0
M  V30 17 C -0.7328 -1.853 -0.9969 0
M  V30 18 C 0.6049 -1.433 -0.9251 0
M  V30 19 C 2.2714 0.4746 -0.7778 0
M  V30 20 N 1.6458 -2.4207 -0.9985 0 CHG=1
M  V30 21 O 2.5689 1.5078 -0.1166 0
M  V30 22 O 3.23 -0.1367 -1.5957 0
M  V30 23 O 2.5939 -2.3934 -0.187 0
M  V30 24 O 1.4802 -3.5346 -1.7889 0 CHG=-1
M  V30 25 C 4.586 0.2958 -1.6736 0
M  V30 26 C 5.3191 -0.0675 -0.4227 0
M  V30 27 O 5.6943 -1.2582 -0.2436 0
M  V30 28 O 5.5375 0.9081 0.5564 0
M  V30 29 C 6.2334 0.6549 1.7752 0
M  V30 30 C 7.7355 0.5716 1.5301 0
M  V30 31 H -5.7865 -0.5216 2.2268 0
M  V30 32 H -4.6113 2.09 -1.8223 0
M  V30 33 H -6.9671 1.583 -1.3478 0
M  V30 34 H 0.0239 1.8988 -0.3942 0
M  V30 35 H -2.7966 -1.2981 -0.895 0
M  V30 36 H -0.9696 -2.8979 -1.1528 0
M  V30 37 H 5.0718 -0.2044 -2.5374 0
M  V30 38 H 4.631 1.3932 -1.8451 0
M  V30 39 H 6.0325 1.4917 2.4769 0
M  V30 40 H 5.8654 -0.2836 2.2438 0
M  V30 41 H 7.9729 -0.2854 0.8661 0
M  V30 42 H 8.0947 1.5099 1.0568 0
M  V30 43 H 8.264 0.4306 2.4965 0
M  V30 END ATOM
M  V30 BEGIN BOND
M  V30 1 1 1 2
M  V30 2 2 2 3
M  V30 3 1 2 4
M  V30 4 1 3 5
M  V30 5 1 3 6
M  V30 6 2 4 7
M  V30 7 1 5 8
M  V30 8 2 6 9
M  V30 9 1 7 10
M  V30 10 2 8 11
M  V30 11 1 8 12
M  V30 12 1 10 13
M  V30 13 1 10 14
M  V30 14 1 10 15
M  V30 15 1 11 16
M  V30 16 2 12 17
M  V30 17 2 16 18
M  V30 18 1 16 19
M  V30 19 1 18 20
M  V30 20 2 19 21
M  V30 21 1 19 22
M  V30 22 2 20 23
M  V30 23 1 20 24
M  V30 24 1 22 25
M  V30 25 1 25 26
M  V30 26 2 26 27
M  V30 27 1 26 28
M  V30 28 1 28 29
M  V30 29 1 29 30
M  V30 30 1 7 9
M  V30 31 1 17 18
M  V30 32 1 4 31
M  V30 33 1 6 32
M  V30 34 1 9 33
M  V30 35 1 11 34
M  V30 36 1 12 35
M  V30 37 1 17 36
M  V30 38 1 25 37
M  V30 39 1 25 38
M  V30 40 1 29 39
M  V30 41 1 29 40
M  V30 42 1 30 41
M  V30 43 1 30 42
M  V30 44 1 30 43
M  V30 END BOND
M  V30 END CTAB
M  END
>  <Structure No>
5439

>  <LogS>
-5.8729

>  <MMFF94 Energy>
83.415

$$$$
Compound 5440
Actelion Java MolfileCreator 2.0

  0  0  0  0  0  0              0 V3000
M  V30 BEGIN CTAB
M  V30 COUNTS 29 28 0 0 0
M  V30 BEGIN ATOM
M  V30 1 O -0.7731 -1.3919 0.3865 0
M  V30 2 C -0.0021 -0.2834 -0.0525 0
M  V30 3 C -1.5639 -1.9032 -0.6661 0
M  V30 4 O 0.0146 0.6881 0.9758 0
M  V30 5 C 1.4428 -0.7615 -0.2976 0
M  V30 6 C -2.2848 -3.1533 -0.1876 0
M  V30 7 C -1.203 1.4038 0.9914 0
M  V30 8 C 2.3135 0.2176 -1.1122 0 CFG=1
M  V30 9 C -1.1869 2.3867 2.1513 0
M  V30 10 O 1.7468 0.4189 -2.3812 0
M  V30 11 C 2.5177 1.5621 -0.4046 0
M  V30 12 H -0.379 0.167 -1.0074 0
M  V30 13 H -2.3278 -1.1539 -0.9744 0
M  V30 14 H -0.9339 -2.1755 -1.5433 0
M  V30 15 H 1.9334 -0.973 0.678 0
M  V30 16 H 1.4129 -1.7239 -0.8536 0
M  V30 17 H -2.9354 -2.9086 0.6787 0
M  V30 18 H -2.9138 -3.561 -1.0068 0
M  V30 19 H -1.5459 -3.9242 0.1174 0
M  V30 20 H -2.0702 0.7183 1.1269 0
M  V30 21 H -1.3299 1.9825 0.0486 0
M  V30 22 H 3.314 -0.261 -1.2286 0
M  V30 23 H -1.0755 1.8395 3.1113 0
M  V30 24 H -0.3401 3.0962 2.0358 0
M  V30 25 H -2.1376 2.9602 2.1716 0
M  V30 26 H 2.4599 0.7995 -2.9577 0
M  V30 27 H 1.5822 2.1595 -0.4147 0
M  V30 28 H 2.8462 1.404 0.6445 0
M  V30 29 H 3.3024 2.1449 -0.9316 0
M  V30 END ATOM
M  V30 BEGIN BOND
M  V30 1 1 1 2
M  V30 2 1 1 3
M  V30 3 1 2 4
M  V30 4 1 2 5
M  V30 5 1 3 6
M  V30 6 1 4 7
M  V30 7 1 5 8
M  V30 8 1 7 9
M  V30 9 1 8 10
M  V30 10 1 8 11
M  V30 11 1 2 12
M  V30 12 1 3 13
M  V30 13 1 3 14
M  V30 14 1 5 15
M  V30 15 1 5 16
M  V30 16 1 6 17
M  V30 17 1 6 18
M  V30 18 1 6 19
M  V30 19 1 7 20
M  V30 20 1 7 21
M  V30 21 1 8 22
M  V30 22 1 9 23
M  V30 23 1 9 24
M  V30 24 1 9 25
M  V30 25 1 10 26
M  V30 26 1 11 27
M  V30 27 1 11 28
M  V30 28 1 11 29
M  V30 END BOND
M  V30 BEGIN COLLECTION
M  V30 MDLV30/STEABS ATOMS=(1 8)
M  V30 END COLLECTION
M  V30 END CTAB
M  END
>  <Structure No>
5440

>  <LogS>
0.0909

>  <MMFF94 Energy>
-7.1353

$$$$
Compound 5441
Actelion Java MolfileCreator 2.0

  0  0  0  0  0  0              0 V3000
M  V30 BEGIN CTAB
M  V30 COUNTS 18 19 0 0 0
M  V30 BEGIN ATOM
M  V30 1 N 0.5599 2.4816 0.0799 0
M  V30 2 C 0.999 1.2072 0.2246 0
M  V30 3 C -0.723 2.735 -0.28 0
M  V30 4 N 2.2863 0.9662 0.5857 0
M  V30 5 C 0.1233 0.1256 0.0016 0
M  V30 6 N -1.5861 1.7096 -0.5005 0
M  V30 7 C 2.747 -0.3028 0.7362 0
M  V30 8 N 0.5959 -1.1404 0.1554 0
M  V30 9 C -1.2104 0.407 -0.3729 0
M  V30 10 C 1.8841 -1.3783 0.5167 0
M  V30 11 N -2.2029 -0.608 -0.6295 0
M  V30 12 N -1.9753 -1.991 -0.5415 0
M  V30 13 H -1.0599 3.7564 -0.3916 0
M  V30 14 H 3.7752 -0.4755 1.0243 0
M  V30 15 H 2.2352 -2.3948 0.6323 0
M  V30 16 H -3.1618 -0.2951 -0.9008 0
M  V30 17 H -1.2186 -2.2431 -1.2165 0
M  V30 18 H -1.6761 -2.2134 0.4346 0
M  V30 END ATOM
M  V30 BEGIN BOND
M  V30 1 1 1 2
M  V30 2 2 1 3
M  V30 3 2 2 4
M  V30 4 1 2 5
M  V30 5 1 3 6
M  V30 6 1 4 7
M  V30 7 2 5 8
M  V30 8 1 5 9
M  V30 9 2 7 10
M  V30 10 1 9 11
M  V30 11 1 11 12
M  V30 12 2 6 9
M  V30 13 1 8 10
M  V30 14 1 3 13
M  V30 15 1 7 14
M  V30 16 1 10 15
M  V30 17 1 11 16
M  V30 18 1 12 17
M  V30 19 1 12 18
M  V30 END BOND
M  V30 END CTAB
M  END
>  <Structure No>
5441

>  <LogS>
-1.8632

>  <MMFF94 Energy>
110.37

$$$$
Compound 5442
Actelion Java MolfileCreator 2.0

  0  0  0  0  0  0              0 V3000
M  V30 BEGIN CTAB
M  V30 COUNTS 38 39 0 0 0
M  V30 BEGIN ATOM
M  V30 1 O 0.7966 3.1897 1.1155 0
M  V30 2 C -0.2118 3.0808 0.3699 0
M  V30 3 O -1.193 4.0394 0.2778 0
M  V30 4 N -0.5049 1.9388 -0.4084 0
M  V30 5 C -2.2293 3.5788 -0.5835 0
M  V30 6 N 0.1845 0.7091 -0.3534 0
M  V30 7 C -1.8311 2.1371 -0.9823 0
M  V30 8 C -0.5612 -0.5207 -0.3955 0
M  V30 9 C 1.6251 0.6813 -0.3446 0
M  V30 10 C -1.2289 -0.9768 0.7629 0
M  V30 11 C -0.6447 -1.2646 -1.5949 0
M  V30 12 O 2.2691 1.6636 -0.8033 0
M  V30 13 C 2.3769 -0.5282 0.1347 0
M  V30 14 C -1.9645 -2.1706 0.7124 0
M  V30 15 C -1.1895 -0.1807 2.0391 0
M  V30 16 C -1.3609 -2.4711 -1.6098 0
M  V30 17 C 0.0501 -0.805 -2.8479 0
M  V30 18 O 3.634 -0.1346 0.6435 0
M  V30 19 C -2.0205 -2.9163 -0.4645 0
M  V30 20 C 4.3427 -1.2757 1.0717 0
M  V30 21 H -3.2013 3.5903 -0.0459 0
M  V30 22 H -2.2848 4.2317 -1.4805 0
M  V30 23 H -1.7904 2.0231 -2.0863 0
M  V30 24 H -2.5506 1.4094 -0.5494 0
M  V30 25 H 2.4978 -1.2208 -0.7276 0
M  V30 26 H 1.7812 -1.0285 0.931 0
M  V30 27 H -2.4919 -2.5295 1.5875 0
M  V30 28 H -1.5442 -0.782 2.903 0
M  V30 29 H -0.1513 0.1462 2.2579 0
M  V30 30 H -1.8394 0.7135 1.9392 0
M  V30 31 H -1.4179 -3.0651 -2.5135 0
M  V30 32 H -0.0279 0.2967 -2.9588 0
M  V30 33 H -0.4076 -1.2642 -3.7498 0
M  V30 34 H 1.1205 -1.093 -2.8076 0
M  V30 35 H -2.581 -3.8419 -0.4903 0
M  V30 36 H 3.8043 -1.8005 1.8922 0
M  V30 37 H 5.3262 -0.9521 1.4697 0
M  V30 38 H 4.5351 -1.9717 0.2251 0
M  V30 END ATOM
M  V30 BEGIN BOND
M  V30 1 2 1 2
M  V30 2 1 2 3
M  V30 3 1 2 4
M  V30 4 1 3 5
M  V30 5 1 4 6
M  V30 6 1 4 7
M  V30 7 1 6 8
M  V30 8 1 6 9
M  V30 9 2 8 10
M  V30 10 1 8 11
M  V30 11 2 9 12
M  V30 12 1 9 13
M  V30 13 1 10 14
M  V30 14 1 10 15
M  V30 15 2 11 16
M  V30 16 1 11 17
M  V30 17 1 13 18
M  V30 18 2 14 19
M  V30 19 1 18 20
M  V30 20 1 5 7
M  V30 21 1 16 19
M  V30 22 1 5 21
M  V30 23 1 5 22
M  V30 24 1 7 23
M  V30 25 1 7 24
M  V30 26 1 13 25
M  V30 27 1 13 26
M  V30 28 1 14 27
M  V30 29 1 15 28
M  V30 30 1 15 29
M  V30 31 1 15 30
M  V30 32 1 16 31
M  V30 33 1 17 32
M  V30 34 1 17 33
M  V30 35 1 17 34
M  V30 36 1 19 35
M  V30 37 1 20 36
M  V30 38 1 20 37
M  V30 39 1 20 38
M  V30 END BOND
M  V30 END CTAB
M  END
>  <Structure No>
5442

>  <LogS>
-1.913

>  <MMFF94 Energy>
81.163

$$$$
Compound 5443
Actelion Java MolfileCreator 2.0

  0  0  0  0  0  0              0 V3000
M  V30 BEGIN CTAB
M  V30 COUNTS 33 33 0 0 0
M  V30 BEGIN ATOM
M  V30 1 O 1.3354 1.3354 0.8639 0
M  V30 2 C 1.9874 0.4685 0.2196 0
M  V30 3 N 1.2961 -0.4163 -0.6786 0
M  V30 4 C 3.454 0.3734 0.4162 0
M  V30 5 C -0.1312 -0.2824 -0.9641 0
M  V30 6 C 4.0398 0.8422 1.6056 0
M  V30 7 C 4.2972 -0.1566 -0.576 0
M  V30 8 C -0.9631 -0.8403 0.199 0
M  V30 9 N 5.3847 0.7619 1.7887 0
M  V30 10 C 5.6751 -0.226 -0.362 0
M  V30 11 C -2.4671 -0.8865 -0.1143 0
M  V30 12 C 6.2058 0.2405 0.8403 0
M  V30 13 C -3.1123 0.5101 -0.1096 0
M  V30 14 C -4.6168 0.464 -0.4202 0
M  V30 15 C -5.4438 -0.1011 0.7344 0
M  V30 16 H 1.8099 -1.1976 -1.1423 0
M  V30 17 H -0.3715 0.7853 -1.1509 0
M  V30 18 H -0.3671 -0.8524 -1.8891 0
M  V30 19 H 3.4281 1.2622 2.3939 0
M  V30 20 H 3.9046 -0.4931 -1.5256 0
M  V30 21 H -0.7898 -0.2408 1.1184 0
M  V30 22 H -0.6211 -1.8778 0.4076 0
M  V30 23 H 6.3268 -0.6314 -1.1252 0
M  V30 24 H -2.9506 -1.5137 0.6637 0
M  V30 25 H -2.633 -1.3802 -1.0967 0
M  V30 26 H 7.2717 0.1932 1.0182 0
M  V30 27 H -2.6305 1.1378 -0.8882 0
M  V30 28 H -2.9459 1.0039 0.8727 0
M  V30 29 H -4.8006 -0.1339 -1.339 0
M  V30 30 H -4.9652 1.5007 -0.6199 0
M  V30 31 H -5.2307 0.4522 1.6736 0
M  V30 32 H -6.5241 0.0058 0.5003 0
M  V30 33 H -5.2298 -1.1794 0.8828 0
M  V30 END ATOM
M  V30 BEGIN BOND
M  V30 1 2 1 2
M  V30 2 1 2 3
M  V30 3 1 2 4
M  V30 4 1 3 5
M  V30 5 2 4 6
M  V30 6 1 4 7
M  V30 7 1 5 8
M  V30 8 1 6 9
M  V30 9 2 7 10
M  V30 10 1 8 11
M  V30 11 2 9 12
M  V30 12 1 11 13
M  V30 13 1 13 14
M  V30 14 1 14 15
M  V30 15 1 10 12
M  V30 16 1 3 16
M  V30 17 1 5 17
M  V30 18 1 5 18
M  V30 19 1 6 19
M  V30 20 1 7 20
M  V30 21 1 8 21
M  V30 22 1 8 22
M  V30 23 1 10 23
M  V30 24 1 11 24
M  V30 25 1 11 25
M  V30 26 1 12 26
M  V30 27 1 13 27
M  V30 28 1 13 28
M  V30 29 1 14 29
M  V30 30 1 14 30
M  V30 31 1 15 31
M  V30 32 1 15 32
M  V30 33 1 15 33
M  V30 END BOND
M  V30 END CTAB
M  END
>  <Structure No>
5443

>  <LogS>
-2.5221

>  <MMFF94 Energy>
7.5753

$$$$
Compound 5444
Actelion Java MolfileCreator 2.0

  0  0  0  0  0  0              0 V3000
M  V30 BEGIN CTAB
M  V30 COUNTS 40 41 0 0 0
M  V30 BEGIN ATOM
M  V30 1 O 2.0042 2.4054 -0.3204 0
M  V30 2 C 1.1833 1.5334 0.0734 0
M  V30 3 N 1.1727 0.2193 -0.5089 0
M  V30 4 N 0.2784 1.8541 1.125 0
M  V30 5 C 0.1062 -0.6956 -0.1737 0
M  V30 6 C 2.2322 -0.1864 -1.4511 0
M  V30 7 C -0.7343 0.934 1.5289 0
M  V30 8 O 0.1162 -1.8614 -0.6608 0
M  V30 9 C -1.1058 -0.2529 0.6513 0 CFG=1
M  V30 10 C 3.419 -0.8837 -0.7477 0 CFG=2
M  V30 11 O -1.3817 1.1707 2.5857 0
M  V30 12 C -2.2659 0.1898 -0.2658 0
M  V30 13 C -1.577 -1.4536 1.5393 0
M  V30 14 O 2.9977 -2.0463 -0.0788 0
M  V30 15 C 4.2049 0.0425 0.1971 0
M  V30 16 C -2.1451 0.2482 -1.6775 0
M  V30 17 C -3.4977 0.5929 0.3024 0
M  V30 18 C -0.4985 -1.9952 2.4883 0
M  V30 19 O 4.7485 1.1162 -0.5204 0
M  V30 20 C -3.2153 0.6668 -2.4735 0
M  V30 21 C -4.5619 1.0102 -0.5014 0
M  V30 22 C -4.4222 1.0443 -1.8874 0
M  V30 23 H 0.3833 2.7603 1.6347 0
M  V30 24 H 2.5999 0.6914 -2.0248 0
M  V30 25 H 1.8137 -0.8761 -2.2162 0
M  V30 26 H 4.1233 -1.2052 -1.5459 0
M  V30 27 H -1.9239 -2.2867 0.8887 0
M  V30 28 H -2.4484 -1.1649 2.1638 0
M  V30 29 H 2.5355 -1.7674 0.7542 0
M  V30 30 H 5.0298 -0.54 0.6647 0
M  V30 31 H 3.5454 0.4193 1.0096 0
M  V30 32 H -1.2299 -0.0221 -2.1844 0
M  V30 33 H -3.6416 0.5968 1.3738 0
M  V30 34 H -0.9332 -2.8022 3.1151 0
M  V30 35 H -0.1244 -1.1965 3.1619 0
M  V30 36 H 0.3534 -2.424 1.9228 0
M  V30 37 H 5.2219 1.6803 0.1447 0
M  V30 38 H -3.106 0.7015 -3.5499 0
M  V30 39 H -5.4965 1.3121 -0.0462 0
M  V30 40 H -5.2478 1.3691 -2.5075 0
M  V30 END ATOM
M  V30 BEGIN BOND
M  V30 1 2 1 2
M  V30 2 1 2 3
M  V30 3 1 2 4
M  V30 4 1 3 5
M  V30 5 1 3 6
M  V30 6 1 4 7
M  V30 7 2 5 8
M  V30 8 1 5 9
M  V30 9 1 6 10
M  V30 10 2 7 11
M  V30 11 1 9 12
M  V30 12 1 9 13
M  V30 13 1 10 14
M  V30 14 1 10 15
M  V30 15 2 12 16
M  V30 16 1 12 17
M  V30 17 1 13 18
M  V30 18 1 15 19
M  V30 19 1 16 20
M  V30 20 2 17 21
M  V30 21 2 20 22
M  V30 22 1 7 9
M  V30 23 1 21 22
M  V30 24 1 4 23
M  V30 25 1 6 24
M  V30 26 1 6 25
M  V30 27 1 10 26
M  V30 28 1 13 27
M  V30 29 1 13 28
M  V30 30 1 14 29
M  V30 31 1 15 30
M  V30 32 1 15 31
M  V30 33 1 16 32
M  V30 34 1 17 33
M  V30 35 1 18 34
M  V30 36 1 18 35
M  V30 37 1 18 36
M  V30 38 1 19 37
M  V30 39 1 20 38
M  V30 40 1 21 39
M  V30 41 1 22 40
M  V30 END BOND
M  V30 BEGIN COLLECTION
M  V30 MDLV30/STEABS ATOMS=(2 9 10)
M  V30 END COLLECTION
M  V30 END CTAB
M  END
>  <Structure No>
5444

>  <LogS>
-1.7872

>  <MMFF94 Energy>
-34.423

$$$$
Compound 5445
Actelion Java MolfileCreator 2.0

  0  0  0  0  0  0              0 V3000
M  V30 BEGIN CTAB
M  V30 COUNTS 44 46 0 0 0
M  V30 BEGIN ATOM
M  V30 1 Cl 8.6655 -0.8228 0.0822 0
M  V30 2 C 6.9898 -0.312 -0.005 0
M  V30 3 C 6.2709 -0.0657 1.1681 0
M  V30 4 C 6.3684 -0.1591 -1.2476 0
M  V30 5 C 4.9346 0.3392 1.1011 0
M  V30 6 C 5.0321 0.245 -1.3188 0
M  V30 7 C 4.3034 0.5139 -0.1466 0
M  V30 8 C 2.8427 0.9104 -0.2555 0 CFG=2
M  V30 9 S 2.3094 2.0962 1.0392 0
M  V30 10 C 1.8519 -0.2827 -0.2689 0 CFG=2
M  V30 11 C 0.6555 1.4867 0.8081 0
M  V30 12 N 0.5454 0.2793 0.0588 0
M  V30 13 C 2.2046 -1.3835 0.7455 0
M  V30 14 O -0.3418 2.0766 1.3005 0
M  V30 15 C -0.6946 -0.3241 -0.3567 0
M  V30 16 O -0.7333 -1.5612 -0.5982 0
M  V30 17 N -1.876 0.4725 -0.5404 0
M  V30 18 C -3.2017 -0.1317 -0.7274 0
M  V30 19 C -3.6995 -0.768 0.5988 0
M  V30 20 C -4.1966 0.9112 -1.2989 0
M  V30 21 C -4.6619 0.1529 1.3565 0
M  V30 22 C -5.6465 0.5197 -0.998 0
M  V30 23 C -5.917 0.4733 0.52 0
M  V30 24 H 6.7447 -0.1933 2.1332 0
M  V30 25 H 6.9181 -0.3573 -2.1587 0
M  V30 26 H 4.3947 0.5037 2.0242 0
M  V30 27 H 4.564 0.3465 -2.2901 0
M  V30 28 H 2.7066 1.4573 -1.2157 0
M  V30 29 H 1.83 -0.7269 -1.289 0
M  V30 30 H 3.1611 -1.8745 0.4694 0
M  V30 31 H 1.419 -2.1668 0.7528 0
M  V30 32 H 2.2878 -0.9614 1.7696 0
M  V30 33 H -1.7642 1.5062 -0.6371 0
M  V30 34 H -3.1131 -0.9449 -1.4824 0
M  V30 35 H -2.8454 -1.0265 1.2613 0
M  V30 36 H -4.2292 -1.7195 0.3715 0
M  V30 37 H -4.0546 0.9954 -2.3983 0
M  V30 38 H -4.0111 1.9161 -0.8586 0
M  V30 39 H -4.1318 1.0973 1.6108 0
M  V30 40 H -4.9659 -0.3285 2.311 0
M  V30 41 H -6.3366 1.248 -1.4762 0
M  V30 42 H -5.8505 -0.4788 -1.4433 0
M  V30 43 H -6.3232 1.4534 0.8528 0
M  V30 44 H -6.6981 -0.2924 0.7191 0
M  V30 END ATOM
M  V30 BEGIN BOND
M  V30 1 1 1 2
M  V30 2 2 2 3
M  V30 3 1 2 4
M  V30 4 1 3 5
M  V30 5 2 4 6
M  V30 6 2 5 7
M  V30 7 1 7 8
M  V30 8 1 8 9
M  V30 9 1 8 10
M  V30 10 1 9 11
M  V30 11 1 10 12
M  V30 12 1 10 13
M  V30 13 2 11 14
M  V30 14 1 12 15
M  V30 15 2 15 16
M  V30 16 1 15 17
M  V30 17 1 17 18
M  V30 18 1 18 19
M  V30 19 1 18 20
M  V30 20 1 19 21
M  V30 21 1 20 22
M  V30 22 1 21 23
M  V30 23 1 6 7
M  V30 24 1 11 12
M  V30 25 1 22 23
M  V30 26 1 3 24
M  V30 27 1 4 25
M  V30 28 1 5 26
M  V30 29 1 6 27
M  V30 30 1 8 28
M  V30 31 1 10 29
M  V30 32 1 13 30
M  V30 33 1 13 31
M  V30 34 1 13 32
M  V30 35 1 17 33
M  V30 36 1 18 34
M  V30 37 1 19 35
M  V30 38 1 19 36
M  V30 39 1 20 37
M  V30 40 1 20 38
M  V30 41 1 21 39
M  V30 42 1 21 40
M  V30 43 1 22 41
M  V30 44 1 22 42
M  V30 45 1 23 43
M  V30 46 1 23 44
M  V30 END BOND
M  V30 BEGIN COLLECTION
M  V30 MDLV30/STEABS ATOMS=(2 8 10)
M  V30 END COLLECTION
M  V30 END CTAB
M  END
>  <Structure No>
5445

>  <LogS>
-5.8487

>  <MMFF94 Energy>
-74.928

$$$$
Compound 5446
Actelion Java MolfileCreator 2.0

  0  0  0  0  0  0              0 V3000
M  V30 BEGIN CTAB
M  V30 COUNTS 47 48 0 0 0
M  V30 BEGIN ATOM
M  V30 1 F 8.4776 2.1747 1.9329 0
M  V30 2 C 8.2868 1.9188 0.5878 0
M  V30 3 F 9.4764 1.4737 0.0389 0
M  V30 4 F 7.9259 3.0933 -0.0502 0
M  V30 5 C 7.2208 0.8639 0.4267 0
M  V30 6 C 5.8834 1.2084 0.1615 0
M  V30 7 C 7.5279 -0.4869 0.6453 0
M  V30 8 N 4.9324 0.2418 0.0617 0
M  V30 9 C 6.5352 -1.4618 0.5296 0
M  V30 10 C 5.2255 -1.0793 0.2316 0
M  V30 11 O 4.239 -2.0633 0.094 0
M  V30 12 C 2.8537 -1.8286 0.0701 0
M  V30 13 C 2.0408 -2.6757 -0.6937 0
M  V30 14 C 2.2567 -0.7995 0.8228 0
M  V30 15 C 0.6585 -2.4738 -0.7498 0
M  V30 16 C 0.8737 -0.5945 0.7642 0
M  V30 17 C 0.0627 -1.4286 -0.0339 0
M  V30 18 O -1.3314 -1.27 -0.1421 0
M  V30 19 C -2.0889 -0.1727 0.3645 0 CFG=2
M  V30 20 C -3.5404 -0.5456 0.326 0
M  V30 21 C -1.8489 1.0784 -0.4876 0
M  V30 22 O -4.1818 -0.6776 1.4066 0
M  V30 23 O -4.1608 -0.7754 -0.9122 0
M  V30 24 C -5.5436 -1.0975 -1.0601 0
M  V30 25 C -6.3683 0.1588 -1.3591 0
M  V30 26 C -6.5841 1.0232 -0.1121 0
M  V30 27 C -7.4941 2.2172 -0.4192 0
M  V30 28 H 5.5931 2.2429 0.0277 0
M  V30 29 H 8.5352 -0.7875 0.9042 0
M  V30 30 H 6.78 -2.5062 0.6763 0
M  V30 31 H 2.4839 -3.4915 -1.2523 0
M  V30 32 H 2.8517 -0.1713 1.4735 0
M  V30 33 H 0.0464 -3.1328 -1.3554 0
M  V30 34 H 0.4518 0.2099 1.3498 0
M  V30 35 H -1.811 0.0365 1.4212 0
M  V30 36 H -0.7869 1.4006 -0.4168 0
M  V30 37 H -2.0844 0.874 -1.5522 0
M  V30 38 H -2.4822 1.9134 -0.1265 0
M  V30 39 H -5.9335 -1.6404 -0.1709 0
M  V30 40 H -5.6396 -1.7839 -1.9292 0
M  V30 41 H -5.8564 0.7555 -2.1447 0
M  V30 42 H -7.3525 -0.1587 -1.7575 0
M  V30 43 H -7.048 0.4151 0.6987 0
M  V30 44 H -5.6008 1.4071 0.2474 0
M  V30 45 H -7.6571 2.8006 0.5144 0
M  V30 46 H -7.0124 2.8819 -1.1797 0
M  V30 47 H -8.4859 1.8765 -0.8068 0
M  V30 END ATOM
M  V30 BEGIN BOND
M  V30 1 1 1 2
M  V30 2 1 2 3
M  V30 3 1 2 4
M  V30 4 1 2 5
M  V30 5 2 5 6
M  V30 6 1 5 7
M  V30 7 1 6 8
M  V30 8 2 7 9
M  V30 9 2 8 10
M  V30 10 1 10 11
M  V30 11 1 11 12
M  V30 12 2 12 13
M  V30 13 1 12 14
M  V30 14 1 13 15
M  V30 15 2 14 16
M  V30 16 2 15 17
M  V30 17 1 17 18
M  V30 18 1 18 19
M  V30 19 1 19 20
M  V30 20 1 19 21
M  V30 21 2 20 22
M  V30 22 1 20 23
M  V30 23 1 23 24
M  V30 24 1 24 25
M  V30 25 1 25 26
M  V30 26 1 26 27
M  V30 27 1 9 10
M  V30 28 1 16 17
M  V30 29 1 6 28
M  V30 30 1 7 29
M  V30 31 1 9 30
M  V30 32 1 13 31
M  V30 33 1 14 32
M  V30 34 1 15 33
M  V30 35 1 16 34
M  V30 36 1 19 35
M  V30 37 1 21 36
M  V30 38 1 21 37
M  V30 39 1 21 38
M  V30 40 1 24 39
M  V30 41 1 24 40
M  V30 42 1 25 41
M  V30 43 1 25 42
M  V30 44 1 26 43
M  V30 45 1 26 44
M  V30 46 1 27 45
M  V30 47 1 27 46
M  V30 48 1 27 47
M  V30 END BOND
M  V30 BEGIN COLLECTION
M  V30 MDLV30/STEABS ATOMS=(1 19)
M  V30 END COLLECTION
M  V30 END CTAB
M  END
>  <Structure No>
5446

>  <LogS>
-5.2826

>  <MMFF94 Energy>
67.501

$$$$
Compound 5447
Actelion Java MolfileCreator 2.0

  0  0  0  0  0  0              0 V3000
M  V30 BEGIN CTAB
M  V30 COUNTS 37 38 0 0 0
M  V30 BEGIN ATOM
M  V30 1 S -2.2596 0.5854 -1.5897 0
M  V30 2 O -1.7593 1.8439 -0.937 0
M  V30 3 O -3.5034 0.8941 -2.3741 0
M  V30 4 N -1.0497 0.0047 -2.6875 0 CHG=-1
M  V30 5 C -2.6336 -0.6368 -0.3723 0
M  V30 6 C 0.3204 -0.2355 -2.3455 0
M  V30 7 C -3.4593 -0.4388 0.7431 0
M  V30 8 C -2.092 -1.9316 -0.433 0
M  V30 9 O 1.1088 -0.5992 -3.2577 0
M  V30 10 N 0.7909 -0.0854 -0.9925 0
M  V30 11 S -3.4792 -1.8702 1.6296 0
M  V30 12 C -4.2195 0.7662 1.1249 0
M  V30 13 C -2.4669 -2.7497 0.6218 0
M  V30 14 C 2.1548 -0.2713 -0.5831 0
M  V30 15 O -4.8237 0.7888 2.2322 0
M  V30 16 O -4.2901 1.867 0.2679 0
M  V30 17 N 2.4764 -0.1663 0.7321 0
M  V30 18 N 3.1309 -0.541 -1.4895 0
M  V30 19 C -5.012 3.0491 0.5916 0
M  V30 20 C 3.7622 -0.3294 1.1426 0
M  V30 21 C 4.4143 -0.718 -1.0844 0
M  V30 22 O 4.1034 -0.22 2.4932 0
M  V30 23 N 4.7292 -0.6002 0.2308 0
M  V30 24 C 5.4861 -0.9766 -2.0898 0
M  V30 25 C 3.1464 0.0607 3.508 0
M  V30 26 H -1.4374 -2.2711 -1.2237 0
M  V30 27 H 0.108 0.151 -0.2409 0
M  V30 28 H -2.1594 -3.7764 0.7665 0
M  V30 29 H -4.598 3.5064 1.5151 0
M  V30 30 H -6.0865 2.8103 0.7391 0
M  V30 31 H -4.9158 3.7739 -0.2425 0
M  V30 32 H 5.0713 -1.5328 -2.9569 0
M  V30 33 H 5.9029 -0.0103 -2.442 0
M  V30 34 H 6.2994 -1.5812 -1.6357 0
M  V30 35 H 2.6653 1.0432 3.3162 0
M  V30 36 H 3.6579 0.0971 4.4917 0
M  V30 37 H 2.374 -0.7369 3.5336 0
M  V30 END ATOM
M  V30 BEGIN BOND
M  V30 1 2 1 2
M  V30 2 2 1 3
M  V30 3 1 1 4
M  V30 4 1 1 5
M  V30 5 1 4 6
M  V30 6 2 5 7
M  V30 7 1 5 8
M  V30 8 2 6 9
M  V30 9 1 6 10
M  V30 10 1 7 11
M  V30 11 1 7 12
M  V30 12 2 8 13
M  V30 13 1 10 14
M  V30 14 2 12 15
M  V30 15 1 12 16
M  V30 16 2 14 17
M  V30 17 1 14 18
M  V30 18 1 16 19
M  V30 19 1 17 20
M  V30 20 2 18 21
M  V30 21 1 20 22
M  V30 22 2 20 23
M  V30 23 1 21 24
M  V30 24 1 22 25
M  V30 25 1 11 13
M  V30 26 1 21 23
M  V30 27 1 8 26
M  V30 28 1 10 27
M  V30 29 1 13 28
M  V30 30 1 19 29
M  V30 31 1 19 30
M  V30 32 1 19 31
M  V30 33 1 24 32
M  V30 34 1 24 33
M  V30 35 1 24 34
M  V30 36 1 25 35
M  V30 37 1 25 36
M  V30 38 1 25 37
M  V30 END BOND
M  V30 END CTAB
M  END
>  <Structure No>
5447

>  <LogS>
-2.2379

>  <MMFF94 Energy>
-163.22

$$$$
Compound 5448
Actelion Java MolfileCreator 2.0

  0  0  0  0  0  0              0 V3000
M  V30 BEGIN CTAB
M  V30 COUNTS 41 42 0 0 0
M  V30 BEGIN ATOM
M  V30 1 Cl -1.6658 -1.8325 2.6663 0
M  V30 2 C -2.4107 -0.5728 1.681 0
M  V30 3 C -1.7357 -0.1346 0.601 0
M  V30 4 C -3.7648 -0.0321 2.0809 0
M  V30 5 C -2.2828 0.9236 -0.3376 0 CFG=2
M  V30 6 F -3.6668 1.3156 2.3736 0
M  V30 7 F -4.6712 -0.2142 1.0533 0
M  V30 8 F -4.2365 -0.69 3.2029 0
M  V30 9 C -2.9965 0.4076 -1.5966 0
M  V30 10 C -1.6406 1.1197 -1.7281 0 CFG=2
M  V30 11 C -4.2131 1.2291 -2.0333 0
M  V30 12 C -3.0767 -1.1144 -1.8272 0
M  V30 13 C -0.4403 0.2918 -2.0899 0
M  V30 14 O -0.4485 -0.3948 -3.1478 0
M  V30 15 O 0.7099 0.3676 -1.3008 0
M  V30 16 C 1.8797 -0.397 -1.5661 0
M  V30 17 C 2.8291 -0.2544 -0.4098 0
M  V30 18 C 2.709 -1.0955 0.7102 0
M  V30 19 C 3.7953 0.766 -0.403 0
M  V30 20 F 1.7632 -2.0693 0.7415 0
M  V30 21 C 3.5649 -0.9405 1.8058 0
M  V30 22 F 3.9149 1.6084 -1.4602 0
M  V30 23 C 4.6468 0.9252 0.6954 0
M  V30 24 F 3.4527 -1.7899 2.8596 0
M  V30 25 C 4.5296 0.0816 1.8132 0
M  V30 26 F 5.5868 1.9044 0.6687 0
M  V30 27 C 5.4724 0.2297 2.9754 0
M  V30 28 H -0.768 -0.578 0.4041 0
M  V30 29 H -2.6629 1.8707 0.1011 0
M  V30 30 H -1.6719 2.1643 -2.1054 0
M  V30 31 H -5.1143 0.8777 -1.4893 0
M  V30 32 H -4.0817 2.3144 -1.8307 0
M  V30 33 H -4.3766 1.0935 -3.1221 0
M  V30 34 H -2.1696 -1.6582 -1.4946 0
M  V30 35 H -3.2211 -1.3148 -2.9093 0
M  V30 36 H -3.9457 -1.524 -1.2722 0
M  V30 37 H 1.6095 -1.4674 -1.706 0
M  V30 38 H 2.3488 -0.0467 -2.511 0
M  V30 39 H 5.0028 -0.1248 3.9169 0
M  V30 40 H 6.3921 -0.3631 2.7843 0
M  V30 41 H 5.7502 1.2953 3.1227 0
M  V30 END ATOM
M  V30 BEGIN BOND
M  V30 1 1 1 2
M  V30 2 2 2 3
M  V30 3 1 2 4
M  V30 4 1 3 5
M  V30 5 1 4 6
M  V30 6 1 4 7
M  V30 7 1 4 8
M  V30 8 1 5 9
M  V30 9 1 5 10
M  V30 10 1 9 11
M  V30 11 1 9 12
M  V30 12 1 10 13
M  V30 13 2 13 14
M  V30 14 1 13 15
M  V30 15 1 15 16
M  V30 16 1 16 17
M  V30 17 2 17 18
M  V30 18 1 17 19
M  V30 19 1 18 20
M  V30 20 1 18 21
M  V30 21 1 19 22
M  V30 22 2 19 23
M  V30 23 1 21 24
M  V30 24 2 21 25
M  V30 25 1 23 26
M  V30 26 1 25 27
M  V30 27 1 9 10
M  V30 28 1 23 25
M  V30 29 1 3 28
M  V30 30 1 5 29
M  V30 31 1 10 30
M  V30 32 1 11 31
M  V30 33 1 11 32
M  V30 34 1 11 33
M  V30 35 1 12 34
M  V30 36 1 12 35
M  V30 37 1 12 36
M  V30 38 1 16 37
M  V30 39 1 16 38
M  V30 40 1 27 39
M  V30 41 1 27 40
M  V30 42 1 27 41
M  V30 END BOND
M  V30 BEGIN COLLECTION
M  V30 MDLV30/STEABS ATOMS=(2 5 10)
M  V30 END COLLECTION
M  V30 END CTAB
M  END
>  <Structure No>
5448

>  <LogS>
-7.3209

>  <MMFF94 Energy>
50.529

$$$$
Compound 5449
Actelion Java MolfileCreator 2.0

  0  0  0  0  0  0              0 V3000
M  V30 BEGIN CTAB
M  V30 COUNTS 33 32 0 0 0
M  V30 BEGIN ATOM
M  V30 1 O -0.155 2.095 0.6203 0
M  V30 2 C 0.0118 0.9805 0.0516 0
M  V30 3 N 1.3518 0.5563 -0.2938 0
M  V30 4 C -1.2114 0.1375 -0.2598 0
M  V30 5 C 1.6035 -0.4042 -1.3787 0
M  V30 6 C 2.5018 1.1524 0.4044 0
M  V30 7 C -2.0872 -0.0472 1.0022 0
M  V30 8 C -1.9996 0.8029 -1.4105 0
M  V30 9 C 1.8866 -1.7926 -0.8134 0
M  V30 10 C 2.5341 0.7185 1.8675 0
M  V30 11 C -1.3552 -0.8084 2.1091 0
M  V30 12 C -3.0275 -0.1319 -2.0501 0
M  V30 13 H -0.9 -0.8744 -0.5882 0
M  V30 14 H 2.4766 -0.0738 -1.9823 0
M  V30 15 H 0.7469 -0.4468 -2.0835 0
M  V30 16 H 2.4508 2.2607 0.3411 0
M  V30 17 H 3.457 0.8395 -0.0713 0
M  V30 18 H -2.9967 -0.6299 0.748 0
M  V30 19 H -2.419 0.9395 1.3931 0
M  V30 20 H -1.2905 1.113 -2.21 0
M  V30 21 H -2.5128 1.7198 -1.0459 0
M  V30 22 H 1.0555 -2.1257 -0.1579 0
M  V30 23 H 2.8271 -1.7797 -0.2236 0
M  V30 24 H 2.0 -2.5179 -1.6461 0
M  V30 25 H 3.4555 1.1064 2.3505 0
M  V30 26 H 2.5309 -0.3893 1.9395 0
M  V30 27 H 1.6558 1.1223 2.4128 0
M  V30 28 H -0.4856 -0.2262 2.4777 0
M  V30 29 H -1.0049 -1.7936 1.7346 0
M  V30 30 H -2.0464 -0.9788 2.9614 0
M  V30 31 H -2.5458 -1.0799 -2.3705 0
M  V30 32 H -3.4642 0.3591 -2.9451 0
M  V30 33 H -3.8549 -0.3552 -1.3462 0
M  V30 END ATOM
M  V30 BEGIN BOND
M  V30 1 2 1 2
M  V30 2 1 2 3
M  V30 3 1 2 4
M  V30 4 1 3 5
M  V30 5 1 3 6
M  V30 6 1 4 7
M  V30 7 1 4 8
M  V30 8 1 5 9
M  V30 9 1 6 10
M  V30 10 1 7 11
M  V30 11 1 8 12
M  V30 12 1 4 13
M  V30 13 1 5 14
M  V30 14 1 5 15
M  V30 15 1 6 16
M  V30 16 1 6 17
M  V30 17 1 7 18
M  V30 18 1 7 19
M  V30 19 1 8 20
M  V30 20 1 8 21
M  V30 21 1 9 22
M  V30 22 1 9 23
M  V30 23 1 9 24
M  V30 24 1 10 25
M  V30 25 1 10 26
M  V30 26 1 10 27
M  V30 27 1 11 28
M  V30 28 1 11 29
M  V30 29 1 11 30
M  V30 30 1 12 31
M  V30 31 1 12 32
M  V30 32 1 12 33
M  V30 END BOND
M  V30 END CTAB
M  END
>  <Structure No>
5449

>  <LogS>
-1.0876

>  <MMFF94 Energy>
-9.8821

$$$$
Compound 5450
Actelion Java MolfileCreator 2.0

  0  0  0  0  0  0              0 V3000
M  V30 BEGIN CTAB
M  V30 COUNTS 68 70 0 0 0
M  V30 BEGIN ATOM
M  V30 1 O 6.4176 0.9606 -0.8805 0
M  V30 2 C 5.5038 1.511 -0.2091 0
M  V30 3 O 4.1836 1.4556 -0.671 0
M  V30 4 C 5.861 2.3102 1.0118 0
M  V30 5 C 3.0549 1.7849 0.1437 0 CFG=1
M  V30 6 C 4.6517 2.5032 1.943 0 CFG=2
M  V30 7 C 3.4095 2.9036 1.137 0
M  V30 8 C 1.8731 2.2017 -0.7465 0
M  V30 9 O 4.9302 3.5024 2.8872 0
M  V30 10 C 1.4583 1.1368 -1.7865 0
M  V30 11 C 0.7705 -0.1229 -1.1716 0 CFG=1
M  V30 12 C -0.4493 -0.5829 -2.0608 0 CFG=1
M  V30 13 C 1.8108 -1.2623 -0.8727 0 CFG=2
M  V30 14 C -0.5158 -2.0816 -2.2907 0
M  V30 15 C -1.791 -0.0135 -1.5424 0 CFG=2
M  V30 16 C 1.8661 -2.3201 -1.944 0
M  V30 17 C 1.516 -1.9382 0.4755 0
M  V30 18 C 0.7557 -2.7814 -2.5101 0
M  V30 19 C -1.674 -2.7143 -2.5438 0
M  V30 20 O -2.0162 -0.4221 -0.189 0
M  V30 21 C -2.9415 -0.523 -2.416 0
M  V30 22 C -3.0247 -2.0614 -2.3595 0 CFG=1
M  V30 23 C -2.2406 0.4632 0.8742 0
M  V30 24 C -4.0159 -2.5833 -3.4035 0
M  V30 25 O -2.1409 1.7103 0.6984 0
M  V30 26 C -2.529 -0.0792 2.2614 0
M  V30 27 C -3.6532 0.7475 2.9574 0
M  V30 28 C -2.9276 -1.5735 2.187 0
M  V30 29 C -1.2379 0.0393 3.095 0
M  V30 30 C -4.9966 0.74 2.2167 0
M  V30 31 H 6.2396 3.3038 0.6803 0
M  V30 32 H 6.6749 1.7946 1.5681 0
M  V30 33 H 2.7652 0.8924 0.7362 0
M  V30 34 H 4.4367 1.5436 2.4721 0
M  V30 35 H 2.5563 3.0703 1.8327 0
M  V30 36 H 3.6095 3.8532 0.5907 0
M  V30 37 H 2.156 3.128 -1.2981 0
M  V30 38 H 0.9956 2.4582 -0.1104 0
M  V30 39 H 5.5815 3.1137 3.529 0
M  V30 40 H 2.3265 0.8457 -2.4172 0
M  V30 41 H 0.7496 1.6589 -2.4665 0
M  V30 42 H 0.3668 0.2032 -0.1882 0
M  V30 43 H -0.3076 -0.1734 -3.0872 0
M  V30 44 H 2.8328 -0.8398 -0.7926 0
M  V30 45 H -1.7551 1.0949 -1.6272 0
M  V30 46 H 2.808 -2.8134 -2.1471 0
M  V30 47 H 2.2535 -2.7454 0.6733 0
M  V30 48 H 1.5926 -1.2008 1.3026 0
M  V30 49 H 0.4929 -2.3769 0.4839 0
M  V30 50 H 0.8035 -3.6504 -3.1551 0
M  V30 51 H -1.6553 -3.7754 -2.7687 0
M  V30 52 H -3.8989 -0.0838 -2.0563 0
M  V30 53 H -2.7835 -0.1836 -3.4642 0
M  V30 54 H -3.404 -2.3573 -1.3566 0
M  V30 55 H -4.1166 -3.6873 -3.3169 0
M  V30 56 H -5.0211 -2.1344 -3.2349 0
M  V30 57 H -3.6751 -2.3343 -4.4324 0
M  V30 58 H -3.3251 1.8062 3.0677 0
M  V30 59 H -3.8231 0.3548 3.986 0
M  V30 60 H -3.7725 -1.7271 1.4828 0
M  V30 61 H -3.2312 -1.9483 3.1885 0
M  V30 62 H -2.0764 -2.1938 1.828 0
M  V30 63 H -0.9122 1.1008 3.1753 0
M  V30 64 H -0.4146 -0.5417 2.6265 0
M  V30 65 H -1.3985 -0.3526 4.1233 0
M  V30 66 H -4.8776 1.1012 1.1735 0
M  V30 67 H -5.7092 1.4147 2.7394 0
M  V30 68 H -5.4371 -0.2788 2.2097 0
M  V30 END ATOM
M  V30 BEGIN BOND
M  V30 1 2 1 2
M  V30 2 1 2 3
M  V30 3 1 2 4
M  V30 4 1 3 5
M  V30 5 1 4 6
M  V30 6 1 5 7
M  V30 7 1 5 8
M  V30 8 1 6 9
M  V30 9 1 8 10
M  V30 10 1 10 11
M  V30 11 1 11 12
M  V30 12 1 11 13
M  V30 13 1 12 14
M  V30 14 1 12 15
M  V30 15 1 13 16
M  V30 16 1 13 17
M  V30 17 1 14 18
M  V30 18 2 14 19
M  V30 19 1 15 20
M  V30 20 1 15 21
M  V30 21 1 19 22
M  V30 22 1 20 23
M  V30 23 1 22 24
M  V30 24 2 23 25
M  V30 25 1 23 26
M  V30 26 1 26 27
M  V30 27 1 26 28
M  V30 28 1 26 29
M  V30 29 1 27 30
M  V30 30 1 6 7
M  V30 31 2 16 18
M  V30 32 1 21 22
M  V30 33 1 4 31
M  V30 34 1 4 32
M  V30 35 1 5 33
M  V30 36 1 6 34
M  V30 37 1 7 35
M  V30 38 1 7 36
M  V30 39 1 8 37
M  V30 40 1 8 38
M  V30 41 1 9 39
M  V30 42 1 10 40
M  V30 43 1 10 41
M  V30 44 1 11 42
M  V30 45 1 12 43
M  V30 46 1 13 44
M  V30 47 1 15 45
M  V30 48 1 16 46
M  V30 49 1 17 47
M  V30 50 1 17 48
M  V30 51 1 17 49
M  V30 52 1 18 50
M  V30 53 1 19 51
M  V30 54 1 21 52
M  V30 55 1 21 53
M  V30 56 1 22 54
M  V30 57 1 24 55
M  V30 58 1 24 56
M  V30 59 1 24 57
M  V30 60 1 27 58
M  V30 61 1 27 59
M  V30 62 1 28 60
M  V30 63 1 28 61
M  V30 64 1 28 62
M  V30 65 1 29 63
M  V30 66 1 29 64
M  V30 67 1 29 65
M  V30 68 1 30 66
M  V30 69 1 30 67
M  V30 70 1 30 68
M  V30 END BOND
M  V30 BEGIN COLLECTION
M  V30 MDLV30/STEABS ATOMS=(7 5 6 11 12 13 15 22)
M  V30 END COLLECTION
M  V30 END CTAB
M  END
>  <Structure No>
5450

>  <LogS>
-7.1447

>  <MMFF94 Energy>
29.758

$$$$
Compound 5451
Actelion Java MolfileCreator 2.0

  0  0  0  0  0  0              0 V3000
M  V30 BEGIN CTAB
M  V30 COUNTS 37 38 0 0 0
M  V30 BEGIN ATOM
M  V30 1 Cl -1.7893 2.0335 -2.8477 0
M  V30 2 C -1.3439 2.1051 -1.1422 0
M  V30 3 C -0.7083 1.0319 -0.4498 0
M  V30 4 C -1.6885 3.281 -0.4635 0
M  V30 5 C -0.5233 1.1785 0.9481 0
M  V30 6 C -0.3511 -0.2915 -1.1661 0 CFG=2
M  V30 7 C -1.4482 3.411 0.9025 0
M  V30 8 C -0.8759 2.3567 1.6075 0
M  V30 9 O 0.1319 0.0169 -2.4551 0
M  V30 10 C -1.6407 -1.1521 -1.3069 0
M  V30 11 C 0.7596 -1.1242 -0.4467 0
M  V30 12 Cl -1.8942 4.8878 1.738 0
M  V30 13 N -2.2755 -1.4219 -0.0165 0
M  V30 14 C 2.1142 -0.3948 -0.3739 0
M  V30 15 N -3.1502 -0.625 0.569 0
M  V30 16 C -2.084 -2.4916 0.7726 0
M  V30 17 C 3.1497 -1.2364 0.3807 0
M  V30 18 C -3.4756 -1.234 1.7257 0
M  V30 19 N -2.8283 -2.4087 1.8921 0
M  V30 20 C 4.4974 -0.5236 0.4476 0
M  V30 21 H -2.1615 4.0946 -0.9997 0
M  V30 22 H -0.1119 0.3892 1.5559 0
M  V30 23 H -0.7104 2.4441 2.6741 0
M  V30 24 H 0.2727 -0.8318 -2.9521 0
M  V30 25 H -2.3714 -0.632 -1.9624 0
M  V30 26 H -1.4039 -2.1166 -1.8085 0
M  V30 27 H 0.4421 -1.4388 0.5672 0
M  V30 28 H 0.9158 -2.0704 -1.0115 0
M  V30 29 H 2.4854 -0.2012 -1.4038 0
M  V30 30 H 1.9994 0.582 0.1408 0
M  V30 31 H -1.4178 -3.3136 0.5445 0
M  V30 32 H 3.2846 -2.2137 -0.1318 0
M  V30 33 H 2.7933 -1.4279 1.4166 0
M  V30 34 H -4.1772 -0.8276 2.4416 0
M  V30 35 H 5.2251 -1.1557 0.9989 0
M  V30 36 H 4.8887 -0.3415 -0.5758 0
M  V30 37 H 4.3949 0.4463 0.9796 0
M  V30 END ATOM
M  V30 BEGIN BOND
M  V30 1 1 1 2
M  V30 2 2 2 3
M  V30 3 1 2 4
M  V30 4 1 3 5
M  V30 5 1 3 6
M  V30 6 2 4 7
M  V30 7 2 5 8
M  V30 8 1 6 9
M  V30 9 1 6 10
M  V30 10 1 6 11
M  V30 11 1 7 12
M  V30 12 1 10 13
M  V30 13 1 11 14
M  V30 14 1 13 15
M  V30 15 1 13 16
M  V30 16 1 14 17
M  V30 17 2 15 18
M  V30 18 2 16 19
M  V30 19 1 17 20
M  V30 20 1 7 8
M  V30 21 1 18 19
M  V30 22 1 4 21
M  V30 23 1 5 22
M  V30 24 1 8 23
M  V30 25 1 9 24
M  V30 26 1 10 25
M  V30 27 1 10 26
M  V30 28 1 11 27
M  V30 29 1 11 28
M  V30 30 1 14 29
M  V30 31 1 14 30
M  V30 32 1 16 31
M  V30 33 1 17 32
M  V30 34 1 17 33
M  V30 35 1 18 34
M  V30 36 1 20 35
M  V30 37 1 20 36
M  V30 38 1 20 37
M  V30 END BOND
M  V30 BEGIN COLLECTION
M  V30 MDLV30/STEABS ATOMS=(1 6)
M  V30 END COLLECTION
M  V30 END CTAB
M  END
>  <Structure No>
5451

>  <LogS>
-4.2668

>  <MMFF94 Energy>
35.495

$$$$
Compound 5452
Actelion Java MolfileCreator 2.0

  0  0  0  0  0  0              0 V3000
M  V30 BEGIN CTAB
M  V30 COUNTS 59 60 0 0 0
M  V30 BEGIN ATOM
M  V30 1 S -3.7304 -1.8242 -2.2211 0
M  V30 2 C -2.509 -1.0112 -1.4887 0
M  V30 3 N -1.1639 -1.3906 -1.8172 0
M  V30 4 N -2.7566 0.1184 -0.6245 0
M  V30 5 C -0.0156 -0.6919 -1.3201 0
M  V30 6 C -3.9196 0.3025 0.2705 0
M  V30 7 C 0.6236 0.2762 -2.1336 0
M  V30 8 C 0.4933 -0.989 -0.0309 0
M  V30 9 C -4.1858 -0.9748 1.0923 0
M  V30 10 C -3.6106 1.4502 1.2565 0
M  V30 11 C -5.1714 0.6911 -0.5412 0
M  V30 12 C 1.7723 0.9249 -1.6446 0
M  V30 13 C 0.0794 0.6471 -3.5092 0
M  V30 14 C 1.6541 -0.3299 0.4133 0
M  V30 15 C -0.1436 -2.06 0.8494 0
M  V30 16 C 2.2921 0.6272 -0.3864 0
M  V30 17 C -0.3866 2.1057 -3.5361 0
M  V30 18 C 1.112 0.3691 -4.608 0
M  V30 19 C 0.7209 -3.325 0.8592 0
M  V30 20 C -0.3977 -1.5533 2.2774 0
M  V30 21 O 3.46 1.2857 0.024 0
M  V30 22 C 3.9724 1.2225 1.3212 0
M  V30 23 C 5.0417 0.3652 1.6115 0
M  V30 24 C 3.4194 2.0183 2.3332 0
M  V30 25 C 5.5496 0.2939 2.9128 0
M  V30 26 C 3.9342 1.953 3.6314 0
M  V30 27 C 4.9966 1.0916 3.9216 0
M  V30 28 H -1.0009 -2.1682 -2.4943 0
M  V30 29 H -1.9726 0.804 -0.5316 0
M  V30 30 H -4.5039 -1.8182 0.4482 0
M  V30 31 H -4.9951 -0.7994 1.8352 0
M  V30 32 H -3.2699 -1.2812 1.638 0
M  V30 33 H -4.4576 1.6156 1.9577 0
M  V30 34 H -3.4245 2.3991 0.7063 0
M  V30 35 H -2.7074 1.2142 1.8567 0
M  V30 36 H -5.5638 -0.1619 -1.1287 0
M  V30 37 H -4.9377 1.5249 -1.2381 0
M  V30 38 H -5.9911 1.0182 0.1355 0
M  V30 39 H 2.2782 1.6696 -2.248 0
M  V30 40 H -0.81 0.0326 -3.7608 0
M  V30 41 H 2.0768 -0.5802 1.3749 0
M  V30 42 H -1.1347 -2.3508 0.4493 0
M  V30 43 H -1.1725 2.2619 -2.7664 0
M  V30 44 H -0.8212 2.3548 -4.5263 0
M  V30 45 H 0.4557 2.8022 -3.3315 0
M  V30 46 H 0.665 0.5651 -5.6087 0
M  V30 47 H 2.0074 1.0131 -4.4948 0
M  V30 48 H 1.4253 -0.6955 -4.5717 0
M  V30 49 H 0.8552 -3.7007 -0.177 0
M  V30 50 H 0.2261 -4.119 1.4545 0
M  V30 51 H 1.7207 -3.1213 1.2993 0
M  V30 52 H -1.0706 -2.2573 2.8139 0
M  V30 53 H 0.5454 -1.4751 2.8563 0
M  V30 54 H -0.8871 -0.5563 2.2504 0
M  V30 55 H 5.4689 -0.2523 0.8314 0
M  V30 56 H 2.5929 2.6818 2.1114 0
M  V30 57 H 6.3678 -0.3767 3.1413 0
M  V30 58 H 3.5083 2.5666 4.4119 0
M  V30 59 H 5.3946 1.0378 4.9273 0
M  V30 END ATOM
M  V30 BEGIN BOND
M  V30 1 2 1 2
M  V30 2 1 2 3
M  V30 3 1 2 4
M  V30 4 1 3 5
M  V30 5 1 4 6
M  V30 6 2 5 7
M  V30 7 1 5 8
M  V30 8 1 6 9
M  V30 9 1 6 10
M  V30 10 1 6 11
M  V30 11 1 7 12
M  V30 12 1 7 13
M  V30 13 2 8 14
M  V30 14 1 8 15
M  V30 15 2 12 16
M  V30 16 1 13 17
M  V30 17 1 13 18
M  V30 18 1 15 19
M  V30 19 1 15 20
M  V30 20 1 16 21
M  V30 21 1 21 22
M  V30 22 2 22 23
M  V30 23 1 22 24
M  V30 24 1 23 25
M  V30 25 2 24 26
M  V30 26 2 25 27
M  V30 27 1 14 16
M  V30 28 1 26 27
M  V30 29 1 3 28
M  V30 30 1 4 29
M  V30 31 1 9 30
M  V30 32 1 9 31
M  V30 33 1 9 32
M  V30 34 1 10 33
M  V30 35 1 10 34
M  V30 36 1 10 35
M  V30 37 1 11 36
M  V30 38 1 11 37
M  V30 39 1 11 38
M  V30 40 1 12 39
M  V30 41 1 13 40
M  V30 42 1 14 41
M  V30 43 1 15 42
M  V30 44 1 17 43
M  V30 45 1 17 44
M  V30 46 1 17 45
M  V30 47 1 18 46
M  V30 48 1 18 47
M  V30 49 1 18 48
M  V30 50 1 19 49
M  V30 51 1 19 50
M  V30 52 1 19 51
M  V30 53 1 20 52
M  V30 54 1 20 53
M  V30 55 1 20 54
M  V30 56 1 23 55
M  V30 57 1 24 56
M  V30 58 1 25 57
M  V30 59 1 26 58
M  V30 60 1 27 59
M  V30 END BOND
M  V30 END CTAB
M  END
>  <Structure No>
5452

>  <LogS>
-6.8068

>  <MMFF94 Energy>
19.945

$$$$
Compound 5453
Actelion Java MolfileCreator 2.0

  0  0  0  0  0  0              0 V3000
M  V30 BEGIN CTAB
M  V30 COUNTS 56 58 0 0 0
M  V30 BEGIN ATOM
M  V30 1 O -5.5696 2.2249 -0.5558 0
M  V30 2 C -4.3446 1.782 -1.0751 0
M  V30 3 C -6.5624 1.3991 -0.0114 0
M  V30 4 C -3.6429 0.7085 -0.4979 0
M  V30 5 C -3.7921 2.4538 -2.1706 0
M  V30 6 C -7.4355 1.9346 0.9433 0
M  V30 7 C -6.7388 0.0692 -0.4374 0
M  V30 8 C -2.42 0.281 -1.046 0
M  V30 9 C -2.5743 2.0372 -2.7156 0
M  V30 10 C -8.4647 1.149 1.4775 0
M  V30 11 C -7.7694 -0.712 0.0963 0
M  V30 12 C -1.8901 0.9545 -2.1579 0
M  V30 13 C -1.6615 -0.8465 -0.4036 0
M  V30 14 C -8.629 -0.1727 1.0568 0
M  V30 15 O -0.8646 -0.3494 0.6572 0
M  V30 16 C 0.4579 -0.0352 0.2398 0
M  V30 17 C 1.5032 -0.9436 0.9602 0
M  V30 18 C 2.962 -0.6143 0.5622 0
M  V30 19 C 1.1933 -2.4154 0.5938 0
M  V30 20 C 1.3502 -0.7502 2.4876 0
M  V30 21 C 4.0236 -1.3854 1.0909 0
M  V30 22 C 3.3017 0.4584 -0.2975 0
M  V30 23 C 5.3525 -1.118 0.7555 0
M  V30 24 C 4.6325 0.7216 -0.6297 0
M  V30 25 C 5.6667 -0.0609 -0.1121 0
M  V30 26 O 6.9861 0.2452 -0.4796 0
M  V30 27 C 8.1363 -0.4575 -0.0174 0
M  V30 28 C 9.3851 0.1501 -0.6388 0
M  V30 29 H -4.0396 0.2174 0.3818 0
M  V30 30 H -4.3181 3.2915 -2.6108 0
M  V30 31 H -7.3221 2.9615 1.264 0
M  V30 32 H -6.1051 -0.357 -1.2029 0
M  V30 33 H -2.1584 2.5547 -3.5695 0
M  V30 34 H -9.1364 1.5685 2.2152 0
M  V30 35 H -7.9091 -1.7303 -0.246 0
M  V30 36 H -0.9472 0.6454 -2.5917 0
M  V30 37 H -2.3839 -1.5736 0.0242 0
M  V30 38 H -1.0873 -1.4322 -1.1597 0
M  V30 39 H -9.432 -0.7778 1.462 0
M  V30 40 H 0.6095 -0.0951 -0.8642 0
M  V30 41 H 0.6367 1.0248 0.5227 0
M  V30 42 H 1.8887 -3.1235 1.0886 0
M  V30 43 H 0.1691 -2.6993 0.9187 0
M  V30 44 H 1.261 -2.5639 -0.5046 0
M  V30 45 H 1.5921 0.2968 2.772 0
M  V30 46 H 2.0279 -1.4262 3.0539 0
M  V30 47 H 0.3139 -0.9733 2.816 0
M  V30 48 H 3.8335 -2.2004 1.7746 0
M  V30 49 H 2.5579 1.1155 -0.722 0
M  V30 50 H 6.1272 -1.7393 1.1816 0
M  V30 51 H 4.8631 1.5468 -1.2936 0
M  V30 52 H 8.2038 -0.3794 1.0889 0
M  V30 53 H 8.0661 -1.5275 -0.3102 0
M  V30 54 H 10.2817 -0.3964 -0.279 0
M  V30 55 H 9.335 0.0743 -1.7488 0
M  V30 56 H 9.473 1.2212 -0.3532 0
M  V30 END ATOM
M  V30 BEGIN BOND
M  V30 1 1 1 2
M  V30 2 1 1 3
M  V30 3 2 2 4
M  V30 4 1 2 5
M  V30 5 2 3 6
M  V30 6 1 3 7
M  V30 7 1 4 8
M  V30 8 2 5 9
M  V30 9 1 6 10
M  V30 10 2 7 11
M  V30 11 2 8 12
M  V30 12 1 8 13
M  V30 13 2 10 14
M  V30 14 1 13 15
M  V30 15 1 15 16
M  V30 16 1 16 17
M  V30 17 1 17 18
M  V30 18 1 17 19
M  V30 19 1 17 20
M  V30 20 2 18 21
M  V30 21 1 18 22
M  V30 22 1 21 23
M  V30 23 2 22 24
M  V30 24 2 23 25
M  V30 25 1 25 26
M  V30 26 1 26 27
M  V30 27 1 27 28
M  V30 28 1 9 12
M  V30 29 1 11 14
M  V30 30 1 24 25
M  V30 31 1 4 29
M  V30 32 1 5 30
M  V30 33 1 6 31
M  V30 34 1 7 32
M  V30 35 1 9 33
M  V30 36 1 10 34
M  V30 37 1 11 35
M  V30 38 1 12 36
M  V30 39 1 13 37
M  V30 40 1 13 38
M  V30 41 1 14 39
M  V30 42 1 16 40
M  V30 43 1 16 41
M  V30 44 1 19 42
M  V30 45 1 19 43
M  V30 46 1 19 44
M  V30 47 1 20 45
M  V30 48 1 20 46
M  V30 49 1 20 47
M  V30 50 1 21 48
M  V30 51 1 22 49
M  V30 52 1 23 50
M  V30 53 1 24 51
M  V30 54 1 27 52
M  V30 55 1 27 53
M  V30 56 1 28 54
M  V30 57 1 28 55
M  V30 58 1 28 56
M  V30 END BOND
M  V30 END CTAB
M  END
>  <Structure No>
5453

>  <LogS>
-8.5758

>  <MMFF94 Energy>
97.167

$$$$
Compound 5454
Actelion Java MolfileCreator 2.0

  0  0  0  0  0  0              0 V3000
M  V30 BEGIN CTAB
M  V30 COUNTS 39 40 0 0 0
M  V30 BEGIN ATOM
M  V30 1 O -3.1348 -2.1694 1.7674 0
M  V30 2 C -2.2964 -1.4485 1.1643 0
M  V30 3 N -0.9588 -1.2981 1.5903 0
M  V30 4 C -2.5277 -0.7201 -0.1271 0 CFG=2
M  V30 5 C -0.368 -0.5099 0.5693 0
M  V30 6 N -1.181 -0.2019 -0.3945 0
M  V30 7 C -3.5231 0.4753 0.0406 0
M  V30 8 C -2.9171 -1.7139 -1.2358 0
M  V30 9 C 1.0741 -0.1955 0.5395 0
M  V30 10 C -3.5689 1.3786 -1.2051 0
M  V30 11 C -4.9538 0.0445 0.4105 0
M  V30 12 N 1.9255 -1.1072 1.084 0
M  V30 13 C 1.604 0.9622 -0.0849 0
M  V30 14 C 3.2746 -0.9693 1.0357 0
M  V30 15 C 0.7548 2.0694 -0.578 0
M  V30 16 C 2.9996 1.0962 -0.1699 0
M  V30 17 C 3.8452 0.1376 0.4006 0
M  V30 18 O 1.1054 2.7362 -1.5874 0
M  V30 19 O -0.4006 2.4313 0.1039 0 CHG=-1
M  V30 20 C 5.3404 0.2748 0.297 0
M  V30 21 C 5.8548 -0.3791 -0.9807 0
M  V30 22 H -0.4996 -1.7258 2.4247 0
M  V30 23 H -3.1486 1.1069 0.8781 0
M  V30 24 H -2.1469 -2.511 -1.3223 0
M  V30 25 H -3.8876 -2.2031 -1.0122 0
M  V30 26 H -2.9829 -1.2051 -2.219 0
M  V30 27 H -2.5497 1.6976 -1.5057 0
M  V30 28 H -4.156 2.2959 -0.9852 0
M  V30 29 H -4.0498 0.8582 -2.0595 0
M  V30 30 H -5.59 0.9425 0.5631 0
M  V30 31 H -4.9676 -0.5271 1.3592 0
M  V30 32 H -5.4115 -0.5663 -0.3946 0
M  V30 33 H 3.9015 -1.7319 1.4795 0
M  V30 34 H 3.4324 1.9657 -0.6511 0
M  V30 35 H 5.6268 1.3493 0.3 0
M  V30 36 H 5.8304 -0.2 1.1748 0
M  V30 37 H 6.958 -0.2673 -1.0376 0
M  V30 38 H 5.4014 0.1059 -1.8715 0
M  V30 39 H 5.606 -1.462 -0.9863 0
M  V30 END ATOM
M  V30 BEGIN BOND
M  V30 1 2 1 2
M  V30 2 1 2 3
M  V30 3 1 2 4
M  V30 4 1 3 5
M  V30 5 1 4 6
M  V30 6 1 4 7
M  V30 7 1 4 8
M  V30 8 1 5 9
M  V30 9 1 7 10
M  V30 10 1 7 11
M  V30 11 2 9 12
M  V30 12 1 9 13
M  V30 13 1 12 14
M  V30 14 1 13 15
M  V30 15 2 13 16
M  V30 16 2 14 17
M  V30 17 2 15 18
M  V30 18 1 15 19
M  V30 19 1 17 20
M  V30 20 1 20 21
M  V30 21 2 5 6
M  V30 22 1 16 17
M  V30 23 1 3 22
M  V30 24 1 7 23
M  V30 25 1 8 24
M  V30 26 1 8 25
M  V30 27 1 8 26
M  V30 28 1 10 27
M  V30 29 1 10 28
M  V30 30 1 10 29
M  V30 31 1 11 30
M  V30 32 1 11 31
M  V30 33 1 11 32
M  V30 34 1 14 33
M  V30 35 1 16 34
M  V30 36 1 20 35
M  V30 37 1 20 36
M  V30 38 1 21 37
M  V30 39 1 21 38
M  V30 40 1 21 39
M  V30 END BOND
M  V30 BEGIN COLLECTION
M  V30 MDLV30/STEABS ATOMS=(1 4)
M  V30 END COLLECTION
M  V30 END CTAB
M  END
>  <Structure No>
5454

>  <LogS>
-2.3153

>  <MMFF94 Energy>
41.277

$$$$
Compound 5455
Actelion Java MolfileCreator 2.0

  0  0  0  0  0  0              0 V3000
M  V30 BEGIN CTAB
M  V30 COUNTS 41 42 0 0 0
M  V30 BEGIN ATOM
M  V30 1 O 2.1544 2.4739 -1.9148 0
M  V30 2 C 1.632 1.6246 -1.1447 0
M  V30 3 N 0.263 1.2797 -1.1739 0
M  V30 4 C 2.3498 0.8387 -0.0928 0 CFG=1
M  V30 5 C 0.1456 0.291 -0.1585 0
M  V30 6 N 1.2633 0.0113 0.4409 0
M  V30 7 C 3.4843 -0.0492 -0.7002 0
M  V30 8 C 2.8571 1.7955 0.9999 0
M  V30 9 C -1.1081 -0.4406 0.1228 0
M  V30 10 C 4.1996 -0.8931 0.3697 0
M  V30 11 C 2.969 -0.9798 -1.8162 0
M  V30 12 C -2.3735 0.2027 0.1695 0
M  V30 13 C -1.0372 -1.8352 0.2892 0
M  V30 14 C -2.5271 1.676 0.1351 0
M  V30 15 C -3.5313 -0.5792 0.3239 0
M  V30 16 C -2.1998 -2.6011 0.4447 0
M  V30 17 O -1.6292 2.4227 0.6133 0
M  V30 18 O -3.698 2.2355 -0.3877 0
M  V30 19 C -3.4453 -1.9646 0.4658 0
M  V30 20 C -2.1054 -4.085 0.6453 0
M  V30 21 C -3.9192 3.6396 -0.4424 0
M  V30 22 H -0.4598 1.5941 -1.8586 0
M  V30 23 H 4.2451 0.6228 -1.1566 0
M  V30 24 H 3.1679 1.2321 1.9042 0
M  V30 25 H 2.0515 2.4969 1.3103 0
M  V30 26 H 3.7186 2.3898 0.627 0
M  V30 27 H 3.4729 -1.52 0.9292 0
M  V30 28 H 4.9521 -1.56 -0.1027 0
M  V30 29 H 4.7475 -0.243 1.0825 0
M  V30 30 H 2.2099 -1.6887 -1.4216 0
M  V30 31 H 2.5189 -0.394 -2.6446 0
M  V30 32 H 3.8093 -1.5659 -2.2455 0
M  V30 33 H -0.0741 -2.3329 0.2659 0
M  V30 34 H -4.5084 -0.1135 0.3697 0
M  V30 35 H -4.3526 -2.54 0.6042 0
M  V30 36 H -1.237 -4.5004 0.091 0
M  V30 37 H -1.9831 -4.3039 1.7267 0
M  V30 38 H -3.0222 -4.5916 0.2749 0
M  V30 39 H -4.911 3.835 -0.8995 0
M  V30 40 H -3.1352 4.1239 -1.0624 0
M  V30 41 H -3.9048 4.0669 0.5826 0
M  V30 END ATOM
M  V30 BEGIN BOND
M  V30 1 2 1 2
M  V30 2 1 2 3
M  V30 3 1 2 4
M  V30 4 1 3 5
M  V30 5 1 4 6
M  V30 6 1 4 7
M  V30 7 1 4 8
M  V30 8 1 5 9
M  V30 9 1 7 10
M  V30 10 1 7 11
M  V30 11 2 9 12
M  V30 12 1 9 13
M  V30 13 1 12 14
M  V30 14 1 12 15
M  V30 15 2 13 16
M  V30 16 2 14 17
M  V30 17 1 14 18
M  V30 18 2 15 19
M  V30 19 1 16 20
M  V30 20 1 18 21
M  V30 21 2 5 6
M  V30 22 1 16 19
M  V30 23 1 3 22
M  V30 24 1 7 23
M  V30 25 1 8 24
M  V30 26 1 8 25
M  V30 27 1 8 26
M  V30 28 1 10 27
M  V30 29 1 10 28
M  V30 30 1 10 29
M  V30 31 1 11 30
M  V30 32 1 11 31
M  V30 33 1 11 32
M  V30 34 1 13 33
M  V30 35 1 15 34
M  V30 36 1 19 35
M  V30 37 1 20 36
M  V30 38 1 20 37
M  V30 39 1 20 38
M  V30 40 1 21 39
M  V30 41 1 21 40
M  V30 42 1 21 41
M  V30 END BOND
M  V30 BEGIN COLLECTION
M  V30 MDLV30/STEABS ATOMS=(1 4)
M  V30 END COLLECTION
M  V30 END CTAB
M  END
>  <Structure No>
5455

>  <LogS>
-2.4599

>  <MMFF94 Energy>
35.518

$$$$
Compound 5456
Actelion Java MolfileCreator 2.0

  0  0  0  0  0  0              0 V3000
M  V30 BEGIN CTAB
M  V30 COUNTS 39 39 0 0 0
M  V30 BEGIN ATOM
M  V30 1 O 3.0647 -0.471 2.2782 0
M  V30 2 C 2.9551 0.1095 1.1634 0
M  V30 3 N 1.6816 0.6434 0.7631 0
M  V30 4 C 4.1434 0.2125 0.2825 0
M  V30 5 C 0.5077 0.6121 1.6353 0
M  V30 6 C 4.2672 1.2384 -0.6721 0
M  V30 7 C 5.1941 -0.7126 0.4036 0
M  V30 8 C -0.0938 -0.7994 1.7214 0
M  V30 9 N 5.372 1.3111 -1.462 0
M  V30 10 C 6.3149 -0.6164 -0.4225 0
M  V30 11 C -0.4253 -1.4279 0.3534 0
M  V30 12 C 6.3852 0.4118 -1.3619 0
M  V30 13 C -1.4192 -0.6259 -0.5058 0
M  V30 14 C -2.7975 -0.4786 0.1551 0
M  V30 15 C -3.7995 0.1751 -0.8039 0
M  V30 16 C -5.1715 0.3381 -0.1395 0
M  V30 17 C -6.1716 0.9875 -1.0917 0
M  V30 18 H 1.5629 1.0573 -0.1877 0
M  V30 19 H 0.7891 0.96 2.6527 0
M  V30 20 H -0.2572 1.322 1.2548 0
M  V30 21 H 3.5064 1.9988 -0.7779 0
M  V30 22 H 5.1431 -1.5162 1.128 0
M  V30 23 H -1.0053 -0.7683 2.3546 0
M  V30 24 H 0.6247 -1.4663 2.2435 0
M  V30 25 H 7.1214 -1.3329 -0.3353 0
M  V30 26 H 0.5155 -1.5598 -0.2233 0
M  V30 27 H -0.8388 -2.4457 0.5246 0
M  V30 28 H 7.2484 0.499 -2.0081 0
M  V30 29 H -1.0019 0.3753 -0.744 0
M  V30 30 H -1.5397 -1.1653 -1.4708 0
M  V30 31 H -2.7087 0.1542 1.064 0
M  V30 32 H -3.1747 -1.4816 0.4533 0
M  V30 33 H -3.4175 1.1744 -1.1094 0
M  V30 34 H -3.9049 -0.4564 -1.7136 0
M  V30 35 H -5.5606 -0.6575 0.1664 0
M  V30 36 H -5.0756 0.9729 0.7684 0
M  V30 37 H -6.3056 0.3592 -1.9979 0
M  V30 38 H -5.818 1.9965 -1.3934 0
M  V30 39 H -7.1536 1.0927 -0.5841 0
M  V30 END ATOM
M  V30 BEGIN BOND
M  V30 1 2 1 2
M  V30 2 1 2 3
M  V30 3 1 2 4
M  V30 4 1 3 5
M  V30 5 2 4 6
M  V30 6 1 4 7
M  V30 7 1 5 8
M  V30 8 1 6 9
M  V30 9 2 7 10
M  V30 10 1 8 11
M  V30 11 2 9 12
M  V30 12 1 11 13
M  V30 13 1 13 14
M  V30 14 1 14 15
M  V30 15 1 15 16
M  V30 16 1 16 17
M  V30 17 1 10 12
M  V30 18 1 3 18
M  V30 19 1 5 19
M  V30 20 1 5 20
M  V30 21 1 6 21
M  V30 22 1 7 22
M  V30 23 1 8 23
M  V30 24 1 8 24
M  V30 25 1 10 25
M  V30 26 1 11 26
M  V30 27 1 11 27
M  V30 28 1 12 28
M  V30 29 1 13 29
M  V30 30 1 13 30
M  V30 31 1 14 31
M  V30 32 1 14 32
M  V30 33 1 15 33
M  V30 34 1 15 34
M  V30 35 1 16 35
M  V30 36 1 16 36
M  V30 37 1 17 37
M  V30 38 1 17 38
M  V30 39 1 17 39
M  V30 END BOND
M  V30 END CTAB
M  END
>  <Structure No>
5456

>  <LogS>
-3.0081

>  <MMFF94 Energy>
8.0158

$$$$
Compound 5457
Actelion Java MolfileCreator 2.0

  0  0  0  0  0  0              0 V3000
M  V30 BEGIN CTAB
M  V30 COUNTS 42 42 0 0 0
M  V30 BEGIN ATOM
M  V30 1 O 3.3794 1.7279 -0.8636 0
M  V30 2 C 3.8728 0.8009 -0.1641 0
M  V30 3 N 3.0562 0.142 0.8192 0
M  V30 4 C 5.284 0.4018 -0.3845 0
M  V30 5 C 1.6935 0.5758 1.1226 0
M  V30 6 C 6.045 -0.207 0.6301 0
M  V30 7 C 5.9036 0.6511 -1.6209 0
M  V30 8 C 0.7229 0.0869 0.0427 0
M  V30 9 N 7.3397 -0.5554 0.4016 0
M  V30 10 C 7.2329 0.2799 -1.8292 0
M  V30 11 C -0.7162 0.5074 0.3635 0
M  V30 12 C 7.9416 -0.3318 -0.7956 0
M  V30 13 C -1.6885 0.0057 -0.7145 0
M  V30 14 C -3.1219 0.5191 -0.5052 0
M  V30 15 C -3.8005 -0.0998 0.7296 0
M  V30 16 C -5.3014 0.2523 0.807 0
M  V30 17 C -6.2253 -0.89 0.3525 0
M  V30 18 C -6.1057 -1.1994 -1.138 0
M  V30 19 H 3.4233 -0.6893 1.3327 0
M  V30 20 H 1.6601 1.6843 1.2061 0
M  V30 21 H 1.3903 0.1511 2.1047 0
M  V30 22 H 5.6283 -0.3841 1.6116 0
M  V30 23 H 5.3571 1.1219 -2.4289 0
M  V30 24 H 1.0185 0.5098 -0.9416 0
M  V30 25 H 0.7796 -1.0221 -0.0203 0
M  V30 26 H 7.709 0.4646 -2.7835 0
M  V30 27 H -0.7693 1.617 0.4228 0
M  V30 28 H -1.0024 0.0841 1.3502 0
M  V30 29 H 8.9727 -0.624 -0.9426 0
M  V30 30 H -1.6875 -1.1062 -0.7375 0
M  V30 31 H -1.3391 0.3629 -1.7081 0
M  V30 32 H -3.7071 0.2715 -1.4151 0
M  V30 33 H -3.1135 1.6274 -0.4112 0
M  V30 34 H -3.6563 -1.2025 0.7364 0
M  V30 35 H -3.3049 0.3008 1.64 0
M  V30 36 H -5.5291 1.1771 0.232 0
M  V30 37 H -5.5513 0.4742 1.8679 0
M  V30 38 H -7.2762 -0.5956 0.5645 0
M  V30 39 H -6.0111 -1.8091 0.9404 0
M  V30 40 H -5.1166 -1.6498 -1.3634 0
M  V30 41 H -6.8903 -1.93 -1.4273 0
M  V30 42 H -6.2436 -0.2758 -1.7396 0
M  V30 END ATOM
M  V30 BEGIN BOND
M  V30 1 2 1 2
M  V30 2 1 2 3
M  V30 3 1 2 4
M  V30 4 1 3 5
M  V30 5 2 4 6
M  V30 6 1 4 7
M  V30 7 1 5 8
M  V30 8 1 6 9
M  V30 9 2 7 10
M  V30 10 1 8 11
M  V30 11 2 9 12
M  V30 12 1 11 13
M  V30 13 1 13 14
M  V30 14 1 14 15
M  V30 15 1 15 16
M  V30 16 1 16 17
M  V30 17 1 17 18
M  V30 18 1 10 12
M  V30 19 1 3 19
M  V30 20 1 5 20
M  V30 21 1 5 21
M  V30 22 1 6 22
M  V30 23 1 7 23
M  V30 24 1 8 24
M  V30 25 1 8 25
M  V30 26 1 10 26
M  V30 27 1 11 27
M  V30 28 1 11 28
M  V30 29 1 12 29
M  V30 30 1 13 30
M  V30 31 1 13 31
M  V30 32 1 14 32
M  V30 33 1 14 33
M  V30 34 1 15 34
M  V30 35 1 15 35
M  V30 36 1 16 36
M  V30 37 1 16 37
M  V30 38 1 17 38
M  V30 39 1 17 39
M  V30 40 1 18 40
M  V30 41 1 18 41
M  V30 42 1 18 42
M  V30 END BOND
M  V30 END CTAB
M  END
>  <Structure No>
5457

>  <LogS>
-3.1398

>  <MMFF94 Energy>
7.6954

$$$$
Compound 5458
Actelion Java MolfileCreator 2.0

  0  0  0  0  0  0              0 V3000
M  V30 BEGIN CTAB
M  V30 COUNTS 45 45 0 0 0
M  V30 BEGIN ATOM
M  V30 1 O -3.8508 -0.0784 -1.5703 0
M  V30 2 C -3.8408 -0.0195 -0.31 0
M  V30 3 N -2.8139 0.7342 0.357 0
M  V30 4 C -4.8832 -0.7443 0.4562 0
M  V30 5 C -1.8308 1.5329 -0.3725 0
M  V30 6 C -5.2604 -0.3417 1.7505 0
M  V30 7 C -5.5409 -1.8472 -0.1145 0
M  V30 8 C -0.7224 0.6329 -0.9334 0
M  V30 9 N -6.2252 -1.0212 2.4268 0
M  V30 10 C -6.525 -2.5284 0.6036 0
M  V30 11 C 0.2629 1.3921 -1.8393 0
M  V30 12 C -6.8551 -2.0977 1.8884 0
M  V30 13 C 1.0373 2.5347 -1.1508 0
M  V30 14 C 1.8318 2.124 0.1019 0
M  V30 15 C 2.912 1.073 -0.1935 0
M  V30 16 C 3.7706 0.804 1.0513 0
M  V30 17 C 4.9311 -0.1641 0.7722 0
M  V30 18 C 4.4573 -1.6093 0.5582 0
M  V30 19 C 5.6424 -2.5611 0.4226 0
M  V30 20 H -2.7329 0.7018 1.3973 0
M  V30 21 H -1.3874 2.2728 0.3272 0
M  V30 22 H -2.333 2.094 -1.1905 0
M  V30 23 H -4.8142 0.524 2.219 0
M  V30 24 H -5.286 -2.1893 -1.1099 0
M  V30 25 H -1.1841 -0.1742 -1.5414 0
M  V30 26 H -0.1814 0.1362 -0.1007 0
M  V30 27 H -7.0271 -3.3827 0.168 0
M  V30 28 H 0.9842 0.6663 -2.2711 0
M  V30 29 H -0.2997 1.8199 -2.6977 0
M  V30 30 H -7.6165 -2.6156 2.4561 0
M  V30 31 H 1.741 2.9743 -1.8908 0
M  V30 32 H 0.3289 3.3447 -0.8749 0
M  V30 33 H 1.1436 1.7529 0.8906 0
M  V30 34 H 2.3205 3.0388 0.5035 0
M  V30 35 H 3.5617 1.4343 -1.0206 0
M  V30 36 H 2.4225 0.129 -0.5083 0
M  V30 37 H 4.2052 1.7658 1.4022 0
M  V30 38 H 3.1342 0.4036 1.8711 0
M  V30 39 H 5.6161 -0.1378 1.6481 0
M  V30 40 H 5.5058 0.1818 -0.1147 0
M  V30 41 H 3.8467 -1.6784 -0.3665 0
M  V30 42 H 3.8339 -1.9339 1.4197 0
M  V30 43 H 5.272 -3.595 0.2589 0
M  V30 44 H 6.2572 -2.5472 1.3478 0
M  V30 45 H 6.2746 -2.2687 -0.4426 0
M  V30 END ATOM
M  V30 BEGIN BOND
M  V30 1 2 1 2
M  V30 2 1 2 3
M  V30 3 1 2 4
M  V30 4 1 3 5
M  V30 5 2 4 6
M  V30 6 1 4 7
M  V30 7 1 5 8
M  V30 8 1 6 9
M  V30 9 2 7 10
M  V30 10 1 8 11
M  V30 11 2 9 12
M  V30 12 1 11 13
M  V30 13 1 13 14
M  V30 14 1 14 15
M  V30 15 1 15 16
M  V30 16 1 16 17
M  V30 17 1 17 18
M  V30 18 1 18 19
M  V30 19 1 10 12
M  V30 20 1 3 20
M  V30 21 1 5 21
M  V30 22 1 5 22
M  V30 23 1 6 23
M  V30 24 1 7 24
M  V30 25 1 8 25
M  V30 26 1 8 26
M  V30 27 1 10 27
M  V30 28 1 11 28
M  V30 29 1 11 29
M  V30 30 1 12 30
M  V30 31 1 13 31
M  V30 32 1 13 32
M  V30 33 1 14 33
M  V30 34 1 14 34
M  V30 35 1 15 35
M  V30 36 1 15 36
M  V30 37 1 16 37
M  V30 38 1 16 38
M  V30 39 1 17 39
M  V30 40 1 17 40
M  V30 41 1 18 41
M  V30 42 1 18 42
M  V30 43 1 19 43
M  V30 44 1 19 44
M  V30 45 1 19 45
M  V30 END BOND
M  V30 END CTAB
M  END
>  <Structure No>
5458

>  <LogS>
-3.0765

>  <MMFF94 Energy>
7.2191

$$$$
Compound 5459
Actelion Java MolfileCreator 2.0

  0  0  0  0  0  0              0 V3000
M  V30 BEGIN CTAB
M  V30 COUNTS 48 48 0 0 0
M  V30 BEGIN ATOM
M  V30 1 O 2.0414 -0.3138 2.1985 0
M  V30 2 C 2.9401 -0.2107 1.3195 0
M  V30 3 N 3.5503 -1.3962 0.7836 0
M  V30 4 C 3.3605 1.1361 0.866 0
M  V30 5 C 2.9193 -2.7135 0.8613 0
M  V30 6 C 3.1191 2.2641 1.67 0
M  V30 7 C 3.9768 1.3283 -0.3826 0
M  V30 8 C 2.5147 -3.208 -0.5347 0
M  V30 9 N 3.4945 3.5015 1.2495 0
M  V30 10 C 4.3514 2.6099 -0.7897 0
M  V30 11 C 1.5816 -2.247 -1.2926 0
M  V30 12 C 4.1018 3.6955 0.0498 0
M  V30 13 C 0.208 -2.0982 -0.6227 0
M  V30 14 C -0.7195 -1.2158 -1.4663 0
M  V30 15 C -2.078 -1.0306 -0.7798 0
M  V30 16 C -2.9992 -0.1314 -1.6172 0
M  V30 17 C -4.4303 -0.0491 -1.0557 0
M  V30 18 C -4.5409 0.5495 0.3584 0
M  V30 19 C -4.0381 1.9982 0.4365 0
M  V30 20 C -4.3336 2.6098 1.8031 0
M  V30 21 H 4.4576 -1.3239 0.2716 0
M  V30 22 H 2.0371 -2.7049 1.5349 0
M  V30 23 H 3.6476 -3.4311 1.2959 0
M  V30 24 H 2.6406 2.1623 2.6356 0
M  V30 25 H 4.1499 0.4995 -1.0558 0
M  V30 26 H 3.4365 -3.3512 -1.1394 0
M  V30 27 H 2.0254 -4.2017 -0.44 0
M  V30 28 H 4.825 2.7612 -1.7511 0
M  V30 29 H 1.4382 -2.6507 -2.319 0
M  V30 30 H 2.0631 -1.2502 -1.3942 0
M  V30 31 H 4.3863 4.6941 -0.2537 0
M  V30 32 H -0.253 -3.1022 -0.495 0
M  V30 33 H 0.3286 -1.6326 0.378 0
M  V30 34 H -0.8703 -1.6878 -2.4623 0
M  V30 35 H -0.2455 -0.22 -1.6144 0
M  V30 36 H -1.9127 -0.5679 0.2166 0
M  V30 37 H -2.5575 -2.0241 -0.6383 0
M  V30 38 H -2.5612 0.885 -1.706 0
M  V30 39 H -3.0664 -0.5465 -2.6466 0
M  V30 40 H -4.8699 -1.0702 -1.0424 0
M  V30 41 H -5.0483 0.5593 -1.7518 0
M  V30 42 H -3.9942 -0.0831 1.0894 0
M  V30 43 H -5.6142 0.5263 0.649 0
M  V30 44 H -4.5329 2.6124 -0.3468 0
M  V30 45 H -2.9403 2.0284 0.2727 0
M  V30 46 H -3.8362 2.0221 2.6039 0
M  V30 47 H -5.4286 2.6309 1.9888 0
M  V30 48 H -3.9488 3.651 1.8355 0
M  V30 END ATOM
M  V30 BEGIN BOND
M  V30 1 2 1 2
M  V30 2 1 2 3
M  V30 3 1 2 4
M  V30 4 1 3 5
M  V30 5 2 4 6
M  V30 6 1 4 7
M  V30 7 1 5 8
M  V30 8 1 6 9
M  V30 9 2 7 10
M  V30 10 1 8 11
M  V30 11 2 9 12
M  V30 12 1 11 13
M  V30 13 1 13 14
M  V30 14 1 14 15
M  V30 15 1 15 16
M  V30 16 1 16 17
M  V30 17 1 17 18
M  V30 18 1 18 19
M  V30 19 1 19 20
M  V30 20 1 10 12
M  V30 21 1 3 21
M  V30 22 1 5 22
M  V30 23 1 5 23
M  V30 24 1 6 24
M  V30 25 1 7 25
M  V30 26 1 8 26
M  V30 27 1 8 27
M  V30 28 1 10 28
M  V30 29 1 11 29
M  V30 30 1 11 30
M  V30 31 1 12 31
M  V30 32 1 13 32
M  V30 33 1 13 33
M  V30 34 1 14 34
M  V30 35 1 14 35
M  V30 36 1 15 36
M  V30 37 1 15 37
M  V30 38 1 16 38
M  V30 39 1 16 39
M  V30 40 1 17 40
M  V30 41 1 17 41
M  V30 42 1 18 42
M  V30 43 1 18 43
M  V30 44 1 19 44
M  V30 45 1 19 45
M  V30 46 1 20 46
M  V30 47 1 20 47
M  V30 48 1 20 48
M  V30 END BOND
M  V30 END CTAB
M  END
>  <Structure No>
5459

>  <LogS>
-3.0266

>  <MMFF94 Energy>
7.0015

$$$$
Compound 5460
Actelion Java MolfileCreator 2.0

  0  0  0  0  0  0              0 V3000
M  V30 BEGIN CTAB
M  V30 COUNTS 51 51 0 0 0
M  V30 BEGIN ATOM
M  V30 1 O 4.7951 1.963 0.7063 0
M  V30 2 C 4.9124 0.736 0.9757 0
M  V30 3 N 3.9492 0.1 1.8335 0
M  V30 4 C 6.0321 -0.0316 0.3801 0
M  V30 5 C 2.8742 0.8361 2.4997 0
M  V30 6 C 6.5129 -1.2118 0.976 0
M  V30 7 C 6.6573 0.4228 -0.7934 0
M  V30 8 C 1.536 0.6136 1.7859 0
M  V30 9 N 7.5457 -1.8938 0.4122 0
M  V30 10 C 7.7132 -0.2986 -1.3523 0
M  V30 11 C 1.5255 1.2259 0.3756 0
M  V30 12 C 8.1464 -1.4689 -0.7298 0
M  V30 13 C 0.1371 1.1717 -0.2803 0
M  V30 14 C -0.2913 -0.2628 -0.636 0
M  V30 15 C -1.5453 -0.3015 -1.5238 0
M  V30 16 C -2.8105 0.1511 -0.7795 0
M  V30 17 C -4.0596 -0.0467 -1.6509 0
M  V30 18 C -5.3303 0.5516 -1.021 0
M  V30 19 C -5.7293 -0.0494 0.3421 0
M  V30 20 C -5.9434 -1.5732 0.3423 0
M  V30 21 C -7.0687 -2.0166 -0.5914 0
M  V30 22 H 3.9199 -0.9423 1.8905 0
M  V30 23 H 2.7862 0.4648 3.5433 0
M  V30 24 H 3.1054 1.9219 2.5593 0
M  V30 25 H 6.0906 -1.5833 1.8992 0
M  V30 26 H 6.3223 1.3284 -1.2841 0
M  V30 27 H 0.7328 1.0815 2.3961 0
M  V30 28 H 1.336 -0.4777 1.7309 0
M  V30 29 H 8.1911 0.0465 -2.2601 0
M  V30 30 H 2.263 0.7045 -0.2723 0
M  V30 31 H 1.8309 2.2931 0.4441 0
M  V30 32 H 8.9644 -2.0376 -1.1515 0
M  V30 33 H -0.6079 1.6375 0.3996 0
M  V30 34 H 0.1745 1.7802 -1.2104 0
M  V30 35 H 0.5344 -0.7613 -1.1894 0
M  V30 36 H -0.4797 -0.8475 0.2897 0
M  V30 37 H -1.3882 0.3319 -2.4244 0
M  V30 38 H -1.6876 -1.3489 -1.87 0
M  V30 39 H -2.9113 -0.443 0.1538 0
M  V30 40 H -2.7223 1.2261 -0.5131 0
M  V30 41 H -4.2084 -1.1259 -1.866 0
M  V30 42 H -3.8986 0.4592 -2.6281 0
M  V30 43 H -5.1819 1.6457 -0.8898 0
M  V30 44 H -6.1728 0.434 -1.7354 0
M  V30 45 H -6.6681 0.4422 0.6789 0
M  V30 46 H -4.9565 0.2042 1.0985 0
M  V30 47 H -6.2076 -1.8841 1.3763 0
M  V30 48 H -5.0037 -2.1012 0.077 0
M  V30 49 H -6.782 -1.8603 -1.6519 0
M  V30 50 H -7.266 -3.0992 -0.4433 0
M  V30 51 H -8.0007 -1.4535 -0.3716 0
M  V30 END ATOM
M  V30 BEGIN BOND
M  V30 1 2 1 2
M  V30 2 1 2 3
M  V30 3 1 2 4
M  V30 4 1 3 5
M  V30 5 2 4 6
M  V30 6 1 4 7
M  V30 7 1 5 8
M  V30 8 1 6 9
M  V30 9 2 7 10
M  V30 10 1 8 11
M  V30 11 2 9 12
M  V30 12 1 11 13
M  V30 13 1 13 14
M  V30 14 1 14 15
M  V30 15 1 15 16
M  V30 16 1 16 17
M  V30 17 1 17 18
M  V30 18 1 18 19
M  V30 19 1 19 20
M  V30 20 1 20 21
M  V30 21 1 10 12
M  V30 22 1 3 22
M  V30 23 1 5 23
M  V30 24 1 5 24
M  V30 25 1 6 25
M  V30 26 1 7 26
M  V30 27 1 8 27
M  V30 28 1 8 28
M  V30 29 1 10 29
M  V30 30 1 11 30
M  V30 31 1 11 31
M  V30 32 1 12 32
M  V30 33 1 13 33
M  V30 34 1 13 34
M  V30 35 1 14 35
M  V30 36 1 14 36
M  V30 37 1 15 37
M  V30 38 1 15 38
M  V30 39 1 16 39
M  V30 40 1 16 40
M  V30 41 1 17 41
M  V30 42 1 17 42
M  V30 43 1 18 43
M  V30 44 1 18 44
M  V30 45 1 19 45
M  V30 46 1 19 46
M  V30 47 1 20 47
M  V30 48 1 20 48
M  V30 49 1 21 49
M  V30 50 1 21 50
M  V30 51 1 21 51
M  V30 END BOND
M  V30 END CTAB
M  END
>  <Structure No>
5460

>  <LogS>
-3.2078

>  <MMFF94 Energy>
7.2496

$$$$
Compound 5461
Actelion Java MolfileCreator 2.0

  0  0  0  0  0  0              0 V3000
M  V30 BEGIN CTAB
M  V30 COUNTS 30 31 0 0 0
M  V30 BEGIN ATOM
M  V30 1 Cl 2.429 -0.2427 -2.51 0
M  V30 2 C 2.8053 -0.2538 -0.7895 0
M  V30 3 C 1.9677 -0.877 0.1655 0
M  V30 4 C 3.9824 0.3813 -0.3733 0
M  V30 5 C 2.3337 -0.8401 1.5226 0
M  V30 6 C 0.6761 -1.5599 -0.2119 0
M  V30 7 C 4.3335 0.4062 0.9779 0
M  V30 8 C 3.5099 -0.2033 1.9246 0
M  V30 9 N -0.4623 -0.7841 0.2729 0
M  V30 10 O -1.3993 -1.3386 1.0873 0
M  V30 11 C -0.9477 0.3642 -0.3815 0
M  V30 12 C -2.6367 -0.8082 0.6315 0
M  V30 13 O -0.2465 1.1117 -1.1153 0
M  V30 14 C -2.3742 0.5333 -0.1011 0
M  V30 15 C -2.5999 1.7401 0.8238 0
M  V30 16 C -3.1968 0.6584 -1.3935 0
M  V30 17 H 4.6282 0.859 -1.0991 0
M  V30 18 H 1.7034 -1.3045 2.2713 0
M  V30 19 H 0.6575 -2.5701 0.2515 0
M  V30 20 H 0.5798 -1.7171 -1.3053 0
M  V30 21 H 5.2444 0.8997 1.2912 0
M  V30 22 H 3.7822 -0.1813 2.9719 0
M  V30 23 H -3.1052 -1.5541 -0.0484 0
M  V30 24 H -3.3216 -0.6726 1.4961 0
M  V30 25 H -3.6737 1.8178 1.098 0
M  V30 26 H -2.2975 2.681 0.3153 0
M  V30 27 H -2.0057 1.638 1.7582 0
M  V30 28 H -2.9878 -0.1911 -2.0793 0
M  V30 29 H -4.2821 0.661 -1.156 0
M  V30 30 H -2.9481 1.6036 -1.9223 0
M  V30 END ATOM
M  V30 BEGIN BOND
M  V30 1 1 1 2
M  V30 2 2 2 3
M  V30 3 1 2 4
M  V30 4 1 3 5
M  V30 5 1 3 6
M  V30 6 2 4 7
M  V30 7 2 5 8
M  V30 8 1 6 9
M  V30 9 1 9 10
M  V30 10 1 9 11
M  V30 11 1 10 12
M  V30 12 2 11 13
M  V30 13 1 11 14
M  V30 14 1 14 15
M  V30 15 1 14 16
M  V30 16 1 7 8
M  V30 17 1 12 14
M  V30 18 1 4 17
M  V30 19 1 5 18
M  V30 20 1 6 19
M  V30 21 1 6 20
M  V30 22 1 7 21
M  V30 23 1 8 22
M  V30 24 1 12 23
M  V30 25 1 12 24
M  V30 26 1 15 25
M  V30 27 1 15 26
M  V30 28 1 15 27
M  V30 29 1 16 28
M  V30 30 1 16 29
M  V30 31 1 16 30
M  V30 END BOND
M  V30 END CTAB
M  END
>  <Structure No>
5461

>  <LogS>
-2.3383

>  <MMFF94 Energy>
34.182

$$$$
Compound 5462
Actelion Java MolfileCreator 2.0

  0  0  0  0  0  0              0 V3000
M  V30 BEGIN CTAB
M  V30 COUNTS 41 42 0 0 0
M  V30 BEGIN ATOM
M  V30 1 Cl -6.5464 0.496 2.565 0
M  V30 2 C -6.2281 1.7174 1.3048 0
M  V30 3 C -5.6987 1.057 0.0388 0
M  V30 4 O -4.4594 0.41 0.3175 0
M  V30 5 C -3.6981 -0.2994 -0.6244 0
M  V30 6 C -2.5027 -0.9179 -0.2079 0
M  V30 7 C -4.0989 -0.4116 -1.9707 0
M  V30 8 S -1.9709 -0.796 1.4724 0
M  V30 9 C -1.7405 -1.6527 -1.129 0
M  V30 10 C -3.3249 -1.1359 -2.88 0
M  V30 11 O -2.7937 -1.7271 2.317 0
M  V30 12 O -2.1475 0.6112 1.9726 0
M  V30 13 N -0.3006 -1.2322 1.619 0 CHG=-1
M  V30 14 C -2.1495 -1.7574 -2.4595 0
M  V30 15 C 0.7514 -0.4425 1.0606 0
M  V30 16 O 0.4784 0.6186 0.4368 0
M  V30 17 N 2.1101 -0.8769 1.2139 0
M  V30 18 C 3.2528 -0.1809 0.6928 0
M  V30 19 N 4.4938 -0.6953 0.889 0
M  V30 20 N 3.113 0.9798 -2.0E-4 0
M  V30 21 C 5.5898 -0.0576 0.3972 0
M  V30 22 C 4.2043 1.6283 -0.4814 0
M  V30 23 O 6.8705 -0.583 0.5869 0
M  V30 24 N 5.4404 1.101 -0.2917 0
M  V30 25 C 4.0396 2.8824 -1.2739 0
M  V30 26 C 7.1058 -1.8045 1.278 0
M  V30 27 H -7.1746 2.2519 1.077 0
M  V30 28 H -5.4863 2.4509 1.6864 0
M  V30 29 H -5.5458 1.8382 -0.7367 0
M  V30 30 H -6.4404 0.3143 -0.3286 0
M  V30 31 H -5.0077 0.0554 -2.3241 0
M  V30 32 H -0.8295 -2.1479 -0.8206 0
M  V30 33 H -3.6391 -1.2178 -3.9127 0
M  V30 34 H -1.5551 -2.3238 -3.1649 0
M  V30 35 H 2.2769 -1.7686 1.7331 0
M  V30 36 H 4.9295 3.5347 -1.1473 0
M  V30 37 H 3.923 2.6276 -2.3479 0
M  V30 38 H 3.1409 3.4373 -0.9304 0
M  V30 39 H 6.5871 -2.6397 0.7604 0
M  V30 40 H 8.1956 -2.0112 1.2922 0
M  V30 41 H 6.7413 -1.7256 2.3243 0
M  V30 END ATOM
M  V30 BEGIN BOND
M  V30 1 1 1 2
M  V30 2 1 2 3
M  V30 3 1 3 4
M  V30 4 1 4 5
M  V30 5 2 5 6
M  V30 6 1 5 7
M  V30 7 1 6 8
M  V30 8 1 6 9
M  V30 9 2 7 10
M  V30 10 2 8 11
M  V30 11 2 8 12
M  V30 12 1 8 13
M  V30 13 2 9 14
M  V30 14 1 13 15
M  V30 15 2 15 16
M  V30 16 1 15 17
M  V30 17 1 17 18
M  V30 18 2 18 19
M  V30 19 1 18 20
M  V30 20 1 19 21
M  V30 21 2 20 22
M  V30 22 1 21 23
M  V30 23 2 21 24
M  V30 24 1 22 25
M  V30 25 1 23 26
M  V30 26 1 10 14
M  V30 27 1 22 24
M  V30 28 1 2 27
M  V30 29 1 2 28
M  V30 30 1 3 29
M  V30 31 1 3 30
M  V30 32 1 7 31
M  V30 33 1 9 32
M  V30 34 1 10 33
M  V30 35 1 14 34
M  V30 36 1 17 35
M  V30 37 1 25 36
M  V30 38 1 25 37
M  V30 39 1 25 38
M  V30 40 1 26 39
M  V30 41 1 26 40
M  V30 42 1 26 41
M  V30 END BOND
M  V30 END CTAB
M  END
>  <Structure No>
5462

>  <LogS>
-4.0989

>  <MMFF94 Energy>
-121.79

$$$$
Compound 5463
Actelion Java MolfileCreator 2.0

  0  0  0  0  0  0              0 V3000
M  V30 BEGIN CTAB
M  V30 COUNTS 21 22 0 0 0
M  V30 BEGIN ATOM
M  V30 1 O -2.9058 -2.9058 0.3225 0
M  V30 2 N -2.4692 -1.6018 0.3835 0
M  V30 3 C -1.251 -1.2628 0.0864 0
M  V30 4 C -0.8515 0.1575 0.1543 0
M  V30 5 C -0.2619 -2.2667 -0.363 0
M  V30 6 N -1.7917 1.11 0.4075 0
M  V30 7 C 0.4877 0.5305 -0.1002 0
M  V30 8 C 1.0113 -1.9279 -0.5771 0
M  V30 9 C -1.4956 2.4342 0.3975 0
M  V30 10 C 1.4967 -0.5543 -0.337 0
M  V30 11 C 0.7813 1.907 -0.1825 0
M  V30 12 C -0.2066 2.8559 0.0828 0
M  V30 13 N 2.7847 -0.3923 -0.2368 0
M  V30 14 O 3.3979 0.7828 0.1265 0
M  V30 15 H -3.8631 -3.1305 0.5617 0
M  V30 16 H -0.5593 -3.2971 -0.5121 0
M  V30 17 H 1.7157 -2.6955 -0.8749 0
M  V30 18 H -2.2702 3.1607 0.6036 0
M  V30 19 H 1.7477 2.2725 -0.4884 0
M  V30 20 H 0.0226 3.9125 0.0306 0
M  V30 21 H 4.4071 0.831 0.1818 0
M  V30 END ATOM
M  V30 BEGIN BOND
M  V30 1 1 1 2
M  V30 2 2 2 3
M  V30 3 1 3 4
M  V30 4 1 3 5
M  V30 5 2 4 6
M  V30 6 1 4 7
M  V30 7 2 5 8
M  V30 8 1 6 9
M  V30 9 1 7 10
M  V30 10 2 7 11
M  V30 11 2 9 12
M  V30 12 2 10 13
M  V30 13 1 13 14
M  V30 14 1 8 10
M  V30 15 1 11 12
M  V30 16 1 1 15
M  V30 17 1 5 16
M  V30 18 1 8 17
M  V30 19 1 9 18
M  V30 20 1 11 19
M  V30 21 1 12 20
M  V30 22 1 14 21
M  V30 END BOND
M  V30 END CTAB
M  END
>  <Structure No>
5463

>  <LogS>
-3.7998

>  <MMFF94 Energy>
96.192

$$$$
Compound 5464
Actelion Java MolfileCreator 2.0

  0  0  0  0  0  0              0 V3000
M  V30 BEGIN CTAB
M  V30 COUNTS 38 39 0 0 0
M  V30 BEGIN ATOM
M  V30 1 Cl 6.431 -1.2837 -0.3208 0
M  V30 2 C 4.72 -0.9976 -0.0607 0
M  V30 3 C 4.015 -1.7666 0.8698 0
M  V30 4 C 4.0587 -5.0E-4 -0.7842 0
M  V30 5 C 2.6514 -1.5385 1.0775 0
M  V30 6 C 2.6947 0.229 -0.5787 0
M  V30 7 C 1.9794 -0.5415 0.3597 0
M  V30 8 O 0.6108 -0.3548 0.6084 0
M  V30 9 C -0.2166 0.6254 -0.0223 0 CFG=2
M  V30 10 N 0.1878 1.9633 0.4128 0
M  V30 11 C -1.7084 0.3928 0.3391 0 CFG=2
M  V30 12 N 0.5797 2.272 1.6353 0
M  V30 13 C 0.1518 3.0901 -0.3166 0
M  V30 14 O -1.8819 0.3945 1.7375 0
M  V30 15 C -2.3939 -0.8547 -0.3356 0
M  V30 16 C 0.7966 3.6015 1.6194 0
M  V30 17 N 0.5377 4.154 0.4133 0
M  V30 18 C -1.6295 -2.1721 -0.0737 0
M  V30 19 C -2.5046 -0.6467 -1.8644 0
M  V30 20 C -3.8281 -1.0034 0.2225 0
M  V30 21 H 4.5215 -2.5405 1.4324 0
M  V30 22 H 4.6003 0.597 -1.5064 0
M  V30 23 H 2.113 -2.1388 1.8 0
M  V30 24 H 2.2107 1.0057 -1.1533 0
M  V30 25 H -0.0917 0.5527 -1.1221 0
M  V30 26 H -2.2563 1.2867 -0.0346 0
M  V30 27 H -0.1529 3.1422 -1.3537 0
M  V30 28 H -1.3738 -0.3682 2.1135 0
M  V30 29 H 1.1334 4.1654 2.4787 0
M  V30 30 H -1.4899 -2.3528 1.0118 0
M  V30 31 H -2.1938 -3.0355 -0.4881 0
M  V30 32 H -0.6371 -2.1662 -0.57 0
M  V30 33 H -3.0982 -1.4634 -2.3294 0
M  V30 34 H -3.0061 0.3171 -2.0974 0
M  V30 35 H -1.508 -0.6533 -2.3512 0
M  V30 36 H -4.4069 -0.0667 0.0693 0
M  V30 37 H -4.3692 -1.8312 -0.285 0
M  V30 38 H -3.8111 -1.2312 1.31 0
M  V30 END ATOM
M  V30 BEGIN BOND
M  V30 1 1 1 2
M  V30 2 2 2 3
M  V30 3 1 2 4
M  V30 4 1 3 5
M  V30 5 2 4 6
M  V30 6 2 5 7
M  V30 7 1 7 8
M  V30 8 1 8 9
M  V30 9 1 9 10
M  V30 10 1 9 11
M  V30 11 1 10 12
M  V30 12 1 10 13
M  V30 13 1 11 14
M  V30 14 1 11 15
M  V30 15 2 12 16
M  V30 16 2 13 17
M  V30 17 1 15 18
M  V30 18 1 15 19
M  V30 19 1 15 20
M  V30 20 1 6 7
M  V30 21 1 16 17
M  V30 22 1 3 21
M  V30 23 1 4 22
M  V30 24 1 5 23
M  V30 25 1 6 24
M  V30 26 1 9 25
M  V30 27 1 11 26
M  V30 28 1 13 27
M  V30 29 1 14 28
M  V30 30 1 16 29
M  V30 31 1 18 30
M  V30 32 1 18 31
M  V30 33 1 18 32
M  V30 34 1 19 33
M  V30 35 1 19 34
M  V30 36 1 19 35
M  V30 37 1 20 36
M  V30 38 1 20 37
M  V30 39 1 20 38
M  V30 END BOND
M  V30 BEGIN COLLECTION
M  V30 MDLV30/STEABS ATOMS=(2 9 11)
M  V30 END COLLECTION
M  V30 END CTAB
M  END
>  <Structure No>
5464

>  <LogS>
-3.9524

>  <MMFF94 Energy>
90.019

$$$$
Compound 5465
Actelion Java MolfileCreator 2.0

  0  0  0  0  0  0              0 V3000
M  V30 BEGIN CTAB
M  V30 COUNTS 39 41 0 0 0
M  V30 BEGIN ATOM
M  V30 1 Cl -2.269 -5.6798 1.215 0
M  V30 2 C -1.3368 -4.1988 1.0877 0
M  V30 3 C -1.9392 -2.9679 1.3633 0
M  V30 4 C 0.0051 -4.2526 0.7121 0
M  V30 5 C -1.2055 -1.7662 1.2617 0
M  V30 6 C 0.7506 -3.0785 0.6154 0
M  V30 7 C 0.1607 -1.8342 0.8873 0
M  V30 8 C -1.8668 -0.4138 1.5247 0 CFG=2
M  V30 9 N 0.9585 -0.6433 0.8036 0
M  V30 10 O -3.2028 -0.5376 1.9504 0
M  V30 11 C -1.7828 0.5096 0.3202 0
M  V30 12 C 1.6395 -0.2634 -0.4059 0
M  V30 13 C -1.418 1.8566 0.491 0
M  V30 14 C -2.095 0.0453 -0.9718 0
M  V30 15 O 1.5914 -1.028 -1.4087 0
M  V30 16 C 2.3931 1.0137 -0.5112 0
M  V30 17 C -1.3214 2.7087 -0.613 0
M  V30 18 C -1.9983 0.9018 -2.0726 0
M  V30 19 C 2.1527 2.0937 0.3587 0
M  V30 20 C 3.356 1.1725 -1.5241 0
M  V30 21 C -1.6064 2.2306 -1.894 0
M  V30 22 C 2.8731 3.2811 0.2067 0
M  V30 23 C 4.0549 2.3763 -1.6379 0
M  V30 24 N 3.8014 3.3965 -0.7779 0
M  V30 25 H -2.9808 -2.9635 1.6546 0
M  V30 26 H 0.4742 -5.2052 0.5013 0
M  V30 27 H 1.7963 -3.1372 0.3409 0
M  V30 28 H -1.3097 0.0453 2.3698 0
M  V30 29 H 0.99 -0.028 1.6442 0
M  V30 30 H -3.7516 -0.8022 1.1658 0
M  V30 31 H -1.1938 2.2445 1.4768 0
M  V30 32 H -2.4015 -0.9812 -1.128 0
M  V30 33 H -1.0235 3.7401 -0.4748 0
M  V30 34 H -2.2272 0.5346 -3.0645 0
M  V30 35 H 1.4043 2.0471 1.135 0
M  V30 36 H 3.5733 0.3704 -2.2185 0
M  V30 37 H -1.5294 2.8916 -2.7477 0
M  V30 38 H 2.6884 4.1153 0.8704 0
M  V30 39 H 4.7997 2.4995 -2.4128 0
M  V30 END ATOM
M  V30 BEGIN BOND
M  V30 1 1 1 2
M  V30 2 2 2 3
M  V30 3 1 2 4
M  V30 4 1 3 5
M  V30 5 2 4 6
M  V30 6 2 5 7
M  V30 7 1 5 8
M  V30 8 1 7 9
M  V30 9 1 8 10
M  V30 10 1 8 11
M  V30 11 1 9 12
M  V30 12 2 11 13
M  V30 13 1 11 14
M  V30 14 2 12 15
M  V30 15 1 12 16
M  V30 16 1 13 17
M  V30 17 2 14 18
M  V30 18 2 16 19
M  V30 19 1 16 20
M  V30 20 2 17 21
M  V30 21 1 19 22
M  V30 22 2 20 23
M  V30 23 2 22 24
M  V30 24 1 6 7
M  V30 25 1 18 21
M  V30 26 1 23 24
M  V30 27 1 3 25
M  V30 28 1 4 26
M  V30 29 1 6 27
M  V30 30 1 8 28
M  V30 31 1 9 29
M  V30 32 1 10 30
M  V30 33 1 13 31
M  V30 34 1 14 32
M  V30 35 1 17 33
M  V30 36 1 18 34
M  V30 37 1 19 35
M  V30 38 1 20 36
M  V30 39 1 21 37
M  V30 40 1 22 38
M  V30 41 1 23 39
M  V30 END BOND
M  V30 BEGIN COLLECTION
M  V30 MDLV30/STEABS ATOMS=(1 8)
M  V30 END COLLECTION
M  V30 END CTAB
M  END
>  <Structure No>
5465

>  <LogS>
-5.5299

>  <MMFF94 Energy>
40.368

$$$$
Compound 5466
Actelion Java MolfileCreator 2.0

  0  0  0  0  0  0              0 V3000
M  V30 BEGIN CTAB
M  V30 COUNTS 48 49 0 0 0
M  V30 BEGIN ATOM
M  V30 1 O -1.9838 0.7931 2.0633 0
M  V30 2 C -2.2683 0.5485 0.8592 0
M  V30 3 N -1.2213 0.3781 -0.1087 0
M  V30 4 C -3.6902 0.465 0.4498 0
M  V30 5 C 0.1617 0.271 0.247 0
M  V30 6 C -4.1245 -0.5752 -0.4025 0
M  V30 7 C -4.617 1.4203 0.9246 0
M  V30 8 O 0.6253 0.2696 1.4726 0
M  V30 9 C 1.2047 0.134 -0.6386 0
M  V30 10 O -3.199 -1.5449 -0.8251 0
M  V30 11 C -5.4761 -0.632 -0.7903 0
M  V30 12 O -4.1657 2.4487 1.77 0
M  V30 13 C -5.965 1.332 0.5296 0
M  V30 14 N 1.9197 0.1409 1.4736 0
M  V30 15 C 2.322 0.0755 0.1838 0
M  V30 16 C -3.5048 -2.6381 -1.6845 0
M  V30 17 C -6.3852 0.3155 -0.3251 0
M  V30 18 C -4.9923 3.4732 2.313 0
M  V30 19 C 3.7635 -0.2008 -0.2396 0
M  V30 20 C 4.7127 0.4238 0.8453 0
M  V30 21 C 3.8937 -1.7539 -0.31 0
M  V30 22 C 4.0054 0.4331 -1.6343 0
M  V30 23 C 6.1264 0.814 0.3896 0
M  V30 24 C 5.2901 -2.3025 -0.6083 0
M  V30 25 H -1.4702 0.3512 -1.1232 0
M  V30 26 H 1.1465 0.0635 -1.7158 0
M  V30 27 H -5.838 -1.413 -1.4447 0
M  V30 28 H -6.697 2.0496 0.8735 0
M  V30 29 H -3.8698 -2.2632 -2.664 0
M  V30 30 H -4.2697 -3.2914 -1.2142 0
M  V30 31 H -2.5845 -3.2337 -1.8532 0
M  V30 32 H -7.4237 0.2592 -0.6257 0
M  V30 33 H -5.7885 3.0266 2.9454 0
M  V30 34 H -4.3722 4.1426 2.9435 0
M  V30 35 H -5.4437 4.0735 1.4951 0
M  V30 36 H 4.7982 -0.2718 1.7087 0
M  V30 37 H 4.2595 1.3598 1.2428 0
M  V30 38 H 3.5616 -2.198 0.6551 0
M  V30 39 H 3.2023 -2.1419 -1.0913 0
M  V30 40 H 5.0493 0.2961 -1.9796 0
M  V30 41 H 3.7913 1.5234 -1.6042 0
M  V30 42 H 3.3577 -0.0337 -2.4055 0
M  V30 43 H 6.7288 1.1034 1.2764 0
M  V30 44 H 6.6493 -0.0136 -0.1232 0
M  V30 45 H 6.0852 1.692 -0.289 0
M  V30 46 H 5.7189 -1.8499 -1.5244 0
M  V30 47 H 5.9643 -2.1414 0.2575 0
M  V30 48 H 5.2209 -3.3986 -0.7724 0
M  V30 END ATOM
M  V30 BEGIN BOND
M  V30 1 2 1 2
M  V30 2 1 2 3
M  V30 3 1 2 4
M  V30 4 1 3 5
M  V30 5 2 4 6
M  V30 6 1 4 7
M  V30 7 1 5 8
M  V30 8 2 5 9
M  V30 9 1 6 10
M  V30 10 1 6 11
M  V30 11 1 7 12
M  V30 12 2 7 13
M  V30 13 1 8 14
M  V30 14 1 9 15
M  V30 15 1 10 16
M  V30 16 2 11 17
M  V30 17 1 12 18
M  V30 18 1 15 19
M  V30 19 1 19 20
M  V30 20 1 19 21
M  V30 21 1 19 22
M  V30 22 1 20 23
M  V30 23 1 21 24
M  V30 24 1 13 17
M  V30 25 2 14 15
M  V30 26 1 3 25
M  V30 27 1 9 26
M  V30 28 1 11 27
M  V30 29 1 13 28
M  V30 30 1 16 29
M  V30 31 1 16 30
M  V30 32 1 16 31
M  V30 33 1 17 32
M  V30 34 1 18 33
M  V30 35 1 18 34
M  V30 36 1 18 35
M  V30 37 1 20 36
M  V30 38 1 20 37
M  V30 39 1 21 38
M  V30 40 1 21 39
M  V30 41 1 22 40
M  V30 42 1 22 41
M  V30 43 1 22 42
M  V30 44 1 23 43
M  V30 45 1 23 44
M  V30 46 1 23 45
M  V30 47 1 24 46
M  V30 48 1 24 47
M  V30 49 1 24 48
M  V30 END BOND
M  V30 END CTAB
M  END
>  <Structure No>
5466

>  <LogS>
-5.3694

>  <MMFF94 Energy>
50.318

$$$$
Compound 5467
Actelion Java MolfileCreator 2.0

  0  0  0  0  0  0              0 V3000
M  V30 BEGIN CTAB
M  V30 COUNTS 22 21 0 0 0
M  V30 BEGIN ATOM
M  V30 1 O 0.6146 -0.3072 -0.3841 0
M  V30 2 C -0.4133 -0.5649 0.5586 0 CFG=1
M  V30 3 C 1.7041 0.3497 0.2283 0
M  V30 4 C -1.778 -0.2729 -0.0905 0
M  V30 5 C -0.3405 -2.0339 0.984 0
M  V30 6 C 2.8191 0.5228 -0.7905 0
M  V30 7 C -1.9764 1.2195 -0.3889 0
M  V30 8 O -1.0912 1.6599 -1.3831 0
M  V30 9 H -0.3412 0.0607 1.4827 0
M  V30 10 H 1.3968 1.3588 0.5854 0
M  V30 11 H 2.0987 -0.2448 1.0833 0
M  V30 12 H -2.5885 -0.5929 0.6007 0
M  V30 13 H -1.8859 -0.8572 -1.0308 0
M  V30 14 H -0.4511 -2.6997 0.1015 0
M  V30 15 H -1.1428 -2.2653 1.7168 0
M  V30 16 H 0.6385 -2.2416 1.4645 0
M  V30 17 H 3.68 1.0434 -0.3205 0
M  V30 18 H 2.4577 1.1269 -1.6497 0
M  V30 19 H 3.1548 -0.4698 -1.1581 0
M  V30 20 H -3.0277 1.3972 -0.7105 0
M  V30 21 H -1.807 1.8139 0.534 0
M  V30 22 H -1.4281 1.2982 -2.244 0
M  V30 END ATOM
M  V30 BEGIN BOND
M  V30 1 1 1 2
M  V30 2 1 1 3
M  V30 3 1 2 4
M  V30 4 1 2 5
M  V30 5 1 3 6
M  V30 6 1 4 7
M  V30 7 1 7 8
M  V30 8 1 2 9
M  V30 9 1 3 10
M  V30 10 1 3 11
M  V30 11 1 4 12
M  V30 12 1 4 13
M  V30 13 1 5 14
M  V30 14 1 5 15
M  V30 15 1 5 16
M  V30 16 1 6 17
M  V30 17 1 6 18
M  V30 18 1 6 19
M  V30 19 1 7 20
M  V30 20 1 7 21
M  V30 21 1 8 22
M  V30 END BOND
M  V30 BEGIN COLLECTION
M  V30 MDLV30/STEABS ATOMS=(1 2)
M  V30 END COLLECTION
M  V30 END CTAB
M  END
>  <Structure No>
5467

>  <LogS>
-0.3736

>  <MMFF94 Energy>
8.2062

$$$$
Compound 5468
Actelion Java MolfileCreator 2.0

  0  0  0  0  0  0              0 V3000
M  V30 BEGIN CTAB
M  V30 COUNTS 51 53 0 0 0
M  V30 BEGIN ATOM
M  V30 1 Cl -6.941 -0.6517 3.4252 0
M  V30 2 C -5.954 0.284 2.3024 0
M  V30 3 C -4.8236 -0.2789 1.8367 0
M  V30 4 C -6.3992 1.6738 1.9092 0
M  V30 5 C -3.9073 0.4072 0.8517 0 CFG=2
M  V30 6 F -7.6053 1.9831 2.5116 0
M  V30 7 F -5.4573 2.6019 2.3145 0
M  V30 8 F -6.5607 1.7537 0.5385 0
M  V30 9 C -4.0884 0.0633 -0.6329 0
M  V30 10 C -2.918 -0.54 0.1561 0 CFG=1
M  V30 11 C -3.8262 1.2282 -1.598 0
M  V30 12 C -5.1942 -0.9278 -1.0285 0
M  V30 13 C -1.56 0.0368 -0.1037 0
M  V30 14 O -0.9091 0.5633 0.8387 0
M  V30 15 O -1.0005 -0.0812 -1.3813 0
M  V30 16 C 0.3145 0.3685 -1.7014 0
M  V30 17 C 1.3747 -0.5265 -1.0839 0
M  V30 18 C 2.6487 -0.0258 -0.6912 0
M  V30 19 C 1.1161 -1.9068 -0.9857 0
M  V30 20 C 3.6105 -0.9284 -0.1604 0
M  V30 21 C 2.9428 1.4573 -0.7888 0
M  V30 22 C 2.0617 -2.7736 -0.4487 0
M  V30 23 C 4.954 -0.4926 0.2705 0
M  V30 24 C 3.2958 -2.2881 -0.0294 0
M  V30 25 C 5.275 -0.4441 1.6356 0
M  V30 26 C 5.9291 -0.1574 -0.683 0
M  V30 27 C 6.5518 -0.0444 2.042 0
M  V30 28 C 7.204 0.2433 -0.2721 0
M  V30 29 C 7.5147 0.3015 1.0896 0
M  V30 30 H -4.5628 -1.2755 2.1788 0
M  V30 31 H -3.4843 1.4013 1.118 0
M  V30 32 H -2.9904 -1.6208 0.4071 0
M  V30 33 H -3.1108 1.9711 -1.1863 0
M  V30 34 H -4.781 1.7527 -1.8082 0
M  V30 35 H -3.4214 0.8336 -2.5529 0
M  V30 36 H -5.2306 -1.8144 -0.3606 0
M  V30 37 H -5.0141 -1.2854 -2.0651 0
M  V30 38 H -6.1794 -0.4186 -0.9949 0
M  V30 39 H 0.4098 1.4242 -1.3757 0
M  V30 40 H 0.4365 0.344 -2.8039 0
M  V30 41 H 0.1718 -2.3174 -1.3217 0
M  V30 42 H 3.9957 1.7164 -0.5728 0
M  V30 43 H 2.7258 1.8237 -1.8125 0
M  V30 44 H 2.3122 2.006 -0.0586 0
M  V30 45 H 1.8376 -3.829 -0.3614 0
M  V30 46 H 4.0202 -2.9804 0.3844 0
M  V30 47 H 4.5336 -0.7046 2.3831 0
M  V30 48 H 5.698 -0.2003 -1.7401 0
M  V30 49 H 6.7936 1.0E-4 3.0963 0
M  V30 50 H 7.9505 0.5096 -1.0086 0
M  V30 51 H 8.5011 0.6131 1.407 0
M  V30 END ATOM
M  V30 BEGIN BOND
M  V30 1 1 1 2
M  V30 2 2 2 3
M  V30 3 1 2 4
M  V30 4 1 3 5
M  V30 5 1 4 6
M  V30 6 1 4 7
M  V30 7 1 4 8
M  V30 8 1 5 9
M  V30 9 1 5 10
M  V30 10 1 9 11
M  V30 11 1 9 12
M  V30 12 1 10 13
M  V30 13 2 13 14
M  V30 14 1 13 15
M  V30 15 1 15 16
M  V30 16 1 16 17
M  V30 17 2 17 18
M  V30 18 1 17 19
M  V30 19 1 18 20
M  V30 20 1 18 21
M  V30 21 2 19 22
M  V30 22 1 20 23
M  V30 23 2 20 24
M  V30 24 2 23 25
M  V30 25 1 23 26
M  V30 26 1 25 27
M  V30 27 2 26 28
M  V30 28 2 27 29
M  V30 29 1 9 10
M  V30 30 1 22 24
M  V30 31 1 28 29
M  V30 32 1 3 30
M  V30 33 1 5 31
M  V30 34 1 10 32
M  V30 35 1 11 33
M  V30 36 1 11 34
M  V30 37 1 11 35
M  V30 38 1 12 36
M  V30 39 1 12 37
M  V30 40 1 12 38
M  V30 41 1 16 39
M  V30 42 1 16 40
M  V30 43 1 19 41
M  V30 44 1 21 42
M  V30 45 1 21 43
M  V30 46 1 21 44
M  V30 47 1 22 45
M  V30 48 1 24 46
M  V30 49 1 25 47
M  V30 50 1 26 48
M  V30 51 1 27 49
M  V30 52 1 28 50
M  V30 53 1 29 51
M  V30 END BOND
M  V30 BEGIN COLLECTION
M  V30 MDLV30/STEABS ATOMS=(2 5 10)
M  V30 END COLLECTION
M  V30 END CTAB
M  END
>  <Structure No>
5468

>  <LogS>
-6.6262

>  <MMFF94 Energy>
90.286

$$$$
Compound 5469
Actelion Java MolfileCreator 2.0

  0  0  0  0  0  0              0 V3000
M  V30 BEGIN CTAB
M  V30 COUNTS 49 51 0 0 0
M  V30 BEGIN ATOM
M  V30 1 Cl -4.1608 -0.0814 1.3854 0
M  V30 2 C -3.8581 0.0651 -0.3526 0
M  V30 3 C -3.2335 1.2244 -0.8623 0
M  V30 4 C -4.2636 -0.9664 -1.2332 0
M  V30 5 C -2.763 2.307 0.0234 0
M  V30 6 C -3.0492 1.3618 -2.2422 0
M  V30 7 C -4.0346 -0.8178 -2.6216 0
M  V30 8 C -4.9061 -2.2123 -0.6713 0
M  V30 9 O -3.237 3.4642 -0.1308 0
M  V30 10 C -1.721 2.0714 1.0484 0
M  V30 11 C -3.4412 0.3479 -3.1113 0
M  V30 12 Cl -4.4687 -2.0595 -3.7936 0
M  V30 13 C -0.8566 0.9945 1.146 0
M  V30 14 C -1.3549 2.8995 2.0995 0
M  V30 15 O -0.8597 -0.0906 0.2515 0
M  V30 16 N -0.0451 1.1814 2.2172 0
M  V30 17 N -0.3487 2.3344 2.7945 0
M  V30 18 C -1.9681 4.2134 2.4637 0
M  V30 19 C 0.2207 -0.9825 -0.0125 0
M  V30 20 C 0.9535 0.2776 2.777 0
M  V30 21 C 1.3941 -0.2562 -0.6162 0
M  V30 22 O 1.1871 0.8278 -1.2267 0
M  V30 23 C 2.7738 -0.8031 -0.5503 0
M  V30 24 C 3.8721 0.0295 -0.8327 0
M  V30 25 C 3.0142 -2.1478 -0.2091 0
M  V30 26 C 5.1768 -0.4673 -0.7691 0
M  V30 27 C 4.3202 -2.6421 -0.1445 0
M  V30 28 C 5.4086 -1.808 -0.4349 0
M  V30 29 C 6.8141 -2.3229 -0.337 0
M  V30 30 H -2.5784 2.2498 -2.6454 0
M  V30 31 H -5.2823 -2.9012 -1.4515 0
M  V30 32 H -4.1659 -2.7622 -0.0529 0
M  V30 33 H -5.7755 -1.9357 -0.0382 0
M  V30 34 H -3.2726 0.4665 -4.1742 0
M  V30 35 H -1.8006 4.9448 1.6467 0
M  V30 36 H -3.0578 4.0849 2.6315 0
M  V30 37 H -1.5072 4.6064 3.3942 0
M  V30 38 H -0.1287 -1.736 -0.748 0
M  V30 39 H 0.4962 -1.5329 0.9055 0
M  V30 40 H 1.7951 0.1468 2.0697 0
M  V30 41 H 0.486 -0.6968 3.0275 0
M  V30 42 H 1.3682 0.7042 3.7149 0
M  V30 43 H 3.7239 1.0702 -1.0919 0
M  V30 44 H 2.1984 -2.8273 -0.0021 0
M  V30 45 H 6.0078 0.1948 -0.9798 0
M  V30 46 H 4.4805 -3.6781 0.128 0
M  V30 47 H 6.8376 -3.4336 -0.3554 0
M  V30 48 H 7.4169 -1.9508 -1.1927 0
M  V30 49 H 7.272 -1.9688 0.6105 0
M  V30 END ATOM
M  V30 BEGIN BOND
M  V30 1 1 1 2
M  V30 2 2 2 3
M  V30 3 1 2 4
M  V30 4 1 3 5
M  V30 5 1 3 6
M  V30 6 2 4 7
M  V30 7 1 4 8
M  V30 8 2 5 9
M  V30 9 1 5 10
M  V30 10 2 6 11
M  V30 11 1 7 12
M  V30 12 2 10 13
M  V30 13 1 10 14
M  V30 14 1 13 15
M  V30 15 1 13 16
M  V30 16 2 14 17
M  V30 17 1 14 18
M  V30 18 1 15 19
M  V30 19 1 16 20
M  V30 20 1 19 21
M  V30 21 2 21 22
M  V30 22 1 21 23
M  V30 23 2 23 24
M  V30 24 1 23 25
M  V30 25 1 24 26
M  V30 26 2 25 27
M  V30 27 2 26 28
M  V30 28 1 28 29
M  V30 29 1 7 11
M  V30 30 1 16 17
M  V30 31 1 27 28
M  V30 32 1 6 30
M  V30 33 1 8 31
M  V30 34 1 8 32
M  V30 35 1 8 33
M  V30 36 1 11 34
M  V30 37 1 18 35
M  V30 38 1 18 36
M  V30 39 1 18 37
M  V30 40 1 19 38
M  V30 41 1 19 39
M  V30 42 1 20 40
M  V30 43 1 20 41
M  V30 44 1 20 42
M  V30 45 1 24 43
M  V30 46 1 25 44
M  V30 47 1 26 45
M  V30 48 1 27 46
M  V30 49 1 29 47
M  V30 50 1 29 48
M  V30 51 1 29 49
M  V30 END BOND
M  V30 END CTAB
M  END
>  <Structure No>
5469

>  <LogS>
-6.5209

>  <MMFF94 Energy>
119.71

$$$$
Compound 5470
Actelion Java MolfileCreator 2.0

  0  0  0  0  0  0              0 V3000
M  V30 BEGIN CTAB
M  V30 COUNTS 45 46 0 0 0
M  V30 BEGIN ATOM
M  V30 1 S 1.7168 0.9808 -0.6537 0
M  V30 2 O 1.2964 0.1441 -1.8307 0
M  V30 3 O 3.0289 1.6374 -0.9785 0
M  V30 4 N 0.5394 2.2188 -0.3609 0 CHG=-1
M  V30 5 C 1.8936 -0.0376 0.8055 0
M  V30 6 C -0.8775 2.0195 -0.2924 0
M  V30 7 C 2.908 -1.1363 0.5757 0
M  V30 8 O -1.6113 3.0228 -0.0885 0
M  V30 9 N -1.4599 0.7101 -0.4417 0
M  V30 10 C 4.3156 -0.9301 0.6651 0
M  V30 11 C 2.4266 -2.3901 0.1485 0
M  V30 12 C -2.872 0.4561 -0.5057 0
M  V30 13 C 4.9245 0.3584 1.0692 0
M  V30 14 C 5.1826 -1.9875 0.3302 0
M  V30 15 C 3.3066 -3.4242 -0.1699 0
M  V30 16 N -3.773 1.4752 -0.474 0
M  V30 17 N -3.3151 -0.8248 -0.6118 0
M  V30 18 O 5.9628 0.7652 0.4775 0
M  V30 19 O 4.3952 1.0936 2.1332 0
M  V30 20 C 4.6813 -3.2237 -0.0785 0
M  V30 21 C -5.1118 1.239 -0.5379 0
M  V30 22 C -4.6438 -1.1109 -0.6811 0
M  V30 23 C 4.9062 2.364 2.5153 0
M  V30 24 O -6.0277 2.2931 -0.5081 0
M  V30 25 C -5.5756 -0.072 -0.6384 0
M  V30 26 O -5.0875 -2.4316 -0.7975 0
M  V30 27 C -5.6286 3.6554 -0.4129 0
M  V30 28 C -4.1948 -3.5357 -0.8977 0
M  V30 29 H 0.9033 -0.4767 1.0465 0
M  V30 30 H 2.1469 0.593 1.6751 0
M  V30 31 H -0.8361 -0.1214 -0.5044 0
M  V30 32 H 1.3615 -2.5651 0.0469 0
M  V30 33 H 6.2576 -1.8564 0.3913 0
M  V30 34 H 2.9213 -4.3791 -0.4993 0
M  V30 35 H 5.3619 -4.0264 -0.3298 0
M  V30 36 H 4.3543 2.7284 3.4062 0
M  V30 37 H 4.7721 3.0895 1.6858 0
M  V30 38 H 5.9837 2.2825 2.7696 0
M  V30 39 H -6.6367 -0.2802 -0.6914 0
M  V30 40 H -5.0018 3.9289 -1.2872 0
M  V30 41 H -5.0572 3.8204 0.525 0
M  V30 42 H -6.5308 4.2997 -0.4026 0
M  V30 43 H -4.7789 -4.4744 -0.9985 0
M  V30 44 H -3.5468 -3.4173 -1.795 0
M  V30 45 H -3.5664 -3.6003 0.0149 0
M  V30 END ATOM
M  V30 BEGIN BOND
M  V30 1 2 1 2
M  V30 2 2 1 3
M  V30 3 1 1 4
M  V30 4 1 1 5
M  V30 5 1 4 6
M  V30 6 1 5 7
M  V30 7 2 6 8
M  V30 8 1 6 9
M  V30 9 2 7 10
M  V30 10 1 7 11
M  V30 11 1 9 12
M  V30 12 1 10 13
M  V30 13 1 10 14
M  V30 14 2 11 15
M  V30 15 2 12 16
M  V30 16 1 12 17
M  V30 17 2 13 18
M  V30 18 1 13 19
M  V30 19 2 14 20
M  V30 20 1 16 21
M  V30 21 2 17 22
M  V30 22 1 19 23
M  V30 23 1 21 24
M  V30 24 2 21 25
M  V30 25 1 22 26
M  V30 26 1 24 27
M  V30 27 1 26 28
M  V30 28 1 15 20
M  V30 29 1 22 25
M  V30 30 1 5 29
M  V30 31 1 5 30
M  V30 32 1 9 31
M  V30 33 1 11 32
M  V30 34 1 14 33
M  V30 35 1 15 34
M  V30 36 1 20 35
M  V30 37 1 23 36
M  V30 38 1 23 37
M  V30 39 1 23 38
M  V30 40 1 25 39
M  V30 41 1 27 40
M  V30 42 1 27 41
M  V30 43 1 27 42
M  V30 44 1 28 43
M  V30 45 1 28 44
M  V30 46 1 28 45
M  V30 END BOND
M  V30 END CTAB
M  END
>  <Structure No>
5470

>  <LogS>
-3.534

>  <MMFF94 Energy>
-63.733

$$$$
Compound 5471
Actelion Java MolfileCreator 2.0

  0  0  0  0  0  0              0 V3000
M  V30 BEGIN CTAB
M  V30 COUNTS 30 31 0 0 0
M  V30 BEGIN ATOM
M  V30 1 Cl 6.4405 0.0 2.7081 0
M  V30 2 C 5.3663 0.103 1.3212 0
M  V30 3 C 5.8961 0.1125 0.0253 0
M  V30 4 C 3.9799 0.1769 1.5125 0
M  V30 5 F 7.2389 0.0425 -0.1599 0
M  V30 6 C 5.0411 0.2036 -1.0788 0
M  V30 7 F 3.4731 0.1643 2.7722 0
M  V30 8 C 3.1137 0.2461 0.4079 0
M  V30 9 Cl 5.6974 0.24 -2.7068 0
M  V30 10 C 3.6573 0.2766 -0.8887 0
M  V30 11 N 1.6945 0.3449 0.6216 0
M  V30 12 C 0.71 -0.2518 -0.2367 0
M  V30 13 O 1.0568 -1.0935 -1.1096 0
M  V30 14 N -0.6762 0.0767 -0.0565 0
M  V30 15 C -1.7298 -0.403 -0.9096 0
M  V30 16 O -1.4517 -0.9507 -2.0111 0
M  V30 17 C -3.1499 -0.228 -0.5247 0
M  V30 18 C -4.1219 0.0559 -1.5059 0
M  V30 19 C -3.5554 -0.3611 0.8196 0
M  V30 20 F -3.7724 0.1995 -2.8097 0
M  V30 21 C -5.4626 0.2211 -1.1439 0
M  V30 22 F -2.6657 -0.6962 1.7882 0
M  V30 23 C -4.8993 -0.1948 1.1698 0
M  V30 24 C -5.8502 0.0985 0.1912 0
M  V30 25 H 3.0131 0.3822 -1.7515 0
M  V30 26 H 1.3574 0.813 1.4929 0
M  V30 27 H -0.9232 0.7349 0.716 0
M  V30 28 H -6.2033 0.4472 -1.9001 0
M  V30 29 H -5.2065 -0.3025 2.2023 0
M  V30 30 H -6.8893 0.2256 0.467 0
M  V30 END ATOM
M  V30 BEGIN BOND
M  V30 1 1 1 2
M  V30 2 2 2 3
M  V30 3 1 2 4
M  V30 4 1 3 5
M  V30 5 1 3 6
M  V30 6 1 4 7
M  V30 7 2 4 8
M  V30 8 1 6 9
M  V30 9 2 6 10
M  V30 10 1 8 11
M  V30 11 1 11 12
M  V30 12 2 12 13
M  V30 13 1 12 14
M  V30 14 1 14 15
M  V30 15 2 15 16
M  V30 16 1 15 17
M  V30 17 2 17 18
M  V30 18 1 17 19
M  V30 19 1 18 20
M  V30 20 1 18 21
M  V30 21 1 19 22
M  V30 22 2 19 23
M  V30 23 2 21 24
M  V30 24 1 8 10
M  V30 25 1 23 24
M  V30 26 1 10 25
M  V30 27 1 11 26
M  V30 28 1 14 27
M  V30 29 1 21 28
M  V30 30 1 23 29
M  V30 31 1 24 30
M  V30 END BOND
M  V30 END CTAB
M  END
>  <Structure No>
5471

>  <LogS>
-7.3023

>  <MMFF94 Energy>
-32.585

$$$$
Compound 5472
Actelion Java MolfileCreator 2.0

  0  0  0  0  0  0              0 V3000
M  V30 BEGIN CTAB
M  V30 COUNTS 51 51 0 0 0
M  V30 BEGIN ATOM
M  V30 1 S 0.5663 2.8342 0.2427 0
M  V30 2 N -0.954 1.8857 0.1427 0
M  V30 3 N 1.6534 1.5645 -0.3703 0
M  V30 4 C -1.4708 1.8503 -1.2377 0
M  V30 5 C -0.8306 0.5468 0.7457 0
M  V30 6 C 2.3701 0.7262 0.5465 0
M  V30 7 C 1.977 1.5077 -1.7939 0
M  V30 8 C -2.0282 3.1958 -1.6172 0
M  V30 9 C -2.1759 0.0805 1.3125 0
M  V30 10 O 2.428 1.0305 1.7691 0
M  V30 11 O 2.9714 -0.4461 0.0907 0
M  V30 12 C -1.3873 3.9969 -2.577 0
M  V30 13 C -3.2008 3.6628 -1.0009 0
M  V30 14 C -2.0382 -1.283 1.9114 0
M  V30 15 N 3.574 -1.3204 0.968 0
M  V30 16 C -1.9223 5.2411 -2.9232 0
M  V30 17 C -3.7345 4.9068 -1.352 0
M  V30 18 O -1.6545 -1.4084 3.1059 0
M  V30 19 O -2.3115 -2.4083 1.1252 0
M  V30 20 C 4.0225 -2.473 0.5804 0
M  V30 21 C -3.094 5.6958 -2.3104 0
M  V30 22 C -2.0693 -3.7455 1.5528 0
M  V30 23 S 4.7611 -3.5679 1.7909 0
M  V30 24 C 3.8997 -2.9129 -0.8456 0
M  V30 25 C -0.5797 -4.0616 1.4942 0
M  V30 26 C 3.1789 -4.3551 2.2139 0
M  V30 27 H -2.3004 1.1179 -1.3316 0
M  V30 28 H -0.6924 1.5155 -1.9509 0
M  V30 29 H -0.4456 -0.1902 0.0035 0
M  V30 30 H -0.1259 0.5867 1.6042 0
M  V30 31 H 3.0695 1.6445 -1.9376 0
M  V30 32 H 1.4587 2.3125 -2.35 0
M  V30 33 H 1.6744 0.5253 -2.207 0
M  V30 34 H -2.9487 0.0368 0.5173 0
M  V30 35 H -2.5253 0.7975 2.0877 0
M  V30 36 H -0.482 3.66 -3.0622 0
M  V30 37 H -3.7053 3.0584 -0.2567 0
M  V30 38 H -1.4299 5.8521 -3.6691 0
M  V30 39 H -4.6442 5.2583 -0.8805 0
M  V30 40 H -3.511 6.6545 -2.584 0
M  V30 41 H -2.4583 -3.8994 2.582 0
M  V30 42 H -2.6085 -4.4361 0.873 0
M  V30 43 H 2.8311 -2.9346 -1.1358 0
M  V30 44 H 4.4447 -2.2029 -1.5066 0
M  V30 45 H 4.3296 -3.9261 -0.978 0
M  V30 46 H -0.1987 -3.8975 0.4655 0
M  V30 47 H -0.0216 -3.4076 2.1967 0
M  V30 48 H -0.4105 -5.1219 1.7788 0
M  V30 49 H 3.3381 -5.0511 3.0617 0
M  V30 50 H 2.801 -4.9314 1.3412 0
M  V30 51 H 2.4352 -3.5885 2.5162 0
M  V30 END ATOM
M  V30 BEGIN BOND
M  V30 1 1 1 2
M  V30 2 1 1 3
M  V30 3 1 2 4
M  V30 4 1 2 5
M  V30 5 1 3 6
M  V30 6 1 3 7
M  V30 7 1 4 8
M  V30 8 1 5 9
M  V30 9 2 6 10
M  V30 10 1 6 11
M  V30 11 2 8 12
M  V30 12 1 8 13
M  V30 13 1 9 14
M  V30 14 1 11 15
M  V30 15 1 12 16
M  V30 16 2 13 17
M  V30 17 2 14 18
M  V30 18 1 14 19
M  V30 19 2 15 20
M  V30 20 2 16 21
M  V30 21 1 19 22
M  V30 22 1 20 23
M  V30 23 1 20 24
M  V30 24 1 22 25
M  V30 25 1 23 26
M  V30 26 1 17 21
M  V30 27 1 4 27
M  V30 28 1 4 28
M  V30 29 1 5 29
M  V30 30 1 5 30
M  V30 31 1 7 31
M  V30 32 1 7 32
M  V30 33 1 7 33
M  V30 34 1 9 34
M  V30 35 1 9 35
M  V30 36 1 12 36
M  V30 37 1 13 37
M  V30 38 1 16 38
M  V30 39 1 17 39
M  V30 40 1 21 40
M  V30 41 1 22 41
M  V30 42 1 22 42
M  V30 43 1 24 43
M  V30 44 1 24 44
M  V30 45 1 24 45
M  V30 46 1 25 46
M  V30 47 1 25 47
M  V30 48 1 25 48
M  V30 49 1 26 49
M  V30 50 1 26 50
M  V30 51 1 26 51
M  V30 END BOND
M  V30 END CTAB
M  END
>  <Structure No>
5472

>  <LogS>
-4.3005

>  <MMFF94 Energy>
29.369

$$$$
Compound 5473
Actelion Java MolfileCreator 2.0

  0  0  0  0  0  0              0 V3000
M  V30 BEGIN CTAB
M  V30 COUNTS 39 41 0 0 0
M  V30 BEGIN ATOM
M  V30 1 F 1.9696 1.3948 -1.8053 0
M  V30 2 C 3.1382 1.1959 -1.1448 0
M  V30 3 C 3.1502 0.5207 0.0876 0
M  V30 4 C 4.3332 1.6522 -1.7107 0
M  V30 5 N 1.9104 0.0812 0.6659 0
M  V30 6 C 4.3726 0.3438 0.7609 0
M  V30 7 C 5.5456 1.4526 -1.0453 0
M  V30 8 C 1.7327 -1.1925 1.3114 0
M  V30 9 C 5.5642 0.803 0.1916 0
M  V30 10 F 6.702 1.8985 -1.5947 0
M  V30 11 O 2.717 -1.9601 1.4891 0
M  V30 12 C 0.3968 -1.6212 1.779 0
M  V30 13 C -0.7616 -1.4198 1.0012 0
M  V30 14 C 0.2704 -2.2649 3.0196 0
M  V30 15 O -0.6561 -0.8651 -0.2821 0
M  V30 16 N -1.9717 -1.83 1.4768 0
M  V30 17 C -0.9843 -2.6645 3.4792 0
M  V30 18 C -1.7046 -0.2738 -1.0011 0
M  V30 19 C -2.1073 -2.4306 2.6874 0
M  V30 20 C -2.7724 0.3858 -0.364 0
M  V30 21 C -1.6524 -0.302 -2.3983 0
M  V30 22 C -3.8074 0.9667 -1.119 0
M  V30 23 C -2.6613 0.296 -3.1555 0
M  V30 24 C -3.7317 0.9313 -2.522 0
M  V30 25 C -4.9251 1.7107 -0.4322 0
M  V30 26 F -5.2142 1.133 0.792 0
M  V30 27 F -6.075 1.6888 -1.2024 0
M  V30 28 F -4.5421 3.0236 -0.2318 0
M  V30 29 H 4.3188 2.1621 -2.6654 0
M  V30 30 H 1.0781 0.7001 0.5427 0
M  V30 31 H 4.4052 -0.1221 1.7365 0
M  V30 32 H 6.5011 0.6629 0.7151 0
M  V30 33 H 1.1411 -2.4425 3.6391 0
M  V30 34 H -1.0853 -3.1508 4.4409 0
M  V30 35 H -3.0867 -2.7365 3.0296 0
M  V30 36 H -2.7837 0.4768 0.7138 0
M  V30 37 H -0.825 -0.789 -2.8984 0
M  V30 38 H -2.6101 0.273 -4.2364 0
M  V30 39 H -4.4943 1.4033 -3.1285 0
M  V30 END ATOM
M  V30 BEGIN BOND
M  V30 1 1 1 2
M  V30 2 2 2 3
M  V30 3 1 2 4
M  V30 4 1 3 5
M  V30 5 1 3 6
M  V30 6 2 4 7
M  V30 7 1 5 8
M  V30 8 2 6 9
M  V30 9 1 7 10
M  V30 10 2 8 11
M  V30 11 1 8 12
M  V30 12 2 12 13
M  V30 13 1 12 14
M  V30 14 1 13 15
M  V30 15 1 13 16
M  V30 16 2 14 17
M  V30 17 1 15 18
M  V30 18 2 16 19
M  V30 19 2 18 20
M  V30 20 1 18 21
M  V30 21 1 20 22
M  V30 22 2 21 23
M  V30 23 2 22 24
M  V30 24 1 22 25
M  V30 25 1 25 26
M  V30 26 1 25 27
M  V30 27 1 25 28
M  V30 28 1 7 9
M  V30 29 1 17 19
M  V30 30 1 23 24
M  V30 31 1 4 29
M  V30 32 1 5 30
M  V30 33 1 6 31
M  V30 34 1 9 32
M  V30 35 1 14 33
M  V30 36 1 17 34
M  V30 37 1 19 35
M  V30 38 1 20 36
M  V30 39 1 21 37
M  V30 40 1 23 38
M  V30 41 1 24 39
M  V30 END BOND
M  V30 END CTAB
M  END
>  <Structure No>
5473

>  <LogS>
-6.8969

>  <MMFF94 Energy>
77.998

$$$$
Compound 5474
Actelion Java MolfileCreator 2.0

  0  0  0  0  0  0              0 V3000
M  V30 BEGIN CTAB
M  V30 COUNTS 38 39 0 0 0
M  V30 BEGIN ATOM
M  V30 1 Cl 6.0191 -1.442 1.9231 0
M  V30 2 C 4.4961 -1.0853 1.1293 0
M  V30 3 C 4.4435 -0.9636 -0.2628 0
M  V30 4 C 3.3305 -0.933 1.887 0
M  V30 5 C 3.2299 -0.6803 -0.897 0
M  V30 6 C 2.1158 -0.65 1.2557 0
M  V30 7 C 2.0617 -0.4965 -0.1417 0
M  V30 8 C 0.7849 -0.2318 -0.8382 0
M  V30 9 C -0.1599 0.6333 -0.4098 0
M  V30 10 N 0.1133 1.5816 0.6407 0
M  V30 11 C -1.5138 0.692 -1.1039 0 CFG=1
M  V30 12 N -0.7558 1.9401 1.5676 0
M  V30 13 C 1.2127 2.3449 0.7857 0
M  V30 14 O -1.3179 0.7019 -2.4992 0
M  V30 15 C -2.5005 -0.4568 -0.6886 0
M  V30 16 C -0.1489 2.9027 2.2875 0
M  V30 17 N 1.0876 3.19 1.8268 0
M  V30 18 C -3.8716 -0.2104 -1.3581 0
M  V30 19 C -2.7126 -0.4663 0.8409 0
M  V30 20 C -1.9892 -1.8471 -1.1281 0
M  V30 21 H 5.3411 -1.0909 -0.8544 0
M  V30 22 H 3.363 -1.0411 2.9638 0
M  V30 23 H 3.2034 -0.5925 -1.9763 0
M  V30 24 H 1.2185 -0.5624 1.8556 0
M  V30 25 H 0.6051 -0.8043 -1.74 0
M  V30 26 H -1.9818 1.6606 -0.8008 0
M  V30 27 H 2.0794 2.3093 0.1384 0
M  V30 28 H -1.989 1.3188 -2.8931 0
M  V30 29 H -0.6064 3.3999 3.1321 0
M  V30 30 H -4.6144 -0.9706 -1.0318 0
M  V30 31 H -3.791 -0.2714 -2.4644 0
M  V30 32 H -4.2661 0.7934 -1.0893 0
M  V30 33 H -1.7634 -0.6873 1.374 0
M  V30 34 H -3.4495 -1.2465 1.1307 0
M  V30 35 H -3.0971 0.5162 1.1891 0
M  V30 36 H -2.7618 -2.624 -0.94 0
M  V30 37 H -1.7496 -1.8583 -2.2124 0
M  V30 38 H -1.0857 -2.143 -0.5561 0
M  V30 END ATOM
M  V30 BEGIN BOND
M  V30 1 1 1 2
M  V30 2 2 2 3
M  V30 3 1 2 4
M  V30 4 1 3 5
M  V30 5 2 4 6
M  V30 6 2 5 7
M  V30 7 1 7 8
M  V30 8 2 8 9
M  V30 9 1 9 10
M  V30 10 1 9 11
M  V30 11 1 10 12
M  V30 12 1 10 13
M  V30 13 1 11 14
M  V30 14 1 11 15
M  V30 15 2 12 16
M  V30 16 2 13 17
M  V30 17 1 15 18
M  V30 18 1 15 19
M  V30 19 1 15 20
M  V30 20 1 6 7
M  V30 21 1 16 17
M  V30 22 1 3 21
M  V30 23 1 4 22
M  V30 24 1 5 23
M  V30 25 1 6 24
M  V30 26 1 8 25
M  V30 27 1 11 26
M  V30 28 1 13 27
M  V30 29 1 14 28
M  V30 30 1 16 29
M  V30 31 1 18 30
M  V30 32 1 18 31
M  V30 33 1 18 32
M  V30 34 1 19 33
M  V30 35 1 19 34
M  V30 36 1 19 35
M  V30 37 1 20 36
M  V30 38 1 20 37
M  V30 39 1 20 38
M  V30 END BOND
M  V30 BEGIN COLLECTION
M  V30 MDLV30/STEABS ATOMS=(1 11)
M  V30 END COLLECTION
M  V30 END CTAB
M  END
>  <Structure No>
5474

>  <LogS>
-4.5403

>  <MMFF94 Energy>
49.765

$$$$
Compound 5475
Actelion Java MolfileCreator 2.0

  0  0  0  0  0  0              0 V3000
M  V30 BEGIN CTAB
M  V30 COUNTS 38 39 0 0 0
M  V30 BEGIN ATOM
M  V30 1 Cl 6.5018 0.9612 -0.9612 0
M  V30 2 C 4.8807 0.4641 -0.5117 0
M  V30 3 C 4.1581 1.2024 0.431 0
M  V30 4 C 4.313 -0.6768 -1.0877 0
M  V30 5 C 2.8662 0.8068 0.791 0
M  V30 6 C 3.0209 -1.0744 -0.7297 0
M  V30 7 C 2.2783 -0.323 0.1937 0
M  V30 8 C 0.9253 -0.7821 0.574 0
M  V30 9 C -0.1471 0.0249 0.7212 0
M  V30 10 N -0.0805 1.4174 0.3577 0
M  V30 11 C -1.4636 -0.5732 1.2119 0 CFG=1
M  V30 12 N -0.4434 2.4172 1.1396 0
M  V30 13 C 0.3499 1.9333 -0.8079 0
M  V30 14 O -2.0978 0.296 2.1204 0
M  V30 15 C -2.4242 -1.0589 0.062 0
M  V30 16 C -0.2228 3.5376 0.4251 0
M  V30 17 N 0.2749 3.2778 -0.8037 0
M  V30 18 C -2.7489 0.0569 -0.9587 0
M  V30 19 C -3.7477 -1.5607 0.6818 0
M  V30 20 C -1.7791 -2.2383 -0.7009 0
M  V30 21 H 4.5985 2.078 0.8908 0
M  V30 22 H 4.872 -1.2571 -1.8107 0
M  V30 23 H 2.3327 1.3746 1.5428 0
M  V30 24 H 2.5945 -1.9614 -1.1824 0
M  V30 25 H 0.8078 -1.8476 0.7347 0
M  V30 26 H -1.214 -1.4752 1.8156 0
M  V30 27 H 0.7051 1.3483 -1.6466 0
M  V30 28 H -2.5233 1.0301 1.6117 0
M  V30 29 H -0.4227 4.5344 0.7941 0
M  V30 30 H -3.2234 0.9361 -0.478 0
M  V30 31 H -1.835 0.3891 -1.4905 0
M  V30 32 H -3.4562 -0.3196 -1.7292 0
M  V30 33 H -4.2898 -0.7333 1.1877 0
M  V30 34 H -4.4197 -1.9753 -0.1007 0
M  V30 35 H -3.5519 -2.3598 1.4291 0
M  V30 36 H -0.8637 -1.9125 -1.2385 0
M  V30 37 H -2.4815 -2.6497 -1.4581 0
M  V30 38 H -1.5064 -3.0589 -0.0029 0
M  V30 END ATOM
M  V30 BEGIN BOND
M  V30 1 1 1 2
M  V30 2 2 2 3
M  V30 3 1 2 4
M  V30 4 1 3 5
M  V30 5 2 4 6
M  V30 6 2 5 7
M  V30 7 1 7 8
M  V30 8 2 8 9
M  V30 9 1 9 10
M  V30 10 1 9 11
M  V30 11 1 10 12
M  V30 12 1 10 13
M  V30 13 1 11 14
M  V30 14 1 11 15
M  V30 15 2 12 16
M  V30 16 2 13 17
M  V30 17 1 15 18
M  V30 18 1 15 19
M  V30 19 1 15 20
M  V30 20 1 6 7
M  V30 21 1 16 17
M  V30 22 1 3 21
M  V30 23 1 4 22
M  V30 24 1 5 23
M  V30 25 1 6 24
M  V30 26 1 8 25
M  V30 27 1 11 26
M  V30 28 1 13 27
M  V30 29 1 14 28
M  V30 30 1 16 29
M  V30 31 1 18 30
M  V30 32 1 18 31
M  V30 33 1 18 32
M  V30 34 1 19 33
M  V30 35 1 19 34
M  V30 36 1 19 35
M  V30 37 1 20 36
M  V30 38 1 20 37
M  V30 39 1 20 38
M  V30 END BOND
M  V30 BEGIN COLLECTION
M  V30 MDLV30/STEABS ATOMS=(1 11)
M  V30 END COLLECTION
M  V30 END CTAB
M  END
>  <Structure No>
5475

>  <LogS>
-4.5403

>  <MMFF94 Energy>
46.165

$$$$
Compound 5476
Actelion Java MolfileCreator 2.0

  0  0  0  0  0  0              0 V3000
M  V30 BEGIN CTAB
M  V30 COUNTS 38 39 0 0 0
M  V30 BEGIN ATOM
M  V30 1 Cl 2.5995 1.3803 2.1117 0
M  V30 2 C 2.9804 0.9059 0.4593 0
M  V30 3 C 2.2056 -0.0454 -0.2404 0
M  V30 4 C 4.115 1.4592 -0.1464 0
M  V30 5 C 2.6129 -0.4596 -1.5174 0
M  V30 6 C 0.9964 -0.6568 0.3455 0
M  V30 7 C 4.4942 1.0619 -1.432 0
M  V30 8 C 3.7466 0.0981 -2.1135 0
M  V30 9 C -0.0951 0.0407 0.7283 0
M  V30 10 Cl 5.9178 1.7602 -2.1822 0
M  V30 11 N -0.204 1.4551 0.4715 0
M  V30 12 C -1.2667 -0.662 1.4064 0 CFG=2
M  V30 13 N -0.704 2.3284 1.3268 0
M  V30 14 C 0.0772 2.1073 -0.6718 0
M  V30 15 O -0.8168 -1.5899 2.3681 0
M  V30 16 C -2.3261 -1.2612 0.4087 0
M  V30 17 C -0.6945 3.5137 0.6877 0
M  V30 18 N -0.2154 3.4179 -0.5714 0
M  V30 19 C -1.7046 -2.2538 -0.6018 0
M  V30 20 C -2.9969 -0.1178 -0.3866 0
M  V30 21 C -3.4249 -1.9937 1.2099 0
M  V30 22 H 4.7093 2.1906 0.3872 0
M  V30 23 H 2.0404 -1.2025 -2.0598 0
M  V30 24 H 1.0069 -1.7344 0.4351 0
M  V30 25 H 4.0425 -0.2195 -3.1051 0
M  V30 26 H -1.8026 0.1133 1.9954 0
M  V30 27 H 0.4567 1.6425 -1.572 0
M  V30 28 H -0.5398 -2.4205 1.9079 0
M  V30 29 H -1.0425 4.4374 1.1299 0
M  V30 30 H -1.2214 -3.1124 -0.0929 0
M  V30 31 H -0.9548 -1.7512 -1.2478 0
M  V30 32 H -2.491 -2.666 -1.2707 0
M  V30 33 H -3.8081 -0.5121 -1.0366 0
M  V30 34 H -3.4409 0.6351 0.2999 0
M  V30 35 H -2.2626 0.3948 -1.0423 0
M  V30 36 H -3.8906 -1.3095 1.952 0
M  V30 37 H -4.2247 -2.3678 0.5343 0
M  V30 38 H -3.0062 -2.8671 1.7537 0
M  V30 END ATOM
M  V30 BEGIN BOND
M  V30 1 1 1 2
M  V30 2 2 2 3
M  V30 3 1 2 4
M  V30 4 1 3 5
M  V30 5 1 3 6
M  V30 6 2 4 7
M  V30 7 2 5 8
M  V30 8 2 6 9
M  V30 9 1 7 10
M  V30 10 1 9 11
M  V30 11 1 9 12
M  V30 12 1 11 13
M  V30 13 1 11 14
M  V30 14 1 12 15
M  V30 15 1 12 16
M  V30 16 2 13 17
M  V30 17 2 14 18
M  V30 18 1 16 19
M  V30 19 1 16 20
M  V30 20 1 16 21
M  V30 21 1 7 8
M  V30 22 1 17 18
M  V30 23 1 4 22
M  V30 24 1 5 23
M  V30 25 1 6 24
M  V30 26 1 8 25
M  V30 27 1 12 26
M  V30 28 1 14 27
M  V30 29 1 15 28
M  V30 30 1 17 29
M  V30 31 1 19 30
M  V30 32 1 19 31
M  V30 33 1 19 32
M  V30 34 1 20 33
M  V30 35 1 20 34
M  V30 36 1 20 35
M  V30 37 1 21 36
M  V30 38 1 21 37
M  V30 39 1 21 38
M  V30 END BOND
M  V30 BEGIN COLLECTION
M  V30 MDLV30/STEABS ATOMS=(1 12)
M  V30 END COLLECTION
M  V30 END CTAB
M  END
>  <Structure No>
5476

>  <LogS>
-4.9115

>  <MMFF94 Energy>
48.661

$$$$
Compound 5477
Actelion Java MolfileCreator 2.0

  0  0  0  0  0  0              0 V3000
M  V30 BEGIN CTAB
M  V30 COUNTS 21 22 0 0 0
M  V30 BEGIN ATOM
M  V30 1 O -2.4719 -2.9668 0.0823 0
M  V30 2 N -2.2274 -1.8009 0.4559 0 CHG=1
M  V30 3 O -3.1627 -1.1376 1.2165 0 CHG=-1
M  V30 4 C -0.898 -1.2706 0.3297 0
M  V30 5 C -0.6635 0.0766 -0.0343 0
M  V30 6 C 0.1934 -2.1053 0.5994 0
M  V30 7 C 0.6674 0.5759 -0.072 0
M  V30 8 C -1.7119 0.9428 -0.4018 0
M  V30 9 C 1.4973 -1.6172 0.5533 0
M  V30 10 N 0.8814 1.8765 -0.4187 0
M  V30 11 C 1.758 -0.2747 0.2309 0
M  V30 12 C -1.4438 2.2657 -0.7495 0
M  V30 13 C -0.1292 2.7215 -0.7448 0
M  V30 14 C 3.1696 0.2013 0.2098 0
M  V30 15 O 4.1141 -0.6011 0.4365 0
M  V30 16 O 3.4801 1.5304 -0.0527 0 CHG=-1
M  V30 17 H 0.0313 -3.1398 0.8753 0
M  V30 18 H -2.7376 0.6061 -0.4472 0
M  V30 19 H 2.3069 -2.2983 0.7843 0
M  V30 20 H -2.2504 2.9316 -1.0282 0
M  V30 21 H 0.0915 3.7459 -1.0136 0
M  V30 END ATOM
M  V30 BEGIN BOND
M  V30 1 2 1 2
M  V30 2 1 2 3
M  V30 3 1 2 4
M  V30 4 1 4 5
M  V30 5 2 4 6
M  V30 6 1 5 7
M  V30 7 2 5 8
M  V30 8 1 6 9
M  V30 9 2 7 10
M  V30 10 1 7 11
M  V30 11 1 8 12
M  V30 12 1 10 13
M  V30 13 1 11 14
M  V30 14 2 14 15
M  V30 15 1 14 16
M  V30 16 2 9 11
M  V30 17 2 12 13
M  V30 18 1 6 17
M  V30 19 1 8 18
M  V30 20 1 9 19
M  V30 21 1 12 20
M  V30 22 1 13 21
M  V30 END BOND
M  V30 END CTAB
M  END
>  <Structure No>
5477

>  <LogS>
-3.1656

>  <MMFF94 Energy>
72.354

$$$$
Compound 5478
Actelion Java MolfileCreator 2.0

  0  0  0  0  0  0              0 V3000
M  V30 BEGIN CTAB
M  V30 COUNTS 32 33 0 0 0
M  V30 BEGIN ATOM
M  V30 1 Cl 6.2387 -0.8301 -0.6641 0
M  V30 2 C 4.7097 -0.3263 0.0326 0
M  V30 3 C 4.6886 0.3511 1.2555 0
M  V30 4 C 3.5113 -0.6066 -0.6331 0
M  V30 5 C 3.4701 0.7485 1.8142 0
M  V30 6 C 2.2814 -0.212 -0.0792 0
M  V30 7 Cl 3.4456 1.605 3.3451 0
M  V30 8 C 2.2708 0.4682 1.1504 0
M  V30 9 N 1.0492 -0.5003 -0.7629 0
M  V30 10 C 0.7879 -0.4651 -2.1571 0
M  V30 11 C -0.2123 -0.8454 -0.2009 0
M  V30 12 O 1.6436 -0.1533 -3.0265 0
M  V30 13 O -0.5328 -0.7641 -2.4625 0
M  V30 14 O -0.398 -1.0351 1.0314 0
M  V30 15 C -1.268 -1.016 -1.2611 0 CFG=2
M  V30 16 C -2.3689 -0.0058 -1.0895 0
M  V30 17 C -1.8224 -2.442 -1.2772 0
M  V30 18 O -2.708 0.7289 -2.0578 0
M  V30 19 O -3.036 0.0841 0.1385 0
M  V30 20 C -4.041 1.0565 0.4168 0
M  V30 21 C -3.4125 2.4255 0.6503 0
M  V30 22 H 5.6164 0.5681 1.77 0
M  V30 23 H 3.5398 -1.1494 -1.5688 0
M  V30 24 H 1.3362 0.8001 1.5835 0
M  V30 25 H -2.3425 -2.6701 -0.3218 0
M  V30 26 H -0.9981 -3.1738 -1.418 0
M  V30 27 H -2.5434 -2.5605 -2.1142 0
M  V30 28 H -4.583 0.7515 1.3366 0
M  V30 29 H -4.7755 1.1051 -0.4163 0
M  V30 30 H -2.9 2.7781 -0.2689 0
M  V30 31 H -2.675 2.3671 1.4786 0
M  V30 32 H -4.202 3.1577 0.9217 0
M  V30 END ATOM
M  V30 BEGIN BOND
M  V30 1 1 1 2
M  V30 2 2 2 3
M  V30 3 1 2 4
M  V30 4 1 3 5
M  V30 5 2 4 6
M  V30 6 1 5 7
M  V30 7 2 5 8
M  V30 8 1 6 9
M  V30 9 1 9 10
M  V30 10 1 9 11
M  V30 11 2 10 12
M  V30 12 1 10 13
M  V30 13 2 11 14
M  V30 14 1 11 15
M  V30 15 1 15 16
M  V30 16 1 15 17
M  V30 17 2 16 18
M  V30 18 1 16 19
M  V30 19 1 19 20
M  V30 20 1 20 21
M  V30 21 1 6 8
M  V30 22 1 13 15
M  V30 23 1 3 22
M  V30 24 1 4 23
M  V30 25 1 8 24
M  V30 26 1 17 25
M  V30 27 1 17 26
M  V30 28 1 17 27
M  V30 29 1 20 28
M  V30 30 1 20 29
M  V30 31 1 21 30
M  V30 32 1 21 31
M  V30 33 1 21 32
M  V30 END BOND
M  V30 BEGIN COLLECTION
M  V30 MDLV30/STEABS ATOMS=(1 15)
M  V30 END COLLECTION
M  V30 END CTAB
M  END
>  <Structure No>
5478

>  <LogS>
-5.2203

>  <MMFF94 Energy>
-22.919

$$$$
Compound 5479
Actelion Java MolfileCreator 2.0

  0  0  0  0  0  0              0 V3000
M  V30 BEGIN CTAB
M  V30 COUNTS 26 27 0 0 0
M  V30 BEGIN ATOM
M  V30 1 O -1.6622 0.0 -0.9495 0
M  V30 2 C -0.8658 1.1632 -1.0357 0
M  V30 3 C -2.9527 0.3151 -0.4618 0
M  V30 4 N 0.5082 0.7767 -1.3322 0
M  V30 5 C -3.0263 0.0489 1.0427 0
M  V30 6 C 1.4286 0.2973 -0.489 0
M  V30 7 C 1.1075 0.6989 -2.5481 0
M  V30 8 O -4.3167 0.3148 1.5213 0
M  V30 9 N 1.3169 0.1225 0.8498 0
M  V30 10 C 2.5426 -0.0338 -1.1786 0
M  V30 11 N 2.3768 0.2061 -2.4928 0
M  V30 12 C 2.3893 -0.4027 1.5185 0
M  V30 13 C 3.6356 -0.569 -0.515 0
M  V30 14 N 3.5324 -0.7419 0.8364 0
M  V30 15 N 2.3183 -0.6014 2.9283 0
M  V30 16 H -1.2428 1.8244 -1.8483 0
M  V30 17 H -0.8751 1.7359 -0.0799 0
M  V30 18 H -3.2733 1.3614 -0.6839 0
M  V30 19 H -3.6803 -0.3512 -0.9719 0
M  V30 20 H -2.7412 -1.006 1.2584 0
M  V30 21 H -2.3104 0.7106 1.5735 0
M  V30 22 H 0.6241 0.986 -3.4732 0
M  V30 23 H -4.8837 -0.4546 1.2527 0
M  V30 24 H 4.538 -0.8468 -1.0428 0
M  V30 25 H 1.4527 -0.348 3.4549 0
M  V30 26 H 3.1308 -1.0024 3.4471 0
M  V30 END ATOM
M  V30 BEGIN BOND
M  V30 1 1 1 2
M  V30 2 1 1 3
M  V30 3 1 2 4
M  V30 4 1 3 5
M  V30 5 1 4 6
M  V30 6 1 4 7
M  V30 7 1 5 8
M  V30 8 2 6 9
M  V30 9 1 6 10
M  V30 10 2 7 11
M  V30 11 1 9 12
M  V30 12 2 10 13
M  V30 13 2 12 14
M  V30 14 1 12 15
M  V30 15 1 10 11
M  V30 16 1 13 14
M  V30 17 1 2 16
M  V30 18 1 2 17
M  V30 19 1 3 18
M  V30 20 1 3 19
M  V30 21 1 5 20
M  V30 22 1 5 21
M  V30 23 1 7 22
M  V30 24 1 8 23
M  V30 25 1 13 24
M  V30 26 1 15 25
M  V30 27 1 15 26
M  V30 END BOND
M  V30 END CTAB
M  END
>  <Structure No>
5479

>  <LogS>
-1.0775

>  <MMFF94 Energy>
-34.311

$$$$
Compound 5480
Actelion Java MolfileCreator 2.0

  0  0  0  0  0  0              0 V3000
M  V30 BEGIN CTAB
M  V30 COUNTS 36 37 0 0 0
M  V30 BEGIN ATOM
M  V30 1 Cl -2.6116 0.4892 -2.775 0
M  V30 2 C -2.7895 0.2971 -1.0285 0
M  V30 3 C -1.9803 -0.6487 -0.3764 0
M  V30 4 C -3.7271 1.0659 -0.298 0
M  V30 5 O -1.0489 -1.3752 -1.1397 0
M  V30 6 C -2.1263 -0.8442 1.0075 0
M  V30 7 C -3.8774 0.8286 1.0869 0
M  V30 8 C -4.607 2.069 -1.0049 0
M  V30 9 C -0.0787 -2.2881 -0.622 0 CFG=2
M  V30 10 C -3.0708 -0.115 1.7265 0
M  V30 11 Cl -5.0766 1.6761 2.0611 0
M  V30 12 C 0.9605 -1.555 0.1839 0
M  V30 13 C 0.5884 -3.0156 -1.7853 0
M  V30 14 O 1.3003 -2.0119 1.3088 0
M  V30 15 N 1.5448 -0.3419 -0.3198 0
M  V30 16 C 2.6495 0.3369 0.3005 0
M  V30 17 C 2.7059 1.7392 0.2591 0
M  V30 18 C 3.7079 -0.3742 0.8962 0
M  V30 19 C 3.7814 2.4215 0.8363 0
M  V30 20 C 4.7824 0.3119 1.4714 0
M  V30 21 C 4.8169 1.7086 1.4457 0
M  V30 22 H -1.5254 -1.5679 1.539 0
M  V30 23 H -5.5012 1.554 -1.4136 0
M  V30 24 H -4.062 2.5674 -1.8326 0
M  V30 25 H -4.935 2.8808 -0.3244 0
M  V30 26 H -0.587 -3.052 0.0073 0
M  V30 27 H -3.1809 -0.2917 2.7891 0
M  V30 28 H -0.1765 -3.5721 -2.3672 0
M  V30 29 H 1.3395 -3.7413 -1.4057 0
M  V30 30 H 1.0913 -2.2912 -2.4617 0
M  V30 31 H 1.0801 0.1252 -1.1312 0
M  V30 32 H 1.9098 2.3026 -0.2116 0
M  V30 33 H 3.7196 -1.4558 0.8947 0
M  V30 34 H 3.8129 3.5032 0.8091 0
M  V30 35 H 5.5932 -0.2399 1.9291 0
M  V30 36 H 5.6501 2.2378 1.89 0
M  V30 END ATOM
M  V30 BEGIN BOND
M  V30 1 1 1 2
M  V30 2 2 2 3
M  V30 3 1 2 4
M  V30 4 1 3 5
M  V30 5 1 3 6
M  V30 6 2 4 7
M  V30 7 1 4 8
M  V30 8 1 5 9
M  V30 9 2 6 10
M  V30 10 1 7 11
M  V30 11 1 9 12
M  V30 12 1 9 13
M  V30 13 2 12 14
M  V30 14 1 12 15
M  V30 15 1 15 16
M  V30 16 2 16 17
M  V30 17 1 16 18
M  V30 18 1 17 19
M  V30 19 2 18 20
M  V30 20 2 19 21
M  V30 21 1 7 10
M  V30 22 1 20 21
M  V30 23 1 6 22
M  V30 24 1 8 23
M  V30 25 1 8 24
M  V30 26 1 8 25
M  V30 27 1 9 26
M  V30 28 1 10 27
M  V30 29 1 13 28
M  V30 30 1 13 29
M  V30 31 1 13 30
M  V30 32 1 15 31
M  V30 33 1 17 32
M  V30 34 1 18 33
M  V30 35 1 19 34
M  V30 36 1 20 35
M  V30 37 1 21 36
M  V30 END BOND
M  V30 BEGIN COLLECTION
M  V30 MDLV30/STEABS ATOMS=(1 9)
M  V30 END COLLECTION
M  V30 END CTAB
M  END
>  <Structure No>
5480

>  <LogS>
-7.0057

>  <MMFF94 Energy>
58.088

$$$$
Compound 5481
Actelion Java MolfileCreator 2.0

  0  0  0  0  0  0              0 V3000
M  V30 BEGIN CTAB
M  V30 COUNTS 35 34 0 0 0
M  V30 BEGIN ATOM
M  V30 1 S 1.2139 -2.3479 1.2139 0 CFG=1
M  V30 2 S -0.5427 -1.3795 1.9194 0
M  V30 3 O 0.7724 -3.7644 0.8692 0
M  V30 4 C 1.5982 -1.5648 -0.3742 0
M  V30 5 C -1.6689 -2.0793 0.6582 0
M  V30 6 C 2.9961 -0.9334 -0.3704 0
M  V30 7 C -3.012 -1.3329 0.6399 0
M  V30 8 C 3.1987 0.179 0.6791 0
M  V30 9 C -3.0487 -0.1524 -0.3466 0
M  V30 10 C 2.1996 1.3465 0.5974 0
M  V30 11 C -2.1175 0.9975 0.0583 0
M  V30 12 C 2.2151 2.0585 -0.7543 0
M  V30 13 C -2.3033 2.207 -0.8524 0
M  V30 14 H 1.5625 -2.3386 -1.1701 0
M  V30 15 H 0.8337 -0.8035 -0.6262 0
M  V30 16 H -1.855 -3.1406 0.9277 0
M  V30 17 H -1.2052 -2.0624 -0.3497 0
M  V30 18 H 3.7452 -1.733 -0.1822 0
M  V30 19 H 3.2107 -0.5297 -1.3826 0
M  V30 20 H -3.7991 -2.0519 0.3241 0
M  V30 21 H -3.2853 -0.9895 1.6617 0
M  V30 22 H 4.2282 0.5826 0.5648 0
M  V30 23 H 3.1427 -0.2622 1.6971 0
M  V30 24 H -2.7835 -0.5088 -1.3663 0
M  V30 25 H -4.0935 0.2267 -0.3855 0
M  V30 26 H 2.4675 2.0859 1.383 0
M  V30 27 H 1.1734 0.9946 0.8256 0
M  V30 28 H -1.0626 0.6673 -0.0199 0
M  V30 29 H -2.3225 1.3007 1.1081 0
M  V30 30 H 1.5771 2.9658 -0.7002 0
M  V30 31 H 3.2489 2.366 -1.0188 0
M  V30 32 H 1.8081 1.3997 -1.5491 0
M  V30 33 H -1.6025 3.0126 -0.5471 0
M  V30 34 H -2.0894 1.9318 -1.9072 0
M  V30 35 H -3.3425 2.5924 -0.7763 0
M  V30 END ATOM
M  V30 BEGIN BOND
M  V30 1 1 1 2
M  V30 2 2 1 3
M  V30 3 1 1 4
M  V30 4 1 2 5
M  V30 5 1 4 6
M  V30 6 1 5 7
M  V30 7 1 6 8
M  V30 8 1 7 9
M  V30 9 1 8 10
M  V30 10 1 9 11
M  V30 11 1 10 12
M  V30 12 1 11 13
M  V30 13 1 4 14
M  V30 14 1 4 15
M  V30 15 1 5 16
M  V30 16 1 5 17
M  V30 17 1 6 18
M  V30 18 1 6 19
M  V30 19 1 7 20
M  V30 20 1 7 21
M  V30 21 1 8 22
M  V30 22 1 8 23
M  V30 23 1 9 24
M  V30 24 1 9 25
M  V30 25 1 10 26
M  V30 26 1 10 27
M  V30 27 1 11 28
M  V30 28 1 11 29
M  V30 29 1 12 30
M  V30 30 1 12 31
M  V30 31 1 12 32
M  V30 32 1 13 33
M  V30 33 1 13 34
M  V30 34 1 13 35
M  V30 END BOND
M  V30 BEGIN COLLECTION
M  V30 MDLV30/STEABS ATOMS=(1 1)
M  V30 END COLLECTION
M  V30 END CTAB
M  END
>  <Structure No>
5481

>  <LogS>
-3.1711

>  <MMFF94 Energy>
-3.9848

$$$$
Compound 5482
Actelion Java MolfileCreator 2.0

  0  0  0  0  0  0              0 V3000
M  V30 BEGIN CTAB
M  V30 COUNTS 20 19 0 0 0
M  V30 BEGIN ATOM
M  V30 1 O 3.0139 1.7766 -0.2315 0
M  V30 2 C 3.0297 0.6694 0.2826 0
M  V30 3 C 1.749 -0.0628 0.5501 0
M  V30 4 C 1.0376 -0.4168 -0.7631 0
M  V30 5 C -0.1898 -1.3194 -0.5492 0
M  V30 6 C -1.3493 -0.6182 0.1667 0
M  V30 7 O -1.7609 0.5096 -0.5773 0
M  V30 8 C -2.8005 1.1689 0.1094 0
M  V30 9 H 3.9783 0.2208 0.5589 0
M  V30 10 H 1.9808 -0.9927 1.1129 0
M  V30 11 H 1.1007 0.58 1.1819 0
M  V30 12 H 1.7506 -0.9622 -1.4203 0
M  V30 13 H 0.738 0.5125 -1.295 0
M  V30 14 H 0.106 -2.2219 0.0287 0
M  V30 15 H -0.549 -1.6667 -1.5424 0
M  V30 16 H -2.1856 -1.3491 0.2518 0
M  V30 17 H -1.0293 -0.3327 1.1941 0
M  V30 18 H -2.4509 1.5549 1.0928 0
M  V30 19 H -3.6826 0.5035 0.2436 0
M  V30 20 H -3.1267 2.0398 -0.4951 0
M  V30 END ATOM
M  V30 BEGIN BOND
M  V30 1 2 1 2
M  V30 2 1 2 3
M  V30 3 1 3 4
M  V30 4 1 4 5
M  V30 5 1 5 6
M  V30 6 1 6 7
M  V30 7 1 7 8
M  V30 8 1 2 9
M  V30 9 1 3 10
M  V30 10 1 3 11
M  V30 11 1 4 12
M  V30 12 1 4 13
M  V30 13 1 5 14
M  V30 14 1 5 15
M  V30 15 1 6 16
M  V30 16 1 6 17
M  V30 17 1 8 18
M  V30 18 1 8 19
M  V30 19 1 8 20
M  V30 END BOND
M  V30 END CTAB
M  END
>  <Structure No>
5482

>  <LogS>
0.4574

>  <MMFF94 Energy>
6.5709

$$$$
Compound 5483
Actelion Java MolfileCreator 2.0

  0  0  0  0  0  0              0 V3000
M  V30 BEGIN CTAB
M  V30 COUNTS 24 24 0 0 0
M  V30 BEGIN ATOM
M  V30 1 Cl -0.7399 -2.9623 0.0 0
M  V30 2 C -1.6638 -1.4636 -0.0198 0
M  V30 3 C -1.2901 -0.3531 0.7677 0
M  V30 4 C -2.7933 -1.3872 -0.8439 0
M  V30 5 C -2.0598 0.8215 0.7051 0
M  V30 6 C -0.0686 -0.3987 1.6515 0
M  V30 7 C -3.5527 -0.2148 -0.8944 0
M  V30 8 C -3.1849 0.8883 -0.1204 0
M  V30 9 O 1.1168 -0.4744 0.8626 0
M  V30 10 Cl -4.9652 -0.1277 -1.9309 0
M  V30 11 C 1.6036 0.5944 0.1023 0
M  V30 12 O 1.0347 1.7198 0.1318 0
M  V30 13 C 2.8419 0.4099 -0.7143 0
M  V30 14 C 4.0835 0.6765 0.1278 0
M  V30 15 H -3.0801 -2.2395 -1.447 0
M  V30 16 H -1.7883 1.689 1.2938 0
M  V30 17 H -0.1238 -1.2965 2.302 0
M  V30 18 H -0.0156 0.4842 2.3257 0
M  V30 19 H -3.7688 1.7991 -0.1586 0
M  V30 20 H 2.875 -0.6309 -1.1015 0
M  V30 21 H 2.8274 1.1027 -1.5834 0
M  V30 22 H 4.1246 -0.0259 0.9878 0
M  V30 23 H 4.0753 1.7209 0.5071 0
M  V30 24 H 4.992 0.5311 -0.4935 0
M  V30 END ATOM
M  V30 BEGIN BOND
M  V30 1 1 1 2
M  V30 2 2 2 3
M  V30 3 1 2 4
M  V30 4 1 3 5
M  V30 5 1 3 6
M  V30 6 2 4 7
M  V30 7 2 5 8
M  V30 8 1 6 9
M  V30 9 1 7 10
M  V30 10 1 9 11
M  V30 11 2 11 12
M  V30 12 1 11 13
M  V30 13 1 13 14
M  V30 14 1 7 8
M  V30 15 1 4 15
M  V30 16 1 5 16
M  V30 17 1 6 17
M  V30 18 1 6 18
M  V30 19 1 8 19
M  V30 20 1 13 20
M  V30 21 1 13 21
M  V30 22 1 14 22
M  V30 23 1 14 23
M  V30 24 1 14 24
M  V30 END BOND
M  V30 END CTAB
M  END
>  <Structure No>
5483

>  <LogS>
-3.0665

>  <MMFF94 Energy>
-3.1638

$$$$
Compound 5484
Actelion Java MolfileCreator 2.0

  0  0  0  0  0  0              0 V3000
M  V30 BEGIN CTAB
M  V30 COUNTS 41 41 0 0 0
M  V30 BEGIN ATOM
M  V30 1 S 1.5951 0.558 2.0741 0
M  V30 2 C 0.5488 1.0514 0.6951 0
M  V30 3 C 1.858 -1.1464 1.4766 0
M  V30 4 O 1.1019 1.5191 -0.3359 0
M  V30 5 N -0.8913 0.9427 0.7642 0
M  V30 6 C 2.8763 -1.1679 0.3708 0
M  V30 7 C -1.6792 0.8784 -0.4895 0 CFG=1
M  V30 8 C -1.5625 0.9953 2.0766 0
M  V30 9 C 2.474 -1.3018 -0.9688 0
M  V30 10 C 4.2413 -1.0195 0.6676 0
M  V30 11 C -2.6124 -0.3725 -0.5412 0
M  V30 12 C -2.4529 2.1924 -0.6761 0
M  V30 13 C -1.399 2.3687 2.7259 0
M  V30 14 C 3.4251 -1.2969 -1.9935 0
M  V30 15 C 5.1893 -1.0161 -0.36 0
M  V30 16 C -3.2493 -0.5442 -1.9312 0
M  V30 17 C -1.8503 -1.6558 -0.1761 0
M  V30 18 C 4.7817 -1.1554 -1.6894 0
M  V30 19 H 0.8967 -1.5931 1.148 0
M  V30 20 H 2.2263 -1.76 2.3257 0
M  V30 21 H -0.9855 0.792 -1.3557 0
M  V30 22 H -1.1526 0.2087 2.745 0
M  V30 23 H -2.6488 0.7996 1.979 0
M  V30 24 H 1.4265 -1.4037 -1.2206 0
M  V30 25 H 4.5689 -0.9047 1.6936 0
M  V30 26 H -3.445 -0.2547 0.1844 0
M  V30 27 H -2.8475 2.2751 -1.7095 0
M  V30 28 H -3.2974 2.2604 0.0415 0
M  V30 29 H -1.7733 3.0556 -0.5117 0
M  V30 30 H -0.3296 2.5941 2.9143 0
M  V30 31 H -1.9373 2.3861 3.6969 0
M  V30 32 H -1.8252 3.1567 2.0709 0
M  V30 33 H 3.11 -1.4003 -3.0236 0
M  V30 34 H 6.24 -0.9029 -0.1259 0
M  V30 35 H -3.8591 -1.4724 -1.9653 0
M  V30 36 H -3.932 0.2997 -2.1589 0
M  V30 37 H -2.4677 -0.6045 -2.7184 0
M  V30 38 H -2.5142 -2.5416 -0.2705 0
M  V30 39 H -0.9749 -1.7937 -0.8447 0
M  V30 40 H -1.5048 -1.6186 0.8768 0
M  V30 41 H 5.5166 -1.1511 -2.4839 0
M  V30 END ATOM
M  V30 BEGIN BOND
M  V30 1 1 1 2
M  V30 2 1 1 3
M  V30 3 2 2 4
M  V30 4 1 2 5
M  V30 5 1 3 6
M  V30 6 1 5 7
M  V30 7 1 5 8
M  V30 8 2 6 9
M  V30 9 1 6 10
M  V30 10 1 7 11
M  V30 11 1 7 12
M  V30 12 1 8 13
M  V30 13 1 9 14
M  V30 14 2 10 15
M  V30 15 1 11 16
M  V30 16 1 11 17
M  V30 17 2 14 18
M  V30 18 1 15 18
M  V30 19 1 3 19
M  V30 20 1 3 20
M  V30 21 1 7 21
M  V30 22 1 8 22
M  V30 23 1 8 23
M  V30 24 1 9 24
M  V30 25 1 10 25
M  V30 26 1 11 26
M  V30 27 1 12 27
M  V30 28 1 12 28
M  V30 29 1 12 29
M  V30 30 1 13 30
M  V30 31 1 13 31
M  V30 32 1 13 32
M  V30 33 1 14 33
M  V30 34 1 15 34
M  V30 35 1 16 35
M  V30 36 1 16 36
M  V30 37 1 16 37
M  V30 38 1 17 38
M  V30 39 1 17 39
M  V30 40 1 17 40
M  V30 41 1 18 41
M  V30 END BOND
M  V30 BEGIN COLLECTION
M  V30 MDLV30/STEABS ATOMS=(1 7)
M  V30 END COLLECTION
M  V30 END CTAB
M  END
>  <Structure No>
5484

>  <LogS>
-4.7337

>  <MMFF94 Energy>
-15.508

$$$$
Compound 5485
Actelion Java MolfileCreator 2.0

  0  0  0  0  0  0              0 V3000
M  V30 BEGIN CTAB
M  V30 COUNTS 42 43 0 0 0
M  V30 BEGIN ATOM
M  V30 1 S 3.0112 0.5849 -2.4251 0
M  V30 2 O 4.4889 0.4299 -2.2015 0
M  V30 3 O 2.7939 1.5183 -3.583 0
M  V30 4 N 2.3177 -0.9532 -2.8277 0 CHG=-1
M  V30 5 C 2.2635 1.2393 -0.9518 0
M  V30 6 C 0.9213 -1.2326 -2.7024 0
M  V30 7 C 1.9922 0.4419 0.1956 0
M  V30 8 C 1.8286 2.5756 -0.975 0
M  V30 9 O 0.522 -2.4237 -2.7848 0
M  V30 10 N -0.0182 -0.177 -2.4684 0
M  V30 11 C 2.4477 -0.9619 0.3311 0
M  V30 12 C 1.2485 1.0007 1.2522 0
M  V30 13 C 1.1103 3.1129 0.0929 0
M  V30 14 C -0.9909 -0.2402 -1.42 0
M  V30 15 O 1.7576 -1.7806 1.0 0
M  V30 16 O 3.6529 -1.3746 -0.2421 0
M  V30 17 C 0.8097 2.3235 1.1987 0
M  V30 18 N -1.0787 -1.3373 -0.6218 0
M  V30 19 N -1.7779 0.838 -1.1702 0
M  V30 20 C 4.1232 -2.7146 -0.1618 0
M  V30 21 C -1.9439 -1.3899 0.4226 0
M  V30 22 C -2.6669 0.8473 -0.1435 0
M  V30 23 O -1.9736 -2.5544 1.2043 0
M  V30 24 C -2.7681 -0.2828 0.6848 0
M  V30 25 O -3.4475 1.9968 0.0514 0
M  V30 26 C -2.7999 -2.745 2.3489 0
M  V30 27 C -4.4357 2.147 1.0674 0
M  V30 28 F -2.6324 -4.0337 2.8173 0
M  V30 29 F -2.4401 -1.8548 3.3447 0
M  V30 30 F -4.9403 3.4321 1.0215 0
M  V30 31 F -5.4685 1.251 0.8568 0
M  V30 32 H 2.0249 3.2039 -1.8336 0
M  V30 33 H 0.1275 0.7379 -2.9516 0
M  V30 34 H 1.0134 0.4137 2.1315 0
M  V30 35 H 0.7719 4.1403 0.0556 0
M  V30 36 H 0.2408 2.7391 2.0208 0
M  V30 37 H 4.2881 -2.9967 0.8995 0
M  V30 38 H 5.0846 -2.7955 -0.709 0
M  V30 39 H 3.3866 -3.4044 -0.6253 0
M  V30 40 H -3.4644 -0.2994 1.5093 0
M  V30 41 H -3.8673 -2.6009 2.0796 0
M  V30 42 H -3.9862 1.9792 2.0683 0
M  V30 END ATOM
M  V30 BEGIN BOND
M  V30 1 2 1 2
M  V30 2 2 1 3
M  V30 3 1 1 4
M  V30 4 1 1 5
M  V30 5 1 4 6
M  V30 6 2 5 7
M  V30 7 1 5 8
M  V30 8 2 6 9
M  V30 9 1 6 10
M  V30 10 1 7 11
M  V30 11 1 7 12
M  V30 12 2 8 13
M  V30 13 1 10 14
M  V30 14 2 11 15
M  V30 15 1 11 16
M  V30 16 2 12 17
M  V30 17 2 14 18
M  V30 18 1 14 19
M  V30 19 1 16 20
M  V30 20 1 18 21
M  V30 21 2 19 22
M  V30 22 1 21 23
M  V30 23 2 21 24
M  V30 24 1 22 25
M  V30 25 1 23 26
M  V30 26 1 25 27
M  V30 27 1 26 28
M  V30 28 1 26 29
M  V30 29 1 27 30
M  V30 30 1 27 31
M  V30 31 1 13 17
M  V30 32 1 22 24
M  V30 33 1 8 32
M  V30 34 1 10 33
M  V30 35 1 12 34
M  V30 36 1 13 35
M  V30 37 1 17 36
M  V30 38 1 20 37
M  V30 39 1 20 38
M  V30 40 1 20 39
M  V30 41 1 24 40
M  V30 42 1 26 41
M  V30 43 1 27 42
M  V30 END BOND
M  V30 END CTAB
M  END
>  <Structure No>
5485

>  <LogS>
-5.152

>  <MMFF94 Energy>
-138.53

$$$$
Compound 5486
Actelion Java MolfileCreator 2.0

  0  0  0  0  0  0              0 V3000
M  V30 BEGIN CTAB
M  V30 COUNTS 38 40 0 0 0
M  V30 BEGIN ATOM
M  V30 1 Cl -1.5978 0.9248 -3.6188 0
M  V30 2 C -1.7278 1.5855 -1.9956 0
M  V30 3 C -1.7998 0.7364 -0.8784 0
M  V30 4 C -1.729 2.9745 -1.8212 0
M  V30 5 N -1.7951 -0.6866 -1.0655 0
M  V30 6 C -1.9248 1.2942 0.4056 0
M  V30 7 C -1.8216 3.5222 -0.5374 0
M  V30 8 C -0.9892 -1.5251 -0.4785 0
M  V30 9 C -1.9258 2.6813 0.5743 0
M  V30 10 Cl -1.8178 5.2631 -0.3226 0
M  V30 11 S 0.321 -0.9756 0.6324 0
M  V30 12 C -1.1317 -2.9893 -0.7505 0
M  V30 13 C 1.5013 -0.6114 -0.7097 0
M  V30 14 N -1.8004 -3.6379 0.3712 0
M  V30 15 C 2.4561 0.4494 -0.2482 0
M  V30 16 N -1.1785 -4.1996 1.3907 0
M  V30 17 C -3.1227 -3.6916 0.5982 0
M  V30 18 C 2.1021 1.8055 -0.3488 0
M  V30 19 C 3.6816 0.099 0.3402 0
M  V30 20 C -2.1542 -4.6087 2.2255 0
M  V30 21 N -3.3894 -4.3068 1.7664 0
M  V30 22 C 2.9712 2.7969 0.1153 0
M  V30 23 C 4.5488 1.093 0.8048 0
M  V30 24 C 4.1944 2.4416 0.6937 0
M  V30 25 Cl 5.2814 3.6861 1.2819 0
M  V30 26 H -1.6569 3.6271 -2.6819 0
M  V30 27 H -2.0256 0.6551 1.2734 0
M  V30 28 H -2.0108 3.1009 1.5685 0
M  V30 29 H -1.7146 -3.1569 -1.6829 0
M  V30 30 H -0.1261 -3.438 -0.8987 0
M  V30 31 H 0.9744 -0.2545 -1.6212 0
M  V30 32 H 2.0441 -1.543 -0.9774 0
M  V30 33 H -3.8778 -3.2855 -0.0627 0
M  V30 34 H 1.1529 2.0937 -0.7838 0
M  V30 35 H 3.9639 -0.9414 0.4415 0
M  V30 36 H -1.969 -5.1148 3.1631 0
M  V30 37 H 2.6926 3.8399 0.0269 0
M  V30 38 H 5.4935 0.8139 1.2534 0
M  V30 END ATOM
M  V30 BEGIN BOND
M  V30 1 1 1 2
M  V30 2 2 2 3
M  V30 3 1 2 4
M  V30 4 1 3 5
M  V30 5 1 3 6
M  V30 6 2 4 7
M  V30 7 2 5 8
M  V30 8 2 6 9
M  V30 9 1 7 10
M  V30 10 1 8 11
M  V30 11 1 8 12
M  V30 12 1 11 13
M  V30 13 1 12 14
M  V30 14 1 13 15
M  V30 15 1 14 16
M  V30 16 1 14 17
M  V30 17 2 15 18
M  V30 18 1 15 19
M  V30 19 2 16 20
M  V30 20 2 17 21
M  V30 21 1 18 22
M  V30 22 2 19 23
M  V30 23 2 22 24
M  V30 24 1 24 25
M  V30 25 1 7 9
M  V30 26 1 20 21
M  V30 27 1 23 24
M  V30 28 1 4 26
M  V30 29 1 6 27
M  V30 30 1 9 28
M  V30 31 1 12 29
M  V30 32 1 12 30
M  V30 33 1 13 31
M  V30 34 1 13 32
M  V30 35 1 17 33
M  V30 36 1 18 34
M  V30 37 1 19 35
M  V30 38 1 20 36
M  V30 39 1 22 37
M  V30 40 1 23 38
M  V30 END BOND
M  V30 END CTAB
M  END
>  <Structure No>
5486

>  <LogS>
-5.3842

>  <MMFF94 Energy>
46.563

$$$$
Compound 5487
Actelion Java MolfileCreator 2.0

  0  0  0  0  0  0              0 V3000
M  V30 BEGIN CTAB
M  V30 COUNTS 41 41 0 0 0
M  V30 BEGIN ATOM
M  V30 1 Cl -0.2383 -0.4767 4.9353 0
M  V30 2 C -0.7937 -0.194 3.2629 0
M  V30 3 C 0.3552 -0.1851 2.2891 0
M  V30 4 O 1.5036 0.1421 2.6972 0
M  V30 5 N 0.152 -0.4739 0.8883 0
M  V30 6 C -1.1637 -0.7586 0.3782 0
M  V30 7 C 1.2952 -0.5098 -0.028 0
M  V30 8 C -2.0374 0.2951 0.0156 0
M  V30 9 C -1.5937 -2.1 0.259 0
M  V30 10 O 1.8433 0.7877 -0.1402 0
M  V30 11 C -3.3184 -0.0101 -0.4715 0
M  V30 12 C -1.6091 1.7427 0.0746 0
M  V30 13 C -2.8778 -2.3749 -0.235 0
M  V30 14 C -0.6814 -3.2364 0.6334 0
M  V30 15 C 2.9583 0.7932 -1.0159 0
M  V30 16 C -3.7343 -1.3351 -0.5934 0
M  V30 17 C -1.1573 2.2278 -1.2989 0
M  V30 18 C 2.5243 1.2859 -2.3989 0
M  V30 19 C 4.0224 1.7241 -0.4363 0
M  V30 20 H -1.5112 -1.0011 3.0097 0
M  V30 21 H -1.3202 0.7817 3.2163 0
M  V30 22 H 2.0488 -1.2217 0.3796 0
M  V30 23 H 0.9699 -0.8801 -1.0277 0
M  V30 24 H -3.9948 0.783 -0.7664 0
M  V30 25 H -2.4585 2.3714 0.4205 0
M  V30 26 H -0.7859 1.8941 0.8027 0
M  V30 27 H -3.2195 -3.397 -0.3426 0
M  V30 28 H 0.1485 -3.3044 -0.1001 0
M  V30 29 H -1.222 -4.2068 0.6445 0
M  V30 30 H -0.2606 -3.0704 1.6474 0
M  V30 31 H 3.4358 -0.21 -1.1337 0
M  V30 32 H -4.7233 -1.5572 -0.9732 0
M  V30 33 H -0.7817 3.2698 -1.2223 0
M  V30 34 H -0.3438 1.5818 -1.6873 0
M  V30 35 H -2.0075 2.2073 -2.0135 0
M  V30 36 H 1.7745 0.5913 -2.8322 0
M  V30 37 H 2.0729 2.2989 -2.3269 0
M  V30 38 H 3.3969 1.3262 -3.0853 0
M  V30 39 H 4.9143 1.7534 -1.0983 0
M  V30 40 H 4.3383 1.3541 0.5623 0
M  V30 41 H 3.6196 2.7537 -0.3224 0
M  V30 END ATOM
M  V30 BEGIN BOND
M  V30 1 1 1 2
M  V30 2 1 2 3
M  V30 3 2 3 4
M  V30 4 1 3 5
M  V30 5 1 5 6
M  V30 6 1 5 7
M  V30 7 2 6 8
M  V30 8 1 6 9
M  V30 9 1 7 10
M  V30 10 1 8 11
M  V30 11 1 8 12
M  V30 12 2 9 13
M  V30 13 1 9 14
M  V30 14 1 10 15
M  V30 15 2 11 16
M  V30 16 1 12 17
M  V30 17 1 15 18
M  V30 18 1 15 19
M  V30 19 1 13 16
M  V30 20 1 2 20
M  V30 21 1 2 21
M  V30 22 1 7 22
M  V30 23 1 7 23
M  V30 24 1 11 24
M  V30 25 1 12 25
M  V30 26 1 12 26
M  V30 27 1 13 27
M  V30 28 1 14 28
M  V30 29 1 14 29
M  V30 30 1 14 30
M  V30 31 1 15 31
M  V30 32 1 16 32
M  V30 33 1 17 33
M  V30 34 1 17 34
M  V30 35 1 17 35
M  V30 36 1 18 36
M  V30 37 1 18 37
M  V30 38 1 18 38
M  V30 39 1 19 39
M  V30 40 1 19 40
M  V30 41 1 19 41
M  V30 END BOND
M  V30 END CTAB
M  END
>  <Structure No>
5487

>  <LogS>
-3.1882

>  <MMFF94 Energy>
29.549

$$$$
Compound 5488
Actelion Java MolfileCreator 2.0

  0  0  0  0  0  0              0 V3000
M  V30 BEGIN CTAB
M  V30 COUNTS 43 45 0 0 0
M  V30 BEGIN ATOM
M  V30 1 Cl 4.8693 0.0 -3.3563 0
M  V30 2 C 5.1303 0.4111 -1.6686 0
M  V30 3 C 4.2462 -0.0317 -0.6782 0
M  V30 4 C 6.2308 1.1916 -1.3052 0
M  V30 5 O 3.1371 -0.8091 -1.0335 0
M  V30 6 N 4.4602 0.3193 0.6205 0
M  V30 7 C 6.4549 1.5146 0.0423 0
M  V30 8 C 2.3157 -1.4573 -0.104 0
M  V30 9 C 5.5243 1.0759 0.9976 0
M  V30 10 C 7.6105 2.397 0.4406 0
M  V30 11 C 2.8275 -2.4056 0.8038 0
M  V30 12 C 0.9461 -1.1663 -0.1018 0
M  V30 13 F 8.0204 2.1121 1.7318 0
M  V30 14 F 7.2167 3.7204 0.3746 0
M  V30 15 F 8.6868 2.2035 -0.4078 0
M  V30 16 Cl 4.5133 -2.9053 0.7584 0
M  V30 17 C 1.9726 -3.0098 1.7311 0
M  V30 18 C 0.0816 -1.7906 0.8152 0
M  V30 19 C 0.6119 -2.6941 1.7464 0
M  V30 20 N -1.3208 -1.4758 0.8588 0
M  V30 21 C -2.115 -1.1687 -0.2976 0
M  V30 22 O -1.66 -1.3807 -1.4546 0
M  V30 23 N -3.4412 -0.6453 -0.1241 0
M  V30 24 C -4.3562 -0.4052 -1.2074 0
M  V30 25 O -4.1195 -0.8783 -2.3523 0
M  V30 26 C -5.6014 0.3665 -0.9851 0
M  V30 27 C -6.7902 0.0034 -1.6507 0
M  V30 28 C -5.6145 1.4838 -0.1242 0
M  V30 29 F -6.8221 -1.0694 -2.4817 0
M  V30 30 C -7.9662 0.7314 -1.4421 0
M  V30 31 F -4.4797 1.9083 0.4875 0
M  V30 32 C -6.7963 2.205 0.0759 0
M  V30 33 C -7.97 1.8283 -0.5787 0
M  V30 34 H 6.9068 1.5458 -2.0736 0
M  V30 35 H 5.64 1.3355 2.0418 0
M  V30 36 H 0.5704 -0.4223 -0.7919 0
M  V30 37 H 2.3599 -3.7349 2.4357 0
M  V30 38 H -0.0356 -3.1712 2.4715 0
M  V30 39 H -1.8143 -1.5583 1.7764 0
M  V30 40 H -3.7637 -0.4545 0.8509 0
M  V30 41 H -8.8781 0.4432 -1.9492 0
M  V30 42 H -6.8004 3.0647 0.7339 0
M  V30 43 H -8.8819 2.3898 -0.4212 0
M  V30 END ATOM
M  V30 BEGIN BOND
M  V30 1 1 1 2
M  V30 2 2 2 3
M  V30 3 1 2 4
M  V30 4 1 3 5
M  V30 5 1 3 6
M  V30 6 2 4 7
M  V30 7 1 5 8
M  V30 8 2 6 9
M  V30 9 1 7 10
M  V30 10 2 8 11
M  V30 11 1 8 12
M  V30 12 1 10 13
M  V30 13 1 10 14
M  V30 14 1 10 15
M  V30 15 1 11 16
M  V30 16 1 11 17
M  V30 17 2 12 18
M  V30 18 2 17 19
M  V30 19 1 18 20
M  V30 20 1 20 21
M  V30 21 2 21 22
M  V30 22 1 21 23
M  V30 23 1 23 24
M  V30 24 2 24 25
M  V30 25 1 24 26
M  V30 26 2 26 27
M  V30 27 1 26 28
M  V30 28 1 27 29
M  V30 29 1 27 30
M  V30 30 1 28 31
M  V30 31 2 28 32
M  V30 32 2 30 33
M  V30 33 1 7 9
M  V30 34 1 18 19
M  V30 35 1 32 33
M  V30 36 1 4 34
M  V30 37 1 9 35
M  V30 38 1 12 36
M  V30 39 1 17 37
M  V30 40 1 19 38
M  V30 41 1 20 39
M  V30 42 1 23 40
M  V30 43 1 30 41
M  V30 44 1 32 42
M  V30 45 1 33 43
M  V30 END BOND
M  V30 END CTAB
M  END
>  <Structure No>
5488

>  <LogS>
-7.4033

>  <MMFF94 Energy>
2.8891

$$$$
Compound 5489
Actelion Java MolfileCreator 2.0

  0  0  0  0  0  0              0 V3000
M  V30 BEGIN CTAB
M  V30 COUNTS 40 40 0 0 0
M  V30 BEGIN ATOM
M  V30 1 O 2.2821 -0.4718 -0.5505 0
M  V30 2 C 2.4728 -0.0134 0.6095 0
M  V30 3 O 3.7225 -0.1437 1.2258 0
M  V30 4 N 1.4248 0.6785 1.3016 0
M  V30 5 C 4.8508 -0.7574 0.6019 0
M  V30 6 C 0.0572 0.7274 0.8598 0
M  V30 7 C 5.4633 0.1899 -0.4336 0
M  V30 8 C 5.8779 -1.111 1.6755 0
M  V30 9 C -0.5555 -0.3789 0.2482 0
M  V30 10 C -0.6991 1.8803 1.0991 0
M  V30 11 C -1.9026 -0.318 -0.1602 0
M  V30 12 C -2.0342 1.9494 0.6983 0
M  V30 13 O -2.5416 -1.4015 -0.7839 0
M  V30 14 C -2.644 0.8537 0.0583 0
M  V30 15 C -1.9184 -2.6489 -1.0783 0
M  V30 16 O -3.9844 0.8777 -0.3651 0
M  V30 17 C -2.9176 -3.5646 -1.7669 0
M  V30 18 C -4.851 2.012 -0.3272 0
M  V30 19 C -4.5048 2.9947 -1.4406 0
M  V30 20 H 1.699 1.2558 2.1286 0
M  V30 21 H 4.5375 -1.6999 0.0997 0
M  V30 22 H 5.7643 1.1456 0.0467 0
M  V30 23 H 6.3551 -0.2775 -0.9028 0
M  V30 24 H 4.7273 0.4114 -1.2342 0
M  V30 25 H 6.2166 -0.1954 2.2064 0
M  V30 26 H 6.7571 -1.6136 1.2185 0
M  V30 27 H 5.423 -1.8034 2.4154 0
M  V30 28 H 0.0081 -1.2909 0.1168 0
M  V30 29 H -0.2478 2.7338 1.59 0
M  V30 30 H -2.5804 2.8602 0.8967 0
M  V30 31 H -1.0497 -2.4864 -1.7527 0
M  V30 32 H -1.5742 -3.1295 -0.137 0
M  V30 33 H -2.4365 -4.5382 -1.9984 0
M  V30 34 H -3.2676 -3.1006 -2.7133 0
M  V30 35 H -3.79 -3.7417 -1.1029 0
M  V30 36 H -5.8921 1.6594 -0.4845 0
M  V30 37 H -4.8166 2.5058 0.6667 0
M  V30 38 H -4.576 2.4881 -2.4263 0
M  V30 39 H -5.2179 3.8457 -1.4218 0
M  V30 40 H -3.4764 3.3896 -1.3117 0
M  V30 END ATOM
M  V30 BEGIN BOND
M  V30 1 2 1 2
M  V30 2 1 2 3
M  V30 3 1 2 4
M  V30 4 1 3 5
M  V30 5 1 4 6
M  V30 6 1 5 7
M  V30 7 1 5 8
M  V30 8 2 6 9
M  V30 9 1 6 10
M  V30 10 1 9 11
M  V30 11 2 10 12
M  V30 12 1 11 13
M  V30 13 2 11 14
M  V30 14 1 13 15
M  V30 15 1 14 16
M  V30 16 1 15 17
M  V30 17 1 16 18
M  V30 18 1 18 19
M  V30 19 1 12 14
M  V30 20 1 4 20
M  V30 21 1 5 21
M  V30 22 1 7 22
M  V30 23 1 7 23
M  V30 24 1 7 24
M  V30 25 1 8 25
M  V30 26 1 8 26
M  V30 27 1 8 27
M  V30 28 1 9 28
M  V30 29 1 10 29
M  V30 30 1 12 30
M  V30 31 1 15 31
M  V30 32 1 15 32
M  V30 33 1 17 33
M  V30 34 1 17 34
M  V30 35 1 17 35
M  V30 36 1 18 36
M  V30 37 1 18 37
M  V30 38 1 19 38
M  V30 39 1 19 39
M  V30 40 1 19 40
M  V30 END BOND
M  V30 END CTAB
M  END
>  <Structure No>
5489

>  <LogS>
-4.0022

>  <MMFF94 Energy>
-15.831

$$$$
Compound 5490
Actelion Java MolfileCreator 2.0

  0  0  0  0  0  0              0 V3000
M  V30 BEGIN CTAB
M  V30 COUNTS 48 49 0 0 0
M  V30 BEGIN ATOM
M  V30 1 Cl 7.0091 -2.1965 -0.4065 0
M  V30 2 C 6.3852 -0.5771 -0.6787 0
M  V30 3 C 5.0066 -0.3337 -0.6961 0
M  V30 4 C 7.2721 0.4856 -0.8694 0
M  V30 5 O 4.1136 -1.4014 -0.5296 0
M  V30 6 N 4.552 0.9323 -0.9095 0
M  V30 7 C 6.7845 1.7805 -1.1041 0
M  V30 8 C 2.7548 -1.2789 -0.2043 0
M  V30 9 C 5.395 1.9812 -1.0993 0
M  V30 10 C 7.7323 2.9424 -1.261 0
M  V30 11 C 1.8651 -2.2507 -0.6738 0
M  V30 12 C 2.269 -0.2407 0.6105 0
M  V30 13 F 7.1612 3.9404 -2.0317 0
M  V30 14 F 8.0348 3.4544 -0.0129 0
M  V30 15 F 8.9027 2.5351 -1.8776 0
M  V30 16 C 0.504 -2.1732 -0.3663 0
M  V30 17 C 0.9075 -0.1631 0.9198 0
M  V30 18 C 0.0109 -1.1329 0.4297 0
M  V30 19 O -1.3674 -1.1045 0.6993 0
M  V30 20 C -2.0325 -0.1834 1.5664 0 CFG=1
M  V30 21 C -3.5026 -0.2358 1.2848 0
M  V30 22 C -1.7792 -0.5513 3.0301 0
M  V30 23 O -4.1752 0.8312 1.2716 0
M  V30 24 O -4.1231 -1.4756 1.0876 0
M  V30 25 C -5.494 -1.623 0.7205 0
M  V30 26 C -5.6665 -1.5036 -0.7958 0
M  V30 27 O -5.2637 -0.226 -1.2534 0
M  V30 28 C -6.3774 0.6361 -1.3604 0
M  V30 29 C -5.8948 2.0341 -1.7165 0
M  V30 30 H 8.3385 0.2998 -0.8337 0
M  V30 31 H 4.9787 2.9693 -1.2455 0
M  V30 32 H 2.2289 -3.0639 -1.2886 0
M  V30 33 H 2.9418 0.4938 1.0316 0
M  V30 34 H -0.1726 -2.9277 -0.7472 0
M  V30 35 H 0.5703 0.6516 1.5442 0
M  V30 36 H -1.6772 0.8511 1.3679 0
M  V30 37 H -2.3089 0.1594 3.7005 0
M  V30 38 H -0.6957 -0.5039 3.2622 0
M  V30 39 H -2.1385 -1.5822 3.2384 0
M  V30 40 H -6.1287 -0.884 1.2554 0
M  V30 41 H -5.8293 -2.6349 1.0309 0
M  V30 42 H -6.7135 -1.7678 -1.0785 0
M  V30 43 H -5.0156 -2.262 -1.28 0
M  V30 44 H -7.0608 0.2861 -2.1666 0
M  V30 45 H -6.9362 0.695 -0.3986 0
M  V30 46 H -5.2176 2.4164 -0.9235 0
M  V30 47 H -6.7638 2.7195 -1.8081 0
M  V30 48 H -5.3486 2.0133 -2.6835 0
M  V30 END ATOM
M  V30 BEGIN BOND
M  V30 1 1 1 2
M  V30 2 2 2 3
M  V30 3 1 2 4
M  V30 4 1 3 5
M  V30 5 1 3 6
M  V30 6 2 4 7
M  V30 7 1 5 8
M  V30 8 2 6 9
M  V30 9 1 7 10
M  V30 10 2 8 11
M  V30 11 1 8 12
M  V30 12 1 10 13
M  V30 13 1 10 14
M  V30 14 1 10 15
M  V30 15 1 11 16
M  V30 16 2 12 17
M  V30 17 2 16 18
M  V30 18 1 18 19
M  V30 19 1 19 20
M  V30 20 1 20 21
M  V30 21 1 20 22
M  V30 22 2 21 23
M  V30 23 1 21 24
M  V30 24 1 24 25
M  V30 25 1 25 26
M  V30 26 1 26 27
M  V30 27 1 27 28
M  V30 28 1 28 29
M  V30 29 1 7 9
M  V30 30 1 17 18
M  V30 31 1 4 30
M  V30 32 1 9 31
M  V30 33 1 11 32
M  V30 34 1 12 33
M  V30 35 1 16 34
M  V30 36 1 17 35
M  V30 37 1 20 36
M  V30 38 1 22 37
M  V30 39 1 22 38
M  V30 40 1 22 39
M  V30 41 1 25 40
M  V30 42 1 25 41
M  V30 43 1 26 42
M  V30 44 1 26 43
M  V30 45 1 28 44
M  V30 46 1 28 45
M  V30 47 1 29 46
M  V30 48 1 29 47
M  V30 49 1 29 48
M  V30 END BOND
M  V30 BEGIN COLLECTION
M  V30 MDLV30/STEABS ATOMS=(1 20)
M  V30 END COLLECTION
M  V30 END CTAB
M  END
>  <Structure No>
5490

>  <LogS>
-5.8739

>  <MMFF94 Energy>
102.23

$$$$
Compound 5491
Actelion Java MolfileCreator 2.0

  0  0  0  0  0  0              0 V3000
M  V30 BEGIN CTAB
M  V30 COUNTS 45 45 0 0 0
M  V30 BEGIN ATOM
M  V30 1 Cl 0.6344 -1.7454 3.1753 0
M  V30 2 C -0.1402 -0.1422 3.1731 0
M  V30 3 C -1.0563 -0.0216 1.9894 0
M  V30 4 O -2.243 -0.4314 2.1151 0
M  V30 5 N -0.61 0.4903 0.7125 0
M  V30 6 C -1.5451 0.556 -0.3801 0
M  V30 7 C 0.7745 0.9164 0.4795 0
M  V30 8 C -1.7564 -0.5762 -1.2053 0
M  V30 9 C -2.2638 1.7512 -0.6299 0
M  V30 10 O 1.6354 -0.1918 0.6278 0
M  V30 11 C -2.6802 -0.4983 -2.2593 0
M  V30 12 C -0.9734 -1.8557 -1.0223 0
M  V30 13 C -3.1917 1.7905 -1.6824 0
M  V30 14 C -2.0967 2.98 0.2342 0
M  V30 15 C 2.9758 0.2241 0.4837 0
M  V30 16 C -3.3953 0.6745 -2.491 0
M  V30 17 C 0.2008 -1.916 -1.9941 0
M  V30 18 C -3.1621 3.0323 1.3245 0
M  V30 19 C 3.8778 -0.9604 0.6561 0
M  V30 20 C 3.8493 -1.9868 -0.2041 0
M  V30 21 C 4.7495 -3.1689 -0.0239 0
M  V30 22 H -0.7267 -0.0339 4.1099 0
M  V30 23 H 0.6362 0.6475 3.1751 0
M  V30 24 H 1.0269 1.7284 1.198 0
M  V30 25 H 0.8703 1.3372 -0.5486 0
M  V30 26 H -2.8449 -1.3512 -2.9065 0
M  V30 27 H -0.5941 -1.9568 0.0152 0
M  V30 28 H -1.6372 -2.7292 -1.2023 0
M  V30 29 H -3.7608 2.6916 -1.877 0
M  V30 30 H -1.0923 3.0117 0.7032 0
M  V30 31 H -2.1796 3.8935 -0.3942 0
M  V30 32 H 3.2396 0.9745 1.2632 0
M  V30 33 H 3.1525 0.6641 -0.5243 0
M  V30 34 H -4.1091 0.7198 -3.3034 0
M  V30 35 H 0.7864 -2.8416 -1.8126 0
M  V30 36 H 0.8664 -1.0387 -1.8553 0
M  V30 37 H -0.1665 -1.9288 -3.0422 0
M  V30 38 H -4.177 3.051 0.8732 0
M  V30 39 H -3.0762 2.1521 1.9942 0
M  V30 40 H -3.0272 3.9521 1.9316 0
M  V30 41 H 4.5689 -0.9753 1.4949 0
M  V30 42 H 3.1666 -1.971 -1.0486 0
M  V30 43 H 4.5707 -3.9029 -0.837 0
M  V30 44 H 5.8113 -2.8454 -0.0587 0
M  V30 45 H 4.543 -3.6567 0.952 0
M  V30 END ATOM
M  V30 BEGIN BOND
M  V30 1 1 1 2
M  V30 2 1 2 3
M  V30 3 2 3 4
M  V30 4 1 3 5
M  V30 5 1 5 6
M  V30 6 1 5 7
M  V30 7 2 6 8
M  V30 8 1 6 9
M  V30 9 1 7 10
M  V30 10 1 8 11
M  V30 11 1 8 12
M  V30 12 2 9 13
M  V30 13 1 9 14
M  V30 14 1 10 15
M  V30 15 2 11 16
M  V30 16 1 12 17
M  V30 17 1 14 18
M  V30 18 1 15 19
M  V30 19 2 19 20
M  V30 20 1 20 21
M  V30 21 1 13 16
M  V30 22 1 2 22
M  V30 23 1 2 23
M  V30 24 1 7 24
M  V30 25 1 7 25
M  V30 26 1 11 26
M  V30 27 1 12 27
M  V30 28 1 12 28
M  V30 29 1 13 29
M  V30 30 1 14 30
M  V30 31 1 14 31
M  V30 32 1 15 32
M  V30 33 1 15 33
M  V30 34 1 16 34
M  V30 35 1 17 35
M  V30 36 1 17 36
M  V30 37 1 17 37
M  V30 38 1 18 38
M  V30 39 1 18 39
M  V30 40 1 18 40
M  V30 41 1 19 41
M  V30 42 1 20 42
M  V30 43 1 21 43
M  V30 44 1 21 44
M  V30 45 1 21 45
M  V30 END BOND
M  V30 END CTAB
M  END
>  <Structure No>
5491

>  <LogS>
-4.0287

>  <MMFF94 Energy>
31.617

$$$$
Compound 5492
Actelion Java MolfileCreator 2.0

  0  0  0  0  0  0              0 V3000
M  V30 BEGIN CTAB
M  V30 COUNTS 52 54 0 0 0
M  V30 BEGIN ATOM
M  V30 1 Cl -1.7095 2.2798 -3.3396 0
M  V30 2 C -0.2753 1.6885 -2.5141 0
M  V30 3 C -0.3125 0.4807 -1.7997 0
M  V30 4 C 0.9055 2.433 -2.578 0
M  V30 5 O -1.5153 -0.2414 -1.7646 0
M  V30 6 C 0.8488 0.0363 -1.137 0
M  V30 7 C 2.054 1.9914 -1.9169 0
M  V30 8 C -1.6861 -1.5081 -1.1372 0
M  V30 9 C 2.0309 0.7952 -1.1796 0
M  V30 10 F 3.1951 2.717 -2.0202 0
M  V30 11 C -3.1043 -1.9355 -1.2988 0
M  V30 12 N 3.1979 0.3622 -0.4582 0
M  V30 13 O -3.49 -2.419 -2.3985 0
M  V30 14 O -4.0074 -1.7232 -0.2505 0
M  V30 15 C 3.9658 1.1297 0.4691 0
M  V30 16 C 3.6357 -0.9747 -0.2139 0
M  V30 17 C -5.4175 -1.8933 -0.3829 0
M  V30 18 O 3.8346 2.3707 0.647 0
M  V30 19 C 4.8594 0.2608 1.2301 0
M  V30 20 O 3.1907 -1.9898 -0.8141 0
M  V30 21 C 4.6849 -0.988 0.8037 0
M  V30 22 C -6.0402 -0.7715 -1.2315 0
M  V30 23 C 5.8812 0.6682 2.2529 0
M  V30 24 C 5.3659 -2.1844 1.4048 0
M  V30 25 C -5.6634 0.6447 -0.758 0
M  V30 26 C 6.3322 -0.5423 3.0911 0
M  V30 27 C 6.6189 -1.7641 2.1971 0
M  V30 28 C -6.2404 0.9798 0.6264 0
M  V30 29 C -5.9581 2.4332 1.0038 0
M  V30 30 H 0.9341 3.358 -3.1427 0
M  V30 31 H 0.8292 -0.8771 -0.5586 0
M  V30 32 H -1.0153 -2.2573 -1.6088 0
M  V30 33 H -1.4487 -1.43 -0.0547 0
M  V30 34 H -5.6398 -2.8826 -0.8448 0
M  V30 35 H -5.874 -1.8943 0.6307 0
M  V30 36 H -7.1459 -0.884 -1.2272 0
M  V30 37 H -5.7048 -0.8897 -2.2855 0
M  V30 38 H 6.7585 1.0994 1.7244 0
M  V30 39 H 5.4548 1.4467 2.9214 0
M  V30 40 H 5.6546 -2.894 0.6002 0
M  V30 41 H 4.6516 -2.695 2.0863 0
M  V30 42 H -4.5575 0.7605 -0.7449 0
M  V30 43 H -6.0632 1.3709 -1.501 0
M  V30 44 H 7.2491 -0.274 3.6595 0
M  V30 45 H 5.5368 -0.8022 3.8253 0
M  V30 46 H 6.9576 -2.6138 2.8285 0
M  V30 47 H 7.4393 -1.5148 1.4878 0
M  V30 48 H -7.34 0.8152 0.626 0
M  V30 49 H -5.7845 0.324 1.3995 0
M  V30 50 H -6.439 3.1235 0.2759 0
M  V30 51 H -6.3694 2.6404 2.016 0
M  V30 52 H -4.8635 2.6218 1.019 0
M  V30 END ATOM
M  V30 BEGIN BOND
M  V30 1 1 1 2
M  V30 2 2 2 3
M  V30 3 1 2 4
M  V30 4 1 3 5
M  V30 5 1 3 6
M  V30 6 2 4 7
M  V30 7 1 5 8
M  V30 8 2 6 9
M  V30 9 1 7 10
M  V30 10 1 8 11
M  V30 11 1 9 12
M  V30 12 2 11 13
M  V30 13 1 11 14
M  V30 14 1 12 15
M  V30 15 1 12 16
M  V30 16 1 14 17
M  V30 17 2 15 18
M  V30 18 1 15 19
M  V30 19 2 16 20
M  V30 20 1 16 21
M  V30 21 1 17 22
M  V30 22 1 19 23
M  V30 23 1 21 24
M  V30 24 1 22 25
M  V30 25 1 23 26
M  V30 26 1 24 27
M  V30 27 1 25 28
M  V30 28 1 28 29
M  V30 29 1 7 9
M  V30 30 2 19 21
M  V30 31 1 26 27
M  V30 32 1 4 30
M  V30 33 1 6 31
M  V30 34 1 8 32
M  V30 35 1 8 33
M  V30 36 1 17 34
M  V30 37 1 17 35
M  V30 38 1 22 36
M  V30 39 1 22 37
M  V30 40 1 23 38
M  V30 41 1 23 39
M  V30 42 1 24 40
M  V30 43 1 24 41
M  V30 44 1 25 42
M  V30 45 1 25 43
M  V30 46 1 26 44
M  V30 47 1 26 45
M  V30 48 1 27 46
M  V30 49 1 27 47
M  V30 50 1 28 48
M  V30 51 1 28 49
M  V30 52 1 29 50
M  V30 53 1 29 51
M  V30 54 1 29 52
M  V30 END BOND
M  V30 END CTAB
M  END
>  <Structure No>
5492

>  <LogS>
-6.3508

>  <MMFF94 Energy>
15.328

$$$$
Compound 5493
Actelion Java MolfileCreator 2.0

  0  0  0  0  0  0              0 V3000
M  V30 BEGIN CTAB
M  V30 COUNTS 35 35 0 0 0
M  V30 BEGIN ATOM
M  V30 1 Cl 0.4858 2.4312 3.7297 0
M  V30 2 C -0.3294 1.3892 2.5321 0
M  V30 3 C 0.641 0.8502 1.514 0
M  V30 4 O 1.8441 0.6762 1.8525 0
M  V30 5 N 0.2024 0.464 0.1903 0
M  V30 6 C -1.2113 0.3142 -0.0632 0
M  V30 7 C 1.2014 0.0983 -0.8437 0 CFG=1
M  V30 8 C -1.9996 1.3271 -0.6153 0
M  V30 9 C -1.9647 -0.8147 0.3306 0
M  V30 10 C 1.3479 -1.4286 -0.9678 0
M  V30 11 C 0.87 0.7144 -2.2095 0
M  V30 12 S -3.5849 0.7809 -0.7043 0
M  V30 13 C -1.5602 2.6936 -1.0307 0
M  V30 14 C -3.3132 -0.7199 -0.0012 0
M  V30 15 C -1.4101 -2.0131 1.0393 0
M  V30 16 O 1.6893 -2.0044 0.28 0
M  V30 17 C 3.085 -2.1837 0.3783 0
M  V30 18 H -1.1107 2.001 2.0365 0
M  V30 19 H -0.8157 0.5427 3.0597 0
M  V30 20 H 2.1949 0.5134 -0.5671 0
M  V30 21 H 2.0733 -1.682 -1.7784 0
M  V30 22 H 0.3783 -1.8569 -1.2952 0
M  V30 23 H -0.1118 0.3565 -2.5851 0
M  V30 24 H 0.8642 1.8206 -2.1344 0
M  V30 25 H 1.6486 0.4373 -2.952 0
M  V30 26 H -1.436 2.725 -2.1327 0
M  V30 27 H -2.3293 3.4375 -0.7354 0
M  V30 28 H -0.6047 2.9668 -0.5368 0
M  V30 29 H -4.0686 -1.4702 0.192 0
M  V30 30 H -0.5306 -1.7374 1.655 0
M  V30 31 H -2.1763 -2.4408 1.7203 0
M  V30 32 H -1.1239 -2.7886 0.3002 0
M  V30 33 H 3.6335 -1.2289 0.2214 0
M  V30 34 H 3.4344 -2.9551 -0.3426 0
M  V30 35 H 3.3237 -2.5439 1.3999 0
M  V30 END ATOM
M  V30 BEGIN BOND
M  V30 1 1 1 2
M  V30 2 1 2 3
M  V30 3 2 3 4
M  V30 4 1 3 5
M  V30 5 1 5 6
M  V30 6 1 5 7
M  V30 7 2 6 8
M  V30 8 1 6 9
M  V30 9 1 7 10
M  V30 10 1 7 11
M  V30 11 1 8 12
M  V30 12 1 8 13
M  V30 13 2 9 14
M  V30 14 1 9 15
M  V30 15 1 10 16
M  V30 16 1 16 17
M  V30 17 1 12 14
M  V30 18 1 2 18
M  V30 19 1 2 19
M  V30 20 1 7 20
M  V30 21 1 10 21
M  V30 22 1 10 22
M  V30 23 1 11 23
M  V30 24 1 11 24
M  V30 25 1 11 25
M  V30 26 1 13 26
M  V30 27 1 13 27
M  V30 28 1 13 28
M  V30 29 1 14 29
M  V30 30 1 15 30
M  V30 31 1 15 31
M  V30 32 1 15 32
M  V30 33 1 17 33
M  V30 34 1 17 34
M  V30 35 1 17 35
M  V30 END BOND
M  V30 BEGIN COLLECTION
M  V30 MDLV30/STEABS ATOMS=(1 7)
M  V30 END COLLECTION
M  V30 END CTAB
M  END
>  <Structure No>
5493

>  <LogS>
-2.3614

>  <MMFF94 Energy>
39.74

$$$$
Compound 5494
Actelion Java MolfileCreator 2.0

  0  0  0  0  0  0              0 V3000
M  V30 BEGIN CTAB
M  V30 COUNTS 41 43 0 0 0
M  V30 BEGIN ATOM
M  V30 1 Cl 6.0033 1.7242 2.7927 0
M  V30 2 C 5.9895 1.143 1.1353 0
M  V30 3 C 4.8042 0.6826 0.5451 0
M  V30 4 C 7.1734 1.1336 0.3926 0
M  V30 5 O 3.6102 0.7105 1.2788 0
M  V30 6 N 4.8216 0.2509 -0.7478 0
M  V30 7 C 7.1638 0.6754 -0.9266 0
M  V30 8 C 2.445 -0.0012 0.9583 0
M  V30 9 C 5.9626 0.2342 -1.4864 0
M  V30 10 Cl 8.6417 0.6587 -1.8709 0
M  V30 11 C 2.4836 -1.2581 0.3291 0
M  V30 12 C 1.2081 0.5432 1.3198 0
M  V30 13 C 1.2966 -1.9371 0.0394 0
M  V30 14 C 0.0205 -0.1347 1.0299 0
M  V30 15 C 0.0573 -1.3836 0.38 0
M  V30 16 O -1.1036 -2.1075 0.0612 0
M  V30 17 C -2.4424 -1.6707 0.3072 0 CFG=1
M  V30 18 C -2.8004 -0.5217 -0.5998 0
M  V30 19 C -3.3981 -2.8345 0.0631 0
M  V30 20 O -2.333 -0.4876 -1.771 0
M  V30 21 N -3.6945 0.5095 -0.1548 0
M  V30 22 O -4.345 0.4132 1.034 0
M  V30 23 C -4.2187 1.5212 -1.049 0
M  V30 24 C -5.6177 0.9494 0.7699 0
M  V30 25 C -5.461 1.9857 -0.3376 0
M  V30 26 H 8.0965 1.4823 0.8384 0
M  V30 27 H 5.9332 -0.12 -2.5082 0
M  V30 28 H 3.4265 -1.7291 0.0875 0
M  V30 29 H 1.1669 1.5023 1.8207 0
M  V30 30 H 1.34 -2.9037 -0.4464 0
M  V30 31 H -0.9163 0.3217 1.3167 0
M  V30 32 H -2.538 -1.3696 1.3731 0
M  V30 33 H -3.3228 -3.1857 -0.9884 0
M  V30 34 H -3.1422 -3.6777 0.7393 0
M  V30 35 H -4.4449 -2.5231 0.2691 0
M  V30 36 H -3.4828 2.3431 -1.1809 0
M  V30 37 H -4.4862 1.0712 -2.0304 0
M  V30 38 H -6.2994 0.1335 0.4428 0
M  V30 39 H -6.0285 1.4186 1.689 0
M  V30 40 H -6.3462 2.001 -1.0101 0
M  V30 41 H -5.2969 2.9938 0.1025 0
M  V30 END ATOM
M  V30 BEGIN BOND
M  V30 1 1 1 2
M  V30 2 2 2 3
M  V30 3 1 2 4
M  V30 4 1 3 5
M  V30 5 1 3 6
M  V30 6 2 4 7
M  V30 7 1 5 8
M  V30 8 2 6 9
M  V30 9 1 7 10
M  V30 10 2 8 11
M  V30 11 1 8 12
M  V30 12 1 11 13
M  V30 13 2 12 14
M  V30 14 2 13 15
M  V30 15 1 15 16
M  V30 16 1 16 17
M  V30 17 1 17 18
M  V30 18 1 17 19
M  V30 19 2 18 20
M  V30 20 1 18 21
M  V30 21 1 21 22
M  V30 22 1 21 23
M  V30 23 1 22 24
M  V30 24 1 23 25
M  V30 25 1 7 9
M  V30 26 1 14 15
M  V30 27 1 24 25
M  V30 28 1 4 26
M  V30 29 1 9 27
M  V30 30 1 11 28
M  V30 31 1 12 29
M  V30 32 1 13 30
M  V30 33 1 14 31
M  V30 34 1 17 32
M  V30 35 1 19 33
M  V30 36 1 19 34
M  V30 37 1 19 35
M  V30 38 1 23 36
M  V30 39 1 23 37
M  V30 40 1 24 38
M  V30 41 1 24 39
M  V30 42 1 25 40
M  V30 43 1 25 41
M  V30 END BOND
M  V30 BEGIN COLLECTION
M  V30 MDLV30/STEABS ATOMS=(1 17)
M  V30 END COLLECTION
M  V30 END CTAB
M  END
>  <Structure No>
5494

>  <LogS>
-4.5922

>  <MMFF94 Energy>
102.24

$$$$
Compound 5495
Actelion Java MolfileCreator 2.0

  0  0  0  0  0  0              0 V3000
M  V30 BEGIN CTAB
M  V30 COUNTS 46 48 0 0 0
M  V30 BEGIN ATOM
M  V30 1 O -2.1544 -1.5157 -0.957 0
M  V30 2 C -2.4549 -0.2948 -0.338 0 CFG=2
M  V30 3 C -0.8502 -1.6307 -0.4711 0 CFG=1
M  V30 4 C -3.885 0.2021 -0.6968 0
M  V30 5 C -1.3383 0.6389 -0.8562 0
M  V30 6 C -2.2024 -0.5867 1.1569 0
M  V30 7 C -0.1766 -0.349 -1.0012 0 CFG=1
M  V30 8 C -1.0436 -1.5715 1.0574 0
M  V30 9 C -0.1732 -2.918 -0.9474 0
M  V30 10 C -4.9661 -0.8617 -0.4416 0
M  V30 11 C -4.2418 1.5068 0.0325 0
M  V30 12 O 0.9473 0.0091 -0.2168 0
M  V30 13 C 1.7272 0.9753 -0.8889 0
M  V30 14 C 2.9476 1.2773 -0.058 0
M  V30 15 C 4.0794 0.421 -0.0572 0
M  V30 16 C 2.9403 2.4082 0.7778 0
M  V30 17 C 5.1904 0.7497 0.7394 0
M  V30 18 C 4.135 -0.8143 -0.9184 0
M  V30 19 C 4.0469 2.7112 1.5726 0
M  V30 20 C 5.1715 1.8853 1.5502 0
M  V30 21 H -3.9036 0.4155 -1.7893 0
M  V30 22 H -1.1143 1.4651 -0.1456 0
M  V30 23 H -1.5948 1.0666 -1.8506 0
M  V30 24 H -3.0713 -1.076 1.6425 0
M  V30 25 H -1.9232 0.3241 1.7305 0
M  V30 26 H 0.0793 -0.4925 -2.0797 0
M  V30 27 H -1.3518 -2.563 1.4577 0
M  V30 28 H -0.1436 -1.2187 1.6049 0
M  V30 29 H -0.7485 -3.8043 -0.6049 0
M  V30 30 H -0.1236 -2.9415 -2.0562 0
M  V30 31 H 0.8573 -2.977 -0.5389 0
M  V30 32 H -5.1073 -1.0482 0.644 0
M  V30 33 H -4.7034 -1.8174 -0.944 0
M  V30 34 H -5.9367 -0.5164 -0.8583 0
M  V30 35 H -4.2696 1.3505 1.1325 0
M  V30 36 H -3.4996 2.2986 -0.2013 0
M  V30 37 H -5.2395 1.8696 -0.2985 0
M  V30 38 H 2.0485 0.6156 -1.8911 0
M  V30 39 H 1.14 1.9078 -1.0453 0
M  V30 40 H 2.0761 3.061 0.8127 0
M  V30 41 H 6.0728 0.1232 0.7389 0
M  V30 42 H 4.9886 -1.4677 -0.6391 0
M  V30 43 H 4.2492 -0.5232 -1.9817 0
M  V30 44 H 3.2077 -1.4112 -0.7977 0
M  V30 45 H 4.0329 3.5874 2.2075 0
M  V30 46 H 6.0296 2.1259 2.164 0
M  V30 END ATOM
M  V30 BEGIN BOND
M  V30 1 1 1 2
M  V30 2 1 1 3
M  V30 3 1 2 4
M  V30 4 1 2 5
M  V30 5 1 2 6
M  V30 6 1 3 7
M  V30 7 1 3 8
M  V30 8 1 3 9
M  V30 9 1 4 10
M  V30 10 1 4 11
M  V30 11 1 7 12
M  V30 12 1 12 13
M  V30 13 1 13 14
M  V30 14 2 14 15
M  V30 15 1 14 16
M  V30 16 1 15 17
M  V30 17 1 15 18
M  V30 18 2 16 19
M  V30 19 2 17 20
M  V30 20 1 5 7
M  V30 21 1 6 8
M  V30 22 1 19 20
M  V30 23 1 4 21
M  V30 24 1 5 22
M  V30 25 1 5 23
M  V30 26 1 6 24
M  V30 27 1 6 25
M  V30 28 1 7 26
M  V30 29 1 8 27
M  V30 30 1 8 28
M  V30 31 1 9 29
M  V30 32 1 9 30
M  V30 33 1 9 31
M  V30 34 1 10 32
M  V30 35 1 10 33
M  V30 36 1 10 34
M  V30 37 1 11 35
M  V30 38 1 11 36
M  V30 39 1 11 37
M  V30 40 1 13 38
M  V30 41 1 13 39
M  V30 42 1 16 40
M  V30 43 1 17 41
M  V30 44 1 18 42
M  V30 45 1 18 43
M  V30 46 1 18 44
M  V30 47 1 19 45
M  V30 48 1 20 46
M  V30 END BOND
M  V30 BEGIN COLLECTION
M  V30 MDLV30/STEABS ATOMS=(3 2 3 7)
M  V30 END COLLECTION
M  V30 END CTAB
M  END
>  <Structure No>
5495

>  <LogS>
-3.6391

>  <MMFF94 Energy>
88.517

$$$$
Compound 5496
Actelion Java MolfileCreator 2.0

  0  0  0  0  0  0              0 V3000
M  V30 BEGIN CTAB
M  V30 COUNTS 31 32 0 0 0
M  V30 BEGIN ATOM
M  V30 1 Cl -6.0229 1.4001 2.3069 0
M  V30 2 C -4.6346 0.9336 1.3421 0
M  V30 3 C -3.3417 1.192 1.8057 0
M  V30 4 C -4.8193 0.2966 0.1117 0
M  V30 5 C -2.2338 0.819 1.039 0
M  V30 6 C -3.7139 -0.0773 -0.6584 0
M  V30 7 C -2.4076 0.1904 -0.2076 0
M  V30 8 C -1.2234 -0.2132 -1.0058 0
M  V30 9 N -0.1855 -0.6724 -0.3707 0
M  V30 10 C -1.2542 -0.1811 -2.5199 0
M  V30 11 O 0.9404 -1.1368 -1.0153 0
M  V30 12 F -2.1921 0.7298 -2.9736 0
M  V30 13 F -1.5734 -1.4378 -2.9992 0
M  V30 14 F -0.0236 0.1986 -3.0259 0
M  V30 15 C 2.0602 -1.6023 -0.2745 0
M  V30 16 C 2.7305 -0.4481 0.4698 0
M  V30 17 O 3.8324 -0.9382 1.1975 0
M  V30 18 O 3.1301 0.5387 -0.4501 0
M  V30 19 C 4.8858 -0.066 0.9288 0
M  V30 20 C 4.3431 1.0121 0.036 0
M  V30 21 H -3.1934 1.6809 2.7601 0
M  V30 22 H -5.8187 0.0852 -0.2465 0
M  V30 23 H -1.2402 1.032 1.4143 0
M  V30 24 H -3.8825 -0.5922 -1.5952 0
M  V30 25 H 2.7878 -2.0617 -0.9768 0
M  V30 26 H 1.7302 -2.3801 0.4476 0
M  V30 27 H 2.0007 -0.0046 1.1834 0
M  V30 28 H 5.6983 -0.6242 0.4156 0
M  V30 29 H 5.2753 0.3615 1.8775 0
M  V30 30 H 5.0352 1.2172 -0.8081 0
M  V30 31 H 4.1714 1.9498 0.6093 0
M  V30 END ATOM
M  V30 BEGIN BOND
M  V30 1 1 1 2
M  V30 2 2 2 3
M  V30 3 1 2 4
M  V30 4 1 3 5
M  V30 5 2 4 6
M  V30 6 2 5 7
M  V30 7 1 7 8
M  V30 8 2 8 9
M  V30 9 1 8 10
M  V30 10 1 9 11
M  V30 11 1 10 12
M  V30 12 1 10 13
M  V30 13 1 10 14
M  V30 14 1 11 15
M  V30 15 1 15 16
M  V30 16 1 16 17
M  V30 17 1 16 18
M  V30 18 1 17 19
M  V30 19 1 18 20
M  V30 20 1 6 7
M  V30 21 1 19 20
M  V30 22 1 3 21
M  V30 23 1 4 22
M  V30 24 1 5 23
M  V30 25 1 6 24
M  V30 26 1 15 25
M  V30 27 1 15 26
M  V30 28 1 16 27
M  V30 29 1 19 28
M  V30 30 1 19 29
M  V30 31 1 20 30
M  V30 32 1 20 31
M  V30 END BOND
M  V30 END CTAB
M  END
>  <Structure No>
5496

>  <LogS>
-4.0138

>  <MMFF94 Energy>
132.03

$$$$
Compound 5497
Actelion Java MolfileCreator 2.0

  0  0  0  0  0  0              0 V3000
M  V30 BEGIN CTAB
M  V30 COUNTS 15 14 0 0 0
M  V30 BEGIN ATOM
M  V30 1 O 0.3218 -2.2548 -0.4023 0
M  V30 2 N 1.1376 -1.3862 -0.0322 0 CHG=1
M  V30 3 O 2.42 -1.7733 0.2792 0 CHG=-1
M  V30 4 C 0.7436 -0.0059 0.0849 0 CHG=-1
M  V30 5 N 1.7379 1.0313 -0.0201 0 CHG=1
M  V30 6 C -0.7229 0.3681 0.2103 0 CFG=2
M  V30 7 O 1.4246 2.231 0.1243 0
M  V30 8 O 3.0341 0.7255 -0.3632 0 CHG=-1
M  V30 9 O -1.3821 -0.4789 1.1218 0
M  V30 10 C -1.4072 0.392 -1.1635 0
M  V30 11 H -0.8006 1.3937 0.628 0
M  V30 12 H -1.7086 -1.2808 0.6378 0
M  V30 13 H -1.3588 -0.604 -1.6517 0
M  V30 14 H -0.9115 1.137 -1.8221 0
M  V30 15 H -2.4734 0.6804 -1.0465 0
M  V30 END ATOM
M  V30 BEGIN BOND
M  V30 1 2 1 2
M  V30 2 1 2 3
M  V30 3 1 2 4
M  V30 4 1 4 5
M  V30 5 1 4 6
M  V30 6 2 5 7
M  V30 7 1 5 8
M  V30 8 1 6 9
M  V30 9 1 6 10
M  V30 10 1 6 11
M  V30 11 1 9 12
M  V30 12 1 10 13
M  V30 13 1 10 14
M  V30 14 1 10 15
M  V30 END BOND
M  V30 BEGIN COLLECTION
M  V30 MDLV30/STEABS ATOMS=(1 6)
M  V30 END COLLECTION
M  V30 END CTAB
M  END
>  <Structure No>
5497

>  <LogS>
0.0789

>  <MMFF94 Energy>
-45.338

$$$$
Compound 5498
Actelion Java MolfileCreator 2.0

  0  0  0  0  0  0              0 V3000
M  V30 BEGIN CTAB
M  V30 COUNTS 37 38 0 0 0
M  V30 BEGIN ATOM
M  V30 1 N -1.8989 0.3953 0.7908 0
M  V30 2 C -1.9294 -0.8011 0.1448 0
M  V30 3 C -3.0058 0.8944 1.4017 0
M  V30 4 N -3.0849 -1.516 0.1005 0
M  V30 5 N -0.754 -1.307 -0.4883 0
M  V30 6 C -4.2068 0.1799 1.3461 0
M  V30 7 C -2.9462 2.2344 2.0639 0
M  V30 8 C -4.219 -1.0588 0.6954 0
M  V30 9 N 0.4222 -0.5362 -0.4999 0
M  V30 10 C -5.4826 -1.8527 0.5894 0
M  V30 11 C 1.5712 -0.9445 -0.9576 0
M  V30 12 C 2.7159 0.0014 -0.9556 0
M  V30 13 C 1.7443 -2.3279 -1.5294 0
M  V30 14 C 3.0377 0.7957 0.1778 0
M  V30 15 C 3.4941 0.1268 -2.1217 0
M  V30 16 C 4.1026 1.7111 0.0978 0
M  V30 17 C 2.2651 0.6956 1.4683 0
M  V30 18 C 4.5593 1.0271 -2.1747 0
M  V30 19 C 4.8601 1.8206 -1.0694 0
M  V30 20 H -0.8035 -2.2354 -0.963 0
M  V30 21 H -5.1076 0.5749 1.8015 0
M  V30 22 H -3.3075 3.0116 1.3579 0
M  V30 23 H -3.5804 2.2456 2.9768 0
M  V30 24 H -1.9016 2.4715 2.3581 0
M  V30 25 H -5.2495 -2.9299 0.4527 0
M  V30 26 H -6.0928 -1.7392 1.5112 0
M  V30 27 H -6.0704 -1.4964 -0.2824 0
M  V30 28 H 1.3742 -3.0883 -0.8094 0
M  V30 29 H 2.8156 -2.5501 -1.7208 0
M  V30 30 H 1.1853 -2.4119 -2.4849 0
M  V30 31 H 3.2654 -0.4613 -3.0023 0
M  V30 32 H 4.3564 2.3354 0.9463 0
M  V30 33 H 2.0558 -0.3667 1.7146 0
M  V30 34 H 2.8399 1.1239 2.3173 0
M  V30 35 H 1.3092 1.252 1.3747 0
M  V30 36 H 5.1482 1.1146 -3.078 0
M  V30 37 H 5.6828 2.5224 -1.1158 0
M  V30 END ATOM
M  V30 BEGIN BOND
M  V30 1 2 1 2
M  V30 2 1 1 3
M  V30 3 1 2 4
M  V30 4 1 2 5
M  V30 5 2 3 6
M  V30 6 1 3 7
M  V30 7 2 4 8
M  V30 8 1 5 9
M  V30 9 1 8 10
M  V30 10 2 9 11
M  V30 11 1 11 12
M  V30 12 1 11 13
M  V30 13 2 12 14
M  V30 14 1 12 15
M  V30 15 1 14 16
M  V30 16 1 14 17
M  V30 17 2 15 18
M  V30 18 2 16 19
M  V30 19 1 6 8
M  V30 20 1 18 19
M  V30 21 1 5 20
M  V30 22 1 6 21
M  V30 23 1 7 22
M  V30 24 1 7 23
M  V30 25 1 7 24
M  V30 26 1 10 25
M  V30 27 1 10 26
M  V30 28 1 10 27
M  V30 29 1 13 28
M  V30 30 1 13 29
M  V30 31 1 13 30
M  V30 32 1 15 31
M  V30 33 1 16 32
M  V30 34 1 17 33
M  V30 35 1 17 34
M  V30 36 1 17 35
M  V30 37 1 18 36
M  V30 38 1 19 37
M  V30 END BOND
M  V30 END CTAB
M  END
>  <Structure No>
5498

>  <LogS>
-3.1959

>  <MMFF94 Energy>
38.688

$$$$
Compound 5499
Actelion Java MolfileCreator 2.0

  0  0  0  0  0  0              0 V3000
M  V30 BEGIN CTAB
M  V30 COUNTS 18 19 0 0 0
M  V30 BEGIN ATOM
M  V30 1 O -2.7789 1.6666 0.2379 0
M  V30 2 C -1.5583 1.3671 0.1439 0
M  V30 3 N -0.6353 2.3772 0.0366 0
M  V30 4 N -1.1539 0.0473 0.1473 0
M  V30 5 C 0.7 2.1237 -0.0726 0
M  V30 6 C 0.1829 -0.1962 0.0325 0
M  V30 7 C -2.1032 -1.0681 0.2519 0
M  V30 8 C 1.0995 0.7999 -0.0738 0
M  V30 9 N 0.8038 -1.39 0.0017 0
M  V30 10 N 2.3331 0.2804 -0.1748 0
M  V30 11 C 2.1121 -1.0563 -0.1251 0
M  V30 12 O 3.036 -1.9091 -0.1918 0
M  V30 13 H 1.4139 2.9321 -0.1573 0
M  V30 14 H -1.831 -1.7147 1.1133 0
M  V30 15 H -3.145 -0.7189 0.4087 0
M  V30 16 H -2.0754 -1.6711 -0.6804 0
M  V30 17 H 0.388 -2.3462 0.0585 0
M  V30 18 H 3.2429 0.7842 -0.2708 0
M  V30 END ATOM
M  V30 BEGIN BOND
M  V30 1 2 1 2
M  V30 2 1 2 3
M  V30 3 1 2 4
M  V30 4 2 3 5
M  V30 5 1 4 6
M  V30 6 1 4 7
M  V30 7 1 5 8
M  V30 8 1 6 9
M  V30 9 1 8 10
M  V30 10 1 9 11
M  V30 11 2 11 12
M  V30 12 2 6 8
M  V30 13 1 10 11
M  V30 14 1 5 13
M  V30 15 1 7 14
M  V30 16 1 7 15
M  V30 17 1 7 16
M  V30 18 1 9 17
M  V30 19 1 10 18
M  V30 END BOND
M  V30 END CTAB
M  END
>  <Structure No>
5499

>  <LogS>
-0.794

>  <MMFF94 Energy>
-77.906

$$$$
Compound 5500
Actelion Java MolfileCreator 2.0

  0  0  0  0  0  0              0 V3000
M  V30 BEGIN CTAB
M  V30 COUNTS 38 39 0 0 0
M  V30 BEGIN ATOM
M  V30 1 Cl 5.7079 -3.1323 0.0802 0
M  V30 2 C 4.3292 -2.072 -0.147 0
M  V30 3 C 3.817 -1.3476 0.9335 0
M  V30 4 C 3.7411 -1.9487 -1.4091 0
M  V30 5 C 2.7175 -0.5018 0.7551 0
M  V30 6 C 2.6421 -1.1042 -1.59 0
M  V30 7 C 2.1167 -0.3771 -0.5141 0
M  V30 8 O 1.0093 0.4523 -0.759 0
M  V30 9 C 0.2476 1.1572 0.2268 0 CFG=1
M  V30 10 N -0.5262 2.2192 -0.4173 0
M  V30 11 C -0.65 0.1872 1.0599 0 CFG=1
M  V30 12 N -0.6667 2.3646 -1.7229 0
M  V30 13 C -1.1291 3.2576 0.1873 0
M  V30 14 O -1.1611 0.872 2.1782 0
M  V30 15 C -1.823 -0.5607 0.3203 0
M  V30 16 C -1.3814 3.4944 -1.8877 0
M  V30 17 N -1.6903 4.087 -0.7133 0
M  V30 18 C -2.3544 -1.6667 1.264 0
M  V30 19 C -3.0077 0.376 -0.0152 0
M  V30 20 C -1.3415 -1.2444 -0.9768 0
M  V30 21 H 4.2705 -1.4382 1.9123 0
M  V30 22 H 4.1338 -2.5064 -2.2498 0
M  V30 23 H 2.3499 0.0456 1.6108 0
M  V30 24 H 2.1918 -1.0167 -2.5708 0
M  V30 25 H 0.9596 1.6601 0.9168 0
M  V30 26 H 0.0324 -0.6106 1.434 0
M  V30 27 H -1.1525 3.4196 1.2569 0
M  V30 28 H -0.411 0.9947 2.8174 0
M  V30 29 H -1.6695 3.8874 -2.8532 0
M  V30 30 H -1.5494 -2.3897 1.519 0
M  V30 31 H -2.7417 -1.2284 2.209 0
M  V30 32 H -3.1825 -2.2354 0.7877 0
M  V30 33 H -2.7626 1.0732 -0.8369 0
M  V30 34 H -3.8846 -0.214 -0.3598 0
M  V30 35 H -3.3237 0.9632 0.8725 0
M  V30 36 H -2.144 -1.8837 -1.4045 0
M  V30 37 H -0.4583 -1.8882 -0.7766 0
M  V30 38 H -1.0772 -0.4952 -1.7515 0
M  V30 END ATOM
M  V30 BEGIN BOND
M  V30 1 1 1 2
M  V30 2 2 2 3
M  V30 3 1 2 4
M  V30 4 1 3 5
M  V30 5 2 4 6
M  V30 6 2 5 7
M  V30 7 1 7 8
M  V30 8 1 8 9
M  V30 9 1 9 10
M  V30 10 1 9 11
M  V30 11 1 10 12
M  V30 12 1 10 13
M  V30 13 1 11 14
M  V30 14 1 11 15
M  V30 15 2 12 16
M  V30 16 2 13 17
M  V30 17 1 15 18
M  V30 18 1 15 19
M  V30 19 1 15 20
M  V30 20 1 6 7
M  V30 21 1 16 17
M  V30 22 1 3 21
M  V30 23 1 4 22
M  V30 24 1 5 23
M  V30 25 1 6 24
M  V30 26 1 9 25
M  V30 27 1 11 26
M  V30 28 1 13 27
M  V30 29 1 14 28
M  V30 30 1 16 29
M  V30 31 1 18 30
M  V30 32 1 18 31
M  V30 33 1 18 32
M  V30 34 1 19 33
M  V30 35 1 19 34
M  V30 36 1 19 35
M  V30 37 1 20 36
M  V30 38 1 20 37
M  V30 39 1 20 38
M  V30 END BOND
M  V30 BEGIN COLLECTION
M  V30 MDLV30/STEABS ATOMS=(2 9 11)
M  V30 END COLLECTION
M  V30 END CTAB
M  END
>  <Structure No>
5500

>  <LogS>
-3.6786

>  <MMFF94 Energy>
86.657

$$$$
Compound 5501
Actelion Java MolfileCreator 2.0

  0  0  0  0  0  0              0 V3000
M  V30 BEGIN CTAB
M  V30 COUNTS 23 22 0 0 0
M  V30 BEGIN ATOM
M  V30 1 O 2.9451 1.2392 1.4717 0
M  V30 2 C 2.3433 1.4826 0.438 0
M  V30 3 C 2.19 0.4295 -0.6196 0
M  V30 4 C 1.3667 -0.7762 -0.1316 0
M  V30 5 C -0.0765 -0.4342 0.3238 0 CFG=1
M  V30 6 C -0.9581 0.0038 -0.8748 0
M  V30 7 C -0.6803 -1.6531 1.0425 0
M  V30 8 C -2.3795 0.4353 -0.4816 0
M  V30 9 O -2.3521 1.438 0.4984 0
M  V30 10 H 1.9253 2.4716 0.281 0
M  V30 11 H 3.2019 0.0755 -0.912 0
M  V30 12 H 1.7346 0.8754 -1.5267 0
M  V30 13 H 1.9221 -1.2437 0.7115 0
M  V30 14 H 1.3266 -1.5312 -0.9471 0
M  V30 15 H -0.0291 0.3951 1.0623 0
M  V30 16 H -1.0273 -0.8253 -1.6123 0
M  V30 17 H -0.4897 0.867 -1.3898 0
M  V30 18 H -0.8432 -2.4887 0.3286 0
M  V30 19 H -1.6444 -1.3897 1.5238 0
M  V30 20 H -0.0032 -2.0022 1.8512 0
M  V30 21 H -2.9556 -0.4321 -0.0996 0
M  V30 22 H -2.9165 0.8022 -1.3856 0
M  V30 23 H -2.0535 2.2694 0.0454 0
M  V30 END ATOM
M  V30 BEGIN BOND
M  V30 1 2 1 2
M  V30 2 1 2 3
M  V30 3 1 3 4
M  V30 4 1 4 5
M  V30 5 1 5 6
M  V30 6 1 5 7
M  V30 7 1 6 8
M  V30 8 1 8 9
M  V30 9 1 2 10
M  V30 10 1 3 11
M  V30 11 1 3 12
M  V30 12 1 4 13
M  V30 13 1 4 14
M  V30 14 1 5 15
M  V30 15 1 6 16
M  V30 16 1 6 17
M  V30 17 1 7 18
M  V30 18 1 7 19
M  V30 19 1 7 20
M  V30 20 1 8 21
M  V30 21 1 8 22
M  V30 22 1 9 23
M  V30 END BOND
M  V30 BEGIN COLLECTION
M  V30 MDLV30/STEABS ATOMS=(1 5)
M  V30 END COLLECTION
M  V30 END CTAB
M  END
>  <Structure No>
5501

>  <LogS>
-1.0732

>  <MMFF94 Energy>
8.999

$$$$
Compound 5502
Actelion Java MolfileCreator 2.0

  0  0  0  0  0  0              0 V3000
M  V30 BEGIN CTAB
M  V30 COUNTS 18 19 0 0 0
M  V30 BEGIN ATOM
M  V30 1 O 2.4099 -2.0079 -0.8028 0
M  V30 2 C 1.4433 -1.2563 -0.5015 0
M  V30 3 N 0.1734 -1.7028 -0.6968 0
M  V30 4 N 1.6666 -0.0045 0.0162 0
M  V30 5 C -0.8944 -0.9281 -0.3869 0
M  V30 6 C 0.6087 0.8009 0.3387 0
M  V30 7 C 3.0385 0.4734 0.2253 0
M  V30 8 N -2.1599 -1.3813 -0.5849 0
M  V30 9 C -0.6958 0.3532 0.1427 0
M  V30 10 C -3.2348 -0.607 -0.2753 0
M  V30 11 N -1.769 1.1277 0.4524 0
M  V30 12 C -3.0355 0.6728 0.2538 0
M  V30 13 H 0.7712 1.7915 0.7484 0
M  V30 14 H 3.5682 -0.2008 0.9316 0
M  V30 15 H 3.0583 1.5009 0.6491 0
M  V30 16 H 3.5829 0.4893 -0.7427 0
M  V30 17 H -4.2366 -0.9814 -0.4385 0
M  V30 18 H -3.8811 1.2992 0.5045 0
M  V30 END ATOM
M  V30 BEGIN BOND
M  V30 1 2 1 2
M  V30 2 1 2 3
M  V30 3 1 2 4
M  V30 4 2 3 5
M  V30 5 1 4 6
M  V30 6 1 4 7
M  V30 7 1 5 8
M  V30 8 1 5 9
M  V30 9 2 8 10
M  V30 10 1 9 11
M  V30 11 1 10 12
M  V30 12 2 6 9
M  V30 13 2 11 12
M  V30 14 1 6 13
M  V30 15 1 7 14
M  V30 16 1 7 15
M  V30 17 1 7 16
M  V30 18 1 10 17
M  V30 19 1 12 18
M  V30 END BOND
M  V30 END CTAB
M  END
>  <Structure No>
5502

>  <LogS>
-0.9089

>  <MMFF94 Energy>
24.105

$$$$
Compound 5503
Actelion Java MolfileCreator 2.0

  0  0  0  0  0  0              0 V3000
M  V30 BEGIN CTAB
M  V30 COUNTS 17 18 0 0 0
M  V30 BEGIN ATOM
M  V30 1 O -1.1416 -3.0194 -0.7338 0
M  V30 2 C -1.2529 -1.7657 -0.7266 0
M  V30 3 O -2.3449 -1.0729 -1.233 0
M  V30 4 C -0.2903 -0.8321 -0.2035 0
M  V30 5 C -2.1535 0.3372 -1.0682 0
M  V30 6 C -0.8122 0.4234 -0.3996 0
M  V30 7 C 0.949 -1.036 0.4 0
M  V30 8 C -0.1116 1.56 0.0037 0
M  V30 9 C 1.6741 0.0968 0.8153 0
M  V30 10 C 1.1429 1.3916 0.6166 0
M  V30 11 C 2.9587 -0.0643 1.4435 0
M  V30 12 N 3.9918 -0.1938 1.9486 0
M  V30 13 H -2.9464 0.7596 -0.4155 0
M  V30 14 H -2.1334 0.8411 -2.0572 0
M  V30 15 H 1.3361 -2.0376 0.542 0
M  V30 16 H -0.5234 2.5488 -0.151 0
M  V30 17 H 1.6986 2.2652 0.9351 0
M  V30 END ATOM
M  V30 BEGIN BOND
M  V30 1 2 1 2
M  V30 2 1 2 3
M  V30 3 1 2 4
M  V30 4 1 3 5
M  V30 5 2 4 6
M  V30 6 1 4 7
M  V30 7 1 6 8
M  V30 8 2 7 9
M  V30 9 2 8 10
M  V30 10 1 9 11
M  V30 11 3 11 12
M  V30 12 1 5 6
M  V30 13 1 9 10
M  V30 14 1 5 13
M  V30 15 1 5 14
M  V30 16 1 7 15
M  V30 17 1 8 16
M  V30 18 1 10 17
M  V30 END BOND
M  V30 END CTAB
M  END
>  <Structure No>
5503

>  <LogS>
-2.7021

>  <MMFF94 Energy>
34.481

$$$$
Compound 5504
Actelion Java MolfileCreator 2.0

  0  0  0  0  0  0              0 V3000
M  V30 BEGIN CTAB
M  V30 COUNTS 30 29 0 0 0
M  V30 BEGIN ATOM
M  V30 1 S -1.4081 0.1655 1.6568 0
M  V30 2 O -2.3649 -0.9104 2.0907 0
M  V30 3 O -0.8188 0.7887 2.8919 0
M  V30 4 C -0.0609 -0.5901 0.7016 0
M  V30 5 C -2.3419 1.4577 0.8295 0
M  V30 6 S 0.8596 0.6988 -0.1751 0
M  V30 7 C 0.8682 -1.3268 1.7008 0
M  V30 8 C -0.6432 -1.5969 -0.3081 0
M  V30 9 C -3.2162 0.9314 -0.3035 0
M  V30 10 O 0.0167 1.2423 -1.295 0
M  V30 11 O 1.1798 1.8164 0.7785 0
M  V30 12 C 2.3949 0.0947 -0.8704 0
M  V30 13 O 1.8328 -2.1109 1.0475 0
M  V30 14 C 3.0404 1.1467 -1.7641 0
M  V30 15 H -3.0014 1.9325 1.587 0
M  V30 16 H -1.6566 2.2425 0.4497 0
M  V30 17 H 0.2637 -1.9606 2.3922 0
M  V30 18 H 1.3984 -0.5833 2.3332 0
M  V30 19 H -1.3531 -1.1099 -1.0006 0
M  V30 20 H 0.1592 -2.0494 -0.9267 0
M  V30 21 H -1.1772 -2.4158 0.2193 0
M  V30 22 H -2.6062 0.7221 -1.203 0
M  V30 23 H -3.9618 1.7063 -0.5805 0
M  V30 24 H -3.7621 0.0159 0.0068 0
M  V30 25 H 2.1978 -0.8204 -1.4664 0
M  V30 26 H 3.0969 -0.1529 -0.0471 0
M  V30 27 H 1.4559 -3.0249 0.9583 0
M  V30 28 H 2.3773 1.3844 -2.6225 0
M  V30 29 H 3.241 2.0734 -1.1856 0
M  V30 30 H 4.0031 0.7584 -2.1581 0
M  V30 END ATOM
M  V30 BEGIN BOND
M  V30 1 2 1 2
M  V30 2 2 1 3
M  V30 3 1 1 4
M  V30 4 1 1 5
M  V30 5 1 4 6
M  V30 6 1 4 7
M  V30 7 1 4 8
M  V30 8 1 5 9
M  V30 9 2 6 10
M  V30 10 2 6 11
M  V30 11 1 6 12
M  V30 12 1 7 13
M  V30 13 1 12 14
M  V30 14 1 5 15
M  V30 15 1 5 16
M  V30 16 1 7 17
M  V30 17 1 7 18
M  V30 18 1 8 19
M  V30 19 1 8 20
M  V30 20 1 8 21
M  V30 21 1 9 22
M  V30 22 1 9 23
M  V30 23 1 9 24
M  V30 24 1 12 25
M  V30 25 1 12 26
M  V30 26 1 13 27
M  V30 27 1 14 28
M  V30 28 1 14 29
M  V30 29 1 14 30
M  V30 END BOND
M  V30 END CTAB
M  END
>  <Structure No>
5504

>  <LogS>
-0.1653

>  <MMFF94 Energy>
-53.04

$$$$
Compound 5505
Actelion Java MolfileCreator 2.0

  0  0  0  0  0  0              0 V3000
M  V30 BEGIN CTAB
M  V30 COUNTS 21 21 0 0 0
M  V30 BEGIN ATOM
M  V30 1 O -3.0789 1.8939 -0.0788 0
M  V30 2 C -2.8914 0.8081 -0.6877 0
M  V30 3 C -1.611 0.0733 -0.5917 0
M  V30 4 C -0.372 0.699 -0.2914 0
M  V30 5 C -1.6505 -1.3179 -0.7713 0
M  V30 6 N -0.2506 2.1289 -0.2296 0
M  V30 7 C 0.7793 -0.0968 -0.1082 0
M  V30 8 C -0.5004 -2.09 -0.6189 0
M  V30 9 O 1.9964 0.5023 0.2229 0
M  V30 10 C 0.7126 -1.4903 -0.2836 0
M  V30 11 C 2.4102 0.6314 1.5772 0
M  V30 12 O 1.8441 -2.2935 -0.1423 0
M  V30 13 H -3.7153 0.3762 -1.2417 0
M  V30 14 H -2.5839 -1.8143 -1.0098 0
M  V30 15 H -0.9363 2.7585 -0.6991 0
M  V30 16 H 0.6099 2.5814 0.1501 0
M  V30 17 H -0.5537 -3.1627 -0.7561 0
M  V30 18 H 1.6795 1.2494 2.1407 0
M  V30 19 H 3.4022 1.1263 1.6101 0
M  V30 20 H 2.4899 -0.3695 2.0511 0
M  V30 21 H 2.7573 -1.9101 0.0684 0
M  V30 END ATOM
M  V30 BEGIN BOND
M  V30 1 2 1 2
M  V30 2 1 2 3
M  V30 3 2 3 4
M  V30 4 1 3 5
M  V30 5 1 4 6
M  V30 6 1 4 7
M  V30 7 2 5 8
M  V30 8 1 7 9
M  V30 9 2 7 10
M  V30 10 1 9 11
M  V30 11 1 10 12
M  V30 12 1 8 10
M  V30 13 1 2 13
M  V30 14 1 5 14
M  V30 15 1 6 15
M  V30 16 1 6 16
M  V30 17 1 8 17
M  V30 18 1 11 18
M  V30 19 1 11 19
M  V30 20 1 11 20
M  V30 21 1 12 21
M  V30 END BOND
M  V30 END CTAB
M  END
>  <Structure No>
5505

>  <LogS>
-0.2232

>  <MMFF94 Energy>
65.92

$$$$
Compound 5506
Actelion Java MolfileCreator 2.0

  0  0  0  0  0  0              0 V3000
M  V30 BEGIN CTAB
M  V30 COUNTS 22 22 0 0 0
M  V30 BEGIN ATOM
M  V30 1 O -4.5033 1.063 -0.4087 0
M  V30 2 N -3.9429 0.4005 0.4891 0 CHG=1
M  V30 3 O -4.6966 -0.0447 1.5512 0 CHG=-1
M  V30 4 C -2.5342 0.1107 0.419 0
M  V30 5 C -1.7632 0.5538 -0.6689 0
M  V30 6 C -1.9135 -0.6312 1.4328 0
M  V30 7 C -0.3878 0.2669 -0.7527 0
M  V30 8 C -0.5473 -0.9056 1.3753 0
M  V30 9 C 0.2363 -0.4476 0.3029 0
M  V30 10 C 0.3365 0.6628 -1.983 0
M  V30 11 C 1.6993 -0.6683 0.3605 0
M  V30 12 O 0.0128 1.7126 -2.5997 0
M  V30 13 O 1.3373 -0.1465 -2.5076 0 CHG=-1
M  V30 14 O 2.1541 -1.7211 0.8875 0
M  V30 15 O 2.575 0.312 -0.1176 0
M  V30 16 C 3.989 0.1628 -0.0796 0
M  V30 17 H -2.2427 1.0996 -1.4725 0
M  V30 18 H -2.4818 -0.9902 2.281 0
M  V30 19 H -0.0939 -1.4532 2.193 0
M  V30 20 H 4.2931 -0.7257 -0.6722 0
M  V30 21 H 4.4624 1.0657 -0.5171 0
M  V30 22 H 4.3315 0.0495 0.9707 0
M  V30 END ATOM
M  V30 BEGIN BOND
M  V30 1 2 1 2
M  V30 2 1 2 3
M  V30 3 1 2 4
M  V30 4 2 4 5
M  V30 5 1 4 6
M  V30 6 1 5 7
M  V30 7 2 6 8
M  V30 8 2 7 9
M  V30 9 1 7 10
M  V30 10 1 9 11
M  V30 11 2 10 12
M  V30 12 1 10 13
M  V30 13 2 11 14
M  V30 14 1 11 15
M  V30 15 1 15 16
M  V30 16 1 8 9
M  V30 17 1 5 17
M  V30 18 1 6 18
M  V30 19 1 8 19
M  V30 20 1 16 20
M  V30 21 1 16 21
M  V30 22 1 16 22
M  V30 END BOND
M  V30 END CTAB
M  END
>  <Structure No>
5506

>  <LogS>
-2.0558

>  <MMFF94 Energy>
57.683

$$$$
Compound 5507
Actelion Java MolfileCreator 2.0

  0  0  0  0  0  0              0 V3000
M  V30 BEGIN CTAB
M  V30 COUNTS 25 24 0 0 0
M  V30 BEGIN ATOM
M  V30 1 O 0.2391 -2.3934 -1.1164 0
M  V30 2 C 0.2676 -1.919 0.0502 0
M  V30 3 O 0.3253 -2.7803 1.1386 0 CHG=-1
M  V30 4 C 0.2443 -0.4244 0.2726 0 CFG=2
M  V30 5 N -0.9727 0.1819 -0.3121 0 CHG=1
M  V30 6 C 1.5102 0.229 -0.329 0
M  V30 7 C -2.1954 -0.2396 0.399 0
M  V30 8 C 2.7964 -0.2343 0.3697 0
M  V30 9 C -3.4523 0.4011 -0.2064 0
M  V30 10 C 3.9862 0.4655 -0.2068 0
M  V30 11 C -3.4987 1.8456 0.0537 0
M  V30 12 O 4.3799 1.5559 0.2847 0
M  V30 13 O 4.6309 -0.0607 -1.3189 0 CHG=-1
M  V30 14 N -3.5349 2.9841 0.2586 0
M  V30 15 H 0.2557 -0.2276 1.3695 0
M  V30 16 H -0.8954 1.2238 -0.242 0
M  V30 17 H -1.0473 -0.074 -1.3253 0
M  V30 18 H 1.4326 1.3336 -0.2192 0
M  V30 19 H 1.5706 0.0015 -1.4166 0
M  V30 20 H -2.315 -1.343 0.3281 0
M  V30 21 H -2.1284 0.0265 1.4787 0
M  V30 22 H 2.7342 -0.0191 1.4589 0
M  V30 23 H 2.9304 -1.3295 0.2401 0
M  V30 24 H -3.4849 0.2233 -1.3022 0
M  V30 25 H -4.3529 -0.0642 0.2471 0
M  V30 END ATOM
M  V30 BEGIN BOND
M  V30 1 2 1 2
M  V30 2 1 2 3
M  V30 3 1 2 4
M  V30 4 1 4 5
M  V30 5 1 4 6
M  V30 6 1 5 7
M  V30 7 1 6 8
M  V30 8 1 7 9
M  V30 9 1 8 10
M  V30 10 1 9 11
M  V30 11 2 10 12
M  V30 12 1 10 13
M  V30 13 3 11 14
M  V30 14 1 4 15
M  V30 15 1 5 16
M  V30 16 1 5 17
M  V30 17 1 6 18
M  V30 18 1 6 19
M  V30 19 1 7 20
M  V30 20 1 7 21
M  V30 21 1 8 22
M  V30 22 1 8 23
M  V30 23 1 9 24
M  V30 24 1 9 25
M  V30 END BOND
M  V30 BEGIN COLLECTION
M  V30 MDLV30/STEABS ATOMS=(1 4)
M  V30 END COLLECTION
M  V30 END CTAB
M  END
>  <Structure No>
5507

>  <LogS>
-1.3015

>  <MMFF94 Energy>
-46.787

$$$$
Compound 5508
Actelion Java MolfileCreator 2.0

  0  0  0  0  0  0              0 V3000
M  V30 BEGIN CTAB
M  V30 COUNTS 27 27 0 0 0
M  V30 BEGIN ATOM
M  V30 1 O -0.6414 3.9339 -1.1227 0
M  V30 2 C -0.6072 2.7049 -0.8496 0
M  V30 3 N -0.15 2.2709 0.4272 0
M  V30 4 N -1.0483 1.7487 -1.8084 0
M  V30 5 C -0.0921 0.8805 0.7558 0
M  V30 6 C -0.9672 0.3448 -1.5458 0
M  V30 7 O 0.1588 0.5513 1.9475 0
M  V30 8 C -0.2506 -0.1993 -0.3126 0
M  V30 9 O -1.427 -0.4579 -2.4037 0
M  V30 10 C 1.1597 -0.6534 -0.788 0
M  V30 11 C -1.0533 -1.4096 0.2623 0
M  V30 12 C 2.0427 -1.209 0.3065 0
M  V30 13 C -2.4921 -1.0623 0.6658 0
M  V30 14 O 1.9061 -2.3688 0.6646 0
M  V30 15 C 3.1162 -0.3728 0.9386 0
M  V30 16 H 0.0991 2.9816 1.1518 0
M  V30 17 H -1.4501 2.0796 -2.7145 0
M  V30 18 H 1.0613 -1.4284 -1.5806 0
M  V30 19 H 1.6766 0.2091 -1.2651 0
M  V30 20 H -1.0872 -2.2317 -0.4859 0
M  V30 21 H -0.5449 -1.8179 1.1615 0
M  V30 22 H -2.9823 -1.9633 1.0911 0
M  V30 23 H -2.5042 -0.2636 1.4366 0
M  V30 24 H -3.0828 -0.7308 -0.2131 0
M  V30 25 H 4.1087 -0.8263 0.7354 0
M  V30 26 H 2.9548 -0.3292 2.0361 0
M  V30 27 H 3.1068 0.6632 0.5397 0
M  V30 END ATOM
M  V30 BEGIN BOND
M  V30 1 2 1 2
M  V30 2 1 2 3
M  V30 3 1 2 4
M  V30 4 1 3 5
M  V30 5 1 4 6
M  V30 6 2 5 7
M  V30 7 1 5 8
M  V30 8 2 6 9
M  V30 9 1 8 10
M  V30 10 1 8 11
M  V30 11 1 10 12
M  V30 12 1 11 13
M  V30 13 2 12 14
M  V30 14 1 12 15
M  V30 15 1 6 8
M  V30 16 1 3 16
M  V30 17 1 4 17
M  V30 18 1 10 18
M  V30 19 1 10 19
M  V30 20 1 11 20
M  V30 21 1 11 21
M  V30 22 1 13 22
M  V30 23 1 13 23
M  V30 24 1 13 24
M  V30 25 1 15 25
M  V30 26 1 15 26
M  V30 27 1 15 27
M  V30 END BOND
M  V30 END CTAB
M  END
>  <Structure No>
5508

>  <LogS>
-0.7661

>  <MMFF94 Energy>
-151.08

$$$$
Compound 5509
Actelion Java MolfileCreator 2.0

  0  0  0  0  0  0              0 V3000
M  V30 BEGIN CTAB
M  V30 COUNTS 30 29 0 0 0
M  V30 BEGIN ATOM
M  V30 1 O -4.4003 -1.7269 -0.6277 0
M  V30 2 C -4.1685 -0.9395 0.328 0
M  V30 3 O -4.299 -1.3929 1.6351 0 CHG=-1
M  V30 4 C -3.7171 0.4703 0.0648 0 CFG=2
M  V30 5 O -4.382 0.9632 -1.0701 0
M  V30 6 C -2.1837 0.5687 -0.1336 0 CFG=2
M  V30 7 O -1.7887 -0.1134 -1.2993 0
M  V30 8 C -1.3964 0.0881 1.1124 0
M  V30 9 C 0.0667 0.5649 1.1387 0
M  V30 10 C 0.9529 -0.1515 0.1091 0
M  V30 11 C 2.4318 0.1937 0.322 0
M  V30 12 C 3.3152 -0.5034 -0.719 0
M  V30 13 C 4.7878 -0.1635 -0.5087 0
M  V30 14 H -4.0051 1.0864 0.9489 0
M  V30 15 H -4.295 1.9523 -1.0485 0
M  V30 16 H -1.9511 1.6461 -0.2834 0
M  V30 17 H -1.8491 -1.0875 -1.1205 0
M  V30 18 H -1.8894 0.4981 2.0213 0
M  V30 19 H -1.4345 -1.0199 1.198 0
M  V30 20 H 0.1106 1.664 0.9754 0
M  V30 21 H 0.4678 0.3636 2.1566 0
M  V30 22 H 0.6603 0.1619 -0.9149 0
M  V30 23 H 0.8165 -1.2515 0.201 0
M  V30 24 H 2.7426 -0.1275 1.3408 0
M  V30 25 H 2.5675 1.2953 0.2419 0
M  V30 26 H 3.0148 -0.1833 -1.7406 0
M  V30 27 H 3.1859 -1.6052 -0.6428 0
M  V30 28 H 5.1211 -0.4968 0.4972 0
M  V30 29 H 4.9488 0.9314 -0.6046 0
M  V30 30 H 5.4018 -0.6812 -1.2756 0
M  V30 END ATOM
M  V30 BEGIN BOND
M  V30 1 2 1 2
M  V30 2 1 2 3
M  V30 3 1 2 4
M  V30 4 1 4 5
M  V30 5 1 4 6
M  V30 6 1 6 7
M  V30 7 1 6 8
M  V30 8 1 8 9
M  V30 9 1 9 10
M  V30 10 1 10 11
M  V30 11 1 11 12
M  V30 12 1 12 13
M  V30 13 1 4 14
M  V30 14 1 5 15
M  V30 15 1 6 16
M  V30 16 1 7 17
M  V30 17 1 8 18
M  V30 18 1 8 19
M  V30 19 1 9 20
M  V30 20 1 9 21
M  V30 21 1 10 22
M  V30 22 1 10 23
M  V30 23 1 11 24
M  V30 24 1 11 25
M  V30 25 1 12 26
M  V30 26 1 12 27
M  V30 27 1 13 28
M  V30 28 1 13 29
M  V30 29 1 13 30
M  V30 END BOND
M  V30 BEGIN COLLECTION
M  V30 MDLV30/STEABS ATOMS=(2 4 6)
M  V30 END COLLECTION
M  V30 END CTAB
M  END
>  <Structure No>
5509

>  <LogS>
-1.5469

>  <MMFF94 Energy>
59.337

$$$$
Compound 5510
Actelion Java MolfileCreator 2.0

  0  0  0  0  0  0              0 V3000
M  V30 BEGIN CTAB
M  V30 COUNTS 22 23 0 0 0
M  V30 BEGIN ATOM
M  V30 1 Cl -4.5542 0.6614 0.4133 0
M  V30 2 C -2.794 0.6293 0.3402 0
M  V30 3 C -2.0688 -0.5451 0.0244 0
M  V30 4 C -2.121 1.8374 0.5522 0
M  V30 5 C -0.6581 -0.4698 -0.0764 0
M  V30 6 C -2.7693 -1.8359 -0.196 0
M  V30 7 C -0.7329 1.9057 0.4552 0
M  V30 8 N 0.0797 -1.578 -0.3672 0
M  V30 9 C 0.0047 0.76 0.1422 0
M  V30 10 O -2.3463 -2.6531 -1.056 0
M  V30 11 O -3.889 -2.1722 0.5553 0 CHG=-1
M  V30 12 C 1.4347 -1.5455 -0.4619 0
M  V30 13 C 1.4017 0.8117 0.0454 0
M  V30 14 C 2.1289 -0.3491 -0.244 0
M  V30 15 C 3.6208 -0.2973 -0.3878 0
M  V30 16 H -2.6797 2.7354 0.7854 0
M  V30 17 H -0.2368 2.8544 0.6232 0
M  V30 18 H 1.9697 -2.4542 -0.7062 0
M  V30 19 H 1.924 1.7496 0.1988 0
M  V30 20 H 4.0518 0.4751 0.2843 0
M  V30 21 H 4.0747 -1.2756 -0.1218 0
M  V30 22 H 3.882 -0.0503 -1.4379 0
M  V30 END ATOM
M  V30 BEGIN BOND
M  V30 1 1 1 2
M  V30 2 2 2 3
M  V30 3 1 2 4
M  V30 4 1 3 5
M  V30 5 1 3 6
M  V30 6 2 4 7
M  V30 7 2 5 8
M  V30 8 1 5 9
M  V30 9 2 6 10
M  V30 10 1 6 11
M  V30 11 1 8 12
M  V30 12 2 9 13
M  V30 13 2 12 14
M  V30 14 1 14 15
M  V30 15 1 7 9
M  V30 16 1 13 14
M  V30 17 1 4 16
M  V30 18 1 7 17
M  V30 19 1 12 18
M  V30 20 1 13 19
M  V30 21 1 15 20
M  V30 22 1 15 21
M  V30 23 1 15 22
M  V30 END BOND
M  V30 END CTAB
M  END
>  <Structure No>
5510

>  <LogS>
-2.9973

>  <MMFF94 Energy>
39.688

$$$$
Compound 5511
Actelion Java MolfileCreator 2.0

  0  0  0  0  0  0              0 V3000
M  V30 BEGIN CTAB
M  V30 COUNTS 29 28 0 0 0
M  V30 BEGIN ATOM
M  V30 1 O -0.2353 2.9843 -0.5492 0
M  V30 2 C -0.0345 1.9289 -1.2071 0
M  V30 3 O 0.1482 2.0033 -2.5824 0 CHG=-1
M  V30 4 C 0.0276 0.5904 -0.506 0 CFG=1
M  V30 5 N 1.2104 0.5614 0.4046 0 CHG=1
M  V30 6 C -1.3173 0.288 0.2426 0 CFG=2
M  V30 7 C 2.0473 -0.6445 0.2268 0
M  V30 8 C -1.2909 -1.1131 0.9117 0
M  V30 9 C -2.5202 0.39 -0.7225 0
M  V30 10 C 2.9694 -0.5491 -1.0018 0
M  V30 11 C -2.5226 -1.4002 1.7744 0
M  V30 12 C 4.0506 0.4215 -0.7884 0
M  V30 13 N 4.9023 1.1867 -0.6202 0
M  V30 14 H 0.1283 -0.1785 -1.306 0
M  V30 15 H 1.8176 1.4048 0.2744 0
M  V30 16 H 0.9056 0.6109 1.4041 0
M  V30 17 H -1.4534 1.0541 1.0388 0
M  V30 18 H 1.4127 -1.5515 0.1251 0
M  V30 19 H 2.6714 -0.8012 1.1359 0
M  V30 20 H -1.1962 -1.9043 0.1362 0
M  V30 21 H -0.4147 -1.1977 1.5852 0
M  V30 22 H -2.4528 -0.3872 -1.5135 0
M  V30 23 H -2.5675 1.3874 -1.2057 0
M  V30 24 H -3.4781 0.2713 -0.177 0
M  V30 25 H 3.4278 -1.5432 -1.1876 0
M  V30 26 H 2.3957 -0.2613 -1.9069 0
M  V30 27 H -2.3433 -2.3128 2.3816 0
M  V30 28 H -2.7232 -0.5528 2.4639 0
M  V30 29 H -3.4144 -1.5883 1.1418 0
M  V30 END ATOM
M  V30 BEGIN BOND
M  V30 1 2 1 2
M  V30 2 1 2 3
M  V30 3 1 2 4
M  V30 4 1 4 5
M  V30 5 1 4 6
M  V30 6 1 5 7
M  V30 7 1 6 8
M  V30 8 1 6 9
M  V30 9 1 7 10
M  V30 10 1 8 11
M  V30 11 1 10 12
M  V30 12 3 12 13
M  V30 13 1 4 14
M  V30 14 1 5 15
M  V30 15 1 5 16
M  V30 16 1 6 17
M  V30 17 1 7 18
M  V30 18 1 7 19
M  V30 19 1 8 20
M  V30 20 1 8 21
M  V30 21 1 9 22
M  V30 22 1 9 23
M  V30 23 1 9 24
M  V30 24 1 10 25
M  V30 25 1 10 26
M  V30 26 1 11 27
M  V30 27 1 11 28
M  V30 28 1 11 29
M  V30 END BOND
M  V30 BEGIN COLLECTION
M  V30 MDLV30/STEABS ATOMS=(2 4 6)
M  V30 END COLLECTION
M  V30 END CTAB
M  END
>  <Structure No>
5511

>  <LogS>
-0.9818

>  <MMFF94 Energy>
5.5429

$$$$
Compound 5512
Actelion Java MolfileCreator 2.0

  0  0  0  0  0  0              0 V3000
M  V30 BEGIN CTAB
M  V30 COUNTS 27 28 0 0 0
M  V30 BEGIN ATOM
M  V30 1 O 4.4636 2.2299 2.0704 0
M  V30 2 C 3.6463 1.4971 1.4536 0
M  V30 3 N 2.3118 1.7387 1.5587 0
M  V30 4 N 4.0977 0.4659 0.684 0
M  V30 5 C 1.4135 0.9612 0.9024 0
M  V30 6 C 3.2283 -0.3352 0.0103 0
M  V30 7 N 0.083 1.2008 1.0097 0
M  V30 8 C 1.8579 -0.1 0.1068 0
M  V30 9 C -0.837 0.4296 0.3652 0
M  V30 10 N 0.9552 -0.8709 -0.5495 0
M  V30 11 C -0.3834 -0.6345 -0.4585 0
M  V30 12 C -2.292 0.7887 0.5191 0
M  V30 13 C -1.3156 -1.5591 -1.1969 0
M  V30 14 C -2.7166 1.7958 -0.5449 0
M  V30 15 C -1.6909 -2.756 -0.329 0
M  V30 16 H 5.1237 0.2835 0.6064 0
M  V30 17 H 3.6021 -1.15 -0.5976 0
M  V30 18 H -2.452 1.2419 1.5216 0
M  V30 19 H -2.9404 -0.1095 0.4708 0
M  V30 20 H -0.8104 -1.9297 -2.1149 0
M  V30 21 H -2.2321 -1.0315 -1.5313 0
M  V30 22 H -3.7902 2.0462 -0.4121 0
M  V30 23 H -2.1203 2.7285 -0.4509 0
M  V30 24 H -2.5736 1.3745 -1.5622 0
M  V30 25 H -2.2028 -2.4226 0.598 0
M  V30 26 H -2.3763 -3.4233 -0.8927 0
M  V30 27 H -0.7811 -3.3316 -0.0545 0
M  V30 END ATOM
M  V30 BEGIN BOND
M  V30 1 2 1 2
M  V30 2 1 2 3
M  V30 3 1 2 4
M  V30 4 2 3 5
M  V30 5 1 4 6
M  V30 6 1 5 7
M  V30 7 1 5 8
M  V30 8 2 7 9
M  V30 9 1 8 10
M  V30 10 1 9 11
M  V30 11 1 9 12
M  V30 12 1 11 13
M  V30 13 1 12 14
M  V30 14 1 13 15
M  V30 15 2 6 8
M  V30 16 2 10 11
M  V30 17 1 4 16
M  V30 18 1 6 17
M  V30 19 1 12 18
M  V30 20 1 12 19
M  V30 21 1 13 20
M  V30 22 1 13 21
M  V30 23 1 14 22
M  V30 24 1 14 23
M  V30 25 1 14 24
M  V30 26 1 15 25
M  V30 27 1 15 26
M  V30 28 1 15 27
M  V30 END BOND
M  V30 END CTAB
M  END
>  <Structure No>
5512

>  <LogS>
-2.2644

>  <MMFF94 Energy>
18.456

$$$$
Compound 5513
Actelion Java MolfileCreator 2.0

  0  0  0  0  0  0              0 V3000
M  V30 BEGIN CTAB
M  V30 COUNTS 30 30 0 0 0
M  V30 BEGIN ATOM
M  V30 1 O -3.1915 -0.5579 -1.9139 0
M  V30 2 C -2.2702 0.2335 -1.578 0
M  V30 3 O -1.6438 0.9965 -2.5562 0 CHG=-1
M  V30 4 C -1.8835 0.41 -0.1195 0
M  V30 5 O -0.4705 0.5237 0.0377 0
M  V30 6 C -2.4577 -0.7155 0.7761 0
M  V30 7 C -2.4869 1.7409 0.3532 0
M  V30 8 C 0.2722 -0.6058 -0.4123 0
M  V30 9 C 1.3485 -0.1338 -1.4225 0
M  V30 10 C 0.9296 -1.2959 0.7959 0
M  V30 11 C 2.7182 0.1762 -0.7837 0
M  V30 12 C 1.8806 -0.3516 1.5592 0
M  V30 13 C 2.5714 0.6863 0.6524 0
M  V30 14 H -3.569 -0.6839 0.7842 0
M  V30 15 H -2.1564 -1.7205 0.4155 0
M  V30 16 H -2.0993 -0.5938 1.8207 0
M  V30 17 H -2.2367 1.9215 1.4211 0
M  V30 18 H -3.5938 1.7392 0.2442 0
M  V30 19 H -2.0759 2.586 -0.2407 0
M  V30 20 H -0.3536 -1.3654 -0.934 0
M  V30 21 H 0.9834 0.7723 -1.9529 0
M  V30 22 H 1.4959 -0.9184 -2.1968 0
M  V30 23 H 0.1526 -1.6765 1.4917 0
M  V30 24 H 1.5025 -2.1787 0.4352 0
M  V30 25 H 3.3421 -0.7447 -0.7768 0
M  V30 26 H 3.2501 0.9361 -1.3962 0
M  V30 27 H 2.6525 -0.9654 2.0726 0
M  V30 28 H 1.3101 0.1872 2.3471 0
M  V30 29 H 1.9775 1.6268 0.6418 0
M  V30 30 H 3.5744 0.9301 1.0646 0
M  V30 END ATOM
M  V30 BEGIN BOND
M  V30 1 2 1 2
M  V30 2 1 2 3
M  V30 3 1 2 4
M  V30 4 1 4 5
M  V30 5 1 4 6
M  V30 6 1 4 7
M  V30 7 1 5 8
M  V30 8 1 8 9
M  V30 9 1 8 10
M  V30 10 1 9 11
M  V30 11 1 10 12
M  V30 12 1 11 13
M  V30 13 1 12 13
M  V30 14 1 6 14
M  V30 15 1 6 15
M  V30 16 1 6 16
M  V30 17 1 7 17
M  V30 18 1 7 18
M  V30 19 1 7 19
M  V30 20 1 8 20
M  V30 21 1 9 21
M  V30 22 1 9 22
M  V30 23 1 10 23
M  V30 24 1 10 24
M  V30 25 1 11 25
M  V30 26 1 11 26
M  V30 27 1 12 27
M  V30 28 1 12 28
M  V30 29 1 13 29
M  V30 30 1 13 30
M  V30 END BOND
M  V30 END CTAB
M  END
>  <Structure No>
5513

>  <LogS>
-1.0798

>  <MMFF94 Energy>
78.724

$$$$
Compound 5514
Actelion Java MolfileCreator 2.0

  0  0  0  0  0  0              0 V3000
M  V30 BEGIN CTAB
M  V30 COUNTS 24 24 0 0 0
M  V30 BEGIN ATOM
M  V30 1 O -1.7499 2.5461 -1.9091 0
M  V30 2 C -1.1558 2.4179 -0.8064 0
M  V30 3 O 0.009 3.135 -0.5648 0 CHG=-1
M  V30 4 C -1.6755 1.4605 0.2234 0
M  V30 5 C -1.228 0.017 -0.0593 0 CFG=2
M  V30 6 O -1.8541 -0.8364 0.8844 0
M  V30 7 C 0.2812 -0.1035 0.0474 0
M  V30 8 C -1.9646 -2.1465 0.3702 0
M  V30 9 C 1.0657 -0.221 -1.1132 0
M  V30 10 C 0.9161 -0.0685 1.3025 0
M  V30 11 C 2.4574 -0.3129 -1.0182 0
M  V30 12 C 2.3081 -0.1611 1.3923 0
M  V30 13 C 3.0781 -0.2841 0.2331 0
M  V30 14 H -2.7866 1.5036 0.2217 0
M  V30 15 H -1.3341 1.7796 1.2321 0
M  V30 16 H -1.562 -0.2216 -1.0993 0
M  V30 17 H -0.9739 -2.5534 0.069 0
M  V30 18 H -2.3704 -2.8052 1.165 0
M  V30 19 H -2.673 -2.1763 -0.4865 0
M  V30 20 H 0.6011 -0.2386 -2.0911 0
M  V30 21 H 0.3332 0.0312 2.2096 0
M  V30 22 H 3.0554 -0.4044 -1.9156 0
M  V30 23 H 2.7901 -0.1355 2.361 0
M  V30 24 H 4.1556 -0.3548 0.3044 0
M  V30 END ATOM
M  V30 BEGIN BOND
M  V30 1 2 1 2
M  V30 2 1 2 3
M  V30 3 1 2 4
M  V30 4 1 4 5
M  V30 5 1 5 6
M  V30 6 1 5 7
M  V30 7 1 6 8
M  V30 8 2 7 9
M  V30 9 1 7 10
M  V30 10 1 9 11
M  V30 11 2 10 12
M  V30 12 2 11 13
M  V30 13 1 12 13
M  V30 14 1 4 14
M  V30 15 1 4 15
M  V30 16 1 5 16
M  V30 17 1 8 17
M  V30 18 1 8 18
M  V30 19 1 8 19
M  V30 20 1 9 20
M  V30 21 1 10 21
M  V30 22 1 11 22
M  V30 23 1 12 23
M  V30 24 1 13 24
M  V30 END BOND
M  V30 BEGIN COLLECTION
M  V30 MDLV30/STEABS ATOMS=(1 5)
M  V30 END COLLECTION
M  V30 END CTAB
M  END
>  <Structure No>
5514

>  <LogS>
-1.6952

>  <MMFF94 Energy>
27.731

$$$$
Compound 5515
Actelion Java MolfileCreator 2.0

  0  0  0  0  0  0              0 V3000
M  V30 BEGIN CTAB
M  V30 COUNTS 27 28 0 0 0
M  V30 BEGIN ATOM
M  V30 1 O 2.858 2.3676 2.4493 0
M  V30 2 N 2.8789 1.8539 1.3119 0 CHG=1
M  V30 3 O 3.667 2.4313 0.3433 0 CHG=-1
M  V30 4 C 2.0949 0.6796 1.0218 0 CHG=-1 CFG=2
M  V30 5 C 0.982 0.2705 1.9072 0
M  V30 6 C 2.349 -0.1243 -0.1987 0
M  V30 7 O 0.6154 1.0054 2.8629 0
M  V30 8 C 0.3034 -1.049 1.6967 0
M  V30 9 O 3.3265 0.1494 -0.9446 0
M  V30 10 C 1.492 -1.3138 -0.5519 0
M  V30 11 C 0.1419 -1.3767 0.2023 0 CFG=1
M  V30 12 C -0.9747 -0.5568 -0.436 0
M  V30 13 C -0.7598 0.7302 -0.9721 0
M  V30 14 C -2.2855 -1.0726 -0.4313 0
M  V30 15 C -1.8225 1.4613 -1.5117 0
M  V30 16 C -3.3439 -0.3367 -0.9719 0
M  V30 17 C -3.1123 0.9282 -1.514 0
M  V30 18 H -0.692 -1.0514 2.1937 0
M  V30 19 H 0.9199 -1.8374 2.1804 0
M  V30 20 H 1.3084 -1.3283 -1.6485 0
M  V30 21 H 2.0773 -2.2268 -0.3072 0
M  V30 22 H -0.1708 -2.4445 0.1509 0
M  V30 23 H 0.2202 1.1795 -0.9823 0
M  V30 24 H -2.4908 -2.0466 -0.0048 0
M  V30 25 H -1.6455 2.4456 -1.926 0
M  V30 26 H -4.3457 -0.7466 -0.9663 0
M  V30 27 H -3.9332 1.4974 -1.9309 0
M  V30 END ATOM
M  V30 BEGIN BOND
M  V30 1 2 1 2
M  V30 2 1 2 3
M  V30 3 1 2 4
M  V30 4 1 4 5
M  V30 5 1 4 6
M  V30 6 2 5 7
M  V30 7 1 5 8
M  V30 8 2 6 9
M  V30 9 1 6 10
M  V30 10 1 8 11
M  V30 11 1 11 12
M  V30 12 2 12 13
M  V30 13 1 12 14
M  V30 14 1 13 15
M  V30 15 2 14 16
M  V30 16 2 15 17
M  V30 17 1 10 11
M  V30 18 1 16 17
M  V30 19 1 8 18
M  V30 20 1 8 19
M  V30 21 1 10 20
M  V30 22 1 10 21
M  V30 23 1 11 22
M  V30 24 1 13 23
M  V30 25 1 14 24
M  V30 26 1 15 25
M  V30 27 1 16 26
M  V30 28 1 17 27
M  V30 END BOND
M  V30 BEGIN COLLECTION
M  V30 MDLV30/STEABS ATOMS=(2 4 11)
M  V30 END COLLECTION
M  V30 END CTAB
M  END
>  <Structure No>
5515

>  <LogS>
-1.6688

>  <MMFF94 Energy>
-30.903

$$$$
Compound 5516
Actelion Java MolfileCreator 2.0

  0  0  0  0  0  0              0 V3000
M  V30 BEGIN CTAB
M  V30 COUNTS 35 36 0 0 0
M  V30 BEGIN ATOM
M  V30 1 O 2.2296 -0.2387 2.2296 0
M  V30 2 C 1.5382 0.6213 1.6179 0
M  V30 3 N 1.8765 0.9943 0.272 0
M  V30 4 C 0.4026 1.3235 2.3348 0
M  V30 5 C 2.6792 0.1883 -0.6068 0
M  V30 6 O 0.7883 2.6497 2.5976 0
M  V30 7 O 0.1035 0.6875 3.5577 0
M  V30 8 C -0.834 1.3305 1.4598 0
M  V30 9 C 2.6582 -1.2175 -0.5372 0
M  V30 10 C 3.4536 0.8119 -1.5977 0
M  V30 11 O -1.3851 2.4273 1.1671 0
M  V30 12 N -1.3596 0.0958 0.9402 0
M  V30 13 C 3.4278 -1.9784 -1.4228 0
M  V30 14 C 4.2225 0.0474 -2.4806 0
M  V30 15 C -2.6085 -0.0139 0.2372 0
M  V30 16 C 4.2127 -1.3466 -2.3907 0
M  V30 17 C -2.7303 -0.9438 -0.8074 0
M  V30 18 C -3.7317 0.7469 0.6117 0
M  V30 19 C -3.9414 -1.0849 -1.4918 0
M  V30 20 C -4.9418 0.6022 -0.0746 0
M  V30 21 C -5.0454 -0.3094 -1.1282 0
M  V30 22 H 1.556 1.9283 -0.0708 0
M  V30 23 H 1.5253 2.6176 3.2634 0
M  V30 24 H -0.157 -0.2514 3.364 0
M  V30 25 H 2.0306 -1.7285 0.1807 0
M  V30 26 H 3.4671 1.8916 -1.6793 0
M  V30 27 H -0.7539 -0.7544 0.9872 0
M  V30 28 H 3.4086 -3.059 -1.3642 0
M  V30 29 H 4.8241 0.5361 -3.2361 0
M  V30 30 H 4.8063 -1.9374 -3.0761 0
M  V30 31 H -1.882 -1.5514 -1.097 0
M  V30 32 H -3.684 1.4319 1.4477 0
M  V30 33 H -4.0247 -1.797 -2.3026 0
M  V30 34 H -5.8022 1.1907 0.2168 0
M  V30 35 H -5.9832 -0.421 -1.6571 0
M  V30 END ATOM
M  V30 BEGIN BOND
M  V30 1 2 1 2
M  V30 2 1 2 3
M  V30 3 1 2 4
M  V30 4 1 3 5
M  V30 5 1 4 6
M  V30 6 1 4 7
M  V30 7 1 4 8
M  V30 8 2 5 9
M  V30 9 1 5 10
M  V30 10 2 8 11
M  V30 11 1 8 12
M  V30 12 1 9 13
M  V30 13 2 10 14
M  V30 14 1 12 15
M  V30 15 2 13 16
M  V30 16 2 15 17
M  V30 17 1 15 18
M  V30 18 1 17 19
M  V30 19 2 18 20
M  V30 20 2 19 21
M  V30 21 1 14 16
M  V30 22 1 20 21
M  V30 23 1 3 22
M  V30 24 1 6 23
M  V30 25 1 7 24
M  V30 26 1 9 25
M  V30 27 1 10 26
M  V30 28 1 12 27
M  V30 29 1 13 28
M  V30 30 1 14 29
M  V30 31 1 16 30
M  V30 32 1 17 31
M  V30 33 1 18 32
M  V30 34 1 19 33
M  V30 35 1 20 34
M  V30 36 1 21 35
M  V30 END BOND
M  V30 END CTAB
M  END
>  <Structure No>
5516

>  <LogS>
-2.4568

>  <MMFF94 Energy>
85.377

$$$$
Compound 5517
Actelion Java MolfileCreator 2.0

  0  0  0  0  0  0              0 V3000
M  V30 BEGIN CTAB
M  V30 COUNTS 29 29 0 0 0
M  V30 BEGIN ATOM
M  V30 1 O -3.1863 2.0702 -2.2296 0
M  V30 2 C -2.3794 1.5327 -1.4235 0
M  V30 3 N -2.6921 0.2745 -0.8068 0
M  V30 4 N -1.1598 2.1996 -1.1065 0
M  V30 5 C -1.7749 -0.2879 0.1511 0
M  V30 6 C -4.0063 -0.3416 -1.0178 0
M  V30 7 C -0.1939 1.6048 -0.2376 0
M  V30 8 O -2.1627 -1.2254 0.9037 0
M  V30 9 C -0.3163 0.1502 0.1929 0 CFG=2
M  V30 10 O 0.8104 2.2851 0.1089 0
M  V30 11 C 0.4693 -0.757 -0.791 0
M  V30 12 C 0.2205 -0.0102 1.637 0
M  V30 13 C 1.9389 -0.4247 -0.8786 0
M  V30 14 C 2.8557 -1.0856 -0.1584 0
M  V30 15 C 4.3056 -0.7223 -0.2393 0
M  V30 16 H -0.9823 3.1539 -1.4937 0
M  V30 17 H -4.7333 0.0727 -0.2883 0
M  V30 18 H -4.371 -0.1498 -2.049 0
M  V30 19 H -3.9481 -1.4437 -0.8919 0
M  V30 20 H 0.0395 -0.6497 -1.8115 0
M  V30 21 H 0.341 -1.8261 -0.5073 0
M  V30 22 H 0.2051 -1.0768 1.9491 0
M  V30 23 H -0.403 0.5748 2.3476 0
M  V30 24 H 1.2673 0.3496 1.7256 0
M  V30 25 H 2.2477 0.3917 -1.526 0
M  V30 26 H 2.5535 -1.8931 0.5027 0
M  V30 27 H 4.6707 -0.8507 -1.2801 0
M  V30 28 H 4.8948 -1.3811 0.4321 0
M  V30 29 H 4.4494 0.3327 0.0758 0
M  V30 END ATOM
M  V30 BEGIN BOND
M  V30 1 2 1 2
M  V30 2 1 2 3
M  V30 3 1 2 4
M  V30 4 1 3 5
M  V30 5 1 3 6
M  V30 6 1 4 7
M  V30 7 2 5 8
M  V30 8 1 5 9
M  V30 9 2 7 10
M  V30 10 1 9 11
M  V30 11 1 9 12
M  V30 12 1 11 13
M  V30 13 2 13 14
M  V30 14 1 14 15
M  V30 15 1 7 9
M  V30 16 1 4 16
M  V30 17 1 6 17
M  V30 18 1 6 18
M  V30 19 1 6 19
M  V30 20 1 11 20
M  V30 21 1 11 21
M  V30 22 1 12 22
M  V30 23 1 12 23
M  V30 24 1 12 24
M  V30 25 1 13 25
M  V30 26 1 14 26
M  V30 27 1 15 27
M  V30 28 1 15 28
M  V30 29 1 15 29
M  V30 END BOND
M  V30 BEGIN COLLECTION
M  V30 MDLV30/STEABS ATOMS=(1 9)
M  V30 END COLLECTION
M  V30 END CTAB
M  END
>  <Structure No>
5517

>  <LogS>
-1.5445

>  <MMFF94 Energy>
-109.88

$$$$
Compound 5518
Actelion Java MolfileCreator 2.0

  0  0  0  0  0  0              0 V3000
M  V30 BEGIN CTAB
M  V30 COUNTS 19 18 0 0 0
M  V30 BEGIN ATOM
M  V30 1 O 0.6189 -1.0059 1.6254 0
M  V30 2 C 0.058 -0.7781 0.5186 0
M  V30 3 O 0.8009 -0.7551 -0.6678 0
M  V30 4 C -1.4119 -0.4944 0.4746 0 CFG=2
M  V30 5 C 2.2161 -0.9241 -0.711 0
M  V30 6 O -1.9837 -1.2105 -0.5883 0
M  V30 7 C -1.6436 0.9833 0.2851 0
M  V30 8 C 2.9229 0.3452 -0.2501 0
M  V30 9 C -2.8621 1.5163 0.4116 0
M  V30 10 H -1.863 -0.8173 1.4432 0
M  V30 11 H 2.5231 -1.7879 -0.082 0
M  V30 12 H 2.5146 -1.1376 -1.759 0
M  V30 13 H -2.9511 -1.3068 -0.3862 0
M  V30 14 H -0.8106 1.6401 0.0457 0
M  V30 15 H 2.606 1.2043 -0.8785 0
M  V30 16 H 2.6787 0.5612 0.8108 0
M  V30 17 H 4.0215 0.2159 -0.344 0
M  V30 18 H -3.7208 0.8984 0.6563 0
M  V30 19 H -3.0054 2.5829 0.2726 0
M  V30 END ATOM
M  V30 BEGIN BOND
M  V30 1 2 1 2
M  V30 2 1 2 3
M  V30 3 1 2 4
M  V30 4 1 3 5
M  V30 5 1 4 6
M  V30 6 1 4 7
M  V30 7 1 5 8
M  V30 8 2 7 9
M  V30 9 1 4 10
M  V30 10 1 5 11
M  V30 11 1 5 12
M  V30 12 1 6 13
M  V30 13 1 7 14
M  V30 14 1 8 15
M  V30 15 1 8 16
M  V30 16 1 8 17
M  V30 17 1 9 18
M  V30 18 1 9 19
M  V30 END BOND
M  V30 BEGIN COLLECTION
M  V30 MDLV30/STEABS ATOMS=(1 4)
M  V30 END COLLECTION
M  V30 END CTAB
M  END
>  <Structure No>
5518

>  <LogS>
0.3627

>  <MMFF94 Energy>
44.843

$$$$
Compound 5519
Actelion Java MolfileCreator 2.0

  0  0  0  0  0  0              0 V3000
M  V30 BEGIN CTAB
M  V30 COUNTS 37 38 0 0 0
M  V30 BEGIN ATOM
M  V30 1 O 1.8297 -1.193 -0.7156 0
M  V30 2 C 0.9373 -0.7916 0.324 0 CFG=2
M  V30 3 C 2.8266 -0.2293 -1.0328 0 CFG=2
M  V30 4 O -0.1114 0.0049 -0.1995 0
M  V30 5 C 1.6225 -0.0385 1.4865 0
M  V30 6 C 3.7381 0.1075 0.1749 0
M  V30 7 C 2.2355 1.0214 -1.7034 0
M  V30 8 C -1.0548 -0.7853 -0.9024 0 CFG=1
M  V30 9 C 3.1159 -0.3272 1.5016 0
M  V30 10 O -1.9027 -1.5045 -0.0113 0
M  V30 11 C -1.8483 0.0927 -1.879 0
M  V30 12 C -2.8096 -0.6881 0.7251 0 CFG=2
M  V30 13 C -2.7651 1.0457 -1.124 0
M  V30 14 C -3.6458 0.2527 -0.1654 0
M  V30 15 C -2.1353 0.0364 1.9005 0
M  V30 16 H 0.5283 -1.726 0.7751 0
M  V30 17 H 3.4775 -0.6979 -1.8029 0
M  V30 18 H 1.1747 -0.3465 2.4565 0
M  V30 19 H 1.467 1.0583 1.3859 0
M  V30 20 H 4.717 -0.4081 0.0621 0
M  V30 21 H 3.9519 1.1986 0.2122 0
M  V30 22 H 1.5335 0.7218 -2.5099 0
M  V30 23 H 1.6984 1.6593 -0.9719 0
M  V30 24 H 3.05 1.6264 -2.1555 0
M  V30 25 H -0.5331 -1.5333 -1.5434 0
M  V30 26 H 3.5991 0.2176 2.3413 0
M  V30 27 H 3.2802 -1.4167 1.6555 0
M  V30 28 H -1.1482 0.6763 -2.5151 0
M  V30 29 H -2.4583 -0.5558 -2.5459 0
M  V30 30 H -3.5377 -1.3863 1.1928 0
M  V30 31 H -2.1618 1.7933 -0.5651 0
M  V30 32 H -3.405 1.5962 -1.8468 0
M  V30 33 H -4.2414 0.9517 0.4612 0
M  V30 34 H -4.3623 -0.3569 -0.7589 0
M  V30 35 H -2.9087 0.3963 2.612 0
M  V30 36 H -1.5505 0.9166 1.5676 0
M  V30 37 H -1.4653 -0.6641 2.4417 0
M  V30 END ATOM
M  V30 BEGIN BOND
M  V30 1 1 1 2
M  V30 2 1 1 3
M  V30 3 1 2 4
M  V30 4 1 2 5
M  V30 5 1 3 6
M  V30 6 1 3 7
M  V30 7 1 4 8
M  V30 8 1 5 9
M  V30 9 1 8 10
M  V30 10 1 8 11
M  V30 11 1 10 12
M  V30 12 1 11 13
M  V30 13 1 12 14
M  V30 14 1 12 15
M  V30 15 1 6 9
M  V30 16 1 13 14
M  V30 17 1 2 16
M  V30 18 1 3 17
M  V30 19 1 5 18
M  V30 20 1 5 19
M  V30 21 1 6 20
M  V30 22 1 6 21
M  V30 23 1 7 22
M  V30 24 1 7 23
M  V30 25 1 7 24
M  V30 26 1 8 25
M  V30 27 1 9 26
M  V30 28 1 9 27
M  V30 29 1 11 28
M  V30 30 1 11 29
M  V30 31 1 12 30
M  V30 32 1 13 31
M  V30 33 1 13 32
M  V30 34 1 14 33
M  V30 35 1 14 34
M  V30 36 1 15 35
M  V30 37 1 15 36
M  V30 38 1 15 37
M  V30 END BOND
M  V30 BEGIN COLLECTION
M  V30 MDLV30/STEABS ATOMS=(4 2 3 8 12)
M  V30 END COLLECTION
M  V30 END CTAB
M  END
>  <Structure No>
5519

>  <LogS>
-1.1083

>  <MMFF94 Energy>
-10.881

$$$$
Compound 5520
Actelion Java MolfileCreator 2.0

  0  0  0  0  0  0              0 V3000
M  V30 BEGIN CTAB
M  V30 COUNTS 26 27 0 0 0
M  V30 BEGIN ATOM
M  V30 1 O 2.795 -1.8361 -0.7181 0
M  V30 2 C 1.9664 -0.9237 -0.4354 0
M  V30 3 N 2.4374 0.3134 -0.0764 0
M  V30 4 N 0.6117 -1.1808 -0.4946 0
M  V30 5 C 1.5648 1.3326 0.1746 0
M  V30 6 C 3.8899 0.5659 -0.0437 0
M  V30 7 C -0.2928 -0.174 -0.1925 0
M  V30 8 C 0.1622 -2.533 -0.8906 0
M  V30 9 O 1.9913 2.4902 0.4476 0
M  V30 10 C 0.193 1.1063 0.1335 0
M  V30 11 C -1.7128 -0.3359 -0.1917 0
M  V30 12 N -0.6623 2.1216 0.4103 0
M  V30 13 O -2.2403 -1.4533 -0.442 0
M  V30 14 N -2.5317 0.7276 0.0913 0
M  V30 15 C -2.0014 1.9456 0.39 0
M  V30 16 C -3.9914 0.558 0.0909 0
M  V30 17 H 4.2411 0.852 -1.0574 0
M  V30 18 H 4.1476 1.3753 0.6723 0
M  V30 19 H 4.4464 -0.3336 0.2957 0
M  V30 20 H 0.9939 -3.2168 -1.1554 0
M  V30 21 H -0.3812 -3.0139 -0.0498 0
M  V30 22 H -0.478 -2.4716 -1.7961 0
M  V30 23 H -2.6403 2.7893 0.6201 0
M  V30 24 H -4.5213 1.5174 0.2769 0
M  V30 25 H -4.2857 -0.16 0.8857 0
M  V30 26 H -4.3267 0.1704 -0.8947 0
M  V30 END ATOM
M  V30 BEGIN BOND
M  V30 1 2 1 2
M  V30 2 1 2 3
M  V30 3 1 2 4
M  V30 4 1 3 5
M  V30 5 1 3 6
M  V30 6 1 4 7
M  V30 7 1 4 8
M  V30 8 2 5 9
M  V30 9 1 5 10
M  V30 10 1 7 11
M  V30 11 1 10 12
M  V30 12 2 11 13
M  V30 13 1 11 14
M  V30 14 2 12 15
M  V30 15 1 14 16
M  V30 16 2 7 10
M  V30 17 1 14 15
M  V30 18 1 6 17
M  V30 19 1 6 18
M  V30 20 1 6 19
M  V30 21 1 8 20
M  V30 22 1 8 21
M  V30 23 1 8 22
M  V30 24 1 15 23
M  V30 25 1 16 24
M  V30 26 1 16 25
M  V30 27 1 16 26
M  V30 END BOND
M  V30 END CTAB
M  END
>  <Structure No>
5520

>  <LogS>
-1.985

>  <MMFF94 Energy>
-71.276

$$$$
Compound 5521
Actelion Java MolfileCreator 2.0

  0  0  0  0  0  0              0 V3000
M  V30 BEGIN CTAB
M  V30 COUNTS 28 29 0 0 0
M  V30 BEGIN ATOM
M  V30 1 S 2.2356 -0.662 -1.3243 0
M  V30 2 O 2.2782 -0.4892 -2.8161 0
M  V30 3 O 2.9764 -1.9178 -0.9547 0
M  V30 4 N 2.9994 0.7034 -0.5666 0
M  V30 5 C 0.5539 -0.7754 -0.8113 0
M  V30 6 C 3.0972 0.4789 0.8765 0
M  V30 7 C -0.2103 0.3906 -0.6717 0
M  V30 8 C -0.026 -2.0241 -0.5497 0
M  V30 9 C 3.6241 1.7095 1.5403 0
M  V30 10 C -1.5496 0.3142 -0.2608 0
M  V30 11 C -1.3597 -2.112 -0.1412 0
M  V30 12 O 2.8419 2.6478 1.8456 0
M  V30 13 O 4.9863 1.8444 1.7752 0 CHG=-1
M  V30 14 C -2.1299 -0.9494 0.0077 0
M  V30 15 C -2.3206 1.4778 -0.1125 0
M  V30 16 C -3.4698 -1.0253 0.419 0
M  V30 17 C -3.654 1.3884 0.298 0
M  V30 18 C -4.2265 0.1413 0.5628 0
M  V30 19 H 3.9699 0.7601 -0.954 0
M  V30 20 H 3.778 -0.374 1.0927 0
M  V30 21 H 2.0962 0.2486 1.3021 0
M  V30 22 H 0.2402 1.3539 -0.8806 0
M  V30 23 H 0.5523 -2.932 -0.6619 0
M  V30 24 H -1.7884 -3.087 0.0576 0
M  V30 25 H -1.8935 2.4532 -0.3132 0
M  V30 26 H -3.9302 -1.9834 0.6286 0
M  V30 27 H -4.2451 2.288 0.4112 0
M  V30 28 H -5.2595 0.0787 0.8803 0
M  V30 END ATOM
M  V30 BEGIN BOND
M  V30 1 2 1 2
M  V30 2 2 1 3
M  V30 3 1 1 4
M  V30 4 1 1 5
M  V30 5 1 4 6
M  V30 6 2 5 7
M  V30 7 1 5 8
M  V30 8 1 6 9
M  V30 9 1 7 10
M  V30 10 2 8 11
M  V30 11 2 9 12
M  V30 12 1 9 13
M  V30 13 1 10 14
M  V30 14 2 10 15
M  V30 15 2 14 16
M  V30 16 1 15 17
M  V30 17 1 16 18
M  V30 18 1 11 14
M  V30 19 2 17 18
M  V30 20 1 4 19
M  V30 21 1 6 20
M  V30 22 1 6 21
M  V30 23 1 7 22
M  V30 24 1 8 23
M  V30 25 1 11 24
M  V30 26 1 15 25
M  V30 27 1 16 26
M  V30 28 1 17 27
M  V30 29 1 18 28
M  V30 END BOND
M  V30 END CTAB
M  END
>  <Structure No>
5521

>  <LogS>
-2.8497

>  <MMFF94 Energy>
26.829

$$$$
Compound 5522
Actelion Java MolfileCreator 2.0

  0  0  0  0  0  0              0 V3000
M  V30 BEGIN CTAB
M  V30 COUNTS 42 45 0 0 0
M  V30 BEGIN ATOM
M  V30 1 C -1.1201 0.1599 -0.1599 0
M  V30 2 C -1.4443 -1.233 -0.3695 0
M  V30 3 C -2.2227 1.0581 -0.0411 0
M  V30 4 C 0.2152 0.7276 -0.1302 0
M  V30 5 C -2.7676 -1.5942 -0.7631 0
M  V30 6 C -0.5584 -2.299 -0.0954 0
M  V30 7 C -2.0346 2.3793 0.3564 0
M  V30 8 C -3.5265 0.6498 -0.3492 0
M  V30 9 C 0.3766 2.1159 0.2088 0
M  V30 10 C 1.4363 -0.0391 -0.6424 0
M  V30 11 C -3.7823 -0.6405 -0.7754 0
M  V30 12 C -3.0864 -2.9267 -1.076 0
M  V30 13 C -0.8885 -3.6227 -0.3929 0
M  V30 14 C -0.7604 2.9044 0.514 0
M  V30 15 C 1.6388 2.7691 0.216 0
M  V30 16 C 2.4025 -0.4663 0.4927 0
M  V30 17 C -2.1391 -3.9322 -0.9141 0
M  V30 18 C -0.6212 4.2497 0.8981 0
M  V30 19 C 1.7613 4.1073 0.5962 0
M  V30 20 C 3.5514 -1.3502 -0.0184 0
M  V30 21 C 0.6362 4.8416 0.9518 0
M  V30 22 C 3.1154 -2.7883 -0.2973 0
M  V30 23 H 0.3658 -2.1479 0.4111 0
M  V30 24 H -2.8965 3.0229 0.5075 0
M  V30 25 H -4.3541 1.3488 -0.2976 0
M  V30 26 H 1.1389 -0.8925 -1.2769 0
M  V30 27 H 1.9881 0.5922 -1.37 0
M  V30 28 H -4.7963 -0.9118 -1.0462 0
M  V30 29 H -4.0817 -3.1953 -1.411 0
M  V30 30 H -0.1775 -4.4145 -0.1935 0
M  V30 31 H 2.5506 2.284 -0.0862 0
M  V30 32 H 1.8734 -0.9686 1.3272 0
M  V30 33 H 2.8607 0.4251 0.9607 0
M  V30 34 H -2.3934 -4.9596 -1.1406 0
M  V30 35 H -1.4905 4.851 1.139 0
M  V30 36 H 2.7355 4.5793 0.6056 0
M  V30 37 H 3.9941 -0.9091 -0.9376 0
M  V30 38 H 4.348 -1.377 0.7567 0
M  V30 39 H 0.7358 5.8795 1.2427 0
M  V30 40 H 2.3892 -2.8285 -1.1347 0
M  V30 41 H 4.0023 -3.3929 -0.5812 0
M  V30 42 H 2.66 -3.2387 0.61 0
M  V30 END ATOM
M  V30 BEGIN BOND
M  V30 1 2 1 2
M  V30 2 1 1 3
M  V30 3 1 1 4
M  V30 4 1 2 5
M  V30 5 1 2 6
M  V30 6 1 3 7
M  V30 7 2 3 8
M  V30 8 2 4 9
M  V30 9 1 4 10
M  V30 10 2 5 11
M  V30 11 1 5 12
M  V30 12 2 6 13
M  V30 13 2 7 14
M  V30 14 1 9 15
M  V30 15 1 10 16
M  V30 16 2 12 17
M  V30 17 1 14 18
M  V30 18 2 15 19
M  V30 19 1 16 20
M  V30 20 2 18 21
M  V30 21 1 20 22
M  V30 22 1 8 11
M  V30 23 1 9 14
M  V30 24 1 13 17
M  V30 25 1 19 21
M  V30 26 1 6 23
M  V30 27 1 7 24
M  V30 28 1 8 25
M  V30 29 1 10 26
M  V30 30 1 10 27
M  V30 31 1 11 28
M  V30 32 1 12 29
M  V30 33 1 13 30
M  V30 34 1 15 31
M  V30 35 1 16 32
M  V30 36 1 16 33
M  V30 37 1 17 34
M  V30 38 1 18 35
M  V30 39 1 19 36
M  V30 40 1 20 37
M  V30 41 1 20 38
M  V30 42 1 21 39
M  V30 43 1 22 40
M  V30 44 1 22 41
M  V30 45 1 22 42
M  V30 END BOND
M  V30 END CTAB
M  END
>  <Structure No>
5522

>  <LogS>
-7.5245

>  <MMFF94 Energy>
83.158

$$$$
Compound 5523
Actelion Java MolfileCreator 2.0

  0  0  0  0  0  0              0 V3000
M  V30 BEGIN CTAB
M  V30 COUNTS 45 46 0 0 0
M  V30 BEGIN ATOM
M  V30 1 S 1.4695 -1.0612 3.2679 0
M  V30 2 O 2.831 -0.9465 3.8925 0
M  V30 3 O 0.6399 -2.0164 4.0794 0
M  V30 4 N 0.698 0.4927 3.2933 0 CHG=-1
M  V30 5 C 1.664 -1.6254 1.5989 0
M  V30 6 C -0.4043 0.8537 2.4557 0
M  V30 7 N 1.2843 -2.8364 1.1267 0
M  V30 8 C 2.1503 -0.8828 0.5312 0
M  V30 9 O -0.7573 2.0618 2.4052 0
M  V30 10 N -1.1005 -0.1367 1.6836 0
M  V30 11 N 1.4939 -2.892 -0.1799 0
M  V30 12 C 0.6923 -3.9377 1.8791 0
M  V30 13 C 2.6666 0.4957 0.4997 0
M  V30 14 C 2.0214 -1.7139 -0.566 0
M  V30 15 C -1.8364 0.1579 0.4873 0
M  V30 16 O 2.9331 1.1074 1.5704 0
M  V30 17 O 2.8716 1.1147 -0.7382 0
M  V30 18 N -2.4951 -0.8421 -0.156 0
M  V30 19 N -1.8675 1.4186 -0.0242 0
M  V30 20 C 3.2752 2.4741 -0.8682 0
M  V30 21 C -3.1978 -0.6072 -1.2994 0
M  V30 22 C -2.5531 1.7015 -1.1669 0
M  V30 23 C 3.4101 2.827 -2.343 0
M  V30 24 O -3.8826 -1.6426 -1.9478 0
M  V30 25 C -3.2397 0.6827 -1.8297 0
M  V30 26 O -2.5755 2.9986 -1.6882 0
M  V30 27 C -3.8453 -2.99 -1.4935 0
M  V30 28 C -1.8689 4.0789 -1.0882 0
M  V30 29 H -1.0529 -1.1336 1.9859 0
M  V30 30 H 1.3249 -4.1773 2.7603 0
M  V30 31 H -0.3314 -3.6622 2.2064 0
M  V30 32 H 0.6249 -4.8453 1.2427 0
M  V30 33 H 2.2921 -1.4765 -1.5858 0
M  V30 34 H 2.5108 3.134 -0.4013 0
M  V30 35 H 4.2553 2.6283 -0.3648 0
M  V30 36 H 4.1996 2.1992 -2.8115 0
M  V30 37 H 3.6936 3.8957 -2.4485 0
M  V30 38 H 2.4438 2.6548 -2.8671 0
M  V30 39 H -3.7945 0.8884 -2.7381 0
M  V30 40 H -2.8023 -3.3688 -1.5192 0
M  V30 41 H -4.2433 -3.0562 -0.4579 0
M  V30 42 H -4.4756 -3.6173 -2.16 0
M  V30 43 H -0.7799 3.8565 -1.0683 0
M  V30 44 H -2.0384 5.0003 -1.6829 0
M  V30 45 H -2.2365 4.2444 -0.0524 0
M  V30 END ATOM
M  V30 BEGIN BOND
M  V30 1 2 1 2
M  V30 2 2 1 3
M  V30 3 1 1 4
M  V30 4 1 1 5
M  V30 5 1 4 6
M  V30 6 1 5 7
M  V30 7 2 5 8
M  V30 8 2 6 9
M  V30 9 1 6 10
M  V30 10 1 7 11
M  V30 11 1 7 12
M  V30 12 1 8 13
M  V30 13 1 8 14
M  V30 14 1 10 15
M  V30 15 2 13 16
M  V30 16 1 13 17
M  V30 17 2 15 18
M  V30 18 1 15 19
M  V30 19 1 17 20
M  V30 20 1 18 21
M  V30 21 2 19 22
M  V30 22 1 20 23
M  V30 23 1 21 24
M  V30 24 2 21 25
M  V30 25 1 22 26
M  V30 26 1 24 27
M  V30 27 1 26 28
M  V30 28 2 11 14
M  V30 29 1 22 25
M  V30 30 1 10 29
M  V30 31 1 12 30
M  V30 32 1 12 31
M  V30 33 1 12 32
M  V30 34 1 14 33
M  V30 35 1 20 34
M  V30 36 1 20 35
M  V30 37 1 23 36
M  V30 38 1 23 37
M  V30 39 1 23 38
M  V30 40 1 25 39
M  V30 41 1 27 40
M  V30 42 1 27 41
M  V30 43 1 27 42
M  V30 44 1 28 43
M  V30 45 1 28 44
M  V30 46 1 28 45
M  V30 END BOND
M  V30 END CTAB
M  END
>  <Structure No>
5523

>  <LogS>
-4.4561

>  <MMFF94 Energy>
-156.62

$$$$
Compound 5524
Actelion Java MolfileCreator 2.0

  0  0  0  0  0  0              0 V3000
M  V30 BEGIN CTAB
M  V30 COUNTS 35 36 0 0 0
M  V30 BEGIN ATOM
M  V30 1 S 0.2464 -0.8216 2.055 0
M  V30 2 O 0.8835 -2.1766 2.1947 0
M  V30 3 O -0.1781 -0.3544 3.4189 0
M  V30 4 N 1.3993 0.3009 1.3993 0
M  V30 5 C -1.1729 -0.9224 1.0144 0
M  V30 6 C 1.7933 -0.1217 0.0546 0
M  V30 7 C -2.1131 0.1164 1.0198 0
M  V30 8 C -1.3511 -2.019 0.1598 0
M  V30 9 C 2.8925 0.7622 -0.4464 0
M  V30 10 C -3.2366 0.0587 0.1812 0
M  V30 11 C -2.4663 -2.0869 -0.6792 0
M  V30 12 O 2.627 1.6797 -1.2698 0
M  V30 13 N 4.2298 0.5901 0.0394 0
M  V30 14 C -3.4155 -1.0543 -0.6759 0
M  V30 15 C -4.1845 1.0941 0.1815 0
M  V30 16 C 5.3227 1.4473 -0.4163 0
M  V30 17 C -4.539 -1.1111 -1.5154 0
M  V30 18 C -5.2992 1.0251 -0.6593 0
M  V30 19 C 6.6089 1.0546 0.2384 0
M  V30 20 C -5.4758 -0.0735 -1.5046 0
M  V30 21 O 6.9345 1.557 1.3461 0
M  V30 22 O 7.4225 0.0937 -0.3479 0 CHG=-1
M  V30 23 H 0.9123 1.224 1.3214 0
M  V30 24 H 0.9255 -0.0689 -0.6405 0
M  V30 25 H 2.1655 -1.1691 0.0728 0
M  V30 26 H -1.9653 0.9682 1.6737 0
M  V30 27 H -0.624 -2.8204 0.1369 0
M  V30 28 H -2.5852 -2.9437 -1.3318 0
M  V30 29 H 4.4139 -0.1663 0.7381 0
M  V30 30 H -4.0638 1.9537 0.8302 0
M  V30 31 H 5.4312 1.3548 -1.5182 0
M  V30 32 H 5.0907 2.5069 -0.1728 0
M  V30 33 H -4.6918 -1.9548 -2.1779 0
M  V30 34 H -6.0279 1.8255 -0.6559 0
M  V30 35 H -6.3409 -0.121 -2.1535 0
M  V30 END ATOM
M  V30 BEGIN BOND
M  V30 1 2 1 2
M  V30 2 2 1 3
M  V30 3 1 1 4
M  V30 4 1 1 5
M  V30 5 1 4 6
M  V30 6 2 5 7
M  V30 7 1 5 8
M  V30 8 1 6 9
M  V30 9 1 7 10
M  V30 10 2 8 11
M  V30 11 2 9 12
M  V30 12 1 9 13
M  V30 13 1 10 14
M  V30 14 2 10 15
M  V30 15 1 13 16
M  V30 16 2 14 17
M  V30 17 1 15 18
M  V30 18 1 16 19
M  V30 19 1 17 20
M  V30 20 2 19 21
M  V30 21 1 19 22
M  V30 22 1 11 14
M  V30 23 2 18 20
M  V30 24 1 4 23
M  V30 25 1 6 24
M  V30 26 1 6 25
M  V30 27 1 7 26
M  V30 28 1 8 27
M  V30 29 1 11 28
M  V30 30 1 13 29
M  V30 31 1 15 30
M  V30 32 1 16 31
M  V30 33 1 16 32
M  V30 34 1 17 33
M  V30 35 1 18 34
M  V30 36 1 20 35
M  V30 END BOND
M  V30 END CTAB
M  END
>  <Structure No>
5524

>  <LogS>
-2.6954

>  <MMFF94 Energy>
19.035

$$$$
Compound 5525
Actelion Java MolfileCreator 2.0

  0  0  0  0  0  0              0 V3000
M  V30 BEGIN CTAB
M  V30 COUNTS 38 40 0 0 0
M  V30 BEGIN ATOM
M  V30 1 Cl -4.4586 1.8627 -2.8355 0
M  V30 2 C -3.2253 1.3197 -1.7126 0
M  V30 3 C -3.3743 1.5502 -0.3441 0
M  V30 4 C -2.1025 0.6378 -2.1828 0
M  V30 5 C -2.3949 1.115 0.5531 0
M  V30 6 C -1.1208 0.2013 -1.2897 0
M  V30 7 C -1.2288 0.4619 0.0936 0
M  V30 8 C -0.1685 -0.054 1.0891 0 CFG=2
M  V30 9 O -0.3326 0.5816 2.3408 0
M  V30 10 C 1.3108 0.204 0.5879 0 CFG=1
M  V30 11 C -0.4513 -1.5633 1.3535 0
M  V30 12 C 1.5471 1.6963 0.2179 0
M  V30 13 C 2.3523 -0.1968 1.6545 0
M  V30 14 N -0.3058 -2.4105 0.1686 0
M  V30 15 C 2.8335 1.9742 -0.5553 0
M  V30 16 C 1.4955 2.0716 -1.2597 0
M  V30 17 N -1.3018 -2.757 -0.6261 0
M  V30 18 C 0.8077 -3.0286 -0.2598 0
M  V30 19 C -0.7613 -3.5743 -1.5501 0
M  V30 20 N 0.5607 -3.7729 -1.3547 0
M  V30 21 H -4.2543 2.0595 0.0281 0
M  V30 22 H -1.9933 0.4345 -3.2405 0
M  V30 23 H -2.5619 1.287 1.6081 0
M  V30 24 H -0.2868 -0.3583 -1.6868 0
M  V30 25 H -0.2658 1.5627 2.2145 0
M  V30 26 H 1.5132 -0.4245 -0.3036 0
M  V30 27 H -1.4909 -1.6687 1.737 0
M  V30 28 H 0.1963 -1.9512 2.1671 0
M  V30 29 H 1.3049 2.5046 0.9389 0
M  V30 30 H 3.3822 -0.0059 1.2875 0
M  V30 31 H 2.2079 0.3832 2.5906 0
M  V30 32 H 2.3003 -1.2775 1.8879 0
M  V30 33 H 3.4303 1.0917 -0.8714 0
M  V30 34 H 3.2997 2.9607 -0.3472 0
M  V30 35 H 1.1791 3.116 -1.4644 0
M  V30 36 H 1.3597 1.2593 -2.0022 0
M  V30 37 H 1.777 -2.9532 0.2138 0
M  V30 38 H -1.3247 -4.0271 -2.3546 0
M  V30 END ATOM
M  V30 BEGIN BOND
M  V30 1 1 1 2
M  V30 2 2 2 3
M  V30 3 1 2 4
M  V30 4 1 3 5
M  V30 5 2 4 6
M  V30 6 2 5 7
M  V30 7 1 7 8
M  V30 8 1 8 9
M  V30 9 1 8 10
M  V30 10 1 8 11
M  V30 11 1 10 12
M  V30 12 1 10 13
M  V30 13 1 11 14
M  V30 14 1 12 15
M  V30 15 1 12 16
M  V30 16 1 14 17
M  V30 17 1 14 18
M  V30 18 2 17 19
M  V30 19 2 18 20
M  V30 20 1 6 7
M  V30 21 1 15 16
M  V30 22 1 19 20
M  V30 23 1 3 21
M  V30 24 1 4 22
M  V30 25 1 5 23
M  V30 26 1 6 24
M  V30 27 1 9 25
M  V30 28 1 10 26
M  V30 29 1 11 27
M  V30 30 1 11 28
M  V30 31 1 12 29
M  V30 32 1 13 30
M  V30 33 1 13 31
M  V30 34 1 13 32
M  V30 35 1 15 33
M  V30 36 1 15 34
M  V30 37 1 16 35
M  V30 38 1 16 36
M  V30 39 1 18 37
M  V30 40 1 19 38
M  V30 END BOND
M  V30 BEGIN COLLECTION
M  V30 MDLV30/STEABS ATOMS=(2 8 10)
M  V30 END COLLECTION
M  V30 END CTAB
M  END
>  <Structure No>
5525

>  <LogS>
-3.3189

>  <MMFF94 Energy>
78.178

$$$$
Compound 5526
Actelion Java MolfileCreator 2.0

  0  0  0  0  0  0              0 V3000
M  V30 BEGIN CTAB
M  V30 COUNTS 46 47 0 0 0
M  V30 BEGIN ATOM
M  V30 1 S 1.4673 -2.0384 0.1629 0
M  V30 2 O 1.2887 -2.0128 1.6554 0
M  V30 3 O 2.3976 -3.1597 -0.2032 0
M  V30 4 N -0.0736 -2.3242 -0.5755 0 CHG=-1
M  V30 5 C 2.1563 -0.5117 -0.3986 0
M  V30 6 C -1.2155 -1.5063 -0.3123 0
M  V30 7 C 3.2141 0.098 0.306 0
M  V30 8 C 1.6638 0.0825 -1.5708 0
M  V30 9 O -1.1232 -0.5343 0.4856 0
M  V30 10 N -2.4563 -1.8041 -0.9686 0
M  V30 11 O 3.7073 -0.5304 1.4636 0
M  V30 12 C 3.7417 1.3173 -0.1679 0
M  V30 13 C 2.1989 1.2867 -2.0305 0
M  V30 14 C -3.6658 -1.0464 -0.8109 0
M  V30 15 C 4.8372 -0.1057 2.2257 0
M  V30 16 C 3.2333 1.9043 -1.3286 0
M  V30 17 N -3.7097 0.0467 -0.0039 0
M  V30 18 N -4.7841 -1.4272 -1.4813 0
M  V30 19 C 6.1399 -0.4603 1.5041 0
M  V30 20 C -4.8588 0.7541 0.1342 0
M  V30 21 C -5.9379 -0.7258 -1.3491 0
M  V30 22 O 7.2537 -0.0925 2.2956 0
M  V30 23 O -4.8795 1.8741 0.9693 0
M  V30 24 N -5.973 0.3656 -0.5399 0
M  V30 25 O -7.0755 -1.1369 -2.0485 0
M  V30 26 C 7.7341 1.1759 1.9074 0
M  V30 27 C -6.0454 2.666 1.1649 0
M  V30 28 C -8.3205 -0.4536 -1.9614 0
M  V30 29 H 0.867 -0.3848 -2.1339 0
M  V30 30 H -2.4781 -2.6285 -1.6103 0
M  V30 31 H 4.5454 1.8219 0.3485 0
M  V30 32 H 1.8114 1.7411 -2.9333 0
M  V30 33 H 4.8182 -0.6396 3.1993 0
M  V30 34 H 4.7734 0.98 2.4474 0
M  V30 35 H 3.6456 2.839 -1.6867 0
M  V30 36 H 6.1603 -0.0232 0.4784 0
M  V30 37 H 6.1684 -1.5622 1.3673 0
M  V30 38 H 8.5416 1.4776 2.6055 0
M  V30 39 H 8.169 1.1363 0.8845 0
M  V30 40 H 6.9368 1.9502 1.9591 0
M  V30 41 H -6.3781 3.0988 0.1975 0
M  V30 42 H -6.8585 2.0456 1.5981 0
M  V30 43 H -5.8113 3.4926 1.8668 0
M  V30 44 H -9.0645 -0.9679 -2.6035 0
M  V30 45 H -8.6852 -0.4596 -0.9122 0
M  V30 46 H -8.205 0.5937 -2.3125 0
M  V30 END ATOM
M  V30 BEGIN BOND
M  V30 1 2 1 2
M  V30 2 2 1 3
M  V30 3 1 1 4
M  V30 4 1 1 5
M  V30 5 1 4 6
M  V30 6 2 5 7
M  V30 7 1 5 8
M  V30 8 2 6 9
M  V30 9 1 6 10
M  V30 10 1 7 11
M  V30 11 1 7 12
M  V30 12 2 8 13
M  V30 13 1 10 14
M  V30 14 1 11 15
M  V30 15 2 12 16
M  V30 16 2 14 17
M  V30 17 1 14 18
M  V30 18 1 15 19
M  V30 19 1 17 20
M  V30 20 2 18 21
M  V30 21 1 19 22
M  V30 22 1 20 23
M  V30 23 2 20 24
M  V30 24 1 21 25
M  V30 25 1 22 26
M  V30 26 1 23 27
M  V30 27 1 25 28
M  V30 28 1 13 16
M  V30 29 1 21 24
M  V30 30 1 8 29
M  V30 31 1 10 30
M  V30 32 1 12 31
M  V30 33 1 13 32
M  V30 34 1 15 33
M  V30 35 1 15 34
M  V30 36 1 16 35
M  V30 37 1 19 36
M  V30 38 1 19 37
M  V30 39 1 26 38
M  V30 40 1 26 39
M  V30 41 1 26 40
M  V30 42 1 27 41
M  V30 43 1 27 42
M  V30 44 1 27 43
M  V30 45 1 28 44
M  V30 46 1 28 45
M  V30 47 1 28 46
M  V30 END BOND
M  V30 END CTAB
M  END
>  <Structure No>
5526

>  <LogS>
-3.5372

>  <MMFF94 Energy>
-152.27

$$$$
Compound 5527
Actelion Java MolfileCreator 2.0

  0  0  0  0  0  0              0 V3000
M  V30 BEGIN CTAB
M  V30 COUNTS 21 21 0 0 0
M  V30 BEGIN ATOM
M  V30 1 O 4.3189 -0.4791 -0.7987 0
M  V30 2 C 3.4792 0.4559 -0.7233 0
M  V30 3 O 3.8744 1.6993 -0.2467 0 CHG=-1
M  V30 4 C 2.0526 0.2144 -1.0864 0
M  V30 5 O 1.3662 -0.2583 0.0528 0
M  V30 6 C -0.0171 -0.385 -0.224 0
M  V30 7 C -0.6469 -1.3771 0.739 0
M  V30 8 C -0.7611 0.9238 0.0307 0
M  V30 9 C -2.1026 -0.9569 0.8543 0
M  V30 10 C -2.1414 0.5394 0.5573 0
M  V30 11 H 2.0145 -0.5387 -1.9056 0
M  V30 12 H 1.6173 1.1722 -1.4511 0
M  V30 13 H -0.2225 -0.7425 -1.2631 0
M  V30 14 H -0.5534 -2.4199 0.3656 0
M  V30 15 H -0.1626 -1.3014 1.7385 0
M  V30 16 H -0.2253 1.5256 0.7984 0
M  V30 17 H -0.8423 1.5215 -0.903 0
M  V30 18 H -2.5019 -1.1788 1.8678 0
M  V30 19 H -2.7083 -1.5051 0.0992 0
M  V30 20 H -2.9223 0.759 -0.2033 0
M  V30 21 H -2.373 1.1126 1.4818 0
M  V30 END ATOM
M  V30 BEGIN BOND
M  V30 1 2 1 2
M  V30 2 1 2 3
M  V30 3 1 2 4
M  V30 4 1 4 5
M  V30 5 1 5 6
M  V30 6 1 6 7
M  V30 7 1 6 8
M  V30 8 1 7 9
M  V30 9 1 8 10
M  V30 10 1 9 10
M  V30 11 1 4 11
M  V30 12 1 4 12
M  V30 13 1 6 13
M  V30 14 1 7 14
M  V30 15 1 7 15
M  V30 16 1 8 16
M  V30 17 1 8 17
M  V30 18 1 9 18
M  V30 19 1 9 19
M  V30 20 1 10 20
M  V30 21 1 10 21
M  V30 END BOND
M  V30 END CTAB
M  END
>  <Structure No>
5527

>  <LogS>
-0.8471

>  <MMFF94 Energy>
74.387

$$$$
Compound 5528
Actelion Java MolfileCreator 2.0

  0  0  0  0  0  0              0 V3000
M  V30 BEGIN CTAB
M  V30 COUNTS 49 50 0 0 0
M  V30 BEGIN ATOM
M  V30 1 Cl -2.0259 2.2693 1.7016 0
M  V30 2 C -2.7979 0.8242 1.0462 0
M  V30 3 C -4.1499 0.8593 0.6758 0
M  V30 4 C -2.0767 -0.3622 0.8875 0
M  V30 5 O -4.7907 1.9352 0.8204 0
M  V30 6 N -4.7571 -0.2688 0.1638 0
M  V30 7 S -0.341 -0.4851 1.3405 0
M  V30 8 C -2.7278 -1.4756 0.3732 0
M  V30 9 N -4.0366 -1.3909 0.03 0
M  V30 10 C -6.1935 -0.2913 -0.2495 0
M  V30 11 C 0.2512 0.0057 -0.3117 0
M  V30 12 C -7.107 0.0184 0.9576 0
M  V30 13 C -6.4439 0.7267 -1.3844 0
M  V30 14 C -6.5955 -1.6905 -0.7864 0
M  V30 15 C 1.7505 0.074 -0.3043 0
M  V30 16 C 2.4019 1.2552 0.0702 0
M  V30 17 C 2.5121 -1.0588 -0.6124 0
M  V30 18 C 3.7977 1.3138 0.1118 0
M  V30 19 C 3.9072 -1.0052 -0.5722 0
M  V30 20 C 4.5836 0.1822 -0.2125 0
M  V30 21 C 6.1261 0.1999 -0.179 0
M  V30 22 C 6.6306 -0.8425 0.8424 0
M  V30 23 C 6.7089 1.5755 0.2261 0
M  V30 24 C 6.6758 -0.1469 -1.5799 0
M  V30 25 H -2.1988 -2.4101 0.2405 0
M  V30 26 H -0.173 0.9964 -0.5843 0
M  V30 27 H -0.0961 -0.7332 -1.0659 0
M  V30 28 H -6.8626 -0.6576 1.805 0
M  V30 29 H -7.0012 1.0655 1.3044 0
M  V30 30 H -8.1762 -0.1265 0.6896 0
M  V30 31 H -7.475 0.622 -1.7868 0
M  V30 32 H -5.7243 0.558 -2.2142 0
M  V30 33 H -6.3384 1.7739 -1.0379 0
M  V30 34 H -6.4536 -2.467 -0.0036 0
M  V30 35 H -5.9808 -1.9625 -1.6719 0
M  V30 36 H -7.6637 -1.7092 -1.0946 0
M  V30 37 H 1.827 2.1351 0.3329 0
M  V30 38 H 2.0252 -1.9878 -0.8831 0
M  V30 39 H 4.2409 2.2539 0.4038 0
M  V30 40 H 4.4562 -1.9028 -0.8216 0
M  V30 41 H 6.3385 -1.8733 0.552 0
M  V30 42 H 6.2099 -0.6313 1.8495 0
M  V30 43 H 7.7397 -0.8189 0.9149 0
M  V30 44 H 6.4005 2.364 -0.4941 0
M  V30 45 H 6.3778 1.8609 1.2483 0
M  V30 46 H 7.8203 1.5464 0.233 0
M  V30 47 H 6.3865 -1.1727 -1.8901 0
M  V30 48 H 7.7864 -0.0975 -1.5912 0
M  V30 49 H 6.2865 0.5692 -2.3357 0
M  V30 END ATOM
M  V30 BEGIN BOND
M  V30 1 1 1 2
M  V30 2 1 2 3
M  V30 3 2 2 4
M  V30 4 2 3 5
M  V30 5 1 3 6
M  V30 6 1 4 7
M  V30 7 1 4 8
M  V30 8 1 6 9
M  V30 9 1 6 10
M  V30 10 1 7 11
M  V30 11 1 10 12
M  V30 12 1 10 13
M  V30 13 1 10 14
M  V30 14 1 11 15
M  V30 15 2 15 16
M  V30 16 1 15 17
M  V30 17 1 16 18
M  V30 18 2 17 19
M  V30 19 2 18 20
M  V30 20 1 20 21
M  V30 21 1 21 22
M  V30 22 1 21 23
M  V30 23 1 21 24
M  V30 24 2 8 9
M  V30 25 1 19 20
M  V30 26 1 8 25
M  V30 27 1 11 26
M  V30 28 1 11 27
M  V30 29 1 12 28
M  V30 30 1 12 29
M  V30 31 1 12 30
M  V30 32 1 13 31
M  V30 33 1 13 32
M  V30 34 1 13 33
M  V30 35 1 14 34
M  V30 36 1 14 35
M  V30 37 1 14 36
M  V30 38 1 16 37
M  V30 39 1 17 38
M  V30 40 1 18 39
M  V30 41 1 19 40
M  V30 42 1 22 41
M  V30 43 1 22 42
M  V30 44 1 22 43
M  V30 45 1 23 44
M  V30 46 1 23 45
M  V30 47 1 23 46
M  V30 48 1 24 47
M  V30 49 1 24 48
M  V30 50 1 24 49
M  V30 END BOND
M  V30 END CTAB
M  END
>  <Structure No>
5528

>  <LogS>
-7.483

>  <MMFF94 Energy>
108.14

$$$$
Compound 5529
Actelion Java MolfileCreator 2.0

  0  0  0  0  0  0              0 V3000
M  V30 BEGIN CTAB
M  V30 COUNTS 39 40 0 0 0
M  V30 BEGIN ATOM
M  V30 1 Cl -0.8948 3.42 -0.0813 0
M  V30 2 C -1.0469 2.1527 -1.3201 0
M  V30 3 C -0.0311 1.0777 -1.0657 0
M  V30 4 O 1.1017 1.182 -1.6092 0
M  V30 5 N -0.3091 -0.0298 -0.1791 0
M  V30 6 C -1.6585 -0.525 -0.0623 0
M  V30 7 C 0.7804 -0.8753 0.3331 0
M  V30 8 C -2.256 -1.2272 -1.1381 0
M  V30 9 C -2.3943 -0.3139 1.1273 0
M  V30 10 C 1.8603 -0.0568 0.9835 0
M  V30 11 C -3.5751 -1.6903 -1.0151 0
M  V30 12 C -1.5185 -1.4504 -2.4311 0
M  V30 13 C -3.7006 -0.8152 1.233 0
M  V30 14 C -1.7886 0.4021 2.3011 0
M  V30 15 S 1.6974 0.8089 2.4151 0
M  V30 16 C 3.1551 0.1286 0.5078 0
M  V30 17 C -4.2878 -1.491 0.1654 0
M  V30 18 C 3.2602 1.4268 2.4483 0
M  V30 19 O 3.6054 -0.4637 -0.6786 0
M  V30 20 C 3.9377 0.96 1.33 0
M  V30 21 C 4.9135 -0.2729 -1.2041 0
M  V30 22 H -2.0793 1.7491 -1.3055 0
M  V30 23 H -0.8739 2.6063 -2.3189 0
M  V30 24 H 1.2021 -1.4758 -0.5002 0
M  V30 25 H 0.3909 -1.5909 1.0897 0
M  V30 26 H -4.0533 -2.2141 -1.8337 0
M  V30 27 H -0.4848 -1.7998 -2.2339 0
M  V30 28 H -1.4834 -0.5033 -3.008 0
M  V30 29 H -2.0179 -2.2227 -3.0542 0
M  V30 30 H -4.2711 -0.6776 2.1437 0
M  V30 31 H -2.5703 0.7498 3.0095 0
M  V30 32 H -1.1043 -0.2853 2.8398 0
M  V30 33 H -1.2272 1.2959 1.9616 0
M  V30 34 H -5.3003 -1.8634 0.2538 0
M  V30 35 H 3.6702 2.0774 3.2086 0
M  V30 36 H 4.9671 1.2196 1.1237 0
M  V30 37 H 5.0109 -0.8431 -2.1501 0
M  V30 38 H 5.0845 0.8033 -1.4162 0
M  V30 39 H 5.672 -0.6433 -0.4824 0
M  V30 END ATOM
M  V30 BEGIN BOND
M  V30 1 1 1 2
M  V30 2 1 2 3
M  V30 3 2 3 4
M  V30 4 1 3 5
M  V30 5 1 5 6
M  V30 6 1 5 7
M  V30 7 2 6 8
M  V30 8 1 6 9
M  V30 9 1 7 10
M  V30 10 1 8 11
M  V30 11 1 8 12
M  V30 12 2 9 13
M  V30 13 1 9 14
M  V30 14 1 10 15
M  V30 15 2 10 16
M  V30 16 2 11 17
M  V30 17 1 15 18
M  V30 18 1 16 19
M  V30 19 1 16 20
M  V30 20 1 19 21
M  V30 21 1 13 17
M  V30 22 2 18 20
M  V30 23 1 2 22
M  V30 24 1 2 23
M  V30 25 1 7 24
M  V30 26 1 7 25
M  V30 27 1 11 26
M  V30 28 1 12 27
M  V30 29 1 12 28
M  V30 30 1 12 29
M  V30 31 1 13 30
M  V30 32 1 14 31
M  V30 33 1 14 32
M  V30 34 1 14 33
M  V30 35 1 17 34
M  V30 36 1 18 35
M  V30 37 1 20 36
M  V30 38 1 21 37
M  V30 39 1 21 38
M  V30 40 1 21 39
M  V30 END BOND
M  V30 END CTAB
M  END
>  <Structure No>
5529

>  <LogS>
-4.4689

>  <MMFF94 Energy>
44.847

$$$$
Compound 5530
Actelion Java MolfileCreator 2.0

  0  0  0  0  0  0              0 V3000
M  V30 BEGIN CTAB
M  V30 COUNTS 38 40 0 0 0
M  V30 BEGIN ATOM
M  V30 1 F 5.218 2.688 -0.6511 0
M  V30 2 C 4.3691 1.9724 0.1751 0
M  V30 3 F 3.5716 2.8734 0.8593 0
M  V30 4 F 5.1234 1.2564 1.0856 0
M  V30 5 C 3.5241 1.017 -0.6293 0
M  V30 6 C 2.2528 0.6308 -0.1693 0
M  V30 7 C 4.0333 0.431 -1.8001 0
M  V30 8 C 1.4772 -0.2973 -0.8911 0
M  V30 9 C 3.266 -0.4842 -2.5235 0
M  V30 10 C 1.9927 -0.8423 -2.0772 0
M  V30 11 C 0.1012 -0.7095 -0.4125 0 CFG=1
M  V30 12 C 0.095 -1.1521 1.0193 0
M  V30 13 C -0.8125 0.4701 -0.3172 0
M  V30 14 O -0.6662 -0.3194 1.8283 0
M  V30 15 N 0.6866 -2.2083 1.4928 0
M  V30 16 O -1.1379 1.1547 -1.2751 0
M  V30 17 C -1.2755 0.7274 1.0852 0 CFG=2
M  V30 18 C 1.4778 -3.1396 0.6979 0
M  V30 19 C -2.7788 0.6533 1.1922 0
M  V30 20 C -3.5259 1.8198 1.4293 0
M  V30 21 C -3.4534 -0.5695 1.0195 0
M  V30 22 C -4.9208 1.7609 1.5078 0
M  V30 23 C -4.8483 -0.623 1.0986 0
M  V30 24 C -5.5814 0.5406 1.3441 0
M  V30 25 H 1.8638 1.0483 0.7512 0
M  V30 26 H 5.0244 0.6812 -2.1567 0
M  V30 27 H 3.662 -0.9218 -3.4307 0
M  V30 28 H 1.4145 -1.5555 -2.6511 0
M  V30 29 H -0.3594 -1.4896 -1.0568 0
M  V30 30 H -0.8828 1.7057 1.4381 0
M  V30 31 H 1.7813 -3.9938 1.3369 0
M  V30 32 H 0.8779 -3.5267 -0.1527 0
M  V30 33 H 2.3943 -2.6391 0.322 0
M  V30 34 H -3.0301 2.7748 1.5523 0
M  V30 35 H -2.9006 -1.4787 0.8201 0
M  V30 36 H -5.4902 2.6625 1.6933 0
M  V30 37 H -5.3613 -1.5669 0.9673 0
M  V30 38 H -6.6611 0.4975 1.4042 0
M  V30 END ATOM
M  V30 BEGIN BOND
M  V30 1 1 1 2
M  V30 2 1 2 3
M  V30 3 1 2 4
M  V30 4 1 2 5
M  V30 5 2 5 6
M  V30 6 1 5 7
M  V30 7 1 6 8
M  V30 8 2 7 9
M  V30 9 2 8 10
M  V30 10 1 8 11
M  V30 11 1 11 12
M  V30 12 1 11 13
M  V30 13 1 12 14
M  V30 14 2 12 15
M  V30 15 2 13 16
M  V30 16 1 13 17
M  V30 17 1 15 18
M  V30 18 1 17 19
M  V30 19 2 19 20
M  V30 20 1 19 21
M  V30 21 1 20 22
M  V30 22 2 21 23
M  V30 23 2 22 24
M  V30 24 1 9 10
M  V30 25 1 14 17
M  V30 26 1 23 24
M  V30 27 1 6 25
M  V30 28 1 7 26
M  V30 29 1 9 27
M  V30 30 1 10 28
M  V30 31 1 11 29
M  V30 32 1 17 30
M  V30 33 1 18 31
M  V30 34 1 18 32
M  V30 35 1 18 33
M  V30 36 1 20 34
M  V30 37 1 21 35
M  V30 38 1 22 36
M  V30 39 1 23 37
M  V30 40 1 24 38
M  V30 END BOND
M  V30 BEGIN COLLECTION
M  V30 MDLV30/STEABS ATOMS=(2 11 17)
M  V30 END COLLECTION
M  V30 END CTAB
M  END
>  <Structure No>
5530

>  <LogS>
-3.9788

>  <MMFF94 Energy>
102.28

$$$$
Compound 5531
Actelion Java MolfileCreator 2.0

  0  0  0  0  0  0              0 V3000
M  V30 BEGIN CTAB
M  V30 COUNTS 55 54 0 0 0
M  V30 BEGIN ATOM
M  V30 1 O -6.8728 -0.2336 -1.2468 0
M  V30 2 C -6.1365 0.6235 -0.6852 0
M  V30 3 N -4.9569 0.2097 0.0168 0
M  V30 4 C -6.4701 2.0865 -0.8046 0 CFG=2
M  V30 5 C -4.5978 -1.203 0.1374 0
M  V30 6 O -7.8617 2.2711 -0.8034 0
M  V30 7 C -5.8884 2.6493 -2.0982 0
M  V30 8 C -3.2994 -1.3703 0.9337 0
M  V30 9 C -2.909 -2.8501 1.0483 0
M  V30 10 C -1.7041 -3.0812 1.9763 0
M  V30 11 C -0.3845 -2.4929 1.4332 0
M  V30 12 C -0.0063 -1.1746 2.1316 0
M  V30 13 C 1.1842 -0.4708 1.4619 0
M  V30 14 C 2.4996 -1.2532 1.6214 0
M  V30 15 C 3.7272 -0.4363 1.1882 0
M  V30 16 C 3.7526 -0.1695 -0.3275 0
M  V30 17 C 5.097 0.4019 -0.8064 0
M  V30 18 C 5.3152 1.8555 -0.352 0
M  V30 19 C 6.6553 2.4289 -0.8392 0
M  V30 20 C 6.6633 2.7265 -2.3388 0
M  V30 21 H -4.3455 0.9418 0.4457 0
M  V30 22 H -6.0205 2.6442 0.0495 0
M  V30 23 H -5.4213 -1.7447 0.6523 0
M  V30 24 H -4.4665 -1.6337 -0.8792 0
M  V30 25 H -8.1685 2.1246 0.13 0
M  V30 26 H -6.124 3.7319 -2.1766 0
M  V30 27 H -4.7837 2.528 -2.1078 0
M  V30 28 H -6.3193 2.1261 -2.9791 0
M  V30 29 H -2.4914 -0.8123 0.4136 0
M  V30 30 H -3.4388 -0.9411 1.9504 0
M  V30 31 H -2.6872 -3.26 0.0384 0
M  V30 32 H -3.7707 -3.4204 1.4599 0
M  V30 33 H -1.9299 -2.6944 2.9947 0
M  V30 34 H -1.5763 -4.1812 2.0811 0
M  V30 35 H 0.4252 -3.2315 1.6176 0
M  V30 36 H -0.4458 -2.3423 0.333 0
M  V30 37 H 0.2275 -1.3716 3.2011 0
M  V30 38 H -0.8702 -0.4777 2.108 0
M  V30 39 H 1.298 0.5305 1.9318 0
M  V30 40 H 0.9586 -0.3157 0.385 0
M  V30 41 H 2.4592 -2.1942 1.032 0
M  V30 42 H 2.6312 -1.5284 2.6909 0
M  V30 43 H 3.7438 0.5226 1.7484 0
M  V30 44 H 4.6364 -1.0102 1.4718 0
M  V30 45 H 3.5777 -1.1271 -0.8653 0
M  V30 46 H 2.9352 0.5294 -0.6076 0
M  V30 47 H 5.9299 -0.2396 -0.4437 0
M  V30 48 H 5.0999 0.3617 -1.9161 0
M  V30 49 H 4.4792 2.4965 -0.7087 0
M  V30 50 H 5.3202 1.8939 0.7576 0
M  V30 51 H 6.8468 3.3807 -0.2969 0
M  V30 52 H 7.4842 1.7301 -0.5923 0
M  V30 53 H 5.8086 3.3826 -2.61 0
M  V30 54 H 6.6118 1.7881 -2.9283 0
M  V30 55 H 7.6064 3.2486 -2.6054 0
M  V30 END ATOM
M  V30 BEGIN BOND
M  V30 1 2 1 2
M  V30 2 1 2 3
M  V30 3 1 2 4
M  V30 4 1 3 5
M  V30 5 1 4 6
M  V30 6 1 4 7
M  V30 7 1 5 8
M  V30 8 1 8 9
M  V30 9 1 9 10
M  V30 10 1 10 11
M  V30 11 1 11 12
M  V30 12 1 12 13
M  V30 13 1 13 14
M  V30 14 1 14 15
M  V30 15 1 15 16
M  V30 16 1 16 17
M  V30 17 1 17 18
M  V30 18 1 18 19
M  V30 19 1 19 20
M  V30 20 1 3 21
M  V30 21 1 4 22
M  V30 22 1 5 23
M  V30 23 1 5 24
M  V30 24 1 6 25
M  V30 25 1 7 26
M  V30 26 1 7 27
M  V30 27 1 7 28
M  V30 28 1 8 29
M  V30 29 1 8 30
M  V30 30 1 9 31
M  V30 31 1 9 32
M  V30 32 1 10 33
M  V30 33 1 10 34
M  V30 34 1 11 35
M  V30 35 1 11 36
M  V30 36 1 12 37
M  V30 37 1 12 38
M  V30 38 1 13 39
M  V30 39 1 13 40
M  V30 40 1 14 41
M  V30 41 1 14 42
M  V30 42 1 15 43
M  V30 43 1 15 44
M  V30 44 1 16 45
M  V30 45 1 16 46
M  V30 46 1 17 47
M  V30 47 1 17 48
M  V30 48 1 18 49
M  V30 49 1 18 50
M  V30 50 1 19 51
M  V30 51 1 19 52
M  V30 52 1 20 53
M  V30 53 1 20 54
M  V30 54 1 20 55
M  V30 END BOND
M  V30 BEGIN COLLECTION
M  V30 MDLV30/STEABS ATOMS=(1 4)
M  V30 END COLLECTION
M  V30 END CTAB
M  END
>  <Structure No>
5531

>  <LogS>
-3.9784

>  <MMFF94 Energy>
3.7121

$$$$
Compound 5532
Actelion Java MolfileCreator 2.0

  0  0  0  0  0  0              0 V3000
M  V30 BEGIN CTAB
M  V30 COUNTS 28 29 0 0 0
M  V30 BEGIN ATOM
M  V30 1 S 0.0 -0.4126 -0.9906 0
M  V30 2 O 0.2997 -1.8833 -1.0719 0
M  V30 3 O 0.22 0.1871 -2.3511 0
M  V30 4 C -1.6913 -0.1957 -0.5352 0
M  V30 5 C 1.1455 0.3442 0.164 0
M  V30 6 C -2.3314 -1.1426 0.2781 0
M  V30 7 C -2.4058 0.9248 -0.985 0
M  V30 8 C 2.6077 0.2285 -0.1265 0
M  V30 9 C 0.6947 1.6222 0.8556 0
M  V30 10 C 0.7583 0.3124 1.6349 0
M  V30 11 C -3.6707 -0.9675 0.6406 0
M  V30 12 C -3.7449 1.0974 -0.6208 0
M  V30 13 O 3.1725 1.0961 -0.8468 0
M  V30 14 O 3.3232 -0.8645 0.3694 0
M  V30 15 C -4.3771 0.1517 0.1913 0
M  V30 16 C 4.7106 -1.0487 0.1177 0
M  V30 17 H -1.7936 -2.011 0.6365 0
M  V30 18 H -1.9255 1.6667 -1.61 0
M  V30 19 H 1.4997 2.3367 1.1321 0
M  V30 20 H -0.3398 1.9622 0.6471 0
M  V30 21 H 1.5987 0.2758 2.3612 0
M  V30 22 H -0.24 -0.1041 1.8784 0
M  V30 23 H -4.1604 -1.6987 1.2705 0
M  V30 24 H -4.2921 1.9645 -0.9674 0
M  V30 25 H -5.4135 0.2867 0.4731 0
M  V30 26 H 5.2879 -0.1919 0.5254 0
M  V30 27 H 4.8901 -1.1371 -0.9745 0
M  V30 28 H 5.0505 -1.9804 0.6147 0
M  V30 END ATOM
M  V30 BEGIN BOND
M  V30 1 2 1 2
M  V30 2 2 1 3
M  V30 3 1 1 4
M  V30 4 1 1 5
M  V30 5 2 4 6
M  V30 6 1 4 7
M  V30 7 1 5 8
M  V30 8 1 5 9
M  V30 9 1 5 10
M  V30 10 1 6 11
M  V30 11 2 7 12
M  V30 12 2 8 13
M  V30 13 1 8 14
M  V30 14 2 11 15
M  V30 15 1 14 16
M  V30 16 1 9 10
M  V30 17 1 12 15
M  V30 18 1 6 17
M  V30 19 1 7 18
M  V30 20 1 9 19
M  V30 21 1 9 20
M  V30 22 1 10 21
M  V30 23 1 10 22
M  V30 24 1 11 23
M  V30 25 1 12 24
M  V30 26 1 15 25
M  V30 27 1 16 26
M  V30 28 1 16 27
M  V30 29 1 16 28
M  V30 END BOND
M  V30 END CTAB
M  END
>  <Structure No>
5532

>  <LogS>
-2.2601

>  <MMFF94 Energy>
52.901

$$$$
Compound 5533
Actelion Java MolfileCreator 2.0

  0  0  0  0  0  0              0 V3000
M  V30 BEGIN CTAB
M  V30 COUNTS 30 29 0 0 0
M  V30 BEGIN ATOM
M  V30 1 Cl 0.8058 2.3384 1.1283 0
M  V30 2 C -0.9443 2.043 1.2661 0
M  V30 3 Cl -1.8206 2.8802 -0.0422 0
M  V30 4 C -1.2484 0.5691 1.2775 0
M  V30 5 O -1.4856 0.0171 2.3861 0
M  V30 6 N -1.3004 -0.2198 0.0687 0
M  V30 7 C -0.2872 -0.0738 -0.9865 0
M  V30 8 C -2.3432 -1.2443 -0.0797 0
M  V30 9 C 0.9972 -0.7329 -0.5774 0
M  V30 10 C -3.5579 -0.6583 -0.7408 0
M  V30 11 O 0.9668 -1.8735 -0.0399 0
M  V30 12 N 2.2542 -0.0964 -0.8476 0
M  V30 13 C -4.3654 0.1899 -0.0986 0
M  V30 14 C 3.5319 -0.705 -0.4835 0
M  V30 15 C 3.714 -0.698 1.0074 0
M  V30 16 C 3.8699 0.4419 1.6858 0
M  V30 17 H -1.2825 2.4929 2.2239 0
M  V30 18 H -0.1227 0.9959 -1.2234 0
M  V30 19 H -0.6364 -0.5504 -1.9277 0
M  V30 20 H -1.9659 -2.0812 -0.7066 0
M  V30 21 H -2.6163 -1.6868 0.9027 0
M  V30 22 H -3.7885 -0.9382 -1.7644 0
M  V30 23 H 2.2655 0.8228 -1.3445 0
M  V30 24 H -4.1672 0.4833 0.9277 0
M  V30 25 H -5.2368 0.596 -0.6017 0
M  V30 26 H 3.5686 -1.7489 -0.8625 0
M  V30 27 H 4.3646 -0.1424 -0.9589 0
M  V30 28 H 3.7271 -1.6421 1.5437 0
M  V30 29 H 4.0013 0.4199 2.7626 0
M  V30 30 H 3.8674 1.4 1.1744 0
M  V30 END ATOM
M  V30 BEGIN BOND
M  V30 1 1 1 2
M  V30 2 1 2 3
M  V30 3 1 2 4
M  V30 4 2 4 5
M  V30 5 1 4 6
M  V30 6 1 6 7
M  V30 7 1 6 8
M  V30 8 1 7 9
M  V30 9 1 8 10
M  V30 10 2 9 11
M  V30 11 1 9 12
M  V30 12 2 10 13
M  V30 13 1 12 14
M  V30 14 1 14 15
M  V30 15 2 15 16
M  V30 16 1 2 17
M  V30 17 1 7 18
M  V30 18 1 7 19
M  V30 19 1 8 20
M  V30 20 1 8 21
M  V30 21 1 10 22
M  V30 22 1 12 23
M  V30 23 1 13 24
M  V30 24 1 13 25
M  V30 25 1 14 26
M  V30 26 1 14 27
M  V30 27 1 15 28
M  V30 28 1 16 29
M  V30 29 1 16 30
M  V30 END BOND
M  V30 END CTAB
M  END
>  <Structure No>
5533

>  <LogS>
-1.0397

>  <MMFF94 Energy>
41.673

$$$$
Compound 5534
Actelion Java MolfileCreator 2.0

  0  0  0  0  0  0              0 V3000
M  V30 BEGIN CTAB
M  V30 COUNTS 41 41 0 0 0
M  V30 BEGIN ATOM
M  V30 1 S -3.4371 -0.0837 1.0888 0
M  V30 2 C -2.4842 -0.2527 -0.4277 0
M  V30 3 C -4.0386 1.6053 0.7482 0
M  V30 4 O -3.0333 -0.01 -1.5353 0
M  V30 5 C -1.1261 -0.85 -0.396 0
M  V30 6 C -0.9423 -2.1648 -0.8871 0
M  V30 7 C -1.0E-4 -0.1415 0.1118 0
M  V30 8 N 0.2989 -2.7087 -0.8939 0
M  V30 9 C -2.0776 -2.9982 -1.4346 0
M  V30 10 C 1.2734 -0.7768 0.1239 0
M  V30 11 C -0.1236 1.3171 0.5362 0
M  V30 12 C 1.3994 -2.0733 -0.4252 0
M  V30 13 F -1.6583 -4.2998 -1.6519 0
M  V30 14 F -2.5081 -2.4717 -2.6382 0
M  V30 15 F -3.1312 -3.0283 -0.5386 0
M  V30 16 C 2.4602 -0.0907 0.683 0
M  V30 17 C 0.35 2.2984 -0.5601 0
M  V30 18 C 2.7025 -2.8279 -0.4909 0
M  V30 19 S 2.6335 0.1507 2.4549 0
M  V30 20 O 3.364 0.3277 -0.0876 0
M  V30 21 C -0.5503 2.2496 -1.8021 0
M  V30 22 C 0.3964 3.7272 -0.0043 0
M  V30 23 F 2.6407 -3.9185 0.3562 0
M  V30 24 F 2.9065 -3.2758 -1.7833 0
M  V30 25 C 3.4878 -1.4296 2.732 0
M  V30 26 H -4.5487 1.9943 1.6533 0
M  V30 27 H -4.7702 1.5772 -0.0856 0
M  V30 28 H -3.2138 2.2939 0.4822 0
M  V30 29 H 0.4637 1.4864 1.4589 0
M  V30 30 H -1.1519 1.5673 0.8392 0
M  V30 31 H 1.3812 2.0275 -0.8729 0
M  V30 32 H 3.5773 -2.2141 -0.2054 0
M  V30 33 H -1.6019 2.4874 -1.5346 0
M  V30 34 H -0.2009 2.9849 -2.558 0
M  V30 35 H -0.5104 1.2444 -2.2708 0
M  V30 36 H 0.7673 4.4306 -0.7803 0
M  V30 37 H -0.6145 4.0533 0.3227 0
M  V30 38 H 1.0888 3.779 0.863 0
M  V30 39 H 3.7784 -1.5005 3.8001 0
M  V30 40 H 4.4033 -1.4865 2.107 0
M  V30 41 H 2.8087 -2.2726 2.4907 0
M  V30 END ATOM
M  V30 BEGIN BOND
M  V30 1 1 1 2
M  V30 2 1 1 3
M  V30 3 2 2 4
M  V30 4 1 2 5
M  V30 5 2 5 6
M  V30 6 1 5 7
M  V30 7 1 6 8
M  V30 8 1 6 9
M  V30 9 2 7 10
M  V30 10 1 7 11
M  V30 11 2 8 12
M  V30 12 1 9 13
M  V30 13 1 9 14
M  V30 14 1 9 15
M  V30 15 1 10 16
M  V30 16 1 11 17
M  V30 17 1 12 18
M  V30 18 1 16 19
M  V30 19 2 16 20
M  V30 20 1 17 21
M  V30 21 1 17 22
M  V30 22 1 18 23
M  V30 23 1 18 24
M  V30 24 1 19 25
M  V30 25 1 10 12
M  V30 26 1 3 26
M  V30 27 1 3 27
M  V30 28 1 3 28
M  V30 29 1 11 29
M  V30 30 1 11 30
M  V30 31 1 17 31
M  V30 32 1 18 32
M  V30 33 1 21 33
M  V30 34 1 21 34
M  V30 35 1 21 35
M  V30 36 1 22 36
M  V30 37 1 22 37
M  V30 38 1 22 38
M  V30 39 1 25 39
M  V30 40 1 25 40
M  V30 41 1 25 41
M  V30 END BOND
M  V30 END CTAB
M  END
>  <Structure No>
5534

>  <LogS>
-5.4575

>  <MMFF94 Energy>
106.15

$$$$
Compound 5535
Actelion Java MolfileCreator 2.0

  0  0  0  0  0  0              0 V3000
M  V30 BEGIN CTAB
M  V30 COUNTS 13 13 0 0 0
M  V30 BEGIN ATOM
M  V30 1 S -1.2312 -1.6419 0.6565 0
M  V30 2 N 0.3601 -1.2195 0.4279 0
M  V30 3 C -1.8757 -0.1395 0.3773 0
M  V30 4 C 0.336 0.1138 0.1338 0
M  V30 5 N -0.8856 0.7313 0.1 0
M  V30 6 N -3.2583 0.2012 0.4187 0
M  V30 7 O 1.5039 0.8349 -0.1252 0
M  V30 8 C 2.794 0.2366 -0.1014 0
M  V30 9 H -3.9738 -0.5257 0.6409 0
M  V30 10 H -3.5646 1.1807 0.2271 0
M  V30 11 H 3.0019 -0.1791 0.9073 0
M  V30 12 H 3.5572 1.0064 -0.337 0
M  V30 13 H 2.8523 -0.572 -0.8604 0
M  V30 END ATOM
M  V30 BEGIN BOND
M  V30 1 1 1 2
M  V30 2 1 1 3
M  V30 3 2 2 4
M  V30 4 2 3 5
M  V30 5 1 3 6
M  V30 6 1 4 7
M  V30 7 1 7 8
M  V30 8 1 4 5
M  V30 9 1 6 9
M  V30 10 1 6 10
M  V30 11 1 8 11
M  V30 12 1 8 12
M  V30 13 1 8 13
M  V30 END BOND
M  V30 END CTAB
M  END
>  <Structure No>
5535

>  <LogS>
-1.2427

>  <MMFF94 Energy>
-42.096

$$$$
Compound 5536
Actelion Java MolfileCreator 2.0

  0  0  0  0  0  0              0 V3000
M  V30 BEGIN CTAB
M  V30 COUNTS 16 16 0 0 0
M  V30 BEGIN ATOM
M  V30 1 S 1.7087 -0.4879 1.7901 0
M  V30 2 N 0.2457 -0.7337 1.0402 0
M  V30 3 C 2.475 0.2167 0.4994 0
M  V30 4 C 0.4063 -0.2443 -0.2245 0
M  V30 5 N 1.6279 0.2835 -0.546 0
M  V30 6 N 3.8199 0.6855 0.4762 0
M  V30 7 O -0.6239 -0.2774 -1.1696 0
M  V30 8 C -1.9343 -0.7644 -0.8869 0
M  V30 9 C -2.7265 0.2578 -0.08 0
M  V30 10 H 4.4218 0.6017 1.325 0
M  V30 11 H 4.2118 1.1163 -0.39 0
M  V30 12 H -1.88 -1.7309 -0.3402 0
M  V30 13 H -2.4596 -0.9429 -1.8487 0
M  V30 14 H -2.7737 1.2209 -0.6311 0
M  V30 15 H -2.2497 0.4269 0.9077 0
M  V30 16 H -3.7599 -0.1146 0.0823 0
M  V30 END ATOM
M  V30 BEGIN BOND
M  V30 1 1 1 2
M  V30 2 1 1 3
M  V30 3 2 2 4
M  V30 4 2 3 5
M  V30 5 1 3 6
M  V30 6 1 4 7
M  V30 7 1 7 8
M  V30 8 1 8 9
M  V30 9 1 4 5
M  V30 10 1 6 10
M  V30 11 1 6 11
M  V30 12 1 8 12
M  V30 13 1 8 13
M  V30 14 1 9 14
M  V30 15 1 9 15
M  V30 16 1 9 16
M  V30 END BOND
M  V30 END CTAB
M  END
>  <Structure No>
5536

>  <LogS>
-0.6514

>  <MMFF94 Energy>
-44.289

$$$$
Compound 5537
Actelion Java MolfileCreator 2.0

  0  0  0  0  0  0              0 V3000
M  V30 BEGIN CTAB
M  V30 COUNTS 19 18 0 0 0
M  V30 BEGIN ATOM
M  V30 1 S -1.3339 -0.25 2.2517 0
M  V30 2 C -1.5459 -0.4189 0.4462 0 CFG=1
M  V30 3 C -1.9942 0.9288 -0.1405 0
M  V30 4 C -0.244 -0.9318 -0.1875 0
M  V30 5 S -2.4771 0.7779 -1.8922 0
M  V30 6 O 0.8163 -0.0034 0.0259 0
M  V30 7 C 2.1128 -0.2175 -0.4486 0
M  V30 8 O 2.4045 -1.2733 -1.0734 0
M  V30 9 C 3.173 0.7925 -0.1693 0
M  V30 10 H -1.2016 -1.6377 2.4508 0
M  V30 11 H -2.3472 -1.1695 0.2715 0
M  V30 12 H -2.873 1.307 0.4243 0
M  V30 13 H -1.1824 1.6816 -0.0528 0
M  V30 14 H -0.3884 -1.0902 -1.2778 0
M  V30 15 H 0.0243 -1.9112 0.2649 0
M  V30 16 H -3.5953 -0.0255 -1.5977 0
M  V30 17 H 2.7117 1.7858 0.0123 0
M  V30 18 H 3.7466 0.4873 0.7302 0
M  V30 19 H 3.8627 0.8709 -1.0359 0
M  V30 END ATOM
M  V30 BEGIN BOND
M  V30 1 1 1 2
M  V30 2 1 2 3
M  V30 3 1 2 4
M  V30 4 1 3 5
M  V30 5 1 4 6
M  V30 6 1 6 7
M  V30 7 2 7 8
M  V30 8 1 7 9
M  V30 9 1 1 10
M  V30 10 1 2 11
M  V30 11 1 3 12
M  V30 12 1 3 13
M  V30 13 1 4 14
M  V30 14 1 4 15
M  V30 15 1 5 16
M  V30 16 1 9 17
M  V30 17 1 9 18
M  V30 18 1 9 19
M  V30 END BOND
M  V30 BEGIN COLLECTION
M  V30 MDLV30/STEABS ATOMS=(1 2)
M  V30 END COLLECTION
M  V30 END CTAB
M  END
>  <Structure No>
5537

>  <LogS>
-1.2208

>  <MMFF94 Energy>
14.455

$$$$
Compound 5538
Actelion Java MolfileCreator 2.0

  0  0  0  0  0  0              0 V3000
M  V30 BEGIN CTAB
M  V30 COUNTS 25 24 0 0 0
M  V30 BEGIN ATOM
M  V30 1 O -2.4716 -0.1543 -1.8532 0
M  V30 2 C -2.033 0.5219 -0.8846 0
M  V30 3 N -2.3187 1.9204 -0.8274 0
M  V30 4 C -1.2165 -0.129 0.1699 0
M  V30 5 C -1.5384 -1.3323 0.6848 0
M  V30 6 C 0.065 0.5354 0.6183 0
M  V30 7 C -2.7868 -2.0865 0.3369 0
M  V30 8 C 1.2562 0.006 -0.1885 0
M  V30 9 C 2.5626 0.6755 0.253 0
M  V30 10 C 3.7497 0.1494 -0.5482 0
M  V30 11 H -2.0756 2.4887 0.0136 0
M  V30 12 H -2.8461 2.379 -1.6033 0
M  V30 13 H -0.8896 -1.7777 1.4308 0
M  V30 14 H 0.2317 0.3469 1.7023 0
M  V30 15 H 0.001 1.636 0.4892 0
M  V30 16 H -2.7426 -2.4379 -0.7146 0
M  V30 17 H -3.6795 -1.4428 0.4858 0
M  V30 18 H -2.8796 -2.9755 0.9953 0
M  V30 19 H 1.0856 0.2082 -1.2693 0
M  V30 20 H 1.3403 -1.0938 -0.0442 0
M  V30 21 H 2.489 1.7753 0.1063 0
M  V30 22 H 2.7402 0.4752 1.3323 0
M  V30 23 H 3.6085 0.3596 -1.6298 0
M  V30 24 H 4.6798 0.6513 -0.2074 0
M  V30 25 H 3.8616 -0.9455 -0.3983 0
M  V30 END ATOM
M  V30 BEGIN BOND
M  V30 1 2 1 2
M  V30 2 1 2 3
M  V30 3 1 2 4
M  V30 4 2 4 5
M  V30 5 1 4 6
M  V30 6 1 5 7
M  V30 7 1 6 8
M  V30 8 1 8 9
M  V30 9 1 9 10
M  V30 10 1 3 11
M  V30 11 1 3 12
M  V30 12 1 5 13
M  V30 13 1 6 14
M  V30 14 1 6 15
M  V30 15 1 7 16
M  V30 16 1 7 17
M  V30 17 1 7 18
M  V30 18 1 8 19
M  V30 19 1 8 20
M  V30 20 1 9 21
M  V30 21 1 9 22
M  V30 22 1 10 23
M  V30 23 1 10 24
M  V30 24 1 10 25
M  V30 END BOND
M  V30 END CTAB
M  END
>  <Structure No>
5538

>  <LogS>
-1.3717

>  <MMFF94 Energy>
-29.066

$$$$
Compound 5539
Actelion Java MolfileCreator 2.0

  0  0  0  0  0  0              0 V3000
M  V30 BEGIN CTAB
M  V30 COUNTS 22 23 0 0 0
M  V30 BEGIN ATOM
M  V30 1 O -0.322 -0.644 -1.2884 0
M  V30 2 C -0.6126 -0.1524 -0.164 0
M  V30 3 N 0.4364 0.1275 0.7862 0
M  V30 4 C -2.0449 0.1163 0.1257 0
M  V30 5 C 1.8324 -0.1168 0.5462 0
M  V30 6 N -2.9653 -0.1815 -0.8342 0
M  V30 7 C -2.5035 0.6631 1.3406 0
M  V30 8 N 2.7393 0.1857 1.5149 0
M  V30 9 N 2.2635 -0.6454 -0.6325 0
M  V30 10 C -4.2935 0.0329 -0.65 0
M  V30 11 N -3.8339 0.8761 1.5204 0
M  V30 12 C 4.0672 -0.03 1.3273 0
M  V30 13 C 3.5827 -0.8763 -0.8588 0
M  V30 14 C -4.7375 0.5738 0.5541 0
M  V30 15 C 4.5203 -0.5704 0.1255 0
M  V30 16 H 0.2027 0.5332 1.716 0
M  V30 17 H -1.8369 0.9241 2.1457 0
M  V30 18 H -4.9972 -0.2151 -1.4333 0
M  V30 19 H 4.7697 0.2182 2.1115 0
M  V30 20 H 3.9021 -1.297 -1.8028 0
M  V30 21 H -5.7914 0.7525 0.7209 0
M  V30 22 H 5.575 -0.7484 -0.0392 0
M  V30 END ATOM
M  V30 BEGIN BOND
M  V30 1 2 1 2
M  V30 2 1 2 3
M  V30 3 1 2 4
M  V30 4 1 3 5
M  V30 5 2 4 6
M  V30 6 1 4 7
M  V30 7 2 5 8
M  V30 8 1 5 9
M  V30 9 1 6 10
M  V30 10 2 7 11
M  V30 11 1 8 12
M  V30 12 2 9 13
M  V30 13 2 10 14
M  V30 14 2 12 15
M  V30 15 1 11 14
M  V30 16 1 13 15
M  V30 17 1 3 16
M  V30 18 1 7 17
M  V30 19 1 10 18
M  V30 20 1 12 19
M  V30 21 1 13 20
M  V30 22 1 14 21
M  V30 23 1 15 22
M  V30 END BOND
M  V30 END CTAB
M  END
>  <Structure No>
5539

>  <LogS>
-0.3036

>  <MMFF94 Energy>
3.6359

$$$$
Compound 5540
Actelion Java MolfileCreator 2.0

  0  0  0  0  0  0              0 V3000
M  V30 BEGIN CTAB
M  V30 COUNTS 41 41 0 0 0
M  V30 BEGIN ATOM
M  V30 1 O 3.467 -1.6535 1.0233 0
M  V30 2 C 3.5587 -0.7744 0.1223 0
M  V30 3 O 2.5253 -0.6116 -0.8091 0
M  V30 4 C 4.7613 0.0824 0.0427 0
M  V30 5 C 1.3076 -1.3533 -0.7725 0
M  V30 6 C 4.8745 1.0659 -0.9545 0
M  V30 7 C 5.8162 -0.0632 0.9595 0
M  V30 8 C 0.3784 -0.8035 0.3167 0
M  V30 9 N 5.9829 1.8512 -1.0212 0
M  V30 10 C 6.9426 0.7561 0.8681 0
M  V30 11 C -0.8918 -1.6518 0.5029 0
M  V30 12 C 7.0086 1.7182 -0.1399 0
M  V30 13 C -1.8154 -1.7177 -0.7296 0
M  V30 14 C -2.2966 -0.3533 -1.263 0
M  V30 15 C -3.017 0.5344 -0.2319 0
M  V30 16 C -4.3209 -0.0939 0.2883 0
M  V30 17 C -5.066 0.8247 1.2695 0
M  V30 18 C -5.7445 2.0065 0.577 0
M  V30 19 H 1.522 -2.4312 -0.6028 0
M  V30 20 H 0.8173 -1.2501 -1.7622 0
M  V30 21 H 4.0854 1.2126 -1.6801 0
M  V30 22 H 5.7714 -0.8077 1.7445 0
M  V30 23 H 0.9236 -0.7955 1.2846 0
M  V30 24 H 0.1146 0.2501 0.0879 0
M  V30 25 H 7.757 0.6465 1.5725 0
M  V30 26 H -0.5923 -2.6882 0.7714 0
M  V30 27 H -1.4626 -1.2592 1.371 0
M  V30 28 H 7.8755 2.3598 -0.2222 0
M  V30 29 H -1.2922 -2.2524 -1.5502 0
M  V30 30 H -2.6964 -2.345 -0.4783 0
M  V30 31 H -2.9827 -0.5348 -2.1188 0
M  V30 32 H -1.4296 0.2062 -1.6736 0
M  V30 33 H -3.2499 1.496 -0.7349 0
M  V30 34 H -2.3403 0.7677 0.6166 0
M  V30 35 H -4.0798 -1.0319 0.8313 0
M  V30 36 H -4.9859 -0.3558 -0.5634 0
M  V30 37 H -5.8515 0.2273 1.7814 0
M  V30 38 H -4.3682 1.199 2.05 0
M  V30 39 H -6.3631 2.5596 1.3149 0
M  V30 40 H -4.9915 2.7093 0.1652 0
M  V30 41 H -6.4063 1.6509 -0.2408 0
M  V30 END ATOM
M  V30 BEGIN BOND
M  V30 1 2 1 2
M  V30 2 1 2 3
M  V30 3 1 2 4
M  V30 4 1 3 5
M  V30 5 2 4 6
M  V30 6 1 4 7
M  V30 7 1 5 8
M  V30 8 1 6 9
M  V30 9 2 7 10
M  V30 10 1 8 11
M  V30 11 2 9 12
M  V30 12 1 11 13
M  V30 13 1 13 14
M  V30 14 1 14 15
M  V30 15 1 15 16
M  V30 16 1 16 17
M  V30 17 1 17 18
M  V30 18 1 10 12
M  V30 19 1 5 19
M  V30 20 1 5 20
M  V30 21 1 6 21
M  V30 22 1 7 22
M  V30 23 1 8 23
M  V30 24 1 8 24
M  V30 25 1 10 25
M  V30 26 1 11 26
M  V30 27 1 11 27
M  V30 28 1 12 28
M  V30 29 1 13 29
M  V30 30 1 13 30
M  V30 31 1 14 31
M  V30 32 1 14 32
M  V30 33 1 15 33
M  V30 34 1 15 34
M  V30 35 1 16 35
M  V30 36 1 16 36
M  V30 37 1 17 37
M  V30 38 1 17 38
M  V30 39 1 18 39
M  V30 40 1 18 40
M  V30 41 1 18 41
M  V30 END BOND
M  V30 END CTAB
M  END
>  <Structure No>
5540

>  <LogS>
-3.0958

>  <MMFF94 Energy>
22.574

$$$$
Compound 5541
Actelion Java MolfileCreator 2.0

  0  0  0  0  0  0              0 V3000
M  V30 BEGIN CTAB
M  V30 COUNTS 31 33 0 0 0
M  V30 BEGIN ATOM
M  V30 1 S -0.5825 2.4984 1.915 0
M  V30 2 O -0.5864 3.951 1.531 0
M  V30 3 O -0.1002 2.3655 3.332 0
M  V30 4 N -2.1923 1.8632 1.789 0
M  V30 5 C 0.4921 1.6367 0.8309 0
M  V30 6 C -2.4616 0.4973 1.4336 0
M  V30 7 N 1.6491 1.0586 1.2374 0
M  V30 8 N 0.2198 1.4528 -0.4889 0
M  V30 9 C -1.7142 -0.5664 1.9794 0
M  V30 10 C -3.5072 0.2095 0.5379 0
M  V30 11 N 2.1269 0.4964 0.147 0
M  V30 12 C 1.288 0.7289 -0.8616 0
M  V30 13 F -0.7458 -0.3409 2.9009 0
M  V30 14 C -1.9919 -1.8849 1.6046 0
M  V30 15 F -4.2492 1.212 0.0035 0
M  V30 16 C -3.7781 -1.1118 0.1695 0
M  V30 17 C 3.2662 -0.2201 0.0085 0
M  V30 18 N 1.5288 0.2546 -2.1077 0
M  V30 19 C -3.0187 -2.157 0.6984 0
M  V30 20 C 3.5612 -0.7316 -1.2626 0
M  V30 21 C 2.6645 -0.4755 -2.3266 0
M  V30 22 C 2.9469 -1.017 -3.6913 0
M  V30 23 H -2.9676 2.561 1.734 0
M  V30 24 H -1.4159 -2.6993 2.0249 0
M  V30 25 H -4.577 -1.3262 -0.5284 0
M  V30 26 H 3.9239 -0.3935 0.8507 0
M  V30 27 H -3.231 -3.179 0.412 0
M  V30 28 H 4.4612 -1.3128 -1.4199 0
M  V30 29 H 2.9246 -2.1265 -3.6644 0
M  V30 30 H 3.9483 -0.6784 -4.031 0
M  V30 31 H 2.1857 -0.6608 -4.4178 0
M  V30 END ATOM
M  V30 BEGIN BOND
M  V30 1 2 1 2
M  V30 2 2 1 3
M  V30 3 1 1 4
M  V30 4 1 1 5
M  V30 5 1 4 6
M  V30 6 2 5 7
M  V30 7 1 5 8
M  V30 8 2 6 9
M  V30 9 1 6 10
M  V30 10 1 7 11
M  V30 11 2 8 12
M  V30 12 1 9 13
M  V30 13 1 9 14
M  V30 14 1 10 15
M  V30 15 2 10 16
M  V30 16 1 11 17
M  V30 17 1 12 18
M  V30 18 2 14 19
M  V30 19 2 17 20
M  V30 20 2 18 21
M  V30 21 1 21 22
M  V30 22 1 11 12
M  V30 23 1 16 19
M  V30 24 1 20 21
M  V30 25 1 4 23
M  V30 26 1 14 24
M  V30 27 1 16 25
M  V30 28 1 17 26
M  V30 29 1 19 27
M  V30 30 1 20 28
M  V30 31 1 22 29
M  V30 32 1 22 30
M  V30 33 1 22 31
M  V30 END BOND
M  V30 END CTAB
M  END
>  <Structure No>
5541

>  <LogS>
-3.8248

>  <MMFF94 Energy>
133.45

$$$$
Compound 5542
Actelion Java MolfileCreator 2.0

  0  0  0  0  0  0              0 V3000
M  V30 BEGIN CTAB
M  V30 COUNTS 25 26 0 0 0
M  V30 BEGIN ATOM
M  V30 1 O -0.9628 -2.0871 0.1604 0
M  V30 2 C -1.2475 -0.8639 0.0432 0
M  V30 3 N -0.1992 0.1191 -0.0489 0
M  V30 4 C -2.6677 -0.4493 0.0016 0
M  V30 5 C 1.2046 -0.1829 -0.018 0
M  V30 6 N -2.9905 0.8676 -0.1245 0
M  V30 7 C -3.7064 -1.3915 0.09 0
M  V30 8 N 2.1076 0.8302 -0.1133 0
M  V30 9 N 1.6464 -1.4647 0.1051 0
M  V30 10 C -4.2828 1.2845 -0.1661 0
M  V30 11 N -4.9985 -0.9719 0.0481 0
M  V30 12 C 3.4459 0.5899 -0.0884 0
M  V30 13 C 2.9734 -1.7509 0.1344 0
M  V30 14 C -5.3091 0.3443 -0.0778 0
M  V30 15 C 3.9089 -0.7227 0.0376 0
M  V30 16 C 4.4113 1.7268 -0.1955 0
M  V30 17 H -0.4629 1.1254 -0.1454 0
M  V30 18 H -3.4969 -2.4483 0.1913 0
M  V30 19 H -4.5103 2.3373 -0.267 0
M  V30 20 H 3.3012 -2.777 0.2331 0
M  V30 21 H -6.3441 0.657 -0.1091 0
M  V30 22 H 4.9689 -0.9429 0.0603 0
M  V30 23 H 5.0534 1.5906 -1.0909 0
M  V30 24 H 3.8693 2.6918 -0.2886 0
M  V30 25 H 5.0503 1.763 0.7115 0
M  V30 END ATOM
M  V30 BEGIN BOND
M  V30 1 2 1 2
M  V30 2 1 2 3
M  V30 3 1 2 4
M  V30 4 1 3 5
M  V30 5 2 4 6
M  V30 6 1 4 7
M  V30 7 2 5 8
M  V30 8 1 5 9
M  V30 9 1 6 10
M  V30 10 2 7 11
M  V30 11 1 8 12
M  V30 12 2 9 13
M  V30 13 2 10 14
M  V30 14 2 12 15
M  V30 15 1 12 16
M  V30 16 1 11 14
M  V30 17 1 13 15
M  V30 18 1 3 17
M  V30 19 1 7 18
M  V30 20 1 10 19
M  V30 21 1 13 20
M  V30 22 1 14 21
M  V30 23 1 15 22
M  V30 24 1 16 23
M  V30 25 1 16 24
M  V30 26 1 16 25
M  V30 END BOND
M  V30 END CTAB
M  END
>  <Structure No>
5542

>  <LogS>
-0.7308

>  <MMFF94 Energy>
4.4181

$$$$
Compound 5543
Actelion Java MolfileCreator 2.0

  0  0  0  0  0  0              0 V3000
M  V30 BEGIN CTAB
M  V30 COUNTS 33 34 0 0 0
M  V30 BEGIN ATOM
M  V30 1 Cl -0.8414 -1.5991 1.2623 0
M  V30 2 C 0.5423 -0.5474 0.9758 0
M  V30 3 C 0.4141 0.8569 0.8678 0
M  V30 4 C 1.8098 -1.1386 0.9113 0
M  V30 5 C -0.9019 1.536 0.9076 0
M  V30 6 C 1.5727 1.6388 0.7268 0
M  V30 7 C 2.9564 -0.3507 0.7568 0
M  V30 8 O -1.0269 2.5732 1.6147 0
M  V30 9 C -2.0574 1.0611 0.1019 0
M  V30 10 C 2.8322 1.0395 0.6637 0
M  V30 11 S 4.5425 -1.1079 0.6577 0
M  V30 12 C -3.3057 1.0779 0.618 0
M  V30 13 C -1.8385 0.5458 -1.2783 0
M  V30 14 O 5.5932 -0.1619 1.1679 0
M  V30 15 O 4.5653 -2.3529 1.4993 0
M  V30 16 C 4.8907 -1.5262 -1.0347 0
M  V30 17 O -3.5292 1.5358 1.9136 0 CHG=-1
M  V30 18 C -4.4975 0.6273 -0.1866 0
M  V30 19 O -0.7013 0.6284 -1.8158 0
M  V30 20 C -2.9788 -0.01 -2.0847 0
M  V30 21 C -4.1172 -0.4773 -1.1763 0
M  V30 22 H 1.9014 -2.2147 0.9895 0
M  V30 23 H 1.5 2.7166 0.6449 0
M  V30 24 H 3.7094 1.6609 0.5366 0
M  V30 25 H 4.8798 -0.6054 -1.6538 0
M  V30 26 H 5.8898 -2.0039 -1.1017 0
M  V30 27 H 4.1191 -2.2301 -1.4088 0
M  V30 28 H -5.2837 0.2436 0.4984 0
M  V30 29 H -4.9132 1.4989 -0.7367 0
M  V30 30 H -3.3509 0.7799 -2.772 0
M  V30 31 H -2.6237 -0.8675 -2.6958 0
M  V30 32 H -3.7997 -1.3851 -0.6168 0
M  V30 33 H -5.001 -0.7435 -1.7951 0
M  V30 END ATOM
M  V30 BEGIN BOND
M  V30 1 1 1 2
M  V30 2 2 2 3
M  V30 3 1 2 4
M  V30 4 1 3 5
M  V30 5 1 3 6
M  V30 6 2 4 7
M  V30 7 2 5 8
M  V30 8 1 5 9
M  V30 9 2 6 10
M  V30 10 1 7 11
M  V30 11 2 9 12
M  V30 12 1 9 13
M  V30 13 2 11 14
M  V30 14 2 11 15
M  V30 15 1 11 16
M  V30 16 1 12 17
M  V30 17 1 12 18
M  V30 18 2 13 19
M  V30 19 1 13 20
M  V30 20 1 18 21
M  V30 21 1 7 10
M  V30 22 1 20 21
M  V30 23 1 4 22
M  V30 24 1 6 23
M  V30 25 1 10 24
M  V30 26 1 16 25
M  V30 27 1 16 26
M  V30 28 1 16 27
M  V30 29 1 18 28
M  V30 30 1 18 29
M  V30 31 1 20 30
M  V30 32 1 20 31
M  V30 33 1 21 32
M  V30 34 1 21 33
M  V30 END BOND
M  V30 END CTAB
M  END
>  <Structure No>
5543

>  <LogS>
-3.2994

>  <MMFF94 Energy>
75.888

$$$$
Compound 5544
Actelion Java MolfileCreator 2.0

  0  0  0  0  0  0              0 V3000
M  V30 BEGIN CTAB
M  V30 COUNTS 24 25 0 0 0
M  V30 BEGIN ATOM
M  V30 1 O 4.636 -1.1371 -0.5684 0
M  V30 2 N 3.9941 -0.0715 -0.4622 0 CHG=1
M  V30 3 O 4.6839 1.1191 -0.4407 0 CHG=-1
M  V30 4 C 2.5584 -0.0859 -0.3636 0
M  V30 5 C 1.8423 1.1258 -0.2438 0
M  V30 6 C 1.8455 -1.313 -0.3856 0
M  V30 7 C 0.4535 1.0683 -0.151 0
M  V30 8 C 0.4436 -1.3331 -0.2897 0
M  V30 9 C -0.5249 2.1167 -0.0225 0
M  V30 10 C -0.2362 -0.1194 -0.1722 0
M  V30 11 O -0.2851 3.3511 0.0325 0
M  V30 12 O -1.7977 1.5635 0.0334 0
M  V30 13 C -1.723 0.1331 -0.0547 0
M  V30 14 C -2.2942 -0.4962 1.2203 0
M  V30 15 C -2.4686 -0.3497 -1.3032 0
M  V30 16 H 2.3472 2.0828 -0.223 0
M  V30 17 H 2.373 -2.2536 -0.4765 0
M  V30 18 H -0.0961 -2.2709 -0.3068 0
M  V30 19 H -2.2092 -1.6034 1.1811 0
M  V30 20 H -3.3651 -0.2236 1.3339 0
M  V30 21 H -1.7428 -0.1271 2.1118 0
M  V30 22 H -2.3879 -1.4533 -1.4038 0
M  V30 23 H -3.5428 -0.0744 -1.2366 0
M  V30 24 H -2.0418 0.1238 -2.2134 0
M  V30 END ATOM
M  V30 BEGIN BOND
M  V30 1 2 1 2
M  V30 2 1 2 3
M  V30 3 1 2 4
M  V30 4 2 4 5
M  V30 5 1 4 6
M  V30 6 1 5 7
M  V30 7 2 6 8
M  V30 8 1 7 9
M  V30 9 2 7 10
M  V30 10 2 9 11
M  V30 11 1 9 12
M  V30 12 1 10 13
M  V30 13 1 13 14
M  V30 14 1 13 15
M  V30 15 1 8 10
M  V30 16 1 12 13
M  V30 17 1 5 16
M  V30 18 1 6 17
M  V30 19 1 8 18
M  V30 20 1 14 19
M  V30 21 1 14 20
M  V30 22 1 14 21
M  V30 23 1 15 22
M  V30 24 1 15 23
M  V30 25 1 15 24
M  V30 END BOND
M  V30 END CTAB
M  END
>  <Structure No>
5544

>  <LogS>
-3.0516

>  <MMFF94 Energy>
59.63

$$$$
Compound 5545
Actelion Java MolfileCreator 2.0

  0  0  0  0  0  0              0 V3000
M  V30 BEGIN CTAB
M  V30 COUNTS 24 25 0 0 0
M  V30 BEGIN ATOM
M  V30 1 O 4.3092 -2.0309 0.2435 0
M  V30 2 N 3.9229 -0.8515 0.381 0 CHG=1
M  V30 3 O 4.83 0.1005 0.7866 0 CHG=-1
M  V30 4 C 2.5527 -0.4936 0.127 0
M  V30 5 C 2.1282 0.8446 0.277 0
M  V30 6 C 1.6175 -1.4723 -0.2973 0
M  V30 7 C 0.7918 1.1481 0.0275 0
M  V30 8 C 0.2797 -1.1267 -0.554 0
M  V30 9 C 0.1099 2.4143 5.0E-4 0
M  V30 10 C -0.1225 0.195 -0.3523 0
M  V30 11 O 0.6164 3.5347 0.2693 0
M  V30 12 O -1.2062 2.2257 -0.396 0
M  V30 13 C -1.4705 0.832 -0.6062 0 CFG=2
M  V30 14 C -2.5516 0.3763 0.388 0
M  V30 15 C -3.043 -1.047 0.1321 0
M  V30 16 H 2.8172 1.6284 0.564 0
M  V30 17 H 1.9255 -2.4993 -0.4438 0
M  V30 18 H -0.4133 -1.8713 -0.9196 0
M  V30 19 H -1.7909 0.6687 -1.6579 0
M  V30 20 H -3.4215 1.062 0.2933 0
M  V30 21 H -2.1727 0.4563 1.4306 0
M  V30 22 H -2.2833 -1.7858 0.4571 0
M  V30 23 H -3.278 -1.1954 -0.9431 0
M  V30 24 H -3.9654 -1.2296 0.7228 0
M  V30 END ATOM
M  V30 BEGIN BOND
M  V30 1 2 1 2
M  V30 2 1 2 3
M  V30 3 1 2 4
M  V30 4 2 4 5
M  V30 5 1 4 6
M  V30 6 1 5 7
M  V30 7 2 6 8
M  V30 8 1 7 9
M  V30 9 2 7 10
M  V30 10 2 9 11
M  V30 11 1 9 12
M  V30 12 1 10 13
M  V30 13 1 13 14
M  V30 14 1 14 15
M  V30 15 1 8 10
M  V30 16 1 12 13
M  V30 17 1 5 16
M  V30 18 1 6 17
M  V30 19 1 8 18
M  V30 20 1 13 19
M  V30 21 1 14 20
M  V30 22 1 14 21
M  V30 23 1 15 22
M  V30 24 1 15 23
M  V30 25 1 15 24
M  V30 END BOND
M  V30 BEGIN COLLECTION
M  V30 MDLV30/STEABS ATOMS=(1 13)
M  V30 END COLLECTION
M  V30 END CTAB
M  END
>  <Structure No>
5545

>  <LogS>
-2.55

>  <MMFF94 Energy>
52.812

$$$$
Compound 5546
Actelion Java MolfileCreator 2.0

  0  0  0  0  0  0              0 V3000
M  V30 BEGIN CTAB
M  V30 COUNTS 17 16 0 0 0
M  V30 BEGIN ATOM
M  V30 1 O 1.619 -0.2311 2.5451 0
M  V30 2 C 1.4526 -0.4669 1.3588 0
M  V30 3 C 0.4319 0.3018 0.5625 0 CFG=2
M  V30 4 C -0.6947 -0.6527 0.0874 0 CFG=2
M  V30 5 C 1.1353 1.0449 -0.5824 0
M  V30 6 O -0.2048 -1.6474 -0.7796 0
M  V30 7 C -1.8873 0.0903 -0.5358 0
M  V30 8 H 2.0436 -1.2424 0.8814 0
M  V30 9 H -0.0248 1.0693 1.2279 0
M  V30 10 H -1.091 -1.1696 0.9897 0
M  V30 11 H 0.4138 1.663 -1.1545 0
M  V30 12 H 1.9048 1.7308 -0.1673 0
M  V30 13 H 1.64 0.3367 -1.2727 0
M  V30 14 H -0.0465 -1.2322 -1.6666 0
M  V30 15 H -2.7075 -0.6298 -0.7404 0
M  V30 16 H -1.6063 0.575 -1.4935 0
M  V30 17 H -2.2682 0.8638 0.1645 0
M  V30 END ATOM
M  V30 BEGIN BOND
M  V30 1 2 1 2
M  V30 2 1 2 3
M  V30 3 1 3 4
M  V30 4 1 3 5
M  V30 5 1 4 6
M  V30 6 1 4 7
M  V30 7 1 2 8
M  V30 8 1 3 9
M  V30 9 1 4 10
M  V30 10 1 5 11
M  V30 11 1 5 12
M  V30 12 1 5 13
M  V30 13 1 6 14
M  V30 14 1 7 15
M  V30 15 1 7 16
M  V30 16 1 7 17
M  V30 END BOND
M  V30 BEGIN COLLECTION
M  V30 MDLV30/STEABS ATOMS=(2 3 4)
M  V30 END COLLECTION
M  V30 END CTAB
M  END
>  <Structure No>
5546

>  <LogS>
-0.4906

>  <MMFF94 Energy>
7.201

$$$$
Compound 5547
Actelion Java MolfileCreator 2.0

  0  0  0  0  0  0              0 V3000
M  V30 BEGIN CTAB
M  V30 COUNTS 20 21 0 0 0
M  V30 BEGIN ATOM
M  V30 1 O -3.1985 1.1186 -0.1597 0
M  V30 2 C -2.1034 0.2561 -0.095 0
M  V30 3 C -0.7843 0.7458 -0.0481 0
M  V30 4 C -2.3316 -1.1231 -0.0768 0
M  V30 5 N -0.5498 2.0843 -0.0651 0
M  V30 6 C 0.305 -0.1555 0.017 0
M  V30 7 C -1.2607 -2.016 -0.0126 0
M  V30 8 C 0.7121 2.5783 -0.0207 0
M  V30 9 C 1.6098 0.3845 0.0623 0
M  V30 10 C 0.0516 -1.5408 0.0341 0
M  V30 11 N 1.7724 1.7347 0.0419 0
M  V30 12 C 2.8346 -0.4807 0.1325 0
M  V30 13 H -3.0948 2.126 -0.1755 0
M  V30 14 H -3.3443 -1.5041 -0.1127 0
M  V30 15 H -1.4488 -3.0818 8.0E-4 0
M  V30 16 H 0.8736 3.6473 -0.0354 0
M  V30 17 H 0.857 -2.2614 0.0835 0
M  V30 18 H 3.7528 0.1438 0.1594 0
M  V30 19 H 2.8857 -1.1375 -0.7609 0
M  V30 20 H 2.8077 -1.1007 1.053 0
M  V30 END ATOM
M  V30 BEGIN BOND
M  V30 1 1 1 2
M  V30 2 1 2 3
M  V30 3 2 2 4
M  V30 4 2 3 5
M  V30 5 1 3 6
M  V30 6 1 4 7
M  V30 7 1 5 8
M  V30 8 2 6 9
M  V30 9 1 6 10
M  V30 10 2 8 11
M  V30 11 1 9 12
M  V30 12 2 7 10
M  V30 13 1 9 11
M  V30 14 1 1 13
M  V30 15 1 4 14
M  V30 16 1 7 15
M  V30 17 1 8 16
M  V30 18 1 10 17
M  V30 19 1 12 18
M  V30 20 1 12 19
M  V30 21 1 12 20
M  V30 END BOND
M  V30 END CTAB
M  END
>  <Structure No>
5547

>  <LogS>
-2.6025

>  <MMFF94 Energy>
33.285

$$$$
Compound 5548
Actelion Java MolfileCreator 2.0

  0  0  0  0  0  0              0 V3000
M  V30 BEGIN CTAB
M  V30 COUNTS 21 22 0 0 0
M  V30 BEGIN ATOM
M  V30 1 O -2.4831 1.1208 -0.24 0
M  V30 2 C -1.4145 0.4519 -0.1645 0
M  V30 3 N -0.2143 1.0777 0.0769 0
M  V30 4 C -1.4602 -0.9457 -0.3269 0
M  V30 5 C 0.9284 0.3283 0.206 0
M  V30 6 C -0.1623 2.5368 0.2716 0
M  V30 7 N -0.316 -1.6677 -0.2171 0
M  V30 8 C -2.7516 -1.655 -0.6036 0
M  V30 9 N 2.1279 0.9103 0.4889 0
M  V30 10 C 0.8687 -1.0669 0.047 0
M  V30 11 C 3.2592 0.1672 0.6126 0
M  V30 12 C 2.0408 -1.8114 0.175 0
M  V30 13 N 3.2112 -1.1817 0.455 0
M  V30 14 H -0.9993 3.0501 -0.2475 0
M  V30 15 H -0.2114 2.7697 1.3561 0
M  V30 16 H 0.7732 2.9606 -0.1519 0
M  V30 17 H -2.5793 -2.7449 -0.731 0
M  V30 18 H -3.4525 -1.5028 0.2438 0
M  V30 19 H -3.2079 -1.2577 -1.5345 0
M  V30 20 H 4.2 0.6509 0.8364 0
M  V30 21 H 2.0249 -2.8873 0.057 0
M  V30 END ATOM
M  V30 BEGIN BOND
M  V30 1 2 1 2
M  V30 2 1 2 3
M  V30 3 1 2 4
M  V30 4 1 3 5
M  V30 5 1 3 6
M  V30 6 2 4 7
M  V30 7 1 4 8
M  V30 8 2 5 9
M  V30 9 1 5 10
M  V30 10 1 9 11
M  V30 11 2 10 12
M  V30 12 2 11 13
M  V30 13 1 7 10
M  V30 14 1 12 13
M  V30 15 1 6 14
M  V30 16 1 6 15
M  V30 17 1 6 16
M  V30 18 1 8 17
M  V30 19 1 8 18
M  V30 20 1 8 19
M  V30 21 1 11 20
M  V30 22 1 12 21
M  V30 END BOND
M  V30 END CTAB
M  END
>  <Structure No>
5548

>  <LogS>
-1.489

>  <MMFF94 Energy>
40.423

$$$$
Compound 5549
Actelion Java MolfileCreator 2.0

  0  0  0  0  0  0              0 V3000
M  V30 BEGIN CTAB
M  V30 COUNTS 26 26 0 0 0
M  V30 BEGIN ATOM
M  V30 1 O -2.7548 0.0786 1.5734 0
M  V30 2 C -2.5959 0.2801 0.3391 0
M  V30 3 N -3.641 0.8997 -0.4114 0
M  V30 4 C -1.2917 -0.0952 -0.3257 0 CFG=1
M  V30 5 N -0.2271 0.8585 0.0715 0 CHG=1
M  V30 6 C -0.9189 -1.5762 -0.03 0
M  V30 7 C 1.118 0.3249 -0.221 0 CFG=1
M  V30 8 C 0.156 -1.6846 1.0537 0
M  V30 9 C 2.1773 1.3836 -0.0293 0
M  V30 10 C 1.426 -0.9084 0.6635 0
M  V30 11 O 2.1165 2.1689 0.955 0
M  V30 12 N 3.2839 1.4676 -0.9277 0
M  V30 13 H -3.5249 1.1009 -1.4293 0
M  V30 14 H -4.5364 1.1657 0.0552 0
M  V30 15 H -1.4399 -0.0176 -1.4275 0
M  V30 16 H -0.2957 1.0805 1.0942 0
M  V30 17 H -0.3691 1.7496 -0.4616 0
M  V30 18 H -0.5245 -2.0458 -0.9586 0
M  V30 19 H -1.812 -2.1679 0.2697 0
M  V30 20 H 1.1466 0.006 -1.289 0
M  V30 21 H 0.4095 -2.7533 1.2239 0
M  V30 22 H -0.2499 -1.28 2.0067 0
M  V30 23 H 2.1148 -1.5829 0.1091 0
M  V30 24 H 1.9439 -0.6045 1.6006 0
M  V30 25 H 3.3737 0.8053 -1.7297 0
M  V30 26 H 4.0232 2.1912 -0.7855 0
M  V30 END ATOM
M  V30 BEGIN BOND
M  V30 1 2 1 2
M  V30 2 1 2 3
M  V30 3 1 2 4
M  V30 4 1 4 5
M  V30 5 1 4 6
M  V30 6 1 5 7
M  V30 7 1 6 8
M  V30 8 1 7 9
M  V30 9 1 7 10
M  V30 10 2 9 11
M  V30 11 1 9 12
M  V30 12 1 8 10
M  V30 13 1 3 13
M  V30 14 1 3 14
M  V30 15 1 4 15
M  V30 16 1 5 16
M  V30 17 1 5 17
M  V30 18 1 6 18
M  V30 19 1 6 19
M  V30 20 1 7 20
M  V30 21 1 8 21
M  V30 22 1 8 22
M  V30 23 1 10 23
M  V30 24 1 10 24
M  V30 25 1 12 25
M  V30 26 1 12 26
M  V30 END BOND
M  V30 BEGIN COLLECTION
M  V30 MDLV30/STEABS ATOMS=(2 4 7)
M  V30 END COLLECTION
M  V30 END CTAB
M  END
>  <Structure No>
5549

>  <LogS>
0.2893

>  <MMFF94 Energy>
24.882

$$$$
Compound 5550
Actelion Java MolfileCreator 2.0

  0  0  0  0  0  0              0 V3000
M  V30 BEGIN CTAB
M  V30 COUNTS 35 35 0 0 0
M  V30 BEGIN ATOM
M  V30 1 O 2.376 3.0104 1.8212 0
M  V30 2 N 2.9663 1.9631 1.1511 0
M  V30 3 C 2.2778 1.0688 0.5056 0
M  V30 4 C 2.9687 0.0161 -0.2526 0
M  V30 5 C 0.7761 1.1424 0.3809 0
M  V30 6 N 4.2482 0.1234 -0.4776 0
M  V30 7 C 2.1191 -1.0913 -0.8196 0
M  V30 8 C 0.0844 -0.2415 0.5912 0 CFG=2
M  V30 9 O 4.9927 -0.7237 -1.275 0
M  V30 10 C 0.9931 -1.449 0.1626 0
M  V30 11 C -1.3984 -0.2969 0.026 0
M  V30 12 C -2.1725 0.9972 0.4634 0
M  V30 13 C -1.3977 -0.402 -1.5205 0
M  V30 14 C -2.1279 -1.5351 0.616 0
M  V30 15 C -3.6852 1.0073 0.2023 0
M  V30 16 H 2.9495 3.6849 2.3115 0
M  V30 17 H 0.5587 1.5338 -0.6336 0
M  V30 18 H 0.3598 1.8672 1.1122 0
M  V30 19 H 2.7101 -2.0156 -0.9781 0
M  V30 20 H 1.6904 -0.7674 -1.7917 0
M  V30 21 H -0.0147 -0.3354 1.6977 0
M  V30 22 H 4.5783 -1.4325 -1.8651 0
M  V30 23 H 0.4203 -2.2848 -0.2787 0
M  V30 24 H 1.4691 -1.871 1.0765 0
M  V30 25 H -2.0234 1.1631 1.5533 0
M  V30 26 H -1.7537 1.882 -0.062 0
M  V30 27 H -0.8301 -1.2859 -1.8727 0
M  V30 28 H -0.9562 0.5021 -1.9867 0
M  V30 29 H -2.4277 -0.5177 -1.915 0
M  V30 30 H -2.2313 -1.4369 1.7182 0
M  V30 31 H -1.6011 -2.4847 0.4069 0
M  V30 32 H -3.1407 -1.6525 0.1771 0
M  V30 33 H -4.0898 2.0095 0.4581 0
M  V30 34 H -3.9167 0.8128 -0.8636 0
M  V30 35 H -4.2065 0.2681 0.8445 0
M  V30 END ATOM
M  V30 BEGIN BOND
M  V30 1 1 1 2
M  V30 2 2 2 3
M  V30 3 1 3 4
M  V30 4 1 3 5
M  V30 5 2 4 6
M  V30 6 1 4 7
M  V30 7 1 5 8
M  V30 8 1 6 9
M  V30 9 1 7 10
M  V30 10 1 8 11
M  V30 11 1 11 12
M  V30 12 1 11 13
M  V30 13 1 11 14
M  V30 14 1 12 15
M  V30 15 1 8 10
M  V30 16 1 1 16
M  V30 17 1 5 17
M  V30 18 1 5 18
M  V30 19 1 7 19
M  V30 20 1 7 20
M  V30 21 1 8 21
M  V30 22 1 9 22
M  V30 23 1 10 23
M  V30 24 1 10 24
M  V30 25 1 12 25
M  V30 26 1 12 26
M  V30 27 1 13 27
M  V30 28 1 13 28
M  V30 29 1 13 29
M  V30 30 1 14 30
M  V30 31 1 14 31
M  V30 32 1 14 32
M  V30 33 1 15 33
M  V30 34 1 15 34
M  V30 35 1 15 35
M  V30 END BOND
M  V30 BEGIN COLLECTION
M  V30 MDLV30/STEABS ATOMS=(1 8)
M  V30 END COLLECTION
M  V30 END CTAB
M  END
>  <Structure No>
5550

>  <LogS>
-3.9652

>  <MMFF94 Energy>
92.842

$$$$
Compound 5551
Actelion Java MolfileCreator 2.0

  0  0  0  0  0  0              0 V3000
M  V30 BEGIN CTAB
M  V30 COUNTS 26 27 0 0 0
M  V30 BEGIN ATOM
M  V30 1 O 4.3034 0.7958 0.1591 0
M  V30 2 C 3.191 -0.0264 -0.0261 0
M  V30 3 C 1.8864 0.4299 0.2439 0
M  V30 4 C 3.3873 -1.3307 -0.4881 0
M  V30 5 N 1.6882 1.6904 0.71 0
M  V30 6 C 0.7762 -0.4264 0.0403 0
M  V30 7 C 2.2996 -2.1838 -0.6783 0
M  V30 8 C 0.4442 2.1491 0.9893 0
M  V30 9 C -0.5166 0.0819 0.3155 0
M  V30 10 C 1.0013 -1.7413 -0.4154 0
M  V30 11 N -0.6344 1.3505 0.7977 0
M  V30 12 C -1.7619 -0.7664 0.1367 0
M  V30 13 C -3.0867 0.004 0.279 0
M  V30 14 C -3.3557 0.9223 -0.9139 0
M  V30 15 H 4.2233 1.7494 0.4911 0
M  V30 16 H 4.3887 -1.6859 -0.6959 0
M  V30 17 H 2.4638 -3.1944 -1.0297 0
M  V30 18 H 0.3113 3.1537 1.3664 0
M  V30 19 H 0.1878 -2.4376 -0.5656 0
M  V30 20 H -1.7468 -1.2505 -0.8636 0
M  V30 21 H -1.7434 -1.5698 0.9044 0
M  V30 22 H -3.9169 -0.7326 0.3417 0
M  V30 23 H -3.0975 0.5924 1.2219 0
M  V30 24 H -2.5646 1.6947 -1.0071 0
M  V30 25 H -4.3312 1.4341 -0.7737 0
M  V30 26 H -3.3994 0.3308 -1.853 0
M  V30 END ATOM
M  V30 BEGIN BOND
M  V30 1 1 1 2
M  V30 2 1 2 3
M  V30 3 2 2 4
M  V30 4 2 3 5
M  V30 5 1 3 6
M  V30 6 1 4 7
M  V30 7 1 5 8
M  V30 8 2 6 9
M  V30 9 1 6 10
M  V30 10 2 8 11
M  V30 11 1 9 12
M  V30 12 1 12 13
M  V30 13 1 13 14
M  V30 14 2 7 10
M  V30 15 1 9 11
M  V30 16 1 1 15
M  V30 17 1 4 16
M  V30 18 1 7 17
M  V30 19 1 8 18
M  V30 20 1 10 19
M  V30 21 1 12 20
M  V30 22 1 12 21
M  V30 23 1 13 22
M  V30 24 1 13 23
M  V30 25 1 14 24
M  V30 26 1 14 25
M  V30 27 1 14 26
M  V30 END BOND
M  V30 END CTAB
M  END
>  <Structure No>
5551

>  <LogS>
-2.9206

>  <MMFF94 Energy>
33.194

$$$$
Compound 5552
Actelion Java MolfileCreator 2.0

  0  0  0  0  0  0              0 V3000
M  V30 BEGIN CTAB
M  V30 COUNTS 29 30 0 0 0
M  V30 BEGIN ATOM
M  V30 1 O 4.3847 0.7165 0.2387 0
M  V30 2 C 3.3957 1.4356 0.5396 0
M  V30 3 O 3.3697 2.7635 0.131 0 CHG=-1
M  V30 4 C 2.2927 0.8933 1.4068 0
M  V30 5 C 1.4188 -0.2357 0.781 0 CFG=2
M  V30 6 N 2.2088 -1.2146 0.0241 0 CHG=1
M  V30 7 C 0.2312 0.2589 -0.0562 0
M  V30 8 C -1.0471 -0.3838 -0.0301 0
M  V30 9 C 0.4131 1.3439 -0.9378 0
M  V30 10 C -2.122 0.1718 -0.7829 0
M  V30 11 C -1.2942 -1.5737 0.697 0
M  V30 12 C -0.6456 1.8634 -1.6779 0
M  V30 13 C -1.9109 1.2979 -1.5857 0
M  V30 14 C -3.3956 -0.4178 -0.7433 0
M  V30 15 C -2.567 -2.1493 0.7184 0
M  V30 16 C -3.6157 -1.5684 0.0103 0
M  V30 17 H 1.6354 1.7291 1.7319 0
M  V30 18 H 2.772 0.5005 2.3307 0
M  V30 19 H 1.0192 -0.744 1.6809 0
M  V30 20 H 1.6114 -2.0403 -0.2106 0
M  V30 21 H 2.5593 -0.7956 -0.8676 0
M  V30 22 H 3.0139 -1.5507 0.601 0
M  V30 23 H 1.378 1.8018 -1.0669 0
M  V30 24 H -0.5199 -2.0999 1.2316 0
M  V30 25 H -0.4819 2.7114 -2.3306 0
M  V30 26 H -2.7202 1.7238 -2.1672 0
M  V30 27 H -4.2194 0.006 -1.3055 0
M  V30 28 H -2.7384 -3.0575 1.282 0
M  V30 29 H -4.5987 -2.0212 0.0318 0
M  V30 END ATOM
M  V30 BEGIN BOND
M  V30 1 2 1 2
M  V30 2 1 2 3
M  V30 3 1 2 4
M  V30 4 1 4 5
M  V30 5 1 5 6
M  V30 6 1 5 7
M  V30 7 1 7 8
M  V30 8 2 7 9
M  V30 9 1 8 10
M  V30 10 2 8 11
M  V30 11 1 9 12
M  V30 12 1 10 13
M  V30 13 2 10 14
M  V30 14 1 11 15
M  V30 15 1 14 16
M  V30 16 2 12 13
M  V30 17 2 15 16
M  V30 18 1 4 17
M  V30 19 1 4 18
M  V30 20 1 5 19
M  V30 21 1 6 20
M  V30 22 1 6 21
M  V30 23 1 6 22
M  V30 24 1 9 23
M  V30 25 1 11 24
M  V30 26 1 12 25
M  V30 27 1 13 26
M  V30 28 1 14 27
M  V30 29 1 15 28
M  V30 30 1 16 29
M  V30 END BOND
M  V30 BEGIN COLLECTION
M  V30 MDLV30/STEABS ATOMS=(1 5)
M  V30 END COLLECTION
M  V30 END CTAB
M  END
>  <Structure No>
5552

>  <LogS>
-1.5902

>  <MMFF94 Energy>
-85.635

$$$$
Compound 5553
Actelion Java MolfileCreator 2.0

  0  0  0  0  0  0              0 V3000
M  V30 BEGIN CTAB
M  V30 COUNTS 35 35 0 0 0
M  V30 BEGIN ATOM
M  V30 1 O 2.2064 -0.3149 -2.2853 0
M  V30 2 C 2.7501 -0.3633 -1.1473 0
M  V30 3 O 2.0176 -0.7991 -0.0356 0
M  V30 4 C 4.1654 0.0333 -0.9848 0
M  V30 5 C 0.6353 -1.1465 -0.09 0
M  V30 6 C 4.9269 0.4681 -2.0839 0
M  V30 7 C 4.7812 -0.0146 0.2763 0
M  V30 8 C -0.2327 0.1177 -0.1345 0
M  V30 9 N 6.2271 0.8303 -1.9175 0
M  V30 10 C 6.1175 0.3628 0.4189 0
M  V30 11 C -1.7271 -0.1925 -0.3167 0
M  V30 12 C 6.8319 0.787 -0.7015 0
M  V30 13 C -2.3693 -0.7724 0.9552 0
M  V30 14 C -3.8649 -1.0776 0.7742 0
M  V30 15 C -4.7297 0.1913 0.7434 0
M  V30 16 C -6.2147 -0.1572 0.6972 0
M  V30 17 H 0.4395 -1.7927 -0.9736 0
M  V30 18 H 0.3963 -1.7297 0.8224 0
M  V30 19 H 4.4916 0.5208 -3.0733 0
M  V30 20 H 4.2328 -0.3422 1.1506 0
M  V30 21 H 0.0936 0.7462 -0.9905 0
M  V30 22 H -0.0765 0.7114 0.7923 0
M  V30 23 H 6.5949 0.327 1.3896 0
M  V30 24 H -2.2345 0.7588 -0.5804 0
M  V30 25 H -1.8644 -0.895 -1.1676 0
M  V30 26 H 7.868 1.0823 -0.605 0
M  V30 27 H -1.8644 -1.726 1.216 0
M  V30 28 H -2.228 -0.0721 1.8074 0
M  V30 29 H -4.191 -1.71 1.6292 0
M  V30 30 H -4.0203 -1.6657 -0.1567 0
M  V30 31 H -4.4864 0.7996 -0.1525 0
M  V30 32 H -4.5342 0.8035 1.6505 0
M  V30 33 H -6.8152 0.7762 0.6662 0
M  V30 34 H -6.4419 -0.7563 -0.2101 0
M  V30 35 H -6.5044 -0.735 1.6007 0
M  V30 END ATOM
M  V30 BEGIN BOND
M  V30 1 2 1 2
M  V30 2 1 2 3
M  V30 3 1 2 4
M  V30 4 1 3 5
M  V30 5 2 4 6
M  V30 6 1 4 7
M  V30 7 1 5 8
M  V30 8 1 6 9
M  V30 9 2 7 10
M  V30 10 1 8 11
M  V30 11 2 9 12
M  V30 12 1 11 13
M  V30 13 1 13 14
M  V30 14 1 14 15
M  V30 15 1 15 16
M  V30 16 1 10 12
M  V30 17 1 5 17
M  V30 18 1 5 18
M  V30 19 1 6 19
M  V30 20 1 7 20
M  V30 21 1 8 21
M  V30 22 1 8 22
M  V30 23 1 10 23
M  V30 24 1 11 24
M  V30 25 1 11 25
M  V30 26 1 12 26
M  V30 27 1 13 27
M  V30 28 1 13 28
M  V30 29 1 14 29
M  V30 30 1 14 30
M  V30 31 1 15 31
M  V30 32 1 15 32
M  V30 33 1 16 33
M  V30 34 1 16 34
M  V30 35 1 16 35
M  V30 END BOND
M  V30 END CTAB
M  END
>  <Structure No>
5553

>  <LogS>
-2.7429

>  <MMFF94 Energy>
22.811

$$$$
Compound 5554
Actelion Java MolfileCreator 2.0

  0  0  0  0  0  0              0 V3000
M  V30 BEGIN CTAB
M  V30 COUNTS 43 45 0 0 0
M  V30 BEGIN ATOM
M  V30 1 Cl 9.4321 1.1348 -1.5403 0
M  V30 2 C 7.8366 1.1449 -0.8117 0
M  V30 3 C 6.9175 0.1363 -1.1271 0
M  V30 4 C 7.4837 2.1615 0.0857 0
M  V30 5 C 5.6453 0.1467 -0.5448 0
M  V30 6 C 6.2126 2.1749 0.6705 0
M  V30 7 N 4.7431 -0.8269 -0.8326 0
M  V30 8 C 5.2913 1.1701 0.3569 0
M  V30 9 C 3.504 -0.8251 -0.2741 0
M  V30 10 N 4.0519 1.1673 0.9138 0
M  V30 11 C 3.1404 0.2042 0.6127 0
M  V30 12 O 1.884 0.2431 1.2335 0
M  V30 13 C 0.6887 -0.2416 0.6823 0
M  V30 14 C -0.3035 -0.7199 1.5441 0
M  V30 15 C 0.4425 -0.215 -0.7011 0
M  V30 16 C -1.5154 -1.1973 1.0362 0
M  V30 17 C -0.7689 -0.6913 -1.2098 0
M  V30 18 C -1.7567 -1.1862 -0.351 0
M  V30 19 O -2.956 -1.65 -0.9163 0
M  V30 20 C -4.0875 -2.1242 -0.1833 0 CFG=1
M  V30 21 C -4.742 -0.994 0.5566 0
M  V30 22 C -5.0835 -2.7457 -1.157 0
M  V30 23 O -5.283 -1.2091 1.6756 0
M  V30 24 O -4.7769 0.2797 -0.0183 0
M  V30 25 C -5.3697 1.399 0.6308 0
M  V30 26 C -5.2216 2.632 -0.2456 0
M  V30 27 H 7.192 -0.65 -1.8194 0
M  V30 28 H 8.1937 2.9411 0.3303 0
M  V30 29 H 5.9473 2.964 1.363 0
M  V30 30 H 2.8191 -1.6297 -0.5038 0
M  V30 31 H -0.1309 -0.7296 2.6129 0
M  V30 32 H 1.1763 0.191 -1.3845 0
M  V30 33 H -2.2543 -1.5694 1.7315 0
M  V30 34 H -0.9456 -0.6668 -2.2776 0
M  V30 35 H -3.7648 -2.9146 0.5299 0
M  V30 36 H -4.602 -3.5866 -1.6994 0
M  V30 37 H -5.4241 -1.9918 -1.8992 0
M  V30 38 H -5.9652 -3.14 -0.6075 0
M  V30 39 H -4.8647 1.5785 1.6048 0
M  V30 40 H -6.4489 1.2015 0.8093 0
M  V30 41 H -4.1461 2.8423 -0.425 0
M  V30 42 H -5.729 2.4678 -1.2197 0
M  V30 43 H -5.6818 3.5079 0.2582 0
M  V30 END ATOM
M  V30 BEGIN BOND
M  V30 1 1 1 2
M  V30 2 2 2 3
M  V30 3 1 2 4
M  V30 4 1 3 5
M  V30 5 2 4 6
M  V30 6 2 5 7
M  V30 7 1 5 8
M  V30 8 1 7 9
M  V30 9 2 8 10
M  V30 10 2 9 11
M  V30 11 1 11 12
M  V30 12 1 12 13
M  V30 13 2 13 14
M  V30 14 1 13 15
M  V30 15 1 14 16
M  V30 16 2 15 17
M  V30 17 2 16 18
M  V30 18 1 18 19
M  V30 19 1 19 20
M  V30 20 1 20 21
M  V30 21 1 20 22
M  V30 22 2 21 23
M  V30 23 1 21 24
M  V30 24 1 24 25
M  V30 25 1 25 26
M  V30 26 1 6 8
M  V30 27 1 10 11
M  V30 28 1 17 18
M  V30 29 1 3 27
M  V30 30 1 4 28
M  V30 31 1 6 29
M  V30 32 1 9 30
M  V30 33 1 14 31
M  V30 34 1 15 32
M  V30 35 1 16 33
M  V30 36 1 17 34
M  V30 37 1 20 35
M  V30 38 1 22 36
M  V30 39 1 22 37
M  V30 40 1 22 38
M  V30 41 1 25 39
M  V30 42 1 25 40
M  V30 43 1 26 41
M  V30 44 1 26 42
M  V30 45 1 26 43
M  V30 END BOND
M  V30 BEGIN COLLECTION
M  V30 MDLV30/STEABS ATOMS=(1 20)
M  V30 END COLLECTION
M  V30 END CTAB
M  END
>  <Structure No>
5554

>  <LogS>
-5.9694

>  <MMFF94 Energy>
112.25

$$$$
Compound 5555
Actelion Java MolfileCreator 2.0

  0  0  0  0  0  0              0 V3000
M  V30 BEGIN CTAB
M  V30 COUNTS 42 43 0 0 0
M  V30 BEGIN ATOM
M  V30 1 Cl -1.9919 -1.9088 1.9919 0
M  V30 2 C -2.0661 -0.6688 0.7523 0
M  V30 3 N -2.2697 0.6332 1.028 0
M  V30 4 C -1.9476 -0.8509 -0.618 0
M  V30 5 N -2.2847 1.2887 -0.1218 0
M  V30 6 C -2.077 0.4299 -1.1484 0
M  V30 7 C -1.7605 -2.1401 -1.3144 0
M  V30 8 C -2.3966 2.7417 -0.1965 0
M  V30 9 S -1.7658 0.9492 -2.8166 0
M  V30 10 O -2.2391 -2.3141 -2.4721 0
M  V30 11 O -1.093 -3.1861 -0.6641 0
M  V30 12 O -3.0414 1.4855 -3.4083 0
M  V30 13 O -1.256 -0.1712 -3.6747 0
M  V30 14 N -0.5673 2.2004 -2.7881 0 CHG=-1
M  V30 15 C -0.9826 -4.4908 -1.217 0
M  V30 16 C 0.6199 2.0862 -1.993 0
M  V30 17 O 1.3144 3.115 -1.7684 0
M  V30 18 N 1.0167 0.8138 -1.4517 0
M  V30 19 C 1.4238 0.6484 -0.0881 0
M  V30 20 N 1.4979 1.7163 0.755 0
M  V30 21 N 1.6883 -0.602 0.3873 0
M  V30 22 C 1.8574 1.5612 2.0618 0
M  V30 23 C 2.0438 -0.8079 1.6892 0
M  V30 24 O 1.9405 2.6656 2.9184 0
M  V30 25 C 2.142 0.2832 2.556 0
M  V30 26 O 2.3077 -2.0988 2.1676 0
M  V30 27 C 1.6241 3.9866 2.498 0
M  V30 28 C 2.2211 -3.2528 1.3389 0
M  V30 29 H -2.9618 3.0399 -1.1075 0
M  V30 30 H -2.9411 3.1208 0.6978 0
M  V30 31 H -1.3802 3.2025 -0.2173 0
M  V30 32 H -1.9931 -4.8953 -1.4266 0
M  V30 33 H -0.3887 -4.4575 -2.1571 0
M  V30 34 H -0.4814 -5.1596 -0.4785 0
M  V30 35 H 0.8475 -0.0454 -2.0245 0
M  V30 36 H 2.4209 0.139 3.5987 0
M  V30 37 H 1.8032 4.6908 3.3442 0
M  V30 38 H 0.5478 4.048 2.1961 0
M  V30 39 H 2.2679 4.2762 1.638 0
M  V30 40 H 1.1886 -3.3533 0.9326 0
M  V30 41 H 2.9467 -3.1713 0.5023 0
M  V30 42 H 2.4601 -4.1564 1.9404 0
M  V30 END ATOM
M  V30 BEGIN BOND
M  V30 1 1 1 2
M  V30 2 2 2 3
M  V30 3 1 2 4
M  V30 4 1 3 5
M  V30 5 2 4 6
M  V30 6 1 4 7
M  V30 7 1 5 8
M  V30 8 1 6 9
M  V30 9 2 7 10
M  V30 10 1 7 11
M  V30 11 2 9 12
M  V30 12 2 9 13
M  V30 13 1 9 14
M  V30 14 1 11 15
M  V30 15 1 14 16
M  V30 16 2 16 17
M  V30 17 1 16 18
M  V30 18 1 18 19
M  V30 19 2 19 20
M  V30 20 1 19 21
M  V30 21 1 20 22
M  V30 22 2 21 23
M  V30 23 1 22 24
M  V30 24 2 22 25
M  V30 25 1 23 26
M  V30 26 1 24 27
M  V30 27 1 26 28
M  V30 28 1 5 6
M  V30 29 1 23 25
M  V30 30 1 8 29
M  V30 31 1 8 30
M  V30 32 1 8 31
M  V30 33 1 15 32
M  V30 34 1 15 33
M  V30 35 1 15 34
M  V30 36 1 18 35
M  V30 37 1 25 36
M  V30 38 1 27 37
M  V30 39 1 27 38
M  V30 40 1 27 39
M  V30 41 1 28 40
M  V30 42 1 28 41
M  V30 43 1 28 42
M  V30 END BOND
M  V30 END CTAB
M  END
>  <Structure No>
5555

>  <LogS>
-4.4642

>  <MMFF94 Energy>
-178.8

$$$$
Compound 5556
Actelion Java MolfileCreator 2.0

  0  0  0  0  0  0              0 V3000
M  V30 BEGIN CTAB
M  V30 COUNTS 31 32 0 0 0
M  V30 BEGIN ATOM
M  V30 1 O -3.1019 -2.3058 0.3178 0
M  V30 2 C -3.5137 -1.4085 -0.4664 0
M  V30 3 N -2.6762 -0.2924 -0.8015 0
M  V30 4 C -4.9127 -1.4724 -0.9864 0
M  V30 5 C -1.2829 -0.2219 -0.4498 0
M  V30 6 C -0.7185 0.9666 0.0689 0
M  V30 7 C -0.4524 -1.33 -0.6797 0
M  V30 8 C 0.6708 1.0188 0.349 0
M  V30 9 C -1.4962 2.1073 0.3462 0
M  V30 10 C 0.9125 -1.273 -0.397 0
M  V30 11 N 1.2193 2.1593 0.8517 0
M  V30 12 C 1.4864 -0.0981 0.1179 0
M  V30 13 C -0.8968 3.2574 0.861 0
M  V30 14 C 0.475 3.2663 1.1062 0
M  V30 15 O 2.8569 -0.004 0.4104 0
M  V30 16 C 3.7975 -1.0587 0.2252 0
M  V30 17 C 5.1782 -0.5873 0.6521 0
M  V30 18 H -3.1062 0.5086 -1.3162 0
M  V30 19 H -5.3082 -2.5074 -0.9092 0
M  V30 20 H -5.5582 -0.7906 -0.3943 0
M  V30 21 H -4.9335 -1.1622 -2.0521 0
M  V30 22 H -0.8602 -2.2385 -1.1043 0
M  V30 23 H -2.5652 2.1184 0.183 0
M  V30 24 H 1.5156 -2.1489 -0.5924 0
M  V30 25 H -1.4935 4.1354 1.0731 0
M  V30 26 H 0.9489 4.1528 1.506 0
M  V30 27 H 3.506 -1.936 0.8426 0
M  V30 28 H 3.8286 -1.3517 -0.8463 0
M  V30 29 H 5.9147 -1.4059 0.5096 0
M  V30 30 H 5.165 -0.2957 1.7238 0
M  V30 31 H 5.4865 0.2866 0.04 0
M  V30 END ATOM
M  V30 BEGIN BOND
M  V30 1 2 1 2
M  V30 2 1 2 3
M  V30 3 1 2 4
M  V30 4 1 3 5
M  V30 5 1 5 6
M  V30 6 2 5 7
M  V30 7 1 6 8
M  V30 8 2 6 9
M  V30 9 1 7 10
M  V30 10 2 8 11
M  V30 11 1 8 12
M  V30 12 1 9 13
M  V30 13 1 11 14
M  V30 14 1 12 15
M  V30 15 1 15 16
M  V30 16 1 16 17
M  V30 17 2 10 12
M  V30 18 2 13 14
M  V30 19 1 3 18
M  V30 20 1 4 19
M  V30 21 1 4 20
M  V30 22 1 4 21
M  V30 23 1 7 22
M  V30 24 1 9 23
M  V30 25 1 10 24
M  V30 26 1 13 25
M  V30 27 1 14 26
M  V30 28 1 16 27
M  V30 29 1 16 28
M  V30 30 1 17 29
M  V30 31 1 17 30
M  V30 32 1 17 31
M  V30 END BOND
M  V30 END CTAB
M  END
>  <Structure No>
5556

>  <LogS>
-1.5171

>  <MMFF94 Energy>
52.449

$$$$
Compound 5557
Actelion Java MolfileCreator 2.0

  0  0  0  0  0  0              0 V3000
M  V30 BEGIN CTAB
M  V30 COUNTS 59 61 0 0 0
M  V30 BEGIN ATOM
M  V30 1 F -5.4108 -2.3748 -5.0001 0
M  V30 2 C -4.4924 -1.7769 -5.8442 0
M  V30 3 F -4.8597 -2.0197 -7.1567 0
M  V30 4 F -3.2532 -2.3552 -5.6282 0
M  V30 5 C -4.4194 -0.2601 -5.5783 0
M  V30 6 O -4.0018 -0.0221 -4.2316 0
M  V30 7 C -5.7681 0.4425 -5.8072 0
M  V30 8 C -2.6612 -0.0104 -3.8222 0
M  V30 9 F -6.2035 0.2527 -7.1073 0
M  V30 10 F -6.7249 -0.04 -4.9321 0
M  V30 11 F -5.6192 1.8018 -5.5903 0
M  V30 12 O -1.7296 -0.0837 -4.6719 0
M  V30 13 C -2.3181 0.1014 -2.3957 0
M  V30 14 C -3.2475 0.0789 -1.4375 0
M  V30 15 C -2.8667 0.1913 0.0118 0 CFG=1
M  V30 16 C -3.4598 -0.8479 0.9779 0
M  V30 17 C -1.9997 -0.9755 0.5226 0 CFG=2
M  V30 18 C -4.4132 -1.9205 0.429 0
M  V30 19 C -3.7537 -0.3298 2.3927 0
M  V30 20 C -0.9422 -0.6424 1.5412 0
M  V30 21 O -0.6227 0.5549 1.7781 0
M  V30 22 O -0.2855 -1.6957 2.1875 0
M  V30 23 C 0.78 -1.5121 3.1225 0 CFG=1
M  V30 24 C 1.1801 -2.8221 3.6462 0
M  V30 25 C 1.9704 -0.846 2.4691 0
M  V30 26 N 1.4903 -3.8582 4.0548 0
M  V30 27 C 2.6891 0.1433 3.1607 0
M  V30 28 C 2.3731 -1.2039 1.169 0
M  V30 29 C 3.7739 0.7934 2.5578 0
M  V30 30 C 3.4395 -0.5453 0.5548 0
M  V30 31 O 4.4334 1.8002 3.2811 0
M  V30 32 C 4.1262 0.4608 1.2363 0
M  V30 33 C 5.7449 2.2535 3.0645 0
M  V30 34 C 6.0455 3.5908 3.3488 0
M  V30 35 C 6.7708 1.3951 2.6263 0
M  V30 36 C 7.3423 4.0804 3.1637 0
M  V30 37 C 8.064 1.8905 2.4277 0
M  V30 38 C 8.3479 3.2322 2.6921 0
M  V30 39 H -3.6876 0.1927 -6.2866 0
M  V30 40 H -1.2725 0.1838 -2.1233 0
M  V30 41 H -4.2967 0.0163 -1.6928 0
M  V30 42 H -2.6352 1.1983 0.4203 0
M  V30 43 H -1.781 -1.7925 -0.2012 0
M  V30 44 H -4.0775 -2.3349 -0.5434 0
M  V30 45 H -5.4254 -1.4852 0.3028 0
M  V30 46 H -4.4755 -2.7569 1.1547 0
M  V30 47 H -3.109 0.5312 2.6792 0
M  V30 48 H -3.6004 -1.151 3.1277 0
M  V30 49 H -4.8119 0.0053 2.4453 0
M  V30 50 H 0.4024 -0.8987 3.9725 0
M  V30 51 H 2.4001 0.4214 4.1687 0
M  V30 52 H 1.8428 -1.9738 0.6222 0
M  V30 53 H 3.7235 -0.8039 -0.4587 0
M  V30 54 H 4.9137 0.992 0.7229 0
M  V30 55 H 5.2707 4.2536 3.7175 0
M  V30 56 H 6.5814 0.3418 2.4719 0
M  V30 57 H 7.5688 5.1145 3.3946 0
M  V30 58 H 8.8497 1.2273 2.0907 0
M  V30 59 H 9.3533 3.6132 2.5534 0
M  V30 END ATOM
M  V30 BEGIN BOND
M  V30 1 1 1 2
M  V30 2 1 2 3
M  V30 3 1 2 4
M  V30 4 1 2 5
M  V30 5 1 5 6
M  V30 6 1 5 7
M  V30 7 1 6 8
M  V30 8 1 7 9
M  V30 9 1 7 10
M  V30 10 1 7 11
M  V30 11 2 8 12
M  V30 12 1 8 13
M  V30 13 2 13 14
M  V30 14 1 14 15
M  V30 15 1 15 16
M  V30 16 1 15 17
M  V30 17 1 16 18
M  V30 18 1 16 19
M  V30 19 1 17 20
M  V30 20 2 20 21
M  V30 21 1 20 22
M  V30 22 1 22 23
M  V30 23 1 23 24
M  V30 24 1 23 25
M  V30 25 3 24 26
M  V30 26 2 25 27
M  V30 27 1 25 28
M  V30 28 1 27 29
M  V30 29 2 28 30
M  V30 30 1 29 31
M  V30 31 2 29 32
M  V30 32 1 31 33
M  V30 33 2 33 34
M  V30 34 1 33 35
M  V30 35 1 34 36
M  V30 36 2 35 37
M  V30 37 2 36 38
M  V30 38 1 16 17
M  V30 39 1 30 32
M  V30 40 1 37 38
M  V30 41 1 5 39
M  V30 42 1 13 40
M  V30 43 1 14 41
M  V30 44 1 15 42
M  V30 45 1 17 43
M  V30 46 1 18 44
M  V30 47 1 18 45
M  V30 48 1 18 46
M  V30 49 1 19 47
M  V30 50 1 19 48
M  V30 51 1 19 49
M  V30 52 1 23 50
M  V30 53 1 27 51
M  V30 54 1 28 52
M  V30 55 1 30 53
M  V30 56 1 32 54
M  V30 57 1 34 55
M  V30 58 1 35 56
M  V30 59 1 36 57
M  V30 60 1 37 58
M  V30 61 1 38 59
M  V30 END BOND
M  V30 BEGIN COLLECTION
M  V30 MDLV30/STEABS ATOMS=(3 15 17 23)
M  V30 END COLLECTION
M  V30 END CTAB
M  END
>  <Structure No>
5557

>  <LogS>
-7.4325

>  <MMFF94 Energy>
50.026

$$$$
Compound 5558
Actelion Java MolfileCreator 2.0

  0  0  0  0  0  0              0 V3000
M  V30 BEGIN CTAB
M  V30 COUNTS 43 44 0 0 0
M  V30 BEGIN ATOM
M  V30 1 S 1.4745 0.0818 0.737 0
M  V30 2 O 2.15 -1.1845 1.183 0
M  V30 3 O 0.5688 -0.1964 -0.4298 0
M  V30 4 N 0.5401 0.7063 2.0581 0 CHG=-1
M  V30 5 C 2.6924 1.2708 0.2435 0
M  V30 6 C -0.8062 0.3147 2.3411 0
M  V30 7 C 3.8192 0.929 -0.5551 0
M  V30 8 C 2.5545 2.5913 0.7049 0
M  V30 9 O -1.4839 0.9971 3.1538 0
M  V30 10 N -1.3975 -0.8346 1.7153 0
M  V30 11 C 4.0237 -0.4169 -1.1393 0
M  V30 12 C 4.7908 1.9118 -0.8197 0
M  V30 13 C 3.521 3.554 0.4139 0
M  V30 14 C -2.5964 -0.6946 0.9302 0
M  V30 15 C -0.8166 -2.1594 1.9409 0
M  V30 16 O 3.0401 -1.1082 -1.5196 0
M  V30 17 O 5.3255 -0.8973 -1.3171 0
M  V30 18 C 4.641 3.213 -0.3397 0
M  V30 19 N -3.1232 0.5368 0.6935 0
M  V30 20 N -3.2036 -1.7912 0.4035 0
M  V30 21 C 5.6027 -2.1696 -1.8895 0
M  V30 22 C -4.248 0.6738 -0.0521 0
M  V30 23 C -4.3221 -1.6603 -0.3543 0
M  V30 24 O -4.7726 1.9495 -0.2745 0
M  V30 25 N -4.8495 -0.4288 -0.5713 0
M  V30 26 C -5.0046 -2.8718 -0.8954 0
M  V30 27 C -5.9477 2.175 -1.0441 0
M  V30 28 H 1.7001 2.8823 1.3012 0
M  V30 29 H 5.6614 1.6786 -1.4207 0
M  V30 30 H 3.404 4.5659 0.78 0
M  V30 31 H -1.5804 -2.8359 2.3794 0
M  V30 32 H -0.462 -2.5829 0.9777 0
M  V30 33 H 0.0386 -2.1062 2.648 0
M  V30 34 H 5.3917 3.9609 -0.5605 0
M  V30 35 H 6.7008 -2.3232 -1.922 0
M  V30 36 H 5.2019 -2.2162 -2.9242 0
M  V30 37 H 5.1445 -2.9717 -1.2729 0
M  V30 38 H -5.506 -2.6306 -1.8564 0
M  V30 39 H -4.2651 -3.6809 -1.0732 0
M  V30 40 H -5.7632 -3.2247 -0.1662 0
M  V30 41 H -5.7993 1.8077 -2.0816 0
M  V30 42 H -6.1597 3.2635 -1.0752 0
M  V30 43 H -6.8118 1.6534 -0.5808 0
M  V30 END ATOM
M  V30 BEGIN BOND
M  V30 1 2 1 2
M  V30 2 2 1 3
M  V30 3 1 1 4
M  V30 4 1 1 5
M  V30 5 1 4 6
M  V30 6 2 5 7
M  V30 7 1 5 8
M  V30 8 2 6 9
M  V30 9 1 6 10
M  V30 10 1 7 11
M  V30 11 1 7 12
M  V30 12 2 8 13
M  V30 13 1 10 14
M  V30 14 1 10 15
M  V30 15 2 11 16
M  V30 16 1 11 17
M  V30 17 2 12 18
M  V30 18 2 14 19
M  V30 19 1 14 20
M  V30 20 1 17 21
M  V30 21 1 19 22
M  V30 22 2 20 23
M  V30 23 1 22 24
M  V30 24 2 22 25
M  V30 25 1 23 26
M  V30 26 1 24 27
M  V30 27 1 13 18
M  V30 28 1 23 25
M  V30 29 1 8 28
M  V30 30 1 12 29
M  V30 31 1 13 30
M  V30 32 1 15 31
M  V30 33 1 15 32
M  V30 34 1 15 33
M  V30 35 1 18 34
M  V30 36 1 21 35
M  V30 37 1 21 36
M  V30 38 1 21 37
M  V30 39 1 26 38
M  V30 40 1 26 39
M  V30 41 1 26 40
M  V30 42 1 27 41
M  V30 43 1 27 42
M  V30 44 1 27 43
M  V30 END BOND
M  V30 END CTAB
M  END
>  <Structure No>
5558

>  <LogS>
-3.8981

>  <MMFF94 Energy>
-116.4

$$$$
Compound 5559
Actelion Java MolfileCreator 2.0

  0  0  0  0  0  0              0 V3000
M  V30 BEGIN CTAB
M  V30 COUNTS 13 12 0 0 0
M  V30 BEGIN ATOM
M  V30 1 Cl 0.8882 2.4884 0.6217 0
M  V30 2 C 0.638 0.8824 -0.1219 0
M  V30 3 Cl 0.815 1.1059 -1.8904 0
M  V30 4 C 1.6882 -0.0618 0.4032 0
M  V30 5 C -0.7896 0.401 0.2206 0
M  V30 6 O 1.9313 -0.1142 1.6386 0
M  V30 7 O 2.357 -0.9266 -0.4556 0 CHG=-1
M  V30 8 C -1.1584 -0.9818 -0.3447 0
M  V30 9 Cl -0.597 -2.3025 0.7163 0
M  V30 10 H -1.5104 1.1418 -0.1901 0
M  V30 11 H -0.9332 0.3967 1.3238 0
M  V30 12 H -0.7487 -1.1286 -1.3649 0
M  V30 13 H -2.2643 -1.0599 -0.4103 0
M  V30 END ATOM
M  V30 BEGIN BOND
M  V30 1 1 1 2
M  V30 2 1 2 3
M  V30 3 1 2 4
M  V30 4 1 2 5
M  V30 5 2 4 6
M  V30 6 1 4 7
M  V30 7 1 5 8
M  V30 8 1 8 9
M  V30 9 1 5 10
M  V30 10 1 5 11
M  V30 11 1 8 12
M  V30 12 1 8 13
M  V30 END BOND
M  V30 END CTAB
M  END
>  <Structure No>
5559

>  <LogS>
-0.5831

>  <MMFF94 Energy>
77.727

$$$$
Compound 5560
Actelion Java MolfileCreator 2.0

  0  0  0  0  0  0              0 V3000
M  V30 BEGIN CTAB
M  V30 COUNTS 22 22 0 0 0
M  V30 BEGIN ATOM
M  V30 1 O -1.5539 3.4375 0.8176 0
M  V30 2 N -2.3123 2.5032 0.4845 0 CHG=1
M  V30 3 O -3.6686 2.7335 0.4455 0 CHG=-1
M  V30 4 C -1.7797 1.2098 0.1427 0
M  V30 5 C -0.3966 0.967 0.1919 0
M  V30 6 C -2.6382 0.168 -0.2326 0
M  V30 7 C 0.1334 -0.2957 -0.1286 0
M  V30 8 C -2.1271 -1.0834 -0.5753 0
M  V30 9 C -0.7446 -1.3299 -0.5522 0
M  V30 10 C 1.5883 -0.5013 0.0566 0
M  V30 11 C -0.2675 -2.6456 -1.0388 0
M  V30 12 O 2.0269 -1.6073 0.4766 0
M  V30 13 O 2.4699 0.5586 -0.1808 0
M  V30 14 O 0.8253 -2.7472 -1.6563 0
M  V30 15 O -1.0579 -3.7775 -0.8757 0 CHG=-1
M  V30 16 C 3.876 0.4419 -0.0011 0
M  V30 17 H 0.2701 1.758 0.5129 0
M  V30 18 H -3.7086 0.3231 -0.2748 0
M  V30 19 H -2.8183 -1.8551 -0.8923 0
M  V30 20 H 4.3573 1.4088 -0.2544 0
M  V30 21 H 4.2803 -0.3476 -0.6692 0
M  V30 22 H 4.1046 0.1924 1.0567 0
M  V30 END ATOM
M  V30 BEGIN BOND
M  V30 1 2 1 2
M  V30 2 1 2 3
M  V30 3 1 2 4
M  V30 4 2 4 5
M  V30 5 1 4 6
M  V30 6 1 5 7
M  V30 7 2 6 8
M  V30 8 2 7 9
M  V30 9 1 7 10
M  V30 10 1 9 11
M  V30 11 2 10 12
M  V30 12 1 10 13
M  V30 13 2 11 14
M  V30 14 1 11 15
M  V30 15 1 13 16
M  V30 16 1 8 9
M  V30 17 1 5 17
M  V30 18 1 6 18
M  V30 19 1 8 19
M  V30 20 1 16 20
M  V30 21 1 16 21
M  V30 22 1 16 22
M  V30 END BOND
M  V30 END CTAB
M  END
>  <Structure No>
5560

>  <LogS>
-1.721

>  <MMFF94 Energy>
48.357

$$$$
Compound 5561
Actelion Java MolfileCreator 2.0

  0  0  0  0  0  0              0 V3000
M  V30 BEGIN CTAB
M  V30 COUNTS 58 57 0 0 0
M  V30 BEGIN ATOM
M  V30 1 O 7.014 -3.736 2.0223 0
M  V30 2 C 7.6749 -2.8241 1.458 0
M  V30 3 O 8.8401 -2.3486 2.0518 0 CHG=-1
M  V30 4 C 7.1933 -2.2268 0.1722 0
M  V30 5 C 6.7288 -0.783 0.3888 0
M  V30 6 C 6.1524 -0.1882 -0.9043 0
M  V30 7 C 5.9059 1.3287 -0.8111 0
M  V30 8 C 4.9368 1.7635 0.3035 0
M  V30 9 C 3.5259 1.181 0.1343 0
M  V30 10 C 2.5597 1.782 1.1661 0
M  V30 11 C 1.1843 1.0975 1.1643 0
M  V30 12 C 0.376 1.3933 -0.1071 0
M  V30 13 C -1.0444 0.8205 -6.0E-4 0
M  V30 14 N -1.8109 1.0915 -1.2287 0 CHG=1
M  V30 15 C -3.1595 0.4965 -1.1865 0
M  V30 16 C -4.1322 1.3145 -0.3153 0
M  V30 17 C -5.5862 0.8316 -0.4434 0
M  V30 18 C -5.8192 -0.5297 0.2299 0
M  V30 19 C -7.3071 -0.9091 0.1969 0
M  V30 20 C -7.5693 -2.3215 0.748 0
M  V30 21 N -7.3873 -2.3908 2.2005 0 CHG=1
M  V30 22 H 6.3537 -2.8356 -0.2303 0
M  V30 23 H 8.024 -2.2479 -0.5661 0
M  V30 24 H 5.9476 -0.7726 1.1791 0
M  V30 25 H 7.5905 -0.1678 0.729 0
M  V30 26 H 5.2123 -0.7136 -1.1757 0
M  V30 27 H 6.8726 -0.3605 -1.7342 0
M  V30 28 H 6.8801 1.8395 -0.6487 0
M  V30 29 H 5.5136 1.6847 -1.7889 0
M  V30 30 H 5.3464 1.4854 1.2979 0
M  V30 31 H 4.8717 2.8732 0.2773 0
M  V30 32 H 3.1626 1.4055 -0.891 0
M  V30 33 H 3.5609 0.0797 0.2719 0
M  V30 34 H 2.4369 2.8712 0.9795 0
M  V30 35 H 2.9979 1.662 2.1809 0
M  V30 36 H 0.6174 1.4694 2.0456 0
M  V30 37 H 1.3107 -1.0E-4 1.2854 0
M  V30 38 H 0.8814 0.9385 -0.9844 0
M  V30 39 H 0.3152 2.4922 -0.2622 0
M  V30 40 H -1.5471 1.2852 0.8748 0
M  V30 41 H -0.977 -0.2777 0.171 0
M  V30 42 H -1.3001 0.6719 -2.04 0
M  V30 43 H -1.8791 2.1238 -1.3878 0
M  V30 44 H -3.1051 -0.5524 -0.8239 0
M  V30 45 H -3.5638 0.4612 -2.2223 0
M  V30 46 H -3.827 1.2769 0.7517 0
M  V30 47 H -4.0969 2.377 -0.6385 0
M  V30 48 H -6.2403 1.5879 0.0428 0
M  V30 49 H -5.8738 0.7788 -1.5173 0
M  V30 50 H -5.2359 -1.3129 -0.299 0
M  V30 51 H -5.4704 -0.4757 1.2842 0
M  V30 52 H -7.9 -0.1646 0.7723 0
M  V30 53 H -7.6611 -0.8809 -0.8571 0
M  V30 54 H -8.6167 -2.6028 0.5025 0
M  V30 55 H -6.9039 -3.0584 0.2495 0
M  V30 56 H -6.3829 -2.2508 2.4491 0
M  V30 57 H -7.9796 -1.6717 2.6766 0
M  V30 58 H -7.6798 -3.3398 2.5342 0
M  V30 END ATOM
M  V30 BEGIN BOND
M  V30 1 2 1 2
M  V30 2 1 2 3
M  V30 3 1 2 4
M  V30 4 1 4 5
M  V30 5 1 5 6
M  V30 6 1 6 7
M  V30 7 1 7 8
M  V30 8 1 8 9
M  V30 9 1 9 10
M  V30 10 1 10 11
M  V30 11 1 11 12
M  V30 12 1 12 13
M  V30 13 1 13 14
M  V30 14 1 14 15
M  V30 15 1 15 16
M  V30 16 1 16 17
M  V30 17 1 17 18
M  V30 18 1 18 19
M  V30 19 1 19 20
M  V30 20 1 20 21
M  V30 21 1 4 22
M  V30 22 1 4 23
M  V30 23 1 5 24
M  V30 24 1 5 25
M  V30 25 1 6 26
M  V30 26 1 6 27
M  V30 27 1 7 28
M  V30 28 1 7 29
M  V30 29 1 8 30
M  V30 30 1 8 31
M  V30 31 1 9 32
M  V30 32 1 9 33
M  V30 33 1 10 34
M  V30 34 1 10 35
M  V30 35 1 11 36
M  V30 36 1 11 37
M  V30 37 1 12 38
M  V30 38 1 12 39
M  V30 39 1 13 40
M  V30 40 1 13 41
M  V30 41 1 14 42
M  V30 42 1 14 43
M  V30 43 1 15 44
M  V30 44 1 15 45
M  V30 45 1 16 46
M  V30 46 1 16 47
M  V30 47 1 17 48
M  V30 48 1 17 49
M  V30 49 1 18 50
M  V30 50 1 18 51
M  V30 51 1 19 52
M  V30 52 1 19 53
M  V30 53 1 20 54
M  V30 54 1 20 55
M  V30 55 1 21 56
M  V30 56 1 21 57
M  V30 57 1 21 58
M  V30 END BOND
M  V30 END CTAB
M  END
>  <Structure No>
5561

>  <LogS>
-2.3017

>  <MMFF94 Energy>
-88.57

$$$$
Compound 5562
Actelion Java MolfileCreator 2.0

  0  0  0  0  0  0              0 V3000
M  V30 BEGIN CTAB
M  V30 COUNTS 48 49 0 0 0
M  V30 BEGIN ATOM
M  V30 1 O -2.2162 -1.4242 -2.0578 0
M  V30 2 C -2.0515 -0.3466 -1.4229 0
M  V30 3 N -2.3887 0.8956 -2.0563 0
M  V30 4 N -1.5165 -0.3821 -0.0822 0
M  V30 5 C -2.8249 2.0269 -1.4692 0
M  V30 6 C -2.4129 1.1392 -3.3768 0
M  V30 7 C -0.3836 0.5067 0.2651 0 CFG=2
M  V30 8 C -1.9083 -1.5035 0.7863 0
M  V30 9 N -3.1117 2.995 -2.3645 0
M  V30 10 C -2.8457 2.4326 -3.5611 0
M  V30 11 C 0.9161 -0.2543 0.3649 0
M  V30 12 C -0.6657 1.3938 1.508 0
M  V30 13 C -3.2934 -1.2935 1.3152 0
M  V30 14 O 1.0125 -1.4131 -0.1257 0
M  V30 15 O 2.0328 0.3655 0.939 0
M  V30 16 C -0.6181 0.6911 2.8693 0
M  V30 17 O -3.8629 -0.1183 1.4576 0
M  V30 18 C -4.1414 -2.2868 1.7595 0
M  V30 19 C 3.3197 -0.244 1.012 0
M  V30 20 C -5.059 -0.2927 1.97 0
M  V30 21 C -5.2833 -1.6387 2.1788 0
M  V30 22 C 4.0169 -0.1892 -0.3499 0
M  V30 23 C 5.4251 -0.7901 -0.2721 0
M  V30 24 C 6.0973 -0.7793 -1.6174 0
M  V30 25 C 6.5154 0.3553 -2.1858 0
M  V30 26 H -2.978 2.141 -0.407 0
M  V30 27 H -2.1378 0.4322 -4.149 0
M  V30 28 H -0.2272 1.2225 -0.5717 0
M  V30 29 H -1.867 -2.4583 0.2191 0
M  V30 30 H -1.2059 -1.6243 1.6338 0
M  V30 31 H -2.9716 2.9335 -4.5114 0
M  V30 32 H 0.0889 2.2107 1.5247 0
M  V30 33 H -1.6544 1.8835 1.4052 0
M  V30 34 H 0.256 0.0141 2.9543 0
M  V30 35 H -1.5529 0.1269 3.0558 0
M  V30 36 H -0.5371 1.4564 3.67 0
M  V30 37 H -3.9511 -3.3516 1.7793 0
M  V30 38 H 3.2254 -1.2947 1.3649 0
M  V30 39 H 3.9267 0.3153 1.7553 0
M  V30 40 H -5.7515 0.5081 2.1914 0
M  V30 41 H -6.1738 -2.0927 2.592 0
M  V30 42 H 4.0775 0.8711 -0.6786 0
M  V30 43 H 3.4176 -0.7537 -1.0966 0
M  V30 44 H 6.0456 -0.225 0.4577 0
M  V30 45 H 5.3541 -1.8427 0.0782 0
M  V30 46 H 6.2748 -1.7224 -2.1257 0
M  V30 47 H 6.3724 1.3128 -1.6944 0
M  V30 48 H 7.01 0.3285 -3.1512 0
M  V30 END ATOM
M  V30 BEGIN BOND
M  V30 1 2 1 2
M  V30 2 1 2 3
M  V30 3 1 2 4
M  V30 4 1 3 5
M  V30 5 1 3 6
M  V30 6 1 4 7
M  V30 7 1 4 8
M  V30 8 2 5 9
M  V30 9 2 6 10
M  V30 10 1 7 11
M  V30 11 1 7 12
M  V30 12 1 8 13
M  V30 13 2 11 14
M  V30 14 1 11 15
M  V30 15 1 12 16
M  V30 16 1 13 17
M  V30 17 2 13 18
M  V30 18 1 15 19
M  V30 19 1 17 20
M  V30 20 1 18 21
M  V30 21 1 19 22
M  V30 22 1 22 23
M  V30 23 1 23 24
M  V30 24 2 24 25
M  V30 25 1 9 10
M  V30 26 2 20 21
M  V30 27 1 5 26
M  V30 28 1 6 27
M  V30 29 1 7 28
M  V30 30 1 8 29
M  V30 31 1 8 30
M  V30 32 1 10 31
M  V30 33 1 12 32
M  V30 34 1 12 33
M  V30 35 1 16 34
M  V30 36 1 16 35
M  V30 37 1 16 36
M  V30 38 1 18 37
M  V30 39 1 19 38
M  V30 40 1 19 39
M  V30 41 1 20 40
M  V30 42 1 21 41
M  V30 43 1 22 42
M  V30 44 1 22 43
M  V30 45 1 23 44
M  V30 46 1 23 45
M  V30 47 1 24 46
M  V30 48 1 25 47
M  V30 49 1 25 48
M  V30 END BOND
M  V30 BEGIN COLLECTION
M  V30 MDLV30/STEABS ATOMS=(1 7)
M  V30 END COLLECTION
M  V30 END CTAB
M  END
>  <Structure No>
5562

>  <LogS>
-2.8919

>  <MMFF94 Energy>
58.027

$$$$
Compound 5563
Actelion Java MolfileCreator 2.0

  0  0  0  0  0  0              0 V3000
M  V30 BEGIN CTAB
M  V30 COUNTS 18 19 0 0 0
M  V30 BEGIN ATOM
M  V30 1 O -2.6591 -1.0469 0.0805 0
M  V30 2 C -1.399 -0.4434 0.0794 0
M  V30 3 C -3.8601 -0.3214 -0.1546 0
M  V30 4 N -0.2961 -1.2051 0.3127 0
M  V30 5 N -1.265 0.8942 -0.152 0
M  V30 6 C 0.9427 -0.6501 0.3187 0
M  V30 7 C -0.0439 1.491 -0.1552 0
M  V30 8 N 2.0423 -1.4129 0.552 0
M  V30 9 C 1.0953 0.7252 0.082 0
M  V30 10 C 3.2858 -0.8613 0.5588 0
M  V30 11 N 2.3373 1.2763 0.0889 0
M  V30 12 C 3.4362 0.5098 0.3228 0
M  V30 13 H -3.9864 0.4662 0.6181 0
M  V30 14 H -3.833 0.1425 -1.1633 0
M  V30 15 H -4.7225 -1.0172 -0.1024 0
M  V30 16 H 0.035 2.5543 -0.3415 0
M  V30 17 H 4.1518 -1.4819 0.7462 0
M  V30 18 H 4.4196 0.9604 0.3257 0
M  V30 END ATOM
M  V30 BEGIN BOND
M  V30 1 1 1 2
M  V30 2 1 1 3
M  V30 3 2 2 4
M  V30 4 1 2 5
M  V30 5 1 4 6
M  V30 6 2 5 7
M  V30 7 2 6 8
M  V30 8 1 6 9
M  V30 9 1 8 10
M  V30 10 2 9 11
M  V30 11 2 10 12
M  V30 12 1 7 9
M  V30 13 1 11 12
M  V30 14 1 3 13
M  V30 15 1 3 14
M  V30 16 1 3 15
M  V30 17 1 7 16
M  V30 18 1 10 17
M  V30 19 1 12 18
M  V30 END BOND
M  V30 END CTAB
M  END
>  <Structure No>
5563

>  <LogS>
-1.113

>  <MMFF94 Energy>
35.798

$$$$
Compound 5564
Actelion Java MolfileCreator 2.0

  0  0  0  0  0  0              0 V3000
M  V30 BEGIN CTAB
M  V30 COUNTS 18 19 0 0 0
M  V30 BEGIN ATOM
M  V30 1 O -3.0543 1.3655 0.4817 0
M  V30 2 C -1.8174 1.2256 0.2819 0
M  V30 3 N -1.0288 2.3333 0.2585 0
M  V30 4 N -1.2717 -0.0218 0.0936 0
M  V30 5 C 0.3101 2.2487 0.0667 0
M  V30 6 C 0.0849 -0.1438 -0.0743 0
M  V30 7 C -2.1202 -1.2241 0.1459 0
M  V30 8 C 0.9003 1.0023 -0.0975 0
M  V30 9 N 0.6734 -1.3651 -0.22 0
M  V30 10 N 2.2425 0.877 -0.2699 0
M  V30 11 C 2.0161 -1.49 -0.3909 0
M  V30 12 C 2.8165 -0.3455 -0.4184 0
M  V30 13 H 0.9099 3.1497 0.0542 0
M  V30 14 H -2.0916 -1.6556 1.1686 0
M  V30 15 H -1.7714 -1.9865 -0.583 0
M  V30 16 H -3.1737 -0.9945 -0.1209 0
M  V30 17 H 2.4585 -2.4704 -0.5054 0
M  V30 18 H 3.8864 -0.4286 -0.5546 0
M  V30 END ATOM
M  V30 BEGIN BOND
M  V30 1 2 1 2
M  V30 2 1 2 3
M  V30 3 1 2 4
M  V30 4 2 3 5
M  V30 5 1 4 6
M  V30 6 1 4 7
M  V30 7 1 5 8
M  V30 8 1 6 9
M  V30 9 1 8 10
M  V30 10 2 9 11
M  V30 11 2 10 12
M  V30 12 2 6 8
M  V30 13 1 11 12
M  V30 14 1 5 13
M  V30 15 1 7 14
M  V30 16 1 7 15
M  V30 17 1 7 16
M  V30 18 1 11 17
M  V30 19 1 12 18
M  V30 END BOND
M  V30 END CTAB
M  END
>  <Structure No>
5564

>  <LogS>
-1.3713

>  <MMFF94 Energy>
19.118

$$$$
Compound 5565
Actelion Java MolfileCreator 2.0

  0  0  0  0  0  0              0 V3000
M  V30 BEGIN CTAB
M  V30 COUNTS 29 28 0 0 0
M  V30 BEGIN ATOM
M  V30 1 O 4.1239 -1.2435 -0.8548 0
M  V30 2 C 3.5599 -1.2361 0.2722 0
M  V30 3 N 2.2765 -0.6175 0.4469 0
M  V30 4 N 4.2153 -1.8392 1.3871 0
M  V30 5 C 1.507 -0.0565 -0.6286 0
M  V30 6 O 1.8033 -0.3135 -1.8266 0
M  V30 7 C 0.3146 0.7715 -0.3447 0
M  V30 8 C 0.3635 1.845 0.4667 0
M  V30 9 C -1.0016 0.3697 -0.9637 0
M  V30 10 C 1.6295 2.3837 1.0643 0
M  V30 11 C -1.7802 -0.5523 -0.0147 0
M  V30 12 C -3.0718 -1.095 -0.6451 0
M  V30 13 C -4.1477 -0.0212 -0.8051 0
M  V30 14 H 1.8678 -0.6007 1.4081 0
M  V30 15 H 3.7677 -1.8398 2.3302 0
M  V30 16 H 5.1512 -2.287 1.27 0
M  V30 17 H -0.5453 2.4054 0.6552 0
M  V30 18 H -1.6001 1.2774 -1.1942 0
M  V30 19 H -0.821 -0.1556 -1.9267 0
M  V30 20 H 2.0131 1.6985 1.8467 0
M  V30 21 H 2.3981 2.5263 0.2757 0
M  V30 22 H 1.4262 3.3666 1.5385 0
M  V30 23 H -1.1362 -1.4199 0.2495 0
M  V30 24 H -2.0196 -0.0119 0.9276 0
M  V30 25 H -2.8524 -1.5537 -1.6337 0
M  V30 26 H -3.4743 -1.8947 0.0138 0
M  V30 27 H -5.0908 -0.4935 -1.1519 0
M  V30 28 H -4.3417 0.4828 0.1653 0
M  V30 29 H -3.8422 0.7326 -1.5596 0
M  V30 END ATOM
M  V30 BEGIN BOND
M  V30 1 2 1 2
M  V30 2 1 2 3
M  V30 3 1 2 4
M  V30 4 1 3 5
M  V30 5 2 5 6
M  V30 6 1 5 7
M  V30 7 2 7 8
M  V30 8 1 7 9
M  V30 9 1 8 10
M  V30 10 1 9 11
M  V30 11 1 11 12
M  V30 12 1 12 13
M  V30 13 1 3 14
M  V30 14 1 4 15
M  V30 15 1 4 16
M  V30 16 1 8 17
M  V30 17 1 9 18
M  V30 18 1 9 19
M  V30 19 1 10 20
M  V30 20 1 10 21
M  V30 21 1 10 22
M  V30 22 1 11 23
M  V30 23 1 11 24
M  V30 24 1 12 25
M  V30 25 1 12 26
M  V30 26 1 13 27
M  V30 27 1 13 28
M  V30 28 1 13 29
M  V30 END BOND
M  V30 END CTAB
M  END
>  <Structure No>
5565

>  <LogS>
-2.7883

>  <MMFF94 Energy>
-94.18

$$$$
Compound 5566
Actelion Java MolfileCreator 2.0

  0  0  0  0  0  0              0 V3000
M  V30 BEGIN CTAB
M  V30 COUNTS 18 17 0 0 0
M  V30 BEGIN ATOM
M  V30 1 Cl -2.132 -1.4999 1.184 0
M  V30 2 C -1.2714 -0.0333 0.6278 0 CFG=1
M  V30 3 C 0.2008 -0.3482 0.2737 0 CFG=2
M  V30 4 C -2.0516 0.6215 -0.5167 0
M  V30 5 O 0.8787 0.8723 0.0179 0
M  V30 6 C 0.3353 -1.27 -0.9487 0
M  V30 7 C 2.1743 0.8555 0.5767 0
M  V30 8 H -1.2683 0.6758 1.4844 0
M  V30 9 H 0.6191 -0.8951 1.1549 0
M  V30 10 H -3.0486 0.9459 -0.1498 0
M  V30 11 H -2.2065 -0.0935 -1.3515 0
M  V30 12 H -1.5136 1.5163 -0.8948 0
M  V30 13 H 0.0228 -0.7451 -1.8757 0
M  V30 14 H -0.2746 -2.1886 -0.824 0
M  V30 15 H 1.3943 -1.579 -1.0709 0
M  V30 16 H 2.6987 1.788 0.2837 0
M  V30 17 H 2.1232 0.831 1.6877 0
M  V30 18 H 2.7711 -0.0022 0.1959 0
M  V30 END ATOM
M  V30 BEGIN BOND
M  V30 1 1 1 2
M  V30 2 1 2 3
M  V30 3 1 2 4
M  V30 4 1 3 5
M  V30 5 1 3 6
M  V30 6 1 5 7
M  V30 7 1 2 8
M  V30 8 1 3 9
M  V30 9 1 4 10
M  V30 10 1 4 11
M  V30 11 1 4 12
M  V30 12 1 6 13
M  V30 13 1 6 14
M  V30 14 1 6 15
M  V30 15 1 7 16
M  V30 16 1 7 17
M  V30 17 1 7 18
M  V30 END BOND
M  V30 BEGIN COLLECTION
M  V30 MDLV30/STEABS ATOMS=(2 2 3)
M  V30 END COLLECTION
M  V30 END CTAB
M  END
>  <Structure No>
5566

>  <LogS>
-1.9986

>  <MMFF94 Energy>
24.262

$$$$
Compound 5567
Actelion Java MolfileCreator 2.0

  0  0  0  0  0  0              0 V3000
M  V30 BEGIN CTAB
M  V30 COUNTS 26 27 0 0 0
M  V30 BEGIN ATOM
M  V30 1 O 2.7261 -2.8064 -1.4425 0
M  V30 2 C 2.8891 -1.834 -0.6585 0
M  V30 3 N 4.1227 -1.5768 -0.1487 0
M  V30 4 C 1.8138 -1.0136 -0.3059 0
M  V30 5 C 4.3294 -0.5336 0.6998 0
M  V30 6 N 0.5617 -1.2225 -0.7875 0
M  V30 7 C 2.0466 0.0539 0.5701 0
M  V30 8 N 3.2952 0.2747 1.0552 0 CHG=-1
M  V30 9 C -0.4797 -0.4145 -0.4442 0
M  V30 10 N 1.0155 0.859 0.9275 0
M  V30 11 C -0.2477 0.655 0.4604 0
M  V30 12 C -1.8402 -0.74 -1.003 0
M  V30 13 C -1.3235 1.6187 0.8888 0
M  V30 14 C -2.5809 -1.7136 -0.0919 0
M  V30 15 C -1.3995 2.8054 -0.0665 0
M  V30 16 H 5.3189 -0.347 1.0933 0
M  V30 17 H -1.7209 -1.2097 -2.0033 0
M  V30 18 H -2.4484 0.175 -1.1536 0
M  V30 19 H -1.0901 1.9969 1.9077 0
M  V30 20 H -2.3128 1.1217 0.9549 0
M  V30 21 H -2.0106 -2.6625 6.0E-4 0
M  V30 22 H -2.7219 -1.2749 0.9182 0
M  V30 23 H -3.5788 -1.9399 -0.523 0
M  V30 24 H -2.1969 3.5017 0.2683 0
M  V30 25 H -1.6354 2.4647 -1.0964 0
M  V30 26 H -0.4323 3.3521 -0.0774 0
M  V30 END ATOM
M  V30 BEGIN BOND
M  V30 1 2 1 2
M  V30 2 1 2 3
M  V30 3 1 2 4
M  V30 4 2 3 5
M  V30 5 2 4 6
M  V30 6 1 4 7
M  V30 7 1 5 8
M  V30 8 1 6 9
M  V30 9 2 7 10
M  V30 10 2 9 11
M  V30 11 1 9 12
M  V30 12 1 11 13
M  V30 13 1 12 14
M  V30 14 1 13 15
M  V30 15 1 7 8
M  V30 16 1 10 11
M  V30 17 1 5 16
M  V30 18 1 12 17
M  V30 19 1 12 18
M  V30 20 1 13 19
M  V30 21 1 13 20
M  V30 22 1 14 21
M  V30 23 1 14 22
M  V30 24 1 14 23
M  V30 25 1 15 24
M  V30 26 1 15 25
M  V30 27 1 15 26
M  V30 END BOND
M  V30 END CTAB
M  END
>  <Structure No>
5567

>  <LogS>
-1.9122

>  <MMFF94 Energy>
120.08

$$$$
Compound 5568
Actelion Java MolfileCreator 2.0

  0  0  0  0  0  0              0 V3000
M  V30 BEGIN CTAB
M  V30 COUNTS 30 31 0 0 0
M  V30 BEGIN ATOM
M  V30 1 Cl -1.8134 -3.1102 0.4315 0
M  V30 2 C -2.7579 -1.781 -0.2264 0
M  V30 3 C -2.2371 -0.4747 -0.2671 0
M  V30 4 C -4.0514 -2.0315 -0.6997 0
M  V30 5 N -0.9093 -0.207 0.1983 0
M  V30 6 C -3.0065 0.5603 -0.8167 0
M  V30 7 C -4.8219 -0.9895 -1.2269 0
M  V30 8 N 0.1718 -0.5122 -0.4947 0
M  V30 9 C -0.5205 0.3647 1.3614 0
M  V30 10 C -4.2969 0.3051 -1.2883 0
M  V30 11 Cl -6.4419 -1.3085 -1.8193 0
M  V30 12 C 1.2112 -0.1072 0.2594 0
M  V30 13 N 0.8252 0.4514 1.4264 0
M  V30 14 C -1.4364 0.8768 2.4507 0
M  V30 15 C 2.6121 -0.2533 -0.142 0
M  V30 16 Cl -2.2673 2.3544 1.9087 0
M  V30 17 Cl -0.5104 1.2816 3.9227 0
M  V30 18 Cl -2.6471 -0.3499 2.9049 0
M  V30 19 O 2.8938 -0.788 -1.2489 0
M  V30 20 O 3.624 0.197 0.7135 0
M  V30 21 C 5.0112 0.1413 0.387 0
M  V30 22 C 5.3737 1.2364 -0.6095 0
M  V30 23 H -4.4569 -3.0345 -0.6589 0
M  V30 24 H -2.6013 1.5615 -0.8867 0
M  V30 25 H -4.8853 1.1125 -1.7056 0
M  V30 26 H 5.273 -0.8577 -0.0243 0
M  V30 27 H 5.5993 0.2962 1.316 0
M  V30 28 H 4.8339 1.0831 -1.5672 0
M  V30 29 H 5.1041 2.2307 -0.1943 0
M  V30 30 H 6.4658 1.2134 -0.8084 0
M  V30 END ATOM
M  V30 BEGIN BOND
M  V30 1 1 1 2
M  V30 2 2 2 3
M  V30 3 1 2 4
M  V30 4 1 3 5
M  V30 5 1 3 6
M  V30 6 2 4 7
M  V30 7 1 5 8
M  V30 8 1 5 9
M  V30 9 2 6 10
M  V30 10 1 7 11
M  V30 11 2 8 12
M  V30 12 2 9 13
M  V30 13 1 9 14
M  V30 14 1 12 15
M  V30 15 1 14 16
M  V30 16 1 14 17
M  V30 17 1 14 18
M  V30 18 2 15 19
M  V30 19 1 15 20
M  V30 20 1 20 21
M  V30 21 1 21 22
M  V30 22 1 7 10
M  V30 23 1 12 13
M  V30 24 1 4 23
M  V30 25 1 6 24
M  V30 26 1 10 25
M  V30 27 1 21 26
M  V30 28 1 21 27
M  V30 29 1 22 28
M  V30 30 1 22 29
M  V30 31 1 22 30
M  V30 END BOND
M  V30 END CTAB
M  END
>  <Structure No>
5568

>  <LogS>
-5.6516

>  <MMFF94 Energy>
100.9

$$$$
Compound 5569
Actelion Java MolfileCreator 2.0

  0  0  0  0  0  0              0 V3000
M  V30 BEGIN CTAB
M  V30 COUNTS 41 44 0 0 0
M  V30 BEGIN ATOM
M  V30 1 F -0.4912 -1.6382 -2.8683 0
M  V30 2 C 0.5055 -1.5221 -1.9556 0
M  V30 3 C 0.2786 -0.8842 -0.7254 0
M  V30 4 C 1.7566 -2.0714 -2.2405 0
M  V30 5 N -1.0017 -0.2997 -0.4344 0
M  V30 6 C 1.3126 -0.8284 0.2235 0
M  V30 7 C 2.7911 -1.9907 -1.3058 0
M  V30 8 C -1.749 0.6065 -1.2439 0
M  V30 9 C -1.6835 -0.2584 0.818 0
M  V30 10 C 2.5735 -1.3976 -0.0492 0
M  V30 11 O 4.0461 -2.5156 -1.6213 0
M  V30 12 O -1.4288 0.9452 -2.4141 0
M  V30 13 C -2.8863 1.1353 -0.494 0
M  V30 14 O -1.3547 -0.9347 1.8286 0
M  V30 15 C -2.8264 0.6484 0.743 0
M  V30 16 N 3.6435 -1.4167 0.9287 0
M  V30 17 C 5.2327 -2.1004 -0.9488 0
M  V30 18 C -3.8785 2.1692 -0.9426 0
M  V30 19 C -3.8519 0.9215 1.8054 0
M  V30 20 C 4.9643 -1.812 0.4986 0
M  V30 21 C 3.4159 -1.0473 2.3349 0
M  V30 22 C -5.0963 2.2068 -9.0E-4 0
M  V30 23 C -4.6602 2.1902 1.4759 0
M  V30 24 O 5.922 -1.8573 1.3177 0
M  V30 25 C 3.5159 0.407 2.4955 0
M  V30 26 C 3.5965 1.6026 2.6253 0
M  V30 27 H 1.9276 -2.5538 -3.1944 0
M  V30 28 H 1.13 -0.3169 1.1569 0
M  V30 29 H 6.0011 -2.8961 -1.0459 0
M  V30 30 H 5.616 -1.1759 -1.4296 0
M  V30 31 H -4.2139 1.9428 -1.9769 0
M  V30 32 H -3.3807 3.1626 -0.9425 0
M  V30 33 H -4.5393 0.0509 1.8671 0
M  V30 34 H -3.3499 1.0448 2.7885 0
M  V30 35 H 2.4206 -1.3987 2.678 0
M  V30 36 H 4.1586 -1.5333 3.0017 0
M  V30 37 H -5.7471 1.3273 -0.2015 0
M  V30 38 H -5.6893 3.1246 -0.2026 0
M  V30 39 H -4.04 3.0893 1.6855 0
M  V30 40 H -5.5584 2.2342 2.1287 0
M  V30 41 H 3.6669 2.6525 2.7387 0
M  V30 END ATOM
M  V30 BEGIN BOND
M  V30 1 1 1 2
M  V30 2 2 2 3
M  V30 3 1 2 4
M  V30 4 1 3 5
M  V30 5 1 3 6
M  V30 6 2 4 7
M  V30 7 1 5 8
M  V30 8 1 5 9
M  V30 9 2 6 10
M  V30 10 1 7 11
M  V30 11 2 8 12
M  V30 12 1 8 13
M  V30 13 2 9 14
M  V30 14 1 9 15
M  V30 15 1 10 16
M  V30 16 1 11 17
M  V30 17 1 13 18
M  V30 18 1 15 19
M  V30 19 1 16 20
M  V30 20 1 16 21
M  V30 21 1 18 22
M  V30 22 1 19 23
M  V30 23 2 20 24
M  V30 24 1 21 25
M  V30 25 3 25 26
M  V30 26 1 7 10
M  V30 27 2 13 15
M  V30 28 1 17 20
M  V30 29 1 22 23
M  V30 30 1 4 27
M  V30 31 1 6 28
M  V30 32 1 17 29
M  V30 33 1 17 30
M  V30 34 1 18 31
M  V30 35 1 18 32
M  V30 36 1 19 33
M  V30 37 1 19 34
M  V30 38 1 21 35
M  V30 39 1 21 36
M  V30 40 1 22 37
M  V30 41 1 22 38
M  V30 42 1 23 39
M  V30 43 1 23 40
M  V30 44 1 26 41
M  V30 END BOND
M  V30 END CTAB
M  END
>  <Structure No>
5569

>  <LogS>
-5.2966

>  <MMFF94 Energy>
13.024

$$$$
Compound 5570
Actelion Java MolfileCreator 2.0

  0  0  0  0  0  0              0 V3000
M  V30 BEGIN CTAB
M  V30 COUNTS 38 39 0 0 0
M  V30 BEGIN ATOM
M  V30 1 O 1.7777 -2.1821 -0.2422 0
M  V30 2 C 0.9941 -1.3852 -0.8235 0
M  V30 3 O 0.8185 -1.5123 -2.1979 0 CHG=-1
M  V30 4 C 0.1146 -0.4348 -0.0209 0
M  V30 5 C -0.1666 0.8886 -0.7667 0
M  V30 6 C -1.2077 -1.2143 0.1662 0
M  V30 7 C 0.7793 -0.0755 1.3618 0
M  V30 8 C -1.2563 1.6962 -0.3684 0
M  V30 9 C 0.711 1.4018 -1.7509 0
M  V30 10 C -1.5157 -1.9225 1.3534 0
M  V30 11 C -2.1091 -1.3302 -0.919 0
M  V30 12 C 1.9145 0.9808 1.3609 0
M  V30 13 C -1.5017 2.9264 -0.9838 0
M  V30 14 C 0.4597 2.6339 -2.3613 0
M  V30 15 C -2.7012 -2.6556 1.464 0
M  V30 16 C -3.2914 -2.0647 -0.7999 0
M  V30 17 C 3.258 0.4943 0.7947 0
M  V30 18 C -0.6494 3.3911 -1.9849 0
M  V30 19 C -3.5902 -2.7216 0.3923 0
M  V30 20 C 3.89 -0.57 1.6428 0
M  V30 21 O 4.0595 -0.3844 2.8769 0
M  V30 22 O 4.3454 -1.745 1.059 0 CHG=-1
M  V30 23 H 1.1542 -0.9882 1.8718 0
M  V30 24 H -0.0163 0.3396 2.0201 0
M  V30 25 H -1.9188 1.3742 0.425 0
M  V30 26 H 1.6065 0.8702 -2.0384 0
M  V30 27 H -0.8524 -1.9255 2.2048 0
M  V30 28 H -1.8968 -0.8493 -1.8655 0
M  V30 29 H 2.0786 1.309 2.411 0
M  V30 30 H 1.6017 1.8973 0.8209 0
M  V30 31 H -2.3495 3.5249 -0.676 0
M  V30 32 H 1.1355 3.0086 -3.1192 0
M  V30 33 H -2.9266 -3.1815 2.3831 0
M  V30 34 H -3.9735 -2.1304 -1.6378 0
M  V30 35 H 3.1367 0.1348 -0.2459 0
M  V30 36 H 3.956 1.3577 0.7548 0
M  V30 37 H -0.8387 4.3465 -2.4571 0
M  V30 38 H -4.5055 -3.2925 0.4818 0
M  V30 END ATOM
M  V30 BEGIN BOND
M  V30 1 2 1 2
M  V30 2 1 2 3
M  V30 3 1 2 4
M  V30 4 1 4 5
M  V30 5 1 4 6
M  V30 6 1 4 7
M  V30 7 2 5 8
M  V30 8 1 5 9
M  V30 9 2 6 10
M  V30 10 1 6 11
M  V30 11 1 7 12
M  V30 12 1 8 13
M  V30 13 2 9 14
M  V30 14 1 10 15
M  V30 15 2 11 16
M  V30 16 1 12 17
M  V30 17 2 13 18
M  V30 18 2 15 19
M  V30 19 1 17 20
M  V30 20 2 20 21
M  V30 21 1 20 22
M  V30 22 1 14 18
M  V30 23 1 16 19
M  V30 24 1 7 23
M  V30 25 1 7 24
M  V30 26 1 8 25
M  V30 27 1 9 26
M  V30 28 1 10 27
M  V30 29 1 11 28
M  V30 30 1 12 29
M  V30 31 1 12 30
M  V30 32 1 13 31
M  V30 33 1 14 32
M  V30 34 1 15 33
M  V30 35 1 16 34
M  V30 36 1 17 35
M  V30 37 1 17 36
M  V30 38 1 18 37
M  V30 39 1 19 38
M  V30 END BOND
M  V30 END CTAB
M  END
>  <Structure No>
5570

>  <LogS>
-3.1737

>  <MMFF94 Energy>
177.09

$$$$
Compound 5571
Actelion Java MolfileCreator 2.0

  0  0  0  0  0  0              0 V3000
M  V30 BEGIN CTAB
M  V30 COUNTS 36 37 0 0 0
M  V30 BEGIN ATOM
M  V30 1 O -2.4157 -2.6576 -0.9657 0
M  V30 2 C -1.6769 -1.6839 -0.6611 0
M  V30 3 N -0.2926 -1.812 -0.4142 0
M  V30 4 C -2.0974 -0.2449 -0.6004 0 CFG=2
M  V30 5 C 0.141 -0.4701 -0.2469 0
M  V30 6 N -0.8038 0.4094 -0.3739 0
M  V30 7 C -3.0467 0.0317 0.6123 0
M  V30 8 C -2.6612 0.2053 -1.9596 0
M  V30 9 C 1.5547 -0.0813 -0.0883 0
M  V30 10 C -3.2177 1.5354 0.8935 0
M  V30 11 C -4.4326 -0.6229 0.4728 0
M  V30 12 N 1.9869 1.0121 -0.7747 0
M  V30 13 C 2.4788 -0.8233 0.6911 0
M  V30 14 C 3.2824 1.4154 -0.7672 0
M  V30 15 C 2.0789 -1.9408 1.5776 0
M  V30 16 C 3.8277 -0.4319 0.6765 0
M  V30 17 C 4.2359 0.6988 -0.0393 0
M  V30 18 O 0.9392 -1.9633 2.1131 0
M  V30 19 O 2.9849 -2.9512 1.8781 0 CHG=-1
M  V30 20 C 5.6801 1.103 -0.0685 0
M  V30 21 H 0.2932 -2.6691 -0.5239 0
M  V30 22 H -2.5704 -0.4072 1.5184 0
M  V30 23 H -1.9137 0.0247 -2.7623 0
M  V30 24 H -3.5799 -0.3606 -2.2188 0
M  V30 25 H -2.8915 1.2902 -1.9533 0
M  V30 26 H -3.8017 1.6818 1.8273 0
M  V30 27 H -3.7581 2.0398 0.0658 0
M  V30 28 H -2.233 2.0273 1.0367 0
M  V30 29 H -5.0205 -0.4614 1.4016 0
M  V30 30 H -5.0011 -0.1833 -0.373 0
M  V30 31 H -4.3462 -1.7176 0.3265 0
M  V30 32 H 3.569 2.2879 -1.3401 0
M  V30 33 H 4.5599 -0.9856 1.2528 0
M  V30 34 H 6.1751 0.8539 0.8942 0
M  V30 35 H 6.1967 0.566 -0.891 0
M  V30 36 H 5.7791 2.1973 -0.232 0
M  V30 END ATOM
M  V30 BEGIN BOND
M  V30 1 2 1 2
M  V30 2 1 2 3
M  V30 3 1 2 4
M  V30 4 1 3 5
M  V30 5 1 4 6
M  V30 6 1 4 7
M  V30 7 1 4 8
M  V30 8 1 5 9
M  V30 9 1 7 10
M  V30 10 1 7 11
M  V30 11 2 9 12
M  V30 12 1 9 13
M  V30 13 1 12 14
M  V30 14 1 13 15
M  V30 15 2 13 16
M  V30 16 2 14 17
M  V30 17 2 15 18
M  V30 18 1 15 19
M  V30 19 1 17 20
M  V30 20 2 5 6
M  V30 21 1 16 17
M  V30 22 1 3 21
M  V30 23 1 7 22
M  V30 24 1 8 23
M  V30 25 1 8 24
M  V30 26 1 8 25
M  V30 27 1 10 26
M  V30 28 1 10 27
M  V30 29 1 10 28
M  V30 30 1 11 29
M  V30 31 1 11 30
M  V30 32 1 11 31
M  V30 33 1 14 32
M  V30 34 1 16 33
M  V30 35 1 20 34
M  V30 36 1 20 35
M  V30 37 1 20 36
M  V30 END BOND
M  V30 BEGIN COLLECTION
M  V30 MDLV30/STEABS ATOMS=(1 4)
M  V30 END COLLECTION
M  V30 END CTAB
M  END
>  <Structure No>
5571

>  <LogS>
-2.0911

>  <MMFF94 Energy>
40.889

$$$$
Compound 5572
Actelion Java MolfileCreator 2.0

  0  0  0  0  0  0              0 V3000
M  V30 BEGIN CTAB
M  V30 COUNTS 21 22 0 0 0
M  V30 BEGIN ATOM
M  V30 1 O -1.6951 -3.4732 -2.1798 0
M  V30 2 C -1.8894 -2.273 -1.8539 0
M  V30 3 O -3.0802 -1.6518 -2.2093 0 CHG=-1
M  V30 4 C -0.8597 -1.543 -1.1039 0
M  V30 5 O 0.2893 -2.0781 -0.7385 0
M  V30 6 C -0.9323 -0.2205 -0.6768 0
M  V30 7 C 0.9699 -1.1626 -0.0915 0
M  V30 8 O -2.0236 0.6303 -0.9041 0
M  V30 9 C 0.2668 0.0184 -0.0169 0
M  V30 10 C 2.2373 -1.303 0.4685 0
M  V30 11 C -2.1064 1.9806 -0.4721 0
M  V30 12 C 0.8021 1.1378 0.6314 0
M  V30 13 C 2.7951 -0.1932 1.1244 0
M  V30 14 C 2.0811 1.0204 1.2052 0
M  V30 15 H 2.7762 -2.2389 0.4007 0
M  V30 16 H -3.0812 2.401 -0.7937 0
M  V30 17 H -1.2979 2.5811 -0.9387 0
M  V30 18 H -2.0546 2.0311 0.6355 0
M  V30 19 H 0.2753 2.0749 0.7056 0
M  V30 20 H 3.7782 -0.2701 1.5701 0
M  V30 21 H 2.5213 1.8687 1.7131 0
M  V30 END ATOM
M  V30 BEGIN BOND
M  V30 1 2 1 2
M  V30 2 1 2 3
M  V30 3 1 2 4
M  V30 4 1 4 5
M  V30 5 2 4 6
M  V30 6 1 5 7
M  V30 7 1 6 8
M  V30 8 1 6 9
M  V30 9 1 7 10
M  V30 10 1 8 11
M  V30 11 1 9 12
M  V30 12 2 10 13
M  V30 13 2 12 14
M  V30 14 2 7 9
M  V30 15 1 13 14
M  V30 16 1 10 15
M  V30 17 1 11 16
M  V30 18 1 11 17
M  V30 19 1 11 18
M  V30 20 1 12 19
M  V30 21 1 13 20
M  V30 22 1 14 21
M  V30 END BOND
M  V30 END CTAB
M  END
>  <Structure No>
5572

>  <LogS>
-2.8857

>  <MMFF94 Energy>
64.633

$$$$
Compound 5573
Actelion Java MolfileCreator 2.0

  0  0  0  0  0  0              0 V3000
M  V30 BEGIN CTAB
M  V30 COUNTS 48 49 0 0 0
M  V30 BEGIN ATOM
M  V30 1 Cl 3.3626 1.6392 -1.6392 0
M  V30 2 C 4.5119 0.8433 -0.574 0
M  V30 3 C 4.1173 0.32 0.6724 0
M  V30 4 C 5.8589 0.7921 -0.9571 0
M  V30 5 O 2.7844 0.3571 1.1007 0
M  V30 6 C 5.0821 -0.2188 1.5287 0
M  V30 7 C 6.8293 0.2475 -0.0958 0
M  V30 8 C 1.7044 -0.2028 0.4025 0
M  V30 9 C 6.4253 -0.2626 1.1469 0
M  V30 10 C 8.2815 0.1703 -0.4895 0
M  V30 11 C 0.4125 0.2278 0.714 0
M  V30 12 C 1.8832 -1.1873 -0.5787 0
M  V30 13 F 9.0675 0.6821 0.5291 0
M  V30 14 F 8.6282 -1.1509 -0.7063 0
M  V30 15 F 8.537 0.8924 -1.6415 0
M  V30 16 C -0.7133 -0.3003 0.0524 0
M  V30 17 C 0.7805 -1.7308 -1.2374 0
M  V30 18 C -0.5216 -1.3151 -0.9215 0
M  V30 19 C -2.0548 0.287 0.3229 0
M  V30 20 N -1.6282 -1.9658 -1.5658 0 CHG=1
M  V30 21 N -2.8914 0.4254 -0.661 0
M  V30 22 C -2.4109 0.8018 1.697 0
M  V30 23 O -2.6036 -2.361 -0.8969 0
M  V30 24 O -1.5597 -2.2851 -2.9054 0 CHG=-1
M  V30 25 O -4.1136 1.0417 -0.5089 0
M  V30 26 O -2.2153 2.2003 1.7281 0
M  V30 27 C -5.0779 0.9917 -1.5487 0
M  V30 28 C -2.6131 2.7028 2.9852 0
M  V30 29 C -5.7351 -0.3497 -1.5576 0
M  V30 30 O -5.4277 -1.1966 -2.4383 0
M  V30 31 O -6.652 -0.667 -0.5508 0
M  V30 32 C -7.2842 -1.9392 -0.4641 0
M  V30 33 H 6.1422 1.1931 -1.9206 0
M  V30 34 H 4.7877 -0.6119 2.4932 0
M  V30 35 H 7.1507 -0.6956 1.8223 0
M  V30 36 H 0.3001 1.0115 1.4506 0
M  V30 37 H 2.8719 -1.5486 -0.8248 0
M  V30 38 H 0.939 -2.5039 -1.9777 0
M  V30 39 H -1.7766 0.2959 2.4597 0
M  V30 40 H -3.4716 0.5383 1.9153 0
M  V30 41 H -4.5896 1.1967 -2.526 0
M  V30 42 H -5.8466 1.7707 -1.3688 0
M  V30 43 H -2.0309 2.2381 3.8118 0
M  V30 44 H -2.4122 3.7926 3.0033 0
M  V30 45 H -3.7047 2.5576 3.1493 0
M  V30 46 H -6.5189 -2.7318 -0.3234 0
M  V30 47 H -7.9714 -1.9427 0.4085 0
M  V30 48 H -7.8703 -2.1436 -1.3863 0
M  V30 END ATOM
M  V30 BEGIN BOND
M  V30 1 1 1 2
M  V30 2 2 2 3
M  V30 3 1 2 4
M  V30 4 1 3 5
M  V30 5 1 3 6
M  V30 6 2 4 7
M  V30 7 1 5 8
M  V30 8 2 6 9
M  V30 9 1 7 10
M  V30 10 2 8 11
M  V30 11 1 8 12
M  V30 12 1 10 13
M  V30 13 1 10 14
M  V30 14 1 10 15
M  V30 15 1 11 16
M  V30 16 2 12 17
M  V30 17 2 16 18
M  V30 18 1 16 19
M  V30 19 1 18 20
M  V30 20 2 19 21
M  V30 21 1 19 22
M  V30 22 2 20 23
M  V30 23 1 20 24
M  V30 24 1 21 25
M  V30 25 1 22 26
M  V30 26 1 25 27
M  V30 27 1 26 28
M  V30 28 1 27 29
M  V30 29 2 29 30
M  V30 30 1 29 31
M  V30 31 1 31 32
M  V30 32 1 7 9
M  V30 33 1 17 18
M  V30 34 1 4 33
M  V30 35 1 6 34
M  V30 36 1 9 35
M  V30 37 1 11 36
M  V30 38 1 12 37
M  V30 39 1 17 38
M  V30 40 1 22 39
M  V30 41 1 22 40
M  V30 42 1 27 41
M  V30 43 1 27 42
M  V30 44 1 28 43
M  V30 45 1 28 44
M  V30 46 1 28 45
M  V30 47 1 32 46
M  V30 48 1 32 47
M  V30 49 1 32 48
M  V30 END BOND
M  V30 END CTAB
M  END
>  <Structure No>
5573

>  <LogS>
-5.6783

>  <MMFF94 Energy>
153.7

$$$$
Compound 5574
Actelion Java MolfileCreator 2.0

  0  0  0  0  0  0              0 V3000
M  V30 BEGIN CTAB
M  V30 COUNTS 37 38 0 0 0
M  V30 BEGIN ATOM
M  V30 1 Cl -8.3259 0.4883 1.6284 0
M  V30 2 C -6.8613 -0.1737 0.9264 0
M  V30 3 C -6.8201 -0.5204 -0.4259 0
M  V30 4 C -5.7273 -0.3734 1.7161 0
M  V30 5 N -5.6814 -1.0341 -0.9626 0
M  V30 6 C -4.5675 -0.9047 1.1479 0
M  V30 7 C -4.5542 -1.2203 -0.2236 0
M  V30 8 F -3.4906 -1.1508 1.9349 0
M  V30 9 O -3.4237 -1.7658 -0.8463 0
M  V30 10 C -2.1008 -1.3569 -0.6225 0
M  V30 11 C -1.0666 -2.2671 -0.8615 0
M  V30 12 C -1.7845 -0.0511 -0.2082 0
M  V30 13 C 0.2652 -1.8929 -0.6638 0
M  V30 14 C -0.4523 0.3241 -0.0102 0
M  V30 15 C 0.5868 -0.5987 -0.2385 0
M  V30 16 O 1.9431 -0.2827 -0.0532 0
M  V30 17 C 2.4652 1.0073 0.2719 0 CFG=1
M  V30 18 C 3.8792 0.8497 0.74 0
M  V30 19 C 2.4348 1.92 -0.9561 0
M  V30 20 O 4.2927 1.5249 1.7223 0
M  V30 21 O 4.7407 -0.0167 0.0561 0
M  V30 22 C 6.1146 -0.183 0.3961 0
M  V30 23 C 6.8815 1.0062 0.0103 0
M  V30 24 C 7.5103 1.9845 -0.3066 0
M  V30 25 H -7.692 -0.3833 -1.0517 0
M  V30 26 H -5.748 -0.1284 2.7704 0
M  V30 27 H -1.2967 -3.271 -1.1947 0
M  V30 28 H -2.5654 0.6812 -0.0507 0
M  V30 29 H 1.0535 -2.6124 -0.8454 0
M  V30 30 H -0.2484 1.3333 0.3166 0
M  V30 31 H 1.8734 1.4607 1.0968 0
M  V30 32 H 3.0252 1.4733 -1.7848 0
M  V30 33 H 2.8598 2.9152 -0.7042 0
M  V30 34 H 1.3932 2.0672 -1.3074 0
M  V30 35 H 6.517 -1.0585 -0.1532 0
M  V30 36 H 6.2243 -0.3682 1.4859 0
M  V30 37 H 8.062 2.8436 -0.5848 0
M  V30 END ATOM
M  V30 BEGIN BOND
M  V30 1 1 1 2
M  V30 2 2 2 3
M  V30 3 1 2 4
M  V30 4 1 3 5
M  V30 5 2 4 6
M  V30 6 2 5 7
M  V30 7 1 6 8
M  V30 8 1 7 9
M  V30 9 1 9 10
M  V30 10 2 10 11
M  V30 11 1 10 12
M  V30 12 1 11 13
M  V30 13 2 12 14
M  V30 14 2 13 15
M  V30 15 1 15 16
M  V30 16 1 16 17
M  V30 17 1 17 18
M  V30 18 1 17 19
M  V30 19 2 18 20
M  V30 20 1 18 21
M  V30 21 1 21 22
M  V30 22 1 22 23
M  V30 23 3 23 24
M  V30 24 1 6 7
M  V30 25 1 14 15
M  V30 26 1 3 25
M  V30 27 1 4 26
M  V30 28 1 11 27
M  V30 29 1 12 28
M  V30 30 1 13 29
M  V30 31 1 14 30
M  V30 32 1 17 31
M  V30 33 1 19 32
M  V30 34 1 19 33
M  V30 35 1 19 34
M  V30 36 1 22 35
M  V30 37 1 22 36
M  V30 38 1 24 37
M  V30 END BOND
M  V30 BEGIN COLLECTION
M  V30 MDLV30/STEABS ATOMS=(1 17)
M  V30 END COLLECTION
M  V30 END CTAB
M  END
>  <Structure No>
5574

>  <LogS>
-4.9417

>  <MMFF94 Energy>
77.021

$$$$
Compound 5575
Actelion Java MolfileCreator 2.0

  0  0  0  0  0  0              0 V3000
M  V30 BEGIN CTAB
M  V30 COUNTS 54 55 0 0 0
M  V30 BEGIN ATOM
M  V30 1 Cl 5.9118 -2.2337 -1.2759 0
M  V30 2 C 5.977 -0.6558 -0.4838 0
M  V30 3 C 4.8092 -0.051 0.024 0
M  V30 4 C 7.1988 0.0366 -0.3515 0
M  V30 5 N 4.8993 1.1649 0.6284 0
M  V30 6 N 3.5281 -0.6999 -0.0758 0
M  V30 7 N 7.2185 1.2446 0.2716 0
M  V30 8 C 8.5029 -0.5386 -0.8357 0
M  V30 9 C 6.0848 1.8093 0.7539 0
M  V30 10 C 2.2843 -0.0537 0.341 0
M  V30 11 C 9.1084 -1.4689 0.2105 0
M  V30 12 C 1.8555 0.9969 -0.6864 0
M  V30 13 O 0.6259 1.6098 -0.2969 0
M  V30 14 C -0.6547 1.0319 -0.3881 0
M  V30 15 C -1.7572 1.7203 0.1651 0
M  V30 16 C -0.8601 -0.2032 -1.0196 0
M  V30 17 C -3.0725 1.1906 0.0283 0
M  V30 18 C -1.5267 3.0441 0.863 0
M  V30 19 C -2.1337 -0.75 -1.111 0
M  V30 20 C -3.2516 -0.0714 -0.6065 0
M  V30 21 C -4.2435 1.9529 0.6197 0
M  V30 22 C -4.601 -0.7509 -0.7349 0
M  V30 23 C -5.031 -1.3856 0.5924 0
M  V30 24 O -6.277 -2.0389 0.4392 0
M  V30 25 C -7.3315 -1.1947 0.8529 0
M  V30 26 C -8.6603 -1.861 0.5318 0
M  V30 27 H 3.4627 -1.688 -0.4062 0
M  V30 28 H 8.363 -1.0854 -1.792 0
M  V30 29 H 9.2191 0.2873 -1.0374 0
M  V30 30 H 6.1267 2.7733 1.242 0
M  V30 31 H 1.4914 -0.8247 0.4385 0
M  V30 32 H 2.4151 0.417 1.3393 0
M  V30 33 H 9.2927 -0.9159 1.1564 0
M  V30 34 H 10.0751 -1.8679 -0.1621 0
M  V30 35 H 8.4273 -2.3223 0.4134 0
M  V30 36 H 2.6301 1.7898 -0.7367 0
M  V30 37 H 1.7733 0.5571 -1.703 0
M  V30 38 H -0.0393 -0.7608 -1.4463 0
M  V30 39 H -1.8235 3.8753 0.1898 0
M  V30 40 H -2.1164 3.1005 1.8014 0
M  V30 41 H -0.4667 3.1903 1.1555 0
M  V30 42 H -2.2469 -1.7154 -1.5896 0
M  V30 43 H -4.17 3.0314 0.3686 0
M  V30 44 H -5.2284 1.6253 0.2436 0
M  V30 45 H -4.2404 1.835 1.7234 0
M  V30 46 H -5.3656 -0.0418 -1.1096 0
M  V30 47 H -4.5586 -1.5535 -1.5038 0
M  V30 48 H -5.024 -0.636 1.4183 0
M  V30 49 H -4.2785 -2.1543 0.8705 0
M  V30 50 H -7.2969 -0.2146 0.3249 0
M  V30 51 H -7.2814 -1.0247 1.9522 0
M  V30 52 H -9.4969 -1.208 0.859 0
M  V30 53 H -8.7351 -2.8347 1.0609 0
M  V30 54 H -8.7438 -2.0328 -0.5621 0
M  V30 END ATOM
M  V30 BEGIN BOND
M  V30 1 1 1 2
M  V30 2 2 2 3
M  V30 3 1 2 4
M  V30 4 1 3 5
M  V30 5 1 3 6
M  V30 6 2 4 7
M  V30 7 1 4 8
M  V30 8 2 5 9
M  V30 9 1 6 10
M  V30 10 1 8 11
M  V30 11 1 10 12
M  V30 12 1 12 13
M  V30 13 1 13 14
M  V30 14 2 14 15
M  V30 15 1 14 16
M  V30 16 1 15 17
M  V30 17 1 15 18
M  V30 18 2 16 19
M  V30 19 2 17 20
M  V30 20 1 17 21
M  V30 21 1 20 22
M  V30 22 1 22 23
M  V30 23 1 23 24
M  V30 24 1 24 25
M  V30 25 1 25 26
M  V30 26 1 7 9
M  V30 27 1 19 20
M  V30 28 1 6 27
M  V30 29 1 8 28
M  V30 30 1 8 29
M  V30 31 1 9 30
M  V30 32 1 10 31
M  V30 33 1 10 32
M  V30 34 1 11 33
M  V30 35 1 11 34
M  V30 36 1 11 35
M  V30 37 1 12 36
M  V30 38 1 12 37
M  V30 39 1 16 38
M  V30 40 1 18 39
M  V30 41 1 18 40
M  V30 42 1 18 41
M  V30 43 1 19 42
M  V30 44 1 21 43
M  V30 45 1 21 44
M  V30 46 1 21 45
M  V30 47 1 22 46
M  V30 48 1 22 47
M  V30 49 1 23 48
M  V30 50 1 23 49
M  V30 51 1 25 50
M  V30 52 1 25 51
M  V30 53 1 26 52
M  V30 54 1 26 53
M  V30 55 1 26 54
M  V30 END BOND
M  V30 END CTAB
M  END
>  <Structure No>
5575

>  <LogS>
-5.2409

>  <MMFF94 Energy>
63.344

$$$$
Compound 5576
Actelion Java MolfileCreator 2.0

  0  0  0  0  0  0              0 V3000
M  V30 BEGIN CTAB
M  V30 COUNTS 30 30 0 0 0
M  V30 BEGIN ATOM
M  V30 1 O 0.0 0.0 1.7501 0
M  V30 2 C -0.5013 -0.0659 0.5944 0
M  V30 3 N 0.2662 -0.6226 -0.4868 0
M  V30 4 C -1.8702 0.457 0.3698 0
M  V30 5 C 1.5494 -1.305 -0.2891 0 CFG=2
M  V30 6 C -2.673 -0.0305 -0.6792 0
M  V30 7 C -2.3971 1.4404 1.2281 0
M  V30 8 C 2.6614 -0.5923 -1.0854 0
M  V30 9 C 1.4176 -2.7611 -0.7399 0
M  V30 10 C -3.9645 0.4698 -0.8733 0
M  V30 11 C -3.6886 1.9378 1.0286 0
M  V30 12 C 2.9114 0.8483 -0.6134 0
M  V30 13 C -4.4708 1.4548 -0.0224 0
M  V30 14 C 3.5154 0.8878 0.7568 0
M  V30 15 O 2.8251 1.2518 1.7449 0
M  V30 16 O 4.8368 0.503 0.9455 0 CHG=-1
M  V30 17 H -0.081 -0.52 -1.4668 0
M  V30 18 H 1.8293 -1.3186 0.7865 0
M  V30 19 H -2.3196 -0.8143 -1.3355 0
M  V30 20 H -1.8062 1.8328 2.0467 0
M  V30 21 H 3.6094 -1.1694 -1.0064 0
M  V30 22 H 2.3808 -0.5657 -2.1614 0
M  V30 23 H 0.6157 -3.2638 -0.1583 0
M  V30 24 H 1.1622 -2.8147 -1.8201 0
M  V30 25 H 2.37 -3.3059 -0.5655 0
M  V30 26 H -4.5762 0.0883 -1.6806 0
M  V30 27 H -4.0832 2.6987 1.6898 0
M  V30 28 H 3.617 1.337 -1.3189 0
M  V30 29 H 1.9662 1.4331 -0.6351 0
M  V30 30 H -5.471 1.8399 -0.1743 0
M  V30 END ATOM
M  V30 BEGIN BOND
M  V30 1 2 1 2
M  V30 2 1 2 3
M  V30 3 1 2 4
M  V30 4 1 3 5
M  V30 5 2 4 6
M  V30 6 1 4 7
M  V30 7 1 5 8
M  V30 8 1 5 9
M  V30 9 1 6 10
M  V30 10 2 7 11
M  V30 11 1 8 12
M  V30 12 2 10 13
M  V30 13 1 12 14
M  V30 14 2 14 15
M  V30 15 1 14 16
M  V30 16 1 11 13
M  V30 17 1 3 17
M  V30 18 1 5 18
M  V30 19 1 6 19
M  V30 20 1 7 20
M  V30 21 1 8 21
M  V30 22 1 8 22
M  V30 23 1 9 23
M  V30 24 1 9 24
M  V30 25 1 9 25
M  V30 26 1 10 26
M  V30 27 1 11 27
M  V30 28 1 12 28
M  V30 29 1 12 29
M  V30 30 1 13 30
M  V30 END BOND
M  V30 BEGIN COLLECTION
M  V30 MDLV30/STEABS ATOMS=(1 5)
M  V30 END COLLECTION
M  V30 END CTAB
M  END
>  <Structure No>
5576

>  <LogS>
-1.6917

>  <MMFF94 Energy>
9.3489

$$$$
Compound 5577
Actelion Java MolfileCreator 2.0

  0  0  0  0  0  0              0 V3000
M  V30 BEGIN CTAB
M  V30 COUNTS 25 25 0 0 0
M  V30 BEGIN ATOM
M  V30 1 O -0.9491 1.7406 -1.8989 0
M  V30 2 C -0.7997 0.8909 -0.9775 0
M  V30 3 O 0.3854 0.8649 -0.2348 0
M  V30 4 C -1.8758 -0.0796 -0.6799 0
M  V30 5 C 1.4623 1.7645 -0.4714 0
M  V30 6 C -3.078 -0.0679 -1.4127 0
M  V30 7 C -1.7105 -1.0312 0.3431 0
M  V30 8 C 2.5746 1.4608 0.4789 0
M  V30 9 C -4.0903 -0.9889 -1.1256 0
M  V30 10 C -2.7263 -1.9498 0.6257 0
M  V30 11 O 2.7637 2.208 1.477 0
M  V30 12 N 3.3949 0.3041 0.2755 0
M  V30 13 C -3.9148 -1.9289 -0.1075 0
M  V30 14 C 4.4788 -0.0388 1.1872 0
M  V30 15 H 1.8281 1.648 -1.5143 0
M  V30 16 H 1.1152 2.8114 -0.3292 0
M  V30 17 H -3.2364 0.6515 -2.2063 0
M  V30 18 H -0.798 -1.0671 0.9249 0
M  V30 19 H -5.0117 -0.9737 -1.6931 0
M  V30 20 H -2.5915 -2.6789 1.4144 0
M  V30 21 H 3.2123 -0.3147 -0.5465 0
M  V30 22 H -4.6995 -2.6409 0.113 0
M  V30 23 H 4.0739 -0.206 2.2075 0
M  V30 24 H 5.2238 0.7841 1.213 0
M  V30 25 H 4.9812 -0.9675 0.8436 0
M  V30 END ATOM
M  V30 BEGIN BOND
M  V30 1 2 1 2
M  V30 2 1 2 3
M  V30 3 1 2 4
M  V30 4 1 3 5
M  V30 5 2 4 6
M  V30 6 1 4 7
M  V30 7 1 5 8
M  V30 8 1 6 9
M  V30 9 2 7 10
M  V30 10 2 8 11
M  V30 11 1 8 12
M  V30 12 2 9 13
M  V30 13 1 12 14
M  V30 14 1 10 13
M  V30 15 1 5 15
M  V30 16 1 5 16
M  V30 17 1 6 17
M  V30 18 1 7 18
M  V30 19 1 9 19
M  V30 20 1 10 20
M  V30 21 1 12 21
M  V30 22 1 13 22
M  V30 23 1 14 23
M  V30 24 1 14 24
M  V30 25 1 14 25
M  V30 END BOND
M  V30 END CTAB
M  END
>  <Structure No>
5577

>  <LogS>
-1.7178

>  <MMFF94 Energy>
25.742

$$$$
Compound 5578
Actelion Java MolfileCreator 2.0

  0  0  0  0  0  0              0 V3000
M  V30 BEGIN CTAB
M  V30 COUNTS 31 31 0 0 0
M  V30 BEGIN ATOM
M  V30 1 O 1.1843 2.4487 0.3946 0
M  V30 2 C 1.5985 1.4258 -0.2177 0
M  V30 3 O 1.128 1.1409 -1.5059 0
M  V30 4 C 2.5817 0.5249 0.4222 0
M  V30 5 C 0.1419 1.9261 -2.1717 0
M  V30 6 C 3.0349 -0.6241 -0.251 0
M  V30 7 C 3.076 0.7995 1.7115 0
M  V30 8 C -1.1979 1.7362 -1.5291 0
M  V30 9 C 3.9626 -1.4782 0.3531 0
M  V30 10 C 4.0038 -0.0581 2.3107 0
M  V30 11 O -1.8073 2.7316 -1.0519 0
M  V30 12 N -1.779 0.4285 -1.4567 0
M  V30 13 C 4.4466 -1.1957 1.6324 0
M  V30 14 C -3.0701 0.2019 -0.8083 0
M  V30 15 C -3.4503 -1.2811 -0.8536 0
M  V30 16 C -4.7957 -1.5277 -0.1776 0
M  V30 17 H 0.0782 1.5972 -3.2296 0
M  V30 18 H 0.4386 2.9979 -2.1632 0
M  V30 19 H 2.6731 -0.8644 -1.2427 0
M  V30 20 H 2.7467 1.6753 2.2566 0
M  V30 21 H 4.3063 -2.3604 -0.1712 0
M  V30 22 H 4.3793 0.1596 3.3021 0
M  V30 23 H -1.2538 -0.3747 -1.872 0
M  V30 24 H 5.1647 -1.8582 2.098 0
M  V30 25 H -3.0095 0.5361 0.2505 0
M  V30 26 H -3.8493 0.8007 -1.3288 0
M  V30 27 H -2.67 -1.8804 -0.3361 0
M  V30 28 H -3.5099 -1.6171 -1.9116 0
M  V30 29 H -5.597 -0.956 -0.6925 0
M  V30 30 H -5.0435 -2.6089 -0.2264 0
M  V30 31 H -4.7536 -1.2208 0.8892 0
M  V30 END ATOM
M  V30 BEGIN BOND
M  V30 1 2 1 2
M  V30 2 1 2 3
M  V30 3 1 2 4
M  V30 4 1 3 5
M  V30 5 2 4 6
M  V30 6 1 4 7
M  V30 7 1 5 8
M  V30 8 1 6 9
M  V30 9 2 7 10
M  V30 10 2 8 11
M  V30 11 1 8 12
M  V30 12 2 9 13
M  V30 13 1 12 14
M  V30 14 1 14 15
M  V30 15 1 15 16
M  V30 16 1 10 13
M  V30 17 1 5 17
M  V30 18 1 5 18
M  V30 19 1 6 19
M  V30 20 1 7 20
M  V30 21 1 9 21
M  V30 22 1 10 22
M  V30 23 1 12 23
M  V30 24 1 13 24
M  V30 25 1 14 25
M  V30 26 1 14 26
M  V30 27 1 15 27
M  V30 28 1 15 28
M  V30 29 1 16 29
M  V30 30 1 16 30
M  V30 31 1 16 31
M  V30 END BOND
M  V30 END CTAB
M  END
>  <Structure No>
5578

>  <LogS>
-2.5387

>  <MMFF94 Energy>
23.89

$$$$
Compound 5579
Actelion Java MolfileCreator 2.0

  0  0  0  0  0  0              0 V3000
M  V30 BEGIN CTAB
M  V30 COUNTS 34 34 0 0 0
M  V30 BEGIN ATOM
M  V30 1 O 2.3702 2.7657 0.2368 0
M  V30 2 C 2.1983 1.5189 0.1337 0
M  V30 3 O 0.9744 1.017 -0.3218 0
M  V30 4 C 3.287 0.5861 0.4959 0
M  V30 5 C -0.1072 1.8556 -0.7091 0
M  V30 6 C 4.5396 1.0706 0.9181 0
M  V30 7 C 3.0825 -0.8033 0.4241 0
M  V30 8 C -1.2654 1.0027 -1.1163 0
M  V30 9 C 5.5631 0.1822 1.2601 0
M  V30 10 C 4.1093 -1.6873 0.7689 0
M  V30 11 O -1.4221 0.7233 -2.3342 0
M  V30 12 N -2.1455 0.4644 -0.1143 0
M  V30 13 C 5.3483 -1.1953 1.1859 0
M  V30 14 C -3.3115 -0.4001 -0.3835 0
M  V30 15 C -4.328 0.34 -1.2739 0
M  V30 16 C -3.9963 -0.7511 0.9543 0
M  V30 17 C -2.8602 -1.7101 -1.0589 0
M  V30 18 H -0.404 2.5053 0.141 0
M  V30 19 H 0.204 2.5021 -1.5579 0
M  V30 20 H 4.7292 2.1338 0.9835 0
M  V30 21 H 2.1302 -1.2084 0.1054 0
M  V30 22 H 6.5236 0.5623 1.5833 0
M  V30 23 H 3.9436 -2.7556 0.714 0
M  V30 24 H -1.9244 0.7084 0.8773 0
M  V30 25 H 6.1417 -1.8818 1.4528 0
M  V30 26 H -5.2521 -0.2657 -1.3955 0
M  V30 27 H -4.6032 1.3167 -0.8161 0
M  V30 28 H -3.9169 0.5333 -2.2869 0
M  V30 29 H -4.3349 0.1733 1.4708 0
M  V30 30 H -4.8817 -1.4047 0.7927 0
M  V30 31 H -3.2866 -1.2853 1.624 0
M  V30 32 H -2.4594 -1.5277 -2.076 0
M  V30 33 H -3.7145 -2.4143 -1.1576 0
M  V30 34 H -2.0677 -2.201 -0.4549 0
M  V30 END ATOM
M  V30 BEGIN BOND
M  V30 1 2 1 2
M  V30 2 1 2 3
M  V30 3 1 2 4
M  V30 4 1 3 5
M  V30 5 2 4 6
M  V30 6 1 4 7
M  V30 7 1 5 8
M  V30 8 1 6 9
M  V30 9 2 7 10
M  V30 10 2 8 11
M  V30 11 1 8 12
M  V30 12 2 9 13
M  V30 13 1 12 14
M  V30 14 1 14 15
M  V30 15 1 14 16
M  V30 16 1 14 17
M  V30 17 1 10 13
M  V30 18 1 5 18
M  V30 19 1 5 19
M  V30 20 1 6 20
M  V30 21 1 7 21
M  V30 22 1 9 22
M  V30 23 1 10 23
M  V30 24 1 12 24
M  V30 25 1 13 25
M  V30 26 1 15 26
M  V30 27 1 15 27
M  V30 28 1 15 28
M  V30 29 1 16 29
M  V30 30 1 16 30
M  V30 31 1 16 31
M  V30 32 1 17 32
M  V30 33 1 17 33
M  V30 34 1 17 34
M  V30 END BOND
M  V30 END CTAB
M  END
>  <Structure No>
5579

>  <LogS>
-2.8665

>  <MMFF94 Energy>
38.56

$$$$
Compound 5580
Actelion Java MolfileCreator 2.0

  0  0  0  0  0  0              0 V3000
M  V30 BEGIN CTAB
M  V30 COUNTS 29 29 0 0 0
M  V30 BEGIN ATOM
M  V30 1 O 0.4759 0.9521 -1.349 0
M  V30 2 C 0.9715 -0.1191 -0.9022 0
M  V30 3 O 0.3955 -1.3522 -1.2349 0
M  V30 4 C 2.1632 -0.076 -0.027 0
M  V30 5 C -0.7879 -1.4796 -2.0194 0
M  V30 6 C 2.7208 -1.2671 0.4724 0
M  V30 7 C 2.7548 1.1528 0.322 0
M  V30 8 C -1.9815 -1.0334 -1.2315 0
M  V30 9 C 3.846 -1.228 1.3019 0
M  V30 10 C 3.8798 1.1858 1.1518 0
M  V30 11 O -2.4136 -1.7645 -0.2997 0
M  V30 12 N -2.6002 0.2314 -1.5064 0
M  V30 13 C 4.4249 -0.0032 1.6411 0
M  V30 14 C -3.6545 0.7867 -0.6626 0
M  V30 15 C -3.0744 1.2785 0.6283 0
M  V30 16 O -2.4026 2.3441 0.6436 0
M  V30 17 N -3.2465 0.5336 1.8338 0
M  V30 18 H -0.9182 -2.5467 -2.2962 0
M  V30 19 H -0.6885 -0.8969 -2.9606 0
M  V30 20 H 2.2892 -2.2284 0.2238 0
M  V30 21 H 2.3491 2.0874 -0.0447 0
M  V30 22 H 4.2691 -2.1487 1.6821 0
M  V30 23 H 4.329 2.1345 1.4157 0
M  V30 24 H -2.2721 0.7932 -2.3241 0
M  V30 25 H 5.2957 0.0245 2.2833 0
M  V30 26 H -4.1342 1.6409 -1.1873 0
M  V30 27 H -4.4401 0.022 -0.4812 0
M  V30 28 H -2.8257 0.8736 2.7268 0
M  V30 29 H -3.7906 -0.3573 1.8394 0
M  V30 END ATOM
M  V30 BEGIN BOND
M  V30 1 2 1 2
M  V30 2 1 2 3
M  V30 3 1 2 4
M  V30 4 1 3 5
M  V30 5 2 4 6
M  V30 6 1 4 7
M  V30 7 1 5 8
M  V30 8 1 6 9
M  V30 9 2 7 10
M  V30 10 2 8 11
M  V30 11 1 8 12
M  V30 12 2 9 13
M  V30 13 1 12 14
M  V30 14 1 14 15
M  V30 15 2 15 16
M  V30 16 1 15 17
M  V30 17 1 10 13
M  V30 18 1 5 18
M  V30 19 1 5 19
M  V30 20 1 6 20
M  V30 21 1 7 21
M  V30 22 1 9 22
M  V30 23 1 10 23
M  V30 24 1 12 24
M  V30 25 1 13 25
M  V30 26 1 14 26
M  V30 27 1 14 27
M  V30 28 1 17 28
M  V30 29 1 17 29
M  V30 END BOND
M  V30 END CTAB
M  END
>  <Structure No>
5580

>  <LogS>
-1.4983

>  <MMFF94 Energy>
29.593

$$$$
Compound 5581
Actelion Java MolfileCreator 2.0

  0  0  0  0  0  0              0 V3000
M  V30 BEGIN CTAB
M  V30 COUNTS 28 28 0 0 0
M  V30 BEGIN ATOM
M  V30 1 O 0.3953 -0.5535 1.4237 0
M  V30 2 C 0.9254 0.148 0.5181 0
M  V30 3 O 0.174 1.1329 -0.1364 0
M  V30 4 C 2.3404 -0.0676 0.1447 0
M  V30 5 C -1.2018 1.3858 0.1468 0
M  V30 6 C 3.1134 -1.0497 0.793 0
M  V30 7 C 2.9338 0.7081 -0.8678 0
M  V30 8 C -2.0835 0.2906 -0.3974 0
M  V30 9 C 4.4503 -1.2483 0.4338 0
M  V30 10 C 4.2711 0.5051 -1.2227 0
M  V30 11 O -1.6138 -0.4955 -1.2657 0
M  V30 12 N -3.4623 0.1603 0.0115 0
M  V30 13 C 5.0285 -0.4718 -0.5726 0
M  V30 14 C -4.0619 1.118 0.9473 0
M  V30 15 C -4.268 -0.9365 -0.5347 0
M  V30 16 H -1.4912 2.3423 -0.3356 0
M  V30 17 H -1.3381 1.4945 1.2435 0
M  V30 18 H 2.6864 -1.6635 1.5761 0
M  V30 19 H 2.3665 1.4711 -1.3861 0
M  V30 20 H 5.0382 -2.0052 0.9369 0
M  V30 21 H 4.7203 1.106 -2.0029 0
M  V30 22 H 6.0633 -0.6273 -0.8491 0
M  V30 23 H -5.1469 0.9307 1.0887 0
M  V30 24 H -3.9438 2.1511 0.5577 0
M  V30 25 H -3.5684 1.0354 1.9381 0
M  V30 26 H -3.798 -1.9094 -0.2779 0
M  V30 27 H -4.3307 -0.841 -1.6394 0
M  V30 28 H -5.3003 -0.9345 -0.1262 0
M  V30 END ATOM
M  V30 BEGIN BOND
M  V30 1 2 1 2
M  V30 2 1 2 3
M  V30 3 1 2 4
M  V30 4 1 3 5
M  V30 5 2 4 6
M  V30 6 1 4 7
M  V30 7 1 5 8
M  V30 8 1 6 9
M  V30 9 2 7 10
M  V30 10 2 8 11
M  V30 11 1 8 12
M  V30 12 2 9 13
M  V30 13 1 12 14
M  V30 14 1 12 15
M  V30 15 1 10 13
M  V30 16 1 5 16
M  V30 17 1 5 17
M  V30 18 1 6 18
M  V30 19 1 7 19
M  V30 20 1 9 20
M  V30 21 1 10 21
M  V30 22 1 13 22
M  V30 23 1 14 23
M  V30 24 1 14 24
M  V30 25 1 14 25
M  V30 26 1 15 26
M  V30 27 1 15 27
M  V30 28 1 15 28
M  V30 END BOND
M  V30 END CTAB
M  END
>  <Structure No>
5581

>  <LogS>
-1.372

>  <MMFF94 Energy>
37.866

$$$$
Compound 5582
Actelion Java MolfileCreator 2.0

  0  0  0  0  0  0              0 V3000
M  V30 BEGIN CTAB
M  V30 COUNTS 40 40 0 0 0
M  V30 BEGIN ATOM
M  V30 1 O 2.6819 2.0504 0.7882 0
M  V30 2 C 2.7801 0.8641 0.3681 0
M  V30 3 O 1.6273 0.1291 0.0719 0
M  V30 4 C 4.1127 0.2475 0.1879 0
M  V30 5 C 0.3136 0.6608 0.2226 0
M  V30 6 C 5.285 0.97 0.4799 0
M  V30 7 C 4.2253 -1.0747 -0.2796 0
M  V30 8 C -0.7173 -0.363 -0.1678 0
M  V30 9 C 6.5409 0.38 0.3069 0
M  V30 10 C 5.4838 -1.6595 -0.4507 0
M  V30 11 O -0.3299 -1.5085 -0.5295 0
M  V30 12 N -2.1342 -0.0709 -0.1132 0
M  V30 13 C 6.6403 -0.9332 -0.1579 0
M  V30 14 C -2.6302 1.3056 0.0375 0
M  V30 15 C -3.109 -1.1568 -0.2965 0
M  V30 16 C -2.7019 1.9973 -1.3272 0
M  V30 17 C -3.211 -2.0012 0.9773 0
M  V30 18 C -3.1829 3.4386 -1.1916 0
M  V30 19 C -4.2331 -3.1226 0.8169 0
M  V30 20 H 0.2092 1.5591 -0.421 0
M  V30 21 H 0.1547 0.9461 1.2847 0
M  V30 22 H 5.2324 1.9895 0.8414 0
M  V30 23 H 3.3431 -1.6573 -0.5132 0
M  V30 24 H 7.4379 0.9418 0.5335 0
M  V30 25 H 5.5623 -2.6772 -0.8109 0
M  V30 26 H 7.6134 -1.3879 -0.291 0
M  V30 27 H -3.644 1.295 0.4959 0
M  V30 28 H -1.9851 1.8815 0.7336 0
M  V30 29 H -2.8103 -1.7916 -1.1592 0
M  V30 30 H -4.1126 -0.741 -0.5376 0
M  V30 31 H -1.7007 1.9947 -1.8076 0
M  V30 32 H -3.4038 1.4418 -1.9862 0
M  V30 33 H -2.2219 -2.448 1.2152 0
M  V30 34 H -3.5151 -1.3518 1.8268 0
M  V30 35 H -3.2302 3.9107 -2.1956 0
M  V30 36 H -4.1966 3.4662 -0.7378 0
M  V30 37 H -2.4805 4.0212 -0.558 0
M  V30 38 H -3.9383 -3.7965 -0.0153 0
M  V30 39 H -5.2396 -2.7008 0.6093 0
M  V30 40 H -4.2835 -3.7162 1.7539 0
M  V30 END ATOM
M  V30 BEGIN BOND
M  V30 1 2 1 2
M  V30 2 1 2 3
M  V30 3 1 2 4
M  V30 4 1 3 5
M  V30 5 2 4 6
M  V30 6 1 4 7
M  V30 7 1 5 8
M  V30 8 1 6 9
M  V30 9 2 7 10
M  V30 10 2 8 11
M  V30 11 1 8 12
M  V30 12 2 9 13
M  V30 13 1 12 14
M  V30 14 1 12 15
M  V30 15 1 14 16
M  V30 16 1 15 17
M  V30 17 1 16 18
M  V30 18 1 17 19
M  V30 19 1 10 13
M  V30 20 1 5 20
M  V30 21 1 5 21
M  V30 22 1 6 22
M  V30 23 1 7 23
M  V30 24 1 9 24
M  V30 25 1 10 25
M  V30 26 1 13 26
M  V30 27 1 14 27
M  V30 28 1 14 28
M  V30 29 1 15 29
M  V30 30 1 15 30
M  V30 31 1 16 31
M  V30 32 1 16 32
M  V30 33 1 17 33
M  V30 34 1 17 34
M  V30 35 1 18 35
M  V30 36 1 18 36
M  V30 37 1 18 37
M  V30 38 1 19 38
M  V30 39 1 19 39
M  V30 40 1 19 40
M  V30 END BOND
M  V30 END CTAB
M  END
>  <Structure No>
5582

>  <LogS>
-2.3791

>  <MMFF94 Energy>
34.346

$$$$
Compound 5583
Actelion Java MolfileCreator 2.0

  0  0  0  0  0  0              0 V3000
M  V30 BEGIN CTAB
M  V30 COUNTS 46 46 0 0 0
M  V30 BEGIN ATOM
M  V30 1 O 2.2856 0.7876 1.3393 0
M  V30 2 C 2.7971 -0.2536 0.8419 0
M  V30 3 O 2.0055 -1.3892 0.6244 0
M  V30 4 C 4.2328 -0.2779 0.4863 0
M  V30 5 C 0.6082 -1.4351 0.911 0
M  V30 6 C 4.8064 -1.4348 -0.0721 0
M  V30 7 C 5.0452 0.8523 0.6979 0
M  V30 8 C -0.1725 -0.605 -0.0733 0
M  V30 9 C 6.1631 -1.4592 -0.4103 0
M  V30 10 C 6.4013 0.8221 0.3579 0
M  V30 11 O 0.3322 -0.3659 -1.2046 0
M  V30 12 N -1.4872 -0.0957 0.2424 0
M  V30 13 C 6.9597 -0.3321 -0.1955 0
M  V30 14 C -2.3716 -0.7993 1.1871 0
M  V30 15 C -1.9643 1.1254 -0.4239 0
M  V30 16 C -2.9115 -2.1025 0.5828 0
M  V30 17 C -1.2466 2.3563 0.1464 0
M  V30 18 C -3.812 -1.8418 -0.6319 0
M  V30 19 C -1.6276 3.6543 -0.5815 0
M  V30 20 C -4.3974 -3.143 -1.1721 0
M  V30 21 C -3.0539 4.1093 -0.2727 0
M  V30 22 H 0.4381 -1.0762 1.9479 0
M  V30 23 H 0.2687 -2.4884 0.8429 0
M  V30 24 H 4.2088 -2.3204 -0.2482 0
M  V30 25 H 4.634 1.7584 1.1254 0
M  V30 26 H 6.5971 -2.3529 -0.8395 0
M  V30 27 H 7.0194 1.6951 0.5236 0
M  V30 28 H 8.0095 -0.3532 -0.4581 0
M  V30 29 H -1.8283 -1.0241 2.1275 0
M  V30 30 H -3.2278 -0.1544 1.4836 0
M  V30 31 H -3.0603 1.2377 -0.2851 0
M  V30 32 H -1.7876 1.0494 -1.5189 0
M  V30 33 H -2.0668 -2.7602 0.2873 0
M  V30 34 H -3.4976 -2.6328 1.3651 0
M  V30 35 H -1.4695 2.4495 1.2319 0
M  V30 36 H -0.1493 2.2142 0.0412 0
M  V30 37 H -3.2245 -1.3552 -1.4399 0
M  V30 38 H -4.6455 -1.1644 -0.3442 0
M  V30 39 H -0.9296 4.4561 -0.2562 0
M  V30 40 H -1.5054 3.5279 -1.6792 0
M  V30 41 H -5.017 -3.6397 -0.3952 0
M  V30 42 H -3.5835 -3.8302 -1.4874 0
M  V30 43 H -5.039 -2.925 -2.0517 0
M  V30 44 H -3.2089 4.1869 0.8244 0
M  V30 45 H -3.2278 5.1084 -0.7248 0
M  V30 46 H -3.7944 3.4037 -0.7025 0
M  V30 END ATOM
M  V30 BEGIN BOND
M  V30 1 2 1 2
M  V30 2 1 2 3
M  V30 3 1 2 4
M  V30 4 1 3 5
M  V30 5 2 4 6
M  V30 6 1 4 7
M  V30 7 1 5 8
M  V30 8 1 6 9
M  V30 9 2 7 10
M  V30 10 2 8 11
M  V30 11 1 8 12
M  V30 12 2 9 13
M  V30 13 1 12 14
M  V30 14 1 12 15
M  V30 15 1 14 16
M  V30 16 1 15 17
M  V30 17 1 16 18
M  V30 18 1 17 19
M  V30 19 1 18 20
M  V30 20 1 19 21
M  V30 21 1 10 13
M  V30 22 1 5 22
M  V30 23 1 5 23
M  V30 24 1 6 24
M  V30 25 1 7 25
M  V30 26 1 9 26
M  V30 27 1 10 27
M  V30 28 1 13 28
M  V30 29 1 14 29
M  V30 30 1 14 30
M  V30 31 1 15 31
M  V30 32 1 15 32
M  V30 33 1 16 33
M  V30 34 1 16 34
M  V30 35 1 17 35
M  V30 36 1 17 36
M  V30 37 1 18 37
M  V30 38 1 18 38
M  V30 39 1 19 39
M  V30 40 1 19 40
M  V30 41 1 20 41
M  V30 42 1 20 42
M  V30 43 1 20 43
M  V30 44 1 21 44
M  V30 45 1 21 45
M  V30 46 1 21 46
M  V30 END BOND
M  V30 END CTAB
M  END
>  <Structure No>
5583

>  <LogS>
-3.5614

>  <MMFF94 Energy>
34.763

$$$$
Compound 5584
Actelion Java MolfileCreator 2.0

  0  0  0  0  0  0              0 V3000
M  V30 BEGIN CTAB
M  V30 COUNTS 36 36 0 0 0
M  V30 BEGIN ATOM
M  V30 1 O -0.0788 -1.1037 0.1576 0
M  V30 2 C 1.0697 -0.8039 0.5872 0
M  V30 3 O 1.8718 0.0978 -0.1247 0
M  V30 4 C 1.5711 -1.4024 1.8436 0
M  V30 5 C 1.4424 0.7468 -1.3198 0
M  V30 6 C 0.778 -2.3066 2.5755 0
M  V30 7 C 2.8507 -1.0723 2.3263 0
M  V30 8 C 0.3789 1.7644 -1.0094 0
M  V30 9 C 1.258 -2.8671 3.7634 0
M  V30 10 C 3.3254 -1.636 3.5148 0
M  V30 11 O 0.5487 2.5215 -0.0145 0
M  V30 12 N -0.8186 1.8937 -1.809 0
M  V30 13 C 2.5302 -2.5323 4.2327 0
M  V30 14 C -2.008 2.5251 -1.2148 0
M  V30 15 C -0.7895 1.6693 -3.2635 0
M  V30 16 C -2.5025 1.7332 -0.0351 0
M  V30 17 C -1.8174 0.6526 -3.6791 0
M  V30 18 C -3.1373 0.5684 -0.186 0
M  V30 19 C -1.7059 -0.6397 -3.3617 0
M  V30 20 H 2.3095 1.2686 -1.775 0
M  V30 21 H 1.0864 -0.0185 -2.037 0
M  V30 22 H -0.2116 -2.5803 2.2316 0
M  V30 23 H 3.485 -0.3797 1.7875 0
M  V30 24 H 0.6425 -3.5615 4.3208 0
M  V30 25 H 4.3111 -1.3771 3.8797 0
M  V30 26 H 2.8998 -2.9672 5.1523 0
M  V30 27 H -2.8264 2.6299 -1.961 0
M  V30 28 H -1.7454 3.5506 -0.8764 0
M  V30 29 H 0.2126 1.3514 -3.6178 0
M  V30 30 H -1.0087 2.6301 -3.7772 0
M  V30 31 H -2.3385 2.121 0.9659 0
M  V30 32 H -2.6715 0.9797 -4.2647 0
M  V30 33 H -3.4776 0.0193 0.6857 0
M  V30 34 H -3.3307 0.1596 -1.1715 0
M  V30 35 H -0.8707 -1.0068 -2.7773 0
M  V30 36 H -2.4666 -1.3434 -3.6833 0
M  V30 END ATOM
M  V30 BEGIN BOND
M  V30 1 2 1 2
M  V30 2 1 2 3
M  V30 3 1 2 4
M  V30 4 1 3 5
M  V30 5 2 4 6
M  V30 6 1 4 7
M  V30 7 1 5 8
M  V30 8 1 6 9
M  V30 9 2 7 10
M  V30 10 2 8 11
M  V30 11 1 8 12
M  V30 12 2 9 13
M  V30 13 1 12 14
M  V30 14 1 12 15
M  V30 15 1 14 16
M  V30 16 1 15 17
M  V30 17 2 16 18
M  V30 18 2 17 19
M  V30 19 1 10 13
M  V30 20 1 5 20
M  V30 21 1 5 21
M  V30 22 1 6 22
M  V30 23 1 7 23
M  V30 24 1 9 24
M  V30 25 1 10 25
M  V30 26 1 13 26
M  V30 27 1 14 27
M  V30 28 1 14 28
M  V30 29 1 15 29
M  V30 30 1 15 30
M  V30 31 1 16 31
M  V30 32 1 17 32
M  V30 33 1 18 33
M  V30 34 1 18 34
M  V30 35 1 19 35
M  V30 36 1 19 36
M  V30 END BOND
M  V30 END CTAB
M  END
>  <Structure No>
5584

>  <LogS>
-2.5626

>  <MMFF94 Energy>
31.666

$$$$
Compound 5585
Actelion Java MolfileCreator 2.0

  0  0  0  0  0  0              0 V3000
M  V30 BEGIN CTAB
M  V30 COUNTS 30 30 0 0 0
M  V30 BEGIN ATOM
M  V30 1 O 0.4807 -0.9617 0.8815 0
M  V30 2 C 1.1004 -0.0043 0.3406 0
M  V30 3 O 0.4035 1.1405 -0.0677 0
M  V30 4 C 2.563 -0.0879 0.1362 0
M  V30 5 C -1.0091 1.2872 0.0706 0
M  V30 6 C 3.2569 0.9746 -0.4711 0
M  V30 7 C 3.2819 -1.2278 0.5432 0
M  V30 8 C -1.7458 0.4194 -0.9173 0
M  V30 9 C 4.6394 0.897 -0.666 0
M  V30 10 C 4.6644 -1.2998 0.3457 0
M  V30 11 O -1.135 0.026 -1.9493 0
M  V30 12 N -3.1402 0.0797 -0.7426 0
M  V30 13 C 5.3425 -0.2387 -0.2581 0
M  V30 14 C -3.9325 0.6077 0.3778 0
M  V30 15 C -3.7697 -0.8395 -1.6965 0
M  V30 16 C -3.7561 -0.2464 1.594 0
M  V30 17 O -3.9934 -1.4818 1.5409 0
M  V30 18 O -3.3593 0.3257 2.7959 0 CHG=-1
M  V30 19 H -1.2755 2.3465 -0.1242 0
M  V30 20 H -1.3003 1.0411 1.1125 0
M  V30 21 H 2.7334 1.865 -0.7959 0
M  V30 22 H 2.7774 -2.0626 1.0134 0
M  V30 23 H 5.166 1.7186 -1.1341 0
M  V30 24 H 5.2102 -2.1795 0.6613 0
M  V30 25 H 6.4125 -0.2965 -0.41 0
M  V30 26 H -5.012 0.6311 0.1154 0
M  V30 27 H -3.6455 1.6586 0.5954 0
M  V30 28 H -3.7658 -0.3876 -2.7107 0
M  V30 29 H -3.209 -1.7979 -1.719 0
M  V30 30 H -4.8206 -1.0635 -1.4151 0
M  V30 END ATOM
M  V30 BEGIN BOND
M  V30 1 2 1 2
M  V30 2 1 2 3
M  V30 3 1 2 4
M  V30 4 1 3 5
M  V30 5 2 4 6
M  V30 6 1 4 7
M  V30 7 1 5 8
M  V30 8 1 6 9
M  V30 9 2 7 10
M  V30 10 2 8 11
M  V30 11 1 8 12
M  V30 12 2 9 13
M  V30 13 1 12 14
M  V30 14 1 12 15
M  V30 15 1 14 16
M  V30 16 2 16 17
M  V30 17 1 16 18
M  V30 18 1 10 13
M  V30 19 1 5 19
M  V30 20 1 5 20
M  V30 21 1 6 21
M  V30 22 1 7 22
M  V30 23 1 9 23
M  V30 24 1 10 24
M  V30 25 1 13 25
M  V30 26 1 14 26
M  V30 27 1 14 27
M  V30 28 1 15 28
M  V30 29 1 15 29
M  V30 30 1 15 30
M  V30 END BOND
M  V30 END CTAB
M  END
>  <Structure No>
5585

>  <LogS>
-2.254

>  <MMFF94 Energy>
87.31

$$$$
Compound 5586
Actelion Java MolfileCreator 2.0

  0  0  0  0  0  0              0 V3000
M  V30 BEGIN CTAB
M  V30 COUNTS 35 36 0 0 0
M  V30 BEGIN ATOM
M  V30 1 O 1.439 0.7193 1.1191 0
M  V30 2 C 2.064 0.4828 0.0483 0
M  V30 3 O 1.3856 0.4976 -1.1774 0
M  V30 4 C 3.5134 0.1894 0.0841 0
M  V30 5 C -0.0147 0.7446 -1.2933 0
M  V30 6 C 4.2137 0.1733 1.3054 0
M  V30 7 C 4.2128 -0.0798 -1.1063 0
M  V30 8 C -0.8123 -0.4227 -0.7753 0
M  V30 9 C 5.5836 -0.1058 1.3312 0
M  V30 10 C 5.5829 -0.3583 -1.0744 0
M  V30 11 O -0.3154 -1.5796 -0.8539 0
M  V30 12 N -2.1441 -0.2492 -0.2455 0
M  V30 13 C 6.2675 -0.3713 0.1429 0
M  V30 14 C -2.7801 -1.3433 0.5046 0
M  V30 15 C -2.9065 0.9784 -0.5313 0
M  V30 16 C -3.6652 -0.7744 1.6178 0
M  V30 17 C -4.4087 0.7671 -0.3122 0
M  V30 18 C -4.7141 0.2287 1.0949 0
M  V30 19 H -0.2697 1.676 -0.7445 0
M  V30 20 H -0.2619 0.8936 -2.3647 0
M  V30 21 H 3.7045 0.376 2.2392 0
M  V30 22 H 3.7035 -0.0757 -2.0617 0
M  V30 23 H 6.1153 -0.1163 2.274 0
M  V30 24 H 6.1139 -0.5645 -1.9946 0
M  V30 25 H 7.3278 -0.5872 0.1652 0
M  V30 26 H -3.3893 -1.9632 -0.1881 0
M  V30 27 H -2.0124 -1.9965 0.9739 0
M  V30 28 H -2.5465 1.7981 0.127 0
M  V30 29 H -2.7544 1.28 -1.5904 0
M  V30 30 H -4.1748 -1.608 2.148 0
M  V30 31 H -3.0099 -0.2614 2.3561 0
M  V30 32 H -4.7818 0.0427 -1.0694 0
M  V30 33 H -4.9481 1.7259 -0.4702 0
M  V30 34 H -4.7794 1.0826 1.8043 0
M  V30 35 H -5.7137 -0.2576 1.0765 0
M  V30 END ATOM
M  V30 BEGIN BOND
M  V30 1 2 1 2
M  V30 2 1 2 3
M  V30 3 1 2 4
M  V30 4 1 3 5
M  V30 5 2 4 6
M  V30 6 1 4 7
M  V30 7 1 5 8
M  V30 8 1 6 9
M  V30 9 2 7 10
M  V30 10 2 8 11
M  V30 11 1 8 12
M  V30 12 2 9 13
M  V30 13 1 12 14
M  V30 14 1 12 15
M  V30 15 1 14 16
M  V30 16 1 15 17
M  V30 17 1 16 18
M  V30 18 1 10 13
M  V30 19 1 17 18
M  V30 20 1 5 19
M  V30 21 1 5 20
M  V30 22 1 6 21
M  V30 23 1 7 22
M  V30 24 1 9 23
M  V30 25 1 10 24
M  V30 26 1 13 25
M  V30 27 1 14 26
M  V30 28 1 14 27
M  V30 29 1 15 28
M  V30 30 1 15 29
M  V30 31 1 16 30
M  V30 32 1 16 31
M  V30 33 1 17 32
M  V30 34 1 17 33
M  V30 35 1 18 34
M  V30 36 1 18 35
M  V30 END BOND
M  V30 END CTAB
M  END
>  <Structure No>
5586

>  <LogS>
-2.5011

>  <MMFF94 Energy>
35.674

$$$$
Compound 5587
Actelion Java MolfileCreator 2.0

  0  0  0  0  0  0              0 V3000
M  V30 BEGIN CTAB
M  V30 COUNTS 33 34 0 0 0
M  V30 BEGIN ATOM
M  V30 1 O 0.8807 1.6819 -0.4803 0
M  V30 2 C 1.6711 0.7169 -0.6725 0
M  V30 3 O 1.1663 -0.5498 -0.9948 0
M  V30 4 C 3.1319 0.9197 -0.5579 0
M  V30 5 C -0.2284 -0.8342 -1.0988 0
M  V30 6 C 3.6592 2.1855 -0.2385 0
M  V30 7 C 4.0164 -0.1542 -0.7661 0
M  V30 8 C -0.8837 -0.8653 0.2566 0
M  V30 9 C 5.0413 2.3693 -0.1308 0
M  V30 10 C 5.3976 0.0354 -0.657 0
M  V30 11 O -0.1576 -0.9738 1.2832 0
M  V30 12 N -2.3197 -0.8027 0.3992 0
M  V30 13 C 5.9096 1.2956 -0.3399 0
M  V30 14 C -3.2011 -1.3144 -0.6601 0
M  V30 15 C -2.8963 -0.6264 1.738 0
M  V30 16 C -4.581 -0.6557 -0.5659 0
M  V30 17 C -4.2992 -0.0208 1.6364 0
M  V30 18 O -5.1035 -0.765 0.7432 0
M  V30 19 H -0.351 -1.8291 -1.5746 0
M  V30 20 H -0.7134 -0.0711 -1.7449 0
M  V30 21 H 3.0053 3.0325 -0.0718 0
M  V30 22 H 3.6431 -1.1401 -1.0125 0
M  V30 23 H 5.4392 3.3455 0.115 0
M  V30 24 H 6.0716 -0.7959 -0.8187 0
M  V30 25 H 6.9789 1.44 -0.256 0
M  V30 26 H -3.3069 -2.4146 -0.5443 0
M  V30 27 H -2.7898 -1.1064 -1.6687 0
M  V30 28 H -2.9532 -1.6139 2.2452 0
M  V30 29 H -2.2632 0.0531 2.3495 0
M  V30 30 H -4.5276 0.4086 -0.8915 0
M  V30 31 H -5.2706 -1.1738 -1.2651 0
M  V30 32 H -4.7711 -0.046 2.6412 0
M  V30 33 H -4.2409 1.0494 1.3315 0
M  V30 END ATOM
M  V30 BEGIN BOND
M  V30 1 2 1 2
M  V30 2 1 2 3
M  V30 3 1 2 4
M  V30 4 1 3 5
M  V30 5 2 4 6
M  V30 6 1 4 7
M  V30 7 1 5 8
M  V30 8 1 6 9
M  V30 9 2 7 10
M  V30 10 2 8 11
M  V30 11 1 8 12
M  V30 12 2 9 13
M  V30 13 1 12 14
M  V30 14 1 12 15
M  V30 15 1 14 16
M  V30 16 1 15 17
M  V30 17 1 16 18
M  V30 18 1 10 13
M  V30 19 1 17 18
M  V30 20 1 5 19
M  V30 21 1 5 20
M  V30 22 1 6 21
M  V30 23 1 7 22
M  V30 24 1 9 23
M  V30 25 1 10 24
M  V30 26 1 13 25
M  V30 27 1 14 26
M  V30 28 1 14 27
M  V30 29 1 15 28
M  V30 30 1 15 29
M  V30 31 1 16 30
M  V30 32 1 16 31
M  V30 33 1 17 32
M  V30 34 1 17 33
M  V30 END BOND
M  V30 END CTAB
M  END
>  <Structure No>
5587

>  <LogS>
-1.7734

>  <MMFF94 Energy>
83.011

$$$$
Compound 5588
Actelion Java MolfileCreator 2.0

  0  0  0  0  0  0              0 V3000
M  V30 BEGIN CTAB
M  V30 COUNTS 17 16 0 0 0
M  V30 BEGIN ATOM
M  V30 1 O 0.867 2.2082 -1.9715 0
M  V30 2 C 0.9729 1.5789 -0.8859 0
M  V30 3 O 1.8183 2.0603 0.1065 0 CHG=-1
M  V30 4 C 0.1655 0.335 -0.6528 0 CFG=1
M  V30 5 N 1.0402 -0.7281 -0.1483 0
M  V30 6 C -0.9714 0.6319 0.3423 0
M  V30 7 C 1.9108 -1.4735 -1.0058 0
M  V30 8 C -1.9246 -0.5533 0.4911 0
M  V30 9 O 1.9326 -1.2617 -2.2474 0
M  V30 10 H -0.2911 0.0105 -1.6152 0
M  V30 11 H 1.0894 -0.919 0.8782 0
M  V30 12 H -0.5508 0.8902 1.3392 0
M  V30 13 H -1.5586 1.5055 -0.0174 0
M  V30 14 H 2.5601 -2.2289 -0.5839 0
M  V30 15 H -2.7428 -0.285 1.1922 0
M  V30 16 H -2.3721 -0.8146 -0.4913 0
M  V30 17 H -1.3902 -1.4378 0.8971 0
M  V30 END ATOM
M  V30 BEGIN BOND
M  V30 1 2 1 2
M  V30 2 1 2 3
M  V30 3 1 2 4
M  V30 4 1 4 5
M  V30 5 1 4 6
M  V30 6 1 5 7
M  V30 7 1 6 8
M  V30 8 2 7 9
M  V30 9 1 4 10
M  V30 10 1 5 11
M  V30 11 1 6 12
M  V30 12 1 6 13
M  V30 13 1 7 14
M  V30 14 1 8 15
M  V30 15 1 8 16
M  V30 16 1 8 17
M  V30 END BOND
M  V30 BEGIN COLLECTION
M  V30 MDLV30/STEABS ATOMS=(1 4)
M  V30 END COLLECTION
M  V30 END CTAB
M  END
>  <Structure No>
5588

>  <LogS>
-0.5918

>  <MMFF94 Energy>
30.048

$$$$
Compound 5589
Actelion Java MolfileCreator 2.0

  0  0  0  0  0  0              0 V3000
M  V30 BEGIN CTAB
M  V30 COUNTS 43 44 0 0 0
M  V30 BEGIN ATOM
M  V30 1 Cl 6.498 2.7236 0.08 0
M  V30 2 C 5.0628 1.7241 -0.0535 0
M  V30 3 C 4.5531 1.3956 -1.3139 0
M  V30 4 C 4.423 1.2599 1.1005 0
M  V30 5 C 3.4079 0.6007 -1.422 0
M  V30 6 C 3.2777 0.4647 0.9955 0
M  V30 7 C 2.769 0.1187 -0.2674 0
M  V30 8 C 1.5117 -0.7041 -0.3806 0
M  V30 9 C 0.2663 0.197 -0.2837 0
M  V30 10 C -1.0786 -0.4073 -0.8207 0 CFG=1
M  V30 11 O -0.813 -0.85 -2.1349 0
M  V30 12 C -1.6426 -1.6436 0.0478 0
M  V30 13 C -2.0953 0.7889 -0.9541 0
M  V30 14 C -0.9652 -2.9825 -0.3593 0
M  V30 15 C -1.4233 -1.4544 1.5698 0
M  V30 16 C -3.1629 -1.8665 -0.1794 0
M  V30 17 N -2.3583 1.5062 0.2968 0
M  V30 18 N -3.4319 1.3376 1.0466 0
M  V30 19 C -1.6522 2.5312 0.806 0
M  V30 20 C -3.3382 2.2518 2.0309 0
M  V30 21 N -2.2367 3.0249 1.9144 0
M  V30 22 H 5.0406 1.7588 -2.2097 0
M  V30 23 H 4.8094 1.5177 2.0783 0
M  V30 24 H 3.0179 0.3633 -2.404 0
M  V30 25 H 2.7857 0.1207 1.8971 0
M  V30 26 H 1.5227 -1.2639 -1.34 0
M  V30 27 H 1.5136 -1.441 0.4468 0
M  V30 28 H 0.1617 0.5353 0.7675 0
M  V30 29 H 0.4833 1.1117 -0.8812 0
M  V30 30 H -1.6697 -1.1198 -2.5569 0
M  V30 31 H -1.6971 1.5168 -1.696 0
M  V30 32 H -3.0569 0.4534 -1.3951 0
M  V30 33 H -1.176 -3.236 -1.4197 0
M  V30 34 H -1.3514 -3.8221 0.2592 0
M  V30 35 H 0.1274 -2.9721 -0.2219 0
M  V30 36 H -0.3485 -1.502 1.8365 0
M  V30 37 H -1.9301 -2.2603 2.144 0
M  V30 38 H -1.8273 -0.4885 1.9248 0
M  V30 39 H -3.399 -1.9654 -1.2594 0
M  V30 40 H -3.7705 -1.0454 0.2458 0
M  V30 41 H -3.5088 -2.7969 0.3221 0
M  V30 42 H -0.743 2.9285 0.3742 0
M  V30 43 H -4.0704 2.3636 2.819 0
M  V30 END ATOM
M  V30 BEGIN BOND
M  V30 1 1 1 2
M  V30 2 2 2 3
M  V30 3 1 2 4
M  V30 4 1 3 5
M  V30 5 2 4 6
M  V30 6 2 5 7
M  V30 7 1 7 8
M  V30 8 1 8 9
M  V30 9 1 9 10
M  V30 10 1 10 11
M  V30 11 1 10 12
M  V30 12 1 10 13
M  V30 13 1 12 14
M  V30 14 1 12 15
M  V30 15 1 12 16
M  V30 16 1 13 17
M  V30 17 1 17 18
M  V30 18 1 17 19
M  V30 19 2 18 20
M  V30 20 2 19 21
M  V30 21 1 6 7
M  V30 22 1 20 21
M  V30 23 1 3 22
M  V30 24 1 4 23
M  V30 25 1 5 24
M  V30 26 1 6 25
M  V30 27 1 8 26
M  V30 28 1 8 27
M  V30 29 1 9 28
M  V30 30 1 9 29
M  V30 31 1 11 30
M  V30 32 1 13 31
M  V30 33 1 13 32
M  V30 34 1 14 33
M  V30 35 1 14 34
M  V30 36 1 14 35
M  V30 37 1 15 36
M  V30 38 1 15 37
M  V30 39 1 15 38
M  V30 40 1 16 39
M  V30 41 1 16 40
M  V30 42 1 16 41
M  V30 43 1 19 42
M  V30 44 1 20 43
M  V30 END BOND
M  V30 BEGIN COLLECTION
M  V30 MDLV30/STEABS ATOMS=(1 10)
M  V30 END COLLECTION
M  V30 END CTAB
M  END
>  <Structure No>
5589

>  <LogS>
-3.932

>  <MMFF94 Energy>
66.659

$$$$
Compound 5590
Actelion Java MolfileCreator 2.0

  0  0  0  0  0  0              0 V3000
M  V30 BEGIN CTAB
M  V30 COUNTS 25 25 0 0 0
M  V30 BEGIN ATOM
M  V30 1 S -3.918 0.0832 0.2497 0
M  V30 2 O -4.5879 -1.1719 0.7348 0
M  V30 3 O -4.6454 0.5777 -0.9694 0
M  V30 4 N -3.9785 1.285 1.4908 0
M  V30 5 C -2.2387 -0.2545 -0.1557 0
M  V30 6 C -1.5794 0.5181 -1.1221 0
M  V30 7 C -1.5451 -1.2804 0.502 0
M  V30 8 C -0.2416 0.2597 -1.436 0
M  V30 9 C -0.2073 -1.5382 0.1874 0
M  V30 10 C 0.4472 -0.7672 -0.7801 0
M  V30 11 S 2.1629 -1.0992 -1.184 0
M  V30 12 C 2.8093 0.0504 0.0754 0
M  V30 13 C 4.3318 0.0519 0.0449 0
M  V30 14 O 4.8177 0.9371 1.0148 0
M  V30 15 H -3.5433 2.15 1.0991 0
M  V30 16 H -4.9867 1.5031 1.6564 0
M  V30 17 H -2.0987 1.321 -1.6299 0
M  V30 18 H -2.037 -1.8782 1.2587 0
M  V30 19 H 0.2593 0.8606 -2.1843 0
M  V30 20 H 0.3202 -2.3329 0.6993 0
M  V30 21 H 2.4602 -0.2678 1.0816 0
M  V30 22 H 2.4345 1.0761 -0.1321 0
M  V30 23 H 4.6811 0.3713 -0.9624 0
M  V30 24 H 4.7069 -0.9749 0.2533 0
M  V30 25 H 5.8073 0.8984 0.951 0
M  V30 END ATOM
M  V30 BEGIN BOND
M  V30 1 2 1 2
M  V30 2 2 1 3
M  V30 3 1 1 4
M  V30 4 1 1 5
M  V30 5 2 5 6
M  V30 6 1 5 7
M  V30 7 1 6 8
M  V30 8 2 7 9
M  V30 9 2 8 10
M  V30 10 1 10 11
M  V30 11 1 11 12
M  V30 12 1 12 13
M  V30 13 1 13 14
M  V30 14 1 9 10
M  V30 15 1 4 15
M  V30 16 1 4 16
M  V30 17 1 6 17
M  V30 18 1 7 18
M  V30 19 1 8 19
M  V30 20 1 9 20
M  V30 21 1 12 21
M  V30 22 1 12 22
M  V30 23 1 13 23
M  V30 24 1 13 24
M  V30 25 1 14 25
M  V30 END BOND
M  V30 END CTAB
M  END
>  <Structure No>
5590

>  <LogS>
-1.8239

>  <MMFF94 Energy>
-45.753

$$$$
Compound 5591
Actelion Java MolfileCreator 2.0

  0  0  0  0  0  0              0 V3000
M  V30 BEGIN CTAB
M  V30 COUNTS 28 28 0 0 0
M  V30 BEGIN ATOM
M  V30 1 S -4.1429 0.4137 -0.0827 0
M  V30 2 O -5.0997 -0.7394 0.0353 0
M  V30 3 O -4.655 1.3576 -1.1345 0
M  V30 4 N -4.0444 1.2383 1.4331 0
M  V30 5 C -2.5483 -0.1782 -0.5383 0
M  V30 6 C -1.683 0.6319 -1.2868 0
M  V30 7 C -2.127 -1.4527 -0.1335 0
M  V30 8 C -0.4111 0.1676 -1.635 0
M  V30 9 C -0.8548 -1.9158 -0.482 0
M  V30 10 C 0.009 -1.1034 -1.2259 0
M  V30 11 S 1.6394 -1.7039 -1.68 0
M  V30 12 C 2.4475 -1.2048 -0.118 0
M  V30 13 C 2.8144 0.2809 -0.1399 0
M  V30 14 C 3.5834 0.6773 1.1226 0
M  V30 15 O 3.8766 2.0478 1.1011 0
M  V30 16 H -3.6458 0.5623 2.1227 0
M  V30 17 H -3.3408 2.0022 1.3196 0
M  V30 18 H -1.991 1.6217 -1.599 0
M  V30 19 H -2.7805 -2.0858 0.453 0
M  V30 20 H 0.2476 0.7979 -2.2186 0
M  V30 21 H -0.5386 -2.9021 -0.167 0
M  V30 22 H 1.7889 -1.43 0.7487 0
M  V30 23 H 3.373 -1.8096 -0.0108 0
M  V30 24 H 3.4417 0.4924 -1.0331 0
M  V30 25 H 1.8911 0.8945 -0.203 0
M  V30 26 H 2.9603 0.4654 2.0178 0
M  V30 27 H 4.5224 0.0837 1.2076 0
M  V30 28 H 4.6313 2.1671 0.467 0
M  V30 END ATOM
M  V30 BEGIN BOND
M  V30 1 2 1 2
M  V30 2 2 1 3
M  V30 3 1 1 4
M  V30 4 1 1 5
M  V30 5 2 5 6
M  V30 6 1 5 7
M  V30 7 1 6 8
M  V30 8 2 7 9
M  V30 9 2 8 10
M  V30 10 1 10 11
M  V30 11 1 11 12
M  V30 12 1 12 13
M  V30 13 1 13 14
M  V30 14 1 14 15
M  V30 15 1 9 10
M  V30 16 1 4 16
M  V30 17 1 4 17
M  V30 18 1 6 18
M  V30 19 1 7 19
M  V30 20 1 8 20
M  V30 21 1 9 21
M  V30 22 1 12 22
M  V30 23 1 12 23
M  V30 24 1 13 24
M  V30 25 1 13 25
M  V30 26 1 14 26
M  V30 27 1 14 27
M  V30 28 1 15 28
M  V30 END BOND
M  V30 END CTAB
M  END
>  <Structure No>
5591

>  <LogS>
-2.2472

>  <MMFF94 Energy>
-59.801

$$$$
Compound 5592
Actelion Java MolfileCreator 2.0

  0  0  0  0  0  0              0 V3000
M  V30 BEGIN CTAB
M  V30 COUNTS 34 34 0 0 0
M  V30 BEGIN ATOM
M  V30 1 S 4.7626 0.9839 -0.4919 0
M  V30 2 O 4.4896 2.2806 -1.2013 0
M  V30 3 O 5.5135 0.0735 -1.423 0
M  V30 4 N 5.7145 1.2881 0.9184 0
M  V30 5 C 3.2432 0.2303 -0.0206 0
M  V30 6 C 3.1609 -1.1624 0.1145 0
M  V30 7 C 2.1164 1.0199 0.2493 0
M  V30 8 C 1.9579 -1.7614 0.4998 0
M  V30 9 C 0.914 0.4199 0.6347 0
M  V30 10 C 0.8284 -0.9727 0.749 0
M  V30 11 S -0.7118 -1.7439 1.2566 0
M  V30 12 C -1.2859 -2.1212 -0.4391 0
M  V30 13 C -1.8676 -0.9002 -1.1687 0
M  V30 14 C -3.2133 -0.415 -0.591 0
M  V30 15 C -3.0486 0.7472 0.3996 0
M  V30 16 C -4.4057 1.2504 0.8896 0
M  V30 17 O -4.2149 2.305 1.7907 0
M  V30 18 H 6.6288 1.674 0.5925 0
M  V30 19 H 5.917 0.3611 1.3553 0
M  V30 20 H 4.0271 -1.7835 -0.0746 0
M  V30 21 H 2.1687 2.0979 0.1662 0
M  V30 22 H 1.9034 -2.8378 0.6008 0
M  V30 23 H 0.0513 1.0388 0.845 0
M  V30 24 H -2.0556 -2.9196 -0.379 0
M  V30 25 H -0.4409 -2.5337 -1.0312 0
M  V30 26 H -1.1246 -0.0766 -1.208 0
M  V30 27 H -2.0422 -1.2075 -2.223 0
M  V30 28 H -3.8447 -0.0614 -1.436 0
M  V30 29 H -3.7575 -1.2542 -0.105 0
M  V30 30 H -2.456 0.4212 1.278 0
M  V30 31 H -2.5116 1.5859 -0.0955 0
M  V30 32 H -5.0079 1.6052 0.0231 0
M  V30 33 H -4.9498 0.4214 1.3959 0
M  V30 34 H -5.1216 2.5903 2.0763 0
M  V30 END ATOM
M  V30 BEGIN BOND
M  V30 1 2 1 2
M  V30 2 2 1 3
M  V30 3 1 1 4
M  V30 4 1 1 5
M  V30 5 2 5 6
M  V30 6 1 5 7
M  V30 7 1 6 8
M  V30 8 2 7 9
M  V30 9 2 8 10
M  V30 10 1 10 11
M  V30 11 1 11 12
M  V30 12 1 12 13
M  V30 13 1 13 14
M  V30 14 1 14 15
M  V30 15 1 15 16
M  V30 16 1 16 17
M  V30 17 1 9 10
M  V30 18 1 4 18
M  V30 19 1 4 19
M  V30 20 1 6 20
M  V30 21 1 7 21
M  V30 22 1 8 22
M  V30 23 1 9 23
M  V30 24 1 12 24
M  V30 25 1 12 25
M  V30 26 1 13 26
M  V30 27 1 13 27
M  V30 28 1 14 28
M  V30 29 1 14 29
M  V30 30 1 15 30
M  V30 31 1 15 31
M  V30 32 1 16 32
M  V30 33 1 16 33
M  V30 34 1 17 34
M  V30 END BOND
M  V30 END CTAB
M  END
>  <Structure No>
5592

>  <LogS>
-2.6618

>  <MMFF94 Energy>
-57.789

$$$$
Compound 5593
Actelion Java MolfileCreator 2.0

  0  0  0  0  0  0              0 V3000
M  V30 BEGIN CTAB
M  V30 COUNTS 26 25 0 0 0
M  V30 BEGIN ATOM
M  V30 1 O 2.6425 -2.3219 1.681 0
M  V30 2 C 2.6956 -1.4606 0.7627 0
M  V30 3 O 3.7485 -1.5025 -0.1449 0 CHG=-1
M  V30 4 C 1.5827 -0.4446 0.5998 0 CFG=2
M  V30 5 O 0.9075 -0.297 1.8253 0
M  V30 6 C 0.5959 -0.9943 -0.463 0
M  V30 7 C 2.1859 0.9085 0.1641 0
M  V30 8 C -0.5796 -0.0753 -0.8875 0
M  V30 9 C -1.74 0.1001 0.1438 0 CFG=1
M  V30 10 O -1.9615 -1.0979 0.8526 0
M  V30 11 C -1.4313 1.2071 1.1256 0
M  V30 12 C -3.0369 0.4952 -0.5921 0
M  V30 13 O -1.5885 1.0272 2.3632 0
M  V30 14 O -1.0519 2.4644 0.6687 0 CHG=-1
M  V30 15 H 1.5494 0.0724 2.4881 0
M  V30 16 H 1.1765 -1.2162 -1.3871 0
M  V30 17 H 0.1957 -1.9732 -0.1207 0
M  V30 18 H 2.5758 0.8528 -0.8749 0
M  V30 19 H 3.0217 1.1954 0.8385 0
M  V30 20 H 1.4284 1.7154 0.2175 0
M  V30 21 H -1.0059 -0.5486 -1.8002 0
M  V30 22 H -0.2013 0.9096 -1.2328 0
M  V30 23 H -2.2127 -1.7989 0.1949 0
M  V30 24 H -2.895 1.4393 -1.1621 0
M  V30 25 H -3.3421 -0.2993 -1.3065 0
M  V30 26 H -3.8661 0.6385 0.1344 0
M  V30 END ATOM
M  V30 BEGIN BOND
M  V30 1 2 1 2
M  V30 2 1 2 3
M  V30 3 1 2 4
M  V30 4 1 4 5
M  V30 5 1 4 6
M  V30 6 1 4 7
M  V30 7 1 6 8
M  V30 8 1 8 9
M  V30 9 1 9 10
M  V30 10 1 9 11
M  V30 11 1 9 12
M  V30 12 2 11 13
M  V30 13 1 11 14
M  V30 14 1 5 15
M  V30 15 1 6 16
M  V30 16 1 6 17
M  V30 17 1 7 18
M  V30 18 1 7 19
M  V30 19 1 7 20
M  V30 20 1 8 21
M  V30 21 1 8 22
M  V30 22 1 10 23
M  V30 23 1 12 24
M  V30 24 1 12 25
M  V30 25 1 12 26
M  V30 END BOND
M  V30 BEGIN COLLECTION
M  V30 MDLV30/STEABS ATOMS=(2 4 9)
M  V30 END COLLECTION
M  V30 END CTAB
M  END
>  <Structure No>
5593

>  <LogS>
-0.8372

>  <MMFF94 Energy>
177.43

$$$$
Compound 5594
Actelion Java MolfileCreator 2.0

  0  0  0  0  0  0              0 V3000
M  V30 BEGIN CTAB
M  V30 COUNTS 37 37 0 0 0
M  V30 BEGIN ATOM
M  V30 1 N 0.6234 0.6234 0.4675 0 CHG=1
M  V30 2 C 1.3213 -0.3724 1.0731 0
M  V30 3 C -0.5493 0.3787 -0.1847 0
M  V30 4 N 0.8672 -1.6465 1.0109 0
M  V30 5 C 2.6265 -0.0856 1.7607 0
M  V30 6 C -1.0639 -0.9462 -0.226 0
M  V30 7 C -1.2699 1.5544 -0.8141 0
M  V30 8 C -0.2899 -1.9671 0.3803 0
M  V30 9 C 3.8247 -0.3763 0.848 0
M  V30 10 C -2.3652 -1.2751 -0.937 0
M  V30 11 C -2.3021 2.1781 0.1384 0
M  V30 12 N -0.6759 -3.3469 0.3446 0
M  V30 13 C 3.9125 0.5965 -0.3274 0
M  V30 14 C -2.1074 -1.7171 -2.3753 0
M  V30 15 C -1.6501 2.8982 1.3182 0
M  V30 16 H 0.9991 1.5986 0.5047 0
M  V30 17 H 2.6589 0.9697 2.1086 0
M  V30 18 H 2.702 -0.7285 2.6642 0
M  V30 19 H -1.7682 1.2506 -1.7571 0
M  V30 20 H -0.5332 2.3306 -1.116 0
M  V30 21 H 3.7665 -1.4182 0.464 0
M  V30 22 H 4.756 -0.2884 1.448 0
M  V30 23 H -2.9225 -2.0644 -0.3925 0
M  V30 24 H -3.0588 -0.4122 -0.9459 0
M  V30 25 H -2.9948 1.4011 0.5257 0
M  V30 26 H -2.9074 2.9158 -0.4313 0
M  V30 27 H -1.4821 -3.703 -0.2109 0
M  V30 28 H -0.0953 -4.055 0.8463 0
M  V30 29 H 3.0413 0.4707 -1.0042 0
M  V30 30 H 3.9464 1.6447 0.0387 0
M  V30 31 H 4.8371 0.3935 -0.9074 0
M  V30 32 H -1.4651 -2.6221 -2.3985 0
M  V30 33 H -3.0726 -1.9548 -2.8697 0
M  V30 34 H -1.607 -0.9063 -2.9454 0
M  V30 35 H -0.9298 3.6627 0.9571 0
M  V30 36 H -1.1234 2.1739 1.974 0
M  V30 37 H -2.4332 3.4063 1.9196 0
M  V30 END ATOM
M  V30 BEGIN BOND
M  V30 1 2 1 2
M  V30 2 1 1 3
M  V30 3 1 2 4
M  V30 4 1 2 5
M  V30 5 2 3 6
M  V30 6 1 3 7
M  V30 7 2 4 8
M  V30 8 1 5 9
M  V30 9 1 6 10
M  V30 10 1 7 11
M  V30 11 1 8 12
M  V30 12 1 9 13
M  V30 13 1 10 14
M  V30 14 1 11 15
M  V30 15 1 6 8
M  V30 16 1 1 16
M  V30 17 1 5 17
M  V30 18 1 5 18
M  V30 19 1 7 19
M  V30 20 1 7 20
M  V30 21 1 9 21
M  V30 22 1 9 22
M  V30 23 1 10 23
M  V30 24 1 10 24
M  V30 25 1 11 25
M  V30 26 1 11 26
M  V30 27 1 12 27
M  V30 28 1 12 28
M  V30 29 1 13 29
M  V30 30 1 13 30
M  V30 31 1 13 31
M  V30 32 1 14 32
M  V30 33 1 14 33
M  V30 34 1 14 34
M  V30 35 1 15 35
M  V30 36 1 15 36
M  V30 37 1 15 37
M  V30 END BOND
M  V30 END CTAB
M  END
>  <Structure No>
5594

>  <LogS>
-2.5132

>  <MMFF94 Energy>
-37.251

$$$$
Compound 5595
Actelion Java MolfileCreator 2.0

  0  0  0  0  0  0              0 V3000
M  V30 BEGIN CTAB
M  V30 COUNTS 35 36 0 0 0
M  V30 BEGIN ATOM
M  V30 1 F -6.8361 -2.3561 -0.2435 0
M  V30 2 C -5.7859 -1.5007 -0.1853 0
M  V30 3 C -5.9759 -0.1919 0.266 0
M  V30 4 C -4.514 -1.9279 -0.5797 0
M  V30 5 C -4.8961 0.6937 0.3157 0
M  V30 6 C -3.4177 -1.0538 -0.5115 0
M  V30 7 F -5.0857 1.9693 0.7347 0
M  V30 8 C -3.6225 0.2695 -0.077 0
M  V30 9 N -2.1246 -1.51 -0.9443 0
M  V30 10 C -0.8833 -1.0562 -0.385 0
M  V30 11 O -0.8683 -0.429 0.7086 0
M  V30 12 N 0.3493 -1.3743 -1.0438 0
M  V30 13 N 1.5886 -0.9055 -0.573 0
M  V30 14 C 1.914 0.3547 -0.4972 0
M  V30 15 C 3.2464 0.7199 0.0362 0
M  V30 16 C 1.0077 1.4361 -1.0308 0
M  V30 17 N 3.986 1.6233 -0.6667 0
M  V30 18 C 3.8063 0.1189 1.1966 0
M  V30 19 C 5.2516 1.9645 -0.3149 0
M  V30 20 C 3.0472 -0.7863 2.0913 0
M  V30 21 C 5.1267 0.4484 1.5457 0
M  V30 22 C 5.8495 1.3712 0.7923 0
M  V30 23 O 1.7987 -0.6778 2.2122 0
M  V30 24 O 3.718 -1.7325 2.8573 0 CHG=-1
M  V30 25 H -6.9612 0.1384 0.569 0
M  V30 26 H -4.3784 -2.9435 -0.9298 0
M  V30 27 H -2.8078 0.9812 -0.0657 0
M  V30 28 H -2.0851 -2.2672 -1.6634 0
M  V30 29 H 0.3491 -2.1439 -1.749 0
M  V30 30 H 1.582 2.3476 -1.2968 0
M  V30 31 H 0.262 1.7151 -0.2588 0
M  V30 32 H 0.4827 1.0931 -1.9468 0
M  V30 33 H 5.7977 2.6884 -0.9049 0
M  V30 34 H 5.5918 0.0145 2.4225 0
M  V30 35 H 6.8615 1.6336 1.0729 0
M  V30 END ATOM
M  V30 BEGIN BOND
M  V30 1 1 1 2
M  V30 2 2 2 3
M  V30 3 1 2 4
M  V30 4 1 3 5
M  V30 5 2 4 6
M  V30 6 1 5 7
M  V30 7 2 5 8
M  V30 8 1 6 9
M  V30 9 1 9 10
M  V30 10 2 10 11
M  V30 11 1 10 12
M  V30 12 1 12 13
M  V30 13 2 13 14
M  V30 14 1 14 15
M  V30 15 1 14 16
M  V30 16 2 15 17
M  V30 17 1 15 18
M  V30 18 1 17 19
M  V30 19 1 18 20
M  V30 20 2 18 21
M  V30 21 2 19 22
M  V30 22 2 20 23
M  V30 23 1 20 24
M  V30 24 1 6 8
M  V30 25 1 21 22
M  V30 26 1 3 25
M  V30 27 1 4 26
M  V30 28 1 8 27
M  V30 29 1 9 28
M  V30 30 1 12 29
M  V30 31 1 16 30
M  V30 32 1 16 31
M  V30 33 1 16 32
M  V30 34 1 19 33
M  V30 35 1 21 34
M  V30 36 1 22 35
M  V30 END BOND
M  V30 END CTAB
M  END
>  <Structure No>
5595

>  <LogS>
-3.7248

>  <MMFF94 Energy>
37.069

$$$$
Compound 5596
Actelion Java MolfileCreator 2.0

  0  0  0  0  0  0              0 V3000
M  V30 BEGIN CTAB
M  V30 COUNTS 28 30 0 0 0
M  V30 BEGIN ATOM
M  V30 1 O 2.4562 -2.9479 -0.7363 0
M  V30 2 C 1.8158 -1.9936 -0.2231 0
M  V30 3 O 0.5109 -2.0877 0.2446 0
M  V30 4 C 2.3037 -0.6523 -0.0311 0
M  V30 5 C 0.0805 -0.8248 0.7689 0 CFG=1
M  V30 6 C 1.2842 0.06 0.555 0
M  V30 7 C 3.5351 -0.0739 -0.3328 0
M  V30 8 C -1.1639 -0.3496 0.0344 0
M  V30 9 C 1.4518 1.4062 0.8869 0
M  V30 10 C 3.7204 1.2821 -0.0145 0
M  V30 11 C -2.4692 -0.5099 0.5814 0
M  V30 12 C -1.0327 0.2427 -1.2402 0
M  V30 13 C 2.6828 2.0195 0.5939 0
M  V30 14 C -2.7343 -1.2488 1.8378 0
M  V30 15 C -3.5734 0.0239 -0.1075 0
M  V30 16 C -2.1452 0.7436 -1.9157 0
M  V30 17 O -2.0638 -2.2711 2.14 0
M  V30 18 O -3.7804 -0.8592 2.6663 0 CHG=-1
M  V30 19 C -3.4106 0.6488 -1.3434 0
M  V30 20 H -0.0774 -0.9 1.8639 0
M  V30 21 H 4.3252 -0.6503 -0.7962 0
M  V30 22 H 0.6518 1.9653 1.3547 0
M  V30 23 H 4.6646 1.7626 -0.2354 0
M  V30 24 H -0.0626 0.3328 -1.7124 0
M  V30 25 H 2.8352 3.0627 0.8378 0
M  V30 26 H -4.574 -0.0715 0.2968 0
M  V30 27 H -2.0246 1.2105 -2.8848 0
M  V30 28 H -4.2717 1.0423 -1.8683 0
M  V30 END ATOM
M  V30 BEGIN BOND
M  V30 1 2 1 2
M  V30 2 1 2 3
M  V30 3 1 2 4
M  V30 4 1 3 5
M  V30 5 2 4 6
M  V30 6 1 4 7
M  V30 7 1 5 8
M  V30 8 1 6 9
M  V30 9 2 7 10
M  V30 10 2 8 11
M  V30 11 1 8 12
M  V30 12 2 9 13
M  V30 13 1 11 14
M  V30 14 1 11 15
M  V30 15 2 12 16
M  V30 16 2 14 17
M  V30 17 1 14 18
M  V30 18 2 15 19
M  V30 19 1 5 6
M  V30 20 1 10 13
M  V30 21 1 16 19
M  V30 22 1 5 20
M  V30 23 1 7 21
M  V30 24 1 9 22
M  V30 25 1 10 23
M  V30 26 1 12 24
M  V30 27 1 13 25
M  V30 28 1 15 26
M  V30 29 1 16 27
M  V30 30 1 19 28
M  V30 END BOND
M  V30 BEGIN COLLECTION
M  V30 MDLV30/STEABS ATOMS=(1 5)
M  V30 END COLLECTION
M  V30 END CTAB
M  END
>  <Structure No>
5596

>  <LogS>
-3.1042

>  <MMFF94 Energy>
59.902

$$$$
Compound 5597
Actelion Java MolfileCreator 2.0

  0  0  0  0  0  0              0 V3000
M  V30 BEGIN CTAB
M  V30 COUNTS 55 55 0 0 0
M  V30 BEGIN ATOM
M  V30 1 O 1.1003 2.4377 2.1229 0
M  V30 2 C 0.6988 2.7962 0.9833 0
M  V30 3 N -0.693 3.0954 0.7984 0
M  V30 4 C 1.6917 2.8594 -0.1465 0
M  V30 5 C -1.275 3.4233 -0.5042 0
M  V30 6 C 1.7161 1.546 -0.9597 0
M  V30 7 C -2.8141 3.4251 -0.4603 0
M  V30 8 C 3.1477 1.0495 -1.2307 0
M  V30 9 C -3.4308 2.0247 -0.6311 0
M  V30 10 C 3.8139 0.4438 0.0258 0
M  V30 11 C -3.2976 1.1486 0.6266 0
M  V30 12 C 3.8666 -1.0934 0.0221 0
M  V30 13 C -3.9281 -0.2429 0.4321 0
M  V30 14 C 2.4749 -1.742 -0.0208 0
M  V30 15 C -2.9957 -1.2203 -0.307 0
M  V30 16 C 2.5461 -3.2348 0.3345 0
M  V30 17 C -1.9857 -1.8883 0.6406 0
M  V30 18 C 1.2446 -3.9951 0.0236 0
M  V30 19 C -0.8975 -2.6216 -0.15 0
M  V30 20 C 0.0104 -3.4485 0.7736 0
M  V30 21 H -1.3045 3.0783 1.6463 0
M  V30 22 H 2.6927 3.0835 0.2834 0
M  V30 23 H 1.4522 3.7127 -0.8159 0
M  V30 24 H -0.9237 4.4346 -0.8022 0
M  V30 25 H -0.9266 2.7007 -1.2716 0
M  V30 26 H 1.132 0.7457 -0.4566 0
M  V30 27 H 1.2211 1.7267 -1.9385 0
M  V30 28 H -3.1847 3.9067 0.4709 0
M  V30 29 H -3.173 4.0509 -1.3066 0
M  V30 30 H 3.1275 0.3065 -2.0574 0
M  V30 31 H 3.7594 1.9026 -1.5991 0
M  V30 32 H -2.9723 1.5227 -1.5091 0
M  V30 33 H -4.5124 2.1535 -0.8555 0
M  V30 34 H 4.8613 0.8133 0.0778 0
M  V30 35 H 3.3134 0.7906 0.9564 0
M  V30 36 H -3.8155 1.6572 1.469 0
M  V30 37 H -2.2321 1.0331 0.9055 0
M  V30 38 H 4.4664 -1.4434 -0.8464 0
M  V30 39 H 4.3942 -1.4159 0.9468 0
M  V30 40 H -4.88 -0.1445 -0.1346 0
M  V30 41 H -4.1949 -0.666 1.4256 0
M  V30 42 H 2.055 -1.6248 -1.0427 0
M  V30 43 H 1.8079 -1.2306 0.706 0
M  V30 44 H -3.6153 -2.0167 -0.7746 0
M  V30 45 H -2.4623 -0.6956 -1.1283 0
M  V30 46 H 2.789 -3.346 1.4143 0
M  V30 47 H 3.3663 -3.7116 -0.2459 0
M  V30 48 H -1.4999 -1.1275 1.2888 0
M  V30 49 H -2.5257 -2.6077 1.2949 0
M  V30 50 H 1.3982 -5.0539 0.3268 0
M  V30 51 H 1.0739 -4.0065 -1.0756 0
M  V30 52 H -0.2968 -1.8693 -0.7036 0
M  V30 53 H -1.3692 -3.3027 -0.8926 0
M  V30 54 H 0.3206 -2.847 1.6563 0
M  V30 55 H -0.5822 -4.3056 1.1627 0
M  V30 END ATOM
M  V30 BEGIN BOND
M  V30 1 2 1 2
M  V30 2 1 2 3
M  V30 3 1 2 4
M  V30 4 1 3 5
M  V30 5 1 4 6
M  V30 6 1 5 7
M  V30 7 1 6 8
M  V30 8 1 7 9
M  V30 9 1 8 10
M  V30 10 1 9 11
M  V30 11 1 10 12
M  V30 12 1 11 13
M  V30 13 1 12 14
M  V30 14 1 13 15
M  V30 15 1 14 16
M  V30 16 1 15 17
M  V30 17 1 16 18
M  V30 18 1 17 19
M  V30 19 1 18 20
M  V30 20 1 19 20
M  V30 21 1 3 21
M  V30 22 1 4 22
M  V30 23 1 4 23
M  V30 24 1 5 24
M  V30 25 1 5 25
M  V30 26 1 6 26
M  V30 27 1 6 27
M  V30 28 1 7 28
M  V30 29 1 7 29
M  V30 30 1 8 30
M  V30 31 1 8 31
M  V30 32 1 9 32
M  V30 33 1 9 33
M  V30 34 1 10 34
M  V30 35 1 10 35
M  V30 36 1 11 36
M  V30 37 1 11 37
M  V30 38 1 12 38
M  V30 39 1 12 39
M  V30 40 1 13 40
M  V30 41 1 13 41
M  V30 42 1 14 42
M  V30 43 1 14 43
M  V30 44 1 15 44
M  V30 45 1 15 45
M  V30 46 1 16 46
M  V30 47 1 16 47
M  V30 48 1 17 48
M  V30 49 1 17 49
M  V30 50 1 18 50
M  V30 51 1 18 51
M  V30 52 1 19 52
M  V30 53 1 19 53
M  V30 54 1 20 54
M  V30 55 1 20 55
M  V30 END BOND
M  V30 END CTAB
M  END
>  <Structure No>
5597

>  <LogS>
-2.8474

>  <MMFF94 Energy>
-13.277

$$$$
Compound 5598
Actelion Java MolfileCreator 2.0

  0  0  0  0  0  0              0 V3000
M  V30 BEGIN CTAB
M  V30 COUNTS 53 55 0 0 0
M  V30 BEGIN ATOM
M  V30 1 Cl -7.0376 2.8267 5.7405 0
M  V30 2 C -6.2079 2.3705 4.2635 0
M  V30 3 C -6.5261 3.0064 3.0561 0
M  V30 4 C -5.2253 1.3712 4.2944 0
M  V30 5 C -5.8598 2.6416 1.8808 0
M  V30 6 C -4.5515 1.009 3.1225 0
M  V30 7 N -6.1611 3.2386 0.6981 0
M  V30 8 C -4.865 1.6433 1.9159 0
M  V30 9 C -5.5154 2.8928 -0.4475 0
M  V30 10 N -4.2155 1.3121 0.7699 0
M  V30 11 C -4.5095 1.9229 -0.4114 0
M  V30 12 O -3.8379 1.575 -1.5888 0
M  V30 13 C -2.5564 1.0061 -1.6323 0
M  V30 14 C -2.239 0.1381 -2.682 0
M  V30 15 C -1.5739 1.3145 -0.6765 0
M  V30 16 C -0.9658 -0.4343 -2.7706 0
M  V30 17 C -0.2987 0.7514 -0.7709 0
M  V30 18 C 0.0214 -0.1193 -1.8184 0
M  V30 19 O 1.3251 -0.64 -1.8665 0
M  V30 20 C 1.8567 -1.4805 -2.8907 0 CFG=2
M  V30 21 C 3.1177 -2.1085 -2.3743 0
M  V30 22 C 2.133 -0.6705 -4.1642 0
M  V30 23 O 4.2024 -1.4634 -2.3939 0
M  V30 24 O 3.0647 -3.3935 -1.8182 0
M  V30 25 C 4.1762 -4.0126 -1.1706 0
M  V30 26 C 4.2581 -3.5942 0.2968 0
M  V30 27 O 4.2643 -2.1802 0.4068 0
M  V30 28 N 4.4835 -1.5687 1.6204 0
M  V30 29 C 4.3801 -0.2835 1.7632 0
M  V30 30 C 4.6668 0.3187 3.1041 0
M  V30 31 C 3.9954 0.5874 0.5977 0
M  V30 32 H -7.2812 3.7829 3.0357 0
M  V30 33 H -4.9819 0.8784 5.226 0
M  V30 34 H -3.7919 0.2371 3.1536 0
M  V30 35 H -5.7725 3.3806 -1.3778 0
M  V30 36 H -2.9875 -0.1041 -3.4251 0
M  V30 37 H -1.7808 2.0128 0.1245 0
M  V30 38 H -0.7669 -1.1186 -3.5837 0
M  V30 39 H 0.4508 1.0044 -0.0314 0
M  V30 40 H 1.1404 -2.299 -3.1211 0
M  V30 41 H 1.1885 -0.2816 -4.5974 0
M  V30 42 H 2.6217 -1.3136 -4.9269 0
M  V30 43 H 2.7924 0.1945 -3.9397 0
M  V30 44 H 5.1242 -3.7685 -1.6972 0
M  V30 45 H 4.0419 -5.1137 -1.2154 0
M  V30 46 H 5.1879 -4.0066 0.7428 0
M  V30 47 H 3.3845 -3.9988 0.8507 0
M  V30 48 H 5.7467 0.2009 3.3368 0
M  V30 49 H 4.4157 1.3992 3.1271 0
M  V30 50 H 4.0676 -0.1968 3.8829 0
M  V30 51 H 2.9923 0.2917 0.2276 0
M  V30 52 H 3.9648 1.6609 0.8801 0
M  V30 53 H 4.7364 0.4641 -0.2202 0
M  V30 END ATOM
M  V30 BEGIN BOND
M  V30 1 1 1 2
M  V30 2 2 2 3
M  V30 3 1 2 4
M  V30 4 1 3 5
M  V30 5 2 4 6
M  V30 6 2 5 7
M  V30 7 1 5 8
M  V30 8 1 7 9
M  V30 9 2 8 10
M  V30 10 2 9 11
M  V30 11 1 11 12
M  V30 12 1 12 13
M  V30 13 2 13 14
M  V30 14 1 13 15
M  V30 15 1 14 16
M  V30 16 2 15 17
M  V30 17 2 16 18
M  V30 18 1 18 19
M  V30 19 1 19 20
M  V30 20 1 20 21
M  V30 21 1 20 22
M  V30 22 2 21 23
M  V30 23 1 21 24
M  V30 24 1 24 25
M  V30 25 1 25 26
M  V30 26 1 26 27
M  V30 27 1 27 28
M  V30 28 2 28 29
M  V30 29 1 29 30
M  V30 30 1 29 31
M  V30 31 1 6 8
M  V30 32 1 10 11
M  V30 33 1 17 18
M  V30 34 1 3 32
M  V30 35 1 4 33
M  V30 36 1 6 34
M  V30 37 1 9 35
M  V30 38 1 14 36
M  V30 39 1 15 37
M  V30 40 1 16 38
M  V30 41 1 17 39
M  V30 42 1 20 40
M  V30 43 1 22 41
M  V30 44 1 22 42
M  V30 45 1 22 43
M  V30 46 1 25 44
M  V30 47 1 25 45
M  V30 48 1 26 46
M  V30 49 1 26 47
M  V30 50 1 30 48
M  V30 51 1 30 49
M  V30 52 1 30 50
M  V30 53 1 31 51
M  V30 54 1 31 52
M  V30 55 1 31 53
M  V30 END BOND
M  V30 BEGIN COLLECTION
M  V30 MDLV30/STEABS ATOMS=(1 20)
M  V30 END COLLECTION
M  V30 END CTAB
M  END
>  <Structure No>
5598

>  <LogS>
-5.8479

>  <MMFF94 Energy>
140.17

$$$$
Compound 5599
Actelion Java MolfileCreator 2.0

  0  0  0  0  0  0              0 V3000
M  V30 BEGIN CTAB
M  V30 COUNTS 58 60 0 0 0
M  V30 BEGIN ATOM
M  V30 1 O -6.2177 -0.4772 -0.159 0
M  V30 2 C -5.2708 0.3563 -0.1588 0
M  V30 3 O -5.4277 1.6203 -0.752 0
M  V30 4 C -3.9786 0.0031 0.4696 0
M  V30 5 C -6.6099 2.1193 -1.3953 0
M  V30 6 C -3.7725 -1.2749 1.0209 0
M  V30 7 C -2.9348 0.9438 0.5207 0
M  V30 8 C -6.2903 3.5376 -1.8928 0
M  V30 9 C -7.7798 2.1941 -0.3953 0
M  V30 10 C -6.9839 1.2409 -2.6052 0
M  V30 11 C -2.5482 -1.6036 1.6107 0
M  V30 12 C -1.7129 0.6149 1.1143 0
M  V30 13 C -1.5131 -0.6582 1.6679 0
M  V30 14 C -0.1881 -1.0085 2.2802 0
M  V30 15 O 0.7865 -1.1294 1.2571 0
M  V30 16 N 2.0963 -1.4079 1.5731 0
M  V30 17 C 2.9917 -1.4891 0.6444 0
M  V30 18 C 4.4003 -1.775 0.971 0
M  V30 19 C 5.4858 -1.7471 0.1089 0
M  V30 20 C 4.9392 -2.2259 2.1727 0
M  V30 21 O 5.4991 -1.3594 -1.238 0
M  V30 22 N 6.574 -2.1892 0.7647 0
M  V30 23 N 6.2589 -2.4642 2.0204 0
M  V30 24 C 4.2065 -2.4673 3.4534 0
M  V30 25 C 4.8117 -0.2538 -1.7584 0
M  V30 26 C 7.9287 -2.2609 0.2336 0
M  V30 27 C 4.5019 0.8697 -0.9681 0
M  V30 28 C 4.4564 -0.2581 -3.113 0
M  V30 29 C 3.817 1.9541 -1.5252 0
M  V30 30 C 3.7725 0.8286 -3.6678 0
M  V30 31 C 3.4498 1.9326 -2.8736 0
M  V30 32 H -4.5555 -2.0234 0.9931 0
M  V30 33 H -3.0605 1.9345 0.1022 0
M  V30 34 H -6.0087 4.1913 -1.0391 0
M  V30 35 H -7.1668 3.9872 -2.4088 0
M  V30 36 H -5.4362 3.5123 -2.6033 0
M  V30 37 H -8.6595 2.6906 -0.8594 0
M  V30 38 H -8.0978 1.1829 -0.0666 0
M  V30 39 H -7.4783 2.7746 0.5033 0
M  V30 40 H -7.3137 0.2308 -2.2865 0
M  V30 41 H -7.8176 1.7008 -3.1794 0
M  V30 42 H -6.1086 1.1272 -3.2799 0
M  V30 43 H -2.4097 -2.5961 2.0218 0
M  V30 44 H -0.9193 1.3522 1.1398 0
M  V30 45 H -0.2484 -1.9636 2.8454 0
M  V30 46 H 0.1159 -0.2086 2.9893 0
M  V30 47 H 2.7031 -1.3351 -0.3873 0
M  V30 48 H 3.7343 -1.5245 3.8 0
M  V30 49 H 3.4256 -3.2414 3.2995 0
M  V30 50 H 4.9107 -2.82 4.2362 0
M  V30 51 H 8.3777 -1.2452 0.2241 0
M  V30 52 H 7.9116 -2.6658 -0.8009 0
M  V30 53 H 8.5514 -2.9284 0.8666 0
M  V30 54 H 4.7963 0.9113 0.0723 0
M  V30 55 H 4.7028 -1.1099 -3.7341 0
M  V30 56 H 3.5758 2.8136 -0.9129 0
M  V30 57 H 3.4933 0.8151 -4.7132 0
M  V30 58 H 2.9204 2.7731 -3.3036 0
M  V30 END ATOM
M  V30 BEGIN BOND
M  V30 1 2 1 2
M  V30 2 1 2 3
M  V30 3 1 2 4
M  V30 4 1 3 5
M  V30 5 2 4 6
M  V30 6 1 4 7
M  V30 7 1 5 8
M  V30 8 1 5 9
M  V30 9 1 5 10
M  V30 10 1 6 11
M  V30 11 2 7 12
M  V30 12 2 11 13
M  V30 13 1 13 14
M  V30 14 1 14 15
M  V30 15 1 15 16
M  V30 16 2 16 17
M  V30 17 1 17 18
M  V30 18 2 18 19
M  V30 19 1 18 20
M  V30 20 1 19 21
M  V30 21 1 19 22
M  V30 22 2 20 23
M  V30 23 1 20 24
M  V30 24 1 21 25
M  V30 25 1 22 26
M  V30 26 2 25 27
M  V30 27 1 25 28
M  V30 28 1 27 29
M  V30 29 2 28 30
M  V30 30 2 29 31
M  V30 31 1 12 13
M  V30 32 1 22 23
M  V30 33 1 30 31
M  V30 34 1 6 32
M  V30 35 1 7 33
M  V30 36 1 8 34
M  V30 37 1 8 35
M  V30 38 1 8 36
M  V30 39 1 9 37
M  V30 40 1 9 38
M  V30 41 1 9 39
M  V30 42 1 10 40
M  V30 43 1 10 41
M  V30 44 1 10 42
M  V30 45 1 11 43
M  V30 46 1 12 44
M  V30 47 1 14 45
M  V30 48 1 14 46
M  V30 49 1 17 47
M  V30 50 1 24 48
M  V30 51 1 24 49
M  V30 52 1 24 50
M  V30 53 1 26 51
M  V30 54 1 26 52
M  V30 55 1 26 53
M  V30 56 1 27 54
M  V30 57 1 28 55
M  V30 58 1 29 56
M  V30 59 1 30 57
M  V30 60 1 31 58
M  V30 END BOND
M  V30 END CTAB
M  END
>  <Structure No>
5599

>  <LogS>
-7.4604

>  <MMFF94 Energy>
107.78

$$$$
Compound 5600
Actelion Java MolfileCreator 2.0

  0  0  0  0  0  0              0 V3000
M  V30 BEGIN CTAB
M  V30 COUNTS 43 43 0 0 0
M  V30 BEGIN ATOM
M  V30 1 S 1.5224 -0.4805 -1.6025 0
M  V30 2 C -0.0549 -0.5726 -0.7508 0
M  V30 3 C 2.4883 -0.7065 -0.0756 0
M  V30 4 N -0.6903 -1.7367 -0.5188 0
M  V30 5 N -0.7688 0.4827 -0.3074 0
M  V30 6 C 3.9413 -0.5979 -0.3917 0
M  V30 7 C -1.8121 -1.3302 0.1187 0
M  V30 8 N -1.8749 0.012 0.2386 0
M  V30 9 C -0.4187 1.8788 -0.3611 0
M  V30 10 O 4.5986 -1.6353 -0.679 0
M  V30 11 O 4.5456 0.6641 -0.417 0
M  V30 12 C -2.9331 -2.263 0.5297 0
M  V30 13 O 0.7966 2.2084 -0.4333 0
M  V30 14 N -1.4274 2.9122 -0.3212 0
M  V30 15 C 5.9313 0.8655 -0.6875 0
M  V30 16 C -3.9161 -2.4018 -0.6452 0
M  V30 17 C -3.6742 -1.6922 1.7558 0
M  V30 18 C -2.364 -3.6494 0.8923 0
M  V30 19 C -2.8247 2.6221 -0.6586 0
M  V30 20 C -1.0212 4.2908 -0.0313 0
M  V30 21 C 6.7768 0.4848 0.5223 0
M  V30 22 H 2.2694 -1.7046 0.3613 0
M  V30 23 H 2.2163 0.0745 0.6656 0
M  V30 24 H 6.0945 1.9406 -0.9124 0
M  V30 25 H 6.2422 0.2761 -1.5773 0
M  V30 26 H -4.7545 -3.0805 -0.3769 0
M  V30 27 H -3.4014 -2.8176 -1.5386 0
M  V30 28 H -4.3415 -1.4114 -0.9182 0
M  V30 29 H -4.1382 -0.7104 1.5173 0
M  V30 30 H -2.9705 -1.5505 2.6048 0
M  V30 31 H -4.4822 -2.3821 2.0824 0
M  V30 32 H -3.1763 -4.3329 1.2219 0
M  V30 33 H -1.6234 -3.5626 1.7169 0
M  V30 34 H -1.8611 -4.1132 0.0163 0
M  V30 35 H -3.3302 2.1431 0.2051 0
M  V30 36 H -3.3805 3.5495 -0.9118 0
M  V30 37 H -2.8724 1.9528 -1.5439 0
M  V30 38 H -0.341 4.6582 -0.8286 0
M  V30 39 H -0.4939 4.3272 0.9454 0
M  V30 40 H -1.8963 4.9723 0.0277 0
M  V30 41 H 6.4568 1.0732 1.4083 0
M  V30 42 H 7.8457 0.7011 0.3135 0
M  V30 43 H 6.6691 -0.597 0.7454 0
M  V30 END ATOM
M  V30 BEGIN BOND
M  V30 1 1 1 2
M  V30 2 1 1 3
M  V30 3 2 2 4
M  V30 4 1 2 5
M  V30 5 1 3 6
M  V30 6 1 4 7
M  V30 7 1 5 8
M  V30 8 1 5 9
M  V30 9 2 6 10
M  V30 10 1 6 11
M  V30 11 1 7 12
M  V30 12 2 9 13
M  V30 13 1 9 14
M  V30 14 1 11 15
M  V30 15 1 12 16
M  V30 16 1 12 17
M  V30 17 1 12 18
M  V30 18 1 14 19
M  V30 19 1 14 20
M  V30 20 1 15 21
M  V30 21 2 7 8
M  V30 22 1 3 22
M  V30 23 1 3 23
M  V30 24 1 15 24
M  V30 25 1 15 25
M  V30 26 1 16 26
M  V30 27 1 16 27
M  V30 28 1 16 28
M  V30 29 1 17 29
M  V30 30 1 17 30
M  V30 31 1 17 31
M  V30 32 1 18 32
M  V30 33 1 18 33
M  V30 34 1 18 34
M  V30 35 1 19 35
M  V30 36 1 19 36
M  V30 37 1 19 37
M  V30 38 1 20 38
M  V30 39 1 20 39
M  V30 40 1 20 40
M  V30 41 1 21 41
M  V30 42 1 21 42
M  V30 43 1 21 43
M  V30 END BOND
M  V30 END CTAB
M  END
>  <Structure No>
5600

>  <LogS>
-2.861

>  <MMFF94 Energy>
79.21

$$$$
Compound 5601
Actelion Java MolfileCreator 2.0

  0  0  0  0  0  0              0 V3000
M  V30 BEGIN CTAB
M  V30 COUNTS 42 43 0 0 0
M  V30 BEGIN ATOM
M  V30 1 Cl 4.1809 3.3759 -4.1004 0
M  V30 2 C 3.352 2.2769 -3.013 0
M  V30 3 C 1.9569 2.1909 -3.0336 0
M  V30 4 C 4.0855 1.4902 -2.1205 0
M  V30 5 C 1.2945 1.3161 -2.1668 0
M  V30 6 C 3.427 0.6159 -1.2505 0
M  V30 7 C 2.0244 0.512 -1.2717 0
M  V30 8 C 1.3314 -0.3983 -0.3327 0
M  V30 9 O 1.8946 -0.7216 0.7476 0
M  V30 10 N 0.0262 -0.9123 -0.6324 0
M  V30 11 N -0.8713 -1.2819 0.3868 0
M  V30 12 C -1.8883 -0.3078 0.7072 0
M  V30 13 C -1.0496 -2.724 0.6988 0
M  V30 14 O -3.1079 -0.6243 0.6698 0
M  V30 15 C -1.5213 1.0926 0.9968 0
M  V30 16 C -1.6464 -2.9109 2.1132 0
M  V30 17 C -1.9734 -3.3754 -0.3494 0
M  V30 18 C 0.3137 -3.4508 0.6708 0
M  V30 19 C -2.3002 2.1479 0.4926 0
M  V30 20 C -0.3941 1.3866 1.782 0
M  V30 21 C -1.9375 3.4748 0.7433 0
M  V30 22 C -0.0336 2.7148 2.0297 0
M  V30 23 C -0.8027 3.7584 1.5083 0
M  V30 24 H 1.3837 2.8066 -3.7156 0
M  V30 25 H 5.1657 1.5563 -2.0982 0
M  V30 26 H 0.2128 1.2916 -2.1818 0
M  V30 27 H 4.0146 0.0154 -0.5677 0
M  V30 28 H -0.3264 -0.8817 -1.6154 0
M  V30 29 H -1.6478 -3.9841 2.4017 0
M  V30 30 H -2.6972 -2.5604 2.1672 0
M  V30 31 H -1.0482 -2.3464 2.8592 0
M  V30 32 H -2.072 -4.4661 -0.1624 0
M  V30 33 H -2.9911 -2.9344 -0.3202 0
M  V30 34 H -1.5625 -3.2292 -1.3711 0
M  V30 35 H 0.9952 -3.027 1.438 0
M  V30 36 H 0.7943 -3.3653 -0.3261 0
M  V30 37 H 0.1895 -4.5346 0.8885 0
M  V30 38 H -3.1783 1.944 -0.1083 0
M  V30 39 H 0.1966 0.5902 2.2152 0
M  V30 40 H -2.5364 4.2844 0.3443 0
M  V30 41 H 0.8395 2.9356 2.6308 0
M  V30 42 H -0.5225 4.7868 1.7006 0
M  V30 END ATOM
M  V30 BEGIN BOND
M  V30 1 1 1 2
M  V30 2 2 2 3
M  V30 3 1 2 4
M  V30 4 1 3 5
M  V30 5 2 4 6
M  V30 6 2 5 7
M  V30 7 1 7 8
M  V30 8 2 8 9
M  V30 9 1 8 10
M  V30 10 1 10 11
M  V30 11 1 11 12
M  V30 12 1 11 13
M  V30 13 2 12 14
M  V30 14 1 12 15
M  V30 15 1 13 16
M  V30 16 1 13 17
M  V30 17 1 13 18
M  V30 18 2 15 19
M  V30 19 1 15 20
M  V30 20 1 19 21
M  V30 21 2 20 22
M  V30 22 2 21 23
M  V30 23 1 6 7
M  V30 24 1 22 23
M  V30 25 1 3 24
M  V30 26 1 4 25
M  V30 27 1 5 26
M  V30 28 1 6 27
M  V30 29 1 10 28
M  V30 30 1 16 29
M  V30 31 1 16 30
M  V30 32 1 16 31
M  V30 33 1 17 32
M  V30 34 1 17 33
M  V30 35 1 17 34
M  V30 36 1 18 35
M  V30 37 1 18 36
M  V30 38 1 18 37
M  V30 39 1 19 38
M  V30 40 1 20 39
M  V30 41 1 21 40
M  V30 42 1 22 41
M  V30 43 1 23 42
M  V30 END BOND
M  V30 END CTAB
M  END
>  <Structure No>
5601

>  <LogS>
-4.4404

>  <MMFF94 Energy>
106.66

$$$$
Compound 5602
Actelion Java MolfileCreator 2.0

  0  0  0  0  0  0              0 V3000
M  V30 BEGIN CTAB
M  V30 COUNTS 54 55 0 0 0
M  V30 BEGIN ATOM
M  V30 1 O -3.5653 -2.2172 -0.2373 0
M  V30 2 C -2.5093 -1.5326 -0.161 0
M  V30 3 N -1.2102 -2.1739 -0.0682 0
M  V30 4 C -2.6392 -0.0614 -0.1249 0
M  V30 5 N -0.1225 -1.3658 0.3198 0
M  V30 6 C -1.0547 -3.6581 -0.0834 0
M  V30 7 C -1.9325 0.7417 -1.0306 0
M  V30 8 C -3.484 0.5416 0.818 0
M  V30 9 C 0.8755 -0.9593 -0.6296 0
M  V30 10 C -1.7848 -4.2785 1.1287 0
M  V30 11 C -1.613 -4.2405 -1.4005 0
M  V30 12 C 0.4371 -4.0728 0.0156 0
M  V30 13 C -2.0393 2.1388 -0.9787 0
M  V30 14 C -3.5814 1.939 0.8962 0
M  V30 15 O 0.781 -1.3387 -1.8297 0
M  V30 16 C 1.9878 -0.0647 -0.2332 0
M  V30 17 C -2.8565 2.7338 -0.0052 0
M  V30 18 C -1.231 2.9883 -1.9155 0
M  V30 19 C -4.5027 2.5774 1.8948 0
M  V30 20 C 2.615 0.7456 -1.1955 0
M  V30 21 C 2.436 -0.0108 1.0983 0
M  V30 22 C 3.6589 1.6021 -0.8314 0
M  V30 23 C 3.4797 0.8466 1.4612 0
M  V30 24 C 4.1043 1.6521 0.4973 0
M  V30 25 C 5.2067 2.5976 0.8933 0
M  V30 26 C 4.6463 3.9823 1.2018 0
M  V30 27 H -0.1844 -0.8694 1.2369 0
M  V30 28 H -1.3148 0.2821 -1.7908 0
M  V30 29 H -4.0475 -0.076 1.5093 0
M  V30 30 H -2.8829 -4.1337 1.0762 0
M  V30 31 H -1.6043 -5.3747 1.1769 0
M  V30 32 H -1.4176 -3.8196 2.0732 0
M  V30 33 H -2.7141 -4.1243 -1.4756 0
M  V30 34 H -1.3945 -5.3289 -1.4712 0
M  V30 35 H -1.1458 -3.7305 -2.2723 0
M  V30 36 H 0.5383 -5.1794 0.0535 0
M  V30 37 H 1.0115 -3.7222 -0.8672 0
M  V30 38 H 0.904 -3.6625 0.9384 0
M  V30 39 H -2.9365 3.8137 0.0473 0
M  V30 40 H -0.2095 3.1231 -1.5015 0
M  V30 41 H -1.7007 3.9859 -2.0528 0
M  V30 42 H -1.1562 2.5041 -2.9124 0
M  V30 43 H -5.5077 2.706 1.4408 0
M  V30 44 H -4.1141 3.571 2.2052 0
M  V30 45 H -4.5948 1.946 2.8043 0
M  V30 46 H 2.2867 0.7294 -2.2279 0
M  V30 47 H 1.9959 -0.6412 1.8598 0
M  V30 48 H 4.1175 2.2295 -1.5856 0
M  V30 49 H 3.8035 0.8787 2.4946 0
M  V30 50 H 5.7406 2.2114 1.7894 0
M  V30 51 H 5.9513 2.6775 0.0719 0
M  V30 52 H 4.153 4.4065 0.3021 0
M  V30 53 H 3.9107 3.9237 2.0315 0
M  V30 54 H 5.4722 4.6586 1.5067 0
M  V30 END ATOM
M  V30 BEGIN BOND
M  V30 1 2 1 2
M  V30 2 1 2 3
M  V30 3 1 2 4
M  V30 4 1 3 5
M  V30 5 1 3 6
M  V30 6 2 4 7
M  V30 7 1 4 8
M  V30 8 1 5 9
M  V30 9 1 6 10
M  V30 10 1 6 11
M  V30 11 1 6 12
M  V30 12 1 7 13
M  V30 13 2 8 14
M  V30 14 2 9 15
M  V30 15 1 9 16
M  V30 16 2 13 17
M  V30 17 1 13 18
M  V30 18 1 14 19
M  V30 19 2 16 20
M  V30 20 1 16 21
M  V30 21 1 20 22
M  V30 22 2 21 23
M  V30 23 2 22 24
M  V30 24 1 24 25
M  V30 25 1 25 26
M  V30 26 1 14 17
M  V30 27 1 23 24
M  V30 28 1 5 27
M  V30 29 1 7 28
M  V30 30 1 8 29
M  V30 31 1 10 30
M  V30 32 1 10 31
M  V30 33 1 10 32
M  V30 34 1 11 33
M  V30 35 1 11 34
M  V30 36 1 11 35
M  V30 37 1 12 36
M  V30 38 1 12 37
M  V30 39 1 12 38
M  V30 40 1 17 39
M  V30 41 1 18 40
M  V30 42 1 18 41
M  V30 43 1 18 42
M  V30 44 1 19 43
M  V30 45 1 19 44
M  V30 46 1 19 45
M  V30 47 1 20 46
M  V30 48 1 21 47
M  V30 49 1 22 48
M  V30 50 1 23 49
M  V30 51 1 25 50
M  V30 52 1 25 51
M  V30 53 1 26 52
M  V30 54 1 26 53
M  V30 55 1 26 54
M  V30 END BOND
M  V30 END CTAB
M  END
>  <Structure No>
5602

>  <LogS>
-5.6281

>  <MMFF94 Energy>
112.9

$$$$
Compound 5603
Actelion Java MolfileCreator 2.0

  0  0  0  0  0  0              0 V3000
M  V30 BEGIN CTAB
M  V30 COUNTS 25 26 0 0 0
M  V30 BEGIN ATOM
M  V30 1 Cl 2.191 3.0347 0.0842 0
M  V30 2 C 2.4016 1.3245 -0.2708 0
M  V30 3 C 1.3447 0.4057 -0.1062 0
M  V30 4 C 3.6583 0.8786 -0.6977 0
M  V30 5 N 0.0427 0.8609 0.3026 0
M  V30 6 C 1.566 -0.9516 -0.4037 0
M  V30 7 C 3.8701 -0.4747 -0.9749 0
M  V30 8 C -0.8317 0.103 1.1504 0
M  V30 9 C 2.8228 -1.3879 -0.8304 0
M  V30 10 Cl 5.4468 -1.0249 -1.5118 0
M  V30 11 O -0.3817 -0.8491 1.8444 0
M  V30 12 C -2.2715 0.5143 1.2899 0 CFG=1
M  V30 13 C -3.2124 0.2027 0.1218 0 CFG=2
M  V30 14 C -3.2623 -0.6399 1.3918 0
M  V30 15 C -2.6371 -0.5012 -1.0747 0
M  V30 16 O -2.9503 -1.6948 -1.3258 0
M  V30 17 O -1.8147 0.1906 -1.9541 0 CHG=-1
M  V30 18 H 4.4712 1.5847 -0.8131 0
M  V30 19 H -0.2845 1.8008 -0.0154 0
M  V30 20 H 0.7606 -1.6707 -0.3291 0
M  V30 21 H 2.979 -2.4351 -1.0559 0
M  V30 22 H -2.5277 1.4067 1.8991 0
M  V30 23 H -4.0721 0.8925 -0.0128 0
M  V30 24 H -4.1377 -0.4261 2.0408 0
M  V30 25 H -2.8282 -1.6609 1.3157 0
M  V30 END ATOM
M  V30 BEGIN BOND
M  V30 1 1 1 2
M  V30 2 2 2 3
M  V30 3 1 2 4
M  V30 4 1 3 5
M  V30 5 1 3 6
M  V30 6 2 4 7
M  V30 7 1 5 8
M  V30 8 2 6 9
M  V30 9 1 7 10
M  V30 10 2 8 11
M  V30 11 1 8 12
M  V30 12 1 12 13
M  V30 13 1 12 14
M  V30 14 1 13 15
M  V30 15 2 15 16
M  V30 16 1 15 17
M  V30 17 1 7 9
M  V30 18 1 13 14
M  V30 19 1 4 18
M  V30 20 1 5 19
M  V30 21 1 6 20
M  V30 22 1 9 21
M  V30 23 1 12 22
M  V30 24 1 13 23
M  V30 25 1 14 24
M  V30 26 1 14 25
M  V30 END BOND
M  V30 BEGIN COLLECTION
M  V30 MDLV30/STEABS ATOMS=(2 12 13)
M  V30 END COLLECTION
M  V30 END CTAB
M  END
>  <Structure No>
5603

>  <LogS>
-3.8697

>  <MMFF94 Energy>
-1.7159

$$$$
Compound 5604
Actelion Java MolfileCreator 2.0

  0  0  0  0  0  0              0 V3000
M  V30 BEGIN CTAB
M  V30 COUNTS 34 36 0 0 0
M  V30 BEGIN ATOM
M  V30 1 Cl -6.9838 0.3278 -3.1177 0
M  V30 2 C -6.0543 0.4105 -1.6329 0
M  V30 3 C -4.6693 0.152 -1.6582 0
M  V30 4 C -6.698 0.7364 -0.4146 0
M  V30 5 C -3.9793 0.2314 -0.4522 0
M  V30 6 C -5.963 0.8059 0.7846 0
M  V30 7 O -2.7106 0.0362 -0.2194 0
M  V30 8 C -4.5965 0.5451 0.7205 0
M  V30 9 C -2.5542 0.2347 1.0801 0
M  V30 10 N -3.7062 0.5512 1.727 0
M  V30 11 O -1.3351 0.0995 1.7522 0
M  V30 12 C -0.0808 0.0134 1.1314 0
M  V30 13 C 0.9452 -0.6682 1.7946 0
M  V30 14 C 0.1889 0.6184 -0.1094 0
M  V30 15 C 2.2153 -0.7762 1.2204 0
M  V30 16 C 1.459 0.5117 -0.6834 0
M  V30 17 C 2.481 -0.1852 -0.0295 0
M  V30 18 O 3.7367 -0.2622 -0.6543 0
M  V30 19 C 4.8955 -0.8956 -0.1084 0 CFG=2
M  V30 20 C 5.4307 -0.0995 1.0467 0
M  V30 21 C 5.9597 -1.0047 -1.1959 0
M  V30 22 O 5.8925 -0.6874 2.0597 0
M  V30 23 O 5.4605 1.2885 0.9852 0 CHG=-1
M  V30 24 H -4.1577 -0.0992 -2.5781 0
M  V30 25 H -7.7623 0.9338 -0.4 0
M  V30 26 H -6.4437 1.0533 1.7223 0
M  V30 27 H 0.754 -1.1254 2.7573 0
M  V30 28 H -0.5649 1.1987 -0.6226 0
M  V30 29 H 2.979 -1.3193 1.7584 0
M  V30 30 H 1.6536 0.9825 -1.6387 0
M  V30 31 H 4.6374 -1.9266 0.2209 0
M  V30 32 H 6.8664 -1.5099 -0.7989 0
M  V30 33 H 5.5671 -1.6029 -2.0453 0
M  V30 34 H 6.2388 0.0037 -1.5706 0
M  V30 END ATOM
M  V30 BEGIN BOND
M  V30 1 1 1 2
M  V30 2 2 2 3
M  V30 3 1 2 4
M  V30 4 1 3 5
M  V30 5 2 4 6
M  V30 6 1 5 7
M  V30 7 2 5 8
M  V30 8 1 7 9
M  V30 9 1 8 10
M  V30 10 1 9 11
M  V30 11 1 11 12
M  V30 12 2 12 13
M  V30 13 1 12 14
M  V30 14 1 13 15
M  V30 15 2 14 16
M  V30 16 2 15 17
M  V30 17 1 17 18
M  V30 18 1 18 19
M  V30 19 1 19 20
M  V30 20 1 19 21
M  V30 21 2 20 22
M  V30 22 1 20 23
M  V30 23 1 6 8
M  V30 24 2 9 10
M  V30 25 1 16 17
M  V30 26 1 3 24
M  V30 27 1 4 25
M  V30 28 1 6 26
M  V30 29 1 13 27
M  V30 30 1 14 28
M  V30 31 1 15 29
M  V30 32 1 16 30
M  V30 33 1 19 31
M  V30 34 1 21 32
M  V30 35 1 21 33
M  V30 36 1 21 34
M  V30 END BOND
M  V30 BEGIN COLLECTION
M  V30 MDLV30/STEABS ATOMS=(1 19)
M  V30 END COLLECTION
M  V30 END CTAB
M  END
>  <Structure No>
5604

>  <LogS>
-3.092

>  <MMFF94 Energy>
82.284

$$$$
Compound 5605
Actelion Java MolfileCreator 2.0

  0  0  0  0  0  0              0 V3000
M  V30 BEGIN CTAB
M  V30 COUNTS 40 41 0 0 0
M  V30 BEGIN ATOM
M  V30 1 O -3.6995 2.492 -0.5623 0
M  V30 2 C -2.7707 1.6487 -0.4513 0
M  V30 3 N -1.4027 1.9932 -0.5119 0
M  V30 4 C -2.939 0.1633 -0.3207 0 CFG=1
M  V30 5 C -0.7385 0.7402 -0.464 0
M  V30 6 N -1.5387 -0.2735 -0.3399 0
M  V30 7 C -3.5948 -0.2327 1.0435 0
M  V30 8 C -3.6619 -0.4016 -1.5563 0
M  V30 9 C 0.7336 0.6192 -0.4398 0
M  V30 10 C -5.0763 0.1693 1.1563 0
M  V30 11 C -3.4488 -1.734 1.3511 0
M  V30 12 N 1.4345 1.6519 0.1035 0
M  V30 13 C 1.4321 -0.5338 -0.8855 0
M  V30 14 C 2.782 1.6216 0.2603 0
M  V30 15 C 0.7819 -1.6535 -1.6031 0
M  V30 16 C 2.8221 -0.5874 -0.6942 0
M  V30 17 C 3.5096 0.4962 -0.1355 0
M  V30 18 O -0.1693 -1.4415 -2.4005 0
M  V30 19 O 1.2657 -2.9483 -1.4568 0 CHG=-1
M  V30 20 C 4.9934 0.4286 0.0853 0
M  V30 21 O 5.24 -0.1456 1.3506 0
M  V30 22 C 6.6309 -0.2179 1.5688 0
M  V30 23 H -0.985 2.9427 -0.6308 0
M  V30 24 H -3.0488 0.3095 1.8487 0
M  V30 25 H -4.6889 0.0104 -1.6419 0
M  V30 26 H -3.7158 -1.5083 -1.512 0
M  V30 27 H -3.1088 -0.1285 -2.4812 0
M  V30 28 H -5.7008 -0.3919 0.4304 0
M  V30 29 H -5.4511 -0.0566 2.1775 0
M  V30 30 H -5.2116 1.2563 0.9913 0
M  V30 31 H -2.3834 -2.0438 1.3229 0
M  V30 32 H -3.8309 -1.9504 2.3719 0
M  V30 33 H -4.0245 -2.3496 0.6293 0
M  V30 34 H 3.2823 2.4709 0.7077 0
M  V30 35 H 3.3796 -1.4607 -1.0125 0
M  V30 36 H 5.419 1.4574 0.0274 0
M  V30 37 H 5.4543 -0.1826 -0.7245 0
M  V30 38 H 7.1244 -0.8675 0.8122 0
M  V30 39 H 6.809 -0.6701 2.5659 0
M  V30 40 H 7.0917 0.795 1.5722 0
M  V30 END ATOM
M  V30 BEGIN BOND
M  V30 1 2 1 2
M  V30 2 1 2 3
M  V30 3 1 2 4
M  V30 4 1 3 5
M  V30 5 1 4 6
M  V30 6 1 4 7
M  V30 7 1 4 8
M  V30 8 1 5 9
M  V30 9 1 7 10
M  V30 10 1 7 11
M  V30 11 2 9 12
M  V30 12 1 9 13
M  V30 13 1 12 14
M  V30 14 1 13 15
M  V30 15 2 13 16
M  V30 16 2 14 17
M  V30 17 2 15 18
M  V30 18 1 15 19
M  V30 19 1 17 20
M  V30 20 1 20 21
M  V30 21 1 21 22
M  V30 22 2 5 6
M  V30 23 1 16 17
M  V30 24 1 3 23
M  V30 25 1 7 24
M  V30 26 1 8 25
M  V30 27 1 8 26
M  V30 28 1 8 27
M  V30 29 1 10 28
M  V30 30 1 10 29
M  V30 31 1 10 30
M  V30 32 1 11 31
M  V30 33 1 11 32
M  V30 34 1 11 33
M  V30 35 1 14 34
M  V30 36 1 16 35
M  V30 37 1 20 36
M  V30 38 1 20 37
M  V30 39 1 22 38
M  V30 40 1 22 39
M  V30 41 1 22 40
M  V30 END BOND
M  V30 BEGIN COLLECTION
M  V30 MDLV30/STEABS ATOMS=(1 4)
M  V30 END COLLECTION
M  V30 END CTAB
M  END
>  <Structure No>
5605

>  <LogS>
-1.84

>  <MMFF94 Energy>
46.904

$$$$
Compound 5606
Actelion Java MolfileCreator 2.0

  0  0  0  0  0  0              0 V3000
M  V30 BEGIN CTAB
M  V30 COUNTS 41 43 0 0 0
M  V30 BEGIN ATOM
M  V30 1 Cl 6.5693 -0.9711 1.862 0
M  V30 2 C 5.0861 -0.4333 1.0957 0
M  V30 3 C 4.0042 -0.0176 1.8789 0
M  V30 4 C 4.9815 -0.4256 -0.299 0
M  V30 5 C 2.8206 0.4096 1.2695 0
M  V30 6 C 3.799 8.0E-4 -0.9113 0
M  V30 7 C 2.7144 0.4335 -0.1308 0
M  V30 8 C 1.4265 0.8547 -0.7853 0
M  V30 9 C 0.4968 -0.3611 -0.9746 0
M  V30 10 C -0.927 -0.001 -1.5053 0 CFG=2
M  V30 11 C -0.7437 0.6345 -2.8325 0
M  V30 12 C -1.7229 0.9431 -0.5802 0
M  V30 13 C -1.7469 -1.2992 -1.7348 0
M  V30 14 N -0.5999 1.1298 -3.8687 0
M  V30 15 C -2.7965 1.706 -1.098 0
M  V30 16 C -1.5094 0.9764 0.8188 0
M  V30 17 N -2.0355 -2.0049 -0.4858 0
M  V30 18 C -3.571 2.5179 -0.2653 0
M  V30 19 C -2.2883 1.7914 1.6449 0
M  V30 20 N -3.0662 -1.7495 0.2983 0
M  V30 21 C -1.3268 -3.0064 0.0607 0
M  V30 22 C -3.3126 2.5663 1.1034 0
M  V30 23 C -2.959 -2.6115 1.3279 0
M  V30 24 N -1.8806 -3.4185 1.217 0
M  V30 25 H 4.0777 -0.0286 2.9589 0
M  V30 26 H 5.8135 -0.7531 -0.909 0
M  V30 27 H 1.9865 0.7188 1.8875 0
M  V30 28 H 3.7274 -0.0079 -1.9918 0
M  V30 29 H 0.9375 1.6344 -0.165 0
M  V30 30 H 1.6478 1.3203 -1.7699 0
M  V30 31 H 0.4279 -0.9212 -0.0201 0
M  V30 32 H 0.9865 -1.0572 -1.6929 0
M  V30 33 H -2.7116 -1.0542 -2.2336 0
M  V30 34 H -1.1995 -1.9817 -2.4234 0
M  V30 35 H -3.0473 1.6685 -2.1501 0
M  V30 36 H -0.7509 0.3723 1.2917 0
M  V30 37 H -4.3808 3.1028 -0.6821 0
M  V30 38 H -2.1032 1.8129 2.7111 0
M  V30 39 H -0.4262 -3.4278 -0.3666 0
M  V30 40 H -3.9163 3.193 1.747 0
M  V30 41 H -3.6589 -2.6532 2.1514 0
M  V30 END ATOM
M  V30 BEGIN BOND
M  V30 1 1 1 2
M  V30 2 2 2 3
M  V30 3 1 2 4
M  V30 4 1 3 5
M  V30 5 2 4 6
M  V30 6 2 5 7
M  V30 7 1 7 8
M  V30 8 1 8 9
M  V30 9 1 9 10
M  V30 10 1 10 11
M  V30 11 1 10 12
M  V30 12 1 10 13
M  V30 13 3 11 14
M  V30 14 2 12 15
M  V30 15 1 12 16
M  V30 16 1 13 17
M  V30 17 1 15 18
M  V30 18 2 16 19
M  V30 19 1 17 20
M  V30 20 1 17 21
M  V30 21 2 18 22
M  V30 22 2 20 23
M  V30 23 2 21 24
M  V30 24 1 6 7
M  V30 25 1 19 22
M  V30 26 1 23 24
M  V30 27 1 3 25
M  V30 28 1 4 26
M  V30 29 1 5 27
M  V30 30 1 6 28
M  V30 31 1 8 29
M  V30 32 1 8 30
M  V30 33 1 9 31
M  V30 34 1 9 32
M  V30 35 1 13 33
M  V30 36 1 13 34
M  V30 37 1 15 35
M  V30 38 1 16 36
M  V30 39 1 18 37
M  V30 40 1 19 38
M  V30 41 1 21 39
M  V30 42 1 22 40
M  V30 43 1 23 41
M  V30 END BOND
M  V30 BEGIN COLLECTION
M  V30 MDLV30/STEABS ATOMS=(1 10)
M  V30 END COLLECTION
M  V30 END CTAB
M  END
>  <Structure No>
5606

>  <LogS>
-6.2264

>  <MMFF94 Energy>
52.285

$$$$
Compound 5607
Actelion Java MolfileCreator 2.0

  0  0  0  0  0  0              0 V3000
M  V30 BEGIN CTAB
M  V30 COUNTS 18 18 0 0 0
M  V30 BEGIN ATOM
M  V30 1 O 0.5538 2.6129 -0.3955 0
M  V30 2 C -0.1528 1.573 -0.3387 0
M  V30 3 O -1.4935 1.2214 -0.7643 0
M  V30 4 C 0.0293 0.1939 0.2067 0 CFG=1
M  V30 5 C -1.3105 -0.0914 -0.259 0 CFG=1
M  V30 6 C 1.1265 -0.5998 -0.5243 0
M  V30 7 C -2.313 -0.3938 0.8576 0
M  V30 8 C 2.52 -0.1912 -0.0537 0
M  V30 9 H 0.1483 0.1989 1.3139 0
M  V30 10 H -1.37 -0.8419 -1.0804 0
M  V30 11 H 0.9878 -1.6823 -0.312 0
M  V30 12 H 1.056 -0.4534 -1.6255 0
M  V30 13 H -3.3332 -0.4731 0.4272 0
M  V30 14 H -2.0551 -1.3588 1.343 0
M  V30 15 H -2.3123 0.4124 1.623 0
M  V30 16 H 3.2829 -0.8073 -0.5746 0
M  V30 17 H 2.6209 -0.3527 1.0406 0
M  V30 18 H 2.7112 0.8774 -0.286 0
M  V30 END ATOM
M  V30 BEGIN BOND
M  V30 1 2 1 2
M  V30 2 1 2 3
M  V30 3 1 2 4
M  V30 4 1 3 5
M  V30 5 1 4 6
M  V30 6 1 5 7
M  V30 7 1 6 8
M  V30 8 1 4 5
M  V30 9 1 4 9
M  V30 10 1 5 10
M  V30 11 1 6 11
M  V30 12 1 6 12
M  V30 13 1 7 13
M  V30 14 1 7 14
M  V30 15 1 7 15
M  V30 16 1 8 16
M  V30 17 1 8 17
M  V30 18 1 8 18
M  V30 END BOND
M  V30 BEGIN COLLECTION
M  V30 MDLV30/STEABS ATOMS=(2 4 5)
M  V30 END COLLECTION
M  V30 END CTAB
M  END
>  <Structure No>
5607

>  <LogS>
-0.6665

>  <MMFF94 Energy>
-4.5823

$$$$
Compound 5608
Actelion Java MolfileCreator 2.0

  0  0  0  0  0  0              0 V3000
M  V30 BEGIN CTAB
M  V30 COUNTS 29 30 0 0 0
M  V30 BEGIN ATOM
M  V30 1 O -1.2802 1.8407 -2.0009 0
M  V30 2 C -1.1841 1.038 -1.0316 0
M  V30 3 O -0.265 -0.0145 -1.0831 0
M  V30 4 C -2.0393 1.2079 0.163 0
M  V30 5 C 0.6237 -0.2109 -2.1768 0
M  V30 6 C -2.9984 2.2368 0.2211 0
M  V30 7 C -1.9012 0.3414 1.2629 0
M  V30 8 C 1.4898 -1.3961 -1.9015 0
M  V30 9 C -3.8007 2.3922 1.3559 0
M  V30 10 C -2.7059 0.5022 2.3952 0
M  V30 11 O 1.5008 -2.3698 -2.7 0
M  V30 12 N 2.3117 -1.4271 -0.7362 0
M  V30 13 C -3.6546 1.5262 2.4418 0
M  V30 14 C 3.2755 -2.3482 -0.1098 0
M  V30 15 C 2.6023 -0.5585 0.4181 0
M  V30 16 C 3.5822 -1.4801 1.0658 0
M  V30 17 H 0.0393 -0.3709 -3.1094 0
M  V30 18 H 1.2684 0.6851 -2.3025 0
M  V30 19 H -3.1292 2.92 -0.6084 0
M  V30 20 H -1.1715 -0.4583 1.2507 0
M  V30 21 H -4.5363 3.1854 1.3932 0
M  V30 22 H -2.5934 -0.1679 3.2376 0
M  V30 23 H -4.2761 1.6489 3.3194 0
M  V30 24 H 2.7821 -3.3027 0.1795 0
M  V30 25 H 4.1588 -2.5064 -0.7675 0
M  V30 26 H 3.0654 0.398 0.0889 0
M  V30 27 H 1.6905 -0.4 1.0364 0
M  V30 28 H 4.6223 -1.0877 1.0615 0
M  V30 29 H 3.2187 -1.9005 2.0286 0
M  V30 END ATOM
M  V30 BEGIN BOND
M  V30 1 2 1 2
M  V30 2 1 2 3
M  V30 3 1 2 4
M  V30 4 1 3 5
M  V30 5 2 4 6
M  V30 6 1 4 7
M  V30 7 1 5 8
M  V30 8 1 6 9
M  V30 9 2 7 10
M  V30 10 2 8 11
M  V30 11 1 8 12
M  V30 12 2 9 13
M  V30 13 1 12 14
M  V30 14 1 12 15
M  V30 15 1 14 16
M  V30 16 1 10 13
M  V30 17 1 15 16
M  V30 18 1 5 17
M  V30 19 1 5 18
M  V30 20 1 6 19
M  V30 21 1 7 20
M  V30 22 1 9 21
M  V30 23 1 10 22
M  V30 24 1 13 23
M  V30 25 1 14 24
M  V30 26 1 14 25
M  V30 27 1 15 26
M  V30 28 1 15 27
M  V30 29 1 16 28
M  V30 30 1 16 29
M  V30 END BOND
M  V30 END CTAB
M  END
>  <Structure No>
5608

>  <LogS>
-1.6085

>  <MMFF94 Energy>
45.27

$$$$
Compound 5609
Actelion Java MolfileCreator 2.0

  0  0  0  0  0  0              0 V3000
M  V30 BEGIN CTAB
M  V30 COUNTS 38 39 0 0 0
M  V30 BEGIN ATOM
M  V30 1 O 1.1174 0.8779 0.7182 0
M  V30 2 C 2.0445 0.484 -0.0427 0
M  V30 3 O 1.748 0.0441 -1.3395 0
M  V30 4 C 3.4455 0.4854 0.4321 0
M  V30 5 C 0.4209 -0.013 -1.8595 0
M  V30 6 C 4.4813 0.043 -0.4108 0
M  V30 7 C 3.7641 0.9265 1.7307 0
M  V30 8 C -0.3593 -1.1228 -1.2046 0
M  V30 9 C 5.8062 0.0426 0.0367 0
M  V30 10 C 5.0908 0.924 2.1728 0
M  V30 11 O 0.2472 -2.1905 -0.9139 0
M  V30 12 N -1.7748 -1.0098 -0.9306 0
M  V30 13 C 6.1108 0.4827 1.3269 0
M  V30 14 C -2.6107 -0.0597 -1.6822 0
M  V30 15 C -2.3531 -1.9208 0.0748 0
M  V30 16 C -2.8762 1.2012 -0.8517 0
M  V30 17 C -3.7229 -1.4862 0.6229 0
M  V30 18 C -4.01 1.0121 0.1619 0
M  V30 19 C -3.7106 -0.0659 1.2126 0
M  V30 20 H 0.4737 -0.2139 -2.9495 0
M  V30 21 H -0.0676 0.9722 -1.7123 0
M  V30 22 H 4.2696 -0.303 -1.4146 0
M  V30 23 H 2.99 1.2729 2.4042 0
M  V30 24 H 6.5976 -0.2993 -0.6176 0
M  V30 25 H 5.328 1.2647 3.1725 0
M  V30 26 H 7.1369 0.4815 1.6712 0
M  V30 27 H -3.5632 -0.5404 -1.9914 0
M  V30 28 H -2.1138 0.2264 -2.6336 0
M  V30 29 H -1.6565 -2.0005 0.9391 0
M  V30 30 H -2.4493 -2.9344 -0.3699 0
M  V30 31 H -1.9509 1.5204 -0.3247 0
M  V30 32 H -3.1656 2.0234 -1.5415 0
M  V30 33 H -3.9944 -2.1957 1.4352 0
M  V30 34 H -4.5099 -1.5929 -0.154 0
M  V30 35 H -4.9588 0.7766 -0.3686 0
M  V30 36 H -4.1646 1.9785 0.6894 0
M  V30 37 H -4.5052 -0.007 1.9883 0
M  V30 38 H -2.7439 0.1453 1.7208 0
M  V30 END ATOM
M  V30 BEGIN BOND
M  V30 1 2 1 2
M  V30 2 1 2 3
M  V30 3 1 2 4
M  V30 4 1 3 5
M  V30 5 2 4 6
M  V30 6 1 4 7
M  V30 7 1 5 8
M  V30 8 1 6 9
M  V30 9 2 7 10
M  V30 10 2 8 11
M  V30 11 1 8 12
M  V30 12 2 9 13
M  V30 13 1 12 14
M  V30 14 1 12 15
M  V30 15 1 14 16
M  V30 16 1 15 17
M  V30 17 1 16 18
M  V30 18 1 17 19
M  V30 19 1 10 13
M  V30 20 1 18 19
M  V30 21 1 5 20
M  V30 22 1 5 21
M  V30 23 1 6 22
M  V30 24 1 7 23
M  V30 25 1 9 24
M  V30 26 1 10 25
M  V30 27 1 13 26
M  V30 28 1 14 27
M  V30 29 1 14 28
M  V30 30 1 15 29
M  V30 31 1 15 30
M  V30 32 1 16 31
M  V30 33 1 16 32
M  V30 34 1 17 33
M  V30 35 1 17 34
M  V30 36 1 18 35
M  V30 37 1 18 36
M  V30 38 1 19 37
M  V30 39 1 19 38
M  V30 END BOND
M  V30 END CTAB
M  END
>  <Structure No>
5609

>  <LogS>
-2.5421

>  <MMFF94 Energy>
45.507

$$$$
Compound 5610
Actelion Java MolfileCreator 2.0

  0  0  0  0  0  0              0 V3000
M  V30 BEGIN CTAB
M  V30 COUNTS 36 37 0 0 0
M  V30 BEGIN ATOM
M  V30 1 O 1.3597 -1.2796 0.4797 0
M  V30 2 C 2.1328 -0.2829 0.5282 0
M  V30 3 O 1.6209 0.9883 0.8196 0
M  V30 4 C 3.5805 -0.4538 0.278 0
M  V30 5 C 0.2349 1.2402 1.0455 0
M  V30 6 C 4.115 -1.7232 -0.0127 0
M  V30 7 C 4.4451 0.655 0.3262 0
M  V30 8 C -0.5479 1.1282 -0.2354 0
M  V30 9 C 5.4846 -1.8766 -0.2492 0
M  V30 10 C 5.8139 0.4956 0.0888 0
M  V30 11 O 0.0204 1.4245 -1.3221 0
M  V30 12 N -1.938 0.7402 -0.2372 0
M  V30 13 C 6.3332 -0.7685 -0.1984 0
M  V30 14 C -2.7379 0.811 0.9972 0
M  V30 15 C -2.579 0.3328 -1.4968 0
M  V30 16 C -4.2348 0.9105 0.6816 0
M  V30 17 C -3.6487 -0.7278 -1.2228 0
M  V30 18 C -4.7243 -0.2409 -0.2259 0
M  V30 19 O -5.1427 -1.3273 0.5605 0
M  V30 20 H 0.1202 2.2708 1.4406 0
M  V30 21 H -0.1474 0.5301 1.8094 0
M  V30 22 H 3.4763 -2.5964 -0.0576 0
M  V30 23 H 4.0657 1.6449 0.5465 0
M  V30 24 H 5.8881 -2.8558 -0.4721 0
M  V30 25 H 6.4726 1.3537 0.1276 0
M  V30 26 H 7.3929 -0.8895 -0.3819 0
M  V30 27 H -2.4536 1.7122 1.5829 0
M  V30 28 H -2.5436 -0.091 1.6163 0
M  V30 29 H -1.8294 -0.1043 -2.1921 0
M  V30 30 H -3.0355 1.2201 -1.9863 0
M  V30 31 H -4.4186 1.8788 0.1657 0
M  V30 32 H -4.8151 0.9315 1.6297 0
M  V30 33 H -3.1392 -1.6296 -0.8156 0
M  V30 34 H -4.1313 -1.0236 -2.1795 0
M  V30 35 H -5.5904 0.1378 -0.8191 0
M  V30 36 H -6.0324 -1.0898 0.9324 0
M  V30 END ATOM
M  V30 BEGIN BOND
M  V30 1 2 1 2
M  V30 2 1 2 3
M  V30 3 1 2 4
M  V30 4 1 3 5
M  V30 5 2 4 6
M  V30 6 1 4 7
M  V30 7 1 5 8
M  V30 8 1 6 9
M  V30 9 2 7 10
M  V30 10 2 8 11
M  V30 11 1 8 12
M  V30 12 2 9 13
M  V30 13 1 12 14
M  V30 14 1 12 15
M  V30 15 1 14 16
M  V30 16 1 15 17
M  V30 17 1 16 18
M  V30 18 1 18 19
M  V30 19 1 10 13
M  V30 20 1 17 18
M  V30 21 1 5 20
M  V30 22 1 5 21
M  V30 23 1 6 22
M  V30 24 1 7 23
M  V30 25 1 9 24
M  V30 26 1 10 25
M  V30 27 1 13 26
M  V30 28 1 14 27
M  V30 29 1 14 28
M  V30 30 1 15 29
M  V30 31 1 15 30
M  V30 32 1 16 31
M  V30 33 1 16 32
M  V30 34 1 17 33
M  V30 35 1 17 34
M  V30 36 1 18 35
M  V30 37 1 19 36
M  V30 END BOND
M  V30 END CTAB
M  END
>  <Structure No>
5610

>  <LogS>
-1.3486

>  <MMFF94 Energy>
35.388

$$$$
Compound 5611
Actelion Java MolfileCreator 2.0

  0  0  0  0  0  0              0 V3000
M  V30 BEGIN CTAB
M  V30 COUNTS 34 35 0 0 0
M  V30 BEGIN ATOM
M  V30 1 O 1.3741 -1.455 -0.4848 0
M  V30 2 C 1.9138 -0.3149 -0.5323 0
M  V30 3 O 1.1634 0.8005 -0.9264 0
M  V30 4 C 3.3394 -0.153 -0.1721 0
M  V30 5 C -0.2216 0.7325 -1.2623 0
M  V30 6 C 3.9436 1.1166 -0.2182 0
M  V30 7 C 4.1116 -1.2618 0.2227 0
M  V30 8 C -1.0675 0.5177 -0.036 0
M  V30 9 C 5.2908 1.2719 0.123 0
M  V30 10 C 5.4584 -1.1007 0.5628 0
M  V30 11 O -0.6148 0.8591 1.0907 0
M  V30 12 N -2.4049 -0.0068 -0.1359 0
M  V30 13 C 6.0474 0.1647 0.513 0
M  V30 14 C -3.267 -0.2235 1.0182 0 CFG=1
M  V30 15 C -3.0226 -0.4294 -1.3831 0
M  V30 16 C -3.7169 1.0912 1.5934 0
M  V30 17 C -4.4518 -1.0334 0.489 0
M  V30 18 C -4.4483 -0.8283 -1.0235 0
M  V30 19 O -4.1609 1.9999 0.8422 0
M  V30 20 O -3.6727 1.2973 2.9662 0 CHG=-1
M  V30 21 H -0.5214 1.6927 -1.7309 0
M  V30 22 H -0.3815 -0.0786 -2.0035 0
M  V30 23 H 3.3773 1.9899 -0.5169 0
M  V30 24 H 3.6764 -2.2523 0.269 0
M  V30 25 H 5.7484 2.2521 0.0851 0
M  V30 26 H 6.0458 -1.9579 0.8653 0
M  V30 27 H 7.0899 0.2872 0.7768 0
M  V30 28 H -2.725 -0.8104 1.7927 0
M  V30 29 H -3.0235 0.4037 -2.1189 0
M  V30 30 H -2.4732 -1.3033 -1.795 0
M  V30 31 H -5.424 -0.7298 0.9375 0
M  V30 32 H -4.2851 -2.1113 0.7082 0
M  V30 33 H -5.1444 -0.0011 -1.2854 0
M  V30 34 H -4.7597 -1.7515 -1.5585 0
M  V30 END ATOM
M  V30 BEGIN BOND
M  V30 1 2 1 2
M  V30 2 1 2 3
M  V30 3 1 2 4
M  V30 4 1 3 5
M  V30 5 2 4 6
M  V30 6 1 4 7
M  V30 7 1 5 8
M  V30 8 1 6 9
M  V30 9 2 7 10
M  V30 10 2 8 11
M  V30 11 1 8 12
M  V30 12 2 9 13
M  V30 13 1 12 14
M  V30 14 1 12 15
M  V30 15 1 14 16
M  V30 16 1 14 17
M  V30 17 1 15 18
M  V30 18 2 16 19
M  V30 19 1 16 20
M  V30 20 1 10 13
M  V30 21 1 17 18
M  V30 22 1 5 21
M  V30 23 1 5 22
M  V30 24 1 6 23
M  V30 25 1 7 24
M  V30 26 1 9 25
M  V30 27 1 10 26
M  V30 28 1 13 27
M  V30 29 1 14 28
M  V30 30 1 15 29
M  V30 31 1 15 30
M  V30 32 1 17 31
M  V30 33 1 17 32
M  V30 34 1 18 33
M  V30 35 1 18 34
M  V30 END BOND
M  V30 BEGIN COLLECTION
M  V30 MDLV30/STEABS ATOMS=(1 14)
M  V30 END COLLECTION
M  V30 END CTAB
M  END
>  <Structure No>
5611

>  <LogS>
-1.5917

>  <MMFF94 Energy>
100.13

$$$$
Compound 5612
Actelion Java MolfileCreator 2.0

  0  0  0  0  0  0              0 V3000
M  V30 BEGIN CTAB
M  V30 COUNTS 38 39 0 0 0
M  V30 BEGIN ATOM
M  V30 1 O 1.7639 1.2826 -2.0047 0
M  V30 2 C 2.2863 0.6539 -1.0428 0
M  V30 3 O 1.4778 -0.061 -0.1527 0
M  V30 4 C 3.7533 0.6711 -0.8532 0
M  V30 5 C 0.0596 -0.1187 -0.2767 0
M  V30 6 C 4.3386 -0.0279 0.2183 0
M  V30 7 C 4.5846 1.3841 -1.7376 0
M  V30 8 C -0.5306 -0.9489 0.828 0
M  V30 9 C 5.7251 -0.0129 0.3994 0
M  V30 10 C 5.9704 1.3955 -1.5515 0
M  V30 11 O 0.2079 -1.331 1.7766 0
M  V30 12 N -1.9297 -1.2919 0.8368 0
M  V30 13 C 6.54 0.6978 -0.4842 0
M  V30 14 C -2.8861 -0.9168 -0.1977 0 CFG=2
M  V30 15 C -2.5229 -2.1226 1.8721 0
M  V30 16 C -3.1748 0.557 -0.1379 0
M  V30 17 C -4.1409 -1.7413 0.0963 0
M  V30 18 C -4.0102 -2.1898 1.5495 0
M  V30 19 O -3.4854 1.0972 0.9595 0
M  V30 20 O -3.1047 1.3158 -1.3094 0
M  V30 21 C -3.3412 2.718 -1.3282 0
M  V30 22 H -0.3565 0.9093 -0.2191 0
M  V30 23 H -0.2014 -0.5685 -1.2578 0
M  V30 24 H 3.7272 -0.5859 0.9164 0
M  V30 25 H 4.1652 1.9324 -2.572 0
M  V30 26 H 6.1677 -0.5533 1.2262 0
M  V30 27 H 6.603 1.946 -2.2356 0
M  V30 28 H 7.6129 0.708 -0.3419 0
M  V30 29 H -2.4935 -1.1885 -1.2017 0
M  V30 30 H -2.0723 -3.1382 1.8387 0
M  V30 31 H -2.3602 -1.6689 2.8739 0
M  V30 32 H -5.0844 -1.1755 -0.0702 0
M  V30 33 H -4.1507 -2.6398 -0.5593 0
M  V30 34 H -4.4114 -3.2163 1.6944 0
M  V30 35 H -4.5665 -1.4842 2.2052 0
M  V30 36 H -3.2262 3.0931 -2.3656 0
M  V30 37 H -4.373 2.9345 -0.979 0
M  V30 38 H -2.6071 3.2354 -0.6749 0
M  V30 END ATOM
M  V30 BEGIN BOND
M  V30 1 2 1 2
M  V30 2 1 2 3
M  V30 3 1 2 4
M  V30 4 1 3 5
M  V30 5 2 4 6
M  V30 6 1 4 7
M  V30 7 1 5 8
M  V30 8 1 6 9
M  V30 9 2 7 10
M  V30 10 2 8 11
M  V30 11 1 8 12
M  V30 12 2 9 13
M  V30 13 1 12 14
M  V30 14 1 12 15
M  V30 15 1 14 16
M  V30 16 1 14 17
M  V30 17 1 15 18
M  V30 18 2 16 19
M  V30 19 1 16 20
M  V30 20 1 20 21
M  V30 21 1 10 13
M  V30 22 1 17 18
M  V30 23 1 5 22
M  V30 24 1 5 23
M  V30 25 1 6 24
M  V30 26 1 7 25
M  V30 27 1 9 26
M  V30 28 1 10 27
M  V30 29 1 13 28
M  V30 30 1 14 29
M  V30 31 1 15 30
M  V30 32 1 15 31
M  V30 33 1 17 32
M  V30 34 1 17 33
M  V30 35 1 18 34
M  V30 36 1 18 35
M  V30 37 1 21 36
M  V30 38 1 21 37
M  V30 39 1 21 38
M  V30 END BOND
M  V30 BEGIN COLLECTION
M  V30 MDLV30/STEABS ATOMS=(1 14)
M  V30 END COLLECTION
M  V30 END CTAB
M  END
>  <Structure No>
5612

>  <LogS>
-2.0841

>  <MMFF94 Energy>
63.34

$$$$
Compound 5613
Actelion Java MolfileCreator 2.0

  0  0  0  0  0  0              0 V3000
M  V30 BEGIN CTAB
M  V30 COUNTS 31 31 0 0 0
M  V30 BEGIN ATOM
M  V30 1 O 2.0551 1.2643 2.0551 0
M  V30 2 C 1.9877 0.5206 1.0373 0
M  V30 3 O 0.7428 0.2056 0.482 0
M  V30 4 C 3.2231 -0.0197 0.4287 0
M  V30 5 C -0.4844 0.6911 1.0167 0
M  V30 6 C 4.4857 0.2851 0.9723 0
M  V30 7 C 3.1516 -0.8489 -0.7056 0
M  V30 8 C -1.6487 0.1611 0.1773 0
M  V30 9 C 5.6489 -0.2296 0.3912 0
M  V30 10 C 4.3182 -1.3608 -1.2824 0
M  V30 11 C -3.0001 0.6262 0.6716 0
M  V30 12 C 5.5654 -1.0515 -0.7347 0
M  V30 13 O -3.0697 1.3768 1.6849 0
M  V30 14 N -4.2151 0.2246 0.0017 0
M  V30 15 C -4.1682 -0.6466 -1.1779 0
M  V30 16 C -5.5045 0.6992 0.5151 0
M  V30 17 H -0.4821 1.8033 0.9941 0
M  V30 18 H -0.5917 0.3436 2.068 0
M  V30 19 H 4.5749 0.9204 1.8449 0
M  V30 20 H 2.1963 -1.1025 -1.1479 0
M  V30 21 H -1.5121 0.5007 -0.8714 0
M  V30 22 H -1.621 -0.9493 0.1952 0
M  V30 23 H 6.6159 0.0093 0.8147 0
M  V30 24 H 4.2549 -1.9981 -2.1551 0
M  V30 25 H 6.4669 -1.4489 -1.1828 0
M  V30 26 H -5.1837 -0.8605 -1.5723 0
M  V30 27 H -3.6949 -1.6152 -0.913 0
M  V30 28 H -3.5854 -0.1568 -1.9857 0
M  V30 29 H -6.3554 0.3192 -0.0882 0
M  V30 30 H -5.5316 1.8091 0.4906 0
M  V30 31 H -5.6408 0.3533 1.5617 0
M  V30 END ATOM
M  V30 BEGIN BOND
M  V30 1 2 1 2
M  V30 2 1 2 3
M  V30 3 1 2 4
M  V30 4 1 3 5
M  V30 5 2 4 6
M  V30 6 1 4 7
M  V30 7 1 5 8
M  V30 8 1 6 9
M  V30 9 2 7 10
M  V30 10 1 8 11
M  V30 11 2 9 12
M  V30 12 2 11 13
M  V30 13 1 11 14
M  V30 14 1 14 15
M  V30 15 1 14 16
M  V30 16 1 10 12
M  V30 17 1 5 17
M  V30 18 1 5 18
M  V30 19 1 6 19
M  V30 20 1 7 20
M  V30 21 1 8 21
M  V30 22 1 8 22
M  V30 23 1 9 23
M  V30 24 1 10 24
M  V30 25 1 12 25
M  V30 26 1 15 26
M  V30 27 1 15 27
M  V30 28 1 15 28
M  V30 29 1 16 29
M  V30 30 1 16 30
M  V30 31 1 16 31
M  V30 END BOND
M  V30 END CTAB
M  END
>  <Structure No>
5613

>  <LogS>
-1.0994

>  <MMFF94 Energy>
14.129

$$$$
Compound 5614
Actelion Java MolfileCreator 2.0

  0  0  0  0  0  0              0 V3000
M  V30 BEGIN CTAB
M  V30 COUNTS 34 34 0 0 0
M  V30 BEGIN ATOM
M  V30 1 O 1.4216 -2.6866 1.1055 0
M  V30 2 C 1.8066 -1.5354 0.7595 0
M  V30 3 O 1.42 -0.4122 1.5016 0
M  V30 4 C 2.6711 -1.368 -0.4289 0
M  V30 5 C 0.5064 -0.4665 2.5968 0
M  V30 6 C 3.0779 -0.0838 -0.8354 0
M  V30 7 C 3.0952 -2.4853 -1.1731 0
M  V30 8 C -0.9336 -0.6615 2.1084 0
M  V30 9 C 3.8921 0.0772 -1.9608 0
M  V30 10 C 3.9096 -2.3182 -2.2976 0
M  V30 11 C -1.3845 0.4901 1.1951 0
M  V30 12 C 4.3078 -1.0385 -2.691 0
M  V30 13 C -2.8096 0.3408 0.7123 0
M  V30 14 O -3.5062 -0.633 1.1139 0
M  V30 15 N -3.3913 1.3017 -0.1959 0
M  V30 16 C -4.7776 1.1185 -0.6381 0
M  V30 17 C -2.6123 2.4502 -0.6729 0
M  V30 18 H 0.575 0.4855 3.1649 0
M  V30 19 H 0.7881 -1.2905 3.2879 0
M  V30 20 H 2.7667 0.7962 -0.2864 0
M  V30 21 H 2.7986 -3.4868 -0.8871 0
M  V30 22 H -1.0125 -1.6263 1.5623 0
M  V30 23 H -1.6008 -0.7111 2.9968 0
M  V30 24 H 4.2006 1.0685 -2.2673 0
M  V30 25 H 4.232 -3.1821 -2.8645 0
M  V30 26 H -1.2965 1.4481 1.7511 0
M  V30 27 H -0.7149 0.5317 0.3098 0
M  V30 28 H 4.9379 -0.9114 -3.5618 0
M  V30 29 H -5.4557 1.1301 0.2414 0
M  V30 30 H -4.8772 0.1452 -1.1636 0
M  V30 31 H -5.0997 1.9214 -1.3339 0
M  V30 32 H -1.7242 2.0956 -1.2365 0
M  V30 33 H -3.2077 3.0994 -1.3486 0
M  V30 34 H -2.2834 3.0676 0.1891 0
M  V30 END ATOM
M  V30 BEGIN BOND
M  V30 1 2 1 2
M  V30 2 1 2 3
M  V30 3 1 2 4
M  V30 4 1 3 5
M  V30 5 2 4 6
M  V30 6 1 4 7
M  V30 7 1 5 8
M  V30 8 1 6 9
M  V30 9 2 7 10
M  V30 10 1 8 11
M  V30 11 2 9 12
M  V30 12 1 11 13
M  V30 13 2 13 14
M  V30 14 1 13 15
M  V30 15 1 15 16
M  V30 16 1 15 17
M  V30 17 1 10 12
M  V30 18 1 5 18
M  V30 19 1 5 19
M  V30 20 1 6 20
M  V30 21 1 7 21
M  V30 22 1 8 22
M  V30 23 1 8 23
M  V30 24 1 9 24
M  V30 25 1 10 25
M  V30 26 1 11 26
M  V30 27 1 11 27
M  V30 28 1 12 28
M  V30 29 1 16 29
M  V30 30 1 16 30
M  V30 31 1 16 31
M  V30 32 1 17 32
M  V30 33 1 17 33
M  V30 34 1 17 34
M  V30 END BOND
M  V30 END CTAB
M  END
>  <Structure No>
5614

>  <LogS>
-1.2286

>  <MMFF94 Energy>
13.893

$$$$
Compound 5615
Actelion Java MolfileCreator 2.0

  0  0  0  0  0  0              0 V3000
M  V30 BEGIN CTAB
M  V30 COUNTS 30 30 0 0 0
M  V30 BEGIN ATOM
M  V30 1 O 0.4769 0.5564 1.0336 0
M  V30 2 C 1.2162 -0.1549 0.2982 0
M  V30 3 O 0.6789 -1.2571 -0.3797 0
M  V30 4 C 2.6512 0.1724 0.1503 0
M  V30 5 C -0.6984 -1.6209 -0.3123 0
M  V30 6 C 3.2107 1.2741 0.8254 0
M  V30 7 C 3.4781 -0.6151 -0.6714 0
M  V30 8 C -1.5452 -0.6227 -1.0515 0
M  V30 9 C 4.5681 1.5779 0.6798 0
M  V30 10 C 4.8348 -0.3064 -0.8133 0
M  V30 11 O -1.1613 -0.2152 -2.1817 0
M  V30 12 N -2.7766 -0.1254 -0.4905 0
M  V30 13 C 5.3792 0.7887 -0.1385 0
M  V30 14 C -3.6874 -1.0156 0.193 0
M  V30 15 C -3.1748 1.2584 -0.77 0
M  V30 16 O -3.5417 -2.2648 0.0981 0
M  V30 17 C -4.8367 -0.4885 0.9987 0
M  V30 18 H -0.8282 -2.6169 -0.7845 0
M  V30 19 H -1.0094 -1.6959 0.7521 0
M  V30 20 H 2.6013 1.9003 1.465 0
M  V30 21 H 3.0788 -1.4685 -1.2047 0
M  V30 22 H 4.991 2.4265 1.2021 0
M  V30 23 H 5.4645 -0.9171 -1.4474 0
M  V30 24 H 6.4295 1.0256 -0.2499 0
M  V30 25 H -3.5168 1.7583 0.1598 0
M  V30 26 H -2.3206 1.8505 -1.1636 0
M  V30 27 H -3.9938 1.268 -1.5196 0
M  V30 28 H -5.381 -1.3215 1.493 0
M  V30 29 H -5.5446 0.0526 0.337 0
M  V30 30 H -4.4602 0.199 1.7844 0
M  V30 END ATOM
M  V30 BEGIN BOND
M  V30 1 2 1 2
M  V30 2 1 2 3
M  V30 3 1 2 4
M  V30 4 1 3 5
M  V30 5 2 4 6
M  V30 6 1 4 7
M  V30 7 1 5 8
M  V30 8 1 6 9
M  V30 9 2 7 10
M  V30 10 2 8 11
M  V30 11 1 8 12
M  V30 12 2 9 13
M  V30 13 1 12 14
M  V30 14 1 12 15
M  V30 15 2 14 16
M  V30 16 1 14 17
M  V30 17 1 10 13
M  V30 18 1 5 18
M  V30 19 1 5 19
M  V30 20 1 6 20
M  V30 21 1 7 21
M  V30 22 1 9 22
M  V30 23 1 10 23
M  V30 24 1 13 24
M  V30 25 1 15 25
M  V30 26 1 15 26
M  V30 27 1 15 27
M  V30 28 1 17 28
M  V30 29 1 17 29
M  V30 30 1 17 30
M  V30 END BOND
M  V30 END CTAB
M  END
>  <Structure No>
5615

>  <LogS>
-2.8664

>  <MMFF94 Energy>
28.512

$$$$
Compound 5616
Actelion Java MolfileCreator 2.0

  0  0  0  0  0  0              0 V3000
M  V30 BEGIN CTAB
M  V30 COUNTS 31 31 0 0 0
M  V30 BEGIN ATOM
M  V30 1 O -0.6317 -0.7107 -1.2637 0
M  V30 2 C -1.3682 0.1576 -0.7189 0
M  V30 3 O -0.9197 1.4787 -0.5902 0
M  V30 4 C -2.7091 -0.2158 -0.218 0
M  V30 5 C 0.3743 1.9128 -1.0016 0
M  V30 6 C -3.1799 -1.5371 -0.3401 0
M  V30 7 C -3.5337 0.7478 0.391 0
M  V30 8 C 1.4199 1.3965 -0.0603 0
M  V30 9 C -4.4483 -1.883 0.1368 0
M  V30 10 C -4.8012 0.3962 0.8662 0
M  V30 11 O 1.5097 1.8968 1.0936 0
M  V30 12 N 2.2819 0.3182 -0.4533 0
M  V30 13 C -5.2581 -0.9175 0.7393 0
M  V30 14 C 3.2998 -0.2376 0.4438 0
M  V30 15 C 3.7246 -1.6304 -0.0326 0
M  V30 16 C 4.5104 0.6979 0.5084 0
M  V30 17 H 0.3975 3.0227 -0.9889 0
M  V30 18 H 0.5759 1.5848 -2.0444 0
M  V30 19 H -2.5698 -2.3024 -0.8033 0
M  V30 20 H -3.2013 1.7724 0.5011 0
M  V30 21 H -4.8034 -2.9008 0.0393 0
M  V30 22 H -5.4297 1.1435 1.3336 0
M  V30 23 H 2.1515 -0.1014 -1.4022 0
M  V30 24 H -6.2394 -1.1873 1.1079 0
M  V30 25 H 2.8712 -0.3467 1.4649 0
M  V30 26 H 2.8395 -2.3005 -0.0739 0
M  V30 27 H 4.1806 -1.5763 -1.0446 0
M  V30 28 H 4.4624 -2.0693 0.6726 0
M  V30 29 H 5.2836 0.2795 1.1874 0
M  V30 30 H 4.9508 0.8323 -0.5027 0
M  V30 31 H 4.2084 1.6918 0.8999 0
M  V30 END ATOM
M  V30 BEGIN BOND
M  V30 1 2 1 2
M  V30 2 1 2 3
M  V30 3 1 2 4
M  V30 4 1 3 5
M  V30 5 2 4 6
M  V30 6 1 4 7
M  V30 7 1 5 8
M  V30 8 1 6 9
M  V30 9 2 7 10
M  V30 10 2 8 11
M  V30 11 1 8 12
M  V30 12 2 9 13
M  V30 13 1 12 14
M  V30 14 1 14 15
M  V30 15 1 14 16
M  V30 16 1 10 13
M  V30 17 1 5 17
M  V30 18 1 5 18
M  V30 19 1 6 19
M  V30 20 1 7 20
M  V30 21 1 9 21
M  V30 22 1 10 22
M  V30 23 1 12 23
M  V30 24 1 13 24
M  V30 25 1 14 25
M  V30 26 1 15 26
M  V30 27 1 15 27
M  V30 28 1 15 28
M  V30 29 1 16 29
M  V30 30 1 16 30
M  V30 31 1 16 31
M  V30 END BOND
M  V30 END CTAB
M  END
>  <Structure No>
5616

>  <LogS>
-2.7321

>  <MMFF94 Energy>
28.254

$$$$
Compound 5617
Actelion Java MolfileCreator 2.0

  0  0  0  0  0  0              0 V3000
M  V30 BEGIN CTAB
M  V30 COUNTS 34 34 0 0 0
M  V30 BEGIN ATOM
M  V30 1 O 1.1836 0.9468 1.1836 0
M  V30 2 C 2.0448 0.0536 0.953 0
M  V30 3 O 1.7744 -1.2827 1.2748 0
M  V30 4 C 3.3441 0.4156 0.3455 0
M  V30 5 C 0.5325 -1.7242 1.8181 0
M  V30 6 C 3.6365 1.753 0.0174 0
M  V30 7 C 4.3072 -0.5763 0.0855 0
M  V30 8 C -0.5351 -1.6935 0.7669 0
M  V30 9 C 4.8665 2.0873 -0.5575 0
M  V30 10 C 5.5355 -0.236 -0.4897 0
M  V30 11 O -0.5262 -2.5625 -0.1463 0
M  V30 12 N -1.5356 -0.6667 0.7778 0
M  V30 13 C 5.815 1.094 -0.8109 0
M  V30 14 C -2.5575 -0.588 -0.2654 0
M  V30 15 C -3.4824 0.6146 -0.0332 0
M  V30 16 C -4.4968 0.8092 -1.1703 0
M  V30 17 C -5.5761 -0.2724 -1.1911 0
M  V30 18 H 0.252 -1.0985 2.693 0
M  V30 19 H 0.6526 -2.7678 2.1768 0
M  V30 20 H 2.9166 2.54 0.2043 0
M  V30 21 H 4.1132 -1.614 0.3253 0
M  V30 22 H 5.0842 3.1178 -0.8071 0
M  V30 23 H 6.2713 -1.0049 -0.6867 0
M  V30 24 H -1.5227 0.0396 1.5487 0
M  V30 25 H 6.7662 1.355 -1.256 0
M  V30 26 H -3.1504 -1.5268 -0.2562 0
M  V30 27 H -2.0595 -0.4869 -1.2542 0
M  V30 28 H -4.0167 0.4973 0.935 0
M  V30 29 H -2.8592 1.5332 0.0336 0
M  V30 30 H -3.9732 0.8326 -2.1508 0
M  V30 31 H -4.9939 1.7938 -1.0319 0
M  V30 32 H -6.3407 -0.0153 -1.9541 0
M  V30 33 H -5.1409 -1.2575 -1.4577 0
M  V30 34 H -6.0754 -0.343 -0.2014 0
M  V30 END ATOM
M  V30 BEGIN BOND
M  V30 1 2 1 2
M  V30 2 1 2 3
M  V30 3 1 2 4
M  V30 4 1 3 5
M  V30 5 2 4 6
M  V30 6 1 4 7
M  V30 7 1 5 8
M  V30 8 1 6 9
M  V30 9 2 7 10
M  V30 10 2 8 11
M  V30 11 1 8 12
M  V30 12 2 9 13
M  V30 13 1 12 14
M  V30 14 1 14 15
M  V30 15 1 15 16
M  V30 16 1 16 17
M  V30 17 1 10 13
M  V30 18 1 5 18
M  V30 19 1 5 19
M  V30 20 1 6 20
M  V30 21 1 7 21
M  V30 22 1 9 22
M  V30 23 1 10 23
M  V30 24 1 12 24
M  V30 25 1 13 25
M  V30 26 1 14 26
M  V30 27 1 14 27
M  V30 28 1 15 28
M  V30 29 1 15 29
M  V30 30 1 16 30
M  V30 31 1 16 31
M  V30 32 1 17 32
M  V30 33 1 17 33
M  V30 34 1 17 34
M  V30 END BOND
M  V30 END CTAB
M  END
>  <Structure No>
5617

>  <LogS>
-2.7588

>  <MMFF94 Energy>
23.743

$$$$
Compound 5618
Actelion Java MolfileCreator 2.0

  0  0  0  0  0  0              0 V3000
M  V30 BEGIN CTAB
M  V30 COUNTS 40 40 0 0 0
M  V30 BEGIN ATOM
M  V30 1 O -4.2607 2.0497 1.4975 0
M  V30 2 C -3.6233 1.1701 0.8564 0
M  V30 3 O -2.3284 0.8168 1.2497 0
M  V30 4 C -4.2401 0.5121 -0.3153 0
M  V30 5 C -1.6711 1.4108 2.3625 0
M  V30 6 C -3.5638 -0.5245 -0.9839 0
M  V30 7 C -5.5083 0.9098 -0.7785 0
M  V30 8 C -0.284 0.8648 2.4593 0
M  V30 9 C -4.146 -1.1501 -2.0901 0
M  V30 10 C -6.084 0.2827 -1.8876 0
M  V30 11 O -0.0191 -0.0152 3.3226 0
M  V30 12 N 0.7265 1.3152 1.5474 0
M  V30 13 C -5.4042 -0.7465 -2.5424 0
M  V30 14 C 2.0838 0.775 1.5467 0
M  V30 15 C 2.1115 -0.5909 0.8489 0
M  V30 16 C 3.4773 -1.2907 0.9552 0
M  V30 17 C 4.6559 -0.5252 0.3211 0
M  V30 18 C 4.4814 -0.1806 -1.1676 0
M  V30 19 C 4.3254 -1.4169 -2.0511 0
M  V30 20 H -2.2361 1.1878 3.2941 0
M  V30 21 H -1.6229 2.513 2.2293 0
M  V30 22 H -2.5883 -0.8554 -0.6509 0
M  V30 23 H -6.0541 1.7052 -0.2863 0
M  V30 24 H -3.621 -1.9493 -2.5966 0
M  V30 25 H -7.059 0.5946 -2.2388 0
M  V30 26 H 0.4996 2.0907 0.8855 0
M  V30 27 H -5.8523 -1.2315 -3.4 0
M  V30 28 H 2.7463 1.4817 1.0029 0
M  V30 29 H 2.4553 0.6898 2.5909 0
M  V30 30 H 1.3564 -1.254 1.3243 0
M  V30 31 H 1.8154 -0.4779 -0.2155 0
M  V30 32 H 3.4007 -2.2962 0.4904 0
M  V30 33 H 3.7074 -1.4588 2.0293 0
M  V30 34 H 5.5743 -1.1402 0.4387 0
M  V30 35 H 4.8338 0.4132 0.888 0
M  V30 36 H 5.3854 0.3723 -1.5011 0
M  V30 37 H 3.615 0.4981 -1.3131 0
M  V30 38 H 3.3528 -1.9153 -1.8582 0
M  V30 39 H 5.1536 -2.1336 -1.8671 0
M  V30 40 H 4.3507 -1.113 -3.1182 0
M  V30 END ATOM
M  V30 BEGIN BOND
M  V30 1 2 1 2
M  V30 2 1 2 3
M  V30 3 1 2 4
M  V30 4 1 3 5
M  V30 5 2 4 6
M  V30 6 1 4 7
M  V30 7 1 5 8
M  V30 8 1 6 9
M  V30 9 2 7 10
M  V30 10 2 8 11
M  V30 11 1 8 12
M  V30 12 2 9 13
M  V30 13 1 12 14
M  V30 14 1 14 15
M  V30 15 1 15 16
M  V30 16 1 16 17
M  V30 17 1 17 18
M  V30 18 1 18 19
M  V30 19 1 10 13
M  V30 20 1 5 20
M  V30 21 1 5 21
M  V30 22 1 6 22
M  V30 23 1 7 23
M  V30 24 1 9 24
M  V30 25 1 10 25
M  V30 26 1 12 26
M  V30 27 1 13 27
M  V30 28 1 14 28
M  V30 29 1 14 29
M  V30 30 1 15 30
M  V30 31 1 15 31
M  V30 32 1 16 32
M  V30 33 1 16 33
M  V30 34 1 17 34
M  V30 35 1 17 35
M  V30 36 1 18 36
M  V30 37 1 18 37
M  V30 38 1 19 38
M  V30 39 1 19 39
M  V30 40 1 19 40
M  V30 END BOND
M  V30 END CTAB
M  END
>  <Structure No>
5618

>  <LogS>
-3.902

>  <MMFF94 Energy>
23.235

$$$$
Compound 5619
Actelion Java MolfileCreator 2.0

  0  0  0  0  0  0              0 V3000
M  V30 BEGIN CTAB
M  V30 COUNTS 32 32 0 0 0
M  V30 BEGIN ATOM
M  V30 1 O 1.0305 -1.0305 -1.0305 0
M  V30 2 C 1.603 -0.8125 0.0729 0
M  V30 3 O 0.9829 -1.1864 1.2722 0
M  V30 4 C 2.9327 -0.165 0.1032 0
M  V30 5 C -0.3158 -1.7706 1.3361 0
M  V30 6 C 3.5742 0.2156 -1.0906 0
M  V30 7 C 3.575 0.0812 1.3305 0
M  V30 8 C -1.3639 -0.742 1.038 0
M  V30 9 C 4.8306 0.8285 -1.0539 0
M  V30 10 C 4.8314 0.6944 1.361 0
M  V30 11 O -1.6226 0.1415 1.8995 0
M  V30 12 N -2.0403 -0.7399 -0.2276 0
M  V30 13 C 5.4586 1.0676 0.1704 0
M  V30 14 C -3.0413 0.2746 -0.5719 0 CFG=2
M  V30 15 C -4.3115 0.0337 0.1985 0
M  V30 16 C -3.3317 0.2549 -2.0744 0
M  V30 17 O -4.7808 -1.1325 0.291 0
M  V30 18 N -5.0139 1.1248 0.7937 0
M  V30 19 H -0.3856 -2.6295 0.6343 0
M  V30 20 H -0.4793 -2.1619 2.3622 0
M  V30 21 H 3.1065 0.0408 -2.0513 0
M  V30 22 H 3.1083 -0.1985 2.2666 0
M  V30 23 H 5.3176 1.1184 -1.976 0
M  V30 24 H 5.3189 0.8805 2.3093 0
M  V30 25 H -1.8007 -1.4832 -0.9228 0
M  V30 26 H 6.4309 1.5421 0.1965 0
M  V30 27 H -2.6343 1.2791 -0.3211 0
M  V30 28 H -3.7416 -0.731 -2.3826 0
M  V30 29 H -2.3959 0.4463 -2.6415 0
M  V30 30 H -4.0662 1.0478 -2.3327 0
M  V30 31 H -4.6558 2.1019 0.709 0
M  V30 32 H -5.9004 0.956 1.3189 0
M  V30 END ATOM
M  V30 BEGIN BOND
M  V30 1 2 1 2
M  V30 2 1 2 3
M  V30 3 1 2 4
M  V30 4 1 3 5
M  V30 5 2 4 6
M  V30 6 1 4 7
M  V30 7 1 5 8
M  V30 8 1 6 9
M  V30 9 2 7 10
M  V30 10 2 8 11
M  V30 11 1 8 12
M  V30 12 2 9 13
M  V30 13 1 12 14
M  V30 14 1 14 15
M  V30 15 1 14 16
M  V30 16 2 15 17
M  V30 17 1 15 18
M  V30 18 1 10 13
M  V30 19 1 5 19
M  V30 20 1 5 20
M  V30 21 1 6 21
M  V30 22 1 7 22
M  V30 23 1 9 23
M  V30 24 1 10 24
M  V30 25 1 12 25
M  V30 26 1 13 26
M  V30 27 1 14 27
M  V30 28 1 16 28
M  V30 29 1 16 29
M  V30 30 1 16 30
M  V30 31 1 18 31
M  V30 32 1 18 32
M  V30 END BOND
M  V30 BEGIN COLLECTION
M  V30 MDLV30/STEABS ATOMS=(1 14)
M  V30 END COLLECTION
M  V30 END CTAB
M  END
>  <Structure No>
5619

>  <LogS>
-2.7172

>  <MMFF94 Energy>
36.359

$$$$
Compound 5620
Actelion Java MolfileCreator 2.0

  0  0  0  0  0  0              0 V3000
M  V30 BEGIN CTAB
M  V30 COUNTS 41 42 0 0 0
M  V30 BEGIN ATOM
M  V30 1 Cl -4.2757 1.9266 -1.4237 0
M  V30 2 C -2.9724 0.9417 -0.774 0
M  V30 3 C -3.2571 -0.237 -0.0681 0
M  V30 4 C -1.6467 1.3444 -0.9729 0
M  V30 5 O -4.6016 -0.6022 0.1155 0
M  V30 6 C -2.1901 -1.0122 0.4251 0
M  V30 7 C -0.5845 0.5855 -0.4634 0
M  V30 8 C -5.0582 -1.7399 0.848 0
M  V30 9 C -0.8677 -0.609 0.2209 0
M  V30 10 N 0.7678 1.0055 -0.7149 0
M  V30 11 F -4.597 -2.9001 0.2482 0
M  V30 12 F -4.5979 -1.6783 2.1531 0
M  V30 13 C -6.5848 -1.758 0.86 0 CFG=2
M  V30 14 C 1.8743 0.7284 0.1578 0
M  V30 15 F -7.0444 -1.9182 -0.4369 0
M  V30 16 O -7.0608 -0.5284 1.38 0
M  V30 17 O 1.6666 0.3882 1.3546 0
M  V30 18 N 3.2157 0.896 -0.3259 0
M  V30 19 C -8.3522 -0.6758 1.9369 0
M  V30 20 C 4.3723 0.3662 0.3465 0
M  V30 21 F -9.2285 -1.2743 1.0424 0
M  V30 22 F -8.2917 -1.4202 3.1044 0
M  V30 23 F -8.8407 0.5784 2.2481 0
M  V30 24 O 4.2451 -0.2532 1.4381 0
M  V30 25 C 5.7198 0.5027 -0.25 0
M  V30 26 C 6.1121 1.6962 -0.8903 0
M  V30 27 C 6.6371 -0.564 -0.1695 0
M  V30 28 F 5.2835 2.7703 -0.9331 0
M  V30 29 C 7.3872 1.8057 -1.4565 0
M  V30 30 F 6.2923 -1.732 0.4306 0
M  V30 31 C 7.911 -0.4411 -0.734 0
M  V30 32 C 8.2842 0.7395 -1.3791 0
M  V30 33 H -1.4431 2.2564 -1.5189 0
M  V30 34 H -2.3677 -1.9366 0.9559 0
M  V30 35 H -0.07 -1.2469 0.5764 0
M  V30 36 H 0.9506 1.6006 -1.5547 0
M  V30 37 H -6.9081 -2.6367 1.468 0
M  V30 38 H 3.3343 1.2728 -1.2932 0
M  V30 39 H 7.6855 2.7253 -1.9438 0
M  V30 40 H 8.6112 -1.2649 -0.6717 0
M  V30 41 H 9.2711 0.8308 -1.815 0
M  V30 END ATOM
M  V30 BEGIN BOND
M  V30 1 1 1 2
M  V30 2 2 2 3
M  V30 3 1 2 4
M  V30 4 1 3 5
M  V30 5 1 3 6
M  V30 6 2 4 7
M  V30 7 1 5 8
M  V30 8 2 6 9
M  V30 9 1 7 10
M  V30 10 1 8 11
M  V30 11 1 8 12
M  V30 12 1 8 13
M  V30 13 1 10 14
M  V30 14 1 13 15
M  V30 15 1 13 16
M  V30 16 2 14 17
M  V30 17 1 14 18
M  V30 18 1 16 19
M  V30 19 1 18 20
M  V30 20 1 19 21
M  V30 21 1 19 22
M  V30 22 1 19 23
M  V30 23 2 20 24
M  V30 24 1 20 25
M  V30 25 2 25 26
M  V30 26 1 25 27
M  V30 27 1 26 28
M  V30 28 1 26 29
M  V30 29 1 27 30
M  V30 30 2 27 31
M  V30 31 2 29 32
M  V30 32 1 7 9
M  V30 33 1 31 32
M  V30 34 1 4 33
M  V30 35 1 6 34
M  V30 36 1 9 35
M  V30 37 1 10 36
M  V30 38 1 13 37
M  V30 39 1 18 38
M  V30 40 1 29 39
M  V30 41 1 31 40
M  V30 42 1 32 41
M  V30 END BOND
M  V30 BEGIN COLLECTION
M  V30 MDLV30/STEABS ATOMS=(1 13)
M  V30 END COLLECTION
M  V30 END CTAB
M  END
>  <Structure No>
5620

>  <LogS>
-6.9675

>  <MMFF94 Energy>
-29.256

$$$$
Compound 5621
Actelion Java MolfileCreator 2.0

  0  0  0  0  0  0              0 V3000
M  V30 BEGIN CTAB
M  V30 COUNTS 23 22 0 0 0
M  V30 BEGIN ATOM
M  V30 1 N 0.5321 0.152 0.304 0 CHG=1
M  V30 2 C -0.5754 -0.7571 -0.0758 0 CFG=1
M  V30 3 C 1.8533 -0.4143 -0.0198 0
M  V30 4 C -1.8822 -0.397 0.6756 0
M  V30 5 C -0.7993 -0.7839 -1.6011 0
M  V30 6 C 2.9742 0.5012 0.4706 0
M  V30 7 C -2.3905 1.0218 0.4075 0
M  V30 8 H 0.4255 1.0727 -0.1832 0
M  V30 9 H 0.497 0.3198 1.3376 0
M  V30 10 H -0.325 -1.7965 0.2377 0
M  V30 11 H 1.9658 -0.535 -1.1185 0
M  V30 12 H 1.9769 -1.4097 0.4623 0
M  V30 13 H -1.7154 -0.5113 1.769 0
M  V30 14 H -2.6793 -1.1201 0.396 0
M  V30 15 H -1.7252 -1.3462 -1.847 0
M  V30 16 H -0.8843 0.2437 -2.012 0
M  V30 17 H 0.0422 -1.2987 -2.108 0
M  V30 18 H 3.9584 0.0611 0.2051 0
M  V30 19 H 2.8901 1.5007 -0.0063 0
M  V30 20 H 2.9224 0.6166 1.5741 0
M  V30 21 H -2.6165 1.1653 -0.669 0
M  V30 22 H -1.6476 1.7772 0.7371 0
M  V30 23 H -3.3269 1.1886 0.9804 0
M  V30 END ATOM
M  V30 BEGIN BOND
M  V30 1 1 1 2
M  V30 2 1 1 3
M  V30 3 1 2 4
M  V30 4 1 2 5
M  V30 5 1 3 6
M  V30 6 1 4 7
M  V30 7 1 1 8
M  V30 8 1 1 9
M  V30 9 1 2 10
M  V30 10 1 3 11
M  V30 11 1 3 12
M  V30 12 1 4 13
M  V30 13 1 4 14
M  V30 14 1 5 15
M  V30 15 1 5 16
M  V30 16 1 5 17
M  V30 17 1 6 18
M  V30 18 1 6 19
M  V30 19 1 6 20
M  V30 20 1 7 21
M  V30 21 1 7 22
M  V30 22 1 7 23
M  V30 END BOND
M  V30 BEGIN COLLECTION
M  V30 MDLV30/STEABS ATOMS=(1 2)
M  V30 END COLLECTION
M  V30 END CTAB
M  END
>  <Structure No>
5621

>  <LogS>
-0.21

>  <MMFF94 Energy>
3.4791

$$$$
Compound 5622
Actelion Java MolfileCreator 2.0

  0  0  0  0  0  0              0 V3000
M  V30 BEGIN CTAB
M  V30 COUNTS 36 36 0 0 0
M  V30 BEGIN ATOM
M  V30 1 O -1.1048 -0.8679 -2.5266 0
M  V30 2 C -1.5096 -0.2118 -1.5278 0
M  V30 3 N -0.9784 1.1002 -1.2776 0
M  V30 4 C -2.5372 -0.8037 -0.6388 0
M  V30 5 C 0.2601 1.5712 -1.9093 0 CFG=1
M  V30 6 C -3.4088 -1.793 -1.1312 0
M  V30 7 C -2.6419 -0.4154 0.7106 0
M  V30 8 C 0.3167 3.0809 -1.9293 0
M  V30 9 C 1.4844 0.9394 -1.2108 0
M  V30 10 C -4.3756 -2.3643 -0.2982 0
M  V30 11 C -3.6099 -0.9914 1.5393 0
M  V30 12 O 1.4185 3.6768 -2.0635 0
M  V30 13 O -0.8558 3.8275 -1.9032 0 CHG=-1
M  V30 14 C 1.5483 1.2586 0.2954 0
M  V30 15 C -4.4777 -1.9622 1.0351 0
M  V30 16 C 2.828 0.7249 0.9575 0
M  V30 17 C 2.8308 -0.8064 1.0922 0
M  V30 18 N 3.9952 -1.2601 1.8518 0 CHG=1
M  V30 19 H -1.4472 1.7096 -0.5702 0
M  V30 20 H 0.2674 1.2499 -2.9736 0
M  V30 21 H -3.3495 -2.1169 -2.1629 0
M  V30 22 H -1.9641 0.3117 1.1371 0
M  V30 23 H 1.4312 -0.1604 -1.3518 0
M  V30 24 H 2.4151 1.2882 -1.7093 0
M  V30 25 H -5.046 -3.1199 -0.6872 0
M  V30 26 H -3.6825 -0.689 2.5761 0
M  V30 27 H 1.5272 2.3606 0.4364 0
M  V30 28 H 0.6599 0.8381 0.8146 0
M  V30 29 H -5.2256 -2.4069 1.6789 0
M  V30 30 H 2.901 1.1719 1.9731 0
M  V30 31 H 3.719 1.0555 0.3804 0
M  V30 32 H 1.9039 -1.1387 1.6106 0
M  V30 33 H 2.8535 -1.275 0.085 0
M  V30 34 H 3.97 -0.8644 2.8198 0
M  V30 35 H 3.9781 -2.3037 1.9135 0
M  V30 36 H 4.8755 -0.9637 1.3709 0
M  V30 END ATOM
M  V30 BEGIN BOND
M  V30 1 2 1 2
M  V30 2 1 2 3
M  V30 3 1 2 4
M  V30 4 1 3 5
M  V30 5 2 4 6
M  V30 6 1 4 7
M  V30 7 1 5 8
M  V30 8 1 5 9
M  V30 9 1 6 10
M  V30 10 2 7 11
M  V30 11 2 8 12
M  V30 12 1 8 13
M  V30 13 1 9 14
M  V30 14 2 10 15
M  V30 15 1 14 16
M  V30 16 1 16 17
M  V30 17 1 17 18
M  V30 18 1 11 15
M  V30 19 1 3 19
M  V30 20 1 5 20
M  V30 21 1 6 21
M  V30 22 1 7 22
M  V30 23 1 9 23
M  V30 24 1 9 24
M  V30 25 1 10 25
M  V30 26 1 11 26
M  V30 27 1 14 27
M  V30 28 1 14 28
M  V30 29 1 15 29
M  V30 30 1 16 30
M  V30 31 1 16 31
M  V30 32 1 17 32
M  V30 33 1 17 33
M  V30 34 1 18 34
M  V30 35 1 18 35
M  V30 36 1 18 36
M  V30 END BOND
M  V30 BEGIN COLLECTION
M  V30 MDLV30/STEABS ATOMS=(1 5)
M  V30 END COLLECTION
M  V30 END CTAB
M  END
>  <Structure No>
5622

>  <LogS>
-2.2845

>  <MMFF94 Energy>
20.661

$$$$
Compound 5623
Actelion Java MolfileCreator 2.0

  0  0  0  0  0  0              0 V3000
M  V30 BEGIN CTAB
M  V30 COUNTS 40 42 0 0 0
M  V30 BEGIN ATOM
M  V30 1 Cl 4.3617 2.5986 -1.3406 0
M  V30 2 C 2.7824 1.8809 -1.0482 0
M  V30 3 C 2.5405 1.0726 0.0771 0
M  V30 4 C 1.7553 2.1132 -1.9695 0
M  V30 5 S 3.8346 0.7319 1.2781 0
M  V30 6 C 1.2676 0.5235 0.277 0
M  V30 7 C 0.4871 1.5605 -1.7694 0
M  V30 8 C 4.401 -0.7727 0.4232 0
M  V30 9 C 0.2303 0.7834 -0.6259 0
M  V30 10 F -0.4745 1.7496 -2.7075 0
M  V30 11 C 5.5634 -1.3488 1.1584 0
M  V30 12 N -1.0508 0.1775 -0.4071 0
M  V30 13 O 5.37 -2.2064 2.063 0
M  V30 14 O 6.8534 -0.8967 0.867 0
M  V30 15 C -2.1868 0.812 -0.35 0
M  V30 16 C 8.0058 -1.3818 1.545 0
M  V30 17 S -2.3824 2.4943 -0.4097 0
M  V30 18 N -3.378 0.1817 -0.1782 0
M  V30 19 C -4.0469 2.3257 -0.2405 0
M  V30 20 N -4.4184 1.0259 -0.1477 0
M  V30 21 C -3.5211 -1.2809 -0.1494 0
M  V30 22 O -4.855 3.2913 -0.1959 0
M  V30 23 C -5.8049 0.6017 0.0853 0
M  V30 24 C -4.8774 -1.6979 0.4198 0
M  V30 25 C -5.9916 -0.8823 -0.2287 0
M  V30 26 H 1.943 2.7151 -2.8496 0
M  V30 27 H 1.0803 -0.1003 1.1424 0
M  V30 28 H 3.5752 -1.5152 0.3815 0
M  V30 29 H 4.7104 -0.5228 -0.6138 0
M  V30 30 H 7.9285 -1.1623 2.6311 0
M  V30 31 H 8.9066 -0.877 1.1396 0
M  V30 32 H 8.1058 -2.4768 1.3892 0
M  V30 33 H -3.4196 -1.6732 -1.1844 0
M  V30 34 H -2.7191 -1.7313 0.475 0
M  V30 35 H -6.0653 0.7888 1.1498 0
M  V30 36 H -6.4971 1.1933 -0.5526 0
M  V30 37 H -5.044 -2.7792 0.2246 0
M  V30 38 H -4.8871 -1.5388 1.5209 0
M  V30 39 H -6.9767 -1.2215 0.1582 0
M  V30 40 H -5.9792 -1.0372 -1.3301 0
M  V30 END ATOM
M  V30 BEGIN BOND
M  V30 1 1 1 2
M  V30 2 2 2 3
M  V30 3 1 2 4
M  V30 4 1 3 5
M  V30 5 1 3 6
M  V30 6 2 4 7
M  V30 7 1 5 8
M  V30 8 2 6 9
M  V30 9 1 7 10
M  V30 10 1 8 11
M  V30 11 1 9 12
M  V30 12 2 11 13
M  V30 13 1 11 14
M  V30 14 2 12 15
M  V30 15 1 14 16
M  V30 16 1 15 17
M  V30 17 1 15 18
M  V30 18 1 17 19
M  V30 19 1 18 20
M  V30 20 1 18 21
M  V30 21 2 19 22
M  V30 22 1 20 23
M  V30 23 1 21 24
M  V30 24 1 23 25
M  V30 25 1 7 9
M  V30 26 1 19 20
M  V30 27 1 24 25
M  V30 28 1 4 26
M  V30 29 1 6 27
M  V30 30 1 8 28
M  V30 31 1 8 29
M  V30 32 1 16 30
M  V30 33 1 16 31
M  V30 34 1 16 32
M  V30 35 1 21 33
M  V30 36 1 21 34
M  V30 37 1 23 35
M  V30 38 1 23 36
M  V30 39 1 24 37
M  V30 40 1 24 38
M  V30 41 1 25 39
M  V30 42 1 25 40
M  V30 END BOND
M  V30 END CTAB
M  END
>  <Structure No>
5623

>  <LogS>
-5.6768

>  <MMFF94 Energy>
19.528

$$$$
Compound 5624
Actelion Java MolfileCreator 2.0

  0  0  0  0  0  0              0 V3000
M  V30 BEGIN CTAB
M  V30 COUNTS 22 21 0 0 0
M  V30 BEGIN ATOM
M  V30 1 O 3.2205 -0.7239 0.563 0
M  V30 2 C 2.6684 -0.4751 -0.5417 0
M  V30 3 O 2.9252 -1.2947 -1.6337 0 CHG=-1
M  V30 4 C 1.7155 0.6795 -0.6801 0 CFG=2
M  V30 5 O 1.9743 1.6332 0.3189 0
M  V30 6 C 0.23 0.2317 -0.6412 0 CFG=1
M  V30 7 O -0.0208 -0.7188 -1.6463 0
M  V30 8 C -0.2132 -0.3257 0.7423 0 CFG=2
M  V30 9 O 0.4542 -1.5277 1.0413 0
M  V30 10 C -1.7502 -0.5326 0.8312 0 CFG=1
M  V30 11 O -2.0969 -1.1996 2.0193 0
M  V30 12 C -2.5009 0.77 0.7431 0
M  V30 13 O -3.3069 0.9732 -0.2028 0
M  V30 14 O -2.3092 1.7563 1.7032 0 CHG=-1
M  V30 15 H 1.9127 1.1421 -1.6751 0
M  V30 16 H 1.5256 2.4734 0.0381 0
M  V30 17 H -0.3804 1.1414 -0.8486 0
M  V30 18 H -0.0139 -0.2332 -2.5123 0
M  V30 19 H 0.0719 0.4118 1.5239 0
M  V30 20 H 0.1448 -2.216 0.3962 0
M  V30 21 H -2.0677 -1.1809 -0.0148 0
M  V30 22 H -1.7625 -0.656 2.7806 0
M  V30 END ATOM
M  V30 BEGIN BOND
M  V30 1 2 1 2
M  V30 2 1 2 3
M  V30 3 1 2 4
M  V30 4 1 4 5
M  V30 5 1 4 6
M  V30 6 1 6 7
M  V30 7 1 6 8
M  V30 8 1 8 9
M  V30 9 1 8 10
M  V30 10 1 10 11
M  V30 11 1 10 12
M  V30 12 2 12 13
M  V30 13 1 12 14
M  V30 14 1 4 15
M  V30 15 1 5 16
M  V30 16 1 6 17
M  V30 17 1 7 18
M  V30 18 1 8 19
M  V30 19 1 9 20
M  V30 20 1 10 21
M  V30 21 1 11 22
M  V30 END BOND
M  V30 BEGIN COLLECTION
M  V30 MDLV30/STEABS ATOMS=(4 4 6 8 10)
M  V30 END COLLECTION
M  V30 END CTAB
M  END
>  <Structure No>
5624

>  <LogS>
0.1999

>  <MMFF94 Energy>
189.78

$$$$
Compound 5625
Actelion Java MolfileCreator 2.0

  0  0  0  0  0  0              0 V3000
M  V30 BEGIN CTAB
M  V30 COUNTS 43 44 0 0 0
M  V30 BEGIN ATOM
M  V30 1 S 3.3959 0.5791 1.2414 0
M  V30 2 C 2.269 0.678 -0.1377 0
M  V30 3 C 4.4116 1.8318 0.3978 0
M  V30 4 N 2.4339 1.6743 -0.9381 0
M  V30 5 C 1.2999 -0.396 -0.4322 0
M  V30 6 C 3.4889 2.5899 -0.5517 0
M  V30 7 C 1.5651 -1.3201 -1.4685 0
M  V30 8 C 0.1003 -0.5202 0.3199 0
M  V30 9 N 0.6699 -2.305 -1.729 0
M  V30 10 C 2.8111 -1.2501 -2.3189 0
M  V30 11 C -0.7943 -1.5834 0.0201 0
M  V30 12 C -0.2745 0.528 1.3666 0
M  V30 13 C -0.4762 -2.477 -1.0254 0
M  V30 14 F 2.8938 -2.3573 -3.1458 0
M  V30 15 F 3.9385 -1.2218 -1.5181 0
M  V30 16 F 2.777 -0.116 -3.1089 0
M  V30 17 C -2.0558 -1.7592 0.7721 0
M  V30 18 C -1.3446 1.5192 0.8532 0
M  V30 19 C -1.3875 -3.6097 -1.4209 0
M  V30 20 O -2.0238 -1.9973 2.0104 0
M  V30 21 O -3.2763 -1.6845 0.0953 0
M  V30 22 C -1.8575 2.3884 2.0079 0
M  V30 23 C -0.7992 2.4101 -0.2709 0
M  V30 24 F -2.3812 -3.1327 -2.2553 0
M  V30 25 F -0.6744 -4.5912 -2.0867 0
M  V30 26 C -4.5274 -1.8372 0.7537 0
M  V30 27 H 5.2083 1.316 -0.1797 0
M  V30 28 H 4.8747 2.5192 1.1368 0
M  V30 29 H 3.0394 3.4593 -0.0249 0
M  V30 30 H 4.0382 2.9435 -1.4495 0
M  V30 31 H 0.606 1.1004 1.7203 0
M  V30 32 H -0.6436 0.0166 2.2785 0
M  V30 33 H -2.2127 0.9536 0.4521 0
M  V30 34 H -1.8509 -4.0749 -0.5257 0
M  V30 35 H -2.6458 3.083 1.6463 0
M  V30 36 H -2.3023 1.7493 2.8004 0
M  V30 37 H -1.0289 2.9837 2.4489 0
M  V30 38 H -0.506 1.7934 -1.1461 0
M  V30 39 H 0.0822 2.9885 0.0797 0
M  V30 40 H -1.5814 3.1228 -0.609 0
M  V30 41 H -4.5897 -2.842 1.2226 0
M  V30 42 H -4.6459 -1.0516 1.53 0
M  V30 43 H -5.3448 -1.7355 0.0108 0
M  V30 END ATOM
M  V30 BEGIN BOND
M  V30 1 1 1 2
M  V30 2 1 1 3
M  V30 3 2 2 4
M  V30 4 1 2 5
M  V30 5 1 3 6
M  V30 6 2 5 7
M  V30 7 1 5 8
M  V30 8 1 7 9
M  V30 9 1 7 10
M  V30 10 2 8 11
M  V30 11 1 8 12
M  V30 12 2 9 13
M  V30 13 1 10 14
M  V30 14 1 10 15
M  V30 15 1 10 16
M  V30 16 1 11 17
M  V30 17 1 12 18
M  V30 18 1 13 19
M  V30 19 2 17 20
M  V30 20 1 17 21
M  V30 21 1 18 22
M  V30 22 1 18 23
M  V30 23 1 19 24
M  V30 24 1 19 25
M  V30 25 1 21 26
M  V30 26 1 4 6
M  V30 27 1 11 13
M  V30 28 1 3 27
M  V30 29 1 3 28
M  V30 30 1 6 29
M  V30 31 1 6 30
M  V30 32 1 12 31
M  V30 33 1 12 32
M  V30 34 1 18 33
M  V30 35 1 19 34
M  V30 36 1 22 35
M  V30 37 1 22 36
M  V30 38 1 22 37
M  V30 39 1 23 38
M  V30 40 1 23 39
M  V30 41 1 23 40
M  V30 42 1 26 41
M  V30 43 1 26 42
M  V30 44 1 26 43
M  V30 END BOND
M  V30 END CTAB
M  END
>  <Structure No>
5625

>  <LogS>
-5.2002

>  <MMFF94 Energy>
119.3

$$$$
Compound 5626
Actelion Java MolfileCreator 2.0

  0  0  0  0  0  0              0 V3000
M  V30 BEGIN CTAB
M  V30 COUNTS 57 58 0 0 0
M  V30 BEGIN ATOM
M  V30 1 O -0.0788 -1.1043 0.6309 0
M  V30 2 C -0.5609 -0.0948 1.4936 0 CFG=1
M  V30 3 C 0.8661 -1.8254 1.3605 0 CFG=2
M  V30 4 O 0.2818 0.0478 2.6158 0
M  V30 5 C -1.9824 -0.4526 1.9701 0
M  V30 6 C -0.5964 1.2434 0.7372 0
M  V30 7 C 1.0117 -1.1355 2.6979 0
M  V30 8 C 2.1959 -2.0045 0.5707 0
M  V30 9 C -2.9798 -0.4976 0.8038 0
M  V30 10 C -1.5829 1.2092 -0.438 0
M  V30 11 N 2.5755 -0.8645 -0.3163 0 CHG=1 CFG=1
M  V30 12 C -3.0175 0.8494 0.0332 0 CFG=2
M  V30 13 C 3.1862 0.2532 0.4519 0
M  V30 14 C 3.4369 -1.3347 -1.4369 0
M  V30 15 C -4.0944 0.8879 -1.1252 0
M  V30 16 C 3.3835 1.5437 -0.3823 0
M  V30 17 C 4.7665 -1.9739 -1.0032 0
M  V30 18 C -4.13 2.2927 -1.7759 0
M  V30 19 C -3.8102 -0.153 -2.233 0
M  V30 20 C -5.5068 0.6144 -0.5518 0
M  V30 21 C 4.8497 1.8048 -0.7263 0
M  V30 22 H 0.4491 -2.841 1.5474 0
M  V30 23 H -2.3256 0.2955 2.7188 0
M  V30 24 H -1.9678 -1.4447 2.4719 0
M  V30 25 H 0.4165 1.4805 0.3494 0
M  V30 26 H -0.8849 2.0607 1.435 0
M  V30 27 H 0.5836 -1.7656 3.5084 0
M  V30 28 H 2.0659 -0.9145 2.9653 0
M  V30 29 H 2.0543 -2.9216 -0.0458 0
M  V30 30 H 3.0206 -2.2454 1.2782 0
M  V30 31 H -3.9737 -0.7284 1.2371 0
M  V30 32 H -2.697 -1.3294 0.1252 0
M  V30 33 H -1.565 2.2149 -0.9042 0
M  V30 34 H -1.2198 0.4749 -1.1872 0
M  V30 35 H 1.7089 -0.4978 -0.7731 0
M  V30 36 H -3.3152 1.6297 0.7711 0
M  V30 37 H 2.5075 0.5385 1.2773 0
M  V30 38 H 4.1286 -0.063 0.9481 0
M  V30 39 H 2.8789 -2.0837 -2.0429 0
M  V30 40 H 3.6496 -0.5044 -2.142 0
M  V30 41 H 2.7776 1.5228 -1.3131 0
M  V30 42 H 3.0212 2.4144 0.208 0
M  V30 43 H 5.3227 -2.2963 -1.9084 0
M  V30 44 H 5.4082 -1.2565 -0.4557 0
M  V30 45 H 4.5958 -2.8731 -0.377 0
M  V30 46 H -4.2288 3.0832 -1.0008 0
M  V30 47 H -4.9896 2.3864 -2.4748 0
M  V30 48 H -3.2166 2.4886 -2.3746 0
M  V30 49 H -4.5869 -0.0921 -3.0262 0
M  V30 50 H -3.8284 -1.1874 -1.8339 0
M  V30 51 H -2.8296 0.0268 -2.7187 0
M  V30 52 H -5.6213 -0.4428 -0.2353 0
M  V30 53 H -5.7133 1.2748 0.3177 0
M  V30 54 H -6.2905 0.799 -1.3184 0
M  V30 55 H 5.2591 1.0018 -1.3706 0
M  V30 56 H 5.4565 1.8743 0.2014 0
M  V30 57 H 4.9345 2.7669 -1.2742 0
M  V30 END ATOM
M  V30 BEGIN BOND
M  V30 1 1 1 2
M  V30 2 1 1 3
M  V30 3 1 2 4
M  V30 4 1 2 5
M  V30 5 1 2 6
M  V30 6 1 3 7
M  V30 7 1 3 8
M  V30 8 1 5 9
M  V30 9 1 6 10
M  V30 10 1 8 11
M  V30 11 1 9 12
M  V30 12 1 11 13
M  V30 13 1 11 14
M  V30 14 1 12 15
M  V30 15 1 13 16
M  V30 16 1 14 17
M  V30 17 1 15 18
M  V30 18 1 15 19
M  V30 19 1 15 20
M  V30 20 1 16 21
M  V30 21 1 4 7
M  V30 22 1 10 12
M  V30 23 1 3 22
M  V30 24 1 5 23
M  V30 25 1 5 24
M  V30 26 1 6 25
M  V30 27 1 6 26
M  V30 28 1 7 27
M  V30 29 1 7 28
M  V30 30 1 8 29
M  V30 31 1 8 30
M  V30 32 1 9 31
M  V30 33 1 9 32
M  V30 34 1 10 33
M  V30 35 1 10 34
M  V30 36 1 11 35
M  V30 37 1 12 36
M  V30 38 1 13 37
M  V30 39 1 13 38
M  V30 40 1 14 39
M  V30 41 1 14 40
M  V30 42 1 16 41
M  V30 43 1 16 42
M  V30 44 1 17 43
M  V30 45 1 17 44
M  V30 46 1 17 45
M  V30 47 1 18 46
M  V30 48 1 18 47
M  V30 49 1 18 48
M  V30 50 1 19 49
M  V30 51 1 19 50
M  V30 52 1 19 51
M  V30 53 1 20 52
M  V30 54 1 20 53
M  V30 55 1 20 54
M  V30 56 1 21 55
M  V30 57 1 21 56
M  V30 58 1 21 57
M  V30 END BOND
M  V30 BEGIN COLLECTION
M  V30 MDLV30/STEABS ATOMS=(4 2 3 11 12)
M  V30 END COLLECTION
M  V30 END CTAB
M  END
>  <Structure No>
5626

>  <LogS>
-2.8014

>  <MMFF94 Energy>
60.179

$$$$
Compound 5627
Actelion Java MolfileCreator 2.0

  0  0  0  0  0  0              0 V3000
M  V30 BEGIN CTAB
M  V30 COUNTS 22 22 0 0 0
M  V30 BEGIN ATOM
M  V30 1 O -2.4699 2.4699 -1.1945 0
M  V30 2 N -2.5444 1.2259 -1.2687 0 CHG=1
M  V30 3 O -3.3233 0.6658 -2.2548 0 CHG=-1
M  V30 4 C -1.6481 0.4041 -0.5044 0
M  V30 5 C -2.0509 -0.8548 -0.0014 0
M  V30 6 C -0.332 0.8439 -0.2761 0
M  V30 7 O -3.3639 -1.3143 -0.114 0
M  V30 8 C -1.123 -1.6656 0.6611 0
M  V30 9 C 0.5854 0.0381 0.415 0
M  V30 10 C 0.1859 -1.227 0.8657 0
M  V30 11 C 2.0054 0.5005 0.6161 0
M  V30 12 C 2.9207 -0.0098 -0.5009 0
M  V30 13 O 2.5237 0.4993 -1.7459 0
M  V30 14 H -0.0132 1.8052 -0.661 0
M  V30 15 H -4.1239 -0.7362 -0.4474 0
M  V30 16 H -1.4245 -2.6357 1.0359 0
M  V30 17 H 0.8869 -1.871 1.3823 0
M  V30 18 H 2.3845 0.1281 1.5927 0
M  V30 19 H 2.0489 1.6111 0.655 0
M  V30 20 H 3.9727 0.2834 -0.2845 0
M  V30 21 H 2.8834 -1.1196 -0.5373 0
M  V30 22 H 2.7991 1.453 -1.7635 0
M  V30 END ATOM
M  V30 BEGIN BOND
M  V30 1 2 1 2
M  V30 2 1 2 3
M  V30 3 1 2 4
M  V30 4 2 4 5
M  V30 5 1 4 6
M  V30 6 1 5 7
M  V30 7 1 5 8
M  V30 8 2 6 9
M  V30 9 2 8 10
M  V30 10 1 9 11
M  V30 11 1 11 12
M  V30 12 1 12 13
M  V30 13 1 9 10
M  V30 14 1 6 14
M  V30 15 1 7 15
M  V30 16 1 8 16
M  V30 17 1 10 17
M  V30 18 1 11 18
M  V30 19 1 11 19
M  V30 20 1 12 20
M  V30 21 1 12 21
M  V30 22 1 13 22
M  V30 END BOND
M  V30 END CTAB
M  END
>  <Structure No>
5627

>  <LogS>
-1.1556

>  <MMFF94 Energy>
64.394

$$$$
Compound 5628
Actelion Java MolfileCreator 2.0

  0  0  0  0  0  0              0 V3000
M  V30 BEGIN CTAB
M  V30 COUNTS 21 22 0 0 0
M  V30 BEGIN ATOM
M  V30 1 O -0.9602 -1.5206 -2.8025 0
M  V30 2 C -1.069 -0.7849 -1.7871 0
M  V30 3 O -2.2642 -0.2327 -1.3443 0
M  V30 4 C 0.0018 -0.3832 -0.9128 0
M  V30 5 C -2.0399 0.5513 -0.1651 0 CFG=2
M  V30 6 C -0.5564 0.4128 0.0582 0
M  V30 7 C 1.3658 -0.6647 -0.9504 0
M  V30 8 C -2.8433 -0.0125 1.0032 0
M  V30 9 C 0.2373 0.988 1.0519 0
M  V30 10 C 2.1868 -0.1039 0.0478 0
M  V30 11 C 1.6179 0.7222 1.0455 0
M  V30 12 N 3.5921 -0.366 0.0498 0
M  V30 13 H -2.3081 1.6127 -0.3555 0
M  V30 14 H 1.7782 -1.2943 -1.7284 0
M  V30 15 H -2.5688 -1.0733 1.1881 0
M  V30 16 H -2.6489 0.58 1.9222 0
M  V30 17 H -3.9275 0.0414 0.77 0
M  V30 18 H -0.1988 1.6243 1.8108 0
M  V30 19 H 2.2448 1.159 1.8123 0
M  V30 20 H 4.0232 -0.9732 -0.6824 0
M  V30 21 H 4.2113 0.045 0.7836 0
M  V30 END ATOM
M  V30 BEGIN BOND
M  V30 1 2 1 2
M  V30 2 1 2 3
M  V30 3 1 2 4
M  V30 4 1 3 5
M  V30 5 2 4 6
M  V30 6 1 4 7
M  V30 7 1 5 8
M  V30 8 1 6 9
M  V30 9 2 7 10
M  V30 10 2 9 11
M  V30 11 1 10 12
M  V30 12 1 5 6
M  V30 13 1 10 11
M  V30 14 1 5 13
M  V30 15 1 7 14
M  V30 16 1 8 15
M  V30 17 1 8 16
M  V30 18 1 8 17
M  V30 19 1 9 18
M  V30 20 1 11 19
M  V30 21 1 12 20
M  V30 22 1 12 21
M  V30 END BOND
M  V30 BEGIN COLLECTION
M  V30 MDLV30/STEABS ATOMS=(1 5)
M  V30 END COLLECTION
M  V30 END CTAB
M  END
>  <Structure No>
5628

>  <LogS>
-1.7891

>  <MMFF94 Energy>
17.46

$$$$
Compound 5629
Actelion Java MolfileCreator 2.0

  0  0  0  0  0  0              0 V3000
M  V30 BEGIN CTAB
M  V30 COUNTS 35 36 0 0 0
M  V30 BEGIN ATOM
M  V30 1 Cl -5.4556 -1.9279 -2.0957 0
M  V30 2 C -4.4571 -0.65 -1.4218 0
M  V30 3 Cl -5.1482 0.9643 -1.2775 0
M  V30 4 C -3.2055 -0.9246 -1.0297 0
M  V30 5 C -2.2999 0.1322 -0.4526 0 CFG=1
M  V30 6 C -2.3994 0.3865 1.0579 0
M  V30 7 C -1.2144 -0.4082 0.4886 0 CFG=2
M  V30 8 C -3.4049 -0.433 1.8809 0
M  V30 9 C -2.1839 1.846 1.4862 0
M  V30 10 C 0.1009 0.3031 0.3926 0
M  V30 11 O 0.7361 0.5762 1.4469 0
M  V30 12 O 0.6309 0.6151 -0.8645 0
M  V30 13 C 1.8957 1.2476 -1.046 0
M  V30 14 C 3.0148 0.2872 -0.7314 0
M  V30 15 C 3.8544 0.4916 0.3813 0
M  V30 16 C 3.2139 -0.8437 -1.5447 0
M  V30 17 F 3.6844 1.5681 1.1909 0
M  V30 18 C 4.8771 -0.4201 0.6665 0
M  V30 19 F 2.4133 -1.0677 -2.6183 0
M  V30 20 C 4.2388 -1.7501 -1.2525 0
M  V30 21 F 5.6846 -0.2212 1.7378 0
M  V30 22 C 5.0687 -1.5379 -0.149 0
M  V30 23 F 4.4278 -2.8385 -2.0392 0
M  V30 24 H -2.8229 -1.9342 -1.1504 0
M  V30 25 H -2.0141 0.9959 -1.0924 0
M  V30 26 H -1.2112 -1.5067 0.6595 0
M  V30 27 H -4.4243 -0.0156 1.7423 0
M  V30 28 H -3.138 -0.3699 2.9564 0
M  V30 29 H -3.4168 -1.5057 1.5929 0
M  V30 30 H -3.1652 2.3623 1.5386 0
M  V30 31 H -1.7144 1.8709 2.4918 0
M  V30 32 H -1.5389 2.4075 0.7773 0
M  V30 33 H 1.9834 1.5651 -2.1066 0
M  V30 34 H 1.9474 2.17 -0.4283 0
M  V30 35 H 5.8605 -2.2413 0.0751 0
M  V30 END ATOM
M  V30 BEGIN BOND
M  V30 1 1 1 2
M  V30 2 1 2 3
M  V30 3 2 2 4
M  V30 4 1 4 5
M  V30 5 1 5 6
M  V30 6 1 5 7
M  V30 7 1 6 8
M  V30 8 1 6 9
M  V30 9 1 7 10
M  V30 10 2 10 11
M  V30 11 1 10 12
M  V30 12 1 12 13
M  V30 13 1 13 14
M  V30 14 2 14 15
M  V30 15 1 14 16
M  V30 16 1 15 17
M  V30 17 1 15 18
M  V30 18 1 16 19
M  V30 19 2 16 20
M  V30 20 1 18 21
M  V30 21 2 18 22
M  V30 22 1 20 23
M  V30 23 1 6 7
M  V30 24 1 20 22
M  V30 25 1 4 24
M  V30 26 1 5 25
M  V30 27 1 7 26
M  V30 28 1 8 27
M  V30 29 1 8 28
M  V30 30 1 8 29
M  V30 31 1 9 30
M  V30 32 1 9 31
M  V30 33 1 9 32
M  V30 34 1 13 33
M  V30 35 1 13 34
M  V30 36 1 22 35
M  V30 END BOND
M  V30 BEGIN COLLECTION
M  V30 MDLV30/STEABS ATOMS=(2 5 7)
M  V30 END COLLECTION
M  V30 END CTAB
M  END
>  <Structure No>
5629

>  <LogS>
-6.8137

>  <MMFF94 Energy>
19.208

$$$$
Compound 5630
Actelion Java MolfileCreator 2.0

  0  0  0  0  0  0              0 V3000
M  V30 BEGIN CTAB
M  V30 COUNTS 30 31 0 0 0
M  V30 BEGIN ATOM
M  V30 1 S 5.5211 0.0834 -0.7515 0
M  V30 2 O 5.6166 -0.6109 -2.0811 0
M  V30 3 O 6.3151 -0.6926 0.2609 0
M  V30 4 N 6.1602 1.6833 -0.8881 0
M  V30 5 C 3.8438 0.1574 -0.2467 0
M  V30 6 S 3.322 0.2788 1.3428 0
M  V30 7 C 2.7434 0.1684 -1.0893 0
M  V30 8 C 1.6792 0.3333 0.9855 0
M  V30 9 C 1.5224 0.2531 -0.3993 0
M  V30 10 C 0.215 0.3138 -1.0906 0
M  V30 11 O 0.1821 0.6869 -2.295 0
M  V30 12 C -1.0574 -0.0374 -0.4171 0
M  V30 13 C -2.2328 0.6642 -0.7317 0
M  V30 14 C -1.1233 -1.0998 0.5008 0
M  V30 15 C -3.4442 0.3319 -0.1179 0
M  V30 16 C -2.3347 -1.4306 1.1145 0
M  V30 17 C -3.5022 -0.7201 0.815 0
M  V30 18 O -4.6923 -1.0908 1.4585 0
M  V30 19 C -5.9509 -0.459 1.2466 0
M  V30 20 H 6.0057 2.1532 0.0314 0
M  V30 21 H 5.5706 2.1878 -1.5873 0
M  V30 22 H 2.8225 0.1164 -2.1671 0
M  V30 23 H 0.8873 0.4405 1.7146 0
M  V30 24 H -2.211 1.4794 -1.4452 0
M  V30 25 H -0.2428 -1.6858 0.7317 0
M  V30 26 H -4.3285 0.8983 -0.3766 0
M  V30 27 H -2.368 -2.249 1.8223 0
M  V30 28 H -5.8922 0.6134 1.528 0
M  V30 29 H -6.7151 -0.9512 1.8818 0
M  V30 30 H -6.2543 -0.559 0.1832 0
M  V30 END ATOM
M  V30 BEGIN BOND
M  V30 1 2 1 2
M  V30 2 2 1 3
M  V30 3 1 1 4
M  V30 4 1 1 5
M  V30 5 1 5 6
M  V30 6 2 5 7
M  V30 7 1 6 8
M  V30 8 1 7 9
M  V30 9 1 9 10
M  V30 10 2 10 11
M  V30 11 1 10 12
M  V30 12 2 12 13
M  V30 13 1 12 14
M  V30 14 1 13 15
M  V30 15 2 14 16
M  V30 16 2 15 17
M  V30 17 1 17 18
M  V30 18 1 18 19
M  V30 19 2 8 9
M  V30 20 1 16 17
M  V30 21 1 4 20
M  V30 22 1 4 21
M  V30 23 1 7 22
M  V30 24 1 8 23
M  V30 25 1 13 24
M  V30 26 1 14 25
M  V30 27 1 15 26
M  V30 28 1 16 27
M  V30 29 1 19 28
M  V30 30 1 19 29
M  V30 31 1 19 30
M  V30 END BOND
M  V30 END CTAB
M  END
>  <Structure No>
5630

>  <LogS>
-4.4733

>  <MMFF94 Energy>
-6.1172

$$$$
Compound 5631
Actelion Java MolfileCreator 2.0

  0  0  0  0  0  0              0 V3000
M  V30 BEGIN CTAB
M  V30 COUNTS 27 28 0 0 0
M  V30 BEGIN ATOM
M  V30 1 S 4.7147 0.5043 -0.5884 0
M  V30 2 O 5.3682 1.8573 -0.5504 0
M  V30 3 O 5.0478 -0.1622 -1.8931 0
M  V30 4 N 5.2967 -0.4594 0.7228 0
M  V30 5 C 2.977 0.6886 -0.4537 0
M  V30 6 S 2.195 2.0092 0.2247 0
M  V30 7 C 2.032 -0.2346 -0.8721 0
M  V30 8 C 0.6338 1.4271 -0.006 0
M  V30 9 C 0.7124 0.1726 -0.6138 0
M  V30 10 C -0.4653 -0.6341 -1.0037 0
M  V30 11 O -0.3402 -1.4837 -1.9271 0
M  V30 12 C -1.7874 -0.4738 -0.3545 0
M  V30 13 C -1.8916 -0.2212 1.0253 0
M  V30 14 C -2.9626 -0.6241 -1.1108 0
M  V30 15 C -3.1464 -0.0916 1.6281 0
M  V30 16 C -4.216 -0.4938 -0.5052 0
M  V30 17 C -4.3122 -0.2251 0.8632 0
M  V30 18 O -5.5678 -0.097 1.453 0
M  V30 19 H 5.0766 0.0582 1.603 0
M  V30 20 H 6.3376 -0.4886 0.6421 0
M  V30 21 H 2.2909 -1.1743 -1.3428 0
M  V30 22 H -0.2727 1.9556 0.2563 0
M  V30 23 H -1.0047 -0.1411 1.6409 0
M  V30 24 H -2.9101 -0.8308 -2.1727 0
M  V30 25 H -3.2114 0.1054 2.6906 0
M  V30 26 H -5.1138 -0.6026 -1.1002 0
M  V30 27 H -5.6708 0.0964 2.4424 0
M  V30 END ATOM
M  V30 BEGIN BOND
M  V30 1 2 1 2
M  V30 2 2 1 3
M  V30 3 1 1 4
M  V30 4 1 1 5
M  V30 5 1 5 6
M  V30 6 2 5 7
M  V30 7 1 6 8
M  V30 8 1 7 9
M  V30 9 1 9 10
M  V30 10 2 10 11
M  V30 11 1 10 12
M  V30 12 2 12 13
M  V30 13 1 12 14
M  V30 14 1 13 15
M  V30 15 2 14 16
M  V30 16 2 15 17
M  V30 17 1 17 18
M  V30 18 2 8 9
M  V30 19 1 16 17
M  V30 20 1 4 19
M  V30 21 1 4 20
M  V30 22 1 7 21
M  V30 23 1 8 22
M  V30 24 1 13 23
M  V30 25 1 14 24
M  V30 26 1 15 25
M  V30 27 1 16 26
M  V30 28 1 18 27
M  V30 END BOND
M  V30 END CTAB
M  END
>  <Structure No>
5631

>  <LogS>
-2.8612

>  <MMFF94 Energy>
-18.805

$$$$
Compound 5632
Actelion Java MolfileCreator 2.0

  0  0  0  0  0  0              0 V3000
M  V30 BEGIN CTAB
M  V30 COUNTS 30 31 0 0 0
M  V30 BEGIN ATOM
M  V30 1 S -5.4171 0.6554 -0.3276 0
M  V30 2 O -5.884 -0.2073 -1.4657 0
M  V30 3 O -5.826 2.0778 -0.5882 0
M  V30 4 N -6.138 0.1181 1.149 0
M  V30 5 C -3.6712 0.568 -0.2039 0
M  V30 6 O -2.8739 1.6069 -0.2935 0
M  V30 7 C -2.9438 -0.5834 0.0066 0
M  V30 8 C -1.6347 1.1952 -0.1525 0
M  V30 9 C -1.624 -0.1782 0.0274 0
M  V30 10 C -0.4537 -1.0461 0.2705 0
M  V30 11 O -0.6392 -2.1834 0.7824 0
M  V30 12 C 0.9275 -0.6213 -0.0528 0
M  V30 13 C 1.9915 -1.0087 0.7782 0
M  V30 14 C 1.2041 0.1259 -1.2102 0
M  V30 15 C 3.3029 -0.6297 0.4758 0
M  V30 16 C 2.5156 0.5038 -1.5119 0
M  V30 17 C 3.5737 0.1344 -0.6746 0
M  V30 18 O 4.8711 0.5402 -1.0208 0
M  V30 19 C 6.0376 0.2354 -0.2632 0
M  V30 20 H -5.7256 0.6935 1.9172 0
M  V30 21 H -5.8204 -0.8647 1.3048 0
M  V30 22 H -3.328 -1.5876 0.1304 0
M  V30 23 H -0.7742 1.8506 -0.1661 0
M  V30 24 H 1.8058 -1.5953 1.6698 0
M  V30 25 H 0.4104 0.4015 -1.893 0
M  V30 26 H 4.0976 -0.9367 1.142 0
M  V30 27 H 2.7118 1.0816 -2.4063 0
M  V30 28 H 6.1777 -0.8645 -0.204 0
M  V30 29 H 5.9533 0.6657 0.7572 0
M  V30 30 H 6.9217 0.6799 -0.7642 0
M  V30 END ATOM
M  V30 BEGIN BOND
M  V30 1 2 1 2
M  V30 2 2 1 3
M  V30 3 1 1 4
M  V30 4 1 1 5
M  V30 5 1 5 6
M  V30 6 2 5 7
M  V30 7 1 6 8
M  V30 8 1 7 9
M  V30 9 1 9 10
M  V30 10 2 10 11
M  V30 11 1 10 12
M  V30 12 2 12 13
M  V30 13 1 12 14
M  V30 14 1 13 15
M  V30 15 2 14 16
M  V30 16 2 15 17
M  V30 17 1 17 18
M  V30 18 1 18 19
M  V30 19 2 8 9
M  V30 20 1 16 17
M  V30 21 1 4 20
M  V30 22 1 4 21
M  V30 23 1 7 22
M  V30 24 1 8 23
M  V30 25 1 13 24
M  V30 26 1 14 25
M  V30 27 1 15 26
M  V30 28 1 16 27
M  V30 29 1 19 28
M  V30 30 1 19 29
M  V30 31 1 19 30
M  V30 END BOND
M  V30 END CTAB
M  END
>  <Structure No>
5632

>  <LogS>
-4.1481

>  <MMFF94 Energy>
7.8141

$$$$
Compound 5633
Actelion Java MolfileCreator 2.0

  0  0  0  0  0  0              0 V3000
M  V30 BEGIN CTAB
M  V30 COUNTS 29 30 0 0 0
M  V30 BEGIN ATOM
M  V30 1 S 5.1038 -1.0861 0.4176 0
M  V30 2 O 5.4415 -1.3782 -1.017 0
M  V30 3 O 5.4895 -2.2688 1.2606 0
M  V30 4 N 5.9771 0.3072 0.9502 0
M  V30 5 C 3.3808 -0.7969 0.565 0
M  V30 6 S 2.3956 -1.4142 1.7752 0
M  V30 7 C 2.6241 0.0059 -0.2731 0
M  V30 8 C 0.9804 -0.6773 1.2427 0
M  V30 9 C 1.2699 0.0657 0.0966 0
M  V30 10 C 0.2771 0.8886 -0.6298 0
M  V30 11 O 0.6845 1.8576 -1.3268 0
M  V30 12 C -1.1784 0.6205 -0.5608 0
M  V30 13 C -2.089 1.6902 -0.5749 0
M  V30 14 C -1.6721 -0.6954 -0.5261 0
M  V30 15 C -3.4655 1.4503 -0.5285 0
M  V30 16 C -3.0486 -0.9345 -0.4803 0
M  V30 17 C -3.9542 0.1363 -0.4934 0
M  V30 18 C -5.4296 -0.1197 -0.4044 0
M  V30 19 H 5.6696 0.5039 1.9292 0
M  V30 20 H 5.6548 1.1112 0.3663 0
M  V30 21 H 3.0399 0.5303 -1.124 0
M  V30 22 H 0.0181 -0.751 1.7316 0
M  V30 23 H -1.7343 2.7133 -0.6065 0
M  V30 24 H -0.9951 -1.54 -0.5486 0
M  V30 25 H -4.15 2.2897 -0.5218 0
M  V30 26 H -3.4081 -1.9554 -0.4421 0
M  V30 27 H -5.689 -1.0889 -0.8811 0
M  V30 28 H -5.9982 0.6809 -0.924 0
M  V30 29 H -5.7358 -0.1472 0.6621 0
M  V30 END ATOM
M  V30 BEGIN BOND
M  V30 1 2 1 2
M  V30 2 2 1 3
M  V30 3 1 1 4
M  V30 4 1 1 5
M  V30 5 1 5 6
M  V30 6 2 5 7
M  V30 7 1 6 8
M  V30 8 1 7 9
M  V30 9 1 9 10
M  V30 10 2 10 11
M  V30 11 1 10 12
M  V30 12 2 12 13
M  V30 13 1 12 14
M  V30 14 1 13 15
M  V30 15 2 14 16
M  V30 16 2 15 17
M  V30 17 1 17 18
M  V30 18 2 8 9
M  V30 19 1 16 17
M  V30 20 1 4 19
M  V30 21 1 4 20
M  V30 22 1 7 21
M  V30 23 1 8 22
M  V30 24 1 13 23
M  V30 25 1 14 24
M  V30 26 1 15 25
M  V30 27 1 16 26
M  V30 28 1 18 27
M  V30 29 1 18 28
M  V30 30 1 18 29
M  V30 END BOND
M  V30 END CTAB
M  END
>  <Structure No>
5633

>  <LogS>
-4.4492

>  <MMFF94 Energy>
-6.4741

$$$$
Compound 5634
Actelion Java MolfileCreator 2.0

  0  0  0  0  0  0              0 V3000
M  V30 BEGIN CTAB
M  V30 COUNTS 45 47 0 0 0
M  V30 BEGIN ATOM
M  V30 1 Cl 2.6371 2.8021 -2.3897 0
M  V30 2 C 1.4741 1.8032 -1.5243 0
M  V30 3 C 1.7924 1.1513 -0.3127 0
M  V30 4 C 0.1986 1.6525 -2.0792 0
M  V30 5 C 0.8191 0.3512 0.3126 0
M  V30 6 C 3.1613 1.2613 0.3236 0
M  V30 7 C -0.761 0.8606 -1.4465 0
M  V30 8 C -0.4636 0.2156 -0.2383 0
M  V30 9 O 3.8238 0.0116 0.3605 0
M  V30 10 N -1.4367 -0.627 0.4008 0
M  V30 11 C 4.2428 -0.3708 -0.9357 0
M  V30 12 N -1.1609 -1.8414 0.8448 0
M  V30 13 C -2.7671 -0.4238 0.5465 0
M  V30 14 C 5.201 -1.567 -0.8407 0
M  V30 15 C -2.3378 -2.3601 1.2464 0
M  V30 16 N -3.3725 -1.5069 1.0732 0
M  V30 17 C -3.4935 0.8312 0.2463 0
M  V30 18 F 5.3368 -2.1304 -2.0984 0
M  V30 19 F 4.6636 -2.5202 0.0101 0
M  V30 20 C 6.5907 -1.1545 -0.3304 0
M  V30 21 C -2.479 -3.7198 1.7858 0
M  V30 22 C -4.7791 0.7807 -0.3227 0
M  V30 23 C -2.9306 2.0789 0.5592 0
M  V30 24 F 7.3906 -2.2747 -0.2188 0
M  V30 25 F 6.4946 -0.5525 0.9101 0
M  V30 26 F 7.1847 -0.2734 -1.2202 0
M  V30 27 O -1.4616 -4.454 1.899 0
M  V30 28 N -3.7575 -4.2256 2.1709 0
M  V30 29 C -5.466 1.9589 -0.6208 0
M  V30 30 C -3.6163 3.2561 0.2501 0
M  V30 31 C -4.8773 3.197 -0.3516 0
M  V30 32 H -0.0487 2.1429 -3.0117 0
M  V30 33 H 1.0584 -0.1608 1.2376 0
M  V30 34 H 3.8001 2.045 -0.1378 0
M  V30 35 H 3.0173 1.5971 1.3728 0
M  V30 36 H -1.7333 0.738 -1.9079 0
M  V30 37 H 3.3584 -0.6839 -1.5378 0
M  V30 38 H 4.7516 0.4625 -1.4755 0
M  V30 39 H -5.245 -0.1705 -0.5492 0
M  V30 40 H -1.9667 2.1421 1.0462 0
M  V30 41 H -4.6223 -3.6517 2.0526 0
M  V30 42 H -3.843 -5.1793 2.5794 0
M  V30 43 H -6.4541 1.9138 -1.0657 0
M  V30 44 H -3.1725 4.2138 0.4821 0
M  V30 45 H -5.4078 4.109 -0.5912 0
M  V30 END ATOM
M  V30 BEGIN BOND
M  V30 1 1 1 2
M  V30 2 2 2 3
M  V30 3 1 2 4
M  V30 4 1 3 5
M  V30 5 1 3 6
M  V30 6 2 4 7
M  V30 7 2 5 8
M  V30 8 1 6 9
M  V30 9 1 8 10
M  V30 10 1 9 11
M  V30 11 1 10 12
M  V30 12 1 10 13
M  V30 13 1 11 14
M  V30 14 2 12 15
M  V30 15 2 13 16
M  V30 16 1 13 17
M  V30 17 1 14 18
M  V30 18 1 14 19
M  V30 19 1 14 20
M  V30 20 1 15 21
M  V30 21 2 17 22
M  V30 22 1 17 23
M  V30 23 1 20 24
M  V30 24 1 20 25
M  V30 25 1 20 26
M  V30 26 2 21 27
M  V30 27 1 21 28
M  V30 28 1 22 29
M  V30 29 2 23 30
M  V30 30 2 29 31
M  V30 31 1 7 8
M  V30 32 1 15 16
M  V30 33 1 30 31
M  V30 34 1 4 32
M  V30 35 1 5 33
M  V30 36 1 6 34
M  V30 37 1 6 35
M  V30 38 1 7 36
M  V30 39 1 11 37
M  V30 40 1 11 38
M  V30 41 1 22 39
M  V30 42 1 23 40
M  V30 43 1 28 41
M  V30 44 1 28 42
M  V30 45 1 29 43
M  V30 46 1 30 44
M  V30 47 1 31 45
M  V30 END BOND
M  V30 END CTAB
M  END
>  <Structure No>
5634

>  <LogS>
-5.6635

>  <MMFF94 Energy>
194.27

$$$$
Compound 5635
Actelion Java MolfileCreator 2.0

  0  0  0  0  0  0              0 V3000
M  V30 BEGIN CTAB
M  V30 COUNTS 47 48 0 0 0
M  V30 BEGIN ATOM
M  V30 1 Cl 2.1551 -1.6759 -1.0372 0
M  V30 2 C 3.1333 -0.276 -0.6188 0
M  V30 3 C 2.9645 0.6054 0.4353 0
M  V30 4 C 4.1873 0.2457 -1.3477 0
M  V30 5 N 3.8922 1.5833 0.3179 0
M  V30 6 C 1.9329 0.5274 1.4898 0
M  V30 7 N 4.6382 1.3685 -0.755 0
M  V30 8 C 4.7955 -0.3445 -2.5829 0
M  V30 9 C 4.0832 2.7268 1.2041 0
M  V30 10 O 1.46 1.589 1.9781 0
M  V30 11 N 1.4722 -0.7446 1.9657 0
M  V30 12 C 5.8194 -1.4138 -2.22 0
M  V30 13 C 0.2379 -0.8903 2.7327 0
M  V30 14 C -0.9509 -0.6699 1.838 0
M  V30 15 C -1.6929 0.5141 1.9149 0
M  V30 16 C -1.2929 -1.6304 0.8793 0
M  V30 17 C -2.771 0.7296 1.0534 0
M  V30 18 C -2.3701 -1.4191 0.0146 0
M  V30 19 C -3.1362 -0.231 0.0835 0
M  V30 20 C -4.3298 0.048 -0.8531 0
M  V30 21 C -4.0506 1.3248 -1.6754 0
M  V30 22 C -5.6091 0.2493 -0.0119 0
M  V30 23 C -4.6005 -1.1037 -1.8509 0
M  V30 24 H 4.0009 -0.7906 -3.2183 0
M  V30 25 H 5.2941 0.4572 -3.1689 0
M  V30 26 H 3.2485 3.4465 1.0717 0
M  V30 27 H 4.1203 2.3864 2.2604 0
M  V30 28 H 5.0388 3.2404 0.9658 0
M  V30 29 H 2.0363 -1.6009 1.7674 0
M  V30 30 H 6.6317 -0.9753 -1.6017 0
M  V30 31 H 5.3331 -2.2381 -1.6556 0
M  V30 32 H 6.264 -1.8322 -3.1473 0
M  V30 33 H 0.2399 -0.1834 3.5911 0
M  V30 34 H 0.1866 -1.9169 3.1561 0
M  V30 35 H -1.4355 1.2764 2.6398 0
M  V30 36 H -0.7182 -2.5451 0.7968 0
M  V30 37 H -3.317 1.6584 1.1475 0
M  V30 38 H -2.5835 -2.1969 -0.7026 0
M  V30 39 H -3.109 1.2125 -2.2553 0
M  V30 40 H -4.8793 1.5232 -2.3893 0
M  V30 41 H -3.9536 2.2177 -1.023 0
M  V30 42 H -5.5265 1.1343 0.6529 0
M  V30 43 H -5.8007 -0.645 0.6197 0
M  V30 44 H -6.492 0.4089 -0.6684 0
M  V30 45 H -4.8382 -2.0466 -1.3122 0
M  V30 46 H -5.4688 -0.8646 -2.5029 0
M  V30 47 H -3.7233 -1.269 -2.513 0
M  V30 END ATOM
M  V30 BEGIN BOND
M  V30 1 1 1 2
M  V30 2 2 2 3
M  V30 3 1 2 4
M  V30 4 1 3 5
M  V30 5 1 3 6
M  V30 6 2 4 7
M  V30 7 1 4 8
M  V30 8 1 5 9
M  V30 9 2 6 10
M  V30 10 1 6 11
M  V30 11 1 8 12
M  V30 12 1 11 13
M  V30 13 1 13 14
M  V30 14 2 14 15
M  V30 15 1 14 16
M  V30 16 1 15 17
M  V30 17 2 16 18
M  V30 18 2 17 19
M  V30 19 1 19 20
M  V30 20 1 20 21
M  V30 21 1 20 22
M  V30 22 1 20 23
M  V30 23 1 5 7
M  V30 24 1 18 19
M  V30 25 1 8 24
M  V30 26 1 8 25
M  V30 27 1 9 26
M  V30 28 1 9 27
M  V30 29 1 9 28
M  V30 30 1 11 29
M  V30 31 1 12 30
M  V30 32 1 12 31
M  V30 33 1 12 32
M  V30 34 1 13 33
M  V30 35 1 13 34
M  V30 36 1 15 35
M  V30 37 1 16 36
M  V30 38 1 17 37
M  V30 39 1 18 38
M  V30 40 1 21 39
M  V30 41 1 21 40
M  V30 42 1 21 41
M  V30 43 1 22 42
M  V30 44 1 22 43
M  V30 45 1 22 44
M  V30 46 1 23 45
M  V30 47 1 23 46
M  V30 48 1 23 47
M  V30 END BOND
M  V30 END CTAB
M  END
>  <Structure No>
5635

>  <LogS>
-5.1086

>  <MMFF94 Energy>
-16.624

$$$$
Compound 5636
Actelion Java MolfileCreator 2.0

  0  0  0  0  0  0              0 V3000
M  V30 BEGIN CTAB
M  V30 COUNTS 51 54 0 0 0
M  V30 BEGIN ATOM
M  V30 1 Cl 10.8439 -2.7637 -1.1373 0
M  V30 2 C 9.478 -2.0195 -0.3267 0
M  V30 3 C 8.1753 -2.2764 -0.7724 0
M  V30 4 C 9.6916 -1.1695 0.7666 0
M  V30 5 C 7.0875 -1.6814 -0.1242 0
M  V30 6 C 8.6062 -0.5733 1.418 0
M  V30 7 N 5.8165 -1.9241 -0.5376 0
M  V30 8 C 7.3037 -0.8264 0.975 0
M  V30 9 C 4.7528 -1.35 0.084 0
M  V30 10 N 6.2372 -0.2558 1.5943 0
M  V30 11 C 4.9649 -0.4826 1.1709 0
M  V30 12 O 3.9037 0.1181 1.8628 0
M  V30 13 C 2.6681 0.4769 1.3044 0
M  V30 14 C 2.5499 0.9009 -0.0299 0
M  V30 15 C 1.5306 0.4553 2.1178 0
M  V30 16 C 1.3031 1.2673 -0.5444 0
M  V30 17 C 0.2824 0.8196 1.604 0
M  V30 18 C 0.1597 1.231 0.2623 0
M  V30 19 O -1.0658 1.6067 -0.3127 0
M  V30 20 C -2.3144 1.7165 0.3753 0 CFG=2
M  V30 21 C -3.4234 1.7517 -0.6312 0
M  V30 22 C -2.3489 2.9908 1.2227 0
M  V30 23 O -3.3191 2.4759 -1.6594 0
M  V30 24 O -4.5821 1.0047 -0.4023 0
M  V30 25 C -5.6841 1.0 -1.3051 0
M  V30 26 C -6.7808 0.069 -0.7839 0 CFG=1
M  V30 27 O -7.8896 0.1016 -1.6545 0
M  V30 28 C -6.3022 -1.3689 -0.6565 0
M  V30 29 C -8.3609 -1.2201 -1.798 0
M  V30 30 C -7.5514 -2.1497 -0.9145 0
M  V30 31 H 8.0113 -2.935 -1.6165 0
M  V30 32 H 10.6981 -0.9712 1.1122 0
M  V30 33 H 8.7794 0.0824 2.2622 0
M  V30 34 H 3.7526 -1.5852 -0.2534 0
M  V30 35 H 3.422 0.9677 -0.6668 0
M  V30 36 H 1.6131 0.1462 3.152 0
M  V30 37 H 1.2254 1.5894 -1.5751 0
M  V30 38 H -0.5737 0.7759 2.2609 0
M  V30 39 H -2.4719 0.8274 1.0229 0
M  V30 40 H -3.3279 3.0796 1.7406 0
M  V30 41 H -2.1952 3.8861 0.5825 0
M  V30 42 H -1.5509 2.9698 1.9925 0
M  V30 43 H -6.0923 2.0305 -1.3925 0
M  V30 44 H -5.3474 0.6648 -2.3108 0
M  V30 45 H -7.1118 0.4326 0.2151 0
M  V30 46 H -5.5452 -1.614 -1.435 0
M  V30 47 H -5.8863 -1.5786 0.3529 0
M  V30 48 H -8.2529 -1.5234 -2.8618 0
M  V30 49 H -9.4369 -1.2653 -1.5256 0
M  V30 50 H -7.3368 -3.118 -1.4172 0
M  V30 51 H -8.0903 -2.3319 0.0417 0
M  V30 END ATOM
M  V30 BEGIN BOND
M  V30 1 1 1 2
M  V30 2 2 2 3
M  V30 3 1 2 4
M  V30 4 1 3 5
M  V30 5 2 4 6
M  V30 6 2 5 7
M  V30 7 1 5 8
M  V30 8 1 7 9
M  V30 9 2 8 10
M  V30 10 2 9 11
M  V30 11 1 11 12
M  V30 12 1 12 13
M  V30 13 2 13 14
M  V30 14 1 13 15
M  V30 15 1 14 16
M  V30 16 2 15 17
M  V30 17 2 16 18
M  V30 18 1 18 19
M  V30 19 1 19 20
M  V30 20 1 20 21
M  V30 21 1 20 22
M  V30 22 2 21 23
M  V30 23 1 21 24
M  V30 24 1 24 25
M  V30 25 1 25 26
M  V30 26 1 26 27
M  V30 27 1 26 28
M  V30 28 1 27 29
M  V30 29 1 28 30
M  V30 30 1 6 8
M  V30 31 1 10 11
M  V30 32 1 17 18
M  V30 33 1 29 30
M  V30 34 1 3 31
M  V30 35 1 4 32
M  V30 36 1 6 33
M  V30 37 1 9 34
M  V30 38 1 14 35
M  V30 39 1 15 36
M  V30 40 1 16 37
M  V30 41 1 17 38
M  V30 42 1 20 39
M  V30 43 1 22 40
M  V30 44 1 22 41
M  V30 45 1 22 42
M  V30 46 1 25 43
M  V30 47 1 25 44
M  V30 48 1 26 45
M  V30 49 1 28 46
M  V30 50 1 28 47
M  V30 51 1 29 48
M  V30 52 1 29 49
M  V30 53 1 30 50
M  V30 54 1 30 51
M  V30 END BOND
M  V30 BEGIN COLLECTION
M  V30 MDLV30/STEABS ATOMS=(2 20 26)
M  V30 END COLLECTION
M  V30 END CTAB
M  END
>  <Structure No>
5636

>  <LogS>
-5.0303

>  <MMFF94 Energy>
136.55

$$$$
Compound 5637
Actelion Java MolfileCreator 2.0

  0  0  0  0  0  0              0 V3000
M  V30 BEGIN CTAB
M  V30 COUNTS 30 31 0 0 0
M  V30 BEGIN ATOM
M  V30 1 Cl -0.5244 -2.0991 1.2241 0
M  V30 2 C -1.4204 -0.6199 0.9 0
M  V30 3 C -0.769 0.5388 0.4393 0
M  V30 4 C -2.8 -0.6033 1.1309 0
M  V30 5 N 0.6447 0.5308 0.2016 0
M  V30 6 C -1.5142 1.7102 0.2188 0
M  V30 7 C -3.5453 0.57 0.9298 0
M  V30 8 N 1.5114 1.2149 0.9335 0
M  V30 9 C 1.2996 -0.1302 -0.7757 0
M  V30 10 Cl -0.7457 3.1711 -0.3885 0
M  V30 11 C -2.8936 1.7186 0.4515 0
M  V30 12 C -5.0401 0.5691 1.1319 0
M  V30 13 C 2.7383 0.9846 0.4246 0
M  V30 14 N 0.6629 -0.9134 -1.7895 0
M  V30 15 C 2.6521 0.1342 -0.6624 0
M  V30 16 F -5.6581 0.1967 -0.0469 0
M  V30 17 F -5.3982 -0.3211 2.1296 0
M  V30 18 F -5.4855 1.828 1.4967 0
M  V30 19 C 3.9431 1.5556 0.9611 0
M  V30 20 S 4.0084 -0.458 -1.6567 0 CFG=2
M  V30 21 N 4.9135 2.0151 1.3927 0
M  V30 22 O 3.5017 -0.409 -3.0917 0
M  V30 23 C 4.1862 -2.2101 -1.2628 0
M  V30 24 F 4.5077 -2.3482 0.0738 0
M  V30 25 F 5.198 -2.7511 -2.0324 0
M  V30 26 F 3.008 -2.8836 -1.5205 0
M  V30 27 H -3.2886 -1.5079 1.4711 0
M  V30 28 H -3.4564 2.6225 0.2534 0
M  V30 29 H -0.3753 -1.0149 -1.8088 0
M  V30 30 H 1.2142 -1.3762 -2.5429 0
M  V30 END ATOM
M  V30 BEGIN BOND
M  V30 1 1 1 2
M  V30 2 2 2 3
M  V30 3 1 2 4
M  V30 4 1 3 5
M  V30 5 1 3 6
M  V30 6 2 4 7
M  V30 7 1 5 8
M  V30 8 1 5 9
M  V30 9 1 6 10
M  V30 10 2 6 11
M  V30 11 1 7 12
M  V30 12 2 8 13
M  V30 13 1 9 14
M  V30 14 2 9 15
M  V30 15 1 12 16
M  V30 16 1 12 17
M  V30 17 1 12 18
M  V30 18 1 13 19
M  V30 19 1 15 20
M  V30 20 3 19 21
M  V30 21 2 20 22
M  V30 22 1 20 23
M  V30 23 1 23 24
M  V30 24 1 23 25
M  V30 25 1 23 26
M  V30 26 1 7 11
M  V30 27 1 13 15
M  V30 28 1 4 27
M  V30 29 1 11 28
M  V30 30 1 14 29
M  V30 31 1 14 30
M  V30 END BOND
M  V30 BEGIN COLLECTION
M  V30 MDLV30/STEABS ATOMS=(1 20)
M  V30 END COLLECTION
M  V30 END CTAB
M  END
>  <Structure No>
5637

>  <LogS>
-5.3619

>  <MMFF94 Energy>
139.58

$$$$
Compound 5638
Actelion Java MolfileCreator 2.0

  0  0  0  0  0  0              0 V3000
M  V30 BEGIN CTAB
M  V30 COUNTS 44 46 0 0 0
M  V30 BEGIN ATOM
M  V30 1 S -2.2144 0.9837 2.5428 0
M  V30 2 O -1.8471 0.5445 3.9316 0
M  V30 3 O -3.2168 2.0985 2.6422 0
M  V30 4 N -0.7894 1.5618 1.7475 0 CHG=-1
M  V30 5 C -2.9214 -0.3389 1.6019 0
M  V30 6 C 0.2833 0.6962 1.3728 0
M  V30 7 N -3.1443 -1.5956 2.0498 0
M  V30 8 C -3.2993 -0.2863 0.2681 0
M  V30 9 O 0.2336 -0.5298 1.6632 0
M  V30 10 N 1.4085 1.2403 0.6682 0
M  V30 11 N -3.6406 -2.3365 1.071 0
M  V30 12 C -2.8797 -2.1235 3.3833 0
M  V30 13 C -3.2476 0.8435 -0.6753 0
M  V30 14 C -3.7452 -1.5614 -0.0251 0
M  V30 15 C 2.5188 0.4678 0.1875 0
M  V30 16 N -2.8715 2.0993 -0.3576 0
M  V30 17 N -3.589 0.75 -1.9757 0
M  V30 18 N 3.5392 1.0931 -0.4581 0
M  V30 19 N 2.5633 -0.8807 0.3623 0
M  V30 20 N -2.98 2.7854 -1.4836 0
M  V30 21 N -3.3943 1.9722 -2.4391 0
M  V30 22 C 4.608 0.3962 -0.9327 0
M  V30 23 C 3.6107 -1.6194 -0.0944 0
M  V30 24 C -3.692 2.3898 -3.8003 0
M  V30 25 O 5.6526 1.0476 -1.5951 0
M  V30 26 C 4.6625 -0.9865 -0.7567 0
M  V30 27 O 3.6458 -3.0043 0.0913 0
M  V30 28 C 5.6645 2.4528 -1.8178 0
M  V30 29 C 2.6084 -3.7167 0.7554 0
M  V30 30 H 1.4125 2.2687 0.4818 0
M  V30 31 H -3.2046 -3.1839 3.4469 0
M  V30 32 H -3.4444 -1.5391 4.1398 0
M  V30 33 H -1.7914 -2.0763 3.5977 0
M  V30 34 H -4.1208 -1.9071 -0.9791 0
M  V30 35 H -3.0474 3.2489 -4.0832 0
M  V30 36 H -4.7575 2.6926 -3.8704 0
M  V30 37 H -3.5016 1.5517 -4.5033 0
M  V30 38 H 5.5045 -1.5574 -1.1274 0
M  V30 39 H 6.5932 2.7282 -2.3584 0
M  V30 40 H 5.6398 2.9923 -0.847 0
M  V30 41 H 4.7885 2.7478 -2.4338 0
M  V30 42 H 2.8648 -4.7958 0.7798 0
M  V30 43 H 1.6488 -3.5867 0.2112 0
M  V30 44 H 2.5011 -3.3484 1.798 0
M  V30 END ATOM
M  V30 BEGIN BOND
M  V30 1 2 1 2
M  V30 2 2 1 3
M  V30 3 1 1 4
M  V30 4 1 1 5
M  V30 5 1 4 6
M  V30 6 1 5 7
M  V30 7 2 5 8
M  V30 8 2 6 9
M  V30 9 1 6 10
M  V30 10 1 7 11
M  V30 11 1 7 12
M  V30 12 1 8 13
M  V30 13 1 8 14
M  V30 14 1 10 15
M  V30 15 1 13 16
M  V30 16 2 13 17
M  V30 17 2 15 18
M  V30 18 1 15 19
M  V30 19 2 16 20
M  V30 20 1 17 21
M  V30 21 1 18 22
M  V30 22 2 19 23
M  V30 23 1 21 24
M  V30 24 1 22 25
M  V30 25 2 22 26
M  V30 26 1 23 27
M  V30 27 1 25 28
M  V30 28 1 27 29
M  V30 29 2 11 14
M  V30 30 1 20 21
M  V30 31 1 23 26
M  V30 32 1 10 30
M  V30 33 1 12 31
M  V30 34 1 12 32
M  V30 35 1 12 33
M  V30 36 1 14 34
M  V30 37 1 24 35
M  V30 38 1 24 36
M  V30 39 1 24 37
M  V30 40 1 26 38
M  V30 41 1 28 39
M  V30 42 1 28 40
M  V30 43 1 28 41
M  V30 44 1 29 42
M  V30 45 1 29 43
M  V30 46 1 29 44
M  V30 END BOND
M  V30 END CTAB
M  END
>  <Structure No>
5638

>  <LogS>
-2.6066

>  <MMFF94 Energy>
-135.95

$$$$
Compound 5639
Actelion Java MolfileCreator 2.0

  0  0  0  0  0  0              0 V3000
M  V30 BEGIN CTAB
M  V30 COUNTS 33 33 0 0 0
M  V30 BEGIN ATOM
M  V30 1 Cl 4.6512 2.1632 -2.8048 0
M  V30 2 C 3.5761 1.5049 -1.5884 0
M  V30 3 N 3.3378 0.167 -1.5527 0
M  V30 4 C 2.9618 2.3491 -0.66 0
M  V30 5 C 2.5102 -0.3877 -0.6273 0
M  V30 6 C 2.1075 1.8035 0.2994 0
M  V30 7 C 1.8753 0.4214 0.3271 0
M  V30 8 C 0.9307 -0.1742 1.3338 0
M  V30 9 N -0.4601 -0.0176 0.8922 0
M  V30 10 C -1.056 -1.0277 0.0611 0
M  V30 11 C -1.2642 1.1334 1.3221 0
M  V30 12 N -0.7877 -1.0271 -1.2182 0 CHG=1
M  V30 13 C -2.0014 -2.0078 0.6618 0 CHG=-1
M  V30 14 C -1.6294 2.0147 0.1312 0
M  V30 15 C -1.3176 -1.9949 -2.1769 0
M  V30 16 N -2.1443 -2.1921 2.0758 0 CHG=1
M  V30 17 O -1.3319 -1.6967 2.8826 0
M  V30 18 O -3.1341 -3.0214 2.5469 0 CHG=-1
M  V30 19 H 3.1424 3.4162 -0.6822 0
M  V30 20 H 2.3415 -1.4567 -0.6408 0
M  V30 21 H 1.6262 2.456 1.0172 0
M  V30 22 H 1.1581 -1.2516 1.4918 0
M  V30 23 H 1.0814 0.3171 2.3196 0
M  V30 24 H -2.1934 0.7786 1.8174 0
M  V30 25 H -0.7057 1.7502 2.0588 0
M  V30 26 H -0.1511 -0.2901 -1.5972 0
M  V30 27 H -2.63 -2.6064 0.0169 0
M  V30 28 H -2.2783 1.4578 -0.5769 0
M  V30 29 H -2.1808 2.9108 0.4858 0
M  V30 30 H -0.7112 2.3451 -0.3977 0
M  V30 31 H -1.035 -3.0261 -1.8757 0
M  V30 32 H -0.8931 -1.796 -3.1837 0
M  V30 33 H -2.4224 -1.9031 -2.242 0
M  V30 END ATOM
M  V30 BEGIN BOND
M  V30 1 1 1 2
M  V30 2 2 2 3
M  V30 3 1 2 4
M  V30 4 1 3 5
M  V30 5 2 4 6
M  V30 6 2 5 7
M  V30 7 1 7 8
M  V30 8 1 8 9
M  V30 9 1 9 10
M  V30 10 1 9 11
M  V30 11 2 10 12
M  V30 12 1 10 13
M  V30 13 1 11 14
M  V30 14 1 12 15
M  V30 15 1 13 16
M  V30 16 2 16 17
M  V30 17 1 16 18
M  V30 18 1 6 7
M  V30 19 1 4 19
M  V30 20 1 5 20
M  V30 21 1 6 21
M  V30 22 1 8 22
M  V30 23 1 8 23
M  V30 24 1 11 24
M  V30 25 1 11 25
M  V30 26 1 12 26
M  V30 27 1 13 27
M  V30 28 1 14 28
M  V30 29 1 14 29
M  V30 30 1 14 30
M  V30 31 1 15 31
M  V30 32 1 15 32
M  V30 33 1 15 33
M  V30 END BOND
M  V30 END CTAB
M  END
>  <Structure No>
5639

>  <LogS>
0.4918

>  <MMFF94 Energy>
-40.256

$$$$
Compound 5640
Actelion Java MolfileCreator 2.0

  0  0  0  0  0  0              0 V3000
M  V30 BEGIN CTAB
M  V30 COUNTS 45 47 0 0 0
M  V30 BEGIN ATOM
M  V30 1 O 2.7912 0.7171 -0.8765 0
M  V30 2 C 3.6587 0.461 0.1943 0
M  V30 3 C 1.3751 0.8202 -0.7391 0
M  V30 4 N 3.1776 0.3653 1.465 0
M  V30 5 C 5.035 0.3055 -0.0337 0
M  V30 6 C 0.7493 -0.5679 -0.5853 0
M  V30 7 C 3.9991 0.1194 2.5179 0
M  V30 8 C 5.8698 0.0507 1.0761 0
M  V30 9 C 5.5967 0.3934 -1.319 0
M  V30 10 C -0.7465 -0.4632 -0.4551 0
M  V30 11 N 5.3333 -0.0359 2.3209 0
M  V30 12 C 7.2479 -0.112 0.8924 0
M  V30 13 C 6.9749 0.2292 -1.492 0
M  V30 14 C -1.3352 -0.2851 0.8022 0
M  V30 15 C -1.56 -0.4848 -1.5941 0
M  V30 16 C 7.7979 -0.0225 -0.3898 0
M  V30 17 C -2.7207 -0.1548 0.9223 0
M  V30 18 C -2.947 -0.3547 -1.4788 0
M  V30 19 C -3.5602 -0.1893 -0.2137 0
M  V30 20 C -5.086 -0.0406 -0.0385 0
M  V30 21 C -5.3983 1.3224 0.6167 0
M  V30 22 C -5.614 -1.1767 0.8646 0
M  V30 23 C -5.8601 -0.1071 -1.3771 0
M  V30 24 H 0.9706 1.3018 -1.655 0
M  V30 25 H 1.1202 1.4668 0.1295 0
M  V30 26 H 1.1682 -1.0759 0.3098 0
M  V30 27 H 1.0128 -1.1901 -1.4684 0
M  V30 28 H 3.5894 0.0476 3.516 0
M  V30 29 H 4.9777 0.5873 -2.1863 0
M  V30 30 H 7.8931 -0.3075 1.7401 0
M  V30 31 H 7.4062 0.2972 -2.4824 0
M  V30 32 H -0.72 -0.2451 1.6927 0
M  V30 33 H -1.1194 -0.6011 -2.5769 0
M  V30 34 H 8.8637 -0.1488 -0.5298 0
M  V30 35 H -3.1332 -0.0226 1.9133 0
M  V30 36 H -3.5203 -0.3833 -2.3932 0
M  V30 37 H -4.9879 2.1507 -4.0E-4 0
M  V30 38 H -4.9609 1.3961 1.6344 0
M  V30 39 H -6.4958 1.4705 0.715 0
M  V30 40 H -5.1805 -1.1228 1.8851 0
M  V30 41 H -6.7191 -1.1156 0.97 0
M  V30 42 H -5.3589 -2.1669 0.4287 0
M  V30 43 H -6.9537 -8.0E-4 -1.2059 0
M  V30 44 H -5.5489 0.7157 -2.0565 0
M  V30 45 H -5.6953 -1.0836 -1.8819 0
M  V30 END ATOM
M  V30 BEGIN BOND
M  V30 1 1 1 2
M  V30 2 1 1 3
M  V30 3 2 2 4
M  V30 4 1 2 5
M  V30 5 1 3 6
M  V30 6 1 4 7
M  V30 7 1 5 8
M  V30 8 2 5 9
M  V30 9 1 6 10
M  V30 10 2 7 11
M  V30 11 2 8 12
M  V30 12 1 9 13
M  V30 13 2 10 14
M  V30 14 1 10 15
M  V30 15 1 12 16
M  V30 16 1 14 17
M  V30 17 2 15 18
M  V30 18 2 17 19
M  V30 19 1 19 20
M  V30 20 1 20 21
M  V30 21 1 20 22
M  V30 22 1 20 23
M  V30 23 1 8 11
M  V30 24 2 13 16
M  V30 25 1 18 19
M  V30 26 1 3 24
M  V30 27 1 3 25
M  V30 28 1 6 26
M  V30 29 1 6 27
M  V30 30 1 7 28
M  V30 31 1 9 29
M  V30 32 1 12 30
M  V30 33 1 13 31
M  V30 34 1 14 32
M  V30 35 1 15 33
M  V30 36 1 16 34
M  V30 37 1 17 35
M  V30 38 1 18 36
M  V30 39 1 21 37
M  V30 40 1 21 38
M  V30 41 1 21 39
M  V30 42 1 22 40
M  V30 43 1 22 41
M  V30 44 1 22 42
M  V30 45 1 23 43
M  V30 46 1 23 44
M  V30 47 1 23 45
M  V30 END BOND
M  V30 END CTAB
M  END
>  <Structure No>
5640

>  <LogS>
-6.1439

>  <MMFF94 Energy>
41.676

$$$$
Compound 5641
Actelion Java MolfileCreator 2.0

  0  0  0  0  0  0              0 V3000
M  V30 BEGIN CTAB
M  V30 COUNTS 29 29 0 0 0
M  V30 BEGIN ATOM
M  V30 1 O 4.3866 0.4692 -1.2517 0
M  V30 2 C 3.1104 0.2334 -0.7192 0
M  V30 3 C 5.605 0.2277 -0.5557 0
M  V30 4 C 2.9153 -0.274 0.5784 0
M  V30 5 C 1.995 0.516 -1.5148 0
M  V30 6 C 1.6223 -0.4917 1.0632 0
M  V30 7 C 0.7014 0.2989 -1.0313 0
M  V30 8 C 0.5019 -0.2084 0.2666 0
M  V30 9 N -0.8168 -0.4438 0.7957 0
M  V30 10 C -2.0442 -0.1696 0.0437 0
M  V30 11 C -3.2965 -0.5136 0.8752 0 CFG=1
M  V30 12 O -3.3466 0.2453 2.0586 0
M  V30 13 C -4.5891 -0.3385 0.0631 0
M  V30 14 O -4.7348 0.9911 -0.3556 0
M  V30 15 H 6.4571 0.5013 -1.2109 0
M  V30 16 H 5.6885 -0.8483 -0.2944 0
M  V30 17 H 5.6493 0.8491 0.3635 0
M  V30 18 H 3.7548 -0.5035 1.2203 0
M  V30 19 H 2.132 0.9067 -2.5151 0
M  V30 20 H 1.4936 -0.8827 2.0648 0
M  V30 21 H -0.1345 0.5292 -1.6774 0
M  V30 22 H -0.8949 -0.8313 1.7643 0
M  V30 23 H -2.0675 0.9048 -0.2406 0
M  V30 24 H -2.0445 -0.7839 -0.8829 0
M  V30 25 H -3.2311 -1.5859 1.1629 0
M  V30 26 H -3.3406 1.205 1.8041 0
M  V30 27 H -4.5638 -1.0115 -0.8232 0
M  V30 28 H -5.4571 -0.628 0.6969 0
M  V30 29 H -5.5829 1.0262 -0.8699 0
M  V30 END ATOM
M  V30 BEGIN BOND
M  V30 1 1 1 2
M  V30 2 1 1 3
M  V30 3 2 2 4
M  V30 4 1 2 5
M  V30 5 1 4 6
M  V30 6 2 5 7
M  V30 7 2 6 8
M  V30 8 1 8 9
M  V30 9 1 9 10
M  V30 10 1 10 11
M  V30 11 1 11 12
M  V30 12 1 11 13
M  V30 13 1 13 14
M  V30 14 1 7 8
M  V30 15 1 3 15
M  V30 16 1 3 16
M  V30 17 1 3 17
M  V30 18 1 4 18
M  V30 19 1 5 19
M  V30 20 1 6 20
M  V30 21 1 7 21
M  V30 22 1 9 22
M  V30 23 1 10 23
M  V30 24 1 10 24
M  V30 25 1 11 25
M  V30 26 1 12 26
M  V30 27 1 13 27
M  V30 28 1 13 28
M  V30 29 1 14 29
M  V30 END BOND
M  V30 BEGIN COLLECTION
M  V30 MDLV30/STEABS ATOMS=(1 11)
M  V30 END COLLECTION
M  V30 END CTAB
M  END
>  <Structure No>
5641

>  <LogS>
-0.295

>  <MMFF94 Energy>
56.324

$$$$
Compound 5642
Actelion Java MolfileCreator 2.0

  0  0  0  0  0  0              0 V3000
M  V30 BEGIN CTAB
M  V30 COUNTS 30 31 0 0 0
M  V30 BEGIN ATOM
M  V30 1 Cl -3.5338 1.3138 -3.4515 0
M  V30 2 C -2.6776 1.4815 -1.8952 0
M  V30 3 Cl -3.7023 2.39 -0.7588 0
M  V30 4 C -2.3503 0.1354 -1.3077 0
M  V30 5 O -3.1629 -0.8138 -1.4746 0
M  V30 6 N -1.1677 -0.0624 -0.501 0
M  V30 7 C -0.7433 -1.318 0.115 0
M  V30 8 C -0.2349 0.9794 -0.1692 0
M  V30 9 O 0.4828 -1.0845 0.7817 0
M  V30 10 C -0.5038 -2.3919 -0.9552 0
M  V30 11 C -1.7746 -1.7948 1.1487 0
M  V30 12 C 0.7001 0.3102 0.8228 0 CFG=1
M  V30 13 C 2.1355 0.6081 0.5101 0
M  V30 14 O 2.8511 -0.0552 -0.3687 0
M  V30 15 C 2.8852 1.6296 1.0576 0
M  V30 16 C 4.0494 0.4796 -0.4204 0
M  V30 17 C 4.1227 1.5425 0.4574 0
M  V30 18 H -1.7546 2.0636 -2.0892 0
M  V30 19 H -0.7597 1.8367 0.3056 0
M  V30 20 H 0.2917 1.3122 -1.0913 0
M  V30 21 H -0.0646 -3.3008 -0.4912 0
M  V30 22 H 0.206 -2.0117 -1.7205 0
M  V30 23 H -1.4486 -2.6823 -1.4586 0
M  V30 24 H -1.9796 -0.9856 1.8818 0
M  V30 25 H -1.3816 -2.6755 1.7005 0
M  V30 26 H -2.7295 -2.0871 0.6658 0
M  V30 27 H 0.4673 0.6675 1.8509 0
M  V30 28 H 2.5684 2.3524 1.7979 0
M  V30 29 H 4.8473 0.1297 -1.0612 0
M  V30 30 H 4.9773 2.1814 0.6348 0
M  V30 END ATOM
M  V30 BEGIN BOND
M  V30 1 1 1 2
M  V30 2 1 2 3
M  V30 3 1 2 4
M  V30 4 2 4 5
M  V30 5 1 4 6
M  V30 6 1 6 7
M  V30 7 1 6 8
M  V30 8 1 7 9
M  V30 9 1 7 10
M  V30 10 1 7 11
M  V30 11 1 8 12
M  V30 12 1 12 13
M  V30 13 1 13 14
M  V30 14 2 13 15
M  V30 15 1 14 16
M  V30 16 1 15 17
M  V30 17 1 9 12
M  V30 18 2 16 17
M  V30 19 1 2 18
M  V30 20 1 8 19
M  V30 21 1 8 20
M  V30 22 1 10 21
M  V30 23 1 10 22
M  V30 24 1 10 23
M  V30 25 1 11 24
M  V30 26 1 11 25
M  V30 27 1 11 26
M  V30 28 1 12 27
M  V30 29 1 15 28
M  V30 30 1 16 29
M  V30 31 1 17 30
M  V30 END BOND
M  V30 BEGIN COLLECTION
M  V30 MDLV30/STEABS ATOMS=(1 12)
M  V30 END COLLECTION
M  V30 END CTAB
M  END
>  <Structure No>
5642

>  <LogS>
-3.1498

>  <MMFF94 Energy>
54.259

$$$$
Compound 5643
Actelion Java MolfileCreator 2.0

  0  0  0  0  0  0              0 V3000
M  V30 BEGIN CTAB
M  V30 COUNTS 46 47 0 0 0
M  V30 BEGIN ATOM
M  V30 1 F 3.0434 -2.7227 1.2805 0
M  V30 2 C 4.1773 -2.0914 0.8869 0
M  V30 3 C 4.5188 -0.8292 1.4114 0
M  V30 4 C 5.033 -2.7293 -0.0175 0
M  V30 5 O 3.6937 -0.1579 2.3249 0
M  V30 6 C 5.7373 -0.2423 1.0503 0
M  V30 7 C 6.2382 -2.1233 -0.3936 0
M  V30 8 C 2.2964 -0.0709 2.2384 0
M  V30 9 C 6.5911 -0.8808 0.1465 0
M  V30 10 C 7.1186 -2.7828 -1.3219 0
M  V30 11 C 1.6198 -0.1525 1.0095 0
M  V30 12 C 1.5627 0.1478 3.4079 0
M  V30 13 N 7.8274 -3.3136 -2.067 0
M  V30 14 C 0.2266 -0.0483 0.961 0
M  V30 15 C 0.1702 0.2521 3.3605 0
M  V30 16 C -0.5142 0.1485 2.1435 0
M  V30 17 O -1.9173 0.2612 2.172 0
M  V30 18 C -2.8348 0.0627 1.0888 0 CFG=1
M  V30 19 C -2.5919 1.038 -0.0308 0
M  V30 20 C -2.8509 -1.4026 0.6355 0
M  V30 21 O -2.4696 2.264 0.2384 0
M  V30 22 O -2.5367 0.589 -1.3576 0
M  V30 23 C -2.3573 1.4491 -2.4818 0
M  V30 24 C -3.6705 1.6391 -3.2498 0
M  V30 25 C -4.7476 2.3904 -2.4444 0
M  V30 26 C -5.6992 1.4427 -1.7144 0
M  V30 27 H 4.7578 -3.6961 -0.4203 0
M  V30 28 H 6.0184 0.7169 1.4655 0
M  V30 29 H 7.5265 -0.4085 -0.1277 0
M  V30 30 H 2.1695 -0.279 0.0859 0
M  V30 31 H 2.0734 0.23 4.359 0
M  V30 32 H -0.2496 -0.1094 -0.004 0
M  V30 33 H -0.3831 0.4127 4.2775 0
M  V30 34 H -3.8509 0.2824 1.4813 0
M  V30 35 H -3.0329 -2.061 1.511 0
M  V30 36 H -3.6705 -1.5641 -0.0973 0
M  V30 37 H -1.8919 -1.6994 0.166 0
M  V30 38 H -1.6234 0.9711 -3.1646 0
M  V30 39 H -1.9306 2.4317 -2.1856 0
M  V30 40 H -4.0492 0.652 -3.5956 0
M  V30 41 H -3.4399 2.2327 -4.1615 0
M  V30 42 H -4.2847 3.0922 -1.7177 0
M  V30 43 H -5.3551 3.0033 -3.1461 0
M  V30 44 H -5.1522 0.8009 -0.9964 0
M  V30 45 H -6.4503 2.0357 -1.1511 0
M  V30 46 H -6.2334 0.7962 -2.4435 0
M  V30 END ATOM
M  V30 BEGIN BOND
M  V30 1 1 1 2
M  V30 2 2 2 3
M  V30 3 1 2 4
M  V30 4 1 3 5
M  V30 5 1 3 6
M  V30 6 2 4 7
M  V30 7 1 5 8
M  V30 8 2 6 9
M  V30 9 1 7 10
M  V30 10 2 8 11
M  V30 11 1 8 12
M  V30 12 3 10 13
M  V30 13 1 11 14
M  V30 14 2 12 15
M  V30 15 2 14 16
M  V30 16 1 16 17
M  V30 17 1 17 18
M  V30 18 1 18 19
M  V30 19 1 18 20
M  V30 20 2 19 21
M  V30 21 1 19 22
M  V30 22 1 22 23
M  V30 23 1 23 24
M  V30 24 1 24 25
M  V30 25 1 25 26
M  V30 26 1 7 9
M  V30 27 1 15 16
M  V30 28 1 4 27
M  V30 29 1 6 28
M  V30 30 1 9 29
M  V30 31 1 11 30
M  V30 32 1 12 31
M  V30 33 1 14 32
M  V30 34 1 15 33
M  V30 35 1 18 34
M  V30 36 1 20 35
M  V30 37 1 20 36
M  V30 38 1 20 37
M  V30 39 1 23 38
M  V30 40 1 23 39
M  V30 41 1 24 40
M  V30 42 1 24 41
M  V30 43 1 25 42
M  V30 44 1 25 43
M  V30 45 1 26 44
M  V30 46 1 26 45
M  V30 47 1 26 46
M  V30 END BOND
M  V30 BEGIN COLLECTION
M  V30 MDLV30/STEABS ATOMS=(1 18)
M  V30 END COLLECTION
M  V30 END CTAB
M  END
>  <Structure No>
5643

>  <LogS>
-5.708

>  <MMFF94 Energy>
76.286

$$$$
Compound 5644
Actelion Java MolfileCreator 2.0

  0  0  0  0  0  0              0 V3000
M  V30 BEGIN CTAB
M  V30 COUNTS 39 41 0 0 0
M  V30 BEGIN ATOM
M  V30 1 Cl 1.0813 -3.9969 -1.8304 0
M  V30 2 C 1.4364 -2.3751 -1.2673 0
M  V30 3 N 1.3765 -1.2883 -2.0722 0
M  V30 4 C 1.7733 -1.9962 0.0255 0
M  V30 5 C 1.6805 -0.2688 -1.2434 0
M  V30 6 S 1.8284 -3.0189 1.4664 0
M  V30 7 N 1.9271 -0.6612 0.0196 0
M  V30 8 C 1.7101 1.0793 -1.5933 0
M  V30 9 O 3.2559 -3.1309 1.9199 0
M  V30 10 O 1.2975 -4.3919 1.1671 0
M  V30 11 N 0.8779 -2.3168 2.7358 0 CHG=-1
M  V30 12 C 2.2272 0.2049 1.0236 0
M  V30 13 C 2.0109 2.0091 -0.5857 0
M  V30 14 C -0.3574 -1.6365 2.5019 0
M  V30 15 C 2.2743 1.5743 0.7266 0
M  V30 16 O -0.8643 -0.9448 3.4239 0
M  V30 17 N -1.0091 -1.7199 1.23 0
M  V30 18 C -1.3951 -0.5517 0.4979 0
M  V30 19 N -1.7975 -0.6734 -0.7942 0
M  V30 20 N -1.2768 0.6852 1.052 0
M  V30 21 C -2.0947 0.4208 -1.5466 0
M  V30 22 C -1.5664 1.8077 0.3396 0
M  V30 23 O -2.4943 0.2865 -2.8789 0
M  V30 24 C -1.9871 1.6934 -0.9852 0
M  V30 25 O -1.4373 3.0746 0.9152 0
M  V30 26 C -2.579 -0.9751 -3.5306 0
M  V30 27 C -0.9988 3.2682 2.2546 0
M  V30 28 H 1.4969 1.4015 -2.6043 0
M  V30 29 H 2.4231 -0.1445 2.0285 0
M  V30 30 H 2.0372 3.0656 -0.8184 0
M  V30 31 H 2.5064 2.2922 1.5024 0
M  V30 32 H -1.0057 -2.6364 0.7293 0
M  V30 33 H -2.2155 2.5756 -1.5697 0
M  V30 34 H -3.315 -1.6236 -3.0101 0
M  V30 35 H -2.911 -0.823 -4.578 0
M  V30 36 H -1.5831 -1.467 -3.5363 0
M  V30 37 H -0.9735 4.3548 2.4767 0
M  V30 38 H -1.6997 2.7728 2.9596 0
M  V30 39 H 0.0215 2.8506 2.3854 0
M  V30 END ATOM
M  V30 BEGIN BOND
M  V30 1 1 1 2
M  V30 2 1 2 3
M  V30 3 2 2 4
M  V30 4 2 3 5
M  V30 5 1 4 6
M  V30 6 1 4 7
M  V30 7 1 5 8
M  V30 8 2 6 9
M  V30 9 2 6 10
M  V30 10 1 6 11
M  V30 11 1 7 12
M  V30 12 2 8 13
M  V30 13 1 11 14
M  V30 14 2 12 15
M  V30 15 2 14 16
M  V30 16 1 14 17
M  V30 17 1 17 18
M  V30 18 2 18 19
M  V30 19 1 18 20
M  V30 20 1 19 21
M  V30 21 2 20 22
M  V30 22 1 21 23
M  V30 23 2 21 24
M  V30 24 1 22 25
M  V30 25 1 23 26
M  V30 26 1 25 27
M  V30 27 1 5 7
M  V30 28 1 13 15
M  V30 29 1 22 24
M  V30 30 1 8 28
M  V30 31 1 12 29
M  V30 32 1 13 30
M  V30 33 1 15 31
M  V30 34 1 17 32
M  V30 35 1 24 33
M  V30 36 1 26 34
M  V30 37 1 26 35
M  V30 38 1 26 36
M  V30 39 1 27 37
M  V30 40 1 27 38
M  V30 41 1 27 39
M  V30 END BOND
M  V30 END CTAB
M  END
>  <Structure No>
5644

>  <LogS>
-4.7886

>  <MMFF94 Energy>
-148.93

$$$$
Compound 5645
Actelion Java MolfileCreator 2.0

  0  0  0  0  0  0              0 V3000
M  V30 BEGIN CTAB
M  V30 COUNTS 21 20 0 0 0
M  V30 BEGIN ATOM
M  V30 1 Cl 4.5599 -0.0812 -0.2438 0
M  V30 2 C 3.2768 0.5981 -1.2726 0
M  V30 3 C 1.9909 -0.1173 -1.0096 0
M  V30 4 O 1.6278 -1.0446 -1.783 0
M  V30 5 N 1.2005 0.2234 0.1387 0
M  V30 6 C -0.0898 -0.4128 0.4195 0 CFG=1
M  V30 7 C -0.382 -0.3391 1.8947 0
M  V30 8 C -1.1963 0.2709 -0.4019 0
M  V30 9 O -0.5107 -1.3956 2.5678 0
M  V30 10 O -0.5111 0.8935 2.5244 0 CHG=-1
M  V30 11 C -2.5068 -0.4511 -0.2734 0
M  V30 12 O -2.738 -1.4594 -0.9926 0
M  V30 13 N -3.4773 -0.0279 0.6843 0
M  V30 14 H 3.1612 1.6793 -1.0484 0
M  V30 15 H 3.5685 0.4879 -2.3386 0
M  V30 16 H 1.5234 1.0139 0.7428 0
M  V30 17 H -0.0347 -1.4863 0.1278 0
M  V30 18 H -1.3129 1.33 -0.0834 0
M  V30 19 H -0.905 0.2826 -1.4747 0
M  V30 20 H -3.2954 0.7948 1.301 0
M  V30 21 H -4.3809 -0.5421 0.781 0
M  V30 END ATOM
M  V30 BEGIN BOND
M  V30 1 1 1 2
M  V30 2 1 2 3
M  V30 3 2 3 4
M  V30 4 1 3 5
M  V30 5 1 5 6
M  V30 6 1 6 7
M  V30 7 1 6 8
M  V30 8 2 7 9
M  V30 9 1 7 10
M  V30 10 1 8 11
M  V30 11 2 11 12
M  V30 12 1 11 13
M  V30 13 1 2 14
M  V30 14 1 2 15
M  V30 15 1 5 16
M  V30 16 1 6 17
M  V30 17 1 8 18
M  V30 18 1 8 19
M  V30 19 1 13 20
M  V30 20 1 13 21
M  V30 END BOND
M  V30 BEGIN COLLECTION
M  V30 MDLV30/STEABS ATOMS=(1 6)
M  V30 END COLLECTION
M  V30 END CTAB
M  END
>  <Structure No>
5645

>  <LogS>
-0.3193

>  <MMFF94 Energy>
6.3345

$$$$
Compound 5646
Actelion Java MolfileCreator 2.0

  0  0  0  0  0  0              0 V3000
M  V30 BEGIN CTAB
M  V30 COUNTS 44 45 0 0 0
M  V30 BEGIN ATOM
M  V30 1 S -2.1658 -0.666 2.4993 0
M  V30 2 O -3.4354 -1.3409 2.0655 0
M  V30 3 O -2.4298 0.0683 3.7838 0
M  V30 4 N -0.9413 -1.8611 2.7864 0 CHG=-1
M  V30 5 C -1.6607 0.4951 1.2643 0
M  V30 6 C 0.4568 -1.6187 2.6193 0
M  V30 7 N -1.4228 1.7701 1.6808 0
M  V30 8 C -1.4428 0.1598 -0.0988 0
M  V30 9 O 1.2474 -2.5962 2.5518 0
M  V30 10 N 0.9632 -0.2846 2.5177 0
M  V30 11 C -0.9788 2.7432 0.8462 0
M  V30 12 S -1.7886 -1.4303 -0.8038 0
M  V30 13 C -0.9813 1.165 -0.9633 0
M  V30 14 C 1.7814 0.1317 1.4195 0
M  V30 15 C -0.7421 2.4541 -0.4927 0
M  V30 16 O -0.9215 -1.6307 -2.0156 0
M  V30 17 O -1.4975 -2.5427 0.1608 0
M  V30 18 C -3.5016 -1.4823 -1.3074 0
M  V30 19 N 2.1583 1.4335 1.3168 0
M  V30 20 N 2.1174 -0.7458 0.4358 0
M  V30 21 C -3.8694 -2.8569 -1.8506 0
M  V30 22 C 2.8772 1.8771 0.2496 0
M  V30 23 C 2.8358 -0.3485 -0.6488 0
M  V30 24 O 3.2563 3.2184 0.148 0
M  V30 25 C 3.2335 0.9838 -0.7608 0
M  V30 26 O 3.174 -1.2569 -1.6554 0
M  V30 27 C 2.9056 4.1923 1.124 0
M  V30 28 C 2.7957 -2.6277 -1.6106 0
M  V30 29 H 0.582 0.444 3.1617 0
M  V30 30 H -0.8035 3.7403 1.2267 0
M  V30 31 H -0.8132 0.9555 -2.0117 0
M  V30 32 H -0.383 3.2241 -1.163 0
M  V30 33 H -4.1512 -1.2404 -0.4417 0
M  V30 34 H -3.668 -0.7171 -2.0947 0
M  V30 35 H -3.2349 -3.1075 -2.7268 0
M  V30 36 H -4.9328 -2.8572 -2.17 0
M  V30 37 H -3.7348 -3.6301 -1.0649 0
M  V30 38 H 3.8026 1.3194 -1.6186 0
M  V30 39 H 3.3205 5.1759 0.8231 0
M  V30 40 H 3.3276 3.9104 2.1119 0
M  V30 41 H 1.8007 4.2757 1.1976 0
M  V30 42 H 3.172 -3.1398 -2.5196 0
M  V30 43 H 1.6892 -2.7166 -1.5792 0
M  V30 44 H 3.2358 -3.1143 -0.7145 0
M  V30 END ATOM
M  V30 BEGIN BOND
M  V30 1 2 1 2
M  V30 2 2 1 3
M  V30 3 1 1 4
M  V30 4 1 1 5
M  V30 5 1 4 6
M  V30 6 2 5 7
M  V30 7 1 5 8
M  V30 8 2 6 9
M  V30 9 1 6 10
M  V30 10 1 7 11
M  V30 11 1 8 12
M  V30 12 2 8 13
M  V30 13 1 10 14
M  V30 14 2 11 15
M  V30 15 2 12 16
M  V30 16 2 12 17
M  V30 17 1 12 18
M  V30 18 2 14 19
M  V30 19 1 14 20
M  V30 20 1 18 21
M  V30 21 1 19 22
M  V30 22 2 20 23
M  V30 23 1 22 24
M  V30 24 2 22 25
M  V30 25 1 23 26
M  V30 26 1 24 27
M  V30 27 1 26 28
M  V30 28 1 13 15
M  V30 29 1 23 25
M  V30 30 1 10 29
M  V30 31 1 11 30
M  V30 32 1 13 31
M  V30 33 1 15 32
M  V30 34 1 18 33
M  V30 35 1 18 34
M  V30 36 1 21 35
M  V30 37 1 21 36
M  V30 38 1 21 37
M  V30 39 1 25 38
M  V30 40 1 27 39
M  V30 41 1 27 40
M  V30 42 1 27 41
M  V30 43 1 28 42
M  V30 44 1 28 43
M  V30 45 1 28 44
M  V30 END BOND
M  V30 END CTAB
M  END
>  <Structure No>
5646

>  <LogS>
-4.6349

>  <MMFF94 Energy>
-74.691

$$$$
Compound 5647
Actelion Java MolfileCreator 2.0

  0  0  0  0  0  0              0 V3000
M  V30 BEGIN CTAB
M  V30 COUNTS 27 28 0 0 0
M  V30 BEGIN ATOM
M  V30 1 O 0.7167 -2.5502 0.4777 0
M  V30 2 C 1.5453 -1.6485 0.1804 0
M  V30 3 N 1.1973 -0.2556 0.2981 0
M  V30 4 N 2.8539 -2.008 -0.2598 0
M  V30 5 N -0.1297 0.1635 0.5179 0
M  V30 6 C 2.2621 0.7345 0.4754 0
M  V30 7 N 3.7899 -1.0112 -0.5712 0
M  V30 8 C -1.1595 -0.3863 -0.0514 0
M  V30 9 C 3.5016 0.3684 -0.3043 0
M  V30 10 C -2.5278 0.0891 0.2322 0
M  V30 11 C 4.3783 1.3124 -0.6527 0
M  V30 12 C -2.775 1.1329 1.1419 0
M  V30 13 C -3.6198 -0.5078 -0.4138 0
M  V30 14 N -4.0489 1.5456 1.3804 0
M  V30 15 C -4.9174 -0.065 -0.1509 0
M  V30 16 C -5.1143 0.9744 0.7593 0
M  V30 17 H 3.1052 -3.0137 -0.3889 0
M  V30 18 H 2.5208 0.7987 1.5537 0
M  V30 19 H 1.8902 1.7305 0.1466 0
M  V30 20 H 4.7046 -1.2896 -0.9933 0
M  V30 21 H -1.022 -1.1845 -0.7709 0
M  V30 22 H 4.1975 2.3542 -0.4183 0
M  V30 23 H 5.2894 1.0548 -1.1774 0
M  V30 24 H -1.9608 1.62 1.6624 0
M  V30 25 H -3.4684 -1.3149 -1.1203 0
M  V30 26 H -5.7627 -0.5233 -0.6477 0
M  V30 27 H -6.1144 1.3273 0.9725 0
M  V30 END ATOM
M  V30 BEGIN BOND
M  V30 1 2 1 2
M  V30 2 1 2 3
M  V30 3 1 2 4
M  V30 4 1 3 5
M  V30 5 1 3 6
M  V30 6 1 4 7
M  V30 7 2 5 8
M  V30 8 1 6 9
M  V30 9 1 8 10
M  V30 10 2 9 11
M  V30 11 2 10 12
M  V30 12 1 10 13
M  V30 13 1 12 14
M  V30 14 2 13 15
M  V30 15 2 14 16
M  V30 16 1 7 9
M  V30 17 1 15 16
M  V30 18 1 4 17
M  V30 19 1 6 18
M  V30 20 1 6 19
M  V30 21 1 7 20
M  V30 22 1 8 21
M  V30 23 1 11 22
M  V30 24 1 11 23
M  V30 25 1 12 24
M  V30 26 1 13 25
M  V30 27 1 15 26
M  V30 28 1 16 27
M  V30 END BOND
M  V30 END CTAB
M  END
>  <Structure No>
5647

>  <LogS>
-2.8745

>  <MMFF94 Energy>
106.04

$$$$
Compound 5648
Actelion Java MolfileCreator 2.0

  0  0  0  0  0  0              0 V3000
M  V30 BEGIN CTAB
M  V30 COUNTS 20 19 0 0 0
M  V30 BEGIN ATOM
M  V30 1 O 3.8662 0.0772 -0.386 0
M  V30 2 C 2.9009 0.0458 -1.1329 0
M  V30 3 C 1.5986 -0.5349 -0.6693 0
M  V30 4 C 0.9812 0.3225 0.4443 0
M  V30 5 C -0.2657 -0.3216 1.0785 0
M  V30 6 C -1.4645 -0.5093 0.1196 0 CFG=1
M  V30 7 O -2.5042 -1.1845 0.7824 0
M  V30 8 C -1.983 0.8177 -0.4516 0
M  V30 9 H 2.9945 0.4275 -2.1444 0
M  V30 10 H 0.91 -0.5754 -1.539 0
M  V30 11 H 1.7725 -1.5709 -0.306 0
M  V30 12 H 1.733 0.4571 1.2531 0
M  V30 13 H 0.7395 1.3345 0.0557 0
M  V30 14 H -0.5837 0.3104 1.9365 0
M  V30 15 H 0.0174 -1.313 1.4949 0
M  V30 16 H -1.1534 -1.1519 -0.7297 0
M  V30 17 H -2.8072 -0.6084 1.5329 0
M  V30 18 H -1.2452 1.2552 -1.1557 0
M  V30 19 H -2.9239 0.6406 -1.0144 0
M  V30 20 H -2.1875 1.543 0.3645 0
M  V30 END ATOM
M  V30 BEGIN BOND
M  V30 1 2 1 2
M  V30 2 1 2 3
M  V30 3 1 3 4
M  V30 4 1 4 5
M  V30 5 1 5 6
M  V30 6 1 6 7
M  V30 7 1 6 8
M  V30 8 1 2 9
M  V30 9 1 3 10
M  V30 10 1 3 11
M  V30 11 1 4 12
M  V30 12 1 4 13
M  V30 13 1 5 14
M  V30 14 1 5 15
M  V30 15 1 6 16
M  V30 16 1 7 17
M  V30 17 1 8 18
M  V30 18 1 8 19
M  V30 19 1 8 20
M  V30 END BOND
M  V30 BEGIN COLLECTION
M  V30 MDLV30/STEABS ATOMS=(1 6)
M  V30 END COLLECTION
M  V30 END CTAB
M  END
>  <Structure No>
5648

>  <LogS>
-0.463

>  <MMFF94 Energy>
4.1571

$$$$
Compound 5649
Actelion Java MolfileCreator 2.0

  0  0  0  0  0  0              0 V3000
M  V30 BEGIN CTAB
M  V30 COUNTS 31 31 0 0 0
M  V30 BEGIN ATOM
M  V30 1 O 2.565 1.1216 1.6827 0
M  V30 2 C 2.0343 0.2424 0.9489 0
M  V30 3 O 2.8045 -0.8152 0.4494 0
M  V30 4 C 0.6022 0.3581 0.5815 0
M  V30 5 C 4.1996 -0.963 0.7053 0
M  V30 6 C -0.2206 -0.7735 0.3432 0
M  V30 7 C 0.0681 1.6405 0.4067 0
M  V30 8 C 5.0085 0.0061 -0.1488 0
M  V30 9 C -1.5513 -0.5994 -0.1113 0
M  V30 10 C 0.2628 -2.1463 0.6263 0
M  V30 11 C -1.2382 1.8157 -0.034 0
M  V30 12 O -2.3213 -1.7622 -0.324 0
M  V30 13 C -2.0604 0.7107 -0.3104 0
M  V30 14 O 0.895 -2.3931 1.6875 0
M  V30 15 O -0.0022 -3.1822 -0.2615 0 CHG=-1
M  V30 16 C -3.6742 -1.8259 -0.762 0
M  V30 17 O -3.3736 0.8938 -0.7728 0
M  V30 18 C -3.991 2.1558 -1.0072 0
M  V30 19 H 4.4978 -2.0007 0.4462 0
M  V30 20 H 4.4155 -0.8015 1.784 0
M  V30 21 H 0.6777 2.5192 0.5811 0
M  V30 22 H 6.0928 -0.1617 0.0215 0
M  V30 23 H 4.7642 1.0554 0.118 0
M  V30 24 H 4.7833 -0.1581 -1.2238 0
M  V30 25 H -1.5971 2.8268 -0.1683 0
M  V30 26 H -3.7727 -1.3817 -1.7747 0
M  V30 27 H -3.9806 -2.8904 -0.8217 0
M  V30 28 H -4.3396 -1.3159 -0.0339 0
M  V30 29 H -5.0263 1.9897 -1.3694 0
M  V30 30 H -3.4298 2.7177 -1.7834 0
M  V30 31 H -4.0352 2.7409 -0.0644 0
M  V30 END ATOM
M  V30 BEGIN BOND
M  V30 1 2 1 2
M  V30 2 1 2 3
M  V30 3 1 2 4
M  V30 4 1 3 5
M  V30 5 2 4 6
M  V30 6 1 4 7
M  V30 7 1 5 8
M  V30 8 1 6 9
M  V30 9 1 6 10
M  V30 10 2 7 11
M  V30 11 1 9 12
M  V30 12 2 9 13
M  V30 13 2 10 14
M  V30 14 1 10 15
M  V30 15 1 12 16
M  V30 16 1 13 17
M  V30 17 1 17 18
M  V30 18 1 11 13
M  V30 19 1 5 19
M  V30 20 1 5 20
M  V30 21 1 7 21
M  V30 22 1 8 22
M  V30 23 1 8 23
M  V30 24 1 8 24
M  V30 25 1 11 25
M  V30 26 1 16 26
M  V30 27 1 16 27
M  V30 28 1 16 28
M  V30 29 1 18 29
M  V30 30 1 18 30
M  V30 31 1 18 31
M  V30 END BOND
M  V30 END CTAB
M  END
>  <Structure No>
5649

>  <LogS>
-2.253

>  <MMFF94 Energy>
44.878

$$$$
Compound 5650
Actelion Java MolfileCreator 2.0

  0  0  0  0  0  0              0 V3000
M  V30 BEGIN CTAB
M  V30 COUNTS 28 30 0 0 0
M  V30 BEGIN ATOM
M  V30 1 Cl 1.0864 2.0901 -1.8391 0
M  V30 2 C 2.192 1.1135 -0.8729 0
M  V30 3 C 1.7995 -0.0397 -0.1375 0
M  V30 4 C 3.528 1.534 -0.8488 0
M  V30 5 C 0.4693 -0.5338 -0.0984 0
M  V30 6 C 2.7895 -0.7339 0.6111 0
M  V30 7 C 4.4838 0.8379 -0.1092 0
M  V30 8 O -0.5514 0.0863 -0.8342 0
M  V30 9 C 0.1864 -1.691 0.6466 0
M  V30 10 N 2.4608 -1.8397 1.3292 0
M  V30 11 C 4.1152 -0.2914 0.6186 0
M  V30 12 Cl 6.1505 1.3852 -0.094 0
M  V30 13 C -1.8897 0.2081 -0.431 0
M  V30 14 C 1.1969 -2.3261 1.361 0
M  V30 15 C -2.8801 0.318 -1.4151 0
M  V30 16 C -2.2577 0.2706 0.9263 0
M  V30 17 C -4.224 0.4571 -1.0539 0
M  V30 18 C -3.6022 0.4099 1.285 0
M  V30 19 C -4.5857 0.4996 0.2956 0
M  V30 20 F -5.8886 0.6364 0.6448 0
M  V30 21 H 3.8264 2.4117 -1.4087 0
M  V30 22 H -0.8109 -2.111 0.6591 0
M  V30 23 H 4.8618 -0.828 1.1917 0
M  V30 24 H 0.9777 -3.2152 1.9369 0
M  V30 25 H -2.6071 0.289 -2.4622 0
M  V30 26 H -1.5072 0.231 1.7047 0
M  V30 27 H -4.9836 0.5339 -1.821 0
M  V30 28 H -3.8798 0.4556 2.3302 0
M  V30 END ATOM
M  V30 BEGIN BOND
M  V30 1 1 1 2
M  V30 2 1 2 3
M  V30 3 2 2 4
M  V30 4 2 3 5
M  V30 5 1 3 6
M  V30 6 1 4 7
M  V30 7 1 5 8
M  V30 8 1 5 9
M  V30 9 2 6 10
M  V30 10 1 6 11
M  V30 11 1 7 12
M  V30 12 1 8 13
M  V30 13 2 9 14
M  V30 14 2 13 15
M  V30 15 1 13 16
M  V30 16 1 15 17
M  V30 17 2 16 18
M  V30 18 2 17 19
M  V30 19 1 19 20
M  V30 20 2 7 11
M  V30 21 1 10 14
M  V30 22 1 18 19
M  V30 23 1 4 21
M  V30 24 1 9 22
M  V30 25 1 11 23
M  V30 26 1 14 24
M  V30 27 1 15 25
M  V30 28 1 16 26
M  V30 29 1 17 27
M  V30 30 1 18 28
M  V30 END BOND
M  V30 END CTAB
M  END
>  <Structure No>
5650

>  <LogS>
-6.4243

>  <MMFF94 Energy>
33.148

$$$$
Compound 5651
Actelion Java MolfileCreator 2.0

  0  0  0  0  0  0              0 V3000
M  V30 BEGIN CTAB
M  V30 COUNTS 44 46 0 0 0
M  V30 BEGIN ATOM
M  V30 1 Cl 6.7124 1.1298 0.6455 0
M  V30 2 C 4.9889 1.1607 0.3204 0
M  V30 3 C 4.5206 1.01 -0.9888 0
M  V30 4 C 4.0813 1.3342 1.3705 0
M  V30 5 C 3.147 1.0331 -1.2496 0
M  V30 6 C 2.7074 1.3576 1.1129 0
M  V30 7 C 2.2296 1.2096 -0.2001 0
M  V30 8 C 0.7447 1.21 -0.4696 0
M  V30 9 C 0.0812 -0.1226 -0.0413 0 CFG=1
M  V30 10 C -1.4796 -0.1868 -0.2468 0 CFG=1
M  V30 11 C 0.6816 -1.3305 -0.7805 0
M  V30 12 O -2.0092 1.0079 -0.7864 0
M  V30 13 C -1.6825 -1.3465 -1.2969 0
M  V30 14 C -2.1909 -0.4982 1.1171 0
M  V30 15 C -0.4755 -2.2632 -1.0753 0
M  V30 16 C -2.9974 -2.1492 -1.1423 0
M  V30 17 C -1.6425 -0.8058 -2.7544 0
M  V30 18 N -1.9365 0.5177 2.1431 0
M  V30 19 N -2.6052 1.6506 2.2594 0
M  V30 20 C -1.0636 0.4408 3.1627 0
M  V30 21 C -2.102 2.26 3.3501 0
M  V30 22 N -1.1333 1.5325 3.9483 0
M  V30 23 H 5.2191 0.8735 -1.8044 0
M  V30 24 H 4.4388 1.4493 2.3859 0
M  V30 25 H 2.7999 0.9107 -2.2681 0
M  V30 26 H 2.0149 1.4884 1.9358 0
M  V30 27 H 0.5443 1.4092 -1.5448 0
M  V30 28 H 0.3035 2.0492 0.109 0
M  V30 29 H 0.3267 -0.2706 1.0298 0
M  V30 30 H 1.4536 -1.8418 -0.1642 0
M  V30 31 H 1.1497 -1.027 -1.7423 0
M  V30 32 H -1.8872 1.7414 -0.1346 0
M  V30 33 H -1.8579 -1.4883 1.4989 0
M  V30 34 H -3.2897 -0.5532 0.9633 0
M  V30 35 H -0.6392 -2.9181 -0.1901 0
M  V30 36 H -0.2589 -2.912 -1.9526 0
M  V30 37 H -3.8744 -1.4707 -1.213 0
M  V30 38 H -3.0407 -2.695 -0.1768 0
M  V30 39 H -3.083 -2.9114 -1.9468 0
M  V30 40 H -1.6237 -1.6422 -3.4863 0
M  V30 41 H -0.7474 -0.1747 -2.933 0
M  V30 42 H -2.5435 -0.1919 -2.9704 0
M  V30 43 H -0.3979 -0.3933 3.3429 0
M  V30 44 H -2.4417 3.2211 3.7119 0
M  V30 END ATOM
M  V30 BEGIN BOND
M  V30 1 1 1 2
M  V30 2 2 2 3
M  V30 3 1 2 4
M  V30 4 1 3 5
M  V30 5 2 4 6
M  V30 6 2 5 7
M  V30 7 1 7 8
M  V30 8 1 8 9
M  V30 9 1 9 10
M  V30 10 1 9 11
M  V30 11 1 10 12
M  V30 12 1 10 13
M  V30 13 1 10 14
M  V30 14 1 11 15
M  V30 15 1 13 16
M  V30 16 1 13 17
M  V30 17 1 14 18
M  V30 18 1 18 19
M  V30 19 1 18 20
M  V30 20 2 19 21
M  V30 21 2 20 22
M  V30 22 1 6 7
M  V30 23 1 13 15
M  V30 24 1 21 22
M  V30 25 1 3 23
M  V30 26 1 4 24
M  V30 27 1 5 25
M  V30 28 1 6 26
M  V30 29 1 8 27
M  V30 30 1 8 28
M  V30 31 1 9 29
M  V30 32 1 11 30
M  V30 33 1 11 31
M  V30 34 1 12 32
M  V30 35 1 14 33
M  V30 36 1 14 34
M  V30 37 1 15 35
M  V30 38 1 15 36
M  V30 39 1 16 37
M  V30 40 1 16 38
M  V30 41 1 16 39
M  V30 42 1 17 40
M  V30 43 1 17 41
M  V30 44 1 17 42
M  V30 45 1 20 43
M  V30 46 1 21 44
M  V30 END BOND
M  V30 BEGIN COLLECTION
M  V30 MDLV30/STEABS ATOMS=(2 9 10)
M  V30 END COLLECTION
M  V30 END CTAB
M  END
>  <Structure No>
5651

>  <LogS>
-4.3288

>  <MMFF94 Energy>
83.417

$$$$
Compound 5652
Actelion Java MolfileCreator 2.0

  0  0  0  0  0  0              0 V3000
M  V30 BEGIN CTAB
M  V30 COUNTS 47 49 0 0 0
M  V30 BEGIN ATOM
M  V30 1 Cl 7.1814 0.7244 0.0804 0
M  V30 2 C 5.4529 0.6808 -0.2176 0
M  V30 3 C 4.6064 1.5772 0.4421 0
M  V30 4 C 4.92 -0.2489 -1.1166 0
M  V30 5 C 3.2286 1.5433 0.2065 0
M  V30 6 C 3.5428 -0.2836 -1.3564 0
M  V30 7 C 2.6853 0.6124 -0.6952 0
M  V30 8 C 1.1961 0.5673 -0.9337 0
M  V30 9 C 0.4462 -0.1349 0.2272 0 CFG=1
M  V30 10 C -1.1059 0.0126 0.1562 0 CFG=1
M  V30 11 C 0.7472 -1.6468 0.2812 0
M  V30 12 O -1.5026 0.2192 -1.1829 0
M  V30 13 C -1.6218 -1.3559 0.6695 0 CFG=2
M  V30 14 C -1.609 1.1722 1.0706 0
M  V30 15 C -0.5863 -2.3704 0.1928 0
M  V30 16 C -3.1119 -1.7143 0.3397 0
M  V30 17 N -1.0969 2.469 0.6327 0
M  V30 18 C -3.3403 -2.3306 -1.0538 0
M  V30 19 C -3.6884 -2.6571 1.4064 0
M  V30 20 N -1.5339 3.133 -0.4214 0
M  V30 21 C -0.1233 3.1894 1.2132 0
M  V30 22 C -0.8009 4.2628 -0.4645 0
M  V30 23 N 0.0964 4.3371 0.544 0
M  V30 24 H 5.0142 2.2996 1.1382 0
M  V30 25 H 5.5711 -0.9452 -1.6295 0
M  V30 26 H 2.5861 2.2419 0.7265 0
M  V30 27 H 3.1469 -1.0094 -2.0569 0
M  V30 28 H 0.83 1.6093 -1.0441 0
M  V30 29 H 0.9773 0.0527 -1.8955 0
M  V30 30 H 0.8057 0.3069 1.1845 0
M  V30 31 H 1.4137 -1.9888 -0.5392 0
M  V30 32 H 1.2385 -1.8951 1.2484 0
M  V30 33 H -2.4469 0.5246 -1.1893 0
M  V30 34 H -1.5251 -1.3313 1.7812 0
M  V30 35 H -1.3037 0.9909 2.1252 0
M  V30 36 H -2.7184 1.2117 1.0656 0
M  V30 37 H -0.5933 -3.2869 0.824 0
M  V30 38 H -0.7499 -2.6539 -0.8689 0
M  V30 39 H -3.7149 -0.7828 0.3903 0
M  V30 40 H -4.4285 -2.3673 -1.2744 0
M  V30 41 H -2.9521 -3.3707 -1.098 0
M  V30 42 H -2.8577 -1.7363 -1.8539 0
M  V30 43 H -3.6435 -2.1805 2.4086 0
M  V30 44 H -3.1181 -3.61 1.4362 0
M  V30 45 H -4.7543 -2.8832 1.1878 0
M  V30 46 H 0.4197 2.8887 2.1005 0
M  V30 47 H -0.9181 5.0257 -1.2217 0
M  V30 END ATOM
M  V30 BEGIN BOND
M  V30 1 1 1 2
M  V30 2 2 2 3
M  V30 3 1 2 4
M  V30 4 1 3 5
M  V30 5 2 4 6
M  V30 6 2 5 7
M  V30 7 1 7 8
M  V30 8 1 8 9
M  V30 9 1 9 10
M  V30 10 1 9 11
M  V30 11 1 10 12
M  V30 12 1 10 13
M  V30 13 1 10 14
M  V30 14 1 11 15
M  V30 15 1 13 16
M  V30 16 1 14 17
M  V30 17 1 16 18
M  V30 18 1 16 19
M  V30 19 1 17 20
M  V30 20 1 17 21
M  V30 21 2 20 22
M  V30 22 2 21 23
M  V30 23 1 6 7
M  V30 24 1 13 15
M  V30 25 1 22 23
M  V30 26 1 3 24
M  V30 27 1 4 25
M  V30 28 1 5 26
M  V30 29 1 6 27
M  V30 30 1 8 28
M  V30 31 1 8 29
M  V30 32 1 9 30
M  V30 33 1 11 31
M  V30 34 1 11 32
M  V30 35 1 12 33
M  V30 36 1 13 34
M  V30 37 1 14 35
M  V30 38 1 14 36
M  V30 39 1 15 37
M  V30 40 1 15 38
M  V30 41 1 16 39
M  V30 42 1 18 40
M  V30 43 1 18 41
M  V30 44 1 18 42
M  V30 45 1 19 43
M  V30 46 1 19 44
M  V30 47 1 19 45
M  V30 48 1 21 46
M  V30 49 1 22 47
M  V30 END BOND
M  V30 BEGIN COLLECTION
M  V30 MDLV30/STEABS ATOMS=(3 9 10 13)
M  V30 END COLLECTION
M  V30 END CTAB
M  END
>  <Structure No>
5652

>  <LogS>
-4.6828

>  <MMFF94 Energy>
70.884

$$$$
Compound 5653
Actelion Java MolfileCreator 2.0

  0  0  0  0  0  0              0 V3000
M  V30 BEGIN CTAB
M  V30 COUNTS 46 47 0 0 0
M  V30 BEGIN ATOM
M  V30 1 S 1.7769 -1.6152 -2.0194 0
M  V30 2 O 1.7845 -1.3503 -3.4979 0
M  V30 3 O 2.2154 -3.0391 -1.8222 0
M  V30 4 C 2.8628 -0.5067 -1.1294 0
M  V30 5 C 0.147 -1.4206 -1.4095 0
M  V30 6 C 3.1854 0.7794 -1.6482 0
M  V30 7 C 3.3904 -0.8842 0.1375 0
M  V30 8 N -0.48 -0.2317 -1.3396 0
M  V30 9 N -0.6073 -2.4437 -0.954 0
M  V30 10 C 4.0982 1.5977 -0.9632 0
M  V30 11 C 2.5956 1.3094 -2.9297 0
M  V30 12 C 4.3005 -0.0407 0.7937 0
M  V30 13 C 3.0289 -2.1843 0.8103 0
M  V30 14 N -1.6629 -0.4921 -0.8151 0
M  V30 15 C -1.7436 -1.8164 -0.5928 0
M  V30 16 C 4.6503 1.198 0.2546 0
M  V30 17 C -2.6807 0.4957 -0.6019 0
M  V30 18 C 5.6543 2.0695 0.9517 0
M  V30 19 O -2.6013 1.5997 -1.2064 0
M  V30 20 N -3.7917 0.2449 0.2813 0
M  V30 21 C -5.1125 0.7854 -0.0787 0
M  V30 22 C -3.5229 -0.212 1.6561 0
M  V30 23 C -5.3497 2.1497 0.5646 0
M  V30 24 C -4.4598 -1.344 2.074 0
M  V30 25 H 4.3776 2.56 -1.3768 0
M  V30 26 H 3.0829 0.82 -3.7981 0
M  V30 27 H 2.7488 2.4056 -3.0268 0
M  V30 28 H 1.4996 1.1391 -2.9531 0
M  V30 29 H 4.7367 -0.3467 1.7379 0
M  V30 30 H 3.276 -2.163 1.8934 0
M  V30 31 H 1.9384 -2.3747 0.7371 0
M  V30 32 H 3.5955 -3.0174 0.3459 0
M  V30 33 H -2.6117 -2.3253 -0.1986 0
M  V30 34 H 5.4548 3.1426 0.7442 0
M  V30 35 H 5.6079 1.9205 2.0517 0
M  V30 36 H 6.674 1.8154 0.5948 0
M  V30 37 H -5.1939 0.8882 -1.1832 0
M  V30 38 H -5.9155 0.085 0.2303 0
M  V30 39 H -2.4766 -0.5734 1.7517 0
M  V30 40 H -3.6299 0.6376 2.3629 0
M  V30 41 H -4.5264 2.8483 0.3071 0
M  V30 42 H -6.306 2.5737 0.1925 0
M  V30 43 H -5.4174 2.0521 1.668 0
M  V30 44 H -4.0925 -1.8003 3.0175 0
M  V30 45 H -5.4828 -0.9547 2.2577 0
M  V30 46 H -4.4991 -2.1285 1.2902 0
M  V30 END ATOM
M  V30 BEGIN BOND
M  V30 1 2 1 2
M  V30 2 2 1 3
M  V30 3 1 1 4
M  V30 4 1 1 5
M  V30 5 2 4 6
M  V30 6 1 4 7
M  V30 7 2 5 8
M  V30 8 1 5 9
M  V30 9 1 6 10
M  V30 10 1 6 11
M  V30 11 2 7 12
M  V30 12 1 7 13
M  V30 13 1 8 14
M  V30 14 2 9 15
M  V30 15 2 10 16
M  V30 16 1 14 17
M  V30 17 1 16 18
M  V30 18 2 17 19
M  V30 19 1 17 20
M  V30 20 1 20 21
M  V30 21 1 20 22
M  V30 22 1 21 23
M  V30 23 1 22 24
M  V30 24 1 12 16
M  V30 25 1 14 15
M  V30 26 1 10 25
M  V30 27 1 11 26
M  V30 28 1 11 27
M  V30 29 1 11 28
M  V30 30 1 12 29
M  V30 31 1 13 30
M  V30 32 1 13 31
M  V30 33 1 13 32
M  V30 34 1 15 33
M  V30 35 1 18 34
M  V30 36 1 18 35
M  V30 37 1 18 36
M  V30 38 1 21 37
M  V30 39 1 21 38
M  V30 40 1 22 39
M  V30 41 1 22 40
M  V30 42 1 23 41
M  V30 43 1 23 42
M  V30 44 1 23 43
M  V30 45 1 24 44
M  V30 46 1 24 45
M  V30 47 1 24 46
M  V30 END BOND
M  V30 END CTAB
M  END
>  <Structure No>
5653

>  <LogS>
-5.1467

>  <MMFF94 Energy>
225.25

$$$$
Compound 5654
Actelion Java MolfileCreator 2.0

  0  0  0  0  0  0              0 V3000
M  V30 BEGIN CTAB
M  V30 COUNTS 24 24 0 0 0
M  V30 BEGIN ATOM
M  V30 1 O 1.2565 0.157 -1.0208 0
M  V30 2 C 1.4305 -0.3048 0.139 0
M  V30 3 N 0.2986 -0.6934 0.934 0
M  V30 4 C 2.7935 -0.4975 0.6871 0
M  V30 5 C -1.0627 -0.3522 0.6194 0
M  V30 6 C 3.9433 -0.1833 0.0704 0
M  V30 7 C -2.092 -1.243 0.9616 0
M  V30 8 C -1.3938 0.8823 0.0305 0
M  V30 9 C 4.0439 0.4244 -1.2951 0
M  V30 10 C -3.4256 -0.9248 0.6867 0
M  V30 11 C -2.7283 1.1987 -0.2424 0
M  V30 12 C -3.7476 0.2939 0.082 0
M  V30 13 O -5.0803 0.598 -0.1868 0
M  V30 14 H 0.4668 -1.3325 1.7439 0
M  V30 15 H 2.8677 -0.9263 1.6792 0
M  V30 16 H 4.8704 -0.3786 0.5963 0
M  V30 17 H -1.8583 -2.1895 1.4326 0
M  V30 18 H -0.6282 1.6123 -0.1949 0
M  V30 19 H 3.6048 -0.2583 -2.0524 0
M  V30 20 H 5.112 0.5865 -1.5508 0
M  V30 21 H 3.5277 1.4071 -1.317 0
M  V30 22 H -4.2094 -1.6251 0.946 0
M  V30 23 H -2.9698 2.1511 -0.6975 0
M  V30 24 H -5.346 1.4734 -0.6226 0
M  V30 END ATOM
M  V30 BEGIN BOND
M  V30 1 2 1 2
M  V30 2 1 2 3
M  V30 3 1 2 4
M  V30 4 1 3 5
M  V30 5 2 4 6
M  V30 6 2 5 7
M  V30 7 1 5 8
M  V30 8 1 6 9
M  V30 9 1 7 10
M  V30 10 2 8 11
M  V30 11 2 10 12
M  V30 12 1 12 13
M  V30 13 1 11 12
M  V30 14 1 3 14
M  V30 15 1 4 15
M  V30 16 1 6 16
M  V30 17 1 7 17
M  V30 18 1 8 18
M  V30 19 1 9 19
M  V30 20 1 9 20
M  V30 21 1 9 21
M  V30 22 1 10 22
M  V30 23 1 11 23
M  V30 24 1 13 24
M  V30 END BOND
M  V30 END CTAB
M  END
>  <Structure No>
5654

>  <LogS>
-2.6464

>  <MMFF94 Energy>
-8.2891

$$$$
Compound 5655
Actelion Java MolfileCreator 2.0

  0  0  0  0  0  0              0 V3000
M  V30 BEGIN CTAB
M  V30 COUNTS 26 25 0 0 0
M  V30 BEGIN ATOM
M  V30 1 O 2.6729 -1.7289 2.2795 0
M  V30 2 C 2.9288 -1.0942 1.2212 0
M  V30 3 N 1.8837 -0.4392 0.486 0
M  V30 4 N 4.273 -1.0405 0.7455 0
M  V30 5 C 0.5148 -0.3711 0.9303 0
M  V30 6 O 0.2325 -0.6639 2.1255 0
M  V30 7 C -0.5748 0.1831 0.0189 0
M  V30 8 C -0.2893 -0.1964 -1.3832 0
M  V30 9 C -0.5373 1.7315 0.154 0
M  V30 10 C -1.9771 -0.3737 0.4145 0
M  V30 11 N -0.0666 -0.4933 -2.4796 0
M  V30 12 C -1.5637 2.4855 -0.7012 0
M  V30 13 C -2.0848 -1.9044 0.3643 0
M  V30 14 H 2.145 0.0228 -0.4133 0
M  V30 15 H 5.0381 -1.5184 1.2712 0
M  V30 16 H 4.5069 -0.5231 -0.1304 0
M  V30 17 H 0.4749 2.1005 -0.1265 0
M  V30 18 H -0.7012 2.0157 1.2173 0
M  V30 19 H -2.2423 -0.0333 1.4397 0
M  V30 20 H -2.7526 0.0271 -0.2727 0
M  V30 21 H -1.3618 3.5757 -0.6371 0
M  V30 22 H -2.5937 2.3126 -0.3271 0
M  V30 23 H -1.4974 2.1843 -1.7672 0
M  V30 24 H -3.1132 -2.209 0.6519 0
M  V30 25 H -1.8882 -2.2795 -0.6616 0
M  V30 26 H -1.3754 -2.3832 1.0694 0
M  V30 END ATOM
M  V30 BEGIN BOND
M  V30 1 2 1 2
M  V30 2 1 2 3
M  V30 3 1 2 4
M  V30 4 1 3 5
M  V30 5 2 5 6
M  V30 6 1 5 7
M  V30 7 1 7 8
M  V30 8 1 7 9
M  V30 9 1 7 10
M  V30 10 3 8 11
M  V30 11 1 9 12
M  V30 12 1 10 13
M  V30 13 1 3 14
M  V30 14 1 4 15
M  V30 15 1 4 16
M  V30 16 1 9 17
M  V30 17 1 9 18
M  V30 18 1 10 19
M  V30 19 1 10 20
M  V30 20 1 12 21
M  V30 21 1 12 22
M  V30 22 1 12 23
M  V30 23 1 13 24
M  V30 24 1 13 25
M  V30 25 1 13 26
M  V30 END BOND
M  V30 END CTAB
M  END
>  <Structure No>
5655

>  <LogS>
-1.564

>  <MMFF94 Energy>
MMFF94 error code 2

$$$$
Compound 5656
Actelion Java MolfileCreator 2.0

  0  0  0  0  0  0              0 V3000
M  V30 BEGIN CTAB
M  V30 COUNTS 44 45 0 0 0
M  V30 BEGIN ATOM
M  V30 1 S 0.9789 -0.1631 1.1422 0
M  V30 2 O 0.7267 -1.4619 1.8554 0
M  V30 3 O 0.8753 0.9837 2.1082 0
M  V30 4 O 2.5414 -0.1858 0.4456 0
M  V30 5 N -0.1891 0.0382 -0.1189 0 CHG=-1
M  V30 6 C 3.7385 -0.3323 1.1628 0
M  V30 7 C -1.5931 0.0996 0.1384 0
M  V30 8 C 4.946 -0.329 0.4433 0
M  V30 9 C 3.7643 -0.4789 2.5638 0
M  V30 10 O -2.0208 0.0065 1.321 0
M  V30 11 N -2.4997 0.2679 -0.961 0
M  V30 12 O 4.8834 -0.1831 -0.9535 0
M  V30 13 C 6.166 -0.4787 1.1335 0
M  V30 14 C 4.9797 -0.6221 3.2355 0
M  V30 15 C -3.928 0.3428 -0.8364 0
M  V30 16 C 6.0029 -0.0452 -1.8286 0
M  V30 17 C 6.1775 -0.6228 2.522 0
M  V30 18 N -4.5327 0.2526 0.3792 0
M  V30 19 N -4.6886 0.5062 -1.9517 0
M  V30 20 C 6.5936 1.3574 -1.7345 0
M  V30 21 C -5.8861 0.3226 0.5032 0
M  V30 22 C -6.0458 0.5817 -1.8772 0
M  V30 23 O -6.4969 0.2285 1.7569 0
M  V30 24 C -6.6741 0.4904 -0.6352 0
M  V30 25 O -6.8194 0.7498 -3.0293 0
M  V30 26 C -5.7582 0.0571 2.9607 0
M  V30 27 C -6.2512 0.8503 -4.3295 0
M  V30 28 H 2.855 -0.4841 3.1463 0
M  V30 29 H -2.09 0.3412 -1.9193 0
M  V30 30 H 7.1113 -0.4889 0.6109 0
M  V30 31 H 4.9926 -0.7345 4.312 0
M  V30 32 H 6.7715 -0.8178 -1.6159 0
M  V30 33 H 5.6521 -0.2066 -2.8695 0
M  V30 34 H 7.1178 -0.7365 3.0461 0
M  V30 35 H 5.8162 2.1113 -1.9809 0
M  V30 36 H 7.4324 1.4576 -2.4548 0
M  V30 37 H 6.9764 1.5557 -0.7126 0
M  V30 38 H -7.7524 0.5482 -0.5564 0
M  V30 39 H -6.4619 0.0092 3.8168 0
M  V30 40 H -5.1772 -0.8884 2.9188 0
M  V30 41 H -5.0686 0.9151 3.1091 0
M  V30 42 H -7.0639 0.979 -5.0735 0
M  V30 43 H -5.5736 1.7287 -4.3816 0
M  V30 44 H -5.6863 -0.0749 -4.57 0
M  V30 END ATOM
M  V30 BEGIN BOND
M  V30 1 2 1 2
M  V30 2 2 1 3
M  V30 3 1 1 4
M  V30 4 1 1 5
M  V30 5 1 4 6
M  V30 6 1 5 7
M  V30 7 2 6 8
M  V30 8 1 6 9
M  V30 9 2 7 10
M  V30 10 1 7 11
M  V30 11 1 8 12
M  V30 12 1 8 13
M  V30 13 2 9 14
M  V30 14 1 11 15
M  V30 15 1 12 16
M  V30 16 2 13 17
M  V30 17 2 15 18
M  V30 18 1 15 19
M  V30 19 1 16 20
M  V30 20 1 18 21
M  V30 21 2 19 22
M  V30 22 1 21 23
M  V30 23 2 21 24
M  V30 24 1 22 25
M  V30 25 1 23 26
M  V30 26 1 25 27
M  V30 27 1 14 17
M  V30 28 1 22 24
M  V30 29 1 9 28
M  V30 30 1 11 29
M  V30 31 1 13 30
M  V30 32 1 14 31
M  V30 33 1 16 32
M  V30 34 1 16 33
M  V30 35 1 17 34
M  V30 36 1 20 35
M  V30 37 1 20 36
M  V30 38 1 20 37
M  V30 39 1 24 38
M  V30 40 1 26 39
M  V30 41 1 26 40
M  V30 42 1 26 41
M  V30 43 1 27 42
M  V30 44 1 27 43
M  V30 45 1 27 44
M  V30 END BOND
M  V30 END CTAB
M  END
>  <Structure No>
5656

>  <LogS>
-4.1853

>  <MMFF94 Energy>
-98.172

$$$$
Compound 5657
Actelion Java MolfileCreator 2.0

  0  0  0  0  0  0              0 V3000
M  V30 BEGIN CTAB
M  V30 COUNTS 40 41 0 0 0
M  V30 BEGIN ATOM
M  V30 1 Cl -2.2296 -3.0564 -2.147 0
M  V30 2 C -0.7781 -2.2451 -1.5665 0
M  V30 3 C -0.8333 -1.0002 -0.9043 0
M  V30 4 C 0.456 -2.8659 -1.7806 0
M  V30 5 C 0.3605 -0.4113 -0.4526 0
M  V30 6 C -2.1487 -0.3031 -0.6384 0
M  V30 7 C 1.6377 -2.2713 -1.3342 0
M  V30 8 C 1.6 -1.0422 -0.654 0
M  V30 9 C -2.8404 -0.8586 0.6168 0 CFG=1
M  V30 10 F 2.8155 -2.9122 -1.5406 0
M  V30 11 N 2.8187 -0.4283 -0.1931 0
M  V30 12 Cl -1.9156 -0.4523 2.091 0
M  V30 13 C -4.2228 -0.2937 0.7386 0
M  V30 14 N 3.9846 -0.5285 -0.8159 0
M  V30 15 C 3.016 0.3049 0.9214 0
M  V30 16 O -5.2212 -1.06 0.6544 0
M  V30 17 O -4.3927 1.082 0.9359 0
M  V30 18 C 4.8751 0.1619 -0.0703 0
M  V30 19 O 2.1326 0.5362 1.7911 0
M  V30 20 N 4.2943 0.7137 1.0199 0
M  V30 21 C -5.6688 1.717 0.9798 0
M  V30 22 C 6.3262 0.2692 -0.4125 0
M  V30 23 C 4.9277 1.426 2.129 0
M  V30 24 C -6.2519 1.8468 -0.4223 0
M  V30 25 F 4.1016 2.4429 2.573 0
M  V30 26 F 5.1693 0.545 3.1666 0
M  V30 27 H 0.4998 -3.8193 -2.2919 0
M  V30 28 H 0.3219 0.5516 0.0394 0
M  V30 29 H -2.8144 -0.4222 -1.5208 0
M  V30 30 H -1.9871 0.7914 -0.5205 0
M  V30 31 H -2.904 -1.9666 0.549 0
M  V30 32 H -6.3628 1.1483 1.6364 0
M  V30 33 H -5.5432 2.7332 1.4092 0
M  V30 34 H 6.5901 1.3327 -0.5886 0
M  V30 35 H 6.548 -0.3132 -1.3311 0
M  V30 36 H 6.9377 -0.1304 0.423 0
M  V30 37 H 5.8891 1.8747 1.8034 0
M  V30 38 H -6.4307 0.8434 -0.8619 0
M  V30 39 H -7.2175 2.3932 -0.3761 0
M  V30 40 H -5.5502 2.4098 -1.0734 0
M  V30 END ATOM
M  V30 BEGIN BOND
M  V30 1 1 1 2
M  V30 2 2 2 3
M  V30 3 1 2 4
M  V30 4 1 3 5
M  V30 5 1 3 6
M  V30 6 2 4 7
M  V30 7 2 5 8
M  V30 8 1 6 9
M  V30 9 1 7 10
M  V30 10 1 8 11
M  V30 11 1 9 12
M  V30 12 1 9 13
M  V30 13 1 11 14
M  V30 14 1 11 15
M  V30 15 2 13 16
M  V30 16 1 13 17
M  V30 17 2 14 18
M  V30 18 2 15 19
M  V30 19 1 15 20
M  V30 20 1 17 21
M  V30 21 1 18 22
M  V30 22 1 20 23
M  V30 23 1 21 24
M  V30 24 1 23 25
M  V30 25 1 23 26
M  V30 26 1 7 8
M  V30 27 1 18 20
M  V30 28 1 4 27
M  V30 29 1 5 28
M  V30 30 1 6 29
M  V30 31 1 6 30
M  V30 32 1 9 31
M  V30 33 1 21 32
M  V30 34 1 21 33
M  V30 35 1 22 34
M  V30 36 1 22 35
M  V30 37 1 22 36
M  V30 38 1 23 37
M  V30 39 1 24 38
M  V30 40 1 24 39
M  V30 41 1 24 40
M  V30 END BOND
M  V30 BEGIN COLLECTION
M  V30 MDLV30/STEABS ATOMS=(1 9)
M  V30 END COLLECTION
M  V30 END CTAB
M  END
>  <Structure No>
5657

>  <LogS>
-4.2727

>  <MMFF94 Energy>
-15.16

$$$$
Compound 5658
Actelion Java MolfileCreator 2.0

  0  0  0  0  0  0              0 V3000
M  V30 BEGIN CTAB
M  V30 COUNTS 29 30 0 0 0
M  V30 BEGIN ATOM
M  V30 1 Cl 5.5738 0.9819 0.6545 0
M  V30 2 C 3.9231 0.4191 0.4672 0
M  V30 3 C 3.4395 0.0766 -0.8006 0
M  V30 4 C 3.0897 0.3083 1.5861 0
M  V30 5 C 2.1237 -0.3718 -0.9505 0
M  V30 6 C 1.7737 -0.1401 1.4376 0
M  V30 7 C 1.2815 -0.4692 0.167 0
M  V30 8 N -0.0625 -0.9458 0.019 0
M  V30 9 N -0.2935 -2.2113 0.3743 0
M  V30 10 C -1.0794 -0.1417 -0.4512 0
M  V30 11 C -1.5215 -2.773 0.2972 0
M  V30 12 C -2.3868 -0.6882 -0.5523 0
M  V30 13 C -0.8381 1.3417 -0.701 0
M  V30 14 C -2.5925 -2.0222 -0.1657 0
M  V30 15 C -3.5412 0.1026 -1.0352 0
M  V30 16 C -1.1447 2.1563 0.5516 0
M  V30 17 O -3.7343 -2.5526 -0.2409 0
M  V30 18 O -4.5908 0.1733 -0.3428 0
M  V30 19 O -3.5051 0.7183 -2.28 0 CHG=-1
M  V30 20 H 4.0817 0.156 -1.6683 0
M  V30 21 H 3.4605 0.5677 2.5695 0
M  V30 22 H 1.7557 -0.6383 -1.9331 0
M  V30 23 H 1.1342 -0.2258 2.3072 0
M  V30 24 H -1.6591 -3.8041 0.597 0
M  V30 25 H -1.4496 1.7201 -1.5408 0
M  V30 26 H 0.208 1.5387 -1.0074 0
M  V30 27 H -0.9531 3.2318 0.3527 0
M  V30 28 H -2.2097 2.0336 0.8422 0
M  V30 29 H -0.4972 1.8302 1.3927 0
M  V30 END ATOM
M  V30 BEGIN BOND
M  V30 1 1 1 2
M  V30 2 2 2 3
M  V30 3 1 2 4
M  V30 4 1 3 5
M  V30 5 2 4 6
M  V30 6 2 5 7
M  V30 7 1 7 8
M  V30 8 1 8 9
M  V30 9 1 8 10
M  V30 10 2 9 11
M  V30 11 2 10 12
M  V30 12 1 10 13
M  V30 13 1 11 14
M  V30 14 1 12 15
M  V30 15 1 13 16
M  V30 16 2 14 17
M  V30 17 2 15 18
M  V30 18 1 15 19
M  V30 19 1 6 7
M  V30 20 1 12 14
M  V30 21 1 3 20
M  V30 22 1 4 21
M  V30 23 1 5 22
M  V30 24 1 6 23
M  V30 25 1 11 24
M  V30 26 1 13 25
M  V30 27 1 13 26
M  V30 28 1 16 27
M  V30 29 1 16 28
M  V30 30 1 16 29
M  V30 END BOND
M  V30 END CTAB
M  END
>  <Structure No>
5658

>  <LogS>
0.4

>  <MMFF94 Energy>
41.313

$$$$
Compound 5659
Actelion Java MolfileCreator 2.0

  0  0  0  0  0  0              0 V3000
M  V30 BEGIN CTAB
M  V30 COUNTS 38 40 0 0 0
M  V30 BEGIN ATOM
M  V30 1 Cl 5.4391 2.4326 0.162 0
M  V30 2 C 3.9248 1.5546 0.0496 0
M  V30 3 C 3.4956 1.0549 -1.1812 0
M  V30 4 C 3.1502 1.347 1.1921 0
M  V30 5 C 2.289 0.3552 -1.2755 0
M  V30 6 C 1.9435 0.6483 1.1046 0
M  V30 7 C 1.4807 0.1538 -0.1344 0
M  V30 8 C 0.1466 -0.613 -0.2073 0 CFG=2
M  V30 9 O -0.1173 -1.0184 -1.5333 0
M  V30 10 C -1.024 0.2873 0.3456 0 CFG=1
M  V30 11 C 0.2977 -1.8941 0.6686 0
M  V30 12 N -0.9384 1.666 -0.1664 0
M  V30 13 C -2.4383 -0.2793 0.0974 0
M  V30 14 C -0.5945 -3.0947 0.2916 0
M  V30 15 N -0.4061 2.667 0.5119 0
M  V30 16 C -1.3357 2.1438 -1.3619 0
M  V30 17 C -2.6847 -1.6419 0.762 0
M  V30 18 C -2.0663 -2.7942 -0.0408 0
M  V30 19 C -0.4904 3.744 -0.2911 0
M  V30 20 N -1.0685 3.4588 -1.4772 0
M  V30 21 H 4.0985 1.205 -2.0677 0
M  V30 22 H 3.4824 1.7252 2.1505 0
M  V30 23 H 2.0025 -0.0267 -2.2454 0
M  V30 24 H 1.3685 0.4971 2.0085 0
M  V30 25 H -0.2936 -0.212 -2.0799 0
M  V30 26 H -0.9173 0.3542 1.4516 0
M  V30 27 H 0.1378 -1.6521 1.742 0
M  V30 28 H 1.3467 -2.2628 0.6054 0
M  V30 29 H -3.1718 0.4402 0.5241 0
M  V30 30 H -2.655 -0.3422 -0.9901 0
M  V30 31 H -0.5646 -3.8149 1.1387 0
M  V30 32 H -0.1432 -3.6177 -0.5797 0
M  V30 33 H -1.8159 1.5612 -2.136 0
M  V30 34 H -3.7846 -1.8033 0.7931 0
M  V30 35 H -2.3309 -1.6481 1.8158 0
M  V30 36 H -2.6525 -3.7169 0.1644 0
M  V30 37 H -2.1751 -2.6077 -1.1314 0
M  V30 38 H -0.1344 4.7276 -0.0166 0
M  V30 END ATOM
M  V30 BEGIN BOND
M  V30 1 1 1 2
M  V30 2 2 2 3
M  V30 3 1 2 4
M  V30 4 1 3 5
M  V30 5 2 4 6
M  V30 6 2 5 7
M  V30 7 1 7 8
M  V30 8 1 8 9
M  V30 9 1 8 10
M  V30 10 1 8 11
M  V30 11 1 10 12
M  V30 12 1 10 13
M  V30 13 1 11 14
M  V30 14 1 12 15
M  V30 15 1 12 16
M  V30 16 1 13 17
M  V30 17 1 14 18
M  V30 18 2 15 19
M  V30 19 2 16 20
M  V30 20 1 6 7
M  V30 21 1 17 18
M  V30 22 1 19 20
M  V30 23 1 3 21
M  V30 24 1 4 22
M  V30 25 1 5 23
M  V30 26 1 6 24
M  V30 27 1 9 25
M  V30 28 1 10 26
M  V30 29 1 11 27
M  V30 30 1 11 28
M  V30 31 1 13 29
M  V30 32 1 13 30
M  V30 33 1 14 31
M  V30 34 1 14 32
M  V30 35 1 16 33
M  V30 36 1 17 34
M  V30 37 1 17 35
M  V30 38 1 18 36
M  V30 39 1 18 37
M  V30 40 1 19 38
M  V30 END BOND
M  V30 BEGIN COLLECTION
M  V30 MDLV30/STEABS ATOMS=(2 8 10)
M  V30 END COLLECTION
M  V30 END CTAB
M  END
>  <Structure No>
5659

>  <LogS>
-3.3681

>  <MMFF94 Energy>
58.903

$$$$
Compound 5660
Actelion Java MolfileCreator 2.0

  0  0  0  0  0  0              0 V3000
M  V30 BEGIN CTAB
M  V30 COUNTS 39 40 0 0 0
M  V30 BEGIN ATOM
M  V30 1 Cl 3.1464 0.6617 3.1464 0
M  V30 2 C 1.5226 0.4317 2.5148 0
M  V30 3 C 1.2674 0.5687 1.1429 0
M  V30 4 C 0.4853 0.1143 3.3956 0
M  V30 5 O 2.3327 0.897 0.2897 0
M  V30 6 C -0.0437 0.377 0.6646 0
M  V30 7 C -0.8134 -0.0768 2.9185 0
M  V30 8 C 2.2229 1.0438 -1.1233 0
M  V30 9 C -1.0869 0.0391 1.5442 0
M  V30 10 F -1.7966 -0.399 3.7974 0
M  V30 11 C 3.5688 1.3453 -1.6927 0
M  V30 12 C -2.4653 -0.1498 1.0402 0
M  V30 13 O 3.7043 2.2856 -2.5233 0
M  V30 14 O 4.6628 0.5592 -1.32 0
M  V30 15 N -3.5596 0.2622 1.7138 0
M  V30 16 C -2.8526 -0.7749 -0.1417 0
M  V30 17 C 5.9779 0.7884 -1.8145 0
M  V30 18 N -4.6218 -0.0665 0.9972 0
M  V30 19 Cl -1.804 -1.6168 -1.2777 0
M  V30 20 C -4.241 -0.7028 -0.1256 0
M  V30 21 C 6.934 -0.229 -1.211 0
M  V30 22 C -5.9941 0.1874 1.4167 0
M  V30 23 O -5.1614 -1.1941 -1.0645 0
M  V30 24 C -4.8224 -1.8123 -2.2999 0
M  V30 25 F -5.9827 -2.2049 -2.939 0
M  V30 26 F -4.1494 -0.9147 -3.1089 0
M  V30 27 H 0.6865 0.0127 4.4546 0
M  V30 28 H -0.2612 0.5175 -0.3841 0
M  V30 29 H 1.5181 1.8713 -1.3595 0
M  V30 30 H 1.8501 0.0987 -1.5736 0
M  V30 31 H 5.9856 0.6889 -2.9219 0
M  V30 32 H 6.3092 1.8129 -1.5368 0
M  V30 33 H 6.9362 -0.1376 -0.1035 0
M  V30 34 H 7.9621 -0.0491 -1.5903 0
M  V30 35 H 6.6207 -1.2573 -1.4919 0
M  V30 36 H -6.0059 0.8141 2.3344 0
M  V30 37 H -6.503 -0.7761 1.6309 0
M  V30 38 H -6.5411 0.7221 0.6111 0
M  V30 39 H -4.2007 -2.7137 -2.121 0
M  V30 END ATOM
M  V30 BEGIN BOND
M  V30 1 1 1 2
M  V30 2 2 2 3
M  V30 3 1 2 4
M  V30 4 1 3 5
M  V30 5 1 3 6
M  V30 6 2 4 7
M  V30 7 1 5 8
M  V30 8 2 6 9
M  V30 9 1 7 10
M  V30 10 1 8 11
M  V30 11 1 9 12
M  V30 12 2 11 13
M  V30 13 1 11 14
M  V30 14 2 12 15
M  V30 15 1 12 16
M  V30 16 1 14 17
M  V30 17 1 15 18
M  V30 18 1 16 19
M  V30 19 2 16 20
M  V30 20 1 17 21
M  V30 21 1 18 22
M  V30 22 1 20 23
M  V30 23 1 23 24
M  V30 24 1 24 25
M  V30 25 1 24 26
M  V30 26 1 7 9
M  V30 27 1 18 20
M  V30 28 1 4 27
M  V30 29 1 6 28
M  V30 30 1 8 29
M  V30 31 1 8 30
M  V30 32 1 17 31
M  V30 33 1 17 32
M  V30 34 1 21 33
M  V30 35 1 21 34
M  V30 36 1 21 35
M  V30 37 1 22 36
M  V30 38 1 22 37
M  V30 39 1 22 38
M  V30 40 1 24 39
M  V30 END BOND
M  V30 END CTAB
M  END
>  <Structure No>
5660

>  <LogS>
-5.6161

>  <MMFF94 Energy>
77.052

$$$$
Compound 5661
Actelion Java MolfileCreator 2.0

  0  0  0  0  0  0              0 V3000
M  V30 BEGIN CTAB
M  V30 COUNTS 24 26 0 0 0
M  V30 BEGIN ATOM
M  V30 1 F 2.8763 -2.465 -1.3141 0
M  V30 2 C 2.4055 -1.2181 -1.6804 0
M  V30 3 F 2.4668 -1.0624 -3.0523 0
M  V30 4 O 1.0598 -1.0414 -1.2204 0
M  V30 5 O 3.1625 -0.1904 -1.0292 0
M  V30 6 C 1.0413 0.0231 -0.3375 0
M  V30 7 C 2.2968 0.5355 -0.2339 0
M  V30 8 C -0.0447 0.5733 0.3547 0
M  V30 9 C 2.5805 1.6411 0.5611 0
M  V30 10 C -1.4114 0.021 0.2383 0
M  V30 11 C 0.2107 1.7099 1.1554 0
M  V30 12 C 1.5169 2.235 1.2617 0
M  V30 13 C -1.7991 -1.3106 0.2068 0
M  V30 14 C -2.5816 0.7591 0.1906 0
M  V30 15 C -0.9624 -2.4716 0.3574 0
M  V30 16 C -3.1762 -1.3267 0.1359 0
M  V30 17 N -3.6437 -0.0651 0.121 0
M  V30 18 N -0.2903 -3.4056 0.4797 0
M  V30 19 H 3.5855 2.0363 0.6294 0
M  V30 20 H -0.5917 2.1811 1.7089 0
M  V30 21 H 1.7004 3.1004 1.8851 0
M  V30 22 H -2.655 1.8389 0.2051 0
M  V30 23 H -3.8046 -2.208 0.1219 0
M  V30 24 H -4.6467 0.2215 0.0805 0
M  V30 END ATOM
M  V30 BEGIN BOND
M  V30 1 1 1 2
M  V30 2 1 2 3
M  V30 3 1 2 4
M  V30 4 1 2 5
M  V30 5 1 4 6
M  V30 6 1 5 7
M  V30 7 1 6 8
M  V30 8 1 7 9
M  V30 9 1 8 10
M  V30 10 2 8 11
M  V30 11 2 9 12
M  V30 12 1 10 13
M  V30 13 2 10 14
M  V30 14 1 13 15
M  V30 15 2 13 16
M  V30 16 1 14 17
M  V30 17 3 15 18
M  V30 18 2 6 7
M  V30 19 1 11 12
M  V30 20 1 16 17
M  V30 21 1 9 19
M  V30 22 1 11 20
M  V30 23 1 12 21
M  V30 24 1 14 22
M  V30 25 1 16 23
M  V30 26 1 17 24
M  V30 END BOND
M  V30 END CTAB
M  END
>  <Structure No>
5661

>  <LogS>
-5.1395

>  <MMFF94 Energy>
42.219

$$$$
Compound 5662
Actelion Java MolfileCreator 2.0

  0  0  0  0  0  0              0 V3000
M  V30 BEGIN CTAB
M  V30 COUNTS 46 49 0 0 0
M  V30 BEGIN ATOM
M  V30 1 O -2.1762 -2.5797 2.9832 0
M  V30 2 C -1.8817 -2.21 1.8166 0
M  V30 3 O -0.6948 -2.5496 1.1839 0
M  V30 4 N -2.7344 -1.4259 1.0046 0
M  V30 5 C -0.679 -2.0258 -0.1484 0 CFG=1
M  V30 6 N -4.131 -1.3588 1.1548 0
M  V30 7 C -2.0412 -1.3799 -0.2376 0
M  V30 8 C 0.4336 -1.0005 -0.3304 0
M  V30 9 C -0.5427 -3.1862 -1.1409 0
M  V30 10 C -4.909 -0.2724 0.628 0
M  V30 11 O -2.5537 -0.9317 -1.2984 0
M  V30 12 C 0.5265 -0.2586 -1.5243 0
M  V30 13 C 1.4014 -0.7857 0.6713 0
M  V30 14 C -4.3172 0.9668 0.3226 0
M  V30 15 C -6.2932 -0.4312 0.4557 0
M  V30 16 C 1.5491 0.6759 -1.7059 0
M  V30 17 C 2.423 0.1498 0.4855 0
M  V30 18 C -5.0965 2.0169 -0.173 0
M  V30 19 C -7.0691 0.6212 -0.0402 0
M  V30 20 C 2.5116 0.8767 -0.713 0
M  V30 21 C -6.4708 1.8434 -0.3572 0
M  V30 22 O 3.5129 1.8352 -0.9284 0
M  V30 23 C 4.813 1.7852 -0.4042 0
M  V30 24 C 5.4834 2.9888 -0.1515 0
M  V30 25 C 5.4764 0.5654 -0.1721 0
M  V30 26 C 6.7864 2.9796 0.3566 0
M  V30 27 C 6.7794 0.5591 0.3358 0
M  V30 28 C 7.4327 1.7653 0.6037 0
M  V30 29 H -4.6144 -2.1019 1.7087 0
M  V30 30 H 0.4451 -3.6785 -1.0148 0
M  V30 31 H -0.6323 -2.8274 -2.1882 0
M  V30 32 H -1.3367 -3.9424 -0.9591 0
M  V30 33 H -0.1923 -0.4024 -2.32 0
M  V30 34 H 1.3718 -1.3329 1.6041 0
M  V30 35 H -3.2585 1.1277 0.4792 0
M  V30 36 H -6.7683 -1.3734 0.6988 0
M  V30 37 H 1.6 1.2401 -2.6286 0
M  V30 38 H 3.1331 0.3177 1.2847 0
M  V30 39 H -4.6356 2.9675 -0.4089 0
M  V30 40 H -8.1347 0.4894 -0.1773 0
M  V30 41 H -7.0727 2.6577 -0.7399 0
M  V30 42 H 4.9899 3.9334 -0.3425 0
M  V30 43 H 4.9962 -0.3767 -0.401 0
M  V30 44 H 7.2952 3.9136 0.5571 0
M  V30 45 H 7.2854 -0.3808 0.5148 0
M  V30 46 H 8.4415 1.7591 0.9954 0
M  V30 END ATOM
M  V30 BEGIN BOND
M  V30 1 2 1 2
M  V30 2 1 2 3
M  V30 3 1 2 4
M  V30 4 1 3 5
M  V30 5 1 4 6
M  V30 6 1 4 7
M  V30 7 1 5 8
M  V30 8 1 5 9
M  V30 9 1 6 10
M  V30 10 2 7 11
M  V30 11 2 8 12
M  V30 12 1 8 13
M  V30 13 2 10 14
M  V30 14 1 10 15
M  V30 15 1 12 16
M  V30 16 2 13 17
M  V30 17 1 14 18
M  V30 18 2 15 19
M  V30 19 2 16 20
M  V30 20 2 18 21
M  V30 21 1 20 22
M  V30 22 1 22 23
M  V30 23 2 23 24
M  V30 24 1 23 25
M  V30 25 1 24 26
M  V30 26 2 25 27
M  V30 27 2 26 28
M  V30 28 1 5 7
M  V30 29 1 17 20
M  V30 30 1 19 21
M  V30 31 1 27 28
M  V30 32 1 6 29
M  V30 33 1 9 30
M  V30 34 1 9 31
M  V30 35 1 9 32
M  V30 36 1 12 33
M  V30 37 1 13 34
M  V30 38 1 14 35
M  V30 39 1 15 36
M  V30 40 1 16 37
M  V30 41 1 17 38
M  V30 42 1 18 39
M  V30 43 1 19 40
M  V30 44 1 21 41
M  V30 45 1 24 42
M  V30 46 1 25 43
M  V30 47 1 26 44
M  V30 48 1 27 45
M  V30 49 1 28 46
M  V30 END BOND
M  V30 BEGIN COLLECTION
M  V30 MDLV30/STEABS ATOMS=(1 5)
M  V30 END COLLECTION
M  V30 END CTAB
M  END
>  <Structure No>
5662

>  <LogS>
-6.8573

>  <MMFF94 Energy>
114.58

$$$$
Compound 5663
Actelion Java MolfileCreator 2.0

  0  0  0  0  0  0              0 V3000
M  V30 BEGIN CTAB
M  V30 COUNTS 47 49 0 0 0
M  V30 BEGIN ATOM
M  V30 1 O -4.8332 -2.1727 0.9652 0
M  V30 2 C -3.9271 -1.4414 1.4538 0
M  V30 3 O -3.089 -1.9409 2.4566 0
M  V30 4 C -3.7362 -0.0547 0.9687 0
M  V30 5 C -3.2103 -3.2607 2.9727 0
M  V30 6 C -2.7321 0.8053 1.6385 0
M  V30 7 C -4.4654 0.4225 -0.0526 0
M  V30 8 C -1.6143 1.299 0.9339 0
M  V30 9 C -2.8804 1.1052 3.0028 0
M  V30 10 O -4.313 1.7411 -0.4862 0
M  V30 11 O -1.4627 0.9839 -0.4262 0
M  V30 12 C -0.6905 2.1278 1.5977 0
M  V30 13 C -1.9446 1.9108 3.6552 0
M  V30 14 C -5.0636 2.2563 -1.5762 0
M  V30 15 C -0.2403 0.8084 -1.0888 0
M  V30 16 C -0.8547 2.4261 2.9523 0
M  V30 17 N -0.1721 1.0797 -2.4183 0
M  V30 18 C 0.8972 0.3183 -0.4295 0
M  V30 19 C 0.9827 0.912 -3.1129 0
M  V30 20 C 2.0737 0.1425 -1.1585 0
M  V30 21 N 2.0948 0.4539 -2.4832 0
M  V30 22 O 3.2224 -0.3181 -0.5024 0
M  V30 23 C 4.3655 -0.834 -1.1344 0
M  V30 24 C 5.6246 -0.644 -0.5359 0
M  V30 25 C 4.2779 -1.5755 -2.3285 0
M  V30 26 C 5.7436 0.0922 0.6975 0
M  V30 27 C 6.7773 -1.1602 -1.1436 0
M  V30 28 C 5.4318 -2.0884 -2.9274 0
M  V30 29 N 5.8387 0.6836 1.6877 0
M  V30 30 C 6.68 -1.877 -2.3387 0
M  V30 31 H -3.056 -4.0021 2.1604 0
M  V30 32 H -4.2154 -3.4014 3.424 0
M  V30 33 H -2.4397 -3.4181 3.7549 0
M  V30 34 H -5.1901 -0.2117 -0.5506 0
M  V30 35 H -3.7274 0.7216 3.5588 0
M  V30 36 H 0.1489 2.5536 1.0643 0
M  V30 37 H -2.0687 2.142 4.7052 0
M  V30 38 H -6.1495 2.1998 -1.3499 0
M  V30 39 H -4.784 3.3167 -1.7428 0
M  V30 40 H -4.8423 1.6755 -2.4966 0
M  V30 41 H -0.1374 3.0607 3.4569 0
M  V30 42 H 0.8683 0.0564 0.6201 0
M  V30 43 H 1.0166 1.1438 -4.1685 0
M  V30 44 H 3.3187 -1.7844 -2.7822 0
M  V30 45 H 7.7508 -1.0093 -0.6922 0
M  V30 46 H 5.3569 -2.6581 -3.8447 0
M  V30 47 H 7.5719 -2.2762 -2.8041 0
M  V30 END ATOM
M  V30 BEGIN BOND
M  V30 1 2 1 2
M  V30 2 1 2 3
M  V30 3 1 2 4
M  V30 4 1 3 5
M  V30 5 1 4 6
M  V30 6 2 4 7
M  V30 7 2 6 8
M  V30 8 1 6 9
M  V30 9 1 7 10
M  V30 10 1 8 11
M  V30 11 1 8 12
M  V30 12 2 9 13
M  V30 13 1 10 14
M  V30 14 1 11 15
M  V30 15 2 12 16
M  V30 16 2 15 17
M  V30 17 1 15 18
M  V30 18 1 17 19
M  V30 19 2 18 20
M  V30 20 2 19 21
M  V30 21 1 20 22
M  V30 22 1 22 23
M  V30 23 2 23 24
M  V30 24 1 23 25
M  V30 25 1 24 26
M  V30 26 1 24 27
M  V30 27 2 25 28
M  V30 28 3 26 29
M  V30 29 2 27 30
M  V30 30 1 13 16
M  V30 31 1 20 21
M  V30 32 1 28 30
M  V30 33 1 5 31
M  V30 34 1 5 32
M  V30 35 1 5 33
M  V30 36 1 7 34
M  V30 37 1 9 35
M  V30 38 1 12 36
M  V30 39 1 13 37
M  V30 40 1 14 38
M  V30 41 1 14 39
M  V30 42 1 14 40
M  V30 43 1 16 41
M  V30 44 1 18 42
M  V30 45 1 19 43
M  V30 46 1 25 44
M  V30 47 1 27 45
M  V30 48 1 28 46
M  V30 49 1 30 47
M  V30 END BOND
M  V30 END CTAB
M  END
>  <Structure No>
5663

>  <LogS>
-4.8276

>  <MMFF94 Energy>
46.4

$$$$
Compound 5664
Actelion Java MolfileCreator 2.0

  0  0  0  0  0  0              0 V3000
M  V30 BEGIN CTAB
M  V30 COUNTS 37 38 0 0 0
M  V30 BEGIN ATOM
M  V30 1 O -3.9772 -0.6355 0.556 0
M  V30 2 C -3.0153 -0.7476 -0.2522 0
M  V30 3 N -3.2769 -1.0694 -1.626 0
M  V30 4 C -1.6216 -0.5454 0.2217 0
M  V30 5 C -4.622 -1.3696 -2.0997 0
M  V30 6 N -1.358 0.2506 1.2164 0
M  V30 7 C -0.4972 -1.2667 -0.4257 0
M  V30 8 O -2.3256 0.981 1.8704 0
M  V30 9 C 0.7426 -0.6278 -0.652 0
M  V30 10 C -0.6498 -2.6187 -0.7852 0
M  V30 11 C -1.9707 1.8408 2.9399 0
M  V30 12 O 0.8929 0.7298 -0.3266 0
M  V30 13 C 1.7905 -1.3435 -1.2602 0
M  V30 14 C 0.4034 -3.3199 -1.3754 0
M  V30 15 C 2.07 1.3278 0.1467 0
M  V30 16 C 1.6204 -2.6826 -1.615 0
M  V30 17 C 3.0262 0.609 0.889 0
M  V30 18 C 2.2707 2.6938 -0.0885 0
M  V30 19 C 4.1778 1.2487 1.3586 0
M  V30 20 C 3.4232 3.3309 0.382 0
M  V30 21 C 4.378 2.6079 1.1022 0
M  V30 22 H -2.494 -1.0711 -2.3179 0
M  V30 23 H -5.2885 -0.4999 -1.9193 0
M  V30 24 H -5.0185 -2.2592 -1.5663 0
M  V30 25 H -4.5995 -1.5846 -3.1889 0
M  V30 26 H -1.5825 -3.1365 -0.5977 0
M  V30 27 H -1.5003 1.252 3.7551 0
M  V30 28 H -1.2586 2.6132 2.5804 0
M  V30 29 H -2.8828 2.3384 3.3289 0
M  V30 30 H 2.7322 -0.8577 -1.4802 0
M  V30 31 H 0.2749 -4.3594 -1.6483 0
M  V30 32 H 2.432 -3.2256 -2.082 0
M  V30 33 H 2.8737 -0.4364 1.1219 0
M  V30 34 H 1.5337 3.261 -0.6429 0
M  V30 35 H 4.9114 0.6924 1.9278 0
M  V30 36 H 3.575 4.3852 0.19 0
M  V30 37 H 5.269 3.1022 1.4676 0
M  V30 END ATOM
M  V30 BEGIN BOND
M  V30 1 2 1 2
M  V30 2 1 2 3
M  V30 3 1 2 4
M  V30 4 1 3 5
M  V30 5 2 4 6
M  V30 6 1 4 7
M  V30 7 1 6 8
M  V30 8 2 7 9
M  V30 9 1 7 10
M  V30 10 1 8 11
M  V30 11 1 9 12
M  V30 12 1 9 13
M  V30 13 2 10 14
M  V30 14 1 12 15
M  V30 15 2 13 16
M  V30 16 2 15 17
M  V30 17 1 15 18
M  V30 18 1 17 19
M  V30 19 2 18 20
M  V30 20 2 19 21
M  V30 21 1 14 16
M  V30 22 1 20 21
M  V30 23 1 3 22
M  V30 24 1 5 23
M  V30 25 1 5 24
M  V30 26 1 5 25
M  V30 27 1 10 26
M  V30 28 1 11 27
M  V30 29 1 11 28
M  V30 30 1 11 29
M  V30 31 1 13 30
M  V30 32 1 14 31
M  V30 33 1 16 32
M  V30 34 1 17 33
M  V30 35 1 18 34
M  V30 36 1 19 35
M  V30 37 1 20 36
M  V30 38 1 21 37
M  V30 END BOND
M  V30 END CTAB
M  END
>  <Structure No>
5664

>  <LogS>
-3.3466

>  <MMFF94 Energy>
84.767

$$$$
Compound 5665
Actelion Java MolfileCreator 2.0

  0  0  0  0  0  0              0 V3000
M  V30 BEGIN CTAB
M  V30 COUNTS 19 20 0 0 0
M  V30 BEGIN ATOM
M  V30 1 S -0.9417 2.827 -0.0855 0
M  V30 2 N -2.4559 3.0132 -0.7531 0
M  V30 3 C -0.9764 1.1647 0.0694 0
M  V30 4 N -3.0105 1.8071 -0.8688 0
M  V30 5 C -0.0368 0.2424 0.561 0
M  V30 6 C -2.2183 0.7864 -0.4259 0
M  V30 7 C 1.2897 0.664 1.0846 0
M  V30 8 C -0.417 -1.1198 0.5307 0
M  V30 9 C -2.5837 -0.5571 -0.451 0
M  V30 10 S 2.5232 -0.534 1.6077 0
M  V30 11 O 1.5807 1.8857 1.1782 0
M  V30 12 C -1.6752 -1.5114 0.0308 0
M  V30 13 C 3.2684 -0.6623 -0.0466 0
M  V30 14 H 0.2482 -1.8914 0.8928 0
M  V30 15 H -3.549 -0.8616 -0.8353 0
M  V30 16 H -1.9442 -2.5596 0.0182 0
M  V30 17 H 4.1123 -1.3811 -0.0093 0
M  V30 18 H 2.516 -1.0283 -0.7762 0
M  V30 19 H 3.6526 0.3279 -0.3694 0
M  V30 END ATOM
M  V30 BEGIN BOND
M  V30 1 1 1 2
M  V30 2 1 1 3
M  V30 3 2 2 4
M  V30 4 2 3 5
M  V30 5 1 3 6
M  V30 6 1 5 7
M  V30 7 1 5 8
M  V30 8 2 6 9
M  V30 9 1 7 10
M  V30 10 2 7 11
M  V30 11 2 8 12
M  V30 12 1 10 13
M  V30 13 1 4 6
M  V30 14 1 9 12
M  V30 15 1 8 14
M  V30 16 1 9 15
M  V30 17 1 12 16
M  V30 18 1 13 17
M  V30 19 1 13 18
M  V30 20 1 13 19
M  V30 END BOND
M  V30 END CTAB
M  END
>  <Structure No>
5665

>  <LogS>
-4.4363

>  <MMFF94 Energy>
19.943

$$$$
Compound 5666
Actelion Java MolfileCreator 2.0

  0  0  0  0  0  0              0 V3000
M  V30 BEGIN CTAB
M  V30 COUNTS 26 26 0 0 0
M  V30 BEGIN ATOM
M  V30 1 Cl 1.2881 -4.5948 -2.1745 0
M  V30 2 C 1.1881 -2.9271 -1.6472 0
M  V30 3 N 0.3155 -2.0795 -2.2543 0
M  V30 4 C 2.0017 -2.4666 -0.6091 0
M  V30 5 C 0.2029 -0.7778 -1.8774 0
M  V30 6 C 1.9056 -1.1339 -0.2046 0
M  V30 7 C 0.9938 -0.2735 -0.8338 0
M  V30 8 C 0.8739 1.168 -0.4147 0
M  V30 9 N -0.4981 1.4715 0.0306 0
M  V30 10 C -1.0887 0.8244 1.1855 0
M  V30 11 C -1.3144 2.4154 -0.744 0
M  V30 12 N -2.3893 0.7849 1.2832 0
M  V30 13 C -0.2173 0.1383 2.2161 0
M  V30 14 C -3.1005 0.1479 2.3145 0
M  V30 15 N -3.6868 -0.3765 3.1633 0
M  V30 16 H 2.7012 -3.133 -0.1208 0
M  V30 17 H -0.5037 -0.1367 -2.3886 0
M  V30 18 H 2.5358 -0.7767 0.6002 0
M  V30 19 H 1.5986 1.4253 0.3851 0
M  V30 20 H 1.1619 1.7964 -1.2842 0
M  V30 21 H -0.7416 2.8769 -1.5752 0
M  V30 22 H -2.1876 1.8868 -1.1813 0
M  V30 23 H -1.6738 3.2304 -0.0807 0
M  V30 24 H -0.6655 0.205 3.2292 0
M  V30 25 H -0.0934 -0.9306 1.9462 0
M  V30 26 H 0.7769 0.6193 2.2893 0
M  V30 END ATOM
M  V30 BEGIN BOND
M  V30 1 1 1 2
M  V30 2 2 2 3
M  V30 3 1 2 4
M  V30 4 1 3 5
M  V30 5 2 4 6
M  V30 6 2 5 7
M  V30 7 1 7 8
M  V30 8 1 8 9
M  V30 9 1 9 10
M  V30 10 1 9 11
M  V30 11 2 10 12
M  V30 12 1 10 13
M  V30 13 1 12 14
M  V30 14 3 14 15
M  V30 15 1 6 7
M  V30 16 1 4 16
M  V30 17 1 5 17
M  V30 18 1 6 18
M  V30 19 1 8 19
M  V30 20 1 8 20
M  V30 21 1 11 21
M  V30 22 1 11 22
M  V30 23 1 11 23
M  V30 24 1 13 24
M  V30 25 1 13 25
M  V30 26 1 13 26
M  V30 END BOND
M  V30 END CTAB
M  END
>  <Structure No>
5666

>  <LogS>
-1.7244

>  <MMFF94 Energy>
-5.8455

$$$$
Compound 5667
Actelion Java MolfileCreator 2.0

  0  0  0  0  0  0              0 V3000
M  V30 BEGIN CTAB
M  V30 COUNTS 42 43 0 0 0
M  V30 BEGIN ATOM
M  V30 1 Cl -0.1634 -3.1902 -2.2078 0
M  V30 2 C -1.3642 -2.9343 -0.9477 0
M  V30 3 C -1.3102 -1.8147 -0.0903 0
M  V30 4 C -2.4207 -3.8472 -0.8399 0
M  V30 5 N -0.2367 -0.8611 -0.1894 0
M  V30 6 C -2.3272 -1.6321 0.8611 0
M  V30 7 C -3.425 -3.6556 0.1127 0
M  V30 8 N 1.1015 -1.2513 -0.2227 0
M  V30 9 C -0.3794 0.56 -0.521 0 CFG=1
M  V30 10 C -3.3774 -2.5476 0.9618 0
M  V30 11 Cl -4.7463 -4.8023 0.2385 0
M  V30 12 C 1.8508 -0.2573 -0.55 0
M  V30 13 C -0.9261 1.3264 0.6637 0
M  V30 14 C 1.0812 0.9962 -0.8164 0
M  V30 15 C -1.2653 0.7291 -1.7706 0
M  V30 16 C 3.3084 -0.3719 -0.6703 0
M  V30 17 O -0.394 1.1771 1.799 0
M  V30 18 O -1.9954 2.2169 0.4973 0
M  V30 19 O 3.8735 -1.4742 -0.4317 0
M  V30 20 O 4.0567 0.7454 -1.0572 0
M  V30 21 C -2.5923 2.9405 1.5716 0
M  V30 22 C 5.4795 0.7434 -1.1526 0
M  V30 23 C -3.4663 2.0237 2.4198 0
M  V30 24 C 6.1114 0.8106 0.2328 0
M  V30 25 H -2.4653 -4.7017 -1.5032 0
M  V30 26 H -2.3023 -0.7937 1.5407 0
M  V30 27 H -4.1525 -2.3955 1.702 0
M  V30 28 H 1.2313 1.3038 -1.8745 0
M  V30 29 H 1.4381 1.8092 -0.1463 0
M  V30 30 H -2.3077 0.409 -1.5563 0
M  V30 31 H -1.28 1.7918 -2.0952 0
M  V30 32 H -0.8753 0.1093 -2.6065 0
M  V30 33 H -1.8088 3.4175 2.2 0
M  V30 34 H -3.2281 3.7448 1.1444 0
M  V30 35 H 5.7959 1.6357 -1.7325 0
M  V30 36 H 5.8306 -0.1618 -1.6939 0
M  V30 37 H -4.2141 1.5107 1.7784 0
M  V30 38 H -2.8436 1.2629 2.9344 0
M  V30 39 H -3.9995 2.6223 3.1879 0
M  V30 40 H 5.7504 1.7134 0.7702 0
M  V30 41 H 7.216 0.8663 0.1369 0
M  V30 42 H 5.8499 -0.093 0.822 0
M  V30 END ATOM
M  V30 BEGIN BOND
M  V30 1 1 1 2
M  V30 2 2 2 3
M  V30 3 1 2 4
M  V30 4 1 3 5
M  V30 5 1 3 6
M  V30 6 2 4 7
M  V30 7 1 5 8
M  V30 8 1 5 9
M  V30 9 2 6 10
M  V30 10 1 7 11
M  V30 11 2 8 12
M  V30 12 1 9 13
M  V30 13 1 9 14
M  V30 14 1 9 15
M  V30 15 1 12 16
M  V30 16 2 13 17
M  V30 17 1 13 18
M  V30 18 2 16 19
M  V30 19 1 16 20
M  V30 20 1 18 21
M  V30 21 1 20 22
M  V30 22 1 21 23
M  V30 23 1 22 24
M  V30 24 1 7 10
M  V30 25 1 12 14
M  V30 26 1 4 25
M  V30 27 1 6 26
M  V30 28 1 10 27
M  V30 29 1 14 28
M  V30 30 1 14 29
M  V30 31 1 15 30
M  V30 32 1 15 31
M  V30 33 1 15 32
M  V30 34 1 21 33
M  V30 35 1 21 34
M  V30 36 1 22 35
M  V30 37 1 22 36
M  V30 38 1 23 37
M  V30 39 1 23 38
M  V30 40 1 23 39
M  V30 41 1 24 40
M  V30 42 1 24 41
M  V30 43 1 24 42
M  V30 END BOND
M  V30 BEGIN COLLECTION
M  V30 MDLV30/STEABS ATOMS=(1 9)
M  V30 END COLLECTION
M  V30 END CTAB
M  END
>  <Structure No>
5667

>  <LogS>
-4.271

>  <MMFF94 Energy>
99.097

$$$$
Compound 5668
Actelion Java MolfileCreator 2.0

  0  0  0  0  0  0              0 V3000
M  V30 BEGIN CTAB
M  V30 COUNTS 31 31 0 0 0
M  V30 BEGIN ATOM
M  V30 1 S -5.195 0.0823 0.0823 0
M  V30 2 O -5.7357 -0.0452 1.479 0
M  V30 3 O -5.9897 -0.8149 -0.8246 0
M  V30 4 N -5.3488 1.7201 -0.4478 0
M  V30 5 C -3.4993 -0.3917 0.0538 0
M  V30 6 C -2.6909 -0.1866 1.181 0
M  V30 7 C -2.9431 -0.9513 -1.1049 0
M  V30 8 C -1.341 -0.5495 1.1528 0
M  V30 9 C -1.5929 -1.3138 -1.1321 0
M  V30 10 C -0.7893 -1.1114 -0.0042 0
M  V30 11 S 0.9422 -1.5766 -0.0389 0
M  V30 12 C 1.4949 0.0557 -0.6449 0
M  V30 13 C 3.0176 0.099 -0.7978 0
M  V30 14 C 3.7342 0.1037 0.56 0
M  V30 15 C 5.2519 0.1898 0.3807 0
M  V30 16 O 5.8897 0.16 1.6285 0
M  V30 17 H -4.7503 2.3016 0.1807 0
M  V30 18 H -4.9246 1.7732 -1.4009 0
M  V30 19 H -3.1034 0.2557 2.0787 0
M  V30 20 H -3.5518 -1.1042 -1.9869 0
M  V30 21 H -0.7241 -0.3884 2.0279 0
M  V30 22 H -1.1719 -1.7462 -2.0306 0
M  V30 23 H 1.1596 0.8548 0.0514 0
M  V30 24 H 1.0316 0.2412 -1.6377 0
M  V30 25 H 3.2863 1.0252 -1.3515 0
M  V30 26 H 3.3536 -0.7708 -1.4036 0
M  V30 27 H 3.4917 -0.8256 1.1191 0
M  V30 28 H 3.389 0.9748 1.1588 0
M  V30 29 H 5.6046 -0.679 -0.2147 0
M  V30 30 H 5.5254 1.119 -0.1697 0
M  V30 31 H 5.7736 1.0614 2.0286 0
M  V30 END ATOM
M  V30 BEGIN BOND
M  V30 1 2 1 2
M  V30 2 2 1 3
M  V30 3 1 1 4
M  V30 4 1 1 5
M  V30 5 2 5 6
M  V30 6 1 5 7
M  V30 7 1 6 8
M  V30 8 2 7 9
M  V30 9 2 8 10
M  V30 10 1 10 11
M  V30 11 1 11 12
M  V30 12 1 12 13
M  V30 13 1 13 14
M  V30 14 1 14 15
M  V30 15 1 15 16
M  V30 16 1 9 10
M  V30 17 1 4 17
M  V30 18 1 4 18
M  V30 19 1 6 19
M  V30 20 1 7 20
M  V30 21 1 8 21
M  V30 22 1 9 22
M  V30 23 1 12 23
M  V30 24 1 12 24
M  V30 25 1 13 25
M  V30 26 1 13 26
M  V30 27 1 14 27
M  V30 28 1 14 28
M  V30 29 1 15 29
M  V30 30 1 15 30
M  V30 31 1 16 31
M  V30 END BOND
M  V30 END CTAB
M  END
>  <Structure No>
5668

>  <LogS>
-2.5141

>  <MMFF94 Energy>
-58.458

$$$$
Compound 5669
Actelion Java MolfileCreator 2.0

  0  0  0  0  0  0              0 V3000
M  V30 BEGIN CTAB
M  V30 COUNTS 27 27 0 0 0
M  V30 BEGIN ATOM
M  V30 1 S 3.7288 0.4857 -0.2428 0
M  V30 2 O 4.4625 -0.1692 -1.3793 0
M  V30 3 O 4.45 0.1741 1.0384 0
M  V30 4 N 3.6989 2.1967 -0.486 0
M  V30 5 C 2.0806 -0.1288 -0.1639 0
M  V30 6 C 1.4226 -0.5335 -1.3329 0
M  V30 7 C 1.4085 -0.1873 1.0641 0
M  V30 8 C 0.1081 -1.0051 -1.2732 0
M  V30 9 C 0.094 -0.6588 1.1255 0
M  V30 10 C -0.5652 -1.0739 -0.0429 0
M  V30 11 C -1.9911 -1.5598 0.0148 0
M  V30 12 C -2.9878 -0.5139 -0.5105 0
M  V30 13 C -3.1238 0.7082 0.4097 0
M  V30 14 O -1.984 1.5219 0.3437 0
M  V30 15 H 3.1456 2.6067 0.2996 0
M  V30 16 H 3.1542 2.3709 -1.3603 0
M  V30 17 H 1.9242 -0.4798 -2.2906 0
M  V30 18 H 1.8988 0.1371 1.9731 0
M  V30 19 H -0.3876 -1.3122 -2.1858 0
M  V30 20 H -0.4123 -0.6912 2.0824 0
M  V30 21 H -2.0792 -2.4771 -0.6068 0
M  V30 22 H -2.2666 -1.8531 1.0518 0
M  V30 23 H -3.985 -0.9996 -0.5856 0
M  V30 24 H -2.7041 -0.1896 -1.5354 0
M  V30 25 H -4.0233 1.2949 0.1149 0
M  V30 26 H -3.2731 0.3779 1.4596 0
M  V30 27 H -2.0165 1.9877 -0.5323 0
M  V30 END ATOM
M  V30 BEGIN BOND
M  V30 1 2 1 2
M  V30 2 2 1 3
M  V30 3 1 1 4
M  V30 4 1 1 5
M  V30 5 2 5 6
M  V30 6 1 5 7
M  V30 7 1 6 8
M  V30 8 2 7 9
M  V30 9 2 8 10
M  V30 10 1 10 11
M  V30 11 1 11 12
M  V30 12 1 12 13
M  V30 13 1 13 14
M  V30 14 1 9 10
M  V30 15 1 4 15
M  V30 16 1 4 16
M  V30 17 1 6 17
M  V30 18 1 7 18
M  V30 19 1 8 19
M  V30 20 1 9 20
M  V30 21 1 11 21
M  V30 22 1 11 22
M  V30 23 1 12 23
M  V30 24 1 12 24
M  V30 25 1 13 25
M  V30 26 1 13 26
M  V30 27 1 14 27
M  V30 END BOND
M  V30 END CTAB
M  END
>  <Structure No>
5669

>  <LogS>
-1.032

>  <MMFF94 Energy>
-56.03

$$$$
Compound 5670
Actelion Java MolfileCreator 2.0

  0  0  0  0  0  0              0 V3000
M  V30 BEGIN CTAB
M  V30 COUNTS 30 30 0 0 0
M  V30 BEGIN ATOM
M  V30 1 S 4.6066 -0.1613 0.3227 0
M  V30 2 O 5.0478 -1.2437 -0.6219 0
M  V30 3 O 5.0166 -0.5436 1.7173 0
M  V30 4 N 5.366 1.3288 -0.1129 0
M  V30 5 C 2.8568 0.0215 0.2446 0
M  V30 6 C 2.1422 0.4523 1.3705 0
M  V30 7 C 2.1733 -0.2417 -0.9497 0
M  V30 8 C 0.7545 0.6095 1.3057 0
M  V30 9 C 0.7857 -0.0849 -1.016 0
M  V30 10 C 0.0676 0.3521 0.1087 0
M  V30 11 C -1.4307 0.4877 0.0475 0
M  V30 12 C -2.1053 -0.8469 0.3919 0
M  V30 13 C -3.6329 -0.7307 0.5287 0
M  V30 14 C -4.3493 -0.4877 -0.8047 0
M  V30 15 O -4.2445 0.8586 -1.1755 0
M  V30 16 H 5.0009 2.0591 0.5388 0
M  V30 17 H 5.0222 1.5785 -1.0673 0
M  V30 18 H 2.6576 0.6658 2.2981 0
M  V30 19 H 2.7129 -0.5688 -1.8292 0
M  V30 20 H 0.2156 0.9323 2.188 0
M  V30 21 H 0.2706 -0.3035 -1.9434 0
M  V30 22 H -1.7663 1.2756 0.7573 0
M  V30 23 H -1.7247 0.8099 -0.9736 0
M  V30 24 H -1.852 -1.6077 -0.3789 0
M  V30 25 H -1.7045 -1.2101 1.3642 0
M  V30 26 H -3.8959 0.0699 1.2545 0
M  V30 27 H -4.0082 -1.689 0.9492 0
M  V30 28 H -3.9217 -1.1418 -1.5976 0
M  V30 29 H -5.4247 -0.7466 -0.682 0
M  V30 30 H -4.7083 0.9406 -2.0491 0
M  V30 END ATOM
M  V30 BEGIN BOND
M  V30 1 2 1 2
M  V30 2 2 1 3
M  V30 3 1 1 4
M  V30 4 1 1 5
M  V30 5 2 5 6
M  V30 6 1 5 7
M  V30 7 1 6 8
M  V30 8 2 7 9
M  V30 9 2 8 10
M  V30 10 1 10 11
M  V30 11 1 11 12
M  V30 12 1 12 13
M  V30 13 1 13 14
M  V30 14 1 14 15
M  V30 15 1 9 10
M  V30 16 1 4 16
M  V30 17 1 4 17
M  V30 18 1 6 18
M  V30 19 1 7 19
M  V30 20 1 8 20
M  V30 21 1 9 21
M  V30 22 1 11 22
M  V30 23 1 11 23
M  V30 24 1 12 24
M  V30 25 1 12 25
M  V30 26 1 13 26
M  V30 27 1 13 27
M  V30 28 1 14 28
M  V30 29 1 14 29
M  V30 30 1 15 30
M  V30 END BOND
M  V30 END CTAB
M  END
>  <Structure No>
5670

>  <LogS>
-1.1931

>  <MMFF94 Energy>
-54.321

$$$$
Compound 5671
Actelion Java MolfileCreator 2.0

  0  0  0  0  0  0              0 V3000
M  V30 BEGIN CTAB
M  V30 COUNTS 33 33 0 0 0
M  V30 BEGIN ATOM
M  V30 1 S 5.0788 0.1609 0.0804 0
M  V30 2 O 5.5997 0.5826 -1.2649 0
M  V30 3 O 5.83 -1.0626 0.5251 0
M  V30 4 N 5.3278 1.4361 1.2205 0
M  V30 5 C 3.3597 -0.2034 -0.0331 0
M  V30 6 C 2.7828 -1.1535 0.8199 0
M  V30 7 C 2.5542 0.479 -0.9546 0
M  V30 8 C 1.415 -1.4321 0.7408 0
M  V30 9 C 1.1864 0.2014 -1.0347 0
M  V30 10 C 0.6095 -0.7659 -0.1963 0
M  V30 11 C -0.8698 -1.0378 -0.2576 0
M  V30 12 C -1.6319 -0.0717 0.6598 0
M  V30 13 C -3.1308 -0.4042 0.7701 0
M  V30 14 C -3.9143 -0.3144 -0.5521 0
M  V30 15 C -3.8998 1.0879 -1.1647 0
M  V30 16 O -4.7876 1.1316 -2.2468 0
M  V30 17 H 4.7571 2.2495 0.8977 0
M  V30 18 H 4.915 1.1198 2.1267 0
M  V30 19 H 3.3891 -1.6741 1.5502 0
M  V30 20 H 2.9824 1.23 -1.6062 0
M  V30 21 H 0.9831 -2.1637 1.4126 0
M  V30 22 H 0.5757 0.743 -1.7468 0
M  V30 23 H -1.2167 -0.9216 -1.3064 0
M  V30 24 H -1.0734 -2.0878 0.0475 0
M  V30 25 H -1.4936 0.9738 0.3114 0
M  V30 26 H -1.198 -0.1326 1.6825 0
M  V30 27 H -3.2419 -1.4325 1.1782 0
M  V30 28 H -3.5925 0.2875 1.5081 0
M  V30 29 H -3.525 -1.0508 -1.2861 0
M  V30 30 H -4.9696 -0.595 -0.3411 0
M  V30 31 H -4.2092 1.8349 -0.3994 0
M  V30 32 H -2.8756 1.332 -1.5229 0
M  V30 33 H -4.7445 2.0577 -2.6015 0
M  V30 END ATOM
M  V30 BEGIN BOND
M  V30 1 2 1 2
M  V30 2 2 1 3
M  V30 3 1 1 4
M  V30 4 1 1 5
M  V30 5 2 5 6
M  V30 6 1 5 7
M  V30 7 1 6 8
M  V30 8 2 7 9
M  V30 9 2 8 10
M  V30 10 1 10 11
M  V30 11 1 11 12
M  V30 12 1 12 13
M  V30 13 1 13 14
M  V30 14 1 14 15
M  V30 15 1 15 16
M  V30 16 1 9 10
M  V30 17 1 4 17
M  V30 18 1 4 18
M  V30 19 1 6 19
M  V30 20 1 7 20
M  V30 21 1 8 21
M  V30 22 1 9 22
M  V30 23 1 11 23
M  V30 24 1 11 24
M  V30 25 1 12 25
M  V30 26 1 12 26
M  V30 27 1 13 27
M  V30 28 1 13 28
M  V30 29 1 14 29
M  V30 30 1 14 30
M  V30 31 1 15 31
M  V30 32 1 15 32
M  V30 33 1 16 33
M  V30 END BOND
M  V30 END CTAB
M  END
>  <Structure No>
5671

>  <LogS>
-1.9712

>  <MMFF94 Energy>
-54.502

$$$$
Compound 5672
Actelion Java MolfileCreator 2.0

  0  0  0  0  0  0              0 V3000
M  V30 BEGIN CTAB
M  V30 COUNTS 47 48 0 0 0
M  V30 BEGIN ATOM
M  V30 1 S -3.3214 0.1658 1.7427 0
M  V30 2 O -2.8809 -1.1494 2.3212 0
M  V30 3 O -4.0539 0.8946 2.8345 0
M  V30 4 N -1.9441 1.1063 1.2648 0 CHG=-1
M  V30 5 C -4.4 -0.0698 0.3366 0
M  V30 6 C -0.629 0.5776 1.0761 0
M  V30 7 C -5.3952 0.9018 0.0245 0
M  V30 8 C -4.3215 -1.2485 -0.4601 0
M  V30 9 O -0.3942 -0.6383 1.3082 0
M  V30 10 N 0.4165 1.4534 0.6307 0
M  V30 11 C -5.4518 2.2324 0.6714 0
M  V30 12 C -6.3494 0.6251 -0.9678 0
M  V30 13 C -5.2915 -1.4857 -1.4472 0
M  V30 14 C -3.2415 -2.2824 -0.2778 0
M  V30 15 C 1.7489 1.0298 0.3056 0
M  V30 16 O -6.5646 2.7567 0.9449 0
M  V30 17 O -4.2876 2.9485 0.9227 0 CHG=-1
M  V30 18 C -6.3036 -0.5633 -1.6872 0
M  V30 19 N 2.1009 -0.2807 0.3616 0
M  V30 20 N 2.6686 1.9518 -0.0784 0
M  V30 21 C 3.3623 -0.6694 0.0399 0
M  V30 22 C 3.9346 1.5747 -0.4022 0
M  V30 23 O 3.7323 -2.0155 0.0922 0
M  V30 24 N 4.2742 0.2591 -0.3403 0
M  V30 25 N 4.9043 2.5584 -0.8114 0
M  V30 26 C 2.8296 -3.0473 0.4805 0
M  V30 27 C 6.2617 2.1364 -1.1706 0
M  V30 28 C 4.5248 3.9735 -0.8696 0
M  V30 29 C 3.5286 -4.3987 0.4101 0
M  V30 30 F 4.6186 -4.4096 1.2616 0
M  V30 31 F 3.9568 -4.6388 -0.883 0
M  V30 32 F 2.6487 -5.396 0.7881 0
M  V30 33 H 0.186 2.4668 0.5199 0
M  V30 34 H -7.1221 1.3471 -1.2068 0
M  V30 35 H -5.2642 -2.3918 -2.0408 0
M  V30 36 H -2.2556 -1.7933 -0.1488 0
M  V30 37 H -3.4752 -2.9223 0.5981 0
M  V30 38 H -3.1561 -2.9403 -1.1696 0
M  V30 39 H -7.0425 -0.7593 -2.4537 0
M  V30 40 H 1.9506 -3.0519 -0.2008 0
M  V30 41 H 2.4797 -2.8663 1.5206 0
M  V30 42 H 6.8964 2.9984 -1.4651 0
M  V30 43 H 6.2193 1.4289 -2.0256 0
M  V30 44 H 6.7394 1.6339 -0.303 0
M  V30 45 H 4.2079 4.3178 0.1374 0
M  V30 46 H 3.6842 4.1064 -1.583 0
M  V30 47 H 5.3684 4.6126 -1.2042 0
M  V30 END ATOM
M  V30 BEGIN BOND
M  V30 1 2 1 2
M  V30 2 2 1 3
M  V30 3 1 1 4
M  V30 4 1 1 5
M  V30 5 1 4 6
M  V30 6 2 5 7
M  V30 7 1 5 8
M  V30 8 2 6 9
M  V30 9 1 6 10
M  V30 10 1 7 11
M  V30 11 1 7 12
M  V30 12 2 8 13
M  V30 13 1 8 14
M  V30 14 1 10 15
M  V30 15 2 11 16
M  V30 16 1 11 17
M  V30 17 2 12 18
M  V30 18 2 15 19
M  V30 19 1 15 20
M  V30 20 1 19 21
M  V30 21 2 20 22
M  V30 22 1 21 23
M  V30 23 2 21 24
M  V30 24 1 22 25
M  V30 25 1 23 26
M  V30 26 1 25 27
M  V30 27 1 25 28
M  V30 28 1 26 29
M  V30 29 1 29 30
M  V30 30 1 29 31
M  V30 31 1 29 32
M  V30 32 1 13 18
M  V30 33 1 22 24
M  V30 34 1 10 33
M  V30 35 1 12 34
M  V30 36 1 13 35
M  V30 37 1 14 36
M  V30 38 1 14 37
M  V30 39 1 14 38
M  V30 40 1 18 39
M  V30 41 1 26 40
M  V30 42 1 26 41
M  V30 43 1 27 42
M  V30 44 1 27 43
M  V30 45 1 27 44
M  V30 46 1 28 45
M  V30 47 1 28 46
M  V30 48 1 28 47
M  V30 END BOND
M  V30 END CTAB
M  END
>  <Structure No>
5672

>  <LogS>
-5.6798

>  <MMFF94 Energy>
-118.5

$$$$
Compound 5673
Actelion Java MolfileCreator 2.0

  0  0  0  0  0  0              0 V3000
M  V30 BEGIN CTAB
M  V30 COUNTS 45 46 0 0 0
M  V30 BEGIN ATOM
M  V30 1 O -0.5586 1.6767 -1.0377 0
M  V30 2 C -0.7627 0.5979 -0.4159 0
M  V30 3 O -0.9508 0.6057 0.9697 0
M  V30 4 C -0.7799 -0.6862 -1.1518 0
M  V30 5 C -0.9083 1.7983 1.7423 0
M  V30 6 C 0.216 -0.9556 -2.1257 0
M  V30 7 C -1.7794 -1.6638 -0.8928 0
M  V30 8 O 1.2672 -0.0654 -2.3854 0
M  V30 9 C 0.1708 -2.1437 -2.8595 0
M  V30 10 C -2.8798 -1.4337 0.0762 0
M  V30 11 C -1.7685 -2.8678 -1.6178 0
M  V30 12 C 2.17 0.3718 -1.4098 0
M  V30 13 C -0.808 -3.0988 -2.5999 0
M  V30 14 N -3.5382 -0.3149 0.0337 0
M  V30 15 C -3.2888 -2.524 1.0291 0
M  V30 16 N 3.0631 1.3481 -1.7162 0
M  V30 17 N 2.168 -0.1724 -0.1623 0
M  V30 18 O -4.5956 -0.0535 0.8766 0
M  V30 19 C 3.9542 1.8026 -0.7924 0
M  V30 20 C 3.0346 0.2541 0.7951 0
M  V30 21 C -5.2653 1.1938 0.8166 0
M  V30 22 O 4.8695 2.809 -1.1132 0
M  V30 23 C 3.9538 1.2588 0.4928 0
M  V30 24 O 3.012 -0.2987 2.0784 0
M  V30 25 C 4.9288 3.4135 -2.3994 0
M  V30 26 C 2.081 -1.3028 2.4648 0
M  V30 27 H 0.0885 2.2781 1.644 0
M  V30 28 H -1.6999 2.4992 1.4026 0
M  V30 29 H -1.0831 1.5472 2.8084 0
M  V30 30 H 0.9203 -2.3403 -3.6155 0
M  V30 31 H -2.5295 -3.6196 -1.4479 0
M  V30 32 H -0.8231 -4.0229 -3.163 0
M  V30 33 H -3.4922 -2.1001 2.035 0
M  V30 34 H -4.203 -3.0261 0.6499 0
M  V30 35 H -2.4787 -3.2759 1.136 0
M  V30 36 H -6.0792 1.21 1.5702 0
M  V30 37 H -4.55 2.0146 1.0344 0
M  V30 38 H -5.7009 1.3383 -0.1941 0
M  V30 39 H 4.6524 1.6107 1.2412 0
M  V30 40 H 5.731 4.1794 -2.4057 0
M  V30 41 H 5.1572 2.6467 -3.1697 0
M  V30 42 H 3.9606 3.9047 -2.6337 0
M  V30 43 H 1.0439 -0.9182 2.366 0
M  V30 44 H 2.2082 -2.2047 1.8295 0
M  V30 45 H 2.2618 -1.58 3.5235 0
M  V30 END ATOM
M  V30 BEGIN BOND
M  V30 1 2 1 2
M  V30 2 1 2 3
M  V30 3 1 2 4
M  V30 4 1 3 5
M  V30 5 2 4 6
M  V30 6 1 4 7
M  V30 7 1 6 8
M  V30 8 1 6 9
M  V30 9 1 7 10
M  V30 10 2 7 11
M  V30 11 1 8 12
M  V30 12 2 9 13
M  V30 13 2 10 14
M  V30 14 1 10 15
M  V30 15 2 12 16
M  V30 16 1 12 17
M  V30 17 1 14 18
M  V30 18 1 16 19
M  V30 19 2 17 20
M  V30 20 1 18 21
M  V30 21 1 19 22
M  V30 22 2 19 23
M  V30 23 1 20 24
M  V30 24 1 22 25
M  V30 25 1 24 26
M  V30 26 1 11 13
M  V30 27 1 20 23
M  V30 28 1 5 27
M  V30 29 1 5 28
M  V30 30 1 5 29
M  V30 31 1 9 30
M  V30 32 1 11 31
M  V30 33 1 13 32
M  V30 34 1 15 33
M  V30 35 1 15 34
M  V30 36 1 15 35
M  V30 37 1 21 36
M  V30 38 1 21 37
M  V30 39 1 21 38
M  V30 40 1 23 39
M  V30 41 1 25 40
M  V30 42 1 25 41
M  V30 43 1 25 42
M  V30 44 1 26 43
M  V30 45 1 26 44
M  V30 46 1 26 45
M  V30 END BOND
M  V30 END CTAB
M  END
>  <Structure No>
5673

>  <LogS>
-3.6037

>  <MMFF94 Energy>
-17.494

$$$$
Compound 5674
Actelion Java MolfileCreator 2.0

  0  0  0  0  0  0              0 V3000
M  V30 BEGIN CTAB
M  V30 COUNTS 33 36 0 0 0
M  V30 BEGIN ATOM
M  V30 1 Cl 1.5028 0.5007 2.5892 0
M  V30 2 C 2.3054 0.1906 1.0555 0
M  V30 3 C 1.5743 -0.1961 -0.0859 0
M  V30 4 C 3.6984 0.309 0.9845 0
M  V30 5 N 0.138 -0.3176 -0.0402 0
M  V30 6 C 2.2585 -0.4859 -1.2775 0
M  V30 7 C 4.3693 0.0354 -0.2117 0
M  V30 8 C -0.6625 0.7973 0.0709 0
M  V30 9 C -0.4243 -1.5702 -0.0498 0
M  V30 10 C 3.6488 -0.3654 -1.3406 0
M  V30 11 Cl 6.1149 0.1865 -0.2932 0
M  V30 12 N -2.0057 0.6551 0.2164 0
M  V30 13 N -0.1175 2.1267 0.0668 0
M  V30 14 O 0.3094 -2.5941 -0.1545 0
M  V30 15 C -1.8155 -1.7211 0.0747 0
M  V30 16 C -2.5988 -0.5619 0.2195 0
M  V30 17 N -0.5374 3.093 0.8625 0
M  V30 18 C 0.7856 2.6478 -0.7827 0
M  V30 19 C -2.4411 -2.9826 0.0732 0
M  V30 20 C -3.9877 -0.6638 0.3616 0
M  V30 21 C 0.1517 4.1913 0.4979 0
M  V30 22 N 0.9894 3.9559 -0.5352 0
M  V30 23 C -3.8299 -3.0769 0.2142 0
M  V30 24 C -4.6011 -1.9196 0.3587 0
M  V30 25 F -4.4293 -4.293 0.2122 0
M  V30 26 H 4.2602 0.6082 1.8606 0
M  V30 27 H 1.708 -0.7914 -2.1584 0
M  V30 28 H 4.1647 -0.5827 -2.2671 0
M  V30 29 H 1.2603 2.1087 -1.5906 0
M  V30 30 H -1.8619 -3.8915 -0.0347 0
M  V30 31 H -4.5927 0.2277 0.4729 0
M  V30 32 H 0.0364 5.1575 0.9704 0
M  V30 33 H -5.6754 -1.995 0.4681 0
M  V30 END ATOM
M  V30 BEGIN BOND
M  V30 1 1 1 2
M  V30 2 2 2 3
M  V30 3 1 2 4
M  V30 4 1 3 5
M  V30 5 1 3 6
M  V30 6 2 4 7
M  V30 7 1 5 8
M  V30 8 1 5 9
M  V30 9 2 6 10
M  V30 10 1 7 11
M  V30 11 2 8 12
M  V30 12 1 8 13
M  V30 13 2 9 14
M  V30 14 1 9 15
M  V30 15 1 12 16
M  V30 16 1 13 17
M  V30 17 1 13 18
M  V30 18 1 15 19
M  V30 19 1 16 20
M  V30 20 2 17 21
M  V30 21 2 18 22
M  V30 22 2 19 23
M  V30 23 2 20 24
M  V30 24 1 23 25
M  V30 25 1 7 10
M  V30 26 2 15 16
M  V30 27 1 21 22
M  V30 28 1 23 24
M  V30 29 1 4 26
M  V30 30 1 6 27
M  V30 31 1 10 28
M  V30 32 1 18 29
M  V30 33 1 19 30
M  V30 34 1 20 31
M  V30 35 1 21 32
M  V30 36 1 24 33
M  V30 END BOND
M  V30 END CTAB
M  END
>  <Structure No>
5674

>  <LogS>
-5.5754

>  <MMFF94 Energy>
68.539

$$$$
Compound 5675
Actelion Java MolfileCreator 2.0

  0  0  0  0  0  0              0 V3000
M  V30 BEGIN CTAB
M  V30 COUNTS 47 49 0 0 0
M  V30 BEGIN ATOM
M  V30 1 S -0.7381 0.7381 -1.1484 0
M  V30 2 O -0.1949 -0.1797 -2.2078 0
M  V30 3 O -0.3517 2.1558 -1.4639 0
M  V30 4 N -2.4707 0.6243 -1.1258 0
M  V30 5 N -0.1038 0.3067 0.405 0 CHG=-1
M  V30 6 C -3.1985 -0.5334 -0.6686 0
M  V30 7 C 1.2875 0.1981 0.7137 0
M  V30 8 C -4.5995 -0.4658 -0.4598 0
M  V30 9 C -2.5475 -1.7697 -0.4896 0
M  V30 10 O 1.6176 -0.1739 1.8712 0
M  V30 11 N 2.295 0.4966 -0.2704 0
M  V30 12 C -5.3491 0.7997 -0.573 0
M  V30 13 C -5.3114 -1.6245 -0.1106 0
M  V30 14 C -3.268 -2.9101 -0.13 0
M  V30 15 C 3.6971 0.241 -0.0996 0
M  V30 16 O -6.2938 0.8872 -1.4008 0
M  V30 17 C -5.0217 1.976 0.3 0
M  V30 18 C -4.648 -2.8385 0.0556 0
M  V30 19 N 4.5541 0.5275 -1.1153 0
M  V30 20 N 4.1784 -0.3155 1.0463 0
M  V30 21 C -6.1984 2.4585 1.1384 0
M  V30 22 C -5.0584 1.7056 1.7987 0
M  V30 23 C 5.8892 0.2745 -1.0081 0
M  V30 24 C 5.5042 -0.5859 1.1998 0
M  V30 25 O 6.7603 0.5648 -2.0623 0
M  V30 26 C 6.3927 -0.2889 0.1655 0
M  V30 27 O 5.985 -1.1627 2.3788 0
M  V30 28 C 6.3184 1.1026 -3.3019 0
M  V30 29 C 5.139 -1.4962 3.4737 0
M  V30 30 H -2.9879 1.4498 -1.4998 0
M  V30 31 H -1.4851 -1.8694 -0.6448 0
M  V30 32 H 2.0065 0.9149 -1.1811 0
M  V30 33 H -6.3817 -1.5826 0.0538 0
M  V30 34 H -2.7564 -3.8532 -0.001 0
M  V30 35 H -4.3482 2.7857 -0.058 0
M  V30 36 H -5.2055 -3.7242 0.333 0
M  V30 37 H -7.1394 1.869 1.0807 0
M  V30 38 H -6.1976 3.5452 1.3621 0
M  V30 39 H -4.3949 2.3537 2.4074 0
M  V30 40 H -5.3202 0.6703 2.1033 0
M  V30 41 H 7.4512 -0.5015 0.2679 0
M  V30 42 H 5.5758 0.4232 -3.7642 0
M  V30 43 H 7.1803 1.2078 -3.9895 0
M  V30 44 H 5.864 2.1 -3.1407 0
M  V30 45 H 5.753 -1.9537 4.2814 0
M  V30 46 H 4.3663 -2.2271 3.1473 0
M  V30 47 H 4.6465 -0.5783 3.8688 0
M  V30 END ATOM
M  V30 BEGIN BOND
M  V30 1 2 1 2
M  V30 2 2 1 3
M  V30 3 1 1 4
M  V30 4 1 1 5
M  V30 5 1 4 6
M  V30 6 1 5 7
M  V30 7 2 6 8
M  V30 8 1 6 9
M  V30 9 2 7 10
M  V30 10 1 7 11
M  V30 11 1 8 12
M  V30 12 1 8 13
M  V30 13 2 9 14
M  V30 14 1 11 15
M  V30 15 2 12 16
M  V30 16 1 12 17
M  V30 17 2 13 18
M  V30 18 2 15 19
M  V30 19 1 15 20
M  V30 20 1 17 21
M  V30 21 1 17 22
M  V30 22 1 19 23
M  V30 23 2 20 24
M  V30 24 1 23 25
M  V30 25 2 23 26
M  V30 26 1 24 27
M  V30 27 1 25 28
M  V30 28 1 27 29
M  V30 29 1 14 18
M  V30 30 1 21 22
M  V30 31 1 24 26
M  V30 32 1 4 30
M  V30 33 1 9 31
M  V30 34 1 11 32
M  V30 35 1 13 33
M  V30 36 1 14 34
M  V30 37 1 17 35
M  V30 38 1 18 36
M  V30 39 1 21 37
M  V30 40 1 21 38
M  V30 41 1 22 39
M  V30 42 1 22 40
M  V30 43 1 26 41
M  V30 44 1 28 42
M  V30 45 1 28 43
M  V30 46 1 28 44
M  V30 47 1 29 45
M  V30 48 1 29 46
M  V30 49 1 29 47
M  V30 END BOND
M  V30 END CTAB
M  END
>  <Structure No>
5675

>  <LogS>
-6.3943

>  <MMFF94 Energy>
-131.42

$$$$
Compound 5676
Actelion Java MolfileCreator 2.0

  0  0  0  0  0  0              0 V3000
M  V30 BEGIN CTAB
M  V30 COUNTS 27 28 0 0 0
M  V30 BEGIN ATOM
M  V30 1 Cl 4.8303 0.981 -2.2901 0
M  V30 2 C 3.5842 0.6773 -1.0968 0
M  V30 3 N 3.3086 -0.5994 -0.72 0
M  V30 4 C 2.8724 1.7406 -0.5357 0
M  V30 5 C 2.3497 -0.8822 0.2015 0
M  V30 6 C 1.8828 1.476 0.4126 0
M  V30 7 C 1.6155 0.1541 0.7972 0
M  V30 8 C 0.5312 -0.1562 1.7915 0
M  V30 9 N -0.6552 -0.6601 1.1028 0
M  V30 10 C -1.5271 0.0853 0.2771 0
M  V30 11 C -1.1287 -2.0376 1.1445 0
M  V30 12 N -1.402 1.3672 0.0928 0
M  V30 13 N -2.5818 -0.7082 -0.2312 0
M  V30 14 C -2.4127 -2.0626 0.28 0
M  V30 15 N -2.2114 2.1343 -0.7614 0 CHG=1
M  V30 16 O -2.2343 3.3725 -0.6172 0
M  V30 17 O -2.7247 1.5937 -1.9178 0 CHG=-1
M  V30 18 H 3.0813 2.7605 -0.8323 0
M  V30 19 H 2.1587 -1.9133 0.4692 0
M  V30 20 H 1.3259 2.2986 0.8434 0
M  V30 21 H 0.2609 0.7442 2.3847 0
M  V30 22 H 0.9022 -0.9203 2.5087 0
M  V30 23 H -1.3544 -2.3296 2.1927 0
M  V30 24 H -0.3575 -2.7153 0.7198 0
M  V30 25 H -3.4412 -0.3734 -0.7179 0
M  V30 26 H -2.3088 -2.7744 -0.5663 0
M  V30 27 H -3.2922 -2.3405 0.8997 0
M  V30 END ATOM
M  V30 BEGIN BOND
M  V30 1 1 1 2
M  V30 2 2 2 3
M  V30 3 1 2 4
M  V30 4 1 3 5
M  V30 5 2 4 6
M  V30 6 2 5 7
M  V30 7 1 7 8
M  V30 8 1 8 9
M  V30 9 1 9 10
M  V30 10 1 9 11
M  V30 11 2 10 12
M  V30 12 1 10 13
M  V30 13 1 11 14
M  V30 14 1 12 15
M  V30 15 2 15 16
M  V30 16 1 15 17
M  V30 17 1 6 7
M  V30 18 1 13 14
M  V30 19 1 4 18
M  V30 20 1 5 19
M  V30 21 1 6 20
M  V30 22 1 8 21
M  V30 23 1 8 22
M  V30 24 1 11 23
M  V30 25 1 11 24
M  V30 26 1 13 25
M  V30 27 1 14 26
M  V30 28 1 14 27
M  V30 END BOND
M  V30 END CTAB
M  END
>  <Structure No>
5676

>  <LogS>
-2.6223

>  <MMFF94 Energy>
-47.151

$$$$
Compound 5677
Actelion Java MolfileCreator 2.0

  0  0  0  0  0  0              0 V3000
M  V30 BEGIN CTAB
M  V30 COUNTS 39 41 0 0 0
M  V30 BEGIN ATOM
M  V30 1 Cl 3.6041 0.3348 2.5974 0
M  V30 2 C 1.9695 0.9979 2.5132 0
M  V30 3 C 1.6916 2.0536 1.6221 0
M  V30 4 C 0.9359 0.4509 3.3031 0
M  V30 5 N 2.7317 2.5769 0.7873 0
M  V30 6 C 0.3846 2.5684 1.5363 0
M  V30 7 C -0.3635 0.9691 3.1934 0
M  V30 8 C 1.2057 -0.6897 4.2456 0
M  V30 9 S 2.7474 2.2396 -0.9125 0
M  V30 10 Cl 0.0026 3.925 0.4845 0
M  V30 11 C -0.6339 2.0218 2.3196 0
M  V30 12 O 2.4616 3.499 -1.6804 0
M  V30 13 O 4.0975 1.7139 -1.3097 0
M  V30 14 C 1.5369 1.0297 -1.2918 0
M  V30 15 N 0.3593 1.3232 -1.8949 0
M  V30 16 N 1.6551 -0.2742 -0.9251 0
M  V30 17 N -0.2845 0.1745 -1.9232 0
M  V30 18 C 0.4781 -0.7583 -1.3542 0
M  V30 19 C -1.5225 -0.0756 -2.4127 0
M  V30 20 N 0.0566 -2.0387 -1.2273 0
M  V30 21 O -2.266 0.9639 -2.9903 0
M  V30 22 C -2.0009 -1.3988 -2.3063 0
M  V30 23 C -1.1822 -2.376 -1.7007 0
M  V30 24 C -3.5745 0.8056 -3.5279 0
M  V30 25 O -1.6544 -3.687 -1.5905 0
M  V30 26 C -0.8968 -4.7297 -0.9882 0
M  V30 27 H 3.6333 2.8658 1.2278 0
M  V30 28 H -1.1717 0.5609 3.7878 0
M  V30 29 H 1.5484 -1.5761 3.6714 0
M  V30 30 H 0.296 -0.9754 4.8159 0
M  V30 31 H 1.9912 -0.3978 4.9741 0
M  V30 32 H -1.6403 2.4161 2.2547 0
M  V30 33 H -2.9793 -1.6761 -2.675 0
M  V30 34 H -3.927 1.7823 -3.9182 0
M  V30 35 H -4.2742 0.4652 -2.7354 0
M  V30 36 H -3.558 0.0735 -4.3627 0
M  V30 37 H 0.054 -4.8779 -1.5426 0
M  V30 38 H -0.6788 -4.4782 0.0715 0
M  V30 39 H -1.4823 -5.6713 -1.0208 0
M  V30 END ATOM
M  V30 BEGIN BOND
M  V30 1 1 1 2
M  V30 2 2 2 3
M  V30 3 1 2 4
M  V30 4 1 3 5
M  V30 5 1 3 6
M  V30 6 2 4 7
M  V30 7 1 4 8
M  V30 8 1 5 9
M  V30 9 1 6 10
M  V30 10 2 6 11
M  V30 11 2 9 12
M  V30 12 2 9 13
M  V30 13 1 9 14
M  V30 14 2 14 15
M  V30 15 1 14 16
M  V30 16 1 15 17
M  V30 17 2 16 18
M  V30 18 1 17 19
M  V30 19 1 18 20
M  V30 20 1 19 21
M  V30 21 2 19 22
M  V30 22 2 20 23
M  V30 23 1 21 24
M  V30 24 1 23 25
M  V30 25 1 25 26
M  V30 26 1 7 11
M  V30 27 1 17 18
M  V30 28 1 22 23
M  V30 29 1 5 27
M  V30 30 1 7 28
M  V30 31 1 8 29
M  V30 32 1 8 30
M  V30 33 1 8 31
M  V30 34 1 11 32
M  V30 35 1 22 33
M  V30 36 1 24 34
M  V30 37 1 24 35
M  V30 38 1 24 36
M  V30 39 1 26 37
M  V30 40 1 26 38
M  V30 41 1 26 39
M  V30 END BOND
M  V30 END CTAB
M  END
>  <Structure No>
5677

>  <LogS>
-3.3204

>  <MMFF94 Energy>
142.59

$$$$
Compound 5678
Actelion Java MolfileCreator 2.0

  0  0  0  0  0  0              0 V3000
M  V30 BEGIN CTAB
M  V30 COUNTS 36 38 0 0 0
M  V30 BEGIN ATOM
M  V30 1 S -1.5904 -2.1768 -0.4183 0
M  V30 2 O -1.1975 -2.5458 -1.8209 0
M  V30 3 O -0.5503 -2.681 0.5427 0
M  V30 4 C -1.7157 -0.4109 -0.287 0
M  V30 5 C -3.1252 -2.9914 -0.0204 0
M  V30 6 C -0.5665 0.4082 -0.1645 0
M  V30 7 C -2.9874 0.1875 -0.2855 0
M  V30 8 C 0.8034 -0.1449 -0.2207 0
M  V30 9 C -0.7214 1.7966 -0.0289 0
M  V30 10 C -3.1362 1.5746 -0.1233 0
M  V30 11 O 1.1431 -0.8464 -1.2106 0
M  V30 12 C 1.7794 0.1208 0.8566 0
M  V30 13 C -1.9903 2.3746 -0.0139 0
M  V30 14 C -4.507 2.2033 -0.1657 0
M  V30 15 C 3.131 -0.1707 0.8849 0
M  V30 16 C 1.5321 0.6798 2.0956 0
M  V30 17 F -4.5263 3.3908 0.5455 0
M  V30 18 F -4.8489 2.4606 -1.4802 0
M  V30 19 F -5.4495 1.3537 0.3875 0
M  V30 20 O 3.6091 0.193 2.0522 0
M  V30 21 C 3.9442 -0.816 -0.1967 0
M  V30 22 N 2.6785 0.7088 2.8026 0
M  V30 23 C 4.2055 0.0752 -1.4012 0
M  V30 24 C 5.3212 -0.2055 -0.41 0
M  V30 25 H -3.8759 -2.7894 -0.8119 0
M  V30 26 H -2.9561 -4.0861 0.0431 0
M  V30 27 H -3.5018 -2.6232 0.9563 0
M  V30 28 H -3.87 -0.4237 -0.4109 0
M  V30 29 H 0.1476 2.4395 0.0456 0
M  V30 30 H -2.0739 3.4508 0.0727 0
M  V30 31 H 0.579 1.029 2.47 0
M  V30 32 H 3.8513 -1.9032 -0.4021 0
M  V30 33 H 4.3064 -0.4713 -2.3624 0
M  V30 34 H 3.7975 1.1078 -1.3419 0
M  V30 35 H 5.5809 0.668 0.2262 0
M  V30 36 H 6.0872 -0.915 -0.7878 0
M  V30 END ATOM
M  V30 BEGIN BOND
M  V30 1 2 1 2
M  V30 2 2 1 3
M  V30 3 1 1 4
M  V30 4 1 1 5
M  V30 5 2 4 6
M  V30 6 1 4 7
M  V30 7 1 6 8
M  V30 8 1 6 9
M  V30 9 2 7 10
M  V30 10 2 8 11
M  V30 11 1 8 12
M  V30 12 2 9 13
M  V30 13 1 10 14
M  V30 14 2 12 15
M  V30 15 1 12 16
M  V30 16 1 14 17
M  V30 17 1 14 18
M  V30 18 1 14 19
M  V30 19 1 15 20
M  V30 20 1 15 21
M  V30 21 2 16 22
M  V30 22 1 21 23
M  V30 23 1 21 24
M  V30 24 1 10 13
M  V30 25 1 20 22
M  V30 26 1 23 24
M  V30 27 1 5 25
M  V30 28 1 5 26
M  V30 29 1 5 27
M  V30 30 1 7 28
M  V30 31 1 9 29
M  V30 32 1 13 30
M  V30 33 1 16 31
M  V30 34 1 21 32
M  V30 35 1 23 33
M  V30 36 1 23 34
M  V30 37 1 24 35
M  V30 38 1 24 36
M  V30 END BOND
M  V30 END CTAB
M  END
>  <Structure No>
5678

>  <LogS>
-4.7631

>  <MMFF94 Energy>
83.635

$$$$
Compound 5679
Actelion Java MolfileCreator 2.0

  0  0  0  0  0  0              0 V3000
M  V30 BEGIN CTAB
M  V30 COUNTS 48 50 0 0 0
M  V30 BEGIN ATOM
M  V30 1 S 2.079 0.2493 1.9126 0
M  V30 2 O 3.2527 0.8346 2.6464 0
M  V30 3 O 2.2626 -1.239 1.8154 0
M  V30 4 N 0.6304 0.5617 2.8125 0 CHG=-1
M  V30 5 C 1.9682 1.0108 0.3182 0
M  V30 6 C -0.6877 0.2013 2.3838 0
M  V30 7 N 1.5383 2.2683 0.1032 0
M  V30 8 C 2.2656 0.4637 -0.9294 0
M  V30 9 O -1.6628 0.5167 3.1167 0
M  V30 10 N -0.9041 -0.5065 1.1485 0
M  V30 11 C 1.5733 2.4498 -1.2294 0
M  V30 12 C 1.1459 3.2377 0.9744 0
M  V30 13 S 2.9435 -1.1227 -1.2793 0
M  V30 14 N 2.0163 1.3706 -1.9049 0
M  V30 15 C -2.1954 -0.8834 0.6437 0
M  V30 16 C 1.1907 3.6631 -1.7999 0
M  V30 17 C 0.752 4.4798 0.4555 0
M  V30 18 O 2.028 -2.1982 -0.7626 0
M  V30 19 O 3.062 -1.2744 -2.77 0
M  V30 20 C 4.5736 -1.299 -0.5605 0
M  V30 21 N -3.3218 -0.723 1.393 0
M  V30 22 N -2.2896 -1.432 -0.5966 0
M  V30 23 C 0.7729 4.6885 -0.9364 0
M  V30 24 C 5.493 -0.1648 -0.999 0
M  V30 25 C -4.5429 -1.1007 0.9237 0
M  V30 26 C -3.4899 -1.8207 -1.1096 0
M  V30 27 O -5.6926 -0.9388 1.7028 0
M  V30 28 C -4.6495 -1.6605 -0.3494 0
M  V30 29 O -3.5752 -2.3802 -2.388 0
M  V30 30 C -5.6596 -0.3971 3.0191 0
M  V30 31 C -2.4371 -2.557 -3.2268 0
M  V30 32 H -0.0841 -0.7713 0.5642 0
M  V30 33 H 1.1449 3.069 2.0432 0
M  V30 34 H 1.217 3.8127 -2.8718 0
M  V30 35 H 0.4365 5.2729 1.1211 0
M  V30 36 H 5.0064 -2.2684 -0.8843 0
M  V30 37 H 4.4993 -1.3033 0.5458 0
M  V30 38 H 0.468 5.6448 -1.3425 0
M  V30 39 H 5.1001 0.8123 -0.6455 0
M  V30 40 H 6.5027 -0.3191 -0.5621 0
M  V30 41 H 5.5826 -0.1462 -2.1065 0
M  V30 42 H -5.6124 -1.9662 -0.7394 0
M  V30 43 H -5.2675 0.6423 2.9939 0
M  V30 44 H -6.6923 -0.3801 3.4319 0
M  V30 45 H -5.0198 -1.0277 3.6752 0
M  V30 46 H -2.7588 -3.0212 -4.1811 0
M  V30 47 H -1.9635 -1.5723 -3.4425 0
M  V30 48 H -1.6995 -3.2284 -2.7322 0
M  V30 END ATOM
M  V30 BEGIN BOND
M  V30 1 2 1 2
M  V30 2 2 1 3
M  V30 3 1 1 4
M  V30 4 1 1 5
M  V30 5 1 4 6
M  V30 6 1 5 7
M  V30 7 2 5 8
M  V30 8 2 6 9
M  V30 9 1 6 10
M  V30 10 1 7 11
M  V30 11 1 7 12
M  V30 12 1 8 13
M  V30 13 1 8 14
M  V30 14 1 10 15
M  V30 15 1 11 16
M  V30 16 2 12 17
M  V30 17 2 13 18
M  V30 18 2 13 19
M  V30 19 1 13 20
M  V30 20 2 15 21
M  V30 21 1 15 22
M  V30 22 2 16 23
M  V30 23 1 20 24
M  V30 24 1 21 25
M  V30 25 2 22 26
M  V30 26 1 25 27
M  V30 27 2 25 28
M  V30 28 1 26 29
M  V30 29 1 27 30
M  V30 30 1 29 31
M  V30 31 2 11 14
M  V30 32 1 17 23
M  V30 33 1 26 28
M  V30 34 1 10 32
M  V30 35 1 12 33
M  V30 36 1 16 34
M  V30 37 1 17 35
M  V30 38 1 20 36
M  V30 39 1 20 37
M  V30 40 1 23 38
M  V30 41 1 24 39
M  V30 42 1 24 40
M  V30 43 1 24 41
M  V30 44 1 28 42
M  V30 45 1 30 43
M  V30 46 1 30 44
M  V30 47 1 30 45
M  V30 48 1 31 46
M  V30 49 1 31 47
M  V30 50 1 31 48
M  V30 END BOND
M  V30 END CTAB
M  END
>  <Structure No>
5679

>  <LogS>
-4.4191

>  <MMFF94 Energy>
-96.112

$$$$
Compound 5680
Actelion Java MolfileCreator 2.0

  0  0  0  0  0  0              0 V3000
M  V30 BEGIN CTAB
M  V30 COUNTS 37 38 0 0 0
M  V30 BEGIN ATOM
M  V30 1 S 3.7164 -0.6599 0.2474 0
M  V30 2 C 2.6585 0.6112 0.5858 0
M  V30 3 C 4.8148 0.4132 -0.4493 0
M  V30 4 O 1.4101 0.4963 1.2003 0
M  V30 5 N 3.1641 1.7955 0.1825 0
M  V30 6 N 4.3646 1.6868 -0.3841 0
M  V30 7 C 6.1628 0.0373 -0.9721 0
M  V30 8 C 0.8665 -0.7502 1.6187 0
M  V30 9 F 6.6127 0.9991 -1.8581 0
M  V30 10 F 7.0517 -0.0623 0.0812 0
M  V30 11 F 6.0918 -1.1787 -1.6262 0
M  V30 12 C -0.5491 -0.548 2.0755 0
M  V30 13 O -0.8283 -0.7712 3.2851 0
M  V30 14 N -1.5776 -0.0973 1.1631 0
M  V30 15 C -1.2966 -0.0637 -0.2482 0
M  V30 16 C -2.9552 0.1295 1.6491 0
M  V30 17 C -1.3937 -1.2334 -1.0165 0
M  V30 18 C -0.8762 1.1297 -0.8538 0
M  V30 19 C -3.6078 1.343 0.9725 0
M  V30 20 C -3.8063 -1.1281 1.4517 0
M  V30 21 C -1.0865 -1.205 -2.3801 0
M  V30 22 C -0.5682 1.1551 -2.2171 0
M  V30 23 C -0.6749 -0.0112 -2.9808 0
M  V30 24 F -0.3738 0.0141 -4.3023 0
M  V30 25 H 1.4837 -1.1621 2.4467 0
M  V30 26 H 0.8799 -1.476 0.7779 0
M  V30 27 H -2.9353 0.3568 2.7377 0
M  V30 28 H -1.6969 -2.1643 -0.5549 0
M  V30 29 H -0.7796 2.0335 -0.2658 0
M  V30 30 H -2.9693 2.2411 1.1098 0
M  V30 31 H -3.7563 1.164 -0.1136 0
M  V30 32 H -4.598 1.5477 1.4328 0
M  V30 33 H -3.9458 -1.3442 0.3716 0
M  V30 34 H -4.8048 -0.9903 1.9186 0
M  V30 35 H -3.3123 -1.999 1.9321 0
M  V30 36 H -1.163 -2.1098 -2.969 0
M  V30 37 H -0.2431 2.0781 -2.6794 0
M  V30 END ATOM
M  V30 BEGIN BOND
M  V30 1 1 1 2
M  V30 2 1 1 3
M  V30 3 1 2 4
M  V30 4 2 2 5
M  V30 5 2 3 6
M  V30 6 1 3 7
M  V30 7 1 4 8
M  V30 8 1 7 9
M  V30 9 1 7 10
M  V30 10 1 7 11
M  V30 11 1 8 12
M  V30 12 2 12 13
M  V30 13 1 12 14
M  V30 14 1 14 15
M  V30 15 1 14 16
M  V30 16 2 15 17
M  V30 17 1 15 18
M  V30 18 1 16 19
M  V30 19 1 16 20
M  V30 20 1 17 21
M  V30 21 2 18 22
M  V30 22 2 21 23
M  V30 23 1 23 24
M  V30 24 1 5 6
M  V30 25 1 22 23
M  V30 26 1 8 25
M  V30 27 1 8 26
M  V30 28 1 16 27
M  V30 29 1 17 28
M  V30 30 1 18 29
M  V30 31 1 19 30
M  V30 32 1 19 31
M  V30 33 1 19 32
M  V30 34 1 20 33
M  V30 35 1 20 34
M  V30 36 1 20 35
M  V30 37 1 21 36
M  V30 38 1 22 37
M  V30 END BOND
M  V30 END CTAB
M  END
>  <Structure No>
5680

>  <LogS>
-3.8121

>  <MMFF94 Energy>
57.918

$$$$
Compound 5681
Actelion Java MolfileCreator 2.0

  0  0  0  0  0  0              0 V3000
M  V30 BEGIN CTAB
M  V30 COUNTS 42 43 0 0 0
M  V30 BEGIN ATOM
M  V30 1 O -3.0233 -2.1474 0.8744 0
M  V30 2 C -3.0631 -1.2527 -0.0145 0
M  V30 3 O -3.8688 -1.4157 -1.1457 0
M  V30 4 C -2.2629 -0.0258 0.1369 0
M  V30 5 C -4.6625 -2.5762 -1.3603 0
M  V30 6 N -2.3814 0.9166 -0.7477 0
M  V30 7 C -1.3558 0.1365 1.2975 0
M  V30 8 O -1.6625 2.0892 -0.664 0
M  V30 9 C -0.1965 -0.6635 1.4688 0
M  V30 10 C -1.6699 1.1131 2.2572 0
M  V30 11 C -1.7803 3.0761 -1.6737 0
M  V30 12 C 0.5867 -0.4914 2.6246 0
M  V30 13 C 0.2244 -1.7119 0.461 0
M  V30 14 C -0.8668 1.2837 3.3856 0
M  V30 15 C 0.2556 0.4786 3.572 0
M  V30 16 O 1.6235 -1.6205 0.1878 0
M  V30 17 C 2.2496 -0.5658 -0.5005 0
M  V30 18 C 3.6577 -0.5221 -0.5391 0
M  V30 19 C 1.5122 0.4437 -1.1505 0
M  V30 20 C 4.3049 0.5301 -1.2084 0
M  V30 21 C 4.4646 -1.5835 0.154 0
M  V30 22 C 2.1669 1.483 -1.8141 0
M  V30 23 C 3.5607 1.5272 -1.842 0
M  V30 24 H -5.2074 -2.4727 -2.3208 0
M  V30 25 H -5.4004 -2.6895 -0.5381 0
M  V30 26 H -4.0139 -3.4763 -1.4094 0
M  V30 27 H -2.5479 1.7363 2.1362 0
M  V30 28 H -1.4646 2.6529 -2.6502 0
M  V30 29 H -2.8327 3.4233 -1.7398 0
M  V30 30 H -1.127 3.9365 -1.4225 0
M  V30 31 H 1.4644 -1.1046 2.7878 0
M  V30 32 H -0.3376 -1.6514 -0.4927 0
M  V30 33 H 0.017 -2.7119 0.8954 0
M  V30 34 H -1.1206 2.036 4.1212 0
M  V30 35 H 0.8722 0.6072 4.4522 0
M  V30 36 H 0.4336 0.4324 -1.1552 0
M  V30 37 H 5.3862 0.581 -1.2395 0
M  V30 38 H 4.1825 -2.584 -0.2362 0
M  V30 39 H 5.5541 -1.4416 -0.0086 0
M  V30 40 H 4.2645 -1.5493 1.2457 0
M  V30 41 H 1.5915 2.2552 -2.3087 0
M  V30 42 H 4.0655 2.3347 -2.3562 0
M  V30 END ATOM
M  V30 BEGIN BOND
M  V30 1 2 1 2
M  V30 2 1 2 3
M  V30 3 1 2 4
M  V30 4 1 3 5
M  V30 5 2 4 6
M  V30 6 1 4 7
M  V30 7 1 6 8
M  V30 8 2 7 9
M  V30 9 1 7 10
M  V30 10 1 8 11
M  V30 11 1 9 12
M  V30 12 1 9 13
M  V30 13 2 10 14
M  V30 14 2 12 15
M  V30 15 1 13 16
M  V30 16 1 16 17
M  V30 17 2 17 18
M  V30 18 1 17 19
M  V30 19 1 18 20
M  V30 20 1 18 21
M  V30 21 2 19 22
M  V30 22 2 20 23
M  V30 23 1 14 15
M  V30 24 1 22 23
M  V30 25 1 5 24
M  V30 26 1 5 25
M  V30 27 1 5 26
M  V30 28 1 10 27
M  V30 29 1 11 28
M  V30 30 1 11 29
M  V30 31 1 11 30
M  V30 32 1 12 31
M  V30 33 1 13 32
M  V30 34 1 13 33
M  V30 35 1 14 34
M  V30 36 1 15 35
M  V30 37 1 19 36
M  V30 38 1 20 37
M  V30 39 1 21 38
M  V30 40 1 21 39
M  V30 41 1 21 40
M  V30 42 1 22 41
M  V30 43 1 23 42
M  V30 END BOND
M  V30 END CTAB
M  END
>  <Structure No>
5681

>  <LogS>
-5.195

>  <MMFF94 Energy>
110.82

$$$$
Compound 5682
Actelion Java MolfileCreator 2.0

  0  0  0  0  0  0              0 V3000
M  V30 BEGIN CTAB
M  V30 COUNTS 45 47 0 0 0
M  V30 BEGIN ATOM
M  V30 1 S 1.2332 1.48 -2.3852 0
M  V30 2 O 2.2478 1.6809 -3.4749 0
M  V30 3 O 1.5639 2.3795 -1.2267 0
M  V30 4 N -0.3286 1.9276 -2.9917 0 CHG=-1
M  V30 5 C 1.252 -0.2228 -1.8879 0
M  V30 6 C -1.5508 1.8124 -2.2542 0
M  V30 7 C 2.1918 -0.7382 -0.9543 0
M  V30 8 C 0.2585 -1.0745 -2.4006 0
M  V30 9 O -2.6271 2.1381 -2.8209 0
M  V30 10 N -1.5597 1.3393 -0.8949 0
M  V30 11 C 3.3288 0.0509 -0.4321 0
M  V30 12 C 2.0593 -2.0677 -0.5141 0
M  V30 13 C 0.157 -2.3958 -1.9653 0
M  V30 14 C -2.7405 0.9139 -0.1991 0
M  V30 15 O 3.9292 0.8758 -1.1734 0
M  V30 16 O 3.7723 -0.1675 0.8762 0
M  V30 17 C 1.0484 -2.8881 -1.0153 0
M  V30 18 N -3.9451 0.8585 -0.8302 0
M  V30 19 N -2.6489 0.5385 1.1046 0
M  V30 20 C 4.8861 0.5234 1.4357 0
M  V30 21 C -5.065 0.4439 -0.1805 0
M  V30 22 C -3.7389 0.1112 1.7957 0
M  V30 23 C 5.2602 -0.016 2.7923 0
M  V30 24 C 6.2087 -0.073 1.0227 0
M  V30 25 C -4.9832 0.0599 1.1609 0
M  V30 26 C -6.3731 0.3975 -0.9033 0
M  V30 27 C -3.6049 -0.2795 3.2329 0
M  V30 28 O 6.4776 -0.5434 2.3219 0
M  V30 29 H -0.4525 -0.7145 -3.1318 0
M  V30 30 H -0.6593 1.2809 -0.3719 0
M  V30 31 H 2.7571 -2.4825 0.2031 0
M  V30 32 H -0.62 -3.0372 -2.3609 0
M  V30 33 H 0.9646 -3.9123 -0.6754 0
M  V30 34 H 4.8237 1.6328 1.3821 0
M  V30 35 H 4.5859 -0.8235 3.1547 0
M  V30 36 H 5.4348 0.7875 3.5411 0
M  V30 37 H 6.115 -0.9156 0.3023 0
M  V30 38 H 6.9487 0.6976 0.7141 0
M  V30 39 H -5.865 -0.2719 1.6965 0
M  V30 40 H -6.2533 0.7498 -1.9498 0
M  V30 41 H -7.1095 1.0506 -0.3895 0
M  V30 42 H -6.7557 -0.6446 -0.9192 0
M  V30 43 H -4.0275 -1.2943 3.39 0
M  V30 44 H -2.5365 -0.2892 3.5362 0
M  V30 45 H -4.1515 0.4476 3.8695 0
M  V30 END ATOM
M  V30 BEGIN BOND
M  V30 1 2 1 2
M  V30 2 2 1 3
M  V30 3 1 1 4
M  V30 4 1 1 5
M  V30 5 1 4 6
M  V30 6 2 5 7
M  V30 7 1 5 8
M  V30 8 2 6 9
M  V30 9 1 6 10
M  V30 10 1 7 11
M  V30 11 1 7 12
M  V30 12 2 8 13
M  V30 13 1 10 14
M  V30 14 2 11 15
M  V30 15 1 11 16
M  V30 16 2 12 17
M  V30 17 2 14 18
M  V30 18 1 14 19
M  V30 19 1 16 20
M  V30 20 1 18 21
M  V30 21 2 19 22
M  V30 22 1 20 23
M  V30 23 1 20 24
M  V30 24 2 21 25
M  V30 25 1 21 26
M  V30 26 1 22 27
M  V30 27 1 23 28
M  V30 28 1 13 17
M  V30 29 1 22 25
M  V30 30 1 24 28
M  V30 31 1 8 29
M  V30 32 1 10 30
M  V30 33 1 12 31
M  V30 34 1 13 32
M  V30 35 1 17 33
M  V30 36 1 20 34
M  V30 37 1 23 35
M  V30 38 1 23 36
M  V30 39 1 24 37
M  V30 40 1 24 38
M  V30 41 1 25 39
M  V30 42 1 26 40
M  V30 43 1 26 41
M  V30 44 1 26 42
M  V30 45 1 27 43
M  V30 46 1 27 44
M  V30 47 1 27 45
M  V30 END BOND
M  V30 END CTAB
M  END
>  <Structure No>
5682

>  <LogS>
-3.893

>  <MMFF94 Energy>
-42.421

$$$$
Compound 5683
Actelion Java MolfileCreator 2.0

  0  0  0  0  0  0              0 V3000
M  V30 BEGIN CTAB
M  V30 COUNTS 31 32 0 0 0
M  V30 BEGIN ATOM
M  V30 1 S 0.6571 1.2323 0.4106 0
M  V30 2 O 0.912 2.4851 -0.3797 0
M  V30 3 O 0.964 1.5176 1.8541 0
M  V30 4 C -1.0467 0.7974 0.2613 0
M  V30 5 C 1.7679 -0.0508 -0.1702 0
M  V30 6 C -1.7507 1.0957 -0.9133 0
M  V30 7 C -1.7043 0.1466 1.3142 0
M  V30 8 C 3.2377 0.2136 -0.0979 0
M  V30 9 C 1.3414 -1.4901 0.0757 0
M  V30 10 C 1.2935 -0.9086 -1.3336 0
M  V30 11 C -3.099 0.747 -1.0345 0
M  V30 12 C -3.0527 -0.2023 1.194 0
M  V30 13 O 3.8184 0.7837 -1.0612 0
M  V30 14 O 3.9436 -0.1365 1.056 0
M  V30 15 C -3.7626 0.1094 0.0246 0
M  V30 16 C 5.338 0.1016 1.2019 0
M  V30 17 C -5.1978 -0.3013 -0.1203 0
M  V30 18 H -1.2537 1.5883 -1.7392 0
M  V30 19 H -1.1716 -0.0999 2.2236 0
M  V30 20 H 2.1619 -2.2258 0.2177 0
M  V30 21 H 0.3384 -1.643 0.5232 0
M  V30 22 H 2.0879 -1.3079 -2.0001 0
M  V30 23 H 0.2635 -0.724 -1.7001 0
M  V30 24 H -3.6248 0.9738 -1.9537 0
M  V30 25 H -3.5424 -0.7158 2.0122 0
M  V30 26 H 5.6678 -0.2625 2.1964 0
M  V30 27 H 5.9007 -0.4424 0.4142 0
M  V30 28 H 5.5473 1.1899 1.1294 0
M  V30 29 H -5.7072 -0.3005 0.8667 0
M  V30 30 H -5.7411 0.4015 -0.7872 0
M  V30 31 H -5.2473 -1.3223 -0.5526 0
M  V30 END ATOM
M  V30 BEGIN BOND
M  V30 1 2 1 2
M  V30 2 2 1 3
M  V30 3 1 1 4
M  V30 4 1 1 5
M  V30 5 2 4 6
M  V30 6 1 4 7
M  V30 7 1 5 8
M  V30 8 1 5 9
M  V30 9 1 5 10
M  V30 10 1 6 11
M  V30 11 2 7 12
M  V30 12 2 8 13
M  V30 13 1 8 14
M  V30 14 2 11 15
M  V30 15 1 14 16
M  V30 16 1 15 17
M  V30 17 1 9 10
M  V30 18 1 12 15
M  V30 19 1 6 18
M  V30 20 1 7 19
M  V30 21 1 9 20
M  V30 22 1 9 21
M  V30 23 1 10 22
M  V30 24 1 10 23
M  V30 25 1 11 24
M  V30 26 1 12 25
M  V30 27 1 16 26
M  V30 28 1 16 27
M  V30 29 1 16 28
M  V30 30 1 17 29
M  V30 31 1 17 30
M  V30 32 1 17 31
M  V30 END BOND
M  V30 END CTAB
M  END
>  <Structure No>
5683

>  <LogS>
-2.8803

>  <MMFF94 Energy>
53.227

$$$$
Compound 5684
Actelion Java MolfileCreator 2.0

  0  0  0  0  0  0              0 V3000
M  V30 BEGIN CTAB
M  V30 COUNTS 34 35 0 0 0
M  V30 BEGIN ATOM
M  V30 1 S 0.6543 -1.3908 -1.4726 0
M  V30 2 O 0.7248 -0.6839 -2.7972 0
M  V30 3 O 1.1258 -2.8064 -1.6602 0
M  V30 4 C 1.692 -0.5763 -0.3078 0
M  V30 5 C -1.0296 -1.347 -0.8689 0
M  V30 6 C 2.2255 -1.2877 0.7746 0
M  V30 7 C 1.9602 0.7931 -0.4363 0
M  V30 8 C -1.6579 -0.0123 -0.6282 0
M  V30 9 C -1.9564 -2.4459 -1.3638 0
M  V30 10 C -1.4424 -2.4679 0.0723 0
M  V30 11 C 3.0296 -0.6381 1.7158 0
M  V30 12 C 2.7638 1.4438 0.5046 0
M  V30 13 O -1.524 0.5477 0.4936 0
M  V30 14 O -2.3425 0.6221 -1.6701 0
M  V30 15 C 3.2924 0.735 1.5943 0
M  V30 16 C -3.0001 1.8788 -1.5247 0
M  V30 17 C 4.1859 1.4242 2.5825 0
M  V30 18 C -4.3072 1.7156 -0.7578 0
M  V30 19 H 2.0185 -2.3438 0.8909 0
M  V30 20 H 1.5459 1.3582 -1.2613 0
M  V30 21 H -1.4946 -3.2189 -2.0135 0
M  V30 22 H -3.0315 -2.1759 -1.4438 0
M  V30 23 H -0.679 -3.2519 0.2612 0
M  V30 24 H -2.2195 -2.2105 0.8237 0
M  V30 25 H 3.4436 -1.2047 2.5407 0
M  V30 26 H 2.9703 2.5002 0.3854 0
M  V30 27 H -3.2272 2.2779 -2.5356 0
M  V30 28 H -2.3367 2.606 -1.0077 0
M  V30 29 H 3.9033 2.4935 2.6868 0
M  V30 30 H 4.1039 0.9488 3.5831 0
M  V30 31 H 5.2381 1.3598 2.236 0
M  V30 32 H -4.9611 0.9829 -1.276 0
M  V30 33 H -4.8327 2.6922 -0.7033 0
M  V30 34 H -4.1088 1.3598 0.2746 0
M  V30 END ATOM
M  V30 BEGIN BOND
M  V30 1 2 1 2
M  V30 2 2 1 3
M  V30 3 1 1 4
M  V30 4 1 1 5
M  V30 5 2 4 6
M  V30 6 1 4 7
M  V30 7 1 5 8
M  V30 8 1 5 9
M  V30 9 1 5 10
M  V30 10 1 6 11
M  V30 11 2 7 12
M  V30 12 2 8 13
M  V30 13 1 8 14
M  V30 14 2 11 15
M  V30 15 1 14 16
M  V30 16 1 15 17
M  V30 17 1 16 18
M  V30 18 1 9 10
M  V30 19 1 12 15
M  V30 20 1 6 19
M  V30 21 1 7 20
M  V30 22 1 9 21
M  V30 23 1 9 22
M  V30 24 1 10 23
M  V30 25 1 10 24
M  V30 26 1 11 25
M  V30 27 1 12 26
M  V30 28 1 16 27
M  V30 29 1 16 28
M  V30 30 1 17 29
M  V30 31 1 17 30
M  V30 32 1 17 31
M  V30 33 1 18 32
M  V30 34 1 18 33
M  V30 35 1 18 34
M  V30 END BOND
M  V30 END CTAB
M  END
>  <Structure No>
5684

>  <LogS>
-3.0104

>  <MMFF94 Energy>
50.787

$$$$
Compound 5685
Actelion Java MolfileCreator 2.0

  0  0  0  0  0  0              0 V3000
M  V30 BEGIN CTAB
M  V30 COUNTS 37 38 0 0 0
M  V30 BEGIN ATOM
M  V30 1 S 1.0596 2.12 -0.3259 0
M  V30 2 O 1.8332 3.2986 0.1952 0
M  V30 3 O 1.2618 2.0334 -1.8126 0
M  V30 4 C 1.6485 0.6503 0.4415 0
M  V30 5 C -0.6903 2.2859 0.0185 0
M  V30 6 C 1.8954 0.6344 1.8194 0
M  V30 7 C 1.8079 -0.525 -0.3039 0
M  V30 8 C -1.5173 1.0415 0.0502 0
M  V30 9 C -1.1359 3.4441 0.8994 0
M  V30 10 C -1.3608 3.4985 -0.607 0
M  V30 11 C 2.3138 -0.5427 2.4459 0
M  V30 12 C 2.2228 -1.7035 0.3216 0
M  V30 13 O -1.8629 0.5468 1.1574 0
M  V30 14 O -1.8471 0.4092 -1.1524 0
M  V30 15 C 2.4927 -1.716 1.6983 0
M  V30 16 C -2.4999 -0.8576 -1.2209 0
M  V30 17 C 2.8959 -2.9891 2.3795 0
M  V30 18 C -3.0601 -1.0497 -2.6279 0
M  V30 19 C -1.514 -1.9787 -0.8785 0
M  V30 20 H 1.7508 1.5296 2.4103 0
M  V30 21 H 1.5949 -0.536 -1.3647 0
M  V30 22 H -0.3415 4.1334 1.2524 0
M  V30 23 H -2.0719 3.2853 1.4766 0
M  V30 24 H -0.6873 4.2112 -1.128 0
M  V30 25 H -2.4257 3.3715 -0.8987 0
M  V30 26 H 2.4909 -0.5413 3.5141 0
M  V30 27 H 2.3285 -2.606 -0.266 0
M  V30 28 H -3.3501 -0.8826 -0.5032 0
M  V30 29 H 3.5808 -2.7778 3.2268 0
M  V30 30 H 1.9913 -3.5026 2.764 0
M  V30 31 H 3.4225 -3.6644 1.6738 0
M  V30 32 H -3.5914 -2.0221 -2.7025 0
M  V30 33 H -3.7807 -0.2366 -2.8579 0
M  V30 34 H -2.2421 -1.0223 -3.3785 0
M  V30 35 H -2.0188 -2.9656 -0.9383 0
M  V30 36 H -0.6547 -1.9679 -1.5819 0
M  V30 37 H -1.1283 -1.8491 0.154 0
M  V30 END ATOM
M  V30 BEGIN BOND
M  V30 1 2 1 2
M  V30 2 2 1 3
M  V30 3 1 1 4
M  V30 4 1 1 5
M  V30 5 2 4 6
M  V30 6 1 4 7
M  V30 7 1 5 8
M  V30 8 1 5 9
M  V30 9 1 5 10
M  V30 10 1 6 11
M  V30 11 2 7 12
M  V30 12 2 8 13
M  V30 13 1 8 14
M  V30 14 2 11 15
M  V30 15 1 14 16
M  V30 16 1 15 17
M  V30 17 1 16 18
M  V30 18 1 16 19
M  V30 19 1 9 10
M  V30 20 1 12 15
M  V30 21 1 6 20
M  V30 22 1 7 21
M  V30 23 1 9 22
M  V30 24 1 9 23
M  V30 25 1 10 24
M  V30 26 1 10 25
M  V30 27 1 11 26
M  V30 28 1 12 27
M  V30 29 1 16 28
M  V30 30 1 17 29
M  V30 31 1 17 30
M  V30 32 1 17 31
M  V30 33 1 18 32
M  V30 34 1 18 33
M  V30 35 1 18 34
M  V30 36 1 19 35
M  V30 37 1 19 36
M  V30 38 1 19 37
M  V30 END BOND
M  V30 END CTAB
M  END
>  <Structure No>
5685

>  <LogS>
-3.2307

>  <MMFF94 Energy>
55.244

$$$$
Compound 5686
Actelion Java MolfileCreator 2.0

  0  0  0  0  0  0              0 V3000
M  V30 BEGIN CTAB
M  V30 COUNTS 28 29 0 0 0
M  V30 BEGIN ATOM
M  V30 1 Cl 5.8905 -1.176 0.5039 0
M  V30 2 C 4.2268 -0.8483 0.0554 0
M  V30 3 C 3.3899 -1.8954 -0.3445 0
M  V30 4 C 3.7346 0.4604 0.0982 0
M  V30 5 C 2.0632 -1.6351 -0.701 0
M  V30 6 C 2.4081 0.7222 -0.2579 0
M  V30 7 C 1.5649 -0.3248 -0.6574 0
M  V30 8 S -0.111 0.0036 -1.1024 0
M  V30 9 O -0.1989 1.383 -1.693 0
M  V30 10 O -0.5402 -0.984 -2.1508 0
M  V30 11 C -1.244 -0.1007 0.2846 0
M  V30 12 C -2.694 0.1531 0.022 0
M  V30 13 C -0.9235 -1.1164 1.3709 0
M  V30 14 C -0.7229 0.3727 1.6331 0
M  V30 15 O -3.4437 -0.801 -0.321 0
M  V30 16 O -3.193 1.4549 0.1188 0
M  V30 17 C -4.5559 1.7728 -0.1342 0
M  V30 18 H 3.7654 -2.91 -0.378 0
M  V30 19 H 4.3776 1.2742 0.4082 0
M  V30 20 H 1.4242 -2.4547 -1.0035 0
M  V30 21 H 2.0377 1.7385 -0.2156 0
M  V30 22 H -1.7955 -1.5435 1.9113 0
M  V30 23 H 0.0265 -1.6774 1.2623 0
M  V30 24 H 0.3436 0.6723 1.6778 0
M  V30 25 H -1.4785 0.8005 2.3267 0
M  V30 26 H -4.8208 1.5053 -1.1789 0
M  V30 27 H -5.2122 1.2222 0.5725 0
M  V30 28 H -4.7084 2.8623 0.0076 0
M  V30 END ATOM
M  V30 BEGIN BOND
M  V30 1 1 1 2
M  V30 2 2 2 3
M  V30 3 1 2 4
M  V30 4 1 3 5
M  V30 5 2 4 6
M  V30 6 2 5 7
M  V30 7 1 7 8
M  V30 8 2 8 9
M  V30 9 2 8 10
M  V30 10 1 8 11
M  V30 11 1 11 12
M  V30 12 1 11 13
M  V30 13 1 11 14
M  V30 14 2 12 15
M  V30 15 1 12 16
M  V30 16 1 16 17
M  V30 17 1 6 7
M  V30 18 1 13 14
M  V30 19 1 3 18
M  V30 20 1 4 19
M  V30 21 1 5 20
M  V30 22 1 6 21
M  V30 23 1 13 22
M  V30 24 1 13 23
M  V30 25 1 14 24
M  V30 26 1 14 25
M  V30 27 1 17 26
M  V30 28 1 17 27
M  V30 29 1 17 28
M  V30 END BOND
M  V30 END CTAB
M  END
>  <Structure No>
5686

>  <LogS>
-3.3086

>  <MMFF94 Energy>
51.132

$$$$
Compound 5687
Actelion Java MolfileCreator 2.0

  0  0  0  0  0  0              0 V3000
M  V30 BEGIN CTAB
M  V30 COUNTS 34 35 0 0 0
M  V30 BEGIN ATOM
M  V30 1 Cl -6.9893 -0.0829 0.0829 0
M  V30 2 C -5.2621 0.0543 0.3567 0
M  V30 3 C -4.5019 0.9511 -0.4015 0
M  V30 4 C -4.6428 -0.7335 1.3328 0
M  V30 5 C -3.1249 1.0605 -0.1846 0
M  V30 6 C -3.2659 -0.6254 1.5509 0
M  V30 7 C -2.4995 0.2708 0.7914 0
M  V30 8 S -0.7606 0.4039 1.0626 0
M  V30 9 O -0.3236 1.8092 0.7566 0
M  V30 10 O -0.4695 0.1268 2.5111 0
M  V30 11 C 0.1996 -0.7283 0.0561 0
M  V30 12 C 1.6866 -0.6993 0.2034 0
M  V30 13 C -0.4231 -2.0784 -0.265 0
M  V30 14 C -0.3192 -1.0073 -1.3463 0
M  V30 15 O 2.2441 -1.4345 1.0631 0
M  V30 16 O 2.4372 0.1742 -0.5907 0
M  V30 17 C 3.8486 0.3422 -0.4605 0
M  V30 18 C 4.3837 1.0195 -1.7203 0
M  V30 19 C 4.1676 1.185 0.7777 0
M  V30 20 H -4.9761 1.5624 -1.1587 0
M  V30 21 H -5.2264 -1.4298 1.9217 0
M  V30 22 H -2.547 1.7544 -0.7813 0
M  V30 23 H -2.7976 -1.2443 2.3054 0
M  V30 24 H -1.4591 -2.2452 0.0936 0
M  V30 25 H 0.2873 -2.9202 -0.411 0
M  V30 26 H -1.2963 -0.5568 -1.6151 0
M  V30 27 H 0.4494 -1.2355 -2.1158 0
M  V30 28 H 4.3396 -0.652 -0.3669 0
M  V30 29 H 3.9143 2.018 -1.854 0
M  V30 30 H 4.1504 0.3951 -2.6087 0
M  V30 31 H 5.4861 1.1406 -1.6552 0
M  V30 32 H 3.8132 0.6692 1.6945 0
M  V30 33 H 5.2643 1.3372 0.8676 0
M  V30 34 H 3.6669 2.1747 0.7113 0
M  V30 END ATOM
M  V30 BEGIN BOND
M  V30 1 1 1 2
M  V30 2 2 2 3
M  V30 3 1 2 4
M  V30 4 1 3 5
M  V30 5 2 4 6
M  V30 6 2 5 7
M  V30 7 1 7 8
M  V30 8 2 8 9
M  V30 9 2 8 10
M  V30 10 1 8 11
M  V30 11 1 11 12
M  V30 12 1 11 13
M  V30 13 1 11 14
M  V30 14 2 12 15
M  V30 15 1 12 16
M  V30 16 1 16 17
M  V30 17 1 17 18
M  V30 18 1 17 19
M  V30 19 1 6 7
M  V30 20 1 13 14
M  V30 21 1 3 20
M  V30 22 1 4 21
M  V30 23 1 5 22
M  V30 24 1 6 23
M  V30 25 1 13 24
M  V30 26 1 13 25
M  V30 27 1 14 26
M  V30 28 1 14 27
M  V30 29 1 17 28
M  V30 30 1 18 29
M  V30 31 1 18 30
M  V30 32 1 18 31
M  V30 33 1 19 32
M  V30 34 1 19 33
M  V30 35 1 19 34
M  V30 END BOND
M  V30 END CTAB
M  END
>  <Structure No>
5687

>  <LogS>
-3.5401

>  <MMFF94 Energy>
52.518

$$$$
Compound 5688
Actelion Java MolfileCreator 2.0

  0  0  0  0  0  0              0 V3000
M  V30 BEGIN CTAB
M  V30 COUNTS 37 38 0 0 0
M  V30 BEGIN ATOM
M  V30 1 Cl 7.0449 0.7442 1.9854 0
M  V30 2 C 5.4795 0.5064 1.2309 0
M  V30 3 C 5.1097 -0.7612 0.7695 0
M  V30 4 C 4.5986 1.5841 1.0906 0
M  V30 5 C 3.8615 -0.9517 0.1689 0
M  V30 6 C 3.3501 1.3951 0.4902 0
M  V30 7 C 2.9742 0.1254 0.0283 0
M  V30 8 S 1.3965 -0.1157 -0.7245 0
M  V30 9 O 0.9862 1.1525 -1.4191 0
M  V30 10 O 1.5092 -1.2013 -1.7578 0
M  V30 11 C 0.1165 -0.5682 0.4476 0
M  V30 12 C -1.2619 -0.7973 -0.0814 0
M  V30 13 C 0.5303 -1.408 1.6464 0
M  V30 14 C 0.1947 0.0689 1.8266 0
M  V30 15 O -1.5938 -1.9499 -0.4672 0
M  V30 16 O -2.1433 0.2893 -0.1773 0
M  V30 17 C -3.487 0.2499 -0.6788 0
M  V30 18 C -4.0514 1.675 -0.5768 0
M  V30 19 C -3.5008 -0.1863 -2.1562 0
M  V30 20 C -4.3567 -0.6923 0.1747 0
M  V30 21 H 5.787 -1.5986 0.8767 0
M  V30 22 H 4.8794 2.5669 1.4471 0
M  V30 23 H 3.5848 -1.9385 -0.1791 0
M  V30 24 H 2.6754 2.2359 0.3923 0
M  V30 25 H -0.2471 -2.088 2.056 0
M  V30 26 H 1.6118 -1.631 1.7468 0
M  V30 27 H 1.0825 0.6999 2.0347 0
M  V30 28 H -0.7746 0.2375 2.3434 0
M  V30 29 H -3.4325 2.3782 -1.1747 0
M  V30 30 H -4.0395 2.0193 0.4798 0
M  V30 31 H -5.0973 1.7181 -0.951 0
M  V30 32 H -4.5233 -0.0925 -2.5818 0
M  V30 33 H -3.1853 -1.2432 -2.2692 0
M  V30 34 H -2.8098 0.4497 -2.7497 0
M  V30 35 H -4.2796 -0.4169 1.2484 0
M  V30 36 H -4.0392 -1.7488 0.0622 0
M  V30 37 H -5.4227 -0.6259 -0.1329 0
M  V30 END ATOM
M  V30 BEGIN BOND
M  V30 1 1 1 2
M  V30 2 2 2 3
M  V30 3 1 2 4
M  V30 4 1 3 5
M  V30 5 2 4 6
M  V30 6 2 5 7
M  V30 7 1 7 8
M  V30 8 2 8 9
M  V30 9 2 8 10
M  V30 10 1 8 11
M  V30 11 1 11 12
M  V30 12 1 11 13
M  V30 13 1 11 14
M  V30 14 2 12 15
M  V30 15 1 12 16
M  V30 16 1 16 17
M  V30 17 1 17 18
M  V30 18 1 17 19
M  V30 19 1 17 20
M  V30 20 1 6 7
M  V30 21 1 13 14
M  V30 22 1 3 21
M  V30 23 1 4 22
M  V30 24 1 5 23
M  V30 25 1 6 24
M  V30 26 1 13 25
M  V30 27 1 13 26
M  V30 28 1 14 27
M  V30 29 1 14 28
M  V30 30 1 18 29
M  V30 31 1 18 30
M  V30 32 1 18 31
M  V30 33 1 19 32
M  V30 34 1 19 33
M  V30 35 1 19 34
M  V30 36 1 20 35
M  V30 37 1 20 36
M  V30 38 1 20 37
M  V30 END BOND
M  V30 END CTAB
M  END
>  <Structure No>
5688

>  <LogS>
-4.1206

>  <MMFF94 Energy>
61.997

$$$$
Compound 5689
Actelion Java MolfileCreator 2.0

  0  0  0  0  0  0              0 V3000
M  V30 BEGIN CTAB
M  V30 COUNTS 30 31 0 0 0
M  V30 BEGIN ATOM
M  V30 1 S -0.3329 0.9991 -0.666 0
M  V30 2 O -0.5448 2.3741 -0.0963 0
M  V30 3 O -0.4743 1.0834 -2.16 0
M  V30 4 C 1.3014 0.4607 -0.274 0
M  V30 5 C -1.6078 -0.0898 -0.0278 0
M  V30 6 C 1.9867 -0.401 -1.1396 0
M  V30 7 C 1.9231 0.892 0.9045 0
M  V30 8 C -3.0332 0.2656 -0.3071 0
M  V30 9 C -1.2845 -1.5747 0.0422 0
M  V30 10 C -1.3405 -0.743 1.3197 0
M  V30 11 C 3.2796 -0.8316 -0.8287 0
M  V30 12 C 3.216 0.4629 1.2178 0
M  V30 13 O -3.584 -0.1443 -1.365 0
M  V30 14 O -3.7264 1.0844 0.5885 0
M  V30 15 C 3.9091 -0.4046 0.3536 0
M  V30 16 C -5.0769 1.4773 0.3782 0
M  V30 17 N 5.2401 -0.8501 0.6719 0 CHG=1
M  V30 18 O 5.8041 -0.474 1.7206 0
M  V30 19 O 5.9146 -1.6991 -0.1754 0 CHG=-1
M  V30 20 H 1.5179 -0.7457 -2.0525 0
M  V30 21 H 1.4051 1.5555 1.5855 0
M  V30 22 H -2.1468 -2.2669 -0.0685 0
M  V30 23 H -0.2563 -1.8738 -0.245 0
M  V30 24 H -0.3441 -0.5626 1.7719 0
M  V30 25 H -2.2339 -0.9597 1.9441 0
M  V30 26 H 3.7857 -1.4995 -1.5135 0
M  V30 27 H 3.6727 0.8088 2.1362 0
M  V30 28 H -5.7309 0.5808 0.3331 0
M  V30 29 H -5.4051 2.1198 1.2209 0
M  V30 30 H -5.1626 2.0528 -0.5678 0
M  V30 END ATOM
M  V30 BEGIN BOND
M  V30 1 2 1 2
M  V30 2 2 1 3
M  V30 3 1 1 4
M  V30 4 1 1 5
M  V30 5 2 4 6
M  V30 6 1 4 7
M  V30 7 1 5 8
M  V30 8 1 5 9
M  V30 9 1 5 10
M  V30 10 1 6 11
M  V30 11 2 7 12
M  V30 12 2 8 13
M  V30 13 1 8 14
M  V30 14 2 11 15
M  V30 15 1 14 16
M  V30 16 1 15 17
M  V30 17 2 17 18
M  V30 18 1 17 19
M  V30 19 1 9 10
M  V30 20 1 12 15
M  V30 21 1 6 20
M  V30 22 1 7 21
M  V30 23 1 9 22
M  V30 24 1 9 23
M  V30 25 1 10 24
M  V30 26 1 10 25
M  V30 27 1 11 26
M  V30 28 1 12 27
M  V30 29 1 16 28
M  V30 30 1 16 29
M  V30 31 1 16 30
M  V30 END BOND
M  V30 END CTAB
M  END
>  <Structure No>
5689

>  <LogS>
-3.3797

>  <MMFF94 Energy>
87.432

$$$$
Compound 5690
Actelion Java MolfileCreator 2.0

  0  0  0  0  0  0              0 V3000
M  V30 BEGIN CTAB
M  V30 COUNTS 36 37 0 0 0
M  V30 BEGIN ATOM
M  V30 1 S -0.6595 0.0824 1.2369 0
M  V30 2 O -0.0599 1.3946 1.6592 0
M  V30 3 O -0.7519 -0.8027 2.4483 0
M  V30 4 C -2.2846 0.3681 0.6102 0
M  V30 5 C 0.4324 -0.69 0.0417 0
M  V30 6 C -2.5939 1.5778 -0.0245 0
M  V30 7 C -3.275 -0.6129 0.7444 0
M  V30 8 C 1.8351 -0.9835 0.4663 0
M  V30 9 C -0.1908 -1.6612 -0.9492 0
M  V30 10 C 0.257 -0.2783 -1.4122 0
M  V30 11 C -3.8795 1.8036 -0.5249 0
M  V30 12 C -4.5614 -0.3898 0.245 0
M  V30 13 O 2.1037 -2.0858 1.0168 0
M  V30 14 O 2.823 -0.0086 0.2903 0
M  V30 15 C -4.8781 0.8222 -0.3957 0
M  V30 16 C 4.1971 -0.2109 0.619 0
M  V30 17 N -6.201 1.0567 -0.9125 0 CHG=1
M  V30 18 C 4.8655 -1.1023 -0.4313 0
M  V30 19 C 4.8932 1.1466 0.6895 0
M  V30 20 O -7.0916 0.1887 -0.8009 0
M  V30 21 O -6.5068 2.2433 -1.5391 0 CHG=-1
M  V30 22 H -1.8383 2.3446 -0.1389 0
M  V30 23 H -3.0503 -1.5543 1.2295 0
M  V30 24 H 0.4687 -2.4797 -1.3094 0
M  V30 25 H -1.2928 -1.7771 -0.9053 0
M  V30 26 H -0.5866 0.4048 -1.6383 0
M  V30 27 H 1.1728 -0.3029 -2.0412 0
M  V30 28 H -4.0913 2.7458 -1.0135 0
M  V30 29 H -5.3076 -1.1655 0.3592 0
M  V30 30 H 4.2783 -0.6937 1.6186 0
M  V30 31 H 5.9409 -1.2414 -0.1899 0
M  V30 32 H 4.7748 -0.6455 -1.4401 0
M  V30 33 H 4.3824 -2.1015 -0.4494 0
M  V30 34 H 5.9609 1.0192 0.9686 0
M  V30 35 H 4.8318 1.6661 -0.2908 0
M  V30 36 H 4.4019 1.7796 1.4588 0
M  V30 END ATOM
M  V30 BEGIN BOND
M  V30 1 2 1 2
M  V30 2 2 1 3
M  V30 3 1 1 4
M  V30 4 1 1 5
M  V30 5 2 4 6
M  V30 6 1 4 7
M  V30 7 1 5 8
M  V30 8 1 5 9
M  V30 9 1 5 10
M  V30 10 1 6 11
M  V30 11 2 7 12
M  V30 12 2 8 13
M  V30 13 1 8 14
M  V30 14 2 11 15
M  V30 15 1 14 16
M  V30 16 1 15 17
M  V30 17 1 16 18
M  V30 18 1 16 19
M  V30 19 2 17 20
M  V30 20 1 17 21
M  V30 21 1 9 10
M  V30 22 1 12 15
M  V30 23 1 6 22
M  V30 24 1 7 23
M  V30 25 1 9 24
M  V30 26 1 9 25
M  V30 27 1 10 26
M  V30 28 1 10 27
M  V30 29 1 11 28
M  V30 30 1 12 29
M  V30 31 1 16 30
M  V30 32 1 18 31
M  V30 33 1 18 32
M  V30 34 1 18 33
M  V30 35 1 19 34
M  V30 36 1 19 35
M  V30 37 1 19 36
M  V30 END BOND
M  V30 END CTAB
M  END
>  <Structure No>
5690

>  <LogS>
-4.2605

>  <MMFF94 Energy>
86.749

$$$$
Compound 5691
Actelion Java MolfileCreator 2.0

  0  0  0  0  0  0              0 V3000
M  V30 BEGIN CTAB
M  V30 COUNTS 45 49 0 0 0
M  V30 BEGIN ATOM
M  V30 1 F 2.1368 -3.2888 0.4928 0
M  V30 2 C 0.9829 -2.6012 0.3084 0
M  V30 3 C 0.9688 -1.2097 0.0854 0
M  V30 4 C -0.223 -3.3038 0.3424 0
M  V30 5 N -0.2287 -0.588 -0.0933 0
M  V30 6 N 2.1751 -0.4176 0.0362 0
M  V30 7 C -1.4431 -2.6338 0.1541 0
M  V30 8 C -1.4227 -1.2433 -0.0731 0
M  V30 9 C 3.5269 -0.9229 0.2295 0
M  V30 10 C 2.1434 1.0145 -0.2246 0
M  V30 11 C -2.6763 -3.3081 0.1904 0
M  V30 12 N -2.5933 -0.5556 -0.2579 0
M  V30 13 C 4.4566 0.2747 0.1012 0 CFG=1
M  V30 14 C 3.5863 1.4932 -0.1846 0 CFG=2
M  V30 15 O -2.7052 -4.5537 0.3931 0
M  V30 16 C -3.8744 -2.5876 0.0017 0
M  V30 17 C -2.579 0.8651 -0.5008 0
M  V30 18 C -3.796 -1.2028 -0.2215 0
M  V30 19 C 4.2935 1.3605 1.1597 0 CFG=2
M  V30 20 C -5.2084 -3.2451 0.0299 0
M  V30 21 C -3.1994 1.7499 0.3999 0
M  V30 22 C -1.9413 1.3802 -1.6423 0
M  V30 23 N 5.461 2.2303 1.3108 0 CHG=1
M  V30 24 O -5.3179 -4.4851 0.2216 0
M  V30 25 O -6.3646 -2.4953 -0.1561 0 CHG=-1
M  V30 26 F -3.8075 1.2779 1.5172 0
M  V30 27 C -3.1753 3.1278 0.1598 0
M  V30 28 C -1.9189 2.7581 -1.8765 0
M  V30 29 C -2.5356 3.6317 -0.9765 0
M  V30 30 F -2.5126 4.968 -1.205 0
M  V30 31 H -0.1982 -4.3725 0.5177 0
M  V30 32 H 3.7721 -1.6631 -0.5613 0
M  V30 33 H 3.6331 -1.3773 1.2379 0
M  V30 34 H 1.7121 1.206 -1.2304 0
M  V30 35 H 1.5425 1.5375 0.5505 0
M  V30 36 H 5.3855 0.23 -0.507 0
M  V30 37 H 3.9986 2.1701 -0.9637 0
M  V30 38 H -4.7071 -0.6355 -0.3779 0
M  V30 39 H 3.6793 1.1334 2.0592 0
M  V30 40 H -1.465 0.7117 -2.3482 0
M  V30 41 H 5.1421 3.1537 1.6822 0
M  V30 42 H 5.9713 2.3829 0.4099 0
M  V30 43 H 6.1127 1.7953 2.0021 0
M  V30 44 H -3.6499 3.8061 0.8575 0
M  V30 45 H -1.4239 3.1476 -2.7568 0
M  V30 END ATOM
M  V30 BEGIN BOND
M  V30 1 1 1 2
M  V30 2 2 2 3
M  V30 3 1 2 4
M  V30 4 1 3 5
M  V30 5 1 3 6
M  V30 6 2 4 7
M  V30 7 2 5 8
M  V30 8 1 6 9
M  V30 9 1 6 10
M  V30 10 1 7 11
M  V30 11 1 8 12
M  V30 12 1 9 13
M  V30 13 1 10 14
M  V30 14 2 11 15
M  V30 15 1 11 16
M  V30 16 1 12 17
M  V30 17 1 12 18
M  V30 18 1 13 19
M  V30 19 1 16 20
M  V30 20 2 17 21
M  V30 21 1 17 22
M  V30 22 1 19 23
M  V30 23 2 20 24
M  V30 24 1 20 25
M  V30 25 1 21 26
M  V30 26 1 21 27
M  V30 27 2 22 28
M  V30 28 2 27 29
M  V30 29 1 29 30
M  V30 30 1 7 8
M  V30 31 1 13 14
M  V30 32 1 14 19
M  V30 33 2 16 18
M  V30 34 1 28 29
M  V30 35 1 4 31
M  V30 36 1 9 32
M  V30 37 1 9 33
M  V30 38 1 10 34
M  V30 39 1 10 35
M  V30 40 1 13 36
M  V30 41 1 14 37
M  V30 42 1 18 38
M  V30 43 1 19 39
M  V30 44 1 22 40
M  V30 45 1 23 41
M  V30 46 1 23 42
M  V30 47 1 23 43
M  V30 48 1 27 44
M  V30 49 1 28 45
M  V30 END BOND
M  V30 BEGIN COLLECTION
M  V30 MDLV30/STEABS ATOMS=(3 13 14 19)
M  V30 END COLLECTION
M  V30 END CTAB
M  END
>  <Structure No>
5691

>  <LogS>
-4.5296

>  <MMFF94 Energy>
5.9235

$$$$
Compound 5692
Actelion Java MolfileCreator 2.0

  0  0  0  0  0  0              0 V3000
M  V30 BEGIN CTAB
M  V30 COUNTS 41 43 0 0 0
M  V30 BEGIN ATOM
M  V30 1 Cl 0.9151 -3.6642 -1.8308 0
M  V30 2 C 1.3522 -1.9704 -1.6498 0
M  V30 3 C 2.0654 -1.5227 -0.5209 0
M  V30 4 C 0.9331 -1.0596 -2.6227 0
M  V30 5 N 2.3647 -2.4503 0.5286 0
M  V30 6 C 2.385 -0.1474 -0.3919 0
M  V30 7 C 1.218 0.2974 -2.4819 0
M  V30 8 S 1.3518 -2.5342 1.9348 0
M  V30 9 C 3.1946 0.3725 0.7356 0
M  V30 10 C 1.9393 0.7519 -1.3771 0
M  V30 11 O 1.3291 -3.9524 2.4305 0
M  V30 12 O 1.8885 -1.642 3.0172 0
M  V30 13 C -0.2867 -2.0554 1.53 0
M  V30 14 O 3.9555 -0.3978 1.3839 0
M  V30 15 O 3.1373 1.7325 1.0602 0
M  V30 16 N -0.5757 -0.9094 0.8705 0
M  V30 17 N -1.3793 -2.8186 1.7998 0
M  V30 18 C 3.8909 2.3001 2.1249 0
M  V30 19 N -1.8816 -0.946 0.7153 0
M  V30 20 C -2.3567 -2.0645 1.2638 0
M  V30 21 C -2.6668 -0.0472 0.0777 0
M  V30 22 C -3.7154 -2.3565 1.226 0
M  V30 23 O -2.1032 1.088 -0.5109 0
M  V30 24 N -4.0092 -0.2932 0.0184 0
M  V30 25 C -4.5439 -1.4212 0.5808 0
M  V30 26 C -2.8685 2.0405 -1.2393 0
M  V30 27 F -5.8791 -1.64 0.5073 0
M  V30 28 C -1.9464 3.1202 -1.7819 0
M  V30 29 H 0.3719 -1.4015 -3.4832 0
M  V30 30 H 2.9543 -3.2823 0.3056 0
M  V30 31 H 0.8846 0.9999 -3.2351 0
M  V30 32 H 2.1633 1.8088 -1.3034 0
M  V30 33 H 3.609 1.8215 3.0868 0
M  V30 34 H 4.9772 2.1602 1.9394 0
M  V30 35 H 3.6732 3.3863 2.1868 0
M  V30 36 H -4.1154 -3.2601 1.6674 0
M  V30 37 H -3.627 2.5034 -0.5713 0
M  V30 38 H -3.3839 1.5393 -2.0872 0
M  V30 39 H -2.537 3.8633 -2.3577 0
M  V30 40 H -1.4334 3.6375 -0.9431 0
M  V30 41 H -1.1848 2.6665 -2.4507 0
M  V30 END ATOM
M  V30 BEGIN BOND
M  V30 1 1 1 2
M  V30 2 2 2 3
M  V30 3 1 2 4
M  V30 4 1 3 5
M  V30 5 1 3 6
M  V30 6 2 4 7
M  V30 7 1 5 8
M  V30 8 1 6 9
M  V30 9 2 6 10
M  V30 10 2 8 11
M  V30 11 2 8 12
M  V30 12 1 8 13
M  V30 13 2 9 14
M  V30 14 1 9 15
M  V30 15 2 13 16
M  V30 16 1 13 17
M  V30 17 1 15 18
M  V30 18 1 16 19
M  V30 19 2 17 20
M  V30 20 1 19 21
M  V30 21 1 20 22
M  V30 22 1 21 23
M  V30 23 2 21 24
M  V30 24 2 22 25
M  V30 25 1 23 26
M  V30 26 1 25 27
M  V30 27 1 26 28
M  V30 28 1 7 10
M  V30 29 1 19 20
M  V30 30 1 24 25
M  V30 31 1 4 29
M  V30 32 1 5 30
M  V30 33 1 7 31
M  V30 34 1 10 32
M  V30 35 1 18 33
M  V30 36 1 18 34
M  V30 37 1 18 35
M  V30 38 1 22 36
M  V30 39 1 26 37
M  V30 40 1 26 38
M  V30 41 1 28 39
M  V30 42 1 28 40
M  V30 43 1 28 41
M  V30 END BOND
M  V30 END CTAB
M  END
>  <Structure No>
5692

>  <LogS>
-4.4292

>  <MMFF94 Energy>
156.85

$$$$
Compound 5693
Actelion Java MolfileCreator 2.0

  0  0  0  0  0  0              0 V3000
M  V30 BEGIN CTAB
M  V30 COUNTS 42 43 0 0 0
M  V30 BEGIN ATOM
M  V30 1 O 3.2472 1.4246 -1.187 0
M  V30 2 C 3.1678 0.5112 -0.3206 0
M  V30 3 O 4.3109 0.0697 0.355 0
M  V30 4 N 1.9066 -0.0961 -0.0287 0
M  V30 5 C 5.6075 0.6382 0.1685 0
M  V30 6 N 0.7185 0.3464 -0.6382 0
M  V30 7 C 5.7009 1.9896 0.8827 0
M  V30 8 C 6.6548 -0.3288 0.7163 0
M  V30 9 C -0.5347 -0.3206 -0.4226 0
M  V30 10 C -0.6226 -1.7278 -0.4031 0
M  V30 11 C -1.6955 0.4515 -0.2668 0
M  V30 12 O 0.532 -2.4897 -0.6444 0
M  V30 13 C -1.8717 -2.3337 -0.1705 0
M  V30 14 C -2.9429 -0.1549 -0.0433 0
M  V30 15 C 0.5768 -3.9127 -0.6516 0
M  V30 16 C -3.0162 -1.5554 0.0106 0
M  V30 17 C -4.1637 0.6724 0.1354 0
M  V30 18 C -5.1236 0.3316 1.1074 0
M  V30 19 C -4.3803 1.8106 -0.6645 0
M  V30 20 C -6.2714 1.1127 1.2736 0
M  V30 21 C -5.5305 2.5874 -0.4944 0
M  V30 22 C -6.475 2.2391 0.4736 0
M  V30 23 H 1.8766 -0.8496 0.6939 0
M  V30 24 H 5.8036 0.781 -0.9175 0
M  V30 25 H 0.7113 1.2641 -1.1389 0
M  V30 26 H 6.7166 2.4217 0.7574 0
M  V30 27 H 4.9664 2.7024 0.4534 0
M  V30 28 H 5.488 1.8698 1.9667 0
M  V30 29 H 6.4933 -0.5027 1.8019 0
M  V30 30 H 6.5804 -1.3015 0.1853 0
M  V30 31 H 7.6763 0.0791 0.5606 0
M  V30 32 H -1.6146 1.5316 -0.2871 0
M  V30 33 H -1.9734 -3.4099 -0.1435 0
M  V30 34 H 0.2732 -4.3094 0.3402 0
M  V30 35 H 1.615 -4.241 -0.8623 0
M  V30 36 H -0.0899 -4.3119 -1.4449 0
M  V30 37 H -3.9659 -2.0521 0.1659 0
M  V30 38 H -4.9784 -0.5273 1.7502 0
M  V30 39 H -3.67 2.0896 -1.4325 0
M  V30 40 H -7.0024 0.8459 2.0261 0
M  V30 41 H -5.6912 3.4584 -1.1165 0
M  V30 42 H -7.3644 2.8421 0.6037 0
M  V30 END ATOM
M  V30 BEGIN BOND
M  V30 1 2 1 2
M  V30 2 1 2 3
M  V30 3 1 2 4
M  V30 4 1 3 5
M  V30 5 1 4 6
M  V30 6 1 5 7
M  V30 7 1 5 8
M  V30 8 1 6 9
M  V30 9 2 9 10
M  V30 10 1 9 11
M  V30 11 1 10 12
M  V30 12 1 10 13
M  V30 13 2 11 14
M  V30 14 1 12 15
M  V30 15 2 13 16
M  V30 16 1 14 17
M  V30 17 2 17 18
M  V30 18 1 17 19
M  V30 19 1 18 20
M  V30 20 2 19 21
M  V30 21 2 20 22
M  V30 22 1 14 16
M  V30 23 1 21 22
M  V30 24 1 4 23
M  V30 25 1 5 24
M  V30 26 1 6 25
M  V30 27 1 7 26
M  V30 28 1 7 27
M  V30 29 1 7 28
M  V30 30 1 8 29
M  V30 31 1 8 30
M  V30 32 1 8 31
M  V30 33 1 11 32
M  V30 34 1 13 33
M  V30 35 1 15 34
M  V30 36 1 15 35
M  V30 37 1 15 36
M  V30 38 1 16 37
M  V30 39 1 18 38
M  V30 40 1 19 39
M  V30 41 1 20 40
M  V30 42 1 21 41
M  V30 43 1 22 42
M  V30 END BOND
M  V30 END CTAB
M  END
>  <Structure No>
5693

>  <LogS>
-4.9025

>  <MMFF94 Energy>
59.613

$$$$
Compound 5694
Actelion Java MolfileCreator 2.0

  0  0  0  0  0  0              0 V3000
M  V30 BEGIN CTAB
M  V30 COUNTS 49 51 0 0 0
M  V30 BEGIN ATOM
M  V30 1 F 5.2331 0.7233 -2.6542 0
M  V30 2 C 5.3836 1.2946 -1.4322 0
M  V30 3 C 4.469 1.0358 -0.3886 0
M  V30 4 C 6.4708 2.1493 -1.224 0
M  V30 5 C 4.6748 1.6573 0.8641 0
M  V30 6 C 3.316 0.1295 -0.6155 0
M  V30 7 C 6.6619 2.7554 0.0177 0
M  V30 8 F 3.8254 1.4478 1.9019 0
M  V30 9 C 5.7662 2.5099 1.0585 0
M  V30 10 O 3.0462 -0.4713 -1.8304 0
M  V30 11 N 2.4588 -0.1702 0.2994 0
M  V30 12 C 1.8715 -1.254 -1.7249 0
M  V30 13 C 1.4592 -1.0789 -0.2506 0 CFG=2
M  V30 14 C 0.0613 -0.503 -0.1116 0
M  V30 15 C -1.0313 -1.3357 0.1992 0
M  V30 16 C -0.1661 0.8582 -0.3654 0
M  V30 17 O -0.801 -2.7074 0.4033 0
M  V30 18 C -2.3245 -0.7815 0.2945 0
M  V30 19 C -1.4472 1.3977 -0.2716 0
M  V30 20 C -1.8066 -3.6681 0.7151 0
M  V30 21 C -2.5551 0.5951 0.0666 0
M  V30 22 C -1.1685 -5.0407 0.8529 0
M  V30 23 C -3.9566 1.2366 0.1604 0
M  V30 24 C -3.9418 2.3535 1.2275 0
M  V30 25 C -5.0645 0.2295 0.5539 0
M  V30 26 C -4.3381 1.8409 -1.2084 0
M  V30 27 H 7.1683 2.3427 -2.0289 0
M  V30 28 H 7.5048 3.4162 0.1735 0
M  V30 29 H 5.9179 2.9831 2.0203 0
M  V30 30 H 1.1053 -0.8758 -2.4365 0
M  V30 31 H 2.1052 -2.3166 -1.95 0
M  V30 32 H 1.5517 -2.0504 0.2815 0
M  V30 33 H 0.6531 1.51 -0.6421 0
M  V30 34 H -3.1426 -1.4359 0.5428 0
M  V30 35 H -1.5671 2.4538 -0.4712 0
M  V30 36 H -2.3002 -3.3995 1.6742 0
M  V30 37 H -2.5632 -3.6998 -0.0985 0
M  V30 38 H -0.4125 -5.0276 1.6665 0
M  V30 39 H -0.6741 -5.3264 -0.0997 0
M  V30 40 H -1.9474 -5.794 1.0959 0
M  V30 41 H -3.2475 3.1744 0.9518 0
M  V30 42 H -4.9528 2.8009 1.3449 0
M  V30 43 H -3.6249 1.9436 2.2109 0
M  V30 44 H -5.1549 -0.5776 -0.2047 0
M  V30 45 H -6.0526 0.7355 0.6181 0
M  V30 46 H -4.8559 -0.2203 1.5487 0
M  V30 47 H -5.3621 2.2729 -1.1774 0
M  V30 48 H -3.6435 2.6548 -1.5037 0
M  V30 49 H -4.3131 1.0576 -1.9966 0
M  V30 END ATOM
M  V30 BEGIN BOND
M  V30 1 1 1 2
M  V30 2 2 2 3
M  V30 3 1 2 4
M  V30 4 1 3 5
M  V30 5 1 3 6
M  V30 6 2 4 7
M  V30 7 1 5 8
M  V30 8 2 5 9
M  V30 9 1 6 10
M  V30 10 2 6 11
M  V30 11 1 10 12
M  V30 12 1 11 13
M  V30 13 1 13 14
M  V30 14 2 14 15
M  V30 15 1 14 16
M  V30 16 1 15 17
M  V30 17 1 15 18
M  V30 18 2 16 19
M  V30 19 1 17 20
M  V30 20 2 18 21
M  V30 21 1 20 22
M  V30 22 1 21 23
M  V30 23 1 23 24
M  V30 24 1 23 25
M  V30 25 1 23 26
M  V30 26 1 7 9
M  V30 27 1 12 13
M  V30 28 1 19 21
M  V30 29 1 4 27
M  V30 30 1 7 28
M  V30 31 1 9 29
M  V30 32 1 12 30
M  V30 33 1 12 31
M  V30 34 1 13 32
M  V30 35 1 16 33
M  V30 36 1 18 34
M  V30 37 1 19 35
M  V30 38 1 20 36
M  V30 39 1 20 37
M  V30 40 1 22 38
M  V30 41 1 22 39
M  V30 42 1 22 40
M  V30 43 1 24 41
M  V30 44 1 24 42
M  V30 45 1 24 43
M  V30 46 1 25 44
M  V30 47 1 25 45
M  V30 48 1 25 46
M  V30 49 1 26 47
M  V30 50 1 26 48
M  V30 51 1 26 49
M  V30 END BOND
M  V30 BEGIN COLLECTION
M  V30 MDLV30/STEABS ATOMS=(1 13)
M  V30 END COLLECTION
M  V30 END CTAB
M  END
>  <Structure No>
5694

>  <LogS>
-6.6782

>  <MMFF94 Energy>
74.388

$$$$
Compound 5695
Actelion Java MolfileCreator 2.0

  0  0  0  0  0  0              0 V3000
M  V30 BEGIN CTAB
M  V30 COUNTS 44 46 0 0 0
M  V30 BEGIN ATOM
M  V30 1 Cl 5.0236 2.5094 -0.5662 0
M  V30 2 C 5.5621 0.8348 -0.5209 0
M  V30 3 C 4.6556 -0.2371 -0.3583 0
M  V30 4 C 6.9265 0.5747 -0.7016 0
M  V30 5 N 3.2513 -7.0E-4 -0.1509 0
M  V30 6 C 5.1466 -1.5552 -0.381 0
M  V30 7 C 7.3987 -0.7389 -0.7205 0
M  V30 8 N 2.7387 0.9474 0.6215 0
M  V30 9 C 2.1999 -0.6859 -0.6344 0
M  V30 10 C 6.5097 -1.8025 -0.5611 0
M  V30 11 N 1.4139 0.8534 0.6095 0
M  V30 12 O 2.2743 -1.6595 -1.4321 0
M  V30 13 N 1.056 -0.1639 -0.1603 0
M  V30 14 C -0.2946 -0.5484 -0.462 0
M  V30 15 O -0.5202 -1.2942 -1.454 0
M  V30 16 N -1.3994 -0.0929 0.3474 0
M  V30 17 C -2.6611 0.2843 -0.3226 0
M  V30 18 C -1.2929 -0.1016 1.8196 0
M  V30 19 C -3.7842 -0.7466 -0.0421 0
M  V30 20 C -3.0906 1.7162 0.0519 0
M  V30 21 C -0.8943 -1.4813 2.3415 0
M  V30 22 C -5.1997 -0.1404 -0.1333 0
M  V30 23 C -4.3183 2.1666 -0.7665 0
M  V30 24 C -5.2636 1.0072 -1.1477 0
M  V30 25 H 7.6231 1.3929 -0.8349 0
M  V30 26 H 4.4772 -2.3932 -0.2366 0
M  V30 27 H 8.4544 -0.9325 -0.8605 0
M  V30 28 H 6.8778 -2.8203 -0.5718 0
M  V30 29 H -2.497 0.2983 -1.4253 0
M  V30 30 H -2.2618 0.1672 2.289 0
M  V30 31 H -0.5572 0.6554 2.1571 0
M  V30 32 H -3.6933 -1.5744 -0.779 0
M  V30 33 H -3.6703 -1.2005 0.9641 0
M  V30 34 H -2.2494 2.4205 -0.1278 0
M  V30 35 H -3.3487 1.769 1.1309 0
M  V30 36 H -1.6007 -2.2521 1.9678 0
M  V30 37 H -0.9197 -1.4808 3.4517 0
M  V30 38 H 0.1349 -1.7397 2.0159 0
M  V30 39 H -5.9243 -0.9326 -0.4211 0
M  V30 40 H -5.5032 0.245 0.8652 0
M  V30 41 H -3.9756 2.6663 -1.6989 0
M  V30 42 H -4.8814 2.9226 -0.1765 0
M  V30 43 H -6.3064 1.3859 -1.2153 0
M  V30 44 H -4.9845 0.6154 -2.1507 0
M  V30 END ATOM
M  V30 BEGIN BOND
M  V30 1 1 1 2
M  V30 2 2 2 3
M  V30 3 1 2 4
M  V30 4 1 3 5
M  V30 5 1 3 6
M  V30 6 2 4 7
M  V30 7 1 5 8
M  V30 8 1 5 9
M  V30 9 2 6 10
M  V30 10 2 8 11
M  V30 11 2 9 12
M  V30 12 1 9 13
M  V30 13 1 13 14
M  V30 14 2 14 15
M  V30 15 1 14 16
M  V30 16 1 16 17
M  V30 17 1 16 18
M  V30 18 1 17 19
M  V30 19 1 17 20
M  V30 20 1 18 21
M  V30 21 1 19 22
M  V30 22 1 20 23
M  V30 23 1 22 24
M  V30 24 1 7 10
M  V30 25 1 11 13
M  V30 26 1 23 24
M  V30 27 1 4 25
M  V30 28 1 6 26
M  V30 29 1 7 27
M  V30 30 1 10 28
M  V30 31 1 17 29
M  V30 32 1 18 30
M  V30 33 1 18 31
M  V30 34 1 19 32
M  V30 35 1 19 33
M  V30 36 1 20 34
M  V30 37 1 20 35
M  V30 38 1 21 36
M  V30 39 1 21 37
M  V30 40 1 21 38
M  V30 41 1 22 39
M  V30 42 1 22 40
M  V30 43 1 23 41
M  V30 44 1 23 42
M  V30 45 1 24 43
M  V30 46 1 24 44
M  V30 END BOND
M  V30 END CTAB
M  END
>  <Structure No>
5695

>  <LogS>
-5.1821

>  <MMFF94 Energy>
22.13

$$$$
Compound 5696
Actelion Java MolfileCreator 2.0

  0  0  0  0  0  0              0 V3000
M  V30 BEGIN CTAB
M  V30 COUNTS 39 40 0 0 0
M  V30 BEGIN ATOM
M  V30 1 S 0.6575 2.138 -0.8219 0
M  V30 2 O 1.559 3.2386 -0.3343 0
M  V30 3 O 0.2529 2.4474 -2.2366 0
M  V30 4 C 1.5282 0.6068 -0.7788 0
M  V30 5 C -0.8154 2.0326 0.2036 0
M  V30 6 C 2.3691 0.307 0.2995 0
M  V30 7 C 1.3623 -0.3305 -1.806 0
M  V30 8 C -1.6596 0.8386 -0.161 0
M  V30 9 C -0.5212 2.1489 1.7051 0
M  V30 10 C -1.5951 3.3521 0.2664 0
M  V30 11 C 3.0398 -0.9181 0.3515 0
M  V30 12 C 2.036 -1.5543 -1.7593 0
M  V30 13 O -2.4912 0.9227 -1.1064 0
M  V30 14 O -1.4611 -0.3773 0.505 0
M  V30 15 C -1.2829 3.4669 1.7525 0
M  V30 16 C 2.8797 -1.8636 -0.6781 0
M  V30 17 C -2.1837 -1.5706 0.2037 0
M  V30 18 N 3.5643 -3.1286 -0.6274 0 CHG=1
M  V30 19 C -1.6256 -2.2232 -1.0633 0
M  V30 20 C -2.0728 -2.5267 1.3893 0
M  V30 21 O 4.315 -3.4087 0.3301 0
M  V30 22 O 3.4007 -4.0529 -1.6339 0 CHG=-1
M  V30 23 H 2.505 1.0198 1.1026 0
M  V30 24 H 0.7047 -0.1208 -2.6397 0
M  V30 25 H -1.0123 1.3721 2.3317 0
M  V30 26 H 0.5536 2.2827 1.9519 0
M  V30 27 H -1.1364 4.1777 -0.3209 0
M  V30 28 H -2.6876 3.2467 0.0843 0
M  V30 29 H 3.6821 -1.1262 1.1975 0
M  V30 30 H 1.8881 -2.262 -2.5645 0
M  V30 31 H -2.1948 3.4113 2.3866 0
M  V30 32 H -0.6231 4.332 1.9833 0
M  V30 33 H -3.26 -1.3311 0.0519 0
M  V30 34 H -1.692 -1.5209 -1.9201 0
M  V30 35 H -2.2096 -3.1343 -1.3133 0
M  V30 36 H -0.5624 -2.5066 -0.9151 0
M  V30 37 H -1.009 -2.7845 1.5821 0
M  V30 38 H -2.4921 -2.0455 2.2984 0
M  V30 39 H -2.6437 -3.4585 1.1889 0
M  V30 END ATOM
M  V30 BEGIN BOND
M  V30 1 2 1 2
M  V30 2 2 1 3
M  V30 3 1 1 4
M  V30 4 1 1 5
M  V30 5 2 4 6
M  V30 6 1 4 7
M  V30 7 1 5 8
M  V30 8 1 5 9
M  V30 9 1 5 10
M  V30 10 1 6 11
M  V30 11 2 7 12
M  V30 12 2 8 13
M  V30 13 1 8 14
M  V30 14 1 9 15
M  V30 15 2 11 16
M  V30 16 1 14 17
M  V30 17 1 16 18
M  V30 18 1 17 19
M  V30 19 1 17 20
M  V30 20 2 18 21
M  V30 21 1 18 22
M  V30 22 1 10 15
M  V30 23 1 12 16
M  V30 24 1 6 23
M  V30 25 1 7 24
M  V30 26 1 9 25
M  V30 27 1 9 26
M  V30 28 1 10 27
M  V30 29 1 10 28
M  V30 30 1 11 29
M  V30 31 1 12 30
M  V30 32 1 15 31
M  V30 33 1 15 32
M  V30 34 1 17 33
M  V30 35 1 19 34
M  V30 36 1 19 35
M  V30 37 1 19 36
M  V30 38 1 20 37
M  V30 39 1 20 38
M  V30 40 1 20 39
M  V30 END BOND
M  V30 END CTAB
M  END
>  <Structure No>
5696

>  <LogS>
-3.7599

>  <MMFF94 Energy>
43.707

$$$$
Compound 5697
Actelion Java MolfileCreator 2.0

  0  0  0  0  0  0              0 V3000
M  V30 BEGIN CTAB
M  V30 COUNTS 45 46 0 0 0
M  V30 BEGIN ATOM
M  V30 1 S 0.2455 0.8185 1.8833 0
M  V30 2 O -0.5235 0.2848 3.0606 0
M  V30 3 O 1.0332 2.0096 2.3511 0
M  V30 4 C 1.3606 -0.4289 1.3258 0
M  V30 5 C -0.9125 1.2827 0.5671 0
M  V30 6 C 1.0191 -1.7811 1.4474 0
M  V30 7 C 2.5857 -0.0767 0.7458 0
M  V30 8 C -1.6837 0.0259 0.1966 0
M  V30 9 C -1.913 2.376 1.0867 0
M  V30 10 C -0.1298 1.7908 -0.6794 0
M  V30 11 C 1.8885 -2.7729 0.986 0
M  V30 12 C 3.4573 -1.0663 0.2829 0
M  V30 13 O -2.5261 -0.453 1.0063 0
M  V30 14 O -1.4368 -0.6226 -1.0217 0
M  V30 15 C -1.7536 3.7541 0.4237 0
M  V30 16 C 0.554 3.1571 -0.4789 0
M  V30 17 C 3.1177 -2.426 0.3959 0
M  V30 18 C -2.1184 -1.8028 -1.4463 0
M  V30 19 C -0.2831 4.159 0.3385 0
M  V30 20 N 4.0147 -3.4432 -0.0855 0 CHG=1
M  V30 21 C -1.9378 -1.9582 -2.9545 0
M  V30 22 C -1.5677 -3.0286 -0.7132 0
M  V30 23 O 3.7166 -4.652 0.0094 0
M  V30 24 O 5.2166 -3.1002 -0.661 0 CHG=-1
M  V30 25 H 0.0767 -2.0688 1.895 0
M  V30 26 H 2.8646 0.9639 0.6443 0
M  V30 27 H -1.8107 2.5079 2.1858 0
M  V30 28 H -2.9692 2.0673 0.9225 0
M  V30 29 H -0.8394 1.8917 -1.5315 0
M  V30 30 H 0.6337 1.0482 -0.9948 0
M  V30 31 H 1.5974 -3.8104 1.0875 0
M  V30 32 H 4.3955 -0.7669 -0.1655 0
M  V30 33 H -2.1938 3.7348 -0.5974 0
M  V30 34 H -2.3115 4.5132 1.0139 0
M  V30 35 H 0.7628 3.5902 -1.4816 0
M  V30 36 H 1.5395 3.0156 0.0126 0
M  V30 37 H -3.207 -1.7052 -1.2363 0
M  V30 38 H -0.2093 5.1671 -0.1241 0
M  V30 39 H 0.1275 4.2434 1.3676 0
M  V30 40 H -2.3463 -1.0657 -3.4742 0
M  V30 41 H -0.8603 -2.0554 -3.2086 0
M  V30 42 H -2.481 -2.8564 -3.3184 0
M  V30 43 H -2.077 -3.9497 -1.0679 0
M  V30 44 H -1.7461 -2.9354 0.3777 0
M  V30 45 H -0.4757 -3.1269 -0.8916 0
M  V30 END ATOM
M  V30 BEGIN BOND
M  V30 1 2 1 2
M  V30 2 2 1 3
M  V30 3 1 1 4
M  V30 4 1 1 5
M  V30 5 2 4 6
M  V30 6 1 4 7
M  V30 7 1 5 8
M  V30 8 1 5 9
M  V30 9 1 5 10
M  V30 10 1 6 11
M  V30 11 2 7 12
M  V30 12 2 8 13
M  V30 13 1 8 14
M  V30 14 1 9 15
M  V30 15 1 10 16
M  V30 16 2 11 17
M  V30 17 1 14 18
M  V30 18 1 15 19
M  V30 19 1 17 20
M  V30 20 1 18 21
M  V30 21 1 18 22
M  V30 22 2 20 23
M  V30 23 1 20 24
M  V30 24 1 12 17
M  V30 25 1 16 19
M  V30 26 1 6 25
M  V30 27 1 7 26
M  V30 28 1 9 27
M  V30 29 1 9 28
M  V30 30 1 10 29
M  V30 31 1 10 30
M  V30 32 1 11 31
M  V30 33 1 12 32
M  V30 34 1 15 33
M  V30 35 1 15 34
M  V30 36 1 16 35
M  V30 37 1 16 36
M  V30 38 1 18 37
M  V30 39 1 19 38
M  V30 40 1 19 39
M  V30 41 1 21 40
M  V30 42 1 21 41
M  V30 43 1 21 42
M  V30 44 1 22 43
M  V30 45 1 22 44
M  V30 46 1 22 45
M  V30 END BOND
M  V30 END CTAB
M  END
>  <Structure No>
5697

>  <LogS>
-4.8796

>  <MMFF94 Energy>
45.004

$$$$
Compound 5698
Actelion Java MolfileCreator 2.0

  0  0  0  0  0  0              0 V3000
M  V30 BEGIN CTAB
M  V30 COUNTS 48 49 0 0 0
M  V30 BEGIN ATOM
M  V30 1 S 1.1427 0.6528 1.061 0
M  V30 2 O 1.0942 0.6348 2.5643 0
M  V30 3 O 1.2187 2.0877 0.6157 0
M  V30 4 C 2.5923 -0.1943 0.5206 0
M  V30 5 C -0.3488 -0.1187 0.3914 0
M  V30 6 C 3.1173 -1.2481 1.279 0
M  V30 7 C 3.2161 0.1701 -0.6788 0
M  V30 8 C -1.5119 0.7094 0.8994 0
M  V30 9 C -0.2399 -0.0952 -1.1649 0
M  V30 10 C -0.3857 -1.5882 0.9135 0
M  V30 11 C 4.2561 -1.9315 0.8434 0
M  V30 12 C 4.355 -0.5113 -1.1166 0
M  V30 13 O -2.0596 0.4277 2.0016 0
M  V30 14 O -1.9029 1.8542 0.1945 0
M  V30 15 C -1.5366 -0.2664 -1.9883 0
M  V30 16 C -1.6635 -2.3909 0.624 0
M  V30 17 C 4.8881 -1.5708 -0.3593 0
M  V30 18 C -2.9175 2.7514 0.6425 0
M  V30 19 C -2.5797 -1.255 -1.4505 0
M  V30 20 C -1.9792 -2.5387 -0.8676 0
M  V30 21 N 6.0599 -2.2768 -0.8064 0 CHG=1
M  V30 22 C -2.3692 3.6533 1.7515 0
M  V30 23 C -3.3926 3.588 -0.5429 0
M  V30 24 O 6.6248 -1.9613 -1.8742 0
M  V30 25 O 6.5779 -3.3129 -0.0635 0 CHG=-1
M  V30 26 H 2.6413 -1.5468 2.2043 0
M  V30 27 H 2.8189 0.9786 -1.279 0
M  V30 28 H 0.4863 -0.8718 -1.4911 0
M  V30 29 H 0.2025 0.872 -1.4887 0
M  V30 30 H -0.2483 -1.5872 2.0171 0
M  V30 31 H 0.4769 -2.1533 0.4981 0
M  V30 32 H 4.64 -2.7433 1.4473 0
M  V30 33 H 4.8172 -0.2109 -2.0481 0
M  V30 34 H -2.0291 0.7222 -2.111 0
M  V30 35 H -1.2446 -0.589 -3.012 0
M  V30 36 H -2.5315 -1.9591 1.1658 0
M  V30 37 H -1.517 -3.4108 1.0424 0
M  V30 38 H -3.7872 2.175 1.0299 0
M  V30 39 H -3.2463 -1.5322 -2.2966 0
M  V30 40 H -3.2327 -0.7506 -0.7056 0
M  V30 41 H -1.0801 -2.8606 -1.437 0
M  V30 42 H -2.735 -3.3479 -0.9714 0
M  V30 43 H -2.0604 3.0424 2.6251 0
M  V30 44 H -1.4868 4.2214 1.3866 0
M  V30 45 H -3.1499 4.3691 2.0868 0
M  V30 46 H -4.2015 4.2811 -0.2273 0
M  V30 47 H -2.5505 4.1775 -0.9648 0
M  V30 48 H -3.791 2.9199 -1.3358 0
M  V30 END ATOM
M  V30 BEGIN BOND
M  V30 1 2 1 2
M  V30 2 2 1 3
M  V30 3 1 1 4
M  V30 4 1 1 5
M  V30 5 2 4 6
M  V30 6 1 4 7
M  V30 7 1 5 8
M  V30 8 1 5 9
M  V30 9 1 5 10
M  V30 10 1 6 11
M  V30 11 2 7 12
M  V30 12 2 8 13
M  V30 13 1 8 14
M  V30 14 1 9 15
M  V30 15 1 10 16
M  V30 16 2 11 17
M  V30 17 1 14 18
M  V30 18 1 15 19
M  V30 19 1 16 20
M  V30 20 1 17 21
M  V30 21 1 18 22
M  V30 22 1 18 23
M  V30 23 2 21 24
M  V30 24 1 21 25
M  V30 25 1 12 17
M  V30 26 1 19 20
M  V30 27 1 6 26
M  V30 28 1 7 27
M  V30 29 1 9 28
M  V30 30 1 9 29
M  V30 31 1 10 30
M  V30 32 1 10 31
M  V30 33 1 11 32
M  V30 34 1 12 33
M  V30 35 1 15 34
M  V30 36 1 15 35
M  V30 37 1 16 36
M  V30 38 1 16 37
M  V30 39 1 18 38
M  V30 40 1 19 39
M  V30 41 1 19 40
M  V30 42 1 20 41
M  V30 43 1 20 42
M  V30 44 1 22 43
M  V30 45 1 22 44
M  V30 46 1 22 45
M  V30 47 1 23 46
M  V30 48 1 23 47
M  V30 49 1 23 48
M  V30 END BOND
M  V30 END CTAB
M  END
>  <Structure No>
5698

>  <LogS>
-5.0706

>  <MMFF94 Energy>
55.217

$$$$
Compound 5699
Actelion Java MolfileCreator 2.0

  0  0  0  0  0  0              0 V3000
M  V30 BEGIN CTAB
M  V30 COUNTS 31 32 0 0 0
M  V30 BEGIN ATOM
M  V30 1 Cl 3.0931 2.0055 4.0141 0
M  V30 2 C 2.5202 1.2024 2.5639 0
M  V30 3 C 2.2293 -0.1658 2.5894 0
M  V30 4 C 2.3492 1.93 1.3814 0
M  V30 5 C 1.7685 -0.806 1.4348 0
M  V30 6 C 1.8905 1.2909 0.2258 0
M  V30 7 C 1.6008 -0.081 0.2465 0
M  V30 8 S 0.9809 -0.8747 -1.1987 0
M  V30 9 O 1.5708 -0.2239 -2.4188 0
M  V30 10 O 1.3832 -2.3238 -1.1901 0
M  V30 11 C -0.8094 -0.7247 -1.245 0
M  V30 12 C -1.2419 0.7179 -1.1963 0
M  V30 13 C -1.4517 -1.5376 -2.3758 0
M  V30 14 C -1.5151 -1.6168 -0.2164 0
M  V30 15 O -1.3469 1.3809 -2.2649 0
M  V30 16 O -1.4275 1.3401 0.0425 0
M  V30 17 C -2.1312 -2.4314 -1.3463 0
M  V30 18 C -1.7335 2.7228 0.1683 0
M  V30 19 H 2.3561 -0.7324 3.503 0
M  V30 20 H 2.5673 2.9901 1.3576 0
M  V30 21 H 1.5384 -1.8629 1.4704 0
M  V30 22 H 1.7508 1.8671 -0.6798 0
M  V30 23 H -2.1949 -0.9721 -2.9802 0
M  V30 24 H -0.723 -2.0985 -3.0008 0
M  V30 25 H -0.8261 -2.2249 0.4085 0
M  V30 26 H -2.294 -1.0957 0.3831 0
M  V30 27 H -3.2401 -2.3514 -1.3759 0
M  V30 28 H -1.7517 -3.4761 -1.3734 0
M  V30 29 H -2.6914 2.9489 -0.3462 0
M  V30 30 H -1.8328 2.9774 1.2434 0
M  V30 31 H -0.9164 3.3331 -0.2713 0
M  V30 END ATOM
M  V30 BEGIN BOND
M  V30 1 1 1 2
M  V30 2 2 2 3
M  V30 3 1 2 4
M  V30 4 1 3 5
M  V30 5 2 4 6
M  V30 6 2 5 7
M  V30 7 1 7 8
M  V30 8 2 8 9
M  V30 9 2 8 10
M  V30 10 1 8 11
M  V30 11 1 11 12
M  V30 12 1 11 13
M  V30 13 1 11 14
M  V30 14 2 12 15
M  V30 15 1 12 16
M  V30 16 1 13 17
M  V30 17 1 16 18
M  V30 18 1 6 7
M  V30 19 1 14 17
M  V30 20 1 3 19
M  V30 21 1 4 20
M  V30 22 1 5 21
M  V30 23 1 6 22
M  V30 24 1 13 23
M  V30 25 1 13 24
M  V30 26 1 14 25
M  V30 27 1 14 26
M  V30 28 1 17 27
M  V30 29 1 17 28
M  V30 30 1 18 29
M  V30 31 1 18 30
M  V30 32 1 18 31
M  V30 END BOND
M  V30 END CTAB
M  END
>  <Structure No>
5699

>  <LogS>
-2.9996

>  <MMFF94 Energy>
3.0607

$$$$
Compound 5700
Actelion Java MolfileCreator 2.0

  0  0  0  0  0  0              0 V3000
M  V30 BEGIN CTAB
M  V30 COUNTS 40 41 0 0 0
M  V30 BEGIN ATOM
M  V30 1 Cl 2.3911 4.2905 -2.8038 0
M  V30 2 C 2.3151 2.8633 -1.7869 0
M  V30 3 C 2.4912 1.5936 -2.3474 0
M  V30 4 C 2.0704 2.9929 -0.4157 0
M  V30 5 C 2.4225 0.455 -1.5386 0
M  V30 6 C 1.9986 1.8553 0.3936 0
M  V30 7 C 2.179 0.5808 -0.1637 0
M  V30 8 S 2.0351 -0.8584 0.8428 0
M  V30 9 O 3.0336 -1.8865 0.3872 0
M  V30 10 O 2.3383 -0.504 2.2726 0
M  V30 11 C 0.3624 -1.5101 0.7297 0
M  V30 12 C -0.612 -0.4034 1.0931 0
M  V30 13 C 0.07 -2.0649 -0.6706 0
M  V30 14 C 0.1817 -2.7434 1.6247 0
M  V30 15 O -0.9499 -0.2225 2.296 0
M  V30 16 O -1.0495 0.4849 0.1021 0
M  V30 17 C -1.0238 -3.1084 -0.4747 0
M  V30 18 C -0.9425 -3.5528 0.986 0
M  V30 19 C -1.948 1.5659 0.3462 0
M  V30 20 C -1.8801 2.5369 -0.8305 0
M  V30 21 C -3.3737 1.0364 0.5232 0
M  V30 22 H 2.676 1.4876 -3.4087 0
M  V30 23 H 1.9258 3.9726 0.0216 0
M  V30 24 H 2.5492 -0.5228 -1.9851 0
M  V30 25 H 1.7897 1.9686 1.4497 0
M  V30 26 H 0.9705 -2.5768 -1.0763 0
M  V30 27 H -0.2326 -1.2876 -1.4045 0
M  V30 28 H -0.0438 -2.4942 2.6841 0
M  V30 29 H 1.1076 -3.3608 1.6138 0
M  V30 30 H -2.018 -2.6516 -0.6762 0
M  V30 31 H -0.8759 -3.9682 -1.164 0
M  V30 32 H -1.9038 -3.3349 1.5019 0
M  V30 33 H -0.7332 -4.6422 1.0607 0
M  V30 34 H -1.6387 2.1127 1.2648 0
M  V30 35 H -2.5553 3.402 -0.6572 0
M  V30 36 H -2.1743 2.0266 -1.7727 0
M  V30 37 H -0.8435 2.918 -0.943 0
M  V30 38 H -4.0795 1.8786 0.6876 0
M  V30 39 H -3.6892 0.4674 -0.3773 0
M  V30 40 H -3.4262 0.3635 1.4043 0
M  V30 END ATOM
M  V30 BEGIN BOND
M  V30 1 1 1 2
M  V30 2 2 2 3
M  V30 3 1 2 4
M  V30 4 1 3 5
M  V30 5 2 4 6
M  V30 6 2 5 7
M  V30 7 1 7 8
M  V30 8 2 8 9
M  V30 9 2 8 10
M  V30 10 1 8 11
M  V30 11 1 11 12
M  V30 12 1 11 13
M  V30 13 1 11 14
M  V30 14 2 12 15
M  V30 15 1 12 16
M  V30 16 1 13 17
M  V30 17 1 14 18
M  V30 18 1 16 19
M  V30 19 1 19 20
M  V30 20 1 19 21
M  V30 21 1 6 7
M  V30 22 1 17 18
M  V30 23 1 3 22
M  V30 24 1 4 23
M  V30 25 1 5 24
M  V30 26 1 6 25
M  V30 27 1 13 26
M  V30 28 1 13 27
M  V30 29 1 14 28
M  V30 30 1 14 29
M  V30 31 1 17 30
M  V30 32 1 17 31
M  V30 33 1 18 32
M  V30 34 1 18 33
M  V30 35 1 19 34
M  V30 36 1 20 35
M  V30 37 1 20 36
M  V30 38 1 20 37
M  V30 39 1 21 38
M  V30 40 1 21 39
M  V30 41 1 21 40
M  V30 END BOND
M  V30 END CTAB
M  END
>  <Structure No>
5700

>  <LogS>
-4.6498

>  <MMFF94 Energy>
12.525

$$$$
Compound 5701
Actelion Java MolfileCreator 2.0

  0  0  0  0  0  0              0 V3000
M  V30 BEGIN CTAB
M  V30 COUNTS 37 38 0 0 0
M  V30 BEGIN ATOM
M  V30 1 S -0.1631 0.571 -1.1423 0
M  V30 2 O -0.6214 1.9723 -0.8478 0
M  V30 3 O -0.3504 0.3138 -2.6115 0
M  V30 4 C 1.5526 0.4322 -0.7483 0
M  V30 5 C -1.1784 -0.5871 -0.2083 0
M  V30 6 C 2.3738 -0.448 -1.4666 0
M  V30 7 C 2.106 1.2043 0.2827 0
M  V30 8 C -2.6369 -0.4365 -0.5567 0
M  V30 9 C -0.6678 -2.0327 -0.2652 0
M  V30 10 C -0.902 -0.561 1.2999 0
M  V30 11 C 3.7304 -0.5641 -1.1499 0
M  V30 12 C 3.4624 1.0889 0.6002 0
M  V30 13 O -3.1254 -1.0879 -1.5208 0
M  V30 14 O -3.4188 0.4929 0.1362 0
M  V30 15 C -0.3518 -1.9791 1.2237 0
M  V30 16 C 4.2862 0.2136 -0.1231 0
M  V30 17 C -4.7915 0.7184 -0.1648 0
M  V30 18 C 5.7322 0.0593 0.244 0
M  V30 19 C -5.3486 1.7812 0.7683 0
M  V30 20 H 1.9646 -1.0494 -2.2681 0
M  V30 21 H 1.4878 1.8915 0.8459 0
M  V30 22 H -1.4564 -2.7859 -0.4848 0
M  V30 23 H 0.2415 -2.1762 -0.8841 0
M  V30 24 H -0.1327 0.1733 1.6157 0
M  V30 25 H -1.8178 -0.5157 1.93 0
M  V30 26 H 4.3469 -1.2594 -1.7061 0
M  V30 27 H 3.87 1.6827 1.4091 0
M  V30 28 H -0.9511 -2.7044 1.8162 0
M  V30 29 H 0.741 -2.0205 1.4264 0
M  V30 30 H -4.8935 1.0631 -1.2166 0
M  V30 31 H -5.3649 -0.2245 -0.0316 0
M  V30 32 H 5.8349 -0.7361 1.0113 0
M  V30 33 H 6.3354 -0.2162 -0.6469 0
M  V30 34 H 6.1366 1.0103 0.6515 0
M  V30 35 H -4.7877 2.7311 0.6389 0
M  V30 36 H -6.4198 1.96 0.5366 0
M  V30 37 H -5.2584 1.445 1.8229 0
M  V30 END ATOM
M  V30 BEGIN BOND
M  V30 1 2 1 2
M  V30 2 2 1 3
M  V30 3 1 1 4
M  V30 4 1 1 5
M  V30 5 2 4 6
M  V30 6 1 4 7
M  V30 7 1 5 8
M  V30 8 1 5 9
M  V30 9 1 5 10
M  V30 10 1 6 11
M  V30 11 2 7 12
M  V30 12 2 8 13
M  V30 13 1 8 14
M  V30 14 1 9 15
M  V30 15 2 11 16
M  V30 16 1 14 17
M  V30 17 1 16 18
M  V30 18 1 17 19
M  V30 19 1 10 15
M  V30 20 1 12 16
M  V30 21 1 6 20
M  V30 22 1 7 21
M  V30 23 1 9 22
M  V30 24 1 9 23
M  V30 25 1 10 24
M  V30 26 1 10 25
M  V30 27 1 11 26
M  V30 28 1 12 27
M  V30 29 1 15 28
M  V30 30 1 15 29
M  V30 31 1 17 30
M  V30 32 1 17 31
M  V30 33 1 18 32
M  V30 34 1 18 33
M  V30 35 1 18 34
M  V30 36 1 19 35
M  V30 37 1 19 36
M  V30 38 1 19 37
M  V30 END BOND
M  V30 END CTAB
M  END
>  <Structure No>
5701

>  <LogS>
-2.9594

>  <MMFF94 Energy>
3.259

$$$$
Compound 5702
Actelion Java MolfileCreator 2.0

  0  0  0  0  0  0              0 V3000
M  V30 BEGIN CTAB
M  V30 COUNTS 31 32 0 0 0
M  V30 BEGIN ATOM
M  V30 1 S 0.6576 -1.3156 0.9866 0
M  V30 2 O 1.2214 -2.644 0.5633 0
M  V30 3 O 0.6748 -1.2478 2.4884 0
M  V30 4 C 1.6498 -0.0166 0.3299 0
M  V30 5 C -1.031 -1.1389 0.3974 0
M  V30 6 C 2.3337 -0.1919 -0.8817 0
M  V30 7 C 1.7286 1.2146 0.9973 0
M  V30 8 C -1.6035 0.2062 0.763 0
M  V30 9 C -1.1921 -1.4976 -1.0847 0
M  V30 10 C -1.9256 -2.327 0.7718 0
M  V30 11 C 3.0957 0.8521 -1.4154 0
M  V30 12 C 2.4895 2.2574 0.4604 0
M  V30 13 O -2.173 0.3669 1.8777 0
M  V30 14 O -1.4113 1.2932 -0.0956 0
M  V30 15 C -2.062 -2.6878 -0.7016 0
M  V30 16 C 3.1739 2.0761 -0.7446 0
M  V30 17 C -1.8334 2.6114 0.2295 0
M  V30 18 H 2.2741 -1.1318 -1.415 0
M  V30 19 H 1.1936 1.3706 1.9255 0
M  V30 20 H -0.2496 -1.8127 -1.5823 0
M  V30 21 H -1.7627 -0.7487 -1.6771 0
M  V30 22 H -1.4055 -3.1212 1.3507 0
M  V30 23 H -2.9051 -2.0403 1.2147 0
M  V30 24 H 3.6225 0.7136 -2.3505 0
M  V30 25 H 2.5458 3.2071 0.9768 0
M  V30 26 H -3.1064 -2.5906 -1.0709 0
M  V30 27 H -1.5833 -3.6609 -0.9472 0
M  V30 28 H 3.7619 2.8842 -1.1598 0
M  V30 29 H -1.3191 2.9575 1.1511 0
M  V30 30 H -1.5718 3.2937 -0.6049 0
M  V30 31 H -2.9333 2.6322 0.3816 0
M  V30 END ATOM
M  V30 BEGIN BOND
M  V30 1 2 1 2
M  V30 2 2 1 3
M  V30 3 1 1 4
M  V30 4 1 1 5
M  V30 5 2 4 6
M  V30 6 1 4 7
M  V30 7 1 5 8
M  V30 8 1 5 9
M  V30 9 1 5 10
M  V30 10 1 6 11
M  V30 11 2 7 12
M  V30 12 2 8 13
M  V30 13 1 8 14
M  V30 14 1 9 15
M  V30 15 2 11 16
M  V30 16 1 14 17
M  V30 17 1 10 15
M  V30 18 1 12 16
M  V30 19 1 6 18
M  V30 20 1 7 19
M  V30 21 1 9 20
M  V30 22 1 9 21
M  V30 23 1 10 22
M  V30 24 1 10 23
M  V30 25 1 11 24
M  V30 26 1 12 25
M  V30 27 1 15 26
M  V30 28 1 15 27
M  V30 29 1 16 28
M  V30 30 1 17 29
M  V30 31 1 17 30
M  V30 32 1 17 31
M  V30 END BOND
M  V30 END CTAB
M  END
>  <Structure No>
5702

>  <LogS>
-3.0005

>  <MMFF94 Energy>
3.3483

$$$$
Compound 5703
Actelion Java MolfileCreator 2.0

  0  0  0  0  0  0              0 V3000
M  V30 BEGIN CTAB
M  V30 COUNTS 34 35 0 0 0
M  V30 BEGIN ATOM
M  V30 1 S 0.2457 1.2293 0.5735 0
M  V30 2 O 0.136 1.5341 2.0422 0
M  V30 3 O 0.1951 2.5292 -0.1814 0
M  V30 4 C 1.8031 0.4574 0.2615 0
M  V30 5 C -1.1475 0.179 0.072 0
M  V30 6 C 2.437 0.6238 -0.9794 0
M  V30 7 C 2.4205 -0.3222 1.2517 0
M  V30 8 C -2.4677 0.8928 0.3166 0
M  V30 9 C -1.0169 -0.1957 -1.4193 0
M  V30 10 C -1.1092 -1.1635 0.8434 0
M  V30 11 C 3.6637 0.0025 -1.232 0
M  V30 12 C 3.6474 -0.9419 0.9961 0
M  V30 13 O -3.5533 0.2799 0.1132 0
M  V30 14 O -2.4925 2.2244 0.7476 0
M  V30 15 C -0.4793 -1.6149 -1.4548 0
M  V30 16 C -1.0087 -2.2718 -0.1964 0
M  V30 17 C 4.2678 -0.7815 -0.2457 0
M  V30 18 C -3.7027 2.9337 0.9829 0
M  V30 19 H 1.9818 1.2291 -1.7524 0
M  V30 20 H 1.955 -0.4516 2.2202 0
M  V30 21 H -0.3558 0.4936 -1.9855 0
M  V30 22 H -2.0071 -0.1908 -1.9284 0
M  V30 23 H -2.0082 -1.3241 1.4791 0
M  V30 24 H -0.2333 -1.2273 1.5205 0
M  V30 25 H 4.1462 0.1295 -2.1925 0
M  V30 26 H 4.1179 -1.5456 1.7613 0
M  V30 27 H 0.6317 -1.6014 -1.4304 0
M  V30 28 H -0.8162 -2.1554 -2.3659 0
M  V30 29 H -2.0207 -2.6891 -0.3955 0
M  V30 30 H -0.3368 -3.09 0.1428 0
M  V30 31 H 5.2173 -1.262 -0.4423 0
M  V30 32 H -3.462 3.9641 1.3161 0
M  V30 33 H -4.292 2.4271 1.7763 0
M  V30 34 H -4.2994 2.9878 0.0479 0
M  V30 END ATOM
M  V30 BEGIN BOND
M  V30 1 2 1 2
M  V30 2 2 1 3
M  V30 3 1 1 4
M  V30 4 1 1 5
M  V30 5 2 4 6
M  V30 6 1 4 7
M  V30 7 1 5 8
M  V30 8 1 5 9
M  V30 9 1 5 10
M  V30 10 1 6 11
M  V30 11 2 7 12
M  V30 12 2 8 13
M  V30 13 1 8 14
M  V30 14 1 9 15
M  V30 15 1 10 16
M  V30 16 2 11 17
M  V30 17 1 14 18
M  V30 18 1 12 17
M  V30 19 1 15 16
M  V30 20 1 6 19
M  V30 21 1 7 20
M  V30 22 1 9 21
M  V30 23 1 9 22
M  V30 24 1 10 23
M  V30 25 1 10 24
M  V30 26 1 11 25
M  V30 27 1 12 26
M  V30 28 1 15 27
M  V30 29 1 15 28
M  V30 30 1 16 29
M  V30 31 1 16 30
M  V30 32 1 17 31
M  V30 33 1 18 32
M  V30 34 1 18 33
M  V30 35 1 18 34
M  V30 END BOND
M  V30 END CTAB
M  END
>  <Structure No>
5703

>  <LogS>
-2.5501

>  <MMFF94 Energy>
10.032

$$$$
Compound 5704
Actelion Java MolfileCreator 2.0

  0  0  0  0  0  0              0 V3000
M  V30 BEGIN CTAB
M  V30 COUNTS 55 56 0 0 0
M  V30 BEGIN ATOM
M  V30 1 O -1.8221 -1.188 -3.1705 0
M  V30 2 C -1.5426 -0.9237 -1.9701 0
M  V30 3 N -0.4084 -1.5484 -1.3371 0
M  V30 4 C -2.4169 -0.0042 -1.2206 0
M  V30 5 N 0.6497 -0.7162 -0.9232 0
M  V30 6 C -0.3398 -3.0273 -1.1772 0
M  V30 7 C -1.909 1.1657 -0.6364 0
M  V30 8 C -3.7874 -0.286 -1.1217 0
M  V30 9 C 0.8197 -0.3558 0.4558 0
M  V30 10 C -0.5004 -3.7271 -2.5454 0
M  V30 11 C 1.0185 -3.471 -0.5854 0
M  V30 12 C -1.4656 -3.4924 -0.2335 0
M  V30 13 C -2.753 2.0246 0.0837 0
M  V30 14 C -4.6422 0.5729 -0.4164 0
M  V30 15 O 0.0595 -0.8502 1.3317 0
M  V30 16 C 1.8053 0.6765 0.8504 0
M  V30 17 C -4.1192 1.7255 0.1885 0
M  V30 18 C -2.22 3.2919 0.686 0
M  V30 19 C -6.1061 0.2571 -0.3298 0
M  V30 20 C 3.1449 0.6805 0.3769 0
M  V30 21 C 1.3771 1.698 1.7125 0
M  V30 22 C 3.9966 1.7608 0.7041 0
M  V30 23 C 3.6819 -0.4457 -0.4727 0
M  V30 24 C 2.2319 2.7411 2.0583 0
M  V30 25 O 5.2988 1.7861 0.1759 0
M  V30 26 C 3.5274 2.7842 1.5491 0
M  V30 27 C 6.2538 2.8149 0.4191 0
M  V30 28 H 1.1147 -0.1248 -1.6479 0
M  V30 29 H -0.8684 1.4307 -0.7672 0
M  V30 30 H -4.1901 -1.1769 -1.5898 0
M  V30 31 H 0.203 -3.2883 -3.2865 0
M  V30 32 H -1.5377 -3.6326 -2.9303 0
M  V30 33 H -0.2887 -4.8167 -2.463 0
M  V30 34 H 1.0693 -4.5783 -0.5004 0
M  V30 35 H 1.1727 -3.0599 0.4325 0
M  V30 36 H 1.852 -3.14 -1.2406 0
M  V30 37 H -2.4614 -3.218 -0.6416 0
M  V30 38 H -1.4389 -4.5963 -0.1053 0
M  V30 39 H -1.3572 -3.022 0.7659 0
M  V30 40 H -4.7746 2.3998 0.7289 0
M  V30 41 H -2.5923 3.4042 1.727 0
M  V30 42 H -2.5611 4.1593 0.0834 0
M  V30 43 H -1.1093 3.2917 0.7133 0
M  V30 44 H -6.5422 0.2356 -1.3501 0
M  V30 45 H -6.6532 1.0147 0.271 0
M  V30 46 H -6.2459 -0.7363 0.145 0
M  V30 47 H 0.3646 1.7029 2.0984 0
M  V30 48 H 3.1981 -1.4066 -0.2093 0
M  V30 49 H 4.7689 -0.591 -0.3057 0
M  V30 50 H 3.5147 -0.221 -1.5462 0
M  V30 51 H 1.8828 3.5299 2.7125 0
M  V30 52 H 4.1593 3.6186 1.8222 0
M  V30 53 H 6.4809 2.8771 1.5047 0
M  V30 54 H 5.8681 3.7899 0.0514 0
M  V30 55 H 7.1898 2.5759 -0.1262 0
M  V30 END ATOM
M  V30 BEGIN BOND
M  V30 1 2 1 2
M  V30 2 1 2 3
M  V30 3 1 2 4
M  V30 4 1 3 5
M  V30 5 1 3 6
M  V30 6 2 4 7
M  V30 7 1 4 8
M  V30 8 1 5 9
M  V30 9 1 6 10
M  V30 10 1 6 11
M  V30 11 1 6 12
M  V30 12 1 7 13
M  V30 13 2 8 14
M  V30 14 2 9 15
M  V30 15 1 9 16
M  V30 16 2 13 17
M  V30 17 1 13 18
M  V30 18 1 14 19
M  V30 19 2 16 20
M  V30 20 1 16 21
M  V30 21 1 20 22
M  V30 22 1 20 23
M  V30 23 2 21 24
M  V30 24 1 22 25
M  V30 25 2 22 26
M  V30 26 1 25 27
M  V30 27 1 14 17
M  V30 28 1 24 26
M  V30 29 1 5 28
M  V30 30 1 7 29
M  V30 31 1 8 30
M  V30 32 1 10 31
M  V30 33 1 10 32
M  V30 34 1 10 33
M  V30 35 1 11 34
M  V30 36 1 11 35
M  V30 37 1 11 36
M  V30 38 1 12 37
M  V30 39 1 12 38
M  V30 40 1 12 39
M  V30 41 1 17 40
M  V30 42 1 18 41
M  V30 43 1 18 42
M  V30 44 1 18 43
M  V30 45 1 19 44
M  V30 46 1 19 45
M  V30 47 1 19 46
M  V30 48 1 21 47
M  V30 49 1 23 48
M  V30 50 1 23 49
M  V30 51 1 23 50
M  V30 52 1 24 51
M  V30 53 1 26 52
M  V30 54 1 27 53
M  V30 55 1 27 54
M  V30 56 1 27 55
M  V30 END BOND
M  V30 END CTAB
M  END
>  <Structure No>
5704

>  <LogS>
-5.5664

>  <MMFF94 Energy>
116.62

$$$$
Compound 5705
Actelion Java MolfileCreator 2.0

  0  0  0  0  0  0              0 V3000
M  V30 BEGIN CTAB
M  V30 COUNTS 26 26 0 0 0
M  V30 BEGIN ATOM
M  V30 1 O 0.4735 -1.0262 1.0262 0
M  V30 2 C 0.75 0.1303 0.6035 0
M  V30 3 O 2.0783 0.4911 0.3504 0
M  V30 4 C -0.3116 1.1462 0.4397 0
M  V30 5 C 3.1684 -0.4249 0.428 0
M  V30 6 N 0.0299 2.5097 0.7479 0
M  V30 7 C -1.5863 0.8249 0.133 0
M  V30 8 C 3.1696 -1.3622 -0.7741 0
M  V30 9 C -0.4915 3.6504 0.0527 0
M  V30 10 C -2.0423 -0.4886 -0.3642 0
M  V30 11 O -1.2014 3.518 -0.9793 0
M  V30 12 C -1.3736 -1.3609 -1.2043 0
M  V30 13 C -3.3064 -1.0107 -0.1941 0
M  V30 14 O -2.162 -2.369 -1.4986 0
M  V30 15 C -3.3228 -2.1901 -0.9093 0
M  V30 16 H 4.1162 0.1533 0.4308 0
M  V30 17 H 3.1177 -1.0085 1.3729 0
M  V30 18 H 0.7878 2.6853 1.4452 0
M  V30 19 H -2.3525 1.583 0.2369 0
M  V30 20 H 4.0569 -2.0279 -0.7274 0
M  V30 21 H 2.2537 -1.9891 -0.7778 0
M  V30 22 H 3.2106 -0.7723 -1.7141 0
M  V30 23 H -0.245 4.6447 0.4005 0
M  V30 24 H -0.3682 -1.2454 -1.587 0
M  V30 25 H -4.1212 -0.5833 0.3755 0
M  V30 26 H -4.1594 -2.8711 -0.9894 0
M  V30 END ATOM
M  V30 BEGIN BOND
M  V30 1 2 1 2
M  V30 2 1 2 3
M  V30 3 1 2 4
M  V30 4 1 3 5
M  V30 5 1 4 6
M  V30 6 2 4 7
M  V30 7 1 5 8
M  V30 8 1 6 9
M  V30 9 1 7 10
M  V30 10 2 9 11
M  V30 11 2 10 12
M  V30 12 1 10 13
M  V30 13 1 12 14
M  V30 14 2 13 15
M  V30 15 1 14 15
M  V30 16 1 5 16
M  V30 17 1 5 17
M  V30 18 1 6 18
M  V30 19 1 7 19
M  V30 20 1 8 20
M  V30 21 1 8 21
M  V30 22 1 8 22
M  V30 23 1 9 23
M  V30 24 1 12 24
M  V30 25 1 13 25
M  V30 26 1 15 26
M  V30 END BOND
M  V30 END CTAB
M  END
>  <Structure No>
5705

>  <LogS>
-2.7477

>  <MMFF94 Energy>
10.721

$$$$
Compound 5706
Actelion Java MolfileCreator 2.0

  0  0  0  0  0  0              0 V3000
M  V30 BEGIN CTAB
M  V30 COUNTS 20 19 0 0 0
M  V30 BEGIN ATOM
M  V30 1 C 0.6888 0.0765 -0.5357 0
M  V30 2 C -0.8489 0.0894 -0.2731 0
M  V30 3 C 1.2772 1.4959 -0.5402 0
M  V30 4 C 1.4766 -0.8175 0.4369 0
M  V30 5 C -1.501 -1.2514 -0.6443 0
M  V30 6 C -1.2296 0.4804 1.1651 0
M  V30 7 H 0.8517 -0.3299 -1.559 0
M  V30 8 H -1.2991 0.8507 -0.9491 0
M  V30 9 H 0.7112 2.149 -1.2382 0
M  V30 10 H 1.2542 1.945 0.4745 0
M  V30 11 H 2.3339 1.4667 -0.8824 0
M  V30 12 H 1.4332 -0.4192 1.4724 0
M  V30 13 H 2.5432 -0.8594 0.1289 0
M  V30 14 H 1.0861 -1.8553 0.4278 0
M  V30 15 H -2.6074 -1.1608 -0.596 0
M  V30 16 H -1.2283 -1.5423 -1.6809 0
M  V30 17 H -1.1891 -2.0575 0.0518 0
M  V30 18 H -2.3339 0.5688 1.2509 0
M  V30 19 H -0.8886 -0.2856 1.8926 0
M  V30 20 H -0.7947 1.4631 1.4383 0
M  V30 END ATOM
M  V30 BEGIN BOND
M  V30 1 1 1 2
M  V30 2 1 1 3
M  V30 3 1 1 4
M  V30 4 1 2 5
M  V30 5 1 2 6
M  V30 6 1 1 7
M  V30 7 1 2 8
M  V30 8 1 3 9
M  V30 9 1 3 10
M  V30 10 1 3 11
M  V30 11 1 4 12
M  V30 12 1 4 13
M  V30 13 1 4 14
M  V30 14 1 5 15
M  V30 15 1 5 16
M  V30 16 1 5 17
M  V30 17 1 6 18
M  V30 18 1 6 19
M  V30 19 1 6 20
M  V30 END BOND
M  V30 END CTAB
M  END
>  <Structure No>
5706

>  <LogS>
-3.5832

>  <MMFF94 Energy>
6.4009

$$$$
Compound 5707
Actelion Java MolfileCreator 2.0

  0  0  0  0  0  0              0 V3000
M  V30 BEGIN CTAB
M  V30 COUNTS 20 19 0 0 0
M  V30 BEGIN ATOM
M  V30 1 C 0.0 0.0 -0.4588 0
M  V30 2 C -1.4632 -0.412 -0.1673 0
M  V30 3 C 0.8441 0.0311 0.8396 0
M  V30 4 C 0.6051 -0.9671 -1.4908 0
M  V30 5 C -2.256 0.6671 0.5731 0
M  V30 6 C 2.2554 0.5806 0.6244 0
M  V30 7 H -0.0046 1.0166 -0.9121 0
M  V30 8 H -1.4865 -1.3555 0.4208 0
M  V30 9 H -1.9907 -0.6043 -1.1274 0
M  V30 10 H 0.3541 0.6861 1.589 0
M  V30 11 H 0.9117 -0.9889 1.2771 0
M  V30 12 H 1.6025 -0.6144 -1.8246 0
M  V30 13 H -0.0374 -1.021 -2.3954 0
M  V30 14 H 0.7031 -1.9874 -1.0617 0
M  V30 15 H -2.1688 1.6437 0.0512 0
M  V30 16 H -1.9059 0.7723 1.62 0
M  V30 17 H -3.3284 0.3802 0.6025 0
M  V30 18 H 2.7455 0.7347 1.609 0
M  V30 19 H 2.8743 -0.1356 0.0458 0
M  V30 20 H 2.2177 1.5555 0.0934 0
M  V30 END ATOM
M  V30 BEGIN BOND
M  V30 1 1 1 2
M  V30 2 1 1 3
M  V30 3 1 1 4
M  V30 4 1 2 5
M  V30 5 1 3 6
M  V30 6 1 1 7
M  V30 7 1 2 8
M  V30 8 1 2 9
M  V30 9 1 3 10
M  V30 10 1 3 11
M  V30 11 1 4 12
M  V30 12 1 4 13
M  V30 13 1 4 14
M  V30 14 1 5 15
M  V30 15 1 5 16
M  V30 16 1 5 17
M  V30 17 1 6 18
M  V30 18 1 6 19
M  V30 19 1 6 20
M  V30 END BOND
M  V30 END CTAB
M  END
>  <Structure No>
5707

>  <LogS>
-3.6826

>  <MMFF94 Energy>
1.4229

$$$$
Compound 5708
Actelion Java MolfileCreator 2.0

  0  0  0  0  0  0              0 V3000
M  V30 BEGIN CTAB
M  V30 COUNTS 18 18 0 0 0
M  V30 BEGIN ATOM
M  V30 1 C 0.7817 -0.5471 0.3126 0
M  V30 2 C 0.0808 0.4079 1.2744 0
M  V30 3 C -0.3481 -1.1661 -0.5053 0
M  V30 4 C 1.7852 0.193 -0.5838 0
M  V30 5 C -1.181 0.8789 0.5607 0
M  V30 6 C -1.4526 -0.1171 -0.5653 0
M  V30 7 H 1.3254 -1.3356 0.8789 0
M  V30 8 H -0.2063 -0.1486 2.1941 0
M  V30 9 H 0.7241 1.2652 1.572 0
M  V30 10 H -0.0218 -1.4726 -1.5234 0
M  V30 11 H -0.7291 -2.0669 0.0252 0
M  V30 12 H 2.2638 -0.5205 -1.2878 0
M  V30 13 H 1.2819 0.9923 -1.1695 0
M  V30 14 H 2.5833 0.6518 0.0376 0
M  V30 15 H -2.0375 0.922 1.2686 0
M  V30 16 H -1.0172 1.8939 0.1363 0
M  V30 17 H -2.4503 -0.5925 -0.4438 0
M  V30 18 H -1.423 0.4051 -1.547 0
M  V30 END ATOM
M  V30 BEGIN BOND
M  V30 1 1 1 2
M  V30 2 1 1 3
M  V30 3 1 1 4
M  V30 4 1 2 5
M  V30 5 1 3 6
M  V30 6 1 5 6
M  V30 7 1 1 7
M  V30 8 1 2 8
M  V30 9 1 2 9
M  V30 10 1 3 10
M  V30 11 1 3 11
M  V30 12 1 4 12
M  V30 13 1 4 13
M  V30 14 1 4 14
M  V30 15 1 5 15
M  V30 16 1 5 16
M  V30 17 1 6 17
M  V30 18 1 6 18
M  V30 END BOND
M  V30 END CTAB
M  END
>  <Structure No>
5708

>  <LogS>
-3.3019

>  <MMFF94 Energy>
5.6213

$$$$
Compound 5709
Actelion Java MolfileCreator 2.0

  0  0  0  0  0  0              0 V3000
M  V30 BEGIN CTAB
M  V30 COUNTS 26 25 0 0 0
M  V30 BEGIN ATOM
M  V30 1 C -0.1537 -0.2305 1.0764 0
M  V30 2 C 0.9317 0.8591 1.1334 0
M  V30 3 C -1.4042 0.2117 0.3024 0
M  V30 4 C 1.4868 1.3014 -0.2358 0
M  V30 5 C -2.5167 -0.8374 0.4121 0
M  V30 6 C 2.0798 0.1693 -1.0927 0
M  V30 7 C -3.7568 -0.41 -0.3678 0
M  V30 8 C 3.2683 -0.522 -0.426 0
M  V30 9 H 0.2584 -1.1627 0.6357 0
M  V30 10 H -0.4453 -0.4687 2.1229 0
M  V30 11 H 1.7676 0.4979 1.7695 0
M  V30 12 H 0.513 1.753 1.6454 0
M  V30 13 H -1.1486 0.3509 -0.7698 0
M  V30 14 H -1.7699 1.1795 0.7112 0
M  V30 15 H 0.6844 1.8066 -0.8143 0
M  V30 16 H 2.2745 2.0667 -0.062 0
M  V30 17 H -2.7955 -0.9794 1.4792 0
M  V30 18 H -2.1559 -1.8092 0.0099 0
M  V30 19 H 1.3009 -0.5802 -1.3452 0
M  V30 20 H 2.4278 0.6093 -2.0523 0
M  V30 21 H -4.1518 0.5488 0.0304 0
M  V30 22 H -4.5441 -1.1869 -0.2688 0
M  V30 23 H -3.5123 -0.2874 -1.4445 0
M  V30 24 H 3.7354 -1.2277 -1.1449 0
M  V30 25 H 2.9372 -1.102 0.4604 0
M  V30 26 H 4.0299 0.2254 -0.1176 0
M  V30 END ATOM
M  V30 BEGIN BOND
M  V30 1 1 1 2
M  V30 2 1 1 3
M  V30 3 1 2 4
M  V30 4 1 3 5
M  V30 5 1 4 6
M  V30 6 1 5 7
M  V30 7 1 6 8
M  V30 8 1 1 9
M  V30 9 1 1 10
M  V30 10 1 2 11
M  V30 11 1 2 12
M  V30 12 1 3 13
M  V30 13 1 3 14
M  V30 14 1 4 15
M  V30 15 1 4 16
M  V30 16 1 5 17
M  V30 17 1 5 18
M  V30 18 1 6 19
M  V30 19 1 6 20
M  V30 20 1 7 21
M  V30 21 1 7 22
M  V30 22 1 7 23
M  V30 23 1 8 24
M  V30 24 1 8 25
M  V30 25 1 8 26
M  V30 END BOND
M  V30 END CTAB
M  END
>  <Structure No>
5709

>  <LogS>
-5.2382

>  <MMFF94 Energy>
-5.8859

$$$$
Compound 5710
Actelion Java MolfileCreator 2.0

  0  0  0  0  0  0              0 V3000
M  V30 BEGIN CTAB
M  V30 COUNTS 23 22 0 0 0
M  V30 BEGIN ATOM
M  V30 1 C 0.1533 0.5366 -0.3832 0
M  V30 2 C 1.0324 -0.3481 0.5171 0
M  V30 3 C -1.2365 -0.0711 -0.6315 0
M  V30 4 C 2.4233 0.2583 0.7601 0
M  V30 5 C -2.1507 0.0169 0.5995 0
M  V30 6 C 3.3263 0.1837 -0.4708 0
M  V30 7 C -3.5589 -0.4727 0.2737 0
M  V30 8 H 0.0474 1.5494 0.0637 0
M  V30 9 H 0.6468 0.6544 -1.3707 0
M  V30 10 H 0.5423 -0.4639 1.5065 0
M  V30 11 H 1.1364 -1.3615 0.0713 0
M  V30 12 H -1.1334 -1.131 -0.9526 0
M  V30 13 H -1.7102 0.4886 -1.4678 0
M  V30 14 H 2.3283 1.3157 1.0901 0
M  V30 15 H 2.913 -0.3064 1.5828 0
M  V30 16 H -2.2107 1.0701 0.9506 0
M  V30 17 H -1.7461 -0.6076 1.423 0
M  V30 18 H 3.3881 -0.8598 -0.8456 0
M  V30 19 H 4.3484 0.5212 -0.1984 0
M  V30 20 H 2.9497 0.8455 -1.2775 0
M  V30 21 H -4.0122 0.1555 -0.5224 0
M  V30 22 H -4.1948 -0.4072 1.1817 0
M  V30 23 H -3.5305 -1.5303 -0.0646 0
M  V30 END ATOM
M  V30 BEGIN BOND
M  V30 1 1 1 2
M  V30 2 1 1 3
M  V30 3 1 2 4
M  V30 4 1 3 5
M  V30 5 1 4 6
M  V30 6 1 5 7
M  V30 7 1 1 8
M  V30 8 1 1 9
M  V30 9 1 2 10
M  V30 10 1 2 11
M  V30 11 1 3 12
M  V30 12 1 3 13
M  V30 13 1 4 14
M  V30 14 1 4 15
M  V30 15 1 5 16
M  V30 16 1 5 17
M  V30 17 1 6 18
M  V30 18 1 6 19
M  V30 19 1 6 20
M  V30 20 1 7 21
M  V30 21 1 7 22
M  V30 22 1 7 23
M  V30 END BOND
M  V30 END CTAB
M  END
>  <Structure No>
5710

>  <LogS>
-4.4694

>  <MMFF94 Energy>
-5.6797

$$$$
Compound 5711
Actelion Java MolfileCreator 2.0

  0  0  0  0  0  0              0 V3000
M  V30 BEGIN CTAB
M  V30 COUNTS 24 24 0 0 0
M  V30 BEGIN ATOM
M  V30 1 C -0.1568 -1.7263 0.0784 0
M  V30 2 C -1.4011 -0.9358 -0.3892 0
M  V30 3 C 1.1451 -1.3162 -0.6336 0
M  V30 4 C -1.7309 0.2838 0.4906 0
M  V30 5 C 1.996 -0.2731 0.1179 0
M  V30 6 C -1.1603 1.6237 -0.0155 0
M  V30 7 C 1.2515 0.9689 0.6381 0
M  V30 8 C 0.3275 1.6278 -0.4072 0
M  V30 9 H -0.0348 -1.6913 1.1826 0
M  V30 10 H -0.3393 -2.7954 -0.1698 0
M  V30 11 H -2.2696 -1.6281 -0.3221 0
M  V30 12 H -1.33 -0.6467 -1.4599 0
M  V30 13 H 0.9443 -0.9863 -1.6743 0
M  V30 14 H 1.7771 -2.2255 -0.7388 0
M  V30 15 H -1.4403 0.1047 1.547 0
M  V30 16 H -2.8373 0.3986 0.5141 0
M  V30 17 H 2.8095 0.0605 -0.5627 0
M  V30 18 H 2.4854 -0.7699 0.9842 0
M  V30 19 H -1.7506 1.9514 -0.8991 0
M  V30 20 H -1.3198 2.3862 0.778 0
M  V30 21 H 2.0199 1.7114 0.9466 0
M  V30 22 H 0.7124 0.7143 1.5724 0
M  V30 23 H 0.4473 1.1799 -1.4138 0
M  V30 24 H 0.6354 2.6895 -0.53 0
M  V30 END ATOM
M  V30 BEGIN BOND
M  V30 1 1 1 2
M  V30 2 1 1 3
M  V30 3 1 2 4
M  V30 4 1 3 5
M  V30 5 1 4 6
M  V30 6 1 5 7
M  V30 7 1 6 8
M  V30 8 1 7 8
M  V30 9 1 1 9
M  V30 10 1 1 10
M  V30 11 1 2 11
M  V30 12 1 2 12
M  V30 13 1 3 13
M  V30 14 1 3 14
M  V30 15 1 4 15
M  V30 16 1 4 16
M  V30 17 1 5 17
M  V30 18 1 5 18
M  V30 19 1 6 19
M  V30 20 1 6 20
M  V30 21 1 7 21
M  V30 22 1 7 22
M  V30 23 1 8 23
M  V30 24 1 8 24
M  V30 END BOND
M  V30 END CTAB
M  END
>  <Structure No>
5711

>  <LogS>
-4.1524

>  <MMFF94 Energy>
12.14

$$$$
Compound 5712
Actelion Java MolfileCreator 2.0

  0  0  0  0  0  0              0 V3000
M  V30 BEGIN CTAB
M  V30 COUNTS 17 16 0 0 0
M  V30 BEGIN ATOM
M  V30 1 C 0.0 0.0 0.0 0
M  V30 2 C -1.1544 -0.0897 -1.0155 0
M  V30 3 C -0.1597 -1.1077 1.058 0
M  V30 4 C 1.3429 -0.1791 -0.7322 0
M  V30 5 C -0.0289 1.3767 0.6898 0
M  V30 6 H -1.058 0.7024 -1.7891 0
M  V30 7 H -1.1516 -1.0772 -1.5253 0
M  V30 8 H -2.1345 0.0373 -0.5066 0
M  V30 9 H 0.6647 -1.0606 1.802 0
M  V30 10 H -1.1243 -0.9964 1.599 0
M  V30 11 H -0.1414 -2.1111 0.5803 0
M  V30 12 H 1.3846 -1.1682 -1.2376 0
M  V30 13 H 2.1907 -0.1175 -0.016 0
M  V30 14 H 1.4781 0.6116 -1.5015 0
M  V30 15 H 0.7975 1.4625 1.428 0
M  V30 16 H -0.9915 1.5265 1.2251 0
M  V30 17 H 0.0849 2.1917 -0.0573 0
M  V30 END ATOM
M  V30 BEGIN BOND
M  V30 1 1 1 2
M  V30 2 1 1 3
M  V30 3 1 1 4
M  V30 4 1 1 5
M  V30 5 1 2 6
M  V30 6 1 2 7
M  V30 7 1 2 8
M  V30 8 1 3 9
M  V30 9 1 3 10
M  V30 10 1 3 11
M  V30 11 1 4 12
M  V30 12 1 4 13
M  V30 13 1 4 14
M  V30 14 1 5 15
M  V30 15 1 5 16
M  V30 16 1 5 17
M  V30 END BOND
M  V30 END CTAB
M  END
>  <Structure No>
5712

>  <LogS>
-3.3371

>  <MMFF94 Energy>
8.5018

$$$$
Compound 5713
Actelion Java MolfileCreator 2.0

  0  0  0  0  0  0              0 V3000
M  V30 BEGIN CTAB
M  V30 COUNTS 32 36 0 0 0
M  V30 BEGIN ATOM
M  V30 1 C 0.3245 0.2433 0.0811 0
M  V30 2 C 1.7228 0.0223 0.0365 0
M  V30 3 C -0.5803 -0.7977 -0.2678 0
M  V30 4 C -0.1584 1.5107 0.4765 0
M  V30 5 C 2.2281 -1.2346 -0.3551 0
M  V30 6 C 2.6194 1.0604 0.3843 0
M  V30 7 C -1.986 -0.5447 -0.213 0
M  V30 8 C -0.0379 -2.047 -0.6562 0
M  V30 9 C -1.5325 1.7475 0.5266 0
M  V30 10 C 0.7422 2.5315 0.8189 0
M  V30 11 C 1.3414 -2.2573 -0.6977 0
M  V30 12 C 3.6146 -1.4468 -0.397 0
M  V30 13 C 2.1187 2.3085 0.7733 0
M  V30 14 C 4.0026 0.8303 0.3366 0
M  V30 15 C -2.4442 0.742 0.1889 0
M  V30 16 C -2.9605 -1.5205 -0.5424 0
M  V30 17 C 4.4943 -0.4177 -0.0524 0
M  V30 18 C -3.8204 1.0179 0.2515 0
M  V30 19 C -4.324 -1.2257 -0.4737 0
M  V30 20 C -4.7527 0.0377 -0.0784 0
M  V30 21 H -0.6524 -2.886 -0.9353 0
M  V30 22 H -1.8965 2.7236 0.8314 0
M  V30 23 H 0.3803 3.5068 1.1234 0
M  V30 24 H 1.7158 -3.2282 -1.0006 0
M  V30 25 H 4.0175 -2.4071 -0.6959 0
M  V30 26 H 2.7923 3.1135 1.0426 0
M  V30 27 H 4.7023 1.6146 0.5998 0
M  V30 28 H -2.7052 -2.5184 -0.856 0
M  V30 29 H 5.5626 -0.5885 -0.087 0
M  V30 30 H -4.1763 1.9952 0.5567 0
M  V30 31 H -5.0533 -1.984 -0.729 0
M  V30 32 H -5.8112 0.2583 -0.0276 0
M  V30 END ATOM
M  V30 BEGIN BOND
M  V30 1 2 1 2
M  V30 2 1 1 3
M  V30 3 1 1 4
M  V30 4 1 2 5
M  V30 5 1 2 6
M  V30 6 2 3 7
M  V30 7 1 3 8
M  V30 8 1 4 9
M  V30 9 2 4 10
M  V30 10 1 5 11
M  V30 11 2 5 12
M  V30 12 2 6 13
M  V30 13 1 6 14
M  V30 14 1 7 15
M  V30 15 1 7 16
M  V30 16 1 12 17
M  V30 17 1 15 18
M  V30 18 2 16 19
M  V30 19 2 18 20
M  V30 20 2 8 11
M  V30 21 2 9 15
M  V30 22 1 10 13
M  V30 23 2 14 17
M  V30 24 1 19 20
M  V30 25 1 8 21
M  V30 26 1 9 22
M  V30 27 1 10 23
M  V30 28 1 11 24
M  V30 29 1 12 25
M  V30 30 1 13 26
M  V30 31 1 14 27
M  V30 32 1 16 28
M  V30 33 1 17 29
M  V30 34 1 18 30
M  V30 35 1 19 31
M  V30 36 1 20 32
M  V30 END BOND
M  V30 END CTAB
M  END
>  <Structure No>
5713

>  <LogS>
-8.1924

>  <MMFF94 Energy>
79.513

$$$$
Compound 5714
Actelion Java MolfileCreator 2.0

  0  0  0  0  0  0              0 V3000
M  V30 BEGIN CTAB
M  V30 COUNTS 36 40 0 0 0
M  V30 BEGIN ATOM
M  V30 1 C 1.455 -0.1615 0.1615 0
M  V30 2 C 2.8643 -0.3932 0.2599 0
M  V30 3 C 0.5571 -1.2055 0.504 0
M  V30 4 C 0.9048 1.0669 -0.2634 0
M  V30 5 C 3.3264 -1.6667 0.6992 0
M  V30 6 C 3.8373 0.5877 -0.0599 0
M  V30 7 C -0.8312 -1.0138 0.4196 0
M  V30 8 C 1.048 -2.4459 0.9323 0
M  V30 9 C -0.4835 1.2587 -0.3478 0
M  V30 10 C 2.4143 -2.6732 1.0286 0
M  V30 11 C 4.7024 -1.9262 0.8065 0
M  V30 12 C 5.2016 0.3095 0.0536 0
M  V30 13 C -1.3813 0.2147 -0.0054 0
M  V30 14 C -0.9745 2.4991 -0.776 0
M  V30 15 C 5.6327 -0.9413 0.4848 0
M  V30 16 C -2.7907 0.4464 -0.1036 0
M  V30 17 C -2.341 2.7265 -0.8723 0
M  V30 18 C -3.253 1.72 -0.5428 0
M  V30 19 C -3.7638 -0.5344 0.2162 0
M  V30 20 C -4.6291 1.9796 -0.65 0
M  V30 21 C -5.1282 -0.2561 0.1028 0
M  V30 22 C -5.5594 0.9948 -0.3282 0
M  V30 23 H 1.5328 1.8986 -0.5373 0
M  V30 24 H 3.582 1.5769 -0.3995 0
M  V30 25 H -1.4592 -1.8454 0.6936 0
M  V30 26 H 0.3691 -3.2487 1.1959 0
M  V30 27 H 2.7602 -3.6444 1.3636 0
M  V30 28 H 5.059 -2.8937 1.1403 0
M  V30 29 H 5.9295 1.0713 -0.1951 0
M  V30 30 H -0.2957 3.302 -1.0395 0
M  V30 31 H 6.6917 -1.1486 0.5699 0
M  V30 32 H -2.6869 3.6978 -1.2071 0
M  V30 33 H -3.5086 -1.5235 0.5561 0
M  V30 34 H -4.9857 2.9472 -0.9838 0
M  V30 35 H -5.8563 -1.0178 0.3517 0
M  V30 36 H -6.6185 1.2022 -0.4132 0
M  V30 END ATOM
M  V30 BEGIN BOND
M  V30 1 2 1 2
M  V30 2 1 1 3
M  V30 3 1 1 4
M  V30 4 1 2 5
M  V30 5 1 2 6
M  V30 6 1 3 7
M  V30 7 2 3 8
M  V30 8 2 4 9
M  V30 9 2 5 10
M  V30 10 1 5 11
M  V30 11 2 6 12
M  V30 12 2 7 13
M  V30 13 1 9 14
M  V30 14 2 11 15
M  V30 15 1 13 16
M  V30 16 2 14 17
M  V30 17 1 16 18
M  V30 18 2 16 19
M  V30 19 2 18 20
M  V30 20 1 19 21
M  V30 21 1 20 22
M  V30 22 1 8 10
M  V30 23 1 9 13
M  V30 24 1 12 15
M  V30 25 1 17 18
M  V30 26 2 21 22
M  V30 27 1 4 23
M  V30 28 1 6 24
M  V30 29 1 7 25
M  V30 30 1 8 26
M  V30 31 1 10 27
M  V30 32 1 11 28
M  V30 33 1 12 29
M  V30 34 1 14 30
M  V30 35 1 15 31
M  V30 36 1 17 32
M  V30 37 1 19 33
M  V30 38 1 20 34
M  V30 39 1 21 35
M  V30 40 1 22 36
M  V30 END BOND
M  V30 END CTAB
M  END
>  <Structure No>
5714

>  <LogS>
-8.6679

>  <MMFF94 Energy>
85.792

$$$$
Compound 5715
Actelion Java MolfileCreator 2.0

  0  0  0  0  0  0              0 V3000
M  V30 BEGIN CTAB
M  V30 COUNTS 37 41 0 0 0
M  V30 BEGIN ATOM
M  V30 1 C 1.294 0.3233 0.0 0
M  V30 2 C 2.72 0.423 -0.0128 0
M  V30 3 C 0.6915 -0.9675 -0.1774 0
M  V30 4 C 0.4384 1.4566 0.1824 0
M  V30 5 C 3.4961 -0.7569 -0.2005 0
M  V30 6 C 3.4105 1.6496 0.1535 0
M  V30 7 C -0.7095 -1.0743 -0.166 0
M  V30 8 C 1.4875 -2.1029 -0.3589 0
M  V30 9 C -0.9576 1.3032 0.1868 0
M  V30 10 C 2.8722 -1.9977 -0.3701 0
M  V30 11 C 4.8988 -0.6883 -0.2174 0
M  V30 12 C 4.8064 1.6958 0.1333 0
M  V30 13 C -1.476 0.0305 0.0104 0
M  V30 14 C -1.5884 -2.2813 -0.3258 0
M  V30 15 C -1.866 2.3632 0.3595 0
M  V30 16 C 5.5477 0.5326 -0.0512 0
M  V30 17 C -2.8095 -0.2439 -0.0039 0
M  V30 18 C -3.0288 -1.7099 -0.2145 0
M  V30 19 C -3.2557 2.1056 0.3485 0
M  V30 20 C -3.745 0.7891 0.1652 0
M  V30 21 C -5.2172 0.5024 0.1514 0
M  V30 22 H 0.8215 2.4541 0.321 0
M  V30 23 H 2.9052 2.589 0.3007 0
M  V30 24 H 1.04 -3.08 -0.4933 0
M  V30 25 H 3.4616 -2.8961 -0.513 0
M  V30 26 H 5.4951 -1.5821 -0.3598 0
M  V30 27 H 5.3165 2.6421 0.2621 0
M  V30 28 H -1.3896 -3.0132 0.4862 0
M  V30 29 H -1.4243 -2.7488 -1.3204 0
M  V30 30 H -1.5099 3.3762 0.5009 0
M  V30 31 H 6.6291 0.5771 -0.0654 0
M  V30 32 H -3.5645 -2.1485 0.6546 0
M  V30 33 H -3.5992 -1.8839 -1.152 0
M  V30 34 H -3.9443 2.9304 0.4825 0
M  V30 35 H -5.8114 1.4291 0.2988 0
M  V30 36 H -5.501 0.0533 -0.8233 0
M  V30 37 H -5.4666 -0.209 0.9665 0
M  V30 END ATOM
M  V30 BEGIN BOND
M  V30 1 2 1 2
M  V30 2 1 1 3
M  V30 3 1 1 4
M  V30 4 1 2 5
M  V30 5 1 2 6
M  V30 6 1 3 7
M  V30 7 2 3 8
M  V30 8 2 4 9
M  V30 9 2 5 10
M  V30 10 1 5 11
M  V30 11 2 6 12
M  V30 12 2 7 13
M  V30 13 1 7 14
M  V30 14 1 9 15
M  V30 15 2 11 16
M  V30 16 1 13 17
M  V30 17 1 14 18
M  V30 18 2 15 19
M  V30 19 2 17 20
M  V30 20 1 20 21
M  V30 21 1 8 10
M  V30 22 1 9 13
M  V30 23 1 12 16
M  V30 24 1 17 18
M  V30 25 1 19 20
M  V30 26 1 4 22
M  V30 27 1 6 23
M  V30 28 1 8 24
M  V30 29 1 10 25
M  V30 30 1 11 26
M  V30 31 1 12 27
M  V30 32 1 14 28
M  V30 33 1 14 29
M  V30 34 1 15 30
M  V30 35 1 16 31
M  V30 36 1 18 32
M  V30 37 1 18 33
M  V30 38 1 19 34
M  V30 39 1 21 35
M  V30 40 1 21 36
M  V30 41 1 21 37
M  V30 END BOND
M  V30 END CTAB
M  END
>  <Structure No>
5715

>  <LogS>
-7.9663

>  <MMFF94 Energy>
81.678

$$$$
Compound 5716
Actelion Java MolfileCreator 2.0

  0  0  0  0  0  0              0 V3000
M  V30 BEGIN CTAB
M  V30 COUNTS 30 33 0 0 0
M  V30 BEGIN ATOM
M  V30 1 C -0.3219 0.0804 0.0 0
M  V30 2 C -1.6893 0.4701 -0.1613 0
M  V30 3 C 0.0252 -1.293 -0.1387 0
M  V30 4 C 0.713 1.0021 0.2936 0
M  V30 5 C -2.6628 -0.5271 -0.4559 0
M  V30 6 C -2.1329 1.8115 -0.0422 0
M  V30 7 C 1.3558 -1.7122 0.0125 0
M  V30 8 C -0.9584 -2.2452 -0.4284 0
M  V30 9 C 2.0415 0.5771 0.4438 0
M  V30 10 C -2.2854 -1.8671 -0.585 0
M  V30 11 C -4.0128 -0.1763 -0.6198 0
M  V30 12 C -3.4806 2.1394 -0.2091 0
M  V30 13 C 2.3644 -0.7894 0.3023 0
M  V30 14 C 3.0586 1.5023 0.7352 0
M  V30 15 C -4.4167 1.1506 -0.4966 0
M  V30 16 C 3.6957 -1.2105 0.4534 0
M  V30 17 C 4.38 1.0719 0.8835 0
M  V30 18 C 4.6976 -0.2805 0.743 0
M  V30 19 H 0.5191 2.0555 0.4115 0
M  V30 20 H -1.4691 2.6299 0.1781 0
M  V30 21 H 1.6072 -2.7622 -0.0956 0
M  V30 22 H -0.6992 -3.2922 -0.5351 0
M  V30 23 H -3.0227 -2.6293 -0.8091 0
M  V30 24 H -4.7576 -0.9311 -0.844 0
M  V30 25 H -3.8005 3.1694 -0.1144 0
M  V30 26 H 2.8328 2.556 0.8481 0
M  V30 27 H -5.459 1.4132 -0.6243 0
M  V30 28 H 3.9604 -2.2558 0.3479 0
M  V30 29 H 5.1593 1.7888 1.108 0
M  V30 30 H 5.7222 -0.6092 0.8588 0
M  V30 END ATOM
M  V30 BEGIN BOND
M  V30 1 2 1 2
M  V30 2 1 1 3
M  V30 3 1 1 4
M  V30 4 1 2 5
M  V30 5 1 2 6
M  V30 6 1 3 7
M  V30 7 2 3 8
M  V30 8 2 4 9
M  V30 9 2 5 10
M  V30 10 1 5 11
M  V30 11 2 6 12
M  V30 12 2 7 13
M  V30 13 1 9 14
M  V30 14 2 11 15
M  V30 15 1 13 16
M  V30 16 2 14 17
M  V30 17 2 16 18
M  V30 18 1 8 10
M  V30 19 1 9 13
M  V30 20 1 12 15
M  V30 21 1 17 18
M  V30 22 1 4 19
M  V30 23 1 6 20
M  V30 24 1 7 21
M  V30 25 1 8 22
M  V30 26 1 10 23
M  V30 27 1 11 24
M  V30 28 1 12 25
M  V30 29 1 14 26
M  V30 30 1 15 27
M  V30 31 1 16 28
M  V30 32 1 17 29
M  V30 33 1 18 30
M  V30 END BOND
M  V30 END CTAB
M  END
>  <Structure No>
5716

>  <LogS>
-7.3854

>  <MMFF94 Energy>
64.56

$$$$
Compound 5717
Actelion Java MolfileCreator 2.0

  0  0  0  0  0  0              0 V3000
M  V30 BEGIN CTAB
M  V30 COUNTS 24 26 0 0 0
M  V30 BEGIN ATOM
M  V30 1 C 0.7204 -0.3201 0.0 0
M  V30 2 C -0.6965 -0.4446 -0.1408 0
M  V30 3 C 1.2756 0.9556 0.3041 0
M  V30 4 C 1.6112 -1.412 -0.1488 0
M  V30 5 C -1.5124 0.7107 0.0269 0
M  V30 6 C -1.3389 -1.6711 -0.442 0
M  V30 7 C 0.4441 2.0694 0.4622 0
M  V30 8 C 2.664 1.1092 0.4485 0
M  V30 9 C 2.9893 -1.2382 -0.0011 0
M  V30 10 C -0.933 1.9485 0.3254 0
M  V30 11 C -2.9076 0.6196 -0.1052 0
M  V30 12 C -2.7283 -1.7406 -0.5694 0
M  V30 13 C 3.5138 0.0165 0.2962 0
M  V30 14 C -3.5095 -0.6007 -0.4019 0
M  V30 15 H 1.277 -2.4096 -0.3783 0
M  V30 16 H -0.7991 -2.592 -0.5848 0
M  V30 17 H 0.8624 3.0422 0.6937 0
M  V30 18 H 3.0926 2.0774 0.6799 0
M  V30 19 H 3.6549 -2.0838 -0.1182 0
M  V30 20 H -1.5502 2.8302 0.4539 0
M  V30 21 H -3.534 1.495 0.0212 0
M  V30 22 H -3.202 -2.6863 -0.7998 0
M  V30 23 H 4.5828 0.1426 0.4091 0
M  V30 24 H -4.5855 -0.663 -0.5022 0
M  V30 END ATOM
M  V30 BEGIN BOND
M  V30 1 2 1 2
M  V30 2 1 1 3
M  V30 3 1 1 4
M  V30 4 1 2 5
M  V30 5 1 2 6
M  V30 6 2 3 7
M  V30 7 1 3 8
M  V30 8 2 4 9
M  V30 9 2 5 10
M  V30 10 1 5 11
M  V30 11 2 6 12
M  V30 12 2 8 13
M  V30 13 2 11 14
M  V30 14 1 7 10
M  V30 15 1 9 13
M  V30 16 1 12 14
M  V30 17 1 4 15
M  V30 18 1 6 16
M  V30 19 1 7 17
M  V30 20 1 8 18
M  V30 21 1 9 19
M  V30 22 1 10 20
M  V30 23 1 11 21
M  V30 24 1 12 22
M  V30 25 1 13 23
M  V30 26 1 14 24
M  V30 END BOND
M  V30 END CTAB
M  END
>  <Structure No>
5717

>  <LogS>
-5.1903

>  <MMFF94 Energy>
52.761

$$$$
Compound 5718
Actelion Java MolfileCreator 2.0

  0  0  0  0  0  0              0 V3000
M  V30 BEGIN CTAB
M  V30 COUNTS 21 23 0 0 0
M  V30 BEGIN ATOM
M  V30 1 S 0.0 1.8914 1.2332 0
M  V30 2 C 1.2526 0.9639 0.5873 0
M  V30 3 C -1.2166 0.9049 0.6059 0
M  V30 4 C 0.7399 -0.1209 -0.1219 0
M  V30 5 C 2.6224 1.1874 0.7038 0
M  V30 6 C -0.6636 -0.1544 -0.1113 0
M  V30 7 C -2.5938 1.0628 0.7433 0
M  V30 8 C 1.6112 -1.0251 -0.7435 0
M  V30 9 C 3.4991 0.2852 0.0834 0
M  V30 10 C -1.5001 -1.0995 -0.72 0
M  V30 11 C -3.4356 0.1194 0.1358 0
M  V30 12 C 2.9961 -0.815 -0.6363 0
M  V30 13 C -2.8918 -0.9558 -0.5917 0
M  V30 14 H 3.0025 2.0354 1.2586 0
M  V30 15 H -3.0055 1.8919 1.3042 0
M  V30 16 H 1.239 -1.8748 -1.2996 0
M  V30 17 H 4.5681 0.4361 0.1586 0
M  V30 18 H -1.0962 -1.9307 -1.2819 0
M  V30 19 H -4.5094 0.2192 0.2273 0
M  V30 20 H 3.682 -1.5048 -1.1109 0
M  V30 21 H -3.551 -1.6776 -1.0561 0
M  V30 END ATOM
M  V30 BEGIN BOND
M  V30 1 1 1 2
M  V30 2 1 1 3
M  V30 3 2 2 4
M  V30 4 1 2 5
M  V30 5 2 3 6
M  V30 6 1 3 7
M  V30 7 1 4 8
M  V30 8 2 5 9
M  V30 9 1 6 10
M  V30 10 2 7 11
M  V30 11 2 8 12
M  V30 12 2 10 13
M  V30 13 1 4 6
M  V30 14 1 9 12
M  V30 15 1 11 13
M  V30 16 1 5 14
M  V30 17 1 7 15
M  V30 18 1 8 16
M  V30 19 1 9 17
M  V30 20 1 10 18
M  V30 21 1 11 19
M  V30 22 1 12 20
M  V30 23 1 13 21
M  V30 END BOND
M  V30 END CTAB
M  END
>  <Structure No>
5718

>  <LogS>
-5.0981

>  <MMFF94 Energy>
39.611

$$$$
Compound 5719
Actelion Java MolfileCreator 2.0

  0  0  0  0  0  0              0 V3000
M  V30 BEGIN CTAB
M  V30 COUNTS 34 39 0 0 0
M  V30 BEGIN ATOM
M  V30 1 C 0.5717 1.062 0.0 0
M  V30 2 C -0.8084 0.8207 -0.1339 0
M  V30 3 C 1.4715 -0.0189 0.122 0
M  V30 4 C 1.0541 2.3934 0.0119 0
M  V30 5 C -1.2981 -0.5033 -0.1468 0
M  V30 6 C -1.7037 1.911 -0.2558 0
M  V30 7 C 0.9959 -1.3606 0.1111 0
M  V30 8 C 2.858 0.2498 0.2559 0
M  V30 9 C 0.1561 3.4629 -0.1096 0
M  V30 10 C 2.4267 2.6361 0.145 0
M  V30 11 C -0.4058 -1.6057 -0.0248 0
M  V30 12 C -2.6933 -0.7211 -0.2828 0
M  V30 13 C -1.212 3.2236 -0.2423 0
M  V30 14 C -3.0772 1.6734 -0.3891 0
M  V30 15 C 1.9493 -2.4014 0.2376 0
M  V30 16 C 3.3209 1.5733 0.2661 0
M  V30 17 C 3.7644 -0.8073 0.3781 0
M  V30 18 C -0.9595 -2.9101 -0.0447 0
M  V30 19 C -3.5678 0.3685 -0.4025 0
M  V30 20 C -3.1973 -2.025 -0.2977 0
M  V30 21 C 3.3098 -2.1213 0.3685 0
M  V30 22 C -2.334 -3.1084 -0.1792 0
M  V30 23 H 0.5127 4.4863 -0.1018 0
M  V30 24 H 2.8095 3.6499 0.1557 0
M  V30 25 H -1.8868 4.0666 -0.3347 0
M  V30 26 H -3.7736 2.4984 -0.4832 0
M  V30 27 H 1.6801 -3.4437 0.2394 0
M  V30 28 H 4.3785 1.787 0.368 0
M  V30 29 H 4.8264 -0.6177 0.4811 0
M  V30 30 H -0.3608 -3.8006 0.0414 0
M  V30 31 H -4.635 0.2104 -0.5068 0
M  V30 32 H -4.2607 -2.2071 -0.4009 0
M  V30 33 H 4.0193 -2.9336 0.4637 0
M  V30 34 H -2.7335 -4.1147 -0.1917 0
M  V30 END ATOM
M  V30 BEGIN BOND
M  V30 1 1 1 2
M  V30 2 2 1 3
M  V30 3 1 1 4
M  V30 4 2 2 5
M  V30 5 1 2 6
M  V30 6 1 3 7
M  V30 7 1 3 8
M  V30 8 1 4 9
M  V30 9 2 4 10
M  V30 10 1 5 11
M  V30 11 1 5 12
M  V30 12 1 6 13
M  V30 13 2 6 14
M  V30 14 2 7 15
M  V30 15 2 8 16
M  V30 16 1 8 17
M  V30 17 2 11 18
M  V30 18 2 12 19
M  V30 19 1 12 20
M  V30 20 1 15 21
M  V30 21 1 18 22
M  V30 22 1 7 11
M  V30 23 2 9 13
M  V30 24 1 10 16
M  V30 25 1 14 19
M  V30 26 2 17 21
M  V30 27 2 20 22
M  V30 28 1 9 23
M  V30 29 1 10 24
M  V30 30 1 13 25
M  V30 31 1 14 26
M  V30 32 1 15 27
M  V30 33 1 16 28
M  V30 34 1 17 29
M  V30 35 1 18 30
M  V30 36 1 19 31
M  V30 37 1 20 32
M  V30 38 1 21 33
M  V30 39 1 22 34
M  V30 END BOND
M  V30 END CTAB
M  END
>  <Structure No>
5719

>  <LogS>
-9.0265

>  <MMFF94 Energy>
92.581

$$$$
Compound 5720
Actelion Java MolfileCreator 2.0

  0  0  0  0  0  0              0 V3000
M  V30 BEGIN CTAB
M  V30 COUNTS 20 22 0 0 0
M  V30 BEGIN ATOM
M  V30 1 C -0.7241 0.9656 0.0 0
M  V30 2 C 0.077 -0.1608 0.0408 0
M  V30 3 C -0.0765 2.2152 -0.0529 0
M  V30 4 C -2.1182 0.7655 0.0151 0
M  V30 5 C 1.4331 -0.1367 0.0331 0
M  V30 6 C -0.3917 -1.4325 0.0938 0
M  V30 7 C 1.343 2.2687 -0.0622 0
M  V30 8 C -2.6356 -0.5564 0.0704 0
M  V30 9 C 2.1136 1.0809 -0.0187 0
M  V30 10 C 1.8787 -1.534 0.0865 0
M  V30 11 C -1.7664 -1.6741 0.1105 0
M  V30 12 C 0.7823 -2.3125 0.123 0
M  V30 13 H -0.6517 3.1319 -0.0863 0
M  V30 14 H -2.7954 1.6097 -0.0149 0
M  V30 15 H 1.8417 3.2281 -0.1028 0
M  V30 16 H -3.7065 -0.7115 0.082 0
M  V30 17 H 3.195 1.1158 -0.0256 0
M  V30 18 H 2.9016 -1.886 0.0953 0
M  V30 19 H -2.1551 -2.683 0.1526 0
M  V30 20 H 0.7786 -3.3934 0.1661 0
M  V30 END ATOM
M  V30 BEGIN BOND
M  V30 1 1 1 2
M  V30 2 1 1 3
M  V30 3 2 1 4
M  V30 4 1 2 5
M  V30 5 2 2 6
M  V30 6 2 3 7
M  V30 7 1 4 8
M  V30 8 2 5 9
M  V30 9 1 5 10
M  V30 10 1 6 11
M  V30 11 1 6 12
M  V30 12 1 7 9
M  V30 13 2 8 11
M  V30 14 2 10 12
M  V30 15 1 3 13
M  V30 16 1 4 14
M  V30 17 1 7 15
M  V30 18 1 8 16
M  V30 19 1 9 17
M  V30 20 1 10 18
M  V30 21 1 11 19
M  V30 22 1 12 20
M  V30 END BOND
M  V30 END CTAB
M  END
>  <Structure No>
5720

>  <LogS>
-3.9756

>  <MMFF94 Energy>
51.366

$$$$
Compound 5721
Actelion Java MolfileCreator 2.0

  0  0  0  0  0  0              0 V3000
M  V30 BEGIN CTAB
M  V30 COUNTS 36 40 0 0 0
M  V30 BEGIN ATOM
M  V30 1 C 0.1617 -0.7278 0.0808 0
M  V30 2 C 0.3303 0.682 -0.0779 0
M  V30 3 C -1.1419 -1.2704 0.3034 0
M  V30 4 C 1.3144 -1.5595 0.0113 0
M  V30 5 C -0.8047 1.5488 -0.014 0
M  V30 6 C 1.6429 1.1862 -0.2978 0
M  V30 7 C -2.2763 -0.4029 0.3671 0
M  V30 8 C -1.3572 -2.6691 0.4672 0
M  V30 9 C 2.5905 -1.037 -0.2055 0
M  V30 10 C -2.1079 1.0053 0.2085 0
M  V30 11 C -0.6837 2.9602 -0.1667 0
M  V30 12 C 2.7559 0.3463 -0.3613 0
M  V30 13 C -3.5574 -0.9828 0.5903 0
M  V30 14 C -2.6259 -3.1924 0.6833 0
M  V30 15 C 3.7117 -1.8845 -0.2694 0
M  V30 16 C -3.2123 1.9023 0.2654 0
M  V30 17 C -1.7893 3.7991 -0.1041 0
M  V30 18 C 4.0417 0.8741 -0.5801 0
M  V30 19 C -3.7207 -2.3534 0.7447 0
M  V30 20 C 4.9849 -1.3521 -0.4869 0
M  V30 21 C -3.0475 3.2727 0.111 0
M  V30 22 C 5.1496 0.0253 -0.642 0
M  V30 23 H 1.2663 -2.627 0.1212 0
M  V30 24 H 1.8478 2.233 -0.426 0
M  V30 25 H -0.5752 -3.4042 0.4368 0
M  V30 26 H 0.247 3.4678 -0.3373 0
M  V30 27 H -4.4674 -0.4156 0.6539 0
M  V30 28 H -2.7592 -4.2602 0.8044 0
M  V30 29 H 3.6041 -2.9563 -0.1513 0
M  V30 30 H -4.2273 1.591 0.4279 0
M  V30 31 H -1.6669 4.8685 -0.2237 0
M  V30 32 H 4.19 1.9406 -0.7028 0
M  V30 33 H -4.7072 -2.767 0.9133 0
M  V30 34 H 5.8445 -2.0081 -0.5353 0
M  V30 35 H -3.9057 3.9316 0.1589 0
M  V30 36 H 6.1368 0.436 -0.8104 0
M  V30 END ATOM
M  V30 BEGIN BOND
M  V30 1 1 1 2
M  V30 2 2 1 3
M  V30 3 1 1 4
M  V30 4 2 2 5
M  V30 5 1 2 6
M  V30 6 1 3 7
M  V30 7 1 3 8
M  V30 8 2 4 9
M  V30 9 1 5 10
M  V30 10 1 5 11
M  V30 11 2 6 12
M  V30 12 1 7 13
M  V30 13 2 8 14
M  V30 14 1 9 15
M  V30 15 1 10 16
M  V30 16 2 11 17
M  V30 17 1 12 18
M  V30 18 2 13 19
M  V30 19 2 15 20
M  V30 20 2 16 21
M  V30 21 2 18 22
M  V30 22 2 7 10
M  V30 23 1 9 12
M  V30 24 1 14 19
M  V30 25 1 17 21
M  V30 26 1 20 22
M  V30 27 1 4 23
M  V30 28 1 6 24
M  V30 29 1 8 25
M  V30 30 1 11 26
M  V30 31 1 13 27
M  V30 32 1 14 28
M  V30 33 1 15 29
M  V30 34 1 16 30
M  V30 35 1 17 31
M  V30 36 1 18 32
M  V30 37 1 19 33
M  V30 38 1 20 34
M  V30 39 1 21 35
M  V30 40 1 22 36
M  V30 END BOND
M  V30 END CTAB
M  END
>  <Structure No>
5721

>  <LogS>
-8.2405

>  <MMFF94 Energy>
96.597

$$$$
Compound 5722
Actelion Java MolfileCreator 2.0

  0  0  0  0  0  0              0 V3000
M  V30 BEGIN CTAB
M  V30 COUNTS 30 33 0 0 0
M  V30 BEGIN ATOM
M  V30 1 C 1.4507 -0.1611 0.0 0
M  V30 2 C 0.6148 -1.3201 0.0199 0
M  V30 3 C 0.8655 1.1405 -0.0332 0
M  V30 4 C 2.8618 -0.3482 0.0143 0
M  V30 5 C -0.8054 -1.1762 0.0065 0
M  V30 6 C 1.2381 -2.5993 0.0531 0
M  V30 7 C -0.5564 1.2847 -0.0466 0
M  V30 8 C 1.662 2.3201 -0.0538 0
M  V30 9 C 3.4285 -1.6162 0.0468 0
M  V30 10 C -1.3914 0.127 -0.0266 0
M  V30 11 C -1.6733 -2.3043 0.0256 0
M  V30 12 C 2.6206 -2.7363 0.066 0
M  V30 13 C -1.0996 2.6 -0.0798 0
M  V30 14 C 1.0895 3.5855 -0.0862 0
M  V30 15 C -2.8114 0.2266 -0.039 0
M  V30 16 C -3.0552 -2.1612 0.0126 0
M  V30 17 C -0.2846 3.7249 -0.0991 0
M  V30 18 C -3.6214 -0.9017 -0.0195 0
M  V30 19 H 3.5708 0.4586 0.0013 0
M  V30 20 H 0.6964 -3.5269 0.0699 0
M  V30 21 H 2.7361 2.315 -0.046 0
M  V30 22 H 4.5054 -1.7291 0.057 0
M  V30 23 H -1.3291 -3.3215 0.0509 0
M  V30 24 H 3.0679 -3.722 0.0913 0
M  V30 25 H -2.153 2.8104 -0.092 0
M  V30 26 H 1.7197 4.4661 -0.1014 0
M  V30 27 H -3.3439 1.1593 -0.0636 0
M  V30 28 H -3.6916 -3.0371 0.0277 0
M  V30 29 H -0.725 4.7138 -0.1243 0
M  V30 30 H -4.6991 -0.7963 -0.0295 0
M  V30 END ATOM
M  V30 BEGIN BOND
M  V30 1 1 1 2
M  V30 2 2 1 3
M  V30 3 1 1 4
M  V30 4 2 2 5
M  V30 5 1 2 6
M  V30 6 1 3 7
M  V30 7 1 3 8
M  V30 8 2 4 9
M  V30 9 1 5 10
M  V30 10 1 5 11
M  V30 11 2 6 12
M  V30 12 1 7 13
M  V30 13 2 8 14
M  V30 14 1 10 15
M  V30 15 2 11 16
M  V30 16 2 13 17
M  V30 17 2 15 18
M  V30 18 2 7 10
M  V30 19 1 9 12
M  V30 20 1 14 17
M  V30 21 1 16 18
M  V30 22 1 4 19
M  V30 23 1 6 20
M  V30 24 1 8 21
M  V30 25 1 9 22
M  V30 26 1 11 23
M  V30 27 1 12 24
M  V30 28 1 13 25
M  V30 29 1 14 26
M  V30 30 1 15 27
M  V30 31 1 16 28
M  V30 32 1 17 29
M  V30 33 1 18 30
M  V30 END BOND
M  V30 END CTAB
M  END
>  <Structure No>
5722

>  <LogS>
-6.7447

>  <MMFF94 Energy>
85.041

$$$$
Compound 5723
Actelion Java MolfileCreator 2.0

  0  0  0  0  0  0              0 V3000
M  V30 BEGIN CTAB
M  V30 COUNTS 30 33 0 0 0
M  V30 BEGIN ATOM
M  V30 1 C 0.4025 -0.5636 0.0805 0
M  V30 2 C -0.4026 0.6193 -0.0086 0
M  V30 3 C 1.831 -0.4602 0.02 0
M  V30 4 C -0.2472 -1.8092 0.2271 0
M  V30 5 C -1.8311 0.5161 0.0519 0
M  V30 6 C 0.247 1.8651 -0.1551 0
M  V30 7 C 2.4267 0.8205 -0.1281 0
M  V30 8 C 2.6982 -1.5818 0.101 0
M  V30 9 C -1.63 -1.903 0.2851 0
M  V30 10 C -2.427 -0.7646 0.2001 0
M  V30 11 C -2.6984 1.6377 -0.0289 0
M  V30 12 C 1.6297 1.9589 -0.2131 0
M  V30 13 C 3.8234 0.9574 -0.1907 0
M  V30 14 C 4.0848 -1.4264 0.0369 0
M  V30 15 C -3.8238 -0.9014 0.2628 0
M  V30 16 C -4.0851 1.4824 0.0351 0
M  V30 17 C 4.6458 -0.1621 -0.1084 0
M  V30 18 C -4.6463 0.2182 0.1805 0
M  V30 19 H 0.2836 -2.742 0.3011 0
M  V30 20 H -0.2839 2.7979 -0.2291 0
M  V30 21 H 2.3448 -2.5918 0.2138 0
M  V30 22 H -2.0814 -2.8823 0.3982 0
M  V30 23 H -2.3451 2.6478 -0.1417 0
M  V30 24 H 2.0811 2.9383 -0.3261 0
M  V30 25 H 4.2801 1.9338 -0.3038 0
M  V30 26 H 4.7284 -2.2945 0.1005 0
M  V30 27 H -4.2805 -1.8777 0.3759 0
M  V30 28 H -4.7288 2.3508 -0.0284 0
M  V30 29 H 5.7211 -0.0494 -0.1573 0
M  V30 30 H -5.7216 0.1056 0.2296 0
M  V30 END ATOM
M  V30 BEGIN BOND
M  V30 1 1 1 2
M  V30 2 2 1 3
M  V30 3 1 1 4
M  V30 4 1 2 5
M  V30 5 2 2 6
M  V30 6 1 3 7
M  V30 7 1 3 8
M  V30 8 2 4 9
M  V30 9 1 5 10
M  V30 10 2 5 11
M  V30 11 1 6 12
M  V30 12 1 7 13
M  V30 13 2 8 14
M  V30 14 2 10 15
M  V30 15 1 11 16
M  V30 16 2 13 17
M  V30 17 1 15 18
M  V30 18 2 7 12
M  V30 19 1 9 10
M  V30 20 1 14 17
M  V30 21 2 16 18
M  V30 22 1 4 19
M  V30 23 1 6 20
M  V30 24 1 8 21
M  V30 25 1 9 22
M  V30 26 1 11 23
M  V30 27 1 12 24
M  V30 28 1 13 25
M  V30 29 1 14 26
M  V30 30 1 15 27
M  V30 31 1 16 28
M  V30 32 1 17 29
M  V30 33 1 18 30
M  V30 END BOND
M  V30 END CTAB
M  END
>  <Structure No>
5723

>  <LogS>
-8.0575

>  <MMFF94 Energy>
74.928

$$$$
Compound 5724
Actelion Java MolfileCreator 2.0

  0  0  0  0  0  0              0 V3000
M  V30 BEGIN CTAB
M  V30 COUNTS 36 40 0 0 0
M  V30 BEGIN ATOM
M  V30 1 C 1.2122 -0.1615 -0.1615 0
M  V30 2 C 2.4424 0.574 -0.2008 0
M  V30 3 C 1.2466 -1.5654 -0.3632 0
M  V30 4 C -0.0466 0.4468 0.0706 0
M  V30 5 C 3.6598 -0.1266 -0.441 0
M  V30 6 C 2.5187 1.9785 -0.0118 0
M  V30 7 C 0.0669 -2.3148 -0.3316 0
M  V30 8 C 2.4608 -2.2209 -0.5967 0
M  V30 9 C -1.2497 -0.3016 0.1051 0
M  V30 10 C 3.6522 -1.5105 -0.6351 0
M  V30 11 C 4.8822 0.563 -0.486 0
M  V30 12 C 3.7452 2.6451 -0.0604 0
M  V30 13 C -1.1687 -1.7028 -0.1017 0
M  V30 14 C -2.5347 0.2908 0.3379 0
M  V30 15 C 4.9217 1.9414 -0.2964 0
M  V30 16 C -2.3234 -2.4932 -0.0788 0
M  V30 17 C -3.6889 -0.545 0.3543 0
M  V30 18 C -2.726 1.68 0.5559 0
M  V30 19 C -3.5677 -1.9214 0.1464 0
M  V30 20 C -4.9624 0.0026 0.5796 0
M  V30 21 C -4.0016 2.2042 0.7781 0
M  V30 22 C -5.1149 1.3701 0.7901 0
M  V30 23 H -0.09 1.5003 0.224 0
M  V30 24 H 1.6569 2.5955 0.1753 0
M  V30 25 H 0.111 -3.3881 -0.488 0
M  V30 26 H 2.4896 -3.2934 -0.7511 0
M  V30 27 H 4.5753 -2.0482 -0.8181 0
M  V30 28 H 5.8101 0.0337 -0.6684 0
M  V30 29 H 3.7823 3.7171 0.0862 0
M  V30 30 H 5.8678 2.4659 -0.3324 0
M  V30 31 H -2.264 -3.5639 -0.2365 0
M  V30 32 H -1.9189 2.392 0.5625 0
M  V30 33 H -4.4424 -2.5615 0.1579 0
M  V30 34 H -5.8426 -0.6296 0.5929 0
M  V30 35 H -4.1266 3.267 0.9424 0
M  V30 36 H -6.0997 1.7847 0.9631 0
M  V30 END ATOM
M  V30 BEGIN BOND
M  V30 1 2 1 2
M  V30 2 1 1 3
M  V30 3 1 1 4
M  V30 4 1 2 5
M  V30 5 1 2 6
M  V30 6 1 3 7
M  V30 7 2 3 8
M  V30 8 2 4 9
M  V30 9 2 5 10
M  V30 10 1 5 11
M  V30 11 2 6 12
M  V30 12 2 7 13
M  V30 13 1 9 14
M  V30 14 2 11 15
M  V30 15 1 13 16
M  V30 16 1 14 17
M  V30 17 2 14 18
M  V30 18 2 16 19
M  V30 19 2 17 20
M  V30 20 1 18 21
M  V30 21 1 20 22
M  V30 22 1 8 10
M  V30 23 1 9 13
M  V30 24 1 12 15
M  V30 25 1 17 19
M  V30 26 2 21 22
M  V30 27 1 4 23
M  V30 28 1 6 24
M  V30 29 1 7 25
M  V30 30 1 8 26
M  V30 31 1 10 27
M  V30 32 1 11 28
M  V30 33 1 12 29
M  V30 34 1 15 30
M  V30 35 1 16 31
M  V30 36 1 18 32
M  V30 37 1 19 33
M  V30 38 1 20 34
M  V30 39 1 21 35
M  V30 40 1 22 36
M  V30 END BOND
M  V30 END CTAB
M  END
>  <Structure No>
5724

>  <LogS>
-8.4318

>  <MMFF94 Energy>
85.902

$$$$
Compound 5725
Actelion Java MolfileCreator 2.0

  0  0  0  0  0  0              0 V3000
M  V30 BEGIN CTAB
M  V30 COUNTS 29 32 0 0 0
M  V30 BEGIN ATOM
M  V30 1 C -1.8568 -0.7262 0.6455 0
M  V30 2 C -2.2838 0.204 -0.3489 0
M  V30 3 C -0.4835 -0.8953 0.9087 0
M  V30 4 C -2.8139 -1.467 1.3553 0
M  V30 5 C -1.3319 0.9542 -1.0685 0
M  V30 6 C -3.6545 0.364 -0.6021 0
M  V30 7 C 0.428 -0.1358 0.1768 0
M  V30 8 C -4.1751 -1.2939 1.0891 0
M  V30 9 C 0.021 0.7666 -0.7875 0
M  V30 10 C -4.5933 -0.3829 0.1152 0
M  V30 11 C 1.8736 -0.1074 0.2395 0
M  V30 12 C 1.1915 1.4551 -1.4288 0
M  V30 13 C 2.3277 0.8121 -0.6878 0
M  V30 14 C 2.7521 -0.8303 1.0473 0
M  V30 15 C 3.6938 1.0495 -0.8474 0
M  V30 16 C 4.1297 -0.6022 0.8981 0
M  V30 17 C 4.5988 0.3337 -0.0452 0
M  V30 18 H -0.1368 -1.5955 1.659 0
M  V30 19 H -2.5098 -2.1781 2.1143 0
M  V30 20 H -1.6341 1.6657 -1.8276 0
M  V30 21 H -3.999 1.065 -1.353 0
M  V30 22 H -4.9091 -1.8681 1.6397 0
M  V30 23 H -5.6496 -0.2553 -0.0844 0
M  V30 24 H 1.2429 1.2234 -2.5136 0
M  V30 25 H 1.1618 2.549 -1.2392 0
M  V30 26 H 2.3864 -1.5476 1.7702 0
M  V30 27 H 4.0493 1.7693 -1.5733 0
M  V30 28 H 4.8349 -1.1483 1.5112 0
M  V30 29 H 5.6622 0.5025 -0.1528 0
M  V30 END ATOM
M  V30 BEGIN BOND
M  V30 1 1 1 2
M  V30 2 1 1 3
M  V30 3 2 1 4
M  V30 4 1 2 5
M  V30 5 2 2 6
M  V30 6 2 3 7
M  V30 7 1 4 8
M  V30 8 2 5 9
M  V30 9 1 6 10
M  V30 10 1 7 11
M  V30 11 1 9 12
M  V30 12 2 11 13
M  V30 13 1 11 14
M  V30 14 1 13 15
M  V30 15 2 14 16
M  V30 16 2 15 17
M  V30 17 1 7 9
M  V30 18 2 8 10
M  V30 19 1 12 13
M  V30 20 1 16 17
M  V30 21 1 3 18
M  V30 22 1 4 19
M  V30 23 1 5 20
M  V30 24 1 6 21
M  V30 25 1 8 22
M  V30 26 1 10 23
M  V30 27 1 12 24
M  V30 28 1 12 25
M  V30 29 1 14 26
M  V30 30 1 15 27
M  V30 31 1 16 28
M  V30 32 1 17 29
M  V30 END BOND
M  V30 END CTAB
M  END
>  <Structure No>
5725

>  <LogS>
-7.733

>  <MMFF94 Energy>
64.877

$$$$
Compound 5726
Actelion Java MolfileCreator 2.0

  0  0  0  0  0  0              0 V3000
M  V30 BEGIN CTAB
M  V30 COUNTS 26 28 0 0 0
M  V30 BEGIN ATOM
M  V30 1 O -0.7289 3.1615 -0.8099 0
M  V30 2 N -0.3013 2.5664 0.2002 0 CHG=1
M  V30 3 O 0.0466 3.2872 1.3187 0 CHG=-1
M  V30 4 C -0.149 1.1401 0.1869 0
M  V30 5 C -1.2904 0.3028 0.1438 0
M  V30 6 C 1.1438 0.5642 0.2215 0
M  V30 7 C -1.1289 -1.1059 0.1294 0
M  V30 8 C -2.5965 0.8363 0.1354 0
M  V30 9 C 1.2856 -0.8466 0.2149 0
M  V30 10 C 2.3062 1.3634 0.2411 0
M  V30 11 C 0.1525 -1.6658 0.1669 0
M  V30 12 C -2.2572 -1.9413 0.0863 0
M  V30 13 C -3.7086 -0.0081 0.0936 0
M  V30 14 C 2.5659 -1.4232 0.2488 0
M  V30 15 C 3.5725 0.7745 0.2735 0
M  V30 16 C -3.5398 -1.3918 0.0659 0
M  V30 17 C 3.7021 -0.6137 0.2804 0
M  V30 18 H -2.7698 1.9036 0.1689 0
M  V30 19 H 2.248 2.4435 0.2232 0
M  V30 20 H 0.2687 -2.7446 0.1589 0
M  V30 21 H -2.1473 -3.0192 0.0719 0
M  V30 22 H -4.7058 0.4129 0.0855 0
M  V30 23 H 2.688 -2.4999 0.2472 0
M  V30 24 H 4.4571 1.3981 0.2902 0
M  V30 25 H -4.4053 -2.041 0.0342 0
M  V30 26 H 4.6859 -1.064 0.305 0
M  V30 END ATOM
M  V30 BEGIN BOND
M  V30 1 2 1 2
M  V30 2 1 2 3
M  V30 3 1 2 4
M  V30 4 1 4 5
M  V30 5 2 4 6
M  V30 6 1 5 7
M  V30 7 2 5 8
M  V30 8 1 6 9
M  V30 9 1 6 10
M  V30 10 1 7 11
M  V30 11 2 7 12
M  V30 12 1 8 13
M  V30 13 1 9 14
M  V30 14 2 10 15
M  V30 15 1 12 16
M  V30 16 2 14 17
M  V30 17 2 9 11
M  V30 18 2 13 16
M  V30 19 1 15 17
M  V30 20 1 8 18
M  V30 21 1 10 19
M  V30 22 1 11 20
M  V30 23 1 12 21
M  V30 24 1 13 22
M  V30 25 1 14 23
M  V30 26 1 15 24
M  V30 27 1 16 25
M  V30 28 1 17 26
M  V30 END BOND
M  V30 END CTAB
M  END
>  <Structure No>
5726

>  <LogS>
-6.2918

>  <MMFF94 Energy>
72.299

$$$$
Compound 5727
Actelion Java MolfileCreator 2.0

  0  0  0  0  0  0              0 V3000
M  V30 BEGIN CTAB
M  V30 COUNTS 27 29 0 0 0
M  V30 BEGIN ATOM
M  V30 1 C -0.6387 0.479 -0.2394 0
M  V30 2 C -0.5647 -0.897 0.0831 0
M  V30 3 C 0.5263 1.2606 -0.2343 0
M  V30 4 C -1.8789 1.051 -0.5646 0
M  V30 5 C 0.6722 -1.4729 0.4083 0
M  V30 6 C -1.7313 -1.6757 0.0701 0
M  V30 7 C 1.7633 0.6852 0.0909 0
M  V30 8 C -3.0446 0.2698 -0.5583 0
M  V30 9 C 1.8368 -0.6914 0.4149 0
M  V30 10 C -2.9608 -1.0969 -0.2549 0
M  V30 11 C 2.9321 1.4632 0.0985 0
M  V30 12 C -4.3611 0.877 -0.9445 0
M  V30 13 C 3.0775 -1.2624 0.7397 0
M  V30 14 C 4.1607 0.8817 0.4238 0
M  V30 15 C 4.2332 -0.4763 0.7434 0
M  V30 16 H 0.4703 2.3153 -0.4824 0
M  V30 17 H -1.9404 2.1026 -0.8217 0
M  V30 18 H 0.7286 -2.5278 0.6551 0
M  V30 19 H -1.6925 -2.7323 0.3073 0
M  V30 20 H -3.8494 -1.716 -0.269 0
M  V30 21 H 2.8956 2.518 -0.1465 0
M  V30 22 H -5.1996 0.3488 -0.4425 0
M  V30 23 H -4.4931 0.803 -2.044 0
M  V30 24 H -4.402 1.9461 -0.6454 0
M  V30 25 H 3.1534 -2.3139 0.9902 0
M  V30 26 H 5.059 1.4855 0.4284 0
M  V30 27 H 5.1874 -0.921 0.9945 0
M  V30 END ATOM
M  V30 BEGIN BOND
M  V30 1 1 1 2
M  V30 2 1 1 3
M  V30 3 2 1 4
M  V30 4 1 2 5
M  V30 5 2 2 6
M  V30 6 2 3 7
M  V30 7 1 4 8
M  V30 8 2 5 9
M  V30 9 1 6 10
M  V30 10 1 7 11
M  V30 11 1 8 12
M  V30 12 1 9 13
M  V30 13 2 11 14
M  V30 14 2 13 15
M  V30 15 1 7 9
M  V30 16 2 8 10
M  V30 17 1 14 15
M  V30 18 1 3 16
M  V30 19 1 4 17
M  V30 20 1 5 18
M  V30 21 1 6 19
M  V30 22 1 10 20
M  V30 23 1 11 21
M  V30 24 1 12 22
M  V30 25 1 12 23
M  V30 26 1 12 24
M  V30 27 1 13 25
M  V30 28 1 14 26
M  V30 29 1 15 27
M  V30 END BOND
M  V30 END CTAB
M  END
>  <Structure No>
5727

>  <LogS>
-6.9555

>  <MMFF94 Energy>
45.351

$$$$
Compound 5728
Actelion Java MolfileCreator 2.0

  0  0  0  0  0  0              0 V3000
M  V30 BEGIN CTAB
M  V30 COUNTS 30 32 0 0 0
M  V30 BEGIN ATOM
M  V30 1 C -1.3584 0.3195 -0.1597 0
M  V30 2 C -0.969 -1.05 -0.1765 0
M  V30 3 C -0.3967 1.3308 0.1069 0
M  V30 4 C -2.714 0.6418 -0.4203 0
M  V30 5 C 0.4036 -1.4021 -0.0746 0
M  V30 6 C -1.9774 -2.0398 -0.289 0
M  V30 7 C 0.9759 0.9788 0.2087 0
M  V30 8 C -0.8395 2.7689 0.3388 0
M  V30 9 C -3.6729 -0.3546 -0.5818 0
M  V30 10 C 1.3653 -0.3907 0.1921 0
M  V30 11 C 0.8463 -2.8401 -0.3065 0
M  V30 12 C -3.3103 -1.6904 -0.489 0
M  V30 13 C 1.9843 1.9687 0.3214 0
M  V30 14 C 2.7208 -0.713 0.4526 0
M  V30 15 C 3.317 1.6193 0.5214 0
M  V30 16 C 3.6796 0.2835 0.6144 0
M  V30 17 H -3.0531 1.6615 -0.5289 0
M  V30 18 H -1.7621 -3.0943 -0.1997 0
M  V30 19 H -0.1934 3.2886 1.0737 0
M  V30 20 H -1.8389 2.824 0.814 0
M  V30 21 H -0.8446 3.3243 -0.622 0
M  V30 22 H -4.7053 -0.0876 -0.7689 0
M  V30 23 H 1.8456 -2.895 -0.7816 0
M  V30 24 H 0.2001 -3.3597 -1.0413 0
M  V30 25 H 0.8514 -3.3955 0.6544 0
M  V30 26 H -4.0642 -2.4616 -0.5837 0
M  V30 27 H 1.7689 3.0232 0.2321 0
M  V30 28 H 3.0598 -1.7326 0.5615 0
M  V30 29 H 4.0708 2.3906 0.6164 0
M  V30 30 H 4.7119 0.0166 0.8014 0
M  V30 END ATOM
M  V30 BEGIN BOND
M  V30 1 1 1 2
M  V30 2 1 1 3
M  V30 3 2 1 4
M  V30 4 1 2 5
M  V30 5 2 2 6
M  V30 6 2 3 7
M  V30 7 1 3 8
M  V30 8 1 4 9
M  V30 9 2 5 10
M  V30 10 1 5 11
M  V30 11 1 6 12
M  V30 12 1 7 13
M  V30 13 1 10 14
M  V30 14 2 13 15
M  V30 15 2 14 16
M  V30 16 1 7 10
M  V30 17 2 9 12
M  V30 18 1 15 16
M  V30 19 1 4 17
M  V30 20 1 6 18
M  V30 21 1 8 19
M  V30 22 1 8 20
M  V30 23 1 8 21
M  V30 24 1 9 22
M  V30 25 1 11 23
M  V30 26 1 11 24
M  V30 27 1 11 25
M  V30 28 1 12 26
M  V30 29 1 13 27
M  V30 30 1 14 28
M  V30 31 1 15 29
M  V30 32 1 16 30
M  V30 END BOND
M  V30 END CTAB
M  END
>  <Structure No>
5728

>  <LogS>
-6.5663

>  <MMFF94 Energy>
64.776

$$$$
Compound 5729
Actelion Java MolfileCreator 2.0

  0  0  0  0  0  0              0 V3000
M  V30 BEGIN CTAB
M  V30 COUNTS 27 29 0 0 0
M  V30 BEGIN ATOM
M  V30 1 C -0.0798 -0.6393 0.1597 0
M  V30 2 C 1.2867 -0.2184 0.094 0
M  V30 3 C -1.1178 0.2871 -0.1705 0
M  V30 4 C -0.4521 -1.9499 0.5429 0
M  V30 5 C 1.5821 1.1159 -0.2997 0
M  V30 6 C 2.3773 -1.071 0.4043 0
M  V30 7 C -2.4802 -0.118 -0.1093 0
M  V30 8 C -0.7748 1.5967 -0.5546 0
M  V30 9 C -1.7897 -2.3304 0.5977 0
M  V30 10 C 0.5512 2.0013 -0.6172 0
M  V30 11 C 2.9129 1.5592 -0.3738 0
M  V30 12 C 3.694 -0.6116 0.3247 0
M  V30 13 C -2.7939 -1.4275 0.276 0
M  V30 14 C -3.6131 0.8203 -0.4477 0
M  V30 15 C 3.9613 0.6976 -0.0627 0
M  V30 16 H 0.2647 -2.7081 0.8073 0
M  V30 17 H 2.251 -2.095 0.7113 0
M  V30 18 H -1.5285 2.3283 -0.8124 0
M  V30 19 H -2.0506 -3.3388 0.8936 0
M  V30 20 H 0.7722 3.0192 -0.9178 0
M  V30 21 H 3.1424 2.5752 -0.6735 0
M  V30 22 H 4.513 -1.2775 0.5655 0
M  V30 23 H -3.8246 -1.7562 0.3291 0
M  V30 24 H -4.6041 0.329 -0.343 0
M  V30 25 H -3.5956 1.6947 0.2363 0
M  V30 26 H -3.516 1.165 -1.4987 0
M  V30 27 H 4.9844 1.0462 -0.122 0
M  V30 END ATOM
M  V30 BEGIN BOND
M  V30 1 2 1 2
M  V30 2 1 1 3
M  V30 3 1 1 4
M  V30 4 1 2 5
M  V30 5 1 2 6
M  V30 6 1 3 7
M  V30 7 2 3 8
M  V30 8 2 4 9
M  V30 9 2 5 10
M  V30 10 1 5 11
M  V30 11 2 6 12
M  V30 12 2 7 13
M  V30 13 1 7 14
M  V30 14 2 11 15
M  V30 15 1 8 10
M  V30 16 1 9 13
M  V30 17 1 12 15
M  V30 18 1 4 16
M  V30 19 1 6 17
M  V30 20 1 8 18
M  V30 21 1 9 19
M  V30 22 1 10 20
M  V30 23 1 11 21
M  V30 24 1 12 22
M  V30 25 1 13 23
M  V30 26 1 14 24
M  V30 27 1 14 25
M  V30 28 1 14 26
M  V30 29 1 15 27
M  V30 END BOND
M  V30 END CTAB
M  END
>  <Structure No>
5729

>  <LogS>
-5.8541

>  <MMFF94 Energy>
58.068

$$$$
Compound 5730
Actelion Java MolfileCreator 2.0

  0  0  0  0  0  0              0 V3000
M  V30 BEGIN CTAB
M  V30 COUNTS 26 28 0 0 0
M  V30 BEGIN ATOM
M  V30 1 C -2.3243 0.0 0.0 0
M  V30 2 C -0.9375 -0.2039 -0.0521 0
M  V30 3 C -2.7953 1.3062 0.2512 0
M  V30 4 C -3.2783 -1.1399 -0.2056 0
M  V30 5 C -0.0599 0.8493 0.1378 0
M  V30 6 C -0.1969 -1.4904 -0.3023 0
M  V30 7 C -1.8919 2.3694 0.4429 0
M  V30 8 C 1.2909 0.3428 0.0289 0
M  V30 9 C -0.5085 2.1456 0.3871 0
M  V30 10 C 1.2238 -1.0135 -0.2263 0
M  V30 11 C 2.5117 1.0089 0.1425 0
M  V30 12 C 2.3869 -1.7693 -0.3806 0
M  V30 13 C 3.6911 0.2621 -0.0101 0
M  V30 14 C 3.6291 -1.1215 -0.2706 0
M  V30 15 H -3.8587 1.5048 0.2993 0
M  V30 16 H -3.1202 -1.5824 -1.2114 0
M  V30 17 H -3.1025 -1.9181 0.5664 0
M  V30 18 H -4.3343 -0.8038 -0.1315 0
M  V30 19 H -0.4081 -2.2328 0.496 0
M  V30 20 H -0.426 -1.8916 -1.312 0
M  V30 21 H -2.2674 3.3663 0.6349 0
M  V30 22 H 0.1882 2.9603 0.5339 0
M  V30 23 H 2.5531 2.0716 0.3428 0
M  V30 24 H 2.3341 -2.8316 -0.5805 0
M  V30 25 H 4.6525 0.752 0.0728 0
M  V30 26 H 4.5433 -1.6886 -0.3867 0
M  V30 END ATOM
M  V30 BEGIN BOND
M  V30 1 2 1 2
M  V30 2 1 1 3
M  V30 3 1 1 4
M  V30 4 1 2 5
M  V30 5 1 2 6
M  V30 6 2 3 7
M  V30 7 1 5 8
M  V30 8 2 5 9
M  V30 9 1 6 10
M  V30 10 1 8 11
M  V30 11 1 10 12
M  V30 12 2 11 13
M  V30 13 2 12 14
M  V30 14 1 7 9
M  V30 15 2 8 10
M  V30 16 1 13 14
M  V30 17 1 3 15
M  V30 18 1 4 16
M  V30 19 1 4 17
M  V30 20 1 4 18
M  V30 21 1 6 19
M  V30 22 1 6 20
M  V30 23 1 7 21
M  V30 24 1 9 22
M  V30 25 1 11 23
M  V30 26 1 12 24
M  V30 27 1 13 25
M  V30 28 1 14 26
M  V30 END BOND
M  V30 END CTAB
M  END
>  <Structure No>
5730

>  <LogS>
-5.2184

>  <MMFF94 Energy>
54.414

$$$$
Compound 5731
Actelion Java MolfileCreator 2.0

  0  0  0  0  0  0              0 V3000
M  V30 BEGIN CTAB
M  V30 COUNTS 27 29 0 0 0
M  V30 BEGIN ATOM
M  V30 1 C -0.0798 0.3194 0.0 0
M  V30 2 C 1.348 0.2992 -0.0651 0
M  V30 3 C -0.7878 -0.9144 0.042 0
M  V30 4 C -0.8346 1.5168 0.0309 0
M  V30 5 C 2.0218 -0.9553 -0.0814 0
M  V30 6 C 2.1367 1.4754 -0.1163 0
M  V30 7 C -2.1907 -0.9276 0.1039 0
M  V30 8 C -0.0932 -2.1289 0.0248 0
M  V30 9 C -2.2294 1.4861 0.0924 0
M  V30 10 C 1.2944 -2.1489 -0.0356 0
M  V30 11 C 3.4237 -1.0072 -0.1436 0
M  V30 12 C 3.5303 1.4022 -0.1781 0
M  V30 13 C -2.9151 0.2685 0.1124 0
M  V30 14 C 4.1713 0.1667 -0.1914 0
M  V30 15 C -4.4117 0.2454 0.2179 0
M  V30 16 H -0.3792 2.4926 0.0144 0
M  V30 17 H 1.71 2.4643 -0.112 0
M  V30 18 H -2.7236 -1.8714 0.1446 0
M  V30 19 H -0.6277 -3.0712 0.0582 0
M  V30 20 H -2.7773 2.4202 0.1241 0
M  V30 21 H 1.8028 -3.106 -0.0476 0
M  V30 22 H 3.9423 -1.9588 -0.1558 0
M  V30 23 H 4.1167 2.3113 -0.2166 0
M  V30 24 H 5.2515 0.1188 -0.2395 0
M  V30 25 H -4.706 0.2285 1.2881 0
M  V30 26 H -4.8261 -0.6534 -0.2861 0
M  V30 27 H -4.8537 1.1429 -0.2649 0
M  V30 END ATOM
M  V30 BEGIN BOND
M  V30 1 2 1 2
M  V30 2 1 1 3
M  V30 3 1 1 4
M  V30 4 1 2 5
M  V30 5 1 2 6
M  V30 6 1 3 7
M  V30 7 2 3 8
M  V30 8 2 4 9
M  V30 9 2 5 10
M  V30 10 1 5 11
M  V30 11 2 6 12
M  V30 12 2 7 13
M  V30 13 2 11 14
M  V30 14 1 13 15
M  V30 15 1 8 10
M  V30 16 1 9 13
M  V30 17 1 12 14
M  V30 18 1 4 16
M  V30 19 1 6 17
M  V30 20 1 7 18
M  V30 21 1 8 19
M  V30 22 1 9 20
M  V30 23 1 10 21
M  V30 24 1 11 22
M  V30 25 1 12 23
M  V30 26 1 14 24
M  V30 27 1 15 25
M  V30 28 1 15 26
M  V30 29 1 15 27
M  V30 END BOND
M  V30 END CTAB
M  END
>  <Structure No>
5731

>  <LogS>
-5.8367

>  <MMFF94 Energy>
54.832

$$$$
Compound 5732
Actelion Java MolfileCreator 2.0

  0  0  0  0  0  0              0 V3000
M  V30 BEGIN CTAB
M  V30 COUNTS 30 32 0 0 0
M  V30 BEGIN ATOM
M  V30 1 C -0.1593 0.239 0.3984 0
M  V30 2 C 0.1821 -1.1082 0.1317 0
M  V30 3 C 0.8389 1.2247 0.4013 0
M  V30 4 C -1.4967 0.5791 0.6561 0
M  V30 5 C 1.5172 -1.4524 -0.1267 0
M  V30 6 C -0.8202 -2.0891 0.1243 0
M  V30 7 C 2.1739 0.8811 0.1431 0
M  V30 8 C -2.4935 -0.4093 0.6601 0
M  V30 9 C 2.5156 -0.4673 -0.1226 0
M  V30 10 C -2.1484 -1.7407 0.3816 0
M  V30 11 C 3.1769 1.8635 0.1455 0
M  V30 12 C -3.9312 -0.0349 0.9034 0
M  V30 13 C 3.8534 -0.806 -0.3806 0
M  V30 14 C 4.5048 1.5122 -0.1127 0
M  V30 15 C -4.6243 0.3259 -0.4062 0
M  V30 16 C 4.8418 0.182 -0.375 0
M  V30 17 H 0.5773 2.2577 0.6049 0
M  V30 18 H -1.7659 1.611 0.8525 0
M  V30 19 H 1.7787 -2.4851 -0.3314 0
M  V30 20 H -0.5778 -3.1245 -0.0837 0
M  V30 21 H -2.9104 -2.5102 0.3627 0
M  V30 22 H 2.9347 2.9004 0.3468 0
M  V30 23 H -4.4714 -0.88 1.3832 0
M  V30 24 H -3.9887 0.8305 1.5992 0
M  V30 25 H 4.1339 -1.8323 -0.5861 0
M  V30 26 H 5.2746 2.2731 -0.1098 0
M  V30 27 H -4.6062 -0.5394 -1.1027 0
M  V30 28 H -5.6817 0.5983 -0.2047 0
M  V30 29 H -4.1185 1.1921 -0.884 0
M  V30 30 H 5.8718 -0.0838 -0.5744 0
M  V30 END ATOM
M  V30 BEGIN BOND
M  V30 1 1 1 2
M  V30 2 1 1 3
M  V30 3 2 1 4
M  V30 4 1 2 5
M  V30 5 2 2 6
M  V30 6 2 3 7
M  V30 7 1 4 8
M  V30 8 2 5 9
M  V30 9 1 6 10
M  V30 10 1 7 11
M  V30 11 1 8 12
M  V30 12 1 9 13
M  V30 13 2 11 14
M  V30 14 1 12 15
M  V30 15 2 13 16
M  V30 16 1 7 9
M  V30 17 2 8 10
M  V30 18 1 14 16
M  V30 19 1 3 17
M  V30 20 1 4 18
M  V30 21 1 5 19
M  V30 22 1 6 20
M  V30 23 1 10 21
M  V30 24 1 11 22
M  V30 25 1 12 23
M  V30 26 1 12 24
M  V30 27 1 13 25
M  V30 28 1 14 26
M  V30 29 1 15 27
M  V30 30 1 15 28
M  V30 31 1 15 29
M  V30 32 1 16 30
M  V30 END BOND
M  V30 END CTAB
M  END
>  <Structure No>
5732

>  <LogS>
-6.8863

>  <MMFF94 Energy>
44.955

$$$$
Compound 5733
Actelion Java MolfileCreator 2.0

  0  0  0  0  0  0              0 V3000
M  V30 BEGIN CTAB
M  V30 COUNTS 24 24 0 0 0
M  V30 BEGIN ATOM
M  V30 1 C 0.3907 0.0781 -0.0781 0
M  V30 2 C 1.2249 -0.184 1.0336 0
M  V30 3 C 1.0095 0.5099 -1.2771 0
M  V30 4 C -1.1347 -0.1118 0.0526 0
M  V30 5 C 2.6103 -0.0223 0.9502 0
M  V30 6 C 2.3966 0.669 -1.3514 0
M  V30 7 C -1.9011 0.2167 -1.2513 0
M  V30 8 C -1.4412 -1.5802 0.4193 0
M  V30 9 C -1.6763 0.817 1.1612 0
M  V30 10 C 3.1957 0.4036 -0.2405 0
M  V30 11 H 0.8084 -0.516 1.9749 0
M  V30 12 H 0.4409 0.73 -2.1681 0
M  V30 13 H 3.2312 -0.2283 1.8127 0
M  V30 14 H 2.853 0.9997 -2.2756 0
M  V30 15 H -2.9944 0.0671 -1.1145 0
M  V30 16 H -1.5756 -0.4481 -2.0804 0
M  V30 17 H -1.7447 1.2769 -1.5465 0
M  V30 18 H -2.5382 -1.7516 0.4773 0
M  V30 19 H -1.0102 -1.8538 1.405 0
M  V30 20 H -1.0206 -2.2657 -0.3479 0
M  V30 21 H -1.2473 0.5631 2.153 0
M  V30 22 H -1.4267 1.8762 0.9338 0
M  V30 23 H -2.7814 0.7287 1.245 0
M  V30 24 H 4.269 0.5281 -0.3026 0
M  V30 END ATOM
M  V30 BEGIN BOND
M  V30 1 2 1 2
M  V30 2 1 1 3
M  V30 3 1 1 4
M  V30 4 1 2 5
M  V30 5 2 3 6
M  V30 6 1 4 7
M  V30 7 1 4 8
M  V30 8 1 4 9
M  V30 9 2 5 10
M  V30 10 1 6 10
M  V30 11 1 2 11
M  V30 12 1 3 12
M  V30 13 1 5 13
M  V30 14 1 6 14
M  V30 15 1 7 15
M  V30 16 1 7 16
M  V30 17 1 7 17
M  V30 18 1 8 18
M  V30 19 1 8 19
M  V30 20 1 8 20
M  V30 21 1 9 21
M  V30 22 1 9 22
M  V30 23 1 9 23
M  V30 24 1 10 24
M  V30 END BOND
M  V30 END CTAB
M  END
>  <Structure No>
5733

>  <LogS>
-3.658

>  <MMFF94 Energy>
34.485

$$$$
Compound 5734
Actelion Java MolfileCreator 2.0

  0  0  0  0  0  0              0 V3000
M  V30 BEGIN CTAB
M  V30 COUNTS 21 21 0 0 0
M  V30 BEGIN ATOM
M  V30 1 C 0.1558 -0.0779 -0.1558 0
M  V30 2 C 0.586 0.228 1.1507 0
M  V30 3 C 1.1029 -0.5214 -1.0969 0
M  V30 4 C -1.3011 0.0641 -0.5545 0
M  V30 5 C 1.9321 0.092 1.5026 0
M  V30 6 C 2.448 -0.6556 -0.7392 0
M  V30 7 C -2.1932 -0.8729 0.2682 0
M  V30 8 C -1.7683 1.5194 -0.4318 0
M  V30 9 C 2.8622 -0.3492 0.5589 0
M  V30 10 H -0.1178 0.5716 1.8975 0
M  V30 11 H 0.8028 -0.7642 -2.1086 0
M  V30 12 H -1.4224 -0.2267 -1.6221 0
M  V30 13 H 2.2544 0.329 2.5085 0
M  V30 14 H 3.1699 -0.9975 -1.4695 0
M  V30 15 H -3.2395 -0.8237 -0.102 0
M  V30 16 H -2.1863 -0.5923 1.3429 0
M  V30 17 H -1.8387 -1.921 0.1679 0
M  V30 18 H -2.8057 1.6192 -0.8169 0
M  V30 19 H -1.11 2.1824 -1.0328 0
M  V30 20 H -1.7511 1.8585 0.6257 0
M  V30 21 H 3.9039 -0.4538 0.8336 0
M  V30 END ATOM
M  V30 BEGIN BOND
M  V30 1 2 1 2
M  V30 2 1 1 3
M  V30 3 1 1 4
M  V30 4 1 2 5
M  V30 5 2 3 6
M  V30 6 1 4 7
M  V30 7 1 4 8
M  V30 8 2 5 9
M  V30 9 1 6 9
M  V30 10 1 2 10
M  V30 11 1 3 11
M  V30 12 1 4 12
M  V30 13 1 5 13
M  V30 14 1 6 14
M  V30 15 1 7 15
M  V30 16 1 7 16
M  V30 17 1 7 17
M  V30 18 1 8 18
M  V30 19 1 8 19
M  V30 20 1 8 20
M  V30 21 1 9 21
M  V30 END BOND
M  V30 END CTAB
M  END
>  <Structure No>
5734

>  <LogS>
-3.2924

>  <MMFF94 Energy>
22.953

$$$$
Compound 5735
Actelion Java MolfileCreator 2.0

  0  0  0  0  0  0              0 V3000
M  V30 BEGIN CTAB
M  V30 COUNTS 28 29 0 0 0
M  V30 BEGIN ATOM
M  V30 1 C -1.8166 -0.5526 -0.0789 0
M  V30 2 C -2.7283 0.4087 -0.5466 0
M  V30 3 C -2.2798 -1.6063 0.7266 0
M  V30 4 C -0.3493 -0.4206 -0.3869 0
M  V30 5 C -4.0868 0.3024 -0.232 0
M  V30 6 C -3.6391 -1.7088 1.0389 0
M  V30 7 C 0.3531 0.4145 0.6872 0
M  V30 8 C -4.5422 -0.7564 0.5582 0
M  V30 9 C 1.8204 0.5465 0.3792 0
M  V30 10 C 2.732 -0.4146 0.8472 0
M  V30 11 C 2.2835 1.6003 -0.4262 0
M  V30 12 C 4.0904 -0.3083 0.5325 0
M  V30 13 C 3.6428 1.7029 -0.7384 0
M  V30 14 C 4.5458 0.7506 -0.2576 0
M  V30 15 H -2.3868 1.2392 -1.1521 0
M  V30 16 H -1.589 -2.3455 1.113 0
M  V30 17 H -0.2157 0.0588 -1.3819 0
M  V30 18 H 0.1155 -1.4298 -0.4411 0
M  V30 19 H -4.786 1.0431 -0.5981 0
M  V30 20 H -3.992 -2.5246 1.6565 0
M  V30 21 H 0.2194 -0.0648 1.6823 0
M  V30 22 H -0.1118 1.4239 0.7416 0
M  V30 23 H -5.5938 -0.8364 0.802 0
M  V30 24 H 2.3904 -1.2451 1.4528 0
M  V30 25 H 1.5926 2.3396 -0.8126 0
M  V30 26 H 4.7895 -1.0489 0.8987 0
M  V30 27 H 3.9956 2.5188 -1.3558 0
M  V30 28 H 5.5972 0.8307 -0.5013 0
M  V30 END ATOM
M  V30 BEGIN BOND
M  V30 1 2 1 2
M  V30 2 1 1 3
M  V30 3 1 1 4
M  V30 4 1 2 5
M  V30 5 2 3 6
M  V30 6 1 4 7
M  V30 7 2 5 8
M  V30 8 1 7 9
M  V30 9 2 9 10
M  V30 10 1 9 11
M  V30 11 1 10 12
M  V30 12 2 11 13
M  V30 13 2 12 14
M  V30 14 1 6 8
M  V30 15 1 13 14
M  V30 16 1 2 15
M  V30 17 1 3 16
M  V30 18 1 4 17
M  V30 19 1 4 18
M  V30 20 1 5 19
M  V30 21 1 6 20
M  V30 22 1 7 21
M  V30 23 1 7 22
M  V30 24 1 8 23
M  V30 25 1 10 24
M  V30 26 1 11 25
M  V30 27 1 12 26
M  V30 28 1 13 27
M  V30 29 1 14 28
M  V30 END BOND
M  V30 END CTAB
M  END
>  <Structure No>
5735

>  <LogS>
-4.6272

>  <MMFF94 Energy>
43.174

$$$$
Compound 5736
Actelion Java MolfileCreator 2.0

  0  0  0  0  0  0              0 V3000
M  V30 BEGIN CTAB
M  V30 COUNTS 21 21 0 0 0
M  V30 BEGIN ATOM
M  V30 1 C 0.4672 0.3893 0.1557 0
M  V30 2 C 1.2453 -0.3138 1.0907 0
M  V30 3 C 1.0725 0.8805 -1.0132 0
M  V30 4 C -1.0117 0.5627 0.3755 0
M  V30 5 C 2.6133 -0.5014 0.8691 0
M  V30 6 C 2.4407 0.6906 -1.2307 0
M  V30 7 C -1.787 -0.6126 -0.228 0
M  V30 8 C 3.2108 0.002 -0.2894 0
M  V30 9 C -3.2889 -0.4513 -0.013 0
M  V30 10 H 0.7926 -0.7167 1.9883 0
M  V30 11 H 0.4852 1.408 -1.7546 0
M  V30 12 H -1.224 0.6323 1.4653 0
M  V30 13 H -1.3516 1.5147 -0.0889 0
M  V30 14 H 3.2093 -1.0402 1.5944 0
M  V30 15 H 2.9033 1.0744 -2.1308 0
M  V30 16 H -1.5843 -0.6741 -1.3196 0
M  V30 17 H -1.4557 -1.5626 0.2456 0
M  V30 18 H 4.2695 -0.1451 -0.4598 0
M  V30 19 H -3.5215 -0.4126 1.0725 0
M  V30 20 H -3.6506 0.4797 -0.4994 0
M  V30 21 H -3.8234 -1.3159 -0.4599 0
M  V30 END ATOM
M  V30 BEGIN BOND
M  V30 1 2 1 2
M  V30 2 1 1 3
M  V30 3 1 1 4
M  V30 4 1 2 5
M  V30 5 2 3 6
M  V30 6 1 4 7
M  V30 7 2 5 8
M  V30 8 1 7 9
M  V30 9 1 6 8
M  V30 10 1 2 10
M  V30 11 1 3 11
M  V30 12 1 4 12
M  V30 13 1 4 13
M  V30 14 1 5 14
M  V30 15 1 6 15
M  V30 16 1 7 16
M  V30 17 1 7 17
M  V30 18 1 8 18
M  V30 19 1 9 19
M  V30 20 1 9 20
M  V30 21 1 9 21
M  V30 END BOND
M  V30 END CTAB
M  END
>  <Structure No>
5736

>  <LogS>
-3.3622

>  <MMFF94 Energy>
17.83

$$$$
Compound 5737
Actelion Java MolfileCreator 2.0

  0  0  0  0  0  0              0 V3000
M  V30 BEGIN CTAB
M  V30 COUNTS 24 24 0 0 0
M  V30 BEGIN ATOM
M  V30 1 C -1.0911 -0.6234 -0.1558 0
M  V30 2 C -1.5121 -0.7246 1.1808 0
M  V30 3 C -1.9835 -0.1313 -1.1232 0
M  V30 4 C 0.3204 -0.9812 -0.5367 0
M  V30 5 C -2.8142 -0.3607 1.5385 0
M  V30 6 C -3.2847 0.2313 -0.7612 0
M  V30 7 C 1.2382 0.239 -0.4103 0
M  V30 8 C -3.7004 0.1148 0.5681 0
M  V30 9 C 2.6789 -0.1138 -0.7958 0
M  V30 10 C 3.5956 1.0995 -0.6708 0
M  V30 11 H -0.8324 -1.0829 1.9441 0
M  V30 12 H -1.671 -0.0274 -2.1548 0
M  V30 13 H 0.6905 -1.799 0.12 0
M  V30 14 H 0.3423 -1.3608 -1.5821 0
M  V30 15 H -3.1351 -0.4442 2.5688 0
M  V30 16 H -3.9698 0.606 -1.5106 0
M  V30 17 H 0.8666 1.0492 -1.0762 0
M  V30 18 H 1.2176 0.6074 0.6394 0
M  V30 19 H -4.7074 0.3972 0.8468 0
M  V30 20 H 3.0581 -0.9206 -0.1313 0
M  V30 21 H 2.7074 -0.4792 -1.8455 0
M  V30 22 H 3.605 1.47 0.3763 0
M  V30 23 H 3.2529 1.9132 -1.345 0
M  V30 24 H 4.6302 0.8146 -0.9559 0
M  V30 END ATOM
M  V30 BEGIN BOND
M  V30 1 2 1 2
M  V30 2 1 1 3
M  V30 3 1 1 4
M  V30 4 1 2 5
M  V30 5 2 3 6
M  V30 6 1 4 7
M  V30 7 2 5 8
M  V30 8 1 7 9
M  V30 9 1 9 10
M  V30 10 1 6 8
M  V30 11 1 2 11
M  V30 12 1 3 12
M  V30 13 1 4 13
M  V30 14 1 4 14
M  V30 15 1 5 15
M  V30 16 1 6 16
M  V30 17 1 7 17
M  V30 18 1 7 18
M  V30 19 1 8 19
M  V30 20 1 9 20
M  V30 21 1 9 21
M  V30 22 1 10 22
M  V30 23 1 10 23
M  V30 24 1 10 24
M  V30 END BOND
M  V30 END CTAB
M  END
>  <Structure No>
5737

>  <LogS>
-4.0559

>  <MMFF94 Energy>
17.523

$$$$
Compound 5738
Actelion Java MolfileCreator 2.0

  0  0  0  0  0  0              0 V3000
M  V30 BEGIN CTAB
M  V30 COUNTS 24 24 0 0 0
M  V30 BEGIN ATOM
M  V30 1 C -0.6237 0.3118 -0.3118 0
M  V30 2 C 0.6309 0.2541 0.3557 0
M  V30 3 C -1.2571 1.558 -0.4728 0
M  V30 4 C -1.3423 -0.9224 -0.81 0
M  V30 5 C 1.2282 1.45 0.7953 0
M  V30 6 C 1.3867 -1.0391 0.5654 0
M  V30 7 C -0.6532 2.7301 -0.0162 0
M  V30 8 C -2.2623 -1.4883 0.268 0
M  V30 9 C 0.5887 2.6767 0.6126 0
M  V30 10 C 2.3191 -1.3205 -0.6092 0
M  V30 11 H -2.2246 1.6224 -0.9559 0
M  V30 12 H -0.6279 -1.7025 -1.1422 0
M  V30 13 H -1.9542 -0.6692 -1.7035 0
M  V30 14 H 2.1948 1.4322 1.2839 0
M  V30 15 H 0.6964 -1.8944 0.7111 0
M  V30 16 H 1.9939 -0.9758 1.495 0
M  V30 17 H -1.1497 3.6824 -0.1516 0
M  V30 18 H -2.77 -2.398 -0.1162 0
M  V30 19 H -3.036 -0.7401 0.5441 0
M  V30 20 H -1.6821 -1.7612 1.1745 0
M  V30 21 H 1.0576 3.5881 0.9607 0
M  V30 22 H 3.0696 -0.5072 -0.7072 0
M  V30 23 H 2.8542 -2.2782 -0.4379 0
M  V30 24 H 1.7439 -1.3991 -1.5557 0
M  V30 END ATOM
M  V30 BEGIN BOND
M  V30 1 2 1 2
M  V30 2 1 1 3
M  V30 3 1 1 4
M  V30 4 1 2 5
M  V30 5 1 2 6
M  V30 6 2 3 7
M  V30 7 1 4 8
M  V30 8 2 5 9
M  V30 9 1 6 10
M  V30 10 1 7 9
M  V30 11 1 3 11
M  V30 12 1 4 12
M  V30 13 1 4 13
M  V30 14 1 5 14
M  V30 15 1 6 15
M  V30 16 1 6 16
M  V30 17 1 7 17
M  V30 18 1 8 18
M  V30 19 1 8 19
M  V30 20 1 8 20
M  V30 21 1 9 21
M  V30 22 1 10 22
M  V30 23 1 10 23
M  V30 24 1 10 24
M  V30 END BOND
M  V30 END CTAB
M  END
>  <Structure No>
5738

>  <LogS>
-3.2759

>  <MMFF94 Energy>
22.873

$$$$
Compound 5739
Actelion Java MolfileCreator 2.0

  0  0  0  0  0  0              0 V3000
M  V30 BEGIN CTAB
M  V30 COUNTS 24 24 0 0 0
M  V30 BEGIN ATOM
M  V30 1 C -1.2471 0.1558 -0.3896 0
M  V30 2 C -0.0081 0.7514 -0.1013 0
M  V30 3 C -1.2961 -0.9517 -1.2506 0
M  V30 4 C -2.5029 0.6609 0.2688 0
M  V30 5 C 1.1701 0.2658 -0.692 0
M  V30 6 C -0.1244 -1.4452 -1.8299 0
M  V30 7 C -2.7335 -0.0421 1.6024 0
M  V30 8 C 1.1046 -0.8424 -1.5509 0
M  V30 9 C 2.4989 0.8886 -0.3568 0
M  V30 10 C 3.1121 0.2239 0.8711 0
M  V30 11 H 0.0396 1.5891 0.5847 0
M  V30 12 H -2.2403 -1.4357 -1.4682 0
M  V30 13 H -2.4303 1.7572 0.4401 0
M  V30 14 H -3.3791 0.4876 -0.3933 0
M  V30 15 H -0.1683 -2.3009 -2.4912 0
M  V30 16 H -3.6632 0.3443 2.0709 0
M  V30 17 H -1.8825 0.1482 2.2909 0
M  V30 18 H -2.8419 -1.1369 1.4472 0
M  V30 19 H 2.0056 -1.2425 -1.9993 0
M  V30 20 H 3.1972 0.7868 -1.2161 0
M  V30 21 H 2.3727 1.9759 -0.1608 0
M  V30 22 H 2.4429 0.3451 1.7497 0
M  V30 23 H 3.2763 -0.8585 0.6817 0
M  V30 24 H 4.09 0.6972 1.1008 0
M  V30 END ATOM
M  V30 BEGIN BOND
M  V30 1 2 1 2
M  V30 2 1 1 3
M  V30 3 1 1 4
M  V30 4 1 2 5
M  V30 5 2 3 6
M  V30 6 1 4 7
M  V30 7 2 5 8
M  V30 8 1 5 9
M  V30 9 1 9 10
M  V30 10 1 6 8
M  V30 11 1 2 11
M  V30 12 1 3 12
M  V30 13 1 4 13
M  V30 14 1 4 14
M  V30 15 1 6 15
M  V30 16 1 7 16
M  V30 17 1 7 17
M  V30 18 1 7 18
M  V30 19 1 8 19
M  V30 20 1 9 20
M  V30 21 1 9 21
M  V30 22 1 10 22
M  V30 23 1 10 23
M  V30 24 1 10 24
M  V30 END BOND
M  V30 END CTAB
M  END
>  <Structure No>
5739

>  <LogS>
-3.7476

>  <MMFF94 Energy>
19.865

$$$$
Compound 5740
Actelion Java MolfileCreator 2.0

  0  0  0  0  0  0              0 V3000
M  V30 BEGIN CTAB
M  V30 COUNTS 21 21 0 0 0
M  V30 BEGIN ATOM
M  V30 1 C 0.1559 -0.3899 -0.0779 0
M  V30 2 C 1.092 0.6726 0.0445 0
M  V30 3 C -1.2318 -0.105 0.0373 0
M  V30 4 C 0.6337 -1.8162 -0.2516 0
M  V30 5 C 0.6306 1.9908 0.1877 0
M  V30 6 C 2.5791 0.4308 -0.0034 0
M  V30 7 C -1.6576 1.2251 0.1806 0
M  V30 8 C -2.2737 -1.193 -0.0183 0
M  V30 9 C -0.7329 2.2629 0.2496 0
M  V30 10 H 1.5827 -1.8637 -0.8228 0
M  V30 11 H 0.7855 -2.2791 0.7455 0
M  V30 12 H -0.0923 -2.4241 -0.828 0
M  V30 13 H 1.3297 2.8152 0.2566 0
M  V30 14 H 2.8563 -0.3937 0.6864 0
M  V30 15 H 2.8821 0.1692 -1.0386 0
M  V30 16 H 3.1504 1.331 0.3091 0
M  V30 17 H -2.7125 1.4624 0.2441 0
M  V30 18 H -2.0026 -2.0196 0.6715 0
M  V30 19 H -3.2734 -0.8186 0.2892 0
M  V30 20 H -2.3523 -1.5825 -1.0548 0
M  V30 21 H -1.0749 3.2839 0.3613 0
M  V30 END ATOM
M  V30 BEGIN BOND
M  V30 1 2 1 2
M  V30 2 1 1 3
M  V30 3 1 1 4
M  V30 4 1 2 5
M  V30 5 1 2 6
M  V30 6 2 3 7
M  V30 7 1 3 8
M  V30 8 2 5 9
M  V30 9 1 7 9
M  V30 10 1 4 10
M  V30 11 1 4 11
M  V30 12 1 4 12
M  V30 13 1 5 13
M  V30 14 1 6 14
M  V30 15 1 6 15
M  V30 16 1 6 16
M  V30 17 1 7 17
M  V30 18 1 8 18
M  V30 19 1 8 19
M  V30 20 1 8 20
M  V30 21 1 9 21
M  V30 END BOND
M  V30 END CTAB
M  END
>  <Structure No>
5740

>  <LogS>
-3.2037

>  <MMFF94 Energy>
26.573

$$$$
Compound 5741
Actelion Java MolfileCreator 2.0

  0  0  0  0  0  0              0 V3000
M  V30 BEGIN CTAB
M  V30 COUNTS 14 14 0 0 0
M  V30 BEGIN ATOM
M  V30 1 C 0.9387 -1.2517 1.4866 0
M  V30 2 C 1.4508 -1.9437 2.3306 0
M  V30 3 C 0.327 -0.4253 0.4789 0
M  V30 4 C 0.2261 -0.8854 -0.8413 0
M  V30 5 C -0.1693 0.842 0.8152 0
M  V30 6 C -0.3684 -0.081 -1.8194 0
M  V30 7 C -0.7633 1.6439 -0.1651 0
M  V30 8 C -0.8629 1.1827 -1.4816 0
M  V30 9 H 1.9003 -2.5512 3.0715 0
M  V30 10 H 0.606 -1.8629 -1.1133 0
M  V30 11 H -0.0971 1.2086 1.8323 0
M  V30 12 H -0.4459 -0.4371 -2.8386 0
M  V30 13 H -1.1464 2.6222 0.0953 0
M  V30 14 H -1.3227 1.804 -2.2392 0
M  V30 END ATOM
M  V30 BEGIN BOND
M  V30 1 3 1 2
M  V30 2 1 1 3
M  V30 3 2 3 4
M  V30 4 1 3 5
M  V30 5 1 4 6
M  V30 6 2 5 7
M  V30 7 2 6 8
M  V30 8 1 7 8
M  V30 9 1 2 9
M  V30 10 1 4 10
M  V30 11 1 5 11
M  V30 12 1 6 12
M  V30 13 1 7 13
M  V30 14 1 8 14
M  V30 END BOND
M  V30 END CTAB
M  END
>  <Structure No>
5741

>  <LogS>
-2.3502

>  <MMFF94 Energy>
16.163

$$$$
Compound 5742
Actelion Java MolfileCreator 2.0

  0  0  0  0  0  0              0 V3000
M  V30 BEGIN CTAB
M  V30 COUNTS 27 27 0 0 0
M  V30 BEGIN ATOM
M  V30 1 C 1.6382 -0.3898 0.2339 0
M  V30 2 C 1.8799 -0.16 1.5988 0
M  V30 3 C 2.518 0.1468 -0.7209 0
M  V30 4 C 0.4153 -1.1512 -0.203 0
M  V30 5 C 2.9987 0.5757 2.0016 0
M  V30 6 C 3.6357 0.882 -0.3137 0
M  V30 7 C -0.7687 -0.1993 -0.4041 0
M  V30 8 C 3.8769 1.0947 1.0463 0
M  V30 9 C -2.0249 -0.968 -0.8387 0
M  V30 10 C -3.2019 -0.0371 -1.1684 0
M  V30 11 C -3.7921 0.6325 0.0723 0
M  V30 12 H 1.2019 -0.5486 2.3487 0
M  V30 13 H 2.3371 -0.0028 -1.7781 0
M  V30 14 H 0.1558 -1.9161 0.5617 0
M  V30 15 H 0.6291 -1.6911 -1.1517 0
M  V30 16 H 3.1829 0.7468 3.0543 0
M  V30 17 H 4.3128 1.2901 -1.0529 0
M  V30 18 H -0.9676 0.3326 0.551 0
M  V30 19 H -0.5067 0.5522 -1.1814 0
M  V30 20 H 4.7417 1.6651 1.3596 0
M  V30 21 H -2.3243 -1.6857 -0.0435 0
M  V30 22 H -1.7879 -1.5565 -1.7521 0
M  V30 23 H -4.0013 -0.64 -1.6513 0
M  V30 24 H -2.8829 0.7408 -1.8957 0
M  V30 25 H -4.0674 -0.1295 0.832 0
M  V30 26 H -3.0702 1.3509 0.5127 0
M  V30 27 H -4.707 1.1937 -0.2118 0
M  V30 END ATOM
M  V30 BEGIN BOND
M  V30 1 2 1 2
M  V30 2 1 1 3
M  V30 3 1 1 4
M  V30 4 1 2 5
M  V30 5 2 3 6
M  V30 6 1 4 7
M  V30 7 2 5 8
M  V30 8 1 7 9
M  V30 9 1 9 10
M  V30 10 1 10 11
M  V30 11 1 6 8
M  V30 12 1 2 12
M  V30 13 1 3 13
M  V30 14 1 4 14
M  V30 15 1 4 15
M  V30 16 1 5 16
M  V30 17 1 6 17
M  V30 18 1 7 18
M  V30 19 1 7 19
M  V30 20 1 8 20
M  V30 21 1 9 21
M  V30 22 1 9 22
M  V30 23 1 10 23
M  V30 24 1 10 24
M  V30 25 1 11 25
M  V30 26 1 11 26
M  V30 27 1 11 27
M  V30 END BOND
M  V30 END CTAB
M  END
>  <Structure No>
5742

>  <LogS>
-4.6434

>  <MMFF94 Energy>
17.309

$$$$
Compound 5743
Actelion Java MolfileCreator 2.0

  0  0  0  0  0  0              0 V3000
M  V30 BEGIN CTAB
M  V30 COUNTS 24 24 0 0 0
M  V30 BEGIN ATOM
M  V30 1 C 0.7799 -0.3899 0.4679 0
M  V30 2 C 1.5517 -1.1078 -0.4612 0
M  V30 3 C 1.3588 0.6922 1.1528 0
M  V30 4 C -0.6639 -0.7591 0.7004 0
M  V30 5 C 2.8843 -0.7537 -0.6935 0
M  V30 6 C 2.6917 1.0432 0.9172 0
M  V30 7 C -1.5834 -0.2449 -0.428 0
M  V30 8 C 3.4541 0.3204 -0.0043 0
M  V30 9 C -2.9963 -0.817 -0.2594 0
M  V30 10 C -1.639 1.2898 -0.4583 0
M  V30 11 H 1.1201 -1.9391 -1.0049 0
M  V30 12 H 0.7775 1.266 1.8642 0
M  V30 13 H -0.7351 -1.8675 0.7607 0
M  V30 14 H -1.0117 -0.3647 1.6812 0
M  V30 15 H 3.4748 -1.3108 -1.4093 0
M  V30 16 H 3.1328 1.8773 1.4475 0
M  V30 17 H -1.19 -0.6005 -1.4062 0
M  V30 18 H 4.4854 0.5939 -0.1859 0
M  V30 19 H -3.439 -0.4903 0.7064 0
M  V30 20 H -2.9665 -1.9273 -0.2832 0
M  V30 21 H -3.6516 -0.4744 -1.0887 0
M  V30 22 H -1.9861 1.6892 0.5189 0
M  V30 23 H -0.637 1.7104 -0.6848 0
M  V30 24 H -2.335 1.6333 -1.2532 0
M  V30 END ATOM
M  V30 BEGIN BOND
M  V30 1 2 1 2
M  V30 2 1 1 3
M  V30 3 1 1 4
M  V30 4 1 2 5
M  V30 5 2 3 6
M  V30 6 1 4 7
M  V30 7 2 5 8
M  V30 8 1 7 9
M  V30 9 1 7 10
M  V30 10 1 6 8
M  V30 11 1 2 11
M  V30 12 1 3 12
M  V30 13 1 4 13
M  V30 14 1 4 14
M  V30 15 1 5 15
M  V30 16 1 6 16
M  V30 17 1 7 17
M  V30 18 1 8 18
M  V30 19 1 9 19
M  V30 20 1 9 20
M  V30 21 1 9 21
M  V30 22 1 10 22
M  V30 23 1 10 23
M  V30 24 1 10 24
M  V30 END BOND
M  V30 END CTAB
M  END
>  <Structure No>
5743

>  <LogS>
-4.1235

>  <MMFF94 Energy>
22.316

$$$$
Compound 5744
Actelion Java MolfileCreator 2.0

  0  0  0  0  0  0              0 V3000
M  V30 BEGIN CTAB
M  V30 COUNTS 21 21 0 0 0
M  V30 BEGIN ATOM
M  V30 1 C 0.1558 -0.3116 -0.3896 0
M  V30 2 C -0.6739 0.7931 -0.0628 0
M  V30 3 C -0.3596 -1.6151 -0.2715 0
M  V30 4 C 1.5982 -0.1434 -0.8112 0
M  V30 5 C -2.0027 0.5611 0.3356 0
M  V30 6 C -0.1817 2.2131 -0.1681 0
M  V30 7 C -1.6779 -1.8257 0.1349 0
M  V30 8 C 2.5307 -0.2305 0.3933 0
M  V30 9 C -2.4986 -0.7397 0.4348 0
M  V30 10 H 0.2634 -2.4723 -0.4959 0
M  V30 11 H 1.7566 0.8221 -1.3348 0
M  V30 12 H 1.8739 -0.9397 -1.5367 0
M  V30 13 H -2.6591 1.3891 0.5736 0
M  V30 14 H -0.0267 2.476 -1.2353 0
M  V30 15 H -0.9108 2.9316 0.2635 0
M  V30 16 H 0.7721 2.3329 0.3854 0
M  V30 17 H -2.0638 -2.8335 0.2178 0
M  V30 18 H 2.4367 -1.2241 0.8815 0
M  V30 19 H 3.5814 -0.097 0.0605 0
M  V30 20 H 2.2887 0.5617 1.1325 0
M  V30 21 H -3.5218 -0.9059 0.7468 0
M  V30 END ATOM
M  V30 BEGIN BOND
M  V30 1 2 1 2
M  V30 2 1 1 3
M  V30 3 1 1 4
M  V30 4 1 2 5
M  V30 5 1 2 6
M  V30 6 2 3 7
M  V30 7 1 4 8
M  V30 8 2 5 9
M  V30 9 1 7 9
M  V30 10 1 3 10
M  V30 11 1 4 11
M  V30 12 1 4 12
M  V30 13 1 5 13
M  V30 14 1 6 14
M  V30 15 1 6 15
M  V30 16 1 6 16
M  V30 17 1 7 17
M  V30 18 1 8 18
M  V30 19 1 8 19
M  V30 20 1 8 20
M  V30 21 1 9 21
M  V30 END BOND
M  V30 END CTAB
M  END
>  <Structure No>
5744

>  <LogS>
-3.2072

>  <MMFF94 Energy>
21.985

$$$$
Compound 5745
Actelion Java MolfileCreator 2.0

  0  0  0  0  0  0              0 V3000
M  V30 BEGIN CTAB
M  V30 COUNTS 28 29 0 0 0
M  V30 BEGIN ATOM
M  V30 1 C 0.7108 0.0789 -0.2369 0
M  V30 2 C -0.7693 0.0174 -0.1282 0
M  V30 3 C 1.4523 0.9521 0.5797 0
M  V30 4 C 1.3953 -0.739 -1.154 0
M  V30 5 C -1.5671 -0.0946 -1.2815 0
M  V30 6 C -1.3968 0.0649 1.1298 0
M  V30 7 C 2.8451 1.0094 0.4767 0
M  V30 8 C 2.7884 -0.6811 -1.2549 0
M  V30 9 C -2.96 -0.1521 -1.1784 0
M  V30 10 C -2.7898 0.0063 1.2312 0
M  V30 11 C 3.5203 0.2046 -0.4515 0
M  V30 12 C -3.5806 -0.0865 0.0772 0
M  V30 13 C 5.0178 0.2377 -0.533 0
M  V30 14 C -5.0729 -0.1889 0.1893 0
M  V30 15 H 0.9541 1.6017 1.2884 0
M  V30 16 H 0.8552 -1.4393 -1.7787 0
M  V30 17 H -1.1149 -0.1233 -2.2648 0
M  V30 18 H -0.8095 0.1259 2.0375 0
M  V30 19 H 3.3966 1.6852 1.1189 0
M  V30 20 H 3.296 -1.3296 -1.9582 0
M  V30 21 H -3.5548 -0.2436 -2.0789 0
M  V30 22 H -3.2513 0.0307 2.2109 0
M  V30 23 H 5.4423 -0.5024 0.1767 0
M  V30 24 H 5.3597 -0.008 -1.5609 0
M  V30 25 H 5.4018 1.2481 -0.2761 0
M  V30 26 H -5.5641 0.2464 -0.7069 0
M  V30 27 H -5.3639 -1.2562 0.2794 0
M  V30 28 H -5.4377 0.3628 1.0821 0
M  V30 END ATOM
M  V30 BEGIN BOND
M  V30 1 1 1 2
M  V30 2 2 1 3
M  V30 3 1 1 4
M  V30 4 2 2 5
M  V30 5 1 2 6
M  V30 6 1 3 7
M  V30 7 2 4 8
M  V30 8 1 5 9
M  V30 9 2 6 10
M  V30 10 2 7 11
M  V30 11 2 9 12
M  V30 12 1 11 13
M  V30 13 1 12 14
M  V30 14 1 8 11
M  V30 15 1 10 12
M  V30 16 1 3 15
M  V30 17 1 4 16
M  V30 18 1 5 17
M  V30 19 1 6 18
M  V30 20 1 7 19
M  V30 21 1 8 20
M  V30 22 1 9 21
M  V30 23 1 10 22
M  V30 24 1 13 23
M  V30 25 1 13 24
M  V30 26 1 13 25
M  V30 27 1 14 26
M  V30 28 1 14 27
M  V30 29 1 14 28
M  V30 END BOND
M  V30 END CTAB
M  END
>  <Structure No>
5745

>  <LogS>
-6.0177

>  <MMFF94 Energy>
43.534

$$$$
Compound 5746
Actelion Java MolfileCreator 2.0

  0  0  0  0  0  0              0 V3000
M  V30 BEGIN CTAB
M  V30 COUNTS 21 21 0 0 0
M  V30 BEGIN ATOM
M  V30 1 C -0.8566 0.0778 -0.3893 0
M  V30 2 C -0.1124 1.2202 -0.055 0
M  V30 3 C -0.1926 -1.1439 -0.5806 0
M  V30 4 C -2.3574 0.1486 -0.478 0
M  V30 5 C 1.279 1.1476 0.0586 0
M  V30 6 C 1.1988 -1.2162 -0.4668 0
M  V30 7 C -2.9929 -0.1316 0.8797 0
M  V30 8 C 1.9447 -0.0671 -0.1637 0
M  V30 9 C 3.4332 -0.1537 -0.0015 0
M  V30 10 H -0.6104 2.1655 0.1221 0
M  V30 11 H -0.753 -2.0409 -0.813 0
M  V30 12 H -2.6727 1.1552 -0.8295 0
M  V30 13 H -2.732 -0.5917 -1.218 0
M  V30 14 H 1.8365 2.0379 0.3223 0
M  V30 15 H 1.6937 -2.1683 -0.6126 0
M  V30 16 H -2.6559 0.6199 1.6254 0
M  V30 17 H -2.7159 -1.148 1.2324 0
M  V30 18 H -4.0983 -0.0746 0.7919 0
M  V30 19 H 3.8539 -0.9424 -0.661 0
M  V30 20 H 3.9134 0.811 -0.2713 0
M  V30 21 H 3.6761 -0.3965 1.0539 0
M  V30 END ATOM
M  V30 BEGIN BOND
M  V30 1 2 1 2
M  V30 2 1 1 3
M  V30 3 1 1 4
M  V30 4 1 2 5
M  V30 5 2 3 6
M  V30 6 1 4 7
M  V30 7 2 5 8
M  V30 8 1 8 9
M  V30 9 1 6 8
M  V30 10 1 2 10
M  V30 11 1 3 11
M  V30 12 1 4 12
M  V30 13 1 4 13
M  V30 14 1 5 14
M  V30 15 1 6 15
M  V30 16 1 7 16
M  V30 17 1 7 17
M  V30 18 1 7 18
M  V30 19 1 9 19
M  V30 20 1 9 20
M  V30 21 1 9 21
M  V30 END BOND
M  V30 END CTAB
M  END
>  <Structure No>
5746

>  <LogS>
-3.1026

>  <MMFF94 Energy>
20.239

$$$$
Compound 5747
Actelion Java MolfileCreator 2.0

  0  0  0  0  0  0              0 V3000
M  V30 BEGIN CTAB
M  V30 COUNTS 27 27 0 0 0
M  V30 BEGIN ATOM
M  V30 1 C 0.0 1.0167 0.0 0
M  V30 2 C -1.2537 0.3436 -0.0036 0
M  V30 3 C 1.2052 0.2625 -0.0555 0
M  V30 4 C 0.0504 2.533 0.0232 0
M  V30 5 C -1.2866 -1.0651 0.1349 0
M  V30 6 C -2.5473 1.1288 -0.1026 0
M  V30 7 C 1.1508 -1.1455 0.0835 0
M  V30 8 C 2.5423 0.9608 -0.2099 0
M  V30 9 C -0.089 -1.786 0.1717 0
M  V30 10 C -2.5856 -1.8275 0.2272 0
M  V30 11 C 2.3994 -1.992 0.1221 0
M  V30 12 H 0.9534 2.9038 0.5499 0
M  V30 13 H -0.8031 2.9618 0.587 0
M  V30 14 H 0.0413 2.9241 -1.0155 0
M  V30 15 H -2.4327 2.0019 -0.7782 0
M  V30 16 H -3.3704 0.5293 -0.5396 0
M  V30 17 H -2.8503 1.477 0.9069 0
M  V30 18 H 2.9098 1.2869 0.7854 0
M  V30 19 H 2.4571 1.8404 -0.8813 0
M  V30 20 H 3.3049 0.309 -0.6804 0
M  V30 21 H -0.1227 -2.8655 0.2647 0
M  V30 22 H -2.4243 -2.8784 0.5491 0
M  V30 23 H -3.0823 -1.8421 -0.7654 0
M  V30 24 H -3.2566 -1.3546 0.9751 0
M  V30 25 H 2.1828 -3.0305 0.4518 0
M  V30 26 H 2.8518 -2.0379 -0.8905 0
M  V30 27 H 3.1309 -1.5654 0.8404 0
M  V30 END ATOM
M  V30 BEGIN BOND
M  V30 1 2 1 2
M  V30 2 1 1 3
M  V30 3 1 1 4
M  V30 4 1 2 5
M  V30 5 1 2 6
M  V30 6 2 3 7
M  V30 7 1 3 8
M  V30 8 2 5 9
M  V30 9 1 5 10
M  V30 10 1 7 11
M  V30 11 1 7 9
M  V30 12 1 4 12
M  V30 13 1 4 13
M  V30 14 1 4 14
M  V30 15 1 6 15
M  V30 16 1 6 16
M  V30 17 1 6 17
M  V30 18 1 8 18
M  V30 19 1 8 19
M  V30 20 1 8 20
M  V30 21 1 9 21
M  V30 22 1 10 22
M  V30 23 1 10 23
M  V30 24 1 10 24
M  V30 25 1 11 25
M  V30 26 1 11 26
M  V30 27 1 11 27
M  V30 END BOND
M  V30 END CTAB
M  END
>  <Structure No>
5747

>  <LogS>
-3.9807

>  <MMFF94 Energy>
36.249

$$$$
Compound 5748
Actelion Java MolfileCreator 2.0

  0  0  0  0  0  0              0 V3000
M  V30 BEGIN CTAB
M  V30 COUNTS 30 30 0 0 0
M  V30 BEGIN ATOM
M  V30 1 C -1.7175 0.4681 0.7804 0
M  V30 2 C -1.8232 -0.9176 0.9895 0
M  V30 3 C -2.8404 1.1827 0.3294 0
M  V30 4 C -0.408 1.1802 1.0086 0
M  V30 5 C -3.0347 -1.5752 0.7541 0
M  V30 6 C -4.05 0.5212 0.0956 0
M  V30 7 C 0.299 1.5352 -0.3105 0
M  V30 8 C -4.1472 -0.8566 0.3077 0
M  V30 9 C 0.6919 0.3182 -1.1719 0
M  V30 10 C 1.704 -0.6404 -0.5188 0
M  V30 11 C 3.0607 0.0217 -0.2382 0
M  V30 12 C 4.0872 -1.0056 0.2302 0
M  V30 13 H -0.9708 -1.489 1.3339 0
M  V30 14 H -2.7774 2.2503 0.1579 0
M  V30 15 H 0.2639 0.5808 1.6584 0
M  V30 16 H -0.6087 2.1227 1.5633 0
M  V30 17 H -3.1108 -2.6425 0.9169 0
M  V30 18 H -4.9118 1.0767 -0.2514 0
M  V30 19 H 1.1985 2.1461 -0.0874 0
M  V30 20 H -0.3732 2.1847 -0.9127 0
M  V30 21 H -5.0839 -1.3674 0.1256 0
M  V30 22 H -0.2227 -0.2546 -1.4365 0
M  V30 23 H 1.1195 0.6896 -2.1287 0
M  V30 24 H 1.8583 -1.491 -1.2185 0
M  V30 25 H 1.2893 -1.0645 0.4187 0
M  V30 26 H 3.4397 0.5138 -1.1603 0
M  V30 27 H 2.9509 0.79 0.5562 0
M  V30 28 H 5.0524 -0.498 0.4398 0
M  V30 29 H 4.2536 -1.7723 -0.5561 0
M  V30 30 H 3.7379 -1.5031 1.1602 0
M  V30 END ATOM
M  V30 BEGIN BOND
M  V30 1 2 1 2
M  V30 2 1 1 3
M  V30 3 1 1 4
M  V30 4 1 2 5
M  V30 5 2 3 6
M  V30 6 1 4 7
M  V30 7 2 5 8
M  V30 8 1 7 9
M  V30 9 1 9 10
M  V30 10 1 10 11
M  V30 11 1 11 12
M  V30 12 1 6 8
M  V30 13 1 2 13
M  V30 14 1 3 14
M  V30 15 1 4 15
M  V30 16 1 4 16
M  V30 17 1 5 17
M  V30 18 1 6 18
M  V30 19 1 7 19
M  V30 20 1 7 20
M  V30 21 1 8 21
M  V30 22 1 9 22
M  V30 23 1 9 23
M  V30 24 1 10 24
M  V30 25 1 10 25
M  V30 26 1 11 26
M  V30 27 1 11 27
M  V30 28 1 12 28
M  V30 29 1 12 29
M  V30 30 1 12 30
M  V30 END BOND
M  V30 END CTAB
M  END
>  <Structure No>
5748

>  <LogS>
-5.2551

>  <MMFF94 Energy>
17.136

$$$$
Compound 5749
Actelion Java MolfileCreator 2.0

  0  0  0  0  0  0              0 V3000
M  V30 BEGIN CTAB
M  V30 COUNTS 36 36 0 0 0
M  V30 BEGIN ATOM
M  V30 1 C -3.5168 0.078 -0.8587 0
M  V30 2 C -4.111 -1.1933 -0.7906 0
M  V30 3 C -4.2463 1.2022 -0.4366 0
M  V30 4 C -2.0924 0.2268 -1.3217 0
M  V30 5 C -5.4237 -1.3333 -0.3291 0
M  V30 6 C -5.5587 1.0578 0.0241 0
M  V30 7 C -1.1264 0.1066 -0.1384 0
M  V30 8 C -6.1476 -0.2085 0.0759 0
M  V30 9 C 0.3285 0.2565 -0.5975 0
M  V30 10 C 1.2946 0.1359 0.5868 0
M  V30 11 C 2.75 0.2867 0.1285 0
M  V30 12 C 3.7163 0.1552 1.315 0
M  V30 13 C 5.1768 0.4215 0.9193 0
M  V30 14 C 5.767 -0.6912 0.0535 0
M  V30 15 H -3.5577 -2.0739 -1.0927 0
M  V30 16 H -3.7984 2.1879 -0.4629 0
M  V30 17 H -1.8597 -0.5552 -2.0775 0
M  V30 18 H -1.9595 1.2146 -1.8159 0
M  V30 19 H -5.8786 -2.3142 -0.2823 0
M  V30 20 H -6.1181 1.9274 0.3444 0
M  V30 21 H -1.3602 0.8973 0.6085 0
M  V30 22 H -1.2595 -0.8866 0.3449 0
M  V30 23 H -7.1631 -0.3188 0.434 0
M  V30 24 H 0.5614 -0.5339 -1.3446 0
M  V30 25 H 0.4611 1.2498 -1.0806 0
M  V30 26 H 1.1626 -0.8576 1.0697 0
M  V30 27 H 1.06 0.926 1.3341 0
M  V30 28 H 2.9729 -0.4998 -0.6235 0
M  V30 29 H 2.8829 1.2829 -0.348 0
M  V30 30 H 3.4323 0.8969 2.0936 0
M  V30 31 H 3.6272 -0.8573 1.7662 0
M  V30 32 H 5.2579 1.3927 0.3846 0
M  V30 33 H 5.7832 0.4982 1.8477 0
M  V30 34 H 6.8506 -0.5033 -0.0992 0
M  V30 35 H 5.278 -0.7164 -0.9419 0
M  V30 36 H 5.6465 -1.6767 0.5513 0
M  V30 END ATOM
M  V30 BEGIN BOND
M  V30 1 2 1 2
M  V30 2 1 1 3
M  V30 3 1 1 4
M  V30 4 1 2 5
M  V30 5 2 3 6
M  V30 6 1 4 7
M  V30 7 2 5 8
M  V30 8 1 7 9
M  V30 9 1 9 10
M  V30 10 1 10 11
M  V30 11 1 11 12
M  V30 12 1 12 13
M  V30 13 1 13 14
M  V30 14 1 6 8
M  V30 15 1 2 15
M  V30 16 1 3 16
M  V30 17 1 4 17
M  V30 18 1 4 18
M  V30 19 1 5 19
M  V30 20 1 6 20
M  V30 21 1 7 21
M  V30 22 1 7 22
M  V30 23 1 8 23
M  V30 24 1 9 24
M  V30 25 1 9 25
M  V30 26 1 10 26
M  V30 27 1 10 27
M  V30 28 1 11 28
M  V30 29 1 11 29
M  V30 30 1 12 30
M  V30 31 1 12 31
M  V30 32 1 13 32
M  V30 33 1 13 33
M  V30 34 1 14 34
M  V30 35 1 14 35
M  V30 36 1 14 36
M  V30 END BOND
M  V30 END CTAB
M  END
>  <Structure No>
5749

>  <LogS>
-6.46

>  <MMFF94 Energy>
18.297

$$$$
Compound 5750
Actelion Java MolfileCreator 2.0

  0  0  0  0  0  0              0 V3000
M  V30 BEGIN CTAB
M  V30 COUNTS 14 14 0 0 0
M  V30 BEGIN ATOM
M  V30 1 Cl 3.5271 -0.3809 -0.7619 0
M  V30 2 C 1.8186 -0.1865 -0.3611 0
M  V30 3 C 1.0727 -1.2889 0.0886 0
M  V30 4 C 1.2051 1.0708 -0.4917 0
M  V30 5 Cl 1.8474 -2.8663 0.2587 0
M  V30 6 C -0.2875 -1.1352 0.4092 0
M  V30 7 Cl 2.1427 2.4535 -1.0636 0
M  V30 8 C -0.1554 1.2269 -0.1739 0
M  V30 9 Cl -1.2009 -2.5124 1.0315 0
M  V30 10 C -0.9071 0.1236 0.2792 0
M  V30 11 Cl -0.9318 2.7973 -0.3986 0
M  V30 12 N -2.297 0.2789 0.6031 0 CHG=1
M  V30 13 O -2.6637 1.1622 1.405 0
M  V30 14 O -3.2383 -0.5496 0.0379 0 CHG=-1
M  V30 END ATOM
M  V30 BEGIN BOND
M  V30 1 1 1 2
M  V30 2 2 2 3
M  V30 3 1 2 4
M  V30 4 1 3 5
M  V30 5 1 3 6
M  V30 6 1 4 7
M  V30 7 2 4 8
M  V30 8 1 6 9
M  V30 9 2 6 10
M  V30 10 1 8 11
M  V30 11 1 10 12
M  V30 12 2 12 13
M  V30 13 1 12 14
M  V30 14 1 8 10
M  V30 END BOND
M  V30 END CTAB
M  END
>  <Structure No>
5750

>  <LogS>
-5.8269

>  <MMFF94 Energy>
15.299

$$$$
Compound 5751
Actelion Java MolfileCreator 2.0

  0  0  0  0  0  0              0 V3000
M  V30 BEGIN CTAB
M  V30 COUNTS 14 14 0 0 0
M  V30 BEGIN ATOM
M  V30 1 Cl 3.3841 1.3349 -0.0889 0
M  V30 2 C 1.7483 0.6907 -0.0441 0
M  V30 3 C 1.511 -0.6824 0.1122 0
M  V30 4 C 0.6701 1.5722 -0.1584 0
M  V30 5 Cl 2.8391 -1.8249 0.2655 0
M  V30 6 C 0.1977 -1.162 0.1451 0
M  V30 7 C -0.6469 1.0988 -0.1264 0
M  V30 8 C -0.8953 -0.2854 0.0167 0
M  V30 9 Cl -1.9443 2.2862 -0.1962 0
M  V30 10 N -2.2341 -0.8143 0.0369 0 CHG=1
M  V30 11 O -2.4757 -1.8879 0.6267 0
M  V30 12 O -3.23 -0.238 -0.7165 0 CHG=-1
M  V30 13 H 0.8567 2.6339 -0.2629 0
M  V30 14 H 0.0294 -2.2259 0.2556 0
M  V30 END ATOM
M  V30 BEGIN BOND
M  V30 1 1 1 2
M  V30 2 2 2 3
M  V30 3 1 2 4
M  V30 4 1 3 5
M  V30 5 1 3 6
M  V30 6 2 4 7
M  V30 7 2 6 8
M  V30 8 1 7 9
M  V30 9 1 8 10
M  V30 10 2 10 11
M  V30 11 1 10 12
M  V30 12 1 7 8
M  V30 13 1 4 13
M  V30 14 1 6 14
M  V30 END BOND
M  V30 END CTAB
M  END
>  <Structure No>
5751

>  <LogS>
-3.8866

>  <MMFF94 Energy>
28.29

$$$$
Compound 5752
Actelion Java MolfileCreator 2.0

  0  0  0  0  0  0              0 V3000
M  V30 BEGIN CTAB
M  V30 COUNTS 15 15 0 0 0
M  V30 BEGIN ATOM
M  V30 1 Cl -0.7251 2.7417 0.1611 0
M  V30 2 C 0.0666 1.1742 0.039 0
M  V30 3 C -0.6741 -0.0265 0.0249 0
M  V30 4 C 1.4639 1.1341 -0.0451 0
M  V30 5 C 0.0069 -1.2524 -0.0741 0
M  V30 6 C -2.1748 -0.0075 0.1143 0
M  V30 7 C 2.1291 -0.0901 -0.1432 0
M  V30 8 C 1.4017 -1.2815 -0.1577 0
M  V30 9 H 2.0361 2.0531 -0.0346 0
M  V30 10 H -0.5396 -2.1872 -0.0869 0
M  V30 11 H -2.5941 0.562 -0.7414 0
M  V30 12 H -2.4877 0.4751 1.0641 0
M  V30 13 H -2.5998 -1.0336 0.0901 0
M  V30 14 H 3.2091 -0.1151 -0.208 0
M  V30 15 H 1.9189 -2.2292 -0.2337 0
M  V30 END ATOM
M  V30 BEGIN BOND
M  V30 1 1 1 2
M  V30 2 2 2 3
M  V30 3 1 2 4
M  V30 4 1 3 5
M  V30 5 1 3 6
M  V30 6 2 4 7
M  V30 7 2 5 8
M  V30 8 1 7 8
M  V30 9 1 4 9
M  V30 10 1 5 10
M  V30 11 1 6 11
M  V30 12 1 6 12
M  V30 13 1 6 13
M  V30 14 1 7 14
M  V30 15 1 8 15
M  V30 END BOND
M  V30 END CTAB
M  END
>  <Structure No>
5752

>  <LogS>
-2.5295

>  <MMFF94 Energy>
19.476

$$$$
Compound 5753
Actelion Java MolfileCreator 2.0

  0  0  0  0  0  0              0 V3000
M  V30 BEGIN CTAB
M  V30 COUNTS 14 14 0 0 0
M  V30 BEGIN ATOM
M  V30 1 Cl 0.9207 -2.8562 0.0 0
M  V30 2 C 0.1487 -1.2694 -0.0442 0
M  V30 3 C 0.923 -0.0922 0.0577 0
M  V30 4 C -1.2508 -1.1812 -0.1359 0
M  V30 5 N 2.3533 -0.1718 0.1537 0 CHG=1
M  V30 6 C 0.2805 1.1649 0.0685 0
M  V30 7 Cl -2.2534 -2.6222 -0.2577 0
M  V30 8 C -1.875 0.0673 -0.1238 0
M  V30 9 O 3.0063 -0.8334 -0.6789 0
M  V30 10 O 3.0194 0.4858 1.1618 0 CHG=-1
M  V30 11 Cl 1.2271 2.653 0.1347 0
M  V30 12 C -1.12 1.2369 -0.0221 0
M  V30 13 Cl -1.9597 2.7834 -0.0199 0
M  V30 14 H -2.9539 0.1291 -0.194 0
M  V30 END ATOM
M  V30 BEGIN BOND
M  V30 1 1 1 2
M  V30 2 2 2 3
M  V30 3 1 2 4
M  V30 4 1 3 5
M  V30 5 1 3 6
M  V30 6 1 4 7
M  V30 7 2 4 8
M  V30 8 2 5 9
M  V30 9 1 5 10
M  V30 10 1 6 11
M  V30 11 2 6 12
M  V30 12 1 12 13
M  V30 13 1 8 12
M  V30 14 1 8 14
M  V30 END BOND
M  V30 END CTAB
M  END
>  <Structure No>
5753

>  <LogS>
-5.0963

>  <MMFF94 Energy>
6.084

$$$$
Compound 5754
Actelion Java MolfileCreator 2.0

  0  0  0  0  0  0              0 V3000
M  V30 BEGIN CTAB
M  V30 COUNTS 15 15 0 0 0
M  V30 BEGIN ATOM
M  V30 1 Cl -2.9421 0.4899 1.3068 0
M  V30 2 C -2.2015 0.0975 -0.2639 0
M  V30 3 C -0.7083 0.0427 -0.121 0
M  V30 4 C -0.0746 -1.1585 0.2378 0
M  V30 5 C 0.0625 1.2052 -0.2879 0
M  V30 6 C 1.3134 -1.2004 0.4023 0
M  V30 7 C 1.4505 1.1593 -0.1226 0
M  V30 8 C 2.0762 -0.0429 0.2202 0
M  V30 9 F 3.4217 -0.0851 0.3816 0
M  V30 10 H -2.4941 0.8709 -1.0059 0
M  V30 11 H -2.5958 -0.8792 -0.6166 0
M  V30 12 H -0.6548 -2.0603 0.3905 0
M  V30 13 H -0.4106 2.1449 -0.5449 0
M  V30 14 H 1.7965 -2.1301 0.6743 0
M  V30 15 H 2.0397 2.0573 -0.2572 0
M  V30 END ATOM
M  V30 BEGIN BOND
M  V30 1 1 1 2
M  V30 2 1 2 3
M  V30 3 2 3 4
M  V30 4 1 3 5
M  V30 5 1 4 6
M  V30 6 2 5 7
M  V30 7 2 6 8
M  V30 8 1 8 9
M  V30 9 1 7 8
M  V30 10 1 2 10
M  V30 11 1 2 11
M  V30 12 1 4 12
M  V30 13 1 5 13
M  V30 14 1 6 14
M  V30 15 1 7 15
M  V30 END BOND
M  V30 END CTAB
M  END
>  <Structure No>
5754

>  <LogS>
-2.5442

>  <MMFF94 Energy>
24.292

$$$$
Compound 5755
Actelion Java MolfileCreator 2.0

  0  0  0  0  0  0              0 V3000
M  V30 BEGIN CTAB
M  V30 COUNTS 12 12 0 0 0
M  V30 BEGIN ATOM
M  V30 1 F 2.6557 -0.6433 0.0 0
M  V30 2 C 1.3385 -0.3221 -0.0055 0
M  V30 3 C 0.9455 1.0204 -0.0318 0
M  V30 4 C 0.3715 -1.3333 0.015 0
M  V30 5 C -0.4136 1.3518 -0.0376 0
M  V30 6 C -0.9876 -1.002 0.0093 0
M  V30 7 C -1.3806 0.3406 -0.017 0
M  V30 8 F -2.6978 0.6618 -0.0225 0
M  V30 9 H 1.6923 1.8039 -0.0478 0
M  V30 10 H 0.6739 -2.3723 0.0355 0
M  V30 11 H -0.716 2.3909 -0.0581 0
M  V30 12 H -1.7344 -1.7853 0.0253 0
M  V30 END ATOM
M  V30 BEGIN BOND
M  V30 1 1 1 2
M  V30 2 2 2 3
M  V30 3 1 2 4
M  V30 4 1 3 5
M  V30 5 2 4 6
M  V30 6 2 5 7
M  V30 7 1 7 8
M  V30 8 1 6 7
M  V30 9 1 3 9
M  V30 10 1 4 10
M  V30 11 1 5 11
M  V30 12 1 6 12
M  V30 END BOND
M  V30 END CTAB
M  END
>  <Structure No>
5755

>  <LogS>
-1.9709

>  <MMFF94 Energy>
10.399

$$$$
Compound 5756
Actelion Java MolfileCreator 2.0

  0  0  0  0  0  0              0 V3000
M  V30 BEGIN CTAB
M  V30 COUNTS 12 12 0 0 0
M  V30 BEGIN ATOM
M  V30 1 Cl 3.055 -0.4949 -0.0824 0
M  V30 2 C 1.3281 -0.1911 -0.0329 0
M  V30 3 C 0.4279 -1.2632 -0.0178 0
M  V30 4 C 0.8482 1.1239 -0.0083 0
M  V30 5 C -0.9494 -1.0204 0.0216 0
M  V30 6 C -0.5289 1.3655 0.0311 0
M  V30 7 F -1.8207 -2.0589 0.0363 0
M  V30 8 C -1.4275 0.2941 0.0462 0
M  V30 9 H 0.7946 -2.2815 -0.0366 0
M  V30 10 H 1.5396 1.9568 -0.0198 0
M  V30 11 H -0.8993 2.3824 0.0502 0
M  V30 12 H -2.4928 0.4833 0.0768 0
M  V30 END ATOM
M  V30 BEGIN BOND
M  V30 1 1 1 2
M  V30 2 2 2 3
M  V30 3 1 2 4
M  V30 4 1 3 5
M  V30 5 2 4 6
M  V30 6 1 5 7
M  V30 7 2 5 8
M  V30 8 1 6 8
M  V30 9 1 3 9
M  V30 10 1 4 10
M  V30 11 1 6 11
M  V30 12 1 8 12
M  V30 END BOND
M  V30 END CTAB
M  END
>  <Structure No>
5756

>  <LogS>
-2.3457

>  <MMFF94 Energy>
5.7094

$$$$
Compound 5757
Actelion Java MolfileCreator 2.0

  0  0  0  0  0  0              0 V3000
M  V30 BEGIN CTAB
M  V30 COUNTS 12 12 0 0 0
M  V30 BEGIN ATOM
M  V30 1 Cl 2.9406 1.0101 0.0918 0
M  V30 2 C 1.2786 0.4195 0.0576 0
M  V30 3 C 0.2014 1.3248 0.1348 0
M  V30 4 C 1.0247 -0.9602 -0.0468 0
M  V30 5 Cl 0.5037 3.0578 0.2662 0
M  V30 6 C -1.1198 0.8419 0.1066 0
M  V30 7 Cl 2.3374 -2.1272 -0.1456 0
M  V30 8 C -0.2925 -1.4277 -0.0737 0
M  V30 9 Cl -2.4958 1.9341 0.2003 0
M  V30 10 C -1.3589 -0.5314 0.0026 0
M  V30 11 H -0.4916 -2.4889 -0.1541 0
M  V30 12 H -2.3743 -0.9066 -0.0193 0
M  V30 END ATOM
M  V30 BEGIN BOND
M  V30 1 1 1 2
M  V30 2 2 2 3
M  V30 3 1 2 4
M  V30 4 1 3 5
M  V30 5 1 3 6
M  V30 6 1 4 7
M  V30 7 2 4 8
M  V30 8 1 6 9
M  V30 9 2 6 10
M  V30 10 1 8 10
M  V30 11 1 8 11
M  V30 12 1 10 12
M  V30 END BOND
M  V30 END CTAB
M  END
>  <Structure No>
5757

>  <LogS>
-4.5619

>  <MMFF94 Energy>
30.401

$$$$
Compound 5758
Actelion Java MolfileCreator 2.0

  0  0  0  0  0  0              0 V3000
M  V30 BEGIN CTAB
M  V30 COUNTS 14 14 0 0 0
M  V30 BEGIN ATOM
M  V30 1 Cl -1.7513 2.9508 0.0921 0
M  V30 2 C -1.0343 1.3379 0.0391 0
M  V30 3 C -1.8664 0.2046 -0.0101 0
M  V30 4 C 0.367 1.1868 0.0545 0
M  V30 5 Cl -3.6215 0.3881 -0.0308 0
M  V30 6 C -1.2968 -1.0771 -0.0354 0
M  V30 7 Cl 1.3884 2.6199 0.2051 0
M  V30 8 C 0.937 -0.1059 0.0105 0
M  V30 9 Cl -2.2994 -2.5223 -0.0903 0
M  V30 10 C 0.0909 -1.2257 -0.0219 0
M  V30 11 N 2.3631 -0.3 4.0E-4 0 CHG=1
M  V30 12 O 2.8583 -1.3334 0.4961 0
M  V30 13 O 3.1813 0.551 -0.7056 0 CHG=-1
M  V30 14 H 0.5136 -2.2223 -0.0546 0
M  V30 END ATOM
M  V30 BEGIN BOND
M  V30 1 1 1 2
M  V30 2 2 2 3
M  V30 3 1 2 4
M  V30 4 1 3 5
M  V30 5 1 3 6
M  V30 6 1 4 7
M  V30 7 2 4 8
M  V30 8 1 6 9
M  V30 9 2 6 10
M  V30 10 1 8 11
M  V30 11 2 11 12
M  V30 12 1 11 13
M  V30 13 1 8 10
M  V30 14 1 10 14
M  V30 END BOND
M  V30 END CTAB
M  END
>  <Structure No>
5758

>  <LogS>
-4.5531

>  <MMFF94 Energy>
31.811

$$$$
Compound 5759
Actelion Java MolfileCreator 2.0

  0  0  0  0  0  0              0 V3000
M  V30 BEGIN CTAB
M  V30 COUNTS 14 14 0 0 0
M  V30 BEGIN ATOM
M  V30 1 Cl -1.5143 2.8519 -1.0688 0
M  V30 2 C -0.9168 1.2923 -0.4979 0
M  V30 3 C 0.4638 1.0904 -0.2929 0
M  V30 4 C -1.8242 0.2509 -0.2391 0
M  V30 5 Cl 1.5782 2.4377 -0.5398 0
M  V30 6 C 0.9325 -0.1643 0.164 0
M  V30 7 Cl -3.5542 0.4608 -0.4822 0
M  V30 8 C -1.3589 -0.9787 0.2282 0
M  V30 9 N 2.3351 -0.4178 0.363 0 CHG=1
M  V30 10 C 0.0046 -1.1846 0.4312 0
M  V30 11 O 2.7066 -1.2448 1.2216 0
M  V30 12 O 3.2712 0.1041 -0.499 0 CHG=-1
M  V30 13 H -2.0559 -1.7816 0.4322 0
M  V30 14 H 0.3401 -2.1522 0.7827 0
M  V30 END ATOM
M  V30 BEGIN BOND
M  V30 1 1 1 2
M  V30 2 2 2 3
M  V30 3 1 2 4
M  V30 4 1 3 5
M  V30 5 1 3 6
M  V30 6 1 4 7
M  V30 7 2 4 8
M  V30 8 1 6 9
M  V30 9 2 6 10
M  V30 10 2 9 11
M  V30 11 1 9 12
M  V30 12 1 8 10
M  V30 13 1 8 13
M  V30 14 1 10 14
M  V30 END BOND
M  V30 END CTAB
M  END
>  <Structure No>
5759

>  <LogS>
-3.94

>  <MMFF94 Energy>
41.147

$$$$
Compound 5760
Actelion Java MolfileCreator 2.0

  0  0  0  0  0  0              0 V3000
M  V30 BEGIN CTAB
M  V30 COUNTS 14 14 0 0 0
M  V30 BEGIN ATOM
M  V30 1 Cl 1.3342 -2.5807 -0.3556 0
M  V30 2 C 0.3323 -1.141 -0.2084 0
M  V30 3 C 0.8953 0.1355 0.0145 0
M  V30 4 C -1.0572 -1.2937 -0.2701 0
M  V30 5 N 2.3201 0.3031 0.0827 0 CHG=1
M  V30 6 C 0.0376 1.2459 0.1733 0
M  V30 7 C -1.8965 -0.1893 -0.1124 0
M  V30 8 O 3.0582 -0.1977 -0.7901 0
M  V30 9 O 2.8877 1.0203 1.1103 0 CHG=-1
M  V30 10 Cl 0.6664 2.8749 0.3925 0
M  V30 11 C -1.3499 1.0762 0.1084 0
M  V30 12 Cl -3.6374 -0.3915 -0.1916 0
M  V30 13 H -1.4858 -2.2747 -0.4335 0
M  V30 14 H -2.0045 1.9315 0.2223 0
M  V30 END ATOM
M  V30 BEGIN BOND
M  V30 1 1 1 2
M  V30 2 2 2 3
M  V30 3 1 2 4
M  V30 4 1 3 5
M  V30 5 1 3 6
M  V30 6 2 4 7
M  V30 7 2 5 8
M  V30 8 1 5 9
M  V30 9 1 6 10
M  V30 10 2 6 11
M  V30 11 1 7 12
M  V30 12 1 7 11
M  V30 13 1 4 13
M  V30 14 1 11 14
M  V30 END BOND
M  V30 END CTAB
M  END
>  <Structure No>
5760

>  <LogS>
-4.5591

>  <MMFF94 Energy>
3.616

$$$$
Compound 5761
Actelion Java MolfileCreator 2.0

  0  0  0  0  0  0              0 V3000
M  V30 BEGIN CTAB
M  V30 COUNTS 14 13 0 0 0
M  V30 BEGIN ATOM
M  V30 1 N -0.1488 -0.0744 -0.372 0 CHG=1
M  V30 2 C -0.4761 1.2966 0.052 0
M  V30 3 C 1.3096 -0.2719 -0.387 0
M  V30 4 C -0.7897 -1.0538 0.5201 0
M  V30 5 H -0.5145 -0.2188 -1.3431 0
M  V30 6 H -0.1055 1.4969 1.0823 0
M  V30 7 H -1.5766 1.4564 0.0315 0
M  V30 8 H -0.0193 2.0364 -0.6414 0
M  V30 9 H 1.5582 -1.297 -0.7394 0
M  V30 10 H 1.7442 -0.1278 0.6274 0
M  V30 11 H 1.7908 0.4465 -1.0866 0
M  V30 12 H -0.57 -2.0897 0.1801 0
M  V30 13 H -0.4305 -0.9379 1.5671 0
M  V30 14 H -1.8946 -0.9263 0.5059 0
M  V30 END ATOM
M  V30 BEGIN BOND
M  V30 1 1 1 2
M  V30 2 1 1 3
M  V30 3 1 1 4
M  V30 4 1 1 5
M  V30 5 1 2 6
M  V30 6 1 2 7
M  V30 7 1 2 8
M  V30 8 1 3 9
M  V30 9 1 3 10
M  V30 10 1 3 11
M  V30 11 1 4 12
M  V30 12 1 4 13
M  V30 13 1 4 14
M  V30 END BOND
M  V30 END CTAB
M  END
>  <Structure No>
5761

>  <LogS>
1.1777

>  <MMFF94 Energy>
7.4132

$$$$
Compound 5762
Actelion Java MolfileCreator 2.0

  0  0  0  0  0  0              0 V3000
M  V30 BEGIN CTAB
M  V30 COUNTS 26 26 0 0 0
M  V30 BEGIN ATOM
M  V30 1 N -0.8557 0.0 0.311 0
M  V30 2 C 0.5056 -0.0266 -0.161 0
M  V30 3 C -1.6734 -1.2205 0.2554 0
M  V30 4 C -1.4201 1.2476 0.8462 0
M  V30 5 C 1.5598 0.3521 0.6875 0
M  V30 6 C 0.7943 -0.4319 -1.4752 0
M  V30 7 C -1.1627 -2.2512 1.2564 0
M  V30 8 C -1.6029 2.272 -0.2684 0
M  V30 9 C 2.8799 0.325 0.2276 0
M  V30 10 C 2.1158 -0.4565 -1.9315 0
M  V30 11 C 3.1578 -0.0786 -1.0808 0
M  V30 12 H -2.7371 -0.9971 0.4876 0
M  V30 13 H -1.652 -1.6521 -0.767 0
M  V30 14 H -0.7553 1.6658 1.6308 0
M  V30 15 H -2.4062 1.0646 1.3249 0
M  V30 16 H 1.3629 0.6502 1.7088 0
M  V30 17 H -0.0027 -0.7104 -2.1518 0
M  V30 18 H -1.8138 -3.1503 1.2321 0
M  V30 19 H -0.1256 -2.5558 1.0013 0
M  V30 20 H -1.177 -1.8242 2.2818 0
M  V30 21 H -2.2637 1.8585 -1.0595 0
M  V30 22 H -0.6206 2.5369 -0.7137 0
M  V30 23 H -2.067 3.1931 0.1428 0
M  V30 24 H 3.6881 0.6137 0.8871 0
M  V30 25 H 2.3315 -0.7651 -2.9462 0
M  V30 26 H 4.1802 -0.0985 -1.4354 0
M  V30 END ATOM
M  V30 BEGIN BOND
M  V30 1 1 1 2
M  V30 2 1 1 3
M  V30 3 1 1 4
M  V30 4 2 2 5
M  V30 5 1 2 6
M  V30 6 1 3 7
M  V30 7 1 4 8
M  V30 8 1 5 9
M  V30 9 2 6 10
M  V30 10 2 9 11
M  V30 11 1 10 11
M  V30 12 1 3 12
M  V30 13 1 3 13
M  V30 14 1 4 14
M  V30 15 1 4 15
M  V30 16 1 5 16
M  V30 17 1 6 17
M  V30 18 1 7 18
M  V30 19 1 7 19
M  V30 20 1 7 20
M  V30 21 1 8 21
M  V30 22 1 8 22
M  V30 23 1 8 23
M  V30 24 1 9 24
M  V30 25 1 10 25
M  V30 26 1 11 26
M  V30 END BOND
M  V30 END CTAB
M  END
>  <Structure No>
5762

>  <LogS>
-3.0278

>  <MMFF94 Energy>
17.933

$$$$
Compound 5763
Actelion Java MolfileCreator 2.0

  0  0  0  0  0  0              0 V3000
M  V30 BEGIN CTAB
M  V30 COUNTS 17 17 0 0 0
M  V30 BEGIN ATOM
M  V30 1 N -1.6293 -0.698 -0.0775 0
M  V30 2 C -0.2334 -0.3542 -0.0026 0
M  V30 3 C -2.7028 0.29 -0.1042 0
M  V30 4 C 0.7269 -1.3794 0.0178 0
M  V30 5 C 0.1982 0.9864 0.0507 0
M  V30 6 C 2.0894 -1.0741 0.0901 0
M  V30 7 C 1.5624 1.2862 0.1229 0
M  V30 8 C 2.5068 0.2575 0.1427 0
M  V30 9 H -1.8999 -1.707 -0.1151 0
M  V30 10 H -3.6858 -0.2229 -0.1635 0
M  V30 11 H -2.5913 0.9456 -0.9934 0
M  V30 12 H -2.6777 0.901 0.8224 0
M  V30 13 H 0.4189 -2.4166 -0.0221 0
M  V30 14 H -0.51 1.8035 0.037 0
M  V30 15 H 2.8217 -1.8709 0.1055 0
M  V30 16 H 1.8873 2.3178 0.1637 0
M  V30 17 H 3.5619 0.4923 0.1986 0
M  V30 END ATOM
M  V30 BEGIN BOND
M  V30 1 1 1 2
M  V30 2 1 1 3
M  V30 3 2 2 4
M  V30 4 1 2 5
M  V30 5 1 4 6
M  V30 6 2 5 7
M  V30 7 2 6 8
M  V30 8 1 7 8
M  V30 9 1 1 9
M  V30 10 1 3 10
M  V30 11 1 3 11
M  V30 12 1 3 12
M  V30 13 1 4 13
M  V30 14 1 5 14
M  V30 15 1 6 15
M  V30 16 1 7 16
M  V30 17 1 8 17
M  V30 END BOND
M  V30 END CTAB
M  END
>  <Structure No>
5763

>  <LogS>
-1.2803

>  <MMFF94 Energy>
10.883

$$$$
Compound 5764
Actelion Java MolfileCreator 2.0

  0  0  0  0  0  0              0 V3000
M  V30 BEGIN CTAB
M  V30 COUNTS 24 25 0 0 0
M  V30 BEGIN ATOM
M  V30 1 N 0.0 0.4733 1.1836 0
M  V30 2 C 1.2853 0.3082 0.5604 0
M  V30 3 C -1.2505 0.1008 0.579 0
M  V30 4 C 1.543 -0.7658 -0.3116 0
M  V30 5 C 2.325 1.196 0.8779 0
M  V30 6 C -2.3226 -0.29 1.3962 0
M  V30 7 C -1.444 0.1842 -0.8124 0
M  V30 8 C 2.8097 -0.9213 -0.8829 0
M  V30 9 C 3.5903 1.0374 0.3044 0
M  V30 10 C -3.5556 -0.6299 0.8308 0
M  V30 11 C -2.6785 -0.1561 -1.3741 0
M  V30 12 C 3.8314 -0.0182 -0.5785 0
M  V30 13 C -3.7324 -0.5667 -0.5536 0
M  V30 14 H -0.0273 0.8924 2.1411 0
M  V30 15 H 0.7726 -1.4915 -0.5365 0
M  V30 16 H 2.1504 2.0161 1.563 0
M  V30 17 H -2.1981 -0.3399 2.4707 0
M  V30 18 H -0.6487 0.5276 -1.461 0
M  V30 19 H 3.0013 -1.7469 -1.5559 0
M  V30 20 H 4.3845 1.7317 0.5464 0
M  V30 21 H -4.3748 -0.9398 1.4667 0
M  V30 22 H -2.8206 -0.0938 -2.4452 0
M  V30 23 H 4.8118 -0.1409 -1.0202 0
M  V30 24 H -4.6877 -0.8283 -0.9897 0
M  V30 END ATOM
M  V30 BEGIN BOND
M  V30 1 1 1 2
M  V30 2 1 1 3
M  V30 3 2 2 4
M  V30 4 1 2 5
M  V30 5 2 3 6
M  V30 6 1 3 7
M  V30 7 1 4 8
M  V30 8 2 5 9
M  V30 9 1 6 10
M  V30 10 2 7 11
M  V30 11 2 8 12
M  V30 12 2 10 13
M  V30 13 1 9 12
M  V30 14 1 11 13
M  V30 15 1 1 14
M  V30 16 1 4 15
M  V30 17 1 5 16
M  V30 18 1 6 17
M  V30 19 1 7 18
M  V30 20 1 8 19
M  V30 21 1 9 20
M  V30 22 1 10 21
M  V30 23 1 11 22
M  V30 24 1 12 23
M  V30 25 1 13 24
M  V30 END BOND
M  V30 END CTAB
M  END
>  <Structure No>
5764

>  <LogS>
-3.5042

>  <MMFF94 Energy>
28.088

$$$$
Compound 5765
Actelion Java MolfileCreator 2.0

  0  0  0  0  0  0              0 V3000
M  V30 BEGIN CTAB
M  V30 COUNTS 18 18 0 0 0
M  V30 BEGIN ATOM
M  V30 1 O -4.0287 -0.71 -0.71 0
M  V30 2 C -3.3824 -0.0421 0.1404 0
M  V30 3 C -1.9081 -0.0551 0.1582 0
M  V30 4 C -1.1767 -0.8123 -0.7721 0
M  V30 5 C -1.2197 0.7 1.1189 0
M  V30 6 C 0.2212 -0.8126 -0.7403 0
M  V30 7 C 0.1778 0.6991 1.1499 0
M  V30 8 C 0.9099 -0.0537 0.225 0
M  V30 9 O 2.3104 -0.021 0.2982 0
M  V30 10 C 3.1776 -0.7358 -0.5759 0
M  V30 11 H -3.9271 0.5482 0.8663 0
M  V30 12 H -1.6842 -1.4039 -1.5239 0
M  V30 13 H -1.7635 1.2913 1.8459 0
M  V30 14 H 0.7559 -1.4056 -1.4695 0
M  V30 15 H 0.6954 1.287 1.8974 0
M  V30 16 H 3.0202 -0.4051 -1.6243 0
M  V30 17 H 4.2297 -0.5285 -0.2921 0
M  V30 18 H 2.9939 -1.8275 -0.4873 0
M  V30 END ATOM
M  V30 BEGIN BOND
M  V30 1 2 1 2
M  V30 2 1 2 3
M  V30 3 2 3 4
M  V30 4 1 3 5
M  V30 5 1 4 6
M  V30 6 2 5 7
M  V30 7 2 6 8
M  V30 8 1 8 9
M  V30 9 1 9 10
M  V30 10 1 7 8
M  V30 11 1 2 11
M  V30 12 1 4 12
M  V30 13 1 5 13
M  V30 14 1 6 14
M  V30 15 1 7 15
M  V30 16 1 10 16
M  V30 17 1 10 17
M  V30 18 1 10 18
M  V30 END BOND
M  V30 END CTAB
M  END
>  <Structure No>
5765

>  <LogS>
-1.5016

>  <MMFF94 Energy>
34.389

$$$$
Compound 5766
Actelion Java MolfileCreator 2.0

  0  0  0  0  0  0              0 V3000
M  V30 BEGIN CTAB
M  V30 COUNTS 14 14 0 0 0
M  V30 BEGIN ATOM
M  V30 1 Cl -2.0027 -2.5874 1.001 0
M  V30 2 C -1.1633 -1.1519 0.4426 0
M  V30 3 C -1.8908 -0.0641 -0.0518 0
M  V30 4 C 0.2342 -1.0946 0.492 0
M  V30 5 C -1.2224 1.0813 -0.4974 0
M  V30 6 C 0.9093 0.0514 0.0464 0
M  V30 7 Cl -2.136 2.4445 -1.1173 0
M  V30 8 C 0.175 1.1394 -0.4484 0
M  V30 9 N 2.3372 0.1103 0.0967 0
M  V30 10 H -2.9721 -0.1086 -0.0898 0
M  V30 11 H 0.7931 -1.9391 0.8756 0
M  V30 12 H 0.6881 2.0282 -0.7945 0
M  V30 13 H 2.8929 -0.6942 0.4635 0
M  V30 14 H 2.8492 0.9591 -0.2325 0
M  V30 END ATOM
M  V30 BEGIN BOND
M  V30 1 1 1 2
M  V30 2 2 2 3
M  V30 3 1 2 4
M  V30 4 1 3 5
M  V30 5 2 4 6
M  V30 6 1 5 7
M  V30 7 2 5 8
M  V30 8 1 6 9
M  V30 9 1 6 8
M  V30 10 1 3 10
M  V30 11 1 4 11
M  V30 12 1 8 12
M  V30 13 1 9 13
M  V30 14 1 9 14
M  V30 END BOND
M  V30 END CTAB
M  END
>  <Structure No>
5766

>  <LogS>
-2.3153

>  <MMFF94 Energy>
-2.9066

$$$$
Compound 5767
Actelion Java MolfileCreator 2.0

  0  0  0  0  0  0              0 V3000
M  V30 BEGIN CTAB
M  V30 COUNTS 12 12 0 0 0
M  V30 BEGIN ATOM
M  V30 1 Cl -0.097 3.1096 0.0 0
M  V30 2 C -0.0608 1.3449 0.0248 0
M  V30 3 C -1.2647 0.616 0.0256 0
M  V30 4 C 1.1718 0.6663 0.044 0
M  V30 5 Cl -2.8138 1.4618 0.0017 0
M  V30 6 C -1.2323 -0.789 0.0455 0
M  V30 7 Cl 2.6847 1.5753 0.0433 0
M  V30 8 C 1.1971 -0.7388 0.0639 0
M  V30 9 Cl -2.7258 -1.7252 0.0468 0
M  V30 10 C -0.0033 -1.461 0.0645 0
M  V30 11 Cl 2.7277 -1.6126 0.0881 0
M  V30 12 O 0.0251 -2.8521 0.0842 0 CHG=-1
M  V30 END ATOM
M  V30 BEGIN BOND
M  V30 1 1 1 2
M  V30 2 2 2 3
M  V30 3 1 2 4
M  V30 4 1 3 5
M  V30 5 1 3 6
M  V30 6 1 4 7
M  V30 7 2 4 8
M  V30 8 1 6 9
M  V30 9 2 6 10
M  V30 10 1 8 11
M  V30 11 1 10 12
M  V30 12 1 8 10
M  V30 END BOND
M  V30 END CTAB
M  END
>  <Structure No>
5767

>  <LogS>
-4.2793

>  <MMFF94 Energy>
63.394

$$$$
Compound 5768
Actelion Java MolfileCreator 2.0

  0  0  0  0  0  0              0 V3000
M  V30 BEGIN CTAB
M  V30 COUNTS 19 19 0 0 0
M  V30 BEGIN ATOM
M  V30 1 O 0.0 2.2663 0.1561 0
M  V30 2 C -0.5931 1.0089 0.0436 0
M  V30 3 C 0.1471 -0.0832 -0.4533 0
M  V30 4 C -1.9302 0.8285 0.4283 0
M  V30 5 C -0.4611 -1.348 -0.5326 0
M  V30 6 C 1.5945 0.0747 -0.8453 0
M  V30 7 C -2.5275 -0.4304 0.3311 0
M  V30 8 C -1.7934 -1.5176 -0.1462 0
M  V30 9 C 2.5054 -0.1053 0.3647 0
M  V30 10 H -0.5119 3.0651 0.512 0
M  V30 11 H -2.506 1.6637 0.8064 0
M  V30 12 H 0.0971 -2.2033 -0.8927 0
M  V30 13 H 1.8665 -0.6749 -1.62 0
M  V30 14 H 1.767 1.078 -1.2915 0
M  V30 15 H -3.5591 -0.5642 0.6307 0
M  V30 16 H -2.2559 -2.4937 -0.2144 0
M  V30 17 H 2.3708 -1.1185 0.8003 0
M  V30 18 H 3.5649 0.0099 0.0531 0
M  V30 19 H 2.2771 0.6592 1.1377 0
M  V30 END ATOM
M  V30 BEGIN BOND
M  V30 1 1 1 2
M  V30 2 2 2 3
M  V30 3 1 2 4
M  V30 4 1 3 5
M  V30 5 1 3 6
M  V30 6 2 4 7
M  V30 7 2 5 8
M  V30 8 1 6 9
M  V30 9 1 7 8
M  V30 10 1 1 10
M  V30 11 1 4 11
M  V30 12 1 5 12
M  V30 13 1 6 13
M  V30 14 1 6 14
M  V30 15 1 7 15
M  V30 16 1 8 16
M  V30 17 1 9 17
M  V30 18 1 9 18
M  V30 19 1 9 19
M  V30 END BOND
M  V30 END CTAB
M  END
>  <Structure No>
5768

>  <LogS>
-1.3594

>  <MMFF94 Energy>
9.6917

$$$$
Compound 5769
Actelion Java MolfileCreator 2.0

  0  0  0  0  0  0              0 V3000
M  V30 BEGIN CTAB
M  V30 COUNTS 17 17 0 0 0
M  V30 BEGIN ATOM
M  V30 1 O 1.5672 0.7834 0.3133 0
M  V30 2 C 0.2789 0.29 0.0523 0
M  V30 3 C 2.6855 -0.0255 0.6628 0
M  V30 4 C -0.7432 1.199 -0.2837 0
M  V30 5 C -0.0203 -1.0861 0.1169 0
M  V30 6 O -0.4928 2.5691 -0.3595 0
M  V30 7 C -2.0363 0.733 -0.5486 0
M  V30 8 C -1.315 -1.5401 -0.1493 0
M  V30 9 C -2.3215 -0.6321 -0.4816 0
M  V30 10 H 3.5712 0.6253 0.8113 0
M  V30 11 H 2.482 -0.5701 1.609 0
M  V30 12 H 2.9063 -0.7451 -0.1534 0
M  V30 13 H 0.7391 -1.8122 0.372 0
M  V30 14 H 0.4231 2.9612 -0.178 0
M  V30 15 H -2.8216 1.4321 -0.807 0
M  V30 16 H -1.538 -2.5981 -0.0978 0
M  V30 17 H -3.3234 -0.9864 -0.6875 0
M  V30 END ATOM
M  V30 BEGIN BOND
M  V30 1 1 1 2
M  V30 2 1 1 3
M  V30 3 2 2 4
M  V30 4 1 2 5
M  V30 5 1 4 6
M  V30 6 1 4 7
M  V30 7 2 5 8
M  V30 8 2 7 9
M  V30 9 1 8 9
M  V30 10 1 3 10
M  V30 11 1 3 11
M  V30 12 1 3 12
M  V30 13 1 5 13
M  V30 14 1 6 14
M  V30 15 1 7 15
M  V30 16 1 8 16
M  V30 17 1 9 17
M  V30 END BOND
M  V30 END CTAB
M  END
>  <Structure No>
5769

>  <LogS>
-0.8221

>  <MMFF94 Energy>
19.324

$$$$
Compound 5770
Actelion Java MolfileCreator 2.0

  0  0  0  0  0  0              0 V3000
M  V30 BEGIN CTAB
M  V30 COUNTS 21 21 0 0 0
M  V30 BEGIN ATOM
M  V30 1 O -2.2795 -1.1785 -0.5498 0
M  V30 2 C -1.1786 -0.372 -0.2189 0
M  V30 3 C -3.6398 -0.8142 -0.3389 0
M  V30 4 C 0.1193 -0.8521 -0.4804 0
M  V30 5 C -1.3369 0.899 0.3652 0
M  V30 6 O 0.3113 -2.1079 -1.0586 0
M  V30 7 C 1.2434 -0.0733 -0.1629 0
M  V30 8 C -0.22 1.6733 0.681 0
M  V30 9 O 2.5172 -0.593 -0.4416 0
M  V30 10 C 1.0639 1.1946 0.4205 0
M  V30 11 C 3.7404 0.0846 -0.1735 0
M  V30 12 H -3.828 -0.6502 0.7432 0
M  V30 13 H -4.2942 -1.6372 -0.692 0
M  V30 14 H -3.8828 0.1043 -0.9135 0
M  V30 15 H -2.3188 1.2982 0.5795 0
M  V30 16 H -0.4616 -2.7127 -1.3085 0
M  V30 17 H -0.3505 2.6498 1.1299 0
M  V30 18 H 1.91 1.8176 0.6762 0
M  V30 19 H 3.8363 0.2833 0.9148 0
M  V30 20 H 3.7815 1.0378 -0.7417 0
M  V30 21 H 4.5874 -0.5561 -0.4932 0
M  V30 END ATOM
M  V30 BEGIN BOND
M  V30 1 1 1 2
M  V30 2 1 1 3
M  V30 3 2 2 4
M  V30 4 1 2 5
M  V30 5 1 4 6
M  V30 6 1 4 7
M  V30 7 2 5 8
M  V30 8 1 7 9
M  V30 9 2 7 10
M  V30 10 1 9 11
M  V30 11 1 8 10
M  V30 12 1 3 12
M  V30 13 1 3 13
M  V30 14 1 3 14
M  V30 15 1 5 15
M  V30 16 1 6 16
M  V30 17 1 8 17
M  V30 18 1 10 18
M  V30 19 1 11 19
M  V30 20 1 11 20
M  V30 21 1 11 21
M  V30 END BOND
M  V30 END CTAB
M  END
>  <Structure No>
5770

>  <LogS>
-0.9525

>  <MMFF94 Energy>
40.039

$$$$
Compound 5771
Actelion Java MolfileCreator 2.0

  0  0  0  0  0  0              0 V3000
M  V30 BEGIN CTAB
M  V30 COUNTS 23 24 0 0 0
M  V30 BEGIN ATOM
M  V30 1 O 4.6868 -0.3172 -0.4758 0
M  V30 2 C 3.3027 -0.2256 -0.3478 0
M  V30 3 C 2.6751 -0.5374 0.8647 0
M  V30 4 C 2.5334 0.1814 -1.4412 0
M  V30 5 C 1.2853 -0.4416 0.9823 0
M  V30 6 C 1.1432 0.2775 -1.328 0
M  V30 7 C 0.5027 -0.0327 -0.1138 0
M  V30 8 C -0.9741 0.0691 0.0088 0
M  V30 9 C -1.8107 -0.3557 -1.0408 0
M  V30 10 C -1.5612 0.5925 1.1767 0
M  V30 11 C -3.2006 -0.2588 -0.9225 0
M  V30 12 C -2.9517 0.6878 1.289 0
M  V30 13 C -3.7705 0.2625 0.2409 0
M  V30 14 H 5.2718 -0.6091 0.2982 0
M  V30 15 H 3.2626 -0.8572 1.7158 0
M  V30 16 H 3.0139 0.4272 -2.3796 0
M  V30 17 H 0.8214 -0.7042 1.9247 0
M  V30 18 H 0.5714 0.6119 -2.1844 0
M  V30 19 H -1.3914 -0.7788 -1.9448 0
M  V30 20 H -0.9456 0.9443 1.9949 0
M  V30 21 H -3.8363 -0.5917 -1.7327 0
M  V30 22 H -3.3945 1.0953 2.1887 0
M  V30 23 H -4.8466 0.3368 0.3302 0
M  V30 END ATOM
M  V30 BEGIN BOND
M  V30 1 1 1 2
M  V30 2 2 2 3
M  V30 3 1 2 4
M  V30 4 1 3 5
M  V30 5 2 4 6
M  V30 6 2 5 7
M  V30 7 1 7 8
M  V30 8 2 8 9
M  V30 9 1 8 10
M  V30 10 1 9 11
M  V30 11 2 10 12
M  V30 12 2 11 13
M  V30 13 1 6 7
M  V30 14 1 12 13
M  V30 15 1 1 14
M  V30 16 1 3 15
M  V30 17 1 4 16
M  V30 18 1 5 17
M  V30 19 1 6 18
M  V30 20 1 9 19
M  V30 21 1 10 20
M  V30 22 1 11 21
M  V30 23 1 12 22
M  V30 24 1 13 23
M  V30 END BOND
M  V30 END CTAB
M  END
>  <Structure No>
5771

>  <LogS>
-3.4812

>  <MMFF94 Energy>
28.013

$$$$
Compound 5772
Actelion Java MolfileCreator 2.0

  0  0  0  0  0  0              0 V3000
M  V30 BEGIN CTAB
M  V30 COUNTS 12 12 0 0 0
M  V30 BEGIN ATOM
M  V30 1 Cl 3.055 -0.7182 0.0 0
M  V30 2 C 1.3496 -0.2897 -0.0033 0
M  V30 3 C 0.9353 1.0534 -0.0176 0
M  V30 4 C 0.3932 -1.3121 0.0087 0
M  V30 5 Cl 2.103 2.368 -0.033 0
M  V30 6 C -0.4307 1.3595 -0.02 0
M  V30 7 C -0.9714 -1.0032 0.0065 0
M  V30 8 C -1.3837 0.336 -0.0079 0
M  V30 9 Cl -2.1536 -2.3022 0.0217 0
M  V30 10 O -2.7367 0.656 -0.0103 0 CHG=-1
M  V30 11 H 0.7108 -2.3472 0.0199 0
M  V30 12 H -0.7535 2.3931 -0.031 0
M  V30 END ATOM
M  V30 BEGIN BOND
M  V30 1 1 1 2
M  V30 2 2 2 3
M  V30 3 1 2 4
M  V30 4 1 3 5
M  V30 5 1 3 6
M  V30 6 2 4 7
M  V30 7 2 6 8
M  V30 8 1 7 9
M  V30 9 1 8 10
M  V30 10 1 7 8
M  V30 11 1 4 11
M  V30 12 1 6 12
M  V30 END BOND
M  V30 END CTAB
M  END
>  <Structure No>
5772

>  <LogS>
-2.2163

>  <MMFF94 Energy>
19.803

$$$$
Compound 5773
Actelion Java MolfileCreator 2.0

  0  0  0  0  0  0              0 V3000
M  V30 BEGIN CTAB
M  V30 COUNTS 19 19 0 0 0
M  V30 BEGIN ATOM
M  V30 1 O 2.3448 1.7191 0.078 0
M  V30 2 C 1.1253 1.0452 0.012 0
M  V30 3 C 1.0987 -0.3587 -0.0751 0
M  V30 4 C -0.0767 1.7655 0.036 0
M  V30 5 C -0.1369 -1.0256 -0.1278 0
M  V30 6 C 2.3815 -1.1412 -0.0783 0
M  V30 7 C -1.3013 1.0968 -0.0244 0
M  V30 8 C -1.3388 -0.3012 -0.1212 0
M  V30 9 C -2.6548 -1.0213 -0.1422 0
M  V30 10 H 2.3903 2.7294 0.1426 0
M  V30 11 H -0.0627 2.8457 0.1074 0
M  V30 12 H -0.1655 -2.1078 -0.1752 0
M  V30 13 H 2.2013 -2.2199 -0.2729 0
M  V30 14 H 3.0567 -0.7558 -0.8711 0
M  V30 15 H 2.8816 -1.0383 0.9076 0
M  V30 16 H -2.2202 1.6694 0.0055 0
M  V30 17 H -3.4386 -0.3935 -0.617 0
M  V30 18 H -2.962 -1.2589 0.8976 0
M  V30 19 H -2.5748 -1.9657 -0.7213 0
M  V30 END ATOM
M  V30 BEGIN BOND
M  V30 1 1 1 2
M  V30 2 2 2 3
M  V30 3 1 2 4
M  V30 4 1 3 5
M  V30 5 1 3 6
M  V30 6 2 4 7
M  V30 7 2 5 8
M  V30 8 1 8 9
M  V30 9 1 7 8
M  V30 10 1 1 10
M  V30 11 1 4 11
M  V30 12 1 5 12
M  V30 13 1 6 13
M  V30 14 1 6 14
M  V30 15 1 6 15
M  V30 16 1 7 16
M  V30 17 1 9 17
M  V30 18 1 9 18
M  V30 19 1 9 19
M  V30 END BOND
M  V30 END CTAB
M  END
>  <Structure No>
5773

>  <LogS>
-1.191

>  <MMFF94 Energy>
11.481

$$$$
Compound 5774
Actelion Java MolfileCreator 2.0

  0  0  0  0  0  0              0 V3000
M  V30 BEGIN CTAB
M  V30 COUNTS 17 17 0 0 0
M  V30 BEGIN ATOM
M  V30 1 O 2.0373 -0.5482 0.3915 0
M  V30 2 C 0.653 -0.3368 0.311 0
M  V30 3 C 2.9998 0.1135 -0.4224 0
M  V30 4 C -0.1817 -1.0572 1.1746 0
M  V30 5 C 0.0785 0.5688 -0.6025 0
M  V30 6 C -1.5682 -0.8813 1.1324 0
M  V30 7 C -1.3085 0.7433 -0.6429 0
M  V30 8 C -2.1355 0.0182 0.2249 0
M  V30 9 O -3.5182 0.1839 0.1934 0
M  V30 10 H 2.8196 -0.1197 -1.493 0
M  V30 11 H 4.0135 -0.2422 -0.1471 0
M  V30 12 H 2.9507 1.2105 -0.2565 0
M  V30 13 H 0.2465 -1.7564 1.8814 0
M  V30 14 H 0.6932 1.1412 -1.2834 0
M  V30 15 H -2.2019 -1.4446 1.8056 0
M  V30 16 H -1.7392 1.442 -1.3489 0
M  V30 17 H -3.9595 0.828 -0.4526 0
M  V30 END ATOM
M  V30 BEGIN BOND
M  V30 1 1 1 2
M  V30 2 1 1 3
M  V30 3 2 2 4
M  V30 4 1 2 5
M  V30 5 1 4 6
M  V30 6 2 5 7
M  V30 7 2 6 8
M  V30 8 1 8 9
M  V30 9 1 7 8
M  V30 10 1 3 10
M  V30 11 1 3 11
M  V30 12 1 3 12
M  V30 13 1 4 13
M  V30 14 1 5 14
M  V30 15 1 6 15
M  V30 16 1 7 16
M  V30 17 1 9 17
M  V30 END BOND
M  V30 END CTAB
M  END
>  <Structure No>
5774

>  <LogS>
-0.4919

>  <MMFF94 Energy>
8.9186

$$$$
Compound 5775
Actelion Java MolfileCreator 2.0

  0  0  0  0  0  0              0 V3000
M  V30 BEGIN CTAB
M  V30 COUNTS 22 22 0 0 0
M  V30 BEGIN ATOM
M  V30 1 O -2.5033 0.8599 0.2344 0
M  V30 2 C -1.1812 0.42 0.1143 0
M  V30 3 C -0.1425 1.3682 0.1796 0
M  V30 4 C -0.8744 -0.9474 -0.0732 0
M  V30 5 C 1.1913 0.9518 0.0564 0
M  V30 6 C -0.4612 2.826 0.3634 0
M  V30 7 C 0.4676 -1.3441 -0.1907 0
M  V30 8 C -1.961 -1.9848 -0.1548 0
M  V30 9 C 1.5016 -0.4029 -0.1111 0
M  V30 10 C 2.9289 -0.8345 -0.279 0
M  V30 11 H -3.3006 0.2382 0.1965 0
M  V30 12 H 1.9911 1.6822 0.092 0
M  V30 13 H -1.0583 2.9659 1.2892 0
M  V30 14 H -1.0466 3.1919 -0.5061 0
M  V30 15 H 0.4602 3.4403 0.4496 0
M  V30 16 H 0.7112 -2.3887 -0.345 0
M  V30 17 H -2.6313 -1.7599 -1.0109 0
M  V30 18 H -2.5489 -1.9879 0.7869 0
M  V30 19 H -1.5463 -3.0045 -0.3028 0
M  V30 20 H 3.6112 -0.1616 0.2828 0
M  V30 21 H 3.1985 -0.8067 -1.3553 0
M  V30 22 H 3.0744 -1.8667 0.1045 0
M  V30 END ATOM
M  V30 BEGIN BOND
M  V30 1 1 1 2
M  V30 2 2 2 3
M  V30 3 1 2 4
M  V30 4 1 3 5
M  V30 5 1 3 6
M  V30 6 2 4 7
M  V30 7 1 4 8
M  V30 8 2 5 9
M  V30 9 1 9 10
M  V30 10 1 7 9
M  V30 11 1 1 11
M  V30 12 1 5 12
M  V30 13 1 6 13
M  V30 14 1 6 14
M  V30 15 1 6 15
M  V30 16 1 7 16
M  V30 17 1 8 17
M  V30 18 1 8 18
M  V30 19 1 8 19
M  V30 20 1 10 20
M  V30 21 1 10 21
M  V30 22 1 10 22
M  V30 END BOND
M  V30 END CTAB
M  END
>  <Structure No>
5775

>  <LogS>
-2.055

>  <MMFF94 Energy>
15.792

$$$$
Compound 5776
Actelion Java MolfileCreator 2.0

  0  0  0  0  0  0              0 V3000
M  V30 BEGIN CTAB
M  V30 COUNTS 13 13 0 0 0
M  V30 BEGIN ATOM
M  V30 1 Cl 2.2841 1.9455 0.0 0
M  V30 2 C 0.8418 0.9347 0.0125 0
M  V30 3 C -0.4405 1.5132 0.0438 0
M  V30 4 C 0.976 -0.4631 -0.0088 0
M  V30 5 Cl -0.6546 3.2587 0.0714 0
M  V30 6 C -1.5749 0.6934 0.0533 0
M  V30 7 O 2.2446 -1.0404 -0.0397 0
M  V30 8 C -0.1674 -1.2743 9.0E-4 0
M  V30 9 C -1.4385 -0.6963 0.032 0
M  V30 10 H -2.5642 1.1328 0.0773 0
M  V30 11 H 2.3696 -2.0459 -0.0555 0
M  V30 12 H -0.0716 -2.3525 -0.0153 0
M  V30 13 H -2.3188 -1.326 0.0395 0
M  V30 END ATOM
M  V30 BEGIN BOND
M  V30 1 1 1 2
M  V30 2 2 2 3
M  V30 3 1 2 4
M  V30 4 1 3 5
M  V30 5 1 3 6
M  V30 6 1 4 7
M  V30 7 2 4 8
M  V30 8 2 6 9
M  V30 9 1 8 9
M  V30 10 1 6 10
M  V30 11 1 7 11
M  V30 12 1 8 12
M  V30 13 1 9 13
M  V30 END BOND
M  V30 END CTAB
M  END
>  <Structure No>
5776

>  <LogS>
-1.6559

>  <MMFF94 Energy>
31.369

$$$$
Compound 5777
Actelion Java MolfileCreator 2.0

  0  0  0  0  0  0              0 V3000
M  V30 BEGIN CTAB
M  V30 COUNTS 13 13 0 0 0
M  V30 BEGIN ATOM
M  V30 1 Cl -1.4362 2.7047 0.9291 0
M  V30 2 C -0.7597 1.1724 0.4083 0
M  V30 3 C -1.6057 0.0947 0.1227 0
M  V30 4 C 0.6261 1.0269 0.2784 0
M  V30 5 C -1.0666 -1.128 -0.2927 0
M  V30 6 C 1.1686 -0.1975 -0.1377 0
M  V30 7 Cl -2.1277 -2.4783 -0.6505 0
M  V30 8 C 0.3194 -1.2731 -0.4225 0
M  V30 9 O 2.5462 -0.3552 -0.2711 0
M  V30 10 H -2.678 0.2072 0.2233 0
M  V30 11 H 1.2792 1.8617 0.4999 0
M  V30 12 H 0.7371 -2.2188 -0.7439 0
M  V30 13 H 3.1876 0.4038 -0.0725 0
M  V30 END ATOM
M  V30 BEGIN BOND
M  V30 1 1 1 2
M  V30 2 2 2 3
M  V30 3 1 2 4
M  V30 4 1 3 5
M  V30 5 2 4 6
M  V30 6 1 5 7
M  V30 7 2 5 8
M  V30 8 1 6 9
M  V30 9 1 6 8
M  V30 10 1 3 10
M  V30 11 1 4 11
M  V30 12 1 8 12
M  V30 13 1 9 13
M  V30 END BOND
M  V30 END CTAB
M  END
>  <Structure No>
5777

>  <LogS>
-1.559

>  <MMFF94 Energy>
-8.0567

$$$$
Compound 5778
Actelion Java MolfileCreator 2.0

  0  0  0  0  0  0              0 V3000
M  V30 BEGIN CTAB
M  V30 COUNTS 28 29 0 0 0
M  V30 BEGIN ATOM
M  V30 1 O -1.045 0.5626 -3.1377 0
M  V30 2 C -0.1027 -0.0349 -2.5518 0
M  V30 3 O 1.0758 -0.2778 -3.2491 0 CHG=-1
M  V30 4 C -0.3054 -0.6134 -1.1583 0
M  V30 5 O -0.8589 -1.8997 -1.3333 0
M  V30 6 C -1.2323 0.2497 -0.2925 0
M  V30 7 C 1.0266 -0.7338 -0.4161 0
M  V30 8 C -2.0727 -0.3522 0.668 0
M  V30 9 C -1.1767 1.6601 -0.3416 0
M  V30 10 C 1.3133 -1.8658 0.3775 0
M  V30 11 C 1.9521 0.3331 -0.4168 0
M  V30 12 C -2.874 0.4291 1.5057 0
M  V30 13 C -1.9804 2.4357 0.4988 0
M  V30 14 C 2.5071 -1.9462 1.1008 0
M  V30 15 C 3.1437 0.2457 0.3083 0
M  V30 16 C -2.8324 1.8212 1.4172 0
M  V30 17 C 3.4231 -0.8942 1.0624 0
M  V30 18 H -1.7457 -1.7975 -1.7716 0
M  V30 19 H -2.1063 -1.4284 0.7787 0
M  V30 20 H -0.5098 2.1658 -1.0272 0
M  V30 21 H 0.6141 -2.6887 0.449 0
M  V30 22 H 1.7544 1.2357 -0.9797 0
M  V30 23 H -3.5215 -0.046 2.2312 0
M  V30 24 H -1.9362 3.5158 0.443 0
M  V30 25 H 2.718 -2.8233 1.6988 0
M  V30 26 H 3.8484 1.067 0.2903 0
M  V30 27 H -3.4515 2.424 2.0692 0
M  V30 28 H 4.3452 -0.9584 1.6255 0
M  V30 END ATOM
M  V30 BEGIN BOND
M  V30 1 2 1 2
M  V30 2 1 2 3
M  V30 3 1 2 4
M  V30 4 1 4 5
M  V30 5 1 4 6
M  V30 6 1 4 7
M  V30 7 2 6 8
M  V30 8 1 6 9
M  V30 9 2 7 10
M  V30 10 1 7 11
M  V30 11 1 8 12
M  V30 12 2 9 13
M  V30 13 1 10 14
M  V30 14 2 11 15
M  V30 15 2 12 16
M  V30 16 2 14 17
M  V30 17 1 13 16
M  V30 18 1 15 17
M  V30 19 1 5 18
M  V30 20 1 8 19
M  V30 21 1 9 20
M  V30 22 1 10 21
M  V30 23 1 11 22
M  V30 24 1 12 23
M  V30 25 1 13 24
M  V30 26 1 14 25
M  V30 27 1 15 26
M  V30 28 1 16 27
M  V30 29 1 17 28
M  V30 END BOND
M  V30 END CTAB
M  END
>  <Structure No>
5778

>  <LogS>
-2.2092

>  <MMFF94 Energy>
156.25

$$$$
Compound 5779
Actelion Java MolfileCreator 2.0

  0  0  0  0  0  0              0 V3000
M  V30 BEGIN CTAB
M  V30 COUNTS 46 50 0 0 0
M  V30 BEGIN ATOM
M  V30 1 O -2.9723 -1.3202 -2.3112 0
M  V30 2 C -2.3732 -0.9247 -1.2764 0
M  V30 3 O -1.2541 -1.5428 -0.7536 0
M  V30 4 C -2.789 0.2114 -0.4008 0 CFG=1
M  V30 5 C -0.9059 -0.8916 0.4692 0 CFG=1
M  V30 6 C -3.7403 -0.3387 0.7184 0 CFG=1
M  V30 7 C -1.4327 0.5292 0.2788 0 CFG=1
M  V30 8 C -3.4019 1.3933 -1.168 0
M  V30 9 C -1.6903 -1.5368 1.5953 0
M  V30 10 C 0.603 -0.7457 0.6771 0 CFG=2
M  V30 11 O -4.8574 -0.962 0.1384 0
M  V30 12 C -3.0268 -1.3256 1.6607 0
M  V30 13 C -0.3381 1.2263 -0.5611 0 CFG=2
M  V30 14 C 1.0017 0.5364 -0.1445 0 CFG=1
M  V30 15 C 1.4111 -2.0314 0.32 0
M  V30 16 C -0.3683 2.7275 -0.4114 0
M  V30 17 C 2.0012 1.3932 0.6734 0
M  V30 18 C 1.8569 0.1229 -1.3531 0
M  V30 19 C 2.9 -1.7527 -0.0203 0
M  V30 20 O -0.4969 3.2633 0.7218 0
M  V30 21 O -0.2067 3.5332 -1.5314 0 CHG=-1
M  V30 22 C 3.2926 0.6888 0.4197 0
M  V30 23 C 3.1359 -0.3513 -0.6606 0 CFG=2
M  V30 24 C 4.413 0.9256 1.1134 0
M  V30 25 O 4.2096 -0.3422 -1.5692 0
M  V30 26 H -4.0788 0.5252 1.3372 0
M  V30 27 H -1.5618 1.0489 1.2583 0
M  V30 28 H -2.7522 1.7052 -2.0121 0
M  V30 29 H -4.3918 1.1088 -1.5837 0
M  V30 30 H -3.5395 2.2589 -0.4856 0
M  V30 31 H -1.2033 -2.202 2.3015 0
M  V30 32 H 0.7635 -0.5567 1.7628 0
M  V30 33 H -5.5471 -1.0354 0.8492 0
M  V30 34 H -3.5984 -1.8033 2.4504 0
M  V30 35 H -0.5223 1.0038 -1.6356 0
M  V30 36 H 1.3517 -2.7535 1.163 0
M  V30 37 H 0.9581 -2.538 -0.5585 0
M  V30 38 H 2.0981 2.4259 0.2762 0
M  V30 39 H 1.7523 1.4359 1.7559 0
M  V30 40 H 1.3825 -0.664 -1.9802 0
M  V30 41 H 2.0641 1.0057 -2.0016 0
M  V30 42 H 3.5145 -1.8593 0.9009 0
M  V30 43 H 3.2468 -2.5411 -0.7239 0
M  V30 44 H 5.3202 0.3644 0.9188 0
M  V30 45 H 4.4266 1.6823 1.8918 0
M  V30 46 H 4.9842 -0.7728 -1.1225 0
M  V30 END ATOM
M  V30 BEGIN BOND
M  V30 1 2 1 2
M  V30 2 1 2 3
M  V30 3 1 2 4
M  V30 4 1 3 5
M  V30 5 1 4 6
M  V30 6 1 4 7
M  V30 7 1 4 8
M  V30 8 1 5 9
M  V30 9 1 5 10
M  V30 10 1 6 11
M  V30 11 1 6 12
M  V30 12 1 7 13
M  V30 13 1 10 14
M  V30 14 1 10 15
M  V30 15 1 13 16
M  V30 16 1 14 17
M  V30 17 1 14 18
M  V30 18 1 15 19
M  V30 19 2 16 20
M  V30 20 1 16 21
M  V30 21 1 17 22
M  V30 22 1 18 23
M  V30 23 2 22 24
M  V30 24 1 23 25
M  V30 25 1 5 7
M  V30 26 2 9 12
M  V30 27 1 13 14
M  V30 28 1 19 23
M  V30 29 1 22 23
M  V30 30 1 6 26
M  V30 31 1 7 27
M  V30 32 1 8 28
M  V30 33 1 8 29
M  V30 34 1 8 30
M  V30 35 1 9 31
M  V30 36 1 10 32
M  V30 37 1 11 33
M  V30 38 1 12 34
M  V30 39 1 13 35
M  V30 40 1 15 36
M  V30 41 1 15 37
M  V30 42 1 17 38
M  V30 43 1 17 39
M  V30 44 1 18 40
M  V30 45 1 18 41
M  V30 46 1 19 42
M  V30 47 1 19 43
M  V30 48 1 24 44
M  V30 49 1 24 45
M  V30 50 1 25 46
M  V30 END BOND
M  V30 BEGIN COLLECTION
M  V30 MDLV30/STEABS ATOMS=(8 4 5 6 7 10 13 14 23)
M  V30 END COLLECTION
M  V30 END CTAB
M  END
>  <Structure No>
5779

>  <LogS>
-1.8406

>  <MMFF94 Energy>
50.648

$$$$
Compound 5780
Actelion Java MolfileCreator 2.0

  0  0  0  0  0  0              0 V3000
M  V30 BEGIN CTAB
M  V30 COUNTS 7 6 0 0 0
M  V30 BEGIN ATOM
M  V30 1 Cl -1.3573 1.1027 -0.8481 0
M  V30 2 C -0.5838 -0.1647 0.1322 0
M  V30 3 C 0.8987 -0.0672 -0.0017 0
M  V30 4 O 1.4926 -0.6821 -0.9259 0
M  V30 5 O 1.6231 0.7435 0.8627 0 CHG=-1
M  V30 6 H -0.8752 -0.0324 1.1954 0
M  V30 7 H -0.9348 -1.1603 -0.2125 0
M  V30 END ATOM
M  V30 BEGIN BOND
M  V30 1 1 1 2
M  V30 2 1 2 3
M  V30 3 2 3 4
M  V30 4 1 3 5
M  V30 5 1 2 6
M  V30 6 1 2 7
M  V30 END BOND
M  V30 END CTAB
M  END
>  <Structure No>
5780

>  <LogS>
0.9277

>  <MMFF94 Energy>
41.06

$$$$
Compound 5781
Actelion Java MolfileCreator 2.0

  0  0  0  0  0  0              0 V3000
M  V30 BEGIN CTAB
M  V30 COUNTS 13 12 0 0 0
M  V30 BEGIN ATOM
M  V30 1 O -0.6249 -0.7812 1.9539 0
M  V30 2 C -0.8369 -0.9915 0.7298 0
M  V30 3 O -1.7159 -1.9982 0.3507 0 CHG=-1
M  V30 4 C -0.1476 -0.1636 -0.3185 0
M  V30 5 C -0.5386 1.3111 -0.1828 0
M  V30 6 C 1.3713 -0.3387 -0.2299 0
M  V30 7 H -0.4767 -0.5158 -1.3209 0
M  V30 8 H -0.0686 1.9064 -0.9944 0
M  V30 9 H -1.6411 1.4226 -0.265 0
M  V30 10 H -0.2081 1.7192 0.7968 0
M  V30 11 H 1.639 -1.4108 -0.3458 0
M  V30 12 H 1.869 0.2326 -1.0422 0
M  V30 13 H 1.7546 0.0237 0.7484 0
M  V30 END ATOM
M  V30 BEGIN BOND
M  V30 1 2 1 2
M  V30 2 1 2 3
M  V30 3 1 2 4
M  V30 4 1 4 5
M  V30 5 1 4 6
M  V30 6 1 4 7
M  V30 7 1 5 8
M  V30 8 1 5 9
M  V30 9 1 5 10
M  V30 10 1 6 11
M  V30 11 1 6 12
M  V30 12 1 6 13
M  V30 END BOND
M  V30 END CTAB
M  END
>  <Structure No>
5781

>  <LogS>
0.2777

>  <MMFF94 Energy>
7.9262

$$$$
Compound 5782
Actelion Java MolfileCreator 2.0

  0  0  0  0  0  0              0 V3000
M  V30 BEGIN CTAB
M  V30 COUNTS 23 24 0 0 0
M  V30 BEGIN ATOM
M  V30 1 O 3.2227 0.5634 1.6909 0
M  V30 2 C 2.9733 -0.2646 0.7756 0
M  V30 3 O 3.2567 -1.6103 0.9708 0 CHG=-1
M  V30 4 C 2.3718 0.1989 -0.5141 0
M  V30 5 C 0.9535 0.683 -0.2992 0
M  V30 6 C -0.1526 -0.2029 -0.1677 0
M  V30 7 C 0.7374 2.0685 -0.1886 0
M  V30 8 C -1.4523 0.3351 0.0457 0
M  V30 9 C -0.0087 -1.6061 -0.2385 0
M  V30 10 C -0.542 2.5801 0.0216 0
M  V30 11 C -1.6323 1.7218 0.1351 0
M  V30 12 C -2.5574 -0.5215 0.1725 0
M  V30 13 C -1.1195 -2.4435 -0.1086 0
M  V30 14 C -2.3888 -1.9037 0.0944 0
M  V30 15 H 2.4002 -0.6113 -1.2719 0
M  V30 16 H 3.0062 1.014 -0.9255 0
M  V30 17 H 1.5666 2.7611 -0.2664 0
M  V30 18 H 0.9527 -2.0737 -0.3892 0
M  V30 19 H -0.6884 3.6499 0.099 0
M  V30 20 H -2.6178 2.1423 0.2986 0
M  V30 21 H -3.5515 -0.1216 0.3341 0
M  V30 22 H -0.9946 -3.5173 -0.1648 0
M  V30 23 H -3.2447 -2.559 0.1941 0
M  V30 END ATOM
M  V30 BEGIN BOND
M  V30 1 2 1 2
M  V30 2 1 2 3
M  V30 3 1 2 4
M  V30 4 1 4 5
M  V30 5 1 5 6
M  V30 6 2 5 7
M  V30 7 1 6 8
M  V30 8 2 6 9
M  V30 9 1 7 10
M  V30 10 1 8 11
M  V30 11 2 8 12
M  V30 12 1 9 13
M  V30 13 1 12 14
M  V30 14 2 10 11
M  V30 15 2 13 14
M  V30 16 1 4 15
M  V30 17 1 4 16
M  V30 18 1 7 17
M  V30 19 1 9 18
M  V30 20 1 10 19
M  V30 21 1 11 20
M  V30 22 1 12 21
M  V30 23 1 13 22
M  V30 24 1 14 23
M  V30 END BOND
M  V30 END CTAB
M  END
>  <Structure No>
5782

>  <LogS>
-2.6468

>  <MMFF94 Energy>
63.192

$$$$
Compound 5783
Actelion Java MolfileCreator 2.0

  0  0  0  0  0  0              0 V3000
M  V30 BEGIN CTAB
M  V30 COUNTS 21 22 0 0 0
M  V30 BEGIN ATOM
M  V30 1 O 3.7674 -0.3202 0.9608 0
M  V30 2 C 2.8274 -1.0532 0.5554 0
M  V30 3 O 2.3769 -2.0982 1.3519 0 CHG=-1
M  V30 4 C 2.1632 -0.769 -0.7527 0
M  V30 5 C 1.0439 0.2071 -0.5594 0
M  V30 6 C -0.2462 -0.0605 -0.1444 0
M  V30 7 C 1.1235 1.5921 -0.6722 0
M  V30 8 C -0.8881 1.1471 -0.0408 0
M  V30 9 C -0.8878 -1.262 0.1572 0
M  V30 10 N -0.064 2.1601 -0.3608 0
M  V30 11 C -2.2184 1.2366 0.3669 0
M  V30 12 C -2.2315 -1.2022 0.5697 0
M  V30 13 C -2.8941 0.0412 0.6732 0
M  V30 14 H 1.7694 -1.7131 -1.1849 0
M  V30 15 H 2.905 -0.3531 -1.4681 0
M  V30 16 H 2.0048 2.1525 -0.9557 0
M  V30 17 H -0.3737 -2.211 0.079 0
M  V30 18 H -0.2872 3.1802 -0.3571 0
M  V30 19 H -2.7159 2.1943 0.4484 0
M  V30 20 H -2.7606 -2.1149 0.8106 0
M  V30 21 H -3.9274 0.0749 0.9931 0
M  V30 END ATOM
M  V30 BEGIN BOND
M  V30 1 2 1 2
M  V30 2 1 2 3
M  V30 3 1 2 4
M  V30 4 1 4 5
M  V30 5 1 5 6
M  V30 6 2 5 7
M  V30 7 2 6 8
M  V30 8 1 6 9
M  V30 9 1 7 10
M  V30 10 1 8 11
M  V30 11 2 9 12
M  V30 12 2 11 13
M  V30 13 1 8 10
M  V30 14 1 12 13
M  V30 15 1 4 14
M  V30 16 1 4 15
M  V30 17 1 7 16
M  V30 18 1 9 17
M  V30 19 1 10 18
M  V30 20 1 11 19
M  V30 21 1 12 20
M  V30 22 1 13 21
M  V30 END BOND
M  V30 END CTAB
M  END
>  <Structure No>
5783

>  <LogS>
-2.0674

>  <MMFF94 Energy>
51.894

$$$$
Compound 5784
Actelion Java MolfileCreator 2.0

  0  0  0  0  0  0              0 V3000
M  V30 BEGIN CTAB
M  V30 COUNTS 19 18 0 0 0
M  V30 BEGIN ATOM
M  V30 1 O -0.939 2.2705 1.0173 0
M  V30 2 C -0.7925 1.7181 -0.1055 0
M  V30 3 O -1.3169 2.3244 -1.2401 0 CHG=-1
M  V30 4 C -0.0558 0.409 -0.2244 0
M  V30 5 C 1.4043 0.6003 0.2435 0
M  V30 6 C -0.7785 -0.6994 0.5755 0
M  V30 7 C 2.3183 -0.5584 -0.1585 0
M  V30 8 C -2.1869 -0.9765 0.0464 0
M  V30 9 H -0.0427 0.1192 -1.2991 0
M  V30 10 H 1.8171 1.5252 -0.2176 0
M  V30 11 H 1.4413 0.7306 1.3476 0
M  V30 12 H -0.2078 -1.6483 0.5054 0
M  V30 13 H -0.8399 -0.4201 1.6503 0
M  V30 14 H 2.0631 -1.4798 0.4035 0
M  V30 15 H 2.2428 -0.755 -1.249 0
M  V30 16 H 3.3709 -0.2957 0.0784 0
M  V30 17 H -2.1488 -1.2471 -1.03 0
M  V30 18 H -2.634 -1.8234 0.6087 0
M  V30 19 H -2.839 -0.0875 0.1794 0
M  V30 END ATOM
M  V30 BEGIN BOND
M  V30 1 2 1 2
M  V30 2 1 2 3
M  V30 3 1 2 4
M  V30 4 1 4 5
M  V30 5 1 4 6
M  V30 6 1 5 7
M  V30 7 1 6 8
M  V30 8 1 4 9
M  V30 9 1 5 10
M  V30 10 1 5 11
M  V30 11 1 6 12
M  V30 12 1 6 13
M  V30 13 1 7 14
M  V30 14 1 7 15
M  V30 15 1 7 16
M  V30 16 1 8 17
M  V30 17 1 8 18
M  V30 18 1 8 19
M  V30 END BOND
M  V30 END CTAB
M  END
>  <Structure No>
5784

>  <LogS>
-0.8098

>  <MMFF94 Energy>
8.4121

$$$$
Compound 5785
Actelion Java MolfileCreator 2.0

  0  0  0  0  0  0              0 V3000
M  V30 BEGIN CTAB
M  V30 COUNTS 21 21 0 0 0
M  V30 BEGIN ATOM
M  V30 1 Cl 4.5816 -0.7352 0.1633 0
M  V30 2 C 2.8431 -0.5025 0.1234 0
M  V30 3 C 2.291 0.511 -0.6645 0
M  V30 4 C 2.0106 -1.3301 0.8793 0
M  V30 5 C 0.8997 0.7039 -0.702 0
M  V30 6 C 0.626 -1.1482 0.8504 0
M  V30 7 C 0.0566 -0.1298 0.0598 0
M  V30 8 C 0.3129 1.796 -1.5519 0
M  V30 9 O -1.3315 0.0806 0.0076 0
M  V30 10 C -2.2938 -0.6861 0.7252 0
M  V30 11 C -3.6591 -0.1715 0.4157 0
M  V30 12 O -4.1412 0.7831 1.0801 0
M  V30 13 O -4.3806 -0.7072 -0.6433 0 CHG=-1
M  V30 14 H 2.9472 1.1466 -1.2465 0
M  V30 15 H 2.4354 -2.1161 1.4908 0
M  V30 16 H 0.0072 -1.8048 1.4463 0
M  V30 17 H -0.2539 2.5043 -0.9113 0
M  V30 18 H -0.3749 1.3555 -2.3039 0
M  V30 19 H 1.1005 2.3653 -2.0898 0
M  V30 20 H -2.2279 -1.7532 0.4223 0
M  V30 21 H -2.1054 -0.6031 1.8178 0
M  V30 END ATOM
M  V30 BEGIN BOND
M  V30 1 1 1 2
M  V30 2 2 2 3
M  V30 3 1 2 4
M  V30 4 1 3 5
M  V30 5 2 4 6
M  V30 6 2 5 7
M  V30 7 1 5 8
M  V30 8 1 7 9
M  V30 9 1 9 10
M  V30 10 1 10 11
M  V30 11 2 11 12
M  V30 12 1 11 13
M  V30 13 1 6 7
M  V30 14 1 3 14
M  V30 15 1 4 15
M  V30 16 1 6 16
M  V30 17 1 8 17
M  V30 18 1 8 18
M  V30 19 1 8 19
M  V30 20 1 10 20
M  V30 21 1 10 21
M  V30 END BOND
M  V30 END CTAB
M  END
>  <Structure No>
5785

>  <LogS>
-2.503

>  <MMFF94 Energy>
68.124

$$$$
Compound 5786
Actelion Java MolfileCreator 2.0

  0  0  0  0  0  0              0 V3000
M  V30 BEGIN CTAB
M  V30 COUNTS 21 20 0 0 0
M  V30 BEGIN ATOM
M  V30 1 O 3.9976 -1.5975 0.0798 0
M  V30 2 C 3.4943 -0.6964 0.8011 0
M  V30 3 O 4.2951 0.3364 1.2711 0 CHG=-1
M  V30 4 C 2.0302 -0.7076 1.1075 0
M  V30 5 C 1.2529 0.0689 0.0408 0
M  V30 6 C -0.2496 0.0694 0.3459 0
M  V30 7 C -1.0289 0.8448 -0.7266 0
M  V30 8 C -2.5298 0.9155 -0.4166 0
M  V30 9 C -3.1866 -0.4244 -0.5459 0
M  V30 10 O -3.4626 -1.0975 0.4816 0
M  V30 11 O -3.4646 -0.9436 -1.8039 0 CHG=-1
M  V30 12 H 1.8658 -0.2454 2.1052 0
M  V30 13 H 1.67 -1.7589 1.1484 0
M  V30 14 H 1.6224 1.118 0.0077 0
M  V30 15 H 1.4261 -0.3985 -0.9537 0
M  V30 16 H -0.613 -0.9804 0.3835 0
M  V30 17 H -0.4229 0.5396 1.339 0
M  V30 18 H -0.6364 1.884 -0.7779 0
M  V30 19 H -0.874 0.3743 -1.7227 0
M  V30 20 H -2.6901 1.3248 0.6049 0
M  V30 21 H -3.0118 1.6134 -1.1343 0
M  V30 END ATOM
M  V30 BEGIN BOND
M  V30 1 2 1 2
M  V30 2 1 2 3
M  V30 3 1 2 4
M  V30 4 1 4 5
M  V30 5 1 5 6
M  V30 6 1 6 7
M  V30 7 1 7 8
M  V30 8 1 8 9
M  V30 9 2 9 10
M  V30 10 1 9 11
M  V30 11 1 4 12
M  V30 12 1 4 13
M  V30 13 1 5 14
M  V30 14 1 5 15
M  V30 15 1 6 16
M  V30 16 1 6 17
M  V30 17 1 7 18
M  V30 18 1 7 19
M  V30 19 1 8 20
M  V30 20 1 8 21
M  V30 END BOND
M  V30 END CTAB
M  END
>  <Structure No>
5786

>  <LogS>
-0.5056

>  <MMFF94 Energy>
43.568

$$$$
Compound 5787
Actelion Java MolfileCreator 2.0

  0  0  0  0  0  0              0 V3000
M  V30 BEGIN CTAB
M  V30 COUNTS 34 33 0 0 0
M  V30 BEGIN ATOM
M  V30 1 O 6.1169 -1.2523 0.0782 0
M  V30 2 C 5.5577 -0.1362 0.2427 0
M  V30 3 O 5.5252 0.4375 1.5076 0 CHG=-1
M  V30 4 C 4.8985 0.5538 -0.9118 0
M  V30 5 C 3.5271 -0.0552 -1.2323 0
M  V30 6 C 2.4948 0.2233 -0.1294 0
M  V30 7 C 1.121 -0.3431 -0.5069 0
M  V30 8 C 0.0907 -0.0696 0.5953 0
M  V30 9 C -1.2835 -0.6347 0.2172 0
M  V30 10 C -2.3131 -0.3698 1.3262 0
M  V30 11 C -3.7184 -0.8883 0.9548 0
M  V30 12 C -4.6793 0.2179 0.4881 0
M  V30 13 C -4.2694 0.8448 -0.8426 0
M  V30 14 H 5.5526 0.4586 -1.8052 0
M  V30 15 H 4.7916 1.638 -0.6911 0
M  V30 16 H 3.1655 0.3877 -2.186 0
M  V30 17 H 3.6314 -1.152 -1.386 0
M  V30 18 H 2.8316 -0.2437 0.8215 0
M  V30 19 H 2.4094 1.3213 0.0262 0
M  V30 20 H 1.2072 -1.4407 -0.6658 0
M  V30 21 H 0.7776 0.1257 -1.4554 0
M  V30 22 H 0.4332 -0.5388 1.544 0
M  V30 23 H 0.0053 1.028 0.7542 0
M  V30 24 H -1.6196 -0.1701 -0.733 0
M  V30 25 H -1.1966 -1.7318 0.056 0
M  V30 26 H -1.974 -0.8962 2.2459 0
M  V30 27 H -2.3462 0.7157 1.566 0
M  V30 28 H -3.6633 -1.6914 0.1869 0
M  V30 29 H -4.1667 -1.3519 1.8608 0
M  V30 30 H -5.6913 -0.2261 0.3675 0
M  V30 31 H -4.753 1.0103 1.2644 0
M  V30 32 H -5.0769 1.5197 -1.1966 0
M  V30 33 H -4.104 0.0585 -1.6094 0
M  V30 34 H -3.3468 1.449 -0.7192 0
M  V30 END ATOM
M  V30 BEGIN BOND
M  V30 1 2 1 2
M  V30 2 1 2 3
M  V30 3 1 2 4
M  V30 4 1 4 5
M  V30 5 1 5 6
M  V30 6 1 6 7
M  V30 7 1 7 8
M  V30 8 1 8 9
M  V30 9 1 9 10
M  V30 10 1 10 11
M  V30 11 1 11 12
M  V30 12 1 12 13
M  V30 13 1 4 14
M  V30 14 1 4 15
M  V30 15 1 5 16
M  V30 16 1 5 17
M  V30 17 1 6 18
M  V30 18 1 6 19
M  V30 19 1 7 20
M  V30 20 1 7 21
M  V30 21 1 8 22
M  V30 22 1 8 23
M  V30 23 1 9 24
M  V30 24 1 9 25
M  V30 25 1 10 26
M  V30 26 1 10 27
M  V30 27 1 11 28
M  V30 28 1 11 29
M  V30 29 1 12 30
M  V30 30 1 12 31
M  V30 31 1 13 32
M  V30 32 1 13 33
M  V30 33 1 13 34
M  V30 END BOND
M  V30 END CTAB
M  END
>  <Structure No>
5787

>  <LogS>
-3.5525

>  <MMFF94 Energy>
1.0602

$$$$
Compound 5788
Actelion Java MolfileCreator 2.0

  0  0  0  0  0  0              0 V3000
M  V30 BEGIN CTAB
M  V30 COUNTS 18 18 0 0 0
M  V30 BEGIN ATOM
M  V30 1 O 4.0795 1.2784 -0.4792 0
M  V30 2 C 3.5687 0.1364 -0.3394 0
M  V30 3 O 4.3135 -0.8855 0.2346 0 CHG=-1
M  V30 4 C 2.1505 -0.1037 -0.7336 0
M  V30 5 O 1.2982 0.2265 0.3587 0
M  V30 6 C -0.0999 0.1171 0.3344 0
M  V30 7 C -0.8032 -0.3402 -0.7979 0
M  V30 8 C -0.8159 0.4779 1.4834 0
M  V30 9 C -2.1988 -0.4306 -0.7697 0
M  V30 10 C -2.211 0.386 1.5076 0
M  V30 11 C -2.9021 -0.0679 0.3817 0
M  V30 12 H 1.8986 0.5264 -1.6141 0
M  V30 13 H 2.022 -1.1744 -1.0019 0
M  V30 14 H -0.283 -0.627 -1.7013 0
M  V30 15 H -0.2883 0.8309 2.3604 0
M  V30 16 H -2.7353 -0.7824 -1.6415 0
M  V30 17 H -2.756 0.667 2.3996 0
M  V30 18 H -3.9819 -0.1387 0.4014 0
M  V30 END ATOM
M  V30 BEGIN BOND
M  V30 1 2 1 2
M  V30 2 1 2 3
M  V30 3 1 2 4
M  V30 4 1 4 5
M  V30 5 1 5 6
M  V30 6 2 6 7
M  V30 7 1 6 8
M  V30 8 1 7 9
M  V30 9 2 8 10
M  V30 10 2 9 11
M  V30 11 1 10 11
M  V30 12 1 4 12
M  V30 13 1 4 13
M  V30 14 1 7 14
M  V30 15 1 8 15
M  V30 16 1 9 16
M  V30 17 1 10 17
M  V30 18 1 11 18
M  V30 END BOND
M  V30 END CTAB
M  END
>  <Structure No>
5788

>  <LogS>
-1.1031

>  <MMFF94 Energy>
69.121

$$$$
Compound 5789
Actelion Java MolfileCreator 2.0

  0  0  0  0  0  0              0 V3000
M  V30 BEGIN CTAB
M  V30 COUNTS 18 18 0 0 0
M  V30 BEGIN ATOM
M  V30 1 Cl -4.6114 0.0 -0.411 0
M  V30 2 C -2.8612 0.1119 -0.3808 0
M  V30 3 C -2.2196 1.2098 -0.9622 0
M  V30 4 C -2.1054 -0.8965 0.2248 0
M  V30 5 C -0.8245 1.2993 -0.9383 0
M  V30 6 C -0.7097 -0.8093 0.2501 0
M  V30 7 C -0.0578 0.2948 -0.3342 0
M  V30 8 O 1.3382 0.4303 -0.3359 0
M  V30 9 C 2.2388 -0.5111 0.2394 0
M  V30 10 C 3.638 -0.0313 0.0485 0
M  V30 11 O 4.2619 -0.3051 -1.0099 0
M  V30 12 O 4.2376 0.766 1.015 0 CHG=-1
M  V30 13 H -2.7997 1.9935 -1.4324 0
M  V30 14 H -2.5979 -1.7484 0.6763 0
M  V30 15 H -0.3361 2.1531 -1.391 0
M  V30 16 H -0.1492 -1.6026 0.725 0
M  V30 17 H 2.0328 -0.6145 1.3265 0
M  V30 18 H 2.1161 -1.501 -0.2514 0
M  V30 END ATOM
M  V30 BEGIN BOND
M  V30 1 1 1 2
M  V30 2 2 2 3
M  V30 3 1 2 4
M  V30 4 1 3 5
M  V30 5 2 4 6
M  V30 6 2 5 7
M  V30 7 1 7 8
M  V30 8 1 8 9
M  V30 9 1 9 10
M  V30 10 2 10 11
M  V30 11 1 10 12
M  V30 12 1 6 7
M  V30 13 1 3 13
M  V30 14 1 4 14
M  V30 15 1 5 15
M  V30 16 1 6 16
M  V30 17 1 9 17
M  V30 18 1 9 18
M  V30 END BOND
M  V30 END CTAB
M  END
>  <Structure No>
5789

>  <LogS>
-2.29

>  <MMFF94 Energy>
63.363

$$$$
Compound 5790
Actelion Java MolfileCreator 2.0

  0  0  0  0  0  0              0 V3000
M  V30 BEGIN CTAB
M  V30 COUNTS 18 18 0 0 0
M  V30 BEGIN ATOM
M  V30 1 O 4.0672 0.1592 -1.2746 0
M  V30 2 C 3.7137 -0.2677 -0.1429 0
M  V30 3 O 4.6803 -0.711 0.75 0 CHG=-1
M  V30 4 C 2.2944 -0.3051 0.2496 0
M  V30 5 C 1.3154 0.1093 -0.5691 0
M  V30 6 C -0.1346 0.0979 -0.2341 0
M  V30 7 C -0.6424 -0.3586 1.0025 0
M  V30 8 C -1.0426 0.5667 -1.2019 0
M  V30 9 C -2.0186 -0.342 1.2524 0
M  V30 10 C -2.4166 0.5803 -0.945 0
M  V30 11 C -2.9044 0.1264 0.2808 0
M  V30 12 H 2.0785 -0.6851 1.2357 0
M  V30 13 H 1.5892 0.4822 -1.5496 0
M  V30 14 H 0.0019 -0.7297 1.7841 0
M  V30 15 H -0.6881 0.9243 -2.161 0
M  V30 16 H -2.3992 -0.6937 2.2029 0
M  V30 17 H -3.1038 0.9437 -1.6984 0
M  V30 18 H -3.9686 0.1376 0.4782 0
M  V30 END ATOM
M  V30 BEGIN BOND
M  V30 1 2 1 2
M  V30 2 1 2 3
M  V30 3 1 2 4
M  V30 4 2 4 5
M  V30 5 1 5 6
M  V30 6 2 6 7
M  V30 7 1 6 8
M  V30 8 1 7 9
M  V30 9 2 8 10
M  V30 10 2 9 11
M  V30 11 1 10 11
M  V30 12 1 4 12
M  V30 13 1 5 13
M  V30 14 1 7 14
M  V30 15 1 8 15
M  V30 16 1 9 16
M  V30 17 1 10 17
M  V30 18 1 11 18
M  V30 END BOND
M  V30 END CTAB
M  END
>  <Structure No>
5790

>  <LogS>
-2.4335

>  <MMFF94 Energy>
10.938

$$$$
Compound 5791
Actelion Java MolfileCreator 2.0

  0  0  0  0  0  0              0 V3000
M  V30 BEGIN CTAB
M  V30 COUNTS 25 24 0 0 0
M  V30 BEGIN ATOM
M  V30 1 O 2.6633 -2.2713 -0.1565 0
M  V30 2 C 2.0986 -1.4594 -0.9373 0
M  V30 3 O 2.4409 -1.455 -2.2836 0 CHG=-1
M  V30 4 C 1.0529 -0.5032 -0.4237 0 CFG=1
M  V30 5 C -0.1692 -1.3151 0.0711 0
M  V30 6 C 1.637 0.4105 0.6788 0
M  V30 7 C -1.3882 -0.4796 0.5074 0
M  V30 8 C 2.8103 1.2554 0.1786 0
M  V30 9 C -1.9489 0.4035 -0.6166 0
M  V30 10 C -3.2765 1.0361 -0.2091 0
M  V30 11 H 0.7368 0.1325 -1.278 0
M  V30 12 H -0.497 -2.0043 -0.7389 0
M  V30 13 H 0.1378 -1.9499 0.9315 0
M  V30 14 H 0.858 1.1163 1.0332 0
M  V30 15 H 1.9677 -0.1989 1.5482 0
M  V30 16 H -1.1391 0.1418 1.3926 0
M  V30 17 H -2.1793 -1.1915 0.8307 0
M  V30 18 H 3.6711 0.6105 -0.0959 0
M  V30 19 H 2.5043 1.8568 -0.7036 0
M  V30 20 H 3.1373 1.9479 0.9827 0
M  V30 21 H -1.2336 1.2204 -0.8492 0
M  V30 22 H -2.107 -0.2051 -1.5332 0
M  V30 23 H -3.6488 1.682 -1.0319 0
M  V30 24 H -4.0339 0.2491 -0.0064 0
M  V30 25 H -3.143 1.6603 0.7002 0
M  V30 END ATOM
M  V30 BEGIN BOND
M  V30 1 2 1 2
M  V30 2 1 2 3
M  V30 3 1 2 4
M  V30 4 1 4 5
M  V30 5 1 4 6
M  V30 6 1 5 7
M  V30 7 1 6 8
M  V30 8 1 7 9
M  V30 9 1 9 10
M  V30 10 1 4 11
M  V30 11 1 5 12
M  V30 12 1 5 13
M  V30 13 1 6 14
M  V30 14 1 6 15
M  V30 15 1 7 16
M  V30 16 1 7 17
M  V30 17 1 8 18
M  V30 18 1 8 19
M  V30 19 1 8 20
M  V30 20 1 9 21
M  V30 21 1 9 22
M  V30 22 1 10 23
M  V30 23 1 10 24
M  V30 24 1 10 25
M  V30 END BOND
M  V30 BEGIN COLLECTION
M  V30 MDLV30/STEABS ATOMS=(1 4)
M  V30 END COLLECTION
M  V30 END CTAB
M  END
>  <Structure No>
5791

>  <LogS>
-1.858

>  <MMFF94 Energy>
9.4576

$$$$
Compound 5792
Actelion Java MolfileCreator 2.0

  0  0  0  0  0  0              0 V3000
M  V30 BEGIN CTAB
M  V30 COUNTS 43 42 0 0 0
M  V30 BEGIN ATOM
M  V30 1 O 5.8845 2.5858 1.6449 0
M  V30 2 C 5.1578 1.5702 1.807 0
M  V30 3 O 4.4365 1.421 2.9849 0 CHG=-1
M  V30 4 C 5.0463 0.5428 0.7224 0
M  V30 5 C 4.139 1.0152 -0.4217 0
M  V30 6 C 2.6605 1.0783 -0.0017 0
M  V30 7 C 1.7525 1.6737 -1.0941 0
M  V30 8 C 1.6663 0.8472 -2.3912 0
M  V30 9 C 1.0876 -0.5708 -2.2248 0
M  V30 10 C -0.4 -0.5915 -1.8129 0
M  V30 11 C -0.593 -0.9016 -0.3208 0
M  V30 12 C -2.0816 -0.9431 0.0444 0
M  V30 13 C -2.2737 -1.2326 1.5395 0
M  V30 14 C -3.7462 -1.461 1.9208 0
M  V30 15 C -4.6247 -0.2003 1.7787 0
M  V30 16 C -5.4856 -0.2298 0.5157 0
M  V30 17 H 4.6611 -0.4107 1.1445 0
M  V30 18 H 6.0618 0.342 0.3177 0
M  V30 19 H 4.478 2.0115 -0.7822 0
M  V30 20 H 4.2506 0.2924 -1.2571 0
M  V30 21 H 2.31 0.0678 0.2923 0
M  V30 22 H 2.5651 1.7273 0.8952 0
M  V30 23 H 0.7322 1.8186 -0.6816 0
M  V30 24 H 2.1277 2.6882 -1.3518 0
M  V30 25 H 2.6732 0.7734 -2.8523 0
M  V30 26 H 1.0377 1.4051 -3.1193 0
M  V30 27 H 1.1715 -1.0689 -3.2156 0
M  V30 28 H 1.7131 -1.1747 -1.5341 0
M  V30 29 H -0.9151 -1.3843 -2.3995 0
M  V30 30 H -0.8928 0.3725 -2.0677 0
M  V30 31 H -0.1311 -1.8866 -0.0892 0
M  V30 32 H -0.0936 -0.1272 0.2962 0
M  V30 33 H -2.5859 -1.7329 -0.5546 0
M  V30 34 H -2.5361 0.0407 -0.2006 0
M  V30 35 H -1.8568 -0.3954 2.1417 0
M  V30 36 H -1.7066 -2.1515 1.8057 0
M  V30 37 H -3.765 -1.7762 2.9872 0
M  V30 38 H -4.1613 -2.3114 1.3358 0
M  V30 39 H -5.309 -0.138 2.6531 0
M  V30 40 H -4.0053 0.7228 1.785 0
M  V30 41 H -4.8571 -0.304 -0.3944 0
M  V30 42 H -6.0858 0.7023 0.4547 0
M  V30 43 H -6.1813 -1.0952 0.5466 0
M  V30 END ATOM
M  V30 BEGIN BOND
M  V30 1 2 1 2
M  V30 2 1 2 3
M  V30 3 1 2 4
M  V30 4 1 4 5
M  V30 5 1 5 6
M  V30 6 1 6 7
M  V30 7 1 7 8
M  V30 8 1 8 9
M  V30 9 1 9 10
M  V30 10 1 10 11
M  V30 11 1 11 12
M  V30 12 1 12 13
M  V30 13 1 13 14
M  V30 14 1 14 15
M  V30 15 1 15 16
M  V30 16 1 4 17
M  V30 17 1 4 18
M  V30 18 1 5 19
M  V30 19 1 5 20
M  V30 20 1 6 21
M  V30 21 1 6 22
M  V30 22 1 7 23
M  V30 23 1 7 24
M  V30 24 1 8 25
M  V30 25 1 8 26
M  V30 26 1 9 27
M  V30 27 1 9 28
M  V30 28 1 10 29
M  V30 29 1 10 30
M  V30 30 1 11 31
M  V30 31 1 11 32
M  V30 32 1 12 33
M  V30 33 1 12 34
M  V30 34 1 13 35
M  V30 35 1 13 36
M  V30 36 1 14 37
M  V30 37 1 14 38
M  V30 38 1 15 39
M  V30 39 1 15 40
M  V30 40 1 16 41
M  V30 41 1 16 42
M  V30 42 1 16 43
M  V30 END BOND
M  V30 END CTAB
M  END
>  <Structure No>
5792

>  <LogS>
-5.3293

>  <MMFF94 Energy>
0.11359

$$$$
Compound 5793
Actelion Java MolfileCreator 2.0

  0  0  0  0  0  0              0 V3000
M  V30 BEGIN CTAB
M  V30 COUNTS 18 18 0 0 0
M  V30 BEGIN ATOM
M  V30 1 Cl 2.964 2.2012 -1.0155 0
M  V30 2 C 2.1472 0.852 -0.2373 0
M  V30 3 C 2.8657 -0.1105 0.4914 0
M  V30 4 C 0.7555 0.7444 -0.352 0
M  V30 5 Cl 4.6133 -0.0114 0.6596 0
M  V30 6 C 2.1853 -1.1713 1.0981 0
M  V30 7 C 0.0703 -0.3238 0.2588 0
M  V30 8 C 0.7969 -1.2762 0.9821 0
M  V30 9 O -1.3218 -0.4737 0.1719 0
M  V30 10 C -2.1857 0.416 -0.5288 0
M  V30 11 C -3.5925 -0.0617 -0.3981 0
M  V30 12 O -4.0511 -0.9085 -1.2091 0
M  V30 13 O -4.3842 0.385 0.6522 0 CHG=-1
M  V30 14 H 0.2187 1.4947 -0.9167 0
M  V30 15 H 2.7321 -1.917 1.6614 0
M  V30 16 H 0.2821 -2.1022 1.4565 0
M  V30 17 H -1.9038 0.4492 -1.6036 0
M  V30 18 H -2.1051 1.4374 -0.098 0
M  V30 END ATOM
M  V30 BEGIN BOND
M  V30 1 1 1 2
M  V30 2 2 2 3
M  V30 3 1 2 4
M  V30 4 1 3 5
M  V30 5 1 3 6
M  V30 6 2 4 7
M  V30 7 2 6 8
M  V30 8 1 7 9
M  V30 9 1 9 10
M  V30 10 1 10 11
M  V30 11 2 11 12
M  V30 12 1 11 13
M  V30 13 1 7 8
M  V30 14 1 4 14
M  V30 15 1 6 15
M  V30 16 1 8 16
M  V30 17 1 10 17
M  V30 18 1 10 18
M  V30 END BOND
M  V30 END CTAB
M  END
>  <Structure No>
5793

>  <LogS>
-2.6846

>  <MMFF94 Energy>
68.484

$$$$
Compound 5794
Actelion Java MolfileCreator 2.0

  0  0  0  0  0  0              0 V3000
M  V30 BEGIN CTAB
M  V30 COUNTS 18 18 0 0 0
M  V30 BEGIN ATOM
M  V30 1 Cl 0.2468 -2.4704 0.7406 0
M  V30 2 C -0.738 -1.0931 0.2601 0
M  V30 3 C -0.2244 0.1937 -0.0734 0
M  V30 4 C -2.1221 -1.316 0.2144 0
M  V30 5 O 1.1358 0.5571 -0.0706 0
M  V30 6 C -1.1267 1.2038 -0.4391 0
M  V30 7 C -2.998 -0.2946 -0.1525 0
M  V30 8 C 2.2525 -0.2618 0.2525 0
M  V30 9 C -2.5009 0.9644 -0.4791 0
M  V30 10 C 3.4993 0.5458 0.1185 0
M  V30 11 O 4.073 0.6439 -0.9978 0
M  V30 12 O 4.0008 1.238 1.2133 0 CHG=-1
M  V30 13 H -2.5246 -2.2894 0.4657 0
M  V30 14 H -0.7557 2.1882 -0.6959 0
M  V30 15 H -4.0639 -0.4803 -0.1836 0
M  V30 16 H 2.3064 -1.1236 -0.4461 0
M  V30 17 H 2.1715 -0.6155 1.3018 0
M  V30 18 H -3.1805 1.7572 -0.7639 0
M  V30 END ATOM
M  V30 BEGIN BOND
M  V30 1 1 1 2
M  V30 2 2 2 3
M  V30 3 1 2 4
M  V30 4 1 3 5
M  V30 5 1 3 6
M  V30 6 2 4 7
M  V30 7 1 5 8
M  V30 8 2 6 9
M  V30 9 1 8 10
M  V30 10 2 10 11
M  V30 11 1 10 12
M  V30 12 1 7 9
M  V30 13 1 4 13
M  V30 14 1 6 14
M  V30 15 1 7 15
M  V30 16 1 8 16
M  V30 17 1 8 17
M  V30 18 1 9 18
M  V30 END BOND
M  V30 END CTAB
M  END
>  <Structure No>
5794

>  <LogS>
-2.1637

>  <MMFF94 Energy>
83.969

$$$$
Compound 5795
Actelion Java MolfileCreator 2.0

  0  0  0  0  0  0              0 V3000
M  V30 BEGIN CTAB
M  V30 COUNTS 22 22 0 0 0
M  V30 BEGIN ATOM
M  V30 1 O 5.0226 -1.3534 -0.2387 0
M  V30 2 C 4.7145 -0.1421 -0.0783 0
M  V30 3 O 5.7207 0.8093 0.0228 0 CHG=-1
M  V30 4 C 3.3069 0.2824 0.0014 0
M  V30 5 C 2.2914 -0.5901 -0.0664 0
M  V30 6 C 0.862 -0.2011 0.0219 0
M  V30 7 C -0.0813 -1.1814 0.3688 0
M  V30 8 C 0.4115 1.1029 -0.2627 0
M  V30 9 C -1.4401 -0.8653 0.456 0
M  V30 10 C -0.948 1.4166 -0.1758 0
M  V30 11 C -1.8834 0.4419 0.1852 0
M  V30 12 O -3.2351 0.8095 0.2595 0
M  V30 13 C -4.2911 -0.0778 0.6125 0
M  V30 14 H 3.1204 1.3373 0.1452 0
M  V30 15 H 2.5144 -1.6477 -0.1495 0
M  V30 16 H 0.2354 -2.1953 0.5821 0
M  V30 17 H 1.095 1.8795 -0.5756 0
M  V30 18 H -2.1367 -1.6444 0.7333 0
M  V30 19 H -1.2782 2.4236 -0.3977 0
M  V30 20 H -4.3475 -0.9133 -0.1166 0
M  V30 21 H -4.13 -0.4746 1.6371 0
M  V30 22 H -5.2518 0.4759 0.5931 0
M  V30 END ATOM
M  V30 BEGIN BOND
M  V30 1 2 1 2
M  V30 2 1 2 3
M  V30 3 1 2 4
M  V30 4 2 4 5
M  V30 5 1 5 6
M  V30 6 2 6 7
M  V30 7 1 6 8
M  V30 8 1 7 9
M  V30 9 2 8 10
M  V30 10 2 9 11
M  V30 11 1 11 12
M  V30 12 1 12 13
M  V30 13 1 10 11
M  V30 14 1 4 14
M  V30 15 1 5 15
M  V30 16 1 7 16
M  V30 17 1 8 17
M  V30 18 1 9 18
M  V30 19 1 10 19
M  V30 20 1 13 20
M  V30 21 1 13 21
M  V30 22 1 13 22
M  V30 END BOND
M  V30 END CTAB
M  END
>  <Structure No>
5795

>  <LogS>
-2.3984

>  <MMFF94 Energy>
13.788

$$$$
Compound 5796
Actelion Java MolfileCreator 2.0

  0  0  0  0  0  0              0 V3000
M  V30 BEGIN CTAB
M  V30 COUNTS 14 14 0 0 0
M  V30 BEGIN ATOM
M  V30 1 Cl -1.5513 3.0181 0.2584 0
M  V30 2 C -0.9486 1.3756 0.1298 0
M  V30 3 C -1.8466 0.3076 0.0456 0
M  V30 4 C 0.4297 1.1355 0.1117 0
M  V30 5 C -1.3686 -1.0017 -0.0568 0
M  V30 6 C 0.9225 -0.1777 0.0089 0
M  V30 7 Cl -2.4976 -2.3404 -0.1624 0
M  V30 8 C 0.0091 -1.2453 -0.0752 0
M  V30 9 C 2.3805 -0.4288 -0.0098 0
M  V30 10 O 2.8272 -1.6032 -0.1018 0
M  V30 11 O 3.2788 0.6289 0.0735 0 CHG=-1
M  V30 12 H -2.9131 0.4949 0.0598 0
M  V30 13 H 1.1107 1.975 0.178 0
M  V30 14 H 0.3622 -2.266 -0.155 0
M  V30 END ATOM
M  V30 BEGIN BOND
M  V30 1 1 1 2
M  V30 2 2 2 3
M  V30 3 1 2 4
M  V30 4 1 3 5
M  V30 5 2 4 6
M  V30 6 1 5 7
M  V30 7 2 5 8
M  V30 8 1 6 9
M  V30 9 2 9 10
M  V30 10 1 9 11
M  V30 11 1 6 8
M  V30 12 1 3 12
M  V30 13 1 4 13
M  V30 14 1 8 14
M  V30 END BOND
M  V30 END CTAB
M  END
>  <Structure No>
5796

>  <LogS>
-3.1137

>  <MMFF94 Energy>
11.852

$$$$
Compound 5797
Actelion Java MolfileCreator 2.0

  0  0  0  0  0  0              0 V3000
M  V30 BEGIN CTAB
M  V30 COUNTS 14 14 0 0 0
M  V30 BEGIN ATOM
M  V30 1 Cl 2.329 -2.4154 -0.431 0
M  V30 2 C 1.3017 -1.0019 -0.2309 0
M  V30 3 C 1.8371 0.2959 -0.2612 0
M  V30 4 C -0.073 -1.1849 -0.0387 0
M  V30 5 Cl 3.5576 0.5685 -0.5002 0
M  V30 6 C 0.9925 1.3984 -0.0989 0
M  V30 7 C -0.9264 -0.0797 0.1249 0
M  V30 8 C -0.3791 1.2149 0.0928 0
M  V30 9 C -2.3782 -0.2799 0.3277 0
M  V30 10 O -3.1469 0.7072 0.4748 0
M  V30 11 O -2.9151 -1.5618 0.3588 0 CHG=-1
M  V30 12 H -0.4708 -2.1918 -0.0176 0
M  V30 13 H 1.3988 2.4017 -0.1212 0
M  V30 14 H -1.0102 2.0863 0.2158 0
M  V30 END ATOM
M  V30 BEGIN BOND
M  V30 1 1 1 2
M  V30 2 2 2 3
M  V30 3 1 2 4
M  V30 4 1 3 5
M  V30 5 1 3 6
M  V30 6 2 4 7
M  V30 7 2 6 8
M  V30 8 1 7 9
M  V30 9 2 9 10
M  V30 10 1 9 11
M  V30 11 1 7 8
M  V30 12 1 4 12
M  V30 13 1 6 13
M  V30 14 1 8 14
M  V30 END BOND
M  V30 END CTAB
M  END
>  <Structure No>
5797

>  <LogS>
-3.495

>  <MMFF94 Energy>
34.224

$$$$
Compound 5798
Actelion Java MolfileCreator 2.0

  0  0  0  0  0  0              0 V3000
M  V30 BEGIN CTAB
M  V30 COUNTS 20 21 0 0 0
M  V30 BEGIN ATOM
M  V30 1 O -1.6171 -2.8313 0.7274 0
M  V30 2 C -2.1733 -1.7461 0.4131 0
M  V30 3 O -3.5384 -1.7381 0.1509 0 CHG=-1
M  V30 4 C -1.4107 -0.4759 0.4012 0
M  V30 5 C -0.0693 -0.3712 -0.0651 0
M  V30 6 C -2.0512 0.6688 0.9061 0
M  V30 7 C 0.6082 0.8753 0.0477 0
M  V30 8 C 0.6086 -1.4497 -0.6764 0
M  V30 9 C -1.3778 1.8857 0.9981 0
M  V30 10 C -0.0527 1.9885 0.5837 0
M  V30 11 C 1.936 0.9987 -0.3916 0
M  V30 12 C 1.9286 -1.3075 -1.1116 0
M  V30 13 C 2.5926 -0.091 -0.9622 0
M  V30 14 H -3.0737 0.6152 1.2603 0
M  V30 15 H 0.1282 -2.4003 -0.8518 0
M  V30 16 H -1.8841 2.7525 1.4034 0
M  V30 17 H 0.4526 2.9433 0.6708 0
M  V30 18 H 2.4631 1.9414 -0.3015 0
M  V30 19 H 2.4364 -2.1435 -1.5752 0
M  V30 20 H 3.6148 0.0116 -1.303 0
M  V30 END ATOM
M  V30 BEGIN BOND
M  V30 1 2 1 2
M  V30 2 1 2 3
M  V30 3 1 2 4
M  V30 4 1 4 5
M  V30 5 2 4 6
M  V30 6 1 5 7
M  V30 7 2 5 8
M  V30 8 1 6 9
M  V30 9 1 7 10
M  V30 10 2 7 11
M  V30 11 1 8 12
M  V30 12 1 11 13
M  V30 13 2 9 10
M  V30 14 2 12 13
M  V30 15 1 6 14
M  V30 16 1 8 15
M  V30 17 1 9 16
M  V30 18 1 10 17
M  V30 19 1 11 18
M  V30 20 1 12 19
M  V30 21 1 13 20
M  V30 END BOND
M  V30 END CTAB
M  END
>  <Structure No>
5798

>  <LogS>
-3.3015

>  <MMFF94 Energy>
53.267

$$$$
Compound 5799
Actelion Java MolfileCreator 2.0

  0  0  0  0  0  0              0 V3000
M  V30 BEGIN CTAB
M  V30 COUNTS 11 11 0 0 0
M  V30 BEGIN ATOM
M  V30 1 S -1.8653 1.2715 -0.2542 0
M  V30 2 C -0.293 1.1581 -0.8358 0
M  V30 3 C -1.7939 -0.0535 0.7762 0
M  V30 4 C 0.3156 0.0663 -0.2219 0
M  V30 5 C -0.5256 -0.6084 0.6781 0
M  V30 6 C 1.7045 -0.3427 -0.4883 0
M  V30 7 O 2.4128 0.3013 -1.3068 0
M  V30 8 O 2.247 -1.4446 0.1619 0 CHG=-1
M  V30 9 H 0.1612 1.8208 -1.5606 0
M  V30 10 H -2.5952 -0.4136 1.4072 0
M  V30 11 H -0.2233 -1.4788 1.2458 0
M  V30 END ATOM
M  V30 BEGIN BOND
M  V30 1 1 1 2
M  V30 2 1 1 3
M  V30 3 2 2 4
M  V30 4 2 3 5
M  V30 5 1 4 6
M  V30 6 2 6 7
M  V30 7 1 6 8
M  V30 8 1 4 5
M  V30 9 1 2 9
M  V30 10 1 3 10
M  V30 11 1 5 11
M  V30 END BOND
M  V30 END CTAB
M  END
>  <Structure No>
5799

>  <LogS>
-1.4743

>  <MMFF94 Energy>
16.847

$$$$
Compound 5800
Actelion Java MolfileCreator 2.0

  0  0  0  0  0  0              0 V3000
M  V30 BEGIN CTAB
M  V30 COUNTS 11 11 0 0 0
M  V30 BEGIN ATOM
M  V30 1 O 2.6514 -0.8029 0.5619 0
M  V30 2 C 2.0453 0.0293 -0.163 0
M  V30 3 O 2.7707 0.8711 -0.9958 0 CHG=-1
M  V30 4 C 0.5815 0.1144 -0.1333 0
M  V30 5 O -0.1167 0.9559 -0.8601 0
M  V30 6 C -0.2633 -0.6556 0.6419 0
M  V30 7 C -1.3914 0.776 -0.5992 0
M  V30 8 C -1.5375 -0.226 0.3388 0
M  V30 9 H 0.0115 -1.4338 1.3418 0
M  V30 10 H -2.1943 1.3368 -1.0587 0
M  V30 11 H -2.4649 -0.5989 0.7526 0
M  V30 END ATOM
M  V30 BEGIN BOND
M  V30 1 2 1 2
M  V30 2 1 2 3
M  V30 3 1 2 4
M  V30 4 1 4 5
M  V30 5 2 4 6
M  V30 6 1 5 7
M  V30 7 1 6 8
M  V30 8 2 7 8
M  V30 9 1 6 9
M  V30 10 1 7 10
M  V30 11 1 8 11
M  V30 END BOND
M  V30 END CTAB
M  END
>  <Structure No>
5800

>  <LogS>
-0.4802

>  <MMFF94 Energy>
41.075

$$$$
Compound 5801
Actelion Java MolfileCreator 2.0

  0  0  0  0  0  0              0 V3000
M  V30 BEGIN CTAB
M  V30 COUNTS 20 21 0 0 0
M  V30 BEGIN ATOM
M  V30 1 O 3.4781 -2.1828 0.3231 0
M  V30 2 C 3.3291 -0.9329 0.3763 0
M  V30 3 O 4.4479 -0.129 0.5622 0 CHG=-1
M  V30 4 C 1.9848 -0.3282 0.2434 0
M  V30 5 C 0.8501 -1.1384 0.0553 0
M  V30 6 C 1.8282 1.0672 0.3041 0
M  V30 7 C -0.4236 -0.5629 -0.0704 0
M  V30 8 C 0.5636 1.6481 0.1798 0
M  V30 9 C -0.5679 0.8436 -0.0076 0
M  V30 10 C -1.5579 -1.3687 -0.2582 0
M  V30 11 C -1.8424 1.4182 -0.1335 0
M  V30 12 C -2.8216 -0.7841 -0.3822 0
M  V30 13 C -2.9634 0.6044 -0.3201 0
M  V30 14 H 0.9559 -2.2161 0.0067 0
M  V30 15 H 2.6848 1.7135 0.4482 0
M  V30 16 H 0.4708 2.7266 0.2301 0
M  V30 17 H -1.4675 -2.4471 -0.3088 0
M  V30 18 H -1.971 2.4931 -0.0878 0
M  V30 19 H -3.6933 -1.4092 -0.5269 0
M  V30 20 H -3.9445 1.0512 -0.4167 0
M  V30 END ATOM
M  V30 BEGIN BOND
M  V30 1 2 1 2
M  V30 2 1 2 3
M  V30 3 1 2 4
M  V30 4 2 4 5
M  V30 5 1 4 6
M  V30 6 1 5 7
M  V30 7 2 6 8
M  V30 8 1 7 9
M  V30 9 2 7 10
M  V30 10 2 9 11
M  V30 11 1 10 12
M  V30 12 1 11 13
M  V30 13 1 8 9
M  V30 14 2 12 13
M  V30 15 1 5 14
M  V30 16 1 6 15
M  V30 17 1 8 16
M  V30 18 1 10 17
M  V30 19 1 11 18
M  V30 20 1 12 19
M  V30 21 1 13 20
M  V30 END BOND
M  V30 END CTAB
M  END
>  <Structure No>
5801

>  <LogS>
-3.5639

>  <MMFF94 Energy>
49.025

$$$$
Compound 5802
Actelion Java MolfileCreator 2.0

  0  0  0  0  0  0              0 V3000
M  V30 BEGIN CTAB
M  V30 COUNTS 17 17 0 0 0
M  V30 BEGIN ATOM
M  V30 1 O 2.5561 -2.2363 0.399 0
M  V30 2 C 2.582 -1.0066 0.1259 0
M  V30 3 O 3.8109 -0.3839 -0.06 0 CHG=-1
M  V30 4 C 1.3248 -0.2358 0.0042 0
M  V30 5 C 0.0779 -0.8607 0.1944 0
M  V30 6 C 1.3615 1.1358 -0.3001 0
M  V30 7 C -1.1142 -0.1294 0.0695 0
M  V30 8 C 0.1766 1.8684 -0.4066 0
M  V30 9 C -1.0565 1.242 -0.2166 0
M  V30 10 C -2.4368 -0.7946 0.3125 0
M  V30 11 H 0.0297 -1.915 0.4393 0
M  V30 12 H 2.3049 1.6451 -0.4512 0
M  V30 13 H 0.2146 2.926 -0.6336 0
M  V30 14 H -1.9657 1.8257 -0.2932 0
M  V30 15 H -2.6833 -0.7417 1.3935 0
M  V30 16 H -2.4021 -1.86 1.0E-4 0
M  V30 17 H -3.2411 -0.2936 -0.2673 0
M  V30 END ATOM
M  V30 BEGIN BOND
M  V30 1 2 1 2
M  V30 2 1 2 3
M  V30 3 1 2 4
M  V30 4 2 4 5
M  V30 5 1 4 6
M  V30 6 1 5 7
M  V30 7 2 6 8
M  V30 8 2 7 9
M  V30 9 1 7 10
M  V30 10 1 8 9
M  V30 11 1 5 11
M  V30 12 1 6 12
M  V30 13 1 8 13
M  V30 14 1 9 14
M  V30 15 1 10 15
M  V30 16 1 10 16
M  V30 17 1 10 17
M  V30 END BOND
M  V30 END CTAB
M  END
>  <Structure No>
5802

>  <LogS>
-2.1428

>  <MMFF94 Energy>
39.448

$$$$
Compound 5803
Actelion Java MolfileCreator 2.0

  0  0  0  0  0  0              0 V3000
M  V30 BEGIN CTAB
M  V30 COUNTS 18 18 0 0 0
M  V30 BEGIN ATOM
M  V30 1 O -4.0847 -0.2399 -1.12 0
M  V30 2 C -3.363 0.2649 -0.2192 0
M  V30 3 O -3.9677 0.9908 0.8008 0 CHG=-1
M  V30 4 C -1.8941 0.0889 -0.2451 0
M  V30 5 C -1.2772 -0.6439 -1.2741 0
M  V30 6 C -1.0934 0.654 0.762 0
M  V30 7 C 0.1108 -0.8068 -1.2934 0
M  V30 8 C 0.2949 0.4899 0.7411 0
M  V30 9 C 0.9082 -0.2444 -0.2909 0
M  V30 10 O 2.2962 -0.437 -0.3559 0
M  V30 11 C 3.2244 0.077 0.5936 0
M  V30 12 H -1.8665 -1.0917 -2.0647 0
M  V30 13 H -1.5388 1.224 1.5679 0
M  V30 14 H 0.5704 -1.3742 -2.093 0
M  V30 15 H 0.8815 0.9381 1.5316 0
M  V30 16 H 4.25 -0.2252 0.2984 0
M  V30 17 H 3.0079 -0.3363 1.6014 0
M  V30 18 H 3.1731 1.1862 0.616 0
M  V30 END ATOM
M  V30 BEGIN BOND
M  V30 1 2 1 2
M  V30 2 1 2 3
M  V30 3 1 2 4
M  V30 4 2 4 5
M  V30 5 1 4 6
M  V30 6 1 5 7
M  V30 7 2 6 8
M  V30 8 2 7 9
M  V30 9 1 9 10
M  V30 10 1 10 11
M  V30 11 1 8 9
M  V30 12 1 5 12
M  V30 13 1 6 13
M  V30 14 1 7 14
M  V30 15 1 8 15
M  V30 16 1 11 16
M  V30 17 1 11 17
M  V30 18 1 11 18
M  V30 END BOND
M  V30 END CTAB
M  END
>  <Structure No>
5803

>  <LogS>
-2.458

>  <MMFF94 Energy>
40.546

$$$$
Compound 5804
Actelion Java MolfileCreator 2.0

  0  0  0  0  0  0              0 V3000
M  V30 BEGIN CTAB
M  V30 COUNTS 17 17 0 0 0
M  V30 BEGIN ATOM
M  V30 1 O 0.4793 3.0388 -1.0388 0
M  V30 2 C -0.2546 2.2214 -0.4216 0
M  V30 3 O -1.4896 2.657 0.0424 0 CHG=-1
M  V30 4 C 0.2222 0.8364 -0.1669 0
M  V30 5 C -0.6603 -0.2502 0.0896 0
M  V30 6 C 1.6104 0.5946 -0.18 0
M  V30 7 C -0.1253 -1.5229 0.3619 0
M  V30 8 C -2.1586 -0.0935 0.073 0
M  V30 9 C 2.1188 -0.6784 0.0796 0
M  V30 10 C 1.2531 -1.7334 0.3556 0
M  V30 11 H 2.3097 1.3983 -0.3756 0
M  V30 12 H -0.7778 -2.3614 0.5723 0
M  V30 13 H -2.4781 0.4433 -0.8445 0
M  V30 14 H -2.6724 -1.0784 0.0716 0
M  V30 15 H -2.488 0.463 0.975 0
M  V30 16 H 3.1882 -0.8452 0.0729 0
M  V30 17 H 1.6508 -2.7188 0.5616 0
M  V30 END ATOM
M  V30 BEGIN BOND
M  V30 1 2 1 2
M  V30 2 1 2 3
M  V30 3 1 2 4
M  V30 4 2 4 5
M  V30 5 1 4 6
M  V30 6 1 5 7
M  V30 7 1 5 8
M  V30 8 2 6 9
M  V30 9 2 7 10
M  V30 10 1 9 10
M  V30 11 1 6 11
M  V30 12 1 7 12
M  V30 13 1 8 13
M  V30 14 1 8 14
M  V30 15 1 8 15
M  V30 16 1 9 16
M  V30 17 1 10 17
M  V30 END BOND
M  V30 END CTAB
M  END
>  <Structure No>
5804

>  <LogS>
-2.0621

>  <MMFF94 Energy>
43.734

$$$$
Compound 5805
Actelion Java MolfileCreator 2.0

  0  0  0  0  0  0              0 V3000
M  V30 BEGIN CTAB
M  V30 COUNTS 14 14 0 0 0
M  V30 BEGIN ATOM
M  V30 1 F -1.6278 2.524 -0.4067 0
M  V30 2 C -1.0854 1.2934 -0.2343 0
M  V30 3 C 0.3042 1.1444 -0.1765 0
M  V30 4 C -1.9156 0.1762 -0.1146 0
M  V30 5 C 0.8768 -0.1281 0.0021 0
M  V30 6 C -1.3581 -1.092 0.063 0
M  V30 7 C 2.3466 -0.2842 0.0631 0
M  V30 8 C 0.0303 -1.2465 0.1215 0
M  V30 9 O 2.8641 -1.4217 0.2229 0
M  V30 10 O 3.1782 0.8235 -0.0551 0 CHG=-1
M  V30 11 H 0.9291 2.0236 -0.2713 0
M  V30 12 H -2.9909 0.292 -0.1593 0
M  V30 13 H -2.0025 -1.9566 0.1555 0
M  V30 14 H 0.44 -2.2392 0.2599 0
M  V30 END ATOM
M  V30 BEGIN BOND
M  V30 1 1 1 2
M  V30 2 2 2 3
M  V30 3 1 2 4
M  V30 4 1 3 5
M  V30 5 2 4 6
M  V30 6 1 5 7
M  V30 7 2 5 8
M  V30 8 2 7 9
M  V30 9 1 7 10
M  V30 10 1 6 8
M  V30 11 1 3 11
M  V30 12 1 4 12
M  V30 13 1 6 13
M  V30 14 1 8 14
M  V30 END BOND
M  V30 END CTAB
M  END
>  <Structure No>
5805

>  <LogS>
-1.9704

>  <MMFF94 Energy>
26.953

$$$$
Compound 5806
Actelion Java MolfileCreator 2.0

  0  0  0  0  0  0              0 V3000
M  V30 BEGIN CTAB
M  V30 COUNTS 14 14 0 0 0
M  V30 BEGIN ATOM
M  V30 1 F -3.2577 -0.0813 -0.1626 0
M  V30 2 C -1.9048 -0.0408 -0.0863 0
M  V30 3 C -1.2506 1.1819 0.0842 0
M  V30 4 C -1.1638 -1.2215 -0.1781 0
M  V30 5 C 0.1448 1.2266 0.1633 0
M  V30 6 C 0.2317 -1.1823 -0.0996 0
M  V30 7 C 0.9011 0.044 0.0722 0
M  V30 8 C 2.3772 0.0929 0.156 0
M  V30 9 O 3.059 -0.9634 0.0749 0
M  V30 10 O 3.0334 1.3069 0.3257 0 CHG=-1
M  V30 11 H -1.8243 2.097 0.1554 0
M  V30 12 H -1.6702 -2.1691 -0.3101 0
M  V30 13 H 0.6296 2.1857 0.2956 0
M  V30 14 H 0.7853 -2.11 -0.1732 0
M  V30 END ATOM
M  V30 BEGIN BOND
M  V30 1 1 1 2
M  V30 2 2 2 3
M  V30 3 1 2 4
M  V30 4 1 3 5
M  V30 5 2 4 6
M  V30 6 2 5 7
M  V30 7 1 7 8
M  V30 8 2 8 9
M  V30 9 1 8 10
M  V30 10 1 6 7
M  V30 11 1 3 11
M  V30 12 1 4 12
M  V30 13 1 5 13
M  V30 14 1 6 14
M  V30 END BOND
M  V30 END CTAB
M  END
>  <Structure No>
5806

>  <LogS>
-2.0673

>  <MMFF94 Energy>
31.723

$$$$
Compound 5807
Actelion Java MolfileCreator 2.0

  0  0  0  0  0  0              0 V3000
M  V30 BEGIN CTAB
M  V30 COUNTS 14 14 0 0 0
M  V30 BEGIN ATOM
M  V30 1 Cl 2.8292 -1.9132 0.0831 0
M  V30 2 C 1.5329 -0.7324 0.0332 0
M  V30 3 C 0.1989 -1.1558 0.0531 0
M  V30 4 C 1.8331 0.6315 -0.0263 0
M  V30 5 C -0.8471 -0.2159 0.0133 0
M  V30 6 C 0.8021 1.5726 -0.0661 0
M  V30 7 C -2.2564 -0.6652 0.0345 0
M  V30 8 C -0.5316 1.1543 -0.0465 0
M  V30 9 O -3.1967 0.1725 -9.0E-4 0
M  V30 10 O -2.5632 -2.0198 0.0937 0 CHG=-1
M  V30 11 H -0.0157 -2.2161 0.0995 0
M  V30 12 H 2.8636 0.9628 -0.0418 0
M  V30 13 H 1.0365 2.6283 -0.1121 0
M  V30 14 H -1.3141 1.9022 -0.0781 0
M  V30 END ATOM
M  V30 BEGIN BOND
M  V30 1 1 1 2
M  V30 2 2 2 3
M  V30 3 1 2 4
M  V30 4 1 3 5
M  V30 5 2 4 6
M  V30 6 1 5 7
M  V30 7 2 5 8
M  V30 8 2 7 9
M  V30 9 1 7 10
M  V30 10 1 6 8
M  V30 11 1 3 11
M  V30 12 1 4 12
M  V30 13 1 6 13
M  V30 14 1 8 14
M  V30 END BOND
M  V30 END CTAB
M  END
>  <Structure No>
5807

>  <LogS>
-2.5415

>  <MMFF94 Energy>
27.978

$$$$
Compound 5808
Actelion Java MolfileCreator 2.0

  0  0  0  0  0  0              0 V3000
M  V30 BEGIN CTAB
M  V30 COUNTS 23 23 0 0 0
M  V30 BEGIN ATOM
M  V30 1 O 4.6168 0.3973 0.5563 0
M  V30 2 C 3.9385 -0.2303 -0.2999 0
M  V30 3 O 4.6005 -0.9528 -1.2858 0 CHG=-1
M  V30 4 C 2.4597 -0.1996 -0.258 0
M  V30 5 C 1.7851 0.5293 0.7364 0
M  V30 6 C 1.7081 -0.9011 -1.2151 0
M  V30 7 C 0.3881 0.5556 0.7724 0
M  V30 8 C 0.3109 -0.8747 -1.1792 0
M  V30 9 C -0.3652 -0.1467 -0.1858 0
M  V30 10 C -1.8823 -0.1268 -0.1589 0
M  V30 11 C -2.4202 -0.7443 1.1374 0
M  V30 12 C -2.4202 1.2952 -0.3574 0
M  V30 13 H 2.3364 1.0804 1.4882 0
M  V30 14 H 2.1986 -1.4717 -1.9936 0
M  V30 15 H -0.1036 1.1257 1.55 0
M  V30 16 H -0.2423 -1.425 -1.9301 0
M  V30 17 H -2.2754 -0.7425 -0.9989 0
M  V30 18 H -2.0188 -1.7725 1.2644 0
M  V30 19 H -3.5287 -0.8073 1.097 0
M  V30 20 H -2.134 -0.135 2.021 0
M  V30 21 H -3.5287 1.2755 -0.4296 0
M  V30 22 H -2.134 1.9543 0.4894 0
M  V30 23 H -2.0188 1.7258 -1.2998 0
M  V30 END ATOM
M  V30 BEGIN BOND
M  V30 1 2 1 2
M  V30 2 1 2 3
M  V30 3 1 2 4
M  V30 4 2 4 5
M  V30 5 1 4 6
M  V30 6 1 5 7
M  V30 7 2 6 8
M  V30 8 2 7 9
M  V30 9 1 9 10
M  V30 10 1 10 11
M  V30 11 1 10 12
M  V30 12 1 8 9
M  V30 13 1 5 13
M  V30 14 1 6 14
M  V30 15 1 7 15
M  V30 16 1 8 16
M  V30 17 1 10 17
M  V30 18 1 11 18
M  V30 19 1 11 19
M  V30 20 1 11 20
M  V30 21 1 12 21
M  V30 22 1 12 22
M  V30 23 1 12 23
M  V30 END BOND
M  V30 END CTAB
M  END
>  <Structure No>
5808

>  <LogS>
-3.0364

>  <MMFF94 Energy>
44.07

$$$$
Compound 5809
Actelion Java MolfileCreator 2.0

  0  0  0  0  0  0              0 V3000
M  V30 BEGIN CTAB
M  V30 COUNTS 18 17 0 0 0
M  V30 BEGIN ATOM
M  V30 1 O 2.2195 0.1529 0.2294 0
M  V30 2 C 1.1985 -0.1739 -0.675 0
M  V30 3 C -0.1914 -0.0416 -0.0085 0
M  V30 4 C -0.2936 -0.998 1.1967 0
M  V30 5 C -0.4156 1.409 0.4642 0
M  V30 6 C -1.2793 -0.4096 -1.0366 0
M  V30 7 H 3.0725 0.0453 -0.2662 0
M  V30 8 H 1.2582 0.5031 -1.5576 0
M  V30 9 H 1.3455 -1.2183 -1.0337 0
M  V30 10 H -1.3009 -0.9341 1.6626 0
M  V30 11 H -0.1231 -2.049 0.8778 0
M  V30 12 H 0.4603 -0.7411 1.9714 0
M  V30 13 H 0.3368 1.6971 1.2294 0
M  V30 14 H -0.3342 2.1158 -0.3894 0
M  V30 15 H -1.4254 1.5218 0.9153 0
M  V30 16 H -1.1451 -1.4539 -1.3928 0
M  V30 17 H -2.2917 -0.3237 -0.5856 0
M  V30 18 H -1.2323 0.2676 -1.9167 0
M  V30 END ATOM
M  V30 BEGIN BOND
M  V30 1 1 1 2
M  V30 2 1 2 3
M  V30 3 1 3 4
M  V30 4 1 3 5
M  V30 5 1 3 6
M  V30 6 1 1 7
M  V30 7 1 2 8
M  V30 8 1 2 9
M  V30 9 1 4 10
M  V30 10 1 4 11
M  V30 11 1 4 12
M  V30 12 1 5 13
M  V30 13 1 5 14
M  V30 14 1 5 15
M  V30 15 1 6 16
M  V30 16 1 6 17
M  V30 17 1 6 18
M  V30 END BOND
M  V30 END CTAB
M  END
>  <Structure No>
5809

>  <LogS>
-0.4012

>  <MMFF94 Energy>
12.045

$$$$
Compound 5810
Actelion Java MolfileCreator 2.0

  0  0  0  0  0  0              0 V3000
M  V30 BEGIN CTAB
M  V30 COUNTS 15 14 0 0 0
M  V30 BEGIN ATOM
M  V30 1 O 1.5188 -1.4428 0.1517 0
M  V30 2 C 0.6665 -0.4139 -0.2797 0 CFG=1
M  V30 3 C -0.6914 -0.5743 0.4266 0
M  V30 4 C 1.3142 0.9422 0.0265 0
M  V30 5 C -1.7726 0.3443 -0.1438 0
M  V30 6 H 2.2472 -1.5152 -0.5192 0
M  V30 7 H 0.509 -0.4998 -1.3806 0
M  V30 8 H -0.5818 -0.3842 1.5167 0
M  V30 9 H -1.0341 -1.6248 0.3024 0
M  V30 10 H 2.3248 0.9885 -0.4316 0
M  V30 11 H 0.7123 1.7711 -0.3998 0
M  V30 12 H 1.4159 1.0874 1.1232 0
M  V30 13 H -1.8591 0.2086 -1.2428 0
M  V30 14 H -1.5463 1.4067 0.0821 0
M  V30 15 H -2.7502 0.095 0.3198 0
M  V30 END ATOM
M  V30 BEGIN BOND
M  V30 1 1 1 2
M  V30 2 1 2 3
M  V30 3 1 2 4
M  V30 4 1 3 5
M  V30 5 1 1 6
M  V30 6 1 2 7
M  V30 7 1 3 8
M  V30 8 1 3 9
M  V30 9 1 4 10
M  V30 10 1 4 11
M  V30 11 1 4 12
M  V30 12 1 5 13
M  V30 13 1 5 14
M  V30 14 1 5 15
M  V30 END BOND
M  V30 BEGIN COLLECTION
M  V30 MDLV30/STEABS ATOMS=(1 2)
M  V30 END COLLECTION
M  V30 END CTAB
M  END
>  <Structure No>
5810

>  <LogS>
0.3877

>  <MMFF94 Energy>
2.1555

$$$$
Compound 5811
Actelion Java MolfileCreator 2.0

  0  0  0  0  0  0              0 V3000
M  V30 BEGIN CTAB
M  V30 COUNTS 26 27 0 0 0
M  V30 BEGIN ATOM
M  V30 1 O -0.0791 -1.4251 -2.059 0
M  V30 2 C -0.0135 -1.2582 -0.6619 0
M  V30 3 C 1.2868 -0.6104 -0.2234 0
M  V30 4 C -1.2181 -0.4989 -0.1309 0
M  V30 5 C 2.0209 0.2421 -1.0725 0
M  V30 6 C 1.7465 -0.8203 1.0895 0
M  V30 7 C -2.21 -1.1736 0.6039 0
M  V30 8 C -1.3741 0.8779 -0.382 0
M  V30 9 C 3.1969 0.8485 -0.6202 0
M  V30 10 C 2.9228 -0.2114 1.536 0
M  V30 11 C -3.3253 -0.4827 1.0876 0
M  V30 12 C -2.4912 1.5637 0.1039 0
M  V30 13 C 3.6485 0.6206 0.6813 0
M  V30 14 C -3.4653 0.8845 0.8391 0
M  V30 15 H -0.3404 -0.5608 -2.4705 0
M  V30 16 H -0.02 -2.2837 -0.2309 0
M  V30 17 H 1.6909 0.4464 -2.0816 0
M  V30 18 H 1.1902 -1.4546 1.7688 0
M  V30 19 H -2.1214 -2.2338 0.8051 0
M  V30 20 H -0.6322 1.4212 -0.9527 0
M  V30 21 H 3.7568 1.4994 -1.2792 0
M  V30 22 H 3.2697 -0.382 2.547 0
M  V30 23 H -4.0825 -1.0085 1.6548 0
M  V30 24 H -2.6022 2.6226 -0.0908 0
M  V30 25 H 4.5582 1.0926 1.029 0
M  V30 26 H -4.3296 1.4171 1.2141 0
M  V30 END ATOM
M  V30 BEGIN BOND
M  V30 1 1 1 2
M  V30 2 1 2 3
M  V30 3 1 2 4
M  V30 4 2 3 5
M  V30 5 1 3 6
M  V30 6 2 4 7
M  V30 7 1 4 8
M  V30 8 1 5 9
M  V30 9 2 6 10
M  V30 10 1 7 11
M  V30 11 2 8 12
M  V30 12 2 9 13
M  V30 13 2 11 14
M  V30 14 1 10 13
M  V30 15 1 12 14
M  V30 16 1 1 15
M  V30 17 1 2 16
M  V30 18 1 5 17
M  V30 19 1 6 18
M  V30 20 1 7 19
M  V30 21 1 8 20
M  V30 22 1 9 21
M  V30 23 1 10 22
M  V30 24 1 11 23
M  V30 25 1 12 24
M  V30 26 1 13 25
M  V30 27 1 14 26
M  V30 END BOND
M  V30 END CTAB
M  END
>  <Structure No>
5811

>  <LogS>
-2.5494

>  <MMFF94 Energy>
46.923

$$$$
Compound 5812
Actelion Java MolfileCreator 2.0

  0  0  0  0  0  0              0 V3000
M  V30 BEGIN CTAB
M  V30 COUNTS 16 16 0 0 0
M  V30 BEGIN ATOM
M  V30 1 O 2.7287 0.6232 -0.3894 0
M  V30 2 C 1.9993 -0.0328 0.6108 0
M  V30 3 C 0.5341 -0.0217 0.2729 0
M  V30 4 C -0.2589 1.0903 0.6006 0
M  V30 5 C -0.0404 -1.0956 -0.4266 0
M  V30 6 C -1.6142 1.1145 0.256 0
M  V30 7 C -1.396 -1.0676 -0.7694 0
M  V30 8 C -2.1828 0.0355 -0.4262 0
M  V30 9 H 2.7815 -0.0025 -1.1586 0
M  V30 10 H 2.1664 0.4908 1.5762 0
M  V30 11 H 2.3682 -1.0761 0.7403 0
M  V30 12 H 0.1717 1.9366 1.1216 0
M  V30 13 H 0.5602 -1.9522 -0.7063 0
M  V30 14 H -2.2228 1.9712 0.5152 0
M  V30 15 H -1.8357 -1.8996 -1.304 0
M  V30 16 H -3.2316 0.0561 -0.6933 0
M  V30 END ATOM
M  V30 BEGIN BOND
M  V30 1 1 1 2
M  V30 2 1 2 3
M  V30 3 2 3 4
M  V30 4 1 3 5
M  V30 5 1 4 6
M  V30 6 2 5 7
M  V30 7 2 6 8
M  V30 8 1 7 8
M  V30 9 1 1 9
M  V30 10 1 2 10
M  V30 11 1 2 11
M  V30 12 1 4 12
M  V30 13 1 5 13
M  V30 14 1 6 14
M  V30 15 1 7 15
M  V30 16 1 8 16
M  V30 END BOND
M  V30 END CTAB
M  END
>  <Structure No>
5812

>  <LogS>
-0.4319

>  <MMFF94 Energy>
19.915

$$$$
Compound 5813
Actelion Java MolfileCreator 2.0

  0  0  0  0  0  0              0 V3000
M  V30 BEGIN CTAB
M  V30 COUNTS 19 19 0 0 0
M  V30 BEGIN ATOM
M  V30 1 O 2.0437 1.4932 0.7856 0
M  V30 2 C 0.8612 0.7368 0.7665 0
M  V30 3 C -0.1195 1.3157 -0.2663 0
M  V30 4 C 1.2017 -0.736 0.4445 0
M  V30 5 C -1.457 0.5466 -0.2774 0
M  V30 6 C 0.0508 -1.5004 -0.2429 0
M  V30 7 C -1.3194 -0.9317 0.1386 0
M  V30 8 H 1.8353 2.34 1.2608 0
M  V30 9 H 0.38 0.7739 1.773 0
M  V30 10 H -0.3158 2.387 -0.0427 0
M  V30 11 H 0.3452 1.2636 -1.2761 0
M  V30 12 H 1.4703 -1.2521 1.3923 0
M  V30 13 H 2.0944 -0.7821 -0.2175 0
M  V30 14 H -2.1739 1.0431 0.4124 0
M  V30 15 H -1.8906 0.6027 -1.2997 0
M  V30 16 H 0.0989 -2.5749 0.0367 0
M  V30 17 H 0.1705 -1.4359 -1.3471 0
M  V30 18 H -2.12 -1.5302 -0.3472 0
M  V30 19 H -1.4536 -1.0225 1.2394 0
M  V30 END ATOM
M  V30 BEGIN BOND
M  V30 1 1 1 2
M  V30 2 1 2 3
M  V30 3 1 2 4
M  V30 4 1 3 5
M  V30 5 1 4 6
M  V30 6 1 5 7
M  V30 7 1 6 7
M  V30 8 1 1 8
M  V30 9 1 2 9
M  V30 10 1 3 10
M  V30 11 1 3 11
M  V30 12 1 4 12
M  V30 13 1 4 13
M  V30 14 1 5 14
M  V30 15 1 5 15
M  V30 16 1 6 16
M  V30 17 1 6 17
M  V30 18 1 7 18
M  V30 19 1 7 19
M  V30 END BOND
M  V30 END CTAB
M  END
>  <Structure No>
5813

>  <LogS>
-0.3774

>  <MMFF94 Energy>
2.3945

$$$$
Compound 5814
Actelion Java MolfileCreator 2.0

  0  0  0  0  0  0              0 V3000
M  V30 BEGIN CTAB
M  V30 COUNTS 24 23 0 0 0
M  V30 BEGIN ATOM
M  V30 1 O 3.2307 1.6143 -0.0768 0
M  V30 2 C 3.3524 0.3809 0.5792 0
M  V30 3 C 2.2711 -0.5986 0.1101 0
M  V30 4 C 0.8624 -0.1053 0.4674 0
M  V30 5 C -0.204 -1.1093 0.0049 0
M  V30 6 C -1.6205 -0.7186 0.4556 0
M  V30 7 C -2.1661 0.5018 -0.3 0
M  V30 8 C -3.6194 0.7761 0.0762 0
M  V30 9 H 3.5666 1.4789 -1.0011 0
M  V30 10 H 3.2608 0.5441 1.6742 0
M  V30 11 H 4.3589 -0.056 0.389 0
M  V30 12 H 2.4518 -1.5817 0.5969 0
M  V30 13 H 2.354 -0.7378 -0.9899 0
M  V30 14 H 0.7899 0.0303 1.569 0
M  V30 15 H 0.688 0.8752 -0.0235 0
M  V30 16 H 0.0298 -2.1061 0.439 0
M  V30 17 H -0.1751 -1.2095 -1.1022 0
M  V30 18 H -1.6269 -0.5206 1.5501 0
M  V30 19 H -2.2907 -1.5859 0.267 0
M  V30 20 H -1.5656 1.4029 -0.0546 0
M  V30 21 H -2.1072 0.3243 -1.3959 0
M  V30 22 H -4.2584 -0.0923 -0.1905 0
M  V30 23 H -3.9846 1.6675 -0.4759 0
M  V30 24 H -3.7047 0.9737 1.1661 0
M  V30 END ATOM
M  V30 BEGIN BOND
M  V30 1 1 1 2
M  V30 2 1 2 3
M  V30 3 1 3 4
M  V30 4 1 4 5
M  V30 5 1 5 6
M  V30 6 1 6 7
M  V30 7 1 7 8
M  V30 8 1 1 9
M  V30 9 1 2 10
M  V30 10 1 2 11
M  V30 11 1 3 12
M  V30 12 1 3 13
M  V30 13 1 4 14
M  V30 14 1 4 15
M  V30 15 1 5 16
M  V30 16 1 5 17
M  V30 17 1 6 18
M  V30 18 1 6 19
M  V30 19 1 7 20
M  V30 20 1 7 21
M  V30 21 1 8 22
M  V30 22 1 8 23
M  V30 23 1 8 24
M  V30 END BOND
M  V30 END CTAB
M  END
>  <Structure No>
5814

>  <LogS>
-1.8425

>  <MMFF94 Energy>
-1.7981

$$$$
Compound 5815
Actelion Java MolfileCreator 2.0

  0  0  0  0  0  0              0 V3000
M  V30 BEGIN CTAB
M  V30 COUNTS 22 22 0 0 0
M  V30 BEGIN ATOM
M  V30 1 O 3.593 0.7021 -0.7021 0
M  V30 2 C 3.0901 -0.529 -0.2573 0
M  V30 3 C 1.6412 -0.3885 0.221 0
M  V30 4 C 0.7037 0.0284 -0.9187 0
M  V30 5 C -0.7143 0.1332 -0.4248 0
M  V30 6 C -1.1888 1.3394 0.1175 0
M  V30 7 C -1.5586 -0.9896 -0.4496 0
M  V30 8 C -2.4966 1.426 0.6055 0
M  V30 9 C -2.8657 -0.8986 0.0393 0
M  V30 10 C -3.3349 0.3085 0.5647 0
M  V30 11 H 3.7727 1.2453 0.1092 0
M  V30 12 H 3.72 -0.9227 0.5724 0
M  V30 13 H 3.1402 -1.2615 -1.091 0
M  V30 14 H 1.308 -1.367 0.6317 0
M  V30 15 H 1.596 0.3624 1.0404 0
M  V30 16 H 1.027 1.0077 -1.3351 0
M  V30 17 H 0.7605 -0.7163 -1.7428 0
M  V30 18 H -0.5463 2.2102 0.1634 0
M  V30 19 H -1.2044 -1.9332 -0.8456 0
M  V30 20 H -2.8589 2.3585 1.0186 0
M  V30 21 H -3.5138 -1.7652 0.0143 0
M  V30 22 H -4.3465 0.3767 0.9439 0
M  V30 END ATOM
M  V30 BEGIN BOND
M  V30 1 1 1 2
M  V30 2 1 2 3
M  V30 3 1 3 4
M  V30 4 1 4 5
M  V30 5 2 5 6
M  V30 6 1 5 7
M  V30 7 1 6 8
M  V30 8 2 7 9
M  V30 9 2 8 10
M  V30 10 1 9 10
M  V30 11 1 1 11
M  V30 12 1 2 12
M  V30 13 1 2 13
M  V30 14 1 3 14
M  V30 15 1 3 15
M  V30 16 1 4 16
M  V30 17 1 4 17
M  V30 18 1 6 18
M  V30 19 1 7 19
M  V30 20 1 8 20
M  V30 21 1 9 21
M  V30 22 1 10 22
M  V30 END BOND
M  V30 END CTAB
M  END
>  <Structure No>
5815

>  <LogS>
-1.3798

>  <MMFF94 Energy>
22.826

$$$$
Compound 5816
Actelion Java MolfileCreator 2.0

  0  0  0  0  0  0              0 V3000
M  V30 BEGIN CTAB
M  V30 COUNTS 27 26 0 0 0
M  V30 BEGIN ATOM
M  V30 1 O 2.9304 -1.0788 -0.9246 0
M  V30 2 C 2.5511 0.2602 -0.7228 0 CFG=1
M  V30 3 C 1.4671 0.3734 0.3673 0
M  V30 4 C 3.7759 1.1119 -0.373 0
M  V30 5 C 0.1953 -0.3959 -0.0159 0
M  V30 6 C -0.8918 -0.2296 1.0562 0
M  V30 7 C -2.119 -1.1262 0.8103 0
M  V30 8 C -2.8834 -0.8328 -0.4928 0
M  V30 9 C -3.4658 0.5793 -0.5396 0
M  V30 10 H 3.2967 -1.4198 -0.0666 0
M  V30 11 H 2.1342 0.6479 -1.678 0
M  V30 12 H 1.2088 1.4461 0.5118 0
M  V30 13 H 1.8633 -0.0183 1.3303 0
M  V30 14 H 3.4888 2.182 -0.2922 0
M  V30 15 H 4.5425 1.0129 -1.1705 0
M  V30 16 H 4.2186 0.7833 0.5917 0
M  V30 17 H 0.4362 -1.4752 -0.1316 0
M  V30 18 H -0.1779 -0.0066 -0.987 0
M  V30 19 H -1.2004 0.8352 1.1236 0
M  V30 20 H -0.4659 -0.5082 2.0452 0
M  V30 21 H -1.792 -2.1888 0.7979 0
M  V30 22 H -2.817 -1.0133 1.6686 0
M  V30 23 H -2.2318 -0.9998 -1.3758 0
M  V30 24 H -3.7236 -1.5567 -0.5691 0
M  V30 25 H -4.0591 0.7867 0.3763 0
M  V30 26 H -4.1331 0.674 -1.4222 0
M  V30 27 H -2.6573 1.333 -0.6383 0
M  V30 END ATOM
M  V30 BEGIN BOND
M  V30 1 1 1 2
M  V30 2 1 2 3
M  V30 3 1 2 4
M  V30 4 1 3 5
M  V30 5 1 5 6
M  V30 6 1 6 7
M  V30 7 1 7 8
M  V30 8 1 8 9
M  V30 9 1 1 10
M  V30 10 1 2 11
M  V30 11 1 3 12
M  V30 12 1 3 13
M  V30 13 1 4 14
M  V30 14 1 4 15
M  V30 15 1 4 16
M  V30 16 1 5 17
M  V30 17 1 5 18
M  V30 18 1 6 19
M  V30 19 1 6 20
M  V30 20 1 7 21
M  V30 21 1 7 22
M  V30 22 1 8 23
M  V30 23 1 8 24
M  V30 24 1 9 25
M  V30 25 1 9 26
M  V30 26 1 9 27
M  V30 END BOND
M  V30 BEGIN COLLECTION
M  V30 MDLV30/STEABS ATOMS=(1 2)
M  V30 END COLLECTION
M  V30 END CTAB
M  END
>  <Structure No>
5816

>  <LogS>
-2.0655

>  <MMFF94 Energy>
1.1824

$$$$
Compound 5817
Actelion Java MolfileCreator 2.0

  0  0  0  0  0  0              0 V3000
M  V30 BEGIN CTAB
M  V30 COUNTS 24 23 0 0 0
M  V30 BEGIN ATOM
M  V30 1 O -2.3846 -1.3071 0.3843 0
M  V30 2 C -2.3112 0.0472 0.7479 0 CFG=1
M  V30 3 C -0.8451 0.5205 0.7183 0
M  V30 4 C -3.2178 0.8892 -0.1583 0
M  V30 5 C -0.1609 0.3187 -0.6471 0
M  V30 6 C 1.2991 0.8 -0.6508 0
M  V30 7 C 2.2365 -0.1447 0.1158 0
M  V30 8 C 3.6912 0.2949 -0.0218 0
M  V30 9 H -3.2683 -1.6398 0.6915 0
M  V30 10 H -2.6712 0.1681 1.7966 0
M  V30 11 H -0.294 -0.0499 1.4951 0
M  V30 12 H -0.8012 1.5953 1.0011 0
M  V30 13 H -3.0028 0.6922 -1.2291 0
M  V30 14 H -4.2805 0.6283 0.0324 0
M  V30 15 H -3.0819 1.9712 0.0525 0
M  V30 16 H -0.7052 0.9055 -1.4164 0
M  V30 17 H -0.2026 -0.7512 -0.946 0
M  V30 18 H 1.3602 1.825 -0.2233 0
M  V30 19 H 1.6379 0.8567 -1.7086 0
M  V30 20 H 2.1362 -1.1787 -0.2798 0
M  V30 21 H 1.975 -0.1523 1.1946 0
M  V30 22 H 3.8237 1.3212 0.3823 0
M  V30 23 H 4.001 0.2776 -1.0884 0
M  V30 24 H 4.3448 -0.3984 0.5482 0
M  V30 END ATOM
M  V30 BEGIN BOND
M  V30 1 1 1 2
M  V30 2 1 2 3
M  V30 3 1 2 4
M  V30 4 1 3 5
M  V30 5 1 5 6
M  V30 6 1 6 7
M  V30 7 1 7 8
M  V30 8 1 1 9
M  V30 9 1 2 10
M  V30 10 1 3 11
M  V30 11 1 3 12
M  V30 12 1 4 13
M  V30 13 1 4 14
M  V30 14 1 4 15
M  V30 15 1 5 16
M  V30 16 1 5 17
M  V30 17 1 6 18
M  V30 18 1 6 19
M  V30 19 1 7 20
M  V30 20 1 7 21
M  V30 21 1 8 22
M  V30 22 1 8 23
M  V30 23 1 8 24
M  V30 END BOND
M  V30 BEGIN COLLECTION
M  V30 MDLV30/STEABS ATOMS=(1 2)
M  V30 END COLLECTION
M  V30 END CTAB
M  END
>  <Structure No>
5817

>  <LogS>
-1.5507

>  <MMFF94 Energy>
2.5803

$$$$
Compound 5818
Actelion Java MolfileCreator 2.0

  0  0  0  0  0  0              0 V3000
M  V30 BEGIN CTAB
M  V30 COUNTS 18 17 0 0 0
M  V30 BEGIN ATOM
M  V30 1 O 0.0 -1.6049 -1.6814 0
M  V30 2 C 0.0622 -0.4819 -0.8373 0
M  V30 3 C -1.1891 -0.4395 0.0795 0
M  V30 4 C 1.3925 -0.5066 -0.0507 0
M  V30 5 C -1.7777 0.9663 0.2077 0
M  V30 6 C 1.6542 0.7774 0.7339 0
M  V30 7 H 5.0E-4 -2.4136 -1.1041 0
M  V30 8 H 0.0701 0.4118 -1.4998 0
M  V30 9 H -1.9846 -1.0919 -0.3435 0
M  V30 10 H -0.9529 -0.8352 1.0911 0
M  V30 11 H 1.4087 -1.3715 0.6479 0
M  V30 12 H 2.2264 -0.6449 -0.7731 0
M  V30 13 H -1.0361 1.6753 0.6269 0
M  V30 14 H -2.1085 1.3348 -0.7864 0
M  V30 15 H -2.6585 0.9391 0.8833 0
M  V30 16 H 1.5496 1.666 0.0759 0
M  V30 17 H 0.9534 0.8588 1.5905 0
M  V30 18 H 2.688 0.758 1.1388 0
M  V30 END ATOM
M  V30 BEGIN BOND
M  V30 1 1 1 2
M  V30 2 1 2 3
M  V30 3 1 2 4
M  V30 4 1 3 5
M  V30 5 1 4 6
M  V30 6 1 1 7
M  V30 7 1 2 8
M  V30 8 1 3 9
M  V30 9 1 3 10
M  V30 10 1 4 11
M  V30 11 1 4 12
M  V30 12 1 5 13
M  V30 13 1 5 14
M  V30 14 1 5 15
M  V30 15 1 6 16
M  V30 16 1 6 17
M  V30 17 1 6 18
M  V30 END BOND
M  V30 END CTAB
M  END
>  <Structure No>
5818

>  <LogS>
-0.2334

>  <MMFF94 Energy>
1.6791

$$$$
Compound 5819
Actelion Java MolfileCreator 2.0

  0  0  0  0  0  0              0 V3000
M  V30 BEGIN CTAB
M  V30 COUNTS 19 19 0 0 0
M  V30 BEGIN ATOM
M  V30 1 O -3.2779 0.8576 -0.0779 0
M  V30 2 C -2.6784 -0.3886 0.1466 0
M  V30 3 C -1.1811 -0.2522 0.1271 0
M  V30 4 C -0.4667 -0.4581 -1.063 0
M  V30 5 C -0.4928 0.1474 1.2829 0
M  V30 6 C 0.9218 -0.2973 -1.0889 0
M  V30 7 C 0.8957 0.308 1.2569 0
M  V30 8 C 1.6137 0.0695 0.0753 0
M  V30 9 C 3.098 0.2812 0.0373 0
M  V30 10 H -3.1903 1.0436 -1.0494 0
M  V30 11 H -3.0083 -0.7702 1.1363 0
M  V30 12 H -3.019 -1.1269 -0.6148 0
M  V30 13 H -0.985 -0.7389 -1.9716 0
M  V30 14 H -1.0319 0.3382 2.2027 0
M  V30 15 H 1.4566 -0.4562 -2.0171 0
M  V30 16 H 1.4101 0.621 2.1572 0
M  V30 17 H 3.3135 1.3361 -0.2326 0
M  V30 18 H 3.5701 -0.3884 -0.7126 0
M  V30 19 H 3.5507 0.0607 1.0274 0
M  V30 END ATOM
M  V30 BEGIN BOND
M  V30 1 1 1 2
M  V30 2 1 2 3
M  V30 3 2 3 4
M  V30 4 1 3 5
M  V30 5 1 4 6
M  V30 6 2 5 7
M  V30 7 2 6 8
M  V30 8 1 8 9
M  V30 9 1 7 8
M  V30 10 1 1 10
M  V30 11 1 2 11
M  V30 12 1 2 12
M  V30 13 1 4 13
M  V30 14 1 5 14
M  V30 15 1 6 15
M  V30 16 1 7 16
M  V30 17 1 9 17
M  V30 18 1 9 18
M  V30 19 1 9 19
M  V30 END BOND
M  V30 END CTAB
M  END
>  <Structure No>
5819

>  <LogS>
-1.1999

>  <MMFF94 Energy>
22.105

$$$$
Compound 5820
Actelion Java MolfileCreator 2.0

  0  0  0  0  0  0              0 V3000
M  V30 BEGIN CTAB
M  V30 COUNTS 24 23 0 0 0
M  V30 BEGIN ATOM
M  V30 1 O -0.0768 1.9227 0.4611 0
M  V30 2 C 0.0464 0.874 -0.4658 0
M  V30 3 C 1.4812 0.3039 -0.448 0
M  V30 4 C -1.0108 -0.2059 -0.1708 0
M  V30 5 C 1.9263 -0.1948 0.9367 0
M  V30 6 C -2.4308 0.3071 -0.4468 0
M  V30 7 C 3.3855 -0.641 0.9156 0
M  V30 8 C -3.4723 -0.7696 -0.1559 0
M  V30 9 H 0.408 2.701 0.0805 0
M  V30 10 H -0.1419 1.2639 -1.4941 0
M  V30 11 H 1.5554 -0.5278 -1.1825 0
M  V30 12 H 2.1767 1.1041 -0.7848 0
M  V30 13 H -0.8189 -1.0949 -0.8113 0
M  V30 14 H -0.9415 -0.5185 0.8937 0
M  V30 15 H 1.3022 -1.0584 1.2495 0
M  V30 16 H 1.8133 0.6153 1.689 0
M  V30 17 H -2.6434 1.1921 0.1914 0
M  V30 18 H -2.5195 0.6123 -1.5122 0
M  V30 19 H 3.5259 -1.4661 0.1851 0
M  V30 20 H 4.0455 0.2092 0.6406 0
M  V30 21 H 3.6777 -1.0051 1.9231 0
M  V30 22 H -3.4236 -1.0753 0.911 0
M  V30 23 H -3.3 -1.6575 -0.8006 0
M  V30 24 H -4.4876 -0.3709 -0.3647 0
M  V30 END ATOM
M  V30 BEGIN BOND
M  V30 1 1 1 2
M  V30 2 1 2 3
M  V30 3 1 2 4
M  V30 4 1 3 5
M  V30 5 1 4 6
M  V30 6 1 5 7
M  V30 7 1 6 8
M  V30 8 1 1 9
M  V30 9 1 2 10
M  V30 10 1 3 11
M  V30 11 1 3 12
M  V30 12 1 4 13
M  V30 13 1 4 14
M  V30 14 1 5 15
M  V30 15 1 5 16
M  V30 16 1 6 17
M  V30 17 1 6 18
M  V30 18 1 7 19
M  V30 19 1 7 20
M  V30 20 1 7 21
M  V30 21 1 8 22
M  V30 22 1 8 23
M  V30 23 1 8 24
M  V30 END BOND
M  V30 END CTAB
M  END
>  <Structure No>
5820

>  <LogS>
-1.3931

>  <MMFF94 Energy>
1.3337

$$$$
Compound 5821
Actelion Java MolfileCreator 2.0

  0  0  0  0  0  0              0 V3000
M  V30 BEGIN CTAB
M  V30 COUNTS 24 23 0 0 0
M  V30 BEGIN ATOM
M  V30 1 O -1.5381 -1.3072 1.0764 0
M  V30 2 C -1.2051 -0.1496 0.349 0 CFG=1
M  V30 3 C 0.2672 -0.193 -0.1075 0
M  V30 4 C -2.1486 0.0275 -0.8572 0
M  V30 5 C 1.2307 -0.2533 1.0894 0
M  V30 6 C -3.6065 0.1663 -0.4227 0
M  V30 7 C 2.6994 -0.3871 0.6584 0
M  V30 8 C 3.2517 0.8929 0.0317 0
M  V30 9 H -1.4203 -2.086 0.4715 0
M  V30 10 H -1.3329 0.7293 1.0191 0
M  V30 11 H 0.4285 -1.0775 -0.7624 0
M  V30 12 H 0.481 0.7208 -0.7016 0
M  V30 13 H -2.055 -0.8413 -1.5447 0
M  V30 14 H -1.8629 0.943 -1.4202 0
M  V30 15 H 0.9786 -1.1379 1.7136 0
M  V30 16 H 1.1052 0.6522 1.723 0
M  V30 17 H -3.9476 -0.7548 0.0953 0
M  V30 18 H -3.7256 1.0363 0.2577 0
M  V30 19 H -4.2463 0.3251 -1.3162 0
M  V30 20 H 2.8138 -1.2314 -0.0555 0
M  V30 21 H 3.3084 -0.6236 1.5578 0
M  V30 22 H 3.095 1.758 0.7107 0
M  V30 23 H 2.7653 1.0952 -0.9447 0
M  V30 24 H 4.3418 0.7761 -0.1443 0
M  V30 END ATOM
M  V30 BEGIN BOND
M  V30 1 1 1 2
M  V30 2 1 2 3
M  V30 3 1 2 4
M  V30 4 1 3 5
M  V30 5 1 4 6
M  V30 6 1 5 7
M  V30 7 1 7 8
M  V30 8 1 1 9
M  V30 9 1 2 10
M  V30 10 1 3 11
M  V30 11 1 3 12
M  V30 12 1 4 13
M  V30 13 1 4 14
M  V30 14 1 5 15
M  V30 15 1 5 16
M  V30 16 1 6 17
M  V30 17 1 6 18
M  V30 18 1 6 19
M  V30 19 1 7 20
M  V30 20 1 7 21
M  V30 21 1 8 22
M  V30 22 1 8 23
M  V30 23 1 8 24
M  V30 END BOND
M  V30 BEGIN COLLECTION
M  V30 MDLV30/STEABS ATOMS=(1 2)
M  V30 END COLLECTION
M  V30 END CTAB
M  END
>  <Structure No>
5821

>  <LogS>
-1.4631

>  <MMFF94 Energy>
1.7479

$$$$
Compound 5822
Actelion Java MolfileCreator 2.0

  0  0  0  0  0  0              0 V3000
M  V30 BEGIN CTAB
M  V30 COUNTS 22 22 0 0 0
M  V30 BEGIN ATOM
M  V30 1 O -3.0629 0.1568 0.3922 0
M  V30 2 C -1.759 0.1432 -0.1256 0 CFG=1
M  V30 3 C -0.9492 1.274 0.5255 0
M  V30 4 C -1.1003 -1.2195 0.1513 0
M  V30 5 C 0.5065 1.2614 0.0424 0
M  V30 6 C 0.3552 -1.2379 -0.3321 0
M  V30 7 C 1.1686 -0.1022 0.3178 0 CFG=1
M  V30 8 C 2.6122 -0.1128 -0.1951 0
M  V30 9 H -3.6204 -0.3899 -0.2209 0
M  V30 10 H -1.7922 0.3204 -1.2269 0
M  V30 11 H -1.4093 2.2524 0.267 0
M  V30 12 H -0.9736 1.1668 1.6328 0
M  V30 13 H -1.1327 -1.4394 1.2415 0
M  V30 14 H -1.6665 -2.0178 -0.3753 0
M  V30 15 H 0.534 1.4865 -1.0471 0
M  V30 16 H 1.0667 2.0625 0.5722 0
M  V30 17 H 0.3751 -1.1362 -1.4402 0
M  V30 18 H 0.8074 -2.219 -0.0696 0
M  V30 19 H 1.197 -0.2688 1.4184 0
M  V30 20 H 2.6402 0.0502 -1.2941 0
M  V30 21 H 3.2 0.6885 0.3013 0
M  V30 22 H 3.0924 -1.0876 0.0351 0
M  V30 END ATOM
M  V30 BEGIN BOND
M  V30 1 1 1 2
M  V30 2 1 2 3
M  V30 3 1 2 4
M  V30 4 1 3 5
M  V30 5 1 4 6
M  V30 6 1 5 7
M  V30 7 1 7 8
M  V30 8 1 6 7
M  V30 9 1 1 9
M  V30 10 1 2 10
M  V30 11 1 3 11
M  V30 12 1 3 12
M  V30 13 1 4 13
M  V30 14 1 4 14
M  V30 15 1 5 15
M  V30 16 1 5 16
M  V30 17 1 6 17
M  V30 18 1 6 18
M  V30 19 1 7 19
M  V30 20 1 8 20
M  V30 21 1 8 21
M  V30 22 1 8 22
M  V30 END BOND
M  V30 BEGIN COLLECTION
M  V30 MDLV30/STEABS ATOMS=(2 2 7)
M  V30 END COLLECTION
M  V30 END CTAB
M  END
>  <Structure No>
5822

>  <LogS>
-0.8815

>  <MMFF94 Energy>
6.3238

$$$$
Compound 5823
Actelion Java MolfileCreator 2.0

  0  0  0  0  0  0              0 V3000
M  V30 BEGIN CTAB
M  V30 COUNTS 21 20 0 0 0
M  V30 BEGIN ATOM
M  V30 1 O -0.46 0.1533 -1.7642 0
M  V30 2 C 0.3027 0.2394 -0.5879 0 CFG=1
M  V30 3 C -0.3979 -0.57 0.5251 0
M  V30 4 C 1.7197 -0.302 -0.8759 0
M  V30 5 C -1.64 0.1326 1.1018 0
M  V30 6 C 2.7462 0.1268 0.174 0
M  V30 7 C -2.8221 0.1636 0.1339 0
M  V30 8 H -0.2093 0.9302 -2.3297 0
M  V30 9 H 0.3785 1.3059 -0.2672 0
M  V30 10 H 0.3027 -0.725 1.3712 0
M  V30 11 H -0.6737 -1.5785 0.1456 0
M  V30 12 H 1.7005 -1.4115 -0.948 0
M  V30 13 H 2.0636 0.0887 -1.8586 0
M  V30 14 H -1.9575 -0.4182 2.0139 0
M  V30 15 H -1.3852 1.1693 1.4123 0
M  V30 16 H 3.7563 -0.211 -0.1401 0
M  V30 17 H 2.762 1.2331 0.2724 0
M  V30 18 H 2.5249 -0.3273 1.1609 0
M  V30 19 H -3.7299 0.5087 0.6725 0
M  V30 20 H -2.6302 0.8731 -0.6968 0
M  V30 21 H -3.0195 -0.8495 -0.2759 0
M  V30 END ATOM
M  V30 BEGIN BOND
M  V30 1 1 1 2
M  V30 2 1 2 3
M  V30 3 1 2 4
M  V30 4 1 3 5
M  V30 5 1 4 6
M  V30 6 1 5 7
M  V30 7 1 1 8
M  V30 8 1 2 9
M  V30 9 1 3 10
M  V30 10 1 3 11
M  V30 11 1 4 12
M  V30 12 1 4 13
M  V30 13 1 5 14
M  V30 14 1 5 15
M  V30 15 1 6 16
M  V30 16 1 6 17
M  V30 17 1 6 18
M  V30 18 1 7 19
M  V30 19 1 7 20
M  V30 20 1 7 21
M  V30 END BOND
M  V30 BEGIN COLLECTION
M  V30 MDLV30/STEABS ATOMS=(1 2)
M  V30 END COLLECTION
M  V30 END CTAB
M  END
>  <Structure No>
5823

>  <LogS>
-0.8025

>  <MMFF94 Energy>
1.9619

$$$$
Compound 5824
Actelion Java MolfileCreator 2.0

  0  0  0  0  0  0              0 V3000
M  V30 BEGIN CTAB
M  V30 COUNTS 21 20 0 0 0
M  V30 BEGIN ATOM
M  V30 1 O 2.1471 -1.3031 -0.5364 0
M  V30 2 C 1.7287 -0.0353 -0.1005 0 CFG=2
M  V30 3 C 0.2554 0.1814 -0.4826 0
M  V30 4 C 2.6115 1.0413 -0.7375 0
M  V30 5 C -0.6699 -0.8037 0.2506 0
M  V30 6 C -2.1365 -0.6746 -0.1892 0
M  V30 7 C -2.7924 0.6138 0.3066 0
M  V30 8 H 2.9674 -1.5266 -0.0237 0
M  V30 9 H 1.8245 0.0399 1.0084 0
M  V30 10 H 0.137 0.0573 -1.5817 0
M  V30 11 H -0.0336 1.2204 -0.2152 0
M  V30 12 H 2.3011 2.05 -0.3905 0
M  V30 13 H 2.5373 0.9986 -1.8452 0
M  V30 14 H 3.671 0.8828 -0.4446 0
M  V30 15 H -0.3404 -1.8425 0.0319 0
M  V30 16 H -0.5919 -0.6506 1.3495 0
M  V30 17 H -2.2103 -0.7281 -1.297 0
M  V30 18 H -2.7041 -1.5351 0.2266 0
M  V30 19 H -3.8758 0.5925 0.0645 0
M  V30 20 H -2.3462 1.4996 -0.1904 0
M  V30 21 H -2.6791 0.7098 1.4074 0
M  V30 END ATOM
M  V30 BEGIN BOND
M  V30 1 1 1 2
M  V30 2 1 2 3
M  V30 3 1 2 4
M  V30 4 1 3 5
M  V30 5 1 5 6
M  V30 6 1 6 7
M  V30 7 1 1 8
M  V30 8 1 2 9
M  V30 9 1 3 10
M  V30 10 1 3 11
M  V30 11 1 4 12
M  V30 12 1 4 13
M  V30 13 1 4 14
M  V30 14 1 5 15
M  V30 15 1 5 16
M  V30 16 1 6 17
M  V30 17 1 6 18
M  V30 18 1 7 19
M  V30 19 1 7 20
M  V30 20 1 7 21
M  V30 END BOND
M  V30 BEGIN COLLECTION
M  V30 MDLV30/STEABS ATOMS=(1 2)
M  V30 END COLLECTION
M  V30 END CTAB
M  END
>  <Structure No>
5824

>  <LogS>
-0.8726

>  <MMFF94 Energy>
1.2152

$$$$
Compound 5825
Actelion Java MolfileCreator 2.0

  0  0  0  0  0  0              0 V3000
M  V30 BEGIN CTAB
M  V30 COUNTS 16 16 0 0 0
M  V30 BEGIN ATOM
M  V30 1 Cl 0.6663 2.6673 -0.4997 0
M  V30 2 C -0.175 1.1493 -0.1963 0
M  V30 3 C 0.4982 -0.0064 0.2672 0
M  V30 4 C -1.5521 1.1076 -0.442 0
M  V30 5 C -0.2363 -1.2045 0.4325 0
M  V30 6 C 1.9904 0.0149 0.5168 0
M  V30 7 C -2.2684 -0.0726 -0.249 0
M  V30 8 Cl 0.5316 -2.7078 0.9368 0
M  V30 9 C -1.6126 -1.225 0.1812 0
M  V30 10 O 2.675 -0.4508 -0.6132 0
M  V30 11 H -2.0697 1.9925 -0.7903 0
M  V30 12 H 2.3497 1.0289 0.7979 0
M  V30 13 H 2.2449 -0.6319 1.3816 0
M  V30 14 H -3.3331 -0.097 -0.4434 0
M  V30 15 H -2.1763 -2.14 0.3136 0
M  V30 16 H 2.6545 0.285 -1.2795 0
M  V30 END ATOM
M  V30 BEGIN BOND
M  V30 1 1 1 2
M  V30 2 2 2 3
M  V30 3 1 2 4
M  V30 4 1 3 5
M  V30 5 1 3 6
M  V30 6 2 4 7
M  V30 7 1 5 8
M  V30 8 2 5 9
M  V30 9 1 6 10
M  V30 10 1 7 9
M  V30 11 1 4 11
M  V30 12 1 6 12
M  V30 13 1 6 13
M  V30 14 1 7 14
M  V30 15 1 9 15
M  V30 16 1 10 16
M  V30 END BOND
M  V30 END CTAB
M  END
>  <Structure No>
5825

>  <LogS>
-2.1019

>  <MMFF94 Energy>
9.8566

$$$$
Compound 5826
Actelion Java MolfileCreator 2.0

  0  0  0  0  0  0              0 V3000
M  V30 BEGIN CTAB
M  V30 COUNTS 11 10 0 0 0
M  V30 BEGIN ATOM
M  V30 1 Cl 0.1577 1.578 1.4991 0
M  V30 2 C -0.1077 0.0773 0.5698 0
M  V30 3 C -1.1054 0.3385 -0.5569 0
M  V30 4 C 1.2235 -0.4301 0.0194 0
M  V30 5 H -0.5301 -0.6879 1.2561 0
M  V30 6 H -1.2964 -0.5972 -1.1243 0
M  V30 7 H -0.714 1.1111 -1.253 0
M  V30 8 H -2.0687 0.6932 -0.1327 0
M  V30 9 H 1.071 -1.3786 -0.5385 0
M  V30 10 H 1.9272 -0.6257 0.8561 0
M  V30 11 H 1.6761 0.3221 -0.6615 0
M  V30 END ATOM
M  V30 BEGIN BOND
M  V30 1 1 1 2
M  V30 2 1 2 3
M  V30 3 1 2 4
M  V30 4 1 2 5
M  V30 5 1 3 6
M  V30 6 1 3 7
M  V30 7 1 3 8
M  V30 8 1 4 9
M  V30 9 1 4 10
M  V30 10 1 4 11
M  V30 END BOND
M  V30 END CTAB
M  END
>  <Structure No>
5826

>  <LogS>
-1.4037

>  <MMFF94 Energy>
0.22047

$$$$
Compound 5827
Actelion Java MolfileCreator 2.0

  0  0  0  0  0  0              0 V3000
M  V30 BEGIN CTAB
M  V30 COUNTS 8 7 0 0 0
M  V30 BEGIN ATOM
M  V30 1 Cl 1.4469 -1.4469 -0.4254 0
M  V30 2 C 0.6857 0.0396 0.1944 0
M  V30 3 Cl 1.3613 1.4453 -0.6664 0
M  V30 4 C -0.8223 -0.0214 -0.005 0
M  V30 5 H 0.9138 0.1367 1.2768 0
M  V30 6 H -1.0655 -0.1186 -1.0845 0
M  V30 7 H -1.2942 0.9028 0.3905 0
M  V30 8 H -1.2411 -0.8935 0.5402 0
M  V30 END ATOM
M  V30 BEGIN BOND
M  V30 1 1 1 2
M  V30 2 1 2 3
M  V30 3 1 2 4
M  V30 4 1 2 5
M  V30 5 1 4 6
M  V30 6 1 4 7
M  V30 7 1 4 8
M  V30 END BOND
M  V30 END CTAB
M  END
>  <Structure No>
5827

>  <LogS>
-1.2913

>  <MMFF94 Energy>
0.43763

$$$$
Compound 5828
Actelion Java MolfileCreator 2.0

  0  0  0  0  0  0              0 V3000
M  V30 BEGIN CTAB
M  V30 COUNTS 5 4 0 0 0
M  V30 BEGIN ATOM
M  V30 1 Cl -1.4178 -0.8505 -0.2834 0
M  V30 2 C 0.0234 0.1372 0.0451 0
M  V30 3 Cl 1.4852 -0.8269 -0.2618 0
M  V30 4 F 0.0205 1.245 -0.7803 0
M  V30 5 H 0.0129 0.4657 1.1048 0
M  V30 END ATOM
M  V30 BEGIN BOND
M  V30 1 1 1 2
M  V30 2 1 2 3
M  V30 3 1 2 4
M  V30 4 1 2 5
M  V30 END BOND
M  V30 END CTAB
M  END
>  <Structure No>
5828

>  <LogS>
-0.7383

>  <MMFF94 Energy>
0.047906

$$$$
Compound 5829
Actelion Java MolfileCreator 2.0

  0  0  0  0  0  0              0 V3000
M  V30 BEGIN CTAB
M  V30 COUNTS 5 4 0 0 0
M  V30 BEGIN ATOM
M  V30 1 F -1.0676 -0.6569 -0.4105 0
M  V30 2 C 0.0322 0.0221 0.0771 0
M  V30 3 F 1.1857 -0.6336 -0.3071 0
M  V30 4 F 0.0421 1.3071 -0.43 0
M  V30 5 H -0.019 0.0621 1.1846 0
M  V30 END ATOM
M  V30 BEGIN BOND
M  V30 1 1 1 2
M  V30 2 1 2 3
M  V30 3 1 2 4
M  V30 4 1 2 5
M  V30 END BOND
M  V30 END CTAB
M  END
>  <Structure No>
5829

>  <LogS>
-1.2334

>  <MMFF94 Energy>
0.76006

$$$$
Compound 5830
Actelion Java MolfileCreator 2.0

  0  0  0  0  0  0              0 V3000
M  V30 BEGIN CTAB
M  V30 COUNTS 5 4 0 0 0
M  V30 BEGIN ATOM
M  V30 1 Cl 1.4696 -0.7346 -0.4197 0
M  V30 2 C -0.0378 0.0458 0.1088 0
M  V30 3 Cl -1.4291 -0.8697 -0.5132 0
M  V30 4 Cl -0.0953 1.709 -0.5168 0
M  V30 5 F -0.0837 0.0715 1.4894 0
M  V30 END ATOM
M  V30 BEGIN BOND
M  V30 1 1 1 2
M  V30 2 1 2 3
M  V30 3 1 2 4
M  V30 4 1 2 5
M  V30 END BOND
M  V30 END CTAB
M  END
>  <Structure No>
5830

>  <LogS>
-2.0965

>  <MMFF94 Energy>
0.0036692

$$$$
Compound 5831
Actelion Java MolfileCreator 2.0

  0  0  0  0  0  0              0 V3000
M  V30 BEGIN CTAB
M  V30 COUNTS 8 7 0 0 0
M  V30 BEGIN ATOM
M  V30 1 Cl -0.931 1.5519 -1.1379 0
M  V30 2 C -0.7084 0.1431 -0.0649 0
M  V30 3 Cl -1.3697 0.5459 1.5453 0
M  V30 4 Cl -1.658 -1.2055 -0.7466 0
M  V30 5 C 0.7818 -0.2383 0.0145 0
M  V30 6 Cl 1.7774 1.1021 0.6525 0
M  V30 7 Cl 1.0455 -1.6739 1.0465 0
M  V30 8 H 1.1507 -0.4802 -1.0048 0
M  V30 END ATOM
M  V30 BEGIN BOND
M  V30 1 1 1 2
M  V30 2 1 2 3
M  V30 3 1 2 4
M  V30 4 1 2 5
M  V30 5 1 5 6
M  V30 6 1 5 7
M  V30 7 1 5 8
M  V30 END BOND
M  V30 END CTAB
M  END
>  <Structure No>
5831

>  <LogS>
-2.6248

>  <MMFF94 Energy>
41.493

$$$$
Compound 5832
Actelion Java MolfileCreator 2.0

  0  0  0  0  0  0              0 V3000
M  V30 BEGIN CTAB
M  V30 COUNTS 8 7 0 0 0
M  V30 BEGIN ATOM
M  V30 1 Cl 1.7752 -0.9859 0.7887 0
M  V30 2 C 0.6968 0.1445 -0.072 0
M  V30 3 Cl 0.9603 1.7826 0.5877 0
M  V30 4 F 1.0367 0.1416 -1.4131 0
M  V30 5 C -0.7652 -0.2879 0.0946 0
M  V30 6 Cl -1.8589 0.7829 -0.8245 0
M  V30 7 F -1.1234 -0.2508 1.4309 0
M  V30 8 F -0.9263 -1.5793 -0.3751 0
M  V30 END ATOM
M  V30 BEGIN BOND
M  V30 1 1 1 2
M  V30 2 1 2 3
M  V30 3 1 2 4
M  V30 4 1 2 5
M  V30 5 1 5 6
M  V30 6 1 5 7
M  V30 7 1 5 8
M  V30 END BOND
M  V30 END CTAB
M  END
>  <Structure No>
5832

>  <LogS>
-3.0423

>  <MMFF94 Energy>
69.506

$$$$
Compound 5833
Actelion Java MolfileCreator 2.0

  0  0  0  0  0  0              0 V3000
M  V30 BEGIN CTAB
M  V30 COUNTS 8 7 0 0 0
M  V30 BEGIN ATOM
M  V30 1 Cl 1.4601 0.5838 1.3627 0
M  V30 2 C 0.7557 -0.091 -0.1344 0
M  V30 3 Cl 1.2592 -1.7944 -0.2992 0
M  V30 4 C -0.7737 0.0271 -0.1559 0
M  V30 5 Cl -1.5292 -0.7834 1.246 0
M  V30 6 Cl -1.2738 1.7393 -0.1786 0
M  V30 7 H 1.175 0.4689 -0.9971 0
M  V30 8 H -1.1612 -0.4489 -1.0814 0
M  V30 END ATOM
M  V30 BEGIN BOND
M  V30 1 1 1 2
M  V30 2 1 2 3
M  V30 3 1 2 4
M  V30 4 1 4 5
M  V30 5 1 4 6
M  V30 6 1 2 7
M  V30 7 1 4 8
M  V30 END BOND
M  V30 END CTAB
M  END
>  <Structure No>
5833

>  <LogS>
-1.7536

>  <MMFF94 Energy>
27.832

$$$$
Compound 5834
Actelion Java MolfileCreator 2.0

  0  0  0  0  0  0              0 V3000
M  V30 BEGIN CTAB
M  V30 COUNTS 11 10 0 0 0
M  V30 BEGIN ATOM
M  V30 1 Cl -1.9128 1.4135 -0.2493 0
M  V30 2 C -1.2259 -0.0374 0.5295 0
M  V30 3 C -0.0637 -0.6126 -0.2868 0
M  V30 4 C 1.1768 0.2867 -0.2811 0
M  V30 5 Cl 1.9431 0.3282 1.3298 0
M  V30 6 H -2.0294 -0.8003 0.6021 0
M  V30 7 H -0.8995 0.2158 1.5597 0
M  V30 8 H -0.3984 -0.7638 -1.3359 0
M  V30 9 H 0.2095 -1.6092 0.1224 0
M  V30 10 H 0.9187 1.3199 -0.594 0
M  V30 11 H 1.9182 -0.1155 -1.0032 0
M  V30 END ATOM
M  V30 BEGIN BOND
M  V30 1 1 1 2
M  V30 2 1 2 3
M  V30 3 1 3 4
M  V30 4 1 4 5
M  V30 5 1 2 6
M  V30 6 1 2 7
M  V30 7 1 3 8
M  V30 8 1 3 9
M  V30 9 1 4 10
M  V30 10 1 4 11
M  V30 END BOND
M  V30 END CTAB
M  END
>  <Structure No>
5834

>  <LogS>
-1.6137

>  <MMFF94 Energy>
-5.6436

$$$$
Compound 5835
Actelion Java MolfileCreator 2.0

  0  0  0  0  0  0              0 V3000
M  V30 BEGIN CTAB
M  V30 COUNTS 23 22 0 0 0
M  V30 BEGIN ATOM
M  V30 1 Cl -3.7765 1.0217 1.9655 0
M  V30 2 C -3.0945 -0.0464 0.7133 0
M  V30 3 C -1.8013 0.5511 0.1613 0
M  V30 4 C -1.1852 -0.3623 -0.908 0
M  V30 5 C 0.0161 0.2792 -1.6258 0
M  V30 6 C 1.2121 0.6161 -0.7167 0
M  V30 7 C 1.822 -0.6233 -0.0465 0
M  V30 8 C 3.1093 -0.2708 0.6932 0
M  V30 9 H -2.894 -1.0413 1.1654 0
M  V30 10 H -3.8424 -0.1614 -0.0999 0
M  V30 11 H -1.0864 0.6803 1.0016 0
M  V30 12 H -2.0206 1.5482 -0.2794 0
M  V30 13 H -0.8912 -1.3331 -0.4559 0
M  V30 14 H -1.9563 -0.5835 -1.6784 0
M  V30 15 H 0.3582 -0.4106 -2.4277 0
M  V30 16 H -0.3216 1.2131 -2.1259 0
M  V30 17 H 1.9879 1.1 -1.3498 0
M  V30 18 H 0.9141 1.3581 0.054 0
M  V30 19 H 2.0481 -1.3952 -0.8139 0
M  V30 20 H 1.1052 -1.0496 0.687 0
M  V30 21 H 2.9074 0.4904 1.4768 0
M  V30 22 H 3.8672 0.1244 -0.0162 0
M  V30 23 H 3.5199 -1.1808 1.1793 0
M  V30 END ATOM
M  V30 BEGIN BOND
M  V30 1 1 1 2
M  V30 2 1 2 3
M  V30 3 1 3 4
M  V30 4 1 4 5
M  V30 5 1 5 6
M  V30 6 1 6 7
M  V30 7 1 7 8
M  V30 8 1 2 9
M  V30 9 1 2 10
M  V30 10 1 3 11
M  V30 11 1 3 12
M  V30 12 1 4 13
M  V30 13 1 4 14
M  V30 14 1 5 15
M  V30 15 1 5 16
M  V30 16 1 6 17
M  V30 17 1 6 18
M  V30 18 1 7 19
M  V30 19 1 7 20
M  V30 20 1 8 21
M  V30 21 1 8 22
M  V30 22 1 8 23
M  V30 END BOND
M  V30 END CTAB
M  END
>  <Structure No>
5835

>  <LogS>
-3.9957

>  <MMFF94 Energy>
-3.1812

$$$$
Compound 5836
Actelion Java MolfileCreator 2.0

  0  0  0  0  0  0              0 V3000
M  V30 BEGIN CTAB
M  V30 COUNTS 11 11 0 0 0
M  V30 BEGIN ATOM
M  V30 1 O 2.6723 0.9425 0.3141 0
M  V30 2 C 2.0606 -0.0712 -0.1145 0
M  V30 3 C 0.5968 -0.1319 -0.0791 0
M  V30 4 O -0.1004 -1.1574 -0.5094 0
M  V30 5 C -0.2491 0.8503 0.3978 0
M  V30 6 C -1.3763 -0.8967 -0.3377 0
M  V30 7 C -1.5238 0.3533 0.2294 0
M  V30 8 H 2.6227 -0.9051 -0.5128 0
M  V30 9 H 0.0253 1.8098 0.8166 0
M  V30 10 H -2.1791 -1.5704 -0.6057 0
M  V30 11 H -2.4523 0.8439 0.4893 0
M  V30 END ATOM
M  V30 BEGIN BOND
M  V30 1 2 1 2
M  V30 2 1 2 3
M  V30 3 1 3 4
M  V30 4 2 3 5
M  V30 5 1 4 6
M  V30 6 1 5 7
M  V30 7 2 6 7
M  V30 8 1 2 8
M  V30 9 1 5 9
M  V30 10 1 6 10
M  V30 11 1 7 11
M  V30 END BOND
M  V30 END CTAB
M  END
>  <Structure No>
5836

>  <LogS>
-0.0962

>  <MMFF94 Energy>
22.284

$$$$
Compound 5837
Actelion Java MolfileCreator 2.0

  0  0  0  0  0  0              0 V3000
M  V30 BEGIN CTAB
M  V30 COUNTS 17 18 0 0 0
M  V30 BEGIN ATOM
M  V30 1 O -3.9696 -0.0808 -0.1617 0
M  V30 2 C -2.9893 0.7018 -0.0458 0
M  V30 3 C -1.6055 0.1956 -0.0634 0
M  V30 4 C -0.5323 1.1044 0.0693 0
M  V30 5 C -1.3352 -1.1912 -0.2117 0
M  V30 6 C 0.7632 0.5956 0.0489 0
M  V30 7 C -0.0095 -1.6628 -0.227 0
M  V30 8 O 1.9581 1.2803 0.1599 0
M  V30 9 C 1.0136 -0.73 -0.093 0
M  V30 10 C 3.0252 0.3247 0.0829 0
M  V30 11 O 2.3781 -0.9454 -0.0783 0
M  V30 12 H -3.1761 1.7623 0.068 0
M  V30 13 H -0.7006 2.1681 0.1842 0
M  V30 14 H -2.1446 -1.9029 -0.3147 0
M  V30 15 H 0.2079 -2.7168 -0.3393 0
M  V30 16 H 3.6699 0.5404 -0.7949 0
M  V30 17 H 3.6182 0.3361 1.0214 0
M  V30 END ATOM
M  V30 BEGIN BOND
M  V30 1 2 1 2
M  V30 2 1 2 3
M  V30 3 2 3 4
M  V30 4 1 3 5
M  V30 5 1 4 6
M  V30 6 2 5 7
M  V30 7 1 6 8
M  V30 8 2 6 9
M  V30 9 1 8 10
M  V30 10 1 9 11
M  V30 11 1 7 9
M  V30 12 1 10 11
M  V30 13 1 2 12
M  V30 14 1 4 13
M  V30 15 1 5 14
M  V30 16 1 7 15
M  V30 17 1 10 16
M  V30 18 1 10 17
M  V30 END BOND
M  V30 END CTAB
M  END
>  <Structure No>
5837

>  <LogS>
-1.6324

>  <MMFF94 Energy>
27.525

$$$$
Compound 5838
Actelion Java MolfileCreator 2.0

  0  0  0  0  0  0              0 V3000
M  V30 BEGIN CTAB
M  V30 COUNTS 16 16 0 0 0
M  V30 BEGIN ATOM
M  V30 1 O -1.5321 -2.6622 -0.7255 0
M  V30 2 N -1.45 -1.6834 0.0452 0 CHG=1
M  V30 3 O -2.2936 -1.621 1.1304 0 CHG=-1
M  V30 4 C -0.3376 -0.7792 -0.0559 0
M  V30 5 C -0.4821 0.6089 0.2001 0
M  V30 6 C 0.9304 -1.2898 -0.3865 0
M  V30 7 C 0.6574 1.4354 0.1592 0
M  V30 8 C -1.81 1.217 0.4416 0
M  V30 9 C 2.0456 -0.4525 -0.4327 0
M  V30 10 C 1.9107 0.9058 -0.1524 0
M  V30 11 O -1.9151 2.4075 0.8411 0
M  V30 12 H 1.0591 -2.3463 -0.5856 0
M  V30 13 H 0.5776 2.4988 0.3486 0
M  V30 14 H -2.7161 0.6561 0.2625 0
M  V30 15 H 3.0178 -0.8596 -0.6787 0
M  V30 16 H 2.7778 1.5528 -0.1868 0
M  V30 END ATOM
M  V30 BEGIN BOND
M  V30 1 2 1 2
M  V30 2 1 2 3
M  V30 3 1 2 4
M  V30 4 2 4 5
M  V30 5 1 4 6
M  V30 6 1 5 7
M  V30 7 1 5 8
M  V30 8 2 6 9
M  V30 9 2 7 10
M  V30 10 2 8 11
M  V30 11 1 9 10
M  V30 12 1 6 12
M  V30 13 1 7 13
M  V30 14 1 8 14
M  V30 15 1 9 15
M  V30 16 1 10 16
M  V30 END BOND
M  V30 END CTAB
M  END
>  <Structure No>
5838

>  <LogS>
-1.8138

>  <MMFF94 Energy>
38.162

$$$$
Compound 5839
Actelion Java MolfileCreator 2.0

  0  0  0  0  0  0              0 V3000
M  V30 BEGIN CTAB
M  V30 COUNTS 16 16 0 0 0
M  V30 BEGIN ATOM
M  V30 1 O 3.55 0.9672 0.0 0
M  V30 2 N 2.8695 -0.0611 -0.1955 0 CHG=1
M  V30 3 O 3.5166 -1.2332 -0.5137 0 CHG=-1
M  V30 4 C 1.4345 -0.0231 -0.0902 0
M  V30 5 C 0.7693 1.1729 0.235 0
M  V30 6 C 0.6741 -1.1843 -0.3114 0
M  V30 7 C -0.6245 1.2054 0.3362 0
M  V30 8 C -0.7199 -1.1511 -0.21 0
M  V30 9 C -1.38 0.0453 0.1149 0
M  V30 10 C -2.8492 0.0998 0.2263 0
M  V30 11 O -3.5551 -0.9255 0.0333 0
M  V30 12 H 1.3267 2.0839 0.4113 0
M  V30 13 H 1.1564 -2.1198 -0.5633 0
M  V30 14 H -1.1137 2.1387 0.5881 0
M  V30 15 H -1.28 -2.061 -0.3859 0
M  V30 16 H -3.3388 1.0322 0.478 0
M  V30 END ATOM
M  V30 BEGIN BOND
M  V30 1 2 1 2
M  V30 2 1 2 3
M  V30 3 1 2 4
M  V30 4 2 4 5
M  V30 5 1 4 6
M  V30 6 1 5 7
M  V30 7 2 6 8
M  V30 8 2 7 9
M  V30 9 1 9 10
M  V30 10 2 10 11
M  V30 11 1 8 9
M  V30 12 1 5 12
M  V30 13 1 6 13
M  V30 14 1 7 14
M  V30 15 1 8 15
M  V30 16 1 10 16
M  V30 END BOND
M  V30 END CTAB
M  END
>  <Structure No>
5839

>  <LogS>
-1.8101

>  <MMFF94 Energy>
65.949

$$$$
Compound 5840
Actelion Java MolfileCreator 2.0

  0  0  0  0  0  0              0 V3000
M  V30 BEGIN CTAB
M  V30 COUNTS 18 17 0 0 0
M  V30 BEGIN ATOM
M  V30 1 O 0.0771 -2.0843 0.4629 0
M  V30 2 C -0.2617 -0.8996 0.1873 0
M  V30 3 O 0.712 0.0971 0.0655 0
M  V30 4 C -1.6873 -0.5522 -0.0079 0
M  V30 5 C 2.1017 -0.1591 0.2387 0
M  V30 6 C -2.6498 -1.4634 0.1791 0
M  V30 7 C -2.0563 0.8651 -0.3493 0
M  V30 8 C 2.8854 1.1281 0.0397 0
M  V30 9 H 2.4399 -0.9136 -0.5042 0
M  V30 10 H 2.2871 -0.547 1.264 0
M  V30 11 H -2.416 -2.485 0.4506 0
M  V30 12 H -3.6948 -1.202 0.0659 0
M  V30 13 H -3.0833 0.9323 -0.769 0
M  V30 14 H -2.0007 1.4913 0.5656 0
M  V30 15 H -1.3548 1.2706 -1.1085 0
M  V30 16 H 2.7138 1.5221 -0.9844 0
M  V30 17 H 3.97 0.9317 0.174 0
M  V30 18 H 2.5613 1.8882 0.7819 0
M  V30 END ATOM
M  V30 BEGIN BOND
M  V30 1 2 1 2
M  V30 2 1 2 3
M  V30 3 1 2 4
M  V30 4 1 3 5
M  V30 5 2 4 6
M  V30 6 1 4 7
M  V30 7 1 5 8
M  V30 8 1 5 9
M  V30 9 1 5 10
M  V30 10 1 6 11
M  V30 11 1 6 12
M  V30 12 1 7 13
M  V30 13 1 7 14
M  V30 14 1 7 15
M  V30 15 1 8 16
M  V30 16 1 8 17
M  V30 17 1 8 18
M  V30 END BOND
M  V30 END CTAB
M  END
>  <Structure No>
5840

>  <LogS>
-1.3251

>  <MMFF94 Energy>
0.28866

$$$$
Compound 5841
Actelion Java MolfileCreator 2.0

  0  0  0  0  0  0              0 V3000
M  V30 BEGIN CTAB
M  V30 COUNTS 24 23 0 0 0
M  V30 BEGIN ATOM
M  V30 1 O 0.8527 1.318 1.318 0
M  V30 2 C 1.2402 0.406 0.5359 0
M  V30 3 O 0.4354 -0.7178 0.3118 0
M  V30 4 C 2.5477 0.5108 -0.1491 0
M  V30 5 C -0.8747 -0.8705 0.8566 0
M  V30 6 C 3.3162 1.597 -0.0039 0
M  V30 7 C 2.977 -0.5916 -1.077 0
M  V30 8 C -1.8929 0.011 0.1095 0
M  V30 9 C -1.959 -0.3621 -1.377 0
M  V30 10 C -3.2788 -0.1145 0.7521 0
M  V30 11 H -0.8614 -0.6181 1.9399 0
M  V30 12 H -1.1703 -1.938 0.7656 0
M  V30 13 H 3.0202 2.4173 0.6377 0
M  V30 14 H 4.2592 1.6871 -0.5285 0
M  V30 15 H 2.7805 -1.5799 -0.6106 0
M  V30 16 H 2.4044 -0.5189 -2.0253 0
M  V30 17 H 4.0626 -0.5365 -1.3082 0
M  V30 18 H -1.5762 1.0739 0.1881 0
M  V30 19 H -2.693 0.2855 -1.9021 0
M  V30 20 H -0.9685 -0.2135 -1.8569 0
M  V30 21 H -2.2635 -1.4235 -1.502 0
M  V30 22 H -3.2355 0.1928 1.8188 0
M  V30 23 H -4.004 0.5476 0.2324 0
M  V30 24 H -3.6447 -1.1623 0.6951 0
M  V30 END ATOM
M  V30 BEGIN BOND
M  V30 1 2 1 2
M  V30 2 1 2 3
M  V30 3 1 2 4
M  V30 4 1 3 5
M  V30 5 2 4 6
M  V30 6 1 4 7
M  V30 7 1 5 8
M  V30 8 1 8 9
M  V30 9 1 8 10
M  V30 10 1 5 11
M  V30 11 1 5 12
M  V30 12 1 6 13
M  V30 13 1 6 14
M  V30 14 1 7 15
M  V30 15 1 7 16
M  V30 16 1 7 17
M  V30 17 1 8 18
M  V30 18 1 9 19
M  V30 19 1 9 20
M  V30 20 1 9 21
M  V30 21 1 10 22
M  V30 22 1 10 23
M  V30 23 1 10 24
M  V30 END BOND
M  V30 END CTAB
M  END
>  <Structure No>
5841

>  <LogS>
-2.039

>  <MMFF94 Energy>
4.4139

$$$$
Compound 5842
Actelion Java MolfileCreator 2.0

  0  0  0  0  0  0              0 V3000
M  V30 BEGIN CTAB
M  V30 COUNTS 16 15 0 0 0
M  V30 BEGIN ATOM
M  V30 1 O 0.4608 0.8449 0.9986 0
M  V30 2 C 0.5206 -0.1317 0.2015 0
M  V30 3 O -0.6005 -0.9391 -0.02 0
M  V30 4 N 1.7419 -0.4295 -0.4808 0
M  V30 5 C -1.8733 -0.6977 0.5771 0
M  V30 6 C 2.945 0.3716 -0.2938 0
M  V30 7 C -2.581 0.4626 -0.1132 0
M  V30 8 H 1.7702 -1.2445 -1.1335 0
M  V30 9 H -2.4949 -1.6111 0.4653 0
M  V30 10 H -1.7592 -0.4895 1.6633 0
M  V30 11 H 3.7691 -0.0346 -0.9173 0
M  V30 12 H 3.254 0.3438 0.7723 0
M  V30 13 H 2.7491 1.4217 -0.5969 0
M  V30 14 H -3.5912 0.5988 0.327 0
M  V30 15 H -2.0052 1.4022 0.0194 0
M  V30 16 H -2.6868 0.2501 -1.1981 0
M  V30 END ATOM
M  V30 BEGIN BOND
M  V30 1 2 1 2
M  V30 2 1 2 3
M  V30 3 1 2 4
M  V30 4 1 3 5
M  V30 5 1 4 6
M  V30 6 1 5 7
M  V30 7 1 4 8
M  V30 8 1 5 9
M  V30 9 1 5 10
M  V30 10 1 6 11
M  V30 11 1 6 12
M  V30 12 1 6 13
M  V30 13 1 7 14
M  V30 14 1 7 15
M  V30 15 1 7 16
M  V30 END BOND
M  V30 END CTAB
M  END
>  <Structure No>
5842

>  <LogS>
0.8255

>  <MMFF94 Energy>
-68.811

$$$$
Compound 5843
Actelion Java MolfileCreator 2.0

  0  0  0  0  0  0              0 V3000
M  V30 BEGIN CTAB
M  V30 COUNTS 26 25 0 0 0
M  V30 BEGIN ATOM
M  V30 1 O -2.663 -0.8609 -0.8609 0
M  V30 2 C -1.821 -0.3131 -0.0981 0
M  V30 3 O -2.1362 -0.0377 1.2372 0
M  V30 4 C -0.4495 -0.0037 -0.6074 0
M  V30 5 C -3.4212 -0.2803 1.8066 0
M  V30 6 C 0.494 -1.1784 -0.346 0
M  V30 7 C -4.4205 0.7771 1.3516 0
M  V30 8 C 1.8679 -0.862 -0.8435 0
M  V30 9 O 2.1977 -1.1823 -2.0181 0
M  V30 10 O 2.7594 -0.1775 -0.0096 0
M  V30 11 C 4.0546 0.2486 -0.4274 0
M  V30 12 C 3.9526 1.4826 -1.3164 0
M  V30 13 H -0.0699 0.9067 -0.094 0
M  V30 14 H -0.4982 0.2077 -1.6984 0
M  V30 15 H -3.7811 -1.2958 1.5324 0
M  V30 16 H -3.332 -0.2337 2.9125 0
M  V30 17 H 0.5435 -1.3868 0.7451 0
M  V30 18 H 0.1143 -2.0905 -0.8574 0
M  V30 19 H -4.5672 0.724 0.2527 0
M  V30 20 H -5.3979 0.6062 1.8501 0
M  V30 21 H -4.0507 1.789 1.6214 0
M  V30 22 H 4.579 -0.5719 -0.9636 0
M  V30 23 H 4.6494 0.5069 0.4738 0
M  V30 24 H 3.3972 1.245 -2.2477 0
M  V30 25 H 4.9707 1.8327 -1.5874 0
M  V30 26 H 3.4245 2.2962 -0.775 0
M  V30 END ATOM
M  V30 BEGIN BOND
M  V30 1 2 1 2
M  V30 2 1 2 3
M  V30 3 1 2 4
M  V30 4 1 3 5
M  V30 5 1 4 6
M  V30 6 1 5 7
M  V30 7 1 6 8
M  V30 8 2 8 9
M  V30 9 1 8 10
M  V30 10 1 10 11
M  V30 11 1 11 12
M  V30 12 1 4 13
M  V30 13 1 4 14
M  V30 14 1 5 15
M  V30 15 1 5 16
M  V30 16 1 6 17
M  V30 17 1 6 18
M  V30 18 1 7 19
M  V30 19 1 7 20
M  V30 20 1 7 21
M  V30 21 1 11 22
M  V30 22 1 11 23
M  V30 23 1 12 24
M  V30 24 1 12 25
M  V30 25 1 12 26
M  V30 END BOND
M  V30 END CTAB
M  END
>  <Structure No>
5843

>  <LogS>
-0.96

>  <MMFF94 Energy>
-38.709

$$$$
Compound 5844
Actelion Java MolfileCreator 2.0

  0  0  0  0  0  0              0 V3000
M  V30 BEGIN CTAB
M  V30 COUNTS 27 27 0 0 0
M  V30 BEGIN ATOM
M  V30 1 O -1.1014 1.8888 -1.2589 0
M  V30 2 C -1.0943 0.8329 -0.5672 0
M  V30 3 O 0.121 0.2539 -0.1865 0
M  V30 4 C -2.3694 0.2045 -0.157 0
M  V30 5 C 1.3832 0.8058 -0.5465 0
M  V30 6 C -3.6032 0.7713 -0.5297 0
M  V30 7 C -2.3651 -0.9724 0.6138 0
M  V30 8 C 2.4993 -0.0654 0.0255 0
M  V30 9 C -4.8043 0.1713 -0.1381 0
M  V30 10 C -3.5693 -1.568 1.0025 0
M  V30 11 C 3.8793 0.4936 -0.3389 0
M  V30 12 C -4.7875 -0.9969 0.6271 0
M  V30 13 C 4.9946 -0.3767 0.2325 0
M  V30 14 H 1.4661 1.8371 -0.138 0
M  V30 15 H 1.4678 0.8437 -1.6548 0
M  V30 16 H -3.6409 1.6767 -1.1226 0
M  V30 17 H -1.4334 -1.4334 0.9169 0
M  V30 18 H 2.3946 -0.1076 1.1321 0
M  V30 19 H 2.3964 -1.0967 -0.378 0
M  V30 20 H -5.7489 0.613 -0.4283 0
M  V30 21 H -3.5576 -2.4734 1.5957 0
M  V30 22 H 3.9849 1.5243 0.0647 0
M  V30 23 H 3.9867 0.5356 -1.4449 0
M  V30 24 H -5.7183 -1.4596 0.9291 0
M  V30 25 H 4.9249 -0.4149 1.3406 0
M  V30 26 H 5.9803 0.0514 -0.0467 0
M  V30 27 H 4.9267 -1.4078 -0.1753 0
M  V30 END ATOM
M  V30 BEGIN BOND
M  V30 1 2 1 2
M  V30 2 1 2 3
M  V30 3 1 2 4
M  V30 4 1 3 5
M  V30 5 2 4 6
M  V30 6 1 4 7
M  V30 7 1 5 8
M  V30 8 1 6 9
M  V30 9 2 7 10
M  V30 10 1 8 11
M  V30 11 2 9 12
M  V30 12 1 11 13
M  V30 13 1 10 12
M  V30 14 1 5 14
M  V30 15 1 5 15
M  V30 16 1 6 16
M  V30 17 1 7 17
M  V30 18 1 8 18
M  V30 19 1 8 19
M  V30 20 1 9 20
M  V30 21 1 10 21
M  V30 22 1 11 22
M  V30 23 1 11 23
M  V30 24 1 12 24
M  V30 25 1 13 25
M  V30 26 1 13 26
M  V30 27 1 13 27
M  V30 END BOND
M  V30 END CTAB
M  END
>  <Structure No>
5844

>  <LogS>
-3.4801

>  <MMFF94 Energy>
27.121

$$$$
Compound 5845
Actelion Java MolfileCreator 2.0

  0  0  0  0  0  0              0 V3000
M  V30 BEGIN CTAB
M  V30 COUNTS 21 21 0 0 0
M  V30 BEGIN ATOM
M  V30 1 O 3.1518 -1.4961 -0.9447 0
M  V30 2 C 2.8096 -0.567 -0.1636 0
M  V30 3 O 1.4637 -0.2252 -0.006 0
M  V30 4 C 3.8545 0.2088 0.5633 0
M  V30 5 C 0.4139 -0.9083 -0.6822 0
M  V30 6 C -0.9022 -0.3012 -0.2942 0
M  V30 7 C -1.5947 -0.7728 0.8332 0
M  V30 8 C -1.4199 0.7875 -1.015 0
M  V30 9 C -2.803 -0.1814 1.2154 0
M  V30 10 C -2.6286 1.3761 -0.6295 0
M  V30 11 C -3.3208 0.8905 0.4833 0
M  V30 12 H 3.4147 0.6859 1.4641 0
M  V30 13 H 4.6781 -0.4649 0.8806 0
M  V30 14 H 4.2614 0.9965 -0.104 0
M  V30 15 H 0.5621 -0.829 -1.7816 0
M  V30 16 H 0.4323 -1.9866 -0.4107 0
M  V30 17 H -1.1994 -1.5964 1.415 0
M  V30 18 H -0.8884 1.1797 -1.8733 0
M  V30 19 H -3.336 -0.5518 2.0816 0
M  V30 20 H -3.0266 2.2114 -1.1912 0
M  V30 21 H -4.2554 1.3481 0.7812 0
M  V30 END ATOM
M  V30 BEGIN BOND
M  V30 1 2 1 2
M  V30 2 1 2 3
M  V30 3 1 2 4
M  V30 4 1 3 5
M  V30 5 1 5 6
M  V30 6 2 6 7
M  V30 7 1 6 8
M  V30 8 1 7 9
M  V30 9 2 8 10
M  V30 10 2 9 11
M  V30 11 1 10 11
M  V30 12 1 4 12
M  V30 13 1 4 13
M  V30 14 1 4 14
M  V30 15 1 5 15
M  V30 16 1 5 16
M  V30 17 1 7 17
M  V30 18 1 8 18
M  V30 19 1 9 19
M  V30 20 1 10 20
M  V30 21 1 11 21
M  V30 END BOND
M  V30 END CTAB
M  END
>  <Structure No>
5845

>  <LogS>
-1.6853

>  <MMFF94 Energy>
8.9799

$$$$
Compound 5846
Actelion Java MolfileCreator 2.0

  0  0  0  0  0  0              0 V3000
M  V30 BEGIN CTAB
M  V30 COUNTS 19 18 0 0 0
M  V30 BEGIN ATOM
M  V30 1 O -0.0779 1.6369 0.4674 0
M  V30 2 C 0.0828 0.4587 0.8883 0
M  V30 3 O 1.3528 -0.1286 0.9077 0
M  V30 4 C -1.1008 -0.3373 1.3324 0
M  V30 5 C 2.5243 0.5191 0.4162 0
M  V30 6 C -1.686 -1.0834 0.1655 0
M  V30 7 C 2.5462 0.5049 -1.1077 0
M  V30 8 O -1.0747 -2.0271 -0.3122 0
M  V30 9 C -3.0068 -0.6923 -0.4281 0
M  V30 10 H -1.8534 0.3428 1.7859 0
M  V30 11 H -0.7919 -1.0617 2.1161 0
M  V30 12 H 3.4143 -0.0288 0.7905 0
M  V30 13 H 2.5778 1.5633 0.794 0
M  V30 14 H 2.4859 -0.5404 -1.4774 0
M  V30 15 H 1.6904 1.084 -1.513 0
M  V30 16 H 3.4903 0.9619 -1.4716 0
M  V30 17 H -3.7188 -1.5394 -0.3403 0
M  V30 18 H -2.8709 -0.4417 -1.5009 0
M  V30 19 H -3.4377 0.1906 0.0884 0
M  V30 END ATOM
M  V30 BEGIN BOND
M  V30 1 2 1 2
M  V30 2 1 2 3
M  V30 3 1 2 4
M  V30 4 1 3 5
M  V30 5 1 4 6
M  V30 6 1 5 7
M  V30 7 2 6 8
M  V30 8 1 6 9
M  V30 9 1 4 10
M  V30 10 1 4 11
M  V30 11 1 5 12
M  V30 12 1 5 13
M  V30 13 1 7 14
M  V30 14 1 7 15
M  V30 15 1 7 16
M  V30 16 1 9 17
M  V30 17 1 9 18
M  V30 18 1 9 19
M  V30 END BOND
M  V30 END CTAB
M  END
>  <Structure No>
5846

>  <LogS>
-0.073

>  <MMFF94 Energy>
-23.327

$$$$
Compound 5847
Actelion Java MolfileCreator 2.0

  0  0  0  0  0  0              0 V3000
M  V30 BEGIN CTAB
M  V30 COUNTS 14 13 0 0 0
M  V30 BEGIN ATOM
M  V30 1 O 0.3843 -1.1534 1.3072 0
M  V30 2 C 0.204 -0.5584 0.2096 0
M  V30 3 O 1.2199 0.2163 -0.3573 0
M  V30 4 C -1.1245 -0.6423 -0.4713 0
M  V30 5 C 2.4993 0.3618 0.2465 0
M  V30 6 C -2.0259 0.5049 -0.031 0
M  V30 7 H -0.9781 -0.5948 -1.5717 0
M  V30 8 H -1.6125 -1.611 -0.2281 0
M  V30 9 H 2.3953 0.8243 1.2509 0
M  V30 10 H 2.9912 -0.6296 0.3388 0
M  V30 11 H 3.1293 1.0182 -0.3878 0
M  V30 12 H -2.1995 0.4601 1.0655 0
M  V30 13 H -3.005 0.4282 -0.5491 0
M  V30 14 H -1.5622 1.481 -0.2896 0
M  V30 END ATOM
M  V30 BEGIN BOND
M  V30 1 2 1 2
M  V30 2 1 2 3
M  V30 3 1 2 4
M  V30 4 1 3 5
M  V30 5 1 4 6
M  V30 6 1 4 7
M  V30 7 1 4 8
M  V30 8 1 5 9
M  V30 9 1 5 10
M  V30 10 1 5 11
M  V30 11 1 6 12
M  V30 12 1 6 13
M  V30 13 1 6 14
M  V30 END BOND
M  V30 END CTAB
M  END
>  <Structure No>
5847

>  <LogS>
-0.1498

>  <MMFF94 Energy>
-9.4681

$$$$
Compound 5848
Actelion Java MolfileCreator 2.0

  0  0  0  0  0  0              0 V3000
M  V30 BEGIN CTAB
M  V30 COUNTS 36 36 0 0 0
M  V30 BEGIN ATOM
M  V30 1 O 0.9495 -1.187 -0.7121 0
M  V30 2 C 1.4605 -0.1265 -0.2581 0
M  V30 3 O 2.777 -0.1258 0.2195 0
M  V30 4 C 0.6936 1.1394 -0.2754 0
M  V30 5 C 3.6256 -1.2737 0.2002 0
M  V30 6 C -0.7193 1.1924 -0.1142 0
M  V30 7 C 1.3987 2.3304 -0.5266 0
M  V30 8 C 4.143 -1.5242 -1.2188 0
M  V30 9 C 4.7903 -1.043 1.1606 0
M  V30 10 C -1.5304 0.0199 0.2839 0
M  V30 11 C -1.3806 2.4234 -0.2755 0
M  V30 12 C 0.7242 3.5444 -0.6607 0
M  V30 13 O -1.0542 -0.8476 1.0662 0
M  V30 14 O -2.8489 -0.0911 -0.1748 0
M  V30 15 C -0.6632 3.5889 -0.5469 0
M  V30 16 C -3.7372 -1.1374 0.2183 0
M  V30 17 C -4.2547 -0.8856 1.6373 0
M  V30 18 C -4.899 -1.1968 -0.7711 0
M  V30 19 H 3.0603 -2.1662 0.5502 0
M  V30 20 H 2.4746 2.3178 -0.6519 0
M  V30 21 H 4.8228 -2.4027 -1.231 0
M  V30 22 H 3.296 -1.7326 -1.9049 0
M  V30 23 H 4.6924 -0.6338 -1.5926 0
M  V30 24 H 4.401 -0.8693 2.1862 0
M  V30 25 H 5.3808 -0.1548 0.8491 0
M  V30 26 H 5.4546 -1.933 1.183 0
M  V30 27 H -2.4556 2.4909 -0.1595 0
M  V30 28 H 1.2785 4.4511 -0.8659 0
M  V30 29 H -1.1842 4.5313 -0.6566 0
M  V30 30 H -3.2059 -2.1148 0.187 0
M  V30 31 H -4.7703 0.097 1.6921 0
M  V30 32 H -4.965 -1.686 1.9355 0
M  V30 33 H -3.4115 -0.8846 2.3589 0
M  V30 34 H -4.51 -1.3862 -1.7939 0
M  V30 35 H -5.5944 -2.0202 -0.5014 0
M  V30 36 H -5.4561 -0.2354 -0.7746 0
M  V30 END ATOM
M  V30 BEGIN BOND
M  V30 1 2 1 2
M  V30 2 1 2 3
M  V30 3 1 2 4
M  V30 4 1 3 5
M  V30 5 2 4 6
M  V30 6 1 4 7
M  V30 7 1 5 8
M  V30 8 1 5 9
M  V30 9 1 6 10
M  V30 10 1 6 11
M  V30 11 2 7 12
M  V30 12 2 10 13
M  V30 13 1 10 14
M  V30 14 2 11 15
M  V30 15 1 14 16
M  V30 16 1 16 17
M  V30 17 1 16 18
M  V30 18 1 12 15
M  V30 19 1 5 19
M  V30 20 1 7 20
M  V30 21 1 8 21
M  V30 22 1 8 22
M  V30 23 1 8 23
M  V30 24 1 9 24
M  V30 25 1 9 25
M  V30 26 1 9 26
M  V30 27 1 11 27
M  V30 28 1 12 28
M  V30 29 1 15 29
M  V30 30 1 16 30
M  V30 31 1 17 31
M  V30 32 1 17 32
M  V30 33 1 17 33
M  V30 34 1 18 34
M  V30 35 1 18 35
M  V30 36 1 18 36
M  V30 END BOND
M  V30 END CTAB
M  END
>  <Structure No>
5848

>  <LogS>
-2.8773

>  <MMFF94 Energy>
23.835

$$$$
Compound 5849
Actelion Java MolfileCreator 2.0

  0  0  0  0  0  0              0 V3000
M  V30 BEGIN CTAB
M  V30 COUNTS 16 15 0 0 0
M  V30 BEGIN ATOM
M  V30 1 O 0.3832 -0.3065 -1.6871 0
M  V30 2 C 0.1355 -0.0939 -0.5092 0
M  V30 3 C 1.0056 0.857 0.269 0
M  V30 4 C -1.0342 -0.7876 0.1368 0
M  V30 5 C 2.4037 0.28 0.4627 0
M  V30 6 C -2.3525 -0.2791 -0.4368 0
M  V30 7 H 0.5625 1.0678 1.2659 0
M  V30 8 H 1.075 1.8208 -0.2795 0
M  V30 9 H -1.032 -0.6202 1.2352 0
M  V30 10 H -0.9517 -1.8818 -0.0375 0
M  V30 11 H 2.3488 -0.6816 1.0163 0
M  V30 12 H 3.0222 0.9927 1.0478 0
M  V30 13 H 2.8928 0.1106 -0.5203 0
M  V30 14 H -2.4056 -0.484 -1.5274 0
M  V30 15 H -3.1991 -0.796 0.0622 0
M  V30 16 H -2.4507 0.8138 -0.263 0
M  V30 END ATOM
M  V30 BEGIN BOND
M  V30 1 2 1 2
M  V30 2 1 2 3
M  V30 3 1 2 4
M  V30 4 1 3 5
M  V30 5 1 4 6
M  V30 6 1 3 7
M  V30 7 1 3 8
M  V30 8 1 4 9
M  V30 9 1 4 10
M  V30 10 1 5 11
M  V30 11 1 5 12
M  V30 12 1 5 13
M  V30 13 1 6 14
M  V30 14 1 6 15
M  V30 15 1 6 16
M  V30 END BOND
M  V30 END CTAB
M  END
>  <Structure No>
5849

>  <LogS>
-0.253

>  <MMFF94 Energy>
0.093743

$$$$
Compound 5850
Actelion Java MolfileCreator 2.0

  0  0  0  0  0  0              0 V3000
M  V30 BEGIN CTAB
M  V30 COUNTS 22 21 0 0 0
M  V30 BEGIN ATOM
M  V30 1 O 2.3178 0.2315 2.0858 0
M  V30 2 C 2.2238 -0.0424 0.8986 0
M  V30 3 C 1.034 0.4376 0.1124 0
M  V30 4 C 3.308 -0.8327 0.2304 0
M  V30 5 C -0.2495 -0.2624 0.5842 0
M  V30 6 C -1.52 0.2926 -0.0992 0
M  V30 7 C -1.5682 -0.0589 -1.5942 0
M  V30 8 C -2.7727 -0.249 0.6019 0
M  V30 9 H 1.2015 0.2298 -0.9652 0
M  V30 10 H 0.9385 1.5376 0.2417 0
M  V30 11 H 4.0839 -1.1352 0.9658 0
M  V30 12 H 2.8741 -1.7459 -0.2279 0
M  V30 13 H 3.784 -0.2168 -0.5609 0
M  V30 14 H -0.1661 -1.3562 0.3975 0
M  V30 15 H -0.3437 -0.1144 1.6834 0
M  V30 16 H -1.5308 1.4008 0.0017 0
M  V30 17 H -2.5285 0.2808 -2.0382 0
M  V30 18 H -0.753 0.4534 -2.1449 0
M  V30 19 H -1.4756 -1.1561 -1.7434 0
M  V30 20 H -3.6887 0.1722 0.1347 0
M  V30 21 H -2.8116 -1.3576 0.533 0
M  V30 22 H -2.7717 0.0444 1.6736 0
M  V30 END ATOM
M  V30 BEGIN BOND
M  V30 1 2 1 2
M  V30 2 1 2 3
M  V30 3 1 2 4
M  V30 4 1 3 5
M  V30 5 1 5 6
M  V30 6 1 6 7
M  V30 7 1 6 8
M  V30 8 1 3 9
M  V30 9 1 3 10
M  V30 10 1 4 11
M  V30 11 1 4 12
M  V30 12 1 4 13
M  V30 13 1 5 14
M  V30 14 1 5 15
M  V30 15 1 6 16
M  V30 16 1 7 17
M  V30 17 1 7 18
M  V30 18 1 7 19
M  V30 19 1 8 20
M  V30 20 1 8 21
M  V30 21 1 8 22
M  V30 END BOND
M  V30 END CTAB
M  END
>  <Structure No>
5850

>  <LogS>
-1.3252

>  <MMFF94 Energy>
5.9174

$$$$
Compound 5851
Actelion Java MolfileCreator 2.0

  0  0  0  0  0  0              0 V3000
M  V30 BEGIN CTAB
M  V30 COUNTS 16 15 0 0 0
M  V30 BEGIN ATOM
M  V30 1 O 1.6889 -0.1534 -1.6889 0
M  V30 2 C 1.0286 -0.0927 -0.6625 0
M  V30 3 C -0.4751 0.0544 -0.76 0
M  V30 4 C 1.7421 -0.1674 0.6581 0
M  V30 5 C -1.1905 -1.1487 -0.1361 0
M  V30 6 C -0.9447 1.3688 -0.1266 0
M  V30 7 H -0.7575 0.0862 -1.8366 0
M  V30 8 H 2.291 -1.1297 0.7284 0
M  V30 9 H 1.0358 -0.1016 1.5105 0
M  V30 10 H 2.4667 0.6699 0.7353 0
M  V30 11 H -1.0095 -1.2015 0.9582 0
M  V30 12 H -0.8332 -2.0901 -0.6056 0
M  V30 13 H -2.2853 -1.0697 -0.3081 0
M  V30 14 H -0.4115 2.2269 -0.5893 0
M  V30 15 H -2.0338 1.5046 -0.2985 0
M  V30 16 H -0.7576 1.3774 0.9679 0
M  V30 END ATOM
M  V30 BEGIN BOND
M  V30 1 2 1 2
M  V30 2 1 2 3
M  V30 3 1 2 4
M  V30 4 1 3 5
M  V30 5 1 3 6
M  V30 6 1 3 7
M  V30 7 1 4 8
M  V30 8 1 4 9
M  V30 9 1 4 10
M  V30 10 1 5 11
M  V30 11 1 5 12
M  V30 12 1 5 13
M  V30 13 1 6 14
M  V30 14 1 6 15
M  V30 15 1 6 16
M  V30 END BOND
M  V30 END CTAB
M  END
>  <Structure No>
5851

>  <LogS>
-0.1513

>  <MMFF94 Energy>
4.8628

$$$$
Compound 5852
Actelion Java MolfileCreator 2.0

  0  0  0  0  0  0              0 V3000
M  V30 BEGIN CTAB
M  V30 COUNTS 31 30 0 0 0
M  V30 BEGIN ATOM
M  V30 1 O -4.8132 -1.3179 0.2324 0
M  V30 2 C -4.323 -0.4667 -0.4944 0
M  V30 3 C -2.8798 -0.5746 -0.9036 0
M  V30 4 C -5.1709 0.6648 -0.9912 0
M  V30 5 C -1.9559 -0.3904 0.3051 0
M  V30 6 C -0.4822 -0.4831 -0.1082 0
M  V30 7 C 0.4415 -0.289 1.1037 0
M  V30 8 C 1.9244 -0.5058 0.7612 0
M  V30 9 C 2.516 0.6515 -0.0615 0
M  V30 10 C 4.0008 0.4375 -0.3944 0
M  V30 11 C 4.9131 0.6208 0.8184 0
M  V30 12 H -2.7093 -1.5723 -1.363 0
M  V30 13 H -2.6466 0.1998 -1.667 0
M  V30 14 H -5.2403 0.6203 -2.0981 0
M  V30 15 H -6.1949 0.6054 -0.5643 0
M  V30 16 H -4.7142 1.6313 -0.6917 0
M  V30 17 H -2.1476 0.6048 0.7645 0
M  V30 18 H -2.1758 -1.1768 1.0607 0
M  V30 19 H -0.2741 0.2993 -0.8681 0
M  V30 20 H -0.2921 -1.4801 -0.5631 0
M  V30 21 H 0.2977 0.7273 1.5318 0
M  V30 22 H 0.1607 -1.0262 1.8878 0
M  V30 23 H 2.0484 -1.4655 0.2135 0
M  V30 24 H 2.4784 -0.5912 1.7195 0
M  V30 25 H 2.3872 1.6121 0.4836 0
M  V30 26 H 1.9681 0.7338 -1.0233 0
M  V30 27 H 4.2978 1.181 -1.1656 0
M  V30 28 H 4.1547 -0.5745 -0.8278 0
M  V30 29 H 5.9732 0.5767 0.4913 0
M  V30 30 H 4.7327 1.6074 1.2958 0
M  V30 31 H 4.7492 -0.1859 1.5617 0
M  V30 END ATOM
M  V30 BEGIN BOND
M  V30 1 2 1 2
M  V30 2 1 2 3
M  V30 3 1 2 4
M  V30 4 1 3 5
M  V30 5 1 5 6
M  V30 6 1 6 7
M  V30 7 1 7 8
M  V30 8 1 8 9
M  V30 9 1 9 10
M  V30 10 1 10 11
M  V30 11 1 3 12
M  V30 12 1 3 13
M  V30 13 1 4 14
M  V30 14 1 4 15
M  V30 15 1 4 16
M  V30 16 1 5 17
M  V30 17 1 5 18
M  V30 18 1 6 19
M  V30 19 1 6 20
M  V30 20 1 7 21
M  V30 21 1 7 22
M  V30 22 1 8 23
M  V30 23 1 8 24
M  V30 24 1 9 25
M  V30 25 1 9 26
M  V30 26 1 10 27
M  V30 27 1 10 28
M  V30 28 1 11 29
M  V30 29 1 11 30
M  V30 30 1 11 31
M  V30 END BOND
M  V30 END CTAB
M  END
>  <Structure No>
5852

>  <LogS>
-3.3085

>  <MMFF94 Energy>
-0.24496

$$$$
Compound 5853
Actelion Java MolfileCreator 2.0

  0  0  0  0  0  0              0 V3000
M  V30 BEGIN CTAB
M  V30 COUNTS 15 14 0 0 0
M  V30 BEGIN ATOM
M  V30 1 Cl 1.7909 1.3642 1.1083 0
M  V30 2 C 1.2081 0.6609 -0.4304 0
M  V30 3 Cl 1.032 1.9971 -1.6053 0
M  V30 4 Cl 2.51 -0.3979 -1.0509 0
M  V30 5 C -0.1434 -0.1142 -0.2546 0
M  V30 6 O -0.6018 -0.564 -1.5094 0
M  V30 7 C -1.2385 0.8079 0.3209 0
M  V30 8 C 0.0112 -1.3233 0.6994 0
M  V30 9 H 0.0227 -1.2597 -1.8417 0
M  V30 10 H -1.4098 1.6847 -0.3374 0
M  V30 11 H -0.9731 1.1714 1.336 0
M  V30 12 H -2.2011 0.2574 0.3966 0
M  V30 13 H 0.3212 -0.9953 1.7141 0
M  V30 14 H 0.7629 -2.0452 0.3185 0
M  V30 15 H -0.9546 -1.8655 0.79 0
M  V30 END ATOM
M  V30 BEGIN BOND
M  V30 1 1 1 2
M  V30 2 1 2 3
M  V30 3 1 2 4
M  V30 4 1 2 5
M  V30 5 1 5 6
M  V30 6 1 5 7
M  V30 7 1 5 8
M  V30 8 1 6 9
M  V30 9 1 7 10
M  V30 10 1 7 11
M  V30 11 1 7 12
M  V30 12 1 8 13
M  V30 13 1 8 14
M  V30 14 1 8 15
M  V30 END BOND
M  V30 END CTAB
M  END
>  <Structure No>
5853

>  <LogS>
-1.346

>  <MMFF94 Energy>
56.516

$$$$
Compound 5854
Actelion Java MolfileCreator 2.0

  0  0  0  0  0  0              0 V3000
M  V30 BEGIN CTAB
M  V30 COUNTS 9 8 0 0 0
M  V30 BEGIN ATOM
M  V30 1 Cl -1.7078 1.3481 0.4492 0
M  V30 2 C -0.9005 -0.2304 0.2557 0
M  V30 3 Cl -1.9218 -1.2687 -0.7706 0
M  V30 4 Cl -0.7345 -0.9998 1.8563 0
M  V30 5 C 0.4713 -0.0523 -0.3962 0
M  V30 6 O 1.2864 0.7631 0.4008 0
M  V30 7 H 0.9515 -1.0484 -0.5246 0
M  V30 8 H 0.3459 0.4123 -1.4 0
M  V30 9 H 2.1533 0.8363 -0.0765 0
M  V30 END ATOM
M  V30 BEGIN BOND
M  V30 1 1 1 2
M  V30 2 1 2 3
M  V30 3 1 2 4
M  V30 4 1 2 5
M  V30 5 1 5 6
M  V30 6 1 5 7
M  V30 7 1 5 8
M  V30 8 1 6 9
M  V30 END BOND
M  V30 END CTAB
M  END
>  <Structure No>
5854

>  <LogS>
-0.2537

>  <MMFF94 Energy>
46.535

$$$$
Compound 5855
Actelion Java MolfileCreator 2.0

  0  0  0  0  0  0              0 V3000
M  V30 BEGIN CTAB
M  V30 COUNTS 13 13 0 0 0
M  V30 BEGIN ATOM
M  V30 1 N -2.0528 -1.8947 2.3689 0
M  V30 2 C -1.3955 -1.3014 1.6238 0
M  V30 3 C -0.5779 -0.5634 0.6969 0
M  V30 4 C 0.0839 0.5995 1.1152 0
M  V30 5 C -0.4414 -1.0056 -0.6262 0
M  V30 6 C 0.8781 1.3155 0.2131 0
M  V30 7 C 0.3535 -0.2872 -1.5257 0
M  V30 8 C 1.0128 0.8726 -1.1063 0
M  V30 9 H -0.0139 0.9511 2.1353 0
M  V30 10 H -0.9481 -1.9028 -0.961 0
M  V30 11 H 1.3888 2.2133 0.5368 0
M  V30 12 H 0.4584 -0.6293 -2.5472 0
M  V30 13 H 1.6276 1.4274 -1.8032 0
M  V30 END ATOM
M  V30 BEGIN BOND
M  V30 1 3 1 2
M  V30 2 1 2 3
M  V30 3 2 3 4
M  V30 4 1 3 5
M  V30 5 1 4 6
M  V30 6 2 5 7
M  V30 7 2 6 8
M  V30 8 1 7 8
M  V30 9 1 4 9
M  V30 10 1 5 10
M  V30 11 1 6 11
M  V30 12 1 7 12
M  V30 13 1 8 13
M  V30 END BOND
M  V30 END CTAB
M  END
>  <Structure No>
5855

>  <LogS>
-1.7123

>  <MMFF94 Energy>
29.498

$$$$
Compound 5856
Actelion Java MolfileCreator 2.0

  0  0  0  0  0  0              0 V3000
M  V30 BEGIN CTAB
M  V30 COUNTS 9 8 0 0 0
M  V30 BEGIN ATOM
M  V30 1 N 2.5797 0.4548 -0.2274 0
M  V30 2 C 1.5313 0.0069 -0.0283 0
M  V30 3 C 0.2026 -0.5611 0.224 0
M  V30 4 C -0.8844 0.4539 -0.1058 0
M  V30 5 H 0.0697 -1.4671 -0.404 0
M  V30 6 H 0.129 -0.8517 1.2933 0
M  V30 7 H -1.8815 0.0066 0.0912 0
M  V30 8 H -0.7715 1.3612 0.5261 0
M  V30 9 H -0.8312 0.7436 -1.1774 0
M  V30 END ATOM
M  V30 BEGIN BOND
M  V30 1 3 1 2
M  V30 2 1 2 3
M  V30 3 1 3 4
M  V30 4 1 3 5
M  V30 5 1 3 6
M  V30 6 1 4 7
M  V30 7 1 4 8
M  V30 8 1 4 9
M  V30 END BOND
M  V30 END CTAB
M  END
>  <Structure No>
5856

>  <LogS>
0.2718

>  <MMFF94 Energy>
-1.8496

$$$$
Compound 5857
Actelion Java MolfileCreator 2.0

  0  0  0  0  0  0              0 V3000
M  V30 BEGIN CTAB
M  V30 COUNTS 7 6 0 0 0
M  V30 BEGIN ATOM
M  V30 1 N 2.0935 -1.1958 0.7472 0
M  V30 2 C 1.2683 -0.4512 0.425 0
M  V30 3 C 0.2433 0.4746 0.0247 0
M  V30 4 C -0.9684 0.045 -0.3094 0
M  V30 5 H 0.4673 1.533 -0.0027 0
M  V30 6 H -1.214 -1.0099 -0.2888 0
M  V30 7 H -1.7298 0.7536 -0.6087 0
M  V30 END ATOM
M  V30 BEGIN BOND
M  V30 1 3 1 2
M  V30 2 1 2 3
M  V30 3 2 3 4
M  V30 4 1 3 5
M  V30 5 1 4 6
M  V30 6 1 4 7
M  V30 END BOND
M  V30 END CTAB
M  END
>  <Structure No>
5857

>  <LogS>
0.1474

>  <MMFF94 Energy>
8.6468

$$$$
Compound 5858
Actelion Java MolfileCreator 2.0

  0  0  0  0  0  0              0 V3000
M  V30 BEGIN CTAB
M  V30 COUNTS 12 11 0 0 0
M  V30 BEGIN ATOM
M  V30 1 N 0.306 -0.153 2.8338 0
M  V30 2 C 0.1325 -0.5507 1.761 0
M  V30 3 C -0.0879 -1.0556 0.3994 0
M  V30 4 C 0.4743 -0.094 -0.6538 0
M  V30 5 C -0.3189 1.2105 -0.732 0
M  V30 6 H 0.4226 -2.037 0.304 0
M  V30 7 H -1.1754 -1.214 0.2368 0
M  V30 8 H 0.4316 -0.5915 -1.6468 0
M  V30 9 H 1.541 0.1313 -0.4342 0
M  V30 10 H -0.2555 1.7643 0.2283 0
M  V30 11 H 0.1006 1.8514 -1.5357 0
M  V30 12 H -1.3846 1.0012 -0.9658 0
M  V30 END ATOM
M  V30 BEGIN BOND
M  V30 1 3 1 2
M  V30 2 1 2 3
M  V30 3 1 3 4
M  V30 4 1 4 5
M  V30 5 1 3 6
M  V30 6 1 3 7
M  V30 7 1 4 8
M  V30 8 1 4 9
M  V30 9 1 5 10
M  V30 10 1 5 11
M  V30 11 1 5 12
M  V30 END BOND
M  V30 END CTAB
M  END
>  <Structure No>
5858

>  <LogS>
-0.321

>  <MMFF94 Energy>
-2.03

$$$$
Compound 5859
Actelion Java MolfileCreator 2.0

  0  0  0  0  0  0              0 V3000
M  V30 BEGIN CTAB
M  V30 COUNTS 13 13 0 0 0
M  V30 BEGIN ATOM
M  V30 1 Cl 0.684 2.9094 -0.0854 0
M  V30 2 C 0.134 1.2367 -0.0508 0
M  V30 3 C 1.0447 0.162 -0.0823 0
M  V30 4 C -1.2412 0.9841 0.0095 0
M  V30 5 C 2.465 0.4146 -0.1445 0
M  V30 6 C 0.5602 -1.1607 -0.0529 0
M  V30 7 C -1.7153 -0.3286 0.0384 0
M  V30 8 N 3.6033 0.6172 -0.1943 0
M  V30 9 Cl 1.653 -2.5412 -0.0901 0
M  V30 10 C -0.8179 -1.3975 0.0074 0
M  V30 11 H -1.9452 1.8064 0.034 0
M  V30 12 H -2.78 -0.5179 0.0852 0
M  V30 13 H -1.1951 -2.4121 0.0303 0
M  V30 END ATOM
M  V30 BEGIN BOND
M  V30 1 1 1 2
M  V30 2 2 2 3
M  V30 3 1 2 4
M  V30 4 1 3 5
M  V30 5 1 3 6
M  V30 6 2 4 7
M  V30 7 3 5 8
M  V30 8 1 6 9
M  V30 9 2 6 10
M  V30 10 1 7 10
M  V30 11 1 4 11
M  V30 12 1 7 12
M  V30 13 1 10 13
M  V30 END BOND
M  V30 END CTAB
M  END
>  <Structure No>
5859

>  <LogS>
-3.9803

>  <MMFF94 Energy>
13.21

$$$$
Compound 5860
Actelion Java MolfileCreator 2.0

  0  0  0  0  0  0              0 V3000
M  V30 BEGIN CTAB
M  V30 COUNTS 24 23 0 0 0
M  V30 BEGIN ATOM
M  V30 1 C 2.9948 0.0767 0.7672 0
M  V30 2 C 3.4625 0.9296 -0.1489 0
M  V30 3 C 1.9489 -0.9508 0.4318 0
M  V30 4 C 0.5829 -0.2959 0.1924 0
M  V30 5 C -0.4931 -1.3547 -0.0838 0
M  V30 6 C -1.8379 -0.744 -0.5136 0
M  V30 7 C -2.5357 0.0623 0.6015 0
M  V30 8 C -2.3767 1.5713 0.4154 0
M  V30 9 H 3.4021 0.1055 1.7736 0
M  V30 10 H 4.2274 1.6504 0.1207 0
M  V30 11 H 3.0917 0.9131 -1.1692 0
M  V30 12 H 1.8688 -1.663 1.2819 0
M  V30 13 H 2.2657 -1.5224 -0.4679 0
M  V30 14 H 0.6503 0.3968 -0.6747 0
M  V30 15 H 0.304 0.2859 1.0971 0
M  V30 16 H -0.1436 -2.0194 -0.9041 0
M  V30 17 H -0.6407 -1.9862 0.8196 0
M  V30 18 H -2.5054 -1.5863 -0.7994 0
M  V30 19 H -1.6991 -0.1297 -1.4306 0
M  V30 20 H -2.1571 -0.2304 1.6049 0
M  V30 21 H -3.6235 -0.1676 0.585 0
M  V30 22 H -1.3073 1.8631 0.412 0
M  V30 23 H -2.842 1.8905 -0.5413 0
M  V30 24 H -2.8844 2.1028 1.2479 0
M  V30 END ATOM
M  V30 BEGIN BOND
M  V30 1 2 1 2
M  V30 2 1 1 3
M  V30 3 1 3 4
M  V30 4 1 4 5
M  V30 5 1 5 6
M  V30 6 1 6 7
M  V30 7 1 7 8
M  V30 8 1 1 9
M  V30 9 1 2 10
M  V30 10 1 2 11
M  V30 11 1 3 12
M  V30 12 1 3 13
M  V30 13 1 4 14
M  V30 14 1 4 15
M  V30 15 1 5 16
M  V30 16 1 5 17
M  V30 17 1 6 18
M  V30 18 1 6 19
M  V30 19 1 7 20
M  V30 20 1 7 21
M  V30 21 1 8 22
M  V30 22 1 8 23
M  V30 23 1 8 24
M  V30 END BOND
M  V30 END CTAB
M  END
>  <Structure No>
5860

>  <LogS>
-4.4373

>  <MMFF94 Energy>
6.3531

$$$$
Compound 5861
Actelion Java MolfileCreator 2.0

  0  0  0  0  0  0              0 V3000
M  V30 BEGIN CTAB
M  V30 COUNTS 27 26 0 0 0
M  V30 BEGIN ATOM
M  V30 1 C -3.6946 -0.615 -0.8457 0
M  V30 2 C -3.8318 0.527 -1.5256 0
M  V30 3 C -2.8 -0.7169 0.359 0
M  V30 4 C -1.3203 -0.6647 -0.0407 0
M  V30 5 C -0.4138 -0.8005 1.1917 0
M  V30 6 C 1.0762 -0.8847 0.8249 0
M  V30 7 C 1.6387 0.4526 0.3207 0
M  V30 8 C 3.1526 0.3609 0.0977 0
M  V30 9 C 3.7161 1.6835 -0.414 0
M  V30 10 H -4.2685 -1.4849 -1.1514 0
M  V30 11 H -3.2894 1.4209 -1.2329 0
M  V30 12 H -4.4966 0.5724 -2.382 0
M  V30 13 H -3.0076 -1.6819 0.8704 0
M  V30 14 H -3.0362 0.1065 1.0684 0
M  V30 15 H -1.1051 -1.4918 -0.7528 0
M  V30 16 H -1.116 0.3019 -0.5475 0
M  V30 17 H -0.5843 0.0536 1.8832 0
M  V30 18 H -0.6849 -1.7321 1.7353 0
M  V30 19 H 1.6358 -1.1876 1.7371 0
M  V30 20 H 1.2314 -1.6746 0.0576 0
M  V30 21 H 1.1513 0.7257 -0.6393 0
M  V30 22 H 1.4259 1.2493 1.0672 0
M  V30 23 H 3.3743 -0.4358 -0.6452 0
M  V30 24 H 3.6582 0.1017 1.0536 0
M  V30 25 H 4.812 1.5873 -0.5643 0
M  V30 26 H 3.2468 1.9534 -1.384 0
M  V30 27 H 3.5284 2.4937 0.3226 0
M  V30 END ATOM
M  V30 BEGIN BOND
M  V30 1 2 1 2
M  V30 2 1 1 3
M  V30 3 1 3 4
M  V30 4 1 4 5
M  V30 5 1 5 6
M  V30 6 1 6 7
M  V30 7 1 7 8
M  V30 8 1 8 9
M  V30 9 1 1 10
M  V30 10 1 2 11
M  V30 11 1 2 12
M  V30 12 1 3 13
M  V30 13 1 3 14
M  V30 14 1 4 15
M  V30 15 1 4 16
M  V30 16 1 5 17
M  V30 17 1 5 18
M  V30 18 1 6 19
M  V30 19 1 6 20
M  V30 20 1 7 21
M  V30 21 1 7 22
M  V30 22 1 8 23
M  V30 23 1 8 24
M  V30 24 1 9 25
M  V30 25 1 9 26
M  V30 26 1 9 27
M  V30 END BOND
M  V30 END CTAB
M  END
>  <Structure No>
5861

>  <LogS>
-5.052

>  <MMFF94 Energy>
5.2964

$$$$
Compound 5862
Actelion Java MolfileCreator 2.0

  0  0  0  0  0  0              0 V3000
M  V30 BEGIN CTAB
M  V30 COUNTS 15 15 0 0 0
M  V30 BEGIN ATOM
M  V30 1 C -1.636 0.3114 0.0 0
M  V30 2 C -0.8803 1.4193 0.0656 0
M  V30 3 C -1.169 -1.0274 -0.4196 0
M  V30 4 C 0.5574 1.5036 -0.2698 0
M  V30 5 C 0.0556 -1.5103 -0.191 0
M  V30 6 C 1.4422 0.5223 -0.0706 0
M  V30 7 C 1.0859 -0.767 0.5984 0
M  V30 8 H -2.7009 0.423 0.1623 0
M  V30 9 H -1.383 2.3552 0.2768 0
M  V30 10 H -1.8906 -1.6763 -0.8999 0
M  V30 11 H 0.9222 2.4473 -0.6558 0
M  V30 12 H 0.2935 -2.5096 -0.5348 0
M  V30 13 H 2.4765 0.6905 -0.3453 0
M  V30 14 H 1.9979 -1.3945 0.6902 0
M  V30 15 H 0.7049 -0.5677 1.6237 0
M  V30 END ATOM
M  V30 BEGIN BOND
M  V30 1 2 1 2
M  V30 2 1 1 3
M  V30 3 1 2 4
M  V30 4 2 3 5
M  V30 5 2 4 6
M  V30 6 1 5 7
M  V30 7 1 6 7
M  V30 8 1 1 8
M  V30 9 1 2 9
M  V30 10 1 3 10
M  V30 11 1 4 11
M  V30 12 1 5 12
M  V30 13 1 6 13
M  V30 14 1 7 14
M  V30 15 1 7 15
M  V30 END BOND
M  V30 END CTAB
M  END
>  <Structure No>
5862

>  <LogS>
-2.1721

>  <MMFF94 Energy>
16.331

$$$$
Compound 5863
Actelion Java MolfileCreator 2.0

  0  0  0  0  0  0              0 V3000
M  V30 BEGIN CTAB
M  V30 COUNTS 12 11 0 0 0
M  V30 BEGIN ATOM
M  V30 1 C -0.6741 -0.2995 -0.6741 0
M  V30 2 C 0.6578 -0.4523 -0.5968 0
M  V30 3 C -1.4851 0.3812 0.39 0
M  V30 4 C 1.4747 0.0415 0.5616 0
M  V30 5 H -1.1921 -0.686 -1.547 0
M  V30 6 H 1.1712 -0.9572 -1.41 0
M  V30 7 H -1.1495 1.4325 0.5124 0
M  V30 8 H -1.381 -0.159 1.3542 0
M  V30 9 H -2.5562 0.3829 0.0984 0
M  V30 10 H 1.142 -0.4487 1.5006 0
M  V30 11 H 1.3735 1.1429 0.6587 0
M  V30 12 H 2.5446 -0.2026 0.3943 0
M  V30 END ATOM
M  V30 BEGIN BOND
M  V30 1 2 1 2
M  V30 2 1 1 3
M  V30 3 1 2 4
M  V30 4 1 1 5
M  V30 5 1 2 6
M  V30 6 1 3 7
M  V30 7 1 3 8
M  V30 8 1 3 9
M  V30 9 1 4 10
M  V30 10 1 4 11
M  V30 11 1 4 12
M  V30 END BOND
M  V30 END CTAB
M  END
>  <Structure No>
5863

>  <LogS>
-1.9302

>  <MMFF94 Energy>
6.1982

$$$$
Compound 5864
Actelion Java MolfileCreator 2.0

  0  0  0  0  0  0              0 V3000
M  V30 BEGIN CTAB
M  V30 COUNTS 13 12 0 0 0
M  V30 BEGIN ATOM
M  V30 1 C 1.2017 -0.4505 -0.2252 0
M  V30 2 C 1.6182 0.7915 -0.4876 0
M  V30 3 C -0.216 -0.8809 -0.4765 0
M  V30 4 C -1.1086 -0.4708 0.6606 0
M  V30 5 C -1.613 0.7629 0.7515 0
M  V30 6 H 1.907 -1.171 0.1782 0
M  V30 7 H 0.9423 1.534 -0.8997 0
M  V30 8 H 2.6489 1.07 -0.2944 0
M  V30 9 H -0.5902 -0.4775 -1.4431 0
M  V30 10 H -0.2343 -1.989 -0.5499 0
M  V30 11 H -1.3522 -1.1997 1.4281 0
M  V30 12 H -1.3976 1.5134 -0.0024 0
M  V30 13 H -2.2545 1.0266 1.5859 0
M  V30 END ATOM
M  V30 BEGIN BOND
M  V30 1 2 1 2
M  V30 2 1 1 3
M  V30 3 1 3 4
M  V30 4 2 4 5
M  V30 5 1 1 6
M  V30 6 1 2 7
M  V30 7 1 2 8
M  V30 8 1 3 9
M  V30 9 1 3 10
M  V30 10 1 4 11
M  V30 11 1 5 12
M  V30 12 1 5 13
M  V30 END BOND
M  V30 END CTAB
M  END
>  <Structure No>
5864

>  <LogS>
-2.0866

>  <MMFF94 Energy>
14.835

$$$$
Compound 5865
Actelion Java MolfileCreator 2.0

  0  0  0  0  0  0              0 V3000
M  V30 BEGIN CTAB
M  V30 COUNTS 18 17 0 0 0
M  V30 BEGIN ATOM
M  V30 1 C 2.132 -0.1521 0.761 0
M  V30 2 C 2.7807 -0.9344 -0.1065 0
M  V30 3 C 0.9668 0.7006 0.3403 0
M  V30 4 C -0.2685 -0.1558 0.0375 0
M  V30 5 C -1.4643 0.7222 -0.3479 0
M  V30 6 C -2.6958 -0.1256 -0.6521 0
M  V30 7 H 2.4743 -0.1065 1.7905 0
M  V30 8 H 3.627 -1.5271 0.2248 0
M  V30 9 H 2.4775 -0.9865 -1.1477 0
M  V30 10 H 1.2482 1.3 -0.553 0
M  V30 11 H 0.7294 1.4052 1.1669 0
M  V30 12 H -0.5275 -0.757 0.9373 0
M  V30 13 H -0.042 -0.8525 -0.7992 0
M  V30 14 H -1.2118 1.3253 -1.2473 0
M  V30 15 H -1.7039 1.4173 0.4861 0
M  V30 16 H -2.9845 -0.7207 0.2403 0
M  V30 17 H -2.4915 -0.8123 -1.5009 0
M  V30 18 H -3.544 0.536 -0.9271 0
M  V30 END ATOM
M  V30 BEGIN BOND
M  V30 1 2 1 2
M  V30 2 1 1 3
M  V30 3 1 3 4
M  V30 4 1 4 5
M  V30 5 1 5 6
M  V30 6 1 1 7
M  V30 7 1 2 8
M  V30 8 1 2 9
M  V30 9 1 3 10
M  V30 10 1 3 11
M  V30 11 1 4 12
M  V30 12 1 4 13
M  V30 13 1 5 14
M  V30 14 1 5 15
M  V30 15 1 6 16
M  V30 16 1 6 17
M  V30 17 1 6 18
M  V30 END BOND
M  V30 END CTAB
M  END
>  <Structure No>
5865

>  <LogS>
-3.2261

>  <MMFF94 Energy>
8.3673

$$$$
Compound 5866
Actelion Java MolfileCreator 2.0

  0  0  0  0  0  0              0 V3000
M  V30 BEGIN CTAB
M  V30 COUNTS 16 15 0 0 0
M  V30 BEGIN ATOM
M  V30 1 C -1.7435 -0.0757 -0.2272 0
M  V30 2 C -1.8023 0.5544 0.9496 0
M  V30 3 C -0.5693 -0.9361 -0.6133 0
M  V30 4 C 0.6043 -0.1043 -1.152 0
M  V30 5 C 1.2775 0.7096 -0.0794 0
M  V30 6 C 2.0086 0.1389 0.8824 0
M  V30 7 H -2.5812 0.0085 -0.9134 0
M  V30 8 H -2.6705 1.1552 1.2003 0
M  V30 9 H -0.9961 0.4707 1.6716 0
M  V30 10 H -0.9 -1.6251 -1.42 0
M  V30 11 H -0.2504 -1.5678 0.2444 0
M  V30 12 H 0.2373 0.5766 -1.9506 0
M  V30 13 H 1.3528 -0.7835 -1.615 0
M  V30 14 H 1.189 1.7917 -0.1057 0
M  V30 15 H 2.4915 0.7542 1.6345 0
M  V30 16 H 2.1321 -0.9388 0.9256 0
M  V30 END ATOM
M  V30 BEGIN BOND
M  V30 1 2 1 2
M  V30 2 1 1 3
M  V30 3 1 3 4
M  V30 4 1 4 5
M  V30 5 2 5 6
M  V30 6 1 1 7
M  V30 7 1 2 8
M  V30 8 1 2 9
M  V30 9 1 3 10
M  V30 10 1 3 11
M  V30 11 1 4 12
M  V30 12 1 4 13
M  V30 13 1 5 14
M  V30 14 1 6 15
M  V30 15 1 6 16
M  V30 END BOND
M  V30 END CTAB
M  END
>  <Structure No>
5866

>  <LogS>
-2.6867

>  <MMFF94 Energy>
20.892

$$$$
Compound 5867
Actelion Java MolfileCreator 2.0

  0  0  0  0  0  0              0 V3000
M  V30 BEGIN CTAB
M  V30 COUNTS 21 20 0 0 0
M  V30 BEGIN ATOM
M  V30 1 C 2.9071 0.0764 0.6114 0
M  V30 2 C 3.5024 0.6966 -0.4114 0
M  V30 3 C 1.6203 -0.6823 0.4371 0
M  V30 4 C 0.4414 0.2694 0.1992 0
M  V30 5 C -0.8737 -0.507 0.0654 0
M  V30 6 C -2.052 0.4437 -0.1742 0
M  V30 7 C -3.363 -0.3255 -0.3076 0
M  V30 8 H 3.3805 0.0939 1.5888 0
M  V30 9 H 4.4382 1.2237 -0.2563 0
M  V30 10 H 3.0665 0.6802 -1.4057 0
M  V30 11 H 1.7197 -1.3922 -0.4132 0
M  V30 12 H 1.4322 -1.2738 1.3593 0
M  V30 13 H 0.6169 0.8535 -0.7308 0
M  V30 14 H 0.3653 0.9792 1.0527 0
M  V30 15 H -1.0542 -1.0886 0.9965 0
M  V30 16 H -0.7956 -1.2182 -0.7863 0
M  V30 17 H -2.1381 1.156 0.6752 0
M  V30 18 H -1.8806 1.0259 -1.106 0
M  V30 19 H -3.3126 -1.0278 -1.1668 0
M  V30 20 H -3.5713 -0.897 0.6219 0
M  V30 21 H -4.1965 0.3874 -0.4803 0
M  V30 END ATOM
M  V30 BEGIN BOND
M  V30 1 2 1 2
M  V30 2 1 1 3
M  V30 3 1 3 4
M  V30 4 1 4 5
M  V30 5 1 5 6
M  V30 6 1 6 7
M  V30 7 1 1 8
M  V30 8 1 2 9
M  V30 9 1 2 10
M  V30 10 1 3 11
M  V30 11 1 3 12
M  V30 12 1 4 13
M  V30 13 1 4 14
M  V30 14 1 5 15
M  V30 15 1 5 16
M  V30 16 1 6 17
M  V30 17 1 6 18
M  V30 18 1 7 19
M  V30 19 1 7 20
M  V30 20 1 7 21
M  V30 END BOND
M  V30 END CTAB
M  END
>  <Structure No>
5867

>  <LogS>
-3.732

>  <MMFF94 Energy>
5.6578

$$$$
Compound 5868
Actelion Java MolfileCreator 2.0

  0  0  0  0  0  0              0 V3000
M  V30 BEGIN CTAB
M  V30 COUNTS 14 14 0 0 0
M  V30 BEGIN ATOM
M  V30 1 C 0.3907 -1.4072 0.0 0
M  V30 2 C -0.9179 -1.109 -0.012 0
M  V30 3 C 1.4365 -0.3297 -0.1441 0
M  V30 4 C -1.3913 0.3145 -0.1701 0
M  V30 5 C 0.9364 1.0033 0.3547 0
M  V30 6 C -0.3722 1.3014 0.3427 0
M  V30 7 H 0.7033 -2.4441 0.0751 0
M  V30 8 H -1.6502 -1.9078 0.0535 0
M  V30 9 H 2.3433 -0.619 0.4272 0
M  V30 10 H 1.7097 -0.2337 -1.2158 0
M  V30 11 H -2.344 0.4487 0.3841 0
M  V30 12 H -1.5773 0.515 -1.2461 0
M  V30 13 H 1.6522 1.7467 0.6917 0
M  V30 14 H -0.7013 2.283 0.6701 0
M  V30 END ATOM
M  V30 BEGIN BOND
M  V30 1 2 1 2
M  V30 2 1 1 3
M  V30 3 1 2 4
M  V30 4 1 3 5
M  V30 5 1 4 6
M  V30 6 2 5 6
M  V30 7 1 1 7
M  V30 8 1 2 8
M  V30 9 1 3 9
M  V30 10 1 3 10
M  V30 11 1 4 11
M  V30 12 1 4 12
M  V30 13 1 5 13
M  V30 14 1 6 14
M  V30 END BOND
M  V30 END CTAB
M  END
>  <Structure No>
5868

>  <LogS>
-2.0587

>  <MMFF94 Energy>
11.556

$$$$
Compound 5869
Actelion Java MolfileCreator 2.0

  0  0  0  0  0  0              0 V3000
M  V30 BEGIN CTAB
M  V30 COUNTS 19 20 0 0 0
M  V30 BEGIN ATOM
M  V30 1 N -0.2356 1.9653 0.1571 0
M  V30 2 C 0.5951 0.9173 0.0176 0
M  V30 3 C -1.4806 1.4449 0.2564 0
M  V30 4 C -0.0995 -0.2651 0.0275 0
M  V30 5 C 1.9804 0.951 -0.1367 0
M  V30 6 C -1.4317 0.0559 0.1904 0
M  V30 7 C 0.5402 -1.4956 -0.1206 0
M  V30 8 C 2.6555 -0.2747 -0.2837 0
M  V30 9 C -2.5947 -0.8822 0.2032 0
M  V30 10 C 1.9386 -1.4923 -0.2764 0
M  V30 11 H 0.0219 2.9771 0.1737 0
M  V30 12 H -2.3776 2.0414 0.3629 0
M  V30 13 H 2.5203 1.8891 -0.1456 0
M  V30 14 H -0.0163 -2.4238 -0.1166 0
M  V30 15 H 3.7307 -0.2845 -0.4056 0
M  V30 16 H -3.5032 -0.3646 0.5771 0
M  V30 17 H -2.7839 -1.2513 -0.8261 0
M  V30 18 H -2.3762 -1.7442 0.8677 0
M  V30 19 H 2.4683 -2.4288 -0.3927 0
M  V30 END ATOM
M  V30 BEGIN BOND
M  V30 1 1 1 2
M  V30 2 1 1 3
M  V30 3 2 2 4
M  V30 4 1 2 5
M  V30 5 2 3 6
M  V30 6 1 4 7
M  V30 7 2 5 8
M  V30 8 1 6 9
M  V30 9 2 7 10
M  V30 10 1 4 6
M  V30 11 1 8 10
M  V30 12 1 1 11
M  V30 13 1 3 12
M  V30 14 1 5 13
M  V30 15 1 7 14
M  V30 16 1 8 15
M  V30 17 1 9 16
M  V30 18 1 9 17
M  V30 19 1 9 18
M  V30 20 1 10 19
M  V30 END BOND
M  V30 END CTAB
M  END
>  <Structure No>
5869

>  <LogS>
-2.4206

>  <MMFF94 Energy>
16.07

$$$$
Compound 5870
Actelion Java MolfileCreator 2.0

  0  0  0  0  0  0              0 V3000
M  V30 BEGIN CTAB
M  V30 COUNTS 14 15 0 0 0
M  V30 BEGIN ATOM
M  V30 1 N 2.6285 -0.8755 -0.0795 0
M  V30 2 N 1.6192 -1.7452 -0.0324 0
M  V30 3 N 2.186 0.3787 -0.0714 0
M  V30 4 C 0.5014 -0.9989 0.0067 0
M  V30 5 C 0.8505 0.3135 -0.0173 0
M  V30 6 C -0.8267 -1.4105 0.0632 0
M  V30 7 C -0.0898 1.3389 0.0125 0
M  V30 8 C -1.8142 -0.4046 0.0952 0
M  V30 9 C -1.4474 0.9639 0.07 0
M  V30 10 H 2.7863 1.2323 -0.1021 0
M  V30 11 H -1.0915 -2.4597 0.0821 0
M  V30 12 H 0.2075 2.3792 -0.0071 0
M  V30 13 H -2.8598 -0.6798 0.1393 0
M  V30 14 H -2.2146 1.7267 0.095 0
M  V30 END ATOM
M  V30 BEGIN BOND
M  V30 1 2 1 2
M  V30 2 1 1 3
M  V30 3 1 2 4
M  V30 4 1 3 5
M  V30 5 1 4 6
M  V30 6 1 5 7
M  V30 7 2 6 8
M  V30 8 2 7 9
M  V30 9 2 4 5
M  V30 10 1 8 9
M  V30 11 1 3 10
M  V30 12 1 6 11
M  V30 13 1 7 12
M  V30 14 1 8 13
M  V30 15 1 9 14
M  V30 END BOND
M  V30 END CTAB
M  END
>  <Structure No>
5870

>  <LogS>
-0.7794

>  <MMFF94 Energy>
19.45

$$$$
Compound 5871
Actelion Java MolfileCreator 2.0

  0  0  0  0  0  0              0 V3000
M  V30 BEGIN CTAB
M  V30 COUNTS 15 16 0 0 0
M  V30 BEGIN ATOM
M  V30 1 S 1.4808 1.9748 0.0 0
M  V30 2 C 0.1437 0.9626 0.0463 0
M  V30 3 C 2.6079 0.7332 -0.224 0
M  V30 4 C 0.5549 -0.3515 -0.1114 0
M  V30 5 C -1.1963 1.3041 0.2125 0
M  V30 6 C 1.9387 -0.4888 -0.2639 0
M  V30 7 C -0.383 -1.3876 -0.1077 0
M  V30 8 C -2.1466 0.2711 0.2177 0
M  V30 9 C -1.742 -1.0689 0.0584 0
M  V30 10 H 3.6769 0.8643 -0.3208 0
M  V30 11 H -1.4977 2.3363 0.3344 0
M  V30 12 H 2.44 -1.4385 -0.3986 0
M  V30 13 H -0.0733 -2.4178 -0.23 0
M  V30 14 H -3.1955 0.5054 0.3449 0
M  V30 15 H -2.4822 -1.8583 0.0639 0
M  V30 END ATOM
M  V30 BEGIN BOND
M  V30 1 1 1 2
M  V30 2 1 1 3
M  V30 3 2 2 4
M  V30 4 1 2 5
M  V30 5 2 3 6
M  V30 6 1 4 7
M  V30 7 2 5 8
M  V30 8 2 7 9
M  V30 9 1 4 6
M  V30 10 1 8 9
M  V30 11 1 3 10
M  V30 12 1 5 11
M  V30 13 1 6 12
M  V30 14 1 7 13
M  V30 15 1 8 14
M  V30 16 1 9 15
M  V30 END BOND
M  V30 END CTAB
M  END
>  <Structure No>
5871

>  <LogS>
-3.0138

>  <MMFF94 Energy>
20.576

$$$$
Compound 5872
Actelion Java MolfileCreator 2.0

  0  0  0  0  0  0              0 V3000
M  V30 BEGIN CTAB
M  V30 COUNTS 10 10 0 0 0
M  V30 BEGIN ATOM
M  V30 1 N 0.305 -1.1444 0.0762 0
M  V30 2 C 1.1183 -0.0738 0.0432 0
M  V30 3 C -0.9574 -0.6839 0.0251 0
M  V30 4 C 0.3707 1.0837 -0.0298 0
M  V30 5 C -0.9539 0.6944 -0.0413 0
M  V30 6 H 0.5985 -2.1447 0.1313 0
M  V30 7 H 2.1986 -0.1293 0.0706 0
M  V30 8 H -1.8364 -1.3149 0.0355 0
M  V30 9 H 0.748 2.0968 -0.0701 0
M  V30 10 H -1.8186 1.3425 -0.0924 0
M  V30 END ATOM
M  V30 BEGIN BOND
M  V30 1 1 1 2
M  V30 2 1 1 3
M  V30 3 2 2 4
M  V30 4 2 3 5
M  V30 5 1 4 5
M  V30 6 1 1 6
M  V30 7 1 2 7
M  V30 8 1 3 8
M  V30 9 1 4 9
M  V30 10 1 5 10
M  V30 END BOND
M  V30 END CTAB
M  END
>  <Structure No>
5872

>  <LogS>
-0.1734

>  <MMFF94 Energy>
3.2868

$$$$
Compound 5873
Actelion Java MolfileCreator 2.0

  0  0  0  0  0  0              0 V3000
M  V30 BEGIN CTAB
M  V30 COUNTS 15 16 0 0 0
M  V30 BEGIN ATOM
M  V30 1 N -2.6117 -0.3953 0.079 0
M  V30 2 N -1.682 -1.339 0.1862 0
M  V30 3 C -1.9943 0.8037 -0.0587 0
M  V30 4 C -0.4765 -0.7542 0.1179 0
M  V30 5 C -0.6333 0.592 -0.036 0
M  V30 6 C 0.7818 -1.348 0.1846 0
M  V30 7 C 0.452 1.4581 -0.1363 0
M  V30 8 C 1.9048 -0.5034 0.0866 0
M  V30 9 C 1.7407 0.8931 -0.073 0
M  V30 10 H -1.8801 -2.3574 0.303 0
M  V30 11 H -2.5039 1.752 -0.1668 0
M  V30 12 H 0.8934 -2.4175 0.3069 0
M  V30 13 H 0.312 2.5244 -0.2582 0
M  V30 14 H 2.9001 -0.9257 0.134 0
M  V30 15 H 2.6112 1.5319 -0.147 0
M  V30 END ATOM
M  V30 BEGIN BOND
M  V30 1 1 1 2
M  V30 2 2 1 3
M  V30 3 1 2 4
M  V30 4 1 3 5
M  V30 5 1 4 6
M  V30 6 1 5 7
M  V30 7 2 6 8
M  V30 8 2 7 9
M  V30 9 2 4 5
M  V30 10 1 8 9
M  V30 11 1 2 10
M  V30 12 1 3 11
M  V30 13 1 6 12
M  V30 14 1 7 13
M  V30 15 1 8 14
M  V30 16 1 9 15
M  V30 END BOND
M  V30 END CTAB
M  END
>  <Structure No>
5873

>  <LogS>
-2.1554

>  <MMFF94 Energy>
27.643

$$$$
Compound 5874
Actelion Java MolfileCreator 2.0

  0  0  0  0  0  0              0 V3000
M  V30 BEGIN CTAB
M  V30 COUNTS 14 15 0 0 0
M  V30 BEGIN ATOM
M  V30 1 O 1.8335 -1.036 0.0796 0
M  V30 2 C 0.5919 -0.6339 0.0731 0
M  V30 3 C 2.5684 0.0613 -0.0032 0
M  V30 4 C 0.5735 0.7239 -0.0148 0
M  V30 5 C -0.5744 -1.3906 0.1408 0
M  V30 6 N 1.8285 1.2001 -0.0656 0
M  V30 7 C -0.6189 1.4434 -0.0426 0
M  V30 8 C -1.7999 -0.6975 0.115 0
M  V30 9 C -1.8222 0.7142 0.0237 0
M  V30 10 H 3.65 0.0548 -0.0199 0
M  V30 11 H -0.5404 -2.4698 0.2104 0
M  V30 12 H -0.6218 2.5234 -0.1128 0
M  V30 13 H -2.7301 -1.2482 0.1656 0
M  V30 14 H -2.7694 1.2373 0.0047 0
M  V30 END ATOM
M  V30 BEGIN BOND
M  V30 1 1 1 2
M  V30 2 1 1 3
M  V30 3 2 2 4
M  V30 4 1 2 5
M  V30 5 2 3 6
M  V30 6 1 4 7
M  V30 7 2 5 8
M  V30 8 2 7 9
M  V30 9 1 4 6
M  V30 10 1 8 9
M  V30 11 1 3 10
M  V30 12 1 5 11
M  V30 13 1 7 12
M  V30 14 1 8 13
M  V30 15 1 9 14
M  V30 END BOND
M  V30 END CTAB
M  END
>  <Structure No>
5874

>  <LogS>
-1.1548

>  <MMFF94 Energy>
18.661

$$$$
Compound 5875
Actelion Java MolfileCreator 2.0

  0  0  0  0  0  0              0 V3000
M  V30 BEGIN CTAB
M  V30 COUNTS 19 20 0 0 0
M  V30 BEGIN ATOM
M  V30 1 C 0.0 0.6356 0.3178 0
M  V30 2 C 0.1452 -0.5986 -0.2631 0
M  V30 3 C 1.1128 1.4104 0.6554 0
M  V30 4 C -1.4222 0.9944 0.5177 0
M  V30 5 C 1.411 -1.1233 -0.537 0
M  V30 6 C -1.1588 -1.2438 -0.5357 0
M  V30 7 C 2.3938 0.903 0.3892 0
M  V30 8 C -2.1954 -0.2198 -0.0331 0
M  V30 9 C 2.5428 -0.3623 -0.2063 0
M  V30 10 H 0.9908 2.3835 1.1136 0
M  V30 11 H -1.632 1.1426 1.5989 0
M  V30 12 H -1.6691 1.9156 -0.0525 0
M  V30 13 H 1.5182 -2.0978 -0.9955 0
M  V30 14 H -1.2388 -2.1994 0.0259 0
M  V30 15 H -1.2759 -1.4264 -1.6256 0
M  V30 16 H 3.269 1.487 0.6429 0
M  V30 17 H -2.859 0.0951 -0.868 0
M  V30 18 H -2.8222 -0.6702 0.7673 0
M  V30 19 H 3.5323 -0.7502 -0.4101 0
M  V30 END ATOM
M  V30 BEGIN BOND
M  V30 1 2 1 2
M  V30 2 1 1 3
M  V30 3 1 1 4
M  V30 4 1 2 5
M  V30 5 1 2 6
M  V30 6 2 3 7
M  V30 7 1 4 8
M  V30 8 2 5 9
M  V30 9 1 6 8
M  V30 10 1 7 9
M  V30 11 1 3 10
M  V30 12 1 4 11
M  V30 13 1 4 12
M  V30 14 1 5 13
M  V30 15 1 6 14
M  V30 16 1 6 15
M  V30 17 1 7 16
M  V30 18 1 8 17
M  V30 19 1 8 18
M  V30 20 1 9 19
M  V30 END BOND
M  V30 END CTAB
M  END
>  <Structure No>
5875

>  <LogS>
-3.0351

>  <MMFF94 Energy>
22.825

$$$$
Compound 5876
Actelion Java MolfileCreator 2.0

  0  0  0  0  0  0              0 V3000
M  V30 BEGIN CTAB
M  V30 COUNTS 12 12 0 0 0
M  V30 BEGIN ATOM
M  V30 1 O 0.2317 -1.1593 -0.5408 0
M  V30 2 C -0.4028 -0.1074 -0.0778 0
M  V30 3 C 1.5231 -0.9556 -0.4143 0
M  V30 4 C 0.5002 0.8299 0.3792 0
M  V30 5 C -1.888 0.0253 -0.0382 0
M  V30 6 C 1.7452 0.2807 0.1589 0
M  V30 7 H 2.2854 -1.6608 -0.7171 0
M  V30 8 H 0.2803 1.7934 0.8201 0
M  V30 9 H -2.3572 -0.7836 -0.6361 0
M  V30 10 H -2.1897 1.0072 -0.4597 0
M  V30 11 H -2.2395 -0.0475 1.0119 0
M  V30 12 H 2.7028 0.7271 0.3906 0
M  V30 END ATOM
M  V30 BEGIN BOND
M  V30 1 1 1 2
M  V30 2 1 1 3
M  V30 3 2 2 4
M  V30 4 1 2 5
M  V30 5 2 3 6
M  V30 6 1 4 6
M  V30 7 1 3 7
M  V30 8 1 4 8
M  V30 9 1 5 9
M  V30 10 1 5 10
M  V30 11 1 5 11
M  V30 12 1 6 12
M  V30 END BOND
M  V30 END CTAB
M  END
>  <Structure No>
5876

>  <LogS>
-1.4372

>  <MMFF94 Energy>
1.8062

$$$$
Compound 5877
Actelion Java MolfileCreator 2.0

  0  0  0  0  0  0              0 V3000
M  V30 BEGIN CTAB
M  V30 COUNTS 18 18 0 0 0
M  V30 BEGIN ATOM
M  V30 1 O 3.5781 1.6685 0.5559 0
M  V30 2 N 3.2417 0.4954 0.8147 0 CHG=1
M  V30 3 O 4.0885 -0.308 1.5422 0 CHG=-1
M  V30 4 C 1.9842 -0.0052 0.3567 0
M  V30 5 O 1.126 0.7024 -0.3402 0
M  V30 6 C 1.4998 -1.2796 0.5787 0
M  V30 7 C 0.0863 -0.0592 -0.5926 0
M  V30 8 C 0.266 -1.3133 -0.0371 0
M  V30 9 C -1.119 0.3978 -1.3539 0
M  V30 10 O -1.8424 1.3522 -0.6018 0
M  V30 11 C -2.7791 0.7066 0.2332 0
M  V30 12 H 1.9802 -2.0826 1.1217 0
M  V30 13 H -0.4203 -2.1491 -0.0723 0
M  V30 14 H -1.7403 -0.4712 -1.676 0
M  V30 15 H -0.7672 0.8889 -2.2849 0
M  V30 16 H -3.2779 1.4718 0.8629 0
M  V30 17 H -2.2851 -0.0201 0.9157 0
M  V30 18 H -3.5659 0.2012 -0.3691 0
M  V30 END ATOM
M  V30 BEGIN BOND
M  V30 1 2 1 2
M  V30 2 1 2 3
M  V30 3 1 2 4
M  V30 4 1 4 5
M  V30 5 2 4 6
M  V30 6 1 5 7
M  V30 7 1 6 8
M  V30 8 1 7 9
M  V30 9 1 9 10
M  V30 10 1 10 11
M  V30 11 2 7 8
M  V30 12 1 6 12
M  V30 13 1 8 13
M  V30 14 1 9 14
M  V30 15 1 9 15
M  V30 16 1 11 16
M  V30 17 1 11 17
M  V30 18 1 11 18
M  V30 END BOND
M  V30 END CTAB
M  END
>  <Structure No>
5877

>  <LogS>
-1.1548

>  <MMFF94 Energy>
58.131

$$$$
Compound 5878
Actelion Java MolfileCreator 2.0

  0  0  0  0  0  0              0 V3000
M  V30 BEGIN CTAB
M  V30 COUNTS 18 19 0 0 0
M  V30 BEGIN ATOM
M  V30 1 N 0.8677 -1.1045 0.8677 0
M  V30 2 C -0.3368 -0.6261 0.5078 0
M  V30 3 C 1.7243 -0.2993 0.1843 0
M  V30 4 C -0.1953 0.4275 -0.3453 0
M  V30 5 C -1.5904 -1.079 0.9131 0
M  V30 6 N 1.1065 0.6529 -0.5573 0
M  V30 7 C 3.2079 -0.4059 0.3038 0
M  V30 8 C -1.2897 1.116 -0.8639 0
M  V30 9 C -2.722 -0.41 0.4079 0
M  V30 10 C -2.5723 0.6831 -0.4768 0
M  V30 11 H -1.692 -1.9151 1.5929 0
M  V30 12 H 1.5435 1.3944 -1.1491 0
M  V30 13 H 3.6851 -0.1487 -0.6647 0
M  V30 14 H 3.4939 -1.442 0.5812 0
M  V30 15 H 3.5665 0.2943 1.0864 0
M  V30 16 H -1.1602 1.9523 -1.5384 0
M  V30 17 H -3.7125 -0.7337 0.7 0
M  V30 18 H -3.4486 1.191 -0.858 0
M  V30 END ATOM
M  V30 BEGIN BOND
M  V30 1 1 1 2
M  V30 2 2 1 3
M  V30 3 2 2 4
M  V30 4 1 2 5
M  V30 5 1 3 6
M  V30 6 1 3 7
M  V30 7 1 4 8
M  V30 8 2 5 9
M  V30 9 2 8 10
M  V30 10 1 4 6
M  V30 11 1 9 10
M  V30 12 1 5 11
M  V30 13 1 6 12
M  V30 14 1 7 13
M  V30 15 1 7 14
M  V30 16 1 7 15
M  V30 17 1 8 16
M  V30 18 1 9 17
M  V30 19 1 10 18
M  V30 END BOND
M  V30 END CTAB
M  END
>  <Structure No>
5878

>  <LogS>
-1.9598

>  <MMFF94 Energy>
10.104

$$$$
Compound 5879
Actelion Java MolfileCreator 2.0

  0  0  0  0  0  0              0 V3000
M  V30 BEGIN CTAB
M  V30 COUNTS 18 19 0 0 0
M  V30 BEGIN ATOM
M  V30 1 S 0.3387 0.5929 -1.7795 0
M  V30 2 C 1.4566 -0.3368 -0.9129 0
M  V30 3 C -0.9132 0.1619 -0.7478 0
M  V30 4 S 3.188 -0.479 -1.3395 0
M  V30 5 N 0.8988 -0.9726 0.1452 0
M  V30 6 C -0.4253 -0.6887 0.2323 0
M  V30 7 C -2.2506 0.5472 -0.7939 0
M  V30 8 C 3.6763 0.9341 -0.3033 0
M  V30 9 C -1.2771 -1.1913 1.2176 0
M  V30 10 C -3.1165 0.0479 0.1922 0
M  V30 11 C -2.6321 -0.8175 1.1936 0
M  V30 12 H -2.6133 1.2122 -1.5667 0
M  V30 13 H 3.4134 0.7378 0.7572 0
M  V30 14 H 4.7731 1.0788 -0.3811 0
M  V30 15 H 3.1659 1.8565 -0.6514 0
M  V30 16 H -0.9038 -1.8558 1.9861 0
M  V30 17 H -4.1616 0.3293 0.183 0
M  V30 18 H -3.3077 -1.1969 1.9492 0
M  V30 END ATOM
M  V30 BEGIN BOND
M  V30 1 1 1 2
M  V30 2 1 1 3
M  V30 3 1 2 4
M  V30 4 2 2 5
M  V30 5 2 3 6
M  V30 6 1 3 7
M  V30 7 1 4 8
M  V30 8 1 6 9
M  V30 9 2 7 10
M  V30 10 2 9 11
M  V30 11 1 5 6
M  V30 12 1 10 11
M  V30 13 1 7 12
M  V30 14 1 8 13
M  V30 15 1 8 14
M  V30 16 1 8 15
M  V30 17 1 9 16
M  V30 18 1 10 17
M  V30 19 1 11 18
M  V30 END BOND
M  V30 END CTAB
M  END
>  <Structure No>
5879

>  <LogS>
-3.1614

>  <MMFF94 Energy>
5.9468

$$$$
Compound 5880
Actelion Java MolfileCreator 2.0

  0  0  0  0  0  0              0 V3000
M  V30 BEGIN CTAB
M  V30 COUNTS 12 12 0 0 0
M  V30 BEGIN ATOM
M  V30 1 S 1.8717 1.3832 0.0813 0
M  V30 2 C 0.1972 1.4029 0.2211 0
M  V30 3 C 2.0292 -0.2636 -0.2143 0
M  V30 4 C -0.2631 0.1057 0.025 0
M  V30 5 C 0.7604 -0.8259 -0.205 0
M  V30 6 C -1.7054 -0.2739 0.1327 0
M  V30 7 H -0.4123 2.2714 0.4327 0
M  V30 8 H 2.9565 -0.7963 -0.3747 0
M  V30 9 H 0.5837 -1.8827 -0.3576 0
M  V30 10 H -1.9385 -0.5451 1.1834 0
M  V30 11 H -2.3521 0.5743 -0.1763 0
M  V30 12 H -1.9249 -1.1416 -0.5245 0
M  V30 END ATOM
M  V30 BEGIN BOND
M  V30 1 1 1 2
M  V30 2 1 1 3
M  V30 3 2 2 4
M  V30 4 2 3 5
M  V30 5 1 4 6
M  V30 6 1 4 5
M  V30 7 1 2 7
M  V30 8 1 3 8
M  V30 9 1 5 9
M  V30 10 1 6 10
M  V30 11 1 6 11
M  V30 12 1 6 12
M  V30 END BOND
M  V30 END CTAB
M  END
>  <Structure No>
5880

>  <LogS>
-2.3899

>  <MMFF94 Energy>
6.278

$$$$
Compound 5881
Actelion Java MolfileCreator 2.0

  0  0  0  0  0  0              0 V3000
M  V30 BEGIN CTAB
M  V30 COUNTS 15 15 0 0 0
M  V30 BEGIN ATOM
M  V30 1 S 0.6455 -1.1299 1.2914 0
M  V30 2 C 0.0276 -0.424 -0.1039 0
M  V30 3 C 2.2299 -0.6101 1.0709 0
M  V30 4 C 1.0537 0.2498 -0.7535 0
M  V30 5 C -1.411 -0.4373 -0.5158 0
M  V30 6 C 2.2859 0.1377 -0.0984 0
M  V30 7 C -2.1498 0.7608 0.0688 0
M  V30 8 H 3.0627 -0.8137 1.7302 0
M  V30 9 H 0.9164 0.8109 -1.6685 0
M  V30 10 H -1.8893 -1.375 -0.1605 0
M  V30 11 H -1.4826 -0.411 -1.6244 0
M  V30 12 H 3.1944 0.5976 -0.4636 0
M  V30 13 H -2.1064 0.7364 1.1788 0
M  V30 14 H -3.2141 0.731 -0.246 0
M  V30 15 H -1.6974 1.708 -0.2951 0
M  V30 END ATOM
M  V30 BEGIN BOND
M  V30 1 1 1 2
M  V30 2 1 1 3
M  V30 3 2 2 4
M  V30 4 1 2 5
M  V30 5 2 3 6
M  V30 6 1 5 7
M  V30 7 1 4 6
M  V30 8 1 3 8
M  V30 9 1 4 9
M  V30 10 1 5 10
M  V30 11 1 5 11
M  V30 12 1 6 12
M  V30 13 1 7 13
M  V30 14 1 7 14
M  V30 15 1 7 15
M  V30 END BOND
M  V30 END CTAB
M  END
>  <Structure No>
5881

>  <LogS>
-2.5846

>  <MMFF94 Energy>
3.6938

$$$$
Compound 5882
Actelion Java MolfileCreator 2.0

  0  0  0  0  0  0              0 V3000
M  V30 BEGIN CTAB
M  V30 COUNTS 12 12 0 0 0
M  V30 BEGIN ATOM
M  V30 1 S 2.9797 0.3218 0.0 0
M  V30 2 C 1.3544 0.151 -0.0093 0
M  V30 3 N 0.6855 -1.0088 0.4275 0
M  V30 4 N 0.4641 1.1472 -0.4554 0
M  V30 5 C -0.7455 -0.7906 0.2703 0
M  V30 6 C -0.8922 0.6362 -0.3141 0
M  V30 7 H 1.1351 -1.8745 0.7997 0
M  V30 8 H 0.7281 2.0881 -0.8232 0
M  V30 9 H -1.1665 -1.547 -0.426 0
M  V30 10 H -1.2479 -0.8656 1.2584 0
M  V30 11 H -1.3877 0.6064 -1.3081 0
M  V30 12 H -1.4691 1.288 0.3764 0
M  V30 END ATOM
M  V30 BEGIN BOND
M  V30 1 2 1 2
M  V30 2 1 2 3
M  V30 3 1 2 4
M  V30 4 1 3 5
M  V30 5 1 4 6
M  V30 6 1 5 6
M  V30 7 1 3 7
M  V30 8 1 4 8
M  V30 9 1 5 9
M  V30 10 1 5 10
M  V30 11 1 6 11
M  V30 12 1 6 12
M  V30 END BOND
M  V30 END CTAB
M  END
>  <Structure No>
5882

>  <LogS>
-0.7083

>  <MMFF94 Energy>
-43.1

$$$$
Compound 5883
Actelion Java MolfileCreator 2.0

  0  0  0  0  0  0              0 V3000
M  V30 BEGIN CTAB
M  V30 COUNTS 6 5 0 0 0
M  V30 BEGIN ATOM
M  V30 1 F 1.2444 1.1666 0.1554 0
M  V30 2 C 0.5802 0.0285 -0.1744 0
M  V30 3 F 1.2322 -0.9636 -0.8344 0
M  V30 4 C -0.7041 -0.1137 0.1474 0
M  V30 5 H -1.2279 0.677 0.6747 0
M  V30 6 H -1.2375 -1.0218 -0.1146 0
M  V30 END ATOM
M  V30 BEGIN BOND
M  V30 1 1 1 2
M  V30 2 1 2 3
M  V30 3 2 2 4
M  V30 4 1 4 5
M  V30 5 1 4 6
M  V30 END BOND
M  V30 END CTAB
M  END
>  <Structure No>
5883

>  <LogS>
-0.7061

>  <MMFF94 Energy>
-7.5225

$$$$
Compound 5884
Actelion Java MolfileCreator 2.0

  0  0  0  0  0  0              0 V3000
M  V30 BEGIN CTAB
M  V30 COUNTS 11 11 0 0 0
M  V30 BEGIN ATOM
M  V30 1 Cl 2.4136 -1.8099 0.603 0
M  V30 2 C 1.04 -0.772 0.2588 0
M  V30 3 C 1.0514 0.6788 0.2959 0
M  V30 4 C -0.174 -1.1842 -0.0765 0
M  V30 5 Cl 2.4411 1.6759 0.6923 0
M  V30 6 C -0.1558 1.1269 -0.0175 0
M  V30 7 Cl -0.65 -2.8677 -0.2436 0
M  V30 8 C -1.0835 -0.015 -0.2932 0
M  V30 9 Cl -0.6049 2.8241 -0.0981 0
M  V30 10 Cl -2.4396 -0.0338 0.8635 0
M  V30 11 Cl -1.6785 0.0326 -1.9727 0
M  V30 END ATOM
M  V30 BEGIN BOND
M  V30 1 1 1 2
M  V30 2 1 2 3
M  V30 3 2 2 4
M  V30 4 1 3 5
M  V30 5 2 3 6
M  V30 6 1 4 7
M  V30 7 1 4 8
M  V30 8 1 6 9
M  V30 9 1 8 10
M  V30 10 1 8 11
M  V30 11 1 6 8
M  V30 END BOND
M  V30 END CTAB
M  END
>  <Structure No>
5884

>  <LogS>
-5.1805

>  <MMFF94 Energy>
21.581

$$$$
Compound 5885
Actelion Java MolfileCreator 2.0

  0  0  0  0  0  0              0 V3000
M  V30 BEGIN CTAB
M  V30 COUNTS 10 9 0 0 0
M  V30 BEGIN ATOM
M  V30 1 Cl -2.0462 0.3067 1.5344 0
M  V30 2 C -1.3062 1.0526 0.1217 0
M  V30 3 Cl -1.9572 2.604 -0.3896 0
M  V30 4 C -0.2709 0.4846 -0.5177 0
M  V30 5 Cl 0.4726 1.2689 -1.9098 0
M  V30 6 C 0.2617 -0.8288 -0.1095 0
M  V30 7 Cl -0.7407 -2.2457 -0.4153 0
M  V30 8 C 1.4788 -0.9521 0.4445 0
M  V30 9 Cl 2.4868 0.4491 0.7909 0
M  V30 10 Cl 2.1212 -2.5244 0.9 0
M  V30 END ATOM
M  V30 BEGIN BOND
M  V30 1 1 1 2
M  V30 2 1 2 3
M  V30 3 2 2 4
M  V30 4 1 4 5
M  V30 5 1 4 6
M  V30 6 1 6 7
M  V30 7 2 6 8
M  V30 8 1 8 9
M  V30 9 1 8 10
M  V30 END BOND
M  V30 END CTAB
M  END
>  <Structure No>
5885

>  <LogS>
-4.9111

>  <MMFF94 Energy>
18.104

$$$$
Compound 5886
Actelion Java MolfileCreator 2.0

  0  0  0  0  0  0              0 V3000
M  V30 BEGIN CTAB
M  V30 COUNTS 21 22 0 0 0
M  V30 BEGIN ATOM
M  V30 1 C 0.0 -0.2374 0.1582 0
M  V30 2 C -0.9296 0.7533 -0.2596 0
M  V30 3 C 1.3297 -0.1966 -0.3375 0
M  V30 4 C -0.4327 -1.235 1.0582 0
M  V30 5 C -0.5301 1.7569 -1.1525 0
M  V30 6 C -2.2482 0.7269 0.2215 0
M  V30 7 C 1.6992 0.8228 -1.2317 0
M  V30 8 C 2.362 -1.218 0.0674 0
M  V30 9 C -1.7487 -1.246 1.5271 0
M  V30 10 C 0.7769 1.7886 -1.6337 0
M  V30 11 C -2.653 -0.2692 1.1107 0
M  V30 12 H 0.2354 -2.0109 1.4067 0
M  V30 13 H -1.2296 2.5176 -1.4783 0
M  V30 14 H -2.9656 1.4771 -0.09 0
M  V30 15 H 2.7079 0.8732 -1.6226 0
M  V30 16 H 2.0245 -2.2327 -0.2308 0
M  V30 17 H 2.5136 -1.184 1.1668 0
M  V30 18 H 3.3428 -1.0281 -0.4181 0
M  V30 19 H -2.0689 -2.0162 2.2171 0
M  V30 20 H 1.0781 2.567 -2.323 0
M  V30 21 H -3.671 -0.2841 1.4782 0
M  V30 END ATOM
M  V30 BEGIN BOND
M  V30 1 1 1 2
M  V30 2 1 1 3
M  V30 3 2 1 4
M  V30 4 1 2 5
M  V30 5 2 2 6
M  V30 6 2 3 7
M  V30 7 1 3 8
M  V30 8 1 4 9
M  V30 9 2 5 10
M  V30 10 1 6 11
M  V30 11 1 7 10
M  V30 12 2 9 11
M  V30 13 1 4 12
M  V30 14 1 5 13
M  V30 15 1 6 14
M  V30 16 1 7 15
M  V30 17 1 8 16
M  V30 18 1 8 17
M  V30 19 1 8 18
M  V30 20 1 9 19
M  V30 21 1 10 20
M  V30 22 1 11 21
M  V30 END BOND
M  V30 END CTAB
M  END
>  <Structure No>
5886

>  <LogS>
-3.7413

>  <MMFF94 Energy>
35.871

$$$$
Compound 5887
Actelion Java MolfileCreator 2.0

  0  0  0  0  0  0              0 V3000
M  V30 BEGIN CTAB
M  V30 COUNTS 18 19 0 0 0
M  V30 BEGIN ATOM
M  V30 1 Cl -1.1412 3.1817 -0.1629 0
M  V30 2 C -1.1623 1.4299 0.0295 0
M  V30 3 C 0.0116 0.6465 -0.0522 0
M  V30 4 C -2.3954 0.8128 0.2713 0
M  V30 5 C -0.0802 -0.7613 0.1132 0
M  V30 6 C 1.274 1.2241 -0.2936 0
M  V30 7 C -2.4772 -0.5709 0.4325 0
M  V30 8 C -1.3271 -1.3568 0.3545 0
M  V30 9 C 1.0766 -1.5524 0.0346 0
M  V30 10 C 2.416 0.4221 -0.3689 0
M  V30 11 C 2.318 -0.9603 -0.2054 0
M  V30 12 H -3.2975 1.4087 0.3349 0
M  V30 13 H 1.3894 2.2917 -0.4255 0
M  V30 14 H -3.4366 -1.0362 0.6191 0
M  V30 15 H -1.4119 -2.4295 0.4827 0
M  V30 16 H 1.0205 -2.6275 0.159 0
M  V30 17 H 3.3814 0.875 -0.5549 0
M  V30 18 H 3.2068 -1.575 -0.265 0
M  V30 END ATOM
M  V30 BEGIN BOND
M  V30 1 1 1 2
M  V30 2 1 2 3
M  V30 3 2 2 4
M  V30 4 1 3 5
M  V30 5 2 3 6
M  V30 6 1 4 7
M  V30 7 1 5 8
M  V30 8 2 5 9
M  V30 9 1 6 10
M  V30 10 1 9 11
M  V30 11 2 7 8
M  V30 12 2 10 11
M  V30 13 1 4 12
M  V30 14 1 6 13
M  V30 15 1 7 14
M  V30 16 1 8 15
M  V30 17 1 9 16
M  V30 18 1 10 17
M  V30 19 1 11 18
M  V30 END BOND
M  V30 END CTAB
M  END
>  <Structure No>
5887

>  <LogS>
-3.9706

>  <MMFF94 Energy>
37.442

$$$$
Compound 5888
Actelion Java MolfileCreator 2.0

  0  0  0  0  0  0              0 V3000
M  V30 BEGIN CTAB
M  V30 COUNTS 21 22 0 0 0
M  V30 BEGIN ATOM
M  V30 1 C -0.4746 -0.5537 -0.1581 0
M  V30 2 C -0.818 0.7702 0.209 0
M  V30 3 C 0.8724 -0.8932 -0.3564 0
M  V30 4 C -1.486 -1.514 -0.3176 0
M  V30 5 C 0.1921 1.7282 0.3752 0
M  V30 6 C -2.1658 1.1087 0.4078 0
M  V30 7 C 1.8771 0.0752 -0.2057 0
M  V30 8 C -2.8243 -1.1636 -0.117 0
M  V30 9 C 1.5306 1.3803 0.1755 0
M  V30 10 C -3.1631 0.1431 0.2442 0
M  V30 11 C 3.3187 -0.3012 -0.3803 0
M  V30 12 H 1.1415 -1.9076 -0.6284 0
M  V30 13 H -1.2423 -2.532 -0.5972 0
M  V30 14 H -0.0524 2.7439 0.663 0
M  V30 15 H -2.4467 2.1166 0.6894 0
M  V30 16 H -3.6011 -1.9069 -0.2415 0
M  V30 17 H 2.2985 2.1307 0.3176 0
M  V30 18 H -4.2011 0.4081 0.3983 0
M  V30 19 H 3.4242 -1.1052 -1.1394 0
M  V30 20 H 3.9141 0.5722 -0.7216 0
M  V30 21 H 3.7259 -0.6609 0.5875 0
M  V30 END ATOM
M  V30 BEGIN BOND
M  V30 1 1 1 2
M  V30 2 1 1 3
M  V30 3 2 1 4
M  V30 4 1 2 5
M  V30 5 2 2 6
M  V30 6 2 3 7
M  V30 7 1 4 8
M  V30 8 2 5 9
M  V30 9 1 6 10
M  V30 10 1 7 11
M  V30 11 1 7 9
M  V30 12 2 8 10
M  V30 13 1 3 12
M  V30 14 1 4 13
M  V30 15 1 5 14
M  V30 16 1 6 15
M  V30 17 1 8 16
M  V30 18 1 9 17
M  V30 19 1 10 18
M  V30 20 1 11 19
M  V30 21 1 11 20
M  V30 22 1 11 21
M  V30 END BOND
M  V30 END CTAB
M  END
>  <Structure No>
5888

>  <LogS>
-3.762

>  <MMFF94 Energy>
33.219

$$$$
Compound 5889
Actelion Java MolfileCreator 2.0

  0  0  0  0  0  0              0 V3000
M  V30 BEGIN CTAB
M  V30 COUNTS 18 19 0 0 0
M  V30 BEGIN ATOM
M  V30 1 Cl 3.9964 1.4667 0.1628 0
M  V30 2 C 2.4498 0.6388 0.1403 0
M  V30 3 C 1.2649 1.375 0.0314 0
M  V30 4 C 2.4038 -0.7562 0.2313 0
M  V30 5 C 0.0254 0.7168 0.0131 0
M  V30 6 C 1.1755 -1.4233 0.2142 0
M  V30 7 C -0.0197 -0.6964 0.1053 0
M  V30 8 C -1.1704 1.4438 -0.0956 0
M  V30 9 C -1.2595 -1.3543 0.087 0
M  V30 10 C -2.3984 0.7759 -0.1127 0
M  V30 11 C -2.4428 -0.6179 -0.0218 0
M  V30 12 H 1.3131 2.4555 -0.0382 0
M  V30 13 H 3.3208 -1.3254 0.3157 0
M  V30 14 H 1.1598 -2.5044 0.2857 0
M  V30 15 H -1.1553 2.525 -0.1671 0
M  V30 16 H -1.3131 -2.4343 0.1566 0
M  V30 17 H -3.3184 1.3403 -0.1968 0
M  V30 18 H -3.397 -1.1289 -0.0355 0
M  V30 END ATOM
M  V30 BEGIN BOND
M  V30 1 1 1 2
M  V30 2 2 2 3
M  V30 3 1 2 4
M  V30 4 1 3 5
M  V30 5 2 4 6
M  V30 6 1 5 7
M  V30 7 2 5 8
M  V30 8 2 7 9
M  V30 9 1 8 10
M  V30 10 1 9 11
M  V30 11 1 6 7
M  V30 12 2 10 11
M  V30 13 1 3 12
M  V30 14 1 4 13
M  V30 15 1 6 14
M  V30 16 1 8 15
M  V30 17 1 9 16
M  V30 18 1 10 17
M  V30 19 1 11 18
M  V30 END BOND
M  V30 END CTAB
M  END
>  <Structure No>
5889

>  <LogS>
-4.143

>  <MMFF94 Energy>
26.372

$$$$
Compound 5890
Actelion Java MolfileCreator 2.0

  0  0  0  0  0  0              0 V3000
M  V30 BEGIN CTAB
M  V30 COUNTS 20 21 0 0 0
M  V30 BEGIN ATOM
M  V30 1 N 1.3434 2.3716 0.632 0
M  V30 2 C 1.1153 0.9574 0.5224 0
M  V30 3 C -0.0964 0.4114 0.0134 0
M  V30 4 C 2.1422 0.0904 0.9288 0
M  V30 5 C -0.2259 -1.0025 -0.0925 0
M  V30 6 C -1.1888 1.2163 -0.3811 0
M  V30 7 C 1.998 -1.2915 0.8236 0
M  V30 8 C 0.824 -1.8375 0.3121 0
M  V30 9 C -1.408 -1.5669 -0.5977 0
M  V30 10 C -2.3579 0.6358 -0.8802 0
M  V30 11 C -2.4662 -0.7489 -0.9911 0
M  V30 12 H 2.2136 2.7282 1.0866 0
M  V30 13 H 0.7169 3.0896 0.2131 0
M  V30 14 H 3.0683 0.4909 1.3222 0
M  V30 15 H -1.1719 2.2914 -0.304 0
M  V30 16 H 2.8035 -1.9429 1.1375 0
M  V30 17 H 0.7348 -2.9149 0.2369 0
M  V30 18 H -1.5144 -2.6418 -0.6851 0
M  V30 19 H -3.1866 1.2649 -1.1796 0
M  V30 20 H -3.3757 -1.1903 -1.3783 0
M  V30 END ATOM
M  V30 BEGIN BOND
M  V30 1 1 1 2
M  V30 2 1 2 3
M  V30 3 2 2 4
M  V30 4 1 3 5
M  V30 5 2 3 6
M  V30 6 1 4 7
M  V30 7 1 5 8
M  V30 8 2 5 9
M  V30 9 1 6 10
M  V30 10 1 9 11
M  V30 11 2 7 8
M  V30 12 2 10 11
M  V30 13 1 1 12
M  V30 14 1 1 13
M  V30 15 1 4 14
M  V30 16 1 6 15
M  V30 17 1 7 16
M  V30 18 1 8 17
M  V30 19 1 9 18
M  V30 20 1 10 19
M  V30 21 1 11 20
M  V30 END BOND
M  V30 END CTAB
M  END
>  <Structure No>
5890

>  <LogS>
-1.9255

>  <MMFF94 Energy>
37.951

$$$$
Compound 5891
Actelion Java MolfileCreator 2.0

  0  0  0  0  0  0              0 V3000
M  V30 BEGIN CTAB
M  V30 COUNTS 19 20 0 0 0
M  V30 BEGIN ATOM
M  V30 1 O -3.4985 1.0326 -0.2382 0
M  V30 2 C -2.2515 0.4332 -0.076 0
M  V30 3 C -1.0749 1.165 -0.2893 0
M  V30 4 C -2.1784 -0.9111 0.3033 0
M  V30 5 C 0.1768 0.5527 -0.1236 0
M  V30 6 C -0.9374 -1.5317 0.4715 0
M  V30 7 C 0.2462 -0.809 0.2607 0
M  V30 8 C 1.3615 1.2757 -0.3344 0
M  V30 9 C 1.4984 -1.421 0.4263 0
M  V30 10 C 2.6021 0.654 -0.1659 0
M  V30 11 C 2.6703 -0.6893 0.213 0
M  V30 12 H -3.5877 2.0042 -0.512 0
M  V30 13 H -1.1396 2.2062 -0.583 0
M  V30 14 H -3.0868 -1.4763 0.4681 0
M  V30 15 H -0.9032 -2.5739 0.7657 0
M  V30 16 H 1.3279 2.318 -0.6285 0
M  V30 17 H 1.5703 -2.4614 0.7199 0
M  V30 18 H 3.5131 1.215 -0.3295 0
M  V30 19 H 3.634 -1.1648 0.3419 0
M  V30 END ATOM
M  V30 BEGIN BOND
M  V30 1 1 1 2
M  V30 2 2 2 3
M  V30 3 1 2 4
M  V30 4 1 3 5
M  V30 5 2 4 6
M  V30 6 1 5 7
M  V30 7 2 5 8
M  V30 8 2 7 9
M  V30 9 1 8 10
M  V30 10 1 9 11
M  V30 11 1 6 7
M  V30 12 2 10 11
M  V30 13 1 1 12
M  V30 14 1 3 13
M  V30 15 1 4 14
M  V30 16 1 6 15
M  V30 17 1 8 16
M  V30 18 1 9 17
M  V30 19 1 10 18
M  V30 20 1 11 19
M  V30 END BOND
M  V30 END CTAB
M  END
>  <Structure No>
5891

>  <LogS>
-2.2809

>  <MMFF94 Energy>
19.279

$$$$
Compound 5892
Actelion Java MolfileCreator 2.0

  0  0  0  0  0  0              0 V3000
M  V30 BEGIN CTAB
M  V30 COUNTS 20 21 0 0 0
M  V30 BEGIN ATOM
M  V30 1 S 3.0134 3.095 -1.058 0
M  V30 2 C 2.7547 1.8331 -0.0899 0
M  V30 3 N 2.5498 0.8356 0.6738 0
M  V30 4 C 1.5111 -0.1242 0.4313 0
M  V30 5 C 0.1508 0.2392 0.2302 0
M  V30 6 C 1.8732 -1.4771 0.4022 0
M  V30 7 C -0.7978 -0.7749 -0.0763 0
M  V30 8 C -0.3028 1.5687 0.3647 0
M  V30 9 C 0.931 -2.4635 0.1125 0
M  V30 10 C -0.3947 -2.1161 -0.1399 0
M  V30 11 C -2.1424 -0.4365 -0.2969 0
M  V30 12 C -1.6456 1.8874 0.1461 0
M  V30 13 C -2.5601 0.8904 -0.1921 0
M  V30 14 H 2.9024 -1.7648 0.5779 0
M  V30 15 H 0.3599 2.3678 0.6626 0
M  V30 16 H 1.2324 -3.5024 0.0758 0
M  V30 17 H -1.1092 -2.8981 -0.3685 0
M  V30 18 H -2.872 -1.2 -0.5406 0
M  V30 19 H -1.9802 2.9119 0.2481 0
M  V30 20 H -3.5991 1.1447 -0.3587 0
M  V30 END ATOM
M  V30 BEGIN BOND
M  V30 1 2 1 2
M  V30 2 2 2 3
M  V30 3 1 3 4
M  V30 4 1 4 5
M  V30 5 2 4 6
M  V30 6 1 5 7
M  V30 7 2 5 8
M  V30 8 1 6 9
M  V30 9 1 7 10
M  V30 10 2 7 11
M  V30 11 1 8 12
M  V30 12 1 11 13
M  V30 13 2 9 10
M  V30 14 2 12 13
M  V30 15 1 6 14
M  V30 16 1 8 15
M  V30 17 1 9 16
M  V30 18 1 10 17
M  V30 19 1 11 18
M  V30 20 1 12 19
M  V30 21 1 13 20
M  V30 END BOND
M  V30 END CTAB
M  END
>  <Structure No>
5892

>  <LogS>
-4.6022

>  <MMFF94 Energy>
35.567

$$$$
Compound 5893
Actelion Java MolfileCreator 2.0

  0  0  0  0  0  0              0 V3000
M  V30 BEGIN CTAB
M  V30 COUNTS 24 25 0 0 0
M  V30 BEGIN ATOM
M  V30 1 C 0.712 0.3164 0.0 0
M  V30 2 C -0.7118 0.3992 -0.0227 0
M  V30 3 C 1.3397 -0.9415 0.1898 0
M  V30 4 C 1.4692 1.4968 -0.168 0
M  V30 5 C -1.4868 -0.7772 0.1446 0
M  V30 6 C -1.3216 1.6589 -0.2125 0
M  V30 7 C 0.5491 -2.0867 0.3524 0
M  V30 8 C 2.8408 -1.0894 0.2228 0
M  V30 9 C 0.8401 2.7273 -0.3537 0
M  V30 10 C -0.8397 -2.0059 0.3303 0
M  V30 11 C -2.9952 -0.7501 0.1295 0
M  V30 12 C -0.5487 2.808 -0.3758 0
M  V30 13 H 2.5505 1.4833 -0.1579 0
M  V30 14 H -2.3971 1.7708 -0.2369 0
M  V30 15 H 1.0092 -3.0563 0.4986 0
M  V30 16 H 3.2739 -0.7496 -0.7413 0
M  V30 17 H 3.1494 -2.1448 0.3804 0
M  V30 18 H 3.2605 -0.4853 1.0544 0
M  V30 19 H 1.4337 3.6235 -0.4811 0
M  V30 20 H -1.4135 -2.9154 0.4599 0
M  V30 21 H -3.3686 -0.0999 0.9485 0
M  V30 22 H -3.3553 -0.3643 -0.8472 0
M  V30 23 H -3.4289 -1.7625 0.2754 0
M  V30 24 H -1.0303 3.7668 -0.5203 0
M  V30 END ATOM
M  V30 BEGIN BOND
M  V30 1 1 1 2
M  V30 2 1 1 3
M  V30 3 2 1 4
M  V30 4 1 2 5
M  V30 5 2 2 6
M  V30 6 2 3 7
M  V30 7 1 3 8
M  V30 8 1 4 9
M  V30 9 2 5 10
M  V30 10 1 5 11
M  V30 11 1 6 12
M  V30 12 1 7 10
M  V30 13 2 9 12
M  V30 14 1 4 13
M  V30 15 1 6 14
M  V30 16 1 7 15
M  V30 17 1 8 16
M  V30 18 1 8 17
M  V30 19 1 8 18
M  V30 20 1 9 19
M  V30 21 1 10 20
M  V30 22 1 11 21
M  V30 23 1 11 22
M  V30 24 1 11 23
M  V30 25 1 12 24
M  V30 END BOND
M  V30 END CTAB
M  END
>  <Structure No>
5893

>  <LogS>
-4.1369

>  <MMFF94 Energy>
40.997

$$$$
Compound 5894
Actelion Java MolfileCreator 2.0

  0  0  0  0  0  0              0 V3000
M  V30 BEGIN CTAB
M  V30 COUNTS 24 25 0 0 0
M  V30 BEGIN ATOM
M  V30 1 C 0.7907 0.3952 0.1581 0
M  V30 2 C 0.5135 -0.9887 0.0 0
M  V30 3 C -0.2777 1.3276 0.114 0
M  V30 4 C 2.1293 0.8005 0.3506 0
M  V30 5 C -0.8047 -1.4233 -0.1922 0
M  V30 6 C 1.5612 -1.9231 0.0341 0
M  V30 7 C -1.59 0.8635 -0.0801 0
M  V30 8 C -0.0462 2.8101 0.2654 0
M  V30 9 C 3.1592 -0.1428 0.3836 0
M  V30 10 C -1.8592 -0.5039 -0.2165 0
M  V30 11 C 2.8765 -1.4991 0.2257 0
M  V30 12 C -3.2632 -0.9746 -0.4613 0
M  V30 13 H 2.393 1.842 0.4762 0
M  V30 14 H -1.0138 -2.4794 -0.3221 0
M  V30 15 H 1.3623 -2.9814 -0.0862 0
M  V30 16 H -2.411 1.5697 -0.1249 0
M  V30 17 H 0.4145 3.02 1.2536 0
M  V30 18 H 0.6244 3.1707 -0.5425 0
M  V30 19 H -0.9945 3.3854 0.2031 0
M  V30 20 H 4.1817 0.1801 0.5319 0
M  V30 21 H 3.6795 -2.2244 0.2518 0
M  V30 22 H -3.4641 -0.9837 -1.5528 0
M  V30 23 H -3.9948 -0.3028 0.0362 0
M  V30 24 H -3.4104 -1.9989 -0.0571 0
M  V30 END ATOM
M  V30 BEGIN BOND
M  V30 1 1 1 2
M  V30 2 1 1 3
M  V30 3 2 1 4
M  V30 4 1 2 5
M  V30 5 2 2 6
M  V30 6 2 3 7
M  V30 7 1 3 8
M  V30 8 1 4 9
M  V30 9 2 5 10
M  V30 10 1 6 11
M  V30 11 1 10 12
M  V30 12 1 7 10
M  V30 13 2 9 11
M  V30 14 1 4 13
M  V30 15 1 5 14
M  V30 16 1 6 15
M  V30 17 1 7 16
M  V30 18 1 8 17
M  V30 19 1 8 18
M  V30 20 1 8 19
M  V30 21 1 9 20
M  V30 22 1 11 21
M  V30 23 1 12 22
M  V30 24 1 12 23
M  V30 25 1 12 24
M  V30 END BOND
M  V30 END CTAB
M  END
>  <Structure No>
5894

>  <LogS>
-4.2907

>  <MMFF94 Energy>
37.997

$$$$
Compound 5895
Actelion Java MolfileCreator 2.0

  0  0  0  0  0  0              0 V3000
M  V30 BEGIN CTAB
M  V30 COUNTS 24 25 0 0 0
M  V30 BEGIN ATOM
M  V30 1 C -0.079 0.5531 -0.474 0
M  V30 2 C 0.1043 -0.5697 0.3674 0
M  V30 3 C -1.3773 0.9608 -0.8175 0
M  V30 4 C 1.0393 1.2522 -0.9509 0
M  V30 5 C 1.4026 -0.9768 0.7118 0
M  V30 6 C -1.0143 -1.2606 0.8553 0
M  V30 7 C -2.492 0.2534 -0.3415 0
M  V30 8 C 2.328 0.8392 -0.6028 0
M  V30 9 C 2.5178 -0.2842 0.2156 0
M  V30 10 C -2.3031 -0.8473 0.5077 0
M  V30 11 C -3.8787 0.7157 -0.679 0
M  V30 12 C 3.9025 -0.6987 0.6175 0
M  V30 13 H -1.5233 1.8265 -1.454 0
M  V30 14 H 0.9171 2.119 -1.5895 0
M  V30 15 H 1.548 -1.8304 1.3643 0
M  V30 16 H -0.8928 -2.1174 1.5073 0
M  V30 17 H 3.1797 1.3967 -0.9729 0
M  V30 18 H -3.1557 -1.3873 0.901 0
M  V30 19 H -3.9009 1.1849 -1.6857 0
M  V30 20 H -4.5876 -0.1396 -0.6842 0
M  V30 21 H -4.2136 1.4588 0.0744 0
M  V30 22 H 4.1842 -0.1809 1.5581 0
M  V30 23 H 4.6361 -0.4366 -0.1742 0
M  V30 24 H 3.9509 -1.7965 0.7796 0
M  V30 END ATOM
M  V30 BEGIN BOND
M  V30 1 1 1 2
M  V30 2 1 1 3
M  V30 3 2 1 4
M  V30 4 2 2 5
M  V30 5 1 2 6
M  V30 6 2 3 7
M  V30 7 1 4 8
M  V30 8 1 5 9
M  V30 9 2 6 10
M  V30 10 1 7 11
M  V30 11 1 9 12
M  V30 12 1 7 10
M  V30 13 2 8 9
M  V30 14 1 3 13
M  V30 15 1 4 14
M  V30 16 1 5 15
M  V30 17 1 6 16
M  V30 18 1 8 17
M  V30 19 1 10 18
M  V30 20 1 11 19
M  V30 21 1 11 20
M  V30 22 1 11 21
M  V30 23 1 12 22
M  V30 24 1 12 23
M  V30 25 1 12 24
M  V30 END BOND
M  V30 END CTAB
M  END
>  <Structure No>
5895

>  <LogS>
-4.8927

>  <MMFF94 Energy>
35.306

$$$$
Compound 5896
Actelion Java MolfileCreator 2.0

  0  0  0  0  0  0              0 V3000
M  V30 BEGIN CTAB
M  V30 COUNTS 27 28 0 0 0
M  V30 BEGIN ATOM
M  V30 1 C -0.5528 0.3158 0.2369 0
M  V30 2 C -0.174 -0.8096 -0.5272 0
M  V30 3 C 0.4329 1.1585 0.7676 0
M  V30 4 C -1.9138 0.5818 0.4569 0
M  V30 5 C 1.1838 -1.0743 -0.7491 0
M  V30 6 C -1.1619 -1.6499 -1.0622 0
M  V30 7 C 1.7959 0.8937 0.5516 0
M  V30 8 C -2.8972 -0.2717 -0.0659 0
M  V30 9 C 2.1749 -0.2297 -0.2212 0
M  V30 10 C -2.514 -1.3779 -0.838 0
M  V30 11 C 2.8282 1.8233 1.135 0
M  V30 12 C -4.3508 0.0378 0.1387 0
M  V30 13 C 3.6254 -0.5471 -0.4764 0
M  V30 14 H 0.139 2.0229 1.3526 0
M  V30 15 H -2.2105 1.45 1.0348 0
M  V30 16 H 1.4706 -1.9394 -1.3363 0
M  V30 17 H -0.8892 -2.5137 -1.6567 0
M  V30 18 H -3.2631 -2.032 -1.267 0
M  V30 19 H 3.5409 1.2519 1.7654 0
M  V30 20 H 2.3639 2.6058 1.7722 0
M  V30 21 H 3.3826 2.3285 0.3168 0
M  V30 22 H -4.9555 -0.8939 0.1328 0
M  V30 23 H -4.7044 0.704 -0.6755 0
M  V30 24 H -4.5098 0.5429 1.1152 0
M  V30 25 H 4.1301 -0.7905 0.4817 0
M  V30 26 H 3.7423 -1.4156 -1.1588 0
M  V30 27 H 4.1277 0.3237 -0.9469 0
M  V30 END ATOM
M  V30 BEGIN BOND
M  V30 1 1 1 2
M  V30 2 1 1 3
M  V30 3 2 1 4
M  V30 4 1 2 5
M  V30 5 2 2 6
M  V30 6 2 3 7
M  V30 7 1 4 8
M  V30 8 2 5 9
M  V30 9 1 6 10
M  V30 10 1 7 11
M  V30 11 1 8 12
M  V30 12 1 9 13
M  V30 13 1 7 9
M  V30 14 2 8 10
M  V30 15 1 3 14
M  V30 16 1 4 15
M  V30 17 1 5 16
M  V30 18 1 6 17
M  V30 19 1 10 18
M  V30 20 1 11 19
M  V30 21 1 11 20
M  V30 22 1 11 21
M  V30 23 1 12 22
M  V30 24 1 12 23
M  V30 25 1 12 24
M  V30 26 1 13 25
M  V30 27 1 13 26
M  V30 28 1 13 27
M  V30 END BOND
M  V30 END CTAB
M  END
>  <Structure No>
5896

>  <LogS>
-5.0007

>  <MMFF94 Energy>
38.811

$$$$
Compound 5897
Actelion Java MolfileCreator 2.0

  0  0  0  0  0  0              0 V3000
M  V30 BEGIN CTAB
M  V30 COUNTS 24 25 0 0 0
M  V30 BEGIN ATOM
M  V30 1 C 0.9482 0.553 0.2369 0
M  V30 2 C 1.4726 -0.6541 -0.2857 0
M  V30 3 C -0.4277 0.6617 0.49 0
M  V30 4 C 1.8107 1.6302 0.4947 0
M  V30 5 C 0.6107 -1.7282 -0.5488 0
M  V30 6 C 2.8489 -0.7615 -0.539 0
M  V30 7 C -1.2838 -0.4219 0.2368 0
M  V30 8 C 3.1795 1.51 0.2382 0
M  V30 9 C -0.7581 -1.6103 -0.2938 0
M  V30 10 C 3.6968 0.3183 -0.2766 0
M  V30 11 C -2.7641 -0.2904 0.4777 0
M  V30 12 C -3.4671 0.2499 -0.7629 0
M  V30 13 H -0.8355 1.5867 0.8822 0
M  V30 14 H 1.4274 2.5619 0.8939 0
M  V30 15 H 0.9943 -2.6569 -0.9544 0
M  V30 16 H 3.2672 -1.6773 -0.9393 0
M  V30 17 H 3.8411 2.3429 0.4389 0
M  V30 18 H -1.4104 -2.447 -0.5114 0
M  V30 19 H 4.7576 0.2316 -0.4732 0
M  V30 20 H -3.1982 -1.2788 0.7438 0
M  V30 21 H -2.9531 0.3938 1.3335 0
M  V30 22 H -4.556 0.339 -0.5644 0
M  V30 23 H -3.0698 1.2541 -1.0245 0
M  V30 24 H -3.3171 -0.4389 -1.6216 0
M  V30 END ATOM
M  V30 BEGIN BOND
M  V30 1 1 1 2
M  V30 2 1 1 3
M  V30 3 2 1 4
M  V30 4 1 2 5
M  V30 5 2 2 6
M  V30 6 2 3 7
M  V30 7 1 4 8
M  V30 8 2 5 9
M  V30 9 1 6 10
M  V30 10 1 7 11
M  V30 11 1 11 12
M  V30 12 1 7 9
M  V30 13 2 8 10
M  V30 14 1 3 13
M  V30 15 1 4 14
M  V30 16 1 5 15
M  V30 17 1 6 16
M  V30 18 1 8 17
M  V30 19 1 9 18
M  V30 20 1 10 19
M  V30 21 1 11 20
M  V30 22 1 11 21
M  V30 23 1 12 22
M  V30 24 1 12 23
M  V30 25 1 12 24
M  V30 END BOND
M  V30 END CTAB
M  END
>  <Structure No>
5897

>  <LogS>
-4.2901

>  <MMFF94 Energy>
32.827

$$$$
Compound 5898
Actelion Java MolfileCreator 2.0

  0  0  0  0  0  0              0 V3000
M  V30 BEGIN CTAB
M  V30 COUNTS 24 25 0 0 0
M  V30 BEGIN ATOM
M  V30 1 C -0.3952 -0.158 -0.079 0
M  V30 2 C -1.4792 0.7016 0.253 0
M  V30 3 C 0.7659 0.3929 -0.6908 0
M  V30 4 C -0.5137 -1.5345 0.2171 0
M  V30 5 C -1.3922 2.0753 -0.0092 0
M  V30 6 C -2.637 0.1777 0.8499 0
M  V30 7 C 0.8253 1.7788 -0.9226 0
M  V30 8 C 1.9715 -0.4418 -1.0697 0
M  V30 9 C -1.6729 -2.0376 0.8129 0
M  V30 10 C -0.2443 2.6081 -0.5894 0
M  V30 11 C -2.7311 -1.1859 1.1262 0
M  V30 12 C 2.8756 -0.6771 0.1371 0
M  V30 13 H 0.2795 -2.2354 0.0033 0
M  V30 14 H -2.2114 2.7394 0.2409 0
M  V30 15 H -3.4687 0.8242 1.1051 0
M  V30 16 H 1.7074 2.2232 -1.3675 0
M  V30 17 H 2.5643 0.0728 -1.8575 0
M  V30 18 H 1.6621 -1.4097 -1.5151 0
M  V30 19 H -1.7501 -3.0944 1.0344 0
M  V30 20 H -0.1816 3.6717 -0.7814 0
M  V30 21 H -3.6259 -1.5833 1.5876 0
M  V30 22 H 3.7513 -1.2877 -0.168 0
M  V30 23 H 3.2406 0.2932 0.5366 0
M  V30 24 H 2.3295 -1.217 0.9388 0
M  V30 END ATOM
M  V30 BEGIN BOND
M  V30 1 1 1 2
M  V30 2 1 1 3
M  V30 3 2 1 4
M  V30 4 1 2 5
M  V30 5 2 2 6
M  V30 6 2 3 7
M  V30 7 1 3 8
M  V30 8 1 4 9
M  V30 9 2 5 10
M  V30 10 1 6 11
M  V30 11 1 8 12
M  V30 12 1 7 10
M  V30 13 2 9 11
M  V30 14 1 4 13
M  V30 15 1 5 14
M  V30 16 1 6 15
M  V30 17 1 7 16
M  V30 18 1 8 17
M  V30 19 1 8 18
M  V30 20 1 9 19
M  V30 21 1 10 20
M  V30 22 1 11 21
M  V30 23 1 12 22
M  V30 24 1 12 23
M  V30 25 1 12 24
M  V30 END BOND
M  V30 END CTAB
M  END
>  <Structure No>
5898

>  <LogS>
-4.1644

>  <MMFF94 Energy>
36.024

$$$$
Compound 5899
Actelion Java MolfileCreator 2.0

  0  0  0  0  0  0              0 V3000
M  V30 BEGIN CTAB
M  V30 COUNTS 22 23 0 0 0
M  V30 BEGIN ATOM
M  V30 1 O -2.6166 -1.5059 0.5546 0
M  V30 2 C -2.3418 -0.7286 -0.5787 0
M  V30 3 C -1.2081 0.2316 -0.2953 0
M  V30 4 C 0.1319 -0.2059 -0.1132 0
M  V30 5 C -1.504 1.6013 -0.1824 0
M  V30 6 C 1.1462 0.7532 0.157 0
M  V30 7 C 0.4939 -1.5686 -0.1888 0
M  V30 8 C -0.4993 2.5306 0.0842 0
M  V30 9 C 0.8189 2.1127 0.2506 0
M  V30 10 C 2.476 0.3397 0.3346 0
M  V30 11 C 1.8223 -1.9623 -0.0085 0
M  V30 12 C 2.8095 -1.0122 0.2507 0
M  V30 13 H -3.079 -0.9099 1.2004 0
M  V30 14 H -2.0676 -1.3951 -1.4227 0
M  V30 15 H -3.2626 -0.19 -0.9001 0
M  V30 16 H -2.5203 1.9558 -0.3031 0
M  V30 17 H -0.2375 -2.3404 -0.3824 0
M  V30 18 H -0.745 3.5819 0.1635 0
M  V30 19 H 1.5833 2.8526 0.457 0
M  V30 20 H 3.257 1.0624 0.5398 0
M  V30 21 H 2.087 -3.01 -0.0691 0
M  V30 22 H 3.8364 -1.3248 0.3895 0
M  V30 END ATOM
M  V30 BEGIN BOND
M  V30 1 1 1 2
M  V30 2 1 2 3
M  V30 3 1 3 4
M  V30 4 2 3 5
M  V30 5 1 4 6
M  V30 6 2 4 7
M  V30 7 1 5 8
M  V30 8 1 6 9
M  V30 9 2 6 10
M  V30 10 1 7 11
M  V30 11 1 10 12
M  V30 12 2 8 9
M  V30 13 2 11 12
M  V30 14 1 1 13
M  V30 15 1 2 14
M  V30 16 1 2 15
M  V30 17 1 5 16
M  V30 18 1 7 17
M  V30 19 1 8 18
M  V30 20 1 9 19
M  V30 21 1 10 20
M  V30 22 1 11 21
M  V30 23 1 12 22
M  V30 END BOND
M  V30 END CTAB
M  END
>  <Structure No>
5899

>  <LogS>
-1.7444

>  <MMFF94 Energy>
36.973

$$$$
Compound 5900
Actelion Java MolfileCreator 2.0

  0  0  0  0  0  0              0 V3000
M  V30 BEGIN CTAB
M  V30 COUNTS 22 24 0 0 0
M  V30 BEGIN ATOM
M  V30 1 O 0.0 -1.1331 0.8092 0
M  V30 2 C 1.2022 -0.5143 0.4452 0
M  V30 3 C -1.2333 -0.5927 0.4248 0
M  V30 4 C 1.1706 0.6675 -0.3177 0
M  V30 5 C 2.4287 -1.0622 0.8345 0
M  V30 6 C -1.265 0.5891 -0.3381 0
M  V30 7 C -2.4283 -1.2186 0.7937 0
M  V30 8 O -0.0627 1.2079 -0.702 0
M  V30 9 C 2.3655 1.2935 -0.6864 0
M  V30 10 C 3.6224 -0.4332 0.4637 0
M  V30 11 C -2.4915 1.1371 -0.7272 0
M  V30 12 C -3.6538 -0.6675 0.4026 0
M  V30 13 C 3.5909 0.7425 -0.2953 0
M  V30 14 C -3.6853 0.5082 -0.3564 0
M  V30 15 H 2.4563 -1.9713 1.4215 0
M  V30 16 H -2.4074 -2.1279 1.3807 0
M  V30 17 H 2.3445 2.2028 -1.2734 0
M  V30 18 H 4.572 -0.8567 0.7645 0
M  V30 19 H -2.5192 2.0462 -1.3142 0
M  V30 20 H -4.5791 -1.1513 0.6876 0
M  V30 21 H 4.5161 1.2263 -0.5802 0
M  V30 22 H -4.6349 0.9316 -0.6571 0
M  V30 END ATOM
M  V30 BEGIN BOND
M  V30 1 1 1 2
M  V30 2 1 1 3
M  V30 3 2 2 4
M  V30 4 1 2 5
M  V30 5 2 3 6
M  V30 6 1 3 7
M  V30 7 1 4 8
M  V30 8 1 4 9
M  V30 9 2 5 10
M  V30 10 1 6 11
M  V30 11 2 7 12
M  V30 12 2 9 13
M  V30 13 2 11 14
M  V30 14 1 6 8
M  V30 15 1 10 13
M  V30 16 1 12 14
M  V30 17 1 5 15
M  V30 18 1 7 16
M  V30 19 1 9 17
M  V30 20 1 10 18
M  V30 21 1 11 19
M  V30 22 1 12 20
M  V30 23 1 13 21
M  V30 24 1 14 22
M  V30 END BOND
M  V30 END CTAB
M  END
>  <Structure No>
5900

>  <LogS>
-5.3106

>  <MMFF94 Energy>
50.488

$$$$
Compound 5901
Actelion Java MolfileCreator 2.0

  0  0  0  0  0  0              0 V3000
M  V30 BEGIN CTAB
M  V30 COUNTS 22 24 0 0 0
M  V30 BEGIN ATOM
M  V30 1 Cl 2.3163 3.2274 -0.0826 0
M  V30 2 C 2.3693 1.4727 -0.1218 0
M  V30 3 C 1.187 0.7228 -0.0572 0
M  V30 4 C 3.6035 0.818 -0.2181 0
M  V30 5 O -0.059 1.3562 0.0396 0
M  V30 6 C 1.2451 -0.6831 -0.0896 0
M  V30 7 C 3.6582 -0.5796 -0.2501 0
M  V30 8 C -1.2441 0.6139 0.1045 0
M  V30 9 O 0.0596 -1.4256 -0.0246 0
M  V30 10 C 2.4802 -1.3306 -0.1859 0
M  V30 11 C -1.1842 -0.7907 0.072 0
M  V30 12 C -2.4812 1.2588 0.2009 0
M  V30 13 C -2.3618 -1.5421 0.1362 0
M  V30 14 C -3.6578 0.5041 0.2651 0
M  V30 15 C -3.5981 -0.8939 0.2327 0
M  V30 16 H 4.5205 1.3911 -0.2683 0
M  V30 17 H 4.6144 -1.0808 -0.3247 0
M  V30 18 H 2.5268 -2.4115 -0.2109 0
M  V30 19 H -2.5304 2.3398 0.2262 0
M  V30 20 H -2.319 -2.6234 0.1114 0
M  V30 21 H -4.6157 1.0023 0.3397 0
M  V30 22 H -4.5101 -1.4746 0.2825 0
M  V30 END ATOM
M  V30 BEGIN BOND
M  V30 1 1 1 2
M  V30 2 2 2 3
M  V30 3 1 2 4
M  V30 4 1 3 5
M  V30 5 1 3 6
M  V30 6 2 4 7
M  V30 7 1 5 8
M  V30 8 1 6 9
M  V30 9 2 6 10
M  V30 10 2 8 11
M  V30 11 1 8 12
M  V30 12 1 11 13
M  V30 13 2 12 14
M  V30 14 2 13 15
M  V30 15 1 7 10
M  V30 16 1 9 11
M  V30 17 1 14 15
M  V30 18 1 4 16
M  V30 19 1 7 17
M  V30 20 1 10 18
M  V30 21 1 12 19
M  V30 22 1 13 20
M  V30 23 1 14 21
M  V30 24 1 15 22
M  V30 END BOND
M  V30 END CTAB
M  END
>  <Structure No>
5901

>  <LogS>
-5.7196

>  <MMFF94 Energy>
54.101

$$$$
Compound 5902
Actelion Java MolfileCreator 2.0

  0  0  0  0  0  0              0 V3000
M  V30 BEGIN CTAB
M  V30 COUNTS 22 24 0 0 0
M  V30 BEGIN ATOM
M  V30 1 Cl -4.9685 1.9852 0.3306 0
M  V30 2 C -3.5297 0.9947 0.1692 0
M  V30 3 C -2.2644 1.5951 0.1589 0
M  V30 4 C -3.6469 -0.3963 0.0509 0
M  V30 5 C -1.1184 0.8042 0.0302 0
M  V30 6 C -2.5016 -1.1897 -0.0779 0
M  V30 7 O 0.1526 1.3919 0.0184 0
M  V30 8 C -1.2373 -0.5925 -0.0885 0
M  V30 9 C 1.3068 0.6097 -0.1099 0
M  V30 10 O -0.0831 -1.375 -0.2169 0
M  V30 11 C 1.1878 -0.7873 -0.2287 0
M  V30 12 C 2.5714 1.2069 -0.1204 0
M  V30 13 C 2.3342 -1.5778 -0.3573 0
M  V30 14 C 3.7164 0.4127 -0.2494 0
M  V30 15 C 3.598 -0.977 -0.3676 0
M  V30 16 H -2.171 2.6699 0.2502 0
M  V30 17 H -4.6239 -0.8626 0.0587 0
M  V30 18 H -2.596 -2.2641 -0.1692 0
M  V30 19 H 2.6662 2.2814 -0.0292 0
M  V30 20 H 2.2459 -2.6529 -0.4489 0
M  V30 21 H 4.6955 0.8741 -0.2576 0
M  V30 22 H 4.4857 -1.5881 -0.4671 0
M  V30 END ATOM
M  V30 BEGIN BOND
M  V30 1 1 1 2
M  V30 2 2 2 3
M  V30 3 1 2 4
M  V30 4 1 3 5
M  V30 5 2 4 6
M  V30 6 1 5 7
M  V30 7 2 5 8
M  V30 8 1 7 9
M  V30 9 1 8 10
M  V30 10 2 9 11
M  V30 11 1 9 12
M  V30 12 1 11 13
M  V30 13 2 12 14
M  V30 14 2 13 15
M  V30 15 1 6 8
M  V30 16 1 10 11
M  V30 17 1 14 15
M  V30 18 1 3 16
M  V30 19 1 4 17
M  V30 20 1 6 18
M  V30 21 1 12 19
M  V30 22 1 13 20
M  V30 23 1 14 21
M  V30 24 1 15 22
M  V30 END BOND
M  V30 END CTAB
M  END
>  <Structure No>
5902

>  <LogS>
-5.8359

>  <MMFF94 Energy>
43.511

$$$$
Compound 5903
Actelion Java MolfileCreator 2.0

  0  0  0  0  0  0              0 V3000
M  V30 BEGIN CTAB
M  V30 COUNTS 17 17 0 0 0
M  V30 BEGIN ATOM
M  V30 1 O -1.3538 2.6294 -1.1148 0
M  V30 2 N -1.416 1.6468 -0.3467 0 CHG=1
M  V30 3 O -2.5298 1.4998 0.4471 0 CHG=-1
M  V30 4 C -0.2687 0.7945 -0.1698 0
M  V30 5 C -0.402 -0.5804 0.1576 0
M  V30 6 C 1.0204 1.337 -0.3287 0
M  V30 7 C 0.7535 -1.3551 0.3647 0
M  V30 8 C -1.7484 -1.2411 0.2868 0
M  V30 9 C 2.1555 0.5484 -0.135 0
M  V30 10 C 2.0223 -0.7932 0.2174 0
M  V30 11 H 1.1478 2.3814 -0.5845 0
M  V30 12 H 0.6737 -2.402 0.631 0
M  V30 13 H -2.2043 -0.9745 1.2631 0
M  V30 14 H -2.4161 -0.9225 -0.5411 0
M  V30 15 H -1.6625 -2.3475 0.2331 0
M  V30 16 H 3.1409 0.9811 -0.2517 0
M  V30 17 H 2.9044 -1.401 0.373 0
M  V30 END ATOM
M  V30 BEGIN BOND
M  V30 1 2 1 2
M  V30 2 1 2 3
M  V30 3 1 2 4
M  V30 4 2 4 5
M  V30 5 1 4 6
M  V30 6 1 5 7
M  V30 7 1 5 8
M  V30 8 2 6 9
M  V30 9 2 7 10
M  V30 10 1 9 10
M  V30 11 1 6 11
M  V30 12 1 7 12
M  V30 13 1 8 13
M  V30 14 1 8 14
M  V30 15 1 8 15
M  V30 16 1 9 16
M  V30 17 1 10 17
M  V30 END BOND
M  V30 END CTAB
M  END
>  <Structure No>
5903

>  <LogS>
-2.3243

>  <MMFF94 Energy>
55.068

$$$$
Compound 5904
Actelion Java MolfileCreator 2.0

  0  0  0  0  0  0              0 V3000
M  V30 BEGIN CTAB
M  V30 COUNTS 18 18 0 0 0
M  V30 BEGIN ATOM
M  V30 1 O 2.5552 2.4753 0.3191 0
M  V30 2 N 1.3849 2.0942 0.1082 0 CHG=1
M  V30 3 O 0.4139 3.0475 -0.0947 0 CHG=-1
M  V30 4 C 1.08 0.6853 0.0277 0
M  V30 5 C -0.2578 0.2179 0.0277 0
M  V30 6 C 2.1312 -0.2498 -0.0493 0
M  V30 7 O -1.3129 1.1396 0.13 0
M  V30 8 C -0.5053 -1.1677 -0.0634 0
M  V30 9 C 1.8668 -1.6169 -0.1357 0
M  V30 10 C -2.6948 0.7953 0.1439 0
M  V30 11 C 0.5516 -2.0744 -0.1448 0
M  V30 12 H 3.1627 0.0782 -0.0511 0
M  V30 13 H -1.5141 -1.5564 -0.0681 0
M  V30 14 H 2.6846 -2.323 -0.198 0
M  V30 15 H -3.2978 1.722 0.2318 0
M  V30 16 H -2.97 0.2814 -0.8011 0
M  V30 17 H -2.9174 0.1432 1.0147 0
M  V30 18 H 0.3496 -3.1356 -0.2129 0
M  V30 END ATOM
M  V30 BEGIN BOND
M  V30 1 2 1 2
M  V30 2 1 2 3
M  V30 3 1 2 4
M  V30 4 2 4 5
M  V30 5 1 4 6
M  V30 6 1 5 7
M  V30 7 1 5 8
M  V30 8 2 6 9
M  V30 9 1 7 10
M  V30 10 2 8 11
M  V30 11 1 9 11
M  V30 12 1 6 12
M  V30 13 1 8 13
M  V30 14 1 9 14
M  V30 15 1 10 15
M  V30 16 1 10 16
M  V30 17 1 10 17
M  V30 18 1 11 18
M  V30 END BOND
M  V30 END CTAB
M  END
>  <Structure No>
5904

>  <LogS>
-1.9572

>  <MMFF94 Energy>
59.368

$$$$
Compound 5905
Actelion Java MolfileCreator 2.0

  0  0  0  0  0  0              0 V3000
M  V30 BEGIN CTAB
M  V30 COUNTS 18 18 0 0 0
M  V30 BEGIN ATOM
M  V30 1 O 3.6523 -0.4145 -0.4145 0
M  V30 2 N 2.636 -1.14 -0.3997 0 CHG=1
M  V30 3 O 2.7929 -2.5007 -0.5333 0 CHG=-1
M  V30 4 C 1.3242 -0.5651 -0.2457 0
M  V30 5 C 1.1631 0.8246 -0.1092 0
M  V30 6 C 0.1868 -1.3891 -0.2302 0
M  V30 7 C -0.1143 1.3918 0.0413 0
M  V30 8 C -1.0994 -0.8416 -0.0808 0
M  V30 9 N -0.2724 2.8167 0.1808 0 CHG=1
M  V30 10 C -1.2384 0.5496 0.0542 0
M  V30 11 N -2.2614 -1.6926 -0.0657 0 CHG=1
M  V30 12 O 0.7214 3.5726 0.1705 0
M  V30 13 O -1.5234 3.3714 0.3282 0 CHG=-1
M  V30 14 O -2.1468 -2.9303 -0.1851 0
M  V30 15 O -3.5204 -1.1562 0.0806 0 CHG=-1
M  V30 16 H 2.0343 1.4666 -0.1199 0
M  V30 17 H 0.3021 -2.4599 -0.3348 0
M  V30 18 H -2.2249 0.9785 0.1696 0
M  V30 END ATOM
M  V30 BEGIN BOND
M  V30 1 2 1 2
M  V30 2 1 2 3
M  V30 3 1 2 4
M  V30 4 2 4 5
M  V30 5 1 4 6
M  V30 6 1 5 7
M  V30 7 2 6 8
M  V30 8 1 7 9
M  V30 9 2 7 10
M  V30 10 1 8 11
M  V30 11 2 9 12
M  V30 12 1 9 13
M  V30 13 2 11 14
M  V30 14 1 11 15
M  V30 15 1 8 10
M  V30 16 1 5 16
M  V30 17 1 6 17
M  V30 18 1 10 18
M  V30 END BOND
M  V30 END CTAB
M  END
>  <Structure No>
5905

>  <LogS>
-2.8846

>  <MMFF94 Energy>
77.088

$$$$
Compound 5906
Actelion Java MolfileCreator 2.0

  0  0  0  0  0  0              0 V3000
M  V30 BEGIN CTAB
M  V30 COUNTS 16 16 0 0 0
M  V30 BEGIN ATOM
M  V30 1 O -2.6939 -1.9586 -0.4894 0
M  V30 2 N -2.56 -0.7192 -0.4185 0 CHG=1
M  V30 3 O -3.6734 0.0765 -0.5644 0 CHG=-1
M  V30 4 C -1.2659 -0.1313 -0.1885 0
M  V30 5 C -0.1242 -0.942 -0.0385 0
M  V30 6 C -1.1251 1.2643 -0.1102 0
M  V30 7 C 1.1429 -0.3704 0.1864 0
M  V30 8 C 0.128 1.8373 0.1126 0
M  V30 9 N 2.308 -1.2022 0.3392 0 CHG=1
M  V30 10 C 1.2558 1.028 0.2604 0
M  V30 11 O 2.2165 -2.4459 0.275 0
M  V30 12 O 3.5448 -0.6398 0.5591 0 CHG=-1
M  V30 13 H -0.2219 -2.0183 -0.0971 0
M  V30 14 H -1.9837 1.9139 -0.2213 0
M  V30 15 H 0.2258 2.9138 0.1713 0
M  V30 16 H 2.2158 1.4971 0.4323 0
M  V30 END ATOM
M  V30 BEGIN BOND
M  V30 1 2 1 2
M  V30 2 1 2 3
M  V30 3 1 2 4
M  V30 4 2 4 5
M  V30 5 1 4 6
M  V30 6 1 5 7
M  V30 7 2 6 8
M  V30 8 1 7 9
M  V30 9 2 7 10
M  V30 10 2 9 11
M  V30 11 1 9 12
M  V30 12 1 8 10
M  V30 13 1 5 13
M  V30 14 1 6 14
M  V30 15 1 8 15
M  V30 16 1 10 16
M  V30 END BOND
M  V30 END CTAB
M  END
>  <Structure No>
5906

>  <LogS>
-2.4989

>  <MMFF94 Energy>
69.753

$$$$
Compound 5907
Actelion Java MolfileCreator 2.0

  0  0  0  0  0  0              0 V3000
M  V30 BEGIN CTAB
M  V30 COUNTS 18 18 0 0 0
M  V30 BEGIN ATOM
M  V30 1 O -4.1529 0.7178 -0.2392 0
M  V30 2 N -3.354 -0.2051 0.0231 0 CHG=1
M  V30 3 O -3.857 -1.4385 0.3692 0 CHG=-1
M  V30 4 C -1.9327 0.0152 -0.0346 0
M  V30 5 C -1.0385 -1.0277 0.2617 0
M  V30 6 C -1.4148 1.2744 -0.3877 0
M  V30 7 C 0.3426 -0.8173 0.2065 0
M  V30 8 C -0.0337 1.4829 -0.4423 0
M  V30 9 C 0.8555 0.4444 -0.1472 0
M  V30 10 O 2.2321 0.7053 -0.2166 0
M  V30 11 C 3.247 -0.2552 0.057 0
M  V30 12 H -1.4062 -2.0078 0.5368 0
M  V30 13 H -2.0769 2.0981 -0.6216 0
M  V30 14 H 1.0019 -1.6419 0.4408 0
M  V30 15 H 0.3481 2.4585 -0.716 0
M  V30 16 H 3.1651 -1.1087 -0.6487 0
M  V30 17 H 3.1599 -0.6149 1.1041 0
M  V30 18 H 4.2407 0.2199 -0.0739 0
M  V30 END ATOM
M  V30 BEGIN BOND
M  V30 1 2 1 2
M  V30 2 1 2 3
M  V30 3 1 2 4
M  V30 4 2 4 5
M  V30 5 1 4 6
M  V30 6 1 5 7
M  V30 7 2 6 8
M  V30 8 2 7 9
M  V30 9 1 9 10
M  V30 10 1 10 11
M  V30 11 1 8 9
M  V30 12 1 5 12
M  V30 13 1 6 13
M  V30 14 1 7 14
M  V30 15 1 8 15
M  V30 16 1 11 16
M  V30 17 1 11 17
M  V30 18 1 11 18
M  V30 END BOND
M  V30 END CTAB
M  END
>  <Structure No>
5907

>  <LogS>
-2.4142

>  <MMFF94 Energy>
52.995

$$$$
Compound 5908
Actelion Java MolfileCreator 2.0

  0  0  0  0  0  0              0 V3000
M  V30 BEGIN CTAB
M  V30 COUNTS 16 16 0 0 0
M  V30 BEGIN ATOM
M  V30 1 O 3.5109 -0.9788 0.0 0
M  V30 2 N 2.836 0.0657 0.1109 0 CHG=1
M  V30 3 O 3.4917 1.2625 0.2881 0 CHG=-1
M  V30 4 C 1.3984 0.0207 0.0547 0
M  V30 5 C 0.6446 1.1995 0.1802 0
M  V30 6 C 0.7245 -1.1998 -0.126 0
M  V30 7 C -0.7516 1.1596 0.1261 0
M  V30 8 C -0.6717 -1.2398 -0.18 0
M  V30 9 C -1.4255 -0.0609 -0.0546 0
M  V30 10 N -2.863 -0.1059 -0.1108 0 CHG=1
M  V30 11 O -3.538 0.9386 1.0E-4 0
M  V30 12 O -3.5189 -1.3027 -0.2879 0 CHG=-1
M  V30 13 H 1.1337 2.1546 0.3204 0
M  V30 14 H 1.277 -2.1252 -0.2258 0
M  V30 15 H -1.3042 2.0851 0.226 0
M  V30 16 H -1.1609 -2.1948 -0.3202 0
M  V30 END ATOM
M  V30 BEGIN BOND
M  V30 1 2 1 2
M  V30 2 1 2 3
M  V30 3 1 2 4
M  V30 4 2 4 5
M  V30 5 1 4 6
M  V30 6 1 5 7
M  V30 7 2 6 8
M  V30 8 2 7 9
M  V30 9 1 9 10
M  V30 10 2 10 11
M  V30 11 1 10 12
M  V30 12 1 8 9
M  V30 13 1 5 13
M  V30 14 1 6 14
M  V30 15 1 7 15
M  V30 16 1 8 16
M  V30 END BOND
M  V30 END CTAB
M  END
>  <Structure No>
5908

>  <LogS>
-3.3867

>  <MMFF94 Energy>
85.595

$$$$
Compound 5909
Actelion Java MolfileCreator 2.0

  0  0  0  0  0  0              0 V3000
M  V30 BEGIN CTAB
M  V30 COUNTS 21 21 0 0 0
M  V30 BEGIN ATOM
M  V30 1 O -1.4817 -3.2125 -0.4114 0
M  V30 2 N -1.575 -2.0119 -0.7412 0 CHG=1
M  V30 3 O -2.524 -1.6514 -1.6702 0 CHG=-1
M  V30 4 C -0.577 -1.0654 -0.3185 0
M  V30 5 C -0.9065 0.2875 -0.0495 0
M  V30 6 C 0.7523 -1.4952 -0.1811 0
M  V30 7 C 0.1314 1.2092 0.2453 0
M  V30 8 C -2.3507 0.7306 -0.0267 0
M  V30 9 C 1.7702 -0.6021 0.1763 0
M  V30 10 N -0.1289 2.6145 0.4122 0 CHG=1
M  V30 11 C 1.4499 0.748 0.3759 0
M  V30 12 N 3.1281 -1.0626 0.3112 0 CHG=1
M  V30 13 O -0.9202 3.2057 -0.3511 0
M  V30 14 O 0.6441 3.3607 1.2718 0 CHG=-1
M  V30 15 O 4.0419 -0.2708 0.6228 0
M  V30 16 O 3.4417 -2.3869 0.1072 0 CHG=-1
M  V30 17 H 0.9942 -2.5323 -0.3748 0
M  V30 18 H -2.5091 1.5393 0.7167 0
M  V30 19 H -3.0199 -0.0969 0.2872 0
M  V30 20 H -2.6506 1.0886 -1.0337 0
M  V30 21 H 2.2349 1.454 0.6158 0
M  V30 END ATOM
M  V30 BEGIN BOND
M  V30 1 2 1 2
M  V30 2 1 2 3
M  V30 3 1 2 4
M  V30 4 2 4 5
M  V30 5 1 4 6
M  V30 6 1 5 7
M  V30 7 1 5 8
M  V30 8 2 6 9
M  V30 9 1 7 10
M  V30 10 2 7 11
M  V30 11 1 9 12
M  V30 12 2 10 13
M  V30 13 1 10 14
M  V30 14 2 12 15
M  V30 15 1 12 16
M  V30 16 1 9 11
M  V30 17 1 6 17
M  V30 18 1 8 18
M  V30 19 1 8 19
M  V30 20 1 8 20
M  V30 21 1 11 21
M  V30 END BOND
M  V30 END CTAB
M  END
>  <Structure No>
5909

>  <LogS>
-3.2423

>  <MMFF94 Energy>
86.15

$$$$
Compound 5910
Actelion Java MolfileCreator 2.0

  0  0  0  0  0  0              0 V3000
M  V30 BEGIN CTAB
M  V30 COUNTS 16 16 0 0 0
M  V30 BEGIN ATOM
M  V30 1 O 2.0396 2.0396 0.5707 0
M  V30 2 N 1.1092 1.9202 -0.2528 0 CHG=1
M  V30 3 O 0.8237 2.9755 -1.0883 0 CHG=-1
M  V30 4 C 0.2102 0.8014 -0.1746 0
M  V30 5 C 0.6666 -0.5007 0.1601 0
M  V30 6 C -1.1635 1.0143 -0.3845 0
M  V30 7 N 2.0668 -0.8039 0.2754 0 CHG=1
M  V30 8 C -0.2716 -1.5334 0.3326 0
M  V30 9 C -2.0777 -0.0287 -0.2282 0
M  V30 10 O 2.8877 -0.3021 -0.5197 0
M  V30 11 O 2.4859 -1.8116 1.1133 0 CHG=-1
M  V30 12 C -1.6337 -1.2976 0.1394 0
M  V30 13 H -1.5326 1.9992 -0.641 0
M  V30 14 H 0.0551 -2.5332 0.5883 0
M  V30 15 H -3.1341 0.1504 -0.3816 0
M  V30 16 H -2.3451 -2.1037 0.2643 0
M  V30 END ATOM
M  V30 BEGIN BOND
M  V30 1 2 1 2
M  V30 2 1 2 3
M  V30 3 1 2 4
M  V30 4 2 4 5
M  V30 5 1 4 6
M  V30 6 1 5 7
M  V30 7 1 5 8
M  V30 8 2 6 9
M  V30 9 2 7 10
M  V30 10 1 7 11
M  V30 11 2 8 12
M  V30 12 1 9 12
M  V30 13 1 6 13
M  V30 14 1 8 14
M  V30 15 1 9 15
M  V30 16 1 12 16
M  V30 END BOND
M  V30 END CTAB
M  END
>  <Structure No>
5910

>  <LogS>
-3.1017

>  <MMFF94 Energy>
33.678

$$$$
Compound 5911
Actelion Java MolfileCreator 2.0

  0  0  0  0  0  0              0 V3000
M  V30 BEGIN CTAB
M  V30 COUNTS 18 18 0 0 0
M  V30 BEGIN ATOM
M  V30 1 O -1.6755 2.7938 0.5582 0
M  V30 2 N -2.2086 1.6843 0.3484 0 CHG=1
M  V30 3 O -3.5822 1.6018 0.334 0 CHG=-1
M  V30 4 C -1.403 0.512 0.1253 0
M  V30 5 C 0.0032 0.5921 0.1393 0
M  V30 6 C -2.0122 -0.7324 -0.11 0
M  V30 7 C 0.7897 -0.5565 -0.0791 0
M  V30 8 C -1.2339 -1.8713 -0.3266 0
M  V30 9 O 2.1923 -0.5213 -0.0736 0
M  V30 10 C 0.1588 -1.7831 -0.3111 0
M  V30 11 C 2.9676 0.6522 0.148 0
M  V30 12 H 0.4783 1.5463 0.3198 0
M  V30 13 H -3.0904 -0.826 -0.1266 0
M  V30 14 H -1.7121 -2.8254 -0.5071 0
M  V30 15 H 0.7523 -2.6727 -0.4803 0
M  V30 16 H 4.0442 0.3901 0.0974 0
M  V30 17 H 2.7504 1.069 1.1543 0
M  V30 18 H 2.7487 1.4083 -0.6351 0
M  V30 END ATOM
M  V30 BEGIN BOND
M  V30 1 2 1 2
M  V30 2 1 2 3
M  V30 3 1 2 4
M  V30 4 2 4 5
M  V30 5 1 4 6
M  V30 6 1 5 7
M  V30 7 2 6 8
M  V30 8 1 7 9
M  V30 9 2 7 10
M  V30 10 1 9 11
M  V30 11 1 8 10
M  V30 12 1 5 12
M  V30 13 1 6 13
M  V30 14 1 8 14
M  V30 15 1 10 15
M  V30 16 1 11 16
M  V30 17 1 11 17
M  V30 18 1 11 18
M  V30 END BOND
M  V30 END CTAB
M  END
>  <Structure No>
5911

>  <LogS>
-2.4861

>  <MMFF94 Energy>
45.98

$$$$
Compound 5912
Actelion Java MolfileCreator 2.0

  0  0  0  0  0  0              0 V3000
M  V30 BEGIN CTAB
M  V30 COUNTS 19 19 0 0 0
M  V30 BEGIN ATOM
M  V30 1 O 3.491 0.081 0.4865 0
M  V30 2 N 2.4849 -0.4797 0.005 0 CHG=1
M  V30 3 O 2.6538 -1.6422 -0.7113 0 CHG=-1
M  V30 4 C 1.2097 0.1868 0.0177 0
M  V30 5 C -0.0076 -0.5379 0.1228 0
M  V30 6 C 1.1725 1.5867 -0.0866 0
M  V30 7 C -1.2423 0.1561 0.0117 0
M  V30 8 C 0.0103 -2.0214 0.4052 0
M  V30 9 C -0.0423 2.2646 -0.13 0
M  V30 10 N -2.5002 -0.5423 -0.0071 0 CHG=1
M  V30 11 C -1.24 1.5565 -0.0924 0
M  V30 12 O -3.5226 -0.0069 0.4695 0
M  V30 13 O -2.6364 -1.7086 -0.7241 0 CHG=-1
M  V30 14 H 2.0911 2.1557 -0.1546 0
M  V30 15 H 0.8962 -2.3028 1.0115 0
M  V30 16 H -0.8712 -2.3249 1.0071 0
M  V30 17 H 0.0197 -2.5865 -0.5501 0
M  V30 18 H -0.0558 3.3434 -0.2179 0
M  V30 19 H -2.1725 2.1021 -0.165 0
M  V30 END ATOM
M  V30 BEGIN BOND
M  V30 1 2 1 2
M  V30 2 1 2 3
M  V30 3 1 2 4
M  V30 4 2 4 5
M  V30 5 1 4 6
M  V30 6 1 5 7
M  V30 7 1 5 8
M  V30 8 2 6 9
M  V30 9 1 7 10
M  V30 10 2 7 11
M  V30 11 2 10 12
M  V30 12 1 10 13
M  V30 13 1 9 11
M  V30 14 1 6 14
M  V30 15 1 8 15
M  V30 16 1 8 16
M  V30 17 1 8 17
M  V30 18 1 9 18
M  V30 19 1 11 19
M  V30 END BOND
M  V30 END CTAB
M  END
>  <Structure No>
5912

>  <LogS>
-3.0003

>  <MMFF94 Energy>
79.425

$$$$
Compound 5913
Actelion Java MolfileCreator 2.0

  0  0  0  0  0  0              0 V3000
M  V30 BEGIN CTAB
M  V30 COUNTS 19 19 0 0 0
M  V30 BEGIN ATOM
M  V30 1 O -1.8648 -2.7576 0.0 0
M  V30 2 N -1.9661 -1.5854 -0.4175 0 CHG=1
M  V30 3 O -2.9551 -1.2873 -1.3266 0 CHG=-1
M  V30 4 C -0.942 -0.6209 -0.1222 0
M  V30 5 C -1.2394 0.7601 -0.0174 0
M  V30 6 C 0.3919 -1.0495 0.0023 0
M  V30 7 N -2.596 1.2357 -0.0203 0 CHG=1
M  V30 8 C -0.188 1.6784 0.1475 0
M  V30 9 C 1.4277 -0.1274 0.2049 0
M  V30 10 O -2.8616 2.3761 -0.4541 0
M  V30 11 O -3.5773 0.5309 0.6383 0 CHG=-1
M  V30 12 C 1.1323 1.2397 0.2509 0
M  V30 13 C 2.8509 -0.5954 0.2841 0
M  V30 14 H 0.6281 -2.1031 -0.0872 0
M  V30 15 H -0.3943 2.7387 0.2235 0
M  V30 16 H 1.9241 1.9677 0.3793 0
M  V30 17 H 3.458 0.0971 0.9055 0
M  V30 18 H 2.9058 -1.6052 0.744 0
M  V30 19 H 3.2828 -0.6384 -0.7374 0
M  V30 END ATOM
M  V30 BEGIN BOND
M  V30 1 2 1 2
M  V30 2 1 2 3
M  V30 3 1 2 4
M  V30 4 2 4 5
M  V30 5 1 4 6
M  V30 6 1 5 7
M  V30 7 1 5 8
M  V30 8 2 6 9
M  V30 9 2 7 10
M  V30 10 1 7 11
M  V30 11 2 8 12
M  V30 12 1 9 13
M  V30 13 1 9 12
M  V30 14 1 6 14
M  V30 15 1 8 15
M  V30 16 1 12 16
M  V30 17 1 13 17
M  V30 18 1 13 18
M  V30 19 1 13 19
M  V30 END BOND
M  V30 END CTAB
M  END
>  <Structure No>
5913

>  <LogS>
-3.2604

>  <MMFF94 Energy>
35.039

$$$$
Compound 5914
Actelion Java MolfileCreator 2.0

  0  0  0  0  0  0              0 V3000
M  V30 BEGIN CTAB
M  V30 COUNTS 13 12 0 0 0
M  V30 BEGIN ATOM
M  V30 1 O 0.7646 -1.2236 1.4532 0
M  V30 2 C 1.2547 -0.413 0.621 0
M  V30 3 O 0.5059 0.6709 0.1499 0
M  V30 4 N 2.5901 -0.5969 0.1595 0
M  V30 5 C -0.8498 0.9104 0.5229 0
M  V30 6 C -1.7866 -0.0445 -0.2077 0
M  V30 7 H 3.1637 -1.3989 0.5028 0
M  V30 8 H 3.0042 0.0708 -0.5275 0
M  V30 9 H -1.1145 1.952 0.2435 0
M  V30 10 H -0.9737 0.8069 1.623 0
M  V30 11 H -1.5764 -1.0941 0.0858 0
M  V30 12 H -2.8395 0.1938 0.0519 0
M  V30 13 H -1.6539 0.0605 -1.3052 0
M  V30 END ATOM
M  V30 BEGIN BOND
M  V30 1 2 1 2
M  V30 2 1 2 3
M  V30 3 1 2 4
M  V30 4 1 3 5
M  V30 5 1 5 6
M  V30 6 1 4 7
M  V30 7 1 4 8
M  V30 8 1 5 9
M  V30 9 1 5 10
M  V30 10 1 6 11
M  V30 11 1 6 12
M  V30 12 1 6 13
M  V30 END BOND
M  V30 END CTAB
M  END
>  <Structure No>
5914

>  <LogS>
0.7314

>  <MMFF94 Energy>
-74.691

$$$$
Compound 5915
Actelion Java MolfileCreator 2.0

  0  0  0  0  0  0              0 V3000
M  V30 BEGIN CTAB
M  V30 COUNTS 10 9 0 0 0
M  V30 BEGIN ATOM
M  V30 1 O -0.5265 1.6557 0.0752 0
M  V30 2 C -0.6123 0.4053 -0.0627 0
M  V30 3 N -1.8979 -0.2142 -0.0588 0
M  V30 4 C 0.5994 -0.4179 -0.2272 0
M  V30 5 C 1.824 0.1054 -0.2383 0
M  V30 6 H -2.7603 0.3629 0.0572 0
M  V30 7 H -1.9936 -1.2479 -0.1714 0
M  V30 8 H 0.4907 -1.489 -0.3432 0
M  V30 9 H 2.6846 -0.539 -0.362 0
M  V30 10 H 1.9861 1.17 -0.126 0
M  V30 END ATOM
M  V30 BEGIN BOND
M  V30 1 2 1 2
M  V30 2 1 2 3
M  V30 3 1 2 4
M  V30 4 2 4 5
M  V30 5 1 3 6
M  V30 6 1 3 7
M  V30 7 1 4 8
M  V30 8 1 5 9
M  V30 9 1 5 10
M  V30 END BOND
M  V30 END CTAB
M  END
>  <Structure No>
5915

>  <LogS>
0.9544

>  <MMFF94 Energy>
-31.787

$$$$
Compound 5916
Actelion Java MolfileCreator 2.0

  0  0  0  0  0  0              0 V3000
M  V30 BEGIN CTAB
M  V30 COUNTS 15 14 0 0 0
M  V30 BEGIN ATOM
M  V30 1 O 2.2172 -1.3757 -0.2291 0
M  V30 2 C 1.6271 -0.2987 0.0522 0
M  V30 3 N 2.2615 0.9495 -0.225 0
M  V30 4 C 0.246 -0.3348 0.633 0
M  V30 5 C -0.8041 -0.206 -0.4736 0
M  V30 6 C -2.2171 -0.2407 0.101 0
M  V30 7 H 1.7759 1.8507 -0.019 0
M  V30 8 H 3.2181 0.9733 -0.6422 0
M  V30 9 H 0.1329 0.4981 1.3605 0
M  V30 10 H 0.1005 -1.2916 1.1808 0
M  V30 11 H -0.6894 -1.0419 -1.1979 0
M  V30 12 H -0.6607 0.7534 -1.0173 0
M  V30 13 H -2.3658 0.6009 0.8106 0
M  V30 14 H -2.3956 -1.2016 0.6288 0
M  V30 15 H -2.9557 -0.1453 -0.7224 0
M  V30 END ATOM
M  V30 BEGIN BOND
M  V30 1 2 1 2
M  V30 2 1 2 3
M  V30 3 1 2 4
M  V30 4 1 4 5
M  V30 5 1 5 6
M  V30 6 1 3 7
M  V30 7 1 3 8
M  V30 8 1 4 9
M  V30 9 1 4 10
M  V30 10 1 5 11
M  V30 11 1 5 12
M  V30 12 1 6 13
M  V30 13 1 6 14
M  V30 14 1 6 15
M  V30 END BOND
M  V30 END CTAB
M  END
>  <Structure No>
5916

>  <LogS>
0.2721

>  <MMFF94 Energy>
-29.983

$$$$
Compound 5917
Actelion Java MolfileCreator 2.0

  0  0  0  0  0  0              0 V3000
M  V30 BEGIN CTAB
M  V30 COUNTS 18 17 0 0 0
M  V30 BEGIN ATOM
M  V30 1 O -3.7862 -0.8046 1.7709 0
M  V30 2 N -3.2906 -0.6264 0.6408 0 CHG=1
M  V30 3 O -1.9971 -0.1592 0.5316 0
M  V30 4 O -4.0412 -0.8989 -0.48 0 CHG=-1
M  V30 5 C -1.3851 0.0594 -0.7349 0
M  V30 6 C 0.0439 0.5773 -0.55 0
M  V30 7 O 0.571 0.9067 -1.8093 0
M  V30 8 C 0.9301 -0.4785 0.1241 0
M  V30 9 O 2.2349 0.0507 0.338 0
M  V30 10 N 3.2385 -0.6916 0.9284 0 CHG=1
M  V30 11 O 3.0362 -1.8665 1.3001 0
M  V30 12 O 4.4787 -0.128 1.1088 0 CHG=-1
M  V30 13 H -1.3761 -0.8887 -1.3158 0
M  V30 14 H -1.9771 0.8139 -1.2975 0
M  V30 15 H 0.0015 1.4862 0.0958 0
M  V30 16 H 1.3022 1.5605 -1.6552 0
M  V30 17 H 0.9993 -1.3812 -0.5213 0
M  V30 18 H 0.494 -0.7691 1.1045 0
M  V30 END ATOM
M  V30 BEGIN BOND
M  V30 1 2 1 2
M  V30 2 1 2 3
M  V30 3 1 2 4
M  V30 4 1 3 5
M  V30 5 1 5 6
M  V30 6 1 6 7
M  V30 7 1 6 8
M  V30 8 1 8 9
M  V30 9 1 9 10
M  V30 10 2 10 11
M  V30 11 1 10 12
M  V30 12 1 5 13
M  V30 13 1 5 14
M  V30 14 1 6 15
M  V30 15 1 7 16
M  V30 16 1 8 17
M  V30 17 1 8 18
M  V30 END BOND
M  V30 END CTAB
M  END
>  <Structure No>
5917

>  <LogS>
-0.366

>  <MMFF94 Energy>
-9.0882

$$$$
Compound 5918
Actelion Java MolfileCreator 2.0

  0  0  0  0  0  0              0 V3000
M  V30 BEGIN CTAB
M  V30 COUNTS 16 15 0 0 0
M  V30 BEGIN ATOM
M  V30 1 O 2.8048 0.5449 -1.4795 0
M  V30 2 N 2.5155 0.116 -0.3438 0 CHG=1
M  V30 3 O 3.3537 -0.7833 0.2721 0 CHG=-1
M  V30 4 C 1.1997 0.3844 0.2229 0
M  V30 5 C 0.1912 -0.6586 -0.2723 0
M  V30 6 C -1.1852 -0.5139 0.3943 0
M  V30 7 C -1.9388 0.7316 -0.0707 0
M  V30 8 H 1.2665 0.3499 1.332 0
M  V30 9 H 0.8757 1.4049 -0.073 0
M  V30 10 H 0.5842 -1.6719 -0.0374 0
M  V30 11 H 0.0864 -0.5861 -1.377 0
M  V30 12 H -1.7955 -1.4062 0.136 0
M  V30 13 H -1.0748 -0.4916 1.5003 0
M  V30 14 H -2.0158 0.7486 -1.1785 0
M  V30 15 H -2.9647 0.7218 0.354 0
M  V30 16 H -1.4295 1.6531 0.2793 0
M  V30 END ATOM
M  V30 BEGIN BOND
M  V30 1 2 1 2
M  V30 2 1 2 3
M  V30 3 1 2 4
M  V30 4 1 4 5
M  V30 5 1 5 6
M  V30 6 1 6 7
M  V30 7 1 4 8
M  V30 8 1 4 9
M  V30 9 1 5 10
M  V30 10 1 5 11
M  V30 11 1 6 12
M  V30 12 1 6 13
M  V30 13 1 7 14
M  V30 14 1 7 15
M  V30 15 1 7 16
M  V30 END BOND
M  V30 END CTAB
M  END
>  <Structure No>
5918

>  <LogS>
-1.3506

>  <MMFF94 Energy>
0.55076

$$$$
Compound 5919
Actelion Java MolfileCreator 2.0

  0  0  0  0  0  0              0 V3000
M  V30 BEGIN CTAB
M  V30 COUNTS 19 18 0 0 0
M  V30 BEGIN ATOM
M  V30 1 O 2.5735 -2.2613 0.2337 0
M  V30 2 N 2.5183 -1.0296 0.0402 0 CHG=1
M  V30 3 O 2.9291 -0.1683 1.0308 0 CHG=-1
M  V30 4 C 1.9055 -0.5054 -1.1756 0
M  V30 5 C 0.3763 -0.5904 -1.1044 0
M  V30 6 C -0.2037 0.3317 -0.0229 0
M  V30 7 C -1.7357 0.2789 -0.0208 0
M  V30 8 C -2.3175 1.1897 1.0565 0
M  V30 9 H 2.2225 0.5483 -1.3347 0
M  V30 10 H 2.2611 -1.0968 -2.0472 0
M  V30 11 H -0.0357 -0.2959 -2.0944 0
M  V30 12 H 0.073 -1.6418 -0.9063 0
M  V30 13 H 0.1718 0.0156 0.9745 0
M  V30 14 H 0.1277 1.3766 -0.2122 0
M  V30 15 H -2.1239 0.6016 -1.0116 0
M  V30 16 H -2.0747 -0.763 0.1679 0
M  V30 17 H -2.0135 2.243 0.8769 0
M  V30 18 H -3.4262 1.1313 1.0337 0
M  V30 19 H -1.9659 0.8723 2.0614 0
M  V30 END ATOM
M  V30 BEGIN BOND
M  V30 1 2 1 2
M  V30 2 1 2 3
M  V30 3 1 2 4
M  V30 4 1 4 5
M  V30 5 1 5 6
M  V30 6 1 6 7
M  V30 7 1 7 8
M  V30 8 1 4 9
M  V30 9 1 4 10
M  V30 10 1 5 11
M  V30 11 1 5 12
M  V30 12 1 6 13
M  V30 13 1 6 14
M  V30 14 1 7 15
M  V30 15 1 7 16
M  V30 16 1 8 17
M  V30 17 1 8 18
M  V30 18 1 8 19
M  V30 END BOND
M  V30 END CTAB
M  END
>  <Structure No>
5919

>  <LogS>
-1.9548

>  <MMFF94 Energy>
1.5997

$$$$
Compound 5920
Actelion Java MolfileCreator 2.0

  0  0  0  0  0  0              0 V3000
M  V30 BEGIN CTAB
M  V30 COUNTS 14 13 0 0 0
M  V30 BEGIN ATOM
M  V30 1 O 3.401 1.4565 -0.0808 0
M  V30 2 N 2.7456 0.4569 0.2737 0 CHG=1
M  V30 3 O 1.4007 0.3841 -0.0252 0
M  V30 4 O 3.3736 -0.5584 0.9585 0 CHG=-1
M  V30 5 C 0.6091 -0.7344 0.3575 0
M  V30 6 C -0.8265 -0.5344 -0.1068 0
M  V30 7 O -1.3795 0.6201 0.5171 0
M  V30 8 N -2.6741 1.0346 0.2735 0 CHG=1
M  V30 9 O -3.4145 0.4052 -0.5108 0
M  V30 10 O -3.1541 2.1571 0.9043 0 CHG=-1
M  V30 11 H 0.6303 -0.8474 1.4632 0
M  V30 12 H 1.02 -1.6559 -0.1083 0
M  V30 13 H -1.428 -1.4278 0.1671 0
M  V30 14 H -0.8464 -0.4093 -1.211 0
M  V30 END ATOM
M  V30 BEGIN BOND
M  V30 1 2 1 2
M  V30 2 1 2 3
M  V30 3 1 2 4
M  V30 4 1 3 5
M  V30 5 1 5 6
M  V30 6 1 6 7
M  V30 7 1 7 8
M  V30 8 2 8 9
M  V30 9 1 8 10
M  V30 10 1 5 11
M  V30 11 1 5 12
M  V30 12 1 6 13
M  V30 13 1 6 14
M  V30 END BOND
M  V30 END CTAB
M  END
>  <Structure No>
5920

>  <LogS>
-1.3495

>  <MMFF94 Energy>
-31.813

$$$$
Compound 5921
Actelion Java MolfileCreator 2.0

  0  0  0  0  0  0              0 V3000
M  V30 BEGIN CTAB
M  V30 COUNTS 13 12 0 0 0
M  V30 BEGIN ATOM
M  V30 1 C 1.5188 0.4554 0.2277 0
M  V30 2 C 2.0958 1.0863 1.0776 0
M  V30 3 C 0.8154 -0.3128 -0.8081 0
M  V30 4 C -0.4955 -0.9039 -0.2765 0
M  V30 5 C -1.5457 0.1708 0.0048 0
M  V30 6 H 2.602 1.6403 1.8238 0
M  V30 7 H 0.6168 0.343 -1.6824 0
M  V30 8 H 1.4779 -1.1398 -1.1399 0
M  V30 9 H -0.3027 -1.4878 0.6504 0
M  V30 10 H -0.9035 -1.6036 -1.0376 0
M  V30 11 H -1.1955 0.8599 0.8022 0
M  V30 12 H -2.4867 -0.3107 0.3448 0
M  V30 13 H -1.7588 0.7532 -0.9166 0
M  V30 END ATOM
M  V30 BEGIN BOND
M  V30 1 3 1 2
M  V30 2 1 1 3
M  V30 3 1 3 4
M  V30 4 1 4 5
M  V30 5 1 2 6
M  V30 6 1 3 7
M  V30 7 1 3 8
M  V30 8 1 4 9
M  V30 9 1 4 10
M  V30 10 1 5 11
M  V30 11 1 5 12
M  V30 12 1 5 13
M  V30 END BOND
M  V30 END CTAB
M  END
>  <Structure No>
5921

>  <LogS>
-1.6374

>  <MMFF94 Energy>
0.37353

$$$$
Compound 5922
Actelion Java MolfileCreator 2.0

  0  0  0  0  0  0              0 V3000
M  V30 BEGIN CTAB
M  V30 COUNTS 15 14 0 0 0
M  V30 BEGIN ATOM
M  V30 1 O -0.1517 -0.7587 -0.3034 0
M  V30 2 C 1.2461 -0.6572 -0.1064 0
M  V30 3 C -0.8424 0.0537 0.6228 0
M  V30 4 C 1.8447 0.3526 -1.0792 0
M  V30 5 C -2.328 0.0303 0.2975 0
M  V30 6 H 1.695 -1.6502 -0.3199 0
M  V30 7 H 1.5371 -0.3975 0.9393 0
M  V30 8 H -0.7043 -0.3355 1.6568 0
M  V30 9 H -0.4914 1.1096 0.5733 0
M  V30 10 H 1.5915 0.0707 -2.1232 0
M  V30 11 H 1.4512 1.3695 -0.8714 0
M  V30 12 H 2.9495 0.3686 -0.9691 0
M  V30 13 H -2.4986 0.4249 -0.7265 0
M  V30 14 H -2.714 -1.0093 0.357 0
M  V30 15 H -2.8817 0.6622 1.0239 0
M  V30 END ATOM
M  V30 BEGIN BOND
M  V30 1 1 1 2
M  V30 2 1 1 3
M  V30 3 1 2 4
M  V30 4 1 3 5
M  V30 5 1 2 6
M  V30 6 1 2 7
M  V30 7 1 3 8
M  V30 8 1 3 9
M  V30 9 1 4 10
M  V30 10 1 4 11
M  V30 11 1 4 12
M  V30 12 1 5 13
M  V30 13 1 5 14
M  V30 14 1 5 15
M  V30 END BOND
M  V30 END CTAB
M  END
>  <Structure No>
5922

>  <LogS>
-0.0889

>  <MMFF94 Energy>
3.1434

$$$$
Compound 5923
Actelion Java MolfileCreator 2.0

  0  0  0  0  0  0              0 V3000
M  V30 BEGIN CTAB
M  V30 COUNTS 21 20 0 0 0
M  V30 BEGIN ATOM
M  V30 1 O -0.2297 0.8426 0.6128 0
M  V30 2 C -1.0593 0.7242 -0.5254 0
M  V30 3 C 1.1346 0.8252 0.2384 0
M  V30 4 C -2.5119 0.5387 -0.0861 0
M  V30 5 C 1.7043 -0.5875 0.3971 0
M  V30 6 C -2.7148 -0.779 0.6587 0
M  V30 7 C 3.1955 -0.6234 0.0763 0
M  V30 8 H -0.9979 1.6547 -1.1335 0
M  V30 9 H -0.7638 -0.1411 -1.1623 0
M  V30 10 H 1.3174 1.2064 -0.7951 0
M  V30 11 H 1.6808 1.5065 0.9254 0
M  V30 12 H -3.1665 0.5486 -0.9844 0
M  V30 13 H -2.813 1.384 0.5701 0
M  V30 14 H 1.1726 -1.2862 -0.2832 0
M  V30 15 H 1.5489 -0.9327 1.4423 0
M  V30 16 H -3.7836 -0.8851 0.9401 0
M  V30 17 H -2.4314 -1.636 0.0113 0
M  V30 18 H -2.1018 -0.8006 1.5847 0
M  V30 19 H 3.7546 0.0468 0.7635 0
M  V30 20 H 3.5776 -1.6584 0.2013 0
M  V30 21 H 3.372 -0.3038 -0.9727 0
M  V30 END ATOM
M  V30 BEGIN BOND
M  V30 1 1 1 2
M  V30 2 1 1 3
M  V30 3 1 2 4
M  V30 4 1 3 5
M  V30 5 1 4 6
M  V30 6 1 5 7
M  V30 7 1 2 8
M  V30 8 1 2 9
M  V30 9 1 3 10
M  V30 10 1 3 11
M  V30 11 1 4 12
M  V30 12 1 4 13
M  V30 13 1 5 14
M  V30 14 1 5 15
M  V30 15 1 6 16
M  V30 16 1 6 17
M  V30 17 1 6 18
M  V30 18 1 7 19
M  V30 19 1 7 20
M  V30 20 1 7 21
M  V30 END BOND
M  V30 END CTAB
M  END
>  <Structure No>
5923

>  <LogS>
-1.3192

>  <MMFF94 Energy>
0.98484

$$$$
Compound 5924
Actelion Java MolfileCreator 2.0

  0  0  0  0  0  0              0 V3000
M  V30 BEGIN CTAB
M  V30 COUNTS 28 27 0 0 0
M  V30 BEGIN ATOM
M  V30 1 O 2.548 -0.7715 0.4629 0
M  V30 2 C 3.1705 0.217 -0.3395 0
M  V30 3 C 1.2529 -0.3728 0.872 0
M  V30 4 C 4.2413 0.9503 0.4633 0
M  V30 5 C 0.2078 -0.8085 -0.1612 0
M  V30 6 O 3.6474 1.6856 1.4964 0
M  V30 7 C -1.2093 -0.4445 0.2973 0
M  V30 8 C -2.2518 -0.8754 -0.7449 0
M  V30 9 C -3.6939 -0.6388 -0.2705 0
M  V30 10 C -4.0631 0.8433 -0.2162 0
M  V30 11 H 2.466 0.9531 -0.7947 0
M  V30 12 H 3.6691 -0.2984 -1.1872 0
M  V30 13 H 1.1795 0.7212 1.0756 0
M  V30 14 H 1.0325 -0.8836 1.8335 0
M  V30 15 H 4.9573 0.2107 0.8866 0
M  V30 16 H 4.7948 1.6379 -0.2142 0
M  V30 17 H 0.2814 -1.9085 -0.3068 0
M  V30 18 H 0.4184 -0.3123 -1.1333 0
M  V30 19 H 4.3911 2.1309 1.9797 0
M  V30 20 H -1.2658 0.6545 0.45 0
M  V30 21 H -1.4231 -0.9496 1.2649 0
M  V30 22 H -2.1313 -1.9627 -0.9451 0
M  V30 23 H -2.077 -0.3354 -1.7015 0
M  V30 24 H -4.384 -1.143 -0.9812 0
M  V30 25 H -3.8484 -1.0984 0.73 0
M  V30 26 H -3.8648 1.3299 -1.1948 0
M  V30 27 H -5.1442 0.9455 0.0158 0
M  V30 28 H -3.4897 1.363 0.5789 0
M  V30 END ATOM
M  V30 BEGIN BOND
M  V30 1 1 1 2
M  V30 2 1 1 3
M  V30 3 1 2 4
M  V30 4 1 3 5
M  V30 5 1 4 6
M  V30 6 1 5 7
M  V30 7 1 7 8
M  V30 8 1 8 9
M  V30 9 1 9 10
M  V30 10 1 2 11
M  V30 11 1 2 12
M  V30 12 1 3 13
M  V30 13 1 3 14
M  V30 14 1 4 15
M  V30 15 1 4 16
M  V30 16 1 5 17
M  V30 17 1 5 18
M  V30 18 1 6 19
M  V30 19 1 7 20
M  V30 20 1 7 21
M  V30 21 1 8 22
M  V30 22 1 8 23
M  V30 23 1 9 24
M  V30 24 1 9 25
M  V30 25 1 10 26
M  V30 26 1 10 27
M  V30 27 1 10 28
M  V30 END BOND
M  V30 END CTAB
M  END
>  <Structure No>
5924

>  <LogS>
-1.1694

>  <MMFF94 Energy>
21.476

$$$$
Compound 5925
Actelion Java MolfileCreator 2.0

  0  0  0  0  0  0              0 V3000
M  V30 BEGIN CTAB
M  V30 COUNTS 34 33 0 0 0
M  V30 BEGIN ATOM
M  V30 1 O 1.5481 -0.3094 -0.0773 0
M  V30 2 C 0.1709 -0.1062 0.1783 0
M  V30 3 C 2.3051 -0.1348 1.1034 0
M  V30 4 C -0.534 -1.4514 0.3651 0
M  V30 5 C 3.7711 -0.4931 0.8392 0
M  V30 6 O -1.9087 -1.2482 0.6318 0
M  V30 7 C 4.4195 0.351 -0.271 0
M  V30 8 C -2.67 -1.3768 -0.5522 0
M  V30 9 C 4.6043 1.8149 0.1284 0
M  V30 10 C -4.1111 -0.9259 -0.2941 0
M  V30 11 C -4.2189 0.5298 0.1911 0
M  V30 12 C -3.8204 1.544 -0.8806 0
M  V30 13 H -0.033 0.5562 1.0538 0
M  V30 14 H -0.2644 0.4045 -0.7055 0
M  V30 15 H 1.9338 -0.8046 1.9121 0
M  V30 16 H 2.2392 0.9165 1.4615 0
M  V30 17 H -0.3414 -2.1126 -0.5136 0
M  V30 18 H -0.0918 -1.9646 1.2445 0
M  V30 19 H 3.8233 -1.5637 0.544 0
M  V30 20 H 4.3517 -0.3812 1.7809 0
M  V30 21 H 3.818 0.2928 -1.2037 0
M  V30 22 H 5.4207 -0.0769 -0.494 0
M  V30 23 H -2.6942 -2.4444 -0.866 0
M  V30 24 H -2.244 -0.7781 -1.3884 0
M  V30 25 H 5.1517 1.8896 1.0919 0
M  V30 26 H 3.6226 2.3245 0.2185 0
M  V30 27 H 5.1933 2.3388 -0.6536 0
M  V30 28 H -4.7081 -1.0551 -1.2233 0
M  V30 29 H -4.5552 -1.5892 0.4798 0
M  V30 30 H -5.2751 0.724 0.4783 0
M  V30 31 H -3.5942 0.6829 1.0976 0
M  V30 32 H -4.0493 2.5694 -0.5209 0
M  V30 33 H -2.7319 1.488 -1.0888 0
M  V30 34 H -4.3882 1.3634 -1.818 0
M  V30 END ATOM
M  V30 BEGIN BOND
M  V30 1 1 1 2
M  V30 2 1 1 3
M  V30 3 1 2 4
M  V30 4 1 3 5
M  V30 5 1 4 6
M  V30 6 1 5 7
M  V30 7 1 6 8
M  V30 8 1 7 9
M  V30 9 1 8 10
M  V30 10 1 10 11
M  V30 11 1 11 12
M  V30 12 1 2 13
M  V30 13 1 2 14
M  V30 14 1 3 15
M  V30 15 1 3 16
M  V30 16 1 4 17
M  V30 17 1 4 18
M  V30 18 1 5 19
M  V30 19 1 5 20
M  V30 20 1 7 21
M  V30 21 1 7 22
M  V30 22 1 8 23
M  V30 23 1 8 24
M  V30 24 1 9 25
M  V30 25 1 9 26
M  V30 26 1 9 27
M  V30 27 1 10 28
M  V30 28 1 10 29
M  V30 29 1 11 30
M  V30 30 1 11 31
M  V30 31 1 12 32
M  V30 32 1 12 33
M  V30 33 1 12 34
M  V30 END BOND
M  V30 END CTAB
M  END
>  <Structure No>
5925

>  <LogS>
-1.9402

>  <MMFF94 Energy>
23.571

$$$$
Compound 5926
Actelion Java MolfileCreator 2.0

  0  0  0  0  0  0              0 V3000
M  V30 BEGIN CTAB
M  V30 COUNTS 16 16 0 0 0
M  V30 BEGIN ATOM
M  V30 1 O 0.6285 1.2573 -0.7856 0
M  V30 2 C -0.5568 1.4305 -0.0341 0
M  V30 3 C 1.506 0.3661 -0.1138 0
M  V30 4 C -1.4117 0.1498 -0.0541 0
M  V30 5 C 0.8248 -0.9536 0.3191 0
M  V30 6 C -0.556 -1.0962 -0.3234 0
M  V30 7 H -0.3231 1.7263 1.0153 0
M  V30 8 H -1.1409 2.2648 -0.4772 0
M  V30 9 H 2.3389 0.1241 -0.8076 0
M  V30 10 H 1.9607 0.8713 0.7673 0
M  V30 11 H -2.1909 0.228 -0.8434 0
M  V30 12 H -1.9295 0.0431 0.9241 0
M  V30 13 H 0.7088 -0.9623 1.4254 0
M  V30 14 H 1.4589 -1.8224 0.0382 0
M  V30 15 H -0.4306 -1.2268 -1.421 0
M  V30 16 H -1.0678 -1.9998 0.0728 0
M  V30 END ATOM
M  V30 BEGIN BOND
M  V30 1 1 1 2
M  V30 2 1 1 3
M  V30 3 1 2 4
M  V30 4 1 3 5
M  V30 5 1 4 6
M  V30 6 1 5 6
M  V30 7 1 2 7
M  V30 8 1 2 8
M  V30 9 1 3 9
M  V30 10 1 3 10
M  V30 11 1 4 11
M  V30 12 1 4 12
M  V30 13 1 5 13
M  V30 14 1 5 14
M  V30 15 1 6 15
M  V30 16 1 6 16
M  V30 END BOND
M  V30 END CTAB
M  END
>  <Structure No>
5926

>  <LogS>
-0.031

>  <MMFF94 Energy>
3.7336

$$$$
Compound 5927
Actelion Java MolfileCreator 2.0

  0  0  0  0  0  0              0 V3000
M  V30 BEGIN CTAB
M  V30 COUNTS 27 26 0 0 0
M  V30 BEGIN ATOM
M  V30 1 O 0.231 -0.539 -0.231 0
M  V30 2 C 0.7403 0.7366 0.1032 0
M  V30 3 C -1.1629 -0.473 -0.4677 0
M  V30 4 C 2.2125 0.6163 0.4992 0
M  V30 5 C -1.9318 -0.8595 0.803 0
M  V30 6 C 3.0819 0.1524 -0.6768 0
M  V30 7 C -3.4401 -1.0209 0.5591 0
M  V30 8 C 4.5502 0.0604 -0.2726 0
M  V30 9 C -4.1429 0.3125 0.3053 0
M  V30 10 H 0.1887 1.1698 0.9683 0
M  V30 11 H 0.6537 1.4314 -0.7632 0
M  V30 12 H -1.4976 0.5209 -0.8468 0
M  V30 13 H -1.4015 -1.2089 -1.2648 0
M  V30 14 H 2.3049 -0.1025 1.343 0
M  V30 15 H 2.5681 1.6099 0.8501 0
M  V30 16 H -1.7588 -0.1029 1.5984 0
M  V30 17 H -1.5342 -1.8298 1.1728 0
M  V30 18 H 2.744 -0.8474 -1.0254 0
M  V30 19 H 2.9858 0.8704 -1.5204 0
M  V30 20 H -3.6195 -1.7061 -0.2975 0
M  V30 21 H -3.8932 -1.4861 1.4613 0
M  V30 22 H 5.1543 -0.2777 -1.1407 0
M  V30 23 H 4.9237 1.0544 0.0541 0
M  V30 24 H 4.6775 -0.6696 0.5548 0
M  V30 25 H -5.2397 0.1469 0.2533 0
M  V30 26 H -3.8148 0.7532 -0.6584 0
M  V30 27 H -3.9326 1.0263 1.13 0
M  V30 END ATOM
M  V30 BEGIN BOND
M  V30 1 1 1 2
M  V30 2 1 1 3
M  V30 3 1 2 4
M  V30 4 1 3 5
M  V30 5 1 4 6
M  V30 6 1 5 7
M  V30 7 1 6 8
M  V30 8 1 7 9
M  V30 9 1 2 10
M  V30 10 1 2 11
M  V30 11 1 3 12
M  V30 12 1 3 13
M  V30 13 1 4 14
M  V30 14 1 4 15
M  V30 15 1 5 16
M  V30 16 1 5 17
M  V30 17 1 6 18
M  V30 18 1 6 19
M  V30 19 1 7 20
M  V30 20 1 7 21
M  V30 21 1 8 22
M  V30 22 1 8 23
M  V30 23 1 8 24
M  V30 24 1 9 25
M  V30 25 1 9 26
M  V30 26 1 9 27
M  V30 END BOND
M  V30 END CTAB
M  END
>  <Structure No>
5927

>  <LogS>
-2.6376

>  <MMFF94 Energy>
1.5433

$$$$
Compound 5928
Actelion Java MolfileCreator 2.0

  0  0  0  0  0  0              0 V3000
M  V30 BEGIN CTAB
M  V30 COUNTS 12 11 0 0 0
M  V30 BEGIN ATOM
M  V30 1 Cl 2.4348 0.7821 -1.3038 0
M  V30 2 C 1.7088 0.252 0.2379 0 CFG=1
M  V30 3 F 1.569 1.347 1.072 0
M  V30 4 C 0.3483 -0.4042 0.0069 0
M  V30 5 F -0.143 -0.8285 1.2341 0
M  V30 6 F 0.5206 -1.5041 -0.821 0
M  V30 7 O -0.5246 0.5358 -0.5943 0
M  V30 8 C -1.8376 0.0219 -0.6933 0
M  V30 9 F -2.4986 0.1823 0.5118 0
M  V30 10 F -2.5179 0.735 -1.6613 0
M  V30 11 H 2.3956 -0.4768 0.7183 0
M  V30 12 H -1.8611 -1.0506 -0.9902 0
M  V30 END ATOM
M  V30 BEGIN BOND
M  V30 1 1 1 2
M  V30 2 1 2 3
M  V30 3 1 2 4
M  V30 4 1 4 5
M  V30 5 1 4 6
M  V30 6 1 4 7
M  V30 7 1 7 8
M  V30 8 1 8 9
M  V30 9 1 8 10
M  V30 10 1 2 11
M  V30 11 1 8 12
M  V30 END BOND
M  V30 BEGIN COLLECTION
M  V30 MDLV30/STEABS ATOMS=(1 2)
M  V30 END COLLECTION
M  V30 END CTAB
M  END
>  <Structure No>
5928

>  <LogS>
-1.5162

>  <MMFF94 Energy>
-7.4768

$$$$
Compound 5929
Actelion Java MolfileCreator 2.0

  0  0  0  0  0  0              0 V3000
M  V30 BEGIN CTAB
M  V30 COUNTS 12 11 0 0 0
M  V30 BEGIN ATOM
M  V30 1 Cl 0.3476 -0.8692 1.9999 0
M  V30 2 C -0.1355 -0.4519 0.3296 0 CFG=2
M  V30 3 O 0.214 0.8955 0.0645 0
M  V30 4 C -1.648 -0.6113 0.1787 0
M  V30 5 C 1.4619 0.9758 -0.5922 0
M  V30 6 F -2.0158 -1.9178 0.4475 0
M  V30 7 F -2.0201 -0.3008 -1.1168 0
M  V30 8 F -2.3088 0.2352 1.0518 0
M  V30 9 F 1.7287 2.3014 -0.8751 0
M  V30 10 F 2.4751 0.4866 0.2159 0
M  V30 11 H 0.3462 -1.1818 -0.3642 0
M  V30 12 H 1.4442 0.421 -1.5567 0
M  V30 END ATOM
M  V30 BEGIN BOND
M  V30 1 1 1 2
M  V30 2 1 2 3
M  V30 3 1 2 4
M  V30 4 1 3 5
M  V30 5 1 4 6
M  V30 6 1 4 7
M  V30 7 1 4 8
M  V30 8 1 5 9
M  V30 9 1 5 10
M  V30 10 1 2 11
M  V30 11 1 5 12
M  V30 END BOND
M  V30 BEGIN COLLECTION
M  V30 MDLV30/STEABS ATOMS=(1 2)
M  V30 END COLLECTION
M  V30 END CTAB
M  END
>  <Structure No>
5929

>  <LogS>
-1.6157

>  <MMFF94 Energy>
22.981

$$$$
Compound 5930
Actelion Java MolfileCreator 2.0

  0  0  0  0  0  0              0 V3000
M  V30 BEGIN CTAB
M  V30 COUNTS 17 16 0 0 0
M  V30 BEGIN ATOM
M  V30 1 O 0.617 1.9294 -1.7749 0
M  V30 2 N -0.1493 1.6289 -0.8362 0
M  V30 3 N -0.0519 0.3909 -0.176 0
M  V30 4 C -0.997 0.0989 0.9026 0
M  V30 5 C 0.9911 -0.5756 -0.5387 0
M  V30 6 C -2.3859 -0.1623 0.3333 0
M  V30 7 C 2.3279 -0.1677 0.0688 0
M  V30 8 H -0.6709 -0.7901 1.4851 0
M  V30 9 H -1.0368 0.9615 1.6021 0
M  V30 10 H 0.7247 -1.592 -0.1756 0
M  V30 11 H 1.0807 -0.6367 -1.6445 0
M  V30 12 H -3.0897 -0.3982 1.1591 0
M  V30 13 H -2.7562 0.7352 -0.2056 0
M  V30 14 H -2.3534 -1.023 -0.3678 0
M  V30 15 H 2.2432 -0.1196 1.1752 0
M  V30 16 H 2.6424 0.8248 -0.316 0
M  V30 17 H 3.1031 -0.9159 -0.1991 0
M  V30 END ATOM
M  V30 BEGIN BOND
M  V30 1 2 1 2
M  V30 2 1 2 3
M  V30 3 1 3 4
M  V30 4 1 3 5
M  V30 5 1 4 6
M  V30 6 1 5 7
M  V30 7 1 4 8
M  V30 8 1 4 9
M  V30 9 1 5 10
M  V30 10 1 5 11
M  V30 11 1 6 12
M  V30 12 1 6 13
M  V30 13 1 6 14
M  V30 14 1 7 15
M  V30 15 1 7 16
M  V30 16 1 7 17
M  V30 END BOND
M  V30 END CTAB
M  END
>  <Structure No>
5930

>  <LogS>
0.0161

>  <MMFF94 Energy>
0.047641

$$$$
Compound 5931
Actelion Java MolfileCreator 2.0

  0  0  0  0  0  0              0 V3000
M  V30 BEGIN CTAB
M  V30 COUNTS 25 26 0 0 0
M  V30 BEGIN ATOM
M  V30 1 O -0.7977 0.319 -3.2737 0
M  V30 2 N 0.2018 0.126 -2.5506 0
M  V30 3 N 0.0942 0.0326 -1.1498 0
M  V30 4 C 1.3025 -0.0329 -0.3629 0
M  V30 5 C -1.2028 0.0244 -0.5204 0
M  V30 6 C 2.4936 0.5434 -0.8423 0
M  V30 7 C 1.3199 -0.6901 0.8836 0
M  V30 8 C -1.4888 0.9166 0.5271 0
M  V30 9 C -2.1912 -0.8799 -0.9421 0
M  V30 10 C 3.6683 0.4763 -0.087 0
M  V30 11 C 2.4975 -0.7546 1.6345 0
M  V30 12 C -2.7453 0.9039 1.1405 0
M  V30 13 C -3.4467 -0.8896 -0.3262 0
M  V30 14 C 3.6701 -0.1707 1.1505 0
M  V30 15 C -3.7238 0.0018 0.7139 0
M  V30 16 H 2.5122 1.057 -1.795 0
M  V30 17 H 0.4273 -1.1646 1.2708 0
M  V30 18 H -0.7397 1.623 0.8621 0
M  V30 19 H -1.9836 -1.5846 -1.7373 0
M  V30 20 H 4.578 0.9278 -0.4615 0
M  V30 21 H 2.5015 -1.2614 2.5909 0
M  V30 22 H -2.9607 1.5941 1.9461 0
M  V30 23 H -4.2039 -1.5905 -0.6531 0
M  V30 24 H 4.5808 -0.2219 1.7332 0
M  V30 25 H -4.6958 -0.0072 1.19 0
M  V30 END ATOM
M  V30 BEGIN BOND
M  V30 1 2 1 2
M  V30 2 1 2 3
M  V30 3 1 3 4
M  V30 4 1 3 5
M  V30 5 2 4 6
M  V30 6 1 4 7
M  V30 7 2 5 8
M  V30 8 1 5 9
M  V30 9 1 6 10
M  V30 10 2 7 11
M  V30 11 1 8 12
M  V30 12 2 9 13
M  V30 13 2 10 14
M  V30 14 2 12 15
M  V30 15 1 11 14
M  V30 16 1 13 15
M  V30 17 1 6 16
M  V30 18 1 7 17
M  V30 19 1 8 18
M  V30 20 1 9 19
M  V30 21 1 10 20
M  V30 22 1 11 21
M  V30 23 1 12 22
M  V30 24 1 13 23
M  V30 25 1 14 24
M  V30 26 1 15 25
M  V30 END BOND
M  V30 END CTAB
M  END
>  <Structure No>
5931

>  <LogS>
-3.7531

>  <MMFF94 Energy>
63.094

$$$$
Compound 5932
Actelion Java MolfileCreator 2.0

  0  0  0  0  0  0              0 V3000
M  V30 BEGIN CTAB
M  V30 COUNTS 20 21 0 0 0
M  V30 BEGIN ATOM
M  V30 1 O 4.5125 0.6437 0.0 0
M  V30 2 N 3.6082 -0.2079 0.1256 0
M  V30 3 C 2.2203 0.1393 0.0412 0
M  V30 4 C 1.2525 -0.8682 0.1918 0
M  V30 5 C 1.8273 1.4653 -0.1885 0
M  V30 6 O 1.7105 -2.1711 0.4192 0
M  V30 7 C -0.1287 -0.5397 0.1107 0
M  V30 8 C 0.4781 1.7982 -0.2699 0
M  V30 9 C -0.5045 0.8119 -0.123 0
M  V30 10 C -1.15 -1.5054 0.2533 0
M  V30 11 C -1.8612 1.1631 -0.2075 0
M  V30 12 C -2.4953 -1.1372 0.1661 0
M  V30 13 C -2.8499 0.1908 -0.0632 0
M  V30 14 H 2.567 2.2471 -0.3056 0
M  V30 15 H 1.1167 -2.9776 0.5431 0
M  V30 16 H 0.2018 2.8309 -0.4482 0
M  V30 17 H -0.9404 -2.5472 0.432 0
M  V30 18 H -2.1569 2.1905 -0.3854 0
M  V30 19 H -3.2678 -1.8874 0.2773 0
M  V30 20 H -3.8942 0.4676 -0.1293 0
M  V30 END ATOM
M  V30 BEGIN BOND
M  V30 1 2 1 2
M  V30 2 1 2 3
M  V30 3 2 3 4
M  V30 4 1 3 5
M  V30 5 1 4 6
M  V30 6 1 4 7
M  V30 7 2 5 8
M  V30 8 1 7 9
M  V30 9 2 7 10
M  V30 10 2 9 11
M  V30 11 1 10 12
M  V30 12 1 11 13
M  V30 13 1 8 9
M  V30 14 2 12 13
M  V30 15 1 5 14
M  V30 16 1 6 15
M  V30 17 1 8 16
M  V30 18 1 10 17
M  V30 19 1 11 18
M  V30 20 1 12 19
M  V30 21 1 13 20
M  V30 END BOND
M  V30 END CTAB
M  END
>  <Structure No>
5932

>  <LogS>
-2.5395

>  <MMFF94 Energy>
53.693

$$$$
Compound 5933
Actelion Java MolfileCreator 2.0

  0  0  0  0  0  0              0 V3000
M  V30 BEGIN CTAB
M  V30 COUNTS 23 22 0 0 0
M  V30 BEGIN ATOM
M  V30 1 O -0.5427 -2.2501 -1.9395 0
M  V30 2 N 0.3242 -1.6525 -1.2687 0
M  V30 3 N 0.0072 -0.5553 -0.4424 0
M  V30 4 C -1.3833 -0.0648 -0.3381 0
M  V30 5 C 1.1029 0.0811 0.3087 0
M  V30 6 C -1.9088 -0.2015 1.0954 0
M  V30 7 C -1.4969 1.3778 -0.8437 0
M  V30 8 C 1.7375 -0.9235 1.2747 0
M  V30 9 C 2.1475 0.6492 -0.6563 0
M  V30 10 H -2.0519 -0.6778 -0.9793 0
M  V30 11 H 0.7201 0.9277 0.9169 0
M  V30 12 H -1.3711 0.4747 1.7919 0
M  V30 13 H -2.9903 0.0504 1.1283 0
M  V30 14 H -1.7833 -1.2488 1.4434 0
M  V30 15 H -1.0797 1.4503 -1.8705 0
M  V30 16 H -2.5643 1.6845 -0.8779 0
M  V30 17 H -0.9515 2.0842 -0.1841 0
M  V30 18 H 2.5215 -0.4253 1.8841 0
M  V30 19 H 2.1983 -1.7688 0.7204 0
M  V30 20 H 0.9631 -1.3255 1.962 0
M  V30 21 H 2.9408 1.1828 -0.0904 0
M  V30 22 H 1.6663 1.3715 -1.3495 0
M  V30 23 H 2.6173 -0.1613 -1.2531 0
M  V30 END ATOM
M  V30 BEGIN BOND
M  V30 1 2 1 2
M  V30 2 1 2 3
M  V30 3 1 3 4
M  V30 4 1 3 5
M  V30 5 1 4 6
M  V30 6 1 4 7
M  V30 7 1 5 8
M  V30 8 1 5 9
M  V30 9 1 4 10
M  V30 10 1 5 11
M  V30 11 1 6 12
M  V30 12 1 6 13
M  V30 13 1 6 14
M  V30 14 1 7 15
M  V30 15 1 7 16
M  V30 16 1 7 17
M  V30 17 1 8 18
M  V30 18 1 8 19
M  V30 19 1 8 20
M  V30 20 1 9 21
M  V30 21 1 9 22
M  V30 22 1 9 23
M  V30 END BOND
M  V30 END CTAB
M  END
>  <Structure No>
5933

>  <LogS>
-1.0006

>  <MMFF94 Energy>
6.4982

$$$$
Compound 5934
Actelion Java MolfileCreator 2.0

  0  0  0  0  0  0              0 V3000
M  V30 BEGIN CTAB
M  V30 COUNTS 23 22 0 0 0
M  V30 BEGIN ATOM
M  V30 1 O 0.5423 2.6363 -1.1624 0
M  V30 2 N -0.313 1.9973 -0.5152 0
M  V30 3 N -0.1073 0.6545 -0.151 0
M  V30 4 C -1.1847 -0.0521 0.5467 0
M  V30 5 C 1.1547 -0.0277 -0.469 0
M  V30 6 C -2.3812 -0.2882 -0.3815 0
M  V30 7 C 2.2882 0.4413 0.4512 0
M  V30 8 C -2.0345 -1.227 -1.5353 0
M  V30 9 C 2.0441 0.0525 1.908 0
M  V30 10 H -1.5128 0.5589 1.4149 0
M  V30 11 H -0.8287 -1.0251 0.951 0
M  V30 12 H 1.4274 0.1799 -1.5259 0
M  V30 13 H 1.0403 -1.1306 -0.3829 0
M  V30 14 H -3.208 -0.7389 0.2087 0
M  V30 15 H -2.7425 0.681 -0.7884 0
M  V30 16 H 2.4097 1.543 0.3798 0
M  V30 17 H 3.2377 -0.0269 0.1129 0
M  V30 18 H -1.6643 -2.1988 -1.145 0
M  V30 19 H -1.2586 -0.7727 -2.1867 0
M  V30 20 H -2.9422 -1.4128 -2.1473 0
M  V30 21 H 2.9189 0.352 2.5228 0
M  V30 22 H 1.1447 0.5699 2.3031 0
M  V30 23 H 1.9066 -1.046 1.9979 0
M  V30 END ATOM
M  V30 BEGIN BOND
M  V30 1 2 1 2
M  V30 2 1 2 3
M  V30 3 1 3 4
M  V30 4 1 3 5
M  V30 5 1 4 6
M  V30 6 1 5 7
M  V30 7 1 6 8
M  V30 8 1 7 9
M  V30 9 1 4 10
M  V30 10 1 4 11
M  V30 11 1 5 12
M  V30 12 1 5 13
M  V30 13 1 6 14
M  V30 14 1 6 15
M  V30 15 1 7 16
M  V30 16 1 7 17
M  V30 17 1 8 18
M  V30 18 1 8 19
M  V30 19 1 8 20
M  V30 20 1 9 21
M  V30 21 1 9 22
M  V30 22 1 9 23
M  V30 END BOND
M  V30 END CTAB
M  END
>  <Structure No>
5934

>  <LogS>
-1.0006

>  <MMFF94 Energy>
-1.4441

$$$$
Compound 5935
Actelion Java MolfileCreator 2.0

  0  0  0  0  0  0              0 V3000
M  V30 BEGIN CTAB
M  V30 COUNTS 29 28 0 0 0
M  V30 BEGIN ATOM
M  V30 1 O -1.3205 -2.6424 -0.4659 0
M  V30 2 N -0.2246 -2.0494 -0.5423 0
M  V30 3 N -0.0949 -0.6961 -0.1816 0
M  V30 4 C 1.2246 -0.071 -0.2807 0
M  V30 5 C -1.2604 0.0805 0.2575 0
M  V30 6 C 2.1387 -0.5925 0.8342 0
M  V30 7 C -2.1023 0.5002 -0.9538 0
M  V30 8 C 3.4928 0.1313 0.8769 0
M  V30 9 C -3.2617 1.4334 -0.5739 0
M  V30 10 C 4.3869 -0.2188 -0.3119 0
M  V30 11 C -4.365 0.7168 0.2041 0
M  V30 12 H 1.138 1.0351 -0.2056 0
M  V30 13 H 1.6571 -0.3061 -1.276 0
M  V30 14 H -1.8633 -0.5311 0.9609 0
M  V30 15 H -0.931 0.9865 0.8123 0
M  V30 16 H 1.6302 -0.4338 1.8104 0
M  V30 17 H 2.2991 -1.6859 0.7118 0
M  V30 18 H -2.498 -0.399 -1.4735 0
M  V30 19 H -1.4445 1.0391 -1.6702 0
M  V30 20 H 4.0204 -0.1662 1.8089 0
M  V30 21 H 3.3381 1.2315 0.9156 0
M  V30 22 H -2.8832 2.2925 0.0216 0
M  V30 23 H -3.7039 1.8418 -1.5083 0
M  V30 24 H 3.9579 0.1759 -1.256 0
M  V30 25 H 4.5119 -1.3194 -0.3934 0
M  V30 26 H 5.3875 0.2404 -0.1687 0
M  V30 27 H -4.7206 -0.1736 -0.3564 0
M  V30 28 H -5.2219 1.4077 0.3494 0
M  V30 29 H -4.001 0.4036 1.2044 0
M  V30 END ATOM
M  V30 BEGIN BOND
M  V30 1 2 1 2
M  V30 2 1 2 3
M  V30 3 1 3 4
M  V30 4 1 3 5
M  V30 5 1 4 6
M  V30 6 1 5 7
M  V30 7 1 6 8
M  V30 8 1 7 9
M  V30 9 1 8 10
M  V30 10 1 9 11
M  V30 11 1 4 12
M  V30 12 1 4 13
M  V30 13 1 5 14
M  V30 14 1 5 15
M  V30 15 1 6 16
M  V30 16 1 6 17
M  V30 17 1 7 18
M  V30 18 1 7 19
M  V30 19 1 8 20
M  V30 20 1 8 21
M  V30 21 1 9 22
M  V30 22 1 9 23
M  V30 23 1 10 24
M  V30 24 1 10 25
M  V30 25 1 10 26
M  V30 26 1 11 27
M  V30 27 1 11 28
M  V30 28 1 11 29
M  V30 END BOND
M  V30 END CTAB
M  END
>  <Structure No>
5935

>  <LogS>
-2.0955

>  <MMFF94 Energy>
1.1638

$$$$
Compound 5936
Actelion Java MolfileCreator 2.0

  0  0  0  0  0  0              0 V3000
M  V30 BEGIN CTAB
M  V30 COUNTS 23 22 0 0 0
M  V30 BEGIN ATOM
M  V30 1 O 1.9379 -3.0244 -0.6198 0
M  V30 2 N 0.9942 -2.431 -0.0574 0
M  V30 3 N 1.1048 -1.0871 0.3437 0
M  V30 4 C -0.0253 -0.4761 1.0478 0
M  V30 5 C 2.3436 -0.3341 0.1072 0
M  V30 6 C -1.2069 -0.2875 0.0875 0
M  V30 7 C 2.4264 0.1074 -1.3493 0
M  V30 8 C -2.4613 0.2534 0.7909 0
M  V30 9 C -2.3248 1.7202 1.1986 0
M  V30 10 H 0.2662 0.5067 1.4735 0
M  V30 11 H -0.3238 -1.1344 1.8923 0
M  V30 12 H 2.3907 0.5676 0.7549 0
M  V30 13 H 3.2222 -0.9648 0.3615 0
M  V30 14 H -1.4635 -1.271 -0.3628 0
M  V30 15 H -0.9129 0.3939 -0.7403 0
M  V30 16 H 3.3629 0.6812 -1.5123 0
M  V30 17 H 1.5609 0.757 -1.5991 0
M  V30 18 H 2.4269 -0.7738 -2.024 0
M  V30 19 H -3.3205 0.1666 0.0907 0
M  V30 20 H -2.6947 -0.3628 1.6862 0
M  V30 21 H -1.5668 1.8377 2.0003 0
M  V30 22 H -2.0392 2.3425 0.324 0
M  V30 23 H -3.298 2.0862 1.5887 0
M  V30 END ATOM
M  V30 BEGIN BOND
M  V30 1 2 1 2
M  V30 2 1 2 3
M  V30 3 1 3 4
M  V30 4 1 3 5
M  V30 5 1 4 6
M  V30 6 1 5 7
M  V30 7 1 6 8
M  V30 8 1 8 9
M  V30 9 1 4 10
M  V30 10 1 4 11
M  V30 11 1 5 12
M  V30 12 1 5 13
M  V30 13 1 6 14
M  V30 14 1 6 15
M  V30 15 1 7 16
M  V30 16 1 7 17
M  V30 17 1 7 18
M  V30 18 1 8 19
M  V30 19 1 8 20
M  V30 20 1 9 21
M  V30 21 1 9 22
M  V30 22 1 9 23
M  V30 END BOND
M  V30 END CTAB
M  END
>  <Structure No>
5936

>  <LogS>
-1.0354

>  <MMFF94 Energy>
-1.595

$$$$
Compound 5937
Actelion Java MolfileCreator 2.0

  0  0  0  0  0  0              0 V3000
M  V30 BEGIN CTAB
M  V30 COUNTS 20 19 0 0 0
M  V30 BEGIN ATOM
M  V30 1 O 3.0199 -0.232 -2.2449 0
M  V30 2 N 1.9047 -0.4097 -1.7123 0
M  V30 3 N 1.7258 -0.2635 -0.3257 0
M  V30 4 C 0.394 -0.4946 0.2366 0
M  V30 5 C 2.8604 0.0898 0.5302 0
M  V30 6 C -0.5504 0.646 -0.1616 0
M  V30 7 C -1.9262 0.5399 0.5139 0
M  V30 8 C -2.7597 -0.6226 -0.0242 0
M  V30 9 H 0.442 -0.5662 1.3451 0
M  V30 10 H 0.0091 -1.4638 -0.1451 0
M  V30 11 H 2.555 0.1897 1.593 0
M  V30 12 H 3.2874 1.0596 0.1991 0
M  V30 13 H 3.6404 -0.6965 0.4578 0
M  V30 14 H -0.0879 1.6101 0.144 0
M  V30 15 H -0.6738 0.6674 -1.2665 0
M  V30 16 H -1.8057 0.4344 1.6141 0
M  V30 17 H -2.4828 1.4835 0.3263 0
M  V30 18 H -2.3039 -1.5951 0.2544 0
M  V30 19 H -3.7785 -0.5802 0.4154 0
M  V30 20 H -2.8492 -0.5581 -1.1293 0
M  V30 END ATOM
M  V30 BEGIN BOND
M  V30 1 2 1 2
M  V30 2 1 2 3
M  V30 3 1 3 4
M  V30 4 1 3 5
M  V30 5 1 4 6
M  V30 6 1 6 7
M  V30 7 1 7 8
M  V30 8 1 4 9
M  V30 9 1 4 10
M  V30 10 1 5 11
M  V30 11 1 5 12
M  V30 12 1 5 13
M  V30 13 1 6 14
M  V30 14 1 6 15
M  V30 15 1 7 16
M  V30 16 1 7 17
M  V30 17 1 8 18
M  V30 18 1 8 19
M  V30 19 1 8 20
M  V30 END BOND
M  V30 END CTAB
M  END
>  <Structure No>
5937

>  <LogS>
-0.6996

>  <MMFF94 Energy>
1.5539

$$$$
Compound 5938
Actelion Java MolfileCreator 2.0

  0  0  0  0  0  0              0 V3000
M  V30 BEGIN CTAB
M  V30 COUNTS 14 13 0 0 0
M  V30 BEGIN ATOM
M  V30 1 O -1.6156 -0.3075 2.3086 0
M  V30 2 N -0.817 -0.7623 1.4634 0
M  V30 3 N -0.5702 -0.0879 0.255 0
M  V30 4 C 0.3695 -0.68 -0.6983 0
M  V30 5 C -1.2663 1.1653 -0.0448 0
M  V30 6 C 1.7956 -0.5722 -0.1721 0
M  V30 7 H 0.1107 -1.7493 -0.8551 0
M  V30 8 H 0.3106 -0.173 -1.6856 0
M  V30 9 H -1.0381 1.9144 0.7422 0
M  V30 10 H -2.3616 0.9857 -0.0717 0
M  V30 11 H -0.9515 1.5831 -1.0241 0
M  V30 12 H 1.8954 -1.124 0.7867 0
M  V30 13 H 2.5002 -1.0096 -0.9104 0
M  V30 14 H 2.0613 0.4941 -0.01 0
M  V30 END ATOM
M  V30 BEGIN BOND
M  V30 1 2 1 2
M  V30 2 1 2 3
M  V30 3 1 3 4
M  V30 4 1 3 5
M  V30 5 1 4 6
M  V30 6 1 4 7
M  V30 7 1 4 8
M  V30 8 1 5 9
M  V30 9 1 5 10
M  V30 10 1 5 11
M  V30 11 1 6 12
M  V30 12 1 6 13
M  V30 13 1 6 14
M  V30 END BOND
M  V30 END CTAB
M  END
>  <Structure No>
5938

>  <LogS>
0.5321

>  <MMFF94 Energy>
2.1378

$$$$
Compound 5939
Actelion Java MolfileCreator 2.0

  0  0  0  0  0  0              0 V3000
M  V30 BEGIN CTAB
M  V30 COUNTS 25 26 0 0 0
M  V30 BEGIN ATOM
M  V30 1 C -0.079 0.0 0.0 0
M  V30 2 C 1.4008 -0.0713 0.1047 0
M  V30 3 C -0.8953 -0.7006 0.9065 0
M  V30 4 C -0.6882 0.774 -1.0043 0
M  V30 5 C 2.0321 -0.0445 1.363 0
M  V30 6 C 2.1963 -0.1666 -1.053 0
M  V30 7 C -2.2879 -0.6326 0.8068 0
M  V30 8 C -2.081 0.8416 -1.1018 0
M  V30 9 C 3.4254 -0.1112 1.4581 0
M  V30 10 C 3.5892 -0.234 -0.9518 0
M  V30 11 C -2.8892 0.1263 -0.207 0
M  V30 12 C 4.2031 -0.2062 0.3021 0
M  V30 13 C -4.3834 0.2307 -0.2883 0
M  V30 14 H -0.4571 -1.3131 1.6843 0
M  V30 15 H -0.0877 1.3445 -1.7016 0
M  V30 16 H 1.45 0.0462 2.2716 0
M  V30 17 H 1.741 -0.2067 -2.0345 0
M  V30 18 H -2.8973 -1.1759 1.5186 0
M  V30 19 H -2.5289 1.4544 -1.8744 0
M  V30 20 H 3.9026 -0.0858 2.4293 0
M  V30 21 H 4.1928 -0.3113 -1.8468 0
M  V30 22 H 5.2815 -0.2581 0.3782 0
M  V30 23 H -4.7083 0.3932 -1.3381 0
M  V30 24 H -4.7283 1.0829 0.3335 0
M  V30 25 H -4.862 -0.7024 0.0781 0
M  V30 END ATOM
M  V30 BEGIN BOND
M  V30 1 1 1 2
M  V30 2 2 1 3
M  V30 3 1 1 4
M  V30 4 2 2 5
M  V30 5 1 2 6
M  V30 6 1 3 7
M  V30 7 2 4 8
M  V30 8 1 5 9
M  V30 9 2 6 10
M  V30 10 2 7 11
M  V30 11 2 9 12
M  V30 12 1 11 13
M  V30 13 1 8 11
M  V30 14 1 10 12
M  V30 15 1 3 14
M  V30 16 1 4 15
M  V30 17 1 5 16
M  V30 18 1 6 17
M  V30 19 1 7 18
M  V30 20 1 8 19
M  V30 21 1 9 20
M  V30 22 1 10 21
M  V30 23 1 12 22
M  V30 24 1 13 23
M  V30 25 1 13 24
M  V30 26 1 13 25
M  V30 END BOND
M  V30 END CTAB
M  END
>  <Structure No>
5939

>  <LogS>
-4.6185

>  <MMFF94 Energy>
41.431

$$$$
Compound 5940
Actelion Java MolfileCreator 2.0

  0  0  0  0  0  0              0 V3000
M  V30 BEGIN CTAB
M  V30 COUNTS 22 23 0 0 0
M  V30 BEGIN ATOM
M  V30 1 Cl -3.8972 2.3204 0.9111 0
M  V30 2 C -2.9087 0.9791 0.362 0
M  V30 3 C -1.52 1.0178 0.5318 0
M  V30 4 C -3.5085 -0.1259 -0.2485 0
M  V30 5 C -0.7172 -0.0512 0.0905 0
M  V30 6 C -2.722 -1.192 -0.6901 0
M  V30 7 C 0.7567 -0.0125 0.2699 0
M  V30 8 C -1.3344 -1.1574 -0.5234 0
M  V30 9 C 1.32 0.4839 1.4609 0
M  V30 10 C 1.6135 -0.4716 -0.7482 0
M  V30 11 C 2.7092 0.5197 1.6277 0
M  V30 12 C 3.0005 -0.4333 -0.5774 0
M  V30 13 Cl 3.3981 1.1354 3.1191 0
M  V30 14 C 3.5481 0.0612 0.608 0
M  V30 15 H -1.0695 1.8889 0.9911 0
M  V30 16 H -4.5824 -0.1596 -0.3812 0
M  V30 17 H -3.1884 -2.0487 -1.1594 0
M  V30 18 H -0.7466 -2.0029 -0.8579 0
M  V30 19 H 0.6836 0.8268 2.2675 0
M  V30 20 H 1.2119 -0.8432 -1.6825 0
M  V30 21 H 3.6518 -0.7844 -1.3674 0
M  V30 22 H 4.6231 0.0876 0.7333 0
M  V30 END ATOM
M  V30 BEGIN BOND
M  V30 1 1 1 2
M  V30 2 2 2 3
M  V30 3 1 2 4
M  V30 4 1 3 5
M  V30 5 2 4 6
M  V30 6 1 5 7
M  V30 7 2 5 8
M  V30 8 2 7 9
M  V30 9 1 7 10
M  V30 10 1 9 11
M  V30 11 2 10 12
M  V30 12 1 11 13
M  V30 13 2 11 14
M  V30 14 1 6 8
M  V30 15 1 12 14
M  V30 16 1 3 15
M  V30 17 1 4 16
M  V30 18 1 6 17
M  V30 19 1 8 18
M  V30 20 1 9 19
M  V30 21 1 10 20
M  V30 22 1 12 21
M  V30 23 1 14 22
M  V30 END BOND
M  V30 END CTAB
M  END
>  <Structure No>
5940

>  <LogS>
-5.7983

>  <MMFF94 Energy>
33.951

$$$$
Compound 5941
Actelion Java MolfileCreator 2.0

  0  0  0  0  0  0              0 V3000
M  V30 BEGIN CTAB
M  V30 COUNTS 22 23 0 0 0
M  V30 BEGIN ATOM
M  V30 1 Cl -5.3096 0.4968 0.0 0
M  V30 2 C -3.5637 0.3266 0.0123 0
M  V30 3 C -2.7636 1.3549 0.5187 0
M  V30 4 C -2.9705 -0.8374 -0.4842 0
M  V30 5 C -1.372 1.2211 0.5301 0
M  V30 6 C -1.5791 -0.975 -0.4757 0
M  V30 7 C -0.7632 0.0535 0.0322 0
M  V30 8 C 0.7151 -0.0905 0.0426 0
M  V30 9 C 1.3852 -0.6722 -1.0501 0
M  V30 10 C 1.4697 0.3522 1.1456 0
M  V30 11 C 2.7769 -0.8065 -1.0383 0
M  V30 12 C 2.8611 0.215 1.1535 0
M  V30 13 C 3.5157 -0.3636 0.0625 0
M  V30 14 Cl 5.2615 -0.5338 0.0749 0
M  V30 15 H -3.2186 2.26 0.901 0
M  V30 16 H -3.5863 -1.638 -0.8738 0
M  V30 17 H -0.7717 2.0377 0.9113 0
M  V30 18 H -1.1427 -1.8927 -0.8496 0
M  V30 19 H 0.8354 -1.0066 -1.9208 0
M  V30 20 H 0.9827 0.7879 2.0092 0
M  V30 21 H 3.2798 -1.2518 -1.8873 0
M  V30 22 H 3.4287 0.5561 2.0101 0
M  V30 END ATOM
M  V30 BEGIN BOND
M  V30 1 1 1 2
M  V30 2 2 2 3
M  V30 3 1 2 4
M  V30 4 1 3 5
M  V30 5 2 4 6
M  V30 6 2 5 7
M  V30 7 1 7 8
M  V30 8 2 8 9
M  V30 9 1 8 10
M  V30 10 1 9 11
M  V30 11 2 10 12
M  V30 12 2 11 13
M  V30 13 1 13 14
M  V30 14 1 6 7
M  V30 15 1 12 13
M  V30 16 1 3 15
M  V30 17 1 4 16
M  V30 18 1 5 17
M  V30 19 1 6 18
M  V30 20 1 9 19
M  V30 21 1 10 20
M  V30 22 1 11 21
M  V30 23 1 12 22
M  V30 END BOND
M  V30 END CTAB
M  END
>  <Structure No>
5941

>  <LogS>
-6.5561

>  <MMFF94 Energy>
35.842

$$$$
Compound 5942
Actelion Java MolfileCreator 2.0

  0  0  0  0  0  0              0 V3000
M  V30 BEGIN CTAB
M  V30 COUNTS 22 23 0 0 0
M  V30 BEGIN ATOM
M  V30 1 Cl -0.7289 -1.4582 -2.3501 0
M  V30 2 C -1.5136 -0.6347 -1.0056 0
M  V30 3 C -0.7738 -0.0379 0.0404 0
M  V30 4 C -2.9136 -0.6258 -0.9618 0
M  V30 5 C 0.706 -0.0101 0.0303 0
M  V30 6 C -1.4613 0.542 1.1211 0
M  V30 7 C -3.583 -0.0351 0.112 0
M  V30 8 C 1.4297 -0.5401 1.1123 0
M  V30 9 C 1.4026 0.5791 -1.0388 0
M  V30 10 C -2.8579 0.545 1.1537 0
M  V30 11 C 2.8272 -0.4996 1.1132 0
M  V30 12 C 2.8002 0.6175 -1.0336 0
M  V30 13 C 3.5121 0.0769 0.0403 0
M  V30 14 H -3.4855 -1.086 -1.7575 0
M  V30 15 H -0.9146 1.0046 1.934 0
M  V30 16 H -4.665 -0.033 0.1398 0
M  V30 17 H 0.9118 -0.9919 1.9495 0
M  V30 18 H 0.8638 1.0172 -1.8698 0
M  V30 19 H -3.3784 0.9994 1.9869 0
M  V30 20 H 3.3795 -0.9148 1.9463 0
M  V30 21 H 3.3314 1.0708 -1.8606 0
M  V30 22 H 4.5939 0.1083 0.043 0
M  V30 END ATOM
M  V30 BEGIN BOND
M  V30 1 1 1 2
M  V30 2 2 2 3
M  V30 3 1 2 4
M  V30 4 1 3 5
M  V30 5 1 3 6
M  V30 6 2 4 7
M  V30 7 2 5 8
M  V30 8 1 5 9
M  V30 9 2 6 10
M  V30 10 1 8 11
M  V30 11 2 9 12
M  V30 12 2 11 13
M  V30 13 1 7 10
M  V30 14 1 12 13
M  V30 15 1 4 14
M  V30 16 1 6 15
M  V30 17 1 7 16
M  V30 18 1 8 17
M  V30 19 1 9 18
M  V30 20 1 10 19
M  V30 21 1 11 20
M  V30 22 1 12 21
M  V30 23 1 13 22
M  V30 END BOND
M  V30 END CTAB
M  END
>  <Structure No>
5942

>  <LogS>
-4.5917

>  <MMFF94 Energy>
46.88

$$$$
Compound 5943
Actelion Java MolfileCreator 2.0

  0  0  0  0  0  0              0 V3000
M  V30 BEGIN CTAB
M  V30 COUNTS 22 23 0 0 0
M  V30 BEGIN ATOM
M  V30 1 Cl -3.4833 -2.2382 1.8234 0
M  V30 2 C -2.7163 -1.0538 0.774 0
M  V30 3 C -3.479 -0.21 -0.0497 0
M  V30 4 C -1.3199 -0.9555 0.7702 0
M  V30 5 Cl -5.2349 -0.3023 -0.075 0
M  V30 6 C -2.8379 0.724 -0.8688 0
M  V30 7 C -0.6689 -0.0173 -0.0517 0
M  V30 8 C -1.4442 0.8218 -0.8713 0
M  V30 9 C 0.8129 0.0847 -0.0539 0
M  V30 10 C 1.6104 -1.0747 -0.0114 0
M  V30 11 C 1.4436 1.3428 -0.0987 0
M  V30 12 C 3.0051 -0.9755 -0.014 0
M  V30 13 C 2.8387 1.4359 -0.1001 0
M  V30 14 C 3.6186 0.2783 -0.058 0
M  V30 15 H -0.7456 -1.6005 1.4236 0
M  V30 16 H -3.4198 1.3749 -1.509 0
M  V30 17 H -0.9724 1.5421 -1.5278 0
M  V30 18 H 1.1563 -2.0574 0.0059 0
M  V30 19 H 0.8588 2.2539 -0.1146 0
M  V30 20 H 3.6105 -1.8721 0.0147 0
M  V30 21 H 3.3154 2.4073 -0.1305 0
M  V30 22 H 4.6983 0.3527 -0.0596 0
M  V30 END ATOM
M  V30 BEGIN BOND
M  V30 1 1 1 2
M  V30 2 2 2 3
M  V30 3 1 2 4
M  V30 4 1 3 5
M  V30 5 1 3 6
M  V30 6 2 4 7
M  V30 7 2 6 8
M  V30 8 1 7 9
M  V30 9 2 9 10
M  V30 10 1 9 11
M  V30 11 1 10 12
M  V30 12 2 11 13
M  V30 13 2 12 14
M  V30 14 1 7 8
M  V30 15 1 13 14
M  V30 16 1 4 15
M  V30 17 1 6 16
M  V30 18 1 8 17
M  V30 19 1 10 18
M  V30 20 1 11 19
M  V30 21 1 12 20
M  V30 22 1 13 21
M  V30 23 1 14 22
M  V30 END BOND
M  V30 END CTAB
M  END
>  <Structure No>
5943

>  <LogS>
-6.3899

>  <MMFF94 Energy>
43.542

$$$$
Compound 5944
Actelion Java MolfileCreator 2.0

  0  0  0  0  0  0              0 V3000
M  V30 BEGIN CTAB
M  V30 COUNTS 22 23 0 0 0
M  V30 BEGIN ATOM
M  V30 1 Cl 0.8283 -2.6525 0.6626 0
M  V30 2 C 1.5152 -1.1134 0.1538 0
M  V30 3 C 0.7046 0.0195 -0.0711 0
M  V30 4 C 2.9038 -1.0174 7.0E-4 0
M  V30 5 C -0.7659 -0.0481 0.0655 0
M  V30 6 C 1.3052 1.232 -0.4489 0
M  V30 7 C 3.4899 0.1936 -0.3751 0
M  V30 8 C -1.441 0.6551 1.0857 0
M  V30 9 C -1.5071 -0.8144 -0.8492 0
M  V30 10 C 2.6917 1.3171 -0.5988 0
M  V30 11 Cl -0.5684 1.605 2.284 0
M  V30 12 C -2.8365 0.5807 1.1767 0
M  V30 13 C -2.8992 -0.882 -0.7496 0
M  V30 14 C -3.5631 -0.1846 0.2615 0
M  V30 15 H 3.5314 -1.8817 0.1772 0
M  V30 16 H 0.6974 2.1099 -0.632 0
M  V30 17 H 4.5637 0.2617 -0.4914 0
M  V30 18 H -1.0058 -1.3551 -1.6426 0
M  V30 19 H 3.1473 2.2545 -0.8905 0
M  V30 20 H -3.3597 1.1137 1.9606 0
M  V30 21 H -3.4637 -1.474 -1.4583 0
M  V30 22 H -4.6415 -0.2385 0.3373 0
M  V30 END ATOM
M  V30 BEGIN BOND
M  V30 1 1 1 2
M  V30 2 2 2 3
M  V30 3 1 2 4
M  V30 4 1 3 5
M  V30 5 1 3 6
M  V30 6 2 4 7
M  V30 7 2 5 8
M  V30 8 1 5 9
M  V30 9 2 6 10
M  V30 10 1 8 11
M  V30 11 1 8 12
M  V30 12 2 9 13
M  V30 13 2 12 14
M  V30 14 1 7 10
M  V30 15 1 13 14
M  V30 16 1 4 15
M  V30 17 1 6 16
M  V30 18 1 7 17
M  V30 19 1 9 18
M  V30 20 1 10 19
M  V30 21 1 12 20
M  V30 22 1 13 21
M  V30 23 1 14 22
M  V30 END BOND
M  V30 END CTAB
M  END
>  <Structure No>
5944

>  <LogS>
-5.0813

>  <MMFF94 Energy>
51.08

$$$$
Compound 5945
Actelion Java MolfileCreator 2.0

  0  0  0  0  0  0              0 V3000
M  V30 BEGIN CTAB
M  V30 COUNTS 22 23 0 0 0
M  V30 BEGIN ATOM
M  V30 1 Cl 0.6922 2.5977 -0.8653 0
M  V30 2 C 1.4816 1.1167 -0.3336 0
M  V30 3 C 0.7365 -0.0304 0.0081 0
M  V30 4 C 2.8781 1.0915 -0.2532 0
M  V30 5 C -0.7402 -0.0121 -0.0739 0
M  V30 6 C 1.4105 -1.1952 0.429 0
M  V30 7 C 3.5384 -0.0651 0.1642 0
M  V30 8 C -1.5093 0.3805 1.0407 0
M  V30 9 C -1.3904 -0.3872 -1.2676 0
M  V30 10 Cl 0.5305 -2.6556 0.8678 0
M  V30 11 C 2.8075 -1.2046 0.5042 0
M  V30 12 Cl -0.7504 0.8585 2.5557 0
M  V30 13 C -2.9058 0.3952 0.9551 0
M  V30 14 Cl -0.4801 -0.8857 -2.6895 0
M  V30 15 C -2.7876 -0.3673 -1.3376 0
M  V30 16 C -3.5424 0.0227 -0.2298 0
M  V30 17 H 3.454 1.9702 -0.5148 0
M  V30 18 H 4.6189 -0.0784 0.2243 0
M  V30 19 H 3.3288 -2.0968 0.8268 0
M  V30 20 H -3.5 0.6961 1.8087 0
M  V30 21 H -3.2907 -0.6544 -2.252 0
M  V30 22 H -4.623 0.0361 -0.2899 0
M  V30 END ATOM
M  V30 BEGIN BOND
M  V30 1 1 1 2
M  V30 2 2 2 3
M  V30 3 1 2 4
M  V30 4 1 3 5
M  V30 5 1 3 6
M  V30 6 2 4 7
M  V30 7 2 5 8
M  V30 8 1 5 9
M  V30 9 1 6 10
M  V30 10 2 6 11
M  V30 11 1 8 12
M  V30 12 1 8 13
M  V30 13 1 9 14
M  V30 14 2 9 15
M  V30 15 2 13 16
M  V30 16 1 7 11
M  V30 17 1 15 16
M  V30 18 1 4 17
M  V30 19 1 7 18
M  V30 20 1 11 19
M  V30 21 1 13 20
M  V30 22 1 15 21
M  V30 23 1 16 22
M  V30 END BOND
M  V30 END CTAB
M  END
>  <Structure No>
5945

>  <LogS>
-7.3898

>  <MMFF94 Energy>
42.877

$$$$
Compound 5946
Actelion Java MolfileCreator 2.0

  0  0  0  0  0  0              0 V3000
M  V30 BEGIN CTAB
M  V30 COUNTS 22 23 0 0 0
M  V30 BEGIN ATOM
M  V30 1 Cl -1.0773 2.5704 -0.5799 0
M  V30 2 C -1.6313 0.9274 -0.2429 0
M  V30 3 C -3.0106 0.6438 -0.2577 0
M  V30 4 C -0.7053 -0.1159 -0.009 0
M  V30 5 Cl -4.2018 1.9063 -0.5451 0
M  V30 6 C -3.4594 -0.6638 -0.0494 0
M  V30 7 C 0.7531 0.132 0.0349 0
M  V30 8 C -1.1771 -1.4248 0.185 0
M  V30 9 C -2.5457 -1.6947 0.1671 0
M  V30 10 C 1.2961 1.0362 0.9641 0
M  V30 11 C 1.6143 -0.5665 -0.8279 0
M  V30 12 C 2.6766 1.2523 1.013 0
M  V30 13 C 2.9943 -0.3473 -0.7756 0
M  V30 14 C 3.5249 0.5628 0.1425 0
M  V30 15 H -4.5195 -0.8839 -0.0609 0
M  V30 16 H -0.4826 -2.2368 0.3638 0
M  V30 17 H -2.8993 -2.7056 0.3242 0
M  V30 18 H 0.6519 1.5657 1.6553 0
M  V30 19 H 1.2162 -1.2735 -1.5454 0
M  V30 20 H 3.0893 1.9515 1.7288 0
M  V30 21 H 3.6525 -0.8836 -1.4466 0
M  V30 22 H 4.5933 0.7307 0.1822 0
M  V30 END ATOM
M  V30 BEGIN BOND
M  V30 1 1 1 2
M  V30 2 2 2 3
M  V30 3 1 2 4
M  V30 4 1 3 5
M  V30 5 1 3 6
M  V30 6 1 4 7
M  V30 7 2 4 8
M  V30 8 2 6 9
M  V30 9 2 7 10
M  V30 10 1 7 11
M  V30 11 1 10 12
M  V30 12 2 11 13
M  V30 13 2 12 14
M  V30 14 1 8 9
M  V30 15 1 13 14
M  V30 16 1 6 15
M  V30 17 1 8 16
M  V30 18 1 9 17
M  V30 19 1 10 18
M  V30 20 1 11 19
M  V30 21 1 12 20
M  V30 22 1 13 21
M  V30 23 1 14 22
M  V30 END BOND
M  V30 END CTAB
M  END
>  <Structure No>
5946

>  <LogS>
-5.3498

>  <MMFF94 Energy>
53.517

$$$$
Compound 5947
Actelion Java MolfileCreator 2.0

  0  0  0  0  0  0              0 V3000
M  V30 BEGIN CTAB
M  V30 COUNTS 22 23 0 0 0
M  V30 BEGIN ATOM
M  V30 1 Cl 4.9645 -1.5052 -1.0623 0
M  V30 2 C 3.3145 -0.9923 -0.6988 0
M  V30 3 C 2.4718 -0.552 -1.7336 0
M  V30 4 C 2.8448 -1.0245 0.6253 0
M  V30 5 Cl 3.0637 -0.516 -3.3966 0
M  V30 6 C 1.1576 -0.1438 -1.4462 0
M  V30 7 Cl 3.907 -1.5747 1.924 0
M  V30 8 C 1.5317 -0.6157 0.917 0
M  V30 9 Cl 0.0951 0.3781 -2.7597 0
M  V30 10 C 0.6834 -0.1741 -0.1188 0
M  V30 11 Cl 0.9608 -0.6299 2.5905 0
M  V30 12 C -0.6981 0.2553 0.1855 0
M  V30 13 C -1.6745 -0.694 0.5264 0
M  V30 14 C -1.0425 1.6155 0.1359 0
M  V30 15 C -2.9806 -0.2855 0.8142 0
M  V30 16 C -2.3498 2.0197 0.4239 0
M  V30 17 C -3.3182 1.0701 0.7629 0
M  V30 18 H -1.4233 -1.7468 0.5669 0
M  V30 19 H -0.2989 2.3592 -0.1237 0
M  V30 20 H -3.7313 -1.0199 1.0766 0
M  V30 21 H -2.6122 3.0691 0.3849 0
M  V30 22 H -4.3295 1.3845 0.9858 0
M  V30 END ATOM
M  V30 BEGIN BOND
M  V30 1 1 1 2
M  V30 2 2 2 3
M  V30 3 1 2 4
M  V30 4 1 3 5
M  V30 5 1 3 6
M  V30 6 1 4 7
M  V30 7 2 4 8
M  V30 8 1 6 9
M  V30 9 2 6 10
M  V30 10 1 8 11
M  V30 11 1 10 12
M  V30 12 2 12 13
M  V30 13 1 12 14
M  V30 14 1 13 15
M  V30 15 2 14 16
M  V30 16 2 15 17
M  V30 17 1 8 10
M  V30 18 1 16 17
M  V30 19 1 13 18
M  V30 20 1 14 19
M  V30 21 1 15 20
M  V30 22 1 16 21
M  V30 23 1 17 22
M  V30 END BOND
M  V30 END CTAB
M  END
>  <Structure No>
5947

>  <LogS>
-7.9107

>  <MMFF94 Energy>
59.587

$$$$
Compound 5948
Actelion Java MolfileCreator 2.0

  0  0  0  0  0  0              0 V3000
M  V30 BEGIN CTAB
M  V30 COUNTS 22 23 0 0 0
M  V30 BEGIN ATOM
M  V30 1 Cl -0.3312 2.4862 -1.3254 0
M  V30 2 C -1.3293 1.2269 -0.6042 0
M  V30 3 C -0.7648 0.0988 0.0332 0
M  V30 4 C -2.7202 1.3908 -0.6274 0
M  V30 5 C 0.6981 -0.1239 0.0705 0
M  V30 6 C -1.6149 -0.8352 0.6514 0
M  V30 7 C -3.5527 0.4485 -0.0198 0
M  V30 8 C 1.4391 -0.2024 -1.121 0
M  V30 9 C 1.3546 -0.297 1.3007 0
M  V30 10 C -3.0007 -0.6611 0.6214 0
M  V30 11 C 2.8195 -0.429 -1.0802 0
M  V30 12 C 2.7336 -0.5236 1.338 0
M  V30 13 Cl 3.7375 -0.5205 -2.5719 0
M  V30 14 C 3.4659 -0.5875 0.1497 0
M  V30 15 H -3.1578 2.2557 -1.1097 0
M  V30 16 H -1.204 -1.7068 1.1462 0
M  V30 17 H -4.6267 0.5822 -0.0407 0
M  V30 18 H 0.9436 -0.0979 -2.0786 0
M  V30 19 H 0.8002 -0.2474 2.23 0
M  V30 20 H -3.6474 -1.3887 1.0948 0
M  V30 21 H 3.2347 -0.65 2.2889 0
M  V30 22 H 4.5334 -0.7635 0.1858 0
M  V30 END ATOM
M  V30 BEGIN BOND
M  V30 1 1 1 2
M  V30 2 2 2 3
M  V30 3 1 2 4
M  V30 4 1 3 5
M  V30 5 1 3 6
M  V30 6 2 4 7
M  V30 7 2 5 8
M  V30 8 1 5 9
M  V30 9 2 6 10
M  V30 10 1 8 11
M  V30 11 2 9 12
M  V30 12 1 11 13
M  V30 13 2 11 14
M  V30 14 1 7 10
M  V30 15 1 12 14
M  V30 16 1 4 15
M  V30 17 1 6 16
M  V30 18 1 7 17
M  V30 19 1 8 18
M  V30 20 1 9 19
M  V30 21 1 10 20
M  V30 22 1 12 21
M  V30 23 1 14 22
M  V30 END BOND
M  V30 END CTAB
M  END
>  <Structure No>
5948

>  <LogS>
-5.5851

>  <MMFF94 Energy>
42.324

$$$$
Compound 5949
Actelion Java MolfileCreator 2.0

  0  0  0  0  0  0              0 V3000
M  V30 BEGIN CTAB
M  V30 COUNTS 22 23 0 0 0
M  V30 BEGIN ATOM
M  V30 1 Cl -5.3111 -0.3534 -0.4418 0
M  V30 2 C -3.5651 -0.2217 -0.2799 0
M  V30 3 C -2.9475 1.0157 -0.0425 0
M  V30 4 C -2.7852 -1.3758 -0.3988 0
M  V30 5 Cl -3.8915 2.4918 0.1079 0
M  V30 6 C -1.5561 1.0866 0.08 0
M  V30 7 C -1.3927 -1.3105 -0.2768 0
M  V30 8 C -0.7664 -0.0703 -0.026 0
M  V30 9 Cl -0.4671 -2.7908 -0.5088 0
M  V30 10 C 0.7016 0.044 0.1239 0
M  V30 11 C 1.4278 0.9235 -0.6951 0
M  V30 12 C 1.3774 -0.6931 1.1089 0
M  V30 13 C 2.8141 1.0503 -0.5476 0
M  V30 14 C 2.7609 -0.5681 1.2578 0
M  V30 15 Cl 3.6844 2.1562 -1.6018 0
M  V30 16 C 3.4843 0.2991 0.4324 0
M  V30 17 Cl 5.2241 0.4295 0.6505 0
M  V30 18 H -3.2631 -2.3274 -0.596 0
M  V30 19 H -1.089 2.0455 0.2717 0
M  V30 20 H 0.9168 1.5038 -1.4541 0
M  V30 21 H 0.8319 -1.357 1.7681 0
M  V30 22 H 3.2699 -1.1442 2.02 0
M  V30 END ATOM
M  V30 BEGIN BOND
M  V30 1 1 1 2
M  V30 2 2 2 3
M  V30 3 1 2 4
M  V30 4 1 3 5
M  V30 5 1 3 6
M  V30 6 2 4 7
M  V30 7 2 6 8
M  V30 8 1 7 9
M  V30 9 1 8 10
M  V30 10 2 10 11
M  V30 11 1 10 12
M  V30 12 1 11 13
M  V30 13 2 12 14
M  V30 14 1 13 15
M  V30 15 2 13 16
M  V30 16 1 16 17
M  V30 17 1 7 8
M  V30 18 1 14 16
M  V30 19 1 4 18
M  V30 20 1 6 19
M  V30 21 1 11 20
M  V30 22 1 12 21
M  V30 23 1 14 22
M  V30 END BOND
M  V30 END CTAB
M  END
>  <Structure No>
5949

>  <LogS>
-7.3867

>  <MMFF94 Energy>
48.273

$$$$
Compound 5950
Actelion Java MolfileCreator 2.0

  0  0  0  0  0  0              0 V3000
M  V30 BEGIN CTAB
M  V30 COUNTS 22 23 0 0 0
M  V30 BEGIN ATOM
M  V30 1 Cl 3.1174 1.6444 2.9441 0
M  V30 2 C 2.582 0.7627 1.5199 0
M  V30 3 C 3.504 0.1692 0.6414 0
M  V30 4 C 1.2093 0.652 1.268 0
M  V30 5 Cl 5.2362 0.285 0.9218 0
M  V30 6 C 3.0438 -0.5326 -0.4778 0
M  V30 7 C 0.7456 -0.0407 0.1376 0
M  V30 8 C 1.6733 -0.6415 -0.7274 0
M  V30 9 C -0.7059 -0.1723 -0.121 0
M  V30 10 C -1.5439 0.9585 -0.2494 0
M  V30 11 C -1.2649 -1.4562 -0.2451 0
M  V30 12 Cl -0.9079 2.6002 -0.193 0
M  V30 13 C -2.9149 0.788 -0.4801 0
M  V30 14 C -2.6336 -1.6151 -0.4749 0
M  V30 15 C -3.4596 -0.4945 -0.5892 0
M  V30 16 Cl -5.1779 -0.6967 -0.8797 0
M  V30 17 H 0.5031 1.0976 1.9586 0
M  V30 18 H 3.7487 -0.9953 -1.1568 0
M  V30 19 H 1.3354 -1.1865 -1.6005 0
M  V30 20 H -0.641 -2.3368 -0.1506 0
M  V30 21 H -3.5565 1.6543 -0.5836 0
M  V30 22 H -3.0511 -2.6102 -0.5621 0
M  V30 END ATOM
M  V30 BEGIN BOND
M  V30 1 1 1 2
M  V30 2 2 2 3
M  V30 3 1 2 4
M  V30 4 1 3 5
M  V30 5 1 3 6
M  V30 6 2 4 7
M  V30 7 2 6 8
M  V30 8 1 7 9
M  V30 9 2 9 10
M  V30 10 1 9 11
M  V30 11 1 10 12
M  V30 12 1 10 13
M  V30 13 2 11 14
M  V30 14 2 13 15
M  V30 15 1 15 16
M  V30 16 1 7 8
M  V30 17 1 14 15
M  V30 18 1 4 17
M  V30 19 1 6 18
M  V30 20 1 8 19
M  V30 21 1 11 20
M  V30 22 1 13 21
M  V30 23 1 14 22
M  V30 END BOND
M  V30 END CTAB
M  END
>  <Structure No>
5950

>  <LogS>
-6.8995

>  <MMFF94 Energy>
42.774

$$$$
Compound 5951
Actelion Java MolfileCreator 2.0

  0  0  0  0  0  0              0 V3000
M  V30 BEGIN CTAB
M  V30 COUNTS 22 23 0 0 0
M  V30 BEGIN ATOM
M  V30 1 Cl 3.6373 -2.7704 -0.346 0
M  V30 2 C 2.8103 -1.2752 0.0688 0
M  V30 3 C 3.5195 -0.1563 0.5371 0
M  V30 4 C 1.4187 -1.2098 -0.0689 0
M  V30 5 Cl 5.2671 -0.1969 0.7248 0
M  V30 6 C 2.8294 1.0151 0.8666 0
M  V30 7 C 0.7256 -0.0302 0.2486 0
M  V30 8 C 1.4406 1.0782 0.728 0
M  V30 9 C -0.7474 0.0346 0.119 0
M  V30 10 C -1.3977 -0.2285 -1.1076 0
M  V30 11 C -1.5189 0.3704 1.2453 0
M  V30 12 Cl -0.4998 -0.5708 -2.5834 0
M  V30 13 C -2.7947 -0.169 -1.1822 0
M  V30 14 C -2.9133 0.4269 1.1597 0
M  V30 15 C -3.5498 0.1539 -0.053 0
M  V30 16 Cl -3.8635 0.838 2.5757 0
M  V30 17 H 0.8762 -2.0814 -0.4142 0
M  V30 18 H 3.3693 1.8797 1.2315 0
M  V30 19 H 0.9233 1.9945 0.9855 0
M  V30 20 H -1.0366 0.5759 2.1935 0
M  V30 21 H -3.2976 -0.3647 -2.1206 0
M  V30 22 H -4.6292 0.1978 -0.1235 0
M  V30 END ATOM
M  V30 BEGIN BOND
M  V30 1 1 1 2
M  V30 2 2 2 3
M  V30 3 1 2 4
M  V30 4 1 3 5
M  V30 5 1 3 6
M  V30 6 2 4 7
M  V30 7 2 6 8
M  V30 8 1 7 9
M  V30 9 2 9 10
M  V30 10 1 9 11
M  V30 11 1 10 12
M  V30 12 1 10 13
M  V30 13 2 11 14
M  V30 14 2 13 15
M  V30 15 1 14 16
M  V30 16 1 7 8
M  V30 17 1 14 15
M  V30 18 1 4 17
M  V30 19 1 6 18
M  V30 20 1 8 19
M  V30 21 1 11 20
M  V30 22 1 13 21
M  V30 23 1 15 22
M  V30 END BOND
M  V30 END CTAB
M  END
>  <Structure No>
5951

>  <LogS>
-6.8526

>  <MMFF94 Energy>
45.988

$$$$
Compound 5952
Actelion Java MolfileCreator 2.0

  0  0  0  0  0  0              0 V3000
M  V30 BEGIN CTAB
M  V30 COUNTS 22 23 0 0 0
M  V30 BEGIN ATOM
M  V30 1 Cl -5.2864 0.0 0.173 0
M  V30 2 C -3.5279 0.0053 0.1936 0
M  V30 3 C -2.7984 -1.1816 0.3611 0
M  V30 4 C -2.8525 1.2188 0.0317 0
M  V30 5 Cl -3.6092 -2.7291 0.5624 0
M  V30 6 C -1.4002 -1.1432 0.3717 0
M  V30 7 C -1.4537 1.2629 0.0417 0
M  V30 8 C -0.7143 0.0738 0.222 0
M  V30 9 Cl -0.6684 2.8144 -0.2393 0
M  V30 10 C 0.7655 0.0744 0.2535 0
M  V30 11 C 1.4598 0.8558 1.1929 0
M  V30 12 C 1.4908 -0.7388 -0.6333 0
M  V30 13 C 2.8575 0.8391 1.2293 0
M  V30 14 C 2.8886 -0.7535 -0.5945 0
M  V30 15 C 3.5729 0.0365 0.3348 0
M  V30 16 Cl 5.3262 0.0161 0.3826 0
M  V30 17 H -3.4176 2.1317 -0.1115 0
M  V30 18 H -0.8459 -2.064 0.5103 0
M  V30 19 H 0.919 1.4697 1.9029 0
M  V30 20 H 0.9742 -1.3542 -1.3597 0
M  V30 21 H 3.3826 1.4465 1.9556 0
M  V30 22 H 3.4379 -1.3791 -1.2864 0
M  V30 END ATOM
M  V30 BEGIN BOND
M  V30 1 1 1 2
M  V30 2 2 2 3
M  V30 3 1 2 4
M  V30 4 1 3 5
M  V30 5 1 3 6
M  V30 6 2 4 7
M  V30 7 2 6 8
M  V30 8 1 7 9
M  V30 9 1 8 10
M  V30 10 2 10 11
M  V30 11 1 10 12
M  V30 12 1 11 13
M  V30 13 2 12 14
M  V30 14 2 13 15
M  V30 15 1 15 16
M  V30 16 1 7 8
M  V30 17 1 14 15
M  V30 18 1 4 17
M  V30 19 1 6 18
M  V30 20 1 11 19
M  V30 21 1 12 20
M  V30 22 1 13 21
M  V30 23 1 14 22
M  V30 END BOND
M  V30 END CTAB
M  END
>  <Structure No>
5952

>  <LogS>
-7.7699

>  <MMFF94 Energy>
41.667

$$$$
Compound 5953
Actelion Java MolfileCreator 2.0

  0  0  0  0  0  0              0 V3000
M  V30 BEGIN CTAB
M  V30 COUNTS 22 23 0 0 0
M  V30 BEGIN ATOM
M  V30 1 Cl -3.8133 0.0865 2.5989 0
M  V30 2 C -2.8574 0.1637 1.1176 0
M  V30 3 C -1.4578 0.0034 1.1656 0
M  V30 4 C -3.4945 0.3935 -0.1144 0
M  V30 5 Cl -0.6573 -0.2123 2.7265 0
M  V30 6 C -0.7018 0.0666 -0.0273 0
M  V30 7 Cl -5.2389 0.5989 -0.2192 0
M  V30 8 C -2.7399 0.4693 -1.2868 0
M  V30 9 C 0.7672 -0.1148 -0.0298 0
M  V30 10 C -1.3556 0.31 -1.2449 0
M  V30 11 C 1.3401 -1.3049 0.4499 0
M  V30 12 C 1.6015 0.8884 -0.5506 0
M  V30 13 C 2.7274 -1.4783 0.4285 0
M  V30 14 C 2.9884 0.7121 -0.5707 0
M  V30 15 C 3.5526 -0.4696 -0.0795 0
M  V30 16 Cl 5.2927 -0.6894 -0.1064 0
M  V30 17 H -3.2277 0.6496 -2.2365 0
M  V30 18 H -0.7917 0.3635 -2.1685 0
M  V30 19 H 0.7123 -2.1005 0.8322 0
M  V30 20 H 1.1781 1.8094 -0.9328 0
M  V30 21 H 3.1589 -2.3978 0.803 0
M  V30 22 H 3.6229 1.494 -0.9685 0
M  V30 END ATOM
M  V30 BEGIN BOND
M  V30 1 1 1 2
M  V30 2 2 2 3
M  V30 3 1 2 4
M  V30 4 1 3 5
M  V30 5 1 3 6
M  V30 6 1 4 7
M  V30 7 2 4 8
M  V30 8 1 6 9
M  V30 9 2 6 10
M  V30 10 2 9 11
M  V30 11 1 9 12
M  V30 12 1 11 13
M  V30 13 2 12 14
M  V30 14 2 13 15
M  V30 15 1 15 16
M  V30 16 1 8 10
M  V30 17 1 14 15
M  V30 18 1 8 17
M  V30 19 1 10 18
M  V30 20 1 11 19
M  V30 21 1 12 20
M  V30 22 1 13 21
M  V30 23 1 14 22
M  V30 END BOND
M  V30 END CTAB
M  END
>  <Structure No>
5953

>  <LogS>
-6.8754

>  <MMFF94 Energy>
54.597

$$$$
Compound 5954
Actelion Java MolfileCreator 2.0

  0  0  0  0  0  0              0 V3000
M  V30 BEGIN CTAB
M  V30 COUNTS 22 23 0 0 0
M  V30 BEGIN ATOM
M  V30 1 Cl -1.0768 0.1656 2.7351 0
M  V30 2 C -1.636 0.0044 1.0729 0
M  V30 3 C -0.739 -0.0107 -0.019 0
M  V30 4 C -3.016 -0.0572 0.8425 0
M  V30 5 C 0.7273 0.0381 0.1767 0
M  V30 6 C -1.2528 -0.0705 -1.3261 0
M  V30 7 C -3.513 -0.1288 -0.4618 0
M  V30 8 C 1.3776 -0.936 0.9537 0
M  V30 9 C 1.4899 1.0407 -0.4466 0
M  V30 10 C -2.6311 -0.1319 -1.5447 0
M  V30 11 Cl -5.2435 -0.2043 -0.7391 0
M  V30 12 C 2.7652 -0.8942 1.1202 0
M  V30 13 C 2.8774 1.0788 -0.2774 0
M  V30 14 C 3.5142 0.1135 0.507 0
M  V30 15 H -3.704 -0.0405 1.6787 0
M  V30 16 H -0.5835 -0.0825 -2.1778 0
M  V30 17 H 0.8119 -1.7326 1.4212 0
M  V30 18 H 1.009 1.7965 -1.0556 0
M  V30 19 H -3.0119 -0.1839 -2.5567 0
M  V30 20 H 3.2604 -1.6458 1.7213 0
M  V30 21 H 3.459 1.8568 -0.7549 0
M  V30 22 H 4.5884 0.1441 0.6362 0
M  V30 END ATOM
M  V30 BEGIN BOND
M  V30 1 1 1 2
M  V30 2 2 2 3
M  V30 3 1 2 4
M  V30 4 1 3 5
M  V30 5 1 3 6
M  V30 6 2 4 7
M  V30 7 2 5 8
M  V30 8 1 5 9
M  V30 9 2 6 10
M  V30 10 1 7 11
M  V30 11 1 8 12
M  V30 12 2 9 13
M  V30 13 2 12 14
M  V30 14 1 7 10
M  V30 15 1 13 14
M  V30 16 1 4 15
M  V30 17 1 6 16
M  V30 18 1 8 17
M  V30 19 1 9 18
M  V30 20 1 10 19
M  V30 21 1 12 20
M  V30 22 1 13 21
M  V30 23 1 14 22
M  V30 END BOND
M  V30 END CTAB
M  END
>  <Structure No>
5954

>  <LogS>
-5.2878

>  <MMFF94 Energy>
38.006

$$$$
Compound 5955
Actelion Java MolfileCreator 2.0

  0  0  0  0  0  0              0 V3000
M  V30 BEGIN CTAB
M  V30 COUNTS 22 23 0 0 0
M  V30 BEGIN ATOM
M  V30 1 Cl 0.9939 2.6522 -0.5797 0
M  V30 2 C 1.6055 1.0442 -0.2026 0
M  V30 3 C 0.741 -0.0517 0.0173 0
M  V30 4 C 2.9925 0.8541 -0.1748 0
M  V30 5 C -0.731 0.1039 0.0115 0
M  V30 6 C 1.2928 -1.3249 0.2443 0
M  V30 7 C 3.5276 -0.4132 0.0636 0
M  V30 8 C -1.5203 -0.677 -0.8498 0
M  V30 9 C -1.3581 1.0031 0.8914 0
M  V30 10 C 2.6792 -1.5034 0.27 0
M  V30 11 C -2.9123 -0.5443 -0.8447 0
M  V30 12 C -2.7505 1.1325 0.8931 0
M  V30 13 Cl 3.3534 -3.0959 0.5637 0
M  V30 14 C -3.5269 0.3611 0.0244 0
M  V30 15 H 3.6591 1.6895 -0.3478 0
M  V30 16 H 0.6445 -2.1763 0.4142 0
M  V30 17 H 4.6016 -0.5477 0.0815 0
M  V30 18 H -1.0573 -1.381 -1.5301 0
M  V30 19 H -0.7705 1.5953 1.5821 0
M  V30 20 H -3.5149 -1.1439 -1.5146 0
M  V30 21 H -3.2279 1.8278 1.5715 0
M  V30 22 H -4.6045 0.4619 0.0276 0
M  V30 END ATOM
M  V30 BEGIN BOND
M  V30 1 1 1 2
M  V30 2 2 2 3
M  V30 3 1 2 4
M  V30 4 1 3 5
M  V30 5 1 3 6
M  V30 6 2 4 7
M  V30 7 2 5 8
M  V30 8 1 5 9
M  V30 9 2 6 10
M  V30 10 1 8 11
M  V30 11 2 9 12
M  V30 12 1 10 13
M  V30 13 2 11 14
M  V30 14 1 7 10
M  V30 15 1 12 14
M  V30 16 1 4 15
M  V30 17 1 6 16
M  V30 18 1 7 17
M  V30 19 1 8 18
M  V30 20 1 9 19
M  V30 21 1 11 20
M  V30 22 1 12 21
M  V30 23 1 14 22
M  V30 END BOND
M  V30 END CTAB
M  END
>  <Structure No>
5955

>  <LogS>
-5.2993

>  <MMFF94 Energy>
41.206

$$$$
Compound 5956
Actelion Java MolfileCreator 2.0

  0  0  0  0  0  0              0 V3000
M  V30 BEGIN CTAB
M  V30 COUNTS 22 23 0 0 0
M  V30 BEGIN ATOM
M  V30 1 Cl -0.4968 -1.4912 2.4033 0
M  V30 2 C -1.3979 -0.7679 1.0741 0
M  V30 3 C -0.7534 -0.08 0.0208 0
M  V30 4 C -2.7963 -0.8418 1.1052 0
M  V30 5 C 0.7215 0.0123 -0.0616 0
M  V30 6 C -1.534 0.5361 -0.9732 0
M  V30 7 C -3.5583 -0.2353 0.1043 0
M  V30 8 C 1.347 1.2679 -0.1401 0
M  V30 9 C 1.5089 -1.1509 -0.1013 0
M  V30 10 C -2.9281 0.4554 -0.9315 0
M  V30 11 C 2.739 1.358 -0.2352 0
M  V30 12 C 2.9007 -1.0576 -0.1966 0
M  V30 13 C 3.5169 0.1961 -0.2615 0
M  V30 14 Cl 5.263 0.311 -0.3819 0
M  V30 15 H -3.2955 -1.3628 1.9125 0
M  V30 16 H -1.0615 1.0691 -1.7893 0
M  V30 17 H -4.6386 -0.2955 0.1354 0
M  V30 18 H 0.7574 2.1765 -0.1185 0
M  V30 19 H 1.0449 -2.1289 -0.0688 0
M  V30 20 H -3.5204 0.9278 -1.7046 0
M  V30 21 H 3.2113 2.3306 -0.2889 0
M  V30 22 H 3.498 -1.9599 -0.2244 0
M  V30 END ATOM
M  V30 BEGIN BOND
M  V30 1 1 1 2
M  V30 2 2 2 3
M  V30 3 1 2 4
M  V30 4 1 3 5
M  V30 5 1 3 6
M  V30 6 2 4 7
M  V30 7 2 5 8
M  V30 8 1 5 9
M  V30 9 2 6 10
M  V30 10 1 8 11
M  V30 11 2 9 12
M  V30 12 2 11 13
M  V30 13 1 13 14
M  V30 14 1 7 10
M  V30 15 1 12 13
M  V30 16 1 4 15
M  V30 17 1 6 16
M  V30 18 1 7 17
M  V30 19 1 8 18
M  V30 20 1 9 19
M  V30 21 1 10 20
M  V30 22 1 11 21
M  V30 23 1 12 22
M  V30 END BOND
M  V30 END CTAB
M  END
>  <Structure No>
5956

>  <LogS>
-5.2803

>  <MMFF94 Energy>
45.048

$$$$
Compound 5957
Actelion Java MolfileCreator 2.0

  0  0  0  0  0  0              0 V3000
M  V30 BEGIN CTAB
M  V30 COUNTS 22 23 0 0 0
M  V30 BEGIN ATOM
M  V30 1 Cl 3.4335 1.7157 -2.4388 0
M  V30 2 C 2.711 0.9522 -1.0219 0
M  V30 3 C 1.322 0.7199 -0.9709 0
M  V30 4 C 3.5241 0.5708 0.0601 0
M  V30 5 Cl 0.303 1.1668 -2.343 0
M  V30 6 C 0.7549 0.1052 0.1659 0
M  V30 7 Cl 5.2623 0.8418 0.0388 0
M  V30 8 C 2.9548 -0.0381 1.181 0
M  V30 9 C -0.6999 -0.1397 0.2628 0
M  V30 10 C 1.5807 -0.269 1.2353 0
M  V30 11 C -1.2248 -1.4471 0.2374 0
M  V30 12 C -1.5727 0.9512 0.3987 0
M  V30 13 Cl -0.1846 -2.8534 0.0385 0
M  V30 14 C -2.606 -1.645 0.3444 0
M  V30 15 C -2.9529 0.7495 0.505 0
M  V30 16 C -3.4719 -0.5547 0.4785 0
M  V30 17 Cl -4.0068 2.1473 0.6719 0
M  V30 18 Cl -5.2005 -0.851 0.6084 0
M  V30 19 H 3.5784 -0.3326 2.0155 0
M  V30 20 H 1.1568 -0.7369 2.1158 0
M  V30 21 H -1.1773 1.9597 0.4255 0
M  V30 22 H -3.0082 -2.6501 0.3195 0
M  V30 END ATOM
M  V30 BEGIN BOND
M  V30 1 1 1 2
M  V30 2 2 2 3
M  V30 3 1 2 4
M  V30 4 1 3 5
M  V30 5 1 3 6
M  V30 6 1 4 7
M  V30 7 2 4 8
M  V30 8 1 6 9
M  V30 9 2 6 10
M  V30 10 2 9 11
M  V30 11 1 9 12
M  V30 12 1 11 13
M  V30 13 1 11 14
M  V30 14 2 12 15
M  V30 15 2 14 16
M  V30 16 1 15 17
M  V30 17 1 16 18
M  V30 18 1 8 10
M  V30 19 1 15 16
M  V30 20 1 8 19
M  V30 21 1 10 20
M  V30 22 1 12 21
M  V30 23 1 14 22
M  V30 END BOND
M  V30 END CTAB
M  END
>  <Structure No>
5957

>  <LogS>
-8.3813

>  <MMFF94 Energy>
57.29

$$$$
Compound 5958
Actelion Java MolfileCreator 2.0

  0  0  0  0  0  0              0 V3000
M  V30 BEGIN CTAB
M  V30 COUNTS 22 23 0 0 0
M  V30 BEGIN ATOM
M  V30 1 Cl -0.4232 2.6264 1.1008 0
M  V30 2 C -1.3666 1.2681 0.4964 0
M  V30 3 C -0.7477 0.0974 0.0099 0
M  V30 4 C -2.7638 1.3542 0.5329 0
M  V30 5 C 0.7242 -0.0224 -0.0575 0
M  V30 6 C -1.5458 -0.9692 -0.4351 0
M  V30 7 C -3.549 0.2863 0.0876 0
M  V30 8 C 1.4231 -0.9409 0.7544 0
M  V30 9 C 1.4394 0.7823 -0.96 0
M  V30 10 C -2.9392 -0.8745 -0.3951 0
M  V30 11 Cl -5.2987 0.4024 0.1376 0
M  V30 12 Cl 0.5898 -1.9531 1.9297 0
M  V30 13 C 2.8165 -1.0391 0.6541 0
M  V30 14 C 2.8295 0.6766 -1.0525 0
M  V30 15 C 3.5171 -0.2334 -0.247 0
M  V30 16 H -3.2399 2.2503 0.9114 0
M  V30 17 H -1.0869 -1.8728 -0.818 0
M  V30 18 H 0.918 1.488 -1.5956 0
M  V30 19 H -3.5434 -1.7034 -0.7413 0
M  V30 20 H 3.3589 -1.7379 1.2781 0
M  V30 21 H 3.3738 1.2995 -1.7505 0
M  V30 22 H 4.594 -0.3136 -0.3198 0
M  V30 END ATOM
M  V30 BEGIN BOND
M  V30 1 1 1 2
M  V30 2 2 2 3
M  V30 3 1 2 4
M  V30 4 1 3 5
M  V30 5 1 3 6
M  V30 6 2 4 7
M  V30 7 2 5 8
M  V30 8 1 5 9
M  V30 9 2 6 10
M  V30 10 1 7 11
M  V30 11 1 8 12
M  V30 12 1 8 13
M  V30 13 2 9 14
M  V30 14 2 13 15
M  V30 15 1 7 10
M  V30 16 1 14 15
M  V30 17 1 4 16
M  V30 18 1 6 17
M  V30 19 1 9 18
M  V30 20 1 10 19
M  V30 21 1 13 20
M  V30 22 1 14 21
M  V30 23 1 15 22
M  V30 END BOND
M  V30 END CTAB
M  END
>  <Structure No>
5958

>  <LogS>
-6.4902

>  <MMFF94 Energy>
42.224

$$$$
Compound 5959
Actelion Java MolfileCreator 2.0

  0  0  0  0  0  0              0 V3000
M  V30 BEGIN CTAB
M  V30 COUNTS 22 23 0 0 0
M  V30 BEGIN ATOM
M  V30 1 Cl 5.1326 1.2372 0.1766 0
M  V30 2 C 3.4275 0.8149 0.0967 0
M  V30 3 C 2.9705 -0.2125 -0.7437 0
M  V30 4 C 2.5171 1.5198 0.8909 0
M  V30 5 Cl 4.0816 -1.1228 -1.7578 0
M  V30 6 C 1.6075 -0.5241 -0.7835 0
M  V30 7 C 1.1528 1.2105 0.8541 0
M  V30 8 C 0.6899 0.1797 0.012 0
M  V30 9 Cl 0.0577 2.1074 1.9014 0
M  V30 10 C -0.7461 -0.1639 -0.0634 0
M  V30 11 C -1.2278 -1.4063 0.3997 0
M  V30 12 C -1.6456 0.7587 -0.6228 0
M  V30 13 Cl -0.1581 -2.5914 1.1419 0
M  V30 14 C -2.5919 -1.7053 0.2996 0
M  V30 15 C -3.0064 0.4516 -0.7183 0
M  V30 16 C -3.478 -0.7804 -0.2577 0
M  V30 17 Cl -4.1206 1.6116 -1.4178 0
M  V30 18 H 2.8717 2.3086 1.5427 0
M  V30 19 H 1.2601 -1.3136 -1.4393 0
M  V30 20 H -1.2867 1.7135 -0.9884 0
M  V30 21 H -2.9681 -2.6548 0.6585 0
M  V30 22 H -4.5309 -1.0219 -0.3294 0
M  V30 END ATOM
M  V30 BEGIN BOND
M  V30 1 1 1 2
M  V30 2 2 2 3
M  V30 3 1 2 4
M  V30 4 1 3 5
M  V30 5 1 3 6
M  V30 6 2 4 7
M  V30 7 2 6 8
M  V30 8 1 7 9
M  V30 9 1 8 10
M  V30 10 2 10 11
M  V30 11 1 10 12
M  V30 12 1 11 13
M  V30 13 1 11 14
M  V30 14 2 12 15
M  V30 15 2 14 16
M  V30 16 1 15 17
M  V30 17 1 7 8
M  V30 18 1 15 16
M  V30 19 1 4 18
M  V30 20 1 6 19
M  V30 21 1 12 20
M  V30 22 1 14 21
M  V30 23 1 16 22
M  V30 END BOND
M  V30 END CTAB
M  END
>  <Structure No>
5959

>  <LogS>
-7.3263

>  <MMFF94 Energy>
42.115

$$$$
Compound 5960
Actelion Java MolfileCreator 2.0

  0  0  0  0  0  0              0 V3000
M  V30 BEGIN CTAB
M  V30 COUNTS 22 23 0 0 0
M  V30 BEGIN ATOM
M  V30 1 Cl -1.0606 1.9451 -1.6797 0
M  V30 2 C -1.6383 0.7139 -0.553 0
M  V30 3 C -0.7207 -0.0776 0.171 0
M  V30 4 C -3.02 0.5232 -0.3708 0
M  V30 5 C -1.1986 -1.0494 1.0731 0
M  V30 6 C 0.733 0.11 -0.0121 0
M  V30 7 Cl -4.2001 1.4852 -1.2521 0
M  V30 8 C -3.4796 -0.4455 0.5254 0
M  V30 9 Cl -0.0964 -2.0669 1.9955 0
M  V30 10 C -2.5743 -1.2268 1.2435 0
M  V30 11 C 1.4219 -0.5252 -1.064 0
M  V30 12 C 1.4367 0.9344 0.8793 0
M  V30 13 Cl 0.587 -1.5775 -2.2015 0
M  V30 14 C 2.7995 -0.327 -1.2125 0
M  V30 15 C 2.8132 1.1271 0.7242 0
M  V30 16 C 3.4931 0.4967 -0.3218 0
M  V30 17 Cl 3.6858 2.1595 1.842 0
M  V30 18 H -4.5425 -0.5944 0.6675 0
M  V30 19 H -2.9448 -1.974 1.934 0
M  V30 20 H 0.9144 1.4258 1.6916 0
M  V30 21 H 3.335 -0.8125 -2.0183 0
M  V30 22 H 4.5586 0.6432 -0.4451 0
M  V30 END ATOM
M  V30 BEGIN BOND
M  V30 1 1 1 2
M  V30 2 2 2 3
M  V30 3 1 2 4
M  V30 4 1 3 5
M  V30 5 1 3 6
M  V30 6 1 4 7
M  V30 7 2 4 8
M  V30 8 1 5 9
M  V30 9 2 5 10
M  V30 10 2 6 11
M  V30 11 1 6 12
M  V30 12 1 11 13
M  V30 13 1 11 14
M  V30 14 2 12 15
M  V30 15 2 14 16
M  V30 16 1 15 17
M  V30 17 1 8 10
M  V30 18 1 15 16
M  V30 19 1 8 18
M  V30 20 1 10 19
M  V30 21 1 12 20
M  V30 22 1 14 21
M  V30 23 1 16 22
M  V30 END BOND
M  V30 BEGIN COLLECTION
M  V30 MDLV30/STEABS BONDS=(1 5)
M  V30 END COLLECTION
M  V30 END CTAB
M  END
>  <Structure No>
5960

>  <LogS>
-7.1895

>  <MMFF94 Energy>
48.763

$$$$
Compound 5961
Actelion Java MolfileCreator 2.0

  0  0  0  0  0  0              0 V3000
M  V30 BEGIN CTAB
M  V30 COUNTS 22 23 0 0 0
M  V30 BEGIN ATOM
M  V30 1 Cl 5.2212 -0.5301 -0.7952 0
M  V30 2 C 3.4918 -0.3686 -0.5202 0
M  V30 3 C 2.9053 -0.7785 0.6876 0
M  V30 4 C 2.6942 0.1816 -1.5287 0
M  V30 5 Cl 3.8721 -1.4749 1.9807 0
M  V30 6 C 1.5264 -0.6358 0.8748 0
M  V30 7 C 1.3146 0.3264 -1.3448 0
M  V30 8 C 0.7216 -0.0835 -0.1338 0
M  V30 9 Cl 0.3655 1.0581 -2.6347 0
M  V30 10 C -0.7345 0.0411 0.0895 0
M  V30 11 C -1.2551 0.9308 1.0527 0
M  V30 12 C -1.616 -0.7549 -0.6602 0
M  V30 13 Cl -0.2061 1.9797 2.0009 0
M  V30 14 C -2.6391 1.0131 1.2494 0
M  V30 15 C -2.9953 -0.6662 -0.4571 0
M  V30 16 C -3.5078 0.2164 0.4974 0
M  V30 17 Cl -5.2402 0.3265 0.7499 0
M  V30 18 H 3.1488 0.5022 -2.4576 0
M  V30 19 H 1.0785 -0.96 1.8068 0
M  V30 20 H -1.2327 -1.4482 -1.3988 0
M  V30 21 H -3.0399 1.6996 1.9846 0
M  V30 22 H -3.6644 -1.2852 -1.0409 0
M  V30 END ATOM
M  V30 BEGIN BOND
M  V30 1 1 1 2
M  V30 2 2 2 3
M  V30 3 1 2 4
M  V30 4 1 3 5
M  V30 5 1 3 6
M  V30 6 2 4 7
M  V30 7 2 6 8
M  V30 8 1 7 9
M  V30 9 1 8 10
M  V30 10 2 10 11
M  V30 11 1 10 12
M  V30 12 1 11 13
M  V30 13 1 11 14
M  V30 14 2 12 15
M  V30 15 2 14 16
M  V30 16 1 16 17
M  V30 17 1 7 8
M  V30 18 1 15 16
M  V30 19 1 4 18
M  V30 20 1 6 19
M  V30 21 1 12 20
M  V30 22 1 14 21
M  V30 23 1 15 22
M  V30 END BOND
M  V30 END CTAB
M  END
>  <Structure No>
5961

>  <LogS>
-7.9503

>  <MMFF94 Energy>
38.885

$$$$
Compound 5962
Actelion Java MolfileCreator 2.0

  0  0  0  0  0  0              0 V3000
M  V30 BEGIN CTAB
M  V30 COUNTS 22 23 0 0 0
M  V30 BEGIN ATOM
M  V30 1 Cl 0.6188 -1.3264 2.3884 0
M  V30 2 C 1.5034 -0.5983 1.0435 0
M  V30 3 C 0.8098 -0.003 -0.0346 0
M  V30 4 C 2.9097 -0.636 1.0343 0
M  V30 5 C 1.5392 0.5461 -1.1105 0
M  V30 6 C -0.6678 0.0465 -0.0374 0
M  V30 7 Cl 3.8146 -1.3697 2.3528 0
M  V30 8 C 3.6169 -0.0874 -0.0384 0
M  V30 9 Cl 0.7352 1.3309 -2.4674 0
M  V30 10 C 2.936 0.4995 -1.1042 0
M  V30 11 C -1.3484 0.88 0.863 0
M  V30 12 C -1.3988 -0.7384 -0.9406 0
M  V30 13 C -2.7475 0.9288 0.8636 0
M  V30 14 C -2.7953 -0.6908 -0.9427 0
M  V30 15 Cl -3.5619 1.9856 2.009 0
M  V30 16 C -3.4748 0.1396 -0.0439 0
M  V30 17 Cl -5.2328 0.1719 -0.0763 0
M  V30 18 H 4.6992 -0.1152 -0.0474 0
M  V30 19 H 3.4978 0.9243 -1.9264 0
M  V30 20 H -0.79 1.4917 1.5618 0
M  V30 21 H -0.8865 -1.388 -1.6399 0
M  V30 22 H -3.3494 -1.3015 -1.6442 0
M  V30 END ATOM
M  V30 BEGIN BOND
M  V30 1 1 1 2
M  V30 2 2 2 3
M  V30 3 1 2 4
M  V30 4 1 3 5
M  V30 5 1 3 6
M  V30 6 1 4 7
M  V30 7 2 4 8
M  V30 8 1 5 9
M  V30 9 2 5 10
M  V30 10 2 6 11
M  V30 11 1 6 12
M  V30 12 1 11 13
M  V30 13 2 12 14
M  V30 14 1 13 15
M  V30 15 2 13 16
M  V30 16 1 16 17
M  V30 17 1 8 10
M  V30 18 1 14 16
M  V30 19 1 8 18
M  V30 20 1 10 19
M  V30 21 1 11 20
M  V30 22 1 12 21
M  V30 23 1 14 22
M  V30 END BOND
M  V30 END CTAB
M  END
>  <Structure No>
5962

>  <LogS>
-7.6499

>  <MMFF94 Energy>
57.739

$$$$
Compound 5963
Actelion Java MolfileCreator 2.0

  0  0  0  0  0  0              0 V3000
M  V30 BEGIN CTAB
M  V30 COUNTS 22 23 0 0 0
M  V30 BEGIN ATOM
M  V30 1 Cl 0.8125 2.5295 0.8125 0
M  V30 2 C 1.5519 1.0096 0.3013 0
M  V30 3 C 0.7442 -0.0914 -0.0555 0
M  V30 4 C 2.9526 0.8936 0.2488 0
M  V30 5 C -0.7309 0.017 -0.0048 0
M  V30 6 C 1.3497 -1.2977 -0.461 0
M  V30 7 Cl 3.9987 2.2392 0.6844 0
M  V30 8 C 3.5394 -0.3087 -0.1552 0
M  V30 9 C -1.4292 -0.3134 1.1764 0
M  V30 10 C -1.4459 0.4519 -1.1386 0
M  V30 11 Cl 0.3867 -2.7 -0.9154 0
M  V30 12 C 2.7426 -1.3978 -0.508 0
M  V30 13 Cl -0.5515 -0.8598 2.6081 0
M  V30 14 C -2.8311 -0.206 1.2116 0
M  V30 15 Cl -0.6219 0.8766 -2.6357 0
M  V30 16 C -2.8388 0.5537 -1.0887 0
M  V30 17 Cl -3.7431 -0.6069 2.6615 0
M  V30 18 C -3.5273 0.2265 0.0794 0
M  V30 19 H 4.6173 -0.4006 -0.1964 0
M  V30 20 H 3.211 -2.323 -0.8191 0
M  V30 21 H -3.3912 0.8875 -1.9579 0
M  V30 22 H -4.6066 0.3102 0.1038 0
M  V30 END ATOM
M  V30 BEGIN BOND
M  V30 1 1 1 2
M  V30 2 2 2 3
M  V30 3 1 2 4
M  V30 4 1 3 5
M  V30 5 1 3 6
M  V30 6 1 4 7
M  V30 7 2 4 8
M  V30 8 2 5 9
M  V30 9 1 5 10
M  V30 10 1 6 11
M  V30 11 2 6 12
M  V30 12 1 9 13
M  V30 13 1 9 14
M  V30 14 1 10 15
M  V30 15 2 10 16
M  V30 16 1 14 17
M  V30 17 2 14 18
M  V30 18 1 8 12
M  V30 19 1 16 18
M  V30 20 1 8 19
M  V30 21 1 12 20
M  V30 22 1 16 21
M  V30 23 1 18 22
M  V30 END BOND
M  V30 BEGIN COLLECTION
M  V30 MDLV30/STEABS BONDS=(1 4)
M  V30 END COLLECTION
M  V30 END CTAB
M  END
>  <Structure No>
5963

>  <LogS>
-7.9032

>  <MMFF94 Energy>
54.37

$$$$
Compound 5964
Actelion Java MolfileCreator 2.0

  0  0  0  0  0  0              0 V3000
M  V30 BEGIN CTAB
M  V30 COUNTS 22 23 0 0 0
M  V30 BEGIN ATOM
M  V30 1 Cl 0.5079 1.6939 -2.2025 0
M  V30 2 C 1.4268 0.7717 -1.0172 0
M  V30 3 C 0.7837 -0.0176 -0.0419 0
M  V30 4 C 2.824 0.835 -1.0539 0
M  V30 5 C 1.5595 -0.7391 0.8883 0
M  V30 6 C -0.6903 -0.0881 0.0048 0
M  V30 7 C 3.5856 0.1188 -0.129 0
M  V30 8 Cl 0.8096 -1.7397 2.1277 0
M  V30 9 C 2.9559 -0.6656 0.8388 0
M  V30 10 C -1.438 0.8207 0.7796 0
M  V30 11 C -1.3548 -1.0777 -0.7355 0
M  V30 12 Cl -0.652 2.0796 1.7255 0
M  V30 13 C -2.8349 0.7287 0.804 0
M  V30 14 C -2.7493 -1.1621 -0.705 0
M  V30 15 C -3.4885 -0.2599 0.0636 0
M  V30 16 H 3.3218 1.4408 -1.8005 0
M  V30 17 H 4.6661 0.1719 -0.1622 0
M  V30 18 H 3.5553 -1.2172 1.5518 0
M  V30 19 H -0.7917 -1.7825 -1.335 0
M  V30 20 H -3.4156 1.4237 1.3971 0
M  V30 21 H -3.2573 -1.9271 -1.2778 0
M  V30 22 H -4.5685 -0.3268 0.0858 0
M  V30 END ATOM
M  V30 BEGIN BOND
M  V30 1 1 1 2
M  V30 2 2 2 3
M  V30 3 1 2 4
M  V30 4 1 3 5
M  V30 5 1 3 6
M  V30 6 2 4 7
M  V30 7 1 5 8
M  V30 8 2 5 9
M  V30 9 2 6 10
M  V30 10 1 6 11
M  V30 11 1 10 12
M  V30 12 1 10 13
M  V30 13 2 11 14
M  V30 14 2 13 15
M  V30 15 1 7 9
M  V30 16 1 14 15
M  V30 17 1 4 16
M  V30 18 1 7 17
M  V30 19 1 9 18
M  V30 20 1 11 19
M  V30 21 1 13 20
M  V30 22 1 14 21
M  V30 23 1 15 22
M  V30 END BOND
M  V30 END CTAB
M  END
>  <Structure No>
5964

>  <LogS>
-5.9003

>  <MMFF94 Energy>
48.507

$$$$
Compound 5965
Actelion Java MolfileCreator 2.0

  0  0  0  0  0  0              0 V3000
M  V30 BEGIN CTAB
M  V30 COUNTS 22 23 0 0 0
M  V30 BEGIN ATOM
M  V30 1 Cl -0.2539 2.8809 0.0 0
M  V30 2 C -1.2983 1.4758 0.1941 0
M  V30 3 C -0.778 0.1631 0.2145 0
M  V30 4 C -2.6717 1.6866 0.3595 0
M  V30 5 C -1.6583 -0.9248 0.4028 0
M  V30 6 C 0.6713 -0.0693 0.0406 0
M  V30 7 C -3.5335 0.605 0.545 0
M  V30 8 Cl -1.0833 -2.5897 0.4027 0
M  V30 9 C -3.029 -0.6955 0.5666 0
M  V30 10 C 1.2844 0.1821 -1.1967 0
M  V30 11 C 1.445 -0.5431 1.1119 0
M  V30 12 C 2.6555 -0.0378 -1.3597 0
M  V30 13 C 2.8159 -0.7628 0.946 0
M  V30 14 C 3.4221 -0.5104 -0.2891 0
M  V30 15 Cl 5.1419 -0.7862 -0.4953 0
M  V30 16 H -3.0729 2.6922 0.3492 0
M  V30 17 H -4.5948 0.7753 0.6723 0
M  V30 18 H -3.707 -1.5279 0.7064 0
M  V30 19 H 0.6999 0.5451 -2.0332 0
M  V30 20 H 0.9866 -0.7386 2.0737 0
M  V30 21 H 3.1201 0.1582 -2.3175 0
M  V30 22 H 3.4051 -1.128 1.7775 0
M  V30 END ATOM
M  V30 BEGIN BOND
M  V30 1 1 1 2
M  V30 2 2 2 3
M  V30 3 1 2 4
M  V30 4 1 3 5
M  V30 5 1 3 6
M  V30 6 2 4 7
M  V30 7 1 5 8
M  V30 8 2 5 9
M  V30 9 2 6 10
M  V30 10 1 6 11
M  V30 11 1 10 12
M  V30 12 2 11 13
M  V30 13 2 12 14
M  V30 14 1 14 15
M  V30 15 1 7 9
M  V30 16 1 13 14
M  V30 17 1 4 16
M  V30 18 1 7 17
M  V30 19 1 9 18
M  V30 20 1 10 19
M  V30 21 1 11 20
M  V30 22 1 12 21
M  V30 23 1 13 22
M  V30 END BOND
M  V30 END CTAB
M  END
>  <Structure No>
5965

>  <LogS>
-6.2095

>  <MMFF94 Energy>
45.482

$$$$
Compound 5966
Actelion Java MolfileCreator 2.0

  0  0  0  0  0  0              0 V3000
M  V30 BEGIN CTAB
M  V30 COUNTS 22 23 0 0 0
M  V30 BEGIN ATOM
M  V30 1 Cl -0.4234 -2.6274 -0.9317 0
M  V30 2 C -1.3611 -1.1857 -0.5311 0
M  V30 3 C -2.7647 -1.2087 -0.6352 0
M  V30 4 C -0.7115 0.0016 -0.1291 0
M  V30 5 Cl -3.621 -2.6641 -1.1284 0
M  V30 6 C -3.5066 -0.0578 -0.3483 0
M  V30 7 C 0.7581 0.0675 -0.0015 0
M  V30 8 C -1.4698 1.1499 0.144 0
M  V30 9 C -2.8611 1.1178 0.0371 0
M  V30 10 C 1.4271 -0.5376 1.0828 0
M  V30 11 C 1.5 0.7596 -0.9715 0
M  V30 12 Cl 0.5453 -1.3754 2.3558 0
M  V30 13 C 2.8223 -0.4569 1.1717 0
M  V30 14 C 2.892 0.8347 -0.8739 0
M  V30 15 C 3.5523 0.2251 0.195 0
M  V30 16 H -4.5864 -0.0723 -0.4279 0
M  V30 17 H -0.982 2.0686 0.4471 0
M  V30 18 H -3.4404 2.0061 0.2543 0
M  V30 19 H 0.9996 1.2352 -1.8065 0
M  V30 20 H 3.3419 -0.9188 2.0016 0
M  V30 21 H 3.459 1.3657 -1.6276 0
M  V30 22 H 4.6305 0.2849 0.2693 0
M  V30 END ATOM
M  V30 BEGIN BOND
M  V30 1 1 1 2
M  V30 2 2 2 3
M  V30 3 1 2 4
M  V30 4 1 3 5
M  V30 5 1 3 6
M  V30 6 1 4 7
M  V30 7 2 4 8
M  V30 8 2 6 9
M  V30 9 2 7 10
M  V30 10 1 7 11
M  V30 11 1 10 12
M  V30 12 1 10 13
M  V30 13 2 11 14
M  V30 14 2 13 15
M  V30 15 1 8 9
M  V30 16 1 14 15
M  V30 17 1 6 16
M  V30 18 1 8 17
M  V30 19 1 9 18
M  V30 20 1 11 19
M  V30 21 1 13 20
M  V30 22 1 14 21
M  V30 23 1 15 22
M  V30 END BOND
M  V30 END CTAB
M  END
>  <Structure No>
5966

>  <LogS>
-5.944

>  <MMFF94 Energy>
57.71

$$$$
Compound 5967
Actelion Java MolfileCreator 2.0

  0  0  0  0  0  0              0 V3000
M  V30 BEGIN CTAB
M  V30 COUNTS 22 23 0 0 0
M  V30 BEGIN ATOM
M  V30 1 Cl 0.9313 1.1007 -2.6261 0
M  V30 2 C 1.5722 0.3224 -1.182 0
M  V30 3 C 0.7316 -0.1206 -0.1358 0
M  V30 4 C 2.9525 0.0983 -1.1088 0
M  V30 5 C -0.7309 0.106 -0.1632 0
M  V30 6 C 1.2979 -0.7981 0.9582 0
M  V30 7 C 3.5037 -0.5652 -0.0107 0
M  V30 8 C -1.6158 -0.9795 -0.0462 0
M  V30 9 C -1.2502 1.4078 -0.2666 0
M  V30 10 C 2.6776 -1.0165 1.0211 0
M  V30 11 C -2.9991 -0.7668 -0.0537 0
M  V30 12 C -2.6325 1.6169 -0.2738 0
M  V30 13 Cl 3.3713 -1.8551 2.3969 0
M  V30 14 Cl -4.0968 -2.1282 0.0831 0
M  V30 15 C -3.5064 0.5314 -0.1696 0
M  V30 16 H 3.6003 0.4313 -1.9098 0
M  V30 17 H 0.6679 -1.1453 1.7686 0
M  V30 18 H 4.5722 -0.7335 0.0336 0
M  V30 19 H -1.2309 -1.9884 0.0418 0
M  V30 20 H -0.5854 2.2604 -0.331 0
M  V30 21 H -3.0266 2.6217 -0.3557 0
M  V30 22 H -4.5757 0.7005 -0.175 0
M  V30 END ATOM
M  V30 BEGIN BOND
M  V30 1 1 1 2
M  V30 2 2 2 3
M  V30 3 1 2 4
M  V30 4 1 3 5
M  V30 5 1 3 6
M  V30 6 2 4 7
M  V30 7 2 5 8
M  V30 8 1 5 9
M  V30 9 2 6 10
M  V30 10 1 8 11
M  V30 11 2 9 12
M  V30 12 1 10 13
M  V30 13 1 11 14
M  V30 14 2 11 15
M  V30 15 1 7 10
M  V30 16 1 12 15
M  V30 17 1 4 16
M  V30 18 1 6 17
M  V30 19 1 7 18
M  V30 20 1 8 19
M  V30 21 1 9 20
M  V30 22 1 12 21
M  V30 23 1 15 22
M  V30 END BOND
M  V30 END CTAB
M  END
>  <Structure No>
5967

>  <LogS>
-6.0077

>  <MMFF94 Energy>
36.913

$$$$
Compound 5968
Actelion Java MolfileCreator 2.0

  0  0  0  0  0  0              0 V3000
M  V30 BEGIN CTAB
M  V30 COUNTS 22 23 0 0 0
M  V30 BEGIN ATOM
M  V30 1 Cl 3.8151 0.9316 -2.2878 0
M  V30 2 C 2.8617 0.534 -0.8648 0
M  V30 3 C 3.4669 0.3542 0.3904 0
M  V30 4 C 1.4742 0.4009 -0.9943 0
M  V30 5 Cl 5.2059 0.5127 0.5961 0
M  V30 6 C 2.6777 0.0472 1.5042 0
M  V30 7 C 0.6817 0.0795 0.1198 0
M  V30 8 C 1.2931 -0.0855 1.3725 0
M  V30 9 C -0.7872 -0.0456 -0.0128 0
M  V30 10 C -1.3773 -0.955 -0.9198 0
M  V30 11 C -1.6175 0.7594 0.7871 0
M  V30 12 Cl -0.4103 -2.0586 -1.8938 0
M  V30 13 C -2.7721 -1.0305 -1.0224 0
M  V30 14 C -3.0075 0.6753 0.6755 0
M  V30 15 C -3.5839 -0.216 -0.2302 0
M  V30 16 H 1.0121 0.5576 -1.9616 0
M  V30 17 H 3.1372 -0.0891 2.475 0
M  V30 18 H 0.6983 -0.3262 2.2452 0
M  V30 19 H -1.187 1.463 1.4894 0
M  V30 20 H -3.2294 -1.7289 -1.7117 0
M  V30 21 H -3.6383 1.3034 1.2912 0
M  V30 22 H -4.6611 -0.2804 -0.3142 0
M  V30 END ATOM
M  V30 BEGIN BOND
M  V30 1 1 1 2
M  V30 2 2 2 3
M  V30 3 1 2 4
M  V30 4 1 3 5
M  V30 5 1 3 6
M  V30 6 2 4 7
M  V30 7 2 6 8
M  V30 8 1 7 9
M  V30 9 2 9 10
M  V30 10 1 9 11
M  V30 11 1 10 12
M  V30 12 1 10 13
M  V30 13 2 11 14
M  V30 14 2 13 15
M  V30 15 1 7 8
M  V30 16 1 14 15
M  V30 17 1 4 16
M  V30 18 1 6 17
M  V30 19 1 8 18
M  V30 20 1 11 19
M  V30 21 1 13 20
M  V30 22 1 14 21
M  V30 23 1 15 22
M  V30 END BOND
M  V30 END CTAB
M  END
>  <Structure No>
5968

>  <LogS>
-6.287

>  <MMFF94 Energy>
51.165

$$$$
Compound 5969
Actelion Java MolfileCreator 2.0

  0  0  0  0  0  0              0 V3000
M  V30 BEGIN CTAB
M  V30 COUNTS 22 23 0 0 0
M  V30 BEGIN ATOM
M  V30 1 Cl 3.9849 -1.9486 1.1858 0
M  V30 2 C 2.9705 -0.7951 0.3295 0
M  V30 3 C 3.526 0.1543 -0.5431 0
M  V30 4 C 1.5847 -0.8352 0.5256 0
M  V30 5 Cl 5.2611 0.2385 -0.8159 0
M  V30 6 C 2.6904 1.0542 -1.2119 0
M  V30 7 C 0.7388 0.0675 -0.1445 0
M  V30 8 C 1.3077 1.0129 -1.0163 0
M  V30 9 C -0.7311 0.0229 0.0653 0
M  V30 10 C -1.6142 0.1935 -1.0175 0
M  V30 11 C -1.2645 -0.1902 1.3506 0
M  V30 12 C -2.9974 0.1507 -0.8178 0
M  V30 13 C -2.6485 -0.2312 1.5458 0
M  V30 14 C -3.5157 -0.0612 0.463 0
M  V30 15 Cl -5.2515 -0.1138 0.7107 0
M  V30 16 H 1.1687 -1.5841 1.1883 0
M  V30 17 H 3.1127 1.7912 -1.8834 0
M  V30 18 H 0.6851 1.7322 -1.5334 0
M  V30 19 H -1.2355 0.342 -2.0208 0
M  V30 20 H -0.6123 -0.3072 2.2069 0
M  V30 21 H -3.6652 0.2792 -1.6602 0
M  V30 22 H -3.0452 -0.3919 2.5403 0
M  V30 END ATOM
M  V30 BEGIN BOND
M  V30 1 1 1 2
M  V30 2 2 2 3
M  V30 3 1 2 4
M  V30 4 1 3 5
M  V30 5 1 3 6
M  V30 6 2 4 7
M  V30 7 2 6 8
M  V30 8 1 7 9
M  V30 9 2 9 10
M  V30 10 1 9 11
M  V30 11 1 10 12
M  V30 12 2 11 13
M  V30 13 2 12 14
M  V30 14 1 14 15
M  V30 15 1 7 8
M  V30 16 1 13 14
M  V30 17 1 4 16
M  V30 18 1 6 17
M  V30 19 1 8 18
M  V30 20 1 10 19
M  V30 21 1 11 20
M  V30 22 1 12 21
M  V30 23 1 13 22
M  V30 END BOND
M  V30 END CTAB
M  END
>  <Structure No>
5969

>  <LogS>
-6.5541

>  <MMFF94 Energy>
42.148

$$$$
Compound 5970
Actelion Java MolfileCreator 2.0

  0  0  0  0  0  0              0 V3000
M  V30 BEGIN CTAB
M  V30 COUNTS 22 23 0 0 0
M  V30 BEGIN ATOM
M  V30 1 Cl -0.9523 -2.2521 -1.3855 0
M  V30 2 C -1.6155 -0.8177 -0.5976 0
M  V30 3 C -3.0058 -0.597 -0.5974 0
M  V30 4 C -0.7592 0.1259 0.0105 0
M  V30 5 Cl -4.1133 -1.7401 -1.3464 0
M  V30 6 C -3.5321 0.5514 0.0037 0
M  V30 7 C 0.7048 -0.0756 0.0456 0
M  V30 8 C -1.3048 1.2727 0.6088 0
M  V30 9 C -2.6843 1.4831 0.6036 0
M  V30 10 C 1.5757 0.7368 -0.7127 0
M  V30 11 C 1.2351 -1.0862 0.8625 0
M  V30 12 Cl 0.9324 1.9937 -1.7729 0
M  V30 13 C 2.9653 0.5232 -0.6409 0
M  V30 14 C 2.6139 -1.2909 0.9269 0
M  V30 15 Cl 4.0907 1.5052 -1.5702 0
M  V30 16 C 3.4763 -0.4886 0.1787 0
M  V30 17 H -4.6009 0.7238 0.0052 0
M  V30 18 H -0.6592 2.0019 1.0831 0
M  V30 19 H -3.0973 2.3697 1.0674 0
M  V30 20 H 0.5781 -1.7131 1.4533 0
M  V30 21 H 3.0152 -2.0721 1.5595 0
M  V30 22 H 4.5444 -0.6553 0.2357 0
M  V30 END ATOM
M  V30 BEGIN BOND
M  V30 1 1 1 2
M  V30 2 2 2 3
M  V30 3 1 2 4
M  V30 4 1 3 5
M  V30 5 1 3 6
M  V30 6 1 4 7
M  V30 7 2 4 8
M  V30 8 2 6 9
M  V30 9 2 7 10
M  V30 10 1 7 11
M  V30 11 1 10 12
M  V30 12 1 10 13
M  V30 13 2 11 14
M  V30 14 1 13 15
M  V30 15 2 13 16
M  V30 16 1 8 9
M  V30 17 1 14 16
M  V30 18 1 6 17
M  V30 19 1 8 18
M  V30 20 1 9 19
M  V30 21 1 11 20
M  V30 22 1 14 21
M  V30 23 1 16 22
M  V30 END BOND
M  V30 END CTAB
M  END
>  <Structure No>
5970

>  <LogS>
-7.2722

>  <MMFF94 Energy>
64.564

$$$$
Compound 5971
Actelion Java MolfileCreator 2.0

  0  0  0  0  0  0              0 V3000
M  V30 BEGIN CTAB
M  V30 COUNTS 22 23 0 0 0
M  V30 BEGIN ATOM
M  V30 1 Cl 0.7788 2.3377 1.3848 0
M  V30 2 C 1.5361 1.0216 0.4837 0
M  V30 3 C 2.9338 1.0003 0.3165 0
M  V30 4 C 0.7482 0.0032 -0.0962 0
M  V30 5 Cl 3.9575 2.2487 1.0151 0
M  V30 6 C 3.5348 -0.0257 -0.4199 0
M  V30 7 C -0.7208 -0.0207 0.0694 0
M  V30 8 C 1.3686 -1.018 -0.8325 0
M  V30 9 C 2.7547 -1.0304 -0.9932 0
M  V30 10 C -1.585 0.203 -1.0226 0
M  V30 11 C -1.2654 -0.2878 1.3364 0
M  V30 12 Cl -0.9644 0.5741 -2.6278 0
M  V30 13 C -2.9716 0.1595 -0.8335 0
M  V30 14 C -2.6517 -0.3289 1.516 0
M  V30 15 C -3.5033 -0.106 0.4307 0
M  V30 16 Cl -3.3213 -0.6621 3.1026 0
M  V30 17 H 4.6094 -0.0445 -0.5502 0
M  V30 18 H 0.7766 -1.8083 -1.278 0
M  V30 19 H 3.2255 -1.8218 -1.5618 0
M  V30 20 H -0.6117 -0.4676 2.1815 0
M  V30 21 H -3.6397 0.3357 -1.6668 0
M  V30 22 H -4.5771 -0.1366 0.5657 0
M  V30 END ATOM
M  V30 BEGIN BOND
M  V30 1 1 1 2
M  V30 2 2 2 3
M  V30 3 1 2 4
M  V30 4 1 3 5
M  V30 5 1 3 6
M  V30 6 1 4 7
M  V30 7 2 4 8
M  V30 8 2 6 9
M  V30 9 2 7 10
M  V30 10 1 7 11
M  V30 11 1 10 12
M  V30 12 1 10 13
M  V30 13 2 11 14
M  V30 14 2 13 15
M  V30 15 1 14 16
M  V30 16 1 8 9
M  V30 17 1 14 15
M  V30 18 1 6 17
M  V30 19 1 8 18
M  V30 20 1 9 19
M  V30 21 1 11 20
M  V30 22 1 13 21
M  V30 23 1 15 22
M  V30 END BOND
M  V30 END CTAB
M  END
>  <Structure No>
5971

>  <LogS>
-6.4654

>  <MMFF94 Energy>
52.299

$$$$
Compound 5972
Actelion Java MolfileCreator 2.0

  0  0  0  0  0  0              0 V3000
M  V30 BEGIN CTAB
M  V30 COUNTS 22 23 0 0 0
M  V30 BEGIN ATOM
M  V30 1 Cl 3.9001 -0.8657 2.2521 0
M  V30 2 C 2.8952 -0.3 0.9171 0
M  V30 3 C 1.4909 -0.3818 1.001 0
M  V30 4 C 3.4969 0.2379 -0.2342 0
M  V30 5 Cl 0.7315 -1.0246 2.4607 0
M  V30 6 C 0.6963 0.077 -0.0712 0
M  V30 7 Cl 5.2456 0.3593 -0.381 0
M  V30 8 C 2.7029 0.6912 -1.2903 0
M  V30 9 C -0.779 -0.007 -0.0265 0
M  V30 10 C 1.3131 0.6113 -1.2111 0
M  V30 11 C -1.5767 1.1533 0.0592 0
M  V30 12 C -1.3985 -1.2662 -0.0882 0
M  V30 13 Cl -0.8602 2.7575 0.1702 0
M  V30 14 C -2.9721 1.0386 0.085 0
M  V30 15 C -2.7916 -1.3699 -0.0619 0
M  V30 16 C -3.5774 -0.2189 0.0239 0
M  V30 17 H 3.1635 1.1057 -2.178 0
M  V30 18 H 0.7145 0.9623 -2.043 0
M  V30 19 H -0.801 -2.1667 -0.1606 0
M  V30 20 H -3.5895 1.9251 0.156 0
M  V30 21 H -3.2623 -2.3432 -0.1097 0
M  V30 22 H -4.6565 -0.3012 0.0445 0
M  V30 END ATOM
M  V30 BEGIN BOND
M  V30 1 1 1 2
M  V30 2 2 2 3
M  V30 3 1 2 4
M  V30 4 1 3 5
M  V30 5 1 3 6
M  V30 6 1 4 7
M  V30 7 2 4 8
M  V30 8 1 6 9
M  V30 9 2 6 10
M  V30 10 2 9 11
M  V30 11 1 9 12
M  V30 12 1 11 13
M  V30 13 1 11 14
M  V30 14 2 12 15
M  V30 15 2 14 16
M  V30 16 1 8 10
M  V30 17 1 15 16
M  V30 18 1 8 17
M  V30 19 1 10 18
M  V30 20 1 12 19
M  V30 21 1 14 20
M  V30 22 1 15 21
M  V30 23 1 16 22
M  V30 END BOND
M  V30 END CTAB
M  END
>  <Structure No>
5972

>  <LogS>
-6.8299

>  <MMFF94 Energy>
60.182

$$$$
Compound 5973
Actelion Java MolfileCreator 2.0

  0  0  0  0  0  0              0 V3000
M  V30 BEGIN CTAB
M  V30 COUNTS 22 23 0 0 0
M  V30 BEGIN ATOM
M  V30 1 Cl -0.7069 2.0334 -1.9449 0
M  V30 2 C -1.4863 0.7779 -0.9781 0
M  V30 3 C -2.879 0.5919 -1.0625 0
M  V30 4 C -0.7198 -0.0618 -0.141 0
M  V30 5 Cl -3.8763 1.6092 -2.0949 0
M  V30 6 C -3.4969 -0.4196 -0.3199 0
M  V30 7 C 0.743 0.1101 -0.0113 0
M  V30 8 C -1.3557 -1.0722 0.5971 0
M  V30 9 C -2.7381 -1.2507 0.5068 0
M  V30 10 C 1.6409 -0.8589 -0.5055 0
M  V30 11 C 1.2466 1.2528 0.632 0
M  V30 12 Cl -3.5211 -2.5173 1.4339 0
M  V30 13 Cl 1.0732 -2.2967 -1.3482 0
M  V30 14 C 3.0201 -0.6715 -0.3533 0
M  V30 15 C 2.6257 1.4316 0.7791 0
M  V30 16 C 3.5109 0.4689 0.2871 0
M  V30 17 Cl 3.2439 2.863 1.5828 0
M  V30 18 H -4.5685 -0.5611 -0.3869 0
M  V30 19 H -0.7755 -1.7175 1.2462 0
M  V30 20 H 0.5662 2.0008 1.0217 0
M  V30 21 H 3.7142 -1.4093 -0.7352 0
M  V30 22 H 4.5792 0.6038 0.3986 0
M  V30 END ATOM
M  V30 BEGIN BOND
M  V30 1 1 1 2
M  V30 2 2 2 3
M  V30 3 1 2 4
M  V30 4 1 3 5
M  V30 5 1 3 6
M  V30 6 1 4 7
M  V30 7 2 4 8
M  V30 8 2 6 9
M  V30 9 2 7 10
M  V30 10 1 7 11
M  V30 11 1 9 12
M  V30 12 1 10 13
M  V30 13 1 10 14
M  V30 14 2 11 15
M  V30 15 2 14 16
M  V30 16 1 15 17
M  V30 17 1 8 9
M  V30 18 1 15 16
M  V30 19 1 6 18
M  V30 20 1 8 19
M  V30 21 1 11 20
M  V30 22 1 14 21
M  V30 23 1 16 22
M  V30 END BOND
M  V30 END CTAB
M  END
>  <Structure No>
5973

>  <LogS>
-7.8201

>  <MMFF94 Energy>
39.879

$$$$
Compound 5974
Actelion Java MolfileCreator 2.0

  0  0  0  0  0  0              0 V3000
M  V30 BEGIN CTAB
M  V30 COUNTS 22 23 0 0 0
M  V30 BEGIN ATOM
M  V30 1 Cl 0.2707 2.7998 -0.1804 0
M  V30 2 C 1.3312 1.3876 -0.1781 0
M  V30 3 C 0.7887 0.0882 -0.0787 0
M  V30 4 C 2.7244 1.5567 -0.2733 0
M  V30 5 C 1.6491 -1.0278 -0.0727 0
M  V30 6 C -0.673 -0.1038 0.0195 0
M  V30 7 Cl 3.4451 3.1566 -0.4007 0
M  V30 8 C 3.5657 0.4405 -0.2677 0
M  V30 9 Cl 1.0223 -2.6693 0.0443 0
M  V30 10 C 3.0312 -0.8439 -0.1676 0
M  V30 11 C -1.4774 -0.181 -1.1361 0
M  V30 12 C -1.2626 -0.2111 1.2874 0
M  V30 13 Cl -0.7482 -0.0554 -2.7388 0
M  V30 14 C -2.8666 -0.363 -1.0047 0
M  V30 15 C -2.6423 -0.3921 1.4101 0
M  V30 16 Cl -3.912 -0.4651 -2.4157 0
M  V30 17 C -3.4414 -0.4673 0.2667 0
M  V30 18 Cl -3.3714 -0.5246 3.0002 0
M  V30 19 H 4.6384 0.5679 -0.3411 0
M  V30 20 H 3.6949 -1.6992 -0.165 0
M  V30 21 H -0.6484 -0.153 2.1783 0
M  V30 22 H -4.5107 -0.6076 0.3659 0
M  V30 END ATOM
M  V30 BEGIN BOND
M  V30 1 1 1 2
M  V30 2 2 2 3
M  V30 3 1 2 4
M  V30 4 1 3 5
M  V30 5 1 3 6
M  V30 6 1 4 7
M  V30 7 2 4 8
M  V30 8 1 5 9
M  V30 9 2 5 10
M  V30 10 2 6 11
M  V30 11 1 6 12
M  V30 12 1 11 13
M  V30 13 1 11 14
M  V30 14 2 12 15
M  V30 15 1 14 16
M  V30 16 2 14 17
M  V30 17 1 15 18
M  V30 18 1 8 10
M  V30 19 1 15 17
M  V30 20 1 8 19
M  V30 21 1 10 20
M  V30 22 1 12 21
M  V30 23 1 17 22
M  V30 END BOND
M  V30 BEGIN COLLECTION
M  V30 MDLV30/STEABS BONDS=(1 5)
M  V30 END COLLECTION
M  V30 END CTAB
M  END
>  <Structure No>
5974

>  <LogS>
-7.8218

>  <MMFF94 Energy>
48.566

$$$$
Compound 5975
Actelion Java MolfileCreator 2.0

  0  0  0  0  0  0              0 V3000
M  V30 BEGIN CTAB
M  V30 COUNTS 22 23 0 0 0
M  V30 BEGIN ATOM
M  V30 1 Cl -4.1593 1.8069 0.8128 0
M  V30 2 C -2.984 0.6139 0.2558 0
M  V30 3 C -3.4252 -0.585 -0.3357 0
M  V30 4 C -1.6056 0.8596 0.4057 0
M  V30 5 Cl -5.1506 -0.8998 -0.5281 0
M  V30 6 C -2.4868 -1.5353 -0.7708 0
M  V30 7 Cl -1.0514 2.3485 1.1791 0
M  V30 8 C -0.6713 -0.0943 -0.0441 0
M  V30 9 Cl -2.9937 -3.049 -1.5105 0
M  V30 10 C -1.1207 -1.288 -0.6213 0
M  V30 11 C 0.7819 0.1318 0.0904 0
M  V30 12 C 1.469 1.0152 -0.7698 0
M  V30 13 C 1.4884 -0.5579 1.0868 0
M  V30 14 Cl 0.6073 1.8574 -2.0606 0
M  V30 15 C 2.8539 1.207 -0.6068 0
M  V30 16 C 2.8618 -0.3621 1.2405 0
M  V30 17 Cl 3.7545 2.2996 -1.6506 0
M  V30 18 C 3.5418 0.519 0.3987 0
M  V30 19 H -0.4042 -2.0258 -0.9628 0
M  V30 20 H 0.9724 -1.2429 1.7488 0
M  V30 21 H 3.4 -0.894 2.0144 0
M  V30 22 H 4.6071 0.6641 0.5262 0
M  V30 END ATOM
M  V30 BEGIN BOND
M  V30 1 1 1 2
M  V30 2 2 2 3
M  V30 3 1 2 4
M  V30 4 1 3 5
M  V30 5 1 3 6
M  V30 6 1 4 7
M  V30 7 2 4 8
M  V30 8 1 6 9
M  V30 9 2 6 10
M  V30 10 1 8 11
M  V30 11 2 11 12
M  V30 12 1 11 13
M  V30 13 1 12 14
M  V30 14 1 12 15
M  V30 15 2 13 16
M  V30 16 1 15 17
M  V30 17 2 15 18
M  V30 18 1 8 10
M  V30 19 1 16 18
M  V30 20 1 10 19
M  V30 21 1 13 20
M  V30 22 1 16 21
M  V30 23 1 18 22
M  V30 END BOND
M  V30 END CTAB
M  END
>  <Structure No>
5975

>  <LogS>
-8.4206

>  <MMFF94 Energy>
66.214

$$$$
Compound 5976
Actelion Java MolfileCreator 2.0

  0  0  0  0  0  0              0 V3000
M  V30 BEGIN CTAB
M  V30 COUNTS 16 16 0 0 0
M  V30 BEGIN ATOM
M  V30 1 O -1.8052 -2.1194 -0.5491 0
M  V30 2 C -1.6678 -0.8954 -0.2798 0
M  V30 3 N -2.837 -0.0808 -0.1573 0
M  V30 4 C -0.3079 -0.3363 -0.0816 0
M  V30 5 C -0.0533 1.0397 -0.241 0
M  V30 6 C 0.7612 -1.1901 0.2499 0
M  V30 7 C 1.2365 1.5474 -0.0552 0
M  V30 8 C 2.0485 -0.6766 0.4355 0
M  V30 9 C 2.2854 0.691 0.2852 0
M  V30 10 H -3.7773 -0.4871 -0.3602 0
M  V30 11 H -2.7933 0.8921 0.2161 0
M  V30 12 H -0.8381 1.7244 -0.5323 0
M  V30 13 H 0.6 -2.2537 0.3762 0
M  V30 14 H 1.4239 2.6059 -0.182 0
M  V30 15 H 2.8627 -1.3402 0.6961 0
M  V30 16 H 3.2828 1.0865 0.4276 0
M  V30 END ATOM
M  V30 BEGIN BOND
M  V30 1 2 1 2
M  V30 2 1 2 3
M  V30 3 1 2 4
M  V30 4 2 4 5
M  V30 5 1 4 6
M  V30 6 1 5 7
M  V30 7 2 6 8
M  V30 8 2 7 9
M  V30 9 1 8 9
M  V30 10 1 3 10
M  V30 11 1 3 11
M  V30 12 1 5 12
M  V30 13 1 6 13
M  V30 14 1 7 14
M  V30 15 1 8 15
M  V30 16 1 9 16
M  V30 END BOND
M  V30 END CTAB
M  END
>  <Structure No>
5976

>  <LogS>
-0.953

>  <MMFF94 Energy>
4.6388

$$$$
Compound 5977
Actelion Java MolfileCreator 2.0

  0  0  0  0  0  0              0 V3000
M  V30 BEGIN CTAB
M  V30 COUNTS 21 22 0 0 0
M  V30 BEGIN ATOM
M  V30 1 O 1.2937 -2.1838 -0.4041 0
M  V30 2 C 0.9515 -0.9975 -0.1453 0
M  V30 3 C -0.4842 -0.6334 -0.0828 0
M  V30 4 C 1.9905 0.0352 0.0936 0
M  V30 5 C -0.8465 0.7032 0.1822 0
M  V30 6 C -1.488 -1.597 -0.2843 0
M  V30 7 C 1.6336 1.3092 0.3255 0
M  V30 8 C 3.4461 -0.3326 0.0028 0
M  V30 9 C 0.2172 1.711 0.3895 0
M  V30 10 C -2.2056 1.0569 0.2428 0
M  V30 11 C -2.8357 -1.2336 -0.2216 0
M  V30 12 O -0.0734 2.9156 0.6202 0
M  V30 13 C -3.1938 0.0898 0.0414 0
M  V30 14 H -1.2321 -2.6288 -0.4892 0
M  V30 15 H 2.3921 2.0697 0.4715 0
M  V30 16 H 3.6225 -1.3195 0.4799 0
M  V30 17 H 3.7466 -0.3868 -1.0641 0
M  V30 18 H 4.0883 0.4119 0.5206 0
M  V30 19 H -2.5038 2.078 0.4449 0
M  V30 20 H -3.6042 -1.9798 -0.3772 0
M  V30 21 H -4.2389 0.3672 0.089 0
M  V30 END ATOM
M  V30 BEGIN BOND
M  V30 1 2 1 2
M  V30 2 1 2 3
M  V30 3 1 2 4
M  V30 4 2 3 5
M  V30 5 1 3 6
M  V30 6 2 4 7
M  V30 7 1 4 8
M  V30 8 1 5 9
M  V30 9 1 5 10
M  V30 10 2 6 11
M  V30 11 2 9 12
M  V30 12 2 10 13
M  V30 13 1 7 9
M  V30 14 1 11 13
M  V30 15 1 6 14
M  V30 16 1 7 15
M  V30 17 1 8 16
M  V30 18 1 8 17
M  V30 19 1 8 18
M  V30 20 1 10 19
M  V30 21 1 11 20
M  V30 22 1 13 21
M  V30 END BOND
M  V30 END CTAB
M  END
>  <Structure No>
5977

>  <LogS>
-3.0319

>  <MMFF94 Energy>
35.125

$$$$
Compound 5978
Actelion Java MolfileCreator 2.0

  0  0  0  0  0  0              0 V3000
M  V30 BEGIN CTAB
M  V30 COUNTS 15 15 0 0 0
M  V30 BEGIN ATOM
M  V30 1 Cl 2.9008 -0.1609 -1.369 0
M  V30 2 C 2.1635 -0.217 0.2504 0
M  V30 3 C 0.6745 -0.0655 0.1354 0
M  V30 4 C 0.0893 1.2115 0.1463 0
M  V30 5 C -0.141 -1.1954 -0.0419 0
M  V30 6 C -1.2949 1.3527 0.0064 0
M  V30 7 C -1.5248 -1.0498 -0.1813 0
M  V30 8 C -2.1016 0.2229 -0.155 0
M  V30 9 H 2.5915 0.598 0.872 0
M  V30 10 H 2.4209 -1.1839 0.7327 0
M  V30 11 H 0.704 2.0956 0.2619 0
M  V30 12 H 0.2942 -2.1866 -0.0727 0
M  V30 13 H -1.7419 2.3383 0.02 0
M  V30 14 H -2.1497 -1.9235 -0.3131 0
M  V30 15 H -3.1727 0.334 -0.2643 0
M  V30 END ATOM
M  V30 BEGIN BOND
M  V30 1 1 1 2
M  V30 2 1 2 3
M  V30 3 2 3 4
M  V30 4 1 3 5
M  V30 5 1 4 6
M  V30 6 2 5 7
M  V30 7 2 6 8
M  V30 8 1 7 8
M  V30 9 1 2 9
M  V30 10 1 2 10
M  V30 11 1 4 11
M  V30 12 1 5 12
M  V30 13 1 6 13
M  V30 14 1 7 14
M  V30 15 1 8 15
M  V30 END BOND
M  V30 END CTAB
M  END
>  <Structure No>
5978

>  <LogS>
-2.3822

>  <MMFF94 Energy>
26.152

$$$$
Compound 5979
Actelion Java MolfileCreator 2.0

  0  0  0  0  0  0              0 V3000
M  V30 BEGIN CTAB
M  V30 COUNTS 16 16 0 0 0
M  V30 BEGIN ATOM
M  V30 1 S 1.6222 -0.081 1.7845 0
M  V30 2 C 0.1315 -0.0262 0.7882 0
M  V30 3 C 2.7318 0.0837 0.3518 0
M  V30 4 C -0.487 1.2012 0.517 0
M  V30 5 C -0.4232 -1.2117 0.289 0
M  V30 6 C -1.6514 1.2426 -0.2567 0
M  V30 7 C -1.5879 -1.1683 -0.4845 0
M  V30 8 C -2.2015 0.0584 -0.7577 0
M  V30 9 H 2.5819 -0.7665 -0.346 0
M  V30 10 H 3.7831 0.0781 0.7051 0
M  V30 11 H 2.5342 1.0405 -0.1752 0
M  V30 12 H -0.0657 2.1212 0.902 0
M  V30 13 H 0.0474 -2.1641 0.4971 0
M  V30 14 H -2.1274 2.1916 -0.4676 0
M  V30 15 H -2.0146 -2.0845 -0.8716 0
M  V30 16 H -3.1026 0.0911 -1.3563 0
M  V30 END ATOM
M  V30 BEGIN BOND
M  V30 1 1 1 2
M  V30 2 1 1 3
M  V30 3 2 2 4
M  V30 4 1 2 5
M  V30 5 1 4 6
M  V30 6 2 5 7
M  V30 7 2 6 8
M  V30 8 1 7 8
M  V30 9 1 3 9
M  V30 10 1 3 10
M  V30 11 1 3 11
M  V30 12 1 4 12
M  V30 13 1 5 13
M  V30 14 1 6 14
M  V30 15 1 7 15
M  V30 16 1 8 16
M  V30 END BOND
M  V30 END CTAB
M  END
>  <Structure No>
5979

>  <LogS>
-2.39

>  <MMFF94 Energy>
15.413

$$$$
Compound 5980
Actelion Java MolfileCreator 2.0

  0  0  0  0  0  0              0 V3000
M  V30 BEGIN CTAB
M  V30 COUNTS 16 16 0 0 0
M  V30 BEGIN ATOM
M  V30 1 O 2.6686 1.4121 -0.392 0
M  V30 2 C 2.8389 0.3147 0.2021 0
M  V30 3 N 1.7575 -0.6077 0.3869 0
M  V30 4 C 0.3775 -0.3069 0.1158 0
M  V30 5 C -0.1557 0.9756 0.3453 0
M  V30 6 C -0.474 -1.3301 -0.3309 0
M  V30 7 C -1.5076 1.2324 0.0951 0
M  V30 8 C -1.8248 -1.0689 -0.5807 0
M  V30 9 C -2.3404 0.2125 -0.3718 0
M  V30 10 H 3.83 0.0482 0.5442 0
M  V30 11 H 2.0096 -1.5862 0.6525 0
M  V30 12 H 0.4604 1.771 0.7422 0
M  V30 13 H -0.0869 -2.3279 -0.4945 0
M  V30 14 H -1.912 2.2207 0.2724 0
M  V30 15 H -2.4724 -1.8608 -0.9342 0
M  V30 16 H -3.3868 0.4129 -0.5632 0
M  V30 END ATOM
M  V30 BEGIN BOND
M  V30 1 2 1 2
M  V30 2 1 2 3
M  V30 3 1 3 4
M  V30 4 2 4 5
M  V30 5 1 4 6
M  V30 6 1 5 7
M  V30 7 2 6 8
M  V30 8 2 7 9
M  V30 9 1 8 9
M  V30 10 1 2 10
M  V30 11 1 3 11
M  V30 12 1 5 12
M  V30 13 1 6 13
M  V30 14 1 7 14
M  V30 15 1 8 15
M  V30 16 1 9 16
M  V30 END BOND
M  V30 END CTAB
M  END
>  <Structure No>
5980

>  <LogS>
-0.6785

>  <MMFF94 Energy>
-3.4507

$$$$
Compound 5981
Actelion Java MolfileCreator 2.0

  0  0  0  0  0  0              0 V3000
M  V30 BEGIN CTAB
M  V30 COUNTS 14 14 0 0 0
M  V30 BEGIN ATOM
M  V30 1 S 4.4607 -0.0809 -0.1619 0
M  V30 2 C 3.0107 -0.7737 -0.0445 0
M  V30 3 N 1.8648 -1.3212 0.0481 0
M  V30 4 C 0.6264 -0.5942 0.0288 0
M  V30 5 C 0.5801 0.81 -0.0968 0
M  V30 6 C -0.574 -1.3095 0.1388 0
M  V30 7 C -0.6501 1.475 -0.1109 0
M  V30 8 C -1.8018 -0.6402 0.1243 0
M  V30 9 C -1.8398 0.7508 -4.0E-4 0
M  V30 10 H 1.4888 1.3915 -0.1836 0
M  V30 11 H -0.556 -2.3877 0.2359 0
M  V30 12 H -0.6809 2.5527 -0.2073 0
M  V30 13 H -2.7239 -1.2003 0.2098 0
M  V30 14 H -2.7909 1.2674 -0.0115 0
M  V30 END ATOM
M  V30 BEGIN BOND
M  V30 1 2 1 2
M  V30 2 2 2 3
M  V30 3 1 3 4
M  V30 4 2 4 5
M  V30 5 1 4 6
M  V30 6 1 5 7
M  V30 7 2 6 8
M  V30 8 2 7 9
M  V30 9 1 8 9
M  V30 10 1 5 10
M  V30 11 1 6 11
M  V30 12 1 7 12
M  V30 13 1 8 13
M  V30 14 1 9 14
M  V30 END BOND
M  V30 END CTAB
M  END
>  <Structure No>
5981

>  <LogS>
-3.1772

>  <MMFF94 Energy>
11.952

$$$$
Compound 5982
Actelion Java MolfileCreator 2.0

  0  0  0  0  0  0              0 V3000
M  V30 BEGIN CTAB
M  V30 COUNTS 19 19 0 0 0
M  V30 BEGIN ATOM
M  V30 1 Cl -0.2418 1.6128 -2.5814 0
M  V30 2 C -1.0287 0.9032 -1.1772 0
M  V30 3 C -0.2826 0.2895 -0.1495 0
M  V30 4 C -2.4271 0.9304 -1.1076 0
M  V30 5 N 1.155 0.2824 -0.2001 0
M  V30 6 C -0.9625 -0.265 0.9509 0
M  V30 7 C -3.0897 0.3627 -0.0174 0
M  V30 8 C 1.9602 -0.8245 0.2325 0
M  V30 9 C -2.3582 -0.2316 1.0117 0
M  V30 10 O 1.4339 -1.9425 0.4826 0
M  V30 11 C 3.4455 -0.6814 0.3025 0
M  V30 12 H -3.0023 1.3917 -1.9004 0
M  V30 13 H 1.6449 1.1026 -0.623 0
M  V30 14 H -0.4141 -0.7026 1.7747 0
M  V30 15 H -4.1706 0.3881 0.0318 0
M  V30 16 H -2.8728 -0.6605 1.8619 0
M  V30 17 H 3.7101 0.3149 0.714 0
M  V30 18 H 3.8744 -0.7823 -0.7157 0
M  V30 19 H 3.8791 -1.4643 0.9604 0
M  V30 END ATOM
M  V30 BEGIN BOND
M  V30 1 1 1 2
M  V30 2 2 2 3
M  V30 3 1 2 4
M  V30 4 1 3 5
M  V30 5 1 3 6
M  V30 6 2 4 7
M  V30 7 1 5 8
M  V30 8 2 6 9
M  V30 9 2 8 10
M  V30 10 1 8 11
M  V30 11 1 7 9
M  V30 12 1 4 12
M  V30 13 1 5 13
M  V30 14 1 6 14
M  V30 15 1 7 15
M  V30 16 1 9 16
M  V30 17 1 11 17
M  V30 18 1 11 18
M  V30 19 1 11 19
M  V30 END BOND
M  V30 END CTAB
M  END
>  <Structure No>
5982

>  <LogS>
-1.4001

>  <MMFF94 Energy>
11.092

$$$$
Compound 5983
Actelion Java MolfileCreator 2.0

  0  0  0  0  0  0              0 V3000
M  V30 BEGIN CTAB
M  V30 COUNTS 22 22 0 0 0
M  V30 BEGIN ATOM
M  V30 1 O 2.3524 -1.0972 -1.4109 0
M  V30 2 C 2.6116 -0.3583 -0.423 0
M  V30 3 N 1.5541 0.2428 0.34 0
M  V30 4 C 4.0344 -0.0296 -0.1085 0
M  V30 5 C 0.1709 -0.1385 0.2427 0
M  V30 6 C -0.8252 0.829 0.4483 0
M  V30 7 C -0.2076 -1.4727 0.0092 0
M  V30 8 C -2.184 0.4843 0.3725 0
M  V30 9 C -1.5593 -1.8221 -0.0477 0
M  V30 10 C -2.5449 -0.8496 0.1347 0
M  V30 11 C -3.2407 1.5202 0.619 0
M  V30 12 H 1.7967 1.0628 0.9414 0
M  V30 13 H 4.7098 -0.8162 -0.5066 0
M  V30 14 H 4.1735 0.035 0.9909 0
M  V30 15 H 4.2986 0.945 -0.5683 0
M  V30 16 H -0.54 1.8534 0.6569 0
M  V30 17 H 0.5363 -2.2502 -0.0979 0
M  V30 18 H -1.8436 -2.852 -0.2212 0
M  V30 19 H -3.5883 -1.138 0.0981 0
M  V30 20 H -2.8961 2.5198 0.2784 0
M  V30 21 H -4.171 1.2712 0.0654 0
M  V30 22 H -3.4667 1.5656 1.7048 0
M  V30 END ATOM
M  V30 BEGIN BOND
M  V30 1 2 1 2
M  V30 2 1 2 3
M  V30 3 1 2 4
M  V30 4 1 3 5
M  V30 5 2 5 6
M  V30 6 1 5 7
M  V30 7 1 6 8
M  V30 8 2 7 9
M  V30 9 2 8 10
M  V30 10 1 8 11
M  V30 11 1 9 10
M  V30 12 1 3 12
M  V30 13 1 4 13
M  V30 14 1 4 14
M  V30 15 1 4 15
M  V30 16 1 6 16
M  V30 17 1 7 17
M  V30 18 1 9 18
M  V30 19 1 10 19
M  V30 20 1 11 20
M  V30 21 1 11 21
M  V30 22 1 11 22
M  V30 END BOND
M  V30 END CTAB
M  END
>  <Structure No>
5983

>  <LogS>
-2.091

>  <MMFF94 Energy>
2.0936

$$$$
Compound 5984
Actelion Java MolfileCreator 2.0

  0  0  0  0  0  0              0 V3000
M  V30 BEGIN CTAB
M  V30 COUNTS 21 21 0 0 0
M  V30 BEGIN ATOM
M  V30 1 O 0.2394 -1.9965 2.0765 0
M  V30 2 N -0.7939 -2.0514 1.3783 0 CHG=1
M  V30 3 O -1.626 -3.139 1.5132 0 CHG=-1
M  V30 4 C -1.2008 -0.9259 0.5784 0
M  V30 5 C -0.2542 -0.0352 0.0115 0
M  V30 6 C -2.5724 -0.6866 0.3777 0
M  V30 7 N 1.155 -0.3061 0.0986 0
M  V30 8 C -0.7064 1.0718 -0.7296 0
M  V30 9 C -3.003 0.4211 -0.3543 0
M  V30 10 C 2.1367 0.7056 0.367 0
M  V30 11 C -2.072 1.3004 -0.904 0
M  V30 12 O 1.7842 1.8621 0.7252 0
M  V30 13 C 3.5904 0.3682 0.3016 0
M  V30 14 H -3.3137 -1.3489 0.8064 0
M  V30 15 H 1.4812 -1.2924 -0.0136 0
M  V30 16 H 3.0E-4 1.7426 -1.2009 0
M  V30 17 H -4.0617 0.5979 -0.4951 0
M  V30 18 H -2.4084 2.1536 -1.4791 0
M  V30 19 H 3.8855 -0.1734 1.224 0
M  V30 20 H 4.1992 1.2928 0.2111 0
M  V30 21 H 3.7888 -0.2759 -0.5803 0
M  V30 END ATOM
M  V30 BEGIN BOND
M  V30 1 2 1 2
M  V30 2 1 2 3
M  V30 3 1 2 4
M  V30 4 2 4 5
M  V30 5 1 4 6
M  V30 6 1 5 7
M  V30 7 1 5 8
M  V30 8 2 6 9
M  V30 9 1 7 10
M  V30 10 2 8 11
M  V30 11 2 10 12
M  V30 12 1 10 13
M  V30 13 1 9 11
M  V30 14 1 6 14
M  V30 15 1 7 15
M  V30 16 1 8 16
M  V30 17 1 9 17
M  V30 18 1 11 18
M  V30 19 1 13 19
M  V30 20 1 13 20
M  V30 21 1 13 21
M  V30 END BOND
M  V30 END CTAB
M  END
>  <Structure No>
5984

>  <LogS>
-1.9093

>  <MMFF94 Energy>
37.948

$$$$
Compound 5985
Actelion Java MolfileCreator 2.0

  0  0  0  0  0  0              0 V3000
M  V30 BEGIN CTAB
M  V30 COUNTS 17 17 0 0 0
M  V30 BEGIN ATOM
M  V30 1 S 3.6262 1.6909 -0.7244 0
M  V30 2 C 2.9092 0.255 -0.8651 0
M  V30 3 N 2.3395 -0.8779 -0.9742 0
M  V30 4 C 1.3787 -1.3536 0.0149 0
M  V30 5 C 0.1224 -0.5236 -0.0224 0
M  V30 6 C -0.8626 -0.7764 -0.9913 0
M  V30 7 C -0.0493 0.5462 0.8719 0
M  V30 8 C -2.0137 0.0159 -1.0486 0
M  V30 9 C -1.2015 1.3365 0.811 0
M  V30 10 C -2.1839 1.0703 -0.1469 0
M  V30 11 H 1.128 -2.4117 -0.2121 0
M  V30 12 H 1.8375 -1.337 1.0285 0
M  V30 13 H -0.7381 -1.5849 -1.7012 0
M  V30 14 H 0.7085 0.7695 1.6126 0
M  V30 15 H -2.772 -0.1851 -1.7942 0
M  V30 16 H -1.3313 2.1576 1.5043 0
M  V30 17 H -3.0745 1.6837 -0.1935 0
M  V30 END ATOM
M  V30 BEGIN BOND
M  V30 1 2 1 2
M  V30 2 2 2 3
M  V30 3 1 3 4
M  V30 4 1 4 5
M  V30 5 2 5 6
M  V30 6 1 5 7
M  V30 7 1 6 8
M  V30 8 2 7 9
M  V30 9 2 8 10
M  V30 10 1 9 10
M  V30 11 1 4 11
M  V30 12 1 4 12
M  V30 13 1 6 13
M  V30 14 1 7 14
M  V30 15 1 8 15
M  V30 16 1 9 16
M  V30 17 1 10 17
M  V30 END BOND
M  V30 END CTAB
M  END
>  <Structure No>
5985

>  <LogS>
-3.1364

>  <MMFF94 Energy>
15.277

$$$$
Compound 5986
Actelion Java MolfileCreator 2.0

  0  0  0  0  0  0              0 V3000
M  V30 BEGIN CTAB
M  V30 COUNTS 23 24 0 0 0
M  V30 BEGIN ATOM
M  V30 1 O 3.6684 -1.5936 0.5575 0
M  V30 2 C 2.5265 -0.874 0.2123 0
M  V30 3 C 1.2659 -1.2687 0.678 0
M  V30 4 C 2.6432 0.2519 -0.605 0
M  V30 5 C 0.1154 -0.5464 0.3224 0
M  V30 6 C 1.5091 0.9874 -0.9551 0
M  V30 7 C 0.2417 0.6109 -0.4834 0
M  V30 8 C -1.2162 -0.9639 0.9015 0
M  V30 9 C -0.9683 1.3915 -0.9406 0
M  V30 10 C -2.4032 -0.3636 0.1425 0
M  V30 11 C -2.1989 1.1365 -0.0654 0
M  V30 12 H 3.6183 -2.4148 1.1489 0
M  V30 13 H 1.1822 -2.1372 1.3201 0
M  V30 14 H 3.6151 0.5568 -0.9716 0
M  V30 15 H 1.6182 1.8521 -1.5982 0
M  V30 16 H -1.2578 -0.6346 1.9625 0
M  V30 17 H -1.3064 -2.0718 0.8831 0
M  V30 18 H -0.7433 2.4802 -0.9288 0
M  V30 19 H -1.1998 1.1011 -1.9884 0
M  V30 20 H -2.5146 -0.8686 -0.8423 0
M  V30 21 H -3.335 -0.5336 0.7237 0
M  V30 22 H -3.0965 1.568 -0.5587 0
M  V30 23 H -2.0719 1.6394 0.9187 0
M  V30 END ATOM
M  V30 BEGIN BOND
M  V30 1 1 1 2
M  V30 2 2 2 3
M  V30 3 1 2 4
M  V30 4 1 3 5
M  V30 5 2 4 6
M  V30 6 2 5 7
M  V30 7 1 5 8
M  V30 8 1 7 9
M  V30 9 1 8 10
M  V30 10 1 9 11
M  V30 11 1 6 7
M  V30 12 1 10 11
M  V30 13 1 1 12
M  V30 14 1 3 13
M  V30 15 1 4 14
M  V30 16 1 6 15
M  V30 17 1 8 16
M  V30 18 1 8 17
M  V30 19 1 9 18
M  V30 20 1 9 19
M  V30 21 1 10 20
M  V30 22 1 10 21
M  V30 23 1 11 22
M  V30 24 1 11 23
M  V30 END BOND
M  V30 END CTAB
M  END
>  <Structure No>
5986

>  <LogS>
-1.9948

>  <MMFF94 Energy>
9.8115

$$$$
Compound 5987
Actelion Java MolfileCreator 2.0

  0  0  0  0  0  0              0 V3000
M  V30 BEGIN CTAB
M  V30 COUNTS 16 16 0 0 0
M  V30 BEGIN ATOM
M  V30 1 Cl -0.5026 1.4246 2.2633 0
M  V30 2 C 0.3086 0.6501 0.9047 0
M  V30 3 C -0.3409 -0.3066 0.0913 0
M  V30 4 C 1.6521 0.9674 0.6756 0
M  V30 5 C 0.3889 -0.9401 -0.9401 0
M  V30 6 C -1.7614 -0.6483 0.3192 0
M  V30 7 C 2.36 0.3418 -0.3502 0
M  V30 8 Cl -0.3556 -2.1182 -2.0178 0
M  V30 9 C 1.7318 -0.6093 -1.1534 0
M  V30 10 O -2.0992 -1.8517 0.4789 0
M  V30 11 N -2.7614 0.371 0.3428 0
M  V30 12 H 2.1535 1.6952 1.3012 0
M  V30 13 H 3.399 0.5921 -0.5206 0
M  V30 14 H 2.29 -1.0872 -1.9485 0
M  V30 15 H -2.5181 1.3639 0.1299 0
M  V30 16 H -3.759 0.1253 0.5294 0
M  V30 END ATOM
M  V30 BEGIN BOND
M  V30 1 1 1 2
M  V30 2 2 2 3
M  V30 3 1 2 4
M  V30 4 1 3 5
M  V30 5 1 3 6
M  V30 6 2 4 7
M  V30 7 1 5 8
M  V30 8 2 5 9
M  V30 9 2 6 10
M  V30 10 1 6 11
M  V30 11 1 7 9
M  V30 12 1 4 12
M  V30 13 1 7 13
M  V30 14 1 9 14
M  V30 15 1 11 15
M  V30 16 1 11 16
M  V30 END BOND
M  V30 END CTAB
M  END
>  <Structure No>
5987

>  <LogS>
-1.8427

>  <MMFF94 Energy>
-0.3336

$$$$
Compound 5988
Actelion Java MolfileCreator 2.0

  0  0  0  0  0  0              0 V3000
M  V30 BEGIN CTAB
M  V30 COUNTS 28 29 0 0 0
M  V30 BEGIN ATOM
M  V30 1 O 4.9778 1.5234 1.9246 0
M  V30 2 N 4.8236 0.372 1.4669 0 CHG=1
M  V30 3 O 5.8278 -0.5518 1.645 0 CHG=-1
M  V30 4 C 3.6171 0.0155 0.7675 0
M  V30 5 C 2.5897 0.9583 0.5799 0
M  V30 6 C 3.45 -1.2821 0.2533 0
M  V30 7 C 1.4197 0.607 -0.0994 0
M  V30 8 C 2.2788 -1.6306 -0.4258 0
M  V30 9 C 1.2504 -0.6978 -0.5928 0
M  V30 10 O 0.0976 -1.0835 -1.2931 0
M  V30 11 C -1.1913 -0.5718 -1.0819 0
M  V30 12 C -1.6263 -0.1512 0.1888 0
M  V30 13 C -2.08 -0.5236 -2.1619 0
M  V30 14 C -2.9314 0.3339 0.3687 0
M  V30 15 C -3.374 -0.025 -1.9908 0
M  V30 16 C -3.7966 0.4126 -0.733 0
M  V30 17 C -3.3753 0.8248 1.715 0
M  V30 18 H 2.6936 1.9694 0.9524 0
M  V30 19 H 4.2245 -2.0281 0.3746 0
M  V30 20 H 0.6567 1.3584 -0.2553 0
M  V30 21 H 2.1662 -2.6336 -0.8176 0
M  V30 22 H -0.9599 -0.2186 1.0394 0
M  V30 23 H -1.7612 -0.861 -3.14 0
M  V30 24 H -4.0496 0.0243 -2.835 0
M  V30 25 H -4.7995 0.8051 -0.617 0
M  V30 26 H -3.1084 1.8967 1.8232 0
M  V30 27 H -4.4741 0.7113 1.8326 0
M  V30 28 H -2.8824 0.2451 2.5245 0
M  V30 END ATOM
M  V30 BEGIN BOND
M  V30 1 2 1 2
M  V30 2 1 2 3
M  V30 3 1 2 4
M  V30 4 2 4 5
M  V30 5 1 4 6
M  V30 6 1 5 7
M  V30 7 2 6 8
M  V30 8 2 7 9
M  V30 9 1 9 10
M  V30 10 1 10 11
M  V30 11 2 11 12
M  V30 12 1 11 13
M  V30 13 1 12 14
M  V30 14 2 13 15
M  V30 15 2 14 16
M  V30 16 1 14 17
M  V30 17 1 8 9
M  V30 18 1 15 16
M  V30 19 1 5 18
M  V30 20 1 6 19
M  V30 21 1 7 20
M  V30 22 1 8 21
M  V30 23 1 12 22
M  V30 24 1 13 23
M  V30 25 1 15 24
M  V30 26 1 16 25
M  V30 27 1 17 26
M  V30 28 1 17 27
M  V30 29 1 17 28
M  V30 END BOND
M  V30 END CTAB
M  END
>  <Structure No>
5988

>  <LogS>
-4.6613

>  <MMFF94 Energy>
77.077

$$$$
Compound 5989
Actelion Java MolfileCreator 2.0

  0  0  0  0  0  0              0 V3000
M  V30 BEGIN CTAB
M  V30 COUNTS 28 28 0 0 0
M  V30 BEGIN ATOM
M  V30 1 O 0.1556 -0.7783 1.4792 0
M  V30 2 C -0.4773 -0.592 0.4036 0
M  V30 3 N 0.2463 -0.4613 -0.831 0
M  V30 4 C -1.9588 -0.5329 0.433 0
M  V30 5 C 1.7015 -0.3184 -0.8716 0
M  V30 6 C -2.6665 -1.1209 1.4987 0
M  V30 7 C -2.6809 0.1276 -0.5796 0
M  V30 8 N 2.0931 1.0198 -0.4011 0 CHG=1
M  V30 9 C -4.0632 -1.0654 1.539 0
M  V30 10 C -4.0777 0.1807 -0.5334 0
M  V30 11 C 3.5339 1.2755 -0.5765 0
M  V30 12 C -4.7682 -0.4173 0.5228 0
M  V30 13 C 4.3902 0.5214 0.4449 0
M  V30 14 H -0.2598 -0.5542 -1.7397 0
M  V30 15 H 2.1627 -1.1103 -0.2431 0
M  V30 16 H 2.0447 -0.4689 -1.9198 0
M  V30 17 H -2.1406 -1.6323 2.2955 0
M  V30 18 H -2.1725 0.6247 -1.3949 0
M  V30 19 H 1.8307 1.1386 0.6052 0
M  V30 20 H 1.5677 1.733 -0.9597 0
M  V30 21 H -4.599 -1.5256 2.3593 0
M  V30 22 H -4.6251 0.6922 -1.3148 0
M  V30 23 H 3.7244 2.3638 -0.4435 0
M  V30 24 H 3.8604 1.0119 -1.6073 0
M  V30 25 H -5.8494 -0.374 0.5564 0
M  V30 26 H 5.4472 0.8488 0.3525 0
M  V30 27 H 4.3523 -0.5718 0.2619 0
M  V30 28 H 4.0437 0.7369 1.4779 0
M  V30 END ATOM
M  V30 BEGIN BOND
M  V30 1 2 1 2
M  V30 2 1 2 3
M  V30 3 1 2 4
M  V30 4 1 3 5
M  V30 5 2 4 6
M  V30 6 1 4 7
M  V30 7 1 5 8
M  V30 8 1 6 9
M  V30 9 2 7 10
M  V30 10 1 8 11
M  V30 11 2 9 12
M  V30 12 1 11 13
M  V30 13 1 10 12
M  V30 14 1 3 14
M  V30 15 1 5 15
M  V30 16 1 5 16
M  V30 17 1 6 17
M  V30 18 1 7 18
M  V30 19 1 8 19
M  V30 20 1 8 20
M  V30 21 1 9 21
M  V30 22 1 10 22
M  V30 23 1 11 23
M  V30 24 1 11 24
M  V30 25 1 12 25
M  V30 26 1 13 26
M  V30 27 1 13 27
M  V30 28 1 13 28
M  V30 END BOND
M  V30 END CTAB
M  END
>  <Structure No>
5989

>  <LogS>
-0.0749

>  <MMFF94 Energy>
-62.594

$$$$
Compound 5990
Actelion Java MolfileCreator 2.0

  0  0  0  0  0  0              0 V3000
M  V30 BEGIN CTAB
M  V30 COUNTS 27 27 0 0 0
M  V30 BEGIN ATOM
M  V30 1 N 1.9374 0.5422 -0.6196 0 CHG=1
M  V30 2 C 1.4818 -0.3794 0.4343 0
M  V30 3 C 3.23 0.1142 -1.1602 0
M  V30 4 C 0.1621 0.1031 1.0777 0 CFG=1
M  V30 5 C -0.9714 0.1682 0.0691 0
M  V30 6 C -0.223 -0.7873 2.2662 0
M  V30 7 C -1.4234 -0.9895 -0.5941 0
M  V30 8 C -1.5803 1.4019 -0.2251 0
M  V30 9 C -2.4615 -0.9107 -1.5271 0
M  V30 10 C -2.618 1.4747 -1.1591 0
M  V30 11 C -3.0583 0.3199 -1.8092 0
M  V30 12 H 2.042 1.5069 -0.2268 0
M  V30 13 H 1.2437 0.5613 -1.403 0
M  V30 14 H 2.258 -0.4425 1.231 0
M  V30 15 H 1.348 -1.4016 0.0148 0
M  V30 16 H 3.5513 0.815 -1.9607 0
M  V30 17 H 3.1527 -0.9043 -1.6001 0
M  V30 18 H 4.0076 0.1157 -0.3651 0
M  V30 19 H 0.347 1.1192 1.4932 0
M  V30 20 H -0.3401 -1.846 1.9522 0
M  V30 21 H 0.5628 -0.7375 3.0499 0
M  V30 22 H -1.1781 -0.4363 2.7126 0
M  V30 23 H -0.9738 -1.9528 -0.3921 0
M  V30 24 H -1.2517 2.3094 0.2656 0
M  V30 25 H -2.8029 -1.8049 -2.0323 0
M  V30 26 H -3.0806 2.4281 -1.3796 0
M  V30 27 H -3.8615 0.3788 -2.5322 0
M  V30 END ATOM
M  V30 BEGIN BOND
M  V30 1 1 1 2
M  V30 2 1 1 3
M  V30 3 1 2 4
M  V30 4 1 4 5
M  V30 5 1 4 6
M  V30 6 2 5 7
M  V30 7 1 5 8
M  V30 8 1 7 9
M  V30 9 2 8 10
M  V30 10 2 9 11
M  V30 11 1 10 11
M  V30 12 1 1 12
M  V30 13 1 1 13
M  V30 14 1 2 14
M  V30 15 1 2 15
M  V30 16 1 3 16
M  V30 17 1 3 17
M  V30 18 1 3 18
M  V30 19 1 4 19
M  V30 20 1 6 20
M  V30 21 1 6 21
M  V30 22 1 6 22
M  V30 23 1 7 23
M  V30 24 1 8 24
M  V30 25 1 9 25
M  V30 26 1 10 26
M  V30 27 1 11 27
M  V30 END BOND
M  V30 BEGIN COLLECTION
M  V30 MDLV30/STEABS ATOMS=(1 4)
M  V30 END COLLECTION
M  V30 END CTAB
M  END
>  <Structure No>
5990

>  <LogS>
-1.0947

>  <MMFF94 Energy>
38.387

$$$$
Compound 5991
Actelion Java MolfileCreator 2.0

  0  0  0  0  0  0              0 V3000
M  V30 BEGIN CTAB
M  V30 COUNTS 18 18 0 0 0
M  V30 BEGIN ATOM
M  V30 1 O 3.4133 0.4757 0.555 0
M  V30 2 N 2.4092 1.1519 0.25 0
M  V30 3 N 1.1661 0.5497 -0.0135 0
M  V30 4 C 1.0373 -0.9103 -0.1153 0
M  V30 5 C 0.0812 1.3925 -0.5186 0
M  V30 6 C -0.3126 -1.3676 0.4469 0
M  V30 7 C -1.2633 0.9329 0.0522 0
M  V30 8 C -1.4645 -0.5691 -0.1721 0
M  V30 9 H 1.8432 -1.4196 0.4543 0
M  V30 10 H 1.1221 -1.2114 -1.1818 0
M  V30 11 H 0.0586 1.3352 -1.6284 0
M  V30 12 H 0.2536 2.4521 -0.2288 0
M  V30 13 H -0.3181 -1.2305 1.5506 0
M  V30 14 H -0.4549 -2.4488 0.2334 0
M  V30 15 H -1.2977 1.1542 1.1417 0
M  V30 16 H -2.0857 1.4948 -0.4404 0
M  V30 17 H -2.4226 -0.885 0.294 0
M  V30 18 H -1.5257 -0.7815 -1.2623 0
M  V30 END ATOM
M  V30 BEGIN BOND
M  V30 1 2 1 2
M  V30 2 1 2 3
M  V30 3 1 3 4
M  V30 4 1 3 5
M  V30 5 1 4 6
M  V30 6 1 5 7
M  V30 7 1 6 8
M  V30 8 1 7 8
M  V30 9 1 4 9
M  V30 10 1 4 10
M  V30 11 1 5 11
M  V30 12 1 5 12
M  V30 13 1 6 13
M  V30 14 1 6 14
M  V30 15 1 7 15
M  V30 16 1 7 16
M  V30 17 1 8 17
M  V30 18 1 8 18
M  V30 END BOND
M  V30 END CTAB
M  END
>  <Structure No>
5991

>  <LogS>
-0.1738

>  <MMFF94 Energy>
-2.6748

$$$$
Compound 5992
Actelion Java MolfileCreator 2.0

  0  0  0  0  0  0              0 V3000
M  V30 BEGIN CTAB
M  V30 COUNTS 24 25 0 0 0
M  V30 BEGIN ATOM
M  V30 1 N -0.3971 -0.3971 -0.2382 0
M  V30 2 N 0.4652 0.4357 0.1892 0
M  V30 3 C -1.8012 -0.2238 -0.0135 0
M  V30 4 C 1.8692 0.2624 -0.0354 0
M  V30 5 C -2.6919 -1.1824 -0.5144 0
M  V30 6 C -2.3055 0.8828 0.696 0
M  V30 7 C 2.3734 -0.844 -0.7448 0
M  V30 8 C 2.7598 1.2212 0.4655 0
M  V30 9 C -4.0685 -1.0418 -0.3117 0
M  V30 10 C -3.6829 1.0199 0.8966 0
M  V30 11 C 3.7508 -0.9811 -0.9455 0
M  V30 12 C 4.1364 1.0806 0.2629 0
M  V30 13 C -4.5637 0.0587 0.3932 0
M  V30 14 C 4.6315 -0.0197 -0.442 0
M  V30 15 H -2.3171 -2.0383 -1.0618 0
M  V30 16 H -1.6388 1.6374 1.0932 0
M  V30 17 H 1.7066 -1.5986 -1.1419 0
M  V30 18 H 2.385 2.0771 1.013 0
M  V30 19 H -4.7513 -1.7858 -0.7013 0
M  V30 20 H -4.0677 1.8718 1.4425 0
M  V30 21 H 4.1354 -1.8329 -1.4912 0
M  V30 22 H 4.819 1.8248 0.6525 0
M  V30 23 H -5.6294 0.1664 0.5495 0
M  V30 24 H 5.6971 -0.1273 -0.5982 0
M  V30 END ATOM
M  V30 BEGIN BOND
M  V30 1 2 1 2
M  V30 2 1 1 3
M  V30 3 1 2 4
M  V30 4 2 3 5
M  V30 5 1 3 6
M  V30 6 2 4 7
M  V30 7 1 4 8
M  V30 8 1 5 9
M  V30 9 2 6 10
M  V30 10 1 7 11
M  V30 11 2 8 12
M  V30 12 2 9 13
M  V30 13 2 11 14
M  V30 14 1 10 13
M  V30 15 1 12 14
M  V30 16 1 5 15
M  V30 17 1 6 16
M  V30 18 1 7 17
M  V30 19 1 8 18
M  V30 20 1 9 19
M  V30 21 1 10 20
M  V30 22 1 11 21
M  V30 23 1 12 22
M  V30 24 1 13 23
M  V30 25 1 14 24
M  V30 END BOND
M  V30 END CTAB
M  END
>  <Structure No>
5992

>  <LogS>
-4.4544

>  <MMFF94 Energy>
40.563

$$$$
Compound 5993
Actelion Java MolfileCreator 2.0

  0  0  0  0  0  0              0 V3000
M  V30 BEGIN CTAB
M  V30 COUNTS 44 46 0 0 0
M  V30 BEGIN ATOM
M  V30 1 O 2.0893 0.0 -1.9284 0
M  V30 2 C 2.1875 0.1661 -0.6811 0
M  V30 3 O 1.0434 0.1275 0.1262 0
M  V30 4 C 3.5106 0.4083 -0.0662 0
M  V30 5 C -0.2724 -0.1233 -0.3718 0 CFG=2
M  V30 6 C 4.6751 0.4461 -0.8563 0
M  V30 7 C 3.6222 0.6048 1.3226 0
M  V30 8 C -1.3175 0.3124 0.7081 0 CFG=1
M  V30 9 C -0.4016 -1.607 -0.8345 0
M  V30 10 C 5.9224 0.6758 -0.2668 0
M  V30 11 C 4.872 0.8341 1.9065 0
M  V30 12 C -1.6167 1.7826 0.5658 0
M  V30 13 C -2.6415 -0.5301 0.667 0 CFG=1
M  V30 14 C -1.8326 -2.1957 -0.66 0 CFG=2
M  V30 15 C 6.0208 0.8695 1.1128 0
M  V30 16 O -2.3416 2.1931 -0.3829 0
M  V30 17 O -1.0532 2.688 1.4701 0
M  V30 18 N -2.8146 -1.0989 -0.6804 0 CHG=1 CFG=1
M  V30 19 C -2.525 -1.743 1.6099 0
M  V30 20 C -1.9673 -2.8504 0.7264 0
M  V30 21 C -1.2679 4.0913 1.3834 0
M  V30 22 C -4.1914 -1.5748 -0.9256 0
M  V30 23 H -0.4276 0.5084 -1.2775 0
M  V30 24 H 4.623 0.2986 -1.9278 0
M  V30 25 H 2.7457 0.5819 1.9583 0
M  V30 26 H -0.8415 0.1956 1.7067 0
M  V30 27 H -0.1397 -1.6552 -1.9142 0
M  V30 28 H 0.3546 -2.2364 -0.3171 0
M  V30 29 H 6.8134 0.7036 -0.8808 0
M  V30 30 H 4.9497 0.9846 2.9756 0
M  V30 31 H -3.5164 0.0922 0.9686 0
M  V30 32 H -2.0272 -2.9425 -1.4636 0
M  V30 33 H 6.9871 1.0473 1.567 0
M  V30 34 H -2.6034 -0.3991 -1.432 0
M  V30 35 H -1.8792 -1.5645 2.4963 0
M  V30 36 H -3.5332 -2.028 1.9832 0
M  V30 37 H -1.0085 -3.2435 1.128 0
M  V30 38 H -2.688 -3.6959 0.6765 0
M  V30 39 H -2.3514 4.3167 1.4794 0
M  V30 40 H -0.7211 4.5953 2.2066 0
M  V30 41 H -0.8892 4.4744 0.4121 0
M  V30 42 H -4.9026 -0.7213 -0.8817 0
M  V30 43 H -4.5147 -2.3381 -0.1866 0
M  V30 44 H -4.264 -2.0209 -1.9414 0
M  V30 END ATOM
M  V30 BEGIN BOND
M  V30 1 2 1 2
M  V30 2 1 2 3
M  V30 3 1 2 4
M  V30 4 1 3 5
M  V30 5 2 4 6
M  V30 6 1 4 7
M  V30 7 1 5 8
M  V30 8 1 5 9
M  V30 9 1 6 10
M  V30 10 2 7 11
M  V30 11 1 8 12
M  V30 12 1 8 13
M  V30 13 1 9 14
M  V30 14 2 10 15
M  V30 15 2 12 16
M  V30 16 1 12 17
M  V30 17 1 13 18
M  V30 18 1 13 19
M  V30 19 1 14 20
M  V30 20 1 17 21
M  V30 21 1 18 22
M  V30 22 1 11 15
M  V30 23 1 14 18
M  V30 24 1 19 20
M  V30 25 1 5 23
M  V30 26 1 6 24
M  V30 27 1 7 25
M  V30 28 1 8 26
M  V30 29 1 9 27
M  V30 30 1 9 28
M  V30 31 1 10 29
M  V30 32 1 11 30
M  V30 33 1 13 31
M  V30 34 1 14 32
M  V30 35 1 15 33
M  V30 36 1 18 34
M  V30 37 1 19 35
M  V30 38 1 19 36
M  V30 39 1 20 37
M  V30 40 1 20 38
M  V30 41 1 21 39
M  V30 42 1 21 40
M  V30 43 1 21 41
M  V30 44 1 22 42
M  V30 45 1 22 43
M  V30 46 1 22 44
M  V30 END BOND
M  V30 BEGIN COLLECTION
M  V30 MDLV30/STEABS ATOMS=(5 5 8 13 14 18)
M  V30 END COLLECTION
M  V30 END CTAB
M  END
>  <Structure No>
5993

>  <LogS>
-2.2267

>  <MMFF94 Energy>
18.287

$$$$
Compound 5994
Actelion Java MolfileCreator 2.0

  0  0  0  0  0  0              0 V3000
M  V30 BEGIN CTAB
M  V30 COUNTS 46 48 0 0 0
M  V30 BEGIN ATOM
M  V30 1 N 3.6446 -0.3956 0.3956 0 CHG=1
M  V30 2 C 3.0804 0.9262 0.0069 0
M  V30 3 C 4.5421 -0.9164 -0.6561 0
M  V30 4 C 4.3733 -0.2976 1.679 0
M  V30 5 C 1.6998 0.7942 -0.6628 0
M  V30 6 C 0.5897 0.5933 0.3802 0
M  V30 7 N -0.681 0.2053 -0.2482 0
M  V30 8 C -1.2125 -1.1169 -0.0313 0
M  V30 9 C -1.5008 1.2126 -0.8531 0
M  V30 10 C -2.4762 -1.3501 0.5934 0
M  V30 11 C -0.4265 -2.2169 -0.4243 0
M  V30 12 C -2.5996 1.719 -0.1496 0
M  V30 13 C -1.2258 1.6738 -2.1475 0
M  V30 14 C -2.9045 -2.6807 0.7616 0
M  V30 15 C -3.4545 -0.2752 1.06 0
M  V30 16 C -0.8805 -3.5216 -0.247 0
M  V30 17 C -3.4256 2.6848 -0.7438 0
M  V30 18 C -2.9143 1.1486 1.2024 0
M  V30 19 C -2.0442 2.644 -2.7351 0
M  V30 20 C -2.1194 -3.7528 0.3396 0
M  V30 21 C -3.1449 3.1486 -2.0342 0
M  V30 22 H 2.8756 -1.0977 0.5287 0
M  V30 23 H 2.9724 1.6056 0.8856 0
M  V30 24 H 3.7678 1.461 -0.6911 0
M  V30 25 H 5.4653 -0.2965 -0.7489 0
M  V30 26 H 4.8421 -1.9609 -0.4246 0
M  V30 27 H 4.0261 -0.9378 -1.6407 0
M  V30 28 H 3.6789 0.0133 2.4949 0
M  V30 29 H 4.7946 -1.2852 1.9652 0
M  V30 30 H 5.2072 0.4386 1.6099 0
M  V30 31 H 1.7105 -0.0443 -1.3897 0
M  V30 32 H 1.4952 1.7315 -1.2215 0
M  V30 33 H 0.4455 1.5398 0.948 0
M  V30 34 H 0.8899 -0.1753 1.1258 0
M  V30 35 H 0.5416 -2.0601 -0.8838 0
M  V30 36 H -0.3913 1.2711 -2.7065 0
M  V30 37 H -3.8668 -2.8919 1.2142 0
M  V30 38 H -3.8394 -0.5694 2.0594 0
M  V30 39 H -4.3302 -0.2689 0.3705 0
M  V30 40 H -0.2704 -4.3545 -0.5689 0
M  V30 41 H -4.2911 3.0691 -0.2176 0
M  V30 42 H -3.6753 1.7777 1.7158 0
M  V30 43 H -2.0084 1.1465 1.8495 0
M  V30 44 H -1.8401 2.9829 -3.7419 0
M  V30 45 H -2.4729 -4.767 0.4744 0
M  V30 46 H -3.7826 3.8921 -2.4912 0
M  V30 END ATOM
M  V30 BEGIN BOND
M  V30 1 1 1 2
M  V30 2 1 1 3
M  V30 3 1 1 4
M  V30 4 1 2 5
M  V30 5 1 5 6
M  V30 6 1 6 7
M  V30 7 1 7 8
M  V30 8 1 7 9
M  V30 9 2 8 10
M  V30 10 1 8 11
M  V30 11 2 9 12
M  V30 12 1 9 13
M  V30 13 1 10 14
M  V30 14 1 10 15
M  V30 15 2 11 16
M  V30 16 1 12 17
M  V30 17 1 12 18
M  V30 18 2 13 19
M  V30 19 2 14 20
M  V30 20 2 17 21
M  V30 21 1 15 18
M  V30 22 1 16 20
M  V30 23 1 19 21
M  V30 24 1 1 22
M  V30 25 1 2 23
M  V30 26 1 2 24
M  V30 27 1 3 25
M  V30 28 1 3 26
M  V30 29 1 3 27
M  V30 30 1 4 28
M  V30 31 1 4 29
M  V30 32 1 4 30
M  V30 33 1 5 31
M  V30 34 1 5 32
M  V30 35 1 6 33
M  V30 36 1 6 34
M  V30 37 1 11 35
M  V30 38 1 13 36
M  V30 39 1 14 37
M  V30 40 1 15 38
M  V30 41 1 15 39
M  V30 42 1 16 40
M  V30 43 1 17 41
M  V30 44 1 18 42
M  V30 45 1 18 43
M  V30 46 1 19 44
M  V30 47 1 20 45
M  V30 48 1 21 46
M  V30 END BOND
M  V30 END CTAB
M  END
>  <Structure No>
5994

>  <LogS>
-4.187

>  <MMFF94 Energy>
65.114

$$$$
Compound 5995
Actelion Java MolfileCreator 2.0

  0  0  0  0  0  0              0 V3000
M  V30 BEGIN CTAB
M  V30 COUNTS 21 21 0 0 0
M  V30 BEGIN ATOM
M  V30 1 O -2.0333 -0.4689 1.4856 0
M  V30 2 C -2.3921 0.1193 0.4303 0
M  V30 3 N -1.7717 -0.1948 -0.8232 0
M  V30 4 N -3.4253 1.1013 0.4886 0
M  V30 5 C -0.6909 -1.1705 -0.9427 0
M  V30 6 C 0.5879 -0.6031 -0.3898 0
M  V30 7 C 1.259 0.4192 -1.0808 0
M  V30 8 C 1.1077 -1.0655 0.8308 0
M  V30 9 C 2.4379 0.9637 -0.5622 0
M  V30 10 C 2.2868 -0.518 1.346 0
M  V30 11 C 2.9518 0.495 0.6499 0
M  V30 12 H -2.1106 0.2827 -1.6885 0
M  V30 13 H -3.8819 1.3337 1.3984 0
M  V30 14 H -3.7345 1.5986 -0.3755 0
M  V30 15 H -0.9758 -2.1133 -0.4266 0
M  V30 16 H -0.5391 -1.4203 -2.0152 0
M  V30 17 H 0.8676 0.7938 -2.0186 0
M  V30 18 H 0.6013 -1.8467 1.3838 0
M  V30 19 H 2.952 1.7503 -1.0991 0
M  V30 20 H 2.6842 -0.8781 2.2861 0
M  V30 21 H 3.864 0.918 1.0505 0
M  V30 END ATOM
M  V30 BEGIN BOND
M  V30 1 2 1 2
M  V30 2 1 2 3
M  V30 3 1 2 4
M  V30 4 1 3 5
M  V30 5 1 5 6
M  V30 6 2 6 7
M  V30 7 1 6 8
M  V30 8 1 7 9
M  V30 9 2 8 10
M  V30 10 2 9 11
M  V30 11 1 10 11
M  V30 12 1 3 12
M  V30 13 1 4 13
M  V30 14 1 4 14
M  V30 15 1 5 15
M  V30 16 1 5 16
M  V30 17 1 7 17
M  V30 18 1 8 18
M  V30 19 1 9 19
M  V30 20 1 10 20
M  V30 21 1 11 21
M  V30 END BOND
M  V30 END CTAB
M  END
>  <Structure No>
5995

>  <LogS>
-0.9462

>  <MMFF94 Energy>
-94.2

$$$$
Compound 5996
Actelion Java MolfileCreator 2.0

  0  0  0  0  0  0              0 V3000
M  V30 BEGIN CTAB
M  V30 COUNTS 17 17 0 0 0
M  V30 BEGIN ATOM
M  V30 1 S -1.8949 -0.6588 0.5764 0
M  V30 2 O -2.1302 -0.6485 2.0609 0
M  V30 3 O -2.2068 -2.0313 0.0496 0
M  V30 4 N -2.9327 0.4984 -0.1793 0
M  V30 5 C -0.2144 -0.2573 0.2365 0
M  V30 6 C 0.4927 0.6006 1.0914 0
M  V30 7 C 0.4167 -0.7721 -0.9053 0
M  V30 8 C 1.8232 0.9294 0.8127 0
M  V30 9 C 1.7472 -0.4415 -1.1813 0
M  V30 10 C 2.4506 0.4076 -0.3221 0
M  V30 11 H -2.7078 0.4891 -1.1994 0
M  V30 12 H -2.6552 1.4385 0.1815 0
M  V30 13 H 0.0154 1.0163 1.9695 0
M  V30 14 H -0.12 -1.425 -1.5815 0
M  V30 15 H 2.367 1.5903 1.4754 0
M  V30 16 H 2.2321 -0.8417 -2.0621 0
M  V30 17 H 3.48 0.6633 -0.537 0
M  V30 END ATOM
M  V30 BEGIN BOND
M  V30 1 2 1 2
M  V30 2 2 1 3
M  V30 3 1 1 4
M  V30 4 1 1 5
M  V30 5 2 5 6
M  V30 6 1 5 7
M  V30 7 1 6 8
M  V30 8 2 7 9
M  V30 9 2 8 10
M  V30 10 1 9 10
M  V30 11 1 4 11
M  V30 12 1 4 12
M  V30 13 1 6 13
M  V30 14 1 7 14
M  V30 15 1 8 15
M  V30 16 1 9 16
M  V30 17 1 10 17
M  V30 END BOND
M  V30 END CTAB
M  END
>  <Structure No>
5996

>  <LogS>
-1.563

>  <MMFF94 Energy>
-58.638

$$$$
Compound 5997
Actelion Java MolfileCreator 2.0

  0  0  0  0  0  0              0 V3000
M  V30 BEGIN CTAB
M  V30 COUNTS 20 20 0 0 0
M  V30 BEGIN ATOM
M  V30 1 S 2.2904 -0.2452 0.9811 0
M  V30 2 O 2.1455 -1.4434 1.877 0
M  V30 3 O 2.9362 0.8643 1.7629 0
M  V30 4 N 3.2871 -0.6527 -0.3707 0
M  V30 5 C 0.7044 0.2684 0.4129 0
M  V30 6 C -0.306 -0.6791 0.1954 0
M  V30 7 C 0.4525 1.6225 0.1543 0
M  V30 8 C -1.5653 -0.2776 -0.2786 0
M  V30 9 C -0.805 2.0282 -0.3 0
M  V30 10 C -1.814 1.0842 -0.5087 0
M  V30 11 C -2.6572 -1.288 -0.4701 0
M  V30 12 H 3.3244 0.19 -0.9868 0
M  V30 13 H 2.785 -1.3954 -0.9068 0
M  V30 14 H -0.1124 -1.7268 0.3909 0
M  V30 15 H 1.2266 2.3638 0.3061 0
M  V30 16 H -0.9984 3.0763 -0.4892 0
M  V30 17 H -2.7866 1.4142 -0.8529 0
M  V30 18 H -3.3591 -0.9612 -1.2667 0
M  V30 19 H -2.2334 -2.2704 -0.7684 0
M  V30 20 H -3.2186 -1.409 0.4797 0
M  V30 END ATOM
M  V30 BEGIN BOND
M  V30 1 2 1 2
M  V30 2 2 1 3
M  V30 3 1 1 4
M  V30 4 1 1 5
M  V30 5 2 5 6
M  V30 6 1 5 7
M  V30 7 1 6 8
M  V30 8 2 7 9
M  V30 9 2 8 10
M  V30 10 1 8 11
M  V30 11 1 9 10
M  V30 12 1 4 12
M  V30 13 1 4 13
M  V30 14 1 6 14
M  V30 15 1 7 15
M  V30 16 1 9 16
M  V30 17 1 10 17
M  V30 18 1 11 18
M  V30 19 1 11 19
M  V30 20 1 11 20
M  V30 END BOND
M  V30 END CTAB
M  END
>  <Structure No>
5997

>  <LogS>
-1.3409

>  <MMFF94 Energy>
-56.907

$$$$
Compound 5998
Actelion Java MolfileCreator 2.0

  0  0  0  0  0  0              0 V3000
M  V30 BEGIN CTAB
M  V30 COUNTS 28 29 0 0 0
M  V30 BEGIN ATOM
M  V30 1 Cl -4.8439 2.4198 -1.123 0
M  V30 2 C -3.4933 1.4126 -0.6352 0
M  V30 3 C -3.0193 0.4158 -1.49 0
M  V30 4 C -2.8842 1.6116 0.6055 0
M  V30 5 C -1.9421 -0.3856 -1.1029 0
M  V30 6 C -1.806 0.8124 0.9965 0
M  V30 7 C -1.3282 -0.2125 0.1534 0
M  V30 8 C -0.1259 -1.0889 0.5067 0
M  V30 9 C 1.1594 -0.5118 -0.0715 0
M  V30 10 C 0.0196 -1.5039 2.0044 0
M  V30 11 C 1.4988 0.8457 0.097 0
M  V30 12 C 2.047 -1.3473 -0.776 0
M  V30 13 Cl 0.7013 -0.2244 3.0528 0
M  V30 14 Cl 1.1193 -2.9059 2.1324 0
M  V30 15 Cl -1.5498 -2.0233 2.6831 0
M  V30 16 C 2.6896 1.3513 -0.4319 0
M  V30 17 C 3.2368 -0.8376 -1.3031 0
M  V30 18 C 3.5588 0.5112 -1.1325 0
M  V30 19 Cl 5.053 1.1484 -1.7941 0
M  V30 20 H -3.4813 0.2633 -2.457 0
M  V30 21 H -3.2423 2.3897 1.2677 0
M  V30 22 H -1.5832 -1.1433 -1.7886 0
M  V30 23 H -1.3572 1.0074 1.9558 0
M  V30 24 H -0.3172 -2.0528 -0.0184 0
M  V30 25 H 0.847 1.5167 0.6394 0
M  V30 26 H 1.8194 -2.3963 -0.9176 0
M  V30 27 H 2.936 2.3965 -0.2947 0
M  V30 28 H 3.9081 -1.4929 -1.8432 0
M  V30 END ATOM
M  V30 BEGIN BOND
M  V30 1 1 1 2
M  V30 2 2 2 3
M  V30 3 1 2 4
M  V30 4 1 3 5
M  V30 5 2 4 6
M  V30 6 2 5 7
M  V30 7 1 7 8
M  V30 8 1 8 9
M  V30 9 1 8 10
M  V30 10 2 9 11
M  V30 11 1 9 12
M  V30 12 1 10 13
M  V30 13 1 10 14
M  V30 14 1 10 15
M  V30 15 1 11 16
M  V30 16 2 12 17
M  V30 17 2 16 18
M  V30 18 1 18 19
M  V30 19 1 6 7
M  V30 20 1 17 18
M  V30 21 1 3 20
M  V30 22 1 4 21
M  V30 23 1 5 22
M  V30 24 1 6 23
M  V30 25 1 8 24
M  V30 26 1 11 25
M  V30 27 1 12 26
M  V30 28 1 16 27
M  V30 29 1 17 28
M  V30 END BOND
M  V30 END CTAB
M  END
>  <Structure No>
5998

>  <LogS>
-7.8092

>  <MMFF94 Energy>
88.635

$$$$
Compound 5999
Actelion Java MolfileCreator 2.0

  0  0  0  0  0  0              0 V3000
M  V30 BEGIN CTAB
M  V30 COUNTS 26 27 0 0 0
M  V30 BEGIN ATOM
M  V30 1 Cl 5.2085 0.5967 1.7909 0
M  V30 2 C 3.6934 0.2786 0.9663 0
M  V30 3 C 3.4628 0.813 -0.3053 0
M  V30 4 C 2.7115 -0.5034 1.583 0
M  V30 5 C 2.2549 0.5618 -0.9629 0
M  V30 6 C 1.5025 -0.7564 0.9278 0
M  V30 7 C 1.2707 -0.2382 -0.3569 0
M  V30 8 C -0.0287 -0.481 -1.0283 0
M  V30 9 C -1.2558 -0.0762 -0.3014 0
M  V30 10 C -0.0919 -1.048 -2.253 0
M  V30 11 C -2.2558 -1.0168 0.0012 0
M  V30 12 C -1.398 1.2461 0.1506 0
M  V30 13 Cl 1.3394 -1.6701 -3.0692 0
M  V30 14 Cl -1.611 -1.2097 -3.13 0
M  V30 15 C -3.3926 -0.6316 0.7179 0
M  V30 16 C -2.5361 1.6284 0.8672 0
M  V30 17 C -3.5353 0.6912 1.149 0
M  V30 18 Cl -4.9613 1.1722 2.0502 0
M  V30 19 H 4.2155 1.4275 -0.7822 0
M  V30 20 H 2.8825 -0.9135 2.5702 0
M  V30 21 H 2.082 0.9991 -1.9386 0
M  V30 22 H 0.7495 -1.361 1.4186 0
M  V30 23 H -2.1494 -2.0492 -0.3084 0
M  V30 24 H -0.6305 1.9817 -0.0575 0
M  V30 25 H -4.1586 -1.3629 0.9426 0
M  V30 26 H -2.6388 2.6519 1.2047 0
M  V30 END ATOM
M  V30 BEGIN BOND
M  V30 1 1 1 2
M  V30 2 2 2 3
M  V30 3 1 2 4
M  V30 4 1 3 5
M  V30 5 2 4 6
M  V30 6 2 5 7
M  V30 7 1 7 8
M  V30 8 1 8 9
M  V30 9 2 8 10
M  V30 10 2 9 11
M  V30 11 1 9 12
M  V30 12 1 10 13
M  V30 13 1 10 14
M  V30 14 1 11 15
M  V30 15 2 12 16
M  V30 16 2 15 17
M  V30 17 1 17 18
M  V30 18 1 6 7
M  V30 19 1 16 17
M  V30 20 1 3 19
M  V30 21 1 4 20
M  V30 22 1 5 21
M  V30 23 1 6 22
M  V30 24 1 11 23
M  V30 25 1 12 24
M  V30 26 1 15 25
M  V30 27 1 16 26
M  V30 END BOND
M  V30 END CTAB
M  END
>  <Structure No>
5999

>  <LogS>
-6.9004

>  <MMFF94 Energy>
54.504

$$$$
Compound 6000
Actelion Java MolfileCreator 2.0

  0  0  0  0  0  0              0 V3000
M  V30 BEGIN CTAB
M  V30 COUNTS 18 18 0 0 0
M  V30 BEGIN ATOM
M  V30 1 Cl 0.9307 -0.8461 2.9636 0
M  V30 2 C 1.1284 -0.5484 1.2434 0
M  V30 3 C 0.0065 -0.3509 0.4211 0
M  V30 4 C 2.4182 -0.5078 0.7012 0
M  V30 5 O -1.2718 -0.3991 1.004 0
M  V30 6 C 0.1995 -0.1154 -0.9551 0
M  V30 7 C 2.5994 -0.2713 -0.664 0
M  V30 8 C -2.5023 -0.1602 0.3209 0
M  V30 9 C 1.49 -0.0757 -1.4905 0
M  V30 10 Cl 4.2174 -0.221 -1.3394 0
M  V30 11 C -2.646 1.2893 -0.0192 0
M  V30 12 O -2.5079 2.1653 0.8744 0
M  V30 13 O -2.9602 1.673 -1.3165 0 CHG=-1
M  V30 14 H 3.2782 -0.6596 1.3411 0
M  V30 15 H -0.6375 0.0367 -1.6211 0
M  V30 16 H -2.5693 -0.7927 -0.5897 0
M  V30 17 H -3.3396 -0.4474 0.9903 0
M  V30 18 H 1.626 0.1063 -2.5489 0
M  V30 END ATOM
M  V30 BEGIN BOND
M  V30 1 1 1 2
M  V30 2 2 2 3
M  V30 3 1 2 4
M  V30 4 1 3 5
M  V30 5 1 3 6
M  V30 6 2 4 7
M  V30 7 1 5 8
M  V30 8 2 6 9
M  V30 9 1 7 10
M  V30 10 1 8 11
M  V30 11 2 11 12
M  V30 12 1 11 13
M  V30 13 1 7 9
M  V30 14 1 4 14
M  V30 15 1 6 15
M  V30 16 1 8 16
M  V30 17 1 8 17
M  V30 18 1 9 18
M  V30 END BOND
M  V30 END CTAB
M  END
>  <Structure No>
6000

>  <LogS>
-2.5139

>  <MMFF94 Energy>
72.259

$$$$
Compound 6001
Actelion Java MolfileCreator 2.0

  0  0  0  0  0  0              0 V3000
M  V30 BEGIN CTAB
M  V30 COUNTS 26 26 0 0 0
M  V30 BEGIN ATOM
M  V30 1 Cl 5.7007 1.5231 -0.4807 0
M  V30 2 C 4.3656 0.437 -0.1419 0
M  V30 3 C 3.0779 0.9495 0.0525 0
M  V30 4 C 4.588 -0.9409 -0.0633 0
M  V30 5 C 2.0006 0.0875 0.3114 0
M  V30 6 C 3.5268 -1.8048 0.2175 0
M  V30 7 N 0.692 0.6418 0.5302 0
M  V30 8 C 2.2391 -1.2958 0.4113 0
M  V30 9 C -0.5322 0.0 0.1498 0
M  V30 10 O -0.5179 -1.0258 -0.5843 0
M  V30 11 O -1.7471 0.5484 0.5762 0
M  V30 12 C -3.0234 0.028 0.2027 0
M  V30 13 C -4.0798 0.5735 1.1615 0
M  V30 14 C -3.3546 0.4226 -1.2392 0
M  V30 15 H 2.9125 2.0182 -0.0074 0
M  V30 16 H 5.5826 -1.342 -0.2107 0
M  V30 17 H 3.7039 -2.8698 0.2944 0
M  V30 18 H 0.623 1.6127 0.9106 0
M  V30 19 H 1.4408 -1.9801 0.6645 0
M  V30 20 H -3.0182 -1.0813 0.2896 0
M  V30 21 H -5.0806 0.1633 0.9077 0
M  V30 22 H -3.8313 0.2744 2.2018 0
M  V30 23 H -4.1165 1.6829 1.1094 0
M  V30 24 H -2.6081 -0.0104 -1.9369 0
M  V30 25 H -3.345 1.528 -1.3497 0
M  V30 26 H -4.3574 0.0377 -1.5227 0
M  V30 END ATOM
M  V30 BEGIN BOND
M  V30 1 1 1 2
M  V30 2 2 2 3
M  V30 3 1 2 4
M  V30 4 1 3 5
M  V30 5 2 4 6
M  V30 6 1 5 7
M  V30 7 2 5 8
M  V30 8 1 7 9
M  V30 9 2 9 10
M  V30 10 1 9 11
M  V30 11 1 11 12
M  V30 12 1 12 13
M  V30 13 1 12 14
M  V30 14 1 6 8
M  V30 15 1 3 15
M  V30 16 1 4 16
M  V30 17 1 6 17
M  V30 18 1 7 18
M  V30 19 1 8 19
M  V30 20 1 12 20
M  V30 21 1 13 21
M  V30 22 1 13 22
M  V30 23 1 13 23
M  V30 24 1 14 24
M  V30 25 1 14 25
M  V30 26 1 14 26
M  V30 END BOND
M  V30 END CTAB
M  END
>  <Structure No>
6001

>  <LogS>
-3.3804

>  <MMFF94 Energy>
-37.645

$$$$
Compound 6002
Actelion Java MolfileCreator 2.0

  0  0  0  0  0  0              0 V3000
M  V30 BEGIN CTAB
M  V30 COUNTS 24 24 0 0 0
M  V30 BEGIN ATOM
M  V30 1 O -0.7041 1.4086 1.1737 0
M  V30 2 C -1.1037 0.437 0.4745 0
M  V30 3 N -2.4413 -0.0714 0.6627 0
M  V30 4 N -0.2316 -0.1261 -0.522 0
M  V30 5 C -3.3293 0.5885 1.6252 0
M  V30 6 C -2.8981 -1.2587 -0.066 0
M  V30 7 C 1.1945 0.0595 -0.5311 0
M  V30 8 C 1.8802 0.0744 -1.7565 0
M  V30 9 C 1.9285 0.1686 0.6651 0
M  V30 10 C 3.2692 0.2313 -1.7887 0
M  V30 11 C 3.3178 0.3244 0.6284 0
M  V30 12 C 3.9871 0.36 -0.5972 0
M  V30 13 H -0.6587 -0.614 -1.3402 0
M  V30 14 H -4.3298 0.1087 1.6604 0
M  V30 15 H -2.8831 0.5401 2.6409 0
M  V30 16 H -3.4682 1.652 1.3373 0
M  V30 17 H -2.1829 -2.0941 0.0884 0
M  V30 18 H -2.9746 -1.0283 -1.1491 0
M  V30 19 H -3.8959 -1.5969 0.2841 0
M  V30 20 H 1.3356 -0.0262 -2.6869 0
M  V30 21 H 1.4351 0.1097 1.626 0
M  V30 22 H 3.7891 0.2508 -2.7377 0
M  V30 23 H 3.8767 0.409 1.5514 0
M  V30 24 H 5.0625 0.4792 -0.6235 0
M  V30 END ATOM
M  V30 BEGIN BOND
M  V30 1 2 1 2
M  V30 2 1 2 3
M  V30 3 1 2 4
M  V30 4 1 3 5
M  V30 5 1 3 6
M  V30 6 1 4 7
M  V30 7 2 7 8
M  V30 8 1 7 9
M  V30 9 1 8 10
M  V30 10 2 9 11
M  V30 11 2 10 12
M  V30 12 1 11 12
M  V30 13 1 4 13
M  V30 14 1 5 14
M  V30 15 1 5 15
M  V30 16 1 5 16
M  V30 17 1 6 17
M  V30 18 1 6 18
M  V30 19 1 6 19
M  V30 20 1 8 20
M  V30 21 1 9 21
M  V30 22 1 10 22
M  V30 23 1 11 23
M  V30 24 1 12 24
M  V30 END BOND
M  V30 END CTAB
M  END
>  <Structure No>
6002

>  <LogS>
-1.6101

>  <MMFF94 Energy>
-45.355

$$$$
Compound 6003
Actelion Java MolfileCreator 2.0

  0  0  0  0  0  0              0 V3000
M  V30 BEGIN CTAB
M  V30 COUNTS 21 20 0 0 0
M  V30 BEGIN ATOM
M  V30 1 Cl 1.6184 2.6715 0.4853 0
M  V30 2 C 2.2293 1.1062 -0.1119 0
M  V30 3 C 1.2212 -0.01 0.1762 0 CFG=1
M  V30 4 O 0.0259 0.2603 -0.5383 0
M  V30 5 C 1.793 -1.3584 -0.2735 0
M  V30 6 C -1.1241 -0.1978 0.1553 0 CFG=2
M  V30 7 C -2.1644 -0.6737 -0.8669 0
M  V30 8 C -1.6882 0.9252 1.0351 0
M  V30 9 Cl -2.5605 0.5899 -2.0667 0
M  V30 10 H 3.1935 0.8934 0.3973 0
M  V30 11 H 2.4125 1.1882 -1.2049 0
M  V30 12 H 1.0701 -0.0368 1.282 0
M  V30 13 H 1.9851 -1.3523 -1.3678 0
M  V30 14 H 2.7431 -1.5723 0.2608 0
M  V30 15 H 1.076 -2.1744 -0.0453 0
M  V30 16 H -0.9088 -1.0765 0.8092 0
M  V30 17 H -3.0965 -0.9877 -0.3503 0
M  V30 18 H -1.7627 -1.5541 -1.412 0
M  V30 19 H -1.8875 1.836 0.4321 0
M  V30 20 H -2.6308 0.598 1.5233 0
M  V30 21 H -0.9605 1.1867 1.8313 0
M  V30 END ATOM
M  V30 BEGIN BOND
M  V30 1 1 1 2
M  V30 2 1 2 3
M  V30 3 1 3 4
M  V30 4 1 3 5
M  V30 5 1 4 6
M  V30 6 1 6 7
M  V30 7 1 6 8
M  V30 8 1 7 9
M  V30 9 1 2 10
M  V30 10 1 2 11
M  V30 11 1 3 12
M  V30 12 1 5 13
M  V30 13 1 5 14
M  V30 14 1 5 15
M  V30 15 1 6 16
M  V30 16 1 7 17
M  V30 17 1 7 18
M  V30 18 1 8 19
M  V30 19 1 8 20
M  V30 20 1 8 21
M  V30 END BOND
M  V30 BEGIN COLLECTION
M  V30 MDLV30/STEABS ATOMS=(2 3 6)
M  V30 END COLLECTION
M  V30 END CTAB
M  END
>  <Structure No>
6003

>  <LogS>
-2.0027

>  <MMFF94 Energy>
36.339

$$$$
Compound 6004
Actelion Java MolfileCreator 2.0

  0  0  0  0  0  0              0 V3000
M  V30 BEGIN CTAB
M  V30 COUNTS 29 30 0 0 0
M  V30 BEGIN ATOM
M  V30 1 Cl -4.7561 -2.8517 0.259 0
M  V30 2 C -3.4458 -1.7078 0.0315 0
M  V30 3 C -3.474 -0.4735 0.6798 0
M  V30 4 C -2.3714 -2.0306 -0.7955 0
M  V30 5 C -2.4316 0.4416 0.5035 0
M  V30 6 C -1.3274 -1.1206 -0.9763 0
M  V30 7 C -1.329 0.139 -0.3311 0
M  V30 8 C -0.1363 1.0998 -0.5856 0
M  V30 9 O -0.1791 1.4689 -1.95 0
M  V30 10 C 1.1837 0.3598 -0.2759 0
M  V30 11 C -0.1617 2.4483 0.2248 0
M  V30 12 C 1.3028 -0.454 0.8723 0
M  V30 13 C 2.3193 0.5163 -1.1012 0
M  V30 14 Cl -1.5602 3.4695 -0.2359 0
M  V30 15 Cl -0.1635 2.2179 2.0015 0
M  V30 16 Cl 1.2789 3.4433 -0.1496 0
M  V30 17 C 2.5031 -1.1056 1.1673 0
M  V30 18 C 3.5175 -0.1372 -0.8006 0
M  V30 19 C 3.6098 -0.9501 0.3309 0
M  V30 20 Cl 5.116 -1.7674 0.7053 0
M  V30 21 H -4.3058 -0.2197 1.3252 0
M  V30 22 H -2.3413 -2.9887 -1.2988 0
M  V30 23 H -2.5138 1.371 1.0376 0
M  V30 24 H -0.5038 -1.4115 -1.6159 0
M  V30 25 H -0.0487 0.6618 -2.5124 0
M  V30 26 H 0.4636 -0.5908 1.5422 0
M  V30 27 H 2.2883 1.1525 -1.9759 0
M  V30 28 H 2.5713 -1.73 2.0492 0
M  V30 29 H 4.376 -0.0063 -1.447 0
M  V30 END ATOM
M  V30 BEGIN BOND
M  V30 1 1 1 2
M  V30 2 2 2 3
M  V30 3 1 2 4
M  V30 4 1 3 5
M  V30 5 2 4 6
M  V30 6 2 5 7
M  V30 7 1 7 8
M  V30 8 1 8 9
M  V30 9 1 8 10
M  V30 10 1 8 11
M  V30 11 2 10 12
M  V30 12 1 10 13
M  V30 13 1 11 14
M  V30 14 1 11 15
M  V30 15 1 11 16
M  V30 16 1 12 17
M  V30 17 2 13 18
M  V30 18 2 17 19
M  V30 19 1 19 20
M  V30 20 1 6 7
M  V30 21 1 18 19
M  V30 22 1 3 21
M  V30 23 1 4 22
M  V30 24 1 5 23
M  V30 25 1 6 24
M  V30 26 1 9 25
M  V30 27 1 12 26
M  V30 28 1 13 27
M  V30 29 1 17 28
M  V30 30 1 18 29
M  V30 END BOND
M  V30 END CTAB
M  END
>  <Structure No>
6004

>  <LogS>
-5.6657

>  <MMFF94 Energy>
134.43

$$$$
Compound 6005
Actelion Java MolfileCreator 2.0

  0  0  0  0  0  0              0 V3000
M  V30 BEGIN CTAB
M  V30 COUNTS 21 21 0 0 0
M  V30 BEGIN ATOM
M  V30 1 Cl 1.1721 -2.5968 1.5072 0
M  V30 2 C 1.612 -1.1714 0.5787 0
M  V30 3 C 0.6332 -0.2361 0.2039 0
M  V30 4 C 2.9496 -0.9791 0.2147 0
M  V30 5 O -0.6989 -0.466 0.5895 0
M  V30 6 C 1.0186 0.8973 -0.5403 0
M  V30 7 C 3.3218 0.1467 -0.5246 0
M  V30 8 C -1.8155 0.3603 0.2531 0 CFG=1
M  V30 9 C 2.356 1.0837 -0.9009 0
M  V30 10 Cl 4.9993 0.384 -0.979 0
M  V30 11 C -2.1335 0.2471 -1.21 0
M  V30 12 C -3.022 -0.0736 1.0802 0
M  V30 13 O -2.0954 -0.8723 -1.7857 0
M  V30 14 O -2.5146 1.3748 -1.9259 0 CHG=-1
M  V30 15 H 3.6986 -1.7045 0.5063 0
M  V30 16 H 0.2962 1.6406 -0.8458 0
M  V30 17 H -1.5893 1.4181 0.5113 0
M  V30 18 H 2.6403 1.9576 -1.4731 0
M  V30 19 H -3.2777 -1.1343 0.8693 0
M  V30 20 H -3.8999 0.5664 0.8468 0
M  V30 21 H -2.7903 0.0275 2.1617 0
M  V30 END ATOM
M  V30 BEGIN BOND
M  V30 1 1 1 2
M  V30 2 2 2 3
M  V30 3 1 2 4
M  V30 4 1 3 5
M  V30 5 1 3 6
M  V30 6 2 4 7
M  V30 7 1 5 8
M  V30 8 2 6 9
M  V30 9 1 7 10
M  V30 10 1 8 11
M  V30 11 1 8 12
M  V30 12 2 11 13
M  V30 13 1 11 14
M  V30 14 1 7 9
M  V30 15 1 4 15
M  V30 16 1 6 16
M  V30 17 1 8 17
M  V30 18 1 9 18
M  V30 19 1 12 19
M  V30 20 1 12 20
M  V30 21 1 12 21
M  V30 END BOND
M  V30 BEGIN COLLECTION
M  V30 MDLV30/STEABS ATOMS=(1 8)
M  V30 END COLLECTION
M  V30 END CTAB
M  END
>  <Structure No>
6005

>  <LogS>
-2.8271

>  <MMFF94 Energy>
73.219

$$$$
Compound 6006
Actelion Java MolfileCreator 2.0

  0  0  0  0  0  0              0 V3000
M  V30 BEGIN CTAB
M  V30 COUNTS 26 26 0 0 0
M  V30 BEGIN ATOM
M  V30 1 O -0.5496 0.6281 -1.0994 0
M  V30 2 C -0.5127 -0.0361 -0.0273 0
M  V30 3 O -1.6703 -0.6486 0.466 0
M  V30 4 N 0.7048 -0.1454 0.7215 0
M  V30 5 C -2.9474 -0.5488 -0.1649 0
M  V30 6 C 1.9925 0.2794 0.2431 0
M  V30 7 C -3.853 -1.6544 0.374 0
M  V30 8 C -3.5644 0.8268 0.103 0
M  V30 9 C 2.934 0.7807 1.156 0
M  V30 10 C 2.3544 0.148 -1.1107 0
M  V30 11 C 4.2009 1.1799 0.7193 0
M  V30 12 C 3.623 0.5473 -1.5432 0
M  V30 13 C 4.5438 1.0671 -0.6301 0
M  V30 14 H 0.6286 -0.4755 1.7101 0
M  V30 15 H -2.838 -0.6964 -1.2625 0
M  V30 16 H -3.3974 -2.6457 0.1669 0
M  V30 17 H -3.9871 -1.5465 1.4718 0
M  V30 18 H -4.8472 -1.6145 -0.12 0
M  V30 19 H -4.5681 0.8967 -0.368 0
M  V30 20 H -2.9244 1.6251 -0.3265 0
M  V30 21 H -3.6632 1.0001 1.196 0
M  V30 22 H 2.6809 0.8712 2.2049 0
M  V30 23 H 1.6717 -0.2861 -1.8284 0
M  V30 24 H 4.9177 1.5745 1.4279 0
M  V30 25 H 3.8955 0.445 -2.5857 0
M  V30 26 H 5.5255 1.3741 -0.9667 0
M  V30 END ATOM
M  V30 BEGIN BOND
M  V30 1 2 1 2
M  V30 2 1 2 3
M  V30 3 1 2 4
M  V30 4 1 3 5
M  V30 5 1 4 6
M  V30 6 1 5 7
M  V30 7 1 5 8
M  V30 8 2 6 9
M  V30 9 1 6 10
M  V30 10 1 9 11
M  V30 11 2 10 12
M  V30 12 2 11 13
M  V30 13 1 12 13
M  V30 14 1 4 14
M  V30 15 1 5 15
M  V30 16 1 7 16
M  V30 17 1 7 17
M  V30 18 1 7 18
M  V30 19 1 8 19
M  V30 20 1 8 20
M  V30 21 1 8 21
M  V30 22 1 9 22
M  V30 23 1 10 23
M  V30 24 1 11 24
M  V30 25 1 12 25
M  V30 26 1 13 26
M  V30 END BOND
M  V30 END CTAB
M  END
>  <Structure No>
6006

>  <LogS>
-3.0005

>  <MMFF94 Energy>
-33.679

$$$$
Compound 6007
Actelion Java MolfileCreator 2.0

  0  0  0  0  0  0              0 V3000
M  V30 BEGIN CTAB
M  V30 COUNTS 24 24 0 0 0
M  V30 BEGIN ATOM
M  V30 1 Cl 4.3403 2.6188 -1.2269 0
M  V30 2 C 3.3505 1.4147 -0.4127 0
M  V30 3 C 3.9189 0.4805 0.4688 0
M  V30 4 C 1.9713 1.3963 -0.6522 0
M  V30 5 Cl 5.6458 0.4706 0.7994 0
M  V30 6 C 3.1009 -0.4571 1.1076 0
M  V30 7 C 1.15 0.4431 -0.0312 0
M  V30 8 C 1.7246 -0.4741 0.8661 0
M  V30 9 N -0.2667 0.4626 -0.2787 0
M  V30 10 C -1.0948 -0.7144 -0.2704 0
M  V30 11 O -0.5622 -1.851 -0.4004 0
M  V30 12 N -2.5294 -0.6113 -0.1493 0
M  V30 13 C -3.1667 0.6854 0.0995 0
M  V30 14 C -3.3442 -1.8274 -0.2364 0
M  V30 15 H 1.5375 2.1199 -1.3315 0
M  V30 16 H 3.5303 -1.1703 1.7998 0
M  V30 17 H 1.1102 -1.1877 1.3987 0
M  V30 18 H -0.691 1.3689 -0.5767 0
M  V30 19 H -3.0419 1.3417 -0.7869 0
M  V30 20 H -2.7068 1.1671 0.9883 0
M  V30 21 H -4.254 0.5778 0.2962 0
M  V30 22 H -3.0604 -2.5276 0.5772 0
M  V30 23 H -4.4281 -1.6058 -0.1433 0
M  V30 24 H -3.1771 -2.3198 -1.2175 0
M  V30 END ATOM
M  V30 BEGIN BOND
M  V30 1 1 1 2
M  V30 2 2 2 3
M  V30 3 1 2 4
M  V30 4 1 3 5
M  V30 5 1 3 6
M  V30 6 2 4 7
M  V30 7 2 6 8
M  V30 8 1 7 9
M  V30 9 1 9 10
M  V30 10 2 10 11
M  V30 11 1 10 12
M  V30 12 1 12 13
M  V30 13 1 12 14
M  V30 14 1 7 8
M  V30 15 1 4 15
M  V30 16 1 6 16
M  V30 17 1 8 17
M  V30 18 1 9 18
M  V30 19 1 13 19
M  V30 20 1 13 20
M  V30 21 1 13 21
M  V30 22 1 14 22
M  V30 23 1 14 23
M  V30 24 1 14 24
M  V30 END BOND
M  V30 END CTAB
M  END
>  <Structure No>
6007

>  <LogS>
-3.7443

>  <MMFF94 Energy>
-41.931

$$$$
Compound 6008
Actelion Java MolfileCreator 2.0

  0  0  0  0  0  0              0 V3000
M  V30 BEGIN CTAB
M  V30 COUNTS 25 25 0 0 0
M  V30 BEGIN ATOM
M  V30 1 Cl 4.5028 -1.5538 -2.2904 0
M  V30 2 C 3.5697 -0.5396 -1.198 0
M  V30 3 C 4.2001 0.3599 -0.3226 0
M  V30 4 C 2.173 -0.636 -1.21 0
M  V30 5 Cl 5.9511 0.5141 -0.2772 0
M  V30 6 C 3.427 1.1596 0.5255 0
M  V30 7 C 1.3947 0.1466 -0.3439 0
M  V30 8 C 2.0331 1.0607 0.5124 0
M  V30 9 N -0.0386 0.0423 -0.3959 0
M  V30 10 C -0.8966 0.1856 0.7492 0
M  V30 11 O -0.4044 0.1953 1.9109 0
M  V30 12 N -2.3224 0.2842 0.5796 0
M  V30 13 O -2.8702 0.2143 -0.6653 0
M  V30 14 C -3.1798 0.6068 1.7197 0
M  V30 15 C -3.2591 -1.1233 -0.8661 0
M  V30 16 H 1.6909 -1.3296 -1.8878 0
M  V30 17 H 3.9057 1.8667 1.1912 0
M  V30 18 H 1.4576 1.7165 1.1519 0
M  V30 19 H -0.4696 -0.2363 -1.3053 0
M  V30 20 H -3.1332 -0.2122 2.4676 0
M  V30 21 H -2.8449 1.5565 2.1879 0
M  V30 22 H -4.2328 0.728 1.3882 0
M  V30 23 H -3.6699 -1.2247 -1.8914 0
M  V30 24 H -4.0553 -1.4156 -0.1469 0
M  V30 25 H -2.391 -1.8129 -0.7752 0
M  V30 END ATOM
M  V30 BEGIN BOND
M  V30 1 1 1 2
M  V30 2 2 2 3
M  V30 3 1 2 4
M  V30 4 1 3 5
M  V30 5 1 3 6
M  V30 6 2 4 7
M  V30 7 2 6 8
M  V30 8 1 7 9
M  V30 9 1 9 10
M  V30 10 2 10 11
M  V30 11 1 10 12
M  V30 12 1 12 13
M  V30 13 1 12 14
M  V30 14 1 13 15
M  V30 15 1 7 8
M  V30 16 1 4 16
M  V30 17 1 6 17
M  V30 18 1 8 18
M  V30 19 1 9 19
M  V30 20 1 14 20
M  V30 21 1 14 21
M  V30 22 1 14 22
M  V30 23 1 15 23
M  V30 24 1 15 24
M  V30 25 1 15 25
M  V30 END BOND
M  V30 END CTAB
M  END
>  <Structure No>
6008

>  <LogS>
-3.5213

>  <MMFF94 Energy>
-0.87454

$$$$
Compound 6009
Actelion Java MolfileCreator 2.0

  0  0  0  0  0  0              0 V3000
M  V30 BEGIN CTAB
M  V30 COUNTS 33 33 0 0 0
M  V30 BEGIN ATOM
M  V30 1 Cl 5.0196 -3.3983 0.4041 0
M  V30 2 C 4.372 -1.8037 0.0425 0
M  V30 3 C 5.1935 -0.7812 -0.4602 0
M  V30 4 C 3.011 -1.5591 0.2612 0
M  V30 5 Cl 6.907 -1.0471 -0.7512 0
M  V30 6 C 4.6437 0.4725 -0.7465 0
M  V30 7 C 2.4596 -0.2962 -0.0037 0
M  V30 8 C 3.2851 0.7146 -0.5266 0
M  V30 9 N 1.0535 -0.0806 0.209 0
M  V30 10 C 0.4884 1.1898 0.5788 0
M  V30 11 O 1.2232 2.0636 1.1167 0
M  V30 12 N -0.9152 1.4665 0.3818 0
M  V30 13 C -1.7719 0.5763 -0.4126 0
M  V30 14 C -1.502 2.6577 1.0031 0
M  V30 15 C -2.497 -0.4205 0.502 0
M  V30 16 C -3.2369 -1.5133 -0.2832 0
M  V30 17 C -4.4468 -0.975 -1.0459 0
M  V30 18 H 2.3814 -2.3512 0.6474 0
M  V30 19 H 5.2681 1.2605 -1.148 0
M  V30 20 H 2.8785 1.6827 -0.7872 0
M  V30 21 H 0.4302 -0.9177 0.1975 0
M  V30 22 H -2.5176 1.1826 -0.9703 0
M  V30 23 H -1.171 0.0425 -1.1799 0
M  V30 24 H -1.3482 2.6212 2.1023 0
M  V30 25 H -1.0199 3.5706 0.5943 0
M  V30 26 H -2.5941 2.7197 0.8086 0
M  V30 27 H -3.2124 0.1238 1.1565 0
M  V30 28 H -1.7539 -0.914 1.1644 0
M  V30 29 H -2.5407 -2.0119 -0.9919 0
M  V30 30 H -3.5922 -2.2828 0.4359 0
M  V30 31 H -5.0044 -1.822 -1.498 0
M  V30 32 H -5.1285 -0.4297 -0.359 0
M  V30 33 H -4.1255 -0.2973 -1.8637 0
M  V30 END ATOM
M  V30 BEGIN BOND
M  V30 1 1 1 2
M  V30 2 2 2 3
M  V30 3 1 2 4
M  V30 4 1 3 5
M  V30 5 1 3 6
M  V30 6 2 4 7
M  V30 7 2 6 8
M  V30 8 1 7 9
M  V30 9 1 9 10
M  V30 10 2 10 11
M  V30 11 1 10 12
M  V30 12 1 12 13
M  V30 13 1 12 14
M  V30 14 1 13 15
M  V30 15 1 15 16
M  V30 16 1 16 17
M  V30 17 1 7 8
M  V30 18 1 4 18
M  V30 19 1 6 19
M  V30 20 1 8 20
M  V30 21 1 9 21
M  V30 22 1 13 22
M  V30 23 1 13 23
M  V30 24 1 14 24
M  V30 25 1 14 25
M  V30 26 1 14 26
M  V30 27 1 15 27
M  V30 28 1 15 28
M  V30 29 1 16 29
M  V30 30 1 16 30
M  V30 31 1 17 31
M  V30 32 1 17 32
M  V30 33 1 17 33
M  V30 END BOND
M  V30 END CTAB
M  END
>  <Structure No>
6009

>  <LogS>
-4.7584

>  <MMFF94 Energy>
-43.279

$$$$
Compound 6010
Actelion Java MolfileCreator 2.0

  0  0  0  0  0  0              0 V3000
M  V30 BEGIN CTAB
M  V30 COUNTS 19 18 0 0 0
M  V30 BEGIN ATOM
M  V30 1 O 2.3915 -1.4652 -0.2312 0
M  V30 2 C 2.6147 -0.2535 0.0375 0
M  V30 3 O 1.6024 0.7051 -0.0811 0
M  V30 4 N 3.9149 0.1474 0.4599 0
M  V30 5 C 0.2618 0.3908 -0.4541 0
M  V30 6 C -0.4944 -0.2242 0.7305 0
M  V30 7 C -1.9141 -0.6753 0.3554 0
M  V30 8 C -2.8595 0.4982 0.1001 0
M  V30 9 H 4.6826 -0.5544 0.5514 0
M  V30 10 H 4.1087 1.1489 0.6821 0
M  V30 11 H -0.2361 1.3334 -0.7613 0
M  V30 12 H 0.2605 -0.3002 -1.3254 0
M  V30 13 H -0.5359 0.5069 1.5671 0
M  V30 14 H 0.064 -1.1138 1.0922 0
M  V30 15 H -1.8826 -1.331 -0.5416 0
M  V30 16 H -2.3248 -1.2758 1.1959 0
M  V30 17 H -3.8908 0.1146 -0.0499 0
M  V30 18 H -2.8636 1.1908 0.9685 0
M  V30 19 H -2.5614 1.0518 -0.814 0
M  V30 END ATOM
M  V30 BEGIN BOND
M  V30 1 2 1 2
M  V30 2 1 2 3
M  V30 3 1 2 4
M  V30 4 1 3 5
M  V30 5 1 5 6
M  V30 6 1 6 7
M  V30 7 1 7 8
M  V30 8 1 4 9
M  V30 9 1 4 10
M  V30 10 1 5 11
M  V30 11 1 5 12
M  V30 12 1 6 13
M  V30 13 1 6 14
M  V30 14 1 7 15
M  V30 15 1 7 16
M  V30 16 1 8 17
M  V30 17 1 8 18
M  V30 18 1 8 19
M  V30 END BOND
M  V30 END CTAB
M  END
>  <Structure No>
6010

>  <LogS>
-0.6571

>  <MMFF94 Energy>
-75.233

$$$$
Compound 6011
Actelion Java MolfileCreator 2.0

  0  0  0  0  0  0              0 V3000
M  V30 BEGIN CTAB
M  V30 COUNTS 10 9 0 0 0
M  V30 BEGIN ATOM
M  V30 1 O 0.3793 -1.4423 0.607 0
M  V30 2 C 0.6417 -0.358 0.019 0
M  V30 3 O -0.3622 0.5835 -0.2235 0
M  V30 4 N 1.9755 -0.0882 -0.4035 0
M  V30 5 C -1.714 0.3806 0.1701 0
M  V30 6 H 2.2004 0.807 -0.8908 0
M  V30 7 H 2.7368 -0.7812 -0.2298 0
M  V30 8 H -1.7752 0.2611 1.2728 0
M  V30 9 H -2.3176 1.2617 -0.1298 0
M  V30 10 H -2.1239 -0.5231 -0.3285 0
M  V30 END ATOM
M  V30 BEGIN BOND
M  V30 1 2 1 2
M  V30 2 1 2 3
M  V30 3 1 2 4
M  V30 4 1 3 5
M  V30 5 1 4 6
M  V30 6 1 4 7
M  V30 7 1 5 8
M  V30 8 1 5 9
M  V30 9 1 5 10
M  V30 END BOND
M  V30 END CTAB
M  END
>  <Structure No>
6011

>  <LogS>
0.964

>  <MMFF94 Energy>
-72.451

$$$$
Compound 6012
Actelion Java MolfileCreator 2.0

  0  0  0  0  0  0              0 V3000
M  V30 BEGIN CTAB
M  V30 COUNTS 16 15 0 0 0
M  V30 BEGIN ATOM
M  V30 1 O 1.8446 -0.6145 -1.1526 0
M  V30 2 C 2.0115 -0.1127 -0.0079 0
M  V30 3 O 0.9687 -0.0922 0.9246 0
M  V30 4 N 3.2792 0.4333 0.3449 0
M  V30 5 C -0.3441 -0.5753 0.6459 0
M  V30 6 C -1.112 0.4259 -0.2212 0
M  V30 7 C -2.5368 -0.0511 -0.4856 0
M  V30 8 H 4.069 0.4238 -0.3377 0
M  V30 9 H 3.4264 0.8484 1.2913 0
M  V30 10 H -0.8782 -0.7064 1.6111 0
M  V30 11 H -0.2885 -1.5671 0.1455 0
M  V30 12 H -1.1476 1.4094 0.2954 0
M  V30 13 H -0.5916 0.5601 -1.1933 0
M  V30 14 H -3.0672 0.6932 -1.116 0
M  V30 15 H -3.09 -0.1644 0.471 0
M  V30 16 H -2.5243 -1.0248 -1.02 0
M  V30 END ATOM
M  V30 BEGIN BOND
M  V30 1 2 1 2
M  V30 2 1 2 3
M  V30 3 1 2 4
M  V30 4 1 3 5
M  V30 5 1 5 6
M  V30 6 1 6 7
M  V30 7 1 4 8
M  V30 8 1 4 9
M  V30 9 1 5 10
M  V30 10 1 5 11
M  V30 11 1 6 12
M  V30 12 1 6 13
M  V30 13 1 7 14
M  V30 14 1 7 15
M  V30 15 1 7 16
M  V30 END BOND
M  V30 END CTAB
M  END
>  <Structure No>
6012

>  <LogS>
-0.1302

>  <MMFF94 Energy>
-74.791

$$$$
Compound 6013
Actelion Java MolfileCreator 2.0

  0  0  0  0  0  0              0 V3000
M  V30 BEGIN CTAB
M  V30 COUNTS 22 22 0 0 0
M  V30 BEGIN ATOM
M  V30 1 Cl -2.88 2.7152 1.7272 0
M  V30 2 C -2.5279 1.2148 0.8803 0
M  V30 3 C -3.5583 0.3548 0.4649 0
M  V30 4 C -1.1938 0.8857 0.6104 0
M  V30 5 Cl -5.2462 0.7315 0.7839 0
M  V30 6 C -3.2447 -0.8208 -0.2247 0
M  V30 7 C -0.8751 -0.3078 -0.0619 0
M  V30 8 C -1.9128 -1.1462 -0.4935 0
M  V30 9 N 0.4855 -0.6542 -0.3714 0
M  V30 10 C 1.605 -0.3608 0.4797 0
M  V30 11 O 1.4269 0.0385 1.6624 0
M  V30 12 C 3.002 -0.533 -0.0351 0
M  V30 13 C 3.4065 0.6593 -0.8938 0
M  V30 14 H -0.4134 1.5757 0.9029 0
M  V30 15 H -4.034 -1.4839 -0.5554 0
M  V30 16 H -1.6872 -2.0592 -1.0302 0
M  V30 17 H 0.6635 -1.2226 -1.2304 0
M  V30 18 H 3.7104 -0.6293 0.8164 0
M  V30 19 H 3.0649 -1.4632 -0.6394 0
M  V30 20 H 4.4442 0.5172 -1.262 0
M  V30 21 H 2.7283 0.7529 -1.769 0
M  V30 22 H 3.3658 1.5956 -0.2965 0
M  V30 END ATOM
M  V30 BEGIN BOND
M  V30 1 1 1 2
M  V30 2 2 2 3
M  V30 3 1 2 4
M  V30 4 1 3 5
M  V30 5 1 3 6
M  V30 6 2 4 7
M  V30 7 2 6 8
M  V30 8 1 7 9
M  V30 9 1 9 10
M  V30 10 2 10 11
M  V30 11 1 10 12
M  V30 12 1 12 13
M  V30 13 1 7 8
M  V30 14 1 4 14
M  V30 15 1 6 15
M  V30 16 1 8 16
M  V30 17 1 9 17
M  V30 18 1 12 18
M  V30 19 1 12 19
M  V30 20 1 13 20
M  V30 21 1 13 21
M  V30 22 1 13 22
M  V30 END BOND
M  V30 END CTAB
M  END
>  <Structure No>
6013

>  <LogS>
-2.9864

>  <MMFF94 Energy>
3.0486

$$$$
Compound 6014
Actelion Java MolfileCreator 2.0

  0  0  0  0  0  0              0 V3000
M  V30 BEGIN CTAB
M  V30 COUNTS 23 23 0 0 0
M  V30 BEGIN ATOM
M  V30 1 O 2.0435 -1.5716 -0.2356 0
M  V30 2 C 2.1946 -0.3317 -0.0572 0
M  V30 3 O 1.0922 0.4984 0.1841 0
M  V30 4 N 3.508 0.2349 -0.0419 0
M  V30 5 C -0.2473 0.1635 -0.0648 0
M  V30 6 C 4.6997 -0.5735 -0.2656 0
M  V30 7 C -1.2412 0.7644 0.7185 0
M  V30 8 C -0.6233 -0.7192 -1.0944 0
M  V30 9 C -2.5978 0.4783 0.4978 0
M  V30 10 C -1.9716 -1.0193 -1.3058 0
M  V30 11 C -2.9558 -0.4325 -0.5067 0
M  V30 12 C -3.6509 1.0875 1.3755 0
M  V30 13 H 3.6139 1.2598 0.1304 0
M  V30 14 H 4.6503 -1.0473 -1.2685 0
M  V30 15 H 5.605 0.0676 -0.2154 0
M  V30 16 H 4.7731 -1.3602 0.5143 0
M  V30 17 H -0.9527 1.4501 1.5062 0
M  V30 18 H 0.116 -1.1569 -1.7507 0
M  V30 19 H -2.2549 -1.7044 -2.0945 0
M  V30 20 H -3.9962 -0.6813 -0.6772 0
M  V30 21 H -4.6077 1.1974 0.8218 0
M  V30 22 H -3.8166 0.4364 2.2592 0
M  V30 23 H -3.3373 2.0955 1.7217 0
M  V30 END ATOM
M  V30 BEGIN BOND
M  V30 1 2 1 2
M  V30 2 1 2 3
M  V30 3 1 2 4
M  V30 4 1 3 5
M  V30 5 1 4 6
M  V30 6 2 5 7
M  V30 7 1 5 8
M  V30 8 1 7 9
M  V30 9 2 8 10
M  V30 10 2 9 11
M  V30 11 1 9 12
M  V30 12 1 10 11
M  V30 13 1 4 13
M  V30 14 1 6 14
M  V30 15 1 6 15
M  V30 16 1 6 16
M  V30 17 1 7 17
M  V30 18 1 8 18
M  V30 19 1 10 19
M  V30 20 1 11 20
M  V30 21 1 12 21
M  V30 22 1 12 22
M  V30 23 1 12 23
M  V30 END BOND
M  V30 END CTAB
M  END
>  <Structure No>
6014

>  <LogS>
-1.803

>  <MMFF94 Energy>
-17.441

$$$$
Compound 6015
Actelion Java MolfileCreator 2.0

  0  0  0  0  0  0              0 V3000
M  V30 BEGIN CTAB
M  V30 COUNTS 14 14 0 0 0
M  V30 BEGIN ATOM
M  V30 1 Cl -0.0925 3.4263 -0.0925 0
M  V30 2 C -0.0428 1.6619 -0.0498 0
M  V30 3 C 0.8752 0.9656 -0.8555 0
M  V30 4 C -0.9213 0.9545 0.7897 0
M  V30 5 Cl 1.9776 1.8602 -1.9093 0
M  V30 6 C 0.9149 -0.4406 -0.8215 0
M  V30 7 Cl -2.074 1.8354 1.8008 0
M  V30 8 C -0.8819 -0.4517 0.8238 0
M  V30 9 C 1.8588 -1.1564 -1.6498 0
M  V30 10 C 0.0363 -1.1506 0.0181 0
M  V30 11 C -1.7851 -1.1787 1.6869 0
M  V30 12 N 2.6145 -1.7295 -2.3131 0
M  V30 13 Cl 0.0861 -2.92 0.0609 0
M  V30 14 N -2.5083 -1.7609 2.378 0
M  V30 END ATOM
M  V30 BEGIN BOND
M  V30 1 1 1 2
M  V30 2 2 2 3
M  V30 3 1 2 4
M  V30 4 1 3 5
M  V30 5 1 3 6
M  V30 6 1 4 7
M  V30 7 2 4 8
M  V30 8 1 6 9
M  V30 9 2 6 10
M  V30 10 1 8 11
M  V30 11 3 9 12
M  V30 12 1 10 13
M  V30 13 3 11 14
M  V30 14 1 8 10
M  V30 END BOND
M  V30 END CTAB
M  END
>  <Structure No>
6015

>  <LogS>
-5.6466

>  <MMFF94 Energy>
MMFF94 error code 2

$$$$
Compound 6016
Actelion Java MolfileCreator 2.0

  0  0  0  0  0  0              0 V3000
M  V30 BEGIN CTAB
M  V30 COUNTS 27 27 0 0 0
M  V30 BEGIN ATOM
M  V30 1 F 3.9334 1.1226 2.4871 0
M  V30 2 C 4.2541 1.0074 1.1455 0
M  V30 3 F 5.4062 0.2474 1.0405 0
M  V30 4 F 4.4972 2.2671 0.6307 0
M  V30 5 C 3.1213 0.369 0.3812 0
M  V30 6 C 1.7872 0.5992 0.7631 0
M  V30 7 C 3.3794 -0.3845 -0.7763 0
M  V30 8 C 0.7245 0.0367 0.0384 0
M  V30 9 C 2.3257 -0.9282 -1.5142 0
M  V30 10 N -0.6285 0.3001 0.4499 0
M  V30 11 C 1.0046 -0.7192 -1.1131 0
M  V30 12 C -1.7134 -0.6277 0.2664 0
M  V30 13 O -1.4615 -1.8474 0.0621 0
M  V30 14 N -3.0864 -0.1891 0.3458 0
M  V30 15 C -3.4089 1.2344 0.4853 0
M  V30 16 C -4.1618 -1.1809 0.2434 0
M  V30 17 H 1.5702 1.211 1.6305 0
M  V30 18 H 4.3948 -0.5448 -1.1161 0
M  V30 19 H 2.5334 -1.5021 -2.4082 0
M  V30 20 H -0.8044 1.1706 0.9991 0
M  V30 21 H 0.2048 -1.1212 -1.7206 0
M  V30 22 H -2.9035 1.8155 -0.3148 0
M  V30 23 H -3.0754 1.5995 1.4792 0
M  V30 24 H -4.5005 1.4185 0.4008 0
M  V30 25 H -4.0565 -1.9317 1.055 0
M  V30 26 H -5.1648 -0.7137 0.3355 0
M  V30 27 H -4.1053 -1.6947 -0.7394 0
M  V30 END ATOM
M  V30 BEGIN BOND
M  V30 1 1 1 2
M  V30 2 1 2 3
M  V30 3 1 2 4
M  V30 4 1 2 5
M  V30 5 2 5 6
M  V30 6 1 5 7
M  V30 7 1 6 8
M  V30 8 2 7 9
M  V30 9 1 8 10
M  V30 10 2 8 11
M  V30 11 1 10 12
M  V30 12 2 12 13
M  V30 13 1 12 14
M  V30 14 1 14 15
M  V30 15 1 14 16
M  V30 16 1 9 11
M  V30 17 1 6 17
M  V30 18 1 7 18
M  V30 19 1 9 19
M  V30 20 1 10 20
M  V30 21 1 11 21
M  V30 22 1 15 22
M  V30 23 1 15 23
M  V30 24 1 15 24
M  V30 25 1 16 25
M  V30 26 1 16 26
M  V30 27 1 16 27
M  V30 END BOND
M  V30 END CTAB
M  END
>  <Structure No>
6016

>  <LogS>
-3.4365

>  <MMFF94 Energy>
-24.472

$$$$
Compound 6017
Actelion Java MolfileCreator 2.0

  0  0  0  0  0  0              0 V3000
M  V30 BEGIN CTAB
M  V30 COUNTS 29 29 0 0 0
M  V30 BEGIN ATOM
M  V30 1 S 2.6607 1.1281 -0.4027 0
M  V30 2 C 0.9257 1.5952 -0.4922 0
M  V30 3 C 2.5268 0.4715 1.2924 0
M  V30 4 O 0.6026 2.7309 -0.0507 0
M  V30 5 N -0.0792 0.7316 -1.076 0
M  V30 6 C 3.8812 -0.0385 1.7592 0
M  V30 7 C -1.4544 1.2256 -1.2327 0
M  V30 8 C 0.1784 -0.6897 -1.3464 0
M  V30 9 C -2.265 0.9197 0.0325 0
M  V30 10 C -0.5734 -1.5882 -0.3519 0
M  V30 11 C -2.8843 -0.4928 0.0677 0
M  V30 12 C -2.0869 -1.6179 -0.6227 0
M  V30 13 H 2.1813 1.2747 1.9781 0
M  V30 14 H 1.7967 -0.3635 1.3154 0
M  V30 15 H 4.6232 0.788 1.7558 0
M  V30 16 H 4.2342 -0.852 1.0907 0
M  V30 17 H 3.794 -0.4367 2.7921 0
M  V30 18 H -1.4487 2.323 -1.4114 0
M  V30 19 H -1.9338 0.7752 -2.1289 0
M  V30 20 H 1.2577 -0.9285 -1.286 0
M  V30 21 H -0.1259 -0.9299 -2.3882 0
M  V30 22 H -3.0889 1.6614 0.1174 0
M  V30 23 H -1.6204 1.0613 0.9281 0
M  V30 24 H -0.1809 -2.6221 -0.4672 0
M  V30 25 H -0.3691 -1.2735 0.6939 0
M  V30 26 H -3.0478 -0.7718 1.1318 0
M  V30 27 H -3.8893 -0.451 -0.4064 0
M  V30 28 H -2.2851 -1.6024 -1.7166 0
M  V30 29 H -2.4888 -2.5869 -0.2537 0
M  V30 END ATOM
M  V30 BEGIN BOND
M  V30 1 1 1 2
M  V30 2 1 1 3
M  V30 3 2 2 4
M  V30 4 1 2 5
M  V30 5 1 3 6
M  V30 6 1 5 7
M  V30 7 1 5 8
M  V30 8 1 7 9
M  V30 9 1 8 10
M  V30 10 1 9 11
M  V30 11 1 10 12
M  V30 12 1 11 12
M  V30 13 1 3 13
M  V30 14 1 3 14
M  V30 15 1 6 15
M  V30 16 1 6 16
M  V30 17 1 6 17
M  V30 18 1 7 18
M  V30 19 1 7 19
M  V30 20 1 8 20
M  V30 21 1 8 21
M  V30 22 1 9 22
M  V30 23 1 9 23
M  V30 24 1 10 24
M  V30 25 1 10 25
M  V30 26 1 11 26
M  V30 27 1 11 27
M  V30 28 1 12 28
M  V30 29 1 12 29
M  V30 END BOND
M  V30 END CTAB
M  END
>  <Structure No>
6017

>  <LogS>
-2.2858

>  <MMFF94 Energy>
-37.257

$$$$
Compound 6018
Actelion Java MolfileCreator 2.0

  0  0  0  0  0  0              0 V3000
M  V30 BEGIN CTAB
M  V30 COUNTS 34 34 0 0 0
M  V30 BEGIN ATOM
M  V30 1 Cl 4.4667 2.0719 -1.5137 0
M  V30 2 C 3.6149 0.9024 -0.5103 0
M  V30 3 C 4.2524 0.2572 0.5683 0
M  V30 4 C 2.2789 0.6106 -0.8104 0
M  V30 5 C 3.5365 -0.6859 1.3227 0
M  V30 6 C 5.6874 0.5541 0.9055 0
M  V30 7 C 1.5579 -0.315 -0.0369 0
M  V30 8 C 2.2041 -0.9732 1.0175 0
M  V30 9 N 0.1922 -0.6448 -0.3424 0
M  V30 10 C -0.767 0.2972 -0.8487 0
M  V30 11 O -0.5224 1.5348 -0.8195 0
M  V30 12 C -2.1094 -0.1861 -1.3416 0 CFG=1
M  V30 13 C -3.2347 0.197 -0.3589 0
M  V30 14 C -2.3949 0.3797 -2.7377 0
M  V30 15 C -3.0883 -0.5137 0.9952 0
M  V30 16 C -4.2472 -0.1697 1.9263 0
M  V30 17 H 1.8158 1.0892 -1.6633 0
M  V30 18 H 4.0085 -1.2027 2.1493 0
M  V30 19 H 5.8069 1.6373 1.1182 0
M  V30 20 H 6.3379 0.2743 0.0506 0
M  V30 21 H 6.0238 -0.0125 1.7998 0
M  V30 22 H 1.6692 -1.7039 1.6113 0
M  V30 23 H -0.1477 -1.6012 -0.0927 0
M  V30 24 H -2.0859 -1.2943 -1.4385 0
M  V30 25 H -4.2139 -0.0895 -0.8033 0
M  V30 26 H -3.2416 1.2989 -0.2035 0
M  V30 27 H -3.3441 -0.0406 -3.1337 0
M  V30 28 H -1.5767 0.1031 -3.4368 0
M  V30 29 H -2.4822 1.4873 -2.7059 0
M  V30 30 H -3.0659 -1.6145 0.841 0
M  V30 31 H -2.1386 -0.2079 1.4848 0
M  V30 32 H -4.1124 -0.6925 2.8966 0
M  V30 33 H -5.2112 -0.494 1.4794 0
M  V30 34 H -4.2793 0.9247 2.1138 0
M  V30 END ATOM
M  V30 BEGIN BOND
M  V30 1 1 1 2
M  V30 2 2 2 3
M  V30 3 1 2 4
M  V30 4 1 3 5
M  V30 5 1 3 6
M  V30 6 2 4 7
M  V30 7 2 5 8
M  V30 8 1 7 9
M  V30 9 1 9 10
M  V30 10 2 10 11
M  V30 11 1 10 12
M  V30 12 1 12 13
M  V30 13 1 12 14
M  V30 14 1 13 15
M  V30 15 1 15 16
M  V30 16 1 7 8
M  V30 17 1 4 17
M  V30 18 1 5 18
M  V30 19 1 6 19
M  V30 20 1 6 20
M  V30 21 1 6 21
M  V30 22 1 8 22
M  V30 23 1 9 23
M  V30 24 1 12 24
M  V30 25 1 13 25
M  V30 26 1 13 26
M  V30 27 1 14 27
M  V30 28 1 14 28
M  V30 29 1 14 29
M  V30 30 1 15 30
M  V30 31 1 15 31
M  V30 32 1 16 32
M  V30 33 1 16 33
M  V30 34 1 16 34
M  V30 END BOND
M  V30 BEGIN COLLECTION
M  V30 MDLV30/STEABS ATOMS=(1 12)
M  V30 END COLLECTION
M  V30 END CTAB
M  END
>  <Structure No>
6018

>  <LogS>
-4.4503

>  <MMFF94 Energy>
3.4001

$$$$
Compound 6019
Actelion Java MolfileCreator 2.0

  0  0  0  0  0  0              0 V3000
M  V30 BEGIN CTAB
M  V30 COUNTS 32 32 0 0 0
M  V30 BEGIN ATOM
M  V30 1 O 2.2784 -1.178 1.0994 0
M  V30 2 C 2.8074 -0.5551 0.1381 0
M  V30 3 O 2.1517 0.5266 -0.4635 0
M  V30 4 N 4.1167 -0.9127 -0.3131 0
M  V30 5 C 0.7865 0.8226 -0.3319 0
M  V30 6 C 4.8629 -2.015 0.2801 0
M  V30 7 C -0.1825 -0.1783 -0.1411 0
M  V30 8 C 0.3828 2.1572 -0.4343 0
M  V30 9 C -1.5434 0.156 -0.0099 0
M  V30 10 C -0.9705 2.5054 -0.3268 0
M  V30 11 C -1.9256 1.5057 -0.0944 0
M  V30 12 C -2.5947 -0.9162 0.2102 0
M  V30 13 C -1.3859 3.9458 -0.3873 0
M  V30 14 C -2.6677 -1.8716 -0.9866 0
M  V30 15 C -2.3396 -1.6826 1.5137 0
M  V30 16 H 4.5473 -0.3699 -1.0949 0
M  V30 17 H 4.2956 -2.9618 0.1592 0
M  V30 18 H 5.0313 -1.8178 1.3598 0
M  V30 19 H 5.8467 -2.1187 -0.2239 0
M  V30 20 H 0.1143 -1.2171 -0.1187 0
M  V30 21 H 1.13 2.926 -0.5904 0
M  V30 22 H -2.9683 1.7805 0.0116 0
M  V30 23 H -3.5958 -0.4396 0.3064 0
M  V30 24 H -2.41 4.0409 -0.8069 0
M  V30 25 H -1.372 4.3772 0.6352 0
M  V30 26 H -0.6955 4.5269 -1.035 0
M  V30 27 H -1.7249 -2.4477 -1.0985 0
M  V30 28 H -2.8517 -1.2982 -1.9202 0
M  V30 29 H -3.5048 -2.5889 -0.8494 0
M  V30 30 H -1.3907 -2.2573 1.4631 0
M  V30 31 H -3.1717 -2.3932 1.7053 0
M  V30 32 H -2.2854 -0.9737 2.3675 0
M  V30 END ATOM
M  V30 BEGIN BOND
M  V30 1 2 1 2
M  V30 2 1 2 3
M  V30 3 1 2 4
M  V30 4 1 3 5
M  V30 5 1 4 6
M  V30 6 2 5 7
M  V30 7 1 5 8
M  V30 8 1 7 9
M  V30 9 2 8 10
M  V30 10 2 9 11
M  V30 11 1 9 12
M  V30 12 1 10 13
M  V30 13 1 12 14
M  V30 14 1 12 15
M  V30 15 1 10 11
M  V30 16 1 4 16
M  V30 17 1 6 17
M  V30 18 1 6 18
M  V30 19 1 6 19
M  V30 20 1 7 20
M  V30 21 1 8 21
M  V30 22 1 11 22
M  V30 23 1 12 23
M  V30 24 1 13 24
M  V30 25 1 13 25
M  V30 26 1 13 26
M  V30 27 1 14 27
M  V30 28 1 14 28
M  V30 29 1 14 29
M  V30 30 1 15 30
M  V30 31 1 15 31
M  V30 32 1 15 32
M  V30 END BOND
M  V30 END CTAB
M  END
>  <Structure No>
6019

>  <LogS>
-3.3575

>  <MMFF94 Energy>
-10.933

$$$$
Compound 6020
Actelion Java MolfileCreator 2.0

  0  0  0  0  0  0              0 V3000
M  V30 BEGIN CTAB
M  V30 COUNTS 29 29 0 0 0
M  V30 BEGIN ATOM
M  V30 1 O 2.8307 0.7856 0.7856 0
M  V30 2 C 2.435 -0.1979 0.1013 0
M  V30 3 O 1.0977 -0.2988 -0.3026 0
M  V30 4 N 3.3409 -1.2562 -0.2227 0
M  V30 5 C 0.1644 0.751 -0.294 0
M  V30 6 C 4.7403 -1.2254 0.1832 0
M  V30 7 C -1.2049 0.4655 -0.0763 0
M  V30 8 C 0.5642 2.0788 -0.5418 0
M  V30 9 C -2.1337 1.5264 -0.0776 0
M  V30 10 C -1.6785 -0.9595 0.1753 0
M  V30 11 C -0.3718 3.1136 -0.5418 0
M  V30 12 C -1.7171 2.8387 -0.3052 0
M  V30 13 C -2.286 -1.0992 1.5765 0
M  V30 14 C -2.6706 -1.4122 -0.9032 0
M  V30 15 H 2.9881 -2.0729 -0.7704 0
M  V30 16 H 5.2574 -2.1399 -0.1762 0
M  V30 17 H 4.8104 -1.1853 1.2908 0
M  V30 18 H 5.2397 -0.3351 -0.2533 0
M  V30 19 H 1.5958 2.3144 -0.7649 0
M  V30 20 H -3.1853 1.3401 0.0973 0
M  V30 21 H -0.8212 -1.6644 0.1304 0
M  V30 22 H -0.054 4.1304 -0.7339 0
M  V30 23 H -2.441 3.6434 -0.3061 0
M  V30 24 H -2.5388 -2.1624 1.7771 0
M  V30 25 H -3.2113 -0.493 1.6765 0
M  V30 26 H -1.5536 -0.7664 2.3431 0
M  V30 27 H -2.216 -1.2963 -1.9103 0
M  V30 28 H -3.6092 -0.8201 -0.862 0
M  V30 29 H -2.9254 -2.484 -0.759 0
M  V30 END ATOM
M  V30 BEGIN BOND
M  V30 1 2 1 2
M  V30 2 1 2 3
M  V30 3 1 2 4
M  V30 4 1 3 5
M  V30 5 1 4 6
M  V30 6 2 5 7
M  V30 7 1 5 8
M  V30 8 1 7 9
M  V30 9 1 7 10
M  V30 10 2 8 11
M  V30 11 2 9 12
M  V30 12 1 10 13
M  V30 13 1 10 14
M  V30 14 1 11 12
M  V30 15 1 4 15
M  V30 16 1 6 16
M  V30 17 1 6 17
M  V30 18 1 6 18
M  V30 19 1 8 19
M  V30 20 1 9 20
M  V30 21 1 10 21
M  V30 22 1 11 22
M  V30 23 1 12 23
M  V30 24 1 13 24
M  V30 25 1 13 25
M  V30 26 1 13 26
M  V30 27 1 14 27
M  V30 28 1 14 28
M  V30 29 1 14 29
M  V30 END BOND
M  V30 END CTAB
M  END
>  <Structure No>
6020

>  <LogS>
-2.6841

>  <MMFF94 Energy>


$$$$
Compound 6021
Actelion Java MolfileCreator 2.0

  0  0  0  0  0  0              0 V3000
M  V30 BEGIN CTAB
M  V30 COUNTS 26 26 0 0 0
M  V30 BEGIN ATOM
M  V30 1 O 2.436 0.7067 -0.7853 0
M  V30 2 C 2.5051 -0.1664 0.1227 0
M  V30 3 O 1.3631 -0.866 0.5339 0
M  V30 4 N 3.769 -0.4948 0.7062 0
M  V30 5 C 0.0387 -0.4854 0.2694 0
M  V30 6 C 4.9993 0.1796 0.3119 0
M  V30 7 C -0.9362 -1.4856 0.1844 0
M  V30 8 C -0.3425 0.862 0.1342 0
M  V30 9 C -2.276 -1.1594 -0.0716 0
M  V30 10 C -1.6801 1.2 -0.1217 0
M  V30 11 C -2.6459 0.1866 -0.2061 0
M  V30 12 C -3.3185 -2.2369 -0.1226 0
M  V30 13 C -2.0888 2.6404 -0.2168 0
M  V30 14 H 3.8089 -1.2368 1.4404 0
M  V30 15 H 5.1889 0.0152 -0.7697 0
M  V30 16 H 5.8545 -0.2263 0.8922 0
M  V30 17 H 4.9132 1.2682 0.5131 0
M  V30 18 H -0.6455 -2.5211 0.3146 0
M  V30 19 H 0.3866 1.6511 0.2612 0
M  V30 20 H -3.6855 0.4455 -0.3702 0
M  V30 21 H -3.7241 -2.4067 0.8965 0
M  V30 22 H -2.8834 -3.1859 -0.5023 0
M  V30 23 H -4.1498 -1.9463 -0.7999 0
M  V30 24 H -1.2643 3.2545 -0.6376 0
M  V30 25 H -2.3431 3.0198 0.7948 0
M  V30 26 H -2.973 2.7544 -0.8796 0
M  V30 END ATOM
M  V30 BEGIN BOND
M  V30 1 2 1 2
M  V30 2 1 2 3
M  V30 3 1 2 4
M  V30 4 1 3 5
M  V30 5 1 4 6
M  V30 6 2 5 7
M  V30 7 1 5 8
M  V30 8 1 7 9
M  V30 9 2 8 10
M  V30 10 2 9 11
M  V30 11 1 9 12
M  V30 12 1 10 13
M  V30 13 1 10 11
M  V30 14 1 4 14
M  V30 15 1 6 15
M  V30 16 1 6 16
M  V30 17 1 6 17
M  V30 18 1 7 18
M  V30 19 1 8 19
M  V30 20 1 11 20
M  V30 21 1 12 21
M  V30 22 1 12 22
M  V30 23 1 12 23
M  V30 24 1 13 24
M  V30 25 1 13 25
M  V30 26 1 13 26
M  V30 END BOND
M  V30 END CTAB
M  END
>  <Structure No>
6021

>  <LogS>
-2.5813

>  <MMFF94 Energy>


$$$$
Compound 6022
Actelion Java MolfileCreator 2.0

  0  0  0  0  0  0              0 V3000
M  V30 BEGIN CTAB
M  V30 COUNTS 29 29 0 0 0
M  V30 BEGIN ATOM
M  V30 1 Cl 6.3335 0.0799 -0.4799 0
M  V30 2 C 4.6227 -0.148 -0.1664 0
M  V30 3 C 3.6751 0.3059 -1.089 0
M  V30 4 C 4.2047 -0.7929 1.0016 0
M  V30 5 C 2.3109 0.1237 -0.8416 0
M  V30 6 C 2.8413 -0.9771 1.2513 0
M  V30 7 C 1.8812 -0.5056 0.3418 0
M  V30 8 N 0.4854 -0.7268 0.6094 0
M  V30 9 C -0.5598 0.1604 0.171 0
M  V30 10 O -0.2747 1.3576 -0.1065 0
M  V30 11 N -1.9337 -0.2946 0.0822 0
M  V30 12 C -3.0282 0.6203 -0.3052 0 CFG=1
M  V30 13 C -2.2421 -1.7072 0.3367 0
M  V30 14 C -3.0702 1.7946 0.5819 0
M  V30 15 C -2.8981 1.0445 -1.7704 0
M  V30 16 C -3.1054 2.7556 1.3092 0
M  V30 17 H 3.9944 0.7927 -2.0018 0
M  V30 18 H 4.9344 -1.1532 1.7155 0
M  V30 19 H 1.597 0.4536 -1.5846 0
M  V30 20 H 2.5312 -1.4798 2.1588 0
M  V30 21 H 0.2356 -1.5206 1.2399 0
M  V30 22 H -4.0121 0.1143 -0.1986 0
M  V30 23 H -1.5934 -2.3544 -0.2906 0
M  V30 24 H -3.296 -1.9531 0.0893 0
M  V30 25 H -2.0783 -1.9401 1.4097 0
M  V30 26 H -2.8424 0.1436 -2.4175 0
M  V30 27 H -3.7873 1.6377 -2.0746 0
M  V30 28 H -1.9912 1.6613 -1.9389 0
M  V30 29 H -3.1356 3.5993 1.9475 0
M  V30 END ATOM
M  V30 BEGIN BOND
M  V30 1 1 1 2
M  V30 2 2 2 3
M  V30 3 1 2 4
M  V30 4 1 3 5
M  V30 5 2 4 6
M  V30 6 2 5 7
M  V30 7 1 7 8
M  V30 8 1 8 9
M  V30 9 2 9 10
M  V30 10 1 9 11
M  V30 11 1 11 12
M  V30 12 1 11 13
M  V30 13 1 12 14
M  V30 14 1 12 15
M  V30 15 3 14 16
M  V30 16 1 6 7
M  V30 17 1 3 17
M  V30 18 1 4 18
M  V30 19 1 5 19
M  V30 20 1 6 20
M  V30 21 1 8 21
M  V30 22 1 12 22
M  V30 23 1 13 23
M  V30 24 1 13 24
M  V30 25 1 13 25
M  V30 26 1 15 26
M  V30 27 1 15 27
M  V30 28 1 15 28
M  V30 29 1 16 29
M  V30 END BOND
M  V30 BEGIN COLLECTION
M  V30 MDLV30/STEABS ATOMS=(1 12)
M  V30 END COLLECTION
M  V30 END CTAB
M  END
>  <Structure No>
6022

>  <LogS>
-3.8971

>  <MMFF94 Energy>
-48.58

$$$$
Compound 6023
Actelion Java MolfileCreator 2.0

  0  0  0  0  0  0              0 V3000
M  V30 BEGIN CTAB
M  V30 COUNTS 34 34 0 0 0
M  V30 BEGIN ATOM
M  V30 1 Cl 6.2314 2.3133 -1.0365 0
M  V30 2 C 4.663 1.6129 -0.6815 0
M  V30 3 C 3.9707 1.9942 0.4719 0
M  V30 4 C 4.1078 0.6645 -1.5459 0
M  V30 5 C 2.7216 1.4344 0.757 0
M  V30 6 C 2.8582 0.1039 -1.2636 0
M  V30 7 C 2.1455 0.499 -0.1164 0
M  V30 8 N 0.8706 -0.0793 0.2105 0
M  V30 9 C -0.1051 -0.474 -0.7708 0
M  V30 10 O 0.0012 -0.0559 -1.9572 0
M  V30 11 C -1.3012 -1.3319 -0.3698 0
M  V30 12 C -2.2265 -0.5615 0.618 0
M  V30 13 C -2.104 -1.7773 -1.617 0
M  V30 14 C -0.7828 -2.607 0.329 0
M  V30 15 C -2.7479 0.7861 0.0841 0
M  V30 16 C -3.573 1.5123 1.143 0
M  V30 17 H 4.3997 2.7219 1.1489 0
M  V30 18 H 4.647 0.3547 -2.4318 0
M  V30 19 H 2.1963 1.7367 1.6543 0
M  V30 20 H 2.4638 -0.6535 -1.9275 0
M  V30 21 H 0.6115 -0.136 1.2203 0
M  V30 22 H -1.6803 -0.3753 1.5684 0
M  V30 23 H -3.0995 -1.2018 0.8759 0
M  V30 24 H -2.4474 -0.9071 -2.2137 0
M  V30 25 H -2.9969 -2.3688 -1.3197 0
M  V30 26 H -1.4746 -2.4103 -2.2796 0
M  V30 27 H -0.2456 -2.3635 1.2701 0
M  V30 28 H -0.0838 -3.1607 -0.3347 0
M  V30 29 H -1.6266 -3.2829 0.5877 0
M  V30 30 H -3.3922 0.6243 -0.8047 0
M  V30 31 H -1.899 1.4405 -0.2073 0
M  V30 32 H -3.9445 2.474 0.7305 0
M  V30 33 H -4.4456 0.8941 1.4435 0
M  V30 34 H -2.9502 1.7278 2.0373 0
M  V30 END ATOM
M  V30 BEGIN BOND
M  V30 1 1 1 2
M  V30 2 2 2 3
M  V30 3 1 2 4
M  V30 4 1 3 5
M  V30 5 2 4 6
M  V30 6 2 5 7
M  V30 7 1 7 8
M  V30 8 1 8 9
M  V30 9 2 9 10
M  V30 10 1 9 11
M  V30 11 1 11 12
M  V30 12 1 11 13
M  V30 13 1 11 14
M  V30 14 1 12 15
M  V30 15 1 15 16
M  V30 16 1 6 7
M  V30 17 1 3 17
M  V30 18 1 4 18
M  V30 19 1 5 19
M  V30 20 1 6 20
M  V30 21 1 8 21
M  V30 22 1 12 22
M  V30 23 1 12 23
M  V30 24 1 13 24
M  V30 25 1 13 25
M  V30 26 1 13 26
M  V30 27 1 14 27
M  V30 28 1 14 28
M  V30 29 1 14 29
M  V30 30 1 15 30
M  V30 31 1 15 31
M  V30 32 1 16 32
M  V30 33 1 16 33
M  V30 34 1 16 34
M  V30 END BOND
M  V30 END CTAB
M  END
>  <Structure No>
6023

>  <LogS>
-4.0218

>  <MMFF94 Energy>
11.211

$$$$
Compound 6024
Actelion Java MolfileCreator 2.0

  0  0  0  0  0  0              0 V3000
M  V30 BEGIN CTAB
M  V30 COUNTS 27 27 0 0 0
M  V30 BEGIN ATOM
M  V30 1 Cl 3.0367 -2.3968 1.4375 0
M  V30 2 C 2.4629 -0.959 0.5988 0
M  V30 3 C 3.3588 0.0099 0.1046 0
M  V30 4 C 1.0841 -0.7951 0.4185 0
M  V30 5 C 2.8519 1.1271 -0.5781 0
M  V30 6 C 4.843 -0.1484 0.2853 0
M  V30 7 C 0.5787 0.3369 -0.2438 0
M  V30 8 C 1.4753 1.2844 -0.7556 0
M  V30 9 N -0.8327 0.5117 -0.4592 0
M  V30 10 C -1.8423 0.0635 0.4634 0
M  V30 11 O -1.5272 -0.1793 1.6611 0
M  V30 12 N -3.2168 -0.0799 0.0469 0
M  V30 13 C -4.2304 -0.4518 1.0394 0
M  V30 14 C -3.5941 0.1013 -1.358 0
M  V30 15 H 0.4127 -1.5652 0.775 0
M  V30 16 H 3.5214 1.8794 -0.9764 0
M  V30 17 H 5.0838 -0.2244 1.3665 0
M  V30 18 H 5.4013 0.7159 -0.1331 0
M  V30 19 H 5.1865 -1.0686 -0.2321 0
M  V30 20 H 1.1049 2.1531 -1.2857 0
M  V30 21 H -1.1271 1.0832 -1.2819 0
M  V30 22 H -5.2443 -0.5125 0.5914 0
M  V30 23 H -3.9818 -1.4423 1.4758 0
M  V30 24 H -4.2573 0.3079 1.849 0
M  V30 25 H -2.965 -0.5469 -2.0039 0
M  V30 26 H -4.6559 -0.1696 -1.5364 0
M  V30 27 H -3.4577 1.1637 -1.6495 0
M  V30 END ATOM
M  V30 BEGIN BOND
M  V30 1 1 1 2
M  V30 2 2 2 3
M  V30 3 1 2 4
M  V30 4 1 3 5
M  V30 5 1 3 6
M  V30 6 2 4 7
M  V30 7 2 5 8
M  V30 8 1 7 9
M  V30 9 1 9 10
M  V30 10 2 10 11
M  V30 11 1 10 12
M  V30 12 1 12 13
M  V30 13 1 12 14
M  V30 14 1 7 8
M  V30 15 1 4 15
M  V30 16 1 5 16
M  V30 17 1 6 17
M  V30 18 1 6 18
M  V30 19 1 6 19
M  V30 20 1 8 20
M  V30 21 1 9 21
M  V30 22 1 13 22
M  V30 23 1 13 23
M  V30 24 1 13 24
M  V30 25 1 14 25
M  V30 26 1 14 26
M  V30 27 1 14 27
M  V30 END BOND
M  V30 END CTAB
M  END
>  <Structure No>
6024

>  <LogS>
-3.4826

>  <MMFF94 Energy>
-45.829

$$$$
Compound 6025
Actelion Java MolfileCreator 2.0

  0  0  0  0  0  0              0 V3000
M  V30 BEGIN CTAB
M  V30 COUNTS 32 32 0 0 0
M  V30 BEGIN ATOM
M  V30 1 Cl 6.6036 -0.0813 -1.9532 0
M  V30 2 C 5.074 -0.0402 -1.0954 0
M  V30 3 C 4.0165 -0.8565 -1.5101 0
M  V30 4 C 4.9084 0.8136 1.0E-4 0
M  V30 5 C 2.7961 -0.8235 -0.8284 0
M  V30 6 C 3.689 0.8488 0.6839 0
M  V30 7 C 2.6282 0.0208 0.2816 0
M  V30 8 C 1.3067 0.0827 0.9898 0
M  V30 9 S 0.2385 1.3113 0.1715 0
M  V30 10 C -1.1902 0.9184 1.1898 0
M  V30 11 O -1.3302 1.5388 2.2779 0
M  V30 12 N -2.1512 -0.0885 0.7973 0
M  V30 13 C -3.1794 -0.5217 1.7568 0
M  V30 14 C -2.0775 -0.7304 -0.5253 0
M  V30 15 C -4.3349 0.4737 1.7964 0
M  V30 16 C -2.6128 0.2007 -1.6095 0
M  V30 17 H 4.1376 -1.5135 -2.3617 0
M  V30 18 H 5.7216 1.4523 0.3205 0
M  V30 19 H 1.9819 -1.4532 -1.1656 0
M  V30 20 H 3.5711 1.5215 1.5246 0
M  V30 21 H 0.8207 -0.9168 0.97 0
M  V30 22 H 1.4515 0.3692 2.054 0
M  V30 23 H -3.5838 -1.5202 1.4848 0
M  V30 24 H -2.735 -0.6236 2.7707 0
M  V30 25 H -2.677 -1.6655 -0.5475 0
M  V30 26 H -1.0318 -1.0231 -0.7561 0
M  V30 27 H -5.0948 0.132 2.5304 0
M  V30 28 H -4.8129 0.5438 0.7972 0
M  V30 29 H -3.9765 1.4791 2.0998 0
M  V30 30 H -3.678 0.4426 -1.4127 0
M  V30 31 H -2.5387 -0.299 -2.5981 0
M  V30 32 H -2.0288 1.143 -1.6447 0
M  V30 END ATOM
M  V30 BEGIN BOND
M  V30 1 1 1 2
M  V30 2 2 2 3
M  V30 3 1 2 4
M  V30 4 1 3 5
M  V30 5 2 4 6
M  V30 6 2 5 7
M  V30 7 1 7 8
M  V30 8 1 8 9
M  V30 9 1 9 10
M  V30 10 2 10 11
M  V30 11 1 10 12
M  V30 12 1 12 13
M  V30 13 1 12 14
M  V30 14 1 13 15
M  V30 15 1 14 16
M  V30 16 1 6 7
M  V30 17 1 3 17
M  V30 18 1 4 18
M  V30 19 1 5 19
M  V30 20 1 6 20
M  V30 21 1 8 21
M  V30 22 1 8 22
M  V30 23 1 13 23
M  V30 24 1 13 24
M  V30 25 1 14 25
M  V30 26 1 14 26
M  V30 27 1 15 27
M  V30 28 1 15 28
M  V30 29 1 15 29
M  V30 30 1 16 30
M  V30 31 1 16 31
M  V30 32 1 16 32
M  V30 END BOND
M  V30 END CTAB
M  END
>  <Structure No>
6025

>  <LogS>
-3.9641

>  <MMFF94 Energy>
-27.051

$$$$
Compound 6026
Actelion Java MolfileCreator 2.0

  0  0  0  0  0  0              0 V3000
M  V30 BEGIN CTAB
M  V30 COUNTS 52 54 0 0 0
M  V30 BEGIN ATOM
M  V30 1 Cl -5.3379 -5.0137 1.696 0
M  V30 2 C -4.5267 -3.5523 1.1642 0
M  V30 3 C -3.5296 -2.9782 1.9569 0
M  V30 4 C -4.8814 -2.9566 -0.0491 0
M  V30 5 C -2.8809 -1.8144 1.5351 0
M  V30 6 C -4.2371 -1.7909 -0.4738 0
M  V30 7 C -3.2193 -1.2116 0.3059 0
M  V30 8 C -2.5489 0.0683 -0.1684 0 CFG=2
M  V30 9 C -1.0646 0.0569 0.1204 0
M  V30 10 C -3.3085 1.3439 0.3101 0
M  V30 11 O -0.287 -0.5119 -0.6954 0
M  V30 12 O -0.5626 0.5965 1.3103 0
M  V30 13 C -3.4516 1.479 1.8373 0
M  V30 14 C -2.6994 2.6224 -0.2844 0
M  V30 15 C 0.8127 0.5325 1.68 0 CFG=2
M  V30 16 C 0.9536 0.9595 3.0771 0
M  V30 17 C 1.6428 1.419 0.7818 0
M  V30 18 N 1.0658 1.2975 4.1786 0
M  V30 19 C 2.6967 0.8738 0.03 0
M  V30 20 C 1.3595 2.7916 0.6705 0
M  V30 21 C 3.4504 1.6851 -0.8367 0
M  V30 22 C 2.1245 3.604 -0.1702 0
M  V30 23 O 4.5074 1.1656 -1.5977 0
M  V30 24 C 3.1691 3.0538 -0.9164 0
M  V30 25 C 4.5513 -0.1271 -2.1384 0
M  V30 26 C 3.3852 -0.7989 -2.552 0
M  V30 27 C 5.7962 -0.7451 -2.3094 0
M  V30 28 C 3.4707 -2.0816 -3.1014 0
M  V30 29 C 5.8785 -2.0295 -2.8561 0
M  V30 30 C 4.7161 -2.6978 -3.2499 0
M  V30 31 H -3.2581 -3.4304 2.9027 0
M  V30 32 H -5.6574 -3.3942 -0.6631 0
M  V30 33 H -2.1226 -1.3821 2.1743 0
M  V30 34 H -4.5318 -1.3409 -1.4137 0
M  V30 35 H -2.6268 0.0782 -1.2797 0
M  V30 36 H -4.3434 1.2705 -0.0952 0
M  V30 37 H -3.9172 0.5759 2.2783 0
M  V30 38 H -2.4804 1.672 2.3312 0
M  V30 39 H -4.1223 2.3323 2.0708 0
M  V30 40 H -2.6528 2.5487 -1.3923 0
M  V30 41 H -3.3281 3.5011 -0.0249 0
M  V30 42 H -1.6755 2.7941 0.1072 0
M  V30 43 H 1.1533 -0.5247 1.6222 0
M  V30 44 H 2.9359 -0.1779 0.1252 0
M  V30 45 H 0.5509 3.2319 1.2407 0
M  V30 46 H 1.906 4.6619 -0.2453 0
M  V30 47 H 3.7543 3.6894 -1.5686 0
M  V30 48 H 2.4155 -0.326 -2.4671 0
M  V30 49 H 6.7009 -0.2323 -2.0084 0
M  V30 50 H 2.5718 -2.5943 -3.4177 0
M  V30 51 H 6.8442 -2.5056 -2.9735 0
M  V30 52 H 4.7813 -3.6916 -3.6726 0
M  V30 END ATOM
M  V30 BEGIN BOND
M  V30 1 1 1 2
M  V30 2 2 2 3
M  V30 3 1 2 4
M  V30 4 1 3 5
M  V30 5 2 4 6
M  V30 6 2 5 7
M  V30 7 1 7 8
M  V30 8 1 8 9
M  V30 9 1 8 10
M  V30 10 2 9 11
M  V30 11 1 9 12
M  V30 12 1 10 13
M  V30 13 1 10 14
M  V30 14 1 12 15
M  V30 15 1 15 16
M  V30 16 1 15 17
M  V30 17 3 16 18
M  V30 18 2 17 19
M  V30 19 1 17 20
M  V30 20 1 19 21
M  V30 21 2 20 22
M  V30 22 1 21 23
M  V30 23 2 21 24
M  V30 24 1 23 25
M  V30 25 2 25 26
M  V30 26 1 25 27
M  V30 27 1 26 28
M  V30 28 2 27 29
M  V30 29 2 28 30
M  V30 30 1 6 7
M  V30 31 1 22 24
M  V30 32 1 29 30
M  V30 33 1 3 31
M  V30 34 1 4 32
M  V30 35 1 5 33
M  V30 36 1 6 34
M  V30 37 1 8 35
M  V30 38 1 10 36
M  V30 39 1 13 37
M  V30 40 1 13 38
M  V30 41 1 13 39
M  V30 42 1 14 40
M  V30 43 1 14 41
M  V30 44 1 14 42
M  V30 45 1 15 43
M  V30 46 1 19 44
M  V30 47 1 20 45
M  V30 48 1 22 46
M  V30 49 1 24 47
M  V30 50 1 26 48
M  V30 51 1 27 49
M  V30 52 1 28 50
M  V30 53 1 29 51
M  V30 54 1 30 52
M  V30 END BOND
M  V30 BEGIN COLLECTION
M  V30 MDLV30/STEABS ATOMS=(2 8 15)
M  V30 END COLLECTION
M  V30 END CTAB
M  END
>  <Structure No>
6026

>  <LogS>
-7.2429

>  <MMFF94 Energy>
93.701

$$$$
Compound 6027
Actelion Java MolfileCreator 2.0

  0  0  0  0  0  0              0 V3000
M  V30 BEGIN CTAB
M  V30 COUNTS 14 13 0 0 0
M  V30 BEGIN ATOM
M  V30 1 N 1.8574 -0.0742 -0.2969 0 CHG=1
M  V30 2 C 0.4567 0.2444 -0.5722 0
M  V30 3 C -0.451 -0.2508 0.561 0
M  V30 4 C -1.9142 0.0786 0.2802 0
M  V30 5 H 2.1641 0.3905 0.5884 0
M  V30 6 H 2.4488 0.2752 -1.085 0
M  V30 7 H 1.9805 -1.1096 -0.2144 0
M  V30 8 H 0.3458 1.3463 -0.6836 0
M  V30 9 H 0.1523 -0.2344 -1.5295 0
M  V30 10 H -0.1502 0.2294 1.5174 0
M  V30 11 H -0.3438 -1.3518 0.6712 0
M  V30 12 H -2.2465 -0.4112 -0.6598 0
M  V30 13 H -2.052 1.1773 0.1902 0
M  V30 14 H -2.5455 -0.2911 1.1156 0
M  V30 END ATOM
M  V30 BEGIN BOND
M  V30 1 1 1 2
M  V30 2 1 2 3
M  V30 3 1 3 4
M  V30 4 1 1 5
M  V30 5 1 1 6
M  V30 6 1 1 7
M  V30 7 1 2 8
M  V30 8 1 2 9
M  V30 9 1 3 10
M  V30 10 1 3 11
M  V30 11 1 4 12
M  V30 12 1 4 13
M  V30 13 1 4 14
M  V30 END BOND
M  V30 END CTAB
M  END
>  <Structure No>
6027

>  <LogS>
1.2283

>  <MMFF94 Energy>
-1.8807

$$$$
Compound 6028
Actelion Java MolfileCreator 2.0

  0  0  0  0  0  0              0 V3000
M  V30 BEGIN CTAB
M  V30 COUNTS 7 6 0 0 0
M  V30 BEGIN ATOM
M  V30 1 O 1.5603 -0.8914 0.0 0
M  V30 2 C 0.8517 0.0986 -0.0817 0
M  V30 3 C -0.6261 -0.0195 0.0944 0
M  V30 4 H 1.3006 1.0657 -0.2831 0
M  V30 5 H -0.8527 -0.4202 1.1046 0
M  V30 6 H -1.0422 -0.7029 -0.675 0
M  V30 7 H -1.0987 0.979 -0.0137 0
M  V30 END ATOM
M  V30 BEGIN BOND
M  V30 1 2 1 2
M  V30 2 1 2 3
M  V30 3 1 2 4
M  V30 4 1 3 5
M  V30 5 1 3 6
M  V30 6 1 3 7
M  V30 END BOND
M  V30 END CTAB
M  END
>  <Structure No>
6028

>  <LogS>
1.3561

>  <MMFF94 Energy>
-0.13789

$$$$
Compound 6029
Actelion Java MolfileCreator 2.0

  0  0  0  0  0  0              0 V3000
M  V30 BEGIN CTAB
M  V30 COUNTS 11 10 0 0 0
M  V30 BEGIN ATOM
M  V30 1 O 2.2203 -1.2245 0.0764 0
M  V30 2 N 1.0245 -1.2667 0.4337 0
M  V30 3 N 0.1252 -0.2421 0.0949 0
M  V30 4 C -1.2583 -0.3589 0.5473 0
M  V30 5 C 0.5765 0.9076 -0.6917 0
M  V30 6 H -1.7064 -1.286 0.1326 0
M  V30 7 H -1.8716 0.5067 0.2203 0
M  V30 8 H -1.2822 -0.41 1.6561 0
M  V30 9 H 1.3872 1.4354 -0.1472 0
M  V30 10 H 0.9626 0.5587 -1.6722 0
M  V30 11 H -0.2488 1.627 -0.8756 0
M  V30 END ATOM
M  V30 BEGIN BOND
M  V30 1 2 1 2
M  V30 2 1 2 3
M  V30 3 1 3 4
M  V30 4 1 3 5
M  V30 5 1 4 6
M  V30 6 1 4 7
M  V30 7 1 4 8
M  V30 8 1 5 9
M  V30 9 1 5 10
M  V30 10 1 5 11
M  V30 END BOND
M  V30 END CTAB
M  END
>  <Structure No>
6029

>  <LogS>
1.1303

>  <MMFF94 Energy>
3.9769

$$$$
Compound 6030
Actelion Java MolfileCreator 2.0

  0  0  0  0  0  0              0 V3000
M  V30 BEGIN CTAB
M  V30 COUNTS 12 12 0 0 0
M  V30 BEGIN ATOM
M  V30 1 O -1.4163 -2.2827 0.1572 0 CHG=-1
M  V30 2 N -0.6895 -1.1178 0.0732 0 CHG=1
M  V30 3 C -1.3434 0.0762 0.0158 0
M  V30 4 C 0.6715 -1.1786 0.0489 0
M  V30 5 C -0.6221 1.2701 -0.0696 0
M  V30 6 C 1.4268 -0.0059 -0.036 0
M  V30 7 C 0.7724 1.2253 -0.0956 0
M  V30 8 H -2.4258 0.1051 0.0365 0
M  V30 9 H 1.1739 -2.1367 0.0954 0
M  V30 10 H -1.1395 2.2196 -0.1153 0
M  V30 11 H 2.5079 -0.0519 -0.0555 0
M  V30 12 H 1.3443 2.1418 -0.1617 0
M  V30 END ATOM
M  V30 BEGIN BOND
M  V30 1 1 1 2
M  V30 2 2 2 3
M  V30 3 1 2 4
M  V30 4 1 3 5
M  V30 5 2 4 6
M  V30 6 2 5 7
M  V30 7 1 6 7
M  V30 8 1 3 8
M  V30 9 1 4 9
M  V30 10 1 5 10
M  V30 11 1 6 11
M  V30 12 1 7 12
M  V30 END BOND
M  V30 END CTAB
M  END
>  <Structure No>
6030

>  <LogS>
1.0218

>  <MMFF94 Energy>
11.247

$$$$
Compound 6031
Actelion Java MolfileCreator 2.0

  0  0  0  0  0  0              0 V3000
M  V30 BEGIN CTAB
M  V30 COUNTS 10 9 0 0 0
M  V30 BEGIN ATOM
M  V30 1 S 0.5179 -1.1223 -0.6905 0
M  V30 2 S -0.7163 -1.1325 1.051 0
M  V30 3 C 1.7542 -0.0189 0.057 0
M  V30 4 C -1.8009 0.1856 0.4254 0
M  V30 5 H 1.2914 0.9555 0.3157 0
M  V30 6 H 2.1767 -0.4871 0.9702 0
M  V30 7 H 2.5731 0.1541 -0.6707 0
M  V30 8 H -1.2186 1.1158 0.2627 0
M  V30 9 H -2.2727 -0.1325 -0.5271 0
M  V30 10 H -2.5964 0.3857 1.1721 0
M  V30 END ATOM
M  V30 BEGIN BOND
M  V30 1 1 1 2
M  V30 2 1 1 3
M  V30 3 1 2 4
M  V30 4 1 3 5
M  V30 5 1 3 6
M  V30 6 1 3 7
M  V30 7 1 4 8
M  V30 8 1 4 9
M  V30 9 1 4 10
M  V30 END BOND
M  V30 END CTAB
M  END
>  <Structure No>
6031

>  <LogS>
-1.4969

>  <MMFF94 Energy>
-0.54162

$$$$
Compound 6032
Actelion Java MolfileCreator 2.0

  0  0  0  0  0  0              0 V3000
M  V30 BEGIN CTAB
M  V30 COUNTS 17 17 0 0 0
M  V30 BEGIN ATOM
M  V30 1 N 0.3905 -1.7191 0.5467 0
M  V30 2 C -0.4534 -0.7018 0.2176 0
M  V30 3 C 1.741 -1.5908 0.4766 0
M  V30 4 C 0.0789 0.5349 -0.213 0
M  V30 5 C -1.9325 -0.9298 0.3241 0
M  V30 6 C 2.3067 -0.3881 0.057 0
M  V30 7 C 1.4736 0.6757 -0.288 0
M  V30 8 C -0.8122 1.6886 -0.5875 0
M  V30 9 H 2.3753 -2.424 0.7474 0
M  V30 10 H -2.1435 -1.961 0.6786 0
M  V30 11 H -2.4093 -0.7976 -0.6694 0
M  V30 12 H -2.3757 -0.2141 1.0476 0
M  V30 13 H 3.3823 -0.2812 -3.0E-4 0
M  V30 14 H 1.918 1.608 -0.6136 0
M  V30 15 H -1.4707 1.3972 -1.4322 0
M  V30 16 H -1.4372 1.9799 0.2824 0
M  V30 17 H -0.2221 2.5761 -0.9006 0
M  V30 END ATOM
M  V30 BEGIN BOND
M  V30 1 2 1 2
M  V30 2 1 1 3
M  V30 3 1 2 4
M  V30 4 1 2 5
M  V30 5 2 3 6
M  V30 6 2 4 7
M  V30 7 1 4 8
M  V30 8 1 6 7
M  V30 9 1 3 9
M  V30 10 1 5 10
M  V30 11 1 5 11
M  V30 12 1 5 12
M  V30 13 1 6 13
M  V30 14 1 7 14
M  V30 15 1 8 15
M  V30 16 1 8 16
M  V30 17 1 8 17
M  V30 END BOND
M  V30 END CTAB
M  END
>  <Structure No>
6032

>  <LogS>
0.0938

>  <MMFF94 Energy>
20.598

$$$$
Compound 6033
Actelion Java MolfileCreator 2.0

  0  0  0  0  0  0              0 V3000
M  V30 BEGIN CTAB
M  V30 COUNTS 17 17 0 0 0
M  V30 BEGIN ATOM
M  V30 1 N -1.2493 1.4055 -0.2341 0
M  V30 2 C -1.3478 0.0685 0.0011 0
M  V30 3 C -0.0458 2.0326 -0.312 0
M  V30 4 C -0.1851 -0.6969 0.1626 0
M  V30 5 C -2.6939 -0.5804 0.0568 0
M  V30 6 C 1.1351 1.3051 -0.1508 0
M  V30 7 C 1.068 -0.0714 0.1033 0
M  V30 8 C 2.3246 -0.8791 0.2365 0
M  V30 9 H -0.0055 3.0964 -0.5041 0
M  V30 10 H -0.2566 -1.7648 0.3328 0
M  V30 11 H -2.8148 -1.2632 -0.8101 0
M  V30 12 H -2.795 -1.1615 0.9977 0
M  V30 13 H -3.4979 0.1853 0.0249 0
M  V30 14 H 2.0906 1.8095 -0.2242 0
M  V30 15 H 2.6328 -1.2496 -0.7633 0
M  V30 16 H 2.1622 -1.747 0.9106 0
M  V30 17 H 3.144 -0.2619 0.6628 0
M  V30 END ATOM
M  V30 BEGIN BOND
M  V30 1 2 1 2
M  V30 2 1 1 3
M  V30 3 1 2 4
M  V30 4 1 2 5
M  V30 5 2 3 6
M  V30 6 2 4 7
M  V30 7 1 7 8
M  V30 8 1 6 7
M  V30 9 1 3 9
M  V30 10 1 4 10
M  V30 11 1 5 11
M  V30 12 1 5 12
M  V30 13 1 5 13
M  V30 14 1 6 14
M  V30 15 1 8 15
M  V30 16 1 8 16
M  V30 17 1 8 17
M  V30 END BOND
M  V30 END CTAB
M  END
>  <Structure No>
6033

>  <LogS>
0.4471

>  <MMFF94 Energy>
18.573

$$$$
Compound 6034
Actelion Java MolfileCreator 2.0

  0  0  0  0  0  0              0 V3000
M  V30 BEGIN CTAB
M  V30 COUNTS 17 17 0 0 0
M  V30 BEGIN ATOM
M  V30 1 N 0.6245 1.3274 0.078 0
M  V30 2 C 1.4409 0.2594 -0.1352 0
M  V30 3 C -0.7302 1.2161 0.0364 0
M  V30 4 C 0.884 -1.0005 -0.3871 0
M  V30 5 C 2.9249 0.4298 -0.062 0
M  V30 6 C -1.3277 -0.0223 -0.2373 0
M  V30 7 C -0.5045 -1.1391 -0.4334 0
M  V30 8 C -2.8206 -0.1644 -0.2436 0
M  V30 9 H -1.3399 2.092 0.218 0
M  V30 10 H 1.5183 -1.8645 -0.5419 0
M  V30 11 H 3.4008 -8.0E-4 -0.9682 0
M  V30 12 H 3.3153 -0.0886 0.8386 0
M  V30 13 H 3.1908 1.5065 -1.0E-4 0
M  V30 14 H -0.9365 -2.1144 -0.6211 0
M  V30 15 H -3.1332 -0.9768 -0.9338 0
M  V30 16 H -3.1732 -0.404 0.7811 0
M  V30 17 H -3.3019 0.7781 -0.5816 0
M  V30 END ATOM
M  V30 BEGIN BOND
M  V30 1 2 1 2
M  V30 2 1 1 3
M  V30 3 1 2 4
M  V30 4 1 2 5
M  V30 5 2 3 6
M  V30 6 2 4 7
M  V30 7 1 6 8
M  V30 8 1 6 7
M  V30 9 1 3 9
M  V30 10 1 4 10
M  V30 11 1 5 11
M  V30 12 1 5 12
M  V30 13 1 5 13
M  V30 14 1 7 14
M  V30 15 1 8 15
M  V30 16 1 8 16
M  V30 17 1 8 17
M  V30 END BOND
M  V30 END CTAB
M  END
>  <Structure No>
6034

>  <LogS>
-0.03

>  <MMFF94 Energy>
19.328

$$$$
Compound 6035
Actelion Java MolfileCreator 2.0

  0  0  0  0  0  0              0 V3000
M  V30 BEGIN CTAB
M  V30 COUNTS 17 17 0 0 0
M  V30 BEGIN ATOM
M  V30 1 N 2.3462 0.7034 -0.3125 0
M  V30 2 C 1.1959 1.4261 -0.3265 0
M  V30 3 C 2.3459 -0.6351 -0.0874 0
M  V30 4 C -0.0414 0.7987 -0.1067 0
M  V30 5 C 1.145 -1.3068 0.14 0
M  V30 6 C -0.0639 -0.5939 0.1368 0
M  V30 7 C -1.3057 1.6164 -0.1222 0
M  V30 8 C -1.3573 -1.3257 0.3797 0
M  V30 9 H 1.2485 2.4915 -0.5101 0
M  V30 10 H 3.2807 -1.1794 -0.0844 0
M  V30 11 H 1.1609 -2.3749 0.3179 0
M  V30 12 H -2.0114 1.2083 -0.8755 0
M  V30 13 H -1.7816 1.5906 0.8801 0
M  V30 14 H -1.1034 2.6772 -0.3823 0
M  V30 15 H -1.9998 -1.2622 -0.5231 0
M  V30 16 H -1.1841 -2.3993 0.6062 0
M  V30 17 H -1.8904 -0.8764 1.2434 0
M  V30 END ATOM
M  V30 BEGIN BOND
M  V30 1 2 1 2
M  V30 2 1 1 3
M  V30 3 1 2 4
M  V30 4 2 3 5
M  V30 5 2 4 6
M  V30 6 1 4 7
M  V30 7 1 6 8
M  V30 8 1 5 6
M  V30 9 1 2 9
M  V30 10 1 3 10
M  V30 11 1 5 11
M  V30 12 1 7 12
M  V30 13 1 7 13
M  V30 14 1 7 14
M  V30 15 1 8 15
M  V30 16 1 8 16
M  V30 17 1 8 17
M  V30 END BOND
M  V30 END CTAB
M  END
>  <Structure No>
6035

>  <LogS>
-0.314

>  <MMFF94 Energy>
21.092

$$$$
Compound 6036
Actelion Java MolfileCreator 2.0

  0  0  0  0  0  0              0 V3000
M  V30 BEGIN CTAB
M  V30 COUNTS 17 17 0 0 0
M  V30 BEGIN ATOM
M  V30 1 N 0.078 2.1096 -0.078 0
M  V30 2 C -1.134 1.4947 -0.0712 0
M  V30 3 C 1.2392 1.4054 -0.0224 0
M  V30 4 C -1.2145 0.0963 -0.0239 0
M  V30 5 C 1.2117 0.0068 0.0627 0
M  V30 6 C -0.0283 -0.6461 0.0524 0
M  V30 7 C -2.5474 -0.5898 0.0148 0
M  V30 8 C 2.4876 -0.7803 0.0937 0
M  V30 9 H -2.0335 2.0958 -0.1083 0
M  V30 10 H 2.1823 1.9365 -0.0386 0
M  V30 11 H -0.0701 -1.7279 0.1036 0
M  V30 12 H -2.4858 -1.5906 -0.4631 0
M  V30 13 H -3.3106 0.0051 -0.5307 0
M  V30 14 H -2.8693 -0.7115 1.07 0
M  V30 15 H 3.2962 -0.197 0.5835 0
M  V30 16 H 2.7954 -1.0254 -0.944 0
M  V30 17 H 2.3509 -1.7239 0.6639 0
M  V30 END ATOM
M  V30 BEGIN BOND
M  V30 1 2 1 2
M  V30 2 1 1 3
M  V30 3 1 2 4
M  V30 4 2 3 5
M  V30 5 2 4 6
M  V30 6 1 4 7
M  V30 7 1 5 8
M  V30 8 1 5 6
M  V30 9 1 2 9
M  V30 10 1 3 10
M  V30 11 1 6 11
M  V30 12 1 7 12
M  V30 13 1 7 13
M  V30 14 1 7 14
M  V30 15 1 8 15
M  V30 16 1 8 16
M  V30 17 1 8 17
M  V30 END BOND
M  V30 END CTAB
M  END
>  <Structure No>
6036

>  <LogS>
-0.5115

>  <MMFF94 Energy>
20.637

$$$$
Compound 6037
Actelion Java MolfileCreator 2.0

  0  0  0  0  0  0              0 V3000
M  V30 BEGIN CTAB
M  V30 COUNTS 15 15 0 0 0
M  V30 BEGIN ATOM
M  V30 1 N 0.0779 1.0914 0.0 0
M  V30 2 C 0.4193 -0.2289 0.0041 0
M  V30 3 C -1.2191 1.5 -0.0174 0
M  V30 4 C -0.5913 -1.2015 -0.0098 0
M  V30 5 C 1.8373 -0.6413 0.0232 0
M  V30 6 C -2.2489 0.5572 -0.0316 0
M  V30 7 C -1.9294 -0.8014 -0.0277 0
M  V30 8 C 2.8405 0.2352 0.0372 0
M  V30 9 H -1.4505 2.5567 -0.0202 0
M  V30 10 H -0.3475 -2.2568 -0.0068 0
M  V30 11 H 2.0774 -1.698 0.0262 0
M  V30 12 H -3.283 0.8764 -0.0455 0
M  V30 13 H -2.7174 -1.5433 -0.0387 0
M  V30 14 H 2.6626 1.3031 0.0352 0
M  V30 15 H 3.8636 -0.1174 0.0509 0
M  V30 END ATOM
M  V30 BEGIN BOND
M  V30 1 2 1 2
M  V30 2 1 1 3
M  V30 3 1 2 4
M  V30 4 1 2 5
M  V30 5 2 3 6
M  V30 6 2 4 7
M  V30 7 2 5 8
M  V30 8 1 6 7
M  V30 9 1 3 9
M  V30 10 1 4 10
M  V30 11 1 5 11
M  V30 12 1 6 12
M  V30 13 1 7 13
M  V30 14 1 8 14
M  V30 15 1 8 15
M  V30 END BOND
M  V30 END CTAB
M  END
>  <Structure No>
6037

>  <LogS>
-0.5824

>  <MMFF94 Energy>
17.049

$$$$
Compound 6038
Actelion Java MolfileCreator 2.0

  0  0  0  0  0  0              0 V3000
M  V30 BEGIN CTAB
M  V30 COUNTS 15 15 0 0 0
M  V30 BEGIN ATOM
M  V30 1 N -2.4981 -0.468 0.2339 0
M  V30 2 C -1.5617 -1.4455 0.3463 0
M  V30 3 C -2.1509 0.8262 0.0124 0
M  V30 4 C -0.2035 -1.1357 0.2346 0
M  V30 5 C -0.8052 1.181 -0.1058 0
M  V30 6 C 0.1915 0.1977 0.0046 0
M  V30 7 C 1.6119 0.6159 -0.1271 0
M  V30 8 C 2.6602 -0.2053 -0.0446 0
M  V30 9 H -1.8715 -2.467 0.523 0
M  V30 10 H -2.9204 1.582 -0.0723 0
M  V30 11 H 0.5107 -1.9393 0.3295 0
M  V30 12 H -0.5452 2.2178 -0.2824 0
M  V30 13 H 1.819 1.6653 -0.3034 0
M  V30 14 H 3.6599 0.1951 -0.1542 0
M  V30 15 H 2.5646 -1.2658 0.1284 0
M  V30 END ATOM
M  V30 BEGIN BOND
M  V30 1 2 1 2
M  V30 2 1 1 3
M  V30 3 1 2 4
M  V30 4 2 3 5
M  V30 5 2 4 6
M  V30 6 1 6 7
M  V30 7 2 7 8
M  V30 8 1 5 6
M  V30 9 1 2 9
M  V30 10 1 3 10
M  V30 11 1 4 11
M  V30 12 1 5 12
M  V30 13 1 7 13
M  V30 14 1 8 14
M  V30 15 1 8 15
M  V30 END BOND
M  V30 END CTAB
M  END
>  <Structure No>
6038

>  <LogS>
-0.5579

>  <MMFF94 Energy>
14.471

$$$$
Compound 6039
Actelion Java MolfileCreator 2.0

  0  0  0  0  0  0              0 V3000
M  V30 BEGIN CTAB
M  V30 COUNTS 20 21 0 0 0
M  V30 BEGIN ATOM
M  V30 1 N -1.2756 -0.1593 1.3554 0
M  V30 2 C -0.7452 0.018 0.1113 0
M  V30 3 C -2.6162 -0.137 1.5823 0
M  V30 4 C 0.7257 -0.0158 -0.0779 0
M  V30 5 C -1.6119 0.2317 -0.9759 0
M  V30 6 C -3.5005 0.0727 0.5236 0
M  V30 7 N 1.2562 0.1615 -1.322 0
M  V30 8 C 1.5924 -0.2294 1.0093 0
M  V30 9 C -2.9918 0.2578 -0.7619 0
M  V30 10 C 2.5967 0.1393 -1.5488 0
M  V30 11 C 2.9721 -0.2554 0.7954 0
M  V30 12 C 3.4808 -0.0703 -0.49 0
M  V30 13 H -2.9947 -0.2821 2.5853 0
M  V30 14 H -1.2309 0.3768 -1.9787 0
M  V30 15 H -4.5685 0.0915 0.6978 0
M  V30 16 H 1.2112 -0.3744 2.0122 0
M  V30 17 H -3.6661 0.4215 -1.5926 0
M  V30 18 H 2.9751 0.2845 -2.5518 0
M  V30 19 H 3.6464 -0.4191 1.6262 0
M  V30 20 H 4.5488 -0.089 -0.6642 0
M  V30 END ATOM
M  V30 BEGIN BOND
M  V30 1 2 1 2
M  V30 2 1 1 3
M  V30 3 1 2 4
M  V30 4 1 2 5
M  V30 5 2 3 6
M  V30 6 2 4 7
M  V30 7 1 4 8
M  V30 8 2 5 9
M  V30 9 1 7 10
M  V30 10 2 8 11
M  V30 11 2 10 12
M  V30 12 1 6 9
M  V30 13 1 11 12
M  V30 14 1 3 13
M  V30 15 1 5 14
M  V30 16 1 6 15
M  V30 17 1 8 16
M  V30 18 1 9 17
M  V30 19 1 10 18
M  V30 20 1 11 19
M  V30 21 1 12 20
M  V30 END BOND
M  V30 END CTAB
M  END
>  <Structure No>
6039

>  <LogS>
-1.4206

>  <MMFF94 Energy>
55.611

$$$$
Compound 6040
Actelion Java MolfileCreator 2.0

  0  0  0  0  0  0              0 V3000
M  V30 BEGIN CTAB
M  V30 COUNTS 20 21 0 0 0
M  V30 BEGIN ATOM
M  V30 1 N 3.4328 0.7177 -0.1594 0
M  V30 2 C 3.009 -0.5708 -0.2376 0
M  V30 3 C 2.5657 1.7392 0.0665 0
M  V30 4 C 1.6541 -0.8746 -0.0855 0
M  V30 5 C 1.2022 1.4803 0.2258 0
M  V30 6 C 0.7302 0.1584 0.1501 0
M  V30 7 C -0.7154 -0.1408 0.3158 0
M  V30 8 C -1.3423 -1.1143 -0.4814 0
M  V30 9 C -1.4846 0.5436 1.2728 0
M  V30 10 C -2.7029 -1.3793 -0.3093 0
M  V30 11 C -2.8423 0.246 1.4122 0
M  V30 12 N -3.418 -0.7001 0.6253 0
M  V30 13 H 3.7253 -1.3618 -0.4148 0
M  V30 14 H 2.9342 2.7548 0.1195 0
M  V30 15 H 1.3358 -1.9082 -0.1335 0
M  V30 16 H 0.5227 2.3074 0.3882 0
M  V30 17 H -0.7912 -1.6522 -1.2423 0
M  V30 18 H -1.0379 1.2882 1.9195 0
M  V30 19 H -3.1917 -2.1242 -0.9227 0
M  V30 20 H -3.4384 0.7664 2.1498 0
M  V30 END ATOM
M  V30 BEGIN BOND
M  V30 1 2 1 2
M  V30 2 1 1 3
M  V30 3 1 2 4
M  V30 4 2 3 5
M  V30 5 2 4 6
M  V30 6 1 6 7
M  V30 7 2 7 8
M  V30 8 1 7 9
M  V30 9 1 8 10
M  V30 10 2 9 11
M  V30 11 2 10 12
M  V30 12 1 5 6
M  V30 13 1 11 12
M  V30 14 1 2 13
M  V30 15 1 3 14
M  V30 16 1 4 15
M  V30 17 1 5 16
M  V30 18 1 8 17
M  V30 19 1 9 18
M  V30 20 1 10 19
M  V30 21 1 11 20
M  V30 END BOND
M  V30 END CTAB
M  END
>  <Structure No>
6040

>  <LogS>
-1.5376

>  <MMFF94 Energy>
22.843

$$$$
Compound 6041
Actelion Java MolfileCreator 2.0

  0  0  0  0  0  0              0 V3000
M  V30 BEGIN CTAB
M  V30 COUNTS 22 24 0 0 0
M  V30 BEGIN ATOM
M  V30 1 N -1.2895 -1.5314 -0.1611 0
M  V30 2 C -0.6257 -0.3458 -0.0458 0
M  V30 3 C -2.6469 -1.6018 -0.1484 0
M  V30 4 C 0.7841 -0.2999 -0.0618 0
M  V30 5 C -1.3648 0.8536 0.0915 0
M  V30 6 C -3.4084 -0.4398 -0.0146 0
M  V30 7 C 1.4419 0.9479 0.06 0
M  V30 8 C 1.5687 -1.4592 -0.1957 0
M  V30 9 C -0.6967 2.0802 0.211 0
M  V30 10 C -2.7648 0.7926 0.1058 0
M  V30 11 N 2.8013 1.0057 0.046 0
M  V30 12 C 0.6987 2.1251 0.1952 0
M  V30 13 C 2.9612 -1.3627 -0.2061 0
M  V30 14 C 3.565 -0.1106 -0.0828 0
M  V30 15 H -3.1359 -2.5622 -0.2425 0
M  V30 16 H -4.4893 -0.4941 -0.0042 0
M  V30 17 H 1.1127 -2.4366 -0.292 0
M  V30 18 H -1.2538 3.0036 0.3167 0
M  V30 19 H -3.3579 1.6935 0.2096 0
M  V30 20 H 1.2026 3.0792 0.2883 0
M  V30 21 H 3.5687 -2.2526 -0.3089 0
M  V30 22 H 4.6434 -0.026 -0.0899 0
M  V30 END ATOM
M  V30 BEGIN BOND
M  V30 1 1 1 2
M  V30 2 2 1 3
M  V30 3 2 2 4
M  V30 4 1 2 5
M  V30 5 1 3 6
M  V30 6 1 4 7
M  V30 7 1 4 8
M  V30 8 2 5 9
M  V30 9 1 5 10
M  V30 10 1 7 11
M  V30 11 2 7 12
M  V30 12 2 8 13
M  V30 13 2 11 14
M  V30 14 2 6 10
M  V30 15 1 9 12
M  V30 16 1 13 14
M  V30 17 1 3 15
M  V30 18 1 6 16
M  V30 19 1 8 17
M  V30 20 1 9 18
M  V30 21 1 10 19
M  V30 22 1 12 20
M  V30 23 1 13 21
M  V30 24 1 14 22
M  V30 END BOND
M  V30 END CTAB
M  END
>  <Structure No>
6041

>  <LogS>
-2.6806

>  <MMFF94 Energy>
54.596

$$$$
Compound 6042
Actelion Java MolfileCreator 2.0

  0  0  0  0  0  0              0 V3000
M  V30 BEGIN CTAB
M  V30 COUNTS 23 25 0 0 0
M  V30 BEGIN ATOM
M  V30 1 N 0.0 1.0435 -0.9632 0
M  V30 2 C -1.1895 0.5104 -0.5749 0
M  V30 3 C 1.1819 0.6092 -0.4494 0
M  V30 4 C -1.2211 -0.5245 0.3878 0
M  V30 5 C -2.3846 0.9853 -1.1276 0
M  V30 6 C 1.1975 -0.4238 0.5159 0
M  V30 7 C 2.385 1.1839 -0.8753 0
M  V30 8 C -0.0158 -0.988 0.9311 0
M  V30 9 C -2.4529 -1.0687 0.7828 0
M  V30 10 C -3.6072 0.4369 -0.728 0
M  V30 11 C 2.4217 -0.8658 1.0407 0
M  V30 12 C 3.5999 0.7369 -0.3466 0
M  V30 13 C -3.6413 -0.5868 0.2242 0
M  V30 14 C 3.6182 -0.2847 0.6083 0
M  V30 15 H -2.3683 1.778 -1.8656 0
M  V30 16 H 2.3808 1.9757 -1.6144 0
M  V30 17 H -0.0219 -1.7813 1.6708 0
M  V30 18 H -2.4962 -1.8622 1.5193 0
M  V30 19 H -4.5301 0.8057 -1.1567 0
M  V30 20 H 2.4527 -1.6562 1.7811 0
M  V30 21 H 4.529 1.1829 -0.6775 0
M  V30 22 H -4.5906 -1.0077 0.5299 0
M  V30 23 H 4.5616 -0.6267 1.014 0
M  V30 END ATOM
M  V30 BEGIN BOND
M  V30 1 1 1 2
M  V30 2 2 1 3
M  V30 3 1 2 4
M  V30 4 2 2 5
M  V30 5 1 3 6
M  V30 6 1 3 7
M  V30 7 1 4 8
M  V30 8 2 4 9
M  V30 9 1 5 10
M  V30 10 1 6 11
M  V30 11 2 7 12
M  V30 12 1 9 13
M  V30 13 2 11 14
M  V30 14 2 6 8
M  V30 15 2 10 13
M  V30 16 1 12 14
M  V30 17 1 5 15
M  V30 18 1 7 16
M  V30 19 1 8 17
M  V30 20 1 9 18
M  V30 21 1 10 19
M  V30 22 1 11 20
M  V30 23 1 12 21
M  V30 24 1 13 22
M  V30 25 1 14 23
M  V30 END BOND
M  V30 END CTAB
M  END
>  <Structure No>
6042

>  <LogS>
-3.6691

>  <MMFF94 Energy>
49.422

$$$$
Compound 6043
Actelion Java MolfileCreator 2.0

  0  0  0  0  0  0              0 V3000
M  V30 BEGIN CTAB
M  V30 COUNTS 23 25 0 0 0
M  V30 BEGIN ATOM
M  V30 1 N -2.8129 -1.2048 -0.3211 0
M  V30 2 C -1.4622 -1.0636 -0.2414 0
M  V30 3 C -3.6568 -0.1522 -0.1814 0
M  V30 4 C -0.8843 0.2125 -0.0052 0
M  V30 5 C -0.6551 -2.1905 -0.3949 0
M  V30 6 C -3.1475 1.1216 0.0514 0
M  V30 7 C 0.5364 0.3285 0.0731 0
M  V30 8 C -1.7673 1.3075 0.1398 0
M  V30 9 C 0.7289 -2.0824 -0.3193 0
M  V30 10 C 1.3335 -0.8408 -0.0878 0
M  V30 11 C 1.1989 1.5585 0.305 0
M  V30 12 C 2.7335 -0.7589 -0.0159 0
M  V30 13 C 2.593 1.6185 0.3731 0
M  V30 14 C 3.357 0.4656 0.2135 0
M  V30 15 H -4.7253 -0.3058 -0.2513 0
M  V30 16 H -1.1034 -3.1602 -0.5746 0
M  V30 17 H -3.8195 1.9631 0.1632 0
M  V30 18 H -1.4246 2.3129 0.321 0
M  V30 19 H 1.3307 -2.9753 -0.4424 0
M  V30 20 H 0.6697 2.4876 0.4374 0
M  V30 21 H 3.3464 -1.6443 -0.1374 0
M  V30 22 H 3.0835 2.5671 0.5511 0
M  V30 23 H 4.4367 0.5209 0.2677 0
M  V30 END ATOM
M  V30 BEGIN BOND
M  V30 1 1 1 2
M  V30 2 2 1 3
M  V30 3 1 2 4
M  V30 4 2 2 5
M  V30 5 1 3 6
M  V30 6 2 4 7
M  V30 7 1 4 8
M  V30 8 1 5 9
M  V30 9 1 7 10
M  V30 10 1 7 11
M  V30 11 1 10 12
M  V30 12 2 11 13
M  V30 13 2 12 14
M  V30 14 2 6 8
M  V30 15 2 9 10
M  V30 16 1 13 14
M  V30 17 1 3 15
M  V30 18 1 5 16
M  V30 19 1 6 17
M  V30 20 1 8 18
M  V30 21 1 9 19
M  V30 22 1 11 20
M  V30 23 1 12 21
M  V30 24 1 13 22
M  V30 25 1 14 23
M  V30 END BOND
M  V30 END CTAB
M  END
>  <Structure No>
6043

>  <LogS>
-3.3574

>  <MMFF94 Energy>
52.063

$$$$
Compound 6044
Actelion Java MolfileCreator 2.0

  0  0  0  0  0  0              0 V3000
M  V30 BEGIN CTAB
M  V30 COUNTS 17 18 0 0 0
M  V30 BEGIN ATOM
M  V30 1 N 2.6281 0.7162 0.0795 0
M  V30 2 C 1.4629 1.4152 0.1321 0
M  V30 3 C 2.6486 -0.6362 -0.0586 0
M  V30 4 C 0.2362 0.743 0.043 0
M  V30 5 C 1.4529 -1.3524 -0.1516 0
M  V30 6 C 0.234 -0.6635 -0.101 0
M  V30 7 C -0.9795 1.4413 0.0947 0
M  V30 8 C -0.9865 -1.3502 -0.1915 0
M  V30 9 C -2.1892 0.7462 0.0036 0
M  V30 10 C -2.1928 -0.6446 -0.1389 0
M  V30 11 H 1.4964 2.4919 0.243 0
M  V30 12 H 3.5958 -1.1574 -0.0964 0
M  V30 13 H 1.4809 -2.4297 -0.2615 0
M  V30 14 H -0.9937 2.519 0.205 0
M  V30 15 H -1.0075 -2.4278 -0.3022 0
M  V30 16 H -3.1262 1.2865 0.0435 0
M  V30 17 H -3.1326 -1.1769 -0.2089 0
M  V30 END ATOM
M  V30 BEGIN BOND
M  V30 1 2 1 2
M  V30 2 1 1 3
M  V30 3 1 2 4
M  V30 4 2 3 5
M  V30 5 1 4 6
M  V30 6 2 4 7
M  V30 7 2 6 8
M  V30 8 1 7 9
M  V30 9 1 8 10
M  V30 10 1 5 6
M  V30 11 2 9 10
M  V30 12 1 2 11
M  V30 13 1 3 12
M  V30 14 1 5 13
M  V30 15 1 7 14
M  V30 16 1 8 15
M  V30 17 1 9 16
M  V30 18 1 10 17
M  V30 END BOND
M  V30 END CTAB
M  END
>  <Structure No>
6044

>  <LogS>
-1.456

>  <MMFF94 Energy>
33.108

$$$$
Compound 6045
Actelion Java MolfileCreator 2.0

  0  0  0  0  0  0              0 V3000
M  V30 BEGIN CTAB
M  V30 COUNTS 32 35 0 0 0
M  V30 BEGIN ATOM
M  V30 1 N -1.6941 -0.7257 -0.0806 0
M  V30 2 C -0.7066 0.2024 0.0685 0
M  V30 3 C -3.0128 -0.397 -0.042 0
M  V30 4 C 0.7152 -0.2173 0.017 0
M  V30 5 C -1.0573 1.5497 0.2699 0
M  V30 6 C -3.3979 0.9461 0.1584 0
M  V30 7 C -3.9895 -1.3868 -0.2003 0
M  V30 8 N 1.7028 0.7108 0.1662 0
M  V30 9 C 1.0659 -1.5645 -0.1842 0
M  V30 10 C -2.4036 1.9178 0.3144 0
M  V30 11 C -4.7596 1.2818 0.1978 0
M  V30 12 C -5.3449 -1.0444 -0.1599 0
M  V30 13 C 3.0214 0.3822 0.1276 0
M  V30 14 C 2.4121 -1.9325 -0.2286 0
M  V30 15 C -5.7289 0.2858 0.0386 0
M  V30 16 C 3.4064 -0.9608 -0.0726 0
M  V30 17 C 3.998 1.3721 0.2861 0
M  V30 18 C 4.7681 -1.2964 -0.112 0
M  V30 19 C 5.3533 1.0297 0.2457 0
M  V30 20 C 5.7372 -0.3004 0.0473 0
M  V30 21 H -0.3001 2.3136 0.3923 0
M  V30 22 H -3.7013 -2.4193 -0.3544 0
M  V30 23 H 0.3086 -2.3283 -0.3065 0
M  V30 24 H -2.6659 2.9575 0.4698 0
M  V30 25 H -5.0721 2.3079 0.3508 0
M  V30 26 H -6.099 -1.8109 -0.2825 0
M  V30 27 H 2.6744 -2.9722 -0.384 0
M  V30 28 H -6.7792 0.5454 0.069 0
M  V30 29 H 3.7097 2.4046 0.4403 0
M  V30 30 H 5.0804 -2.3224 -0.2648 0
M  V30 31 H 6.1074 1.7964 0.3684 0
M  V30 32 H 6.7874 -0.5599 0.0169 0
M  V30 END ATOM
M  V30 BEGIN BOND
M  V30 1 2 1 2
M  V30 2 1 1 3
M  V30 3 1 2 4
M  V30 4 1 2 5
M  V30 5 1 3 6
M  V30 6 2 3 7
M  V30 7 2 4 8
M  V30 8 1 4 9
M  V30 9 2 5 10
M  V30 10 2 6 11
M  V30 11 1 7 12
M  V30 12 1 8 13
M  V30 13 2 9 14
M  V30 14 1 11 15
M  V30 15 1 13 16
M  V30 16 2 13 17
M  V30 17 2 16 18
M  V30 18 1 17 19
M  V30 19 1 18 20
M  V30 20 1 6 10
M  V30 21 2 12 15
M  V30 22 1 14 16
M  V30 23 2 19 20
M  V30 24 1 5 21
M  V30 25 1 7 22
M  V30 26 1 9 23
M  V30 27 1 10 24
M  V30 28 1 11 25
M  V30 29 1 12 26
M  V30 30 1 14 27
M  V30 31 1 15 28
M  V30 32 1 17 29
M  V30 33 1 18 30
M  V30 34 1 19 31
M  V30 35 1 20 32
M  V30 END BOND
M  V30 END CTAB
M  END
>  <Structure No>
6045

>  <LogS>
-5.4002

>  <MMFF94 Energy>
86.56

$$$$
Compound 6046
Actelion Java MolfileCreator 2.0

  0  0  0  0  0  0              0 V3000
M  V30 BEGIN CTAB
M  V30 COUNTS 16 17 0 0 0
M  V30 BEGIN ATOM
M  V30 1 N 2.883 0.24 0.16 0
M  V30 2 N 2.6936 -1.0797 0.1007 0
M  V30 3 C 1.8407 1.1112 0.1332 0
M  V30 4 C 1.4491 -1.6176 0.0108 0
M  V30 5 C 0.5345 0.6206 0.0415 0
M  V30 6 C 0.3344 -0.774 -0.021 0
M  V30 7 C -0.5691 1.4863 0.011 0
M  V30 8 C -0.9675 -1.2889 -0.1135 0
M  V30 9 C -1.8635 0.9644 -0.0812 0
M  V30 10 C -2.062 -0.4186 -0.1433 0
M  V30 11 H 2.0341 2.1756 0.1834 0
M  V30 12 H 1.3353 -2.6936 -0.0352 0
M  V30 13 H -0.4314 2.56 0.0583 0
M  V30 14 H -1.1371 -2.3579 -0.1623 0
M  V30 15 H -2.7145 1.633 -0.1046 0
M  V30 16 H -3.0661 -0.8167 -0.2145 0
M  V30 END ATOM
M  V30 BEGIN BOND
M  V30 1 1 1 2
M  V30 2 2 1 3
M  V30 3 2 2 4
M  V30 4 1 3 5
M  V30 5 1 4 6
M  V30 6 2 5 7
M  V30 7 2 6 8
M  V30 8 1 7 9
M  V30 9 1 8 10
M  V30 10 1 5 6
M  V30 11 2 9 10
M  V30 12 1 3 11
M  V30 13 1 4 12
M  V30 14 1 7 13
M  V30 15 1 8 14
M  V30 16 1 9 15
M  V30 17 1 10 16
M  V30 END BOND
M  V30 END CTAB
M  END
>  <Structure No>
6046

>  <LogS>
-0.4155

>  <MMFF94 Energy>
39.252

$$$$
Compound 6047
Actelion Java MolfileCreator 2.0

  0  0  0  0  0  0              0 V3000
M  V30 BEGIN CTAB
M  V30 COUNTS 27 28 0 0 0
M  V30 BEGIN ATOM
M  V30 1 Cl 4.4558 1.6485 -1.8135 0
M  V30 2 C 3.3853 0.8438 -0.6805 0
M  V30 3 C 2.2426 0.1861 -1.1446 0
M  V30 4 C 3.6735 0.8626 0.6852 0
M  V30 5 C 1.376 -0.463 -0.2465 0
M  V30 6 C 2.8193 0.2286 1.589 0
M  V30 7 C 1.6695 -0.431 1.1392 0
M  V30 8 C 0.1392 -1.152 -0.7829 0
M  V30 9 O 0.8431 -1.0352 2.0892 0
M  V30 10 C -1.1563 -0.4209 -0.4681 0
M  V30 11 C -2.3937 -1.1154 -0.4324 0
M  V30 12 C -1.1649 0.9784 -0.2751 0
M  V30 13 O -2.4986 -2.4783 -0.721 0
M  V30 14 C -3.5708 -0.4271 -0.1149 0
M  V30 15 C -2.3511 1.6522 0.0274 0
M  V30 16 C -3.5505 0.9471 0.1192 0
M  V30 17 Cl -2.3322 3.3866 0.2905 0
M  V30 18 H 2.029 0.1851 -2.2065 0
M  V30 19 H 4.5574 1.3711 1.0485 0
M  V30 20 H 3.0485 0.2534 2.6467 0
M  V30 21 H 0.1297 -2.1729 -0.3506 0
M  V30 22 H 0.2069 -1.277 -1.8851 0
M  V30 23 H -0.0149 -1.5159 1.8533 0
M  V30 24 H -0.2527 1.5552 -0.3508 0
M  V30 25 H -1.7341 -3.0381 -1.0728 0
M  V30 26 H -4.512 -0.9603 -0.0692 0
M  V30 27 H -4.471 1.4657 0.3554 0
M  V30 END ATOM
M  V30 BEGIN BOND
M  V30 1 1 1 2
M  V30 2 2 2 3
M  V30 3 1 2 4
M  V30 4 1 3 5
M  V30 5 2 4 6
M  V30 6 2 5 7
M  V30 7 1 5 8
M  V30 8 1 7 9
M  V30 9 1 8 10
M  V30 10 2 10 11
M  V30 11 1 10 12
M  V30 12 1 11 13
M  V30 13 1 11 14
M  V30 14 2 12 15
M  V30 15 2 14 16
M  V30 16 1 15 17
M  V30 17 1 6 7
M  V30 18 1 15 16
M  V30 19 1 3 18
M  V30 20 1 4 19
M  V30 21 1 6 20
M  V30 22 1 8 21
M  V30 23 1 8 22
M  V30 24 1 9 23
M  V30 25 1 12 24
M  V30 26 1 13 25
M  V30 27 1 14 26
M  V30 28 1 16 27
M  V30 END BOND
M  V30 END CTAB
M  END
>  <Structure No>
6047

>  <LogS>
-3.9528

>  <MMFF94 Energy>
15.036

$$$$
Compound 6048
Actelion Java MolfileCreator 2.0

  0  0  0  0  0  0              0 V3000
M  V30 BEGIN CTAB
M  V30 COUNTS 32 32 0 0 0
M  V30 BEGIN ATOM
M  V30 1 O 2.4309 2.2739 -0.1566 0
M  V30 2 C 2.6355 0.8946 -0.1171 0
M  V30 3 C 1.6077 0.0375 0.3253 0
M  V30 4 C 3.8667 0.3578 -0.5216 0
M  V30 5 C 1.823 -1.351 0.3282 0
M  V30 6 C 0.2628 0.5841 0.7343 0
M  V30 7 C 4.0765 -1.027 -0.5006 0
M  V30 8 C 3.052 -1.8775 -0.0771 0
M  V30 9 C -0.6619 0.7034 -0.4848 0
M  V30 10 O 5.2967 -1.5669 -0.901 0
M  V30 11 C -1.9998 1.3904 -0.1574 0
M  V30 12 C -2.8686 0.6644 0.8899 0
M  V30 13 C -3.2131 -0.7959 0.549 0
M  V30 14 C -4.0139 -0.9322 -0.7453 0
M  V30 15 H 3.154 2.9096 -0.4727 0
M  V30 16 H 4.6582 1.0167 -0.8562 0
M  V30 17 H 1.0372 -2.0265 0.6437 0
M  V30 18 H 0.3848 1.5782 1.217 0
M  V30 19 H -0.1918 -0.0914 1.4902 0
M  V30 20 H 3.2071 -2.949 -0.0653 0
M  V30 21 H -0.1522 1.3132 -1.263 0
M  V30 22 H -0.8412 -0.2992 -0.9273 0
M  V30 23 H 6.0593 -0.9775 -1.2143 0
M  V30 24 H -1.7918 2.418 0.2128 0
M  V30 25 H -2.58 1.5079 -1.0974 0
M  V30 26 H -3.8154 1.2345 1.0131 0
M  V30 27 H -2.3587 0.6916 1.8762 0
M  V30 28 H -3.8245 -1.2093 1.3803 0
M  V30 29 H -2.2918 -1.4124 0.4888 0
M  V30 30 H -4.3474 -1.9846 -0.864 0
M  V30 31 H -3.3879 -0.6677 -1.6228 0
M  V30 32 H -4.9108 -0.2773 -0.7181 0
M  V30 END ATOM
M  V30 BEGIN BOND
M  V30 1 1 1 2
M  V30 2 2 2 3
M  V30 3 1 2 4
M  V30 4 1 3 5
M  V30 5 1 3 6
M  V30 6 2 4 7
M  V30 7 2 5 8
M  V30 8 1 6 9
M  V30 9 1 7 10
M  V30 10 1 9 11
M  V30 11 1 11 12
M  V30 12 1 12 13
M  V30 13 1 13 14
M  V30 14 1 7 8
M  V30 15 1 1 15
M  V30 16 1 4 16
M  V30 17 1 5 17
M  V30 18 1 6 18
M  V30 19 1 6 19
M  V30 20 1 8 20
M  V30 21 1 9 21
M  V30 22 1 9 22
M  V30 23 1 10 23
M  V30 24 1 11 24
M  V30 25 1 11 25
M  V30 26 1 12 26
M  V30 27 1 12 27
M  V30 28 1 13 28
M  V30 29 1 13 29
M  V30 30 1 14 30
M  V30 31 1 14 31
M  V30 32 1 14 32
M  V30 END BOND
M  V30 END CTAB
M  END
>  <Structure No>
6048

>  <LogS>
-2.5895

>  <MMFF94 Energy>
-1.7285

$$$$
Compound 6049
Actelion Java MolfileCreator 2.0

  0  0  0  0  0  0              0 V3000
M  V30 BEGIN CTAB
M  V30 COUNTS 40 41 0 0 0
M  V30 BEGIN ATOM
M  V30 1 O 5.7752 1.5006 1.2636 0
M  V30 2 C 4.4894 1.1907 0.8263 0
M  V30 3 C 4.0038 -0.1219 0.9076 0
M  V30 4 C 3.6766 2.2004 0.2998 0
M  V30 5 C 2.7113 -0.4206 0.4661 0
M  V30 6 C 2.3836 1.9035 -0.1419 0
M  V30 7 C 1.8925 0.5928 -0.0534 0
M  V30 8 C 0.5282 0.2822 -0.5293 0
M  V30 9 C -0.5414 0.35 0.3085 0
M  V30 10 C 0.3946 -0.1144 -1.9859 0
M  V30 11 C -1.9028 0.0192 -0.162 0
M  V30 12 C -0.4098 0.7603 1.7617 0
M  V30 13 C 0.5959 -1.6151 -2.1744 0
M  V30 14 C -2.3877 -1.2934 -0.0666 0
M  V30 15 C -2.7266 1.0262 -0.686 0
M  V30 16 C -0.2216 -0.4528 2.6676 0
M  V30 17 C -3.6792 -1.5985 -0.5065 0
M  V30 18 C -4.018 0.7194 -1.1252 0
M  V30 19 C -4.4973 -0.5952 -1.0373 0
M  V30 20 O -5.7817 -0.9135 -1.4723 0
M  V30 21 H 6.3883 0.792 1.6495 0
M  V30 22 H 4.6266 -0.91 1.3111 0
M  V30 23 H 4.0473 3.2154 0.2326 0
M  V30 24 H 2.3482 -1.4387 0.5315 0
M  V30 25 H 1.7634 2.6932 -0.5483 0
M  V30 26 H 1.1596 0.4233 -2.5873 0
M  V30 27 H -0.5903 0.1827 -2.4027 0
M  V30 28 H -1.3295 1.2991 2.0787 0
M  V30 29 H 0.4305 1.4698 1.9125 0
M  V30 30 H -0.1401 -2.1884 -1.5749 0
M  V30 31 H 0.4588 -1.8754 -3.245 0
M  V30 32 H 1.6224 -1.9088 -1.8705 0
M  V30 33 H -1.7658 -2.0787 0.3446 0
M  V30 34 H -2.366 2.0451 -0.7576 0
M  V30 35 H -1.1109 -1.1154 2.6164 0
M  V30 36 H 0.6792 -1.0278 2.3716 0
M  V30 37 H -0.0957 -0.1148 3.7177 0
M  V30 38 H -4.0452 -2.6146 -0.4339 0
M  V30 39 H -4.6448 1.5025 -1.5323 0
M  V30 40 H -6.3986 -0.2096 -1.8612 0
M  V30 END ATOM
M  V30 BEGIN BOND
M  V30 1 1 1 2
M  V30 2 2 2 3
M  V30 3 1 2 4
M  V30 4 1 3 5
M  V30 5 2 4 6
M  V30 6 2 5 7
M  V30 7 1 7 8
M  V30 8 2 8 9
M  V30 9 1 8 10
M  V30 10 1 9 11
M  V30 11 1 9 12
M  V30 12 1 10 13
M  V30 13 2 11 14
M  V30 14 1 11 15
M  V30 15 1 12 16
M  V30 16 1 14 17
M  V30 17 2 15 18
M  V30 18 2 17 19
M  V30 19 1 19 20
M  V30 20 1 6 7
M  V30 21 1 18 19
M  V30 22 1 1 21
M  V30 23 1 3 22
M  V30 24 1 4 23
M  V30 25 1 5 24
M  V30 26 1 6 25
M  V30 27 1 10 26
M  V30 28 1 10 27
M  V30 29 1 12 28
M  V30 30 1 12 29
M  V30 31 1 13 30
M  V30 32 1 13 31
M  V30 33 1 13 32
M  V30 34 1 14 33
M  V30 35 1 15 34
M  V30 36 1 16 35
M  V30 37 1 16 36
M  V30 38 1 16 37
M  V30 39 1 17 38
M  V30 40 1 18 39
M  V30 41 1 20 40
M  V30 END BOND
M  V30 END CTAB
M  END
>  <Structure No>
6049

>  <LogS>
-4.3495

>  <MMFF94 Energy>
27.618

$$$$
Compound 6050
Actelion Java MolfileCreator 2.0

  0  0  0  0  0  0              0 V3000
M  V30 BEGIN CTAB
M  V30 COUNTS 26 27 0 0 0
M  V30 BEGIN ATOM
M  V30 1 Cl -3.8549 -1.9671 1.721 0
M  V30 2 C -2.9504 -0.8242 0.7349 0
M  V30 3 C -3.5973 0.1078 -0.1009 0
M  V30 4 C -1.5519 -0.8533 0.7981 0
M  V30 5 N -5.0266 0.1641 -0.1899 0
M  V30 6 C -2.8262 0.9981 -0.8609 0
M  V30 7 C -0.7784 0.0395 0.0359 0
M  V30 8 C -1.4315 0.9661 -0.7941 0
M  V30 9 C 0.7048 0.0042 0.1068 0
M  V30 10 C 1.4477 1.1975 0.1369 0
M  V30 11 C 1.3885 -1.2226 0.1444 0
M  V30 12 C 2.8461 1.1696 0.2036 0
M  V30 13 C 2.7831 -1.255 0.21 0
M  V30 14 Cl 3.7109 2.7017 0.2443 0
M  V30 15 C 3.5238 -0.0652 0.2402 0
M  V30 16 N 4.9539 -0.1298 0.3075 0
M  V30 17 H -1.0702 -1.564 1.4585 0
M  V30 18 H -5.4917 0.861 -0.8137 0
M  V30 19 H -5.6401 -0.479 0.356 0
M  V30 20 H -3.3079 1.7179 -1.511 0
M  V30 21 H -0.8634 1.6552 -1.4063 0
M  V30 22 H 0.9408 2.1548 0.1269 0
M  V30 23 H 0.8454 -2.1584 0.1053 0
M  V30 24 H 3.2889 -2.2122 0.2337 0
M  V30 25 H 5.5453 0.7292 0.3307 0
M  V30 26 H 5.4419 -1.0527 0.3345 0
M  V30 END ATOM
M  V30 BEGIN BOND
M  V30 1 1 1 2
M  V30 2 2 2 3
M  V30 3 1 2 4
M  V30 4 1 3 5
M  V30 5 1 3 6
M  V30 6 2 4 7
M  V30 7 2 6 8
M  V30 8 1 7 9
M  V30 9 2 9 10
M  V30 10 1 9 11
M  V30 11 1 10 12
M  V30 12 2 11 13
M  V30 13 1 12 14
M  V30 14 2 12 15
M  V30 15 1 15 16
M  V30 16 1 7 8
M  V30 17 1 13 15
M  V30 18 1 4 17
M  V30 19 1 5 18
M  V30 20 1 5 19
M  V30 21 1 6 20
M  V30 22 1 8 21
M  V30 23 1 10 22
M  V30 24 1 11 23
M  V30 25 1 13 24
M  V30 26 1 16 25
M  V30 27 1 16 26
M  V30 END BOND
M  V30 END CTAB
M  END
>  <Structure No>
6050

>  <LogS>
-4.912

>  <MMFF94 Energy>
61.186

$$$$
Compound 6051
Actelion Java MolfileCreator 2.0

  0  0  0  0  0  0              0 V3000
M  V30 BEGIN CTAB
M  V30 COUNTS 16 16 0 0 0
M  V30 BEGIN ATOM
M  V30 1 N 2.8612 0.1544 0.1544 0
M  V30 2 C 1.4369 0.0672 0.061 0
M  V30 3 C 0.8406 -0.6339 -0.9966 0
M  V30 4 C 0.627 0.6822 1.0264 0
M  V30 5 C -0.5521 -0.7192 -1.088 0
M  V30 6 C -0.7657 0.597 0.935 0
M  V30 7 C -1.362 -0.1042 -0.1225 0
M  V30 8 N -2.7863 -0.1914 -0.216 0
M  V30 9 H 3.4726 -0.3002 -0.5596 0
M  V30 10 H 3.3145 0.6745 0.9387 0
M  V30 11 H 1.4542 -1.1134 -1.7487 0
M  V30 12 H 1.0745 1.2268 1.8484 0
M  V30 13 H -0.9997 -1.2637 -1.9099 0
M  V30 14 H -1.3794 1.0765 1.6873 0
M  V30 15 H -3.2397 -0.7113 -1.0001 0
M  V30 16 H -3.3978 0.2633 0.4981 0
M  V30 END ATOM
M  V30 BEGIN BOND
M  V30 1 1 1 2
M  V30 2 2 2 3
M  V30 3 1 2 4
M  V30 4 1 3 5
M  V30 5 2 4 6
M  V30 6 2 5 7
M  V30 7 1 7 8
M  V30 8 1 6 7
M  V30 9 1 1 9
M  V30 10 1 1 10
M  V30 11 1 3 11
M  V30 12 1 4 12
M  V30 13 1 5 13
M  V30 14 1 6 14
M  V30 15 1 8 15
M  V30 16 1 8 16
M  V30 END BOND
M  V30 END CTAB
M  END
>  <Structure No>
6051

>  <LogS>
-0.4658

>  <MMFF94 Energy>
-1.6722

$$$$
Compound 6052
Actelion Java MolfileCreator 2.0

  0  0  0  0  0  0              0 V3000
M  V30 BEGIN CTAB
M  V30 COUNTS 34 35 0 0 0
M  V30 BEGIN ATOM
M  V30 1 O 4.1885 0.0 -0.7102 0
M  V30 2 C 3.0194 0.4607 -0.0824 0
M  V30 3 C 4.2611 -1.1567 -1.5372 0
M  V30 4 C 3.087 1.6194 0.7135 0
M  V30 5 C 1.7851 -0.2038 -0.2298 0
M  V30 6 N 4.326 2.3175 0.8845 0
M  V30 7 C 1.9328 2.0978 1.3468 0
M  V30 8 C 0.6271 0.2768 0.4068 0
M  V30 9 C 0.7146 1.4347 1.196 0
M  V30 10 C -0.6698 -0.4297 0.2483 0
M  V30 11 C -1.8594 0.2949 0.0557 0
M  V30 12 C -0.7257 -1.8319 0.2893 0
M  V30 13 C -3.0937 -0.3688 -0.0939 0
M  V30 14 C -1.9438 -2.4961 0.1423 0
M  V30 15 O -4.2941 0.3341 -0.2889 0
M  V30 16 C -3.1293 -1.775 -0.049 0
M  V30 17 C -4.4005 1.7527 -0.3512 0
M  V30 18 N -4.3675 -2.4798 -0.1967 0
M  V30 19 H 5.3042 -1.2831 -1.8921 0
M  V30 20 H 3.9709 -2.0589 -0.9585 0
M  V30 21 H 3.5979 -1.0374 -2.4199 0
M  V30 22 H 1.7157 -1.0847 -0.8529 0
M  V30 23 H 4.3754 3.1775 1.4753 0
M  V30 24 H 5.2048 1.9884 0.4274 0
M  V30 25 H 1.9784 2.9867 1.9637 0
M  V30 26 H -0.1568 1.8183 1.7118 0
M  V30 27 H -1.8156 1.3743 0.0052 0
M  V30 28 H 0.1714 -2.4154 0.4531 0
M  V30 29 H -1.9645 -3.578 0.1814 0
M  V30 30 H -4.0522 2.2042 0.6016 0
M  V30 31 H -3.8034 2.1436 -1.2018 0
M  V30 32 H -5.4632 2.0296 -0.5073 0
M  V30 33 H -4.3933 -3.5234 -0.1633 0
M  V30 34 H -5.2693 -1.9738 -0.3403 0
M  V30 END ATOM
M  V30 BEGIN BOND
M  V30 1 1 1 2
M  V30 2 1 1 3
M  V30 3 2 2 4
M  V30 4 1 2 5
M  V30 5 1 4 6
M  V30 6 1 4 7
M  V30 7 2 5 8
M  V30 8 2 7 9
M  V30 9 1 8 10
M  V30 10 2 10 11
M  V30 11 1 10 12
M  V30 12 1 11 13
M  V30 13 2 12 14
M  V30 14 1 13 15
M  V30 15 2 13 16
M  V30 16 1 15 17
M  V30 17 1 16 18
M  V30 18 1 8 9
M  V30 19 1 14 16
M  V30 20 1 3 19
M  V30 21 1 3 20
M  V30 22 1 3 21
M  V30 23 1 5 22
M  V30 24 1 6 23
M  V30 25 1 6 24
M  V30 26 1 7 25
M  V30 27 1 9 26
M  V30 28 1 11 27
M  V30 29 1 12 28
M  V30 30 1 14 29
M  V30 31 1 17 30
M  V30 32 1 17 31
M  V30 33 1 17 32
M  V30 34 1 18 33
M  V30 35 1 18 34
M  V30 END BOND
M  V30 END CTAB
M  END
>  <Structure No>
6052

>  <LogS>
-3.6098

>  <MMFF94 Energy>
61.461

$$$$
Compound 6053
Actelion Java MolfileCreator 2.0

  0  0  0  0  0  0              0 V3000
M  V30 BEGIN CTAB
M  V30 COUNTS 21 21 0 0 0
M  V30 BEGIN ATOM
M  V30 1 S -2.3706 -0.8987 -0.1633 0
M  V30 2 O -2.7841 -1.2402 -1.5675 0
M  V30 3 O -2.6025 -2.098 0.7126 0
M  V30 4 C -0.6666 -0.458 -0.1333 0
M  V30 5 C -3.344 0.4668 0.4278 0
M  V30 6 C -0.0768 0.1532 -1.2478 0
M  V30 7 C 0.1032 -0.6971 1.013 0
M  V30 8 C 1.2734 0.5152 -1.2198 0
M  V30 9 C 1.4535 -0.3356 1.0421 0
M  V30 10 C 2.0436 0.2857 -0.0692 0
M  V30 11 C 3.5014 0.6383 -0.0527 0
M  V30 12 H -4.419 0.1927 0.4103 0
M  V30 13 H -3.1779 1.3499 -0.2232 0
M  V30 14 H -3.0433 0.7142 1.4668 0
M  V30 15 H -0.6605 0.3493 -2.1382 0
M  V30 16 H -0.3403 -1.1634 1.8836 0
M  V30 17 H 1.7169 0.9766 -2.0935 0
M  V30 18 H 2.0374 -0.5374 1.9317 0
M  V30 19 H 3.6988 1.5195 -0.6997 0
M  V30 20 H 3.8324 0.8884 0.9778 0
M  V30 21 H 4.0937 -0.2238 -0.4242 0
M  V30 END ATOM
M  V30 BEGIN BOND
M  V30 1 2 1 2
M  V30 2 2 1 3
M  V30 3 1 1 4
M  V30 4 1 1 5
M  V30 5 2 4 6
M  V30 6 1 4 7
M  V30 7 1 6 8
M  V30 8 2 7 9
M  V30 9 2 8 10
M  V30 10 1 10 11
M  V30 11 1 9 10
M  V30 12 1 5 12
M  V30 13 1 5 13
M  V30 14 1 5 14
M  V30 15 1 6 15
M  V30 16 1 7 16
M  V30 17 1 8 17
M  V30 18 1 9 18
M  V30 19 1 11 19
M  V30 20 1 11 20
M  V30 21 1 11 21
M  V30 END BOND
M  V30 END CTAB
M  END
>  <Structure No>
6053

>  <LogS>
-1.9873

>  <MMFF94 Energy>
44.721

$$$$
Compound 6054
Actelion Java MolfileCreator 2.0

  0  0  0  0  0  0              0 V3000
M  V30 BEGIN CTAB
M  V30 COUNTS 18 17 0 0 0
M  V30 BEGIN ATOM
M  V30 1 O -0.7676 -2.4581 0.7676 0
M  V30 2 C 0.1129 -1.7646 0.1925 0
M  V30 3 N -0.0015 -0.3328 0.1243 0
M  V30 4 C -1.1725 0.3544 0.6838 0
M  V30 5 C 1.0599 0.4369 -0.5328 0
M  V30 6 C -2.3588 0.2504 -0.2682 0
M  V30 7 C 2.2825 0.5416 0.3719 0
M  V30 8 H 0.9655 -2.2627 -0.2509 0
M  V30 9 H -1.4383 -0.0852 1.6695 0
M  V30 10 H -0.9459 1.4287 0.8592 0
M  V30 11 H 0.7057 1.462 -0.7782 0
M  V30 12 H 1.3417 -0.051 -1.4911 0
M  V30 13 H -3.2278 0.7946 0.1576 0
M  V30 14 H -2.6432 -0.8119 -0.4189 0
M  V30 15 H -2.0991 0.7014 -1.2492 0
M  V30 16 H 2.0054 1.0311 1.3297 0
M  V30 17 H 2.6949 -0.4673 0.5831 0
M  V30 18 H 3.0658 1.1491 -0.1279 0
M  V30 END ATOM
M  V30 BEGIN BOND
M  V30 1 2 1 2
M  V30 2 1 2 3
M  V30 3 1 3 4
M  V30 4 1 3 5
M  V30 5 1 4 6
M  V30 6 1 5 7
M  V30 7 1 2 8
M  V30 8 1 4 9
M  V30 9 1 4 10
M  V30 10 1 5 11
M  V30 11 1 5 12
M  V30 12 1 6 13
M  V30 13 1 6 14
M  V30 14 1 6 15
M  V30 15 1 7 16
M  V30 16 1 7 17
M  V30 17 1 7 18
M  V30 END BOND
M  V30 END CTAB
M  END
>  <Structure No>
6054

>  <LogS>
0.995

>  <MMFF94 Energy>
-20.528

$$$$
Compound 6055
Actelion Java MolfileCreator 2.0

  0  0  0  0  0  0              0 V3000
M  V30 BEGIN CTAB
M  V30 COUNTS 38 39 0 0 0
M  V30 BEGIN ATOM
M  V30 1 O 2.616 -0.7921 1.5055 0
M  V30 2 C 1.7907 -0.4539 0.613 0
M  V30 3 O 1.7597 0.8611 0.1403 0
M  V30 4 C 0.7686 -1.434 0.0982 0 CFG=1
M  V30 5 C 2.6067 1.8838 0.6513 0
M  V30 6 N 1.3487 -2.7846 -0.0507 0
M  V30 7 C -0.4874 -1.4578 0.9929 0
M  V30 8 C 2.2674 3.2042 -0.0209 0
M  V30 9 C 1.6968 -3.5745 1.1027 0
M  V30 10 C 1.5822 -3.3455 -1.3862 0
M  V30 11 C -1.2138 -0.1426 0.9544 0
M  V30 12 O 2.1626 -4.7379 0.9711 0
M  V30 13 C -2.0348 0.3354 -0.0476 0
M  V30 14 C -1.0826 0.9031 1.8642 0
M  V30 15 C -2.3742 1.6193 0.2955 0
M  V30 16 C -2.4796 -0.2507 -1.2328 0
M  V30 17 N -1.8012 1.9749 1.4586 0
M  V30 18 C -3.1883 2.4042 -0.52 0
M  V30 19 C -3.3059 0.5166 -2.0738 0
M  V30 20 C -3.6595 1.8377 -1.7186 0
M  V30 21 H 0.4463 -1.064 -0.9003 0
M  V30 22 H 3.6692 1.627 0.4498 0
M  V30 23 H 2.455 1.9836 1.7483 0
M  V30 24 H -0.2161 -1.6879 2.0453 0
M  V30 25 H -1.1748 -2.257 0.641 0
M  V30 26 H 2.9222 4.0076 0.3776 0
M  V30 27 H 2.4222 3.1224 -1.1176 0
M  V30 28 H 1.2071 3.4691 0.179 0
M  V30 29 H 1.5662 -3.179 2.1007 0
M  V30 30 H 0.9776 -4.268 -1.5152 0
M  V30 31 H 1.3049 -2.6323 -2.1905 0
M  V30 32 H 2.6582 -3.5936 -1.505 0
M  V30 33 H -0.475 0.8875 2.7597 0
M  V30 34 H -2.1995 -1.2611 -1.5012 0
M  V30 35 H -1.8743 2.8976 1.9422 0
M  V30 36 H -3.4466 3.4183 -0.2435 0
M  V30 37 H -3.6708 0.093 -3.0004 0
M  V30 38 H -4.2936 2.4196 -2.3749 0
M  V30 END ATOM
M  V30 BEGIN BOND
M  V30 1 2 1 2
M  V30 2 1 2 3
M  V30 3 1 2 4
M  V30 4 1 3 5
M  V30 5 1 4 6
M  V30 6 1 4 7
M  V30 7 1 5 8
M  V30 8 1 6 9
M  V30 9 1 6 10
M  V30 10 1 7 11
M  V30 11 2 9 12
M  V30 12 1 11 13
M  V30 13 2 11 14
M  V30 14 2 13 15
M  V30 15 1 13 16
M  V30 16 1 14 17
M  V30 17 1 15 18
M  V30 18 2 16 19
M  V30 19 2 18 20
M  V30 20 1 15 17
M  V30 21 1 19 20
M  V30 22 1 4 21
M  V30 23 1 5 22
M  V30 24 1 5 23
M  V30 25 1 7 24
M  V30 26 1 7 25
M  V30 27 1 8 26
M  V30 28 1 8 27
M  V30 29 1 8 28
M  V30 30 1 9 29
M  V30 31 1 10 30
M  V30 32 1 10 31
M  V30 33 1 10 32
M  V30 34 1 14 33
M  V30 35 1 16 34
M  V30 36 1 17 35
M  V30 37 1 18 36
M  V30 38 1 19 37
M  V30 39 1 20 38
M  V30 END BOND
M  V30 BEGIN COLLECTION
M  V30 MDLV30/STEABS ATOMS=(1 4)
M  V30 END COLLECTION
M  V30 END CTAB
M  END
>  <Structure No>
6055

>  <LogS>
-2.2709

>  <MMFF94 Energy>
32.908

$$$$
Compound 6056
Actelion Java MolfileCreator 2.0

  0  0  0  0  0  0              0 V3000
M  V30 BEGIN CTAB
M  V30 COUNTS 21 21 0 0 0
M  V30 BEGIN ATOM
M  V30 1 S 1.7943 0.163 -1.2231 0
M  V30 2 O 2.6742 -0.3786 -2.3141 0
M  V30 3 O 1.5888 1.6365 -1.4382 0
M  V30 4 N 0.2625 -0.6503 -1.2821 0
M  V30 5 C 2.5621 -0.1325 0.3307 0
M  V30 6 C -0.8403 -0.3664 -0.4017 0
M  V30 7 C 3.7135 0.4588 0.6487 0
M  V30 8 C -0.7726 0.6408 0.5817 0
M  V30 9 C -2.0229 -1.1153 -0.5252 0
M  V30 10 C -1.8659 0.8854 1.419 0
M  V30 11 C -3.1131 -0.8667 0.3139 0
M  V30 12 C -3.0346 0.1328 1.2856 0
M  V30 13 H 0.1551 -1.3998 -2.0018 0
M  V30 14 H 2.0877 -0.8055 1.0377 0
M  V30 15 H 4.2021 1.135 -0.0456 0
M  V30 16 H 4.1747 0.2672 1.6119 0
M  V30 17 H 0.1144 1.2423 0.7121 0
M  V30 18 H -2.0997 -1.8941 -1.2733 0
M  V30 19 H -1.8067 1.6602 2.1724 0
M  V30 20 H -4.0191 -1.4497 0.2106 0
M  V30 21 H -3.8791 0.3244 1.935 0
M  V30 END ATOM
M  V30 BEGIN BOND
M  V30 1 2 1 2
M  V30 2 2 1 3
M  V30 3 1 1 4
M  V30 4 1 1 5
M  V30 5 1 4 6
M  V30 6 2 5 7
M  V30 7 2 6 8
M  V30 8 1 6 9
M  V30 9 1 8 10
M  V30 10 2 9 11
M  V30 11 2 10 12
M  V30 12 1 11 12
M  V30 13 1 4 13
M  V30 14 1 5 14
M  V30 15 1 7 15
M  V30 16 1 7 16
M  V30 17 1 8 17
M  V30 18 1 9 18
M  V30 19 1 10 19
M  V30 20 1 11 20
M  V30 21 1 12 21
M  V30 END BOND
M  V30 END CTAB
M  END
>  <Structure No>
6056

>  <LogS>
-1.4996

>  <MMFF94 Energy>
-34.434

$$$$
Compound 6057
Actelion Java MolfileCreator 2.0

  0  0  0  0  0  0              0 V3000
M  V30 BEGIN CTAB
M  V30 COUNTS 18 18 0 0 0
M  V30 BEGIN ATOM
M  V30 1 O -3.5826 -0.7001 0.3889 0
M  V30 2 N -2.7915 0.1801 -0.2712 0
M  V30 3 C -1.3611 0.1059 -0.1887 0
M  V30 4 C -0.5736 1.0299 -0.8912 0
M  V30 5 C -0.7335 -0.8782 0.5926 0
M  V30 6 C 0.8213 0.9697 -0.819 0
M  V30 7 C 0.6616 -0.9383 0.6648 0
M  V30 8 C 1.4478 -0.0245 -0.0528 0
M  V30 9 C 2.9432 -0.0646 0.0564 0
M  V30 10 H -3.7675 -0.2694 1.2624 0
M  V30 11 H -3.2432 0.9105 -0.8666 0
M  V30 12 H -1.041 1.7999 -1.4921 0
M  V30 13 H -1.3197 -1.5975 1.1498 0
M  V30 14 H 1.4122 1.6979 -1.3609 0
M  V30 15 H 1.1283 -1.6979 1.2797 0
M  V30 16 H 3.2682 0.5694 0.9075 0
M  V30 17 H 3.296 -1.1046 0.2238 0
M  V30 18 H 3.4144 0.3114 -0.8765 0
M  V30 END ATOM
M  V30 BEGIN BOND
M  V30 1 1 1 2
M  V30 2 1 2 3
M  V30 3 2 3 4
M  V30 4 1 3 5
M  V30 5 1 4 6
M  V30 6 2 5 7
M  V30 7 2 6 8
M  V30 8 1 8 9
M  V30 9 1 7 8
M  V30 10 1 1 10
M  V30 11 1 2 11
M  V30 12 1 4 12
M  V30 13 1 5 13
M  V30 14 1 6 14
M  V30 15 1 7 15
M  V30 16 1 9 16
M  V30 17 1 9 17
M  V30 18 1 9 18
M  V30 END BOND
M  V30 END CTAB
M  END
>  <Structure No>
6057

>  <LogS>
-0.7894

>  <MMFF94 Energy>
33.338

$$$$
Compound 6058
Actelion Java MolfileCreator 2.0

  0  0  0  0  0  0              0 V3000
M  V30 BEGIN CTAB
M  V30 COUNTS 15 15 0 0 0
M  V30 BEGIN ATOM
M  V30 1 O -2.8768 -0.9323 0.233 0
M  V30 2 N -2.133 0.1734 -0.0125 0
M  V30 3 C -0.6992 0.1269 0.0011 0
M  V30 4 C -0.0182 -1.0751 0.2624 0
M  V30 5 C 0.0392 1.2943 -0.2492 0
M  V30 6 C 1.3801 -1.1041 0.2719 0
M  V30 7 C 1.4372 1.2608 -0.2388 0
M  V30 8 C 2.1072 0.0626 0.0216 0
M  V30 9 H -3.0376 -1.3332 -0.659 0
M  V30 10 H -2.6244 1.0778 -0.1937 0
M  V30 11 H -0.5646 -1.9884 0.4586 0
M  V30 12 H -0.4682 2.229 -0.4524 0
M  V30 13 H 1.8999 -2.0318 0.4735 0
M  V30 14 H 2.0011 2.1642 -0.4326 0
M  V30 15 H 3.1891 0.0381 0.0293 0
M  V30 END ATOM
M  V30 BEGIN BOND
M  V30 1 1 1 2
M  V30 2 1 2 3
M  V30 3 2 3 4
M  V30 4 1 3 5
M  V30 5 1 4 6
M  V30 6 2 5 7
M  V30 7 2 6 8
M  V30 8 1 7 8
M  V30 9 1 1 9
M  V30 10 1 2 10
M  V30 11 1 4 11
M  V30 12 1 5 12
M  V30 13 1 6 13
M  V30 14 1 7 14
M  V30 15 1 8 15
M  V30 END BOND
M  V30 END CTAB
M  END
>  <Structure No>
6058

>  <LogS>
-0.4359

>  <MMFF94 Energy>
31.266

$$$$
Compound 6059
Actelion Java MolfileCreator 2.0

  0  0  0  0  0  0              0 V3000
M  V30 BEGIN CTAB
M  V30 COUNTS 16 15 0 0 0
M  V30 BEGIN ATOM
M  V30 1 Cl 2.1526 1.4634 0.9467 0
M  V30 2 C 2.4365 -0.2522 0.5507 0
M  V30 3 C 1.4585 -0.7498 -0.5108 0
M  V30 4 S -0.221 -0.869 0.1559 0
M  V30 5 O -0.8329 -2.0295 -0.6181 0
M  V30 6 C -1.0911 0.578 -0.4977 0
M  V30 7 C -2.5158 0.6538 0.0445 0
M  V30 8 Cl -2.5172 0.9985 1.7952 0
M  V30 9 H 2.3457 -0.8639 1.4732 0
M  V30 10 H 3.4736 -0.3514 0.1664 0
M  V30 11 H 1.7805 -1.7601 -0.8412 0
M  V30 12 H 1.4752 -0.0771 -1.3947 0
M  V30 13 H -0.5396 1.5015 -0.2243 0
M  V30 14 H -1.1237 0.5083 -1.6058 0
M  V30 15 H -3.0526 -0.2994 -0.1455 0
M  V30 16 H -3.0607 1.4715 -0.4723 0
M  V30 END ATOM
M  V30 BEGIN BOND
M  V30 1 1 1 2
M  V30 2 1 2 3
M  V30 3 1 3 4
M  V30 4 2 4 5
M  V30 5 1 4 6
M  V30 6 1 6 7
M  V30 7 1 7 8
M  V30 8 1 2 9
M  V30 9 1 2 10
M  V30 10 1 3 11
M  V30 11 1 3 12
M  V30 12 1 6 13
M  V30 13 1 6 14
M  V30 14 1 7 15
M  V30 15 1 7 16
M  V30 END BOND
M  V30 END CTAB
M  END
>  <Structure No>
6059

>  <LogS>
-1.1641

>  <MMFF94 Energy>
6.8744

$$$$
Compound 6060
Actelion Java MolfileCreator 2.0

  0  0  0  0  0  0              0 V3000
M  V30 BEGIN CTAB
M  V30 COUNTS 17 16 0 0 0
M  V30 BEGIN ATOM
M  V30 1 S -0.1619 0.4859 0.81 0
M  V30 2 O -0.9287 1.7087 1.2292 0
M  V30 3 O -0.0346 -0.4428 1.9851 0
M  V30 4 C -1.0343 -0.3373 -0.5147 0
M  V30 5 C 1.4632 0.9885 0.2636 0
M  V30 6 C -2.4649 -0.664 -0.1052 0
M  V30 7 C 2.3309 -0.2155 -0.0809 0
M  V30 8 H -0.5049 -1.2779 -0.7732 0
M  V30 9 H -1.0459 0.3228 -1.4074 0
M  V30 10 H 1.3607 1.6401 -0.6296 0
M  V30 11 H 1.95 1.5721 1.0734 0
M  V30 12 H -2.98 -1.1844 -0.9396 0
M  V30 13 H -2.4685 -1.3284 0.7845 0
M  V30 14 H -3.0217 0.2678 0.129 0
M  V30 15 H 3.3432 0.131 -0.377 0
M  V30 16 H 1.8911 -0.7803 -0.9289 0
M  V30 17 H 2.4294 -0.8862 0.7986 0
M  V30 END ATOM
M  V30 BEGIN BOND
M  V30 1 2 1 2
M  V30 2 2 1 3
M  V30 3 1 1 4
M  V30 4 1 1 5
M  V30 5 1 4 6
M  V30 6 1 5 7
M  V30 7 1 4 8
M  V30 8 1 4 9
M  V30 9 1 5 10
M  V30 10 1 5 11
M  V30 11 1 6 12
M  V30 12 1 6 13
M  V30 13 1 6 14
M  V30 14 1 7 15
M  V30 15 1 7 16
M  V30 16 1 7 17
M  V30 END BOND
M  V30 END CTAB
M  END
>  <Structure No>
6060

>  <LogS>
0.0433

>  <MMFF94 Energy>
-1.8677

$$$$
Compound 6061
Actelion Java MolfileCreator 2.0

  0  0  0  0  0  0              0 V3000
M  V30 BEGIN CTAB
M  V30 COUNTS 22 22 0 0 0
M  V30 BEGIN ATOM
M  V30 1 S 0.4085 -0.4903 0.899 0
M  V30 2 O 0.5263 -1.9723 1.1282 0
M  V30 3 O 0.5578 0.2226 2.2151 0
M  V30 4 O 1.5896 0.0352 -0.1965 0
M  V30 5 C -1.1768 -0.1328 0.2233 0
M  V30 6 C 2.8571 -0.2501 0.3431 0
M  V30 7 C -1.791 1.1022 0.479 0
M  V30 8 C -1.8222 -1.0701 -0.5967 0
M  V30 9 C 3.9292 0.2161 -0.6294 0
M  V30 10 C -3.045 1.3901 -0.0693 0
M  V30 11 C -3.0762 -0.7793 -1.1438 0
M  V30 12 C -3.688 0.4495 -0.8791 0
M  V30 13 H 3.0057 0.2861 1.3069 0
M  V30 14 H 2.9823 -1.3448 0.4992 0
M  V30 15 H -1.3001 1.8415 1.099 0
M  V30 16 H -1.3557 -2.0223 -0.8144 0
M  V30 17 H 4.9351 -0.0042 -0.2136 0
M  V30 18 H 3.8406 1.3105 -0.797 0
M  V30 19 H 3.8173 -0.3116 -1.6003 0
M  V30 20 H -3.5172 2.3432 0.1315 0
M  V30 21 H -3.5725 -1.5055 -1.7744 0
M  V30 22 H -4.6581 0.6737 -1.3037 0
M  V30 END ATOM
M  V30 BEGIN BOND
M  V30 1 2 1 2
M  V30 2 2 1 3
M  V30 3 1 1 4
M  V30 4 1 1 5
M  V30 5 1 4 6
M  V30 6 2 5 7
M  V30 7 1 5 8
M  V30 8 1 6 9
M  V30 9 1 7 10
M  V30 10 2 8 11
M  V30 11 2 10 12
M  V30 12 1 11 12
M  V30 13 1 6 13
M  V30 14 1 6 14
M  V30 15 1 7 15
M  V30 16 1 8 16
M  V30 17 1 9 17
M  V30 18 1 9 18
M  V30 19 1 9 19
M  V30 20 1 10 20
M  V30 21 1 11 21
M  V30 22 1 12 22
M  V30 END BOND
M  V30 END CTAB
M  END
>  <Structure No>
6061

>  <LogS>
-2.1308

>  <MMFF94 Energy>
17.037

$$$$
Compound 6062
Actelion Java MolfileCreator 2.0

  0  0  0  0  0  0              0 V3000
M  V30 BEGIN CTAB
M  V30 COUNTS 19 19 0 0 0
M  V30 BEGIN ATOM
M  V30 1 S 1.3995 1.2348 0.4937 0
M  V30 2 O 2.0564 0.7863 1.7709 0
M  V30 3 O 1.2172 2.7251 0.5592 0
M  V30 4 O 2.3885 0.8636 -0.8318 0
M  V30 5 C -0.1859 0.4832 0.3206 0
M  V30 6 C 2.5973 -0.5259 -0.8576 0
M  V30 7 C -1.0915 0.9789 -0.6281 0
M  V30 8 C -0.5429 -0.6221 1.1078 0
M  V30 9 C -2.3463 0.3805 -0.7818 0
M  V30 10 C -1.7983 -1.2187 0.9515 0
M  V30 11 C -2.6999 -0.7171 0.0081 0
M  V30 12 H 3.0977 -0.8774 0.0707 0
M  V30 13 H 1.6431 -1.0719 -1.0204 0
M  V30 14 H 3.267 -0.7657 -1.7085 0
M  V30 15 H -0.8251 1.8255 -1.2482 0
M  V30 16 H 0.1479 -1.025 1.837 0
M  V30 17 H -3.0435 0.7664 -1.5144 0
M  V30 18 H -2.0714 -2.0711 1.5603 0
M  V30 19 H -3.6708 -1.1802 -0.1122 0
M  V30 END ATOM
M  V30 BEGIN BOND
M  V30 1 2 1 2
M  V30 2 2 1 3
M  V30 3 1 1 4
M  V30 4 1 1 5
M  V30 5 1 4 6
M  V30 6 2 5 7
M  V30 7 1 5 8
M  V30 8 1 7 9
M  V30 9 2 8 10
M  V30 10 2 9 11
M  V30 11 1 10 11
M  V30 12 1 6 12
M  V30 13 1 6 13
M  V30 14 1 6 14
M  V30 15 1 7 15
M  V30 16 1 8 16
M  V30 17 1 9 17
M  V30 18 1 10 18
M  V30 19 1 11 19
M  V30 END BOND
M  V30 END CTAB
M  END
>  <Structure No>
6062

>  <LogS>
-1.7419

>  <MMFF94 Energy>
17.892

$$$$
Compound 6063
Actelion Java MolfileCreator 2.0

  0  0  0  0  0  0              0 V3000
M  V30 BEGIN CTAB
M  V30 COUNTS 44 46 0 0 0
M  V30 BEGIN ATOM
M  V30 1 Cl -4.6679 0.6658 -2.999 0
M  V30 2 C -4.3608 1.2058 -1.3503 0
M  V30 3 C -3.3036 0.6847 -0.5665 0
M  V30 4 C -5.2393 2.148 -0.8003 0
M  V30 5 C -2.336 -0.3021 -1.1072 0
M  V30 6 C -3.1623 1.1272 0.7629 0
M  V30 7 C -5.0819 2.5788 0.5191 0
M  V30 8 O -1.9878 -0.2488 -2.3159 0
M  V30 9 C -1.779 -1.3685 -0.2561 0
M  V30 10 C -4.045 2.0663 1.2999 0
M  V30 11 Cl -6.1907 3.7573 1.197 0
M  V30 12 C -0.4699 -1.823 -0.172 0
M  V30 13 C -2.4993 -2.2713 0.5174 0
M  V30 14 O 0.689 -1.2619 -0.7216 0
M  V30 15 N -0.4494 -2.9313 0.5918 0
M  V30 16 N -1.6681 -3.1992 1.0329 0
M  V30 17 C -3.975 -2.2652 0.7583 0
M  V30 18 S 0.9417 0.4162 -0.9343 0
M  V30 19 C 0.7384 -3.6731 0.9936 0
M  V30 20 O 0.5231 0.8143 -2.321 0
M  V30 21 O 0.1577 1.1972 0.0822 0
M  V30 22 C 2.6528 0.7624 -0.7252 0
M  V30 23 C 3.2248 1.8862 -1.336 0
M  V30 24 C 3.4486 -0.0762 0.0659 0
M  V30 25 C 4.5836 2.1659 -1.1625 0
M  V30 26 C 4.8074 0.2022 0.2402 0
M  V30 27 C 5.3805 1.3331 -0.3617 0
M  V30 28 C 6.8466 1.6075 -0.2043 0
M  V30 29 H -6.0525 2.5406 -1.3981 0
M  V30 30 H -2.3607 0.7521 1.3869 0
M  V30 31 H -3.9198 2.3965 2.3235 0
M  V30 32 H -4.2265 -1.4915 1.5129 0
M  V30 33 H -4.5154 -2.0492 -0.1869 0
M  V30 34 H -4.3032 -3.2563 1.1363 0
M  V30 35 H 0.4504 -4.6702 1.3888 0
M  V30 36 H 1.2782 -3.1104 1.7837 0
M  V30 37 H 1.4101 -3.8168 0.1209 0
M  V30 38 H 2.6204 2.5446 -1.9469 0
M  V30 39 H 3.0198 -0.9459 0.5473 0
M  V30 40 H 5.0126 3.0322 -1.6504 0
M  V30 41 H 5.4119 -0.4614 0.8461 0
M  V30 42 H 7.4154 1.013 -0.9492 0
M  V30 43 H 7.0669 2.6856 -0.3578 0
M  V30 44 H 7.1849 1.3299 0.8165 0
M  V30 END ATOM
M  V30 BEGIN BOND
M  V30 1 1 1 2
M  V30 2 2 2 3
M  V30 3 1 2 4
M  V30 4 1 3 5
M  V30 5 1 3 6
M  V30 6 2 4 7
M  V30 7 2 5 8
M  V30 8 1 5 9
M  V30 9 2 6 10
M  V30 10 1 7 11
M  V30 11 2 9 12
M  V30 12 1 9 13
M  V30 13 1 12 14
M  V30 14 1 12 15
M  V30 15 2 13 16
M  V30 16 1 13 17
M  V30 17 1 14 18
M  V30 18 1 15 19
M  V30 19 2 18 20
M  V30 20 2 18 21
M  V30 21 1 18 22
M  V30 22 2 22 23
M  V30 23 1 22 24
M  V30 24 1 23 25
M  V30 25 2 24 26
M  V30 26 2 25 27
M  V30 27 1 27 28
M  V30 28 1 7 10
M  V30 29 1 15 16
M  V30 30 1 26 27
M  V30 31 1 4 29
M  V30 32 1 6 30
M  V30 33 1 10 31
M  V30 34 1 17 32
M  V30 35 1 17 33
M  V30 36 1 17 34
M  V30 37 1 19 35
M  V30 38 1 19 36
M  V30 39 1 19 37
M  V30 40 1 23 38
M  V30 41 1 24 39
M  V30 42 1 25 40
M  V30 43 1 26 41
M  V30 44 1 28 42
M  V30 45 1 28 43
M  V30 46 1 28 44
M  V30 END BOND
M  V30 END CTAB
M  END
>  <Structure No>
6063

>  <LogS>
-6.8946

>  <MMFF94 Energy>
107.53

$$$$
Compound 6064
Actelion Java MolfileCreator 2.0

  0  0  0  0  0  0              0 V3000
M  V30 BEGIN CTAB
M  V30 COUNTS 27 28 0 0 0
M  V30 BEGIN ATOM
M  V30 1 Cl 4.9162 2.4975 1.7478 0
M  V30 2 C 3.7578 1.5 0.8878 0
M  V30 3 C 3.1776 1.9641 -0.2977 0
M  V30 4 C 3.4094 0.241 1.3888 0
M  V30 5 C 2.2528 1.17 -0.983 0
M  V30 6 C 2.4848 -0.5542 0.7046 0
M  V30 7 C 1.9082 -0.0958 -0.4884 0
M  V30 8 S 0.7261 -1.0849 -1.3363 0
M  V30 9 O 0.7931 -0.8106 -2.8131 0
M  V30 10 O 1.0261 -2.542 -1.1185 0
M  V30 11 C -0.8806 -0.706 -0.7282 0
M  V30 12 C -1.4011 -1.404 0.3698 0
M  V30 13 C -1.6329 0.3194 -1.3169 0
M  V30 14 C -2.67 -1.0894 0.866 0
M  V30 15 C -2.9019 0.6342 -0.821 0
M  V30 16 C -3.4273 -0.0696 0.2719 0
M  V30 17 N -4.7246 0.2528 0.7798 0
M  V30 18 H 3.4396 2.9397 -0.6867 0
M  V30 19 H 3.8513 -0.1204 2.3086 0
M  V30 20 H 1.8038 1.5434 -1.8945 0
M  V30 21 H 2.2163 -1.5228 1.1066 0
M  V30 22 H -0.8244 -2.1878 0.8444 0
M  V30 23 H -1.2368 0.8776 -2.1556 0
M  V30 24 H -3.0616 -1.6374 1.7137 0
M  V30 25 H -3.4739 1.4275 -1.2858 0
M  V30 26 H -5.2956 1.0116 0.3449 0
M  V30 27 H -5.1239 -0.2649 1.5943 0
M  V30 END ATOM
M  V30 BEGIN BOND
M  V30 1 1 1 2
M  V30 2 2 2 3
M  V30 3 1 2 4
M  V30 4 1 3 5
M  V30 5 2 4 6
M  V30 6 2 5 7
M  V30 7 1 7 8
M  V30 8 2 8 9
M  V30 9 2 8 10
M  V30 10 1 8 11
M  V30 11 2 11 12
M  V30 12 1 11 13
M  V30 13 1 12 14
M  V30 14 2 13 15
M  V30 15 2 14 16
M  V30 16 1 16 17
M  V30 17 1 6 7
M  V30 18 1 15 16
M  V30 19 1 3 18
M  V30 20 1 4 19
M  V30 21 1 5 20
M  V30 22 1 6 21
M  V30 23 1 12 22
M  V30 24 1 13 23
M  V30 25 1 14 24
M  V30 26 1 15 25
M  V30 27 1 17 26
M  V30 28 1 17 27
M  V30 END BOND
M  V30 END CTAB
M  END
>  <Structure No>
6064

>  <LogS>
-4.1267

>  <MMFF94 Energy>
76.295

$$$$
Compound 6065
Actelion Java MolfileCreator 2.0

  0  0  0  0  0  0              0 V3000
M  V30 BEGIN CTAB
M  V30 COUNTS 31 32 0 0 0
M  V30 BEGIN ATOM
M  V30 1 S 0.0823 -0.494 -1.6474 0
M  V30 2 O 0.5577 -1.8753 -2.0018 0
M  V30 3 O -0.5185 0.1363 -2.8728 0
M  V30 4 C -1.1813 -0.5581 -0.4033 0
M  V30 5 C 1.4949 0.4454 -1.1143 0
M  V30 6 C -2.2022 -1.5405 -0.422 0
M  V30 7 C -1.1704 0.3974 0.6277 0
M  V30 8 C 2.1984 0.1737 0.0963 0
M  V30 9 C 1.902 1.5291 -1.913 0
M  V30 10 N -2.3355 -2.4756 -1.5007 0
M  V30 11 C -3.1336 -1.5862 0.6265 0
M  V30 12 C -2.1123 0.3487 1.6625 0
M  V30 13 C 1.8635 -0.9471 1.0106 0
M  V30 14 C 3.2607 1.0193 0.469 0
M  V30 15 C 2.9672 2.3423 -1.5281 0
M  V30 16 C -3.0867 -0.6533 1.6627 0
M  V30 17 N -2.0758 1.3167 2.715 0
M  V30 18 O 1.3619 -2.0168 0.5797 0
M  V30 19 O 2.1455 -0.8422 2.3679 0 CHG=-1
M  V30 20 C 3.642 2.0909 -0.3376 0
M  V30 21 H -0.4257 1.1819 0.6355 0
M  V30 22 H 1.3905 1.7573 -2.8385 0
M  V30 23 H -1.8434 -2.3494 -2.4104 0
M  V30 24 H -3.0287 -3.2547 -1.4408 0
M  V30 25 H -3.9122 -2.339 0.6312 0
M  V30 26 H 3.8122 0.8427 1.3844 0
M  V30 27 H 3.266 3.1741 -2.153 0
M  V30 28 H -3.8193 -0.7032 2.4586 0
M  V30 29 H -2.7736 1.2887 3.4916 0
M  V30 30 H -1.3498 2.0674 2.7265 0
M  V30 31 H 4.466 2.7262 -0.0393 0
M  V30 END ATOM
M  V30 BEGIN BOND
M  V30 1 2 1 2
M  V30 2 2 1 3
M  V30 3 1 1 4
M  V30 4 1 1 5
M  V30 5 2 4 6
M  V30 6 1 4 7
M  V30 7 2 5 8
M  V30 8 1 5 9
M  V30 9 1 6 10
M  V30 10 1 6 11
M  V30 11 2 7 12
M  V30 12 1 8 13
M  V30 13 1 8 14
M  V30 14 2 9 15
M  V30 15 2 11 16
M  V30 16 1 12 17
M  V30 17 2 13 18
M  V30 18 1 13 19
M  V30 19 2 14 20
M  V30 20 1 12 16
M  V30 21 1 15 20
M  V30 22 1 7 21
M  V30 23 1 9 22
M  V30 24 1 10 23
M  V30 25 1 10 24
M  V30 26 1 11 25
M  V30 27 1 14 26
M  V30 28 1 15 27
M  V30 29 1 16 28
M  V30 30 1 17 29
M  V30 31 1 17 30
M  V30 32 1 20 31
M  V30 END BOND
M  V30 END CTAB
M  END
>  <Structure No>
6065

>  <LogS>
-1.8395

>  <MMFF94 Energy>
72.784

$$$$
Compound 6066
Actelion Java MolfileCreator 2.0

  0  0  0  0  0  0              0 V3000
M  V30 BEGIN CTAB
M  V30 COUNTS 34 35 0 0 0
M  V30 BEGIN ATOM
M  V30 1 S -1.3826 -2.278 0.0 0
M  V30 2 O -1.5084 -3.1291 -1.2329 0
M  V30 3 O -1.5737 -3.1639 1.1998 0
M  V30 4 C 0.2091 -1.5307 0.0531 0
M  V30 5 C -2.608 -1.0158 -0.0145 0
M  V30 6 C 0.8125 -1.2445 1.2842 0
M  V30 7 C 0.8691 -1.1944 -1.1354 0
M  V30 8 C -3.0525 -0.4796 -1.2307 0
M  V30 9 C -3.1189 -0.5157 1.1909 0
M  V30 10 C 2.0689 -0.6334 1.3264 0
M  V30 11 C 2.1253 -0.582 -1.0945 0
M  V30 12 C -4.0116 0.5379 -1.2419 0
M  V30 13 C -4.0781 0.5016 1.1799 0
M  V30 14 C 2.7292 -0.2806 0.1398 0
M  V30 15 C -4.5303 1.0324 -0.0366 0
M  V30 16 N 4.0302 0.328 0.2114 0
M  V30 17 N -5.5104 2.0737 -0.0479 0
M  V30 18 C 4.5244 1.2876 -0.7356 0
M  V30 19 O 3.7449 1.8417 -1.5568 0
M  V30 20 C 5.9563 1.7105 -0.6863 0
M  V30 21 H 0.3107 -1.4917 2.2112 0
M  V30 22 H 0.4142 -1.4098 -2.0939 0
M  V30 23 H -2.6547 -0.8452 -2.1688 0
M  V30 24 H -2.7729 -0.9095 2.138 0
M  V30 25 H 2.5242 -0.4219 2.2859 0
M  V30 26 H 2.6305 -0.3675 -2.0265 0
M  V30 27 H -4.3483 0.9424 -2.1883 0
M  V30 28 H -4.4664 0.8779 2.1181 0
M  V30 29 H 4.6228 0.1236 1.048 0
M  V30 30 H -5.8523 2.4764 -0.9489 0
M  V30 31 H -5.9015 2.4496 0.8447 0
M  V30 32 H 6.2656 2.1418 -1.662 0
M  V30 33 H 6.089 2.4738 0.1083 0
M  V30 34 H 6.6018 0.8351 -0.4641 0
M  V30 END ATOM
M  V30 BEGIN BOND
M  V30 1 2 1 2
M  V30 2 2 1 3
M  V30 3 1 1 4
M  V30 4 1 1 5
M  V30 5 2 4 6
M  V30 6 1 4 7
M  V30 7 2 5 8
M  V30 8 1 5 9
M  V30 9 1 6 10
M  V30 10 2 7 11
M  V30 11 1 8 12
M  V30 12 2 9 13
M  V30 13 2 10 14
M  V30 14 2 12 15
M  V30 15 1 14 16
M  V30 16 1 15 17
M  V30 17 1 16 18
M  V30 18 2 18 19
M  V30 19 1 18 20
M  V30 20 1 11 14
M  V30 21 1 13 15
M  V30 22 1 6 21
M  V30 23 1 7 22
M  V30 24 1 8 23
M  V30 25 1 9 24
M  V30 26 1 10 25
M  V30 27 1 11 26
M  V30 28 1 12 27
M  V30 29 1 13 28
M  V30 30 1 16 29
M  V30 31 1 17 30
M  V30 32 1 17 31
M  V30 33 1 20 32
M  V30 34 1 20 33
M  V30 35 1 20 34
M  V30 END BOND
M  V30 END CTAB
M  END
>  <Structure No>
6066

>  <LogS>
-3.6116

>  <MMFF94 Energy>
60.179

$$$$
Compound 6067
Actelion Java MolfileCreator 2.0

  0  0  0  0  0  0              0 V3000
M  V30 BEGIN CTAB
M  V30 COUNTS 29 28 0 0 0
M  V30 BEGIN ATOM
M  V30 1 S 4.534 -1.6175 -0.0808 0
M  V30 2 O 4.7072 -2.2078 1.2902 0
M  V30 3 O 5.1893 -2.5187 -1.0881 0
M  V30 4 N 2.8479 -1.4862 -0.4526 0 CHG=-1
M  V30 5 N 5.2745 -0.0568 -0.1478 0
M  V30 6 C 1.9184 -0.828 0.4079 0
M  V30 7 O 2.3061 -0.3216 1.4964 0
M  V30 8 O 0.5769 -0.7526 0.028 0
M  V30 9 C -0.4136 -0.108 0.8233 0
M  V30 10 C -1.7859 -0.1688 0.1193 0
M  V30 11 C -2.9468 -5.0E-4 1.1304 0
M  V30 12 C -1.9015 0.8493 -1.0429 0
M  V30 13 C -2.966 1.3513 1.8498 0
M  V30 14 C -1.0303 0.4892 -2.2467 0
M  V30 15 H 4.8145 0.5337 0.5804 0
M  V30 16 H 5.0254 0.3584 -1.0733 0
M  V30 17 H -0.1185 0.9487 1.0044 0
M  V30 18 H -0.4682 -0.6291 1.8044 0
M  V30 19 H -1.9018 -1.1913 -0.3054 0
M  V30 20 H -3.9159 -0.1347 0.602 0
M  V30 21 H -2.8862 -0.8067 1.8938 0
M  V30 22 H -1.6268 1.869 -0.6966 0
M  V30 23 H -2.9564 0.8855 -1.3926 0
M  V30 24 H -3.1104 2.1816 1.1284 0
M  V30 25 H -3.812 1.3708 2.5686 0
M  V30 26 H -2.027 1.5112 2.4188 0
M  V30 27 H -1.2061 -0.5621 -2.5579 0
M  V30 28 H -1.2854 1.1549 -3.098 0
M  V30 29 H 0.0437 0.6356 -2.0118 0
M  V30 END ATOM
M  V30 BEGIN BOND
M  V30 1 2 1 2
M  V30 2 2 1 3
M  V30 3 1 1 4
M  V30 4 1 1 5
M  V30 5 1 4 6
M  V30 6 2 6 7
M  V30 7 1 6 8
M  V30 8 1 8 9
M  V30 9 1 9 10
M  V30 10 1 10 11
M  V30 11 1 10 12
M  V30 12 1 11 13
M  V30 13 1 12 14
M  V30 14 1 5 15
M  V30 15 1 5 16
M  V30 16 1 9 17
M  V30 17 1 9 18
M  V30 18 1 10 19
M  V30 19 1 11 20
M  V30 20 1 11 21
M  V30 21 1 12 22
M  V30 22 1 12 23
M  V30 23 1 13 24
M  V30 24 1 13 25
M  V30 25 1 13 26
M  V30 26 1 14 27
M  V30 27 1 14 28
M  V30 28 1 14 29
M  V30 END BOND
M  V30 END CTAB
M  END
>  <Structure No>
6067

>  <LogS>
-1.7487

>  <MMFF94 Energy>
-113.07

$$$$
Compound 6068
Actelion Java MolfileCreator 2.0

  0  0  0  0  0  0              0 V3000
M  V30 BEGIN CTAB
M  V30 COUNTS 23 22 0 0 0
M  V30 BEGIN ATOM
M  V30 1 S 3.9134 0.4071 1.5476 0
M  V30 2 O 4.535 1.6183 0.9117 0
M  V30 3 O 4.288 0.3658 3.0022 0
M  V30 4 N 2.1905 0.4971 1.4087 0 CHG=-1
M  V30 5 N 4.4863 -1.0254 0.7678 0
M  V30 6 C 1.5252 0.5139 0.1461 0
M  V30 7 O 2.1908 0.4668 -0.9246 0
M  V30 8 O 0.1308 0.5828 0.1131 0
M  V30 9 C -0.6093 0.6012 -1.1042 0
M  V30 10 C -2.107 0.6775 -0.8077 0
M  V30 11 C -2.6061 -0.5806 -0.0857 0
M  V30 12 C -4.1059 -0.5017 0.1835 0
M  V30 13 H 4.0436 -1.8358 1.256 0
M  V30 14 H 5.5127 -1.0849 0.9527 0
M  V30 15 H -0.3144 1.4917 -1.7008 0
M  V30 16 H -0.3867 -0.3127 -1.6974 0
M  V30 17 H -2.3094 1.5758 -0.1839 0
M  V30 18 H -2.6534 0.792 -1.7694 0
M  V30 19 H -2.3998 -1.4776 -0.7091 0
M  V30 20 H -2.0747 -0.6958 0.8837 0
M  V30 21 H -4.3371 0.3746 0.8259 0
M  V30 22 H -4.6657 -0.4143 -0.7719 0
M  V30 23 H -4.4386 -1.4229 0.7066 0
M  V30 END ATOM
M  V30 BEGIN BOND
M  V30 1 2 1 2
M  V30 2 2 1 3
M  V30 3 1 1 4
M  V30 4 1 1 5
M  V30 5 1 4 6
M  V30 6 2 6 7
M  V30 7 1 6 8
M  V30 8 1 8 9
M  V30 9 1 9 10
M  V30 10 1 10 11
M  V30 11 1 11 12
M  V30 12 1 5 13
M  V30 13 1 5 14
M  V30 14 1 9 15
M  V30 15 1 9 16
M  V30 16 1 10 17
M  V30 17 1 10 18
M  V30 18 1 11 19
M  V30 19 1 11 20
M  V30 20 1 12 21
M  V30 21 1 12 22
M  V30 22 1 12 23
M  V30 END BOND
M  V30 END CTAB
M  END
>  <Structure No>
6068

>  <LogS>
-1.0375

>  <MMFF94 Energy>
-117.9

$$$$
Compound 6069
Actelion Java MolfileCreator 2.0

  0  0  0  0  0  0              0 V3000
M  V30 BEGIN CTAB
M  V30 COUNTS 35 34 0 0 0
M  V30 BEGIN ATOM
M  V30 1 S 5.6391 0.8041 0.1607 0
M  V30 2 O 6.5241 0.8816 1.3721 0
M  V30 3 O 6.0714 -0.3584 -0.6877 0
M  V30 4 N 4.0001 0.5777 0.672 0 CHG=-1
M  V30 5 N 5.7774 2.2737 -0.7391 0
M  V30 6 C 2.9383 0.3071 -0.2429 0
M  V30 7 O 3.1707 0.2151 -1.4793 0
M  V30 8 O 1.6419 0.1444 0.2498 0
M  V30 9 C 0.5269 -0.1303 -0.594 0
M  V30 10 C -0.7599 -0.2633 0.2426 0 CFG=1
M  V30 11 C -1.9755 -0.4797 -0.6956 0
M  V30 12 C -0.626 -1.3384 1.3551 0
M  V30 13 C -3.344 -0.583 0.0092 0
M  V30 14 C -0.4718 -2.7731 0.8435 0
M  V30 15 C -3.7219 0.6311 0.8758 0
M  V30 16 C -3.8252 1.9275 0.0735 0
M  V30 17 H 5.1722 2.1752 -1.5843 0
M  V30 18 H 5.3563 3.0295 -0.1538 0
M  V30 19 H 0.4098 0.7077 -1.3162 0
M  V30 20 H 0.7134 -1.0588 -1.1748 0
M  V30 21 H -0.8949 0.7153 0.7518 0
M  V30 22 H -1.8222 -1.4031 -1.2939 0
M  V30 23 H -2.0195 0.3515 -1.4318 0
M  V30 24 H 0.2505 -1.0986 1.9945 0
M  V30 25 H -1.5089 -1.2929 2.0265 0
M  V30 26 H -4.1264 -0.7205 -0.7687 0
M  V30 27 H -3.3711 -1.497 0.6389 0
M  V30 28 H -1.3603 -3.0858 0.2582 0
M  V30 29 H -0.3769 -3.46 1.7107 0
M  V30 30 H 0.4416 -2.8789 0.2238 0
M  V30 31 H -4.7125 0.4296 1.3381 0
M  V30 32 H -2.9988 0.7611 1.7077 0
M  V30 33 H -4.2391 2.7298 0.7202 0
M  V30 34 H -2.8238 2.2513 -0.278 0
M  V30 35 H -4.4999 1.7925 -0.7983 0
M  V30 END ATOM
M  V30 BEGIN BOND
M  V30 1 2 1 2
M  V30 2 2 1 3
M  V30 3 1 1 4
M  V30 4 1 1 5
M  V30 5 1 4 6
M  V30 6 2 6 7
M  V30 7 1 6 8
M  V30 8 1 8 9
M  V30 9 1 9 10
M  V30 10 1 10 11
M  V30 11 1 10 12
M  V30 12 1 11 13
M  V30 13 1 12 14
M  V30 14 1 13 15
M  V30 15 1 15 16
M  V30 16 1 5 17
M  V30 17 1 5 18
M  V30 18 1 9 19
M  V30 19 1 9 20
M  V30 20 1 10 21
M  V30 21 1 11 22
M  V30 22 1 11 23
M  V30 23 1 12 24
M  V30 24 1 12 25
M  V30 25 1 13 26
M  V30 26 1 13 27
M  V30 27 1 14 28
M  V30 28 1 14 29
M  V30 29 1 14 30
M  V30 30 1 15 31
M  V30 31 1 15 32
M  V30 32 1 16 33
M  V30 33 1 16 34
M  V30 34 1 16 35
M  V30 END BOND
M  V30 BEGIN COLLECTION
M  V30 MDLV30/STEABS ATOMS=(1 10)
M  V30 END COLLECTION
M  V30 END CTAB
M  END
>  <Structure No>
6069

>  <LogS>
-2.402

>  <MMFF94 Energy>
-116.21

$$$$
Compound 6070
Actelion Java MolfileCreator 2.0

  0  0  0  0  0  0              0 V3000
M  V30 BEGIN CTAB
M  V30 COUNTS 27 28 0 0 0
M  V30 BEGIN ATOM
M  V30 1 S -0.6634 -1.2441 1.7421 0
M  V30 2 O -1.0129 -0.6916 3.0951 0
M  V30 3 O -1.4461 -2.4985 1.4743 0
M  V30 4 N -1.0169 -0.0688 0.5265 0
M  V30 5 N 1.0142 -1.6002 1.6908 0 CHG=-1
M  V30 6 C 0.046 0.4318 -0.3156 0
M  V30 7 C -2.4183 0.3786 0.4021 0
M  V30 8 C 1.9018 -0.9808 0.7633 0
M  V30 9 O -0.2276 1.2898 -1.1989 0
M  V30 10 C 1.467 -0.0216 -0.1897 0
M  V30 11 C -2.5586 1.8752 0.7045 0
M  V30 12 C -3.0051 0.0127 -0.9662 0
M  V30 13 C 3.2518 -1.353 0.8174 0
M  V30 14 C 2.4297 0.5317 -1.0637 0
M  V30 15 C 4.1811 -0.7919 -0.0561 0
M  V30 16 C 3.7704 0.1492 -0.9956 0
M  V30 17 H -3.0374 -0.1524 1.1598 0
M  V30 18 H -3.6338 2.1456 0.7771 0
M  V30 19 H -2.0735 2.1104 1.6757 0
M  V30 20 H -2.0986 2.4996 -0.0878 0
M  V30 21 H -2.5511 0.6116 -1.7814 0
M  V30 22 H -4.1002 0.1997 -0.9684 0
M  V30 23 H -2.8348 -1.0652 -1.1728 0
M  V30 24 H 3.5833 -2.0844 1.5443 0
M  V30 25 H 2.1501 1.2665 -1.8082 0
M  V30 26 H 5.2211 -1.0876 -0.0043 0
M  V30 27 H 4.4924 0.585 -1.6742 0
M  V30 END ATOM
M  V30 BEGIN BOND
M  V30 1 2 1 2
M  V30 2 2 1 3
M  V30 3 1 1 4
M  V30 4 1 1 5
M  V30 5 1 4 6
M  V30 6 1 4 7
M  V30 7 1 5 8
M  V30 8 2 6 9
M  V30 9 1 6 10
M  V30 10 1 7 11
M  V30 11 1 7 12
M  V30 12 1 8 13
M  V30 13 1 10 14
M  V30 14 2 13 15
M  V30 15 2 14 16
M  V30 16 2 8 10
M  V30 17 1 15 16
M  V30 18 1 7 17
M  V30 19 1 11 18
M  V30 20 1 11 19
M  V30 21 1 11 20
M  V30 22 1 12 21
M  V30 23 1 12 22
M  V30 24 1 12 23
M  V30 25 1 13 24
M  V30 26 1 14 25
M  V30 27 1 15 26
M  V30 28 1 16 27
M  V30 END BOND
M  V30 END CTAB
M  END
>  <Structure No>
6070

>  <LogS>
-2.6817

>  <MMFF94 Energy>
-12.936

$$$$
Compound 6071
Actelion Java MolfileCreator 2.0

  0  0  0  0  0  0              0 V3000
M  V30 BEGIN CTAB
M  V30 COUNTS 19 20 0 0 0
M  V30 BEGIN ATOM
M  V30 1 O 3.2151 0.4117 -1.4005 0
M  V30 2 C 3.3986 0.9707 -0.2871 0
M  V30 3 O 4.5716 1.6836 -0.0708 0 CHG=-1
M  V30 4 C 2.4103 0.841 0.8 0
M  V30 5 O 2.7477 1.1963 1.9617 0
M  V30 6 C 1.0507 0.2904 0.5826 0
M  V30 7 C 0.355 0.5148 -0.6303 0
M  V30 8 C 0.4148 -0.441 1.6216 0
M  V30 9 C -0.9251 -0.0159 -0.7612 0
M  V30 10 C -0.8805 -0.9607 1.4461 0
M  V30 11 O -1.7854 0.0706 -1.8389 0
M  V30 12 C -1.5161 -0.7243 0.2324 0
M  V30 13 C -2.9905 -0.6307 -1.5015 0
M  V30 14 O -2.7762 -1.1219 -0.1709 0
M  V30 15 H 0.7779 1.1018 -1.4345 0
M  V30 16 H 0.9254 -0.6166 2.5603 0
M  V30 17 H -1.3684 -1.5243 2.2304 0
M  V30 18 H -3.8559 0.0645 -1.5185 0
M  V30 19 H -3.1495 -1.4776 -2.2016 0
M  V30 END ATOM
M  V30 BEGIN BOND
M  V30 1 2 1 2
M  V30 2 1 2 3
M  V30 3 1 2 4
M  V30 4 2 4 5
M  V30 5 1 4 6
M  V30 6 2 6 7
M  V30 7 1 6 8
M  V30 8 1 7 9
M  V30 9 2 8 10
M  V30 10 1 9 11
M  V30 11 2 9 12
M  V30 12 1 11 13
M  V30 13 1 12 14
M  V30 14 1 10 12
M  V30 15 1 13 14
M  V30 16 1 7 15
M  V30 17 1 8 16
M  V30 18 1 10 17
M  V30 19 1 13 18
M  V30 20 1 13 19
M  V30 END BOND
M  V30 END CTAB
M  END
>  <Structure No>
6071

>  <LogS>
-1.1912

>  <MMFF94 Energy>
111.65

$$$$
Compound 6072
Actelion Java MolfileCreator 2.0

  0  0  0  0  0  0              0 V3000
M  V30 BEGIN CTAB
M  V30 COUNTS 24 26 0 0 0
M  V30 BEGIN ATOM
M  V30 1 O -1.4695 3.1861 0.3264 0
M  V30 2 C -0.8154 2.1118 0.2293 0
M  V30 3 C 0.6451 2.1465 0.308 0
M  V30 4 C -1.5078 0.8214 0.0375 0
M  V30 5 O 1.2334 3.2505 0.472 0
M  V30 6 C 1.4144 0.8909 0.1948 0
M  V30 7 C -0.7631 -0.3837 -0.0708 0
M  V30 8 C -2.913 0.7917 -0.0375 0
M  V30 9 C 0.7435 -0.3479 0.0102 0
M  V30 10 C 2.8192 0.9281 0.2708 0
M  V30 11 C -1.4782 -1.5923 -0.2539 0
M  V30 12 C -3.5877 -0.4125 -0.2181 0
M  V30 13 C 1.5305 -1.5207 -0.0919 0
M  V30 14 C 3.5657 -0.2424 0.1669 0
M  V30 15 C -2.8724 -1.6002 -0.3258 0
M  V30 16 C 2.9231 -1.4623 -0.0139 0
M  V30 17 H -3.493 1.7027 0.0435 0
M  V30 18 H 3.3433 1.8653 0.4114 0
M  V30 19 H -0.9893 -2.5469 -0.3448 0
M  V30 20 H -4.6687 -0.4247 -0.2746 0
M  V30 21 H 1.0999 -2.4973 -0.2324 0
M  V30 22 H 4.6458 -0.2033 0.2266 0
M  V30 23 H -3.4007 -2.5347 -0.4661 0
M  V30 24 H 3.507 -2.3704 -0.0943 0
M  V30 END ATOM
M  V30 BEGIN BOND
M  V30 1 2 1 2
M  V30 2 1 2 3
M  V30 3 1 2 4
M  V30 4 2 3 5
M  V30 5 1 3 6
M  V30 6 2 4 7
M  V30 7 1 4 8
M  V30 8 2 6 9
M  V30 9 1 6 10
M  V30 10 1 7 11
M  V30 11 2 8 12
M  V30 12 1 9 13
M  V30 13 2 10 14
M  V30 14 2 11 15
M  V30 15 2 13 16
M  V30 16 1 7 9
M  V30 17 1 12 15
M  V30 18 1 14 16
M  V30 19 1 8 17
M  V30 20 1 10 18
M  V30 21 1 11 19
M  V30 22 1 12 20
M  V30 23 1 13 21
M  V30 24 1 14 22
M  V30 25 1 15 23
M  V30 26 1 16 24
M  V30 END BOND
M  V30 END CTAB
M  END
>  <Structure No>
6072

>  <LogS>
-4.4435

>  <MMFF94 Energy>
93.229

$$$$
Compound 6073
Actelion Java MolfileCreator 2.0

  0  0  0  0  0  0              0 V3000
M  V30 BEGIN CTAB
M  V30 COUNTS 20 20 0 0 0
M  V30 BEGIN ATOM
M  V30 1 O 3.1053 -1.8456 0.3353 0
M  V30 2 C 2.2693 -1.0085 0.7697 0
M  V30 3 O 2.6711 -0.1303 1.7686 0 CHG=-1
M  V30 4 C 0.8779 -0.9947 0.2352 0
M  V30 5 C 0.0073 0.1254 0.3688 0
M  V30 6 C 0.4176 -2.1394 -0.4387 0
M  V30 7 C -1.31 0.0661 -0.1711 0
M  V30 8 C 0.4985 1.3745 0.9849 0
M  V30 9 C -0.8673 -2.1899 -0.9668 0
M  V30 10 C -2.2773 1.1961 -0.0746 0
M  V30 11 C -1.7225 -1.1016 -0.8361 0
M  V30 12 O 0.3541 1.5516 2.2243 0
M  V30 13 C 1.1514 2.4096 0.1711 0
M  V30 14 O -3.2705 1.2461 -0.8487 0
M  V30 15 O -2.13 2.1978 0.8768 0 CHG=-1
M  V30 16 O 1.3025 2.2464 -1.0684 0
M  V30 17 O 1.6073 3.5784 0.768 0 CHG=-1
M  V30 18 H 1.0538 -3.0084 -0.5538 0
M  V30 19 H -1.2044 -3.0816 -1.4798 0
M  V30 20 H -2.7187 -1.1791 -1.2545 0
M  V30 END ATOM
M  V30 BEGIN BOND
M  V30 1 2 1 2
M  V30 2 1 2 3
M  V30 3 1 2 4
M  V30 4 2 4 5
M  V30 5 1 4 6
M  V30 6 1 5 7
M  V30 7 1 5 8
M  V30 8 2 6 9
M  V30 9 1 7 10
M  V30 10 2 7 11
M  V30 11 2 8 12
M  V30 12 1 8 13
M  V30 13 2 10 14
M  V30 14 1 10 15
M  V30 15 2 13 16
M  V30 16 1 13 17
M  V30 17 1 9 11
M  V30 18 1 6 18
M  V30 19 1 9 19
M  V30 20 1 11 20
M  V30 END BOND
M  V30 END CTAB
M  END
>  <Structure No>
6073

>  <LogS>
-0.4541

>  <MMFF94 Energy>
314.38

$$$$
Compound 6074
Actelion Java MolfileCreator 2.0

  0  0  0  0  0  0              0 V3000
M  V30 BEGIN CTAB
M  V30 COUNTS 26 27 0 0 0
M  V30 BEGIN ATOM
M  V30 1 S -4.0668 -1.7527 0.1592 0
M  V30 2 C -2.7817 -0.7393 0.067 0
M  V30 3 N -1.4844 -1.1082 0.1606 0
M  V30 4 C -2.8655 0.6235 -0.1376 0
M  V30 5 N -0.7336 -0.0226 0.0017 0
M  V30 6 C -0.9768 -2.4693 0.3576 0
M  V30 7 C -1.5475 1.0434 -0.1809 0
M  V30 8 C 0.7041 -3.0E-4 -0.007 0
M  V30 9 C -1.0961 2.4559 -0.3915 0
M  V30 10 C 1.4164 -0.7441 -0.9603 0
M  V30 11 C 1.4058 0.7722 0.9314 0
M  V30 12 C 2.8144 -0.7179 -0.9714 0
M  V30 13 C 2.8038 0.7968 0.9176 0
M  V30 14 C 3.5078 0.0519 -0.0328 0
M  V30 15 H -3.758 1.2249 -0.2552 0
M  V30 16 H -0.8403 -2.9616 -0.6275 0
M  V30 17 H -1.6854 -3.0658 0.9693 0
M  V30 18 H -0.0081 -2.4486 0.8986 0
M  V30 19 H -0.8199 2.9072 0.5836 0
M  V30 20 H -0.2186 2.4781 -1.0709 0
M  V30 21 H -1.9107 3.0568 -0.8483 0
M  V30 22 H 0.8873 -1.3345 -1.6976 0
M  V30 23 H 0.8691 1.3447 1.6773 0
M  V30 24 H 3.36 -1.2921 -1.709 0
M  V30 25 H 3.3413 1.3915 1.6449 0
M  V30 26 H 4.5899 0.0716 -0.0426 0
M  V30 END ATOM
M  V30 BEGIN BOND
M  V30 1 2 1 2
M  V30 2 1 2 3
M  V30 3 1 2 4
M  V30 4 1 3 5
M  V30 5 1 3 6
M  V30 6 2 4 7
M  V30 7 1 5 8
M  V30 8 1 7 9
M  V30 9 2 8 10
M  V30 10 1 8 11
M  V30 11 1 10 12
M  V30 12 2 11 13
M  V30 13 2 12 14
M  V30 14 1 5 7
M  V30 15 1 13 14
M  V30 16 1 4 15
M  V30 17 1 6 16
M  V30 18 1 6 17
M  V30 19 1 6 18
M  V30 20 1 9 19
M  V30 21 1 9 20
M  V30 22 1 9 21
M  V30 23 1 10 22
M  V30 24 1 11 23
M  V30 25 1 12 24
M  V30 26 1 13 25
M  V30 27 1 14 26
M  V30 END BOND
M  V30 END CTAB
M  END
>  <Structure No>
6074

>  <LogS>
-1.6668

>  <MMFF94 Energy>
45.411

$$$$
Compound 6075
Actelion Java MolfileCreator 2.0

  0  0  0  0  0  0              0 V3000
M  V30 BEGIN CTAB
M  V30 COUNTS 18 17 0 0 0
M  V30 BEGIN ATOM
M  V30 1 Cl -1.7079 -1.6225 -2.0497 0
M  V30 2 C -2.2161 -0.6079 -0.7077 0
M  V30 3 S -1.5032 -0.9057 0.9208 0
M  V30 4 C -3.1594 0.3216 -0.9093 0
M  V30 5 C -0.1891 0.3629 0.7763 0
M  V30 6 Cl -3.7636 1.3559 0.3815 0
M  V30 7 C 1.0344 -0.1532 -0.004 0 CFG=1
M  V30 8 N 2.0266 0.9156 -0.1681 0 CHG=1
M  V30 9 C 1.6554 -1.3395 0.6862 0
M  V30 10 O 2.1807 -1.2146 1.8244 0
M  V30 11 O 1.6408 -2.5851 0.0714 0 CHG=-1
M  V30 12 H -3.5789 0.4551 -1.9013 0
M  V30 13 H -0.5979 1.2718 0.2845 0
M  V30 14 H 0.1193 0.6565 1.8026 0
M  V30 15 H 0.6997 -0.4709 -1.0148 0
M  V30 16 H 1.6091 1.705 -0.7129 0
M  V30 17 H 2.8532 0.5544 -0.698 0
M  V30 18 H 2.3438 1.2733 0.7627 0
M  V30 END ATOM
M  V30 BEGIN BOND
M  V30 1 1 1 2
M  V30 2 1 2 3
M  V30 3 2 2 4
M  V30 4 1 3 5
M  V30 5 1 4 6
M  V30 6 1 5 7
M  V30 7 1 7 8
M  V30 8 1 7 9
M  V30 9 2 9 10
M  V30 10 1 9 11
M  V30 11 1 4 12
M  V30 12 1 5 13
M  V30 13 1 5 14
M  V30 14 1 7 15
M  V30 15 1 8 16
M  V30 16 1 8 17
M  V30 17 1 8 18
M  V30 END BOND
M  V30 BEGIN COLLECTION
M  V30 MDLV30/STEABS ATOMS=(1 7)
M  V30 END COLLECTION
M  V30 END CTAB
M  END
>  <Structure No>
6075

>  <LogS>
-1.4895

>  <MMFF94 Energy>
-6.4741

$$$$
Compound 6076
Actelion Java MolfileCreator 2.0

  0  0  0  0  0  0              0 V3000
M  V30 BEGIN CTAB
M  V30 COUNTS 18 18 0 0 0
M  V30 BEGIN ATOM
M  V30 1 S 0.9005 1.8016 -0.0818 0
M  V30 2 C 0.3514 0.1447 -0.4566 0
M  V30 3 C 2.5316 1.0854 0.2965 0
M  V30 4 N 1.1265 -0.8014 -0.0828 0
M  V30 5 C -0.8856 -0.1261 -1.2585 0
M  V30 6 C 2.3103 -0.3904 0.6185 0
M  V30 7 C -1.9093 -0.8339 -0.416 0
M  V30 8 O -2.0874 -2.0338 -0.5604 0
M  V30 9 C -2.6915 -0.0947 0.6282 0
M  V30 10 H 2.999 1.6146 1.1537 0
M  V30 11 H 3.1818 1.1847 -0.5989 0
M  V30 12 H -1.3138 0.8297 -1.6288 0
M  V30 13 H -0.6213 -0.7425 -2.1452 0
M  V30 14 H 2.1471 -0.5164 1.7109 0
M  V30 15 H 3.1781 -1.006 0.3005 0
M  V30 16 H -2.406 0.9783 0.6518 0
M  V30 17 H -2.4917 -0.5383 1.6261 0
M  V30 18 H -3.7762 -0.1714 0.4048 0
M  V30 END ATOM
M  V30 BEGIN BOND
M  V30 1 1 1 2
M  V30 2 1 1 3
M  V30 3 2 2 4
M  V30 4 1 2 5
M  V30 5 1 3 6
M  V30 6 1 5 7
M  V30 7 2 7 8
M  V30 8 1 7 9
M  V30 9 1 4 6
M  V30 10 1 3 10
M  V30 11 1 3 11
M  V30 12 1 5 12
M  V30 13 1 5 13
M  V30 14 1 6 14
M  V30 15 1 6 15
M  V30 16 1 9 16
M  V30 17 1 9 17
M  V30 18 1 9 18
M  V30 END BOND
M  V30 END CTAB
M  END
>  <Structure No>
6076

>  <LogS>
-1.156

>  <MMFF94 Energy>
2.9622

$$$$
Compound 6077
Actelion Java MolfileCreator 2.0

  0  0  0  0  0  0              0 V3000
M  V30 BEGIN CTAB
M  V30 COUNTS 28 29 0 0 0
M  V30 BEGIN ATOM
M  V30 1 N 3.536 -0.0784 -0.3924 0 CHG=1
M  V30 2 C 2.8228 0.923 -0.9877 0
M  V30 3 C 2.8988 -1.0509 0.3245 0
M  V30 4 C 4.9988 -0.0673 -0.4604 0
M  V30 5 C 1.4289 0.9497 -0.904 0
M  V30 6 C 1.5063 -1.0576 0.4321 0
M  V30 7 C 0.7523 -0.0505 -0.1894 0
M  V30 8 C -0.7298 -0.0397 -0.0874 0
M  V30 9 C -1.3679 -0.3779 1.1156 0
M  V30 10 C -1.5215 0.3152 -1.1901 0
M  V30 11 C -2.7624 -0.3609 1.1921 0
M  V30 12 C -2.9134 0.3189 -1.0748 0
M  V30 13 N -3.5146 -0.0325 0.1002 0 CHG=1
M  V30 14 C -4.9741 0.0155 0.2119 0
M  V30 15 H 3.3297 1.7118 -1.5311 0
M  V30 16 H 3.4655 -1.8329 0.8161 0
M  V30 17 H 5.4037 -1.1017 -0.4206 0
M  V30 18 H 5.4058 0.5146 0.393 0
M  V30 19 H 5.3465 0.3913 -1.4113 0
M  V30 20 H 0.8875 1.7596 -1.3763 0
M  V30 21 H 1.0239 -1.8533 0.9856 0
M  V30 22 H -0.7943 -0.6323 1.9979 0
M  V30 23 H -1.0704 0.5742 -2.1396 0
M  V30 24 H -3.2382 -0.6106 2.1333 0
M  V30 25 H -3.5093 0.6017 -1.9348 0
M  V30 26 H -5.3385 -0.731 0.9504 0
M  V30 27 H -5.4527 -0.2184 -0.7636 0
M  V30 28 H -5.2886 1.0298 0.5362 0
M  V30 END ATOM
M  V30 BEGIN BOND
M  V30 1 2 1 2
M  V30 2 1 1 3
M  V30 3 1 1 4
M  V30 4 1 2 5
M  V30 5 2 3 6
M  V30 6 2 5 7
M  V30 7 1 7 8
M  V30 8 2 8 9
M  V30 9 1 8 10
M  V30 10 1 9 11
M  V30 11 2 10 12
M  V30 12 2 11 13
M  V30 13 1 13 14
M  V30 14 1 6 7
M  V30 15 1 12 13
M  V30 16 1 2 15
M  V30 17 1 3 16
M  V30 18 1 4 17
M  V30 19 1 4 18
M  V30 20 1 4 19
M  V30 21 1 5 20
M  V30 22 1 6 21
M  V30 23 1 9 22
M  V30 24 1 10 23
M  V30 25 1 11 24
M  V30 26 1 12 25
M  V30 27 1 14 26
M  V30 28 1 14 27
M  V30 29 1 14 28
M  V30 END BOND
M  V30 END CTAB
M  END
>  <Structure No>
6077

>  <LogS>
0.4349

>  <MMFF94 Energy>
125.81

$$$$
Compound 6078
Actelion Java MolfileCreator 2.0

  0  0  0  0  0  0              0 V3000
M  V30 BEGIN CTAB
M  V30 COUNTS 26 28 0 0 0
M  V30 BEGIN ATOM
M  V30 1 N -1.5162 -0.4786 -0.1595 0 CHG=1
M  V30 2 C -0.7141 0.6331 -0.0556 0
M  V30 3 C -2.8647 -0.3565 -0.3544 0
M  V30 4 C -0.9396 -1.8184 0.0219 0
M  V30 5 C 0.7485 0.4453 0.1781 0
M  V30 6 C -1.2815 1.9118 -0.2259 0
M  V30 7 C -3.4505 0.8997 -0.5033 0
M  V30 8 C 0.4679 -1.8828 -0.5758 0
M  V30 9 N 1.3018 -0.7922 -0.0503 0 CHG=1
M  V30 10 C 1.5609 1.4833 0.6764 0
M  V30 11 C -2.6515 2.0364 -0.4466 0
M  V30 12 C 2.6403 -1.008 0.1313 0
M  V30 13 C 2.9203 1.2585 0.883 0
M  V30 14 C 3.4669 0.0109 0.6023 0
M  V30 15 H -3.4979 -1.2349 -0.3997 0
M  V30 16 H -1.5669 -2.5929 -0.4732 0
M  V30 17 H -0.8923 -2.0506 1.1082 0
M  V30 18 H -0.6812 2.8099 -0.2157 0
M  V30 19 H -4.5167 0.9895 -0.667 0
M  V30 20 H 0.4055 -1.7929 -1.6822 0
M  V30 21 H 0.9081 -2.875 -0.3306 0
M  V30 22 H 1.1583 2.453 0.9306 0
M  V30 23 H -3.0934 3.0161 -0.5764 0
M  V30 24 H 3.0779 -1.9756 -0.0846 0
M  V30 25 H 3.5498 2.0523 1.264 0
M  V30 26 H 4.5236 -0.1684 0.7534 0
M  V30 END ATOM
M  V30 BEGIN BOND
M  V30 1 2 1 2
M  V30 2 1 1 3
M  V30 3 1 1 4
M  V30 4 1 2 5
M  V30 5 1 2 6
M  V30 6 2 3 7
M  V30 7 1 4 8
M  V30 8 2 5 9
M  V30 9 1 5 10
M  V30 10 2 6 11
M  V30 11 1 9 12
M  V30 12 2 10 13
M  V30 13 2 12 14
M  V30 14 1 7 11
M  V30 15 1 8 9
M  V30 16 1 13 14
M  V30 17 1 3 15
M  V30 18 1 4 16
M  V30 19 1 4 17
M  V30 20 1 6 18
M  V30 21 1 7 19
M  V30 22 1 8 20
M  V30 23 1 8 21
M  V30 24 1 10 22
M  V30 25 1 11 23
M  V30 26 1 12 24
M  V30 27 1 13 25
M  V30 28 1 14 26
M  V30 END BOND
M  V30 END CTAB
M  END
>  <Structure No>
6078

>  <LogS>
0.3133

>  <MMFF94 Energy>
156.01

$$$$
Compound 6079
Actelion Java MolfileCreator 2.0

  0  0  0  0  0  0              0 V3000
M  V30 BEGIN CTAB
M  V30 COUNTS 52 53 0 0 0
M  V30 BEGIN ATOM
M  V30 1 S 1.5287 -1.1262 2.5758 0
M  V30 2 N 0.1246 -1.921 1.8406 0
M  V30 3 N 2.6748 -2.0991 1.6374 0
M  V30 4 C -0.5216 -1.3377 0.7013 0
M  V30 5 C -0.3971 -3.1485 2.4326 0
M  V30 6 C 3.1521 -1.618 0.3733 0
M  V30 7 C 3.1529 -3.3664 2.1832 0
M  V30 8 O -0.1287 -0.2244 0.2578 0
M  V30 9 O -1.5552 -2.0319 0.0584 0
M  V30 10 O 3.9624 -2.3113 -0.3015 0
M  V30 11 O 2.7101 -0.3812 -0.1088 0
M  V30 12 C -2.4388 -1.4674 -0.8711 0
M  V30 13 C 3.1659 0.1998 -1.3289 0
M  V30 14 C -2.931 -0.1581 -0.7562 0
M  V30 15 C -2.8925 -2.2452 -1.9511 0
M  V30 16 C 4.5785 0.7811 -1.1774 0
M  V30 17 O -2.6753 0.7426 0.2563 0
M  V30 18 C -3.7894 0.3692 -1.6794 0
M  V30 19 C -3.7805 -1.7019 -2.8997 0
M  V30 20 C 4.7109 1.7746 -0.0112 0
M  V30 21 C -3.3637 1.974 0.0271 0
M  V30 22 C -4.2343 -0.3798 -2.7685 0
M  V30 23 C -4.1571 1.76 -1.3041 0
M  V30 24 C 3.8871 3.0451 -0.2177 0
M  V30 25 C -4.3094 2.2492 1.2034 0
M  V30 26 C -2.3362 3.1054 -0.1107 0
M  V30 27 H -1.4593 -3.0041 2.7228 0
M  V30 28 H -0.3236 -3.9786 1.699 0
M  V30 29 H 0.1803 -3.4231 3.3397 0
M  V30 30 H 4.2587 -3.3414 2.2802 0
M  V30 31 H 2.7162 -3.5508 3.1869 0
M  V30 32 H 2.8587 -4.1984 1.5095 0
M  V30 33 H 2.4608 1.0027 -1.6279 0
M  V30 34 H 3.1556 -0.5602 -2.14 0
M  V30 35 H -2.5495 -3.2657 -2.0623 0
M  V30 36 H 5.2942 -0.0526 -1.0128 0
M  V30 37 H 4.8696 1.2805 -2.1269 0
M  V30 38 H -4.1168 -2.3067 -3.7317 0
M  V30 39 H 4.414 1.2903 0.944 0
M  V30 40 H 5.7801 2.0633 0.0807 0
M  V30 41 H -4.9211 0.0437 -3.4895 0
M  V30 42 H -5.2577 1.8313 -1.1619 0
M  V30 43 H -3.8427 2.4611 -2.1077 0
M  V30 44 H 4.1285 3.7756 0.583 0
M  V30 45 H 4.1222 3.5063 -1.2001 0
M  V30 46 H 2.8015 2.821 -0.1629 0
M  V30 47 H -5.0295 1.4113 1.3205 0
M  V30 48 H -4.8782 3.1884 1.033 0
M  V30 49 H -3.7321 2.3454 2.1478 0
M  V30 50 H -1.6316 2.8843 -0.941 0
M  V30 51 H -1.7472 3.2068 0.8258 0
M  V30 52 H -2.8464 4.07 -0.3209 0
M  V30 END ATOM
M  V30 BEGIN BOND
M  V30 1 1 1 2
M  V30 2 1 1 3
M  V30 3 1 2 4
M  V30 4 1 2 5
M  V30 5 1 3 6
M  V30 6 1 3 7
M  V30 7 2 4 8
M  V30 8 1 4 9
M  V30 9 2 6 10
M  V30 10 1 6 11
M  V30 11 1 9 12
M  V30 12 1 11 13
M  V30 13 2 12 14
M  V30 14 1 12 15
M  V30 15 1 13 16
M  V30 16 1 14 17
M  V30 17 1 14 18
M  V30 18 2 15 19
M  V30 19 1 16 20
M  V30 20 1 17 21
M  V30 21 2 18 22
M  V30 22 1 18 23
M  V30 23 1 20 24
M  V30 24 1 21 25
M  V30 25 1 21 26
M  V30 26 1 19 22
M  V30 27 1 21 23
M  V30 28 1 5 27
M  V30 29 1 5 28
M  V30 30 1 5 29
M  V30 31 1 7 30
M  V30 32 1 7 31
M  V30 33 1 7 32
M  V30 34 1 13 33
M  V30 35 1 13 34
M  V30 36 1 15 35
M  V30 37 1 16 36
M  V30 38 1 16 37
M  V30 39 1 19 38
M  V30 40 1 20 39
M  V30 41 1 20 40
M  V30 42 1 22 41
M  V30 43 1 23 42
M  V30 44 1 23 43
M  V30 45 1 24 44
M  V30 46 1 24 45
M  V30 47 1 24 46
M  V30 48 1 25 47
M  V30 49 1 25 48
M  V30 50 1 25 49
M  V30 51 1 26 50
M  V30 52 1 26 51
M  V30 53 1 26 52
M  V30 END BOND
M  V30 END CTAB
M  END
>  <Structure No>
6079

>  <LogS>
-4.5412

>  <MMFF94 Energy>
5.8637

$$$$
Compound 6080
Actelion Java MolfileCreator 2.0

  0  0  0  0  0  0              0 V3000
M  V30 BEGIN CTAB
M  V30 COUNTS 58 59 0 0 0
M  V30 BEGIN ATOM
M  V30 1 S 1.6862 -2.1684 -0.2407 0
M  V30 2 N 2.649 -1.583 -1.6226 0
M  V30 3 N 0.3454 -2.6612 -1.2876 0
M  V30 4 C 4.0606 -2.0425 -1.5274 0
M  V30 5 C 2.4441 -0.1256 -1.8096 0
M  V30 6 C -0.7863 -1.7967 -1.4406 0
M  V30 7 C 0.402 -3.9439 -1.983 0
M  V30 8 C 4.1259 -3.5769 -1.6202 0
M  V30 9 C 4.9357 -1.4615 -2.6563 0
M  V30 10 C 3.1267 0.7862 -0.7634 0
M  V30 11 O -1.5796 -1.962 -2.4083 0
M  V30 12 O -1.0382 -0.8115 -0.4789 0
M  V30 13 C 2.3433 0.9002 0.5049 0
M  V30 14 C -1.8987 0.2753 -0.673 0
M  V30 15 O 2.7626 0.339 1.5543 0
M  V30 16 O 1.1573 1.6421 0.5129 0
M  V30 17 C -2.6612 0.7533 0.3924 0
M  V30 18 C -2.0036 0.9431 -1.9122 0
M  V30 19 C 0.4189 1.9275 1.6982 0
M  V30 20 O -2.6967 0.2441 1.6733 0
M  V30 21 C -3.4957 1.8254 0.2582 0
M  V30 22 C -2.8633 2.0507 -2.0495 0
M  V30 23 C 1.1235 2.9939 2.5291 0
M  V30 24 C -3.6211 0.9791 2.4814 0
M  V30 25 C -3.6215 2.4989 -0.9561 0
M  V30 26 C -4.1796 2.1051 1.5484 0
M  V30 27 C -4.7417 0.0372 2.945 0
M  V30 28 C -2.8847 1.5677 3.6928 0
M  V30 29 H 4.4969 -1.749 -0.5479 0
M  V30 30 H 1.3555 0.0972 -1.8405 0
M  V30 31 H 2.8084 0.1598 -2.8188 0
M  V30 32 H -0.4987 -4.5443 -1.7374 0
M  V30 33 H 0.4453 -3.7735 -3.0792 0
M  V30 34 H 1.2984 -4.5188 -1.6748 0
M  V30 35 H 3.6371 -4.0514 -0.7453 0
M  V30 36 H 3.6269 -3.9294 -2.5487 0
M  V30 37 H 5.1808 -3.924 -1.6263 0
M  V30 38 H 5.0908 -0.3725 -2.5252 0
M  V30 39 H 5.945 -1.9257 -2.6488 0
M  V30 40 H 4.4664 -1.6426 -3.6461 0
M  V30 41 H 4.1659 0.4753 -0.5423 0
M  V30 42 H 3.1978 1.807 -1.1956 0
M  V30 43 H -1.4078 0.6283 -2.759 0
M  V30 44 H 0.2724 1.0016 2.2981 0
M  V30 45 H -0.577 2.3184 1.4036 0
M  V30 46 H -2.9356 2.5617 -2.9997 0
M  V30 47 H 2.1244 2.6373 2.8519 0
M  V30 48 H 0.5181 3.2233 3.4312 0
M  V30 49 H 1.2407 3.9221 1.9292 0
M  V30 50 H -4.2841 3.3503 -1.0523 0
M  V30 51 H -3.9094 3.1241 1.9004 0
M  V30 52 H -5.2807 2.0416 1.412 0
M  V30 53 H -4.3221 -0.7866 3.561 0
M  V30 54 H -5.4904 0.5924 3.5506 0
M  V30 55 H -5.2543 -0.4119 2.0668 0
M  V30 56 H -2.4486 0.7543 4.3104 0
M  V30 57 H -3.5834 2.1604 4.3215 0
M  V30 58 H -2.0597 2.2311 3.359 0
M  V30 END ATOM
M  V30 BEGIN BOND
M  V30 1 1 1 2
M  V30 2 1 1 3
M  V30 3 1 2 4
M  V30 4 1 2 5
M  V30 5 1 3 6
M  V30 6 1 3 7
M  V30 7 1 4 8
M  V30 8 1 4 9
M  V30 9 1 5 10
M  V30 10 2 6 11
M  V30 11 1 6 12
M  V30 12 1 10 13
M  V30 13 1 12 14
M  V30 14 2 13 15
M  V30 15 1 13 16
M  V30 16 2 14 17
M  V30 17 1 14 18
M  V30 18 1 16 19
M  V30 19 1 17 20
M  V30 20 1 17 21
M  V30 21 2 18 22
M  V30 22 1 19 23
M  V30 23 1 20 24
M  V30 24 2 21 25
M  V30 25 1 21 26
M  V30 26 1 24 27
M  V30 27 1 24 28
M  V30 28 1 22 25
M  V30 29 1 24 26
M  V30 30 1 4 29
M  V30 31 1 5 30
M  V30 32 1 5 31
M  V30 33 1 7 32
M  V30 34 1 7 33
M  V30 35 1 7 34
M  V30 36 1 8 35
M  V30 37 1 8 36
M  V30 38 1 8 37
M  V30 39 1 9 38
M  V30 40 1 9 39
M  V30 41 1 9 40
M  V30 42 1 10 41
M  V30 43 1 10 42
M  V30 44 1 18 43
M  V30 45 1 19 44
M  V30 46 1 19 45
M  V30 47 1 22 46
M  V30 48 1 23 47
M  V30 49 1 23 48
M  V30 50 1 23 49
M  V30 51 1 25 50
M  V30 52 1 26 51
M  V30 53 1 26 52
M  V30 54 1 27 53
M  V30 55 1 27 54
M  V30 56 1 27 55
M  V30 57 1 28 56
M  V30 58 1 28 57
M  V30 59 1 28 58
M  V30 END BOND
M  V30 END CTAB
M  END
>  <Structure No>
6080

>  <LogS>
-4.7103

>  <MMFF94 Energy>
15.741

$$$$
Compound 6081
Actelion Java MolfileCreator 2.0

  0  0  0  0  0  0              0 V3000
M  V30 BEGIN CTAB
M  V30 COUNTS 58 59 0 0 0
M  V30 BEGIN ATOM
M  V30 1 S -1.0402 2.0012 -0.0799 0
M  V30 2 N -2.5968 1.142 -0.3545 0
M  V30 3 N -0.7716 1.4531 1.5939 0
M  V30 4 C -3.7221 1.7909 0.3469 0
M  V30 5 C -2.5317 -0.3068 -0.0743 0
M  V30 6 C 0.1829 0.4091 1.8291 0
M  V30 7 C -1.2524 2.2655 2.7109 0
M  V30 8 C -4.0174 3.1845 -0.2434 0
M  V30 9 C -1.6361 -1.0306 -1.0897 0
M  V30 10 O 0.2859 -0.111 2.9774 0
M  V30 11 O 1.0697 0.0507 0.8056 0
M  V30 12 C -5.0874 3.9596 0.5461 0
M  V30 13 C -1.6398 -2.5465 -0.8458 0
M  V30 14 C 1.838 -1.1193 0.7732 0
M  V30 15 C -6.474 3.3177 0.4684 0
M  V30 16 C -0.6578 -3.2659 -1.7696 0
M  V30 17 C 3.0713 -1.1052 0.1228 0
M  V30 18 C 1.4016 -2.3411 1.335 0
M  V30 19 O 3.6763 -0.014 -0.463 0
M  V30 20 C 3.8489 -2.2228 0.0196 0
M  V30 21 C 2.1978 -3.4991 1.2202 0
M  V30 22 C 4.9696 -0.3647 -0.9631 0
M  V30 23 C 3.4358 -3.4437 0.5551 0
M  V30 24 C 5.1021 -1.906 -0.7148 0
M  V30 25 C 5.05 -0.024 -2.4583 0
M  V30 26 C 6.0382 0.4139 -0.1785 0
M  V30 27 H -3.528 1.8551 1.4358 0
M  V30 28 H -4.643 1.1809 0.2178 0
M  V30 29 H -2.1972 -0.5036 0.9638 0
M  V30 30 H -3.5496 -0.7478 -0.1686 0
M  V30 31 H -1.9355 1.6598 3.3457 0
M  V30 32 H -1.7954 3.1623 2.339 0
M  V30 33 H -0.3931 2.615 3.3239 0
M  V30 34 H -3.096 3.8056 -0.2346 0
M  V30 35 H -4.3339 3.0777 -1.3033 0
M  V30 36 H -2.006 -0.8203 -2.1172 0
M  V30 37 H -0.5965 -0.654 -1.0128 0
M  V30 38 H -4.7823 4.0539 1.6123 0
M  V30 39 H -5.1555 4.9856 0.1212 0
M  V30 40 H -2.6612 -2.9509 -1.0213 0
M  V30 41 H -1.3595 -2.7611 0.2075 0
M  V30 42 H -6.7552 3.1107 -0.5868 0
M  V30 43 H -6.5005 2.3767 1.0588 0
M  V30 44 H -7.2244 4.0111 0.9043 0
M  V30 45 H 0.3768 -2.8942 -1.6052 0
M  V30 46 H -0.9398 -3.1059 -2.8319 0
M  V30 47 H -0.6903 -4.3577 -1.5571 0
M  V30 48 H 0.4411 -2.4106 1.8307 0
M  V30 49 H 1.8509 -4.4359 1.6391 0
M  V30 50 H 4.0535 -4.3271 0.4615 0
M  V30 51 H 5.9876 -2.1668 -0.093 0
M  V30 52 H 5.1293 -2.4881 -1.6621 0
M  V30 53 H 4.2404 -0.5441 -3.0143 0
M  V30 54 H 6.0277 -0.3438 -2.8741 0
M  V30 55 H 4.9346 1.0687 -2.6183 0
M  V30 56 H 7.0563 0.1548 -0.544 0
M  V30 57 H 5.8802 1.5087 -0.2936 0
M  V30 58 H 5.9777 0.1671 0.9045 0
M  V30 END ATOM
M  V30 BEGIN BOND
M  V30 1 1 1 2
M  V30 2 1 1 3
M  V30 3 1 2 4
M  V30 4 1 2 5
M  V30 5 1 3 6
M  V30 6 1 3 7
M  V30 7 1 4 8
M  V30 8 1 5 9
M  V30 9 2 6 10
M  V30 10 1 6 11
M  V30 11 1 8 12
M  V30 12 1 9 13
M  V30 13 1 11 14
M  V30 14 1 12 15
M  V30 15 1 13 16
M  V30 16 2 14 17
M  V30 17 1 14 18
M  V30 18 1 17 19
M  V30 19 1 17 20
M  V30 20 2 18 21
M  V30 21 1 19 22
M  V30 22 2 20 23
M  V30 23 1 20 24
M  V30 24 1 22 25
M  V30 25 1 22 26
M  V30 26 1 21 23
M  V30 27 1 22 24
M  V30 28 1 4 27
M  V30 29 1 4 28
M  V30 30 1 5 29
M  V30 31 1 5 30
M  V30 32 1 7 31
M  V30 33 1 7 32
M  V30 34 1 7 33
M  V30 35 1 8 34
M  V30 36 1 8 35
M  V30 37 1 9 36
M  V30 38 1 9 37
M  V30 39 1 12 38
M  V30 40 1 12 39
M  V30 41 1 13 40
M  V30 42 1 13 41
M  V30 43 1 15 42
M  V30 44 1 15 43
M  V30 45 1 15 44
M  V30 46 1 16 45
M  V30 47 1 16 46
M  V30 48 1 16 47
M  V30 49 1 18 48
M  V30 50 1 21 49
M  V30 51 1 23 50
M  V30 52 1 24 51
M  V30 53 1 24 52
M  V30 54 1 25 53
M  V30 55 1 25 54
M  V30 56 1 25 55
M  V30 57 1 26 56
M  V30 58 1 26 57
M  V30 59 1 26 58
M  V30 END BOND
M  V30 END CTAB
M  END
>  <Structure No>
6081

>  <LogS>
-6.1033

>  <MMFF94 Energy>
26.972

$$$$
Compound 6082
Actelion Java MolfileCreator 2.0

  0  0  0  0  0  0              0 V3000
M  V30 BEGIN CTAB
M  V30 COUNTS 7 6 0 0 0
M  V30 BEGIN ATOM
M  V30 1 O 1.2454 1.3233 0.1556 0
M  V30 2 C 0.7982 0.1639 -0.045 0
M  V30 3 O 1.6791 -0.8823 -0.2858 0 CHG=-1
M  V30 4 C -0.6679 -0.0963 0.0329 0
M  V30 5 H -1.2308 0.7648 -0.385 0
M  V30 6 H -0.9613 -0.2463 1.0925 0
M  V30 7 H -0.9227 -1.007 -0.5483 0
M  V30 END ATOM
M  V30 BEGIN BOND
M  V30 1 2 1 2
M  V30 2 1 2 3
M  V30 3 1 2 4
M  V30 4 1 4 5
M  V30 5 1 4 6
M  V30 6 1 4 7
M  V30 END BOND
M  V30 END CTAB
M  END
>  <Structure No>
6082

>  <LogS>
-0.1054

>  <MMFF94 Energy>
1.0491

$$$$
Compound 6083
Actelion Java MolfileCreator 2.0

  0  0  0  0  0  0              0 V3000
M  V30 BEGIN CTAB
M  V30 COUNTS 4 3 0 0 0
M  V30 BEGIN ATOM
M  V30 1 O 1.1299 -0.2117 0.2823 0
M  V30 2 C -0.035 0.0261 0.0115 0
M  V30 3 H -0.741 -0.788 -0.1081 0
M  V30 4 H -0.3648 1.052 -0.1095 0
M  V30 END ATOM
M  V30 BEGIN BOND
M  V30 1 2 1 2
M  V30 2 1 2 3
M  V30 3 1 2 4
M  V30 END BOND
M  V30 END CTAB
M  END
>  <Structure No>
6083

>  <LogS>
1.1206

>  <MMFF94 Energy>
0.054161

$$$$
Compound 6084
Actelion Java MolfileCreator 2.0

  0  0  0  0  0  0              0 V3000
M  V30 BEGIN CTAB
M  V30 COUNTS 6 5 0 0 0
M  V30 BEGIN ATOM
M  V30 1 C 0.6683 -0.1484 -0.2227 0
M  V30 2 C -0.6592 0.1949 0.1131 0
M  V30 3 C 1.8017 -0.4415 -0.5093 0
M  V30 4 C -1.7927 0.488 0.3998 0
M  V30 5 H 2.7969 -0.6988 -0.761 0
M  V30 6 H -2.788 0.7455 0.6516 0
M  V30 END ATOM
M  V30 BEGIN BOND
M  V30 1 1 1 2
M  V30 2 3 1 3
M  V30 3 3 2 4
M  V30 4 1 3 5
M  V30 5 1 4 6
M  V30 END BOND
M  V30 END CTAB
M  END
>  <Structure No>
6084

>  <LogS>
-0.7241

>  <MMFF94 Energy>
MMFF94 error code 2

$$$$
Compound 6085
Actelion Java MolfileCreator 2.0

  0  0  0  0  0  0              0 V3000
M  V30 BEGIN CTAB
M  V30 COUNTS 10 10 0 0 0
M  V30 BEGIN ATOM
M  V30 1 S 0.7595 1.8574 0.0 0
M  V30 2 C -0.8392 1.0759 0.1657 0
M  V30 3 C 1.4473 0.2085 -0.1244 0
M  V30 4 O -1.8619 1.7273 0.3027 0
M  V30 5 C -0.8497 -0.4125 0.1272 0
M  V30 6 C 0.5786 -0.7972 -0.0498 0
M  V30 7 H 2.511 0.0385 -0.2531 0
M  V30 8 H -1.2418 -0.8224 1.0818 0
M  V30 9 H -1.4535 -0.7739 -0.7316 0
M  V30 10 H 0.8939 -1.8337 -0.1143 0
M  V30 END ATOM
M  V30 BEGIN BOND
M  V30 1 1 1 2
M  V30 2 1 1 3
M  V30 3 2 2 4
M  V30 4 1 2 5
M  V30 5 2 3 6
M  V30 6 1 5 6
M  V30 7 1 3 7
M  V30 8 1 5 8
M  V30 9 1 5 9
M  V30 10 1 6 10
M  V30 END BOND
M  V30 END CTAB
M  END
>  <Structure No>
6085

>  <LogS>
-0.2225

>  <MMFF94 Energy>
17.007

$$$$
Compound 6086
Actelion Java MolfileCreator 2.0

  0  0  0  0  0  0              0 V3000
M  V30 BEGIN CTAB
M  V30 COUNTS 13 12 0 0 0
M  V30 BEGIN ATOM
M  V30 1 S 0.0826 -0.4961 -0.6615 0
M  V30 2 O 0.1811 -1.7819 0.114 0
M  V30 3 O -0.4674 -0.7857 -2.0304 0
M  V30 4 O 1.6277 0.1731 -0.8424 0
M  V30 5 O -0.9278 0.6077 0.1372 0
M  V30 6 C 2.0935 0.5498 0.4282 0
M  V30 7 C -2.1911 0.0144 0.3006 0
M  V30 8 H 2.1511 -0.324 1.1134 0
M  V30 9 H 3.1193 0.9582 0.3211 0
M  V30 10 H 1.4589 1.3507 0.8658 0
M  V30 11 H -2.1287 -0.8904 0.9431 0
M  V30 12 H -2.6507 -0.2318 -0.6813 0
M  V30 13 H -2.8586 0.7397 0.8092 0
M  V30 END ATOM
M  V30 BEGIN BOND
M  V30 1 2 1 2
M  V30 2 2 1 3
M  V30 3 1 1 4
M  V30 4 1 1 5
M  V30 5 1 4 6
M  V30 6 1 5 7
M  V30 7 1 6 8
M  V30 8 1 6 9
M  V30 9 1 6 10
M  V30 10 1 7 11
M  V30 11 1 7 12
M  V30 12 1 7 13
M  V30 END BOND
M  V30 END CTAB
M  END
>  <Structure No>
6086

>  <LogS>
-0.6537

>  <MMFF94 Energy>
-66.133

$$$$
Compound 6087
Actelion Java MolfileCreator 2.0

  0  0  0  0  0  0              0 V3000
M  V30 BEGIN CTAB
M  V30 COUNTS 19 19 0 0 0
M  V30 BEGIN ATOM
M  V30 1 O -1.5769 1.9715 -0.3152 0
M  V30 2 C -1.2099 0.7777 -0.1328 0
M  V30 3 C 0.2391 0.467 -0.1428 0
M  V30 4 C -2.2333 -0.2788 0.0537 0
M  V30 5 C 1.1106 1.2155 -0.9548 0
M  V30 6 C 0.7736 -0.5415 0.6812 0
M  V30 7 O -1.8802 -1.6155 -0.1385 0
M  V30 8 C -3.4912 0.0311 0.3825 0
M  V30 9 C 2.4819 0.9418 -0.9627 0
M  V30 10 C 2.1458 -0.8104 0.6702 0
M  V30 11 C 2.9985 -0.072 -0.1532 0
M  V30 12 H 0.7288 2.004 -1.5918 0
M  V30 13 H 0.1379 -1.1057 1.3512 0
M  V30 14 H -2.5478 -2.37 -0.0263 0
M  V30 15 H -4.2339 -0.7461 0.5078 0
M  V30 16 H -3.7986 1.0576 0.5384 0
M  V30 17 H 3.1441 1.5172 -1.5965 0
M  V30 18 H 2.5491 -1.5873 1.3069 0
M  V30 19 H 4.0603 -0.2812 -0.1592 0
M  V30 END ATOM
M  V30 BEGIN BOND
M  V30 1 2 1 2
M  V30 2 1 2 3
M  V30 3 1 2 4
M  V30 4 2 3 5
M  V30 5 1 3 6
M  V30 6 1 4 7
M  V30 7 2 4 8
M  V30 8 1 5 9
M  V30 9 2 6 10
M  V30 10 2 9 11
M  V30 11 1 10 11
M  V30 12 1 5 12
M  V30 13 1 6 13
M  V30 14 1 7 14
M  V30 15 1 8 15
M  V30 16 1 8 16
M  V30 17 1 9 17
M  V30 18 1 10 18
M  V30 19 1 11 19
M  V30 END BOND
M  V30 END CTAB
M  END
>  <Structure No>
6087

>  <LogS>
-1.7558

>  <MMFF94 Energy>
60.697

$$$$
Compound 6088
Actelion Java MolfileCreator 2.0

  0  0  0  0  0  0              0 V3000
M  V30 BEGIN CTAB
M  V30 COUNTS 12 11 0 0 0
M  V30 BEGIN ATOM
M  V30 1 O -1.6865 0.9963 0.9196 0
M  V30 2 C -0.8194 0.2294 0.4212 0
M  V30 3 C 0.4445 0.8136 -0.0812 0
M  V30 4 C -1.1085 -1.2412 0.3603 0
M  V30 5 O 0.6197 2.1947 0.02 0
M  V30 6 C 1.4112 0.0644 -0.6229 0
M  V30 7 H -0.3462 -1.7997 0.943 0
M  V30 8 H -2.1092 -1.4595 0.7905 0
M  V30 9 H -1.0973 -1.5842 -0.6953 0
M  V30 10 H 1.4619 2.6559 -0.3053 0
M  V30 11 H 2.3236 0.5242 -0.9807 0
M  V30 12 H 1.3193 -1.0085 -0.7219 0
M  V30 END ATOM
M  V30 BEGIN BOND
M  V30 1 2 1 2
M  V30 2 1 2 3
M  V30 3 1 2 4
M  V30 4 1 3 5
M  V30 5 2 3 6
M  V30 6 1 4 7
M  V30 7 1 4 8
M  V30 8 1 4 9
M  V30 9 1 5 10
M  V30 10 1 6 11
M  V30 11 1 6 12
M  V30 END BOND
M  V30 END CTAB
M  END
>  <Structure No>
6088

>  <LogS>
0.3661

>  <MMFF94 Energy>
22.518

$$$$
Compound 6089
Actelion Java MolfileCreator 2.0

  0  0  0  0  0  0              0 V3000
M  V30 BEGIN CTAB
M  V30 COUNTS 15 14 0 0 0
M  V30 BEGIN ATOM
M  V30 1 O 0.077 -1.7724 0.4621 0
M  V30 2 C -0.212 -0.5912 0.1262 0
M  V30 3 C -1.6428 -0.2338 -0.0589 0
M  V30 4 C 0.8937 0.4201 -0.0769 0
M  V30 5 O -2.63 -1.1995 0.1394 0
M  V30 6 C -2.0306 0.9932 -0.4133 0
M  V30 7 C 2.2888 -0.1557 0.165 0
M  V30 8 H 0.8474 0.8032 -1.1189 0
M  V30 9 H 0.739 1.2713 0.6204 0
M  V30 10 H -2.4068 -2.1498 0.409 0
M  V30 11 H -3.0836 1.2125 -0.5378 0
M  V30 12 H -1.3266 1.7956 -0.5853 0
M  V30 13 H 2.4889 -0.9918 -0.5387 0
M  V30 14 H 2.38 -0.5211 1.2102 0
M  V30 15 H 3.0506 0.635 -3.0E-4 0
M  V30 END ATOM
M  V30 BEGIN BOND
M  V30 1 2 1 2
M  V30 2 1 2 3
M  V30 3 1 2 4
M  V30 4 1 3 5
M  V30 5 2 3 6
M  V30 6 1 4 7
M  V30 7 1 4 8
M  V30 8 1 4 9
M  V30 9 1 5 10
M  V30 10 1 6 11
M  V30 11 1 6 12
M  V30 12 1 7 13
M  V30 13 1 7 14
M  V30 14 1 7 15
M  V30 END BOND
M  V30 END CTAB
M  END
>  <Structure No>
6089

>  <LogS>
-0.1764

>  <MMFF94 Energy>
21.365

$$$$
Compound 6090
Actelion Java MolfileCreator 2.0

  0  0  0  0  0  0              0 V3000
M  V30 BEGIN CTAB
M  V30 COUNTS 18 17 0 0 0
M  V30 BEGIN ATOM
M  V30 1 S -3.4974 0.0831 1.3313 0 CHG=-1 VAL=2
M  V30 2 C -2.6433 -0.7461 -0.0215 0
M  V30 3 O -2.8133 -1.9814 -0.1969 0
M  V30 4 C -1.72 0.0212 -0.9189 0
M  V30 5 C -0.246 -0.2893 -0.6257 0
M  V30 6 C 0.2037 0.2581 0.7397 0
M  V30 7 C 1.6777 -0.0524 1.0331 0
M  V30 8 C 2.601 0.7149 0.1355 0
M  V30 9 S 3.4551 -0.1143 -1.2172 0 CHG=-1 VAL=2
M  V30 10 O 2.7709 1.9503 0.3112 0
M  V30 11 H -1.9422 -0.2536 -1.9726 0
M  V30 12 H -1.9058 1.1122 -0.8154 0
M  V30 13 H -0.0785 -1.3881 -0.6684 0
M  V30 14 H 0.3662 0.1782 -1.4264 0
M  V30 15 H -0.4086 -0.2093 1.5406 0
M  V30 16 H 0.0361 1.357 0.7826 0
M  V30 17 H 1.8634 -1.1433 0.9295 0
M  V30 18 H 1.8998 0.2226 2.0868 0
M  V30 END ATOM
M  V30 BEGIN BOND
M  V30 1 1 1 2
M  V30 2 2 2 3
M  V30 3 1 2 4
M  V30 4 1 4 5
M  V30 5 1 5 6
M  V30 6 1 6 7
M  V30 7 1 7 8
M  V30 8 1 8 9
M  V30 9 2 8 10
M  V30 10 1 4 11
M  V30 11 1 4 12
M  V30 12 1 5 13
M  V30 13 1 5 14
M  V30 14 1 6 15
M  V30 15 1 6 16
M  V30 16 1 7 17
M  V30 17 1 7 18
M  V30 END BOND
M  V30 END CTAB
M  END
>  <Structure No>
6090

>  <LogS>
-1.7326

>  <MMFF94 Energy>
12.224

$$$$
Compound 6091
Actelion Java MolfileCreator 2.0

  0  0  0  0  0  0              0 V3000
M  V30 BEGIN CTAB
M  V30 COUNTS 21 20 0 0 0
M  V30 BEGIN ATOM
M  V30 1 O -1.414 0.3926 -0.9425 0
M  V30 2 C -1.7484 -0.1132 0.1649 0
M  V30 3 O -0.8362 -0.8742 0.9033 0
M  V30 4 O -3.0363 0.0773 0.6709 0
M  V30 5 C 0.5075 -1.1128 0.4831 0 CFG=1
M  V30 6 C -4.0241 0.8382 -0.0138 0
M  V30 7 C 1.3179 0.1476 0.5751 0
M  V30 8 C 1.1245 -2.1974 1.3612 0
M  V30 9 O 1.2296 0.88 1.5991 0
M  V30 10 O 2.1888 0.4813 -0.4658 0
M  V30 11 C 2.9942 1.6535 -0.444 0
M  V30 12 H 0.5057 -1.4771 -0.5683 0
M  V30 13 H -3.6743 1.884 -0.1465 0
M  V30 14 H -4.9586 0.845 0.5838 0
M  V30 15 H -4.2344 0.3841 -1.0053 0
M  V30 16 H 2.1671 -2.4067 1.0389 0
M  V30 17 H 1.1289 -1.8807 2.4265 0
M  V30 18 H 0.5333 -3.1333 1.2712 0
M  V30 19 H 2.3498 2.5563 -0.3852 0
M  V30 20 H 3.6823 1.6258 0.4273 0
M  V30 21 H 3.5949 1.7004 -1.3753 0
M  V30 END ATOM
M  V30 BEGIN BOND
M  V30 1 2 1 2
M  V30 2 1 2 3
M  V30 3 1 2 4
M  V30 4 1 3 5
M  V30 5 1 4 6
M  V30 6 1 5 7
M  V30 7 1 5 8
M  V30 8 2 7 9
M  V30 9 1 7 10
M  V30 10 1 10 11
M  V30 11 1 5 12
M  V30 12 1 6 13
M  V30 13 1 6 14
M  V30 14 1 6 15
M  V30 15 1 8 16
M  V30 16 1 8 17
M  V30 17 1 8 18
M  V30 18 1 11 19
M  V30 19 1 11 20
M  V30 20 1 11 21
M  V30 END BOND
M  V30 BEGIN COLLECTION
M  V30 MDLV30/STEABS ATOMS=(1 5)
M  V30 END COLLECTION
M  V30 END CTAB
M  END
>  <Structure No>
6091

>  <LogS>
-0.6003

>  <MMFF94 Energy>
-21.952

$$$$
Compound 6092
Actelion Java MolfileCreator 2.0

  0  0  0  0  0  0              0 V3000
M  V30 BEGIN CTAB
M  V30 COUNTS 16 16 0 0 0
M  V30 BEGIN ATOM
M  V30 1 Cl 0.8524 -2.3027 1.1935 0
M  V30 2 C -0.1779 -1.0484 0.5096 0
M  V30 3 C 0.3176 0.2416 0.2206 0
M  V30 4 C -1.5255 -1.3479 0.281 0
M  V30 5 C -0.5592 1.2152 -0.3074 0
M  V30 6 C 1.7393 0.5602 0.4578 0
M  V30 7 C -2.3852 -0.3781 -0.2356 0
M  V30 8 Cl -2.0E-4 2.8271 -0.745 0
M  V30 9 C -1.9039 0.8978 -0.5299 0
M  V30 10 S 2.1554 1.6018 1.6521 0
M  V30 11 N 2.7582 -0.1125 -0.283 0
M  V30 12 H -1.9097 -2.3343 0.5079 0
M  V30 13 H -3.4265 -0.6165 -0.4105 0
M  V30 14 H -2.5777 1.6405 -0.9384 0
M  V30 15 H 3.7678 0.0731 -0.0915 0
M  V30 16 H 2.5053 -0.7881 -1.0379 0
M  V30 END ATOM
M  V30 BEGIN BOND
M  V30 1 1 1 2
M  V30 2 2 2 3
M  V30 3 1 2 4
M  V30 4 1 3 5
M  V30 5 1 3 6
M  V30 6 2 4 7
M  V30 7 1 5 8
M  V30 8 2 5 9
M  V30 9 2 6 10
M  V30 10 1 6 11
M  V30 11 1 7 9
M  V30 12 1 4 12
M  V30 13 1 7 13
M  V30 14 1 9 14
M  V30 15 1 11 15
M  V30 16 1 11 16
M  V30 END BOND
M  V30 END CTAB
M  END
>  <Structure No>
6092

>  <LogS>
-2.3363

>  <MMFF94 Energy>
18.212

$$$$
Compound 6093
Actelion Java MolfileCreator 2.0

  0  0  0  0  0  0              0 V3000
M  V30 BEGIN CTAB
M  V30 COUNTS 12 11 0 0 0
M  V30 BEGIN ATOM
M  V30 1 S 1.7342 -0.6604 -1.0733 0
M  V30 2 C 2.4849 0.3471 0.1697 0
M  V30 3 C 0.2565 -1.0419 -0.0723 0
M  V30 4 N 2.9762 1.0069 0.9835 0
M  V30 5 C -0.6518 0.1524 0.0085 0
M  V30 6 O -0.7345 0.7802 1.053 0
M  V30 7 C -1.4384 0.6042 -1.1849 0
M  V30 8 H 0.5593 -1.3756 0.9442 0
M  V30 9 H -0.2887 -1.882 -0.5511 0
M  V30 10 H -1.1434 1.64 -1.4542 0
M  V30 11 H -1.252 -0.0581 -2.0563 0
M  V30 12 H -2.5222 0.5837 -0.9457 0
M  V30 END ATOM
M  V30 BEGIN BOND
M  V30 1 1 1 2
M  V30 2 1 1 3
M  V30 3 3 2 4
M  V30 4 1 3 5
M  V30 5 2 5 6
M  V30 6 1 5 7
M  V30 7 1 3 8
M  V30 8 1 3 9
M  V30 9 1 7 10
M  V30 10 1 7 11
M  V30 11 1 7 12
M  V30 END BOND
M  V30 END CTAB
M  END
>  <Structure No>
6093

>  <LogS>
-0.2162

>  <MMFF94 Energy>
-0.71893

$$$$
Compound 6094
Actelion Java MolfileCreator 2.0

  0  0  0  0  0  0              0 V3000
M  V30 BEGIN CTAB
M  V30 COUNTS 17 16 0 0 0
M  V30 BEGIN ATOM
M  V30 1 S -0.6261 2.1478 0.3577 0
M  V30 2 C 0.2934 2.9913 -0.8943 0
M  V30 3 C -0.148 0.4672 -0.2035 0
M  V30 4 N 0.8956 3.543 -1.7138 0
M  V30 5 C 1.2568 0.1338 0.3261 0
M  V30 6 C -1.1852 -0.5507 0.2986 0
M  V30 7 S 1.928 -1.3612 -0.4808 0
M  V30 8 S -2.796 -0.2936 -0.523 0
M  V30 9 C 3.437 -1.3128 0.4349 0
M  V30 10 C -3.5812 -1.6058 0.3602 0
M  V30 11 N 4.4259 -1.2811 1.035 0
M  V30 12 N -4.0958 -2.4656 0.939 0
M  V30 13 H -0.1337 0.4374 -1.3161 0
M  V30 14 H 1.9466 0.9774 0.1098 0
M  V30 15 H 1.2225 -0.0139 1.4278 0
M  V30 16 H -0.8456 -1.5836 0.0726 0
M  V30 17 H -1.3072 -0.4538 1.3998 0
M  V30 END ATOM
M  V30 BEGIN BOND
M  V30 1 1 1 2
M  V30 2 1 1 3
M  V30 3 3 2 4
M  V30 4 1 3 5
M  V30 5 1 3 6
M  V30 6 1 5 7
M  V30 7 1 6 8
M  V30 8 1 7 9
M  V30 9 1 8 10
M  V30 10 3 9 11
M  V30 11 3 10 12
M  V30 12 1 3 13
M  V30 13 1 5 14
M  V30 14 1 5 15
M  V30 15 1 6 16
M  V30 16 1 6 17
M  V30 END BOND
M  V30 END CTAB
M  END
>  <Structure No>
6094

>  <LogS>
-1.9351

>  <MMFF94 Energy>
-10.274

$$$$
Compound 6095
Actelion Java MolfileCreator 2.0

  0  0  0  0  0  0              0 V3000
M  V30 BEGIN CTAB
M  V30 COUNTS 24 26 0 0 0
M  V30 BEGIN ATOM
M  V30 1 S 4.0238 -0.6698 -0.0837 0
M  V30 2 O 5.0061 0.1856 -0.833 0
M  V30 3 O 3.9051 -1.9945 -0.7831 0
M  V30 4 O 4.5736 -0.9124 1.4843 0 CHG=-1
M  V30 5 C 2.4548 0.1251 -0.0373 0
M  V30 6 C 1.2743 -0.6467 -0.0211 0
M  V30 7 C 2.3792 1.5399 0.0056 0
M  V30 8 C 0.0586 0.0305 0.0267 0
M  V30 9 C 1.1331 2.1925 0.0537 0
M  V30 10 C -0.0151 1.4066 0.0627 0
M  V30 11 C -1.2421 -0.409 0.0513 0
M  V30 12 O -1.2681 1.8163 0.1063 0
M  V30 13 C -2.0172 0.7309 0.0999 0
M  V30 14 C -1.8005 -1.6849 0.0354 0
M  V30 15 C -3.4077 0.6599 0.1355 0
M  V30 16 C -3.2038 -1.7813 0.0708 0
M  V30 17 C -4.0027 -0.6159 0.1206 0
M  V30 18 H 1.3058 -1.7284 -0.0425 0
M  V30 19 H 3.2844 2.1334 0.004 0
M  V30 20 H 1.0698 3.2723 0.0852 0
M  V30 21 H -1.1806 -2.5711 -0.0027 0
M  V30 22 H -4.0116 1.557 0.1736 0
M  V30 23 H -3.675 -2.7554 0.0598 0
M  V30 24 H -5.0808 -0.705 0.1474 0
M  V30 END ATOM
M  V30 BEGIN BOND
M  V30 1 2 1 2
M  V30 2 2 1 3
M  V30 3 1 1 4
M  V30 4 1 1 5
M  V30 5 2 5 6
M  V30 6 1 5 7
M  V30 7 1 6 8
M  V30 8 2 7 9
M  V30 9 2 8 10
M  V30 10 1 8 11
M  V30 11 1 10 12
M  V30 12 2 11 13
M  V30 13 1 11 14
M  V30 14 1 13 15
M  V30 15 2 14 16
M  V30 16 2 15 17
M  V30 17 1 9 10
M  V30 18 1 12 13
M  V30 19 1 16 17
M  V30 20 1 6 18
M  V30 21 1 7 19
M  V30 22 1 9 20
M  V30 23 1 14 21
M  V30 24 1 15 22
M  V30 25 1 16 23
M  V30 26 1 17 24
M  V30 END BOND
M  V30 END CTAB
M  END
>  <Structure No>
6095

>  <LogS>
-0.4655

>  <MMFF94 Energy>
55.562

$$$$
Compound 6096
Actelion Java MolfileCreator 2.0

  0  0  0  0  0  0              0 V3000
M  V30 BEGIN CTAB
M  V30 COUNTS 3 2 0 0 0
M  V30 BEGIN ATOM
M  V30 1 O 0 0 0 0
M  V30 2 C 0 0 0 0
M  V30 3 O 0 0 0 0
M  V30 END ATOM
M  V30 BEGIN BOND
M  V30 1 2 1 2
M  V30 2 2 2 3
M  V30 END BOND
M  V30 END CTAB
M  END
>  <Structure No>
6096

>  <LogS>
-1.4748

>  <MMFF94 Energy>
MMFF94 error code 2

$$$$
Compound 6097
Actelion Java MolfileCreator 2.0

  0  0  0  0  0  0              0 V3000
M  V30 BEGIN CTAB
M  V30 COUNTS 45 46 0 0 0
M  V30 BEGIN ATOM
M  V30 1 S 2.7179 2.798 0.8787 0
M  V30 2 C 1.6266 1.5825 0.8038 0
M  V30 3 O 0.3875 1.8324 0.1989 0
M  V30 4 N 1.9031 0.3254 1.4522 0
M  V30 5 C -0.4982 0.8405 -0.2435 0
M  V30 6 C 3.0846 -0.4328 1.0976 0
M  V30 7 C 0.9636 -0.1533 2.473 0
M  V30 8 C -1.8731 1.0798 -0.1534 0
M  V30 9 C -0.0425 -0.3661 -0.7931 0
M  V30 10 N 3.8515 -0.0288 0.0459 0
M  V30 11 C 3.456 -1.5985 1.7961 0
M  V30 12 C -2.8197 0.1018 -0.543 0
M  V30 13 C -0.9542 -1.3353 -1.2018 0
M  V30 14 C 4.9682 -0.6995 -0.3527 0
M  V30 15 C 4.5973 -2.3014 1.4056 0
M  V30 16 C -2.3281 -1.1123 -1.078 0
M  V30 17 C -4.327 0.4034 -0.409 0
M  V30 18 O 5.7276 -0.2447 -1.4347 0
M  V30 19 C 5.3595 -1.8529 0.3272 0
M  V30 20 C -4.7009 1.5483 -1.3735 0
M  V30 21 C -4.6513 0.8277 1.0429 0
M  V30 22 C -5.2208 -0.8159 -0.7438 0
M  V30 23 C 5.4044 0.9406 -2.1559 0
M  V30 24 H 1.4782 -0.2257 3.4543 0
M  V30 25 H 0.5627 -1.1476 2.1824 0
M  V30 26 H 0.1078 0.5447 2.5934 0
M  V30 27 H -2.1957 2.0353 0.2374 0
M  V30 28 H 1.0151 -0.5508 -0.9207 0
M  V30 29 H 2.8784 -1.9698 2.631 0
M  V30 30 H -0.5949 -2.2645 -1.6226 0
M  V30 31 H 4.89 -3.1956 1.938 0
M  V30 32 H -2.9872 -1.8989 -1.411 0
M  V30 33 H 6.2454 -2.396 0.021 0
M  V30 34 H -4.1406 2.4776 -1.1337 0
M  V30 35 H -4.4665 1.262 -2.422 0
M  V30 36 H -5.7858 1.78 -1.3086 0
M  V30 37 H -5.7458 0.9663 1.1788 0
M  V30 38 H -4.1681 1.7902 1.3108 0
M  V30 39 H -4.3062 0.0505 1.7596 0
M  V30 40 H -5.1056 -1.1199 -1.8078 0
M  V30 41 H -6.2926 -0.5693 -0.5887 0
M  V30 42 H -4.9737 -1.6801 -0.0857 0
M  V30 43 H 5.4373 1.8192 -1.4771 0
M  V30 44 H 6.1414 1.0866 -2.9709 0
M  V30 45 H 4.3905 0.8488 -2.6002 0
M  V30 END ATOM
M  V30 BEGIN BOND
M  V30 1 2 1 2
M  V30 2 1 2 3
M  V30 3 1 2 4
M  V30 4 1 3 5
M  V30 5 1 4 6
M  V30 6 1 4 7
M  V30 7 2 5 8
M  V30 8 1 5 9
M  V30 9 2 6 10
M  V30 10 1 6 11
M  V30 11 1 8 12
M  V30 12 2 9 13
M  V30 13 1 10 14
M  V30 14 2 11 15
M  V30 15 2 12 16
M  V30 16 1 12 17
M  V30 17 1 14 18
M  V30 18 2 14 19
M  V30 19 1 17 20
M  V30 20 1 17 21
M  V30 21 1 17 22
M  V30 22 1 18 23
M  V30 23 1 13 16
M  V30 24 1 15 19
M  V30 25 1 7 24
M  V30 26 1 7 25
M  V30 27 1 7 26
M  V30 28 1 8 27
M  V30 29 1 9 28
M  V30 30 1 11 29
M  V30 31 1 13 30
M  V30 32 1 15 31
M  V30 33 1 16 32
M  V30 34 1 19 33
M  V30 35 1 20 34
M  V30 36 1 20 35
M  V30 37 1 20 36
M  V30 38 1 21 37
M  V30 39 1 21 38
M  V30 40 1 21 39
M  V30 41 1 22 40
M  V30 42 1 22 41
M  V30 43 1 22 42
M  V30 44 1 23 43
M  V30 45 1 23 44
M  V30 46 1 23 45
M  V30 END BOND
M  V30 END CTAB
M  END
>  <Structure No>
6097

>  <LogS>
-6.014

>  <MMFF94 Energy>
20.826

$$$$
Compound 6098
Actelion Java MolfileCreator 2.0

  0  0  0  0  0  0              0 V3000
M  V30 BEGIN CTAB
M  V30 COUNTS 26 28 0 0 0
M  V30 BEGIN ATOM
M  V30 1 Cl -3.553 -2.3366 -0.6538 0
M  V30 2 C -2.4469 -1.0702 -0.1364 0
M  V30 3 C -2.3725 -0.5485 1.0933 0
M  V30 4 C -1.4359 -0.3304 -0.9923 0 CFG=1
M  V30 5 Cl -3.3722 -1.0026 2.468 0
M  V30 6 C -1.3266 0.5476 1.0439 0 CFG=1
M  V30 7 Cl -1.7681 -0.4284 -2.7507 0
M  V30 8 C -1.5891 1.0651 -0.3799 0
M  V30 9 C -0.0353 -0.8328 -0.489 0 CFG=2
M  V30 10 Cl -1.4985 1.7714 2.3428 0
M  V30 11 C 0.0547 -0.1881 0.9469 0 CFG=1
M  V30 12 Cl -0.4669 2.3096 -1.0106 0
M  V30 13 Cl -3.2428 1.7715 -0.5936 0
M  V30 14 C 1.1638 -0.7335 -1.4711 0
M  V30 15 C 1.2623 0.7099 1.3154 0
M  V30 16 O 1.7155 0.5559 -1.5807 0
M  V30 17 O 2.4915 0.0944 1.0119 0
M  V30 18 S 3.0021 0.6724 -0.4912 0
M  V30 19 O 4.1626 -0.1475 -0.9814 0
M  V30 20 O 3.4324 2.1076 -0.3681 0
M  V30 21 H -0.1287 -1.9354 -0.3382 0
M  V30 22 H 0.0717 -1.0173 1.6933 0
M  V30 23 H 1.921 -1.5085 -1.2035 0
M  V30 24 H 0.8333 -1.0443 -2.4816 0
M  V30 25 H 1.1758 1.7448 0.9264 0
M  V30 26 H 1.2417 0.8483 2.4175 0
M  V30 END ATOM
M  V30 BEGIN BOND
M  V30 1 1 1 2
M  V30 2 2 2 3
M  V30 3 1 2 4
M  V30 4 1 3 5
M  V30 5 1 3 6
M  V30 6 1 4 7
M  V30 7 1 4 8
M  V30 8 1 4 9
M  V30 9 1 6 10
M  V30 10 1 6 11
M  V30 11 1 8 12
M  V30 12 1 8 13
M  V30 13 1 9 14
M  V30 14 1 11 15
M  V30 15 1 14 16
M  V30 16 1 15 17
M  V30 17 1 16 18
M  V30 18 2 18 19
M  V30 19 2 18 20
M  V30 20 1 6 8
M  V30 21 1 9 11
M  V30 22 1 17 18
M  V30 23 1 9 21
M  V30 24 1 11 22
M  V30 25 1 14 23
M  V30 26 1 14 24
M  V30 27 1 15 25
M  V30 28 1 15 26
M  V30 END BOND
M  V30 BEGIN COLLECTION
M  V30 MDLV30/STEABS ATOMS=(4 4 6 9 11)
M  V30 END COLLECTION
M  V30 END CTAB
M  END
>  <Structure No>
6098

>  <LogS>
-5.945

>  <MMFF94 Energy>
16.341

$$$$
Compound 6099
Actelion Java MolfileCreator 2.0

  0  0  0  0  0  0              0 V3000
M  V30 BEGIN CTAB
M  V30 COUNTS 50 51 0 0 0
M  V30 BEGIN ATOM
M  V30 1 S 4.3678 -0.5653 -0.0807 0 CFG=1
M  V30 2 O 5.7979 -0.0945 0.1588 0
M  V30 3 O 3.5228 -0.1344 1.349 0
M  V30 4 O 3.7327 0.4779 -1.294 0
M  V30 5 C 2.8516 -1.2756 1.8391 0 CFG=2
M  V30 6 C 3.9642 1.8278 -0.9571 0
M  V30 7 C 1.5273 -1.4999 1.0737 0 CFG=2
M  V30 8 C 2.5933 -1.0807 3.3519 0
M  V30 9 C 5.0742 2.3482 -1.7613 0
M  V30 10 O 0.6994 -0.3421 1.224 0
M  V30 11 C 0.7923 -2.7684 1.5832 0
M  V30 12 C 1.3871 -1.8813 3.885 0
M  V30 13 C 5.9866 2.7749 -2.4257 0
M  V30 14 C -0.415 -0.022 0.4306 0
M  V30 15 C 1.1199 -3.1313 3.045 0
M  V30 16 C -1.1536 1.115 0.7604 0
M  V30 17 C -0.8107 -0.7938 -0.6751 0
M  V30 18 C -2.2648 1.4884 0.002 0
M  V30 19 C -1.9198 -0.4216 -1.4398 0
M  V30 20 C -2.6677 0.7371 -1.1239 0
M  V30 21 C -3.9058 1.1776 -1.9322 0
M  V30 22 C -4.1581 0.2992 -3.1818 0
M  V30 23 C -3.7217 2.6339 -2.4177 0
M  V30 24 C -5.1573 1.0921 -1.0321 0
M  V30 25 H 3.4859 -2.1892 1.7337 0
M  V30 26 H 4.1712 2.0044 0.1215 0
M  V30 27 H 3.0523 2.41 -1.2081 0
M  V30 28 H 1.7732 -1.6359 -7.0E-4 0
M  V30 29 H 2.4201 -0.0033 3.5705 0
M  V30 30 H 3.508 -1.3827 3.9087 0
M  V30 31 H 1.0662 -3.6325 0.9395 0
M  V30 32 H -0.3068 -2.6314 1.4861 0
M  V30 33 H 0.4781 -1.2387 3.8735 0
M  V30 34 H 1.5739 -2.1763 4.941 0
M  V30 35 H 6.7847 3.1493 -3.0131 0
M  V30 36 H 0.2728 -3.7014 3.4847 0
M  V30 37 H 2.0172 -3.7884 3.0762 0
M  V30 38 H -0.8653 1.7149 1.614 0
M  V30 39 H -0.2745 -1.6896 -0.9535 0
M  V30 40 H -2.8159 2.3668 0.3104 0
M  V30 41 H -2.1741 -1.0538 -2.2777 0
M  V30 42 H -4.3728 -0.7531 -2.8938 0
M  V30 43 H -5.0354 0.6699 -3.754 0
M  V30 44 H -3.2797 0.3232 -3.8636 0
M  V30 45 H -4.5801 2.952 -3.0479 0
M  V30 46 H -2.7923 2.7247 -3.0216 0
M  V30 47 H -3.658 3.3461 -1.5678 0
M  V30 48 H -5.0761 1.7751 -0.1596 0
M  V30 49 H -5.2893 0.0553 -0.6523 0
M  V30 50 H -6.0719 1.3768 -1.5969 0
M  V30 END ATOM
M  V30 BEGIN BOND
M  V30 1 2 1 2
M  V30 2 1 1 3
M  V30 3 1 1 4
M  V30 4 1 3 5
M  V30 5 1 4 6
M  V30 6 1 5 7
M  V30 7 1 5 8
M  V30 8 1 6 9
M  V30 9 1 7 10
M  V30 10 1 7 11
M  V30 11 1 8 12
M  V30 12 3 9 13
M  V30 13 1 10 14
M  V30 14 1 11 15
M  V30 15 2 14 16
M  V30 16 1 14 17
M  V30 17 1 16 18
M  V30 18 2 17 19
M  V30 19 2 18 20
M  V30 20 1 20 21
M  V30 21 1 21 22
M  V30 22 1 21 23
M  V30 23 1 21 24
M  V30 24 1 12 15
M  V30 25 1 19 20
M  V30 26 1 5 25
M  V30 27 1 6 26
M  V30 28 1 6 27
M  V30 29 1 7 28
M  V30 30 1 8 29
M  V30 31 1 8 30
M  V30 32 1 11 31
M  V30 33 1 11 32
M  V30 34 1 12 33
M  V30 35 1 12 34
M  V30 36 1 13 35
M  V30 37 1 15 36
M  V30 38 1 15 37
M  V30 39 1 16 38
M  V30 40 1 17 39
M  V30 41 1 18 40
M  V30 42 1 19 41
M  V30 43 1 22 42
M  V30 44 1 22 43
M  V30 45 1 22 44
M  V30 46 1 23 45
M  V30 47 1 23 46
M  V30 48 1 23 47
M  V30 49 1 24 48
M  V30 50 1 24 49
M  V30 51 1 24 50
M  V30 END BOND
M  V30 BEGIN COLLECTION
M  V30 MDLV30/STEABS ATOMS=(3 1 5 7)
M  V30 END COLLECTION
M  V30 END CTAB
M  END
>  <Structure No>
6099

>  <LogS>
-5.8457

>  <MMFF94 Energy>
28.193

$$$$
Compound 6100
Actelion Java MolfileCreator 2.0

  0  0  0  0  0  0              0 V3000
M  V30 BEGIN CTAB
M  V30 COUNTS 25 27 0 0 0
M  V30 BEGIN ATOM
M  V30 1 Cl 1.8703 -0.1869 -2.8999 0
M  V30 2 C 1.4385 0.0603 -1.2123 0
M  V30 3 C 1.2269 1.24 -0.6255 0
M  V30 4 C 1.3585 -0.9932 -0.1262 0 CFG=1
M  V30 5 Cl 1.3262 2.813 -1.4061 0
M  V30 6 C 1.0316 0.9652 0.8477 0 CFG=1
M  V30 7 Cl 2.1495 -2.5504 -0.5128 0
M  V30 8 C 1.9958 -0.2139 1.0272 0
M  V30 9 C -0.1354 -1.1059 0.3164 0 CFG=1
M  V30 10 Cl 1.3422 2.353 1.9346 0
M  V30 11 C -0.3611 0.289 1.0188 0 CFG=2
M  V30 12 Cl 1.9111 -1.0335 2.6306 0
M  V30 13 Cl 3.7287 0.2141 0.748 0
M  V30 14 C -1.0623 -1.5312 -0.8493 0
M  V30 15 C -1.5552 1.1855 0.5981 0
M  V30 16 O -2.4193 -1.4717 -0.478 0
M  V30 17 O -1.8149 1.1411 -0.7835 0
M  V30 18 S -3.0794 0.0122 -1.0332 0 CFG=1
M  V30 19 O -3.1417 -0.1466 -2.547 0
M  V30 20 H -0.2238 -1.9018 1.09 0
M  V30 21 H -0.509 0.1037 2.1068 0
M  V30 22 H -0.8335 -2.5914 -1.0873 0
M  V30 23 H -0.8418 -0.985 -1.7924 0
M  V30 24 H -1.3233 2.2384 0.8619 0
M  V30 25 H -2.4463 0.9402 1.224 0
M  V30 END ATOM
M  V30 BEGIN BOND
M  V30 1 1 1 2
M  V30 2 2 2 3
M  V30 3 1 2 4
M  V30 4 1 3 5
M  V30 5 1 3 6
M  V30 6 1 4 7
M  V30 7 1 4 8
M  V30 8 1 4 9
M  V30 9 1 6 10
M  V30 10 1 6 11
M  V30 11 1 8 12
M  V30 12 1 8 13
M  V30 13 1 9 14
M  V30 14 1 11 15
M  V30 15 1 14 16
M  V30 16 1 15 17
M  V30 17 1 16 18
M  V30 18 2 18 19
M  V30 19 1 6 8
M  V30 20 1 9 11
M  V30 21 1 17 18
M  V30 22 1 9 20
M  V30 23 1 11 21
M  V30 24 1 14 22
M  V30 25 1 14 23
M  V30 26 1 15 24
M  V30 27 1 15 25
M  V30 END BOND
M  V30 BEGIN COLLECTION
M  V30 MDLV30/STEABS ATOMS=(5 4 6 9 11 18)
M  V30 END COLLECTION
M  V30 END CTAB
M  END
>  <Structure No>
6100

>  <LogS>
-5.9019

>  <MMFF94 Energy>
48.448

$$$$
Compound 6101
Actelion Java MolfileCreator 2.0

  0  0  0  0  0  0              0 V3000
M  V30 BEGIN CTAB
M  V30 COUNTS 10 10 0 0 0
M  V30 BEGIN ATOM
M  V30 1 S 1.3693 -0.9412 0.6845 0
M  V30 2 O 2.4677 -0.8797 -0.3685 0
M  V30 3 O 0.9763 0.6934 0.9309 0
M  V30 4 O 0.0124 -1.4641 -0.1958 0
M  V30 5 C -0.0824 0.9126 0.047 0
M  V30 6 C -0.8698 -0.382 -0.1277 0
M  V30 7 H 0.3218 1.247 -0.9336 0
M  V30 8 H -0.7438 1.7095 0.4479 0
M  V30 9 H -1.4754 -0.3363 -1.0573 0
M  V30 10 H -1.5557 -0.5259 0.7356 0
M  V30 END ATOM
M  V30 BEGIN BOND
M  V30 1 2 1 2
M  V30 2 1 1 3
M  V30 3 1 1 4
M  V30 4 1 3 5
M  V30 5 1 4 6
M  V30 6 1 5 6
M  V30 7 1 5 7
M  V30 8 1 5 8
M  V30 9 1 6 9
M  V30 10 1 6 10
M  V30 END BOND
M  V30 END CTAB
M  END
>  <Structure No>
6101

>  <LogS>
0.2214

>  <MMFF94 Energy>
-14.415

$$$$
Compound 6102
Actelion Java MolfileCreator 2.0

  0  0  0  0  0  0              0 V3000
M  V30 BEGIN CTAB
M  V30 COUNTS 14 14 0 0 0
M  V30 BEGIN ATOM
M  V30 1 S 2.3569 1.7876 1.056 0
M  V30 2 C 1.8735 0.4929 0.167 0
M  V30 3 O 2.8413 -0.2665 -0.4887 0
M  V30 4 C 0.4407 0.1147 0.0458 0
M  V30 5 C 0.0744 -1.0025 -0.7266 0
M  V30 6 C -0.5841 0.8412 0.6838 0
M  V30 7 N -1.2319 -1.3607 -0.8467 0
M  V30 8 C -1.9168 0.4505 0.5428 0
M  V30 9 C -2.2245 -0.6649 -0.2346 0
M  V30 10 H 3.8261 -0.0361 -0.4269 0
M  V30 11 H 0.8239 -1.5935 -1.2365 0
M  V30 12 H -0.3655 1.7092 1.2911 0
M  V30 13 H -2.7046 1.0082 1.0327 0
M  V30 14 H -3.2534 -0.9782 -0.3519 0
M  V30 END ATOM
M  V30 BEGIN BOND
M  V30 1 2 1 2
M  V30 2 1 2 3
M  V30 3 1 2 4
M  V30 4 2 4 5
M  V30 5 1 4 6
M  V30 6 1 5 7
M  V30 7 2 6 8
M  V30 8 2 7 9
M  V30 9 1 8 9
M  V30 10 1 3 10
M  V30 11 1 5 11
M  V30 12 1 6 12
M  V30 13 1 8 13
M  V30 14 1 9 14
M  V30 END BOND
M  V30 END CTAB
M  END
>  <Structure No>
6102

>  <LogS>
-1.3801

>  <MMFF94 Energy>
24.808

$$$$
Compound 6103
Actelion Java MolfileCreator 2.0

  0  0  0  0  0  0              0 V3000
M  V30 BEGIN CTAB
M  V30 COUNTS 20 19 0 0 0
M  V30 BEGIN ATOM
M  V30 1 S 0.2496 1.1656 -2.4156 0
M  V30 2 C -0.2048 1.1376 -0.8383 0
M  V30 3 S 0.568 2.2776 0.3113 0
M  V30 4 O -1.2139 0.2871 -0.3701 0
M  V30 5 C 1.869 1.1484 0.9478 0 CFG=2
M  V30 6 C -1.8769 -0.6803 -1.1788 0
M  V30 7 C 2.8036 0.7156 -0.1479 0
M  V30 8 C 1.2725 -0.0322 1.7223 0
M  V30 9 C -2.8801 -1.4468 -0.3325 0
M  V30 10 O 2.6713 -0.404 -0.7107 0
M  V30 11 O 3.8003 1.5814 -0.5798 0 CHG=-1
M  V30 12 H 2.4659 1.7412 1.674 0
M  V30 13 H -2.4112 -0.1732 -2.0111 0
M  V30 14 H -1.1336 -1.3928 -1.5976 0
M  V30 15 H 0.7206 -0.7216 1.0506 0
M  V30 16 H 0.5773 0.3401 2.5041 0
M  V30 17 H 2.0841 -0.6042 2.2205 0
M  V30 18 H -3.6346 -0.7481 0.0872 0
M  V30 19 H -3.3979 -2.204 -0.9582 0
M  V30 20 H -2.3573 -1.9627 0.5004 0
M  V30 END ATOM
M  V30 BEGIN BOND
M  V30 1 2 1 2
M  V30 2 1 2 3
M  V30 3 1 2 4
M  V30 4 1 3 5
M  V30 5 1 4 6
M  V30 6 1 5 7
M  V30 7 1 5 8
M  V30 8 1 6 9
M  V30 9 2 7 10
M  V30 10 1 7 11
M  V30 11 1 5 12
M  V30 12 1 6 13
M  V30 13 1 6 14
M  V30 14 1 8 15
M  V30 15 1 8 16
M  V30 16 1 8 17
M  V30 17 1 9 18
M  V30 18 1 9 19
M  V30 19 1 9 20
M  V30 END BOND
M  V30 BEGIN COLLECTION
M  V30 MDLV30/STEABS ATOMS=(1 5)
M  V30 END COLLECTION
M  V30 END CTAB
M  END
>  <Structure No>
6103

>  <LogS>
-1.4489

>  <MMFF94 Energy>
23.797

$$$$
Compound 6104
Actelion Java MolfileCreator 2.0

  0  0  0  0  0  0              0 V3000
M  V30 BEGIN CTAB
M  V30 COUNTS 14 14 0 0 0
M  V30 BEGIN ATOM
M  V30 1 Cl -0.6922 -2.8577 -0.5191 0
M  V30 2 C -0.0498 -1.2475 -0.2147 0
M  V30 3 C -0.8927 -0.1468 0.0583 0
M  V30 4 C 1.3385 -1.0766 -0.2494 0
M  V30 5 N -2.319 -0.3129 0.096 0
M  V30 6 C -0.3122 1.1196 0.294 0
M  V30 7 C 1.9016 0.1787 -0.0152 0
M  V30 8 Cl -1.2906 2.541 0.6411 0
M  V30 9 C 1.0781 1.2725 0.2554 0
M  V30 10 Cl 3.6433 0.3816 -0.0611 0
M  V30 11 H 1.9814 -1.9223 -0.459 0
M  V30 12 H -2.769 -1.2381 -0.0747 0
M  V30 13 H -2.96 0.4853 0.2956 0
M  V30 14 H 1.5196 2.2446 0.4365 0
M  V30 END ATOM
M  V30 BEGIN BOND
M  V30 1 1 1 2
M  V30 2 2 2 3
M  V30 3 1 2 4
M  V30 4 1 3 5
M  V30 5 1 3 6
M  V30 6 2 4 7
M  V30 7 1 6 8
M  V30 8 2 6 9
M  V30 9 1 7 10
M  V30 10 1 7 9
M  V30 11 1 4 11
M  V30 12 1 5 12
M  V30 13 1 5 13
M  V30 14 1 9 14
M  V30 END BOND
M  V30 END CTAB
M  END
>  <Structure No>
6104

>  <LogS>
-3.6912

>  <MMFF94 Energy>
31.275

$$$$
Compound 6105
Actelion Java MolfileCreator 2.0

  0  0  0  0  0  0              0 V3000
M  V30 BEGIN CTAB
M  V30 COUNTS 21 21 0 0 0
M  V30 BEGIN ATOM
M  V30 1 O -1.7533 -1.1155 -2.5511 0
M  V30 2 C -1.7239 -1.1616 -1.293 0
M  V30 3 O -1.9917 -2.3644 -0.649 0 CHG=-1
M  V30 4 C -1.3431 0.0645 -0.5066 0 CFG=2
M  V30 5 C 0.1537 0.0936 -0.2645 0
M  V30 6 C -2.1302 0.1551 0.8106 0
M  V30 7 C 0.7952 -0.9383 0.4484 0
M  V30 8 C 0.9239 1.1685 -0.7453 0
M  V30 9 O -1.8335 1.3604 1.461 0
M  V30 10 C 2.1748 -0.8942 0.6697 0
M  V30 11 C 2.3035 1.2074 -0.5208 0
M  V30 12 C 2.9282 0.1773 0.1853 0
M  V30 13 H -1.6382 0.9491 -1.1155 0
M  V30 14 H -3.2208 0.1181 0.5883 0
M  V30 15 H -1.8796 -0.7011 1.4762 0
M  V30 16 H 0.2295 -1.7771 0.8328 0
M  V30 17 H 0.4586 1.9783 -1.2933 0
M  V30 18 H -2.3653 1.3599 2.2989 0
M  V30 19 H 2.6599 -1.6914 1.2177 0
M  V30 20 H 2.8884 2.0378 -0.8946 0
M  V30 21 H 3.9961 0.2097 0.358 0
M  V30 END ATOM
M  V30 BEGIN BOND
M  V30 1 2 1 2
M  V30 2 1 2 3
M  V30 3 1 2 4
M  V30 4 1 4 5
M  V30 5 1 4 6
M  V30 6 2 5 7
M  V30 7 1 5 8
M  V30 8 1 6 9
M  V30 9 1 7 10
M  V30 10 2 8 11
M  V30 11 2 10 12
M  V30 12 1 11 12
M  V30 13 1 4 13
M  V30 14 1 6 14
M  V30 15 1 6 15
M  V30 16 1 7 16
M  V30 17 1 8 17
M  V30 18 1 9 18
M  V30 19 1 10 19
M  V30 20 1 11 20
M  V30 21 1 12 21
M  V30 END BOND
M  V30 BEGIN COLLECTION
M  V30 MDLV30/STEABS ATOMS=(1 4)
M  V30 END COLLECTION
M  V30 END CTAB
M  END
>  <Structure No>
6105

>  <LogS>
-0.9305

>  <MMFF94 Energy>
49.344

$$$$
Compound 6106
Actelion Java MolfileCreator 2.0

  0  0  0  0  0  0              0 V3000
M  V30 BEGIN CTAB
M  V30 COUNTS 26 27 0 0 0
M  V30 BEGIN ATOM
M  V30 1 O -0.0816 1.4697 2.0417 0
M  V30 2 C -1.2 1.5413 1.4679 0
M  V30 3 O -2.0503 2.5918 1.7947 0 CHG=-1
M  V30 4 C -1.6283 0.514 0.4818 0
M  V30 5 C -0.7203 -0.3888 -0.1386 0
M  V30 6 C -2.9958 0.4261 0.1573 0
M  V30 7 C 0.7402 -0.3367 0.0956 0
M  V30 8 C -1.2068 -1.3618 -1.0273 0
M  V30 9 C -3.4589 -0.5404 -0.7371 0
M  V30 10 C 1.569 0.6789 -0.4576 0
M  V30 11 C 1.3075 -1.3263 0.9154 0
M  V30 12 C -2.5674 -1.4356 -1.3242 0
M  V30 13 C 1.0549 1.7341 -1.3706 0
M  V30 14 C 2.9401 0.6812 -0.1362 0
M  V30 15 C 2.6703 -1.3086 1.2104 0
M  V30 16 O -0.0555 1.6112 -1.9513 0
M  V30 17 O 1.8149 2.8713 -1.6207 0 CHG=-1
M  V30 18 C 3.4836 -0.3041 0.69 0
M  V30 19 H -3.7162 1.0974 0.608 0
M  V30 20 H -0.5254 -2.0571 -1.5028 0
M  V30 21 H -4.5142 -0.5985 -0.9713 0
M  V30 22 H 0.6869 -2.1068 1.3393 0
M  V30 23 H -2.9303 -2.1855 -2.0152 0
M  V30 24 H 3.6015 1.4394 -0.5366 0
M  V30 25 H 3.0957 -2.0724 1.8484 0
M  V30 26 H 4.5406 -0.2914 0.9226 0
M  V30 END ATOM
M  V30 BEGIN BOND
M  V30 1 2 1 2
M  V30 2 1 2 3
M  V30 3 1 2 4
M  V30 4 2 4 5
M  V30 5 1 4 6
M  V30 6 1 5 7
M  V30 7 1 5 8
M  V30 8 2 6 9
M  V30 9 2 7 10
M  V30 10 1 7 11
M  V30 11 2 8 12
M  V30 12 1 10 13
M  V30 13 1 10 14
M  V30 14 2 11 15
M  V30 15 2 13 16
M  V30 16 1 13 17
M  V30 17 2 14 18
M  V30 18 1 9 12
M  V30 19 1 15 18
M  V30 20 1 6 19
M  V30 21 1 8 20
M  V30 22 1 9 21
M  V30 23 1 11 22
M  V30 24 1 12 23
M  V30 25 1 14 24
M  V30 26 1 15 25
M  V30 27 1 18 26
M  V30 END BOND
M  V30 END CTAB
M  END
>  <Structure No>
6106

>  <LogS>
-2.2839

>  <MMFF94 Energy>
140.65

$$$$
Compound 6107
Actelion Java MolfileCreator 2.0

  0  0  0  0  0  0              0 V3000
M  V30 BEGIN CTAB
M  V30 COUNTS 17 17 0 0 0
M  V30 BEGIN ATOM
M  V30 1 O 0.391 2.1916 0.1564 0
M  V30 2 C -0.2207 0.9465 0.0127 0
M  V30 3 C 0.5618 -0.2141 -0.1521 0
M  V30 4 C -1.6201 0.847 0.0338 0
M  V30 5 C -0.0727 -1.4629 -0.2639 0
M  V30 6 C 2.0666 -0.1405 -0.144 0
M  V30 7 C -2.2399 -0.398 -0.0952 0
M  V30 8 C -1.4672 -1.5517 -0.2411 0
M  V30 9 O 2.5469 -0.2538 1.1674 0
M  V30 10 H -0.1513 3.0391 0.2773 0
M  V30 11 H -2.2278 1.7349 0.1543 0
M  V30 12 H 0.5125 -2.3682 -0.3688 0
M  V30 13 H 2.4902 -0.9695 -0.7501 0
M  V30 14 H 2.4224 0.8061 -0.6106 0
M  V30 15 H -3.3198 -0.4693 -0.0767 0
M  V30 16 H -1.9491 -2.5165 -0.3334 0
M  V30 17 H 2.4005 0.6273 1.6009 0
M  V30 END ATOM
M  V30 BEGIN BOND
M  V30 1 1 1 2
M  V30 2 2 2 3
M  V30 3 1 2 4
M  V30 4 1 3 5
M  V30 5 1 3 6
M  V30 6 2 4 7
M  V30 7 2 5 8
M  V30 8 1 6 9
M  V30 9 1 7 8
M  V30 10 1 1 10
M  V30 11 1 4 11
M  V30 12 1 5 12
M  V30 13 1 6 13
M  V30 14 1 6 14
M  V30 15 1 7 15
M  V30 16 1 8 16
M  V30 17 1 9 17
M  V30 END BOND
M  V30 END CTAB
M  END
>  <Structure No>
6107

>  <LogS>
-0.2946

>  <MMFF94 Energy>
13.457

$$$$
Compound 6108
Actelion Java MolfileCreator 2.0

  0  0  0  0  0  0              0 V3000
M  V30 BEGIN CTAB
M  V30 COUNTS 5 4 0 0 0
M  V30 BEGIN ATOM
M  V30 1 Cl 1.6666 -0.0925 0.0925 0
M  V30 2 C -0.1054 0.0016 -0.0159 0
M  V30 3 F -0.6662 -0.5363 1.1263 0
M  V30 4 F -0.4898 1.3228 -0.1392 0
M  V30 5 F -0.5376 -0.7085 -1.1194 0
M  V30 END ATOM
M  V30 BEGIN BOND
M  V30 1 1 1 2
M  V30 2 1 2 3
M  V30 3 1 2 4
M  V30 4 1 2 5
M  V30 END BOND
M  V30 END CTAB
M  END
>  <Structure No>
6108

>  <LogS>
-3.0647

>  <MMFF94 Energy>
0.5494

$$$$
Compound 6109
Actelion Java MolfileCreator 2.0

  0  0  0  0  0  0              0 V3000
M  V30 BEGIN CTAB
M  V30 COUNTS 49 48 0 0 0
M  V30 BEGIN ATOM
M  V30 1 O 2.5546 1.8356 2.0753 0
M  V30 2 C 3.4809 1.5606 1.2656 0
M  V30 3 O 3.1954 1.1923 -0.054 0
M  V30 4 C 4.9009 1.6686 1.7052 0
M  V30 5 C 1.8698 1.0333 -0.5615 0 CFG=1
M  V30 6 C 1.9242 1.11 -2.0629 0
M  V30 7 C 1.2565 -0.3034 -0.0696 0 CFG=2
M  V30 8 O 2.6329 0.3476 -2.7014 0
M  V30 9 O 2.085 -1.3943 -0.4863 0
M  V30 10 C -0.1933 -0.5692 -0.5743 0 CFG=1
M  V30 11 C 3.1212 -1.9352 0.2832 0
M  V30 12 O -0.5516 -1.9293 -0.2846 0
M  V30 13 C -1.2636 0.4314 -0.0195 0 CFG=2
M  V30 14 O 3.3253 -1.5451 1.4646 0
M  V30 15 C 3.9516 -3.0342 -0.2851 0
M  V30 16 C -0.6627 -2.4837 0.9993 0
M  V30 17 O -2.4801 -0.2329 0.3538 0
M  V30 18 C -1.5807 1.5813 -0.9957 0
M  V30 19 O -0.5266 -1.7721 2.0312 0
M  V30 20 C -1.0209 -3.9232 1.1415 0
M  V30 21 C -3.3192 -0.9413 -0.5189 0
M  V30 22 O -2.6054 2.405 -0.447 0
M  V30 23 O -3.0378 -1.0598 -1.7419 0
M  V30 24 C -4.5774 -1.5423 0.007 0
M  V30 25 C -3.1074 3.5271 -1.1113 0
M  V30 26 O -2.6423 3.8749 -2.2308 0
M  V30 27 C -4.1725 4.3474 -0.4668 0
M  V30 28 H 5.2291 2.7266 1.6417 0
M  V30 29 H 5.5472 1.0451 1.0524 0
M  V30 30 H 5.0028 1.3122 2.7517 0
M  V30 31 H 1.256 1.8799 -0.1922 0
M  V30 32 H 1.3377 1.8571 -2.5882 0
M  V30 33 H 1.2209 -0.2688 1.0396 0
M  V30 34 H -0.1863 -0.4951 -1.6829 0
M  V30 35 H -0.8643 0.8951 0.9084 0
M  V30 36 H 3.3953 -3.9912 -0.212 0
M  V30 37 H 4.9088 -3.1247 0.271 0
M  V30 38 H 4.176 -2.8201 -1.351 0
M  V30 39 H -0.6844 2.203 -1.1762 0
M  V30 40 H -1.916 1.181 -1.9755 0
M  V30 41 H -2.1232 -4.0224 1.2238 0
M  V30 42 H -0.5441 -4.3487 2.0495 0
M  V30 43 H -0.6689 -4.4889 0.2536 0
M  V30 44 H -4.7837 -2.5055 -0.5058 0
M  V30 45 H -4.4798 -1.7315 1.0966 0
M  V30 46 H -5.4219 -0.8439 -0.1677 0
M  V30 47 H -3.714 5.2313 0.0243 0
M  V30 48 H -4.9034 4.6888 -1.2307 0
M  V30 49 H -4.7093 3.7422 0.2936 0
M  V30 END ATOM
M  V30 BEGIN BOND
M  V30 1 2 1 2
M  V30 2 1 2 3
M  V30 3 1 2 4
M  V30 4 1 3 5
M  V30 5 1 5 6
M  V30 6 1 5 7
M  V30 7 2 6 8
M  V30 8 1 7 9
M  V30 9 1 7 10
M  V30 10 1 9 11
M  V30 11 1 10 12
M  V30 12 1 10 13
M  V30 13 2 11 14
M  V30 14 1 11 15
M  V30 15 1 12 16
M  V30 16 1 13 17
M  V30 17 1 13 18
M  V30 18 2 16 19
M  V30 19 1 16 20
M  V30 20 1 17 21
M  V30 21 1 18 22
M  V30 22 2 21 23
M  V30 23 1 21 24
M  V30 24 1 22 25
M  V30 25 2 25 26
M  V30 26 1 25 27
M  V30 27 1 4 28
M  V30 28 1 4 29
M  V30 29 1 4 30
M  V30 30 1 5 31
M  V30 31 1 6 32
M  V30 32 1 7 33
M  V30 33 1 10 34
M  V30 34 1 13 35
M  V30 35 1 15 36
M  V30 36 1 15 37
M  V30 37 1 15 38
M  V30 38 1 18 39
M  V30 39 1 18 40
M  V30 40 1 20 41
M  V30 41 1 20 42
M  V30 42 1 20 43
M  V30 43 1 24 44
M  V30 44 1 24 45
M  V30 45 1 24 46
M  V30 46 1 27 47
M  V30 47 1 27 48
M  V30 48 1 27 49
M  V30 END BOND
M  V30 BEGIN COLLECTION
M  V30 MDLV30/STEABS ATOMS=(4 5 7 10 13)
M  V30 END COLLECTION
M  V30 END CTAB
M  END
>  <Structure No>
6109

>  <LogS>
-2.4154

>  <MMFF94 Energy>
-19.66

$$$$
Compound 6110
Actelion Java MolfileCreator 2.0

  0  0  0  0  0  0              0 V3000
M  V30 BEGIN CTAB
M  V30 COUNTS 19 19 0 0 0
M  V30 BEGIN ATOM
M  V30 1 O 2.7478 -1.648 0.0784 0
M  V30 2 C 2.2513 -0.501 0.2479 0
M  V30 3 C 0.7766 -0.3167 0.175 0
M  V30 4 C 3.1807 0.6438 0.5195 0
M  V30 5 C 0.1858 0.9492 0.359 0
M  V30 6 C -0.0596 -1.4199 -0.0823 0
M  V30 7 C -1.2017 1.1038 0.2869 0
M  V30 8 C -1.4466 -1.2617 -0.1535 0
M  V30 9 C -2.0241 2.0E-4 0.0306 0
M  V30 10 N -3.4432 0.1607 -0.0426 0
M  V30 11 H 2.9472 1.0928 1.5075 0
M  V30 12 H 4.2353 0.2952 0.5329 0
M  V30 13 H 3.0753 1.4116 -0.2752 0
M  V30 14 H 0.7883 1.825 0.5588 0
M  V30 15 H 0.3571 -2.4084 -0.2291 0
M  V30 16 H -1.6361 2.0852 0.4312 0
M  V30 17 H -2.0711 -2.1235 -0.3525 0
M  V30 18 H -3.883 1.0982 0.0935 0
M  V30 19 H -4.0646 -0.6566 -0.2333 0
M  V30 END ATOM
M  V30 BEGIN BOND
M  V30 1 2 1 2
M  V30 2 1 2 3
M  V30 3 1 2 4
M  V30 4 2 3 5
M  V30 5 1 3 6
M  V30 6 1 5 7
M  V30 7 2 6 8
M  V30 8 2 7 9
M  V30 9 1 9 10
M  V30 10 1 8 9
M  V30 11 1 4 11
M  V30 12 1 4 12
M  V30 13 1 4 13
M  V30 14 1 5 14
M  V30 15 1 6 15
M  V30 16 1 7 16
M  V30 17 1 8 17
M  V30 18 1 10 18
M  V30 19 1 10 19
M  V30 END BOND
M  V30 END CTAB
M  END
>  <Structure No>
6110

>  <LogS>
-1.6058

>  <MMFF94 Energy>
25.727

$$$$
Compound 6111
Actelion Java MolfileCreator 2.0

  0  0  0  0  0  0              0 V3000
M  V30 BEGIN CTAB
M  V30 COUNTS 34 34 0 0 0
M  V30 BEGIN ATOM
M  V30 1 N 1.1676 0.6226 0.0 0 CHG=1
M  V30 2 C 0.0317 1.3769 -0.0958 0
M  V30 3 C 1.0866 -0.7364 0.1218 0
M  V30 4 N -1.1779 0.758 -0.0684 0
M  V30 5 N 0.0893 2.8177 -0.2256 0
M  V30 6 N -0.1372 -1.3267 0.1464 0
M  V30 7 N 2.2736 -1.5585 0.2252 0
M  V30 8 C -1.2718 -0.5895 0.052 0
M  V30 9 C 1.3722 3.5289 -0.2594 0
M  V30 10 C -1.1642 3.5741 -0.3246 0
M  V30 11 C 2.1233 -3.0125 0.3542 0
M  V30 12 C 3.6155 -0.9652 0.2031 0
M  V30 13 N -2.5614 -1.2303 0.0795 0
M  V30 14 C -2.6462 -2.688 0.2102 0
M  V30 15 C -3.7785 -0.4195 -0.0234 0
M  V30 16 H 2.0993 1.0855 -0.0197 0
M  V30 17 H 1.9728 3.1805 -1.1259 0
M  V30 18 H 1.9292 3.3451 0.6833 0
M  V30 19 H 1.2342 4.6255 -0.3624 0
M  V30 20 H -0.9849 4.6655 -0.4197 0
M  V30 21 H -1.7775 3.4038 0.5855 0
M  V30 22 H -1.7342 3.2396 -1.2172 0
M  V30 23 H 1.5865 -3.4135 -0.5312 0
M  V30 24 H 1.5434 -3.2492 1.2713 0
M  V30 25 H 3.1043 -3.5271 0.4246 0
M  V30 26 H 3.7728 -0.4262 -0.7547 0
M  V30 27 H 4.4094 -1.7357 0.2923 0
M  V30 28 H 3.7297 -0.2614 1.0544 0
M  V30 29 H -2.1673 -3.007 1.1601 0
M  V30 30 H -3.6989 -3.0403 0.2172 0
M  V30 31 H -2.1241 -3.1711 -0.6423 0
M  V30 32 H -3.8193 0.3028 0.8191 0
M  V30 33 H -4.6946 -1.0455 0.0117 0
M  V30 34 H -3.7762 0.1387 -0.9833 0
M  V30 END ATOM
M  V30 BEGIN BOND
M  V30 1 2 1 2
M  V30 2 1 1 3
M  V30 3 1 2 4
M  V30 4 1 2 5
M  V30 5 2 3 6
M  V30 6 1 3 7
M  V30 7 2 4 8
M  V30 8 1 5 9
M  V30 9 1 5 10
M  V30 10 1 7 11
M  V30 11 1 7 12
M  V30 12 1 8 13
M  V30 13 1 13 14
M  V30 14 1 13 15
M  V30 15 1 6 8
M  V30 16 1 1 16
M  V30 17 1 9 17
M  V30 18 1 9 18
M  V30 19 1 9 19
M  V30 20 1 10 20
M  V30 21 1 10 21
M  V30 22 1 10 22
M  V30 23 1 11 23
M  V30 24 1 11 24
M  V30 25 1 11 25
M  V30 26 1 12 26
M  V30 27 1 12 27
M  V30 28 1 12 28
M  V30 29 1 14 29
M  V30 30 1 14 30
M  V30 31 1 14 31
M  V30 32 1 15 32
M  V30 33 1 15 33
M  V30 34 1 15 34
M  V30 END BOND
M  V30 END CTAB
M  END
>  <Structure No>
6111

>  <LogS>
-3.3638

>  <MMFF94 Energy>
-195.43

$$$$
Compound 6112
Actelion Java MolfileCreator 2.0

  0  0  0  0  0  0              0 V3000
M  V30 BEGIN CTAB
M  V30 COUNTS 11 11 0 0 0
M  V30 BEGIN ATOM
M  V30 1 O 3.0789 0.4732 -0.1577 0
M  V30 2 C 1.9119 0.0063 -0.0964 0
M  V30 3 N 1.6355 -1.3088 -0.0538 0 CHG=-1
M  V30 4 C 0.7576 0.7536 -0.0663 0
M  V30 5 O 0.3379 -1.4022 0.0021 0
M  V30 6 C -0.2238 -0.2131 9.0E-4 0
M  V30 7 C -1.6949 0.028 0.0371 0
M  V30 8 H 0.6468 1.8298 -0.0919 0
M  V30 9 H -2.0431 0.3481 -0.9667 0
M  V30 10 H -2.2241 -0.9038 0.3264 0
M  V30 11 H -1.929 0.8211 0.7778 0
M  V30 END ATOM
M  V30 BEGIN BOND
M  V30 1 2 1 2
M  V30 2 1 2 3
M  V30 3 1 2 4
M  V30 4 1 3 5
M  V30 5 2 4 6
M  V30 6 1 6 7
M  V30 7 1 5 6
M  V30 8 1 4 8
M  V30 9 1 7 9
M  V30 10 1 7 10
M  V30 11 1 7 11
M  V30 END BOND
M  V30 END CTAB
M  END
>  <Structure No>
6112

>  <LogS>
-0.0666

>  <MMFF94 Energy>
3.3913

$$$$
Compound 6113
Actelion Java MolfileCreator 2.0

  0  0  0  0  0  0              0 V3000
M  V30 BEGIN CTAB
M  V30 COUNTS 24 25 0 0 0
M  V30 BEGIN ATOM
M  V30 1 S 3.1326 -1.2842 -1.2039 0
M  V30 2 C 3.0943 -0.1244 -0.0418 0
M  V30 3 N 1.8476 0.356 0.4877 0
M  V30 4 N 4.3131 0.5096 0.3462 0
M  V30 5 C 0.6054 -0.3631 0.3957 0
M  V30 6 C -0.582 0.282 -0.0263 0
M  V30 7 C 0.5547 -1.7093 0.7936 0
M  V30 8 C -1.8017 -0.4461 -0.0492 0
M  V30 9 C -0.5843 1.6268 -0.4489 0
M  V30 10 C -0.6468 -2.4168 0.7628 0
M  V30 11 C -1.8207 -1.7912 0.345 0
M  V30 12 C -2.9847 0.1815 -0.47 0
M  V30 13 C -1.7707 2.2364 -0.8655 0
M  V30 14 C -2.9666 1.5177 -0.8734 0
M  V30 15 H 1.85 1.2719 0.9903 0
M  V30 16 H 5.2262 0.2088 -0.0615 0
M  V30 17 H 4.3076 1.2782 1.0527 0
M  V30 18 H 1.4492 -2.2069 1.1462 0
M  V30 19 H 0.3251 2.2122 -0.472 0
M  V30 20 H -0.6697 -3.4537 1.0727 0
M  V30 21 H -2.744 -2.3583 0.3315 0
M  V30 22 H -3.9222 -0.3618 -0.489 0
M  V30 23 H -1.7618 3.2699 -1.1873 0
M  V30 24 H -3.8816 1.9961 -1.1982 0
M  V30 END ATOM
M  V30 BEGIN BOND
M  V30 1 2 1 2
M  V30 2 1 2 3
M  V30 3 1 2 4
M  V30 4 1 3 5
M  V30 5 1 5 6
M  V30 6 2 5 7
M  V30 7 1 6 8
M  V30 8 2 6 9
M  V30 9 1 7 10
M  V30 10 1 8 11
M  V30 11 2 8 12
M  V30 12 1 9 13
M  V30 13 1 12 14
M  V30 14 2 10 11
M  V30 15 2 13 14
M  V30 16 1 3 15
M  V30 17 1 4 16
M  V30 18 1 4 17
M  V30 19 1 7 18
M  V30 20 1 9 19
M  V30 21 1 10 20
M  V30 22 1 11 21
M  V30 23 1 12 22
M  V30 24 1 13 23
M  V30 25 1 14 24
M  V30 END BOND
M  V30 END CTAB
M  END
>  <Structure No>
6113

>  <LogS>
-2.5278

>  <MMFF94 Energy>
-17.446

$$$$
Compound 6114
Actelion Java MolfileCreator 2.0

  0  0  0  0  0  0              0 V3000
M  V30 BEGIN CTAB
M  V30 COUNTS 18 18 0 0 0
M  V30 BEGIN ATOM
M  V30 1 S -3.9795 0.5564 -0.5564 0
M  V30 2 C -2.4962 0.3323 0.0987 0
M  V30 3 N -1.5233 -0.4472 -0.6129 0
M  V30 4 N -2.2452 0.7814 1.4332 0
M  V30 5 C -0.1044 -0.3417 -0.4105 0
M  V30 6 C 0.4951 0.8804 -0.0533 0
M  V30 7 C 0.7098 -1.4622 -0.6375 0
M  V30 8 C 1.8814 0.9644 0.1094 0
M  V30 9 C 2.0957 -1.3743 -0.4734 0
M  V30 10 C 2.6808 -0.1627 -0.0964 0
M  V30 11 H -1.8693 -1.14 -1.3151 0
M  V30 12 H -2.956 1.3511 1.9439 0
M  V30 13 H -1.38 0.4971 1.9425 0
M  V30 14 H -0.1043 1.7711 0.0824 0
M  V30 15 H 0.2679 -2.4056 -0.9328 0
M  V30 16 H 2.3369 1.9061 0.3877 0
M  V30 17 H 2.7163 -2.2451 -0.641 0
M  V30 18 H 3.7537 -0.0955 0.0284 0
M  V30 END ATOM
M  V30 BEGIN BOND
M  V30 1 2 1 2
M  V30 2 1 2 3
M  V30 3 1 2 4
M  V30 4 1 3 5
M  V30 5 2 5 6
M  V30 6 1 5 7
M  V30 7 1 6 8
M  V30 8 2 7 9
M  V30 9 2 8 10
M  V30 10 1 9 10
M  V30 11 1 3 11
M  V30 12 1 4 12
M  V30 13 1 4 13
M  V30 14 1 6 14
M  V30 15 1 7 15
M  V30 16 1 8 16
M  V30 17 1 9 17
M  V30 18 1 10 18
M  V30 END BOND
M  V30 END CTAB
M  END
>  <Structure No>
6114

>  <LogS>
-1.7898

>  <MMFF94 Energy>
-41.28

$$$$
Compound 6115
Actelion Java MolfileCreator 2.0

  0  0  0  0  0  0              0 V3000
M  V30 BEGIN CTAB
M  V30 COUNTS 22 24 0 0 0
M  V30 BEGIN ATOM
M  V30 1 Cl -4.8469 1.9368 1.2322 0
M  V30 2 C -3.4792 0.9621 0.7115 0
M  V30 3 C -3.6638 -0.3265 0.1765 0
M  V30 4 C -2.1865 1.4875 0.8359 0
M  V30 5 Cl -5.2706 -1.0201 0.0048 0
M  V30 6 C -2.5542 -1.079 -0.2294 0
M  V30 7 C -1.0818 0.7345 0.4299 0
M  V30 8 C -1.2661 -0.5521 -0.1042 0
M  V30 9 O 0.2136 1.2522 0.5508 0
M  V30 10 O -0.1516 -1.2975 -0.5077 0
M  V30 11 C 1.3282 0.5069 0.1472 0
M  V30 12 C 1.1438 -0.7797 -0.3868 0
M  V30 13 C 2.6163 1.0337 0.2726 0
M  V30 14 C 2.2486 -1.5327 -0.7927 0
M  V30 15 C 3.7258 0.2814 -0.1335 0
M  V30 16 C 3.5413 -1.0073 -0.6684 0
M  V30 17 Cl 5.3325 0.9749 0.0383 0
M  V30 18 Cl 4.909 -1.982 -1.1891 0
M  V30 19 H -2.0397 2.4784 1.2468 0
M  V30 20 H -2.6913 -2.0708 -0.6415 0
M  V30 21 H 2.7532 2.0256 0.6847 0
M  V30 22 H 2.1016 -2.5235 -1.2037 0
M  V30 END ATOM
M  V30 BEGIN BOND
M  V30 1 1 1 2
M  V30 2 2 2 3
M  V30 3 1 2 4
M  V30 4 1 3 5
M  V30 5 1 3 6
M  V30 6 2 4 7
M  V30 7 2 6 8
M  V30 8 1 7 9
M  V30 9 1 8 10
M  V30 10 1 9 11
M  V30 11 1 10 12
M  V30 12 1 11 13
M  V30 13 1 12 14
M  V30 14 2 13 15
M  V30 15 2 14 16
M  V30 16 1 15 17
M  V30 17 1 16 18
M  V30 18 1 7 8
M  V30 19 2 11 12
M  V30 20 1 15 16
M  V30 21 1 4 19
M  V30 22 1 6 20
M  V30 23 1 13 21
M  V30 24 1 14 22
M  V30 END BOND
M  V30 END CTAB
M  END
>  <Structure No>
6115

>  <LogS>
-9.2068

>  <MMFF94 Energy>
44.783

$$$$
Compound 6116
Actelion Java MolfileCreator 2.0

  0  0  0  0  0  0              0 V3000
M  V30 BEGIN CTAB
M  V30 COUNTS 22 24 0 0 0
M  V30 BEGIN ATOM
M  V30 1 Cl -4.8632 -2.2867 -0.4761 0
M  V30 2 C -3.47 -1.2107 -0.3538 0
M  V30 3 C -3.6516 0.1866 -0.3678 0
M  V30 4 C -2.1751 -1.7492 -0.2421 0
M  V30 5 Cl -5.273 0.8685 -0.5075 0
M  V30 6 C -2.5374 1.0402 -0.2699 0
M  V30 7 Cl -1.9168 -3.4918 -0.2218 0
M  V30 8 C -1.0712 -0.8942 -0.1451 0
M  V30 9 Cl -2.7327 2.7912 -0.2846 0
M  V30 10 C -1.252 0.4977 -0.159 0
M  V30 11 O 0.2241 -1.4151 -0.0333 0
M  V30 12 O -0.1329 1.3343 -0.0608 0
M  V30 13 C 1.3433 -0.5785 0.0648 0
M  V30 14 C 1.1625 0.8134 0.0509 0
M  V30 15 C 2.6286 -1.121 0.1757 0
M  V30 16 C 2.2663 1.6684 0.1479 0
M  V30 17 Cl 2.8239 -2.8719 0.1904 0
M  V30 18 C 3.7429 -0.2674 0.2735 0
M  V30 19 Cl 2.008 3.4111 0.1277 0
M  V30 20 C 3.5613 1.1299 0.2596 0
M  V30 21 Cl 5.3642 -0.9492 0.4134 0
M  V30 22 Cl 4.9545 2.2058 0.3818 0
M  V30 END ATOM
M  V30 BEGIN BOND
M  V30 1 1 1 2
M  V30 2 2 2 3
M  V30 3 1 2 4
M  V30 4 1 3 5
M  V30 5 1 3 6
M  V30 6 1 4 7
M  V30 7 2 4 8
M  V30 8 1 6 9
M  V30 9 2 6 10
M  V30 10 1 8 11
M  V30 11 1 10 12
M  V30 12 1 11 13
M  V30 13 1 12 14
M  V30 14 1 13 15
M  V30 15 1 14 16
M  V30 16 1 15 17
M  V30 17 2 15 18
M  V30 18 1 16 19
M  V30 19 2 16 20
M  V30 20 1 18 21
M  V30 21 1 20 22
M  V30 22 1 8 10
M  V30 23 2 13 14
M  V30 24 1 18 20
M  V30 END BOND
M  V30 END CTAB
M  END
>  <Structure No>
6116

>  <LogS>
-12.0605

>  <MMFF94 Energy>
78.429

$$$$
Compound 6117
Actelion Java MolfileCreator 2.0

  0  0  0  0  0  0              0 V3000
M  V30 BEGIN CTAB
M  V30 COUNTS 22 24 0 0 0
M  V30 BEGIN ATOM
M  V30 1 Cl 2.0237 3.4332 0.0879 0
M  V30 2 C 2.2209 1.6886 0.0604 0
M  V30 3 C 1.1016 0.8456 0.0527 0
M  V30 4 C 3.5076 1.1364 0.0459 0
M  V30 5 O -0.195 1.3759 0.067 0
M  V30 6 C 1.2745 -0.5501 0.0305 0
M  V30 7 C 3.6779 -0.2534 0.0239 0
M  V30 8 C -1.3186 0.541 0.0595 0
M  V30 9 O 0.1509 -1.385 0.0231 0
M  V30 10 C 2.5609 -1.0964 0.0163 0
M  V30 11 Cl 5.2925 -0.9382 0.0059 0
M  V30 12 C -1.1457 -0.8547 0.0374 0
M  V30 13 C -2.6051 1.0875 0.0739 0
M  V30 14 C -2.265 -1.6977 0.0298 0
M  V30 15 C -3.7222 0.2444 0.0663 0
M  V30 16 Cl -2.0678 -3.4423 0.0023 0
M  V30 17 C -3.5518 -1.1453 0.0442 0
M  V30 18 Cl -5.3369 0.9294 0.0843 0
M  V30 19 H 4.3738 1.786 0.0519 0
M  V30 20 H 2.6902 -2.1711 -7.0E-4 0
M  V30 21 H -2.7345 2.1623 0.091 0
M  V30 22 H -4.4182 -1.7947 0.0385 0
M  V30 END ATOM
M  V30 BEGIN BOND
M  V30 1 1 1 2
M  V30 2 2 2 3
M  V30 3 1 2 4
M  V30 4 1 3 5
M  V30 5 1 3 6
M  V30 6 2 4 7
M  V30 7 1 5 8
M  V30 8 1 6 9
M  V30 9 2 6 10
M  V30 10 1 7 11
M  V30 11 2 8 12
M  V30 12 1 8 13
M  V30 13 1 12 14
M  V30 14 2 13 15
M  V30 15 1 14 16
M  V30 16 2 14 17
M  V30 17 1 15 18
M  V30 18 1 7 10
M  V30 19 1 9 12
M  V30 20 1 15 17
M  V30 21 1 4 19
M  V30 22 1 10 20
M  V30 23 1 13 21
M  V30 24 1 17 22
M  V30 END BOND
M  V30 END CTAB
M  END
>  <Structure No>
6117

>  <LogS>
-9.0027

>  <MMFF94 Energy>
30.416

$$$$
Compound 6118
Actelion Java MolfileCreator 2.0

  0  0  0  0  0  0              0 V3000
M  V30 BEGIN CTAB
M  V30 COUNTS 22 24 0 0 0
M  V30 BEGIN ATOM
M  V30 1 Cl 4.9891 -1.9427 0.1688 0
M  V30 2 C 3.5436 -0.9551 0.2783 0
M  V30 3 C 2.2802 -1.5486 0.1641 0
M  V30 4 C 3.6534 0.4269 0.4801 0
M  V30 5 C 1.1288 -0.7598 0.2516 0
M  V30 6 C 2.5027 1.2181 0.5679 0
M  V30 7 O -0.1404 -1.3406 0.139 0
M  V30 8 C 1.2403 0.6278 0.4541 0
M  V30 9 C -1.3 -0.5603 0.2252 0
M  V30 10 O 0.0807 1.408 0.5403 0
M  V30 11 C -1.1885 0.8272 0.4277 0
M  V30 12 C -2.5623 -1.1506 0.1114 0
M  V30 13 C -2.3398 1.616 0.5153 0
M  V30 14 C -3.7131 -0.3594 0.1993 0
M  V30 15 C -3.6032 1.0225 0.401 0
M  V30 16 Cl -5.0488 2.0102 0.5105 0
M  V30 17 H 2.1924 -2.6163 0.0082 0
M  V30 18 H 4.6288 0.888 0.5687 0
M  V30 19 H 2.5914 2.2856 0.7238 0
M  V30 20 H -2.6512 -2.2181 -0.0443 0
M  V30 21 H -2.2521 2.6838 0.6712 0
M  V30 22 H -4.6885 -0.8205 0.1107 0
M  V30 END ATOM
M  V30 BEGIN BOND
M  V30 1 1 1 2
M  V30 2 2 2 3
M  V30 3 1 2 4
M  V30 4 1 3 5
M  V30 5 2 4 6
M  V30 6 1 5 7
M  V30 7 2 5 8
M  V30 8 1 7 9
M  V30 9 1 8 10
M  V30 10 2 9 11
M  V30 11 1 9 12
M  V30 12 1 11 13
M  V30 13 2 12 14
M  V30 14 2 13 15
M  V30 15 1 15 16
M  V30 16 1 6 8
M  V30 17 1 10 11
M  V30 18 1 14 15
M  V30 19 1 3 17
M  V30 20 1 4 18
M  V30 21 1 6 19
M  V30 22 1 12 20
M  V30 23 1 13 21
M  V30 24 1 14 22
M  V30 END BOND
M  V30 END CTAB
M  END
>  <Structure No>
6118

>  <LogS>
-7.8292

>  <MMFF94 Energy>
36.731

$$$$
Compound 6119
Actelion Java MolfileCreator 2.0

  0  0  0  0  0  0              0 V3000
M  V30 BEGIN CTAB
M  V30 COUNTS 22 24 0 0 0
M  V30 BEGIN ATOM
M  V30 1 Cl -5.2298 0.7329 1.0078 0
M  V30 2 C -3.6591 0.3297 0.3122 0
M  V30 3 C -3.5769 -0.1903 -0.9947 0
M  V30 4 C -2.4868 0.5283 1.0642 0
M  V30 5 Cl -5.044 -0.4413 -1.9423 0
M  V30 6 C -2.3224 -0.5103 -1.5452 0
M  V30 7 Cl -2.5595 1.1771 2.7006 0
M  V30 8 C -1.2416 0.2081 0.5112 0
M  V30 9 Cl -2.1891 -1.162 -3.1766 0
M  V30 10 C -1.1594 -0.3106 -0.7923 0
M  V30 11 O -0.0653 0.4008 1.249 0
M  V30 12 O 0.0971 -0.625 -1.3282 0
M  V30 13 C 1.1878 0.0862 0.7119 0
M  V30 14 C 1.2697 -0.4318 -0.5896 0
M  V30 15 C 2.3507 0.2842 1.4606 0
M  V30 16 C 2.5144 -0.7503 -1.1386 0
M  V30 17 C 3.6006 -0.0337 0.9141 0
M  V30 18 C 3.6829 -0.5533 -0.3912 0
M  V30 19 Cl 5.0442 0.2277 1.8834 0
M  V30 20 Cl 5.2329 -0.9646 -1.1122 0
M  V30 21 H 2.2818 0.6842 2.4645 0
M  V30 22 H 2.5722 -1.1497 -2.1432 0
M  V30 END ATOM
M  V30 BEGIN BOND
M  V30 1 1 1 2
M  V30 2 2 2 3
M  V30 3 1 2 4
M  V30 4 1 3 5
M  V30 5 1 3 6
M  V30 6 1 4 7
M  V30 7 2 4 8
M  V30 8 1 6 9
M  V30 9 2 6 10
M  V30 10 1 8 11
M  V30 11 1 10 12
M  V30 12 1 11 13
M  V30 13 1 12 14
M  V30 14 1 13 15
M  V30 15 1 14 16
M  V30 16 2 15 17
M  V30 17 2 16 18
M  V30 18 1 17 19
M  V30 19 1 18 20
M  V30 20 1 8 10
M  V30 21 2 13 14
M  V30 22 1 17 18
M  V30 23 1 15 21
M  V30 24 1 16 22
M  V30 END BOND
M  V30 END CTAB
M  END
>  <Structure No>
6119

>  <LogS>
-10.9486

>  <MMFF94 Energy>
61.104

$$$$
Compound 6120
Actelion Java MolfileCreator 2.0

  0  0  0  0  0  0              0 V3000
M  V30 BEGIN CTAB
M  V30 COUNTS 22 24 0 0 0
M  V30 BEGIN ATOM
M  V30 1 Cl -5.0376 1.887 0.7186 0
M  V30 2 C -3.5652 1.0297 0.2602 0
M  V30 3 C -3.6162 0.0 -0.7 0
M  V30 4 C -2.338 1.3751 0.855 0
M  V30 5 Cl -5.1526 -0.4375 -1.4491 0
M  V30 6 C -2.4397 -0.681 -1.0624 0
M  V30 7 Cl -2.2445 2.6584 2.0585 0
M  V30 8 C -1.1706 0.6942 0.4906 0
M  V30 9 Cl -2.4734 -1.9725 -2.26 0
M  V30 10 C -1.2215 -0.3329 -0.4672 0
M  V30 11 O 0.0588 1.0282 1.0753 0
M  V30 12 O -0.0416 -1.003 -0.8189 0
M  V30 13 C 1.2354 0.3582 0.7231 0
M  V30 14 C 1.1845 -0.6682 -0.2341 0
M  V30 15 C 2.454 0.7032 1.3156 0
M  V30 16 C 2.3525 -1.3461 -0.5955 0
M  V30 17 C 3.6235 0.0237 0.9528 0
M  V30 18 C 3.5715 -1.0 -0.0021 0
M  V30 19 Cl 5.1535 0.4544 1.6944 0
M  V30 20 H 2.4906 1.495 2.0533 0
M  V30 21 H 2.3157 -2.1374 -1.333 0
M  V30 22 H 4.4738 -1.527 -0.2843 0
M  V30 END ATOM
M  V30 BEGIN BOND
M  V30 1 1 1 2
M  V30 2 2 2 3
M  V30 3 1 2 4
M  V30 4 1 3 5
M  V30 5 1 3 6
M  V30 6 1 4 7
M  V30 7 2 4 8
M  V30 8 1 6 9
M  V30 9 2 6 10
M  V30 10 1 8 11
M  V30 11 1 10 12
M  V30 12 1 11 13
M  V30 13 1 12 14
M  V30 14 1 13 15
M  V30 15 1 14 16
M  V30 16 2 15 17
M  V30 17 2 16 18
M  V30 18 1 17 19
M  V30 19 1 8 10
M  V30 20 2 13 14
M  V30 21 1 17 18
M  V30 22 1 15 20
M  V30 23 1 16 21
M  V30 24 1 18 22
M  V30 END BOND
M  V30 END CTAB
M  END
>  <Structure No>
6120

>  <LogS>
-9.4728

>  <MMFF94 Energy>
56.654

$$$$
Compound 6121
Actelion Java MolfileCreator 2.0

  0  0  0  0  0  0              0 V3000
M  V30 BEGIN CTAB
M  V30 COUNTS 21 23 0 0 0
M  V30 BEGIN ATOM
M  V30 1 Cl -4.9921 -0.787 0.6121 0
M  V30 2 C -3.3162 -0.3826 0.2681 0
M  V30 3 C -2.9788 0.8102 -0.4275 0
M  V30 4 C -2.3054 -1.2664 0.6964 0
M  V30 5 Cl -4.2241 1.9261 -0.9702 0
M  V30 6 C -1.6309 1.1192 -0.6949 0
M  V30 7 C -0.9828 -0.9349 0.4182 0
M  V30 8 C -0.661 0.2224 -0.2565 0
M  V30 9 O 0.0992 -1.6212 0.7302 0
M  V30 10 C 0.7089 0.2245 -0.3523 0
M  V30 11 C 1.1251 -0.9316 0.2705 0
M  V30 12 C 1.6056 1.1241 -0.9214 0
M  V30 13 C 2.4746 -1.259 0.3618 0
M  V30 14 C 2.9785 0.8193 -0.8445 0
M  V30 15 C 3.4131 -0.3722 -0.2029 0
M  V30 16 Cl 4.1326 1.9388 -1.5555 0
M  V30 17 Cl 5.1218 -0.7716 -0.096 0
M  V30 18 H -2.5459 -2.1785 1.2274 0
M  V30 19 H -1.3567 2.0233 -1.2235 0
M  V30 20 H 1.2575 2.0273 -1.4063 0
M  V30 21 H 2.7893 -2.1703 0.8538 0
M  V30 END ATOM
M  V30 BEGIN BOND
M  V30 1 1 1 2
M  V30 2 2 2 3
M  V30 3 1 2 4
M  V30 4 1 3 5
M  V30 5 1 3 6
M  V30 6 2 4 7
M  V30 7 2 6 8
M  V30 8 1 7 9
M  V30 9 1 8 10
M  V30 10 1 9 11
M  V30 11 1 10 12
M  V30 12 1 11 13
M  V30 13 2 12 14
M  V30 14 2 13 15
M  V30 15 1 14 16
M  V30 16 1 15 17
M  V30 17 1 7 8
M  V30 18 2 10 11
M  V30 19 1 14 15
M  V30 20 1 4 18
M  V30 21 1 6 19
M  V30 22 1 12 20
M  V30 23 1 13 21
M  V30 END BOND
M  V30 END CTAB
M  END
>  <Structure No>
6121

>  <LogS>
-8.6456

>  <MMFF94 Energy>
28.365

$$$$
Compound 6122
Actelion Java MolfileCreator 2.0

  0  0  0  0  0  0              0 V3000
M  V30 BEGIN CTAB
M  V30 COUNTS 22 24 0 0 0
M  V30 BEGIN ATOM
M  V30 1 Cl 2.466 3.0832 0.088 0
M  V30 2 C 2.4191 1.3225 0.0684 0
M  V30 3 C 3.6069 0.5664 0.092 0
M  V30 4 C 1.1788 0.6706 0.0286 0
M  V30 5 Cl 5.1725 1.3768 0.1421 0
M  V30 6 C 3.5403 -0.84 0.0756 0
M  V30 7 O -0.0145 1.4057 0.0048 0
M  V30 8 C 1.1208 -0.7335 0.0125 0
M  V30 9 Cl 4.9982 -1.8237 0.1041 0
M  V30 10 C 2.298 -1.4824 0.0359 0
M  V30 11 C -1.2588 0.7657 -0.0348 0
M  V30 12 O -0.1236 -1.3745 -0.027 0
M  V30 13 C -1.314 -0.6386 -0.0509 0
M  V30 14 C -2.4407 1.5122 -0.0583 0
M  V30 15 C -2.5509 -1.2898 -0.0905 0
M  V30 16 C -3.6776 0.8593 -0.0979 0
M  V30 17 C -3.7339 -0.5405 -0.1139 0
M  V30 18 Cl -5.2866 -1.355 -0.1636 0
M  V30 19 H 2.2458 -2.5639 0.0233 0
M  V30 20 H -2.4008 2.594 -0.0459 0
M  V30 21 H -2.5912 -2.3716 -0.1028 0
M  V30 22 H -4.5905 1.4409 -0.1159 0
M  V30 END ATOM
M  V30 BEGIN BOND
M  V30 1 1 1 2
M  V30 2 2 2 3
M  V30 3 1 2 4
M  V30 4 1 3 5
M  V30 5 1 3 6
M  V30 6 1 4 7
M  V30 7 2 4 8
M  V30 8 1 6 9
M  V30 9 2 6 10
M  V30 10 1 7 11
M  V30 11 1 8 12
M  V30 12 2 11 13
M  V30 13 1 11 14
M  V30 14 1 13 15
M  V30 15 2 14 16
M  V30 16 2 15 17
M  V30 17 1 17 18
M  V30 18 1 8 10
M  V30 19 1 12 13
M  V30 20 1 16 17
M  V30 21 1 10 19
M  V30 22 1 14 20
M  V30 23 1 15 21
M  V30 24 1 16 22
M  V30 END BOND
M  V30 END CTAB
M  END
>  <Structure No>
6122

>  <LogS>
-8.8744

>  <MMFF94 Energy>
48.983

$$$$
Compound 6123
Actelion Java MolfileCreator 2.0

  0  0  0  0  0  0              0 V3000
M  V30 BEGIN CTAB
M  V30 COUNTS 22 23 0 0 0
M  V30 BEGIN ATOM
M  V30 1 Cl 0.5304 2.1231 -1.6805 0
M  V30 2 C 1.4236 0.9293 -0.7338 0
M  V30 3 C 0.734 -0.0131 0.059 0
M  V30 4 C 2.8297 0.917 -0.7677 0
M  V30 5 C 1.4618 -0.9562 0.812 0
M  V30 6 C -0.7429 -0.0133 0.1019 0
M  V30 7 Cl 3.7311 2.071 -1.7426 0
M  V30 8 C 3.5385 -0.0248 -0.0168 0
M  V30 9 Cl 0.6494 -2.1563 1.8124 0
M  V30 10 C 2.8587 -0.9557 0.7685 0
M  V30 11 C -1.5 -0.7178 -0.8572 0
M  V30 12 C -1.3961 0.7008 1.1168 0
M  V30 13 Cl -0.6924 -1.6276 -2.1362 0
M  V30 14 C -2.9055 -0.6947 -0.7865 0
M  V30 15 C -2.7903 0.7183 1.1797 0
M  V30 16 Cl -3.8937 -1.5566 -1.9588 0
M  V30 17 C -3.5426 0.0235 0.2314 0
M  V30 18 H 4.6208 -0.0365 -0.0412 0
M  V30 19 H 3.4207 -1.68 1.3443 0
M  V30 20 H -0.8234 1.2445 1.8585 0
M  V30 21 H -3.2889 1.2717 1.9652 0
M  V30 22 H -4.6237 0.0433 0.2887 0
M  V30 END ATOM
M  V30 BEGIN BOND
M  V30 1 1 1 2
M  V30 2 2 2 3
M  V30 3 1 2 4
M  V30 4 1 3 5
M  V30 5 1 3 6
M  V30 6 1 4 7
M  V30 7 2 4 8
M  V30 8 1 5 9
M  V30 9 2 5 10
M  V30 10 2 6 11
M  V30 11 1 6 12
M  V30 12 1 11 13
M  V30 13 1 11 14
M  V30 14 2 12 15
M  V30 15 1 14 16
M  V30 16 2 14 17
M  V30 17 1 8 10
M  V30 18 1 15 17
M  V30 19 1 8 18
M  V30 20 1 10 19
M  V30 21 1 12 20
M  V30 22 1 15 21
M  V30 23 1 17 22
M  V30 END BOND
M  V30 BEGIN COLLECTION
M  V30 MDLV30/STEABS BONDS=(1 5)
M  V30 END COLLECTION
M  V30 END CTAB
M  END
>  <Structure No>
6123

>  <LogS>
-6.7798

>  <MMFF94 Energy>
61.009

$$$$
Compound 6124
Actelion Java MolfileCreator 2.0

  0  0  0  0  0  0              0 V3000
M  V30 BEGIN CTAB
M  V30 COUNTS 27 28 0 0 0
M  V30 BEGIN ATOM
M  V30 1 O -0.0795 -0.7954 1.5912 0
M  V30 2 C 0.3994 -0.2257 0.5733 0
M  V30 3 N -0.4666 0.4509 -0.3543 0
M  V30 4 C 1.8645 -0.2024 0.3806 0
M  V30 5 C -1.9014 0.3611 -0.3269 0
M  V30 6 C 2.6522 -1.3725 0.5102 0
M  V30 7 C 2.4982 1.0209 0.0979 0
M  V30 8 C -2.6674 1.4734 -0.7099 0
M  V30 9 C -2.5568 -0.8368 0.0147 0
M  V30 10 O 2.0877 -2.6296 0.7365 0
M  V30 11 C 4.0444 -1.2884 0.3834 0
M  V30 12 C 3.8866 1.0864 -0.0386 0
M  V30 13 C -4.064 1.4038 -0.7141 0
M  V30 14 C -3.9538 -0.9026 0.0081 0
M  V30 15 C 4.659 -0.0655 0.1084 0
M  V30 16 C -4.7069 0.2179 -0.3512 0
M  V30 17 H -0.0368 1.0914 -1.0589 0
M  V30 18 H 1.9218 1.9335 0.0099 0
M  V30 19 H -2.1805 2.3975 -0.9952 0
M  V30 20 H -1.9939 -1.7274 0.2593 0
M  V30 21 H 1.09 -2.7963 0.7392 0
M  V30 22 H 4.6509 -2.1794 0.485 0
M  V30 23 H 4.365 2.0343 -0.2489 0
M  V30 24 H -4.6476 2.2691 -1.0012 0
M  V30 25 H -4.4527 -1.826 0.2728 0
M  V30 26 H 5.7352 -0.0117 0.0065 0
M  V30 27 H -5.7879 0.1645 -0.3571 0
M  V30 END ATOM
M  V30 BEGIN BOND
M  V30 1 2 1 2
M  V30 2 1 2 3
M  V30 3 1 2 4
M  V30 4 1 3 5
M  V30 5 2 4 6
M  V30 6 1 4 7
M  V30 7 2 5 8
M  V30 8 1 5 9
M  V30 9 1 6 10
M  V30 10 1 6 11
M  V30 11 2 7 12
M  V30 12 1 8 13
M  V30 13 2 9 14
M  V30 14 2 11 15
M  V30 15 2 13 16
M  V30 16 1 12 15
M  V30 17 1 14 16
M  V30 18 1 3 17
M  V30 19 1 7 18
M  V30 20 1 8 19
M  V30 21 1 9 20
M  V30 22 1 10 21
M  V30 23 1 11 22
M  V30 24 1 12 23
M  V30 25 1 13 24
M  V30 26 1 14 25
M  V30 27 1 15 26
M  V30 28 1 16 27
M  V30 END BOND
M  V30 END CTAB
M  END
>  <Structure No>
6124

>  <LogS>
-3.5885

>  <MMFF94 Energy>
34.387

$$$$
Compound 6125
Actelion Java MolfileCreator 2.0

  0  0  0  0  0  0              0 V3000
M  V30 BEGIN CTAB
M  V30 COUNTS 28 29 0 0 0
M  V30 BEGIN ATOM
M  V30 1 O -0.8842 1.1255 0.8842 0
M  V30 2 C -1.4222 0.4427 -0.0296 0
M  V30 3 O -0.6482 -0.0297 -1.0964 0
M  V30 4 C -2.8777 0.1792 -9.0E-4 0
M  V30 5 O 0.7218 -0.0336 -1.0919 0
M  V30 6 C -3.6757 0.6647 1.0525 0
M  V30 7 C -3.4851 -0.5657 -1.0282 0
M  V30 8 C 1.4891 -0.4059 0.0185 0
M  V30 9 C -5.0505 0.4101 1.0739 0
M  V30 10 C -4.8606 -0.8173 -1.0014 0
M  V30 11 O 0.9452 -1.0018 0.9881 0
M  V30 12 C 2.9445 -0.1404 0.032 0
M  V30 13 C -5.6425 -0.3299 0.0481 0
M  V30 14 C 3.5583 0.5072 -1.0556 0
M  V30 15 C 3.7356 -0.5268 1.1305 0
M  V30 16 C 4.9336 0.7605 -1.0436 0
M  V30 17 C 5.1103 -0.2709 1.137 0
M  V30 18 C 5.7087 0.3718 0.0511 0
M  V30 19 H -3.2388 1.2402 1.8591 0
M  V30 20 H -2.8996 -0.9546 -1.8516 0
M  V30 21 H -5.6575 0.7869 1.8871 0
M  V30 22 H -5.3204 -1.3911 -1.7957 0
M  V30 23 H -6.7068 -0.5259 0.0666 0
M  V30 24 H 2.978 0.8186 -1.9149 0
M  V30 25 H 3.2935 -1.0259 1.9839 0
M  V30 26 H 5.3984 1.259 -1.8842 0
M  V30 27 H 5.7119 -0.5713 1.9851 0
M  V30 28 H 6.7729 0.569 0.0582 0
M  V30 END ATOM
M  V30 BEGIN BOND
M  V30 1 2 1 2
M  V30 2 1 2 3
M  V30 3 1 2 4
M  V30 4 1 3 5
M  V30 5 2 4 6
M  V30 6 1 4 7
M  V30 7 1 5 8
M  V30 8 1 6 9
M  V30 9 2 7 10
M  V30 10 2 8 11
M  V30 11 1 8 12
M  V30 12 2 9 13
M  V30 13 2 12 14
M  V30 14 1 12 15
M  V30 15 1 14 16
M  V30 16 2 15 17
M  V30 17 2 16 18
M  V30 18 1 10 13
M  V30 19 1 17 18
M  V30 20 1 6 19
M  V30 21 1 7 20
M  V30 22 1 9 21
M  V30 23 1 10 22
M  V30 24 1 13 23
M  V30 25 1 14 24
M  V30 26 1 15 25
M  V30 27 1 16 26
M  V30 28 1 17 27
M  V30 29 1 18 28
M  V30 END BOND
M  V30 END CTAB
M  END
>  <Structure No>
6125

>  <LogS>
-4.4252

>  <MMFF94 Energy>
100.55

$$$$
Compound 6126
Actelion Java MolfileCreator 2.0

  0  0  0  0  0  0              0 V3000
M  V30 BEGIN CTAB
M  V30 COUNTS 24 24 0 0 0
M  V30 BEGIN ATOM
M  V30 1 S -3.6761 -0.4895 -0.6528 0
M  V30 2 O -4.3556 -1.4974 0.2314 0
M  V30 3 O -3.8674 -0.9008 -2.0857 0
M  V30 4 N -4.3832 1.0674 -0.4007 0
M  V30 5 C -1.9572 -0.4267 -0.2745 0
M  V30 6 C -1.0286 -0.0927 -1.2685 0
M  V30 7 C -1.5114 -0.6933 1.0262 0
M  V30 8 C 0.3349 -0.0297 -0.9666 0
M  V30 9 C -0.1481 -0.6317 1.3291 0
M  V30 10 C 0.7855 -0.2827 0.3418 0
M  V30 11 N 2.184 -0.2482 0.6753 0
M  V30 12 C 3.1336 0.6476 0.0772 0
M  V30 13 O 2.7461 1.6339 -0.6057 0
M  V30 14 C 4.5926 0.4713 0.3455 0
M  V30 15 H -3.8564 1.7421 -0.9997 0
M  V30 16 H -4.1912 1.3326 0.5914 0
M  V30 17 H -1.3584 0.113 -2.2789 0
M  V30 18 H -2.2175 -0.948 1.8064 0
M  V30 19 H 1.0344 0.1925 -1.7609 0
M  V30 20 H 0.1811 -0.8445 2.3385 0
M  V30 21 H 2.5174 -0.8544 1.4591 0
M  V30 22 H 4.8475 -0.609 0.3548 0
M  V30 23 H 4.8431 0.9148 1.3314 0
M  V30 24 H 5.1936 0.9717 -0.4431 0
M  V30 END ATOM
M  V30 BEGIN BOND
M  V30 1 2 1 2
M  V30 2 2 1 3
M  V30 3 1 1 4
M  V30 4 1 1 5
M  V30 5 2 5 6
M  V30 6 1 5 7
M  V30 7 1 6 8
M  V30 8 2 7 9
M  V30 9 2 8 10
M  V30 10 1 10 11
M  V30 11 1 11 12
M  V30 12 2 12 13
M  V30 13 1 12 14
M  V30 14 1 9 10
M  V30 15 1 4 15
M  V30 16 1 4 16
M  V30 17 1 6 17
M  V30 18 1 7 18
M  V30 19 1 8 19
M  V30 20 1 9 20
M  V30 21 1 11 21
M  V30 22 1 14 22
M  V30 23 1 14 23
M  V30 24 1 14 24
M  V30 END BOND
M  V30 END CTAB
M  END
>  <Structure No>
6126

>  <LogS>
-1.6066

>  <MMFF94 Energy>
-75.063

$$$$
Compound 6127
Actelion Java MolfileCreator 2.0

  0  0  0  0  0  0              0 V3000
M  V30 BEGIN CTAB
M  V30 COUNTS 30 31 0 0 0
M  V30 BEGIN ATOM
M  V30 1 O -0.0799 -0.0799 -2.3216 0
M  V30 2 C -0.815 -0.4269 -1.3565 0
M  V30 3 N -1.954 -1.2549 -1.6155 0
M  V30 4 C -0.5096 0.0697 0.0549 0
M  V30 5 C -2.9344 -1.5338 -0.5758 0
M  V30 6 C -1.1552 -0.8617 1.0699 0
M  V30 7 C 1.014 0.0489 0.3088 0
M  V30 8 C -1.1735 1.4711 0.2258 0
M  V30 9 N -2.2671 -1.689 0.709 0
M  V30 10 O -0.7467 -0.8745 2.2637 0
M  V30 11 C 1.6674 1.0305 1.0915 0
M  V30 12 C 1.7763 -1.0623 -0.1213 0
M  V30 13 C -0.6679 2.5447 -0.7474 0
M  V30 14 C 3.0374 0.9414 1.3557 0
M  V30 15 C 3.1449 -1.145 0.1477 0
M  V30 16 C 3.7767 -0.1398 0.8783 0
M  V30 17 H -2.1367 -1.5885 -2.5887 0
M  V30 18 H -3.4925 -2.4617 -0.8244 0
M  V30 19 H -3.6537 -0.6899 -0.5152 0
M  V30 20 H -1.0535 1.8358 1.2683 0
M  V30 21 H -2.2718 1.3776 0.073 0
M  V30 22 H -2.6807 -2.3327 1.4205 0
M  V30 23 H 1.1361 1.8716 1.5091 0
M  V30 24 H 1.3095 -1.876 -0.6616 0
M  V30 25 H -1.0789 3.5324 -0.4497 0
M  V30 26 H -1.016 2.3294 -1.779 0
M  V30 27 H 0.4382 2.6128 -0.7462 0
M  V30 28 H 3.525 1.7094 1.9427 0
M  V30 29 H 3.7139 -1.9967 -0.2021 0
M  V30 30 H 4.8363 -0.2072 1.0886 0
M  V30 END ATOM
M  V30 BEGIN BOND
M  V30 1 2 1 2
M  V30 2 1 2 3
M  V30 3 1 2 4
M  V30 4 1 3 5
M  V30 5 1 4 6
M  V30 6 1 4 7
M  V30 7 1 4 8
M  V30 8 1 5 9
M  V30 9 2 6 10
M  V30 10 2 7 11
M  V30 11 1 7 12
M  V30 12 1 8 13
M  V30 13 1 11 14
M  V30 14 2 12 15
M  V30 15 2 14 16
M  V30 16 1 6 9
M  V30 17 1 15 16
M  V30 18 1 3 17
M  V30 19 1 5 18
M  V30 20 1 5 19
M  V30 21 1 8 20
M  V30 22 1 8 21
M  V30 23 1 9 22
M  V30 24 1 11 23
M  V30 25 1 12 24
M  V30 26 1 13 25
M  V30 27 1 13 26
M  V30 28 1 13 27
M  V30 29 1 14 28
M  V30 30 1 15 29
M  V30 31 1 16 30
M  V30 END BOND
M  V30 END CTAB
M  END
>  <Structure No>
6127

>  <LogS>
-2.64

>  <MMFF94 Energy>
-35.637

$$$$
Compound 6128
Actelion Java MolfileCreator 2.0

  0  0  0  0  0  0              0 V3000
M  V30 BEGIN CTAB
M  V30 COUNTS 15 15 0 0 0
M  V30 BEGIN ATOM
M  V30 1 O 2.8333 -1.1797 0.1572 0
M  V30 2 C 1.7109 -0.6171 0.0664 0
M  V30 3 N 1.5585 0.7597 -0.2498 0
M  V30 4 C 0.3987 -1.3098 0.2761 0
M  V30 5 C 0.1566 0.9554 -0.2447 0
M  V30 6 N -0.5642 -0.2334 0.0593 0
M  V30 7 N -0.408 2.0933 -0.4901 0
M  V30 8 C -2.0137 -0.3603 0.1416 0
M  V30 9 H 2.3076 1.4614 -0.4409 0
M  V30 10 H 0.3199 -1.6982 1.3134 0
M  V30 11 H 0.2551 -2.116 -0.4739 0
M  V30 12 H 0.1617 2.9405 -0.7088 0
M  V30 13 H -2.4676 -0.0927 -0.8352 0
M  V30 14 H -2.2941 -1.4042 0.396 0
M  V30 15 H -2.4036 0.3194 0.9277 0
M  V30 END ATOM
M  V30 BEGIN BOND
M  V30 1 2 1 2
M  V30 2 1 2 3
M  V30 3 1 2 4
M  V30 4 1 3 5
M  V30 5 1 4 6
M  V30 6 2 5 7
M  V30 7 1 6 8
M  V30 8 1 5 6
M  V30 9 1 3 9
M  V30 10 1 4 10
M  V30 11 1 4 11
M  V30 12 1 7 12
M  V30 13 1 8 13
M  V30 14 1 8 14
M  V30 15 1 8 15
M  V30 END BOND
M  V30 END CTAB
M  END
>  <Structure No>
6128

>  <LogS>
-0.1499

>  <MMFF94 Energy>
-81.268

$$$$
Compound 6129
Actelion Java MolfileCreator 2.0

  0  0  0  0  0  0              0 V3000
M  V30 BEGIN CTAB
M  V30 COUNTS 43 44 0 0 0
M  V30 BEGIN ATOM
M  V30 1 O -0.4008 -0.0801 -2.2462 0
M  V30 2 C -1.2961 -0.1955 -1.4211 0
M  V30 3 C -1.0862 -1.0106 -0.1571 0 CFG=1
M  V30 4 C -2.6494 0.4085 -1.7119 0 CFG=1
M  V30 5 C 0.4153 -1.184 0.2173 0 CFG=2
M  V30 6 C -1.92 -0.3994 0.9905 0
M  V30 7 C -3.7398 -0.2768 -0.8649 0
M  V30 8 C -2.625 1.9268 -1.5009 0
M  V30 9 O 0.5382 -2.084 1.2901 0
M  V30 10 C 1.1053 0.1474 0.5994 0
M  V30 11 C -3.4348 -0.289 0.6564 0 CFG=1
M  V30 12 C 2.6483 0.0348 0.6627 0
M  V30 13 C -4.2326 -1.4048 1.3446 0
M  V30 14 C 3.2749 0.0211 -0.7506 0
M  V30 15 C 3.2269 1.2035 1.4881 0
M  V30 16 C 4.775 -0.0076 -0.676 0
M  V30 17 C 4.7266 1.1468 1.5276 0
M  V30 18 O 5.4384 -0.5058 -1.6237 0
M  V30 19 N 5.4569 0.5762 0.438 0
M  V30 20 O 5.3466 1.6488 2.5024 0
M  V30 21 H -1.4898 -2.027 -0.3621 0
M  V30 22 H -2.8927 0.2182 -2.781 0
M  V30 23 H 0.9302 -1.616 -0.6692 0
M  V30 24 H -1.5453 0.6245 1.2037 0
M  V30 25 H -1.7648 -0.9865 1.9222 0
M  V30 26 H -4.7219 0.2138 -1.0438 0
M  V30 27 H -3.8379 -1.3234 -1.2319 0
M  V30 28 H -2.365 2.1839 -0.4532 0
M  V30 29 H -3.6194 2.3608 -1.7388 0
M  V30 30 H -1.875 2.3921 -2.1755 0
M  V30 31 H 0.3667 -2.9926 0.9284 0
M  V30 32 H 0.826 0.9545 -0.1115 0
M  V30 33 H 0.728 0.4533 1.5998 0
M  V30 34 H -3.8012 0.6736 1.0789 0
M  V30 35 H 2.9178 -0.9131 1.1816 0
M  V30 36 H -3.8774 -2.4023 1.0078 0
M  V30 37 H -4.1161 -1.3358 2.4473 0
M  V30 38 H -5.3135 -1.3071 1.1062 0
M  V30 39 H 2.9335 -0.8702 -1.3157 0
M  V30 40 H 2.9675 0.9287 -1.3137 0
M  V30 41 H 2.9197 2.1744 1.0421 0
M  V30 42 H 2.8347 1.1559 2.5277 0
M  V30 43 H 6.5013 0.5685 0.4652 0
M  V30 END ATOM
M  V30 BEGIN BOND
M  V30 1 2 1 2
M  V30 2 1 2 3
M  V30 3 1 2 4
M  V30 4 1 3 5
M  V30 5 1 3 6
M  V30 6 1 4 7
M  V30 7 1 4 8
M  V30 8 1 5 9
M  V30 9 1 5 10
M  V30 10 1 6 11
M  V30 11 1 10 12
M  V30 12 1 11 13
M  V30 13 1 12 14
M  V30 14 1 12 15
M  V30 15 1 14 16
M  V30 16 1 15 17
M  V30 17 2 16 18
M  V30 18 1 16 19
M  V30 19 2 17 20
M  V30 20 1 7 11
M  V30 21 1 17 19
M  V30 22 1 3 21
M  V30 23 1 4 22
M  V30 24 1 5 23
M  V30 25 1 6 24
M  V30 26 1 6 25
M  V30 27 1 7 26
M  V30 28 1 7 27
M  V30 29 1 8 28
M  V30 30 1 8 29
M  V30 31 1 8 30
M  V30 32 1 9 31
M  V30 33 1 10 32
M  V30 34 1 10 33
M  V30 35 1 11 34
M  V30 36 1 12 35
M  V30 37 1 13 36
M  V30 38 1 13 37
M  V30 39 1 13 38
M  V30 40 1 14 39
M  V30 41 1 14 40
M  V30 42 1 15 41
M  V30 43 1 15 42
M  V30 44 1 19 43
M  V30 END BOND
M  V30 BEGIN COLLECTION
M  V30 MDLV30/STEABS ATOMS=(4 3 4 5 11)
M  V30 END COLLECTION
M  V30 END CTAB
M  END
>  <Structure No>
6129

>  <LogS>
-1.127

>  <MMFF94 Energy>
-19.34

$$$$
Compound 6130
Actelion Java MolfileCreator 2.0

  0  0  0  0  0  0              0 V3000
M  V30 BEGIN CTAB
M  V30 COUNTS 7 6 0 0 0
M  V30 BEGIN ATOM
M  V30 1 Cl 1.6718 0.3932 -1.1799 0
M  V30 2 C 0.5354 0.0442 0.1501 0
M  V30 3 Cl 1.0495 -1.474 0.9358 0
M  V30 4 Cl 0.6113 1.3678 1.3383 0
M  V30 5 N -0.8289 -0.075 -0.3622 0 CHG=1
M  V30 6 O -1.6885 -0.6956 0.2971 0
M  V30 7 O -1.2488 0.751 -1.3794 0 CHG=-1
M  V30 END ATOM
M  V30 BEGIN BOND
M  V30 1 1 1 2
M  V30 2 1 2 3
M  V30 3 1 2 4
M  V30 4 1 2 5
M  V30 5 2 5 6
M  V30 6 1 5 7
M  V30 END BOND
M  V30 END CTAB
M  END
>  <Structure No>
6130

>  <LogS>
-2.0063

>  <MMFF94 Energy>
79.879

$$$$
Compound 6131
Actelion Java MolfileCreator 2.0

  0  0  0  0  0  0              0 V3000
M  V30 BEGIN CTAB
M  V30 COUNTS 31 32 0 0 0
M  V30 BEGIN ATOM
M  V30 1 O -0.4807 0.2403 -2.2449 0
M  V30 2 C -0.7263 0.7054 -1.0981 0
M  V30 3 N -1.3689 1.9798 -0.9921 0
M  V30 4 C -0.3296 -0.0996 0.137 0 CFG=1
M  V30 5 C -1.8367 2.4807 0.2589 0
M  V30 6 C 1.1904 -0.3833 0.0436 0
M  V30 7 C -0.5593 0.7061 1.4607 0
M  V30 8 C -1.1558 -1.4327 0.1407 0
M  V30 9 O -2.3485 3.6301 0.322 0
M  V30 10 C -1.7933 1.6182 1.4766 0
M  V30 11 C 1.7641 -1.6349 0.3788 0
M  V30 12 C 2.073 0.6689 -0.302 0
M  V30 13 C -2.6815 -1.2908 0.0579 0
M  V30 14 C 3.1475 -1.8295 0.3192 0
M  V30 15 C 3.4539 0.4657 -0.3581 0
M  V30 16 C 3.9903 -0.7835 -0.0528 0
M  V30 17 H -1.5175 2.5489 -1.8558 0
M  V30 18 H 0.3144 1.366 1.6616 0
M  V30 19 H -0.6161 0.0099 2.3257 0
M  V30 20 H -0.8332 -2.0541 -0.7244 0
M  V30 21 H -0.9436 -2.0125 1.0646 0
M  V30 22 H -2.7296 1.0357 1.5408 0
M  V30 23 H -1.749 2.2612 2.3829 0
M  V30 24 H 1.1653 -2.4769 0.6884 0
M  V30 25 H 1.6915 1.658 -0.5227 0
M  V30 26 H -3.1059 -1.0764 1.059 0
M  V30 27 H -2.9948 -0.5102 -0.6646 0
M  V30 28 H -3.1185 -2.2562 -0.2745 0
M  V30 29 H 3.5677 -2.7954 0.5689 0
M  V30 30 H 4.1096 1.2822 -0.6322 0
M  V30 31 H 5.0607 -0.9386 -0.0948 0
M  V30 END ATOM
M  V30 BEGIN BOND
M  V30 1 2 1 2
M  V30 2 1 2 3
M  V30 3 1 2 4
M  V30 4 1 3 5
M  V30 5 1 4 6
M  V30 6 1 4 7
M  V30 7 1 4 8
M  V30 8 2 5 9
M  V30 9 1 5 10
M  V30 10 2 6 11
M  V30 11 1 6 12
M  V30 12 1 8 13
M  V30 13 1 11 14
M  V30 14 2 12 15
M  V30 15 2 14 16
M  V30 16 1 7 10
M  V30 17 1 15 16
M  V30 18 1 3 17
M  V30 19 1 7 18
M  V30 20 1 7 19
M  V30 21 1 8 20
M  V30 22 1 8 21
M  V30 23 1 10 22
M  V30 24 1 10 23
M  V30 25 1 11 24
M  V30 26 1 12 25
M  V30 27 1 13 26
M  V30 28 1 13 27
M  V30 29 1 13 28
M  V30 30 1 14 29
M  V30 31 1 15 30
M  V30 32 1 16 31
M  V30 END BOND
M  V30 BEGIN COLLECTION
M  V30 MDLV30/STEABS ATOMS=(1 4)
M  V30 END COLLECTION
M  V30 END CTAB
M  END
>  <Structure No>
6131

>  <LogS>
-2.3374

>  <MMFF94 Energy>
4.1616

$$$$
Compound 6132
Actelion Java MolfileCreator 2.0

  0  0  0  0  0  0              0 V3000
M  V30 BEGIN CTAB
M  V30 COUNTS 24 25 0 0 0
M  V30 BEGIN ATOM
M  V30 1 O 4.292 0.0 0.0 0
M  V30 2 N 3.7145 1.0142 -0.4441 0 CHG=1
M  V30 3 O 2.3662 0.9936 -0.7459 0
M  V30 4 O 4.4363 2.1634 -0.6601 0 CHG=-1
M  V30 5 C 1.5488 -0.1571 -0.5253 0 CFG=2
M  V30 6 C 0.1965 0.0543 -1.1509 0 CFG=1
M  V30 7 C 1.2155 -0.2991 0.9482 0
M  V30 8 O -0.3369 -1.1709 -1.6142 0
M  V30 9 C -0.6514 0.5875 -0.0175 0 CFG=2
M  V30 10 O 0.0117 0.381 1.2145 0
M  V30 11 C -1.4535 -1.4847 -0.8151 0
M  V30 12 C -1.9162 -0.2281 -0.1103 0 CFG=1
M  V30 13 O -2.4686 -0.5336 1.1695 0
M  V30 14 N -3.0782 0.4261 1.9523 0 CHG=1
M  V30 15 O -3.5291 0.1101 3.0709 0
M  V30 16 O -3.2094 1.723 1.5104 0 CHG=-1
M  V30 17 H 2.0496 -1.0653 -0.9293 0
M  V30 18 H 0.2415 0.7749 -1.9978 0
M  V30 19 H 2.0244 0.1106 1.5892 0
M  V30 20 H 1.0834 -1.3737 1.2015 0
M  V30 21 H -0.8635 1.6719 -0.1458 0
M  V30 22 H -1.1572 -2.2618 -0.0762 0
M  V30 23 H -2.2669 -1.8938 -1.4514 0
M  V30 24 H -2.669 0.2954 -0.742 0
M  V30 END ATOM
M  V30 BEGIN BOND
M  V30 1 2 1 2
M  V30 2 1 2 3
M  V30 3 1 2 4
M  V30 4 1 3 5
M  V30 5 1 5 6
M  V30 6 1 5 7
M  V30 7 1 6 8
M  V30 8 1 6 9
M  V30 9 1 7 10
M  V30 10 1 8 11
M  V30 11 1 9 12
M  V30 12 1 12 13
M  V30 13 1 13 14
M  V30 14 2 14 15
M  V30 15 1 14 16
M  V30 16 1 9 10
M  V30 17 1 11 12
M  V30 18 1 5 17
M  V30 19 1 6 18
M  V30 20 1 7 19
M  V30 21 1 7 20
M  V30 22 1 9 21
M  V30 23 1 11 22
M  V30 24 1 11 23
M  V30 25 1 12 24
M  V30 END BOND
M  V30 BEGIN COLLECTION
M  V30 MDLV30/STEABS ATOMS=(4 5 6 9 12)
M  V30 END COLLECTION
M  V30 END CTAB
M  END
>  <Structure No>
6132

>  <LogS>
-2.6328

>  <MMFF94 Energy>
16.998

$$$$
Compound 6133
Actelion Java MolfileCreator 2.0

  0  0  0  0  0  0              0 V3000
M  V30 BEGIN CTAB
M  V30 COUNTS 11 11 0 0 0
M  V30 BEGIN ATOM
M  V30 1 O -2.4627 0.6351 0.0 0
M  V30 2 C -1.2649 0.245 0.0046 0
M  V30 3 N -0.9765 -1.085 0.0453 0
M  V30 4 C -0.224 1.1742 -0.0318 0
M  V30 5 N 0.2862 -1.5184 0.051 0 CHG=-1
M  V30 6 C 1.0928 0.7188 -0.0257 0
M  V30 7 C 1.3344 -0.6543 0.0165 0
M  V30 8 O 2.5136 -1.0941 0.0228 0
M  V30 9 H -1.7518 -1.7846 0.0728 0
M  V30 10 H -0.4316 2.2368 -0.0643 0
M  V30 11 H 1.9133 1.4251 -0.0537 0
M  V30 END ATOM
M  V30 BEGIN BOND
M  V30 1 2 1 2
M  V30 2 1 2 3
M  V30 3 1 2 4
M  V30 4 1 3 5
M  V30 5 2 4 6
M  V30 6 1 5 7
M  V30 7 2 7 8
M  V30 8 1 6 7
M  V30 9 1 3 9
M  V30 10 1 4 10
M  V30 11 1 6 11
M  V30 END BOND
M  V30 END CTAB
M  END
>  <Structure No>
6133

>  <LogS>
-1.2714

>  <MMFF94 Energy>
14.817

$$$$
Compound 6134
Actelion Java MolfileCreator 2.0

  0  0  0  0  0  0              0 V3000
M  V30 BEGIN CTAB
M  V30 COUNTS 19 19 0 0 0
M  V30 BEGIN ATOM
M  V30 1 N 0.4647 -1.0071 -0.1548 0 CHG=1
M  V30 2 C 1.3619 -0.0022 0.0519 0
M  V30 3 C -0.8765 -0.7621 -0.1385 0
M  V30 4 N 0.9225 1.2691 0.2491 0
M  V30 5 C 2.8302 -0.2832 0.0212 0
M  V30 6 C -1.3378 0.5444 0.0564 0
M  V30 7 C -1.8502 -1.8723 -0.3998 0
M  V30 8 C -0.4035 1.5629 0.257 0
M  V30 9 N -0.8311 2.9093 0.4642 0
M  V30 10 H 0.8121 -1.978 -0.3272 0
M  V30 11 H 3.06 -1.1546 0.6696 0
M  V30 12 H 3.1419 -0.5091 -1.0195 0
M  V30 13 H 3.4035 0.5942 0.3884 0
M  V30 14 H -2.3986 0.7647 0.0506 0
M  V30 15 H -2.8002 -1.6977 0.1489 0
M  V30 16 H -2.0631 -1.9277 -1.4876 0
M  V30 17 H -1.4306 -2.8434 -0.0626 0
M  V30 18 H -0.1282 3.6672 0.6116 0
M  V30 19 H -1.846 3.1557 0.472 0
M  V30 END ATOM
M  V30 BEGIN BOND
M  V30 1 2 1 2
M  V30 2 1 1 3
M  V30 3 1 2 4
M  V30 4 1 2 5
M  V30 5 2 3 6
M  V30 6 1 3 7
M  V30 7 2 4 8
M  V30 8 1 8 9
M  V30 9 1 6 8
M  V30 10 1 1 10
M  V30 11 1 5 11
M  V30 12 1 5 12
M  V30 13 1 5 13
M  V30 14 1 6 14
M  V30 15 1 7 15
M  V30 16 1 7 16
M  V30 17 1 7 17
M  V30 18 1 9 18
M  V30 19 1 9 19
M  V30 END BOND
M  V30 END CTAB
M  END
>  <Structure No>
6134

>  <LogS>
-1.2843

>  <MMFF94 Energy>
-40.557

$$$$
Compound 6135
Actelion Java MolfileCreator 2.0

  0  0  0  0  0  0              0 V3000
M  V30 BEGIN CTAB
M  V30 COUNTS 42 44 0 0 0
M  V30 BEGIN ATOM
M  V30 1 O 0.3178 -2.5446 -0.7946 0
M  V30 2 C 0.3135 -1.2931 -0.6422 0
M  V30 3 N -0.7687 -0.5714 -0.2745 0
M  V30 4 C 1.4112 -0.4651 -0.7812 0 CHG=-1
M  V30 5 N -0.3958 0.7019 -0.1541 0
M  V30 6 C -2.068 -1.1056 0.0411 0
M  V30 7 C 0.9205 0.7838 -0.4503 0
M  V30 8 C 2.8278 -0.8501 -1.0876 0
M  V30 9 C -1.2606 1.8102 0.1576 0
M  V30 10 C -2.7175 -1.965 -0.8598 0
M  V30 11 C -2.6937 -0.7837 1.2572 0
M  V30 12 O 1.5892 1.8524 -0.439 0
M  V30 13 C 3.5903 -1.1587 0.2073 0
M  V30 14 C -0.8961 2.7366 1.1485 0
M  V30 15 C -2.4727 1.9815 -0.5314 0
M  V30 16 C -3.9806 -2.4818 -0.5548 0
M  V30 17 C -3.9568 -1.3017 1.5587 0
M  V30 18 C 5.0151 -1.6691 -0.0548 0
M  V30 19 C -1.7388 3.8102 1.4537 0
M  V30 20 C -3.3131 3.0557 -0.2233 0
M  V30 21 C -4.6005 -2.1491 0.6528 0
M  V30 22 C 5.9465 -0.5765 -0.5795 0
M  V30 23 C -2.9471 3.9687 0.7693 0
M  V30 24 H 3.315 -0.0137 -1.6313 0
M  V30 25 H 2.8288 -1.7422 -1.7505 0
M  V30 26 H -2.2513 -2.221 -1.8027 0
M  V30 27 H -2.1993 -0.1397 1.9733 0
M  V30 28 H 3.0406 -1.9469 0.7678 0
M  V30 29 H 3.6271 -0.2518 0.8509 0
M  V30 30 H 0.0314 2.6172 1.6938 0
M  V30 31 H -2.7612 1.2882 -1.3111 0
M  V30 32 H -4.4796 -3.1386 -1.2556 0
M  V30 33 H -4.4352 -1.0487 2.4961 0
M  V30 34 H 4.9919 -2.5167 -0.7738 0
M  V30 35 H 5.4323 -2.0517 0.9018 0
M  V30 36 H -1.4562 4.5177 2.2226 0
M  V30 37 H -4.2467 3.1817 -0.756 0
M  V30 38 H -5.5784 -2.5495 0.8874 0
M  V30 39 H 5.642 -0.255 -1.5968 0
M  V30 40 H 6.9822 -0.9724 -0.6384 0
M  V30 41 H 5.9417 0.2995 0.1031 0
M  V30 42 H -3.5986 4.7999 1.0069 0
M  V30 END ATOM
M  V30 BEGIN BOND
M  V30 1 2 1 2
M  V30 2 1 2 3
M  V30 3 1 2 4
M  V30 4 1 3 5
M  V30 5 1 3 6
M  V30 6 1 4 7
M  V30 7 1 4 8
M  V30 8 1 5 9
M  V30 9 2 6 10
M  V30 10 1 6 11
M  V30 11 2 7 12
M  V30 12 1 8 13
M  V30 13 2 9 14
M  V30 14 1 9 15
M  V30 15 1 10 16
M  V30 16 2 11 17
M  V30 17 1 13 18
M  V30 18 1 14 19
M  V30 19 2 15 20
M  V30 20 2 16 21
M  V30 21 1 18 22
M  V30 22 2 19 23
M  V30 23 1 5 7
M  V30 24 1 17 21
M  V30 25 1 20 23
M  V30 26 1 8 24
M  V30 27 1 8 25
M  V30 28 1 10 26
M  V30 29 1 11 27
M  V30 30 1 13 28
M  V30 31 1 13 29
M  V30 32 1 14 30
M  V30 33 1 15 31
M  V30 34 1 16 32
M  V30 35 1 17 33
M  V30 36 1 18 34
M  V30 37 1 18 35
M  V30 38 1 19 36
M  V30 39 1 20 37
M  V30 40 1 21 38
M  V30 41 1 22 39
M  V30 42 1 22 40
M  V30 43 1 22 41
M  V30 44 1 23 42
M  V30 END BOND
M  V30 END CTAB
M  END
>  <Structure No>
6135

>  <LogS>
-3.8124

>  <MMFF94 Energy>
27.905

$$$$
Compound 6136
Actelion Java MolfileCreator 2.0

  0  0  0  0  0  0              0 V3000
M  V30 BEGIN CTAB
M  V30 COUNTS 20 19 0 0 0
M  V30 BEGIN ATOM
M  V30 1 S -1.7705 -0.724 1.2874 0
M  V30 2 C -0.6812 -0.0085 -0.0057 0
M  V30 3 C 0.7996 0.0498 0.5165 0 CFG=1
M  V30 4 C -0.8276 -0.876 -1.2713 0
M  V30 5 C -1.2042 1.4103 -0.3119 0
M  V30 6 N 1.3502 -1.2795 0.8317 0 CHG=1
M  V30 7 C 1.7241 0.7825 -0.4299 0
M  V30 8 O 2.2292 0.1946 -1.4229 0
M  V30 9 O 2.0038 2.1275 -0.2197 0 CHG=-1
M  V30 10 H -1.476 0.2632 2.2477 0
M  V30 11 H 0.7919 0.6369 1.4632 0
M  V30 12 H -0.5698 -1.935 -1.064 0
M  V30 13 H -1.8796 -0.8582 -1.6301 0
M  V30 14 H -0.1834 -0.5006 -2.0931 0
M  V30 15 H -2.2867 1.3819 -0.5629 0
M  V30 16 H -0.6678 1.8565 -1.1764 0
M  V30 17 H -1.0697 2.0761 0.5673 0
M  V30 18 H 1.4527 -1.8649 -0.0277 0
M  V30 19 H 0.7451 -1.7797 1.5206 0
M  V30 20 H 2.2954 -1.1686 1.2668 0
M  V30 END ATOM
M  V30 BEGIN BOND
M  V30 1 1 1 2
M  V30 2 1 2 3
M  V30 3 1 2 4
M  V30 4 1 2 5
M  V30 5 1 3 6
M  V30 6 1 3 7
M  V30 7 2 7 8
M  V30 8 1 7 9
M  V30 9 1 1 10
M  V30 10 1 3 11
M  V30 11 1 4 12
M  V30 12 1 4 13
M  V30 13 1 4 14
M  V30 14 1 5 15
M  V30 15 1 5 16
M  V30 16 1 5 17
M  V30 17 1 6 18
M  V30 18 1 6 19
M  V30 19 1 6 20
M  V30 END BOND
M  V30 BEGIN COLLECTION
M  V30 MDLV30/STEABS ATOMS=(1 3)
M  V30 END COLLECTION
M  V30 END CTAB
M  END
>  <Structure No>
6136

>  <LogS>
-0.1285

>  <MMFF94 Energy>
12.46

$$$$
Compound 6137
Actelion Java MolfileCreator 2.0

  0  0  0  0  0  0              0 V3000
M  V30 BEGIN CTAB
M  V30 COUNTS 50 52 0 0 0
M  V30 BEGIN ATOM
M  V30 1 Cl -8.5765 0.0806 -2.1793 0
M  V30 2 C -7.0197 0.1124 -1.3717 0
M  V30 3 C -6.0338 -0.8137 -1.716 0
M  V30 4 C -6.7632 1.0649 -0.3844 0
M  V30 5 C -4.7908 -0.7922 -1.0759 0
M  V30 6 C -5.5235 1.0915 0.2593 0
M  V30 7 C -4.5146 0.1615 -0.0689 0
M  V30 8 C -3.1629 0.2548 0.6564 0 CFG=1
M  V30 9 O -3.3986 0.4056 2.0391 0
M  V30 10 C -2.4101 1.5028 0.1517 0
M  V30 11 C -2.2417 -0.9719 0.4325 0
M  V30 12 C -1.0334 1.6366 0.8252 0
M  V30 13 C -0.8808 -0.7756 1.1185 0
M  V30 14 N -0.1939 0.435 0.6071 0 CHG=1 CFG=1
M  V30 15 C 1.1199 0.6393 1.2702 0
M  V30 16 C 2.1653 -0.4605 0.9833 0
M  V30 17 C 2.4504 -0.6512 -0.5134 0
M  V30 18 C 3.672 -1.5066 -0.7201 0
M  V30 19 O 3.5062 -2.7492 -0.86 0
M  V30 20 C 5.0529 -0.9467 -0.7331 0
M  V30 21 C 6.1396 -1.7743 -1.0801 0
M  V30 22 C 5.3117 0.3992 -0.3987 0
M  V30 23 C 7.4432 -1.2696 -1.0972 0
M  V30 24 C 6.618 0.8975 -0.4171 0
M  V30 25 C 7.6825 0.0651 -0.7666 0
M  V30 26 F 8.9478 0.5519 -0.783 0
M  V30 27 H -6.229 -1.5535 -2.482 0
M  V30 28 H -7.5232 1.7873 -0.1149 0
M  V30 29 H -4.0663 -1.5322 -1.3777 0
M  V30 30 H -5.3498 1.8439 1.0186 0
M  V30 31 H -3.8868 -0.4012 2.3519 0
M  V30 32 H -2.2724 1.443 -0.9509 0
M  V30 33 H -2.9991 2.4207 0.3684 0
M  V30 34 H -2.7247 -1.8928 0.8265 0
M  V30 35 H -2.0418 -1.1167 -0.6511 0
M  V30 36 H -0.5334 2.5334 0.3943 0
M  V30 37 H -1.1728 1.8252 1.9145 0
M  V30 38 H -0.2815 -1.6836 0.8989 0
M  V30 39 H -1.0171 -0.7165 2.2222 0
M  V30 40 H -0.0445 0.3391 -0.4244 0
M  V30 41 H 1.5627 1.6064 0.9387 0
M  V30 42 H 0.9848 0.7111 2.3735 0
M  V30 43 H 1.8596 -1.4254 1.4382 0
M  V30 44 H 3.1045 -0.1623 1.4984 0
M  V30 45 H 2.5744 0.3276 -1.023 0
M  V30 46 H 1.5835 -1.157 -0.9907 0
M  V30 47 H 5.9831 -2.8128 -1.3436 0
M  V30 48 H 4.5166 1.0726 -0.112 0
M  V30 49 H 8.268 -1.9162 -1.3676 0
M  V30 50 H 6.804 1.9317 -0.157 0
M  V30 END ATOM
M  V30 BEGIN BOND
M  V30 1 1 1 2
M  V30 2 2 2 3
M  V30 3 1 2 4
M  V30 4 1 3 5
M  V30 5 2 4 6
M  V30 6 2 5 7
M  V30 7 1 7 8
M  V30 8 1 8 9
M  V30 9 1 8 10
M  V30 10 1 8 11
M  V30 11 1 10 12
M  V30 12 1 11 13
M  V30 13 1 12 14
M  V30 14 1 14 15
M  V30 15 1 15 16
M  V30 16 1 16 17
M  V30 17 1 17 18
M  V30 18 2 18 19
M  V30 19 1 18 20
M  V30 20 2 20 21
M  V30 21 1 20 22
M  V30 22 1 21 23
M  V30 23 2 22 24
M  V30 24 2 23 25
M  V30 25 1 25 26
M  V30 26 1 6 7
M  V30 27 1 13 14
M  V30 28 1 24 25
M  V30 29 1 3 27
M  V30 30 1 4 28
M  V30 31 1 5 29
M  V30 32 1 6 30
M  V30 33 1 9 31
M  V30 34 1 10 32
M  V30 35 1 10 33
M  V30 36 1 11 34
M  V30 37 1 11 35
M  V30 38 1 12 36
M  V30 39 1 12 37
M  V30 40 1 13 38
M  V30 41 1 13 39
M  V30 42 1 14 40
M  V30 43 1 15 41
M  V30 44 1 15 42
M  V30 45 1 16 43
M  V30 46 1 16 44
M  V30 47 1 17 45
M  V30 48 1 17 46
M  V30 49 1 21 47
M  V30 50 1 22 48
M  V30 51 1 23 49
M  V30 52 1 24 50
M  V30 END BOND
M  V30 BEGIN COLLECTION
M  V30 MDLV30/STEABS ATOMS=(2 8 14)
M  V30 END COLLECTION
M  V30 END CTAB
M  END
>  <Structure No>
6137

>  <LogS>
-4.4289

>  <MMFF94 Energy>
43.938

$$$$
Compound 6138
Actelion Java MolfileCreator 2.0

  0  0  0  0  0  0              0 V3000
M  V30 BEGIN CTAB
M  V30 COUNTS 32 32 0 0 0
M  V30 BEGIN ATOM
M  V30 1 Cl 0.7392 3.5358 0.2463 0
M  V30 2 C 1.722 2.5396 -0.8553 0
M  V30 3 Cl 3.4149 3.0873 -0.7971 0
M  V30 4 C 1.6383 1.0978 -0.4566 0
M  V30 5 O 1.9801 0.7572 0.7088 0
M  V30 6 N 1.1746 0.1132 -1.3942 0
M  V30 7 C 0.9621 -1.2938 -1.0293 0 CFG=1
M  V30 8 C -0.5281 -1.5724 -0.6896 0 CFG=2
M  V30 9 C 1.4588 -2.2109 -2.1599 0
M  V30 10 O -1.3749 -1.4851 -1.8125 0
M  V30 11 C -1.0185 -0.6948 0.4479 0
M  V30 12 O 2.8236 -1.9976 -2.4012 0
M  V30 13 C -0.7974 -1.0986 1.7749 0
M  V30 14 C -1.6182 0.5558 0.2113 0
M  V30 15 C -1.1861 -0.284 2.8416 0
M  V30 16 C -2.0078 1.3698 1.2784 0
M  V30 17 C -1.7967 0.9597 2.6049 0
M  V30 18 N -2.1925 1.8052 3.7004 0 CHG=1
M  V30 19 O -2.0073 1.4457 4.8817 0
M  V30 20 O -2.7814 3.0263 3.4641 0 CHG=-1
M  V30 21 H 1.3414 2.6831 -1.8878 0
M  V30 22 H 0.9013 0.4286 -2.3523 0
M  V30 23 H 1.5649 -1.5418 -0.1271 0
M  V30 24 H -0.5872 -2.6281 -0.343 0
M  V30 25 H 1.281 -3.2785 -1.8961 0
M  V30 26 H 0.8999 -1.9981 -3.096 0
M  V30 27 H -1.1584 -0.6562 -2.31 0
M  V30 28 H 3.3158 -2.4393 -1.6608 0
M  V30 29 H -0.3144 -2.0449 1.9853 0
M  V30 30 H -1.7751 0.9176 -0.7953 0
M  V30 31 H -1.0025 -0.625 3.8524 0
M  V30 32 H -2.4656 2.3267 1.0636 0
M  V30 END ATOM
M  V30 BEGIN BOND
M  V30 1 1 1 2
M  V30 2 1 2 3
M  V30 3 1 2 4
M  V30 4 2 4 5
M  V30 5 1 4 6
M  V30 6 1 6 7
M  V30 7 1 7 8
M  V30 8 1 7 9
M  V30 9 1 8 10
M  V30 10 1 8 11
M  V30 11 1 9 12
M  V30 12 2 11 13
M  V30 13 1 11 14
M  V30 14 1 13 15
M  V30 15 2 14 16
M  V30 16 2 15 17
M  V30 17 1 17 18
M  V30 18 2 18 19
M  V30 19 1 18 20
M  V30 20 1 16 17
M  V30 21 1 2 21
M  V30 22 1 6 22
M  V30 23 1 7 23
M  V30 24 1 8 24
M  V30 25 1 9 25
M  V30 26 1 9 26
M  V30 27 1 10 27
M  V30 28 1 12 28
M  V30 29 1 13 29
M  V30 30 1 14 30
M  V30 31 1 15 31
M  V30 32 1 16 32
M  V30 END BOND
M  V30 BEGIN COLLECTION
M  V30 MDLV30/STEABS ATOMS=(2 7 8)
M  V30 END COLLECTION
M  V30 END CTAB
M  END
>  <Structure No>
6138

>  <LogS>
-2.1114

>  <MMFF94 Energy>
131.04

$$$$
Compound 6139
Actelion Java MolfileCreator 2.0

  0  0  0  0  0  0              0 V3000
M  V30 BEGIN CTAB
M  V30 COUNTS 48 54 0 0 0
M  V30 BEGIN ATOM
M  V30 1 O 1.9783 3.6291 1.0712 0
M  V30 2 C 1.1188 2.7957 0.6816 0
M  V30 3 N 1.4186 1.3861 0.6518 0
M  V30 4 C -0.2563 3.2653 0.1687 0
M  V30 5 C 2.6412 0.6602 0.4227 0
M  V30 6 C 0.5357 0.6005 -0.1461 0 CFG=1
M  V30 7 C -1.3689 2.206 0.4577 0 CFG=2
M  V30 8 C 2.3953 -0.6253 -0.0996 0
M  V30 9 C 3.9444 1.1325 0.5739 0
M  V30 10 C 0.9136 -0.8875 -0.0225 0 CFG=2
M  V30 11 C -0.9109 0.7957 0.0737 0 CFG=1
M  V30 12 O -2.6091 2.472 -0.1953 0
M  V30 13 C 3.4414 -1.4882 -0.4162 0
M  V30 14 C 5.0063 0.2789 0.2282 0
M  V30 15 C -0.0054 -1.719 -1.0074 0 CFG=1
M  V30 16 C 0.6428 -1.535 1.348 0
M  V30 17 C -1.619 0.1842 -1.188 0 CFG=1
M  V30 18 C -3.687 1.6786 0.3437 0
M  V30 19 C 4.7569 -1.0208 -0.2606 0
M  V30 20 N -1.0425 -2.4418 -0.1831 0 CHG=1 CFG=1
M  V30 21 C -0.7372 -0.8107 -2.0214 0
M  V30 22 C -0.6567 -2.3254 1.2392 0
M  V30 23 C -2.7367 -0.5597 -0.587 0
M  V30 24 C -3.6908 0.1429 0.0836 0
M  V30 25 C -2.5019 -2.0679 -0.3907 0
M  V30 26 H -0.187 3.4345 -0.9269 0
M  V30 27 H -0.5296 4.2284 0.6509 0
M  V30 28 H 0.7474 0.9741 -1.184 0
M  V30 29 H -1.5166 2.2591 1.5646 0
M  V30 30 H 4.1403 2.1284 0.9468 0
M  V30 31 H -1.1503 0.2322 0.9986 0
M  V30 32 H 3.2459 -2.4945 -0.7622 0
M  V30 33 H 6.0264 0.6217 0.3414 0
M  V30 34 H 0.6283 -2.449 -1.5597 0
M  V30 35 H 0.5943 -0.7866 2.17 0
M  V30 36 H 1.4553 -2.2536 1.6018 0
M  V30 37 H -1.9867 0.9548 -1.9003 0
M  V30 38 H -4.6312 2.0741 -0.0835 0
M  V30 39 H -3.7702 1.8469 1.4401 0
M  V30 40 H 5.5877 -1.6685 -0.5085 0
M  V30 41 H -0.9711 -3.4571 -0.4349 0
M  V30 42 H -1.3655 -1.4193 -2.7087 0
M  V30 43 H -0.0199 -0.2893 -2.69 0
M  V30 44 H -1.438 -1.8229 1.8526 0
M  V30 45 H -0.5182 -3.3354 1.6891 0
M  V30 46 H -4.4639 -0.4195 0.5981 0
M  V30 47 H -3.1259 -2.4529 0.4469 0
M  V30 48 H -2.8868 -2.5847 -1.297 0
M  V30 END ATOM
M  V30 BEGIN BOND
M  V30 1 2 1 2
M  V30 2 1 2 3
M  V30 3 1 2 4
M  V30 4 1 3 5
M  V30 5 1 3 6
M  V30 6 1 4 7
M  V30 7 2 5 8
M  V30 8 1 5 9
M  V30 9 1 6 10
M  V30 10 1 6 11
M  V30 11 1 7 12
M  V30 12 1 8 13
M  V30 13 2 9 14
M  V30 14 1 10 15
M  V30 15 1 10 16
M  V30 16 1 11 17
M  V30 17 1 12 18
M  V30 18 2 13 19
M  V30 19 1 15 20
M  V30 20 1 15 21
M  V30 21 1 16 22
M  V30 22 1 17 23
M  V30 23 1 18 24
M  V30 24 1 20 25
M  V30 25 1 7 11
M  V30 26 1 8 10
M  V30 27 1 14 19
M  V30 28 1 17 21
M  V30 29 1 20 22
M  V30 30 2 23 24
M  V30 31 1 23 25
M  V30 32 1 4 26
M  V30 33 1 4 27
M  V30 34 1 6 28
M  V30 35 1 7 29
M  V30 36 1 9 30
M  V30 37 1 11 31
M  V30 38 1 13 32
M  V30 39 1 14 33
M  V30 40 1 15 34
M  V30 41 1 16 35
M  V30 42 1 16 36
M  V30 43 1 17 37
M  V30 44 1 18 38
M  V30 45 1 18 39
M  V30 46 1 19 40
M  V30 47 1 20 41
M  V30 48 1 21 42
M  V30 49 1 21 43
M  V30 50 1 22 44
M  V30 51 1 22 45
M  V30 52 1 24 46
M  V30 53 1 25 47
M  V30 54 1 25 48
M  V30 END BOND
M  V30 BEGIN COLLECTION
M  V30 MDLV30/STEABS ATOMS=(7 6 7 10 11 15 17 20)
M  V30 END COLLECTION
M  V30 END CTAB
M  END
>  <Structure No>
6139

>  <LogS>
-3.3202

>  <MMFF94 Energy>
94.504

$$$$
Compound 6140
Actelion Java MolfileCreator 2.0

  0  0  0  0  0  0              0 V3000
M  V30 BEGIN CTAB
M  V30 COUNTS 34 35 0 0 0
M  V30 BEGIN ATOM
M  V30 1 O -0.0784 2.1209 0.628 0
M  V30 2 C -0.2966 0.9649 0.176 0
M  V30 3 N 0.6472 0.017 0.0089 0
M  V30 4 C -1.527 0.4509 -0.1635 0
M  V30 5 N 0.0552 -1.0889 -0.442 0
M  V30 6 C 2.0437 0.163 0.3217 0
M  V30 7 N -2.797 1.1018 -0.0251 0
M  V30 8 C -1.2786 -0.8571 -0.5516 0
M  V30 9 C 0.7344 -2.3573 -0.7219 0
M  V30 10 C 2.6678 -0.717 1.2204 0
M  V30 11 C 2.7868 1.2116 -0.2434 0
M  V30 12 C -3.0706 2.2991 -0.8201 0
M  V30 13 C -3.7414 0.6258 0.9874 0
M  V30 14 C -2.3015 -1.8628 -0.9909 0
M  V30 15 C 4.0219 -0.5615 1.5325 0
M  V30 16 C 4.1407 1.3644 0.0705 0
M  V30 17 C 4.7584 0.4772 0.9565 0
M  V30 18 H 0.6872 -3.0106 0.1738 0
M  V30 19 H 1.7944 -2.1812 -0.998 0
M  V30 20 H 0.2595 -2.8774 -1.5778 0
M  V30 21 H 2.1025 -1.5134 1.687 0
M  V30 22 H 2.3179 1.9018 -0.9334 0
M  V30 23 H -2.9903 2.054 -1.9 0
M  V30 24 H -4.0913 2.6912 -0.6279 0
M  V30 25 H -2.3369 3.0942 -0.5722 0
M  V30 26 H -4.6387 1.2769 1.0452 0
M  V30 27 H -3.2498 0.6233 1.9831 0
M  V30 28 H -4.0752 -0.4037 0.7488 0
M  V30 29 H -2.4753 -2.5957 -0.1762 0
M  V30 30 H -1.9549 -2.3938 -1.9 0
M  V30 31 H -3.2579 -1.3627 -1.247 0
M  V30 32 H 4.4988 -1.2431 2.2249 0
M  V30 33 H 4.7108 2.1707 -0.3725 0
M  V30 34 H 5.8061 0.5971 1.1995 0
M  V30 END ATOM
M  V30 BEGIN BOND
M  V30 1 2 1 2
M  V30 2 1 2 3
M  V30 3 1 2 4
M  V30 4 1 3 5
M  V30 5 1 3 6
M  V30 6 1 4 7
M  V30 7 2 4 8
M  V30 8 1 5 9
M  V30 9 2 6 10
M  V30 10 1 6 11
M  V30 11 1 7 12
M  V30 12 1 7 13
M  V30 13 1 8 14
M  V30 14 1 10 15
M  V30 15 2 11 16
M  V30 16 2 15 17
M  V30 17 1 5 8
M  V30 18 1 16 17
M  V30 19 1 9 18
M  V30 20 1 9 19
M  V30 21 1 9 20
M  V30 22 1 10 21
M  V30 23 1 11 22
M  V30 24 1 12 23
M  V30 25 1 12 24
M  V30 26 1 12 25
M  V30 27 1 13 26
M  V30 28 1 13 27
M  V30 29 1 13 28
M  V30 30 1 14 29
M  V30 31 1 14 30
M  V30 32 1 14 31
M  V30 33 1 15 32
M  V30 34 1 16 33
M  V30 35 1 17 34
M  V30 END BOND
M  V30 END CTAB
M  END
>  <Structure No>
6140

>  <LogS>
-0.6286

>  <MMFF94 Energy>
118.6

$$$$
Compound 6141
Actelion Java MolfileCreator 2.0

  0  0  0  0  0  0              0 V3000
M  V30 BEGIN CTAB
M  V30 COUNTS 54 57 0 0 0
M  V30 BEGIN ATOM
M  V30 1 Cl -6.3563 -2.1968 3.2558 0
M  V30 2 C -5.3951 -1.5707 1.9286 0
M  V30 3 C -4.0358 -1.2966 2.1181 0
M  V30 4 C -5.9944 -1.3223 0.6901 0
M  V30 5 C -3.2604 -0.787 1.0607 0
M  V30 6 C -5.2337 -0.8182 -0.3668 0
M  V30 7 N -1.9013 -0.3434 1.2753 0
M  V30 8 C -3.8697 -0.5663 -0.1899 0
M  V30 9 C -1.4812 0.8768 0.6239 0
M  V30 10 C -0.9552 -1.1363 2.0805 0
M  V30 11 S -2.8665 -0.0644 -1.5907 0
M  V30 12 C -1.9723 1.1822 -0.6604 0
M  V30 13 C -0.7058 1.8337 1.3039 0
M  V30 14 C -0.6093 -2.4706 1.3988 0
M  V30 15 C -1.6942 2.4209 -1.2478 0
M  V30 16 C -0.4086 3.0593 0.7005 0
M  V30 17 C -0.0718 -2.3076 -0.0348 0
M  V30 18 C -0.9064 3.3546 -0.5706 0
M  V30 19 N 0.9214 -1.217 -0.1289 0
M  V30 20 C 1.1021 -0.7773 -1.5239 0
M  V30 21 C 2.2238 -1.6053 0.4591 0
M  V30 22 C 1.9481 0.5131 -1.5683 0
M  V30 23 C 3.3262 -0.5709 0.1338 0
M  V30 24 N 2.7348 0.7041 -0.3252 0 CHG=1
M  V30 25 C 3.7269 1.8024 -0.4472 0
M  V30 26 C 4.9843 1.4571 -1.2716 0
M  V30 27 O 5.7826 2.5991 -1.4253 0
M  V30 28 H -3.607 -1.4439 3.0989 0
M  V30 29 H -7.0476 -1.5258 0.5439 0
M  V30 30 H -5.6988 -0.6514 -1.3301 0
M  V30 31 H -1.3762 -1.3345 3.0868 0
M  V30 32 H -0.0128 -0.5786 2.2549 0
M  V30 33 H -0.3605 1.6537 2.313 0
M  V30 34 H -1.5145 -3.1152 1.3733 0
M  V30 35 H 0.1476 -3.0 2.0162 0
M  V30 36 H -2.0628 2.6494 -2.2395 0
M  V30 37 H 0.1918 3.7892 1.2276 0
M  V30 38 H -0.9447 -2.0924 -0.6877 0
M  V30 39 H 0.3572 -3.2723 -0.3871 0
M  V30 40 H -0.6801 4.3072 -1.0319 0
M  V30 41 H 0.121 -0.5666 -2.0023 0
M  V30 42 H 1.6006 -1.5784 -2.1167 0
M  V30 43 H 2.5457 -2.6065 0.0928 0
M  V30 44 H 2.1191 -1.6664 1.5635 0
M  V30 45 H 1.2681 1.3842 -1.7074 0
M  V30 46 H 2.6028 0.4658 -2.4628 0
M  V30 47 H 3.9786 -0.9982 -0.6604 0
M  V30 48 H 3.9531 -0.4044 1.0388 0
M  V30 49 H 2.0633 1.0189 0.4172 0
M  V30 50 H 3.2361 2.6969 -0.8935 0
M  V30 51 H 4.0603 2.1082 0.5704 0
M  V30 52 H 4.7247 1.0442 -2.2695 0
M  V30 53 H 5.5869 0.6956 -0.7348 0
M  V30 54 H 5.353 3.1542 -2.1277 0
M  V30 END ATOM
M  V30 BEGIN BOND
M  V30 1 1 1 2
M  V30 2 2 2 3
M  V30 3 1 2 4
M  V30 4 1 3 5
M  V30 5 2 4 6
M  V30 6 1 5 7
M  V30 7 2 5 8
M  V30 8 1 7 9
M  V30 9 1 7 10
M  V30 10 1 8 11
M  V30 11 2 9 12
M  V30 12 1 9 13
M  V30 13 1 10 14
M  V30 14 1 12 15
M  V30 15 2 13 16
M  V30 16 1 14 17
M  V30 17 2 15 18
M  V30 18 1 17 19
M  V30 19 1 19 20
M  V30 20 1 19 21
M  V30 21 1 20 22
M  V30 22 1 21 23
M  V30 23 1 22 24
M  V30 24 1 24 25
M  V30 25 1 25 26
M  V30 26 1 26 27
M  V30 27 1 6 8
M  V30 28 1 11 12
M  V30 29 1 16 18
M  V30 30 1 23 24
M  V30 31 1 3 28
M  V30 32 1 4 29
M  V30 33 1 6 30
M  V30 34 1 10 31
M  V30 35 1 10 32
M  V30 36 1 13 33
M  V30 37 1 14 34
M  V30 38 1 14 35
M  V30 39 1 15 36
M  V30 40 1 16 37
M  V30 41 1 17 38
M  V30 42 1 17 39
M  V30 43 1 18 40
M  V30 44 1 20 41
M  V30 45 1 20 42
M  V30 46 1 21 43
M  V30 47 1 21 44
M  V30 48 1 22 45
M  V30 49 1 22 46
M  V30 50 1 23 47
M  V30 51 1 23 48
M  V30 52 1 24 49
M  V30 53 1 25 50
M  V30 54 1 25 51
M  V30 55 1 26 52
M  V30 56 1 26 53
M  V30 57 1 27 54
M  V30 END BOND
M  V30 END CTAB
M  END
>  <Structure No>
6141

>  <LogS>
-4.1546

>  <MMFF94 Energy>
163.97

$$$$
Compound 6142
Actelion Java MolfileCreator 2.0

  0  0  0  0  0  0              0 V3000
M  V30 BEGIN CTAB
M  V30 COUNTS 41 43 0 0 0
M  V30 BEGIN ATOM
M  V30 1 S -4.1882 -0.4825 0.7239 0
M  V30 2 C -3.0911 -1.8416 0.3232 0
M  V30 3 C -3.26 0.7005 -0.2514 0
M  V30 4 C -1.6967 -1.6605 0.4146 0
M  V30 5 C -3.6262 -3.0957 0.0103 0
M  V30 6 C -1.8587 0.7571 -0.1232 0
M  V30 7 C -3.9379 1.6293 -1.0481 0
M  V30 8 N -1.1604 -0.3217 0.5446 0
M  V30 9 C -0.8555 -2.7735 0.2322 0
M  V30 10 C -2.7787 -4.1889 -0.178 0
M  V30 11 C -1.1599 1.8044 -0.753 0
M  V30 12 C -3.2297 2.6485 -1.6881 0
M  V30 13 C 0.0163 -0.0448 1.3848 0
M  V30 14 C -1.3968 -4.0303 -0.0558 0
M  V30 15 C -1.8455 2.7445 -1.5285 0
M  V30 16 C 1.3348 -0.1613 0.5919 0
M  V30 17 C 2.3573 0.9028 1.0366 0
M  V30 18 N 3.6852 0.7156 0.4034 0 CHG=1
M  V30 19 C 3.6614 1.0715 -1.0285 0
M  V30 20 C 4.6901 1.5404 1.0979 0
M  V30 21 H -4.6984 -3.2304 -0.0571 0
M  V30 22 H -5.0153 1.5833 -1.1436 0
M  V30 23 H 0.2162 -2.6758 0.2713 0
M  V30 24 H -3.1935 -5.1616 -0.409 0
M  V30 25 H -0.0867 1.8867 -0.6745 0
M  V30 26 H -3.7559 3.3747 -2.2942 0
M  V30 27 H 0.0393 -0.75 2.2445 0
M  V30 28 H -0.0904 0.9716 1.8253 0
M  V30 29 H -0.7418 -4.8792 -0.2034 0
M  V30 30 H -1.3 3.5406 -2.0187 0
M  V30 31 H 1.7787 -1.1637 0.7654 0
M  V30 32 H 1.131 -0.0667 -0.4936 0
M  V30 33 H 1.9596 1.9196 0.8157 0
M  V30 34 H 2.4554 0.8221 2.1439 0
M  V30 35 H 3.9784 -0.2861 0.4947 0
M  V30 36 H 4.6836 1.0146 -1.4637 0
M  V30 37 H 3.2696 2.1018 -1.1812 0
M  V30 38 H 3.0378 0.3562 -1.6036 0
M  V30 39 H 5.6971 1.3915 0.6494 0
M  V30 40 H 4.4288 2.621 1.0408 0
M  V30 41 H 4.7644 1.2464 2.1682 0
M  V30 END ATOM
M  V30 BEGIN BOND
M  V30 1 1 1 2
M  V30 2 1 1 3
M  V30 3 2 2 4
M  V30 4 1 2 5
M  V30 5 2 3 6
M  V30 6 1 3 7
M  V30 7 1 4 8
M  V30 8 1 4 9
M  V30 9 2 5 10
M  V30 10 1 6 11
M  V30 11 2 7 12
M  V30 12 1 8 13
M  V30 13 2 9 14
M  V30 14 2 11 15
M  V30 15 1 13 16
M  V30 16 1 16 17
M  V30 17 1 17 18
M  V30 18 1 18 19
M  V30 19 1 18 20
M  V30 20 1 6 8
M  V30 21 1 10 14
M  V30 22 1 12 15
M  V30 23 1 5 21
M  V30 24 1 7 22
M  V30 25 1 9 23
M  V30 26 1 10 24
M  V30 27 1 11 25
M  V30 28 1 12 26
M  V30 29 1 13 27
M  V30 30 1 13 28
M  V30 31 1 14 29
M  V30 32 1 15 30
M  V30 33 1 16 31
M  V30 34 1 16 32
M  V30 35 1 17 33
M  V30 36 1 17 34
M  V30 37 1 18 35
M  V30 38 1 19 36
M  V30 39 1 19 37
M  V30 40 1 19 38
M  V30 41 1 20 39
M  V30 42 1 20 40
M  V30 43 1 20 41
M  V30 END BOND
M  V30 END CTAB
M  END
>  <Structure No>
6142

>  <LogS>
-4.3017

>  <MMFF94 Energy>
66.054

$$$$
Compound 6143
Actelion Java MolfileCreator 2.0

  0  0  0  0  0  0              0 V3000
M  V30 BEGIN CTAB
M  V30 COUNTS 26 27 0 0 0
M  V30 BEGIN ATOM
M  V30 1 O 0.1574 -1.1815 -2.6798 0
M  V30 2 C -0.6199 -0.8032 -1.7631 0
M  V30 3 N -0.2168 -0.2737 -0.5904 0
M  V30 4 C -1.995 -0.8904 -1.8017 0
M  V30 5 N -1.3006 0.0011 0.1296 0
M  V30 6 C 1.1468 -0.0588 -0.1845 0
M  V30 7 C -2.3926 -0.3832 -0.5748 0
M  V30 8 C -1.306 0.6101 1.4622 0
M  V30 9 C 2.0243 0.663 -1.0097 0
M  V30 10 C 1.6211 -0.5916 1.0251 0
M  V30 11 C -3.8113 -0.2346 -0.1197 0
M  V30 12 C 3.3525 0.8634 -0.6211 0
M  V30 13 C 2.95 -0.3896 1.4107 0
M  V30 14 C 3.8147 0.339 0.5891 0
M  V30 15 H -2.6168 -1.2724 -2.6008 0
M  V30 16 H -2.2225 1.2192 1.6084 0
M  V30 17 H -0.4353 1.2873 1.5842 0
M  V30 18 H -1.2719 -0.1847 2.2356 0
M  V30 19 H 1.6748 1.0785 -1.9464 0
M  V30 20 H 0.9664 -1.1738 1.6603 0
M  V30 21 H -4.4946 -0.7988 -0.789 0
M  V30 22 H -3.9191 -0.6304 0.9116 0
M  V30 23 H -4.0957 0.8379 -0.1354 0
M  V30 24 H 4.0232 1.4256 -1.2579 0
M  V30 25 H 3.3107 -0.802 2.3442 0
M  V30 26 H 4.8432 0.494 0.8885 0
M  V30 END ATOM
M  V30 BEGIN BOND
M  V30 1 2 1 2
M  V30 2 1 2 3
M  V30 3 1 2 4
M  V30 4 1 3 5
M  V30 5 1 3 6
M  V30 6 2 4 7
M  V30 7 1 5 8
M  V30 8 2 6 9
M  V30 9 1 6 10
M  V30 10 1 7 11
M  V30 11 1 9 12
M  V30 12 2 10 13
M  V30 13 2 12 14
M  V30 14 1 5 7
M  V30 15 1 13 14
M  V30 16 1 4 15
M  V30 17 1 8 16
M  V30 18 1 8 17
M  V30 19 1 8 18
M  V30 20 1 9 19
M  V30 21 1 10 20
M  V30 22 1 11 21
M  V30 23 1 11 22
M  V30 24 1 11 23
M  V30 25 1 12 24
M  V30 26 1 13 25
M  V30 27 1 14 26
M  V30 END BOND
M  V30 END CTAB
M  END
>  <Structure No>
6143

>  <LogS>
-0.5642

>  <MMFF94 Energy>
62.235

$$$$
Compound 6144
Actelion Java MolfileCreator 2.0

  0  0  0  0  0  0              0 V3000
M  V30 BEGIN CTAB
M  V30 COUNTS 41 43 0 0 0
M  V30 BEGIN ATOM
M  V30 1 S -3.3837 0.8048 0.8853 0
M  V30 2 C -2.8157 1.0597 -0.7999 0
M  V30 3 C -2.587 -0.7989 1.0185 0
M  V30 4 C -1.4662 0.8128 -1.1114 0
M  V30 5 C -3.6818 1.5677 -1.7733 0
M  V30 6 C -1.2566 -0.9495 0.5782 0
M  V30 7 C -3.2797 -1.8838 1.5654 0
M  V30 8 N -0.6334 0.1283 -0.1547 0
M  V30 9 C -0.9826 1.1303 -2.3889 0
M  V30 10 C -3.1958 1.868 -3.0493 0
M  V30 11 C -0.6435 -2.2095 0.6804 0
M  V30 12 C -2.6472 -3.1223 1.6931 0
M  V30 13 C 0.5212 0.8468 0.4123 0
M  V30 14 C -1.8463 1.6607 -3.3528 0
M  V30 15 C -1.3314 -3.2843 1.2524 0
M  V30 16 C 1.8577 0.0511 0.3405 0 CFG=2
M  V30 17 N 3.0177 0.8851 0.7956 0 CHG=1
M  V30 18 C 2.0775 -0.471 -1.1001 0
M  V30 19 C 2.8278 1.3894 2.1738 0
M  V30 20 C 4.2887 0.1291 0.7439 0
M  V30 21 H -4.7207 1.7564 -1.535 0
M  V30 22 H -4.3013 -1.7649 1.9034 0
M  V30 23 H 0.0499 0.9433 -2.6472 0
M  V30 24 H -3.8625 2.2721 -3.8001 0
M  V30 25 H 0.3402 -2.3857 0.274 0
M  V30 26 H -3.1804 -3.9601 2.1234 0
M  V30 27 H 0.2742 1.085 1.4677 0
M  V30 28 H 0.6622 1.8173 -0.1139 0
M  V30 29 H -1.4728 1.8974 -4.3406 0
M  V30 30 H -0.8531 -4.2521 1.3285 0
M  V30 31 H 1.7676 -0.8269 1.0154 0
M  V30 32 H 3.1144 1.7149 0.1627 0
M  V30 33 H 2.8745 -1.2418 -1.1217 0
M  V30 34 H 2.3543 0.3639 -1.778 0
M  V30 35 H 1.1722 -0.968 -1.5027 0
M  V30 36 H 2.5364 0.5681 2.8653 0
M  V30 37 H 2.059 2.19 2.2001 0
M  V30 38 H 3.7544 1.8659 2.5631 0
M  V30 39 H 5.1218 0.7078 1.2006 0
M  V30 40 H 4.1988 -0.8429 1.2773 0
M  V30 41 H 4.6016 -0.0503 -0.3058 0
M  V30 END ATOM
M  V30 BEGIN BOND
M  V30 1 1 1 2
M  V30 2 1 1 3
M  V30 3 2 2 4
M  V30 4 1 2 5
M  V30 5 2 3 6
M  V30 6 1 3 7
M  V30 7 1 4 8
M  V30 8 1 4 9
M  V30 9 2 5 10
M  V30 10 1 6 11
M  V30 11 2 7 12
M  V30 12 1 8 13
M  V30 13 2 9 14
M  V30 14 2 11 15
M  V30 15 1 13 16
M  V30 16 1 16 17
M  V30 17 1 16 18
M  V30 18 1 17 19
M  V30 19 1 17 20
M  V30 20 1 6 8
M  V30 21 1 10 14
M  V30 22 1 12 15
M  V30 23 1 5 21
M  V30 24 1 7 22
M  V30 25 1 9 23
M  V30 26 1 10 24
M  V30 27 1 11 25
M  V30 28 1 12 26
M  V30 29 1 13 27
M  V30 30 1 13 28
M  V30 31 1 14 29
M  V30 32 1 15 30
M  V30 33 1 16 31
M  V30 34 1 17 32
M  V30 35 1 18 33
M  V30 36 1 18 34
M  V30 37 1 18 35
M  V30 38 1 19 36
M  V30 39 1 19 37
M  V30 40 1 19 38
M  V30 41 1 20 39
M  V30 42 1 20 40
M  V30 43 1 20 41
M  V30 END BOND
M  V30 BEGIN COLLECTION
M  V30 MDLV30/STEABS ATOMS=(1 16)
M  V30 END COLLECTION
M  V30 END CTAB
M  END
>  <Structure No>
6144

>  <LogS>
-4.2597

>  <MMFF94 Energy>
102.46

$$$$
Compound 6145
Actelion Java MolfileCreator 2.0

  0  0  0  0  0  0              0 V3000
M  V30 BEGIN CTAB
M  V30 COUNTS 20 21 0 0 0
M  V30 BEGIN ATOM
M  V30 1 S 1.5049 -1.1703 0.0 0
M  V30 2 C 0.5261 0.2003 -0.0918 0
M  V30 3 C 2.9143 -0.2669 -0.1719 0
M  V30 4 N 1.2485 1.3331 -0.2506 0
M  V30 5 N -0.9054 0.1824 -0.0122 0
M  V30 6 N 4.2391 -0.8059 -0.1867 0 CHG=1
M  V30 7 C 2.5827 1.0779 -0.2961 0
M  V30 8 C -1.7679 1.2989 -0.0834 0
M  V30 9 C -1.7303 -1.0095 0.1586 0
M  V30 10 O 5.2265 -0.0546 -0.3197 0
M  V30 11 O 4.4339 -2.1608 -0.0539 0 CHG=-1
M  V30 12 O -1.3761 2.487 -0.2303 0
M  V30 13 N -3.1245 0.9403 0.028 0
M  V30 14 C -3.1964 -0.506 0.1848 0
M  V30 15 H 3.3134 1.8662 -0.419 0
M  V30 16 H -1.5714 -1.7057 -0.6929 0
M  V30 17 H -1.4734 -1.5144 1.1147 0
M  V30 18 H -3.9367 1.5961 0.0028 0
M  V30 19 H -3.6811 -0.7549 1.1531 0
M  V30 20 H -3.779 -0.9458 -0.6526 0
M  V30 END ATOM
M  V30 BEGIN BOND
M  V30 1 1 1 2
M  V30 2 1 1 3
M  V30 3 2 2 4
M  V30 4 1 2 5
M  V30 5 1 3 6
M  V30 6 2 3 7
M  V30 7 1 5 8
M  V30 8 1 5 9
M  V30 9 2 6 10
M  V30 10 1 6 11
M  V30 11 2 8 12
M  V30 12 1 8 13
M  V30 13 1 9 14
M  V30 14 1 4 7
M  V30 15 1 13 14
M  V30 16 1 7 15
M  V30 17 1 9 16
M  V30 18 1 9 17
M  V30 19 1 13 18
M  V30 20 1 14 19
M  V30 21 1 14 20
M  V30 END BOND
M  V30 END CTAB
M  END
>  <Structure No>
6145

>  <LogS>
-3.2169

>  <MMFF94 Energy>
-60.586

$$$$
Compound 6146
Actelion Java MolfileCreator 2.0

  0  0  0  0  0  0              0 V3000
M  V30 BEGIN CTAB
M  V30 COUNTS 57 60 0 0 0
M  V30 BEGIN ATOM
M  V30 1 S 2.4419 -0.0813 2.279 0
M  V30 2 C 3.5385 -0.9972 1.1878 0
M  V30 3 C 2.5437 1.4105 1.284 0
M  V30 4 C 3.322 -0.956 -0.2019 0
M  V30 5 C 4.5578 -1.7868 1.7222 0
M  V30 6 C 2.376 1.3178 -0.1134 0
M  V30 7 C 2.7031 2.6555 1.8981 0
M  V30 8 N 2.3969 0.0142 -0.7386 0
M  V30 9 C 4.1557 -1.7057 -1.0486 0
M  V30 10 C 5.3698 -2.5521 0.8714 0
M  V30 11 C 2.3419 2.4965 -0.8788 0
M  V30 12 C 2.6682 3.8211 1.1275 0
M  V30 13 C 1.5937 -0.2853 -1.9379 0
M  V30 14 C 5.1982 -2.4931 -0.5227 0
M  V30 15 C 2.4829 3.7431 -0.2559 0
M  V30 16 C 0.1025 -0.0028 -1.704 0
M  V30 17 C 6.0925 -3.2922 -1.4378 0
M  V30 18 C -0.5156 -1.003 -0.7002 0
M  V30 19 F 5.5055 -4.5133 -1.7011 0
M  V30 20 F 7.3295 -3.5059 -0.8571 0
M  V30 21 F 6.2882 -2.6203 -2.6275 0
M  V30 22 N -1.9322 -0.7285 -0.3569 0
M  V30 23 C -2.8831 -1.0458 -1.4467 0
M  V30 24 C -2.1562 0.603 0.2249 0
M  V30 25 C -4.2262 -0.3084 -1.2777 0
M  V30 26 C -3.546 0.6433 0.8852 0
M  V30 27 N -4.5691 -0.1562 0.1522 0 CHG=1
M  V30 28 C -5.9201 0.4472 0.281 0
M  V30 29 C -6.4657 0.3638 1.7197 0
M  V30 30 O -7.7509 0.9169 1.7816 0
M  V30 31 H 4.6955 -1.8447 2.7894 0
M  V30 32 H 2.814 2.7218 2.9714 0
M  V30 33 H 4.0305 -1.6301 -2.1195 0
M  V30 34 H 6.141 -3.1764 1.3084 0
M  V30 35 H 2.2416 2.457 -1.9557 0
M  V30 36 H 2.7731 4.7861 1.6074 0
M  V30 37 H 1.9608 0.3215 -2.7903 0
M  V30 38 H 1.6998 -1.3522 -2.229 0
M  V30 39 H 2.4557 4.6483 -0.8503 0
M  V30 40 H -0.0175 1.0408 -1.3495 0
M  V30 41 H -0.4079 -0.0844 -2.6838 0
M  V30 42 H 0.0825 -0.9972 0.2383 0
M  V30 43 H -0.4367 -2.0353 -1.1129 0
M  V30 44 H -3.0779 -2.1406 -1.4256 0
M  V30 45 H -2.4733 -0.7999 -2.4487 0
M  V30 46 H -2.1121 1.3836 -0.5677 0
M  V30 47 H -1.3792 0.8373 0.9867 0
M  V30 48 H -4.1626 0.6907 -1.7654 0
M  V30 49 H -5.0095 -0.8895 -1.8147 0
M  V30 50 H -3.4503 0.2447 1.9217 0
M  V30 51 H -3.8451 1.7128 0.9794 0
M  V30 52 H -4.6048 -1.1204 0.5658 0
M  V30 53 H -6.6411 -0.083 -0.3769 0
M  V30 54 H -5.9034 1.5121 -0.0479 0
M  V30 55 H -5.7915 0.8951 2.4313 0
M  V30 56 H -6.5258 -0.7005 2.0342 0
M  V30 57 H -7.6382 1.8993 1.7217 0
M  V30 END ATOM
M  V30 BEGIN BOND
M  V30 1 1 1 2
M  V30 2 1 1 3
M  V30 3 2 2 4
M  V30 4 1 2 5
M  V30 5 2 3 6
M  V30 6 1 3 7
M  V30 7 1 4 8
M  V30 8 1 4 9
M  V30 9 2 5 10
M  V30 10 1 6 11
M  V30 11 2 7 12
M  V30 12 1 8 13
M  V30 13 2 9 14
M  V30 14 2 11 15
M  V30 15 1 13 16
M  V30 16 1 14 17
M  V30 17 1 16 18
M  V30 18 1 17 19
M  V30 19 1 17 20
M  V30 20 1 17 21
M  V30 21 1 18 22
M  V30 22 1 22 23
M  V30 23 1 22 24
M  V30 24 1 23 25
M  V30 25 1 24 26
M  V30 26 1 25 27
M  V30 27 1 27 28
M  V30 28 1 28 29
M  V30 29 1 29 30
M  V30 30 1 6 8
M  V30 31 1 10 14
M  V30 32 1 12 15
M  V30 33 1 26 27
M  V30 34 1 5 31
M  V30 35 1 7 32
M  V30 36 1 9 33
M  V30 37 1 10 34
M  V30 38 1 11 35
M  V30 39 1 12 36
M  V30 40 1 13 37
M  V30 41 1 13 38
M  V30 42 1 15 39
M  V30 43 1 16 40
M  V30 44 1 16 41
M  V30 45 1 18 42
M  V30 46 1 18 43
M  V30 47 1 23 44
M  V30 48 1 23 45
M  V30 49 1 24 46
M  V30 50 1 24 47
M  V30 51 1 25 48
M  V30 52 1 25 49
M  V30 53 1 26 50
M  V30 54 1 26 51
M  V30 55 1 27 52
M  V30 56 1 28 53
M  V30 57 1 28 54
M  V30 58 1 29 55
M  V30 59 1 29 56
M  V30 60 1 30 57
M  V30 END BOND
M  V30 END CTAB
M  END
>  <Structure No>
6146

>  <LogS>
-4.1488

>  <MMFF94 Energy>
192.39

$$$$
Compound 6147
Actelion Java MolfileCreator 2.0

  0  0  0  0  0  0              0 V3000
M  V30 BEGIN CTAB
M  V30 COUNTS 34 36 0 0 0
M  V30 BEGIN ATOM
M  V30 1 O 1.6691 1.2715 -0.0794 0
M  V30 2 C 0.8182 0.3632 0.5887 0 CFG=1
M  V30 3 C 2.8678 0.5938 -0.3888 0 CFG=2
M  V30 4 N -0.4991 0.3445 -0.051 0
M  V30 5 C 1.4491 -1.0259 0.5658 0 CFG=1
M  V30 6 C 2.9091 -0.7107 0.4013 0 CFG=1
M  V30 7 C 4.0655 1.5033 -0.0858 0
M  V30 8 C -1.6901 0.1628 0.5455 0
M  V30 9 C -0.7602 0.3895 -1.3814 0
M  V30 10 O 1.2202 -1.717 1.7655 0
M  V30 11 O 3.5727 -1.7139 -0.3221 0
M  V30 12 O 5.2609 0.9079 -0.5148 0
M  V30 13 N -1.9155 0.024 1.8746 0
M  V30 14 C -2.698 0.1109 -0.3688 0
M  V30 15 C -2.127 0.2561 -1.6181 0
M  V30 16 C -3.1994 -0.1657 2.3001 0
M  V30 17 C -4.0106 -0.0846 0.0551 0
M  V30 18 N -4.2326 -0.2179 1.3992 0 CHG=1
M  V30 19 N -5.0972 -0.1495 -0.8727 0
M  V30 20 H 0.7156 0.7129 1.641 0
M  V30 21 H 2.8595 0.3705 -1.4802 0
M  V30 22 H 1.0869 -1.6182 -0.3089 0
M  V30 23 H 3.3891 -0.5532 1.3974 0
M  V30 24 H 4.108 1.7496 1.0006 0
M  V30 25 H 3.9365 2.4593 -0.6367 0
M  V30 26 H -0.0023 0.4961 -2.1468 0
M  V30 27 H 0.2794 -2.0315 1.7313 0
M  V30 28 H 3.7004 -2.4732 0.3045 0
M  V30 29 H 5.5739 0.3258 0.2258 0
M  V30 30 H -2.6232 0.2483 -2.5792 0
M  V30 31 H -3.3995 -0.277 3.3578 0
M  V30 32 H -5.2043 -0.3656 1.7533 0
M  V30 33 H -4.9392 -0.0483 -1.8995 0
M  V30 34 H -6.073 -0.2992 -0.5328 0
M  V30 END ATOM
M  V30 BEGIN BOND
M  V30 1 1 1 2
M  V30 2 1 1 3
M  V30 3 1 2 4
M  V30 4 1 2 5
M  V30 5 1 3 6
M  V30 6 1 3 7
M  V30 7 1 4 8
M  V30 8 1 4 9
M  V30 9 1 5 10
M  V30 10 1 6 11
M  V30 11 1 7 12
M  V30 12 2 8 13
M  V30 13 1 8 14
M  V30 14 2 9 15
M  V30 15 1 13 16
M  V30 16 2 14 17
M  V30 17 2 16 18
M  V30 18 1 17 19
M  V30 19 1 5 6
M  V30 20 1 14 15
M  V30 21 1 17 18
M  V30 22 1 2 20
M  V30 23 1 3 21
M  V30 24 1 5 22
M  V30 25 1 6 23
M  V30 26 1 7 24
M  V30 27 1 7 25
M  V30 28 1 9 26
M  V30 29 1 10 27
M  V30 30 1 11 28
M  V30 31 1 12 29
M  V30 32 1 15 30
M  V30 33 1 16 31
M  V30 34 1 18 32
M  V30 35 1 19 33
M  V30 36 1 19 34
M  V30 END BOND
M  V30 BEGIN COLLECTION
M  V30 MDLV30/STEABS ATOMS=(4 2 3 5 6)
M  V30 END COLLECTION
M  V30 END CTAB
M  END
>  <Structure No>
6147

>  <LogS>
-1.9515

>  <MMFF94 Energy>
98.511

$$$$
Compound 6148
Actelion Java MolfileCreator 2.0

  0  0  0  0  0  0              0 V3000
M  V30 BEGIN CTAB
M  V30 COUNTS 24 25 0 0 0
M  V30 BEGIN ATOM
M  V30 1 S 1.0991 2.0299 0.93 0
M  V30 2 O 0.7029 3.4649 1.1305 0
M  V30 3 O 2.5393 1.9728 0.503 0
M  V30 4 N 0.9217 1.1752 2.4262 0 CHG=-1
M  V30 5 C 0.0604 1.3146 -0.2982 0
M  V30 6 C 1.2043 -0.2178 2.5687 0
M  V30 7 C 0.4996 1.2063 -1.6249 0
M  V30 8 C -1.215 0.8497 0.0489 0
M  V30 9 S 1.7583 -1.2362 1.3474 0
M  V30 10 N 1.0443 -0.8755 3.7354 0
M  V30 11 C -0.3271 0.63 -2.5941 0
M  V30 12 C -2.0415 0.2729 -0.9197 0
M  V30 13 C 1.7968 -2.5834 2.354 0
M  V30 14 C 1.373 -2.1897 3.6187 0
M  V30 15 C -1.6012 0.1594 -2.246 0
M  V30 16 N -2.4461 -0.4311 -3.237 0
M  V30 17 H 1.4797 1.5659 -1.91 0
M  V30 18 H -1.5682 0.9315 1.0691 0
M  V30 19 H 0.0246 0.5501 -3.6149 0
M  V30 20 H -3.0236 -0.0848 -0.6375 0
M  V30 21 H 2.0981 -3.5824 2.07 0
M  V30 22 H 1.3064 -2.8729 4.4545 0
M  V30 23 H -3.3967 -0.7841 -2.9873 0
M  V30 24 H -2.127 -0.5196 -4.2274 0
M  V30 END ATOM
M  V30 BEGIN BOND
M  V30 1 2 1 2
M  V30 2 2 1 3
M  V30 3 1 1 4
M  V30 4 1 1 5
M  V30 5 1 4 6
M  V30 6 2 5 7
M  V30 7 1 5 8
M  V30 8 1 6 9
M  V30 9 2 6 10
M  V30 10 1 7 11
M  V30 11 2 8 12
M  V30 12 1 9 13
M  V30 13 1 10 14
M  V30 14 2 11 15
M  V30 15 1 15 16
M  V30 16 1 12 15
M  V30 17 2 13 14
M  V30 18 1 7 17
M  V30 19 1 8 18
M  V30 20 1 11 19
M  V30 21 1 12 20
M  V30 22 1 13 21
M  V30 23 1 14 22
M  V30 24 1 16 23
M  V30 25 1 16 24
M  V30 END BOND
M  V30 END CTAB
M  END
>  <Structure No>
6148

>  <LogS>
-2.4248

>  <MMFF94 Energy>
48.892

$$$$
Compound 6149
Actelion Java MolfileCreator 2.0

  0  0  0  0  0  0              0 V3000
M  V30 BEGIN CTAB
M  V30 COUNTS 35 35 0 0 0
M  V30 BEGIN ATOM
M  V30 1 S -3.6119 -3.5315 -0.8017 0
M  V30 2 C -2.6351 -2.2626 -0.4617 0
M  V30 3 N -2.4752 -1.2105 -1.409 0
M  V30 4 N -1.9856 -2.1807 0.8034 0
M  V30 5 C -1.5759 -0.1242 -1.1685 0
M  V30 6 C -1.1456 -1.0713 1.1328 0
M  V30 7 O -1.4816 0.7829 -2.0404 0
M  V30 8 C -0.6702 -0.0795 0.0658 0
M  V30 9 O -0.7693 -0.9399 2.3292 0
M  V30 10 C 0.7977 -0.4322 -0.4003 0 CFG=1
M  V30 11 C -0.728 1.3715 0.6442 0
M  V30 12 C 1.9007 -0.2382 0.6923 0
M  V30 13 C 0.8995 -1.8582 -0.9845 0
M  V30 14 C -2.1264 1.7864 1.0416 0
M  V30 15 C 2.7468 1.0316 0.4874 0
M  V30 16 C -2.817 2.7005 0.3537 0
M  V30 17 C 3.7797 0.8665 -0.6277 0
M  V30 18 H -3.0147 -1.2351 -2.3038 0
M  V30 19 H -2.1725 -2.9104 1.5281 0
M  V30 20 H 1.033 0.2464 -1.2502 0
M  V30 21 H -0.0953 1.4641 1.5505 0
M  V30 22 H -0.3114 2.0899 -0.0965 0
M  V30 23 H 2.5909 -1.1104 0.7302 0
M  V30 24 H 1.4595 -0.1951 1.7053 0
M  V30 25 H 0.7016 -2.6217 -0.2027 0
M  V30 26 H 0.1865 -2.0035 -1.8218 0
M  V30 27 H 1.9193 -2.0289 -1.3915 0
M  V30 28 H -2.595 1.3071 1.8961 0
M  V30 29 H 3.2905 1.2528 1.4316 0
M  V30 30 H 2.0973 1.9041 0.2656 0
M  V30 31 H -2.39 3.1907 -0.5155 0
M  V30 32 H -3.8245 2.9622 0.6604 0
M  V30 33 H 4.4656 0.0239 -0.3967 0
M  V30 34 H 4.3809 1.796 -0.7144 0
M  V30 35 H 3.2863 0.6773 -1.6032 0
M  V30 END ATOM
M  V30 BEGIN BOND
M  V30 1 2 1 2
M  V30 2 1 2 3
M  V30 3 1 2 4
M  V30 4 1 3 5
M  V30 5 1 4 6
M  V30 6 2 5 7
M  V30 7 1 5 8
M  V30 8 2 6 9
M  V30 9 1 8 10
M  V30 10 1 8 11
M  V30 11 1 10 12
M  V30 12 1 10 13
M  V30 13 1 11 14
M  V30 14 1 12 15
M  V30 15 2 14 16
M  V30 16 1 15 17
M  V30 17 1 6 8
M  V30 18 1 3 18
M  V30 19 1 4 19
M  V30 20 1 10 20
M  V30 21 1 11 21
M  V30 22 1 11 22
M  V30 23 1 12 23
M  V30 24 1 12 24
M  V30 25 1 13 25
M  V30 26 1 13 26
M  V30 27 1 13 27
M  V30 28 1 14 28
M  V30 29 1 15 29
M  V30 30 1 15 30
M  V30 31 1 16 31
M  V30 32 1 16 32
M  V30 33 1 17 33
M  V30 34 1 17 34
M  V30 35 1 17 35
M  V30 END BOND
M  V30 BEGIN COLLECTION
M  V30 MDLV30/STEABS ATOMS=(1 10)
M  V30 END COLLECTION
M  V30 END CTAB
M  END
>  <Structure No>
6149

>  <LogS>
-3.4585

>  <MMFF94 Energy>
-81.628

$$$$
Compound 6150
Actelion Java MolfileCreator 2.0

  0  0  0  0  0  0              0 V3000
M  V30 BEGIN CTAB
M  V30 COUNTS 21 22 0 0 0
M  V30 BEGIN ATOM
M  V30 1 O -3.33 -1.1883 -0.0791 0
M  V30 2 C -2.0992 -0.9114 -0.0553 0
M  V30 3 N -1.6772 0.3947 -0.1828 0
M  V30 4 N -1.1873 -1.9271 0.1022 0
M  V30 5 C -0.3372 0.6365 -0.1118 0
M  V30 6 C -2.638 1.4973 -0.3126 0
M  V30 7 C 0.1539 -1.6771 0.1557 0
M  V30 8 N 0.2742 1.8365 -0.1763 0
M  V30 9 C 0.5715 -0.3568 0.0461 0
M  V30 10 O 0.9771 -2.6191 0.3047 0
M  V30 11 C 1.5886 1.513 -0.0525 0
M  V30 12 N 1.8012 0.1805 0.0837 0
M  V30 13 C 3.0839 -0.4943 0.251 0
M  V30 14 H -1.5272 -2.9121 0.1903 0
M  V30 15 H -2.172 2.3826 -0.7958 0
M  V30 16 H -3.0093 1.7872 0.6926 0
M  V30 17 H -3.4982 1.1947 -0.9473 0
M  V30 18 H 2.3818 2.2497 -0.0597 0
M  V30 19 H 3.9161 0.2408 0.2207 0
M  V30 20 H 3.2296 -1.23 -0.5673 0
M  V30 21 H 3.1062 -1.0184 1.2294 0
M  V30 END ATOM
M  V30 BEGIN BOND
M  V30 1 2 1 2
M  V30 2 1 2 3
M  V30 3 1 2 4
M  V30 4 1 3 5
M  V30 5 1 3 6
M  V30 6 1 4 7
M  V30 7 1 5 8
M  V30 8 2 5 9
M  V30 9 2 7 10
M  V30 10 2 8 11
M  V30 11 1 9 12
M  V30 12 1 12 13
M  V30 13 1 7 9
M  V30 14 1 11 12
M  V30 15 1 4 14
M  V30 16 1 6 15
M  V30 17 1 6 16
M  V30 18 1 6 17
M  V30 19 1 11 18
M  V30 20 1 13 19
M  V30 21 1 13 20
M  V30 22 1 13 21
M  V30 END BOND
M  V30 END CTAB
M  END
>  <Structure No>
6150

>  <LogS>
-2.7372

>  <MMFF94 Energy>
-139.31

$$$$
Compound 6151
Actelion Java MolfileCreator 2.0

  0  0  0  0  0  0              0 V3000
M  V30 BEGIN CTAB
M  V30 COUNTS 16 17 0 0 0
M  V30 BEGIN ATOM
M  V30 1 O 2.1909 2.1909 0.081 0
M  V30 2 C 1.7231 1.0222 0.0605 0
M  V30 3 N 2.5253 -0.1575 0.0455 0
M  V30 4 C 0.3075 0.6704 0.0487 0
M  V30 5 C 1.5837 -1.2292 0.0245 0
M  V30 6 C 0.2223 -0.7052 0.0266 0
M  V30 7 C -0.8325 1.4724 0.0564 0
M  V30 8 O 1.9035 -2.4466 0.0067 0
M  V30 9 C -1.0079 -1.3602 0.0109 0
M  V30 10 C -2.0868 0.8358 0.0407 0
M  V30 11 C -2.174 -0.5735 0.0181 0
M  V30 12 H 3.5673 -0.222 0.0492 0
M  V30 13 H -0.7562 2.5519 0.0737 0
M  V30 14 H -1.0655 -2.4407 -0.0064 0
M  V30 15 H -2.9911 1.4305 0.0462 0
M  V30 16 H -3.1448 -1.0519 0.0063 0
M  V30 END ATOM
M  V30 BEGIN BOND
M  V30 1 2 1 2
M  V30 2 1 2 3
M  V30 3 1 2 4
M  V30 4 1 3 5
M  V30 5 2 4 6
M  V30 6 1 4 7
M  V30 7 2 5 8
M  V30 8 1 6 9
M  V30 9 2 7 10
M  V30 10 2 9 11
M  V30 11 1 5 6
M  V30 12 1 10 11
M  V30 13 1 3 12
M  V30 14 1 7 13
M  V30 15 1 9 14
M  V30 16 1 10 15
M  V30 17 1 11 16
M  V30 END BOND
M  V30 END CTAB
M  END
>  <Structure No>
6151

>  <LogS>
-2.6114

>  <MMFF94 Energy>
-12.678

$$$$
Compound 6152
Actelion Java MolfileCreator 2.0

  0  0  0  0  0  0              0 V3000
M  V30 BEGIN CTAB
M  V30 COUNTS 53 56 0 0 0
M  V30 BEGIN ATOM
M  V30 1 S -3.5897 -1.1411 3.018 0
M  V30 2 C -3.734 0.1381 1.7714 0
M  V30 3 C -3.0834 -2.3892 1.8373 0
M  V30 4 C -2.6948 0.3197 0.8413 0
M  V30 5 C -4.8251 1.0097 1.7942 0
M  V30 6 C -2.0842 -2.0876 0.8902 0
M  V30 7 C -3.6129 -3.6807 1.925 0
M  V30 8 N -1.6862 -0.7092 0.6895 0
M  V30 9 C -2.7278 1.444 -0.0046 0
M  V30 10 C -4.8642 2.1054 0.93 0
M  V30 11 C -1.5959 -3.1205 0.0691 0
M  V30 12 C -3.1259 -4.693 1.0959 0
M  V30 13 C -0.2818 -0.3472 0.4358 0
M  V30 14 C -3.7976 2.355 0.0501 0
M  V30 15 C -2.1119 -4.4156 0.1776 0
M  V30 16 C 0.0511 -0.325 -1.0712 0
M  V30 17 C -3.8476 3.52 -0.9061 0
M  V30 18 C 1.0622 0.7769 -1.4259 0
M  V30 19 F -4.3751 3.0964 -2.1116 0
M  V30 20 F -4.6364 4.5407 -0.4028 0
M  V30 21 F -2.5759 4.0228 -1.1214 0
M  V30 22 N 2.2943 0.6763 -0.6115 0
M  V30 23 C 3.0681 1.9287 -0.6965 0
M  V30 24 C 3.1303 -0.4727 -1.0327 0
M  V30 25 C 4.2634 1.8983 0.2795 0
M  V30 26 C 4.5501 -0.4118 -0.4276 0
M  V30 27 N 4.5999 0.5226 0.713 0 CHG=1
M  V30 28 C 5.93 0.4937 1.3439 0
M  V30 29 H -5.6292 0.8579 2.5029 0
M  V30 30 H -4.3768 -3.9084 2.6572 0
M  V30 31 H -1.942 1.6031 -0.7272 0
M  V30 32 H -5.7215 2.7662 0.962 0
M  V30 33 H -0.8467 -2.9319 -0.6803 0
M  V30 34 H -3.5268 -5.6952 1.173 0
M  V30 35 H 0.3918 -1.067 0.9502 0
M  V30 36 H -0.0796 0.6461 0.895 0
M  V30 37 H -1.7354 -5.2022 -0.4636 0
M  V30 38 H 0.4641 -1.3029 -1.3872 0
M  V30 39 H -0.8686 -0.1687 -1.6733 0
M  V30 40 H 1.2971 0.7322 -2.5131 0
M  V30 41 H 0.559 1.7534 -1.2454 0
M  V30 42 H 2.4278 2.8005 -0.4342 0
M  V30 43 H 3.4369 2.0815 -1.7372 0
M  V30 44 H 2.6514 -1.4121 -0.6839 0
M  V30 45 H 3.2151 -0.5245 -2.142 0
M  V30 46 H 5.1342 2.3824 -0.219 0
M  V30 47 H 4.0141 2.5117 1.1753 0
M  V30 48 H 5.2697 -0.09 -1.2153 0
M  V30 49 H 4.8477 -1.435 -0.1031 0
M  V30 50 H 3.9026 0.2139 1.4334 0
M  V30 51 H 6.7264 0.7625 0.6148 0
M  V30 52 H 6.145 -0.5202 1.7472 0
M  V30 53 H 5.971 1.2079 2.196 0
M  V30 END ATOM
M  V30 BEGIN BOND
M  V30 1 1 1 2
M  V30 2 1 1 3
M  V30 3 2 2 4
M  V30 4 1 2 5
M  V30 5 2 3 6
M  V30 6 1 3 7
M  V30 7 1 4 8
M  V30 8 1 4 9
M  V30 9 2 5 10
M  V30 10 1 6 11
M  V30 11 2 7 12
M  V30 12 1 8 13
M  V30 13 2 9 14
M  V30 14 2 11 15
M  V30 15 1 13 16
M  V30 16 1 14 17
M  V30 17 1 16 18
M  V30 18 1 17 19
M  V30 19 1 17 20
M  V30 20 1 17 21
M  V30 21 1 18 22
M  V30 22 1 22 23
M  V30 23 1 22 24
M  V30 24 1 23 25
M  V30 25 1 24 26
M  V30 26 1 25 27
M  V30 27 1 27 28
M  V30 28 1 6 8
M  V30 29 1 10 14
M  V30 30 1 12 15
M  V30 31 1 26 27
M  V30 32 1 5 29
M  V30 33 1 7 30
M  V30 34 1 9 31
M  V30 35 1 10 32
M  V30 36 1 11 33
M  V30 37 1 12 34
M  V30 38 1 13 35
M  V30 39 1 13 36
M  V30 40 1 15 37
M  V30 41 1 16 38
M  V30 42 1 16 39
M  V30 43 1 18 40
M  V30 44 1 18 41
M  V30 45 1 23 42
M  V30 46 1 23 43
M  V30 47 1 24 44
M  V30 48 1 24 45
M  V30 49 1 25 46
M  V30 50 1 25 47
M  V30 51 1 26 48
M  V30 52 1 26 49
M  V30 53 1 27 50
M  V30 54 1 28 51
M  V30 55 1 28 52
M  V30 56 1 28 53
M  V30 END BOND
M  V30 END CTAB
M  END
>  <Structure No>
6152

>  <LogS>
-4.5238

>  <MMFF94 Energy>
175.4

$$$$
Compound 6153
Actelion Java MolfileCreator 2.0

  0  0  0  0  0  0              0 V3000
M  V30 BEGIN CTAB
M  V30 COUNTS 34 35 0 0 0
M  V30 BEGIN ATOM
M  V30 1 S 0.9 -2.702 0.5727 0
M  V30 2 O 1.1596 -3.805 1.559 0
M  V30 3 O 1.1654 -3.2132 -0.8159 0
M  V30 4 N -0.7611 -2.2165 0.6884 0 CHG=-1
M  V30 5 C 1.9555 -1.3431 0.9469 0
M  V30 6 C -1.3681 -1.1644 -0.072 0
M  V30 7 C 3.1741 -1.1854 0.2728 0
M  V30 8 C 1.5779 -0.4104 1.9224 0
M  V30 9 N -2.6695 -0.8553 0.1666 0
M  V30 10 C -0.6621 -0.4453 -1.0481 0
M  V30 11 C 4.0043 -0.0992 0.5661 0
M  V30 12 C 2.4075 0.6761 2.2153 0
M  V30 13 C -3.3014 0.1377 -0.5171 0
M  V30 14 C -1.321 0.5712 -1.7403 0
M  V30 15 C 3.6245 0.8376 1.5379 0
M  V30 16 O -4.64 0.4455 -0.2607 0
M  V30 17 N -2.6251 0.8413 -1.4609 0
M  V30 18 O -0.6302 1.2995 -2.7133 0
M  V30 19 N 4.4728 1.9494 1.8367 0
M  V30 20 C -5.4155 -0.2442 0.7123 0
M  V30 21 C -1.2318 2.3512 -3.459 0
M  V30 22 H 3.4817 -1.9003 -0.4793 0
M  V30 23 H 0.6414 -0.5225 2.4539 0
M  V30 24 H 0.372 -0.6585 -1.2774 0
M  V30 25 H 4.9422 0.0126 0.0367 0
M  V30 26 H 2.1026 1.3913 2.9691 0
M  V30 27 H 4.1984 2.6522 2.5591 0
M  V30 28 H 5.3812 2.078 1.3377 0
M  V30 29 H -6.4404 0.18 0.7295 0
M  V30 30 H -5.477 -1.3229 0.4548 0
M  V30 31 H -4.9593 -0.1233 1.7178 0
M  V30 32 H -1.5729 3.1563 -2.7741 0
M  V30 33 H -0.4852 2.7714 -4.1637 0
M  V30 34 H -2.0946 1.9607 -4.0394 0
M  V30 END ATOM
M  V30 BEGIN BOND
M  V30 1 2 1 2
M  V30 2 2 1 3
M  V30 3 1 1 4
M  V30 4 1 1 5
M  V30 5 1 4 6
M  V30 6 2 5 7
M  V30 7 1 5 8
M  V30 8 2 6 9
M  V30 9 1 6 10
M  V30 10 1 7 11
M  V30 11 2 8 12
M  V30 12 1 9 13
M  V30 13 2 10 14
M  V30 14 2 11 15
M  V30 15 1 13 16
M  V30 16 2 13 17
M  V30 17 1 14 18
M  V30 18 1 15 19
M  V30 19 1 16 20
M  V30 20 1 18 21
M  V30 21 1 12 15
M  V30 22 1 14 17
M  V30 23 1 7 22
M  V30 24 1 8 23
M  V30 25 1 10 24
M  V30 26 1 11 25
M  V30 27 1 12 26
M  V30 28 1 19 27
M  V30 29 1 19 28
M  V30 30 1 20 29
M  V30 31 1 20 30
M  V30 32 1 20 31
M  V30 33 1 21 32
M  V30 34 1 21 33
M  V30 35 1 21 34
M  V30 END BOND
M  V30 END CTAB
M  END
>  <Structure No>
6153

>  <LogS>
-2.9565

>  <MMFF94 Energy>
-10.188

$$$$
Compound 6154
Actelion Java MolfileCreator 2.0

  0  0  0  0  0  0              0 V3000
M  V30 BEGIN CTAB
M  V30 COUNTS 43 45 0 0 0
M  V30 BEGIN ATOM
M  V30 1 Cl 1.2242 3.1036 1.9593 0
M  V30 2 C 1.6377 1.6758 1.0238 0
M  V30 3 C 2.9759 1.253 0.8875 0
M  V30 4 C 0.637 0.934 0.4013 0
M  V30 5 O 3.9825 2.0027 1.5162 0
M  V30 6 C 3.2673 0.0892 0.125 0
M  V30 7 O -0.7278 1.1917 0.4267 0
M  V30 8 C 0.9252 -0.1819 -0.3285 0
M  V30 9 C 5.371 1.6926 1.4638 0
M  V30 10 C 2.2296 -0.6455 -0.495 0
M  V30 11 C -1.4562 0.2044 -0.3204 0 CFG=1
M  V30 12 C -0.338 -0.696 -0.8153 0
M  V30 13 O 2.4597 -1.801 -1.2556 0
M  V30 14 C -2.4284 -0.5455 0.6388 0 CFG=2
M  V30 15 C -2.1971 0.8916 -1.5118 0 CFG=1
M  V30 16 O -0.4723 -1.7269 -1.5266 0
M  V30 17 C 3.7464 -2.3627 -1.4896 0
M  V30 18 O -1.6869 -1.2781 1.6048 0
M  V30 19 C -3.3395 -1.5277 -0.1169 0
M  V30 20 C -3.1182 -0.0936 -2.2625 0
M  V30 21 C -2.9918 2.1347 -1.0679 0
M  V30 22 C -1.7792 -0.6788 2.8784 0
M  V30 23 C -3.9785 -0.8605 -1.2999 0
M  V30 24 O -5.1744 -0.9918 -1.511 0
M  V30 25 H 4.29 -0.2396 0.0176 0
M  V30 26 H 5.7281 1.7162 0.4126 0
M  V30 27 H 5.5559 0.6924 1.9092 0
M  V30 28 H 5.9335 2.4502 2.0467 0
M  V30 29 H -3.1057 0.2152 1.0995 0
M  V30 30 H -1.4322 1.2532 -2.2358 0
M  V30 31 H 4.217 -2.653 -0.5265 0
M  V30 32 H 3.6371 -3.269 -2.1193 0
M  V30 33 H 4.3899 -1.6329 -2.0248 0
M  V30 34 H -2.7556 -2.4033 -0.4706 0
M  V30 35 H -4.1229 -1.9041 0.5769 0
M  V30 36 H -3.7509 0.4518 -2.9971 0
M  V30 37 H -2.5046 -0.8154 -2.8409 0
M  V30 38 H -3.8153 1.8636 -0.3755 0
M  V30 39 H -3.4347 2.6376 -1.9539 0
M  V30 40 H -2.3265 2.8692 -0.5678 0
M  V30 41 H -2.8243 -0.7184 3.2571 0
M  V30 42 H -1.4115 0.3706 2.8597 0
M  V30 43 H -1.1405 -1.2473 3.5847 0
M  V30 END ATOM
M  V30 BEGIN BOND
M  V30 1 1 1 2
M  V30 2 2 2 3
M  V30 3 1 2 4
M  V30 4 1 3 5
M  V30 5 1 3 6
M  V30 6 1 4 7
M  V30 7 2 4 8
M  V30 8 1 5 9
M  V30 9 2 6 10
M  V30 10 1 7 11
M  V30 11 1 8 12
M  V30 12 1 10 13
M  V30 13 1 11 14
M  V30 14 1 11 15
M  V30 15 2 12 16
M  V30 16 1 13 17
M  V30 17 1 14 18
M  V30 18 1 14 19
M  V30 19 1 15 20
M  V30 20 1 15 21
M  V30 21 1 18 22
M  V30 22 1 19 23
M  V30 23 2 23 24
M  V30 24 1 8 10
M  V30 25 1 11 12
M  V30 26 1 20 23
M  V30 27 1 6 25
M  V30 28 1 9 26
M  V30 29 1 9 27
M  V30 30 1 9 28
M  V30 31 1 14 29
M  V30 32 1 15 30
M  V30 33 1 17 31
M  V30 34 1 17 32
M  V30 35 1 17 33
M  V30 36 1 19 34
M  V30 37 1 19 35
M  V30 38 1 20 36
M  V30 39 1 20 37
M  V30 40 1 21 38
M  V30 41 1 21 39
M  V30 42 1 21 40
M  V30 43 1 22 41
M  V30 44 1 22 42
M  V30 45 1 22 43
M  V30 END BOND
M  V30 BEGIN COLLECTION
M  V30 MDLV30/STEABS ATOMS=(3 11 14 15)
M  V30 END COLLECTION
M  V30 END CTAB
M  END
>  <Structure No>
6154

>  <LogS>
-4.611

>  <MMFF94 Energy>
101.04

$$$$
Compound 6155
Actelion Java MolfileCreator 2.0

  0  0  0  0  0  0              0 V3000
M  V30 BEGIN CTAB
M  V30 COUNTS 43 45 0 0 0
M  V30 BEGIN ATOM
M  V30 1 O 0.5567 -2.0692 1.91 0
M  V30 2 C 0.5964 -0.8985 1.4445 0
M  V30 3 N -0.3744 -0.3445 0.6849 0
M  V30 4 C 1.6451 -0.0109 1.595 0 CHG=-1 CFG=2
M  V30 5 N 0.0219 0.8769 0.332 0
M  V30 6 C -1.5729 -1.0059 0.2397 0
M  V30 7 C 1.241 1.0961 0.8729 0
M  V30 8 C 2.9508 -0.2315 2.3001 0
M  V30 9 C -0.743 1.8254 -0.4344 0
M  V30 10 C -2.4145 -1.6427 1.1651 0
M  V30 11 C -1.9051 -1.0324 -1.1241 0
M  V30 12 O 1.8984 2.1635 0.7407 0
M  V30 13 C 3.8859 -1.1696 1.5207 0
M  V30 14 C -2.0777 2.1017 -0.0948 0
M  V30 15 C -0.1594 2.4889 -1.526 0
M  V30 16 C -3.5799 -2.2831 0.7339 0
M  V30 17 C -3.0712 -1.6727 -1.5536 0
M  V30 18 C 4.3991 -0.5689 0.1961 0
M  V30 19 C -2.8203 3.0184 -0.8451 0
M  V30 20 C -0.9049 3.4055 -2.2737 0
M  V30 21 C -3.912 -2.2982 -0.6275 0
M  V30 22 C 3.5639 -1.0007 -1.0095 0
M  V30 23 C -2.2348 3.6692 -1.9343 0
M  V30 24 O -5.0713 -2.9316 -1.069 0
M  V30 25 H 3.4556 0.7419 2.4814 0
M  V30 26 H 2.7406 -0.6817 3.2938 0
M  V30 27 H -2.1741 -1.629 2.2205 0
M  V30 28 H -1.2566 -0.565 -1.854 0
M  V30 29 H 3.3912 -2.151 1.3506 0
M  V30 30 H 4.7658 -1.3689 2.1706 0
M  V30 31 H -2.5384 1.6131 0.7541 0
M  V30 32 H 0.8658 2.2829 -1.8057 0
M  V30 33 H -4.2246 -2.7648 1.4579 0
M  V30 34 H -3.3198 -1.6856 -2.607 0
M  V30 35 H 5.4405 -0.9194 0.0271 0
M  V30 36 H 4.4317 0.5409 0.2494 0
M  V30 37 H -3.8489 3.2262 -0.5802 0
M  V30 38 H -0.4524 3.9094 -3.1179 0
M  V30 39 H 2.5189 -0.6438 -0.9231 0
M  V30 40 H 4.0019 -0.5705 -1.9345 0
M  V30 41 H 3.5641 -2.1074 -1.1023 0
M  V30 42 H -2.8108 4.3785 -2.5143 0
M  V30 43 H -5.7008 -3.3938 -0.4232 0
M  V30 END ATOM
M  V30 BEGIN BOND
M  V30 1 2 1 2
M  V30 2 1 2 3
M  V30 3 1 2 4
M  V30 4 1 3 5
M  V30 5 1 3 6
M  V30 6 1 4 7
M  V30 7 1 4 8
M  V30 8 1 5 9
M  V30 9 2 6 10
M  V30 10 1 6 11
M  V30 11 2 7 12
M  V30 12 1 8 13
M  V30 13 2 9 14
M  V30 14 1 9 15
M  V30 15 1 10 16
M  V30 16 2 11 17
M  V30 17 1 13 18
M  V30 18 1 14 19
M  V30 19 2 15 20
M  V30 20 2 16 21
M  V30 21 1 18 22
M  V30 22 2 19 23
M  V30 23 1 21 24
M  V30 24 1 5 7
M  V30 25 1 17 21
M  V30 26 1 20 23
M  V30 27 1 8 25
M  V30 28 1 8 26
M  V30 29 1 10 27
M  V30 30 1 11 28
M  V30 31 1 13 29
M  V30 32 1 13 30
M  V30 33 1 14 31
M  V30 34 1 15 32
M  V30 35 1 16 33
M  V30 36 1 17 34
M  V30 37 1 18 35
M  V30 38 1 18 36
M  V30 39 1 19 37
M  V30 40 1 20 38
M  V30 41 1 22 39
M  V30 42 1 22 40
M  V30 43 1 22 41
M  V30 44 1 23 42
M  V30 45 1 24 43
M  V30 END BOND
M  V30 BEGIN COLLECTION
M  V30 MDLV30/STEABS ATOMS=(1 4)
M  V30 END COLLECTION
M  V30 END CTAB
M  END
>  <Structure No>
6155

>  <LogS>
-3.7329

>  <MMFF94 Energy>
16.953

$$$$
Compound 6156
Actelion Java MolfileCreator 2.0

  0  0  0  0  0  0              0 V3000
M  V30 BEGIN CTAB
M  V30 COUNTS 26 27 0 0 0
M  V30 BEGIN ATOM
M  V30 1 S 0.1685 2.6149 0.4214 0
M  V30 2 O 1.3609 2.7253 1.3302 0
M  V30 3 O -0.6453 3.8733 0.5244 0
M  V30 4 N 0.7201 2.4247 -1.2094 0 CHG=-1
M  V30 5 C -0.8354 1.2434 0.8806 0
M  V30 6 C 1.5016 1.3104 -1.6439 0
M  V30 7 C -1.7216 0.6838 -0.0491 0
M  V30 8 C -0.7549 0.7045 2.1721 0
M  V30 9 S 2.0282 0.037 -0.6696 0
M  V30 10 N 1.9143 1.164 -2.9203 0
M  V30 11 C -2.5147 -0.4115 0.3056 0
M  V30 12 C -1.5485 -0.3905 2.5274 0
M  V30 13 C 2.7784 -0.6857 -1.9941 0
M  V30 14 N 2.6304 0.0578 -3.1133 0
M  V30 15 C -2.4312 -0.9547 1.5955 0
M  V30 16 C 3.5923 -1.9326 -1.9346 0
M  V30 17 N -3.2418 -2.0755 1.9585 0
M  V30 18 H -1.7965 1.0931 -1.0486 0
M  V30 19 H -0.0794 1.1291 2.9035 0
M  V30 20 H -3.1932 -0.8365 -0.4234 0
M  V30 21 H -1.4755 -0.799 3.5275 0
M  V30 22 H 3.164 -2.6285 -1.1831 0
M  V30 23 H 4.6342 -1.6802 -1.6483 0
M  V30 24 H 3.5953 -2.4319 -2.9261 0
M  V30 25 H -3.1868 -2.4868 2.917 0
M  V30 26 H -3.9024 -2.5023 1.2714 0
M  V30 END ATOM
M  V30 BEGIN BOND
M  V30 1 2 1 2
M  V30 2 2 1 3
M  V30 3 1 1 4
M  V30 4 1 1 5
M  V30 5 1 4 6
M  V30 6 2 5 7
M  V30 7 1 5 8
M  V30 8 1 6 9
M  V30 9 2 6 10
M  V30 10 1 7 11
M  V30 11 2 8 12
M  V30 12 1 9 13
M  V30 13 1 10 14
M  V30 14 2 11 15
M  V30 15 1 13 16
M  V30 16 1 15 17
M  V30 17 1 12 15
M  V30 18 2 13 14
M  V30 19 1 7 18
M  V30 20 1 8 19
M  V30 21 1 11 20
M  V30 22 1 12 21
M  V30 23 1 16 22
M  V30 24 1 16 23
M  V30 25 1 16 24
M  V30 26 1 17 25
M  V30 27 1 17 26
M  V30 END BOND
M  V30 END CTAB
M  END
>  <Structure No>
6156

>  <LogS>
-2.4107

>  <MMFF94 Energy>
48.9

$$$$
Compound 6157
Actelion Java MolfileCreator 2.0

  0  0  0  0  0  0              0 V3000
M  V30 BEGIN CTAB
M  V30 COUNTS 18 17 0 0 0
M  V30 BEGIN ATOM
M  V30 1 O -0.9994 1.9227 0.4611 0
M  V30 2 C -0.6966 0.581 0.1713 0 CFG=2
M  V30 3 C 0.7998 0.4746 -0.2314 0 CFG=1
M  V30 4 C -1.6512 0.1082 -0.942 0
M  V30 5 O 1.6079 1.0731 0.7522 0
M  V30 6 C 1.258 -0.9762 -0.4793 0
M  V30 7 O -1.7221 -1.2915 -0.9919 0
M  V30 8 O 2.6384 -1.0178 -0.7257 0
M  V30 9 H -0.744 2.084 1.4071 0
M  V30 10 H -0.8809 -0.0447 1.0774 0
M  V30 11 H 0.95 1.0447 -1.1744 0
M  V30 12 H -1.3106 0.4898 -1.9281 0
M  V30 13 H -2.6705 0.5235 -0.7664 0
M  V30 14 H 1.479 0.563 1.5949 0
M  V30 15 H 0.7467 -1.3811 -1.376 0
M  V30 16 H 0.994 -1.6241 0.3884 0
M  V30 17 H -2.2798 -1.5773 -0.2217 0
M  V30 18 H 3.0877 -1.0554 0.1587 0
M  V30 END ATOM
M  V30 BEGIN BOND
M  V30 1 1 1 2
M  V30 2 1 2 3
M  V30 3 1 2 4
M  V30 4 1 3 5
M  V30 5 1 3 6
M  V30 6 1 4 7
M  V30 7 1 6 8
M  V30 8 1 1 9
M  V30 9 1 2 10
M  V30 10 1 3 11
M  V30 11 1 4 12
M  V30 12 1 4 13
M  V30 13 1 5 14
M  V30 14 1 6 15
M  V30 15 1 6 16
M  V30 16 1 7 17
M  V30 17 1 8 18
M  V30 END BOND
M  V30 BEGIN COLLECTION
M  V30 MDLV30/STEABS ATOMS=(2 2 3)
M  V30 END COLLECTION
M  V30 END CTAB
M  END
>  <Structure No>
6157

>  <LogS>
0.6985

>  <MMFF94 Energy>
52.087

$$$$
Compound 6158
Actelion Java MolfileCreator 2.0

  0  0  0  0  0  0              0 V3000
M  V30 BEGIN CTAB
M  V30 COUNTS 28 28 0 0 0
M  V30 BEGIN ATOM
M  V30 1 O -0.6211 0.5434 -1.7865 0
M  V30 2 C -0.2313 0.7034 -0.4422 0 CFG=2
M  V30 3 C 1.2183 0.2948 -0.2282 0
M  V30 4 C -1.1925 0.0137 0.5812 0 CFG=1
M  V30 5 C 1.7849 -0.8193 -0.8805 0
M  V30 6 C 2.0062 1.0123 0.6918 0
M  V30 7 N -2.4866 0.7229 0.7314 0 CHG=1
M  V30 8 C -1.3812 -1.5028 0.3663 0
M  V30 9 C 3.1119 -1.1847 -0.6343 0
M  V30 10 C 3.3323 0.6423 0.9333 0
M  V30 11 C -3.2816 0.8349 -0.4986 0
M  V30 12 C 3.8856 -0.4535 0.2689 0
M  V30 13 H -0.7357 -0.4197 -1.977 0
M  V30 14 H -0.2892 1.796 -0.2416 0
M  V30 15 H -0.6842 0.0954 1.5705 0
M  V30 16 H 1.2094 -1.4168 -1.573 0
M  V30 17 H 1.5921 1.8589 1.2256 0
M  V30 18 H -3.0641 0.2316 1.4539 0
M  V30 19 H -2.3054 1.6889 1.0926 0
M  V30 20 H -0.401 -2.021 0.3947 0
M  V30 21 H -1.8782 -1.7396 -0.5941 0
M  V30 22 H -2.0024 -1.9234 1.1853 0
M  V30 23 H 3.5395 -2.0399 -1.1417 0
M  V30 24 H 3.9301 1.2039 1.6397 0
M  V30 25 H -4.2944 1.2194 -0.2497 0
M  V30 26 H -2.8224 1.5613 -1.2012 0
M  V30 27 H -3.4109 -0.1472 -0.9955 0
M  V30 28 H 4.9119 -0.7397 0.4585 0
M  V30 END ATOM
M  V30 BEGIN BOND
M  V30 1 1 1 2
M  V30 2 1 2 3
M  V30 3 1 2 4
M  V30 4 2 3 5
M  V30 5 1 3 6
M  V30 6 1 4 7
M  V30 7 1 4 8
M  V30 8 1 5 9
M  V30 9 2 6 10
M  V30 10 1 7 11
M  V30 11 2 9 12
M  V30 12 1 10 12
M  V30 13 1 1 13
M  V30 14 1 2 14
M  V30 15 1 4 15
M  V30 16 1 5 16
M  V30 17 1 6 17
M  V30 18 1 7 18
M  V30 19 1 7 19
M  V30 20 1 8 20
M  V30 21 1 8 21
M  V30 22 1 8 22
M  V30 23 1 9 23
M  V30 24 1 10 24
M  V30 25 1 11 25
M  V30 26 1 11 26
M  V30 27 1 11 27
M  V30 28 1 12 28
M  V30 END BOND
M  V30 BEGIN COLLECTION
M  V30 MDLV30/STEABS ATOMS=(2 2 4)
M  V30 END COLLECTION
M  V30 END CTAB
M  END
>  <Structure No>
6158

>  <LogS>
-0.4147

>  <MMFF94 Energy>
53.728

$$$$
Compound 6159
Actelion Java MolfileCreator 2.0

  0  0  0  0  0  0              0 V3000
M  V30 BEGIN CTAB
M  V30 COUNTS 14 15 0 0 0
M  V30 BEGIN ATOM
M  V30 1 O 0.1593 2.8713 -0.3187 0
M  V30 2 C 0.4386 1.6537 -0.1641 0
M  V30 3 N 1.7381 1.2398 -0.0893 0
M  V30 4 C -0.5538 0.6898 -0.0638 0
M  V30 5 C 2.0553 -0.0851 0.079 0
M  V30 6 C -0.22 -0.6122 0.102 0
M  V30 7 C -1.9316 0.7141 -0.0921 0
M  V30 8 N 1.0678 -1.0279 0.1767 0
M  V30 9 N -1.3258 -1.3658 0.1743 0
M  V30 10 N -2.3774 -0.56 0.0562 0
M  V30 11 H 3.0938 -0.383 0.1346 0
M  V30 12 H -2.567 1.5817 -0.2101 0
M  V30 13 H 1.3019 -2.0375 0.305 0
M  V30 14 H -1.3773 -2.4007 0.3004 0
M  V30 END ATOM
M  V30 BEGIN BOND
M  V30 1 2 1 2
M  V30 2 1 2 3
M  V30 3 1 2 4
M  V30 4 2 3 5
M  V30 5 2 4 6
M  V30 6 1 4 7
M  V30 7 1 5 8
M  V30 8 1 6 9
M  V30 9 2 7 10
M  V30 10 1 6 8
M  V30 11 1 9 10
M  V30 12 1 5 11
M  V30 13 1 7 12
M  V30 14 1 8 13
M  V30 15 1 9 14
M  V30 END BOND
M  V30 END CTAB
M  END
>  <Structure No>
6159

>  <LogS>
-2.3788

>  <MMFF94 Energy>
0.52072

$$$$
Compound 6160
Actelion Java MolfileCreator 2.0

  0  0  0  0  0  0              0 V3000
M  V30 BEGIN CTAB
M  V30 COUNTS 34 34 0 0 0
M  V30 BEGIN ATOM
M  V30 1 S -1.7798 1.5369 -2.1846 0
M  V30 2 O -1.6146 3.0308 -2.1932 0
M  V30 3 O -2.5479 1.1193 -3.406 0
M  V30 4 N -0.2137 0.7991 -2.2159 0 CHG=-1
M  V30 5 C -2.658 1.0218 -0.7484 0
M  V30 6 C 0.7506 1.0047 -1.1825 0
M  V30 7 C -2.5102 -0.2863 -0.2682 0
M  V30 8 C -3.5161 1.9099 -0.0854 0
M  V30 9 O 0.4876 1.7646 -0.2108 0
M  V30 10 N 2.0145 0.3388 -1.2566 0
M  V30 11 C -3.2074 -0.7008 0.8703 0
M  V30 12 C -4.2136 1.4954 1.0533 0
M  V30 13 C 3.0337 0.5152 -0.2213 0
M  V30 14 C -4.0619 0.1884 1.5374 0
M  V30 15 C 4.2657 -0.366 -0.4802 0
M  V30 16 N -4.7758 -0.2355 2.7016 0
M  V30 17 C 3.9857 -1.8733 -0.3444 0
M  V30 18 C 3.7676 -2.3075 1.1047 0
M  V30 19 H -1.8565 -0.9849 -0.7747 0
M  V30 20 H -3.6469 2.9212 -0.4487 0
M  V30 21 H 2.2019 -0.2701 -2.085 0
M  V30 22 H -3.0835 -1.714 1.2317 0
M  V30 23 H -4.8724 2.1914 1.5572 0
M  V30 24 H 3.3554 1.579 -0.2147 0
M  V30 25 H 2.6012 0.2899 0.7756 0
M  V30 26 H 4.6418 -0.1613 -1.506 0
M  V30 27 H 5.0745 -0.0757 0.2255 0
M  V30 28 H -5.4132 0.4202 3.2062 0
M  V30 29 H -4.6723 -1.2084 3.0675 0
M  V30 30 H 3.1054 -2.1669 -0.9544 0
M  V30 31 H 4.8637 -2.4268 -0.7417 0
M  V30 32 H 2.8215 -1.8883 1.5044 0
M  V30 33 H 4.6166 -1.9804 1.7416 0
M  V30 34 H 3.6991 -3.4147 1.1512 0
M  V30 END ATOM
M  V30 BEGIN BOND
M  V30 1 2 1 2
M  V30 2 2 1 3
M  V30 3 1 1 4
M  V30 4 1 1 5
M  V30 5 1 4 6
M  V30 6 2 5 7
M  V30 7 1 5 8
M  V30 8 2 6 9
M  V30 9 1 6 10
M  V30 10 1 7 11
M  V30 11 2 8 12
M  V30 12 1 10 13
M  V30 13 2 11 14
M  V30 14 1 13 15
M  V30 15 1 14 16
M  V30 16 1 15 17
M  V30 17 1 17 18
M  V30 18 1 12 14
M  V30 19 1 7 19
M  V30 20 1 8 20
M  V30 21 1 10 21
M  V30 22 1 11 22
M  V30 23 1 12 23
M  V30 24 1 13 24
M  V30 25 1 13 25
M  V30 26 1 15 26
M  V30 27 1 15 27
M  V30 28 1 16 28
M  V30 29 1 16 29
M  V30 30 1 17 30
M  V30 31 1 17 31
M  V30 32 1 18 32
M  V30 33 1 18 33
M  V30 34 1 18 34
M  V30 END BOND
M  V30 END CTAB
M  END
>  <Structure No>
6160

>  <LogS>
-2.1782

>  <MMFF94 Energy>
-15.392

$$$$
Compound 6161
Actelion Java MolfileCreator 2.0

  0  0  0  0  0  0              0 V3000
M  V30 BEGIN CTAB
M  V30 COUNTS 56 62 0 0 0
M  V30 BEGIN ATOM
M  V30 1 O 0.4912 1.8839 3.3602 0
M  V30 2 C -0.2823 1.2639 2.5843 0
M  V30 3 N 0.247 0.3608 1.5967 0
M  V30 4 C -1.774 1.5494 2.6445 0
M  V30 5 C 1.5444 0.2873 1.0112 0
M  V30 6 C -0.5779 -0.6244 0.9303 0 CFG=2
M  V30 7 C -2.6774 0.4629 1.9952 0 CFG=2
M  V30 8 C 1.5465 -0.5211 -0.1089 0
M  V30 9 C 2.7091 0.9205 1.4494 0
M  V30 10 C 0.1418 -0.9707 -0.4295 0 CFG=2
M  V30 11 C -1.9981 -0.1258 0.7577 0 CFG=1
M  V30 12 O -3.9345 1.0527 1.6195 0
M  V30 13 C 2.7089 -0.7058 -0.8589 0
M  V30 14 C 3.9059 0.7269 0.722 0
M  V30 15 C -0.4233 -0.2301 -1.6758 0 CFG=1
M  V30 16 C -0.0408 -2.4327 -0.8204 0
M  V30 17 C -2.2219 0.851 -0.4285 0 CFG=1
M  V30 18 C -4.7961 0.1664 0.8886 0
M  V30 19 C 3.9051 -0.0853 -0.4343 0
M  V30 20 O 5.1146 1.326 1.1105 0
M  V30 21 N -1.4277 -1.1193 -2.3358 0 CHG=1 CFG=1
M  V30 22 C -0.9962 1.1148 -1.2845 0
M  V30 23 C -1.3251 -2.4317 -1.659 0
M  V30 24 C -3.2928 0.1942 -1.2149 0
M  V30 25 C -4.5107 0.0096 -0.6297 0
M  V30 26 O 5.1107 -0.2432 -1.1357 0
M  V30 27 C 5.2682 2.1693 2.2476 0
M  V30 28 C -2.8424 -0.6046 -2.4374 0
M  V30 29 C 5.2598 -1.0267 -2.3151 0
M  V30 30 H -2.0791 1.6806 3.7052 0
M  V30 31 H -1.9447 2.5211 2.1334 0
M  V30 32 H -0.5947 -1.5212 1.5934 0
M  V30 33 H -2.8462 -0.3419 2.747 0
M  V30 34 H 2.693 1.5405 2.3316 0
M  V30 35 H -2.5251 -1.0968 0.6055 0
M  V30 36 H 2.6738 -1.3036 -1.7585 0
M  V30 37 H 0.4109 -0.0366 -2.3916 0
M  V30 38 H -0.1205 -3.1185 0.0502 0
M  V30 39 H 0.803 -2.7712 -1.4594 0
M  V30 40 H -2.5704 1.8627 -0.1219 0
M  V30 41 H -5.8305 0.5561 0.9849 0
M  V30 42 H -4.8115 -0.8415 1.3598 0
M  V30 43 H -1.105 -1.2686 -3.3227 0
M  V30 44 H -1.2716 1.6951 -2.1934 0
M  V30 45 H -0.2497 1.7186 -0.7245 0
M  V30 46 H -1.2947 -3.2611 -2.4012 0
M  V30 47 H -2.1966 -2.6193 -0.9956 0
M  V30 48 H -5.2581 -0.5464 -1.1877 0
M  V30 49 H 4.6211 3.0665 2.1479 0
M  V30 50 H 5.011 1.6127 3.1736 0
M  V30 51 H 6.3249 2.4995 2.3138 0
M  V30 52 H -2.9263 0.0677 -3.3192 0
M  V30 53 H -3.5404 -1.4505 -2.6284 0
M  V30 54 H 5.0014 -2.0861 -2.105 0
M  V30 55 H 4.6108 -0.6275 -3.1231 0
M  V30 56 H 6.3157 -0.9783 -2.6513 0
M  V30 END ATOM
M  V30 BEGIN BOND
M  V30 1 2 1 2
M  V30 2 1 2 3
M  V30 3 1 2 4
M  V30 4 1 3 5
M  V30 5 1 3 6
M  V30 6 1 4 7
M  V30 7 2 5 8
M  V30 8 1 5 9
M  V30 9 1 6 10
M  V30 10 1 6 11
M  V30 11 1 7 12
M  V30 12 1 8 13
M  V30 13 2 9 14
M  V30 14 1 10 15
M  V30 15 1 10 16
M  V30 16 1 11 17
M  V30 17 1 12 18
M  V30 18 2 13 19
M  V30 19 1 14 20
M  V30 20 1 15 21
M  V30 21 1 15 22
M  V30 22 1 16 23
M  V30 23 1 17 24
M  V30 24 1 18 25
M  V30 25 1 19 26
M  V30 26 1 20 27
M  V30 27 1 21 28
M  V30 28 1 26 29
M  V30 29 1 7 11
M  V30 30 1 8 10
M  V30 31 1 14 19
M  V30 32 1 17 22
M  V30 33 1 21 23
M  V30 34 2 24 25
M  V30 35 1 24 28
M  V30 36 1 4 30
M  V30 37 1 4 31
M  V30 38 1 6 32
M  V30 39 1 7 33
M  V30 40 1 9 34
M  V30 41 1 11 35
M  V30 42 1 13 36
M  V30 43 1 15 37
M  V30 44 1 16 38
M  V30 45 1 16 39
M  V30 46 1 17 40
M  V30 47 1 18 41
M  V30 48 1 18 42
M  V30 49 1 21 43
M  V30 50 1 22 44
M  V30 51 1 22 45
M  V30 52 1 23 46
M  V30 53 1 23 47
M  V30 54 1 25 48
M  V30 55 1 27 49
M  V30 56 1 27 50
M  V30 57 1 27 51
M  V30 58 1 28 52
M  V30 59 1 28 53
M  V30 60 1 29 54
M  V30 61 1 29 55
M  V30 62 1 29 56
M  V30 END BOND
M  V30 BEGIN COLLECTION
M  V30 MDLV30/STEABS ATOMS=(7 6 7 10 11 15 17 21)
M  V30 END COLLECTION
M  V30 END CTAB
M  END
>  <Structure No>
6161

>  <LogS>
-2.0909

>  <MMFF94 Energy>
94.083

$$$$
Compound 6162
Actelion Java MolfileCreator 2.0

  0  0  0  0  0  0              0 V3000
M  V30 BEGIN CTAB
M  V30 COUNTS 35 37 0 0 0
M  V30 BEGIN ATOM
M  V30 1 S -0.981 0.3269 -2.2901 0
M  V30 2 O -1.1387 1.6483 -2.9868 0
M  V30 3 O -1.0009 -0.7748 -3.3122 0
M  V30 4 N 0.5384 0.2982 -1.4604 0 CHG=-1
M  V30 5 C -2.295 0.1263 -1.1363 0
M  V30 6 C 0.9694 -0.8007 -0.6512 0
M  V30 7 C -3.4375 -0.6076 -1.4821 0
M  V30 8 C -2.2017 0.7033 0.1372 0
M  V30 9 N 2.1357 -0.8363 0.026 0
M  V30 10 C 0.3233 -2.0122 -0.5115 0
M  V30 11 C -4.4748 -0.7701 -0.5587 0
M  V30 12 C -3.2383 0.5405 1.061 0
M  V30 13 N 2.2685 -2.0287 0.5873 0
M  V30 14 C 3.1229 0.2045 0.138 0
M  V30 15 C 1.1765 -2.7577 0.2788 0
M  V30 16 C -4.3797 -0.1978 0.7177 0
M  V30 17 C 2.7461 1.558 0.2191 0
M  V30 18 C 4.4861 -0.1296 0.2109 0
M  V30 19 N -5.4399 -0.365 1.6625 0
M  V30 20 C 3.7184 2.5555 0.3418 0
M  V30 21 C 5.4548 0.8711 0.3324 0
M  V30 22 C 5.0715 2.213 0.3945 0
M  V30 23 H -3.5267 -1.0544 -2.4638 0
M  V30 24 H -1.3267 1.2768 0.4157 0
M  V30 25 H -0.6188 -2.3265 -0.9391 0
M  V30 26 H -5.3514 -1.3411 -0.8373 0
M  V30 27 H -3.1525 0.9891 2.0426 0
M  V30 28 H 1.0157 -3.7774 0.6007 0
M  V30 29 H 1.7033 1.8443 0.2165 0
M  V30 30 H 4.7987 -1.1648 0.161 0
M  V30 31 H -6.2942 -0.9128 1.4161 0
M  V30 32 H -5.3784 0.0578 2.6156 0
M  V30 33 H 3.4217 3.5946 0.4045 0
M  V30 34 H 6.503 0.606 0.3794 0
M  V30 35 H 5.8223 2.9865 0.4906 0
M  V30 END ATOM
M  V30 BEGIN BOND
M  V30 1 2 1 2
M  V30 2 2 1 3
M  V30 3 1 1 4
M  V30 4 1 1 5
M  V30 5 1 4 6
M  V30 6 2 5 7
M  V30 7 1 5 8
M  V30 8 1 6 9
M  V30 9 2 6 10
M  V30 10 1 7 11
M  V30 11 2 8 12
M  V30 12 1 9 13
M  V30 13 1 9 14
M  V30 14 1 10 15
M  V30 15 2 11 16
M  V30 16 2 14 17
M  V30 17 1 14 18
M  V30 18 1 16 19
M  V30 19 1 17 20
M  V30 20 2 18 21
M  V30 21 2 20 22
M  V30 22 1 12 16
M  V30 23 2 13 15
M  V30 24 1 21 22
M  V30 25 1 7 23
M  V30 26 1 8 24
M  V30 27 1 10 25
M  V30 28 1 11 26
M  V30 29 1 12 27
M  V30 30 1 15 28
M  V30 31 1 17 29
M  V30 32 1 18 30
M  V30 33 1 19 31
M  V30 34 1 19 32
M  V30 35 1 20 33
M  V30 36 1 21 34
M  V30 37 1 22 35
M  V30 END BOND
M  V30 END CTAB
M  END
>  <Structure No>
6162

>  <LogS>
-2.3213

>  <MMFF94 Energy>
118.06

$$$$
Compound 6163
Actelion Java MolfileCreator 2.0

  0  0  0  0  0  0              0 V3000
M  V30 BEGIN CTAB
M  V30 COUNTS 33 35 0 0 0
M  V30 BEGIN ATOM
M  V30 1 O -0.4049 -2.8369 -1.134 0
M  V30 2 C -0.6366 -2.036 -0.1888 0
M  V30 3 C -1.7842 -1.1038 -0.2367 0
M  V30 4 C 0.2284 -2.0695 1.0359 0
M  V30 5 C -1.8433 -0.0851 0.7329 0
M  V30 6 C -2.8126 -1.2096 -1.1972 0
M  V30 7 C 0.4227 -0.6585 1.6217 0 CFG=2
M  V30 8 O -0.8134 0.0665 1.6727 0
M  V30 9 C -2.9264 0.7977 0.7597 0
M  V30 10 O -2.7775 -2.2078 -2.1706 0
M  V30 11 C -3.8865 -0.3075 -1.1672 0
M  V30 12 C 1.4907 0.1139 0.8681 0
M  V30 13 C -3.9482 0.6903 -0.1907 0
M  V30 14 C 2.8281 0.0337 1.2953 0
M  V30 15 C 1.1918 0.859 -0.2875 0
M  V30 16 O -5.0273 1.5712 -0.1753 0
M  V30 17 C 3.8437 0.7029 0.6034 0
M  V30 18 C 2.2036 1.5287 -0.98 0
M  V30 19 O 5.1561 0.6045 1.0646 0
M  V30 20 C 3.5308 1.4567 -0.539 0
M  V30 21 O 4.5372 2.1273 -1.2324 0
M  V30 22 H -0.274 -2.709 1.7932 0
M  V30 23 H 1.2135 -2.5313 0.8038 0
M  V30 24 H 0.7641 -0.7794 2.6732 0
M  V30 25 H -2.9656 1.5751 1.5124 0
M  V30 26 H -3.5092 -2.2995 -2.8656 0
M  V30 27 H -4.6793 -0.3853 -1.9007 0
M  V30 28 H 3.0857 -0.553 2.1689 0
M  V30 29 H 0.1818 0.9288 -0.6626 0
M  V30 30 H -5.1015 2.306 0.5186 0
M  V30 31 H 1.9545 2.102 -1.8639 0
M  V30 32 H 5.9263 1.0688 0.5989 0
M  V30 33 H 4.3362 2.6766 -2.0599 0
M  V30 END ATOM
M  V30 BEGIN BOND
M  V30 1 2 1 2
M  V30 2 1 2 3
M  V30 3 1 2 4
M  V30 4 2 3 5
M  V30 5 1 3 6
M  V30 6 1 4 7
M  V30 7 1 5 8
M  V30 8 1 5 9
M  V30 9 1 6 10
M  V30 10 2 6 11
M  V30 11 1 7 12
M  V30 12 2 9 13
M  V30 13 2 12 14
M  V30 14 1 12 15
M  V30 15 1 13 16
M  V30 16 1 14 17
M  V30 17 2 15 18
M  V30 18 1 17 19
M  V30 19 2 17 20
M  V30 20 1 20 21
M  V30 21 1 7 8
M  V30 22 1 11 13
M  V30 23 1 18 20
M  V30 24 1 4 22
M  V30 25 1 4 23
M  V30 26 1 7 24
M  V30 27 1 9 25
M  V30 28 1 10 26
M  V30 29 1 11 27
M  V30 30 1 14 28
M  V30 31 1 15 29
M  V30 32 1 16 30
M  V30 33 1 18 31
M  V30 34 1 19 32
M  V30 35 1 21 33
M  V30 END BOND
M  V30 BEGIN COLLECTION
M  V30 MDLV30/STEABS ATOMS=(1 7)
M  V30 END COLLECTION
M  V30 END CTAB
M  END
>  <Structure No>
6163

>  <LogS>
-3.6147

>  <MMFF94 Energy>
32.17

$$$$
Compound 6164
Actelion Java MolfileCreator 2.0

  0  0  0  0  0  0              0 V3000
M  V30 BEGIN CTAB
M  V30 COUNTS 30 31 0 0 0
M  V30 BEGIN ATOM
M  V30 1 S -0.4078 -1.5505 -2.2856 0
M  V30 2 O 0.3322 -0.7638 -3.331 0
M  V30 3 O -1.1949 -2.6405 -2.9561 0
M  V30 4 N 0.7406 -2.2559 -1.1964 0
M  V30 5 C -1.5137 -0.5089 -1.3958 0
M  V30 6 C 1.5879 -1.4562 -0.3664 0
M  V30 7 C -1.9414 0.7078 -1.9444 0
M  V30 8 C -1.9714 -0.8963 -0.1295 0
M  V30 9 N 2.4494 -2.0584 0.4953 0
M  V30 10 N 1.5388 -0.0981 -0.432 0
M  V30 11 C -2.8133 1.5338 -1.2283 0
M  V30 12 C -2.8426 -0.0704 0.5868 0
M  V30 13 C 3.261 -1.3266 1.3018 0
M  V30 14 C 2.3314 0.6719 0.3564 0
M  V30 15 C -3.2672 1.1493 0.0413 0
M  V30 16 C 3.2104 0.0709 1.2635 0
M  V30 17 N -4.1578 1.9946 0.7741 0
M  V30 18 C 4.1252 0.8993 2.1145 0
M  V30 19 H 0.7971 -3.2967 -1.1357 0
M  V30 20 H -1.6016 1.0188 -2.9238 0
M  V30 21 H -1.652 -1.8355 0.3037 0
M  V30 22 H -3.1348 2.4723 -1.6621 0
M  V30 23 H -3.1864 -0.3803 1.5656 0
M  V30 24 H 3.9424 -1.8345 1.972 0
M  V30 25 H 2.2746 1.7498 0.2758 0
M  V30 26 H -4.4798 2.9049 0.3758 0
M  V30 27 H -4.5014 1.7167 1.7203 0
M  V30 28 H 4.3518 0.3764 3.0678 0
M  V30 29 H 3.6536 1.8746 2.3599 0
M  V30 30 H 5.0732 1.0826 1.5674 0
M  V30 END ATOM
M  V30 BEGIN BOND
M  V30 1 2 1 2
M  V30 2 2 1 3
M  V30 3 1 1 4
M  V30 4 1 1 5
M  V30 5 1 4 6
M  V30 6 2 5 7
M  V30 7 1 5 8
M  V30 8 2 6 9
M  V30 9 1 6 10
M  V30 10 1 7 11
M  V30 11 2 8 12
M  V30 12 1 9 13
M  V30 13 2 10 14
M  V30 14 2 11 15
M  V30 15 2 13 16
M  V30 16 1 15 17
M  V30 17 1 16 18
M  V30 18 1 12 15
M  V30 19 1 14 16
M  V30 20 1 4 19
M  V30 21 1 7 20
M  V30 22 1 8 21
M  V30 23 1 11 22
M  V30 24 1 12 23
M  V30 25 1 13 24
M  V30 26 1 14 25
M  V30 27 1 17 26
M  V30 28 1 17 27
M  V30 29 1 18 28
M  V30 30 1 18 29
M  V30 31 1 18 30
M  V30 END BOND
M  V30 END CTAB
M  END
>  <Structure No>
6164

>  <LogS>
-2.82

>  <MMFF94 Energy>
-133.13

$$$$
Compound 6165
Actelion Java MolfileCreator 2.0

  0  0  0  0  0  0              0 V3000
M  V30 BEGIN CTAB
M  V30 COUNTS 31 32 0 0 0
M  V30 BEGIN ATOM
M  V30 1 S -0.6529 -2.4502 -1.4695 0
M  V30 2 O 0.2453 -2.2492 -2.6577 0
M  V30 3 O -1.5444 -3.633 -1.7215 0
M  V30 4 N 0.3252 -2.7538 -0.0716 0
M  V30 5 C -1.6522 -1.0257 -1.2016 0
M  V30 6 C 1.2253 -1.7726 0.4509 0
M  V30 7 C -1.8728 -0.1065 -2.2364 0
M  V30 8 C -2.2321 -0.8059 0.0547 0
M  V30 9 N 1.3625 -0.5647 -0.1594 0
M  V30 10 N 1.945 -2.0467 1.5704 0
M  V30 11 C -2.6603 1.027 -2.0136 0
M  V30 12 C -3.019 0.3277 0.2781 0
M  V30 13 C 2.2072 0.3785 0.33 0
M  V30 14 C 2.8024 -1.133 2.094 0
M  V30 15 C -3.2362 1.2505 -0.7548 0
M  V30 16 C 2.9584 0.1137 1.4859 0
M  V30 17 N -4.0405 2.4105 -0.5266 0
M  V30 18 O 3.8486 1.0403 2.0472 0
M  V30 19 C 4.0894 2.34 1.5184 0
M  V30 20 H 0.2362 -3.6763 0.4093 0
M  V30 21 H -1.4366 -0.2647 -3.2141 0
M  V30 22 H -2.0728 -1.5102 0.8613 0
M  V30 23 H -2.8216 1.7307 -2.8205 0
M  V30 24 H -3.4588 0.4871 1.2545 0
M  V30 25 H 2.2861 1.3259 -0.1841 0
M  V30 26 H 3.3634 -1.3764 2.9866 0
M  V30 27 H -4.4738 2.5853 0.4074 0
M  V30 28 H -4.2083 3.1033 -1.2899 0
M  V30 29 H 4.4949 2.2635 0.4875 0
M  V30 30 H 3.1496 2.9315 1.5163 0
M  V30 31 H 4.8344 2.8586 2.1559 0
M  V30 END ATOM
M  V30 BEGIN BOND
M  V30 1 2 1 2
M  V30 2 2 1 3
M  V30 3 1 1 4
M  V30 4 1 1 5
M  V30 5 1 4 6
M  V30 6 2 5 7
M  V30 7 1 5 8
M  V30 8 2 6 9
M  V30 9 1 6 10
M  V30 10 1 7 11
M  V30 11 2 8 12
M  V30 12 1 9 13
M  V30 13 2 10 14
M  V30 14 2 11 15
M  V30 15 2 13 16
M  V30 16 1 15 17
M  V30 17 1 16 18
M  V30 18 1 18 19
M  V30 19 1 12 15
M  V30 20 1 14 16
M  V30 21 1 4 20
M  V30 22 1 7 21
M  V30 23 1 8 22
M  V30 24 1 11 23
M  V30 25 1 12 24
M  V30 26 1 13 25
M  V30 27 1 14 26
M  V30 28 1 17 27
M  V30 29 1 17 28
M  V30 30 1 19 29
M  V30 31 1 19 30
M  V30 32 1 19 31
M  V30 END BOND
M  V30 END CTAB
M  END
>  <Structure No>
6165

>  <LogS>
-2.5843

>  <MMFF94 Energy>
-106.68

$$$$
Compound 6166
Actelion Java MolfileCreator 2.0

  0  0  0  0  0  0              0 V3000
M  V30 BEGIN CTAB
M  V30 COUNTS 39 40 0 0 0
M  V30 BEGIN ATOM
M  V30 1 S -1.7941 -0.6521 -3.1821 0
M  V30 2 O -3.1446 -0.6935 -3.8379 0
M  V30 3 O -0.9088 -1.6891 -3.8141 0
M  V30 4 N -1.0933 0.916 -3.413 0 CHG=-1
M  V30 5 C -1.9947 -0.955 -1.4577 0
M  V30 6 C 0.0219 1.3978 -2.6588 0
M  V30 7 C -2.6362 -9.0E-4 -0.6581 0
M  V30 8 C -1.4901 -2.1232 -0.8706 0
M  V30 9 O 0.2937 2.6276 -2.6921 0
M  V30 10 N 0.8253 0.5042 -1.8728 0
M  V30 11 C -2.7653 -0.2066 0.7186 0
M  V30 12 C -1.6156 -2.3287 0.5066 0
M  V30 13 C 1.6456 0.9754 -0.7542 0
M  V30 14 C -2.2391 -1.3633 1.3123 0
M  V30 15 C 0.7435 1.2875 0.4533 0
M  V30 16 C 2.697 -0.0876 -0.3787 0
M  V30 17 C -2.3941 -1.5866 2.787 0
M  V30 18 C 1.5717 1.7291 1.666 0
M  V30 19 C 3.5253 0.3582 0.8326 0
M  V30 20 C 2.6216 0.6722 2.0307 0
M  V30 21 H -3.028 0.9062 -1.0994 0
M  V30 22 H -0.998 -2.8729 -1.4748 0
M  V30 23 H 0.8007 -0.5174 -2.0894 0
M  V30 24 H -3.2655 0.541 1.3225 0
M  V30 25 H -1.2229 -3.2377 0.944 0
M  V30 26 H 2.1852 1.8994 -1.0613 0
M  V30 27 H 0.154 0.385 0.7217 0
M  V30 28 H 0.0301 2.0977 0.1875 0
M  V30 29 H 2.1979 -1.0562 -0.1454 0
M  V30 30 H 3.3784 -0.251 -1.2438 0
M  V30 31 H -3.4139 -1.9805 2.994 0
M  V30 32 H -1.6432 -2.3179 3.1603 0
M  V30 33 H -2.253 -0.6287 3.3365 0
M  V30 34 H 0.8945 1.8865 2.5337 0
M  V30 35 H 2.0731 2.6964 1.4431 0
M  V30 36 H 4.1224 1.2588 0.5679 0
M  V30 37 H 4.2328 -0.4521 1.1103 0
M  V30 38 H 3.2434 1.0457 2.8722 0
M  V30 39 H 2.1125 -0.2575 2.3677 0
M  V30 END ATOM
M  V30 BEGIN BOND
M  V30 1 2 1 2
M  V30 2 2 1 3
M  V30 3 1 1 4
M  V30 4 1 1 5
M  V30 5 1 4 6
M  V30 6 2 5 7
M  V30 7 1 5 8
M  V30 8 2 6 9
M  V30 9 1 6 10
M  V30 10 1 7 11
M  V30 11 2 8 12
M  V30 12 1 10 13
M  V30 13 2 11 14
M  V30 14 1 13 15
M  V30 15 1 13 16
M  V30 16 1 14 17
M  V30 17 1 15 18
M  V30 18 1 16 19
M  V30 19 1 18 20
M  V30 20 1 12 14
M  V30 21 1 19 20
M  V30 22 1 7 21
M  V30 23 1 8 22
M  V30 24 1 10 23
M  V30 25 1 11 24
M  V30 26 1 12 25
M  V30 27 1 13 26
M  V30 28 1 15 27
M  V30 29 1 15 28
M  V30 30 1 16 29
M  V30 31 1 16 30
M  V30 32 1 17 31
M  V30 33 1 17 32
M  V30 34 1 17 33
M  V30 35 1 18 34
M  V30 36 1 18 35
M  V30 37 1 19 36
M  V30 38 1 19 37
M  V30 39 1 20 38
M  V30 40 1 20 39
M  V30 END BOND
M  V30 END CTAB
M  END
>  <Structure No>
6166

>  <LogS>
-4.207

>  <MMFF94 Energy>
-0.99927

$$$$
Compound 6167
Actelion Java MolfileCreator 2.0

  0  0  0  0  0  0              0 V3000
M  V30 BEGIN CTAB
M  V30 COUNTS 27 28 0 0 0
M  V30 BEGIN ATOM
M  V30 1 S 0.2464 -2.1376 1.5617 0
M  V30 2 O -0.468 -3.3712 2.035 0
M  V30 3 O 1.0946 -1.6004 2.6807 0
M  V30 4 N 1.2716 -2.5488 0.2273 0 CHG=-1
M  V30 5 C -0.9445 -0.9419 1.0597 0
M  V30 6 C 2.0636 -1.5878 -0.474 0
M  V30 7 C -1.5078 -1.0103 -0.2214 0
M  V30 8 C -1.3343 0.0822 1.9338 0
M  V30 9 N 2.839 -1.9024 -1.5275 0
M  V30 10 C 2.1472 -0.2367 -0.2024 0
M  V30 11 C -2.4462 -0.0577 -0.6292 0
M  V30 12 C -2.2733 1.0347 1.5262 0
M  V30 13 O 3.3992 -0.7938 -1.9168 0
M  V30 14 C 3.0242 0.2157 -1.1642 0
M  V30 15 C -2.833 0.9701 0.2423 0
M  V30 16 C 3.467 1.6263 -1.3566 0
M  V30 17 N -3.7924 1.9451 -0.1747 0
M  V30 18 H -1.2188 -1.7987 -0.9046 0
M  V30 19 H -0.9124 0.1455 2.9285 0
M  V30 20 H 1.6492 0.3352 0.569 0
M  V30 21 H -2.8716 -0.1203 -1.623 0
M  V30 22 H -2.5645 1.8223 2.2101 0
M  V30 23 H 3.7675 2.0634 -0.3812 0
M  V30 24 H 2.6337 2.2213 -1.7847 0
M  V30 25 H 4.3332 1.6601 -2.0498 0
M  V30 26 H -4.0869 2.7143 0.4674 0
M  V30 27 H -4.2149 1.9051 -1.1291 0
M  V30 END ATOM
M  V30 BEGIN BOND
M  V30 1 2 1 2
M  V30 2 2 1 3
M  V30 3 1 1 4
M  V30 4 1 1 5
M  V30 5 1 4 6
M  V30 6 2 5 7
M  V30 7 1 5 8
M  V30 8 2 6 9
M  V30 9 1 6 10
M  V30 10 1 7 11
M  V30 11 2 8 12
M  V30 12 1 9 13
M  V30 13 2 10 14
M  V30 14 2 11 15
M  V30 15 1 14 16
M  V30 16 1 15 17
M  V30 17 1 12 15
M  V30 18 1 13 14
M  V30 19 1 7 18
M  V30 20 1 8 19
M  V30 21 1 10 20
M  V30 22 1 11 21
M  V30 23 1 12 22
M  V30 24 1 16 23
M  V30 25 1 16 24
M  V30 26 1 16 25
M  V30 27 1 17 26
M  V30 28 1 17 27
M  V30 END BOND
M  V30 END CTAB
M  END
>  <Structure No>
6167

>  <LogS>
-2.6183

>  <MMFF94 Energy>
41.334

$$$$
Compound 6168
Actelion Java MolfileCreator 2.0

  0  0  0  0  0  0              0 V3000
M  V30 BEGIN CTAB
M  V30 COUNTS 40 41 0 0 0
M  V30 BEGIN ATOM
M  V30 1 O 3.791 0.4732 -0.9467 0
M  V30 2 C 2.5963 0.157 -0.2709 0
M  V30 3 C 4.7935 -0.4422 -1.3736 0
M  V30 4 C 2.2231 -1.1631 0.0926 0
M  V30 5 C 1.7502 1.2321 0.0476 0
M  V30 6 O 3.0666 -2.2416 -0.2174 0
M  V30 7 C 1.0027 -1.3719 0.7647 0
M  V30 8 O 2.1532 2.5257 -0.3228 0
M  V30 9 C 0.5378 0.9985 0.7185 0
M  V30 10 C 2.7953 -3.6065 0.0858 0
M  V30 11 C 0.1525 -0.301 1.0665 0
M  V30 12 C 1.4009 3.7097 -0.0766 0
M  V30 13 C -1.1532 -0.5363 1.7867 0
M  V30 14 C -2.3311 -0.1055 0.9411 0
M  V30 15 C -2.8252 -0.873 -0.1373 0
M  V30 16 C -2.9456 1.1296 1.1965 0
M  V30 17 N -3.8667 -0.3985 -0.8707 0
M  V30 18 N -2.2649 -2.1423 -0.488 0
M  V30 19 N -3.9843 1.5552 0.4319 0 CHG=1
M  V30 20 C -4.4468 0.7979 -0.5978 0
M  V30 21 N -5.5381 1.255 -1.3964 0
M  V30 22 H 5.6029 0.1232 -1.8788 0
M  V30 23 H 4.3697 -1.1649 -2.1022 0
M  V30 24 H 5.2324 -0.9675 -0.4995 0
M  V30 25 H 0.7084 -2.3692 1.0601 0
M  V30 26 H -0.1135 1.8232 0.9728 0
M  V30 27 H 3.6331 -4.2321 -0.2839 0
M  V30 28 H 1.8607 -3.9316 -0.4183 0
M  V30 29 H 2.7084 -3.7442 1.1842 0
M  V30 30 H 0.4156 3.6489 -0.5853 0
M  V30 31 H 1.9553 4.5817 -0.4799 0
M  V30 32 H 1.2602 3.8528 1.0155 0
M  V30 33 H -1.2725 -1.6001 2.0833 0
M  V30 34 H -1.1336 0.0334 2.7415 0
M  V30 35 H -2.5924 1.7585 2.0051 0
M  V30 36 H -2.6502 -2.6696 -1.3027 0
M  V30 37 H -1.4872 -2.583 0.0461 0
M  V30 38 H -4.4258 2.4784 0.6424 0
M  V30 39 H -5.8919 0.673 -2.1879 0
M  V30 40 H -5.9952 2.1732 -1.2007 0
M  V30 END ATOM
M  V30 BEGIN BOND
M  V30 1 1 1 2
M  V30 2 1 1 3
M  V30 3 2 2 4
M  V30 4 1 2 5
M  V30 5 1 4 6
M  V30 6 1 4 7
M  V30 7 1 5 8
M  V30 8 2 5 9
M  V30 9 1 6 10
M  V30 10 2 7 11
M  V30 11 1 8 12
M  V30 12 1 11 13
M  V30 13 1 13 14
M  V30 14 2 14 15
M  V30 15 1 14 16
M  V30 16 1 15 17
M  V30 17 1 15 18
M  V30 18 2 16 19
M  V30 19 2 17 20
M  V30 20 1 20 21
M  V30 21 1 9 11
M  V30 22 1 19 20
M  V30 23 1 3 22
M  V30 24 1 3 23
M  V30 25 1 3 24
M  V30 26 1 7 25
M  V30 27 1 9 26
M  V30 28 1 10 27
M  V30 29 1 10 28
M  V30 30 1 10 29
M  V30 31 1 12 30
M  V30 32 1 12 31
M  V30 33 1 12 32
M  V30 34 1 13 33
M  V30 35 1 13 34
M  V30 36 1 16 35
M  V30 37 1 18 36
M  V30 38 1 18 37
M  V30 39 1 19 38
M  V30 40 1 21 39
M  V30 41 1 21 40
M  V30 END BOND
M  V30 END CTAB
M  END
>  <Structure No>
6168

>  <LogS>
-2.8608

>  <MMFF94 Energy>
-35.058

$$$$
Compound 6169
Actelion Java MolfileCreator 2.0

  0  0  0  0  0  0              0 V3000
M  V30 BEGIN CTAB
M  V30 COUNTS 59 62 0 0 0
M  V30 BEGIN ATOM
M  V30 1 O 6.9847 -0.405 -0.405 0
M  V30 2 C 5.7893 -0.0592 -0.2116 0
M  V30 3 C 4.8259 -0.1379 -1.322 0
M  V30 4 C 5.3766 0.4437 1.141 0
M  V30 5 C 3.5548 0.2744 -1.1833 0
M  V30 6 C 3.8528 0.3805 1.3279 0
M  V30 7 C 3.0724 0.9562 0.1071 0 CFG=2
M  V30 8 C 2.5496 0.0183 -2.2947 0
M  V30 9 C 1.5229 0.7128 0.2457 0 CFG=1
M  V30 10 C 3.3466 2.4757 -0.0187 0
M  V30 11 C 1.3214 -0.7887 -1.7984 0
M  V30 12 C 1.1508 -0.7149 -0.2633 0 CFG=2
M  V30 13 C 0.9018 0.9979 1.6381 0
M  V30 14 C -0.2115 -1.1886 0.3096 0 CFG=1
M  V30 15 C -0.6552 0.9354 1.615 0
M  V30 16 C -1.2425 -0.0804 0.5761 0 CFG=2
M  V30 17 C -0.9774 -2.3256 -0.3572 0
M  V30 18 C -2.4169 -0.944 1.1152 0 CFG=2
M  V30 19 C -1.6917 0.6583 -0.7264 0
M  V30 20 C -2.4047 -2.2021 0.2091 0
M  V30 21 C -3.7526 -0.2215 1.2523 0
M  V30 22 O -3.7599 0.9102 1.7136 0
M  V30 23 C -5.0856 -0.8804 0.9908 0
M  V30 24 O -5.9059 -0.0421 0.1794 0
M  V30 25 C -5.7008 0.1478 -1.1912 0
M  V30 26 O -4.8078 -0.4939 -1.8066 0
M  V30 27 C -6.5851 1.0833 -1.943 0
M  V30 28 H 5.1511 -0.5974 -2.2477 0
M  V30 29 H 5.8618 -0.1737 1.9276 0
M  V30 30 H 5.7361 1.4868 1.2672 0
M  V30 31 H 3.5698 -0.6805 1.4952 0
M  V30 32 H 3.595 0.9401 2.2532 0
M  V30 33 H 3.0109 -0.5109 -3.1571 0
M  V30 34 H 2.2041 1.0049 -2.6726 0
M  V30 35 H 1.0486 1.4473 -0.432 0
M  V30 36 H 2.761 2.9162 -0.8545 0
M  V30 37 H 3.0748 3.0071 0.9175 0
M  V30 38 H 4.4162 2.6779 -0.2349 0
M  V30 39 H 1.445 -1.8543 -2.0924 0
M  V30 40 H 0.4145 -0.4086 -2.3126 0
M  V30 41 H 1.8989 -1.4309 0.1464 0
M  V30 42 H 1.2132 2.0003 2.0001 0
M  V30 43 H 1.2761 0.2482 2.3686 0
M  V30 44 H 0.0567 -1.6033 1.3149 0
M  V30 45 H -1.0489 1.9552 1.4105 0
M  V30 46 H -0.9966 0.6799 2.6413 0
M  V30 47 H -0.5275 -3.3105 -0.1052 0
M  V30 48 H -0.9959 -2.2092 -1.4615 0
M  V30 49 H -2.157 -1.2876 2.1431 0
M  V30 50 H -2.0857 -0.0456 -1.4864 0
M  V30 51 H -0.8855 1.2316 -1.209 0
M  V30 52 H -2.4937 1.3916 -0.5044 0
M  V30 53 H -2.6781 -3.1069 0.7946 0
M  V30 54 H -3.1074 -2.0985 -0.6428 0
M  V30 55 H -5.0025 -1.8878 0.5381 0
M  V30 56 H -5.5938 -1.0141 1.9682 0
M  V30 57 H -7.3627 0.5044 -2.4835 0
M  V30 58 H -5.9866 1.6655 -2.6743 0
M  V30 59 H -7.0775 1.788 -1.2406 0
M  V30 END ATOM
M  V30 BEGIN BOND
M  V30 1 2 1 2
M  V30 2 1 2 3
M  V30 3 1 2 4
M  V30 4 2 3 5
M  V30 5 1 4 6
M  V30 6 1 5 7
M  V30 7 1 5 8
M  V30 8 1 7 9
M  V30 9 1 7 10
M  V30 10 1 8 11
M  V30 11 1 9 12
M  V30 12 1 9 13
M  V30 13 1 12 14
M  V30 14 1 13 15
M  V30 15 1 14 16
M  V30 16 1 14 17
M  V30 17 1 16 18
M  V30 18 1 16 19
M  V30 19 1 17 20
M  V30 20 1 18 21
M  V30 21 2 21 22
M  V30 22 1 21 23
M  V30 23 1 23 24
M  V30 24 1 24 25
M  V30 25 2 25 26
M  V30 26 1 25 27
M  V30 27 1 6 7
M  V30 28 1 11 12
M  V30 29 1 15 16
M  V30 30 1 18 20
M  V30 31 1 3 28
M  V30 32 1 4 29
M  V30 33 1 4 30
M  V30 34 1 6 31
M  V30 35 1 6 32
M  V30 36 1 8 33
M  V30 37 1 8 34
M  V30 38 1 9 35
M  V30 39 1 10 36
M  V30 40 1 10 37
M  V30 41 1 10 38
M  V30 42 1 11 39
M  V30 43 1 11 40
M  V30 44 1 12 41
M  V30 45 1 13 42
M  V30 46 1 13 43
M  V30 47 1 14 44
M  V30 48 1 15 45
M  V30 49 1 15 46
M  V30 50 1 17 47
M  V30 51 1 17 48
M  V30 52 1 18 49
M  V30 53 1 19 50
M  V30 54 1 19 51
M  V30 55 1 19 52
M  V30 56 1 20 53
M  V30 57 1 20 54
M  V30 58 1 23 55
M  V30 59 1 23 56
M  V30 60 1 27 57
M  V30 61 1 27 58
M  V30 62 1 27 59
M  V30 END BOND
M  V30 BEGIN COLLECTION
M  V30 MDLV30/STEABS ATOMS=(6 7 9 12 14 16 18)
M  V30 END COLLECTION
M  V30 END CTAB
M  END
>  <Structure No>
6169

>  <LogS>
-4.6301

>  <MMFF94 Energy>
87.695

$$$$
Compound 6170
Actelion Java MolfileCreator 2.0

  0  0  0  0  0  0              0 V3000
M  V30 BEGIN CTAB
M  V30 COUNTS 55 58 0 0 0
M  V30 BEGIN ATOM
M  V30 1 F -1.1398 0.6512 -1.6286 0
M  V30 2 C -1.2186 0.5302 -0.2441 0 CFG=2
M  V30 3 C -2.7426 0.8373 0.1809 0 CFG=2
M  V30 4 C -0.1784 1.5439 0.3249 0 CFG=1
M  V30 5 C -0.7973 -0.9463 0.0507 0 CFG=1
M  V30 6 C -3.4977 -0.4794 0.4457 0
M  V30 7 C -3.4028 1.6756 -0.9154 0
M  V30 8 C -2.9147 1.6747 1.4732 0
M  V30 9 O -0.1863 1.5906 1.7268 0
M  V30 10 C 1.2431 1.2276 -0.1667 0
M  V30 11 C 0.716 -1.2817 -0.1833 0 CFG=2
M  V30 12 C -1.3434 -1.4128 1.4137 0
M  V30 13 C -4.7366 -0.695 -0.0245 0
M  V30 14 C -2.8767 -1.5247 1.3526 0
M  V30 15 C -4.6262 1.4315 -1.3869 0
M  V30 16 C 1.7581 -0.2018 0.2118 0 CFG=1
M  V30 17 C 1.014 -1.6469 -1.6544 0
M  V30 18 C -5.3739 0.2607 -0.9319 0
M  V30 19 C 3.0103 -0.5936 -0.6546 0 CFG=2
M  V30 20 C 2.0873 -0.2791 1.7304 0
M  V30 21 C 2.3849 -1.0491 -1.9986 0 CFG=1
M  V30 22 O -6.5485 0.0619 -1.339 0
M  V30 23 O 3.6603 -1.7024 -0.0637 0
M  V30 24 C 4.0128 0.5591 -0.8254 0
M  V30 25 O 3.2047 -1.9408 -2.7183 0
M  V30 26 O 3.9605 1.283 -1.8096 0
M  V30 27 C 5.0733 0.8388 0.2085 0
M  V30 28 O 5.0219 2.1807 0.6102 0
M  V30 29 H -0.4522 2.5506 -0.071 0
M  V30 30 H -1.3406 -1.5808 -0.6894 0
M  V30 31 H -2.8902 2.5652 -1.2631 0
M  V30 32 H -2.5033 1.1554 2.3625 0
M  V30 33 H -2.4479 2.6782 1.3764 0
M  V30 34 H -3.9948 1.8449 1.6797 0
M  V30 35 H 0.2474 2.4434 1.993 0
M  V30 36 H 1.9345 1.997 0.2402 0
M  V30 37 H 1.2523 1.3671 -1.2674 0
M  V30 38 H 0.9526 -2.2034 0.397 0
M  V30 39 H -0.9315 -2.4098 1.6814 0
M  V30 40 H -1.0541 -0.7128 2.2205 0
M  V30 41 H -5.2709 -1.6018 0.2347 0
M  V30 42 H -3.1293 -2.5373 0.9657 0
M  V30 43 H -3.304 -1.4349 2.3744 0
M  V30 44 H -5.0646 2.0994 -2.1181 0
M  V30 45 H 0.255 -1.2356 -2.3532 0
M  V30 46 H 1.0002 -2.7524 -1.7758 0
M  V30 47 H 1.1785 -0.2435 2.3547 0
M  V30 48 H 2.5844 -1.2322 2.0032 0
M  V30 49 H 2.7477 0.5568 2.0357 0
M  V30 50 H 2.202 -0.1724 -2.6565 0
M  V30 51 H 4.5155 -1.8612 -0.5439 0
M  V30 52 H 3.2 -2.8185 -2.2556 0
M  V30 53 H 4.9753 0.1683 1.0907 0
M  V30 54 H 6.067 0.6448 -0.246 0
M  V30 55 H 4.2575 2.2627 1.2375 0
M  V30 END ATOM
M  V30 BEGIN BOND
M  V30 1 1 1 2
M  V30 2 1 2 3
M  V30 3 1 2 4
M  V30 4 1 2 5
M  V30 5 1 3 6
M  V30 6 1 3 7
M  V30 7 1 3 8
M  V30 8 1 4 9
M  V30 9 1 4 10
M  V30 10 1 5 11
M  V30 11 1 5 12
M  V30 12 2 6 13
M  V30 13 1 6 14
M  V30 14 2 7 15
M  V30 15 1 10 16
M  V30 16 1 11 17
M  V30 17 1 13 18
M  V30 18 1 16 19
M  V30 19 1 16 20
M  V30 20 1 17 21
M  V30 21 2 18 22
M  V30 22 1 19 23
M  V30 23 1 19 24
M  V30 24 1 21 25
M  V30 25 2 24 26
M  V30 26 1 24 27
M  V30 27 1 27 28
M  V30 28 1 11 16
M  V30 29 1 12 14
M  V30 30 1 15 18
M  V30 31 1 19 21
M  V30 32 1 4 29
M  V30 33 1 5 30
M  V30 34 1 7 31
M  V30 35 1 8 32
M  V30 36 1 8 33
M  V30 37 1 8 34
M  V30 38 1 9 35
M  V30 39 1 10 36
M  V30 40 1 10 37
M  V30 41 1 11 38
M  V30 42 1 12 39
M  V30 43 1 12 40
M  V30 44 1 13 41
M  V30 45 1 14 42
M  V30 46 1 14 43
M  V30 47 1 15 44
M  V30 48 1 17 45
M  V30 49 1 17 46
M  V30 50 1 20 47
M  V30 51 1 20 48
M  V30 52 1 20 49
M  V30 53 1 21 50
M  V30 54 1 23 51
M  V30 55 1 25 52
M  V30 56 1 27 53
M  V30 57 1 27 54
M  V30 58 1 28 55
M  V30 END BOND
M  V30 BEGIN COLLECTION
M  V30 MDLV30/STEABS ATOMS=(8 2 3 4 5 11 16 19 21)
M  V30 END COLLECTION
M  V30 END CTAB
M  END
>  <Structure No>
6170

>  <LogS>
-3.6929

>  <MMFF94 Energy>
203.45

$$$$
Compound 6171
Actelion Java MolfileCreator 2.0

  0  0  0  0  0  0              0 V3000
M  V30 BEGIN CTAB
M  V30 COUNTS 71 74 0 0 0
M  V30 BEGIN ATOM
M  V30 1 F -2.9974 0.4046 -1.4573 0
M  V30 2 C -2.8455 -0.2819 -0.2553 0 CFG=1
M  V30 3 C -4.2591 -0.9704 0.0273 0 CFG=1
M  V30 4 C -1.6942 -1.2908 -0.4992 0 CFG=2
M  V30 5 C -2.4277 0.8099 0.7964 0 CFG=2
M  V30 6 C -5.1847 0.0333 0.7402 0
M  V30 7 C -4.8489 -1.446 -1.3058 0
M  V30 8 C -4.2 -2.2425 0.9105 0
M  V30 9 O -1.4191 -2.0473 0.6498 0
M  V30 10 C -0.4062 -0.588 -0.9822 0
M  V30 11 C -0.8886 1.0247 0.9894 0 CFG=2
M  V30 12 C -3.1782 0.7065 2.1368 0
M  V30 13 C -6.4709 0.1879 0.3853 0
M  V30 14 C -4.6899 0.8201 1.9312 0
M  V30 15 C -6.1263 -1.2707 -1.6455 0
M  V30 16 C -0.0088 0.7678 -0.2561 0 CFG=1
M  V30 17 C -0.2131 0.2639 2.144 0
M  V30 18 C -7.0161 -0.4897 -0.7909 0
M  V30 19 C 1.4548 0.688 0.3375 0 CFG=1
M  V30 20 C -0.1514 1.9306 -1.2787 0
M  V30 21 C 1.2348 -0.0425 1.704 0 CFG=1
M  V30 22 O -8.2351 -0.3708 -1.0844 0
M  V30 23 O 2.2635 -0.0487 -0.6072 0
M  V30 24 C 2.0848 2.0787 0.5511 0
M  V30 25 C 2.2255 0.3187 2.8383 0
M  V30 26 C 3.3721 -0.8816 -0.3879 0
M  V30 27 O 1.5349 2.8947 1.2774 0
M  V30 28 C 3.3928 2.4657 -0.0831 0
M  V30 29 O 3.7635 -1.1763 0.7702 0
M  V30 30 C 4.0279 -1.518 -1.5783 0
M  V30 31 O 3.282 2.4133 -1.4778 0
M  V30 32 C 5.5595 -1.5722 -1.472 0
M  V30 33 C 6.1942 -0.1746 -1.468 0
M  V30 34 C 7.717 -0.2607 -1.495 0
M  V30 35 H -2.0124 -1.9842 -1.3119 0
M  V30 36 H -2.7829 1.7784 0.3695 0
M  V30 37 H -4.2324 -2.0417 -1.9673 0
M  V30 38 H -3.688 -2.078 1.8745 0
M  V30 39 H -3.6902 -3.0777 0.3837 0
M  V30 40 H -5.229 -2.5949 1.1428 0
M  V30 41 H -0.9454 -2.869 0.3556 0
M  V30 42 H -0.5088 -0.4164 -2.077 0
M  V30 43 H 0.3936 -1.3522 -0.9118 0
M  V30 44 H -0.7857 2.1003 1.2601 0
M  V30 45 H -2.9339 -0.2314 2.6674 0
M  V30 46 H -2.8574 1.5363 2.8046 0
M  V30 47 H -7.1173 0.8546 0.9454 0
M  V30 48 H -4.9387 1.894 1.7777 0
M  V30 49 H -5.213 0.4758 2.8494 0
M  V30 50 H -6.5017 -1.6937 -2.5693 0
M  V30 51 H -0.7253 -0.6775 2.4111 0
M  V30 52 H -0.2522 0.895 3.0602 0
M  V30 53 H 0.596 1.8168 -2.0923 0
M  V30 54 H -1.1584 1.9399 -1.739 0
M  V30 55 H -0.0092 2.9258 -0.8094 0
M  V30 56 H 1.3025 -1.1387 1.5248 0
M  V30 57 H 1.9922 1.3093 3.2832 0
M  V30 58 H 2.1597 -0.4418 3.645 0
M  V30 59 H 3.2722 0.3685 2.4855 0
M  V30 60 H 3.6757 3.4975 0.2245 0
M  V30 61 H 4.184 1.7731 0.2719 0
M  V30 62 H 3.7409 -0.9643 -2.4988 0
M  V30 63 H 3.6374 -2.5535 -1.6761 0
M  V30 64 H 4.1914 2.5908 -1.8326 0
M  V30 65 H 5.9437 -2.1424 -2.346 0
M  V30 66 H 5.855 -2.1253 -0.5534 0
M  V30 67 H 5.8501 0.4003 -2.355 0
M  V30 68 H 5.8906 0.3716 -0.5515 0
M  V30 69 H 8.0581 -0.7679 -2.4221 0
M  V30 70 H 8.0875 -0.8222 -0.6109 0
M  V30 71 H 8.1471 0.7626 -1.4712 0
M  V30 END ATOM
M  V30 BEGIN BOND
M  V30 1 1 1 2
M  V30 2 1 2 3
M  V30 3 1 2 4
M  V30 4 1 2 5
M  V30 5 1 3 6
M  V30 6 1 3 7
M  V30 7 1 3 8
M  V30 8 1 4 9
M  V30 9 1 4 10
M  V30 10 1 5 11
M  V30 11 1 5 12
M  V30 12 2 6 13
M  V30 13 1 6 14
M  V30 14 2 7 15
M  V30 15 1 10 16
M  V30 16 1 11 17
M  V30 17 1 13 18
M  V30 18 1 16 19
M  V30 19 1 16 20
M  V30 20 1 17 21
M  V30 21 2 18 22
M  V30 22 1 19 23
M  V30 23 1 19 24
M  V30 24 1 21 25
M  V30 25 1 23 26
M  V30 26 2 24 27
M  V30 27 1 24 28
M  V30 28 2 26 29
M  V30 29 1 26 30
M  V30 30 1 28 31
M  V30 31 1 30 32
M  V30 32 1 32 33
M  V30 33 1 33 34
M  V30 34 1 11 16
M  V30 35 1 12 14
M  V30 36 1 15 18
M  V30 37 1 19 21
M  V30 38 1 4 35
M  V30 39 1 5 36
M  V30 40 1 7 37
M  V30 41 1 8 38
M  V30 42 1 8 39
M  V30 43 1 8 40
M  V30 44 1 9 41
M  V30 45 1 10 42
M  V30 46 1 10 43
M  V30 47 1 11 44
M  V30 48 1 12 45
M  V30 49 1 12 46
M  V30 50 1 13 47
M  V30 51 1 14 48
M  V30 52 1 14 49
M  V30 53 1 15 50
M  V30 54 1 17 51
M  V30 55 1 17 52
M  V30 56 1 20 53
M  V30 57 1 20 54
M  V30 58 1 20 55
M  V30 59 1 21 56
M  V30 60 1 25 57
M  V30 61 1 25 58
M  V30 62 1 25 59
M  V30 63 1 28 60
M  V30 64 1 28 61
M  V30 65 1 30 62
M  V30 66 1 30 63
M  V30 67 1 31 64
M  V30 68 1 32 65
M  V30 69 1 32 66
M  V30 70 1 33 67
M  V30 71 1 33 68
M  V30 72 1 34 69
M  V30 73 1 34 70
M  V30 74 1 34 71
M  V30 END BOND
M  V30 BEGIN COLLECTION
M  V30 MDLV30/STEABS ATOMS=(8 2 3 4 5 11 16 19 21)
M  V30 END COLLECTION
M  V30 END CTAB
M  END
>  <Structure No>
6171

>  <LogS>
-4.7101

>  <MMFF94 Energy>
168.41

$$$$
Compound 6172
Actelion Java MolfileCreator 2.0

  0  0  0  0  0  0              0 V3000
M  V30 BEGIN CTAB
M  V30 COUNTS 15 15 0 0 0
M  V30 BEGIN ATOM
M  V30 1 O -0.9337 2.1018 0.778 0
M  V30 2 C -0.1892 0.9922 0.3721 0
M  V30 3 C -0.7855 -0.2322 -0.0246 0
M  V30 4 C 1.2065 1.1142 0.3632 0
M  V30 5 N -2.2072 -0.4228 -0.0382 0
M  V30 6 C 0.0404 -1.2985 -0.4187 0
M  V30 7 C 2.0123 0.0448 -0.0311 0
M  V30 8 C 1.4298 -1.1602 -0.4216 0
M  V30 9 H -1.9419 2.1236 0.822 0
M  V30 10 H 1.6687 2.0458 0.6648 0
M  V30 11 H -2.8855 0.3165 0.2389 0
M  V30 12 H -2.6108 -1.3389 -0.3365 0
M  V30 13 H -0.3953 -2.2414 -0.725 0
M  V30 14 H 3.0895 0.151 -0.0338 0
M  V30 15 H 2.0554 -1.9888 -0.7274 0
M  V30 END ATOM
M  V30 BEGIN BOND
M  V30 1 1 1 2
M  V30 2 2 2 3
M  V30 3 1 2 4
M  V30 4 1 3 5
M  V30 5 1 3 6
M  V30 6 2 4 7
M  V30 7 2 6 8
M  V30 8 1 7 8
M  V30 9 1 1 9
M  V30 10 1 4 10
M  V30 11 1 5 11
M  V30 12 1 5 12
M  V30 13 1 6 13
M  V30 14 1 7 14
M  V30 15 1 8 15
M  V30 END BOND
M  V30 END CTAB
M  END
>  <Structure No>
6172

>  <LogS>
-0.7369

>  <MMFF94 Energy>
14.355

$$$$
Compound 6173
Actelion Java MolfileCreator 2.0

  0  0  0  0  0  0              0 V3000
M  V30 BEGIN CTAB
M  V30 COUNTS 18 18 0 0 0
M  V30 BEGIN ATOM
M  V30 1 O -2.7943 -2.3008 -0.5748 0
M  V30 2 N -1.5811 -2.3337 -0.2839 0 CHG=1
M  V30 3 O -0.9875 -3.5611 -0.0953 0 CHG=-1
M  V30 4 C -0.8093 -1.1206 -0.1459 0
M  V30 5 C -1.3904 0.1552 -0.3332 0
M  V30 6 C 0.5562 -1.2028 0.1831 0
M  V30 7 O -2.7376 0.2792 -0.6595 0 CHG=-1
M  V30 8 C -0.6105 1.3164 -0.1914 0
M  V30 9 C 1.3414 -0.0478 0.3265 0
M  V30 10 N -1.1901 2.613 -0.3791 0
M  V30 11 C 0.7459 1.2086 0.1364 0
M  V30 12 N 2.7375 -0.1539 0.6639 0 CHG=1
M  V30 13 O 3.4414 0.8692 0.7929 0
M  V30 14 O 3.3213 -1.386 0.8502 0 CHG=-1
M  V30 15 H 1.012 -2.1727 0.329 0
M  V30 16 H -2.1983 2.7293 -0.624 0
M  V30 17 H -0.6113 3.476 -0.2738 0
M  V30 18 H 1.3359 2.1103 0.2429 0
M  V30 END ATOM
M  V30 BEGIN BOND
M  V30 1 2 1 2
M  V30 2 1 2 3
M  V30 3 1 2 4
M  V30 4 2 4 5
M  V30 5 1 4 6
M  V30 6 1 5 7
M  V30 7 1 5 8
M  V30 8 2 6 9
M  V30 9 1 8 10
M  V30 10 2 8 11
M  V30 11 1 9 12
M  V30 12 2 12 13
M  V30 13 1 12 14
M  V30 14 1 9 11
M  V30 15 1 6 15
M  V30 16 1 10 16
M  V30 17 1 10 17
M  V30 18 1 11 18
M  V30 END BOND
M  V30 END CTAB
M  END
>  <Structure No>
6173

>  <LogS>
-2.4862

>  <MMFF94 Energy>
63.08

$$$$
Compound 6174
Actelion Java MolfileCreator 2.0

  0  0  0  0  0  0              0 V3000
M  V30 BEGIN CTAB
M  V30 COUNTS 16 16 0 0 0
M  V30 BEGIN ATOM
M  V30 1 O -2.5431 -2.1454 -0.3176 0
M  V30 2 N -2.4857 -0.8984 -0.3444 0 CHG=1
M  V30 3 O -3.6487 -0.1852 -0.5257 0 CHG=-1
M  V30 4 C -1.227 -0.2174 -0.1888 0
M  V30 5 C -0.0349 -0.9436 -0.0029 0
M  V30 6 C -1.1706 1.1873 -0.2201 0
M  V30 7 C 1.1904 -0.2777 0.1484 0
M  V30 8 C 0.0501 1.8504 -0.0693 0
M  V30 9 N 2.3961 -1.0234 0.3366 0
M  V30 10 C 1.227 1.1222 0.1144 0
M  V30 11 H -0.0551 -2.0259 0.0245 0
M  V30 12 H -2.0692 1.7736 -0.3612 0
M  V30 13 H 0.0834 2.9321 -0.0949 0
M  V30 14 H 2.3808 -2.0674 0.3638 0
M  V30 15 H 3.3134 -0.537 0.4504 0
M  V30 16 H 2.1665 1.6478 0.2301 0
M  V30 END ATOM
M  V30 BEGIN BOND
M  V30 1 2 1 2
M  V30 2 1 2 3
M  V30 3 1 2 4
M  V30 4 2 4 5
M  V30 5 1 4 6
M  V30 6 1 5 7
M  V30 7 2 6 8
M  V30 8 1 7 9
M  V30 9 2 7 10
M  V30 10 1 8 10
M  V30 11 1 5 11
M  V30 12 1 6 12
M  V30 13 1 8 13
M  V30 14 1 9 14
M  V30 15 1 9 15
M  V30 16 1 10 16
M  V30 END BOND
M  V30 END CTAB
M  END
>  <Structure No>
6174

>  <LogS>
-2.0611

>  <MMFF94 Energy>
34.995

$$$$
Compound 6175
Actelion Java MolfileCreator 2.0

  0  0  0  0  0  0              0 V3000
M  V30 BEGIN CTAB
M  V30 COUNTS 16 16 0 0 0
M  V30 BEGIN ATOM
M  V30 1 O 3.4981 -0.7942 -0.7942 0
M  V30 2 N 2.8656 0.0697 -0.1517 0 CHG=1
M  V30 3 O 3.5681 1.0582 0.4988 0 CHG=-1
M  V30 4 C 1.4278 0.0337 -0.0915 0
M  V30 5 C 0.7214 1.0098 0.6338 0
M  V30 6 C 0.7059 -0.9754 -0.7554 0
M  V30 7 C -0.6751 0.977 0.6936 0
M  V30 8 C -0.6906 -1.0059 -0.694 0
M  V30 9 C -1.3875 -0.0304 0.0305 0
M  V30 10 N -2.8158 -0.0626 0.0926 0
M  V30 11 H 1.2476 1.7988 1.1551 0
M  V30 12 H 1.2204 -1.7407 -1.3219 0
M  V30 13 H -1.2017 1.737 1.2572 0
M  V30 14 H -1.2292 -1.7901 -1.211 0
M  V30 15 H -3.3442 0.6603 0.6304 0
M  V30 16 H -3.3557 -0.8098 -0.3984 0
M  V30 END ATOM
M  V30 BEGIN BOND
M  V30 1 2 1 2
M  V30 2 1 2 3
M  V30 3 1 2 4
M  V30 4 2 4 5
M  V30 5 1 4 6
M  V30 6 1 5 7
M  V30 7 2 6 8
M  V30 8 2 7 9
M  V30 9 1 9 10
M  V30 10 1 8 9
M  V30 11 1 5 11
M  V30 12 1 6 12
M  V30 13 1 7 13
M  V30 14 1 8 14
M  V30 15 1 10 15
M  V30 16 1 10 16
M  V30 END BOND
M  V30 END CTAB
M  END
>  <Structure No>
6175

>  <LogS>
-2.2782

>  <MMFF94 Energy>
39.744

$$$$
Compound 6176
Actelion Java MolfileCreator 2.0

  0  0  0  0  0  0              0 V3000
M  V30 BEGIN CTAB
M  V30 COUNTS 16 16 0 0 0
M  V30 BEGIN ATOM
M  V30 1 O -3.4816 -0.6624 0.4968 0
M  V30 2 N -2.3378 -1.1589 0.4426 0 CHG=1
M  V30 3 O -2.2005 -2.5114 0.6571 0 CHG=-1
M  V30 4 C -1.1801 -0.3431 0.1625 0
M  V30 5 C -1.2891 1.0483 -0.0619 0
M  V30 6 C 0.0951 -0.9389 0.1093 0
M  V30 7 O -2.5212 1.6918 -0.022 0 CHG=-1
M  V30 8 C -0.1475 1.8077 -0.3304 0
M  V30 9 C 1.2446 -0.1755 -0.1607 0
M  V30 10 C 1.1088 1.2047 -0.3801 0
M  V30 11 N 2.5401 -0.8018 -0.2112 0 CHG=1
M  V30 12 O 3.5641 -0.1285 -0.4507 0
M  V30 13 O 2.6729 -2.1545 0.0038 0 CHG=-1
M  V30 14 H 0.1942 -2.0026 0.2791 0
M  V30 15 H -0.2355 2.8732 -0.5018 0
M  V30 16 H 1.9749 1.819 -0.5903 0
M  V30 END ATOM
M  V30 BEGIN BOND
M  V30 1 2 1 2
M  V30 2 1 2 3
M  V30 3 1 2 4
M  V30 4 2 4 5
M  V30 5 1 4 6
M  V30 6 1 5 7
M  V30 7 1 5 8
M  V30 8 2 6 9
M  V30 9 2 8 10
M  V30 10 1 9 11
M  V30 11 2 11 12
M  V30 12 1 11 13
M  V30 13 1 9 10
M  V30 14 1 6 14
M  V30 15 1 8 15
M  V30 16 1 10 16
M  V30 END BOND
M  V30 END CTAB
M  END
>  <Structure No>
6176

>  <LogS>
-2.5976

>  <MMFF94 Energy>
78.966

$$$$
Compound 6177
Actelion Java MolfileCreator 2.0

  0  0  0  0  0  0              0 V3000
M  V30 BEGIN CTAB
M  V30 COUNTS 18 18 0 0 0
M  V30 BEGIN ATOM
M  V30 1 O -2.3945 -2.2348 -0.319 0
M  V30 2 N -2.3323 -1.086 0.1658 0 CHG=1
M  V30 3 O -3.3206 -0.6766 1.031 0 CHG=-1
M  V30 4 C -1.1353 -0.3062 0.0183 0
M  V30 5 C -1.1831 1.1026 -0.0969 0
M  V30 6 C 0.1145 -0.9512 0.0202 0
M  V30 7 O -2.3885 1.7994 -0.1947 0
M  V30 8 C 0.0079 1.8349 -0.1466 0
M  V30 9 C 1.3035 -0.2127 -0.0668 0
M  V30 10 C 1.243 1.1853 -0.1255 0
M  V30 11 C 2.631 -0.9093 -0.0115 0
M  V30 12 H 0.162 -2.0295 0.1141 0
M  V30 13 H -3.2825 1.3414 -0.3103 0
M  V30 14 H -0.0249 2.9147 -0.2195 0
M  V30 15 H 2.152 1.7727 -0.1647 0
M  V30 16 H 3.4021 -0.3287 -0.5613 0
M  V30 17 H 2.5641 -1.916 -0.4762 0
M  V30 18 H 2.9466 -1.0189 1.0469 0
M  V30 END ATOM
M  V30 BEGIN BOND
M  V30 1 2 1 2
M  V30 2 1 2 3
M  V30 3 1 2 4
M  V30 4 2 4 5
M  V30 5 1 4 6
M  V30 6 1 5 7
M  V30 7 1 5 8
M  V30 8 2 6 9
M  V30 9 2 8 10
M  V30 10 1 9 11
M  V30 11 1 9 10
M  V30 12 1 6 12
M  V30 13 1 7 13
M  V30 14 1 8 14
M  V30 15 1 10 15
M  V30 16 1 11 16
M  V30 17 1 11 17
M  V30 18 1 11 18
M  V30 END BOND
M  V30 END CTAB
M  END
>  <Structure No>
6177

>  <LogS>
-2.3837

>  <MMFF94 Energy>
53.983

$$$$
Compound 6178
Actelion Java MolfileCreator 2.0

  0  0  0  0  0  0              0 V3000
M  V30 BEGIN CTAB
M  V30 COUNTS 15 15 0 0 0
M  V30 BEGIN ATOM
M  V30 1 O -3.4015 0.7112 0.316 0
M  V30 2 C -2.6373 -0.0959 -0.2768 0
M  V30 3 C -1.1746 -0.0242 -0.1067 0
M  V30 4 C -0.3521 -0.9393 -0.7824 0
M  V30 5 C -0.5858 0.9469 0.7224 0
M  V30 6 C 1.0369 -0.8853 -0.6321 0
M  V30 7 C 0.8037 0.9985 0.8707 0
M  V30 8 C 1.6183 0.0844 0.1953 0
M  V30 9 O 3.0009 0.1479 0.3527 0
M  V30 10 H -3.0711 -0.8511 -0.9197 0
M  V30 11 H -0.7849 -1.6956 -1.4261 0
M  V30 12 H -1.1974 1.6646 1.2549 0
M  V30 13 H 1.6598 -1.5969 -1.1587 0
M  V30 14 H 1.2479 1.7498 1.5113 0
M  V30 15 H 3.6181 -0.4998 -0.1228 0
M  V30 END ATOM
M  V30 BEGIN BOND
M  V30 1 2 1 2
M  V30 2 1 2 3
M  V30 3 2 3 4
M  V30 4 1 3 5
M  V30 5 1 4 6
M  V30 6 2 5 7
M  V30 7 2 6 8
M  V30 8 1 8 9
M  V30 9 1 7 8
M  V30 10 1 2 10
M  V30 11 1 4 11
M  V30 12 1 5 12
M  V30 13 1 6 13
M  V30 14 1 7 14
M  V30 15 1 9 15
M  V30 END BOND
M  V30 END CTAB
M  END
>  <Structure No>
6178

>  <LogS>
-0.9762

>  <MMFF94 Energy>
20.177

$$$$
Compound 6179
Actelion Java MolfileCreator 2.0

  0  0  0  0  0  0              0 V3000
M  V30 BEGIN CTAB
M  V30 COUNTS 16 16 0 0 0
M  V30 BEGIN ATOM
M  V30 1 O -3.3156 1.4081 0.414 0
M  V30 2 N -2.8087 0.3594 -0.0357 0 CHG=1
M  V30 3 O -3.6484 -0.6122 -0.5287 0 CHG=-1
M  V30 4 C -1.3758 0.1816 -0.0335 0
M  V30 5 C -0.7756 -0.9944 -0.536 0
M  V30 6 C -0.544 1.1952 0.4782 0
M  V30 7 O -1.5439 -2.0306 -1.0544 0 CHG=-1
M  V30 8 C 0.6163 -1.1386 -0.5209 0
M  V30 9 C 0.8442 1.045 0.4905 0
M  V30 10 C 1.44 -0.1239 -0.0091 0
M  V30 11 N 2.8708 -0.2822 0.0018 0 CHG=1
M  V30 12 O 3.6079 0.6174 0.456 0
M  V30 13 O 3.4513 -1.4294 -0.4886 0 CHG=-1
M  V30 14 H -0.9679 2.1104 0.8718 0
M  V30 15 H 1.0509 -2.0498 -0.912 0
M  V30 16 H 1.4522 1.8458 0.8919 0
M  V30 END ATOM
M  V30 BEGIN BOND
M  V30 1 2 1 2
M  V30 2 1 2 3
M  V30 3 1 2 4
M  V30 4 2 4 5
M  V30 5 1 4 6
M  V30 6 1 5 7
M  V30 7 1 5 8
M  V30 8 2 6 9
M  V30 9 2 8 10
M  V30 10 1 10 11
M  V30 11 2 11 12
M  V30 12 1 11 13
M  V30 13 1 9 10
M  V30 14 1 6 14
M  V30 15 1 8 15
M  V30 16 1 9 16
M  V30 END BOND
M  V30 END CTAB
M  END
>  <Structure No>
6179

>  <LogS>
-2.6796

>  <MMFF94 Energy>
100.97

$$$$
Compound 6180
Actelion Java MolfileCreator 2.0

  0  0  0  0  0  0              0 V3000
M  V30 BEGIN CTAB
M  V30 COUNTS 14 14 0 0 0
M  V30 BEGIN ATOM
M  V30 1 F -3.2203 -0.5774 0.0 0
M  V30 2 C -1.8867 -0.333 0.0035 0
M  V30 3 C -1.0003 -1.2874 -0.4978 0
M  V30 4 C -1.3994 0.8728 0.5084 0
M  V30 5 C 0.378 -1.0432 -0.4978 0
M  V30 6 C -0.0255 1.1276 0.5134 0
M  V30 7 O 1.2267 -2.0202 -1.0064 0 CHG=-1
M  V30 8 C 0.8843 0.1767 0.0119 0
M  V30 9 N 2.2984 0.4647 0.0286 0 CHG=1
M  V30 10 O 3.1312 -0.3559 -0.408 0
M  V30 11 O 2.7582 1.6607 0.5313 0 CHG=-1
M  V30 12 H -1.3835 -2.2218 -0.8885 0
M  V30 13 H -2.0867 1.6135 0.8975 0
M  V30 14 H 0.3243 2.0713 0.9111 0
M  V30 END ATOM
M  V30 BEGIN BOND
M  V30 1 1 1 2
M  V30 2 2 2 3
M  V30 3 1 2 4
M  V30 4 1 3 5
M  V30 5 2 4 6
M  V30 6 1 5 7
M  V30 7 2 5 8
M  V30 8 1 8 9
M  V30 9 2 9 10
M  V30 10 1 9 11
M  V30 11 1 6 8
M  V30 12 1 3 12
M  V30 13 1 4 13
M  V30 14 1 6 14
M  V30 END BOND
M  V30 END CTAB
M  END
>  <Structure No>
6180

>  <LogS>
-2.05

>  <MMFF94 Energy>
76.777

$$$$
Compound 6181
Actelion Java MolfileCreator 2.0

  0  0  0  0  0  0              0 V3000
M  V30 BEGIN CTAB
M  V30 COUNTS 19 19 0 0 0
M  V30 BEGIN ATOM
M  V30 1 O -0.9035 3.6177 -0.0821 0
M  V30 2 N 0.1463 2.9442 -0.1206 0 CHG=1
M  V30 3 O 1.3476 3.6107 -0.2043 0 CHG=-1
M  V30 4 C 0.1137 1.5008 -0.0792 0
M  V30 5 C -1.1041 0.7874 0.0068 0
M  V30 6 C 1.3206 0.7796 -0.125 0
M  V30 7 O -2.3204 1.4635 0.0544 0 CHG=-1
M  V30 8 C -1.1019 -0.6181 0.0452 0
M  V30 9 C 1.3322 -0.6248 -0.0871 0
M  V30 10 C 0.1139 -1.3141 -0.0017 0
M  V30 11 C -2.3993 -1.3729 0.1368 0
M  V30 12 N 2.5754 -1.3504 -0.1348 0 CHG=1
M  V30 13 O 3.6647 -0.7447 -0.2108 0
M  V30 14 O 2.5849 -2.726 -0.0975 0 CHG=-1
M  V30 15 H 2.2589 1.314 -0.1909 0
M  V30 16 H 0.109 -2.3963 0.0282 0
M  V30 17 H -2.936 -1.0828 1.0645 0
M  V30 18 H -2.2358 -2.4713 0.158 0
M  V30 19 H -3.0345 -1.1322 -0.7416 0
M  V30 END ATOM
M  V30 BEGIN BOND
M  V30 1 2 1 2
M  V30 2 1 2 3
M  V30 3 1 2 4
M  V30 4 2 4 5
M  V30 5 1 4 6
M  V30 6 1 5 7
M  V30 7 1 5 8
M  V30 8 2 6 9
M  V30 9 2 8 10
M  V30 10 1 8 11
M  V30 11 1 9 12
M  V30 12 2 12 13
M  V30 13 1 12 14
M  V30 14 1 9 10
M  V30 15 1 6 15
M  V30 16 1 10 16
M  V30 17 1 11 17
M  V30 18 1 11 18
M  V30 19 1 11 19
M  V30 END BOND
M  V30 END CTAB
M  END
>  <Structure No>
6181

>  <LogS>
-3.0003

>  <MMFF94 Energy>
84.661

$$$$
Compound 6182
Actelion Java MolfileCreator 2.0

  0  0  0  0  0  0              0 V3000
M  V30 BEGIN CTAB
M  V30 COUNTS 16 16 0 0 0
M  V30 BEGIN ATOM
M  V30 1 O 2.3214 -2.4874 -0.3313 0
M  V30 2 N 2.4021 -1.2627 -0.1043 0 CHG=1
M  V30 3 O 3.6511 -0.7091 0.0625 0 CHG=-1
M  V30 4 C 1.2229 -0.4306 -0.0468 0
M  V30 5 C -0.0821 -0.9819 -0.0871 0
M  V30 6 C 1.3687 0.963 0.0569 0
M  V30 7 O -0.2483 -2.3613 -0.164 0 CHG=-1
M  V30 8 C -1.2192 -0.1371 -0.0361 0
M  V30 9 C 0.2523 1.7936 0.1138 0
M  V30 10 N -2.5622 -0.6658 -0.0825 0 CHG=1
M  V30 11 C -1.0296 1.2514 0.0673 0
M  V30 12 O -2.776 -1.8745 -0.3089 0
M  V30 13 O -3.6431 0.1677 0.0943 0 CHG=-1
M  V30 14 H 2.3511 1.4156 0.0904 0
M  V30 15 H 0.3814 2.8656 0.192 0
M  V30 16 H -1.8766 1.9238 0.1088 0
M  V30 END ATOM
M  V30 BEGIN BOND
M  V30 1 2 1 2
M  V30 2 1 2 3
M  V30 3 1 2 4
M  V30 4 2 4 5
M  V30 5 1 4 6
M  V30 6 1 5 7
M  V30 7 1 5 8
M  V30 8 2 6 9
M  V30 9 1 8 10
M  V30 10 2 8 11
M  V30 11 2 10 12
M  V30 12 1 10 13
M  V30 13 1 9 11
M  V30 14 1 6 14
M  V30 15 1 9 15
M  V30 16 1 11 16
M  V30 END BOND
M  V30 END CTAB
M  END
>  <Structure No>
6182

>  <LogS>
-2.7668

>  <MMFF94 Energy>
132.33

$$$$
Compound 6183
Actelion Java MolfileCreator 2.0

  0  0  0  0  0  0              0 V3000
M  V30 BEGIN CTAB
M  V30 COUNTS 15 15 0 0 0
M  V30 BEGIN ATOM
M  V30 1 O -1.4655 -2.4434 -1.4655 0
M  V30 2 N -1.5039 -1.7009 -0.4626 0 CHG=1
M  V30 3 O -2.5465 -1.8444 0.4235 0 CHG=-1
M  V30 4 C -0.4742 -0.7174 -0.2347 0
M  V30 5 C -0.7491 0.4482 0.516 0
M  V30 6 C 0.827 -0.9019 -0.7557 0
M  V30 7 O -2.0267 0.6758 1.0265 0
M  V30 8 C 0.261 1.3953 0.7381 0
M  V30 9 O 1.1504 -2.0416 -1.4838 0 CHG=-1
M  V30 10 C 1.8201 0.0564 -0.5308 0
M  V30 11 C 1.5388 1.2001 0.2151 0
M  V30 12 H -2.2458 1.5076 1.5625 0
M  V30 13 H 0.0529 2.2893 1.3123 0
M  V30 14 H 2.8154 -0.0902 -0.9309 0
M  V30 15 H 2.3125 1.937 0.3882 0
M  V30 END ATOM
M  V30 BEGIN BOND
M  V30 1 2 1 2
M  V30 2 1 2 3
M  V30 3 1 2 4
M  V30 4 2 4 5
M  V30 5 1 4 6
M  V30 6 1 5 7
M  V30 7 1 5 8
M  V30 8 1 6 9
M  V30 9 2 6 10
M  V30 10 2 8 11
M  V30 11 1 10 11
M  V30 12 1 7 12
M  V30 13 1 8 13
M  V30 14 1 10 14
M  V30 15 1 11 15
M  V30 END BOND
M  V30 END CTAB
M  END
>  <Structure No>
6183

>  <LogS>
-2.0734

>  <MMFF94 Energy>
76.658

$$$$
Compound 6184
Actelion Java MolfileCreator 2.0

  0  0  0  0  0  0              0 V3000
M  V30 BEGIN CTAB
M  V30 COUNTS 24 25 0 0 0
M  V30 BEGIN ATOM
M  V30 1 O 3.0037 2.6786 1.0545 0
M  V30 2 N 3.4807 1.5963 0.6542 0 CHG=1
M  V30 3 O 4.8487 1.4777 0.5691 0 CHG=-1
M  V30 4 C 2.6094 0.5079 0.278 0
M  V30 5 C 3.1243 -0.7536 -0.0944 0
M  V30 6 C 1.2121 0.6953 0.2765 0
M  V30 7 O 4.4923 -1.0012 -0.1027 0 CHG=-1
M  V30 8 C 2.2569 -1.7864 -0.4601 0
M  V30 9 C 0.3385 -0.3443 -0.0899 0
M  V30 10 C 0.8767 -1.5866 -0.4595 0
M  V30 11 C -1.1317 -0.1316 -0.0869 0
M  V30 12 C -1.7485 0.5914 0.952 0
M  V30 13 C -1.9321 -0.6507 -1.1224 0
M  V30 14 C -3.1327 0.7893 0.9525 0
M  V30 15 C -3.3157 -0.4489 -1.1172 0
M  V30 16 C -3.9155 0.2701 -0.0808 0
M  V30 17 H 0.8021 1.6618 0.5412 0
M  V30 18 H 2.6561 -2.7526 -0.7417 0
M  V30 19 H 0.2289 -2.4109 -0.7306 0
M  V30 20 H -1.1633 0.9881 1.7722 0
M  V30 21 H -1.4863 -1.1969 -1.9442 0
M  V30 22 H -3.5992 1.343 1.7572 0
M  V30 23 H -3.9231 -0.8477 -1.9194 0
M  V30 24 H -4.9869 0.4249 -0.0786 0
M  V30 END ATOM
M  V30 BEGIN BOND
M  V30 1 2 1 2
M  V30 2 1 2 3
M  V30 3 1 2 4
M  V30 4 2 4 5
M  V30 5 1 4 6
M  V30 6 1 5 7
M  V30 7 1 5 8
M  V30 8 2 6 9
M  V30 9 2 8 10
M  V30 10 1 9 11
M  V30 11 2 11 12
M  V30 12 1 11 13
M  V30 13 1 12 14
M  V30 14 2 13 15
M  V30 15 2 14 16
M  V30 16 1 9 10
M  V30 17 1 15 16
M  V30 18 1 6 17
M  V30 19 1 8 18
M  V30 20 1 10 19
M  V30 21 1 12 20
M  V30 22 1 13 21
M  V30 23 1 14 22
M  V30 24 1 15 23
M  V30 25 1 16 24
M  V30 END BOND
M  V30 END CTAB
M  END
>  <Structure No>
6184

>  <LogS>
-4.4101

>  <MMFF94 Energy>
86.147

$$$$
Compound 6185
Actelion Java MolfileCreator 2.0

  0  0  0  0  0  0              0 V3000
M  V30 BEGIN CTAB
M  V30 COUNTS 27 27 0 0 0
M  V30 BEGIN ATOM
M  V30 1 O 3.2578 1.5881 -2.2239 0
M  V30 2 N 3.3787 0.5205 -1.5876 0 CHG=1
M  V30 3 O 4.5161 -0.2287 -1.7803 0 CHG=-1
M  V30 4 C 2.3327 0.0792 -0.6951 0
M  V30 5 C 2.502 -1.0493 0.1374 0
M  V30 6 C 1.1114 0.7807 -0.6466 0
M  V30 7 O 3.6983 -1.7655 0.1353 0
M  V30 8 C 1.4609 -1.4581 0.9801 0
M  V30 9 C 0.0725 0.3833 0.2132 0
M  V30 10 C 0.2571 -0.7557 1.0153 0
M  V30 11 C -1.2392 1.1558 0.2019 0 CFG=1
M  V30 12 C -2.2414 0.5918 -0.8309 0
M  V30 13 C -1.8586 1.3254 1.5997 0
M  V30 14 C -2.6555 -0.8629 -0.5945 0
M  V30 15 H 0.9623 1.6407 -1.2877 0
M  V30 16 H 3.8355 -2.5765 0.7273 0
M  V30 17 H 1.5837 -2.3291 1.6114 0
M  V30 18 H -0.529 -1.115 1.6642 0
M  V30 19 H -1.0112 2.1935 -0.1319 0
M  V30 20 H -1.7917 0.6667 -1.8451 0
M  V30 21 H -3.1557 1.2246 -0.8343 0
M  V30 22 H -2.7221 2.0222 1.5475 0
M  V30 23 H -1.1086 1.7585 2.2955 0
M  V30 24 H -2.2178 0.3651 2.0198 0
M  V30 25 H -1.7822 -1.5409 -0.6839 0
M  V30 26 H -3.3968 -1.16 -1.3657 0
M  V30 27 H -3.128 -0.9887 0.4004 0
M  V30 END ATOM
M  V30 BEGIN BOND
M  V30 1 2 1 2
M  V30 2 1 2 3
M  V30 3 1 2 4
M  V30 4 2 4 5
M  V30 5 1 4 6
M  V30 6 1 5 7
M  V30 7 1 5 8
M  V30 8 2 6 9
M  V30 9 2 8 10
M  V30 10 1 9 11
M  V30 11 1 11 12
M  V30 12 1 11 13
M  V30 13 1 12 14
M  V30 14 1 9 10
M  V30 15 1 6 15
M  V30 16 1 7 16
M  V30 17 1 8 17
M  V30 18 1 10 18
M  V30 19 1 11 19
M  V30 20 1 12 20
M  V30 21 1 12 21
M  V30 22 1 13 22
M  V30 23 1 13 23
M  V30 24 1 13 24
M  V30 25 1 14 25
M  V30 26 1 14 26
M  V30 27 1 14 27
M  V30 END BOND
M  V30 BEGIN COLLECTION
M  V30 MDLV30/STEABS ATOMS=(1 11)
M  V30 END COLLECTION
M  V30 END CTAB
M  END
>  <Structure No>
6185

>  <LogS>
-3.8403

>  <MMFF94 Energy>
58.188

$$$$
Compound 6186
Actelion Java MolfileCreator 2.0

  0  0  0  0  0  0              0 V3000
M  V30 BEGIN CTAB
M  V30 COUNTS 17 17 0 0 0
M  V30 BEGIN ATOM
M  V30 1 O -3.2786 -1.3584 -0.0798 0
M  V30 2 C -2.6678 -0.2939 0.2045 0
M  V30 3 O -3.3737 0.7539 0.783 0 CHG=-1
M  V30 4 C -1.2072 -0.1962 -0.0093 0
M  V30 5 C -0.569 1.0218 -0.3525 0
M  V30 6 C -0.4212 -1.3488 0.1703 0
M  V30 7 O -1.2814 2.1872 -0.6437 0
M  V30 8 C 0.8275 1.0719 -0.4438 0
M  V30 9 C 0.9689 -1.2897 0.0552 0
M  V30 10 C 1.6004 -0.0778 -0.2422 0
M  V30 11 N 3.0252 -0.016 -0.3501 0
M  V30 12 H -0.8824 -2.2947 0.428 0
M  V30 13 H -2.2833 2.2086 -0.7746 0
M  V30 14 H 1.3107 2.0081 -0.6958 0
M  V30 15 H 1.5547 -2.1873 0.2091 0
M  V30 16 H 3.5059 0.8834 -0.5749 0
M  V30 17 H 3.6099 -0.8692 -0.205 0
M  V30 END ATOM
M  V30 BEGIN BOND
M  V30 1 2 1 2
M  V30 2 1 2 3
M  V30 3 1 2 4
M  V30 4 2 4 5
M  V30 5 1 4 6
M  V30 6 1 5 7
M  V30 7 1 5 8
M  V30 8 2 6 9
M  V30 9 2 8 10
M  V30 10 1 10 11
M  V30 11 1 9 10
M  V30 12 1 6 12
M  V30 13 1 7 13
M  V30 14 1 8 14
M  V30 15 1 9 15
M  V30 16 1 11 16
M  V30 17 1 11 17
M  V30 END BOND
M  V30 END CTAB
M  END
>  <Structure No>
6186

>  <LogS>
-1.9572

>  <MMFF94 Energy>
6.9623

$$$$
Compound 6187
Actelion Java MolfileCreator 2.0

  0  0  0  0  0  0              0 V3000
M  V30 BEGIN CTAB
M  V30 COUNTS 16 16 0 0 0
M  V30 BEGIN ATOM
M  V30 1 O -2.0726 -2.3918 -1.0359 0
M  V30 2 C -2.2662 -1.2267 -0.5972 0
M  V30 3 O -3.5702 -0.7586 -0.4815 0 CHG=-1
M  V30 4 C -1.1245 -0.3684 -0.2106 0
M  V30 5 C 0.1976 -0.8373 -0.3256 0
M  V30 6 C -1.3479 0.9307 0.2781 0
M  V30 7 C 1.2781 -0.0212 0.0416 0
M  V30 8 C -0.2715 1.7434 0.6439 0
M  V30 9 N 2.6186 -0.505 -0.0782 0
M  V30 10 C 1.0371 1.2707 0.5268 0
M  V30 11 H 0.3925 -1.8349 -0.6998 0
M  V30 12 H -2.3532 1.3201 0.3782 0
M  V30 13 H -0.4526 2.7425 1.0194 0
M  V30 14 H 2.8101 -1.4663 -0.4386 0
M  V30 15 H 3.4296 0.0947 0.1925 0
M  V30 16 H 1.8624 1.9103 0.8135 0
M  V30 END ATOM
M  V30 BEGIN BOND
M  V30 1 2 1 2
M  V30 2 1 2 3
M  V30 3 1 2 4
M  V30 4 2 4 5
M  V30 5 1 4 6
M  V30 6 1 5 7
M  V30 7 2 6 8
M  V30 8 1 7 9
M  V30 9 2 7 10
M  V30 10 1 8 10
M  V30 11 1 5 11
M  V30 12 1 6 12
M  V30 13 1 8 13
M  V30 14 1 9 14
M  V30 15 1 9 15
M  V30 16 1 10 16
M  V30 END BOND
M  V30 END CTAB
M  END
>  <Structure No>
6187

>  <LogS>
-1.3663

>  <MMFF94 Energy>
25.18

$$$$
Compound 6188
Actelion Java MolfileCreator 2.0

  0  0  0  0  0  0              0 V3000
M  V30 BEGIN CTAB
M  V30 COUNTS 16 16 0 0 0
M  V30 BEGIN ATOM
M  V30 1 O 3.466 -0.9663 0.161 0
M  V30 2 C 2.6723 -0.0266 0.4333 0
M  V30 3 O 3.1742 1.1313 1.0163 0 CHG=-1
M  V30 4 C 1.2277 -0.152 0.1376 0
M  V30 5 C 0.3462 0.8996 0.4436 0
M  V30 6 C 0.7158 -1.3211 -0.4518 0
M  V30 7 C -1.0241 0.7864 0.1656 0
M  V30 8 C -0.6488 -1.4346 -0.7289 0
M  V30 9 O -1.89 1.835 0.4728 0
M  V30 10 C -1.5225 -0.3871 -0.4235 0
M  V30 11 O -2.8795 -0.5298 -0.712 0
M  V30 12 H 0.7177 1.8097 0.898 0
M  V30 13 H 1.3693 -2.1484 -0.699 0
M  V30 14 H -1.0293 -2.3408 -1.1831 0
M  V30 15 H -1.5565 2.6922 0.8981 0
M  V30 16 H -3.5522 0.2 -0.5098 0
M  V30 END ATOM
M  V30 BEGIN BOND
M  V30 1 2 1 2
M  V30 2 1 2 3
M  V30 3 1 2 4
M  V30 4 2 4 5
M  V30 5 1 4 6
M  V30 6 1 5 7
M  V30 7 2 6 8
M  V30 8 1 7 9
M  V30 9 2 7 10
M  V30 10 1 10 11
M  V30 11 1 8 10
M  V30 12 1 5 12
M  V30 13 1 6 13
M  V30 14 1 8 14
M  V30 15 1 9 15
M  V30 16 1 11 16
M  V30 END BOND
M  V30 END CTAB
M  END
>  <Structure No>
6188

>  <LogS>
-0.9278

>  <MMFF94 Energy>
21.752

$$$$
Compound 6189
Actelion Java MolfileCreator 2.0

  0  0  0  0  0  0              0 V3000
M  V30 BEGIN CTAB
M  V30 COUNTS 19 19 0 0 0
M  V30 BEGIN ATOM
M  V30 1 O 3.6914 -1.1223 -0.8817 0
M  V30 2 C 2.4686 -1.4167 -0.8082 0
M  V30 3 O 2.0589 -2.6901 -1.1866 0 CHG=-1
M  V30 4 C 1.4827 -0.423 -0.3267 0
M  V30 5 C 0.1188 -0.7561 -0.2464 0
M  V30 6 C 1.8949 0.8645 0.0561 0
M  V30 7 C -0.8255 0.1849 0.2111 0
M  V30 8 C 0.9626 1.7994 0.5098 0
M  V30 9 O -2.1945 -0.1124 0.3044 0
M  V30 10 C -0.3943 1.464 0.5884 0
M  V30 11 C -2.7735 -1.3661 -0.0429 0
M  V30 12 O -1.3237 2.3988 1.0416 0
M  V30 13 H -0.2038 -1.7456 -0.5398 0
M  V30 14 H 2.9381 1.1503 0.0053 0
M  V30 15 H 1.2967 2.7873 0.801 0
M  V30 16 H -3.8683 -1.3195 0.1291 0
M  V30 17 H -2.3481 -2.1721 0.5913 0
M  V30 18 H -2.5917 -1.5864 -1.116 0
M  V30 19 H -1.0445 3.3318 1.3218 0
M  V30 END ATOM
M  V30 BEGIN BOND
M  V30 1 2 1 2
M  V30 2 1 2 3
M  V30 3 1 2 4
M  V30 4 2 4 5
M  V30 5 1 4 6
M  V30 6 1 5 7
M  V30 7 2 6 8
M  V30 8 1 7 9
M  V30 9 2 7 10
M  V30 10 1 9 11
M  V30 11 1 10 12
M  V30 12 1 8 10
M  V30 13 1 5 13
M  V30 14 1 6 14
M  V30 15 1 8 15
M  V30 16 1 11 16
M  V30 17 1 11 17
M  V30 18 1 11 18
M  V30 19 1 12 19
M  V30 END BOND
M  V30 END CTAB
M  END
>  <Structure No>
6189

>  <LogS>
-2.0496

>  <MMFF94 Energy>
32.983

$$$$
Compound 6190
Actelion Java MolfileCreator 2.0

  0  0  0  0  0  0              0 V3000
M  V30 BEGIN CTAB
M  V30 COUNTS 16 16 0 0 0
M  V30 BEGIN ATOM
M  V30 1 Cl 0.3402 -2.4688 -1.1062 0
M  V30 2 C 0.1324 -0.8877 -0.3428 0
M  V30 3 C -1.1598 -0.4812 0.0655 0
M  V30 4 C 1.2303 -0.001 -0.189 0
M  V30 5 N -2.2952 -1.3482 -0.0659 0
M  V30 6 C -1.3472 0.7972 0.6068 0
M  V30 7 C 2.6172 -0.3716 -0.5692 0
M  V30 8 C 1.0041 1.2801 0.346 0
M  V30 9 C -0.2734 1.6742 0.7419 0
M  V30 10 O 3.4531 0.5245 -0.8619 0
M  V30 11 O 3.0345 -1.6967 -0.5674 0 CHG=-1
M  V30 12 Cl -0.5281 3.2736 1.4171 0
M  V30 13 H -2.2176 -2.3181 -0.4408 0
M  V30 14 H -3.2441 -1.0257 0.2283 0
M  V30 15 H -2.3347 1.1135 0.9201 0
M  V30 16 H 1.8258 1.9747 0.4727 0
M  V30 END ATOM
M  V30 BEGIN BOND
M  V30 1 1 1 2
M  V30 2 2 2 3
M  V30 3 1 2 4
M  V30 4 1 3 5
M  V30 5 1 3 6
M  V30 6 1 4 7
M  V30 7 2 4 8
M  V30 8 2 6 9
M  V30 9 2 7 10
M  V30 10 1 7 11
M  V30 11 1 9 12
M  V30 12 1 8 9
M  V30 13 1 5 13
M  V30 14 1 5 14
M  V30 15 1 6 15
M  V30 16 1 8 16
M  V30 END BOND
M  V30 END CTAB
M  END
>  <Structure No>
6190

>  <LogS>
-2.4688

>  <MMFF94 Energy>
32.938

$$$$
Compound 6191
Actelion Java MolfileCreator 2.0

  0  0  0  0  0  0              0 V3000
M  V30 BEGIN CTAB
M  V30 COUNTS 16 16 0 0 0
M  V30 BEGIN ATOM
M  V30 1 O 3.4296 -0.478 -1.1953 0
M  V30 2 C 2.8388 -0.1165 -0.1428 0
M  V30 3 O 3.5967 0.235 0.9683 0 CHG=-1
M  V30 4 C 1.3611 -0.0664 -0.0885 0
M  V30 5 C 0.707 0.3377 1.0885 0
M  V30 6 C 0.5893 -0.4211 -1.2099 0
M  V30 7 C -0.6893 0.3859 1.1426 0
M  V30 8 C -0.8069 -0.3719 -1.1532 0
M  V30 9 C -1.4527 0.0316 0.0226 0
M  V30 10 N -2.8808 0.0814 0.0793 0
M  V30 11 H 1.2728 0.6168 1.9685 0
M  V30 12 H 1.0634 -0.7364 -2.1308 0
M  V30 13 H -1.1761 0.6995 2.0576 0
M  V30 14 H -1.3852 -0.6484 -2.0259 0
M  V30 15 H -3.4584 -0.1808 -0.7504 0
M  V30 16 H -3.3712 0.381 0.9517 0
M  V30 END ATOM
M  V30 BEGIN BOND
M  V30 1 2 1 2
M  V30 2 1 2 3
M  V30 3 1 2 4
M  V30 4 2 4 5
M  V30 5 1 4 6
M  V30 6 1 5 7
M  V30 7 2 6 8
M  V30 8 2 7 9
M  V30 9 1 9 10
M  V30 10 1 8 9
M  V30 11 1 5 11
M  V30 12 1 6 12
M  V30 13 1 7 13
M  V30 14 1 8 14
M  V30 15 1 10 15
M  V30 16 1 10 16
M  V30 END BOND
M  V30 END CTAB
M  END
>  <Structure No>
6191

>  <LogS>
-1.3511

>  <MMFF94 Energy>
29.336

$$$$
Compound 6192
Actelion Java MolfileCreator 2.0

  0  0  0  0  0  0              0 V3000
M  V30 BEGIN CTAB
M  V30 COUNTS 16 16 0 0 0
M  V30 BEGIN ATOM
M  V30 1 O 2.9038 1.0478 -0.6447 0
M  V30 2 C 1.8945 1.3524 0.0444 0
M  V30 3 O 1.946 2.5039 0.8213 0 CHG=-1
M  V30 4 C 0.6754 0.4977 0.0281 0
M  V30 5 C -0.5633 1.0029 0.4922 0
M  V30 6 C 0.7317 -0.8345 -0.4505 0
M  V30 7 O -0.6693 2.3143 0.9565 0
M  V30 8 C -1.7051 0.1894 0.4775 0
M  V30 9 O 1.9339 -1.3784 -0.904 0
M  V30 10 C -0.4243 -1.6276 -0.4616 0
M  V30 11 C -1.6352 -1.118 0.0016 0
M  V30 12 H -1.5487 2.6935 1.2885 0
M  V30 13 H -2.6529 0.5746 0.8319 0
M  V30 14 H 1.9933 -2.3305 -1.2461 0
M  V30 15 H -0.3826 -2.646 -0.8267 0
M  V30 16 H -2.5224 -1.738 -0.0082 0
M  V30 END ATOM
M  V30 BEGIN BOND
M  V30 1 2 1 2
M  V30 2 1 2 3
M  V30 3 1 2 4
M  V30 4 2 4 5
M  V30 5 1 4 6
M  V30 6 1 5 7
M  V30 7 1 5 8
M  V30 8 1 6 9
M  V30 9 2 6 10
M  V30 10 2 8 11
M  V30 11 1 10 11
M  V30 12 1 7 12
M  V30 13 1 8 13
M  V30 14 1 9 14
M  V30 15 1 10 15
M  V30 16 1 11 16
M  V30 END BOND
M  V30 END CTAB
M  END
>  <Structure No>
6192

>  <LogS>
-1.2074

>  <MMFF94 Energy>
-10.367

$$$$
Compound 6193
Actelion Java MolfileCreator 2.0

  0  0  0  0  0  0              0 V3000
M  V30 BEGIN CTAB
M  V30 COUNTS 28 28 0 0 0
M  V30 BEGIN ATOM
M  V30 1 O -0.0788 1.8138 1.2615 0
M  V30 2 C -0.4696 0.8452 0.553 0
M  V30 3 O 0.4465 -0.1188 0.1191 0
M  V30 4 C -1.8962 0.7258 0.1793 0
M  V30 5 C 1.8323 -0.0649 0.4416 0
M  V30 6 C -2.8338 1.6849 0.6055 0
M  V30 7 C -2.3351 -0.3523 -0.61 0
M  V30 8 C 2.5444 -1.2652 -0.1845 0
M  V30 9 C -4.1806 1.5659 0.2486 0
M  V30 10 C -3.6828 -0.4677 -0.9649 0
M  V30 11 C 4.021 -1.3604 0.2284 0
M  V30 12 C -4.6083 0.4887 -0.5377 0
M  V30 13 C 4.8809 -0.2622 -0.3964 0
M  V30 14 O -5.9475 0.3602 -0.8992 0
M  V30 15 H 1.9544 -0.0895 1.5468 0
M  V30 16 H 2.2609 0.8805 0.0462 0
M  V30 17 H -2.5278 2.5266 1.2142 0
M  V30 18 H -1.639 -1.1068 -0.9539 0
M  V30 19 H 2.4613 -1.2137 -1.2921 0
M  V30 20 H 2.0294 -2.1926 0.1485 0
M  V30 21 H -4.8905 2.3114 0.5838 0
M  V30 22 H -4.0083 -1.3022 -1.5728 0
M  V30 23 H 4.4157 -2.3443 -0.1057 0
M  V30 24 H 4.1123 -1.3207 1.3357 0
M  V30 25 H 4.6045 0.7325 0.0099 0
M  V30 26 H 5.9488 -0.4488 -0.1562 0
M  V30 27 H 4.7631 -0.2574 -1.5009 0
M  V30 28 H -6.6426 1.0369 -0.6055 0
M  V30 END ATOM
M  V30 BEGIN BOND
M  V30 1 2 1 2
M  V30 2 1 2 3
M  V30 3 1 2 4
M  V30 4 1 3 5
M  V30 5 2 4 6
M  V30 6 1 4 7
M  V30 7 1 5 8
M  V30 8 1 6 9
M  V30 9 2 7 10
M  V30 10 1 8 11
M  V30 11 2 9 12
M  V30 12 1 11 13
M  V30 13 1 12 14
M  V30 14 1 10 12
M  V30 15 1 5 15
M  V30 16 1 5 16
M  V30 17 1 6 17
M  V30 18 1 7 18
M  V30 19 1 8 19
M  V30 20 1 8 20
M  V30 21 1 9 21
M  V30 22 1 10 22
M  V30 23 1 11 23
M  V30 24 1 11 24
M  V30 25 1 13 25
M  V30 26 1 13 26
M  V30 27 1 13 27
M  V30 28 1 14 28
M  V30 END BOND
M  V30 END CTAB
M  END
>  <Structure No>
6193

>  <LogS>
-2.9723

>  <MMFF94 Energy>
15.823

$$$$
Compound 6194
Actelion Java MolfileCreator 2.0

  0  0  0  0  0  0              0 V3000
M  V30 BEGIN CTAB
M  V30 COUNTS 19 19 0 0 0
M  V30 BEGIN ATOM
M  V30 1 O 1.662 -1.662 -0.2373 0
M  V30 2 C 1.1697 -0.5032 -0.1462 0
M  V30 3 O 2.0024 0.6187 -0.2062 0
M  V30 4 C -0.2958 -0.3365 -0.0399 0
M  V30 5 C 3.4165 0.52 -0.3239 0
M  V30 6 C -0.8882 0.7114 0.7094 0
M  V30 7 C -1.1294 -1.2297 -0.7386 0
M  V30 8 O -0.1405 1.5801 1.5073 0
M  V30 9 C -2.2792 0.8761 0.6905 0
M  V30 10 C -2.5162 -1.0644 -0.7298 0
M  V30 11 C -3.0897 -0.0069 -0.0245 0
M  V30 12 H 3.8328 -0.0289 0.5472 0
M  V30 13 H 3.6839 -0.0078 -1.2637 0
M  V30 14 H 3.8521 1.5399 -0.3477 0
M  V30 15 H -0.7049 -2.0425 -1.3155 0
M  V30 16 H 0.8368 1.4364 1.7209 0
M  V30 17 H -2.7356 1.6809 1.2532 0
M  V30 18 H -3.1463 -1.7512 -1.2801 0
M  V30 19 H -4.1644 0.1232 -0.0239 0
M  V30 END ATOM
M  V30 BEGIN BOND
M  V30 1 2 1 2
M  V30 2 1 2 3
M  V30 3 1 2 4
M  V30 4 1 3 5
M  V30 5 2 4 6
M  V30 6 1 4 7
M  V30 7 1 6 8
M  V30 8 1 6 9
M  V30 9 2 7 10
M  V30 10 2 9 11
M  V30 11 1 10 11
M  V30 12 1 5 12
M  V30 13 1 5 13
M  V30 14 1 5 14
M  V30 15 1 7 15
M  V30 16 1 8 16
M  V30 17 1 9 17
M  V30 18 1 10 18
M  V30 19 1 11 19
M  V30 END BOND
M  V30 END CTAB
M  END
>  <Structure No>
6194

>  <LogS>
-1.313

>  <MMFF94 Energy>
25.993

$$$$
Compound 6195
Actelion Java MolfileCreator 2.0

  0  0  0  0  0  0              0 V3000
M  V30 BEGIN CTAB
M  V30 COUNTS 28 29 0 0 0
M  V30 BEGIN ATOM
M  V30 1 O 0.8765 1.8335 0.3186 0
M  V30 2 C 0.2792 0.7667 0.0058 0
M  V30 3 O 1.0085 -0.3261 -0.4833 0
M  V30 4 C -1.2028 0.6979 0.0997 0
M  V30 5 C 2.3932 -0.5065 -0.3499 0
M  V30 6 C -1.915 -0.4807 -0.2235 0
M  V30 7 C -1.9251 1.8305 0.5246 0
M  V30 8 C 3.0644 -1.2597 -1.3219 0
M  V30 9 C 3.1178 0.005 0.7444 0
M  V30 10 O -1.2433 -1.6292 -0.6421 0
M  V30 11 C -3.3146 -0.5042 -0.1222 0
M  V30 12 C -3.3178 1.7954 0.6222 0
M  V30 13 C 4.4426 -1.475 -1.2249 0
M  V30 14 C 4.4962 -0.2129 0.839 0
M  V30 15 C -4.0188 0.6295 0.2993 0
M  V30 16 C 5.1589 -0.9483 -0.1469 0
M  V30 17 N -5.4452 0.5957 0.3998 0
M  V30 18 H -1.4139 2.7498 0.782 0
M  V30 19 H 2.516 -1.6727 -2.1592 0
M  V30 20 H 2.6203 0.544 1.539 0
M  V30 21 H -1.7386 -2.4816 -0.8766 0
M  V30 22 H -3.8552 -1.409 -0.3714 0
M  V30 23 H -3.8509 2.6792 0.9504 0
M  V30 24 H 4.9547 -2.0514 -1.9845 0
M  V30 25 H 5.0492 0.181 1.6821 0
M  V30 26 H 6.2253 -1.1172 -0.0713 0
M  V30 27 H -5.978 -0.2702 0.1611 0
M  V30 28 H -5.9793 1.4368 0.7137 0
M  V30 END ATOM
M  V30 BEGIN BOND
M  V30 1 2 1 2
M  V30 2 1 2 3
M  V30 3 1 2 4
M  V30 4 1 3 5
M  V30 5 2 4 6
M  V30 6 1 4 7
M  V30 7 2 5 8
M  V30 8 1 5 9
M  V30 9 1 6 10
M  V30 10 1 6 11
M  V30 11 2 7 12
M  V30 12 1 8 13
M  V30 13 2 9 14
M  V30 14 2 11 15
M  V30 15 2 13 16
M  V30 16 1 15 17
M  V30 17 1 12 15
M  V30 18 1 14 16
M  V30 19 1 7 18
M  V30 20 1 8 19
M  V30 21 1 9 20
M  V30 22 1 10 21
M  V30 23 1 11 22
M  V30 24 1 12 23
M  V30 25 1 13 24
M  V30 26 1 14 25
M  V30 27 1 16 26
M  V30 28 1 17 27
M  V30 29 1 17 28
M  V30 END BOND
M  V30 END CTAB
M  END
>  <Structure No>
6195

>  <LogS>
-4.5152

>  <MMFF94 Energy>
51.774

$$$$
Compound 6196
Actelion Java MolfileCreator 2.0

  0  0  0  0  0  0              0 V3000
M  V30 BEGIN CTAB
M  V30 COUNTS 20 20 0 0 0
M  V30 BEGIN ATOM
M  V30 1 O 2.2816 1.5731 0.3931 0
M  V30 2 C 1.7471 0.4971 0.0058 0
M  V30 3 O 2.5407 -0.5289 -0.5183 0
M  V30 4 C 0.2815 0.3183 0.105 0
M  V30 5 C 3.9536 -0.4206 -0.6408 0
M  V30 6 C -0.533 1.3386 0.6293 0
M  V30 7 C -0.3181 -0.8783 -0.3251 0
M  V30 8 C -1.9172 1.1638 0.7205 0
M  V30 9 C -1.7026 -1.0504 -0.2326 0
M  V30 10 C -2.5084 -0.0309 0.2902 0
M  V30 11 N -3.9243 -0.2083 0.384 0
M  V30 12 H 4.4113 -0.2682 0.3595 0
M  V30 13 H 4.354 -1.3568 -1.0805 0
M  V30 14 H 4.2135 0.4296 -1.3062 0
M  V30 15 H -0.1017 2.272 0.9691 0
M  V30 16 H 0.2807 -1.6825 -0.7331 0
M  V30 17 H -2.5287 1.9598 1.1266 0
M  V30 18 H -2.1471 -1.9788 -0.5688 0
M  V30 19 H -4.3741 -1.0955 0.0658 0
M  V30 20 H -4.5332 0.546 0.7725 0
M  V30 END ATOM
M  V30 BEGIN BOND
M  V30 1 2 1 2
M  V30 2 1 2 3
M  V30 3 1 2 4
M  V30 4 1 3 5
M  V30 5 2 4 6
M  V30 6 1 4 7
M  V30 7 1 6 8
M  V30 8 2 7 9
M  V30 9 2 8 10
M  V30 10 1 10 11
M  V30 11 1 9 10
M  V30 12 1 5 12
M  V30 13 1 5 13
M  V30 14 1 5 14
M  V30 15 1 6 15
M  V30 16 1 7 16
M  V30 17 1 8 17
M  V30 18 1 9 18
M  V30 19 1 11 19
M  V30 20 1 11 20
M  V30 END BOND
M  V30 END CTAB
M  END
>  <Structure No>
6196

>  <LogS>
-1.5974

>  <MMFF94 Energy>
20.522

$$$$
Compound 6197
Actelion Java MolfileCreator 2.0

  0  0  0  0  0  0              0 V3000
M  V30 BEGIN CTAB
M  V30 COUNTS 32 32 0 0 0
M  V30 BEGIN ATOM
M  V30 1 O 0.5494 1.7277 0.5494 0
M  V30 2 C 0.9535 0.533 0.5991 0
M  V30 3 O 0.0967 -0.4804 1.0479 0
M  V30 4 C 2.3359 0.1999 0.1905 0
M  V30 5 C -1.2661 -0.2585 1.4056 0
M  V30 6 C 3.2146 1.2037 -0.2565 0
M  V30 7 C 2.7904 -1.1295 0.2424 0
M  V30 8 C -2.1298 -0.0956 0.1516 0
M  V30 9 C 4.5196 0.8826 -0.6423 0
M  V30 10 C 4.0959 -1.4479 -0.1439 0
M  V30 11 C -3.6061 0.0933 0.519 0
M  V30 12 C 4.9663 -0.4439 -0.5879 0
M  V30 13 C -4.4687 0.2569 -0.7375 0
M  V30 14 N 6.3012 -0.771 -0.9829 0
M  V30 15 C -5.9393 0.4452 -0.3763 0
M  V30 16 H -1.3491 0.6371 2.06 0
M  V30 17 H -1.6216 -1.1394 1.9817 0
M  V30 18 H 2.8947 2.237 -0.3084 0
M  V30 19 H 2.1385 -1.925 0.5811 0
M  V30 20 H -2.0171 -1.0009 -0.4842 0
M  V30 21 H -1.7789 0.7857 -0.4273 0
M  V30 22 H 5.1823 1.668 -0.9837 0
M  V30 23 H 4.4286 -2.4772 -0.0974 0
M  V30 24 H -3.9587 -0.7911 1.0944 0
M  V30 25 H -3.7128 0.9972 1.159 0
M  V30 26 H -4.1246 1.1422 -1.3159 0
M  V30 27 H -4.369 -0.6444 -1.3807 0
M  V30 28 H 6.9572 -0.0295 -1.3152 0
M  V30 29 H 6.6431 -1.7573 -0.9457 0
M  V30 30 H -6.5381 0.5609 -1.3041 0
M  V30 31 H -6.3158 -0.4386 0.1815 0
M  V30 32 H -6.0703 1.3556 0.2467 0
M  V30 END ATOM
M  V30 BEGIN BOND
M  V30 1 2 1 2
M  V30 2 1 2 3
M  V30 3 1 2 4
M  V30 4 1 3 5
M  V30 5 2 4 6
M  V30 6 1 4 7
M  V30 7 1 5 8
M  V30 8 1 6 9
M  V30 9 2 7 10
M  V30 10 1 8 11
M  V30 11 2 9 12
M  V30 12 1 11 13
M  V30 13 1 12 14
M  V30 14 1 13 15
M  V30 15 1 10 12
M  V30 16 1 5 16
M  V30 17 1 5 17
M  V30 18 1 6 18
M  V30 19 1 7 19
M  V30 20 1 8 20
M  V30 21 1 8 21
M  V30 22 1 9 22
M  V30 23 1 10 23
M  V30 24 1 11 24
M  V30 25 1 11 25
M  V30 26 1 13 26
M  V30 27 1 13 27
M  V30 28 1 14 28
M  V30 29 1 14 29
M  V30 30 1 15 30
M  V30 31 1 15 31
M  V30 32 1 15 32
M  V30 END BOND
M  V30 END CTAB
M  END
>  <Structure No>
6197

>  <LogS>
-3.3499

>  <MMFF94 Energy>
17.402

$$$$
Compound 6198
Actelion Java MolfileCreator 2.0

  0  0  0  0  0  0              0 V3000
M  V30 BEGIN CTAB
M  V30 COUNTS 38 38 0 0 0
M  V30 BEGIN ATOM
M  V30 1 O -1.5703 -1.099 2.199 0
M  V30 2 C -1.7931 -0.2063 1.335 0
M  V30 3 O -0.756 0.6337 0.9091 0
M  V30 4 C -3.1518 -0.0393 0.7739 0
M  V30 5 C 0.5935 0.5062 1.3527 0
M  V30 6 C -4.2093 -0.8672 1.1934 0
M  V30 7 C -3.4043 0.9517 -0.1908 0
M  V30 8 C 1.2828 -0.6638 0.6402 0
M  V30 9 C -5.4911 -0.7052 0.6586 0
M  V30 10 C -4.687 1.1114 -0.724 0
M  V30 11 C 2.6967 -0.9436 1.1791 0
M  V30 12 C -5.736 0.2843 -0.3021 0
M  V30 13 C 3.6984 0.2183 1.0204 0
M  V30 14 N -7.0474 0.4489 -0.8484 0
M  V30 15 C 3.8897 0.7225 -0.421 0
M  V30 16 C 4.434 -0.36 -1.3638 0
M  V30 17 C 4.7589 0.2203 -2.7372 0
M  V30 18 H 0.622 0.3698 2.456 0
M  V30 19 H 1.1221 1.4504 1.1075 0
M  V30 20 H -4.0474 -1.6398 1.9345 0
M  V30 21 H -2.6119 1.6043 -0.5352 0
M  V30 22 H 0.6771 -1.5831 0.7896 0
M  V30 23 H 1.3123 -0.4745 -0.4532 0
M  V30 24 H -6.2931 -1.3512 0.9932 0
M  V30 25 H -4.863 1.88 -1.4661 0
M  V30 26 H 2.6223 -1.195 2.2597 0
M  V30 27 H 3.099 -1.8482 0.6759 0
M  V30 28 H 4.6832 -0.1141 1.4153 0
M  V30 29 H 3.3786 1.0698 1.658 0
M  V30 30 H -7.2396 1.1839 -1.5651 0
M  V30 31 H -7.8357 -0.1629 -0.54 0
M  V30 32 H 2.9355 1.1298 -0.817 0
M  V30 33 H 4.6131 1.5665 -0.3884 0
M  V30 34 H 3.6796 -1.1644 -1.4946 0
M  V30 35 H 5.3575 -0.8051 -0.9337 0
M  V30 36 H 5.1383 -0.585 -3.4007 0
M  V30 37 H 5.5398 1.0054 -2.6503 0
M  V30 38 H 3.8468 0.6586 -3.1959 0
M  V30 END ATOM
M  V30 BEGIN BOND
M  V30 1 2 1 2
M  V30 2 1 2 3
M  V30 3 1 2 4
M  V30 4 1 3 5
M  V30 5 2 4 6
M  V30 6 1 4 7
M  V30 7 1 5 8
M  V30 8 1 6 9
M  V30 9 2 7 10
M  V30 10 1 8 11
M  V30 11 2 9 12
M  V30 12 1 11 13
M  V30 13 1 12 14
M  V30 14 1 13 15
M  V30 15 1 15 16
M  V30 16 1 16 17
M  V30 17 1 10 12
M  V30 18 1 5 18
M  V30 19 1 5 19
M  V30 20 1 6 20
M  V30 21 1 7 21
M  V30 22 1 8 22
M  V30 23 1 8 23
M  V30 24 1 9 24
M  V30 25 1 10 25
M  V30 26 1 11 26
M  V30 27 1 11 27
M  V30 28 1 13 28
M  V30 29 1 13 29
M  V30 30 1 14 30
M  V30 31 1 14 31
M  V30 32 1 15 32
M  V30 33 1 15 33
M  V30 34 1 16 34
M  V30 35 1 16 35
M  V30 36 1 17 36
M  V30 37 1 17 37
M  V30 38 1 17 38
M  V30 END BOND
M  V30 END CTAB
M  END
>  <Structure No>
6198

>  <LogS>
-4.6001

>  <MMFF94 Energy>
17.773

$$$$
Compound 6199
Actelion Java MolfileCreator 2.0

  0  0  0  0  0  0              0 V3000
M  V30 BEGIN CTAB
M  V30 COUNTS 41 41 0 0 0
M  V30 BEGIN ATOM
M  V30 1 O 1.7273 -0.3138 2.2774 0
M  V30 2 C 2.0776 0.5403 1.4168 0
M  V30 3 O 1.4704 1.8029 1.3891 0
M  V30 4 C 3.1334 0.2117 0.4342 0
M  V30 5 C 0.3839 2.1831 2.2338 0
M  V30 6 C 3.5219 1.1561 -0.532 0
M  V30 7 C 3.7602 -1.0476 0.4472 0
M  V30 8 C -0.9617 1.9626 1.5346 0
M  V30 9 C 4.517 0.8477 -1.4644 0
M  V30 10 C 4.7551 -1.3533 -0.4862 0
M  V30 11 C -1.2756 0.4764 1.321 0
M  V30 12 C 5.1381 -0.4077 -1.4461 0
M  V30 13 C -2.6761 0.2898 0.7256 0
M  V30 14 N 6.1556 -0.7218 -2.4004 0
M  V30 15 C -2.9892 -1.1983 0.5087 0
M  V30 16 C -4.3724 -1.4157 -0.1398 0
M  V30 17 C -4.3046 -1.7248 -1.6446 0
M  V30 18 C -3.8041 -0.5457 -2.4761 0
M  V30 19 H 0.42 1.6492 3.2087 0
M  V30 20 H 0.4838 3.2675 2.4515 0
M  V30 21 H 3.0576 2.1336 -0.5696 0
M  V30 22 H 3.4825 -1.797 1.1779 0
M  V30 23 H -0.954 2.4886 0.5548 0
M  V30 24 H -1.7584 2.4178 2.1632 0
M  V30 25 H 4.8034 1.5874 -2.2014 0
M  V30 26 H 5.2269 -2.3276 -0.4614 0
M  V30 27 H -1.2157 -0.0585 2.2944 0
M  V30 28 H -0.5293 0.038 0.6242 0
M  V30 29 H -2.7375 0.8368 -0.2383 0
M  V30 30 H -3.4306 0.7225 1.4192 0
M  V30 31 H 6.4476 -0.0232 -3.1199 0
M  V30 32 H 6.6241 -1.6551 -2.3947 0
M  V30 33 H -2.1903 -1.6721 -0.1032 0
M  V30 34 H -2.9806 -1.7015 1.5009 0
M  V30 35 H -4.8524 -2.2891 0.3537 0
M  V30 36 H -5.0439 -0.5469 0.0389 0
M  V30 37 H -3.6526 -2.6075 -1.8226 0
M  V30 38 H -5.3266 -1.9889 -1.9935 0
M  V30 39 H -4.3889 0.3699 -2.2456 0
M  V30 40 H -2.7271 -0.3623 -2.2808 0
M  V30 41 H -3.9225 -0.7786 -3.5552 0
M  V30 END ATOM
M  V30 BEGIN BOND
M  V30 1 2 1 2
M  V30 2 1 2 3
M  V30 3 1 2 4
M  V30 4 1 3 5
M  V30 5 2 4 6
M  V30 6 1 4 7
M  V30 7 1 5 8
M  V30 8 1 6 9
M  V30 9 2 7 10
M  V30 10 1 8 11
M  V30 11 2 9 12
M  V30 12 1 11 13
M  V30 13 1 12 14
M  V30 14 1 13 15
M  V30 15 1 15 16
M  V30 16 1 16 17
M  V30 17 1 17 18
M  V30 18 1 10 12
M  V30 19 1 5 19
M  V30 20 1 5 20
M  V30 21 1 6 21
M  V30 22 1 7 22
M  V30 23 1 8 23
M  V30 24 1 8 24
M  V30 25 1 9 25
M  V30 26 1 10 26
M  V30 27 1 11 27
M  V30 28 1 11 28
M  V30 29 1 13 29
M  V30 30 1 13 30
M  V30 31 1 14 31
M  V30 32 1 14 32
M  V30 33 1 15 33
M  V30 34 1 15 34
M  V30 35 1 16 35
M  V30 36 1 16 36
M  V30 37 1 17 37
M  V30 38 1 17 38
M  V30 39 1 18 39
M  V30 40 1 18 40
M  V30 41 1 18 41
M  V30 END BOND
M  V30 END CTAB
M  END
>  <Structure No>
6199

>  <LogS>
-5.3999

>  <MMFF94 Energy>
17.648

$$$$
Compound 6200
Actelion Java MolfileCreator 2.0

  0  0  0  0  0  0              0 V3000
M  V30 BEGIN CTAB
M  V30 COUNTS 22 21 0 0 0
M  V30 BEGIN ATOM
M  V30 1 O 1.3059 0.3839 0.6912 0
M  V30 2 C 0.0687 0.9048 0.2467 0
M  V30 3 C 1.8683 -0.4464 -0.3039 0
M  V30 4 O -0.9211 -0.1091 0.3289 0
M  V30 5 C -0.3238 2.049 1.1766 0
M  V30 6 C 3.1564 -1.0569 0.226 0
M  V30 7 C -1.7843 -0.0578 -0.7874 0
M  V30 8 C -2.881 -1.0973 -0.6191 0
M  V30 9 H 0.1823 1.3495 -0.7764 0
M  V30 10 H 2.1128 0.1439 -1.2157 0
M  V30 11 H 1.1764 -1.2765 -0.5737 0
M  V30 12 H -0.4341 1.6769 2.2176 0
M  V30 13 H 0.4574 2.8384 1.1574 0
M  V30 14 H -1.2867 2.4956 0.8503 0
M  V30 15 H 2.944 -1.6657 1.1304 0
M  V30 16 H 3.8778 -0.254 0.4882 0
M  V30 17 H 3.6098 -1.7096 -0.5493 0
M  V30 18 H -1.2235 -0.288 -1.7215 0
M  V30 19 H -2.2617 0.9447 -0.8757 0
M  V30 20 H -3.4658 -0.8868 0.3014 0
M  V30 21 H -3.5638 -1.0681 -1.4943 0
M  V30 22 H -2.4347 -2.1116 -0.5438 0
M  V30 END ATOM
M  V30 BEGIN BOND
M  V30 1 1 1 2
M  V30 2 1 1 3
M  V30 3 1 2 4
M  V30 4 1 2 5
M  V30 5 1 3 6
M  V30 6 1 4 7
M  V30 7 1 7 8
M  V30 8 1 2 9
M  V30 9 1 3 10
M  V30 10 1 3 11
M  V30 11 1 5 12
M  V30 12 1 5 13
M  V30 13 1 5 14
M  V30 14 1 6 15
M  V30 15 1 6 16
M  V30 16 1 6 17
M  V30 17 1 7 18
M  V30 18 1 7 19
M  V30 19 1 8 20
M  V30 20 1 8 21
M  V30 21 1 8 22
M  V30 END BOND
M  V30 END CTAB
M  END
>  <Structure No>
6200

>  <LogS>
-0.4291

>  <MMFF94 Energy>
-10.417

$$$$
Compound 6201
Actelion Java MolfileCreator 2.0

  0  0  0  0  0  0              0 V3000
M  V30 BEGIN CTAB
M  V30 COUNTS 13 12 0 0 0
M  V30 BEGIN ATOM
M  V30 1 O 0.6821 0.3031 -0.6821 0
M  V30 2 C -0.0279 -0.7153 -0.0058 0
M  V30 3 C 1.9995 0.3667 -0.184 0
M  V30 4 O -1.3537 -0.7716 -0.4895 0
M  V30 5 C -2.1077 0.2921 0.05 0
M  V30 6 H 0.4399 -1.7026 -0.2177 0
M  V30 7 H -0.0061 -0.5709 1.1027 0
M  V30 8 H 2.5388 -0.5938 -0.342 0
M  V30 9 H 2.0086 0.6457 0.8932 0
M  V30 10 H 2.5492 1.1547 -0.7385 0
M  V30 11 H -1.6612 1.2797 -0.2024 0
M  V30 12 H -3.1252 0.2629 -0.3909 0
M  V30 13 H -2.2167 0.1855 1.152 0
M  V30 END ATOM
M  V30 BEGIN BOND
M  V30 1 1 1 2
M  V30 2 1 1 3
M  V30 3 1 2 4
M  V30 4 1 4 5
M  V30 5 1 2 6
M  V30 6 1 2 7
M  V30 7 1 3 8
M  V30 8 1 3 9
M  V30 9 1 3 10
M  V30 10 1 5 11
M  V30 11 1 5 12
M  V30 12 1 5 13
M  V30 END BOND
M  V30 END CTAB
M  END
>  <Structure No>
6201

>  <LogS>
0.506

>  <MMFF94 Energy>
-6.2807

$$$$
Compound 6202
Actelion Java MolfileCreator 2.0

  0  0  0  0  0  0              0 V3000
M  V30 BEGIN CTAB
M  V30 COUNTS 21 21 0 0 0
M  V30 BEGIN ATOM
M  V30 1 O 0.0 -1.2581 0.6289 0
M  V30 2 C -1.2528 -0.6253 0.4079 0 CFG=1
M  V30 3 C 0.9907 -0.6915 -0.2053 0 CFG=1
M  V30 4 O -1.1398 0.6624 -0.1734 0
M  V30 5 C -2.122 -1.5069 -0.4825 0
M  V30 6 O 1.1936 0.6779 0.0894 0
M  V30 7 C 2.2991 -1.4394 0.0085 0
M  V30 8 C -0.0296 1.3249 0.3981 0 CFG=1
M  V30 9 C 0.0201 2.7492 -0.1374 0
M  V30 10 H -1.7692 -0.5279 1.3886 0
M  V30 11 H 0.7132 -0.8056 -1.2796 0
M  V30 12 H -3.1258 -1.0475 -0.6053 0
M  V30 13 H -1.6553 -1.6235 -1.4833 0
M  V30 14 H -2.2425 -2.5098 -0.0209 0
M  V30 15 H 3.0888 -1.0181 -0.6491 0
M  V30 16 H 2.6233 -1.348 1.0671 0
M  V30 17 H 2.1654 -2.5144 -0.2372 0
M  V30 18 H -0.1404 1.3896 1.5064 0
M  V30 19 H 0.8754 3.2951 0.3143 0
M  V30 20 H -0.9196 3.2835 0.1179 0
M  V30 21 H 0.1411 2.7378 -1.2417 0
M  V30 END ATOM
M  V30 BEGIN BOND
M  V30 1 1 1 2
M  V30 2 1 1 3
M  V30 3 1 2 4
M  V30 4 1 2 5
M  V30 5 1 3 6
M  V30 6 1 3 7
M  V30 7 1 4 8
M  V30 8 1 8 9
M  V30 9 1 6 8
M  V30 10 1 2 10
M  V30 11 1 3 11
M  V30 12 1 5 12
M  V30 13 1 5 13
M  V30 14 1 5 14
M  V30 15 1 7 15
M  V30 16 1 7 16
M  V30 17 1 7 17
M  V30 18 1 8 18
M  V30 19 1 9 19
M  V30 20 1 9 20
M  V30 21 1 9 21
M  V30 END BOND
M  V30 BEGIN COLLECTION
M  V30 MDLV30/STEABS ATOMS=(3 2 3 8)
M  V30 END COLLECTION
M  V30 END CTAB
M  END
>  <Structure No>
6202

>  <LogS>
-0.0719

>  <MMFF94 Energy>
-68.732

$$$$
Compound 6203
Actelion Java MolfileCreator 2.0

  0  0  0  0  0  0              0 V3000
M  V30 BEGIN CTAB
M  V30 COUNTS 19 18 0 0 0
M  V30 BEGIN ATOM
M  V30 1 O -1.2255 -0.2296 0.1531 0
M  V30 2 C 0.1486 -0.3263 -0.1524 0
M  V30 3 C -1.9485 0.1088 -1.0118 0
M  V30 4 O 0.8422 -0.6736 1.0272 0
M  V30 5 C -3.4274 0.2084 -0.67 0
M  V30 6 C 2.241 -0.663 0.8076 0
M  V30 7 C 2.8402 0.6541 1.2877 0
M  V30 8 H 0.3097 -1.1216 -0.919 0
M  V30 9 H 0.5185 0.6536 -0.5394 0
M  V30 10 H -1.6171 1.0942 -1.4121 0
M  V30 11 H -1.8248 -0.672 -1.7966 0
M  V30 12 H -3.7942 -0.7653 -0.2816 0
M  V30 13 H -3.5875 0.9921 0.1009 0
M  V30 14 H -4.0064 0.4745 -1.5796 0
M  V30 15 H 2.534 -0.8495 -0.253 0
M  V30 16 H 2.688 -1.4846 1.4064 0
M  V30 17 H 2.5872 0.8198 2.3565 0
M  V30 18 H 3.9451 0.6236 1.1806 0
M  V30 19 H 2.447 1.4996 0.6854 0
M  V30 END ATOM
M  V30 BEGIN BOND
M  V30 1 1 1 2
M  V30 2 1 1 3
M  V30 3 1 2 4
M  V30 4 1 3 5
M  V30 5 1 4 6
M  V30 6 1 6 7
M  V30 7 1 2 8
M  V30 8 1 2 9
M  V30 9 1 3 10
M  V30 10 1 3 11
M  V30 11 1 5 12
M  V30 12 1 5 13
M  V30 13 1 5 14
M  V30 14 1 6 15
M  V30 15 1 6 16
M  V30 16 1 7 17
M  V30 17 1 7 18
M  V30 18 1 7 19
M  V30 END BOND
M  V30 END CTAB
M  END
>  <Structure No>
6203

>  <LogS>
-0.1726

>  <MMFF94 Energy>
-12.972

$$$$
Compound 6204
Actelion Java MolfileCreator 2.0

  0  0  0  0  0  0              0 V3000
M  V30 BEGIN CTAB
M  V30 COUNTS 57 60 0 0 0
M  V30 BEGIN ATOM
M  V30 1 F 1.5455 0.2439 -1.4641 0
M  V30 2 C 1.5451 0.5372 -0.1096 0 CFG=1
M  V30 3 C 3.0822 0.5584 0.2876 0 CFG=1
M  V30 4 C 0.7031 1.855 0.0514 0 CFG=1
M  V30 5 C 0.8225 -0.6093 0.6991 0 CFG=1
M  V30 6 C 3.6161 -0.8817 0.05 0
M  V30 7 C 3.8509 1.5939 -0.5431 0
M  V30 8 C 3.3308 0.9504 1.7648 0
M  V30 9 O 1.3167 2.9729 -0.5331 0
M  V30 10 C -0.7476 1.714 -0.5358 0
M  V30 11 C -0.7221 -0.424 0.8122 0 CFG=1
M  V30 12 C 1.351 -1.9889 0.2857 0
M  V30 13 C 4.7361 -1.1246 -0.6506 0
M  V30 14 C 2.8518 -2.0713 0.6101 0
M  V30 15 C 4.9466 1.3145 -1.2485 0
M  V30 16 C -1.4166 0.3037 -0.3426 0 CFG=1
M  V30 17 C -1.631 -1.5921 1.1667 0
M  V30 18 C 5.4604 -0.0471 -1.3175 0
M  V30 19 C -2.9193 0.3271 0.1653 0 CFG=1
M  V30 20 C -1.3153 -0.529 -1.6653 0
M  V30 21 C -3.0606 -1.017 1.001 0 CFG=1
M  V30 22 O 6.515 -0.2943 -1.9592 0
M  V30 23 O -3.1271 1.4252 1.04 0
M  V30 24 C -3.9433 0.5004 -0.9751 0
M  V30 25 C -4.0294 -2.0874 0.4721 0
M  V30 26 O -4.1403 -0.394 -1.7849 0
M  V30 27 C -4.7254 1.7866 -1.1213 0
M  V30 28 O -5.5134 1.7776 -2.2822 0
M  V30 29 H 0.6081 2.0702 1.1377 0
M  V30 30 H 1.134 -0.522 1.7601 0
M  V30 31 H 3.6114 2.6409 -0.4421 0
M  V30 32 H 4.4191 1.0946 1.943 0
M  V30 33 H 2.8186 1.9034 2.013 0
M  V30 34 H 3.0104 0.1752 2.4866 0
M  V30 35 H 1.4144 2.7893 -1.5039 0
M  V30 36 H -1.3599 2.5192 -0.0828 0
M  V30 37 H -0.7295 1.963 -1.6189 0
M  V30 38 H -0.8118 0.2472 1.6976 0
M  V30 39 H 1.1869 -2.1775 -0.795 0
M  V30 40 H 0.8349 -2.7885 0.8577 0
M  V30 41 H 5.1008 -2.1375 -0.7757 0
M  V30 42 H 2.9945 -2.1033 1.7114 0
M  V30 43 H 3.2371 -3.0346 0.2092 0
M  V30 44 H 5.4802 2.1125 -1.7505 0
M  V30 45 H -1.4518 -1.9369 2.2088 0
M  V30 46 H -1.454 -2.4419 0.4731 0
M  V30 47 H -1.9008 -1.4664 -1.6081 0
M  V30 48 H -0.3039 -0.8591 -1.9206 0
M  V30 49 H -1.694 0.0572 -2.5291 0
M  V30 50 H -3.4371 -0.7677 2.0191 0
M  V30 51 H -2.6298 1.3058 1.8872 0
M  V30 52 H -3.6974 -2.4964 -0.5034 0
M  V30 53 H -4.0778 -2.9314 1.1928 0
M  V30 54 H -5.0531 -1.6676 0.3767 0
M  V30 55 H -5.3647 1.9448 -0.2233 0
M  V30 56 H -4.0112 2.6337 -1.1914 0
M  V30 57 H -6.3173 1.2325 -2.0758 0
M  V30 END ATOM
M  V30 BEGIN BOND
M  V30 1 1 1 2
M  V30 2 1 2 3
M  V30 3 1 2 4
M  V30 4 1 2 5
M  V30 5 1 3 6
M  V30 6 1 3 7
M  V30 7 1 3 8
M  V30 8 1 4 9
M  V30 9 1 4 10
M  V30 10 1 5 11
M  V30 11 1 5 12
M  V30 12 2 6 13
M  V30 13 1 6 14
M  V30 14 2 7 15
M  V30 15 1 10 16
M  V30 16 1 11 17
M  V30 17 1 13 18
M  V30 18 1 16 19
M  V30 19 1 16 20
M  V30 20 1 17 21
M  V30 21 2 18 22
M  V30 22 1 19 23
M  V30 23 1 19 24
M  V30 24 1 21 25
M  V30 25 2 24 26
M  V30 26 1 24 27
M  V30 27 1 27 28
M  V30 28 1 11 16
M  V30 29 1 12 14
M  V30 30 1 15 18
M  V30 31 1 19 21
M  V30 32 1 4 29
M  V30 33 1 5 30
M  V30 34 1 7 31
M  V30 35 1 8 32
M  V30 36 1 8 33
M  V30 37 1 8 34
M  V30 38 1 9 35
M  V30 39 1 10 36
M  V30 40 1 10 37
M  V30 41 1 11 38
M  V30 42 1 12 39
M  V30 43 1 12 40
M  V30 44 1 13 41
M  V30 45 1 14 42
M  V30 46 1 14 43
M  V30 47 1 15 44
M  V30 48 1 17 45
M  V30 49 1 17 46
M  V30 50 1 20 47
M  V30 51 1 20 48
M  V30 52 1 20 49
M  V30 53 1 21 50
M  V30 54 1 23 51
M  V30 55 1 25 52
M  V30 56 1 25 53
M  V30 57 1 25 54
M  V30 58 1 27 55
M  V30 59 1 27 56
M  V30 60 1 28 57
M  V30 END BOND
M  V30 BEGIN COLLECTION
M  V30 MDLV30/STEABS ATOMS=(8 2 3 4 5 11 16 19 21)
M  V30 END COLLECTION
M  V30 END CTAB
M  END
>  <Structure No>
6204

>  <LogS>
-3.6444

>  <MMFF94 Energy>
188.89

$$$$
Compound 6205
Actelion Java MolfileCreator 2.0

  0  0  0  0  0  0              0 V3000
M  V30 BEGIN CTAB
M  V30 COUNTS 61 64 0 0 0
M  V30 BEGIN ATOM
M  V30 1 O -6.4993 -2.1087 1.2973 0
M  V30 2 C -5.5006 -1.4607 0.8891 0
M  V30 3 C -4.4691 -2.1433 0.09 0
M  V30 4 C -5.38 -0.0023 1.2122 0
M  V30 5 C -3.3999 -1.488 -0.3946 0
M  V30 6 C -3.9151 0.448 1.1408 0
M  V30 7 C -3.2286 0.0256 -0.1947 0 CFG=1
M  V30 8 C -2.307 -2.2916 -1.0659 0
M  V30 9 C -1.683 0.3073 -0.0983 0 CFG=2
M  V30 10 C -3.9102 0.7589 -1.3835 0
M  V30 11 C -1.4585 -1.4309 -2.0057 0
M  V30 12 C -1.2384 1.7437 0.3229 0 CFG=2
M  V30 13 C -0.878 -0.1531 -1.3374 0 CFG=2
M  V30 14 O -2.0419 2.7431 -0.253 0
M  V30 15 C 0.261 2.0333 0.012 0
M  V30 16 C 0.6261 -0.3283 -0.9529 0 CFG=2
M  V30 17 C 1.1912 0.772 0.0212 0 CFG=1
M  V30 18 C 1.515 -0.3037 -2.2148 0
M  V30 19 C 2.6135 1.1202 -0.5706 0 CFG=1
M  V30 20 C 1.3131 0.2638 1.4876 0
M  V30 21 C 2.4587 0.8781 -2.0722 0
M  V30 22 O 2.9536 2.4753 -0.3747 0
M  V30 23 C 3.7438 0.2149 -0.0509 0
M  V30 24 O 3.6713 -0.9956 -0.2148 0
M  V30 25 C 4.9707 0.7912 0.6194 0
M  V30 26 O 5.8783 -0.2324 1.0259 0
M  V30 27 C 5.6536 -1.0632 2.1312 0
M  V30 28 O 4.6393 -0.9037 2.8631 0
M  V30 29 C 6.6361 -2.1369 2.458 0
M  V30 30 H -4.5621 -3.2144 -0.0573 0
M  V30 31 H -5.7695 0.1882 2.2358 0
M  V30 32 H -5.9982 0.5827 0.4983 0
M  V30 33 H -3.3699 -0.0017 2.0005 0
M  V30 34 H -3.8796 1.5506 1.2705 0
M  V30 35 H -2.7509 -3.1162 -1.6653 0
M  V30 36 H -1.6583 -2.7427 -0.2851 0
M  V30 37 H -1.3535 -0.3599 0.7283 0
M  V30 38 H -3.2833 0.7613 -2.2947 0
M  V30 39 H -4.1532 1.8108 -1.1313 0
M  V30 40 H -4.8709 0.2681 -1.6497 0
M  V30 41 H -0.6512 -2.0609 -2.4343 0
M  V30 42 H -2.0923 -1.134 -2.8677 0
M  V30 43 H -1.3709 1.8206 1.4246 0
M  V30 44 H -0.9431 0.6601 -2.0953 0
M  V30 45 H -1.9016 2.7146 -1.2357 0
M  V30 46 H 0.3343 2.5131 -0.9874 0
M  V30 47 H 0.6213 2.7859 0.7475 0
M  V30 48 H 0.7395 -1.3281 -0.4747 0
M  V30 49 H 2.103 -1.2448 -2.2783 0
M  V30 50 H 0.9382 -0.2107 -3.1609 0
M  V30 51 H 0.3347 0.1682 1.9929 0
M  V30 52 H 1.7993 -0.7313 1.5394 0
M  V30 53 H 1.9154 0.9772 2.0886 0
M  V30 54 H 3.4309 0.682 -2.576 0
M  V30 55 H 1.9971 1.7672 -2.5565 0
M  V30 56 H 2.9411 2.6523 0.6007 0
M  V30 57 H 5.4904 1.4505 -0.106 0
M  V30 58 H 4.6803 1.4003 1.5014 0
M  V30 59 H 7.1642 -1.8851 3.4009 0
M  V30 60 H 7.3791 -2.2362 1.6386 0
M  V30 61 H 6.1053 -3.1041 2.5812 0
M  V30 END ATOM
M  V30 BEGIN BOND
M  V30 1 2 1 2
M  V30 2 1 2 3
M  V30 3 1 2 4
M  V30 4 2 3 5
M  V30 5 1 4 6
M  V30 6 1 5 7
M  V30 7 1 5 8
M  V30 8 1 7 9
M  V30 9 1 7 10
M  V30 10 1 8 11
M  V30 11 1 9 12
M  V30 12 1 9 13
M  V30 13 1 12 14
M  V30 14 1 12 15
M  V30 15 1 13 16
M  V30 16 1 15 17
M  V30 17 1 16 18
M  V30 18 1 17 19
M  V30 19 1 17 20
M  V30 20 1 18 21
M  V30 21 1 19 22
M  V30 22 1 19 23
M  V30 23 2 23 24
M  V30 24 1 23 25
M  V30 25 1 25 26
M  V30 26 1 26 27
M  V30 27 2 27 28
M  V30 28 1 27 29
M  V30 29 1 6 7
M  V30 30 1 11 13
M  V30 31 1 16 17
M  V30 32 1 19 21
M  V30 33 1 3 30
M  V30 34 1 4 31
M  V30 35 1 4 32
M  V30 36 1 6 33
M  V30 37 1 6 34
M  V30 38 1 8 35
M  V30 39 1 8 36
M  V30 40 1 9 37
M  V30 41 1 10 38
M  V30 42 1 10 39
M  V30 43 1 10 40
M  V30 44 1 11 41
M  V30 45 1 11 42
M  V30 46 1 12 43
M  V30 47 1 13 44
M  V30 48 1 14 45
M  V30 49 1 15 46
M  V30 50 1 15 47
M  V30 51 1 16 48
M  V30 52 1 18 49
M  V30 53 1 18 50
M  V30 54 1 20 51
M  V30 55 1 20 52
M  V30 56 1 20 53
M  V30 57 1 21 54
M  V30 58 1 21 55
M  V30 59 1 22 56
M  V30 60 1 25 57
M  V30 61 1 25 58
M  V30 62 1 29 59
M  V30 63 1 29 60
M  V30 64 1 29 61
M  V30 END BOND
M  V30 BEGIN COLLECTION
M  V30 MDLV30/STEABS ATOMS=(7 7 9 12 13 16 17 19)
M  V30 END COLLECTION
M  V30 END CTAB
M  END
>  <Structure No>
6205

>  <LogS>
-4.4577

>  <MMFF94 Energy>
115.84

$$$$
Compound 6206
Actelion Java MolfileCreator 2.0

  0  0  0  0  0  0              0 V3000
M  V30 BEGIN CTAB
M  V30 COUNTS 59 62 0 0 0
M  V30 BEGIN ATOM
M  V30 1 O 7.0091 0.2438 1.8709 0
M  V30 2 C 5.889 0.3103 1.299 0
M  V30 3 C 4.9446 -0.8112 1.4243 0
M  V30 4 C 5.5438 1.5255 0.4904 0
M  V30 5 C 3.7734 -0.8232 0.7635 0
M  V30 6 C 4.0313 1.6153 0.2314 0
M  V30 7 C 3.4017 0.2658 -0.2379 0 CFG=2
M  V30 8 C 2.7632 -1.8899 1.0462 0
M  V30 9 C 1.8215 0.4527 -0.3119 0 CFG=1
M  V30 10 C 4.0119 -0.1265 -1.6071 0
M  V30 11 C 1.5125 -1.2581 1.6637 0
M  V30 12 C 1.097 -0.2249 -1.4644 0
M  V30 13 C 1.1098 0.1162 1.0414 0 CFG=2
M  V30 14 O 1.3355 0.0983 -2.6186 0
M  V30 15 C -0.0339 -1.1726 -1.1909 0
M  V30 16 C -0.4467 0.2589 0.9356 0 CFG=2
M  V30 17 C -1.1188 -0.538 -0.2507 0 CFG=1
M  V30 18 C -0.8475 1.7367 0.7604 0
M  V30 19 C -2.0225 0.5315 -1.0003 0 CFG=1
M  V30 20 C -1.9733 -1.7176 0.2934 0
M  V30 21 C -1.3883 1.8795 -0.6505 0
M  V30 22 O -1.9749 0.3858 -2.4023 0
M  V30 23 C -3.4894 0.559 -0.5256 0
M  V30 24 O -3.7431 0.8553 0.6342 0
M  V30 25 C -4.6353 0.2668 -1.468 0
M  V30 26 O -5.8955 0.332 -0.7994 0
M  V30 27 C -6.3537 -0.6655 0.0695 0
M  V30 28 O -5.6519 -1.6863 0.3082 0
M  V30 29 C -7.6638 -0.493 0.7599 0
M  V30 30 H 5.1896 -1.6098 2.1149 0
M  V30 31 H 5.8701 2.4364 1.0374 0
M  V30 32 H 6.0993 1.4976 -0.4703 0
M  V30 33 H 3.8483 2.4095 -0.5257 0
M  V30 34 H 3.541 1.9436 1.1746 0
M  V30 35 H 2.5101 -2.399 0.0936 0
M  V30 36 H 3.1579 -2.6703 1.734 0
M  V30 37 H 1.6372 1.5331 -0.4988 0
M  V30 38 H 3.8376 0.6723 -2.3589 0
M  V30 39 H 5.1064 -0.2947 -1.5338 0
M  V30 40 H 3.5785 -1.0807 -1.9755 0
M  V30 41 H 0.6903 -1.9964 1.6014 0
M  V30 42 H 1.6967 -1.1113 2.7514 0
M  V30 43 H 1.4586 0.8793 1.7741 0
M  V30 44 H -0.4687 -1.5438 -2.1412 0
M  V30 45 H 0.3988 -2.0805 -0.7289 0
M  V30 46 H -0.8719 -0.0712 1.9114 0
M  V30 47 H -0.0127 2.4515 0.9281 0
M  V30 48 H -1.6435 1.9995 1.4912 0
M  V30 49 H -2.6683 -1.392 1.0945 0
M  V30 50 H -2.5665 -2.1718 -0.5287 0
M  V30 51 H -1.3408 -2.5153 0.7325 0
M  V30 52 H -0.5468 2.0979 -1.3432 0
M  V30 53 H -2.1073 2.7261 -0.7221 0
M  V30 54 H -2.355 -0.5014 -2.63 0
M  V30 55 H -4.6292 1.0251 -2.2786 0
M  V30 56 H -4.5136 -0.7378 -1.9263 0
M  V30 57 H -8.3146 0.1887 0.1734 0
M  V30 58 H -7.4957 -0.059 1.7671 0
M  V30 59 H -8.1727 -1.4744 0.8632 0
M  V30 END ATOM
M  V30 BEGIN BOND
M  V30 1 2 1 2
M  V30 2 1 2 3
M  V30 3 1 2 4
M  V30 4 2 3 5
M  V30 5 1 4 6
M  V30 6 1 5 7
M  V30 7 1 5 8
M  V30 8 1 7 9
M  V30 9 1 7 10
M  V30 10 1 8 11
M  V30 11 1 9 12
M  V30 12 1 9 13
M  V30 13 2 12 14
M  V30 14 1 12 15
M  V30 15 1 13 16
M  V30 16 1 15 17
M  V30 17 1 16 18
M  V30 18 1 17 19
M  V30 19 1 17 20
M  V30 20 1 18 21
M  V30 21 1 19 22
M  V30 22 1 19 23
M  V30 23 2 23 24
M  V30 24 1 23 25
M  V30 25 1 25 26
M  V30 26 1 26 27
M  V30 27 2 27 28
M  V30 28 1 27 29
M  V30 29 1 6 7
M  V30 30 1 11 13
M  V30 31 1 16 17
M  V30 32 1 19 21
M  V30 33 1 3 30
M  V30 34 1 4 31
M  V30 35 1 4 32
M  V30 36 1 6 33
M  V30 37 1 6 34
M  V30 38 1 8 35
M  V30 39 1 8 36
M  V30 40 1 9 37
M  V30 41 1 10 38
M  V30 42 1 10 39
M  V30 43 1 10 40
M  V30 44 1 11 41
M  V30 45 1 11 42
M  V30 46 1 13 43
M  V30 47 1 15 44
M  V30 48 1 15 45
M  V30 49 1 16 46
M  V30 50 1 18 47
M  V30 51 1 18 48
M  V30 52 1 20 49
M  V30 53 1 20 50
M  V30 54 1 20 51
M  V30 55 1 21 52
M  V30 56 1 21 53
M  V30 57 1 22 54
M  V30 58 1 25 55
M  V30 59 1 25 56
M  V30 60 1 29 57
M  V30 61 1 29 58
M  V30 62 1 29 59
M  V30 END BOND
M  V30 BEGIN COLLECTION
M  V30 MDLV30/STEABS ATOMS=(6 7 9 13 16 17 19)
M  V30 END COLLECTION
M  V30 END CTAB
M  END
>  <Structure No>
6206

>  <LogS>
-4.3037

>  <MMFF94 Energy>
98.127

$$$$
Compound 6207
Actelion Java MolfileCreator 2.0

  0  0  0  0  0  0              0 V3000
M  V30 BEGIN CTAB
M  V30 COUNTS 55 58 0 0 0
M  V30 BEGIN ATOM
M  V30 1 O -6.488 0.4855 -0.8902 0
M  V30 2 C -5.3118 0.2757 -0.4956 0
M  V30 3 C -4.3681 -0.4254 -1.3693 0
M  V30 4 C -4.9117 0.6665 0.8857 0
M  V30 5 C -3.0912 -0.6545 -1.0101 0
M  V30 6 C -3.4011 0.909 0.9646 0
M  V30 7 C -2.539 -0.2608 0.3748 0 CFG=2
M  V30 8 C -2.2454 -1.5105 -1.9157 0
M  V30 9 C -1.0191 0.2098 0.2348 0 CFG=1
M  V30 10 C -2.6661 -1.498 1.3009 0
M  V30 11 C -0.8678 -0.8944 -2.0737 0
M  V30 12 C -0.2567 0.359 1.59 0 CFG=2
M  V30 13 C -0.1913 -0.7241 -0.7051 0 CFG=1
M  V30 14 O -0.9053 1.2813 2.4243 0
M  V30 15 C 1.1814 0.865 1.372 0
M  V30 16 C 1.2876 -0.2806 -0.8928 0 CFG=2
M  V30 17 C 2.0395 -0.0214 0.4222 0 CFG=1
M  V30 18 C 1.505 0.9818 -1.7418 0
M  V30 19 C 3.2808 0.799 -0.0376 0 CFG=2
M  V30 20 C 2.4277 -1.3411 1.141 0
M  V30 21 C 2.7944 1.6325 -1.2357 0
M  V30 22 C 4.4776 -0.052 -0.4385 0
M  V30 23 O 4.4183 -0.7734 -1.4238 0
M  V30 24 C 5.7533 0.0061 0.3515 0
M  V30 25 O 6.4179 1.2133 0.0925 0
M  V30 26 H -4.7361 -0.7733 -2.3271 0
M  V30 27 H -5.4449 1.5976 1.1799 0
M  V30 28 H -5.2125 -0.1361 1.5927 0
M  V30 29 H -3.1792 1.0738 2.0368 0
M  V30 30 H -3.1734 1.8545 0.4227 0
M  V30 31 H -2.1594 -2.5314 -1.4838 0
M  V30 32 H -2.6949 -1.6145 -2.9279 0
M  V30 33 H -1.0389 1.2141 -0.2405 0
M  V30 34 H -2.459 -1.2334 2.3597 0
M  V30 35 H -1.9682 -2.3051 0.9994 0
M  V30 36 H -3.6929 -1.9203 1.2586 0
M  V30 37 H -0.2545 -1.5628 -2.7167 0
M  V30 38 H -0.966 0.0854 -2.5887 0
M  V30 39 H -0.2174 -0.6303 2.0969 0
M  V30 40 H -0.149 -1.7308 -0.2359 0
M  V30 41 H -0.6031 1.0981 3.353 0
M  V30 42 H 1.6912 0.9472 2.3573 0
M  V30 43 H 1.1123 1.9002 0.9703 0
M  V30 44 H 1.8052 -1.1111 -1.426 0
M  V30 45 H 1.598 0.7146 -2.8174 0
M  V30 46 H 0.6668 1.7004 -1.6319 0
M  V30 47 H 3.6087 1.4833 0.777 0
M  V30 48 H 2.9589 -2.0379 0.4597 0
M  V30 49 H 3.0873 -1.1235 2.0091 0
M  V30 50 H 1.5364 -1.8834 1.5132 0
M  V30 51 H 2.5863 2.6752 -0.9078 0
M  V30 52 H 3.5511 1.6889 -2.0514 0
M  V30 53 H 5.534 -0.1092 1.4384 0
M  V30 54 H 6.4169 -0.835 0.0564 0
M  V30 55 H 6.0867 1.8716 0.7624 0
M  V30 END ATOM
M  V30 BEGIN BOND
M  V30 1 2 1 2
M  V30 2 1 2 3
M  V30 3 1 2 4
M  V30 4 2 3 5
M  V30 5 1 4 6
M  V30 6 1 5 7
M  V30 7 1 5 8
M  V30 8 1 7 9
M  V30 9 1 7 10
M  V30 10 1 8 11
M  V30 11 1 9 12
M  V30 12 1 9 13
M  V30 13 1 12 14
M  V30 14 1 12 15
M  V30 15 1 13 16
M  V30 16 1 15 17
M  V30 17 1 16 18
M  V30 18 1 17 19
M  V30 19 1 17 20
M  V30 20 1 18 21
M  V30 21 1 19 22
M  V30 22 2 22 23
M  V30 23 1 22 24
M  V30 24 1 24 25
M  V30 25 1 6 7
M  V30 26 1 11 13
M  V30 27 1 16 17
M  V30 28 1 19 21
M  V30 29 1 3 26
M  V30 30 1 4 27
M  V30 31 1 4 28
M  V30 32 1 6 29
M  V30 33 1 6 30
M  V30 34 1 8 31
M  V30 35 1 8 32
M  V30 36 1 9 33
M  V30 37 1 10 34
M  V30 38 1 10 35
M  V30 39 1 10 36
M  V30 40 1 11 37
M  V30 41 1 11 38
M  V30 42 1 12 39
M  V30 43 1 13 40
M  V30 44 1 14 41
M  V30 45 1 15 42
M  V30 46 1 15 43
M  V30 47 1 16 44
M  V30 48 1 18 45
M  V30 49 1 18 46
M  V30 50 1 19 47
M  V30 51 1 20 48
M  V30 52 1 20 49
M  V30 53 1 20 50
M  V30 54 1 21 51
M  V30 55 1 21 52
M  V30 56 1 24 53
M  V30 57 1 24 54
M  V30 58 1 25 55
M  V30 END BOND
M  V30 BEGIN COLLECTION
M  V30 MDLV30/STEABS ATOMS=(7 7 9 12 13 16 17 19)
M  V30 END COLLECTION
M  V30 END CTAB
M  END
>  <Structure No>
6207

>  <LogS>
-3.2408

>  <MMFF94 Energy>
96.315

$$$$
Compound 6208
Actelion Java MolfileCreator 2.0

  0  0  0  0  0  0              0 V3000
M  V30 BEGIN CTAB
M  V30 COUNTS 59 62 0 0 0
M  V30 BEGIN ATOM
M  V30 1 O -6.5038 -1.8665 2.2727 0
M  V30 2 C -5.3781 -1.626 1.7625 0
M  V30 3 C -5.0361 -0.2665 1.337 0
M  V30 4 C -4.3855 -2.6926 1.6316 0
M  V30 5 C -3.8606 -0.0062 0.7421 0
M  V30 6 C -3.2209 -2.4576 1.025 0
M  V30 7 C -2.9024 -1.1408 0.3184 0 CFG=2
M  V30 8 C -3.5345 1.4368 0.3938 0
M  V30 9 C -1.3882 -0.7518 0.6539 0 CFG=1
M  V30 10 C -3.1896 -1.3937 -1.1797 0
M  V30 11 C -2.037 1.6546 0.1158 0
M  V30 12 C -0.2963 -1.2753 -0.3519 0 CFG=1
M  V30 13 C -1.2147 0.7488 1.0484 0 CFG=2
M  V30 14 O -0.5419 -0.8517 -1.666 0
M  V30 15 C 1.1459 -0.871 0.0651 0
M  V30 16 C 0.2732 1.0869 1.3252 0 CFG=1
M  V30 17 C 1.3106 0.664 0.2808 0 CFG=1
M  V30 18 C 0.6742 2.4865 1.7616 0
M  V30 19 C 2.6367 1.1319 1.0001 0 CFG=1
M  V30 20 C 1.1616 1.4299 -1.0716 0
M  V30 21 C 2.2133 2.4759 1.6749 0
M  V30 22 O 2.9784 0.2499 2.0512 0
M  V30 23 C 3.8513 1.3449 0.0724 0
M  V30 24 O 3.8879 2.3151 -0.6712 0
M  V30 25 C 5.0243 0.3962 0.0381 0
M  V30 26 O 4.6556 -0.8341 -0.5815 0
M  V30 27 C 4.4372 -0.9617 -1.9584 0
M  V30 28 O 4.5894 0.0238 -2.7297 0
M  V30 29 C 3.9937 -2.2707 -2.5172 0
M  V30 30 H -5.7295 0.5377 1.5554 0
M  V30 31 H -4.5898 -3.6722 2.046 0
M  V30 32 H -2.5161 -3.2762 0.9371 0
M  V30 33 H -4.1336 1.7525 -0.4871 0
M  V30 34 H -3.8202 2.088 1.25 0
M  V30 35 H -1.1349 -1.2817 1.6032 0
M  V30 36 H -4.2632 -1.6451 -1.3287 0
M  V30 37 H -2.6043 -2.2554 -1.5663 0
M  V30 38 H -2.9824 -0.4931 -1.7937 0
M  V30 39 H -1.8584 1.4146 -0.947 0
M  V30 40 H -1.7946 2.7247 0.2768 0
M  V30 41 H -0.347 -2.3898 -0.327 0
M  V30 42 H -1.689 0.869 2.0535 0
M  V30 43 H -0.016 -1.4425 -2.2666 0
M  V30 44 H 1.8703 -1.2256 -0.6956 0
M  V30 45 H 1.363 -1.4258 1.0013 0
M  V30 46 H 0.4851 0.4657 2.2328 0
M  V30 47 H 0.2622 3.2551 1.0748 0
M  V30 48 H 0.328 2.6989 2.7971 0
M  V30 49 H 1.3589 2.5152 -0.9567 0
M  V30 50 H 1.8739 1.0235 -1.8201 0
M  V30 51 H 0.1665 1.3639 -1.5198 0
M  V30 52 H 2.5422 3.3667 1.0972 0
M  V30 53 H 2.6553 2.5651 2.6921 0
M  V30 54 H 3.2705 -0.6146 1.6668 0
M  V30 55 H 5.3799 0.197 1.0704 0
M  V30 56 H 5.88 0.8499 -0.5091 0
M  V30 57 H 2.9345 -2.1956 -2.8427 0
M  V30 58 H 4.6264 -2.5408 -3.3885 0
M  V30 59 H 4.0803 -3.0655 -1.7465 0
M  V30 END ATOM
M  V30 BEGIN BOND
M  V30 1 2 1 2
M  V30 2 1 2 3
M  V30 3 1 2 4
M  V30 4 2 3 5
M  V30 5 2 4 6
M  V30 6 1 5 7
M  V30 7 1 5 8
M  V30 8 1 7 9
M  V30 9 1 7 10
M  V30 10 1 8 11
M  V30 11 1 9 12
M  V30 12 1 9 13
M  V30 13 1 12 14
M  V30 14 1 12 15
M  V30 15 1 13 16
M  V30 16 1 15 17
M  V30 17 1 16 18
M  V30 18 1 17 19
M  V30 19 1 17 20
M  V30 20 1 18 21
M  V30 21 1 19 22
M  V30 22 1 19 23
M  V30 23 2 23 24
M  V30 24 1 23 25
M  V30 25 1 25 26
M  V30 26 1 26 27
M  V30 27 2 27 28
M  V30 28 1 27 29
M  V30 29 1 6 7
M  V30 30 1 11 13
M  V30 31 1 16 17
M  V30 32 1 19 21
M  V30 33 1 3 30
M  V30 34 1 4 31
M  V30 35 1 6 32
M  V30 36 1 8 33
M  V30 37 1 8 34
M  V30 38 1 9 35
M  V30 39 1 10 36
M  V30 40 1 10 37
M  V30 41 1 10 38
M  V30 42 1 11 39
M  V30 43 1 11 40
M  V30 44 1 12 41
M  V30 45 1 13 42
M  V30 46 1 14 43
M  V30 47 1 15 44
M  V30 48 1 15 45
M  V30 49 1 16 46
M  V30 50 1 18 47
M  V30 51 1 18 48
M  V30 52 1 20 49
M  V30 53 1 20 50
M  V30 54 1 20 51
M  V30 55 1 21 52
M  V30 56 1 21 53
M  V30 57 1 22 54
M  V30 58 1 25 55
M  V30 59 1 25 56
M  V30 60 1 29 57
M  V30 61 1 29 58
M  V30 62 1 29 59
M  V30 END BOND
M  V30 BEGIN COLLECTION
M  V30 MDLV30/STEABS ATOMS=(7 7 9 12 13 16 17 19)
M  V30 END COLLECTION
M  V30 END CTAB
M  END
>  <Structure No>
6208

>  <LogS>
-4.3692

>  <MMFF94 Energy>
126.48

$$$$
Compound 6209
Actelion Java MolfileCreator 2.0

  0  0  0  0  0  0              0 V3000
M  V30 BEGIN CTAB
M  V30 COUNTS 54 57 0 0 0
M  V30 BEGIN ATOM
M  V30 1 O -6.4335 -0.0812 1.3818 0
M  V30 2 C -5.2774 -0.168 0.8901 0
M  V30 3 C -4.287 0.8789 1.1867 0
M  V30 4 C -4.9322 -1.3456 0.0244 0
M  V30 5 C -3.091 0.9098 0.5749 0
M  V30 6 C -3.4207 -1.4314 -0.2583 0
M  V30 7 C -2.7581 -0.0486 -0.5651 0 CFG=2
M  V30 8 C -2.009 1.8148 1.0937 0
M  V30 9 C -1.1877 -0.26 -0.6705 0 CFG=1
M  V30 10 C -3.3575 0.5012 -1.8875 0
M  V30 11 C -0.8181 0.9829 1.5911 0
M  V30 12 C -0.3838 0.6668 -1.5582 0
M  V30 13 C -0.494 -0.2746 0.7232 0 CFG=2
M  V30 14 O -0.7944 1.7515 -1.938 0
M  V30 15 C 1.0395 0.2808 -1.8105 0
M  V30 16 C 1.0503 -0.5369 0.6342 0 CFG=2
M  V30 17 C 1.8433 0.2315 -0.4718 0 CFG=1
M  V30 18 C 1.3862 -2.0225 0.4214 0
M  V30 19 C 3.1385 -0.6413 -0.6483 0 CFG=1
M  V30 20 C 2.1781 1.6863 -0.046 0
M  V30 21 C 2.6478 -2.0859 -0.4418 0
M  V30 22 O 3.6727 -0.5343 -1.9504 0
M  V30 23 C 4.2277 -0.3353 0.3917 0
M  V30 24 O 3.9995 -0.5208 1.5795 0
M  V30 25 C 5.5879 0.1758 -0.0217 0
M  V30 26 O 6.4376 0.3171 1.0858 0
M  V30 27 H -4.5145 1.5852 1.9765 0
M  V30 28 H -5.2545 -2.2782 0.536 0
M  V30 29 H -5.503 -1.284 -0.9253 0
M  V30 30 H -3.2587 -2.1315 -1.1074 0
M  V30 31 H -2.9421 -1.8891 0.6333 0
M  V30 32 H -2.37 2.4626 1.9231 0
M  V30 33 H -1.6832 2.4967 0.2829 0
M  V30 34 H -1.0408 -1.265 -1.124 0
M  V30 35 H -2.9685 -0.0682 -2.7586 0
M  V30 36 H -3.138 1.5791 -2.0208 0
M  V30 37 H -4.4629 0.4413 -1.904 0
M  V30 38 H 0.0547 1.6575 1.6827 0
M  V30 39 H -1.04 0.6444 2.6277 0
M  V30 40 H -0.9208 -1.1348 1.284 0
M  V30 41 H 1.5058 0.9952 -2.5249 0
M  V30 42 H 1.0352 -0.7137 -2.306 0
M  V30 43 H 1.4809 -0.2712 1.626 0
M  V30 44 H 0.5625 -2.5641 -0.091 0
M  V30 45 H 1.562 -2.5203 1.4005 0
M  V30 46 H 2.9398 2.1239 -0.7246 0
M  V30 47 H 1.2822 2.338 -0.0997 0
M  V30 48 H 2.5718 1.7306 0.991 0
M  V30 49 H 2.3893 -2.5461 -1.4218 0
M  V30 50 H 3.4205 -2.735 0.0279 0
M  V30 51 H 3.8447 0.4254 -2.1325 0
M  V30 52 H 5.4818 1.1503 -0.5491 0
M  V30 53 H 6.0475 -0.5506 -0.7238 0
M  V30 54 H 6.1725 1.1586 1.5419 0
M  V30 END ATOM
M  V30 BEGIN BOND
M  V30 1 2 1 2
M  V30 2 1 2 3
M  V30 3 1 2 4
M  V30 4 2 3 5
M  V30 5 1 4 6
M  V30 6 1 5 7
M  V30 7 1 5 8
M  V30 8 1 7 9
M  V30 9 1 7 10
M  V30 10 1 8 11
M  V30 11 1 9 12
M  V30 12 1 9 13
M  V30 13 2 12 14
M  V30 14 1 12 15
M  V30 15 1 13 16
M  V30 16 1 15 17
M  V30 17 1 16 18
M  V30 18 1 17 19
M  V30 19 1 17 20
M  V30 20 1 18 21
M  V30 21 1 19 22
M  V30 22 1 19 23
M  V30 23 2 23 24
M  V30 24 1 23 25
M  V30 25 1 25 26
M  V30 26 1 6 7
M  V30 27 1 11 13
M  V30 28 1 16 17
M  V30 29 1 19 21
M  V30 30 1 3 27
M  V30 31 1 4 28
M  V30 32 1 4 29
M  V30 33 1 6 30
M  V30 34 1 6 31
M  V30 35 1 8 32
M  V30 36 1 8 33
M  V30 37 1 9 34
M  V30 38 1 10 35
M  V30 39 1 10 36
M  V30 40 1 10 37
M  V30 41 1 11 38
M  V30 42 1 11 39
M  V30 43 1 13 40
M  V30 44 1 15 41
M  V30 45 1 15 42
M  V30 46 1 16 43
M  V30 47 1 18 44
M  V30 48 1 18 45
M  V30 49 1 20 46
M  V30 50 1 20 47
M  V30 51 1 20 48
M  V30 52 1 21 49
M  V30 53 1 21 50
M  V30 54 1 22 51
M  V30 55 1 25 52
M  V30 56 1 25 53
M  V30 57 1 26 54
M  V30 END BOND
M  V30 BEGIN COLLECTION
M  V30 MDLV30/STEABS ATOMS=(6 7 9 13 16 17 19)
M  V30 END COLLECTION
M  V30 END CTAB
M  END
>  <Structure No>
6209

>  <LogS>
-3.1097

>  <MMFF94 Energy>
121

$$$$
Compound 6210
Actelion Java MolfileCreator 2.0

  0  0  0  0  0  0              0 V3000
M  V30 BEGIN CTAB
M  V30 COUNTS 53 56 0 0 0
M  V30 BEGIN ATOM
M  V30 1 O 6.3261 -0.8093 0.2427 0
M  V30 2 C 5.1253 -0.4919 0.034 0
M  V30 3 C 4.216 -0.311 1.1768 0
M  V30 4 C 4.6494 -0.2904 -1.374 0
M  V30 5 C 2.9509 0.1135 1.0118 0
M  V30 6 C 3.1148 -0.3126 -1.4576 0
M  V30 7 C 2.4199 0.546 -0.3531 0 CFG=1
M  V30 8 C 2.0062 0.1244 2.1762 0
M  V30 9 C 0.8484 0.3083 -0.4506 0 CFG=1
M  V30 10 C 2.8004 2.0342 -0.5618 0
M  V30 11 C 0.8293 -0.8206 1.9092 0
M  V30 12 C 0.3876 -0.9037 0.4155 0 CFG=1
M  V30 13 C -0.0535 1.5321 -0.1648 0
M  V30 14 C -1.139 -1.2024 0.2897 0 CFG=1
M  V30 15 C -1.517 1.2149 -0.4938 0
M  V30 16 C -2.0932 0.024 0.3272 0 CFG=1
M  V30 17 C -1.4897 -1.96 -1.0046 0
M  V30 18 C -3.3745 -0.5598 -0.3243 0 CFG=2
M  V30 19 C -2.4217 0.4852 1.7683 0
M  V30 20 C -2.8911 -1.5126 -1.4195 0
M  V30 21 C -4.3844 0.4643 -0.8194 0
M  V30 22 O -4.1734 1.0967 -1.8438 0
M  V30 23 C -5.6626 0.7112 -0.0729 0
M  V30 24 H 4.575 -0.5863 2.1615 0
M  V30 25 H 5.0437 0.6723 -1.7612 0
M  V30 26 H 5.0565 -1.0992 -2.0185 0
M  V30 27 H 2.8102 0.0404 -2.4675 0
M  V30 28 H 2.784 -1.3707 -1.3688 0
M  V30 29 H 1.6388 1.1596 2.3306 0
M  V30 30 H 2.5068 -0.1767 3.1231 0
M  V30 31 H 0.6334 0.0515 -1.5118 0
M  V30 32 H 2.3391 2.6767 0.2178 0
M  V30 33 H 3.8951 2.1928 -0.4772 0
M  V30 34 H 2.4774 2.3846 -1.5654 0
M  V30 35 H 1.1198 -1.842 2.2415 0
M  V30 36 H -0.004 -0.523 2.5724 0
M  V30 37 H 0.917 -1.7938 0.0065 0
M  V30 38 H 0.2318 2.3805 -0.8208 0
M  V30 39 H 0.0434 1.8741 0.8834 0
M  V30 40 H -1.4204 -1.8903 1.1214 0
M  V30 41 H -2.1257 2.1288 -0.3153 0
M  V30 42 H -1.5775 0.9958 -1.5823 0
M  V30 43 H -0.7746 -1.7322 -1.8236 0
M  V30 44 H -1.467 -3.0579 -0.8274 0
M  V30 45 H -3.8801 -1.2029 0.4334 0
M  V30 46 H -3.2719 1.2002 1.7566 0
M  V30 47 H -2.7078 -0.3754 2.4098 0
M  V30 48 H -1.57 1.0097 2.2414 0
M  V30 49 H -2.8359 -1.0027 -2.4065 0
M  V30 50 H -3.576 -2.3839 -1.513 0
M  V30 51 H -6.5267 0.4619 -0.7236 0
M  V30 52 H -5.7214 0.0969 0.8495 0
M  V30 53 H -5.7214 1.7819 0.2146 0
M  V30 END ATOM
M  V30 BEGIN BOND
M  V30 1 2 1 2
M  V30 2 1 2 3
M  V30 3 1 2 4
M  V30 4 2 3 5
M  V30 5 1 4 6
M  V30 6 1 5 7
M  V30 7 1 5 8
M  V30 8 1 7 9
M  V30 9 1 7 10
M  V30 10 1 8 11
M  V30 11 1 9 12
M  V30 12 1 9 13
M  V30 13 1 12 14
M  V30 14 1 13 15
M  V30 15 1 14 16
M  V30 16 1 14 17
M  V30 17 1 16 18
M  V30 18 1 16 19
M  V30 19 1 17 20
M  V30 20 1 18 21
M  V30 21 2 21 22
M  V30 22 1 21 23
M  V30 23 1 6 7
M  V30 24 1 11 12
M  V30 25 1 15 16
M  V30 26 1 18 20
M  V30 27 1 3 24
M  V30 28 1 4 25
M  V30 29 1 4 26
M  V30 30 1 6 27
M  V30 31 1 6 28
M  V30 32 1 8 29
M  V30 33 1 8 30
M  V30 34 1 9 31
M  V30 35 1 10 32
M  V30 36 1 10 33
M  V30 37 1 10 34
M  V30 38 1 11 35
M  V30 39 1 11 36
M  V30 40 1 12 37
M  V30 41 1 13 38
M  V30 42 1 13 39
M  V30 43 1 14 40
M  V30 44 1 15 41
M  V30 45 1 15 42
M  V30 46 1 17 43
M  V30 47 1 17 44
M  V30 48 1 18 45
M  V30 49 1 19 46
M  V30 50 1 19 47
M  V30 51 1 19 48
M  V30 52 1 20 49
M  V30 53 1 20 50
M  V30 54 1 23 51
M  V30 55 1 23 52
M  V30 56 1 23 53
M  V30 END BOND
M  V30 BEGIN COLLECTION
M  V30 MDLV30/STEABS ATOMS=(6 7 9 12 14 16 18)
M  V30 END COLLECTION
M  V30 END CTAB
M  END
>  <Structure No>
6210

>  <LogS>
-4.5526

>  <MMFF94 Energy>
81.69

$$$$
Compound 6211
Actelion Java MolfileCreator 2.0

  0  0  0  0  0  0              0 V3000
M  V30 BEGIN CTAB
M  V30 COUNTS 52 55 0 0 0
M  V30 BEGIN ATOM
M  V30 1 O -6.0752 0.2424 -1.2937 0
M  V30 2 C -4.9231 0.0175 -0.8371 0
M  V30 3 C -4.0041 1.1436 -0.5997 0
M  V30 4 C -4.5257 -1.3846 -0.4914 0
M  V30 5 C -2.7636 0.9674 -0.1034 0
M  V30 6 C -2.9997 -1.5189 -0.5003 0
M  V30 7 C -2.2787 -0.4163 0.3449 0 CFG=1
M  V30 8 C -1.9769 2.1901 0.2982 0
M  V30 9 C -0.6976 -0.5483 0.232 0 CFG=2
M  V30 10 C -2.6812 -0.5992 1.834 0
M  V30 11 C -0.4896 1.9982 0.0344 0
M  V30 12 C 0.0424 0.7293 0.7312 0 CFG=2
M  V30 13 C -0.1666 -0.9478 -1.1661 0
M  V30 14 C 1.5968 0.631 0.6338 0 CFG=2
M  V30 15 C 1.3481 -1.1887 -1.1415 0
M  V30 16 C 2.187 0.0401 -0.6754 0 CFG=2
M  V30 17 C 2.2045 -0.2026 1.7795 0
M  V30 18 C 3.6241 -0.4118 -0.2242 0 CFG=1
M  V30 19 C 2.2559 1.0745 -1.8314 0
M  V30 20 C 3.4218 -0.9385 1.2159 0
M  V30 21 O 4.1669 -1.3888 -1.0896 0
M  V30 22 C 4.6467 0.7517 -0.1731 0
M  V30 23 H -4.364 2.1421 -0.8206 0
M  V30 24 H -4.9425 -1.6603 0.4992 0
M  V30 25 H -4.9549 -2.0858 -1.2399 0
M  V30 26 H -2.7081 -1.4321 -1.5682 0
M  V30 27 H -2.714 -2.5327 -0.1435 0
M  V30 28 H -2.3139 3.0883 -0.2655 0
M  V30 29 H -2.1438 2.3906 1.3786 0
M  V30 30 H -0.4037 -1.3854 0.9042 0
M  V30 31 H -2.1468 0.1092 2.4968 0
M  V30 32 H -3.7635 -0.4105 1.9915 0
M  V30 33 H -2.453 -1.6306 2.1787 0
M  V30 34 H 0.0474 2.8932 0.4179 0
M  V30 35 H -0.3346 1.9594 -1.0585 0
M  V30 36 H -0.1811 0.8611 1.8119 0
M  V30 37 H -0.602 -1.9197 -1.4756 0
M  V30 38 H -0.4482 -0.1971 -1.9318 0
M  V30 39 H 2.0011 1.66 0.7659 0
M  V30 40 H 1.5235 -2.0557 -0.4686 0
M  V30 41 H 1.6744 -1.5043 -2.1573 0
M  V30 42 H 1.4807 -0.9436 2.1822 0
M  V30 43 H 2.5093 0.4631 2.6169 0
M  V30 44 H 1.2812 1.219 -2.3306 0
M  V30 45 H 2.6037 2.0663 -1.473 0
M  V30 46 H 2.9545 0.7172 -2.6177 0
M  V30 47 H 4.3137 -0.7782 1.8616 0
M  V30 48 H 3.2122 -2.0303 1.2242 0
M  V30 49 H 3.7752 -2.2758 -0.8864 0
M  V30 50 H 4.2909 1.589 0.4623 0
M  V30 51 H 4.865 1.1372 -1.1906 0
M  V30 52 H 5.6117 0.3912 0.2435 0
M  V30 END ATOM
M  V30 BEGIN BOND
M  V30 1 2 1 2
M  V30 2 1 2 3
M  V30 3 1 2 4
M  V30 4 2 3 5
M  V30 5 1 4 6
M  V30 6 1 5 7
M  V30 7 1 5 8
M  V30 8 1 7 9
M  V30 9 1 7 10
M  V30 10 1 8 11
M  V30 11 1 9 12
M  V30 12 1 9 13
M  V30 13 1 12 14
M  V30 14 1 13 15
M  V30 15 1 14 16
M  V30 16 1 14 17
M  V30 17 1 16 18
M  V30 18 1 16 19
M  V30 19 1 17 20
M  V30 20 1 18 21
M  V30 21 1 18 22
M  V30 22 1 6 7
M  V30 23 1 11 12
M  V30 24 1 15 16
M  V30 25 1 18 20
M  V30 26 1 3 23
M  V30 27 1 4 24
M  V30 28 1 4 25
M  V30 29 1 6 26
M  V30 30 1 6 27
M  V30 31 1 8 28
M  V30 32 1 8 29
M  V30 33 1 9 30
M  V30 34 1 10 31
M  V30 35 1 10 32
M  V30 36 1 10 33
M  V30 37 1 11 34
M  V30 38 1 11 35
M  V30 39 1 12 36
M  V30 40 1 13 37
M  V30 41 1 13 38
M  V30 42 1 14 39
M  V30 43 1 15 40
M  V30 44 1 15 41
M  V30 45 1 17 42
M  V30 46 1 17 43
M  V30 47 1 19 44
M  V30 48 1 19 45
M  V30 49 1 19 46
M  V30 50 1 20 47
M  V30 51 1 20 48
M  V30 52 1 21 49
M  V30 53 1 22 50
M  V30 54 1 22 51
M  V30 55 1 22 52
M  V30 END BOND
M  V30 BEGIN COLLECTION
M  V30 MDLV30/STEABS ATOMS=(6 7 9 12 14 16 18)
M  V30 END COLLECTION
M  V30 END CTAB
M  END
>  <Structure No>
6211

>  <LogS>
-3.9505

>  <MMFF94 Energy>
83.091

$$$$
Compound 6212
Actelion Java MolfileCreator 2.0

  0  0  0  0  0  0              0 V3000
M  V30 BEGIN CTAB
M  V30 COUNTS 49 52 0 0 0
M  V30 BEGIN ATOM
M  V30 1 O -5.5946 -1.7002 0.8903 0
M  V30 2 C -4.5462 -1.0434 0.6543 0
M  V30 3 C -3.529 -1.6017 -0.2516 0
M  V30 4 C -4.3769 0.3193 1.2512 0
M  V30 5 C -2.3876 -0.947 -0.5418 0
M  V30 6 C -2.8904 0.679 1.3353 0
M  V30 7 C -2.1286 0.471 -0.0157 0 CFG=1
M  V30 8 C -1.5054 -1.499 -1.6358 0
M  V30 9 C -0.5736 0.7581 0.1541 0 CFG=2
M  V30 10 C -2.6997 1.4693 -1.0592 0
M  V30 11 C -0.035 -1.3112 -1.2898 0
M  V30 12 C 0.2737 0.1742 -1.0263 0 CFG=2
M  V30 13 C 0.0366 0.3709 1.5421 0
M  V30 14 C 1.7629 0.517 -0.7951 0 CFG=1
M  V30 15 C 1.5475 0.7053 1.6775 0
M  V30 16 C 2.3803 0.0752 0.5412 0 CFG=2
M  V30 17 C 2.8073 0.1987 -1.8562 0
M  V30 18 C 3.7968 0.6746 0.364 0 CFG=2
M  V30 19 C 2.4932 -1.4705 0.7476 0
M  V30 20 C 4.145 0.4017 -1.1185 0
M  V30 21 O 4.7464 0.1138 1.2338 0
M  V30 22 H -3.7335 -2.5647 -0.705 0
M  V30 23 H -4.9308 1.0656 0.6448 0
M  V30 24 H -4.8109 0.3322 2.2748 0
M  V30 25 H -2.469 0.0133 2.1181 0
M  V30 26 H -2.7844 1.7296 1.6839 0
M  V30 27 H -1.7386 -0.9811 -2.5911 0
M  V30 28 H -1.6876 -2.5855 -1.7921 0
M  V30 29 H -0.453 1.8653 0.1086 0
M  V30 30 H -2.6516 2.5108 -0.6746 0
M  V30 31 H -3.7563 1.239 -1.3094 0
M  V30 32 H -2.1372 1.4315 -2.0133 0
M  V30 33 H 0.1675 -1.9425 -0.4122 0
M  V30 34 H 0.5748 -1.6854 -2.138 0
M  V30 35 H -0.008 0.7194 -1.9538 0
M  V30 36 H -0.1545 -0.7003 1.7535 0
M  V30 37 H -0.4641 0.9554 2.3424 0
M  V30 38 H 1.7503 1.6379 -0.7822 0
M  V30 39 H 1.6641 1.8119 1.6672 0
M  V30 40 H 1.9193 0.3474 2.6623 0
M  V30 41 H 2.7175 0.8869 -2.7251 0
M  V30 42 H 2.7205 -0.8478 -2.2146 0
M  V30 43 H 3.7585 1.7788 0.5277 0
M  V30 44 H 3.2591 -1.718 1.5102 0
M  V30 45 H 2.7676 -1.999 -0.1875 0
M  V30 46 H 1.5754 -1.9229 1.1581 0
M  V30 47 H 4.705 1.2614 -1.5464 0
M  V30 48 H 4.7679 -0.5148 -1.2128 0
M  V30 49 H 5.578 0.6446 1.1233 0
M  V30 END ATOM
M  V30 BEGIN BOND
M  V30 1 2 1 2
M  V30 2 1 2 3
M  V30 3 1 2 4
M  V30 4 2 3 5
M  V30 5 1 4 6
M  V30 6 1 5 7
M  V30 7 1 5 8
M  V30 8 1 7 9
M  V30 9 1 7 10
M  V30 10 1 8 11
M  V30 11 1 9 12
M  V30 12 1 9 13
M  V30 13 1 12 14
M  V30 14 1 13 15
M  V30 15 1 14 16
M  V30 16 1 14 17
M  V30 17 1 16 18
M  V30 18 1 16 19
M  V30 19 1 17 20
M  V30 20 1 18 21
M  V30 21 1 6 7
M  V30 22 1 11 12
M  V30 23 1 15 16
M  V30 24 1 18 20
M  V30 25 1 3 22
M  V30 26 1 4 23
M  V30 27 1 4 24
M  V30 28 1 6 25
M  V30 29 1 6 26
M  V30 30 1 8 27
M  V30 31 1 8 28
M  V30 32 1 9 29
M  V30 33 1 10 30
M  V30 34 1 10 31
M  V30 35 1 10 32
M  V30 36 1 11 33
M  V30 37 1 11 34
M  V30 38 1 12 35
M  V30 39 1 13 36
M  V30 40 1 13 37
M  V30 41 1 14 38
M  V30 42 1 15 39
M  V30 43 1 15 40
M  V30 44 1 17 41
M  V30 45 1 17 42
M  V30 46 1 18 43
M  V30 47 1 19 44
M  V30 48 1 19 45
M  V30 49 1 19 46
M  V30 50 1 20 47
M  V30 51 1 20 48
M  V30 52 1 21 49
M  V30 END BOND
M  V30 BEGIN COLLECTION
M  V30 MDLV30/STEABS ATOMS=(6 7 9 12 14 16 18)
M  V30 END COLLECTION
M  V30 END CTAB
M  END
>  <Structure No>
6212

>  <LogS>
-4.0908

>  <MMFF94 Energy>
79.944

$$$$
Compound 6213
Actelion Java MolfileCreator 2.0

  0  0  0  0  0  0              0 V3000
M  V30 BEGIN CTAB
M  V30 COUNTS 47 50 0 0 0
M  V30 BEGIN ATOM
M  V30 1 O 4.6328 2.5176 -1.1364 0
M  V30 2 C 3.7886 1.7001 -0.683 0
M  V30 3 C 3.2615 0.6379 -1.5478 0
M  V30 4 C 3.2555 1.8665 0.7012 0
M  V30 5 C 2.4097 -0.2993 -1.0871 0
M  V30 6 C 2.9093 0.4957 1.2771 0
M  V30 7 C 1.9378 -0.338 0.3716 0 CFG=1
M  V30 8 C 1.5838 -1.0599 -2.0866 0
M  V30 9 C 0.4552 0.2122 0.3826 0 CFG=1
M  V30 10 C 2.0062 -1.7977 0.897 0
M  V30 11 C 0.1746 -0.4644 -2.0807 0
M  V30 12 C -0.4642 -0.4971 -0.6645 0 CFG=2
M  V30 13 C -0.2306 0.1201 1.759 0
M  V30 14 C -1.9122 0.1082 -0.712 0 CFG=2
M  V30 15 C -1.5154 0.9366 1.7441 0
M  V30 16 C -2.5331 0.4632 0.6767 0 CFG=2
M  V30 17 C -2.8929 -0.9456 -1.2867 0
M  V30 18 C -3.2194 -0.8129 1.0548 0
M  V30 19 C -3.6131 1.5582 0.5203 0
M  V30 20 C -3.4219 -1.7345 -0.09 0
M  V30 21 O -3.6251 -1.0589 2.181 0
M  V30 22 H 3.5125 0.6764 -2.6014 0
M  V30 23 H 4.0226 2.3501 1.3443 0
M  V30 24 H 2.3599 2.5215 0.6808 0
M  V30 25 H 3.87 -0.0579 1.3883 0
M  V30 26 H 2.5253 0.6199 2.3074 0
M  V30 27 H 1.5458 -2.1378 -1.8271 0
M  V30 28 H 2.0075 -0.9938 -3.113 0
M  V30 29 H 0.5037 1.2857 0.0927 0
M  V30 30 H 1.8047 -1.8324 1.989 0
M  V30 31 H 3.0205 -2.2205 0.7287 0
M  V30 32 H 1.2827 -2.4742 0.4053 0
M  V30 33 H -0.4397 -1.0366 -2.8051 0
M  V30 34 H 0.224 0.5859 -2.445 0
M  V30 35 H -0.559 -1.563 -0.3669 0
M  V30 36 H 0.4053 0.5349 2.5627 0
M  V30 37 H -0.461 -0.9359 2.0194 0
M  V30 38 H -1.8988 1.012 -1.3626 0
M  V30 39 H -1.2452 2.0009 1.5595 0
M  V30 40 H -1.9783 0.9017 2.7551 0
M  V30 41 H -3.7382 -0.4253 -1.7888 0
M  V30 42 H -2.4371 -1.6317 -2.0294 0
M  V30 43 H -3.16 2.5007 0.1442 0
M  V30 44 H -4.4062 1.2499 -0.194 0
M  V30 45 H -4.0974 1.7703 1.4984 0
M  V30 46 H -2.8307 -2.6621 0.0666 0
M  V30 47 H -4.4983 -1.9789 -0.2182 0
M  V30 END ATOM
M  V30 BEGIN BOND
M  V30 1 2 1 2
M  V30 2 1 2 3
M  V30 3 1 2 4
M  V30 4 2 3 5
M  V30 5 1 4 6
M  V30 6 1 5 7
M  V30 7 1 5 8
M  V30 8 1 7 9
M  V30 9 1 7 10
M  V30 10 1 8 11
M  V30 11 1 9 12
M  V30 12 1 9 13
M  V30 13 1 12 14
M  V30 14 1 13 15
M  V30 15 1 14 16
M  V30 16 1 14 17
M  V30 17 1 16 18
M  V30 18 1 16 19
M  V30 19 1 17 20
M  V30 20 2 18 21
M  V30 21 1 6 7
M  V30 22 1 11 12
M  V30 23 1 15 16
M  V30 24 1 18 20
M  V30 25 1 3 22
M  V30 26 1 4 23
M  V30 27 1 4 24
M  V30 28 1 6 25
M  V30 29 1 6 26
M  V30 30 1 8 27
M  V30 31 1 8 28
M  V30 32 1 9 29
M  V30 33 1 10 30
M  V30 34 1 10 31
M  V30 35 1 10 32
M  V30 36 1 11 33
M  V30 37 1 11 34
M  V30 38 1 12 35
M  V30 39 1 13 36
M  V30 40 1 13 37
M  V30 41 1 14 38
M  V30 42 1 15 39
M  V30 43 1 15 40
M  V30 44 1 17 41
M  V30 45 1 17 42
M  V30 46 1 19 43
M  V30 47 1 19 44
M  V30 48 1 19 45
M  V30 49 1 20 46
M  V30 50 1 20 47
M  V30 END BOND
M  V30 BEGIN COLLECTION
M  V30 MDLV30/STEABS ATOMS=(5 7 9 12 14 16)
M  V30 END COLLECTION
M  V30 END CTAB
M  END
>  <Structure No>
6213

>  <LogS>
-3.6949

>  <MMFF94 Energy>
59.64

$$$$
Compound 6214
Actelion Java MolfileCreator 2.0

  0  0  0  0  0  0              0 V3000
M  V30 BEGIN CTAB
M  V30 COUNTS 54 57 0 0 0
M  V30 BEGIN ATOM
M  V30 1 O -6.1635 -0.6474 1.7812 0
M  V30 2 C -5.0438 -0.2935 1.3261 0
M  V30 3 C -4.3796 -1.1219 0.3115 0
M  V30 4 C -4.4346 0.9929 1.781 0
M  V30 5 C -3.1771 -0.8022 -0.2012 0
M  V30 6 C -2.9141 0.9725 1.5932 0
M  V30 7 C -2.4694 0.5148 0.1636 0 CFG=1
M  V30 8 C -2.62 -1.6697 -1.3104 0
M  V30 9 C -0.9111 0.265 0.1697 0 CFG=1
M  V30 10 C -2.8765 1.5985 -0.8676 0
M  V30 11 C -1.1034 -1.8373 -1.1944 0
M  V30 12 C -0.4147 -0.4674 -1.1038 0 CFG=2
M  V30 13 C -0.0488 1.5194 0.375 0
M  V30 14 C 1.1473 -0.5903 -1.1959 0 CFG=2
M  V30 15 C 1.4161 1.1623 0.696 0
M  V30 16 C 1.9585 -0.1719 0.0571 0 CFG=2
M  V30 17 C 1.7445 0.249 -2.3436 0
M  V30 18 C 3.3794 0.0078 -0.5455 0 CFG=1
M  V30 19 C 1.9955 -1.3137 1.1066 0
M  V30 20 C 3.1573 0.6519 -1.9162 0
M  V30 21 C 4.3874 0.7425 0.3357 0
M  V30 22 O 4.4548 1.9624 0.297 0
M  V30 23 C 5.3224 0.0203 1.2775 0
M  V30 24 O 5.2324 -1.3738 1.1567 0
M  V30 25 H -4.8886 -2.0214 -0.0153 0
M  V30 26 H -4.885 1.8336 1.2128 0
M  V30 27 H -4.6639 1.1524 2.8571 0
M  V30 28 H -2.4874 0.2858 2.358 0
M  V30 29 H -2.5392 1.9919 1.8203 0
M  V30 30 H -3.078 -2.6835 -1.2988 0
M  V30 31 H -2.8691 -1.203 -2.288 0
M  V30 32 H -0.7277 -0.3959 1.0391 0
M  V30 33 H -3.9806 1.7 -0.9185 0
M  V30 34 H -2.4572 2.5888 -0.5917 0
M  V30 35 H -2.5403 1.3479 -1.8919 0
M  V30 36 H -0.7433 -2.3821 -2.0945 0
M  V30 37 H -0.8583 -2.4515 -0.2996 0
M  V30 38 H -0.7528 0.1017 -1.9938 0
M  V30 39 H -0.0791 2.1434 -0.5451 0
M  V30 40 H -0.433 2.1454 1.2042 0
M  V30 41 H 1.4114 -1.6487 -1.4301 0
M  V30 42 H 1.5394 1.1263 1.801 0
M  V30 43 H 2.0106 2.0351 0.3605 0
M  V30 44 H 1.151 1.1725 -2.5238 0
M  V30 45 H 1.7686 -0.3416 -3.2856 0
M  V30 46 H 3.7929 -1.0009 -0.7706 0
M  V30 47 H 0.9914 -1.5801 1.4809 0
M  V30 48 H 2.4348 -2.2387 0.6753 0
M  V30 49 H 2.6135 -1.0167 1.9797 0
M  V30 50 H 3.2197 1.761 -1.8623 0
M  V30 51 H 3.9129 0.2922 -2.6487 0
M  V30 52 H 5.0586 0.3008 2.3187 0
M  V30 53 H 6.3684 0.3577 1.0936 0
M  V30 54 H 5.8187 -1.6328 0.3985 0
M  V30 END ATOM
M  V30 BEGIN BOND
M  V30 1 2 1 2
M  V30 2 1 2 3
M  V30 3 1 2 4
M  V30 4 2 3 5
M  V30 5 1 4 6
M  V30 6 1 5 7
M  V30 7 1 5 8
M  V30 8 1 7 9
M  V30 9 1 7 10
M  V30 10 1 8 11
M  V30 11 1 9 12
M  V30 12 1 9 13
M  V30 13 1 12 14
M  V30 14 1 13 15
M  V30 15 1 14 16
M  V30 16 1 14 17
M  V30 17 1 16 18
M  V30 18 1 16 19
M  V30 19 1 17 20
M  V30 20 1 18 21
M  V30 21 2 21 22
M  V30 22 1 21 23
M  V30 23 1 23 24
M  V30 24 1 6 7
M  V30 25 1 11 12
M  V30 26 1 15 16
M  V30 27 1 18 20
M  V30 28 1 3 25
M  V30 29 1 4 26
M  V30 30 1 4 27
M  V30 31 1 6 28
M  V30 32 1 6 29
M  V30 33 1 8 30
M  V30 34 1 8 31
M  V30 35 1 9 32
M  V30 36 1 10 33
M  V30 37 1 10 34
M  V30 38 1 10 35
M  V30 39 1 11 36
M  V30 40 1 11 37
M  V30 41 1 12 38
M  V30 42 1 13 39
M  V30 43 1 13 40
M  V30 44 1 14 41
M  V30 45 1 15 42
M  V30 46 1 15 43
M  V30 47 1 17 44
M  V30 48 1 17 45
M  V30 49 1 18 46
M  V30 50 1 19 47
M  V30 51 1 19 48
M  V30 52 1 19 49
M  V30 53 1 20 50
M  V30 54 1 20 51
M  V30 55 1 23 52
M  V30 56 1 23 53
M  V30 57 1 24 54
M  V30 END BOND
M  V30 BEGIN COLLECTION
M  V30 MDLV30/STEABS ATOMS=(6 7 9 12 14 16 18)
M  V30 END COLLECTION
M  V30 END CTAB
M  END
>  <Structure No>
6214

>  <LogS>
-3.7446

>  <MMFF94 Energy>
96.282

$$$$
Compound 6215
Actelion Java MolfileCreator 2.0

  0  0  0  0  0  0              0 V3000
M  V30 BEGIN CTAB
M  V30 COUNTS 65 68 0 0 0
M  V30 BEGIN ATOM
M  V30 1 F -1.8724 1.7095 -0.4882 0
M  V30 2 C -2.1924 0.3751 -0.7001 0 CFG=1
M  V30 3 C -3.7807 0.315 -0.7519 0 CFG=1
M  V30 4 C -1.4903 -0.0451 -2.0241 0 CFG=2
M  V30 5 C -1.6059 -0.4606 0.4873 0 CFG=1
M  V30 6 C -4.3065 0.6216 0.6609 0
M  V30 7 C -4.2928 1.3179 -1.7905 0
M  V30 8 C -4.355 -1.0646 -1.1619 0
M  V30 9 O -1.8425 -1.3472 -2.409 0
M  V30 10 C 0.043 0.0761 -1.9113 0
M  V30 11 C -0.0453 -0.435 0.5864 0 CFG=1
M  V30 12 C -2.2406 -0.0604 1.8393 0
M  V30 13 C -5.2422 1.5561 0.8989 0
M  V30 14 C -3.7601 -0.1886 1.8078 0
M  V30 15 C -5.2157 2.2448 -1.5296 0
M  V30 16 C 0.7016 -0.7227 -0.7323 0 CFG=2
M  V30 17 C 0.5743 0.8566 1.1489 0
M  V30 18 C -5.7567 2.3958 -0.1814 0
M  V30 19 C 2.1605 -0.177 -0.4602 0 CFG=2
M  V30 20 C 0.6995 -2.2443 -1.0531 0
M  V30 21 C 1.9591 1.0252 0.5081 0 CFG=1
M  V30 22 O -6.647 3.2546 0.0522 0
M  V30 23 O 2.7575 0.2874 -1.6545 0
M  V30 24 C 3.1088 -1.2192 0.1707 0
M  V30 25 O 2.0013 2.2789 -0.1824 0
M  V30 26 O 3.8948 -1.8129 -0.5544 0
M  V30 27 C 3.0852 -1.6073 1.6329 0
M  V30 28 C 3.1892 2.9379 -0.5194 0
M  V30 29 O 4.3317 -1.2913 2.2517 0
M  V30 30 O 4.3077 2.4682 -0.1751 0
M  V30 31 C 3.1279 4.2314 -1.2585 0
M  V30 32 C 5.4768 -2.0884 2.1338 0
M  V30 33 O 5.4369 -3.1907 1.5221 0
M  V30 34 C 6.742 -1.6575 2.7964 0
M  V30 35 H -1.802 0.6635 -2.824 0
M  V30 36 H -1.8752 -1.5246 0.3164 0
M  V30 37 H -3.9626 1.2261 -2.8167 0
M  V30 38 H -5.4469 -1.1012 -0.951 0
M  V30 39 H -3.8795 -1.9006 -0.6122 0
M  V30 40 H -4.246 -1.2511 -2.2504 0
M  V30 41 H -1.6151 -1.4388 -3.3715 0
M  V30 42 H 0.2798 1.1576 -1.8104 0
M  V30 43 H 0.4879 -0.2432 -2.8791 0
M  V30 44 H 0.218 -1.2428 1.3053 0
M  V30 45 H -1.9817 0.9894 2.0981 0
M  V30 46 H -1.8448 -0.7162 2.6456 0
M  V30 47 H -5.6114 1.7238 1.9042 0
M  V30 48 H -4.1661 0.1527 2.7857 0
M  V30 49 H -4.0484 -1.2545 1.6874 0
M  V30 50 H -5.5689 2.8899 -2.3248 0
M  V30 51 H 0.666 0.7842 2.2553 0
M  V30 52 H -0.0473 1.7472 0.9374 0
M  V30 53 H -0.3233 -2.6484 -1.1575 0
M  V30 54 H 1.2594 -2.4443 -1.9903 0
M  V30 55 H 1.1575 -2.8369 -0.2354 0
M  V30 56 H 2.7272 1.0487 1.3138 0
M  V30 57 H 2.7732 -0.4625 -2.305 0
M  V30 58 H 2.2903 -1.0783 2.1861 0
M  V30 59 H 2.8711 -2.6934 1.7295 0
M  V30 60 H 3.9065 4.2538 -2.0493 0
M  V30 61 H 2.1312 4.3518 -1.7331 0
M  V30 62 H 3.2972 5.0706 -0.5515 0
M  V30 63 H 6.8127 -0.5483 2.7917 0
M  V30 64 H 7.6213 -2.0751 2.2589 0
M  V30 65 H 6.7513 -2.0207 3.8457 0
M  V30 END ATOM
M  V30 BEGIN BOND
M  V30 1 1 1 2
M  V30 2 1 2 3
M  V30 3 1 2 4
M  V30 4 1 2 5
M  V30 5 1 3 6
M  V30 6 1 3 7
M  V30 7 1 3 8
M  V30 8 1 4 9
M  V30 9 1 4 10
M  V30 10 1 5 11
M  V30 11 1 5 12
M  V30 12 2 6 13
M  V30 13 1 6 14
M  V30 14 2 7 15
M  V30 15 1 10 16
M  V30 16 1 11 17
M  V30 17 1 13 18
M  V30 18 1 16 19
M  V30 19 1 16 20
M  V30 20 1 17 21
M  V30 21 2 18 22
M  V30 22 1 19 23
M  V30 23 1 19 24
M  V30 24 1 21 25
M  V30 25 2 24 26
M  V30 26 1 24 27
M  V30 27 1 25 28
M  V30 28 1 27 29
M  V30 29 2 28 30
M  V30 30 1 28 31
M  V30 31 1 29 32
M  V30 32 2 32 33
M  V30 33 1 32 34
M  V30 34 1 11 16
M  V30 35 1 12 14
M  V30 36 1 15 18
M  V30 37 1 19 21
M  V30 38 1 4 35
M  V30 39 1 5 36
M  V30 40 1 7 37
M  V30 41 1 8 38
M  V30 42 1 8 39
M  V30 43 1 8 40
M  V30 44 1 9 41
M  V30 45 1 10 42
M  V30 46 1 10 43
M  V30 47 1 11 44
M  V30 48 1 12 45
M  V30 49 1 12 46
M  V30 50 1 13 47
M  V30 51 1 14 48
M  V30 52 1 14 49
M  V30 53 1 15 50
M  V30 54 1 17 51
M  V30 55 1 17 52
M  V30 56 1 20 53
M  V30 57 1 20 54
M  V30 58 1 20 55
M  V30 59 1 21 56
M  V30 60 1 23 57
M  V30 61 1 27 58
M  V30 62 1 27 59
M  V30 63 1 31 60
M  V30 64 1 31 61
M  V30 65 1 31 62
M  V30 66 1 34 63
M  V30 67 1 34 64
M  V30 68 1 34 65
M  V30 END BOND
M  V30 BEGIN COLLECTION
M  V30 MDLV30/STEABS ATOMS=(8 2 3 4 5 11 16 19 21)
M  V30 END COLLECTION
M  V30 END CTAB
M  END
>  <Structure No>
6215

>  <LogS>
-4.1297

>  <MMFF94 Energy>
156.71

$$$$
Compound 6216
Actelion Java MolfileCreator 2.0

  0  0  0  0  0  0              0 V3000
M  V30 BEGIN CTAB
M  V30 COUNTS 54 57 0 0 0
M  V30 BEGIN ATOM
M  V30 1 O 6.4932 0.4049 0.4049 0
M  V30 2 C 5.259 0.1642 0.3317 0
M  V30 3 C 4.3031 1.0646 0.991 0
M  V30 4 C 4.7846 -1.068 -0.3687 0
M  V30 5 C 2.9729 0.8677 0.9247 0
M  V30 6 C 3.3515 -0.879 -0.8736 0
M  V30 7 C 2.3726 -0.3644 0.2326 0 CFG=2
M  V30 8 C 2.0716 1.7522 1.752 0
M  V30 9 C 1.0084 0.0399 -0.4529 0 CFG=2
M  V30 10 C 2.1739 -1.4631 1.3113 0
M  V30 11 C 0.8071 2.1189 0.9822 0
M  V30 12 C 0.0688 0.8568 0.4897 0 CFG=1
M  V30 13 C 0.2772 -1.1471 -1.1604 0
M  V30 14 C -1.2416 1.2396 -0.2566 0 CFG=1
M  V30 15 C -1.1836 -1.3143 -0.727 0
M  V30 16 C -2.0009 0.0093 -0.8596 0 CFG=1
M  V30 17 C -2.2515 1.9846 0.6352 0
M  V30 18 C -3.3824 -0.0426 -0.0944 0 CFG=1
M  V30 19 C -2.2379 0.2844 -2.3763 0
M  V30 20 C -3.6227 1.4134 0.3117 0
M  V30 21 O -4.4378 -0.4457 -0.9393 0
M  V30 22 C -3.3802 -0.9073 1.1776 0
M  V30 23 O -2.6308 -0.6329 2.1039 0
M  V30 24 C -4.2855 -2.0982 1.3243 0
M  V30 25 H 4.7021 1.905 1.5472 0
M  V30 26 H 5.4487 -1.2853 -1.2332 0
M  V30 27 H 4.8383 -1.9307 0.3281 0
M  V30 28 H 3.0066 -1.8458 -1.2962 0
M  V30 29 H 3.3812 -0.1498 -1.7142 0
M  V30 30 H 1.798 1.2179 2.6874 0
M  V30 31 H 2.5845 2.6958 2.043 0
M  V30 32 H 1.2743 0.7481 -1.2727 0
M  V30 33 H 1.9308 -2.4478 0.8646 0
M  V30 34 H 3.1005 -1.5975 1.909 0
M  V30 35 H 1.3689 -1.1983 2.0246 0
M  V30 36 H 0.1563 2.7125 1.6585 0
M  V30 37 H 1.0765 2.7681 0.1193 0
M  V30 38 H -0.2031 0.2455 1.3753 0
M  V30 39 H 0.3191 -1.003 -2.2611 0
M  V30 40 H 0.7802 -2.1164 -0.9852 0
M  V30 41 H -0.95 1.9464 -1.0685 0
M  V30 42 H -1.1539 -1.6821 0.3176 0
M  V30 43 H -1.6585 -2.1204 -1.3277 0
M  V30 44 H -2.04 1.8227 1.7143 0
M  V30 45 H -2.2294 3.0793 0.4404 0
M  V30 46 H -1.2854 0.5115 -2.8992 0
M  V30 47 H -2.9079 1.1585 -2.5216 0
M  V30 48 H -2.6935 -0.5922 -2.883 0
M  V30 49 H -4.0574 1.9822 -0.5404 0
M  V30 50 H -4.3171 1.51 1.1762 0
M  V30 51 H -4.2193 -1.3518 -1.2807 0
M  V30 52 H -5.3418 -1.791 1.1753 0
M  V30 53 H -4.0121 -2.8714 0.5766 0
M  V30 54 H -4.1887 -2.5415 2.3386 0
M  V30 END ATOM
M  V30 BEGIN BOND
M  V30 1 2 1 2
M  V30 2 1 2 3
M  V30 3 1 2 4
M  V30 4 2 3 5
M  V30 5 1 4 6
M  V30 6 1 5 7
M  V30 7 1 5 8
M  V30 8 1 7 9
M  V30 9 1 7 10
M  V30 10 1 8 11
M  V30 11 1 9 12
M  V30 12 1 9 13
M  V30 13 1 12 14
M  V30 14 1 13 15
M  V30 15 1 14 16
M  V30 16 1 14 17
M  V30 17 1 16 18
M  V30 18 1 16 19
M  V30 19 1 17 20
M  V30 20 1 18 21
M  V30 21 1 18 22
M  V30 22 2 22 23
M  V30 23 1 22 24
M  V30 24 1 6 7
M  V30 25 1 11 12
M  V30 26 1 15 16
M  V30 27 1 18 20
M  V30 28 1 3 25
M  V30 29 1 4 26
M  V30 30 1 4 27
M  V30 31 1 6 28
M  V30 32 1 6 29
M  V30 33 1 8 30
M  V30 34 1 8 31
M  V30 35 1 9 32
M  V30 36 1 10 33
M  V30 37 1 10 34
M  V30 38 1 10 35
M  V30 39 1 11 36
M  V30 40 1 11 37
M  V30 41 1 12 38
M  V30 42 1 13 39
M  V30 43 1 13 40
M  V30 44 1 14 41
M  V30 45 1 15 42
M  V30 46 1 15 43
M  V30 47 1 17 44
M  V30 48 1 17 45
M  V30 49 1 19 46
M  V30 50 1 19 47
M  V30 51 1 19 48
M  V30 52 1 20 49
M  V30 53 1 20 50
M  V30 54 1 21 51
M  V30 55 1 24 52
M  V30 56 1 24 53
M  V30 57 1 24 54
M  V30 END BOND
M  V30 BEGIN COLLECTION
M  V30 MDLV30/STEABS ATOMS=(6 7 9 12 14 16 18)
M  V30 END COLLECTION
M  V30 END CTAB
M  END
>  <Structure No>
6216

>  <LogS>
-4.7076

>  <MMFF94 Energy>
106

$$$$
Compound 6217
Actelion Java MolfileCreator 2.0

  0  0  0  0  0  0              0 V3000
M  V30 BEGIN CTAB
M  V30 COUNTS 56 59 0 0 0
M  V30 BEGIN ATOM
M  V30 1 F -1.0576 0.1626 2.0346 0
M  V30 2 C -1.1375 -0.0548 0.6654 0 CFG=2
M  V30 3 C -2.6743 -0.2793 0.336 0 CFG=1
M  V30 4 C -0.2101 -1.289 0.331 0 CFG=1
M  V30 5 C -0.5868 1.2139 -0.041 0 CFG=1
M  V30 6 C -2.8748 -0.2564 -1.179 0
M  V30 7 C -3.1746 -1.6241 0.9712 0
M  V30 8 C -3.5438 0.8633 0.9398 0
M  V30 9 O -0.7106 -2.015 -0.7647 0
M  V30 10 C 1.273 -0.9407 0.0223 0
M  V30 11 C 0.845 1.554 0.5063 0 CFG=1
M  V30 12 C -0.7555 1.0911 -1.5838 0
M  V30 13 C -3.8053 -1.0248 -1.775 0
M  V30 14 C -2.2164 0.844 -1.9853 0
M  V30 15 C -4.5562 -2.0567 0.4685 0
M  V30 16 C 1.8281 0.3426 0.7021 0 CFG=2
M  V30 17 C 1.5923 2.6266 -0.3035 0
M  V30 18 C -4.6239 -1.9893 -1.0253 0
M  V30 19 C 3.1818 0.8278 0.0357 0 CFG=1
M  V30 20 C 2.0421 0.0205 2.21 0
M  V30 21 C 2.7431 1.9048 -0.9732 0
M  V30 22 O -5.4473 -2.7163 -1.6427 0
M  V30 23 O 4.0472 1.4292 0.9825 0
M  V30 24 C 3.9885 -0.2789 -0.6526 0
M  V30 25 O 3.8177 -0.5238 -1.8393 0
M  V30 26 C 5.0356 -1.065 0.0989 0
M  V30 27 O 4.9493 -2.4318 -0.2191 0
M  V30 28 H -0.2166 -1.9514 1.2286 0
M  V30 29 H -1.1974 2.0898 0.2569 0
M  V30 30 H -3.2087 -1.5319 2.079 0
M  V30 31 H -2.4918 -2.4672 0.759 0
M  V30 32 H -3.3047 1.8567 0.5178 0
M  V30 33 H -3.4273 0.9178 2.0427 0
M  V30 34 H -4.6199 0.7084 0.7193 0
M  V30 35 H -0.3006 -2.9191 -0.7287 0
M  V30 36 H 1.4007 -0.8542 -1.0732 0
M  V30 37 H 1.8993 -1.8152 0.3085 0
M  V30 38 H 0.6655 2.0155 1.5055 0
M  V30 39 H -0.4505 2.0237 -2.0942 0
M  V30 40 H -0.1366 0.2862 -2.0124 0
M  V30 41 H -3.977 -0.9385 -2.8419 0
M  V30 42 H -2.2383 0.6062 -3.072 0
M  V30 43 H -2.7978 1.7804 -1.8461 0
M  V30 44 H -5.3516 -1.4178 0.9037 0
M  V30 45 H -4.7515 -3.0996 0.8024 0
M  V30 46 H 0.9737 3.1879 -1.026 0
M  V30 47 H 2.0017 3.3938 0.389 0
M  V30 48 H 2.256 0.935 2.8016 0
M  V30 49 H 2.8908 -0.683 2.3443 0
M  V30 50 H 1.1541 -0.4591 2.6631 0
M  V30 51 H 3.5713 2.6044 -1.2195 0
M  V30 52 H 2.3605 1.4523 -1.9138 0
M  V30 53 H 3.5912 2.1914 1.42 0
M  V30 54 H 6.046 -0.6636 -0.155 0
M  V30 55 H 4.9007 -0.9534 1.1964 0
M  V30 56 H 5.4631 -2.5611 -1.0628 0
M  V30 END ATOM
M  V30 BEGIN BOND
M  V30 1 1 1 2
M  V30 2 1 2 3
M  V30 3 1 2 4
M  V30 4 1 2 5
M  V30 5 1 3 6
M  V30 6 1 3 7
M  V30 7 1 3 8
M  V30 8 1 4 9
M  V30 9 1 4 10
M  V30 10 1 5 11
M  V30 11 1 5 12
M  V30 12 2 6 13
M  V30 13 1 6 14
M  V30 14 1 7 15
M  V30 15 1 10 16
M  V30 16 1 11 17
M  V30 17 1 13 18
M  V30 18 1 16 19
M  V30 19 1 16 20
M  V30 20 1 17 21
M  V30 21 2 18 22
M  V30 22 1 19 23
M  V30 23 1 19 24
M  V30 24 2 24 25
M  V30 25 1 24 26
M  V30 26 1 26 27
M  V30 27 1 11 16
M  V30 28 1 12 14
M  V30 29 1 15 18
M  V30 30 1 19 21
M  V30 31 1 4 28
M  V30 32 1 5 29
M  V30 33 1 7 30
M  V30 34 1 7 31
M  V30 35 1 8 32
M  V30 36 1 8 33
M  V30 37 1 8 34
M  V30 38 1 9 35
M  V30 39 1 10 36
M  V30 40 1 10 37
M  V30 41 1 11 38
M  V30 42 1 12 39
M  V30 43 1 12 40
M  V30 44 1 13 41
M  V30 45 1 14 42
M  V30 46 1 14 43
M  V30 47 1 15 44
M  V30 48 1 15 45
M  V30 49 1 17 46
M  V30 50 1 17 47
M  V30 51 1 20 48
M  V30 52 1 20 49
M  V30 53 1 20 50
M  V30 54 1 21 51
M  V30 55 1 21 52
M  V30 56 1 23 53
M  V30 57 1 26 54
M  V30 58 1 26 55
M  V30 59 1 27 56
M  V30 END BOND
M  V30 BEGIN COLLECTION
M  V30 MDLV30/STEABS ATOMS=(7 2 3 4 5 11 16 19)
M  V30 END COLLECTION
M  V30 END CTAB
M  END
>  <Structure No>
6217

>  <LogS>
-3.4342

>  <MMFF94 Energy>
170.33

$$$$
Compound 6218
Actelion Java MolfileCreator 2.0

  0  0  0  0  0  0              0 V3000
M  V30 BEGIN CTAB
M  V30 COUNTS 56 59 0 0 0
M  V30 BEGIN ATOM
M  V30 1 F 0.9756 0.2438 1.5451 0
M  V30 2 C 0.9166 0.6048 0.2075 0 CFG=2
M  V30 3 C 2.4255 0.8654 -0.1825 0 CFG=2
M  V30 4 C -0.0654 1.8197 0.1451 0 CFG=1
M  V30 5 C 0.3322 -0.5805 -0.6371 0 CFG=2
M  V30 6 C 3.179 -0.4863 -0.0214 0
M  V30 7 C 2.9953 1.9639 0.7206 0
M  V30 8 C 2.6346 1.3717 -1.6305 0
M  V30 9 O -0.254 2.2292 -1.1861 0
M  V30 10 C -1.4485 1.4735 0.7963 0
M  V30 11 C -1.2289 -0.61 -0.6454 0 CFG=2
M  V30 12 C 1.0663 -1.8871 -0.313 0
M  V30 13 C 4.3872 -0.5298 0.5815 0
M  V30 14 C 2.5665 -1.7479 -0.6665 0 CFG=2
M  V30 15 C 4.1756 1.8717 1.3284 0
M  V30 16 C -1.9424 -0.0062 0.5707 0 CFG=2
M  V30 17 C -1.995 -1.8816 -0.9731 0
M  V30 18 C 4.9535 0.6432 1.246 0
M  V30 19 C 3.278 -3.073 -0.3337 0
M  V30 20 C -3.4568 -0.1836 0.1562 0 CFG=1
M  V30 21 C -1.6964 -0.8684 1.8603 0
M  V30 22 C -3.4587 -1.5352 -0.6272 0
M  V30 23 O 6.0972 0.5839 1.7694 0
M  V30 24 O -4.2912 -0.3181 1.2869 0
M  V30 25 C -4.0109 0.9326 -0.747 0
M  V30 26 O -3.552 1.1086 -1.866 0
M  V30 27 C -5.141 1.8177 -0.2985 0
M  V30 28 H 0.3514 2.667 0.7299 0
M  V30 29 H 0.5761 -0.3943 -1.7033 0
M  V30 30 H 2.5023 2.9246 0.7651 0
M  V30 31 H 3.7189 1.5351 -1.8153 0
M  V30 32 H 2.2949 0.6566 -2.4024 0
M  V30 33 H 2.1289 2.3447 -1.7966 0
M  V30 34 H -0.6182 3.1524 -1.1578 0
M  V30 35 H -2.1916 2.2124 0.4379 0
M  V30 36 H -1.3727 1.68 1.8859 0
M  V30 37 H -1.4729 0.0558 -1.5021 0
M  V30 38 H 0.6373 -2.7102 -0.9239 0
M  V30 39 H 0.9495 -2.1576 0.7564 0
M  V30 40 H 4.9676 -1.4382 0.6368 0
M  V30 41 H 2.6467 -1.6241 -1.7685 0
M  V30 42 H 4.5634 2.717 1.8838 0
M  V30 43 H -1.8842 -2.1541 -2.0454 0
M  V30 44 H -1.6468 -2.7266 -0.3411 0
M  V30 45 H 2.7337 -3.9285 -0.7882 0
M  V30 46 H 3.3228 -3.2301 0.7654 0
M  V30 47 H 4.3032 -3.0823 -0.7602 0
M  V30 48 H -0.6569 -1.185 2.0058 0
M  V30 49 H -2.273 -1.8168 1.8385 0
M  V30 50 H -2.0186 -0.3221 2.7718 0
M  V30 51 H -4.0688 -1.481 -1.5559 0
M  V30 52 H -3.8876 -2.352 -0.0053 0
M  V30 53 H -4.1404 0.4739 1.8666 0
M  V30 54 H -5.4226 2.532 -1.1017 0
M  V30 55 H -6.0292 1.1996 -0.0515 0
M  V30 56 H -4.8328 2.4004 0.5942 0
M  V30 END ATOM
M  V30 BEGIN BOND
M  V30 1 1 1 2
M  V30 2 1 2 3
M  V30 3 1 2 4
M  V30 4 1 2 5
M  V30 5 1 3 6
M  V30 6 1 3 7
M  V30 7 1 3 8
M  V30 8 1 4 9
M  V30 9 1 4 10
M  V30 10 1 5 11
M  V30 11 1 5 12
M  V30 12 2 6 13
M  V30 13 1 6 14
M  V30 14 2 7 15
M  V30 15 1 10 16
M  V30 16 1 11 17
M  V30 17 1 13 18
M  V30 18 1 14 19
M  V30 19 1 16 20
M  V30 20 1 16 21
M  V30 21 1 17 22
M  V30 22 2 18 23
M  V30 23 1 20 24
M  V30 24 1 20 25
M  V30 25 2 25 26
M  V30 26 1 25 27
M  V30 27 1 11 16
M  V30 28 1 12 14
M  V30 29 1 15 18
M  V30 30 1 20 22
M  V30 31 1 4 28
M  V30 32 1 5 29
M  V30 33 1 7 30
M  V30 34 1 8 31
M  V30 35 1 8 32
M  V30 36 1 8 33
M  V30 37 1 9 34
M  V30 38 1 10 35
M  V30 39 1 10 36
M  V30 40 1 11 37
M  V30 41 1 12 38
M  V30 42 1 12 39
M  V30 43 1 13 40
M  V30 44 1 14 41
M  V30 45 1 15 42
M  V30 46 1 17 43
M  V30 47 1 17 44
M  V30 48 1 19 45
M  V30 49 1 19 46
M  V30 50 1 19 47
M  V30 51 1 21 48
M  V30 52 1 21 49
M  V30 53 1 21 50
M  V30 54 1 22 51
M  V30 55 1 22 52
M  V30 56 1 24 53
M  V30 57 1 27 54
M  V30 58 1 27 55
M  V30 59 1 27 56
M  V30 END BOND
M  V30 BEGIN COLLECTION
M  V30 MDLV30/STEABS ATOMS=(8 2 3 4 5 11 14 16 20)
M  V30 END COLLECTION
M  V30 END CTAB
M  END
>  <Structure No>
6218

>  <LogS>
-4.0986

>  <MMFF94 Energy>
166.17

$$$$
Compound 6219
Actelion Java MolfileCreator 2.0

  0  0  0  0  0  0              0 V3000
M  V30 BEGIN CTAB
M  V30 COUNTS 62 65 0 0 0
M  V30 BEGIN ATOM
M  V30 1 F -2.6025 -1.6259 -1.3819 0
M  V30 2 C -2.1251 -0.7876 -0.376 0 CFG=1
M  V30 3 C -3.4218 -0.1532 0.2977 0 CFG=1
M  V30 4 C -1.2973 -1.6926 0.6127 0 CFG=1
M  V30 5 C -1.2057 0.2361 -1.1461 0 CFG=2
M  V30 6 C -4.049 0.8339 -0.6936 0
M  V30 7 C -4.3767 -1.2909 0.6683 0
M  V30 8 C -3.1786 0.6323 1.6115 0
M  V30 9 O -1.6651 -3.041 0.4431 0
M  V30 10 C 0.2249 -1.5617 0.4096 0
M  V30 11 C -0.1095 0.9224 -0.2707 0 CFG=1
M  V30 12 C -2.0184 1.2187 -2.0291 0
M  V30 13 C -5.3519 0.8027 -1.0192 0
M  V30 14 C -3.1586 1.8928 -1.2815 0
M  V30 15 C -5.6671 -1.3077 0.3318 0
M  V30 16 C 0.7335 -0.0891 0.5836 0 CFG=2
M  V30 17 C 0.8919 1.7244 -1.1281 0
M  V30 18 C -6.2294 -0.2461 -0.4996 0
M  V30 19 C 2.2384 0.1043 0.1108 0 CFG=1
M  V30 20 C 0.5912 0.2781 2.0963 0
M  V30 21 C 2.2811 1.5177 -0.5311 0 CFG=2
M  V30 22 O -7.4559 -0.2461 -0.7844 0
M  V30 23 O 3.1409 0.0502 1.196 0
M  V30 24 C 2.6855 -0.9042 -0.9673 0
M  V30 25 C 2.6424 2.673 0.4244 0
M  V30 26 O 2.1364 -0.9076 -2.0607 0
M  V30 27 C 3.8157 -1.872 -0.7413 0
M  V30 28 O 5.0283 -1.1513 -0.548 0
M  V30 29 C 6.2439 -1.7818 -0.2717 0
M  V30 30 O 6.3091 -3.0361 -0.1589 0
M  V30 31 C 7.4634 -0.9523 -0.0512 0
M  V30 32 H -1.509 -1.4225 1.6622 0
M  V30 33 H -0.6367 -0.3734 -1.8852 0
M  V30 34 H -4.0127 -2.089 1.3034 0
M  V30 35 H -2.9092 -0.0225 2.4641 0
M  V30 36 H -4.1159 1.1476 1.918 0
M  V30 37 H -2.4118 1.4147 1.5049 0
M  V30 38 H -1.3479 -3.5371 1.2437 0
M  V30 39 H 0.756 -2.2273 1.1255 0
M  V30 40 H 0.4395 -1.9655 -0.5986 0
M  V30 41 H -0.6004 1.6669 0.3846 0
M  V30 42 H -2.4508 0.654 -2.8857 0
M  V30 43 H -1.3687 2.0004 -2.4733 0
M  V30 44 H -5.7701 1.5389 -1.6956 0
M  V30 45 H -3.711 2.5467 -1.9923 0
M  V30 46 H -2.7574 2.5494 -0.4822 0
M  V30 47 H -6.3013 -2.1175 0.6712 0
M  V30 48 H 0.611 2.8009 -1.1711 0
M  V30 49 H 0.9078 1.354 -2.1764 0
M  V30 50 H 1.1075 1.2204 2.3496 0
M  V30 51 H 1.0148 -0.5163 2.7463 0
M  V30 52 H -0.4648 0.4118 2.3936 0
M  V30 53 H 3.0406 1.5552 -1.3467 0
M  V30 54 H 3.0312 -0.8299 1.6404 0
M  V30 55 H 1.8356 2.8795 1.1535 0
M  V30 56 H 3.5927 2.4684 0.96 0
M  V30 57 H 2.7922 3.6021 -0.1663 0
M  V30 58 H 3.5962 -2.5026 0.1463 0
M  V30 59 H 3.9245 -2.5444 -1.6208 0
M  V30 60 H 8.3801 -1.5621 -0.2003 0
M  V30 61 H 7.4752 -0.1056 -0.7695 0
M  V30 62 H 7.4537 -0.5521 0.9841 0
M  V30 END ATOM
M  V30 BEGIN BOND
M  V30 1 1 1 2
M  V30 2 1 2 3
M  V30 3 1 2 4
M  V30 4 1 2 5
M  V30 5 1 3 6
M  V30 6 1 3 7
M  V30 7 1 3 8
M  V30 8 1 4 9
M  V30 9 1 4 10
M  V30 10 1 5 11
M  V30 11 1 5 12
M  V30 12 2 6 13
M  V30 13 1 6 14
M  V30 14 2 7 15
M  V30 15 1 10 16
M  V30 16 1 11 17
M  V30 17 1 13 18
M  V30 18 1 16 19
M  V30 19 1 16 20
M  V30 20 1 17 21
M  V30 21 2 18 22
M  V30 22 1 19 23
M  V30 23 1 19 24
M  V30 24 1 21 25
M  V30 25 2 24 26
M  V30 26 1 24 27
M  V30 27 1 27 28
M  V30 28 1 28 29
M  V30 29 2 29 30
M  V30 30 1 29 31
M  V30 31 1 11 16
M  V30 32 1 12 14
M  V30 33 1 15 18
M  V30 34 1 19 21
M  V30 35 1 4 32
M  V30 36 1 5 33
M  V30 37 1 7 34
M  V30 38 1 8 35
M  V30 39 1 8 36
M  V30 40 1 8 37
M  V30 41 1 9 38
M  V30 42 1 10 39
M  V30 43 1 10 40
M  V30 44 1 11 41
M  V30 45 1 12 42
M  V30 46 1 12 43
M  V30 47 1 13 44
M  V30 48 1 14 45
M  V30 49 1 14 46
M  V30 50 1 15 47
M  V30 51 1 17 48
M  V30 52 1 17 49
M  V30 53 1 20 50
M  V30 54 1 20 51
M  V30 55 1 20 52
M  V30 56 1 21 53
M  V30 57 1 23 54
M  V30 58 1 25 55
M  V30 59 1 25 56
M  V30 60 1 25 57
M  V30 61 1 27 58
M  V30 62 1 27 59
M  V30 63 1 31 60
M  V30 64 1 31 61
M  V30 65 1 31 62
M  V30 END BOND
M  V30 BEGIN COLLECTION
M  V30 MDLV30/STEABS ATOMS=(8 2 3 4 5 11 16 19 21)
M  V30 END COLLECTION
M  V30 END CTAB
M  END
>  <Structure No>
6219

>  <LogS>
-4.9

>  <MMFF94 Energy>
161.77

$$$$
Compound 6220
Actelion Java MolfileCreator 2.0

  0  0  0  0  0  0              0 V3000
M  V30 BEGIN CTAB
M  V30 COUNTS 11 11 0 0 0
M  V30 BEGIN ATOM
M  V30 1 F 2.5091 0.8088 -0.0808 0
M  V30 2 C 1.2567 0.2882 -0.0536 0
M  V30 3 C 1.0508 -1.0926 -0.0517 0
M  V30 4 C 0.1423 1.1266 -0.0267 0
M  V30 5 O 2.0312 -1.8818 -0.0753 0
M  V30 6 N -0.2141 -1.5864 -0.024 0 CHG=-1
M  V30 7 N -1.1085 0.594 4.0E-4 0
M  V30 8 C -1.2894 -0.7555 0.0019 0
M  V30 9 O -2.452 -1.2382 0.0272 0
M  V30 10 H 0.2738 2.2013 -0.0275 0
M  V30 11 H -1.9357 1.2324 0.0204 0
M  V30 END ATOM
M  V30 BEGIN BOND
M  V30 1 1 1 2
M  V30 2 1 2 3
M  V30 3 2 2 4
M  V30 4 2 3 5
M  V30 5 1 3 6
M  V30 6 1 4 7
M  V30 7 1 6 8
M  V30 8 2 8 9
M  V30 9 1 7 8
M  V30 10 1 4 10
M  V30 11 1 7 11
M  V30 END BOND
M  V30 END CTAB
M  END
>  <Structure No>
6220

>  <LogS>
-1.0689

>  <MMFF94 Energy>
3.3039

$$$$
Compound 6221
Actelion Java MolfileCreator 2.0

  0  0  0  0  0  0              0 V3000
M  V30 BEGIN CTAB
M  V30 COUNTS 15 15 0 0 0
M  V30 BEGIN ATOM
M  V30 1 O -3.2897 0.0 0.0 0
M  V30 2 C -2.0294 -0.0092 -0.0054 0
M  V30 3 N -1.3401 1.1177 0.3208 0
M  V30 4 N -1.3603 -1.1463 -0.3361 0
M  V30 5 C 0.0207 1.1298 0.3213 0
M  V30 6 C -0.0019 -1.1773 -0.3485 0
M  V30 7 O 0.6354 2.1861 0.6333 0
M  V30 8 C 0.7314 -0.03 -0.024 0
M  V30 9 C 2.2342 -0.0543 -0.0183 0
M  V30 10 H -1.8638 1.9861 0.5767 0
M  V30 11 H -1.8922 -2.0111 -0.5837 0
M  V30 12 H 0.5067 -2.0967 -0.6115 0
M  V30 13 H 2.6274 0.7805 -0.6361 0
M  V30 14 H 2.6034 0.0578 1.0227 0
M  V30 15 H 2.6267 -1.0069 -0.4332 0
M  V30 END ATOM
M  V30 BEGIN BOND
M  V30 1 2 1 2
M  V30 2 1 2 3
M  V30 3 1 2 4
M  V30 4 1 3 5
M  V30 5 1 4 6
M  V30 6 2 5 7
M  V30 7 1 5 8
M  V30 8 1 8 9
M  V30 9 2 6 8
M  V30 10 1 3 10
M  V30 11 1 4 11
M  V30 12 1 6 12
M  V30 13 1 9 13
M  V30 14 1 9 14
M  V30 15 1 9 15
M  V30 END BOND
M  V30 END CTAB
M  END
>  <Structure No>
6221

>  <LogS>
-1.5187

>  <MMFF94 Energy>
-95.228

$$$$
Compound 6222
Actelion Java MolfileCreator 2.0

  0  0  0  0  0  0              0 V3000
M  V30 BEGIN CTAB
M  V30 COUNTS 11 11 0 0 0
M  V30 BEGIN ATOM
M  V30 1 O 2.3149 -0.9574 -0.319 0
M  V30 2 C 1.1766 -0.4418 -0.1674 0
M  V30 3 N 0.963 0.9491 -0.0342 0
M  V30 4 N -0.0244 -1.1982 -0.1127 0
M  V30 5 C -0.4448 1.0612 0.1107 0
M  V30 6 C -1.1337 -0.268 0.0695 0
M  V30 7 O -1.0344 2.1639 0.2568 0
M  V30 8 H 1.6734 1.7141 -0.0408 0
M  V30 9 H -0.0999 -2.2366 -0.1895 0
M  V30 10 H -1.6551 -0.4724 1.0283 0
M  V30 11 H -1.8308 -0.325 -0.7926 0
M  V30 END ATOM
M  V30 BEGIN BOND
M  V30 1 2 1 2
M  V30 2 1 2 3
M  V30 3 1 2 4
M  V30 4 1 3 5
M  V30 5 1 4 6
M  V30 6 2 5 7
M  V30 7 1 5 6
M  V30 8 1 3 8
M  V30 9 1 4 9
M  V30 10 1 6 10
M  V30 11 1 6 11
M  V30 END BOND
M  V30 END CTAB
M  END
>  <Structure No>
6222

>  <LogS>
-0.4016

>  <MMFF94 Energy>
-76.459

$$$$
Compound 6223
Actelion Java MolfileCreator 2.0

  0  0  0  0  0  0              0 V3000
M  V30 BEGIN CTAB
M  V30 COUNTS 15 15 0 0 0
M  V30 BEGIN ATOM
M  V30 1 O 0.4695 -2.271 0.1564 0
M  V30 2 C -0.0615 -1.1309 0.0516 0
M  V30 3 N 0.7153 -0.0018 0.0341 0
M  V30 4 N -1.4167 -1.0322 -0.0442 0
M  V30 5 C 0.1273 1.2262 -0.0798 0
M  V30 6 C 2.1757 -0.1067 0.1376 0
M  V30 7 C -2.0243 0.1782 -0.1586 0
M  V30 8 C -1.2572 1.3395 -0.1786 0
M  V30 9 O -3.2791 0.2506 -0.2463 0
M  V30 10 H -1.9992 -1.9007 -0.0298 0
M  V30 11 H 0.7258 2.1292 -0.0952 0
M  V30 12 H 2.6646 0.891 0.1084 0
M  V30 13 H 2.5703 -0.7089 -0.7081 0
M  V30 14 H 2.4506 -0.5974 1.0955 0
M  V30 15 H -1.7225 2.3134 -0.2689 0
M  V30 END ATOM
M  V30 BEGIN BOND
M  V30 1 2 1 2
M  V30 2 1 2 3
M  V30 3 1 2 4
M  V30 4 1 3 5
M  V30 5 1 3 6
M  V30 6 1 4 7
M  V30 7 2 5 8
M  V30 8 2 7 9
M  V30 9 1 7 8
M  V30 10 1 4 10
M  V30 11 1 5 11
M  V30 12 1 6 12
M  V30 13 1 6 13
M  V30 14 1 6 14
M  V30 15 1 8 15
M  V30 END BOND
M  V30 END CTAB
M  END
>  <Structure No>
6223

>  <LogS>
-0.7998

>  <MMFF94 Energy>
-88.03

$$$$
Compound 6224
Actelion Java MolfileCreator 2.0

  0  0  0  0  0  0              0 V3000
M  V30 BEGIN CTAB
M  V30 COUNTS 33 34 0 0 0
M  V30 BEGIN ATOM
M  V30 1 O -3.709 -2.6597 0.6443 0
M  V30 2 C -2.8223 -1.7941 0.4187 0
M  V30 3 N -2.5471 -1.3891 -0.9183 0
M  V30 4 N -2.0898 -1.2273 1.5003 0
M  V30 5 C -1.5567 -0.399 -1.2072 0
M  V30 6 C -1.0856 -0.2334 1.2797 0
M  V30 7 O -1.3268 -0.1039 -2.4119 0
M  V30 8 C -0.7959 0.3287 -0.1055 0
M  V30 9 O -0.4377 0.2045 2.2696 0
M  V30 10 C 0.7055 0.1162 -0.3746 0
M  V30 11 C -1.2235 1.83 -0.1268 0
M  V30 12 C 1.6101 1.1209 -0.4414 0
M  V30 13 C 1.2467 -1.2998 -0.4881 0
M  V30 14 C -2.7277 2.0541 0.0796 0
M  V30 15 C 3.0685 0.7998 -0.6279 0
M  V30 16 C 2.4725 -1.4866 0.4226 0
M  V30 17 C 3.498 -0.3265 0.3279 0
M  V30 18 H -3.0736 -1.8317 -1.7051 0
M  V30 19 H -2.2829 -1.5526 2.4744 0
M  V30 20 H -0.6942 2.3871 0.6773 0
M  V30 21 H -0.9392 2.2893 -1.0994 0
M  V30 22 H 1.3353 2.1612 -0.3203 0
M  V30 23 H 1.5424 -1.4868 -1.5433 0
M  V30 24 H 0.4735 -2.0512 -0.2193 0
M  V30 25 H -3.3142 1.5903 -0.7406 0
M  V30 26 H -3.0601 1.6345 1.052 0
M  V30 27 H -2.94 3.1441 0.0813 0
M  V30 28 H 3.6839 1.707 -0.4466 0
M  V30 29 H 3.2332 0.475 -1.6781 0
M  V30 30 H 2.1193 -1.5716 1.4742 0
M  V30 31 H 2.9692 -2.4472 0.1653 0
M  V30 32 H 3.6459 0.1068 1.3417 0
M  V30 33 H 4.4817 -0.7229 -0.0045 0
M  V30 END ATOM
M  V30 BEGIN BOND
M  V30 1 2 1 2
M  V30 2 1 2 3
M  V30 3 1 2 4
M  V30 4 1 3 5
M  V30 5 1 4 6
M  V30 6 2 5 7
M  V30 7 1 5 8
M  V30 8 2 6 9
M  V30 9 1 8 10
M  V30 10 1 8 11
M  V30 11 2 10 12
M  V30 12 1 10 13
M  V30 13 1 11 14
M  V30 14 1 12 15
M  V30 15 1 13 16
M  V30 16 1 15 17
M  V30 17 1 6 8
M  V30 18 1 16 17
M  V30 19 1 3 18
M  V30 20 1 4 19
M  V30 21 1 11 20
M  V30 22 1 11 21
M  V30 23 1 12 22
M  V30 24 1 13 23
M  V30 25 1 13 24
M  V30 26 1 14 25
M  V30 27 1 14 26
M  V30 28 1 14 27
M  V30 29 1 15 28
M  V30 30 1 15 29
M  V30 31 1 16 30
M  V30 32 1 16 31
M  V30 33 1 17 32
M  V30 34 1 17 33
M  V30 END BOND
M  V30 END CTAB
M  END
>  <Structure No>
6224

>  <LogS>
-2.1693

>  <MMFF94 Energy>
-83.619

$$$$
Compound 6225
Actelion Java MolfileCreator 2.0

  0  0  0  0  0  0              0 V3000
M  V30 BEGIN CTAB
M  V30 COUNTS 27 27 0 0 0
M  V30 BEGIN ATOM
M  V30 1 O -0.0796 4.3079 0.5576 0
M  V30 2 C -0.0806 3.0566 0.4139 0
M  V30 3 N 0.005 2.4888 -0.8888 0
M  V30 4 N -0.1914 2.2085 1.5526 0
M  V30 5 C 0.0181 1.0713 -1.0767 0
M  V30 6 C -0.144 0.7847 1.4236 0
M  V30 7 O -0.0618 0.6173 -2.251 0
M  V30 8 C 0.1991 0.1103 0.0978 0
M  V30 9 O -0.3113 0.0789 2.456 0
M  V30 10 C 1.6931 -0.3114 0.1849 0
M  V30 11 C -0.7105 -1.1422 -0.0915 0
M  V30 12 C 2.2123 -0.9964 -1.0561 0
M  V30 13 C -2.18 -0.7924 -0.1115 0
M  V30 14 C 2.2664 -2.3275 -1.1583 0
M  V30 15 C -3.0007 -1.1242 0.8894 0
M  V30 16 H 0.0107 3.1182 -1.7229 0
M  V30 17 H -0.3246 2.6345 2.4975 0
M  V30 18 H 1.8528 -0.9706 1.0682 0
M  V30 19 H 2.3183 0.5933 0.3541 0
M  V30 20 H -0.4996 -1.8883 0.7074 0
M  V30 21 H -0.4786 -1.6475 -1.0529 0
M  V30 22 H 2.5359 -0.3885 -1.8957 0
M  V30 23 H -2.5756 -0.2294 -0.9515 0
M  V30 24 H 1.9398 -2.9656 -0.3428 0
M  V30 25 H 2.6367 -2.787 -2.0689 0
M  V30 26 H -4.0478 -0.8427 0.8474 0
M  V30 27 H -2.6397 -1.6724 1.7541 0
M  V30 END ATOM
M  V30 BEGIN BOND
M  V30 1 2 1 2
M  V30 2 1 2 3
M  V30 3 1 2 4
M  V30 4 1 3 5
M  V30 5 1 4 6
M  V30 6 2 5 7
M  V30 7 1 5 8
M  V30 8 2 6 9
M  V30 9 1 8 10
M  V30 10 1 8 11
M  V30 11 1 10 12
M  V30 12 1 11 13
M  V30 13 2 12 14
M  V30 14 2 13 15
M  V30 15 1 6 8
M  V30 16 1 3 16
M  V30 17 1 4 17
M  V30 18 1 10 18
M  V30 19 1 10 19
M  V30 20 1 11 20
M  V30 21 1 11 21
M  V30 22 1 12 22
M  V30 23 1 13 23
M  V30 24 1 14 24
M  V30 25 1 14 25
M  V30 26 1 15 26
M  V30 27 1 15 27
M  V30 END BOND
M  V30 END CTAB
M  END
>  <Structure No>
6225

>  <LogS>
-2.0608

>  <MMFF94 Energy>
-114.91

$$$$
Compound 6226
Actelion Java MolfileCreator 2.0

  0  0  0  0  0  0              0 V3000
M  V30 BEGIN CTAB
M  V30 COUNTS 34 34 0 0 0
M  V30 BEGIN ATOM
M  V30 1 O -2.9437 3.4216 1.9086 0
M  V30 2 C -2.3454 2.4856 1.3152 0
M  V30 3 N -2.3553 1.1715 1.864 0
M  V30 4 N -1.6351 2.745 0.1081 0
M  V30 5 C -1.6853 0.0947 1.2036 0
M  V30 6 C -1.0028 1.6879 -0.6198 0
M  V30 7 O -1.5409 -0.9959 1.8208 0
M  V30 8 C -1.2082 0.2228 -0.242 0
M  V30 9 O -0.3383 1.9786 -1.6523 0
M  V30 10 C 0.1309 -0.5588 -0.4405 0
M  V30 11 C -2.3108 -0.3218 -1.1983 0
M  V30 12 C 1.3139 0.0208 0.3686 0
M  V30 13 C -2.6795 -1.799 -1.0146 0
M  V30 14 C 2.559 -0.8947 0.3467 0
M  V30 15 C 3.1777 -0.9884 -1.0563 0
M  V30 16 C 3.6062 -0.3813 1.3438 0
M  V30 17 H -2.8043 1.0065 2.7932 0
M  V30 18 H -1.5664 3.726 -0.2457 0
M  V30 19 H -0.0042 -1.6205 -0.1434 0
M  V30 20 H 0.393 -0.5554 -1.5204 0
M  V30 21 H -1.9879 -0.1841 -2.2545 0
M  V30 22 H -3.239 0.2783 -1.0647 0
M  V30 23 H 1.588 1.024 -0.0238 0
M  V30 24 H 0.9946 0.1533 1.4249 0
M  V30 25 H -1.816 -2.4587 -1.2345 0
M  V30 26 H -3.4907 -2.0604 -1.7266 0
M  V30 27 H -3.0553 -1.9951 0.0099 0
M  V30 28 H 2.2622 -1.9175 0.6688 0
M  V30 29 H 3.4114 0.0236 -1.4512 0
M  V30 30 H 4.1152 -1.5837 -1.0243 0
M  V30 31 H 2.4863 -1.5014 -1.7559 0
M  V30 32 H 4.489 -1.0558 1.3571 0
M  V30 33 H 3.9404 0.6424 1.0686 0
M  V30 34 H 3.1811 -0.3563 2.37 0
M  V30 END ATOM
M  V30 BEGIN BOND
M  V30 1 2 1 2
M  V30 2 1 2 3
M  V30 3 1 2 4
M  V30 4 1 3 5
M  V30 5 1 4 6
M  V30 6 2 5 7
M  V30 7 1 5 8
M  V30 8 2 6 9
M  V30 9 1 8 10
M  V30 10 1 8 11
M  V30 11 1 10 12
M  V30 12 1 11 13
M  V30 13 1 12 14
M  V30 14 1 14 15
M  V30 15 1 14 16
M  V30 16 1 6 8
M  V30 17 1 3 17
M  V30 18 1 4 18
M  V30 19 1 10 19
M  V30 20 1 10 20
M  V30 21 1 11 21
M  V30 22 1 11 22
M  V30 23 1 12 23
M  V30 24 1 12 24
M  V30 25 1 13 25
M  V30 26 1 13 26
M  V30 27 1 13 27
M  V30 28 1 14 28
M  V30 29 1 15 29
M  V30 30 1 15 30
M  V30 31 1 15 31
M  V30 32 1 16 32
M  V30 33 1 16 33
M  V30 34 1 16 34
M  V30 END BOND
M  V30 END CTAB
M  END
>  <Structure No>
6226

>  <LogS>
-2.5743

>  <MMFF94 Energy>
-123.04

$$$$
Compound 6227
Actelion Java MolfileCreator 2.0

  0  0  0  0  0  0              0 V3000
M  V30 BEGIN CTAB
M  V30 COUNTS 29 29 0 0 0
M  V30 BEGIN ATOM
M  V30 1 O -0.3984 3.9901 -1.7541 0
M  V30 2 C -0.169 2.8912 -1.1832 0
M  V30 3 N 0.4722 1.8399 -1.8934 0
M  V30 4 N -0.5359 2.7053 0.1772 0
M  V30 5 C 0.6744 0.553 -1.3026 0
M  V30 6 C -0.2642 1.4778 0.8578 0
M  V30 7 O 1.206 -0.3468 -2.0079 0
M  V30 8 C 0.1879 0.2162 0.1127 0
M  V30 9 O -0.4406 1.4377 2.1062 0
M  V30 10 C -1.0188 -0.7948 -0.0081 0
M  V30 11 C 1.3981 -0.3794 0.9096 0
M  V30 12 C -1.5159 -1.3573 1.3387 0
M  V30 13 C -2.2173 -0.1952 -0.772 0
M  V30 14 C 1.8819 -1.7232 0.4136 0
M  V30 15 C 3.1024 -1.8882 -0.1053 0
M  V30 16 H 0.7784 2.004 -2.879 0
M  V30 17 H -0.9572 3.5022 0.706 0
M  V30 18 H -0.6804 -1.6695 -0.6065 0
M  V30 19 H 1.1394 -0.5072 1.9817 0
M  V30 20 H 2.2336 0.357 0.8939 0
M  V30 21 H -0.7027 -1.8642 1.8944 0
M  V30 22 H -1.9552 -0.5609 1.9733 0
M  V30 23 H -2.3042 -2.1194 1.159 0
M  V30 24 H -2.6504 0.6663 -0.2212 0
M  V30 25 H -3.0115 -0.9616 -0.9003 0
M  V30 26 H -1.9164 0.1403 -1.7858 0
M  V30 27 H 1.2306 -2.5873 0.4969 0
M  V30 28 H 3.4193 -2.8696 -0.4428 0
M  V30 29 H 3.7901 -1.0539 -0.2027 0
M  V30 END ATOM
M  V30 BEGIN BOND
M  V30 1 2 1 2
M  V30 2 1 2 3
M  V30 3 1 2 4
M  V30 4 1 3 5
M  V30 5 1 4 6
M  V30 6 2 5 7
M  V30 7 1 5 8
M  V30 8 2 6 9
M  V30 9 1 8 10
M  V30 10 1 8 11
M  V30 11 1 10 12
M  V30 12 1 10 13
M  V30 13 1 11 14
M  V30 14 2 14 15
M  V30 15 1 6 8
M  V30 16 1 3 16
M  V30 17 1 4 17
M  V30 18 1 10 18
M  V30 19 1 11 19
M  V30 20 1 11 20
M  V30 21 1 12 21
M  V30 22 1 12 22
M  V30 23 1 12 23
M  V30 24 1 13 24
M  V30 25 1 13 25
M  V30 26 1 13 26
M  V30 27 1 14 27
M  V30 28 1 15 28
M  V30 29 1 15 29
M  V30 END BOND
M  V30 END CTAB
M  END
>  <Structure No>
6227

>  <LogS>
-1.712

>  <MMFF94 Energy>
-114.74

$$$$
Compound 6228
Actelion Java MolfileCreator 2.0

  0  0  0  0  0  0              0 V3000
M  V30 BEGIN CTAB
M  V30 COUNTS 12 12 0 0 0
M  V30 BEGIN ATOM
M  V30 1 O 2.2747 0.7839 0.1567 0
M  V30 2 C 0.981 0.2756 0.071 0
M  V30 3 C 0.7507 -1.1055 0.0215 0
M  V30 4 C -0.1103 1.1479 0.0332 0
M  V30 5 N -0.5207 -1.5817 -0.0621 0
M  V30 6 C -1.4069 0.6364 -0.0527 0
M  V30 7 C -1.5942 -0.7471 -0.0998 0
M  V30 8 H 3.0821 0.1725 0.1857 0
M  V30 9 H 1.58 -1.7998 0.0495 0
M  V30 10 H 0.0463 2.2184 0.0704 0
M  V30 11 H -2.2578 1.3047 -0.0825 0
M  V30 12 H -2.5928 -1.1577 -0.1665 0
M  V30 END ATOM
M  V30 BEGIN BOND
M  V30 1 1 1 2
M  V30 2 2 2 3
M  V30 3 1 2 4
M  V30 4 1 3 5
M  V30 5 2 4 6
M  V30 6 2 5 7
M  V30 7 1 6 7
M  V30 8 1 1 8
M  V30 9 1 3 9
M  V30 10 1 4 10
M  V30 11 1 6 11
M  V30 12 1 7 12
M  V30 END BOND
M  V30 END CTAB
M  END
>  <Structure No>
6228

>  <LogS>
-0.4557

>  <MMFF94 Energy>
22.069

$$$$
Compound 6229
Actelion Java MolfileCreator 2.0

  0  0  0  0  0  0              0 V3000
M  V30 BEGIN CTAB
M  V30 COUNTS 18 19 0 0 0
M  V30 BEGIN ATOM
M  V30 1 O 1.1153 2.7902 -0.2389 0
M  V30 2 C 1.1496 1.5325 -0.1535 0
M  V30 3 C -0.0365 0.7829 -0.0864 0
M  V30 4 C 2.3876 0.8776 -0.1255 0
M  V30 5 C 0.051 -0.6957 0.0132 0
M  V30 6 C -1.3096 1.3637 -0.1087 0
M  V30 7 C 2.4662 -0.5175 -0.0314 0
M  V30 8 N -1.0923 -1.4323 0.0789 0
M  V30 9 C 1.311 -1.3016 0.0376 0
M  V30 10 C -2.4437 0.5524 -0.0382 0
M  V30 11 C -2.3173 -0.8385 0.0549 0
M  V30 12 H 3.3028 1.4547 -0.1772 0
M  V30 13 H -1.4318 2.4375 -0.1803 0
M  V30 14 H 3.4368 -0.9962 -0.0117 0
M  V30 15 H -1.0431 -2.4741 0.1494 0
M  V30 16 H 1.4012 -2.3784 0.1099 0
M  V30 17 H -3.4282 1.0023 -0.0556 0
M  V30 18 H -3.21 -1.449 0.1087 0
M  V30 END ATOM
M  V30 BEGIN BOND
M  V30 1 2 1 2
M  V30 2 1 2 3
M  V30 3 1 2 4
M  V30 4 1 3 5
M  V30 5 2 3 6
M  V30 6 2 4 7
M  V30 7 1 5 8
M  V30 8 2 5 9
M  V30 9 1 6 10
M  V30 10 1 8 11
M  V30 11 1 7 9
M  V30 12 2 10 11
M  V30 13 1 4 12
M  V30 14 1 6 13
M  V30 15 1 7 14
M  V30 16 1 8 15
M  V30 17 1 9 16
M  V30 18 1 10 17
M  V30 19 1 11 18
M  V30 END BOND
M  V30 END CTAB
M  END
>  <Structure No>
6229

>  <LogS>
-2.5417

>  <MMFF94 Energy>
38.049

$$$$
Compound 6230
Actelion Java MolfileCreator 2.0

  0  0  0  0  0  0              0 V3000
M  V30 BEGIN CTAB
M  V30 COUNTS 18 19 0 0 0
M  V30 BEGIN ATOM
M  V30 1 O 3.4324 -0.8772 0.0 0
M  V30 2 C 2.1641 -0.3026 0.0425 0
M  V30 3 C 1.0188 -1.0844 -0.17 0
M  V30 4 C 2.0366 1.0675 0.3 0
M  V30 5 C -0.2526 -0.4934 -0.1245 0
M  V30 6 C 0.7723 1.6632 0.3468 0
M  V30 7 C -0.3744 0.8901 0.1358 0
M  V30 8 C -1.4145 -1.2479 -0.3327 0
M  V30 9 N -1.6061 1.4668 0.1808 0
M  V30 10 C -2.664 -0.6263 -0.2801 0
M  V30 11 C -2.7406 0.7442 -0.0197 0
M  V30 12 H 3.5603 -1.8654 -0.1837 0
M  V30 13 H 1.1224 -2.1445 -0.3689 0
M  V30 14 H 2.9198 1.6715 0.4642 0
M  V30 15 H 0.6866 2.7242 0.547 0
M  V30 16 H -1.3565 -2.3108 -0.5346 0
M  V30 17 H -3.5665 -1.2019 -0.4397 0
M  V30 18 H -3.704 1.2343 0.0229 0
M  V30 END ATOM
M  V30 BEGIN BOND
M  V30 1 1 1 2
M  V30 2 2 2 3
M  V30 3 1 2 4
M  V30 4 1 3 5
M  V30 5 2 4 6
M  V30 6 1 5 7
M  V30 7 2 5 8
M  V30 8 2 7 9
M  V30 9 1 8 10
M  V30 10 1 9 11
M  V30 11 1 6 7
M  V30 12 2 10 11
M  V30 13 1 1 12
M  V30 14 1 3 13
M  V30 15 1 4 14
M  V30 16 1 6 15
M  V30 17 1 8 16
M  V30 18 1 10 17
M  V30 19 1 11 18
M  V30 END BOND
M  V30 END CTAB
M  END
>  <Structure No>
6230

>  <LogS>
-2.1618

>  <MMFF94 Energy>
20.306

$$$$
Compound 6231
Actelion Java MolfileCreator 2.0

  0  0  0  0  0  0              0 V3000
M  V30 BEGIN CTAB
M  V30 COUNTS 21 22 0 0 0
M  V30 BEGIN ATOM
M  V30 1 Cl 5.3896 -0.5978 -1.5377 0
M  V30 2 C 3.9369 -0.5171 -0.5653 0
M  V30 3 N 4.0171 -0.63 0.7839 0
M  V30 4 N 2.7305 -0.3444 -1.1613 0
M  V30 5 C 2.8902 -0.5721 1.5366 0
M  V30 6 C 1.6003 -0.2759 -0.4111 0
M  V30 7 Cl 2.9909 -0.7224 3.277 0
M  V30 8 N 1.6845 -0.4001 0.94 0
M  V30 9 N 0.3293 -0.119 -1.0572 0
M  V30 10 C -0.8952 0.1544 -0.3542 0
M  V30 11 C -2.0975 -0.4662 -0.7505 0
M  V30 12 C -0.9215 1.0868 0.6994 0
M  V30 13 Cl -2.1315 -1.6401 -2.0597 0
M  V30 14 C -3.2911 -0.1744 -0.0789 0
M  V30 15 C -2.1175 1.372 1.363 0
M  V30 16 C -3.3005 0.7401 0.9763 0
M  V30 17 H 0.2908 -0.2654 -2.0907 0
M  V30 18 H -0.0215 1.6106 0.9938 0
M  V30 19 H -4.2137 -0.6578 -0.3741 0
M  V30 20 H -2.1286 2.09 2.1729 0
M  V30 21 H -4.2261 0.9632 1.4911 0
M  V30 END ATOM
M  V30 BEGIN BOND
M  V30 1 1 1 2
M  V30 2 2 2 3
M  V30 3 1 2 4
M  V30 4 1 3 5
M  V30 5 2 4 6
M  V30 6 1 5 7
M  V30 7 2 5 8
M  V30 8 1 6 9
M  V30 9 1 9 10
M  V30 10 2 10 11
M  V30 11 1 10 12
M  V30 12 1 11 13
M  V30 13 1 11 14
M  V30 14 2 12 15
M  V30 15 2 14 16
M  V30 16 1 6 8
M  V30 17 1 15 16
M  V30 18 1 9 17
M  V30 19 1 12 18
M  V30 20 1 14 19
M  V30 21 1 15 20
M  V30 22 1 16 21
M  V30 END BOND
M  V30 END CTAB
M  END
>  <Structure No>
6231

>  <LogS>
-4.5371

>  <MMFF94 Energy>
-147.43

$$$$
Compound 6232
Actelion Java MolfileCreator 2.0

  0  0  0  0  0  0              0 V3000
M  V30 BEGIN CTAB
M  V30 COUNTS 35 35 0 0 0
M  V30 BEGIN ATOM
M  V30 1 S 2.2363 3.516 1.1975 0
M  V30 2 C 1.3215 2.024 0.8279 0
M  V30 3 C 2.7685 3.7531 -0.5258 0
M  V30 4 N 0.0113 2.0989 0.4843 0
M  V30 5 N 1.9373 0.8177 0.8933 0
M  V30 6 C -0.6892 0.9701 0.2011 0
M  V30 7 C 1.2449 -0.3167 0.6115 0
M  V30 8 N -0.0653 -0.2348 0.2665 0
M  V30 9 N -2.0768 1.0738 -0.1627 0
M  V30 10 N 1.8842 -1.5961 0.6744 0
M  V30 11 C -2.9659 -0.0564 -0.5008 0
M  V30 12 C 3.2946 -1.7323 1.0368 0
M  V30 13 C -3.0911 -1.0176 0.698 0
M  V30 14 C -4.3693 0.4938 -0.8314 0
M  V30 15 C -2.4339 -0.8059 -1.7383 0
M  V30 16 C 3.723 -3.1959 1.0256 0
M  V30 17 H 1.8832 3.874 -1.185 0
M  V30 18 H 3.3923 4.6681 -0.5901 0
M  V30 19 H 3.3702 2.8829 -0.8621 0
M  V30 20 H -2.4719 2.0424 -0.1853 0
M  V30 21 H 1.3157 -2.4453 0.4512 0
M  V30 22 H 3.9191 -1.1658 0.3127 0
M  V30 23 H 3.4573 -1.3144 2.0538 0
M  V30 24 H -3.3994 -0.459 1.608 0
M  V30 25 H -2.1336 -1.533 0.9125 0
M  V30 26 H -3.8512 -1.8022 0.4921 0
M  V30 27 H -4.7858 1.044 0.0401 0
M  V30 28 H -4.3184 1.1946 -1.6927 0
M  V30 29 H -5.0696 -0.3294 -1.0918 0
M  V30 30 H -3.1602 -1.5796 -2.0687 0
M  V30 31 H -1.4758 -1.3209 -1.5256 0
M  V30 32 H -2.2705 -0.0951 -2.5769 0
M  V30 33 H 3.5836 -3.6267 0.0113 0
M  V30 34 H 4.7953 -3.2731 1.3034 0
M  V30 35 H 3.1207 -3.7758 1.757 0
M  V30 END ATOM
M  V30 BEGIN BOND
M  V30 1 1 1 2
M  V30 2 1 1 3
M  V30 3 2 2 4
M  V30 4 1 2 5
M  V30 5 1 4 6
M  V30 6 2 5 7
M  V30 7 2 6 8
M  V30 8 1 6 9
M  V30 9 1 7 10
M  V30 10 1 9 11
M  V30 11 1 10 12
M  V30 12 1 11 13
M  V30 13 1 11 14
M  V30 14 1 11 15
M  V30 15 1 12 16
M  V30 16 1 7 8
M  V30 17 1 3 17
M  V30 18 1 3 18
M  V30 19 1 3 19
M  V30 20 1 9 20
M  V30 21 1 10 21
M  V30 22 1 12 22
M  V30 23 1 12 23
M  V30 24 1 13 24
M  V30 25 1 13 25
M  V30 26 1 13 26
M  V30 27 1 14 27
M  V30 28 1 14 28
M  V30 29 1 14 29
M  V30 30 1 15 30
M  V30 31 1 15 31
M  V30 32 1 15 32
M  V30 33 1 16 33
M  V30 34 1 16 34
M  V30 35 1 16 35
M  V30 END BOND
M  V30 END CTAB
M  END
>  <Structure No>
6232

>  <LogS>
-3.9847

>  <MMFF94 Energy>
-233.89

$$$$
Compound 6233
Actelion Java MolfileCreator 2.0

  0  0  0  0  0  0              0 V3000
M  V30 BEGIN CTAB
M  V30 COUNTS 31 31 0 0 0
M  V30 BEGIN ATOM
M  V30 1 Cl 1.6718 -3.7447 -1.2736 0
M  V30 2 C 1.0999 -2.1385 -0.8803 0
M  V30 3 N -0.2254 -1.916 -0.7013 0
M  V30 4 N 1.9818 -1.1166 -0.7549 0
M  V30 5 C -0.6799 -0.6718 -0.3927 0
M  V30 6 C 1.5398 0.1315 -0.4506 0
M  V30 7 N 0.2115 0.3484 -0.2725 0
M  V30 8 N -2.0934 -0.434 -0.2067 0
M  V30 9 N 2.4612 1.219 -0.3162 0
M  V30 10 C -3.0563 -1.5335 -0.3792 0
M  V30 11 C -2.5819 0.9237 0.083 0
M  V30 12 C 3.9004 1.033 -0.4984 0
M  V30 13 C -3.0651 -2.4404 0.8476 0
M  V30 14 C -2.3465 1.281 1.5476 0
M  V30 15 C 4.6508 2.3456 -0.2995 0
M  V30 16 H 2.0808 2.1644 -0.0809 0
M  V30 17 H -4.0852 -1.1426 -0.5319 0
M  V30 18 H -2.8016 -2.1246 -1.2853 0
M  V30 19 H -3.6697 1.0098 -0.1266 0
M  V30 20 H -2.071 1.661 -0.5732 0
M  V30 21 H 4.273 0.2872 0.2364 0
M  V30 22 H 4.0975 0.6543 -1.5243 0
M  V30 23 H -3.3555 -1.8604 1.7484 0
M  V30 24 H -3.8004 -3.259 0.6995 0
M  V30 25 H -2.064 -2.8896 1.0119 0
M  V30 26 H -1.2642 1.2524 1.7905 0
M  V30 27 H -2.7266 2.3052 1.7462 0
M  V30 28 H -2.8857 0.5679 2.2055 0
M  V30 29 H 4.4798 2.7315 0.7279 0
M  V30 30 H 5.7391 2.1787 -0.4427 0
M  V30 31 H 4.3038 3.0996 -1.0376 0
M  V30 END ATOM
M  V30 BEGIN BOND
M  V30 1 1 1 2
M  V30 2 2 2 3
M  V30 3 1 2 4
M  V30 4 1 3 5
M  V30 5 2 4 6
M  V30 6 2 5 7
M  V30 7 1 5 8
M  V30 8 1 6 9
M  V30 9 1 8 10
M  V30 10 1 8 11
M  V30 11 1 9 12
M  V30 12 1 10 13
M  V30 13 1 11 14
M  V30 14 1 12 15
M  V30 15 1 6 7
M  V30 16 1 9 16
M  V30 17 1 10 17
M  V30 18 1 10 18
M  V30 19 1 11 19
M  V30 20 1 11 20
M  V30 21 1 12 21
M  V30 22 1 12 22
M  V30 23 1 13 23
M  V30 24 1 13 24
M  V30 25 1 13 25
M  V30 26 1 14 26
M  V30 27 1 14 27
M  V30 28 1 14 28
M  V30 29 1 15 29
M  V30 30 1 15 30
M  V30 31 1 15 31
M  V30 END BOND
M  V30 END CTAB
M  END
>  <Structure No>
6233

>  <LogS>
-4.0601

>  <MMFF94 Energy>
-227.55

$$$$
Compound 6234
Actelion Java MolfileCreator 2.0

  0  0  0  0  0  0              0 V3000
M  V30 BEGIN CTAB
M  V30 COUNTS 22 22 0 0 0
M  V30 BEGIN ATOM
M  V30 1 Cl 2.887 4.0115 0.4807 0
M  V30 2 C 2.2688 2.387 0.2773 0
M  V30 3 N 0.9504 2.1338 0.4733 0
M  V30 4 N 3.1079 1.3815 -0.0757 0
M  V30 5 C 0.4654 0.875 0.3158 0
M  V30 6 C 2.6294 0.1209 -0.2329 0
M  V30 7 N 1.31 -0.1303 -0.036 0
M  V30 8 N -0.9293 0.6194 0.5287 0
M  V30 9 N 3.5102 -0.9365 -0.6038 0
M  V30 10 C -1.5275 -0.7072 0.3451 0
M  V30 11 C -2.8758 -0.7867 1.0685 0
M  V30 12 C -1.7044 -1.0019 -1.1473 0
M  V30 13 H -1.5286 1.4148 0.8485 0
M  V30 14 H 3.1474 -1.9079 -0.7265 0
M  V30 15 H 4.5261 -0.7495 -0.7564 0
M  V30 16 H -0.8602 -1.478 0.7907 0
M  V30 17 H -3.5911 -0.0476 0.6474 0
M  V30 18 H -2.7363 -0.574 2.15 0
M  V30 19 H -3.3075 -1.8053 0.9661 0
M  V30 20 H -0.721 -0.9919 -1.662 0
M  V30 21 H -2.1582 -2.0059 -1.2894 0
M  V30 22 H -2.3602 -0.2383 -1.6181 0
M  V30 END ATOM
M  V30 BEGIN BOND
M  V30 1 1 1 2
M  V30 2 2 2 3
M  V30 3 1 2 4
M  V30 4 1 3 5
M  V30 5 2 4 6
M  V30 6 2 5 7
M  V30 7 1 5 8
M  V30 8 1 6 9
M  V30 9 1 8 10
M  V30 10 1 10 11
M  V30 11 1 10 12
M  V30 12 1 6 7
M  V30 13 1 8 13
M  V30 14 1 9 14
M  V30 15 1 9 15
M  V30 16 1 10 16
M  V30 17 1 11 17
M  V30 18 1 11 18
M  V30 19 1 11 19
M  V30 20 1 12 20
M  V30 21 1 12 21
M  V30 22 1 12 22
M  V30 END BOND
M  V30 END CTAB
M  END
>  <Structure No>
6234

>  <LogS>
-2.7063

>  <MMFF94 Energy>
-243.58

$$$$
Compound 6235
Actelion Java MolfileCreator 2.0

  0  0  0  0  0  0              0 V3000
M  V30 BEGIN CTAB
M  V30 COUNTS 35 35 0 0 0
M  V30 BEGIN ATOM
M  V30 1 S -1.9153 2.7941 -1.9153 0
M  V30 2 C -0.9098 1.5864 -1.0618 0
M  V30 3 C -2.4366 1.6179 -3.2012 0
M  V30 4 N 0.4024 1.4509 -1.3754 0
M  V30 5 N -1.461 0.8053 -0.1006 0
M  V30 6 C 1.1665 0.5335 -0.7294 0
M  V30 7 C -0.7064 -0.118 0.5488 0
M  V30 8 N 0.6068 -0.2501 0.2301 0
M  V30 9 N 2.5519 0.3959 -1.071 0
M  V30 10 N -1.2751 -0.9588 1.5653 0
M  V30 11 C 3.4432 -0.5512 -0.393 0
M  V30 12 C -2.6803 -0.941 1.9927 0
M  V30 13 C 4.6914 -0.8075 -1.2433 0
M  V30 14 C 3.8374 -0.0087 0.9838 0
M  V30 15 C -3.0578 0.4075 2.6147 0
M  V30 16 C -3.6189 -1.3225 0.8429 0
M  V30 17 H -2.9822 0.7676 -2.7409 0
M  V30 18 H -1.5511 1.24 -3.7538 0
M  V30 19 H -3.1116 2.1349 -3.9134 0
M  V30 20 H 2.9234 0.9847 -1.8515 0
M  V30 21 H -0.6396 -1.6437 2.0339 0
M  V30 22 H 2.9185 -1.5237 -0.2632 0
M  V30 23 H -2.8058 -1.712 2.7856 0
M  V30 24 H 5.3449 -1.5584 -0.7499 0
M  V30 25 H 5.2669 0.132 -1.3881 0
M  V30 26 H 4.395 -1.2029 -2.2381 0
M  V30 27 H 4.5135 -0.7238 1.4992 0
M  V30 28 H 4.3548 0.9692 0.8816 0
M  V30 29 H 2.9361 0.1304 1.6167 0
M  V30 30 H -4.0663 0.3406 3.0757 0
M  V30 31 H -3.0759 1.2161 1.8557 0
M  V30 32 H -2.3282 0.6749 3.4082 0
M  V30 33 H -3.6447 -0.5379 0.0593 0
M  V30 34 H -3.2856 -2.2777 0.3846 0
M  V30 35 H -4.6509 -1.4619 1.2296 0
M  V30 END ATOM
M  V30 BEGIN BOND
M  V30 1 1 1 2
M  V30 2 1 1 3
M  V30 3 2 2 4
M  V30 4 1 2 5
M  V30 5 1 4 6
M  V30 6 2 5 7
M  V30 7 2 6 8
M  V30 8 1 6 9
M  V30 9 1 7 10
M  V30 10 1 9 11
M  V30 11 1 10 12
M  V30 12 1 11 13
M  V30 13 1 11 14
M  V30 14 1 12 15
M  V30 15 1 12 16
M  V30 16 1 7 8
M  V30 17 1 3 17
M  V30 18 1 3 18
M  V30 19 1 3 19
M  V30 20 1 9 20
M  V30 21 1 10 21
M  V30 22 1 11 22
M  V30 23 1 12 23
M  V30 24 1 13 24
M  V30 25 1 13 25
M  V30 26 1 13 26
M  V30 27 1 14 27
M  V30 28 1 14 28
M  V30 29 1 14 29
M  V30 30 1 15 30
M  V30 31 1 15 31
M  V30 32 1 15 32
M  V30 33 1 16 33
M  V30 34 1 16 34
M  V30 35 1 16 35
M  V30 END BOND
M  V30 END CTAB
M  END
>  <Structure No>
6235

>  <LogS>
-3.8642

>  <MMFF94 Energy>
-240.74

$$$$
Compound 6236
Actelion Java MolfileCreator 2.0

  0  0  0  0  0  0              0 V3000
M  V30 BEGIN CTAB
M  V30 COUNTS 29 29 0 0 0
M  V30 BEGIN ATOM
M  V30 1 Cl 0.3211 3.6983 -0.1605 0
M  V30 2 C 0.4896 1.958 -0.0959 0
M  V30 3 N -0.6119 1.1687 -0.1351 0
M  V30 4 N 1.7213 1.3986 -0.0071 0
M  V30 5 C -0.4883 -0.1837 -0.0831 0
M  V30 6 C 1.8555 0.047 0.0397 0
M  V30 7 N 0.7485 -0.7386 0.0025 0
M  V30 8 N -1.6456 -1.0359 -0.1298 0
M  V30 9 N 3.1518 -0.5566 0.1357 0
M  V30 10 C -3.0399 -0.5575 -0.1524 0
M  V30 11 C 4.3894 0.2207 0.1593 0
M  V30 12 C -3.2393 0.3621 -1.2892 0
M  V30 13 C -3.9917 -1.7537 -0.3295 0
M  V30 14 C -3.3757 0.1618 1.1653 0
M  V30 15 C 4.7264 0.7374 -1.2351 0
M  V30 16 N -3.3953 1.0836 -2.1807 0
M  V30 17 H -1.4665 -2.0665 -0.1422 0
M  V30 18 H 3.2136 -1.594 0.246 0
M  V30 19 H 5.2221 -0.4272 0.5092 0
M  V30 20 H 4.2943 1.0693 0.871 0
M  V30 21 H -3.7635 -2.2952 -1.2734 0
M  V30 22 H -5.0511 -1.4167 -0.3652 0
M  V30 23 H -3.8795 -2.4667 0.5158 0
M  V30 24 H -3.1821 -0.5102 2.0287 0
M  V30 25 H -4.4459 0.4629 1.1869 0
M  V30 26 H -2.7634 1.0781 1.2955 0
M  V30 27 H 5.6915 1.2856 -1.2056 0
M  V30 28 H 3.9371 1.429 -1.5969 0
M  V30 29 H 4.8189 -0.1129 -1.9436 0
M  V30 END ATOM
M  V30 BEGIN BOND
M  V30 1 1 1 2
M  V30 2 2 2 3
M  V30 3 1 2 4
M  V30 4 1 3 5
M  V30 5 2 4 6
M  V30 6 2 5 7
M  V30 7 1 5 8
M  V30 8 1 6 9
M  V30 9 1 8 10
M  V30 10 1 9 11
M  V30 11 1 10 12
M  V30 12 1 10 13
M  V30 13 1 10 14
M  V30 14 1 11 15
M  V30 15 3 12 16
M  V30 16 1 6 7
M  V30 17 1 8 17
M  V30 18 1 9 18
M  V30 19 1 11 19
M  V30 20 1 11 20
M  V30 21 1 13 21
M  V30 22 1 13 22
M  V30 23 1 13 23
M  V30 24 1 14 24
M  V30 25 1 14 25
M  V30 26 1 14 26
M  V30 27 1 15 27
M  V30 28 1 15 28
M  V30 29 1 15 29
M  V30 END BOND
M  V30 END CTAB
M  END
>  <Structure No>
6236

>  <LogS>
-3.151

>  <MMFF94 Energy>
-217.05

$$$$
Compound 6237
Actelion Java MolfileCreator 2.0

  0  0  0  0  0  0              0 V3000
M  V30 BEGIN CTAB
M  V30 COUNTS 35 35 0 0 0
M  V30 BEGIN ATOM
M  V30 1 O -0.0784 -3.3755 -0.3136 0
M  V30 2 C 0.2717 -2.0266 -0.2158 0
M  V30 3 C 0.8769 -4.4035 -0.5468 0
M  V30 4 N -0.6951 -1.1023 0.0078 0
M  V30 5 N 1.5655 -1.6298 -0.3417 0
M  V30 6 C -0.3812 0.2155 0.107 0
M  V30 7 C 1.8904 -0.3157 -0.2445 0
M  V30 8 N 0.9142 0.6027 -0.0201 0
M  V30 9 N -1.3938 1.2091 0.344 0
M  V30 10 N 3.2568 0.0904 -0.3787 0
M  V30 11 C -2.8388 0.9472 0.5038 0
M  V30 12 C 3.6529 1.4951 -0.281 0
M  V30 13 C -3.0873 0.0376 1.7235 0
M  V30 14 C -3.566 2.2874 0.7406 0
M  V30 15 C -3.4116 0.3028 -0.7739 0
M  V30 16 C 5.1592 1.6519 -0.46 0
M  V30 17 H 1.6233 -4.4227 0.2755 0
M  V30 18 H 0.357 -5.3827 -0.5831 0
M  V30 19 H 1.3906 -4.2325 -1.5165 0
M  V30 20 H -1.0573 2.1979 0.4052 0
M  V30 21 H 3.9782 -0.6466 -0.5507 0
M  V30 22 H 3.1311 2.0824 -1.0672 0
M  V30 23 H 3.3625 1.8932 0.7151 0
M  V30 24 H -4.1768 -0.0642 1.9193 0
M  V30 25 H -2.6831 -0.9818 1.5641 0
M  V30 26 H -2.6057 0.4677 2.6279 0
M  V30 27 H -3.4076 2.9724 -0.1201 0
M  V30 28 H -3.1769 2.7839 1.6559 0
M  V30 29 H -4.6596 2.1314 0.8662 0
M  V30 30 H -3.1628 0.9229 -1.6616 0
M  V30 31 H -4.5175 0.2144 -0.7048 0
M  V30 32 H -3.0078 -0.7164 -0.9358 0
M  V30 33 H 5.4665 1.2751 -1.4586 0
M  V30 34 H 5.6986 1.0854 0.3285 0
M  V30 35 H 5.4348 2.7249 -0.3818 0
M  V30 END ATOM
M  V30 BEGIN BOND
M  V30 1 1 1 2
M  V30 2 1 1 3
M  V30 3 2 2 4
M  V30 4 1 2 5
M  V30 5 1 4 6
M  V30 6 2 5 7
M  V30 7 2 6 8
M  V30 8 1 6 9
M  V30 9 1 7 10
M  V30 10 1 9 11
M  V30 11 1 10 12
M  V30 12 1 11 13
M  V30 13 1 11 14
M  V30 14 1 11 15
M  V30 15 1 12 16
M  V30 16 1 7 8
M  V30 17 1 3 17
M  V30 18 1 3 18
M  V30 19 1 3 19
M  V30 20 1 9 20
M  V30 21 1 10 21
M  V30 22 1 12 22
M  V30 23 1 12 23
M  V30 24 1 13 24
M  V30 25 1 13 25
M  V30 26 1 13 26
M  V30 27 1 14 27
M  V30 28 1 14 28
M  V30 29 1 14 29
M  V30 30 1 15 30
M  V30 31 1 15 31
M  V30 32 1 15 32
M  V30 33 1 16 33
M  V30 34 1 16 34
M  V30 35 1 16 35
M  V30 END BOND
M  V30 END CTAB
M  END
>  <Structure No>
6237

>  <LogS>
-3.2388

>  <MMFF94 Energy>
-231.99

$$$$
Compound 6238
Actelion Java MolfileCreator 2.0

  0  0  0  0  0  0              0 V3000
M  V30 BEGIN CTAB
M  V30 COUNTS 20 20 0 0 0
M  V30 BEGIN ATOM
M  V30 1 O 0.7128 0.8713 2.1397 0
M  V30 2 C 1.3541 0.5225 1.1121 0
M  V30 3 O 2.7152 0.7978 1.0443 0 CHG=-1
M  V30 4 C 0.6386 -0.1258 -0.0646 0
M  V30 5 N 1.6108 -0.7976 -0.9463 0 CHG=1
M  V30 6 C -0.1593 0.932 -0.8377 0
M  V30 7 C -0.431 -1.1193 0.4225 0
M  V30 8 C -1.5261 1.0009 -0.1682 0
M  V30 9 C -1.7305 -0.3275 0.5577 0
M  V30 10 H 2.2855 -0.1017 -1.3409 0
M  V30 11 H 1.1277 -1.268 -1.7466 0
M  V30 12 H 2.142 -1.5218 -0.4093 0
M  V30 13 H 0.342 1.9253 -0.84 0
M  V30 14 H -0.2999 0.6137 -1.895 0
M  V30 15 H -0.5867 -1.9248 -0.329 0
M  V30 16 H -0.1501 -1.6048 1.3834 0
M  V30 17 H -1.5408 1.8371 0.5653 0
M  V30 18 H -2.3264 1.1733 -0.9208 0
M  V30 19 H -2.5773 -0.8923 0.1097 0
M  V30 20 H -1.9564 -0.1439 1.6312 0
M  V30 END ATOM
M  V30 BEGIN BOND
M  V30 1 2 1 2
M  V30 2 1 2 3
M  V30 3 1 2 4
M  V30 4 1 4 5
M  V30 5 1 4 6
M  V30 6 1 4 7
M  V30 7 1 6 8
M  V30 8 1 7 9
M  V30 9 1 8 9
M  V30 10 1 5 10
M  V30 11 1 5 11
M  V30 12 1 5 12
M  V30 13 1 6 13
M  V30 14 1 6 14
M  V30 15 1 7 15
M  V30 16 1 7 16
M  V30 17 1 8 17
M  V30 18 1 8 18
M  V30 19 1 9 19
M  V30 20 1 9 20
M  V30 END BOND
M  V30 END CTAB
M  END
>  <Structure No>
6238

>  <LogS>
-0.4122

>  <MMFF94 Energy>
4.8618

$$$$
Compound 6239
Actelion Java MolfileCreator 2.0

  0  0  0  0  0  0              0 V3000
M  V30 BEGIN CTAB
M  V30 COUNTS 23 23 0 0 0
M  V30 BEGIN ATOM
M  V30 1 O -1.26 -1.1025 2.2059 0
M  V30 2 C -1.7368 -1.0255 1.043 0
M  V30 3 O -2.2318 -2.1697 0.4285 0 CHG=-1
M  V30 4 C -1.7514 0.2949 0.3167 0 CFG=2
M  V30 5 N -3.1198 0.6269 -0.0966 0 CHG=1
M  V30 6 C -0.8118 0.261 -0.9063 0
M  V30 7 C 0.6304 0.0905 -0.4989 0
M  V30 8 C 1.3749 1.1965 -0.0552 0
M  V30 9 C 1.2301 -1.1801 -0.5167 0
M  V30 10 C 2.7035 1.0347 0.3498 0
M  V30 11 C 2.5588 -1.3375 -0.1104 0
M  V30 12 C 3.2953 -0.2308 0.321 0
M  V30 13 H -1.3962 1.0907 1.0116 0
M  V30 14 H -3.7497 0.6413 0.7388 0
M  V30 15 H -3.1368 1.5768 -0.5342 0
M  V30 16 H -3.4785 -0.0735 -0.7863 0
M  V30 17 H -0.9119 1.2125 -1.4733 0
M  V30 18 H -1.1169 -0.5547 -1.5986 0
M  V30 19 H 0.9252 2.1812 -0.0213 0
M  V30 20 H 0.6687 -2.0475 -0.8411 0
M  V30 21 H 3.2732 1.8902 0.6886 0
M  V30 22 H 3.0167 -2.3179 -0.1276 0
M  V30 23 H 4.3233 -0.3546 0.6361 0
M  V30 END ATOM
M  V30 BEGIN BOND
M  V30 1 2 1 2
M  V30 2 1 2 3
M  V30 3 1 2 4
M  V30 4 1 4 5
M  V30 5 1 4 6
M  V30 6 1 6 7
M  V30 7 2 7 8
M  V30 8 1 7 9
M  V30 9 1 8 10
M  V30 10 2 9 11
M  V30 11 2 10 12
M  V30 12 1 11 12
M  V30 13 1 4 13
M  V30 14 1 5 14
M  V30 15 1 5 15
M  V30 16 1 5 16
M  V30 17 1 6 17
M  V30 18 1 6 18
M  V30 19 1 8 19
M  V30 20 1 9 20
M  V30 21 1 10 21
M  V30 22 1 11 22
M  V30 23 1 12 23
M  V30 END BOND
M  V30 BEGIN COLLECTION
M  V30 MDLV30/STEABS ATOMS=(1 4)
M  V30 END COLLECTION
M  V30 END CTAB
M  END
>  <Structure No>
6239

>  <LogS>
-1.0657

>  <MMFF94 Energy>
11.277

$$$$
Compound 6240
Actelion Java MolfileCreator 2.0

  0  0  0  0  0  0              0 V3000
M  V30 BEGIN CTAB
M  V30 COUNTS 16 16 0 0 0
M  V30 BEGIN ATOM
M  V30 1 O -2.5464 -2.1353 -0.4924 0
M  V30 2 C -2.4932 -0.8981 -0.2603 0
M  V30 3 O -3.6791 -0.1769 -0.1783 0 CHG=-1
M  V30 4 C -1.1898 -0.2211 -0.0775 0
M  V30 5 C 0.0139 -0.9462 -0.1593 0
M  V30 6 C -1.1398 1.1585 0.1809 0
M  V30 7 C 1.2545 -0.3039 0.0143 0
M  V30 8 C 0.0876 1.8006 0.3539 0
M  V30 9 C 2.5192 -1.0675 -0.0719 0
M  V30 10 C 1.2784 1.0768 0.2718 0
M  V30 11 O 2.5059 -2.3061 -0.3025 0
M  V30 12 O 3.7415 -0.4279 0.1003 0 CHG=-1
M  V30 13 H -0.0145 -2.0106 -0.3582 0
M  V30 14 H -2.0485 1.7432 0.2496 0
M  V30 15 H 0.1161 2.8643 0.5528 0
M  V30 16 H 2.2168 1.599 0.4099 0
M  V30 END ATOM
M  V30 BEGIN BOND
M  V30 1 2 1 2
M  V30 2 1 2 3
M  V30 3 1 2 4
M  V30 4 2 4 5
M  V30 5 1 4 6
M  V30 6 1 5 7
M  V30 7 2 6 8
M  V30 8 1 7 9
M  V30 9 2 7 10
M  V30 10 2 9 11
M  V30 11 1 9 12
M  V30 12 1 8 10
M  V30 13 1 5 13
M  V30 14 1 6 14
M  V30 15 1 8 15
M  V30 16 1 10 16
M  V30 END BOND
M  V30 END CTAB
M  END
>  <Structure No>
6240

>  <LogS>
-3.2204

>  <MMFF94 Energy>
107

$$$$
Compound 6241
Actelion Java MolfileCreator 2.0

  0  0  0  0  0  0              0 V3000
M  V30 BEGIN CTAB
M  V30 COUNTS 15 15 0 0 0
M  V30 BEGIN ATOM
M  V30 1 O 3.7229 0.1652 0.3305 0
M  V30 2 C 2.7089 -0.5815 0.3339 0
M  V30 3 O 2.8768 -1.9541 0.4756 0 CHG=-1
M  V30 4 C 1.3634 6.0E-4 0.1891 0
M  V30 5 N 1.2285 1.3483 0.0521 0
M  V30 6 C 0.2186 -0.8123 0.1901 0
M  V30 7 C 0.0133 1.9397 -0.0848 0
M  V30 8 C -1.0518 -0.2294 0.0503 0
M  V30 9 C -1.1471 1.1646 -0.0884 0
M  V30 10 C -2.2674 -1.0728 0.0495 0
M  V30 11 O -3.4081 -0.5526 -0.0757 0
M  V30 12 O -2.1679 -2.4526 0.1873 0 CHG=-1
M  V30 13 H 0.3163 -1.8854 0.2987 0
M  V30 14 H -0.0521 3.0143 -0.1913 0
M  V30 15 H -2.1079 1.6518 -0.1986 0
M  V30 END ATOM
M  V30 BEGIN BOND
M  V30 1 2 1 2
M  V30 2 1 2 3
M  V30 3 1 2 4
M  V30 4 2 4 5
M  V30 5 1 4 6
M  V30 6 1 5 7
M  V30 7 2 6 8
M  V30 8 2 7 9
M  V30 9 1 8 10
M  V30 10 2 10 11
M  V30 11 1 10 12
M  V30 12 1 8 9
M  V30 13 1 6 13
M  V30 14 1 7 14
M  V30 15 1 9 15
M  V30 END BOND
M  V30 END CTAB
M  END
>  <Structure No>
6241

>  <LogS>
-1.8268

>  <MMFF94 Energy>
149.65

$$$$
Compound 6242
Actelion Java MolfileCreator 2.0

  0  0  0  0  0  0              0 V3000
M  V30 BEGIN CTAB
M  V30 COUNTS 15 15 0 0 0
M  V30 BEGIN ATOM
M  V30 1 O 3.3912 1.6531 0.0 0
M  V30 2 C 2.913 0.4893 -0.0542 0
M  V30 3 O 3.7763 -0.5965 -0.1408 0 CHG=-1
M  V30 4 C 1.454 0.2891 -0.0256 0
M  V30 5 N 0.6296 1.369 0.0595 0
M  V30 6 C 0.8994 -0.9968 -0.0849 0
M  V30 7 C -0.724 1.2462 0.0896 0
M  V30 8 C -0.488 -1.1491 -0.0556 0
M  V30 9 C -1.3216 -0.0227 0.0326 0
M  V30 10 C -2.7934 -0.165 0.0649 0
M  V30 11 O -3.3279 -1.3048 0.0136 0
M  V30 12 O -3.6078 0.9583 0.1523 0 CHG=-1
M  V30 13 H 1.5291 -1.8749 -0.1529 0
M  V30 14 H -1.3291 2.1409 0.1581 0
M  V30 15 H -0.907 -2.1466 -0.1017 0
M  V30 END ATOM
M  V30 BEGIN BOND
M  V30 1 2 1 2
M  V30 2 1 2 3
M  V30 3 1 2 4
M  V30 4 2 4 5
M  V30 5 1 4 6
M  V30 6 1 5 7
M  V30 7 2 6 8
M  V30 8 2 7 9
M  V30 9 1 9 10
M  V30 10 2 10 11
M  V30 11 1 10 12
M  V30 12 1 8 9
M  V30 13 1 6 13
M  V30 14 1 7 14
M  V30 15 1 8 15
M  V30 END BOND
M  V30 END CTAB
M  END
>  <Structure No>
6242

>  <LogS>
-2.1296

>  <MMFF94 Energy>
140.14

$$$$
Compound 6243
Actelion Java MolfileCreator 2.0

  0  0  0  0  0  0              0 V3000
M  V30 BEGIN CTAB
M  V30 COUNTS 15 15 0 0 0
M  V30 BEGIN ATOM
M  V30 1 O -3.472 0.8258 0.0 0
M  V30 2 C -2.3054 1.3004 -0.0344 0
M  V30 3 O -2.1334 2.677 -0.1147 0 CHG=-1
M  V30 4 C -1.1291 0.4152 0.0092 0
M  V30 5 N 0.1172 0.9625 -0.0299 0
M  V30 6 C -1.2673 -0.9792 0.0903 0
M  V30 7 C 1.2486 0.2054 0.0066 0
M  V30 8 C -0.1247 -1.7793 0.1292 0
M  V30 9 C 2.5617 0.8708 -0.0396 0
M  V30 10 C 1.1403 -1.1917 0.0877 0
M  V30 11 O 3.6271 0.1994 -0.0075 0
M  V30 12 O 2.6332 2.2564 -0.1198 0 CHG=-1
M  V30 13 H -2.2446 -1.4444 0.1231 0
M  V30 14 H -0.2196 -2.8557 0.1918 0
M  V30 15 H 2.0209 -1.8209 0.1185 0
M  V30 END ATOM
M  V30 BEGIN BOND
M  V30 1 2 1 2
M  V30 2 1 2 3
M  V30 3 1 2 4
M  V30 4 2 4 5
M  V30 5 1 4 6
M  V30 6 1 5 7
M  V30 7 2 6 8
M  V30 8 1 7 9
M  V30 9 2 7 10
M  V30 10 2 9 11
M  V30 11 1 9 12
M  V30 12 1 8 10
M  V30 13 1 6 13
M  V30 14 1 8 14
M  V30 15 1 10 15
M  V30 END BOND
M  V30 END CTAB
M  END
>  <Structure No>
6243

>  <LogS>
-1.5241

>  <MMFF94 Energy>
220.59

$$$$
Compound 6244
Actelion Java MolfileCreator 2.0

  0  0  0  0  0  0              0 V3000
M  V30 BEGIN CTAB
M  V30 COUNTS 15 15 0 0 0
M  V30 BEGIN ATOM
M  V30 1 O 2.7316 0.8272 0.2481 0
M  V30 2 C 2.1787 -0.1812 -0.2644 0
M  V30 3 O 2.9644 -1.1194 -0.9234 0 CHG=-1
M  V30 4 C 0.7235 -0.4094 -0.1097 0
M  V30 5 C -0.2264 0.6437 -0.0147 0
M  V30 6 C 0.27 -1.7342 0.0131 0
M  V30 7 C 0.1125 2.0645 -0.2603 0
M  V30 8 C -1.5661 0.3254 0.2608 0
M  V30 9 N -1.0385 -1.998 0.2613 0
M  V30 10 O 0.997 2.381 -1.0988 0
M  V30 11 O -0.5946 3.0711 0.3868 0 CHG=-1
M  V30 12 C -1.9536 -1.0064 0.3941 0
M  V30 13 H 0.9633 -2.5625 -0.0568 0
M  V30 14 H -2.3178 1.1013 0.3399 0
M  V30 15 H -2.9883 -1.253 0.5922 0
M  V30 END ATOM
M  V30 BEGIN BOND
M  V30 1 2 1 2
M  V30 2 1 2 3
M  V30 3 1 2 4
M  V30 4 2 4 5
M  V30 5 1 4 6
M  V30 6 1 5 7
M  V30 7 1 5 8
M  V30 8 2 6 9
M  V30 9 2 7 10
M  V30 10 1 7 11
M  V30 11 2 8 12
M  V30 12 1 9 12
M  V30 13 1 6 13
M  V30 14 1 8 14
M  V30 15 1 12 15
M  V30 END BOND
M  V30 END CTAB
M  END
>  <Structure No>
6244

>  <LogS>
-1.8538

>  <MMFF94 Energy>
94.119

$$$$
Compound 6245
Actelion Java MolfileCreator 2.0

  0  0  0  0  0  0              0 V3000
M  V30 BEGIN CTAB
M  V30 COUNTS 15 15 0 0 0
M  V30 BEGIN ATOM
M  V30 1 O 3.5593 0.248 0.5787 0
M  V30 2 C 2.5485 0.6518 -0.0557 0
M  V30 3 O 2.7041 1.661 -0.9992 0 CHG=-1
M  V30 4 C 1.2158 0.0619 0.1984 0
M  V30 5 C 1.0482 -0.9573 1.1491 0
M  V30 6 C 0.0878 0.5102 -0.5074 0
M  V30 7 N -0.1808 -1.4905 1.3729 0
M  V30 8 C -1.1762 -0.0523 -0.2632 0
M  V30 9 C -1.2818 -1.0679 0.6986 0
M  V30 10 C -2.3719 0.4118 -1.0006 0
M  V30 11 O -2.2781 1.324 -1.8646 0
M  V30 12 O -3.6171 -0.1532 -0.7498 0 CHG=-1
M  V30 13 H 1.8917 -1.3314 1.7148 0
M  V30 14 H 0.1928 1.2959 -1.2457 0
M  V30 15 H -2.2369 -1.5277 0.9168 0
M  V30 END ATOM
M  V30 BEGIN BOND
M  V30 1 2 1 2
M  V30 2 1 2 3
M  V30 3 1 2 4
M  V30 4 2 4 5
M  V30 5 1 4 6
M  V30 6 1 5 7
M  V30 7 2 6 8
M  V30 8 2 7 9
M  V30 9 1 8 10
M  V30 10 2 10 11
M  V30 11 1 10 12
M  V30 12 1 8 9
M  V30 13 1 5 13
M  V30 14 1 6 14
M  V30 15 1 9 15
M  V30 END BOND
M  V30 END CTAB
M  END
>  <Structure No>
6245

>  <LogS>
-2.223

>  <MMFF94 Energy>
75.622

$$$$
Compound 6246
Actelion Java MolfileCreator 2.0

  0  0  0  0  0  0              0 V3000
M  V30 BEGIN CTAB
M  V30 COUNTS 13 13 0 0 0
M  V30 BEGIN ATOM
M  V30 1 O 3.0689 -0.6455 0.242 0
M  V30 2 C 2.228 0.266 0.0198 0
M  V30 3 O 2.6827 1.5516 -0.2505 0 CHG=-1
M  V30 4 C 0.7785 -0.0255 0.0461 0
M  V30 5 C 0.3056 -1.3213 0.3184 0
M  V30 6 C -0.1601 0.9892 -0.2012 0
M  V30 7 N -1.0306 -1.5739 0.3389 0
M  V30 8 C -1.5263 0.7024 -0.1739 0
M  V30 9 C -1.9469 -0.599 0.101 0
M  V30 10 H 0.9947 -2.1324 0.5146 0
M  V30 11 H 0.1591 2.0014 -0.4152 0
M  V30 12 H -2.2524 1.4822 -0.3641 0
M  V30 13 H -3.0025 -0.8349 0.1252 0
M  V30 END ATOM
M  V30 BEGIN BOND
M  V30 1 2 1 2
M  V30 2 1 2 3
M  V30 3 1 2 4
M  V30 4 2 4 5
M  V30 5 1 4 6
M  V30 6 1 5 7
M  V30 7 2 6 8
M  V30 8 2 7 9
M  V30 9 1 8 9
M  V30 10 1 5 10
M  V30 11 1 6 11
M  V30 12 1 8 12
M  V30 13 1 9 13
M  V30 END BOND
M  V30 END CTAB
M  END
>  <Structure No>
6246

>  <LogS>
-0.835

>  <MMFF94 Energy>
21.175

$$$$
Compound 6247
Actelion Java MolfileCreator 2.0

  0  0  0  0  0  0              0 V3000
M  V30 BEGIN CTAB
M  V30 COUNTS 57 56 0 0 0
M  V30 BEGIN ATOM
M  V30 1 S -1.455 0.4848 -0.3231 0
M  V30 2 O -1.4624 0.8967 -1.7707 0
M  V30 3 O -1.1238 -0.9784 -0.2228 0
M  V30 4 N -0.2863 1.4029 0.5782 0 CHG=-1
M  V30 5 C -3.0829 0.7969 0.354 0
M  V30 6 S 1.0851 1.7975 -0.4151 0
M  V30 7 C -3.2446 0.2293 1.7747 0
M  V30 8 O 0.6558 2.7209 -1.5208 0
M  V30 9 O 2.0961 2.5082 0.4384 0
M  V30 10 C 1.8364 0.3242 -1.1089 0
M  V30 11 C -3.6785 -1.2514 1.7956 0
M  V30 12 C 2.9885 0.6654 -2.08 0
M  V30 13 C -5.1986 -1.4611 1.9607 0
M  V30 14 C 4.3675 0.2064 -1.5805 0
M  V30 15 C -6.0158 -1.197 0.6806 0
M  V30 16 C 4.8589 1.0253 -0.3759 0
M  V30 17 C -6.63 0.214 0.658 0
M  V30 18 C 6.3377 0.7604 -0.0501 0
M  V30 19 C -7.2063 0.5849 -0.7159 0
M  V30 20 C 6.5716 -0.6433 0.5336 0
M  V30 21 C -8.4378 -0.2425 -1.0834 0
M  V30 22 C 8.0128 -0.8359 1.025 0
M  V30 23 C 9.0151 -0.9651 -0.1235 0
M  V30 24 H -3.8455 0.3844 -0.3362 0
M  V30 25 H -3.2257 1.8998 0.3889 0
M  V30 26 H -2.2804 0.334 2.3195 0
M  V30 27 H -3.9756 0.8483 2.3389 0
M  V30 28 H 1.0573 -0.2348 -1.6673 0
M  V30 29 H 2.1759 -0.3314 -0.2787 0
M  V30 30 H -3.1872 -1.73 2.6717 0
M  V30 31 H -3.3126 -1.7969 0.8993 0
M  V30 32 H 2.7947 0.1484 -3.0453 0
M  V30 33 H 3.0216 1.7515 -2.3154 0
M  V30 34 H -5.584 -0.8611 2.8129 0
M  V30 35 H -5.352 -2.5251 2.2417 0
M  V30 36 H 5.0897 0.3258 -2.4187 0
M  V30 37 H 4.326 -0.8726 -1.3213 0
M  V30 38 H -5.3937 -1.3744 -0.2223 0
M  V30 39 H -6.8485 -1.9326 0.6442 0
M  V30 40 H 4.7491 2.1084 -0.6068 0
M  V30 41 H 4.2364 0.8021 0.518 0
M  V30 42 H -5.8594 0.9681 0.9136 0
M  V30 43 H -7.4251 0.2863 1.4313 0
M  V30 44 H 6.949 0.905 -0.9679 0
M  V30 45 H 6.6649 1.517 0.6959 0
M  V30 46 H -7.4978 1.6575 -0.6974 0
M  V30 47 H -6.4278 0.4644 -1.4996 0
M  V30 48 H 6.3348 -1.4217 -0.2223 0
M  V30 49 H 5.8896 -0.7914 1.3988 0
M  V30 50 H -9.2015 -0.1789 -0.2801 0
M  V30 51 H -8.8809 0.1518 -2.0229 0
M  V30 52 H -8.1612 -1.3046 -1.2496 0
M  V30 53 H 8.0549 -1.7679 1.629 0
M  V30 54 H 8.3068 0.0058 1.6893 0
M  V30 55 H 9.0794 -0.0211 -0.7084 0
M  V30 56 H 8.7278 -1.7989 -0.7994 0
M  V30 57 H 10.0227 -1.1804 0.2898 0
M  V30 END ATOM
M  V30 BEGIN BOND
M  V30 1 2 1 2
M  V30 2 2 1 3
M  V30 3 1 1 4
M  V30 4 1 1 5
M  V30 5 1 4 6
M  V30 6 1 5 7
M  V30 7 2 6 8
M  V30 8 2 6 9
M  V30 9 1 6 10
M  V30 10 1 7 11
M  V30 11 1 10 12
M  V30 12 1 11 13
M  V30 13 1 12 14
M  V30 14 1 13 15
M  V30 15 1 14 16
M  V30 16 1 15 17
M  V30 17 1 16 18
M  V30 18 1 17 19
M  V30 19 1 18 20
M  V30 20 1 19 21
M  V30 21 1 20 22
M  V30 22 1 22 23
M  V30 23 1 5 24
M  V30 24 1 5 25
M  V30 25 1 7 26
M  V30 26 1 7 27
M  V30 27 1 10 28
M  V30 28 1 10 29
M  V30 29 1 11 30
M  V30 30 1 11 31
M  V30 31 1 12 32
M  V30 32 1 12 33
M  V30 33 1 13 34
M  V30 34 1 13 35
M  V30 35 1 14 36
M  V30 36 1 14 37
M  V30 37 1 15 38
M  V30 38 1 15 39
M  V30 39 1 16 40
M  V30 40 1 16 41
M  V30 41 1 17 42
M  V30 42 1 17 43
M  V30 43 1 18 44
M  V30 44 1 18 45
M  V30 45 1 19 46
M  V30 46 1 19 47
M  V30 47 1 20 48
M  V30 48 1 20 49
M  V30 49 1 21 50
M  V30 50 1 21 51
M  V30 51 1 21 52
M  V30 52 1 22 53
M  V30 53 1 22 54
M  V30 54 1 23 55
M  V30 55 1 23 56
M  V30 56 1 23 57
M  V30 END BOND
M  V30 END CTAB
M  END
>  <Structure No>
6247

>  <LogS>
-3.9145

>  <MMFF94 Energy>
14.128

$$$$
Compound 6248
Actelion Java MolfileCreator 2.0

  0  0  0  0  0  0              0 V3000
M  V30 BEGIN CTAB
M  V30 COUNTS 9 8 0 0 0
M  V30 BEGIN ATOM
M  V30 1 Cl -2.0878 0.3209 -0.8829 0
M  V30 2 C -0.8996 -0.6588 0.0085 0
M  V30 3 C 0.2109 0.2162 0.493 0
M  V30 4 O 0.1764 0.683 1.6628 0
M  V30 5 N 1.2885 0.5626 -0.3763 0
M  V30 6 H -1.4041 -1.1502 0.8675 0
M  V30 7 H -0.4971 -1.4461 -0.6625 0
M  V30 8 H 1.3187 0.2026 -1.356 0
M  V30 9 H 2.0571 1.1848 -0.0412 0
M  V30 END ATOM
M  V30 BEGIN BOND
M  V30 1 1 1 2
M  V30 2 1 2 3
M  V30 3 2 3 4
M  V30 4 1 3 5
M  V30 5 1 2 6
M  V30 6 1 2 7
M  V30 7 1 5 8
M  V30 8 1 5 9
M  V30 END BOND
M  V30 END CTAB
M  END
>  <Structure No>
6248

>  <LogS>
-0.0166

>  <MMFF94 Energy>
0.32607

$$$$
Compound 6249
Actelion Java MolfileCreator 2.0

  0  0  0  0  0  0              0 V3000
M  V30 BEGIN CTAB
M  V30 COUNTS 21 20 0 0 0
M  V30 BEGIN ATOM
M  V30 1 Cl 0.0 -1.5874 -1.6668 0
M  V30 2 C -0.043 -0.1657 -0.5587 0
M  V30 3 C 0.5529 1.0464 -1.2599 0
M  V30 4 C -1.525 0.1579 -0.2244 0
M  V30 5 C 0.7612 -0.511 0.7258 0
M  V30 6 O 0.8771 0.9838 -2.4767 0
M  V30 7 N 0.7328 2.2818 -0.5619 0
M  V30 8 C -2.2797 -0.9594 0.5051 0
M  V30 9 C 2.2688 -0.664 0.4939 0
M  V30 10 H -1.5821 1.0716 0.4064 0
M  V30 11 H -2.0681 0.3795 -1.1697 0
M  V30 12 H 0.3927 -1.4711 1.1464 0
M  V30 13 H 0.6007 0.2684 1.5014 0
M  V30 14 H 0.4619 2.385 0.4403 0
M  V30 15 H 1.1401 3.107 -1.055 0
M  V30 16 H -3.3487 -0.6745 0.6017 0
M  V30 17 H -1.876 -1.1054 1.5282 0
M  V30 18 H -2.2279 -1.9148 -0.0558 0
M  V30 19 H 2.7205 0.2995 0.179 0
M  V30 20 H 2.4741 -1.4358 -0.2764 0
M  V30 21 H 2.7561 -0.9783 1.4408 0
M  V30 END ATOM
M  V30 BEGIN BOND
M  V30 1 1 1 2
M  V30 2 1 2 3
M  V30 3 1 2 4
M  V30 4 1 2 5
M  V30 5 2 3 6
M  V30 6 1 3 7
M  V30 7 1 4 8
M  V30 8 1 5 9
M  V30 9 1 4 10
M  V30 10 1 4 11
M  V30 11 1 5 12
M  V30 12 1 5 13
M  V30 13 1 7 14
M  V30 14 1 7 15
M  V30 15 1 8 16
M  V30 16 1 8 17
M  V30 17 1 8 18
M  V30 18 1 9 19
M  V30 19 1 9 20
M  V30 20 1 9 21
M  V30 END BOND
M  V30 END CTAB
M  END
>  <Structure No>
6249

>  <LogS>
-1.0289

>  <MMFF94 Energy>
9.3594

$$$$
Compound 6250
Actelion Java MolfileCreator 2.0

  0  0  0  0  0  0              0 V3000
M  V30 BEGIN CTAB
M  V30 COUNTS 12 11 0 0 0
M  V30 BEGIN ATOM
M  V30 1 Cl -1.6742 1.7579 0.4183 0
M  V30 2 C -0.6496 0.2922 0.3573 0 CFG=2
M  V30 3 C 0.81 0.6522 0.2927 0
M  V30 4 C -1.0558 -0.6124 -0.8117 0
M  V30 5 O 1.1861 1.6747 -0.3413 0
M  V30 6 N 1.7847 -0.1929 0.9037 0
M  V30 7 Cl -0.8558 0.1885 -2.3973 0
M  V30 8 H -0.8342 -0.2627 1.3022 0
M  V30 9 H -2.1207 -0.9063 -0.6981 0
M  V30 10 H -0.4427 -1.5388 -0.8007 0
M  V30 11 H 1.4977 -1.0621 1.4063 0
M  V30 12 H 2.7994 0.0464 0.847 0
M  V30 END ATOM
M  V30 BEGIN BOND
M  V30 1 1 1 2
M  V30 2 1 2 3
M  V30 3 1 2 4
M  V30 4 2 3 5
M  V30 5 1 3 6
M  V30 6 1 4 7
M  V30 7 1 2 8
M  V30 8 1 4 9
M  V30 9 1 4 10
M  V30 10 1 6 11
M  V30 11 1 6 12
M  V30 END BOND
M  V30 BEGIN COLLECTION
M  V30 MDLV30/STEABS ATOMS=(1 2)
M  V30 END COLLECTION
M  V30 END CTAB
M  END
>  <Structure No>
6250

>  <LogS>
-0.5138

>  <MMFF94 Energy>
2.5907

$$$$
Compound 6251
Actelion Java MolfileCreator 2.0

  0  0  0  0  0  0              0 V3000
M  V30 BEGIN CTAB
M  V30 COUNTS 22 22 0 0 0
M  V30 BEGIN ATOM
M  V30 1 O 3.2172 0.6271 -0.7839 0
M  V30 2 C 2.1549 0.0563 -0.4141 0
M  V30 3 N 0.9638 0.8379 -0.1768 0
M  V30 4 C 2.1665 -1.4337 -0.2415 0
M  V30 5 C -0.3136 0.2065 0.0272 0
M  V30 6 C 1.0769 2.2893 -0.0087 0
M  V30 7 C -1.0292 0.4208 1.217 0
M  V30 8 C -0.8669 -0.6125 -0.9704 0
M  V30 9 C -2.2729 -0.1883 1.4105 0
M  V30 10 C -2.1108 -1.22 -0.7735 0
M  V30 11 C -2.8127 -1.0094 0.4166 0
M  V30 12 H 3.2054 -1.7937 -0.0852 0
M  V30 13 H 1.5627 -1.7243 0.6434 0
M  V30 14 H 1.7549 -1.92 -1.1496 0
M  V30 15 H 1.5479 2.5157 0.9709 0
M  V30 16 H 1.6935 2.7243 -0.8235 0
M  V30 17 H 0.0767 2.7725 -0.0487 0
M  V30 18 H -0.6177 1.0509 1.9955 0
M  V30 19 H -0.3385 -0.7699 -1.9018 0
M  V30 20 H -2.818 -0.0243 2.3312 0
M  V30 21 H -2.5325 -1.8511 -1.5452 0
M  V30 22 H -3.7757 -1.4799 0.5674 0
M  V30 END ATOM
M  V30 BEGIN BOND
M  V30 1 2 1 2
M  V30 2 1 2 3
M  V30 3 1 2 4
M  V30 4 1 3 5
M  V30 5 1 3 6
M  V30 6 2 5 7
M  V30 7 1 5 8
M  V30 8 1 7 9
M  V30 9 2 8 10
M  V30 10 2 9 11
M  V30 11 1 10 11
M  V30 12 1 4 12
M  V30 13 1 4 13
M  V30 14 1 4 14
M  V30 15 1 6 15
M  V30 16 1 6 16
M  V30 17 1 6 17
M  V30 18 1 7 18
M  V30 19 1 8 19
M  V30 20 1 9 20
M  V30 21 1 10 21
M  V30 22 1 11 22
M  V30 END BOND
M  V30 END CTAB
M  END
>  <Structure No>
6251

>  <LogS>
-0.951

>  <MMFF94 Energy>
12.477

$$$$
Compound 6252
Actelion Java MolfileCreator 2.0

  0  0  0  0  0  0              0 V3000
M  V30 BEGIN CTAB
M  V30 COUNTS 28 28 0 0 0
M  V30 BEGIN ATOM
M  V30 1 Cl -2.7989 2.1586 3.1192 0
M  V30 2 C -2.37 1.7559 1.4336 0
M  V30 3 C -0.9263 1.3473 1.3074 0
M  V30 4 O -0.0971 1.7675 2.1615 0
M  V30 5 N -0.4589 0.5288 0.2111 0
M  V30 6 C 0.8041 -0.1416 0.3664 0
M  V30 7 C -1.2834 0.2839 -0.9921 0
M  V30 8 C 1.9869 0.4722 -0.0723 0
M  V30 9 C 0.8657 -1.3922 0.9987 0
M  V30 10 C -0.4619 0.4399 -2.2789 0
M  V30 11 C -1.934 -1.1018 -0.928 0
M  V30 12 C 3.2164 -0.1722 0.0958 0
M  V30 13 C 2.0966 -2.0344 1.1657 0
M  V30 14 C 3.2709 -1.426 0.7122 0
M  V30 15 H -2.5589 2.6429 0.7938 0
M  V30 16 H -3.0333 0.9267 1.1138 0
M  V30 17 H -2.0952 1.0391 -1.0582 0
M  V30 18 H 1.9522 1.4466 -0.5429 0
M  V30 19 H -0.0385 -1.8643 1.3614 0
M  V30 20 H 0.0209 1.4398 -2.2999 0
M  V30 21 H -1.1254 0.3556 -3.1662 0
M  V30 22 H 0.3218 -0.3439 -2.3513 0
M  V30 23 H -1.1664 -1.9016 -0.9934 0
M  V30 24 H -2.6483 -1.2263 -1.7697 0
M  V30 25 H -2.4917 -1.2192 0.0247 0
M  V30 26 H 4.1266 0.3013 -0.2486 0
M  V30 27 H 2.1404 -3.0016 1.6495 0
M  V30 28 H 4.2232 -1.9235 0.8429 0
M  V30 END ATOM
M  V30 BEGIN BOND
M  V30 1 1 1 2
M  V30 2 1 2 3
M  V30 3 2 3 4
M  V30 4 1 3 5
M  V30 5 1 5 6
M  V30 6 1 5 7
M  V30 7 2 6 8
M  V30 8 1 6 9
M  V30 9 1 7 10
M  V30 10 1 7 11
M  V30 11 1 8 12
M  V30 12 2 9 13
M  V30 13 2 12 14
M  V30 14 1 13 14
M  V30 15 1 2 15
M  V30 16 1 2 16
M  V30 17 1 7 17
M  V30 18 1 8 18
M  V30 19 1 9 19
M  V30 20 1 10 20
M  V30 21 1 10 21
M  V30 22 1 10 22
M  V30 23 1 11 23
M  V30 24 1 11 24
M  V30 25 1 11 25
M  V30 26 1 12 26
M  V30 27 1 13 27
M  V30 28 1 14 28
M  V30 END BOND
M  V30 END CTAB
M  END
>  <Structure No>
6252

>  <LogS>
-2.4806

>  <MMFF94 Energy>
39.548

$$$$
Compound 6253
Actelion Java MolfileCreator 2.0

  0  0  0  0  0  0              0 V3000
M  V30 BEGIN CTAB
M  V30 COUNTS 38 38 0 0 0
M  V30 BEGIN ATOM
M  V30 1 Cl -0.0795 -2.7069 4.0625 0
M  V30 2 C -0.4709 -2.0879 2.4345 0
M  V30 3 C 0.6482 -1.2581 1.8618 0
M  V30 4 O 1.8128 -1.3838 2.3311 0
M  V30 5 N 0.422 -0.3709 0.7449 0
M  V30 6 C -0.8837 -0.2524 0.1505 0
M  V30 7 C 1.5385 0.3726 0.1547 0
M  V30 8 C -1.8143 0.6878 0.6562 0
M  V30 9 C -1.24 -1.0739 -0.944 0
M  V30 10 O 2.4455 -0.5372 -0.4333 0
M  V30 11 C -3.0733 0.8067 0.0469 0
M  V30 12 C -1.474 1.6046 1.8083 0
M  V30 13 C -2.5031 -0.927 -1.5369 0
M  V30 14 C -0.264 -2.0593 -1.5269 0
M  V30 15 C 3.4467 0.1537 -1.1556 0
M  V30 16 C -3.4139 0.0039 -1.0401 0
M  V30 17 C -0.9779 2.9556 1.3034 0
M  V30 18 C 3.0887 0.2011 -2.6367 0
M  V30 19 H -0.6702 -2.947 1.761 0
M  V30 20 H -1.3941 -1.479 2.5208 0
M  V30 21 H 1.1501 1.0926 -0.603 0
M  V30 22 H 2.0443 0.955 0.9575 0
M  V30 23 H -3.792 1.5302 0.4125 0
M  V30 24 H -0.703 1.1551 2.4679 0
M  V30 25 H -2.3757 1.7637 2.4393 0
M  V30 26 H -2.7844 -1.5335 -2.389 0
M  V30 27 H -0.7847 -2.825 -2.1405 0
M  V30 28 H 0.2834 -2.5925 -0.7223 0
M  V30 29 H 0.4617 -1.5221 -2.1715 0
M  V30 30 H 4.3977 -0.4091 -1.0473 0
M  V30 31 H 3.6449 1.1851 -0.7775 0
M  V30 32 H -4.3862 0.1082 -1.5041 0
M  V30 33 H -0.0575 2.8299 0.6966 0
M  V30 34 H -0.7446 3.6123 2.1678 0
M  V30 35 H -1.7587 3.4476 0.6849 0
M  V30 36 H 2.9454 -0.8292 -3.0255 0
M  V30 37 H 2.1543 0.7803 -2.7903 0
M  V30 38 H 3.9088 0.6888 -3.2044 0
M  V30 END ATOM
M  V30 BEGIN BOND
M  V30 1 1 1 2
M  V30 2 1 2 3
M  V30 3 2 3 4
M  V30 4 1 3 5
M  V30 5 1 5 6
M  V30 6 1 5 7
M  V30 7 2 6 8
M  V30 8 1 6 9
M  V30 9 1 7 10
M  V30 10 1 8 11
M  V30 11 1 8 12
M  V30 12 2 9 13
M  V30 13 1 9 14
M  V30 14 1 10 15
M  V30 15 2 11 16
M  V30 16 1 12 17
M  V30 17 1 15 18
M  V30 18 1 13 16
M  V30 19 1 2 19
M  V30 20 1 2 20
M  V30 21 1 7 21
M  V30 22 1 7 22
M  V30 23 1 11 23
M  V30 24 1 12 24
M  V30 25 1 12 25
M  V30 26 1 13 26
M  V30 27 1 14 27
M  V30 28 1 14 28
M  V30 29 1 14 29
M  V30 30 1 15 30
M  V30 31 1 15 31
M  V30 32 1 16 32
M  V30 33 1 17 33
M  V30 34 1 17 34
M  V30 35 1 17 35
M  V30 36 1 18 36
M  V30 37 1 18 37
M  V30 38 1 18 38
M  V30 END BOND
M  V30 END CTAB
M  END
>  <Structure No>
6253

>  <LogS>
-3.0827

>  <MMFF94 Energy>
26.923

$$$$
Compound 6254
Actelion Java MolfileCreator 2.0

  0  0  0  0  0  0              0 V3000
M  V30 BEGIN CTAB
M  V30 COUNTS 10 9 0 0 0
M  V30 BEGIN ATOM
M  V30 1 O 2.211 -0.3047 -0.1523 0
M  V30 2 C 1.0996 -0.2921 -0.7436 0
M  V30 3 O 1.0402 0.0384 -2.0912 0 CHG=-1
M  V30 4 C -0.1598 -0.5783 0.0141 0
M  V30 5 N -0.7111 0.6508 0.581 0 CHG=1
M  V30 6 H 0.0518 -1.3049 0.8294 0
M  V30 7 H -0.9036 -1.0399 -0.6716 0
M  V30 8 H -1.5897 0.4239 1.1005 0
M  V30 9 H -0.0255 1.0787 1.2453 0
M  V30 10 H -0.9349 1.3297 -0.1828 0
M  V30 END ATOM
M  V30 BEGIN BOND
M  V30 1 2 1 2
M  V30 2 1 2 3
M  V30 3 1 2 4
M  V30 4 1 4 5
M  V30 5 1 4 6
M  V30 6 1 4 7
M  V30 7 1 5 8
M  V30 8 1 5 9
M  V30 9 1 5 10
M  V30 END BOND
M  V30 END CTAB
M  END
>  <Structure No>
6254

>  <LogS>
0.92

>  <MMFF94 Energy>
-12.563

$$$$
Compound 6255
Actelion Java MolfileCreator 2.0

  0  0  0  0  0  0              0 V3000
M  V30 BEGIN CTAB
M  V30 COUNTS 29 29 0 0 0
M  V30 BEGIN ATOM
M  V30 1 O -2.043 -1.5713 0.7068 0
M  V30 2 C -2.0006 -0.3122 0.0741 0
M  V30 3 C -0.5114 0.1279 -0.1913 0 CFG=2
M  V30 4 C -2.763 -0.4426 -1.2613 0
M  V30 5 C -2.7563 0.7337 0.9322 0
M  V30 6 C 0.2441 -0.8804 -1.0936 0
M  V30 7 C 0.3072 0.3418 1.1027 0
M  V30 8 C 1.7243 -0.606 -1.198 0
M  V30 9 C 1.6879 0.9195 0.777 0
M  V30 10 C 2.4008 0.1478 -0.3094 0
M  V30 11 C 3.8848 0.3263 -0.4793 0
M  V30 12 H -1.7162 -1.4669 1.6375 0
M  V30 13 H -0.5406 1.1028 -0.7305 0
M  V30 14 H -3.8417 -0.6412 -1.0807 0
M  V30 15 H -2.382 -1.2972 -1.8577 0
M  V30 16 H -2.6727 0.4887 -1.8612 0
M  V30 17 H -2.38 0.76 1.975 0
M  V30 18 H -2.6583 1.748 0.4887 0
M  V30 19 H -3.8366 0.4808 0.9966 0
M  V30 20 H -0.1679 -0.845 -2.1234 0
M  V30 21 H 0.1159 -1.9127 -0.7035 0
M  V30 22 H -0.1949 1.0584 1.7829 0
M  V30 23 H 0.4375 -0.6214 1.6424 0
M  V30 24 H 2.2722 -1.1243 -1.9808 0
M  V30 25 H 1.5775 1.9749 0.4457 0
M  V30 26 H 2.3021 0.9147 1.7035 0
M  V30 27 H 4.293 1.0234 0.2829 0
M  V30 28 H 4.1033 0.7421 -1.4858 0
M  V30 29 H 4.395 -0.6539 -0.37 0
M  V30 END ATOM
M  V30 BEGIN BOND
M  V30 1 1 1 2
M  V30 2 1 2 3
M  V30 3 1 2 4
M  V30 4 1 2 5
M  V30 5 1 3 6
M  V30 6 1 3 7
M  V30 7 1 6 8
M  V30 8 1 7 9
M  V30 9 2 8 10
M  V30 10 1 10 11
M  V30 11 1 9 10
M  V30 12 1 1 12
M  V30 13 1 3 13
M  V30 14 1 4 14
M  V30 15 1 4 15
M  V30 16 1 4 16
M  V30 17 1 5 17
M  V30 18 1 5 18
M  V30 19 1 5 19
M  V30 20 1 6 20
M  V30 21 1 6 21
M  V30 22 1 7 22
M  V30 23 1 7 23
M  V30 24 1 8 24
M  V30 25 1 9 25
M  V30 26 1 9 26
M  V30 27 1 11 27
M  V30 28 1 11 28
M  V30 29 1 11 29
M  V30 END BOND
M  V30 BEGIN COLLECTION
M  V30 MDLV30/STEABS ATOMS=(1 3)
M  V30 END COLLECTION
M  V30 END CTAB
M  END
>  <Structure No>
6255

>  <LogS>
-1.91

>  <MMFF94 Energy>
21.996

$$$$
Compound 6256
Actelion Java MolfileCreator 2.0

  0  0  0  0  0  0              0 V3000
M  V30 BEGIN CTAB
M  V30 COUNTS 19 18 0 0 0
M  V30 BEGIN ATOM
M  V30 1 O 1.5433 -1.3888 -1.1573 0
M  V30 2 C 2.0826 -0.5064 -0.4362 0
M  V30 3 O 1.3816 0.6473 -0.0669 0
M  V30 4 N 3.4253 -0.682 0.0065 0
M  V30 5 C 0.0223 0.9016 -0.4245 0
M  V30 6 C -0.9357 0.4926 0.7099 0
M  V30 7 C -2.3612 0.9621 0.3944 0
M  V30 8 C -0.9211 -1.0224 0.9488 0
M  V30 9 H 3.8798 0.0435 0.6035 0
M  V30 10 H 3.9637 -1.5359 -0.2598 0
M  V30 11 H -0.2452 0.3942 -1.3775 0
M  V30 12 H -0.0769 1.9945 -0.5982 0
M  V30 13 H -0.6082 0.9967 1.6461 0
M  V30 14 H -3.0457 0.7019 1.2301 0
M  V30 15 H -2.7338 0.4839 -0.5369 0
M  V30 16 H -2.3833 2.0652 0.2653 0
M  V30 17 H 0.0781 -1.3488 1.3038 0
M  V30 18 H -1.6585 -1.2947 1.7338 0
M  V30 19 H -1.1744 -1.5697 0.0156 0
M  V30 END ATOM
M  V30 BEGIN BOND
M  V30 1 2 1 2
M  V30 2 1 2 3
M  V30 3 1 2 4
M  V30 4 1 3 5
M  V30 5 1 5 6
M  V30 6 1 6 7
M  V30 7 1 6 8
M  V30 8 1 4 9
M  V30 9 1 4 10
M  V30 10 1 5 11
M  V30 11 1 5 12
M  V30 12 1 6 13
M  V30 13 1 7 14
M  V30 14 1 7 15
M  V30 15 1 7 16
M  V30 16 1 8 17
M  V30 17 1 8 18
M  V30 18 1 8 19
M  V30 END BOND
M  V30 END CTAB
M  END
>  <Structure No>
6256

>  <LogS>
-0.3

>  <MMFF94 Energy>
-70.333

$$$$
Compound 6257
Actelion Java MolfileCreator 2.0

  0  0  0  0  0  0              0 V3000
M  V30 BEGIN CTAB
M  V30 COUNTS 27 27 0 0 0
M  V30 BEGIN ATOM
M  V30 1 O 2.0418 -1.0205 1.8846 0
M  V30 2 C 1.2625 -0.7626 0.7432 0 CFG=2
M  V30 3 C 2.0389 -0.0224 -0.3379 0
M  V30 4 C -0.0228 0.0119 1.126 0
M  V30 5 C 1.3509 0.4751 -1.3801 0
M  V30 6 C 3.534 0.1667 -0.2855 0
M  V30 7 C -0.7966 0.5975 -0.0987 0 CFG=1
M  V30 8 C -0.1367 0.273 -1.4578 0
M  V30 9 C -2.2554 0.1626 -0.1013 0
M  V30 10 C -3.2378 1.0769 -0.0729 0
M  V30 11 C -2.624 -1.2985 -0.1614 0
M  V30 12 H 2.294 -0.1452 2.2806 0
M  V30 13 H 0.9544 -1.743 0.3192 0
M  V30 14 H -0.6683 -0.6587 1.7344 0
M  V30 15 H 0.2524 0.8569 1.7956 0
M  V30 16 H 1.8554 1.0377 -2.161 0
M  V30 17 H 3.9914 -0.2039 -1.2272 0
M  V30 18 H 3.9978 -0.3892 0.5533 0
M  V30 19 H 3.7687 1.2458 -0.1705 0
M  V30 20 H -0.7502 1.7069 0.0015 0
M  V30 21 H -0.3271 -0.7837 -1.7434 0
M  V30 22 H -0.5606 0.9242 -2.2525 0
M  V30 23 H -3.0188 2.1397 -0.0396 0
M  V30 24 H -4.2803 0.7719 -0.0833 0
M  V30 25 H -1.7207 -1.9431 -0.1671 0
M  V30 26 H -3.2063 -1.5017 -1.0848 0
M  V30 27 H -3.2374 -1.5682 0.7241 0
M  V30 END ATOM
M  V30 BEGIN BOND
M  V30 1 1 1 2
M  V30 2 1 2 3
M  V30 3 1 2 4
M  V30 4 2 3 5
M  V30 5 1 3 6
M  V30 6 1 4 7
M  V30 7 1 5 8
M  V30 8 1 7 9
M  V30 9 2 9 10
M  V30 10 1 9 11
M  V30 11 1 7 8
M  V30 12 1 1 12
M  V30 13 1 2 13
M  V30 14 1 4 14
M  V30 15 1 4 15
M  V30 16 1 5 16
M  V30 17 1 6 17
M  V30 18 1 6 18
M  V30 19 1 6 19
M  V30 20 1 7 20
M  V30 21 1 8 21
M  V30 22 1 8 22
M  V30 23 1 10 23
M  V30 24 1 10 24
M  V30 25 1 11 25
M  V30 26 1 11 26
M  V30 27 1 11 27
M  V30 END BOND
M  V30 BEGIN COLLECTION
M  V30 MDLV30/STEABS ATOMS=(2 2 7)
M  V30 END COLLECTION
M  V30 END CTAB
M  END
>  <Structure No>
6257

>  <LogS>
-1.72

>  <MMFF94 Energy>
17.532

$$$$
Compound 6258
Actelion Java MolfileCreator 2.0

  0  0  0  0  0  0              0 V3000
M  V30 BEGIN CTAB
M  V30 COUNTS 19 18 0 0 0
M  V30 BEGIN ATOM
M  V30 1 O 1.6218 0.6175 1.5445 0
M  V30 2 C 1.8446 0.0809 0.4267 0
M  V30 3 O 0.7961 -0.2618 -0.4401 0
M  V30 4 N 3.1878 -0.1844 0.0324 0
M  V30 5 C -0.6053 -0.0643 -0.1984 0
M  V30 6 C -0.9214 1.4344 -0.0302 0
M  V30 7 C -1.3581 -0.5947 -1.4283 0
M  V30 8 C -1.0592 -0.8572 1.0424 0
M  V30 9 H 3.3852 -0.6286 -0.8912 0
M  V30 10 H 3.9838 0.0622 0.6618 0
M  V30 11 H -2.0193 1.5978 0.0297 0
M  V30 12 H -0.4699 1.842 0.897 0
M  V30 13 H -0.5242 2.0091 -0.8942 0
M  V30 14 H -1.1371 -1.6734 -1.5795 0
M  V30 15 H -2.4566 -0.4723 -1.3078 0
M  V30 16 H -1.0393 -0.0466 -2.3411 0
M  V30 17 H -0.7607 -1.9231 0.9464 0
M  V30 18 H -2.164 -0.8071 1.1555 0
M  V30 19 H -0.6078 -0.4506 1.9702 0
M  V30 END ATOM
M  V30 BEGIN BOND
M  V30 1 2 1 2
M  V30 2 1 2 3
M  V30 3 1 2 4
M  V30 4 1 3 5
M  V30 5 1 5 6
M  V30 6 1 5 7
M  V30 7 1 5 8
M  V30 8 1 4 9
M  V30 9 1 4 10
M  V30 10 1 6 11
M  V30 11 1 6 12
M  V30 12 1 6 13
M  V30 13 1 7 14
M  V30 14 1 7 15
M  V30 15 1 7 16
M  V30 16 1 8 17
M  V30 17 1 8 18
M  V30 18 1 8 19
M  V30 END BOND
M  V30 END CTAB
M  END
>  <Structure No>
6258

>  <LogS>
0.1

>  <MMFF94 Energy>
-62.03

$$$$
Compound 6259
Actelion Java MolfileCreator 2.0

  0  0  0  0  0  0              0 V3000
M  V30 BEGIN CTAB
M  V30 COUNTS 24 24 0 0 0
M  V30 BEGIN ATOM
M  V30 1 O -0.079 -1.4244 0.3955 0
M  V30 2 C 1.1666 -1.3628 -0.2852 0 CFG=2
M  V30 3 C -0.9897 -0.4731 -0.1265 0 CFG=2
M  V30 4 O 2.071 -2.1845 0.4081 0
M  V30 5 C 1.7206 0.0946 -0.3863 0 CFG=2
M  V30 6 C -0.5549 0.9672 0.274 0 CFG=1
M  V30 7 C -2.3934 -0.8081 0.4001 0
M  V30 8 O 3.0951 0.1461 -0.0969 0
M  V30 9 C 0.9613 1.0188 0.5744 0 CFG=2
M  V30 10 O -0.8577 1.8585 -0.7708 0
M  V30 11 O -3.3565 0.0557 -0.1408 0
M  V30 12 O 1.4487 2.3312 0.4579 0
M  V30 13 H 1.026 -1.7686 -1.3171 0
M  V30 14 H -1.0295 -0.56 -1.2393 0
M  V30 15 H 2.7439 -2.5008 -0.2501 0
M  V30 16 H 1.5488 0.4717 -1.4232 0
M  V30 17 H -1.0775 1.2897 1.2065 0
M  V30 18 H -2.4117 -0.7179 1.5074 0
M  V30 19 H -2.6464 -1.8635 0.1492 0
M  V30 20 H 3.5682 -0.1932 -0.9011 0
M  V30 21 H 1.1379 0.6517 1.6139 0
M  V30 22 H -1.811 2.1143 -0.6677 0
M  V30 23 H -3.4975 -0.2289 -1.0814 0
M  V30 24 H 1.0996 2.8344 1.2396 0
M  V30 END ATOM
M  V30 BEGIN BOND
M  V30 1 1 1 2
M  V30 2 1 1 3
M  V30 3 1 2 4
M  V30 4 1 2 5
M  V30 5 1 3 6
M  V30 6 1 3 7
M  V30 7 1 5 8
M  V30 8 1 5 9
M  V30 9 1 6 10
M  V30 10 1 7 11
M  V30 11 1 9 12
M  V30 12 1 6 9
M  V30 13 1 2 13
M  V30 14 1 3 14
M  V30 15 1 4 15
M  V30 16 1 5 16
M  V30 17 1 6 17
M  V30 18 1 7 18
M  V30 19 1 7 19
M  V30 20 1 8 20
M  V30 21 1 9 21
M  V30 22 1 10 22
M  V30 23 1 11 23
M  V30 24 1 12 24
M  V30 END BOND
M  V30 BEGIN COLLECTION
M  V30 MDLV30/STEABS ATOMS=(5 2 3 5 6 9)
M  V30 END COLLECTION
M  V30 END CTAB
M  END
>  <Structure No>
6259

>  <LogS>
0.74

>  <MMFF94 Energy>
81.632

$$$$
Compound 6260
Actelion Java MolfileCreator 2.0

  0  0  0  0  0  0              0 V3000
M  V30 BEGIN CTAB
M  V30 COUNTS 20 19 0 0 0
M  V30 BEGIN ATOM
M  V30 1 S 0.4678 -1.4819 2.0284 0
M  V30 2 C 0.0365 -0.7077 0.6447 0
M  V30 3 N 1.0127 -0.429 -0.38 0
M  V30 4 N -1.3437 -0.3518 0.4627 0
M  V30 5 C 2.457 -0.5825 -0.1985 0
M  V30 6 C -1.8248 0.3795 -0.7096 0
M  V30 7 C 3.017 0.558 0.6446 0
M  V30 8 C -3.3105 0.7018 -0.5822 0
M  V30 9 H 0.689 -0.1217 -1.3234 0
M  V30 10 H -2.0212 -0.6024 1.2196 0
M  V30 11 H 2.9541 -0.5611 -1.1926 0
M  V30 12 H 2.6884 -1.563 0.2692 0
M  V30 13 H -1.2592 1.3307 -0.8119 0
M  V30 14 H -1.6696 -0.2371 -1.6208 0
M  V30 15 H 2.5743 0.5475 1.6621 0
M  V30 16 H 4.1181 0.4474 0.736 0
M  V30 17 H 2.7938 1.5329 0.1614 0
M  V30 18 H -3.8995 -0.2361 -0.4976 0
M  V30 19 H -3.6504 1.2579 -1.4813 0
M  V30 20 H -3.4895 1.3301 0.3162 0
M  V30 END ATOM
M  V30 BEGIN BOND
M  V30 1 2 1 2
M  V30 2 1 2 3
M  V30 3 1 2 4
M  V30 4 1 3 5
M  V30 5 1 4 6
M  V30 6 1 5 7
M  V30 7 1 6 8
M  V30 8 1 3 9
M  V30 9 1 4 10
M  V30 10 1 5 11
M  V30 11 1 5 12
M  V30 12 1 6 13
M  V30 13 1 6 14
M  V30 14 1 7 15
M  V30 15 1 7 16
M  V30 16 1 7 17
M  V30 17 1 8 18
M  V30 18 1 8 19
M  V30 19 1 8 20
M  V30 END BOND
M  V30 END CTAB
M  END
>  <Structure No>
6260

>  <LogS>
-1.46

>  <MMFF94 Energy>
-71.449

$$$$
Compound 6261
Actelion Java MolfileCreator 2.0

  0  0  0  0  0  0              0 V3000
M  V30 BEGIN CTAB
M  V30 COUNTS 15 14 0 0 0
M  V30 BEGIN ATOM
M  V30 1 O 4.2857 -0.9338 -0.3112 0
M  V30 2 C 3.2966 -0.4011 0.2563 0
M  V30 3 O 3.4983 0.3767 1.391 0 CHG=-1
M  V30 4 C 1.9469 -0.61 -0.2893 0
M  V30 5 C 0.8629 -0.0685 0.273 0
M  V30 6 C -0.4762 -0.295 -0.2951 0
M  V30 7 C -1.5609 0.2444 0.264 0
M  V30 8 C -2.9198 0.0136 -0.314 0
M  V30 9 H 1.8433 -1.2251 -1.176 0
M  V30 10 H 0.9608 0.5473 1.1599 0
M  V30 11 H -0.5822 -0.91 -1.1824 0
M  V30 12 H -1.4703 0.8613 1.1509 0
M  V30 13 H -2.9597 0.3987 -1.3548 0
M  V30 14 H -3.6813 0.5452 0.2941 0
M  V30 15 H -3.1535 -1.0719 -0.312 0
M  V30 END ATOM
M  V30 BEGIN BOND
M  V30 1 2 1 2
M  V30 2 1 2 3
M  V30 3 1 2 4
M  V30 4 2 4 5
M  V30 5 1 5 6
M  V30 6 2 6 7
M  V30 7 1 7 8
M  V30 8 1 4 9
M  V30 9 1 5 10
M  V30 10 1 6 11
M  V30 11 1 7 12
M  V30 12 1 8 13
M  V30 13 1 8 14
M  V30 14 1 8 15
M  V30 END BOND
M  V30 END CTAB
M  END
>  <Structure No>
6261

>  <LogS>
-1.77

>  <MMFF94 Energy>
-7.4393

$$$$
Compound 6262
Actelion Java MolfileCreator 2.0

  0  0  0  0  0  0              0 V3000
M  V30 BEGIN CTAB
M  V30 COUNTS 14 13 0 0 0
M  V30 BEGIN ATOM
M  V30 1 O -1.0796 1.6197 1.3882 0
M  V30 2 C -0.8054 1.5234 0.1623 0
M  V30 3 O -0.9901 2.621 -0.6689 0 CHG=-1
M  V30 4 C -0.2657 0.236 -0.4007 0 CFG=2
M  V30 5 N -1.1844 -0.8735 -0.115 0 CHG=1
M  V30 6 C 1.1351 -0.0435 0.1663 0
M  V30 7 O 1.6916 -1.1644 -0.4633 0
M  V30 8 H -0.1764 0.3503 -1.5049 0
M  V30 9 H -2.1356 -0.651 -0.4898 0
M  V30 10 H -1.2525 -1.043 0.9154 0
M  V30 11 H -0.8471 -1.7455 -0.5836 0
M  V30 12 H 1.7891 0.8397 -0.0143 0
M  V30 13 H 1.0727 -0.2205 1.264 0
M  V30 14 H 2.5848 -1.2966 -0.0512 0
M  V30 END ATOM
M  V30 BEGIN BOND
M  V30 1 2 1 2
M  V30 2 1 2 3
M  V30 3 1 2 4
M  V30 4 1 4 5
M  V30 5 1 4 6
M  V30 6 1 6 7
M  V30 7 1 4 8
M  V30 8 1 5 9
M  V30 9 1 5 10
M  V30 10 1 5 11
M  V30 11 1 6 12
M  V30 12 1 6 13
M  V30 13 1 7 14
M  V30 END BOND
M  V30 BEGIN COLLECTION
M  V30 MDLV30/STEABS ATOMS=(1 4)
M  V30 END COLLECTION
M  V30 END CTAB
M  END
>  <Structure No>
6262

>  <LogS>
-0.02

>  <MMFF94 Energy>
-5.0245

$$$$
Compound 6263
Actelion Java MolfileCreator 2.0

  0  0  0  0  0  0              0 V3000
M  V30 BEGIN CTAB
M  V30 COUNTS 8 7 0 0 0
M  V30 BEGIN ATOM
M  V30 1 Cl 1.5351 -1.6448 0.0 0
M  V30 2 C 0.7901 -0.0252 -0.1351 0
M  V30 3 Cl 1.0253 0.5445 -1.813 0
M  V30 4 Cl 1.6876 1.0796 0.9465 0
M  V30 5 C -0.7138 -0.0693 0.2344 0
M  V30 6 Cl -1.4588 1.5501 0.0993 0
M  V30 7 Cl -0.9491 -0.639 1.9125 0
M  V30 8 Cl -1.6114 -1.1741 -0.847 0
M  V30 END ATOM
M  V30 BEGIN BOND
M  V30 1 1 1 2
M  V30 2 1 2 3
M  V30 3 1 2 4
M  V30 4 1 2 5
M  V30 5 1 5 6
M  V30 6 1 5 7
M  V30 7 1 5 8
M  V30 END BOND
M  V30 END CTAB
M  END
>  <Structure No>
6263

>  <LogS>
-3.94

>  <MMFF94 Energy>
60.718

$$$$
Compound 6264
Actelion Java MolfileCreator 2.0

  0  0  0  0  0  0              0 V3000
M  V30 BEGIN CTAB
M  V30 COUNTS 15 14 0 0 0
M  V30 BEGIN ATOM
M  V30 1 O -2.3362 1.6107 0.8856 0
M  V30 2 C -1.9939 0.4029 0.7895 0
M  V30 3 O -2.0965 -0.4314 1.8953 0 CHG=-1
M  V30 4 C -1.4446 -0.1237 -0.5007 0
M  V30 5 C 0.022 0.2789 -0.7021 0
M  V30 6 C 0.9579 -0.4203 0.2918 0
M  V30 7 C 2.3805 -0.0439 0.0239 0
M  V30 8 O 3.0777 -0.727 -0.7716 0
M  V30 9 O 2.9226 1.0903 0.6146 0 CHG=-1
M  V30 10 H -1.5429 -1.2307 -0.5273 0
M  V30 11 H -2.049 0.2846 -1.3392 0
M  V30 12 H 0.3197 -9.0E-4 -1.7367 0
M  V30 13 H 0.1238 1.3831 -0.6068 0
M  V30 14 H 0.8456 -1.5233 0.2062 0
M  V30 15 H 0.6999 -0.125 1.3314 0
M  V30 END ATOM
M  V30 BEGIN BOND
M  V30 1 2 1 2
M  V30 2 1 2 3
M  V30 3 1 2 4
M  V30 4 1 4 5
M  V30 5 1 5 6
M  V30 6 1 6 7
M  V30 7 2 7 8
M  V30 8 1 7 9
M  V30 9 1 4 10
M  V30 10 1 4 11
M  V30 11 1 5 12
M  V30 12 1 5 13
M  V30 13 1 6 14
M  V30 14 1 6 15
M  V30 END BOND
M  V30 END CTAB
M  END
>  <Structure No>
6264

>  <LogS>
1.0

>  <MMFF94 Energy>
59.581

$$$$
Compound 6265
Actelion Java MolfileCreator 2.0

  0  0  0  0  0  0              0 V3000
M  V30 BEGIN CTAB
M  V30 COUNTS 12 11 0 0 0
M  V30 BEGIN ATOM
M  V30 1 O 1.6227 -0.1621 1.9475 0
M  V30 2 C 1.3998 0.3558 0.8219 0
M  V30 3 O 1.6404 1.7101 0.6277 0 CHG=-1
M  V30 4 C 0.8358 -0.4736 -0.2908 0
M  V30 5 C -0.6846 -0.6224 -0.1702 0
M  V30 6 C -1.3867 0.683 -0.3886 0
M  V30 7 O -1.603 1.0979 -1.5575 0
M  V30 8 O -1.7652 1.4604 0.6985 0 CHG=-1
M  V30 9 H 1.3006 -1.4826 -0.2591 0
M  V30 10 H 1.0972 -0.0159 -1.2697 0
M  V30 11 H -1.0371 -1.3525 -0.9304 0
M  V30 12 H -0.9496 -1.028 0.8305 0
M  V30 END ATOM
M  V30 BEGIN BOND
M  V30 1 2 1 2
M  V30 2 1 2 3
M  V30 3 1 2 4
M  V30 4 1 4 5
M  V30 5 1 5 6
M  V30 6 2 6 7
M  V30 7 1 6 8
M  V30 8 1 4 9
M  V30 9 1 4 10
M  V30 10 1 5 11
M  V30 11 1 5 12
M  V30 END BOND
M  V30 END CTAB
M  END
>  <Structure No>
6265

>  <LogS>
-0.17

>  <MMFF94 Energy>
59.862

$$$$
Compound 6266
Actelion Java MolfileCreator 2.0

  0  0  0  0  0  0              0 V3000
M  V30 BEGIN CTAB
M  V30 COUNTS 20 19 0 0 0
M  V30 BEGIN ATOM
M  V30 1 S -0.4022 1.5293 1.4487 0
M  V30 2 C -0.6313 0.1265 0.2815 0
M  V30 3 C 0.7413 -0.4075 -0.269 0 CFG=1
M  V30 4 C -1.3593 -0.9963 1.0498 0
M  V30 5 C -1.5533 0.5796 -0.8705 0
M  V30 6 N 1.4667 0.5826 -1.0823 0 CHG=1
M  V30 7 C 1.6393 -0.923 0.8329 0
M  V30 8 O 2.2989 -0.1254 1.5513 0
M  V30 9 O 1.7252 -2.2888 1.0738 0 CHG=-1
M  V30 10 H -0.1306 2.5005 0.4676 0
M  V30 11 H 0.5177 -1.2764 -0.9301 0
M  V30 12 H -2.3568 -0.6513 1.3992 0
M  V30 13 H -1.5054 -1.8862 0.4001 0
M  V30 14 H -0.7832 -1.3051 1.9476 0
M  V30 15 H -1.6807 -0.2371 -1.6132 0
M  V30 16 H -2.5567 0.858 -0.4817 0
M  V30 17 H -1.1496 1.4715 -1.3919 0
M  V30 18 H 1.6605 1.4543 -0.5405 0
M  V30 19 H 2.3809 0.1785 -1.3921 0
M  V30 20 H 0.9294 0.8151 -1.947 0
M  V30 END ATOM
M  V30 BEGIN BOND
M  V30 1 1 1 2
M  V30 2 1 2 3
M  V30 3 1 2 4
M  V30 4 1 2 5
M  V30 5 1 3 6
M  V30 6 1 3 7
M  V30 7 2 7 8
M  V30 8 1 7 9
M  V30 9 1 1 10
M  V30 10 1 3 11
M  V30 11 1 4 12
M  V30 12 1 4 13
M  V30 13 1 4 14
M  V30 14 1 5 15
M  V30 15 1 5 16
M  V30 16 1 5 17
M  V30 17 1 6 18
M  V30 18 1 6 19
M  V30 19 1 6 20
M  V30 END BOND
M  V30 BEGIN COLLECTION
M  V30 MDLV30/STEABS ATOMS=(1 3)
M  V30 END COLLECTION
M  V30 END CTAB
M  END
>  <Structure No>
6266

>  <LogS>
-0.13

>  <MMFF94 Energy>
12.46

$$$$
Compound 6267
Actelion Java MolfileCreator 2.0

  0  0  0  0  0  0              0 V3000
M  V30 BEGIN CTAB
M  V30 COUNTS 18 17 0 0 0
M  V30 BEGIN ATOM
M  V30 1 O 3.2089 -0.9618 -0.8816 0
M  V30 2 C 2.6841 -0.2841 0.0407 0
M  V30 3 O 2.9577 -0.5978 1.3662 0 CHG=-1
M  V30 4 C 1.7421 0.8334 -0.2875 0
M  V30 5 C 0.3512 0.3127 -0.6734 0
M  V30 6 C -0.3903 -0.307 0.5236 0
M  V30 7 C -1.7812 -0.8277 0.1377 0
M  V30 8 C -2.7234 0.2898 -0.1906 0
M  V30 9 O -3.2481 0.9675 0.7319 0
M  V30 10 O -2.9969 0.6036 -1.516 0 CHG=-1
M  V30 11 H 2.1592 1.4125 -1.1396 0
M  V30 12 H 1.6624 1.5257 0.5785 0
M  V30 13 H -0.2381 1.1696 -1.0648 0
M  V30 14 H 0.4453 -0.4357 -1.4911 0
M  V30 15 H -0.4845 0.4415 1.3413 0
M  V30 16 H 0.1989 -1.1638 0.9151 0
M  V30 17 H -1.7017 -1.5199 -0.7283 0
M  V30 18 H -2.1984 -1.4067 0.9898 0
M  V30 END ATOM
M  V30 BEGIN BOND
M  V30 1 2 1 2
M  V30 2 1 2 3
M  V30 3 1 2 4
M  V30 4 1 4 5
M  V30 5 1 5 6
M  V30 6 1 6 7
M  V30 7 1 7 8
M  V30 8 2 8 9
M  V30 9 1 8 10
M  V30 10 1 4 11
M  V30 11 1 4 12
M  V30 12 1 5 13
M  V30 13 1 5 14
M  V30 14 1 6 15
M  V30 15 1 6 16
M  V30 16 1 7 17
M  V30 17 1 7 18
M  V30 END BOND
M  V30 END CTAB
M  END
>  <Structure No>
6267

>  <LogS>
-0.82

>  <MMFF94 Energy>
48.013

$$$$
Compound 6268
Actelion Java MolfileCreator 2.0

  0  0  0  0  0  0              0 V3000
M  V30 BEGIN CTAB
M  V30 COUNTS 13 12 0 0 0
M  V30 BEGIN ATOM
M  V30 1 O -2.2721 0.5676 0.9733 0
M  V30 2 C -1.7965 -0.208 0.1022 0
M  V30 3 O -2.5104 -1.3392 -0.2722 0 CHG=-1
M  V30 4 C -0.4459 0.0593 -0.4968 0 CFG=1
M  V30 5 O -0.3249 1.4224 -0.8132 0
M  V30 6 C 0.654 -0.3428 0.4932 0
M  V30 7 C 2.0119 -0.1784 -0.1163 0
M  V30 8 O 2.5056 -1.0984 -0.82 0
M  V30 9 O 2.7127 1.0086 0.0549 0 CHG=-1
M  V30 10 H -0.3352 -0.5549 -1.4214 0
M  V30 11 H -0.8657 1.5751 -1.6321 0
M  V30 12 H 0.5875 0.2829 1.4101 0
M  V30 13 H 0.52 -1.4054 0.7939 0
M  V30 END ATOM
M  V30 BEGIN BOND
M  V30 1 2 1 2
M  V30 2 1 2 3
M  V30 3 1 2 4
M  V30 4 1 4 5
M  V30 5 1 4 6
M  V30 6 1 6 7
M  V30 7 2 7 8
M  V30 8 1 7 9
M  V30 9 1 4 10
M  V30 10 1 5 11
M  V30 11 1 6 12
M  V30 12 1 6 13
M  V30 END BOND
M  V30 BEGIN COLLECTION
M  V30 MDLV30/STEABS ATOMS=(1 4)
M  V30 END COLLECTION
M  V30 END CTAB
M  END
>  <Structure No>
6268

>  <LogS>
0.64

>  <MMFF94 Energy>
110.19

$$$$
Compound 6269
Actelion Java MolfileCreator 2.0

  0  0  0  0  0  0              0 V3000
M  V30 BEGIN CTAB
M  V30 COUNTS 13 13 0 0 0
M  V30 BEGIN ATOM
M  V30 1 O 2.4972 0.1559 -0.1559 0
M  V30 2 C 1.1087 0.0803 -0.0742 0
M  V30 3 C 0.4328 -1.092 -0.4442 0
M  V30 4 C 0.3814 1.1863 0.3821 0
M  V30 5 C -0.9618 -1.1541 -0.3571 0
M  V30 6 C -1.0133 1.1224 0.4686 0
M  V30 7 C -1.6848 -0.0471 0.0991 0
M  V30 8 H 3.0516 -0.6271 -0.482 0
M  V30 9 H 0.9861 -1.9525 -0.7981 0
M  V30 10 H 0.8969 2.094 0.6693 0
M  V30 11 H -1.482 -2.0592 -0.6428 0
M  V30 12 H -1.5733 1.9789 0.8216 0
M  V30 13 H -2.7639 -0.0959 0.1662 0
M  V30 END ATOM
M  V30 BEGIN BOND
M  V30 1 1 1 2
M  V30 2 2 2 3
M  V30 3 1 2 4
M  V30 4 1 3 5
M  V30 5 2 4 6
M  V30 6 2 5 7
M  V30 7 1 6 7
M  V30 8 1 1 8
M  V30 9 1 3 9
M  V30 10 1 4 10
M  V30 11 1 5 11
M  V30 12 1 6 12
M  V30 13 1 7 13
M  V30 END BOND
M  V30 END CTAB
M  END
>  <Structure No>
6269

>  <LogS>
-0.04

>  <MMFF94 Energy>
5.7133

$$$$
Compound 6270
Actelion Java MolfileCreator 2.0

  0  0  0  0  0  0              0 V3000
M  V30 BEGIN CTAB
M  V30 COUNTS 20 19 0 0 0
M  V30 BEGIN ATOM
M  V30 1 O 0.0779 1.9494 -1.4033 0
M  V30 2 C -0.5525 1.3989 -0.4626 0
M  V30 3 O -0.8694 2.1358 0.6725 0 CHG=-1
M  V30 4 C -0.9937 -0.0361 -0.5863 0 CFG=2
M  V30 5 N -2.4558 -0.0928 -0.7002 0 CHG=1
M  V30 6 C -0.5143 -0.8849 0.6162 0
M  V30 7 C 0.996 -1.1783 0.6017 0
M  V30 8 C 1.8156 0.0129 1.0042 0
M  V30 9 O 1.7812 0.4218 2.1956 0
M  V30 10 N 2.6309 0.6908 0.0482 0
M  V30 11 H -0.5576 -0.4668 -1.5168 0
M  V30 12 H -2.773 0.4891 -1.5099 0
M  V30 13 H -2.9074 0.2606 0.1752 0
M  V30 14 H -2.7619 -1.0785 -0.8699 0
M  V30 15 H -1.0353 -1.8667 0.5796 0
M  V30 16 H -0.807 -0.4062 1.5768 0
M  V30 17 H 1.2048 -1.9979 1.3227 0
M  V30 18 H 1.3049 -1.5434 -0.4012 0
M  V30 19 H 3.1949 1.5219 0.3331 0
M  V30 20 H 2.6649 0.3745 -0.946 0
M  V30 END ATOM
M  V30 BEGIN BOND
M  V30 1 2 1 2
M  V30 2 1 2 3
M  V30 3 1 2 4
M  V30 4 1 4 5
M  V30 5 1 4 6
M  V30 6 1 6 7
M  V30 7 1 7 8
M  V30 8 2 8 9
M  V30 9 1 8 10
M  V30 10 1 4 11
M  V30 11 1 5 12
M  V30 12 1 5 13
M  V30 13 1 5 14
M  V30 14 1 6 15
M  V30 15 1 6 16
M  V30 16 1 7 17
M  V30 17 1 7 18
M  V30 18 1 10 19
M  V30 19 1 10 20
M  V30 END BOND
M  V30 BEGIN COLLECTION
M  V30 MDLV30/STEABS ATOMS=(1 4)
M  V30 END COLLECTION
M  V30 END CTAB
M  END
>  <Structure No>
6270

>  <LogS>
-0.54

>  <MMFF94 Energy>
-44.763

$$$$
Compound 6271
Actelion Java MolfileCreator 2.0

  0  0  0  0  0  0              0 V3000
M  V30 BEGIN CTAB
M  V30 COUNTS 30 30 0 0 0
M  V30 BEGIN ATOM
M  V30 1 O -0.9508 0.1584 2.5372 0
M  V30 2 C -0.1688 0.3272 1.5617 0
M  V30 3 N 1.1859 0.7051 1.8186 0
M  V30 4 C -0.6869 0.2019 0.132 0
M  V30 5 C 2.0597 1.1126 0.7283 0
M  V30 6 C 0.4748 -0.0427 -0.8425 0
M  V30 7 C -1.7029 -0.9825 0.0503 0
M  V30 8 C -1.391 1.5529 -0.1978 0
M  V30 9 C 1.9264 0.1403 -0.4484 0 CFG=2
M  V30 10 O 0.2351 -0.4272 -1.9788 0
M  V30 11 C -1.1103 -2.3403 0.4504 0
M  V30 12 C -1.993 1.6721 -1.6031 0
M  V30 13 C 2.5625 -1.2169 -0.1264 0
M  V30 14 H 1.5564 0.6791 2.7952 0
M  V30 15 H 1.7713 2.1335 0.3965 0
M  V30 16 H 3.1125 1.1586 1.0829 0
M  V30 17 H -2.5803 -0.775 0.7018 0
M  V30 18 H -2.0908 -1.0882 -0.9844 0
M  V30 19 H -2.2098 1.7293 0.535 0
M  V30 20 H -0.6649 2.3865 -0.0724 0
M  V30 21 H 2.4741 0.5824 -1.3104 0
M  V30 22 H -0.2733 -2.6183 -0.2231 0
M  V30 23 H -0.7471 -2.3266 1.4987 0
M  V30 24 H -1.8948 -3.1219 0.3675 0
M  V30 25 H -2.7805 0.9106 -1.7723 0
M  V30 26 H -2.4666 2.6711 -1.7088 0
M  V30 27 H -1.2103 1.5908 -2.3838 0
M  V30 28 H 3.6374 -1.0866 0.122 0
M  V30 29 H 2.4908 -1.8911 -1.0066 0
M  V30 30 H 2.0512 -1.6989 0.7344 0
M  V30 END ATOM
M  V30 BEGIN BOND
M  V30 1 2 1 2
M  V30 2 1 2 3
M  V30 3 1 2 4
M  V30 4 1 3 5
M  V30 5 1 4 6
M  V30 6 1 4 7
M  V30 7 1 4 8
M  V30 8 1 5 9
M  V30 9 2 6 10
M  V30 10 1 7 11
M  V30 11 1 8 12
M  V30 12 1 9 13
M  V30 13 1 6 9
M  V30 14 1 3 14
M  V30 15 1 5 15
M  V30 16 1 5 16
M  V30 17 1 7 17
M  V30 18 1 7 18
M  V30 19 1 8 19
M  V30 20 1 8 20
M  V30 21 1 9 21
M  V30 22 1 11 22
M  V30 23 1 11 23
M  V30 24 1 11 24
M  V30 25 1 12 25
M  V30 26 1 12 26
M  V30 27 1 12 27
M  V30 28 1 13 28
M  V30 29 1 13 29
M  V30 30 1 13 30
M  V30 END BOND
M  V30 BEGIN COLLECTION
M  V30 MDLV30/STEABS ATOMS=(1 9)
M  V30 END COLLECTION
M  V30 END CTAB
M  END
>  <Structure No>
6271

>  <LogS>
-0.38

>  <MMFF94 Energy>
-18.794

$$$$
Compound 6272
Actelion Java MolfileCreator 2.0

  0  0  0  0  0  0              0 V3000
M  V30 BEGIN CTAB
M  V30 COUNTS 27 26 0 0 0
M  V30 BEGIN ATOM
M  V30 1 O -2.7747 -2.1576 0.385 0
M  V30 2 C -2.8902 -1.6304 -0.7534 0
M  V30 3 O -3.2418 -2.4235 -1.8384 0 CHG=-1
M  V30 4 C -2.6072 -0.1631 -0.9632 0 CFG=1
M  V30 5 N -2.868 0.6196 0.2523 0 CHG=1
M  V30 6 C -1.1786 0.0654 -1.5126 0
M  V30 7 C -0.0362 -0.3083 -0.5409 0
M  V30 8 C 0.5539 0.9203 0.1667 0
M  V30 9 N 1.5977 0.5184 1.1107 0
M  V30 10 C 2.9097 0.05 0.7432 0
M  V30 11 N 3.3367 0.1107 -0.4839 0 CHG=1
M  V30 12 N 3.7667 -0.4744 1.7615 0
M  V30 13 H -3.3122 0.1891 -1.7501 0
M  V30 14 H -3.8765 0.5294 0.5156 0
M  V30 15 H -2.6683 1.6305 0.0727 0
M  V30 16 H -2.2825 0.2867 1.0517 0
M  V30 17 H -1.0797 1.1243 -1.8384 0
M  V30 18 H -1.0666 -0.5444 -2.4365 0
M  V30 19 H -0.3764 -1.0442 0.2173 0
M  V30 20 H 0.7688 -0.8039 -1.1237 0
M  V30 21 H 0.9587 1.6498 -0.5661 0
M  V30 22 H -0.2481 1.4431 0.7279 0
M  V30 23 H 1.3683 0.5743 2.1287 0
M  V30 24 H 4.2927 -0.2303 -0.7296 0
M  V30 25 H 2.7625 0.504 -1.2596 0
M  V30 26 H 4.7273 -0.8151 1.5337 0
M  V30 27 H 3.4403 -0.5283 2.7516 0
M  V30 END ATOM
M  V30 BEGIN BOND
M  V30 1 2 1 2
M  V30 2 1 2 3
M  V30 3 1 2 4
M  V30 4 1 4 5
M  V30 5 1 4 6
M  V30 6 1 6 7
M  V30 7 1 7 8
M  V30 8 1 8 9
M  V30 9 1 9 10
M  V30 10 2 10 11
M  V30 11 1 10 12
M  V30 12 1 4 13
M  V30 13 1 5 14
M  V30 14 1 5 15
M  V30 15 1 5 16
M  V30 16 1 6 17
M  V30 17 1 6 18
M  V30 18 1 7 19
M  V30 19 1 7 20
M  V30 20 1 8 21
M  V30 21 1 8 22
M  V30 22 1 9 23
M  V30 23 1 11 24
M  V30 24 1 11 25
M  V30 25 1 12 26
M  V30 26 1 12 27
M  V30 END BOND
M  V30 BEGIN COLLECTION
M  V30 MDLV30/STEABS ATOMS=(1 4)
M  V30 END COLLECTION
M  V30 END CTAB
M  END
>  <Structure No>
6272

>  <LogS>
0.0

>  <MMFF94 Energy>
-181.75

$$$$
Compound 6273
Actelion Java MolfileCreator 2.0

  0  0  0  0  0  0              0 V3000
M  V30 BEGIN CTAB
M  V30 COUNTS 20 19 0 0 0
M  V30 BEGIN ATOM
M  V30 1 S 2.0051 -1.2027 1.2027 0
M  V30 2 C 1.522 0.52 1.0093 0
M  V30 3 C 2.7428 -1.3053 -0.457 0
M  V30 4 N 0.3611 0.8347 0.5267 0
M  V30 5 C 2.4635 1.6041 1.4186 0
M  V30 6 O -0.544 -0.1287 0.139 0
M  V30 7 C -1.7865 0.2229 -0.3847 0
M  V30 8 O -2.1017 1.4381 -0.5098 0
M  V30 9 N -2.6994 -0.8051 -0.7788 0
M  V30 10 C -4.0122 -0.4995 -1.3333 0
M  V30 11 H 3.1447 -2.3272 -0.6124 0
M  V30 12 H 1.9726 -1.1001 -1.2298 0
M  V30 13 H 3.5725 -0.5737 -0.551 0
M  V30 14 H 2.7034 2.2408 0.5413 0
M  V30 15 H 1.995 2.2286 2.2079 0
M  V30 16 H 3.4063 1.1728 1.8156 0
M  V30 17 H -2.415 -1.8038 -0.6656 0
M  V30 18 H -3.8986 0.0916 -2.2662 0
M  V30 19 H -4.5508 -1.4416 -1.5683 0
M  V30 20 H -4.6071 0.0798 -0.5959 0
M  V30 END ATOM
M  V30 BEGIN BOND
M  V30 1 1 1 2
M  V30 2 1 1 3
M  V30 3 2 2 4
M  V30 4 1 2 5
M  V30 5 1 4 6
M  V30 6 1 6 7
M  V30 7 2 7 8
M  V30 8 1 7 9
M  V30 9 1 9 10
M  V30 10 1 3 11
M  V30 11 1 3 12
M  V30 12 1 3 13
M  V30 13 1 5 14
M  V30 14 1 5 15
M  V30 15 1 5 16
M  V30 16 1 9 17
M  V30 17 1 10 18
M  V30 18 1 10 19
M  V30 19 1 10 20
M  V30 END BOND
M  V30 END CTAB
M  END
>  <Structure No>
6273

>  <LogS>
-1.21

>  <MMFF94 Energy>
-4.8331

$$$$
Compound 6274
Actelion Java MolfileCreator 2.0

  0  0  0  0  0  0              0 V3000
M  V30 BEGIN CTAB
M  V30 COUNTS 24 25 0 0 0
M  V30 BEGIN ATOM
M  V30 1 O -2.3927 2.4753 1.8148 0
M  V30 2 N -2.5572 1.549 0.9965 0 CHG=1
M  V30 3 O -1.4817 1.0946 0.2599 0
M  V30 4 O -3.8127 1.0116 0.8247 0 CHG=-1
M  V30 5 C -1.5986 0.0195 -0.6735 0 CFG=1
M  V30 6 C -0.3355 -0.1219 -1.4889 0 CFG=1
M  V30 7 C -1.6608 -1.3097 0.0576 0
M  V30 8 O 0.4081 1.0779 -1.5273 0
M  V30 9 C 0.446 -1.1974 -0.7652 0 CFG=2
M  V30 10 O -0.3473 -1.7767 0.2492 0
M  V30 11 C 1.7092 0.7664 -1.0912 0
M  V30 12 C 1.6389 -0.4624 -0.2021 0 CFG=1
M  V30 13 O 1.405 -0.0808 1.1558 0
M  V30 14 N 2.3987 0.4405 1.9621 0 CHG=1
M  V30 15 O 3.571 0.557 1.5476 0
M  V30 16 O 2.0963 0.8123 3.25 0 CHG=-1
M  V30 17 H -2.4827 0.1739 -1.3313 0
M  V30 18 H -0.5791 -0.4487 -2.5249 0
M  V30 19 H -2.2241 -2.051 -0.5513 0
M  V30 20 H -2.1682 -1.2091 1.0403 0
M  V30 21 H 0.7785 -1.9837 -1.4798 0
M  V30 22 H 2.3481 0.5567 -1.9775 0
M  V30 23 H 2.1393 1.6353 -0.5498 0
M  V30 24 H 2.5599 -1.0823 -0.2761 0
M  V30 END ATOM
M  V30 BEGIN BOND
M  V30 1 2 1 2
M  V30 2 1 2 3
M  V30 3 1 2 4
M  V30 4 1 3 5
M  V30 5 1 5 6
M  V30 6 1 5 7
M  V30 7 1 6 8
M  V30 8 1 6 9
M  V30 9 1 7 10
M  V30 10 1 8 11
M  V30 11 1 9 12
M  V30 12 1 12 13
M  V30 13 1 13 14
M  V30 14 2 14 15
M  V30 15 1 14 16
M  V30 16 1 9 10
M  V30 17 1 11 12
M  V30 18 1 5 17
M  V30 19 1 6 18
M  V30 20 1 7 19
M  V30 21 1 7 20
M  V30 22 1 9 21
M  V30 23 1 11 22
M  V30 24 1 11 23
M  V30 25 1 12 24
M  V30 END BOND
M  V30 BEGIN COLLECTION
M  V30 MDLV30/STEABS ATOMS=(4 5 6 9 12)
M  V30 END COLLECTION
M  V30 END CTAB
M  END
>  <Structure No>
6274

>  <LogS>
-2.63

>  <MMFF94 Energy>
20.104

$$$$
Compound 6275
Actelion Java MolfileCreator 2.0

  0  0  0  0  0  0              0 V3000
M  V30 BEGIN CTAB
M  V30 COUNTS 19 19 0 0 0
M  V30 BEGIN ATOM
M  V30 1 O 3.6136 0.1603 -0.2405 0
M  V30 2 C 2.3577 0.1071 -0.1588 0
M  V30 3 N 1.6172 1.2709 0.1917 0
M  V30 4 N 1.6791 -1.117 -0.4169 0
M  V30 5 C 0.1909 1.2452 0.2933 0
M  V30 6 C 0.2546 -1.2123 -0.3329 0
M  V30 7 O -0.4111 2.3085 0.608 0
M  V30 8 C -0.617 -0.0191 0.0348 0
M  V30 9 O -0.2911 -2.3243 -0.5727 0
M  V30 10 C -1.4102 -0.3647 1.3101 0
M  V30 11 C -1.5949 0.2511 -1.1248 0
M  V30 12 H 2.1277 2.1636 0.3787 0
M  V30 13 H 2.2346 -1.9642 -0.6733 0
M  V30 14 H -2.0388 -1.2683 1.1546 0
M  V30 15 H -2.0839 0.4716 1.598 0
M  V30 16 H -0.7158 -0.5622 2.1558 0
M  V30 17 H -2.2271 -0.6405 -1.3277 0
M  V30 18 H -1.035 0.5019 -2.0522 0
M  V30 19 H -2.2721 1.0993 -0.8843 0
M  V30 END ATOM
M  V30 BEGIN BOND
M  V30 1 2 1 2
M  V30 2 1 2 3
M  V30 3 1 2 4
M  V30 4 1 3 5
M  V30 5 1 4 6
M  V30 6 2 5 7
M  V30 7 1 5 8
M  V30 8 2 6 9
M  V30 9 1 8 10
M  V30 10 1 8 11
M  V30 11 1 6 8
M  V30 12 1 3 12
M  V30 13 1 4 13
M  V30 14 1 10 14
M  V30 15 1 10 15
M  V30 16 1 10 16
M  V30 17 1 11 17
M  V30 18 1 11 18
M  V30 19 1 11 19
M  V30 END BOND
M  V30 END CTAB
M  END
>  <Structure No>
6275

>  <LogS>
-1.74

>  <MMFF94 Energy>
-128.92

$$$$
Compound 6276
Actelion Java MolfileCreator 2.0

  0  0  0  0  0  0              0 V3000
M  V30 BEGIN CTAB
M  V30 COUNTS 16 16 0 0 0
M  V30 BEGIN ATOM
M  V30 1 N 2.3968 -1.0818 -0.3862 0
M  V30 2 C 1.2116 -0.2992 -0.2194 0
M  V30 3 C -0.0154 -0.9244 0.0484 0
M  V30 4 C 1.2689 1.0979 -0.3225 0
M  V30 5 C -1.1796 -0.1589 0.2125 0
M  V30 6 C 0.1103 1.8625 -0.1593 0
M  V30 7 N -2.429 -0.7989 0.4856 0
M  V30 8 C -1.1109 1.2375 0.1074 0
M  V30 9 H 3.3149 -0.6257 -0.5858 0
M  V30 10 H 2.3649 -2.123 -0.3113 0
M  V30 11 H -0.0641 -2.0034 0.1289 0
M  V30 12 H 2.2095 1.5929 -0.5288 0
M  V30 13 H 0.159 2.9408 -0.2397 0
M  V30 14 H -3.3013 -0.2377 0.6093 0
M  V30 15 H -2.4911 -1.8383 0.5659 0
M  V30 16 H -2.002 1.8398 0.2319 0
M  V30 END ATOM
M  V30 BEGIN BOND
M  V30 1 1 1 2
M  V30 2 2 2 3
M  V30 3 1 2 4
M  V30 4 1 3 5
M  V30 5 2 4 6
M  V30 6 1 5 7
M  V30 7 2 5 8
M  V30 8 1 6 8
M  V30 9 1 1 9
M  V30 10 1 1 10
M  V30 11 1 3 11
M  V30 12 1 4 12
M  V30 13 1 6 13
M  V30 14 1 7 14
M  V30 15 1 7 15
M  V30 16 1 8 16
M  V30 END BOND
M  V30 END CTAB
M  END
>  <Structure No>
6276

>  <LogS>
0.51

>  <MMFF94 Energy>
3.726

$$$$
Compound 6277
Actelion Java MolfileCreator 2.0

  0  0  0  0  0  0              0 V3000
M  V30 BEGIN CTAB
M  V30 COUNTS 17 18 0 0 0
M  V30 BEGIN ATOM
M  V30 1 O 3.6152 0.082 0.2461 0
M  V30 2 C 2.3591 0.0482 0.16 0
M  V30 3 N 1.6075 1.2618 0.2719 0
M  V30 4 N 1.6957 -1.2033 -0.049 0
M  V30 5 C 0.1798 1.2659 0.1795 0
M  V30 6 C 0.2712 -1.284 -0.1525 0
M  V30 7 O -0.4443 2.3569 0.2834 0
M  V30 8 C -0.5581 -0.03 -0.0402 0
M  V30 9 O -0.2736 -2.4064 -0.3367 0
M  V30 10 C -1.9234 -0.1656 0.6249 0
M  V30 11 C -1.8253 0.0346 -0.8857 0
M  V30 12 H 2.1126 2.1638 0.4245 0
M  V30 13 H 2.2646 -2.0762 -0.1276 0
M  V30 14 H -2.3012 0.7286 1.1649 0
M  V30 15 H -2.2324 -1.1925 0.9147 0
M  V30 16 H -2.0775 -0.8765 -1.4687 0
M  V30 17 H -2.1464 1.0446 -1.2186 0
M  V30 END ATOM
M  V30 BEGIN BOND
M  V30 1 2 1 2
M  V30 2 1 2 3
M  V30 3 1 2 4
M  V30 4 1 3 5
M  V30 5 1 4 6
M  V30 6 2 5 7
M  V30 7 1 5 8
M  V30 8 2 6 9
M  V30 9 1 8 10
M  V30 10 1 8 11
M  V30 11 1 6 8
M  V30 12 1 10 11
M  V30 13 1 3 12
M  V30 14 1 4 13
M  V30 15 1 10 14
M  V30 16 1 10 15
M  V30 17 1 11 16
M  V30 18 1 11 17
M  V30 END BOND
M  V30 END CTAB
M  END
>  <Structure No>
6277

>  <LogS>
-1.89

>  <MMFF94 Energy>
-118.86

$$$$
Compound 6278
Actelion Java MolfileCreator 2.0

  0  0  0  0  0  0              0 V3000
M  V30 BEGIN CTAB
M  V30 COUNTS 54 54 0 0 0
M  V30 BEGIN ATOM
M  V30 1 O -3.536 2.2776 0.1569 0
M  V30 2 C -3.1523 1.1059 0.4246 0
M  V30 3 N -4.1141 0.066 0.6508 0
M  V30 4 N -1.7526 0.8108 0.5063 0
M  V30 5 C -5.5595 0.2975 0.542 0
M  V30 6 C -0.7401 1.8425 0.2827 0
M  V30 7 C -5.9507 0.4563 -0.9496 0
M  V30 8 C -6.3477 -0.8346 1.2506 0
M  V30 9 C 0.6711 1.262 0.422 0
M  V30 10 C -7.391 0.0058 -1.2153 0
M  V30 11 C -6.6949 -1.9727 0.2853 0
M  V30 12 C 1.7372 2.3406 0.1794 0
M  V30 13 C -7.5909 -1.4839 -0.8715 0
M  V30 14 C 3.1634 1.8298 0.438 0
M  V30 15 C 3.6253 0.8086 -0.617 0
M  V30 16 C 5.1289 0.5007 -0.5258 0
M  V30 17 C 5.4806 -0.3623 0.6981 0
M  V30 18 C 6.9934 -0.6114 0.8402 0
M  V30 19 C 7.6297 -1.4204 -0.3043 0
M  V30 20 C 7.0467 -2.8264 -0.4399 0
M  V30 21 H -3.761 -0.887 0.8951 0
M  V30 22 H -1.4612 -0.1685 0.7282 0
M  V30 23 H -5.8071 1.2419 1.0771 0
M  V30 24 H -0.8679 2.2631 -0.7387 0
M  V30 25 H -0.8813 2.6577 1.0258 0
M  V30 26 H -5.2705 -0.1479 -1.5902 0
M  V30 27 H -5.8374 1.5196 -1.2527 0
M  V30 28 H -5.7708 -1.2346 2.1129 0
M  V30 29 H -7.2945 -0.4209 1.6641 0
M  V30 30 H 0.7919 0.8417 1.4447 0
M  V30 31 H 0.7919 0.4415 -0.317 0
M  V30 32 H -7.6442 0.1769 -2.2841 0
M  V30 33 H -8.0824 0.626 -0.6029 0
M  V30 34 H -7.2133 -2.7853 0.8386 0
M  V30 35 H -5.7526 -2.3958 -0.1272 0
M  V30 36 H 1.6569 2.725 -0.8609 0
M  V30 37 H 1.5488 3.1935 0.868 0
M  V30 38 H -7.3779 -2.1014 -1.7711 0
M  V30 39 H -8.6583 -1.6456 -0.6053 0
M  V30 40 H 3.2124 1.3845 1.4543 0
M  V30 41 H 3.8479 2.7061 0.4188 0
M  V30 42 H 3.4226 1.2211 -1.6298 0
M  V30 43 H 3.05 -0.1366 -0.5156 0
M  V30 44 H 5.4097 -0.0482 -1.4491 0
M  V30 45 H 5.7092 1.4493 -0.5052 0
M  V30 46 H 4.9332 -1.3276 0.6548 0
M  V30 47 H 5.1488 0.1584 1.6204 0
M  V30 48 H 7.5147 0.3679 0.9145 0
M  V30 49 H 7.1742 -1.1462 1.7983 0
M  V30 50 H 8.717 -1.5154 -0.0939 0
M  V30 51 H 7.5347 -0.8793 -1.2687 0
M  V30 52 H 7.6538 -3.409 -1.1646 0
M  V30 53 H 6.0054 -2.7833 -0.8216 0
M  V30 54 H 7.0637 -3.3516 0.5386 0
M  V30 END ATOM
M  V30 BEGIN BOND
M  V30 1 2 1 2
M  V30 2 1 2 3
M  V30 3 1 2 4
M  V30 4 1 3 5
M  V30 5 1 4 6
M  V30 6 1 5 7
M  V30 7 1 5 8
M  V30 8 1 6 9
M  V30 9 1 7 10
M  V30 10 1 8 11
M  V30 11 1 9 12
M  V30 12 1 10 13
M  V30 13 1 12 14
M  V30 14 1 14 15
M  V30 15 1 15 16
M  V30 16 1 16 17
M  V30 17 1 17 18
M  V30 18 1 18 19
M  V30 19 1 19 20
M  V30 20 1 11 13
M  V30 21 1 3 21
M  V30 22 1 4 22
M  V30 23 1 5 23
M  V30 24 1 6 24
M  V30 25 1 6 25
M  V30 26 1 7 26
M  V30 27 1 7 27
M  V30 28 1 8 28
M  V30 29 1 8 29
M  V30 30 1 9 30
M  V30 31 1 9 31
M  V30 32 1 10 32
M  V30 33 1 10 33
M  V30 34 1 11 34
M  V30 35 1 11 35
M  V30 36 1 12 36
M  V30 37 1 12 37
M  V30 38 1 13 38
M  V30 39 1 13 39
M  V30 40 1 14 40
M  V30 41 1 14 41
M  V30 42 1 15 42
M  V30 43 1 15 43
M  V30 44 1 16 44
M  V30 45 1 16 45
M  V30 46 1 17 46
M  V30 47 1 17 47
M  V30 48 1 18 48
M  V30 49 1 18 49
M  V30 50 1 19 50
M  V30 51 1 19 51
M  V30 52 1 20 52
M  V30 53 1 20 53
M  V30 54 1 20 54
M  V30 END BOND
M  V30 END CTAB
M  END
>  <Structure No>
6278

>  <LogS>
-2.81

>  <MMFF94 Energy>
-99.204

$$$$
Compound 6279
Actelion Java MolfileCreator 2.0

  0  0  0  0  0  0              0 V3000
M  V30 BEGIN CTAB
M  V30 COUNTS 19 19 0 0 0
M  V30 BEGIN ATOM
M  V30 1 O 3.4393 -0.7027 1.2496 0
M  V30 2 C 2.1775 -0.4957 0.6967 0
M  V30 3 C 1.9221 0.6285 -0.1003 0
M  V30 4 C 1.1556 -1.4186 0.9426 0
M  V30 5 C 0.6515 0.8257 -0.6501 0
M  V30 6 C -0.1157 -1.2236 0.3939 0
M  V30 7 C -0.3735 -0.1054 -0.416 0
M  V30 8 C -1.7504 0.1227 -0.9797 0
M  V30 9 C -2.603 0.9356 -0.011 0
M  V30 10 H 4.2 -0.0522 1.0908 0
M  V30 11 H 2.7054 1.3509 -0.2914 0
M  V30 12 H 1.3461 -2.2858 1.5621 0
M  V30 13 H 0.4661 1.7036 -1.2567 0
M  V30 14 H -0.899 -1.9426 0.6009 0
M  V30 15 H -2.2487 -0.8512 -1.1781 0
M  V30 16 H -1.6818 0.6624 -1.9494 0
M  V30 17 H -3.6128 1.0922 -0.4455 0
M  V30 18 H -2.1372 1.9274 0.1735 0
M  V30 19 H -2.7107 0.3956 0.954 0
M  V30 END ATOM
M  V30 BEGIN BOND
M  V30 1 1 1 2
M  V30 2 2 2 3
M  V30 3 1 2 4
M  V30 4 1 3 5
M  V30 5 2 4 6
M  V30 6 2 5 7
M  V30 7 1 7 8
M  V30 8 1 8 9
M  V30 9 1 6 7
M  V30 10 1 1 10
M  V30 11 1 3 11
M  V30 12 1 4 12
M  V30 13 1 5 13
M  V30 14 1 6 14
M  V30 15 1 8 15
M  V30 16 1 8 16
M  V30 17 1 9 17
M  V30 18 1 9 18
M  V30 19 1 9 19
M  V30 END BOND
M  V30 END CTAB
M  END
>  <Structure No>
6279

>  <LogS>
-1.4

>  <MMFF94 Energy>
7.4323

$$$$
Compound 6280
Actelion Java MolfileCreator 2.0

  0  0  0  0  0  0              0 V3000
M  V30 BEGIN CTAB
M  V30 COUNTS 22 22 0 0 0
M  V30 BEGIN ATOM
M  V30 1 O 3.2828 -1.6003 0.9599 0
M  V30 2 C 2.2632 -0.9448 0.6175 0
M  V30 3 N 1.4477 -0.3287 1.6083 0
M  V30 4 N 1.9287 -0.818 -0.76 0
M  V30 5 C 0.2794 0.4163 1.2556 0
M  V30 6 C 0.7747 -0.0875 -1.1836 0
M  V30 7 O -0.4014 0.9448 2.1769 0
M  V30 8 C -0.1715 0.5783 -0.1912 0
M  V30 9 O 0.5318 -0.0044 -2.4187 0
M  V30 10 C -1.6007 -0.0099 -0.3599 0
M  V30 11 C -0.2085 2.087 -0.5104 0
M  V30 12 C -1.6868 -1.5124 -0.067 0
M  V30 13 H 1.7091 -0.4235 2.6157 0
M  V30 14 H 2.5403 -1.269 -1.4773 0
M  V30 15 H -2.3088 0.5176 0.3168 0
M  V30 16 H -1.9605 0.1634 -1.3982 0
M  V30 17 H -0.9042 2.6218 0.1722 0
M  V30 18 H 0.8037 2.5328 -0.3969 0
M  V30 19 H -0.5541 2.2657 -1.5517 0
M  V30 20 H -1.3891 -1.7275 0.9806 0
M  V30 21 H -1.036 -2.0867 -0.7587 0
M  V30 22 H -2.7333 -1.8555 -0.2085 0
M  V30 END ATOM
M  V30 BEGIN BOND
M  V30 1 2 1 2
M  V30 2 1 2 3
M  V30 3 1 2 4
M  V30 4 1 3 5
M  V30 5 1 4 6
M  V30 6 2 5 7
M  V30 7 1 5 8
M  V30 8 2 6 9
M  V30 9 1 8 10
M  V30 10 1 8 11
M  V30 11 1 10 12
M  V30 12 1 6 8
M  V30 13 1 3 13
M  V30 14 1 4 14
M  V30 15 1 10 15
M  V30 16 1 10 16
M  V30 17 1 11 17
M  V30 18 1 11 18
M  V30 19 1 11 19
M  V30 20 1 12 20
M  V30 21 1 12 21
M  V30 22 1 12 22
M  V30 END BOND
M  V30 END CTAB
M  END
>  <Structure No>
6280

>  <LogS>
-1.23

>  <MMFF94 Energy>
-128.07

$$$$
Compound 6281
Actelion Java MolfileCreator 2.0

  0  0  0  0  0  0              0 V3000
M  V30 BEGIN CTAB
M  V30 COUNTS 20 21 0 0 0
M  V30 BEGIN ATOM
M  V30 1 O 3.9234 -0.1632 0.2448 0
M  V30 2 C 2.6679 -0.1006 0.1647 0
M  V30 3 N 1.8705 -1.1826 0.6419 0
M  V30 4 N 2.0485 1.0517 -0.4029 0
M  V30 5 C 0.4428 -1.1473 0.5676 0
M  V30 6 C 0.6264 1.1584 -0.5106 0
M  V30 7 O -0.2144 -2.1316 1.0045 0
M  V30 8 C -0.2885 0.0465 -0.024 0
M  V30 9 O 0.1307 2.2003 -1.021 0
M  V30 10 C -1.3367 -0.3599 -1.0718 0
M  V30 11 C -1.4158 0.5614 0.8847 0
M  V30 12 C -2.4469 0.1541 -0.1619 0
M  V30 13 H 2.3406 -2.0196 1.0551 0
M  V30 14 H 2.6477 1.8356 -0.7477 0
M  V30 15 H -1.2798 0.2134 -2.0236 0
M  V30 16 H -1.4128 -1.4566 -1.2427 0
M  V30 17 H -1.4042 1.6615 1.0517 0
M  V30 18 H -1.5373 -0.0086 1.8326 0
M  V30 19 H -3.1173 -0.6587 0.1937 0
M  V30 20 H -2.9831 1.027 -0.5946 0
M  V30 END ATOM
M  V30 BEGIN BOND
M  V30 1 2 1 2
M  V30 2 1 2 3
M  V30 3 1 2 4
M  V30 4 1 3 5
M  V30 5 1 4 6
M  V30 6 2 5 7
M  V30 7 1 5 8
M  V30 8 2 6 9
M  V30 9 1 8 10
M  V30 10 1 8 11
M  V30 11 1 10 12
M  V30 12 1 6 8
M  V30 13 1 11 12
M  V30 14 1 3 13
M  V30 15 1 4 14
M  V30 16 1 10 15
M  V30 17 1 10 16
M  V30 18 1 11 17
M  V30 19 1 11 18
M  V30 20 1 12 19
M  V30 21 1 12 20
M  V30 END BOND
M  V30 END CTAB
M  END
>  <Structure No>
6281

>  <LogS>
-1.66

>  <MMFF94 Energy>
-136.81

$$$$
Compound 6282
Actelion Java MolfileCreator 2.0

  0  0  0  0  0  0              0 V3000
M  V30 BEGIN CTAB
M  V30 COUNTS 24 24 0 0 0
M  V30 BEGIN ATOM
M  V30 1 C 1.1708 0.4681 -0.7023 0
M  V30 2 C 1.3085 -0.2658 0.4967 0
M  V30 3 C -0.113 0.7551 -1.192 0
M  V30 4 C 2.3768 0.9636 -1.4577 0
M  V30 5 C 0.1595 -0.7078 1.1712 0
M  V30 6 C 2.6673 -0.5978 1.0574 0
M  V30 7 C -1.262 0.3131 -0.5175 0
M  V30 8 C -1.1243 -0.4208 0.6815 0
M  V30 9 C -2.6209 0.6451 -1.0781 0
M  V30 10 C -2.3304 -0.9162 1.437 0
M  V30 11 H -0.2189 1.3256 -2.1072 0
M  V30 12 H 2.0914 1.4544 -2.4123 0
M  V30 13 H 2.9278 1.7036 -0.8403 0
M  V30 14 H 3.0482 0.1139 -1.701 0
M  V30 15 H 0.2653 -1.2783 2.0865 0
M  V30 16 H 3.2549 0.3322 1.2052 0
M  V30 17 H 2.5929 -1.1115 2.0395 0
M  V30 18 H 3.208 -1.2681 0.3572 0
M  V30 19 H -3.1616 1.3159 -0.3781 0
M  V30 20 H -2.5466 1.1586 -2.0602 0
M  V30 21 H -3.2087 -0.2847 -1.2256 0
M  V30 22 H -2.0451 -1.4067 2.3919 0
M  V30 23 H -2.8813 -1.6564 0.8198 0
M  V30 24 H -3.0021 -0.0665 1.6801 0
M  V30 END ATOM
M  V30 BEGIN BOND
M  V30 1 2 1 2
M  V30 2 1 1 3
M  V30 3 1 1 4
M  V30 4 1 2 5
M  V30 5 1 2 6
M  V30 6 2 3 7
M  V30 7 2 5 8
M  V30 8 1 7 9
M  V30 9 1 8 10
M  V30 10 1 7 8
M  V30 11 1 3 11
M  V30 12 1 4 12
M  V30 13 1 4 13
M  V30 14 1 4 14
M  V30 15 1 5 15
M  V30 16 1 6 16
M  V30 17 1 6 17
M  V30 18 1 6 18
M  V30 19 1 9 19
M  V30 20 1 9 20
M  V30 21 1 9 21
M  V30 22 1 10 22
M  V30 23 1 10 23
M  V30 24 1 10 24
M  V30 END BOND
M  V30 END CTAB
M  END
>  <Structure No>
6282

>  <LogS>
-3.84

>  <MMFF94 Energy>
27.855

$$$$
Compound 6283
Actelion Java MolfileCreator 2.0

  0  0  0  0  0  0              0 V3000
M  V30 BEGIN CTAB
M  V30 COUNTS 12 12 0 0 0
M  V30 BEGIN ATOM
M  V30 1 Cl 3.1321 0.1691 -0.2536 0
M  V30 2 C 1.3843 0.0895 -0.128 0
M  V30 3 C 0.7415 -1.1525 -0.072 0
M  V30 4 C 0.6304 1.2682 -0.0836 0
M  V30 5 C -0.6521 -1.216 0.0281 0
M  V30 6 C -0.7632 1.2047 0.0166 0
M  V30 7 C -1.406 -0.0374 0.0725 0
M  V30 8 Cl -3.1538 -0.1169 0.1982 0
M  V30 9 H 1.3195 -2.0671 -0.1059 0
M  V30 10 H 1.1222 2.2316 -0.1264 0
M  V30 11 H -1.144 -2.1793 0.0711 0
M  V30 12 H -1.3413 2.1194 0.0506 0
M  V30 END ATOM
M  V30 BEGIN BOND
M  V30 1 1 1 2
M  V30 2 2 2 3
M  V30 3 1 2 4
M  V30 4 1 3 5
M  V30 5 2 4 6
M  V30 6 2 5 7
M  V30 7 1 7 8
M  V30 8 1 6 7
M  V30 9 1 3 9
M  V30 10 1 4 10
M  V30 11 1 5 11
M  V30 12 1 6 12
M  V30 END BOND
M  V30 END CTAB
M  END
>  <Structure No>
6283

>  <LogS>
-3.35

>  <MMFF94 Energy>
13.212

$$$$
Compound 6284
Actelion Java MolfileCreator 2.0

  0  0  0  0  0  0              0 V3000
M  V30 BEGIN CTAB
M  V30 COUNTS 25 25 0 0 0
M  V30 BEGIN ATOM
M  V30 1 O 3.8401 1.2787 -0.9589 0
M  V30 2 C 2.7834 0.725 -0.5552 0
M  V30 3 N 2.5162 0.625 0.839 0
M  V30 4 N 1.8676 0.166 -1.4892 0
M  V30 5 C 1.2835 0.0754 1.3161 0
M  V30 6 C 0.6608 -0.4577 -1.0424 0
M  V30 7 O 1.1332 -0.0591 2.5616 0
M  V30 8 C 0.1126 -0.2046 0.3662 0
M  V30 9 O 0.0129 -1.1599 -1.8634 0
M  V30 10 C -0.792 1.073 0.3946 0
M  V30 11 C -0.6371 -1.4775 0.9044 0
M  V30 12 C -1.626 1.3411 -0.8669 0
M  V30 13 C -2.0245 -1.7705 0.3206 0
M  V30 14 H 3.2372 0.9454 1.5242 0
M  V30 15 H 2.1171 0.1424 -2.5036 0
M  V30 16 H -1.4713 1.0305 1.2739 0
M  V30 17 H -0.1614 1.9796 0.5388 0
M  V30 18 H 0.0062 -2.3712 0.7457 0
M  V30 19 H -0.7937 -1.3939 2.0018 0
M  V30 20 H -2.2428 0.4702 -1.1555 0
M  V30 21 H -0.9647 1.6116 -1.7171 0
M  V30 22 H -2.3063 2.1989 -0.6805 0
M  V30 23 H -2.7455 -0.9764 0.6041 0
M  V30 24 H -2.4005 -2.7236 0.7491 0
M  V30 25 H -2.0046 -1.8898 -0.7786 0
M  V30 END ATOM
M  V30 BEGIN BOND
M  V30 1 2 1 2
M  V30 2 1 2 3
M  V30 3 1 2 4
M  V30 4 1 3 5
M  V30 5 1 4 6
M  V30 6 2 5 7
M  V30 7 1 5 8
M  V30 8 2 6 9
M  V30 9 1 8 10
M  V30 10 1 8 11
M  V30 11 1 10 12
M  V30 12 1 11 13
M  V30 13 1 6 8
M  V30 14 1 3 14
M  V30 15 1 4 15
M  V30 16 1 10 16
M  V30 17 1 10 17
M  V30 18 1 11 18
M  V30 19 1 11 19
M  V30 20 1 12 20
M  V30 21 1 12 21
M  V30 22 1 12 22
M  V30 23 1 13 23
M  V30 24 1 13 24
M  V30 25 1 13 25
M  V30 END BOND
M  V30 END CTAB
M  END
>  <Structure No>
6284

>  <LogS>
-1.42

>  <MMFF94 Energy>
-129.27

$$$$
Compound 6285
Actelion Java MolfileCreator 2.0

  0  0  0  0  0  0              0 V3000
M  V30 BEGIN CTAB
M  V30 COUNTS 23 23 0 0 0
M  V30 BEGIN ATOM
M  V30 1 O -2.3182 1.1186 2.6382 0
M  V30 2 C -1.6916 0.5776 1.689 0
M  V30 3 N -0.9575 -0.6214 1.9127 0
M  V30 4 N -1.7261 1.1599 0.3903 0
M  V30 5 C -0.2169 -1.2484 0.8623 0
M  V30 6 C -1.0105 0.5817 -0.7045 0
M  V30 7 O 0.3883 -2.3272 1.1102 0
M  V30 8 C -0.0988 -0.6264 -0.5249 0
M  V30 9 O -1.1121 1.1165 -1.8427 0
M  V30 10 C 1.3762 -0.2094 -0.7781 0
M  V30 11 C -0.5066 -1.6913 -1.5657 0
M  V30 12 C 1.9075 0.7566 0.2538 0
M  V30 13 C 1.7068 2.0745 0.1626 0
M  V30 14 H -0.9665 -1.056 2.8632 0
M  V30 15 H -2.2941 2.0229 0.2322 0
M  V30 16 H 1.4904 0.2295 -1.7945 0
M  V30 17 H 2.0221 -1.1148 -0.7545 0
M  V30 18 H -0.4083 -1.2959 -2.6 0
M  V30 19 H 0.1387 -2.5931 -1.4893 0
M  V30 20 H -1.5624 -2.0032 -1.4086 0
M  V30 21 H 2.4873 0.3679 1.086 0
M  V30 22 H 1.1492 2.501 -0.6651 0
M  V30 23 H 2.1094 2.7381 0.9209 0
M  V30 END ATOM
M  V30 BEGIN BOND
M  V30 1 2 1 2
M  V30 2 1 2 3
M  V30 3 1 2 4
M  V30 4 1 3 5
M  V30 5 1 4 6
M  V30 6 2 5 7
M  V30 7 1 5 8
M  V30 8 2 6 9
M  V30 9 1 8 10
M  V30 10 1 8 11
M  V30 11 1 10 12
M  V30 12 2 12 13
M  V30 13 1 6 8
M  V30 14 1 3 14
M  V30 15 1 4 15
M  V30 16 1 10 16
M  V30 17 1 10 17
M  V30 18 1 11 18
M  V30 19 1 11 19
M  V30 20 1 11 20
M  V30 21 1 12 21
M  V30 22 1 13 22
M  V30 23 1 13 23
M  V30 END BOND
M  V30 END CTAB
M  END
>  <Structure No>
6285

>  <LogS>
-1.16

>  <MMFF94 Energy>
-120.13

$$$$
Compound 6286
Actelion Java MolfileCreator 2.0

  0  0  0  0  0  0              0 V3000
M  V30 BEGIN CTAB
M  V30 COUNTS 15 15 0 0 0
M  V30 BEGIN ATOM
M  V30 1 O 2.9263 -1.7391 -0.7112 0
M  V30 2 C 2.4768 -0.5708 -0.57 0
M  V30 3 C 1.0545 -0.3341 -0.2626 0
M  V30 4 C 0.5869 0.9814 -0.1118 0
M  V30 5 C 0.1545 -1.4046 -0.1172 0
M  V30 6 C -0.7599 1.2263 0.18 0
M  V30 7 C -1.1903 -1.1591 0.1743 0
M  V30 8 O -1.2041 2.5386 0.3258 0
M  V30 9 C -1.6483 0.1522 0.3229 0
M  V30 10 H 3.1538 0.2669 -0.6781 0
M  V30 11 H 1.2662 1.8185 -0.2204 0
M  V30 12 H 0.4891 -2.4284 -0.2284 0
M  V30 13 H -1.8788 -1.9869 0.2852 0
M  V30 14 H -2.1724 2.7494 0.537 0
M  V30 15 H -2.6914 0.3328 0.5486 0
M  V30 END ATOM
M  V30 BEGIN BOND
M  V30 1 2 1 2
M  V30 2 1 2 3
M  V30 3 2 3 4
M  V30 4 1 3 5
M  V30 5 1 4 6
M  V30 6 2 5 7
M  V30 7 1 6 8
M  V30 8 2 6 9
M  V30 9 1 7 9
M  V30 10 1 2 10
M  V30 11 1 4 11
M  V30 12 1 5 12
M  V30 13 1 7 13
M  V30 14 1 8 14
M  V30 15 1 9 15
M  V30 END BOND
M  V30 END CTAB
M  END
>  <Structure No>
6286

>  <LogS>
-1.23

>  <MMFF94 Energy>
16.199

$$$$
Compound 6287
Actelion Java MolfileCreator 2.0

  0  0  0  0  0  0              0 V3000
M  V30 BEGIN CTAB
M  V30 COUNTS 15 15 0 0 0
M  V30 BEGIN ATOM
M  V30 1 O 2.6763 -0.4718 0.0786 0
M  V30 2 C 1.3014 -0.256 0.0171 0
M  V30 3 C 0.7763 1.0402 0.1173 0
M  V30 4 C 0.4382 -1.3452 -0.1461 0
M  V30 5 C -0.6094 1.2454 0.054 0
M  V30 6 C -0.948 -1.1434 -0.2097 0
M  V30 7 O -1.1424 2.5287 0.1524 0
M  V30 8 C -1.4674 0.1521 -0.1092 0
M  V30 9 O -1.8156 -2.221 -0.3721 0
M  V30 10 H 3.3279 0.2951 0.1963 0
M  V30 11 H 1.4421 1.8847 0.2437 0
M  V30 12 H 0.8448 -2.3457 -0.2233 0
M  V30 13 H -0.5484 3.3412 0.2712 0
M  V30 14 H -2.5377 0.3094 -0.1582 0
M  V30 15 H -1.4715 -3.171 -0.4479 0
M  V30 END ATOM
M  V30 BEGIN BOND
M  V30 1 1 1 2
M  V30 2 2 2 3
M  V30 3 1 2 4
M  V30 4 1 3 5
M  V30 5 2 4 6
M  V30 6 1 5 7
M  V30 7 2 5 8
M  V30 8 1 6 9
M  V30 9 1 6 8
M  V30 10 1 1 10
M  V30 11 1 3 11
M  V30 12 1 4 12
M  V30 13 1 7 13
M  V30 14 1 8 14
M  V30 15 1 9 15
M  V30 END BOND
M  V30 END CTAB
M  END
>  <Structure No>
6287

>  <LogS>
-1.05

>  <MMFF94 Energy>
-13.604

$$$$
Compound 6288
Actelion Java MolfileCreator 2.0

  0  0  0  0  0  0              0 V3000
M  V30 BEGIN CTAB
M  V30 COUNTS 28 28 0 0 0
M  V30 BEGIN ATOM
M  V30 1 O -3.2714 -2.9519 -0.1593 0
M  V30 2 C -2.4422 -2.004 -0.1769 0
M  V30 3 N -1.385 -1.9982 -1.131 0
M  V30 4 N -2.5768 -0.9206 0.7384 0
M  V30 5 C -0.431 -0.9331 -1.1611 0
M  V30 6 C -1.6084 0.1317 0.7843 0
M  V30 7 O 0.342 -0.8443 -2.1537 0
M  V30 8 C -0.2951 0.0408 0.0095 0
M  V30 9 O -1.8092 1.1043 1.5627 0
M  V30 10 C 0.7655 -0.5079 1.0128 0
M  V30 11 C 0.1057 1.4594 -0.5052 0
M  V30 12 C 2.222 -0.5945 0.4943 0
M  V30 13 C -0.94 2.1061 -1.423 0
M  V30 14 C 3.0961 0.5506 1.0073 0
M  V30 15 H -1.3474 -2.7453 -1.8606 0
M  V30 16 H -3.4036 -0.8877 1.3767 0
M  V30 17 H 0.7425 0.0958 1.9484 0
M  V30 18 H 0.4534 -1.5331 1.3166 0
M  V30 19 H 0.28 2.1385 0.3583 0
M  V30 20 H 1.0593 1.4083 -1.0721 0
M  V30 21 H 2.6718 -1.5456 0.854 0
M  V30 22 H 2.2707 -0.6208 -0.6115 0
M  V30 23 H -0.5664 3.0938 -1.7665 0
M  V30 24 H -1.897 2.2683 -0.8853 0
M  V30 25 H -1.1264 1.4757 -2.3171 0
M  V30 26 H 2.6972 1.533 0.6838 0
M  V30 27 H 4.1253 0.4396 0.6057 0
M  V30 28 H 3.1477 0.5274 2.1168 0
M  V30 END ATOM
M  V30 BEGIN BOND
M  V30 1 2 1 2
M  V30 2 1 2 3
M  V30 3 1 2 4
M  V30 4 1 3 5
M  V30 5 1 4 6
M  V30 6 2 5 7
M  V30 7 1 5 8
M  V30 8 2 6 9
M  V30 9 1 8 10
M  V30 10 1 8 11
M  V30 11 1 10 12
M  V30 12 1 11 13
M  V30 13 1 12 14
M  V30 14 1 6 8
M  V30 15 1 3 15
M  V30 16 1 4 16
M  V30 17 1 10 17
M  V30 18 1 10 18
M  V30 19 1 11 19
M  V30 20 1 11 20
M  V30 21 1 12 21
M  V30 22 1 12 22
M  V30 23 1 13 23
M  V30 24 1 13 24
M  V30 25 1 13 25
M  V30 26 1 14 26
M  V30 27 1 14 27
M  V30 28 1 14 28
M  V30 END BOND
M  V30 END CTAB
M  END
>  <Structure No>
6288

>  <LogS>
-1.49

>  <MMFF94 Energy>
-128.34

$$$$
Compound 6289
Actelion Java MolfileCreator 2.0

  0  0  0  0  0  0              0 V3000
M  V30 BEGIN CTAB
M  V30 COUNTS 26 26 0 0 0
M  V30 BEGIN ATOM
M  V30 1 O -3.3532 -0.3987 -2.2345 0
M  V30 2 C -2.3281 -0.3147 -1.5075 0
M  V30 3 N -2.1715 -1.1862 -0.3927 0
M  V30 4 N -1.3358 0.6675 -1.7851 0
M  V30 5 C -0.9952 -1.1447 0.4199 0
M  V30 6 C -0.1561 0.7739 -0.9838 0
M  V30 7 O -0.9375 -1.889 1.4371 0
M  V30 8 C 0.2196 -0.3021 0.0335 0
M  V30 9 O 0.6155 1.7528 -1.1766 0
M  V30 10 C 0.8192 0.3548 1.3182 0
M  V30 11 C 1.2427 -1.2849 -0.6105 0
M  V30 12 C -0.2018 1.1115 2.1359 0
M  V30 13 C 2.5741 -0.6643 -1.0506 0
M  V30 14 C -0.5174 2.3851 1.8841 0
M  V30 15 H -2.9374 -1.856 -0.1543 0
M  V30 16 H -1.4947 1.3514 -2.5592 0
M  V30 17 H 1.6603 1.0373 1.0695 0
M  V30 18 H 1.2477 -0.439 1.9687 0
M  V30 19 H 1.4754 -2.1019 0.1083 0
M  V30 20 H 0.7789 -1.7634 -1.5022 0
M  V30 21 H -0.6838 0.606 2.9676 0
M  V30 22 H 3.1142 -0.2193 -0.1905 0
M  V30 23 H 3.22 -1.4599 -1.4783 0
M  V30 24 H 2.4195 0.1005 -1.8379 0
M  V30 25 H -1.2532 2.8924 2.4995 0
M  V30 26 H -0.0414 2.935 1.0797 0
M  V30 END ATOM
M  V30 BEGIN BOND
M  V30 1 2 1 2
M  V30 2 1 2 3
M  V30 3 1 2 4
M  V30 4 1 3 5
M  V30 5 1 4 6
M  V30 6 2 5 7
M  V30 7 1 5 8
M  V30 8 2 6 9
M  V30 9 1 8 10
M  V30 10 1 8 11
M  V30 11 1 10 12
M  V30 12 1 11 13
M  V30 13 2 12 14
M  V30 14 1 6 8
M  V30 15 1 3 15
M  V30 16 1 4 16
M  V30 17 1 10 17
M  V30 18 1 10 18
M  V30 19 1 11 19
M  V30 20 1 11 20
M  V30 21 1 12 21
M  V30 22 1 13 22
M  V30 23 1 13 23
M  V30 24 1 13 24
M  V30 25 1 14 25
M  V30 26 1 14 26
M  V30 END BOND
M  V30 END CTAB
M  END
>  <Structure No>
6289

>  <LogS>
-1.61

>  <MMFF94 Energy>
-118.04

$$$$
Compound 6290
Actelion Java MolfileCreator 2.0

  0  0  0  0  0  0              0 V3000
M  V30 BEGIN CTAB
M  V30 COUNTS 28 28 0 0 0
M  V30 BEGIN ATOM
M  V30 1 O 2.6321 -1.0362 1.9935 0
M  V30 2 C 1.6207 -0.6443 1.3505 0
M  V30 3 N 1.7088 -0.3846 -0.0577 0
M  V30 4 N 0.3872 -0.4635 2.0384 0
M  V30 5 C 0.517 -0.0867 -0.8105 0
M  V30 6 C 2.9851 -0.5745 -0.7564 0
M  V30 7 C -0.7919 -0.0237 1.3652 0
M  V30 8 O 0.5773 -0.044 -2.0714 0
M  V30 9 C -0.8161 0.2238 -0.1358 0
M  V30 10 O -1.8401 0.1667 2.041 0
M  V30 11 C -1.1705 1.7167 -0.396 0
M  V30 12 C -1.9287 -0.6632 -0.771 0
M  V30 13 C -0.1528 2.7082 0.1823 0
M  V30 14 C -1.6979 -2.1693 -0.5943 0
M  V30 15 H 0.3475 -0.6446 3.067 0
M  V30 16 H 3.0556 0.0981 -1.6374 0
M  V30 17 H 3.0722 -1.6291 -1.0918 0
M  V30 18 H 3.8409 -0.3287 -0.0926 0
M  V30 19 H -2.1675 1.9501 0.0393 0
M  V30 20 H -1.2487 1.9004 -1.4905 0
M  V30 21 H -2.0097 -0.4499 -1.8599 0
M  V30 22 H -2.9162 -0.4092 -0.3255 0
M  V30 23 H 0.8484 2.5561 -0.2717 0
M  V30 24 H -0.0769 2.5988 1.2843 0
M  V30 25 H -0.4813 3.7449 -0.0417 0
M  V30 26 H -0.7473 -2.4823 -1.0743 0
M  V30 27 H -2.5294 -2.7275 -1.0737 0
M  V30 28 H -1.6723 -2.4412 0.4815 0
M  V30 END ATOM
M  V30 BEGIN BOND
M  V30 1 2 1 2
M  V30 2 1 2 3
M  V30 3 1 2 4
M  V30 4 1 3 5
M  V30 5 1 3 6
M  V30 6 1 4 7
M  V30 7 2 5 8
M  V30 8 1 5 9
M  V30 9 2 7 10
M  V30 10 1 9 11
M  V30 11 1 9 12
M  V30 12 1 11 13
M  V30 13 1 12 14
M  V30 14 1 7 9
M  V30 15 1 4 15
M  V30 16 1 6 16
M  V30 17 1 6 17
M  V30 18 1 6 18
M  V30 19 1 11 19
M  V30 20 1 11 20
M  V30 21 1 12 21
M  V30 22 1 12 22
M  V30 23 1 13 23
M  V30 24 1 13 24
M  V30 25 1 13 25
M  V30 26 1 14 26
M  V30 27 1 14 27
M  V30 28 1 14 28
M  V30 END BOND
M  V30 END CTAB
M  END
>  <Structure No>
6290

>  <LogS>
-2.1

>  <MMFF94 Energy>
-115.38

$$$$
Compound 6291
Actelion Java MolfileCreator 2.0

  0  0  0  0  0  0              0 V3000
M  V30 BEGIN CTAB
M  V30 COUNTS 26 27 0 0 0
M  V30 BEGIN ATOM
M  V30 1 O 4.2204 -1.4594 0.4862 0
M  V30 2 C 3.1304 -0.8714 0.2575 0
M  V30 3 N 2.8279 0.355 0.9146 0
M  V30 4 N 2.2103 -1.4125 -0.6844 0
M  V30 5 C 1.5666 1.0022 0.7187 0
M  V30 6 C 0.9598 -0.7661 -0.9388 0
M  V30 7 O 1.3921 2.1429 1.2286 0
M  V30 8 C 0.4066 0.2856 0.0269 0
M  V30 9 O 0.2881 -1.1383 -1.9371 0
M  V30 10 C -0.4238 -0.4152 1.1335 0
M  V30 11 C -0.4746 1.3381 -0.7248 0
M  V30 12 C -1.7604 -0.9649 0.6194 0
M  V30 13 C -1.8562 0.8159 -1.1621 0
M  V30 14 C -2.6011 0.1505 -0.0031 0
M  V30 15 H 3.5479 0.8019 1.526 0
M  V30 16 H 2.4818 -2.2518 -1.2445 0
M  V30 17 H -0.6406 0.3045 1.9551 0
M  V30 18 H 0.1618 -1.2498 1.5793 0
M  V30 19 H -0.6669 2.2141 -0.0671 0
M  V30 20 H 0.0705 1.7179 -1.6166 0
M  V30 21 H -1.5863 -1.7717 -0.1244 0
M  V30 22 H -2.3212 -1.4085 1.4701 0
M  V30 23 H -2.4621 1.6722 -1.5302 0
M  V30 24 H -1.7689 0.1064 -2.0091 0
M  V30 25 H -2.8466 0.9115 0.7701 0
M  V30 26 H -3.5564 -0.2757 -0.3783 0
M  V30 END ATOM
M  V30 BEGIN BOND
M  V30 1 2 1 2
M  V30 2 1 2 3
M  V30 3 1 2 4
M  V30 4 1 3 5
M  V30 5 1 4 6
M  V30 6 2 5 7
M  V30 7 1 5 8
M  V30 8 2 6 9
M  V30 9 1 8 10
M  V30 10 1 8 11
M  V30 11 1 10 12
M  V30 12 1 11 13
M  V30 13 1 12 14
M  V30 14 1 6 8
M  V30 15 1 13 14
M  V30 16 1 3 15
M  V30 17 1 4 16
M  V30 18 1 10 17
M  V30 19 1 10 18
M  V30 20 1 11 19
M  V30 21 1 11 20
M  V30 22 1 12 21
M  V30 23 1 12 22
M  V30 24 1 13 23
M  V30 25 1 13 24
M  V30 26 1 14 25
M  V30 27 1 14 26
M  V30 END BOND
M  V30 END CTAB
M  END
>  <Structure No>
6291

>  <LogS>
-3.06

>  <MMFF94 Energy>
-127.2

$$$$
Compound 6292
Actelion Java MolfileCreator 2.0

  0  0  0  0  0  0              0 V3000
M  V30 BEGIN CTAB
M  V30 COUNTS 17 17 0 0 0
M  V30 BEGIN ATOM
M  V30 1 O 3.596 -0.9579 1.0378 0
M  V30 2 C 3.0371 -0.3881 0.0631 0
M  V30 3 O 3.8217 0.0719 -0.9882 0 CHG=-1
M  V30 4 C 1.5685 -0.211 0.0359 0
M  V30 5 C 0.9504 0.4277 -1.053 0
M  V30 6 C 0.7702 -0.6723 1.0981 0
M  V30 7 C -0.4371 0.5967 -1.0815 0
M  V30 8 C -0.6172 -0.5023 1.068 0
M  V30 9 C -1.2309 0.1191 -0.0289 0
M  V30 10 C -2.715 0.3363 -0.042 0
M  V30 11 H 1.5382 0.8006 -1.8822 0
M  V30 12 H 1.2173 -1.1614 1.9545 0
M  V30 13 H -0.8924 1.1 -1.9257 0
M  V30 14 H -1.2128 -0.8564 1.9005 0
M  V30 15 H -2.9499 1.3101 0.4361 0
M  V30 16 H -3.1011 0.3416 -1.0836 0
M  V30 17 H -3.2347 -0.4742 0.512 0
M  V30 END ATOM
M  V30 BEGIN BOND
M  V30 1 2 1 2
M  V30 2 1 2 3
M  V30 3 1 2 4
M  V30 4 2 4 5
M  V30 5 1 4 6
M  V30 6 1 5 7
M  V30 7 2 6 8
M  V30 8 2 7 9
M  V30 9 1 9 10
M  V30 10 1 8 9
M  V30 11 1 5 11
M  V30 12 1 6 12
M  V30 13 1 7 13
M  V30 14 1 8 14
M  V30 15 1 10 15
M  V30 16 1 10 16
M  V30 17 1 10 17
M  V30 END BOND
M  V30 END CTAB
M  END
>  <Structure No>
6292

>  <LogS>
-2.53

>  <MMFF94 Energy>
39.55

$$$$
Compound 6293
Actelion Java MolfileCreator 2.0

  0  0  0  0  0  0              0 V3000
M  V30 BEGIN CTAB
M  V30 COUNTS 29 29 0 0 0
M  V30 BEGIN ATOM
M  V30 1 O -3.5058 -2.2299 1.1941 0
M  V30 2 C -2.8278 -1.288 0.7048 0
M  V30 3 N -3.0471 -0.8744 -0.6404 0
M  V30 4 N -1.8599 -0.6151 1.5041 0
M  V30 5 C -2.2516 0.1566 -1.2329 0
M  V30 6 C -1.0583 0.4355 0.9572 0
M  V30 7 O -2.5518 0.5637 -2.3886 0
M  V30 8 C -0.9981 0.6862 -0.546 0
M  V30 9 O -0.334 1.112 1.7378 0
M  V30 10 C 0.2175 -0.0634 -1.1564 0
M  V30 11 C -0.8973 2.2085 -0.8102 0
M  V30 12 C 1.55 0.3686 -0.5777 0
M  V30 13 C 2.283 -0.3538 0.2988 0
M  V30 14 C 3.569 0.2378 0.8156 0
M  V30 15 C 1.8568 -1.7254 0.7661 0
M  V30 16 H -3.8181 -1.3123 -1.1932 0
M  V30 17 H -1.7652 -0.8632 2.5147 0
M  V30 18 H 0.2556 0.1313 -2.2506 0
M  V30 19 H 0.0681 -1.1588 -1.0523 0
M  V30 20 H -1.8135 2.7236 -0.4479 0
M  V30 21 H -0.0259 2.6574 -0.2887 0
M  V30 22 H -0.7832 2.4164 -1.896 0
M  V30 23 H 1.9152 1.348 -0.8761 0
M  V30 24 H 4.084 -0.4469 1.5208 0
M  V30 25 H 4.2556 0.443 -0.0327 0
M  V30 26 H 3.3559 1.1889 1.3483 0
M  V30 27 H 1.8202 -2.4236 -0.096 0
M  V30 28 H 2.568 -2.1416 1.5091 0
M  V30 29 H 0.8584 -1.6746 1.2467 0
M  V30 END ATOM
M  V30 BEGIN BOND
M  V30 1 2 1 2
M  V30 2 1 2 3
M  V30 3 1 2 4
M  V30 4 1 3 5
M  V30 5 1 4 6
M  V30 6 2 5 7
M  V30 7 1 5 8
M  V30 8 2 6 9
M  V30 9 1 8 10
M  V30 10 1 8 11
M  V30 11 1 10 12
M  V30 12 2 12 13
M  V30 13 1 13 14
M  V30 14 1 13 15
M  V30 15 1 6 8
M  V30 16 1 3 16
M  V30 17 1 4 17
M  V30 18 1 10 18
M  V30 19 1 10 19
M  V30 20 1 11 20
M  V30 21 1 11 21
M  V30 22 1 11 22
M  V30 23 1 12 23
M  V30 24 1 14 24
M  V30 25 1 14 25
M  V30 26 1 14 26
M  V30 27 1 15 27
M  V30 28 1 15 28
M  V30 29 1 15 29
M  V30 END BOND
M  V30 END CTAB
M  END
>  <Structure No>
6293

>  <LogS>
-2.6

>  <MMFF94 Energy>
-119.61

$$$$
Compound 6294
Actelion Java MolfileCreator 2.0

  0  0  0  0  0  0              0 V3000
M  V30 BEGIN CTAB
M  V30 COUNTS 20 20 0 0 0
M  V30 BEGIN ATOM
M  V30 1 O 3.5393 -0.9428 -1.0214 0
M  V30 2 C 3.0701 -0.3418 -0.0172 0
M  V30 3 O 1.6954 -0.1233 0.1058 0
M  V30 4 N 3.9492 0.1203 1.0043 0
M  V30 5 C 0.7582 -0.5564 -0.874 0
M  V30 6 C -0.6252 -0.168 -0.4418 0
M  V30 7 C -1.1492 1.0881 -0.7894 0
M  V30 8 C -1.382 -1.0296 0.3692 0
M  V30 9 C -2.4245 1.4634 -0.355 0
M  V30 10 C -2.6569 -0.6505 0.8015 0
M  V30 11 C -3.1787 0.5939 0.4376 0
M  V30 12 H 4.9788 -0.0346 0.9275 0
M  V30 13 H 3.5678 0.6187 1.8385 0
M  V30 14 H 0.825 -1.6599 -0.9948 0
M  V30 15 H 0.9977 -0.089 -1.8543 0
M  V30 16 H -0.5713 1.7752 -1.395 0
M  V30 17 H -0.9854 -1.9926 0.6663 0
M  V30 18 H -2.8265 2.43 -0.6298 0
M  V30 19 H -3.2387 -1.3199 1.4218 0
M  V30 20 H -4.165 0.8864 0.7741 0
M  V30 END ATOM
M  V30 BEGIN BOND
M  V30 1 2 1 2
M  V30 2 1 2 3
M  V30 3 1 2 4
M  V30 4 1 3 5
M  V30 5 1 5 6
M  V30 6 2 6 7
M  V30 7 1 6 8
M  V30 8 1 7 9
M  V30 9 2 8 10
M  V30 10 2 9 11
M  V30 11 1 10 11
M  V30 12 1 4 12
M  V30 13 1 4 13
M  V30 14 1 5 14
M  V30 15 1 5 15
M  V30 16 1 7 16
M  V30 17 1 8 17
M  V30 18 1 9 18
M  V30 19 1 10 19
M  V30 20 1 11 20
M  V30 END BOND
M  V30 END CTAB
M  END
>  <Structure No>
6294

>  <LogS>
-0.35

>  <MMFF94 Energy>
-54.495

$$$$
Compound 6295
Actelion Java MolfileCreator 2.0

  0  0  0  0  0  0              0 V3000
M  V30 BEGIN CTAB
M  V30 COUNTS 17 17 0 0 0
M  V30 BEGIN ATOM
M  V30 1 O 1.4937 -1.5723 0.6287 0
M  V30 2 C 1.0912 -0.4706 0.1643 0
M  V30 3 N 2.054 0.4977 -0.2827 0
M  V30 4 C -0.3658 -0.2077 0.0746 0
M  V30 5 N 3.431 0.306 -0.0864 0
M  V30 6 C -1.2734 -1.2805 0.0441 0
M  V30 7 C -0.8719 1.1037 0.0432 0
M  V30 8 C -2.6449 -1.0269 -0.0351 0
M  V30 9 C -2.2515 1.3116 -0.0348 0
M  V30 10 N -3.1012 0.2521 -0.0735 0
M  V30 11 H 1.7473 1.3455 -0.8077 0
M  V30 12 H 3.6969 -0.5962 -0.5429 0
M  V30 13 H 3.5949 0.2082 0.9414 0
M  V30 14 H -0.926 -2.3059 0.0703 0
M  V30 15 H -0.2185 1.9634 0.1032 0
M  V30 16 H -3.3473 -1.849 -0.0659 0
M  V30 17 H -2.6473 2.3182 -0.0577 0
M  V30 END ATOM
M  V30 BEGIN BOND
M  V30 1 2 1 2
M  V30 2 1 2 3
M  V30 3 1 2 4
M  V30 4 1 3 5
M  V30 5 2 4 6
M  V30 6 1 4 7
M  V30 7 1 6 8
M  V30 8 2 7 9
M  V30 9 2 8 10
M  V30 10 1 9 10
M  V30 11 1 3 11
M  V30 12 1 5 12
M  V30 13 1 5 13
M  V30 14 1 6 14
M  V30 15 1 7 15
M  V30 16 1 8 16
M  V30 17 1 9 17
M  V30 END BOND
M  V30 END CTAB
M  END
>  <Structure No>
6295

>  <LogS>
-0.04

>  <MMFF94 Energy>
55.094

$$$$
Compound 6296
Actelion Java MolfileCreator 2.0

  0  0  0  0  0  0              0 V3000
M  V30 BEGIN CTAB
M  V30 COUNTS 31 31 0 0 0
M  V30 BEGIN ATOM
M  V30 1 O -1.674 -3.43 1.9931 0
M  V30 2 C -1.2467 -2.4287 1.3595 0
M  V30 3 N -0.5483 -2.606 0.1338 0
M  V30 4 N -1.4449 -1.1201 1.8779 0
M  V30 5 C -0.1152 -1.4893 -0.6483 0
M  V30 6 C -0.9472 0.0309 1.1917 0
M  V30 7 O 0.4696 -1.722 -1.7401 0
M  V30 8 C -0.4321 -0.0431 -0.2509 0
M  V30 9 O -0.9937 1.1438 1.7844 0
M  V30 10 C 0.8686 0.8678 -0.3975 0 CFG=1
M  V30 11 C -1.6067 0.4072 -1.1793 0
M  V30 12 C 2.1563 0.2608 0.2379 0
M  V30 13 C 1.2014 1.2699 -1.8545 0
M  V30 14 C -2.1425 1.8249 -0.9317 0
M  V30 15 C 2.0826 0.0454 1.749 0
M  V30 16 H -0.3621 -3.5749 -0.2105 0
M  V30 17 H -1.9052 -1.0034 2.8089 0
M  V30 18 H 0.6856 1.8331 0.1231 0
M  V30 19 H -2.4613 -0.2951 -1.0509 0
M  V30 20 H -1.3106 0.3208 -2.2468 0
M  V30 21 H 2.4255 -0.6982 -0.2528 0
M  V30 22 H 3.0054 0.9567 0.0582 0
M  V30 23 H 0.3848 1.8562 -2.3189 0
M  V30 24 H 1.4215 0.3888 -2.4878 0
M  V30 25 H 2.0958 1.9289 -1.8734 0
M  V30 26 H -2.8366 2.1014 -1.7531 0
M  V30 27 H -1.3286 2.5757 -0.9001 0
M  V30 28 H -2.7148 1.8663 0.018 0
M  V30 29 H 1.4376 -0.8235 1.9905 0
M  V30 30 H 1.7063 0.9575 2.258 0
M  V30 31 H 3.0986 -0.1764 2.1384 0
M  V30 END ATOM
M  V30 BEGIN BOND
M  V30 1 2 1 2
M  V30 2 1 2 3
M  V30 3 1 2 4
M  V30 4 1 3 5
M  V30 5 1 4 6
M  V30 6 2 5 7
M  V30 7 1 5 8
M  V30 8 2 6 9
M  V30 9 1 8 10
M  V30 10 1 8 11
M  V30 11 1 10 12
M  V30 12 1 10 13
M  V30 13 1 11 14
M  V30 14 1 12 15
M  V30 15 1 6 8
M  V30 16 1 3 16
M  V30 17 1 4 17
M  V30 18 1 10 18
M  V30 19 1 11 19
M  V30 20 1 11 20
M  V30 21 1 12 21
M  V30 22 1 12 22
M  V30 23 1 13 23
M  V30 24 1 13 24
M  V30 25 1 13 25
M  V30 26 1 14 26
M  V30 27 1 14 27
M  V30 28 1 14 28
M  V30 29 1 15 29
M  V30 30 1 15 30
M  V30 31 1 15 31
M  V30 END BOND
M  V30 BEGIN COLLECTION
M  V30 MDLV30/STEABS ATOMS=(1 10)
M  V30 END COLLECTION
M  V30 END CTAB
M  END
>  <Structure No>
6296

>  <LogS>
-2.39

>  <MMFF94 Energy>
-118.03

$$$$
Compound 6297
Actelion Java MolfileCreator 2.0

  0  0  0  0  0  0              0 V3000
M  V30 BEGIN CTAB
M  V30 COUNTS 14 14 0 0 0
M  V30 BEGIN ATOM
M  V30 1 F 0.814 2.2806 0.7326 0
M  V30 2 C 0.1758 1.1407 0.3652 0
M  V30 3 C 0.896 -0.0283 0.0379 0
M  V30 4 C -1.2226 1.1439 0.316 0
M  V30 5 C 2.3784 -0.0574 0.0824 0
M  V30 6 C 0.1805 -1.1828 -0.3365 0
M  V30 7 C -1.9171 -0.008 -0.057 0
M  V30 8 O 3.0047 -1.11 -0.2129 0
M  V30 9 O 3.1033 1.0703 0.4493 0 CHG=-1
M  V30 10 C -1.2163 -1.1699 -0.3827 0
M  V30 11 H -1.7705 2.043 0.5679 0
M  V30 12 H 0.6996 -2.0976 -0.5942 0
M  V30 13 H -2.9989 -1.0E-4 -0.0935 0
M  V30 14 H -1.756 -2.0624 -0.6718 0
M  V30 END ATOM
M  V30 BEGIN BOND
M  V30 1 1 1 2
M  V30 2 2 2 3
M  V30 3 1 2 4
M  V30 4 1 3 5
M  V30 5 1 3 6
M  V30 6 2 4 7
M  V30 7 2 5 8
M  V30 8 1 5 9
M  V30 9 2 6 10
M  V30 10 1 7 10
M  V30 11 1 4 11
M  V30 12 1 6 12
M  V30 13 1 7 13
M  V30 14 1 10 14
M  V30 END BOND
M  V30 END CTAB
M  END
>  <Structure No>
6297

>  <LogS>
-1.39

>  <MMFF94 Energy>
27.977

$$$$
Compound 6298
Actelion Java MolfileCreator 2.0

  0  0  0  0  0  0              0 V3000
M  V30 BEGIN CTAB
M  V30 COUNTS 31 31 0 0 0
M  V30 BEGIN ATOM
M  V30 1 O -0.9569 3.992 -1.7549 0
M  V30 2 C -0.8629 2.869 -1.1926 0
M  V30 3 N -0.9784 1.6743 -1.9565 0
M  V30 4 N -0.6776 2.7875 0.2156 0
M  V30 5 C -0.8311 0.3921 -1.3384 0
M  V30 6 C -0.5178 1.5198 0.8595 0
M  V30 7 O -1.1453 -0.6275 -2.0076 0
M  V30 8 C -0.1922 0.2495 0.0522 0
M  V30 9 O -0.5551 1.4827 2.1204 0
M  V30 10 C -0.7951 -0.9995 0.8394 0
M  V30 11 C 1.3848 0.2334 -0.1112 0
M  V30 12 C -2.3366 -0.9388 0.9327 0
M  V30 13 C -0.3826 -2.4018 0.3422 0
M  V30 14 C 2.1514 -0.0613 1.1935 0
M  V30 15 C 1.9368 -0.6368 -1.2621 0
M  V30 16 H -1.2301 1.7342 -2.969 0
M  V30 17 H -0.7107 3.6595 0.7908 0
M  V30 18 H -0.4272 -0.9554 1.8883 0
M  V30 19 H 1.686 1.2684 -0.3967 0
M  V30 20 H -2.6832 0.0446 1.3107 0
M  V30 21 H -2.7076 -1.7112 1.6401 0
M  V30 22 H -2.8055 -1.1232 -0.0561 0
M  V30 23 H 0.6752 -2.6183 0.5784 0
M  V30 24 H -0.5578 -2.5457 -0.7395 0
M  V30 25 H -0.9662 -3.182 0.8765 0
M  V30 26 H 2.0024 -1.1026 1.5363 0
M  V30 27 H 3.2406 0.0907 1.0352 0
M  V30 28 H 1.8422 0.6293 2.0033 0
M  V30 29 H 1.7209 -1.7107 -1.1341 0
M  V30 30 H 3.0407 -0.5247 -1.3219 0
M  V30 31 H 1.5346 -0.3041 -2.2411 0
M  V30 END ATOM
M  V30 BEGIN BOND
M  V30 1 2 1 2
M  V30 2 1 2 3
M  V30 3 1 2 4
M  V30 4 1 3 5
M  V30 5 1 4 6
M  V30 6 2 5 7
M  V30 7 1 5 8
M  V30 8 2 6 9
M  V30 9 1 8 10
M  V30 10 1 8 11
M  V30 11 1 10 12
M  V30 12 1 10 13
M  V30 13 1 11 14
M  V30 14 1 11 15
M  V30 15 1 6 8
M  V30 16 1 3 16
M  V30 17 1 4 17
M  V30 18 1 10 18
M  V30 19 1 11 19
M  V30 20 1 12 20
M  V30 21 1 12 21
M  V30 22 1 12 22
M  V30 23 1 13 23
M  V30 24 1 13 24
M  V30 25 1 13 25
M  V30 26 1 14 26
M  V30 27 1 14 27
M  V30 28 1 14 28
M  V30 29 1 15 29
M  V30 30 1 15 30
M  V30 31 1 15 31
M  V30 END BOND
M  V30 END CTAB
M  END
>  <Structure No>
6298

>  <LogS>
-2.77

>  <MMFF94 Energy>
-111.22

$$$$
Compound 6299
Actelion Java MolfileCreator 2.0

  0  0  0  0  0  0              0 V3000
M  V30 BEGIN CTAB
M  V30 COUNTS 16 16 0 0 0
M  V30 BEGIN ATOM
M  V30 1 O -2.712 1.3552 0.0796 0
M  V30 2 C -1.5193 1.7156 0.2614 0
M  V30 3 O -1.2594 3.0394 0.5966 0 CHG=-1
M  V30 4 C -0.3991 0.7694 0.0555 0
M  V30 5 C -0.5184 -0.6267 0.2882 0
M  V30 6 C 0.8202 1.2781 -0.4283 0
M  V30 7 N -1.689 -1.2008 0.8857 0
M  V30 8 C 0.5599 -1.4717 -0.0205 0
M  V30 9 C 1.8869 0.4241 -0.7135 0
M  V30 10 C 1.7537 -0.9492 -0.5189 0
M  V30 11 H 0.941 2.3388 -0.6125 0
M  V30 12 H -2.3821 -0.6253 1.4107 0
M  V30 13 H -1.8028 -2.238 0.9321 0
M  V30 14 H 0.482 -2.5385 0.1481 0
M  V30 15 H 2.8156 0.8278 -1.0955 0
M  V30 16 H 2.5808 -1.6098 -0.7449 0
M  V30 END ATOM
M  V30 BEGIN BOND
M  V30 1 2 1 2
M  V30 2 1 2 3
M  V30 3 1 2 4
M  V30 4 2 4 5
M  V30 5 1 4 6
M  V30 6 1 5 7
M  V30 7 1 5 8
M  V30 8 2 6 9
M  V30 9 2 8 10
M  V30 10 1 9 10
M  V30 11 1 6 11
M  V30 12 1 7 12
M  V30 13 1 7 13
M  V30 14 1 8 14
M  V30 15 1 9 15
M  V30 16 1 10 16
M  V30 END BOND
M  V30 END CTAB
M  END
>  <Structure No>
6299

>  <LogS>
-1.52

>  <MMFF94 Energy>
34.982

$$$$
Compound 6300
Actelion Java MolfileCreator 2.0

  0  0  0  0  0  0              0 V3000
M  V30 BEGIN CTAB
M  V30 COUNTS 15 15 0 0 0
M  V30 BEGIN ATOM
M  V30 1 O 3.2164 -0.2409 -0.8837 0
M  V30 2 C 2.5377 0.3794 -0.0225 0
M  V30 3 O 3.1884 1.2339 0.8601 0 CHG=-1
M  V30 4 C 1.0706 0.2025 0.0498 0
M  V30 5 C 0.4067 -0.6613 -0.8413 0
M  V30 6 C 0.3185 0.8978 1.0134 0
M  V30 7 C -0.9813 -0.8261 -0.77 0
M  V30 8 C -1.0675 0.7321 1.0833 0
M  V30 9 O -1.6179 -1.6861 -1.6619 0
M  V30 10 C -1.7175 -0.127 0.1949 0
M  V30 11 H 0.9614 -1.2089 -1.5931 0
M  V30 12 H 0.7996 1.5696 1.7132 0
M  V30 13 H -1.6391 1.271 1.8281 0
M  V30 14 H -2.621 -1.8276 -1.6366 0
M  V30 15 H -2.7914 -0.249 0.2567 0
M  V30 END ATOM
M  V30 BEGIN BOND
M  V30 1 2 1 2
M  V30 2 1 2 3
M  V30 3 1 2 4
M  V30 4 2 4 5
M  V30 5 1 4 6
M  V30 6 1 5 7
M  V30 7 2 6 8
M  V30 8 1 7 9
M  V30 9 2 7 10
M  V30 10 1 8 10
M  V30 11 1 5 11
M  V30 12 1 6 12
M  V30 13 1 8 13
M  V30 14 1 9 14
M  V30 15 1 10 15
M  V30 END BOND
M  V30 END CTAB
M  END
>  <Structure No>
6300

>  <LogS>
-1.24

>  <MMFF94 Energy>
19.461

$$$$
Compound 6301
Actelion Java MolfileCreator 2.0

  0  0  0  0  0  0              0 V3000
M  V30 BEGIN CTAB
M  V30 COUNTS 34 34 0 0 0
M  V30 BEGIN ATOM
M  V30 1 O -2.5452 3.6603 0.2384 0
M  V30 2 C -2.3263 2.4393 0.0237 0
M  V30 3 N -2.6841 1.466 0.9993 0
M  V30 4 N -1.7496 2.0214 -1.2091 0
M  V30 5 C -2.3669 0.0835 0.8048 0
M  V30 6 C -1.4418 0.6435 -1.4379 0
M  V30 7 O -2.8475 -0.7578 1.6101 0
M  V30 8 C -1.3741 -0.3523 -0.2764 0
M  V30 9 O -1.129 0.2846 -2.6061 0
M  V30 10 C 0.0509 -0.284 0.3494 0
M  V30 11 C -1.7431 -1.7869 -0.8019 0
M  V30 12 C 1.2014 -0.6047 -0.629 0
M  V30 13 C -1.3767 -2.9638 0.1171 0
M  V30 14 C 2.5571 -0.7699 0.0808 0
M  V30 15 C 3.0481 0.4781 0.8353 0
M  V30 16 C 3.259 1.6849 -0.0778 0
M  V30 17 H -3.2166 1.7609 1.8491 0
M  V30 18 H -1.5984 2.721 -1.9708 0
M  V30 19 H 0.2096 0.7446 0.7414 0
M  V30 20 H 0.1086 -0.9647 1.2264 0
M  V30 21 H -2.836 -1.8271 -1.0067 0
M  V30 22 H -1.2421 -1.9887 -1.7724 0
M  V30 23 H 0.9918 -1.5541 -1.162 0
M  V30 24 H 1.2802 0.187 -1.4023 0
M  V30 25 H -1.7789 -3.9023 -0.3193 0
M  V30 26 H -0.2757 -3.0785 0.1957 0
M  V30 27 H -1.8012 -2.8573 1.1325 0
M  V30 28 H 2.4855 -1.6136 0.8011 0
M  V30 29 H 3.3199 -1.0546 -0.676 0
M  V30 30 H 2.3446 0.7436 1.6519 0
M  V30 31 H 4.0198 0.2311 1.3141 0
M  V30 32 H 3.9081 1.4141 -0.9373 0
M  V30 33 H 3.7505 2.4989 0.4947 0
M  V30 34 H 2.2872 2.0679 -0.4517 0
M  V30 END ATOM
M  V30 BEGIN BOND
M  V30 1 2 1 2
M  V30 2 1 2 3
M  V30 3 1 2 4
M  V30 4 1 3 5
M  V30 5 1 4 6
M  V30 6 2 5 7
M  V30 7 1 5 8
M  V30 8 2 6 9
M  V30 9 1 8 10
M  V30 10 1 8 11
M  V30 11 1 10 12
M  V30 12 1 11 13
M  V30 13 1 12 14
M  V30 14 1 14 15
M  V30 15 1 15 16
M  V30 16 1 6 8
M  V30 17 1 3 17
M  V30 18 1 4 18
M  V30 19 1 10 19
M  V30 20 1 10 20
M  V30 21 1 11 21
M  V30 22 1 11 22
M  V30 23 1 12 23
M  V30 24 1 12 24
M  V30 25 1 13 25
M  V30 26 1 13 26
M  V30 27 1 13 27
M  V30 28 1 14 28
M  V30 29 1 14 29
M  V30 30 1 15 30
M  V30 31 1 15 31
M  V30 32 1 16 32
M  V30 33 1 16 33
M  V30 34 1 16 34
M  V30 END BOND
M  V30 END CTAB
M  END
>  <Structure No>
6301

>  <LogS>
-2.51

>  <MMFF94 Energy>
-130.02

$$$$
Compound 6302
Actelion Java MolfileCreator 2.0

  0  0  0  0  0  0              0 V3000
M  V30 BEGIN CTAB
M  V30 COUNTS 24 23 0 0 0
M  V30 BEGIN ATOM
M  V30 1 O -1.2614 -1.7347 -1.5769 0
M  V30 2 C -1.289 -0.826 -0.7024 0
M  V30 3 N -0.0683 -0.2926 -0.1631 0
M  V30 4 N -2.548 -0.3194 -0.2409 0
M  V30 5 C 1.2459 -0.7327 -0.5593 0
M  V30 6 C -3.8149 -0.8324 -0.7614 0
M  V30 7 O 1.3719 -1.6382 -1.4286 0
M  V30 8 C 2.467 -0.1419 0.0352 0
M  V30 9 C -4.9998 -0.1284 -0.1084 0
M  V30 10 N 3.6267 -0.588 -0.37 0
M  V30 11 C 2.3345 0.895 1.031 0
M  V30 12 O 4.9069 -0.2109 0.0198 0
M  V30 13 N 2.2174 1.7258 1.8286 0
M  V30 14 C 5.2231 0.7853 0.986 0
M  V30 15 H -0.1578 0.4571 0.5571 0
M  V30 16 H -2.5486 0.4337 0.4842 0
M  V30 17 H -3.8567 -0.6694 -1.8599 0
M  V30 18 H -3.8839 -1.9228 -0.5584 0
M  V30 19 H -4.9577 0.962 -0.3153 0
M  V30 20 H -4.9851 -0.2947 0.9896 0
M  V30 21 H -5.948 -0.5344 -0.5192 0
M  V30 22 H 4.8425 1.7747 0.6574 0
M  V30 23 H 6.3262 0.8562 1.0774 0
M  V30 24 H 4.8148 0.5026 1.9784 0
M  V30 END ATOM
M  V30 BEGIN BOND
M  V30 1 2 1 2
M  V30 2 1 2 3
M  V30 3 1 2 4
M  V30 4 1 3 5
M  V30 5 1 4 6
M  V30 6 2 5 7
M  V30 7 1 5 8
M  V30 8 1 6 9
M  V30 9 2 8 10
M  V30 10 1 8 11
M  V30 11 1 10 12
M  V30 12 3 11 13
M  V30 13 1 12 14
M  V30 14 1 3 15
M  V30 15 1 4 16
M  V30 16 1 6 17
M  V30 17 1 6 18
M  V30 18 1 9 19
M  V30 19 1 9 20
M  V30 20 1 9 21
M  V30 21 1 14 22
M  V30 22 1 14 23
M  V30 23 1 14 24
M  V30 END BOND
M  V30 END CTAB
M  END
>  <Structure No>
6302

>  <LogS>
-2.3

>  <MMFF94 Energy>
-36.438

$$$$
Compound 6303
Actelion Java MolfileCreator 2.0

  0  0  0  0  0  0              0 V3000
M  V30 BEGIN CTAB
M  V30 COUNTS 15 15 0 0 0
M  V30 BEGIN ATOM
M  V30 1 O 3.1254 0.8807 1.121 0
M  V30 2 N 2.5827 -0.0495 0.4894 0 CHG=1
M  V30 3 O 3.3605 -1.0996 0.058 0 CHG=-1
M  V30 4 C 1.1695 -0.0256 0.2169 0
M  V30 5 C 0.5643 -1.077 -0.4952 0
M  V30 6 C 0.3705 1.0468 0.6567 0
M  V30 7 C -0.8084 -1.0554 -0.761 0
M  V30 8 C -1.0017 1.0648 0.3891 0
M  V30 9 C -1.5946 0.013 -0.3207 0
M  V30 10 O -2.9608 0.0205 -0.5931 0
M  V30 11 H 1.1509 -1.9155 -0.8468 0
M  V30 12 H 0.8061 1.8709 1.2071 0
M  V30 13 H -1.2618 -1.8709 -1.31 0
M  V30 14 H -1.6031 1.8965 0.7338 0
M  V30 15 H -3.5575 0.7805 -0.2875 0
M  V30 END ATOM
M  V30 BEGIN BOND
M  V30 1 2 1 2
M  V30 2 1 2 3
M  V30 3 1 2 4
M  V30 4 2 4 5
M  V30 5 1 4 6
M  V30 6 1 5 7
M  V30 7 2 6 8
M  V30 8 2 7 9
M  V30 9 1 9 10
M  V30 10 1 8 9
M  V30 11 1 5 11
M  V30 12 1 6 12
M  V30 13 1 7 13
M  V30 14 1 8 14
M  V30 15 1 10 15
M  V30 END BOND
M  V30 END CTAB
M  END
>  <Structure No>
6303

>  <LogS>
-0.94

>  <MMFF94 Energy>
38.278

$$$$
Compound 6304
Actelion Java MolfileCreator 2.0

  0  0  0  0  0  0              0 V3000
M  V30 BEGIN CTAB
M  V30 COUNTS 16 16 0 0 0
M  V30 BEGIN ATOM
M  V30 1 O -2.5434 -1.1121 0.9532 0
M  V30 2 N -1.7226 -1.3818 0.0523 0 CHG=1
M  V30 3 O -1.9117 -2.5199 -0.6973 0 CHG=-1
M  V30 4 C -0.4806 -0.6644 -0.0353 0
M  V30 5 C -0.4152 0.7399 0.1495 0
M  V30 6 C 0.7046 -1.3782 -0.2849 0
M  V30 7 N -1.5984 1.535 0.3016 0
M  V30 8 C 0.8338 1.3814 0.1289 0
M  V30 9 C 1.9372 -0.7227 -0.3156 0
M  V30 10 C 2.0026 0.6534 -0.1008 0
M  V30 11 H 0.6773 -2.4505 -0.4312 0
M  V30 12 H -2.547 1.1613 0.0821 0
M  V30 13 H -1.5264 2.5523 0.5278 0
M  V30 14 H 0.899 2.453 0.2711 0
M  V30 15 H 2.8441 -1.2847 -0.4983 0
M  V30 16 H 2.9594 1.159 -0.1218 0
M  V30 END ATOM
M  V30 BEGIN BOND
M  V30 1 2 1 2
M  V30 2 1 2 3
M  V30 3 1 2 4
M  V30 4 2 4 5
M  V30 5 1 4 6
M  V30 6 1 5 7
M  V30 7 1 5 8
M  V30 8 2 6 9
M  V30 9 2 8 10
M  V30 10 1 9 10
M  V30 11 1 6 11
M  V30 12 1 7 12
M  V30 13 1 7 13
M  V30 14 1 8 14
M  V30 15 1 9 15
M  V30 16 1 10 16
M  V30 END BOND
M  V30 END CTAB
M  END
>  <Structure No>
6304

>  <LogS>
-1.96

>  <MMFF94 Energy>
65.994

$$$$
Compound 6305
Actelion Java MolfileCreator 2.0

  0  0  0  0  0  0              0 V3000
M  V30 BEGIN CTAB
M  V30 COUNTS 30 30 0 0 0
M  V30 BEGIN ATOM
M  V30 1 C 1.332 0.4699 0.0 0
M  V30 2 C 0.2499 1.3826 -0.0837 0
M  V30 3 C 1.0867 -0.9233 -0.097 0
M  V30 4 C 2.7495 0.9833 0.1786 0
M  V30 5 C -1.0828 0.8989 -0.0562 0
M  V30 6 C 0.5171 2.8735 -0.188 0
M  V30 7 C -0.246 -1.4069 -0.0695 0
M  V30 8 C 2.2474 -1.8946 -0.2155 0
M  V30 9 C -1.3281 -0.4943 -0.1531 0
M  V30 10 C -2.2436 1.8704 0.0624 0
M  V30 11 C -0.5133 -2.8977 0.0348 0
M  V30 12 C -2.7458 -1.0075 -0.3317 0
M  V30 13 H 3.2144 1.1577 -0.8141 0
M  V30 14 H 2.7718 1.9223 0.7692 0
M  V30 15 H 3.3709 0.2712 0.7598 0
M  V30 16 H 0.5723 3.318 0.8278 0
M  V30 17 H -0.2698 3.3889 -0.7763 0
M  V30 18 H 1.459 3.0817 -0.736 0
M  V30 19 H 3.1016 -1.4446 -0.7621 0
M  V30 20 H 2.5784 -2.2104 0.7958 0
M  V30 21 H 1.9717 -2.7886 -0.812 0
M  V30 22 H -1.968 2.7644 0.6589 0
M  V30 23 H -3.0978 1.4205 0.609 0
M  V30 24 H -2.5747 2.1863 -0.9489 0
M  V30 25 H 0.2735 -3.413 0.6231 0
M  V30 26 H -0.5686 -3.3421 -0.9809 0
M  V30 27 H -1.4553 -3.1058 0.5829 0
M  V30 28 H -3.3672 -0.2953 -0.9127 0
M  V30 29 H -3.2107 -1.1819 0.661 0
M  V30 30 H -2.7681 -1.9465 -0.9222 0
M  V30 END ATOM
M  V30 BEGIN BOND
M  V30 1 2 1 2
M  V30 2 1 1 3
M  V30 3 1 1 4
M  V30 4 1 2 5
M  V30 5 1 2 6
M  V30 6 2 3 7
M  V30 7 1 3 8
M  V30 8 2 5 9
M  V30 9 1 5 10
M  V30 10 1 7 11
M  V30 11 1 9 12
M  V30 12 1 7 9
M  V30 13 1 4 13
M  V30 14 1 4 14
M  V30 15 1 4 15
M  V30 16 1 6 16
M  V30 17 1 6 17
M  V30 18 1 6 18
M  V30 19 1 8 19
M  V30 20 1 8 20
M  V30 21 1 8 21
M  V30 22 1 10 22
M  V30 23 1 10 23
M  V30 24 1 10 24
M  V30 25 1 11 25
M  V30 26 1 11 26
M  V30 27 1 11 27
M  V30 28 1 12 28
M  V30 29 1 12 29
M  V30 30 1 12 30
M  V30 END BOND
M  V30 END CTAB
M  END
>  <Structure No>
6305

>  <LogS>
-5.23

>  <MMFF94 Energy>
45.715

$$$$
Compound 6306
Actelion Java MolfileCreator 2.0

  0  0  0  0  0  0              0 V3000
M  V30 BEGIN CTAB
M  V30 COUNTS 15 15 0 0 0
M  V30 BEGIN ATOM
M  V30 1 O 3.3661 0.3202 0.08 0
M  V30 2 N 2.4325 -0.5089 0.0731 0 CHG=1
M  V30 3 O 2.7381 -1.8507 0.0853 0 CHG=-1
M  V30 4 C 1.0614 -0.071 0.0529 0
M  V30 5 C 0.0138 -1.0105 0.0451 0
M  V30 6 C 0.7457 1.3009 0.0404 0
M  V30 7 C -1.3228 -0.5863 0.0254 0
M  V30 8 C -0.5875 1.7206 0.0207 0
M  V30 9 O -2.3622 -1.514 0.0177 0
M  V30 10 C -1.6192 0.7796 0.0133 0
M  V30 11 H 0.2305 -2.0709 0.0545 0
M  V30 12 H 1.5286 2.0483 0.0459 0
M  V30 13 H -0.821 2.7774 0.0112 0
M  V30 14 H -2.1825 -2.5112 0.0262 0
M  V30 15 H -2.6495 1.1115 -0.0018 0
M  V30 END ATOM
M  V30 BEGIN BOND
M  V30 1 2 1 2
M  V30 2 1 2 3
M  V30 3 1 2 4
M  V30 4 2 4 5
M  V30 5 1 4 6
M  V30 6 1 5 7
M  V30 7 2 6 8
M  V30 8 1 7 9
M  V30 9 2 7 10
M  V30 10 1 8 10
M  V30 11 1 5 11
M  V30 12 1 6 12
M  V30 13 1 8 13
M  V30 14 1 9 14
M  V30 15 1 10 15
M  V30 END BOND
M  V30 END CTAB
M  END
>  <Structure No>
6306

>  <LogS>
-1.07

>  <MMFF94 Energy>
32.406

$$$$
Compound 6307
Actelion Java MolfileCreator 2.0

  0  0  0  0  0  0              0 V3000
M  V30 BEGIN CTAB
M  V30 COUNTS 51 51 0 0 0
M  V30 BEGIN ATOM
M  V30 1 O -2.4456 -0.5518 -1.1039 0
M  V30 2 C -2.4546 -0.972 0.086 0
M  V30 3 N -3.616 -0.7871 0.9087 0
M  V30 4 N -1.3028 -1.6359 0.6231 0
M  V30 5 C -4.8483 -0.176 0.3981 0
M  V30 6 C -0.0559 -1.7835 -0.124 0
M  V30 7 C -5.5807 -1.161 -0.5474 0
M  V30 8 C -5.7591 0.2527 1.5631 0
M  V30 9 C 0.712 -0.4588 -0.1462 0
M  V30 10 C -7.1118 -0.9669 -0.5806 0
M  V30 11 C -7.0241 0.9794 1.0614 0
M  V30 12 C 2.0485 -0.6088 -0.8786 0
M  V30 13 C -7.5019 0.4923 -0.3243 0
M  V30 14 C 2.8062 0.6801 -0.8513 0
M  V30 15 O 2.7824 1.443 -1.8536 0
M  V30 16 O 3.4967 1.0431 0.3096 0
M  V30 17 C 4.2699 2.2369 0.4266 0
M  V30 18 C 5.5927 2.1228 -0.3404 0
M  V30 19 C 6.4442 0.9488 0.1645 0
M  V30 20 C 7.8016 0.9102 -0.5456 0
M  V30 21 C 8.638 -0.2737 -0.0716 0
M  V30 22 H -3.5588 -1.0717 1.915 0
M  V30 23 H -1.3681 -2.069 1.5709 0
M  V30 24 H -4.5817 0.7441 -0.1694 0
M  V30 25 H 0.5695 -2.5593 0.3692 0
M  V30 26 H -0.2737 -2.126 -1.1587 0
M  V30 27 H -5.3714 -2.2071 -0.241 0
M  V30 28 H -5.1773 -1.0343 -1.5733 0
M  V30 29 H -6.0593 -0.6485 2.1431 0
M  V30 30 H -5.2002 0.9256 2.2496 0
M  V30 31 H 0.0996 0.3178 -0.6541 0
M  V30 32 H 0.8972 -0.131 0.9007 0
M  V30 33 H -7.5855 -1.6058 0.1975 0
M  V30 34 H -7.5082 -1.2932 -1.5675 0
M  V30 35 H -7.8392 0.832 1.808 0
M  V30 36 H -6.8218 2.0743 1.0049 0
M  V30 37 H 1.8692 -0.9176 -1.9316 0
M  V30 38 H 2.6634 -1.3929 -0.3865 0
M  V30 39 H -7.0499 1.1296 -1.1182 0
M  V30 40 H -8.6072 0.5993 -0.3945 0
M  V30 41 H 3.6868 3.1076 0.0522 0
M  V30 42 H 4.4852 2.4153 1.502 0
M  V30 43 H 5.386 1.9951 -1.4262 0
M  V30 44 H 6.1552 3.0734 -0.2085 0
M  V30 45 H 6.6059 1.0537 1.2613 0
M  V30 46 H 5.9051 -0.0059 -0.0238 0
M  V30 47 H 7.6494 0.8267 -1.6444 0
M  V30 48 H 8.3584 1.8501 -0.3373 0
M  V30 49 H 8.8134 -0.208 1.0234 0
M  V30 50 H 8.1207 -1.229 -0.3047 0
M  V30 51 H 9.6188 -0.2664 -0.5895 0
M  V30 END ATOM
M  V30 BEGIN BOND
M  V30 1 2 1 2
M  V30 2 1 2 3
M  V30 3 1 2 4
M  V30 4 1 3 5
M  V30 5 1 4 6
M  V30 6 1 5 7
M  V30 7 1 5 8
M  V30 8 1 6 9
M  V30 9 1 7 10
M  V30 10 1 8 11
M  V30 11 1 9 12
M  V30 12 1 10 13
M  V30 13 1 12 14
M  V30 14 2 14 15
M  V30 15 1 14 16
M  V30 16 1 16 17
M  V30 17 1 17 18
M  V30 18 1 18 19
M  V30 19 1 19 20
M  V30 20 1 20 21
M  V30 21 1 11 13
M  V30 22 1 3 22
M  V30 23 1 4 23
M  V30 24 1 5 24
M  V30 25 1 6 25
M  V30 26 1 6 26
M  V30 27 1 7 27
M  V30 28 1 7 28
M  V30 29 1 8 29
M  V30 30 1 8 30
M  V30 31 1 9 31
M  V30 32 1 9 32
M  V30 33 1 10 33
M  V30 34 1 10 34
M  V30 35 1 11 35
M  V30 36 1 11 36
M  V30 37 1 12 37
M  V30 38 1 12 38
M  V30 39 1 13 39
M  V30 40 1 13 40
M  V30 41 1 17 41
M  V30 42 1 17 42
M  V30 43 1 18 43
M  V30 44 1 18 44
M  V30 45 1 19 45
M  V30 46 1 19 46
M  V30 47 1 20 47
M  V30 48 1 20 48
M  V30 49 1 21 49
M  V30 50 1 21 50
M  V30 51 1 21 51
M  V30 END BOND
M  V30 END CTAB
M  END
>  <Structure No>
6307

>  <LogS>
-2.3

>  <MMFF94 Energy>
-112.36

$$$$
Compound 6308
Actelion Java MolfileCreator 2.0

  0  0  0  0  0  0              0 V3000
M  V30 BEGIN CTAB
M  V30 COUNTS 32 32 0 0 0
M  V30 BEGIN ATOM
M  V30 1 O -4.0602 -2.8647 0.636 0
M  V30 2 C -3.1882 -1.9823 0.4183 0
M  V30 3 N -3.0192 -1.455 -0.8939 0
M  V30 4 N -2.3874 -1.4913 1.4888 0
M  V30 5 C -1.9985 -0.4942 -1.1796 0
M  V30 6 C -1.383 -0.4992 1.2614 0
M  V30 7 O -1.9375 -0.0044 -2.3408 0
M  V30 8 C -0.9286 -0.1348 -0.1515 0
M  V30 9 O -0.8239 0.0344 2.2587 0
M  V30 10 C 0.3351 -0.9668 -0.5141 0
M  V30 11 C -0.6124 1.3916 -0.2397 0
M  V30 12 C 1.5034 -0.7505 0.4287 0
M  V30 13 C -1.817 2.2928 0.0607 0
M  V30 14 C 2.6461 -0.0998 0.1145 0
M  V30 15 C 3.6978 0.0554 1.1829 0
M  V30 16 C 2.9015 0.4621 -1.2635 0
M  V30 17 H -3.6629 -1.7637 -1.6573 0
M  V30 18 H -2.5735 -1.8219 2.4625 0
M  V30 19 H 0.624 -0.7657 -1.5669 0
M  V30 20 H 0.0793 -2.0489 -0.4744 0
M  V30 21 H -0.2404 1.6419 -1.2569 0
M  V30 22 H 0.1997 1.6578 0.4711 0
M  V30 23 H 1.3931 -1.1421 1.4367 0
M  V30 24 H -2.6374 2.1135 -0.6647 0
M  V30 25 H -1.5091 3.3566 -0.0204 0
M  V30 26 H -2.195 2.1194 1.0896 0
M  V30 27 H 4.5894 0.6002 0.8086 0
M  V30 28 H 3.2791 0.6233 2.0409 0
M  V30 29 H 4.0255 -0.9454 1.5357 0
M  V30 30 H 2.1205 1.2045 -1.5252 0
M  V30 31 H 2.9046 -0.3577 -2.012 0
M  V30 32 H 3.8846 0.9739 -1.319 0
M  V30 END ATOM
M  V30 BEGIN BOND
M  V30 1 2 1 2
M  V30 2 1 2 3
M  V30 3 1 2 4
M  V30 4 1 3 5
M  V30 5 1 4 6
M  V30 6 2 5 7
M  V30 7 1 5 8
M  V30 8 2 6 9
M  V30 9 1 8 10
M  V30 10 1 8 11
M  V30 11 1 10 12
M  V30 12 1 11 13
M  V30 13 2 12 14
M  V30 14 1 14 15
M  V30 15 1 14 16
M  V30 16 1 6 8
M  V30 17 1 3 17
M  V30 18 1 4 18
M  V30 19 1 10 19
M  V30 20 1 10 20
M  V30 21 1 11 21
M  V30 22 1 11 22
M  V30 23 1 12 23
M  V30 24 1 13 24
M  V30 25 1 13 25
M  V30 26 1 13 26
M  V30 27 1 15 27
M  V30 28 1 15 28
M  V30 29 1 15 29
M  V30 30 1 16 30
M  V30 31 1 16 31
M  V30 32 1 16 32
M  V30 END BOND
M  V30 END CTAB
M  END
>  <Structure No>
6308

>  <LogS>
-2.25

>  <MMFF94 Energy>
-117.59

$$$$
Compound 6309
Actelion Java MolfileCreator 2.0

  0  0  0  0  0  0              0 V3000
M  V30 BEGIN CTAB
M  V30 COUNTS 58 58 0 0 0
M  V30 BEGIN ATOM
M  V30 1 O 8.3237 0.5532 -0.8695 0
M  V30 2 C 7.8654 -0.3479 -0.1187 0
M  V30 3 O 7.6857 -1.6325 -0.6162 0 CHG=-1
M  V30 4 C 7.4807 -0.0303 1.294 0
M  V30 5 C 5.9596 0.0894 1.4542 0
M  V30 6 C 5.3958 1.326 0.7373 0
M  V30 7 C 3.9182 1.4666 0.9801 0
M  V30 8 C 3.0346 0.6196 0.4337 0
M  V30 9 C 1.5574 0.7776 0.685 0
M  V30 10 C 0.736 -0.3661 0.0345 0 CFG=2
M  V30 11 C -0.7867 -0.2007 0.1711 0 CFG=2
M  V30 12 C 1.01 -1.7169 0.725 0 CFG=2
M  V30 13 C -1.2927 1.2216 -0.0191 0
M  V30 14 C -1.1511 -0.8177 1.5285 0 CFG=1
M  V30 15 O 0.9195 -2.7604 -0.2113 0
M  V30 16 C -0.0847 -1.8876 1.7866 0
M  V30 17 C -1.8457 1.7036 -1.1494 0
M  V30 18 O -1.1137 0.1365 2.5619 0
M  V30 19 C -2.1541 0.8897 -2.3857 0 CFG=2
M  V30 20 O -2.2898 1.7598 -3.4795 0
M  V30 21 C -3.4451 0.0623 -2.2033 0
M  V30 22 C -4.7081 0.9353 -2.0687 0
M  V30 23 C -5.9394 0.1095 -1.6426 0
M  V30 24 C -6.2681 0.2273 -0.1437 0
M  V30 25 C -5.1825 -0.3536 0.7606 0
M  V30 26 H 7.9751 0.9093 1.6257 0
M  V30 27 H 7.8468 -0.8491 1.9501 0
M  V30 28 H 5.4722 -0.8337 1.0695 0
M  V30 29 H 5.7284 0.1665 2.5395 0
M  V30 30 H 5.5829 1.2619 -0.3563 0
M  V30 31 H 5.9054 2.2362 1.1217 0
M  V30 32 H 3.567 2.2919 1.5937 0
M  V30 33 H 3.3904 -0.1916 -0.197 0
M  V30 34 H 1.3709 0.8054 1.7808 0
M  V30 35 H 1.2554 1.7549 0.2529 0
M  V30 36 H 0.9997 -0.412 -1.0472 0
M  V30 37 H -1.2408 -0.8669 -0.5906 0
M  V30 38 H 2.0093 -1.7498 1.2189 0
M  V30 39 H -1.1167 1.935 0.781 0
M  V30 40 H -2.1585 -1.2972 1.4759 0
M  V30 41 H 1.7659 -2.7502 -0.7296 0
M  V30 42 H 0.3519 -1.772 2.8036 0
M  V30 43 H -0.5371 -2.9025 1.7304 0
M  V30 44 H -2.095 2.7613 -1.1718 0
M  V30 45 H -2.0336 0.5 2.6535 0
M  V30 46 H -1.2988 0.2046 -2.5858 0
M  V30 47 H -2.2483 1.2009 -4.2991 0
M  V30 48 H -3.3456 -0.5965 -1.3191 0
M  V30 49 H -3.5661 -0.6048 -3.084 0
M  V30 50 H -4.915 1.4 -3.0578 0
M  V30 51 H -4.5396 1.7672 -1.3511 0
M  V30 52 H -5.8237 -0.9609 -1.9238 0
M  V30 53 H -6.8217 0.4892 -2.2032 0
M  V30 54 H -6.4382 1.2932 0.1223 0
M  V30 55 H -7.2159 -0.32 0.0505 0
M  V30 56 H -4.9472 -1.398 0.4666 0
M  V30 57 H -4.2631 0.2661 0.7138 0
M  V30 58 H -5.5404 -0.3563 1.8116 0
M  V30 END ATOM
M  V30 BEGIN BOND
M  V30 1 2 1 2
M  V30 2 1 2 3
M  V30 3 1 2 4
M  V30 4 1 4 5
M  V30 5 1 5 6
M  V30 6 1 6 7
M  V30 7 2 7 8
M  V30 8 1 8 9
M  V30 9 1 9 10
M  V30 10 1 10 11
M  V30 11 1 10 12
M  V30 12 1 11 13
M  V30 13 1 11 14
M  V30 14 1 12 15
M  V30 15 1 12 16
M  V30 16 2 13 17
M  V30 17 1 14 18
M  V30 18 1 17 19
M  V30 19 1 19 20
M  V30 20 1 19 21
M  V30 21 1 21 22
M  V30 22 1 22 23
M  V30 23 1 23 24
M  V30 24 1 24 25
M  V30 25 1 14 16
M  V30 26 1 4 26
M  V30 27 1 4 27
M  V30 28 1 5 28
M  V30 29 1 5 29
M  V30 30 1 6 30
M  V30 31 1 6 31
M  V30 32 1 7 32
M  V30 33 1 8 33
M  V30 34 1 9 34
M  V30 35 1 9 35
M  V30 36 1 10 36
M  V30 37 1 11 37
M  V30 38 1 12 38
M  V30 39 1 13 39
M  V30 40 1 14 40
M  V30 41 1 15 41
M  V30 42 1 16 42
M  V30 43 1 16 43
M  V30 44 1 17 44
M  V30 45 1 18 45
M  V30 46 1 19 46
M  V30 47 1 20 47
M  V30 48 1 21 48
M  V30 49 1 21 49
M  V30 50 1 22 50
M  V30 51 1 22 51
M  V30 52 1 23 52
M  V30 53 1 23 53
M  V30 54 1 24 54
M  V30 55 1 24 55
M  V30 56 1 25 56
M  V30 57 1 25 57
M  V30 58 1 25 58
M  V30 END BOND
M  V30 BEGIN COLLECTION
M  V30 MDLV30/STEABS ATOMS=(5 10 11 12 14 19)
M  V30 END COLLECTION
M  V30 END CTAB
M  END
>  <Structure No>
6309

>  <LogS>
-2.33

>  <MMFF94 Energy>
46.931

$$$$
Compound 6310
Actelion Java MolfileCreator 2.0

  0  0  0  0  0  0              0 V3000
M  V30 BEGIN CTAB
M  V30 COUNTS 26 27 0 0 0
M  V30 BEGIN ATOM
M  V30 1 S 4.7593 -0.0819 -0.9833 0
M  V30 2 C 3.2188 -0.1447 -0.4332 0
M  V30 3 N 2.8316 0.6249 0.7022 0
M  V30 4 N 2.2823 -1.0394 -1.0276 0
M  V30 5 C 1.4786 0.6148 1.1686 0
M  V30 6 C 0.9341 -1.1049 -0.5536 0
M  V30 7 O 1.209 1.2191 2.2428 0
M  V30 8 C 0.3573 0.0056 0.3275 0
M  V30 9 O 0.2107 -2.0607 -0.9406 0
M  V30 10 C -0.2086 1.1363 -0.5703 0
M  V30 11 C -0.7616 -0.5423 1.2745 0
M  V30 12 C -1.501 0.7339 -1.2919 0
M  V30 13 C -2.0933 -0.8609 0.5682 0
M  V30 14 C -2.574 0.3135 -0.2865 0
M  V30 15 H 3.5472 1.1848 1.2187 0
M  V30 16 H 2.5967 -1.7012 -1.7728 0
M  V30 17 H -0.4249 2.0364 0.0487 0
M  V30 18 H 0.5485 1.4376 -1.3279 0
M  V30 19 H -0.3994 -1.4541 1.7982 0
M  V30 20 H -0.9979 0.2088 2.06 0
M  V30 21 H -1.8742 1.6013 -1.8778 0
M  V30 22 H -1.3027 -0.0936 -2.0065 0
M  V30 23 H -2.8637 -1.0795 1.339 0
M  V30 24 H -2.0088 -1.7712 -0.0582 0
M  V30 25 H -3.4936 0.0154 -0.8346 0
M  V30 26 H -2.8308 1.1739 0.37 0
M  V30 END ATOM
M  V30 BEGIN BOND
M  V30 1 2 1 2
M  V30 2 1 2 3
M  V30 3 1 2 4
M  V30 4 1 3 5
M  V30 5 1 4 6
M  V30 6 2 5 7
M  V30 7 1 5 8
M  V30 8 2 6 9
M  V30 9 1 8 10
M  V30 10 1 8 11
M  V30 11 1 10 12
M  V30 12 1 11 13
M  V30 13 1 12 14
M  V30 14 1 6 8
M  V30 15 1 13 14
M  V30 16 1 3 15
M  V30 17 1 4 16
M  V30 18 1 10 17
M  V30 19 1 10 18
M  V30 20 1 11 19
M  V30 21 1 11 20
M  V30 22 1 12 21
M  V30 23 1 12 22
M  V30 24 1 13 23
M  V30 25 1 13 24
M  V30 26 1 14 25
M  V30 27 1 14 26
M  V30 END BOND
M  V30 END CTAB
M  END
>  <Structure No>
6310

>  <LogS>
-3.46

>  <MMFF94 Energy>
-98.352

$$$$
Compound 6311
Actelion Java MolfileCreator 2.0

  0  0  0  0  0  0              0 V3000
M  V30 BEGIN CTAB
M  V30 COUNTS 37 37 0 0 0
M  V30 BEGIN ATOM
M  V30 1 O -5.8075 0.9528 -1.3501 0
M  V30 2 C -4.6255 1.0326 -0.9226 0
M  V30 3 N -4.351 0.8516 0.4639 0
M  V30 4 N -3.5599 1.3448 -1.8157 0
M  V30 5 C -3.0037 0.8816 0.9463 0
M  V30 6 C -2.2109 1.4035 -1.3404 0
M  V30 7 O -2.8095 0.9367 2.1918 0
M  V30 8 C -1.824 0.7343 -0.018 0
M  V30 9 O -1.3446 1.9621 -2.0651 0
M  V30 10 C -0.5574 1.4252 0.6032 0
M  V30 11 C -1.5959 -0.7829 -0.2937 0
M  V30 12 C 0.7791 1.2614 -0.1721 0
M  V30 13 C -1.431 -1.6482 0.963 0
M  V30 14 C 1.7678 0.3256 0.5391 0
M  V30 15 C 3.1046 0.2625 -0.2097 0
M  V30 16 C 4.0862 -0.6798 0.4961 0
M  V30 17 C 5.4176 -0.7457 -0.2463 0
M  V30 18 H -5.1423 0.7516 1.1391 0
M  V30 19 H -3.7747 1.6106 -2.8033 0
M  V30 20 H -0.7744 2.5141 0.6852 0
M  V30 21 H -0.4102 1.0862 1.6512 0
M  V30 22 H -0.7107 -0.9321 -0.9455 0
M  V30 23 H -2.4639 -1.189 -0.8598 0
M  V30 24 H 1.2532 2.2638 -0.2631 0
M  V30 25 H 0.6225 0.8888 -1.2035 0
M  V30 26 H -2.3938 -1.7259 1.5104 0
M  V30 27 H -0.6619 -1.238 1.6459 0
M  V30 28 H -1.1241 -2.673 0.6659 0
M  V30 29 H 1.9465 0.6919 1.5742 0
M  V30 30 H 1.3383 -0.696 0.5913 0
M  V30 31 H 3.5464 1.2822 -0.2614 0
M  V30 32 H 2.9286 -0.0999 -1.2468 0
M  V30 33 H 3.6529 -1.7024 0.5482 0
M  V30 34 H 4.2701 -0.3219 1.5328 0
M  V30 35 H 5.2651 -1.1252 -1.2791 0
M  V30 36 H 5.8851 0.2611 -0.2905 0
M  V30 37 H 6.1068 -1.4339 0.2866 0
M  V30 END ATOM
M  V30 BEGIN BOND
M  V30 1 2 1 2
M  V30 2 1 2 3
M  V30 3 1 2 4
M  V30 4 1 3 5
M  V30 5 1 4 6
M  V30 6 2 5 7
M  V30 7 1 5 8
M  V30 8 2 6 9
M  V30 9 1 8 10
M  V30 10 1 8 11
M  V30 11 1 10 12
M  V30 12 1 11 13
M  V30 13 1 12 14
M  V30 14 1 14 15
M  V30 15 1 15 16
M  V30 16 1 16 17
M  V30 17 1 6 8
M  V30 18 1 3 18
M  V30 19 1 4 19
M  V30 20 1 10 20
M  V30 21 1 10 21
M  V30 22 1 11 22
M  V30 23 1 11 23
M  V30 24 1 12 24
M  V30 25 1 12 25
M  V30 26 1 13 26
M  V30 27 1 13 27
M  V30 28 1 13 28
M  V30 29 1 14 29
M  V30 30 1 14 30
M  V30 31 1 15 31
M  V30 32 1 15 32
M  V30 33 1 16 33
M  V30 34 1 16 34
M  V30 35 1 17 35
M  V30 36 1 17 36
M  V30 37 1 17 37
M  V30 END BOND
M  V30 END CTAB
M  END
>  <Structure No>
6311

>  <LogS>
-3.05

>  <MMFF94 Energy>
-130.24

$$$$
Compound 6312
Actelion Java MolfileCreator 2.0

  0  0  0  0  0  0              0 V3000
M  V30 BEGIN CTAB
M  V30 COUNTS 32 33 0 0 0
M  V30 BEGIN ATOM
M  V30 1 O -4.6859 0.8067 0.2419 0
M  V30 2 C -3.5747 0.2374 0.0776 0
M  V30 3 N -2.618 0.211 1.1341 0
M  V30 4 N -3.2815 -0.4269 -1.1508 0
M  V30 5 C -1.3704 -0.4576 0.9319 0
M  V30 6 C -1.9775 -0.9748 -1.3865 0
M  V30 7 O -0.7772 -0.9463 1.9298 0
M  V30 8 C -0.8001 -0.5917 -0.4801 0
M  V30 9 O -1.7951 -1.675 -2.4201 0
M  V30 10 C -0.2607 0.7743 -1.0309 0
M  V30 11 C 0.2713 -1.7369 -0.5787 0
M  V30 12 C 0.3163 1.8044 -0.0369 0
M  V30 13 C 1.6237 -1.5772 0.1534 0
M  V30 14 C 1.4344 1.3425 0.905 0
M  V30 15 C 2.5773 -0.5562 -0.5014 0
M  V30 16 C 2.6997 0.7997 0.2223 0
M  V30 17 H -2.8854 0.5436 2.0879 0
M  V30 18 H -4.0287 -0.5329 -1.8736 0
M  V30 19 H 0.4482 0.6081 -1.8641 0
M  V30 20 H -1.0975 1.3219 -1.5226 0
M  V30 21 H -0.1975 -2.6739 -0.2022 0
M  V30 22 H 0.5115 -1.931 -1.6476 0
M  V30 23 H 0.6956 2.669 -0.6249 0
M  V30 24 H -0.5158 2.1966 0.5879 0
M  V30 25 H 1.5126 -1.4208 1.2415 0
M  V30 26 H 2.1226 -2.5693 0.0817 0
M  V30 27 H 1.0538 0.652 1.6739 0
M  V30 28 H 1.7464 2.2398 1.4836 0
M  V30 29 H 2.3384 -0.4079 -1.5731 0
M  V30 30 H 3.597 -1.0017 -0.5156 0
M  V30 31 H 3.4749 0.6923 1.013 0
M  V30 32 H 3.0824 1.5579 -0.4952 0
M  V30 END ATOM
M  V30 BEGIN BOND
M  V30 1 2 1 2
M  V30 2 1 2 3
M  V30 3 1 2 4
M  V30 4 1 3 5
M  V30 5 1 4 6
M  V30 6 2 5 7
M  V30 7 1 5 8
M  V30 8 2 6 9
M  V30 9 1 8 10
M  V30 10 1 8 11
M  V30 11 1 10 12
M  V30 12 1 11 13
M  V30 13 1 12 14
M  V30 14 1 13 15
M  V30 15 1 14 16
M  V30 16 1 6 8
M  V30 17 1 15 16
M  V30 18 1 3 17
M  V30 19 1 4 18
M  V30 20 1 10 19
M  V30 21 1 10 20
M  V30 22 1 11 21
M  V30 23 1 11 22
M  V30 24 1 12 23
M  V30 25 1 12 24
M  V30 26 1 13 25
M  V30 27 1 13 26
M  V30 28 1 14 27
M  V30 29 1 14 28
M  V30 30 1 15 29
M  V30 31 1 15 30
M  V30 32 1 16 31
M  V30 33 1 16 32
M  V30 END BOND
M  V30 END CTAB
M  END
>  <Structure No>
6312

>  <LogS>
-2.98

>  <MMFF94 Energy>
-111.59

$$$$
Compound 6313
Actelion Java MolfileCreator 2.0

  0  0  0  0  0  0              0 V3000
M  V30 BEGIN CTAB
M  V30 COUNTS 62 64 0 0 0
M  V30 BEGIN ATOM
M  V30 1 O -1.9928 -2.0726 1.1953 0
M  V30 2 C -1.4294 -1.0229 1.6071 0
M  V30 3 N -1.9535 0.2733 1.2694 0
M  V30 4 N -0.2547 -1.1177 2.4242 0
M  V30 5 C -3.1093 0.5215 0.3866 0
M  V30 6 C 0.3996 -2.3906 2.7256 0
M  V30 7 C -4.4021 -0.104 0.9816 0
M  V30 8 C -3.3286 2.0566 0.2516 0
M  V30 9 C -2.8541 -0.0601 -1.0323 0
M  V30 10 C 1.1148 -2.9575 1.4921 0
M  V30 11 C -5.6042 0.1871 0.0554 0 CFG=1
M  V30 12 C -4.5332 2.3512 -0.6678 0 CFG=2
M  V30 13 C -4.0647 0.2308 -1.9478 0 CFG=1
M  V30 14 C 2.201 -2.0064 0.9706 0
M  V30 15 C -5.8036 1.7126 -0.0676 0
M  V30 16 C -5.3337 -0.4112 -1.3434 0
M  V30 17 C -4.267 1.7563 -2.0667 0
M  V30 18 C 2.96 -2.6323 -0.2089 0
M  V30 19 C 3.9206 -1.6414 -0.8846 0
M  V30 20 C 5.1015 -1.2502 0.0207 0
M  V30 21 C 6.2074 -0.4911 -0.7346 0
M  V30 22 C 5.7604 0.835 -1.3767 0
M  V30 23 C 5.265 1.8611 -0.3475 0
M  V30 24 C 4.9927 3.2111 -1.0052 0
M  V30 25 H -1.4508 1.097 1.6722 0
M  V30 26 H 0.1423 -0.2459 2.8415 0
M  V30 27 H -0.3542 -3.121 3.0907 0
M  V30 28 H 1.1408 -2.2401 3.5407 0
M  V30 29 H -4.5963 0.3138 1.9942 0
M  V30 30 H -4.3001 -1.2029 1.0948 0
M  V30 31 H -2.4161 2.5376 -0.1662 0
M  V30 32 H -3.508 2.5072 1.2532 0
M  V30 33 H -2.6945 -1.1575 -0.9925 0
M  V30 34 H -1.9344 0.389 -1.4684 0
M  V30 35 H 0.3739 -3.1569 0.6884 0
M  V30 36 H 1.5801 -3.9273 1.7732 0
M  V30 37 H -6.5218 -0.2716 0.4844 0
M  V30 38 H -4.6759 3.4505 -0.7533 0
M  V30 39 H -3.8782 -0.1969 -2.957 0
M  V30 40 H 2.9122 -1.7845 1.7951 0
M  V30 41 H 1.7297 -1.0547 0.6411 0
M  V30 42 H -6.0136 2.1505 0.9329 0
M  V30 43 H -6.6809 1.9306 -0.7156 0
M  V30 44 H -5.2021 -1.5129 -1.2669 0
M  V30 45 H -6.2054 -0.2274 -2.0092 0
M  V30 46 H -3.3638 2.2262 -2.5143 0
M  V30 47 H -5.1235 1.9747 -2.7418 0
M  V30 48 H 3.5227 -3.5275 0.136 0
M  V30 49 H 2.2254 -2.97 -0.9728 0
M  V30 50 H 3.3535 -0.7345 -1.1858 0
M  V30 51 H 4.3142 -2.1189 -1.8085 0
M  V30 52 H 5.5552 -2.1732 0.4433 0
M  V30 53 H 4.7464 -0.6398 0.8764 0
M  V30 54 H 7.0414 -0.2857 -0.0285 0
M  V30 55 H 6.6142 -1.1502 -1.5321 0
M  V30 56 H 4.9727 0.6481 -2.137 0
M  V30 57 H 6.6366 1.2598 -1.9139 0
M  V30 58 H 4.3221 1.5058 0.1201 0
M  V30 59 H 6.0292 1.9964 0.4486 0
M  V30 60 H 4.6255 3.9292 -0.2423 0
M  V30 61 H 5.9236 3.6171 -1.4554 0
M  V30 62 H 4.2187 3.1056 -1.7951 0
M  V30 END ATOM
M  V30 BEGIN BOND
M  V30 1 2 1 2
M  V30 2 1 2 3
M  V30 3 1 2 4
M  V30 4 1 3 5
M  V30 5 1 4 6
M  V30 6 1 5 7
M  V30 7 1 5 8
M  V30 8 1 5 9
M  V30 9 1 6 10
M  V30 10 1 7 11
M  V30 11 1 8 12
M  V30 12 1 9 13
M  V30 13 1 10 14
M  V30 14 1 11 15
M  V30 15 1 11 16
M  V30 16 1 12 17
M  V30 17 1 14 18
M  V30 18 1 18 19
M  V30 19 1 19 20
M  V30 20 1 20 21
M  V30 21 1 21 22
M  V30 22 1 22 23
M  V30 23 1 23 24
M  V30 24 1 12 15
M  V30 25 1 13 16
M  V30 26 1 13 17
M  V30 27 1 3 25
M  V30 28 1 4 26
M  V30 29 1 6 27
M  V30 30 1 6 28
M  V30 31 1 7 29
M  V30 32 1 7 30
M  V30 33 1 8 31
M  V30 34 1 8 32
M  V30 35 1 9 33
M  V30 36 1 9 34
M  V30 37 1 10 35
M  V30 38 1 10 36
M  V30 39 1 11 37
M  V30 40 1 12 38
M  V30 41 1 13 39
M  V30 42 1 14 40
M  V30 43 1 14 41
M  V30 44 1 15 42
M  V30 45 1 15 43
M  V30 46 1 16 44
M  V30 47 1 16 45
M  V30 48 1 17 46
M  V30 49 1 17 47
M  V30 50 1 18 48
M  V30 51 1 18 49
M  V30 52 1 19 50
M  V30 53 1 19 51
M  V30 54 1 20 52
M  V30 55 1 20 53
M  V30 56 1 21 54
M  V30 57 1 21 55
M  V30 58 1 22 56
M  V30 59 1 22 57
M  V30 60 1 23 58
M  V30 61 1 23 59
M  V30 62 1 24 60
M  V30 63 1 24 61
M  V30 64 1 24 62
M  V30 END BOND
M  V30 BEGIN COLLECTION
M  V30 MDLV30/STEABS ATOMS=(3 11 12 13)
M  V30 END COLLECTION
M  V30 END CTAB
M  END
>  <Structure No>
6313

>  <LogS>
-5.83

>  <MMFF94 Energy>
-69.837

$$$$
Compound 6314
Actelion Java MolfileCreator 2.0

  0  0  0  0  0  0              0 V3000
M  V30 BEGIN CTAB
M  V30 COUNTS 32 32 0 0 0
M  V30 BEGIN ATOM
M  V30 1 O -3.4252 -2.9467 1.0345 0
M  V30 2 C -2.8799 -1.8645 0.6922 0
M  V30 3 N -2.7033 -1.5539 -0.6879 0
M  V30 4 N -2.4778 -0.9183 1.6802 0
M  V30 5 C -2.0368 -0.3454 -1.0689 0
M  V30 6 C -1.8073 0.2841 1.2874 0
M  V30 7 O -2.1774 0.0763 -2.2484 0
M  V30 8 C -1.1148 0.3699 -0.0764 0
M  V30 9 O -1.733 1.2344 2.1142 0
M  V30 10 C 0.2613 -0.3296 0.0348 0
M  V30 11 C -0.9235 1.871 -0.4834 0
M  V30 12 C 1.1085 0.0372 1.0337 0
M  V30 13 C 0.7155 -1.361 -0.9868 0
M  V30 14 C 0.0351 2.1056 -1.6611 0
M  V30 15 C 2.5028 -0.5055 1.2304 0
M  V30 16 C 3.5298 0.3829 0.5361 0
M  V30 17 H -3.1343 -2.1651 -1.4177 0
M  V30 18 H -2.7429 -1.0657 2.68 0
M  V30 19 H -1.9117 2.32 -0.7273 0
M  V30 20 H -0.5124 2.4528 0.37 0
M  V30 21 H 0.8084 0.8147 1.729 0
M  V30 22 H 1.7048 -1.082 -1.403 0
M  V30 23 H 0.7884 -2.357 -0.5021 0
M  V30 24 H 0.0377 -1.4535 -1.8555 0
M  V30 25 H 1.0748 1.8403 -1.3766 0
M  V30 26 H -0.251 1.5209 -2.5562 0
M  V30 27 H 0.0223 3.1819 -1.9336 0
M  V30 28 H 2.7245 -0.516 2.3191 0
M  V30 29 H 2.596 -1.5519 0.8724 0
M  V30 30 H 3.3427 0.4205 -0.5571 0
M  V30 31 H 3.4847 1.4145 0.9467 0
M  V30 32 H 4.5486 -0.0232 0.7079 0
M  V30 END ATOM
M  V30 BEGIN BOND
M  V30 1 2 1 2
M  V30 2 1 2 3
M  V30 3 1 2 4
M  V30 4 1 3 5
M  V30 5 1 4 6
M  V30 6 2 5 7
M  V30 7 1 5 8
M  V30 8 2 6 9
M  V30 9 1 8 10
M  V30 10 1 8 11
M  V30 11 2 10 12
M  V30 12 1 10 13
M  V30 13 1 11 14
M  V30 14 1 12 15
M  V30 15 1 15 16
M  V30 16 1 6 8
M  V30 17 1 3 17
M  V30 18 1 4 18
M  V30 19 1 11 19
M  V30 20 1 11 20
M  V30 21 1 12 21
M  V30 22 1 13 22
M  V30 23 1 13 23
M  V30 24 1 13 24
M  V30 25 1 14 25
M  V30 26 1 14 26
M  V30 27 1 14 27
M  V30 28 1 15 28
M  V30 29 1 15 29
M  V30 30 1 16 30
M  V30 31 1 16 31
M  V30 32 1 16 32
M  V30 END BOND
M  V30 END CTAB
M  END
>  <Structure No>
6314

>  <LogS>
-2.31

>  <MMFF94 Energy>
-80.241

$$$$
Compound 6315
Actelion Java MolfileCreator 2.0

  0  0  0  0  0  0              0 V3000
M  V30 BEGIN CTAB
M  V30 COUNTS 16 17 0 0 0
M  V30 BEGIN ATOM
M  V30 1 N -1.4949 -1.2587 0.2359 0
M  V30 2 C -0.2853 -0.6799 0.1625 0
M  V30 3 C -2.3812 -0.313 -0.1524 0
M  V30 4 C -0.3917 0.6168 -0.2661 0
M  V30 5 C 0.9494 -1.2533 0.4635 0
M  V30 6 C -1.7293 0.8735 -0.4744 0
M  V30 7 C 0.7259 1.4337 -0.425 0
M  V30 8 C 2.0981 -0.4541 0.3132 0
M  V30 9 C 1.9868 0.8834 -0.129 0
M  V30 10 H -1.7112 -2.2366 0.5314 0
M  V30 11 H -3.4504 -0.4723 -0.2012 0
M  V30 12 H 1.0237 -2.2788 0.8016 0
M  V30 13 H -2.178 1.7974 -0.8148 0
M  V30 14 H 0.6292 2.4571 -0.7644 0
M  V30 15 H 3.073 -0.867 0.538 0
M  V30 16 H 2.8769 1.4888 -0.2409 0
M  V30 END ATOM
M  V30 BEGIN BOND
M  V30 1 1 1 2
M  V30 2 1 1 3
M  V30 3 2 2 4
M  V30 4 1 2 5
M  V30 5 2 3 6
M  V30 6 1 4 7
M  V30 7 2 5 8
M  V30 8 2 7 9
M  V30 9 1 4 6
M  V30 10 1 8 9
M  V30 11 1 1 10
M  V30 12 1 3 11
M  V30 13 1 5 12
M  V30 14 1 6 13
M  V30 15 1 7 14
M  V30 16 1 8 15
M  V30 17 1 9 16
M  V30 END BOND
M  V30 END CTAB
M  END
>  <Structure No>
6315

>  <LogS>
-1.21

>  <MMFF94 Energy>
15.112

$$$$
Compound 6316
Actelion Java MolfileCreator 2.0

  0  0  0  0  0  0              0 V3000
M  V30 BEGIN CTAB
M  V30 COUNTS 32 32 0 0 0
M  V30 BEGIN ATOM
M  V30 1 O -2.0704 -3.9846 1.5127 0
M  V30 2 C -1.5429 -2.9329 1.0635 0
M  V30 3 N -0.555 -3.0105 0.0439 0
M  V30 4 N -1.9188 -1.667 1.5891 0
M  V30 5 C 0.0076 -1.8337 -0.5435 0
M  V30 6 C -1.3186 -0.4613 1.1108 0
M  V30 7 O 0.8585 -1.9797 -1.4611 0
M  V30 8 C -0.4746 -0.4269 -0.171 0
M  V30 9 O -1.5408 0.6071 1.744 0
M  V30 10 C 0.7613 0.5433 0.0563 0 CFG=1
M  V30 11 C -1.4116 0.0441 -1.3272 0
M  V30 12 C 1.6966 0.0246 1.1866 0
M  V30 13 C 1.5887 0.8514 -1.2149 0
M  V30 14 C -1.8778 1.4767 -1.1997 0
M  V30 15 C 2.691 1.0803 1.6739 0
M  V30 16 C -1.6348 2.3895 -2.1447 0
M  V30 17 H -0.2449 -3.9494 -0.2939 0
M  V30 18 H -2.5959 -1.6236 2.3839 0
M  V30 19 H 0.3546 1.5243 0.3893 0
M  V30 20 H -2.3191 -0.5992 -1.3449 0
M  V30 21 H -0.9243 -0.1168 -2.3137 0
M  V30 22 H 2.2605 -0.868 0.8393 0
M  V30 23 H 1.0983 -0.2895 2.0672 0
M  V30 24 H 2.2139 1.753 -1.0472 0
M  V30 25 H 0.9521 1.082 -2.0876 0
M  V30 26 H 2.271 0.0173 -1.4754 0
M  V30 27 H -2.4612 1.7712 -0.3338 0
M  V30 28 H 2.1598 2.0114 1.9639 0
M  V30 29 H 3.2333 0.6936 2.5624 0
M  V30 30 H 3.4411 1.3085 0.8892 0
M  V30 31 H -2.0002 3.404 -2.024 0
M  V30 32 H -1.0792 2.1385 -3.0426 0
M  V30 END ATOM
M  V30 BEGIN BOND
M  V30 1 2 1 2
M  V30 2 1 2 3
M  V30 3 1 2 4
M  V30 4 1 3 5
M  V30 5 1 4 6
M  V30 6 2 5 7
M  V30 7 1 5 8
M  V30 8 2 6 9
M  V30 9 1 8 10
M  V30 10 1 8 11
M  V30 11 1 10 12
M  V30 12 1 10 13
M  V30 13 1 11 14
M  V30 14 1 12 15
M  V30 15 2 14 16
M  V30 16 1 6 8
M  V30 17 1 3 17
M  V30 18 1 4 18
M  V30 19 1 10 19
M  V30 20 1 11 20
M  V30 21 1 11 21
M  V30 22 1 12 22
M  V30 23 1 12 23
M  V30 24 1 13 24
M  V30 25 1 13 25
M  V30 26 1 13 26
M  V30 27 1 14 27
M  V30 28 1 15 28
M  V30 29 1 15 29
M  V30 30 1 15 30
M  V30 31 1 16 31
M  V30 32 1 16 32
M  V30 END BOND
M  V30 BEGIN COLLECTION
M  V30 MDLV30/STEABS ATOMS=(1 10)
M  V30 END COLLECTION
M  V30 END CTAB
M  END
>  <Structure No>
6316

>  <LogS>
-2.02

>  <MMFF94 Energy>
-108.02

$$$$
Compound 6317
Actelion Java MolfileCreator 2.0

  0  0  0  0  0  0              0 V3000
M  V30 BEGIN CTAB
M  V30 COUNTS 51 54 0 0 0
M  V30 BEGIN ATOM
M  V30 1 O -6.0003 0.2427 -0.0809 0
M  V30 2 C -4.7837 0.3265 -0.1473 0
M  V30 3 C -3.9856 -0.8094 -0.7221 0
M  V30 4 C -4.0865 1.5754 0.3138 0
M  V30 5 C -2.4854 -0.453 -0.7558 0 CFG=1
M  V30 6 C -2.8853 1.2145 1.2002 0
M  V30 7 C -1.9377 0.0879 0.6168 0 CFG=2
M  V30 8 C -1.636 -1.6237 -1.3122 0
M  V30 9 C -0.4806 0.6835 0.3631 0 CFG=2
M  V30 10 C -1.9206 -1.0787 1.6549 0
M  V30 11 C -0.1107 -1.4147 -1.1455 0
M  V30 12 C 0.241 0.0667 -0.8955 0 CFG=2
M  V30 13 C 0.3988 0.7558 1.6597 0
M  V30 14 C 1.7352 0.4679 -0.9442 0 CFG=1
M  V30 15 C 1.8588 1.1955 1.4228 0
M  V30 16 C 2.5339 0.3147 0.3508 0 CFG=2
M  V30 17 C 2.6438 -0.0607 -2.0462 0
M  V30 18 C 3.9123 0.8356 -0.1169 0 CFG=2
M  V30 19 C 2.6772 -1.1564 0.8476 0
M  V30 20 C 4.057 0.3173 -1.5672 0
M  V30 21 O 4.9633 0.3869 0.7004 0
M  V30 22 H -4.3387 -1.0048 -1.7581 0
M  V30 23 H -4.1674 -1.728 -0.1267 0
M  V30 24 H -4.7886 2.2213 0.8855 0
M  V30 25 H -3.7408 2.1504 -0.5717 0
M  V30 26 H -2.4031 0.3738 -1.498 0
M  V30 27 H -3.3018 0.9145 2.188 0
M  V30 28 H -2.3281 2.1516 1.4135 0
M  V30 29 H -1.8698 -1.7404 -2.3935 0
M  V30 30 H -1.9262 -2.5771 -0.8185 0
M  V30 31 H -0.6156 1.7497 0.0688 0
M  V30 32 H -2.9119 -1.5683 1.7291 0
M  V30 33 H -1.6953 -0.7045 2.6763 0
M  V30 34 H -1.1725 -1.8556 1.4088 0
M  V30 35 H 0.2559 -2.0606 -0.3315 0
M  V30 36 H 0.3824 -1.7676 -2.075 0
M  V30 37 H -0.1838 0.5851 -1.7873 0
M  V30 38 H -0.0685 1.4751 2.3666 0
M  V30 39 H 0.4286 -0.2122 2.1897 0
M  V30 40 H 1.6877 1.5689 -1.1506 0
M  V30 41 H 1.8641 2.2641 1.1128 0
M  V30 42 H 2.4249 1.128 2.3774 0
M  V30 43 H 2.5652 -1.1634 -2.1424 0
M  V30 44 H 2.4064 0.411 -3.0247 0
M  V30 45 H 3.9047 1.9523 -0.1319 0
M  V30 46 H 3.1336 -1.8094 0.0754 0
M  V30 47 H 1.7212 -1.6106 1.1497 0
M  V30 48 H 3.3256 -1.1926 1.7484 0
M  V30 49 H 4.4903 1.1102 -2.215 0
M  V30 50 H 4.7192 -0.5754 -1.6055 0
M  V30 51 H 5.7761 0.8753 0.4069 0
M  V30 END ATOM
M  V30 BEGIN BOND
M  V30 1 2 1 2
M  V30 2 1 2 3
M  V30 3 1 2 4
M  V30 4 1 3 5
M  V30 5 1 4 6
M  V30 6 1 5 7
M  V30 7 1 5 8
M  V30 8 1 7 9
M  V30 9 1 7 10
M  V30 10 1 8 11
M  V30 11 1 9 12
M  V30 12 1 9 13
M  V30 13 1 12 14
M  V30 14 1 13 15
M  V30 15 1 14 16
M  V30 16 1 14 17
M  V30 17 1 16 18
M  V30 18 1 16 19
M  V30 19 1 17 20
M  V30 20 1 18 21
M  V30 21 1 6 7
M  V30 22 1 11 12
M  V30 23 1 15 16
M  V30 24 1 18 20
M  V30 25 1 3 22
M  V30 26 1 3 23
M  V30 27 1 4 24
M  V30 28 1 4 25
M  V30 29 1 5 26
M  V30 30 1 6 27
M  V30 31 1 6 28
M  V30 32 1 8 29
M  V30 33 1 8 30
M  V30 34 1 9 31
M  V30 35 1 10 32
M  V30 36 1 10 33
M  V30 37 1 10 34
M  V30 38 1 11 35
M  V30 39 1 11 36
M  V30 40 1 12 37
M  V30 41 1 13 38
M  V30 42 1 13 39
M  V30 43 1 14 40
M  V30 44 1 15 41
M  V30 45 1 15 42
M  V30 46 1 17 43
M  V30 47 1 17 44
M  V30 48 1 18 45
M  V30 49 1 19 46
M  V30 50 1 19 47
M  V30 51 1 19 48
M  V30 52 1 20 49
M  V30 53 1 20 50
M  V30 54 1 21 51
M  V30 END BOND
M  V30 BEGIN COLLECTION
M  V30 MDLV30/STEABS ATOMS=(7 5 7 9 12 14 16 18)
M  V30 END COLLECTION
M  V30 END CTAB
M  END
>  <Structure No>
6317

>  <LogS>
-4.74

>  <MMFF94 Energy>
85.518

$$$$
Compound 6318
Actelion Java MolfileCreator 2.0

  0  0  0  0  0  0              0 V3000
M  V30 BEGIN CTAB
M  V30 COUNTS 20 20 0 0 0
M  V30 BEGIN ATOM
M  V30 1 O -1.6514 1.8088 -0.3143 0
M  V30 2 C -2.1157 0.6567 -0.099 0
M  V30 3 N -1.2558 -0.4126 0.3244 0
M  V30 4 C -3.5899 0.4327 -0.1913 0
M  V30 5 C 0.1805 -0.3619 0.2734 0
M  V30 6 C 0.8562 0.3149 -0.7594 0
M  V30 7 C 0.9273 -1.0516 1.2411 0
M  V30 8 C 2.2583 0.3288 -0.7988 0
M  V30 9 C 2.3244 -1.035 1.2017 0
M  V30 10 O 2.9335 1.0015 -1.815 0
M  V30 11 C 2.9885 -0.3423 0.1867 0
M  V30 12 H -1.7026 -1.2445 0.7733 0
M  V30 13 H -3.794 -0.578 -0.6026 0
M  V30 14 H -4.04 0.5138 0.8199 0
M  V30 15 H -4.0546 1.1888 -0.8593 0
M  V30 16 H 0.3023 0.808 -1.5472 0
M  V30 17 H 0.4248 -1.5937 2.0325 0
M  V30 18 H 2.8926 -1.561 1.958 0
M  V30 19 H 2.4346 1.4969 -2.545 0
M  V30 20 H 4.0709 -0.334 0.1605 0
M  V30 END ATOM
M  V30 BEGIN BOND
M  V30 1 2 1 2
M  V30 2 1 2 3
M  V30 3 1 2 4
M  V30 4 1 3 5
M  V30 5 2 5 6
M  V30 6 1 5 7
M  V30 7 1 6 8
M  V30 8 2 7 9
M  V30 9 1 8 10
M  V30 10 2 8 11
M  V30 11 1 9 11
M  V30 12 1 3 12
M  V30 13 1 4 13
M  V30 14 1 4 14
M  V30 15 1 4 15
M  V30 16 1 6 16
M  V30 17 1 7 17
M  V30 18 1 9 18
M  V30 19 1 10 19
M  V30 20 1 11 20
M  V30 END BOND
M  V30 END CTAB
M  END
>  <Structure No>
6318

>  <LogS>
-1.06

>  <MMFF94 Energy>
-9.3195

$$$$
Compound 6319
Actelion Java MolfileCreator 2.0

  0  0  0  0  0  0              0 V3000
M  V30 BEGIN CTAB
M  V30 COUNTS 40 40 0 0 0
M  V30 BEGIN ATOM
M  V30 1 O -3.8899 3.6514 0.1585 0
M  V30 2 C -3.4934 2.4589 0.0749 0
M  V30 3 N -3.723 1.5535 1.1505 0
M  V30 4 N -2.8395 2.0057 -1.106 0
M  V30 5 C -3.2232 0.2136 1.1079 0
M  V30 6 C -2.3767 0.6573 -1.2168 0
M  V30 7 O -3.5067 -0.5678 2.0571 0
M  V30 8 C -2.2684 -0.2474 0.009 0
M  V30 9 O -1.999 0.2388 -2.3452 0
M  V30 10 C -0.8338 -0.1388 0.6081 0
M  V30 11 C -2.5957 -1.7251 -0.3793 0
M  V30 12 C 0.3152 -0.5571 -0.3303 0
M  V30 13 C -4.0365 -1.9344 -0.8637 0
M  V30 14 C 1.6748 -0.3674 0.3545 0
M  V30 15 C 2.8245 -0.7683 -0.5816 0
M  V30 16 C 4.1961 -0.7642 0.1172 0
M  V30 17 C 4.6513 0.6096 0.6407 0
M  V30 18 C 4.8165 1.6476 -0.4685 0
M  V30 19 H -4.2755 1.8706 1.979 0
M  V30 20 H -2.7546 2.6488 -1.9252 0
M  V30 21 H -0.7753 -0.7656 1.5265 0
M  V30 22 H -0.6591 0.9149 0.9238 0
M  V30 23 H -2.4171 -2.3939 0.4911 0
M  V30 24 H -1.9226 -2.0708 -1.1916 0
M  V30 25 H 0.2078 -1.6261 -0.6082 0
M  V30 26 H 0.2972 0.0597 -1.2531 0
M  V30 27 H -4.7655 -1.7011 -0.0602 0
M  V30 28 H -4.1752 -2.9965 -1.1561 0
M  V30 29 H -4.2524 -1.2994 -1.748 0
M  V30 30 H 1.7846 0.7004 0.6405 0
M  V30 31 H 1.7129 -0.9899 1.2755 0
M  V30 32 H 2.8426 -0.101 -1.4693 0
M  V30 33 H 2.6412 -1.8 -0.9538 0
M  V30 34 H 4.9578 -1.146 -0.597 0
M  V30 35 H 4.1679 -1.4766 0.9702 0
M  V30 36 H 3.9461 0.9901 1.4089 0
M  V30 37 H 5.6348 0.4782 1.1415 0
M  V30 38 H 5.2957 2.5588 -0.0525 0
M  V30 39 H 3.8288 1.9381 -0.8828 0
M  V30 40 H 5.4595 1.2495 -1.2818 0
M  V30 END ATOM
M  V30 BEGIN BOND
M  V30 1 2 1 2
M  V30 2 1 2 3
M  V30 3 1 2 4
M  V30 4 1 3 5
M  V30 5 1 4 6
M  V30 6 2 5 7
M  V30 7 1 5 8
M  V30 8 2 6 9
M  V30 9 1 8 10
M  V30 10 1 8 11
M  V30 11 1 10 12
M  V30 12 1 11 13
M  V30 13 1 12 14
M  V30 14 1 14 15
M  V30 15 1 15 16
M  V30 16 1 16 17
M  V30 17 1 17 18
M  V30 18 1 6 8
M  V30 19 1 3 19
M  V30 20 1 4 20
M  V30 21 1 10 21
M  V30 22 1 10 22
M  V30 23 1 11 23
M  V30 24 1 11 24
M  V30 25 1 12 25
M  V30 26 1 12 26
M  V30 27 1 13 27
M  V30 28 1 13 28
M  V30 29 1 13 29
M  V30 30 1 14 30
M  V30 31 1 14 31
M  V30 32 1 15 32
M  V30 33 1 15 33
M  V30 34 1 16 34
M  V30 35 1 16 35
M  V30 36 1 17 36
M  V30 37 1 17 37
M  V30 38 1 18 38
M  V30 39 1 18 39
M  V30 40 1 18 40
M  V30 END BOND
M  V30 END CTAB
M  END
>  <Structure No>
6319

>  <LogS>
-3.43

>  <MMFF94 Energy>
-126.12

$$$$
Compound 6320
Actelion Java MolfileCreator 2.0

  0  0  0  0  0  0              0 V3000
M  V30 BEGIN CTAB
M  V30 COUNTS 18 18 0 0 0
M  V30 BEGIN ATOM
M  V30 1 O 4.0847 -0.3999 0.4799 0
M  V30 2 C 3.1126 -0.6033 -0.2952 0
M  V30 3 O 3.3499 -1.1883 -1.5338 0 CHG=-1
M  V30 4 C 1.7389 -0.2261 0.1052 0
M  V30 5 C 0.6573 -0.4556 -0.7639 0
M  V30 6 C 1.4945 0.3656 1.3569 0
M  V30 7 C -0.6477 -0.103 -0.3964 0
M  V30 8 C 0.1956 0.7195 1.7292 0
M  V30 9 O -1.6864 -0.3561 -1.3048 0
M  V30 10 C -0.8729 0.4883 0.8605 0
M  V30 11 C -3.0565 -0.0509 -1.065 0
M  V30 12 H 0.8208 -0.9102 -1.7332 0
M  V30 13 H 2.3059 0.5553 2.0485 0
M  V30 14 H 0.0166 1.1746 2.695 0
M  V30 15 H -1.868 0.7724 1.175 0
M  V30 16 H -3.4223 -0.6082 -0.1767 0
M  V30 17 H -3.1829 1.0415 -0.9101 0
M  V30 18 H -3.6558 -0.356 -1.9472 0
M  V30 END ATOM
M  V30 BEGIN BOND
M  V30 1 2 1 2
M  V30 2 1 2 3
M  V30 3 1 2 4
M  V30 4 2 4 5
M  V30 5 1 4 6
M  V30 6 1 5 7
M  V30 7 2 6 8
M  V30 8 1 7 9
M  V30 9 2 7 10
M  V30 10 1 9 11
M  V30 11 1 8 10
M  V30 12 1 5 12
M  V30 13 1 6 13
M  V30 14 1 8 14
M  V30 15 1 10 15
M  V30 16 1 11 16
M  V30 17 1 11 17
M  V30 18 1 11 18
M  V30 END BOND
M  V30 END CTAB
M  END
>  <Structure No>
6320

>  <LogS>
-1.93

>  <MMFF94 Energy>
38.785

$$$$
Compound 6321
Actelion Java MolfileCreator 2.0

  0  0  0  0  0  0              0 V3000
M  V30 BEGIN CTAB
M  V30 COUNTS 20 20 0 0 0
M  V30 BEGIN ATOM
M  V30 1 O 2.0451 1.4155 -0.7075 0
M  V30 2 C 2.2358 0.3602 -0.0448 0
M  V30 3 N 1.1303 -0.4678 0.3476 0
M  V30 4 C 3.6337 -0.0765 0.25 0
M  V30 5 C -0.2472 -0.06 0.2647 0
M  V30 6 C -1.241 -1.0087 -0.0436 0
M  V30 7 C -0.6277 1.2663 0.5439 0
M  V30 8 O -0.8852 -2.3315 -0.3041 0
M  V30 9 C -2.5881 -0.6208 -0.0985 0
M  V30 10 C -1.9721 1.6439 0.4857 0
M  V30 11 C -2.9506 0.7026 0.1614 0
M  V30 12 H 1.341 -1.4478 0.6435 0
M  V30 13 H 3.6814 -0.535 1.2601 0
M  V30 14 H 4.3247 0.7925 0.2211 0
M  V30 15 H 3.9546 -0.8229 -0.5059 0
M  V30 16 H 0.1089 2.0045 0.8317 0
M  V30 17 H -1.5799 -3.0333 -0.5314 0
M  V30 18 H -3.3546 -1.3454 -0.3423 0
M  V30 19 H -2.2564 2.6657 0.7015 0
M  V30 20 H -3.9915 0.9969 0.1192 0
M  V30 END ATOM
M  V30 BEGIN BOND
M  V30 1 2 1 2
M  V30 2 1 2 3
M  V30 3 1 2 4
M  V30 4 1 3 5
M  V30 5 2 5 6
M  V30 6 1 5 7
M  V30 7 1 6 8
M  V30 8 1 6 9
M  V30 9 2 7 10
M  V30 10 2 9 11
M  V30 11 1 10 11
M  V30 12 1 3 12
M  V30 13 1 4 13
M  V30 14 1 4 14
M  V30 15 1 4 15
M  V30 16 1 7 16
M  V30 17 1 8 17
M  V30 18 1 9 18
M  V30 19 1 10 19
M  V30 20 1 11 20
M  V30 END BOND
M  V30 END CTAB
M  END
>  <Structure No>
6321

>  <LogS>
-2.13

>  <MMFF94 Energy>
-0.89159

$$$$
Compound 6322
Actelion Java MolfileCreator 2.0

  0  0  0  0  0  0              0 V3000
M  V30 BEGIN CTAB
M  V30 COUNTS 18 18 0 0 0
M  V30 BEGIN ATOM
M  V30 1 O 0.24 2.9639 -0.24 0
M  V30 2 C -0.8484 2.3307 -0.226 0
M  V30 3 O -2.036 3.0469 -0.3276 0 CHG=-1
M  V30 4 C -0.875 0.8495 -0.1039 0
M  V30 5 C 0.3131 0.0827 0.0019 0
M  V30 6 C -2.119 0.1897 -0.0933 0
M  V30 7 O 1.5599 0.7311 -0.0075 0
M  V30 8 C 0.2208 -1.3202 0.1151 0
M  V30 9 C -2.1897 -1.1992 0.0194 0
M  V30 10 C 2.8189 0.073 0.0919 0
M  V30 11 C -1.0228 -1.952 0.1235 0
M  V30 12 H -3.0439 0.7472 -0.1724 0
M  V30 13 H 1.1069 -1.934 0.1976 0
M  V30 14 H -3.153 -1.6927 0.0262 0
M  V30 15 H 2.8882 -0.4759 1.0546 0
M  V30 16 H 3.6275 0.8315 0.0576 0
M  V30 17 H 2.9526 -0.6266 -0.7599 0
M  V30 18 H -1.0815 -3.0293 0.2109 0
M  V30 END ATOM
M  V30 BEGIN BOND
M  V30 1 2 1 2
M  V30 2 1 2 3
M  V30 3 1 2 4
M  V30 4 2 4 5
M  V30 5 1 4 6
M  V30 6 1 5 7
M  V30 7 1 5 8
M  V30 8 2 6 9
M  V30 9 1 7 10
M  V30 10 2 8 11
M  V30 11 1 9 11
M  V30 12 1 6 12
M  V30 13 1 8 13
M  V30 14 1 9 14
M  V30 15 1 10 15
M  V30 16 1 10 16
M  V30 17 1 10 17
M  V30 18 1 11 18
M  V30 END BOND
M  V30 END CTAB
M  END
>  <Structure No>
6322

>  <LogS>
-1.6

>  <MMFF94 Energy>
47.229

$$$$
Compound 6323
Actelion Java MolfileCreator 2.0

  0  0  0  0  0  0              0 V3000
M  V30 BEGIN CTAB
M  V30 COUNTS 35 35 0 0 0
M  V30 BEGIN ATOM
M  V30 1 O -2.3064 1.5901 3.8994 0
M  V30 2 C -1.7259 1.1595 2.8681 0
M  V30 3 N -1.5254 2.0185 1.7481 0
M  V30 4 N -1.2318 -0.1771 2.8303 0
M  V30 5 C -0.9076 1.5243 0.5558 0
M  V30 6 C -0.6118 -0.6883 1.6463 0
M  V30 7 O -0.5265 2.3506 -0.318 0
M  V30 8 C -0.7897 0.0199 0.3016 0
M  V30 9 O 0.0251 -1.7753 1.7152 0
M  V30 10 C -2.1362 -0.4817 -0.3512 0
M  V30 11 C 0.4459 -0.2667 -0.6155 0
M  V30 12 C -2.4951 0.2265 -1.6738 0
M  V30 13 C -2.1964 -2.0071 -0.5729 0
M  V30 14 C 1.7574 0.2035 -0.017 0
M  V30 15 C 2.9468 0.0565 -0.6379 0
M  V30 16 C 4.1891 0.5613 0.0492 0
M  V30 17 C 3.0548 -0.5976 -1.9949 0
M  V30 18 H -1.7738 3.0308 1.8222 0
M  V30 19 H -1.2662 -0.7655 3.6931 0
M  V30 20 H -2.9582 -0.2405 0.3611 0
M  V30 21 H 0.5289 -1.356 -0.8093 0
M  V30 22 H 0.3158 0.2379 -1.5948 0
M  V30 23 H -2.5523 1.3258 -1.5423 0
M  V30 24 H -1.7638 -0.0127 -2.4727 0
M  V30 25 H -3.4968 -0.107 -2.0202 0
M  V30 26 H -3.2042 -2.2947 -0.942 0
M  V30 27 H -2.0325 -2.5609 0.373 0
M  V30 28 H -1.453 -2.3362 -1.3276 0
M  V30 29 H 1.7393 0.6823 0.9594 0
M  V30 30 H 4.1006 1.6539 0.2289 0
M  V30 31 H 4.316 0.0425 1.023 0
M  V30 32 H 5.0981 0.382 -0.5613 0
M  V30 33 H 4.1063 -0.6311 -2.3481 0
M  V30 34 H 2.4625 -0.0263 -2.7401 0
M  V30 35 H 2.6784 -1.6408 -1.9445 0
M  V30 END ATOM
M  V30 BEGIN BOND
M  V30 1 2 1 2
M  V30 2 1 2 3
M  V30 3 1 2 4
M  V30 4 1 3 5
M  V30 5 1 4 6
M  V30 6 2 5 7
M  V30 7 1 5 8
M  V30 8 2 6 9
M  V30 9 1 8 10
M  V30 10 1 8 11
M  V30 11 1 10 12
M  V30 12 1 10 13
M  V30 13 1 11 14
M  V30 14 2 14 15
M  V30 15 1 15 16
M  V30 16 1 15 17
M  V30 17 1 6 8
M  V30 18 1 3 18
M  V30 19 1 4 19
M  V30 20 1 10 20
M  V30 21 1 11 21
M  V30 22 1 11 22
M  V30 23 1 12 23
M  V30 24 1 12 24
M  V30 25 1 12 25
M  V30 26 1 13 26
M  V30 27 1 13 27
M  V30 28 1 13 28
M  V30 29 1 14 29
M  V30 30 1 16 30
M  V30 31 1 16 31
M  V30 32 1 16 32
M  V30 33 1 17 33
M  V30 34 1 17 34
M  V30 35 1 17 35
M  V30 END BOND
M  V30 END CTAB
M  END
>  <Structure No>
6323

>  <LogS>
-2.59

>  <MMFF94 Energy>
-114.28

$$$$
Compound 6324
Actelion Java MolfileCreator 2.0

  0  0  0  0  0  0              0 V3000
M  V30 BEGIN CTAB
M  V30 COUNTS 18 18 0 0 0
M  V30 BEGIN ATOM
M  V30 1 O 3.3641 -0.56 0.9603 0
M  V30 2 C 2.3747 -1.097 0.3966 0
M  V30 3 O 2.4155 -2.4579 0.1169 0 CHG=-1
M  V30 4 C 1.1536 -0.3161 0.0981 0
M  V30 5 C 1.1867 1.062 -0.2345 0
M  V30 6 C -0.091 -0.9663 0.184 0
M  V30 7 O 2.379 1.7609 -0.4358 0
M  V30 8 C -0.0131 1.7619 -0.4036 0
M  V30 9 C -1.2866 -0.2643 -0.0261 0
M  V30 10 C -1.2408 1.1085 -0.2948 0
M  V30 11 C -2.6073 -0.9608 0.1209 0
M  V30 12 H -0.135 -2.0184 0.441 0
M  V30 13 H 3.283 1.3147 -0.5046 0
M  V30 14 H 0.0076 2.8183 -0.6406 0
M  V30 15 H -2.1557 1.672 -0.431 0
M  V30 16 H -2.9313 -0.9175 1.1817 0
M  V30 17 H -2.5256 -2.0239 -0.1901 0
M  V30 18 H -3.3797 -0.4766 -0.5138 0
M  V30 END ATOM
M  V30 BEGIN BOND
M  V30 1 2 1 2
M  V30 2 1 2 3
M  V30 3 1 2 4
M  V30 4 2 4 5
M  V30 5 1 4 6
M  V30 6 1 5 7
M  V30 7 1 5 8
M  V30 8 2 6 9
M  V30 9 2 8 10
M  V30 10 1 9 11
M  V30 11 1 9 10
M  V30 12 1 6 12
M  V30 13 1 7 13
M  V30 14 1 8 14
M  V30 15 1 10 15
M  V30 16 1 11 16
M  V30 17 1 11 17
M  V30 18 1 11 18
M  V30 END BOND
M  V30 END CTAB
M  END
>  <Structure No>
6324

>  <LogS>
-2.76

>  <MMFF94 Energy>
15.091

$$$$
Compound 6325
Actelion Java MolfileCreator 2.0

  0  0  0  0  0  0              0 V3000
M  V30 BEGIN CTAB
M  V30 COUNTS 43 43 0 0 0
M  V30 BEGIN ATOM
M  V30 1 O -2.2994 1.9027 -3.2521 0
M  V30 2 C -2.3216 1.2914 -2.151 0
M  V30 3 N -2.3666 2.0229 -0.9307 0
M  V30 4 N -2.2817 -0.1308 -2.1252 0
M  V30 5 C -2.4563 1.3573 0.3321 0
M  V30 6 C -2.2849 -0.8481 -0.8882 0
M  V30 7 O -2.4933 2.0574 1.3814 0
M  V30 8 C -2.6031 -0.1586 0.4378 0
M  V30 9 O -2.0588 -2.0888 -0.9129 0
M  V30 10 C -1.6686 -0.6992 1.5751 0
M  V30 11 C -4.099 -0.4215 0.7923 0
M  V30 12 C -0.2045 -0.1984 1.5669 0
M  V30 13 C -4.485 -1.8909 1.0015 0
M  V30 14 C 0.6041 -0.6622 0.3479 0
M  V30 15 C 2.0921 -0.333 0.5159 0
M  V30 16 C 2.8976 -0.7806 -0.7131 0
M  V30 17 C 4.3901 -0.4058 -0.6012 0
M  V30 18 C 4.7756 0.836 -1.4225 0
M  V30 19 C 4.137 2.1212 -0.9002 0
M  V30 20 H -2.3393 3.0671 -0.9591 0
M  V30 21 H -2.1834 -0.6563 -3.023 0
M  V30 22 H -2.1005 -0.4041 2.5573 0
M  V30 23 H -1.6538 -1.8103 1.5737 0
M  V30 24 H -4.3631 0.1275 1.7239 0
M  V30 25 H -4.7454 -0.0105 -0.0154 0
M  V30 26 H -0.1668 0.9086 1.6393 0
M  V30 27 H 0.2828 -0.5937 2.4853 0
M  V30 28 H -5.5582 -1.9468 1.2818 0
M  V30 29 H -4.3523 -2.4769 0.0699 0
M  V30 30 H -3.898 -2.3481 1.8236 0
M  V30 31 H 0.4843 -1.7597 0.2159 0
M  V30 32 H 0.2324 -0.1418 -0.5593 0
M  V30 33 H 2.2076 0.7601 0.6702 0
M  V30 34 H 2.4849 -0.8544 1.4166 0
M  V30 35 H 2.8153 -1.8869 -0.796 0
M  V30 36 H 2.4541 -0.3514 -1.6386 0
M  V30 37 H 4.9907 -1.2568 -0.9908 0
M  V30 38 H 4.6938 -0.2676 0.4599 0
M  V30 39 H 5.8803 0.9533 -1.381 0
M  V30 40 H 4.4952 0.6892 -2.4882 0
M  V30 41 H 3.0428 2.1145 -1.0852 0
M  V30 42 H 4.5702 2.9924 -1.4354 0
M  V30 43 H 4.3335 2.2406 0.1865 0
M  V30 END ATOM
M  V30 BEGIN BOND
M  V30 1 2 1 2
M  V30 2 1 2 3
M  V30 3 1 2 4
M  V30 4 1 3 5
M  V30 5 1 4 6
M  V30 6 2 5 7
M  V30 7 1 5 8
M  V30 8 2 6 9
M  V30 9 1 8 10
M  V30 10 1 8 11
M  V30 11 1 10 12
M  V30 12 1 11 13
M  V30 13 1 12 14
M  V30 14 1 14 15
M  V30 15 1 15 16
M  V30 16 1 16 17
M  V30 17 1 17 18
M  V30 18 1 18 19
M  V30 19 1 6 8
M  V30 20 1 3 20
M  V30 21 1 4 21
M  V30 22 1 10 22
M  V30 23 1 10 23
M  V30 24 1 11 24
M  V30 25 1 11 25
M  V30 26 1 12 26
M  V30 27 1 12 27
M  V30 28 1 13 28
M  V30 29 1 13 29
M  V30 30 1 13 30
M  V30 31 1 14 31
M  V30 32 1 14 32
M  V30 33 1 15 33
M  V30 34 1 15 34
M  V30 35 1 16 35
M  V30 36 1 16 36
M  V30 37 1 17 37
M  V30 38 1 17 38
M  V30 39 1 18 39
M  V30 40 1 18 40
M  V30 41 1 19 41
M  V30 42 1 19 42
M  V30 43 1 19 43
M  V30 END BOND
M  V30 END CTAB
M  END
>  <Structure No>
6325

>  <LogS>
-3.94

>  <MMFF94 Energy>
-128.57

$$$$
Compound 6326
Actelion Java MolfileCreator 2.0

  0  0  0  0  0  0              0 V3000
M  V30 BEGIN CTAB
M  V30 COUNTS 16 16 0 0 0
M  V30 BEGIN ATOM
M  V30 1 O 3.55 0.3223 0.1611 0
M  V30 2 N 2.5899 -0.4699 0.0641 0 CHG=1
M  V30 3 O 2.8499 -1.819 -0.013 0 CHG=-1
M  V30 4 C 1.2357 0.0176 0.0333 0
M  V30 5 C 0.1579 -0.8803 -0.0761 0
M  V30 6 C 0.9686 1.3965 0.1121 0
M  V30 7 C -1.1675 -0.4103 -0.1067 0
M  V30 8 C -0.3463 1.8653 0.082 0
M  V30 9 C -1.4101 0.9681 -0.0267 0
M  V30 10 C -2.3048 -1.3422 -0.2213 0
M  V30 11 O -2.1222 -2.5864 -0.2952 0
M  V30 12 H 0.35 -1.9438 -0.1376 0
M  V30 13 H 1.7763 2.1121 0.1972 0
M  V30 14 H -0.5417 2.9283 0.1433 0
M  V30 15 H -2.4235 1.3504 -0.0486 0
M  V30 16 H -3.3174 -0.96 -0.2431 0
M  V30 END ATOM
M  V30 BEGIN BOND
M  V30 1 2 1 2
M  V30 2 1 2 3
M  V30 3 1 2 4
M  V30 4 2 4 5
M  V30 5 1 4 6
M  V30 6 1 5 7
M  V30 7 2 6 8
M  V30 8 2 7 9
M  V30 9 1 7 10
M  V30 10 2 10 11
M  V30 11 1 8 9
M  V30 12 1 5 12
M  V30 13 1 6 13
M  V30 14 1 8 14
M  V30 15 1 9 15
M  V30 16 1 10 16
M  V30 END BOND
M  V30 END CTAB
M  END
>  <Structure No>
6326

>  <LogS>
-1.98

>  <MMFF94 Energy>
54.569

$$$$
Compound 6327
Actelion Java MolfileCreator 2.0

  0  0  0  0  0  0              0 V3000
M  V30 BEGIN CTAB
M  V30 COUNTS 34 34 0 0 0
M  V30 BEGIN ATOM
M  V30 1 S -4.502 1.7668 2.2491 0
M  V30 2 C -3.2887 1.3249 1.2431 0
M  V30 3 N -3.346 0.08 0.5543 0
M  V30 4 N -2.2185 2.2236 0.9737 0
M  V30 5 C -2.2718 -0.3445 -0.2914 0
M  V30 6 C -1.1547 1.8435 0.0966 0
M  V30 7 O -2.4291 -1.4018 -0.9575 0
M  V30 8 C -0.9119 0.369 -0.2704 0
M  V30 9 O -0.3633 2.7412 -0.305 0
M  V30 10 C -0.0099 -0.2434 0.8867 0 CFG=2
M  V30 11 C -0.2547 0.3766 -1.703 0
M  V30 12 C 1.4605 0.2753 0.9458 0
M  V30 13 C -0.0978 -1.7727 1.0957 0
M  V30 14 C -0.0655 -0.9527 -2.4466 0
M  V30 15 C 2.5 -0.5712 0.1861 0
M  V30 16 C 3.8788 0.0817 0.2362 0
M  V30 17 H -4.1938 -0.5244 0.6469 0
M  V30 18 H -2.2415 3.1929 1.3643 0
M  V30 19 H -0.4656 0.1435 1.8291 0
M  V30 20 H -0.8776 1.0145 -2.3702 0
M  V30 21 H 0.7328 0.8814 -1.6578 0
M  V30 22 H 1.773 0.2979 2.0141 0
M  V30 23 H 1.5126 1.3253 0.5941 0
M  V30 24 H 0.2806 -2.3462 0.2337 0
M  V30 25 H 0.5051 -2.0622 1.9832 0
M  V30 26 H -1.1399 -2.0893 1.3083 0
M  V30 27 H 0.3509 -1.7452 -1.8076 0
M  V30 28 H 0.6462 -0.796 -3.2846 0
M  V30 29 H -1.0158 -1.2967 -2.9023 0
M  V30 30 H 2.5797 -1.5794 0.6452 0
M  V30 31 H 2.2164 -0.6945 -0.8746 0
M  V30 32 H 3.851 1.0795 -0.2514 0
M  V30 33 H 4.2141 0.1967 1.2891 0
M  V30 34 H 4.6121 -0.5551 -0.302 0
M  V30 END ATOM
M  V30 BEGIN BOND
M  V30 1 2 1 2
M  V30 2 1 2 3
M  V30 3 1 2 4
M  V30 4 1 3 5
M  V30 5 1 4 6
M  V30 6 2 5 7
M  V30 7 1 5 8
M  V30 8 2 6 9
M  V30 9 1 8 10
M  V30 10 1 8 11
M  V30 11 1 10 12
M  V30 12 1 10 13
M  V30 13 1 11 14
M  V30 14 1 12 15
M  V30 15 1 15 16
M  V30 16 1 6 8
M  V30 17 1 3 17
M  V30 18 1 4 18
M  V30 19 1 10 19
M  V30 20 1 11 20
M  V30 21 1 11 21
M  V30 22 1 12 22
M  V30 23 1 12 23
M  V30 24 1 13 24
M  V30 25 1 13 25
M  V30 26 1 13 26
M  V30 27 1 14 27
M  V30 28 1 14 28
M  V30 29 1 14 29
M  V30 30 1 15 30
M  V30 31 1 15 31
M  V30 32 1 16 32
M  V30 33 1 16 33
M  V30 34 1 16 34
M  V30 END BOND
M  V30 BEGIN COLLECTION
M  V30 MDLV30/STEABS ATOMS=(1 10)
M  V30 END COLLECTION
M  V30 END CTAB
M  END
>  <Structure No>
6327

>  <LogS>
-3.6

>  <MMFF94 Energy>
-92.419

$$$$
Compound 6328
Actelion Java MolfileCreator 2.0

  0  0  0  0  0  0              0 V3000
M  V30 BEGIN CTAB
M  V30 COUNTS 22 22 0 0 0
M  V30 BEGIN ATOM
M  V30 1 O 0.9475 -2.133 -0.2368 0
M  V30 2 C 0.7389 -0.9123 0.008 0
M  V30 3 O 1.8171 -0.0494 0.2316 0
M  V30 4 C -0.6445 -0.3905 0.0591 0
M  V30 5 C 3.172 -0.4853 0.1972 0
M  V30 6 C -1.7428 -1.242 -0.1629 0
M  V30 7 C -0.8808 0.9688 0.3315 0
M  V30 8 C 4.0924 0.691 0.4794 0
M  V30 9 C -3.0478 -0.7422 -0.1129 0
M  V30 10 C -2.1873 1.4649 0.3806 0
M  V30 11 C -3.2731 0.6131 0.159 0
M  V30 12 O -4.5689 1.1218 0.2111 0
M  V30 13 H 3.3334 -1.2708 0.967 0
M  V30 14 H 3.4067 -0.9028 -0.8059 0
M  V30 15 H -1.5945 -2.2935 -0.3749 0
M  V30 16 H -0.0576 1.6502 0.507 0
M  V30 17 H 3.8722 1.1126 1.4831 0
M  V30 18 H 5.1502 0.3545 0.4532 0
M  V30 19 H 3.9454 1.4803 -0.288 0
M  V30 20 H -3.8828 -1.4091 -0.2858 0
M  V30 21 H -2.3559 2.5134 0.5913 0
M  V30 22 H -5.3766 0.5301 0.055 0
M  V30 END ATOM
M  V30 BEGIN BOND
M  V30 1 2 1 2
M  V30 2 1 2 3
M  V30 3 1 2 4
M  V30 4 1 3 5
M  V30 5 2 4 6
M  V30 6 1 4 7
M  V30 7 1 5 8
M  V30 8 1 6 9
M  V30 9 2 7 10
M  V30 10 2 9 11
M  V30 11 1 11 12
M  V30 12 1 10 11
M  V30 13 1 5 13
M  V30 14 1 5 14
M  V30 15 1 6 15
M  V30 16 1 7 16
M  V30 17 1 8 17
M  V30 18 1 8 18
M  V30 19 1 8 19
M  V30 20 1 9 20
M  V30 21 1 10 21
M  V30 22 1 12 22
M  V30 END BOND
M  V30 END CTAB
M  END
>  <Structure No>
6328

>  <LogS>
-2.2

>  <MMFF94 Energy>
16.697

$$$$
Compound 6329
Actelion Java MolfileCreator 2.0

  0  0  0  0  0  0              0 V3000
M  V30 BEGIN CTAB
M  V30 COUNTS 18 18 0 0 0
M  V30 BEGIN ATOM
M  V30 1 O -3.7923 0.0788 0.6312 0
M  V30 2 C -2.5674 0.096 0.3352 0
M  V30 3 N -2.0101 -0.9638 -0.3087 0
M  V30 4 N -1.8049 1.1728 0.6634 0
M  V30 5 C -0.6907 -0.9685 -0.6391 0
M  V30 6 C -0.481 1.2149 0.3542 0
M  V30 7 O -0.2013 -1.9727 -1.2244 0
M  V30 8 C 0.1175 0.1394 -0.3265 0 CHG=-1
M  V30 9 O 0.2016 2.2227 0.6844 0
M  V30 10 C 1.5944 0.1472 -0.6553 0
M  V30 11 C 2.4063 -0.4512 0.4887 0
M  V30 12 H -2.6048 -1.7896 -0.5501 0
M  V30 13 H -2.2429 1.9796 1.1647 0
M  V30 14 H 1.7886 -0.4312 -1.5842 0
M  V30 15 H 1.9437 1.1843 -0.8491 0
M  V30 16 H 2.257 0.1395 1.4178 0
M  V30 17 H 3.4852 -0.4357 0.2271 0
M  V30 18 H 2.0993 -1.5032 0.6703 0
M  V30 END ATOM
M  V30 BEGIN BOND
M  V30 1 2 1 2
M  V30 2 1 2 3
M  V30 3 1 2 4
M  V30 4 1 3 5
M  V30 5 1 4 6
M  V30 6 2 5 7
M  V30 7 1 5 8
M  V30 8 2 6 9
M  V30 9 1 8 10
M  V30 10 1 10 11
M  V30 11 1 6 8
M  V30 12 1 3 12
M  V30 13 1 4 13
M  V30 14 1 10 14
M  V30 15 1 10 15
M  V30 16 1 11 16
M  V30 17 1 11 17
M  V30 18 1 11 18
M  V30 END BOND
M  V30 END CTAB
M  END
>  <Structure No>
6329

>  <LogS>
-0.92

>  <MMFF94 Energy>
-181.73

$$$$
Compound 6330
Actelion Java MolfileCreator 2.0

  0  0  0  0  0  0              0 V3000
M  V30 BEGIN CTAB
M  V30 COUNTS 17 17 0 0 0
M  V30 BEGIN ATOM
M  V30 1 O -1.679 -2.8797 0.1598 0
M  V30 2 C -1.9827 -1.6568 0.1392 0
M  V30 3 O -3.3266 -1.3051 0.1804 0 CHG=-1
M  V30 4 C -0.9194 -0.6203 0.0723 0
M  V30 5 C -1.2281 0.7596 0.0479 0
M  V30 6 C 0.4329 -1.0148 0.032 0
M  V30 7 O -2.5523 1.1965 0.0861 0
M  V30 8 C -0.1953 1.7063 -0.0154 0
M  V30 9 C 1.4588 -0.062 -0.0312 0
M  V30 10 C 1.1381 1.2991 -0.0547 0
M  V30 11 N 2.8265 -0.4785 -0.0715 0
M  V30 12 H 0.6962 -2.0654 0.0496 0
M  V30 13 H -2.7896 2.1816 0.0693 0
M  V30 14 H -0.4273 2.7638 -0.0343 0
M  V30 15 H 1.9219 2.0447 -0.1035 0
M  V30 16 H 3.078 -1.4919 -0.0545 0
M  V30 17 H 3.5982 0.2238 -0.1188 0
M  V30 END ATOM
M  V30 BEGIN BOND
M  V30 1 2 1 2
M  V30 2 1 2 3
M  V30 3 1 2 4
M  V30 4 2 4 5
M  V30 5 1 4 6
M  V30 6 1 5 7
M  V30 7 1 5 8
M  V30 8 2 6 9
M  V30 9 2 8 10
M  V30 10 1 9 11
M  V30 11 1 9 10
M  V30 12 1 6 12
M  V30 13 1 7 13
M  V30 14 1 8 14
M  V30 15 1 10 15
M  V30 16 1 11 16
M  V30 17 1 11 17
M  V30 END BOND
M  V30 END CTAB
M  END
>  <Structure No>
6330

>  <LogS>
-2.26

>  <MMFF94 Energy>
-0.5926

$$$$
Compound 6331
Actelion Java MolfileCreator 2.0

  0  0  0  0  0  0              0 V3000
M  V30 BEGIN CTAB
M  V30 COUNTS 15 15 0 0 0
M  V30 BEGIN ATOM
M  V30 1 S 4.3483 -0.7374 -1.6392 0
M  V30 2 C 2.7401 -0.8348 -1.6622 0
M  V30 3 N 1.469 -0.9118 -1.6803 0
M  V30 4 C 0.6183 -0.3531 -0.6669 0
M  V30 5 C -0.7691 -0.5032 -0.7977 0
M  V30 6 C 1.1331 0.338 0.4492 0
M  V30 7 C -1.6357 0.0264 0.1678 0
M  V30 8 C 0.2666 0.8654 1.4112 0
M  V30 9 C -3.0592 -0.133 0.0246 0
M  V30 10 C -1.1149 0.7109 1.2726 0
M  V30 11 N -4.2036 -0.2611 -0.0905 0
M  V30 12 H -1.171 -1.0335 -1.6536 0
M  V30 13 H 2.1993 0.4707 0.5788 0
M  V30 14 H 0.667 1.3951 2.2662 0
M  V30 15 H -1.776 1.1243 2.025 0
M  V30 END ATOM
M  V30 BEGIN BOND
M  V30 1 2 1 2
M  V30 2 2 2 3
M  V30 3 1 3 4
M  V30 4 2 4 5
M  V30 5 1 4 6
M  V30 6 1 5 7
M  V30 7 2 6 8
M  V30 8 1 7 9
M  V30 9 2 7 10
M  V30 10 3 9 11
M  V30 11 1 8 10
M  V30 12 1 5 12
M  V30 13 1 6 13
M  V30 14 1 8 14
M  V30 15 1 10 15
M  V30 END BOND
M  V30 END CTAB
M  END
>  <Structure No>
6331

>  <LogS>
-3.19

>  <MMFF94 Energy>
19.306

$$$$
Compound 6332
Actelion Java MolfileCreator 2.0

  0  0  0  0  0  0              0 V3000
M  V30 BEGIN CTAB
M  V30 COUNTS 22 22 0 0 0
M  V30 BEGIN ATOM
M  V30 1 O -2.4502 -1.9756 -0.3158 0
M  V30 2 C -2.1939 -0.754 -0.1272 0
M  V30 3 O -3.2384 0.1699 -0.0105 0
M  V30 4 C -0.7901 -0.296 -0.029 0
M  V30 5 C -4.6082 -0.2044 -0.0954 0
M  V30 6 C -0.4999 1.0627 0.1809 0
M  V30 7 C 0.273 -1.2091 -0.1435 0
M  V30 8 C 0.825 1.4981 0.274 0
M  V30 9 C 1.5978 -0.7716 -0.05 0
M  V30 10 C 1.883 0.5902 0.1601 0
M  V30 11 O 3.1944 1.0781 0.2609 0
M  V30 12 C 4.3625 0.2696 0.1642 0
M  V30 13 H -5.2411 0.6984 0.0265 0
M  V30 14 H -4.8172 -0.659 -1.0869 0
M  V30 15 H -4.8551 -0.9286 0.7096 0
M  V30 16 H -1.2955 1.7914 0.2734 0
M  V30 17 H 0.0823 -2.2627 -0.3055 0
M  V30 18 H 1.0313 2.5487 0.436 0
M  V30 19 H 2.3917 -1.5002 -0.1425 0
M  V30 20 H 4.404 -0.2237 -0.8297 0
M  V30 21 H 4.3661 -0.4938 0.9708 0
M  V30 22 H 5.259 0.9126 0.2796 0
M  V30 END ATOM
M  V30 BEGIN BOND
M  V30 1 2 1 2
M  V30 2 1 2 3
M  V30 3 1 2 4
M  V30 4 1 3 5
M  V30 5 2 4 6
M  V30 6 1 4 7
M  V30 7 1 6 8
M  V30 8 2 7 9
M  V30 9 2 8 10
M  V30 10 1 10 11
M  V30 11 1 11 12
M  V30 12 1 9 10
M  V30 13 1 5 13
M  V30 14 1 5 14
M  V30 15 1 5 15
M  V30 16 1 6 16
M  V30 17 1 7 17
M  V30 18 1 8 18
M  V30 19 1 9 19
M  V30 20 1 12 20
M  V30 21 1 12 21
M  V30 22 1 12 22
M  V30 END BOND
M  V30 END CTAB
M  END
>  <Structure No>
6332

>  <LogS>
-2.34

>  <MMFF94 Energy>
33.355

$$$$
Compound 6333
Actelion Java MolfileCreator 2.0

  0  0  0  0  0  0              0 V3000
M  V30 BEGIN CTAB
M  V30 COUNTS 46 46 0 0 0
M  V30 BEGIN ATOM
M  V30 1 O -3.3296 3.0915 -2.8534 0
M  V30 2 C -3.2841 2.1234 -2.0493 0
M  V30 3 N -2.4971 2.2136 -0.8649 0
M  V30 4 N -4.0486 0.9467 -2.3013 0
M  V30 5 C -2.4537 1.1195 0.0545 0
M  V30 6 C -3.9312 -0.2001 -1.452 0
M  V30 7 O -2.0771 1.3394 1.2372 0
M  V30 8 C -2.8265 -0.2912 -0.3992 0
M  V30 9 O -4.6776 -1.1937 -1.6695 0
M  V30 10 C -1.607 -0.9557 -1.12 0
M  V30 11 C -3.3111 -1.157 0.8081 0
M  V30 12 C -0.4629 -1.5375 -0.2597 0
M  V30 13 C -4.5952 -0.6443 1.4752 0
M  V30 14 C 0.3589 -0.4773 0.4894 0
M  V30 15 C 1.7196 -1.0015 0.986 0
M  V30 16 C 2.7469 -1.3413 -0.1157 0
M  V30 17 C 3.0161 -0.2198 -1.1356 0
M  V30 18 C 3.548 1.0926 -0.5297 0
M  V30 19 C 4.9854 0.9843 0.0215 0
M  V30 20 C 5.0274 0.8575 1.5439 0
M  V30 21 H -2.0394 3.1193 -0.616 0
M  V30 22 H -4.7085 0.9246 -3.1112 0
M  V30 23 H -1.1721 -0.2393 -1.8528 0
M  V30 24 H -1.9836 -1.8106 -1.7267 0
M  V30 25 H -2.5247 -1.1937 1.5915 0
M  V30 26 H -3.4838 -2.2036 0.4739 0
M  V30 27 H 0.1999 -2.0816 -0.9622 0
M  V30 28 H -0.8461 -2.2984 0.4519 0
M  V30 29 H -5.4547 -0.6844 0.7754 0
M  V30 30 H -4.8355 -1.2861 2.3488 0
M  V30 31 H -4.4696 0.3972 1.8355 0
M  V30 32 H 0.496 0.4326 -0.1305 0
M  V30 33 H -0.2068 -0.1802 1.3935 0
M  V30 34 H 1.5505 -1.912 1.6011 0
M  V30 35 H 2.1565 -0.2426 1.6681 0
M  V30 36 H 2.4119 -2.2438 -0.6675 0
M  V30 37 H 3.7035 -1.6315 0.3658 0
M  V30 38 H 3.7481 -0.5935 -1.8842 0
M  V30 39 H 2.0862 -0.0074 -1.7041 0
M  V30 40 H 2.8461 1.4899 0.2337 0
M  V30 41 H 3.5569 1.8438 -1.3496 0
M  V30 42 H 5.5421 1.907 -0.253 0
M  V30 43 H 5.5284 0.1296 -0.4366 0
M  V30 44 H 4.5593 -0.0886 1.8788 0
M  V30 45 H 4.5042 1.7146 2.0187 0
M  V30 46 H 6.0841 0.8594 1.8848 0
M  V30 END ATOM
M  V30 BEGIN BOND
M  V30 1 2 1 2
M  V30 2 1 2 3
M  V30 3 1 2 4
M  V30 4 1 3 5
M  V30 5 1 4 6
M  V30 6 2 5 7
M  V30 7 1 5 8
M  V30 8 2 6 9
M  V30 9 1 8 10
M  V30 10 1 8 11
M  V30 11 1 10 12
M  V30 12 1 11 13
M  V30 13 1 12 14
M  V30 14 1 14 15
M  V30 15 1 15 16
M  V30 16 1 16 17
M  V30 17 1 17 18
M  V30 18 1 18 19
M  V30 19 1 19 20
M  V30 20 1 6 8
M  V30 21 1 3 21
M  V30 22 1 4 22
M  V30 23 1 10 23
M  V30 24 1 10 24
M  V30 25 1 11 25
M  V30 26 1 11 26
M  V30 27 1 12 27
M  V30 28 1 12 28
M  V30 29 1 13 29
M  V30 30 1 13 30
M  V30 31 1 13 31
M  V30 32 1 14 32
M  V30 33 1 14 33
M  V30 34 1 15 34
M  V30 35 1 15 35
M  V30 36 1 16 36
M  V30 37 1 16 37
M  V30 38 1 17 38
M  V30 39 1 17 39
M  V30 40 1 18 40
M  V30 41 1 18 41
M  V30 42 1 19 42
M  V30 43 1 19 43
M  V30 44 1 20 44
M  V30 45 1 20 45
M  V30 46 1 20 46
M  V30 END BOND
M  V30 END CTAB
M  END
>  <Structure No>
6333

>  <LogS>
-4.46

>  <MMFF94 Energy>
-130.86

$$$$
Compound 6334
Actelion Java MolfileCreator 2.0

  0  0  0  0  0  0              0 V3000
M  V30 BEGIN CTAB
M  V30 COUNTS 47 49 0 0 0
M  V30 BEGIN ATOM
M  V30 1 O 0.0 0.2412 -1.5287 0
M  V30 2 C 0.3204 -0.0353 -0.3414 0
M  V30 3 N -0.6887 -0.2729 0.6561 0
M  V30 4 N 1.7048 -0.1142 0.0208 0
M  V30 5 C -2.145 -0.2229 0.4241 0
M  V30 6 C 2.7649 0.1195 -0.9592 0
M  V30 7 C -2.5796 1.1919 -0.0513 0
M  V30 8 C -2.8858 -0.5376 1.7564 0
M  V30 9 C -2.572 -1.2812 -0.6314 0
M  V30 10 C 4.1469 -0.0247 -0.3138 0
M  V30 11 C -4.1094 1.2305 -0.2654 0 CFG=1
M  V30 12 C -4.4147 -0.4934 1.5478 0 CFG=2
M  V30 13 C -4.1019 -1.2293 -0.8425 0 CFG=1
M  V30 14 C 5.2604 0.2191 -1.3359 0
M  V30 15 C -4.825 0.9136 1.0647 0
M  V30 16 C -4.5077 0.1808 -1.3269 0
M  V30 17 C -4.8175 -1.5411 0.4888 0
M  V30 18 C 6.6019 0.0811 -0.6894 0
M  V30 19 O 7.1816 -1.039 -0.6818 0
M  V30 20 O 7.1789 1.1877 -0.0599 0
M  V30 21 C 8.4388 1.1238 0.597 0
M  V30 22 H -0.3472 -0.4976 1.6184 0
M  V30 23 H 1.9506 -0.3448 1.0104 0
M  V30 24 H 2.6562 1.1446 -1.3759 0
M  V30 25 H 2.6642 -0.616 -1.7871 0
M  V30 26 H -2.2851 1.9544 0.7033 0
M  V30 27 H -2.0814 1.465 -1.0042 0
M  V30 28 H -2.5914 -1.5439 2.1291 0
M  V30 29 H -2.5968 0.1996 2.5381 0
M  V30 30 H -2.272 -2.2979 -0.2942 0
M  V30 31 H -2.0736 -1.099 -1.6057 0
M  V30 32 H 4.2397 0.7095 0.517 0
M  V30 33 H 4.248 -1.0499 0.1061 0
M  V30 34 H -4.4094 2.2425 -0.6144 0
M  V30 35 H -4.9276 -0.7201 2.5077 0
M  V30 36 H -4.3963 -1.9822 -1.6056 0
M  V30 37 H 5.1668 1.2429 -1.7585 0
M  V30 38 H 5.1746 -0.5103 -2.1708 0
M  V30 39 H -5.9273 0.9609 0.9241 0
M  V30 40 H -4.556 1.6728 1.8318 0
M  V30 41 H -5.6049 0.2192 -1.5051 0
M  V30 42 H -4.0074 0.4092 -2.2935 0
M  V30 43 H -5.9197 -1.5271 0.3403 0
M  V30 44 H -4.543 -2.5605 0.8385 0
M  V30 45 H 9.23 0.8323 -0.1255 0
M  V30 46 H 8.3977 0.3869 1.4268 0
M  V30 47 H 8.6831 2.1221 1.0145 0
M  V30 END ATOM
M  V30 BEGIN BOND
M  V30 1 2 1 2
M  V30 2 1 2 3
M  V30 3 1 2 4
M  V30 4 1 3 5
M  V30 5 1 4 6
M  V30 6 1 5 7
M  V30 7 1 5 8
M  V30 8 1 5 9
M  V30 9 1 6 10
M  V30 10 1 7 11
M  V30 11 1 8 12
M  V30 12 1 9 13
M  V30 13 1 10 14
M  V30 14 1 11 15
M  V30 15 1 11 16
M  V30 16 1 12 17
M  V30 17 1 14 18
M  V30 18 2 18 19
M  V30 19 1 18 20
M  V30 20 1 20 21
M  V30 21 1 12 15
M  V30 22 1 13 16
M  V30 23 1 13 17
M  V30 24 1 3 22
M  V30 25 1 4 23
M  V30 26 1 6 24
M  V30 27 1 6 25
M  V30 28 1 7 26
M  V30 29 1 7 27
M  V30 30 1 8 28
M  V30 31 1 8 29
M  V30 32 1 9 30
M  V30 33 1 9 31
M  V30 34 1 10 32
M  V30 35 1 10 33
M  V30 36 1 11 34
M  V30 37 1 12 35
M  V30 38 1 13 36
M  V30 39 1 14 37
M  V30 40 1 14 38
M  V30 41 1 15 39
M  V30 42 1 15 40
M  V30 43 1 16 41
M  V30 44 1 16 42
M  V30 45 1 17 43
M  V30 46 1 17 44
M  V30 47 1 21 45
M  V30 48 1 21 46
M  V30 49 1 21 47
M  V30 END BOND
M  V30 BEGIN COLLECTION
M  V30 MDLV30/STEABS ATOMS=(3 11 12 13)
M  V30 END COLLECTION
M  V30 END CTAB
M  END
>  <Structure No>
6334

>  <LogS>
-2.25

>  <MMFF94 Energy>
-81.412

$$$$
Compound 6335
Actelion Java MolfileCreator 2.0

  0  0  0  0  0  0              0 V3000
M  V30 BEGIN CTAB
M  V30 COUNTS 16 16 0 0 0
M  V30 BEGIN ATOM
M  V30 1 O 0.5636 1.9334 2.4978 0
M  V30 2 C 0.9323 0.8453 1.9833 0
M  V30 3 O 1.8265 0.0399 2.679 0 CHG=-1
M  V30 4 C 0.3726 0.3863 0.6927 0
M  V30 5 C -0.0103 1.2808 -0.3401 0
M  V30 6 C 0.1865 -0.9949 0.5 0
M  V30 7 O 0.2249 2.6559 -0.2729 0
M  V30 8 C -0.6195 0.7815 -1.4975 0
M  V30 9 C -0.4064 -1.4814 -0.6717 0
M  V30 10 C -0.8157 -0.5897 -1.6637 0
M  V30 11 O -0.5988 -2.8488 -0.8559 0
M  V30 12 H 0.4772 -1.6971 1.2721 0
M  V30 13 H 0.8034 3.09 0.4326 0
M  V30 14 H -0.9223 1.4612 -2.284 0
M  V30 15 H -1.2782 -0.9608 -2.5695 0
M  V30 16 H -0.315 -3.5231 -0.1547 0
M  V30 END ATOM
M  V30 BEGIN BOND
M  V30 1 2 1 2
M  V30 2 1 2 3
M  V30 3 1 2 4
M  V30 4 2 4 5
M  V30 5 1 4 6
M  V30 6 1 5 7
M  V30 7 1 5 8
M  V30 8 2 6 9
M  V30 9 2 8 10
M  V30 10 1 9 11
M  V30 11 1 9 10
M  V30 12 1 6 12
M  V30 13 1 7 13
M  V30 14 1 8 14
M  V30 15 1 10 15
M  V30 16 1 11 16
M  V30 END BOND
M  V30 END CTAB
M  END
>  <Structure No>
6335

>  <LogS>
-0.85

>  <MMFF94 Energy>
-1.7008

$$$$
Compound 6336
Actelion Java MolfileCreator 2.0

  0  0  0  0  0  0              0 V3000
M  V30 BEGIN CTAB
M  V30 COUNTS 38 38 0 0 0
M  V30 BEGIN ATOM
M  V30 1 O -1.352 -3.024 3.1037 0
M  V30 2 C -1.0436 -2.1172 2.2858 0
M  V30 3 N -1.327 -0.7555 2.5894 0
M  V30 4 N -0.3863 -2.4483 1.0675 0
M  V30 5 C -1.0214 0.2875 1.6587 0
M  V30 6 C -0.0531 -1.4371 0.112 0
M  V30 7 O -1.1183 1.484 2.0473 0
M  V30 8 C -0.6364 -0.0194 0.203 0
M  V30 9 O 0.7088 -1.7441 -0.8455 0
M  V30 10 C -1.9359 0.0915 -0.733 0
M  V30 11 C 0.4873 0.9918 -0.2236 0
M  V30 12 C -2.5133 1.5312 -0.7623 0
M  V30 13 C -1.6459 -0.3098 -2.2053 0
M  V30 14 C -3.0653 -0.8453 -0.2269 0
M  V30 15 C 1.7511 0.8546 0.6114 0
M  V30 16 C 3.0065 0.8006 0.1091 0
M  V30 17 C 4.1838 0.7043 1.0454 0
M  V30 18 C 3.2864 0.8606 -1.3712 0
M  V30 19 H -1.7241 -0.5106 3.5246 0
M  V30 20 H -0.0962 -3.4369 0.8933 0
M  V30 21 H 0.7163 0.8645 -1.296 0
M  V30 22 H 0.1409 2.0388 -0.1041 0
M  V30 23 H -2.7925 1.8831 0.2507 0
M  V30 24 H -3.4365 1.569 -1.381 0
M  V30 25 H -1.7986 2.249 -1.2139 0
M  V30 26 H -2.5683 -0.2241 -2.8205 0
M  V30 27 H -0.8913 0.3491 -2.6776 0
M  V30 28 H -1.3108 -1.3638 -2.2853 0
M  V30 29 H -3.3996 -0.5646 0.7937 0
M  V30 30 H -3.9565 -0.7848 -0.8891 0
M  V30 31 H -2.7346 -1.9045 -0.2156 0
M  V30 32 H 1.6258 0.8555 1.6905 0
M  V30 33 H 3.872 0.5985 2.1067 0
M  V30 34 H 4.8061 1.6189 0.9512 0
M  V30 35 H 4.7994 -0.1797 0.7768 0
M  V30 36 H 2.8776 1.8006 -1.7985 0
M  V30 37 H 2.8316 -0.0148 -1.8804 0
M  V30 38 H 4.3794 0.8416 -1.5683 0
M  V30 END ATOM
M  V30 BEGIN BOND
M  V30 1 2 1 2
M  V30 2 1 2 3
M  V30 3 1 2 4
M  V30 4 1 3 5
M  V30 5 1 4 6
M  V30 6 2 5 7
M  V30 7 1 5 8
M  V30 8 2 6 9
M  V30 9 1 8 10
M  V30 10 1 8 11
M  V30 11 1 10 12
M  V30 12 1 10 13
M  V30 13 1 10 14
M  V30 14 1 11 15
M  V30 15 2 15 16
M  V30 16 1 16 17
M  V30 17 1 16 18
M  V30 18 1 6 8
M  V30 19 1 3 19
M  V30 20 1 4 20
M  V30 21 1 11 21
M  V30 22 1 11 22
M  V30 23 1 12 23
M  V30 24 1 12 24
M  V30 25 1 12 25
M  V30 26 1 13 26
M  V30 27 1 13 27
M  V30 28 1 13 28
M  V30 29 1 14 29
M  V30 30 1 14 30
M  V30 31 1 14 31
M  V30 32 1 15 32
M  V30 33 1 17 33
M  V30 34 1 17 34
M  V30 35 1 17 35
M  V30 36 1 18 36
M  V30 37 1 18 37
M  V30 38 1 18 38
M  V30 END BOND
M  V30 END CTAB
M  END
>  <Structure No>
6336

>  <LogS>
-3.55

>  <MMFF94 Energy>
-96.253

$$$$
Compound 6337
Actelion Java MolfileCreator 2.0

  0  0  0  0  0  0              0 V3000
M  V30 BEGIN CTAB
M  V30 COUNTS 21 21 0 0 0
M  V30 BEGIN ATOM
M  V30 1 O 2.2949 -0.7908 -1.4239 0
M  V30 2 C 2.5693 -0.3089 -0.2917 0
M  V30 3 N 1.5276 -0.0132 0.6514 0
M  V30 4 C 4.0 -0.1385 0.1035 0
M  V30 5 C 0.1284 0.0329 0.3211 0
M  V30 6 C -0.3162 0.4942 -0.9305 0
M  V30 7 C -0.8185 -0.3332 1.2885 0
M  V30 8 C -1.6835 0.5515 -1.2183 0
M  V30 9 C -2.1855 -0.2772 1.0011 0
M  V30 10 C -2.629 0.1615 -0.2549 0
M  V30 11 C -4.0747 0.2147 -0.5398 0
M  V30 12 O -4.5038 0.6065 -1.6577 0
M  V30 13 H 1.7992 0.0938 1.6553 0
M  V30 14 H 4.1156 0.7779 0.7194 0
M  V30 15 H 4.3274 -1.0193 0.6938 0
M  V30 16 H 4.6415 -0.0442 -0.7981 0
M  V30 17 H 0.3876 0.8351 -1.6777 0
M  V30 18 H -0.4953 -0.6726 2.2647 0
M  V30 19 H -2.0001 0.9091 -2.1903 0
M  V30 20 H -2.8975 -0.575 1.7615 0
M  V30 21 H -4.7872 -0.086 0.2179 0
M  V30 END ATOM
M  V30 BEGIN BOND
M  V30 1 2 1 2
M  V30 2 1 2 3
M  V30 3 1 2 4
M  V30 4 1 3 5
M  V30 5 2 5 6
M  V30 6 1 5 7
M  V30 7 1 6 8
M  V30 8 2 7 9
M  V30 9 2 8 10
M  V30 10 1 10 11
M  V30 11 2 11 12
M  V30 12 1 9 10
M  V30 13 1 3 13
M  V30 14 1 4 14
M  V30 15 1 4 15
M  V30 16 1 4 16
M  V30 17 1 6 17
M  V30 18 1 7 18
M  V30 19 1 8 19
M  V30 20 1 9 20
M  V30 21 1 11 21
M  V30 END BOND
M  V30 END CTAB
M  END
>  <Structure No>
6337

>  <LogS>
-1.63

>  <MMFF94 Energy>
13.636

$$$$
Compound 6338
Actelion Java MolfileCreator 2.0

  0  0  0  0  0  0              0 V3000
M  V30 BEGIN CTAB
M  V30 COUNTS 36 37 0 0 0
M  V30 BEGIN ATOM
M  V30 1 O -2.4926 3.3782 2.5731 0
M  V30 2 C -2.0619 2.4671 1.8181 0
M  V30 3 N -1.5455 1.2646 2.3785 0
M  V30 4 N -2.0873 2.6427 0.4048 0
M  V30 5 C -1.0563 0.2072 1.5502 0
M  V30 6 C -1.6103 1.6271 -0.4811 0
M  V30 7 O -0.5753 -0.8216 2.1003 0
M  V30 8 C -1.1239 0.2739 0.0272 0
M  V30 9 O -1.6164 1.8524 -1.7222 0
M  V30 10 C 0.314 0.0633 -0.5067 0
M  V30 11 C -2.1366 -0.8118 -0.4538 0
M  V30 12 C 1.2724 0.9442 -0.1191 0
M  V30 13 C 0.6986 -1.0896 -1.4296 0
M  V30 14 C -3.5535 -0.6409 0.1126 0
M  V30 15 C 2.7255 0.8401 -0.5024 0
M  V30 16 C 1.614 -2.0984 -0.7203 0
M  V30 17 C 3.3766 -0.4177 0.086 0
M  V30 18 C 3.0904 -1.6777 -0.7405 0
M  V30 19 H -1.5147 1.1564 3.4176 0
M  V30 20 H -2.4528 3.5372 0.0083 0
M  V30 21 H -2.2222 -0.7852 -1.5625 0
M  V30 22 H -1.7767 -1.8222 -0.1582 0
M  V30 23 H 1.0005 1.7764 0.5258 0
M  V30 24 H 1.1883 -0.6927 -2.3443 0
M  V30 25 H -0.1786 -1.6428 -1.8072 0
M  V30 26 H -3.9751 0.3477 -0.1639 0
M  V30 27 H -4.2146 -1.4272 -0.308 0
M  V30 28 H -3.5542 -0.7457 1.2175 0
M  V30 29 H 3.2521 1.7279 -0.0898 0
M  V30 30 H 2.844 0.8786 -1.6068 0
M  V30 31 H 1.2738 -2.2668 0.325 0
M  V30 32 H 1.535 -3.0743 -1.2467 0
M  V30 33 H 3.0533 -0.5683 1.1404 0
M  V30 34 H 4.4774 -0.2639 0.0998 0
M  V30 35 H 3.6922 -2.5108 -0.3172 0
M  V30 36 H 3.4301 -1.5301 -1.7888 0
M  V30 END ATOM
M  V30 BEGIN BOND
M  V30 1 2 1 2
M  V30 2 1 2 3
M  V30 3 1 2 4
M  V30 4 1 3 5
M  V30 5 1 4 6
M  V30 6 2 5 7
M  V30 7 1 5 8
M  V30 8 2 6 9
M  V30 9 1 8 10
M  V30 10 1 8 11
M  V30 11 2 10 12
M  V30 12 1 10 13
M  V30 13 1 11 14
M  V30 14 1 12 15
M  V30 15 1 13 16
M  V30 16 1 15 17
M  V30 17 1 16 18
M  V30 18 1 6 8
M  V30 19 1 17 18
M  V30 20 1 3 19
M  V30 21 1 4 20
M  V30 22 1 11 21
M  V30 23 1 11 22
M  V30 24 1 12 23
M  V30 25 1 13 24
M  V30 26 1 13 25
M  V30 27 1 14 26
M  V30 28 1 14 27
M  V30 29 1 14 28
M  V30 30 1 15 29
M  V30 31 1 15 30
M  V30 32 1 16 31
M  V30 33 1 16 32
M  V30 34 1 17 33
M  V30 35 1 17 34
M  V30 36 1 18 35
M  V30 37 1 18 36
M  V30 END BOND
M  V30 END CTAB
M  END
>  <Structure No>
6338

>  <LogS>
-3.0

>  <MMFF94 Energy>
-76.03

$$$$
Compound 6339
Actelion Java MolfileCreator 2.0

  0  0  0  0  0  0              0 V3000
M  V30 BEGIN CTAB
M  V30 COUNTS 25 25 0 0 0
M  V30 BEGIN ATOM
M  V30 1 O -0.7889 -0.2366 1.7363 0
M  V30 2 C -0.1744 0.1632 0.7089 0
M  V30 3 O -0.8616 0.8575 -0.2952 0
M  V30 4 C 1.2755 -0.0932 0.5652 0
M  V30 5 C -2.267 1.0994 -0.2647 0
M  V30 6 C 1.986 -0.7827 1.5655 0
M  V30 7 C 1.9646 0.3491 -0.5779 0
M  V30 8 C -3.038 -0.1726 -0.6273 0
M  V30 9 C 3.3561 -1.0225 1.4229 0
M  V30 10 C 3.3348 0.1073 -0.7168 0
M  V30 11 C -4.5422 0.0811 -0.6508 0
M  V30 12 C 4.0339 -0.5794 0.2838 0
M  V30 13 O 5.3989 -0.8257 0.1557 0
M  V30 14 H -2.4992 1.8912 -1.0085 0
M  V30 15 H -2.5699 1.4706 0.7392 0
M  V30 16 H 1.4843 -1.1365 2.4575 0
M  V30 17 H 1.4469 0.8818 -1.3657 0
M  V30 18 H -2.7128 -0.527 -1.6293 0
M  V30 19 H -2.8192 -0.9705 0.1138 0
M  V30 20 H 3.8917 -1.5539 2.1994 0
M  V30 21 H 3.8517 0.4539 -1.6026 0
M  V30 22 H -4.892 0.4179 0.3484 0
M  V30 23 H -4.7917 0.8555 -1.4072 0
M  V30 24 H -5.0733 -0.8574 -0.9152 0
M  V30 25 H 5.9185 -0.5174 -0.6576 0
M  V30 END ATOM
M  V30 BEGIN BOND
M  V30 1 2 1 2
M  V30 2 1 2 3
M  V30 3 1 2 4
M  V30 4 1 3 5
M  V30 5 2 4 6
M  V30 6 1 4 7
M  V30 7 1 5 8
M  V30 8 1 6 9
M  V30 9 2 7 10
M  V30 10 1 8 11
M  V30 11 2 9 12
M  V30 12 1 12 13
M  V30 13 1 10 12
M  V30 14 1 5 14
M  V30 15 1 5 15
M  V30 16 1 6 16
M  V30 17 1 7 17
M  V30 18 1 8 18
M  V30 19 1 8 19
M  V30 20 1 9 20
M  V30 21 1 10 21
M  V30 22 1 11 22
M  V30 23 1 11 23
M  V30 24 1 11 24
M  V30 25 1 13 25
M  V30 END BOND
M  V30 END CTAB
M  END
>  <Structure No>
6339

>  <LogS>
-2.68

>  <MMFF94 Energy>
16.307

$$$$
Compound 6340
Actelion Java MolfileCreator 2.0

  0  0  0  0  0  0              0 V3000
M  V30 BEGIN CTAB
M  V30 COUNTS 41 42 0 0 0
M  V30 BEGIN ATOM
M  V30 1 O 5.6287 -0.3209 0.642 0
M  V30 2 C 4.4079 -0.2053 0.355 0
M  V30 3 N 3.4309 -0.1732 1.391 0
M  V30 4 N 4.0035 -0.0763 -1.005 0
M  V30 5 C 2.0397 -0.0556 1.0823 0
M  V30 6 C 2.6188 -0.0095 -1.3595 0
M  V30 7 O 1.2314 0.1855 2.0196 0
M  V30 8 C 1.5251 -0.2918 -0.3349 0
M  V30 9 O 2.3132 0.1923 -2.5668 0
M  V30 10 C 0.3008 0.5898 -0.652 0
M  V30 11 C 1.0799 -1.789 -0.5055 0
M  V30 12 C 0.355 2.1098 -0.5261 0
M  V30 13 C 0.1835 -2.4652 0.5834 0
M  V30 14 C -1.0676 2.7349 -0.3227 0
M  V30 15 C -1.1901 -1.8522 0.9822 0
M  V30 16 C -2.3094 1.8392 -0.6533 0
M  V30 17 C -2.1532 -1.5091 -0.1869 0
M  V30 18 C -2.7938 0.9696 0.5463 0
M  V30 19 C -3.2528 -0.473 0.1814 0
M  V30 20 H 3.7398 -0.1713 2.3893 0
M  V30 21 H 4.7303 -0.0104 -1.7527 0
M  V30 22 H -0.0798 0.3433 -1.6669 0
M  V30 23 H -0.4138 0.3062 0.0892 0
M  V30 24 H 2.0028 -2.4093 -0.5602 0
M  V30 25 H 0.5897 -1.9233 -1.4946 0
M  V30 26 H 0.8181 2.5254 -1.4474 0
M  V30 27 H 1.002 2.401 0.3285 0
M  V30 28 H 0.7872 -2.5686 1.5108 0
M  V30 29 H -0.0125 -3.5034 0.2373 0
M  V30 30 H -1.1246 3.6449 -0.9589 0
M  V30 31 H -1.1564 3.0976 0.7246 0
M  V30 32 H -1.7082 -2.5939 1.6287 0
M  V30 33 H -1.0233 -0.9948 1.6588 0
M  V30 34 H -3.1467 2.5153 -0.9345 0
M  V30 35 H -2.131 1.2262 -1.5593 0
M  V30 36 H -1.6249 -1.1816 -1.0975 0
M  V30 37 H -2.6628 -2.4509 -0.4855 0
M  V30 38 H -3.6723 1.4858 0.9922 0
M  V30 39 H -2.054 0.95 1.3707 0
M  V30 40 H -3.8234 -0.8791 1.0449 0
M  V30 41 H -3.9692 -0.407 -0.6659 0
M  V30 END ATOM
M  V30 BEGIN BOND
M  V30 1 2 1 2
M  V30 2 1 2 3
M  V30 3 1 2 4
M  V30 4 1 3 5
M  V30 5 1 4 6
M  V30 6 2 5 7
M  V30 7 1 5 8
M  V30 8 2 6 9
M  V30 9 1 8 10
M  V30 10 1 8 11
M  V30 11 1 10 12
M  V30 12 1 11 13
M  V30 13 1 12 14
M  V30 14 1 13 15
M  V30 15 1 14 16
M  V30 16 1 15 17
M  V30 17 1 16 18
M  V30 18 1 17 19
M  V30 19 1 6 8
M  V30 20 1 18 19
M  V30 21 1 3 20
M  V30 22 1 4 21
M  V30 23 1 10 22
M  V30 24 1 10 23
M  V30 25 1 11 24
M  V30 26 1 11 25
M  V30 27 1 12 26
M  V30 28 1 12 27
M  V30 29 1 13 28
M  V30 30 1 13 29
M  V30 31 1 14 30
M  V30 32 1 14 31
M  V30 33 1 15 32
M  V30 34 1 15 33
M  V30 35 1 16 34
M  V30 36 1 16 35
M  V30 37 1 17 36
M  V30 38 1 17 37
M  V30 39 1 18 38
M  V30 40 1 18 39
M  V30 41 1 19 40
M  V30 42 1 19 41
M  V30 END BOND
M  V30 END CTAB
M  END
>  <Structure No>
6340

>  <LogS>
-4.59

>  <MMFF94 Energy>
-100.7

$$$$
Compound 6341
Actelion Java MolfileCreator 2.0

  0  0  0  0  0  0              0 V3000
M  V30 BEGIN CTAB
M  V30 COUNTS 22 22 0 0 0
M  V30 BEGIN ATOM
M  V30 1 S 5.6842 1.6786 -0.2396 0
M  V30 2 C 4.6383 0.4561 -0.1517 0
M  V30 3 N 3.8116 -0.51 -0.0821 0
M  V30 4 C 2.3854 -0.3433 -0.0524 0
M  V30 5 C 1.579 -1.4821 0.0254 0
M  V30 6 C 1.7759 0.9236 -0.0987 0
M  V30 7 C 0.1865 -1.3686 0.0567 0
M  V30 8 C 0.3835 1.0404 -0.067 0
M  V30 9 C -0.4367 -0.1042 0.0111 0
M  V30 10 N -1.8835 0.0158 0.044 0
M  V30 11 C -2.7357 -1.1238 -0.3174 0
M  V30 12 C -2.5193 1.2789 0.4393 0
M  V30 13 H 2.0335 -2.4644 0.0641 0
M  V30 14 H 2.3726 1.8244 -0.1615 0
M  V30 15 H -0.3955 -2.2767 0.1278 0
M  V30 16 H -0.044 2.0321 -0.1152 0
M  V30 17 H -2.3941 -1.5604 -1.2799 0
M  V30 18 H -2.6931 -1.8946 0.4801 0
M  V30 19 H -3.7952 -0.8178 -0.4478 0
M  V30 20 H -3.6078 1.1512 0.6185 0
M  V30 21 H -2.3865 2.0352 -0.3621 0
M  V30 22 H -2.0676 1.6498 1.3839 0
M  V30 END ATOM
M  V30 BEGIN BOND
M  V30 1 2 1 2
M  V30 2 2 2 3
M  V30 3 1 3 4
M  V30 4 2 4 5
M  V30 5 1 4 6
M  V30 6 1 5 7
M  V30 7 2 6 8
M  V30 8 2 7 9
M  V30 9 1 9 10
M  V30 10 1 10 11
M  V30 11 1 10 12
M  V30 12 1 8 9
M  V30 13 1 5 13
M  V30 14 1 6 14
M  V30 15 1 7 15
M  V30 16 1 8 16
M  V30 17 1 11 17
M  V30 18 1 11 18
M  V30 19 1 11 19
M  V30 20 1 12 20
M  V30 21 1 12 21
M  V30 22 1 12 22
M  V30 END BOND
M  V30 END CTAB
M  END
>  <Structure No>
6341

>  <LogS>
-4.13

>  <MMFF94 Energy>
13.01

$$$$
Compound 6342
Actelion Java MolfileCreator 2.0

  0  0  0  0  0  0              0 V3000
M  V30 BEGIN CTAB
M  V30 COUNTS 48 51 0 0 0
M  V30 BEGIN ATOM
M  V30 1 O 4.1429 -4.3057 1.2171 0
M  V30 2 C 3.5151 -3.2744 0.8586 0
M  V30 3 C 2.7894 -2.4754 1.8603 0
M  V30 4 C 3.5784 -2.8193 -0.5681 0
M  V30 5 C 2.0503 -1.4078 1.5103 0
M  V30 6 C 2.2865 -2.0927 -0.9402 0
M  V30 7 C 1.9875 -0.9465 0.0585 0 CFG=1
M  V30 8 C 1.5696 -0.4698 2.5952 0
M  V30 9 C 0.643 -0.2297 -0.2564 0 CFG=2
M  V30 10 C 0.2856 0.2747 2.2086 0
M  V30 11 C 0.3809 0.8735 0.7872 0 CFG=2
M  V30 12 C -0.5529 -1.2077 -0.3807 0
M  V30 13 C -0.8588 1.7336 0.4187 0 CFG=2
M  V30 14 C -1.949 -0.6073 -0.1022 0
M  V30 15 C -2.0899 0.95 -0.1574 0 CFG=2
M  V30 16 C -0.5096 2.8242 -0.6155 0
M  V30 17 C -2.2849 1.5109 -1.6159 0 CFG=2
M  V30 18 C -3.3292 1.3121 0.7127 0
M  V30 19 C -1.6993 2.9296 -1.5548 0
M  V30 20 O -3.6367 1.5021 -2.0255 0
M  V30 21 C -1.5333 0.755 -2.6416 0
M  V30 22 C -0.9332 0.1552 -3.4992 0
M  V30 23 H 2.8924 -2.7471 2.9045 0
M  V30 24 H 4.4454 -2.1359 -0.6939 0
M  V30 25 H 3.717 -3.6934 -1.2408 0
M  V30 26 H 1.4666 -2.8417 -0.9441 0
M  V30 27 H 2.3805 -1.6796 -1.9679 0
M  V30 28 H 2.7984 -0.1935 -0.0666 0
M  V30 29 H 1.3794 -1.0248 3.5404 0
M  V30 30 H 2.3729 0.2719 2.795 0
M  V30 31 H 0.7777 0.2627 -1.242 0
M  V30 32 H -0.5733 -0.4182 2.2994 0
M  V30 33 H 0.1233 1.0908 2.9459 0
M  V30 34 H 1.2632 1.5552 0.7995 0
M  V30 35 H -0.55 -1.6471 -1.401 0
M  V30 36 H -0.4108 -2.0616 0.318 0
M  V30 37 H -1.1494 2.2862 1.3424 0
M  V30 38 H -2.6828 -1.0639 -0.8027 0
M  V30 39 H -2.263 -0.9725 0.9003 0
M  V30 40 H 0.3889 2.5534 -1.2113 0
M  V30 41 H -0.3112 3.801 -0.1218 0
M  V30 42 H -3.1601 1.0254 1.7737 0
M  V30 43 H -4.2356 0.7742 0.3601 0
M  V30 44 H -3.5337 2.404 0.6921 0
M  V30 45 H -2.4286 3.6454 -1.1158 0
M  V30 46 H -1.3967 3.3184 -2.5531 0
M  V30 47 H -4.1061 2.2899 -1.6478 0
M  V30 48 H -0.4047 -0.3722 -4.2486 0
M  V30 END ATOM
M  V30 BEGIN BOND
M  V30 1 2 1 2
M  V30 2 1 2 3
M  V30 3 1 2 4
M  V30 4 2 3 5
M  V30 5 1 4 6
M  V30 6 1 5 7
M  V30 7 1 5 8
M  V30 8 1 7 9
M  V30 9 1 8 10
M  V30 10 1 9 11
M  V30 11 1 9 12
M  V30 12 1 11 13
M  V30 13 1 12 14
M  V30 14 1 13 15
M  V30 15 1 13 16
M  V30 16 1 15 17
M  V30 17 1 15 18
M  V30 18 1 16 19
M  V30 19 1 17 20
M  V30 20 1 17 21
M  V30 21 3 21 22
M  V30 22 1 6 7
M  V30 23 1 10 11
M  V30 24 1 14 15
M  V30 25 1 17 19
M  V30 26 1 3 23
M  V30 27 1 4 24
M  V30 28 1 4 25
M  V30 29 1 6 26
M  V30 30 1 6 27
M  V30 31 1 7 28
M  V30 32 1 8 29
M  V30 33 1 8 30
M  V30 34 1 9 31
M  V30 35 1 10 32
M  V30 36 1 10 33
M  V30 37 1 11 34
M  V30 38 1 12 35
M  V30 39 1 12 36
M  V30 40 1 13 37
M  V30 41 1 14 38
M  V30 42 1 14 39
M  V30 43 1 16 40
M  V30 44 1 16 41
M  V30 45 1 18 42
M  V30 46 1 18 43
M  V30 47 1 18 44
M  V30 48 1 19 45
M  V30 49 1 19 46
M  V30 50 1 20 47
M  V30 51 1 22 48
M  V30 END BOND
M  V30 BEGIN COLLECTION
M  V30 MDLV30/STEABS ATOMS=(6 7 9 11 13 15 17)
M  V30 END COLLECTION
M  V30 END CTAB
M  END
>  <Structure No>
6342

>  <LogS>
-4.63

>  <MMFF94 Energy>
63.623

$$$$
Compound 6343
Actelion Java MolfileCreator 2.0

  0  0  0  0  0  0              0 V3000
M  V30 BEGIN CTAB
M  V30 COUNTS 18 18 0 0 0
M  V30 BEGIN ATOM
M  V30 1 N 4.5062 -2.5731 -1.0447 0
M  V30 2 C 3.5546 -1.9685 -1.3061 0
M  V30 3 C 2.3744 -1.2187 -1.6304 0
M  V30 4 N 1.5629 -0.8693 -0.6809 0
M  V30 5 C 2.1208 -0.8726 -3.007 0
M  V30 6 N 0.3926 -0.1361 -0.9303 0 CHG=-1
M  V30 7 N 1.917 -0.5945 -4.1117 0
M  V30 8 C -0.5024 0.2493 0.1173 0
M  V30 9 C -0.2506 -0.0907 1.4584 0
M  V30 10 C -1.6531 0.981 -0.2036 0
M  V30 11 C -1.1443 0.3002 2.461 0
M  V30 12 C -2.5445 1.3703 0.8013 0
M  V30 13 C -2.2904 1.0302 2.133 0
M  V30 14 H 0.6314 -0.6552 1.7308 0
M  V30 15 H -1.8575 1.2488 -1.2327 0
M  V30 16 H -0.9483 0.0373 3.4926 0
M  V30 17 H -3.4321 1.9356 0.5477 0
M  V30 18 H -2.9808 1.3319 2.9099 0
M  V30 END ATOM
M  V30 BEGIN BOND
M  V30 1 3 1 2
M  V30 2 1 2 3
M  V30 3 2 3 4
M  V30 4 1 3 5
M  V30 5 1 4 6
M  V30 6 3 5 7
M  V30 7 1 6 8
M  V30 8 2 8 9
M  V30 9 1 8 10
M  V30 10 1 9 11
M  V30 11 2 10 12
M  V30 12 2 11 13
M  V30 13 1 12 13
M  V30 14 1 9 14
M  V30 15 1 10 15
M  V30 16 1 11 16
M  V30 17 1 12 17
M  V30 18 1 13 18
M  V30 END BOND
M  V30 END CTAB
M  END
>  <Structure No>
6343

>  <LogS>
-3.36

>  <MMFF94 Energy>
MMFF94 error code 2

$$$$
Compound 6344
Actelion Java MolfileCreator 2.0

  0  0  0  0  0  0              0 V3000
M  V30 BEGIN CTAB
M  V30 COUNTS 58 58 0 0 0
M  V30 BEGIN ATOM
M  V30 1 O 3.0132 1.1885 -2.4576 0
M  V30 2 C 1.9204 0.671 -2.6291 0
M  V30 3 C 1.156 -0.0231 -1.5443 0 CFG=1
M  V30 4 C 1.2121 0.723 -3.9323 0
M  V30 5 C -0.2529 -0.1667 -2.1718 0 CFG=2
M  V30 6 C 1.798 -1.3974 -1.1993 0
M  V30 7 C -0.0221 -0.1435 -3.7005 0 CFG=1
M  V30 8 C -1.1307 0.9981 -1.7344 0
M  V30 9 C 2.6144 -1.3862 0.1051 0
M  V30 10 O -1.1269 0.3576 -4.4085 0
M  V30 11 C -2.2861 0.8833 -1.0531 0
M  V30 12 C 3.8896 -0.5382 0.0118 0
M  V30 13 C -2.9009 -0.4371 -0.6294 0 CFG=2
M  V30 14 C 4.7595 -0.7112 1.2627 0
M  V30 15 O -3.2887 -1.1775 -1.7601 0
M  V30 16 C -4.1125 -0.2366 0.3041 0
M  V30 17 C 6.0558 0.1052 1.1479 0
M  V30 18 C -3.7027 0.3216 1.6779 0
M  V30 19 C 6.9611 -0.07 2.3742 0
M  V30 20 C -4.8602 0.3228 2.6919 0
M  V30 21 C 6.3774 0.5769 3.5928 0
M  V30 22 C -5.9941 1.3054 2.3328 0
M  V30 23 O 6.4319 1.8276 3.7325 0
M  V30 24 O 5.7515 -0.197 4.5621 0 CHG=-1
M  V30 25 C -7.2077 0.5978 1.7284 0
M  V30 26 H 1.115 0.622 -0.6367 0
M  V30 27 H 0.9329 1.7748 -4.1591 0
M  V30 28 H 1.8454 0.3076 -4.7456 0
M  V30 29 H -0.7248 -1.133 -1.9049 0
M  V30 30 H 2.4314 -1.7675 -2.0371 0
M  V30 31 H 1.0079 -2.1648 -1.0561 0
M  V30 32 H 0.2091 -1.1791 -4.0467 0
M  V30 33 H -0.7908 2.0011 -1.9809 0
M  V30 34 H 2.8991 -2.4368 0.3329 0
M  V30 35 H 1.9784 -1.0237 0.9423 0
M  V30 36 H -1.8321 -0.339 -4.3554 0
M  V30 37 H -2.806 1.8026 -0.7965 0
M  V30 38 H 3.6134 0.5336 -0.0799 0
M  V30 39 H 4.4706 -0.8427 -0.8867 0
M  V30 40 H -2.1383 -1.0268 -0.0759 0
M  V30 41 H 5.0146 -1.787 1.3894 0
M  V30 42 H 4.1837 -0.3766 2.154 0
M  V30 43 H -3.9506 -0.6328 -2.2626 0
M  V30 44 H -4.8386 0.4505 -0.1814 0
M  V30 45 H -4.6117 -1.2201 0.4499 0
M  V30 46 H 6.617 -0.2363 0.2503 0
M  V30 47 H 5.8174 1.1833 1.0088 0
M  V30 48 H -2.8862 -0.3075 2.0956 0
M  V30 49 H -3.3057 1.3546 1.5693 0
M  V30 50 H 7.1376 -1.15 2.5678 0
M  V30 51 H 7.9472 0.396 2.1626 0
M  V30 52 H -5.2482 -0.7113 2.8263 0
M  V30 53 H -4.4373 0.6284 3.6743 0
M  V30 54 H -5.6361 2.0946 1.6346 0
M  V30 55 H -6.3314 1.8199 3.2599 0
M  V30 56 H -6.9318 0.0373 0.8123 0
M  V30 57 H -7.9803 1.3497 1.4631 0
M  V30 58 H -7.6441 -0.1091 2.4666 0
M  V30 END ATOM
M  V30 BEGIN BOND
M  V30 1 2 1 2
M  V30 2 1 2 3
M  V30 3 1 2 4
M  V30 4 1 3 5
M  V30 5 1 3 6
M  V30 6 1 4 7
M  V30 7 1 5 8
M  V30 8 1 6 9
M  V30 9 1 7 10
M  V30 10 2 8 11
M  V30 11 1 9 12
M  V30 12 1 11 13
M  V30 13 1 12 14
M  V30 14 1 13 15
M  V30 15 1 13 16
M  V30 16 1 14 17
M  V30 17 1 16 18
M  V30 18 1 17 19
M  V30 19 1 18 20
M  V30 20 1 19 21
M  V30 21 1 20 22
M  V30 22 2 21 23
M  V30 23 1 21 24
M  V30 24 1 22 25
M  V30 25 1 5 7
M  V30 26 1 3 26
M  V30 27 1 4 27
M  V30 28 1 4 28
M  V30 29 1 5 29
M  V30 30 1 6 30
M  V30 31 1 6 31
M  V30 32 1 7 32
M  V30 33 1 8 33
M  V30 34 1 9 34
M  V30 35 1 9 35
M  V30 36 1 10 36
M  V30 37 1 11 37
M  V30 38 1 12 38
M  V30 39 1 12 39
M  V30 40 1 13 40
M  V30 41 1 14 41
M  V30 42 1 14 42
M  V30 43 1 15 43
M  V30 44 1 16 44
M  V30 45 1 16 45
M  V30 46 1 17 46
M  V30 47 1 17 47
M  V30 48 1 18 48
M  V30 49 1 18 49
M  V30 50 1 19 50
M  V30 51 1 19 51
M  V30 52 1 20 52
M  V30 53 1 20 53
M  V30 54 1 22 54
M  V30 55 1 22 55
M  V30 56 1 25 56
M  V30 57 1 25 57
M  V30 58 1 25 58
M  V30 END BOND
M  V30 BEGIN COLLECTION
M  V30 MDLV30/STEABS ATOMS=(4 3 5 7 13)
M  V30 END COLLECTION
M  V30 END CTAB
M  END
>  <Structure No>
6344

>  <LogS>
-3.67

>  <MMFF94 Energy>
29.297

$$$$
Compound 6345
Actelion Java MolfileCreator 2.0

  0  0  0  0  0  0              0 V3000
M  V30 BEGIN CTAB
M  V30 COUNTS 12 12 0 0 0
M  V30 BEGIN ATOM
M  V30 1 F -1.8136 2.0729 -0.0863 0
M  V30 2 C -0.9166 1.056 -0.0624 0
M  V30 3 C -1.3628 -0.2705 -0.0529 0
M  V30 4 C 0.4551 1.3333 -0.0475 0
M  V30 5 F -2.6922 -0.5387 -0.0673 0
M  V30 6 C -0.4373 -1.3203 -0.0283 0
M  V30 7 F 0.887 2.619 -0.0567 0
M  V30 8 C 1.3813 0.2841 -0.0229 0
M  V30 9 F -0.8719 -2.6054 -0.0191 0
M  V30 10 C 0.9354 -1.0434 -0.0133 0
M  V30 11 F 2.7105 0.5551 -0.0084 0
M  V30 12 O 1.8547 -2.0856 0.011 0 CHG=-1
M  V30 END ATOM
M  V30 BEGIN BOND
M  V30 1 1 1 2
M  V30 2 2 2 3
M  V30 3 1 2 4
M  V30 4 1 3 5
M  V30 5 1 3 6
M  V30 6 1 4 7
M  V30 7 2 4 8
M  V30 8 1 6 9
M  V30 9 2 6 10
M  V30 10 1 8 11
M  V30 11 1 10 12
M  V30 12 1 8 10
M  V30 END BOND
M  V30 END CTAB
M  END
>  <Structure No>
6345

>  <LogS>
-0.52

>  <MMFF94 Energy>
52.477

$$$$
Compound 6346
Actelion Java MolfileCreator 2.0

  0  0  0  0  0  0              0 V3000
M  V30 BEGIN CTAB
M  V30 COUNTS 27 27 0 0 0
M  V30 BEGIN ATOM
M  V30 1 Cl 5.3895 -1.4244 -0.6328 0
M  V30 2 C 3.6984 -0.9754 -0.5058 0
M  V30 3 C 3.3386 0.37 -0.3964 0
M  V30 4 C 2.712 -1.9619 -0.5214 0
M  V30 5 C 1.9872 0.7421 -0.2899 0
M  V30 6 C 1.365 -1.6079 -0.4283 0
M  V30 7 C 0.9841 -0.2568 -0.3054 0
M  V30 8 C 1.631 2.1997 -0.1733 0
M  V30 9 N -0.4098 0.1076 -0.2478 0 CHG=1
M  V30 10 C -1.2879 -0.584 0.426 0
M  V30 11 N -2.6798 -0.2106 0.49 0
M  V30 12 C -3.5719 -1.0457 1.2968 0
M  V30 13 C -3.2051 0.9562 -0.2273 0
M  V30 14 H 4.1151 1.1255 -0.3925 0
M  V30 15 H 2.9871 -3.0046 -0.6168 0
M  V30 16 H 0.6179 -2.3895 -0.4767 0
M  V30 17 H 2.5236 2.8201 0.055 0
M  V30 18 H 1.1922 2.5532 -1.1296 0
M  V30 19 H 0.8974 2.3497 0.6469 0
M  V30 20 H -0.6975 0.98 -0.7411 0
M  V30 21 H -0.9694 -1.4595 0.9812 0
M  V30 22 H -4.6171 -0.6716 1.2791 0
M  V30 23 H -3.5671 -2.0846 0.9047 0
M  V30 24 H -3.2238 -1.0536 2.3514 0
M  V30 25 H -2.7102 1.879 0.1421 0
M  V30 26 H -4.2988 1.0728 -0.0768 0
M  V30 27 H -3.0215 0.8422 -1.3164 0
M  V30 END ATOM
M  V30 BEGIN BOND
M  V30 1 1 1 2
M  V30 2 2 2 3
M  V30 3 1 2 4
M  V30 4 1 3 5
M  V30 5 2 4 6
M  V30 6 2 5 7
M  V30 7 1 5 8
M  V30 8 1 7 9
M  V30 9 2 9 10
M  V30 10 1 10 11
M  V30 11 1 11 12
M  V30 12 1 11 13
M  V30 13 1 6 7
M  V30 14 1 3 14
M  V30 15 1 4 15
M  V30 16 1 6 16
M  V30 17 1 8 17
M  V30 18 1 8 18
M  V30 19 1 8 19
M  V30 20 1 9 20
M  V30 21 1 10 21
M  V30 22 1 12 22
M  V30 23 1 12 23
M  V30 24 1 12 24
M  V30 25 1 13 25
M  V30 26 1 13 26
M  V30 27 1 13 27
M  V30 END BOND
M  V30 END CTAB
M  END
>  <Structure No>
6346

>  <LogS>
-2.88

>  <MMFF94 Energy>
19.058

$$$$
Compound 6347
Actelion Java MolfileCreator 2.0

  0  0  0  0  0  0              0 V3000
M  V30 BEGIN CTAB
M  V30 COUNTS 44 45 0 0 0
M  V30 BEGIN ATOM
M  V30 1 O -5.8589 0.4004 0.3203 0
M  V30 2 C -4.6193 0.4274 0.1022 0
M  V30 3 N -4.1303 0.5521 -1.2304 0
M  V30 4 N -3.7007 0.3656 1.1893 0
M  V30 5 C -2.7273 0.4899 -1.5084 0
M  V30 6 C -2.2907 0.3745 0.9505 0
M  V30 7 O -2.3373 0.698 -2.69 0
M  V30 8 C -1.7307 0.0544 -0.4367 0
M  V30 9 O -1.5154 0.5933 1.9208 0
M  V30 10 C -0.3596 0.742 -0.6941 0
M  V30 11 C -1.5283 -1.4953 -0.5751 0
M  V30 12 C -0.1609 2.2094 -0.2679 0
M  V30 13 C -0.6682 -2.1746 0.5394 0
M  V30 14 C 1.0248 2.3617 0.7229 0
M  V30 15 C 0.619 -2.887 0.0536 0
M  V30 16 C 2.4292 2.3619 0.0744 0
M  V30 17 C 1.7851 -1.9708 -0.383 0
M  V30 18 C 2.9111 1.0622 -0.6211 0
M  V30 19 C 2.3865 -1.1232 0.7711 0
M  V30 20 C 3.4215 -0.0728 0.3084 0
M  V30 21 H -4.8054 0.7071 -2.0129 0
M  V30 22 H -4.0596 0.3914 2.1702 0
M  V30 23 H 0.3559 0.1644 -0.1302 0
M  V30 24 H -0.0629 0.6256 -1.7593 0
M  V30 25 H -1.0929 -1.7203 -1.5741 0
M  V30 26 H -2.531 -1.9795 -0.572 0
M  V30 27 H -1.0822 2.6067 0.2074 0
M  V30 28 H 0.0207 2.8383 -1.1662 0
M  V30 29 H -1.3022 -2.9557 1.0139 0
M  V30 30 H -0.4178 -1.4889 1.3654 0
M  V30 31 H 0.9752 1.6017 1.5301 0
M  V30 32 H 0.9029 3.3442 1.2296 0
M  V30 33 H 0.3569 -3.5583 -0.7928 0
M  V30 34 H 0.9854 -3.5413 0.8747 0
M  V30 35 H 3.172 2.6438 0.8516 0
M  V30 36 H 2.4492 3.1793 -0.6792 0
M  V30 37 H 1.4577 -1.3609 -1.2443 0
M  V30 38 H 2.5954 -2.6216 -0.7776 0
M  V30 39 H 2.1956 0.7102 -1.38 0
M  V30 40 H 3.7925 1.3686 -1.2265 0
M  V30 41 H 1.6217 -0.6299 1.3958 0
M  V30 42 H 2.9069 -1.8239 1.4597 0
M  V30 43 H 4.2289 -0.6205 -0.2262 0
M  V30 44 H 3.8969 0.3764 1.207 0
M  V30 END ATOM
M  V30 BEGIN BOND
M  V30 1 2 1 2
M  V30 2 1 2 3
M  V30 3 1 2 4
M  V30 4 1 3 5
M  V30 5 1 4 6
M  V30 6 2 5 7
M  V30 7 1 5 8
M  V30 8 2 6 9
M  V30 9 1 8 10
M  V30 10 1 8 11
M  V30 11 1 10 12
M  V30 12 1 11 13
M  V30 13 1 12 14
M  V30 14 1 13 15
M  V30 15 1 14 16
M  V30 16 1 15 17
M  V30 17 1 16 18
M  V30 18 1 17 19
M  V30 19 1 18 20
M  V30 20 1 6 8
M  V30 21 1 19 20
M  V30 22 1 3 21
M  V30 23 1 4 22
M  V30 24 1 10 23
M  V30 25 1 10 24
M  V30 26 1 11 25
M  V30 27 1 11 26
M  V30 28 1 12 27
M  V30 29 1 12 28
M  V30 30 1 13 29
M  V30 31 1 13 30
M  V30 32 1 14 31
M  V30 33 1 14 32
M  V30 34 1 15 33
M  V30 35 1 15 34
M  V30 36 1 16 35
M  V30 37 1 16 36
M  V30 38 1 17 37
M  V30 39 1 17 38
M  V30 40 1 18 39
M  V30 41 1 18 40
M  V30 42 1 19 41
M  V30 43 1 19 42
M  V30 44 1 20 43
M  V30 45 1 20 44
M  V30 END BOND
M  V30 END CTAB
M  END
>  <Structure No>
6347

>  <LogS>
-5.8

>  <MMFF94 Energy>
-96.575

$$$$
Compound 6348
Actelion Java MolfileCreator 2.0

  0  0  0  0  0  0              0 V3000
M  V30 BEGIN CTAB
M  V30 COUNTS 56 56 0 0 0
M  V30 BEGIN ATOM
M  V30 1 O 3.0922 1.4262 2.1399 0
M  V30 2 C 1.985 1.2133 1.6715 0
M  V30 3 C 1.6578 0.0144 0.8515 0 CFG=1
M  V30 4 C 0.8291 2.0974 1.9266 0
M  V30 5 C 0.206 0.2745 0.3774 0 CFG=2
M  V30 6 C 2.6307 -0.186 -0.3325 0
M  V30 7 C -0.3661 1.3257 1.3592 0 CFG=2
M  V30 8 C -0.5837 -1.0313 0.3406 0
M  V30 9 C 3.9302 -0.7998 0.1383 0
M  V30 10 O -1.2328 2.2081 0.6996 0
M  V30 11 C -1.7837 -1.2573 -0.243 0
M  V30 12 C 5.1243 -0.1813 0.1645 0
M  V30 13 C -2.7317 -0.252 -0.8702 0 CFG=2
M  V30 14 C 5.401 1.2069 -0.357 0
M  V30 15 O -2.0449 0.7909 -1.5106 0
M  V30 16 C -3.7073 0.314 0.1824 0
M  V30 17 C 5.6152 1.2333 -1.8798 0
M  V30 18 C -4.7699 -0.7079 0.6302 0
M  V30 19 C 6.7085 0.2726 -2.3821 0
M  V30 20 C -5.9811 -0.7458 -0.3138 0
M  V30 21 C 8.0461 0.5316 -1.7495 0
M  V30 22 C -6.917 -1.9047 0.0495 0
M  V30 23 O 8.3707 -0.0592 -0.6878 0
M  V30 24 O 8.9265 1.4342 -2.3218 0 CHG=-1
M  V30 25 C -8.1671 -1.9003 -0.8253 0
M  V30 26 H 1.7048 -0.8643 1.5345 0
M  V30 27 H 0.9858 3.0618 1.3986 0
M  V30 28 H 0.7018 2.2773 3.0148 0
M  V30 29 H 0.2483 0.7155 -0.6428 0
M  V30 30 H 2.7766 0.7651 -0.8816 0
M  V30 31 H 2.1762 -0.9005 -1.0512 0
M  V30 32 H -0.8955 0.8077 2.1938 0
M  V30 33 H -0.1087 -1.9113 0.7565 0
M  V30 34 H 3.8768 -1.8025 0.5521 0
M  V30 35 H -1.6762 2.7503 1.402 0
M  V30 36 H -2.1443 -2.2829 -0.2185 0
M  V30 37 H 5.9674 -0.7283 0.5899 0
M  V30 38 H -3.3341 -0.7917 -1.638 0
M  V30 39 H 4.5844 1.9022 -0.0773 0
M  V30 40 H 6.3137 1.5927 0.1435 0
M  V30 41 H -1.6355 0.4056 -2.3278 0
M  V30 42 H -3.1392 0.6281 1.0832 0
M  V30 43 H -4.2068 1.2234 -0.2163 0
M  V30 44 H 4.662 0.9731 -2.3867 0
M  V30 45 H 5.8761 2.2705 -2.1825 0
M  V30 46 H -5.1236 -0.4222 1.6438 0
M  V30 47 H -4.3195 -1.7198 0.7162 0
M  V30 48 H 6.4057 -0.7786 -2.1999 0
M  V30 49 H 6.8081 0.3935 -3.4805 0
M  V30 50 H -6.5333 0.2194 -0.2265 0
M  V30 51 H -5.6476 -0.8631 -1.3681 0
M  V30 52 H -7.2231 -1.8273 1.1173 0
M  V30 53 H -6.383 -2.8685 -0.1009 0
M  V30 54 H -7.8871 -2.0227 -1.8975 0
M  V30 55 H -8.7306 -0.9465 -0.6961 0
M  V30 56 H -8.8265 -2.7443 -0.5306 0
M  V30 END ATOM
M  V30 BEGIN BOND
M  V30 1 2 1 2
M  V30 2 1 2 3
M  V30 3 1 2 4
M  V30 4 1 3 5
M  V30 5 1 3 6
M  V30 6 1 4 7
M  V30 7 1 5 8
M  V30 8 1 6 9
M  V30 9 1 7 10
M  V30 10 2 8 11
M  V30 11 2 9 12
M  V30 12 1 11 13
M  V30 13 1 12 14
M  V30 14 1 13 15
M  V30 15 1 13 16
M  V30 16 1 14 17
M  V30 17 1 16 18
M  V30 18 1 17 19
M  V30 19 1 18 20
M  V30 20 1 19 21
M  V30 21 1 20 22
M  V30 22 2 21 23
M  V30 23 1 21 24
M  V30 24 1 22 25
M  V30 25 1 5 7
M  V30 26 1 3 26
M  V30 27 1 4 27
M  V30 28 1 4 28
M  V30 29 1 5 29
M  V30 30 1 6 30
M  V30 31 1 6 31
M  V30 32 1 7 32
M  V30 33 1 8 33
M  V30 34 1 9 34
M  V30 35 1 10 35
M  V30 36 1 11 36
M  V30 37 1 12 37
M  V30 38 1 13 38
M  V30 39 1 14 39
M  V30 40 1 14 40
M  V30 41 1 15 41
M  V30 42 1 16 42
M  V30 43 1 16 43
M  V30 44 1 17 44
M  V30 45 1 17 45
M  V30 46 1 18 46
M  V30 47 1 18 47
M  V30 48 1 19 48
M  V30 49 1 19 49
M  V30 50 1 20 50
M  V30 51 1 20 51
M  V30 52 1 22 52
M  V30 53 1 22 53
M  V30 54 1 25 54
M  V30 55 1 25 55
M  V30 56 1 25 56
M  V30 END BOND
M  V30 BEGIN COLLECTION
M  V30 MDLV30/STEABS ATOMS=(4 3 5 7 13)
M  V30 END COLLECTION
M  V30 END CTAB
M  END
>  <Structure No>
6348

>  <LogS>
-2.47

>  <MMFF94 Energy>
17.732

$$$$
Compound 6349
Actelion Java MolfileCreator 2.0

  0  0  0  0  0  0              0 V3000
M  V30 BEGIN CTAB
M  V30 COUNTS 26 29 0 0 0
M  V30 BEGIN ATOM
M  V30 1 Cl -2.3661 0.8186 2.6394 0
M  V30 2 C -1.761 0.4835 1.0219 0
M  V30 3 C -1.5342 1.3924 0.0651 0
M  V30 4 C -1.5052 -0.8714 0.411 0 CFG=1
M  V30 5 Cl -1.7902 3.1272 0.2095 0
M  V30 6 C -1.1293 0.6346 -1.1743 0 CFG=1
M  V30 7 Cl -2.2707 -2.2457 1.2583 0
M  V30 8 C -2.0402 -0.5952 -1.006 0
M  V30 9 C 0.0221 -1.0555 0.1299 0 CFG=1
M  V30 10 Cl -1.3297 1.5247 -2.7106 0
M  V30 11 C 0.2846 -0.0038 -0.977 0 CFG=2
M  V30 12 Cl -1.7605 -1.9206 -2.1986 0
M  V30 13 Cl -3.8078 -0.2169 -1.0657 0
M  V30 14 C 1.1097 -0.7031 1.195 0 CFG=1
M  V30 15 C 1.4866 0.8068 -0.3945 0 CFG=1
M  V30 16 C 2.4277 -1.0671 0.5453 0
M  V30 17 C 1.2736 0.808 1.1127 0
M  V30 18 C 2.6553 -0.155 -0.4147 0
M  V30 19 H 0.1982 -2.0889 -0.2494 0
M  V30 20 H 0.5964 -0.4935 -1.9289 0
M  V30 21 H 0.9527 -1.1263 2.2092 0
M  V30 22 H 1.6813 1.7934 -0.8644 0
M  V30 23 H 3.1138 -1.85 0.8497 0
M  V30 24 H 0.4505 1.4213 1.5001 0
M  V30 25 H 2.171 1.1734 1.6726 0
M  V30 26 H 3.5559 -0.0791 -1.0144 0
M  V30 END ATOM
M  V30 BEGIN BOND
M  V30 1 1 1 2
M  V30 2 2 2 3
M  V30 3 1 2 4
M  V30 4 1 3 5
M  V30 5 1 3 6
M  V30 6 1 4 7
M  V30 7 1 4 8
M  V30 8 1 4 9
M  V30 9 1 6 10
M  V30 10 1 6 11
M  V30 11 1 8 12
M  V30 12 1 8 13
M  V30 13 1 9 14
M  V30 14 1 11 15
M  V30 15 1 14 16
M  V30 16 1 14 17
M  V30 17 1 15 18
M  V30 18 1 6 8
M  V30 19 1 9 11
M  V30 20 1 15 17
M  V30 21 2 16 18
M  V30 22 1 9 19
M  V30 23 1 11 20
M  V30 24 1 14 21
M  V30 25 1 15 22
M  V30 26 1 16 23
M  V30 27 1 17 24
M  V30 28 1 17 25
M  V30 29 1 18 26
M  V30 END BOND
M  V30 BEGIN COLLECTION
M  V30 MDLV30/STEABS ATOMS=(6 4 6 9 11 14 15)
M  V30 END COLLECTION
M  V30 END CTAB
M  END
>  <Structure No>
6349

>  <LogS>
-6.31

>  <MMFF94 Energy>
119.28

$$$$
Compound 6350
Actelion Java MolfileCreator 2.0

  0  0  0  0  0  0              0 V3000
M  V30 BEGIN CTAB
M  V30 COUNTS 47 50 0 0 0
M  V30 BEGIN ATOM
M  V30 1 O 4.9614 -1.5433 1.7872 0
M  V30 2 C 3.9562 -1.113 1.1622 0
M  V30 3 C 3.3962 0.2019 1.511 0
M  V30 4 C 3.3588 -1.9423 0.0641 0
M  V30 5 C 2.3796 0.7397 0.816 0
M  V30 6 C 1.9345 -1.4797 -0.2832 0
M  V30 7 C 1.8282 0.0709 -0.4477 0 CFG=1
M  V30 8 C 1.705 1.9928 1.3171 0
M  V30 9 C 0.3356 0.5439 -0.6625 0 CFG=2
M  V30 10 C 2.6851 0.5378 -1.65 0
M  V30 11 C 0.2105 1.7343 1.5974 0
M  V30 12 C -0.4202 0.6241 0.702 0 CFG=1
M  V30 13 C -0.4488 -0.2303 -1.7607 0
M  V30 14 C -1.9503 0.8272 0.4889 0 CFG=1
M  V30 15 C -1.5335 -1.1327 -1.1711 0
M  V30 16 C -2.5846 -0.3059 -0.3799 0 CFG=1
M  V30 17 C -2.737 0.8021 1.8211 0
M  V30 18 C -3.2637 -1.1724 0.6337 0
M  V30 19 C -3.6532 0.2742 -1.3314 0
M  V30 20 C -3.2629 -0.615 2.0049 0
M  V30 21 O -3.7824 -2.245 0.361 0
M  V30 22 H 3.7827 0.7049 2.3896 0
M  V30 23 H 4.0105 -1.8835 -0.8329 0
M  V30 24 H 3.3245 -3.0064 0.3835 0
M  V30 25 H 1.2581 -1.8224 0.5279 0
M  V30 26 H 1.6291 -2.0093 -1.2081 0
M  V30 27 H 2.1892 2.3909 2.2362 0
M  V30 28 H 1.8038 2.7777 0.5362 0
M  V30 29 H 0.3737 1.5933 -1.0383 0
M  V30 30 H 3.7657 0.3542 -1.4741 0
M  V30 31 H 2.5663 1.6298 -1.8185 0
M  V30 32 H 2.3922 0.0076 -2.5798 0
M  V30 33 H -0.3364 2.694 1.4682 0
M  V30 34 H 0.1097 1.4358 2.6635 0
M  V30 35 H -0.2894 -0.3407 1.2384 0
M  V30 36 H 0.2164 -0.8294 -2.4118 0
M  V30 37 H -0.9332 0.4991 -2.4454 0
M  V30 38 H -2.0914 1.8201 0.0032 0
M  V30 39 H -1.0459 -1.8834 -0.5102 0
M  V30 40 H -2.0233 -1.7035 -1.9903 0
M  V30 41 H -3.6028 1.496 1.7349 0
M  V30 42 H -2.1466 1.1174 2.7044 0
M  V30 43 H -4.1578 -0.5377 -1.8981 0
M  V30 44 H -3.1956 0.9768 -2.0585 0
M  V30 45 H -4.4278 0.8298 -0.7589 0
M  V30 46 H -2.5803 -1.2099 2.649 0
M  V30 47 H -4.289 -0.6061 2.432 0
M  V30 END ATOM
M  V30 BEGIN BOND
M  V30 1 2 1 2
M  V30 2 1 2 3
M  V30 3 1 2 4
M  V30 4 2 3 5
M  V30 5 1 4 6
M  V30 6 1 5 7
M  V30 7 1 5 8
M  V30 8 1 7 9
M  V30 9 1 7 10
M  V30 10 1 8 11
M  V30 11 1 9 12
M  V30 12 1 9 13
M  V30 13 1 12 14
M  V30 14 1 13 15
M  V30 15 1 14 16
M  V30 16 1 14 17
M  V30 17 1 16 18
M  V30 18 1 16 19
M  V30 19 1 17 20
M  V30 20 2 18 21
M  V30 21 1 6 7
M  V30 22 1 11 12
M  V30 23 1 15 16
M  V30 24 1 18 20
M  V30 25 1 3 22
M  V30 26 1 4 23
M  V30 27 1 4 24
M  V30 28 1 6 25
M  V30 29 1 6 26
M  V30 30 1 8 27
M  V30 31 1 8 28
M  V30 32 1 9 29
M  V30 33 1 10 30
M  V30 34 1 10 31
M  V30 35 1 10 32
M  V30 36 1 11 33
M  V30 37 1 11 34
M  V30 38 1 12 35
M  V30 39 1 13 36
M  V30 40 1 13 37
M  V30 41 1 14 38
M  V30 42 1 15 39
M  V30 43 1 15 40
M  V30 44 1 17 41
M  V30 45 1 17 42
M  V30 46 1 19 43
M  V30 47 1 19 44
M  V30 48 1 19 45
M  V30 49 1 20 46
M  V30 50 1 20 47
M  V30 END BOND
M  V30 BEGIN COLLECTION
M  V30 MDLV30/STEABS ATOMS=(5 7 9 12 14 16)
M  V30 END COLLECTION
M  V30 END CTAB
M  END
>  <Structure No>
6350

>  <LogS>
-3.7

>  <MMFF94 Energy>
64.917

$$$$
Compound 6351
Actelion Java MolfileCreator 2.0

  0  0  0  0  0  0              0 V3000
M  V30 BEGIN CTAB
M  V30 COUNTS 39 40 0 0 0
M  V30 BEGIN ATOM
M  V30 1 O 0.8834 2.9739 2.7325 0
M  V30 2 C 1.2597 2.0962 1.9118 0
M  V30 3 N 1.2855 2.3788 0.5138 0
M  V30 4 N 1.7231 0.8284 2.3726 0
M  V30 5 C 1.6512 1.3422 -0.4046 0
M  V30 6 C 2.0954 -0.1678 1.414 0
M  V30 7 O 2.1645 1.6653 -1.51 0
M  V30 8 C 1.4963 -0.1238 0.0033 0
M  V30 9 O 2.872 -1.0971 1.7695 0
M  V30 10 C 0.0163 -0.6095 0.0923 0
M  V30 11 C 2.3094 -1.0842 -0.9266 0
M  V30 12 C -1.0574 -0.1619 -0.6495 0
M  V30 13 C -0.2926 -1.8069 0.9948 0
M  V30 14 C 1.7559 -1.2656 -2.3451 0
M  V30 15 C -2.4303 -0.7449 -0.344 0
M  V30 16 C -1.0167 0.8544 -1.7734 0
M  V30 17 C -1.485 -1.5004 1.9142 0
M  V30 18 C -2.6544 -0.8128 1.1728 0
M  V30 19 C -1.5575 2.2125 -1.328 0
M  V30 20 H 1.1713 3.3616 0.1781 0
M  V30 21 H 1.8899 0.6687 3.3914 0
M  V30 22 H 3.3621 -0.7317 -1.0003 0
M  V30 23 H 2.3393 -2.098 -0.4694 0
M  V30 24 H -0.546 -2.6772 0.3503 0
M  V30 25 H 0.5622 -2.141 1.6125 0
M  V30 26 H 1.8064 -0.3257 -2.9276 0
M  V30 27 H 0.7119 -1.6399 -2.3223 0
M  V30 28 H 2.372 -2.0193 -2.8791 0
M  V30 29 H -2.4963 -1.7672 -0.7751 0
M  V30 30 H -3.243 -0.1426 -0.8039 0
M  V30 31 H -1.6592 0.4865 -2.6027 0
M  V30 32 H -0.0252 0.9543 -2.2339 0
M  V30 33 H -1.8386 -2.4507 2.37 0
M  V30 34 H -1.1401 -0.8428 2.7423 0
M  V30 35 H -2.7733 0.2236 1.5595 0
M  V30 36 H -3.6023 -1.3555 1.3784 0
M  V30 37 H -1.3238 2.9781 -2.0973 0
M  V30 38 H -2.6599 2.1661 -1.2044 0
M  V30 39 H -1.1157 2.525 -0.3626 0
M  V30 END ATOM
M  V30 BEGIN BOND
M  V30 1 2 1 2
M  V30 2 1 2 3
M  V30 3 1 2 4
M  V30 4 1 3 5
M  V30 5 1 4 6
M  V30 6 2 5 7
M  V30 7 1 5 8
M  V30 8 2 6 9
M  V30 9 1 8 10
M  V30 10 1 8 11
M  V30 11 2 10 12
M  V30 12 1 10 13
M  V30 13 1 11 14
M  V30 14 1 12 15
M  V30 15 1 12 16
M  V30 16 1 13 17
M  V30 17 1 15 18
M  V30 18 1 16 19
M  V30 19 1 6 8
M  V30 20 1 17 18
M  V30 21 1 3 20
M  V30 22 1 4 21
M  V30 23 1 11 22
M  V30 24 1 11 23
M  V30 25 1 13 24
M  V30 26 1 13 25
M  V30 27 1 14 26
M  V30 28 1 14 27
M  V30 29 1 14 28
M  V30 30 1 15 29
M  V30 31 1 15 30
M  V30 32 1 16 31
M  V30 33 1 16 32
M  V30 34 1 17 33
M  V30 35 1 17 34
M  V30 36 1 18 35
M  V30 37 1 18 36
M  V30 38 1 19 37
M  V30 39 1 19 38
M  V30 40 1 19 39
M  V30 END BOND
M  V30 END CTAB
M  END
>  <Structure No>
6351

>  <LogS>
-3.53

>  <MMFF94 Energy>
-76.993

$$$$
Compound 6352
Actelion Java MolfileCreator 2.0

  0  0  0  0  0  0              0 V3000
M  V30 BEGIN CTAB
M  V30 COUNTS 51 54 0 0 0
M  V30 BEGIN ATOM
M  V30 1 O 6.0086 0.8914 -1.1346 0
M  V30 2 C 4.8631 0.7844 -0.6223 0
M  V30 3 C 4.4033 -0.5284 -0.1365 0
M  V30 4 C 3.9896 2.0011 -0.4943 0
M  V30 5 C 3.218 -0.6617 0.4795 0
M  V30 6 C 2.516 1.6117 -0.3065 0
M  V30 7 C 2.3818 0.5645 0.8285 0 CFG=1
M  V30 8 C 2.6729 -2.0325 0.8031 0
M  V30 9 C 0.9153 0.135 1.1434 0 CFG=2
M  V30 10 C 1.2449 -2.2231 0.2403 0
M  V30 11 C 0.43 -0.9 0.0929 0 CFG=1
M  V30 12 C -0.0599 1.3132 1.3881 0
M  V30 13 C -1.1078 -1.1297 0.1775 0 CFG=1
M  V30 14 C -1.0982 1.4871 0.2706 0
M  V30 15 C -1.9308 0.1886 -0.0238 0 CFG=1
M  V30 16 C -1.6179 -2.1229 -0.8972 0
M  V30 17 C -2.3481 0.1057 -1.5431 0 CFG=2
M  V30 18 C -3.2258 0.1445 0.887 0
M  V30 19 C -2.6259 -1.3854 -1.7726 0
M  V30 20 O -1.3184 0.5605 -2.4005 0
M  V30 21 C -3.5466 0.8992 -1.8815 0
M  V30 22 C -3.027 0.2648 2.4019 0
M  V30 23 C -4.5233 1.5474 -2.1645 0
M  V30 24 H 5.0101 -1.4 -0.3509 0
M  V30 25 H 4.0884 2.6304 -1.4049 0
M  V30 26 H 4.3318 2.5965 0.3794 0
M  V30 27 H 1.9502 2.5367 -0.0778 0
M  V30 28 H 2.1248 1.204 -1.2634 0
M  V30 29 H 2.8067 1.0134 1.7545 0
M  V30 30 H 2.6484 -2.1402 1.9091 0
M  V30 31 H 3.3303 -2.8412 0.4145 0
M  V30 32 H 0.9553 -0.4013 2.1207 0
M  V30 33 H 1.3316 -2.7058 -0.7567 0
M  V30 34 H 0.7053 -2.9348 0.9028 0
M  V30 35 H 0.6567 -0.4954 -0.9123 0
M  V30 36 H 0.4843 2.2674 1.5397 0
M  V30 37 H -0.5694 1.1537 2.3547 0
M  V30 38 H -1.3093 -1.5771 1.1728 0
M  V30 39 H -1.7804 2.3245 0.5332 0
M  V30 40 H -0.5352 1.833 -0.6187 0
M  V30 41 H -0.7993 -2.4994 -1.5459 0
M  V30 42 H -2.1023 -3.002 -0.4175 0
M  V30 43 H -3.9133 0.9725 0.6147 0
M  V30 44 H -3.7789 -0.8012 0.7038 0
M  V30 45 H -3.6576 -1.6558 -1.4524 0
M  V30 46 H -2.5184 -1.6675 -2.8428 0
M  V30 47 H -0.7097 -0.1839 -2.6398 0
M  V30 48 H -3.9823 0.0176 2.9117 0
M  V30 49 H -2.777 1.3102 2.6774 0
M  V30 50 H -2.2554 -0.4298 2.7865 0
M  V30 51 H -5.3804 2.1161 -2.4125 0
M  V30 END ATOM
M  V30 BEGIN BOND
M  V30 1 2 1 2
M  V30 2 1 2 3
M  V30 3 1 2 4
M  V30 4 2 3 5
M  V30 5 1 4 6
M  V30 6 1 5 7
M  V30 7 1 5 8
M  V30 8 1 7 9
M  V30 9 1 8 10
M  V30 10 1 9 11
M  V30 11 1 9 12
M  V30 12 1 11 13
M  V30 13 1 12 14
M  V30 14 1 13 15
M  V30 15 1 13 16
M  V30 16 1 15 17
M  V30 17 1 15 18
M  V30 18 1 16 19
M  V30 19 1 17 20
M  V30 20 1 17 21
M  V30 21 1 18 22
M  V30 22 3 21 23
M  V30 23 1 6 7
M  V30 24 1 10 11
M  V30 25 1 14 15
M  V30 26 1 17 19
M  V30 27 1 3 24
M  V30 28 1 4 25
M  V30 29 1 4 26
M  V30 30 1 6 27
M  V30 31 1 6 28
M  V30 32 1 7 29
M  V30 33 1 8 30
M  V30 34 1 8 31
M  V30 35 1 9 32
M  V30 36 1 10 33
M  V30 37 1 10 34
M  V30 38 1 11 35
M  V30 39 1 12 36
M  V30 40 1 12 37
M  V30 41 1 13 38
M  V30 42 1 14 39
M  V30 43 1 14 40
M  V30 44 1 16 41
M  V30 45 1 16 42
M  V30 46 1 18 43
M  V30 47 1 18 44
M  V30 48 1 19 45
M  V30 49 1 19 46
M  V30 50 1 20 47
M  V30 51 1 22 48
M  V30 52 1 22 49
M  V30 53 1 22 50
M  V30 54 1 23 51
M  V30 END BOND
M  V30 BEGIN COLLECTION
M  V30 MDLV30/STEABS ATOMS=(6 7 9 11 13 15 17)
M  V30 END COLLECTION
M  V30 END CTAB
M  END
>  <Structure No>
6352

>  <LogS>
-5.19

>  <MMFF94 Energy>
74.98

$$$$
Compound 6353
Actelion Java MolfileCreator 2.0

  0  0  0  0  0  0              0 V3000
M  V30 BEGIN CTAB
M  V30 COUNTS 14 15 0 0 0
M  V30 BEGIN ATOM
M  V30 1 N -1.1321 1.6177 0.1616 0
M  V30 2 C -0.0531 0.7947 0.2033 0
M  V30 3 C -2.3928 1.1068 0.1677 0
M  V30 4 N 1.2066 1.3032 0.1974 0
M  V30 5 C -0.2349 -0.5967 0.2529 0
M  V30 6 N -2.5868 -0.2393 0.2155 0
M  V30 7 C 2.2906 0.4826 0.239 0
M  V30 8 N 0.8478 -1.4164 0.2945 0
M  V30 9 C -1.535 -1.0996 0.2583 0
M  V30 10 C 2.1077 -0.904 0.2885 0
M  V30 11 H -3.244 1.7727 0.1343 0
M  V30 12 H 3.2875 0.9025 0.2337 0
M  V30 13 H -1.7133 -2.1664 0.2959 0
M  V30 14 H 2.9616 -1.5671 0.3219 0
M  V30 END ATOM
M  V30 BEGIN BOND
M  V30 1 1 1 2
M  V30 2 2 1 3
M  V30 3 2 2 4
M  V30 4 1 2 5
M  V30 5 1 3 6
M  V30 6 1 4 7
M  V30 7 2 5 8
M  V30 8 1 5 9
M  V30 9 2 7 10
M  V30 10 2 6 9
M  V30 11 1 8 10
M  V30 12 1 3 11
M  V30 13 1 7 12
M  V30 14 1 9 13
M  V30 15 1 10 14
M  V30 END BOND
M  V30 END CTAB
M  END
>  <Structure No>
6353

>  <LogS>
0.02

>  <MMFF94 Energy>
66.498

$$$$
Compound 6354
Actelion Java MolfileCreator 2.0

  0  0  0  0  0  0              0 V3000
M  V30 BEGIN CTAB
M  V30 COUNTS 49 51 0 0 0
M  V30 BEGIN ATOM
M  V30 1 O 3.784 -0.402 -2.0919 0
M  V30 2 C 3.3687 -0.5605 -0.9132 0
M  V30 3 N 2.2553 -1.3777 -0.5615 0
M  V30 4 C 3.9248 0.085 0.2734 0
M  V30 5 C 2.1341 -1.1658 0.8433 0
M  V30 6 C 1.1749 -1.7748 -1.4547 0
M  V30 7 C 3.2083 -0.3009 1.3255 0
M  V30 8 C 5.1454 0.9556 0.359 0
M  V30 9 O 1.2028 -1.6342 1.5504 0
M  V30 10 O 0.2622 -0.6929 -1.5978 0
M  V30 11 C 3.4068 0.2279 2.7171 0
M  V30 12 C 5.1684 1.7423 1.683 0
M  V30 13 C -0.9436 -0.8103 -2.2927 0
M  V30 14 C 4.8119 0.8378 2.8781 0
M  V30 15 O -1.1945 -1.8455 -2.969 0
M  V30 16 C -1.8973 0.3511 -2.3198 0 CFG=1
M  V30 17 C -3.3695 0.0841 -1.9618 0
M  V30 18 C -2.4745 0.8561 -0.9792 0 CFG=1
M  V30 19 C -4.3901 0.9386 -2.7191 0
M  V30 20 C -3.8084 -1.3499 -1.603 0
M  V30 21 C -2.112 0.1388 0.3046 0
M  V30 22 C -2.8868 0.1892 1.4067 0
M  V30 23 C -2.441 -0.5551 2.6392 0
M  V30 24 C -4.1751 0.9762 1.428 0
M  V30 25 H 1.5891 -2.054 -2.4472 0
M  V30 26 H 0.6503 -2.6564 -1.0259 0
M  V30 27 H 5.1617 1.6641 -0.496 0
M  V30 28 H 6.0468 0.3083 0.2983 0
M  V30 29 H 2.6409 1.0089 2.9131 0
M  V30 30 H 3.2688 -0.5932 3.4531 0
M  V30 31 H 6.1797 2.1769 1.8352 0
M  V30 32 H 4.4397 2.5812 1.6277 0
M  V30 33 H 4.8502 1.4318 3.8174 0
M  V30 34 H 5.5626 0.021 2.958 0
M  V30 35 H -1.7128 1.1488 -3.0707 0
M  V30 36 H -2.6248 1.9564 -0.9359 0
M  V30 37 H -4.6408 0.4474 -3.6825 0
M  V30 38 H -5.3149 1.0338 -2.1128 0
M  V30 39 H -4.0055 1.9594 -2.9332 0
M  V30 40 H -4.7412 -1.3115 -1.0031 0
M  V30 41 H -4.0154 -1.9129 -2.5368 0
M  V30 42 H -3.0487 -1.91 -1.0209 0
M  V30 43 H -1.1818 -0.4125 0.3591 0
M  V30 44 H -1.4319 -0.2053 2.9442 0
M  V30 45 H -3.1336 -0.3937 3.4906 0
M  V30 46 H -2.3961 -1.6433 2.4231 0
M  V30 47 H -3.9604 2.0533 1.2611 0
M  V30 48 H -4.8588 0.6121 0.633 0
M  V30 49 H -4.6981 0.8742 2.4017 0
M  V30 END ATOM
M  V30 BEGIN BOND
M  V30 1 2 1 2
M  V30 2 1 2 3
M  V30 3 1 2 4
M  V30 4 1 3 5
M  V30 5 1 3 6
M  V30 6 2 4 7
M  V30 7 1 4 8
M  V30 8 2 5 9
M  V30 9 1 6 10
M  V30 10 1 7 11
M  V30 11 1 8 12
M  V30 12 1 10 13
M  V30 13 1 11 14
M  V30 14 2 13 15
M  V30 15 1 13 16
M  V30 16 1 16 17
M  V30 17 1 16 18
M  V30 18 1 17 19
M  V30 19 1 17 20
M  V30 20 1 18 21
M  V30 21 2 21 22
M  V30 22 1 22 23
M  V30 23 1 22 24
M  V30 24 1 5 7
M  V30 25 1 12 14
M  V30 26 1 17 18
M  V30 27 1 6 25
M  V30 28 1 6 26
M  V30 29 1 8 27
M  V30 30 1 8 28
M  V30 31 1 11 29
M  V30 32 1 11 30
M  V30 33 1 12 31
M  V30 34 1 12 32
M  V30 35 1 14 33
M  V30 36 1 14 34
M  V30 37 1 16 35
M  V30 38 1 18 36
M  V30 39 1 19 37
M  V30 40 1 19 38
M  V30 41 1 19 39
M  V30 42 1 20 40
M  V30 43 1 20 41
M  V30 44 1 20 42
M  V30 45 1 21 43
M  V30 46 1 23 44
M  V30 47 1 23 45
M  V30 48 1 23 46
M  V30 49 1 24 47
M  V30 50 1 24 48
M  V30 51 1 24 49
M  V30 END BOND
M  V30 BEGIN COLLECTION
M  V30 MDLV30/STEABS ATOMS=(2 16 18)
M  V30 END COLLECTION
M  V30 END CTAB
M  END
>  <Structure No>
6354

>  <LogS>
-5.26

>  <MMFF94 Energy>
-70.847

$$$$
Compound 6355
Actelion Java MolfileCreator 2.0

  0  0  0  0  0  0              0 V3000
M  V30 BEGIN CTAB
M  V30 COUNTS 21 21 0 0 0
M  V30 BEGIN ATOM
M  V30 1 O 0.72 1.2002 -1.7607 0
M  V30 2 C 0.508 0.5188 -0.7199 0
M  V30 3 N 1.5874 0.2715 0.1948 0
M  V30 4 C -0.8484 -0.0277 -0.4737 0
M  V30 5 C 2.8815 0.9338 0.0353 0
M  V30 6 C -1.7321 -0.2278 -1.5512 0
M  V30 7 C -1.2869 -0.3306 0.8297 0
M  V30 8 C 3.8225 0.5244 1.1238 0
M  V30 9 C -3.0154 -0.7375 -1.331 0
M  V30 10 C -2.5721 -0.8392 1.0439 0
M  V30 11 O 3.8363 1.1493 2.2169 0
M  V30 12 O 4.6462 -0.5804 0.9517 0 CHG=-1
M  V30 13 C -3.4342 -1.0451 -0.035 0
M  V30 14 H 1.4648 -0.4357 0.9543 0
M  V30 15 H 3.3194 0.6618 -0.9488 0
M  V30 16 H 2.7404 2.036 0.0657 0
M  V30 17 H -1.4268 -3.0E-4 -2.5651 0
M  V30 18 H -0.6533 -0.1536 1.6882 0
M  V30 19 H -3.6855 -0.8939 -2.1664 0
M  V30 20 H -2.9022 -1.0673 2.0492 0
M  V30 21 H -4.4284 -1.4381 0.1337 0
M  V30 END ATOM
M  V30 BEGIN BOND
M  V30 1 2 1 2
M  V30 2 1 2 3
M  V30 3 1 2 4
M  V30 4 1 3 5
M  V30 5 2 4 6
M  V30 6 1 4 7
M  V30 7 1 5 8
M  V30 8 1 6 9
M  V30 9 2 7 10
M  V30 10 2 8 11
M  V30 11 1 8 12
M  V30 12 2 9 13
M  V30 13 1 10 13
M  V30 14 1 3 14
M  V30 15 1 5 15
M  V30 16 1 5 16
M  V30 17 1 6 17
M  V30 18 1 7 18
M  V30 19 1 9 19
M  V30 20 1 10 20
M  V30 21 1 13 21
M  V30 END BOND
M  V30 END CTAB
M  END
>  <Structure No>
6355

>  <LogS>
-1.69

>  <MMFF94 Energy>
58.971

$$$$
Compound 6356
Actelion Java MolfileCreator 2.0

  0  0  0  0  0  0              0 V3000
M  V30 BEGIN CTAB
M  V30 COUNTS 24 24 0 0 0
M  V30 BEGIN ATOM
M  V30 1 Cl 5.7711 -0.4799 0.0799 0
M  V30 2 C 4.0438 -0.174 0.0931 0
M  V30 3 C 3.5654 1.1392 0.1334 0
M  V30 4 C 3.1429 -1.2427 0.0529 0
M  V30 5 C 2.1887 1.3841 0.1413 0
M  V30 6 C 1.7655 -1.0008 0.0617 0
M  V30 7 C 1.276 0.3174 0.1239 0
M  V30 8 N -0.1351 0.5952 0.1095 0
M  V30 9 C -1.1245 -0.2651 0.7033 0
M  V30 10 O -0.7731 -1.1123 1.5702 0
M  V30 11 N -2.5183 -0.1498 0.3462 0
M  V30 12 C -3.5063 -0.9824 1.0401 0
M  V30 13 C -2.9423 0.7565 -0.7253 0
M  V30 14 H 4.2584 1.9706 0.1565 0
M  V30 15 H 3.5085 -2.2607 0.0064 0
M  V30 16 H 1.8316 2.406 0.1708 0
M  V30 17 H 1.0876 -1.8413 -0.0039 0
M  V30 18 H -0.4398 1.5203 -0.2666 0
M  V30 19 H -4.5383 -0.784 0.6818 0
M  V30 20 H -3.4744 -0.7706 2.1299 0
M  V30 21 H -3.2779 -2.0557 0.8694 0
M  V30 22 H -2.3624 0.5457 -1.6487 0
M  V30 23 H -2.7782 1.8094 -0.4137 0
M  V30 24 H -4.0194 0.6338 -0.9652 0
M  V30 END ATOM
M  V30 BEGIN BOND
M  V30 1 1 1 2
M  V30 2 2 2 3
M  V30 3 1 2 4
M  V30 4 1 3 5
M  V30 5 2 4 6
M  V30 6 2 5 7
M  V30 7 1 7 8
M  V30 8 1 8 9
M  V30 9 2 9 10
M  V30 10 1 9 11
M  V30 11 1 11 12
M  V30 12 1 11 13
M  V30 13 1 6 7
M  V30 14 1 3 14
M  V30 15 1 4 15
M  V30 16 1 5 16
M  V30 17 1 6 17
M  V30 18 1 8 18
M  V30 19 1 12 19
M  V30 20 1 12 20
M  V30 21 1 12 21
M  V30 22 1 13 22
M  V30 23 1 13 23
M  V30 24 1 13 24
M  V30 END BOND
M  V30 END CTAB
M  END
>  <Structure No>
6356

>  <LogS>
-2.89

>  <MMFF94 Energy>
-48.043

$$$$
Compound 6357
Actelion Java MolfileCreator 2.0

  0  0  0  0  0  0              0 V3000
M  V30 BEGIN CTAB
M  V30 COUNTS 16 16 0 0 0
M  V30 BEGIN ATOM
M  V30 1 O 2.0465 -1.8007 0.9 0
M  V30 2 N 1.209 -1.7803 -0.0253 0 CHG=1
M  V30 3 O 1.0839 -2.8879 -0.8317 0 CHG=-1
M  V30 4 C 0.2207 -0.7391 -0.0806 0
M  V30 5 C 0.5523 0.6228 0.1493 0
M  V30 6 C -1.1199 -1.0907 -0.3141 0
M  V30 7 C 1.954 1.0856 0.2739 0
M  V30 8 C -0.48 1.5788 0.1973 0
M  V30 9 C -2.126 -0.1244 -0.2817 0
M  V30 10 O 2.2229 2.1252 0.9325 0
M  V30 11 O 2.9834 0.4163 -0.377 0 CHG=-1
M  V30 12 C -1.808 1.2058 -0.0159 0
M  V30 13 H -1.3915 -2.1235 -0.4914 0
M  V30 14 H -0.2563 2.6243 0.3712 0
M  V30 15 H -3.1561 -0.41 -0.4516 0
M  V30 16 H -2.5908 1.9528 0.0131 0
M  V30 END ATOM
M  V30 BEGIN BOND
M  V30 1 2 1 2
M  V30 2 1 2 3
M  V30 3 1 2 4
M  V30 4 2 4 5
M  V30 5 1 4 6
M  V30 6 1 5 7
M  V30 7 1 5 8
M  V30 8 2 6 9
M  V30 9 2 7 10
M  V30 10 1 7 11
M  V30 11 2 8 12
M  V30 12 1 9 12
M  V30 13 1 6 13
M  V30 14 1 8 14
M  V30 15 1 9 15
M  V30 16 1 12 16
M  V30 END BOND
M  V30 END CTAB
M  END
>  <Structure No>
6357

>  <LogS>
-1.35

>  <MMFF94 Energy>
41.545

$$$$
Compound 6358
Actelion Java MolfileCreator 2.0

  0  0  0  0  0  0              0 V3000
M  V30 BEGIN CTAB
M  V30 COUNTS 16 16 0 0 0
M  V30 BEGIN ATOM
M  V30 1 S 4.7278 1.1597 -0.9111 0
M  V30 2 C 3.6103 0.4687 0.0216 0
M  V30 3 N 2.727 -0.0773 0.7587 0
M  V30 4 C 1.3241 -0.0906 0.4514 0
M  V30 5 C 0.8036 0.5102 -0.7112 0
M  V30 6 C 0.4487 -0.7237 1.341 0
M  V30 7 C -0.5695 0.4733 -0.9707 0
M  V30 8 C -0.9245 -0.7611 1.0823 0
M  V30 9 C -1.4482 -0.163 -0.0762 0
M  V30 10 C -2.9021 -0.2044 -0.3469 0
M  V30 11 O -3.3763 0.3304 -1.3844 0
M  V30 12 O -3.7664 -0.835 0.5409 0 CHG=-1
M  V30 13 H 1.4545 1.0076 -1.4185 0
M  V30 14 H 0.8338 -1.1901 2.2393 0
M  V30 15 H -0.9428 0.9433 -1.8721 0
M  V30 16 H -1.5751 -1.2588 1.7905 0
M  V30 END ATOM
M  V30 BEGIN BOND
M  V30 1 2 1 2
M  V30 2 2 2 3
M  V30 3 1 3 4
M  V30 4 2 4 5
M  V30 5 1 4 6
M  V30 6 1 5 7
M  V30 7 2 6 8
M  V30 8 2 7 9
M  V30 9 1 9 10
M  V30 10 2 10 11
M  V30 11 1 10 12
M  V30 12 1 8 9
M  V30 13 1 5 13
M  V30 14 1 6 14
M  V30 15 1 7 15
M  V30 16 1 8 16
M  V30 END BOND
M  V30 END CTAB
M  END
>  <Structure No>
6358

>  <LogS>
-3.98

>  <MMFF94 Energy>
29.048

$$$$
Compound 6359
Actelion Java MolfileCreator 2.0

  0  0  0  0  0  0              0 V3000
M  V30 BEGIN CTAB
M  V30 COUNTS 26 26 0 0 0
M  V30 BEGIN ATOM
M  V30 1 Cl 5.3945 -0.1607 -0.7233 0
M  V30 2 C 3.6591 -0.035 -0.4993 0
M  V30 3 C 2.8449 -1.1535 -0.6989 0
M  V30 4 C 3.0887 1.1835 -0.1201 0
M  V30 5 C 1.4619 -1.0554 -0.5207 0
M  V30 6 C 1.7058 1.2862 0.0592 0
M  V30 7 C 0.8755 0.168 -0.1411 0
M  V30 8 C -0.6264 0.2841 0.0608 0 CFG=2
M  V30 9 C -1.0554 -0.6004 1.2596 0
M  V30 10 C -1.3647 -0.0716 -1.2545 0
M  V30 11 N -2.426 -0.3287 1.6988 0 CHG=1
M  V30 12 C -2.7433 0.5148 -1.3277 0
M  V30 13 O -2.9083 1.7619 -1.2658 0
M  V30 14 O -3.8437 -0.3145 -1.5049 0 CHG=-1
M  V30 15 H 3.2822 -2.0994 -0.9916 0
M  V30 16 H 3.7155 2.0522 0.0367 0
M  V30 17 H 0.8491 -1.9335 -0.6796 0
M  V30 18 H 1.2852 2.2393 0.3547 0
M  V30 19 H -0.8587 1.3422 0.3184 0
M  V30 20 H -0.3675 -0.4025 2.1129 0
M  V30 21 H -0.9577 -1.6781 1.0007 0
M  V30 22 H -0.7951 0.3258 -2.1234 0
M  V30 23 H -1.4231 -1.1748 -1.3773 0
M  V30 24 H -2.5785 -0.7768 2.6313 0
M  V30 25 H -3.1095 -0.7432 1.0271 0
M  V30 26 H -2.5889 0.7 1.7933 0
M  V30 END ATOM
M  V30 BEGIN BOND
M  V30 1 1 1 2
M  V30 2 2 2 3
M  V30 3 1 2 4
M  V30 4 1 3 5
M  V30 5 2 4 6
M  V30 6 2 5 7
M  V30 7 1 7 8
M  V30 8 1 8 9
M  V30 9 1 8 10
M  V30 10 1 9 11
M  V30 11 1 10 12
M  V30 12 2 12 13
M  V30 13 1 12 14
M  V30 14 1 6 7
M  V30 15 1 3 15
M  V30 16 1 4 16
M  V30 17 1 5 17
M  V30 18 1 6 18
M  V30 19 1 8 19
M  V30 20 1 9 20
M  V30 21 1 9 21
M  V30 22 1 10 22
M  V30 23 1 10 23
M  V30 24 1 11 24
M  V30 25 1 11 25
M  V30 26 1 11 26
M  V30 END BOND
M  V30 BEGIN COLLECTION
M  V30 MDLV30/STEABS ATOMS=(1 8)
M  V30 END COLLECTION
M  V30 END CTAB
M  END
>  <Structure No>
6359

>  <LogS>
-1.7

>  <MMFF94 Energy>
-75.099

$$$$
Compound 6360
Actelion Java MolfileCreator 2.0

  0  0  0  0  0  0              0 V3000
M  V30 BEGIN CTAB
M  V30 COUNTS 16 16 0 0 0
M  V30 BEGIN ATOM
M  V30 1 S 4.1463 -1.9057 -0.1656 0
M  V30 2 C 3.2801 -0.553 -0.0378 0
M  V30 3 N 2.5953 0.5157 0.0629 0
M  V30 4 C 1.1632 0.5634 -0.0376 0
M  V30 5 C 0.3857 -0.5921 -0.2607 0
M  V30 6 C 0.5254 1.8024 0.0909 0
M  V30 7 C -1.0153 -0.5055 -0.3536 0
M  V30 8 C -0.8643 1.8957 -1.0E-4 0
M  V30 9 C -1.8258 -1.7215 -0.5876 0
M  V30 10 C -1.6327 0.7507 -0.2209 0
M  V30 11 O -3.0807 -1.6486 -0.6715 0
M  V30 12 O -1.2133 -2.9625 -0.7184 0 CHG=-1
M  V30 13 H 0.8699 -1.5548 -0.3614 0
M  V30 14 H 1.1093 2.6981 0.2623 0
M  V30 15 H -1.3479 2.8588 0.1008 0
M  V30 16 H -2.709 0.8494 -0.2877 0
M  V30 END ATOM
M  V30 BEGIN BOND
M  V30 1 2 1 2
M  V30 2 2 2 3
M  V30 3 1 3 4
M  V30 4 2 4 5
M  V30 5 1 4 6
M  V30 6 1 5 7
M  V30 7 2 6 8
M  V30 8 1 7 9
M  V30 9 2 7 10
M  V30 10 2 9 11
M  V30 11 1 9 12
M  V30 12 1 8 10
M  V30 13 1 5 13
M  V30 14 1 6 14
M  V30 15 1 8 15
M  V30 16 1 10 16
M  V30 END BOND
M  V30 END CTAB
M  END
>  <Structure No>
6360

>  <LogS>
-3.25

>  <MMFF94 Energy>
23.836

$$$$
Compound 6361
Actelion Java MolfileCreator 2.0

  0  0  0  0  0  0              0 V3000
M  V30 BEGIN CTAB
M  V30 COUNTS 25 25 0 0 0
M  V30 BEGIN ATOM
M  V30 1 Cl -0.7187 -4.3184 -0.7986 0
M  V30 2 C -0.3147 -2.6509 -0.454 0
M  V30 3 N 0.9811 -2.2879 -0.2863 0
M  V30 4 N -1.2977 -1.7219 -0.3547 0
M  V30 5 C 1.2987 -0.995 -0.0188 0
M  V30 6 C -0.9882 -0.4259 -0.0872 0
M  V30 7 N 0.3104 -0.0667 0.0799 0
M  V30 8 N 2.6697 -0.6215 0.1565 0
M  V30 9 N -2.0182 0.5628 0.0197 0
M  V30 10 C 3.0582 0.7584 0.4459 0
M  V30 11 C -3.4303 0.2223 -0.1525 0
M  V30 12 C 4.5716 0.8826 0.5853 0
M  V30 13 C -4.3138 1.4545 0.0114 0
M  V30 14 H 3.4003 -1.3649 0.0727 0
M  V30 15 H -1.7388 1.5491 0.2266 0
M  V30 16 H 2.7143 1.4203 -0.378 0
M  V30 17 H 2.5786 1.0872 1.3931 0
M  V30 18 H -3.7228 -0.5369 0.6044 0
M  V30 19 H -3.587 -0.2039 -1.1667 0
M  V30 20 H 4.9326 0.2407 1.4168 0
M  V30 21 H 4.8412 1.9372 0.8043 0
M  V30 22 H 5.0687 0.5746 -0.3588 0
M  V30 23 H -5.3788 1.1709 -0.1235 0
M  V30 24 H -4.1838 1.8854 1.0269 0
M  V30 25 H -4.0476 2.2192 -0.7487 0
M  V30 END ATOM
M  V30 BEGIN BOND
M  V30 1 1 1 2
M  V30 2 2 2 3
M  V30 3 1 2 4
M  V30 4 1 3 5
M  V30 5 2 4 6
M  V30 6 2 5 7
M  V30 7 1 5 8
M  V30 8 1 6 9
M  V30 9 1 8 10
M  V30 10 1 9 11
M  V30 11 1 10 12
M  V30 12 1 11 13
M  V30 13 1 6 7
M  V30 14 1 8 14
M  V30 15 1 9 15
M  V30 16 1 10 16
M  V30 17 1 10 17
M  V30 18 1 11 18
M  V30 19 1 11 19
M  V30 20 1 12 20
M  V30 21 1 12 21
M  V30 22 1 12 22
M  V30 23 1 13 23
M  V30 24 1 13 24
M  V30 25 1 13 25
M  V30 END BOND
M  V30 END CTAB
M  END
>  <Structure No>
6361

>  <LogS>
-4.55

>  <MMFF94 Energy>
-239.76

$$$$
Compound 6362
Actelion Java MolfileCreator 2.0

  0  0  0  0  0  0              0 V3000
M  V30 BEGIN CTAB
M  V30 COUNTS 59 61 0 0 0
M  V30 BEGIN ATOM
M  V30 1 O -1.9215 -1.7613 -0.5601 0
M  V30 2 C -1.3965 -0.9163 0.2138 0
M  V30 3 N -2.178 0.1558 0.7697 0
M  V30 4 N -0.0068 -1.025 0.5509 0
M  V30 5 C -3.6029 0.4089 0.4825 0
M  V30 6 C 0.8638 -2.0579 -0.0088 0
M  V30 7 C -3.821 0.6716 -1.0338 0
M  V30 8 C -4.479 -0.7929 0.9345 0
M  V30 9 C -4.0659 1.6711 1.2671 0
M  V30 10 C 1.1896 -1.778 -1.4844 0
M  V30 11 C -5.314 0.9583 -1.3109 0 CFG=1
M  V30 12 C -5.9684 -0.4987 0.6469 0 CFG=2
M  V30 13 C -5.5556 1.9643 0.9876 0 CFG=1
M  V30 14 C 1.8868 -0.4278 -1.7067 0
M  V30 15 C -6.1624 -0.2541 -0.8663 0
M  V30 16 C -5.7542 2.2102 -0.5228 0
M  V30 17 C -6.4073 0.7561 1.4309 0
M  V30 18 C 3.2373 -0.3886 -1.0619 0
M  V30 19 O 3.4084 0.281 -0.0064 0
M  V30 20 O 4.287 -1.1262 -1.6213 0
M  V30 21 C 5.608 -1.1405 -1.0846 0
M  V30 22 C 6.331 0.1736 -1.4052 0
M  V30 23 C 7.8286 0.1365 -1.0525 0
M  V30 24 C 8.133 -0.0674 0.4423 0
M  V30 25 C 7.5882 1.0567 1.3227 0
M  V30 26 H -1.679 0.8069 1.4181 0
M  V30 27 H 0.3955 -0.3679 1.2566 0
M  V30 28 H 0.3716 -3.05 0.0826 0
M  V30 29 H 1.8065 -2.1044 0.5778 0
M  V30 30 H -3.5095 -0.2034 -1.6406 0
M  V30 31 H -3.2033 1.536 -1.3635 0
M  V30 32 H -4.1924 -1.7217 0.3995 0
M  V30 33 H -4.3348 -0.9822 2.0212 0
M  V30 34 H -3.9165 1.5185 2.3592 0
M  V30 35 H -3.453 2.5515 0.9714 0
M  V30 36 H 1.8359 -2.5954 -1.872 0
M  V30 37 H 0.2511 -1.7958 -2.0782 0
M  V30 38 H -5.4616 1.1352 -2.3984 0
M  V30 39 H -6.5855 -1.3673 0.9641 0
M  V30 40 H -5.8694 2.8675 1.5548 0
M  V30 41 H 1.2526 0.4012 -1.3239 0
M  V30 42 H 2.0152 -0.2676 -2.7983 0
M  V30 43 H -7.2364 -0.0659 -1.0853 0
M  V30 44 H -5.8615 -1.1589 -1.4391 0
M  V30 45 H -5.1589 3.0922 -0.8461 0
M  V30 46 H -6.8226 2.4362 -0.7337 0
M  V30 47 H -6.285 0.5845 2.5229 0
M  V30 48 H -7.4846 0.9624 1.2463 0
M  V30 49 H 5.5627 -1.3128 0.0119 0
M  V30 50 H 6.1606 -1.9855 -1.5467 0
M  V30 51 H 6.241 0.3648 -2.4966 0
M  V30 52 H 5.836 1.021 -0.887 0
M  V30 53 H 8.2945 1.0887 -1.3874 0
M  V30 54 H 8.3144 -0.6811 -1.6283 0
M  V30 55 H 9.2368 -0.1021 0.5675 0
M  V30 56 H 7.7365 -1.043 0.7931 0
M  V30 57 H 7.9734 0.9346 2.3569 0
M  V30 58 H 7.914 2.0462 0.9379 0
M  V30 59 H 6.4796 1.0199 1.3632 0
M  V30 END ATOM
M  V30 BEGIN BOND
M  V30 1 2 1 2
M  V30 2 1 2 3
M  V30 3 1 2 4
M  V30 4 1 3 5
M  V30 5 1 4 6
M  V30 6 1 5 7
M  V30 7 1 5 8
M  V30 8 1 5 9
M  V30 9 1 6 10
M  V30 10 1 7 11
M  V30 11 1 8 12
M  V30 12 1 9 13
M  V30 13 1 10 14
M  V30 14 1 11 15
M  V30 15 1 11 16
M  V30 16 1 12 17
M  V30 17 1 14 18
M  V30 18 2 18 19
M  V30 19 1 18 20
M  V30 20 1 20 21
M  V30 21 1 21 22
M  V30 22 1 22 23
M  V30 23 1 23 24
M  V30 24 1 24 25
M  V30 25 1 12 15
M  V30 26 1 13 16
M  V30 27 1 13 17
M  V30 28 1 3 26
M  V30 29 1 4 27
M  V30 30 1 6 28
M  V30 31 1 6 29
M  V30 32 1 7 30
M  V30 33 1 7 31
M  V30 34 1 8 32
M  V30 35 1 8 33
M  V30 36 1 9 34
M  V30 37 1 9 35
M  V30 38 1 10 36
M  V30 39 1 10 37
M  V30 40 1 11 38
M  V30 41 1 12 39
M  V30 42 1 13 40
M  V30 43 1 14 41
M  V30 44 1 14 42
M  V30 45 1 15 43
M  V30 46 1 15 44
M  V30 47 1 16 45
M  V30 48 1 16 46
M  V30 49 1 17 47
M  V30 50 1 17 48
M  V30 51 1 21 49
M  V30 52 1 21 50
M  V30 53 1 22 51
M  V30 54 1 22 52
M  V30 55 1 23 53
M  V30 56 1 23 54
M  V30 57 1 24 55
M  V30 58 1 24 56
M  V30 59 1 25 57
M  V30 60 1 25 58
M  V30 61 1 25 59
M  V30 END BOND
M  V30 BEGIN COLLECTION
M  V30 MDLV30/STEABS ATOMS=(3 11 12 13)
M  V30 END COLLECTION
M  V30 END CTAB
M  END
>  <Structure No>
6362

>  <LogS>
-2.32

>  <MMFF94 Energy>
-83.579

$$$$
Compound 6363
Actelion Java MolfileCreator 2.0

  0  0  0  0  0  0              0 V3000
M  V30 BEGIN CTAB
M  V30 COUNTS 19 19 0 0 0
M  V30 BEGIN ATOM
M  V30 1 O 3.4656 0.4025 -1.2079 0
M  V30 2 C 2.3888 0.0298 -0.6736 0
M  V30 3 O 1.1891 -0.1103 -1.3487 0
M  V30 4 C 2.2062 -0.3199 0.7111 0
M  V30 5 C 0.1781 -0.5409 -0.432 0 CFG=1
M  V30 6 O 3.1766 -0.3221 1.7076 0
M  V30 7 C 0.9394 -0.6581 0.8706 0
M  V30 8 C -0.9575 0.5054 -0.3743 0 CFG=1
M  V30 9 O 0.4048 -1.0994 2.075 0 CHG=-1
M  V30 10 O -1.3541 0.8591 -1.6766 0
M  V30 11 C -2.1714 0.0051 0.4313 0
M  V30 12 O -3.1803 0.9794 0.4494 0
M  V30 13 H -0.2056 -1.5365 -0.7443 0
M  V30 14 H 4.1308 -0.0532 1.5013 0
M  V30 15 H -0.5688 1.4244 0.1179 0
M  V30 16 H -1.6909 0.0365 -2.1202 0
M  V30 17 H -2.5574 -0.9499 0.0055 0
M  V30 18 H -1.8726 -0.1921 1.4801 0
M  V30 19 H -3.6922 0.8786 -0.3952 0
M  V30 END ATOM
M  V30 BEGIN BOND
M  V30 1 2 1 2
M  V30 2 1 2 3
M  V30 3 1 2 4
M  V30 4 1 3 5
M  V30 5 1 4 6
M  V30 6 2 4 7
M  V30 7 1 5 8
M  V30 8 1 7 9
M  V30 9 1 8 10
M  V30 10 1 8 11
M  V30 11 1 11 12
M  V30 12 1 5 7
M  V30 13 1 5 13
M  V30 14 1 6 14
M  V30 15 1 8 15
M  V30 16 1 10 16
M  V30 17 1 11 17
M  V30 18 1 11 18
M  V30 19 1 12 19
M  V30 END BOND
M  V30 BEGIN COLLECTION
M  V30 MDLV30/STEABS ATOMS=(2 5 8)
M  V30 END COLLECTION
M  V30 END CTAB
M  END
>  <Structure No>
6363

>  <LogS>
0.28

>  <MMFF94 Energy>
64.41

$$$$
Compound 6364
Actelion Java MolfileCreator 2.0

  0  0  0  0  0  0              0 V3000
M  V30 BEGIN CTAB
M  V30 COUNTS 22 23 0 0 0
M  V30 BEGIN ATOM
M  V30 1 C 0.7124 0.0791 0.0 0
M  V30 2 C -0.7628 -0.0954 -0.0079 0
M  V30 3 C 1.5495 -0.9263 0.5204 0
M  V30 4 C 1.2973 1.2529 -0.5126 0
M  V30 5 C -1.5269 0.3194 -1.1155 0
M  V30 6 C -1.4207 -0.6783 1.092 0
M  V30 7 C 2.9378 -0.7593 0.5263 0
M  V30 8 C 2.6861 1.4147 -0.5034 0
M  V30 9 C -2.9153 0.1534 -1.1204 0
M  V30 10 C -2.8096 -0.841 1.0819 0
M  V30 11 C 3.5055 0.4097 0.0152 0
M  V30 12 C -3.5561 -0.4257 -0.0229 0
M  V30 13 H 1.1323 -1.848 0.9061 0
M  V30 14 H 0.6806 2.0523 -0.9038 0
M  V30 15 H -1.0497 0.7552 -1.9842 0
M  V30 16 H -0.8644 -0.9918 1.9663 0
M  V30 17 H 3.574 -1.5391 0.9245 0
M  V30 18 H 3.127 2.3221 -0.8957 0
M  V30 19 H -3.4946 0.4714 -1.9777 0
M  V30 20 H -3.3078 -1.2864 1.9335 0
M  V30 21 H 4.5804 0.537 0.0211 0
M  V30 22 H -4.6311 -0.5529 -0.0288 0
M  V30 END ATOM
M  V30 BEGIN BOND
M  V30 1 1 1 2
M  V30 2 2 1 3
M  V30 3 1 1 4
M  V30 4 2 2 5
M  V30 5 1 2 6
M  V30 6 1 3 7
M  V30 7 2 4 8
M  V30 8 1 5 9
M  V30 9 2 6 10
M  V30 10 2 7 11
M  V30 11 2 9 12
M  V30 12 1 8 11
M  V30 13 1 10 12
M  V30 14 1 3 13
M  V30 15 1 4 14
M  V30 16 1 5 15
M  V30 17 1 6 16
M  V30 18 1 7 17
M  V30 19 1 8 18
M  V30 20 1 9 19
M  V30 21 1 10 20
M  V30 22 1 11 21
M  V30 23 1 12 22
M  V30 END BOND
M  V30 END CTAB
M  END
>  <Structure No>
6364

>  <LogS>
-4.32

>  <MMFF94 Energy>
39.329

$$$$
Compound 6365
Actelion Java MolfileCreator 2.0

  0  0  0  0  0  0              0 V3000
M  V30 BEGIN CTAB
M  V30 COUNTS 67 70 0 0 0
M  V30 BEGIN ATOM
M  V30 1 O -6.6352 2.9898 -0.9689 0
M  V30 2 C -6.8064 1.9249 -0.319 0
M  V30 3 O -7.9679 1.1854 -0.503 0 CHG=-1
M  V30 4 C -5.7416 1.4283 0.6073 0
M  V30 5 C -4.7699 0.5011 -0.1401 0
M  V30 6 C -3.6428 -0.0513 0.7781 0 CFG=2
M  V30 7 C -2.3715 -0.3925 -0.0792 0 CFG=1
M  V30 8 C -4.1862 -1.2022 1.6599 0
M  V30 9 C -1.018 -0.7338 0.6128 0 CFG=1
M  V30 10 C -2.559 -1.471 -1.1443 0
M  V30 11 C -0.138 -1.2058 -0.5809 0 CFG=1
M  V30 12 C -0.3994 0.4532 1.3838 0
M  V30 13 C -1.1444 -1.9151 1.6167 0
M  V30 14 C -1.149 -1.9427 -1.5055 0
M  V30 15 C 0.6307 -0.0738 -1.3714 0 CFG=2
M  V30 16 C 0.0772 1.6002 0.4943 0
M  V30 17 C 1.7999 -0.65 -2.2239 0 CFG=2
M  V30 18 C 1.1452 1.1595 -0.53 0 CFG=1
M  V30 19 O 1.3853 -1.6719 -3.0978 0
M  V30 20 C 3.0256 -1.0935 -1.38 0
M  V30 21 C 2.6698 1.0816 -0.0219 0 CFG=2
M  V30 22 C 3.1178 -0.4147 0.0071 0 CFG=2
M  V30 23 C 2.8838 1.702 1.4053 0
M  V30 24 C 3.5661 1.914 -0.9973 0
M  V30 25 C 4.5272 -0.6312 0.6054 0
M  V30 26 C 4.2907 1.4782 1.9832 0
M  V30 27 C 4.6417 -0.0153 2.0075 0 CFG=2
M  V30 28 O 5.9296 -0.2143 2.5339 0
M  V30 29 H -5.1859 2.2966 1.0246 0
M  V30 30 H -6.2273 0.8976 1.4516 0
M  V30 31 H -4.3311 1.0914 -0.9749 0
M  V30 32 H -5.3293 -0.3452 -0.5979 0
M  V30 33 H -3.3492 0.7738 1.4625 0
M  V30 34 H -2.1804 0.5274 -0.6694 0
M  V30 35 H -4.0204 -2.201 1.2174 0
M  V30 36 H -3.7317 -1.1651 2.669 0
M  V30 37 H -5.2781 -1.1121 1.8282 0
M  V30 38 H -3.152 -2.3313 -0.7766 0
M  V30 39 H -3.0772 -1.0553 -2.037 0
M  V30 40 H 0.6125 -1.9455 -0.2301 0
M  V30 41 H 0.4494 0.0719 1.9826 0
M  V30 42 H -1.134 0.8542 2.1138 0
M  V30 43 H -0.1392 -2.3025 1.8915 0
M  V30 44 H -1.7199 -2.7638 1.1941 0
M  V30 45 H -1.6037 -1.5892 2.5691 0
M  V30 46 H -1.0719 -3.0405 -1.3421 0
M  V30 47 H -0.9796 -1.7536 -2.5852 0
M  V30 48 H -0.1024 0.355 -2.0936 0
M  V30 49 H 0.4337 2.4387 1.1244 0
M  V30 50 H -0.7877 2.0384 -0.0439 0
M  V30 51 H 2.1258 0.171 -2.8918 0
M  V30 52 H 1.1244 2.0058 -1.2558 0
M  V30 53 H 1.2956 -2.5133 -2.5803 0
M  V30 54 H 3.9443 -0.8812 -1.9704 0
M  V30 55 H 3.009 -2.1929 -1.214 0
M  V30 56 H 2.4186 -0.9481 0.6874 0
M  V30 57 H 2.1882 1.2685 2.1428 0
M  V30 58 H 2.6913 2.7971 1.3807 0
M  V30 59 H 3.4462 1.6223 -2.0538 0
M  V30 60 H 3.3035 2.9922 -0.9334 0
M  V30 61 H 4.6453 1.8239 -0.7729 0
M  V30 62 H 5.3085 -0.2095 -0.0619 0
M  V30 63 H 4.7232 -1.7232 0.6857 0
M  V30 64 H 4.3154 1.8692 3.024 0
M  V30 65 H 5.0484 2.0511 1.4093 0
M  V30 66 H 3.9213 -0.5342 2.6784 0
M  V30 67 H 6.5748 0.2494 1.9379 0
M  V30 END ATOM
M  V30 BEGIN BOND
M  V30 1 2 1 2
M  V30 2 1 2 3
M  V30 3 1 2 4
M  V30 4 1 4 5
M  V30 5 1 5 6
M  V30 6 1 6 7
M  V30 7 1 6 8
M  V30 8 1 7 9
M  V30 9 1 7 10
M  V30 10 1 9 11
M  V30 11 1 9 12
M  V30 12 1 9 13
M  V30 13 1 10 14
M  V30 14 1 11 15
M  V30 15 1 12 16
M  V30 16 1 15 17
M  V30 17 1 15 18
M  V30 18 1 17 19
M  V30 19 1 17 20
M  V30 20 1 18 21
M  V30 21 1 20 22
M  V30 22 1 21 23
M  V30 23 1 21 24
M  V30 24 1 22 25
M  V30 25 1 23 26
M  V30 26 1 25 27
M  V30 27 1 27 28
M  V30 28 1 11 14
M  V30 29 1 16 18
M  V30 30 1 21 22
M  V30 31 1 26 27
M  V30 32 1 4 29
M  V30 33 1 4 30
M  V30 34 1 5 31
M  V30 35 1 5 32
M  V30 36 1 6 33
M  V30 37 1 7 34
M  V30 38 1 8 35
M  V30 39 1 8 36
M  V30 40 1 8 37
M  V30 41 1 10 38
M  V30 42 1 10 39
M  V30 43 1 11 40
M  V30 44 1 12 41
M  V30 45 1 12 42
M  V30 46 1 13 43
M  V30 47 1 13 44
M  V30 48 1 13 45
M  V30 49 1 14 46
M  V30 50 1 14 47
M  V30 51 1 15 48
M  V30 52 1 16 49
M  V30 53 1 16 50
M  V30 54 1 17 51
M  V30 55 1 18 52
M  V30 56 1 19 53
M  V30 57 1 20 54
M  V30 58 1 20 55
M  V30 59 1 22 56
M  V30 60 1 23 57
M  V30 61 1 23 58
M  V30 62 1 24 59
M  V30 63 1 24 60
M  V30 64 1 24 61
M  V30 65 1 25 62
M  V30 66 1 25 63
M  V30 67 1 26 64
M  V30 68 1 26 65
M  V30 69 1 27 66
M  V30 70 1 28 67
M  V30 END BOND
M  V30 BEGIN COLLECTION
M  V30 MDLV30/STEABS ATOMS=(10 6 7 9 11 15 17 18 21 22 27)
M  V30 END COLLECTION
M  V30 END CTAB
M  END
>  <Structure No>
6365

>  <LogS>
-4.57

>  <MMFF94 Energy>
104.85

$$$$
Compound 6366
Actelion Java MolfileCreator 2.0

  0  0  0  0  0  0              0 V3000
M  V30 BEGIN CTAB
M  V30 COUNTS 53 56 0 0 0
M  V30 BEGIN ATOM
M  V30 1 O -6.0865 0.9719 -1.2961 0
M  V30 2 C -4.948 0.8065 -0.7835 0
M  V30 3 C -4.1577 -0.3821 -1.1415 0
M  V30 4 C -4.4302 1.8059 0.2031 0
M  V30 5 C -2.966 -0.6549 -0.5738 0
M  V30 6 C -2.9066 1.6905 0.3362 0
M  V30 7 C -2.4081 0.224 0.563 0 CFG=2
M  V30 8 C -2.2756 -1.9193 -1.0251 0
M  V30 9 C -0.8076 0.1346 0.699 0 CFG=1
M  V30 10 C -3.0329 -0.307 1.8837 0
M  V30 11 C -0.969 -2.1858 -0.2928 0
M  V30 12 C -0.1263 -0.9067 -0.2264 0 CFG=2
M  V30 13 C -0.0144 1.4831 0.66 0
M  V30 14 C 1.309 -1.225 0.3002 0 CFG=2
M  V30 15 C 1.4583 1.3418 0.2198 0
M  V30 16 C 2.1481 0.0324 0.7046 0 CFG=2
M  V30 17 C 2.1503 -1.9888 -0.7242 0
M  V30 18 C 3.571 -0.1967 0.0731 0 CFG=1
M  V30 19 C 2.3111 0.0996 2.2466 0
M  V30 20 C 3.5885 -1.6536 -0.3914 0
M  V30 21 C 3.9418 0.7398 -1.0698 0
M  V30 22 O 3.4755 0.5656 -2.1867 0
M  V30 23 C 4.8762 1.893 -0.8498 0
M  V30 24 H -4.5583 -1.0447 -1.9008 0
M  V30 25 H -4.9248 1.6551 1.1852 0
M  V30 26 H -4.6854 2.8311 -0.143 0
M  V30 27 H -2.5739 2.3518 1.1659 0
M  V30 28 H -2.4914 2.0757 -0.6202 0
M  V30 29 H -2.9516 -2.7889 -0.8715 0
M  V30 30 H -2.0633 -1.8391 -2.1144 0
M  V30 31 H -0.6085 -0.2506 1.7232 0
M  V30 32 H -4.1375 -0.3951 1.8201 0
M  V30 33 H -2.6509 -1.3218 2.1225 0
M  V30 34 H -2.7812 0.3663 2.7314 0
M  V30 35 H -0.4256 -2.9829 -0.8434 0
M  V30 36 H -1.1751 -2.569 0.7302 0
M  V30 37 H -0.0569 -0.4772 -1.2523 0
M  V30 38 H -0.4486 2.2073 -0.0513 0
M  V30 39 H -0.0546 1.9576 1.6652 0
M  V30 40 H 1.2053 -1.8932 1.1874 0
M  V30 41 H 2.0322 2.2306 0.5636 0
M  V30 42 H 1.4557 1.3701 -0.8903 0
M  V30 43 H 1.9256 -1.6473 -1.7586 0
M  V30 44 H 1.9792 -3.0853 -0.6594 0
M  V30 45 H 4.3674 -0.0945 0.8449 0
M  V30 46 H 2.9274 0.9797 2.5314 0
M  V30 47 H 1.3371 0.1847 2.7667 0
M  V30 48 H 2.8186 -0.8132 2.6271 0
M  V30 49 H 3.9262 -2.3051 0.4457 0
M  V30 50 H 4.2595 -1.8297 -1.261 0
M  V30 51 H 5.7815 1.7624 -1.4786 0
M  V30 52 H 5.1852 1.9672 0.2136 0
M  V30 53 H 4.369 2.8388 -1.1338 0
M  V30 END ATOM
M  V30 BEGIN BOND
M  V30 1 2 1 2
M  V30 2 1 2 3
M  V30 3 1 2 4
M  V30 4 2 3 5
M  V30 5 1 4 6
M  V30 6 1 5 7
M  V30 7 1 5 8
M  V30 8 1 7 9
M  V30 9 1 7 10
M  V30 10 1 8 11
M  V30 11 1 9 12
M  V30 12 1 9 13
M  V30 13 1 12 14
M  V30 14 1 13 15
M  V30 15 1 14 16
M  V30 16 1 14 17
M  V30 17 1 16 18
M  V30 18 1 16 19
M  V30 19 1 17 20
M  V30 20 1 18 21
M  V30 21 2 21 22
M  V30 22 1 21 23
M  V30 23 1 6 7
M  V30 24 1 11 12
M  V30 25 1 15 16
M  V30 26 1 18 20
M  V30 27 1 3 24
M  V30 28 1 4 25
M  V30 29 1 4 26
M  V30 30 1 6 27
M  V30 31 1 6 28
M  V30 32 1 8 29
M  V30 33 1 8 30
M  V30 34 1 9 31
M  V30 35 1 10 32
M  V30 36 1 10 33
M  V30 37 1 10 34
M  V30 38 1 11 35
M  V30 39 1 11 36
M  V30 40 1 12 37
M  V30 41 1 13 38
M  V30 42 1 13 39
M  V30 43 1 14 40
M  V30 44 1 15 41
M  V30 45 1 15 42
M  V30 46 1 17 43
M  V30 47 1 17 44
M  V30 48 1 18 45
M  V30 49 1 19 46
M  V30 50 1 19 47
M  V30 51 1 19 48
M  V30 52 1 20 49
M  V30 53 1 20 50
M  V30 54 1 23 51
M  V30 55 1 23 52
M  V30 56 1 23 53
M  V30 END BOND
M  V30 BEGIN COLLECTION
M  V30 MDLV30/STEABS ATOMS=(6 7 9 12 14 16 18)
M  V30 END COLLECTION
M  V30 END CTAB
M  END
>  <Structure No>
6366

>  <LogS>
-4.43

>  <MMFF94 Energy>
84.432

$$$$
Compound 6367
Actelion Java MolfileCreator 2.0

  0  0  0  0  0  0              0 V3000
M  V30 BEGIN CTAB
M  V30 COUNTS 20 20 0 0 0
M  V30 BEGIN ATOM
M  V30 1 O 4.2295 -1.6742 -0.8766 0
M  V30 2 N 4.253 -0.6596 -0.1509 0 CHG=1
M  V30 3 O 5.4616 -0.1483 0.2611 0 CHG=-1
M  V30 4 C 3.0301 -0.0363 0.2468 0
M  V30 5 O 1.8417 -0.4672 -0.107 0
M  V30 6 C 2.9248 1.0862 1.0446 0
M  V30 7 C 0.9475 0.3321 0.4293 0
M  V30 8 C 1.5708 1.3249 1.1625 0
M  V30 9 C -0.4998 0.1807 0.2642 0
M  V30 10 N -0.9731 -0.8058 -0.433 0
M  V30 11 N -2.3477 -1.0153 -0.6548 0
M  V30 12 C -3.2958 0.0476 -0.8396 0
M  V30 13 O -2.9076 1.2363 -0.9949 0
M  V30 14 N -4.691 -0.2463 -0.8914 0
M  V30 15 H 3.729 1.6601 1.4857 0
M  V30 16 H 1.0977 2.1257 1.7159 0
M  V30 17 H -1.161 0.8801 0.7601 0
M  V30 18 H -2.6688 -1.9931 -0.8302 0
M  V30 19 H -5.3866 0.5177 -1.0426 0
M  V30 20 H -5.0316 -1.2262 -0.7736 0
M  V30 END ATOM
M  V30 BEGIN BOND
M  V30 1 2 1 2
M  V30 2 1 2 3
M  V30 3 1 2 4
M  V30 4 1 4 5
M  V30 5 2 4 6
M  V30 6 1 5 7
M  V30 7 1 6 8
M  V30 8 1 7 9
M  V30 9 2 9 10
M  V30 10 1 10 11
M  V30 11 1 11 12
M  V30 12 2 12 13
M  V30 13 1 12 14
M  V30 14 2 7 8
M  V30 15 1 6 15
M  V30 16 1 8 16
M  V30 17 1 9 17
M  V30 18 1 11 18
M  V30 19 1 14 19
M  V30 20 1 14 20
M  V30 END BOND
M  V30 END CTAB
M  END
>  <Structure No>
6367

>  <LogS>
-2.98

>  <MMFF94 Energy>
22.692

$$$$
Compound 6368
Actelion Java MolfileCreator 2.0

  0  0  0  0  0  0              0 V3000
M  V30 BEGIN CTAB
M  V30 COUNTS 31 31 0 0 0
M  V30 BEGIN ATOM
M  V30 1 Cl 0.796 -3.1073 -1.991 0
M  V30 2 C 0.4557 -1.7664 -0.9197 0
M  V30 3 N -0.8153 -1.5311 -0.5103 0
M  V30 4 N 1.4631 -0.9623 -0.4987 0
M  V30 5 C -1.0842 -0.4896 0.3204 0
M  V30 6 C 1.203 0.0812 0.3321 0
M  V30 7 N -0.0716 0.3118 0.7405 0
M  V30 8 N -2.4235 -0.2325 0.7629 0
M  V30 9 N 2.2599 0.9365 0.7869 0
M  V30 10 C -3.5698 -1.0351 0.3231 0
M  V30 11 C 3.6531 0.7678 0.36 0
M  V30 12 C -4.7512 -0.8426 1.2794 0
M  V30 13 C -3.9685 -0.6444 -1.1031 0
M  V30 14 C 3.835 1.3035 -1.0631 0
M  V30 15 C 4.5961 1.4906 1.3273 0
M  V30 16 H -2.5721 0.5481 1.4429 0
M  V30 17 H 2.0176 1.6939 1.4664 0
M  V30 18 H -3.2945 -2.1129 0.3406 0
M  V30 19 H 3.9163 -0.3129 0.3775 0
M  V30 20 H -5.604 -1.4844 0.9707 0
M  V30 21 H -5.0818 0.2183 1.2857 0
M  V30 22 H -4.4527 -1.1308 2.3098 0
M  V30 23 H -4.8372 -1.2501 -1.4386 0
M  V30 24 H -4.2389 0.4323 -1.1488 0
M  V30 25 H -3.1278 -0.8297 -1.8035 0
M  V30 26 H 3.5681 2.3811 -1.1088 0
M  V30 27 H 4.8896 1.1778 -1.3889 0
M  V30 28 H 3.1867 0.7465 -1.7711 0
M  V30 29 H 4.4581 1.0934 2.3555 0
M  V30 30 H 4.3892 2.5825 1.3342 0
M  V30 31 H 5.6533 1.3256 1.0283 0
M  V30 END ATOM
M  V30 BEGIN BOND
M  V30 1 1 1 2
M  V30 2 2 2 3
M  V30 3 1 2 4
M  V30 4 1 3 5
M  V30 5 2 4 6
M  V30 6 2 5 7
M  V30 7 1 5 8
M  V30 8 1 6 9
M  V30 9 1 8 10
M  V30 10 1 9 11
M  V30 11 1 10 12
M  V30 12 1 10 13
M  V30 13 1 11 14
M  V30 14 1 11 15
M  V30 15 1 6 7
M  V30 16 1 8 16
M  V30 17 1 9 17
M  V30 18 1 10 18
M  V30 19 1 11 19
M  V30 20 1 12 20
M  V30 21 1 12 21
M  V30 22 1 12 22
M  V30 23 1 13 23
M  V30 24 1 13 24
M  V30 25 1 13 25
M  V30 26 1 14 26
M  V30 27 1 14 27
M  V30 28 1 14 28
M  V30 29 1 15 29
M  V30 30 1 15 30
M  V30 31 1 15 31
M  V30 END BOND
M  V30 END CTAB
M  END
>  <Structure No>
6368

>  <LogS>
-4.46

>  <MMFF94 Energy>
-233.84

$$$$
Compound 6369
Actelion Java MolfileCreator 2.0

  0  0  0  0  0  0              0 V3000
M  V30 BEGIN CTAB
M  V30 COUNTS 36 36 0 0 0
M  V30 BEGIN ATOM
M  V30 1 Cl 5.3378 0.6016 -0.4297 0
M  V30 2 C 3.6832 0.3942 0.2077 0
M  V30 3 Cl 3.6057 -1.1626 1.0798 0
M  V30 4 Cl 3.3887 1.7017 1.3868 0
M  V30 5 C 2.6513 0.4766 -0.9407 0 CFG=2
M  V30 6 N 1.2707 0.3462 -0.3899 0
M  V30 7 N 2.9402 -0.5211 -1.985 0
M  V30 8 C 0.3956 1.4706 -0.7754 0
M  V30 9 C 0.5962 -0.944 -0.6516 0
M  V30 10 C 2.5981 -0.3205 -3.3608 0
M  V30 11 C -0.9516 1.4 -0.0266 0
M  V30 12 C -0.758 -1.0156 0.0825 0
M  V30 13 O 2.0298 0.7375 -3.7402 0
M  V30 14 N -1.0024 0.2197 0.8588 0
M  V30 15 C -2.2169 0.2062 1.7257 0 CFG=1
M  V30 16 N -3.1772 -0.8403 1.3358 0
M  V30 17 C -1.8037 0.0579 3.2083 0
M  V30 18 C -4.1767 -0.6365 0.3309 0
M  V30 19 Cl -3.2459 0.0987 4.2597 0
M  V30 20 Cl -0.9219 -1.4635 3.521 0
M  V30 21 Cl -0.7469 1.4155 3.685 0
M  V30 22 O -4.2927 0.4732 -0.2531 0
M  V30 23 H 2.8002 1.4859 -1.3905 0
M  V30 24 H 3.4174 -1.4159 -1.7341 0
M  V30 25 H 0.2154 1.4592 -1.8734 0
M  V30 26 H 0.8887 2.4356 -0.521 0
M  V30 27 H 0.4193 -1.0756 -1.7425 0
M  V30 28 H 1.2354 -1.7842 -0.3067 0
M  V30 29 H 2.8305 -1.0881 -4.0867 0
M  V30 30 H -1.7872 1.3676 -0.7607 0
M  V30 31 H -1.0665 2.3271 0.578 0
M  V30 32 H -1.5657 -1.1674 -0.6682 0
M  V30 33 H -0.7523 -1.8965 0.7582 0
M  V30 34 H -2.7469 1.1862 1.6721 0
M  V30 35 H -3.1317 -1.7825 1.785 0
M  V30 36 H -4.844 -1.4465 0.0682 0
M  V30 END ATOM
M  V30 BEGIN BOND
M  V30 1 1 1 2
M  V30 2 1 2 3
M  V30 3 1 2 4
M  V30 4 1 2 5
M  V30 5 1 5 6
M  V30 6 1 5 7
M  V30 7 1 6 8
M  V30 8 1 6 9
M  V30 9 1 7 10
M  V30 10 1 8 11
M  V30 11 1 9 12
M  V30 12 2 10 13
M  V30 13 1 11 14
M  V30 14 1 14 15
M  V30 15 1 15 16
M  V30 16 1 15 17
M  V30 17 1 16 18
M  V30 18 1 17 19
M  V30 19 1 17 20
M  V30 20 1 17 21
M  V30 21 2 18 22
M  V30 22 1 12 14
M  V30 23 1 5 23
M  V30 24 1 7 24
M  V30 25 1 8 25
M  V30 26 1 8 26
M  V30 27 1 9 27
M  V30 28 1 9 28
M  V30 29 1 10 29
M  V30 30 1 11 30
M  V30 31 1 11 31
M  V30 32 1 12 32
M  V30 33 1 12 33
M  V30 34 1 15 34
M  V30 35 1 16 35
M  V30 36 1 18 36
M  V30 END BOND
M  V30 BEGIN COLLECTION
M  V30 MDLV30/STEABS ATOMS=(2 5 15)
M  V30 END COLLECTION
M  V30 END CTAB
M  END
>  <Structure No>
6369

>  <LogS>
-4.16

>  <MMFF94 Energy>
123.15

$$$$
Compound 6370
Actelion Java MolfileCreator 2.0

  0  0  0  0  0  0              0 V3000
M  V30 BEGIN CTAB
M  V30 COUNTS 25 25 0 0 0
M  V30 BEGIN ATOM
M  V30 1 Cl -5.7744 0.9606 0.3201 0
M  V30 2 C -4.098 0.4926 0.102 0
M  V30 3 C -3.7761 -0.6024 -0.7054 0
M  V30 4 C -3.0807 1.2205 0.7271 0
M  V30 5 C -2.44 -0.9746 -0.8819 0
M  V30 6 C -1.7436 0.8499 0.5531 0
M  V30 7 C -1.4128 -0.2644 -0.2403 0
M  V30 8 N -0.0447 -0.6521 -0.4562 0
M  V30 9 C 0.9912 -0.5071 0.5325 0
M  V30 10 O 0.6827 -0.3338 1.7431 0
M  V30 11 N 2.3831 -0.5814 0.1691 0
M  V30 12 O 3.3324 -0.4388 1.136 0
M  V30 13 C 2.8034 -0.9181 -1.1905 0
M  V30 14 C 3.6851 0.9235 1.167 0
M  V30 15 H -4.5594 -1.1643 -1.1982 0
M  V30 16 H -3.3241 2.0787 1.3407 0
M  V30 17 H -2.2044 -1.8235 -1.5115 0
M  V30 18 H -0.9715 1.4485 1.0181 0
M  V30 19 H 0.1783 -1.1452 -1.3488 0
M  V30 20 H 2.4201 -1.9223 -1.4682 0
M  V30 21 H 3.912 -0.9395 -1.2557 0
M  V30 22 H 2.4226 -0.1561 -1.9028 0
M  V30 23 H 4.1189 1.2445 0.1944 0
M  V30 24 H 2.8073 1.5574 1.4225 0
M  V30 25 H 4.4551 1.0745 1.9511 0
M  V30 END ATOM
M  V30 BEGIN BOND
M  V30 1 1 1 2
M  V30 2 2 2 3
M  V30 3 1 2 4
M  V30 4 1 3 5
M  V30 5 2 4 6
M  V30 6 2 5 7
M  V30 7 1 7 8
M  V30 8 1 8 9
M  V30 9 2 9 10
M  V30 10 1 9 11
M  V30 11 1 11 12
M  V30 12 1 11 13
M  V30 13 1 12 14
M  V30 14 1 6 7
M  V30 15 1 3 15
M  V30 16 1 4 16
M  V30 17 1 5 17
M  V30 18 1 6 18
M  V30 19 1 8 19
M  V30 20 1 13 20
M  V30 21 1 13 21
M  V30 22 1 13 22
M  V30 23 1 14 23
M  V30 24 1 14 24
M  V30 25 1 14 25
M  V30 END BOND
M  V30 END CTAB
M  END
>  <Structure No>
6370

>  <LogS>
-2.47

>  <MMFF94 Energy>
-7.3064

$$$$
Compound 6371
Actelion Java MolfileCreator 2.0

  0  0  0  0  0  0              0 V3000
M  V30 BEGIN CTAB
M  V30 COUNTS 16 16 0 0 0
M  V30 BEGIN ATOM
M  V30 1 Cl -2.8755 1.8599 0.1689 0
M  V30 2 C -1.3118 1.0505 0.1805 0
M  V30 3 C -1.1849 -0.3584 0.1995 0
M  V30 4 C -0.1673 1.8535 0.2247 0
M  V30 5 N -2.3331 -1.2264 0.1432 0 CHG=1
M  V30 6 C 0.1002 -0.9248 0.2834 0
M  V30 7 C 1.1019 1.2788 0.2943 0
M  V30 8 O -3.3615 -0.8894 -0.4782 0
M  V30 9 O -2.2569 -2.5043 0.6481 0 CHG=-1
M  V30 10 C 1.2493 -0.1154 0.3279 0
M  V30 11 C 2.5977 -0.7207 0.4071 0
M  V30 12 O 2.7379 -1.9724 0.4385 0
M  V30 13 O 3.7301 0.0847 0.4482 0 CHG=-1
M  V30 14 H -0.261 2.9324 0.215 0
M  V30 15 H 0.2045 -2.0027 0.298 0
M  V30 16 H 1.9673 1.9287 0.3283 0
M  V30 END ATOM
M  V30 BEGIN BOND
M  V30 1 1 1 2
M  V30 2 2 2 3
M  V30 3 1 2 4
M  V30 4 1 3 5
M  V30 5 1 3 6
M  V30 6 2 4 7
M  V30 7 2 5 8
M  V30 8 1 5 9
M  V30 9 2 6 10
M  V30 10 1 10 11
M  V30 11 2 11 12
M  V30 12 1 11 13
M  V30 13 1 7 10
M  V30 14 1 4 14
M  V30 15 1 6 15
M  V30 16 1 7 16
M  V30 END BOND
M  V30 END CTAB
M  END
>  <Structure No>
6371

>  <LogS>
-2.76

>  <MMFF94 Energy>
45.45

$$$$
Compound 6372
Actelion Java MolfileCreator 2.0

  0  0  0  0  0  0              0 V3000
M  V30 BEGIN CTAB
M  V30 COUNTS 24 24 0 0 0
M  V30 BEGIN ATOM
M  V30 1 Cl -2.2429 -2.7418 -1.8272 0
M  V30 2 C -2.3951 -1.2656 -0.8863 0
M  V30 3 C -1.3256 -0.8106 -0.0969 0
M  V30 4 C -3.5943 -0.5455 -0.9354 0
M  V30 5 O -0.1397 -1.5652 -0.0751 0
M  V30 6 C -1.4819 0.3761 0.6482 0
M  V30 7 C -3.7379 0.6318 -0.1965 0
M  V30 8 C 1.0725 -1.1922 0.5802 0
M  V30 9 C -2.6821 1.0909 0.5947 0
M  V30 10 Cl -5.2425 1.5314 -0.261 0
M  V30 11 C 1.8052 -0.1087 -0.217 0
M  V30 12 C 3.1132 0.2904 0.4711 0
M  V30 13 C 3.8177 1.3487 -0.3169 0
M  V30 14 O 4.6388 1.0282 -1.2158 0
M  V30 15 O 3.5306 2.6893 -0.0928 0 CHG=-1
M  V30 16 H -4.4137 -0.9011 -1.5476 0
M  V30 17 H -0.6879 0.7572 1.2738 0
M  V30 18 H 1.7208 -2.0922 0.6385 0
M  V30 19 H 0.8693 -0.8642 1.622 0
M  V30 20 H -2.7902 2.0015 1.1703 0
M  V30 21 H 1.1559 0.7868 -0.32 0
M  V30 22 H 2.024 -0.4978 -1.2356 0
M  V30 23 H 2.8985 0.6804 1.4898 0
M  V30 24 H 3.7751 -0.5975 0.5713 0
M  V30 END ATOM
M  V30 BEGIN BOND
M  V30 1 1 1 2
M  V30 2 2 2 3
M  V30 3 1 2 4
M  V30 4 1 3 5
M  V30 5 1 3 6
M  V30 6 2 4 7
M  V30 7 1 5 8
M  V30 8 2 6 9
M  V30 9 1 7 10
M  V30 10 1 8 11
M  V30 11 1 11 12
M  V30 12 1 12 13
M  V30 13 2 13 14
M  V30 14 1 13 15
M  V30 15 1 7 9
M  V30 16 1 4 16
M  V30 17 1 6 17
M  V30 18 1 8 18
M  V30 19 1 8 19
M  V30 20 1 9 20
M  V30 21 1 11 21
M  V30 22 1 11 22
M  V30 23 1 12 23
M  V30 24 1 12 24
M  V30 END BOND
M  V30 END CTAB
M  END
>  <Structure No>
6372

>  <LogS>
-3.57

>  <MMFF94 Energy>
18.324

$$$$
Compound 6373
Actelion Java MolfileCreator 2.0

  0  0  0  0  0  0              0 V3000
M  V30 BEGIN CTAB
M  V30 COUNTS 68 71 0 0 0
M  V30 BEGIN ATOM
M  V30 1 O -7.209 -0.7272 -2.2637 0
M  V30 2 C -7.2548 -0.2131 -1.1125 0
M  V30 3 O -8.4881 0.0891 -0.5452 0 CHG=-1
M  V30 4 C -5.9928 0.1332 -0.3764 0
M  V30 5 C -4.9598 -1.017 -0.4529 0
M  V30 6 C -3.8943 -1.0704 0.6817 0 CFG=1
M  V30 7 C -2.7022 -0.0484 0.6004 0 CFG=1
M  V30 8 C -4.5492 -1.0627 2.0765 0
M  V30 9 C -1.379 -0.5039 -0.1184 0 CFG=2
M  V30 10 C -2.9981 1.3249 0.0224 0
M  V30 11 C -0.4878 -1.3909 0.8271 0 CFG=2
M  V30 12 C -0.6853 0.8542 -0.5127 0 CFG=1
M  V30 13 C -1.6822 -1.303 -1.4196 0
M  V30 14 C -1.6276 1.9718 -0.0396 0
M  V30 15 O -0.4829 -0.8765 2.1398 0
M  V30 16 C 0.9874 -1.53 0.3533 0
M  V30 17 C 0.7876 0.9748 -0.0096 0 CFG=1
M  V30 18 C 1.5379 -0.3219 -0.4643 0 CFG=1
M  V30 19 C 1.4872 2.2654 -0.5086 0 CFG=1
M  V30 20 C 3.13 -0.1829 -0.5489 0 CFG=1
M  V30 21 O 0.8164 3.3981 -0.015 0
M  V30 22 C 2.9707 2.3434 -0.0642 0
M  V30 23 C 3.5845 0.9942 0.3716 0 CFG=2
M  V30 24 C 3.8857 -1.4862 -0.1132 0
M  V30 25 C 3.5164 0.0929 -2.0386 0
M  V30 26 C 5.1241 1.1346 0.4908 0
M  V30 27 C 5.4116 -1.315 -0.0539 0
M  V30 28 C 5.803 -0.1767 0.9021 0 CFG=2
M  V30 29 O 5.446 -0.496 2.2257 0
M  V30 30 H -5.5881 1.0559 -0.839 0
M  V30 31 H -6.263 0.376 0.6729 0
M  V30 32 H -4.4663 -0.997 -1.4462 0
M  V30 33 H -5.5134 -1.9836 -0.4139 0
M  V30 34 H -3.4448 -2.0826 0.6145 0
M  V30 35 H -2.4452 0.1873 1.6562 0
M  V30 36 H -3.8303 -1.4498 2.8334 0
M  V30 37 H -4.8336 -0.0345 2.3811 0
M  V30 38 H -5.4499 -1.715 2.0976 0
M  V30 39 H -3.3865 1.2398 -1.0143 0
M  V30 40 H -3.7015 1.9078 0.6549 0
M  V30 41 H -0.9343 -2.4131 0.8568 0
M  V30 42 H -0.6509 0.9467 -1.6232 0
M  V30 43 H -2.2128 -2.2521 -1.2162 0
M  V30 44 H -2.2861 -0.6995 -2.1279 0
M  V30 45 H -0.7462 -1.5778 -1.9434 0
M  V30 46 H -1.6339 2.8337 -0.7435 0
M  V30 47 H -1.345 2.3208 0.9784 0
M  V30 48 H -0.3141 -1.6361 2.7573 0
M  V30 49 H 1.0923 -2.4545 -0.2587 0
M  V30 50 H 1.5781 -1.6758 1.2755 0
M  V30 51 H 0.7861 1.0257 1.1029 0
M  V30 52 H 1.202 -0.5285 -1.5054 0
M  V30 53 H 1.43 2.2784 -1.6219 0
M  V30 54 H 1.1174 4.1709 -0.561 0
M  V30 55 H 3.5609 2.7783 -0.9017 0
M  V30 56 H 3.0689 3.0509 0.7896 0
M  V30 57 H 3.2026 0.7765 1.3969 0
M  V30 58 H 3.6378 -2.3229 -0.802 0
M  V30 59 H 3.6016 -1.8042 0.9043 0
M  V30 60 H 2.9127 0.9033 -2.4871 0
M  V30 61 H 3.3384 -0.8133 -2.6563 0
M  V30 62 H 4.5769 0.3791 -2.1646 0
M  V30 63 H 5.3604 1.9121 1.2508 0
M  V30 64 H 5.5636 1.4858 -0.4683 0
M  V30 65 H 5.8701 -2.2639 0.2989 0
M  V30 66 H 5.8283 -1.1231 -1.0629 0
M  V30 67 H 6.9068 -0.0263 0.844 0
M  V30 68 H 6.0716 -1.2048 2.531 0
M  V30 END ATOM
M  V30 BEGIN BOND
M  V30 1 2 1 2
M  V30 2 1 2 3
M  V30 3 1 2 4
M  V30 4 1 4 5
M  V30 5 1 5 6
M  V30 6 1 6 7
M  V30 7 1 6 8
M  V30 8 1 7 9
M  V30 9 1 7 10
M  V30 10 1 9 11
M  V30 11 1 9 12
M  V30 12 1 9 13
M  V30 13 1 10 14
M  V30 14 1 11 15
M  V30 15 1 11 16
M  V30 16 1 12 17
M  V30 17 1 16 18
M  V30 18 1 17 19
M  V30 19 1 18 20
M  V30 20 1 19 21
M  V30 21 1 19 22
M  V30 22 1 20 23
M  V30 23 1 20 24
M  V30 24 1 20 25
M  V30 25 1 23 26
M  V30 26 1 24 27
M  V30 27 1 26 28
M  V30 28 1 28 29
M  V30 29 1 12 14
M  V30 30 1 17 18
M  V30 31 1 22 23
M  V30 32 1 27 28
M  V30 33 1 4 30
M  V30 34 1 4 31
M  V30 35 1 5 32
M  V30 36 1 5 33
M  V30 37 1 6 34
M  V30 38 1 7 35
M  V30 39 1 8 36
M  V30 40 1 8 37
M  V30 41 1 8 38
M  V30 42 1 10 39
M  V30 43 1 10 40
M  V30 44 1 11 41
M  V30 45 1 12 42
M  V30 46 1 13 43
M  V30 47 1 13 44
M  V30 48 1 13 45
M  V30 49 1 14 46
M  V30 50 1 14 47
M  V30 51 1 15 48
M  V30 52 1 16 49
M  V30 53 1 16 50
M  V30 54 1 17 51
M  V30 55 1 18 52
M  V30 56 1 19 53
M  V30 57 1 21 54
M  V30 58 1 22 55
M  V30 59 1 22 56
M  V30 60 1 23 57
M  V30 61 1 24 58
M  V30 62 1 24 59
M  V30 63 1 25 60
M  V30 64 1 25 61
M  V30 65 1 25 62
M  V30 66 1 26 63
M  V30 67 1 26 64
M  V30 68 1 27 65
M  V30 69 1 27 66
M  V30 70 1 28 67
M  V30 71 1 29 68
M  V30 END BOND
M  V30 BEGIN COLLECTION
M  V30 MDLV30/STEABS ATOMS=(11 6 7 9 11 12 17 18 19 20 23 28)
M  V30 END COLLECTION
M  V30 END CTAB
M  END
>  <Structure No>
6373

>  <LogS>
-3.63

>  <MMFF94 Energy>
117.57

$$$$
Compound 6374
Actelion Java MolfileCreator 2.0

  0  0  0  0  0  0              0 V3000
M  V30 BEGIN CTAB
M  V30 COUNTS 25 25 0 0 0
M  V30 BEGIN ATOM
M  V30 1 Cl -0.8923 0.3244 3.2479 0
M  V30 2 C -0.0564 0.1304 1.7144 0
M  V30 3 C -0.7407 -0.3527 0.5879 0
M  V30 4 C 1.3001 0.4631 1.63 0
M  V30 5 O -2.1035 -0.6736 0.715 0
M  V30 6 C -0.0409 -0.5039 -0.6251 0
M  V30 7 C 1.9908 0.3258 0.4168 0
M  V30 8 C -2.9538 -1.1086 -0.3465 0
M  V30 9 C 1.3137 -0.1707 -0.7063 0
M  V30 10 C 3.4562 0.6532 0.3364 0
M  V30 11 C -3.22 0.0114 -1.3118 0
M  V30 12 C 4.2716 -0.5517 0.6799 0
M  V30 13 C -3.8184 1.1395 -0.9207 0
M  V30 14 O 4.6195 -1.3593 -0.2212 0
M  V30 15 O 4.6063 -0.8106 2.0032 0 CHG=-1
M  V30 16 H 1.8164 0.8279 2.5099 0
M  V30 17 H -0.5302 -0.882 -1.5113 0
M  V30 18 H -3.9187 -1.4474 0.0861 0
M  V30 19 H -2.5013 -1.9766 -0.8716 0
M  V30 20 H 1.8362 -0.3018 -1.646 0
M  V30 21 H 3.7178 1.0048 -0.6856 0
M  V30 22 H 3.7048 1.4788 1.0381 0
M  V30 23 H -2.9251 -0.1022 -2.3506 0
M  V30 24 H -4.002 1.9336 -1.6371 0
M  V30 25 H -4.1266 1.2789 0.1114 0
M  V30 END ATOM
M  V30 BEGIN BOND
M  V30 1 1 1 2
M  V30 2 2 2 3
M  V30 3 1 2 4
M  V30 4 1 3 5
M  V30 5 1 3 6
M  V30 6 2 4 7
M  V30 7 1 5 8
M  V30 8 2 6 9
M  V30 9 1 7 10
M  V30 10 1 8 11
M  V30 11 1 10 12
M  V30 12 2 11 13
M  V30 13 2 12 14
M  V30 14 1 12 15
M  V30 15 1 7 9
M  V30 16 1 4 16
M  V30 17 1 6 17
M  V30 18 1 8 18
M  V30 19 1 8 19
M  V30 20 1 9 20
M  V30 21 1 10 21
M  V30 22 1 10 22
M  V30 23 1 11 23
M  V30 24 1 13 24
M  V30 25 1 13 25
M  V30 END BOND
M  V30 END CTAB
M  END
>  <Structure No>
6374

>  <LogS>
-3.13

>  <MMFF94 Energy>
69.321

$$$$
Compound 6375
Actelion Java MolfileCreator 2.0

  0  0  0  0  0  0              0 V3000
M  V30 BEGIN CTAB
M  V30 COUNTS 27 28 0 0 0
M  V30 BEGIN ATOM
M  V30 1 C 0.3954 0.079 0.0 0
M  V30 2 C -0.8673 -0.6043 -0.0218 0
M  V30 3 C 0.3822 1.5091 0.1107 0
M  V30 4 C 1.5911 -0.7131 -0.0879 0
M  V30 5 C -2.0794 0.1309 -0.1018 0
M  V30 6 C -0.8966 -2.0127 0.038 0
M  V30 7 C -0.8325 2.1997 -0.0065 0
M  V30 8 C 1.5878 2.347 0.4647 0
M  V30 9 C 1.5038 -2.1115 0.0089 0
M  V30 10 C 2.9603 -0.1565 -0.3972 0
M  V30 11 C -2.0368 1.5253 -0.1258 0
M  V30 12 C -3.4288 -0.5437 -0.1717 0
M  V30 13 C 0.2764 -2.7492 0.0865 0
M  V30 14 H -1.8266 -2.5638 0.0573 0
M  V30 15 H -0.8572 3.2824 0.0325 0
M  V30 16 H 1.2882 3.3432 0.856 0
M  V30 17 H 2.1607 1.8741 1.286 0
M  V30 18 H 2.2162 2.5352 -0.4274 0
M  V30 19 H 2.397 -2.7242 -0.0141 0
M  V30 20 H 2.8992 0.5934 -1.2098 0
M  V30 21 H 3.6411 -0.9463 -0.7816 0
M  V30 22 H 3.4371 0.2544 0.514 0
M  V30 23 H -2.9497 2.1043 -0.1979 0
M  V30 24 H -4.2562 0.1908 -0.2729 0
M  V30 25 H -3.469 -1.2179 -1.0528 0
M  V30 26 H -3.6066 -1.1273 0.7558 0
M  V30 27 H 0.2331 -3.8296 0.1435 0
M  V30 END ATOM
M  V30 BEGIN BOND
M  V30 1 1 1 2
M  V30 2 1 1 3
M  V30 3 2 1 4
M  V30 4 1 2 5
M  V30 5 2 2 6
M  V30 6 2 3 7
M  V30 7 1 3 8
M  V30 8 1 4 9
M  V30 9 1 4 10
M  V30 10 2 5 11
M  V30 11 1 5 12
M  V30 12 1 6 13
M  V30 13 1 7 11
M  V30 14 2 9 13
M  V30 15 1 6 14
M  V30 16 1 7 15
M  V30 17 1 8 16
M  V30 18 1 8 17
M  V30 19 1 8 18
M  V30 20 1 9 19
M  V30 21 1 10 20
M  V30 22 1 10 21
M  V30 23 1 10 22
M  V30 24 1 11 23
M  V30 25 1 12 24
M  V30 26 1 12 25
M  V30 27 1 12 26
M  V30 28 1 13 27
M  V30 END BOND
M  V30 END CTAB
M  END
>  <Structure No>
6375

>  <LogS>
-4.92

>  <MMFF94 Energy>
51.781

$$$$
Compound 6376
Actelion Java MolfileCreator 2.0

  0  0  0  0  0  0              0 V3000
M  V30 BEGIN CTAB
M  V30 COUNTS 16 16 0 0 0
M  V30 BEGIN ATOM
M  V30 1 Cl 0.1689 3.2131 0.0 0
M  V30 2 C 0.4697 1.4795 -0.0227 0
M  V30 3 C -0.5892 0.548 0.0199 0
M  V30 4 C 1.7951 1.0379 -0.0332 0
M  V30 5 N -1.9416 1.0191 0.098 0 CHG=1
M  V30 6 C -0.2969 -0.8423 0.0359 0
M  V30 7 C 2.082 -0.3242 0.0039 0
M  V30 8 O -2.6543 0.7173 1.0773 0
M  V30 9 O -2.4298 1.8862 -0.8514 0 CHG=-1
M  V30 10 C -1.3571 -1.88 0.0037 0
M  V30 11 C 1.0467 -1.2577 0.0407 0
M  V30 12 O -2.5084 -1.6178 -0.434 0
M  V30 13 O -1.0782 -3.1766 0.4206 0 CHG=-1
M  V30 14 H 2.6073 1.7536 -0.0571 0
M  V30 15 H 3.1113 -0.6591 0.0 0
M  V30 16 H 1.3002 -2.3105 0.0499 0
M  V30 END ATOM
M  V30 BEGIN BOND
M  V30 1 1 1 2
M  V30 2 2 2 3
M  V30 3 1 2 4
M  V30 4 1 3 5
M  V30 5 1 3 6
M  V30 6 2 4 7
M  V30 7 2 5 8
M  V30 8 1 5 9
M  V30 9 1 6 10
M  V30 10 2 6 11
M  V30 11 2 10 12
M  V30 12 1 10 13
M  V30 13 1 7 11
M  V30 14 1 4 14
M  V30 15 1 7 15
M  V30 16 1 11 16
M  V30 END BOND
M  V30 END CTAB
M  END
>  <Structure No>
6376

>  <LogS>
-2.63

>  <MMFF94 Energy>
20.762

$$$$
Compound 6377
Actelion Java MolfileCreator 2.0

  0  0  0  0  0  0              0 V3000
M  V30 BEGIN CTAB
M  V30 COUNTS 20 21 0 0 0
M  V30 BEGIN ATOM
M  V30 1 O 2.3109 -2.0716 -0.0796 0
M  V30 2 C 1.7136 -0.8109 -0.0377 0
M  V30 3 C 0.3092 -0.6843 -0.0489 0
M  V30 4 C 2.5159 0.3365 0.0157 0
M  V30 5 C -0.2813 0.6072 -0.0056 0
M  V30 6 C -0.5181 -1.82 -0.1022 0
M  V30 7 C 1.9347 1.604 0.058 0
M  V30 8 C -1.6856 0.7339 -0.0168 0
M  V30 9 C 0.5459 1.743 0.0476 0
M  V30 10 C -1.9068 -1.681 -0.1126 0
M  V30 11 O -2.283 1.9946 0.0249 0
M  V30 12 C -2.4881 -0.4135 -0.0702 0
M  V30 13 H 3.3179 -2.1834 -0.0723 0
M  V30 14 H 3.5947 0.2461 0.0246 0
M  V30 15 H -0.0963 -2.8168 -0.1357 0
M  V30 16 H 2.564 2.4839 0.0993 0
M  V30 17 H 0.1241 2.7399 0.0813 0
M  V30 18 H -2.5362 -2.5608 -0.1538 0
M  V30 19 H -3.2901 2.1064 0.0178 0
M  V30 20 H -3.5669 -0.3231 -0.079 0
M  V30 END ATOM
M  V30 BEGIN BOND
M  V30 1 1 1 2
M  V30 2 1 2 3
M  V30 3 2 2 4
M  V30 4 1 3 5
M  V30 5 2 3 6
M  V30 6 1 4 7
M  V30 7 2 5 8
M  V30 8 1 5 9
M  V30 9 1 6 10
M  V30 10 1 8 11
M  V30 11 1 8 12
M  V30 12 2 7 9
M  V30 13 2 10 12
M  V30 14 1 1 13
M  V30 15 1 4 14
M  V30 16 1 6 15
M  V30 17 1 7 16
M  V30 18 1 9 17
M  V30 19 1 10 18
M  V30 20 1 11 19
M  V30 21 1 12 20
M  V30 END BOND
M  V30 END CTAB
M  END
>  <Structure No>
6377

>  <LogS>
-2.92

>  <MMFF94 Energy>
28.291

$$$$
Compound 6378
Actelion Java MolfileCreator 2.0

  0  0  0  0  0  0              0 V3000
M  V30 BEGIN CTAB
M  V30 COUNTS 20 21 0 0 0
M  V30 BEGIN ATOM
M  V30 1 N 1.1116 -1.5883 -1.2705 0
M  V30 2 N -0.0417 -2.0665 -1.7354 0
M  V30 3 C 1.1674 -0.5832 -0.3538 0
M  V30 4 C -1.2332 -1.5766 -1.3167 0
M  V30 5 N 2.4563 -0.1545 0.1168 0
M  V30 6 C -0.044 -0.013 0.1096 0
M  V30 7 C -1.2635 -0.5371 -0.385 0
M  V30 8 N 3.6239 -0.6033 -0.5218 0
M  V30 9 C -0.092 1.0637 1.022 0
M  V30 10 C -2.4894 -0.0102 0.0494 0
M  V30 11 C -1.3206 1.5797 1.4451 0
M  V30 12 C -2.5145 1.0423 0.9645 0
M  V30 13 H -2.1488 -1.9945 -1.7165 0
M  V30 14 H 2.554 0.4062 0.9909 0
M  V30 15 H 4.4433 -0.2576 0.0282 0
M  V30 16 H 3.6676 -0.1287 -1.4521 0
M  V30 17 H 0.7991 1.5327 1.408 0
M  V30 18 H -3.426 -0.4093 -0.3218 0
M  V30 19 H -1.3464 2.4045 2.1457 0
M  V30 20 H -3.4617 1.4479 1.296 0
M  V30 END ATOM
M  V30 BEGIN BOND
M  V30 1 1 1 2
M  V30 2 2 1 3
M  V30 3 2 2 4
M  V30 4 1 3 5
M  V30 5 1 3 6
M  V30 6 1 4 7
M  V30 7 1 5 8
M  V30 8 2 6 9
M  V30 9 2 7 10
M  V30 10 1 9 11
M  V30 11 1 10 12
M  V30 12 1 6 7
M  V30 13 2 11 12
M  V30 14 1 4 13
M  V30 15 1 5 14
M  V30 16 1 8 15
M  V30 17 1 8 16
M  V30 18 1 9 17
M  V30 19 1 10 18
M  V30 20 1 11 19
M  V30 21 1 12 20
M  V30 END BOND
M  V30 END CTAB
M  END
>  <Structure No>
6378

>  <LogS>
-2.6

>  <MMFF94 Energy>
94.96

$$$$
Compound 6379
Actelion Java MolfileCreator 2.0

  0  0  0  0  0  0              0 V3000
M  V30 BEGIN CTAB
M  V30 COUNTS 18 18 0 0 0
M  V30 BEGIN ATOM
M  V30 1 Cl 1.1015 -2.8829 0.3388 0
M  V30 2 C -0.0383 -1.5521 0.1957 0
M  V30 3 C 0.3808 -0.2134 0.3142 0
M  V30 4 C -1.3903 -1.8489 0.0208 0
M  V30 5 O 1.7364 0.0811 0.4949 0
M  V30 6 C -0.5749 0.8316 0.2948 0
M  V30 7 C -2.3328 -0.8253 -0.032 0
M  V30 8 C 2.6756 -0.0093 -0.5711 0
M  V30 9 C -1.9406 0.5092 0.1073 0
M  V30 10 C -0.1419 2.2398 0.4781 0
M  V30 11 Cl -3.1948 1.7396 -0.0281 0
M  V30 12 O 0.97 2.6304 0.0354 0
M  V30 13 O -0.9449 3.1447 1.1616 0 CHG=-1
M  V30 14 H -1.7144 -2.878 -0.0689 0
M  V30 15 H -3.3766 -1.0724 -0.18 0
M  V30 16 H 2.3726 0.6633 -1.401 0
M  V30 17 H 2.7443 -1.0485 -0.9499 0
M  V30 18 H 3.674 0.3031 -0.2029 0
M  V30 END ATOM
M  V30 BEGIN BOND
M  V30 1 1 1 2
M  V30 2 2 2 3
M  V30 3 1 2 4
M  V30 4 1 3 5
M  V30 5 1 3 6
M  V30 6 2 4 7
M  V30 7 1 5 8
M  V30 8 2 6 9
M  V30 9 1 6 10
M  V30 10 1 9 11
M  V30 11 2 10 12
M  V30 12 1 10 13
M  V30 13 1 7 9
M  V30 14 1 4 14
M  V30 15 1 7 15
M  V30 16 1 8 16
M  V30 17 1 8 17
M  V30 18 1 8 18
M  V30 END BOND
M  V30 END CTAB
M  END
>  <Structure No>
6379

>  <LogS>
-1.7

>  <MMFF94 Energy>
37.299

$$$$
Compound 6380
Actelion Java MolfileCreator 2.0

  0  0  0  0  0  0              0 V3000
M  V30 BEGIN CTAB
M  V30 COUNTS 54 57 0 0 0
M  V30 BEGIN ATOM
M  V30 1 O -6.0037 0.4048 -1.8631 0
M  V30 2 C -4.8971 0.4067 -1.2618 0
M  V30 3 C -4.1154 -0.8347 -1.181 0
M  V30 4 C -4.4099 1.6652 -0.6185 0
M  V30 5 C -2.9603 -0.918 -0.4926 0
M  V30 6 C -2.9014 1.5949 -0.3443 0
M  V30 7 C -2.4483 0.2668 0.3553 0 CFG=2
M  V30 8 C -2.2477 -2.2477 -0.5395 0
M  V30 9 C -0.8597 0.2116 0.6203 0 CFG=2
M  V30 10 C -3.1589 0.1692 1.7319 0
M  V30 11 C -0.9342 -2.253 0.2237 0
M  V30 12 C -0.0729 1.5233 0.3702 0 CFG=2
M  V30 13 C -0.1365 -0.9697 -0.0727 0 CFG=2
M  V30 14 O -0.0388 1.8441 -0.9959 0
M  V30 15 C 1.3529 1.4178 0.9336 0
M  V30 16 C 1.3398 -1.1407 0.4179 0 CFG=2
M  V30 17 C 2.169 0.1722 0.478 0 CFG=1
M  V30 18 C 2.1346 -2.0443 -0.5565 0
M  V30 19 C 2.719 0.2955 -0.9653 0 CFG=2
M  V30 20 C 3.3238 -0.0178 1.5019 0
M  V30 21 C 3.0126 -1.1358 -1.4226 0
M  V30 22 C 3.8492 1.2962 -1.1723 0
M  V30 23 O 3.5669 2.4118 -1.5832 0
M  V30 24 C 5.2964 1.0035 -0.88 0
M  V30 25 H -4.4823 -1.697 -1.7271 0
M  V30 26 H -4.6138 2.5251 -1.293 0
M  V30 27 H -4.9713 1.8425 0.3227 0
M  V30 28 H -2.6433 2.4827 0.2687 0
M  V30 29 H -2.3974 1.683 -1.3292 0
M  V30 30 H -2.0356 -2.5008 -1.6023 0
M  V30 31 H -2.9086 -3.04 -0.1245 0
M  V30 32 H -0.7174 0.0203 1.7102 0
M  V30 33 H -4.2621 0.1016 1.6314 0
M  V30 34 H -2.9147 1.0541 2.3586 0
M  V30 35 H -2.836 -0.7444 2.2756 0
M  V30 36 H -0.3724 -3.1643 -0.068 0
M  V30 37 H -1.1353 -2.3404 1.3147 0
M  V30 38 H -0.5654 2.3455 0.937 0
M  V30 39 H -0.1321 -0.7877 -1.1721 0
M  V30 40 H 0.2089 2.8035 -1.0613 0
M  V30 41 H 1.9145 2.3456 0.6886 0
M  V30 42 H 1.257 1.4064 2.0431 0
M  V30 43 H 1.3093 -1.6149 1.4264 0
M  V30 44 H 2.779 -2.7385 0.0267 0
M  V30 45 H 1.4851 -2.6644 -1.2099 0
M  V30 46 H 1.8922 0.6292 -1.6242 0
M  V30 47 H 3.9408 0.902 1.5804 0
M  V30 48 H 2.9167 -0.2287 2.5145 0
M  V30 49 H 3.9816 -0.8689 1.2293 0
M  V30 50 H 2.7619 -1.2579 -2.4999 0
M  V30 51 H 4.0744 -1.4224 -1.2896 0
M  V30 52 H 5.4463 0.0301 -0.3776 0
M  V30 53 H 5.8707 1.0064 -1.8296 0
M  V30 54 H 5.704 1.7928 -0.2137 0
M  V30 END ATOM
M  V30 BEGIN BOND
M  V30 1 2 1 2
M  V30 2 1 2 3
M  V30 3 1 2 4
M  V30 4 2 3 5
M  V30 5 1 4 6
M  V30 6 1 5 7
M  V30 7 1 5 8
M  V30 8 1 7 9
M  V30 9 1 7 10
M  V30 10 1 8 11
M  V30 11 1 9 12
M  V30 12 1 9 13
M  V30 13 1 12 14
M  V30 14 1 12 15
M  V30 15 1 13 16
M  V30 16 1 15 17
M  V30 17 1 16 18
M  V30 18 1 17 19
M  V30 19 1 17 20
M  V30 20 1 18 21
M  V30 21 1 19 22
M  V30 22 2 22 23
M  V30 23 1 22 24
M  V30 24 1 6 7
M  V30 25 1 11 13
M  V30 26 1 16 17
M  V30 27 1 19 21
M  V30 28 1 3 25
M  V30 29 1 4 26
M  V30 30 1 4 27
M  V30 31 1 6 28
M  V30 32 1 6 29
M  V30 33 1 8 30
M  V30 34 1 8 31
M  V30 35 1 9 32
M  V30 36 1 10 33
M  V30 37 1 10 34
M  V30 38 1 10 35
M  V30 39 1 11 36
M  V30 40 1 11 37
M  V30 41 1 12 38
M  V30 42 1 13 39
M  V30 43 1 14 40
M  V30 44 1 15 41
M  V30 45 1 15 42
M  V30 46 1 16 43
M  V30 47 1 18 44
M  V30 48 1 18 45
M  V30 49 1 19 46
M  V30 50 1 20 47
M  V30 51 1 20 48
M  V30 52 1 20 49
M  V30 53 1 21 50
M  V30 54 1 21 51
M  V30 55 1 24 52
M  V30 56 1 24 53
M  V30 57 1 24 54
M  V30 END BOND
M  V30 BEGIN COLLECTION
M  V30 MDLV30/STEABS ATOMS=(7 7 9 12 13 16 17 19)
M  V30 END COLLECTION
M  V30 END CTAB
M  END
>  <Structure No>
6380

>  <LogS>
-3.82

>  <MMFF94 Energy>
86.056

$$$$
Compound 6381
Actelion Java MolfileCreator 2.0

  0  0  0  0  0  0              0 V3000
M  V30 BEGIN CTAB
M  V30 COUNTS 25 25 0 0 0
M  V30 BEGIN ATOM
M  V30 1 Cl -4.7698 -2.465 1.3141 0
M  V30 2 C -4.1047 -1.063 0.4956 0
M  V30 3 C -2.7178 -0.9012 0.399 0
M  V30 4 C -4.961 -0.1132 -0.0699 0
M  V30 5 C -2.1778 0.2229 -0.254 0
M  V30 6 C -4.4323 0.9927 -0.7399 0
M  V30 7 N -0.7576 0.4031 -0.3892 0
M  V30 8 C -3.0477 1.1566 -0.8385 0
M  V30 9 C 0.2044 0.0178 0.6018 0
M  V30 10 O -0.1665 -0.3299 1.7568 0
M  V30 11 O 1.5646 0.0732 0.2858 0
M  V30 12 C 2.5834 -0.2771 1.2149 0
M  V30 13 C 3.8915 -0.1183 0.5797 0
M  V30 14 C 4.969 0.0125 0.0551 0
M  V30 15 C 6.2763 0.1715 -0.582 0
M  V30 16 Cl 6.1786 -0.3546 -2.278 0
M  V30 17 H -2.07 -1.6643 0.8091 0
M  V30 18 H -6.0342 -0.2354 0.0015 0
M  V30 19 H -5.096 1.7227 -1.1848 0
M  V30 20 H -0.402 0.9251 -1.2218 0
M  V30 21 H -2.6506 2.0175 -1.362 0
M  V30 22 H 2.5294 0.3857 2.1044 0
M  V30 23 H 2.4602 -1.3348 1.5309 0
M  V30 24 H 7.0262 -0.4459 -0.0461 0
M  V30 25 H 6.5796 1.2379 -0.5432 0
M  V30 END ATOM
M  V30 BEGIN BOND
M  V30 1 1 1 2
M  V30 2 2 2 3
M  V30 3 1 2 4
M  V30 4 1 3 5
M  V30 5 2 4 6
M  V30 6 1 5 7
M  V30 7 2 5 8
M  V30 8 1 7 9
M  V30 9 2 9 10
M  V30 10 1 9 11
M  V30 11 1 11 12
M  V30 12 1 12 13
M  V30 13 3 13 14
M  V30 14 1 14 15
M  V30 15 1 15 16
M  V30 16 1 6 8
M  V30 17 1 3 17
M  V30 18 1 4 18
M  V30 19 1 6 19
M  V30 20 1 7 20
M  V30 21 1 8 21
M  V30 22 1 12 22
M  V30 23 1 12 23
M  V30 24 1 15 24
M  V30 25 1 15 25
M  V30 END BOND
M  V30 END CTAB
M  END
>  <Structure No>
6381

>  <LogS>
-4.24

>  <MMFF94 Energy>
-41.464

$$$$
Compound 6382
Actelion Java MolfileCreator 2.0

  0  0  0  0  0  0              0 V3000
M  V30 BEGIN CTAB
M  V30 COUNTS 57 60 0 0 0
M  V30 BEGIN ATOM
M  V30 1 O -5.831 0.97 2.6693 0
M  V30 2 C -4.8936 0.9528 1.8275 0
M  V30 3 C -4.7897 -0.1601 0.8735 0
M  V30 4 C -3.8383 2.0097 1.8626 0
M  V30 5 C -3.8319 -0.198 -0.0761 0
M  V30 6 C -3.2912 2.2283 0.4528 0
M  V30 7 C -2.7871 0.9122 -0.2341 0 CFG=1
M  V30 8 C -3.509 -1.5257 -0.7039 0
M  V30 9 C -1.4433 0.3551 0.3879 0 CFG=1
M  V30 10 C -2.6192 1.253 -1.7407 0
M  V30 11 C -2.2304 -2.0512 -0.0498 0
M  V30 12 C -1.0467 -1.0486 -0.1857 0 CFG=2
M  V30 13 C -0.2471 1.315 0.2325 0
M  V30 14 C 0.2327 -1.6312 0.5093 0 CFG=2
M  V30 15 C 0.9404 0.81 1.0483 0
M  V30 16 C 1.4031 -0.6211 0.6686 0 CFG=2
M  V30 17 C 0.8491 -2.7617 -0.3447 0
M  V30 18 C 2.1203 -0.688 -0.7013 0 CFG=2
M  V30 19 C 2.354 -1.1098 1.7972 0
M  V30 20 C 2.0075 -2.1484 -1.1356 0
M  V30 21 O 3.4959 -0.3007 -0.6268 0
M  V30 22 C 3.9477 1.0105 -0.8095 0
M  V30 23 O 3.174 1.907 -1.2436 0
M  V30 24 C 5.3784 1.3385 -0.53 0
M  V30 25 C 6.2052 1.3088 -1.811 0
M  V30 26 H -5.4631 -1.0023 1.0044 0
M  V30 27 H -3.0261 1.7067 2.5537 0
M  V30 28 H -4.2741 2.9605 2.2396 0
M  V30 29 H -2.5135 3.0169 0.4756 0
M  V30 30 H -4.124 2.6566 -0.1535 0
M  V30 31 H -4.3275 -2.2664 -0.5588 0
M  V30 32 H -3.3664 -1.4198 -1.8002 0
M  V30 33 H -1.6195 0.2157 1.4791 0
M  V30 34 H -3.608 1.4758 -2.1975 0
M  V30 35 H -2.1633 0.4335 -2.3272 0
M  V30 36 H -1.9792 2.15 -1.8735 0
M  V30 37 H -1.9881 -3.0257 -0.5175 0
M  V30 38 H -2.4306 -2.2451 1.0285 0
M  V30 39 H -0.8165 -0.9368 -1.2667 0
M  V30 40 H 0.0354 1.4319 -0.8341 0
M  V30 41 H -0.4897 2.3223 0.6252 0
M  V30 42 H -0.0656 -2.0275 1.5082 0
M  V30 43 H 1.7855 1.527 0.9469 0
M  V30 44 H 0.6419 0.8292 2.1253 0
M  V30 45 H 1.2454 -3.5616 0.3276 0
M  V30 46 H 0.1323 -3.24 -1.0399 0
M  V30 47 H 1.5917 -0.0746 -1.4624 0
M  V30 48 H 1.8108 -1.1816 2.7625 0
M  V30 49 H 3.1984 -0.3995 1.9373 0
M  V30 50 H 2.7801 -2.1087 1.576 0
M  V30 51 H 1.8286 -2.218 -2.2258 0
M  V30 52 H 2.9462 -2.6989 -0.9047 0
M  V30 53 H 5.4413 2.3417 -0.0617 0
M  V30 54 H 5.7929 0.5957 0.1862 0
M  V30 55 H 7.2351 1.6412 -1.5921 0
M  V30 56 H 5.7683 1.983 -2.5718 0
M  V30 57 H 6.2489 0.2735 -2.2152 0
M  V30 END ATOM
M  V30 BEGIN BOND
M  V30 1 2 1 2
M  V30 2 1 2 3
M  V30 3 1 2 4
M  V30 4 2 3 5
M  V30 5 1 4 6
M  V30 6 1 5 7
M  V30 7 1 5 8
M  V30 8 1 7 9
M  V30 9 1 7 10
M  V30 10 1 8 11
M  V30 11 1 9 12
M  V30 12 1 9 13
M  V30 13 1 12 14
M  V30 14 1 13 15
M  V30 15 1 14 16
M  V30 16 1 14 17
M  V30 17 1 16 18
M  V30 18 1 16 19
M  V30 19 1 17 20
M  V30 20 1 18 21
M  V30 21 1 21 22
M  V30 22 2 22 23
M  V30 23 1 22 24
M  V30 24 1 24 25
M  V30 25 1 6 7
M  V30 26 1 11 12
M  V30 27 1 15 16
M  V30 28 1 18 20
M  V30 29 1 3 26
M  V30 30 1 4 27
M  V30 31 1 4 28
M  V30 32 1 6 29
M  V30 33 1 6 30
M  V30 34 1 8 31
M  V30 35 1 8 32
M  V30 36 1 9 33
M  V30 37 1 10 34
M  V30 38 1 10 35
M  V30 39 1 10 36
M  V30 40 1 11 37
M  V30 41 1 11 38
M  V30 42 1 12 39
M  V30 43 1 13 40
M  V30 44 1 13 41
M  V30 45 1 14 42
M  V30 46 1 15 43
M  V30 47 1 15 44
M  V30 48 1 17 45
M  V30 49 1 17 46
M  V30 50 1 18 47
M  V30 51 1 19 48
M  V30 52 1 19 49
M  V30 53 1 19 50
M  V30 54 1 20 51
M  V30 55 1 20 52
M  V30 56 1 24 53
M  V30 57 1 24 54
M  V30 58 1 25 55
M  V30 59 1 25 56
M  V30 60 1 25 57
M  V30 END BOND
M  V30 BEGIN COLLECTION
M  V30 MDLV30/STEABS ATOMS=(6 7 9 12 14 16 18)
M  V30 END COLLECTION
M  V30 END CTAB
M  END
>  <Structure No>
6382

>  <LogS>
-5.37

>  <MMFF94 Energy>
58.622

$$$$
Compound 6383
Actelion Java MolfileCreator 2.0

  0  0  0  0  0  0              0 V3000
M  V30 BEGIN CTAB
M  V30 COUNTS 28 27 0 0 0
M  V30 BEGIN ATOM
M  V30 1 S 3.7493 -0.3328 -0.3328 0
M  V30 2 O 5.0194 0.2743 -0.8572 0
M  V30 3 O 3.1022 0.6425 0.6118 0
M  V30 4 O 2.7292 -0.6746 -1.6468 0
M  V30 5 C 4.1518 -1.8343 0.5357 0
M  V30 6 C 1.411 -0.9038 -1.1963 0
M  V30 7 C 0.5584 0.3505 -1.4234 0
M  V30 8 C -0.9296 0.124 -1.1138 0
M  V30 9 C -1.2079 -0.0265 0.387 0
M  V30 10 O -2.6002 -0.098 0.6096 0
M  V30 11 S -3.1714 1.3888 1.1955 0
M  V30 12 O -2.6386 1.634 2.5798 0
M  V30 13 O -2.7568 2.5127 0.2865 0
M  V30 14 C -4.9468 1.3289 1.2611 0
M  V30 15 H 4.575 -2.5714 -0.1769 0
M  V30 16 H 3.2398 -2.2575 1.0039 0
M  V30 17 H 4.8992 -1.616 1.3263 0
M  V30 18 H 0.9892 -1.7327 -1.8033 0
M  V30 19 H 1.3555 -1.2353 -0.1361 0
M  V30 20 H 0.6494 0.6472 -2.4912 0
M  V30 21 H 0.9459 1.1929 -0.8116 0
M  V30 22 H -1.299 -0.7744 -1.6549 0
M  V30 23 H -1.4974 0.9983 -1.4975 0
M  V30 24 H -0.7684 -0.9819 0.7397 0
M  V30 25 H -0.6998 0.7821 0.9623 0
M  V30 26 H -5.2652 0.506 1.9338 0
M  V30 27 H -5.3379 2.2931 1.6469 0
M  V30 28 H -5.3492 1.1484 0.2431 0
M  V30 END ATOM
M  V30 BEGIN BOND
M  V30 1 2 1 2
M  V30 2 2 1 3
M  V30 3 1 1 4
M  V30 4 1 1 5
M  V30 5 1 4 6
M  V30 6 1 6 7
M  V30 7 1 7 8
M  V30 8 1 8 9
M  V30 9 1 9 10
M  V30 10 1 10 11
M  V30 11 2 11 12
M  V30 12 2 11 13
M  V30 13 1 11 14
M  V30 14 1 5 15
M  V30 15 1 5 16
M  V30 16 1 5 17
M  V30 17 1 6 18
M  V30 18 1 6 19
M  V30 19 1 7 20
M  V30 20 1 7 21
M  V30 21 1 8 22
M  V30 22 1 8 23
M  V30 23 1 9 24
M  V30 24 1 9 25
M  V30 25 1 14 26
M  V30 26 1 14 27
M  V30 27 1 14 28
M  V30 END BOND
M  V30 END CTAB
M  END
>  <Structure No>
6383

>  <LogS>
-2.27

>  <MMFF94 Energy>
-47.398

$$$$
Compound 6384
Actelion Java MolfileCreator 2.0

  0  0  0  0  0  0              0 V3000
M  V30 BEGIN CTAB
M  V30 COUNTS 17 17 0 0 0
M  V30 BEGIN ATOM
M  V30 1 Cl 0.0873 -2.7982 -0.3494 0
M  V30 2 C -0.5324 -1.1494 -0.2015 0
M  V30 3 C -1.8877 -0.9574 0.1255 0
M  V30 4 C 0.3133 -0.028 -0.3994 0
M  V30 5 Cl -2.9748 -2.3197 0.3705 0
M  V30 6 C -2.3981 0.3336 0.2672 0
M  V30 7 C -0.2217 1.272 -0.2315 0
M  V30 8 C 1.7793 -0.2148 -0.7309 0
M  V30 9 C -1.5705 1.4397 0.0936 0
M  V30 10 Cl 0.7614 2.7237 -0.41 0
M  V30 11 C 2.5896 -0.3115 0.5232 0
M  V30 12 O 3.0302 0.7308 1.0753 0
M  V30 13 O 2.8251 -1.5497 1.1069 0 CHG=-1
M  V30 14 H -3.4405 0.4821 0.52 0
M  V30 15 H 1.937 -1.1257 -1.3444 0
M  V30 16 H 2.157 0.621 -1.3561 0
M  V30 17 H -1.9803 2.4344 0.2169 0
M  V30 END ATOM
M  V30 BEGIN BOND
M  V30 1 1 1 2
M  V30 2 2 2 3
M  V30 3 1 2 4
M  V30 4 1 3 5
M  V30 5 1 3 6
M  V30 6 2 4 7
M  V30 7 1 4 8
M  V30 8 2 6 9
M  V30 9 1 7 10
M  V30 10 1 8 11
M  V30 11 2 11 12
M  V30 12 1 11 13
M  V30 13 1 7 9
M  V30 14 1 6 14
M  V30 15 1 8 15
M  V30 16 1 8 16
M  V30 17 1 9 17
M  V30 END BOND
M  V30 END CTAB
M  END
>  <Structure No>
6384

>  <LogS>
-3.08

>  <MMFF94 Energy>
43.354

$$$$
Compound 6385
Actelion Java MolfileCreator 2.0

  0  0  0  0  0  0              0 V3000
M  V30 BEGIN CTAB
M  V30 COUNTS 51 53 0 0 0
M  V30 BEGIN ATOM
M  V30 1 O -0.3971 -0.2382 -1.9075 0
M  V30 2 C -0.5941 0.3821 -0.6544 0 CFG=1
M  V30 3 C -0.938 1.8742 -0.8483 0
M  V30 4 C -1.8089 -0.3191 0.0612 0
M  V30 5 C 0.7257 0.2896 0.2011 0
M  V30 6 C -0.9858 2.743 0.2635 0
M  V30 7 C -1.2891 2.3949 -2.1143 0
M  V30 8 C -3.1371 -0.1564 -0.7232 0
M  V30 9 C -1.5632 -1.8292 0.3446 0
M  V30 10 C 1.6391 -0.9326 -0.0676 0
M  V30 11 C -1.3258 4.0896 0.1088 0
M  V30 12 C -1.617 3.7458 -2.2651 0
M  V30 13 C -4.3503 -0.6656 0.0824 0
M  V30 14 C -2.8514 -2.6548 0.5443 0
M  V30 15 N 2.8738 -0.8765 0.7487 0 CHG=1
M  V30 16 C -1.6252 4.5942 -1.1571 0
M  V30 17 C -4.004 -1.7969 1.0671 0
M  V30 18 C 3.6117 -2.1439 0.6958 0
M  V30 19 C 3.829 0.1436 0.2879 0
M  V30 20 C 5.0635 -1.8173 1.0056 0
M  V30 21 C 5.2254 -0.3468 0.6567 0
M  V30 22 H 0.3641 0.2154 -2.3566 0
M  V30 23 H -1.9536 0.1809 1.0461 0
M  V30 24 H 1.3412 1.1931 -5.0E-4 0
M  V30 25 H 0.4741 0.3152 1.2841 0
M  V30 26 H -0.7662 2.379 1.2592 0
M  V30 27 H -1.3127 1.7641 -2.9947 0
M  V30 28 H -3.3319 0.9042 -0.9814 0
M  V30 29 H -3.0676 -0.722 -1.6785 0
M  V30 30 H -1.009 -2.2925 -0.4979 0
M  V30 31 H -0.9458 -1.9209 1.2634 0
M  V30 32 H 1.0948 -1.8619 0.1824 0
M  V30 33 H 1.8999 -0.9926 -1.1463 0
M  V30 34 H -1.3539 4.7431 0.9715 0
M  V30 35 H -1.8695 4.1352 -3.2437 0
M  V30 36 H -5.1245 -1.0224 -0.6318 0
M  V30 37 H -4.7946 0.1774 0.6565 0
M  V30 38 H -3.155 -3.1097 -0.4248 0
M  V30 39 H -2.6552 -3.4873 1.2552 0
M  V30 40 H 2.6254 -0.6846 1.7501 0
M  V30 41 H -1.885 5.6382 -1.276 0
M  V30 42 H -3.7188 -1.3641 2.0521 0
M  V30 43 H -4.8998 -2.4361 1.2264 0
M  V30 44 H 3.2044 -2.8746 1.4308 0
M  V30 45 H 3.5579 -2.5946 -0.3225 0
M  V30 46 H 3.6242 1.1255 0.7742 0
M  V30 47 H 3.7769 0.281 -0.8173 0
M  V30 48 H 5.7527 -2.4566 0.4115 0
M  V30 49 H 5.2648 -1.9713 2.0908 0
M  V30 50 H 5.6082 0.2132 1.5401 0
M  V30 51 H 5.9269 -0.2147 -0.1934 0
M  V30 END ATOM
M  V30 BEGIN BOND
M  V30 1 1 1 2
M  V30 2 1 2 3
M  V30 3 1 2 4
M  V30 4 1 2 5
M  V30 5 2 3 6
M  V30 6 1 3 7
M  V30 7 1 4 8
M  V30 8 1 4 9
M  V30 9 1 5 10
M  V30 10 1 6 11
M  V30 11 2 7 12
M  V30 12 1 8 13
M  V30 13 1 9 14
M  V30 14 1 10 15
M  V30 15 2 11 16
M  V30 16 1 13 17
M  V30 17 1 15 18
M  V30 18 1 15 19
M  V30 19 1 18 20
M  V30 20 1 19 21
M  V30 21 1 12 16
M  V30 22 1 14 17
M  V30 23 1 20 21
M  V30 24 1 1 22
M  V30 25 1 4 23
M  V30 26 1 5 24
M  V30 27 1 5 25
M  V30 28 1 6 26
M  V30 29 1 7 27
M  V30 30 1 8 28
M  V30 31 1 8 29
M  V30 32 1 9 30
M  V30 33 1 9 31
M  V30 34 1 10 32
M  V30 35 1 10 33
M  V30 36 1 11 34
M  V30 37 1 12 35
M  V30 38 1 13 36
M  V30 39 1 13 37
M  V30 40 1 14 38
M  V30 41 1 14 39
M  V30 42 1 15 40
M  V30 43 1 16 41
M  V30 44 1 17 42
M  V30 45 1 17 43
M  V30 46 1 18 44
M  V30 47 1 18 45
M  V30 48 1 19 46
M  V30 49 1 19 47
M  V30 50 1 20 48
M  V30 51 1 20 49
M  V30 52 1 21 50
M  V30 53 1 21 51
M  V30 END BOND
M  V30 BEGIN COLLECTION
M  V30 MDLV30/STEABS ATOMS=(1 2)
M  V30 END COLLECTION
M  V30 END CTAB
M  END
>  <Structure No>
6385

>  <LogS>
-4.7

>  <MMFF94 Energy>
42.847

$$$$
Compound 6386
Actelion Java MolfileCreator 2.0

  0  0  0  0  0  0              0 V3000
M  V30 BEGIN CTAB
M  V30 COUNTS 31 32 0 0 0
M  V30 BEGIN ATOM
M  V30 1 O 3.4292 0.3186 -1.2749 0
M  V30 2 C 3.1322 -0.0555 -0.1071 0
M  V30 3 O 1.8125 0.0173 0.3564 0
M  V30 4 N 4.137 -0.6164 0.7423 0
M  V30 5 C 0.7866 0.7732 -0.2295 0
M  V30 6 C 5.5254 -0.741 0.317 0
M  V30 7 C -0.5385 0.3689 -0.0613 0
M  V30 8 C 1.0224 1.9624 -0.9577 0
M  V30 9 O -0.9764 -0.7424 0.6264 0
M  V30 10 C -1.5827 1.0684 -0.5951 0
M  V30 11 C -0.0556 2.6834 -1.5089 0
M  V30 12 C -2.403 -0.8351 0.5777 0
M  V30 13 C -1.3739 2.234 -1.3315 0
M  V30 14 C -2.8687 0.4016 -0.2612 0
M  V30 15 C -2.7992 -2.1522 -0.1029 0
M  V30 16 C -2.9605 -0.7819 2.0065 0
M  V30 17 H 3.8668 -0.9416 1.6977 0
M  V30 18 H 5.5871 -1.3899 -0.5817 0
M  V30 19 H 5.9384 0.2621 0.0807 0
M  V30 20 H 6.1295 -1.1957 1.1304 0
M  V30 21 H 2.0233 2.3529 -1.0764 0
M  V30 22 H 0.1322 3.5938 -2.0633 0
M  V30 23 H -2.2074 2.7836 -1.7492 0
M  V30 24 H -3.3942 0.1108 -1.1969 0
M  V30 25 H -3.5113 1.0969 0.3219 0
M  V30 26 H -2.416 -3.0173 0.4793 0
M  V30 27 H -3.9049 -2.2323 -0.18 0
M  V30 28 H -2.365 -2.2012 -1.1245 0
M  V30 29 H -2.6429 0.1578 2.5072 0
M  V30 30 H -2.5783 -1.6388 2.6016 0
M  V30 31 H -4.071 -0.8217 1.992 0
M  V30 END ATOM
M  V30 BEGIN BOND
M  V30 1 2 1 2
M  V30 2 1 2 3
M  V30 3 1 2 4
M  V30 4 1 3 5
M  V30 5 1 4 6
M  V30 6 2 5 7
M  V30 7 1 5 8
M  V30 8 1 7 9
M  V30 9 1 7 10
M  V30 10 2 8 11
M  V30 11 1 9 12
M  V30 12 2 10 13
M  V30 13 1 10 14
M  V30 14 1 12 15
M  V30 15 1 12 16
M  V30 16 1 11 13
M  V30 17 1 12 14
M  V30 18 1 4 17
M  V30 19 1 6 18
M  V30 20 1 6 19
M  V30 21 1 6 20
M  V30 22 1 8 21
M  V30 23 1 11 22
M  V30 24 1 13 23
M  V30 25 1 14 24
M  V30 26 1 14 25
M  V30 27 1 15 26
M  V30 28 1 15 27
M  V30 29 1 15 28
M  V30 30 1 16 29
M  V30 31 1 16 30
M  V30 32 1 16 31
M  V30 END BOND
M  V30 END CTAB
M  END
>  <Structure No>
6386

>  <LogS>
-2.42

>  <MMFF94 Energy>
4.0626

$$$$
Compound 6387
Actelion Java MolfileCreator 2.0

  0  0  0  0  0  0              0 V3000
M  V30 BEGIN CTAB
M  V30 COUNTS 54 56 0 0 0
M  V30 BEGIN ATOM
M  V30 1 O 0.0794 0.7148 -1.1121 0
M  V30 2 C -0.6646 0.298 0.013 0 CFG=2
M  V30 3 C -0.9983 -1.2045 -0.0631 0
M  V30 4 C -1.9862 1.1587 0.1105 0
M  V30 5 C 0.2144 0.5665 1.2771 0
M  V30 6 C -1.7671 -1.8119 0.9542 0
M  V30 7 C -0.5192 -2.0208 -1.1126 0
M  V30 8 C -1.6989 2.6893 0.1702 0
M  V30 9 C -3.0136 0.8557 -1.0104 0
M  V30 10 C 1.4041 -0.4006 1.5243 0
M  V30 11 C -2.0629 -3.1766 0.9101 0
M  V30 12 C -0.8183 -3.3856 -1.1487 0
M  V30 13 C -2.8856 3.5632 -0.2861 0
M  V30 14 C -4.3661 1.545 -0.7362 0
M  V30 15 N 2.4034 -0.4657 0.4277 0 CHG=1
M  V30 16 C -1.5916 -3.9622 -0.1412 0
M  V30 17 C -4.2297 2.8903 0.0047 0
M  V30 18 C 3.1261 0.8203 0.2713 0
M  V30 19 C 3.3606 -1.5615 0.7121 0
M  V30 20 C 4.1586 0.7474 -0.8629 0
M  V30 21 C 4.3942 -1.7099 -0.4123 0
M  V30 22 C 5.1445 -0.3957 -0.6249 0
M  V30 23 H -0.4781 0.6041 -1.9236 0
M  V30 24 H -2.4903 0.8981 1.0675 0
M  V30 25 H 0.5908 1.6096 1.2629 0
M  V30 26 H -0.4301 0.5063 2.1813 0
M  V30 27 H -2.1311 -1.2352 1.7935 0
M  V30 28 H 0.0953 -1.6186 -1.9056 0
M  V30 29 H -0.8224 2.9535 -0.4588 0
M  V30 30 H -1.4431 2.962 1.2176 0
M  V30 31 H -2.6267 1.2202 -1.986 0
M  V30 32 H -3.194 -0.235 -1.1087 0
M  V30 33 H 1.9038 -0.091 2.4706 0
M  V30 34 H 0.9867 -1.4132 1.7209 0
M  V30 35 H -2.6547 -3.6268 1.6967 0
M  V30 36 H -0.4455 -3.9985 -1.9591 0
M  V30 37 H -2.8426 4.547 0.2295 0
M  V30 38 H -2.8077 3.7549 -1.3791 0
M  V30 39 H -4.8848 1.7087 -1.7059 0
M  V30 40 H -5.0075 0.8692 -0.1294 0
M  V30 41 H 1.9184 -0.7023 -0.4664 0
M  V30 42 H -1.82 -5.0196 -0.1718 0
M  V30 43 H -5.058 3.5668 -0.2981 0
M  V30 44 H -4.3184 2.7224 1.1008 0
M  V30 45 H 2.4213 1.6365 0.0096 0
M  V30 46 H 3.6381 1.1011 1.2199 0
M  V30 47 H 2.8186 -2.5301 0.8021 0
M  V30 48 H 3.8904 -1.3795 1.6757 0
M  V30 49 H 4.7147 1.7079 -0.9201 0
M  V30 50 H 3.6355 0.5937 -1.8324 0
M  V30 51 H 5.1186 -2.5097 -0.1468 0
M  V30 52 H 3.8818 -2.0063 -1.354 0
M  V30 53 H 5.7679 -0.1718 0.2687 0
M  V30 54 H 5.82 -0.4918 -1.5019 0
M  V30 END ATOM
M  V30 BEGIN BOND
M  V30 1 1 1 2
M  V30 2 1 2 3
M  V30 3 1 2 4
M  V30 4 1 2 5
M  V30 5 2 3 6
M  V30 6 1 3 7
M  V30 7 1 4 8
M  V30 8 1 4 9
M  V30 9 1 5 10
M  V30 10 1 6 11
M  V30 11 2 7 12
M  V30 12 1 8 13
M  V30 13 1 9 14
M  V30 14 1 10 15
M  V30 15 2 11 16
M  V30 16 1 13 17
M  V30 17 1 15 18
M  V30 18 1 15 19
M  V30 19 1 18 20
M  V30 20 1 19 21
M  V30 21 1 20 22
M  V30 22 1 12 16
M  V30 23 1 14 17
M  V30 24 1 21 22
M  V30 25 1 1 23
M  V30 26 1 4 24
M  V30 27 1 5 25
M  V30 28 1 5 26
M  V30 29 1 6 27
M  V30 30 1 7 28
M  V30 31 1 8 29
M  V30 32 1 8 30
M  V30 33 1 9 31
M  V30 34 1 9 32
M  V30 35 1 10 33
M  V30 36 1 10 34
M  V30 37 1 11 35
M  V30 38 1 12 36
M  V30 39 1 13 37
M  V30 40 1 13 38
M  V30 41 1 14 39
M  V30 42 1 14 40
M  V30 43 1 15 41
M  V30 44 1 16 42
M  V30 45 1 17 43
M  V30 46 1 17 44
M  V30 47 1 18 45
M  V30 48 1 18 46
M  V30 49 1 19 47
M  V30 50 1 19 48
M  V30 51 1 20 49
M  V30 52 1 20 50
M  V30 53 1 21 51
M  V30 54 1 21 52
M  V30 55 1 22 53
M  V30 56 1 22 54
M  V30 END BOND
M  V30 BEGIN COLLECTION
M  V30 MDLV30/STEABS ATOMS=(1 2)
M  V30 END COLLECTION
M  V30 END CTAB
M  END
>  <Structure No>
6387

>  <LogS>
-5.2

>  <MMFF94 Energy>
37.127

$$$$
Compound 6388
Actelion Java MolfileCreator 2.0

  0  0  0  0  0  0              0 V3000
M  V30 BEGIN CTAB
M  V30 COUNTS 18 19 0 0 0
M  V30 BEGIN ATOM
M  V30 1 Cl 3.8555 1.5911 0.3348 0
M  V30 2 C 2.3455 0.6982 0.2089 0
M  V30 3 C 2.3378 -0.6972 0.0429 0
M  V30 4 C 1.137 1.4011 0.2767 0
M  V30 5 Cl 3.8378 -1.6111 -0.0461 0
M  V30 6 C 1.1216 -1.3832 -0.0545 0
M  V30 7 C -0.0854 0.7202 0.1797 0
M  V30 8 C -0.0931 -0.6854 0.0124 0
M  V30 9 C -1.3015 1.4184 0.2469 0
M  V30 10 C -1.3168 -1.3665 -0.0844 0
M  V30 11 C -2.5131 0.7281 0.1489 0
M  V30 12 C -2.5208 -0.6594 -0.0161 0
M  V30 13 H 1.1538 2.4774 0.4049 0
M  V30 14 H 1.1267 -2.4595 -0.1825 0
M  V30 15 H -1.3148 2.4944 0.3747 0
M  V30 16 H -1.342 -2.4421 -0.2127 0
M  V30 17 H -3.4488 1.2702 0.2011 0
M  V30 18 H -3.4623 -1.1882 -0.0912 0
M  V30 END ATOM
M  V30 BEGIN BOND
M  V30 1 1 1 2
M  V30 2 1 2 3
M  V30 3 2 2 4
M  V30 4 1 3 5
M  V30 5 2 3 6
M  V30 6 1 4 7
M  V30 7 1 6 8
M  V30 8 2 7 9
M  V30 9 2 8 10
M  V30 10 1 9 11
M  V30 11 1 10 12
M  V30 12 1 7 8
M  V30 13 2 11 12
M  V30 14 1 4 13
M  V30 15 1 6 14
M  V30 16 1 9 15
M  V30 17 1 10 16
M  V30 18 1 11 17
M  V30 19 1 12 18
M  V30 END BOND
M  V30 END CTAB
M  END
>  <Structure No>
6388

>  <LogS>
-5.36

>  <MMFF94 Energy>
32.319

$$$$
Compound 6389
Actelion Java MolfileCreator 2.0

  0  0  0  0  0  0              0 V3000
M  V30 BEGIN CTAB
M  V30 COUNTS 18 19 0 0 0
M  V30 BEGIN ATOM
M  V30 1 Cl 1.5074 -3.0164 -0.4185 0
M  V30 2 C 1.3459 -1.2774 -0.1822 0
M  V30 3 C 0.0873 -0.6436 -0.067 0
M  V30 4 C 2.518 -0.5158 -0.1086 0
M  V30 5 C 0.0334 0.7629 0.1223 0
M  V30 6 C -1.1181 -1.3696 -0.1348 0
M  V30 7 C 2.4562 0.8657 0.0775 0
M  V30 8 C -1.2081 1.4066 0.2384 0
M  V30 9 C 1.2215 1.5049 0.1929 0
M  V30 10 C -2.3481 -0.7136 -0.0174 0
M  V30 11 C -2.3916 0.6699 0.1686 0
M  V30 12 Cl -3.8413 -1.6305 -0.1039 0
M  V30 13 H 3.484 -0.9966 -0.1962 0
M  V30 14 H -1.1179 -2.4418 -0.2782 0
M  V30 15 H 3.3697 1.4436 0.1327 0
M  V30 16 H -1.263 2.4792 0.3832 0
M  V30 17 H 1.195 2.5786 0.3371 0
M  V30 18 H -3.3441 1.1766 0.2593 0
M  V30 END ATOM
M  V30 BEGIN BOND
M  V30 1 1 1 2
M  V30 2 1 2 3
M  V30 3 2 2 4
M  V30 4 1 3 5
M  V30 5 2 3 6
M  V30 6 1 4 7
M  V30 7 2 5 8
M  V30 8 1 5 9
M  V30 9 1 6 10
M  V30 10 1 8 11
M  V30 11 1 10 12
M  V30 12 2 7 9
M  V30 13 2 10 11
M  V30 14 1 4 13
M  V30 15 1 6 14
M  V30 16 1 7 15
M  V30 17 1 8 16
M  V30 18 1 9 17
M  V30 19 1 11 18
M  V30 END BOND
M  V30 END CTAB
M  END
>  <Structure No>
6389

>  <LogS>
-5.92

>  <MMFF94 Energy>
31.169

$$$$
Compound 6390
Actelion Java MolfileCreator 2.0

  0  0  0  0  0  0              0 V3000
M  V30 BEGIN CTAB
M  V30 COUNTS 38 39 0 0 0
M  V30 BEGIN ATOM
M  V30 1 O -0.8758 -0.7165 0.4776 0
M  V30 2 C -0.3421 0.1403 -0.519 0 CFG=2
M  V30 3 C -2.2373 -1.0998 0.2744 0 CFG=2
M  V30 4 O 0.9364 0.6064 -0.0907 0
M  V30 5 C -1.2586 1.3595 -0.7448 0 CFG=1
M  V30 6 C -2.8926 -0.5804 -1.0441 0 CFG=2
M  V30 7 C -3.0454 -0.6989 1.5222 0
M  V30 8 C 2.0735 -0.1988 0.0934 0
M  V30 9 O -0.6699 2.276 -1.6344 0
M  V30 10 C -2.6626 0.9312 -1.2448 0 CFG=1
M  V30 11 O -4.2668 -0.8732 -1.0884 0
M  V30 12 O -2.4793 -1.2648 2.6737 0
M  V30 13 C 3.2691 0.404 0.5381 0
M  V30 14 C 2.0539 -1.5862 -0.1575 0
M  V30 15 O -3.6565 1.6647 -0.574 0
M  V30 16 C 4.4257 -0.3775 0.6966 0
M  V30 17 C 3.3375 1.8897 0.7839 0
M  V30 18 C 3.2072 -2.3534 0.0213 0
M  V30 19 C 4.3912 -1.7501 0.4448 0
M  V30 20 O 3.6245 2.5626 -0.4111 0
M  V30 21 H -0.2117 -0.414 -1.4758 0
M  V30 22 H -2.2576 -2.2104 0.2197 0
M  V30 23 H -1.366 1.8705 0.238 0
M  V30 24 H -2.3987 -1.1069 -1.8953 0
M  V30 25 H -3.0333 0.4044 1.6381 0
M  V30 26 H -4.1076 -1.0198 1.4299 0
M  V30 27 H -0.4906 1.7955 -2.4848 0
M  V30 28 H -2.7522 1.1268 -2.3397 0
M  V30 29 H -4.3472 -1.8579 -1.1875 0
M  V30 30 H -2.7321 -2.225 2.6728 0
M  V30 31 H 1.1552 -2.0826 -0.4955 0
M  V30 32 H -3.6166 2.5909 -0.9297 0
M  V30 33 H 5.3555 0.0767 1.0162 0
M  V30 34 H 4.137 2.1189 1.5206 0
M  V30 35 H 2.3857 2.2638 1.2256 0
M  V30 36 H 3.184 -3.4175 -0.1747 0
M  V30 37 H 5.2851 -2.3463 0.5748 0
M  V30 38 H 2.7781 2.5968 -0.9291 0
M  V30 END ATOM
M  V30 BEGIN BOND
M  V30 1 1 1 2
M  V30 2 1 1 3
M  V30 3 1 2 4
M  V30 4 1 2 5
M  V30 5 1 3 6
M  V30 6 1 3 7
M  V30 7 1 4 8
M  V30 8 1 5 9
M  V30 9 1 5 10
M  V30 10 1 6 11
M  V30 11 1 7 12
M  V30 12 2 8 13
M  V30 13 1 8 14
M  V30 14 1 10 15
M  V30 15 1 13 16
M  V30 16 1 13 17
M  V30 17 2 14 18
M  V30 18 2 16 19
M  V30 19 1 17 20
M  V30 20 1 6 10
M  V30 21 1 18 19
M  V30 22 1 2 21
M  V30 23 1 3 22
M  V30 24 1 5 23
M  V30 25 1 6 24
M  V30 26 1 7 25
M  V30 27 1 7 26
M  V30 28 1 9 27
M  V30 29 1 10 28
M  V30 30 1 11 29
M  V30 31 1 12 30
M  V30 32 1 14 31
M  V30 33 1 15 32
M  V30 34 1 16 33
M  V30 35 1 17 34
M  V30 36 1 17 35
M  V30 37 1 18 36
M  V30 38 1 19 37
M  V30 39 1 20 38
M  V30 END BOND
M  V30 BEGIN COLLECTION
M  V30 MDLV30/STEABS ATOMS=(5 2 3 5 6 10)
M  V30 END COLLECTION
M  V30 END CTAB
M  END
>  <Structure No>
6390

>  <LogS>
-0.85

>  <MMFF94 Energy>
127.4

$$$$
Compound 6391
Actelion Java MolfileCreator 2.0

  0  0  0  0  0  0              0 V3000
M  V30 BEGIN CTAB
M  V30 COUNTS 18 19 0 0 0
M  V30 BEGIN ATOM
M  V30 1 Cl 1.2567 -3.186 -0.335 0
M  V30 2 C 1.1789 -1.4291 -0.2124 0
M  V30 3 C -0.0443 -0.7321 -0.0771 0
M  V30 4 C 2.3835 -0.7213 -0.2526 0
M  V30 5 C -0.0358 0.6888 0.0168 0
M  V30 6 C -1.2745 -1.4155 -0.0332 0
M  V30 7 C 2.3909 0.6687 -0.1606 0
M  V30 8 C -1.259 1.3858 0.152 0
M  V30 9 C 1.1943 1.3723 -0.0268 0
M  V30 10 C -2.4711 -0.712 0.1004 0
M  V30 11 Cl -1.3369 3.1427 0.2746 0
M  V30 12 C -2.4638 0.6781 0.1924 0
M  V30 13 H 3.3218 -1.2514 -0.3559 0
M  V30 14 H -1.324 -2.4938 -0.1014 0
M  V30 15 H 3.3305 1.205 -0.1931 0
M  V30 16 H 1.2436 2.4507 0.0412 0
M  V30 17 H -3.4108 -1.2482 0.133 0
M  V30 18 H -3.4022 1.2083 0.2958 0
M  V30 END ATOM
M  V30 BEGIN BOND
M  V30 1 1 1 2
M  V30 2 1 2 3
M  V30 3 2 2 4
M  V30 4 1 3 5
M  V30 5 2 3 6
M  V30 6 1 4 7
M  V30 7 2 5 8
M  V30 8 1 5 9
M  V30 9 1 6 10
M  V30 10 1 8 11
M  V30 11 1 8 12
M  V30 12 2 7 9
M  V30 13 2 10 12
M  V30 14 1 4 13
M  V30 15 1 6 14
M  V30 16 1 7 15
M  V30 17 1 9 16
M  V30 18 1 10 17
M  V30 19 1 12 18
M  V30 END BOND
M  V30 END CTAB
M  END
>  <Structure No>
6391

>  <LogS>
-5.7

>  <MMFF94 Energy>
42.542

$$$$
Compound 6392
Actelion Java MolfileCreator 2.0

  0  0  0  0  0  0              0 V3000
M  V30 BEGIN CTAB
M  V30 COUNTS 20 21 0 0 0
M  V30 BEGIN ATOM
M  V30 1 S 5.7062 -0.1626 0.4067 0
M  V30 2 C 4.2539 -0.7804 0.0816 0
M  V30 3 N 3.1062 -1.2685 -0.1752 0
M  V30 4 C 1.8699 -0.5763 0.0601 0
M  V30 5 C 0.6698 -1.2216 -0.2652 0
M  V30 6 C 1.8297 0.7228 0.6048 0
M  V30 7 C -0.563 -0.586 -0.0533 0
M  V30 8 C 0.6065 1.3637 0.8194 0
M  V30 9 C -0.5948 0.7191 0.4941 0
M  V30 10 C -1.7664 -1.2314 -0.3789 0
M  V30 11 C -1.8286 1.3542 0.7058 0
M  V30 12 C -2.9885 -0.5879 -0.1633 0
M  V30 13 C -3.0195 0.7004 0.3771 0
M  V30 14 H 0.7022 -2.2209 -0.684 0
M  V30 15 H 2.7418 1.2439 0.8652 0
M  V30 16 H 0.6002 2.3626 1.2393 0
M  V30 17 H -1.7617 -2.2301 -0.7988 0
M  V30 18 H -1.8717 2.3529 1.1239 0
M  V30 19 H -3.914 -1.089 -0.4158 0
M  V30 20 H -3.9689 1.1934 0.5418 0
M  V30 END ATOM
M  V30 BEGIN BOND
M  V30 1 2 1 2
M  V30 2 2 2 3
M  V30 3 1 3 4
M  V30 4 2 4 5
M  V30 5 1 4 6
M  V30 6 1 5 7
M  V30 7 2 6 8
M  V30 8 1 7 9
M  V30 9 2 7 10
M  V30 10 2 9 11
M  V30 11 1 10 12
M  V30 12 1 11 13
M  V30 13 1 8 9
M  V30 14 2 12 13
M  V30 15 1 5 14
M  V30 16 1 6 15
M  V30 17 1 8 16
M  V30 18 1 10 17
M  V30 19 1 11 18
M  V30 20 1 12 19
M  V30 21 1 13 20
M  V30 END BOND
M  V30 END CTAB
M  END
>  <Structure No>
6392

>  <LogS>
-4.44

>  <MMFF94 Energy>
24.032

$$$$
Compound 6393
Actelion Java MolfileCreator 2.0

  0  0  0  0  0  0              0 V3000
M  V30 BEGIN CTAB
M  V30 COUNTS 55 58 0 0 0
M  V30 BEGIN ATOM
M  V30 1 O -6.4089 -0.3237 -0.5666 0
M  V30 2 C -5.1929 -0.2915 -0.2436 0
M  V30 3 C -4.4241 0.9456 -0.4422 0
M  V30 4 C -4.5555 -1.5075 0.3573 0
M  V30 5 C -3.1507 1.0564 -0.0254 0
M  V30 6 C -3.0216 -1.4312 0.2924 0
M  V30 7 C -2.4594 -0.0535 0.7676 0 CFG=1
M  V30 8 C -2.3379 2.2503 -0.4228 0
M  V30 9 C -0.8795 0.0464 0.5702 0 CFG=1
M  V30 10 C -2.8174 0.1707 2.2612 0
M  V30 11 C -1.2215 1.7901 -1.3572 0
M  V30 12 C -0.1117 -1.2562 0.9348 0 CFG=2
M  V30 13 C -0.495 0.4921 -0.8787 0 CFG=1
M  V30 14 O -0.3912 -1.6248 2.2603 0
M  V30 15 C 1.4058 -1.0669 0.7965 0
M  V30 16 C 1.0456 0.5978 -1.1041 0 CFG=2
M  V30 17 C 1.8563 -0.6288 -0.6311 0 CFG=1
M  V30 18 C 1.7295 1.8097 -0.4469 0
M  V30 19 C 3.3076 -0.0661 -0.6137 0 CFG=1
M  V30 20 C 1.7288 -1.7981 -1.639 0
M  V30 21 C 3.1579 1.3794 -0.1169 0
M  V30 22 C 4.3397 -0.8804 0.1628 0
M  V30 23 O 4.2456 -2.0971 0.2046 0
M  V30 24 C 5.5605 -0.2478 0.7765 0
M  V30 25 O 5.4416 -0.2729 2.1713 0
M  V30 26 H -4.8907 1.7539 -0.9933 0
M  V30 27 H -4.8884 -1.6075 1.4124 0
M  V30 28 H -4.8964 -2.4125 -0.1907 0
M  V30 29 H -2.6244 -2.2578 0.9187 0
M  V30 30 H -2.7055 -1.6189 -0.7572 0
M  V30 31 H -2.9504 3.0284 -0.9298 0
M  V30 32 H -1.8994 2.7148 0.4866 0
M  V30 33 H -0.5054 0.8384 1.255 0
M  V30 34 H -2.5436 -0.7021 2.8868 0
M  V30 35 H -3.9083 0.3346 2.3943 0
M  V30 36 H -2.3052 1.0713 2.6631 0
M  V30 37 H -1.6604 1.6017 -2.3627 0
M  V30 38 H -0.527 2.6421 -1.4928 0
M  V30 39 H -0.4222 -2.0737 0.2462 0
M  V30 40 H -0.8515 -0.3186 -1.5515 0
M  V30 41 H -0.1891 -2.5937 2.3424 0
M  V30 42 H 1.7306 -0.3176 1.5516 0
M  V30 43 H 1.8956 -2.0254 1.0699 0
M  V30 44 H 1.2009 0.7106 -2.2033 0
M  V30 45 H 1.2085 2.1212 0.4833 0
M  V30 46 H 1.7491 2.676 -1.1442 0
M  V30 47 H 3.6779 -0.0089 -1.663 0
M  V30 48 H 2.124 -1.5073 -2.636 0
M  V30 49 H 0.6713 -2.0999 -1.7767 0
M  V30 50 H 2.2911 -2.6886 -1.2908 0
M  V30 51 H 3.3128 1.4416 0.9834 0
M  V30 52 H 3.8935 2.0462 -0.6191 0
M  V30 53 H 6.4614 -0.8216 0.4648 0
M  V30 54 H 5.6928 0.7986 0.426 0
M  V30 55 H 6.2619 0.1584 2.526 0
M  V30 END ATOM
M  V30 BEGIN BOND
M  V30 1 2 1 2
M  V30 2 1 2 3
M  V30 3 1 2 4
M  V30 4 2 3 5
M  V30 5 1 4 6
M  V30 6 1 5 7
M  V30 7 1 5 8
M  V30 8 1 7 9
M  V30 9 1 7 10
M  V30 10 1 8 11
M  V30 11 1 9 12
M  V30 12 1 9 13
M  V30 13 1 12 14
M  V30 14 1 12 15
M  V30 15 1 13 16
M  V30 16 1 15 17
M  V30 17 1 16 18
M  V30 18 1 17 19
M  V30 19 1 17 20
M  V30 20 1 18 21
M  V30 21 1 19 22
M  V30 22 2 22 23
M  V30 23 1 22 24
M  V30 24 1 24 25
M  V30 25 1 6 7
M  V30 26 1 11 13
M  V30 27 1 16 17
M  V30 28 1 19 21
M  V30 29 1 3 26
M  V30 30 1 4 27
M  V30 31 1 4 28
M  V30 32 1 6 29
M  V30 33 1 6 30
M  V30 34 1 8 31
M  V30 35 1 8 32
M  V30 36 1 9 33
M  V30 37 1 10 34
M  V30 38 1 10 35
M  V30 39 1 10 36
M  V30 40 1 11 37
M  V30 41 1 11 38
M  V30 42 1 12 39
M  V30 43 1 13 40
M  V30 44 1 14 41
M  V30 45 1 15 42
M  V30 46 1 15 43
M  V30 47 1 16 44
M  V30 48 1 18 45
M  V30 49 1 18 46
M  V30 50 1 19 47
M  V30 51 1 20 48
M  V30 52 1 20 49
M  V30 53 1 20 50
M  V30 54 1 21 51
M  V30 55 1 21 52
M  V30 56 1 24 53
M  V30 57 1 24 54
M  V30 58 1 25 55
M  V30 END BOND
M  V30 BEGIN COLLECTION
M  V30 MDLV30/STEABS ATOMS=(7 7 9 12 13 16 17 19)
M  V30 END COLLECTION
M  V30 END CTAB
M  END
>  <Structure No>
6393

>  <LogS>
-3.24

>  <MMFF94 Energy>
103.23

$$$$
Compound 6394
Actelion Java MolfileCreator 2.0

  0  0  0  0  0  0              0 V3000
M  V30 BEGIN CTAB
M  V30 COUNTS 18 18 0 0 0
M  V30 BEGIN ATOM
M  V30 1 Cl -4.2681 -0.87 0.87 0
M  V30 2 C -2.6148 -0.5976 0.3363 0
M  V30 3 C -1.8478 0.4593 0.8512 0
M  V30 4 C -2.0618 -1.4546 -0.6194 0
M  V30 5 Cl -2.5064 1.5607 2.054 0
M  V30 6 C -0.5346 0.6494 0.4058 0
M  V30 7 C -0.7495 -1.2658 -1.0647 0
M  V30 8 C 0.0271 -0.2135 -0.5557 0
M  V30 9 Cl -0.0856 -2.3631 -2.2657 0
M  V30 10 O 1.3418 -0.0582 -1.0287 0
M  V30 11 C 2.2745 0.9217 -0.5735 0
M  V30 12 C 2.7427 0.601 0.8106 0
M  V30 13 O 2.806 1.5057 1.6839 0
M  V30 14 O 3.1464 -0.6898 1.1267 0 CHG=-1
M  V30 15 H -2.6528 -2.2701 -1.0173 0
M  V30 16 H 0.0358 1.4713 0.8144 0
M  V30 17 H 3.1545 0.911 -1.2491 0
M  V30 18 H 1.8244 1.9368 -0.6239 0
M  V30 END ATOM
M  V30 BEGIN BOND
M  V30 1 1 1 2
M  V30 2 2 2 3
M  V30 3 1 2 4
M  V30 4 1 3 5
M  V30 5 1 3 6
M  V30 6 2 4 7
M  V30 7 2 6 8
M  V30 8 1 7 9
M  V30 9 1 8 10
M  V30 10 1 10 11
M  V30 11 1 11 12
M  V30 12 2 12 13
M  V30 13 1 12 14
M  V30 14 1 7 8
M  V30 15 1 4 15
M  V30 16 1 6 16
M  V30 17 1 11 17
M  V30 18 1 11 18
M  V30 END BOND
M  V30 END CTAB
M  END
>  <Structure No>
6394

>  <LogS>
-2.98

>  <MMFF94 Energy>
75.333

$$$$
Compound 6395
Actelion Java MolfileCreator 2.0

  0  0  0  0  0  0              0 V3000
M  V30 BEGIN CTAB
M  V30 COUNTS 18 18 0 0 0
M  V30 BEGIN ATOM
M  V30 1 Cl -4.0965 -1.219 0.0 0
M  V30 2 C -2.5408 -0.3881 0.0283 0
M  V30 3 C -1.3696 -1.0614 -0.3688 0
M  V30 4 C -2.4659 0.9509 0.4486 0
M  V30 5 Cl -1.4394 -2.7412 -0.8982 0
M  V30 6 C -0.1291 -0.4013 -0.3455 0
M  V30 7 Cl -3.9013 1.8335 0.9542 0
M  V30 8 C -1.2328 1.6067 0.4694 0
M  V30 9 O 1.0167 -1.1089 -0.7498 0
M  V30 10 C -0.0719 0.9404 0.0758 0
M  V30 11 C 2.3528 -0.6065 -0.7258 0
M  V30 12 C 2.8483 -0.4872 0.6804 0
M  V30 13 O 2.7756 -1.4714 1.4622 0
M  V30 14 O 3.4163 0.7012 1.1211 0 CHG=-1
M  V30 15 H -1.1722 2.6387 0.7915 0
M  V30 16 H 0.863 1.4811 0.1024 0
M  V30 17 H 2.4097 0.3694 -1.2537 0
M  V30 18 H 3.0078 -1.319 -1.2685 0
M  V30 END ATOM
M  V30 BEGIN BOND
M  V30 1 1 1 2
M  V30 2 2 2 3
M  V30 3 1 2 4
M  V30 4 1 3 5
M  V30 5 1 3 6
M  V30 6 1 4 7
M  V30 7 2 4 8
M  V30 8 1 6 9
M  V30 9 2 6 10
M  V30 10 1 9 11
M  V30 11 1 11 12
M  V30 12 2 12 13
M  V30 13 1 12 14
M  V30 14 1 8 10
M  V30 15 1 8 15
M  V30 16 1 10 16
M  V30 17 1 11 17
M  V30 18 1 11 18
M  V30 END BOND
M  V30 END CTAB
M  END
>  <Structure No>
6395

>  <LogS>
-3.1

>  <MMFF94 Energy>
84.535

$$$$
Compound 6396
Actelion Java MolfileCreator 2.0

  0  0  0  0  0  0              0 V3000
M  V30 BEGIN CTAB
M  V30 COUNTS 44 47 0 0 0
M  V30 BEGIN ATOM
M  V30 1 O -6.3144 -0.6462 -0.0807 0
M  V30 2 C -4.9559 -0.3886 -0.2487 0
M  V30 3 C -4.0975 -0.4679 0.8518 0
M  V30 4 C -4.4438 -0.0524 -1.5078 0
M  V30 5 C -2.7272 -0.2052 0.7008 0
M  V30 6 C -3.0784 0.1965 -1.667 0
M  V30 7 C -2.2092 0.1277 -0.5647 0
M  V30 8 C -1.801 -0.2576 1.8784 0
M  V30 9 C -0.713 0.2983 -0.7622 0 CFG=1
M  V30 10 C -0.8317 0.9201 1.7952 0
M  V30 11 C 0.0342 0.8848 0.5065 0 CFG=1
M  V30 12 C -0.1269 -1.0583 -1.2489 0
M  V30 13 C 1.3665 0.1311 0.7469 0 CFG=1
M  V30 14 C 1.4051 -1.0464 -1.4879 0
M  V30 15 C 2.1697 -0.0696 -0.548 0 CFG=2
M  V30 16 C 2.3621 0.7324 1.738 0
M  V30 17 C 3.487 -0.6368 0.0212 0 CFG=2
M  V30 18 C 2.4539 1.2691 -1.3015 0
M  V30 19 C 3.7239 0.154 1.3226 0
M  V30 20 O 4.5606 -0.4974 -0.8735 0
M  V30 21 H -6.9627 -0.5972 -0.8579 0
M  V30 22 H -4.5005 -0.7275 1.8231 0
M  V30 23 H -5.1013 0.0054 -2.3658 0
M  V30 24 H -2.6952 0.4305 -2.6524 0
M  V30 25 H -1.2447 -1.219 1.875 0
M  V30 26 H -2.3699 -0.1876 2.8312 0
M  V30 27 H -0.5795 1.025 -1.5924 0
M  V30 28 H -1.4238 1.8629 1.8052 0
M  V30 29 H -0.2016 0.9409 2.7085 0
M  V30 30 H 0.2876 1.9459 0.287 0
M  V30 31 H -0.3609 -1.8414 -0.4939 0
M  V30 32 H -0.6286 -1.366 -2.1927 0
M  V30 33 H 1.1054 -0.8752 1.1547 0
M  V30 34 H 1.6014 -0.792 -2.5527 0
M  V30 35 H 1.7747 -2.0861 -1.3552 0
M  V30 36 H 2.1157 0.4408 2.782 0
M  V30 37 H 2.3722 1.8418 1.6651 0
M  V30 38 H 3.3519 -1.7143 0.2805 0
M  V30 39 H 3.1128 1.0882 -2.177 0
M  V30 40 H 1.5323 1.7335 -1.6979 0
M  V30 41 H 2.9567 2.0133 -0.6504 0
M  V30 42 H 4.1252 -0.5171 2.1129 0
M  V30 43 H 4.4485 0.9813 1.1562 0
M  V30 44 H 5.3186 -1.0069 -0.485 0
M  V30 END ATOM
M  V30 BEGIN BOND
M  V30 1 1 1 2
M  V30 2 2 2 3
M  V30 3 1 2 4
M  V30 4 1 3 5
M  V30 5 2 4 6
M  V30 6 2 5 7
M  V30 7 1 5 8
M  V30 8 1 7 9
M  V30 9 1 8 10
M  V30 10 1 9 11
M  V30 11 1 9 12
M  V30 12 1 11 13
M  V30 13 1 12 14
M  V30 14 1 13 15
M  V30 15 1 13 16
M  V30 16 1 15 17
M  V30 17 1 15 18
M  V30 18 1 16 19
M  V30 19 1 17 20
M  V30 20 1 6 7
M  V30 21 1 10 11
M  V30 22 1 14 15
M  V30 23 1 17 19
M  V30 24 1 1 21
M  V30 25 1 3 22
M  V30 26 1 4 23
M  V30 27 1 6 24
M  V30 28 1 8 25
M  V30 29 1 8 26
M  V30 30 1 9 27
M  V30 31 1 10 28
M  V30 32 1 10 29
M  V30 33 1 11 30
M  V30 34 1 12 31
M  V30 35 1 12 32
M  V30 36 1 13 33
M  V30 37 1 14 34
M  V30 38 1 14 35
M  V30 39 1 16 36
M  V30 40 1 16 37
M  V30 41 1 17 38
M  V30 42 1 18 39
M  V30 43 1 18 40
M  V30 44 1 18 41
M  V30 45 1 19 42
M  V30 46 1 19 43
M  V30 47 1 20 44
M  V30 END BOND
M  V30 BEGIN COLLECTION
M  V30 MDLV30/STEABS ATOMS=(5 9 11 13 15 17)
M  V30 END COLLECTION
M  V30 END CTAB
M  END
>  <Structure No>
6396

>  <LogS>
-4.83

>  <MMFF94 Energy>
58.675

$$$$
Compound 6397
Actelion Java MolfileCreator 2.0

  0  0  0  0  0  0              0 V3000
M  V30 BEGIN CTAB
M  V30 COUNTS 65 67 0 0 0
M  V30 BEGIN ATOM
M  V30 1 O 5.6947 3.6064 0.2401 0
M  V30 2 C 4.6219 3.2419 -0.3071 0
M  V30 3 O 4.0284 2.0362 0.0836 0
M  V30 4 C 4.0694 4.037 -1.4534 0
M  V30 5 C 2.6853 1.6715 -0.2483 0 CFG=1
M  V30 6 C 2.5719 3.7778 -1.6511 0 CFG=1
M  V30 7 C 2.2785 2.2702 -1.6131 0
M  V30 8 C 2.5779 0.1344 -0.2354 0
M  V30 9 O 1.8436 4.4468 -0.653 0
M  V30 10 C 1.124 -0.3625 -0.1288 0
M  V30 11 C 0.979 -1.8888 -0.3744 0 CFG=2
M  V30 12 C -0.5115 -2.3685 -0.5021 0 CFG=1
M  V30 13 C 1.8256 -2.7866 0.5757 0 CFG=2
M  V30 14 C -0.6294 -3.8846 -0.4298 0
M  V30 15 C -1.5299 -1.6667 0.4545 0 CFG=1
M  V30 16 C 1.7232 -4.224 0.1353 0
M  V30 17 C 1.444 -2.6729 2.0579 0
M  V30 18 C 0.5734 -4.7326 -0.3095 0
M  V30 19 C -1.8397 -4.4566 -0.4326 0
M  V30 20 O -1.8544 -0.3814 -0.0796 0
M  V30 21 C -2.8407 -2.475 0.6998 0
M  V30 22 C -3.0854 -3.6265 -0.296 0 CFG=1
M  V30 23 C -2.4004 0.6589 0.6823 0
M  V30 24 C -3.6045 -3.1361 -1.6541 0
M  V30 25 O -2.6999 0.4765 1.8947 0
M  V30 26 C -2.5836 2.0098 0.0449 0 CFG=2
M  V30 27 C -1.3663 2.927 0.2958 0
M  V30 28 C -3.9118 2.6595 0.4569 0
M  V30 29 C -1.1738 3.3508 1.7558 0
M  V30 30 H 4.2416 5.1223 -1.2842 0
M  V30 31 H 4.6165 3.745 -2.3751 0
M  V30 32 H 2.0178 2.0863 0.5402 0
M  V30 33 H 2.286 4.1768 -2.652 0
M  V30 34 H 2.8454 1.7704 -2.4294 0
M  V30 35 H 1.1982 2.1127 -1.8047 0
M  V30 36 H 3.0629 -0.2809 -1.1465 0
M  V30 37 H 3.1407 -0.2392 0.6474 0
M  V30 38 H 0.9096 4.5234 -0.9828 0
M  V30 39 H 0.5153 0.153 -0.8991 0
M  V30 40 H 0.7205 -0.0772 0.8645 0
M  V30 41 H 1.4211 -2.0531 -1.3858 0
M  V30 42 H -0.8088 -2.0962 -1.5372 0
M  V30 43 H 2.895 -2.5031 0.482 0
M  V30 44 H -1.0424 -1.5218 1.4408 0
M  V30 45 H 2.5916 -4.865 0.2169 0
M  V30 46 H 0.4232 -3.0684 2.2441 0
M  V30 47 H 2.1565 -3.2678 2.6703 0
M  V30 48 H 1.5007 -1.6205 2.4055 0
M  V30 49 H 0.5199 -5.7881 -0.5486 0
M  V30 50 H -1.9313 -5.5348 -0.366 0
M  V30 51 H -2.7826 -2.9207 1.7187 0
M  V30 52 H -3.7272 -1.8034 0.7138 0
M  V30 53 H -3.8791 -4.2795 0.1312 0
M  V30 54 H -2.9079 -2.4251 -2.1386 0
M  V30 55 H -3.7596 -4.0007 -2.335 0
M  V30 56 H -4.5827 -2.6257 -1.5203 0
M  V30 57 H -2.6375 1.8466 -1.0547 0
M  V30 58 H -0.4459 2.4035 -0.0395 0
M  V30 59 H -1.468 3.8427 -0.3274 0
M  V30 60 H -4.7599 2.012 0.1455 0
M  V30 61 H -3.9671 2.805 1.556 0
M  V30 62 H -4.0249 3.6456 -0.0426 0
M  V30 63 H -1.133 2.4692 2.426 0
M  V30 64 H -0.2106 3.8933 1.8522 0
M  V30 65 H -1.9863 4.0343 2.0772 0
M  V30 END ATOM
M  V30 BEGIN BOND
M  V30 1 2 1 2
M  V30 2 1 2 3
M  V30 3 1 2 4
M  V30 4 1 3 5
M  V30 5 1 4 6
M  V30 6 1 5 7
M  V30 7 1 5 8
M  V30 8 1 6 9
M  V30 9 1 8 10
M  V30 10 1 10 11
M  V30 11 1 11 12
M  V30 12 1 11 13
M  V30 13 1 12 14
M  V30 14 1 12 15
M  V30 15 1 13 16
M  V30 16 1 13 17
M  V30 17 1 14 18
M  V30 18 2 14 19
M  V30 19 1 15 20
M  V30 20 1 15 21
M  V30 21 1 19 22
M  V30 22 1 20 23
M  V30 23 1 22 24
M  V30 24 2 23 25
M  V30 25 1 23 26
M  V30 26 1 26 27
M  V30 27 1 26 28
M  V30 28 1 27 29
M  V30 29 1 6 7
M  V30 30 2 16 18
M  V30 31 1 21 22
M  V30 32 1 4 30
M  V30 33 1 4 31
M  V30 34 1 5 32
M  V30 35 1 6 33
M  V30 36 1 7 34
M  V30 37 1 7 35
M  V30 38 1 8 36
M  V30 39 1 8 37
M  V30 40 1 9 38
M  V30 41 1 10 39
M  V30 42 1 10 40
M  V30 43 1 11 41
M  V30 44 1 12 42
M  V30 45 1 13 43
M  V30 46 1 15 44
M  V30 47 1 16 45
M  V30 48 1 17 46
M  V30 49 1 17 47
M  V30 50 1 17 48
M  V30 51 1 18 49
M  V30 52 1 19 50
M  V30 53 1 21 51
M  V30 54 1 21 52
M  V30 55 1 22 53
M  V30 56 1 24 54
M  V30 57 1 24 55
M  V30 58 1 24 56
M  V30 59 1 26 57
M  V30 60 1 27 58
M  V30 61 1 27 59
M  V30 62 1 28 60
M  V30 63 1 28 61
M  V30 64 1 28 62
M  V30 65 1 29 63
M  V30 66 1 29 64
M  V30 67 1 29 65
M  V30 END BOND
M  V30 BEGIN COLLECTION
M  V30 MDLV30/STEABS ATOMS=(8 5 6 11 12 13 15 22 26)
M  V30 END COLLECTION
M  V30 END CTAB
M  END
>  <Structure No>
6397

>  <LogS>
-6.01

>  <MMFF94 Energy>
21.18

$$$$
Compound 6398
Actelion Java MolfileCreator 2.0

  0  0  0  0  0  0              0 V3000
M  V30 BEGIN CTAB
M  V30 COUNTS 29 30 0 0 0
M  V30 BEGIN ATOM
M  V30 1 S 2.4439 2.0363 -0.5698 0
M  V30 2 C 1.6346 0.4831 -0.1452 0
M  V30 3 C 4.0233 1.2699 -1.0155 0
M  V30 4 C 2.3116 -0.5399 0.4323 0
M  V30 5 C 0.2062 0.3853 -0.4943 0
M  V30 6 C 4.5598 0.5782 0.228 0
M  V30 7 O 3.7032 -0.4906 0.6292 0
M  V30 8 C 1.6285 -1.8168 0.8372 0
M  V30 9 O -0.1303 0.4809 -1.7048 0
M  V30 10 N -0.7838 0.1966 0.5309 0
M  V30 11 C -2.195 0.0929 0.2797 0
M  V30 12 C -2.8361 0.913 -0.6673 0
M  V30 13 C -2.9635 -0.8019 1.0408 0
M  V30 14 C -4.2156 0.807 -0.8724 0
M  V30 15 C -4.3423 -0.9058 0.832 0
M  V30 16 C -4.9673 -0.1049 -0.1269 0
M  V30 17 H 3.8843 0.5417 -1.8435 0
M  V30 18 H 4.7316 2.0605 -1.341 0
M  V30 19 H 4.6485 1.3097 1.0601 0
M  V30 20 H 5.5706 0.1693 0.0193 0
M  V30 21 H 0.9212 -2.16 0.0527 0
M  V30 22 H 1.0912 -1.6728 1.7966 0
M  V30 23 H 2.3839 -2.6171 0.9835 0
M  V30 24 H -0.4566 0.0531 1.5124 0
M  V30 25 H -2.2809 1.6536 -1.2269 0
M  V30 26 H -2.4898 -1.4262 1.7882 0
M  V30 27 H -4.7036 1.4395 -1.6026 0
M  V30 28 H -4.9263 -1.6056 1.4157 0
M  V30 29 H -6.035 -0.1842 -0.286 0
M  V30 END ATOM
M  V30 BEGIN BOND
M  V30 1 1 1 2
M  V30 2 1 1 3
M  V30 3 2 2 4
M  V30 4 1 2 5
M  V30 5 1 3 6
M  V30 6 1 4 7
M  V30 7 1 4 8
M  V30 8 2 5 9
M  V30 9 1 5 10
M  V30 10 1 10 11
M  V30 11 2 11 12
M  V30 12 1 11 13
M  V30 13 1 12 14
M  V30 14 2 13 15
M  V30 15 2 14 16
M  V30 16 1 6 7
M  V30 17 1 15 16
M  V30 18 1 3 17
M  V30 19 1 3 18
M  V30 20 1 6 19
M  V30 21 1 6 20
M  V30 22 1 8 21
M  V30 23 1 8 22
M  V30 24 1 8 23
M  V30 25 1 10 24
M  V30 26 1 12 25
M  V30 27 1 13 26
M  V30 28 1 14 27
M  V30 29 1 15 28
M  V30 30 1 16 29
M  V30 END BOND
M  V30 END CTAB
M  END
>  <Structure No>
6398

>  <LogS>
-3.14

>  <MMFF94 Energy>
47.824

$$$$
Compound 6399
Actelion Java MolfileCreator 2.0

  0  0  0  0  0  0              0 V3000
M  V30 BEGIN CTAB
M  V30 COUNTS 50 51 0 0 0
M  V30 BEGIN ATOM
M  V30 1 O -0.8678 -0.4733 0.0788 0
M  V30 2 C -2.0349 -1.2442 -0.0559 0
M  V30 3 C 0.4562 -0.9584 -0.1308 0
M  V30 4 C -3.2854 -0.6359 0.1892 0
M  V30 5 C -1.9837 -2.6017 -0.4242 0
M  V30 6 C 1.4583 0.1722 0.1138 0 CFG=1
M  V30 7 C -4.4704 -1.4119 0.108 0
M  V30 8 C -3.3248 0.8092 0.6479 0
M  V30 9 C -3.1551 -3.3489 -0.5328 0
M  V30 10 O 1.326 0.6171 1.4405 0
M  V30 11 C 2.8986 -0.3188 -0.1384 0
M  V30 12 C -4.3901 -2.7592 -0.2719 0
M  V30 13 C -5.8386 -0.8053 0.3175 0
M  V30 14 C -4.7082 1.4565 0.5017 0 CFG=2
M  V30 15 N 3.8733 0.7841 -0.0012 0 CHG=1
M  V30 16 C -5.7816 0.523 1.0912 0 CFG=1
M  V30 17 O -4.959 1.7146 -0.858 0
M  V30 18 C 5.2822 0.4336 -0.3406 0
M  V30 19 O -7.0409 1.1487 1.1202 0
M  V30 20 C 6.1686 1.6729 -0.0771 0
M  V30 21 C 5.8059 -0.7248 0.54 0
M  V30 22 C 5.4273 0.0539 -1.8338 0
M  V30 23 H 0.5526 -1.3205 -1.178 0
M  V30 24 H 0.6606 -1.7977 0.57 0
M  V30 25 H -1.0411 -3.0914 -0.6263 0
M  V30 26 H 1.2212 0.9941 -0.6037 0
M  V30 27 H -3.0205 0.8422 1.7169 0
M  V30 28 H -2.5909 1.4146 0.072 0
M  V30 29 H -3.1055 -4.3912 -0.8209 0
M  V30 30 H 1.4978 1.595 1.4397 0
M  V30 31 H 3.123 -1.1262 0.592 0
M  V30 32 H 2.9377 -0.7442 -1.1625 0
M  V30 33 H -5.2897 -3.3548 -0.3691 0
M  V30 34 H -6.4829 -1.5159 0.8805 0
M  V30 35 H -6.3016 -0.6442 -0.6802 0
M  V30 36 H -4.6995 2.4119 1.0789 0
M  V30 37 H 3.8435 1.1226 0.9896 0
M  V30 38 H 3.566 1.5775 -0.6129 0
M  V30 39 H -5.5032 0.2956 2.1446 0
M  V30 40 H -5.5578 2.5053 -0.899 0
M  V30 41 H -7.3364 1.2883 0.183 0
M  V30 42 H 5.833 2.5311 -0.6986 0
M  V30 43 H 6.1109 1.9748 0.991 0
M  V30 44 H 7.2331 1.4636 -0.3199 0
M  V30 45 H 6.8983 -0.8672 0.3913 0
M  V30 46 H 5.624 -0.5097 1.6149 0
M  V30 47 H 5.3137 -1.6853 0.2802 0
M  V30 48 H 4.952 0.8224 -2.4803 0
M  V30 49 H 6.4999 -0.0231 -2.1153 0
M  V30 50 H 4.9669 -0.9313 -2.0528 0
M  V30 END ATOM
M  V30 BEGIN BOND
M  V30 1 1 1 2
M  V30 2 1 1 3
M  V30 3 2 2 4
M  V30 4 1 2 5
M  V30 5 1 3 6
M  V30 6 1 4 7
M  V30 7 1 4 8
M  V30 8 2 5 9
M  V30 9 1 6 10
M  V30 10 1 6 11
M  V30 11 2 7 12
M  V30 12 1 7 13
M  V30 13 1 8 14
M  V30 14 1 11 15
M  V30 15 1 13 16
M  V30 16 1 14 17
M  V30 17 1 15 18
M  V30 18 1 16 19
M  V30 19 1 18 20
M  V30 20 1 18 21
M  V30 21 1 18 22
M  V30 22 1 9 12
M  V30 23 1 14 16
M  V30 24 1 3 23
M  V30 25 1 3 24
M  V30 26 1 5 25
M  V30 27 1 6 26
M  V30 28 1 8 27
M  V30 29 1 8 28
M  V30 30 1 9 29
M  V30 31 1 10 30
M  V30 32 1 11 31
M  V30 33 1 11 32
M  V30 34 1 12 33
M  V30 35 1 13 34
M  V30 36 1 13 35
M  V30 37 1 14 36
M  V30 38 1 15 37
M  V30 39 1 15 38
M  V30 40 1 16 39
M  V30 41 1 17 40
M  V30 42 1 19 41
M  V30 43 1 20 42
M  V30 44 1 20 43
M  V30 45 1 20 44
M  V30 46 1 21 45
M  V30 47 1 21 46
M  V30 48 1 21 47
M  V30 49 1 22 48
M  V30 50 1 22 49
M  V30 51 1 22 50
M  V30 END BOND
M  V30 BEGIN COLLECTION
M  V30 MDLV30/STEABS ATOMS=(3 6 14 16)
M  V30 END COLLECTION
M  V30 END CTAB
M  END
>  <Structure No>
6399

>  <LogS>
-1.01

>  <MMFF94 Energy>
98.191

$$$$
Compound 6400
Actelion Java MolfileCreator 2.0

  0  0  0  0  0  0              0 V3000
M  V30 BEGIN CTAB
M  V30 COUNTS 45 47 0 0 0
M  V30 BEGIN ATOM
M  V30 1 O 0.9589 -0.3994 -2.4788 0
M  V30 2 C 1.1944 -0.738 -1.2877 0
M  V30 3 O 0.3626 -0.301 -0.2498 0
M  V30 4 C 2.392 -1.6019 -0.9856 0 CFG=1
M  V30 5 C -0.8505 0.4201 -0.4602 0 CFG=1
M  V30 6 C 3.5756 -0.7763 -0.5121 0
M  V30 7 C 2.0456 -2.7345 -0.0039 0
M  V30 8 C -1.9361 -0.5235 -1.0537 0
M  V30 9 C -1.2885 1.0738 0.8782 0
M  V30 10 C 3.4547 0.1451 0.5483 0
M  V30 11 C 4.8344 -0.9481 -1.119 0
M  V30 12 O 1.7464 -2.229 1.271 0
M  V30 13 C -3.371 0.0166 -0.8123 0 CFG=1
M  V30 14 C -2.8019 1.4228 0.8902 0 CFG=2
M  V30 15 C 4.5631 0.8845 0.9756 0
M  V30 16 C 5.9375 -0.204 -0.6907 0
M  V30 17 N -3.5573 0.1871 0.6363 0 CHG=1 CFG=1
M  V30 18 C -3.5205 1.4233 -1.4213 0
M  V30 19 C -3.143 2.367 -0.2767 0
M  V30 20 C 5.8018 0.7125 0.3544 0
M  V30 21 C -4.9801 0.3033 1.015 0
M  V30 22 H 2.669 -2.1023 -1.9404 0
M  V30 23 H -0.6575 1.2408 -1.186 0
M  V30 24 H 1.1841 -3.3154 -0.413 0
M  V30 25 H 2.9124 -3.4257 0.0789 0
M  V30 26 H -1.7648 -0.6562 -2.1436 0
M  V30 27 H -1.8479 -1.5278 -0.584 0
M  V30 28 H -1.0768 0.3751 1.7167 0
M  V30 29 H -0.6878 1.9907 1.0589 0
M  V30 30 H 2.5072 0.2953 1.0483 0
M  V30 31 H 4.9639 -1.656 -1.9276 0
M  V30 32 H 1.0758 -2.8407 1.676 0
M  V30 33 H -4.1124 -0.6925 -1.2457 0
M  V30 34 H -3.0689 1.8797 1.8702 0
M  V30 35 H 4.4598 1.5918 1.7903 0
M  V30 36 H 6.8993 -0.3396 -1.1686 0
M  V30 37 H -3.1622 -0.6228 1.174 0
M  V30 38 H -4.5754 1.5953 -1.7281 0
M  V30 39 H -2.8688 1.5756 -2.3096 0
M  V30 40 H -2.2929 3.0296 -0.5522 0
M  V30 41 H -4.0121 3.0063 -0.0061 0
M  V30 42 H 6.657 1.2876 0.6836 0
M  V30 43 H -5.5119 -0.6475 0.7916 0
M  V30 44 H -5.0699 0.4901 2.1078 0
M  V30 45 H -5.4953 1.1267 0.4753 0
M  V30 END ATOM
M  V30 BEGIN BOND
M  V30 1 2 1 2
M  V30 2 1 2 3
M  V30 3 1 2 4
M  V30 4 1 3 5
M  V30 5 1 4 6
M  V30 6 1 4 7
M  V30 7 1 5 8
M  V30 8 1 5 9
M  V30 9 2 6 10
M  V30 10 1 6 11
M  V30 11 1 7 12
M  V30 12 1 8 13
M  V30 13 1 9 14
M  V30 14 1 10 15
M  V30 15 2 11 16
M  V30 16 1 13 17
M  V30 17 1 13 18
M  V30 18 1 14 19
M  V30 19 2 15 20
M  V30 20 1 17 21
M  V30 21 1 14 17
M  V30 22 1 16 20
M  V30 23 1 18 19
M  V30 24 1 4 22
M  V30 25 1 5 23
M  V30 26 1 7 24
M  V30 27 1 7 25
M  V30 28 1 8 26
M  V30 29 1 8 27
M  V30 30 1 9 28
M  V30 31 1 9 29
M  V30 32 1 10 30
M  V30 33 1 11 31
M  V30 34 1 12 32
M  V30 35 1 13 33
M  V30 36 1 14 34
M  V30 37 1 15 35
M  V30 38 1 16 36
M  V30 39 1 17 37
M  V30 40 1 18 38
M  V30 41 1 18 39
M  V30 42 1 19 40
M  V30 43 1 19 41
M  V30 44 1 20 42
M  V30 45 1 21 43
M  V30 46 1 21 44
M  V30 47 1 21 45
M  V30 END BOND
M  V30 BEGIN COLLECTION
M  V30 MDLV30/STEABS ATOMS=(5 4 5 13 14 17)
M  V30 END COLLECTION
M  V30 END CTAB
M  END
>  <Structure No>
6400

>  <LogS>
-1.91

>  <MMFF94 Energy>
51.983

$$$$
Compound 6401
Actelion Java MolfileCreator 2.0

  0  0  0  0  0  0              0 V3000
M  V30 BEGIN CTAB
M  V30 COUNTS 23 23 0 0 0
M  V30 BEGIN ATOM
M  V30 1 S 1.6461 -1.6461 -0.5759 0
M  V30 2 O 1.3851 -3.0466 -1.0524 0
M  V30 3 O 2.6572 -1.6929 0.5355 0
M  V30 4 N 2.2848 -0.7097 -1.8877 0 CHG=-1
M  V30 5 C 0.1302 -0.9477 -0.0159 0
M  V30 6 C 2.6056 0.6832 -1.809 0
M  V30 7 C -0.1007 -0.7425 1.3515 0
M  V30 8 C -0.8528 -0.5859 -0.9461 0
M  V30 9 O 3.055 1.2625 -2.8325 0
M  V30 10 C 2.3933 1.4754 -0.5556 0
M  V30 11 C -1.3038 -0.1757 1.7835 0
M  V30 12 C -2.0556 -0.0188 -0.5143 0
M  V30 13 C -2.2867 0.1894 0.8527 0
M  V30 14 N -3.5166 0.7701 1.2948 0
M  V30 15 H 0.6472 -1.0174 2.0835 0
M  V30 16 H -0.6858 -0.7393 -2.0047 0
M  V30 17 H 2.8633 2.4775 -0.6478 0
M  V30 18 H 2.8518 0.9561 0.3101 0
M  V30 19 H 1.3069 1.6113 -0.3775 0
M  V30 20 H -1.4697 -0.0206 2.8423 0
M  V30 21 H -2.8062 0.2582 -1.2439 0
M  V30 22 H -3.6979 0.9292 2.311 0
M  V30 23 H -4.2547 1.0453 0.609 0
M  V30 END ATOM
M  V30 BEGIN BOND
M  V30 1 2 1 2
M  V30 2 2 1 3
M  V30 3 1 1 4
M  V30 4 1 1 5
M  V30 5 1 4 6
M  V30 6 2 5 7
M  V30 7 1 5 8
M  V30 8 2 6 9
M  V30 9 1 6 10
M  V30 10 1 7 11
M  V30 11 2 8 12
M  V30 12 2 11 13
M  V30 13 1 13 14
M  V30 14 1 12 13
M  V30 15 1 7 15
M  V30 16 1 8 16
M  V30 17 1 10 17
M  V30 18 1 10 18
M  V30 19 1 10 19
M  V30 20 1 11 20
M  V30 21 1 12 21
M  V30 22 1 14 22
M  V30 23 1 14 23
M  V30 END BOND
M  V30 END CTAB
M  END
>  <Structure No>
6401

>  <LogS>
-1.41

>  <MMFF94 Energy>
33.153

$$$$
Compound 6402
Actelion Java MolfileCreator 2.0

  0  0  0  0  0  0              0 V3000
M  V30 BEGIN CTAB
M  V30 COUNTS 56 59 0 0 0
M  V30 BEGIN ATOM
M  V30 1 F -1.3006 -0.325 1.9514 0
M  V30 2 C -0.9592 -0.5409 0.6181 0 CFG=2
M  V30 3 C -2.3266 -0.6768 -0.1629 0 CFG=2
M  V30 4 C -0.0876 -1.8488 0.5955 0 CFG=2
M  V30 5 C -0.129 0.7324 0.1907 0 CFG=1
M  V30 6 C -3.1397 0.5912 0.1593 0
M  V30 7 C -3.045 -1.9612 0.2671 0
M  V30 8 C -2.174 -0.7962 -1.6996 0
M  V30 9 O -0.5352 -2.7828 1.5521 0
M  V30 10 C 1.4054 -1.5508 0.8211 0
M  V30 11 C 1.0383 0.4221 -0.809 0 CFG=2
M  V30 12 C -0.9936 1.9154 -0.3394 0
M  V30 13 C -4.399 0.52 0.6345 0
M  V30 14 C -2.4643 1.9563 0.1278 0 CFG=1
M  V30 15 C -4.3039 -1.9961 0.6987 0
M  V30 16 C 2.005 -0.7162 -0.3489 0 CFG=1
M  V30 17 C 1.9301 1.6559 -1.0786 0
M  V30 18 C -5.0565 -0.7619 0.8732 0
M  V30 19 C -3.242 2.9451 -0.7616 0
M  V30 20 C 3.3555 0.0036 0.0192 0 CFG=2
M  V30 21 C 2.2471 -1.6749 -1.5595 0
M  V30 22 C 3.3791 1.2166 -0.923 0
M  V30 23 O -6.2554 -0.7993 1.2566 0
M  V30 24 O 4.4556 -0.8395 -0.2512 0
M  V30 25 C 3.4299 0.4779 1.4774 0
M  V30 26 O 2.7702 1.4373 1.8498 0
M  V30 27 C 4.3199 -0.2098 2.474 0
M  V30 28 H -0.1889 -2.3435 -0.3852 0
M  V30 29 H 0.3525 1.1069 1.1207 0
M  V30 30 H -2.5589 -2.9137 0.1006 0
M  V30 31 H -3.1756 -0.922 -2.1667 0
M  V30 32 H -1.5648 -1.6767 -1.9868 0
M  V30 33 H -1.7264 0.0909 -2.1719 0
M  V30 34 H -0.294 -2.4487 2.4554 0
M  V30 35 H 1.9673 -2.5037 0.938 0
M  V30 36 H 1.482 -1.0212 1.7921 0
M  V30 37 H 0.5647 0.1416 -1.7751 0
M  V30 38 H -0.9544 1.9551 -1.448 0
M  V30 39 H -0.5205 2.8687 -0.015 0
M  V30 40 H -4.9372 1.4168 0.914 0
M  V30 41 H -2.4686 2.3545 1.1675 0
M  V30 42 H -4.772 -2.9476 0.9197 0
M  V30 43 H 1.7359 2.4732 -0.3521 0
M  V30 44 H 1.7547 2.0583 -2.1005 0
M  V30 45 H -2.6972 3.9109 -0.8322 0
M  V30 46 H -3.3668 2.5303 -1.7851 0
M  V30 47 H -4.2436 3.1666 -0.34 0
M  V30 48 H 2.7568 -1.1474 -2.3927 0
M  V30 49 H 1.2997 -2.0753 -1.9727 0
M  V30 50 H 2.8767 -2.5415 -1.2646 0
M  V30 51 H 3.7778 0.9222 -1.9189 0
M  V30 52 H 4.0154 2.0438 -0.5362 0
M  V30 53 H 5.2809 -0.2872 -0.214 0
M  V30 54 H 5.382 0.0231 2.2525 0
M  V30 55 H 4.1638 -1.3079 2.4244 0
M  V30 56 H 4.0884 0.1316 3.5057 0
M  V30 END ATOM
M  V30 BEGIN BOND
M  V30 1 1 1 2
M  V30 2 1 2 3
M  V30 3 1 2 4
M  V30 4 1 2 5
M  V30 5 1 3 6
M  V30 6 1 3 7
M  V30 7 1 3 8
M  V30 8 1 4 9
M  V30 9 1 4 10
M  V30 10 1 5 11
M  V30 11 1 5 12
M  V30 12 2 6 13
M  V30 13 1 6 14
M  V30 14 2 7 15
M  V30 15 1 10 16
M  V30 16 1 11 17
M  V30 17 1 13 18
M  V30 18 1 14 19
M  V30 19 1 16 20
M  V30 20 1 16 21
M  V30 21 1 17 22
M  V30 22 2 18 23
M  V30 23 1 20 24
M  V30 24 1 20 25
M  V30 25 2 25 26
M  V30 26 1 25 27
M  V30 27 1 11 16
M  V30 28 1 12 14
M  V30 29 1 15 18
M  V30 30 1 20 22
M  V30 31 1 4 28
M  V30 32 1 5 29
M  V30 33 1 7 30
M  V30 34 1 8 31
M  V30 35 1 8 32
M  V30 36 1 8 33
M  V30 37 1 9 34
M  V30 38 1 10 35
M  V30 39 1 10 36
M  V30 40 1 11 37
M  V30 41 1 12 38
M  V30 42 1 12 39
M  V30 43 1 13 40
M  V30 44 1 14 41
M  V30 45 1 15 42
M  V30 46 1 17 43
M  V30 47 1 17 44
M  V30 48 1 19 45
M  V30 49 1 19 46
M  V30 50 1 19 47
M  V30 51 1 21 48
M  V30 52 1 21 49
M  V30 53 1 21 50
M  V30 54 1 22 51
M  V30 55 1 22 52
M  V30 56 1 24 53
M  V30 57 1 27 54
M  V30 58 1 27 55
M  V30 59 1 27 56
M  V30 END BOND
M  V30 BEGIN COLLECTION
M  V30 MDLV30/STEABS ATOMS=(8 2 3 4 5 11 14 16 20)
M  V30 END COLLECTION
M  V30 END CTAB
M  END
>  <Structure No>
6402

>  <LogS>
-4.1

>  <MMFF94 Energy>
165.65

$$$$
Compound 6403
Actelion Java MolfileCreator 2.0

  0  0  0  0  0  0              0 V3000
M  V30 BEGIN CTAB
M  V30 COUNTS 24 25 0 0 0
M  V30 BEGIN ATOM
M  V30 1 O 4.5162 0.8858 0.8053 0
M  V30 2 C 4.0461 0.1758 -0.1218 0
M  V30 3 O 4.1005 0.6315 -1.4328 0 CHG=-1
M  V30 4 C 3.4688 -1.1709 0.1798 0
M  V30 5 O 2.2269 -1.3499 -0.5005 0
M  V30 6 C 1.0239 -0.6992 -0.1798 0
M  V30 7 C -0.0951 -0.9485 -0.9835 0
M  V30 8 C 0.9061 0.1828 0.9119 0
M  V30 9 C -1.3232 -0.3271 -0.7125 0
M  V30 10 C -0.313 0.8068 1.1902 0
M  V30 11 C -1.4331 0.5596 0.385 0
M  V30 12 C -2.4451 -0.5755 -1.5191 0
M  V30 13 C -2.662 1.1815 0.6561 0
M  V30 14 C -3.6632 0.05 -1.2387 0
M  V30 15 C -3.7714 0.9255 -0.1548 0
M  V30 16 H 3.3351 -1.3181 1.2734 0
M  V30 17 H 4.1816 -1.9422 -0.1782 0
M  V30 18 H -0.0012 -1.6287 -1.8219 0
M  V30 19 H 1.749 0.394 1.5542 0
M  V30 20 H -0.3798 1.4821 2.0351 0
M  V30 21 H -2.3798 -1.2513 -2.3634 0
M  V30 22 H -2.7641 1.8631 1.4922 0
M  V30 23 H -4.5259 -0.1442 -1.863 0
M  V30 24 H -4.7174 1.4069 0.0572 0
M  V30 END ATOM
M  V30 BEGIN BOND
M  V30 1 2 1 2
M  V30 2 1 2 3
M  V30 3 1 2 4
M  V30 4 1 4 5
M  V30 5 1 5 6
M  V30 6 2 6 7
M  V30 7 1 6 8
M  V30 8 1 7 9
M  V30 9 2 8 10
M  V30 10 1 9 11
M  V30 11 2 9 12
M  V30 12 2 11 13
M  V30 13 1 12 14
M  V30 14 1 13 15
M  V30 15 1 10 11
M  V30 16 2 14 15
M  V30 17 1 4 16
M  V30 18 1 4 17
M  V30 19 1 7 18
M  V30 20 1 8 19
M  V30 21 1 10 20
M  V30 22 1 12 21
M  V30 23 1 13 22
M  V30 24 1 14 23
M  V30 25 1 15 24
M  V30 END BOND
M  V30 END CTAB
M  END
>  <Structure No>
6403

>  <LogS>
-3.36

>  <MMFF94 Energy>
81.692

$$$$
Compound 6404
Actelion Java MolfileCreator 2.0

  0  0  0  0  0  0              0 V3000
M  V30 BEGIN CTAB
M  V30 COUNTS 24 25 0 0 0
M  V30 BEGIN ATOM
M  V30 1 O -3.169 0.3957 0.0791 0
M  V30 2 C -1.9165 0.2288 0.0639 0
M  V30 3 N -1.3924 -1.0518 0.1361 0
M  V30 4 N -1.0874 1.3265 -0.0254 0
M  V30 5 C -0.0304 -1.2464 0.0916 0
M  V30 6 C -2.2978 -2.2119 0.1895 0
M  V30 7 C 0.2563 1.1127 -0.0242 0
M  V30 8 C -1.6341 2.6897 -0.0556 0
M  V30 9 O 0.4667 -2.4056 0.1127 0
M  V30 10 C 0.7903 -0.1287 0.0225 0
M  V30 11 N 1.2252 2.049 -0.0804 0
M  V30 12 N 2.1295 -0.0267 -0.0053 0
M  V30 13 C 2.3632 1.3071 -0.066 0
M  V30 14 C 3.1255 -1.0926 0.0295 0
M  V30 15 H -2.5839 -2.5081 -0.8414 0
M  V30 16 H -3.2154 -1.9764 0.7699 0
M  V30 17 H -1.8207 -3.0769 0.6974 0
M  V30 18 H -1.9022 3.0055 0.9744 0
M  V30 19 H -0.9024 3.4124 -0.4753 0
M  V30 20 H -2.5389 2.7327 -0.6989 0
M  V30 21 H 3.3536 1.7427 -0.1 0
M  V30 22 H 3.0157 -1.6772 0.9669 0
M  V30 23 H 2.9874 -1.763 -0.8444 0
M  V30 24 H 4.1509 -0.6672 -0.0067 0
M  V30 END ATOM
M  V30 BEGIN BOND
M  V30 1 2 1 2
M  V30 2 1 2 3
M  V30 3 1 2 4
M  V30 4 1 3 5
M  V30 5 1 3 6
M  V30 6 1 4 7
M  V30 7 1 4 8
M  V30 8 2 5 9
M  V30 9 1 5 10
M  V30 10 1 7 11
M  V30 11 1 10 12
M  V30 12 2 11 13
M  V30 13 1 12 14
M  V30 14 2 7 10
M  V30 15 1 12 13
M  V30 16 1 6 15
M  V30 17 1 6 16
M  V30 18 1 6 17
M  V30 19 1 8 18
M  V30 20 1 8 19
M  V30 21 1 8 20
M  V30 22 1 13 21
M  V30 23 1 14 22
M  V30 24 1 14 23
M  V30 25 1 14 24
M  V30 END BOND
M  V30 END CTAB
M  END
>  <Structure No>
6404

>  <LogS>
-0.91

>  <MMFF94 Energy>
-123.49

$$$$
Compound 6405
Actelion Java MolfileCreator 2.0

  0  0  0  0  0  0              0 V3000
M  V30 BEGIN CTAB
M  V30 COUNTS 42 43 0 0 0
M  V30 BEGIN ATOM
M  V30 1 O 4.6088 3.2562 1.508 0
M  V30 2 N 4.7943 2.0734 1.1537 0 CHG=1
M  V30 3 O 6.0561 1.5373 1.2692 0 CHG=-1
M  V30 4 C 3.6722 1.2279 0.8455 0
M  V30 5 C 3.7532 0.2187 -0.147 0
M  V30 6 C 2.4736 1.3979 1.5588 0
M  V30 7 C 2.6628 -0.6542 -0.3244 0
M  V30 8 C 4.9954 0.0407 -0.9928 0
M  V30 9 C 1.3798 0.5523 1.3428 0
M  V30 10 C 1.4849 -0.4999 0.4179 0
M  V30 11 O 4.6711 -0.4662 -2.2592 0
M  V30 12 N 0.1722 0.7357 2.0992 0
M  V30 13 C 0.313 -1.4115 0.1547 0
M  V30 14 C -1.0405 -0.0407 1.8335 0 CFG=2
M  V30 15 C -0.6643 -1.4522 1.338 0
M  V30 16 C -1.9475 0.7367 0.8497 0
M  V30 17 N -3.2965 0.1336 0.7077 0 CHG=1
M  V30 18 C -3.523 -0.4696 -0.627 0
M  V30 19 C -4.6986 -1.4572 -0.5767 0
M  V30 20 C -3.8037 0.6085 -1.6899 0
M  V30 21 H 2.3992 2.178 2.3067 0
M  V30 22 H 2.7218 -1.4549 -1.0519 0
M  V30 23 H 5.6848 -0.6594 -0.471 0
M  V30 24 H 5.5061 1.0181 -1.1344 0
M  V30 25 H 5.533 -0.599 -2.7331 0
M  V30 26 H 0.1162 1.5128 2.7965 0
M  V30 27 H -0.2095 -1.0677 -0.7617 0
M  V30 28 H 0.6754 -2.4454 -0.0354 0
M  V30 29 H -1.5896 -0.1526 2.7949 0
M  V30 30 H -0.1796 -2.0006 2.1759 0
M  V30 31 H -1.5701 -2.0287 1.0562 0
M  V30 32 H -1.4268 0.8467 -0.1256 0
M  V30 33 H -2.0587 1.7727 1.2437 0
M  V30 34 H -4.02 0.8727 0.8757 0
M  V30 35 H -3.4485 -0.5871 1.4516 0
M  V30 36 H -2.627 -1.0474 -0.9434 0
M  V30 37 H -5.6255 -0.9425 -0.2436 0
M  V30 38 H -4.4732 -2.2836 0.1305 0
M  V30 39 H -4.8727 -1.903 -1.5794 0
M  V30 40 H -4.7225 1.1794 -1.4354 0
M  V30 41 H -3.9432 0.1357 -2.6855 0
M  V30 42 H -2.9566 1.3198 -1.7693 0
M  V30 END ATOM
M  V30 BEGIN BOND
M  V30 1 2 1 2
M  V30 2 1 2 3
M  V30 3 1 2 4
M  V30 4 2 4 5
M  V30 5 1 4 6
M  V30 6 1 5 7
M  V30 7 1 5 8
M  V30 8 2 6 9
M  V30 9 2 7 10
M  V30 10 1 8 11
M  V30 11 1 9 12
M  V30 12 1 10 13
M  V30 13 1 12 14
M  V30 14 1 13 15
M  V30 15 1 14 16
M  V30 16 1 16 17
M  V30 17 1 17 18
M  V30 18 1 18 19
M  V30 19 1 18 20
M  V30 20 1 9 10
M  V30 21 1 14 15
M  V30 22 1 6 21
M  V30 23 1 7 22
M  V30 24 1 8 23
M  V30 25 1 8 24
M  V30 26 1 11 25
M  V30 27 1 12 26
M  V30 28 1 13 27
M  V30 29 1 13 28
M  V30 30 1 14 29
M  V30 31 1 15 30
M  V30 32 1 15 31
M  V30 33 1 16 32
M  V30 34 1 16 33
M  V30 35 1 17 34
M  V30 36 1 17 35
M  V30 37 1 18 36
M  V30 38 1 19 37
M  V30 39 1 19 38
M  V30 40 1 19 39
M  V30 41 1 20 40
M  V30 42 1 20 41
M  V30 43 1 20 42
M  V30 END BOND
M  V30 BEGIN COLLECTION
M  V30 MDLV30/STEABS ATOMS=(1 14)
M  V30 END COLLECTION
M  V30 END CTAB
M  END
>  <Structure No>
6405

>  <LogS>
-2.97

>  <MMFF94 Energy>
60.191

$$$$
Compound 6406
Actelion Java MolfileCreator 2.0

  0  0  0  0  0  0              0 V3000
M  V30 BEGIN CTAB
M  V30 COUNTS 57 60 0 0 0
M  V30 BEGIN ATOM
M  V30 1 O 5.919 1.781 -1.295 0
M  V30 2 C 4.8782 1.0896 -1.1391 0
M  V30 3 C 4.447 0.7022 0.2028 0
M  V30 4 C 4.0935 0.6789 -2.2959 0
M  V30 5 C 3.3449 -0.0527 0.3953 0
M  V30 6 C 2.9963 -0.0577 -2.1398 0
M  V30 7 C 2.483 -0.5437 -0.7835 0 CFG=2
M  V30 8 C 2.8331 -0.401 1.7884 0 CFG=2
M  V30 9 C 1.0126 0.0013 -0.5722 0 CFG=1
M  V30 10 C 2.5618 -2.0936 -0.8144 0
M  V30 11 C 1.441 0.2146 1.952 0
M  V30 12 C 3.7389 0.0195 2.9592 0
M  V30 13 C 0.0124 -0.4734 -1.6784 0 CFG=2
M  V30 14 C 0.4539 -0.2687 0.8596 0 CFG=1
M  V30 15 O 0.0339 0.4373 -2.7504 0
M  V30 16 C -1.4361 -0.6547 -1.1733 0
M  V30 17 C -0.9318 0.425 1.087 0 CFG=1
M  V30 18 C -1.897 0.4207 -0.1442 0 CFG=2
M  V30 19 C -1.7 -0.2422 2.249 0
M  V30 20 C -3.3013 0.0695 0.4702 0 CFG=1
M  V30 21 C -1.9295 1.8139 -0.8329 0
M  V30 22 C -2.9546 -0.8462 1.6494 0
M  V30 23 O -3.901 1.2361 0.9974 0
M  V30 24 C -4.268 -0.5921 -0.5192 0
M  V30 25 O -4.3213 -1.8107 -0.6063 0
M  V30 26 C -5.157 0.2288 -1.4177 0
M  V30 27 O -4.953 -0.1251 -2.7583 0
M  V30 28 H 5.0427 1.063 1.0284 0
M  V30 29 H 4.4097 0.9695 -3.2902 0
M  V30 30 H 2.4698 -0.3621 -3.0357 0
M  V30 31 H 2.7371 -1.5048 1.8632 0
M  V30 32 H 1.088 1.1103 -0.651 0
M  V30 33 H 1.9552 -2.5634 -0.0161 0
M  V30 34 H 2.2217 -2.5146 -1.7836 0
M  V30 35 H 3.615 -2.4254 -0.6845 0
M  V30 36 H 1.0431 -0.055 2.9543 0
M  V30 37 H 1.5303 1.3239 1.913 0
M  V30 38 H 3.8295 1.1255 3.017 0
M  V30 39 H 3.3107 -0.3428 3.9182 0
M  V30 40 H 4.7464 -0.4351 2.8491 0
M  V30 41 H 0.318 -1.47 -2.0589 0
M  V30 42 H 0.3196 -1.3665 0.9718 0
M  V30 43 H -0.3217 -0.0365 -3.5473 0
M  V30 44 H -2.1163 -0.6699 -2.0513 0
M  V30 45 H -1.5095 -1.6618 -0.7075 0
M  V30 46 H -0.7465 1.484 1.3816 0
M  V30 47 H -1.1186 -1.0272 2.7796 0
M  V30 48 H -1.9882 0.5295 2.9972 0
M  V30 49 H -2.2792 2.6077 -0.1404 0
M  V30 50 H -0.9228 2.1285 -1.1674 0
M  V30 51 H -2.5995 1.7984 -1.7167 0
M  V30 52 H -2.7232 -1.8794 1.3095 0
M  V30 53 H -3.7734 -0.9001 2.3999 0
M  V30 54 H -4.7703 0.9812 1.4063 0
M  V30 55 H -4.9899 1.3199 -1.2774 0
M  V30 56 H -6.2147 0.0197 -1.1537 0
M  V30 57 H -4.1336 0.348 -3.0571 0
M  V30 END ATOM
M  V30 BEGIN BOND
M  V30 1 2 1 2
M  V30 2 1 2 3
M  V30 3 1 2 4
M  V30 4 2 3 5
M  V30 5 2 4 6
M  V30 6 1 5 7
M  V30 7 1 5 8
M  V30 8 1 7 9
M  V30 9 1 7 10
M  V30 10 1 8 11
M  V30 11 1 8 12
M  V30 12 1 9 13
M  V30 13 1 9 14
M  V30 14 1 13 15
M  V30 15 1 13 16
M  V30 16 1 14 17
M  V30 17 1 16 18
M  V30 18 1 17 19
M  V30 19 1 18 20
M  V30 20 1 18 21
M  V30 21 1 19 22
M  V30 22 1 20 23
M  V30 23 1 20 24
M  V30 24 2 24 25
M  V30 25 1 24 26
M  V30 26 1 26 27
M  V30 27 1 6 7
M  V30 28 1 11 14
M  V30 29 1 17 18
M  V30 30 1 20 22
M  V30 31 1 3 28
M  V30 32 1 4 29
M  V30 33 1 6 30
M  V30 34 1 8 31
M  V30 35 1 9 32
M  V30 36 1 10 33
M  V30 37 1 10 34
M  V30 38 1 10 35
M  V30 39 1 11 36
M  V30 40 1 11 37
M  V30 41 1 12 38
M  V30 42 1 12 39
M  V30 43 1 12 40
M  V30 44 1 13 41
M  V30 45 1 14 42
M  V30 46 1 15 43
M  V30 47 1 16 44
M  V30 48 1 16 45
M  V30 49 1 17 46
M  V30 50 1 19 47
M  V30 51 1 19 48
M  V30 52 1 21 49
M  V30 53 1 21 50
M  V30 54 1 21 51
M  V30 55 1 22 52
M  V30 56 1 22 53
M  V30 57 1 23 54
M  V30 58 1 26 55
M  V30 59 1 26 56
M  V30 60 1 27 57
M  V30 END BOND
M  V30 BEGIN COLLECTION
M  V30 MDLV30/STEABS ATOMS=(8 7 8 9 13 14 17 18 20)
M  V30 END COLLECTION
M  V30 END CTAB
M  END
>  <Structure No>
6406

>  <LogS>
-3.49

>  <MMFF94 Energy>
139.17

$$$$
Compound 6407
Actelion Java MolfileCreator 2.0

  0  0  0  0  0  0              0 V3000
M  V30 BEGIN CTAB
M  V30 COUNTS 46 49 0 0 0
M  V30 BEGIN ATOM
M  V30 1 O 5.6713 -2.5085 1.9417 0
M  V30 2 C 4.4697 -1.8632 1.6577 0
M  V30 3 C 4.1938 -1.4649 0.3479 0
M  V30 4 C 3.5432 -1.604 2.6719 0
M  V30 5 C 2.9853 -0.8212 0.0326 0
M  V30 6 C 2.3449 -0.9525 2.3768 0
M  V30 7 C 2.0446 -0.5588 1.0595 0
M  V30 8 C 2.7905 -0.3077 -1.3709 0
M  V30 9 C 0.7064 0.1154 0.7852 0 CFG=1
M  V30 10 C 1.3195 -0.0737 -1.7064 0
M  V30 11 C 0.6467 0.7838 -0.6156 0 CFG=1
M  V30 12 C -0.4827 -0.8384 1.0934 0
M  V30 13 C -0.7916 1.2257 -1.0099 0 CFG=1
M  V30 14 C -1.3904 -1.1385 -0.1003 0
M  V30 15 C -1.8992 0.1227 -0.8829 0 CFG=1
M  V30 16 C -1.2575 2.4311 -0.1667 0
M  V30 17 C -3.0935 0.8488 -0.1416 0 CFG=2
M  V30 18 C -2.3127 -0.3757 -2.2963 0
M  V30 19 C -2.4334 1.962 0.6673 0
M  V30 20 O -3.7972 3.0E-4 0.7335 0
M  V30 21 C -4.0648 1.4913 -1.0682 0
M  V30 22 C -4.8545 2.0145 -1.8148 0
M  V30 23 H 5.9025 -2.8076 2.8819 0
M  V30 24 H 4.9303 -1.6477 -0.4253 0
M  V30 25 H 3.7515 -1.9046 3.6909 0
M  V30 26 H 1.6411 -0.7598 3.1775 0
M  V30 27 H 3.2097 -1.0319 -2.1034 0
M  V30 28 H 3.3492 0.6472 -1.4788 0
M  V30 29 H 0.6335 0.9479 1.5214 0
M  V30 30 H 0.8291 -1.054 -1.8355 0
M  V30 31 H 1.2643 0.4521 -2.6845 0
M  V30 32 H 1.2617 1.7125 -0.5594 0
M  V30 33 H -0.1164 -1.8148 1.4812 0
M  V30 34 H -1.0976 -0.4184 1.9156 0
M  V30 35 H -0.7397 1.5925 -2.0609 0
M  V30 36 H -2.2388 -1.7623 0.2476 0
M  V30 37 H -0.8405 -1.83 -0.7675 0
M  V30 38 H -1.601 3.2464 -0.8422 0
M  V30 39 H -0.4651 2.8538 0.4881 0
M  V30 40 H -3.1637 -1.0863 -2.2213 0
M  V30 41 H -1.4671 -0.8922 -2.798 0
M  V30 42 H -2.609 0.4631 -2.961 0
M  V30 43 H -2.0634 1.5761 1.6393 0
M  V30 44 H -3.1253 2.8049 0.8943 0
M  V30 45 H -4.2794 -0.6688 0.1792 0
M  V30 46 H -5.5469 2.4733 -2.4703 0
M  V30 END ATOM
M  V30 BEGIN BOND
M  V30 1 1 1 2
M  V30 2 2 2 3
M  V30 3 1 2 4
M  V30 4 1 3 5
M  V30 5 2 4 6
M  V30 6 2 5 7
M  V30 7 1 5 8
M  V30 8 1 7 9
M  V30 9 1 8 10
M  V30 10 1 9 11
M  V30 11 1 9 12
M  V30 12 1 11 13
M  V30 13 1 12 14
M  V30 14 1 13 15
M  V30 15 1 13 16
M  V30 16 1 15 17
M  V30 17 1 15 18
M  V30 18 1 16 19
M  V30 19 1 17 20
M  V30 20 1 17 21
M  V30 21 3 21 22
M  V30 22 1 6 7
M  V30 23 1 10 11
M  V30 24 1 14 15
M  V30 25 1 17 19
M  V30 26 1 1 23
M  V30 27 1 3 24
M  V30 28 1 4 25
M  V30 29 1 6 26
M  V30 30 1 8 27
M  V30 31 1 8 28
M  V30 32 1 9 29
M  V30 33 1 10 30
M  V30 34 1 10 31
M  V30 35 1 11 32
M  V30 36 1 12 33
M  V30 37 1 12 34
M  V30 38 1 13 35
M  V30 39 1 14 36
M  V30 40 1 14 37
M  V30 41 1 16 38
M  V30 42 1 16 39
M  V30 43 1 18 40
M  V30 44 1 18 41
M  V30 45 1 18 42
M  V30 46 1 19 43
M  V30 47 1 19 44
M  V30 48 1 20 45
M  V30 49 1 22 46
M  V30 END BOND
M  V30 BEGIN COLLECTION
M  V30 MDLV30/STEABS ATOMS=(5 9 11 13 15 17)
M  V30 END COLLECTION
M  V30 END CTAB
M  END
>  <Structure No>
6407

>  <LogS>
-4.47

>  <MMFF94 Energy>
58.303

$$$$
Compound 6408
Actelion Java MolfileCreator 2.0

  0  0  0  0  0  0              0 V3000
M  V30 BEGIN CTAB
M  V30 COUNTS 32 33 0 0 0
M  V30 BEGIN ATOM
M  V30 1 O -3.8624 0.3214 2.0102 0
M  V30 2 C -2.7352 0.2668 1.4478 0
M  V30 3 N -2.4705 -0.7178 0.4373 0
M  V30 4 N -1.7133 1.1786 1.8421 0
M  V30 5 C -1.1555 -0.7976 -0.1463 0
M  V30 6 C -3.4758 -1.7399 0.1267 0
M  V30 7 C -0.4348 1.1818 1.2053 0
M  V30 8 O -0.8409 -1.8149 -0.8265 0
M  V30 9 C -0.1771 0.3668 -0.0577 0 CFG=1
M  V30 10 O 0.4713 1.9292 1.6666 0
M  V30 11 C 1.2519 -0.2207 -0.0222 0
M  V30 12 C -0.4641 1.2885 -1.2836 0
M  V30 13 C 2.0509 -0.3476 -1.1835 0
M  V30 14 C 1.7376 -0.7962 1.1752 0
M  V30 15 C 0.4097 2.5479 -1.3649 0
M  V30 16 C 3.3123 -0.9475 -1.1236 0
M  V30 17 C 2.9988 -1.3952 1.227 0
M  V30 18 C 3.789 -1.4632 0.0808 0
M  V30 19 H -1.8936 1.8387 2.6322 0
M  V30 20 H -3.3654 -2.595 0.826 0
M  V30 21 H -4.502 -1.3244 0.2141 0
M  V30 22 H -3.3589 -2.1019 -0.9168 0
M  V30 23 H -0.3709 0.7169 -2.2316 0
M  V30 24 H -1.5253 1.624 -1.2458 0
M  V30 25 H 1.7163 0.0079 -2.1456 0
M  V30 26 H 1.1347 -0.7898 2.0746 0
M  V30 27 H 0.1276 3.2692 -0.5698 0
M  V30 28 H 0.2477 3.0438 -2.3451 0
M  V30 29 H 1.4874 2.3083 -1.2693 0
M  V30 30 H 3.9174 -1.022 -2.018 0
M  V30 31 H 3.3588 -1.8173 2.1565 0
M  V30 32 H 4.7644 -1.9307 0.1219 0
M  V30 END ATOM
M  V30 BEGIN BOND
M  V30 1 2 1 2
M  V30 2 1 2 3
M  V30 3 1 2 4
M  V30 4 1 3 5
M  V30 5 1 3 6
M  V30 6 1 4 7
M  V30 7 2 5 8
M  V30 8 1 5 9
M  V30 9 2 7 10
M  V30 10 1 9 11
M  V30 11 1 9 12
M  V30 12 2 11 13
M  V30 13 1 11 14
M  V30 14 1 12 15
M  V30 15 1 13 16
M  V30 16 2 14 17
M  V30 17 2 16 18
M  V30 18 1 7 9
M  V30 19 1 17 18
M  V30 20 1 4 19
M  V30 21 1 6 20
M  V30 22 1 6 21
M  V30 23 1 6 22
M  V30 24 1 12 23
M  V30 25 1 12 24
M  V30 26 1 13 25
M  V30 27 1 14 26
M  V30 28 1 15 27
M  V30 29 1 15 28
M  V30 30 1 15 29
M  V30 31 1 16 30
M  V30 32 1 17 31
M  V30 33 1 18 32
M  V30 END BOND
M  V30 BEGIN COLLECTION
M  V30 MDLV30/STEABS ATOMS=(1 9)
M  V30 END COLLECTION
M  V30 END CTAB
M  END
>  <Structure No>
6408

>  <LogS>
-3.68

>  <MMFF94 Energy>
-62.498

$$$$
Compound 6409
Actelion Java MolfileCreator 2.0

  0  0  0  0  0  0              0 V3000
M  V30 BEGIN CTAB
M  V30 COUNTS 21 23 0 0 0
M  V30 BEGIN ATOM
M  V30 1 O 0.0 1.8422 -0.08 0
M  V30 2 C -1.0508 1.0473 -0.0232 0
M  V30 3 C 1.0625 1.0625 -0.0321 0
M  V30 4 C -0.6708 -0.2759 0.0634 0
M  V30 5 C -2.3941 1.4146 -0.0423 0
M  V30 6 C 0.7022 -0.266 0.0575 0
M  V30 7 C 2.4002 1.4493 -0.063 0
M  V30 8 C -1.6001 -1.3109 0.1357 0
M  V30 9 C -3.3583 0.3912 0.0293 0
M  V30 10 C 1.647 -1.2875 0.1218 0
M  V30 11 C 3.3794 0.4397 3.0E-4 0
M  V30 12 C -2.9635 -0.9634 0.1179 0
M  V30 13 C 3.0049 -0.9204 0.0923 0
M  V30 14 H -2.6876 2.454 -0.1104 0
M  V30 15 H 2.6779 2.4927 -0.1334 0
M  V30 16 H -1.2882 -2.345 0.2034 0
M  V30 17 H -4.4105 0.6439 0.0166 0
M  V30 18 H 1.3504 -2.326 0.1921 0
M  V30 19 H 4.4277 0.7075 -0.0213 0
M  V30 20 H -3.7157 -1.7394 0.1724 0
M  V30 21 H 3.7685 -1.6856 0.1403 0
M  V30 END ATOM
M  V30 BEGIN BOND
M  V30 1 1 1 2
M  V30 2 1 1 3
M  V30 3 2 2 4
M  V30 4 1 2 5
M  V30 5 2 3 6
M  V30 6 1 3 7
M  V30 7 1 4 8
M  V30 8 2 5 9
M  V30 9 1 6 10
M  V30 10 2 7 11
M  V30 11 2 8 12
M  V30 12 2 10 13
M  V30 13 1 4 6
M  V30 14 1 9 12
M  V30 15 1 11 13
M  V30 16 1 5 14
M  V30 17 1 7 15
M  V30 18 1 8 16
M  V30 19 1 9 17
M  V30 20 1 10 18
M  V30 21 1 11 19
M  V30 22 1 12 20
M  V30 23 1 13 21
M  V30 END BOND
M  V30 END CTAB
M  END
>  <Structure No>
6409

>  <LogS>
-4.6

>  <MMFF94 Energy>
33.016

$$$$
Compound 6410
Actelion Java MolfileCreator 2.0

  0  0  0  0  0  0              0 V3000
M  V30 BEGIN CTAB
M  V30 COUNTS 50 51 0 0 0
M  V30 BEGIN ATOM
M  V30 1 O 0.9459 1.1036 1.0248 0
M  V30 2 C 0.6741 -0.0934 0.7326 0
M  V30 3 N 1.4762 -0.7975 -0.2242 0
M  V30 4 C -0.5099 -0.777 1.3847 0 CFG=2
M  V30 5 C 2.6838 -0.2366 -0.7587 0
M  V30 6 N -1.7904 -0.0656 1.0895 0 CHG=1 CFG=2
M  V30 7 C -0.2323 -0.8449 2.9043 0
M  V30 8 C 3.8305 -0.0979 0.0576 0
M  V30 9 C 2.7327 0.1623 -2.1124 0
M  V30 10 C -2.9201 -0.6999 1.8191 0
M  V30 11 C -2.0898 -0.0658 -0.3728 0
M  V30 12 C -1.404 -1.4681 3.6563 0
M  V30 13 C 4.9918 0.4819 -0.476 0
M  V30 14 C 3.8201 -0.5298 1.4994 0
M  V30 15 C 3.9109 0.7267 -2.6255 0
M  V30 16 C 1.5169 0.0461 -2.9902 0
M  V30 17 C -2.6881 -0.7129 3.3328 0
M  V30 18 C -2.9351 1.1551 -0.7908 0
M  V30 19 C 5.0308 0.8872 -1.8098 0
M  V30 20 C -3.4415 1.0601 -2.2388 0
M  V30 21 C -2.3162 1.1336 -3.2706 0
M  V30 22 H 1.1212 -1.6924 -0.6286 0
M  V30 23 H -0.5755 -1.8229 1.005 0
M  V30 24 H -1.7 0.9248 1.4231 0
M  V30 25 H -0.0516 0.1765 3.3082 0
M  V30 26 H 0.6798 -1.4528 3.0921 0
M  V30 27 H -3.8657 -0.1478 1.6323 0
M  V30 28 H -3.0721 -1.7482 1.4728 0
M  V30 29 H -1.1595 -0.0314 -0.9748 0
M  V30 30 H -2.6073 -1.0053 -0.6736 0
M  V30 31 H -1.2112 -1.4209 4.7499 0
M  V30 32 H -1.5104 -2.5375 3.3691 0
M  V30 33 H 5.8727 0.6151 0.1401 0
M  V30 34 H 3.3661 0.2667 2.1241 0
M  V30 35 H 4.8509 -0.7242 1.8647 0
M  V30 36 H 3.2398 -1.4684 1.6234 0
M  V30 37 H 3.9619 1.0526 -3.6571 0
M  V30 38 H 1.7353 0.3495 -4.0361 0
M  V30 39 H 1.1562 -1.0033 -3.0053 0
M  V30 40 H 0.7153 0.7043 -2.596 0
M  V30 41 H -2.6228 0.3299 3.7137 0
M  V30 42 H -3.545 -1.2121 3.8348 0
M  V30 43 H -2.3345 2.0829 -0.6652 0
M  V30 44 H -3.8228 1.245 -0.1316 0
M  V30 45 H 5.9331 1.3289 -2.213 0
M  V30 46 H -4.138 1.907 -2.4216 0
M  V30 47 H -4.0149 0.1181 -2.3808 0
M  V30 48 H -2.7533 1.2246 -4.2871 0
M  V30 49 H -1.6701 2.0177 -3.0824 0
M  V30 50 H -1.7019 0.2099 -3.2443 0
M  V30 END ATOM
M  V30 BEGIN BOND
M  V30 1 2 1 2
M  V30 2 1 2 3
M  V30 3 1 2 4
M  V30 4 1 3 5
M  V30 5 1 4 6
M  V30 6 1 4 7
M  V30 7 2 5 8
M  V30 8 1 5 9
M  V30 9 1 6 10
M  V30 10 1 6 11
M  V30 11 1 7 12
M  V30 12 1 8 13
M  V30 13 1 8 14
M  V30 14 2 9 15
M  V30 15 1 9 16
M  V30 16 1 10 17
M  V30 17 1 11 18
M  V30 18 2 13 19
M  V30 19 1 18 20
M  V30 20 1 20 21
M  V30 21 1 12 17
M  V30 22 1 15 19
M  V30 23 1 3 22
M  V30 24 1 4 23
M  V30 25 1 6 24
M  V30 26 1 7 25
M  V30 27 1 7 26
M  V30 28 1 10 27
M  V30 29 1 10 28
M  V30 30 1 11 29
M  V30 31 1 11 30
M  V30 32 1 12 31
M  V30 33 1 12 32
M  V30 34 1 13 33
M  V30 35 1 14 34
M  V30 36 1 14 35
M  V30 37 1 14 36
M  V30 38 1 15 37
M  V30 39 1 16 38
M  V30 40 1 16 39
M  V30 41 1 16 40
M  V30 42 1 17 41
M  V30 43 1 17 42
M  V30 44 1 18 43
M  V30 45 1 18 44
M  V30 46 1 19 45
M  V30 47 1 20 46
M  V30 48 1 20 47
M  V30 49 1 21 48
M  V30 50 1 21 49
M  V30 51 1 21 50
M  V30 END BOND
M  V30 BEGIN COLLECTION
M  V30 MDLV30/STEABS ATOMS=(2 4 6)
M  V30 END COLLECTION
M  V30 END CTAB
M  END
>  <Structure No>
6410

>  <LogS>
-3.22

>  <MMFF94 Energy>
55.363

$$$$
Compound 6411
Actelion Java MolfileCreator 2.0

  0  0  0  0  0  0              0 V3000
M  V30 BEGIN CTAB
M  V30 COUNTS 43 46 0 0 0
M  V30 BEGIN ATOM
M  V30 1 O 1.052 -2.1048 -1.6188 0
M  V30 2 C 1.2429 -1.6768 -0.4476 0
M  V30 3 O 0.173 -1.1955 0.3172 0
M  V30 4 C 2.642 -1.6286 0.1047 0 CFG=1
M  V30 5 C -1.1563 -1.0535 -0.1839 0 CFG=2
M  V30 6 C 3.2564 -0.2665 -0.1503 0
M  V30 7 C 2.6795 -1.9795 1.6006 0
M  V30 8 C -1.2051 0.0936 -1.2468 0
M  V30 9 C -2.1288 -0.8569 1.0213 0
M  V30 10 C 2.6672 0.905 0.3664 0
M  V30 11 C 4.4351 -0.1561 -0.9104 0
M  V30 12 O 2.2028 -3.2826 1.7974 0
M  V30 13 C -2.5347 0.8817 -1.2419 0 CFG=2
M  V30 14 C -3.3277 0.0653 0.7023 0 CFG=1
M  V30 15 C 3.2435 2.1546 0.1211 0
M  V30 16 C 5.0076 1.0965 -1.1516 0
M  V30 17 N -2.7759 1.295 0.1384 0
M  V30 18 C -3.7384 0.0128 -1.6523 0 CFG=2
M  V30 19 C -4.2605 -0.5255 -0.3717 0 CFG=1
M  V30 20 C 4.4122 2.2505 -0.6371 0
M  V30 21 C -3.7242 2.4213 0.2245 0
M  V30 22 O -3.675 -1.3594 -1.3436 0
M  V30 23 H 3.2386 -2.4071 -0.4229 0
M  V30 24 H -1.4341 -2.008 -0.6829 0
M  V30 25 H 3.7301 -1.9147 1.9636 0
M  V30 26 H 2.062 -1.2622 2.1869 0
M  V30 27 H -0.3849 0.8157 -1.0378 0
M  V30 28 H -1.023 -0.3237 -2.2607 0
M  V30 29 H -2.4983 -1.845 1.3723 0
M  V30 30 H -1.5697 -0.3993 1.8673 0
M  V30 31 H 1.7618 0.8536 0.9571 0
M  V30 32 H 4.9124 -1.0382 -1.3184 0
M  V30 33 H 2.2488 -3.4481 2.7749 0
M  V30 34 H -2.4436 1.7571 -1.9235 0
M  V30 35 H -3.8973 0.2614 1.6384 0
M  V30 36 H 2.7834 3.0495 0.5197 0
M  V30 37 H 5.9139 1.1723 -1.7383 0
M  V30 38 H -4.5412 0.347 -2.3431 0
M  V30 39 H -5.3694 -0.5066 -0.312 0
M  V30 40 H 4.857 3.219 -0.8257 0
M  V30 41 H -3.2826 3.3207 -0.2549 0
M  V30 42 H -3.9127 2.6723 1.29 0
M  V30 43 H -4.695 2.1926 -0.2673 0
M  V30 END ATOM
M  V30 BEGIN BOND
M  V30 1 2 1 2
M  V30 2 1 2 3
M  V30 3 1 2 4
M  V30 4 1 3 5
M  V30 5 1 4 6
M  V30 6 1 4 7
M  V30 7 1 5 8
M  V30 8 1 5 9
M  V30 9 2 6 10
M  V30 10 1 6 11
M  V30 11 1 7 12
M  V30 12 1 8 13
M  V30 13 1 9 14
M  V30 14 1 10 15
M  V30 15 2 11 16
M  V30 16 1 13 17
M  V30 17 1 13 18
M  V30 18 1 14 19
M  V30 19 2 15 20
M  V30 20 1 17 21
M  V30 21 1 18 22
M  V30 22 1 14 17
M  V30 23 1 16 20
M  V30 24 1 18 19
M  V30 25 1 19 22
M  V30 26 1 4 23
M  V30 27 1 5 24
M  V30 28 1 7 25
M  V30 29 1 7 26
M  V30 30 1 8 27
M  V30 31 1 8 28
M  V30 32 1 9 29
M  V30 33 1 9 30
M  V30 34 1 10 31
M  V30 35 1 11 32
M  V30 36 1 12 33
M  V30 37 1 13 34
M  V30 38 1 14 35
M  V30 39 1 15 36
M  V30 40 1 16 37
M  V30 41 1 18 38
M  V30 42 1 19 39
M  V30 43 1 20 40
M  V30 44 1 21 41
M  V30 45 1 21 42
M  V30 46 1 21 43
M  V30 END BOND
M  V30 BEGIN COLLECTION
M  V30 MDLV30/STEABS ATOMS=(6 4 5 13 14 18 19)
M  V30 END COLLECTION
M  V30 END CTAB
M  END
>  <Structure No>
6411

>  <LogS>
-1.24

>  <MMFF94 Energy>
75.873

$$$$
Compound 6412
Actelion Java MolfileCreator 2.0

  0  0  0  0  0  0              0 V3000
M  V30 BEGIN CTAB
M  V30 COUNTS 43 43 0 0 0
M  V30 BEGIN ATOM
M  V30 1 Cl 4.1977 -4.4357 -0.6327 0
M  V30 2 C 3.8564 -2.7105 -0.5659 0
M  V30 3 C 4.8791 -1.7585 -0.4017 0
M  V30 4 C 2.5273 -2.2925 -0.6762 0
M  V30 5 N 6.2516 -2.154 -0.2807 0
M  V30 6 C 4.5513 -0.396 -0.3629 0
M  V30 7 C 2.192 -0.9307 -0.6171 0
M  V30 8 C 3.2144 0.0317 -0.482 0
M  V30 9 C 0.7691 -0.5371 -0.7229 0
M  V30 10 O 2.8781 1.3962 -0.4968 0
M  V30 11 O 0.0197 -1.1483 -1.5327 0
M  V30 12 N 0.2286 0.5033 0.1073 0
M  V30 13 C 3.8112 2.4641 -0.3682 0
M  V30 14 C -1.1428 0.9872 -0.035 0
M  V30 15 C -2.1295 0.0185 0.6357 0
M  V30 16 N -3.5438 0.4888 0.5026 0 CHG=1
M  V30 17 C -4.3351 -0.4163 -0.3699 0
M  V30 18 C -4.2018 0.5931 1.8307 0
M  V30 19 C -3.8852 -0.3589 -1.835 0
M  V30 20 C -3.697 1.7988 2.6344 0
M  V30 21 H 1.7483 -3.0372 -0.7911 0
M  V30 22 H 7.0019 -1.4371 -0.1615 0
M  V30 23 H 6.5427 -3.1553 -0.3062 0
M  V30 24 H 5.3487 0.3258 -0.2504 0
M  V30 25 H 0.82 0.9232 0.859 0
M  V30 26 H 4.3383 2.3953 0.6067 0
M  V30 27 H 4.5425 2.435 -1.2033 0
M  V30 28 H 3.2648 3.4287 -0.4087 0
M  V30 29 H -1.2269 1.9821 0.4542 0
M  V30 30 H -1.3875 1.116 -1.1112 0
M  V30 31 H -1.8214 -0.0904 1.6993 0
M  V30 32 H -1.9893 -0.9978 0.2062 0
M  V30 33 H -3.5792 1.4419 0.066 0
M  V30 34 H -5.4088 -0.1212 -0.3591 0
M  V30 35 H -4.2788 -1.4664 -0.0035 0
M  V30 36 H -4.0515 -0.3396 2.42 0
M  V30 37 H -5.3005 0.7319 1.7149 0
M  V30 38 H -2.8626 -0.77 -1.957 0
M  V30 39 H -4.5754 -0.9672 -2.4568 0
M  V30 40 H -3.9075 0.6875 -2.206 0
M  V30 41 H -3.8787 2.739 2.072 0
M  V30 42 H -2.6141 1.7138 2.857 0
M  V30 43 H -4.2453 1.8551 3.5985 0
M  V30 END ATOM
M  V30 BEGIN BOND
M  V30 1 1 1 2
M  V30 2 2 2 3
M  V30 3 1 2 4
M  V30 4 1 3 5
M  V30 5 1 3 6
M  V30 6 2 4 7
M  V30 7 2 6 8
M  V30 8 1 7 9
M  V30 9 1 8 10
M  V30 10 2 9 11
M  V30 11 1 9 12
M  V30 12 1 10 13
M  V30 13 1 12 14
M  V30 14 1 14 15
M  V30 15 1 15 16
M  V30 16 1 16 17
M  V30 17 1 16 18
M  V30 18 1 17 19
M  V30 19 1 18 20
M  V30 20 1 7 8
M  V30 21 1 4 21
M  V30 22 1 5 22
M  V30 23 1 5 23
M  V30 24 1 6 24
M  V30 25 1 12 25
M  V30 26 1 13 26
M  V30 27 1 13 27
M  V30 28 1 13 28
M  V30 29 1 14 29
M  V30 30 1 14 30
M  V30 31 1 15 31
M  V30 32 1 15 32
M  V30 33 1 16 33
M  V30 34 1 17 34
M  V30 35 1 17 35
M  V30 36 1 18 36
M  V30 37 1 18 37
M  V30 38 1 19 38
M  V30 39 1 19 39
M  V30 40 1 19 40
M  V30 41 1 20 41
M  V30 42 1 20 42
M  V30 43 1 20 43
M  V30 END BOND
M  V30 END CTAB
M  END
>  <Structure No>
6412

>  <LogS>
-3.18

>  <MMFF94 Energy>
35.316

$$$$
Compound 6413
Actelion Java MolfileCreator 2.0

  0  0  0  0  0  0              0 V3000
M  V30 BEGIN CTAB
M  V30 COUNTS 37 37 0 0 0
M  V30 BEGIN ATOM
M  V30 1 Cl 1.4539 2.6668 0.3229 0
M  V30 2 C 3.0895 1.9831 0.1241 0
M  V30 3 C 3.1709 1.0491 -1.0871 0
M  V30 4 N 2.5705 -0.263 -0.7931 0
M  V30 5 C 1.1387 -0.4052 -0.6864 0
M  V30 6 C 3.4246 -1.4568 -0.6875 0
M  V30 7 C 0.5711 -1.0436 0.4283 0
M  V30 8 C 0.2929 0.0888 -1.6939 0
M  V30 9 C 4.1684 -1.5079 0.6523 0
M  V30 10 C -0.8157 -1.1653 0.5453 0
M  V30 11 C -1.094 -0.0339 -1.5771 0
M  V30 12 Cl 5.6697 -0.5459 0.6112 0
M  V30 13 C -1.6584 -0.6633 -0.4578 0
M  V30 14 C -3.1571 -0.7505 -0.3117 0
M  V30 15 C -3.7566 0.5708 0.2134 0 CFG=1
M  V30 16 N -5.2231 0.5115 0.2004 0 CHG=1
M  V30 17 C -3.2579 0.8775 1.6024 0
M  V30 18 O -3.6048 0.1618 2.5793 0
M  V30 19 O -2.3852 1.9388 1.8069 0 CHG=-1
M  V30 20 H 3.796 2.8277 -0.0187 0
M  V30 21 H 3.3758 1.4435 1.0507 0
M  V30 22 H 4.2405 0.926 -1.3601 0
M  V30 23 H 2.6846 1.5194 -1.9663 0
M  V30 24 H 4.1466 -1.4851 -1.5321 0
M  V30 25 H 2.8022 -2.3743 -0.7803 0
M  V30 26 H 1.1993 -1.4317 1.2177 0
M  V30 27 H 0.7027 0.5607 -2.5763 0
M  V30 28 H 4.4499 -2.5592 0.8724 0
M  V30 29 H 3.5243 -1.1428 1.4784 0
M  V30 30 H -1.2329 -1.6437 1.4227 0
M  V30 31 H -1.7296 0.3637 -2.3586 0
M  V30 32 H -3.4317 -1.5887 0.3663 0
M  V30 33 H -3.5995 -0.9861 -1.3043 0
M  V30 34 H -3.4368 1.3959 -0.463 0
M  V30 35 H -5.5673 -0.2814 0.7899 0
M  V30 36 H -5.6183 1.409 0.5652 0
M  V30 37 H -5.5628 0.3802 -0.78 0
M  V30 END ATOM
M  V30 BEGIN BOND
M  V30 1 1 1 2
M  V30 2 1 2 3
M  V30 3 1 3 4
M  V30 4 1 4 5
M  V30 5 1 4 6
M  V30 6 2 5 7
M  V30 7 1 5 8
M  V30 8 1 6 9
M  V30 9 1 7 10
M  V30 10 2 8 11
M  V30 11 1 9 12
M  V30 12 2 10 13
M  V30 13 1 13 14
M  V30 14 1 14 15
M  V30 15 1 15 16
M  V30 16 1 15 17
M  V30 17 2 17 18
M  V30 18 1 17 19
M  V30 19 1 11 13
M  V30 20 1 2 20
M  V30 21 1 2 21
M  V30 22 1 3 22
M  V30 23 1 3 23
M  V30 24 1 6 24
M  V30 25 1 6 25
M  V30 26 1 7 26
M  V30 27 1 8 27
M  V30 28 1 9 28
M  V30 29 1 9 29
M  V30 30 1 10 30
M  V30 31 1 11 31
M  V30 32 1 14 32
M  V30 33 1 14 33
M  V30 34 1 15 34
M  V30 35 1 16 35
M  V30 36 1 16 36
M  V30 37 1 16 37
M  V30 END BOND
M  V30 BEGIN COLLECTION
M  V30 MDLV30/STEABS ATOMS=(1 15)
M  V30 END COLLECTION
M  V30 END CTAB
M  END
>  <Structure No>
6413

>  <LogS>
-3.49

>  <MMFF94 Energy>
52.344

$$$$
Compound 6414
Actelion Java MolfileCreator 2.0

  0  0  0  0  0  0              0 V3000
M  V30 BEGIN CTAB
M  V30 COUNTS 24 24 0 0 0
M  V30 BEGIN ATOM
M  V30 1 S 0.6582 1.4815 1.811 0
M  V30 2 O -0.0721 2.0723 2.9839 0
M  V30 3 O 1.5174 2.5492 1.1927 0
M  V30 4 N 1.6613 0.1817 2.3574 0 CHG=-1
M  V30 5 C -0.5169 0.8752 0.6479 0
M  V30 6 C 2.4308 -0.6108 1.4547 0
M  V30 7 C -1.5557 0.0407 1.0809 0
M  V30 8 C -0.4083 1.1971 -0.7125 0
M  V30 9 O 3.1349 -1.5526 1.9075 0
M  V30 10 O 2.3989 -0.3421 0.0827 0
M  V30 11 C -2.4834 -0.4623 0.1636 0
M  V30 12 C -1.3354 0.6933 -1.63 0
M  V30 13 C 3.126 -1.1105 -0.8674 0
M  V30 14 C -2.378 -0.138 -1.1963 0
M  V30 15 N -3.3255 -0.6538 -2.135 0
M  V30 16 H -1.6448 -0.2222 2.1275 0
M  V30 17 H 0.3942 1.8312 -1.066 0
M  V30 18 H -3.2818 -1.1056 0.5118 0
M  V30 19 H -1.2403 0.9487 -2.6781 0
M  V30 20 H 4.2139 -1.0508 -0.6522 0
M  V30 21 H 2.9369 -0.7061 -1.883 0
M  V30 22 H 2.7932 -2.1695 -0.8341 0
M  V30 23 H -3.2547 -0.4186 -3.1502 0
M  V30 24 H -4.105 -1.2745 -1.8216 0
M  V30 END ATOM
M  V30 BEGIN BOND
M  V30 1 2 1 2
M  V30 2 2 1 3
M  V30 3 1 1 4
M  V30 4 1 1 5
M  V30 5 1 4 6
M  V30 6 2 5 7
M  V30 7 1 5 8
M  V30 8 2 6 9
M  V30 9 1 6 10
M  V30 10 1 7 11
M  V30 11 2 8 12
M  V30 12 1 10 13
M  V30 13 2 11 14
M  V30 14 1 14 15
M  V30 15 1 12 14
M  V30 16 1 7 16
M  V30 17 1 8 17
M  V30 18 1 11 18
M  V30 19 1 12 19
M  V30 20 1 13 20
M  V30 21 1 13 21
M  V30 22 1 13 22
M  V30 23 1 15 23
M  V30 24 1 15 24
M  V30 END BOND
M  V30 END CTAB
M  END
>  <Structure No>
6414

>  <LogS>
-1.76

>  <MMFF94 Energy>
12.477

$$$$
Compound 6415
Actelion Java MolfileCreator 2.0

  0  0  0  0  0  0              0 V3000
M  V30 BEGIN CTAB
M  V30 COUNTS 59 62 0 0 0
M  V30 BEGIN ATOM
M  V30 1 O -6.5754 1.2152 -0.972 0
M  V30 2 C -5.4178 0.9299 -0.5651 0
M  V30 3 C -5.0683 -0.4601 -0.2615 0
M  V30 4 C -4.3678 1.9858 -0.4819 0
M  V30 5 C -3.8839 -0.7841 0.2853 0
M  V30 6 C -3.476 1.7189 0.7305 0
M  V30 7 C -2.8779 0.2682 0.7712 0 CFG=2
M  V30 8 C -3.4562 -2.2369 0.284 0
M  V30 9 C -1.5927 0.1752 -0.1542 0 CFG=2
M  V30 10 C -2.5843 -0.0313 2.2701 0
M  V30 11 C -1.94 -2.3948 0.0519 0
M  V30 12 C -1.3613 -1.2417 -0.7993 0 CFG=2
M  V30 13 C -0.3041 0.7892 0.459 0
M  V30 14 C 0.1156 -1.5094 -1.2237 0 CFG=2
M  V30 15 C 0.6649 -0.2726 0.9836 0
M  V30 16 C 1.1933 -1.244 -0.1254 0 CFG=2
M  V30 17 C 0.5118 -0.6756 -2.4621 0
M  V30 18 C 2.4052 -0.6812 -0.9322 0 CFG=1
M  V30 19 C 1.6164 -2.5726 0.5533 0
M  V30 20 C 1.8232 0.0294 -2.1516 0
M  V30 21 C 3.42 0.1213 -0.1285 0
M  V30 22 O 4.0519 -0.4524 0.7468 0
M  V30 23 C 3.6598 1.5952 -0.3582 0
M  V30 24 O 4.753 2.0754 0.4242 0
M  V30 25 C 6.0918 1.8095 0.1149 0
M  V30 26 O 6.3963 1.1152 -0.8933 0
M  V30 27 C 7.1672 2.3091 1.0189 0
M  V30 28 H -5.76 -1.2376 -0.5644 0
M  V30 29 H -4.842 2.986 -0.3761 0
M  V30 30 H -3.7705 1.983 -1.4172 0
M  V30 31 H -2.6636 2.4767 0.7533 0
M  V30 32 H -4.101 1.9043 1.6342 0
M  V30 33 H -3.7443 -2.7083 1.2478 0
M  V30 34 H -3.9825 -2.7868 -0.5283 0
M  V30 35 H -1.8102 0.8291 -1.0274 0
M  V30 36 H -1.993 0.7758 2.7482 0
M  V30 37 H -3.5387 -0.0999 2.836 0
M  V30 38 H -2.0542 -0.9823 2.4346 0
M  V30 39 H -1.4146 -2.4704 1.0191 0
M  V30 40 H -1.7675 -3.3637 -0.4655 0
M  V30 41 H -1.9602 -1.2709 -1.7402 0
M  V30 42 H 0.2121 1.4044 -0.3011 0
M  V30 43 H -0.5365 1.5084 1.2683 0
M  V30 44 H 0.1813 -2.5739 -1.5474 0
M  V30 45 H 1.4962 0.2308 1.5166 0
M  V30 46 H 0.1408 -0.8478 1.7727 0
M  V30 47 H 0.6498 -1.3459 -3.3396 0
M  V30 48 H -0.2581 0.077 -2.7391 0
M  V30 49 H 2.9746 -1.5411 -1.355 0
M  V30 50 H 0.7603 -3.0597 1.0602 0
M  V30 51 H 2.3996 -2.3885 1.3182 0
M  V30 52 H 2.0185 -3.2955 -0.1885 0
M  V30 53 H 1.6202 1.1011 -1.9588 0
M  V30 54 H 2.5203 -0.0319 -3.0162 0
M  V30 55 H 2.747 2.1516 -0.0598 0
M  V30 56 H 3.8583 1.7948 -1.4334 0
M  V30 57 H 6.8575 3.273 1.4743 0
M  V30 58 H 7.3467 1.5666 1.8236 0
M  V30 59 H 8.1077 2.4675 0.4494 0
M  V30 END ATOM
M  V30 BEGIN BOND
M  V30 1 2 1 2
M  V30 2 1 2 3
M  V30 3 1 2 4
M  V30 4 2 3 5
M  V30 5 1 4 6
M  V30 6 1 5 7
M  V30 7 1 5 8
M  V30 8 1 7 9
M  V30 9 1 7 10
M  V30 10 1 8 11
M  V30 11 1 9 12
M  V30 12 1 9 13
M  V30 13 1 12 14
M  V30 14 1 13 15
M  V30 15 1 14 16
M  V30 16 1 14 17
M  V30 17 1 16 18
M  V30 18 1 16 19
M  V30 19 1 17 20
M  V30 20 1 18 21
M  V30 21 2 21 22
M  V30 22 1 21 23
M  V30 23 1 23 24
M  V30 24 1 24 25
M  V30 25 2 25 26
M  V30 26 1 25 27
M  V30 27 1 6 7
M  V30 28 1 11 12
M  V30 29 1 15 16
M  V30 30 1 18 20
M  V30 31 1 3 28
M  V30 32 1 4 29
M  V30 33 1 4 30
M  V30 34 1 6 31
M  V30 35 1 6 32
M  V30 36 1 8 33
M  V30 37 1 8 34
M  V30 38 1 9 35
M  V30 39 1 10 36
M  V30 40 1 10 37
M  V30 41 1 10 38
M  V30 42 1 11 39
M  V30 43 1 11 40
M  V30 44 1 12 41
M  V30 45 1 13 42
M  V30 46 1 13 43
M  V30 47 1 14 44
M  V30 48 1 15 45
M  V30 49 1 15 46
M  V30 50 1 17 47
M  V30 51 1 17 48
M  V30 52 1 18 49
M  V30 53 1 19 50
M  V30 54 1 19 51
M  V30 55 1 19 52
M  V30 56 1 20 53
M  V30 57 1 20 54
M  V30 58 1 23 55
M  V30 59 1 23 56
M  V30 60 1 27 57
M  V30 61 1 27 58
M  V30 62 1 27 59
M  V30 END BOND
M  V30 BEGIN COLLECTION
M  V30 MDLV30/STEABS ATOMS=(6 7 9 12 14 16 18)
M  V30 END COLLECTION
M  V30 END CTAB
M  END
>  <Structure No>
6415

>  <LogS>
-4.97

>  <MMFF94 Energy>
80.676

$$$$
Compound 6416
Actelion Java MolfileCreator 2.0

  0  0  0  0  0  0              0 V3000
M  V30 BEGIN CTAB
M  V30 COUNTS 27 28 0 0 0
M  V30 BEGIN ATOM
M  V30 1 O -4.1155 -1.5022 -1.0276 0
M  V30 2 C -3.2105 -0.7441 -0.5905 0
M  V30 3 N -3.3796 -0.0591 0.5784 0
M  V30 4 C -2.015 -0.5771 -1.2732 0
M  V30 5 C -2.4016 0.7705 1.07 0
M  V30 6 N -1.6036 -1.137 -2.4268 0
M  V30 7 C -1.0634 0.2444 -0.7747 0
M  V30 8 N -1.2237 0.9282 0.3867 0
M  V30 9 N -2.6178 1.4674 2.2966 0
M  V30 10 C -0.3593 -0.6074 -2.5893 0
M  V30 11 N -0.0021 0.2415 -1.5919 0
M  V30 12 C 1.2607 0.9638 -1.4452 0
M  V30 13 O 1.8965 0.6029 -0.2358 0
M  V30 14 C 2.568 -0.6308 -0.3872 0
M  V30 15 C 3.0728 -1.1023 0.9732 0
M  V30 16 O 1.9957 -1.3882 1.8247 0
M  V30 17 H -0.4724 1.5565 0.7493 0
M  V30 18 H -3.5141 1.3489 2.819 0
M  V30 19 H -1.8851 2.1012 2.6858 0
M  V30 20 H 0.2799 -0.8474 -3.429 0
M  V30 21 H 1.0432 2.052 -1.4119 0
M  V30 22 H 1.9156 0.8011 -2.3334 0
M  V30 23 H 3.4443 -0.5068 -1.0624 0
M  V30 24 H 1.8959 -1.4176 -0.8009 0
M  V30 25 H 3.739 -0.332 1.4251 0
M  V30 26 H 3.6697 -2.0286 0.8353 0
M  V30 27 H 1.6713 -0.5188 2.1778 0
M  V30 END ATOM
M  V30 BEGIN BOND
M  V30 1 2 1 2
M  V30 2 1 2 3
M  V30 3 1 2 4
M  V30 4 2 3 5
M  V30 5 1 4 6
M  V30 6 2 4 7
M  V30 7 1 5 8
M  V30 8 1 5 9
M  V30 9 2 6 10
M  V30 10 1 7 11
M  V30 11 1 11 12
M  V30 12 1 12 13
M  V30 13 1 13 14
M  V30 14 1 14 15
M  V30 15 1 15 16
M  V30 16 1 7 8
M  V30 17 1 10 11
M  V30 18 1 8 17
M  V30 19 1 9 18
M  V30 20 1 9 19
M  V30 21 1 10 20
M  V30 22 1 12 21
M  V30 23 1 12 22
M  V30 24 1 14 23
M  V30 25 1 14 24
M  V30 26 1 15 25
M  V30 27 1 15 26
M  V30 28 1 16 27
M  V30 END BOND
M  V30 END CTAB
M  END
>  <Structure No>
6416

>  <LogS>
-2.12

>  <MMFF94 Energy>
-2.7967

$$$$
Compound 6417
Actelion Java MolfileCreator 2.0

  0  0  0  0  0  0              0 V3000
M  V30 BEGIN CTAB
M  V30 COUNTS 49 52 0 0 0
M  V30 BEGIN ATOM
M  V30 1 O 6.0667 0.0807 0.3228 0
M  V30 2 C 4.6672 0.1215 0.4146 0
M  V30 3 C 6.9389 1.0511 0.8928 0
M  V30 4 C 3.9325 -0.8978 -0.1926 0
M  V30 5 C 3.9866 1.142 1.0947 0
M  V30 6 C 2.5297 -0.9169 -0.1339 0
M  V30 7 C 2.5921 1.1448 1.1532 0
M  V30 8 C 1.8346 0.1426 0.5105 0
M  V30 9 C 1.8115 -2.0403 -0.8499 0
M  V30 10 C 0.311 0.0926 0.6488 0 CFG=2
M  V30 11 C 0.328 -2.1475 -0.4882 0
M  V30 12 C -0.3133 -0.754 -0.5002 0 CFG=1
M  V30 13 C -0.3674 1.4929 0.7605 0
M  V30 14 C -1.8399 -0.8171 -0.2922 0 CFG=1
M  V30 15 C -1.9143 1.4161 0.8241 0
M  V30 16 C -2.4965 0.5724 -0.3401 0 CFG=2
M  V30 17 C -2.6781 -1.6729 -1.2347 0
M  V30 18 C -4.0075 0.1912 -0.2504 0 CFG=2
M  V30 19 C -2.2479 1.3305 -1.6889 0
M  V30 20 C -4.1029 -1.0976 -1.1174 0
M  V30 21 O -4.827 1.2159 -0.7635 0
M  V30 22 C -4.435 -0.1099 1.1389 0
M  V30 23 C -4.7852 -0.3571 2.2661 0
M  V30 24 H 6.7326 2.0522 0.4582 0
M  V30 25 H 6.8105 1.0791 1.9956 0
M  V30 26 H 7.9883 0.7741 0.6643 0
M  V30 27 H 4.4618 -1.6861 -0.7148 0
M  V30 28 H 4.5267 1.937 1.5907 0
M  V30 29 H 2.1223 1.9376 1.714 0
M  V30 30 H 1.9035 -1.8696 -1.9448 0
M  V30 31 H 2.303 -3.01 -0.6164 0
M  V30 32 H 0.1084 -0.4299 1.6113 0
M  V30 33 H 0.2172 -2.617 0.5145 0
M  V30 34 H -0.1648 -2.8092 -1.2321 0
M  V30 35 H -0.0838 -0.2949 -1.4845 0
M  V30 36 H -0.049 1.989 1.7003 0
M  V30 37 H -0.041 2.1445 -0.0763 0
M  V30 38 H -1.9976 -1.2504 0.7258 0
M  V30 39 H -2.1842 0.9724 1.8062 0
M  V30 40 H -2.3392 2.4431 0.8002 0
M  V30 41 H -2.6557 -2.7416 -0.9286 0
M  V30 42 H -2.3054 -1.5862 -2.2788 0
M  V30 43 H -2.7529 2.3198 -1.6687 0
M  V30 44 H -1.1812 1.5359 -1.8915 0
M  V30 45 H -2.645 0.7706 -2.5603 0
M  V30 46 H -4.7932 -1.8506 -0.6753 0
M  V30 47 H -4.4818 -0.855 -2.1348 0
M  V30 48 H -5.7538 0.8617 -0.8208 0
M  V30 49 H -5.0916 -0.5739 3.2554 0
M  V30 END ATOM
M  V30 BEGIN BOND
M  V30 1 1 1 2
M  V30 2 1 1 3
M  V30 3 2 2 4
M  V30 4 1 2 5
M  V30 5 1 4 6
M  V30 6 2 5 7
M  V30 7 2 6 8
M  V30 8 1 6 9
M  V30 9 1 8 10
M  V30 10 1 9 11
M  V30 11 1 10 12
M  V30 12 1 10 13
M  V30 13 1 12 14
M  V30 14 1 13 15
M  V30 15 1 14 16
M  V30 16 1 14 17
M  V30 17 1 16 18
M  V30 18 1 16 19
M  V30 19 1 17 20
M  V30 20 1 18 21
M  V30 21 1 18 22
M  V30 22 3 22 23
M  V30 23 1 7 8
M  V30 24 1 11 12
M  V30 25 1 15 16
M  V30 26 1 18 20
M  V30 27 1 3 24
M  V30 28 1 3 25
M  V30 29 1 3 26
M  V30 30 1 4 27
M  V30 31 1 5 28
M  V30 32 1 7 29
M  V30 33 1 9 30
M  V30 34 1 9 31
M  V30 35 1 10 32
M  V30 36 1 11 33
M  V30 37 1 11 34
M  V30 38 1 12 35
M  V30 39 1 13 36
M  V30 40 1 13 37
M  V30 41 1 14 38
M  V30 42 1 15 39
M  V30 43 1 15 40
M  V30 44 1 17 41
M  V30 45 1 17 42
M  V30 46 1 19 43
M  V30 47 1 19 44
M  V30 48 1 19 45
M  V30 49 1 20 46
M  V30 50 1 20 47
M  V30 51 1 21 48
M  V30 52 1 23 49
M  V30 END BOND
M  V30 BEGIN COLLECTION
M  V30 MDLV30/STEABS ATOMS=(5 10 12 14 16 18)
M  V30 END COLLECTION
M  V30 END CTAB
M  END
>  <Structure No>
6417

>  <LogS>
-5.49

>  <MMFF94 Energy>
78.846

$$$$
Compound 6418
Actelion Java MolfileCreator 2.0

  0  0  0  0  0  0              0 V3000
M  V30 BEGIN CTAB
M  V30 COUNTS 54 57 0 0 0
M  V30 BEGIN ATOM
M  V30 1 O -6.6768 0.3249 -0.5686 0
M  V30 2 C -5.4185 0.3511 -0.6133 0
M  V30 3 C -4.6408 -0.4811 0.3142 0
M  V30 4 C -4.7308 1.1844 -1.6449 0
M  V30 5 C -3.2942 -0.5027 0.3065 0
M  V30 6 C -3.3194 1.5483 -1.1766 0
M  V30 7 C -2.4799 0.3065 -0.7178 0 CFG=1
M  V30 8 C -2.6246 -1.4811 1.2399 0
M  V30 9 C -1.1113 0.8307 -0.0836 0 CFG=2
M  V30 10 C -2.2417 -0.6217 -1.942 0
M  V30 11 C -1.1014 -1.4689 1.1409 0
M  V30 12 C -0.0446 1.2174 -1.1303 0
M  V30 13 C -0.5799 -0.0188 1.1337 0 CFG=1
M  V30 14 O -0.3961 1.7451 -2.1738 0
M  V30 15 C 1.4443 1.1838 -0.8569 0
M  V30 16 C 0.9464 0.1686 1.3611 0 CFG=2
M  V30 17 C 1.8391 0.0585 0.1191 0 CFG=2
M  V30 18 C 1.6545 -0.6432 2.4494 0
M  V30 19 C 3.2606 0.2171 0.7595 0 CFG=2
M  V30 20 C 1.7023 -1.3136 -0.6058 0
M  V30 21 C 3.1456 -0.595 2.0815 0
M  V30 22 O 3.4796 1.5712 1.098 0
M  V30 23 C 4.3999 -0.2531 -0.1515 0
M  V30 24 O 4.9181 -1.3476 0.0162 0
M  V30 25 C 4.8882 0.6042 -1.2905 0
M  V30 26 O 4.6383 -0.0288 -2.5156 0
M  V30 27 H -5.1866 -1.0987 1.0192 0
M  V30 28 H -4.6912 0.627 -2.6042 0
M  V30 29 H -5.309 2.1184 -1.8163 0
M  V30 30 H -2.8148 2.0942 -1.9996 0
M  V30 31 H -3.4247 2.2633 -0.3299 0
M  V30 32 H -2.9887 -2.5097 1.0245 0
M  V30 33 H -2.916 -1.2293 2.2841 0
M  V30 34 H -1.3411 1.8132 0.3872 0
M  V30 35 H -3.1702 -1.1676 -2.2153 0
M  V30 36 H -1.47 -1.3839 -1.7393 0
M  V30 37 H -1.9314 -0.0517 -2.8409 0
M  V30 38 H -0.7824 -2.044 0.2571 0
M  V30 39 H -0.7344 -2.0164 2.0302 0
M  V30 40 H -1.0409 0.4287 2.0473 0
M  V30 41 H 1.7229 2.1814 -0.4574 0
M  V30 42 H 1.992 1.0525 -1.8155 0
M  V30 43 H 1.0273 1.2272 1.7133 0
M  V30 44 H 1.4733 -0.2008 3.4535 0
M  V30 45 H 1.3349 -1.7028 2.4639 0
M  V30 46 H 1.7911 -2.1658 0.099 0
M  V30 47 H 0.7441 -1.3899 -1.1477 0
M  V30 48 H 2.4765 -1.4314 -1.3904 0
M  V30 49 H 3.7343 -0.1292 2.9018 0
M  V30 50 H 3.5103 -1.6379 1.9605 0
M  V30 51 H 4.3765 1.6421 1.52 0
M  V30 52 H 4.3723 1.5862 -1.2926 0
M  V30 53 H 5.9765 0.8038 -1.167 0
M  V30 54 H 5.3423 -0.7194 -2.6297 0
M  V30 END ATOM
M  V30 BEGIN BOND
M  V30 1 2 1 2
M  V30 2 1 2 3
M  V30 3 1 2 4
M  V30 4 2 3 5
M  V30 5 1 4 6
M  V30 6 1 5 7
M  V30 7 1 5 8
M  V30 8 1 7 9
M  V30 9 1 7 10
M  V30 10 1 8 11
M  V30 11 1 9 12
M  V30 12 1 9 13
M  V30 13 2 12 14
M  V30 14 1 12 15
M  V30 15 1 13 16
M  V30 16 1 15 17
M  V30 17 1 16 18
M  V30 18 1 17 19
M  V30 19 1 17 20
M  V30 20 1 18 21
M  V30 21 1 19 22
M  V30 22 1 19 23
M  V30 23 2 23 24
M  V30 24 1 23 25
M  V30 25 1 25 26
M  V30 26 1 6 7
M  V30 27 1 11 13
M  V30 28 1 16 17
M  V30 29 1 19 21
M  V30 30 1 3 27
M  V30 31 1 4 28
M  V30 32 1 4 29
M  V30 33 1 6 30
M  V30 34 1 6 31
M  V30 35 1 8 32
M  V30 36 1 8 33
M  V30 37 1 9 34
M  V30 38 1 10 35
M  V30 39 1 10 36
M  V30 40 1 10 37
M  V30 41 1 11 38
M  V30 42 1 11 39
M  V30 43 1 13 40
M  V30 44 1 15 41
M  V30 45 1 15 42
M  V30 46 1 16 43
M  V30 47 1 18 44
M  V30 48 1 18 45
M  V30 49 1 20 46
M  V30 50 1 20 47
M  V30 51 1 20 48
M  V30 52 1 21 49
M  V30 53 1 21 50
M  V30 54 1 22 51
M  V30 55 1 25 52
M  V30 56 1 25 53
M  V30 57 1 26 54
M  V30 END BOND
M  V30 BEGIN COLLECTION
M  V30 MDLV30/STEABS ATOMS=(6 7 9 13 16 17 19)
M  V30 END COLLECTION
M  V30 END CTAB
M  END
>  <Structure No>
6418

>  <LogS>
-3.11

>  <MMFF94 Energy>
128.4

$$$$
Compound 6419
Actelion Java MolfileCreator 2.0

  0  0  0  0  0  0              0 V3000
M  V30 BEGIN CTAB
M  V30 COUNTS 28 29 0 0 0
M  V30 BEGIN ATOM
M  V30 1 N 3.3115 0.7089 0.0787 0 CHG=1
M  V30 2 C 1.9499 0.7324 -0.0275 0
M  V30 3 C 4.0243 -0.4507 0.0074 0
M  V30 4 N 1.2824 2.0007 -0.0565 0
M  V30 5 C 1.2415 -0.4878 -0.1708 0
M  V30 6 N 5.4502 -0.4245 0.1132 0
M  V30 7 C 3.3589 -1.6639 -0.1843 0
M  V30 8 N -0.1901 -0.5765 -0.1854 0
M  V30 9 C 1.9695 -1.6761 -0.2759 0
M  V30 10 N -0.9376 0.2628 0.4105 0
M  V30 11 C -2.3664 0.1642 0.3862 0
M  V30 12 C -3.0242 -0.8767 -0.2958 0
M  V30 13 C -3.1244 1.1316 1.0591 0
M  V30 14 C -4.4215 -0.9413 -0.2989 0
M  V30 15 C -4.5214 1.0638 1.0536 0
M  V30 16 C -5.1696 0.0281 0.3752 0
M  V30 17 H 3.8273 1.6107 0.1931 0
M  V30 18 H 1.8005 2.8695 0.2024 0
M  V30 19 H 0.3451 2.1214 -0.4968 0
M  V30 20 H 5.9563 0.4781 0.2522 0
M  V30 21 H 6.0083 -1.3054 0.0548 0
M  V30 22 H 3.9117 -2.5925 -0.252 0
M  V30 23 H 1.4531 -2.6199 -0.4011 0
M  V30 24 H -2.4618 -1.6363 -0.8233 0
M  V30 25 H -2.6307 1.938 1.5871 0
M  V30 26 H -4.9246 -1.7428 -0.8241 0
M  V30 27 H -5.1013 1.8144 1.5754 0
M  V30 28 H -6.2507 -0.0232 0.3716 0
M  V30 END ATOM
M  V30 BEGIN BOND
M  V30 1 2 1 2
M  V30 2 1 1 3
M  V30 3 1 2 4
M  V30 4 1 2 5
M  V30 5 1 3 6
M  V30 6 2 3 7
M  V30 7 1 5 8
M  V30 8 2 5 9
M  V30 9 2 8 10
M  V30 10 1 10 11
M  V30 11 2 11 12
M  V30 12 1 11 13
M  V30 13 1 12 14
M  V30 14 2 13 15
M  V30 15 2 14 16
M  V30 16 1 7 9
M  V30 17 1 15 16
M  V30 18 1 1 17
M  V30 19 1 4 18
M  V30 20 1 4 19
M  V30 21 1 6 20
M  V30 22 1 6 21
M  V30 23 1 7 22
M  V30 24 1 9 23
M  V30 25 1 12 24
M  V30 26 1 13 25
M  V30 27 1 14 26
M  V30 28 1 15 27
M  V30 29 1 16 28
M  V30 END BOND
M  V30 END CTAB
M  END
>  <Structure No>
6419

>  <LogS>
-4.24

>  <MMFF94 Energy>
45.891

$$$$
Compound 6420
Actelion Java MolfileCreator 2.0

  0  0  0  0  0  0              0 V3000
M  V30 BEGIN CTAB
M  V30 COUNTS 24 24 0 0 0
M  V30 BEGIN ATOM
M  V30 1 Cl -5.7066 -1.3406 1.0053 0
M  V30 2 C -4.0926 -0.8116 0.5671 0
M  V30 3 C -3.5361 -1.2003 -0.6561 0
M  V30 4 C -3.3586 -0.0036 1.4423 0
M  V30 5 C -2.249 -0.7798 -1.0056 0
M  V30 6 C -2.0714 0.4175 1.0942 0
M  V30 7 C -1.5137 0.0369 -0.1346 0
M  V30 8 S 0.1136 0.551 -0.565 0
M  V30 9 O 0.2259 0.6772 -2.059 0
M  V30 10 O 0.4018 1.8899 0.0553 0
M  V30 11 C 1.2826 -0.6556 0.0294 0
M  V30 12 C 2.6739 -0.2388 -0.3162 0
M  V30 13 O 3.1937 -0.6267 -1.3981 0
M  V30 14 O 3.3699 0.6147 0.5443 0
M  V30 15 C 4.6854 1.0776 0.2648 0
M  V30 16 H -4.0981 -1.829 -1.3347 0
M  V30 17 H -3.7829 0.2961 2.3922 0
M  V30 18 H -1.8265 -1.0931 -1.9516 0
M  V30 19 H -1.5106 1.0364 1.783 0
M  V30 20 H 1.1838 -0.7464 1.1316 0
M  V30 21 H 1.0547 -1.6422 -0.427 0
M  V30 22 H 4.691 1.6565 -0.6829 0
M  V30 23 H 5.382 0.2165 0.1831 0
M  V30 24 H 5.0231 1.7366 1.0906 0
M  V30 END ATOM
M  V30 BEGIN BOND
M  V30 1 1 1 2
M  V30 2 2 2 3
M  V30 3 1 2 4
M  V30 4 1 3 5
M  V30 5 2 4 6
M  V30 6 2 5 7
M  V30 7 1 7 8
M  V30 8 2 8 9
M  V30 9 2 8 10
M  V30 10 1 8 11
M  V30 11 1 11 12
M  V30 12 2 12 13
M  V30 13 1 12 14
M  V30 14 1 14 15
M  V30 15 1 6 7
M  V30 16 1 3 16
M  V30 17 1 4 17
M  V30 18 1 5 18
M  V30 19 1 6 19
M  V30 20 1 11 20
M  V30 21 1 11 21
M  V30 22 1 15 22
M  V30 23 1 15 23
M  V30 24 1 15 24
M  V30 END BOND
M  V30 END CTAB
M  END
>  <Structure No>
6420

>  <LogS>
-2.38

>  <MMFF94 Energy>
-1.3285

$$$$
Compound 6421
Actelion Java MolfileCreator 2.0

  0  0  0  0  0  0              0 V3000
M  V30 BEGIN CTAB
M  V30 COUNTS 18 18 0 0 0
M  V30 BEGIN ATOM
M  V30 1 O -0.9246 -3.5337 -0.2521 0
M  V30 2 N -1.487 -2.425 -0.1409 0 CHG=1
M  V30 3 O -2.8629 -2.3869 -0.1296 0 CHG=-1
M  V30 4 C -0.7231 -1.2014 -0.0735 0
M  V30 5 C 0.6768 -1.212 0.1271 0
M  V30 6 C -1.3848 0.0313 -0.2012 0
M  V30 7 O 1.3417 -2.4216 0.3012 0 CHG=-1
M  V30 8 C 1.4012 -1.0E-4 0.1765 0
M  V30 9 C -0.6819 1.2428 -0.1414 0
M  V30 10 N 2.8326 0.0105 0.3643 0 CHG=1
M  V30 11 C 0.7079 1.2158 0.0465 0
M  V30 12 N -1.38 2.4959 -0.2762 0 CHG=1
M  V30 13 O 3.424 1.0716 0.6537 0
M  V30 14 O 3.5841 -1.126 0.1741 0 CHG=-1
M  V30 15 O -0.7612 3.5793 -0.225 0
M  V30 16 O -2.7434 2.5217 -0.4621 0 CHG=-1
M  V30 17 H -2.4555 0.0479 -0.3545 0
M  V30 18 H 1.2563 2.1481 0.0836 0
M  V30 END ATOM
M  V30 BEGIN BOND
M  V30 1 2 1 2
M  V30 2 1 2 3
M  V30 3 1 2 4
M  V30 4 2 4 5
M  V30 5 1 4 6
M  V30 6 1 5 7
M  V30 7 1 5 8
M  V30 8 2 6 9
M  V30 9 1 8 10
M  V30 10 2 8 11
M  V30 11 1 9 12
M  V30 12 2 10 13
M  V30 13 1 10 14
M  V30 14 2 12 15
M  V30 15 1 12 16
M  V30 16 1 9 11
M  V30 17 1 6 17
M  V30 18 1 11 18
M  V30 END BOND
M  V30 END CTAB
M  END
>  <Structure No>
6421

>  <LogS>
-1.97

>  <MMFF94 Energy>
127.65

$$$$
Compound 6422
Actelion Java MolfileCreator 2.0

  0  0  0  0  0  0              0 V3000
M  V30 BEGIN CTAB
M  V30 COUNTS 28 29 0 0 0
M  V30 BEGIN ATOM
M  V30 1 O -0.0785 2.6739 0.0785 0
M  V30 2 C -0.6541 1.5565 0.1725 0
M  V30 3 N -0.0514 0.364 -0.0114 0
M  V30 4 C -1.9767 1.3559 0.4919 0
M  V30 5 N -0.961 -0.5944 0.1649 0
M  V30 6 C 1.3379 0.1637 -0.3276 0
M  V30 7 N -2.9609 2.3619 0.7374 0
M  V30 8 C -2.1441 -0.02 0.503 0
M  V30 9 C -0.7205 -2.031 0.0028 0
M  V30 10 C 1.9169 0.826 -1.4224 0
M  V30 11 C 2.1349 -0.6722 0.4713 0
M  V30 12 C -3.4264 -0.7585 0.7503 0
M  V30 13 C 3.27 0.6403 -1.7227 0
M  V30 14 C 3.4876 -0.8555 0.1684 0
M  V30 15 C 4.0544 -0.201 -0.9288 0
M  V30 16 H -2.7002 3.3723 0.7011 0
M  V30 17 H -3.9526 2.108 0.9382 0
M  V30 18 H -0.4659 -2.4798 0.9852 0
M  V30 19 H -1.6229 -2.5316 -0.4061 0
M  V30 20 H 0.1061 -2.2116 -0.7145 0
M  V30 21 H 1.3167 1.4752 -2.0471 0
M  V30 22 H 1.7109 -1.17 1.3338 0
M  V30 23 H -3.9419 -0.9388 -0.2155 0
M  V30 24 H -3.2215 -1.73 1.2458 0
M  V30 25 H -4.0923 -0.1751 1.4185 0
M  V30 26 H 3.71 1.1484 -2.571 0
M  V30 27 H 4.0974 -1.5012 0.7868 0
M  V30 28 H 5.1018 -0.3433 -1.1619 0
M  V30 END ATOM
M  V30 BEGIN BOND
M  V30 1 2 1 2
M  V30 2 1 2 3
M  V30 3 1 2 4
M  V30 4 1 3 5
M  V30 5 1 3 6
M  V30 6 1 4 7
M  V30 7 2 4 8
M  V30 8 1 5 9
M  V30 9 2 6 10
M  V30 10 1 6 11
M  V30 11 1 8 12
M  V30 12 1 10 13
M  V30 13 2 11 14
M  V30 14 2 13 15
M  V30 15 1 5 8
M  V30 16 1 14 15
M  V30 17 1 7 16
M  V30 18 1 7 17
M  V30 19 1 9 18
M  V30 20 1 9 19
M  V30 21 1 9 20
M  V30 22 1 10 21
M  V30 23 1 11 22
M  V30 24 1 12 23
M  V30 25 1 12 24
M  V30 26 1 12 25
M  V30 27 1 13 26
M  V30 28 1 14 27
M  V30 29 1 15 28
M  V30 END BOND
M  V30 END CTAB
M  END
>  <Structure No>
6422

>  <LogS>
0.31

>  <MMFF94 Energy>
109.74

$$$$
Compound 6423
Actelion Java MolfileCreator 2.0

  0  0  0  0  0  0              0 V3000
M  V30 BEGIN CTAB
M  V30 COUNTS 26 27 0 0 0
M  V30 BEGIN ATOM
M  V30 1 O 1.363 -2.5668 -1.2025 0
M  V30 2 C 2.3923 -1.9621 -0.8019 0
M  V30 3 O 3.6347 -2.5548 -0.9969 0 CHG=-1
M  V30 4 C 2.2961 -0.6234 -0.1679 0
M  V30 5 C 1.0829 -0.1235 0.3735 0
M  V30 6 C 3.443 0.1921 -0.1362 0
M  V30 7 N -0.0896 -0.9509 0.4586 0
M  V30 8 C 1.0518 1.1702 0.9231 0
M  V30 9 C 3.3909 1.4772 0.407 0
M  V30 10 C -1.4121 -0.5032 0.1106 0
M  V30 11 C 2.1968 1.9665 0.9326 0
M  V30 12 C -2.5286 -1.1773 0.6308 0
M  V30 13 C -1.6134 0.5692 -0.7793 0
M  V30 14 C -3.8227 -0.7706 0.2913 0
M  V30 15 C -2.9093 0.9724 -1.1164 0
M  V30 16 C -4.013 0.3053 -0.5791 0
M  V30 17 H 4.3816 -0.157 -0.548 0
M  V30 18 H 0.0213 -1.9123 0.8532 0
M  V30 19 H 0.1406 1.5539 1.3647 0
M  V30 20 H 4.2793 2.0955 0.4189 0
M  V30 21 H 2.1609 2.9609 1.359 0
M  V30 22 H -2.3952 -2.0136 1.3055 0
M  V30 23 H -0.7728 1.085 -1.2245 0
M  V30 24 H -4.6783 -1.2909 0.7022 0
M  V30 25 H -3.0577 1.7989 -1.7992 0
M  V30 26 H -5.0152 0.6181 -0.8422 0
M  V30 END ATOM
M  V30 BEGIN BOND
M  V30 1 2 1 2
M  V30 2 1 2 3
M  V30 3 1 2 4
M  V30 4 2 4 5
M  V30 5 1 4 6
M  V30 6 1 5 7
M  V30 7 1 5 8
M  V30 8 2 6 9
M  V30 9 1 7 10
M  V30 10 2 8 11
M  V30 11 2 10 12
M  V30 12 1 10 13
M  V30 13 1 12 14
M  V30 14 2 13 15
M  V30 15 2 14 16
M  V30 16 1 9 11
M  V30 17 1 15 16
M  V30 18 1 6 17
M  V30 19 1 7 18
M  V30 20 1 8 19
M  V30 21 1 9 20
M  V30 22 1 11 21
M  V30 23 1 12 22
M  V30 24 1 13 23
M  V30 25 1 14 24
M  V30 26 1 15 25
M  V30 27 1 16 26
M  V30 END BOND
M  V30 END CTAB
M  END
>  <Structure No>
6423

>  <LogS>
-4.96

>  <MMFF94 Energy>
44.434

$$$$
Compound 6424
Actelion Java MolfileCreator 2.0

  0  0  0  0  0  0              0 V3000
M  V30 BEGIN CTAB
M  V30 COUNTS 55 58 0 0 0
M  V30 BEGIN ATOM
M  V30 1 F -1.1402 -0.8143 -1.8737 0
M  V30 2 C -1.2114 -0.4298 -0.5409 0 CFG=1
M  V30 3 C -2.7661 -0.4724 -0.16 0 CFG=1
M  V30 4 C -0.3405 -1.4738 0.2648 0 CFG=1
M  V30 5 C -0.5603 1.027 -0.4636 0 CFG=2
M  V30 6 C -3.4512 0.8547 -0.5532 0
M  V30 7 C -3.4406 -1.6619 -0.8675 0
M  V30 8 C -3.0137 -0.6973 1.3534 0
M  V30 9 O -0.8609 -2.7703 0.1343 0
M  V30 10 C 1.1534 -1.5055 -0.1765 0
M  V30 11 C 0.869 0.99 0.1414 0 CFG=1
M  V30 12 C -1.4067 2.0501 0.3136 0
M  V30 13 C -4.6886 0.8884 -1.0776 0
M  V30 14 C -2.8024 2.1823 -0.2722 0
M  V30 15 C -4.6676 -1.6077 -1.387 0
M  V30 16 C 1.7692 -0.0958 -0.4699 0 CFG=1
M  V30 17 C 1.7051 2.2653 0.1056 0
M  V30 18 C -5.3829 -0.3399 -1.453 0
M  V30 19 C 3.163 0.2296 0.2021 0 CFG=2
M  V30 20 C 1.8867 0.0749 -2.0228 0
M  V30 21 C 3.1527 1.7992 0.361 0 CFG=1
M  V30 22 O -6.569 -0.2988 -1.8732 0
M  V30 23 O 4.2457 -0.2352 -0.5855 0
M  V30 24 C 3.3206 -0.3969 1.5981 0
M  V30 25 O 4.0149 2.4495 -0.5375 0
M  V30 26 O 2.5261 -0.1304 2.4881 0
M  V30 27 C 4.4563 -1.3329 1.9199 0
M  V30 28 O 4.3214 -2.5122 1.1777 0
M  V30 29 H -0.3665 -1.1877 1.3417 0
M  V30 30 H -0.4825 1.4313 -1.4974 0
M  V30 31 H -2.9752 -2.6345 -0.8543 0
M  V30 32 H -4.0921 -0.5683 1.5926 0
M  V30 33 H -2.4421 -8.0E-4 1.9904 0
M  V30 34 H -2.7366 -1.7283 1.6601 0
M  V30 35 H -0.4928 -3.3096 0.8827 0
M  V30 36 H 1.2383 -2.1566 -1.075 0
M  V30 37 H 1.7182 -2.0481 0.6053 0
M  V30 38 H 0.7264 0.7751 1.222 0
M  V30 39 H -1.4527 1.8018 1.3913 0
M  V30 40 H -0.9306 3.0524 0.2513 0
M  V30 41 H -5.1763 1.8371 -1.2743 0
M  V30 42 H -2.7331 2.7535 -1.2248 0
M  V30 43 H -3.434 2.7656 0.4334 0
M  V30 44 H -5.1243 -2.5037 -1.7893 0
M  V30 45 H 1.3801 2.9794 0.8938 0
M  V30 46 H 1.6067 2.7651 -0.8827 0
M  V30 47 H 2.3059 1.0622 -2.3052 0
M  V30 48 H 2.5464 -0.7104 -2.4493 0
M  V30 49 H 0.9232 -0.0274 -2.5471 0
M  V30 50 H 3.4298 2.1005 1.4004 0
M  V30 51 H 4.3468 0.3127 -1.403 0
M  V30 52 H 4.93 2.3706 -0.1602 0
M  V30 53 H 4.4528 -1.5762 3.0065 0
M  V30 54 H 5.4219 -0.8358 1.679 0
M  V30 55 H 5.1048 -3.0749 1.4106 0
M  V30 END ATOM
M  V30 BEGIN BOND
M  V30 1 1 1 2
M  V30 2 1 2 3
M  V30 3 1 2 4
M  V30 4 1 2 5
M  V30 5 1 3 6
M  V30 6 1 3 7
M  V30 7 1 3 8
M  V30 8 1 4 9
M  V30 9 1 4 10
M  V30 10 1 5 11
M  V30 11 1 5 12
M  V30 12 2 6 13
M  V30 13 1 6 14
M  V30 14 2 7 15
M  V30 15 1 10 16
M  V30 16 1 11 17
M  V30 17 1 13 18
M  V30 18 1 16 19
M  V30 19 1 16 20
M  V30 20 1 17 21
M  V30 21 2 18 22
M  V30 22 1 19 23
M  V30 23 1 19 24
M  V30 24 1 21 25
M  V30 25 2 24 26
M  V30 26 1 24 27
M  V30 27 1 27 28
M  V30 28 1 11 16
M  V30 29 1 12 14
M  V30 30 1 15 18
M  V30 31 1 19 21
M  V30 32 1 4 29
M  V30 33 1 5 30
M  V30 34 1 7 31
M  V30 35 1 8 32
M  V30 36 1 8 33
M  V30 37 1 8 34
M  V30 38 1 9 35
M  V30 39 1 10 36
M  V30 40 1 10 37
M  V30 41 1 11 38
M  V30 42 1 12 39
M  V30 43 1 12 40
M  V30 44 1 13 41
M  V30 45 1 14 42
M  V30 46 1 14 43
M  V30 47 1 15 44
M  V30 48 1 17 45
M  V30 49 1 17 46
M  V30 50 1 20 47
M  V30 51 1 20 48
M  V30 52 1 20 49
M  V30 53 1 21 50
M  V30 54 1 23 51
M  V30 55 1 25 52
M  V30 56 1 27 53
M  V30 57 1 27 54
M  V30 58 1 28 55
M  V30 END BOND
M  V30 BEGIN COLLECTION
M  V30 MDLV30/STEABS ATOMS=(8 2 3 4 5 11 16 19 21)
M  V30 END COLLECTION
M  V30 END CTAB
M  END
>  <Structure No>
6424

>  <LogS>
-3.68

>  <MMFF94 Energy>
197.24

$$$$
Compound 6425
Actelion Java MolfileCreator 2.0

  0  0  0  0  0  0              0 V3000
M  V30 BEGIN CTAB
M  V30 COUNTS 29 31 0 0 0
M  V30 BEGIN ATOM
M  V30 1 O 5.1399 0.2404 1.3633 0
M  V30 2 C 4.1434 -0.3207 0.8372 0
M  V30 3 N 4.1717 -1.6521 0.5385 0
M  V30 4 C 2.9893 0.3885 0.5362 0
M  V30 5 C 3.0991 -2.2709 -0.0509 0
M  V30 6 N 2.7407 1.7022 0.6739 0
M  V30 7 C 1.9344 -0.2414 -0.032 0
M  V30 8 N 1.9681 -1.5619 -0.3517 0
M  V30 9 C 1.4845 1.8239 0.1653 0
M  V30 10 N 0.9478 0.6439 -0.2565 0
M  V30 11 C -0.3215 0.4171 -0.9649 0 CFG=1
M  V30 12 O -0.9378 -0.7598 -0.4946 0
M  V30 13 C -1.3116 1.5566 -0.7786 0
M  V30 14 C -2.3352 -0.5753 -0.5878 0 CFG=2
M  V30 15 C -2.6295 0.8738 -0.9763 0
M  V30 16 C -2.9918 -0.9728 0.7423 0
M  V30 17 O -2.417 -0.2749 1.8159 0
M  V30 18 H 3.1538 -3.3256 -0.286 0
M  V30 19 H 1.1666 -2.0356 -0.8223 0
M  V30 20 H 0.982 2.7789 0.0867 0
M  V30 21 H -0.1045 0.296 -2.0502 0
M  V30 22 H -1.2662 1.9577 0.2581 0
M  V30 23 H -1.1506 2.3724 -1.5165 0
M  V30 24 H -2.7303 -1.2492 -1.3801 0
M  V30 25 H -2.9181 0.9249 -2.0499 0
M  V30 26 H -3.4309 1.3477 -0.3677 0
M  V30 27 H -4.0931 -0.8056 0.6985 0
M  V30 28 H -2.8313 -2.0593 0.9077 0
M  V30 29 H -2.9157 0.5782 1.9063 0
M  V30 END ATOM
M  V30 BEGIN BOND
M  V30 1 2 1 2
M  V30 2 1 2 3
M  V30 3 1 2 4
M  V30 4 2 3 5
M  V30 5 1 4 6
M  V30 6 2 4 7
M  V30 7 1 5 8
M  V30 8 2 6 9
M  V30 9 1 7 10
M  V30 10 1 10 11
M  V30 11 1 11 12
M  V30 12 1 11 13
M  V30 13 1 12 14
M  V30 14 1 13 15
M  V30 15 1 14 16
M  V30 16 1 16 17
M  V30 17 1 7 8
M  V30 18 1 9 10
M  V30 19 1 14 15
M  V30 20 1 5 18
M  V30 21 1 8 19
M  V30 22 1 9 20
M  V30 23 1 11 21
M  V30 24 1 13 22
M  V30 25 1 13 23
M  V30 26 1 14 24
M  V30 27 1 15 25
M  V30 28 1 15 26
M  V30 29 1 16 27
M  V30 30 1 16 28
M  V30 31 1 17 29
M  V30 END BOND
M  V30 BEGIN COLLECTION
M  V30 MDLV30/STEABS ATOMS=(2 11 14)
M  V30 END COLLECTION
M  V30 END CTAB
M  END
>  <Structure No>
6425

>  <LogS>
-0.94

>  <MMFF94 Energy>
77.962

$$$$
Compound 6426
Actelion Java MolfileCreator 2.0

  0  0  0  0  0  0              0 V3000
M  V30 BEGIN CTAB
M  V30 COUNTS 30 31 0 0 0
M  V30 BEGIN ATOM
M  V30 1 O 0.5547 0.4754 -2.2997 0
M  V30 2 C 1.2964 0.4082 -1.2827 0
M  V30 3 N 0.7388 0.6441 0.0155 0
M  V30 4 C 2.7234 0.0863 -1.4573 0
M  V30 5 N -0.6337 0.9119 0.1566 0
M  V30 6 N 3.2901 -0.1472 -2.6585 0
M  V30 7 C 3.68 -0.0292 -0.4653 0
M  V30 8 C -1.2676 -0.2537 0.7733 0
M  V30 9 O 4.5484 -0.3995 -2.4429 0
M  V30 10 C 4.8274 -0.3379 -1.1624 0
M  V30 11 C -2.7575 -0.0576 0.8151 0
M  V30 12 C 6.1736 -0.5944 -0.5748 0
M  V30 13 C -3.3689 0.5015 1.9498 0
M  V30 14 C -3.5436 -0.3748 -0.3051 0
M  V30 15 C -4.7511 0.7145 1.9716 0
M  V30 16 C -4.9253 -0.16 -0.2791 0
M  V30 17 C -5.5289 0.382 0.859 0
M  V30 18 H 1.3353 0.5686 0.8701 0
M  V30 19 H -0.7236 1.7232 0.8124 0
M  V30 20 H 3.571 0.0883 0.6042 0
M  V30 21 H -1.0348 -1.1677 0.182 0
M  V30 22 H -0.87 -0.4099 1.802 0
M  V30 23 H 6.4173 0.1939 0.1678 0
M  V30 24 H 6.9433 -0.5875 -1.3746 0
M  V30 25 H 6.1771 -1.5848 -0.0741 0
M  V30 26 H -2.7765 0.7726 2.8151 0
M  V30 27 H -3.0865 -0.7864 -1.1964 0
M  V30 28 H -5.2185 1.1411 2.8498 0
M  V30 29 H -5.5277 -0.4105 -1.1428 0
M  V30 30 H -6.5983 0.5489 0.8771 0
M  V30 END ATOM
M  V30 BEGIN BOND
M  V30 1 2 1 2
M  V30 2 1 2 3
M  V30 3 1 2 4
M  V30 4 1 3 5
M  V30 5 2 4 6
M  V30 6 1 4 7
M  V30 7 1 5 8
M  V30 8 1 6 9
M  V30 9 2 7 10
M  V30 10 1 8 11
M  V30 11 1 10 12
M  V30 12 2 11 13
M  V30 13 1 11 14
M  V30 14 1 13 15
M  V30 15 2 14 16
M  V30 16 2 15 17
M  V30 17 1 9 10
M  V30 18 1 16 17
M  V30 19 1 3 18
M  V30 20 1 5 19
M  V30 21 1 7 20
M  V30 22 1 8 21
M  V30 23 1 8 22
M  V30 24 1 12 23
M  V30 25 1 12 24
M  V30 26 1 12 25
M  V30 27 1 13 26
M  V30 28 1 14 27
M  V30 29 1 15 28
M  V30 30 1 16 29
M  V30 31 1 17 30
M  V30 END BOND
M  V30 END CTAB
M  END
>  <Structure No>
6426

>  <LogS>
-2.46

>  <MMFF94 Energy>
86.678

$$$$
Compound 6427
Actelion Java MolfileCreator 2.0

  0  0  0  0  0  0              0 V3000
M  V30 BEGIN CTAB
M  V30 COUNTS 22 24 0 0 0
M  V30 BEGIN ATOM
M  V30 1 N -0.0805 1.3695 -0.0805 0
M  V30 2 C 1.1222 0.7361 -0.1053 0
M  V30 3 C -1.2437 0.6659 -0.1023 0
M  V30 4 C 1.1639 -0.6748 -0.1548 0
M  V30 5 C 2.3137 1.4694 -0.0825 0
M  V30 6 C -1.2019 -0.745 -0.1517 0
M  V30 7 C -2.4766 1.3273 -0.0763 0
M  V30 8 N 7.0E-4 -1.3784 -0.1767 0
M  V30 9 C 2.3968 -1.3361 -0.1808 0
M  V30 10 C 3.5431 0.8017 -0.1086 0
M  V30 11 C -2.3935 -1.4782 -0.1746 0
M  V30 12 C -3.6644 0.5879 -0.0993 0
M  V30 13 C 3.5845 -0.5966 -0.1576 0
M  V30 14 C -3.623 -0.8104 -0.1483 0
M  V30 15 H 2.2898 2.5515 -0.0446 0
M  V30 16 H -2.5169 2.4089 -0.0384 0
M  V30 17 H 2.437 -2.4176 -0.2186 0
M  V30 18 H 4.4651 1.3684 -0.0909 0
M  V30 19 H -2.3697 -2.5603 -0.2124 0
M  V30 20 H -4.6184 1.0989 -0.0792 0
M  V30 21 H 4.5384 -1.1076 -0.1777 0
M  V30 22 H -4.5451 -1.3771 -0.166 0
M  V30 END ATOM
M  V30 BEGIN BOND
M  V30 1 1 1 2
M  V30 2 2 1 3
M  V30 3 1 2 4
M  V30 4 2 2 5
M  V30 5 1 3 6
M  V30 6 1 3 7
M  V30 7 1 4 8
M  V30 8 2 4 9
M  V30 9 1 5 10
M  V30 10 1 6 11
M  V30 11 2 7 12
M  V30 12 1 9 13
M  V30 13 2 11 14
M  V30 14 2 6 8
M  V30 15 2 10 13
M  V30 16 1 12 14
M  V30 17 1 5 15
M  V30 18 1 7 16
M  V30 19 1 9 17
M  V30 20 1 10 18
M  V30 21 1 11 19
M  V30 22 1 12 20
M  V30 23 1 13 21
M  V30 24 1 14 22
M  V30 END BOND
M  V30 END CTAB
M  END
>  <Structure No>
6427

>  <LogS>
-3.7

>  <MMFF94 Energy>
92.925

$$$$
Compound 6428
Actelion Java MolfileCreator 2.0

  0  0  0  0  0  0              0 V3000
M  V30 BEGIN CTAB
M  V30 COUNTS 22 23 0 0 0
M  V30 BEGIN ATOM
M  V30 1 S -4.9581 0.4949 -0.9076 0
M  V30 2 N -5.4027 -0.1688 0.5489 0
M  V30 3 C -3.323 0.5715 -0.6126 0
M  V30 4 N -4.3037 -0.3199 1.2859 0
M  V30 5 N -2.3475 1.1615 -1.4777 0 CHG=-1
M  V30 6 C -3.1468 0.0858 0.6804 0
M  V30 7 C -0.9314 0.9843 -1.3698 0
M  V30 8 O -0.1708 1.822 -1.9235 0
M  V30 9 N -0.3809 -0.1767 -0.7283 0
M  V30 10 C 0.9715 -0.2626 -0.247 0
M  V30 11 C 1.6574 0.8732 0.2239 0
M  V30 12 C 1.6049 -1.5145 -0.1909 0
M  V30 13 C 2.9641 0.7572 0.7092 0
M  V30 14 C 2.9118 -1.626 0.2942 0
M  V30 15 C 3.5922 -0.4902 0.7405 0
M  V30 16 H -2.1947 0.0536 1.1915 0
M  V30 17 H -0.9694 -1.0399 -0.7007 0
M  V30 18 H 1.1793 1.8436 0.2397 0
M  V30 19 H 1.0877 -2.4028 -0.5315 0
M  V30 20 H 3.4868 1.6342 1.0689 0
M  V30 21 H 3.396 -2.5935 0.3261 0
M  V30 22 H 4.6028 -0.5781 1.1178 0
M  V30 END ATOM
M  V30 BEGIN BOND
M  V30 1 1 1 2
M  V30 2 1 1 3
M  V30 3 2 2 4
M  V30 4 1 3 5
M  V30 5 2 3 6
M  V30 6 1 5 7
M  V30 7 2 7 8
M  V30 8 1 7 9
M  V30 9 1 9 10
M  V30 10 2 10 11
M  V30 11 1 10 12
M  V30 12 1 11 13
M  V30 13 2 12 14
M  V30 14 2 13 15
M  V30 15 1 4 6
M  V30 16 1 14 15
M  V30 17 1 6 16
M  V30 18 1 9 17
M  V30 19 1 11 18
M  V30 20 1 12 19
M  V30 21 1 13 20
M  V30 22 1 14 21
M  V30 23 1 15 22
M  V30 END BOND
M  V30 END CTAB
M  END
>  <Structure No>
6428

>  <LogS>
-3.85

>  <MMFF94 Energy>
0.82989

$$$$
Compound 6429
Actelion Java MolfileCreator 2.0

  0  0  0  0  0  0              0 V3000
M  V30 BEGIN CTAB
M  V30 COUNTS 35 35 0 0 0
M  V30 BEGIN ATOM
M  V30 1 S -1.1328 1.2138 2.5907 0
M  V30 2 O -1.7072 1.0646 3.9708 0
M  V30 3 O -0.5773 2.6021 2.4357 0
M  V30 4 N 0.1498 0.0695 2.3797 0 CHG=-1
M  V30 5 C -2.4009 0.9208 1.4051 0
M  V30 6 C 0.8864 -0.0393 1.1605 0
M  V30 7 C -2.7244 -0.3913 1.0358 0
M  V30 8 C -3.1028 1.9928 0.8373 0
M  V30 9 O 0.618 0.7173 0.1878 0
M  V30 10 N 1.9242 -1.0203 1.0506 0
M  V30 11 C -3.7308 -0.6303 0.0952 0
M  V30 12 C -4.1101 1.7549 -0.1027 0
M  V30 13 C 2.7211 -1.194 -0.1621 0
M  V30 14 C -4.4191 0.4423 -0.4921 0
M  V30 15 C 3.7697 -0.0794 -0.2777 0
M  V30 16 C -5.5253 0.1838 -1.4715 0
M  V30 17 C 4.5621 -0.1482 -1.5921 0
M  V30 18 C 5.524 -1.335 -1.6415 0
M  V30 19 H -2.2001 -1.2291 1.4777 0
M  V30 20 H -2.8752 3.0115 1.1243 0
M  V30 21 H 2.0763 -1.6779 1.8483 0
M  V30 22 H -3.9731 -1.6507 -0.1746 0
M  V30 23 H -4.6482 2.5938 -0.5268 0
M  V30 24 H 2.0536 -1.1981 -1.0515 0
M  V30 25 H 3.2318 -2.1788 -0.1125 0
M  V30 26 H 4.4656 -0.129 0.5881 0
M  V30 27 H 3.258 0.9061 -0.2384 0
M  V30 28 H -5.3145 -0.7305 -2.0661 0
M  V30 29 H -5.6325 1.035 -2.1773 0
M  V30 30 H -6.4799 0.0467 -0.9221 0
M  V30 31 H 3.8651 -0.1966 -2.457 0
M  V30 32 H 5.1568 0.7855 -1.6923 0
M  V30 33 H 6.194 -1.3299 -0.7555 0
M  V30 34 H 4.9655 -2.2929 -1.6784 0
M  V30 35 H 6.1489 -1.2647 -2.5567 0
M  V30 END ATOM
M  V30 BEGIN BOND
M  V30 1 2 1 2
M  V30 2 2 1 3
M  V30 3 1 1 4
M  V30 4 1 1 5
M  V30 5 1 4 6
M  V30 6 2 5 7
M  V30 7 1 5 8
M  V30 8 2 6 9
M  V30 9 1 6 10
M  V30 10 1 7 11
M  V30 11 2 8 12
M  V30 12 1 10 13
M  V30 13 2 11 14
M  V30 14 1 13 15
M  V30 15 1 14 16
M  V30 16 1 15 17
M  V30 17 1 17 18
M  V30 18 1 12 14
M  V30 19 1 7 19
M  V30 20 1 8 20
M  V30 21 1 10 21
M  V30 22 1 11 22
M  V30 23 1 12 23
M  V30 24 1 13 24
M  V30 25 1 13 25
M  V30 26 1 15 26
M  V30 27 1 15 27
M  V30 28 1 16 28
M  V30 29 1 16 29
M  V30 30 1 16 30
M  V30 31 1 17 31
M  V30 32 1 17 32
M  V30 33 1 18 33
M  V30 34 1 18 34
M  V30 35 1 18 35
M  V30 END BOND
M  V30 END CTAB
M  END
>  <Structure No>
6429

>  <LogS>
-3.17

>  <MMFF94 Energy>
-4.229

$$$$
Compound 6430
Actelion Java MolfileCreator 2.0

  0  0  0  0  0  0              0 V3000
M  V30 BEGIN CTAB
M  V30 COUNTS 32 34 0 0 0
M  V30 BEGIN ATOM
M  V30 1 N -0.9603 1.0403 0.6401 0
M  V30 2 C 0.2183 0.5044 0.227 0
M  V30 3 C -2.1492 0.6719 0.092 0
M  V30 4 N 0.2236 -0.4117 -0.777 0
M  V30 5 N 1.4454 0.9541 0.8191 0
M  V30 6 C -2.151 -0.2873 -0.9382 0
M  V30 7 C -3.3998 1.3323 0.6356 0
M  V30 8 C -0.9311 -0.8243 -1.3604 0
M  V30 9 C 2.7183 0.3147 0.6251 0
M  V30 10 C -4.5314 1.603 -0.3465 0
M  V30 11 C -4.6685 0.492 0.6878 0
M  V30 12 C -0.8879 -1.8325 -2.4641 0
M  V30 13 C 3.883 1.0973 0.5848 0
M  V30 14 C 2.8305 -1.0856 0.5375 0
M  V30 15 C 5.1345 0.4959 0.4194 0
M  V30 16 C 4.084 -1.6834 0.3729 0
M  V30 17 C 5.2345 -0.8932 0.3093 0
M  V30 18 H 1.4212 1.8497 1.3577 0
M  V30 19 H -3.0657 -0.6162 -1.4123 0
M  V30 20 H -3.3015 2.0801 1.452 0
M  V30 21 H -5.1344 2.5059 -0.113 0
M  V30 22 H -4.394 1.2484 -1.3884 0
M  V30 23 H -4.6141 -0.5345 0.2716 0
M  V30 24 H -5.3517 0.7457 1.5259 0
M  V30 25 H 0.1456 -2.2152 -2.6023 0
M  V30 26 H -1.2261 -1.3631 -3.4116 0
M  V30 27 H -1.5534 -2.6873 -2.2204 0
M  V30 28 H 3.8182 2.1748 0.6711 0
M  V30 29 H 1.9568 -1.7182 0.6215 0
M  V30 30 H 6.027 1.1069 0.3792 0
M  V30 31 H 4.164 -2.7606 0.3042 0
M  V30 32 H 6.204 -1.3579 0.1836 0
M  V30 END ATOM
M  V30 BEGIN BOND
M  V30 1 2 1 2
M  V30 2 1 1 3
M  V30 3 1 2 4
M  V30 4 1 2 5
M  V30 5 2 3 6
M  V30 6 1 3 7
M  V30 7 2 4 8
M  V30 8 1 5 9
M  V30 9 1 7 10
M  V30 10 1 7 11
M  V30 11 1 8 12
M  V30 12 2 9 13
M  V30 13 1 9 14
M  V30 14 1 13 15
M  V30 15 2 14 16
M  V30 16 2 15 17
M  V30 17 1 6 8
M  V30 18 1 10 11
M  V30 19 1 16 17
M  V30 20 1 5 18
M  V30 21 1 6 19
M  V30 22 1 7 20
M  V30 23 1 10 21
M  V30 24 1 10 22
M  V30 25 1 11 23
M  V30 26 1 11 24
M  V30 27 1 12 25
M  V30 28 1 12 26
M  V30 29 1 12 27
M  V30 30 1 13 28
M  V30 31 1 14 29
M  V30 32 1 15 30
M  V30 33 1 16 31
M  V30 34 1 17 32
M  V30 END BOND
M  V30 END CTAB
M  END
>  <Structure No>
6430

>  <LogS>
-4.05

>  <MMFF94 Energy>
-43.265

$$$$
Compound 6431
Actelion Java MolfileCreator 2.0

  0  0  0  0  0  0              0 V3000
M  V30 BEGIN CTAB
M  V30 COUNTS 37 38 0 0 0
M  V30 BEGIN ATOM
M  V30 1 S 0.9817 -1.4728 0.0 0
M  V30 2 O 1.2091 -2.3986 -1.1632 0
M  V30 3 O 1.112 -2.274 1.2659 0
M  V30 4 C 2.2299 -0.2255 -0.0224 0
M  V30 5 C -0.6837 -0.7717 -0.0908 0
M  V30 6 C 2.7414 0.2386 -1.2438 0
M  V30 7 C 2.7196 0.3091 1.1788 0
M  V30 8 C -1.6605 -1.9353 -0.166 0
M  V30 9 C -0.9351 0.083 1.1914 0
M  V30 10 C -0.8389 0.0962 -1.3853 0
M  V30 11 C 3.7216 1.2355 -1.2624 0
M  V30 12 C 3.7001 1.3058 1.157 0
M  V30 13 O -1.6846 -2.6604 -1.1997 0
M  V30 14 O -2.5183 -2.2222 0.9026 0
M  V30 15 C -2.0623 1.0994 0.977 0
M  V30 16 C -0.66 1.5984 -1.1268 0
M  V30 17 C 4.2 1.7698 -0.0628 0
M  V30 18 C -3.444 -3.3014 0.8765 0
M  V30 19 C -1.7009 2.1233 -0.119 0
M  V30 20 H 2.3789 -0.1649 -2.1801 0
M  V30 21 H 2.3396 -0.0394 2.1305 0
M  V30 22 H -0.0232 0.6547 1.4631 0
M  V30 23 H -1.1605 -0.5562 2.0718 0
M  V30 24 H -0.1247 -0.2285 -2.1712 0
M  V30 25 H -1.855 -0.0346 -1.8222 0
M  V30 26 H 4.1101 1.5942 -2.2067 0
M  V30 27 H 4.0719 1.7189 2.0857 0
M  V30 28 H -2.2669 1.6338 1.93 0
M  V30 29 H -2.9914 0.5596 0.6913 0
M  V30 30 H 0.3619 1.7899 -0.737 0
M  V30 31 H -0.7594 2.1552 -2.0835 0
M  V30 32 H 4.9584 2.5418 -0.0784 0
M  V30 33 H -4.0071 -3.3215 1.8321 0
M  V30 34 H -2.9026 -4.2635 0.757 0
M  V30 35 H -4.1609 -3.1667 0.0389 0
M  V30 36 H -1.2994 3.0457 0.3543 0
M  V30 37 H -2.6285 2.4077 -0.6624 0
M  V30 END ATOM
M  V30 BEGIN BOND
M  V30 1 2 1 2
M  V30 2 2 1 3
M  V30 3 1 1 4
M  V30 4 1 1 5
M  V30 5 2 4 6
M  V30 6 1 4 7
M  V30 7 1 5 8
M  V30 8 1 5 9
M  V30 9 1 5 10
M  V30 10 1 6 11
M  V30 11 2 7 12
M  V30 12 2 8 13
M  V30 13 1 8 14
M  V30 14 1 9 15
M  V30 15 1 10 16
M  V30 16 2 11 17
M  V30 17 1 14 18
M  V30 18 1 15 19
M  V30 19 1 12 17
M  V30 20 1 16 19
M  V30 21 1 6 20
M  V30 22 1 7 21
M  V30 23 1 9 22
M  V30 24 1 9 23
M  V30 25 1 10 24
M  V30 26 1 10 25
M  V30 27 1 11 26
M  V30 28 1 12 27
M  V30 29 1 15 28
M  V30 30 1 15 29
M  V30 31 1 16 30
M  V30 32 1 16 31
M  V30 33 1 17 32
M  V30 34 1 18 33
M  V30 35 1 18 34
M  V30 36 1 18 35
M  V30 37 1 19 36
M  V30 38 1 19 37
M  V30 END BOND
M  V30 END CTAB
M  END
>  <Structure No>
6431

>  <LogS>
-3.85

>  <MMFF94 Energy>
6.8476

$$$$
Compound 6432
Actelion Java MolfileCreator 2.0

  0  0  0  0  0  0              0 V3000
M  V30 BEGIN CTAB
M  V30 COUNTS 61 64 0 0 0
M  V30 BEGIN ATOM
M  V30 1 O -5.7678 3.5715 -0.8108 0
M  V30 2 C -4.9617 2.6146 -0.6674 0
M  V30 3 C -4.0385 2.6095 0.4774 0
M  V30 4 C -4.9827 1.4787 -1.6398 0
M  V30 5 C -3.1873 1.5923 0.7161 0
M  V30 6 C -3.6479 0.7253 -1.6103 0
M  V30 7 C -3.1845 0.328 -0.165 0 CFG=1
M  V30 8 C -2.3513 1.6923 1.9689 0
M  V30 9 C -1.7645 -0.4338 -0.1536 0 CFG=1
M  V30 10 C -4.2518 -0.6337 0.43 0
M  V30 11 C -1.4793 0.4688 2.2083 0
M  V30 12 C -1.0181 -0.5639 -1.5246 0 CFG=2
M  V30 13 C -0.7542 0.0762 0.9157 0 CFG=1
M  V30 14 O -1.6475 -1.4954 -2.3702 0
M  V30 15 C 0.5052 -0.862 -1.4112 0
M  V30 16 C 0.2964 -1.0368 1.1877 0 CFG=1
M  V30 17 C 0.9755 -1.601 -0.1083 0 CFG=2
M  V30 18 C 1.4225 -0.6097 2.1345 0
M  V30 19 C 2.539 -1.4591 0.151 0 CFG=1
M  V30 20 C 0.5908 -3.1062 -0.2355 0
M  V30 21 C 2.6514 -1.3732 1.6764 0
M  V30 22 O 3.2479 -2.6019 -0.2754 0
M  V30 23 C 3.1965 -0.1982 -0.4408 0
M  V30 24 O 2.8282 0.909 -0.0717 0
M  V30 25 C 4.2787 -0.2884 -1.4919 0
M  V30 26 O 4.9117 0.9739 -1.7012 0
M  V30 27 C 5.7954 1.549 -0.7806 0
M  V30 28 O 6.1057 0.9433 0.281 0
M  V30 29 C 6.4128 2.8718 -1.0828 0
M  V30 30 H -4.0574 3.4648 1.1443 0
M  V30 31 H -5.8272 0.7985 -1.4041 0
M  V30 32 H -5.1516 1.8746 -2.6651 0
M  V30 33 H -3.7471 -0.1726 -2.2552 0
M  V30 34 H -2.9108 1.4154 -2.0701 0
M  V30 35 H -1.6958 2.5879 1.8888 0
M  V30 36 H -3.0147 1.8318 2.8508 0
M  V30 37 H -1.983 -1.4847 0.1389 0
M  V30 38 H -5.2253 -0.1264 0.5954 0
M  V30 39 H -4.4169 -1.499 -0.2474 0
M  V30 40 H -3.9335 -1.0302 1.4154 0
M  V30 41 H -2.0905 -0.3772 2.5871 0
M  V30 42 H -0.7486 0.7266 3.0041 0
M  V30 43 H -1.059 0.4136 -2.0413 0
M  V30 44 H -0.231 0.9796 0.5249 0
M  V30 45 H -1.5745 -2.3891 -1.9514 0
M  V30 46 H 0.8535 -1.4155 -2.3109 0
M  V30 47 H 0.9927 0.1278 -1.4827 0
M  V30 48 H -0.2405 -1.8579 1.7199 0
M  V30 49 H 1.1816 -0.8599 3.1912 0
M  V30 50 H 1.6094 0.4835 2.071 0
M  V30 51 H -0.5048 -3.2561 -0.1736 0
M  V30 52 H 0.9349 -3.5349 -1.2004 0
M  V30 53 H 1.0403 -3.6983 0.5905 0
M  V30 54 H 3.5874 -0.8759 2.0163 0
M  V30 55 H 2.6239 -2.3945 2.119 0
M  V30 56 H 3.1069 -2.6936 -1.2539 0
M  V30 57 H 3.8152 -0.6126 -2.4469 0
M  V30 58 H 5.0436 -1.0404 -1.2014 0
M  V30 59 H 5.7781 3.4312 -1.8016 0
M  V30 60 H 7.418 2.7181 -1.5268 0
M  V30 61 H 6.51 3.4686 -0.1512 0
M  V30 END ATOM
M  V30 BEGIN BOND
M  V30 1 2 1 2
M  V30 2 1 2 3
M  V30 3 1 2 4
M  V30 4 2 3 5
M  V30 5 1 4 6
M  V30 6 1 5 7
M  V30 7 1 5 8
M  V30 8 1 7 9
M  V30 9 1 7 10
M  V30 10 1 8 11
M  V30 11 1 9 12
M  V30 12 1 9 13
M  V30 13 1 12 14
M  V30 14 1 12 15
M  V30 15 1 13 16
M  V30 16 1 15 17
M  V30 17 1 16 18
M  V30 18 1 17 19
M  V30 19 1 17 20
M  V30 20 1 18 21
M  V30 21 1 19 22
M  V30 22 1 19 23
M  V30 23 2 23 24
M  V30 24 1 23 25
M  V30 25 1 25 26
M  V30 26 1 26 27
M  V30 27 2 27 28
M  V30 28 1 27 29
M  V30 29 1 6 7
M  V30 30 1 11 13
M  V30 31 1 16 17
M  V30 32 1 19 21
M  V30 33 1 3 30
M  V30 34 1 4 31
M  V30 35 1 4 32
M  V30 36 1 6 33
M  V30 37 1 6 34
M  V30 38 1 8 35
M  V30 39 1 8 36
M  V30 40 1 9 37
M  V30 41 1 10 38
M  V30 42 1 10 39
M  V30 43 1 10 40
M  V30 44 1 11 41
M  V30 45 1 11 42
M  V30 46 1 12 43
M  V30 47 1 13 44
M  V30 48 1 14 45
M  V30 49 1 15 46
M  V30 50 1 15 47
M  V30 51 1 16 48
M  V30 52 1 18 49
M  V30 53 1 18 50
M  V30 54 1 20 51
M  V30 55 1 20 52
M  V30 56 1 20 53
M  V30 57 1 21 54
M  V30 58 1 21 55
M  V30 59 1 22 56
M  V30 60 1 25 57
M  V30 61 1 25 58
M  V30 62 1 29 59
M  V30 63 1 29 60
M  V30 64 1 29 61
M  V30 END BOND
M  V30 BEGIN COLLECTION
M  V30 MDLV30/STEABS ATOMS=(7 7 9 12 13 16 17 19)
M  V30 END COLLECTION
M  V30 END CTAB
M  END
>  <Structure No>
6432

>  <LogS>
-4.61

>  <MMFF94 Energy>
113.88

$$$$
Compound 6433
Actelion Java MolfileCreator 2.0

  0  0  0  0  0  0              0 V3000
M  V30 BEGIN CTAB
M  V30 COUNTS 34 35 0 0 0
M  V30 BEGIN ATOM
M  V30 1 O 0.7135 0.8721 -0.3963 0
M  V30 2 C 1.4683 0.0891 0.2366 0
M  V30 3 O 2.7494 0.5074 0.6167 0
M  V30 4 C 1.0225 -1.2709 0.6063 0
M  V30 5 C 3.297 1.7782 0.2707 0
M  V30 6 N -0.1455 -1.8844 0.2891 0
M  V30 7 C 1.7738 -2.1463 1.362 0
M  V30 8 C 3.7216 1.8007 -1.1931 0
M  V30 9 C -0.0566 -3.108 0.855 0
M  V30 10 C -1.2839 -1.4333 -0.5316 0 CFG=1
M  V30 11 N 1.1 -3.3005 1.5201 0
M  V30 12 C -1.9034 -0.1563 0.0247 0
M  V30 13 C -0.8768 -1.392 -2.0132 0
M  V30 14 C -2.1535 -0.0696 1.4086 0
M  V30 15 C -2.3115 0.9149 -0.8004 0
M  V30 16 C -2.7485 1.0698 1.9572 0
M  V30 17 C -2.9061 2.0522 -0.2449 0
M  V30 18 C -3.1206 2.1317 1.1318 0
M  V30 19 H 2.5598 2.5859 0.4719 0
M  V30 20 H 4.1904 1.9622 0.9039 0
M  V30 21 H 2.7569 -1.9592 1.774 0
M  V30 22 H 4.4526 0.9876 -1.3877 0
M  V30 23 H 2.8408 1.6644 -1.8546 0
M  V30 24 H 4.1966 2.7762 -1.4288 0
M  V30 25 H -0.8279 -3.8642 0.7819 0
M  V30 26 H -2.0884 -2.2004 -0.4662 0
M  V30 27 H -0.3929 -2.3517 -2.2937 0
M  V30 28 H -1.7741 -1.2705 -2.6566 0
M  V30 29 H -0.1638 -0.5702 -2.2219 0
M  V30 30 H -1.886 -0.8868 2.067 0
M  V30 31 H -2.1687 0.8902 -1.8711 0
M  V30 32 H -2.9255 1.1269 3.0235 0
M  V30 33 H -3.2044 2.8728 -0.8848 0
M  V30 34 H -3.5823 3.013 1.5581 0
M  V30 END ATOM
M  V30 BEGIN BOND
M  V30 1 2 1 2
M  V30 2 1 2 3
M  V30 3 1 2 4
M  V30 4 1 3 5
M  V30 5 1 4 6
M  V30 6 2 4 7
M  V30 7 1 5 8
M  V30 8 1 6 9
M  V30 9 1 6 10
M  V30 10 1 7 11
M  V30 11 1 10 12
M  V30 12 1 10 13
M  V30 13 2 12 14
M  V30 14 1 12 15
M  V30 15 1 14 16
M  V30 16 2 15 17
M  V30 17 2 16 18
M  V30 18 2 9 11
M  V30 19 1 17 18
M  V30 20 1 5 19
M  V30 21 1 5 20
M  V30 22 1 7 21
M  V30 23 1 8 22
M  V30 24 1 8 23
M  V30 25 1 8 24
M  V30 26 1 9 25
M  V30 27 1 10 26
M  V30 28 1 13 27
M  V30 29 1 13 28
M  V30 30 1 13 29
M  V30 31 1 14 30
M  V30 32 1 15 31
M  V30 33 1 16 32
M  V30 34 1 17 33
M  V30 35 1 18 34
M  V30 END BOND
M  V30 BEGIN COLLECTION
M  V30 MDLV30/STEABS ATOMS=(1 10)
M  V30 END COLLECTION
M  V30 END CTAB
M  END
>  <Structure No>
6433

>  <LogS>
-4.73

>  <MMFF94 Energy>
13.665

$$$$
Compound 6434
Actelion Java MolfileCreator 2.0

  0  0  0  0  0  0              0 V3000
M  V30 BEGIN CTAB
M  V30 COUNTS 30 31 0 0 0
M  V30 BEGIN ATOM
M  V30 1 O -4.0129 2.4865 -0.8016 0
M  V30 2 C -3.9041 1.4153 -0.1484 0
M  V30 3 O -4.2359 1.4041 1.2019 0 CHG=-1
M  V30 4 C -3.3629 0.1811 -0.819 0 CFG=1
M  V30 5 C -1.8559 0.1094 -0.6706 0
M  V30 6 C -4.0326 -1.0913 -0.2862 0
M  V30 7 C -1.2548 0.059 0.6015 0
M  V30 8 C -1.0391 0.0815 -1.8141 0
M  V30 9 C 0.1405 -0.0132 0.7288 0
M  V30 10 C 0.3509 0.0095 -1.6953 0
M  V30 11 C 0.951 -0.0379 -0.4293 0
M  V30 12 C 0.7404 -0.0617 1.9951 0
M  V30 13 C 2.3473 -0.1104 -0.3019 0
M  V30 14 C 2.1306 -0.1337 2.1121 0
M  V30 15 C 2.9436 -0.1586 0.9733 0
M  V30 16 O 4.3334 -0.2314 1.1515 0
M  V30 17 C 5.2807 -0.2643 0.089 0
M  V30 18 H -3.6274 0.2481 -1.8984 0
M  V30 19 H -3.6452 -1.9789 -0.8307 0
M  V30 20 H -3.8378 -1.2277 0.7988 0
M  V30 21 H -5.131 -1.0378 -0.446 0
M  V30 22 H -1.8737 0.0769 1.4906 0
M  V30 23 H -1.4776 0.1155 -2.8036 0
M  V30 24 H 0.9563 -0.0094 -2.5938 0
M  V30 25 H 0.1353 -0.0438 2.894 0
M  V30 26 H 2.9611 -0.1289 -1.1933 0
M  V30 27 H 2.5809 -0.1704 3.0962 0
M  V30 28 H 5.1103 -1.1585 -0.5469 0
M  V30 29 H 6.3027 -0.322 0.5163 0
M  V30 30 H 5.2024 0.6602 -0.5211 0
M  V30 END ATOM
M  V30 BEGIN BOND
M  V30 1 2 1 2
M  V30 2 1 2 3
M  V30 3 1 2 4
M  V30 4 1 4 5
M  V30 5 1 4 6
M  V30 6 2 5 7
M  V30 7 1 5 8
M  V30 8 1 7 9
M  V30 9 2 8 10
M  V30 10 1 9 11
M  V30 11 2 9 12
M  V30 12 2 11 13
M  V30 13 1 12 14
M  V30 14 1 13 15
M  V30 15 1 15 16
M  V30 16 1 16 17
M  V30 17 1 10 11
M  V30 18 2 14 15
M  V30 19 1 4 18
M  V30 20 1 6 19
M  V30 21 1 6 20
M  V30 22 1 6 21
M  V30 23 1 7 22
M  V30 24 1 8 23
M  V30 25 1 10 24
M  V30 26 1 12 25
M  V30 27 1 13 26
M  V30 28 1 14 27
M  V30 29 1 17 28
M  V30 30 1 17 29
M  V30 31 1 17 30
M  V30 END BOND
M  V30 BEGIN COLLECTION
M  V30 MDLV30/STEABS ATOMS=(1 4)
M  V30 END COLLECTION
M  V30 END CTAB
M  END
>  <Structure No>
6434

>  <LogS>
-3.29

>  <MMFF94 Energy>
69.713

$$$$
Compound 6435
Actelion Java MolfileCreator 2.0

  0  0  0  0  0  0              0 V3000
M  V30 BEGIN CTAB
M  V30 COUNTS 52 56 0 0 0
M  V30 BEGIN ATOM
M  V30 1 O -3.9048 -0.8125 4.2307 0
M  V30 2 N -3.8476 -2.1036 4.4175 0
M  V30 3 C -3.25 -0.4829 3.1458 0
M  V30 4 C -3.117 -2.6282 3.407 0
M  V30 5 C -2.7414 -1.6018 2.5718 0
M  V30 6 C -3.0046 0.8482 2.6006 0
M  V30 7 C -1.8154 -1.5568 1.3989 0
M  V30 8 C -2.3707 0.9524 1.4134 0
M  V30 9 C -2.1057 -0.2844 0.5191 0 CFG=1
M  V30 10 C -1.8966 2.2936 0.931 0
M  V30 11 C -0.9142 0.0339 -0.47 0 CFG=1
M  V30 12 C -3.3921 -0.5395 -0.3029 0
M  V30 13 C -0.3776 2.276 0.6932 0
M  V30 14 C 0.1875 0.8958 0.2371 0 CFG=2
M  V30 15 C -0.3512 -1.2301 -1.2024 0
M  V30 16 C 1.3778 1.0979 -0.7275 0 CFG=2
M  V30 17 C 0.8938 -0.9362 -2.067 0
M  V30 18 C 1.9862 -0.2123 -1.2423 0 CFG=1
M  V30 19 C 2.57 1.9131 -0.2403 0
M  V30 20 C 3.2039 0.337 -2.0527 0 CFG=2
M  V30 21 C 2.4883 -1.1479 -0.0881 0
M  V30 22 C 3.7262 1.4998 -1.1695 0
M  V30 23 O 2.7923 0.8797 -3.2894 0
M  V30 24 C 4.2773 -0.6611 -2.2866 0
M  V30 25 C 5.1493 -1.4713 -2.4786 0
M  V30 26 H -2.8637 -3.6748 3.3057 0
M  V30 27 H -3.2427 1.7207 3.1962 0
M  V30 28 H -0.7772 -1.5234 1.7914 0
M  V30 29 H -1.9403 -2.4912 0.8104 0
M  V30 30 H -2.147 3.1077 1.6468 0
M  V30 31 H -2.4179 2.5259 -0.0226 0
M  V30 32 H -1.3151 0.6795 -1.2859 0
M  V30 33 H -3.6343 0.3377 -0.9407 0
M  V30 34 H -3.2789 -1.4272 -0.9589 0
M  V30 35 H -4.2614 -0.7214 0.3648 0
M  V30 36 H 0.1374 2.5743 1.6329 0
M  V30 37 H -0.1537 3.0664 -0.0565 0
M  V30 38 H 0.5304 0.3703 1.1518 0
M  V30 39 H -0.0948 -2.0366 -0.4902 0
M  V30 40 H -1.1365 -1.6442 -1.8692 0
M  V30 41 H 0.9689 1.6572 -1.6051 0
M  V30 42 H 0.5675 -0.3133 -2.9278 0
M  V30 43 H 1.2959 -1.8878 -2.4772 0
M  V30 44 H 2.3682 3.0039 -0.3161 0
M  V30 45 H 2.8086 1.6615 0.8162 0
M  V30 46 H 1.7038 -1.403 0.6473 0
M  V30 47 H 2.8518 -2.1098 -0.5074 0
M  V30 48 H 3.325 -0.6909 0.4794 0
M  V30 49 H 4.5957 1.1876 -0.5482 0
M  V30 50 H 4.0492 2.361 -1.7952 0
M  V30 51 H 2.6147 0.1318 -3.9189 0
M  V30 52 H 5.9142 -2.1828 -2.6465 0
M  V30 END ATOM
M  V30 BEGIN BOND
M  V30 1 1 1 2
M  V30 2 1 1 3
M  V30 3 2 2 4
M  V30 4 2 3 5
M  V30 5 1 3 6
M  V30 6 1 5 7
M  V30 7 2 6 8
M  V30 8 1 7 9
M  V30 9 1 8 10
M  V30 10 1 9 11
M  V30 11 1 9 12
M  V30 12 1 10 13
M  V30 13 1 11 14
M  V30 14 1 11 15
M  V30 15 1 14 16
M  V30 16 1 15 17
M  V30 17 1 16 18
M  V30 18 1 16 19
M  V30 19 1 18 20
M  V30 20 1 18 21
M  V30 21 1 19 22
M  V30 22 1 20 23
M  V30 23 1 20 24
M  V30 24 3 24 25
M  V30 25 1 4 5
M  V30 26 1 8 9
M  V30 27 1 13 14
M  V30 28 1 17 18
M  V30 29 1 20 22
M  V30 30 1 4 26
M  V30 31 1 6 27
M  V30 32 1 7 28
M  V30 33 1 7 29
M  V30 34 1 10 30
M  V30 35 1 10 31
M  V30 36 1 11 32
M  V30 37 1 12 33
M  V30 38 1 12 34
M  V30 39 1 12 35
M  V30 40 1 13 36
M  V30 41 1 13 37
M  V30 42 1 14 38
M  V30 43 1 15 39
M  V30 44 1 15 40
M  V30 45 1 16 41
M  V30 46 1 17 42
M  V30 47 1 17 43
M  V30 48 1 19 44
M  V30 49 1 19 45
M  V30 50 1 21 46
M  V30 51 1 21 47
M  V30 52 1 21 48
M  V30 53 1 22 49
M  V30 54 1 22 50
M  V30 55 1 23 51
M  V30 56 1 25 52
M  V30 END BOND
M  V30 BEGIN COLLECTION
M  V30 MDLV30/STEABS ATOMS=(6 9 11 14 16 18 20)
M  V30 END COLLECTION
M  V30 END CTAB
M  END
>  <Structure No>
6435

>  <LogS>
-5.51

>  <MMFF94 Energy>
85.131

$$$$
Compound 6436
Actelion Java MolfileCreator 2.0

  0  0  0  0  0  0              0 V3000
M  V30 BEGIN CTAB
M  V30 COUNTS 31 32 0 0 0
M  V30 BEGIN ATOM
M  V30 1 O -4.8291 -2.1352 1.4231 0
M  V30 2 C -3.95 -1.3289 1.0212 0
M  V30 3 N -4.1332 0.0187 1.1417 0
M  V30 4 C -2.7686 -1.7742 0.4475 0
M  V30 5 C -3.1815 0.9117 0.7142 0
M  V30 6 N -2.341 -3.0339 0.2384 0
M  V30 7 C -1.8444 -0.8803 0.0283 0
M  V30 8 N -2.0164 0.4603 0.1507 0
M  V30 9 N -3.4107 2.3126 0.8619 0
M  V30 10 C -1.1167 -2.8442 -0.3275 0
M  V30 11 N -0.7904 -1.5348 -0.4758 0
M  V30 12 C 0.4588 -0.9793 -0.9834 0
M  V30 13 O 1.2118 -0.4743 0.0995 0
M  V30 14 C 2.3495 0.235 -0.362 0
M  V30 15 C 2.0489 1.7409 -0.336 0
M  V30 16 C 3.5335 -0.0965 0.5584 0
M  V30 17 O 3.1333 2.4603 -0.8555 0
M  V30 18 O 3.7896 -1.4749 0.5473 0
M  V30 19 H -1.2825 1.1285 -0.1739 0
M  V30 20 H -4.297 2.6592 1.2916 0
M  V30 21 H -2.6976 3.0057 0.5438 0
M  V30 22 H -0.4683 -3.6599 -0.6201 0
M  V30 23 H 0.2179 -0.1784 -1.7191 0
M  V30 24 H 1.0319 -1.7789 -1.5051 0
M  V30 25 H 2.6521 -0.0468 -1.401 0
M  V30 26 H 1.1459 1.946 -0.9524 0
M  V30 27 H 1.8404 2.0673 0.7079 0
M  V30 28 H 3.2943 0.2077 1.6001 0
M  V30 29 H 4.4446 0.4609 0.2421 0
M  V30 30 H 2.8807 3.4184 -0.7987 0
M  V30 31 H 4.237 -1.674 -0.3161 0
M  V30 END ATOM
M  V30 BEGIN BOND
M  V30 1 2 1 2
M  V30 2 1 2 3
M  V30 3 1 2 4
M  V30 4 2 3 5
M  V30 5 1 4 6
M  V30 6 2 4 7
M  V30 7 1 5 8
M  V30 8 1 5 9
M  V30 9 2 6 10
M  V30 10 1 7 11
M  V30 11 1 11 12
M  V30 12 1 12 13
M  V30 13 1 13 14
M  V30 14 1 14 15
M  V30 15 1 14 16
M  V30 16 1 15 17
M  V30 17 1 16 18
M  V30 18 1 7 8
M  V30 19 1 10 11
M  V30 20 1 8 19
M  V30 21 1 9 20
M  V30 22 1 9 21
M  V30 23 1 10 22
M  V30 24 1 12 23
M  V30 25 1 12 24
M  V30 26 1 14 25
M  V30 27 1 15 26
M  V30 28 1 15 27
M  V30 29 1 16 28
M  V30 30 1 16 29
M  V30 31 1 17 30
M  V30 32 1 18 31
M  V30 END BOND
M  V30 END CTAB
M  END
>  <Structure No>
6436

>  <LogS>
-1.77

>  <MMFF94 Energy>
24.412

$$$$
Compound 6437
Actelion Java MolfileCreator 2.0

  0  0  0  0  0  0              0 V3000
M  V30 BEGIN CTAB
M  V30 COUNTS 29 31 0 0 0
M  V30 BEGIN ATOM
M  V30 1 O 1.1223 2.0851 1.6037 0
M  V30 2 C 0.9406 0.9909 1.0024 0
M  V30 3 N -0.3058 0.6318 0.5938 0
M  V30 4 C 2.0127 0.1155 0.7395 0
M  V30 5 C -0.5404 -0.5128 -0.0535 0
M  V30 6 C -1.5451 1.369 0.7491 0
M  V30 7 C 1.7332 -1.0969 0.0549 0
M  V30 8 C 3.3327 0.4023 1.1283 0
M  V30 9 N 0.4595 -1.3868 -0.3313 0
M  V30 10 C -1.9632 -0.6662 -0.4241 0 CFG=1
M  V30 11 N -2.6217 0.453 0.3071 0
M  V30 12 C 2.7703 -1.9932 -0.2259 0
M  V30 13 C 4.3587 -0.5035 0.8409 0
M  V30 14 C -2.1008 -0.6216 -1.9577 0
M  V30 15 C -3.7134 1.1528 -0.3874 0
M  V30 16 C 4.0787 -1.6961 0.1667 0
M  V30 17 H -1.5004 2.2936 0.1299 0
M  V30 18 H -1.6998 1.6368 1.8162 0
M  V30 19 H 3.5725 1.32 1.6515 0
M  V30 20 H -2.3483 -1.6346 -0.0398 0
M  V30 21 H 2.565 -2.9193 -0.7483 0
M  V30 22 H 5.3743 -0.2806 1.1416 0
M  V30 23 H -1.5154 -1.449 -2.4127 0
M  V30 24 H -3.1593 -0.7619 -2.2599 0
M  V30 25 H -1.7202 0.3403 -2.3638 0
M  V30 26 H -4.5021 0.4285 -0.6807 0
M  V30 27 H -3.3469 1.6963 -1.2848 0
M  V30 28 H -4.1784 1.8893 0.3019 0
M  V30 29 H 4.8782 -2.3919 -0.0522 0
M  V30 END ATOM
M  V30 BEGIN BOND
M  V30 1 2 1 2
M  V30 2 1 2 3
M  V30 3 1 2 4
M  V30 4 1 3 5
M  V30 5 1 3 6
M  V30 6 2 4 7
M  V30 7 1 4 8
M  V30 8 2 5 9
M  V30 9 1 5 10
M  V30 10 1 6 11
M  V30 11 1 7 12
M  V30 12 2 8 13
M  V30 13 1 10 14
M  V30 14 1 11 15
M  V30 15 2 12 16
M  V30 16 1 7 9
M  V30 17 1 10 11
M  V30 18 1 13 16
M  V30 19 1 6 17
M  V30 20 1 6 18
M  V30 21 1 8 19
M  V30 22 1 10 20
M  V30 23 1 12 21
M  V30 24 1 13 22
M  V30 25 1 14 23
M  V30 26 1 14 24
M  V30 27 1 14 25
M  V30 28 1 15 26
M  V30 29 1 15 27
M  V30 30 1 15 28
M  V30 31 1 16 29
M  V30 END BOND
M  V30 BEGIN COLLECTION
M  V30 MDLV30/STEABS ATOMS=(1 10)
M  V30 END COLLECTION
M  V30 END CTAB
M  END
>  <Structure No>
6437

>  <LogS>
0.03

>  <MMFF94 Energy>
0.53334

$$$$
Compound 6438
Actelion Java MolfileCreator 2.0

  0  0  0  0  0  0              0 V3000
M  V30 BEGIN CTAB
M  V30 COUNTS 22 23 0 0 0
M  V30 BEGIN ATOM
M  V30 1 Cl -0.5925 2.1175 -1.9479 0
M  V30 2 C -1.4211 1.0291 -0.8383 0
M  V30 3 C -0.7224 0.0698 -0.071 0
M  V30 4 C -2.8184 1.0964 -0.7661 0
M  V30 5 C 0.7542 -0.0284 -0.1042 0
M  V30 6 C -1.4486 -0.8167 0.7429 0
M  V30 7 C -3.5273 0.2166 0.0569 0
M  V30 8 C 1.3733 -1.246 -0.433 0
M  V30 9 C 1.5518 1.0796 0.2291 0
M  V30 10 C -2.8421 -0.7409 0.8079 0
M  V30 11 Cl -5.2773 0.3086 0.1389 0
M  V30 12 C 2.7679 -1.3468 -0.4488 0
M  V30 13 C 2.946 0.9757 0.2126 0
M  V30 14 C 3.5552 -0.2361 -0.128 0
M  V30 15 Cl 5.3044 -0.3647 -0.1473 0
M  V30 16 H -3.3547 1.8278 -1.3576 0
M  V30 17 H -0.9334 -1.5603 1.339 0
M  V30 18 H 0.7763 -2.1139 -0.6857 0
M  V30 19 H 1.0943 2.02 0.5114 0
M  V30 20 H -3.3875 -1.4264 1.444 0
M  V30 21 H 3.2347 -2.288 -0.7096 0
M  V30 22 H 3.551 1.8361 0.4691 0
M  V30 END ATOM
M  V30 BEGIN BOND
M  V30 1 1 1 2
M  V30 2 2 2 3
M  V30 3 1 2 4
M  V30 4 1 3 5
M  V30 5 1 3 6
M  V30 6 2 4 7
M  V30 7 2 5 8
M  V30 8 1 5 9
M  V30 9 2 6 10
M  V30 10 1 7 11
M  V30 11 1 8 12
M  V30 12 2 9 13
M  V30 13 2 12 14
M  V30 14 1 14 15
M  V30 15 1 7 10
M  V30 16 1 13 14
M  V30 17 1 4 16
M  V30 18 1 6 17
M  V30 19 1 8 18
M  V30 20 1 9 19
M  V30 21 1 10 20
M  V30 22 1 12 21
M  V30 23 1 13 22
M  V30 END BOND
M  V30 END CTAB
M  END
>  <Structure No>
6438

>  <LogS>
-6.0

>  <MMFF94 Energy>
36.405

$$$$
Compound 6439
Actelion Java MolfileCreator 2.0

  0  0  0  0  0  0              0 V3000
M  V30 BEGIN CTAB
M  V30 COUNTS 30 30 0 0 0
M  V30 BEGIN ATOM
M  V30 1 Cl 6.8771 1.0748 0.9094 0
M  V30 2 C 5.2269 0.5293 0.6726 0
M  V30 3 C 4.8286 0.0201 -0.5679 0
M  V30 4 C 4.3059 0.6068 1.7231 0
M  V30 5 C 3.5129 -0.4139 -0.7578 0
M  V30 6 C 2.9898 0.1733 1.5348 0
M  V30 7 C 2.5894 -0.3454 0.2951 0
M  V30 8 S 0.9282 -0.8735 0.052 0
M  V30 9 O 0.8914 -1.9754 -0.9699 0
M  V30 10 O 0.3692 -1.3966 1.346 0
M  V30 11 C -0.0457 0.5076 -0.5132 0
M  V30 12 C -1.4634 0.0876 -0.7171 0
M  V30 13 O -1.847 -0.289 -1.8579 0
M  V30 14 O -2.3363 0.0667 0.3765 0
M  V30 15 C -3.7097 -0.3113 0.2824 0
M  V30 16 C -4.2321 -0.6269 1.6824 0
M  V30 17 C -4.5269 0.8172 -0.3527 0
M  V30 18 H 5.5361 -0.0375 -1.3852 0
M  V30 19 H 4.6077 1.0045 2.6838 0
M  V30 20 H 3.2149 -0.799 -1.7245 0
M  V30 21 H 2.2844 0.2451 2.353 0
M  V30 22 H 0.3805 0.8919 -1.4642 0
M  V30 23 H -0.0035 1.318 0.2444 0
M  V30 24 H -3.8058 -1.2303 -0.3374 0
M  V30 25 H -3.6343 -1.4501 2.128 0
M  V30 26 H -5.2942 -0.9493 1.6349 0
M  V30 27 H -4.1512 0.2665 2.3383 0
M  V30 28 H -4.17 1.0148 -1.3848 0
M  V30 29 H -5.5995 0.5328 -0.4054 0
M  V30 30 H -4.4268 1.7498 0.2426 0
M  V30 END ATOM
M  V30 BEGIN BOND
M  V30 1 1 1 2
M  V30 2 2 2 3
M  V30 3 1 2 4
M  V30 4 1 3 5
M  V30 5 2 4 6
M  V30 6 2 5 7
M  V30 7 1 7 8
M  V30 8 2 8 9
M  V30 9 2 8 10
M  V30 10 1 8 11
M  V30 11 1 11 12
M  V30 12 2 12 13
M  V30 13 1 12 14
M  V30 14 1 14 15
M  V30 15 1 15 16
M  V30 16 1 15 17
M  V30 17 1 6 7
M  V30 18 1 3 18
M  V30 19 1 4 19
M  V30 20 1 5 20
M  V30 21 1 6 21
M  V30 22 1 11 22
M  V30 23 1 11 23
M  V30 24 1 15 24
M  V30 25 1 16 25
M  V30 26 1 16 26
M  V30 27 1 16 27
M  V30 28 1 17 28
M  V30 29 1 17 29
M  V30 30 1 17 30
M  V30 END BOND
M  V30 END CTAB
M  END
>  <Structure No>
6439

>  <LogS>
-2.41

>  <MMFF94 Energy>
-2.3306

$$$$
Compound 6440
Actelion Java MolfileCreator 2.0

  0  0  0  0  0  0              0 V3000
M  V30 BEGIN CTAB
M  V30 COUNTS 32 33 0 0 0
M  V30 BEGIN ATOM
M  V30 1 O 0.1601 1.5224 -1.5224 0
M  V30 2 C 1.2022 1.0817 -0.9638 0
M  V30 3 N 1.1186 0.127 0.0207 0
M  V30 4 N 2.4144 1.5598 -1.3561 0
M  V30 5 C 2.2647 -0.358 0.5871 0
M  V30 6 C -0.1815 -0.4276 0.4526 0 CFG=1
M  V30 7 C 3.5667 1.1055 -0.7988 0
M  V30 8 C 3.5182 0.13 0.2033 0
M  V30 9 O -1.101 0.6132 0.7018 0
M  V30 10 C -0.7567 -1.3741 -0.6023 0
M  V30 11 O 4.6738 1.564 -1.1921 0
M  V30 12 C 4.7761 -0.4184 0.8181 0
M  V30 13 C -2.3617 0.1514 0.2808 0 CFG=2
M  V30 14 C -2.1293 -0.8181 -0.8852 0 CFG=2
M  V30 15 C -3.2255 1.3557 -0.122 0
M  V30 16 N -3.1142 -1.8998 -0.9893 0 CHG=-1
M  V30 17 O -4.5055 0.9463 -0.5208 0
M  V30 18 N -4.1726 -2.0387 -0.1501 0 CHG=1
M  V30 19 N -5.0462 -2.1568 0.5411 0
M  V30 20 H 2.4605 2.2869 -2.1065 0
M  V30 21 H 2.2121 -1.1316 1.3451 0
M  V30 22 H -0.0631 -0.9925 1.4066 0
M  V30 23 H -0.1443 -1.3987 -1.531 0
M  V30 24 H -0.8122 -2.4065 -0.1891 0
M  V30 25 H 5.3008 -1.0589 0.0787 0
M  V30 26 H 4.5546 -1.0252 1.7218 0
M  V30 27 H 5.4466 0.4138 1.1201 0
M  V30 28 H -2.837 -0.3623 1.146 0
M  V30 29 H -2.101 -0.2637 -1.8499 0
M  V30 30 H -2.7454 1.8996 -0.9635 0
M  V30 31 H -3.298 2.0674 0.7323 0
M  V30 32 H -5.0182 0.7689 0.3105 0
M  V30 END ATOM
M  V30 BEGIN BOND
M  V30 1 2 1 2
M  V30 2 1 2 3
M  V30 3 1 2 4
M  V30 4 1 3 5
M  V30 5 1 3 6
M  V30 6 1 4 7
M  V30 7 2 5 8
M  V30 8 1 6 9
M  V30 9 1 6 10
M  V30 10 2 7 11
M  V30 11 1 8 12
M  V30 12 1 9 13
M  V30 13 1 10 14
M  V30 14 1 13 15
M  V30 15 1 14 16
M  V30 16 1 15 17
M  V30 17 1 16 18
M  V30 18 3 18 19
M  V30 19 1 7 8
M  V30 20 1 13 14
M  V30 21 1 4 20
M  V30 22 1 5 21
M  V30 23 1 6 22
M  V30 24 1 10 23
M  V30 25 1 10 24
M  V30 26 1 12 25
M  V30 27 1 12 26
M  V30 28 1 12 27
M  V30 29 1 13 28
M  V30 30 1 14 29
M  V30 31 1 15 30
M  V30 32 1 15 31
M  V30 33 1 17 32
M  V30 END BOND
M  V30 BEGIN COLLECTION
M  V30 MDLV30/STEABS ATOMS=(3 6 13 14)
M  V30 END COLLECTION
M  V30 END CTAB
M  END
>  <Structure No>
6440

>  <LogS>
-1.16

>  <MMFF94 Energy>
-48.786

$$$$
Compound 6441
Actelion Java MolfileCreator 2.0

  0  0  0  0  0  0              0 V3000
M  V30 BEGIN CTAB
M  V30 COUNTS 40 41 0 0 0
M  V30 BEGIN ATOM
M  V30 1 S 0.1626 0.5694 -0.9763 0
M  V30 2 O -0.423 1.874 -0.5118 0
M  V30 3 O -0.008 0.4817 -2.4674 0
M  V30 4 C 1.8859 0.542 -0.5913 0
M  V30 5 C -0.7344 -0.7861 -0.2012 0
M  V30 6 C 2.3712 1.2317 0.5285 0
M  V30 7 C 2.7821 -0.158 -1.411 0
M  V30 8 C -2.2023 -0.7251 -0.5347 0
M  V30 9 C -0.0935 -2.1595 -0.4376 0
M  V30 10 C -0.4517 -0.9247 1.2997 0
M  V30 11 C 3.7341 1.2048 0.8375 0
M  V30 12 C 4.1453 -0.1857 -1.103 0
M  V30 13 O -2.6375 -1.2997 -1.5705 0
M  V30 14 O -3.0577 0.0432 0.2641 0
M  V30 15 C 0.2258 -2.2654 1.0478 0
M  V30 16 C 4.6274 0.4814 0.0332 0
M  V30 17 C -4.4334 0.2683 -0.0417 0
M  V30 18 C 6.095 0.4839 0.3425 0
M  V30 19 C -5.144 0.7639 1.2159 0
M  V30 20 C -4.5608 1.2963 -1.1694 0
M  V30 21 H 1.696 1.7914 1.1633 0
M  V30 22 H 2.4276 -0.6819 -2.2892 0
M  V30 23 H 0.8211 -2.139 -1.065 0
M  V30 24 H -0.8109 -2.9484 -0.7548 0
M  V30 25 H 0.2489 -0.1683 1.7091 0
M  V30 26 H -1.3638 -1.0433 1.9257 0
M  V30 27 H 4.0923 1.7474 1.7037 0
M  V30 28 H 4.8242 -0.7271 -1.75 0
M  V30 29 H 1.3191 -2.2316 1.2493 0
M  V30 30 H -0.3005 -3.1117 1.541 0
M  V30 31 H -4.9112 -0.6862 -0.3559 0
M  V30 32 H 6.2645 0.5725 1.4369 0
M  V30 33 H 6.5786 1.3417 -0.1695 0
M  V30 34 H 6.5696 -0.459 -0.0028 0
M  V30 35 H -6.2242 0.9247 1.0114 0
M  V30 36 H -4.6935 1.7171 1.567 0
M  V30 37 H -5.048 0.0068 2.0229 0
M  V30 38 H -4.0779 0.9145 -2.0929 0
M  V30 39 H -4.0692 2.25 -0.8805 0
M  V30 40 H -5.6312 1.4917 -1.3931 0
M  V30 END ATOM
M  V30 BEGIN BOND
M  V30 1 2 1 2
M  V30 2 2 1 3
M  V30 3 1 1 4
M  V30 4 1 1 5
M  V30 5 2 4 6
M  V30 6 1 4 7
M  V30 7 1 5 8
M  V30 8 1 5 9
M  V30 9 1 5 10
M  V30 10 1 6 11
M  V30 11 2 7 12
M  V30 12 2 8 13
M  V30 13 1 8 14
M  V30 14 1 9 15
M  V30 15 2 11 16
M  V30 16 1 14 17
M  V30 17 1 16 18
M  V30 18 1 17 19
M  V30 19 1 17 20
M  V30 20 1 10 15
M  V30 21 1 12 16
M  V30 22 1 6 21
M  V30 23 1 7 22
M  V30 24 1 9 23
M  V30 25 1 9 24
M  V30 26 1 10 25
M  V30 27 1 10 26
M  V30 28 1 11 27
M  V30 29 1 12 28
M  V30 30 1 15 29
M  V30 31 1 15 30
M  V30 32 1 17 31
M  V30 33 1 18 32
M  V30 34 1 18 33
M  V30 35 1 18 34
M  V30 36 1 19 35
M  V30 37 1 19 36
M  V30 38 1 19 37
M  V30 39 1 20 38
M  V30 40 1 20 39
M  V30 41 1 20 40
M  V30 END BOND
M  V30 END CTAB
M  END
>  <Structure No>
6441

>  <LogS>
-3.34

>  <MMFF94 Energy>
5.6698

$$$$
Compound 6442
Actelion Java MolfileCreator 2.0

  0  0  0  0  0  0              0 V3000
M  V30 BEGIN CTAB
M  V30 COUNTS 59 62 0 0 0
M  V30 BEGIN ATOM
M  V30 1 O -6.666 -0.6488 -1.7851 0
M  V30 2 C -5.5246 -0.3302 -1.3604 0
M  V30 3 C -4.3167 -0.7793 -2.0624 0
M  V30 4 C -5.3788 0.4102 -0.102 0
M  V30 5 C -3.1121 -0.3256 -1.6765 0
M  V30 6 C -4.1762 0.8625 0.2682 0
M  V30 7 C -2.984 0.8457 -0.6898 0 CFG=1
M  V30 8 C -1.8668 -1.0708 -2.0756 0
M  V30 9 C -1.6456 0.7072 0.148 0 CFG=2
M  V30 10 C -3.0644 2.1712 -1.4849 0
M  V30 11 C -1.1776 -1.6528 -0.8265 0
M  V30 12 C -0.3883 1.4303 -0.4473 0 CFG=1
M  V30 13 C -1.3626 -0.7875 0.4614 0 CFG=1
M  V30 14 O -0.3257 2.7397 0.064 0
M  V30 15 C 0.9571 0.7035 -0.1899 0
M  V30 16 C -0.2182 -0.8832 1.5073 0 CFG=2
M  V30 17 C 1.0627 -0.0424 1.1797 0 CFG=1
M  V30 18 C 0.2367 -2.3091 1.8472 0
M  V30 19 C 2.2322 -1.1026 1.2059 0 CFG=1
M  V30 20 C 1.2502 1.0291 2.2947 0
M  V30 21 C 1.7113 -2.1794 2.1752 0
M  V30 22 O 2.3713 -1.7141 -0.0593 0
M  V30 23 C 3.5898 -0.5278 1.646 0
M  V30 24 O 3.9847 -0.7154 2.7881 0
M  V30 25 C 4.4505 0.3259 0.7454 0
M  V30 26 O 4.0187 0.2685 -0.6094 0
M  V30 27 C 4.6098 1.0208 -1.6266 0
M  V30 28 O 5.6065 1.7561 -1.3893 0
M  V30 29 C 4.0808 0.9133 -3.0161 0
M  V30 30 H -4.4034 -1.5794 -2.7878 0
M  V30 31 H -6.2364 0.5582 0.5424 0
M  V30 32 H -4.1032 1.4076 1.202 0
M  V30 33 H -2.0873 -1.895 -2.7895 0
M  V30 34 H -1.18 -0.3778 -2.6015 0
M  V30 35 H -1.8202 1.1958 1.1348 0
M  V30 36 H -2.3779 2.1776 -2.3557 0
M  V30 37 H -4.0858 2.3207 -1.8993 0
M  V30 38 H -2.8348 3.0371 -0.8279 0
M  V30 39 H -1.6135 -2.6576 -0.6325 0
M  V30 40 H -0.1093 -1.8247 -1.0604 0
M  V30 41 H -0.48 1.4869 -1.5517 0
M  V30 42 H -2.2734 -1.1841 0.9679 0
M  V30 43 H 0.2267 3.2752 -0.5638 0
M  V30 44 H 1.7839 1.4403 -0.2794 0
M  V30 45 H 1.1168 0.0101 -1.037 0
M  V30 46 H -0.667 -0.499 2.4544 0
M  V30 47 H -0.3273 -2.7229 2.7121 0
M  V30 48 H 0.1237 -3.0071 0.993 0
M  V30 49 H 1.4155 0.5513 3.2837 0
M  V30 50 H 0.3501 1.6735 2.3803 0
M  V30 51 H 2.114 1.6923 2.0792 0
M  V30 52 H 1.8108 -1.8539 3.2347 0
M  V30 53 H 2.2377 -3.1514 2.053 0
M  V30 54 H 3.1036 -2.3836 -0.0018 0
M  V30 55 H 5.5 -0.0359 0.803 0
M  V30 56 H 4.416 1.3765 1.1061 0
M  V30 57 H 4.6124 0.0999 -3.5516 0
M  V30 58 H 4.2304 1.8705 -3.5589 0
M  V30 59 H 2.9948 0.6834 -2.9884 0
M  V30 END ATOM
M  V30 BEGIN BOND
M  V30 1 2 1 2
M  V30 2 1 2 3
M  V30 3 1 2 4
M  V30 4 2 3 5
M  V30 5 2 4 6
M  V30 6 1 5 7
M  V30 7 1 5 8
M  V30 8 1 7 9
M  V30 9 1 7 10
M  V30 10 1 8 11
M  V30 11 1 9 12
M  V30 12 1 9 13
M  V30 13 1 12 14
M  V30 14 1 12 15
M  V30 15 1 13 16
M  V30 16 1 15 17
M  V30 17 1 16 18
M  V30 18 1 17 19
M  V30 19 1 17 20
M  V30 20 1 18 21
M  V30 21 1 19 22
M  V30 22 1 19 23
M  V30 23 2 23 24
M  V30 24 1 23 25
M  V30 25 1 25 26
M  V30 26 1 26 27
M  V30 27 2 27 28
M  V30 28 1 27 29
M  V30 29 1 6 7
M  V30 30 1 11 13
M  V30 31 1 16 17
M  V30 32 1 19 21
M  V30 33 1 3 30
M  V30 34 1 4 31
M  V30 35 1 6 32
M  V30 36 1 8 33
M  V30 37 1 8 34
M  V30 38 1 9 35
M  V30 39 1 10 36
M  V30 40 1 10 37
M  V30 41 1 10 38
M  V30 42 1 11 39
M  V30 43 1 11 40
M  V30 44 1 12 41
M  V30 45 1 13 42
M  V30 46 1 14 43
M  V30 47 1 15 44
M  V30 48 1 15 45
M  V30 49 1 16 46
M  V30 50 1 18 47
M  V30 51 1 18 48
M  V30 52 1 20 49
M  V30 53 1 20 50
M  V30 54 1 20 51
M  V30 55 1 21 52
M  V30 56 1 21 53
M  V30 57 1 22 54
M  V30 58 1 25 55
M  V30 59 1 25 56
M  V30 60 1 29 57
M  V30 61 1 29 58
M  V30 62 1 29 59
M  V30 END BOND
M  V30 BEGIN COLLECTION
M  V30 MDLV30/STEABS ATOMS=(7 7 9 12 13 16 17 19)
M  V30 END COLLECTION
M  V30 END CTAB
M  END
>  <Structure No>
6442

>  <LogS>
-4.38

>  <MMFF94 Energy>
120.62

$$$$
Compound 6443
Actelion Java MolfileCreator 2.0

  0  0  0  0  0  0              0 V3000
M  V30 BEGIN CTAB
M  V30 COUNTS 26 27 0 0 0
M  V30 BEGIN ATOM
M  V30 1 O -3.0197 1.713 -0.6523 0
M  V30 2 N -2.0064 1.5754 -1.3665 0 CHG=1
M  V30 3 O -1.9935 2.1515 -2.616 0 CHG=-1
M  V30 4 C -0.7975 1.0301 -0.8146 0
M  V30 5 C -0.8163 -0.0691 0.068 0
M  V30 6 C 0.4348 1.6 -1.1679 0
M  V30 7 N -2.0283 -0.7537 0.3901 0
M  V30 8 C 0.3806 -0.5462 0.6105 0
M  V30 9 C 1.6425 1.1124 -0.6437 0
M  V30 10 C -3.4982 -1.0099 0.3056 0
M  V30 11 C -2.7488 -1.858 1.0908 0
M  V30 12 C 1.6134 0.0384 0.2796 0
M  V30 13 N 2.8795 1.6931 -1.0924 0 CHG=1
M  V30 14 C 2.8363 -0.4447 0.9621 0
M  V30 15 O 3.8629 0.9668 -1.3444 0
M  V30 16 O 2.9257 3.0202 -1.453 0 CHG=-1
M  V30 17 O 3.7035 0.3798 1.3578 0
M  V30 18 N 3.0365 -1.8384 1.2055 0
M  V30 19 H 0.455 2.4282 -1.8652 0
M  V30 20 H 0.341 -1.3693 1.314 0
M  V30 21 H -4.0813 -0.2322 0.8423 0
M  V30 22 H -3.7851 -1.3833 -0.6998 0
M  V30 23 H -2.7779 -1.6841 2.1871 0
M  V30 24 H -2.4895 -2.8453 0.6541 0
M  V30 25 H 2.3753 -2.5528 0.8282 0
M  V30 26 H 3.8816 -2.1637 1.7251 0
M  V30 END ATOM
M  V30 BEGIN BOND
M  V30 1 2 1 2
M  V30 2 1 2 3
M  V30 3 1 2 4
M  V30 4 2 4 5
M  V30 5 1 4 6
M  V30 6 1 5 7
M  V30 7 1 5 8
M  V30 8 2 6 9
M  V30 9 1 7 10
M  V30 10 1 7 11
M  V30 11 2 8 12
M  V30 12 1 9 13
M  V30 13 1 12 14
M  V30 14 2 13 15
M  V30 15 1 13 16
M  V30 16 2 14 17
M  V30 17 1 14 18
M  V30 18 1 9 12
M  V30 19 1 10 11
M  V30 20 1 6 19
M  V30 21 1 8 20
M  V30 22 1 10 21
M  V30 23 1 10 22
M  V30 24 1 11 23
M  V30 25 1 11 24
M  V30 26 1 18 25
M  V30 27 1 18 26
M  V30 END BOND
M  V30 END CTAB
M  END
>  <Structure No>
6443

>  <LogS>
-2.3

>  <MMFF94 Energy>
52.223

$$$$
Compound 6444
Actelion Java MolfileCreator 2.0

  0  0  0  0  0  0              0 V3000
M  V30 BEGIN CTAB
M  V30 COUNTS 22 23 0 0 0
M  V30 BEGIN ATOM
M  V30 1 Cl 0.5926 -2.7113 -0.6773 0
M  V30 2 C 1.4343 -1.2184 -0.2707 0
M  V30 3 C 0.7332 -0.0245 0.0057 0
M  V30 4 C 2.8312 -1.2428 -0.1969 0
M  V30 5 C 1.4577 1.1357 0.3552 0
M  V30 6 C -0.7428 0.0102 -0.0696 0
M  V30 7 C 3.5399 -0.0906 0.1494 0
M  V30 8 Cl 0.6499 2.6675 0.6773 0
M  V30 9 C 2.8544 1.0944 0.4243 0
M  V30 10 C -1.391 -0.1128 -1.309 0
M  V30 11 C -1.5073 0.1667 1.0977 0
M  V30 12 Cl 5.2912 -0.1319 0.239 0
M  V30 13 C -2.7872 -0.0799 -1.3782 0
M  V30 14 C -2.9033 0.1996 1.0243 0
M  V30 15 C -3.5429 0.0763 -0.2125 0
M  V30 16 H 3.3666 -2.1607 -0.4047 0
M  V30 17 H 3.4084 1.9867 0.688 0
M  V30 18 H -0.8149 -0.2308 -2.2185 0
M  V30 19 H -1.022 0.2599 2.0616 0
M  V30 20 H -3.2834 -0.1746 -2.3353 0
M  V30 21 H -3.4894 0.3199 1.9262 0
M  V30 22 H -4.6235 0.1017 -0.2676 0
M  V30 END ATOM
M  V30 BEGIN BOND
M  V30 1 1 1 2
M  V30 2 2 2 3
M  V30 3 1 2 4
M  V30 4 1 3 5
M  V30 5 1 3 6
M  V30 6 2 4 7
M  V30 7 1 5 8
M  V30 8 2 5 9
M  V30 9 2 6 10
M  V30 10 1 6 11
M  V30 11 1 7 12
M  V30 12 1 10 13
M  V30 13 2 11 14
M  V30 14 2 13 15
M  V30 15 1 7 9
M  V30 16 1 14 15
M  V30 17 1 4 16
M  V30 18 1 9 17
M  V30 19 1 10 18
M  V30 20 1 11 19
M  V30 21 1 13 20
M  V30 22 1 14 21
M  V30 23 1 15 22
M  V30 END BOND
M  V30 END CTAB
M  END
>  <Structure No>
6444

>  <LogS>
-6.06

>  <MMFF94 Energy>
31.438

$$$$
Compound 6445
Actelion Java MolfileCreator 2.0

  0  0  0  0  0  0              0 V3000
M  V30 BEGIN CTAB
M  V30 COUNTS 23 24 0 0 0
M  V30 BEGIN ATOM
M  V30 1 S 3.3924 -1.3038 0.5213 0
M  V30 2 O 3.1766 -2.7768 0.3182 0
M  V30 3 O 4.1399 -1.0916 1.8077 0
M  V30 4 N 4.3191 -0.6628 -0.7893 0
M  V30 5 C 1.8405 -0.4917 0.6021 0
M  V30 6 S 1.3602 0.5587 1.8235 0
M  V30 7 C 0.8165 -0.623 -0.3249 0
M  V30 8 C -0.1624 0.8616 1.1802 0
M  V30 9 C -0.3149 0.1435 -0.0063 0
M  V30 10 S -1.3435 2.0128 1.8848 0
M  V30 11 C -1.6073 0.0329 -0.7754 0 CFG=1
M  V30 12 C -2.7984 1.1836 1.1666 0
M  V30 13 O -2.1349 -1.2535 -0.5795 0
M  V30 14 C -2.6465 1.0923 -0.3557 0
M  V30 15 H 3.757 -0.8039 -1.6584 0
M  V30 16 H 4.387 0.3687 -0.639 0
M  V30 17 H 0.8762 -1.272 -1.189 0
M  V30 18 H -1.3741 0.1802 -1.8558 0
M  V30 19 H -3.6968 1.7896 1.4086 0
M  V30 20 H -2.927 0.1755 1.6162 0
M  V30 21 H -2.7684 -1.4223 -1.3254 0
M  V30 22 H -2.3502 2.0854 -0.7597 0
M  V30 23 H -3.6312 0.8376 -0.8047 0
M  V30 END ATOM
M  V30 BEGIN BOND
M  V30 1 2 1 2
M  V30 2 2 1 3
M  V30 3 1 1 4
M  V30 4 1 1 5
M  V30 5 1 5 6
M  V30 6 2 5 7
M  V30 7 1 6 8
M  V30 8 1 7 9
M  V30 9 1 8 10
M  V30 10 1 9 11
M  V30 11 1 10 12
M  V30 12 1 11 13
M  V30 13 1 11 14
M  V30 14 2 8 9
M  V30 15 1 12 14
M  V30 16 1 4 15
M  V30 17 1 4 16
M  V30 18 1 7 17
M  V30 19 1 11 18
M  V30 20 1 12 19
M  V30 21 1 12 20
M  V30 22 1 13 21
M  V30 23 1 14 22
M  V30 24 1 14 23
M  V30 END BOND
M  V30 BEGIN COLLECTION
M  V30 MDLV30/STEABS ATOMS=(1 11)
M  V30 END COLLECTION
M  V30 END CTAB
M  END
>  <Structure No>
6445

>  <LogS>
-2.59

>  <MMFF94 Energy>
-73.792

$$$$
Compound 6446
Actelion Java MolfileCreator 2.0

  0  0  0  0  0  0              0 V3000
M  V30 BEGIN CTAB
M  V30 COUNTS 40 41 0 0 0
M  V30 BEGIN ATOM
M  V30 1 S 0.163 1.3866 -1.0602 0
M  V30 2 O 0.1226 2.7893 -0.519 0
M  V30 3 O 0.2107 1.4671 -2.5612 0
M  V30 4 C 1.6326 0.6007 -0.4798 0
M  V30 5 C -1.3288 0.4968 -0.5589 0
M  V30 6 C 2.1504 0.9191 0.7836 0
M  V30 7 C 2.2873 -0.3512 -1.2736 0
M  V30 8 C -2.5152 1.3398 -1.0003 0
M  V30 9 C -1.3376 -0.9029 -1.2537 0
M  V30 10 C -1.3754 0.3503 0.9996 0
M  V30 11 C 3.3047 0.2854 1.2523 0
M  V30 12 C 3.4417 -0.9852 -0.8056 0
M  V30 13 O -3.1888 1.0299 -2.0225 0
M  V30 14 O -2.8269 2.5048 -0.2893 0
M  V30 15 C -2.2446 -1.8912 -0.5127 0
M  V30 16 C -0.8791 -1.0165 1.4898 0
M  V30 17 C 3.9655 -0.6608 0.4549 0
M  V30 18 C -3.9033 3.3609 -0.6515 0
M  V30 19 C -1.7356 -2.1628 0.9181 0
M  V30 20 C 5.1795 -1.3716 0.9748 0
M  V30 21 H 1.6563 1.6496 1.411 0
M  V30 22 H 1.8997 -0.6108 -2.2503 0
M  V30 23 H -1.6447 -0.8317 -2.3191 0
M  V30 24 H -0.316 -1.3369 -1.2654 0
M  V30 25 H -0.7892 1.1538 1.494 0
M  V30 26 H -2.42 0.4617 1.3702 0
M  V30 27 H 3.6824 0.5326 2.2369 0
M  V30 28 H 3.9266 -1.7288 -1.426 0
M  V30 29 H -2.2916 -2.8476 -1.077 0
M  V30 30 H -3.276 -1.4771 -0.47 0
M  V30 31 H -0.9134 -1.0486 2.6003 0
M  V30 32 H 0.1797 -1.1588 1.1875 0
M  V30 33 H -4.8628 2.8034 -0.6096 0
M  V30 34 H -3.949 4.21 0.0609 0
M  V30 35 H -3.7438 3.7588 -1.676 0
M  V30 36 H -1.1279 -3.0938 0.9239 0
M  V30 37 H -2.6108 -2.3351 1.5821 0
M  V30 38 H 4.8661 -2.2866 1.5196 0
M  V30 39 H 5.7513 -0.7161 1.6659 0
M  V30 40 H 5.8527 -1.6597 0.1395 0
M  V30 END ATOM
M  V30 BEGIN BOND
M  V30 1 2 1 2
M  V30 2 2 1 3
M  V30 3 1 1 4
M  V30 4 1 1 5
M  V30 5 2 4 6
M  V30 6 1 4 7
M  V30 7 1 5 8
M  V30 8 1 5 9
M  V30 9 1 5 10
M  V30 10 1 6 11
M  V30 11 2 7 12
M  V30 12 2 8 13
M  V30 13 1 8 14
M  V30 14 1 9 15
M  V30 15 1 10 16
M  V30 16 2 11 17
M  V30 17 1 14 18
M  V30 18 1 15 19
M  V30 19 1 17 20
M  V30 20 1 12 17
M  V30 21 1 16 19
M  V30 22 1 6 21
M  V30 23 1 7 22
M  V30 24 1 9 23
M  V30 25 1 9 24
M  V30 26 1 10 25
M  V30 27 1 10 26
M  V30 28 1 11 27
M  V30 29 1 12 28
M  V30 30 1 15 29
M  V30 31 1 15 30
M  V30 32 1 16 31
M  V30 33 1 16 32
M  V30 34 1 18 33
M  V30 35 1 18 34
M  V30 36 1 18 35
M  V30 37 1 19 36
M  V30 38 1 19 37
M  V30 39 1 20 38
M  V30 40 1 20 39
M  V30 41 1 20 40
M  V30 END BOND
M  V30 END CTAB
M  END
>  <Structure No>
6446

>  <LogS>
-4.61

>  <MMFF94 Energy>
8.7651

$$$$
Compound 6447
Actelion Java MolfileCreator 2.0

  0  0  0  0  0  0              0 V3000
M  V30 BEGIN CTAB
M  V30 COUNTS 22 22 0 0 0
M  V30 BEGIN ATOM
M  V30 1 S -3.0318 -0.8415 0.8415 0
M  V30 2 O -3.0922 -2.2242 1.426 0
M  V30 3 O -4.1191 -0.6868 -0.1848 0
M  V30 4 N -3.2571 0.3318 2.0911 0
M  V30 5 C -1.4737 -0.5952 0.0817 0
M  V30 6 S -0.0263 -0.3815 0.9148 0
M  V30 7 N -1.2873 -0.5664 -1.2552 0
M  V30 8 C 0.8254 -0.2394 -0.5397 0
M  V30 9 N -0.0142 -0.3713 -1.5976 0
M  V30 10 N 2.1124 -0.0807 -0.6797 0
M  V30 11 C 0.4069 -0.3195 -2.9946 0
M  V30 12 C 3.1178 0.1044 0.3313 0
M  V30 13 O 4.3135 -0.166 0.044 0
M  V30 14 C 2.8162 0.6471 1.6955 0
M  V30 15 H -4.2209 0.1941 2.47 0
M  V30 16 H -3.2437 1.2714 1.6343 0
M  V30 17 H 0.9051 0.6511 -3.2018 0
M  V30 18 H -0.4715 -0.4196 -3.6674 0
M  V30 19 H 1.1138 -1.1498 -3.2043 0
M  V30 20 H 2.4479 -0.167 2.3532 0
M  V30 21 H 2.0633 1.4599 1.6279 0
M  V30 22 H 3.7365 1.0725 2.1493 0
M  V30 END ATOM
M  V30 BEGIN BOND
M  V30 1 2 1 2
M  V30 2 2 1 3
M  V30 3 1 1 4
M  V30 4 1 1 5
M  V30 5 1 5 6
M  V30 6 2 5 7
M  V30 7 1 6 8
M  V30 8 1 7 9
M  V30 9 2 8 10
M  V30 10 1 9 11
M  V30 11 1 10 12
M  V30 12 2 12 13
M  V30 13 1 12 14
M  V30 14 1 8 9
M  V30 15 1 4 15
M  V30 16 1 4 16
M  V30 17 1 11 17
M  V30 18 1 11 18
M  V30 19 1 11 19
M  V30 20 1 14 20
M  V30 21 1 14 21
M  V30 22 1 14 22
M  V30 END BOND
M  V30 END CTAB
M  END
>  <Structure No>
6447

>  <LogS>
-1.92

>  <MMFF94 Energy>
-2.0872

$$$$
Compound 6448
Actelion Java MolfileCreator 2.0

  0  0  0  0  0  0              0 V3000
M  V30 BEGIN CTAB
M  V30 COUNTS 22 23 0 0 0
M  V30 BEGIN ATOM
M  V30 1 Cl -0.8471 -1.8643 -1.8643 0
M  V30 2 C -1.54 -0.6529 -0.781 0
M  V30 3 C -0.7043 0.1478 0.03 0
M  V30 4 C -2.9339 -0.4663 -0.7468 0
M  V30 5 C -1.2808 1.1286 0.865 0
M  V30 6 C 0.7619 -0.0381 0.0067 0
M  V30 7 Cl -4.0123 -1.4372 -1.7415 0
M  V30 8 C -3.4887 0.5085 0.0859 0
M  V30 9 Cl -0.297 2.136 1.9232 0
M  V30 10 C -2.6674 1.3011 0.8864 0
M  V30 11 C 1.59 0.9421 -0.5628 0
M  V30 12 C 1.3366 -1.1955 0.5555 0
M  V30 13 C 2.9768 0.7647 -0.583 0
M  V30 14 C 2.7239 -1.3694 0.5328 0
M  V30 15 C 3.5433 -0.39 -0.0358 0
M  V30 16 H -4.5613 0.6536 0.1139 0
M  V30 17 H -3.1124 2.0498 1.5297 0
M  V30 18 H 1.1608 1.8393 -0.9917 0
M  V30 19 H 0.7107 -1.9589 1.0011 0
M  V30 20 H 3.6122 1.5221 -1.0233 0
M  V30 21 H 3.1637 -2.2627 0.9567 0
M  V30 22 H 4.6168 -0.5258 -0.0523 0
M  V30 END ATOM
M  V30 BEGIN BOND
M  V30 1 1 1 2
M  V30 2 2 2 3
M  V30 3 1 2 4
M  V30 4 1 3 5
M  V30 5 1 3 6
M  V30 6 1 4 7
M  V30 7 2 4 8
M  V30 8 1 5 9
M  V30 9 2 5 10
M  V30 10 2 6 11
M  V30 11 1 6 12
M  V30 12 1 11 13
M  V30 13 2 12 14
M  V30 14 2 13 15
M  V30 15 1 8 10
M  V30 16 1 14 15
M  V30 17 1 8 16
M  V30 18 1 10 17
M  V30 19 1 11 18
M  V30 20 1 12 19
M  V30 21 1 13 20
M  V30 22 1 14 21
M  V30 23 1 15 22
M  V30 END BOND
M  V30 END CTAB
M  END
>  <Structure No>
6448

>  <LogS>
-6.29

>  <MMFF94 Energy>
53.01

$$$$
Compound 6449
Actelion Java MolfileCreator 2.0

  0  0  0  0  0  0              0 V3000
M  V30 BEGIN CTAB
M  V30 COUNTS 23 24 0 0 0
M  V30 BEGIN ATOM
M  V30 1 O 6.0345 -0.2441 0.3254 0
M  V30 2 N 4.9739 -0.383 0.9687 0 CHG=1
M  V30 3 O 5.0284 -0.6829 2.3094 0 CHG=-1
M  V30 4 C 3.7073 -0.233 0.3237 0
M  V30 5 O 2.5568 -0.3656 0.9412 0
M  V30 6 C 3.5128 0.0664 -1.0111 0
M  V30 7 C 1.6005 -0.1651 0.0638 0
M  V30 8 C 2.1444 0.1104 -1.1797 0
M  V30 9 C 0.1728 -0.2314 0.3926 0
M  V30 10 N -0.7225 -0.0461 -0.5277 0
M  V30 11 N -2.1078 -0.0797 -0.2825 0
M  V30 12 C -2.779 0.3788 0.8927 0
M  V30 13 C -3.096 -0.1975 -1.3498 0
M  V30 14 O -2.1977 0.7041 1.961 0
M  V30 15 N -4.1758 0.5006 0.7097 0
M  V30 16 C -4.3744 0.1529 -0.6526 0
M  V30 17 O -5.5061 0.1581 -1.2039 0
M  V30 18 H 4.269 0.232 -1.7669 0
M  V30 19 H 1.6114 0.3186 -2.0982 0
M  V30 20 H -0.1117 -0.4731 1.4071 0
M  V30 21 H -3.1257 -1.2377 -1.7365 0
M  V30 22 H -2.8827 0.5324 -2.1592 0
M  V30 23 H -4.8867 0.8367 1.3967 0
M  V30 END ATOM
M  V30 BEGIN BOND
M  V30 1 2 1 2
M  V30 2 1 2 3
M  V30 3 1 2 4
M  V30 4 1 4 5
M  V30 5 2 4 6
M  V30 6 1 5 7
M  V30 7 1 6 8
M  V30 8 1 7 9
M  V30 9 2 9 10
M  V30 10 1 10 11
M  V30 11 1 11 12
M  V30 12 1 11 13
M  V30 13 2 12 14
M  V30 14 1 12 15
M  V30 15 1 13 16
M  V30 16 2 16 17
M  V30 17 2 7 8
M  V30 18 1 15 16
M  V30 19 1 6 18
M  V30 20 1 8 19
M  V30 21 1 9 20
M  V30 22 1 13 21
M  V30 23 1 13 22
M  V30 24 1 15 23
M  V30 END BOND
M  V30 END CTAB
M  END
>  <Structure No>
6449

>  <LogS>
-3.38

>  <MMFF94 Energy>
55.866

$$$$
Compound 6450
Actelion Java MolfileCreator 2.0

  0  0  0  0  0  0              0 V3000
M  V30 BEGIN CTAB
M  V30 COUNTS 28 29 0 0 0
M  V30 BEGIN ATOM
M  V30 1 O -4.4236 -2.2501 -0.3212 0
M  V30 2 C -3.6488 -1.276 -0.1223 0
M  V30 3 N -4.1733 -0.045 0.1053 0 CHG=-1
M  V30 4 C -2.2563 -1.4529 -0.1363 0
M  V30 5 C -3.3736 1.0284 0.3313 0
M  V30 6 C -1.6922 -2.7615 -0.3775 0
M  V30 7 C -1.4386 -0.3258 0.0849 0
M  V30 8 N -2.0237 0.8831 0.3074 0
M  V30 9 C -3.9754 2.3777 0.5406 0
M  V30 10 N -1.2411 -3.8095 -0.5706 0
M  V30 11 N -0.0033 -0.4277 0.0769 0
M  V30 12 C 0.843 0.7435 0.3065 0
M  V30 13 C 2.2986 0.3674 0.2484 0
M  V30 14 C 2.9933 0.3868 -0.9703 0
M  V30 15 C 2.968 -0.0737 1.3988 0
M  V30 16 N 4.2987 0.0083 -1.0193 0
M  V30 17 C 4.3085 -0.4559 1.3224 0
M  V30 18 C 4.965 -0.4049 0.0913 0
M  V30 19 H -4.1042 2.8806 -0.4402 0
M  V30 20 H -3.3142 2.9963 1.1837 0
M  V30 21 H -4.9651 2.2832 1.0353 0
M  V30 22 H 0.4508 -1.3533 -0.0951 0
M  V30 23 H 0.6223 1.5158 -0.4624 0
M  V30 24 H 0.6069 1.1813 1.3011 0
M  V30 25 H 2.4975 0.7011 -1.8797 0
M  V30 26 H 2.4528 -0.1219 2.3504 0
M  V30 27 H 4.8325 -0.7921 2.2078 0
M  V30 28 H 6.0033 -0.6993 0.0175 0
M  V30 END ATOM
M  V30 BEGIN BOND
M  V30 1 2 1 2
M  V30 2 1 2 3
M  V30 3 1 2 4
M  V30 4 1 3 5
M  V30 5 1 4 6
M  V30 6 2 4 7
M  V30 7 2 5 8
M  V30 8 1 5 9
M  V30 9 3 6 10
M  V30 10 1 7 11
M  V30 11 1 11 12
M  V30 12 1 12 13
M  V30 13 2 13 14
M  V30 14 1 13 15
M  V30 15 1 14 16
M  V30 16 2 15 17
M  V30 17 2 16 18
M  V30 18 1 7 8
M  V30 19 1 17 18
M  V30 20 1 9 19
M  V30 21 1 9 20
M  V30 22 1 9 21
M  V30 23 1 11 22
M  V30 24 1 12 23
M  V30 25 1 12 24
M  V30 26 1 14 25
M  V30 27 1 15 26
M  V30 28 1 17 27
M  V30 29 1 18 28
M  V30 END BOND
M  V30 END CTAB
M  END
>  <Structure No>
6450

>  <LogS>
-2.35

>  <MMFF94 Energy>
9.1229

$$$$
Compound 6451
Actelion Java MolfileCreator 2.0

  0  0  0  0  0  0              0 V3000
M  V30 BEGIN CTAB
M  V30 COUNTS 37 38 0 0 0
M  V30 BEGIN ATOM
M  V30 1 S 4.6506 -1.4668 0.4073 0
M  V30 2 O 3.8534 -2.7235 0.6178 0
M  V30 3 O 6.0649 -1.8387 0.064 0
M  V30 4 O 3.9905 -0.5602 -0.8864 0
M  V30 5 C 4.6628 -0.4936 1.8991 0
M  V30 6 C 2.6692 -0.0966 -0.9564 0
M  V30 7 C 1.6835 -0.448 -0.0046 0
M  V30 8 C 2.3208 0.7498 -2.0299 0
M  V30 9 C 0.3908 0.0667 -0.1514 0
M  V30 10 C 1.0156 1.2509 -2.1538 0
M  V30 11 C 0.0753 0.8897 -1.1936 0
M  V30 12 C -0.8157 -0.1542 0.712 0
M  V30 13 O -1.2422 1.2852 -1.1521 0
M  V30 14 C -1.9022 0.7324 -0.0109 0 CFG=1
M  V30 15 C -1.1757 -1.6536 0.742 0
M  V30 16 C -0.5478 0.3539 2.1406 0
M  V30 17 O -3.0137 -0.04 -0.4312 0
M  V30 18 C -4.1063 0.7886 -0.7813 0
M  V30 19 C -5.0661 0.9194 0.3958 0
M  V30 20 H 5.144 -1.0722 2.7143 0
M  V30 21 H 5.2356 0.4402 1.7248 0
M  V30 22 H 3.6277 -0.2348 2.1991 0
M  V30 23 H 1.8972 -1.1047 0.8237 0
M  V30 24 H 3.0668 1.0212 -2.7658 0
M  V30 25 H 0.747 1.9031 -2.9745 0
M  V30 26 H -2.2173 1.5677 0.6587 0
M  V30 27 H -2.1102 -1.8142 1.3215 0
M  V30 28 H -0.3647 -2.2423 1.2222 0
M  V30 29 H -1.3225 -2.0436 -0.2883 0
M  V30 30 H -1.4694 0.2693 2.7555 0
M  V30 31 H -0.2307 1.4195 2.1252 0
M  V30 32 H 0.255 -0.2411 2.6266 0
M  V30 33 H -3.804 1.7999 -1.1435 0
M  V30 34 H -4.6499 0.3036 -1.6192 0
M  V30 35 H -5.4027 -0.0866 0.7245 0
M  V30 36 H -4.5685 1.4313 1.2457 0
M  V30 37 H -5.9534 1.5137 0.091 0
M  V30 END ATOM
M  V30 BEGIN BOND
M  V30 1 2 1 2
M  V30 2 2 1 3
M  V30 3 1 1 4
M  V30 4 1 1 5
M  V30 5 1 4 6
M  V30 6 2 6 7
M  V30 7 1 6 8
M  V30 8 1 7 9
M  V30 9 2 8 10
M  V30 10 2 9 11
M  V30 11 1 9 12
M  V30 12 1 11 13
M  V30 13 1 12 14
M  V30 14 1 12 15
M  V30 15 1 12 16
M  V30 16 1 14 17
M  V30 17 1 17 18
M  V30 18 1 18 19
M  V30 19 1 10 11
M  V30 20 1 13 14
M  V30 21 1 5 20
M  V30 22 1 5 21
M  V30 23 1 5 22
M  V30 24 1 7 23
M  V30 25 1 8 24
M  V30 26 1 10 25
M  V30 27 1 14 26
M  V30 28 1 15 27
M  V30 29 1 15 28
M  V30 30 1 15 29
M  V30 31 1 16 30
M  V30 32 1 16 31
M  V30 33 1 16 32
M  V30 34 1 18 33
M  V30 35 1 18 34
M  V30 36 1 19 35
M  V30 37 1 19 36
M  V30 38 1 19 37
M  V30 END BOND
M  V30 BEGIN COLLECTION
M  V30 MDLV30/STEABS ATOMS=(1 14)
M  V30 END COLLECTION
M  V30 END CTAB
M  END
>  <Structure No>
6451

>  <LogS>
-3.42

>  <MMFF94 Energy>
43.31

$$$$
Compound 6452
Actelion Java MolfileCreator 2.0

  0  0  0  0  0  0              0 V3000
M  V30 BEGIN CTAB
M  V30 COUNTS 32 34 0 0 0
M  V30 BEGIN ATOM
M  V30 1 O -1.362 1.362 -0.7209 0
M  V30 2 C -0.585 0.1859 -0.7741 0 CFG=1
M  V30 3 C -2.7087 0.9822 -0.5139 0 CFG=1
M  V30 4 N 0.7139 0.4079 -0.137 0
M  V30 5 C -1.3443 -0.928 -0.0727 0 CFG=1
M  V30 6 C -2.7866 -0.5412 -0.3132 0 CFG=2
M  V30 7 C -3.2798 1.7622 0.6805 0
M  V30 8 C 1.8736 -0.2051 -0.4023 0
M  V30 9 C 0.9978 1.1823 0.9435 0
M  V30 10 O -1.0225 -2.1803 -0.62 0
M  V30 11 O -3.3252 -1.1794 -1.4494 0
M  V30 12 O -2.4924 1.5779 1.8276 0
M  V30 13 N 2.1244 -1.121 -1.3691 0
M  V30 14 C 2.8157 0.2063 0.4763 0
M  V30 15 N 2.2946 1.0891 1.3493 0
M  V30 16 C 3.3894 -1.6331 -1.4526 0
M  V30 17 C 4.1048 -0.3092 0.4028 0
M  V30 18 N 4.3638 -1.2284 -0.5751 0
M  V30 19 N 5.1292 0.0927 1.3124 0
M  V30 20 H -0.4286 -0.074 -1.846 0
M  V30 21 H -3.2978 1.2745 -1.4116 0
M  V30 22 H -1.1261 -0.91 1.0217 0
M  V30 23 H -3.4078 -0.823 0.5651 0
M  V30 24 H -3.2828 2.8446 0.4308 0
M  V30 25 H -4.338 1.4652 0.8677 0
M  V30 26 H 0.2668 1.8027 1.4452 0
M  V30 27 H -1.4321 -2.8594 -0.0228 0
M  V30 28 H -2.7743 -0.9297 -2.2375 0
M  V30 29 H -2.8445 0.777 2.2959 0
M  V30 30 H 3.6232 -2.3638 -2.2145 0
M  V30 31 H 4.9377 0.7936 2.0627 0
M  V30 32 H 6.088 -0.3131 1.2349 0
M  V30 END ATOM
M  V30 BEGIN BOND
M  V30 1 1 1 2
M  V30 2 1 1 3
M  V30 3 1 2 4
M  V30 4 1 2 5
M  V30 5 1 3 6
M  V30 6 1 3 7
M  V30 7 1 4 8
M  V30 8 1 4 9
M  V30 9 1 5 10
M  V30 10 1 6 11
M  V30 11 1 7 12
M  V30 12 2 8 13
M  V30 13 1 8 14
M  V30 14 2 9 15
M  V30 15 1 13 16
M  V30 16 2 14 17
M  V30 17 2 16 18
M  V30 18 1 17 19
M  V30 19 1 5 6
M  V30 20 1 14 15
M  V30 21 1 17 18
M  V30 22 1 2 20
M  V30 23 1 3 21
M  V30 24 1 5 22
M  V30 25 1 6 23
M  V30 26 1 7 24
M  V30 27 1 7 25
M  V30 28 1 9 26
M  V30 29 1 10 27
M  V30 30 1 11 28
M  V30 31 1 12 29
M  V30 32 1 16 30
M  V30 33 1 19 31
M  V30 34 1 19 32
M  V30 END BOND
M  V30 BEGIN COLLECTION
M  V30 MDLV30/STEABS ATOMS=(4 2 3 5 6)
M  V30 END COLLECTION
M  V30 END CTAB
M  END
>  <Structure No>
6452

>  <LogS>
-1.73

>  <MMFF94 Energy>
76.343

$$$$
Compound 6453
Actelion Java MolfileCreator 2.0

  0  0  0  0  0  0              0 V3000
M  V30 BEGIN CTAB
M  V30 COUNTS 30 31 0 0 0
M  V30 BEGIN ATOM
M  V30 1 F -0.2418 0.8061 2.1778 0
M  V30 2 C 0.1508 0.3332 0.9677 0
M  V30 3 C -0.7861 0.1179 -0.0605 0
M  V30 4 C 1.5105 0.0969 0.7439 0
M  V30 5 C -2.2331 0.3581 0.1601 0
M  V30 6 C -0.3321 -0.3288 -1.3127 0
M  V30 7 C 1.9636 -0.3549 -0.5085 0
M  V30 8 C -2.9868 1.0766 -0.7858 0
M  V30 9 C -2.8758 -0.1424 1.3073 0
M  V30 10 C 1.0268 -0.565 -1.5334 0
M  V30 11 C 3.4347 -0.6192 -0.7589 0 CFG=1
M  V30 12 C -4.3523 1.2977 -0.5815 0
M  V30 13 C -4.2418 0.0806 1.5064 0
M  V30 14 C 4.2407 0.6361 -0.5587 0
M  V30 15 C 3.9487 -1.7662 0.1193 0
M  V30 16 C -4.979 0.8012 0.5638 0
M  V30 17 O 4.4533 1.4063 -1.5321 0
M  V30 18 O 4.7095 0.9869 0.7024 0 CHG=-1
M  V30 19 H 2.2119 0.2739 1.549 0
M  V30 20 H -1.0331 -0.5108 -2.1179 0
M  V30 21 H -2.516 1.4779 -1.6747 0
M  V30 22 H -2.3259 -0.7204 2.0394 0
M  V30 23 H 1.3457 -0.9154 -2.5071 0
M  V30 24 H 3.5796 -0.9415 -1.8146 0
M  V30 25 H -4.9245 1.8559 -1.3112 0
M  V30 26 H -4.7299 -0.3092 2.3902 0
M  V30 27 H 3.3632 -2.6886 -0.0824 0
M  V30 28 H 5.0151 -1.9738 -0.113 0
M  V30 29 H 3.8619 -1.5198 1.1989 0
M  V30 30 H -6.0363 0.9726 0.7196 0
M  V30 END ATOM
M  V30 BEGIN BOND
M  V30 1 1 1 2
M  V30 2 2 2 3
M  V30 3 1 2 4
M  V30 4 1 3 5
M  V30 5 1 3 6
M  V30 6 2 4 7
M  V30 7 2 5 8
M  V30 8 1 5 9
M  V30 9 2 6 10
M  V30 10 1 7 11
M  V30 11 1 8 12
M  V30 12 2 9 13
M  V30 13 1 11 14
M  V30 14 1 11 15
M  V30 15 2 12 16
M  V30 16 2 14 17
M  V30 17 1 14 18
M  V30 18 1 7 10
M  V30 19 1 13 16
M  V30 20 1 4 19
M  V30 21 1 6 20
M  V30 22 1 8 21
M  V30 23 1 9 22
M  V30 24 1 10 23
M  V30 25 1 11 24
M  V30 26 1 12 25
M  V30 27 1 13 26
M  V30 28 1 15 27
M  V30 29 1 15 28
M  V30 30 1 15 29
M  V30 31 1 16 30
M  V30 END BOND
M  V30 BEGIN COLLECTION
M  V30 MDLV30/STEABS ATOMS=(1 11)
M  V30 END COLLECTION
M  V30 END CTAB
M  END
>  <Structure No>
6453

>  <LogS>
-4.29

>  <MMFF94 Energy>
78.726

$$$$
Compound 6454
Actelion Java MolfileCreator 2.0

  0  0  0  0  0  0              0 V3000
M  V30 BEGIN CTAB
M  V30 COUNTS 43 44 0 0 0
M  V30 BEGIN ATOM
M  V30 1 S 0.0811 1.1365 0.4057 0
M  V30 2 O -0.4191 1.0161 1.8189 0
M  V30 3 O -0.0805 2.5689 -0.0228 0
M  V30 4 C 1.7947 0.7241 0.3731 0
M  V30 5 C -0.9153 0.0784 -0.669 0
M  V30 6 C 2.649 1.3313 -0.5571 0
M  V30 7 C 2.3123 -0.2127 1.2779 0
M  V30 8 C -2.3544 0.5246 -0.5351 0
M  V30 9 C -0.4282 0.1491 -2.125 0
M  V30 10 C -0.755 -1.4015 -0.2909 0
M  V30 11 C 4.0056 0.9965 -0.5906 0
M  V30 12 C 3.6688 -0.5481 1.2453 0
M  V30 13 O -2.8092 1.4317 -1.2865 0
M  V30 14 O -3.1495 -0.0096 0.487 0
M  V30 15 C 0.5702 -0.9873 -2.314 0
M  V30 16 C 0.3645 -1.9629 -1.1602 0
M  V30 17 C 4.5268 0.0648 0.3197 0
M  V30 18 C -4.4678 0.4489 0.7841 0
M  V30 19 C 5.9731 -0.3267 0.2558 0
M  V30 20 C -5.1757 -0.6024 1.6358 0
M  V30 21 C -4.4047 1.7866 1.527 0
M  V30 22 H 2.2632 2.0519 -1.2665 0
M  V30 23 H 1.6642 -0.6949 1.9983 0
M  V30 24 H 0.0282 1.1318 -2.3725 0
M  V30 25 H -1.2765 -0.0204 -2.8262 0
M  V30 26 H -0.5358 -1.5426 0.7895 0
M  V30 27 H -1.6866 -1.9648 -0.5264 0
M  V30 28 H 4.6486 1.4627 -1.3267 0
M  V30 29 H 4.0492 -1.2862 1.9405 0
M  V30 30 H 0.4041 -1.493 -3.2904 0
M  V30 31 H 1.6088 -0.5938 -2.3004 0
M  V30 32 H 0.0922 -2.9712 -1.5423 0
M  V30 33 H 1.3002 -2.0578 -0.5693 0
M  V30 34 H -5.0446 0.5766 -0.1588 0
M  V30 35 H 6.0931 -1.1817 -0.4415 0
M  V30 36 H 6.3435 -0.6231 1.2602 0
M  V30 37 H 6.5934 0.5227 -0.1017 0
M  V30 38 H -4.6276 -0.7637 2.589 0
M  V30 39 H -5.2185 -1.5646 1.083 0
M  V30 40 H -6.2145 -0.2803 1.8626 0
M  V30 41 H -3.8129 1.682 2.4616 0
M  V30 42 H -5.4286 2.1344 1.7813 0
M  V30 43 H -3.9253 2.5576 0.8887 0
M  V30 END ATOM
M  V30 BEGIN BOND
M  V30 1 2 1 2
M  V30 2 2 1 3
M  V30 3 1 1 4
M  V30 4 1 1 5
M  V30 5 2 4 6
M  V30 6 1 4 7
M  V30 7 1 5 8
M  V30 8 1 5 9
M  V30 9 1 5 10
M  V30 10 1 6 11
M  V30 11 2 7 12
M  V30 12 2 8 13
M  V30 13 1 8 14
M  V30 14 1 9 15
M  V30 15 1 10 16
M  V30 16 2 11 17
M  V30 17 1 14 18
M  V30 18 1 17 19
M  V30 19 1 18 20
M  V30 20 1 18 21
M  V30 21 1 12 17
M  V30 22 1 15 16
M  V30 23 1 6 22
M  V30 24 1 7 23
M  V30 25 1 9 24
M  V30 26 1 9 25
M  V30 27 1 10 26
M  V30 28 1 10 27
M  V30 29 1 11 28
M  V30 30 1 12 29
M  V30 31 1 15 30
M  V30 32 1 15 31
M  V30 33 1 16 32
M  V30 34 1 16 33
M  V30 35 1 18 34
M  V30 36 1 19 35
M  V30 37 1 19 36
M  V30 38 1 19 37
M  V30 39 1 20 38
M  V30 40 1 20 39
M  V30 41 1 20 40
M  V30 42 1 21 41
M  V30 43 1 21 42
M  V30 44 1 21 43
M  V30 END BOND
M  V30 END CTAB
M  END
>  <Structure No>
6454

>  <LogS>
-3.91

>  <MMFF94 Energy>
16.224

$$$$
Compound 6455
Actelion Java MolfileCreator 2.0

  0  0  0  0  0  0              0 V3000
M  V30 BEGIN CTAB
M  V30 COUNTS 29 30 0 0 0
M  V30 BEGIN ATOM
M  V30 1 O 3.0885 -1.6246 2.6004 0
M  V30 2 N 2.9194 -0.8207 1.6604 0 CHG=1
M  V30 3 O 4.0043 -0.1293 1.1762 0 CHG=-1
M  V30 4 C 1.6737 -0.7983 0.9464 0
M  V30 5 C 1.1455 0.4016 0.4321 0
M  V30 6 C 0.9647 -1.9944 0.7557 0
M  V30 7 N 1.769 1.6625 0.6811 0
M  V30 8 C -0.0492 0.3813 -0.2936 0
M  V30 9 C -0.2464 -2.0196 0.0459 0
M  V30 10 C 1.7869 3.1501 0.5536 0
M  V30 11 C 2.8077 2.5625 1.2678 0
M  V30 12 C -0.7489 -0.8166 -0.5086 0
M  V30 13 N -0.9629 -3.2621 -0.063 0 CHG=1
M  V30 14 C -1.9547 -0.7913 -1.3681 0
M  V30 15 O -2.2053 -3.2876 0.0568 0
M  V30 16 O -0.275 -4.4535 -0.0873 0 CHG=-1
M  V30 17 O -2.1325 -1.7043 -2.2201 0
M  V30 18 N -2.9072 0.2757 -1.2565 0
M  V30 19 C -4.0587 0.3705 -2.1448 0
M  V30 20 H 1.3571 -2.9143 1.1711 0
M  V30 21 H -0.4216 1.3101 -0.7096 0
M  V30 22 H 2.0154 3.4591 -0.488 0
M  V30 23 H 0.9663 3.6121 1.142 0
M  V30 24 H 2.7293 2.6018 2.3747 0
M  V30 25 H 3.7801 2.4676 0.7406 0
M  V30 26 H -2.7977 0.9923 -0.504 0
M  V30 27 H -4.6872 -0.5393 -2.0457 0
M  V30 28 H -3.7154 0.4729 -3.1956 0
M  V30 29 H -4.6692 1.259 -1.8782 0
M  V30 END ATOM
M  V30 BEGIN BOND
M  V30 1 2 1 2
M  V30 2 1 2 3
M  V30 3 1 2 4
M  V30 4 2 4 5
M  V30 5 1 4 6
M  V30 6 1 5 7
M  V30 7 1 5 8
M  V30 8 2 6 9
M  V30 9 1 7 10
M  V30 10 1 7 11
M  V30 11 2 8 12
M  V30 12 1 9 13
M  V30 13 1 12 14
M  V30 14 2 13 15
M  V30 15 1 13 16
M  V30 16 2 14 17
M  V30 17 1 14 18
M  V30 18 1 18 19
M  V30 19 1 9 12
M  V30 20 1 10 11
M  V30 21 1 6 20
M  V30 22 1 8 21
M  V30 23 1 10 22
M  V30 24 1 10 23
M  V30 25 1 11 24
M  V30 26 1 11 25
M  V30 27 1 18 26
M  V30 28 1 19 27
M  V30 29 1 19 28
M  V30 30 1 19 29
M  V30 END BOND
M  V30 END CTAB
M  END
>  <Structure No>
6455

>  <LogS>
-2.85

>  <MMFF94 Energy>
54.879

$$$$
Compound 6456
Actelion Java MolfileCreator 2.0

  0  0  0  0  0  0              0 V3000
M  V30 BEGIN CTAB
M  V30 COUNTS 62 66 0 0 0
M  V30 BEGIN ATOM
M  V30 1 F -2.0372 1.6295 -0.2443 0
M  V30 2 C -1.9711 0.2397 -0.2602 0 CFG=1
M  V30 3 C -3.448 -0.289 -0.0067 0 CFG=1
M  V30 4 C -1.3655 -0.1555 -1.663 0 CFG=1
M  V30 5 C -1.018 -0.2001 0.9215 0 CFG=1
M  V30 6 C -3.857 0.1622 1.4104 0
M  V30 7 C -4.4078 0.2393 -1.078 0
M  V30 8 C -3.5569 -1.8329 -0.0727 0
M  V30 9 O -2.0666 0.5026 -2.6869 0
M  V30 10 C 0.1356 0.2295 -1.815 0
M  V30 11 C 0.4106 0.3129 0.643 0 CFG=2
M  V30 12 C -1.539 0.325 2.2767 0
M  V30 13 C -4.9334 0.9307 1.6462 0
M  V30 14 C -2.9479 -0.1917 2.5601 0
M  V30 15 C -5.4667 1.0057 -0.817 0
M  V30 16 C 1.0136 -0.2712 -0.6394 0 CFG=2
M  V30 17 C 1.4844 0.1054 1.6998 0
M  V30 18 C -5.7838 1.3932 0.5525 0
M  V30 19 C 2.4976 0.2677 -0.5658 0 CFG=1
M  V30 20 C 1.0276 -1.8376 -0.6496 0
M  V30 21 C 2.7981 0.3538 0.9406 0 CFG=2
M  V30 22 O -6.785 2.1189 0.7903 0
M  V30 23 O 3.4143 -0.6685 -1.0737 0
M  V30 24 C 2.7098 1.5743 -1.3471 0
M  V30 25 O 3.7307 -0.6456 1.2194 0
M  V30 26 C 4.3101 -0.9665 -0.0236 0
M  V30 27 O 2.7273 1.5113 -2.5683 0
M  V30 28 C 2.966 2.9235 -0.7193 0
M  V30 29 C 4.6282 -2.4649 -0.0506 0
M  V30 30 C 5.6127 -0.1705 -0.213 0
M  V30 31 O 1.9053 3.2807 0.1197 0
M  V30 32 H -1.4685 -1.2499 -1.81 0
M  V30 33 H -0.9814 -1.3011 1.0106 0
M  V30 34 H -4.2878 -0.0912 -2.1005 0
M  V30 35 H -4.5853 -2.1503 0.2074 0
M  V30 36 H -2.8592 -2.3473 0.614 0
M  V30 37 H -3.3686 -2.2119 -1.0986 0
M  V30 38 H -1.89 0.0061 -3.5289 0
M  V30 39 H 0.1843 1.338 -1.8858 0
M  V30 40 H 0.5268 -0.1811 -2.7715 0
M  V30 41 H 0.3227 1.4166 0.5244 0
M  V30 42 H -0.8766 -0.0211 3.0989 0
M  V30 43 H -1.541 1.4376 2.2865 0
M  V30 44 H -5.1766 1.2472 2.6539 0
M  V30 45 H -2.9266 -1.2933 2.6966 0
M  V30 46 H -3.3003 0.2458 3.5204 0
M  V30 47 H -6.1177 1.3162 -1.6251 0
M  V30 48 H 1.4383 -0.9256 2.1133 0
M  V30 49 H 1.3692 0.8315 2.534 0
M  V30 50 H 1.5669 -2.2447 0.2266 0
M  V30 51 H 1.5249 -2.2101 -1.5704 0
M  V30 52 H 0.0243 -2.2989 -0.6379 0
M  V30 53 H 3.2265 1.3211 1.2668 0
M  V30 54 H 3.0685 3.6929 -1.5178 0
M  V30 55 H 3.9239 2.9045 -0.1563 0
M  V30 56 H 3.7091 -3.064 0.1058 0
M  V30 57 H 5.349 -2.7228 0.755 0
M  V30 58 H 5.0674 -2.7498 -1.0307 0
M  V30 59 H 5.4094 0.9198 -0.1935 0
M  V30 60 H 6.3314 -0.4039 0.6015 0
M  V30 61 H 6.0797 -0.4197 -1.1898 0
M  V30 62 H 2.1594 4.1463 0.5332 0
M  V30 END ATOM
M  V30 BEGIN BOND
M  V30 1 1 1 2
M  V30 2 1 2 3
M  V30 3 1 2 4
M  V30 4 1 2 5
M  V30 5 1 3 6
M  V30 6 1 3 7
M  V30 7 1 3 8
M  V30 8 1 4 9
M  V30 9 1 4 10
M  V30 10 1 5 11
M  V30 11 1 5 12
M  V30 12 2 6 13
M  V30 13 1 6 14
M  V30 14 2 7 15
M  V30 15 1 10 16
M  V30 16 1 11 17
M  V30 17 1 13 18
M  V30 18 1 16 19
M  V30 19 1 16 20
M  V30 20 1 17 21
M  V30 21 2 18 22
M  V30 22 1 19 23
M  V30 23 1 19 24
M  V30 24 1 21 25
M  V30 25 1 23 26
M  V30 26 2 24 27
M  V30 27 1 24 28
M  V30 28 1 26 29
M  V30 29 1 26 30
M  V30 30 1 28 31
M  V30 31 1 11 16
M  V30 32 1 12 14
M  V30 33 1 15 18
M  V30 34 1 19 21
M  V30 35 1 25 26
M  V30 36 1 4 32
M  V30 37 1 5 33
M  V30 38 1 7 34
M  V30 39 1 8 35
M  V30 40 1 8 36
M  V30 41 1 8 37
M  V30 42 1 9 38
M  V30 43 1 10 39
M  V30 44 1 10 40
M  V30 45 1 11 41
M  V30 46 1 12 42
M  V30 47 1 12 43
M  V30 48 1 13 44
M  V30 49 1 14 45
M  V30 50 1 14 46
M  V30 51 1 15 47
M  V30 52 1 17 48
M  V30 53 1 17 49
M  V30 54 1 20 50
M  V30 55 1 20 51
M  V30 56 1 20 52
M  V30 57 1 21 53
M  V30 58 1 28 54
M  V30 59 1 28 55
M  V30 60 1 29 56
M  V30 61 1 29 57
M  V30 62 1 29 58
M  V30 63 1 30 59
M  V30 64 1 30 60
M  V30 65 1 30 61
M  V30 66 1 31 62
M  V30 END BOND
M  V30 BEGIN COLLECTION
M  V30 MDLV30/STEABS ATOMS=(8 2 3 4 5 11 16 19 21)
M  V30 END COLLECTION
M  V30 END CTAB
M  END
>  <Structure No>
6456

>  <LogS>
-4.31

>  <MMFF94 Energy>
170.37

$$$$
Compound 6457
Actelion Java MolfileCreator 2.0

  0  0  0  0  0  0              0 V3000
M  V30 BEGIN CTAB
M  V30 COUNTS 33 34 0 0 0
M  V30 BEGIN ATOM
M  V30 1 S -3.5516 -1.8553 -0.8063 0
M  V30 2 C -1.9019 -1.4485 -0.2266 0
M  V30 3 C -4.2093 -0.1563 -0.6563 0
M  V30 4 C -0.9407 -0.9608 -1.135 0
M  V30 5 C -1.5617 -1.6429 1.1343 0
M  V30 6 C -4.6208 0.1471 0.7859 0
M  V30 7 C 0.3262 -0.6685 -0.637 0
M  V30 8 C -0.2688 -1.3353 1.5986 0
M  V30 9 C -5.2644 1.526 0.8959 0
M  V30 10 N 1.3896 -0.1939 -1.2961 0
M  V30 11 C 0.6509 -0.8461 0.6749 0
M  V30 12 C 2.3445 -0.0979 -0.3388 0
M  V30 13 N 1.9295 -0.4918 0.8956 0
M  V30 14 N 3.6688 0.3776 -0.6184 0
M  V30 15 C 4.7059 0.4944 0.3642 0
M  V30 16 O 4.4941 0.1723 1.5658 0
M  V30 17 O 5.9602 0.9716 -0.0259 0
M  V30 18 C 7.0428 1.118 0.8852 0
M  V30 19 H -3.4589 0.5831 -1.0105 0
M  V30 20 H -5.1005 -0.0821 -1.3153 0
M  V30 21 H -1.1773 -0.8127 -2.1808 0
M  V30 22 H -2.298 -2.0295 1.8272 0
M  V30 23 H -3.7297 0.1186 1.4471 0
M  V30 24 H -5.3455 -0.6194 1.136 0
M  V30 25 H 4.0E-4 -1.4764 2.6373 0
M  V30 26 H -6.1796 1.5766 0.2683 0
M  V30 27 H -5.5475 1.721 1.9518 0
M  V30 28 H -4.5506 2.3118 0.5687 0
M  V30 29 H 1.4654 0.046 -2.3096 0
M  V30 30 H 3.8934 0.6573 -1.5994 0
M  V30 31 H 6.7684 1.8322 1.6904 0
M  V30 32 H 7.3021 0.1335 1.3289 0
M  V30 33 H 7.9261 1.5113 0.3416 0
M  V30 END ATOM
M  V30 BEGIN BOND
M  V30 1 1 1 2
M  V30 2 1 1 3
M  V30 3 2 2 4
M  V30 4 1 2 5
M  V30 5 1 3 6
M  V30 6 1 4 7
M  V30 7 2 5 8
M  V30 8 1 6 9
M  V30 9 1 7 10
M  V30 10 2 7 11
M  V30 11 1 10 12
M  V30 12 1 11 13
M  V30 13 1 12 14
M  V30 14 1 14 15
M  V30 15 2 15 16
M  V30 16 1 15 17
M  V30 17 1 17 18
M  V30 18 1 8 11
M  V30 19 2 12 13
M  V30 20 1 3 19
M  V30 21 1 3 20
M  V30 22 1 4 21
M  V30 23 1 5 22
M  V30 24 1 6 23
M  V30 25 1 6 24
M  V30 26 1 8 25
M  V30 27 1 9 26
M  V30 28 1 9 27
M  V30 29 1 9 28
M  V30 30 1 10 29
M  V30 31 1 14 30
M  V30 32 1 18 31
M  V30 33 1 18 32
M  V30 34 1 18 33
M  V30 END BOND
M  V30 END CTAB
M  END
>  <Structure No>
6457

>  <LogS>
-4.22

>  <MMFF94 Energy>
-68.852

$$$$
Compound 6458
Actelion Java MolfileCreator 2.0

  0  0  0  0  0  0              0 V3000
M  V30 BEGIN CTAB
M  V30 COUNTS 35 37 0 0 0
M  V30 BEGIN ATOM
M  V30 1 O 0.9582 -2.0769 -1.7572 0
M  V30 2 C 1.2639 -1.1865 -0.9171 0
M  V30 3 N 0.2974 -0.406 -0.3625 0
M  V30 4 C 2.6021 -0.9769 -0.5298 0
M  V30 5 C 0.5767 0.5444 0.5291 0
M  V30 6 C -1.1327 -0.4607 -0.5909 0
M  V30 7 C 2.869 0.0365 0.4282 0
M  V30 8 C 3.6658 -1.733 -1.0522 0
M  V30 9 N 1.8478 0.7758 0.944 0
M  V30 10 C -0.6362 1.2324 1.009 0 CFG=2
M  V30 11 N -1.7353 0.6463 0.1997 0
M  V30 12 C 4.1839 0.2733 0.844 0
M  V30 13 C 4.9749 -1.4839 -0.6279 0
M  V30 14 C -0.5548 2.7369 0.7612 0
M  V30 15 C -2.8724 0.2124 1.0415 0
M  V30 16 C 5.2329 -0.4852 0.3162 0
M  V30 17 C -4.1895 0.2042 0.2486 0
M  V30 18 C -4.3502 -1.0199 -0.6506 0
M  V30 19 H -1.5106 -1.4636 -0.2918 0
M  V30 20 H -1.341 -0.2949 -1.6692 0
M  V30 21 H 3.4888 -2.512 -1.7835 0
M  V30 22 H -0.7458 1.0303 2.0993 0
M  V30 23 H 4.3951 1.0442 1.5749 0
M  V30 24 H 5.7922 -2.0673 -1.0316 0
M  V30 25 H -0.4047 2.9478 -0.3197 0
M  V30 26 H 0.2866 3.1765 1.3381 0
M  V30 27 H -1.4983 3.2206 1.0917 0
M  V30 28 H -2.6812 -0.7729 1.5228 0
M  V30 29 H -3.0222 0.9435 1.8683 0
M  V30 30 H 6.2488 -0.2989 0.6399 0
M  V30 31 H -4.2695 1.1295 -0.3622 0
M  V30 32 H -5.0333 0.2071 0.9731 0
M  V30 33 H -5.3893 -1.0552 -1.0406 0
M  V30 34 H -3.6653 -0.9625 -1.5199 0
M  V30 35 H -4.1572 -1.9533 -0.0805 0
M  V30 END ATOM
M  V30 BEGIN BOND
M  V30 1 2 1 2
M  V30 2 1 2 3
M  V30 3 1 2 4
M  V30 4 1 3 5
M  V30 5 1 3 6
M  V30 6 2 4 7
M  V30 7 1 4 8
M  V30 8 2 5 9
M  V30 9 1 5 10
M  V30 10 1 6 11
M  V30 11 1 7 12
M  V30 12 2 8 13
M  V30 13 1 10 14
M  V30 14 1 11 15
M  V30 15 2 12 16
M  V30 16 1 15 17
M  V30 17 1 17 18
M  V30 18 1 7 9
M  V30 19 1 10 11
M  V30 20 1 13 16
M  V30 21 1 6 19
M  V30 22 1 6 20
M  V30 23 1 8 21
M  V30 24 1 10 22
M  V30 25 1 12 23
M  V30 26 1 13 24
M  V30 27 1 14 25
M  V30 28 1 14 26
M  V30 29 1 14 27
M  V30 30 1 15 28
M  V30 31 1 15 29
M  V30 32 1 16 30
M  V30 33 1 17 31
M  V30 34 1 17 32
M  V30 35 1 18 33
M  V30 36 1 18 34
M  V30 37 1 18 35
M  V30 END BOND
M  V30 BEGIN COLLECTION
M  V30 MDLV30/STEABS ATOMS=(1 10)
M  V30 END COLLECTION
M  V30 END CTAB
M  END
>  <Structure No>
6458

>  <LogS>
-2.67

>  <MMFF94 Energy>
-0.4174

$$$$
Compound 6459
Actelion Java MolfileCreator 2.0

  0  0  0  0  0  0              0 V3000
M  V30 BEGIN CTAB
M  V30 COUNTS 37 38 0 0 0
M  V30 BEGIN ATOM
M  V30 1 Cl -2.9021 5.1638 -0.4832 0
M  V30 2 C -2.0704 3.6196 -0.4933 0
M  V30 3 C -1.943 2.9017 -1.6828 0
M  V30 4 C -1.5326 3.1076 0.6873 0
M  V30 5 C -1.2825 1.67 -1.6955 0
M  V30 6 C -0.8706 1.8775 0.6823 0
M  V30 7 C -0.738 1.1251 -0.5068 0
M  V30 8 C -0.0046 -0.2325 -0.4713 0 CFG=2
M  V30 9 C -0.0431 -0.9082 -1.7916 0
M  V30 10 C -0.6785 -1.1785 0.5648 0
M  V30 11 C 1.4873 0.0292 -0.1023 0
M  V30 12 N -0.0713 -1.4387 -2.82 0
M  V30 13 N -2.125 -1.2687 0.357 0
M  V30 14 C 2.3679 -1.234 -0.0099 0
M  V30 15 N -2.7032 -1.9763 -0.5954 0
M  V30 16 C -3.0838 -0.6404 1.0573 0
M  V30 17 C 3.833 -0.8609 0.2464 0
M  V30 18 C -4.0255 -1.7629 -0.4517 0
M  V30 19 N -4.3071 -0.9294 0.5741 0
M  V30 20 C 4.7092 -2.1055 0.3538 0
M  V30 21 H -2.3557 3.2978 -2.602 0
M  V30 22 H -1.6268 3.6617 1.6126 0
M  V30 23 H -1.2078 1.1558 -2.6429 0
M  V30 24 H -0.4685 1.5113 1.6171 0
M  V30 25 H -0.4738 -0.8305 1.6007 0
M  V30 26 H -0.2529 -2.203 0.4909 0
M  V30 27 H 1.5469 0.5533 0.8761 0
M  V30 28 H 1.9255 0.7147 -0.8628 0
M  V30 29 H 2.3063 -1.8144 -0.9551 0
M  V30 30 H 2.0149 -1.8752 0.8255 0
M  V30 31 H -2.9025 0.0167 1.8979 0
M  V30 32 H 3.9129 -0.2824 1.1927 0
M  V30 33 H 4.21 -0.2275 -0.5859 0
M  V30 34 H -4.7782 -2.2078 -1.0881 0
M  V30 35 H 4.6671 -2.6896 -0.5899 0
M  V30 36 H 5.7618 -1.804 0.5381 0
M  V30 37 H 4.3702 -2.7446 1.1968 0
M  V30 END ATOM
M  V30 BEGIN BOND
M  V30 1 1 1 2
M  V30 2 2 2 3
M  V30 3 1 2 4
M  V30 4 1 3 5
M  V30 5 2 4 6
M  V30 6 2 5 7
M  V30 7 1 7 8
M  V30 8 1 8 9
M  V30 9 1 8 10
M  V30 10 1 8 11
M  V30 11 3 9 12
M  V30 12 1 10 13
M  V30 13 1 11 14
M  V30 14 1 13 15
M  V30 15 1 13 16
M  V30 16 1 14 17
M  V30 17 2 15 18
M  V30 18 2 16 19
M  V30 19 1 17 20
M  V30 20 1 6 7
M  V30 21 1 18 19
M  V30 22 1 3 21
M  V30 23 1 4 22
M  V30 24 1 5 23
M  V30 25 1 6 24
M  V30 26 1 10 25
M  V30 27 1 10 26
M  V30 28 1 11 27
M  V30 29 1 11 28
M  V30 30 1 14 29
M  V30 31 1 14 30
M  V30 32 1 16 31
M  V30 33 1 17 32
M  V30 34 1 17 33
M  V30 35 1 18 34
M  V30 36 1 20 35
M  V30 37 1 20 36
M  V30 38 1 20 37
M  V30 END BOND
M  V30 BEGIN COLLECTION
M  V30 MDLV30/STEABS ATOMS=(1 8)
M  V30 END COLLECTION
M  V30 END CTAB
M  END
>  <Structure No>
6459

>  <LogS>
-3.31

>  <MMFF94 Energy>
35.796

$$$$
Compound 6460
Actelion Java MolfileCreator 2.0

  0  0  0  0  0  0              0 V3000
M  V30 BEGIN CTAB
M  V30 COUNTS 41 45 0 0 0
M  V30 BEGIN ATOM
M  V30 1 O 2.614 3.4319 -0.1632 0
M  V30 2 C 1.6406 2.6941 -0.1895 0
M  V30 3 C 1.5371 1.6021 0.859 0 CFG=2
M  V30 4 C 0.5691 2.9608 -1.2189 0
M  V30 5 O 2.6999 0.7672 0.768 0
M  V30 6 C 0.3254 0.6171 0.6624 0 CFG=2
M  V30 7 C -0.2323 1.7085 -1.5702 0
M  V30 8 C 2.3696 -0.4447 0.1959 0
M  V30 9 C 1.0221 -0.5551 0.0453 0
M  V30 10 C -0.7973 1.0709 -0.2901 0 CFG=1
M  V30 11 C -0.2943 0.1906 2.0334 0
M  V30 12 C 3.2395 -1.4141 -0.3085 0
M  V30 13 C 0.4574 -1.5053 -0.8088 0
M  V30 14 C -1.7078 -0.184 -0.5386 0 CFG=1
M  V30 15 C -1.8198 -0.0462 1.9718 0
M  V30 16 O 4.6157 -1.3293 -0.1139 0
M  V30 17 C 2.6879 -2.4713 -1.0574 0
M  V30 18 C 1.3053 -2.4946 -1.3431 0
M  V30 19 C -0.9395 -1.2811 -1.343 0
M  V30 20 N -2.2239 -0.7781 0.7482 0 CHG=1 CFG=1
M  V30 21 C -3.6924 -0.9044 0.7126 0
M  V30 22 H 1.5229 2.0944 1.8544 0
M  V30 23 H -0.1124 3.7478 -0.8297 0
M  V30 24 H 1.0386 3.3492 -2.1488 0
M  V30 25 H -1.0695 1.9919 -2.2444 0
M  V30 26 H 0.4275 1.0068 -2.123 0
M  V30 27 H -1.4082 1.8615 0.2012 0
M  V30 28 H 0.1985 -0.7289 2.422 0
M  V30 29 H -0.1285 0.9749 2.8025 0
M  V30 30 H -2.55 0.1594 -1.184 0
M  V30 31 H -2.1178 -0.6222 2.8776 0
M  V30 32 H -2.3485 0.9322 2.0342 0
M  V30 33 H 5.0285 -0.5694 0.4141 0
M  V30 34 H 3.3349 -3.2309 -1.4768 0
M  V30 35 H 0.9099 -3.2463 -2.0143 0
M  V30 36 H -1.5064 -2.2373 -1.3368 0
M  V30 37 H -0.8628 -0.9664 -2.4059 0
M  V30 38 H -1.8561 -1.752 0.8733 0
M  V30 39 H -4.175 0.0947 0.6283 0
M  V30 40 H -4.0047 -1.5268 -0.1549 0
M  V30 41 H -4.0669 -1.4053 1.633 0
M  V30 END ATOM
M  V30 BEGIN BOND
M  V30 1 2 1 2
M  V30 2 1 2 3
M  V30 3 1 2 4
M  V30 4 1 3 5
M  V30 5 1 3 6
M  V30 6 1 4 7
M  V30 7 1 5 8
M  V30 8 1 6 9
M  V30 9 1 6 10
M  V30 10 1 6 11
M  V30 11 1 8 12
M  V30 12 1 9 13
M  V30 13 1 10 14
M  V30 14 1 11 15
M  V30 15 1 12 16
M  V30 16 2 12 17
M  V30 17 2 13 18
M  V30 18 1 13 19
M  V30 19 1 14 20
M  V30 20 1 20 21
M  V30 21 1 7 10
M  V30 22 2 8 9
M  V30 23 1 14 19
M  V30 24 1 15 20
M  V30 25 1 17 18
M  V30 26 1 3 22
M  V30 27 1 4 23
M  V30 28 1 4 24
M  V30 29 1 7 25
M  V30 30 1 7 26
M  V30 31 1 10 27
M  V30 32 1 11 28
M  V30 33 1 11 29
M  V30 34 1 14 30
M  V30 35 1 15 31
M  V30 36 1 15 32
M  V30 37 1 16 33
M  V30 38 1 17 34
M  V30 39 1 18 35
M  V30 40 1 19 36
M  V30 41 1 19 37
M  V30 42 1 20 38
M  V30 43 1 21 39
M  V30 44 1 21 40
M  V30 45 1 21 41
M  V30 END BOND
M  V30 BEGIN COLLECTION
M  V30 MDLV30/STEABS ATOMS=(5 3 6 10 14 20)
M  V30 END COLLECTION
M  V30 END CTAB
M  END
>  <Structure No>
6460

>  <LogS>
-2.1

>  <MMFF94 Energy>
87.649

$$$$
Compound 6461
Actelion Java MolfileCreator 2.0

  0  0  0  0  0  0              0 V3000
M  V30 BEGIN CTAB
M  V30 COUNTS 21 22 0 0 0
M  V30 BEGIN ATOM
M  V30 1 S 3.2668 -0.1763 -0.8822 0
M  V30 2 O 3.9932 1.0425 -0.3871 0
M  V30 3 O 3.6687 -0.4414 -2.3056 0
M  V30 4 N 3.6771 -1.5427 0.0937 0
M  V30 5 C 1.5382 0.1019 -0.8029 0
M  V30 6 S 0.4411 -0.2768 -2.0233 0
M  V30 7 C 0.8582 0.6208 0.2915 0
M  V30 8 C -0.9112 0.2429 -1.1726 0
M  V30 9 C -0.5263 0.6957 0.0817 0
M  V30 10 S -2.5955 0.2198 -1.7824 0
M  V30 11 C -1.5085 1.0782 1.1127 0
M  V30 12 C -3.2961 -0.1923 -0.1462 0
M  V30 13 O -1.1141 1.5665 2.2055 0
M  V30 14 C -2.9877 0.9201 0.8671 0
M  V30 15 H 3.4214 -1.3026 1.0778 0
M  V30 16 H 4.7171 -1.6359 0.0668 0
M  V30 17 H 1.3452 0.9022 1.2163 0
M  V30 18 H -4.3966 -0.2945 -0.2514 0
M  V30 19 H -2.89 -1.1646 0.2084 0
M  V30 20 H -3.4931 0.6762 1.8265 0
M  V30 21 H -3.3986 1.8842 0.4982 0
M  V30 END ATOM
M  V30 BEGIN BOND
M  V30 1 2 1 2
M  V30 2 2 1 3
M  V30 3 1 1 4
M  V30 4 1 1 5
M  V30 5 1 5 6
M  V30 6 2 5 7
M  V30 7 1 6 8
M  V30 8 1 7 9
M  V30 9 1 8 10
M  V30 10 1 9 11
M  V30 11 1 10 12
M  V30 12 2 11 13
M  V30 13 1 11 14
M  V30 14 2 8 9
M  V30 15 1 12 14
M  V30 16 1 4 15
M  V30 17 1 4 16
M  V30 18 1 7 17
M  V30 19 1 12 18
M  V30 20 1 12 19
M  V30 21 1 14 20
M  V30 22 1 14 21
M  V30 END BOND
M  V30 END CTAB
M  END
>  <Structure No>
6461

>  <LogS>
-3.55

>  <MMFF94 Energy>
-70.619

$$$$
Compound 6462
Actelion Java MolfileCreator 2.0

  0  0  0  0  0  0              0 V3000
M  V30 BEGIN CTAB
M  V30 COUNTS 21 22 0 0 0
M  V30 BEGIN ATOM
M  V30 1 S 3.3548 0.882 -0.3527 0
M  V30 2 O 3.5441 2.3258 -0.7243 0
M  V30 3 O 3.898 0.0187 -1.4559 0
M  V30 4 N 4.2026 0.5529 1.117 0
M  V30 5 C 1.6467 0.5499 -0.1383 0
M  V30 6 S 0.4462 1.7199 0.0271 0
M  V30 7 C 1.0764 -0.7142 -0.0698 0
M  V30 8 C -0.8169 0.6205 0.1986 0
M  V30 9 C -0.3072 -0.6681 0.127 0
M  V30 10 C -2.2507 0.9399 0.2315 0
M  V30 11 S -1.3388 -2.1264 0.296 0
M  V30 12 O -2.6244 2.1357 0.3641 0
M  V30 13 C -3.2801 -0.1555 0.1324 0
M  V30 14 C -2.7446 -1.389 -0.6114 0
M  V30 15 H 4.019 -0.4468 1.3578 0
M  V30 16 H 3.7536 1.1294 1.8637 0
M  V30 17 H 1.6424 -1.6334 -0.1441 0
M  V30 18 H -4.1715 0.2279 -0.4091 0
M  V30 19 H -3.598 -0.4472 1.1563 0
M  V30 20 H -3.5516 -2.1479 -0.6857 0
M  V30 21 H -2.4307 -1.1149 -1.642 0
M  V30 END ATOM
M  V30 BEGIN BOND
M  V30 1 2 1 2
M  V30 2 2 1 3
M  V30 3 1 1 4
M  V30 4 1 1 5
M  V30 5 1 5 6
M  V30 6 2 5 7
M  V30 7 1 6 8
M  V30 8 1 7 9
M  V30 9 1 8 10
M  V30 10 1 9 11
M  V30 11 2 10 12
M  V30 12 1 10 13
M  V30 13 1 11 14
M  V30 14 2 8 9
M  V30 15 1 13 14
M  V30 16 1 4 15
M  V30 17 1 4 16
M  V30 18 1 7 17
M  V30 19 1 13 18
M  V30 20 1 13 19
M  V30 21 1 14 20
M  V30 22 1 14 21
M  V30 END BOND
M  V30 END CTAB
M  END
>  <Structure No>
6462

>  <LogS>
-3.49

>  <MMFF94 Energy>
-71.213

$$$$
Compound 6463
Actelion Java MolfileCreator 2.0

  0  0  0  0  0  0              0 V3000
M  V30 BEGIN CTAB
M  V30 COUNTS 23 24 0 0 0
M  V30 BEGIN ATOM
M  V30 1 S 3.5666 -0.4344 -0.8691 0
M  V30 2 O 3.9908 0.6052 -1.8675 0
M  V30 3 O 3.8222 -1.7985 -1.4452 0
M  V30 4 N 4.4767 -0.2496 0.5888 0
M  V30 5 C 1.8567 -0.252 -0.5266 0
M  V30 6 S 0.7282 -1.4977 -0.5345 0
M  V30 7 C 1.2215 0.9404 -0.2137 0
M  V30 8 C -0.5885 -0.5381 -0.1072 0
M  V30 9 C -0.1493 0.78 0.0178 0
M  V30 10 C -2.0254 -0.9933 -0.1672 0 CFG=1
M  V30 11 S -1.218 2.1497 0.4706 0
M  V30 12 O -2.2065 -2.1598 0.5939 0
M  V30 13 C -3.029 0.095 0.2658 0
M  V30 14 C -2.6945 1.4594 -0.3463 0
M  V30 15 H 4.2489 0.6947 0.9732 0
M  V30 16 H 4.1061 -0.9492 1.2703 0
M  V30 17 H 1.7333 1.8916 -0.1475 0
M  V30 18 H -2.2408 -1.2438 -1.2284 0
M  V30 19 H -1.9593 -1.9453 1.532 0
M  V30 20 H -4.0476 -0.2079 -0.0602 0
M  V30 21 H -3.0467 0.1854 1.3744 0
M  V30 22 H -2.526 1.3731 -1.4416 0
M  V30 23 H -3.5433 2.1548 -0.1766 0
M  V30 END ATOM
M  V30 BEGIN BOND
M  V30 1 2 1 2
M  V30 2 2 1 3
M  V30 3 1 1 4
M  V30 4 1 1 5
M  V30 5 1 5 6
M  V30 6 2 5 7
M  V30 7 1 6 8
M  V30 8 1 7 9
M  V30 9 1 8 10
M  V30 10 1 9 11
M  V30 11 1 10 12
M  V30 12 1 10 13
M  V30 13 1 11 14
M  V30 14 2 8 9
M  V30 15 1 13 14
M  V30 16 1 4 15
M  V30 17 1 4 16
M  V30 18 1 7 17
M  V30 19 1 10 18
M  V30 20 1 12 19
M  V30 21 1 13 20
M  V30 22 1 13 21
M  V30 23 1 14 22
M  V30 24 1 14 23
M  V30 END BOND
M  V30 BEGIN COLLECTION
M  V30 MDLV30/STEABS ATOMS=(1 10)
M  V30 END COLLECTION
M  V30 END CTAB
M  END
>  <Structure No>
6463

>  <LogS>
-2.25

>  <MMFF94 Energy>
-74.643

$$$$
Compound 6464
Actelion Java MolfileCreator 2.0

  0  0  0  0  0  0              0 V3000
M  V30 BEGIN CTAB
M  V30 COUNTS 46 47 0 0 0
M  V30 BEGIN ATOM
M  V30 1 S 0.4055 1.217 -1.8665 0
M  V30 2 O 1.0353 2.572 -2.0362 0
M  V30 3 O -0.0952 0.7601 -3.2091 0
M  V30 4 C 1.6188 0.0777 -1.285 0
M  V30 5 C -0.9627 1.3064 -0.6896 0
M  V30 6 C 1.5542 -1.2709 -1.6591 0
M  V30 7 C 2.633 0.5071 -0.4186 0
M  V30 8 C -1.5396 -0.092 -0.5468 0
M  V30 9 C -0.4041 1.8253 0.6745 0
M  V30 10 C -2.0799 2.2544 -1.239 0
M  V30 11 C 2.4905 -2.1842 -1.1663 0
M  V30 12 C 3.5705 -0.4051 0.0743 0
M  V30 13 O -2.0863 -0.6431 -1.5426 0
M  V30 14 O -1.4685 -0.7714 0.6766 0
M  V30 15 C -1.5032 2.469 1.5262 0
M  V30 16 C -1.9627 3.6851 -0.6989 0
M  V30 17 C 3.4946 -1.7601 -0.2829 0
M  V30 18 C -1.9248 -2.1096 0.87 0
M  V30 19 C -2.09 3.7183 0.837 0
M  V30 20 C 4.5191 -2.7332 0.2195 0
M  V30 21 C -0.935 -3.1003 0.2513 0
M  V30 22 C -2.0711 -2.3663 2.3682 0
M  V30 23 H 0.7759 -1.618 -2.3262 0
M  V30 24 H 2.6956 1.5456 -0.1201 0
M  V30 25 H 0.0949 1.0149 1.2481 0
M  V30 26 H 0.3784 2.5971 0.5054 0
M  V30 27 H -2.0698 2.2826 -2.3496 0
M  V30 28 H -3.087 1.8777 -0.9477 0
M  V30 29 H 2.4278 -3.2223 -1.4682 0
M  V30 30 H 4.3515 -0.056 0.7383 0
M  V30 31 H -1.088 2.7531 2.5173 0
M  V30 32 H -2.3111 1.7254 1.7026 0
M  V30 33 H -0.9831 4.1131 -1.0031 0
M  V30 34 H -2.7572 4.3195 -1.1485 0
M  V30 35 H -2.9235 -2.2397 0.3968 0
M  V30 36 H -3.1624 3.8091 1.1163 0
M  V30 37 H -1.572 4.6266 1.2149 0
M  V30 38 H 4.8906 -2.4291 1.2213 0
M  V30 39 H 4.0812 -3.7502 0.3105 0
M  V30 40 H 5.3732 -2.7683 -0.4882 0
M  V30 41 H 0.0788 -2.953 0.681 0
M  V30 42 H -1.2634 -4.144 0.4431 0
M  V30 43 H -0.8822 -2.9528 -0.8469 0
M  V30 44 H -2.4517 -3.3942 2.5489 0
M  V30 45 H -1.0925 -2.2439 2.8804 0
M  V30 46 H -2.7928 -1.6425 2.803 0
M  V30 END ATOM
M  V30 BEGIN BOND
M  V30 1 2 1 2
M  V30 2 2 1 3
M  V30 3 1 1 4
M  V30 4 1 1 5
M  V30 5 2 4 6
M  V30 6 1 4 7
M  V30 7 1 5 8
M  V30 8 1 5 9
M  V30 9 1 5 10
M  V30 10 1 6 11
M  V30 11 2 7 12
M  V30 12 2 8 13
M  V30 13 1 8 14
M  V30 14 1 9 15
M  V30 15 1 10 16
M  V30 16 2 11 17
M  V30 17 1 14 18
M  V30 18 1 15 19
M  V30 19 1 17 20
M  V30 20 1 18 21
M  V30 21 1 18 22
M  V30 22 1 12 17
M  V30 23 1 16 19
M  V30 24 1 6 23
M  V30 25 1 7 24
M  V30 26 1 9 25
M  V30 27 1 9 26
M  V30 28 1 10 27
M  V30 29 1 10 28
M  V30 30 1 11 29
M  V30 31 1 12 30
M  V30 32 1 15 31
M  V30 33 1 15 32
M  V30 34 1 16 33
M  V30 35 1 16 34
M  V30 36 1 18 35
M  V30 37 1 19 36
M  V30 38 1 19 37
M  V30 39 1 20 38
M  V30 40 1 20 39
M  V30 41 1 20 40
M  V30 42 1 21 41
M  V30 43 1 21 42
M  V30 44 1 21 43
M  V30 45 1 22 44
M  V30 46 1 22 45
M  V30 47 1 22 46
M  V30 END BOND
M  V30 END CTAB
M  END
>  <Structure No>
6464

>  <LogS>
-4.62

>  <MMFF94 Energy>
11.137

$$$$
Compound 6465
Actelion Java MolfileCreator 2.0

  0  0  0  0  0  0              0 V3000
M  V30 BEGIN CTAB
M  V30 COUNTS 23 24 0 0 0
M  V30 BEGIN ATOM
M  V30 1 S -2.0812 -1.6647 0.1663 0
M  V30 2 O -3.4277 -1.2767 0.7097 0
M  V30 3 O -1.4874 -2.66 1.1237 0
M  V30 4 O -2.2749 -2.3799 -1.3408 0 CHG=-1
M  V30 5 C -1.0132 -0.2411 0.0153 0
M  V30 6 C -1.57 1.0624 -0.0591 0
M  V30 7 C 0.4048 -0.3803 0.0504 0
M  V30 8 N -2.9612 1.2763 -0.3298 0
M  V30 9 C -0.7448 2.1844 0.0805 0
M  V30 10 C 1.218 0.7779 0.1849 0
M  V30 11 C 1.046 -1.6338 -0.0731 0
M  V30 12 C 0.6303 2.045 0.2259 0
M  V30 13 C 2.6149 0.6571 0.263 0
M  V30 14 C 2.4375 -1.7361 -0.0017 0
M  V30 15 C 3.2186 -0.5963 0.1776 0
M  V30 16 H -3.3882 2.2198 -0.192 0
M  V30 17 H -3.5256 0.5734 -0.8545 0
M  V30 18 H -1.1708 3.1798 0.052 0
M  V30 19 H 0.4938 -2.5406 -0.2668 0
M  V30 20 H 1.2406 2.935 0.3273 0
M  V30 21 H 3.2406 1.5344 0.3788 0
M  V30 22 H 2.9127 -2.7041 -0.0964 0
M  V30 23 H 4.2962 -0.6826 0.2317 0
M  V30 END ATOM
M  V30 BEGIN BOND
M  V30 1 2 1 2
M  V30 2 2 1 3
M  V30 3 1 1 4
M  V30 4 1 1 5
M  V30 5 2 5 6
M  V30 6 1 5 7
M  V30 7 1 6 8
M  V30 8 1 6 9
M  V30 9 1 7 10
M  V30 10 2 7 11
M  V30 11 2 9 12
M  V30 12 2 10 13
M  V30 13 1 11 14
M  V30 14 1 13 15
M  V30 15 1 10 12
M  V30 16 2 14 15
M  V30 17 1 8 16
M  V30 18 1 8 17
M  V30 19 1 9 18
M  V30 20 1 11 19
M  V30 21 1 12 20
M  V30 22 1 13 21
M  V30 23 1 14 22
M  V30 24 1 15 23
M  V30 END BOND
M  V30 END CTAB
M  END
>  <Structure No>
6465

>  <LogS>
-1.7

>  <MMFF94 Energy>
73.624

$$$$
Compound 6466
Actelion Java MolfileCreator 2.0

  0  0  0  0  0  0              0 V3000
M  V30 BEGIN CTAB
M  V30 COUNTS 33 34 0 0 0
M  V30 BEGIN ATOM
M  V30 1 O -0.1598 -3.1203 0.2397 0
M  V30 2 C -0.1219 -1.8645 0.3461 0
M  V30 3 C -1.3431 -1.0742 0.062 0
M  V30 4 C 1.136 -1.233 0.7948 0
M  V30 5 C -1.5709 0.1577 0.7012 0
M  V30 6 C -2.3123 -1.5688 -0.8272 0
M  V30 7 N 1.7095 -0.1314 0.2523 0
M  V30 8 C 1.9129 -1.7127 1.8326 0
M  V30 9 C -2.7292 0.8924 0.4327 0
M  V30 10 C -3.4708 -0.8333 -1.0947 0
M  V30 11 C 2.8225 0.1176 0.9812 0
M  V30 12 C 1.2405 0.6367 -0.9033 0
M  V30 13 C 2.9826 -0.8507 1.9551 0
M  V30 14 C -3.6776 0.41 -0.4804 0
M  V30 15 C 3.7929 1.237 0.732 0
M  V30 16 C -4.9386 1.1802 -0.7381 0
M  V30 17 C 4.8685 0.792 -0.2061 0
M  V30 18 O 5.8103 0.0668 0.2098 0
M  V30 19 O 4.8188 1.1516 -1.5467 0 CHG=-1
M  V30 20 H -0.8591 0.5485 1.4175 0
M  V30 21 H -2.1699 -2.5213 -1.3227 0
M  V30 22 H 1.7159 -2.584 2.4432 0
M  V30 23 H -2.8875 1.8363 0.9397 0
M  V30 24 H -4.2057 -1.2335 -1.7821 0
M  V30 25 H 0.5904 0.016 -1.5535 0
M  V30 26 H 2.0996 0.9667 -1.522 0
M  V30 27 H 0.6783 1.5286 -0.557 0
M  V30 28 H 3.7901 -0.9239 2.6715 0
M  V30 29 H 3.2647 2.1194 0.3135 0
M  V30 30 H 4.2516 1.5534 1.6935 0
M  V30 31 H -5.3102 0.9903 -1.7677 0
M  V30 32 H -4.7591 2.2717 -0.6343 0
M  V30 33 H -5.7162 0.8701 -0.0093 0
M  V30 END ATOM
M  V30 BEGIN BOND
M  V30 1 2 1 2
M  V30 2 1 2 3
M  V30 3 1 2 4
M  V30 4 2 3 5
M  V30 5 1 3 6
M  V30 6 1 4 7
M  V30 7 2 4 8
M  V30 8 1 5 9
M  V30 9 2 6 10
M  V30 10 1 7 11
M  V30 11 1 7 12
M  V30 12 1 8 13
M  V30 13 2 9 14
M  V30 14 1 11 15
M  V30 15 1 14 16
M  V30 16 1 15 17
M  V30 17 2 17 18
M  V30 18 1 17 19
M  V30 19 1 10 14
M  V30 20 2 11 13
M  V30 21 1 5 20
M  V30 22 1 6 21
M  V30 23 1 8 22
M  V30 24 1 9 23
M  V30 25 1 10 24
M  V30 26 1 12 25
M  V30 27 1 12 26
M  V30 28 1 12 27
M  V30 29 1 13 28
M  V30 30 1 15 29
M  V30 31 1 15 30
M  V30 32 1 16 31
M  V30 33 1 16 32
M  V30 34 1 16 33
M  V30 END BOND
M  V30 END CTAB
M  END
>  <Structure No>
6466

>  <LogS>
-4.09

>  <MMFF94 Energy>
96.497

$$$$
Compound 6467
Actelion Java MolfileCreator 2.0

  0  0  0  0  0  0              0 V3000
M  V30 BEGIN CTAB
M  V30 COUNTS 32 33 0 0 0
M  V30 BEGIN ATOM
M  V30 1 O -4.2967 -0.5666 -0.6476 0
M  V30 2 N -3.3735 -1.4038 -0.595 0 CHG=1
M  V30 3 O -3.6847 -2.7402 -0.6968 0 CHG=-1
M  V30 4 C -2.0028 -0.9788 -0.659 0
M  V30 5 C -1.549 0.1642 0.0315 0
M  V30 6 C -1.0907 -1.7205 -1.4258 0
M  V30 7 N -2.4047 0.9072 0.9014 0
M  V30 8 C -0.2141 0.5616 -0.0852 0
M  V30 9 C 0.2567 -1.3379 -1.5318 0
M  V30 10 C -3.6907 1.2013 1.6038 0
M  V30 11 C -2.6177 2.0228 1.8709 0
M  V30 12 C 0.6951 -0.1729 -0.8583 0
M  V30 13 N 1.1578 -2.153 -2.3055 0 CHG=1
M  V30 14 C 2.0711 0.345 -1.0093 0
M  V30 15 O 2.3542 -2.2754 -1.9712 0
M  V30 16 O 0.674 -2.9367 -3.3278 0 CHG=-1
M  V30 17 O 2.4863 0.6258 -2.1668 0
M  V30 18 N 2.9355 0.5382 0.1299 0
M  V30 19 C 4.1657 1.3183 -0.0313 0
M  V30 20 C 2.6397 -0.1162 1.4093 0
M  V30 21 H -1.4344 -2.6066 -1.9442 0
M  V30 22 H 0.1145 1.4593 0.4261 0
M  V30 23 H -3.9239 0.4228 2.3603 0
M  V30 24 H -4.4552 1.6045 0.9069 0
M  V30 25 H -2.5991 3.0073 1.3578 0
M  V30 26 H -2.0705 1.8384 2.8194 0
M  V30 27 H 4.8316 0.8215 -0.7681 0
M  V30 28 H 3.9158 2.338 -0.3933 0
M  V30 29 H 4.7165 1.4202 0.9272 0
M  V30 30 H 2.4331 -1.1945 1.2422 0
M  V30 31 H 1.7578 0.3588 1.885 0
M  V30 32 H 3.4936 -0.0398 2.1146 0
M  V30 END ATOM
M  V30 BEGIN BOND
M  V30 1 2 1 2
M  V30 2 1 2 3
M  V30 3 1 2 4
M  V30 4 2 4 5
M  V30 5 1 4 6
M  V30 6 1 5 7
M  V30 7 1 5 8
M  V30 8 2 6 9
M  V30 9 1 7 10
M  V30 10 1 7 11
M  V30 11 2 8 12
M  V30 12 1 9 13
M  V30 13 1 12 14
M  V30 14 2 13 15
M  V30 15 1 13 16
M  V30 16 2 14 17
M  V30 17 1 14 18
M  V30 18 1 18 19
M  V30 19 1 18 20
M  V30 20 1 9 12
M  V30 21 1 10 11
M  V30 22 1 6 21
M  V30 23 1 8 22
M  V30 24 1 10 23
M  V30 25 1 10 24
M  V30 26 1 11 25
M  V30 27 1 11 26
M  V30 28 1 19 27
M  V30 29 1 19 28
M  V30 30 1 19 29
M  V30 31 1 20 30
M  V30 32 1 20 31
M  V30 33 1 20 32
M  V30 END BOND
M  V30 END CTAB
M  END
>  <Structure No>
6467

>  <LogS>
-2.48

>  <MMFF94 Energy>
67.107

$$$$
Compound 6468
Actelion Java MolfileCreator 2.0

  0  0  0  0  0  0              0 V3000
M  V30 BEGIN CTAB
M  V30 COUNTS 22 23 0 0 0
M  V30 BEGIN ATOM
M  V30 1 Cl 5.2882 0.3461 -0.4327 0
M  V30 2 C 3.5305 0.217 -0.3783 0
M  V30 3 C 2.7405 1.3702 -0.232 0
M  V30 4 C 2.9099 -1.0396 -0.4811 0
M  V30 5 Cl 3.4703 2.965 -0.0938 0
M  V30 6 C 1.3463 1.2639 -0.1897 0
M  V30 7 Cl 3.8549 -2.5112 -0.671 0
M  V30 8 C 1.5152 -1.1381 -0.4371 0
M  V30 9 C 0.7191 0.0106 -0.2914 0
M  V30 10 C -0.7615 -0.098 -0.2456 0
M  V30 11 C -1.3807 -1.1389 0.4715 0
M  V30 12 C -1.5691 0.838 -0.9186 0
M  V30 13 C -2.7746 -1.2392 0.5136 0
M  V30 14 C -2.9625 0.7335 -0.8746 0
M  V30 15 C -3.5663 -0.304 -0.1588 0
M  V30 16 Cl -5.3149 -0.4324 -0.1047 0
M  V30 17 H 0.754 2.1612 -0.059 0
M  V30 18 H 1.0534 -2.1128 -0.5353 0
M  V30 19 H -0.788 -1.8647 1.0139 0
M  V30 20 H -1.1231 1.6401 -1.4931 0
M  V30 21 H -3.2379 -2.0423 1.0725 0
M  V30 22 H -3.5715 1.4579 -1.4001 0
M  V30 END ATOM
M  V30 BEGIN BOND
M  V30 1 1 1 2
M  V30 2 2 2 3
M  V30 3 1 2 4
M  V30 4 1 3 5
M  V30 5 1 3 6
M  V30 6 1 4 7
M  V30 7 2 4 8
M  V30 8 2 6 9
M  V30 9 1 9 10
M  V30 10 2 10 11
M  V30 11 1 10 12
M  V30 12 1 11 13
M  V30 13 2 12 14
M  V30 14 2 13 15
M  V30 15 1 15 16
M  V30 16 1 8 9
M  V30 17 1 14 15
M  V30 18 1 6 17
M  V30 19 1 8 18
M  V30 20 1 11 19
M  V30 21 1 12 20
M  V30 22 1 13 21
M  V30 23 1 14 22
M  V30 END BOND
M  V30 END CTAB
M  END
>  <Structure No>
6468

>  <LogS>
-7.96

>  <MMFF94 Energy>
41.906

$$$$
Compound 6469
Actelion Java MolfileCreator 2.0

  0  0  0  0  0  0              0 V3000
M  V30 BEGIN CTAB
M  V30 COUNTS 25 26 0 0 0
M  V30 BEGIN ATOM
M  V30 1 F 1.0651 -1.475 1.885 0
M  V30 2 C 1.8388 -0.9181 0.9188 0
M  V30 3 C 1.2861 -0.0315 -0.028 0
M  V30 4 C 3.2072 -1.2076 0.8966 0
M  V30 5 C -0.1633 0.2847 -0.0245 0
M  V30 6 C 2.1322 0.5599 -0.9841 0
M  V30 7 C 4.0356 -0.6191 -0.062 0
M  V30 8 C -1.1192 -0.7416 0.0586 0
M  V30 9 C -0.596 1.6149 -0.1216 0
M  V30 10 C 3.4983 0.265 -1.0002 0
M  V30 11 F 5.3613 -0.9028 -0.0788 0
M  V30 12 C -2.4986 -0.4532 0.0576 0
M  V30 13 C -1.9577 1.9154 -0.1232 0
M  V30 14 C -2.9136 0.8947 -0.033 0
M  V30 15 C -3.4792 -1.5667 0.1477 0
M  V30 16 O -4.2684 1.2268 -0.0348 0
M  V30 17 O -3.082 -2.759 0.2393 0
M  V30 18 O -4.8473 -1.3217 0.1331 0 CHG=-1
M  V30 19 H 3.6273 -1.8853 1.6289 0
M  V30 20 H 1.7325 1.2386 -1.7276 0
M  V30 21 H -0.7836 -1.7704 0.1061 0
M  V30 22 H 0.1214 2.4241 -0.1817 0
M  V30 23 H 4.1398 0.7213 -1.7432 0
M  V30 24 H -2.2717 2.9493 -0.1928 0
M  V30 25 H -4.5816 2.1885 -0.0995 0
M  V30 END ATOM
M  V30 BEGIN BOND
M  V30 1 1 1 2
M  V30 2 2 2 3
M  V30 3 1 2 4
M  V30 4 1 3 5
M  V30 5 1 3 6
M  V30 6 2 4 7
M  V30 7 2 5 8
M  V30 8 1 5 9
M  V30 9 2 6 10
M  V30 10 1 7 11
M  V30 11 1 8 12
M  V30 12 2 9 13
M  V30 13 2 12 14
M  V30 14 1 12 15
M  V30 15 1 14 16
M  V30 16 2 15 17
M  V30 17 1 15 18
M  V30 18 1 7 10
M  V30 19 1 13 14
M  V30 20 1 4 19
M  V30 21 1 6 20
M  V30 22 1 8 21
M  V30 23 1 9 22
M  V30 24 1 10 23
M  V30 25 1 13 24
M  V30 26 1 16 25
M  V30 END BOND
M  V30 END CTAB
M  END
>  <Structure No>
6469

>  <LogS>
-4.61

>  <MMFF94 Energy>
24.951

$$$$
Compound 6470
Actelion Java MolfileCreator 2.0

  0  0  0  0  0  0              0 V3000
M  V30 BEGIN CTAB
M  V30 COUNTS 62 65 0 0 0
M  V30 BEGIN ATOM
M  V30 1 F -1.9507 2.2761 -0.8937 0
M  V30 2 C -2.144 0.9662 -0.4699 0 CFG=1
M  V30 3 C -3.7018 0.7158 -0.4062 0 CFG=2
M  V30 4 C -1.449 0.008 -1.5027 0 CFG=1
M  V30 5 C -1.4818 0.8318 0.9341 0 CFG=2
M  V30 6 C -3.9639 -0.6017 0.3332 0
M  V30 7 C -4.2802 0.7301 -1.8207 0
M  V30 8 C -4.4341 1.8507 0.3513 0
M  V30 9 O -1.4866 0.5906 -2.7831 0
M  V30 10 C 0.0112 -0.3903 -1.1573 0
M  V30 11 C 0.031 1.2414 0.8507 0 CFG=2
M  V30 12 C -1.7994 -0.5477 1.5892 0
M  V30 13 C -4.8145 -1.5272 -0.1395 0
M  V30 14 C -3.3057 -0.8094 1.6738 0
M  V30 15 C -5.1092 -0.2083 -2.2784 0
M  V30 16 C 0.8388 0.677 -0.377 0 CFG=1
M  V30 17 C 0.8407 0.9222 2.1185 0
M  V30 18 C -5.4497 -1.3636 -1.4489 0
M  V30 19 C 2.1558 0.0589 0.2613 0 CFG=2
M  V30 20 C 1.1878 1.8188 -1.3764 0
M  V30 21 C 1.7539 -0.2303 1.7312 0 CFG=1
M  V30 22 O -6.2698 -2.2234 -1.8669 0
M  V30 23 O 3.2275 0.9857 0.2333 0
M  V30 24 C 2.6561 -1.2109 -0.4366 0
M  V30 25 C 2.94 -0.3895 2.6941 0
M  V30 26 O 2.2766 -2.3142 -0.0689 0
M  V30 27 C 3.6395 -1.141 -1.57 0
M  V30 28 O 4.959 -1.2533 -1.0495 0
M  V30 29 C 6.0935 -1.2683 -1.8644 0
M  V30 30 O 5.9868 -1.2043 -3.1189 0
M  V30 31 C 7.4453 -1.311 -1.2369 0
M  V30 32 H -2.0253 -0.9472 -1.5328 0
M  V30 33 H -1.9389 1.5898 1.6056 0
M  V30 34 H -4.065 1.5778 -2.4605 0
M  V30 35 H -4.1123 1.9408 1.4066 0
M  V30 36 H -4.2664 2.8326 -0.1406 0
M  V30 37 H -5.5297 1.6588 0.3606 0
M  V30 38 H -1.4193 -0.1477 -3.4438 0
M  V30 39 H 0.5427 -0.6562 -2.0984 0
M  V30 40 H -0.0103 -1.3375 -0.5886 0
M  V30 41 H 0.0217 2.3541 0.7802 0
M  V30 42 H -1.4196 -0.5955 2.627 0
M  V30 43 H -1.336 -1.3891 1.0488 0
M  V30 44 H -5.0226 -2.4261 0.4285 0
M  V30 45 H -3.7641 -0.1266 2.4201 0
M  V30 46 H -3.4603 -1.8465 2.0453 0
M  V30 47 H -5.5272 -0.1181 -3.2733 0
M  V30 48 H 0.23 0.6915 3.0127 0
M  V30 49 H 1.447 1.8122 2.4001 0
M  V30 50 H 1.6871 2.6731 -0.8747 0
M  V30 51 H 0.2826 2.2294 -1.8617 0
M  V30 52 H 1.855 1.4458 -2.1795 0
M  V30 53 H 1.1437 -1.1601 1.7839 0
M  V30 54 H 2.9821 1.7945 0.7508 0
M  V30 55 H 3.6037 -1.209 2.3466 0
M  V30 56 H 2.5661 -0.648 3.708 0
M  V30 57 H 3.5335 0.5459 2.7688 0
M  V30 58 H 3.4424 -1.9677 -2.2865 0
M  V30 59 H 3.537 -0.1797 -2.1145 0
M  V30 60 H 8.1682 -1.8158 -1.9129 0
M  V30 61 H 7.7911 -0.275 -1.0386 0
M  V30 62 H 7.3991 -1.8705 -0.2791 0
M  V30 END ATOM
M  V30 BEGIN BOND
M  V30 1 1 1 2
M  V30 2 1 2 3
M  V30 3 1 2 4
M  V30 4 1 2 5
M  V30 5 1 3 6
M  V30 6 1 3 7
M  V30 7 1 3 8
M  V30 8 1 4 9
M  V30 9 1 4 10
M  V30 10 1 5 11
M  V30 11 1 5 12
M  V30 12 2 6 13
M  V30 13 1 6 14
M  V30 14 2 7 15
M  V30 15 1 10 16
M  V30 16 1 11 17
M  V30 17 1 13 18
M  V30 18 1 16 19
M  V30 19 1 16 20
M  V30 20 1 17 21
M  V30 21 2 18 22
M  V30 22 1 19 23
M  V30 23 1 19 24
M  V30 24 1 21 25
M  V30 25 2 24 26
M  V30 26 1 24 27
M  V30 27 1 27 28
M  V30 28 1 28 29
M  V30 29 2 29 30
M  V30 30 1 29 31
M  V30 31 1 11 16
M  V30 32 1 12 14
M  V30 33 1 15 18
M  V30 34 1 19 21
M  V30 35 1 4 32
M  V30 36 1 5 33
M  V30 37 1 7 34
M  V30 38 1 8 35
M  V30 39 1 8 36
M  V30 40 1 8 37
M  V30 41 1 9 38
M  V30 42 1 10 39
M  V30 43 1 10 40
M  V30 44 1 11 41
M  V30 45 1 12 42
M  V30 46 1 12 43
M  V30 47 1 13 44
M  V30 48 1 14 45
M  V30 49 1 14 46
M  V30 50 1 15 47
M  V30 51 1 17 48
M  V30 52 1 17 49
M  V30 53 1 20 50
M  V30 54 1 20 51
M  V30 55 1 20 52
M  V30 56 1 21 53
M  V30 57 1 23 54
M  V30 58 1 25 55
M  V30 59 1 25 56
M  V30 60 1 25 57
M  V30 61 1 27 58
M  V30 62 1 27 59
M  V30 63 1 31 60
M  V30 64 1 31 61
M  V30 65 1 31 62
M  V30 END BOND
M  V30 BEGIN COLLECTION
M  V30 MDLV30/STEABS ATOMS=(8 2 3 4 5 11 16 19 21)
M  V30 END COLLECTION
M  V30 END CTAB
M  END
>  <Structure No>
6470

>  <LogS>
-4.9

>  <MMFF94 Energy>
166.17

$$$$
Compound 6471
Actelion Java MolfileCreator 2.0

  0  0  0  0  0  0              0 V3000
M  V30 BEGIN CTAB
M  V30 COUNTS 22 23 0 0 0
M  V30 BEGIN ATOM
M  V30 1 Cl -0.1729 -2.5962 1.0379 0
M  V30 2 C -1.2481 -1.3519 0.4088 0
M  V30 3 C -0.7504 -0.1262 -0.0796 0
M  V30 4 C -2.6285 -1.5865 0.4229 0
M  V30 5 C 0.6985 0.1553 -0.112 0
M  V30 6 C -1.6487 0.8533 -0.5308 0
M  V30 7 C -3.5153 -0.6089 -0.0392 0
M  V30 8 C 1.5433 -0.4577 -1.0601 0
M  V30 9 C 1.2405 1.0634 0.8109 0
M  V30 10 C -3.0246 0.6109 -0.5131 0
M  V30 11 Cl -5.2432 -0.9105 -0.0173 0
M  V30 12 Cl 0.9114 -1.5628 -2.2763 0
M  V30 13 C 2.9134 -0.1695 -1.0607 0
M  V30 14 C 2.609 1.3452 0.8033 0
M  V30 15 C 3.4463 0.7277 -0.1298 0
M  V30 16 Cl 5.1638 1.0838 -0.1378 0
M  V30 17 H -3.0125 -2.5268 0.7984 0
M  V30 18 H -1.2817 1.8022 -0.9026 0
M  V30 19 H 0.603 1.5473 1.541 0
M  V30 20 H -3.7081 1.3717 -0.8682 0
M  V30 21 H 3.5634 -0.6389 -1.7884 0
M  V30 22 H 3.0169 2.0432 1.5232 0
M  V30 END ATOM
M  V30 BEGIN BOND
M  V30 1 1 1 2
M  V30 2 2 2 3
M  V30 3 1 2 4
M  V30 4 1 3 5
M  V30 5 1 3 6
M  V30 6 2 4 7
M  V30 7 2 5 8
M  V30 8 1 5 9
M  V30 9 2 6 10
M  V30 10 1 7 11
M  V30 11 1 8 12
M  V30 12 1 8 13
M  V30 13 2 9 14
M  V30 14 2 13 15
M  V30 15 1 15 16
M  V30 16 1 7 10
M  V30 17 1 14 15
M  V30 18 1 4 17
M  V30 19 1 6 18
M  V30 20 1 9 19
M  V30 21 1 10 20
M  V30 22 1 13 21
M  V30 23 1 14 22
M  V30 END BOND
M  V30 END CTAB
M  END
>  <Structure No>
6471

>  <LogS>
-6.51

>  <MMFF94 Energy>
33.599

$$$$
Compound 6472
Actelion Java MolfileCreator 2.0

  0  0  0  0  0  0              0 V3000
M  V30 BEGIN CTAB
M  V30 COUNTS 22 23 0 0 0
M  V30 BEGIN ATOM
M  V30 1 Cl 0.2594 -2.5965 -1.1245 0
M  V30 2 C 1.293 -1.2757 -0.5888 0
M  V30 3 C 0.7537 -0.0619 -0.1129 0
M  V30 4 C 2.6815 -1.4368 -0.6697 0
M  V30 5 C -0.7066 0.1376 0.0011 0
M  V30 6 C 1.6215 0.9712 0.2766 0
M  V30 7 C 3.5365 -0.4016 -0.2795 0
M  V30 8 C -1.3844 1.0726 -0.8092 0
M  V30 9 C -1.4306 -0.6072 0.9468 0
M  V30 10 C 3.0055 0.8016 0.1926 0
M  V30 11 Cl 5.2747 -0.6119 -0.385 0
M  V30 12 Cl -0.541 2.0118 -2.0364 0
M  V30 13 C -2.7661 1.2466 -0.6651 0
M  V30 14 C -2.8105 -0.427 1.0835 0
M  V30 15 C -3.4767 0.5004 0.278 0
M  V30 16 Cl -3.7046 -1.3631 2.267 0
M  V30 17 H 3.0963 -2.366 -1.0399 0
M  V30 18 H 1.2242 1.9072 0.6508 0
M  V30 19 H -0.9204 -1.3234 1.5797 0
M  V30 20 H 3.664 1.6054 0.4963 0
M  V30 21 H -3.2923 1.9588 -1.2879 0
M  V30 22 H -4.545 0.6426 0.3805 0
M  V30 END ATOM
M  V30 BEGIN BOND
M  V30 1 1 1 2
M  V30 2 2 2 3
M  V30 3 1 2 4
M  V30 4 1 3 5
M  V30 5 1 3 6
M  V30 6 2 4 7
M  V30 7 2 5 8
M  V30 8 1 5 9
M  V30 9 2 6 10
M  V30 10 1 7 11
M  V30 11 1 8 12
M  V30 12 1 8 13
M  V30 13 2 9 14
M  V30 14 2 13 15
M  V30 15 1 14 16
M  V30 16 1 7 10
M  V30 17 1 14 15
M  V30 18 1 4 17
M  V30 19 1 6 18
M  V30 20 1 9 19
M  V30 21 1 10 20
M  V30 22 1 13 21
M  V30 23 1 15 22
M  V30 END BOND
M  V30 END CTAB
M  END
>  <Structure No>
6472

>  <LogS>
-7.26

>  <MMFF94 Energy>
36.813

$$$$
Compound 6473
Actelion Java MolfileCreator 2.0

  0  0  0  0  0  0              0 V3000
M  V30 BEGIN CTAB
M  V30 COUNTS 22 23 0 0 0
M  V30 BEGIN ATOM
M  V30 1 Cl 0.6054 0.0 2.7697 0
M  V30 2 C 1.4641 0.0709 1.2344 0
M  V30 3 C 0.7797 0.0211 0.0018 0
M  V30 4 C 2.8619 0.1488 1.2519 0
M  V30 5 C -0.6961 -0.0458 -0.0553 0
M  V30 6 C 1.5133 0.053 -1.1956 0
M  V30 7 C 3.582 0.1793 0.0555 0
M  V30 8 C -1.3596 -1.1892 -0.5479 0
M  V30 9 C -1.4517 1.0579 0.3737 0
M  V30 10 C 2.9092 0.1305 -1.1682 0
M  V30 11 Cl -0.4721 -2.6178 -1.0685 0
M  V30 12 C -2.7584 -1.2134 -0.6017 0
M  V30 13 C -2.8485 1.0245 0.3166 0
M  V30 14 Cl 3.8152 0.1687 -2.6695 0
M  V30 15 C -3.5005 -0.1105 -0.1719 0
M  V30 16 Cl -3.7819 2.4083 0.8559 0
M  V30 17 H 3.3926 0.1818 2.195 0
M  V30 18 H 0.9988 0.0224 -2.1486 0
M  V30 19 H 4.6625 0.2389 0.0809 0
M  V30 20 H -0.9536 1.9447 0.7476 0
M  V30 21 H -3.2731 -2.0902 -0.9736 0
M  V30 22 H -4.5817 -0.1405 -0.2173 0
M  V30 END ATOM
M  V30 BEGIN BOND
M  V30 1 1 1 2
M  V30 2 2 2 3
M  V30 3 1 2 4
M  V30 4 1 3 5
M  V30 5 1 3 6
M  V30 6 2 4 7
M  V30 7 2 5 8
M  V30 8 1 5 9
M  V30 9 2 6 10
M  V30 10 1 8 11
M  V30 11 1 8 12
M  V30 12 2 9 13
M  V30 13 1 10 14
M  V30 14 2 12 15
M  V30 15 1 13 16
M  V30 16 1 7 10
M  V30 17 1 13 15
M  V30 18 1 4 17
M  V30 19 1 6 18
M  V30 20 1 7 19
M  V30 21 1 9 20
M  V30 22 1 12 21
M  V30 23 1 15 22
M  V30 END BOND
M  V30 END CTAB
M  END
>  <Structure No>
6473

>  <LogS>
-7.04

>  <MMFF94 Energy>
40.038

$$$$
Compound 6474
Actelion Java MolfileCreator 2.0

  0  0  0  0  0  0              0 V3000
M  V30 BEGIN CTAB
M  V30 COUNTS 22 23 0 0 0
M  V30 BEGIN ATOM
M  V30 1 Cl 3.4679 -2.6868 -1.5595 0
M  V30 2 C 2.7073 -1.2941 -0.7859 0
M  V30 3 C 3.5064 -0.2719 -0.2412 0
M  V30 4 C 1.303 -1.2031 -0.72 0
M  V30 5 Cl 5.2657 -0.3803 -0.3194 0
M  V30 6 C 2.9 0.8415 0.3613 0
M  V30 7 Cl 0.3106 -2.4577 -1.4716 0
M  V30 8 C 0.6994 -0.0875 -0.0993 0
M  V30 9 Cl 3.8603 2.1453 1.0493 0
M  V30 10 C 1.5085 0.9294 0.4269 0
M  V30 11 C -0.771 0.0421 0.0106 0
M  V30 12 C -1.5248 -0.9311 0.6887 0
M  V30 13 C -1.4231 1.1638 -0.5288 0
M  V30 14 C -2.9115 -0.7933 0.8054 0
M  V30 15 C -2.8099 1.2976 -0.4099 0
M  V30 16 C -3.5538 0.319 0.2549 0
M  V30 17 H 1.0539 1.7901 0.9034 0
M  V30 18 H -1.0382 -1.7903 1.1333 0
M  V30 19 H -0.8587 1.9291 -1.0475 0
M  V30 20 H -3.4876 -1.5469 1.3264 0
M  V30 21 H -3.3081 2.1606 -0.8324 0
M  V30 22 H -4.627 0.4246 0.3468 0
M  V30 END ATOM
M  V30 BEGIN BOND
M  V30 1 1 1 2
M  V30 2 2 2 3
M  V30 3 1 2 4
M  V30 4 1 3 5
M  V30 5 1 3 6
M  V30 6 1 4 7
M  V30 7 2 4 8
M  V30 8 1 6 9
M  V30 9 2 6 10
M  V30 10 1 8 11
M  V30 11 2 11 12
M  V30 12 1 11 13
M  V30 13 1 12 14
M  V30 14 2 13 15
M  V30 15 2 14 16
M  V30 16 1 8 10
M  V30 17 1 15 16
M  V30 18 1 10 17
M  V30 19 1 12 18
M  V30 20 1 13 19
M  V30 21 1 14 20
M  V30 22 1 15 21
M  V30 23 1 16 22
M  V30 END BOND
M  V30 END CTAB
M  END
>  <Structure No>
6474

>  <LogS>
-7.16

>  <MMFF94 Energy>
54.683

$$$$
Compound 6475
Actelion Java MolfileCreator 2.0

  0  0  0  0  0  0              0 V3000
M  V30 BEGIN CTAB
M  V30 COUNTS 45 48 0 0 0
M  V30 BEGIN ATOM
M  V30 1 N 4.4143 0.0 0.7213 0 CHG=1
M  V30 2 C 3.451 -0.344 -0.3397 0
M  V30 3 C 4.2962 1.3974 1.1528 0
M  V30 4 C 2.0207 -0.5218 0.2014 0
M  V30 5 C 1.0568 -0.9985 -0.914 0
M  V30 6 C -0.4338 -0.5986 -0.7053 0 CFG=2
M  V30 7 C -1.0951 -1.1715 0.5662 0
M  V30 8 C -0.6883 0.9263 -0.6983 0
M  V30 9 C -1.3251 -1.1323 -1.876 0
M  V30 10 C -2.4318 -0.7523 0.7542 0
M  V30 11 C -0.579 -2.1816 1.3979 0
M  V30 12 C -2.0374 1.2824 -0.4833 0
M  V30 13 C 0.2377 1.9344 -1.0267 0
M  V30 14 C -2.8303 -0.7124 -1.6637 0
M  V30 15 C -3.1958 -1.2375 1.8194 0
M  V30 16 C -2.9886 0.1154 -0.3527 0 CFG=2
M  V30 17 C -1.3398 -2.6546 2.4745 0
M  V30 18 C -2.4429 2.6198 -0.5114 0
M  V30 19 C -0.1672 3.2749 -1.0395 0
M  V30 20 C -2.6359 -2.1724 2.6944 0
M  V30 21 C -1.4987 3.6171 -0.7725 0
M  V30 22 H 4.2918 -0.6323 1.5464 0
M  V30 23 H 5.381 -0.1418 0.3458 0
M  V30 24 H 3.4641 0.4284 -1.1411 0
M  V30 25 H 3.7666 -1.303 -0.8086 0
M  V30 26 H 3.3426 1.5667 1.6955 0
M  V30 27 H 5.1268 1.6431 1.849 0
M  V30 28 H 4.3596 2.0888 0.2842 0
M  V30 29 H 1.6674 0.4268 0.6481 0
M  V30 30 H 2.0554 -1.2653 1.0206 0
M  V30 31 H 1.1374 -2.1033 -1.0067 0
M  V30 32 H 1.3846 -0.5883 -1.8945 0
M  V30 33 H -1.2543 -2.2413 -1.9315 0
M  V30 34 H -0.9615 -0.726 -2.8458 0
M  V30 35 H 0.377 -2.6406 1.2083 0
M  V30 36 H 1.2602 1.7036 -1.2845 0
M  V30 37 H -3.1789 -0.108 -2.5297 0
M  V30 38 H -3.4709 -1.6198 -1.6101 0
M  V30 39 H -4.2205 -0.9155 1.9541 0
M  V30 40 H -4.0406 0.4283 -0.1744 0
M  V30 41 H -0.9341 -3.4185 3.1251 0
M  V30 42 H -3.4804 2.8843 -0.3528 0
M  V30 43 H 0.5498 4.0509 -1.2742 0
M  V30 44 H -3.2211 -2.5559 3.5203 0
M  V30 45 H -1.8039 4.6552 -0.7968 0
M  V30 END ATOM
M  V30 BEGIN BOND
M  V30 1 1 1 2
M  V30 2 1 1 3
M  V30 3 1 2 4
M  V30 4 1 4 5
M  V30 5 1 5 6
M  V30 6 1 6 7
M  V30 7 1 6 8
M  V30 8 1 6 9
M  V30 9 2 7 10
M  V30 10 1 7 11
M  V30 11 2 8 12
M  V30 12 1 8 13
M  V30 13 1 9 14
M  V30 14 1 10 15
M  V30 15 1 10 16
M  V30 16 2 11 17
M  V30 17 1 12 18
M  V30 18 2 13 19
M  V30 19 2 15 20
M  V30 20 2 18 21
M  V30 21 1 12 16
M  V30 22 1 14 16
M  V30 23 1 17 20
M  V30 24 1 19 21
M  V30 25 1 1 22
M  V30 26 1 1 23
M  V30 27 1 2 24
M  V30 28 1 2 25
M  V30 29 1 3 26
M  V30 30 1 3 27
M  V30 31 1 3 28
M  V30 32 1 4 29
M  V30 33 1 4 30
M  V30 34 1 5 31
M  V30 35 1 5 32
M  V30 36 1 9 33
M  V30 37 1 9 34
M  V30 38 1 11 35
M  V30 39 1 13 36
M  V30 40 1 14 37
M  V30 41 1 14 38
M  V30 42 1 15 39
M  V30 43 1 16 40
M  V30 44 1 17 41
M  V30 45 1 18 42
M  V30 46 1 19 43
M  V30 47 1 20 44
M  V30 48 1 21 45
M  V30 END BOND
M  V30 BEGIN COLLECTION
M  V30 MDLV30/STEABS ATOMS=(2 6 16)
M  V30 END COLLECTION
M  V30 END CTAB
M  END
>  <Structure No>
6475

>  <LogS>
-4.69

>  <MMFF94 Energy>
98.848

$$$$
Compound 6476
Actelion Java MolfileCreator 2.0

  0  0  0  0  0  0              0 V3000
M  V30 BEGIN CTAB
M  V30 COUNTS 36 36 0 0 0
M  V30 BEGIN ATOM
M  V30 1 O -3.216 3.8602 1.0443 0
M  V30 2 N -3.7749 2.8611 1.5431 0 CHG=1
M  V30 3 O -4.8436 3.0635 2.3855 0 CHG=-1
M  V30 4 C -3.2861 1.5324 1.2583 0
M  V30 5 C -3.9789 0.3813 1.6978 0
M  V30 6 C -2.0932 1.3678 0.5279 0
M  V30 7 O -5.1705 0.496 2.4065 0 CHG=-1
M  V30 8 C -3.4691 -0.8987 1.4208 0
M  V30 9 C -1.6009 0.092 0.2232 0
M  V30 10 O -4.1264 -2.0472 1.862 0
M  V30 11 C -2.2838 -1.0376 0.6964 0
M  V30 12 C -0.3229 -0.0285 -0.5158 0
M  V30 13 C -0.092 -0.897 -1.5172 0
M  V30 14 C -1.1485 -1.7156 -2.0679 0
M  V30 15 C 1.2328 -0.9371 -2.1726 0
M  V30 16 N -1.9935 -2.371 -2.5104 0
M  V30 17 O 1.2935 -1.1443 -3.4154 0
M  V30 18 N 2.4513 -0.7517 -1.4219 0
M  V30 19 C 3.5821 -0.0577 -2.0539 0
M  V30 20 C 2.6583 -1.4884 -0.1647 0
M  V30 21 C 3.3205 1.4433 -2.1036 0
M  V30 22 C 3.0158 -0.5495 0.9868 0
M  V30 23 H -1.5442 2.237 0.186 0
M  V30 24 H -4.9879 -2.0061 2.3931 0
M  V30 25 H -1.888 -2.0304 0.5235 0
M  V30 26 H 0.4459 0.6934 -0.2709 0
M  V30 27 H 4.523 -0.2397 -1.4912 0
M  V30 28 H 3.7431 -0.4436 -3.0834 0
M  V30 29 H 1.7457 -2.0578 0.1156 0
M  V30 30 H 3.4756 -2.2286 -0.3029 0
M  V30 31 H 2.4183 1.6567 -2.7151 0
M  V30 32 H 4.1913 1.9596 -2.5593 0
M  V30 33 H 3.1658 1.8373 -1.0768 0
M  V30 34 H 3.981 -0.0374 0.7948 0
M  V30 35 H 2.2243 0.2122 1.1324 0
M  V30 36 H 3.1145 -1.1366 1.9239 0
M  V30 END ATOM
M  V30 BEGIN BOND
M  V30 1 2 1 2
M  V30 2 1 2 3
M  V30 3 1 2 4
M  V30 4 2 4 5
M  V30 5 1 4 6
M  V30 6 1 5 7
M  V30 7 1 5 8
M  V30 8 2 6 9
M  V30 9 1 8 10
M  V30 10 2 8 11
M  V30 11 1 9 12
M  V30 12 2 12 13
M  V30 13 1 13 14
M  V30 14 1 13 15
M  V30 15 3 14 16
M  V30 16 2 15 17
M  V30 17 1 15 18
M  V30 18 1 18 19
M  V30 19 1 18 20
M  V30 20 1 19 21
M  V30 21 1 20 22
M  V30 22 1 9 11
M  V30 23 1 6 23
M  V30 24 1 10 24
M  V30 25 1 11 25
M  V30 26 1 12 26
M  V30 27 1 19 27
M  V30 28 1 19 28
M  V30 29 1 20 29
M  V30 30 1 20 30
M  V30 31 1 21 31
M  V30 32 1 21 32
M  V30 33 1 21 33
M  V30 34 1 22 34
M  V30 35 1 22 35
M  V30 36 1 22 36
M  V30 END BOND
M  V30 END CTAB
M  END
>  <Structure No>
6476

>  <LogS>
-4.26

>  <MMFF94 Energy>
33.814

$$$$
Compound 6477
Actelion Java MolfileCreator 2.0

  0  0  0  0  0  0              0 V3000
M  V30 BEGIN CTAB
M  V30 COUNTS 28 29 0 0 0
M  V30 BEGIN ATOM
M  V30 1 Cl -4.6736 2.5473 1.273 0
M  V30 2 C -3.3736 1.4882 0.7582 0
M  V30 3 C -2.6041 0.8119 1.7085 0
M  V30 4 C -3.1019 1.324 -0.6023 0
M  V30 5 C -1.5665 -0.0314 1.3013 0
M  V30 6 C -2.0656 0.4816 -1.0143 0
M  V30 7 C -1.2924 -0.2176 -0.0686 0
M  V30 8 C -0.1496 -1.1018 -0.5418 0
M  V30 9 C 1.1706 -0.3645 -0.3831 0
M  V30 10 C -0.1492 -2.5026 0.1166 0
M  V30 11 C 1.799 -0.2322 0.8714 0
M  V30 12 C 1.7587 0.2535 -1.5025 0
M  V30 13 Cl -1.6954 -3.3433 -0.1863 0
M  V30 14 Cl 1.1623 -3.5138 -0.5514 0
M  V30 15 C 2.997 0.4778 0.9933 0
M  V30 16 C 2.9565 0.9627 -1.3759 0
M  V30 17 C 3.5776 1.0735 -0.1293 0
M  V30 18 Cl 5.0799 1.9655 0.0276 0
M  V30 19 H -2.8068 0.9414 2.7642 0
M  V30 20 H -3.6907 1.8515 -1.3421 0
M  V30 21 H -0.984 -0.5342 2.0596 0
M  V30 22 H -1.866 0.377 -2.0735 0
M  V30 23 H -0.3003 -1.3026 -1.6272 0
M  V30 24 H -0.0054 -2.441 1.2136 0
M  V30 25 H 1.3703 -0.6746 1.7591 0
M  V30 26 H 1.2892 0.1889 -2.4763 0
M  V30 27 H 3.4712 0.5668 1.9624 0
M  V30 28 H 3.3986 1.4285 -2.2474 0
M  V30 END ATOM
M  V30 BEGIN BOND
M  V30 1 1 1 2
M  V30 2 2 2 3
M  V30 3 1 2 4
M  V30 4 1 3 5
M  V30 5 2 4 6
M  V30 6 2 5 7
M  V30 7 1 7 8
M  V30 8 1 8 9
M  V30 9 1 8 10
M  V30 10 2 9 11
M  V30 11 1 9 12
M  V30 12 1 10 13
M  V30 13 1 10 14
M  V30 14 1 11 15
M  V30 15 2 12 16
M  V30 16 2 15 17
M  V30 17 1 17 18
M  V30 18 1 6 7
M  V30 19 1 16 17
M  V30 20 1 3 19
M  V30 21 1 4 20
M  V30 22 1 5 21
M  V30 23 1 6 22
M  V30 24 1 8 23
M  V30 25 1 10 24
M  V30 26 1 11 25
M  V30 27 1 12 26
M  V30 28 1 15 27
M  V30 29 1 16 28
M  V30 END BOND
M  V30 END CTAB
M  END
>  <Structure No>
6477

>  <LogS>
-7.2

>  <MMFF94 Energy>
75.642

$$$$
Compound 6478
Actelion Java MolfileCreator 2.0

  0  0  0  0  0  0              0 V3000
M  V30 BEGIN CTAB
M  V30 COUNTS 33 35 0 0 0
M  V30 BEGIN ATOM
M  V30 1 O -4.2553 -1.3896 2.4533 0
M  V30 2 N -3.9379 -0.8373 1.3796 0 CHG=1
M  V30 3 O -4.9321 -0.4678 0.5049 0 CHG=-1
M  V30 4 C -2.5641 -0.8076 0.9629 0
M  V30 5 C -2.0383 0.2867 0.2488 0
M  V30 6 C -1.7246 -1.8894 1.2719 0
M  V30 7 N -2.8153 1.458 -0.0064 0
M  V30 8 C -0.7069 0.2646 -0.1771 0
M  V30 9 C -0.3807 -1.9095 0.8656 0
M  V30 10 C -4.0422 2.308 0.0708 0
M  V30 11 C -2.9364 2.8422 -0.5535 0
M  V30 12 C 0.1291 -0.8263 0.1082 0
M  V30 13 N 0.4509 -3.0134 1.2649 0 CHG=1
M  V30 14 C 1.4995 -0.8372 -0.4512 0
M  V30 15 O 1.6283 -2.8178 1.6313 0
M  V30 16 O -0.101 -4.2607 1.4466 0 CHG=-1
M  V30 17 O 1.9517 -1.8937 -0.9715 0
M  V30 18 N 2.3082 0.3472 -0.423 0
M  V30 19 C 3.6207 0.3881 -1.061 0
M  V30 20 C 4.6518 1.2052 -0.3014 0
M  V30 21 C 4.7006 -0.314 -0.2552 0
M  V30 22 H -2.1208 -2.721 1.8413 0
M  V30 23 H -0.3307 1.1013 -0.7539 0
M  V30 24 H -4.2373 2.6415 1.1118 0
M  V30 25 H -4.8458 1.9327 -0.5969 0
M  V30 26 H -2.3276 3.56 0.0355 0
M  V30 27 H -2.9338 2.8346 -1.6638 0
M  V30 28 H 1.9355 1.2187 0.0169 0
M  V30 29 H 3.6916 0.3262 -2.1676 0
M  V30 30 H 5.4352 1.6628 -0.9414 0
M  V30 31 H 4.3 1.6732 0.643 0
M  V30 32 H 5.5128 -0.7592 -0.8675 0
M  V30 33 H 4.3722 -0.7482 0.7137 0
M  V30 END ATOM
M  V30 BEGIN BOND
M  V30 1 2 1 2
M  V30 2 1 2 3
M  V30 3 1 2 4
M  V30 4 2 4 5
M  V30 5 1 4 6
M  V30 6 1 5 7
M  V30 7 1 5 8
M  V30 8 2 6 9
M  V30 9 1 7 10
M  V30 10 1 7 11
M  V30 11 2 8 12
M  V30 12 1 9 13
M  V30 13 1 12 14
M  V30 14 2 13 15
M  V30 15 1 13 16
M  V30 16 2 14 17
M  V30 17 1 14 18
M  V30 18 1 18 19
M  V30 19 1 19 20
M  V30 20 1 19 21
M  V30 21 1 9 12
M  V30 22 1 10 11
M  V30 23 1 20 21
M  V30 24 1 6 22
M  V30 25 1 8 23
M  V30 26 1 10 24
M  V30 27 1 10 25
M  V30 28 1 11 26
M  V30 29 1 11 27
M  V30 30 1 18 28
M  V30 31 1 19 29
M  V30 32 1 20 30
M  V30 33 1 20 31
M  V30 34 1 21 32
M  V30 35 1 21 33
M  V30 END BOND
M  V30 END CTAB
M  END
>  <Structure No>
6478

>  <LogS>
-3.39

>  <MMFF94 Energy>
71.59

$$$$
Compound 6479
Actelion Java MolfileCreator 2.0

  0  0  0  0  0  0              0 V3000
M  V30 BEGIN CTAB
M  V30 COUNTS 20 21 0 0 0
M  V30 BEGIN ATOM
M  V30 1 Cl 4.7336 0.0859 0.0 0
M  V30 2 C 3.0013 -0.1887 0.0226 0
M  V30 3 C 2.12 0.8872 -0.1201 0
M  V30 4 C 2.4999 -1.4835 0.1839 0
M  V30 5 C 0.7366 0.6674 -0.1018 0
M  V30 6 C 1.1192 -1.7033 0.2021 0
M  V30 7 S -0.365 2.0052 -0.2765 0
M  V30 8 C 0.226 -0.633 0.0593 0
M  V30 9 O -0.1625 2.6722 -1.6073 0
M  V30 10 O -0.1659 2.9879 0.8423 0
M  V30 11 N -1.9505 1.3426 -0.1929 0 CHG=-1
M  V30 12 N -1.1861 -0.9103 0.0838 0
M  V30 13 C -2.1693 -0.0628 -0.0402 0
M  V30 14 C -3.5719 -0.5651 0.0499 0
M  V30 15 H 2.5093 1.8901 -0.2443 0
M  V30 16 H 3.1779 -2.3201 0.2952 0
M  V30 17 H 0.742 -2.7105 0.3275 0
M  V30 18 H -3.867 -0.6479 1.1166 0
M  V30 19 H -3.6552 -1.5627 -0.4311 0
M  V30 20 H -4.2633 0.1348 -0.4647 0
M  V30 END ATOM
M  V30 BEGIN BOND
M  V30 1 1 1 2
M  V30 2 2 2 3
M  V30 3 1 2 4
M  V30 4 1 3 5
M  V30 5 2 4 6
M  V30 6 1 5 7
M  V30 7 2 5 8
M  V30 8 2 7 9
M  V30 9 2 7 10
M  V30 10 1 7 11
M  V30 11 1 8 12
M  V30 12 1 11 13
M  V30 13 1 13 14
M  V30 14 1 6 8
M  V30 15 2 12 13
M  V30 16 1 3 15
M  V30 17 1 4 16
M  V30 18 1 6 17
M  V30 19 1 14 18
M  V30 20 1 14 19
M  V30 21 1 14 20
M  V30 END BOND
M  V30 END CTAB
M  END
>  <Structure No>
6479

>  <LogS>
-3.36

>  <MMFF94 Energy>
15.961

$$$$
Compound 6480
Actelion Java MolfileCreator 2.0

  0  0  0  0  0  0              0 V3000
M  V30 BEGIN CTAB
M  V30 COUNTS 36 36 0 0 0
M  V30 BEGIN ATOM
M  V30 1 Cl -3.9922 2.7434 -1.1632 0
M  V30 2 C -2.292 2.2811 -1.4225 0
M  V30 3 Cl -1.2472 3.2038 -0.3145 0
M  V30 4 C -2.1147 0.8113 -1.194 0
M  V30 5 O -1.6566 0.0948 -2.1247 0
M  V30 6 N -2.4535 0.2273 0.0744 0
M  V30 7 C -2.2142 -1.1852 0.394 0 CFG=1
M  V30 8 C -1.0135 -1.3128 1.3581 0 CFG=1
M  V30 9 C -3.4875 -1.7897 1.0112 0
M  V30 10 O -0.7543 -2.6696 1.6154 0
M  V30 11 C 0.2199 -0.6594 0.7685 0
M  V30 12 O -4.5725 -1.6522 0.1335 0
M  V30 13 C 0.8996 -1.2553 -0.3079 0
M  V30 14 C 0.6623 0.5825 1.2533 0
M  V30 15 C 2.0028 -0.6209 -0.8854 0
M  V30 16 C 1.7659 1.215 0.6746 0
M  V30 17 C 2.4355 0.6204 -0.4019 0
M  V30 18 S 3.8273 1.4175 -1.1264 0
M  V30 19 O 3.9346 1.0383 -2.5768 0
M  V30 20 O 3.6672 2.9088 -1.0287 0
M  V30 21 C 5.3042 0.9198 -0.2707 0
M  V30 22 H -2.0136 2.5427 -2.4655 0
M  V30 23 H -2.7879 0.8563 0.8398 0
M  V30 24 H -1.9888 -1.7593 -0.5319 0
M  V30 25 H -1.2846 -0.8088 2.3164 0
M  V30 26 H -3.3313 -2.8656 1.253 0
M  V30 27 H -3.7322 -1.2635 1.9589 0
M  V30 28 H -0.1564 -2.7016 2.4077 0
M  V30 29 H -4.4403 -2.3208 -0.5882 0
M  V30 30 H 0.5693 -2.2068 -0.7052 0
M  V30 31 H 0.1467 1.0682 2.0725 0
M  V30 32 H 2.5159 -1.0967 -1.7111 0
M  V30 33 H 2.0935 2.1709 1.0632 0
M  V30 34 H 6.1838 1.4205 -0.7247 0
M  V30 35 H 5.2275 1.2065 0.7984 0
M  V30 36 H 5.4246 -0.1803 -0.3486 0
M  V30 END ATOM
M  V30 BEGIN BOND
M  V30 1 1 1 2
M  V30 2 1 2 3
M  V30 3 1 2 4
M  V30 4 2 4 5
M  V30 5 1 4 6
M  V30 6 1 6 7
M  V30 7 1 7 8
M  V30 8 1 7 9
M  V30 9 1 8 10
M  V30 10 1 8 11
M  V30 11 1 9 12
M  V30 12 2 11 13
M  V30 13 1 11 14
M  V30 14 1 13 15
M  V30 15 2 14 16
M  V30 16 2 15 17
M  V30 17 1 17 18
M  V30 18 2 18 19
M  V30 19 2 18 20
M  V30 20 1 18 21
M  V30 21 1 16 17
M  V30 22 1 2 22
M  V30 23 1 6 23
M  V30 24 1 7 24
M  V30 25 1 8 25
M  V30 26 1 9 26
M  V30 27 1 9 27
M  V30 28 1 10 28
M  V30 29 1 12 29
M  V30 30 1 13 30
M  V30 31 1 14 31
M  V30 32 1 15 32
M  V30 33 1 16 33
M  V30 34 1 21 34
M  V30 35 1 21 35
M  V30 36 1 21 36
M  V30 END BOND
M  V30 BEGIN COLLECTION
M  V30 MDLV30/STEABS ATOMS=(2 7 8)
M  V30 END COLLECTION
M  V30 END CTAB
M  END
>  <Structure No>
6480

>  <LogS>
-2.15

>  <MMFF94 Energy>
121.67

$$$$
Compound 6481
Actelion Java MolfileCreator 2.0

  0  0  0  0  0  0              0 V3000
M  V30 BEGIN CTAB
M  V30 COUNTS 29 30 0 0 0
M  V30 BEGIN ATOM
M  V30 1 S 3.0408 -0.1641 1.4784 0
M  V30 2 C 3.2333 -0.5076 -0.1601 0
M  V30 3 C 4.6731 0.0314 1.8268 0
M  V30 4 C 2.1613 -0.8573 -1.1142 0
M  V30 5 C 4.5943 -0.4926 -0.4472 0
M  V30 6 C 5.3938 -0.1844 0.6602 0
M  V30 7 O 2.4716 -1.4329 -2.1922 0
M  V30 8 C 0.7345 -0.5758 -0.8383 0
M  V30 9 C 0.3374 0.6259 -0.2295 0
M  V30 10 C -0.2485 -1.4967 -1.2331 0
M  V30 11 C -1.0144 0.8862 0.0099 0
M  V30 12 C -1.6009 -1.2378 -0.9933 0
M  V30 13 C -1.9992 -0.0467 -0.3633 0
M  V30 14 C -3.469 0.2263 -0.1151 0 CFG=1
M  V30 15 C -3.7325 0.4198 1.3542 0
M  V30 16 C -3.9557 1.4246 -0.9386 0
M  V30 17 O -4.031 -0.5699 2.0731 0
M  V30 18 O -3.597 1.6726 1.9422 0 CHG=-1
M  V30 19 H 5.0927 0.2749 2.7934 0
M  V30 20 H 5.0024 -0.7 -1.4279 0
M  V30 21 H 6.4729 -0.1268 0.613 0
M  V30 22 H 1.0694 1.3756 0.0417 0
M  V30 23 H 0.0314 -2.4242 -1.7172 0
M  V30 24 H -1.292 1.8201 0.4811 0
M  V30 25 H -2.3369 -1.9698 -1.3015 0
M  V30 26 H -4.0707 -0.6498 -0.4466 0
M  V30 27 H -5.0439 1.5802 -0.7767 0
M  V30 28 H -3.7894 1.2327 -2.0201 0
M  V30 29 H -3.418 2.3547 -0.6565 0
M  V30 END ATOM
M  V30 BEGIN BOND
M  V30 1 1 1 2
M  V30 2 1 1 3
M  V30 3 1 2 4
M  V30 4 2 2 5
M  V30 5 2 3 6
M  V30 6 2 4 7
M  V30 7 1 4 8
M  V30 8 2 8 9
M  V30 9 1 8 10
M  V30 10 1 9 11
M  V30 11 2 10 12
M  V30 12 2 11 13
M  V30 13 1 13 14
M  V30 14 1 14 15
M  V30 15 1 14 16
M  V30 16 2 15 17
M  V30 17 1 15 18
M  V30 18 1 5 6
M  V30 19 1 12 13
M  V30 20 1 3 19
M  V30 21 1 5 20
M  V30 22 1 6 21
M  V30 23 1 9 22
M  V30 24 1 10 23
M  V30 25 1 11 24
M  V30 26 1 12 25
M  V30 27 1 14 26
M  V30 28 1 16 27
M  V30 29 1 16 28
M  V30 30 1 16 29
M  V30 END BOND
M  V30 BEGIN COLLECTION
M  V30 MDLV30/STEABS ATOMS=(1 14)
M  V30 END COLLECTION
M  V30 END CTAB
M  END
>  <Structure No>
6481

>  <LogS>
-2.0

>  <MMFF94 Energy>
94.125

$$$$
Compound 6482
Actelion Java MolfileCreator 2.0

  0  0  0  0  0  0              0 V3000
M  V30 BEGIN CTAB
M  V30 COUNTS 34 36 0 0 0
M  V30 BEGIN ATOM
M  V30 1 Cl -0.081 4.5445 -1.5401 0
M  V30 2 C 0.5981 3.038 -0.9523 0
M  V30 3 C -0.1874 1.8829 -0.9206 0
M  V30 4 C 1.9244 2.9922 -0.5188 0
M  V30 5 C 0.3458 0.67 -0.4504 0
M  V30 6 C 2.4679 1.7936 -0.0531 0
M  V30 7 C -0.5049 -0.5511 -0.428 0
M  V30 8 C 1.69 0.6233 -0.0173 0
M  V30 9 N -0.0473 -1.6855 -0.878 0
M  V30 10 C -1.8949 -0.4987 0.0962 0
M  V30 11 N 2.2497 -0.6026 0.4982 0
M  V30 12 C 1.288 -1.8789 -1.4379 0
M  V30 13 C -2.8677 -1.4018 -0.3739 0
M  V30 14 C -2.2574 0.4336 1.088 0
M  V30 15 C 2.3556 -1.8073 -0.3402 0
M  V30 16 C 3.0324 -0.5664 1.7352 0
M  V30 17 C -4.1737 -1.3599 0.1239 0
M  V30 18 C -3.5648 0.4706 1.5822 0
M  V30 19 C -4.5224 -0.4235 1.0995 0
M  V30 20 H -1.2118 1.9286 -1.27 0
M  V30 21 H 2.5361 3.8851 -0.5432 0
M  V30 22 H 3.4996 1.7755 0.2738 0
M  V30 23 H 1.4876 -1.123 -2.229 0
M  V30 24 H 1.3322 -2.8804 -1.9155 0
M  V30 25 H -2.6218 -2.1324 -1.1344 0
M  V30 26 H -1.5285 1.1244 1.4923 0
M  V30 27 H 3.3606 -1.834 -0.8136 0
M  V30 28 H 2.2556 -2.7114 0.2995 0
M  V30 29 H 2.6813 0.2556 2.3956 0
M  V30 30 H 2.9164 -1.5208 2.2909 0
M  V30 31 H 4.1056 -0.4123 1.4962 0
M  V30 32 H -4.9163 -2.0541 -0.2477 0
M  V30 33 H -3.8342 1.1909 2.344 0
M  V30 34 H -5.5338 -0.3934 1.484 0
M  V30 END ATOM
M  V30 BEGIN BOND
M  V30 1 1 1 2
M  V30 2 2 2 3
M  V30 3 1 2 4
M  V30 4 1 3 5
M  V30 5 2 4 6
M  V30 6 1 5 7
M  V30 7 2 5 8
M  V30 8 2 7 9
M  V30 9 1 7 10
M  V30 10 1 8 11
M  V30 11 1 9 12
M  V30 12 2 10 13
M  V30 13 1 10 14
M  V30 14 1 11 15
M  V30 15 1 11 16
M  V30 16 1 13 17
M  V30 17 2 14 18
M  V30 18 2 17 19
M  V30 19 1 6 8
M  V30 20 1 12 15
M  V30 21 1 18 19
M  V30 22 1 3 20
M  V30 23 1 4 21
M  V30 24 1 6 22
M  V30 25 1 12 23
M  V30 26 1 12 24
M  V30 27 1 13 25
M  V30 28 1 14 26
M  V30 29 1 15 27
M  V30 30 1 15 28
M  V30 31 1 16 29
M  V30 32 1 16 30
M  V30 33 1 16 31
M  V30 34 1 17 32
M  V30 35 1 18 33
M  V30 36 1 19 34
M  V30 END BOND
M  V30 END CTAB
M  END
>  <Structure No>
6482

>  <LogS>
-4.43

>  <MMFF94 Energy>
113.45

$$$$
Compound 6483
Actelion Java MolfileCreator 2.0

  0  0  0  0  0  0              0 V3000
M  V30 BEGIN CTAB
M  V30 COUNTS 30 32 0 0 0
M  V30 BEGIN ATOM
M  V30 1 O 0.7215 2.728 -1.604 0
M  V30 2 C -0.2584 2.0127 -1.261 0
M  V30 3 N -0.0511 0.8535 -0.4248 0
M  V30 4 N -1.561 2.349 -1.7478 0
M  V30 5 C -1.1507 0.1504 0.1643 0
M  V30 6 C 1.2714 0.4058 -0.1025 0
M  V30 7 C -1.3579 -1.2177 -0.1069 0
M  V30 8 C -2.0251 0.8312 1.0276 0
M  V30 9 C 1.6914 -0.8962 -0.4461 0
M  V30 10 C 2.1536 1.2676 0.5705 0
M  V30 11 C -0.499 -1.9842 -1.0388 0
M  V30 12 C -2.4708 -1.8652 0.4569 0
M  V30 13 C -3.113 0.1685 1.5978 0
M  V30 14 C 0.8268 -1.8436 -1.1872 0
M  V30 15 C 3.0082 -1.2899 -0.152 0
M  V30 16 C 3.4509 0.8536 0.8762 0
M  V30 17 C -3.3381 -1.1774 1.3095 0
M  V30 18 C 3.8794 -0.4223 0.5109 0
M  V30 19 H -2.3839 1.728 -1.5872 0
M  V30 20 H -1.6953 3.2068 -2.3278 0
M  V30 21 H -1.8613 1.8776 1.2533 0
M  V30 22 H 1.8312 2.2599 0.8606 0
M  V30 23 H -0.9678 -2.7968 -1.5821 0
M  V30 24 H -2.6643 -2.9094 0.2426 0
M  V30 25 H -3.7846 0.7001 2.2596 0
M  V30 26 H 1.3231 -2.5541 -1.8384 0
M  V30 27 H 3.3604 -2.2764 -0.429 0
M  V30 28 H 4.1254 1.5237 1.3934 0
M  V30 29 H -4.1864 -1.689 1.7455 0
M  V30 30 H 4.888 -0.7401 0.7412 0
M  V30 END ATOM
M  V30 BEGIN BOND
M  V30 1 2 1 2
M  V30 2 1 2 3
M  V30 3 1 2 4
M  V30 4 1 3 5
M  V30 5 1 3 6
M  V30 6 2 5 7
M  V30 7 1 5 8
M  V30 8 2 6 9
M  V30 9 1 6 10
M  V30 10 1 7 11
M  V30 11 1 7 12
M  V30 12 2 8 13
M  V30 13 1 9 14
M  V30 14 1 9 15
M  V30 15 2 10 16
M  V30 16 2 12 17
M  V30 17 2 15 18
M  V30 18 2 11 14
M  V30 19 1 13 17
M  V30 20 1 16 18
M  V30 21 1 4 19
M  V30 22 1 4 20
M  V30 23 1 8 21
M  V30 24 1 10 22
M  V30 25 1 11 23
M  V30 26 1 12 24
M  V30 27 1 13 25
M  V30 28 1 14 26
M  V30 29 1 15 27
M  V30 30 1 16 28
M  V30 31 1 17 29
M  V30 32 1 18 30
M  V30 END BOND
M  V30 END CTAB
M  END
>  <Structure No>
6483

>  <LogS>
-3.29

>  <MMFF94 Energy>
21.384

$$$$
Compound 6484
Actelion Java MolfileCreator 2.0

  0  0  0  0  0  0              0 V3000
M  V30 BEGIN CTAB
M  V30 COUNTS 29 30 0 0 0
M  V30 BEGIN ATOM
M  V30 1 F 2.7801 1.88 1.4711 0
M  V30 2 C 3.4476 0.6761 1.3255 0
M  V30 3 F 3.4889 0.033 2.5484 0
M  V30 4 F 4.7414 0.9467 0.9143 0
M  V30 5 C 2.7411 -0.204 0.3252 0
M  V30 6 C 1.339 -0.173 0.2187 0
M  V30 7 C 3.4638 -1.1339 -0.4414 0
M  V30 8 C 0.6681 -1.0179 -0.6853 0
M  V30 9 C 2.8005 -1.9872 -1.3257 0
M  V30 10 N -0.7659 -1.0002 -0.8035 0
M  V30 11 C 1.4107 -1.931 -1.447 0
M  V30 12 C -1.5834 0.1306 -0.4568 0
M  V30 13 C -2.7977 -0.0353 0.2567 0
M  V30 14 C -1.2211 1.4086 -0.9185 0
M  V30 15 C -3.2133 -1.3482 0.8104 0
M  V30 16 C -3.6163 1.0889 0.4805 0
M  V30 17 C -2.0393 2.5115 -0.674 0
M  V30 18 O -4.4192 -1.5575 1.1101 0
M  V30 19 O -2.2821 -2.3528 1.0456 0 CHG=-1
M  V30 20 C -3.2366 2.3514 0.0209 0
M  V30 21 H 0.7705 0.497 0.8511 0
M  V30 22 H 4.5404 -1.2063 -0.3517 0
M  V30 23 H 3.3649 -2.6989 -1.9143 0
M  V30 24 H -1.2402 -1.832 -1.2228 0
M  V30 25 H 0.9106 -2.6004 -2.1357 0
M  V30 26 H -0.3109 1.5454 -1.4888 0
M  V30 27 H -4.5458 0.9957 1.0287 0
M  V30 28 H -1.7503 3.4903 -1.0346 0
M  V30 29 H -3.8721 3.2079 0.206 0
M  V30 END ATOM
M  V30 BEGIN BOND
M  V30 1 1 1 2
M  V30 2 1 2 3
M  V30 3 1 2 4
M  V30 4 1 2 5
M  V30 5 2 5 6
M  V30 6 1 5 7
M  V30 7 1 6 8
M  V30 8 2 7 9
M  V30 9 1 8 10
M  V30 10 2 8 11
M  V30 11 1 10 12
M  V30 12 2 12 13
M  V30 13 1 12 14
M  V30 14 1 13 15
M  V30 15 1 13 16
M  V30 16 2 14 17
M  V30 17 2 15 18
M  V30 18 1 15 19
M  V30 19 2 16 20
M  V30 20 1 9 11
M  V30 21 1 17 20
M  V30 22 1 6 21
M  V30 23 1 7 22
M  V30 24 1 9 23
M  V30 25 1 10 24
M  V30 26 1 11 25
M  V30 27 1 14 26
M  V30 28 1 16 27
M  V30 29 1 17 28
M  V30 30 1 20 29
M  V30 END BOND
M  V30 END CTAB
M  END
>  <Structure No>
6484

>  <LogS>
-4.4

>  <MMFF94 Energy>
63.262

$$$$
Compound 6485
Actelion Java MolfileCreator 2.0

  0  0  0  0  0  0              0 V3000
M  V30 BEGIN CTAB
M  V30 COUNTS 39 39 0 0 0
M  V30 BEGIN ATOM
M  V30 1 F 4.7785 -2.0226 -2.0226 0
M  V30 2 C 4.7772 -0.9792 -1.1162 0
M  V30 3 F 5.4075 0.1135 -1.6859 0
M  V30 4 F 5.4969 -1.3551 0.0048 0
M  V30 5 C 3.3526 -0.6426 -0.7485 0
M  V30 6 C 2.6221 0.2741 -1.5123 0
M  V30 7 C 2.7159 -1.3117 0.3026 0
M  V30 8 C 1.2776 0.5563 -1.2226 0
M  V30 9 C 1.3833 -1.0329 0.6413 0
M  V30 10 N 0.5809 1.5103 -2.0459 0 CHG=1
M  V30 11 C 0.647 -0.094 -0.1294 0
M  V30 12 N 0.802 -1.7256 1.7613 0 CHG=1
M  V30 13 O 1.2023 2.4633 -2.56 0
M  V30 14 O -0.7306 1.3113 -2.4052 0 CHG=-1
M  V30 15 N -0.7294 0.1899 0.1909 0
M  V30 16 O 0.0183 -1.1446 2.5383 0
M  V30 17 O 1.2329 -2.9918 2.0848 0 CHG=-1
M  V30 18 C -1.8061 -0.5795 -0.4507 0
M  V30 19 C -1.0524 1.2395 1.1692 0
M  V30 20 C -2.2388 -1.7662 0.4152 0
M  V30 21 C -1.279 2.5887 0.4817 0
M  V30 22 C -3.4363 -2.4866 -0.197 0
M  V30 23 C -1.7181 3.6511 1.4848 0
M  V30 24 H 3.0951 0.7597 -2.357 0
M  V30 25 H 3.268 -2.0428 0.8798 0
M  V30 26 H -1.465 -0.9613 -1.438 0
M  V30 27 H -2.6783 0.0859 -0.6323 0
M  V30 28 H -0.2246 1.3429 1.9046 0
M  V30 29 H -1.9668 0.9539 1.7337 0
M  V30 30 H -1.4008 -2.4887 0.5011 0
M  V30 31 H -2.5151 -1.4143 1.432 0
M  V30 32 H -0.336 2.9253 0.0029 0
M  V30 33 H -2.0627 2.4882 -0.299 0
M  V30 34 H -4.3053 -1.7984 -0.2695 0
M  V30 35 H -3.1821 -2.8653 -1.2099 0
M  V30 36 H -3.7191 -3.3481 0.4436 0
M  V30 37 H -2.6776 3.3586 1.9623 0
M  V30 38 H -1.8636 4.6193 0.961 0
M  V30 39 H -0.9432 3.7848 2.2696 0
M  V30 END ATOM
M  V30 BEGIN BOND
M  V30 1 1 1 2
M  V30 2 1 2 3
M  V30 3 1 2 4
M  V30 4 1 2 5
M  V30 5 2 5 6
M  V30 6 1 5 7
M  V30 7 1 6 8
M  V30 8 2 7 9
M  V30 9 1 8 10
M  V30 10 2 8 11
M  V30 11 1 9 12
M  V30 12 2 10 13
M  V30 13 1 10 14
M  V30 14 1 11 15
M  V30 15 2 12 16
M  V30 16 1 12 17
M  V30 17 1 15 18
M  V30 18 1 15 19
M  V30 19 1 18 20
M  V30 20 1 19 21
M  V30 21 1 20 22
M  V30 22 1 21 23
M  V30 23 1 9 11
M  V30 24 1 6 24
M  V30 25 1 7 25
M  V30 26 1 18 26
M  V30 27 1 18 27
M  V30 28 1 19 28
M  V30 29 1 19 29
M  V30 30 1 20 30
M  V30 31 1 20 31
M  V30 32 1 21 32
M  V30 33 1 21 33
M  V30 34 1 22 34
M  V30 35 1 22 35
M  V30 36 1 22 36
M  V30 37 1 23 37
M  V30 38 1 23 38
M  V30 39 1 23 39
M  V30 END BOND
M  V30 END CTAB
M  END
>  <Structure No>
6485

>  <LogS>
-6.05

>  <MMFF94 Energy>
139.74

$$$$
Compound 6486
Actelion Java MolfileCreator 2.0

  0  0  0  0  0  0              0 V3000
M  V30 BEGIN CTAB
M  V30 COUNTS 46 47 0 0 0
M  V30 BEGIN ATOM
M  V30 1 Cl 6.9071 0.164 0.8204 0
M  V30 2 C 5.2942 -0.4086 0.4368 0
M  V30 3 C 4.7927 -0.2718 -0.8617 0
M  V30 4 C 4.5074 -1.0026 1.4293 0
M  V30 5 C 3.506 -0.7251 -1.1676 0
M  V30 6 C 3.2206 -1.4568 1.1252 0
M  V30 7 C 2.7108 -1.3152 -0.1741 0
M  V30 8 S 1.076 -1.8603 -0.551 0
M  V30 9 O 1.048 -2.3316 -1.9792 0
M  V30 10 O 0.745 -3.0322 0.3319 0
M  V30 11 C -0.1706 -0.5573 -0.3112 0
M  V30 12 C -1.5526 -1.1849 -0.4704 0
M  V30 13 C -0.0139 0.0315 1.1331 0
M  V30 14 C 0.0023 0.502 -1.4359 0
M  V30 15 O -1.7268 -2.1303 -1.2895 0
M  V30 16 O -2.6542 -0.6517 0.2126 0
M  V30 17 C 0.974 1.2083 1.2779 0
M  V30 18 C -0.7582 1.8217 -1.1993 0
M  V30 19 C -4.0019 -1.0639 -0.011 0
M  V30 20 C 0.3084 2.5685 1.0123 0
M  V30 21 C 0.1027 2.8678 -0.4764 0
M  V30 22 C -4.8609 -0.5964 1.1619 0
M  V30 23 C -4.5208 -0.4717 -1.3244 0
M  V30 24 H 5.3977 0.1865 -1.6335 0
M  V30 25 H 4.8905 -1.1103 2.4362 0
M  V30 26 H 3.1294 -0.6099 -2.1758 0
M  V30 27 H 2.6203 -1.9078 1.9047 0
M  V30 28 H 0.3067 -0.7801 1.8214 0
M  V30 29 H -0.9879 0.3633 1.5484 0
M  V30 30 H -0.35 0.066 -2.3977 0
M  V30 31 H 1.078 0.721 -1.6005 0
M  V30 32 H 1.8675 1.0868 0.6339 0
M  V30 33 H 1.3397 1.216 2.328 0
M  V30 34 H -1.0305 2.2436 -2.1914 0
M  V30 35 H -1.71 1.6554 -0.6516 0
M  V30 36 H -4.0547 -2.1744 -0.0586 0
M  V30 37 H 0.9649 3.3632 1.4292 0
M  V30 38 H -0.662 2.6423 1.5502 0
M  V30 39 H -0.4045 3.8537 -0.5593 0
M  V30 40 H 1.0889 2.9713 -0.9801 0
M  V30 41 H -5.9137 -0.9235 1.0242 0
M  V30 42 H -4.4764 -1.0371 2.1061 0
M  V30 43 H -4.831 0.511 1.2483 0
M  V30 44 H -4.4531 0.6371 -1.3017 0
M  V30 45 H -5.5784 -0.7688 -1.4894 0
M  V30 46 H -3.9183 -0.8456 -2.1782 0
M  V30 END ATOM
M  V30 BEGIN BOND
M  V30 1 1 1 2
M  V30 2 2 2 3
M  V30 3 1 2 4
M  V30 4 1 3 5
M  V30 5 2 4 6
M  V30 6 2 5 7
M  V30 7 1 7 8
M  V30 8 2 8 9
M  V30 9 2 8 10
M  V30 10 1 8 11
M  V30 11 1 11 12
M  V30 12 1 11 13
M  V30 13 1 11 14
M  V30 14 2 12 15
M  V30 15 1 12 16
M  V30 16 1 13 17
M  V30 17 1 14 18
M  V30 18 1 16 19
M  V30 19 1 17 20
M  V30 20 1 18 21
M  V30 21 1 19 22
M  V30 22 1 19 23
M  V30 23 1 6 7
M  V30 24 1 20 21
M  V30 25 1 3 24
M  V30 26 1 4 25
M  V30 27 1 5 26
M  V30 28 1 6 27
M  V30 29 1 13 28
M  V30 30 1 13 29
M  V30 31 1 14 30
M  V30 32 1 14 31
M  V30 33 1 17 32
M  V30 34 1 17 33
M  V30 35 1 18 34
M  V30 36 1 18 35
M  V30 37 1 19 36
M  V30 38 1 20 37
M  V30 39 1 20 38
M  V30 40 1 21 39
M  V30 41 1 21 40
M  V30 42 1 22 41
M  V30 43 1 22 42
M  V30 44 1 22 43
M  V30 45 1 23 44
M  V30 46 1 23 45
M  V30 47 1 23 46
M  V30 END BOND
M  V30 END CTAB
M  END
>  <Structure No>
6486

>  <LogS>
-5.52

>  <MMFF94 Energy>
19.619

$$$$
Compound 6487
Actelion Java MolfileCreator 2.0

  0  0  0  0  0  0              0 V3000
M  V30 BEGIN CTAB
M  V30 COUNTS 49 51 0 0 0
M  V30 BEGIN ATOM
M  V30 1 N 3.5636 0.3954 -0.3954 0 CHG=1
M  V30 2 C 2.2145 -0.1551 -0.7194 0
M  V30 3 C 4.0327 -0.0877 0.9164 0
M  V30 4 C 4.5516 0.0306 -1.4286 0
M  V30 5 C 1.213 0.9347 -1.189 0 CFG=2
M  V30 6 C -0.2139 0.3558 -1.3458 0
M  V30 7 C 1.6525 1.5606 -2.5224 0
M  V30 8 N -0.7963 -0.1071 -0.072 0
M  V30 9 C -1.4361 -1.401 -0.0282 0
M  V30 10 C -1.0677 0.8524 0.9611 0
M  V30 11 C -2.8328 -1.5761 0.2336 0
M  V30 12 C -0.6446 -2.5355 -0.2865 0
M  V30 13 C -2.3368 1.4402 1.0451 0
M  V30 14 C -0.0793 1.195 1.8963 0
M  V30 15 C -3.3518 -2.8854 0.2687 0
M  V30 16 C -3.8327 -0.4649 0.5311 0
M  V30 17 C -1.1913 -3.8167 -0.2611 0
M  V30 18 C -2.6046 2.3838 2.0509 0
M  V30 19 C -3.4236 0.9542 0.134 0
M  V30 20 C -0.3465 2.1433 2.8871 0
M  V30 21 C -2.5413 -3.9918 0.021 0
M  V30 22 C -1.6065 2.7415 2.9611 0
M  V30 23 H 3.5319 1.4407 -0.3362 0
M  V30 24 H 2.2731 -0.954 -1.4945 0
M  V30 25 H 1.7737 -0.6536 0.1709 0
M  V30 26 H 4.085 -1.1994 0.9368 0
M  V30 27 H 3.3458 0.2531 1.7216 0
M  V30 28 H 5.0403 0.3226 1.149 0
M  V30 29 H 5.5294 0.5192 -1.2217 0
M  V30 30 H 4.7047 -1.0712 -1.4637 0
M  V30 31 H 4.2189 0.3683 -2.4323 0
M  V30 32 H 1.1834 1.7522 -0.4377 0
M  V30 33 H -0.8809 1.1358 -1.7725 0
M  V30 34 H -0.187 -0.4739 -2.0871 0
M  V30 35 H 2.6064 2.114 -2.4031 0
M  V30 36 H 1.7774 0.778 -3.3012 0
M  V30 37 H 0.8952 2.2938 -2.8736 0
M  V30 38 H 0.4081 -2.4299 -0.5045 0
M  V30 39 H 0.894 0.7284 1.8616 0
M  V30 40 H -4.4001 -3.0524 0.4875 0
M  V30 41 H -4.7777 -0.69 -0.0114 0
M  V30 42 H -4.0762 -0.4872 1.6165 0
M  V30 43 H -0.564 -4.6767 -0.4574 0
M  V30 44 H -3.587 2.8309 2.1396 0
M  V30 45 H -4.3121 1.619 0.2089 0
M  V30 46 H -3.0965 0.9777 -0.9265 0
M  V30 47 H 0.4214 2.4096 3.6018 0
M  V30 48 H -2.9631 -4.9882 0.0469 0
M  V30 49 H -1.8148 3.4697 3.7344 0
M  V30 END ATOM
M  V30 BEGIN BOND
M  V30 1 1 1 2
M  V30 2 1 1 3
M  V30 3 1 1 4
M  V30 4 1 2 5
M  V30 5 1 5 6
M  V30 6 1 5 7
M  V30 7 1 6 8
M  V30 8 1 8 9
M  V30 9 1 8 10
M  V30 10 2 9 11
M  V30 11 1 9 12
M  V30 12 2 10 13
M  V30 13 1 10 14
M  V30 14 1 11 15
M  V30 15 1 11 16
M  V30 16 2 12 17
M  V30 17 1 13 18
M  V30 18 1 13 19
M  V30 19 2 14 20
M  V30 20 2 15 21
M  V30 21 2 18 22
M  V30 22 1 16 19
M  V30 23 1 17 21
M  V30 24 1 20 22
M  V30 25 1 1 23
M  V30 26 1 2 24
M  V30 27 1 2 25
M  V30 28 1 3 26
M  V30 29 1 3 27
M  V30 30 1 3 28
M  V30 31 1 4 29
M  V30 32 1 4 30
M  V30 33 1 4 31
M  V30 34 1 5 32
M  V30 35 1 6 33
M  V30 36 1 6 34
M  V30 37 1 7 35
M  V30 38 1 7 36
M  V30 39 1 7 37
M  V30 40 1 12 38
M  V30 41 1 14 39
M  V30 42 1 15 40
M  V30 43 1 16 41
M  V30 44 1 16 42
M  V30 45 1 17 43
M  V30 46 1 18 44
M  V30 47 1 19 45
M  V30 48 1 19 46
M  V30 49 1 20 47
M  V30 50 1 21 48
M  V30 51 1 22 49
M  V30 END BOND
M  V30 BEGIN COLLECTION
M  V30 MDLV30/STEABS ATOMS=(1 5)
M  V30 END COLLECTION
M  V30 END CTAB
M  END
>  <Structure No>
6487

>  <LogS>
-4.79

>  <MMFF94 Energy>
62.77

$$$$
Compound 6488
Actelion Java MolfileCreator 2.0

  0  0  0  0  0  0              0 V3000
M  V30 BEGIN CTAB
M  V30 COUNTS 24 25 0 0 0
M  V30 BEGIN ATOM
M  V30 1 S 3.5766 -0.3485 -0.7843 0
M  V30 2 O 4.0494 0.0531 -2.1533 0
M  V30 3 O 3.8261 -1.818 -0.5932 0
M  V30 4 N 4.4383 0.5485 0.4158 0
M  V30 5 C 1.8605 -0.0236 -0.6383 0
M  V30 6 S 1.0187 1.129 -1.5304 0
M  V30 7 C 0.994 -0.6529 0.246 0
M  V30 8 C -0.466 0.8186 -0.8077 0
M  V30 9 C -0.3181 -0.1667 0.1606 0
M  V30 10 S -1.9763 1.6757 -1.1585 0 CFG=1
M  V30 11 C -1.4572 -0.6955 0.9954 0 CFG=2
M  V30 12 O -2.3468 1.177 -2.5488 0
M  V30 13 C -3.1866 0.8535 -0.0901 0
M  V30 14 O -2.0193 -1.8227 0.3757 0
M  V30 15 C -2.5446 0.3737 1.2188 0
M  V30 16 H 5.4559 0.3793 0.2518 0
M  V30 17 H 4.2657 1.5605 0.2225 0
M  V30 18 H 1.3022 -1.4307 0.9328 0
M  V30 19 H -1.0645 -0.9798 1.9996 0
M  V30 20 H -3.6395 -0.0073 -0.6269 0
M  V30 21 H -3.9971 1.5758 0.1424 0
M  V30 22 H -1.3812 -2.572 0.5089 0
M  V30 23 H -3.339 -0.0535 1.8686 0
M  V30 24 H -2.1079 1.2437 1.7571 0
M  V30 END ATOM
M  V30 BEGIN BOND
M  V30 1 2 1 2
M  V30 2 2 1 3
M  V30 3 1 1 4
M  V30 4 1 1 5
M  V30 5 1 5 6
M  V30 6 2 5 7
M  V30 7 1 6 8
M  V30 8 1 7 9
M  V30 9 1 8 10
M  V30 10 1 9 11
M  V30 11 2 10 12
M  V30 12 1 10 13
M  V30 13 1 11 14
M  V30 14 1 11 15
M  V30 15 2 8 9
M  V30 16 1 13 15
M  V30 17 1 4 16
M  V30 18 1 4 17
M  V30 19 1 7 18
M  V30 20 1 11 19
M  V30 21 1 13 20
M  V30 22 1 13 21
M  V30 23 1 14 22
M  V30 24 1 15 23
M  V30 25 1 15 24
M  V30 END BOND
M  V30 BEGIN COLLECTION
M  V30 MDLV30/STEABS ATOMS=(2 10 11)
M  V30 END COLLECTION
M  V30 END CTAB
M  END
>  <Structure No>
6488

>  <LogS>
-1.35

>  <MMFF94 Energy>
-60.14

$$$$
Compound 6489
Actelion Java MolfileCreator 2.0

  0  0  0  0  0  0              0 V3000
M  V30 BEGIN CTAB
M  V30 COUNTS 54 56 0 0 0
M  V30 BEGIN ATOM
M  V30 1 O -4.7653 -0.6343 -1.1896 0
M  V30 2 C -3.7271 -0.9313 -0.5353 0
M  V30 3 N -2.9642 0.1298 0.0782 0
M  V30 4 C -3.3255 -2.3771 -0.387 0
M  V30 5 C -3.6986 1.1515 0.7796 0
M  V30 6 C -1.4922 0.248 -0.0361 0 CFG=2
M  V30 7 C -4.4465 -3.3461 -0.7618 0
M  V30 8 C -3.5574 2.5057 0.4296 0
M  V30 9 C -4.5845 0.7972 1.8112 0
M  V30 10 C -0.7561 -0.7235 0.8948 0
M  V30 11 C -0.9972 0.1068 -1.4927 0
M  V30 12 C -4.285 3.4886 1.1082 0
M  V30 13 C -5.3083 1.7832 2.4889 0
M  V30 14 C 0.7643 -0.4487 0.8793 0
M  V30 15 C 0.4737 -0.3563 -1.5616 0
M  V30 16 C -5.1579 3.1279 2.1385 0
M  V30 17 N 1.2559 0.1357 -0.4031 0 CHG=1 CFG=1
M  V30 18 C 2.6953 -0.1556 -0.6118 0
M  V30 19 C 3.5896 0.5247 0.441 0
M  V30 20 C 5.044 0.2817 0.1366 0
M  V30 21 C 5.6763 -0.8869 0.594 0
M  V30 22 C 5.7673 1.1926 -0.6516 0
M  V30 23 C 7.0191 -1.1273 0.2867 0
M  V30 24 C 7.1103 0.9484 -0.956 0
M  V30 25 C 7.7364 -0.2092 -0.4854 0
M  V30 26 H -2.445 -2.5882 -1.0291 0
M  V30 27 H -3.0578 -2.5651 0.674 0
M  V30 28 H -1.1895 1.2653 0.3018 0
M  V30 29 H -4.7106 -3.2359 -1.8345 0
M  V30 30 H -5.346 -3.1547 -0.1362 0
M  V30 31 H -4.1092 -4.3904 -0.5876 0
M  V30 32 H -2.8994 2.7972 -0.3787 0
M  V30 33 H -4.7063 -0.2415 2.0924 0
M  V30 34 H -0.9125 -1.7684 0.565 0
M  V30 35 H -1.1462 -0.6279 1.9317 0
M  V30 36 H -1.0971 1.0933 -1.9963 0
M  V30 37 H -1.6134 -0.6121 -2.0696 0
M  V30 38 H -4.1744 4.5294 0.8337 0
M  V30 39 H -5.987 1.5039 3.2858 0
M  V30 40 H 1.2854 -1.4051 1.1124 0
M  V30 41 H 0.992 0.256 1.7102 0
M  V30 42 H 0.5074 -1.4696 -1.596 0
M  V30 43 H 0.9048 0.0178 -2.5177 0
M  V30 44 H -5.7203 3.8897 2.6631 0
M  V30 45 H 1.1453 1.178 -0.3645 0
M  V30 46 H 3.0131 0.2213 -1.6114 0
M  V30 47 H 2.8753 -1.2552 -0.6021 0
M  V30 48 H 3.3623 0.1308 1.4546 0
M  V30 49 H 3.3845 1.6179 0.457 0
M  V30 50 H 5.1287 -1.6104 1.1858 0
M  V30 51 H 5.2917 2.0893 -1.0296 0
M  V30 52 H 7.5027 -2.0272 0.6446 0
M  V30 53 H 7.6649 1.6551 -1.5593 0
M  V30 54 H 8.7755 -0.3972 -0.7226 0
M  V30 END ATOM
M  V30 BEGIN BOND
M  V30 1 2 1 2
M  V30 2 1 2 3
M  V30 3 1 2 4
M  V30 4 1 3 5
M  V30 5 1 3 6
M  V30 6 1 4 7
M  V30 7 2 5 8
M  V30 8 1 5 9
M  V30 9 1 6 10
M  V30 10 1 6 11
M  V30 11 1 8 12
M  V30 12 2 9 13
M  V30 13 1 10 14
M  V30 14 1 11 15
M  V30 15 2 12 16
M  V30 16 1 14 17
M  V30 17 1 17 18
M  V30 18 1 18 19
M  V30 19 1 19 20
M  V30 20 2 20 21
M  V30 21 1 20 22
M  V30 22 1 21 23
M  V30 23 2 22 24
M  V30 24 2 23 25
M  V30 25 1 13 16
M  V30 26 1 15 17
M  V30 27 1 24 25
M  V30 28 1 4 26
M  V30 29 1 4 27
M  V30 30 1 6 28
M  V30 31 1 7 29
M  V30 32 1 7 30
M  V30 33 1 7 31
M  V30 34 1 8 32
M  V30 35 1 9 33
M  V30 36 1 10 34
M  V30 37 1 10 35
M  V30 38 1 11 36
M  V30 39 1 11 37
M  V30 40 1 12 38
M  V30 41 1 13 39
M  V30 42 1 14 40
M  V30 43 1 14 41
M  V30 44 1 15 42
M  V30 45 1 15 43
M  V30 46 1 16 44
M  V30 47 1 17 45
M  V30 48 1 18 46
M  V30 49 1 18 47
M  V30 50 1 19 48
M  V30 51 1 19 49
M  V30 52 1 21 50
M  V30 53 1 22 51
M  V30 54 1 23 52
M  V30 55 1 24 53
M  V30 56 1 25 54
M  V30 END BOND
M  V30 BEGIN COLLECTION
M  V30 MDLV30/STEABS ATOMS=(2 6 17)
M  V30 END COLLECTION
M  V30 END CTAB
M  END
>  <Structure No>
6489

>  <LogS>
-3.82

>  <MMFF94 Energy>
39.127

$$$$
Compound 6490
Actelion Java MolfileCreator 2.0

  0  0  0  0  0  0              0 V3000
M  V30 BEGIN CTAB
M  V30 COUNTS 61 65 0 0 0
M  V30 BEGIN ATOM
M  V30 1 O -7.1559 1.217 1.1358 0
M  V30 2 C -5.9469 1.0506 0.8258 0
M  V30 3 C -5.4485 -0.3103 0.5695 0
M  V30 4 C -5.0433 2.2441 0.7197 0
M  V30 5 C -4.1941 -0.5348 0.1423 0
M  V30 6 C -3.5609 1.836 0.7001 0
M  V30 7 C -3.2619 0.619 -0.2341 0 CFG=1
M  V30 8 C -3.6663 -1.9466 0.0767 0
M  V30 9 C -1.7474 0.1892 -0.0297 0 CFG=1
M  V30 10 C -3.5529 1.0405 -1.6994 0
M  V30 11 C -2.382 -2.1144 0.9155 0
M  V30 12 C -1.6055 -0.7893 1.1647 0 CFG=1
M  V30 13 C -1.031 -0.3784 -1.2898 0
M  V30 14 C -0.1119 -1.052 1.5548 0 CFG=1
M  V30 15 C 0.2226 -1.2313 -0.995 0
M  V30 16 C 0.8998 -0.9633 0.3744 0 CFG=1
M  V30 17 C 0.4104 -0.0451 2.5878 0
M  V30 18 C 1.5043 0.476 0.4448 0 CFG=1
M  V30 19 C 2.0005 -2.0375 0.5843 0
M  V30 20 C 1.1586 1.0373 1.8264 0
M  V30 21 O 2.9244 0.4951 0.2664 0
M  V30 22 C 3.5546 0.5531 -0.9832 0
M  V30 23 O 2.8707 0.6976 -2.0337 0
M  V30 24 C 5.0276 0.4513 -1.0649 0
M  V30 25 C 5.792 0.2734 0.1026 0
M  V30 26 C 5.6859 0.5266 -2.3066 0
M  V30 27 C 7.1849 0.1746 0.028 0
M  V30 28 C 7.0793 0.4273 -2.3751 0
M  V30 29 C 7.8278 0.2516 -1.2092 0
M  V30 30 H -6.1038 -1.1426 0.7978 0
M  V30 31 H -5.2995 2.8191 -0.194 0
M  V30 32 H -5.2192 2.9141 1.5884 0
M  V30 33 H -3.265 1.5951 1.7437 0
M  V30 34 H -2.9549 2.7157 0.3897 0
M  V30 35 H -3.4568 -2.1923 -0.9846 0
M  V30 36 H -4.4216 -2.6865 0.4223 0
M  V30 37 H -1.1905 1.1108 0.2369 0
M  V30 38 H -2.8557 1.8445 -2.0191 0
M  V30 39 H -3.4668 0.1858 -2.3996 0
M  V30 40 H -4.5904 1.4114 -1.8214 0
M  V30 41 H -2.6542 -2.5484 1.9032 0
M  V30 42 H -1.7355 -2.8653 0.4158 0
M  V30 43 H -2.1093 -0.3259 2.0398 0
M  V30 44 H -0.7401 0.4712 -1.9459 0
M  V30 45 H -1.714 -1.0186 -1.8808 0
M  V30 46 H -0.0726 -2.0558 2.0381 0
M  V30 47 H -0.0656 -2.3037 -1.0488 0
M  V30 48 H 0.958 -1.0813 -1.814 0
M  V30 49 H 1.1275 -0.5627 3.2639 0
M  V30 50 H -0.3859 0.3934 3.2269 0
M  V30 51 H 1.0434 1.1485 -0.3118 0
M  V30 52 H 2.7255 -2.037 -0.2572 0
M  V30 53 H 2.5558 -1.8557 1.5298 0
M  V30 54 H 1.553 -3.0537 0.6358 0
M  V30 55 H 2.0702 1.34 2.3877 0
M  V30 56 H 0.5103 1.9354 1.7229 0
M  V30 57 H 5.3157 0.2097 1.0728 0
M  V30 58 H 5.1259 0.6628 -3.2232 0
M  V30 59 H 7.7662 0.0385 0.9308 0
M  V30 60 H 7.5787 0.4866 -3.3333 0
M  V30 61 H 8.9059 0.1753 -1.2645 0
M  V30 END ATOM
M  V30 BEGIN BOND
M  V30 1 2 1 2
M  V30 2 1 2 3
M  V30 3 1 2 4
M  V30 4 2 3 5
M  V30 5 1 4 6
M  V30 6 1 5 7
M  V30 7 1 5 8
M  V30 8 1 7 9
M  V30 9 1 7 10
M  V30 10 1 8 11
M  V30 11 1 9 12
M  V30 12 1 9 13
M  V30 13 1 12 14
M  V30 14 1 13 15
M  V30 15 1 14 16
M  V30 16 1 14 17
M  V30 17 1 16 18
M  V30 18 1 16 19
M  V30 19 1 17 20
M  V30 20 1 18 21
M  V30 21 1 21 22
M  V30 22 2 22 23
M  V30 23 1 22 24
M  V30 24 2 24 25
M  V30 25 1 24 26
M  V30 26 1 25 27
M  V30 27 2 26 28
M  V30 28 2 27 29
M  V30 29 1 6 7
M  V30 30 1 11 12
M  V30 31 1 15 16
M  V30 32 1 18 20
M  V30 33 1 28 29
M  V30 34 1 3 30
M  V30 35 1 4 31
M  V30 36 1 4 32
M  V30 37 1 6 33
M  V30 38 1 6 34
M  V30 39 1 8 35
M  V30 40 1 8 36
M  V30 41 1 9 37
M  V30 42 1 10 38
M  V30 43 1 10 39
M  V30 44 1 10 40
M  V30 45 1 11 41
M  V30 46 1 11 42
M  V30 47 1 12 43
M  V30 48 1 13 44
M  V30 49 1 13 45
M  V30 50 1 14 46
M  V30 51 1 15 47
M  V30 52 1 15 48
M  V30 53 1 17 49
M  V30 54 1 17 50
M  V30 55 1 18 51
M  V30 56 1 19 52
M  V30 57 1 19 53
M  V30 58 1 19 54
M  V30 59 1 20 55
M  V30 60 1 20 56
M  V30 61 1 25 57
M  V30 62 1 26 58
M  V30 63 1 27 59
M  V30 64 1 28 60
M  V30 65 1 29 61
M  V30 END BOND
M  V30 BEGIN COLLECTION
M  V30 MDLV30/STEABS ATOMS=(6 7 9 12 14 16 18)
M  V30 END COLLECTION
M  V30 END CTAB
M  END
>  <Structure No>
6490

>  <LogS>
-4.48

>  <MMFF94 Energy>
106.97

$$$$
Compound 6491
Actelion Java MolfileCreator 2.0

  0  0  0  0  0  0              0 V3000
M  V30 BEGIN CTAB
M  V30 COUNTS 27 28 0 0 0
M  V30 BEGIN ATOM
M  V30 1 Cl -2.9993 -4.3345 -0.3329 0
M  V30 2 C -2.3197 -2.843 0.2921 0
M  V30 3 C -1.9397 -2.755 1.6342 0
M  V30 4 C -2.1596 -1.7393 -0.5504 0
M  V30 5 C -1.3973 -1.5668 2.1328 0
M  V30 6 C -1.6182 -0.5491 -0.0549 0
M  V30 7 C -1.2254 -0.4527 1.2947 0
M  V30 8 N -0.6583 0.7526 1.8393 0
M  V30 9 S -0.177 2.1183 0.8821 0
M  V30 10 O -1.3996 2.7459 0.2723 0
M  V30 11 O 0.5012 3.1274 1.765 0
M  V30 12 C 0.9531 1.6108 -0.3691 0
M  V30 13 C 1.9005 0.6143 -0.0941 0
M  V30 14 C 0.9125 2.1963 -1.643 0
M  V30 15 C 2.7934 0.2009 -1.0876 0
M  V30 16 C 1.8073 1.7814 -2.6345 0
M  V30 17 C 2.7465 0.7836 -2.3574 0
M  V30 18 H -2.063 -3.606 2.2919 0
M  V30 19 H -2.4561 -1.8015 -1.5898 0
M  V30 20 H -1.1056 -1.5158 3.1744 0
M  V30 21 H -1.5164 0.2867 -0.7313 0
M  V30 22 H -0.4567 0.8 2.8634 0
M  V30 23 H 1.9455 0.1568 0.8861 0
M  V30 24 H 0.1905 2.9704 -1.8694 0
M  V30 25 H 3.5216 -0.5705 -0.873 0
M  V30 26 H 1.7727 2.2334 -3.6174 0
M  V30 27 H 3.4381 0.463 -3.1258 0
M  V30 END ATOM
M  V30 BEGIN BOND
M  V30 1 1 1 2
M  V30 2 2 2 3
M  V30 3 1 2 4
M  V30 4 1 3 5
M  V30 5 2 4 6
M  V30 6 2 5 7
M  V30 7 1 7 8
M  V30 8 1 8 9
M  V30 9 2 9 10
M  V30 10 2 9 11
M  V30 11 1 9 12
M  V30 12 2 12 13
M  V30 13 1 12 14
M  V30 14 1 13 15
M  V30 15 2 14 16
M  V30 16 2 15 17
M  V30 17 1 6 7
M  V30 18 1 16 17
M  V30 19 1 3 18
M  V30 20 1 4 19
M  V30 21 1 5 20
M  V30 22 1 6 21
M  V30 23 1 8 22
M  V30 24 1 13 23
M  V30 25 1 14 24
M  V30 26 1 15 25
M  V30 27 1 16 26
M  V30 28 1 17 27
M  V30 END BOND
M  V30 END CTAB
M  END
>  <Structure No>
6491

>  <LogS>
-4.03

>  <MMFF94 Energy>
-7.8259

$$$$
Compound 6492
Actelion Java MolfileCreator 2.0

  0  0  0  0  0  0              0 V3000
M  V30 BEGIN CTAB
M  V30 COUNTS 30 31 0 0 0
M  V30 BEGIN ATOM
M  V30 1 S -0.583 0.3331 0.1665 0
M  V30 2 O -1.311 1.3279 1.0268 0
M  V30 3 O -1.0765 0.4696 -1.2479 0
M  V30 4 C 1.1442 0.6677 0.2028 0
M  V30 5 C -0.8486 -1.3199 0.8262 0 CFG=1
M  V30 6 C 1.9742 0.1539 -0.8005 0
M  V30 7 C 1.7027 1.4214 1.2431 0
M  V30 8 C -2.1563 -2.0517 0.5154 0 CFG=2
M  V30 9 C -0.8756 -2.4134 -0.2328 0
M  V30 10 C 3.3497 0.401 -0.773 0
M  V30 11 C 3.0781 1.6702 1.2729 0
M  V30 12 C -3.1881 -1.3323 -0.2993 0
M  V30 13 C 3.9172 1.1639 0.2645 0
M  V30 14 O -3.5028 -1.7652 -1.4416 0
M  V30 15 O -3.8347 -0.2189 0.2438 0
M  V30 16 N 5.333 1.4212 0.298 0 CHG=1
M  V30 17 C -4.8123 0.5243 -0.4734 0
M  V30 18 O 6.083 0.9732 -0.5941 0
M  V30 19 O 5.8845 2.1668 1.3148 0 CHG=-1
M  V30 20 H -0.3418 -1.6103 1.7705 0
M  V30 21 H 1.5564 -0.4404 -1.6033 0
M  V30 22 H 1.0769 1.8148 2.0339 0
M  V30 23 H -2.4847 -2.8003 1.2668 0
M  V30 24 H -0.4172 -3.3699 0.0955 0
M  V30 25 H -0.8174 -2.0749 -1.2891 0
M  V30 26 H 3.9692 -0.0061 -1.5617 0
M  V30 27 H 3.4847 2.2568 2.0866 0
M  V30 28 H -5.6722 -0.1288 -0.7331 0
M  V30 29 H -4.3653 0.9437 -1.3996 0
M  V30 30 H -5.1733 1.3593 0.1613 0
M  V30 END ATOM
M  V30 BEGIN BOND
M  V30 1 2 1 2
M  V30 2 2 1 3
M  V30 3 1 1 4
M  V30 4 1 1 5
M  V30 5 2 4 6
M  V30 6 1 4 7
M  V30 7 1 5 8
M  V30 8 1 5 9
M  V30 9 1 6 10
M  V30 10 2 7 11
M  V30 11 1 8 12
M  V30 12 2 10 13
M  V30 13 2 12 14
M  V30 14 1 12 15
M  V30 15 1 13 16
M  V30 16 1 15 17
M  V30 17 2 16 18
M  V30 18 1 16 19
M  V30 19 1 8 9
M  V30 20 1 11 13
M  V30 21 1 5 20
M  V30 22 1 6 21
M  V30 23 1 7 22
M  V30 24 1 8 23
M  V30 25 1 9 24
M  V30 26 1 9 25
M  V30 27 1 10 26
M  V30 28 1 11 27
M  V30 29 1 17 28
M  V30 30 1 17 29
M  V30 31 1 17 30
M  V30 END BOND
M  V30 BEGIN COLLECTION
M  V30 MDLV30/STEABS ATOMS=(2 5 8)
M  V30 END COLLECTION
M  V30 END CTAB
M  END
>  <Structure No>
6492

>  <LogS>
-3.38

>  <MMFF94 Energy>
86.487

$$$$
Compound 6493
Actelion Java MolfileCreator 2.0

  0  0  0  0  0  0              0 V3000
M  V30 BEGIN CTAB
M  V30 COUNTS 67 71 0 0 0
M  V30 BEGIN ATOM
M  V30 1 O -7.0523 2.5895 0.4042 0
M  V30 2 C -6.087 1.7801 0.386 0
M  V30 3 C -4.8355 2.1653 -0.2853 0
M  V30 4 C -6.239 0.4391 1.0439 0
M  V30 5 C -3.8259 1.2946 -0.4488 0
M  V30 6 C -4.8884 -0.2809 1.1993 0
M  V30 7 C -3.9762 -0.1784 -0.0659 0 CFG=2
M  V30 8 C -2.4868 1.7808 -0.945 0
M  V30 9 C -2.5554 -0.7952 0.2822 0 CFG=2
M  V30 10 C -4.6683 -0.9365 -1.2312 0
M  V30 11 C -1.3732 1.4938 0.0822 0
M  V30 12 C -1.6489 0.2525 0.985 0 CFG=2
M  V30 13 C -1.8028 -1.485 -0.9011 0
M  V30 14 C -0.3942 -0.456 1.5785 0 CFG=1
M  V30 15 C -0.2618 -1.4609 -0.8012 0
M  V30 16 C 0.29 -1.5124 0.6523 0 CFG=1
M  V30 17 C 0.7077 0.4785 2.0881 0
M  V30 18 C 1.8166 -1.189 0.7412 0 CFG=2
M  V30 19 C 0.0647 -2.9424 1.2096 0
M  V30 20 C 1.9789 -0.3381 1.9942 0
M  V30 21 O 2.2932 -0.4301 -0.3736 0
M  V30 22 C 2.8545 -1.0067 -1.5199 0
M  V30 23 O 2.898 -2.2594 -1.6597 0
M  V30 24 C 3.4638 -0.1187 -2.5596 0
M  V30 25 C 4.9726 0.0435 -2.336 0
M  V30 26 C 5.2714 0.7851 -1.0569 0
M  V30 27 C 5.5004 0.0795 0.1365 0
M  V30 28 C 5.2711 2.1904 -1.0354 0
M  V30 29 C 5.7416 0.7704 1.3287 0
M  V30 30 C 5.5168 2.877 0.1582 0
M  V30 31 C 5.7515 2.1681 1.3392 0
M  V30 32 H -4.7203 3.1983 -0.5909 0
M  V30 33 H -6.9446 -0.1808 0.4527 0
M  V30 34 H -6.69 0.5766 2.0504 0
M  V30 35 H -4.3744 0.1633 2.0773 0
M  V30 36 H -5.0817 -1.3481 1.4462 0
M  V30 37 H -2.499 2.8695 -1.1723 0
M  V30 38 H -2.2564 1.2674 -1.9012 0
M  V30 39 H -2.7299 -1.6081 1.0233 0
M  V30 40 H -5.7092 -0.5914 -1.3885 0
M  V30 41 H -4.692 -2.0279 -1.0251 0
M  V30 42 H -4.1623 -0.7592 -2.201 0
M  V30 43 H -0.4138 1.4021 -0.4635 0
M  V30 44 H -1.2696 2.3852 0.7401 0
M  V30 45 H -2.2061 0.6447 1.8634 0
M  V30 46 H -2.1415 -2.5425 -0.9704 0
M  V30 47 H -2.05 -1.0108 -1.8688 0
M  V30 48 H -0.7647 -0.9832 2.4896 0
M  V30 49 H 0.1471 -2.3087 -1.3932 0
M  V30 50 H 0.0885 -0.5469 -1.318 0
M  V30 51 H 0.8305 1.3808 1.4567 0
M  V30 52 H 0.5168 0.8009 3.1351 0
M  V30 53 H 2.4426 -2.1035 0.8574 0
M  V30 54 H 0.4783 -3.0356 2.2372 0
M  V30 55 H 0.5706 -3.6965 0.5691 0
M  V30 56 H -1.0148 -3.194 1.2515 0
M  V30 57 H 2.8779 0.3142 1.9433 0
M  V30 58 H 2.064 -0.9969 2.887 0
M  V30 59 H 3.2901 -0.5593 -3.5652 0
M  V30 60 H 2.9686 0.8771 -2.5373 0
M  V30 61 H 5.4042 0.6028 -3.1943 0
M  V30 62 H 5.4609 -0.9555 -2.328 0
M  V30 63 H 5.482 -1.0037 0.1453 0
M  V30 64 H 5.0797 2.7524 -1.9409 0
M  V30 65 H 5.9128 0.2229 2.2461 0
M  V30 66 H 5.5185 3.9595 0.1685 0
M  V30 67 H 5.9358 2.7006 2.2636 0
M  V30 END ATOM
M  V30 BEGIN BOND
M  V30 1 2 1 2
M  V30 2 1 2 3
M  V30 3 1 2 4
M  V30 4 2 3 5
M  V30 5 1 4 6
M  V30 6 1 5 7
M  V30 7 1 5 8
M  V30 8 1 7 9
M  V30 9 1 7 10
M  V30 10 1 8 11
M  V30 11 1 9 12
M  V30 12 1 9 13
M  V30 13 1 12 14
M  V30 14 1 13 15
M  V30 15 1 14 16
M  V30 16 1 14 17
M  V30 17 1 16 18
M  V30 18 1 16 19
M  V30 19 1 17 20
M  V30 20 1 18 21
M  V30 21 1 21 22
M  V30 22 2 22 23
M  V30 23 1 22 24
M  V30 24 1 24 25
M  V30 25 1 25 26
M  V30 26 2 26 27
M  V30 27 1 26 28
M  V30 28 1 27 29
M  V30 29 2 28 30
M  V30 30 2 29 31
M  V30 31 1 6 7
M  V30 32 1 11 12
M  V30 33 1 15 16
M  V30 34 1 18 20
M  V30 35 1 30 31
M  V30 36 1 3 32
M  V30 37 1 4 33
M  V30 38 1 4 34
M  V30 39 1 6 35
M  V30 40 1 6 36
M  V30 41 1 8 37
M  V30 42 1 8 38
M  V30 43 1 9 39
M  V30 44 1 10 40
M  V30 45 1 10 41
M  V30 46 1 10 42
M  V30 47 1 11 43
M  V30 48 1 11 44
M  V30 49 1 12 45
M  V30 50 1 13 46
M  V30 51 1 13 47
M  V30 52 1 14 48
M  V30 53 1 15 49
M  V30 54 1 15 50
M  V30 55 1 17 51
M  V30 56 1 17 52
M  V30 57 1 18 53
M  V30 58 1 19 54
M  V30 59 1 19 55
M  V30 60 1 19 56
M  V30 61 1 20 57
M  V30 62 1 20 58
M  V30 63 1 24 59
M  V30 64 1 24 60
M  V30 65 1 25 61
M  V30 66 1 25 62
M  V30 67 1 27 63
M  V30 68 1 28 64
M  V30 69 1 29 65
M  V30 70 1 30 66
M  V30 71 1 31 67
M  V30 END BOND
M  V30 BEGIN COLLECTION
M  V30 MDLV30/STEABS ATOMS=(6 7 9 12 14 16 18)
M  V30 END COLLECTION
M  V30 END CTAB
M  END
>  <Structure No>
6493

>  <LogS>
-5.27

>  <MMFF94 Energy>
87.028

$$$$
Compound 6494
Actelion Java MolfileCreator 2.0

  0  0  0  0  0  0              0 V3000
M  V30 BEGIN CTAB
M  V30 COUNTS 26 29 0 0 0
M  V30 BEGIN ATOM
M  V30 1 C -2.2682 -0.2428 0.1618 0
M  V30 2 C -0.8942 -0.0937 0.0751 0
M  V30 3 C -3.0544 0.9214 0.0592 0
M  V30 4 C -2.7687 -1.5465 0.3458 0
M  V30 5 C -0.2699 1.1118 -0.103 0
M  V30 6 C -0.0097 -1.1356 0.1579 0
M  V30 7 C -2.4264 2.1813 -0.1256 0
M  V30 8 C -1.8682 -2.6406 0.4342 0
M  V30 9 C 1.1653 0.825 -0.1397 0
M  V30 10 C -1.0175 2.2854 -0.2087 0
M  V30 11 C 1.3244 -0.5485 0.0197 0
M  V30 12 C -0.4704 -2.4401 0.34 0
M  V30 13 C 2.2614 1.6699 -0.2973 0
M  V30 14 C 2.5865 -1.1376 0.0286 0
M  V30 15 C 3.5444 1.0934 -0.2912 0
M  V30 16 C 3.7058 -0.3006 -0.1293 0
M  V30 17 H -4.1339 0.862 0.1204 0
M  V30 18 H -3.8351 -1.7196 0.4202 0
M  V30 19 H -3.0329 3.0742 -0.2041 0
M  V30 20 H -2.2555 -3.6411 0.5757 0
M  V30 21 H -0.5359 3.2439 -0.3495 0
M  V30 22 H 0.2184 -3.2717 0.407 0
M  V30 23 H 2.131 2.7371 -0.4209 0
M  V30 24 H 2.7034 -2.2061 0.153 0
M  V30 25 H 4.4157 1.724 -0.4116 0
M  V30 26 H 4.6997 -0.7288 -0.1266 0
M  V30 END ATOM
M  V30 BEGIN BOND
M  V30 1 1 1 2
M  V30 2 1 1 3
M  V30 3 2 1 4
M  V30 4 1 2 5
M  V30 5 2 2 6
M  V30 6 2 3 7
M  V30 7 1 4 8
M  V30 8 1 5 9
M  V30 9 2 5 10
M  V30 10 1 6 11
M  V30 11 1 6 12
M  V30 12 1 9 13
M  V30 13 1 11 14
M  V30 14 2 13 15
M  V30 15 2 14 16
M  V30 16 1 7 10
M  V30 17 2 8 12
M  V30 18 2 9 11
M  V30 19 1 15 16
M  V30 20 1 3 17
M  V30 21 1 4 18
M  V30 22 1 7 19
M  V30 23 1 8 20
M  V30 24 1 10 21
M  V30 25 1 12 22
M  V30 26 1 13 23
M  V30 27 1 14 24
M  V30 28 1 15 25
M  V30 29 1 16 26
M  V30 END BOND
M  V30 END CTAB
M  END
>  <Structure No>
6494

>  <LogS>
-5.93

>  <MMFF94 Energy>
78.047

$$$$
Compound 6495
Actelion Java MolfileCreator 2.0

  0  0  0  0  0  0              0 V3000
M  V30 BEGIN CTAB
M  V30 COUNTS 39 40 0 0 0
M  V30 BEGIN ATOM
M  V30 1 O 2.8544 1.7436 1.2678 0
M  V30 2 C 1.9221 2.0133 0.4612 0
M  V30 3 O 1.5686 3.3421 0.2099 0
M  V30 4 N 1.1994 0.9653 -0.1947 0
M  V30 5 C 2.2231 4.441 0.8324 0
M  V30 6 C 1.5184 -0.4275 -0.0593 0
M  V30 7 N 2.7393 -0.8688 0.345 0
M  V30 8 N 0.674 -1.428 -0.43 0
M  V30 9 C 2.6327 -2.2039 0.2201 0
M  V30 10 C 1.3969 -2.5471 -0.2501 0
M  V30 11 C -0.6916 -1.3257 -0.8637 0
M  V30 12 C 3.5995 -3.1612 0.5177 0
M  V30 13 C 1.0254 -3.8812 -0.4386 0
M  V30 14 O -1.1029 -2.0546 -1.8071 0
M  V30 15 N -1.5963 -0.4293 -0.2035 0
M  V30 16 C 3.2631 -4.514 0.3267 0
M  V30 17 C 1.981 -4.8723 -0.1472 0
M  V30 18 C -3.0048 -0.3435 -0.5945 0
M  V30 19 C -3.7993 0.6053 0.3219 0
M  V30 20 C -3.7647 2.0742 -0.1312 0
M  V30 21 C -2.3762 2.701 -0.035 0
M  V30 22 H 0.4134 1.2398 -0.8225 0
M  V30 23 H 1.7671 5.3869 0.4746 0
M  V30 24 H 3.3021 4.4394 0.5698 0
M  V30 25 H 2.1047 4.3791 1.935 0
M  V30 26 H 4.5756 -2.8754 0.8879 0
M  V30 27 H 0.0397 -4.1543 -0.7893 0
M  V30 28 H -1.252 0.0982 0.6297 0
M  V30 29 H 3.9892 -5.2849 0.549 0
M  V30 30 H 1.7307 -5.9163 -0.2834 0
M  V30 31 H -3.0813 -0.0155 -1.6539 0
M  V30 32 H -3.4533 -1.3582 -0.5206 0
M  V30 33 H -4.863 0.2816 0.309 0
M  V30 34 H -3.454 0.5172 1.3752 0
M  V30 35 H -4.1365 2.1579 -1.1756 0
M  V30 36 H -4.4557 2.6556 0.5169 0
M  V30 37 H -1.7073 2.2664 -0.8043 0
M  V30 38 H -1.943 2.5433 0.9753 0
M  V30 39 H -2.4496 3.7932 -0.2217 0
M  V30 END ATOM
M  V30 BEGIN BOND
M  V30 1 2 1 2
M  V30 2 1 2 3
M  V30 3 1 2 4
M  V30 4 1 3 5
M  V30 5 1 4 6
M  V30 6 2 6 7
M  V30 7 1 6 8
M  V30 8 1 7 9
M  V30 9 1 8 10
M  V30 10 1 8 11
M  V30 11 1 9 12
M  V30 12 1 10 13
M  V30 13 2 11 14
M  V30 14 1 11 15
M  V30 15 2 12 16
M  V30 16 2 13 17
M  V30 17 1 15 18
M  V30 18 1 18 19
M  V30 19 1 19 20
M  V30 20 1 20 21
M  V30 21 2 9 10
M  V30 22 1 16 17
M  V30 23 1 4 22
M  V30 24 1 5 23
M  V30 25 1 5 24
M  V30 26 1 5 25
M  V30 27 1 12 26
M  V30 28 1 13 27
M  V30 29 1 15 28
M  V30 30 1 16 29
M  V30 31 1 17 30
M  V30 32 1 18 31
M  V30 33 1 18 32
M  V30 34 1 19 33
M  V30 35 1 19 34
M  V30 36 1 20 35
M  V30 37 1 20 36
M  V30 38 1 21 37
M  V30 39 1 21 38
M  V30 40 1 21 39
M  V30 END BOND
M  V30 END CTAB
M  END
>  <Structure No>
6495

>  <LogS>
-4.86

>  <MMFF94 Energy>
-38.375

$$$$
Compound 6496
Actelion Java MolfileCreator 2.0

  0  0  0  0  0  0              0 V3000
M  V30 BEGIN CTAB
M  V30 COUNTS 70 74 0 0 0
M  V30 BEGIN ATOM
M  V30 1 O -7.774 -2.4245 -0.8884 0
M  V30 2 C -6.7446 -1.7215 -0.7053 0
M  V30 3 C -6.2137 -1.5591 0.6575 0
M  V30 4 C -6.0935 -1.0475 -1.8781 0
M  V30 5 C -5.1654 -0.7588 0.9145 0
M  V30 6 C -4.6589 -0.6036 -1.5534 0
M  V30 7 C -4.5467 0.1244 -0.1762 0 CFG=2
M  V30 8 C -4.556 -0.7336 2.2994 0
M  V30 9 C -3.0443 0.4254 0.2045 0 CFG=1
M  V30 10 C -5.3348 1.4566 -0.2214 0
M  V30 11 C -3.0376 -1.0298 2.2679 0
M  V30 12 C -2.3893 -0.8015 0.8768 0 CFG=2
M  V30 13 C -2.1702 0.9197 -0.9537 0
M  V30 14 C -0.8199 -0.7662 0.9556 0 CFG=2
M  V30 15 C -0.8991 1.5298 -0.3766 0
M  V30 16 C -0.054 0.5317 0.4868 0 CFG=2
M  V30 17 C -0.1991 -1.9175 0.1591 0
M  V30 18 C 1.1488 -0.0092 -0.3602 0 CFG=2
M  V30 19 C 0.4498 1.2858 1.7456 0
M  V30 20 C 1.2295 -1.4993 -0.0823 0
M  V30 21 O 2.4029 0.596 -0.0339 0
M  V30 22 C 2.8649 1.7947 -0.5861 0
M  V30 23 O 2.1858 2.4187 -1.4455 0
M  V30 24 C 4.204 2.3195 -0.1717 0
M  V30 25 C 5.2475 2.1845 -1.2917 0
M  V30 26 C 5.5141 0.7313 -1.7262 0
M  V30 27 C 6.0683 -0.1139 -0.6059 0
M  V30 28 C 7.3764 0.0992 -0.1382 0
M  V30 29 C 5.2832 -1.1199 -0.0153 0
M  V30 30 C 7.887 -0.6778 0.9067 0
M  V30 31 C 5.7971 -1.8934 1.0298 0
M  V30 32 C 7.0981 -1.6728 1.4909 0
M  V30 33 H -6.6573 -2.1484 1.4517 0
M  V30 34 H -6.7058 -0.1712 -2.1811 0
M  V30 35 H -6.067 -1.7514 -2.7384 0
M  V30 36 H -4.0098 -1.5053 -1.5602 0
M  V30 37 H -4.312 0.0575 -2.3765 0
M  V30 38 H -5.0539 -1.4537 2.9855 0
M  V30 39 H -4.7208 0.2807 2.7236 0
M  V30 40 H -3.0549 1.2371 0.9709 0
M  V30 41 H -4.976 2.1032 -1.0485 0
M  V30 42 H -5.2219 2.0154 0.7321 0
M  V30 43 H -6.4211 1.281 -0.3652 0
M  V30 44 H -2.5446 -0.3813 3.0259 0
M  V30 45 H -2.8634 -2.0856 2.5716 0
M  V30 46 H -2.6766 -1.6919 0.275 0
M  V30 47 H -2.7015 1.7053 -1.5317 0
M  V30 48 H -1.9114 0.0886 -1.6463 0
M  V30 49 H -0.5281 -0.9834 2.0097 0
M  V30 50 H -0.306 1.9512 -1.2139 0
M  V30 51 H -1.199 2.4183 0.2247 0
M  V30 52 H -0.2489 -2.8779 0.7175 0
M  V30 53 H -0.7043 -2.0386 -0.8256 0
M  V30 54 H 0.9561 0.0939 -1.4531 0
M  V30 55 H 0.9563 2.2342 1.4667 0
M  V30 56 H 1.1663 0.6627 2.3229 0
M  V30 57 H -0.4051 1.5363 2.4093 0
M  V30 58 H 1.6754 -2.0528 -0.9373 0
M  V30 59 H 1.8327 -1.6902 0.8339 0
M  V30 60 H 4.5511 1.7872 0.7396 0
M  V30 61 H 4.0994 3.3934 0.093 0
M  V30 62 H 4.9073 2.765 -2.1774 0
M  V30 63 H 6.1989 2.6463 -0.949 0
M  V30 64 H 6.2491 0.7403 -2.5602 0
M  V30 65 H 4.5816 0.284 -2.1348 0
M  V30 66 H 7.999 0.8658 -0.5834 0
M  V30 67 H 4.2769 -1.3095 -0.3658 0
M  V30 68 H 8.895 -0.5085 1.2634 0
M  V30 69 H 5.1878 -2.6662 1.4805 0
M  V30 70 H 7.495 -2.274 2.299 0
M  V30 END ATOM
M  V30 BEGIN BOND
M  V30 1 2 1 2
M  V30 2 1 2 3
M  V30 3 1 2 4
M  V30 4 2 3 5
M  V30 5 1 4 6
M  V30 6 1 5 7
M  V30 7 1 5 8
M  V30 8 1 7 9
M  V30 9 1 7 10
M  V30 10 1 8 11
M  V30 11 1 9 12
M  V30 12 1 9 13
M  V30 13 1 12 14
M  V30 14 1 13 15
M  V30 15 1 14 16
M  V30 16 1 14 17
M  V30 17 1 16 18
M  V30 18 1 16 19
M  V30 19 1 17 20
M  V30 20 1 18 21
M  V30 21 1 21 22
M  V30 22 2 22 23
M  V30 23 1 22 24
M  V30 24 1 24 25
M  V30 25 1 25 26
M  V30 26 1 26 27
M  V30 27 2 27 28
M  V30 28 1 27 29
M  V30 29 1 28 30
M  V30 30 2 29 31
M  V30 31 2 30 32
M  V30 32 1 6 7
M  V30 33 1 11 12
M  V30 34 1 15 16
M  V30 35 1 18 20
M  V30 36 1 31 32
M  V30 37 1 3 33
M  V30 38 1 4 34
M  V30 39 1 4 35
M  V30 40 1 6 36
M  V30 41 1 6 37
M  V30 42 1 8 38
M  V30 43 1 8 39
M  V30 44 1 9 40
M  V30 45 1 10 41
M  V30 46 1 10 42
M  V30 47 1 10 43
M  V30 48 1 11 44
M  V30 49 1 11 45
M  V30 50 1 12 46
M  V30 51 1 13 47
M  V30 52 1 13 48
M  V30 53 1 14 49
M  V30 54 1 15 50
M  V30 55 1 15 51
M  V30 56 1 17 52
M  V30 57 1 17 53
M  V30 58 1 18 54
M  V30 59 1 19 55
M  V30 60 1 19 56
M  V30 61 1 19 57
M  V30 62 1 20 58
M  V30 63 1 20 59
M  V30 64 1 24 60
M  V30 65 1 24 61
M  V30 66 1 25 62
M  V30 67 1 25 63
M  V30 68 1 26 64
M  V30 69 1 26 65
M  V30 70 1 28 66
M  V30 71 1 29 67
M  V30 72 1 30 68
M  V30 73 1 31 69
M  V30 74 1 32 70
M  V30 END BOND
M  V30 BEGIN COLLECTION
M  V30 MDLV30/STEABS ATOMS=(6 7 9 12 14 16 18)
M  V30 END COLLECTION
M  V30 END CTAB
M  END
>  <Structure No>
6496

>  <LogS>
-5.43

>  <MMFF94 Energy>
82.816

$$$$
Compound 6497
Actelion Java MolfileCreator 2.0

  0  0  0  0  0  0              0 V3000
M  V30 BEGIN CTAB
M  V30 COUNTS 22 23 0 0 0
M  V30 BEGIN ATOM
M  V30 1 Cl -5.3136 -0.1768 0.0 0
M  V30 2 C -3.5526 -0.1198 -0.0744 0
M  V30 3 C -2.8038 -1.3082 -0.0289 0
M  V30 4 C -2.8885 1.1144 -0.1796 0
M  V30 5 Cl -3.5888 -2.8767 0.108 0
M  V30 6 C -1.4071 -1.259 -0.0886 0
M  V30 7 Cl -3.7816 2.6288 -0.2457 0
M  V30 8 C -1.4915 1.1556 -0.2381 0
M  V30 9 C -0.7365 -0.0286 -0.1933 0
M  V30 10 C 0.7466 0.0193 -0.2559 0
M  V30 11 C 1.4607 1.0035 0.4517 0
M  V30 12 C 1.4599 -0.9182 -1.0236 0
M  V30 13 C 2.8587 1.051 0.3942 0
M  V30 14 C 2.8548 -0.8711 -1.0822 0
M  V30 15 Cl 3.706 2.2969 1.3012 0
M  V30 16 C 3.5591 0.1092 -0.3766 0
M  V30 17 Cl 5.3145 0.1351 -0.4761 0
M  V30 18 H -0.8454 -2.1835 -0.0348 0
M  V30 19 H -0.9971 2.1142 -0.3367 0
M  V30 20 H 0.9345 1.7256 1.064 0
M  V30 21 H 0.938 -1.6771 -1.5928 0
M  V30 22 H 3.3886 -1.5979 -1.6813 0
M  V30 END ATOM
M  V30 BEGIN BOND
M  V30 1 1 1 2
M  V30 2 2 2 3
M  V30 3 1 2 4
M  V30 4 1 3 5
M  V30 5 1 3 6
M  V30 6 1 4 7
M  V30 7 2 4 8
M  V30 8 2 6 9
M  V30 9 1 9 10
M  V30 10 2 10 11
M  V30 11 1 10 12
M  V30 12 1 11 13
M  V30 13 2 12 14
M  V30 14 1 13 15
M  V30 15 2 13 16
M  V30 16 1 16 17
M  V30 17 1 8 9
M  V30 18 1 14 16
M  V30 19 1 6 18
M  V30 20 1 8 19
M  V30 21 1 11 20
M  V30 22 1 12 21
M  V30 23 1 14 22
M  V30 END BOND
M  V30 END CTAB
M  END
>  <Structure No>
6497

>  <LogS>
-8.39

>  <MMFF94 Energy>
48.712

$$$$
Compound 6498
Actelion Java MolfileCreator 2.0

  0  0  0  0  0  0              0 V3000
M  V30 BEGIN CTAB
M  V30 COUNTS 27 28 0 0 0
M  V30 BEGIN ATOM
M  V30 1 Cl 2.0829 -0.0832 3.0004 0
M  V30 2 C 2.8117 0.1302 1.4125 0
M  V30 3 C 2.0518 0.0356 0.2241 0
M  V30 4 C 4.1802 0.421 1.3504 0
M  V30 5 N 0.6453 -0.2741 0.2816 0
M  V30 6 C 2.7008 0.2299 -1.012 0
M  V30 7 C 4.8053 0.6154 0.1182 0
M  V30 8 S -0.4561 0.0078 -1.0289 0
M  V30 9 C 4.0668 0.5191 -1.0607 0
M  V30 10 O -0.2389 1.3831 -1.5966 0
M  V30 11 O -0.2371 -1.0146 -2.1088 0
M  V30 12 C -2.1059 -0.109 -0.4252 0
M  V30 13 C -2.7077 0.9978 0.1911 0
M  V30 14 C -2.8157 -1.3146 -0.5287 0
M  V30 15 C -4.0123 0.9032 0.6863 0
M  V30 16 C -4.1203 -1.4062 -0.0327 0
M  V30 17 C -4.7189 -0.2976 0.5731 0
M  V30 18 H 4.7617 0.4989 2.2605 0
M  V30 19 H 0.226 -0.6368 1.1653 0
M  V30 20 H 2.1635 0.1469 -1.9456 0
M  V30 21 H 5.8635 0.8394 0.0773 0
M  V30 22 H 4.5544 0.6652 -2.016 0
M  V30 23 H -2.1672 1.9307 0.2907 0
M  V30 24 H -2.361 -2.1826 -0.9887 0
M  V30 25 H -4.4746 1.7599 1.1597 0
M  V30 26 H -4.6662 -2.3371 -0.1157 0
M  V30 27 H -5.7283 -0.3699 0.9574 0
M  V30 END ATOM
M  V30 BEGIN BOND
M  V30 1 1 1 2
M  V30 2 2 2 3
M  V30 3 1 2 4
M  V30 4 1 3 5
M  V30 5 1 3 6
M  V30 6 2 4 7
M  V30 7 1 5 8
M  V30 8 2 6 9
M  V30 9 2 8 10
M  V30 10 2 8 11
M  V30 11 1 8 12
M  V30 12 2 12 13
M  V30 13 1 12 14
M  V30 14 1 13 15
M  V30 15 2 14 16
M  V30 16 2 15 17
M  V30 17 1 7 9
M  V30 18 1 16 17
M  V30 19 1 4 18
M  V30 20 1 5 19
M  V30 21 1 6 20
M  V30 22 1 7 21
M  V30 23 1 9 22
M  V30 24 1 13 23
M  V30 25 1 14 24
M  V30 26 1 15 25
M  V30 27 1 16 26
M  V30 28 1 17 27
M  V30 END BOND
M  V30 END CTAB
M  END
>  <Structure No>
6498

>  <LogS>
-4.32

>  <MMFF94 Energy>
11.529

$$$$
Compound 6499
Actelion Java MolfileCreator 2.0

  0  0  0  0  0  0              0 V3000
M  V30 BEGIN CTAB
M  V30 COUNTS 47 48 0 0 0
M  V30 BEGIN ATOM
M  V30 1 S 5.1596 2.416 0.4828 0
M  V30 2 O 6.5349 2.204 1.0516 0
M  V30 3 O 4.4574 3.465 1.2989 0
M  V30 4 N 5.2843 2.9486 -1.1567 0
M  V30 5 C 4.2512 0.909 0.5408 0
M  V30 6 C 2.8579 0.9314 0.6703 0
M  V30 7 C 4.915 -0.3155 0.4267 0
M  V30 8 C 2.12 -0.2643 0.6923 0
M  V30 9 C 4.1972 -1.5118 0.4673 0
M  V30 10 C 2.7959 -1.502 0.6138 0
M  V30 11 C 0.6473 -0.1952 0.8175 0
M  V30 12 O 2.059 -2.6944 0.7095 0
M  V30 13 O 0.1346 0.656 1.5947 0
M  V30 14 N -0.1992 -1.0574 0.041 0
M  V30 15 C 2.62 -4.0013 0.6432 0
M  V30 16 C -1.6544 -1.0663 0.1847 0
M  V30 17 C -2.2847 0.1588 -0.5175 0 CFG=2
M  V30 18 N -3.7541 0.1878 -0.3711 0 CHG=1 CFG=2
M  V30 19 C -1.9914 0.1635 -2.0219 0
M  V30 20 C -4.244 0.9163 -1.5522 0
M  V30 21 C -4.1732 0.8303 0.8975 0
M  V30 22 C -3.2694 0.6437 -2.6869 0
M  V30 23 C -5.6838 0.7216 1.1233 0
M  V30 24 H 5.8817 3.8054 -1.1553 0
M  V30 25 H 5.813 2.2129 -1.6767 0
M  V30 26 H 2.3441 1.8832 0.7341 0
M  V30 27 H 5.9909 -0.3463 0.3111 0
M  V30 28 H 4.7444 -2.4413 0.3932 0
M  V30 29 H 0.2254 -1.6904 -0.673 0
M  V30 30 H 3.124 -4.1511 -0.3347 0
M  V30 31 H 1.8069 -4.7493 0.7415 0
M  V30 32 H 3.3417 -4.1499 1.4739 0
M  V30 33 H -1.916 -1.0803 1.2634 0
M  V30 34 H -2.0577 -2.0013 -0.2623 0
M  V30 35 H -1.843 1.0881 -0.0871 0
M  V30 36 H -4.1301 -0.791 -0.4079 0
M  V30 37 H -1.7412 -0.8537 -2.3971 0
M  V30 38 H -1.1433 0.8451 -2.253 0
M  V30 39 H -5.2674 0.5785 -1.8313 0
M  V30 40 H -4.2736 2.015 -1.367 0
M  V30 41 H -3.8769 1.9035 0.9195 0
M  V30 42 H -3.6735 0.3344 1.7574 0
M  V30 43 H -3.6745 -0.1496 -3.3529 0
M  V30 44 H -3.0898 1.5636 -3.2856 0
M  V30 45 H -5.9407 1.1411 2.1189 0
M  V30 46 H -6.0032 -0.3414 1.0939 0
M  V30 47 H -6.2383 1.2944 0.3511 0
M  V30 END ATOM
M  V30 BEGIN BOND
M  V30 1 2 1 2
M  V30 2 2 1 3
M  V30 3 1 1 4
M  V30 4 1 1 5
M  V30 5 2 5 6
M  V30 6 1 5 7
M  V30 7 1 6 8
M  V30 8 2 7 9
M  V30 9 2 8 10
M  V30 10 1 8 11
M  V30 11 1 10 12
M  V30 12 2 11 13
M  V30 13 1 11 14
M  V30 14 1 12 15
M  V30 15 1 14 16
M  V30 16 1 16 17
M  V30 17 1 17 18
M  V30 18 1 17 19
M  V30 19 1 18 20
M  V30 20 1 18 21
M  V30 21 1 19 22
M  V30 22 1 21 23
M  V30 23 1 9 10
M  V30 24 1 20 22
M  V30 25 1 4 24
M  V30 26 1 4 25
M  V30 27 1 6 26
M  V30 28 1 7 27
M  V30 29 1 9 28
M  V30 30 1 14 29
M  V30 31 1 15 30
M  V30 32 1 15 31
M  V30 33 1 15 32
M  V30 34 1 16 33
M  V30 35 1 16 34
M  V30 36 1 17 35
M  V30 37 1 18 36
M  V30 38 1 19 37
M  V30 39 1 19 38
M  V30 40 1 20 39
M  V30 41 1 20 40
M  V30 42 1 21 41
M  V30 43 1 21 42
M  V30 44 1 22 43
M  V30 45 1 22 44
M  V30 46 1 23 45
M  V30 47 1 23 46
M  V30 48 1 23 47
M  V30 END BOND
M  V30 BEGIN COLLECTION
M  V30 MDLV30/STEABS ATOMS=(2 17 18)
M  V30 END COLLECTION
M  V30 END CTAB
M  END
>  <Structure No>
6499

>  <LogS>
-2.88

>  <MMFF94 Energy>
-25.222

$$$$
Compound 6500
Actelion Java MolfileCreator 2.0

  0  0  0  0  0  0              0 V3000
M  V30 BEGIN CTAB
M  V30 COUNTS 22 23 0 0 0
M  V30 BEGIN ATOM
M  V30 1 Cl 5.223 -0.4419 -0.5303 0
M  V30 2 C 3.4734 -0.3055 -0.3583 0
M  V30 3 C 2.7379 0.5131 -1.2335 0
M  V30 4 C 2.805 -1.0118 0.6574 0
M  V30 5 Cl 3.5286 1.421 -2.5159 0
M  V30 6 C 1.3498 0.6178 -1.094 0
M  V30 7 Cl 3.6815 -2.04 1.7837 0
M  V30 8 C 1.4169 -0.901 0.79 0
M  V30 9 C 0.6789 -0.0955 -0.0899 0
M  V30 10 C -0.788 0.0342 0.0606 0
M  V30 11 C -1.6413 -1.0916 0.0261 0
M  V30 12 C -1.3468 1.3116 0.2391 0
M  V30 13 Cl -1.0293 -2.7145 -0.2791 0
M  V30 14 C -3.0225 -0.9247 0.1863 0
M  V30 15 C -2.7259 1.467 0.3983 0
M  V30 16 C -3.5639 0.3499 0.3754 0
M  V30 17 Cl -5.2956 0.5478 0.5735 0
M  V30 18 H 0.7913 1.2489 -1.775 0
M  V30 19 H 0.9134 -1.436 1.5863 0
M  V30 20 H -0.7114 2.1886 0.2682 0
M  V30 21 H -3.6774 -1.7866 0.1549 0
M  V30 22 H -3.1415 2.4564 0.5411 0
M  V30 END ATOM
M  V30 BEGIN BOND
M  V30 1 1 1 2
M  V30 2 2 2 3
M  V30 3 1 2 4
M  V30 4 1 3 5
M  V30 5 1 3 6
M  V30 6 1 4 7
M  V30 7 2 4 8
M  V30 8 2 6 9
M  V30 9 1 9 10
M  V30 10 2 10 11
M  V30 11 1 10 12
M  V30 12 1 11 13
M  V30 13 1 11 14
M  V30 14 2 12 15
M  V30 15 2 14 16
M  V30 16 1 16 17
M  V30 17 1 8 9
M  V30 18 1 15 16
M  V30 19 1 6 18
M  V30 20 1 8 19
M  V30 21 1 12 20
M  V30 22 1 14 21
M  V30 23 1 15 22
M  V30 END BOND
M  V30 END CTAB
M  END
>  <Structure No>
6500

>  <LogS>
-8.55

>  <MMFF94 Energy>
42.581

$$$$
Compound 6501
Actelion Java MolfileCreator 2.0

  0  0  0  0  0  0              0 V3000
M  V30 BEGIN CTAB
M  V30 COUNTS 64 68 0 0 0
M  V30 BEGIN ATOM
M  V30 1 O 7.7134 -0.6478 1.2149 0
M  V30 2 C 6.5865 -0.5371 0.6629 0
M  V30 3 C 5.59 0.3894 1.2257 0
M  V30 4 C 6.2899 -1.321 -0.5787 0
M  V30 5 C 4.4032 0.614 0.6282 0
M  V30 6 C 4.7744 -1.4305 -0.7883 0
M  V30 7 C 4.0495 -0.0438 -0.7092 0 CFG=1
M  V30 8 C 3.4593 1.5838 1.2808 0
M  V30 9 C 2.4739 -0.1908 -0.8852 0 CFG=2
M  V30 10 C 4.5974 0.8397 -1.8679 0
M  V30 11 C 2.4563 2.1524 0.284 0
M  V30 12 C 1.61 1.049 -0.4044 0 CFG=2
M  V30 13 C 1.8874 -1.5193 -0.3527 0
M  V30 14 C 0.3795 0.6958 0.5118 0 CFG=2
M  V30 15 C 0.4037 -1.6057 -0.6965 0
M  V30 16 C -0.428 -0.5667 0.0977 0 CFG=2
M  V30 17 C -0.6607 1.8444 0.5392 0
M  V30 18 C -1.5752 0.0016 -0.7619 0 CFG=2
M  V30 19 C -0.986 -1.2508 1.3794 0
M  V30 20 C -1.9384 1.3323 -0.119 0
M  V30 21 O -2.6966 -0.8813 -0.8029 0
M  V30 22 C -3.7944 -0.6933 -1.6477 0
M  V30 23 O -3.7816 0.2018 -2.5362 0
M  V30 24 C -5.0208 -1.5196 -1.4409 0
M  V30 25 C -5.9351 -0.8303 -0.4667 0
M  V30 26 C -7.0311 -0.0804 -0.9272 0
M  V30 27 C -5.6651 -0.8809 0.9123 0
M  V30 28 C -7.8545 0.5927 -0.0187 0
M  V30 29 C -6.4891 -0.2029 1.8162 0
M  V30 30 C -7.5835 0.5318 1.351 0
M  V30 31 H 5.8306 0.8883 2.1576 0
M  V30 32 H 6.7731 -0.8337 -1.4516 0
M  V30 33 H 6.7185 -2.3424 -0.4821 0
M  V30 34 H 4.4041 -2.101 0.0161 0
M  V30 35 H 4.5754 -1.9229 -1.7656 0
M  V30 36 H 2.9382 1.0734 2.1167 0
M  V30 37 H 4.0281 2.4375 1.7098 0
M  V30 38 H 2.3141 -0.2623 -1.9874 0
M  V30 39 H 5.6126 1.2309 -1.6412 0
M  V30 40 H 3.9465 1.7066 -2.0862 0
M  V30 41 H 4.6552 0.2545 -2.8109 0
M  V30 42 H 1.8119 2.8749 0.8273 0
M  V30 43 H 2.9884 2.7675 -0.4676 0
M  V30 44 H 1.1924 1.5101 -1.3292 0
M  V30 45 H 2.3652 -2.3875 -0.8532 0
M  V30 46 H 2.046 -1.6075 0.7445 0
M  V30 47 H 0.7703 0.5501 1.544 0
M  V30 48 H 0.2903 -1.4659 -1.7942 0
M  V30 49 H 0.0448 -2.6396 -0.4946 0
M  V30 50 H -0.3139 2.7495 -0.0053 0
M  V30 51 H -0.8736 2.1433 1.5893 0
M  V30 52 H -1.2134 0.2022 -1.7969 0
M  V30 53 H -0.1528 -1.6303 2.009 0
M  V30 54 H -1.5818 -0.5413 1.993 0
M  V30 55 H -1.6358 -2.1153 1.1253 0
M  V30 56 H -2.3153 2.0503 -0.88 0
M  V30 57 H -2.7279 1.1866 0.6514 0
M  V30 58 H -4.7315 -2.5166 -1.0441 0
M  V30 59 H -5.5311 -1.6871 -2.4148 0
M  V30 60 H -7.2491 -0.0177 -1.9857 0
M  V30 61 H -4.8155 -1.4409 1.286 0
M  V30 62 H -8.7032 1.1617 -0.3746 0
M  V30 63 H -6.2792 -0.2464 2.8783 0
M  V30 64 H -8.2212 1.0534 2.0535 0
M  V30 END ATOM
M  V30 BEGIN BOND
M  V30 1 2 1 2
M  V30 2 1 2 3
M  V30 3 1 2 4
M  V30 4 2 3 5
M  V30 5 1 4 6
M  V30 6 1 5 7
M  V30 7 1 5 8
M  V30 8 1 7 9
M  V30 9 1 7 10
M  V30 10 1 8 11
M  V30 11 1 9 12
M  V30 12 1 9 13
M  V30 13 1 12 14
M  V30 14 1 13 15
M  V30 15 1 14 16
M  V30 16 1 14 17
M  V30 17 1 16 18
M  V30 18 1 16 19
M  V30 19 1 17 20
M  V30 20 1 18 21
M  V30 21 1 21 22
M  V30 22 2 22 23
M  V30 23 1 22 24
M  V30 24 1 24 25
M  V30 25 2 25 26
M  V30 26 1 25 27
M  V30 27 1 26 28
M  V30 28 2 27 29
M  V30 29 2 28 30
M  V30 30 1 6 7
M  V30 31 1 11 12
M  V30 32 1 15 16
M  V30 33 1 18 20
M  V30 34 1 29 30
M  V30 35 1 3 31
M  V30 36 1 4 32
M  V30 37 1 4 33
M  V30 38 1 6 34
M  V30 39 1 6 35
M  V30 40 1 8 36
M  V30 41 1 8 37
M  V30 42 1 9 38
M  V30 43 1 10 39
M  V30 44 1 10 40
M  V30 45 1 10 41
M  V30 46 1 11 42
M  V30 47 1 11 43
M  V30 48 1 12 44
M  V30 49 1 13 45
M  V30 50 1 13 46
M  V30 51 1 14 47
M  V30 52 1 15 48
M  V30 53 1 15 49
M  V30 54 1 17 50
M  V30 55 1 17 51
M  V30 56 1 18 52
M  V30 57 1 19 53
M  V30 58 1 19 54
M  V30 59 1 19 55
M  V30 60 1 20 56
M  V30 61 1 20 57
M  V30 62 1 24 58
M  V30 63 1 24 59
M  V30 64 1 26 60
M  V30 65 1 27 61
M  V30 66 1 28 62
M  V30 67 1 29 63
M  V30 68 1 30 64
M  V30 END BOND
M  V30 BEGIN COLLECTION
M  V30 MDLV30/STEABS ATOMS=(6 7 9 12 14 16 18)
M  V30 END COLLECTION
M  V30 END CTAB
M  END
>  <Structure No>
6501

>  <LogS>
-4.66

>  <MMFF94 Energy>
107.54

$$$$
Compound 6502
Actelion Java MolfileCreator 2.0

  0  0  0  0  0  0              0 V3000
M  V30 BEGIN CTAB
M  V30 COUNTS 28 29 0 0 0
M  V30 BEGIN ATOM
M  V30 1 Cl -0.6654 0.2494 2.3303 0
M  V30 2 C -1.878 0.3152 1.0581 0
M  V30 3 C -1.522 0.5405 -0.2878 0
M  V30 4 C -3.2285 0.1999 1.4101 0
M  V30 5 O -0.1853 0.6577 -0.6872 0
M  V30 6 C -2.5263 0.686 -1.2521 0
M  V30 7 C -4.2241 0.3204 0.4352 0
M  V30 8 C 0.8023 -0.3158 -0.4658 0
M  V30 9 C -3.8721 0.5692 -0.8945 0
M  V30 10 Cl -5.9139 0.1769 0.8836 0
M  V30 11 C 2.1617 0.058 -0.5103 0
M  V30 12 C 0.4626 -1.661 -0.2242 0
M  V30 13 C 3.1542 -0.9076 -0.27 0
M  V30 14 C 2.5592 1.4928 -0.7415 0
M  V30 15 C 1.4598 -2.6125 -0.0012 0
M  V30 16 C 2.8029 -2.2357 -0.0198 0
M  V30 17 C 2.5051 2.2552 0.5437 0
M  V30 18 O 1.4686 2.8979 0.8571 0
M  V30 19 O 3.5825 2.2175 1.4196 0 CHG=-1
M  V30 20 H -3.5048 0.029 2.443 0
M  V30 21 H -2.2611 0.876 -2.2842 0
M  V30 22 H -4.6395 0.6726 -1.6509 0
M  V30 23 H -0.5725 -1.9758 -0.213 0
M  V30 24 H 4.2012 -0.631 -0.275 0
M  V30 25 H 3.5892 1.5495 -1.1552 0
M  V30 26 H 1.8879 1.9646 -1.4915 0
M  V30 27 H 1.1906 -3.6437 0.1872 0
M  V30 28 H 3.5737 -2.974 0.1595 0
M  V30 END ATOM
M  V30 BEGIN BOND
M  V30 1 1 1 2
M  V30 2 2 2 3
M  V30 3 1 2 4
M  V30 4 1 3 5
M  V30 5 1 3 6
M  V30 6 2 4 7
M  V30 7 1 5 8
M  V30 8 2 6 9
M  V30 9 1 7 10
M  V30 10 2 8 11
M  V30 11 1 8 12
M  V30 12 1 11 13
M  V30 13 1 11 14
M  V30 14 2 12 15
M  V30 15 2 13 16
M  V30 16 1 14 17
M  V30 17 2 17 18
M  V30 18 1 17 19
M  V30 19 1 7 9
M  V30 20 1 15 16
M  V30 21 1 4 20
M  V30 22 1 6 21
M  V30 23 1 9 22
M  V30 24 1 12 23
M  V30 25 1 13 24
M  V30 26 1 14 25
M  V30 27 1 14 26
M  V30 28 1 15 27
M  V30 29 1 16 28
M  V30 END BOND
M  V30 END CTAB
M  END
>  <Structure No>
6502

>  <LogS>
-4.86

>  <MMFF94 Energy>
73.833

$$$$
Compound 6503
Actelion Java MolfileCreator 2.0

  0  0  0  0  0  0              0 V3000
M  V30 BEGIN CTAB
M  V30 COUNTS 26 27 0 0 0
M  V30 BEGIN ATOM
M  V30 1 Cl 1.2547 3.8515 -1.3384 0
M  V30 2 C 1.6144 2.1357 -1.4566 0
M  V30 3 N 2.0383 1.6513 -2.6548 0
M  V30 4 C 1.4512 1.2632 -0.3596 0
M  V30 5 C 2.3217 0.3366 -2.8418 0
M  V30 6 N 1.0041 1.7617 0.916 0
M  V30 7 C 1.7489 -0.0991 -0.5454 0
M  V30 8 C 2.1816 -0.5628 -1.7874 0
M  V30 9 S 0.2833 0.7578 2.1348 0
M  V30 10 O 1.3562 -0.064 2.7927 0
M  V30 11 O -0.3716 1.627 3.1706 0
M  V30 12 C -0.9433 -0.2781 1.4118 0
M  V30 13 C -1.0546 -1.6237 1.7917 0
M  V30 14 C -1.8141 0.2429 0.4444 0
M  V30 15 C -2.0245 -2.4409 1.2026 0
M  V30 16 C -2.7823 -0.5765 -0.1435 0
M  V30 17 C -2.8872 -1.918 0.2347 0
M  V30 18 H 2.6572 -0.0092 -3.8102 0
M  V30 19 H 1.0244 2.7861 1.1124 0
M  V30 20 H 1.6607 -0.8077 0.2652 0
M  V30 21 H 2.4103 -1.611 -1.9299 0
M  V30 22 H -0.393 -2.0407 2.5398 0
M  V30 23 H -1.7402 1.2805 0.1438 0
M  V30 24 H -2.1073 -3.4793 1.4959 0
M  V30 25 H -3.4509 -0.1718 -0.8922 0
M  V30 26 H -3.6369 -2.5517 -0.2208 0
M  V30 END ATOM
M  V30 BEGIN BOND
M  V30 1 1 1 2
M  V30 2 2 2 3
M  V30 3 1 2 4
M  V30 4 1 3 5
M  V30 5 1 4 6
M  V30 6 2 4 7
M  V30 7 2 5 8
M  V30 8 1 6 9
M  V30 9 2 9 10
M  V30 10 2 9 11
M  V30 11 1 9 12
M  V30 12 2 12 13
M  V30 13 1 12 14
M  V30 14 1 13 15
M  V30 15 2 14 16
M  V30 16 2 15 17
M  V30 17 1 7 8
M  V30 18 1 16 17
M  V30 19 1 5 18
M  V30 20 1 6 19
M  V30 21 1 7 20
M  V30 22 1 8 21
M  V30 23 1 13 22
M  V30 24 1 14 23
M  V30 25 1 15 24
M  V30 26 1 16 25
M  V30 27 1 17 26
M  V30 END BOND
M  V30 END CTAB
M  END
>  <Structure No>
6503

>  <LogS>
-3.76

>  <MMFF94 Energy>
22.39

$$$$
Compound 6504
Actelion Java MolfileCreator 2.0

  0  0  0  0  0  0              0 V3000
M  V30 BEGIN CTAB
M  V30 COUNTS 49 52 0 0 0
M  V30 BEGIN ATOM
M  V30 1 O -4.336 2.2465 0.4008 0
M  V30 2 C -4.0193 0.9052 0.1365 0
M  V30 3 C -5.5714 2.6882 0.9542 0
M  V30 4 C -2.7626 0.6168 -0.4091 0
M  V30 5 C -4.9164 -0.1431 0.3991 0
M  V30 6 C -2.3768 -0.7119 -0.6957 0
M  V30 7 C -4.5603 -1.4598 0.1136 0
M  V30 8 C -3.3067 -1.7514 -0.4311 0
M  V30 9 C -1.106 -1.0594 -1.2427 0
M  V30 10 N -2.9904 -3.0428 -0.7058 0
M  V30 11 C -0.8403 -2.4145 -1.5122 0
M  V30 12 C 0.0092 -0.0529 -1.5231 0 CFG=1
M  V30 13 C -1.794 -3.3899 -1.2365 0
M  V30 14 O -0.4783 1.013 -2.2979 0
M  V30 15 C 0.6615 0.4917 -0.2165 0 CFG=1
M  V30 16 N 1.1624 -0.5858 0.6952 0 CHG=1 CFG=1
M  V30 17 C 1.8043 1.5091 -0.5251 0
M  V30 18 C 2.3446 -1.2885 0.1292 0
M  V30 19 C 1.5594 0.0274 1.9888 0
M  V30 20 C 3.0603 1.1289 0.2819 0 CFG=2
M  V30 21 C 3.4985 -0.2855 -0.1771 0 CFG=1
M  V30 22 C 2.6726 1.0853 1.7768 0
M  V30 23 C 4.8076 -0.6997 0.4632 0
M  V30 24 C 5.9629 -0.1216 0.1207 0
M  V30 25 H -5.7208 2.2417 1.96 0
M  V30 26 H -5.549 3.7926 1.0558 0
M  V30 27 H -6.4116 2.4101 0.2833 0
M  V30 28 H -2.113 1.4539 -0.6053 0
M  V30 29 H -5.8937 0.0492 0.8204 0
M  V30 30 H -5.2645 -2.2575 0.3164 0
M  V30 31 H 0.108 -2.7235 -1.9325 0
M  V30 32 H 0.8133 -0.5425 -2.118 0
M  V30 33 H -1.5802 -4.4301 -1.4428 0
M  V30 34 H -0.692 0.6444 -3.1952 0
M  V30 35 H -0.1267 1.0567 0.3264 0
M  V30 36 H 0.4064 -1.283 0.8894 0
M  V30 37 H 2.0586 1.529 -1.6079 0
M  V30 38 H 1.4815 2.5382 -0.2515 0
M  V30 39 H 2.6694 -2.085 0.836 0
M  V30 40 H 2.0686 -1.8351 -0.7954 0
M  V30 41 H 0.6773 0.5017 2.4754 0
M  V30 42 H 1.9184 -0.7581 2.6917 0
M  V30 43 H 3.8632 1.8781 0.1075 0
M  V30 44 H 3.6578 -0.2718 -1.2798 0
M  V30 45 H 2.3117 2.0865 2.1002 0
M  V30 46 H 3.5606 0.8366 2.3973 0
M  V30 47 H 4.8288 -1.4899 1.208 0
M  V30 48 H 5.9944 0.665 -0.6268 0
M  V30 49 H 6.8888 -0.4386 0.5893 0
M  V30 END ATOM
M  V30 BEGIN BOND
M  V30 1 1 1 2
M  V30 2 1 1 3
M  V30 3 2 2 4
M  V30 4 1 2 5
M  V30 5 1 4 6
M  V30 6 2 5 7
M  V30 7 1 6 8
M  V30 8 2 6 9
M  V30 9 2 8 10
M  V30 10 1 9 11
M  V30 11 1 9 12
M  V30 12 1 10 13
M  V30 13 1 12 14
M  V30 14 1 12 15
M  V30 15 1 15 16
M  V30 16 1 15 17
M  V30 17 1 16 18
M  V30 18 1 16 19
M  V30 19 1 17 20
M  V30 20 1 18 21
M  V30 21 1 19 22
M  V30 22 1 21 23
M  V30 23 2 23 24
M  V30 24 1 7 8
M  V30 25 2 11 13
M  V30 26 1 20 21
M  V30 27 1 20 22
M  V30 28 1 3 25
M  V30 29 1 3 26
M  V30 30 1 3 27
M  V30 31 1 4 28
M  V30 32 1 5 29
M  V30 33 1 7 30
M  V30 34 1 11 31
M  V30 35 1 12 32
M  V30 36 1 13 33
M  V30 37 1 14 34
M  V30 38 1 15 35
M  V30 39 1 16 36
M  V30 40 1 17 37
M  V30 41 1 17 38
M  V30 42 1 18 39
M  V30 43 1 18 40
M  V30 44 1 19 41
M  V30 45 1 19 42
M  V30 46 1 20 43
M  V30 47 1 21 44
M  V30 48 1 22 45
M  V30 49 1 22 46
M  V30 50 1 23 47
M  V30 51 1 24 48
M  V30 52 1 24 49
M  V30 END BOND
M  V30 BEGIN COLLECTION
M  V30 MDLV30/STEABS ATOMS=(5 12 15 16 20 21)
M  V30 END COLLECTION
M  V30 END CTAB
M  END
>  <Structure No>
6504

>  <LogS>
-2.79

>  <MMFF94 Energy>
121.63

$$$$
Compound 6505
Actelion Java MolfileCreator 2.0

  0  0  0  0  0  0              0 V3000
M  V30 BEGIN CTAB
M  V30 COUNTS 26 27 0 0 0
M  V30 BEGIN ATOM
M  V30 1 Cl -2.5103 -3.5157 -0.418 0
M  V30 2 C -2.4704 -1.8534 0.1569 0
M  V30 3 C -1.584 -0.8954 -0.3762 0
M  V30 4 C -3.3458 -1.4754 1.1802 0
M  V30 5 N -1.6021 0.3752 0.1177 0
M  V30 6 N -0.6624 -1.237 -1.4231 0
M  V30 7 C -3.3363 -0.1664 1.6619 0
M  V30 8 C -2.4468 0.7555 1.1117 0
M  V30 9 S 0.4851 -0.0912 -2.0357 0
M  V30 10 O 1.3468 -0.7536 -3.0729 0
M  V30 11 O -0.2582 1.0513 -2.6699 0
M  V30 12 C 1.5081 0.4887 -0.7255 0
M  V30 13 C 1.919 -0.3935 0.284 0
M  V30 14 C 1.9177 1.8295 -0.6831 0
M  V30 15 C 2.7253 0.0638 1.3311 0
M  V30 16 C 2.7247 2.284 0.3648 0
M  V30 17 C 3.1274 1.4021 1.372 0
M  V30 18 H -4.0337 -2.1963 1.6038 0
M  V30 19 H -0.6461 -2.1967 -1.8318 0
M  V30 20 H -4.0115 0.1303 2.4541 0
M  V30 21 H -2.4267 1.7747 1.4744 0
M  V30 22 H 1.6139 -1.432 0.2615 0
M  V30 23 H 1.614 2.522 -1.4577 0
M  V30 24 H 3.0386 -0.619 2.1103 0
M  V30 25 H 3.038 3.3196 0.3962 0
M  V30 26 H 3.7516 1.7551 2.1828 0
M  V30 END ATOM
M  V30 BEGIN BOND
M  V30 1 1 1 2
M  V30 2 2 2 3
M  V30 3 1 2 4
M  V30 4 1 3 5
M  V30 5 1 3 6
M  V30 6 2 4 7
M  V30 7 2 5 8
M  V30 8 1 6 9
M  V30 9 2 9 10
M  V30 10 2 9 11
M  V30 11 1 9 12
M  V30 12 2 12 13
M  V30 13 1 12 14
M  V30 14 1 13 15
M  V30 15 2 14 16
M  V30 16 2 15 17
M  V30 17 1 7 8
M  V30 18 1 16 17
M  V30 19 1 4 18
M  V30 20 1 6 19
M  V30 21 1 7 20
M  V30 22 1 8 21
M  V30 23 1 13 22
M  V30 24 1 14 23
M  V30 25 1 15 24
M  V30 26 1 16 25
M  V30 27 1 17 26
M  V30 END BOND
M  V30 END CTAB
M  END
>  <Structure No>
6505

>  <LogS>
-3.17

>  <MMFF94 Energy>
-29.17

$$$$
Compound 6506
Actelion Java MolfileCreator 2.0

  0  0  0  0  0  0              0 V3000
M  V30 BEGIN CTAB
M  V30 COUNTS 42 45 0 0 0
M  V30 BEGIN ATOM
M  V30 1 O -2.8484 -1.0572 1.8711 0
M  V30 2 C -2.4019 -0.1778 1.0866 0
M  V30 3 C -3.2646 0.9468 0.6184 0
M  V30 4 C -1.0013 -0.2374 0.6373 0
M  V30 5 C -2.7292 1.9228 -0.1666 0
M  V30 6 C -4.7144 0.9884 1.0365 0
M  V30 7 N -0.0566 -1.2356 1.0057 0
M  V30 8 C -0.4902 0.691 -0.1444 0
M  V30 9 N -3.5165 3.0352 -0.6245 0
M  V30 10 C -1.2948 1.8525 -0.562 0
M  V30 11 C 1.2196 -0.8927 0.3803 0 CFG=1
M  V30 12 C -0.3386 -2.6591 0.9288 0
M  V30 13 C 0.9695 0.451 -0.3951 0 CFG=1
M  V30 14 O -0.7686 2.7796 -1.2332 0
M  V30 15 O 2.2666 -0.7351 1.3367 0
M  V30 16 C 1.5774 -2.1277 -0.4777 0 CFG=1
M  V30 17 C 0.6817 -3.2093 -0.0631 0 CFG=2
M  V30 18 C 1.3278 0.4622 -1.8973 0
M  V30 19 C 1.8472 -0.0996 2.5298 0
M  V30 20 N 0.5572 -2.6457 -1.423 0
M  V30 21 O 2.6768 0.0465 -2.1071 0
M  V30 22 C 3.7872 0.8332 -1.7835 0
M  V30 23 O 3.6426 2.0072 -1.3467 0
M  V30 24 N 5.0974 0.3013 -1.957 0
M  V30 25 H -4.9987 0.1057 1.6451 0
M  V30 26 H -5.3672 0.9968 0.1382 0
M  V30 27 H -4.9051 1.8964 1.6468 0
M  V30 28 H -3.0944 3.7683 -1.2363 0
M  V30 29 H -4.5201 3.1608 -0.3693 0
M  V30 30 H -1.37 -2.8588 0.5656 0
M  V30 31 H -0.1911 -3.1222 1.9267 0
M  V30 32 H 1.5315 1.2782 0.089 0
M  V30 33 H 2.6222 -2.4387 -0.6899 0
M  V30 34 H 1.0869 -4.2422 -0.0319 0
M  V30 35 H 0.6542 -0.2036 -2.4707 0
M  V30 36 H 1.1916 1.4827 -2.3149 0
M  V30 37 H 2.7473 0.2166 3.0953 0
M  V30 38 H 1.2367 0.8095 2.3402 0
M  V30 39 H 1.2842 -0.8127 3.1696 0
M  V30 40 H -0.2692 -2.0075 -1.4703 0
M  V30 41 H 5.9379 0.8751 -1.723 0
M  V30 42 H 5.2252 -0.6703 -2.3164 0
M  V30 END ATOM
M  V30 BEGIN BOND
M  V30 1 2 1 2
M  V30 2 1 2 3
M  V30 3 1 2 4
M  V30 4 2 3 5
M  V30 5 1 3 6
M  V30 6 1 4 7
M  V30 7 2 4 8
M  V30 8 1 5 9
M  V30 9 1 5 10
M  V30 10 1 7 11
M  V30 11 1 7 12
M  V30 12 1 8 13
M  V30 13 2 10 14
M  V30 14 1 11 15
M  V30 15 1 11 16
M  V30 16 1 12 17
M  V30 17 1 13 18
M  V30 18 1 15 19
M  V30 19 1 16 20
M  V30 20 1 18 21
M  V30 21 1 21 22
M  V30 22 2 22 23
M  V30 23 1 22 24
M  V30 24 1 8 10
M  V30 25 1 11 13
M  V30 26 1 16 17
M  V30 27 1 17 20
M  V30 28 1 6 25
M  V30 29 1 6 26
M  V30 30 1 6 27
M  V30 31 1 9 28
M  V30 32 1 9 29
M  V30 33 1 12 30
M  V30 34 1 12 31
M  V30 35 1 13 32
M  V30 36 1 16 33
M  V30 37 1 17 34
M  V30 38 1 18 35
M  V30 39 1 18 36
M  V30 40 1 19 37
M  V30 41 1 19 38
M  V30 42 1 19 39
M  V30 43 1 20 40
M  V30 44 1 24 41
M  V30 45 1 24 42
M  V30 END BOND
M  V30 BEGIN COLLECTION
M  V30 MDLV30/STEABS ATOMS=(4 11 13 16 17)
M  V30 END COLLECTION
M  V30 END CTAB
M  END
>  <Structure No>
6506

>  <LogS>
-2.56

>  <MMFF94 Energy>
64.661

$$$$
Compound 6507
Actelion Java MolfileCreator 2.0

  0  0  0  0  0  0              0 V3000
M  V30 BEGIN CTAB
M  V30 COUNTS 71 74 0 0 0
M  V30 BEGIN ATOM
M  V30 1 F -1.943 0.2427 2.024 0
M  V30 2 C -2.2707 0.6451 0.7334 0 CFG=1
M  V30 3 C -3.6796 1.4225 0.7903 0 CFG=1
M  V30 4 C -1.1025 1.5461 0.2279 0 CFG=1
M  V30 5 C -2.3529 -0.6782 -0.1036 0 CFG=2
M  V30 6 C -4.8239 0.4835 0.3655 0
M  V30 7 C -3.883 1.9847 2.199 0
M  V30 8 C -3.781 2.6481 -0.1585 0
M  V30 9 O -0.9389 2.6746 1.0538 0
M  V30 10 C 0.2313 0.7875 0.1403 0
M  V30 11 C -0.9885 -1.3735 -0.4275 0 CFG=1
M  V30 12 C -3.2403 -0.4933 -1.3505 0
M  V30 13 C -5.9726 0.3994 1.0553 0
M  V30 14 C -4.7035 -0.2883 -0.9309 0
M  V30 15 C -5.0259 1.871 2.8772 0
M  V30 16 C 0.2074 -0.4652 -0.7937 0 CFG=2
M  V30 17 C -0.495 -2.2832 0.7151 0
M  V30 18 C -6.1424 1.1079 2.324 0
M  V30 19 C 1.4714 -1.375 -0.5102 0 CFG=2
M  V30 20 C 0.1477 0.0053 -2.2742 0
M  V30 21 C 1.0375 -2.1852 0.7517 0 CFG=2
M  V30 22 O -7.2352 1.0428 2.9457 0
M  V30 23 O 2.5731 -0.5093 -0.1688 0
M  V30 24 C 1.8521 -2.2315 -1.7415 0
M  V30 25 C 1.7092 -3.5433 1.027 0
M  V30 26 C 3.9017 -0.8803 0.0917 0
M  V30 27 O 2.7543 -1.8348 -2.4654 0
M  V30 28 C 1.0926 -3.4509 -2.2114 0
M  V30 29 O 4.3091 -2.0498 -0.1404 0
M  V30 30 C 4.8564 0.1187 0.6759 0
M  V30 31 O 1.9581 -4.5505 -2.3081 0
M  V30 32 C 4.4224 1.5652 0.39 0
M  V30 33 C 5.3779 2.6 1.0034 0
M  V30 34 C 6.713 2.6841 0.264 0
M  V30 35 H -1.3382 1.923 -0.7839 0
M  V30 36 H -2.9053 -1.4163 0.5251 0
M  V30 37 H -3.0915 2.5767 2.6415 0
M  V30 38 H -3.0871 3.4628 0.1331 0
M  V30 39 H -3.5834 2.3785 -1.2141 0
M  V30 40 H -4.8055 3.0801 -0.1192 0
M  V30 41 H -0.6702 2.3614 1.9566 0
M  V30 42 H 1.0084 1.499 -0.2175 0
M  V30 43 H 0.5247 0.499 1.1713 0
M  V30 44 H -1.1711 -2.0504 -1.288 0
M  V30 45 H -2.8905 0.3649 -1.9554 0
M  V30 46 H -3.1958 -1.3902 -2.0056 0
M  V30 47 H -6.7842 -0.2215 0.6937 0
M  V30 48 H -5.1668 -1.2918 -0.8015 0
M  V30 49 H -5.2572 0.2418 -1.7353 0
M  V30 50 H -5.1249 2.3408 3.848 0
M  V30 51 H -0.9025 -1.9678 1.6992 0
M  V30 52 H -0.8398 -3.3265 0.5414 0
M  V30 53 H 1.0921 0.5224 -2.5468 0
M  V30 54 H -0.6848 0.705 -2.4641 0
M  V30 55 H -0.0024 -0.8449 -2.9699 0
M  V30 56 H 1.2941 -1.5653 1.6404 0
M  V30 57 H 1.4826 -4.3054 0.2618 0
M  V30 58 H 2.8042 -3.4367 1.1249 0
M  V30 59 H 1.3388 -3.9379 1.9971 0
M  V30 60 H 0.2678 -3.7203 -1.5313 0
M  V30 61 H 0.6304 -3.238 -3.2021 0
M  V30 62 H 5.8628 -0.0637 0.2438 0
M  V30 63 H 4.9091 -0.0454 1.7736 0
M  V30 64 H 2.4673 -4.4425 -3.1533 0
M  V30 65 H 3.416 1.7317 0.8338 0
M  V30 66 H 4.341 1.7288 -0.7072 0
M  V30 67 H 4.8911 3.5984 0.9538 0
M  V30 68 H 5.5586 2.3679 2.0754 0
M  V30 69 H 7.3068 3.5293 0.6717 0
M  V30 70 H 7.2999 1.7524 0.4025 0
M  V30 71 H 6.5472 2.8609 -0.82 0
M  V30 END ATOM
M  V30 BEGIN BOND
M  V30 1 1 1 2
M  V30 2 1 2 3
M  V30 3 1 2 4
M  V30 4 1 2 5
M  V30 5 1 3 6
M  V30 6 1 3 7
M  V30 7 1 3 8
M  V30 8 1 4 9
M  V30 9 1 4 10
M  V30 10 1 5 11
M  V30 11 1 5 12
M  V30 12 2 6 13
M  V30 13 1 6 14
M  V30 14 2 7 15
M  V30 15 1 10 16
M  V30 16 1 11 17
M  V30 17 1 13 18
M  V30 18 1 16 19
M  V30 19 1 16 20
M  V30 20 1 17 21
M  V30 21 2 18 22
M  V30 22 1 19 23
M  V30 23 1 19 24
M  V30 24 1 21 25
M  V30 25 1 23 26
M  V30 26 2 24 27
M  V30 27 1 24 28
M  V30 28 2 26 29
M  V30 29 1 26 30
M  V30 30 1 28 31
M  V30 31 1 30 32
M  V30 32 1 32 33
M  V30 33 1 33 34
M  V30 34 1 11 16
M  V30 35 1 12 14
M  V30 36 1 15 18
M  V30 37 1 19 21
M  V30 38 1 4 35
M  V30 39 1 5 36
M  V30 40 1 7 37
M  V30 41 1 8 38
M  V30 42 1 8 39
M  V30 43 1 8 40
M  V30 44 1 9 41
M  V30 45 1 10 42
M  V30 46 1 10 43
M  V30 47 1 11 44
M  V30 48 1 12 45
M  V30 49 1 12 46
M  V30 50 1 13 47
M  V30 51 1 14 48
M  V30 52 1 14 49
M  V30 53 1 15 50
M  V30 54 1 17 51
M  V30 55 1 17 52
M  V30 56 1 20 53
M  V30 57 1 20 54
M  V30 58 1 20 55
M  V30 59 1 21 56
M  V30 60 1 25 57
M  V30 61 1 25 58
M  V30 62 1 25 59
M  V30 63 1 28 60
M  V30 64 1 28 61
M  V30 65 1 30 62
M  V30 66 1 30 63
M  V30 67 1 31 64
M  V30 68 1 32 65
M  V30 69 1 32 66
M  V30 70 1 33 67
M  V30 71 1 33 68
M  V30 72 1 34 69
M  V30 73 1 34 70
M  V30 74 1 34 71
M  V30 END BOND
M  V30 BEGIN COLLECTION
M  V30 MDLV30/STEABS ATOMS=(8 2 3 4 5 11 16 19 21)
M  V30 END COLLECTION
M  V30 END CTAB
M  END
>  <Structure No>
6507

>  <LogS>
-4.71

>  <MMFF94 Energy>
161.6

$$$$
Compound 6508
Actelion Java MolfileCreator 2.0

  0  0  0  0  0  0              0 V3000
M  V30 BEGIN CTAB
M  V30 COUNTS 22 24 0 0 0
M  V30 BEGIN ATOM
M  V30 1 Cl -5.2451 -0.9291 -0.6756 0
M  V30 2 C -3.6616 -0.2287 -0.3691 0
M  V30 3 C -3.516 1.1353 -0.0545 0
M  V30 4 C -2.531 -1.0526 -0.4419 0
M  V30 5 Cl -4.9111 2.2011 0.0461 0
M  V30 6 C -2.241 1.6641 0.1844 0
M  V30 7 C -1.2605 -0.5224 -0.203 0
M  V30 8 C -1.115 0.8398 0.111 0
M  V30 9 O -0.1254 -1.3393 -0.2738 0
M  V30 10 O 0.1628 1.3609 0.3486 0
M  V30 11 C 1.1527 -0.819 -0.0363 0
M  V30 12 C 1.2982 0.5445 0.2779 0
M  V30 13 C 2.2798 -1.6435 -0.1096 0
M  V30 14 C 2.5699 1.0749 0.517 0
M  V30 15 C 3.5507 -1.1097 0.13 0
M  V30 16 C 3.6956 0.247 0.4428 0
M  V30 17 H -2.6382 -2.1026 -0.6835 0
M  V30 18 H -2.124 2.713 0.4266 0
M  V30 19 H 2.1709 -2.693 -0.3512 0
M  V30 20 H 2.6851 2.1236 0.7591 0
M  V30 21 H 4.4236 -1.7471 0.0736 0
M  V30 22 H 4.6803 0.6566 0.6278 0
M  V30 END ATOM
M  V30 BEGIN BOND
M  V30 1 1 1 2
M  V30 2 2 2 3
M  V30 3 1 2 4
M  V30 4 1 3 5
M  V30 5 1 3 6
M  V30 6 2 4 7
M  V30 7 2 6 8
M  V30 8 1 7 9
M  V30 9 1 8 10
M  V30 10 1 9 11
M  V30 11 1 10 12
M  V30 12 1 11 13
M  V30 13 1 12 14
M  V30 14 2 13 15
M  V30 15 2 14 16
M  V30 16 1 7 8
M  V30 17 2 11 12
M  V30 18 1 15 16
M  V30 19 1 4 17
M  V30 20 1 6 18
M  V30 21 1 13 19
M  V30 22 1 14 20
M  V30 23 1 15 21
M  V30 24 1 16 22
M  V30 END BOND
M  V30 END CTAB
M  END
>  <Structure No>
6508

>  <LogS>
-7.23

>  <MMFF94 Energy>
47.229

$$$$
Compound 6509
Actelion Java MolfileCreator 2.0

  0  0  0  0  0  0              0 V3000
M  V30 BEGIN CTAB
M  V30 COUNTS 49 52 0 0 0
M  V30 BEGIN ATOM
M  V30 1 O 4.5794 2.0868 1.605 0
M  V30 2 C 4.317 1.0207 0.7313 0
M  V30 3 C 5.8776 2.606 1.8747 0
M  V30 4 C 2.9876 0.6141 0.5627 0
M  V30 5 C 5.3372 0.356 0.0304 0
M  V30 6 C 2.6533 -0.4506 -0.305 0
M  V30 7 C 5.0297 -0.7068 -0.8175 0
M  V30 8 C 3.7042 -1.1176 -0.9848 0
M  V30 9 C 1.3115 -0.8856 -0.5145 0
M  V30 10 N 3.4353 -2.1709 -1.7968 0
M  V30 11 C 1.1015 -2.0061 -1.3447 0
M  V30 12 C 0.1354 -0.1919 0.1936 0 CFG=2
M  V30 13 C 2.1734 -2.6251 -1.983 0
M  V30 14 O 0.1538 -0.4608 1.5764 0
M  V30 15 C -1.2858 -0.4234 -0.4246 0 CFG=2
M  V30 16 C -2.2693 0.7537 -0.139 0 CFG=1
M  V30 17 C -1.983 -1.7565 0.0096 0
M  V30 18 C -3.5731 0.4721 -0.9383 0 CFG=2
M  V30 19 C -2.6246 0.7787 1.3657 0
M  V30 20 N -3.3191 -1.4935 0.6003 0 CHG=1 CFG=2
M  V30 21 C -4.542 1.6356 -0.8724 0
M  V30 22 C -4.2019 -0.8551 -0.4084 0
M  V30 23 C -3.1816 -0.6048 1.7797 0
M  V30 24 C -4.2863 2.7901 -1.495 0
M  V30 25 H 6.5197 1.8165 2.3189 0
M  V30 26 H 5.7904 3.4419 2.5987 0
M  V30 27 H 6.3363 2.9917 0.9398 0
M  V30 28 H 2.2345 1.1394 1.132 0
M  V30 29 H 6.3725 0.6483 0.1399 0
M  V30 30 H 5.828 -1.2169 -1.3426 0
M  V30 31 H 0.1201 -2.4133 -1.518 0
M  V30 32 H 0.317 0.8962 0.0702 0
M  V30 33 H 2.0004 -3.4749 -2.6298 0
M  V30 34 H 0.4061 -1.411 1.7112 0
M  V30 35 H -1.1496 -0.4443 -1.5296 0
M  V30 36 H -1.8217 1.7229 -0.451 0
M  V30 37 H -2.1049 -2.4144 -0.8797 0
M  V30 38 H -1.3674 -2.3403 0.7245 0
M  V30 39 H -3.3136 0.3246 -2.0116 0
M  V30 40 H -3.3852 1.5645 1.5644 0
M  V30 41 H -1.7406 1.0481 1.9786 0
M  V30 42 H -3.7449 -2.4013 0.9033 0
M  V30 43 H -5.4758 1.5418 -0.3257 0
M  V30 44 H -4.3624 -1.5526 -1.2612 0
M  V30 45 H -5.2079 -0.6883 0.0379 0
M  V30 46 H -4.1698 -0.4771 2.2761 0
M  V30 47 H -2.5052 -1.0719 2.5305 0
M  V30 48 H -3.3725 2.9279 -2.065 0
M  V30 49 H -4.9984 3.6072 -1.4386 0
M  V30 END ATOM
M  V30 BEGIN BOND
M  V30 1 1 1 2
M  V30 2 1 1 3
M  V30 3 2 2 4
M  V30 4 1 2 5
M  V30 5 1 4 6
M  V30 6 2 5 7
M  V30 7 1 6 8
M  V30 8 2 6 9
M  V30 9 2 8 10
M  V30 10 1 9 11
M  V30 11 1 9 12
M  V30 12 1 10 13
M  V30 13 1 12 14
M  V30 14 1 12 15
M  V30 15 1 15 16
M  V30 16 1 15 17
M  V30 17 1 16 18
M  V30 18 1 16 19
M  V30 19 1 17 20
M  V30 20 1 18 21
M  V30 21 1 18 22
M  V30 22 1 19 23
M  V30 23 2 21 24
M  V30 24 1 7 8
M  V30 25 2 11 13
M  V30 26 1 20 22
M  V30 27 1 20 23
M  V30 28 1 3 25
M  V30 29 1 3 26
M  V30 30 1 3 27
M  V30 31 1 4 28
M  V30 32 1 5 29
M  V30 33 1 7 30
M  V30 34 1 11 31
M  V30 35 1 12 32
M  V30 36 1 13 33
M  V30 37 1 14 34
M  V30 38 1 15 35
M  V30 39 1 16 36
M  V30 40 1 17 37
M  V30 41 1 17 38
M  V30 42 1 18 39
M  V30 43 1 19 40
M  V30 44 1 19 41
M  V30 45 1 20 42
M  V30 46 1 21 43
M  V30 47 1 22 44
M  V30 48 1 22 45
M  V30 49 1 23 46
M  V30 50 1 23 47
M  V30 51 1 24 48
M  V30 52 1 24 49
M  V30 END BOND
M  V30 BEGIN COLLECTION
M  V30 MDLV30/STEABS ATOMS=(5 12 15 16 18 20)
M  V30 END COLLECTION
M  V30 END CTAB
M  END
>  <Structure No>
6509

>  <LogS>
-3.36

>  <MMFF94 Energy>
84.353

$$$$
Compound 6510
Actelion Java MolfileCreator 2.0

  0  0  0  0  0  0              0 V3000
M  V30 BEGIN CTAB
M  V30 COUNTS 22 23 0 0 0
M  V30 BEGIN ATOM
M  V30 1 Cl 3.8056 1.3264 -2.2113 0
M  V30 2 C 2.8604 0.5103 -0.9651 0
M  V30 3 C 1.4561 0.6261 -0.9487 0
M  V30 4 C 3.5105 -0.2565 0.0182 0
M  V30 5 Cl 0.6396 1.6172 -2.1621 0
M  V30 6 C 0.71 -0.0279 0.0549 0
M  V30 7 Cl 5.2611 -0.4279 0.0358 0
M  V30 8 C 2.7642 -0.8995 1.0089 0
M  V30 9 C -0.7656 0.0565 0.0949 0
M  V30 10 C 1.3745 -0.7877 1.0278 0
M  V30 11 C -1.4317 0.7516 1.126 0
M  V30 12 C -1.5182 -0.5818 -0.9045 0
M  V30 13 Cl -0.5443 1.5976 2.3895 0
M  V30 14 C -2.8308 0.8007 1.1413 0
M  V30 15 C -2.9154 -0.527 -0.8813 0
M  V30 16 C -3.5703 0.1634 0.1421 0
M  V30 17 Cl -3.8456 -1.3265 -2.1351 0
M  V30 18 H 3.2622 -1.4907 1.767 0
M  V30 19 H 0.8128 -1.2989 1.8004 0
M  V30 20 H -1.0177 -1.1239 -1.6979 0
M  V30 21 H -3.3474 1.3371 1.9273 0
M  V30 22 H -4.6518 0.2084 0.1635 0
M  V30 END ATOM
M  V30 BEGIN BOND
M  V30 1 1 1 2
M  V30 2 2 2 3
M  V30 3 1 2 4
M  V30 4 1 3 5
M  V30 5 1 3 6
M  V30 6 1 4 7
M  V30 7 2 4 8
M  V30 8 1 6 9
M  V30 9 2 6 10
M  V30 10 2 9 11
M  V30 11 1 9 12
M  V30 12 1 11 13
M  V30 13 1 11 14
M  V30 14 2 12 15
M  V30 15 2 14 16
M  V30 16 1 15 17
M  V30 17 1 8 10
M  V30 18 1 15 16
M  V30 19 1 8 18
M  V30 20 1 10 19
M  V30 21 1 12 20
M  V30 22 1 14 21
M  V30 23 1 16 22
M  V30 END BOND
M  V30 END CTAB
M  END
>  <Structure No>
6510

>  <LogS>
-7.91

>  <MMFF94 Energy>
54.999

$$$$
Compound 6511
Actelion Java MolfileCreator 2.0

  0  0  0  0  0  0              0 V3000
M  V30 BEGIN CTAB
M  V30 COUNTS 24 25 0 0 0
M  V30 BEGIN ATOM
M  V30 1 S -2.0132 0.7874 -1.3126 0
M  V30 2 O -2.1327 2.2759 -1.4778 0
M  V30 3 O -2.2043 0.1013 -2.6355 0
M  V30 4 C -0.457 0.3718 -0.6415 0
M  V30 5 C -3.227 0.2038 -0.1402 0
M  V30 6 S 1.0413 0.7633 -1.2914 0
M  V30 7 C -0.2934 -0.3825 0.511 0
M  V30 8 C -2.7312 -1.0722 0.5559 0
M  V30 9 C 1.9224 -0.0096 -0.0812 0
M  V30 10 C 1.0534 -0.586 0.838 0
M  V30 11 C -1.4442 -0.8373 1.3705 0
M  V30 12 S 3.6721 -0.0772 -0.0049 0
M  V30 13 O 4.1527 -1.3484 -0.6453 0
M  V30 14 O 4.1143 -0.0382 1.431 0
M  V30 15 N 4.3421 1.2802 -0.8405 0
M  V30 16 H -4.1781 -0.0057 -0.6737 0
M  V30 17 H -3.4158 0.9944 0.6172 0
M  V30 18 H -3.5262 -1.4332 1.2433 0
M  V30 19 H -2.5553 -1.8675 -0.2013 0
M  V30 20 H 1.3832 -1.1304 1.7133 0
M  V30 21 H -1.6331 -0.072 2.1537 0
M  V30 22 H -1.1691 -1.7862 1.8793 0
M  V30 23 H 5.3789 1.2299 -0.7238 0
M  V30 24 H 4.023 2.1376 -0.3361 0
M  V30 END ATOM
M  V30 BEGIN BOND
M  V30 1 2 1 2
M  V30 2 2 1 3
M  V30 3 1 1 4
M  V30 4 1 1 5
M  V30 5 1 4 6
M  V30 6 2 4 7
M  V30 7 1 5 8
M  V30 8 1 6 9
M  V30 9 1 7 10
M  V30 10 1 7 11
M  V30 11 1 9 12
M  V30 12 2 12 13
M  V30 13 2 12 14
M  V30 14 1 12 15
M  V30 15 1 8 11
M  V30 16 2 9 10
M  V30 17 1 5 16
M  V30 18 1 5 17
M  V30 19 1 8 18
M  V30 20 1 8 19
M  V30 21 1 10 20
M  V30 22 1 11 21
M  V30 23 1 11 22
M  V30 24 1 15 23
M  V30 25 1 15 24
M  V30 END BOND
M  V30 END CTAB
M  END
>  <Structure No>
6511

>  <LogS>
-2.68

>  <MMFF94 Energy>
-33.067

$$$$
Compound 6512
Actelion Java MolfileCreator 2.0

  0  0  0  0  0  0              0 V3000
M  V30 BEGIN CTAB
M  V30 COUNTS 26 27 0 0 0
M  V30 BEGIN ATOM
M  V30 1 S 4.8699 0.5029 0.7545 0
M  V30 2 O 5.4461 -0.86 1.0175 0
M  V30 3 O 5.1512 1.3959 1.9295 0
M  V30 4 N 5.5941 1.1637 -0.6693 0
M  V30 5 C 3.1392 0.3698 0.5231 0
M  V30 6 S 2.1534 1.6407 -0.0032 0
M  V30 7 N 2.4438 -0.7703 0.7498 0
M  V30 8 C 0.7764 0.6829 0.0631 0
M  V30 9 C 1.1242 -0.5875 0.4904 0
M  V30 10 C -0.537 1.027 -0.2425 0
M  V30 11 C 0.1499 -1.5749 0.6284 0
M  V30 12 C -1.537 0.0477 -0.1109 0
M  V30 13 C -1.1853 -1.2564 0.3267 0
M  V30 14 O -2.8577 0.4036 -0.4213 0
M  V30 15 C -3.9713 -0.4813 -0.3351 0
M  V30 16 C -5.2366 0.2532 -0.748 0
M  V30 17 H 6.6273 1.1628 -0.5155 0
M  V30 18 H 5.4039 0.4936 -1.4477 0
M  V30 19 H -0.7816 2.0281 -0.5744 0
M  V30 20 H 0.4148 -2.5701 0.962 0
M  V30 21 H -1.9357 -2.0271 0.436 0
M  V30 22 H -3.8167 -1.3484 -1.0132 0
M  V30 23 H -4.0853 -0.8425 0.7098 0
M  V30 24 H -5.4086 1.1201 -0.0754 0
M  V30 25 H -6.1071 -0.4328 -0.6823 0
M  V30 26 H -5.1407 0.6158 -1.7933 0
M  V30 END ATOM
M  V30 BEGIN BOND
M  V30 1 2 1 2
M  V30 2 2 1 3
M  V30 3 1 1 4
M  V30 4 1 1 5
M  V30 5 1 5 6
M  V30 6 2 5 7
M  V30 7 1 6 8
M  V30 8 1 7 9
M  V30 9 1 8 10
M  V30 10 1 9 11
M  V30 11 2 10 12
M  V30 12 2 11 13
M  V30 13 1 12 14
M  V30 14 1 14 15
M  V30 15 1 15 16
M  V30 16 2 8 9
M  V30 17 1 12 13
M  V30 18 1 4 17
M  V30 19 1 4 18
M  V30 20 1 10 19
M  V30 21 1 11 20
M  V30 22 1 13 21
M  V30 23 1 15 22
M  V30 24 1 15 23
M  V30 25 1 16 24
M  V30 26 1 16 25
M  V30 27 1 16 26
M  V30 END BOND
M  V30 END CTAB
M  END
>  <Structure No>
6512

>  <LogS>
-4.03

>  <MMFF94 Energy>
-1.1847

$$$$
Compound 6513
Actelion Java MolfileCreator 2.0

  0  0  0  0  0  0              0 V3000
M  V30 BEGIN CTAB
M  V30 COUNTS 49 51 0 0 0
M  V30 BEGIN ATOM
M  V30 1 O 4.2808 -2.987 1.2908 0
M  V30 2 C 3.9874 -1.9634 0.6158 0
M  V30 3 C 2.8109 -1.9962 -0.2758 0
M  V30 4 C 4.8104 -0.7387 0.7168 0
M  V30 5 O 2.0531 -3.1634 -0.3289 0 CHG=-1
M  V30 6 C 2.4696 -0.9229 -1.0199 0
M  V30 7 C 4.4601 0.3892 -0.0501 0
M  V30 8 C 5.931 -0.6833 1.5641 0
M  V30 9 C 3.2785 0.3225 -0.9406 0
M  V30 10 C 1.2453 -0.9517 -1.9147 0
M  V30 11 C 5.2361 1.5586 0.0409 0
M  V30 12 C 6.6942 0.4838 1.6461 0
M  V30 13 O 2.9573 1.325 -1.6359 0
M  V30 14 C 0.0368 -0.2363 -1.2714 0 CFG=1
M  V30 15 C 6.3474 1.6023 0.8863 0
M  V30 16 C -1.0999 -0.0972 -2.2997 0
M  V30 17 C -0.4741 -0.9912 -0.0286 0
M  V30 18 C -2.3203 0.6057 -1.6921 0
M  V30 19 C -1.695 -0.2938 0.5851 0
M  V30 20 C -2.8479 -0.1503 -0.4436 0 CFG=1
M  V30 21 C -4.1683 0.473 0.1652 0
M  V30 22 C -5.2918 0.4922 -0.9004 0
M  V30 23 C -3.9599 1.9174 0.6769 0
M  V30 24 C -4.6741 -0.3927 1.3455 0
M  V30 25 H 6.2162 -1.5397 2.1619 0
M  V30 26 H 0.9667 -1.992 -2.191 0
M  V30 27 H 1.5035 -0.4474 -2.8715 0
M  V30 28 H 4.9846 2.4372 -0.5395 0
M  V30 29 H 7.5558 0.5214 2.3001 0
M  V30 30 H 0.3521 0.7861 -0.9633 0
M  V30 31 H 6.9409 2.505 0.9525 0
M  V30 32 H -1.4013 -1.1011 -2.674 0
M  V30 33 H -0.7449 0.498 -3.1693 0
M  V30 34 H -0.7428 -2.0363 -0.3 0
M  V30 35 H 0.3241 -1.0319 0.7429 0
M  V30 36 H -2.0345 1.6456 -1.4274 0
M  V30 37 H -3.0963 0.6488 -2.4823 0
M  V30 38 H -1.3806 0.7028 0.9605 0
M  V30 39 H -2.0159 -0.9058 1.4518 0
M  V30 40 H -3.1069 -1.1808 -0.7792 0
M  V30 41 H -5.4047 -0.5078 -1.3714 0
M  V30 42 H -5.0904 1.2421 -1.6931 0
M  V30 43 H -6.2674 0.7711 -0.446 0
M  V30 44 H -3.6484 2.5977 -0.1415 0
M  V30 45 H -3.201 1.957 1.4846 0
M  V30 46 H -4.9087 2.3179 1.0958 0
M  V30 47 H -5.6839 -0.0652 1.6758 0
M  V30 48 H -4.7383 -1.462 1.05 0
M  V30 49 H -4.0113 -0.3036 2.2309 0
M  V30 END ATOM
M  V30 BEGIN BOND
M  V30 1 2 1 2
M  V30 2 1 2 3
M  V30 3 1 2 4
M  V30 4 1 3 5
M  V30 5 2 3 6
M  V30 6 2 4 7
M  V30 7 1 4 8
M  V30 8 1 6 9
M  V30 9 1 6 10
M  V30 10 1 7 11
M  V30 11 2 8 12
M  V30 12 2 9 13
M  V30 13 1 10 14
M  V30 14 2 11 15
M  V30 15 1 14 16
M  V30 16 1 14 17
M  V30 17 1 16 18
M  V30 18 1 17 19
M  V30 19 1 18 20
M  V30 20 1 20 21
M  V30 21 1 21 22
M  V30 22 1 21 23
M  V30 23 1 21 24
M  V30 24 1 7 9
M  V30 25 1 12 15
M  V30 26 1 19 20
M  V30 27 1 8 25
M  V30 28 1 10 26
M  V30 29 1 10 27
M  V30 30 1 11 28
M  V30 31 1 12 29
M  V30 32 1 14 30
M  V30 33 1 15 31
M  V30 34 1 16 32
M  V30 35 1 16 33
M  V30 36 1 17 34
M  V30 37 1 17 35
M  V30 38 1 18 36
M  V30 39 1 18 37
M  V30 40 1 19 38
M  V30 41 1 19 39
M  V30 42 1 20 40
M  V30 43 1 22 41
M  V30 44 1 22 42
M  V30 45 1 22 43
M  V30 46 1 23 44
M  V30 47 1 23 45
M  V30 48 1 23 46
M  V30 49 1 24 47
M  V30 50 1 24 48
M  V30 51 1 24 49
M  V30 END BOND
M  V30 BEGIN COLLECTION
M  V30 MDLV30/STEABS ATOMS=(2 14 20)
M  V30 END COLLECTION
M  V30 END CTAB
M  END
>  <Structure No>
6513

>  <LogS>
-7.04

>  <MMFF94 Energy>
112.06

$$$$
Compound 6514
Actelion Java MolfileCreator 2.0

  0  0  0  0  0  0              0 V3000
M  V30 BEGIN CTAB
M  V30 COUNTS 35 36 0 0 0
M  V30 BEGIN ATOM
M  V30 1 S 1.2132 -2.5085 1.2132 0
M  V30 2 O 2.064 -3.222 2.2255 0
M  V30 3 O 0.5542 -3.5259 0.3238 0
M  V30 4 N -0.013 -1.5971 2.0371 0
M  V30 5 C 2.2384 -1.4289 0.273 0
M  V30 6 C -0.9115 -0.6828 1.383 0
M  V30 7 C 2.7219 -1.8226 -0.9821 0
M  V30 8 C 2.5726 -0.1655 0.7789 0
M  V30 9 C -1.7183 0.159 2.1643 0
M  V30 10 C -1.0129 -0.6129 -0.0193 0
M  V30 11 C 3.5263 -0.9562 -1.7287 0
M  V30 12 C 3.3761 0.7012 0.0323 0
M  V30 13 C -2.5972 1.0633 1.562 0
M  V30 14 C -1.8915 0.2923 -0.6214 0
M  V30 15 C 3.8562 0.3104 -1.2257 0
M  V30 16 C -2.6803 1.1457 0.1644 0
M  V30 17 N 4.6776 1.197 -1.99 0
M  V30 18 C -3.6497 2.0967 -0.4847 0
M  V30 19 C -5.0055 1.4293 -0.69 0
M  V30 20 H -0.0385 -1.6746 3.0786 0
M  V30 21 H 2.4765 -2.7971 -1.3841 0
M  V30 22 H 2.2087 0.1492 1.7487 0
M  V30 23 H -1.6642 0.1163 3.245 0
M  V30 24 H -0.4262 -1.2569 -0.6577 0
M  V30 25 H 3.8918 -1.2711 -2.698 0
M  V30 26 H 3.6242 1.6759 0.4332 0
M  V30 27 H -3.2136 1.6994 2.1854 0
M  V30 28 H -1.9596 0.3258 -1.7017 0
M  V30 29 H 4.9287 2.1424 -1.6235 0
M  V30 30 H 5.04 0.9148 -2.9279 0
M  V30 31 H -3.2544 2.4338 -1.4677 0
M  V30 32 H -3.7787 3.0022 0.1474 0
M  V30 33 H -5.4324 1.1152 0.2865 0
M  V30 34 H -4.9019 0.5402 -1.348 0
M  V30 35 H -5.7046 2.1468 -1.1691 0
M  V30 END ATOM
M  V30 BEGIN BOND
M  V30 1 2 1 2
M  V30 2 2 1 3
M  V30 3 1 1 4
M  V30 4 1 1 5
M  V30 5 1 4 6
M  V30 6 2 5 7
M  V30 7 1 5 8
M  V30 8 2 6 9
M  V30 9 1 6 10
M  V30 10 1 7 11
M  V30 11 2 8 12
M  V30 12 1 9 13
M  V30 13 2 10 14
M  V30 14 2 11 15
M  V30 15 2 13 16
M  V30 16 1 15 17
M  V30 17 1 16 18
M  V30 18 1 18 19
M  V30 19 1 12 15
M  V30 20 1 14 16
M  V30 21 1 4 20
M  V30 22 1 7 21
M  V30 23 1 8 22
M  V30 24 1 9 23
M  V30 25 1 10 24
M  V30 26 1 11 25
M  V30 27 1 12 26
M  V30 28 1 13 27
M  V30 29 1 14 28
M  V30 30 1 17 29
M  V30 31 1 17 30
M  V30 32 1 18 31
M  V30 33 1 18 32
M  V30 34 1 19 33
M  V30 35 1 19 34
M  V30 36 1 19 35
M  V30 END BOND
M  V30 END CTAB
M  END
>  <Structure No>
6514

>  <LogS>
-4.52

>  <MMFF94 Energy>
-10.917

$$$$
Compound 6515
Actelion Java MolfileCreator 2.0

  0  0  0  0  0  0              0 V3000
M  V30 BEGIN CTAB
M  V30 COUNTS 29 30 0 0 0
M  V30 BEGIN ATOM
M  V30 1 Cl 3.8954 -0.2483 3.8124 0
M  V30 2 C 2.9941 0.4569 2.483 0
M  V30 3 C 2.6818 -0.3157 1.3612 0
M  V30 4 C 2.589 1.7931 2.5427 0
M  V30 5 C 1.9634 0.2436 0.3 0
M  V30 6 C 1.8701 2.3555 1.4839 0
M  V30 7 C 1.5443 1.5877 0.3539 0
M  V30 8 N 0.7974 2.1965 -0.7149 0
M  V30 9 S 0.1226 1.3176 -2.0509 0
M  V30 10 O -0.7136 2.2475 -2.8836 0
M  V30 11 O 1.2409 0.7756 -2.8969 0
M  V30 12 C -0.901 0.0125 -1.4597 0
M  V30 13 C -1.6888 0.2045 -0.3169 0
M  V30 14 C -0.9327 -1.2213 -2.1236 0
M  V30 15 C -2.495 -0.8312 0.164 0
M  V30 16 C -1.7395 -2.2573 -1.643 0
M  V30 17 C -2.5236 -2.0678 -0.4961 0
M  V30 18 N -3.3476 -3.1277 -0.004 0
M  V30 19 H 2.9968 -1.3501 1.3089 0
M  V30 20 H 2.8297 2.3969 3.4085 0
M  V30 21 H 1.7469 -0.3789 -0.5553 0
M  V30 22 H 1.5613 3.3916 1.5468 0
M  V30 23 H 0.5809 3.2173 -0.6644 0
M  V30 24 H -1.6767 1.1543 0.2028 0
M  V30 25 H -0.3337 -1.3832 -3.0103 0
M  V30 26 H -3.0965 -0.6706 1.0499 0
M  V30 27 H -1.7535 -3.2067 -2.1635 0
M  V30 28 H -3.9353 -2.9959 0.8493 0
M  V30 29 H -3.3758 -4.0522 -0.4891 0
M  V30 END ATOM
M  V30 BEGIN BOND
M  V30 1 1 1 2
M  V30 2 2 2 3
M  V30 3 1 2 4
M  V30 4 1 3 5
M  V30 5 2 4 6
M  V30 6 2 5 7
M  V30 7 1 7 8
M  V30 8 1 8 9
M  V30 9 2 9 10
M  V30 10 2 9 11
M  V30 11 1 9 12
M  V30 12 2 12 13
M  V30 13 1 12 14
M  V30 14 1 13 15
M  V30 15 2 14 16
M  V30 16 2 15 17
M  V30 17 1 17 18
M  V30 18 1 6 7
M  V30 19 1 16 17
M  V30 20 1 3 19
M  V30 21 1 4 20
M  V30 22 1 5 21
M  V30 23 1 6 22
M  V30 24 1 8 23
M  V30 25 1 13 24
M  V30 26 1 14 25
M  V30 27 1 15 26
M  V30 28 1 16 27
M  V30 29 1 18 28
M  V30 30 1 18 29
M  V30 END BOND
M  V30 END CTAB
M  END
>  <Structure No>
6515

>  <LogS>
-4.13

>  <MMFF94 Energy>
-16.787

$$$$
Compound 6516
Actelion Java MolfileCreator 2.0

  0  0  0  0  0  0              0 V3000
M  V30 BEGIN CTAB
M  V30 COUNTS 41 41 0 0 0
M  V30 BEGIN ATOM
M  V30 1 F 5.0912 -1.1297 1.6141 0
M  V30 2 C 4.6939 0.127 1.1945 0
M  V30 3 F 5.4987 0.5402 0.148 0
M  V30 4 F 4.8803 1.0068 2.2475 0
M  V30 5 C 3.2462 0.0792 0.7408 0
M  V30 6 C 2.8405 -0.7275 -0.3518 0
M  V30 7 C 2.2888 0.8696 1.3963 0
M  V30 8 N 3.8068 -1.4872 -1.1008 0
M  V30 9 C 1.4815 -0.7433 -0.7467 0
M  V30 10 C 0.9435 0.8579 1.0162 0
M  V30 11 N 1.0794 -1.536 -1.873 0 CHG=1
M  V30 12 C 0.5239 0.0323 -0.0485 0
M  V30 13 N 0.0214 1.7023 1.7214 0 CHG=1
M  V30 14 O 0.5031 -1.0064 -2.8447 0
M  V30 15 O 1.2896 -2.8956 -1.8707 0 CHG=-1
M  V30 16 N -0.8562 0.0422 -0.4754 0
M  V30 17 O -1.0647 1.2469 2.1297 0
M  V30 18 O 0.4233 2.9453 2.1531 0 CHG=-1
M  V30 19 C -1.3154 1.146 -1.3333 0
M  V30 20 C -1.6657 -1.1843 -0.3599 0
M  V30 21 C -2.6138 1.7718 -0.8068 0
M  V30 22 C -2.2077 -1.3521 1.0608 0
M  V30 23 C -3.0804 2.9089 -1.711 0
M  V30 24 C -3.0316 -2.6297 1.1904 0
M  V30 25 H 2.58 1.5008 2.226 0
M  V30 26 H 4.777 -1.6532 -0.7594 0
M  V30 27 H 3.5854 -1.8742 -2.0437 0
M  V30 28 H -0.5352 1.9383 -1.3883 0
M  V30 29 H -1.4769 0.7638 -2.3644 0
M  V30 30 H -2.516 -1.1557 -1.0758 0
M  V30 31 H -1.059 -2.0751 -0.6207 0
M  V30 32 H -2.4514 2.1763 0.2126 0
M  V30 33 H -3.4184 1.0082 -0.7574 0
M  V30 34 H -2.853 -0.4851 1.3174 0
M  V30 35 H -1.3612 -1.398 1.7794 0
M  V30 36 H -2.3098 3.7079 -1.7556 0
M  V30 37 H -4.0191 3.3438 -1.3074 0
M  V30 38 H -3.2768 2.5304 -2.7367 0
M  V30 39 H -3.8983 -2.6022 0.4961 0
M  V30 40 H -2.4053 -3.518 0.9614 0
M  V30 41 H -3.4122 -2.7222 2.2295 0
M  V30 END ATOM
M  V30 BEGIN BOND
M  V30 1 1 1 2
M  V30 2 1 2 3
M  V30 3 1 2 4
M  V30 4 1 2 5
M  V30 5 2 5 6
M  V30 6 1 5 7
M  V30 7 1 6 8
M  V30 8 1 6 9
M  V30 9 2 7 10
M  V30 10 1 9 11
M  V30 11 2 9 12
M  V30 12 1 10 13
M  V30 13 2 11 14
M  V30 14 1 11 15
M  V30 15 1 12 16
M  V30 16 2 13 17
M  V30 17 1 13 18
M  V30 18 1 16 19
M  V30 19 1 16 20
M  V30 20 1 19 21
M  V30 21 1 20 22
M  V30 22 1 21 23
M  V30 23 1 22 24
M  V30 24 1 10 12
M  V30 25 1 7 25
M  V30 26 1 8 26
M  V30 27 1 8 27
M  V30 28 1 19 28
M  V30 29 1 19 29
M  V30 30 1 20 30
M  V30 31 1 20 31
M  V30 32 1 21 32
M  V30 33 1 21 33
M  V30 34 1 22 34
M  V30 35 1 22 35
M  V30 36 1 23 36
M  V30 37 1 23 37
M  V30 38 1 23 38
M  V30 39 1 24 39
M  V30 40 1 24 40
M  V30 41 1 24 41
M  V30 END BOND
M  V30 END CTAB
M  END
>  <Structure No>
6516

>  <LogS>
-7.07

>  <MMFF94 Energy>
163.8

$$$$
Compound 6517
Actelion Java MolfileCreator 2.0

  0  0  0  0  0  0              0 V3000
M  V30 BEGIN CTAB
M  V30 COUNTS 33 34 0 0 0
M  V30 BEGIN ATOM
M  V30 1 S -1.5423 2.2735 -1.055 0
M  V30 2 O -0.8516 3.4028 -0.3425 0
M  V30 3 O -2.718 2.8206 -1.8138 0
M  V30 4 N -0.431 1.5432 -2.1707 0
M  V30 5 C -2.1207 1.0716 0.0946 0
M  V30 6 C 0.7366 0.8017 -1.7738 0
M  V30 7 C -2.3367 1.4177 1.4354 0
M  V30 8 C -2.3651 -0.241 -0.3297 0
M  V30 9 C 1.4483 0.0784 -2.7426 0
M  V30 10 C 1.1905 0.7826 -0.4417 0
M  V30 11 C -2.7854 0.4561 2.3461 0
M  V30 12 C -2.813 -1.2029 0.5805 0
M  V30 13 C 2.5825 -0.6578 -2.3899 0
M  V30 14 C 2.3248 0.045 -0.0898 0
M  V30 15 C -3.0244 -0.8591 1.9232 0
M  V30 16 C 3.0298 -0.6837 -1.0651 0
M  V30 17 N -3.4818 -1.8428 2.8548 0
M  V30 18 O 4.1719 -1.4394 -0.7612 0
M  V30 19 C 4.7352 -1.5559 0.5411 0
M  V30 20 H -0.678 1.5955 -3.1843 0
M  V30 21 H -2.1573 2.4289 1.7775 0
M  V30 22 H -2.206 -0.5203 -1.3635 0
M  V30 23 H 1.1202 0.0804 -3.7744 0
M  V30 24 H 0.6811 1.3369 0.3327 0
M  V30 25 H -2.9463 0.7355 3.3798 0
M  V30 26 H -2.9948 -2.2144 0.2401 0
M  V30 27 H 3.1164 -1.2127 -3.1508 0
M  V30 28 H 2.6456 0.0499 0.9428 0
M  V30 29 H -3.6424 -1.5963 3.857 0
M  V30 30 H -3.6627 -2.825 2.5493 0
M  V30 31 H 5.628 -2.2122 0.4926 0
M  V30 32 H 5.0479 -0.5571 0.9127 0
M  V30 33 H 3.9979 -2.0091 1.237 0
M  V30 END ATOM
M  V30 BEGIN BOND
M  V30 1 2 1 2
M  V30 2 2 1 3
M  V30 3 1 1 4
M  V30 4 1 1 5
M  V30 5 1 4 6
M  V30 6 2 5 7
M  V30 7 1 5 8
M  V30 8 2 6 9
M  V30 9 1 6 10
M  V30 10 1 7 11
M  V30 11 2 8 12
M  V30 12 1 9 13
M  V30 13 2 10 14
M  V30 14 2 11 15
M  V30 15 2 13 16
M  V30 16 1 15 17
M  V30 17 1 16 18
M  V30 18 1 18 19
M  V30 19 1 12 15
M  V30 20 1 14 16
M  V30 21 1 4 20
M  V30 22 1 7 21
M  V30 23 1 8 22
M  V30 24 1 9 23
M  V30 25 1 10 24
M  V30 26 1 11 25
M  V30 27 1 12 26
M  V30 28 1 13 27
M  V30 29 1 14 28
M  V30 30 1 17 29
M  V30 31 1 17 30
M  V30 32 1 19 31
M  V30 33 1 19 32
M  V30 34 1 19 33
M  V30 END BOND
M  V30 END CTAB
M  END
>  <Structure No>
6517

>  <LogS>
-4.23

>  <MMFF94 Energy>
-11.662

$$$$
Compound 6518
Actelion Java MolfileCreator 2.0

  0  0  0  0  0  0              0 V3000
M  V30 BEGIN CTAB
M  V30 COUNTS 30 31 0 0 0
M  V30 BEGIN ATOM
M  V30 1 S -1.555 1.1456 -1.555 0
M  V30 2 O -1.8624 0.206 -2.6874 0
M  V30 3 O -2.0638 2.5155 -1.9047 0
M  V30 4 N -2.3574 0.5866 -0.1208 0
M  V30 5 C 0.1811 1.2409 -1.2773 0
M  V30 6 C -2.0186 -0.6303 0.5683 0
M  V30 7 C 1.0826 0.9007 -2.2948 0
M  V30 8 C 0.6681 1.6574 -0.0311 0
M  V30 9 C -1.134 -1.5779 0.0174 0
M  V30 10 C -2.589 -0.8849 1.8261 0
M  V30 11 C 2.4601 0.9682 -2.0647 0
M  V30 12 C 2.0452 1.7242 0.1993 0
M  V30 13 C -0.8222 -2.7465 0.719 0
M  V30 14 C -2.2769 -2.0541 2.5259 0
M  V30 15 C 2.948 1.3791 -0.816 0
M  V30 16 C -1.3916 -2.9866 1.9745 0
M  V30 17 N 4.3567 1.4466 -0.5804 0
M  V30 18 C -1.0693 -4.1902 2.6952 0
M  V30 19 N -0.8102 -5.1578 3.2747 0
M  V30 20 H -3.0809 1.2175 0.291 0
M  V30 21 H 0.7217 0.5821 -3.2642 0
M  V30 22 H -0.0177 1.9269 0.7621 0
M  V30 23 H -0.6838 -1.4288 -0.9528 0
M  V30 24 H -3.2741 -0.1723 2.2682 0
M  V30 25 H 3.1463 0.7005 -2.8582 0
M  V30 26 H 2.4082 2.0445 1.1678 0
M  V30 27 H -0.1385 -3.4636 0.2808 0
M  V30 28 H -2.7252 -2.2299 3.4965 0
M  V30 29 H 5.037 1.1919 -1.3306 0
M  V30 30 H 4.7297 1.7518 0.3463 0
M  V30 END ATOM
M  V30 BEGIN BOND
M  V30 1 2 1 2
M  V30 2 2 1 3
M  V30 3 1 1 4
M  V30 4 1 1 5
M  V30 5 1 4 6
M  V30 6 2 5 7
M  V30 7 1 5 8
M  V30 8 2 6 9
M  V30 9 1 6 10
M  V30 10 1 7 11
M  V30 11 2 8 12
M  V30 12 1 9 13
M  V30 13 2 10 14
M  V30 14 2 11 15
M  V30 15 2 13 16
M  V30 16 1 15 17
M  V30 17 1 16 18
M  V30 18 3 18 19
M  V30 19 1 12 15
M  V30 20 1 14 16
M  V30 21 1 4 20
M  V30 22 1 7 21
M  V30 23 1 8 22
M  V30 24 1 9 23
M  V30 25 1 10 24
M  V30 26 1 11 25
M  V30 27 1 12 26
M  V30 28 1 13 27
M  V30 29 1 14 28
M  V30 30 1 17 29
M  V30 31 1 17 30
M  V30 END BOND
M  V30 END CTAB
M  END
>  <Structure No>
6518

>  <LogS>
-3.6

>  <MMFF94 Energy>
0.62151

$$$$
Compound 6519
Actelion Java MolfileCreator 2.0

  0  0  0  0  0  0              0 V3000
M  V30 BEGIN CTAB
M  V30 COUNTS 55 56 0 0 0
M  V30 BEGIN ATOM
M  V30 1 O 3.1639 -1.7391 0.474 0
M  V30 2 C 2.171 -2.3089 -0.0589 0
M  V30 3 O 0.9386 -1.6484 -0.1999 0
M  V30 4 C 2.2844 -3.7444 -0.4826 0
M  V30 5 C 0.6783 -0.2475 0.0633 0 CFG=2
M  V30 6 C 1.6507 -3.968 -1.8533 0
M  V30 7 C 0.9816 0.0442 1.5559 0
M  V30 8 C -0.8706 -0.03 -0.2286 0 CFG=1
M  V30 9 C 1.6345 0.5247 -0.9438 0
M  V30 10 C 1.3081 1.3402 2.0189 0
M  V30 11 C 0.8303 -0.9733 2.5321 0
M  V30 12 C -1.7918 -1.0697 0.519 0
M  V30 13 C -1.3736 1.4151 0.0796 0
M  V30 14 C 1.2865 1.9148 -1.4434 0
M  V30 15 C 1.5138 1.5958 3.377 0
M  V30 16 C 1.0461 -0.7142 3.8878 0
M  V30 17 N -3.063 -1.4724 -0.1625 0 CHG=1
M  V30 18 C 2.0176 3.0352 -0.9936 0
M  V30 19 C 0.3404 2.0939 -2.4707 0
M  V30 20 C 1.3862 0.5705 4.3121 0
M  V30 21 C -4.0181 -1.9944 0.8402 0
M  V30 22 C -3.7282 -0.4349 -0.9756 0
M  V30 23 C 1.7345 4.3113 -1.486 0
M  V30 24 C 0.0571 3.375 -2.9566 0
M  V30 25 C 0.7434 4.4835 -2.4567 0
M  V30 26 H 3.354 -4.0424 -0.5282 0
M  V30 27 H 1.7764 -4.3841 0.271 0
M  V30 28 H 0.5581 -3.7698 -1.8131 0
M  V30 29 H 1.8018 -5.0242 -2.1634 0
M  V30 30 H 2.1149 -3.3014 -2.611 0
M  V30 31 H -0.9742 -0.2222 -1.3146 0
M  V30 32 H 2.6546 0.5576 -0.5065 0
M  V30 33 H 1.7516 -0.0942 -1.8616 0
M  V30 34 H 1.3883 2.1698 1.3443 0
M  V30 35 H 0.5421 -1.9784 2.2523 0
M  V30 36 H -1.2224 -2.0076 0.6918 0
M  V30 37 H -1.9877 -0.6949 1.549 0
M  V30 38 H -0.5656 2.1474 0.227 0
M  V30 39 H -1.9887 1.7921 -0.7635 0
M  V30 40 H -1.989 1.4739 1.0023 0
M  V30 41 H 1.7561 2.5996 3.7076 0
M  V30 42 H 0.9326 -1.5079 4.6153 0
M  V30 43 H -2.8381 -2.269 -0.8076 0
M  V30 44 H 2.8182 2.9165 -0.2744 0
M  V30 45 H -0.1802 1.2455 -2.9025 0
M  V30 46 H 1.5389 0.7761 5.3637 0
M  V30 47 H -4.9096 -2.4436 0.3494 0
M  V30 48 H -4.3765 -1.1823 1.5152 0
M  V30 49 H -3.5472 -2.7922 1.4579 0
M  V30 50 H -3.1161 -0.1585 -1.8588 0
M  V30 51 H -4.6827 -0.8238 -1.3991 0
M  V30 52 H -3.9583 0.4716 -0.3793 0
M  V30 53 H 2.2926 5.1641 -1.1213 0
M  V30 54 H -0.6871 3.5067 -3.7309 0
M  V30 55 H 0.5253 5.4726 -2.8378 0
M  V30 END ATOM
M  V30 BEGIN BOND
M  V30 1 2 1 2
M  V30 2 1 2 3
M  V30 3 1 2 4
M  V30 4 1 3 5
M  V30 5 1 4 6
M  V30 6 1 5 7
M  V30 7 1 5 8
M  V30 8 1 5 9
M  V30 9 2 7 10
M  V30 10 1 7 11
M  V30 11 1 8 12
M  V30 12 1 8 13
M  V30 13 1 9 14
M  V30 14 1 10 15
M  V30 15 2 11 16
M  V30 16 1 12 17
M  V30 17 2 14 18
M  V30 18 1 14 19
M  V30 19 2 15 20
M  V30 20 1 17 21
M  V30 21 1 17 22
M  V30 22 1 18 23
M  V30 23 2 19 24
M  V30 24 2 23 25
M  V30 25 1 16 20
M  V30 26 1 24 25
M  V30 27 1 4 26
M  V30 28 1 4 27
M  V30 29 1 6 28
M  V30 30 1 6 29
M  V30 31 1 6 30
M  V30 32 1 8 31
M  V30 33 1 9 32
M  V30 34 1 9 33
M  V30 35 1 10 34
M  V30 36 1 11 35
M  V30 37 1 12 36
M  V30 38 1 12 37
M  V30 39 1 13 38
M  V30 40 1 13 39
M  V30 41 1 13 40
M  V30 42 1 15 41
M  V30 43 1 16 42
M  V30 44 1 17 43
M  V30 45 1 18 44
M  V30 46 1 19 45
M  V30 47 1 20 46
M  V30 48 1 21 47
M  V30 49 1 21 48
M  V30 50 1 21 49
M  V30 51 1 22 50
M  V30 52 1 22 51
M  V30 53 1 22 52
M  V30 54 1 23 53
M  V30 55 1 24 54
M  V30 56 1 25 55
M  V30 END BOND
M  V30 BEGIN COLLECTION
M  V30 MDLV30/STEABS ATOMS=(2 5 8)
M  V30 END COLLECTION
M  V30 END CTAB
M  END
>  <Structure No>
6519

>  <LogS>
-2.61

>  <MMFF94 Energy>
64.128

$$$$
Compound 6520
Actelion Java MolfileCreator 2.0

  0  0  0  0  0  0              0 V3000
M  V30 BEGIN CTAB
M  V30 COUNTS 55 56 0 0 0
M  V30 BEGIN ATOM
M  V30 1 O 2.2912 -1.2636 -2.3702 0
M  V30 2 C 1.8421 -0.2802 -1.7215 0
M  V30 3 N 1.5882 0.9368 -2.4332 0
M  V30 4 C 1.5563 -0.3966 -0.2141 0 CFG=2
M  V30 5 C 1.9686 0.9085 0.4906 0
M  V30 6 C 2.3327 -1.5991 0.3957 0
M  V30 7 C 0.0251 -0.6675 -2.0E-4 0
M  V30 8 N 1.2639 1.3472 1.5747 0
M  V30 9 C 3.1536 1.5903 0.1387 0
M  V30 10 C 3.2602 -1.4536 1.461 0
M  V30 11 C 2.0946 -2.9134 -0.079 0
M  V30 12 C -0.943 0.3987 -0.5762 0
M  V30 13 C 1.6231 2.4503 2.2827 0
M  V30 14 C 3.5373 2.7266 0.8529 0
M  V30 15 C 3.9232 -2.5611 1.9976 0
M  V30 16 C 2.7621 -4.0139 0.464 0
M  V30 17 N -2.3751 0.1103 -0.2238 0 CHG=1
M  V30 18 C 2.7658 3.166 1.9278 0
M  V30 19 C 3.6766 -3.838 1.4994 0
M  V30 20 C -3.02 1.2587 0.4998 0
M  V30 21 C -3.153 -0.3556 -1.4256 0
M  V30 22 C -2.3208 1.578 1.8389 0
M  V30 23 C -3.1591 2.5362 -0.3562 0
M  V30 24 C -2.5772 -1.6701 -2.0031 0
M  V30 25 C -4.6494 -0.5991 -1.1194 0
M  V30 26 H 1.778 0.9913 -3.4584 0
M  V30 27 H 1.2163 1.7865 -1.9544 0
M  V30 28 H -0.1678 -0.771 1.0908 0
M  V30 29 H -0.2523 -1.6398 -0.4506 0
M  V30 30 H 3.7828 1.239 -0.6686 0
M  V30 31 H 3.4843 -0.4935 1.9011 0
M  V30 32 H 1.393 -3.0984 -0.881 0
M  V30 33 H -0.8131 0.4638 -1.6753 0
M  V30 34 H -0.6134 1.39 -0.2181 0
M  V30 35 H 1.0237 2.7666 3.1258 0
M  V30 36 H 4.4394 3.259 0.5804 0
M  V30 37 H 4.6286 -2.427 2.8078 0
M  V30 38 H 2.5673 -5.007 0.0801 0
M  V30 39 H -2.4039 -0.6895 0.4536 0
M  V30 40 H 3.0586 4.0436 2.4895 0
M  V30 41 H 4.1917 -4.6926 1.9189 0
M  V30 42 H -4.0444 0.9648 0.8116 0
M  V30 43 H -3.0966 0.4066 -2.2342 0
M  V30 44 H -2.9944 2.1895 2.4772 0
M  V30 45 H -2.0847 0.6435 2.3902 0
M  V30 46 H -1.3894 2.1607 1.6954 0
M  V30 47 H -2.1773 2.9119 -0.7076 0
M  V30 48 H -3.8086 2.3585 -1.2362 0
M  V30 49 H -3.6375 3.3393 0.2442 0
M  V30 50 H -2.542 -2.458 -1.2207 0
M  V30 51 H -1.5609 -1.5251 -2.4203 0
M  V30 52 H -3.2044 -2.0366 -2.8437 0
M  V30 53 H -5.1491 -1.1175 -1.9657 0
M  V30 54 H -5.1935 0.3586 -0.9901 0
M  V30 55 H -4.7656 -1.2227 -0.2072 0
M  V30 END ATOM
M  V30 BEGIN BOND
M  V30 1 2 1 2
M  V30 2 1 2 3
M  V30 3 1 2 4
M  V30 4 1 4 5
M  V30 5 1 4 6
M  V30 6 1 4 7
M  V30 7 2 5 8
M  V30 8 1 5 9
M  V30 9 2 6 10
M  V30 10 1 6 11
M  V30 11 1 7 12
M  V30 12 1 8 13
M  V30 13 2 9 14
M  V30 14 1 10 15
M  V30 15 2 11 16
M  V30 16 1 12 17
M  V30 17 2 13 18
M  V30 18 2 15 19
M  V30 19 1 17 20
M  V30 20 1 17 21
M  V30 21 1 20 22
M  V30 22 1 20 23
M  V30 23 1 21 24
M  V30 24 1 21 25
M  V30 25 1 14 18
M  V30 26 1 16 19
M  V30 27 1 3 26
M  V30 28 1 3 27
M  V30 29 1 7 28
M  V30 30 1 7 29
M  V30 31 1 9 30
M  V30 32 1 10 31
M  V30 33 1 11 32
M  V30 34 1 12 33
M  V30 35 1 12 34
M  V30 36 1 13 35
M  V30 37 1 14 36
M  V30 38 1 15 37
M  V30 39 1 16 38
M  V30 40 1 17 39
M  V30 41 1 18 40
M  V30 42 1 19 41
M  V30 43 1 20 42
M  V30 44 1 21 43
M  V30 45 1 22 44
M  V30 46 1 22 45
M  V30 47 1 22 46
M  V30 48 1 23 47
M  V30 49 1 23 48
M  V30 50 1 23 49
M  V30 51 1 24 50
M  V30 52 1 24 51
M  V30 53 1 24 52
M  V30 54 1 25 53
M  V30 55 1 25 54
M  V30 56 1 25 55
M  V30 END BOND
M  V30 BEGIN COLLECTION
M  V30 MDLV30/STEABS ATOMS=(1 4)
M  V30 END COLLECTION
M  V30 END CTAB
M  END
>  <Structure No>
6520

>  <LogS>
-1.7

>  <MMFF94 Energy>
70.208

$$$$
Compound 6521
Actelion Java MolfileCreator 2.0

  0  0  0  0  0  0              0 V3000
M  V30 BEGIN CTAB
M  V30 COUNTS 32 34 0 0 0
M  V30 BEGIN ATOM
M  V30 1 O -1.0593 4.8146 0.3258 0
M  V30 2 C -0.7958 3.5878 0.2285 0
M  V30 3 N -0.8286 2.7552 1.3815 0
M  V30 4 N -0.4651 3.0339 -1.0361 0 CHG=-1
M  V30 5 C -0.5142 1.3619 1.3036 0
M  V30 6 C -0.1674 1.6474 -1.1944 0
M  V30 7 O -0.5214 0.6829 2.3671 0
M  V30 8 C -0.1629 0.6758 -0.016 0
M  V30 9 O 0.0887 1.2191 -2.3522 0
M  V30 10 C 1.2644 0.0963 0.0384 0
M  V30 11 C -1.2313 -0.418 -0.2123 0
M  V30 12 C 1.6438 -0.956 -0.8262 0
M  V30 13 C 2.271 0.6944 0.8322 0
M  V30 14 C -2.42 -0.1643 -0.9356 0
M  V30 15 C -1.1197 -1.6569 0.4602 0
M  V30 16 C 2.9528 -1.445 -0.8305 0
M  V30 17 C 3.5785 0.2002 0.8224 0
M  V30 18 C -3.4115 -1.143 -1.0502 0
M  V30 19 C -2.1146 -2.6307 0.3409 0
M  V30 20 C 3.9169 -0.8732 -9.0E-4 0
M  V30 21 C -3.2551 -2.3774 -0.4203 0
M  V30 22 H -1.072 3.1743 2.3073 0
M  V30 23 H 0.9266 -1.3988 -1.5052 0
M  V30 24 H 2.0559 1.551 1.457 0
M  V30 25 H -2.594 0.793 -1.4084 0
M  V30 26 H -0.2618 -1.8711 1.0847 0
M  V30 27 H 3.222 -2.2619 -1.4874 0
M  V30 28 H 4.3339 0.6596 1.4469 0
M  V30 29 H -4.3089 -0.9384 -1.6197 0
M  V30 30 H -2.0052 -3.5798 0.8498 0
M  V30 31 H 4.9311 -1.251 -0.0088 0
M  V30 32 H -4.0264 -3.1317 -0.5079 0
M  V30 END ATOM
M  V30 BEGIN BOND
M  V30 1 2 1 2
M  V30 2 1 2 3
M  V30 3 1 2 4
M  V30 4 1 3 5
M  V30 5 1 4 6
M  V30 6 2 5 7
M  V30 7 1 5 8
M  V30 8 2 6 9
M  V30 9 1 8 10
M  V30 10 1 8 11
M  V30 11 2 10 12
M  V30 12 1 10 13
M  V30 13 2 11 14
M  V30 14 1 11 15
M  V30 15 1 12 16
M  V30 16 2 13 17
M  V30 17 1 14 18
M  V30 18 2 15 19
M  V30 19 2 16 20
M  V30 20 2 18 21
M  V30 21 1 6 8
M  V30 22 1 17 20
M  V30 23 1 19 21
M  V30 24 1 3 22
M  V30 25 1 12 23
M  V30 26 1 13 24
M  V30 27 1 14 25
M  V30 28 1 15 26
M  V30 29 1 16 27
M  V30 30 1 17 28
M  V30 31 1 18 29
M  V30 32 1 19 30
M  V30 33 1 20 31
M  V30 34 1 21 32
M  V30 END BOND
M  V30 END CTAB
M  END
>  <Structure No>
6521

>  <LogS>
-4.2

>  <MMFF94 Energy>
76.567

$$$$
Compound 6522
Actelion Java MolfileCreator 2.0

  0  0  0  0  0  0              0 V3000
M  V30 BEGIN CTAB
M  V30 COUNTS 29 30 0 0 0
M  V30 BEGIN ATOM
M  V30 1 S -1.0729 -1.5684 -1.7336 0
M  V30 2 O -1.8799 -1.7389 -2.9894 0
M  V30 3 O -0.6392 -2.9218 -1.2436 0
M  V30 4 N 0.3342 -0.6142 -2.0832 0
M  V30 5 C -2.0677 -0.7581 -0.5276 0
M  V30 6 C 1.2617 -0.1514 -1.0849 0
M  V30 7 C -2.7399 -1.5005 0.4541 0
M  V30 8 C -2.1901 0.6385 -0.545 0
M  V30 9 C 2.2503 0.7745 -1.4482 0
M  V30 10 C 1.2104 -0.6029 0.2465 0
M  V30 11 C -3.5206 -0.8492 1.4144 0
M  V30 12 C -2.9707 1.2872 0.4167 0
M  V30 13 C 3.1637 1.2503 -0.5036 0
M  V30 14 C 2.1231 -0.1268 1.192 0
M  V30 15 C -3.6351 0.5439 1.3966 0
M  V30 16 C 3.1095 0.8063 0.8277 0
M  V30 17 N 4.0504 1.2988 1.7992 0 CHG=1
M  V30 18 O 4.0065 0.9076 2.9841 0
M  V30 19 O 5.0152 2.2113 1.4381 0 CHG=-1
M  V30 20 H 0.4638 -0.3113 -3.0745 0
M  V30 21 H -2.6597 -2.5795 0.4781 0
M  V30 22 H -1.6801 1.2237 -1.2996 0
M  V30 23 H 2.3108 1.134 -2.4678 0
M  V30 24 H 0.4743 -1.3256 0.5662 0
M  V30 25 H -4.0366 -1.4241 2.1724 0
M  V30 26 H -3.0608 2.3656 0.4024 0
M  V30 27 H 3.9119 1.9669 -0.8163 0
M  V30 28 H 2.0578 -0.4911 2.2092 0
M  V30 29 H -4.2391 1.0468 2.1407 0
M  V30 END ATOM
M  V30 BEGIN BOND
M  V30 1 2 1 2
M  V30 2 2 1 3
M  V30 3 1 1 4
M  V30 4 1 1 5
M  V30 5 1 4 6
M  V30 6 2 5 7
M  V30 7 1 5 8
M  V30 8 2 6 9
M  V30 9 1 6 10
M  V30 10 1 7 11
M  V30 11 2 8 12
M  V30 12 1 9 13
M  V30 13 2 10 14
M  V30 14 2 11 15
M  V30 15 2 13 16
M  V30 16 1 16 17
M  V30 17 2 17 18
M  V30 18 1 17 19
M  V30 19 1 12 15
M  V30 20 1 14 16
M  V30 21 1 4 20
M  V30 22 1 7 21
M  V30 23 1 8 22
M  V30 24 1 9 23
M  V30 25 1 10 24
M  V30 26 1 11 25
M  V30 27 1 12 26
M  V30 28 1 13 27
M  V30 29 1 14 28
M  V30 30 1 15 29
M  V30 END BOND
M  V30 END CTAB
M  END
>  <Structure No>
6522

>  <LogS>
-3.93

>  <MMFF94 Energy>
29.628

$$$$
Compound 6523
Actelion Java MolfileCreator 2.0

  0  0  0  0  0  0              0 V3000
M  V30 BEGIN CTAB
M  V30 COUNTS 30 31 0 0 0
M  V30 BEGIN ATOM
M  V30 1 S 1.0682 -2.4664 1.1504 0
M  V30 2 O 2.1683 -2.7833 0.1762 0
M  V30 3 O 0.9517 -3.59 2.1404 0
M  V30 4 N 1.465 -1.0048 1.9954 0 CHG=-1
M  V30 5 C -0.4695 -2.2836 0.3127 0
M  V30 6 C 1.6338 0.2805 1.3851 0
M  V30 7 C -0.6773 -2.8981 -0.9294 0
M  V30 8 C -1.4946 -1.5207 0.8878 0
M  V30 9 N 1.8981 1.3523 2.1782 0
M  V30 10 C 1.5335 0.472 -4.0E-4 0
M  V30 11 C -1.8972 -2.7436 -1.5949 0
M  V30 12 C -2.7142 -1.3654 0.2223 0
M  V30 13 N 2.061 2.5767 1.6736 0
M  V30 14 C 1.7027 1.7513 -0.5249 0
M  V30 15 C -2.9212 -1.9753 -1.0228 0
M  V30 16 C 1.9703 2.8132 0.3365 0
M  V30 17 N -4.1683 -1.8163 -1.704 0
M  V30 18 O 2.1416 4.1 -0.1814 0
M  V30 19 C 2.4163 5.2293 0.6389 0
M  V30 20 H 0.1028 -3.4951 -1.3836 0
M  V30 21 H -1.3495 -1.0446 1.8492 0
M  V30 22 H 1.3302 -0.3473 -0.6745 0
M  V30 23 H -2.0444 -3.2216 -2.5551 0
M  V30 24 H -3.497 -0.7709 0.6764 0
M  V30 25 H 1.6274 1.9164 -1.5921 0
M  V30 26 H -4.937 -1.2463 -1.2857 0
M  V30 27 H -4.332 -2.2671 -2.6317 0
M  V30 28 H 1.5876 5.385 1.3617 0
M  V30 29 H 2.5091 6.1307 -7.0E-4 0
M  V30 30 H 3.37 5.0778 1.1874 0
M  V30 END ATOM
M  V30 BEGIN BOND
M  V30 1 2 1 2
M  V30 2 2 1 3
M  V30 3 1 1 4
M  V30 4 1 1 5
M  V30 5 1 4 6
M  V30 6 2 5 7
M  V30 7 1 5 8
M  V30 8 2 6 9
M  V30 9 1 6 10
M  V30 10 1 7 11
M  V30 11 2 8 12
M  V30 12 1 9 13
M  V30 13 2 10 14
M  V30 14 2 11 15
M  V30 15 2 13 16
M  V30 16 1 15 17
M  V30 17 1 16 18
M  V30 18 1 18 19
M  V30 19 1 12 15
M  V30 20 1 14 16
M  V30 21 1 7 20
M  V30 22 1 8 21
M  V30 23 1 10 22
M  V30 24 1 11 23
M  V30 25 1 12 24
M  V30 26 1 14 25
M  V30 27 1 17 26
M  V30 28 1 17 27
M  V30 29 1 19 28
M  V30 30 1 19 29
M  V30 31 1 19 30
M  V30 END BOND
M  V30 END CTAB
M  END
>  <Structure No>
6523

>  <LogS>
-2.68

>  <MMFF94 Energy>
51.798

$$$$
Compound 6524
Actelion Java MolfileCreator 2.0

  0  0  0  0  0  0              0 V3000
M  V30 BEGIN CTAB
M  V30 COUNTS 31 32 0 0 0
M  V30 BEGIN ATOM
M  V30 1 S -2.7099 1.4774 0.7385 0
M  V30 2 O -2.4909 2.0197 2.123 0
M  V30 3 O -2.6987 2.6013 -0.2589 0
M  V30 4 C -1.457 0.3082 0.3304 0
M  V30 5 C -4.2757 0.6446 0.679 0
M  V30 6 C -1.81 -0.9549 -0.0108 0
M  V30 7 C -0.0474 0.7486 0.431 0
M  V30 8 C -4.2209 -0.3962 -0.4259 0
M  V30 9 O -3.1562 -1.3187 -0.1952 0
M  V30 10 C -0.794 -2.0484 -0.187 0
M  V30 11 O 0.2974 1.4997 1.3832 0
M  V30 12 N 0.8996 0.4083 -0.5933 0
M  V30 13 C 2.3251 0.4325 -0.4071 0
M  V30 14 C 2.9062 0.1683 0.8477 0
M  V30 15 C 3.1605 0.6674 -1.5108 0
M  V30 16 C 4.2969 0.1736 0.9958 0
M  V30 17 C 4.5505 0.6728 -1.358 0
M  V30 18 C 5.1182 0.4298 -0.1049 0
M  V30 19 H -4.4671 0.1461 1.6532 0
M  V30 20 H -5.0855 1.3776 0.4782 0
M  V30 21 H -5.1808 -0.9532 -0.4551 0
M  V30 22 H -4.0767 0.0992 -1.4107 0
M  V30 23 H -1.2873 -3.0377 -0.0835 0
M  V30 24 H 7.0E-4 -1.9852 0.5864 0
M  V30 25 H -0.3456 -1.9909 -1.1999 0
M  V30 26 H 0.529 0.2168 -1.5516 0
M  V30 27 H 2.2906 -0.0648 1.7063 0
M  V30 28 H 2.7329 0.8549 -2.4878 0
M  V30 29 H 4.7381 -0.029 1.9632 0
M  V30 30 H 5.1875 0.8633 -2.2123 0
M  V30 31 H 6.1943 0.4321 0.0114 0
M  V30 END ATOM
M  V30 BEGIN BOND
M  V30 1 2 1 2
M  V30 2 2 1 3
M  V30 3 1 1 4
M  V30 4 1 1 5
M  V30 5 2 4 6
M  V30 6 1 4 7
M  V30 7 1 5 8
M  V30 8 1 6 9
M  V30 9 1 6 10
M  V30 10 2 7 11
M  V30 11 1 7 12
M  V30 12 1 12 13
M  V30 13 2 13 14
M  V30 14 1 13 15
M  V30 15 1 14 16
M  V30 16 2 15 17
M  V30 17 2 16 18
M  V30 18 1 8 9
M  V30 19 1 17 18
M  V30 20 1 5 19
M  V30 21 1 5 20
M  V30 22 1 8 21
M  V30 23 1 8 22
M  V30 24 1 10 23
M  V30 25 1 10 24
M  V30 26 1 10 25
M  V30 27 1 12 26
M  V30 28 1 14 27
M  V30 29 1 15 28
M  V30 30 1 16 29
M  V30 31 1 17 30
M  V30 32 1 18 31
M  V30 END BOND
M  V30 END CTAB
M  END
>  <Structure No>
6524

>  <LogS>
-2.43

>  <MMFF94 Energy>
-28.121

$$$$
Compound 6525
Actelion Java MolfileCreator 2.0

  0  0  0  0  0  0              0 V3000
M  V30 BEGIN CTAB
M  V30 COUNTS 32 33 0 0 0
M  V30 BEGIN ATOM
M  V30 1 Cl 3.7947 -1.731 -3.2166 0
M  V30 2 C 2.9508 -1.0515 -1.8288 0
M  V30 3 C 3.0551 0.3143 -1.5019 0
M  V30 4 C 2.1621 -1.9003 -1.0439 0
M  V30 5 C 2.3645 0.8053 -0.3831 0
M  V30 6 C 3.8962 1.2442 -2.3316 0
M  V30 7 C 1.465 -1.4092 0.0697 0
M  V30 8 C 1.5792 -0.0464 0.397 0
M  V30 9 N 0.6588 -2.3137 0.8463 0
M  V30 10 S -0.4565 -1.8072 2.0761 0
M  V30 11 O -1.2428 -2.9957 2.5515 0
M  V30 12 O 0.3146 -1.2363 3.2334 0
M  V30 13 C -1.5745 -0.6141 1.4225 0
M  V30 14 C -1.9995 0.4661 2.2077 0
M  V30 15 C -2.0422 -0.7411 0.1079 0
M  V30 16 C -2.8785 1.4162 1.6791 0
M  V30 17 C -2.9204 0.2091 -0.421 0
M  V30 18 C -3.3422 1.2932 0.3616 0
M  V30 19 N -4.24 2.2658 -0.1794 0
M  V30 20 H 2.0867 -2.9483 -1.3065 0
M  V30 21 H 2.4337 1.851 -0.1097 0
M  V30 22 H 4.9524 0.9024 -2.3225 0
M  V30 23 H 3.5233 1.2545 -3.3773 0
M  V30 24 H 3.8643 2.2839 -1.9419 0
M  V30 25 H 1.0717 0.3694 1.2549 0
M  V30 26 H 0.6785 -3.333 0.6191 0
M  V30 27 H -1.6509 0.5752 3.2265 0
M  V30 28 H -1.7247 -1.5729 -0.5078 0
M  V30 29 H -3.1976 2.2476 2.295 0
M  V30 30 H -3.2717 0.101 -1.4395 0
M  V30 31 H -4.5909 2.1824 -1.1595 0
M  V30 32 H -4.56 3.0765 0.396 0
M  V30 END ATOM
M  V30 BEGIN BOND
M  V30 1 1 1 2
M  V30 2 2 2 3
M  V30 3 1 2 4
M  V30 4 1 3 5
M  V30 5 1 3 6
M  V30 6 2 4 7
M  V30 7 2 5 8
M  V30 8 1 7 9
M  V30 9 1 9 10
M  V30 10 2 10 11
M  V30 11 2 10 12
M  V30 12 1 10 13
M  V30 13 2 13 14
M  V30 14 1 13 15
M  V30 15 1 14 16
M  V30 16 2 15 17
M  V30 17 2 16 18
M  V30 18 1 18 19
M  V30 19 1 7 8
M  V30 20 1 17 18
M  V30 21 1 4 20
M  V30 22 1 5 21
M  V30 23 1 6 22
M  V30 24 1 6 23
M  V30 25 1 6 24
M  V30 26 1 8 25
M  V30 27 1 9 26
M  V30 28 1 14 27
M  V30 29 1 15 28
M  V30 30 1 16 29
M  V30 31 1 17 30
M  V30 32 1 19 31
M  V30 33 1 19 32
M  V30 END BOND
M  V30 END CTAB
M  END
>  <Structure No>
6525

>  <LogS>
-4.91

>  <MMFF94 Energy>
-15.191

$$$$
Compound 6526
Actelion Java MolfileCreator 2.0

  0  0  0  0  0  0              0 V3000
M  V30 BEGIN CTAB
M  V30 COUNTS 32 33 0 0 0
M  V30 BEGIN ATOM
M  V30 1 Cl 3.7121 2.5561 2.3911 0
M  V30 2 C 2.9339 1.5945 1.1471 0
M  V30 3 C 2.7673 2.116 -0.1378 0
M  V30 4 C 2.4831 0.3077 1.4409 0
M  V30 5 C 2.14 1.3572 -1.1416 0
M  V30 6 C 1.8669 -0.4616 0.4531 0
M  V30 7 C 1.684 0.0488 -0.846 0
M  V30 8 C 1.9595 1.9565 -2.5104 0
M  V30 9 N 1.0512 -0.7549 -1.8603 0
M  V30 10 S -0.1535 -1.9501 -1.4984 0
M  V30 11 O -0.9438 -2.2525 -2.7401 0
M  V30 12 O 0.5245 -3.2072 -1.0297 0
M  V30 13 C -1.2528 -1.3354 -0.2671 0
M  V30 14 C -1.7459 -0.0275 -0.3663 0
M  V30 15 C -1.6301 -2.1374 0.8188 0
M  V30 16 C -2.6035 0.4777 0.6152 0
M  V30 17 C -2.4888 -1.6326 1.8003 0
M  V30 18 C -2.9788 -0.3221 1.7039 0
M  V30 19 N -3.8551 0.1946 2.7089 0
M  V30 20 H 3.1234 3.1167 -0.3505 0
M  V30 21 H 2.6148 -0.101 2.4347 0
M  V30 22 H 1.5463 -1.4624 0.7065 0
M  V30 23 H 2.6019 1.421 -3.2403 0
M  V30 24 H 0.8963 1.8764 -2.8217 0
M  V30 25 H 2.2364 3.0322 -2.5268 0
M  V30 26 H 1.2221 -0.5551 -2.8701 0
M  V30 27 H -1.4613 0.6017 -1.2003 0
M  V30 28 H -1.2596 -3.1503 0.9098 0
M  V30 29 H -2.9742 1.4913 0.5282 0
M  V30 30 H -2.7712 -2.2612 2.6356 0
M  V30 31 H -4.225 1.1694 2.6458 0
M  V30 32 H -4.1402 -0.3935 3.5236 0
M  V30 END ATOM
M  V30 BEGIN BOND
M  V30 1 1 1 2
M  V30 2 2 2 3
M  V30 3 1 2 4
M  V30 4 1 3 5
M  V30 5 2 4 6
M  V30 6 2 5 7
M  V30 7 1 5 8
M  V30 8 1 7 9
M  V30 9 1 9 10
M  V30 10 2 10 11
M  V30 11 2 10 12
M  V30 12 1 10 13
M  V30 13 2 13 14
M  V30 14 1 13 15
M  V30 15 1 14 16
M  V30 16 2 15 17
M  V30 17 2 16 18
M  V30 18 1 18 19
M  V30 19 1 6 7
M  V30 20 1 17 18
M  V30 21 1 3 20
M  V30 22 1 4 21
M  V30 23 1 6 22
M  V30 24 1 8 23
M  V30 25 1 8 24
M  V30 26 1 8 25
M  V30 27 1 9 26
M  V30 28 1 14 27
M  V30 29 1 15 28
M  V30 30 1 16 29
M  V30 31 1 17 30
M  V30 32 1 19 31
M  V30 33 1 19 32
M  V30 END BOND
M  V30 END CTAB
M  END
>  <Structure No>
6526

>  <LogS>
-4.35

>  <MMFF94 Energy>
-13.255

$$$$
Compound 6527
Actelion Java MolfileCreator 2.0

  0  0  0  0  0  0              0 V3000
M  V30 BEGIN CTAB
M  V30 COUNTS 65 68 0 0 0
M  V30 BEGIN ATOM
M  V30 1 F -2.2787 -1.3016 -0.9761 0
M  V30 2 C -2.3271 -0.0671 -0.342 0 CFG=1
M  V30 3 C -3.843 0.3884 -0.3379 0 CFG=2
M  V30 4 C -1.7565 -0.291 1.0868 0 CFG=2
M  V30 5 C -1.4167 0.9227 -1.1462 0 CFG=2
M  V30 6 C -3.9303 1.8813 -9.0E-4 0
M  V30 7 C -4.6497 -0.4872 0.6205 0
M  V30 8 C -4.49 0.1765 -1.7296 0
M  V30 9 O -1.8678 0.865 1.874 0
M  V30 10 C -0.3048 -0.8079 1.0366 0
M  V30 11 C 0.1005 0.5432 -1.1198 0 CFG=1
M  V30 12 C -1.6232 2.4096 -0.7542 0
M  V30 13 C -4.7672 2.3572 0.9355 0
M  V30 14 C -3.0875 2.8362 -0.8038 0
M  V30 15 C -5.4654 0.0064 1.5528 0
M  V30 16 C 0.7067 0.0797 0.2386 0 CFG=2
M  V30 17 C 0.4556 -0.5528 -2.1478 0
M  V30 18 C -5.5861 1.4506 1.7422 0
M  V30 19 C 1.9698 -0.7343 -0.2332 0 CFG=1
M  V30 20 C 1.1536 1.2742 1.1266 0
M  V30 21 C 1.462 -1.4932 -1.4843 0 CFG=2
M  V30 22 O -6.3797 1.9114 2.6043 0
M  V30 23 O 2.966 0.1885 -0.6358 0
M  V30 24 C 2.5339 -1.6884 0.835 0
M  V30 25 O 2.5096 -1.8123 -2.4044 0
M  V30 26 O 1.8984 -2.6801 1.1626 0
M  V30 27 C 3.8991 -1.4972 1.446 0
M  V30 28 C 3.3591 -2.9149 -2.264 0
M  V30 29 O 4.0222 -0.1805 1.9692 0
M  V30 30 O 3.1684 -3.7689 -1.3571 0
M  V30 31 C 4.4669 -3.1116 -3.2409 0
M  V30 32 C 5.1762 0.2734 2.612 0
M  V30 33 O 6.1674 -0.4894 2.7753 0
M  V30 34 C 5.2431 1.6828 3.093 0
M  V30 35 H -2.3462 -1.1031 1.5719 0
M  V30 36 H -1.7279 0.8645 -2.2118 0
M  V30 37 H -4.5978 -1.5636 0.5043 0
M  V30 38 H -5.5397 0.5434 -1.7252 0
M  V30 39 H -3.9512 0.7129 -2.5349 0
M  V30 40 H -4.5112 -0.9007 -2.0023 0
M  V30 41 H -1.7594 0.5844 2.8204 0
M  V30 42 H 0.058 -0.9509 2.0785 0
M  V30 43 H -0.3562 -1.821 0.5884 0
M  V30 44 H 0.6711 1.4419 -1.4506 0
M  V30 45 H -1.0547 3.0568 -1.4569 0
M  V30 46 H -1.2368 2.6238 0.2556 0
M  V30 47 H -4.8357 3.4219 1.1247 0
M  V30 48 H -3.4404 2.8571 -1.8561 0
M  V30 49 H -3.1651 3.8761 -0.4162 0
M  V30 50 H -6.0381 -0.6667 2.1788 0
M  V30 51 H -0.4275 -1.1334 -2.4842 0
M  V30 52 H 0.8978 -0.0826 -3.0547 0
M  V30 53 H 1.7813 1.9957 0.5627 0
M  V30 54 H 0.3075 1.8381 1.5481 0
M  V30 55 H 1.7373 0.9069 1.9942 0
M  V30 56 H 0.925 -2.4259 -1.2009 0
M  V30 57 H 3.7499 -0.3094 -0.9844 0
M  V30 58 H 4.0526 -2.2327 2.2665 0
M  V30 59 H 4.678 -1.6739 0.6745 0
M  V30 60 H 4.8148 -2.1275 -3.6189 0
M  V30 61 H 4.1034 -3.7223 -4.0932 0
M  V30 62 H 5.3201 -3.6298 -2.7539 0
M  V30 63 H 4.2468 2.1646 3.003 0
M  V30 64 H 5.5577 1.7019 4.1573 0
M  V30 65 H 5.9764 2.25 2.4835 0
M  V30 END ATOM
M  V30 BEGIN BOND
M  V30 1 1 1 2
M  V30 2 1 2 3
M  V30 3 1 2 4
M  V30 4 1 2 5
M  V30 5 1 3 6
M  V30 6 1 3 7
M  V30 7 1 3 8
M  V30 8 1 4 9
M  V30 9 1 4 10
M  V30 10 1 5 11
M  V30 11 1 5 12
M  V30 12 2 6 13
M  V30 13 1 6 14
M  V30 14 2 7 15
M  V30 15 1 10 16
M  V30 16 1 11 17
M  V30 17 1 13 18
M  V30 18 1 16 19
M  V30 19 1 16 20
M  V30 20 1 17 21
M  V30 21 2 18 22
M  V30 22 1 19 23
M  V30 23 1 19 24
M  V30 24 1 21 25
M  V30 25 2 24 26
M  V30 26 1 24 27
M  V30 27 1 25 28
M  V30 28 1 27 29
M  V30 29 2 28 30
M  V30 30 1 28 31
M  V30 31 1 29 32
M  V30 32 2 32 33
M  V30 33 1 32 34
M  V30 34 1 11 16
M  V30 35 1 12 14
M  V30 36 1 15 18
M  V30 37 1 19 21
M  V30 38 1 4 35
M  V30 39 1 5 36
M  V30 40 1 7 37
M  V30 41 1 8 38
M  V30 42 1 8 39
M  V30 43 1 8 40
M  V30 44 1 9 41
M  V30 45 1 10 42
M  V30 46 1 10 43
M  V30 47 1 11 44
M  V30 48 1 12 45
M  V30 49 1 12 46
M  V30 50 1 13 47
M  V30 51 1 14 48
M  V30 52 1 14 49
M  V30 53 1 15 50
M  V30 54 1 17 51
M  V30 55 1 17 52
M  V30 56 1 20 53
M  V30 57 1 20 54
M  V30 58 1 20 55
M  V30 59 1 21 56
M  V30 60 1 23 57
M  V30 61 1 27 58
M  V30 62 1 27 59
M  V30 63 1 31 60
M  V30 64 1 31 61
M  V30 65 1 31 62
M  V30 66 1 34 63
M  V30 67 1 34 64
M  V30 68 1 34 65
M  V30 END BOND
M  V30 BEGIN COLLECTION
M  V30 MDLV30/STEABS ATOMS=(8 2 3 4 5 11 16 19 21)
M  V30 END COLLECTION
M  V30 END CTAB
M  END
>  <Structure No>
6527

>  <LogS>
-4.13

>  <MMFF94 Energy>
146.84

$$$$
Compound 6528
Actelion Java MolfileCreator 2.0

  0  0  0  0  0  0              0 V3000
M  V30 BEGIN CTAB
M  V30 COUNTS 27 28 0 0 0
M  V30 BEGIN ATOM
M  V30 1 Cl 2.7157 -0.3391 3.0555 0
M  V30 2 C 2.5472 -0.0138 1.3291 0
M  V30 3 C 3.3512 0.974 0.7284 0
M  V30 4 C 1.5924 -0.7116 0.5544 0
M  V30 5 Cl 4.5445 1.8735 1.6572 0
M  V30 6 C 3.2081 1.2612 -0.6316 0
M  V30 7 N 0.7647 -1.7258 1.1552 0
M  V30 8 C 1.4711 -0.4095 -0.8149 0
M  V30 9 C 2.2718 0.5717 -1.3999 0
M  V30 10 S -0.814 -2.1337 0.561 0
M  V30 11 O -0.6726 -3.0271 -0.6395 0
M  V30 12 O -1.5742 -2.866 1.6304 0
M  V30 13 C -1.6963 -0.6661 0.1484 0
M  V30 14 C -1.6597 0.4349 1.0159 0
M  V30 15 C -2.4287 -0.5842 -1.0451 0
M  V30 16 C -2.3437 1.6099 0.689 0
M  V30 17 C -3.1127 0.5919 -1.3689 0
M  V30 18 C -3.0696 1.6888 -0.503 0
M  V30 19 H 3.8247 2.0206 -1.0957 0
M  V30 20 H 1.0592 -2.1818 2.0462 0
M  V30 21 H 0.7665 -0.938 -1.4412 0
M  V30 22 H 2.1687 0.7953 -2.454 0
M  V30 23 H -1.0985 0.3845 1.9405 0
M  V30 24 H -2.4695 -1.4254 -1.7248 0
M  V30 25 H -2.3108 2.4592 1.3593 0
M  V30 26 H -3.6756 0.6534 -2.2913 0
M  V30 27 H -3.5986 2.5988 -0.7554 0
M  V30 END ATOM
M  V30 BEGIN BOND
M  V30 1 1 1 2
M  V30 2 2 2 3
M  V30 3 1 2 4
M  V30 4 1 3 5
M  V30 5 1 3 6
M  V30 6 1 4 7
M  V30 7 2 4 8
M  V30 8 2 6 9
M  V30 9 1 7 10
M  V30 10 2 10 11
M  V30 11 2 10 12
M  V30 12 1 10 13
M  V30 13 2 13 14
M  V30 14 1 13 15
M  V30 15 1 14 16
M  V30 16 2 15 17
M  V30 17 2 16 18
M  V30 18 1 8 9
M  V30 19 1 17 18
M  V30 20 1 6 19
M  V30 21 1 7 20
M  V30 22 1 8 21
M  V30 23 1 9 22
M  V30 24 1 14 23
M  V30 25 1 15 24
M  V30 26 1 16 25
M  V30 27 1 17 26
M  V30 28 1 18 27
M  V30 END BOND
M  V30 END CTAB
M  END
>  <Structure No>
6528

>  <LogS>
-4.73

>  <MMFF94 Energy>
14.273

$$$$
Compound 6529
Actelion Java MolfileCreator 2.0

  0  0  0  0  0  0              0 V3000
M  V30 BEGIN CTAB
M  V30 COUNTS 32 33 0 0 0
M  V30 BEGIN ATOM
M  V30 1 Cl 6.7728 -1.3188 0.2471 0
M  V30 2 C 5.1434 -0.6773 0.1439 0
M  V30 3 C 4.0764 -1.5231 -0.1742 0
M  V30 4 C 4.9075 0.6785 0.3916 0
M  V30 5 C 2.7765 -1.0137 -0.2552 0
M  V30 6 C 3.6084 1.1895 0.3125 0
M  V30 7 C 2.5356 0.3527 -0.0313 0
M  V30 8 N 1.2086 0.8944 -0.085 0
M  V30 9 S 0.1202 0.6028 -1.4061 0
M  V30 10 O 0.2247 1.7544 -2.3666 0
M  V30 11 O 0.4738 -0.6574 -2.1433 0
M  V30 12 C -1.5343 0.4697 -0.7859 0
M  V30 13 C -1.9157 -0.5545 0.1162 0
M  V30 14 C -2.4896 1.413 -1.1975 0
M  V30 15 C -3.2435 -0.607 0.5776 0
M  V30 16 C -0.9362 -1.5932 0.5949 0
M  V30 17 C -3.8029 1.3482 -0.7305 0
M  V30 18 C -4.1862 0.3392 0.1578 0
M  V30 19 N -5.533 0.2748 0.635 0
M  V30 20 H 4.2511 -2.5772 -0.3486 0
M  V30 21 H 5.7283 1.3364 0.6476 0
M  V30 22 H 1.9631 -1.6941 -0.4605 0
M  V30 23 H 3.4376 2.2409 0.5082 0
M  V30 24 H 0.9842 1.7137 0.5229 0
M  V30 25 H -2.2224 2.2063 -1.883 0
M  V30 26 H -3.549 -1.3853 1.2667 0
M  V30 27 H -1.4092 -2.3096 1.2998 0
M  V30 28 H -0.5499 -2.1751 -0.2663 0
M  V30 29 H -0.0951 -1.1052 1.1279 0
M  V30 30 H -4.5229 2.0863 -1.0617 0
M  V30 31 H -5.8303 -0.4744 1.2991 0
M  V30 32 H -6.2434 0.9762 0.3277 0
M  V30 END ATOM
M  V30 BEGIN BOND
M  V30 1 1 1 2
M  V30 2 2 2 3
M  V30 3 1 2 4
M  V30 4 1 3 5
M  V30 5 2 4 6
M  V30 6 2 5 7
M  V30 7 1 7 8
M  V30 8 1 8 9
M  V30 9 2 9 10
M  V30 10 2 9 11
M  V30 11 1 9 12
M  V30 12 2 12 13
M  V30 13 1 12 14
M  V30 14 1 13 15
M  V30 15 1 13 16
M  V30 16 2 14 17
M  V30 17 2 15 18
M  V30 18 1 18 19
M  V30 19 1 6 7
M  V30 20 1 17 18
M  V30 21 1 3 20
M  V30 22 1 4 21
M  V30 23 1 5 22
M  V30 24 1 6 23
M  V30 25 1 8 24
M  V30 26 1 14 25
M  V30 27 1 15 26
M  V30 28 1 16 27
M  V30 29 1 16 28
M  V30 30 1 16 29
M  V30 31 1 17 30
M  V30 32 1 19 31
M  V30 33 1 19 32
M  V30 END BOND
M  V30 END CTAB
M  END
>  <Structure No>
6529

>  <LogS>
-4.42

>  <MMFF94 Energy>
-10.411

$$$$
Compound 6530
Actelion Java MolfileCreator 2.0

  0  0  0  0  0  0              0 V3000
M  V30 BEGIN CTAB
M  V30 COUNTS 32 33 0 0 0
M  V30 BEGIN ATOM
M  V30 1 S 0.8991 -2.6173 -0.7356 0
M  V30 2 O 1.3964 -3.1836 0.5648 0
M  V30 3 O 1.209 -3.592 -1.836 0
M  V30 4 N -0.8144 -2.3852 -0.6418 0 CHG=-1
M  V30 5 C 1.6881 -1.0831 -1.0898 0
M  V30 6 C -1.4125 -1.3966 0.1991 0
M  V30 7 C 1.5123 -0.4852 -2.3442 0
M  V30 8 C 2.4592 -0.4335 -0.115 0
M  V30 9 N -0.6407 -0.5898 0.975 0
M  V30 10 C -2.7998 -1.2476 0.2159 0
M  V30 11 C 2.1081 0.7478 -2.626 0
M  V30 12 C 3.053 0.8004 -0.3957 0
M  V30 13 C -1.1949 0.3591 1.7736 0
M  V30 14 C -3.3577 -0.2615 1.0367 0
M  V30 15 C 2.8812 1.3968 -1.6528 0
M  V30 16 N -2.544 0.5262 1.7897 0
M  V30 17 C -0.3194 1.2627 2.5753 0
M  V30 18 C -4.8377 -0.0515 1.0689 0
M  V30 19 N 3.4875 2.6597 -1.9393 0
M  V30 20 H 0.9101 -0.9716 -3.1011 0
M  V30 21 H 2.5933 -0.8736 0.8644 0
M  V30 22 H -3.4287 -1.8798 -0.3993 0
M  V30 23 H 1.9644 1.1987 -3.5998 0
M  V30 24 H 3.6431 1.2932 0.3665 0
M  V30 25 H 0.6453 0.7615 2.8016 0
M  V30 26 H -0.8175 1.5256 3.5321 0
M  V30 27 H -0.1207 2.19 1.9995 0
M  V30 28 H -5.3501 -1.009 1.3011 0
M  V30 29 H -5.1094 0.6941 1.8462 0
M  V30 30 H -5.1837 0.3187 0.0809 0
M  V30 31 H 3.3627 3.1133 -2.8718 0
M  V30 32 H 4.0646 3.1509 -1.2207 0
M  V30 END ATOM
M  V30 BEGIN BOND
M  V30 1 2 1 2
M  V30 2 2 1 3
M  V30 3 1 1 4
M  V30 4 1 1 5
M  V30 5 1 4 6
M  V30 6 2 5 7
M  V30 7 1 5 8
M  V30 8 2 6 9
M  V30 9 1 6 10
M  V30 10 1 7 11
M  V30 11 2 8 12
M  V30 12 1 9 13
M  V30 13 2 10 14
M  V30 14 2 11 15
M  V30 15 2 13 16
M  V30 16 1 13 17
M  V30 17 1 14 18
M  V30 18 1 15 19
M  V30 19 1 12 15
M  V30 20 1 14 16
M  V30 21 1 7 20
M  V30 22 1 8 21
M  V30 23 1 10 22
M  V30 24 1 11 23
M  V30 25 1 12 24
M  V30 26 1 17 25
M  V30 27 1 17 26
M  V30 28 1 17 27
M  V30 29 1 18 28
M  V30 30 1 18 29
M  V30 31 1 18 30
M  V30 32 1 19 31
M  V30 33 1 19 32
M  V30 END BOND
M  V30 END CTAB
M  END
>  <Structure No>
6530

>  <LogS>
-2.3

>  <MMFF94 Energy>
35.314

$$$$
Compound 6531
Actelion Java MolfileCreator 2.0

  0  0  0  0  0  0              0 V3000
M  V30 BEGIN CTAB
M  V30 COUNTS 33 35 0 0 0
M  V30 BEGIN ATOM
M  V30 1 O 0.1597 2.0779 0.3993 0
M  V30 2 C 0.6948 0.9613 0.146 0
M  V30 3 N -0.0749 -0.0863 -0.2907 0
M  V30 4 C 2.08 0.7959 0.3125 0
M  V30 5 C -1.4946 0.1004 -0.454 0
M  V30 6 C 0.5038 -1.2998 -0.5753 0
M  V30 7 C 2.6397 -0.4606 0.0143 0
M  V30 8 C 2.9155 1.836 0.7622 0
M  V30 9 C -2.3779 -0.0625 0.6366 0
M  V30 10 C -2.0013 0.4557 -1.7131 0
M  V30 11 N 1.8432 -1.4668 -0.4196 0
M  V30 12 C -0.3085 -2.4669 -1.0624 0
M  V30 13 C 4.0154 -0.6714 0.1645 0
M  V30 14 C 4.2889 1.6173 0.9098 0
M  V30 15 C -3.7541 0.1473 0.4447 0
M  V30 16 C -1.8571 -0.4204 2.0015 0
M  V30 17 C -3.3723 0.6507 -1.8923 0
M  V30 18 C 4.8376 0.3666 0.6117 0
M  V30 19 C -4.247 0.4981 -0.815 0
M  V30 20 H 2.5124 2.8131 0.999 0
M  V30 21 H -1.3287 0.5809 -2.5524 0
M  V30 22 H -1.1078 -2.705 -0.3298 0
M  V30 23 H -0.7661 -2.2231 -2.0437 0
M  V30 24 H 0.3324 -3.3656 -1.1859 0
M  V30 25 H 4.4485 -1.6373 -0.0644 0
M  V30 26 H 4.9292 2.4185 1.2559 0
M  V30 27 H -4.4478 0.0397 1.2695 0
M  V30 28 H -1.3077 0.4446 2.428 0
M  V30 29 H -1.1706 -1.2901 1.9332 0
M  V30 30 H -2.683 -0.6914 2.6933 0
M  V30 31 H -3.7569 0.9239 -2.8665 0
M  V30 32 H 5.901 0.2019 0.7274 0
M  V30 33 H -5.3089 0.6543 -0.9553 0
M  V30 END ATOM
M  V30 BEGIN BOND
M  V30 1 2 1 2
M  V30 2 1 2 3
M  V30 3 1 2 4
M  V30 4 1 3 5
M  V30 5 1 3 6
M  V30 6 2 4 7
M  V30 7 1 4 8
M  V30 8 2 5 9
M  V30 9 1 5 10
M  V30 10 2 6 11
M  V30 11 1 6 12
M  V30 12 1 7 13
M  V30 13 2 8 14
M  V30 14 1 9 15
M  V30 15 1 9 16
M  V30 16 2 10 17
M  V30 17 2 13 18
M  V30 18 2 15 19
M  V30 19 1 7 11
M  V30 20 1 14 18
M  V30 21 1 17 19
M  V30 22 1 8 20
M  V30 23 1 10 21
M  V30 24 1 12 22
M  V30 25 1 12 23
M  V30 26 1 12 24
M  V30 27 1 13 25
M  V30 28 1 14 26
M  V30 29 1 15 27
M  V30 30 1 16 28
M  V30 31 1 16 29
M  V30 32 1 16 30
M  V30 33 1 17 31
M  V30 34 1 18 32
M  V30 35 1 19 33
M  V30 END BOND
M  V30 END CTAB
M  END
>  <Structure No>
6531

>  <LogS>
-2.92

>  <MMFF94 Energy>
43.692

$$$$
Compound 6532
Actelion Java MolfileCreator 2.0

  0  0  0  0  0  0              0 V3000
M  V30 BEGIN CTAB
M  V30 COUNTS 22 23 0 0 0
M  V30 BEGIN ATOM
M  V30 1 Cl -3.8873 2.3492 0.9934 0
M  V30 2 C -2.9101 1.0373 0.3318 0
M  V30 3 C -1.5063 1.0637 0.4568 0
M  V30 4 C -3.5355 -0.0421 -0.3162 0
M  V30 5 Cl -0.7332 2.3878 1.3358 0
M  V30 6 C -0.7333 0.0075 -0.0774 0
M  V30 7 Cl -5.2845 -0.1143 -0.4941 0
M  V30 8 C -2.7666 -1.0887 -0.8287 0
M  V30 9 C 0.7441 7.0E-4 0.0124 0
M  V30 10 C -1.3779 -1.0668 -0.709 0
M  V30 11 C 1.4069 -1.0674 0.6341 0
M  V30 12 C 1.4966 1.0394 -0.5554 0
M  V30 13 C 2.8037 -1.0899 0.7089 0
M  V30 14 C 2.8936 1.0254 -0.4848 0
M  V30 15 Cl 3.5849 -2.448 1.5088 0
M  V30 16 C 3.5551 -0.0404 0.1507 0
M  V30 17 Cl 3.7891 2.356 -1.2071 0
M  V30 18 Cl 5.3159 -0.0631 0.2429 0
M  V30 19 H -3.2461 -1.9228 -1.3252 0
M  V30 20 H -0.801 -1.8853 -1.1223 0
M  V30 21 H 0.8358 -1.8792 1.069 0
M  V30 22 H 0.9963 1.8572 -1.0604 0
M  V30 END ATOM
M  V30 BEGIN BOND
M  V30 1 1 1 2
M  V30 2 2 2 3
M  V30 3 1 2 4
M  V30 4 1 3 5
M  V30 5 1 3 6
M  V30 6 1 4 7
M  V30 7 2 4 8
M  V30 8 1 6 9
M  V30 9 2 6 10
M  V30 10 2 9 11
M  V30 11 1 9 12
M  V30 12 1 11 13
M  V30 13 2 12 14
M  V30 14 1 13 15
M  V30 15 2 13 16
M  V30 16 1 14 17
M  V30 17 1 16 18
M  V30 18 1 8 10
M  V30 19 1 14 16
M  V30 20 1 8 19
M  V30 21 1 10 20
M  V30 22 1 11 21
M  V30 23 1 12 22
M  V30 END BOND
M  V30 END CTAB
M  END
>  <Structure No>
6532

>  <LogS>
-9.1

>  <MMFF94 Energy>
61.225

$$$$
Compound 6533
Actelion Java MolfileCreator 2.0

  0  0  0  0  0  0              0 V3000
M  V30 BEGIN CTAB
M  V30 COUNTS 32 33 0 0 0
M  V30 BEGIN ATOM
M  V30 1 Cl -2.226 -3.0514 1.4836 0
M  V30 2 C -2.2834 -1.3579 1.0291 0
M  V30 3 C -1.6556 -0.9279 -0.142 0
M  V30 4 C -2.96 -0.4421 1.8349 0
M  V30 5 C -1.6856 0.4287 -0.5177 0
M  V30 6 C -3.0085 0.905 1.4743 0
M  V30 7 N -1.0332 0.8622 -1.7268 0
M  V30 8 C -2.3717 1.3558 0.3051 0
M  V30 9 S 0.3773 0.08 -2.3667 0
M  V30 10 C -2.4262 2.8189 -0.0435 0
M  V30 11 O -0.0431 -1.1395 -3.1384 0
M  V30 12 O 1.0939 1.023 -3.2914 0
M  V30 13 C 1.4654 -0.3552 -1.0518 0
M  V30 14 C 1.749 0.5795 -0.0472 0
M  V30 15 C 2.0364 -1.6339 -0.9895 0
M  V30 16 C 2.5916 0.2379 1.0145 0
M  V30 17 C 2.8799 -1.9756 0.0721 0
M  V30 18 C 3.1607 -1.0418 1.0799 0
M  V30 19 N 4.0212 -1.3923 2.1669 0
M  V30 20 H -1.1561 -1.66 -0.7611 0
M  V30 21 H -3.4507 -0.7729 2.7415 0
M  V30 22 H -3.5402 1.5985 2.1144 0
M  V30 23 H -1.3306 1.7458 -2.1956 0
M  V30 24 H -1.4 3.2042 -0.2218 0
M  V30 25 H -2.8753 3.4194 0.7763 0
M  V30 26 H -3.0412 2.963 -0.9565 0
M  V30 27 H 1.3119 1.5697 -0.0833 0
M  V30 28 H 1.8276 -2.3678 -1.7569 0
M  V30 29 H 2.7994 0.9686 1.7862 0
M  V30 30 H 3.3128 -2.9673 0.1105 0
M  V30 31 H 4.2359 -0.7036 2.9224 0
M  V30 32 H 4.4495 -2.3432 2.2245 0
M  V30 END ATOM
M  V30 BEGIN BOND
M  V30 1 1 1 2
M  V30 2 2 2 3
M  V30 3 1 2 4
M  V30 4 1 3 5
M  V30 5 2 4 6
M  V30 6 1 5 7
M  V30 7 2 5 8
M  V30 8 1 7 9
M  V30 9 1 8 10
M  V30 10 2 9 11
M  V30 11 2 9 12
M  V30 12 1 9 13
M  V30 13 2 13 14
M  V30 14 1 13 15
M  V30 15 1 14 16
M  V30 16 2 15 17
M  V30 17 2 16 18
M  V30 18 1 18 19
M  V30 19 1 6 8
M  V30 20 1 17 18
M  V30 21 1 3 20
M  V30 22 1 4 21
M  V30 23 1 6 22
M  V30 24 1 7 23
M  V30 25 1 10 24
M  V30 26 1 10 25
M  V30 27 1 10 26
M  V30 28 1 14 27
M  V30 29 1 15 28
M  V30 30 1 16 29
M  V30 31 1 17 30
M  V30 32 1 19 31
M  V30 33 1 19 32
M  V30 END BOND
M  V30 END CTAB
M  END
>  <Structure No>
6533

>  <LogS>
-3.98

>  <MMFF94 Energy>
-15.28

$$$$
Compound 6534
Actelion Java MolfileCreator 2.0

  0  0  0  0  0  0              0 V3000
M  V30 BEGIN CTAB
M  V30 COUNTS 32 33 0 0 0
M  V30 BEGIN ATOM
M  V30 1 Cl 1.5661 -2.5561 2.9689 0
M  V30 2 C 1.8668 -1.4921 1.5996 0
M  V30 3 C 1.1385 -1.6084 0.3961 0
M  V30 4 C 2.8406 -0.4959 1.7389 0
M  V30 5 N 0.1337 -2.6295 0.2473 0
M  V30 6 C 1.4237 -0.7205 -0.658 0
M  V30 7 C 3.0981 0.4005 0.6932 0
M  V30 8 S -1.2027 -2.4928 -0.8516 0
M  V30 9 C 2.3959 0.2711 -0.5111 0
M  V30 10 C 4.1687 1.4416 0.8362 0
M  V30 11 O -0.7269 -2.7952 -2.2451 0
M  V30 12 O -2.264 -3.4856 -0.4698 0
M  V30 13 C -1.8887 -0.8731 -0.7622 0
M  V30 14 C -2.0771 -0.2652 0.4859 0
M  V30 15 C -2.2395 -0.1811 -1.9297 0
M  V30 16 C -2.6044 1.0269 0.5672 0
M  V30 17 C -2.7678 1.111 -1.8487 0
M  V30 18 C -2.9517 1.7219 -0.5999 0
M  V30 19 N -3.4899 3.0442 -0.5173 0
M  V30 20 H 3.3944 -0.4172 2.6669 0
M  V30 21 H 0.1271 -3.4534 0.8873 0
M  V30 22 H 0.9082 -0.7969 -1.6048 0
M  V30 23 H 2.6025 0.9373 -1.3398 0
M  V30 24 H 5.1411 1.0184 0.5087 0
M  V30 25 H 4.2548 1.7723 1.8933 0
M  V30 26 H 3.9342 2.3332 0.2162 0
M  V30 27 H -1.8108 -0.7898 1.395 0
M  V30 28 H -2.1027 -0.6373 -2.9015 0
M  V30 29 H -2.7414 1.4865 1.5381 0
M  V30 30 H -3.0327 1.6363 -2.7577 0
M  V30 31 H -3.7517 3.5697 -1.3811 0
M  V30 32 H -3.6305 3.5074 0.4082 0
M  V30 END ATOM
M  V30 BEGIN BOND
M  V30 1 1 1 2
M  V30 2 2 2 3
M  V30 3 1 2 4
M  V30 4 1 3 5
M  V30 5 1 3 6
M  V30 6 2 4 7
M  V30 7 1 5 8
M  V30 8 2 6 9
M  V30 9 1 7 10
M  V30 10 2 8 11
M  V30 11 2 8 12
M  V30 12 1 8 13
M  V30 13 2 13 14
M  V30 14 1 13 15
M  V30 15 1 14 16
M  V30 16 2 15 17
M  V30 17 2 16 18
M  V30 18 1 18 19
M  V30 19 1 7 9
M  V30 20 1 17 18
M  V30 21 1 4 20
M  V30 22 1 5 21
M  V30 23 1 6 22
M  V30 24 1 9 23
M  V30 25 1 10 24
M  V30 26 1 10 25
M  V30 27 1 10 26
M  V30 28 1 14 27
M  V30 29 1 15 28
M  V30 30 1 16 29
M  V30 31 1 17 30
M  V30 32 1 19 31
M  V30 33 1 19 32
M  V30 END BOND
M  V30 END CTAB
M  END
>  <Structure No>
6534

>  <LogS>
-4.32

>  <MMFF94 Energy>
4.1319

$$$$
Compound 6535
Actelion Java MolfileCreator 2.0

  0  0  0  0  0  0              0 V3000
M  V30 BEGIN CTAB
M  V30 COUNTS 28 29 0 0 0
M  V30 BEGIN ATOM
M  V30 1 S 1.0807 0.1662 2.079 0
M  V30 2 O 1.8067 1.1097 2.9951 0
M  V30 3 O 0.9576 -1.1727 2.7513 0
M  V30 4 N -0.5066 0.7909 1.7653 0 CHG=-1
M  V30 5 C 1.984 0.0267 0.5744 0
M  V30 6 C -1.4843 0.1988 0.8954 0
M  V30 7 C 1.7932 0.9671 -0.4479 0
M  V30 8 C 2.8968 -1.0217 0.3903 0
M  V30 9 C -2.7192 0.8598 0.6682 0
M  V30 10 C -1.2459 -1.0467 0.2817 0
M  V30 11 C 2.5031 0.8541 -1.6472 0
M  V30 12 C 3.606 -1.1319 -0.8098 0
M  V30 13 N -3.0169 2.1413 1.2609 0 CHG=1
M  V30 14 C -3.6808 0.2466 -0.1566 0
M  V30 15 C -2.2104 -1.6304 -0.5395 0
M  V30 16 C 3.4085 -0.1953 -1.8286 0
M  V30 17 O -2.1075 2.8885 1.6767 0
M  V30 18 O -4.3136 2.6012 1.3002 0 CHG=-1
M  V30 19 C -3.4258 -0.9865 -0.7567 0
M  V30 20 H 1.0951 1.7843 -0.3179 0
M  V30 21 H 3.0591 -1.7524 1.1722 0
M  V30 22 H -0.3203 -1.581 0.4372 0
M  V30 23 H 2.3514 1.5797 -2.4357 0
M  V30 24 H 4.3085 -1.9431 -0.9502 0
M  V30 25 H -4.6302 0.7296 -0.3488 0
M  V30 26 H -2.0161 -2.588 -1.0051 0
M  V30 27 H 3.9576 -0.2819 -2.7572 0
M  V30 28 H -4.1728 -1.4431 -1.3931 0
M  V30 END ATOM
M  V30 BEGIN BOND
M  V30 1 2 1 2
M  V30 2 2 1 3
M  V30 3 1 1 4
M  V30 4 1 1 5
M  V30 5 1 4 6
M  V30 6 2 5 7
M  V30 7 1 5 8
M  V30 8 2 6 9
M  V30 9 1 6 10
M  V30 10 1 7 11
M  V30 11 2 8 12
M  V30 12 1 9 13
M  V30 13 1 9 14
M  V30 14 2 10 15
M  V30 15 2 11 16
M  V30 16 2 13 17
M  V30 17 1 13 18
M  V30 18 2 14 19
M  V30 19 1 12 16
M  V30 20 1 15 19
M  V30 21 1 7 20
M  V30 22 1 8 21
M  V30 23 1 10 22
M  V30 24 1 11 23
M  V30 25 1 12 24
M  V30 26 1 14 25
M  V30 27 1 15 26
M  V30 28 1 16 27
M  V30 29 1 19 28
M  V30 END BOND
M  V30 END CTAB
M  END
>  <Structure No>
6535

>  <LogS>
-4.01

>  <MMFF94 Energy>
136.45

$$$$
Compound 6536
Actelion Java MolfileCreator 2.0

  0  0  0  0  0  0              0 V3000
M  V30 BEGIN CTAB
M  V30 COUNTS 22 23 0 0 0
M  V30 BEGIN ATOM
M  V30 1 Cl 3.7067 -0.1805 2.7113 0
M  V30 2 C 2.826 -0.055 1.1878 0
M  V30 3 C 1.4187 -0.1232 1.1736 0
M  V30 4 C 3.5302 0.1106 -0.0183 0
M  V30 5 Cl 0.5299 -0.3654 2.681 0
M  V30 6 C 0.7246 -0.0179 -0.05 0
M  V30 7 Cl 5.2868 0.2013 -0.047 0
M  V30 8 C 2.8343 0.2024 -1.2264 0
M  V30 9 C -0.7502 -0.079 -0.1038 0
M  V30 10 C 1.4414 0.1362 -1.2439 0
M  V30 11 C -1.5444 1.0193 0.2877 0
M  V30 12 C -1.3645 -1.2507 -0.565 0
M  V30 13 Cl -0.7826 2.5194 0.8263 0
M  V30 14 C -2.9489 0.9235 0.2286 0
M  V30 15 C -2.7549 -1.342 -0.6232 0
M  V30 16 Cl -3.9545 2.2875 0.7196 0
M  V30 17 C -3.5502 -0.2635 -0.2267 0
M  V30 18 Cl -5.2997 -0.4271 -0.3164 0
M  V30 19 H 3.3742 0.3268 -2.1567 0
M  V30 20 H 0.9185 0.2122 -2.1897 0
M  V30 21 H -0.764 -2.0979 -0.8736 0
M  V30 22 H -3.2152 -2.2558 -0.9771 0
M  V30 END ATOM
M  V30 BEGIN BOND
M  V30 1 1 1 2
M  V30 2 2 2 3
M  V30 3 1 2 4
M  V30 4 1 3 5
M  V30 5 1 3 6
M  V30 6 1 4 7
M  V30 7 2 4 8
M  V30 8 1 6 9
M  V30 9 2 6 10
M  V30 10 2 9 11
M  V30 11 1 9 12
M  V30 12 1 11 13
M  V30 13 1 11 14
M  V30 14 2 12 15
M  V30 15 1 14 16
M  V30 16 2 14 17
M  V30 17 1 17 18
M  V30 18 1 8 10
M  V30 19 1 15 17
M  V30 20 1 8 19
M  V30 21 1 10 20
M  V30 22 1 12 21
M  V30 23 1 15 22
M  V30 END BOND
M  V30 END CTAB
M  END
>  <Structure No>
6536

>  <LogS>
-8.78

>  <MMFF94 Energy>
70.162

$$$$
Compound 6537
Actelion Java MolfileCreator 2.0

  0  0  0  0  0  0              0 V3000
M  V30 BEGIN CTAB
M  V30 COUNTS 32 33 0 0 0
M  V30 BEGIN ATOM
M  V30 1 Cl 3.0528 -2.9702 0.8244 0
M  V30 2 C 2.9513 -1.2787 0.3497 0
M  V30 3 C 2.0315 -0.8339 -0.6261 0
M  V30 4 C 3.794 -0.3616 0.9897 0
M  V30 5 N 1.1591 -1.7714 -1.2859 0
M  V30 6 C 1.9916 0.5375 -0.9459 0
M  V30 7 C 3.736 0.9947 0.6665 0
M  V30 8 S -0.3479 -1.3181 -2.0173 0
M  V30 9 C 2.8369 1.4431 -0.3003 0
M  V30 10 O -0.066 -0.6391 -3.3285 0
M  V30 11 O -1.1651 -2.5503 -2.2857 0
M  V30 12 C -1.26 -0.2498 -0.9363 0
M  V30 13 C -1.5447 -0.6056 0.4059 0
M  V30 14 C -1.7006 0.9894 -1.4269 0
M  V30 15 C -2.2322 0.3053 1.2277 0
M  V30 16 C -1.0832 -1.9098 1.0021 0
M  V30 17 C -2.3955 1.8757 -0.6035 0
M  V30 18 C -2.661 1.5404 0.7272 0
M  V30 19 N -3.3647 2.4548 1.5724 0
M  V30 20 H 4.494 -0.7001 1.743 0
M  V30 21 H 1.3701 -2.7925 -1.2543 0
M  V30 22 H 1.3194 0.9151 -1.7025 0
M  V30 23 H 4.3898 1.6984 1.1652 0
M  V30 24 H 2.7968 2.4947 -0.5538 0
M  V30 25 H -1.5011 1.2794 -2.45 0
M  V30 26 H -2.4364 0.0552 2.262 0
M  V30 27 H -1.2701 -2.7516 0.3059 0
M  V30 28 H -9.0E-4 -1.8514 1.2356 0
M  V30 29 H -1.6285 -2.1381 1.9426 0
M  V30 30 H -2.7224 2.828 -1.0021 0
M  V30 31 H -3.5678 2.2149 2.5685 0
M  V30 32 H -3.6878 3.379 1.2086 0
M  V30 END ATOM
M  V30 BEGIN BOND
M  V30 1 1 1 2
M  V30 2 2 2 3
M  V30 3 1 2 4
M  V30 4 1 3 5
M  V30 5 1 3 6
M  V30 6 2 4 7
M  V30 7 1 5 8
M  V30 8 2 6 9
M  V30 9 2 8 10
M  V30 10 2 8 11
M  V30 11 1 8 12
M  V30 12 2 12 13
M  V30 13 1 12 14
M  V30 14 1 13 15
M  V30 15 1 13 16
M  V30 16 2 14 17
M  V30 17 2 15 18
M  V30 18 1 18 19
M  V30 19 1 7 9
M  V30 20 1 17 18
M  V30 21 1 4 20
M  V30 22 1 5 21
M  V30 23 1 6 22
M  V30 24 1 7 23
M  V30 25 1 9 24
M  V30 26 1 14 25
M  V30 27 1 15 26
M  V30 28 1 16 27
M  V30 29 1 16 28
M  V30 30 1 16 29
M  V30 31 1 17 30
M  V30 32 1 19 31
M  V30 33 1 19 32
M  V30 END BOND
M  V30 END CTAB
M  END
>  <Structure No>
6537

>  <LogS>
-5.05

>  <MMFF94 Energy>
1.5684

$$$$
Compound 6538
Actelion Java MolfileCreator 2.0

  0  0  0  0  0  0              0 V3000
M  V30 BEGIN CTAB
M  V30 COUNTS 41 43 0 0 0
M  V30 BEGIN ATOM
M  V30 1 Cl 1.9634 -1.7997 -2.7824 0
M  V30 2 C 1.9963 -0.7031 -1.4105 0
M  V30 3 C 3.1732 -0.0126 -1.0543 0
M  V30 4 C 0.8473 -0.4993 -0.65 0
M  V30 5 O 4.3298 -0.2203 -1.8221 0
M  V30 6 C 3.1573 0.8674 0.062 0
M  V30 7 O -0.3983 -1.0828 -0.8491 0
M  V30 8 C 0.8413 0.3461 0.4216 0
M  V30 9 C 5.5838 0.4083 -1.5781 0
M  V30 10 C 1.9751 1.0556 0.8162 0
M  V30 11 C -1.3384 -0.6366 0.1415 0 CFG=1
M  V30 12 C -0.5019 0.3186 0.9628 0
M  V30 13 O 1.9026 1.9123 1.9243 0
M  V30 14 C -2.4706 0.1178 -0.5275 0
M  V30 15 C -1.8318 -1.8469 0.9877 0 CFG=1
M  V30 16 O -0.9082 1.0111 1.934 0
M  V30 17 C 2.9948 2.683 2.4136 0
M  V30 18 O -2.1656 0.8358 -1.6974 0
M  V30 19 C -3.7052 0.1273 0.0127 0
M  V30 20 C -2.9653 -1.427 1.946 0
M  V30 21 C -2.285 -3.0175 0.0951 0
M  V30 22 C -3.0961 1.6103 -2.4483 0
M  V30 23 C -4.0228 -0.6346 1.2329 0
M  V30 24 O -5.1888 -0.5872 1.707 0
M  V30 25 H 4.0551 1.3994 0.3388 0
M  V30 26 H 6.3162 0.0616 -2.3355 0
M  V30 27 H 5.481 1.5109 -1.662 0
M  V30 28 H 5.9587 0.1338 -0.5695 0
M  V30 29 H -0.9838 -2.2222 1.604 0
M  V30 30 H 3.345 3.3885 1.6306 0
M  V30 31 H 2.6598 3.2678 3.2946 0
M  V30 32 H 3.8247 2.0143 2.7249 0
M  V30 33 H -4.5074 0.6843 -0.4516 0
M  V30 34 H -3.4213 -2.3247 2.4183 0
M  V30 35 H -2.5519 -0.8052 2.7673 0
M  V30 36 H -2.6366 -3.8646 0.7218 0
M  V30 37 H -3.1101 -2.7087 -0.5811 0
M  V30 38 H -1.4377 -3.3869 -0.5201 0
M  V30 39 H -3.5014 2.4331 -1.8221 0
M  V30 40 H -3.9214 0.9648 -2.8162 0
M  V30 41 H -2.576 2.0534 -3.3219 0
M  V30 END ATOM
M  V30 BEGIN BOND
M  V30 1 1 1 2
M  V30 2 2 2 3
M  V30 3 1 2 4
M  V30 4 1 3 5
M  V30 5 1 3 6
M  V30 6 1 4 7
M  V30 7 2 4 8
M  V30 8 1 5 9
M  V30 9 2 6 10
M  V30 10 1 7 11
M  V30 11 1 8 12
M  V30 12 1 10 13
M  V30 13 1 11 14
M  V30 14 1 11 15
M  V30 15 2 12 16
M  V30 16 1 13 17
M  V30 17 1 14 18
M  V30 18 2 14 19
M  V30 19 1 15 20
M  V30 20 1 15 21
M  V30 21 1 18 22
M  V30 22 1 19 23
M  V30 23 2 23 24
M  V30 24 1 8 10
M  V30 25 1 11 12
M  V30 26 1 20 23
M  V30 27 1 6 25
M  V30 28 1 9 26
M  V30 29 1 9 27
M  V30 30 1 9 28
M  V30 31 1 15 29
M  V30 32 1 17 30
M  V30 33 1 17 31
M  V30 34 1 17 32
M  V30 35 1 19 33
M  V30 36 1 20 34
M  V30 37 1 20 35
M  V30 38 1 21 36
M  V30 39 1 21 37
M  V30 40 1 21 38
M  V30 41 1 22 39
M  V30 42 1 22 40
M  V30 43 1 22 41
M  V30 END BOND
M  V30 BEGIN COLLECTION
M  V30 MDLV30/STEABS ATOMS=(2 11 15)
M  V30 END COLLECTION
M  V30 END CTAB
M  END
>  <Structure No>
6538

>  <LogS>
-3.97

>  <MMFF94 Energy>
106.29

$$$$
Compound 6539
Actelion Java MolfileCreator 2.0

  0  0  0  0  0  0              0 V3000
M  V30 BEGIN CTAB
M  V30 COUNTS 22 23 0 0 0
M  V30 BEGIN ATOM
M  V30 1 Cl -0.6313 2.1658 -1.7143 0
M  V30 2 C -1.4611 1.0135 -0.6734 0
M  V30 3 C -0.7499 0.0381 0.0548 0
M  V30 4 C -2.8554 1.0789 -0.5766 0
M  V30 5 C 0.7239 -0.037 -0.0422 0
M  V30 6 C -1.455 -0.8648 0.8765 0
M  V30 7 C -3.5483 0.181 0.2393 0
M  V30 8 C 1.5331 0.6993 0.8469 0
M  V30 9 C 1.3309 -0.8457 -1.0246 0
M  V30 10 Cl -0.6174 -2.1023 1.8074 0
M  V30 11 C -2.8493 -0.7877 0.9636 0
M  V30 12 Cl -5.2965 0.2703 0.3545 0
M  V30 13 Cl 0.828 1.7247 2.0925 0
M  V30 14 C 2.9267 0.6234 0.7492 0
M  V30 15 Cl 0.3684 -1.7859 -2.1601 0
M  V30 16 C 2.7257 -0.912 -1.1106 0
M  V30 17 C 3.5221 -0.1797 -0.2265 0
M  V30 18 Cl 5.2702 -0.269 -0.3417 0
M  V30 19 H -3.4008 1.8285 -1.1363 0
M  V30 20 H -3.3899 -1.4818 1.595 0
M  V30 21 H 3.5474 1.1894 1.4326 0
M  V30 22 H 3.191 -1.5333 -1.8655 0
M  V30 END ATOM
M  V30 BEGIN BOND
M  V30 1 1 1 2
M  V30 2 2 2 3
M  V30 3 1 2 4
M  V30 4 1 3 5
M  V30 5 1 3 6
M  V30 6 2 4 7
M  V30 7 2 5 8
M  V30 8 1 5 9
M  V30 9 1 6 10
M  V30 10 2 6 11
M  V30 11 1 7 12
M  V30 12 1 8 13
M  V30 13 1 8 14
M  V30 14 1 9 15
M  V30 15 2 9 16
M  V30 16 2 14 17
M  V30 17 1 17 18
M  V30 18 1 7 11
M  V30 19 1 16 17
M  V30 20 1 4 19
M  V30 21 1 11 20
M  V30 22 1 14 21
M  V30 23 1 16 22
M  V30 END BOND
M  V30 END CTAB
M  END
>  <Structure No>
6539

>  <LogS>
-8.71

>  <MMFF94 Energy>
11.357

$$$$
Compound 6540
Actelion Java MolfileCreator 2.0

  0  0  0  0  0  0              0 V3000
M  V30 BEGIN CTAB
M  V30 COUNTS 44 45 0 0 0
M  V30 BEGIN ATOM
M  V30 1 O -2.3085 -1.2731 1.1139 0
M  V30 2 C -1.3766 -0.6904 0.4945 0
M  V30 3 N -1.3689 0.677 0.3279 0
M  V30 4 C -0.3264 -1.4188 -0.0425 0
M  V30 5 C -0.3496 1.2839 -0.3792 0
M  V30 6 C -2.4713 1.4938 0.8491 0
M  V30 7 C 0.662 -0.791 -0.7173 0
M  V30 8 C 0.0024 -2.7594 -0.0693 0
M  V30 9 N 0.6772 0.5488 -0.9028 0
M  V30 10 O -3.6011 1.3623 -0.0068 0
M  V30 11 N 1.5633 -1.688 -1.1444 0
M  V30 12 N 1.1691 -2.8957 -0.751 0
M  V30 13 C -4.8246 1.9837 0.2565 0
M  V30 14 C 2.7861 -1.4202 -1.8943 0
M  V30 15 O -4.9713 2.7122 1.2758 0
M  V30 16 C -5.9851 1.74 -0.6576 0
M  V30 17 O 3.6681 -0.6091 -1.1226 0
M  V30 18 C -6.874 0.5974 -0.1505 0
M  V30 19 C 4.2818 -1.0542 0.0527 0
M  V30 20 C -6.1735 -0.7599 -0.216 0
M  V30 21 O 4.1171 -2.2371 0.4588 0
M  V30 22 C 5.1816 -0.1286 0.8074 0
M  V30 23 C 6.6082 -0.2047 0.2578 0
M  V30 24 C 7.5399 0.7399 1.0112 0
M  V30 25 H -0.3494 2.3563 -0.5307 0
M  V30 26 H -2.7367 1.1611 1.877 0
M  V30 27 H -2.1774 2.565 0.9145 0
M  V30 28 H -0.5546 -3.5758 0.3705 0
M  V30 29 H 3.2887 -2.3733 -2.168 0
M  V30 30 H 2.5303 -0.8835 -2.8319 0
M  V30 31 H -6.5935 2.6678 -0.724 0
M  V30 32 H -5.6144 1.5098 -1.6798 0
M  V30 33 H -7.1944 0.8001 0.8948 0
M  V30 34 H -7.7877 0.5529 -0.7817 0
M  V30 35 H -5.832 -0.97 -1.2517 0
M  V30 36 H -5.3017 -0.7834 0.4709 0
M  V30 37 H -6.8826 -1.557 0.0919 0
M  V30 38 H 4.7947 0.9091 0.7107 0
M  V30 39 H 5.1752 -0.4025 1.8853 0
M  V30 40 H 6.9927 -1.2437 0.3562 0
M  V30 41 H 6.6104 0.0711 -0.8195 0
M  V30 42 H 7.5755 0.4694 2.0881 0
M  V30 43 H 8.565 0.6637 0.5918 0
M  V30 44 H 7.1909 1.7895 0.9079 0
M  V30 END ATOM
M  V30 BEGIN BOND
M  V30 1 2 1 2
M  V30 2 1 2 3
M  V30 3 1 2 4
M  V30 4 1 3 5
M  V30 5 1 3 6
M  V30 6 2 4 7
M  V30 7 1 4 8
M  V30 8 2 5 9
M  V30 9 1 6 10
M  V30 10 1 7 11
M  V30 11 2 8 12
M  V30 12 1 10 13
M  V30 13 1 11 14
M  V30 14 2 13 15
M  V30 15 1 13 16
M  V30 16 1 14 17
M  V30 17 1 16 18
M  V30 18 1 17 19
M  V30 19 1 18 20
M  V30 20 2 19 21
M  V30 21 1 19 22
M  V30 22 1 22 23
M  V30 23 1 23 24
M  V30 24 1 7 9
M  V30 25 1 11 12
M  V30 26 1 5 25
M  V30 27 1 6 26
M  V30 28 1 6 27
M  V30 29 1 8 28
M  V30 30 1 14 29
M  V30 31 1 14 30
M  V30 32 1 16 31
M  V30 33 1 16 32
M  V30 34 1 18 33
M  V30 35 1 18 34
M  V30 36 1 20 35
M  V30 37 1 20 36
M  V30 38 1 20 37
M  V30 39 1 22 38
M  V30 40 1 22 39
M  V30 41 1 23 40
M  V30 42 1 23 41
M  V30 43 1 24 42
M  V30 44 1 24 43
M  V30 45 1 24 44
M  V30 END BOND
M  V30 END CTAB
M  END
>  <Structure No>
6540

>  <LogS>
-3.83

>  <MMFF94 Energy>
-70.273

$$$$
Compound 6541
Actelion Java MolfileCreator 2.0

  0  0  0  0  0  0              0 V3000
M  V30 BEGIN CTAB
M  V30 COUNTS 79 83 0 0 0
M  V30 BEGIN ATOM
M  V30 1 F -1.948 -2.1917 -0.3244 0
M  V30 2 C -2.8805 -1.1665 -0.4653 0 CFG=2
M  V30 3 C -4.3497 -1.8241 -0.4294 0 CFG=2
M  V30 4 C -2.5437 -0.4685 -1.8455 0 CFG=2
M  V30 5 C -2.6295 -0.2291 0.7752 0 CFG=1
M  V30 6 C -4.9761 -1.6736 0.9738 0
M  V30 7 C -4.2516 -3.2878 -0.8644 0
M  V30 8 C -5.3657 -1.1793 -1.408 0
M  V30 9 O -2.4493 -1.4568 -2.8411 0
M  V30 10 C -1.2277 0.3749 -1.8588 0
M  V30 11 C -1.3024 0.5353 0.6167 0 CFG=1
M  V30 12 C -3.8724 0.6048 1.1166 0
M  V30 13 C -5.6156 -2.6875 1.579 0
M  V30 14 C -4.9718 -0.3195 1.6584 0
M  V30 15 C -4.8771 -4.2832 -0.2352 0
M  V30 16 C -1.1639 1.3903 -0.682 0 CFG=1
M  V30 17 C -0.6603 1.3127 1.802 0
M  V30 18 C -5.627 -4.0278 0.9926 0
M  V30 19 C 0.2139 2.061 -0.3458 0 CFG=2
M  V30 20 C -2.2522 2.5021 -0.8917 0
M  V30 21 C -0.0553 2.498 1.0633 0 CFG=2
M  V30 22 O -6.2566 -4.9611 1.5566 0
M  V30 23 O 0.5842 3.2931 -0.897 0
M  V30 24 C 1.3987 1.0922 -0.582 0
M  V30 25 O 1.0847 3.201 1.4082 0
M  V30 26 C 1.3013 3.9269 0.1852 0
M  V30 27 O 1.746 0.8998 -1.7386 0
M  V30 28 C 2.1796 0.4005 0.5196 0
M  V30 29 C 2.8053 3.9716 -0.1285 0
M  V30 30 C 0.7908 5.3696 0.3411 0
M  V30 31 O 3.5051 0.0954 0.0878 0
M  V30 32 C 3.8242 -1.0214 -0.6937 0
M  V30 33 O 2.9479 -1.885 -0.9717 0
M  V30 34 C 5.2321 -1.2027 -1.1829 0
M  V30 35 C 6.1713 -1.89 -0.1524 0
M  V30 36 C 5.6549 -3.301 0.201 0
M  V30 37 C 7.5732 -2.0209 -0.7817 0
M  V30 38 C 6.2853 -1.0458 1.1351 0
M  V30 39 H -3.3705 0.2105 -2.1182 0
M  V30 40 H -2.4597 -0.8917 1.6577 0
M  V30 41 H -3.7235 -3.5224 -1.7804 0
M  V30 42 H -6.3693 -1.6425 -1.2818 0
M  V30 43 H -5.0746 -1.3388 -2.4681 0
M  V30 44 H -5.4846 -0.0922 -1.2289 0
M  V30 45 H -2.541 -0.9995 -3.7179 0
M  V30 46 H -0.3869 -0.3477 -1.8152 0
M  V30 47 H -1.1396 0.9218 -2.8228 0
M  V30 48 H -0.5836 -0.3084 0.5019 0
M  V30 49 H -3.6377 1.3717 1.8842 0
M  V30 50 H -4.256 1.1294 0.2226 0
M  V30 51 H -6.1055 -2.5341 2.5343 0
M  V30 52 H -4.7926 -0.4621 2.7477 0
M  V30 53 H -5.9653 0.1635 1.5365 0
M  V30 54 H -4.8201 -5.2898 -0.6304 0
M  V30 55 H -1.4217 1.6446 2.5395 0
M  V30 56 H 0.1109 0.7162 2.3335 0
M  V30 57 H -2.6662 2.8857 0.0608 0
M  V30 58 H -1.8286 3.3594 -1.4547 0
M  V30 59 H -3.1228 2.1847 -1.4872 0
M  V30 60 H -0.872 3.256 1.1262 0
M  V30 61 H 1.6644 -0.5294 0.8381 0
M  V30 62 H 2.2694 1.0566 1.4049 0
M  V30 63 H 2.9791 4.4661 -1.1082 0
M  V30 64 H 3.2404 2.9551 -0.1722 0
M  V30 65 H 3.3481 4.5353 0.6606 0
M  V30 66 H 1.2791 5.8612 1.2096 0
M  V30 67 H -0.3071 5.3861 0.5007 0
M  V30 68 H 1.0082 5.9582 -0.5761 0
M  V30 69 H 5.2079 -1.7986 -2.1225 0
M  V30 70 H 5.6366 -0.2015 -1.4502 0
M  V30 71 H 6.3668 -3.8192 0.8801 0
M  V30 72 H 5.5376 -3.9161 -0.7175 0
M  V30 73 H 4.6723 -3.2487 0.716 0
M  V30 74 H 8.2797 -2.5111 -0.0768 0
M  V30 75 H 7.9816 -1.0201 -1.0415 0
M  V30 76 H 7.5311 -2.6311 -1.7099 0
M  V30 77 H 5.3149 -1.003 1.6723 0
M  V30 78 H 6.6031 -0.0076 0.8962 0
M  V30 79 H 7.0332 -1.4888 1.8287 0
M  V30 END ATOM
M  V30 BEGIN BOND
M  V30 1 1 1 2
M  V30 2 1 2 3
M  V30 3 1 2 4
M  V30 4 1 2 5
M  V30 5 1 3 6
M  V30 6 1 3 7
M  V30 7 1 3 8
M  V30 8 1 4 9
M  V30 9 1 4 10
M  V30 10 1 5 11
M  V30 11 1 5 12
M  V30 12 2 6 13
M  V30 13 1 6 14
M  V30 14 2 7 15
M  V30 15 1 10 16
M  V30 16 1 11 17
M  V30 17 1 13 18
M  V30 18 1 16 19
M  V30 19 1 16 20
M  V30 20 1 17 21
M  V30 21 2 18 22
M  V30 22 1 19 23
M  V30 23 1 19 24
M  V30 24 1 21 25
M  V30 25 1 23 26
M  V30 26 2 24 27
M  V30 27 1 24 28
M  V30 28 1 26 29
M  V30 29 1 26 30
M  V30 30 1 28 31
M  V30 31 1 31 32
M  V30 32 2 32 33
M  V30 33 1 32 34
M  V30 34 1 34 35
M  V30 35 1 35 36
M  V30 36 1 35 37
M  V30 37 1 35 38
M  V30 38 1 11 16
M  V30 39 1 12 14
M  V30 40 1 15 18
M  V30 41 1 19 21
M  V30 42 1 25 26
M  V30 43 1 4 39
M  V30 44 1 5 40
M  V30 45 1 7 41
M  V30 46 1 8 42
M  V30 47 1 8 43
M  V30 48 1 8 44
M  V30 49 1 9 45
M  V30 50 1 10 46
M  V30 51 1 10 47
M  V30 52 1 11 48
M  V30 53 1 12 49
M  V30 54 1 12 50
M  V30 55 1 13 51
M  V30 56 1 14 52
M  V30 57 1 14 53
M  V30 58 1 15 54
M  V30 59 1 17 55
M  V30 60 1 17 56
M  V30 61 1 20 57
M  V30 62 1 20 58
M  V30 63 1 20 59
M  V30 64 1 21 60
M  V30 65 1 28 61
M  V30 66 1 28 62
M  V30 67 1 29 63
M  V30 68 1 29 64
M  V30 69 1 29 65
M  V30 70 1 30 66
M  V30 71 1 30 67
M  V30 72 1 30 68
M  V30 73 1 34 69
M  V30 74 1 34 70
M  V30 75 1 36 71
M  V30 76 1 36 72
M  V30 77 1 36 73
M  V30 78 1 37 74
M  V30 79 1 37 75
M  V30 80 1 37 76
M  V30 81 1 38 77
M  V30 82 1 38 78
M  V30 83 1 38 79
M  V30 END BOND
M  V30 BEGIN COLLECTION
M  V30 MDLV30/STEABS ATOMS=(8 2 3 4 5 11 16 19 21)
M  V30 END COLLECTION
M  V30 END CTAB
M  END
>  <Structure No>
6541

>  <LogS>
-5.12

>  <MMFF94 Energy>
200.76

$$$$
Compound 6542
Actelion Java MolfileCreator 2.0

  0  0  0  0  0  0              0 V3000
M  V30 BEGIN CTAB
M  V30 COUNTS 32 34 0 0 0
M  V30 BEGIN ATOM
M  V30 1 O 3.7423 -3.4979 -0.65 0
M  V30 2 N 2.5863 -3.0338 -0.738 0 CHG=1
M  V30 3 O 1.5619 -3.8745 -1.1093 0 CHG=-1
M  V30 4 C 2.3288 -1.6454 -0.4563 0
M  V30 5 C 1.0272 -1.1288 -0.5584 0
M  V30 6 C 3.3696 -0.7895 -0.0676 0
M  V30 7 C 0.7528 0.2242 -0.2799 0
M  V30 8 C 3.1177 0.5562 0.1958 0
M  V30 9 C -0.669 0.6851 -0.3244 0
M  V30 10 C 1.825 1.0845 0.0726 0
M  V30 11 N -1.0065 1.8029 -0.9027 0
M  V30 12 C -1.7463 -0.1485 0.2717 0
M  V30 13 N 1.6355 2.4854 0.3374 0
M  V30 14 C -0.0808 2.7418 -1.519 0
M  V30 15 C -3.0462 -0.1265 -0.2692 0
M  V30 16 C -1.4942 -0.9506 1.4016 0
M  V30 17 C 0.7951 3.3262 -0.4605 0
M  V30 18 C -4.0623 -0.9032 0.296 0
M  V30 19 C -2.5141 -1.7249 1.9628 0
M  V30 20 O 0.7901 4.5707 -0.2625 0
M  V30 21 C -3.7962 -1.7029 1.4096 0
M  V30 22 H 0.2164 -1.7841 -0.8519 0
M  V30 23 H 4.3825 -1.1592 0.0277 0
M  V30 24 H 3.941 1.1991 0.4821 0
M  V30 25 H 2.2855 2.9547 1.0085 0
M  V30 26 H 0.5349 2.2285 -2.2888 0
M  V30 27 H -0.6639 3.5442 -2.0192 0
M  V30 28 H -3.2734 0.4812 -1.1362 0
M  V30 29 H -0.513 -0.9693 1.8592 0
M  V30 30 H -5.057 -0.8852 -0.1302 0
M  V30 31 H -2.311 -2.3392 2.8306 0
M  V30 32 H -4.5845 -2.3028 1.8461 0
M  V30 END ATOM
M  V30 BEGIN BOND
M  V30 1 2 1 2
M  V30 2 1 2 3
M  V30 3 1 2 4
M  V30 4 2 4 5
M  V30 5 1 4 6
M  V30 6 1 5 7
M  V30 7 2 6 8
M  V30 8 1 7 9
M  V30 9 2 7 10
M  V30 10 2 9 11
M  V30 11 1 9 12
M  V30 12 1 10 13
M  V30 13 1 11 14
M  V30 14 2 12 15
M  V30 15 1 12 16
M  V30 16 1 13 17
M  V30 17 1 15 18
M  V30 18 2 16 19
M  V30 19 2 17 20
M  V30 20 2 18 21
M  V30 21 1 8 10
M  V30 22 1 14 17
M  V30 23 1 19 21
M  V30 24 1 5 22
M  V30 25 1 6 23
M  V30 26 1 8 24
M  V30 27 1 13 25
M  V30 28 1 14 26
M  V30 29 1 14 27
M  V30 30 1 15 28
M  V30 31 1 16 29
M  V30 32 1 18 30
M  V30 33 1 19 31
M  V30 34 1 21 32
M  V30 END BOND
M  V30 END CTAB
M  END
>  <Structure No>
6542

>  <LogS>
-3.8

>  <MMFF94 Energy>
128.63

$$$$
Compound 6543
Actelion Java MolfileCreator 2.0

  0  0  0  0  0  0              0 V3000
M  V30 BEGIN CTAB
M  V30 COUNTS 34 35 0 0 0
M  V30 BEGIN ATOM
M  V30 1 S 1.3805 -0.8931 2.5998 0
M  V30 2 O 0.6615 -0.0503 3.616 0
M  V30 3 O 2.449 -1.6921 3.2904 0
M  V30 4 N 0.2431 -1.9706 1.8588 0
M  V30 5 C 2.1278 0.1226 1.3711 0
M  V30 6 C -0.8373 -1.4892 1.0503 0
M  V30 7 C 2.4696 -0.4239 0.1271 0
M  V30 8 C 2.3806 1.4778 1.6255 0
M  V30 9 N -1.0239 -0.155 0.874 0
M  V30 10 C -1.701 -2.3873 0.4243 0
M  V30 11 C 3.0513 0.3791 -0.8583 0
M  V30 12 C 2.9633 2.2809 0.6402 0
M  V30 13 C -2.0338 0.327 0.1047 0
M  V30 14 C -2.7344 -1.8846 -0.3634 0
M  V30 15 C 3.3002 1.7358 -0.6068 0
M  V30 16 O -2.1544 1.5742 -0.0352 0
M  V30 17 N -2.904 -0.5361 -0.5108 0
M  V30 18 N 3.8943 2.5577 -1.6148 0
M  V30 19 C -3.9873 -0.0386 -1.3734 0
M  V30 20 C -3.4864 0.1516 -2.8011 0
M  V30 21 H 0.3745 -2.9978 1.9959 0
M  V30 22 H 2.2823 -1.4697 -0.0806 0
M  V30 23 H 2.1269 1.9139 2.583 0
M  V30 24 H -1.5731 -3.4563 0.5389 0
M  V30 25 H 3.3076 -0.055 -1.8165 0
M  V30 26 H 3.1514 3.3267 0.8481 0
M  V30 27 H -3.3996 -2.5817 -0.8594 0
M  V30 28 H 4.1489 2.1607 -2.5466 0
M  V30 29 H 4.0837 3.5693 -1.4368 0
M  V30 30 H -4.8409 -0.7524 -1.3785 0
M  V30 31 H -4.3854 0.9254 -0.9875 0
M  V30 32 H -4.3144 0.5214 -3.4416 0
M  V30 33 H -2.6592 0.8922 -2.8218 0
M  V30 34 H -3.1213 -0.8147 -3.209 0
M  V30 END ATOM
M  V30 BEGIN BOND
M  V30 1 2 1 2
M  V30 2 2 1 3
M  V30 3 1 1 4
M  V30 4 1 1 5
M  V30 5 1 4 6
M  V30 6 2 5 7
M  V30 7 1 5 8
M  V30 8 2 6 9
M  V30 9 1 6 10
M  V30 10 1 7 11
M  V30 11 2 8 12
M  V30 12 1 9 13
M  V30 13 2 10 14
M  V30 14 2 11 15
M  V30 15 2 13 16
M  V30 16 1 13 17
M  V30 17 1 15 18
M  V30 18 1 17 19
M  V30 19 1 19 20
M  V30 20 1 12 15
M  V30 21 1 14 17
M  V30 22 1 4 21
M  V30 23 1 7 22
M  V30 24 1 8 23
M  V30 25 1 10 24
M  V30 26 1 11 25
M  V30 27 1 12 26
M  V30 28 1 14 27
M  V30 29 1 18 28
M  V30 30 1 18 29
M  V30 31 1 19 30
M  V30 32 1 19 31
M  V30 33 1 20 32
M  V30 34 1 20 33
M  V30 35 1 20 34
M  V30 END BOND
M  V30 END CTAB
M  END
>  <Structure No>
6543

>  <LogS>
-2.23

>  <MMFF94 Energy>
-144.35

$$$$
Compound 6544
Actelion Java MolfileCreator 2.0

  0  0  0  0  0  0              0 V3000
M  V30 BEGIN CTAB
M  V30 COUNTS 30 31 0 0 0
M  V30 BEGIN ATOM
M  V30 1 S 0.0829 -2.8227 0.0 0
M  V30 2 O 1.2374 -3.0693 -0.9306 0
M  V30 3 O -0.5512 -4.1377 0.3533 0
M  V30 4 N 0.6737 -2.0709 1.447 0 CHG=-1
M  V30 5 C -1.1246 -1.7957 -0.7665 0
M  V30 6 C 1.3091 -0.7879 1.5111 0
M  V30 7 C -1.218 -1.7327 -2.162 0
M  V30 8 C -1.9989 -1.0359 0.0196 0
M  V30 9 N 1.6725 -0.3015 2.7283 0
M  V30 10 C 1.5682 -0.0242 0.3604 0
M  V30 11 C -2.1718 -0.9094 -2.7676 0
M  V30 12 C -2.9532 -0.2114 -0.583 0
M  V30 13 C 2.2728 0.9093 2.8756 0
M  V30 14 C 2.1834 1.2223 0.4877 0
M  V30 15 C -3.0499 -0.1377 -1.9837 0
M  V30 16 C 2.5281 1.7094 1.7544 0
M  V30 17 N -4.0327 0.7127 -2.6022 0 CHG=1
M  V30 18 C 3.2257 3.0287 1.901 0
M  V30 19 O -4.1239 0.7812 -3.8455 0
M  V30 20 O -4.8889 1.4665 -1.8324 0 CHG=-1
M  V30 21 H -0.5527 -2.3187 -2.7829 0
M  V30 22 H -1.9409 -1.0794 1.0999 0
M  V30 23 H 1.3086 -0.3791 -0.6263 0
M  V30 24 H -2.2225 -0.8762 -3.8482 0
M  V30 25 H -3.615 0.3681 0.0475 0
M  V30 26 H 2.549 1.2473 3.8662 0
M  V30 27 H 2.3904 1.8068 -0.4002 0
M  V30 28 H 2.9808 3.4943 2.8794 0
M  V30 29 H 2.9103 3.7292 1.0984 0
M  V30 30 H 4.323 2.8752 1.8372 0
M  V30 END ATOM
M  V30 BEGIN BOND
M  V30 1 2 1 2
M  V30 2 2 1 3
M  V30 3 1 1 4
M  V30 4 1 1 5
M  V30 5 1 4 6
M  V30 6 2 5 7
M  V30 7 1 5 8
M  V30 8 2 6 9
M  V30 9 1 6 10
M  V30 10 1 7 11
M  V30 11 2 8 12
M  V30 12 1 9 13
M  V30 13 2 10 14
M  V30 14 2 11 15
M  V30 15 2 13 16
M  V30 16 1 15 17
M  V30 17 1 16 18
M  V30 18 2 17 19
M  V30 19 1 17 20
M  V30 20 1 12 15
M  V30 21 1 14 16
M  V30 22 1 7 21
M  V30 23 1 8 22
M  V30 24 1 10 23
M  V30 25 1 11 24
M  V30 26 1 12 25
M  V30 27 1 13 26
M  V30 28 1 14 27
M  V30 29 1 18 28
M  V30 30 1 18 29
M  V30 31 1 18 30
M  V30 END BOND
M  V30 END CTAB
M  END
>  <Structure No>
6544

>  <LogS>
-4.29

>  <MMFF94 Energy>
87.625

$$$$
Compound 6545
Actelion Java MolfileCreator 2.0

  0  0  0  0  0  0              0 V3000
M  V30 BEGIN CTAB
M  V30 COUNTS 118 125 0 0 0
M  V30 BEGIN ATOM
M  V30 1 O -13.8282 -0.4856 -1.1333 0
M  V30 2 C -13.0055 -0.2347 -0.2161 0
M  V30 3 O -13.2245 0.6846 0.788 0
M  V30 4 C -11.7078 -0.8456 -0.0647 0
M  V30 5 C -12.0821 0.7106 1.6373 0
M  V30 6 C -11.148 -0.2949 1.0112 0
M  V30 7 C -9.7789 -0.6163 1.5834 0 CFG=2
M  V30 8 C -8.5705 0.096 0.8981 0 CFG=1
M  V30 9 C -9.4292 -2.1055 1.6467 0
M  V30 10 C -7.3626 -0.7488 1.3985 0 CFG=2
M  V30 11 C -8.6761 -0.0021 -0.6624 0
M  V30 12 C -8.5189 1.5848 1.3773 0
M  V30 13 C -7.933 -2.1957 1.3469 0
M  V30 14 O -7.1297 -0.4238 2.7542 0
M  V30 15 C -6.0119 -0.5157 0.5806 0 CFG=2
M  V30 16 C -7.3619 0.1534 -1.4622 0
M  V30 17 C -6.1273 0.4992 -0.6026 0 CFG=2
M  V30 18 C -5.3351 -1.8277 0.1182 0
M  V30 19 C -4.7688 0.7049 -1.4128 0 CFG=2
M  V30 20 C -3.961 -1.5637 -0.4754 0
M  V30 21 C -4.0652 -0.6571 -1.7205 0 CFG=2
M  V30 22 C -3.7991 1.5963 -0.5705 0
M  V30 23 C -5.0703 1.4482 -2.7499 0
M  V30 24 C -2.6706 -0.468 -2.3756 0
M  V30 25 C -2.4137 1.7957 -1.2096 0
M  V30 26 C -1.7261 0.4772 -1.604 0 CFG=1
M  V30 27 O -1.2368 -0.1815 -0.4435 0
M  V30 28 C 0.1768 -0.1675 -0.3874 0 CFG=1
M  V30 29 O 0.6245 1.1435 -0.0815 0
M  V30 30 C 0.644 -1.1425 0.714 0
M  V30 31 C 2.0259 1.2623 -0.2917 0 CFG=2
M  V30 32 C 1.9655 -0.6814 1.3625 0 CFG=1
M  V30 33 C 2.8324 0.0644 0.3279 0 CFG=2
M  V30 34 C 2.4626 2.6219 0.2636 0
M  V30 35 O 1.6767 0.1602 2.4503 0
M  V30 36 O 4.0395 0.4925 0.9446 0
M  V30 37 C 5.133 0.4552 0.042 0 CFG=1
M  V30 38 O 6.0415 1.4792 0.4272 0
M  V30 39 C 5.7861 -0.9553 0.0797 0
M  V30 40 C 7.2681 1.3482 -0.2674 0 CFG=2
M  V30 41 C 7.1026 -0.9256 0.866 0 CFG=2
M  V30 42 C 8.0644 0.1318 0.2752 0 CFG=1
M  V30 43 C 8.0617 2.647 -0.1194 0
M  V30 44 O 7.7004 -2.1964 0.8496 0
M  V30 45 O 8.803 -0.4456 -0.795 0
M  V30 46 C 10.1965 -0.4002 -0.5511 0 CFG=1
M  V30 47 O 10.5158 -1.2464 0.5417 0
M  V30 48 C 10.9359 -0.8804 -1.8152 0
M  V30 49 C 11.8662 -1.0857 0.9698 0 CFG=1
M  V30 50 C 12.3237 -1.4647 -1.4795 0 CFG=2
M  V30 51 C 12.8796 -0.8366 -0.1907 0 CFG=1
M  V30 52 C 11.9512 -0.0454 2.0925 0
M  V30 53 O 13.2146 -1.2617 -2.545 0
M  V30 54 O 13.1075 0.542 -0.3702 0
M  V30 55 H -11.2864 -1.6073 -0.7066 0
M  V30 56 H -12.3627 0.4013 2.6667 0
M  V30 57 H -11.6265 1.7236 1.6357 0
M  V30 58 H -9.8144 -0.2915 2.6499 0
M  V30 59 H -9.6452 -2.5117 2.6607 0
M  V30 60 H -10.0005 -2.7086 0.9099 0
M  V30 61 H -9.0862 -0.9936 -0.942 0
M  V30 62 H -9.4226 0.7358 -1.0321 0
M  V30 63 H -8.9751 1.7159 2.382 0
M  V30 64 H -7.4903 1.9659 1.4956 0
M  V30 65 H -9.0763 2.2496 0.6834 0
M  V30 66 H -7.8405 -2.6326 0.3336 0
M  V30 67 H -7.425 -2.8747 2.0668 0
M  V30 68 H -6.4232 -1.0327 3.0971 0
M  V30 69 H -5.3016 -0.049 1.2961 0
M  V30 70 H -7.5463 0.9547 -2.208 0
M  V30 71 H -7.1607 -0.7793 -2.0328 0
M  V30 72 H -6.343 1.4975 -0.189 0
M  V30 73 H -5.9427 -2.3426 -0.6545 0
M  V30 74 H -5.2126 -2.5108 0.9869 0
M  V30 75 H -3.3199 -1.1212 0.3115 0
M  V30 76 H -3.5108 -2.5388 -0.7636 0
M  V30 77 H -4.689 -1.2074 -2.4609 0
M  V30 78 H -4.2528 2.6003 -0.4138 0
M  V30 79 H -3.6426 1.1676 0.4392 0
M  V30 80 H -4.161 1.74 -3.3067 0
M  V30 81 H -5.6455 2.381 -2.5567 0
M  V30 82 H -5.6486 0.8027 -3.4452 0
M  V30 83 H -2.1746 -1.4565 -2.4952 0
M  V30 84 H -2.8011 -0.0797 -3.4057 0
M  V30 85 H -2.4878 2.4607 -2.0944 0
M  V30 86 H -1.7658 2.3401 -0.4872 0
M  V30 87 H -0.9146 0.7515 -2.3213 0
M  V30 88 H 0.6025 -0.5286 -1.3585 0
M  V30 89 H -0.1351 -1.2482 1.5012 0
M  V30 90 H 0.7864 -2.1497 0.259 0
M  V30 91 H 2.219 1.2869 -1.3882 0
M  V30 92 H 2.5136 -1.5837 1.7225 0
M  V30 93 H 3.0297 -0.6795 -0.4838 0
M  V30 94 H 2.456 2.6092 1.3744 0
M  V30 95 H 1.7621 3.4143 -0.0804 0
M  V30 96 H 3.4822 2.8817 -0.098 0
M  V30 97 H 2.4794 0.1654 3.0352 0
M  V30 98 H 4.7993 0.6788 -1.002 0
M  V30 99 H 5.0976 -1.6994 0.5375 0
M  V30 100 H 5.9943 -1.2939 -0.9608 0
M  V30 101 H 7.0752 1.2177 -1.3607 0
M  V30 102 H 6.8716 -0.6336 1.9195 0
M  V30 103 H 8.7068 0.4684 1.1272 0
M  V30 104 H 8.2634 2.8612 0.9515 0
M  V30 105 H 9.024 2.575 -0.6684 0
M  V30 106 H 7.4785 3.4923 -0.5475 0
M  V30 107 H 7.238 -2.7421 1.5376 0
M  V30 108 H 10.4997 0.6554 -0.3431 0
M  V30 109 H 11.0387 -0.0215 -2.5149 0
M  V30 110 H 10.3362 -1.6637 -2.3303 0
M  V30 111 H 12.1583 -2.0556 1.4305 0
M  V30 112 H 12.2133 -2.5609 -1.2966 0
M  V30 113 H 13.8451 -1.3289 0.073 0
M  V30 114 H 11.6664 0.9637 1.7243 0
M  V30 115 H 12.9875 -0.0047 2.4984 0
M  V30 116 H 11.2612 -0.3266 2.917 0
M  V30 117 H 12.9463 -1.8896 -3.2654 0
M  V30 118 H 13.8852 0.6304 -0.9835 0
M  V30 END ATOM
M  V30 BEGIN BOND
M  V30 1 2 1 2
M  V30 2 1 2 3
M  V30 3 1 2 4
M  V30 4 1 3 5
M  V30 5 2 4 6
M  V30 6 1 6 7
M  V30 7 1 7 8
M  V30 8 1 7 9
M  V30 9 1 8 10
M  V30 10 1 8 11
M  V30 11 1 8 12
M  V30 12 1 9 13
M  V30 13 1 10 14
M  V30 14 1 10 15
M  V30 15 1 11 16
M  V30 16 1 15 17
M  V30 17 1 15 18
M  V30 18 1 17 19
M  V30 19 1 18 20
M  V30 20 1 19 21
M  V30 21 1 19 22
M  V30 22 1 19 23
M  V30 23 1 21 24
M  V30 24 1 22 25
M  V30 25 1 24 26
M  V30 26 1 26 27
M  V30 27 1 27 28
M  V30 28 1 28 29
M  V30 29 1 28 30
M  V30 30 1 29 31
M  V30 31 1 30 32
M  V30 32 1 31 33
M  V30 33 1 31 34
M  V30 34 1 32 35
M  V30 35 1 33 36
M  V30 36 1 36 37
M  V30 37 1 37 38
M  V30 38 1 37 39
M  V30 39 1 38 40
M  V30 40 1 39 41
M  V30 41 1 40 42
M  V30 42 1 40 43
M  V30 43 1 41 44
M  V30 44 1 42 45
M  V30 45 1 45 46
M  V30 46 1 46 47
M  V30 47 1 46 48
M  V30 48 1 47 49
M  V30 49 1 48 50
M  V30 50 1 49 51
M  V30 51 1 49 52
M  V30 52 1 50 53
M  V30 53 1 51 54
M  V30 54 1 5 6
M  V30 55 1 10 13
M  V30 56 1 16 17
M  V30 57 1 20 21
M  V30 58 1 25 26
M  V30 59 1 32 33
M  V30 60 1 41 42
M  V30 61 1 50 51
M  V30 62 1 4 55
M  V30 63 1 5 56
M  V30 64 1 5 57
M  V30 65 1 7 58
M  V30 66 1 9 59
M  V30 67 1 9 60
M  V30 68 1 11 61
M  V30 69 1 11 62
M  V30 70 1 12 63
M  V30 71 1 12 64
M  V30 72 1 12 65
M  V30 73 1 13 66
M  V30 74 1 13 67
M  V30 75 1 14 68
M  V30 76 1 15 69
M  V30 77 1 16 70
M  V30 78 1 16 71
M  V30 79 1 17 72
M  V30 80 1 18 73
M  V30 81 1 18 74
M  V30 82 1 20 75
M  V30 83 1 20 76
M  V30 84 1 21 77
M  V30 85 1 22 78
M  V30 86 1 22 79
M  V30 87 1 23 80
M  V30 88 1 23 81
M  V30 89 1 23 82
M  V30 90 1 24 83
M  V30 91 1 24 84
M  V30 92 1 25 85
M  V30 93 1 25 86
M  V30 94 1 26 87
M  V30 95 1 28 88
M  V30 96 1 30 89
M  V30 97 1 30 90
M  V30 98 1 31 91
M  V30 99 1 32 92
M  V30 100 1 33 93
M  V30 101 1 34 94
M  V30 102 1 34 95
M  V30 103 1 34 96
M  V30 104 1 35 97
M  V30 105 1 37 98
M  V30 106 1 39 99
M  V30 107 1 39 100
M  V30 108 1 40 101
M  V30 109 1 41 102
M  V30 110 1 42 103
M  V30 111 1 43 104
M  V30 112 1 43 105
M  V30 113 1 43 106
M  V30 114 1 44 107
M  V30 115 1 46 108
M  V30 116 1 48 109
M  V30 117 1 48 110
M  V30 118 1 49 111
M  V30 119 1 50 112
M  V30 120 1 51 113
M  V30 121 1 52 114
M  V30 122 1 52 115
M  V30 123 1 52 116
M  V30 124 1 53 117
M  V30 125 1 54 118
M  V30 END BOND
M  V30 BEGIN COLLECTION
M  V30 MDLV30/STEABS ATOMS=(20 7 8 10 15 17 19 21 26 28 31 32 33 37 40 41 42 46 49 50 51)
M  V30 END COLLECTION
M  V30 END CTAB
M  END
>  <Structure No>
6545

>  <LogS>
-5.29

>  <MMFF94 Energy>
168.94

$$$$
Compound 6546
Actelion Java MolfileCreator 2.0

  0  0  0  0  0  0              0 V3000
M  V30 BEGIN CTAB
M  V30 COUNTS 31 32 0 0 0
M  V30 BEGIN ATOM
M  V30 1 S -0.6571 -0.2463 2.3836 0
M  V30 2 O -1.4561 -1.0106 3.4009 0
M  V30 3 O -0.1539 1.0238 3.0109 0
M  V30 4 N 0.699 -1.2069 1.8824 0
M  V30 5 C -1.6902 0.1068 1.0022 0
M  V30 6 C 1.5986 -0.8377 0.8215 0
M  V30 7 C -2.3179 1.3547 0.8854 0
M  V30 8 C -1.8868 -0.8627 0.01 0
M  V30 9 C 1.5728 0.4401 0.2335 0
M  V30 10 C 2.5333 -1.7764 0.3611 0
M  V30 11 C -3.1284 1.6331 -0.2192 0
M  V30 12 C -2.6965 -0.5843 -1.095 0
M  V30 13 C 2.4567 0.7627 -0.8002 0
M  V30 14 C 3.4177 -1.4542 -0.6717 0
M  V30 15 C -3.3207 0.6654 -1.2156 0
M  V30 16 C 3.3879 -0.1802 -1.2654 0
M  V30 17 N -4.1485 0.9507 -2.3462 0
M  V30 18 N 4.2957 0.1561 -2.3306 0 CHG=1
M  V30 19 O 5.1262 -0.678 -2.747 0
M  V30 20 O 4.2629 1.4043 -2.9092 0 CHG=-1
M  V30 21 H 0.8132 -2.1376 2.3429 0
M  V30 22 H -2.1798 2.1122 1.6462 0
M  V30 23 H -1.4111 -1.8318 0.0902 0
M  V30 24 H 0.879 1.1977 0.5672 0
M  V30 25 H 2.5736 -2.7651 0.8008 0
M  V30 26 H -3.6059 2.6017 -0.2991 0
M  V30 27 H -2.8374 -1.3412 -1.8562 0
M  V30 28 H 2.4116 1.7533 -1.2341 0
M  V30 29 H 4.1245 -2.2027 -1.0062 0
M  V30 30 H -4.2979 0.2362 -3.0931 0
M  V30 31 H -4.6179 1.8787 -2.4445 0
M  V30 END ATOM
M  V30 BEGIN BOND
M  V30 1 2 1 2
M  V30 2 2 1 3
M  V30 3 1 1 4
M  V30 4 1 1 5
M  V30 5 1 4 6
M  V30 6 2 5 7
M  V30 7 1 5 8
M  V30 8 2 6 9
M  V30 9 1 6 10
M  V30 10 1 7 11
M  V30 11 2 8 12
M  V30 12 1 9 13
M  V30 13 2 10 14
M  V30 14 2 11 15
M  V30 15 2 13 16
M  V30 16 1 15 17
M  V30 17 1 16 18
M  V30 18 2 18 19
M  V30 19 1 18 20
M  V30 20 1 12 15
M  V30 21 1 14 16
M  V30 22 1 4 21
M  V30 23 1 7 22
M  V30 24 1 8 23
M  V30 25 1 9 24
M  V30 26 1 10 25
M  V30 27 1 11 26
M  V30 28 1 12 27
M  V30 29 1 13 28
M  V30 30 1 14 29
M  V30 31 1 17 30
M  V30 32 1 17 31
M  V30 END BOND
M  V30 END CTAB
M  END
>  <Structure No>
6546

>  <LogS>
-3.94

>  <MMFF94 Energy>
19.006

$$$$
Compound 6547
Actelion Java MolfileCreator 2.0

  0  0  0  0  0  0              0 V3000
M  V30 BEGIN CTAB
M  V30 COUNTS 36 38 0 0 0
M  V30 BEGIN ATOM
M  V30 1 Cl 1.3755 -4.131 -2.6715 0
M  V30 2 C 0.3545 -3.0257 -1.7693 0
M  V30 3 C 0.8114 -1.7417 -1.4667 0
M  V30 4 C -0.9096 -3.4326 -1.3467 0
M  V30 5 C 0.0081 -0.8394 -0.7414 0
M  V30 6 C -1.7229 -2.5546 -0.6311 0
M  V30 7 C 0.5793 0.4972 -0.3883 0
M  V30 8 C -1.2926 -1.2508 -0.335 0
M  V30 9 N -0.1422 1.5909 -0.4451 0 CHG=1
M  V30 10 C 2.0035 0.5633 0.0324 0
M  V30 11 N -2.1804 -0.4027 0.4234 0 CHG=1
M  V30 12 O 0.3831 2.793 -0.0214 0 CHG=-1
M  V30 13 C -1.5439 1.5756 -0.853 0
M  V30 14 C 2.48 -0.2954 1.0377 0
M  V30 15 C 2.8977 1.4489 -0.5944 0
M  V30 16 C -2.3501 0.8756 0.2029 0
M  V30 17 C 3.8238 -0.2551 1.4214 0
M  V30 18 C 4.2408 1.4856 -0.2074 0
M  V30 19 N -3.2786 1.6512 0.9878 0
M  V30 20 C 4.7031 0.6359 0.8008 0
M  V30 21 C -4.0971 1.0999 2.063 0
M  V30 22 H 1.7994 -1.4473 -1.8001 0
M  V30 23 H -1.2646 -4.43 -1.5725 0
M  V30 24 H -2.7032 -2.8873 -0.3127 0
M  V30 25 H -2.7769 -0.8854 1.1309 0
M  V30 26 H -1.6586 1.0619 -1.8329 0
M  V30 27 H -1.9047 2.6168 -0.9966 0
M  V30 28 H 1.8095 -0.9912 1.5275 0
M  V30 29 H 2.5594 2.0989 -1.3918 0
M  V30 30 H 4.1837 -0.9159 2.1995 0
M  V30 31 H 4.9248 2.1693 -0.6934 0
M  V30 32 H -3.3722 2.6734 0.792 0
M  V30 33 H 5.7433 0.6648 1.0981 0
M  V30 34 H -4.7769 0.3203 1.6598 0
M  V30 35 H -3.4456 0.6674 2.8513 0
M  V30 36 H -4.7136 1.9043 2.5172 0
M  V30 END ATOM
M  V30 BEGIN BOND
M  V30 1 1 1 2
M  V30 2 2 2 3
M  V30 3 1 2 4
M  V30 4 1 3 5
M  V30 5 2 4 6
M  V30 6 1 5 7
M  V30 7 2 5 8
M  V30 8 2 7 9
M  V30 9 1 7 10
M  V30 10 1 8 11
M  V30 11 1 9 12
M  V30 12 1 9 13
M  V30 13 2 10 14
M  V30 14 1 10 15
M  V30 15 2 11 16
M  V30 16 1 14 17
M  V30 17 2 15 18
M  V30 18 1 16 19
M  V30 19 2 17 20
M  V30 20 1 19 21
M  V30 21 1 6 8
M  V30 22 1 13 16
M  V30 23 1 18 20
M  V30 24 1 3 22
M  V30 25 1 4 23
M  V30 26 1 6 24
M  V30 27 1 11 25
M  V30 28 1 13 26
M  V30 29 1 13 27
M  V30 30 1 14 28
M  V30 31 1 15 29
M  V30 32 1 17 30
M  V30 33 1 18 31
M  V30 34 1 19 32
M  V30 35 1 20 33
M  V30 36 1 21 34
M  V30 37 1 21 35
M  V30 38 1 21 36
M  V30 END BOND
M  V30 END CTAB
M  END
>  <Structure No>
6547

>  <LogS>
-4.48

>  <MMFF94 Energy>
57.248

$$$$
Compound 6548
Actelion Java MolfileCreator 2.0

  0  0  0  0  0  0              0 V3000
M  V30 BEGIN CTAB
M  V30 COUNTS 29 30 0 0 0
M  V30 BEGIN ATOM
M  V30 1 Cl -1.0108 -2.191 -1.6851 0
M  V30 2 C -1.6352 -0.9365 -0.6195 0
M  V30 3 C -1.2658 -0.86 0.7395 0
M  V30 4 C -2.5261 0.0024 -1.1541 0
M  V30 5 S -0.1256 -2.0125 1.4459 0
M  V30 6 C -1.8057 0.1574 1.5415 0
M  V30 7 C -3.0569 1.0183 -0.3489 0
M  V30 8 O -0.7445 -3.3814 1.4171 0
M  V30 9 O 0.1854 -1.6561 2.873 0
M  V30 10 N 1.3496 -2.0287 0.532 0
M  V30 11 C -2.6935 1.0905 1.0009 0
M  V30 12 N -3.965 1.9749 -0.9017 0
M  V30 13 C 2.0553 -0.8394 0.1379 0
M  V30 14 C 1.8357 0.3981 0.7725 0
M  V30 15 C 2.9982 -0.9141 -0.8997 0
M  V30 16 C 2.5336 1.5373 0.3598 0
M  V30 17 C 3.6948 0.2266 -1.3097 0
M  V30 18 C 3.4614 1.4536 -0.6821 0
M  V30 19 Cl 4.3351 2.8846 -1.1976 0
M  V30 20 H -2.8061 -0.0588 -2.1986 0
M  V30 21 H -1.5374 0.2358 2.5869 0
M  V30 22 H 1.6598 -2.9511 0.1521 0
M  V30 23 H -3.0972 1.8704 1.6343 0
M  V30 24 H -4.3663 2.7358 -0.3093 0
M  V30 25 H -4.2427 1.9296 -1.9075 0
M  V30 26 H 1.1387 0.491 1.5923 0
M  V30 27 H 3.1871 -1.8567 -1.398 0
M  V30 28 H 2.3548 2.4839 0.8541 0
M  V30 29 H 4.4145 0.1552 -2.1151 0
M  V30 END ATOM
M  V30 BEGIN BOND
M  V30 1 1 1 2
M  V30 2 2 2 3
M  V30 3 1 2 4
M  V30 4 1 3 5
M  V30 5 1 3 6
M  V30 6 2 4 7
M  V30 7 2 5 8
M  V30 8 2 5 9
M  V30 9 1 5 10
M  V30 10 2 6 11
M  V30 11 1 7 12
M  V30 12 1 10 13
M  V30 13 2 13 14
M  V30 14 1 13 15
M  V30 15 1 14 16
M  V30 16 2 15 17
M  V30 17 2 16 18
M  V30 18 1 18 19
M  V30 19 1 7 11
M  V30 20 1 17 18
M  V30 21 1 4 20
M  V30 22 1 6 21
M  V30 23 1 10 22
M  V30 24 1 11 23
M  V30 25 1 12 24
M  V30 26 1 12 25
M  V30 27 1 14 26
M  V30 28 1 15 27
M  V30 29 1 16 28
M  V30 30 1 17 29
M  V30 END BOND
M  V30 END CTAB
M  END
>  <Structure No>
6548

>  <LogS>
-4.59

>  <MMFF94 Energy>
-35.772

$$$$
Compound 6549
Actelion Java MolfileCreator 2.0

  0  0  0  0  0  0              0 V3000
M  V30 BEGIN CTAB
M  V30 COUNTS 29 30 0 0 0
M  V30 BEGIN ATOM
M  V30 1 Cl 2.1062 1.8533 -3.4559 0
M  V30 2 C 2.2664 1.5288 -1.7338 0
M  V30 3 C 1.9037 0.2833 -1.1755 0
M  V30 4 C 2.7401 2.5561 -0.9088 0
M  V30 5 N 1.4109 -0.7767 -2.0165 0
M  V30 6 C 2.0415 0.0952 0.2136 0
M  V30 7 C 2.8607 2.358 0.4673 0
M  V30 8 S 0.3791 -2.046 -1.4366 0
M  V30 9 C 2.5122 1.1286 1.029 0
M  V30 10 O -0.296 -2.7105 -2.6027 0
M  V30 11 O 1.2124 -3.063 -0.7077 0
M  V30 12 C -0.8575 -1.3749 -0.3772 0
M  V30 13 Cl 2.6674 0.8791 2.7585 0
M  V30 14 C -1.1674 -1.9948 0.8412 0
M  V30 15 C -1.5279 -0.2017 -0.7474 0
M  V30 16 C -2.1357 -1.4415 1.6847 0
M  V30 17 C -2.4955 0.3519 0.0959 0
M  V30 18 C -2.8036 -0.2648 1.3168 0
M  V30 19 N -3.7922 0.3021 2.1806 0
M  V30 20 H 3.011 3.5139 -1.3345 0
M  V30 21 H 1.583 -0.7499 -3.0451 0
M  V30 22 H 1.7957 -0.8529 0.6704 0
M  V30 23 H 3.2259 3.1604 1.0956 0
M  V30 24 H -0.6597 -2.902 1.1417 0
M  V30 25 H -1.2967 0.2867 -1.6855 0
M  V30 26 H -2.3645 -1.9282 2.6244 0
M  V30 27 H -3.0035 1.261 -0.2004 0
M  V30 28 H -4.2948 1.1784 1.9154 0
M  V30 29 H -4.0284 -0.1499 3.092 0
M  V30 END ATOM
M  V30 BEGIN BOND
M  V30 1 1 1 2
M  V30 2 2 2 3
M  V30 3 1 2 4
M  V30 4 1 3 5
M  V30 5 1 3 6
M  V30 6 2 4 7
M  V30 7 1 5 8
M  V30 8 2 6 9
M  V30 9 2 8 10
M  V30 10 2 8 11
M  V30 11 1 8 12
M  V30 12 1 9 13
M  V30 13 2 12 14
M  V30 14 1 12 15
M  V30 15 1 14 16
M  V30 16 2 15 17
M  V30 17 2 16 18
M  V30 18 1 18 19
M  V30 19 1 7 9
M  V30 20 1 17 18
M  V30 21 1 4 20
M  V30 22 1 5 21
M  V30 23 1 6 22
M  V30 24 1 7 23
M  V30 25 1 14 24
M  V30 26 1 15 25
M  V30 27 1 16 26
M  V30 28 1 17 27
M  V30 29 1 19 28
M  V30 30 1 19 29
M  V30 END BOND
M  V30 END CTAB
M  END
>  <Structure No>
6549

>  <LogS>
-4.4

>  <MMFF94 Energy>
-6.905

$$$$
Compound 6550
Actelion Java MolfileCreator 2.0

  0  0  0  0  0  0              0 V3000
M  V30 BEGIN CTAB
M  V30 COUNTS 29 30 0 0 0
M  V30 BEGIN ATOM
M  V30 1 Cl -2.1072 2.8666 0.8425 0
M  V30 2 C -3.0605 1.456 0.3766 0
M  V30 3 C -4.4499 1.5892 0.1898 0
M  V30 4 C -2.4377 0.2048 0.1619 0
M  V30 5 Cl -5.2642 3.1295 0.4374 0
M  V30 6 C -5.2125 0.4858 -0.2026 0
M  V30 7 N -1.0208 0.0513 0.3661 0
M  V30 8 C -3.2271 -0.8934 -0.2275 0
M  V30 9 C -4.6031 -0.7503 -0.4098 0
M  V30 10 S -0.0711 -1.162 -0.4324 0
M  V30 11 O -0.22 -2.4656 0.3012 0
M  V30 12 O -0.5315 -1.3257 -1.8539 0
M  V30 13 C 1.6163 -0.6602 -0.4434 0
M  V30 14 C 1.9491 0.6478 -0.8204 0
M  V30 15 C 2.6331 -1.559 -0.0911 0
M  V30 16 C 3.2858 1.0573 -0.837 0
M  V30 17 C 3.9702 -1.1497 -0.108 0
M  V30 18 C 4.303 0.1607 -0.48 0
M  V30 19 N 5.6703 0.579 -0.4972 0
M  V30 20 H -6.281 0.5853 -0.3463 0
M  V30 21 H -0.5036 0.7291 0.9678 0
M  V30 22 H -2.7877 -1.8699 -0.3756 0
M  V30 23 H -5.2001 -1.6028 -0.7078 0
M  V30 24 H 1.1737 1.3497 -1.1014 0
M  V30 25 H 2.3951 -2.5753 0.1949 0
M  V30 26 H 3.5288 2.0715 -1.1286 0
M  V30 27 H 4.7461 -1.8528 0.1674 0
M  V30 28 H 5.9279 1.553 -0.7734 0
M  V30 29 H 6.4349 -0.0817 -0.2335 0
M  V30 END ATOM
M  V30 BEGIN BOND
M  V30 1 1 1 2
M  V30 2 2 2 3
M  V30 3 1 2 4
M  V30 4 1 3 5
M  V30 5 1 3 6
M  V30 6 1 4 7
M  V30 7 2 4 8
M  V30 8 2 6 9
M  V30 9 1 7 10
M  V30 10 2 10 11
M  V30 11 2 10 12
M  V30 12 1 10 13
M  V30 13 2 13 14
M  V30 14 1 13 15
M  V30 15 1 14 16
M  V30 16 2 15 17
M  V30 17 2 16 18
M  V30 18 1 18 19
M  V30 19 1 8 9
M  V30 20 1 17 18
M  V30 21 1 6 20
M  V30 22 1 7 21
M  V30 23 1 8 22
M  V30 24 1 9 23
M  V30 25 1 14 24
M  V30 26 1 15 25
M  V30 27 1 16 26
M  V30 28 1 17 27
M  V30 29 1 19 28
M  V30 30 1 19 29
M  V30 END BOND
M  V30 END CTAB
M  END
>  <Structure No>
6550

>  <LogS>
-4.73

>  <MMFF94 Energy>
2.8178

$$$$
Compound 6551
Actelion Java MolfileCreator 2.0

  0  0  0  0  0  0              0 V3000
M  V30 BEGIN CTAB
M  V30 COUNTS 44 46 0 0 0
M  V30 BEGIN ATOM
M  V30 1 F 1.2862 -1.7688 2.3322 0
M  V30 2 C 0.2248 -1.1515 1.755 0
M  V30 3 C 0.3694 -0.4852 0.5344 0
M  V30 4 C -1.0077 -1.1657 2.4035 0
M  V30 5 N 1.6366 -0.4827 -0.1441 0
M  V30 6 C -0.7284 0.1832 -0.0246 0
M  V30 7 C -2.1221 -0.507 1.8482 0
M  V30 8 C 2.2367 0.7924 -0.5529 0
M  V30 9 C 2.1441 -1.7425 -0.7005 0
M  V30 10 C -1.9895 0.194 0.6203 0
M  V30 11 C -3.3694 -0.5396 2.4968 0
M  V30 12 C 3.781 0.7438 -0.5032 0
M  V30 13 C 3.5308 -1.5474 -1.3238 0
M  V30 14 N -3.0807 0.8542 0.0882 0
M  V30 15 O -3.493 -1.157 3.591 0
M  V30 16 C -4.476 0.1096 1.9239 0
M  V30 17 N 4.3319 -0.6343 -0.486 0 CHG=1
M  V30 18 C -4.2972 0.7945 0.7132 0
M  V30 19 C -3.0142 1.6184 -1.1747 0
M  V30 20 C -5.8205 0.0891 2.5644 0
M  V30 21 C 5.7358 -0.6305 -0.9305 0
M  V30 22 C -3.1787 0.6916 -2.3766 0
M  V30 23 O -6.7905 0.6906 2.0306 0
M  V30 24 O -6.037 -0.5898 3.758 0 CHG=-1
M  V30 25 H -1.0856 -1.6948 3.3456 0
M  V30 26 H -0.5749 0.6655 -0.9769 0
M  V30 27 H 1.9097 1.0194 -1.5912 0
M  V30 28 H 1.8759 1.6176 0.1005 0
M  V30 29 H 2.2261 -2.4991 0.1085 0
M  V30 30 H 1.4374 -2.1274 -1.4669 0
M  V30 31 H 4.1666 1.316 -1.3784 0
M  V30 32 H 4.126 1.2832 0.4079 0
M  V30 33 H 4.0225 -2.5433 -1.4057 0
M  V30 34 H 3.423 -1.1351 -2.3533 0
M  V30 35 H 4.3199 -0.9862 0.5021 0
M  V30 36 H -5.1508 1.292 0.2661 0
M  V30 37 H -3.8173 2.388 -1.215 0
M  V30 38 H -2.0718 2.1994 -1.2468 0
M  V30 39 H 6.1823 -1.6424 -0.8134 0
M  V30 40 H 6.3362 0.0729 -0.3123 0
M  V30 41 H 5.817 -0.3276 -1.9983 0
M  V30 42 H -2.3823 -0.0805 -2.3911 0
M  V30 43 H -4.1676 0.188 -2.3331 0
M  V30 44 H -3.1194 1.2831 -3.3143 0
M  V30 END ATOM
M  V30 BEGIN BOND
M  V30 1 1 1 2
M  V30 2 2 2 3
M  V30 3 1 2 4
M  V30 4 1 3 5
M  V30 5 1 3 6
M  V30 6 2 4 7
M  V30 7 1 5 8
M  V30 8 1 5 9
M  V30 9 2 6 10
M  V30 10 1 7 11
M  V30 11 1 8 12
M  V30 12 1 9 13
M  V30 13 1 10 14
M  V30 14 2 11 15
M  V30 15 1 11 16
M  V30 16 1 12 17
M  V30 17 1 14 18
M  V30 18 1 14 19
M  V30 19 1 16 20
M  V30 20 1 17 21
M  V30 21 1 19 22
M  V30 22 2 20 23
M  V30 23 1 20 24
M  V30 24 1 7 10
M  V30 25 1 13 17
M  V30 26 2 16 18
M  V30 27 1 4 25
M  V30 28 1 6 26
M  V30 29 1 8 27
M  V30 30 1 8 28
M  V30 31 1 9 29
M  V30 32 1 9 30
M  V30 33 1 12 31
M  V30 34 1 12 32
M  V30 35 1 13 33
M  V30 36 1 13 34
M  V30 37 1 17 35
M  V30 38 1 18 36
M  V30 39 1 19 37
M  V30 40 1 19 38
M  V30 41 1 21 39
M  V30 42 1 21 40
M  V30 43 1 21 41
M  V30 44 1 22 42
M  V30 45 1 22 43
M  V30 46 1 22 44
M  V30 END BOND
M  V30 END CTAB
M  END
>  <Structure No>
6551

>  <LogS>
-1.47

>  <MMFF94 Energy>
130.11

$$$$
Compound 6552
Actelion Java MolfileCreator 2.0

  0  0  0  0  0  0              0 V3000
M  V30 BEGIN CTAB
M  V30 COUNTS 32 34 0 0 0
M  V30 BEGIN ATOM
M  V30 1 O 3.149 2.9065 1.0488 0
M  V30 2 C 2.2311 2.2859 0.4474 0
M  V30 3 C 1.2587 3.0361 -0.3695 0
M  V30 4 C 2.1481 0.809 0.5143 0
M  V30 5 O 1.4518 4.4024 -0.5751 0
M  V30 6 C 0.1977 2.4136 -0.901 0
M  V30 7 C 1.0458 0.152 -0.0784 0
M  V30 8 C 3.1901 0.0563 1.0825 0
M  V30 9 C -0.0706 0.9891 -0.6241 0
M  V30 10 C 1.0921 -1.2494 -0.2246 0
M  V30 11 C 3.173 -1.3369 1.0071 0
M  V30 12 N -1.2966 0.5727 -0.7875 0
M  V30 13 C 2.1382 -1.9865 0.3349 0
M  V30 14 C -1.8785 -0.6546 -0.3322 0
M  V30 15 C -1.9253 -1.149 0.9568 0
M  V30 16 C -2.7128 -1.4787 -1.0503 0
M  V30 17 O -2.6797 -2.2256 0.9481 0
M  V30 18 C -1.2663 -0.5948 2.178 0
M  V30 19 N -3.1658 -2.4564 -0.2403 0
M  V30 20 C -3.021 -1.381 -2.5074 0
M  V30 21 H 0.8079 4.9573 -1.1275 0
M  V30 22 H -0.5274 2.9839 -1.4694 0
M  V30 23 H 4.0322 0.5452 1.5564 0
M  V30 24 H 0.3424 -1.7831 -0.7891 0
M  V30 25 H 3.9832 -1.9117 1.4366 0
M  V30 26 H 2.1529 -3.0641 0.2357 0
M  V30 27 H -1.9065 -0.7854 3.0643 0
M  V30 28 H -1.1177 0.5004 2.077 0
M  V30 29 H -0.2853 -1.0894 2.3306 0
M  V30 30 H -3.8987 -2.0141 -2.7551 0
M  V30 31 H -2.145 -1.7265 -3.0945 0
M  V30 32 H -3.2505 -0.3283 -2.7756 0
M  V30 END ATOM
M  V30 BEGIN BOND
M  V30 1 2 1 2
M  V30 2 1 2 3
M  V30 3 1 2 4
M  V30 4 1 3 5
M  V30 5 2 3 6
M  V30 6 2 4 7
M  V30 7 1 4 8
M  V30 8 1 6 9
M  V30 9 1 7 10
M  V30 10 2 8 11
M  V30 11 2 9 12
M  V30 12 2 10 13
M  V30 13 1 12 14
M  V30 14 2 14 15
M  V30 15 1 14 16
M  V30 16 1 15 17
M  V30 17 1 15 18
M  V30 18 2 16 19
M  V30 19 1 16 20
M  V30 20 1 7 9
M  V30 21 1 11 13
M  V30 22 1 17 19
M  V30 23 1 5 21
M  V30 24 1 6 22
M  V30 25 1 8 23
M  V30 26 1 10 24
M  V30 27 1 11 25
M  V30 28 1 13 26
M  V30 29 1 18 27
M  V30 30 1 18 28
M  V30 31 1 18 29
M  V30 32 1 20 30
M  V30 33 1 20 31
M  V30 34 1 20 32
M  V30 END BOND
M  V30 END CTAB
M  END
>  <Structure No>
6552

>  <LogS>
-3.89

>  <MMFF94 Energy>
80.65

$$$$
Compound 6553
Actelion Java MolfileCreator 2.0

  0  0  0  0  0  0              0 V3000
M  V30 BEGIN CTAB
M  V30 COUNTS 24 25 0 0 0
M  V30 BEGIN ATOM
M  V30 1 S 3.6635 -0.4356 -0.5227 0
M  V30 2 O 4.0909 0.2146 -1.8079 0
M  V30 3 O 4.0536 -1.8863 -0.5551 0
M  V30 4 N 4.4459 0.3367 0.811 0
M  V30 5 C 1.9243 -0.2982 -0.3489 0
M  V30 6 S 0.8817 -1.5687 0.0072 0
M  V30 7 C 1.1914 0.8703 -0.4918 0
M  V30 8 C -0.5245 -0.6395 0.0158 0
M  V30 9 C -0.1799 0.6727 -0.2976 0
M  V30 10 C -1.9272 -1.184 0.1156 0 CFG=1
M  V30 11 S -1.3785 1.9716 -0.4412 0 CFG=2
M  V30 12 O -1.9741 -2.2052 1.0778 0
M  V30 13 C -2.9401 -0.0936 0.5067 0
M  V30 14 O -1.3673 2.6151 0.939 0
M  V30 15 C -2.9492 1.0763 -0.4848 0
M  V30 16 H 4.0717 -0.104 1.681 0
M  V30 17 H 4.1279 1.3317 0.8171 0
M  V30 18 H 1.6318 1.8287 -0.7337 0
M  V30 19 H -2.2182 -1.5869 -0.8826 0
M  V30 20 H -1.6667 -3.0381 0.6333 0
M  V30 21 H -2.7173 0.2824 1.5295 0
M  V30 22 H -3.9565 -0.5432 0.53 0
M  V30 23 H -3.7688 1.7783 -0.2224 0
M  V30 24 H -3.128 0.7018 -1.5151 0
M  V30 END ATOM
M  V30 BEGIN BOND
M  V30 1 2 1 2
M  V30 2 2 1 3
M  V30 3 1 1 4
M  V30 4 1 1 5
M  V30 5 1 5 6
M  V30 6 2 5 7
M  V30 7 1 6 8
M  V30 8 1 7 9
M  V30 9 1 8 10
M  V30 10 1 9 11
M  V30 11 1 10 12
M  V30 12 1 10 13
M  V30 13 2 11 14
M  V30 14 1 11 15
M  V30 15 2 8 9
M  V30 16 1 13 15
M  V30 17 1 4 16
M  V30 18 1 4 17
M  V30 19 1 7 18
M  V30 20 1 10 19
M  V30 21 1 12 20
M  V30 22 1 13 21
M  V30 23 1 13 22
M  V30 24 1 15 23
M  V30 25 1 15 24
M  V30 END BOND
M  V30 BEGIN COLLECTION
M  V30 MDLV30/STEABS ATOMS=(2 10 11)
M  V30 END COLLECTION
M  V30 END CTAB
M  END
>  <Structure No>
6553

>  <LogS>
-1.57

>  <MMFF94 Energy>
-61.592

$$$$
Compound 6554
Actelion Java MolfileCreator 2.0

  0  0  0  0  0  0              0 V3000
M  V30 BEGIN CTAB
M  V30 COUNTS 41 41 0 0 0
M  V30 BEGIN ATOM
M  V30 1 S 4.6457 -0.3254 1.1395 0
M  V30 2 O 5.3708 -1.3348 0.2944 0
M  V30 3 O 4.7821 -0.7198 2.5838 0
M  V30 4 N 5.3425 1.2371 0.8948 0
M  V30 5 C 2.9427 -0.2823 0.6922 0
M  V30 6 C 1.9847 0.1035 1.628 0
M  V30 7 C 2.548 -0.6136 -0.6028 0
M  V30 8 C 0.6228 0.1398 1.2953 0
M  V30 9 C 1.1984 -0.5558 -0.9858 0
M  V30 10 N -0.3203 0.467 2.3302 0 CHG=1
M  V30 11 C 0.2134 -0.1739 -0.0314 0
M  V30 12 N 0.8574 -0.8735 -2.3483 0 CHG=1
M  V30 13 O -1.398 -0.1526 2.4278 0
M  V30 14 O 0.0353 1.3373 3.3349 0 CHG=-1
M  V30 15 N -1.1805 -0.0936 -0.4119 0
M  V30 16 O 1.5414 -1.6984 -2.9888 0
M  V30 17 O -0.127 -0.1808 -3.0107 0 CHG=-1
M  V30 18 C -1.9001 1.192 -0.3486 0
M  V30 19 C -1.8949 -1.3027 -0.8531 0
M  V30 20 C -1.4048 2.1583 -1.4289 0
M  V30 21 C -2.7116 -1.9094 0.2904 0
M  V30 22 C -2.0477 3.5338 -1.2764 0
M  V30 23 C -3.5454 -3.0917 -0.1941 0
M  V30 24 H 4.8397 1.898 1.5287 0
M  V30 25 H 6.3297 1.1879 1.2324 0
M  V30 26 H 2.2985 0.3506 2.6345 0
M  V30 27 H 3.3007 -0.8919 -1.3296 0
M  V30 28 H -1.7705 1.6603 0.6467 0
M  V30 29 H -2.9916 1.03 -0.4891 0
M  V30 30 H -1.1783 -2.0687 -1.2193 0
M  V30 31 H -2.5658 -1.0449 -1.7019 0
M  V30 32 H -0.3011 2.2696 -1.3621 0
M  V30 33 H -1.6663 1.7571 -2.4304 0
M  V30 34 H -3.3919 -1.1427 0.7195 0
M  V30 35 H -2.0227 -2.2646 1.0861 0
M  V30 36 H -1.7792 3.9789 -0.2947 0
M  V30 37 H -1.6829 4.2058 -2.0816 0
M  V30 38 H -3.1531 3.4542 -1.3535 0
M  V30 39 H -4.2648 -2.7628 -0.9739 0
M  V30 40 H -2.8871 -3.8829 -0.612 0
M  V30 41 H -4.1161 -3.5178 0.6576 0
M  V30 END ATOM
M  V30 BEGIN BOND
M  V30 1 2 1 2
M  V30 2 2 1 3
M  V30 3 1 1 4
M  V30 4 1 1 5
M  V30 5 2 5 6
M  V30 6 1 5 7
M  V30 7 1 6 8
M  V30 8 2 7 9
M  V30 9 1 8 10
M  V30 10 2 8 11
M  V30 11 1 9 12
M  V30 12 2 10 13
M  V30 13 1 10 14
M  V30 14 1 11 15
M  V30 15 2 12 16
M  V30 16 1 12 17
M  V30 17 1 15 18
M  V30 18 1 15 19
M  V30 19 1 18 20
M  V30 20 1 19 21
M  V30 21 1 20 22
M  V30 22 1 21 23
M  V30 23 1 9 11
M  V30 24 1 4 24
M  V30 25 1 4 25
M  V30 26 1 6 26
M  V30 27 1 7 27
M  V30 28 1 18 28
M  V30 29 1 18 29
M  V30 30 1 19 30
M  V30 31 1 19 31
M  V30 32 1 20 32
M  V30 33 1 20 33
M  V30 34 1 21 34
M  V30 35 1 21 35
M  V30 36 1 22 36
M  V30 37 1 22 37
M  V30 38 1 22 38
M  V30 39 1 23 39
M  V30 40 1 23 40
M  V30 41 1 23 41
M  V30 END BOND
M  V30 END CTAB
M  END
>  <Structure No>
6554

>  <LogS>
-5.13

>  <MMFF94 Energy>
23.673

$$$$
Compound 6555
Actelion Java MolfileCreator 2.0

  0  0  0  0  0  0              0 V3000
M  V30 BEGIN CTAB
M  V30 COUNTS 30 31 0 0 0
M  V30 BEGIN ATOM
M  V30 1 S -0.827 -2.234 -0.1653 0
M  V30 2 O -1.2375 -3.2275 -1.2144 0
M  V30 3 O -1.2327 -2.752 1.1862 0
M  V30 4 N 0.897 -2.0474 -0.2065 0 CHG=-1
M  V30 5 C -1.6121 -0.6943 -0.5021 0
M  V30 6 C 1.6661 -1.1519 0.6119 0
M  V30 7 C -2.8335 -0.3749 0.1064 0
M  V30 8 C -1.0175 0.2189 -1.3829 0
M  V30 9 C 3.0693 -1.0358 0.4152 0
M  V30 10 C 1.0441 -0.3823 1.6152 0
M  V30 11 C -3.4506 0.8519 -0.1569 0
M  V30 12 C -1.6336 1.446 -1.6455 0
M  V30 13 N 3.7708 -1.7966 -0.5946 0 CHG=1
M  V30 14 C 3.7981 -0.1468 1.2298 0
M  V30 15 C 1.7887 0.4912 2.4067 0
M  V30 16 C -2.8528 1.7689 -1.033 0
M  V30 17 O 3.1683 -2.5736 -1.363 0
M  V30 18 O 5.1344 -1.671 -0.7337 0 CHG=-1
M  V30 19 C 3.162 0.6089 2.2146 0
M  V30 20 N -3.4829 3.0244 -1.301 0
M  V30 21 H -3.3077 -1.0728 0.7843 0
M  V30 22 H -0.0772 -0.0169 -1.8641 0
M  V30 23 H -0.018 -0.4506 1.7977 0
M  V30 24 H -4.393 1.0877 0.3211 0
M  V30 25 H -1.162 2.1442 -2.3255 0
M  V30 26 H 4.867 -0.0328 1.1054 0
M  V30 27 H 1.2984 1.0778 3.173 0
M  V30 28 H 3.737 1.2876 2.8312 0
M  V30 29 H -3.0444 3.7144 -1.9511 0
M  V30 30 H -4.3915 3.2737 -0.8502 0
M  V30 END ATOM
M  V30 BEGIN BOND
M  V30 1 2 1 2
M  V30 2 2 1 3
M  V30 3 1 1 4
M  V30 4 1 1 5
M  V30 5 1 4 6
M  V30 6 2 5 7
M  V30 7 1 5 8
M  V30 8 2 6 9
M  V30 9 1 6 10
M  V30 10 1 7 11
M  V30 11 2 8 12
M  V30 12 1 9 13
M  V30 13 1 9 14
M  V30 14 2 10 15
M  V30 15 2 11 16
M  V30 16 2 13 17
M  V30 17 1 13 18
M  V30 18 2 14 19
M  V30 19 1 16 20
M  V30 20 1 12 16
M  V30 21 1 15 19
M  V30 22 1 7 21
M  V30 23 1 8 22
M  V30 24 1 10 23
M  V30 25 1 11 24
M  V30 26 1 12 25
M  V30 27 1 14 26
M  V30 28 1 15 27
M  V30 29 1 19 28
M  V30 30 1 20 29
M  V30 31 1 20 30
M  V30 END BOND
M  V30 END CTAB
M  END
>  <Structure No>
6555

>  <LogS>
-4.49

>  <MMFF94 Energy>
127.64

$$$$
Compound 6556
Actelion Java MolfileCreator 2.0

  0  0  0  0  0  0              0 V3000
M  V30 BEGIN CTAB
M  V30 COUNTS 29 30 0 0 0
M  V30 BEGIN ATOM
M  V30 1 Cl -2.5284 3.1191 0.9265 0
M  V30 2 C -2.5823 1.5017 0.2331 0
M  V30 3 C -1.4162 0.8328 -0.1969 0
M  V30 4 C -3.8282 0.8705 0.1297 0
M  V30 5 S 0.175 1.5957 -0.0754 0
M  V30 6 C -1.5238 -0.4728 -0.7014 0
M  V30 7 C -3.9281 -0.4263 -0.3891 0
M  V30 8 O 0.5561 1.6719 1.3768 0
M  V30 9 O 0.1284 2.9819 -0.6538 0
M  V30 10 N 1.3639 0.6808 -0.9481 0
M  V30 11 C -2.7701 -1.0956 -0.8006 0
M  V30 12 N -5.2036 -1.0652 -0.4908 0
M  V30 13 C 2.4506 0.0361 -0.2758 0
M  V30 14 C 3.4508 0.7808 0.3824 0
M  V30 15 C 2.5381 -1.3633 -0.3034 0
M  V30 16 Cl 3.4641 2.5393 0.344 0
M  V30 17 C 4.4974 0.1161 1.0336 0
M  V30 18 C 3.5854 -2.0185 0.3494 0
M  V30 19 C 4.5611 -1.2796 1.0223 0
M  V30 20 H -4.7206 1.3888 0.4591 0
M  V30 21 H -0.6458 -1.0197 -1.0147 0
M  V30 22 H 1.1139 0.362 -1.9106 0
M  V30 23 H -2.8325 -2.1019 -1.1954 0
M  V30 24 H -5.2876 -2.033 -0.8741 0
M  V30 25 H -6.0733 -0.5749 -0.1839 0
M  V30 26 H 1.7856 -1.9453 -0.8204 0
M  V30 27 H 5.2702 0.6815 1.539 0
M  V30 28 H 3.6408 -3.0992 0.3334 0
M  V30 29 H 5.373 -1.7881 1.5258 0
M  V30 END ATOM
M  V30 BEGIN BOND
M  V30 1 1 1 2
M  V30 2 2 2 3
M  V30 3 1 2 4
M  V30 4 1 3 5
M  V30 5 1 3 6
M  V30 6 2 4 7
M  V30 7 2 5 8
M  V30 8 2 5 9
M  V30 9 1 5 10
M  V30 10 2 6 11
M  V30 11 1 7 12
M  V30 12 1 10 13
M  V30 13 2 13 14
M  V30 14 1 13 15
M  V30 15 1 14 16
M  V30 16 1 14 17
M  V30 17 2 15 18
M  V30 18 2 17 19
M  V30 19 1 7 11
M  V30 20 1 18 19
M  V30 21 1 4 20
M  V30 22 1 6 21
M  V30 23 1 10 22
M  V30 24 1 11 23
M  V30 25 1 12 24
M  V30 26 1 12 25
M  V30 27 1 15 26
M  V30 28 1 17 27
M  V30 29 1 18 28
M  V30 30 1 19 29
M  V30 END BOND
M  V30 END CTAB
M  END
>  <Structure No>
6556

>  <LogS>
-5.11

>  <MMFF94 Energy>
-20.702

$$$$
Compound 6557
Actelion Java MolfileCreator 2.0

  0  0  0  0  0  0              0 V3000
M  V30 BEGIN CTAB
M  V30 COUNTS 33 34 0 0 0
M  V30 BEGIN ATOM
M  V30 1 Cl -4.1238 2.8028 0.7413 0
M  V30 2 C -3.1405 1.3473 0.7745 0
M  V30 3 C -2.5886 0.8322 -0.4092 0
M  V30 4 C -2.8964 0.7146 1.9964 0
M  V30 5 O -2.8252 1.4969 -1.6154 0
M  V30 6 C -1.8078 -0.3438 -0.3698 0
M  V30 7 C -2.1138 -0.4386 2.0432 0
M  V30 8 C -1.8136 2.264 -2.2574 0
M  V30 9 N -1.3008 -0.9141 -1.589 0
M  V30 10 C -1.5776 -0.9704 0.8691 0
M  V30 11 S 0.1275 -1.8968 -1.6539 0
M  V30 12 O -0.217 -3.2947 -1.2218 0
M  V30 13 O 0.6425 -1.9334 -3.0649 0
M  V30 14 C 1.3756 -1.211 -0.6171 0
M  V30 15 C 1.6644 0.1578 -0.69 0
M  V30 16 C 2.074 -2.0186 0.2914 0
M  V30 17 C 2.6383 0.7173 0.142 0
M  V30 18 C 3.0488 -1.4593 1.1232 0
M  V30 19 C 3.3349 -0.0885 1.0535 0
M  V30 20 N 4.3303 0.4835 1.9058 0
M  V30 21 H -3.3142 1.116 2.911 0
M  V30 22 H -1.9319 -0.9292 2.9906 0
M  V30 23 H -2.2311 2.7171 -3.1796 0
M  V30 24 H -0.9511 1.624 -2.5326 0
M  V30 25 H -1.47 3.0756 -1.5816 0
M  V30 26 H -1.7474 -0.6657 -2.4993 0
M  V30 27 H -1.0025 -1.8832 0.9328 0
M  V30 28 H 1.1329 0.7918 -1.3876 0
M  V30 29 H 1.864 -3.0778 0.3605 0
M  V30 30 H 2.8492 1.7773 0.0774 0
M  V30 31 H 3.5796 -2.0931 1.8224 0
M  V30 32 H 4.8544 -0.1086 2.588 0
M  V30 33 H 4.5502 1.5035 1.8612 0
M  V30 END ATOM
M  V30 BEGIN BOND
M  V30 1 1 1 2
M  V30 2 2 2 3
M  V30 3 1 2 4
M  V30 4 1 3 5
M  V30 5 1 3 6
M  V30 6 2 4 7
M  V30 7 1 5 8
M  V30 8 1 6 9
M  V30 9 2 6 10
M  V30 10 1 9 11
M  V30 11 2 11 12
M  V30 12 2 11 13
M  V30 13 1 11 14
M  V30 14 2 14 15
M  V30 15 1 14 16
M  V30 16 1 15 17
M  V30 17 2 16 18
M  V30 18 2 17 19
M  V30 19 1 19 20
M  V30 20 1 7 10
M  V30 21 1 18 19
M  V30 22 1 4 21
M  V30 23 1 7 22
M  V30 24 1 8 23
M  V30 25 1 8 24
M  V30 26 1 8 25
M  V30 27 1 9 26
M  V30 28 1 10 27
M  V30 29 1 15 28
M  V30 30 1 16 29
M  V30 31 1 17 30
M  V30 32 1 18 31
M  V30 33 1 20 32
M  V30 34 1 20 33
M  V30 END BOND
M  V30 END CTAB
M  END
>  <Structure No>
6557

>  <LogS>
-4.15

>  <MMFF94 Energy>
15.68

$$$$
Compound 6558
Actelion Java MolfileCreator 2.0

  0  0  0  0  0  0              0 V3000
M  V30 BEGIN CTAB
M  V30 COUNTS 42 45 0 0 0
M  V30 BEGIN ATOM
M  V30 1 Cl -1.2967 -5.1131 -0.081 0
M  V30 2 C -1.7348 -3.4625 0.3191 0
M  V30 3 C -0.9712 -2.3984 -0.167 0
M  V30 4 C -2.8356 -3.2108 1.1375 0
M  V30 5 C -1.3008 -1.0671 0.1544 0
M  V30 6 C -3.1886 -1.8962 1.4439 0
M  V30 7 C -0.3636 0.0139 -0.2484 0
M  V30 8 C -2.4497 -0.8209 0.933 0
M  V30 9 N -0.7664 1.1745 -0.6755 0
M  V30 10 N 1.0528 -0.2486 -0.2492 0
M  V30 11 O -2.8999 0.4661 1.2174 0
M  V30 12 C -2.0878 1.7225 -0.7347 0
M  V30 13 C 1.8494 0.098 -1.4316 0
M  V30 14 C 1.6815 -0.953 0.876 0
M  V30 15 C -3.0689 1.4447 0.2396 0
M  V30 16 C -2.333 2.7214 -1.6875 0
M  V30 17 C 3.3451 -0.085 -1.1543 0
M  V30 18 C 3.0284 -0.3076 1.2726 0
M  V30 19 C -4.2634 2.1772 0.2479 0
M  V30 20 C -3.5415 3.4216 -1.6916 0
M  V30 21 N 3.6741 0.462 0.1764 0 CHG=1
M  V30 22 C -4.504 3.1545 -0.7192 0
M  V30 23 C 5.1343 0.5007 0.3646 0
M  V30 24 H -0.1111 -2.6127 -0.7898 0
M  V30 25 H -3.4254 -4.0314 1.5265 0
M  V30 26 H -4.0595 -1.7084 2.0594 0
M  V30 27 H 1.5428 -0.5374 -2.2896 0
M  V30 28 H 1.6714 1.1624 -1.699 0
M  V30 29 H 1.8612 -2.0086 0.5779 0
M  V30 30 H 1.008 -0.9633 1.7616 0
M  V30 31 H -1.5751 2.9675 -2.4203 0
M  V30 32 H 3.917 0.4432 -1.9505 0
M  V30 33 H 3.6069 -1.1666 -1.2063 0
M  V30 34 H 3.694 -1.1228 1.6398 0
M  V30 35 H 2.8552 0.3718 2.1377 0
M  V30 36 H -5.0148 1.9769 1.0007 0
M  V30 37 H -3.7214 4.1866 -2.4356 0
M  V30 38 H 3.3307 1.4523 0.221 0
M  V30 39 H -5.4342 3.7072 -0.7118 0
M  V30 40 H 5.3839 0.9102 1.3683 0
M  V30 41 H 5.5751 -0.5171 0.2722 0
M  V30 42 H 5.6066 1.1637 -0.3933 0
M  V30 END ATOM
M  V30 BEGIN BOND
M  V30 1 1 1 2
M  V30 2 2 2 3
M  V30 3 1 2 4
M  V30 4 1 3 5
M  V30 5 2 4 6
M  V30 6 1 5 7
M  V30 7 2 5 8
M  V30 8 2 7 9
M  V30 9 1 7 10
M  V30 10 1 8 11
M  V30 11 1 9 12
M  V30 12 1 10 13
M  V30 13 1 10 14
M  V30 14 1 11 15
M  V30 15 1 12 16
M  V30 16 1 13 17
M  V30 17 1 14 18
M  V30 18 1 15 19
M  V30 19 2 16 20
M  V30 20 1 17 21
M  V30 21 2 19 22
M  V30 22 1 21 23
M  V30 23 1 6 8
M  V30 24 2 12 15
M  V30 25 1 18 21
M  V30 26 1 20 22
M  V30 27 1 3 24
M  V30 28 1 4 25
M  V30 29 1 6 26
M  V30 30 1 13 27
M  V30 31 1 13 28
M  V30 32 1 14 29
M  V30 33 1 14 30
M  V30 34 1 16 31
M  V30 35 1 17 32
M  V30 36 1 17 33
M  V30 37 1 18 34
M  V30 38 1 18 35
M  V30 39 1 19 36
M  V30 40 1 20 37
M  V30 41 1 21 38
M  V30 42 1 22 39
M  V30 43 1 23 40
M  V30 44 1 23 41
M  V30 45 1 23 42
M  V30 END BOND
M  V30 END CTAB
M  END
>  <Structure No>
6558

>  <LogS>
-4.42

>  <MMFF94 Energy>
127.8

$$$$
Compound 6559
Actelion Java MolfileCreator 2.0

  0  0  0  0  0  0              0 V3000
M  V30 BEGIN CTAB
M  V30 COUNTS 40 42 0 0 0
M  V30 BEGIN ATOM
M  V30 1 O 2.175 0.483 -2.5782 0
M  V30 2 C 1.3533 0.5904 -1.63 0
M  V30 3 N 1.6857 1.1237 -0.3605 0
M  V30 4 N 0.0046 0.1549 -1.7165 0
M  V30 5 C 0.4961 0.9465 0.4011 0
M  V30 6 C 3.0315 1.2209 0.1907 0
M  V30 7 C -0.6293 0.3392 -0.4078 0
M  V30 8 O 0.4128 1.2502 1.6222 0
M  V30 9 O 3.4523 -0.0634 0.6374 0
M  V30 10 C -1.7802 1.3449 -0.468 0
M  V30 11 C -1.078 -1.0334 0.1013 0
M  V30 12 C 4.7006 -0.2869 1.2233 0
M  V30 13 C -1.9914 2.1705 -1.5936 0
M  V30 14 C -2.6206 1.5105 0.6525 0
M  V30 15 C -2.2748 -1.5985 -0.3874 0
M  V30 16 C -0.2711 -1.8156 0.9583 0
M  V30 17 O 5.5107 0.6636 1.3975 0
M  V30 18 C 5.0572 -1.6566 1.6911 0
M  V30 19 C -3.034 3.1021 -1.6059 0
M  V30 20 C -3.6609 2.4433 0.6331 0
M  V30 21 C -2.6832 -2.8714 0.0195 0
M  V30 22 C -0.6856 -3.0886 1.3608 0
M  V30 23 C -3.8697 3.2358 -0.4961 0
M  V30 24 C -1.8929 -3.613 0.8978 0
M  V30 25 H -0.4332 -0.2927 -2.5529 0
M  V30 26 H 3.7284 1.5969 -0.5891 0
M  V30 27 H 3.0328 1.9352 1.0422 0
M  V30 28 H -1.3544 2.1055 -2.465 0
M  V30 29 H -2.4699 0.9136 1.5435 0
M  V30 30 H -2.8946 -1.0532 -1.088 0
M  V30 31 H 0.6841 -1.456 1.3155 0
M  V30 32 H 6.1307 -1.8592 1.4929 0
M  V30 33 H 4.8633 -1.7374 2.7808 0
M  V30 34 H 4.4447 -2.4119 1.1555 0
M  V30 35 H -3.1907 3.7254 -2.4768 0
M  V30 36 H -4.3033 2.5544 1.4971 0
M  V30 37 H -3.6104 -3.2864 -0.3539 0
M  V30 38 H -0.0638 -3.6734 2.0263 0
M  V30 39 H -4.6749 3.959 -0.5086 0
M  V30 40 H -2.2093 -4.6 1.2092 0
M  V30 END ATOM
M  V30 BEGIN BOND
M  V30 1 2 1 2
M  V30 2 1 2 3
M  V30 3 1 2 4
M  V30 4 1 3 5
M  V30 5 1 3 6
M  V30 6 1 4 7
M  V30 7 2 5 8
M  V30 8 1 6 9
M  V30 9 1 7 10
M  V30 10 1 7 11
M  V30 11 1 9 12
M  V30 12 2 10 13
M  V30 13 1 10 14
M  V30 14 2 11 15
M  V30 15 1 11 16
M  V30 16 2 12 17
M  V30 17 1 12 18
M  V30 18 1 13 19
M  V30 19 2 14 20
M  V30 20 1 15 21
M  V30 21 2 16 22
M  V30 22 2 19 23
M  V30 23 2 21 24
M  V30 24 1 5 7
M  V30 25 1 20 23
M  V30 26 1 22 24
M  V30 27 1 4 25
M  V30 28 1 6 26
M  V30 29 1 6 27
M  V30 30 1 13 28
M  V30 31 1 14 29
M  V30 32 1 15 30
M  V30 33 1 16 31
M  V30 34 1 18 32
M  V30 35 1 18 33
M  V30 36 1 18 34
M  V30 37 1 19 35
M  V30 38 1 20 36
M  V30 39 1 21 37
M  V30 40 1 22 38
M  V30 41 1 23 39
M  V30 42 1 24 40
M  V30 END BOND
M  V30 END CTAB
M  END
>  <Structure No>
6559

>  <LogS>
-4.47

>  <MMFF94 Energy>
-37.062

$$$$
Compound 6560
Actelion Java MolfileCreator 2.0

  0  0  0  0  0  0              0 V3000
M  V30 BEGIN CTAB
M  V30 COUNTS 32 34 0 0 0
M  V30 BEGIN ATOM
M  V30 1 O -1.6307 2.1203 0.4074 0
M  V30 2 C -1.9166 0.9567 0.0119 0
M  V30 3 N -3.1955 0.3747 0.3394 0
M  V30 4 C -0.938 0.2215 -0.872 0 CFG=1
M  V30 5 C -3.6115 -0.8439 -0.3098 0
M  V30 6 C -4.122 1.0888 1.2242 0
M  V30 7 N 0.441 0.4518 -0.4287 0
M  V30 8 C -1.2338 -1.2857 -0.8988 0
M  V30 9 O -4.7706 -1.3042 -0.1226 0
M  V30 10 C -2.6943 -1.5506 -1.264 0
M  V30 11 C 1.5905 0.5314 -1.2775 0
M  V30 12 C 0.9826 0.2122 0.8772 0
M  V30 13 O 1.5395 0.676 -2.5278 0
M  V30 14 C 2.81 0.3922 -0.4903 0
M  V30 15 O 0.2884 0.014 1.9096 0
M  V30 16 C 2.4395 0.1979 0.8226 0
M  V30 17 C 4.1494 0.4119 -0.8753 0
M  V30 18 C 3.3865 0.0114 1.8283 0
M  V30 19 C 5.1252 0.231 0.1213 0
M  V30 20 C 4.7456 0.0318 1.4668 0
M  V30 21 H -1.0595 0.6245 -1.9016 0
M  V30 22 H -4.7749 0.3752 1.77 0
M  V30 23 H -3.5657 1.6722 1.9884 0
M  V30 24 H -4.7527 1.7779 0.6244 0
M  V30 25 H -0.5755 -1.7782 -1.647 0
M  V30 26 H -1.0187 -1.7361 0.0956 0
M  V30 27 H -2.8967 -1.1918 -2.2961 0
M  V30 28 H -2.8855 -2.6451 -1.229 0
M  V30 29 H 4.4312 0.5603 -1.9097 0
M  V30 30 H 3.0862 -0.1454 2.8563 0
M  V30 31 H 6.174 0.2422 -0.1452 0
M  V30 32 H 5.5052 -0.1087 2.2248 0
M  V30 END ATOM
M  V30 BEGIN BOND
M  V30 1 2 1 2
M  V30 2 1 2 3
M  V30 3 1 2 4
M  V30 4 1 3 5
M  V30 5 1 3 6
M  V30 6 1 4 7
M  V30 7 1 4 8
M  V30 8 2 5 9
M  V30 9 1 5 10
M  V30 10 1 7 11
M  V30 11 1 7 12
M  V30 12 2 11 13
M  V30 13 1 11 14
M  V30 14 2 12 15
M  V30 15 1 12 16
M  V30 16 1 14 17
M  V30 17 1 16 18
M  V30 18 2 17 19
M  V30 19 2 18 20
M  V30 20 1 8 10
M  V30 21 2 14 16
M  V30 22 1 19 20
M  V30 23 1 4 21
M  V30 24 1 6 22
M  V30 25 1 6 23
M  V30 26 1 6 24
M  V30 27 1 8 25
M  V30 28 1 8 26
M  V30 29 1 10 27
M  V30 30 1 10 28
M  V30 31 1 17 29
M  V30 32 1 18 30
M  V30 33 1 19 31
M  V30 34 1 20 32
M  V30 END BOND
M  V30 BEGIN COLLECTION
M  V30 MDLV30/STEABS ATOMS=(1 4)
M  V30 END COLLECTION
M  V30 END CTAB
M  END
>  <Structure No>
6560

>  <LogS>
-2.99

>  <MMFF94 Energy>
-31.969

$$$$
Compound 6561
Actelion Java MolfileCreator 2.0

  0  0  0  0  0  0              0 V3000
M  V30 BEGIN CTAB
M  V30 COUNTS 35 37 0 0 0
M  V30 BEGIN ATOM
M  V30 1 O 5.0594 1.4435 0.0 0
M  V30 2 C 5.4111 0.2344 0.0807 0
M  V30 3 O 6.7611 -0.0977 0.225 0
M  V30 4 N 4.4375 -0.8162 0.0262 0
M  V30 5 C 7.79 0.8825 0.2876 0
M  V30 6 C 3.0266 -0.5997 -0.1196 0
M  V30 7 N 2.4592 0.6324 -0.2232 0
M  V30 8 N 2.1358 -1.62 -0.1672 0
M  V30 9 C 1.1507 0.3426 -0.3391 0
M  V30 10 C 0.9555 -1.0046 -0.3064 0
M  V30 11 C 0.092 1.233 -0.4833 0
M  V30 12 C -0.3099 -1.5758 -0.4101 0
M  V30 13 C -1.205 0.6977 -0.5916 0
M  V30 14 C -1.4195 -0.708 -0.5427 0
M  V30 15 C -2.7834 -1.2739 -0.675 0
M  V30 16 O -2.9259 -2.3894 -1.2465 0
M  V30 17 C -3.9862 -0.5764 -0.1587 0
M  V30 18 C -5.2223 -0.7298 -0.8119 0
M  V30 19 C -3.9246 0.2069 1.0093 0
M  V30 20 C -6.3656 -0.0901 -0.3224 0
M  V30 21 C -5.0707 0.8441 1.4947 0
M  V30 22 C -6.2894 0.6982 0.828 0
M  V30 23 H 4.7787 -1.8007 0.0975 0
M  V30 24 H 7.802 1.4815 -0.6474 0
M  V30 25 H 8.7699 0.3758 0.4027 0
M  V30 26 H 7.626 1.5509 1.1596 0
M  V30 27 H 2.3253 -2.6454 -0.1095 0
M  V30 28 H 0.2599 2.3016 -0.5187 0
M  V30 29 H -0.4302 -2.6515 -0.3787 0
M  V30 30 H -2.0371 1.3765 -0.7286 0
M  V30 31 H -5.3008 -1.3348 -1.7066 0
M  V30 32 H -2.9957 0.3142 1.555 0
M  V30 33 H -7.3115 -0.2067 -0.8355 0
M  V30 34 H -5.015 1.4465 2.3923 0
M  V30 35 H -7.1756 1.1914 1.206 0
M  V30 END ATOM
M  V30 BEGIN BOND
M  V30 1 2 1 2
M  V30 2 1 2 3
M  V30 3 1 2 4
M  V30 4 1 3 5
M  V30 5 1 4 6
M  V30 6 2 6 7
M  V30 7 1 6 8
M  V30 8 1 7 9
M  V30 9 1 8 10
M  V30 10 1 9 11
M  V30 11 1 10 12
M  V30 12 2 11 13
M  V30 13 2 12 14
M  V30 14 1 14 15
M  V30 15 2 15 16
M  V30 16 1 15 17
M  V30 17 2 17 18
M  V30 18 1 17 19
M  V30 19 1 18 20
M  V30 20 2 19 21
M  V30 21 2 20 22
M  V30 22 2 9 10
M  V30 23 1 13 14
M  V30 24 1 21 22
M  V30 25 1 4 23
M  V30 26 1 5 24
M  V30 27 1 5 25
M  V30 28 1 5 26
M  V30 29 1 8 27
M  V30 30 1 11 28
M  V30 31 1 12 29
M  V30 32 1 13 30
M  V30 33 1 18 31
M  V30 34 1 19 32
M  V30 35 1 20 33
M  V30 36 1 21 34
M  V30 37 1 22 35
M  V30 END BOND
M  V30 END CTAB
M  END
>  <Structure No>
6561

>  <LogS>
-3.88

>  <MMFF94 Energy>
-12.927

$$$$
Compound 6562
Actelion Java MolfileCreator 2.0

  0  0  0  0  0  0              0 V3000
M  V30 BEGIN CTAB
M  V30 COUNTS 26 28 0 0 0
M  V30 BEGIN ATOM
M  V30 1 S 0.7455 -0.0828 -1.8232 0
M  V30 2 C -0.9017 0.1013 -1.1427 0
M  V30 3 C 1.5248 0.6924 -0.3987 0
M  V30 4 N -1.5508 1.3013 -1.2131 0
M  V30 5 C -1.5701 -0.9523 -0.5316 0
M  V30 6 N 1.9701 0.0386 0.6898 0
M  V30 7 C 1.7642 2.0406 -0.2022 0
M  V30 8 C -2.8081 1.4655 -0.6897 0
M  V30 9 N -1.2056 -2.2283 -0.3616 0
M  V30 10 C -2.809 -0.7713 -0.0208 0
M  V30 11 C 2.4344 0.991 1.5241 0
M  V30 12 C 1.8792 -1.3878 0.9791 0
M  V30 13 N 1.4672 3.1106 -1.1085 0 CHG=1
M  V30 14 N 2.3307 2.2343 1.0071 0
M  V30 15 N -3.4502 0.42 -0.0855 0
M  V30 16 C -2.2675 -2.7845 0.2745 0
M  V30 17 N -3.2871 -1.9121 0.5028 0
M  V30 18 O 1.6921 4.2899 -0.7684 0
M  V30 19 O 0.9744 2.8605 -2.3674 0 CHG=-1
M  V30 20 H -3.2961 2.4279 -0.7577 0
M  V30 21 H -0.3225 -2.6973 -0.6602 0
M  V30 22 H 2.8417 0.7871 2.5061 0
M  V30 23 H 0.888 -1.6138 1.4236 0
M  V30 24 H 2.6721 -1.6832 1.6985 0
M  V30 25 H 2.0161 -1.9785 0.0495 0
M  V30 26 H -2.3049 -3.826 0.5648 0
M  V30 END ATOM
M  V30 BEGIN BOND
M  V30 1 1 1 2
M  V30 2 1 1 3
M  V30 3 2 2 4
M  V30 4 1 2 5
M  V30 5 1 3 6
M  V30 6 2 3 7
M  V30 7 1 4 8
M  V30 8 1 5 9
M  V30 9 2 5 10
M  V30 10 1 6 11
M  V30 11 1 6 12
M  V30 12 1 7 13
M  V30 13 1 7 14
M  V30 14 2 8 15
M  V30 15 1 9 16
M  V30 16 1 10 17
M  V30 17 2 13 18
M  V30 18 1 13 19
M  V30 19 1 10 15
M  V30 20 2 11 14
M  V30 21 2 16 17
M  V30 22 1 8 20
M  V30 23 1 9 21
M  V30 24 1 11 22
M  V30 25 1 12 23
M  V30 26 1 12 24
M  V30 27 1 12 25
M  V30 28 1 16 26
M  V30 END BOND
M  V30 END CTAB
M  END
>  <Structure No>
6562

>  <LogS>
-3.21

>  <MMFF94 Energy>
25.632

$$$$
Compound 6563
Actelion Java MolfileCreator 2.0

  0  0  0  0  0  0              0 V3000
M  V30 BEGIN CTAB
M  V30 COUNTS 39 42 0 0 0
M  V30 BEGIN ATOM
M  V30 1 O 1.5263 2.5716 -0.9637 0
M  V30 2 C 1.9034 1.4169 -0.6224 0
M  V30 3 N 0.9889 0.4709 -0.2777 0
M  V30 4 C 3.2697 1.0765 -0.586 0
M  V30 5 C 1.3445 -0.76 0.0915 0
M  V30 6 C -0.453 0.6051 -0.2168 0
M  V30 7 C 3.6197 -0.239 -0.1821 0
M  V30 8 C 4.2837 1.9881 -0.9281 0
M  V30 9 N 2.6478 -1.1322 0.1537 0
M  V30 10 C 0.1809 -1.5962 0.4431 0 CFG=1
M  V30 11 N -0.9897 -0.7321 0.1525 0
M  V30 12 C 4.9659 -0.6162 -0.1278 0
M  V30 13 C 5.6248 1.5963 -0.8699 0
M  V30 14 C 0.1224 -2.8536 -0.4209 0
M  V30 15 C -1.9223 -0.6722 1.2943 0
M  V30 16 C 5.9645 0.2997 -0.4712 0
M  V30 17 C -3.2189 -0.029 0.878 0
M  V30 18 C -3.5719 1.2453 1.3532 0
M  V30 19 C -4.0751 -0.692 -0.0164 0
M  V30 20 C -4.7687 1.842 0.9443 0
M  V30 21 C -5.2709 -0.0919 -0.4226 0
M  V30 22 C -5.6179 1.1738 0.0578 0
M  V30 23 H -0.7161 1.3959 0.5215 0
M  V30 24 H -0.8463 0.8938 -1.2147 0
M  V30 25 H 4.0433 2.9976 -1.2387 0
M  V30 26 H 0.254 -1.8778 1.5188 0
M  V30 27 H 5.2404 -1.6177 0.1798 0
M  V30 28 H 6.4036 2.2999 -1.134 0
M  V30 29 H -0.7872 -3.4379 -0.1672 0
M  V30 30 H 1.0132 -3.4903 -0.2335 0
M  V30 31 H 0.086 -2.5862 -1.4992 0
M  V30 32 H -2.1548 -1.7035 1.6425 0
M  V30 33 H -1.4612 -0.1357 2.1551 0
M  V30 34 H 7.0049 0.0043 -0.4283 0
M  V30 35 H -2.9217 1.7773 2.0366 0
M  V30 36 H -3.814 -1.671 -0.3993 0
M  V30 37 H -5.0371 2.8234 1.3134 0
M  V30 38 H -5.9278 -0.6073 -1.1113 0
M  V30 39 H -6.5435 1.6375 -0.258 0
M  V30 END ATOM
M  V30 BEGIN BOND
M  V30 1 2 1 2
M  V30 2 1 2 3
M  V30 3 1 2 4
M  V30 4 1 3 5
M  V30 5 1 3 6
M  V30 6 2 4 7
M  V30 7 1 4 8
M  V30 8 2 5 9
M  V30 9 1 5 10
M  V30 10 1 6 11
M  V30 11 1 7 12
M  V30 12 2 8 13
M  V30 13 1 10 14
M  V30 14 1 11 15
M  V30 15 2 12 16
M  V30 16 1 15 17
M  V30 17 2 17 18
M  V30 18 1 17 19
M  V30 19 1 18 20
M  V30 20 2 19 21
M  V30 21 2 20 22
M  V30 22 1 7 9
M  V30 23 1 10 11
M  V30 24 1 13 16
M  V30 25 1 21 22
M  V30 26 1 6 23
M  V30 27 1 6 24
M  V30 28 1 8 25
M  V30 29 1 10 26
M  V30 30 1 12 27
M  V30 31 1 13 28
M  V30 32 1 14 29
M  V30 33 1 14 30
M  V30 34 1 14 31
M  V30 35 1 15 32
M  V30 36 1 15 33
M  V30 37 1 16 34
M  V30 38 1 18 35
M  V30 39 1 19 36
M  V30 40 1 20 37
M  V30 41 1 21 38
M  V30 42 1 22 39
M  V30 END BOND
M  V30 BEGIN COLLECTION
M  V30 MDLV30/STEABS ATOMS=(1 10)
M  V30 END COLLECTION
M  V30 END CTAB
M  END
>  <Structure No>
6563

>  <LogS>
-4.0

>  <MMFF94 Energy>
12.954

$$$$
Compound 6564
Actelion Java MolfileCreator 2.0

  0  0  0  0  0  0              0 V3000
M  V30 BEGIN CTAB
M  V30 COUNTS 35 37 0 0 0
M  V30 BEGIN ATOM
M  V30 1 O 4.4323 -0.6437 -1.4489 0
M  V30 2 C 3.2459 -0.4792 -1.0549 0
M  V30 3 C 2.1306 -0.7573 -1.9781 0
M  V30 4 C 2.968 -0.0214 0.325 0
M  V30 5 O 2.4136 -1.234 -3.2585 0
M  V30 6 C 0.8615 -0.5626 -1.5945 0
M  V30 7 C 1.6314 0.1831 0.7306 0
M  V30 8 C 4.0152 0.2075 1.2348 0
M  V30 9 C 0.5289 -0.0465 -0.2401 0
M  V30 10 C 1.3684 0.6145 2.0455 0
M  V30 11 C 3.7382 0.6344 2.5354 0
M  V30 12 N -0.7028 0.1679 0.1303 0
M  V30 13 C 2.4181 0.8367 2.9398 0
M  V30 14 C -1.8687 0.0754 -0.6981 0
M  V30 15 C -3.046 -0.5579 -0.3747 0
M  V30 16 C -2.1696 0.8118 -1.8284 0
M  V30 17 O -3.9407 -0.2511 -1.2871 0
M  V30 18 C -3.3093 -1.4147 0.8238 0
M  V30 19 N -3.4487 0.5655 -2.1772 0
M  V30 20 C -1.2823 1.7719 -2.5537 0
M  V30 21 C -3.6616 -0.5554 2.0324 0
M  V30 22 H 1.6812 -1.4394 -3.9286 0
M  V30 23 H 0.0683 -0.8104 -2.2869 0
M  V30 24 H 5.0465 0.0554 0.9421 0
M  V30 25 H 0.3533 0.7806 2.384 0
M  V30 26 H 4.5487 0.8083 3.2314 0
M  V30 27 H 2.2074 1.1678 3.9487 0
M  V30 28 H -4.1518 -2.1047 0.6041 0
M  V30 29 H -2.4094 -2.0254 1.0516 0
M  V30 30 H -0.7908 1.2562 -3.4041 0
M  V30 31 H -0.5079 2.1794 -1.8707 0
M  V30 32 H -1.8862 2.6168 -2.9456 0
M  V30 33 H -4.5688 0.0511 1.8229 0
M  V30 34 H -2.8173 0.1218 2.2842 0
M  V30 35 H -3.8646 -1.2092 2.9066 0
M  V30 END ATOM
M  V30 BEGIN BOND
M  V30 1 2 1 2
M  V30 2 1 2 3
M  V30 3 1 2 4
M  V30 4 1 3 5
M  V30 5 2 3 6
M  V30 6 2 4 7
M  V30 7 1 4 8
M  V30 8 1 6 9
M  V30 9 1 7 10
M  V30 10 2 8 11
M  V30 11 2 9 12
M  V30 12 2 10 13
M  V30 13 1 12 14
M  V30 14 2 14 15
M  V30 15 1 14 16
M  V30 16 1 15 17
M  V30 17 1 15 18
M  V30 18 2 16 19
M  V30 19 1 16 20
M  V30 20 1 18 21
M  V30 21 1 7 9
M  V30 22 1 11 13
M  V30 23 1 17 19
M  V30 24 1 5 22
M  V30 25 1 6 23
M  V30 26 1 8 24
M  V30 27 1 10 25
M  V30 28 1 11 26
M  V30 29 1 13 27
M  V30 30 1 18 28
M  V30 31 1 18 29
M  V30 32 1 20 30
M  V30 33 1 20 31
M  V30 34 1 20 32
M  V30 35 1 21 33
M  V30 36 1 21 34
M  V30 37 1 21 35
M  V30 END BOND
M  V30 END CTAB
M  END
>  <Structure No>
6564

>  <LogS>
-2.72

>  <MMFF94 Energy>
70.194

$$$$
Compound 6565
Actelion Java MolfileCreator 2.0

  0  0  0  0  0  0              0 V3000
M  V30 BEGIN CTAB
M  V30 COUNTS 22 23 0 0 0
M  V30 BEGIN ATOM
M  V30 1 Cl 0.829 1.7507 2.0273 0
M  V30 2 C 1.5707 0.6629 0.8491 0
M  V30 3 C 2.9707 0.5209 0.8078 0
M  V30 4 C 0.7629 -0.0608 -0.0528 0
M  V30 5 Cl 3.9893 1.4204 1.9329 0
M  V30 6 C 3.5578 -0.3405 -0.1339 0
M  V30 7 C 1.3642 -0.9188 -0.9925 0
M  V30 8 C -0.7074 0.0792 -0.0151 0
M  V30 9 Cl 5.3026 -0.5483 -0.2203 0
M  V30 10 C 2.7537 -1.0529 -1.0262 0
M  V30 11 Cl 0.3998 -1.8478 -2.1362 0
M  V30 12 C -1.4888 -0.6943 0.8634 0
M  V30 13 C -1.3314 0.9979 -0.8713 0
M  V30 14 Cl -0.7538 -1.8672 1.9505 0
M  V30 15 C -2.8793 -0.5391 0.8772 0
M  V30 16 C -2.7218 1.151 -0.8555 0
M  V30 17 C -3.4995 0.3792 0.0232 0
M  V30 18 Cl -3.4623 2.3153 -1.9454 0
M  V30 19 Cl -5.2497 0.5413 0.074 0
M  V30 20 H 3.2115 -1.7159 -1.7496 0
M  V30 21 H -0.7345 1.5953 -1.5501 0
M  V30 22 H -3.4798 -1.1348 1.5533 0
M  V30 END ATOM
M  V30 BEGIN BOND
M  V30 1 1 1 2
M  V30 2 2 2 3
M  V30 3 1 2 4
M  V30 4 1 3 5
M  V30 5 1 3 6
M  V30 6 2 4 7
M  V30 7 1 4 8
M  V30 8 1 6 9
M  V30 9 2 6 10
M  V30 10 1 7 11
M  V30 11 2 8 12
M  V30 12 1 8 13
M  V30 13 1 12 14
M  V30 14 1 12 15
M  V30 15 2 13 16
M  V30 16 2 15 17
M  V30 17 1 16 18
M  V30 18 1 17 19
M  V30 19 1 7 10
M  V30 20 1 16 17
M  V30 21 1 10 20
M  V30 22 1 13 21
M  V30 23 1 15 22
M  V30 END BOND
M  V30 BEGIN COLLECTION
M  V30 MDLV30/STEABS BONDS=(1 7)
M  V30 END COLLECTION
M  V30 END CTAB
M  END
>  <Structure No>
6565

>  <LogS>
-7.92

>  <MMFF94 Energy>
46.767

$$$$
Compound 6566
Actelion Java MolfileCreator 2.0

  0  0  0  0  0  0              0 V3000
M  V30 BEGIN CTAB
M  V30 COUNTS 36 37 0 0 0
M  V30 BEGIN ATOM
M  V30 1 S 1.3914 3.1123 0.2454 0
M  V30 2 O 2.3488 4.1937 -0.1686 0
M  V30 3 O 0.5759 3.6008 1.4102 0
M  V30 4 N 0.3287 2.7511 -1.0785 0
M  V30 5 C 2.3138 1.6789 0.6872 0
M  V30 6 C -0.6177 1.667 -1.0775 0
M  V30 7 C 2.763 0.803 -0.3078 0
M  V30 8 C 2.5997 1.4048 2.0302 0
M  V30 9 C -1.2708 1.329 -2.2723 0
M  V30 10 C -0.9125 0.9362 0.0884 0
M  V30 11 C 3.4845 -0.3436 0.0355 0
M  V30 12 C 3.3218 0.259 2.3765 0
M  V30 13 C -2.1898 0.2769 -2.3077 0
M  V30 14 C -1.8315 -0.1167 0.0518 0
M  V30 15 C 3.7712 -0.6293 1.382 0
M  V30 16 C -2.4773 -0.4551 -1.1515 0
M  V30 17 N 4.5133 -1.8114 1.7335 0 CHG=1
M  V30 18 O -3.4052 -1.5034 -1.2393 0
M  V30 19 O 4.771 -2.0701 2.9275 0
M  V30 20 O 4.9508 -2.678 0.7582 0 CHG=-1
M  V30 21 C -3.7907 -2.3314 -0.1451 0
M  V30 22 C -4.8092 -3.3559 -0.6183 0
M  V30 23 H 0.4472 3.3195 -1.947 0
M  V30 24 H 2.5518 1.0059 -1.3502 0
M  V30 25 H 2.2632 2.0752 2.8106 0
M  V30 26 H -1.0629 1.879 -3.1816 0
M  V30 27 H -0.4442 1.1727 1.0326 0
M  V30 28 H 3.8173 -1.0061 -0.7528 0
M  V30 29 H 3.528 0.0679 3.4218 0
M  V30 30 H -2.6809 0.0282 -3.2399 0
M  V30 31 H -2.0336 -0.6594 0.9651 0
M  V30 32 H -2.9009 -2.8623 0.2571 0
M  V30 33 H -4.2459 -1.7095 0.6558 0
M  V30 34 H -5.7082 -2.8405 -1.0183 0
M  V30 35 H -5.1126 -4.0034 0.2311 0
M  V30 36 H -4.3671 -3.99 -1.4156 0
M  V30 END ATOM
M  V30 BEGIN BOND
M  V30 1 2 1 2
M  V30 2 2 1 3
M  V30 3 1 1 4
M  V30 4 1 1 5
M  V30 5 1 4 6
M  V30 6 2 5 7
M  V30 7 1 5 8
M  V30 8 2 6 9
M  V30 9 1 6 10
M  V30 10 1 7 11
M  V30 11 2 8 12
M  V30 12 1 9 13
M  V30 13 2 10 14
M  V30 14 2 11 15
M  V30 15 2 13 16
M  V30 16 1 15 17
M  V30 17 1 16 18
M  V30 18 2 17 19
M  V30 19 1 17 20
M  V30 20 1 18 21
M  V30 21 1 21 22
M  V30 22 1 12 15
M  V30 23 1 14 16
M  V30 24 1 4 23
M  V30 25 1 7 24
M  V30 26 1 8 25
M  V30 27 1 9 26
M  V30 28 1 10 27
M  V30 29 1 11 28
M  V30 30 1 12 29
M  V30 31 1 13 30
M  V30 32 1 14 31
M  V30 33 1 21 32
M  V30 34 1 21 33
M  V30 35 1 22 34
M  V30 36 1 22 35
M  V30 37 1 22 36
M  V30 END BOND
M  V30 END CTAB
M  END
>  <Structure No>
6566

>  <LogS>
-4.72

>  <MMFF94 Energy>
32.088

$$$$
Compound 6567
Actelion Java MolfileCreator 2.0

  0  0  0  0  0  0              0 V3000
M  V30 BEGIN CTAB
M  V30 COUNTS 40 42 0 0 0
M  V30 BEGIN ATOM
M  V30 1 Cl -3.0928 -3.6634 -0.8945 0
M  V30 2 C -1.5472 -2.8667 -0.6408 0
M  V30 3 C -1.3798 -1.5027 -0.93 0
M  V30 4 C -0.4636 -3.6155 -0.1709 0
M  V30 5 O -2.447 -0.7282 -1.3903 0
M  V30 6 C -0.1236 -0.9077 -0.771 0
M  V30 7 C 0.7871 -3.016 0.0039 0
M  V30 8 C -3.4675 -0.2523 -0.5136 0
M  V30 9 C 0.968 -1.6555 -0.3023 0
M  V30 10 F 1.8095 -3.7544 0.5032 0
M  V30 11 C -2.9509 0.8519 0.396 0
M  V30 12 C -4.5945 0.3897 -1.3028 0
M  V30 13 N 2.2506 -1.0266 -0.1297 0
M  V30 14 C -4.1608 1.7224 0.708 0
M  V30 15 C -5.1985 1.4396 -0.3778 0
M  V30 16 C 3.4587 -1.4575 -0.5519 0
M  V30 17 C 2.5223 0.1605 0.4458 0
M  V30 18 O 3.6416 -2.5297 -1.1872 0
M  V30 19 O 4.4281 -0.6174 -0.2601 0
M  V30 20 O 1.6522 0.9165 0.955 0
M  V30 21 C 3.8857 0.4043 0.3701 0 CHG=-1 CFG=1
M  V30 22 C 4.6608 1.57 0.8586 0
M  V30 23 C 4.1932 2.3805 1.8148 0
M  V30 24 C 6.0604 1.7687 0.3489 0
M  V30 25 H -0.5909 -4.6652 0.0614 0
M  V30 26 H 0.0013 0.1388 -1.0182 0
M  V30 27 H -3.8781 -1.0839 0.1018 0
M  V30 28 H -2.5003 0.4327 1.3216 0
M  V30 29 H -2.1877 1.4594 -0.1393 0
M  V30 30 H -5.3506 -0.3651 -1.6098 0
M  V30 31 H -4.1873 0.8881 -2.2108 0
M  V30 32 H -4.5732 1.451 1.7047 0
M  V30 33 H -3.8772 2.7975 0.7184 0
M  V30 34 H -5.4425 2.3647 -0.9443 0
M  V30 35 H -6.131 1.0461 0.0832 0
M  V30 36 H 3.2248 2.2347 2.2695 0
M  V30 37 H 4.7944 3.2012 2.1867 0
M  V30 38 H 6.3348 2.8457 0.3444 0
M  V30 39 H 6.1521 1.3932 -0.692 0
M  V30 40 H 6.7722 1.2151 0.9963 0
M  V30 END ATOM
M  V30 BEGIN BOND
M  V30 1 1 1 2
M  V30 2 2 2 3
M  V30 3 1 2 4
M  V30 4 1 3 5
M  V30 5 1 3 6
M  V30 6 2 4 7
M  V30 7 1 5 8
M  V30 8 2 6 9
M  V30 9 1 7 10
M  V30 10 1 8 11
M  V30 11 1 8 12
M  V30 12 1 9 13
M  V30 13 1 11 14
M  V30 14 1 12 15
M  V30 15 1 13 16
M  V30 16 1 13 17
M  V30 17 2 16 18
M  V30 18 1 16 19
M  V30 19 2 17 20
M  V30 20 1 17 21
M  V30 21 1 21 22
M  V30 22 2 22 23
M  V30 23 1 22 24
M  V30 24 1 7 9
M  V30 25 1 14 15
M  V30 26 1 19 21
M  V30 27 1 4 25
M  V30 28 1 6 26
M  V30 29 1 8 27
M  V30 30 1 11 28
M  V30 31 1 11 29
M  V30 32 1 12 30
M  V30 33 1 12 31
M  V30 34 1 14 32
M  V30 35 1 14 33
M  V30 36 1 15 34
M  V30 37 1 15 35
M  V30 38 1 23 36
M  V30 39 1 23 37
M  V30 40 1 24 38
M  V30 41 1 24 39
M  V30 42 1 24 40
M  V30 END BOND
M  V30 BEGIN COLLECTION
M  V30 MDLV30/STEABS ATOMS=(1 21)
M  V30 END COLLECTION
M  V30 END CTAB
M  END
>  <Structure No>
6567

>  <LogS>
-6.21

>  <MMFF94 Energy>
30.321

$$$$
Compound 6568
Actelion Java MolfileCreator 2.0

  0  0  0  0  0  0              0 V3000
M  V30 BEGIN CTAB
M  V30 COUNTS 43 45 0 0 0
M  V30 BEGIN ATOM
M  V30 1 O 0.241 -1.1252 3.3786 0
M  V30 2 C -0.0093 -1.063 2.1459 0
M  V30 3 N 0.9173 -1.4265 1.138 0
M  V30 4 N -1.241 -0.5851 1.626 0
M  V30 5 C 0.2447 -1.0938 -0.0721 0
M  V30 6 C 2.3639 -1.4888 1.3052 0
M  V30 7 C -1.1579 -0.577 0.1622 0
M  V30 8 O 0.7908 -1.1814 -1.2054 0
M  V30 9 O 2.8939 -0.1678 1.3146 0
M  V30 10 C -2.2596 -1.4888 -0.3829 0
M  V30 11 C -1.2504 0.8431 -0.3989 0
M  V30 12 C 4.2605 0.0972 1.4284 0
M  V30 13 C -3.6003 -1.0563 -0.3171 0
M  V30 14 C -1.9973 -2.7837 -0.8836 0
M  V30 15 C -1.4816 1.0415 -1.7764 0
M  V30 16 C -1.0095 1.9747 0.4104 0
M  V30 17 O 5.0944 -0.8448 1.52 0
M  V30 18 C 4.7377 1.5138 1.393 0
M  V30 19 C -4.6385 -1.8713 -0.7765 0
M  V30 20 C -3.0408 -3.594 -1.3413 0
M  V30 21 C -1.5233 2.3305 -2.315 0
M  V30 22 C -1.0512 3.2613 -0.1351 0
M  V30 23 C 4.8082 2.0179 -0.0434 0
M  V30 24 C -4.3586 -3.1373 -1.292 0
M  V30 25 C -1.3133 3.4396 -1.4943 0
M  V30 26 H -2.055 -0.265 2.1977 0
M  V30 27 H 2.8091 -2.0682 0.4678 0
M  V30 28 H 2.6085 -2.0006 2.2609 0
M  V30 29 H -3.8422 -0.0826 0.0909 0
M  V30 30 H -0.9928 -3.1817 -0.9208 0
M  V30 31 H -1.628 0.196 -2.4367 0
M  V30 32 H -0.7812 1.8723 1.4628 0
M  V30 33 H 4.0367 2.1512 1.9735 0
M  V30 34 H 5.7434 1.5877 1.8609 0
M  V30 35 H -5.662 -1.5223 -0.7273 0
M  V30 36 H -2.8271 -4.5817 -1.7293 0
M  V30 37 H -1.7117 2.469 -3.372 0
M  V30 38 H -0.8727 4.1218 0.4968 0
M  V30 39 H 5.5189 1.3999 -0.6335 0
M  V30 40 H 3.8039 1.9764 -0.5179 0
M  V30 41 H 5.1613 3.0707 -0.0509 0
M  V30 42 H -5.164 -3.7682 -1.6451 0
M  V30 43 H -1.3432 4.4369 -1.9137 0
M  V30 END ATOM
M  V30 BEGIN BOND
M  V30 1 2 1 2
M  V30 2 1 2 3
M  V30 3 1 2 4
M  V30 4 1 3 5
M  V30 5 1 3 6
M  V30 6 1 4 7
M  V30 7 2 5 8
M  V30 8 1 6 9
M  V30 9 1 7 10
M  V30 10 1 7 11
M  V30 11 1 9 12
M  V30 12 2 10 13
M  V30 13 1 10 14
M  V30 14 2 11 15
M  V30 15 1 11 16
M  V30 16 2 12 17
M  V30 17 1 12 18
M  V30 18 1 13 19
M  V30 19 2 14 20
M  V30 20 1 15 21
M  V30 21 2 16 22
M  V30 22 1 18 23
M  V30 23 2 19 24
M  V30 24 2 21 25
M  V30 25 1 5 7
M  V30 26 1 20 24
M  V30 27 1 22 25
M  V30 28 1 4 26
M  V30 29 1 6 27
M  V30 30 1 6 28
M  V30 31 1 13 29
M  V30 32 1 14 30
M  V30 33 1 15 31
M  V30 34 1 16 32
M  V30 35 1 18 33
M  V30 36 1 18 34
M  V30 37 1 19 35
M  V30 38 1 20 36
M  V30 39 1 21 37
M  V30 40 1 22 38
M  V30 41 1 23 39
M  V30 42 1 23 40
M  V30 43 1 23 41
M  V30 44 1 24 42
M  V30 45 1 25 43
M  V30 END BOND
M  V30 END CTAB
M  END
>  <Structure No>
6568

>  <LogS>
-4.91

>  <MMFF94 Energy>
-37.843

$$$$
Compound 6569
Actelion Java MolfileCreator 2.0

  0  0  0  0  0  0              0 V3000
M  V30 BEGIN CTAB
M  V30 COUNTS 22 23 0 0 0
M  V30 BEGIN ATOM
M  V30 1 Cl -5.2626 0.6453 -0.1843 0
M  V30 2 C -3.5101 0.4399 -0.1234 0
M  V30 3 C -2.8529 -0.2874 -1.1307 0
M  V30 4 C -2.7731 1.004 0.9324 0
M  V30 5 Cl -3.7801 -0.9951 -2.456 0
M  V30 6 C -1.4579 -0.452 -1.0833 0
M  V30 7 Cl -3.6003 1.9172 2.197 0
M  V30 8 C -1.378 0.8409 0.9823 0
M  V30 9 Cl -0.6344 -1.3685 -2.3506 0
M  V30 10 C -0.7183 0.111 -0.0253 0
M  V30 11 Cl -0.4541 1.5499 2.312 0
M  V30 12 C 0.7483 -0.0639 0.0276 0
M  V30 13 C 1.3256 -1.1634 0.6928 0
M  V30 14 C 1.576 0.8822 -0.5958 0
M  V30 15 Cl 0.3301 -2.3765 1.4898 0
M  V30 16 C 2.718 -1.3026 0.7261 0
M  V30 17 C 2.9662 0.736 -0.5579 0
M  V30 18 C 3.5359 -0.3563 0.103 0
M  V30 19 Cl 3.9946 1.9227 -1.3394 0
M  V30 20 H 1.1393 1.7306 -1.1093 0
M  V30 21 H 3.1683 -2.1451 1.2355 0
M  V30 22 H 4.6117 -0.473 0.1345 0
M  V30 END ATOM
M  V30 BEGIN BOND
M  V30 1 1 1 2
M  V30 2 2 2 3
M  V30 3 1 2 4
M  V30 4 1 3 5
M  V30 5 1 3 6
M  V30 6 1 4 7
M  V30 7 2 4 8
M  V30 8 1 6 9
M  V30 9 2 6 10
M  V30 10 1 8 11
M  V30 11 1 10 12
M  V30 12 2 12 13
M  V30 13 1 12 14
M  V30 14 1 13 15
M  V30 15 1 13 16
M  V30 16 2 14 17
M  V30 17 2 16 18
M  V30 18 1 17 19
M  V30 19 1 8 10
M  V30 20 1 17 18
M  V30 21 1 14 20
M  V30 22 1 16 21
M  V30 23 1 18 22
M  V30 END BOND
M  V30 END CTAB
M  END
>  <Structure No>
6569

>  <LogS>
-8.46

>  <MMFF94 Energy>
55.752

$$$$
Compound 6570
Actelion Java MolfileCreator 2.0

  0  0  0  0  0  0              0 V3000
M  V30 BEGIN CTAB
M  V30 COUNTS 33 34 0 0 0
M  V30 BEGIN ATOM
M  V30 1 S 0.0 -0.9879 -0.9056 0
M  V30 2 O -0.2677 -1.9083 -2.0627 0
M  V30 3 O 0.3899 -1.7984 0.299 0
M  V30 4 N 1.3028 0.0742 -1.337 0 CHG=-1
M  V30 5 C -1.4544 -0.0521 -0.5227 0
M  V30 6 C 2.4936 0.1945 -0.5534 0
M  V30 7 C -2.7073 -0.6764 -0.3013 0
M  V30 8 C -1.3557 1.3447 -0.422 0
M  V30 9 C 3.3479 -0.9098 -0.3115 0
M  V30 10 C 2.7967 1.4427 0.0059 0
M  V30 11 C -3.8317 0.1181 -0.0131 0
M  V30 12 C -2.8777 -2.1699 -0.3998 0
M  V30 13 C -2.4779 2.1189 -0.1242 0
M  V30 14 N 3.1472 -2.1757 -0.9629 0 CHG=1
M  V30 15 C 4.4476 -0.7449 0.5492 0
M  V30 16 C 3.9034 1.5935 0.8432 0
M  V30 17 C -3.7204 1.5108 0.0783 0
M  V30 18 O 2.6933 -2.2246 -2.1246 0
M  V30 19 O 3.6215 -3.3319 -0.387 0 CHG=-1
M  V30 20 C 4.7211 0.4988 1.1234 0
M  V30 21 N -4.8704 2.3072 0.3775 0
M  V30 22 H -0.409 1.8447 -0.5735 0
M  V30 23 H 2.1562 2.2943 -0.1872 0
M  V30 24 H -4.7985 -0.3453 0.1431 0
M  V30 25 H -3.8735 -2.4924 -0.0276 0
M  V30 26 H -2.1124 -2.6883 0.2132 0
M  V30 27 H -2.786 -2.4878 -1.4589 0
M  V30 28 H -2.3789 3.195 -0.0535 0
M  V30 29 H 5.1137 -1.5733 0.7536 0
M  V30 30 H 4.1223 2.5585 1.2821 0
M  V30 31 H 5.5769 0.6168 1.7756 0
M  V30 32 H -4.7974 3.3468 0.4479 0
M  V30 33 H -5.8035 1.8634 0.531 0
M  V30 END ATOM
M  V30 BEGIN BOND
M  V30 1 2 1 2
M  V30 2 2 1 3
M  V30 3 1 1 4
M  V30 4 1 1 5
M  V30 5 1 4 6
M  V30 6 2 5 7
M  V30 7 1 5 8
M  V30 8 2 6 9
M  V30 9 1 6 10
M  V30 10 1 7 11
M  V30 11 1 7 12
M  V30 12 2 8 13
M  V30 13 1 9 14
M  V30 14 1 9 15
M  V30 15 2 10 16
M  V30 16 2 11 17
M  V30 17 2 14 18
M  V30 18 1 14 19
M  V30 19 2 15 20
M  V30 20 1 17 21
M  V30 21 1 13 17
M  V30 22 1 16 20
M  V30 23 1 8 22
M  V30 24 1 10 23
M  V30 25 1 11 24
M  V30 26 1 12 25
M  V30 27 1 12 26
M  V30 28 1 12 27
M  V30 29 1 13 28
M  V30 30 1 15 29
M  V30 31 1 16 30
M  V30 32 1 20 31
M  V30 33 1 21 32
M  V30 34 1 21 33
M  V30 END BOND
M  V30 END CTAB
M  END
>  <Structure No>
6570

>  <LogS>
-4.51

>  <MMFF94 Energy>
134.36

$$$$
Compound 6571
Actelion Java MolfileCreator 2.0

  0  0  0  0  0  0              0 V3000
M  V30 BEGIN CTAB
M  V30 COUNTS 36 39 0 0 0
M  V30 BEGIN ATOM
M  V30 1 C 0.5621 -0.0802 -0.0802 0
M  V30 2 C 1.9407 -0.4034 0.1499 0
M  V30 3 C 0.1377 1.2714 0.0932 0
M  V30 4 C -0.4062 -1.0365 -0.5045 0
M  V30 5 C 2.8915 0.6435 0.2747 0
M  V30 6 C 2.3947 -1.7252 0.3763 0
M  V30 7 C -1.2487 1.5942 0.0714 0
M  V30 8 C 1.1133 2.2741 0.2874 0
M  V30 9 C -1.7787 -0.7705 -0.2882 0
M  V30 10 C -0.0199 -2.2345 -1.3526 0
M  V30 11 C 2.4667 1.969 0.3125 0
M  V30 12 C 4.257 0.352 0.4299 0
M  V30 13 C 3.7532 -2.0023 0.5458 0
M  V30 14 C -2.1992 0.5416 0.0498 0
M  V30 15 C -1.7083 3.0434 0.0888 0
M  V30 16 C -2.7473 -1.7944 -0.4064 0
M  V30 17 C 4.6853 -0.9684 0.5444 0
M  V30 18 C -3.5689 0.767 0.3284 0
M  V30 19 C -4.0939 -1.537 -0.1579 0
M  V30 20 C -4.5013 -0.2633 0.22 0
M  V30 21 H 1.7103 -2.5503 0.4844 0
M  V30 22 H 0.8521 3.3105 0.4413 0
M  V30 23 H -0.0743 -3.1695 -0.757 0
M  V30 24 H 0.9886 -2.1186 -1.7999 0
M  V30 25 H -0.7133 -2.3264 -2.2156 0
M  V30 26 H 3.1823 2.7733 0.4414 0
M  V30 27 H 4.9895 1.1482 0.4962 0
M  V30 28 H 4.0812 -3.0224 0.6996 0
M  V30 29 H -1.0483 3.6816 -0.5324 0
M  V30 30 H -1.7331 3.4218 1.1321 0
M  V30 31 H -2.7031 3.1731 -0.3817 0
M  V30 32 H -2.4707 -2.8103 -0.6548 0
M  V30 33 H 5.7368 -1.1873 0.6787 0
M  V30 34 H -3.9343 1.7264 0.6655 0
M  V30 35 H -4.8213 -2.3347 -0.2384 0
M  V30 36 H -5.5449 -0.0735 0.437 0
M  V30 END ATOM
M  V30 BEGIN BOND
M  V30 1 2 1 2
M  V30 2 1 1 3
M  V30 3 1 1 4
M  V30 4 1 2 5
M  V30 5 1 2 6
M  V30 6 1 3 7
M  V30 7 2 3 8
M  V30 8 2 4 9
M  V30 9 1 4 10
M  V30 10 2 5 11
M  V30 11 1 5 12
M  V30 12 2 6 13
M  V30 13 2 7 14
M  V30 14 1 7 15
M  V30 15 1 9 16
M  V30 16 2 12 17
M  V30 17 1 14 18
M  V30 18 2 16 19
M  V30 19 2 18 20
M  V30 20 1 8 11
M  V30 21 1 9 14
M  V30 22 1 13 17
M  V30 23 1 19 20
M  V30 24 1 6 21
M  V30 25 1 8 22
M  V30 26 1 10 23
M  V30 27 1 10 24
M  V30 28 1 10 25
M  V30 29 1 11 26
M  V30 30 1 12 27
M  V30 31 1 13 28
M  V30 32 1 15 29
M  V30 33 1 15 30
M  V30 34 1 15 31
M  V30 35 1 16 32
M  V30 36 1 17 33
M  V30 37 1 18 34
M  V30 38 1 19 35
M  V30 39 1 20 36
M  V30 END BOND
M  V30 END CTAB
M  END
>  <Structure No>
6571

>  <LogS>
-6.78

>  <MMFF94 Energy>
95.048

$$$$
Compound 6572
Actelion Java MolfileCreator 2.0

  0  0  0  0  0  0              0 V3000
M  V30 BEGIN CTAB
M  V30 COUNTS 28 30 0 0 0
M  V30 BEGIN ATOM
M  V30 1 Cl -3.0831 -2.4993 0.666 0
M  V30 2 C -3.6937 -0.8992 0.2519 0
M  V30 3 C -2.8418 0.1989 -0.0308 0
M  V30 4 C -5.0833 -0.7192 0.2643 0
M  V30 5 C -1.3635 0.0723 -0.0784 0
M  V30 6 C -3.422 1.4592 -0.2756 0
M  V30 7 C -5.6384 0.5346 0.0064 0
M  V30 8 N -0.5741 1.137 0.2181 0
M  V30 9 N -0.7684 -1.0864 -0.4595 0
M  V30 10 C -4.809 1.6227 -0.2596 0
M  V30 11 N 0.7527 1.0405 0.1537 0
M  V30 12 N 0.5584 -1.1825 -0.5235 0
M  V30 13 C 1.3498 -0.122 -0.2161 0
M  V30 14 C 2.8327 -0.2301 -0.2867 0
M  V30 15 C 3.4478 -1.2784 -1.0095 0
M  V30 16 C 3.6584 0.7132 0.3679 0
M  V30 17 F 2.71 -2.2016 -1.677 0
M  V30 18 C 4.8417 -1.3732 -1.0712 0
M  V30 19 F 3.128 1.7286 1.0959 0
M  V30 20 C 5.0509 0.605 0.2975 0
M  V30 21 C 5.6411 -0.4345 -0.4199 0
M  V30 22 H -5.7376 -1.5533 0.4849 0
M  V30 23 H -2.802 2.3193 -0.4968 0
M  V30 24 H -6.713 0.664 0.0195 0
M  V30 25 H -5.2409 2.5956 -0.4564 0
M  V30 26 H 5.3045 -2.1765 -1.6301 0
M  V30 27 H 5.6755 1.3292 0.8048 0
M  V30 28 H 6.7194 -0.5131 -0.471 0
M  V30 END ATOM
M  V30 BEGIN BOND
M  V30 1 1 1 2
M  V30 2 2 2 3
M  V30 3 1 2 4
M  V30 4 1 3 5
M  V30 5 1 3 6
M  V30 6 2 4 7
M  V30 7 2 5 8
M  V30 8 1 5 9
M  V30 9 2 6 10
M  V30 10 1 8 11
M  V30 11 2 9 12
M  V30 12 2 11 13
M  V30 13 1 13 14
M  V30 14 2 14 15
M  V30 15 1 14 16
M  V30 16 1 15 17
M  V30 17 1 15 18
M  V30 18 1 16 19
M  V30 19 2 16 20
M  V30 20 2 18 21
M  V30 21 1 7 10
M  V30 22 1 12 13
M  V30 23 1 20 21
M  V30 24 1 4 22
M  V30 25 1 6 23
M  V30 26 1 7 24
M  V30 27 1 10 25
M  V30 28 1 18 26
M  V30 29 1 20 27
M  V30 30 1 21 28
M  V30 END BOND
M  V30 END CTAB
M  END
>  <Structure No>
6572

>  <LogS>
-6.12

>  <MMFF94 Energy>
107.27

$$$$
Compound 6573
Actelion Java MolfileCreator 2.0

  0  0  0  0  0  0              0 V3000
M  V30 BEGIN CTAB
M  V30 COUNTS 57 60 0 0 0
M  V30 BEGIN ATOM
M  V30 1 N -1.3509 -0.556 0.0 0 CHG=1
M  V30 2 C -2.6324 -0.1054 0.6299 0
M  V30 3 C -0.4601 0.6009 -0.2641 0
M  V30 4 C -0.6449 -1.5205 0.8784 0
M  V30 5 C -3.3875 0.9225 -0.208 0
M  V30 6 C -3.5827 -1.2547 0.9554 0
M  V30 7 C 0.8805 0.158 -0.88 0
M  V30 8 C 0.6701 -1.9928 0.2394 0
M  V30 9 C -3.881 2.0901 0.405 0
M  V30 10 C -3.6498 0.7147 -1.5778 0
M  V30 11 C -4.1981 -1.3081 2.2208 0
M  V30 12 C -3.9048 -2.2446 0.0041 0
M  V30 13 N 1.5714 -0.8672 -0.0697 0
M  V30 14 C -4.5972 3.0343 -0.3365 0
M  V30 15 C -4.3663 1.6629 -2.3141 0
M  V30 16 C -5.092 -2.3362 2.5342 0
M  V30 17 C -4.7992 -3.2705 0.3237 0
M  V30 18 C 2.2265 -0.316 1.1373 0
M  V30 19 C -4.838 2.822 -1.695 0
M  V30 20 C -5.3906 -3.3176 1.5875 0
M  V30 21 C 3.4542 0.4627 0.7634 0
M  V30 22 C 4.498 -0.1339 0.1744 0
M  V30 23 C 5.7428 0.5717 -0.216 0
M  V30 24 C 5.7965 1.9687 -0.4046 0
M  V30 25 C 6.9039 -0.1877 -0.4413 0
M  V30 26 C 6.9932 2.5846 -0.7852 0
M  V30 27 C 8.0974 0.4337 -0.821 0
M  V30 28 C 8.1428 1.8189 -0.9898 0
M  V30 29 H -1.5486 -1.0283 -0.912 0
M  V30 30 H -2.3626 0.3855 1.5952 0
M  V30 31 H -0.2799 1.1819 0.6668 0
M  V30 32 H -0.9322 1.2964 -0.9914 0
M  V30 33 H -0.4383 -1.0704 1.8754 0
M  V30 34 H -1.2665 -2.4262 1.046 0
M  V30 35 H 1.5308 1.0478 -1.025 0
M  V30 36 H 0.689 -0.2572 -1.8936 0
M  V30 37 H 1.1712 -2.7246 0.9104 0
M  V30 38 H 0.4401 -2.5401 -0.7009 0
M  V30 39 H -3.7134 2.2717 1.4594 0
M  V30 40 H -3.3004 -0.172 -2.0855 0
M  V30 41 H -3.988 -0.5527 2.9678 0
M  V30 42 H -3.4666 -2.2354 -0.9828 0
M  V30 43 H -4.9683 3.9305 0.144 0
M  V30 44 H -4.5577 1.4975 -3.3664 0
M  V30 45 H -5.5558 -2.3698 3.5117 0
M  V30 46 H -5.0355 -4.0292 -0.4109 0
M  V30 47 H 1.5379 0.3371 1.7125 0
M  V30 48 H 2.5442 -1.135 1.8203 0
M  V30 49 H -5.3933 3.5539 -2.2673 0
M  V30 50 H -6.0836 -4.1124 1.8317 0
M  V30 51 H 3.4772 1.5144 1.0134 0
M  V30 52 H 4.4491 -1.2039 0.0027 0
M  V30 53 H 4.9191 2.5885 -0.2844 0
M  V30 54 H 6.8892 -1.2636 -0.3154 0
M  V30 55 H 7.027 3.657 -0.9288 0
M  V30 56 H 8.9874 -0.1599 -0.9853 0
M  V30 57 H 9.067 2.2983 -1.2854 0
M  V30 END ATOM
M  V30 BEGIN BOND
M  V30 1 1 1 2
M  V30 2 1 1 3
M  V30 3 1 1 4
M  V30 4 1 2 5
M  V30 5 1 2 6
M  V30 6 1 3 7
M  V30 7 1 4 8
M  V30 8 2 5 9
M  V30 9 1 5 10
M  V30 10 2 6 11
M  V30 11 1 6 12
M  V30 12 1 7 13
M  V30 13 1 9 14
M  V30 14 2 10 15
M  V30 15 1 11 16
M  V30 16 2 12 17
M  V30 17 1 13 18
M  V30 18 2 14 19
M  V30 19 2 16 20
M  V30 20 1 18 21
M  V30 21 2 21 22
M  V30 22 1 22 23
M  V30 23 2 23 24
M  V30 24 1 23 25
M  V30 25 1 24 26
M  V30 26 2 25 27
M  V30 27 2 26 28
M  V30 28 1 8 13
M  V30 29 1 15 19
M  V30 30 1 17 20
M  V30 31 1 27 28
M  V30 32 1 1 29
M  V30 33 1 2 30
M  V30 34 1 3 31
M  V30 35 1 3 32
M  V30 36 1 4 33
M  V30 37 1 4 34
M  V30 38 1 7 35
M  V30 39 1 7 36
M  V30 40 1 8 37
M  V30 41 1 8 38
M  V30 42 1 9 39
M  V30 43 1 10 40
M  V30 44 1 11 41
M  V30 45 1 12 42
M  V30 46 1 14 43
M  V30 47 1 15 44
M  V30 48 1 16 45
M  V30 49 1 17 46
M  V30 50 1 18 47
M  V30 51 1 18 48
M  V30 52 1 19 49
M  V30 53 1 20 50
M  V30 54 1 21 51
M  V30 55 1 22 52
M  V30 56 1 24 53
M  V30 57 1 25 54
M  V30 58 1 26 55
M  V30 59 1 27 56
M  V30 60 1 28 57
M  V30 END BOND
M  V30 END CTAB
M  END
>  <Structure No>
6573

>  <LogS>
-4.2

>  <MMFF94 Energy>
123.21

$$$$
Compound 6574
Actelion Java MolfileCreator 2.0

  0  0  0  0  0  0              0 V3000
M  V30 BEGIN CTAB
M  V30 COUNTS 38 40 0 0 0
M  V30 BEGIN ATOM
M  V30 1 O -4.9871 0.9637 0.1605 0
M  V30 2 C -3.7504 0.7329 0.0771 0
M  V30 3 C -2.8636 1.7152 -0.5829 0
M  V30 4 C -3.181 -0.5103 0.6444 0
M  V30 5 O -3.3785 2.9137 -1.0761 0
M  V30 6 C -1.5552 1.4731 -0.7104 0
M  V30 7 C -1.7989 -0.7634 0.5107 0
M  V30 8 C -3.9972 -1.4373 1.3168 0
M  V30 9 C -0.9432 0.2127 -0.2134 0
M  V30 10 C -1.2583 -1.9443 1.0558 0
M  V30 11 C -3.4462 -2.6033 1.8522 0
M  V30 12 N 0.3283 -0.0367 -0.3569 0
M  V30 13 C -2.0801 -2.8557 1.7225 0
M  V30 14 C 1.273 0.7528 -1.0902 0
M  V30 15 C 2.5234 1.1286 -0.6585 0
M  V30 16 C 1.2676 1.0495 -2.4399 0
M  V30 17 O 3.1671 1.6559 -1.6756 0
M  V30 18 C 3.0981 0.9406 0.7106 0
M  V30 19 N 2.4426 1.6287 -2.7599 0
M  V30 20 C 0.1902 0.7552 -3.4335 0
M  V30 21 C 3.6562 -0.4762 0.8681 0
M  V30 22 C 4.2443 -0.6841 2.2604 0
M  V30 23 H -4.3617 3.1446 -1.0002 0
M  V30 24 H -0.9363 2.2323 -1.1699 0
M  V30 25 H -5.0594 -1.2602 1.4301 0
M  V30 26 H -0.2019 -2.165 0.9679 0
M  V30 27 H -4.0798 -3.3124 2.3693 0
M  V30 28 H -1.6568 -3.7607 2.139 0
M  V30 29 H 2.3052 1.1231 1.4685 0
M  V30 30 H 3.9085 1.685 0.8674 0
M  V30 31 H -0.425 -0.1056 -3.0981 0
M  V30 32 H -0.458 1.6471 -3.5562 0
M  V30 33 H 0.6443 0.5029 -4.4142 0
M  V30 34 H 2.8452 -1.22 0.7068 0
M  V30 35 H 4.4511 -0.6518 0.1105 0
M  V30 36 H 3.4613 -0.5394 3.0352 0
M  V30 37 H 5.0748 0.0315 2.4394 0
M  V30 38 H 4.6412 -1.7176 2.3456 0
M  V30 END ATOM
M  V30 BEGIN BOND
M  V30 1 2 1 2
M  V30 2 1 2 3
M  V30 3 1 2 4
M  V30 4 1 3 5
M  V30 5 2 3 6
M  V30 6 2 4 7
M  V30 7 1 4 8
M  V30 8 1 6 9
M  V30 9 1 7 10
M  V30 10 2 8 11
M  V30 11 2 9 12
M  V30 12 2 10 13
M  V30 13 1 12 14
M  V30 14 2 14 15
M  V30 15 1 14 16
M  V30 16 1 15 17
M  V30 17 1 15 18
M  V30 18 2 16 19
M  V30 19 1 16 20
M  V30 20 1 18 21
M  V30 21 1 21 22
M  V30 22 1 7 9
M  V30 23 1 11 13
M  V30 24 1 17 19
M  V30 25 1 5 23
M  V30 26 1 6 24
M  V30 27 1 8 25
M  V30 28 1 10 26
M  V30 29 1 11 27
M  V30 30 1 13 28
M  V30 31 1 18 29
M  V30 32 1 18 30
M  V30 33 1 20 31
M  V30 34 1 20 32
M  V30 35 1 20 33
M  V30 36 1 21 34
M  V30 37 1 21 35
M  V30 38 1 22 36
M  V30 39 1 22 37
M  V30 40 1 22 38
M  V30 END BOND
M  V30 END CTAB
M  END
>  <Structure No>
6574

>  <LogS>
-3.7

>  <MMFF94 Energy>
70.062

$$$$
Compound 6575
Actelion Java MolfileCreator 2.0

  0  0  0  0  0  0              0 V3000
M  V30 BEGIN CTAB
M  V30 COUNTS 29 30 0 0 0
M  V30 BEGIN ATOM
M  V30 1 Cl 4.5448 -0.3424 2.3992 0
M  V30 2 C 3.2341 -0.9129 1.375 0
M  V30 3 C 1.9172 -0.987 1.8517 0
M  V30 4 C 3.519 -1.298 0.0624 0
M  V30 5 Cl 1.5156 -0.5154 3.4976 0
M  V30 6 C 0.8973 -1.4443 1.0116 0
M  V30 7 C 2.501 -1.7529 -0.7831 0
M  V30 8 C 1.1718 -1.8233 -0.3158 0
M  V30 9 Cl 2.9252 -2.1887 -2.4342 0
M  V30 10 N 0.1176 -2.2837 -1.182 0
M  V30 11 S -1.5419 -1.8149 -0.9862 0
M  V30 12 O -2.2863 -2.072 -2.2656 0
M  V30 13 O -2.1583 -2.6342 0.113 0
M  V30 14 C -1.6377 -0.0959 -0.6144 0
M  V30 15 C -2.47 0.3675 0.4138 0
M  V30 16 C -0.8619 0.8164 -1.3415 0
M  V30 17 C -2.5207 1.7318 0.7156 0
M  V30 18 C -0.9118 2.1803 -1.0393 0
M  V30 19 C -1.7411 2.6447 -0.0085 0
M  V30 20 N -1.791 4.0396 0.3021 0
M  V30 21 H 4.536 -1.2385 -0.3046 0
M  V30 22 H -0.1068 -1.5105 1.4061 0
M  V30 23 H 0.3475 -2.8393 -2.0345 0
M  V30 24 H -3.0762 -0.3236 0.9847 0
M  V30 25 H -0.2142 0.4704 -2.1371 0
M  V30 26 H -3.1656 2.0772 1.514 0
M  V30 27 H -0.3042 2.8741 -1.6064 0
M  V30 28 H -1.2137 4.7271 -0.2314 0
M  V30 29 H -2.4054 4.3951 1.0683 0
M  V30 END ATOM
M  V30 BEGIN BOND
M  V30 1 1 1 2
M  V30 2 2 2 3
M  V30 3 1 2 4
M  V30 4 1 3 5
M  V30 5 1 3 6
M  V30 6 2 4 7
M  V30 7 2 6 8
M  V30 8 1 7 9
M  V30 9 1 8 10
M  V30 10 1 10 11
M  V30 11 2 11 12
M  V30 12 2 11 13
M  V30 13 1 11 14
M  V30 14 2 14 15
M  V30 15 1 14 16
M  V30 16 1 15 17
M  V30 17 2 16 18
M  V30 18 2 17 19
M  V30 19 1 19 20
M  V30 20 1 7 8
M  V30 21 1 18 19
M  V30 22 1 4 21
M  V30 23 1 6 22
M  V30 24 1 10 23
M  V30 25 1 15 24
M  V30 26 1 16 25
M  V30 27 1 17 26
M  V30 28 1 18 27
M  V30 29 1 20 28
M  V30 30 1 20 29
M  V30 END BOND
M  V30 END CTAB
M  END
>  <Structure No>
6575

>  <LogS>
-4.83

>  <MMFF94 Energy>
-7.7112

$$$$
Compound 6576
Actelion Java MolfileCreator 2.0

  0  0  0  0  0  0              0 V3000
M  V30 BEGIN CTAB
M  V30 COUNTS 22 23 0 0 0
M  V30 BEGIN ATOM
M  V30 1 Cl 2.3089 -1.2428 -2.6645 0
M  V30 2 C 1.0471 -0.6992 -1.5633 0
M  V30 3 C 1.3241 -0.3552 -0.2244 0
M  V30 4 C -0.2633 -0.6179 -2.0485 0
M  V30 5 S 2.9677 -0.4471 0.4212 0
M  V30 6 C 0.2727 0.0576 0.6075 0
M  V30 7 C -1.311 -0.2009 -1.2203 0
M  V30 8 O 3.8838 0.4015 -0.4153 0
M  V30 9 O 3.4342 -1.8751 0.388 0
M  V30 10 N 3.0198 0.1204 2.055 0
M  V30 11 C -1.0343 0.1361 0.1141 0
M  V30 12 N -2.6385 -0.1364 -1.7739 0
M  V30 13 S -2.3323 0.653 1.1562 0
M  V30 14 C -3.735 0.2224 -1.1692 0
M  V30 15 O -2.0779 2.0511 1.644 0
M  V30 16 O -2.4729 -0.2928 2.315 0
M  V30 17 N -3.7641 0.6214 0.2026 0 CHG=-1
M  V30 18 H -0.4702 -0.8825 -3.0783 0
M  V30 19 H 0.4619 0.3179 1.6403 0
M  V30 20 H 2.8555 1.1517 2.0265 0
M  V30 21 H 3.9978 -0.0169 2.3949 0
M  V30 22 H -4.6617 0.2186 -1.7258 0
M  V30 END ATOM
M  V30 BEGIN BOND
M  V30 1 1 1 2
M  V30 2 2 2 3
M  V30 3 1 2 4
M  V30 4 1 3 5
M  V30 5 1 3 6
M  V30 6 2 4 7
M  V30 7 2 5 8
M  V30 8 2 5 9
M  V30 9 1 5 10
M  V30 10 2 6 11
M  V30 11 1 7 12
M  V30 12 1 11 13
M  V30 13 2 12 14
M  V30 14 2 13 15
M  V30 15 2 13 16
M  V30 16 1 13 17
M  V30 17 1 7 11
M  V30 18 1 14 17
M  V30 19 1 4 18
M  V30 20 1 6 19
M  V30 21 1 10 20
M  V30 22 1 10 21
M  V30 23 1 14 22
M  V30 END BOND
M  V30 END CTAB
M  END
>  <Structure No>
6576

>  <LogS>
-2.92

>  <MMFF94 Energy>
-83.252

$$$$
Compound 6577
Actelion Java MolfileCreator 2.0

  0  0  0  0  0  0              0 V3000
M  V30 BEGIN CTAB
M  V30 COUNTS 40 42 0 0 0
M  V30 BEGIN ATOM
M  V30 1 Cl -1.7136 4.6565 -2.2854 0
M  V30 2 C -1.8948 3.4081 -1.0665 0
M  V30 3 C -1.2142 2.1933 -1.204 0
M  V30 4 C -2.7461 3.6148 0.0232 0
M  V30 5 C -1.3491 1.1896 -0.2283 0
M  V30 6 C -2.9165 2.6108 0.9791 0
M  V30 7 C -2.2177 1.4051 0.8612 0
M  V30 8 C -0.7927 -0.1753 -0.437 0
M  V30 9 S -2.3988 0.1377 2.125 0
M  V30 10 C -1.7195 -1.3002 -0.1558 0
M  V30 11 C 0.4888 -0.4188 -0.7758 0
M  V30 12 C -2.6168 -1.1854 0.9243 0
M  V30 13 C -1.8263 -2.3974 -1.0277 0
M  V30 14 C 1.5426 0.6509 -0.9177 0
M  V30 15 C -3.6256 -2.1375 1.105 0
M  V30 16 C -2.8219 -3.3588 -0.8266 0
M  V30 17 C 2.9679 0.0963 -0.7232 0
M  V30 18 C -3.7254 -3.224 0.2316 0
M  V30 19 N 3.2078 -0.4666 0.6301 0 CHG=1
M  V30 20 C 4.4948 -1.1844 0.6456 0
M  V30 21 C 3.2163 0.5822 1.6682 0
M  V30 22 H -0.6246 2.0201 -2.0935 0
M  V30 23 H -3.2833 4.5493 0.1252 0
M  V30 24 H -3.5796 2.7768 1.8187 0
M  V30 25 H 0.8088 -1.4494 -0.8809 0
M  V30 26 H -1.1681 -2.4898 -1.8823 0
M  V30 27 H 1.4779 1.0709 -1.9431 0
M  V30 28 H 1.3644 1.4832 -0.2068 0
M  V30 29 H -4.3145 -2.0513 1.9357 0
M  V30 30 H -2.9056 -4.1988 -1.5039 0
M  V30 31 H 3.6971 0.9109 -0.9363 0
M  V30 32 H 3.1311 -0.6869 -1.4986 0
M  V30 33 H -4.4998 -3.9659 0.3785 0
M  V30 34 H 2.4602 -1.1602 0.8667 0
M  V30 35 H 4.6746 -1.6448 1.6423 0
M  V30 36 H 5.3386 -0.4972 0.4113 0
M  V30 37 H 4.4895 -2.0113 -0.0981 0
M  V30 38 H 3.5219 0.1607 2.6513 0
M  V30 39 H 3.9172 1.4051 1.4044 0
M  V30 40 H 2.1985 1.0002 1.8147 0
M  V30 END ATOM
M  V30 BEGIN BOND
M  V30 1 1 1 2
M  V30 2 2 2 3
M  V30 3 1 2 4
M  V30 4 1 3 5
M  V30 5 2 4 6
M  V30 6 2 5 7
M  V30 7 1 5 8
M  V30 8 1 7 9
M  V30 9 1 8 10
M  V30 10 2 8 11
M  V30 11 1 9 12
M  V30 12 1 10 13
M  V30 13 1 11 14
M  V30 14 1 12 15
M  V30 15 2 13 16
M  V30 16 1 14 17
M  V30 17 2 15 18
M  V30 18 1 17 19
M  V30 19 1 19 20
M  V30 20 1 19 21
M  V30 21 1 6 7
M  V30 22 2 10 12
M  V30 23 1 16 18
M  V30 24 1 3 22
M  V30 25 1 4 23
M  V30 26 1 6 24
M  V30 27 1 11 25
M  V30 28 1 13 26
M  V30 29 1 14 27
M  V30 30 1 14 28
M  V30 31 1 15 29
M  V30 32 1 16 30
M  V30 33 1 17 31
M  V30 34 1 17 32
M  V30 35 1 18 33
M  V30 36 1 19 34
M  V30 37 1 20 35
M  V30 38 1 20 36
M  V30 39 1 20 37
M  V30 40 1 21 38
M  V30 41 1 21 39
M  V30 42 1 21 40
M  V30 END BOND
M  V30 END CTAB
M  END
>  <Structure No>
6577

>  <LogS>
-5.87

>  <MMFF94 Energy>
78.858

$$$$
Compound 6578
Actelion Java MolfileCreator 2.0

  0  0  0  0  0  0              0 V3000
M  V30 BEGIN CTAB
M  V30 COUNTS 25 26 0 0 0
M  V30 BEGIN ATOM
M  V30 1 S 0.9597 0.4361 -1.7453 0
M  V30 2 O 0.6274 -0.3637 -2.9731 0
M  V30 3 O 0.7694 1.9018 -2.0165 0
M  V30 4 C -0.0482 -0.0588 -0.4067 0
M  V30 5 C 2.6491 0.1218 -1.2564 0
M  V30 6 C 0.4989 -0.4496 0.8074 0
M  V30 7 C -1.446 -0.0881 -0.4383 0
M  V30 8 C 2.8312 0.3582 0.2525 0 CFG=1
M  V30 9 S -0.7533 -0.8804 1.8456 0
M  V30 10 C 1.9653 -0.608 1.0919 0
M  V30 11 C -1.9919 -0.5261 0.7605 0
M  V30 12 O 4.1845 0.1752 0.5753 0
M  V30 13 S -3.7023 -0.7222 1.0886 0
M  V30 14 O -3.951 -0.5757 2.5637 0
M  V30 15 O -4.1463 -2.0849 0.638 0
M  V30 16 N -4.5968 0.49 0.2404 0
M  V30 17 H 2.9121 -0.9281 -1.5081 0
M  V30 18 H 3.3203 0.7978 -1.8277 0
M  V30 19 H -2.0347 0.1902 -1.3027 0
M  V30 20 H 2.5351 1.4097 0.4813 0
M  V30 21 H 2.1421 -0.4117 2.1712 0
M  V30 22 H 2.2598 -1.6584 0.8803 0
M  V30 23 H 4.33 0.6047 1.4589 0
M  V30 24 H -4.2821 1.4157 0.6085 0
M  V30 25 H -5.5985 0.3803 0.516 0
M  V30 END ATOM
M  V30 BEGIN BOND
M  V30 1 2 1 2
M  V30 2 2 1 3
M  V30 3 1 1 4
M  V30 4 1 1 5
M  V30 5 2 4 6
M  V30 6 1 4 7
M  V30 7 1 5 8
M  V30 8 1 6 9
M  V30 9 1 6 10
M  V30 10 2 7 11
M  V30 11 1 8 12
M  V30 12 1 11 13
M  V30 13 2 13 14
M  V30 14 2 13 15
M  V30 15 1 13 16
M  V30 16 1 8 10
M  V30 17 1 9 11
M  V30 18 1 5 17
M  V30 19 1 5 18
M  V30 20 1 7 19
M  V30 21 1 8 20
M  V30 22 1 10 21
M  V30 23 1 10 22
M  V30 24 1 12 23
M  V30 25 1 16 24
M  V30 26 1 16 25
M  V30 END BOND
M  V30 BEGIN COLLECTION
M  V30 MDLV30/STEABS ATOMS=(1 8)
M  V30 END COLLECTION
M  V30 END CTAB
M  END
>  <Structure No>
6578

>  <LogS>
-1.59

>  <MMFF94 Energy>
-32.562

$$$$
Compound 6579
Actelion Java MolfileCreator 2.0

  0  0  0  0  0  0              0 V3000
M  V30 BEGIN CTAB
M  V30 COUNTS 49 51 0 0 0
M  V30 BEGIN ATOM
M  V30 1 O -1.0417 2.967 2.3249 0
M  V30 2 C -1.0867 2.1902 1.3345 0
M  V30 3 N -0.1381 2.2059 0.2825 0
M  V30 4 N -2.0747 1.1818 1.1817 0
M  V30 5 C -0.5223 1.1031 -0.5317 0
M  V30 6 C 1.2109 2.7498 0.3722 0
M  V30 7 C -1.7617 0.402 -0.019 0
M  V30 8 O 0.1264 0.7471 -1.5525 0
M  V30 9 O 2.0289 1.8565 1.1193 0
M  V30 10 C -1.5106 -1.0476 0.4062 0
M  V30 11 C -2.8588 0.5198 -1.078 0
M  V30 12 C 3.3982 2.0595 1.3049 0
M  V30 13 C -2.6059 -1.9021 0.6509 0
M  V30 14 C -0.2127 -1.5303 0.6849 0
M  V30 15 C -3.8891 1.48 -0.9809 0
M  V30 16 C -2.8142 -0.3031 -2.2225 0
M  V30 17 O 3.9747 3.062 0.8016 0
M  V30 18 C 4.1937 1.0486 2.0711 0
M  V30 19 C -2.4058 -3.2135 1.0913 0
M  V30 20 C -0.0184 -2.8433 1.1229 0
M  V30 21 C -4.8609 1.5833 -1.9808 0
M  V30 22 C -3.7888 -0.1946 -3.2181 0
M  V30 23 C 4.7723 -0.034 1.1506 0
M  V30 24 C -1.1129 -3.6862 1.3191 0
M  V30 25 C -4.813 0.7453 -3.0959 0
M  V30 26 C 3.6817 -0.9438 0.5667 0
M  V30 27 C 4.2875 -2.0761 -0.2564 0
M  V30 28 H -2.8434 0.981 1.8606 0
M  V30 29 H 1.6263 2.877 -0.6506 0
M  V30 30 H 1.1836 3.7428 0.8708 0
M  V30 31 H -3.6201 -1.5516 0.5045 0
M  V30 32 H 0.6549 -0.8966 0.5772 0
M  V30 33 H -3.9486 2.1572 -0.1395 0
M  V30 34 H -2.0223 -1.0318 -2.343 0
M  V30 35 H 3.5532 0.5838 2.8516 0
M  V30 36 H 5.0296 1.5651 2.5905 0
M  V30 37 H -3.2561 -3.8605 1.2651 0
M  V30 38 H 0.9826 -3.2036 1.3213 0
M  V30 39 H -5.6505 2.3184 -1.8924 0
M  V30 40 H -3.747 -0.8376 -4.0875 0
M  V30 41 H 5.4789 -0.6524 1.7464 0
M  V30 42 H 5.3489 0.4425 0.3273 0
M  V30 43 H -0.9603 -4.7009 1.6638 0
M  V30 44 H -5.5664 0.8288 -3.8685 0
M  V30 45 H 3.0789 -1.3837 1.3906 0
M  V30 46 H 3.0088 -0.3527 -0.0905 0
M  V30 47 H 4.959 -2.6969 0.3739 0
M  V30 48 H 3.4743 -2.722 -0.6491 0
M  V30 49 H 4.8624 -1.6655 -1.1133 0
M  V30 END ATOM
M  V30 BEGIN BOND
M  V30 1 2 1 2
M  V30 2 1 2 3
M  V30 3 1 2 4
M  V30 4 1 3 5
M  V30 5 1 3 6
M  V30 6 1 4 7
M  V30 7 2 5 8
M  V30 8 1 6 9
M  V30 9 1 7 10
M  V30 10 1 7 11
M  V30 11 1 9 12
M  V30 12 2 10 13
M  V30 13 1 10 14
M  V30 14 2 11 15
M  V30 15 1 11 16
M  V30 16 2 12 17
M  V30 17 1 12 18
M  V30 18 1 13 19
M  V30 19 2 14 20
M  V30 20 1 15 21
M  V30 21 2 16 22
M  V30 22 1 18 23
M  V30 23 2 19 24
M  V30 24 2 21 25
M  V30 25 1 23 26
M  V30 26 1 26 27
M  V30 27 1 5 7
M  V30 28 1 20 24
M  V30 29 1 22 25
M  V30 30 1 4 28
M  V30 31 1 6 29
M  V30 32 1 6 30
M  V30 33 1 13 31
M  V30 34 1 14 32
M  V30 35 1 15 33
M  V30 36 1 16 34
M  V30 37 1 18 35
M  V30 38 1 18 36
M  V30 39 1 19 37
M  V30 40 1 20 38
M  V30 41 1 21 39
M  V30 42 1 22 40
M  V30 43 1 23 41
M  V30 44 1 23 42
M  V30 45 1 24 43
M  V30 46 1 25 44
M  V30 47 1 26 45
M  V30 48 1 26 46
M  V30 49 1 27 47
M  V30 50 1 27 48
M  V30 51 1 27 49
M  V30 END BOND
M  V30 END CTAB
M  END
>  <Structure No>
6579

>  <LogS>
-4.68

>  <MMFF94 Energy>
-38.444

$$$$
Compound 6580
Actelion Java MolfileCreator 2.0

  0  0  0  0  0  0              0 V3000
M  V30 BEGIN CTAB
M  V30 COUNTS 25 26 0 0 0
M  V30 BEGIN ATOM
M  V30 1 S -1.7458 1.8331 0.1744 0
M  V30 2 O -1.581 2.8764 1.2431 0
M  V30 3 O -2.201 2.4716 -1.1073 0
M  V30 4 C -0.2449 0.9814 -0.0803 0
M  V30 5 C -2.9307 0.6028 0.7001 0
M  V30 6 S 1.2273 1.6699 -0.5048 0
M  V30 7 C -0.1176 -0.3964 0.0104 0
M  V30 8 C -2.6348 -0.7675 0.0557 0 CFG=2
M  V30 9 C 2.0541 0.203 -0.5589 0
M  V30 10 C 1.1883 -0.8367 -0.2413 0
M  V30 11 C -1.2402 -1.3033 0.4459 0
M  V30 12 O -2.7352 -0.6874 -1.3434 0
M  V30 13 S 3.7623 0.0263 -0.9116 0
M  V30 14 O 4.2607 1.2572 -1.615 0
M  V30 15 O 3.9684 -1.1634 -1.806 0
M  V30 16 N 4.6427 -0.1913 0.5598 0
M  V30 17 H -2.8849 0.5077 1.8062 0
M  V30 18 H -3.9533 0.9391 0.4261 0
M  V30 19 H -3.3874 -1.4969 0.4358 0
M  V30 20 H 1.4937 -1.8736 -0.1867 0
M  V30 21 H -1.1014 -2.306 -0.0137 0
M  V30 22 H -1.1877 -1.4286 1.549 0
M  V30 23 H -3.7013 -0.6039 -1.5574 0
M  V30 24 H 4.4261 0.6293 1.1689 0
M  V30 25 H 4.242 -1.0317 1.0337 0
M  V30 END ATOM
M  V30 BEGIN BOND
M  V30 1 2 1 2
M  V30 2 2 1 3
M  V30 3 1 1 4
M  V30 4 1 1 5
M  V30 5 1 4 6
M  V30 6 2 4 7
M  V30 7 1 5 8
M  V30 8 1 6 9
M  V30 9 1 7 10
M  V30 10 1 7 11
M  V30 11 1 8 12
M  V30 12 1 9 13
M  V30 13 2 13 14
M  V30 14 2 13 15
M  V30 15 1 13 16
M  V30 16 1 8 11
M  V30 17 2 9 10
M  V30 18 1 5 17
M  V30 19 1 5 18
M  V30 20 1 8 19
M  V30 21 1 10 20
M  V30 22 1 11 21
M  V30 23 1 11 22
M  V30 24 1 12 23
M  V30 25 1 16 24
M  V30 26 1 16 25
M  V30 END BOND
M  V30 BEGIN COLLECTION
M  V30 MDLV30/STEABS ATOMS=(1 8)
M  V30 END COLLECTION
M  V30 END CTAB
M  END
>  <Structure No>
6580

>  <LogS>
-1.54

>  <MMFF94 Energy>
-24.486

$$$$
Compound 6581
Actelion Java MolfileCreator 2.0

  0  0  0  0  0  0              0 V3000
M  V30 BEGIN CTAB
M  V30 COUNTS 22 23 0 0 0
M  V30 BEGIN ATOM
M  V30 1 S -1.7811 1.2466 0.8903 0
M  V30 2 O -1.4694 1.6143 2.3135 0
M  V30 3 O -2.0602 2.4825 0.0828 0
M  V30 4 C -0.4673 0.3487 0.1865 0
M  V30 5 C -3.1814 0.1375 0.8397 0
M  V30 6 C -0.7259 -0.7349 -0.6312 0
M  V30 7 C 0.8901 0.6408 0.3449 0
M  V30 8 C -3.1817 -0.7456 -0.3884 0
M  V30 9 S 0.7381 -1.3468 -1.1927 0
M  V30 10 C -2.0741 -1.204 -0.9991 0
M  V30 11 C 1.6997 -0.2346 -0.3674 0
M  V30 12 O -2.2054 -2.1314 -2.0264 0 CHG=-1
M  V30 13 S 3.4496 -0.1735 -0.4365 0
M  V30 14 O 3.8758 0.7636 -1.5304 0
M  V30 15 O 3.9893 -1.5484 -0.7148 0
M  V30 16 N 4.0693 0.3821 1.0789 0
M  V30 17 H -4.1183 0.7321 0.8696 0
M  V30 18 H -3.1524 -0.5121 1.7392 0
M  V30 19 H 1.2657 1.4601 0.9437 0
M  V30 20 H -4.1423 -1.1184 -0.7229 0
M  V30 21 H 3.7798 -0.3144 1.8014 0
M  V30 22 H 5.1112 0.3387 1.0179 0
M  V30 END ATOM
M  V30 BEGIN BOND
M  V30 1 2 1 2
M  V30 2 2 1 3
M  V30 3 1 1 4
M  V30 4 1 1 5
M  V30 5 2 4 6
M  V30 6 1 4 7
M  V30 7 1 5 8
M  V30 8 1 6 9
M  V30 9 1 6 10
M  V30 10 2 7 11
M  V30 11 1 10 12
M  V30 12 1 11 13
M  V30 13 2 13 14
M  V30 14 2 13 15
M  V30 15 1 13 16
M  V30 16 2 8 10
M  V30 17 1 9 11
M  V30 18 1 5 17
M  V30 19 1 5 18
M  V30 20 1 7 19
M  V30 21 1 8 20
M  V30 22 1 16 21
M  V30 23 1 16 22
M  V30 END BOND
M  V30 END CTAB
M  END
>  <Structure No>
6581

>  <LogS>
-3.67

>  <MMFF94 Energy>
-43.067

$$$$
Compound 6582
Actelion Java MolfileCreator 2.0

  0  0  0  0  0  0              0 V3000
M  V30 BEGIN CTAB
M  V30 COUNTS 25 26 0 0 0
M  V30 BEGIN ATOM
M  V30 1 S -1.4834 -0.1744 -1.658 0
M  V30 2 O -1.4288 0.8649 -2.7417 0
M  V30 3 O -1.4326 -1.5504 -2.2596 0
M  V30 4 C -0.153 0.039 -0.5451 0
M  V30 5 C -2.9845 0.0185 -0.7103 0
M  V30 6 C -0.3605 0.1692 0.8219 0
M  V30 7 C 1.193 0.0654 -0.9227 0
M  V30 8 C -2.7909 -0.5053 0.7216 0
M  V30 9 S 1.1335 0.3571 1.5738 0
M  V30 10 C -1.7013 0.2585 1.5031 0 CFG=2
M  V30 11 C 2.0424 0.2417 0.1606 0
M  V30 12 O -2.0753 1.6044 1.6413 0
M  V30 13 S 3.7919 0.3172 0.0774 0
M  V30 14 O 4.3358 0.8398 1.3771 0
M  V30 15 O 4.2006 1.2452 -1.0314 0
M  V30 16 N 4.4306 -1.2614 -0.2174 0
M  V30 17 H -3.2683 1.092 -0.6858 0
M  V30 18 H -3.802 -0.5459 -1.2062 0
M  V30 19 H 1.5341 -0.0379 -1.9444 0
M  V30 20 H -2.532 -1.5865 0.6858 0
M  V30 21 H -3.7548 -0.4141 1.2675 0
M  V30 22 H -1.6191 -0.212 2.5099 0
M  V30 23 H -1.5204 1.9836 2.3724 0
M  V30 24 H 4.0047 -1.6013 -1.1087 0
M  V30 25 H 4.0726 -1.882 0.5429 0
M  V30 END ATOM
M  V30 BEGIN BOND
M  V30 1 2 1 2
M  V30 2 2 1 3
M  V30 3 1 1 4
M  V30 4 1 1 5
M  V30 5 2 4 6
M  V30 6 1 4 7
M  V30 7 1 5 8
M  V30 8 1 6 9
M  V30 9 1 6 10
M  V30 10 2 7 11
M  V30 11 1 10 12
M  V30 12 1 11 13
M  V30 13 2 13 14
M  V30 14 2 13 15
M  V30 15 1 13 16
M  V30 16 1 8 10
M  V30 17 1 9 11
M  V30 18 1 5 17
M  V30 19 1 5 18
M  V30 20 1 7 19
M  V30 21 1 8 20
M  V30 22 1 8 21
M  V30 23 1 10 22
M  V30 24 1 12 23
M  V30 25 1 16 24
M  V30 26 1 16 25
M  V30 END BOND
M  V30 BEGIN COLLECTION
M  V30 MDLV30/STEABS ATOMS=(1 10)
M  V30 END COLLECTION
M  V30 END CTAB
M  END
>  <Structure No>
6582

>  <LogS>
-1.28

>  <MMFF94 Energy>
-47.28

$$$$
Compound 6583
Actelion Java MolfileCreator 2.0

  0  0  0  0  0  0              0 V3000
M  V30 BEGIN CTAB
M  V30 COUNTS 38 40 0 0 0
M  V30 BEGIN ATOM
M  V30 1 O 1.0533 -0.8912 -1.2154 0
M  V30 2 C 1.1052 -0.0277 -0.2966 0
M  V30 3 N 2.2187 -0.0141 0.6223 0
M  V30 4 C 0.0332 1.033 -0.2267 0 CFG=1
M  V30 5 C 2.3724 1.089 1.5399 0
M  V30 6 C 3.2398 -1.0698 0.5596 0
M  V30 7 N -1.281 0.4702 -0.5542 0
M  V30 8 C -0.011 1.6911 1.1604 0
M  V30 9 O 3.3789 1.1554 2.2969 0
M  V30 10 C 1.3695 2.2043 1.5665 0
M  V30 11 C 4.3483 -0.6773 -0.4214 0
M  V30 12 C -2.3396 1.1553 -1.2313 0
M  V30 13 C -1.9277 -0.6437 0.0754 0
M  V30 14 C 5.4205 -1.7592 -0.5061 0
M  V30 15 O -2.1948 2.2351 -1.8636 0
M  V30 16 C -3.5978 0.4393 -1.0555 0
M  V30 17 O -1.348 -1.4681 0.8312 0
M  V30 18 C -3.3466 -0.657 -0.2595 0
M  V30 19 C -4.8782 0.7183 -1.5307 0
M  V30 20 C -4.3609 -1.5392 0.1088 0
M  V30 21 C -5.9188 -0.1595 -1.1775 0
M  V30 22 C -5.6614 -1.2828 -0.3616 0
M  V30 23 H 0.292 1.8103 -0.9792 0
M  V30 24 H 3.6726 -1.2449 1.569 0
M  V30 25 H 2.7781 -2.031 0.244 0
M  V30 26 H -0.7258 2.5424 1.1428 0
M  V30 27 H -0.3674 0.9605 1.92 0
M  V30 28 H 1.3113 2.6346 2.5899 0
M  V30 29 H 1.6964 3.0041 0.8676 0
M  V30 30 H 4.8191 0.2736 -0.0906 0
M  V30 31 H 3.9128 -0.5194 -1.4318 0
M  V30 32 H 4.9772 -2.7146 -0.8596 0
M  V30 33 H 6.2082 -1.4463 -1.2233 0
M  V30 34 H 5.8883 -1.9173 0.489 0
M  V30 35 H -5.0673 1.5843 -2.1515 0
M  V30 36 H -4.1555 -2.3949 0.7385 0
M  V30 37 H -6.9241 0.0289 -1.5315 0
M  V30 38 H -6.4706 -1.9499 -0.0941 0
M  V30 END ATOM
M  V30 BEGIN BOND
M  V30 1 2 1 2
M  V30 2 1 2 3
M  V30 3 1 2 4
M  V30 4 1 3 5
M  V30 5 1 3 6
M  V30 6 1 4 7
M  V30 7 1 4 8
M  V30 8 2 5 9
M  V30 9 1 5 10
M  V30 10 1 6 11
M  V30 11 1 7 12
M  V30 12 1 7 13
M  V30 13 1 11 14
M  V30 14 2 12 15
M  V30 15 1 12 16
M  V30 16 2 13 17
M  V30 17 1 13 18
M  V30 18 1 16 19
M  V30 19 1 18 20
M  V30 20 2 19 21
M  V30 21 2 20 22
M  V30 22 1 8 10
M  V30 23 2 16 18
M  V30 24 1 21 22
M  V30 25 1 4 23
M  V30 26 1 6 24
M  V30 27 1 6 25
M  V30 28 1 8 26
M  V30 29 1 8 27
M  V30 30 1 10 28
M  V30 31 1 10 29
M  V30 32 1 11 30
M  V30 33 1 11 31
M  V30 34 1 14 32
M  V30 35 1 14 33
M  V30 36 1 14 34
M  V30 37 1 19 35
M  V30 38 1 20 36
M  V30 39 1 21 37
M  V30 40 1 22 38
M  V30 END BOND
M  V30 BEGIN COLLECTION
M  V30 MDLV30/STEABS ATOMS=(1 4)
M  V30 END COLLECTION
M  V30 END CTAB
M  END
>  <Structure No>
6583

>  <LogS>
-3.72

>  <MMFF94 Energy>
-34.094

$$$$
Compound 6584
Actelion Java MolfileCreator 2.0

  0  0  0  0  0  0              0 V3000
M  V30 BEGIN CTAB
M  V30 COUNTS 22 23 0 0 0
M  V30 BEGIN ATOM
M  V30 1 S -2.227 1.1576 -1.0685 0
M  V30 2 O -2.2255 2.6583 -0.9917 0
M  V30 3 O -2.592 0.7051 -2.454 0
M  V30 4 C -0.6811 0.516 -0.6075 0
M  V30 5 C -3.3601 0.4815 0.1335 0
M  V30 6 S 0.831 1.1079 -1.0348 0
M  V30 7 C -0.5547 -0.6148 0.175 0
M  V30 8 C -2.9843 -0.92 0.5619 0
M  V30 9 C 1.6767 -0.0942 -0.2089 0
M  V30 10 C -1.723 -1.3833 0.6583 0
M  V30 11 C 0.7824 -0.9704 0.3971 0
M  V30 12 S 3.4231 -0.2331 -0.1598 0
M  V30 13 O -1.5157 -2.6429 1.2099 0 CHG=-1
M  V30 14 O 3.8832 -1.1578 -1.2506 0
M  V30 15 O 3.8462 -0.7793 1.1751 0
M  V30 16 N 4.1355 1.3262 -0.3847 0
M  V30 17 H -3.3581 1.1353 1.0307 0
M  V30 18 H -4.385 0.4778 -0.293 0
M  V30 19 H -3.7887 -1.552 0.9182 0
M  V30 20 H 1.0899 -1.8344 0.9721 0
M  V30 21 H 3.8285 1.9212 0.4173 0
M  V30 22 H 5.1691 1.2064 -0.293 0
M  V30 END ATOM
M  V30 BEGIN BOND
M  V30 1 2 1 2
M  V30 2 2 1 3
M  V30 3 1 1 4
M  V30 4 1 1 5
M  V30 5 1 4 6
M  V30 6 2 4 7
M  V30 7 1 5 8
M  V30 8 1 6 9
M  V30 9 1 7 10
M  V30 10 1 7 11
M  V30 11 1 9 12
M  V30 12 1 10 13
M  V30 13 2 12 14
M  V30 14 2 12 15
M  V30 15 1 12 16
M  V30 16 2 8 10
M  V30 17 2 9 11
M  V30 18 1 5 17
M  V30 19 1 5 18
M  V30 20 1 8 19
M  V30 21 1 11 20
M  V30 22 1 16 21
M  V30 23 1 16 22
M  V30 END BOND
M  V30 END CTAB
M  END
>  <Structure No>
6584

>  <LogS>
-3.02

>  <MMFF94 Energy>
-50.51

$$$$
Compound 6585
Actelion Java MolfileCreator 2.0

  0  0  0  0  0  0              0 V3000
M  V30 BEGIN CTAB
M  V30 COUNTS 39 42 0 0 0
M  V30 BEGIN ATOM
M  V30 1 O 0.4038 -2.1821 -1.616 0
M  V30 2 C -0.4795 -1.5596 -0.9687 0
M  V30 3 O -1.6816 -2.1108 -0.8372 0
M  V30 4 C -0.2015 -0.2959 -0.3998 0
M  V30 5 C -2.6842 -1.5141 -0.2039 0
M  V30 6 C -1.2659 0.3987 0.2098 0
M  V30 7 C 1.172 0.3625 -0.5248 0 CFG=2
M  V30 8 C -2.5145 -0.2245 0.3434 0
M  V30 9 C -3.9188 -2.1636 -0.092 0
M  V30 10 O -1.0868 1.7091 0.6733 0
M  V30 11 C 2.3068 -0.6014 -0.2234 0
M  V30 12 C 1.3189 1.6008 0.3886 0
M  V30 13 C -3.5952 0.4023 0.9885 0
M  V30 14 C -4.9855 -1.5359 0.5572 0
M  V30 15 C 0.0648 2.4925 0.3518 0 CFG=1
M  V30 16 C 2.3088 -1.3679 0.9584 0
M  V30 17 C 3.3961 -0.7074 -1.1066 0
M  V30 18 C -4.8245 -0.2556 1.0949 0
M  V30 19 O -0.0797 3.0821 -0.9184 0
M  V30 20 C 0.1877 3.614 1.3848 0
M  V30 21 C 3.3679 -2.2368 1.2357 0
M  V30 22 C 4.4531 -1.578 -0.8241 0
M  V30 23 C 4.4382 -2.3433 0.3445 0
M  V30 24 H 1.2579 0.7091 -1.5785 0
M  V30 25 H -4.0526 -3.153 -0.511 0
M  V30 26 H 1.4846 1.2697 1.4385 0
M  V30 27 H 2.2099 2.1885 0.0739 0
M  V30 28 H -3.4933 1.3936 1.413 0
M  V30 29 H -5.9392 -2.0408 0.6415 0
M  V30 30 H 1.4887 -1.2932 1.6618 0
M  V30 31 H 3.4279 -0.1178 -2.0143 0
M  V30 32 H -5.6541 0.2276 1.5946 0
M  V30 33 H -0.4852 2.4113 -1.5262 0
M  V30 34 H -0.7148 4.2608 1.3497 0
M  V30 35 H 1.0805 4.241 1.1734 0
M  V30 36 H 0.2767 3.1923 2.4091 0
M  V30 37 H 3.3597 -2.8264 2.1434 0
M  V30 38 H 5.2858 -1.6576 -1.5109 0
M  V30 39 H 5.2577 -3.016 0.5613 0
M  V30 END ATOM
M  V30 BEGIN BOND
M  V30 1 2 1 2
M  V30 2 1 2 3
M  V30 3 1 2 4
M  V30 4 1 3 5
M  V30 5 2 4 6
M  V30 6 1 4 7
M  V30 7 2 5 8
M  V30 8 1 5 9
M  V30 9 1 6 10
M  V30 10 1 7 11
M  V30 11 1 7 12
M  V30 12 1 8 13
M  V30 13 2 9 14
M  V30 14 1 10 15
M  V30 15 2 11 16
M  V30 16 1 11 17
M  V30 17 2 13 18
M  V30 18 1 15 19
M  V30 19 1 15 20
M  V30 20 1 16 21
M  V30 21 2 17 22
M  V30 22 2 21 23
M  V30 23 1 6 8
M  V30 24 1 12 15
M  V30 25 1 14 18
M  V30 26 1 22 23
M  V30 27 1 7 24
M  V30 28 1 9 25
M  V30 29 1 12 26
M  V30 30 1 12 27
M  V30 31 1 13 28
M  V30 32 1 14 29
M  V30 33 1 16 30
M  V30 34 1 17 31
M  V30 35 1 18 32
M  V30 36 1 19 33
M  V30 37 1 20 34
M  V30 38 1 20 35
M  V30 39 1 20 36
M  V30 40 1 21 37
M  V30 41 1 22 38
M  V30 42 1 23 39
M  V30 END BOND
M  V30 BEGIN COLLECTION
M  V30 MDLV30/STEABS ATOMS=(2 7 15)
M  V30 END COLLECTION
M  V30 END CTAB
M  END
>  <Structure No>
6585

>  <LogS>
-4.74

>  <MMFF94 Energy>
36.074

$$$$
Compound 6586
Actelion Java MolfileCreator 2.0

  0  0  0  0  0  0              0 V3000
M  V30 BEGIN CTAB
M  V30 COUNTS 41 43 0 0 0
M  V30 BEGIN ATOM
M  V30 1 S -0.5017 -1.4219 -1.5056 0
M  V30 2 C 0.0642 -0.2952 -0.1647 0 CFG=2
M  V30 3 C -1.8824 -0.4005 -2.1625 0
M  V30 4 N -0.9051 0.7446 0.0855 0
M  V30 5 C 1.0951 0.6421 -0.5472 0 CFG=1
M  V30 6 C -2.8407 0.0668 -1.079 0
M  V30 7 C -2.3235 0.7415 -0.0263 0
M  V30 8 C 0.1453 1.7477 -0.1988 0
M  V30 9 N 2.2616 0.6378 0.3398 0
M  V30 10 C -4.318 -0.185 -1.259 0
M  V30 11 C -3.1068 1.4248 1.0309 0
M  V30 12 O 0.1959 3.0052 -0.2106 0
M  V30 13 C 3.3527 1.5473 0.1431 0
M  V30 14 O -4.815 -0.9389 -0.1572 0
M  V30 15 O -2.5181 1.8272 2.0688 0
M  V30 16 O -4.468 1.6691 0.9015 0 CHG=-1
M  V30 17 O 3.3273 2.3765 -0.8064 0
M  V30 18 C 4.5526 1.4857 1.0359 0
M  V30 19 C -6.1603 -1.2951 -0.0321 0
M  V30 20 C 5.464 0.3878 0.5907 0
M  V30 21 O -7.0042 -0.9423 -0.9002 0
M  V30 22 C -6.6093 -2.0534 1.1702 0
M  V30 23 S 5.4079 -1.2027 1.1335 0
M  V30 24 C 6.4268 0.4842 -0.4056 0
M  V30 25 C 6.6262 -1.78 0.1276 0
M  V30 26 C 7.0806 -0.7277 -0.6573 0
M  V30 27 H 0.2655 -0.8655 0.7687 0
M  V30 28 H -2.4066 -0.9977 -2.9368 0
M  V30 29 H -1.4513 0.4884 -2.6706 0
M  V30 30 H 1.3652 0.6244 -1.6259 0
M  V30 31 H 2.3312 -0.0528 1.1214 0
M  V30 32 H -4.8589 0.7802 -1.3491 0
M  V30 33 H -4.5118 -0.7519 -2.1944 0
M  V30 34 H 5.0954 2.4552 1.0118 0
M  V30 35 H 4.231 1.3044 2.0835 0
M  V30 36 H -6.9417 -1.3406 1.9532 0
M  V30 37 H -7.4514 -2.7276 0.906 0
M  V30 38 H -5.7716 -2.6645 1.566 0
M  V30 39 H 6.6455 1.3991 -0.9403 0
M  V30 40 H 6.9891 -2.798 0.0897 0
M  V30 41 H 7.8601 -0.8369 -1.3994 0
M  V30 END ATOM
M  V30 BEGIN BOND
M  V30 1 1 1 2
M  V30 2 1 1 3
M  V30 3 1 2 4
M  V30 4 1 2 5
M  V30 5 1 3 6
M  V30 6 1 4 7
M  V30 7 1 4 8
M  V30 8 1 5 9
M  V30 9 1 6 10
M  V30 10 1 7 11
M  V30 11 2 8 12
M  V30 12 1 9 13
M  V30 13 1 10 14
M  V30 14 2 11 15
M  V30 15 1 11 16
M  V30 16 2 13 17
M  V30 17 1 13 18
M  V30 18 1 14 19
M  V30 19 1 18 20
M  V30 20 2 19 21
M  V30 21 1 19 22
M  V30 22 1 20 23
M  V30 23 2 20 24
M  V30 24 1 23 25
M  V30 25 1 24 26
M  V30 26 1 5 8
M  V30 27 2 6 7
M  V30 28 2 25 26
M  V30 29 1 2 27
M  V30 30 1 3 28
M  V30 31 1 3 29
M  V30 32 1 5 30
M  V30 33 1 9 31
M  V30 34 1 10 32
M  V30 35 1 10 33
M  V30 36 1 18 34
M  V30 37 1 18 35
M  V30 38 1 22 36
M  V30 39 1 22 37
M  V30 40 1 22 38
M  V30 41 1 24 39
M  V30 42 1 25 40
M  V30 43 1 26 41
M  V30 END BOND
M  V30 BEGIN COLLECTION
M  V30 MDLV30/STEABS ATOMS=(2 2 5)
M  V30 END COLLECTION
M  V30 END CTAB
M  END
>  <Structure No>
6586

>  <LogS>
-2.94

>  <MMFF94 Energy>
48.846

$$$$
Compound 6587
Actelion Java MolfileCreator 2.0

  0  0  0  0  0  0              0 V3000
M  V30 BEGIN CTAB
M  V30 COUNTS 119 121 0 0 0
M  V30 BEGIN ATOM
M  V30 1 O -4.063 -0.3182 0.2386 0
M  V30 2 C -3.1246 -0.6856 -0.5264 0
M  V30 3 O -3.1769 -1.9622 -1.1095 0
M  V30 4 C -1.942 0.2363 -0.7527 0 CFG=2
M  V30 5 C -3.6774 -2.2245 -2.4358 0 CFG=1
M  V30 6 C -1.4806 0.9274 0.5845 0 CFG=2
M  V30 7 C -2.2905 1.2335 -1.8552 0
M  V30 8 C -2.9198 -3.4673 -3.0558 0 CFG=2
M  V30 9 C -5.2142 -2.46 -2.4314 0
M  V30 10 O -2.069 2.2287 0.6879 0
M  V30 11 C 0.0794 1.0242 0.7606 0 CFG=1
M  V30 12 O -3.3503 -4.6652 -2.4441 0
M  V30 13 C -1.3423 -3.3206 -2.956 0 CFG=1
M  V30 14 C -3.2802 -3.6099 -4.5515 0
M  V30 15 C -6.0238 -1.3347 -1.807 0
M  V30 16 C -2.1122 2.7468 2.013 0 CFG=2
M  V30 17 C 0.9645 -0.2674 0.8586 0 CFG=1
M  V30 18 C 0.6721 1.9317 -0.3302 0
M  V30 19 O -0.9788 -1.9657 -2.8861 0
M  V30 20 C -0.6911 -4.1382 -1.7836 0 CFG=2
M  V30 21 O -3.3915 3.3281 2.207 0
M  V30 22 C -0.9661 3.7805 2.2267 0
M  V30 23 O 2.2671 0.1898 1.2493 0
M  V30 24 C 0.5369 -1.45 1.8392 0 CFG=2
M  V30 25 C 0.6134 -3.5299 -1.3041 0
M  V30 26 C -0.4248 -5.5803 -2.2289 0
M  V30 27 C -3.4651 4.0916 3.4009 0 CFG=2
M  V30 28 C -1.4228 5.2541 2.2727 0 CFG=1
M  V30 29 C 3.3025 -0.2248 0.3787 0 CFG=2
M  V30 30 O 1.7065 -1.924 2.4728 0
M  V30 31 C -0.0887 -2.622 1.0046 0
M  V30 32 C -0.4343 -1.0311 2.9929 0
M  V30 33 O 1.4472 -3.1738 -2.1325 0
M  V30 34 C 0.9648 -3.4197 0.1628 0 CFG=1
M  V30 35 C -2.5573 5.3715 3.336 0 CFG=2
M  V30 36 C -3.2595 3.2305 4.6668 0
M  V30 37 O -0.2674 6.0047 2.6679 0
M  V30 38 C -1.924 5.6657 0.8599 0
M  V30 39 O 3.8029 -1.4746 0.8321 0
M  V30 40 C 4.4507 0.8059 0.4455 0 CFG=2
M  V30 41 C 1.2259 -4.8152 0.7478 0
M  V30 42 O -1.9757 5.6427 4.5951 0
M  V30 43 C -0.4343 7.4084 2.6092 0
M  V30 44 C 4.7954 -1.9842 -0.035 0 CFG=1
M  V30 45 O 3.9951 2.1207 0.243 0
M  V30 46 C 5.5858 0.4017 -0.5407 0 CFG=1
M  V30 47 C 6.021 -1.0278 -0.1053 0
M  V30 48 C 5.2315 -3.3478 0.4843 0
M  V30 49 N 5.2209 0.4639 -2.0054 0 CHG=1
M  V30 50 C 4.7244 1.7954 -2.4198 0
M  V30 51 C 6.3761 0.0999 -2.858 0
M  V30 52 H -1.0951 -0.3642 -1.1204 0
M  V30 53 H -3.4787 -1.35 -3.0739 0
M  V30 54 H -1.8684 0.2929 1.3919 0
M  V30 55 H -1.4202 1.8756 -2.1138 0
M  V30 56 H -3.1354 1.8874 -1.5421 0
M  V30 57 H -2.6015 0.7064 -2.7687 0
M  V30 58 H -5.5496 -2.5491 -3.4882 0
M  V30 59 H -5.4832 -3.4147 -1.9214 0
M  V30 60 H 0.2574 1.5377 1.7208 0
M  V30 61 H -3.4498 -4.5132 -1.4696 0
M  V30 62 H -0.8689 -3.7176 -3.8908 0
M  V30 63 H -4.3389 -3.8985 -4.6973 0
M  V30 64 H -2.6892 -4.4095 -5.0327 0
M  V30 65 H -3.0953 -2.6549 -5.0904 0
M  V30 66 H -7.0604 -1.3745 -2.1845 0
M  V30 67 H -5.5977 -0.3389 -2.0378 0
M  V30 68 H -6.071 -1.4851 -0.7166 0
M  V30 69 H -2.0029 1.9396 2.769 0
M  V30 70 H 0.9625 -0.6896 -0.1761 0
M  V30 71 H 0.9101 1.3657 -1.258 0
M  V30 72 H 1.6075 2.4035 0.039 0
M  V30 73 H -1.0E-4 2.7688 -0.6094 0
M  V30 74 H -1.1876 -1.5588 -3.7703 0
M  V30 75 H -1.3659 -4.1599 -0.9038 0
M  V30 76 H -0.2126 3.7127 1.4292 0
M  V30 77 H -0.4373 3.537 3.1699 0
M  V30 78 H 0.0345 -6.1907 -1.4155 0
M  V30 79 H -1.3544 -6.0774 -2.5588 0
M  V30 80 H 0.2701 -5.592 -3.1 0
M  V30 81 H -4.5115 4.4585 3.4714 0
M  V30 82 H 2.9283 -0.2869 -0.674 0
M  V30 83 H 1.4815 -2.7636 2.9481 0
M  V30 84 H -0.6068 -3.3171 1.6971 0
M  V30 85 H -0.8831 -2.2183 0.3505 0
M  V30 86 H -0.2452 -1.6212 3.9108 0
M  V30 87 H -0.3064 0.028 3.2859 0
M  V30 88 H -1.4938 -1.2453 2.76 0
M  V30 89 H 1.9399 -2.9051 0.1979 0
M  V30 90 H -3.2029 6.2311 3.0443 0
M  V30 91 H -3.9234 2.347 4.6332 0
M  V30 92 H -2.1937 2.8846 4.7606 0
M  V30 93 H -3.5027 3.8121 5.5691 0
M  V30 94 H -2.8252 5.0952 0.5646 0
M  V30 95 H -2.2318 6.7414 0.8322 0
M  V30 96 H -1.1295 5.5232 0.099 0
M  V30 97 H 4.8615 0.7552 1.477 0
M  V30 98 H 1.8474 -5.4212 0.049 0
M  V30 99 H 0.2791 -5.3573 0.9556 0
M  V30 100 H 1.7853 -4.7313 1.707 0
M  V30 101 H -2.6688 6.0907 5.1401 0
M  V30 102 H 0.3123 7.889 3.2709 0
M  V30 103 H -1.4489 7.7469 2.9408 0
M  V30 104 H -0.2499 7.7855 1.5862 0
M  V30 105 H 4.3785 -2.1469 -1.0546 0
M  V30 106 H 4.6805 2.7264 0.6199 0
M  V30 107 H 6.4395 1.0932 -0.3543 0
M  V30 108 H 6.4712 -0.9576 0.9041 0
M  V30 109 H 6.809 -1.4425 -0.751 0
M  V30 110 H 4.4047 -4.078 0.4236 0
M  V30 111 H 6.0812 -3.7356 -0.1215 0
M  V30 112 H 5.5499 -3.2761 1.5442 0
M  V30 113 H 4.4593 -0.2192 -2.2299 0
M  V30 114 H 3.6821 1.9528 -2.0762 0
M  V30 115 H 5.3916 2.6043 -2.0601 0
M  V30 116 H 4.6466 1.8689 -3.5302 0
M  V30 117 H 7.309 0.6029 -2.5157 0
M  V30 118 H 6.2047 0.3538 -3.9255 0
M  V30 119 H 6.5268 -1.0028 -2.8798 0
M  V30 END ATOM
M  V30 BEGIN BOND
M  V30 1 2 1 2
M  V30 2 1 2 3
M  V30 3 1 2 4
M  V30 4 1 3 5
M  V30 5 1 4 6
M  V30 6 1 4 7
M  V30 7 1 5 8
M  V30 8 1 5 9
M  V30 9 1 6 10
M  V30 10 1 6 11
M  V30 11 1 8 12
M  V30 12 1 8 13
M  V30 13 1 8 14
M  V30 14 1 9 15
M  V30 15 1 10 16
M  V30 16 1 11 17
M  V30 17 1 11 18
M  V30 18 1 13 19
M  V30 19 1 13 20
M  V30 20 1 16 21
M  V30 21 1 16 22
M  V30 22 1 17 23
M  V30 23 1 17 24
M  V30 24 1 20 25
M  V30 25 1 20 26
M  V30 26 1 21 27
M  V30 27 1 22 28
M  V30 28 1 23 29
M  V30 29 1 24 30
M  V30 30 1 24 31
M  V30 31 1 24 32
M  V30 32 2 25 33
M  V30 33 1 25 34
M  V30 34 1 27 35
M  V30 35 1 27 36
M  V30 36 1 28 37
M  V30 37 1 28 38
M  V30 38 1 29 39
M  V30 39 1 29 40
M  V30 40 1 34 41
M  V30 41 1 35 42
M  V30 42 1 37 43
M  V30 43 1 39 44
M  V30 44 1 40 45
M  V30 45 1 40 46
M  V30 46 1 44 47
M  V30 47 1 44 48
M  V30 48 1 46 49
M  V30 49 1 49 50
M  V30 50 1 49 51
M  V30 51 1 28 35
M  V30 52 1 31 34
M  V30 53 1 46 47
M  V30 54 1 4 52
M  V30 55 1 5 53
M  V30 56 1 6 54
M  V30 57 1 7 55
M  V30 58 1 7 56
M  V30 59 1 7 57
M  V30 60 1 9 58
M  V30 61 1 9 59
M  V30 62 1 11 60
M  V30 63 1 12 61
M  V30 64 1 13 62
M  V30 65 1 14 63
M  V30 66 1 14 64
M  V30 67 1 14 65
M  V30 68 1 15 66
M  V30 69 1 15 67
M  V30 70 1 15 68
M  V30 71 1 16 69
M  V30 72 1 17 70
M  V30 73 1 18 71
M  V30 74 1 18 72
M  V30 75 1 18 73
M  V30 76 1 19 74
M  V30 77 1 20 75
M  V30 78 1 22 76
M  V30 79 1 22 77
M  V30 80 1 26 78
M  V30 81 1 26 79
M  V30 82 1 26 80
M  V30 83 1 27 81
M  V30 84 1 29 82
M  V30 85 1 30 83
M  V30 86 1 31 84
M  V30 87 1 31 85
M  V30 88 1 32 86
M  V30 89 1 32 87
M  V30 90 1 32 88
M  V30 91 1 34 89
M  V30 92 1 35 90
M  V30 93 1 36 91
M  V30 94 1 36 92
M  V30 95 1 36 93
M  V30 96 1 38 94
M  V30 97 1 38 95
M  V30 98 1 38 96
M  V30 99 1 40 97
M  V30 100 1 41 98
M  V30 101 1 41 99
M  V30 102 1 41 100
M  V30 103 1 42 101
M  V30 104 1 43 102
M  V30 105 1 43 103
M  V30 106 1 43 104
M  V30 107 1 44 105
M  V30 108 1 45 106
M  V30 109 1 46 107
M  V30 110 1 47 108
M  V30 111 1 47 109
M  V30 112 1 48 110
M  V30 113 1 48 111
M  V30 114 1 48 112
M  V30 115 1 49 113
M  V30 116 1 50 114
M  V30 117 1 50 115
M  V30 118 1 50 116
M  V30 119 1 51 117
M  V30 120 1 51 118
M  V30 121 1 51 119
M  V30 END BOND
M  V30 BEGIN COLLECTION
M  V30 MDLV30/STEABS ATOMS=(18 4 5 6 8 11 13 16 17 20 24 27 28 29 34 35 40 44 46)
M  V30 END COLLECTION
M  V30 END CTAB
M  END
>  <Structure No>
6587

>  <LogS>
-1.27

>  <MMFF94 Energy>
204.59

$$$$
Compound 6588
Actelion Java MolfileCreator 2.0

  0  0  0  0  0  0              0 V3000
M  V30 BEGIN CTAB
M  V30 COUNTS 22 23 0 0 0
M  V30 BEGIN ATOM
M  V30 1 Cl 3.5778 2.9181 0.1881 0
M  V30 2 C 2.7715 1.3485 0.1548 0
M  V30 3 C 3.5337 0.1658 0.1942 0
M  V30 4 C 1.3664 1.2794 0.0919 0
M  V30 5 Cl 5.2943 0.2443 0.2738 0
M  V30 6 C 2.8884 -1.0813 0.1718 0
M  V30 7 Cl 0.4093 2.7644 0.0745 0
M  V30 8 C 0.7268 0.0238 0.0691 0
M  V30 9 Cl 3.8012 -2.5843 0.2202 0
M  V30 10 C 1.4954 -1.1464 0.1083 0
M  V30 11 C -0.7454 -0.0872 -0.0111 0
M  V30 12 C -1.5068 -0.5378 1.0859 0
M  V30 13 C -1.3879 0.2501 -1.2091 0
M  V30 14 Cl -0.7142 -0.9372 2.6134 0
M  V30 15 C -2.9062 -0.6447 0.9704 0
M  V30 16 C -2.7751 0.1463 -1.3266 0
M  V30 17 Cl -3.8654 -1.2043 2.3422 0
M  V30 18 C -3.5412 -0.3025 -0.2383 0
M  V30 19 Cl -3.5269 0.5852 -2.8553 0
M  V30 20 Cl -5.294 -0.4333 -0.3906 0
M  V30 21 H 1.0074 -2.1137 0.0862 0
M  V30 22 H -0.8054 0.5925 -2.0564 0
M  V30 END ATOM
M  V30 BEGIN BOND
M  V30 1 1 1 2
M  V30 2 2 2 3
M  V30 3 1 2 4
M  V30 4 1 3 5
M  V30 5 1 3 6
M  V30 6 1 4 7
M  V30 7 2 4 8
M  V30 8 1 6 9
M  V30 9 2 6 10
M  V30 10 1 8 11
M  V30 11 2 11 12
M  V30 12 1 11 13
M  V30 13 1 12 14
M  V30 14 1 12 15
M  V30 15 2 13 16
M  V30 16 1 15 17
M  V30 17 2 15 18
M  V30 18 1 16 19
M  V30 19 1 18 20
M  V30 20 1 8 10
M  V30 21 1 16 18
M  V30 22 1 10 21
M  V30 23 1 13 22
M  V30 END BOND
M  V30 END CTAB
M  END
>  <Structure No>
6588

>  <LogS>
-9.16

>  <MMFF94 Energy>
68.772

$$$$
Compound 6589
Actelion Java MolfileCreator 2.0

  0  0  0  0  0  0              0 V3000
M  V30 BEGIN CTAB
M  V30 COUNTS 44 46 0 0 0
M  V30 BEGIN ATOM
M  V30 1 O 4.4092 0.3201 3.125 0
M  V30 2 C 3.5923 0.205 2.1714 0
M  V30 3 C 2.8441 -1.0581 1.995 0
M  V30 4 C 3.372 1.33 1.2346 0
M  V30 5 O 3.0058 -2.1085 2.898 0
M  V30 6 C 1.9968 -1.2102 0.9722 0
M  V30 7 C 2.4756 1.1686 0.1561 0
M  V30 8 C 4.0399 2.5554 1.4079 0
M  V30 9 C 1.7817 -0.1328 -0.0298 0
M  V30 10 C 2.2639 2.2419 -0.7308 0
M  V30 11 C 3.819 3.6104 0.5201 0
M  V30 12 N 0.9681 -0.2848 -1.0373 0
M  V30 13 C 2.9328 3.4542 -0.5461 0
M  V30 14 C 0.2815 -1.4902 -1.3963 0
M  V30 15 C -1.0649 -1.6206 -1.6395 0
M  V30 16 C 0.8247 -2.7038 -1.7688 0
M  V30 17 O -1.286 -2.8443 -2.0652 0
M  V30 18 C -2.1228 -0.5826 -1.4295 0
M  V30 19 N -0.1748 -3.5224 -2.1555 0
M  V30 20 C 2.2681 -3.0911 -1.7753 0
M  V30 21 C -2.4864 -0.4822 0.0579 0
M  V30 22 C -3.4641 0.6661 0.3511 0
M  V30 23 C -4.8774 0.3893 -0.1821 0
M  V30 24 C -5.8485 1.4884 0.2399 0
M  V30 25 H 3.6329 -2.0402 3.6904 0
M  V30 26 H 1.4457 -2.1384 0.8981 0
M  V30 27 H 4.7307 2.6986 2.2294 0
M  V30 28 H 1.5827 2.1467 -1.5669 0
M  V30 29 H 4.3356 4.5514 0.6595 0
M  V30 30 H 2.764 4.2744 -1.232 0
M  V30 31 H -1.7491 0.3972 -1.7981 0
M  V30 32 H -3.0162 -0.8638 -2.0251 0
M  V30 33 H 2.4725 -3.7583 -2.6384 0
M  V30 34 H 2.5138 -3.6296 -0.837 0
M  V30 35 H 2.9123 -2.1912 -1.8634 0
M  V30 36 H -1.5588 -0.2979 0.644 0
M  V30 37 H -2.9188 -1.4457 0.4076 0
M  V30 38 H -3.5165 0.798 1.4543 0
M  V30 39 H -3.0738 1.613 -0.0827 0
M  V30 40 H -5.245 -0.5837 0.2104 0
M  V30 41 H -4.8641 0.3415 -1.2912 0
M  V30 42 H -5.5132 2.4715 -0.1541 0
M  V30 43 H -5.9157 1.5406 1.3476 0
M  V30 44 H -6.8584 1.2686 -0.1663 0
M  V30 END ATOM
M  V30 BEGIN BOND
M  V30 1 2 1 2
M  V30 2 1 2 3
M  V30 3 1 2 4
M  V30 4 1 3 5
M  V30 5 2 3 6
M  V30 6 2 4 7
M  V30 7 1 4 8
M  V30 8 1 6 9
M  V30 9 1 7 10
M  V30 10 2 8 11
M  V30 11 2 9 12
M  V30 12 2 10 13
M  V30 13 1 12 14
M  V30 14 2 14 15
M  V30 15 1 14 16
M  V30 16 1 15 17
M  V30 17 1 15 18
M  V30 18 2 16 19
M  V30 19 1 16 20
M  V30 20 1 18 21
M  V30 21 1 21 22
M  V30 22 1 22 23
M  V30 23 1 23 24
M  V30 24 1 7 9
M  V30 25 1 11 13
M  V30 26 1 17 19
M  V30 27 1 5 25
M  V30 28 1 6 26
M  V30 29 1 8 27
M  V30 30 1 10 28
M  V30 31 1 11 29
M  V30 32 1 13 30
M  V30 33 1 18 31
M  V30 34 1 18 32
M  V30 35 1 20 33
M  V30 36 1 20 34
M  V30 37 1 20 35
M  V30 38 1 21 36
M  V30 39 1 21 37
M  V30 40 1 22 38
M  V30 41 1 22 39
M  V30 42 1 23 40
M  V30 43 1 23 41
M  V30 44 1 24 42
M  V30 45 1 24 43
M  V30 46 1 24 44
M  V30 END BOND
M  V30 END CTAB
M  END
>  <Structure No>
6589

>  <LogS>
-3.18

>  <MMFF94 Energy>
70.071

$$$$
Compound 6590
Actelion Java MolfileCreator 2.0

  0  0  0  0  0  0              0 V3000
M  V30 BEGIN CTAB
M  V30 COUNTS 43 44 0 0 0
M  V30 BEGIN ATOM
M  V30 1 Cl -5.4866 -2.1757 -1.8532 0
M  V30 2 C -3.9649 -2.2388 -0.9764 0
M  V30 3 C -2.9351 -1.334 -1.2699 0
M  V30 4 C -3.799 -3.1863 0.0329 0
M  V30 5 O -3.1485 -0.3638 -2.2534 0
M  V30 6 C -1.7069 -1.4053 -0.5678 0
M  V30 7 C -2.6059 -3.2473 0.7506 0
M  V30 8 C -3.4553 0.9834 -1.9143 0
M  V30 9 C -1.5474 -2.3667 0.4567 0
M  V30 10 C -0.5859 -0.495 -0.9057 0
M  V30 11 O -0.3252 -2.4359 1.1474 0
M  V30 12 O 0.2339 -0.0136 0.125 0
M  V30 13 N -0.39 -0.1465 -2.1452 0
M  V30 14 C -0.0367 -3.3505 2.1997 0
M  V30 15 C 1.6336 0.0105 0.0671 0
M  V30 16 O 0.5398 0.7965 -2.5352 0
M  V30 17 O 2.2422 -0.6536 -0.8168 0
M  V30 18 C 2.3956 0.7945 1.0624 0
M  V30 19 C 0.4082 2.167 -2.1693 0
M  V30 20 C 1.7206 1.5195 2.0615 0
M  V30 21 C 3.8019 0.8369 1.0205 0
M  V30 22 C 1.6638 2.9236 -2.5702 0
M  V30 23 C 2.4387 2.2678 2.9995 0
M  V30 24 C 4.5147 1.587 1.961 0
M  V30 25 C 3.8341 2.3016 2.9496 0
M  V30 26 H -4.5993 -3.8773 0.2662 0
M  V30 27 H -2.5125 -3.9939 1.5272 0
M  V30 28 H -4.4132 1.0222 -1.3537 0
M  V30 29 H -2.6471 1.4228 -1.2932 0
M  V30 30 H -3.5574 1.579 -2.8444 0
M  V30 31 H -0.7399 -3.1943 3.0449 0
M  V30 32 H -0.1079 -4.3947 1.8285 0
M  V30 33 H 0.9968 -3.1716 2.5603 0
M  V30 34 H -0.4717 2.6028 -2.6888 0
M  V30 35 H 0.2582 2.2677 -1.0741 0
M  V30 36 H 0.6393 1.5101 2.1188 0
M  V30 37 H 4.3504 0.2929 0.2617 0
M  V30 38 H 2.5447 2.4995 -2.0429 0
M  V30 39 H 1.5602 3.9945 -2.2957 0
M  V30 40 H 1.8209 2.8448 -3.6668 0
M  V30 41 H 1.9123 2.8228 3.7654 0
M  V30 42 H 5.5961 1.6149 1.9226 0
M  V30 43 H 4.3878 2.8817 3.6764 0
M  V30 END ATOM
M  V30 BEGIN BOND
M  V30 1 1 1 2
M  V30 2 2 2 3
M  V30 3 1 2 4
M  V30 4 1 3 5
M  V30 5 1 3 6
M  V30 6 2 4 7
M  V30 7 1 5 8
M  V30 8 2 6 9
M  V30 9 1 6 10
M  V30 10 1 9 11
M  V30 11 1 10 12
M  V30 12 2 10 13
M  V30 13 1 11 14
M  V30 14 1 12 15
M  V30 15 1 13 16
M  V30 16 2 15 17
M  V30 17 1 15 18
M  V30 18 1 16 19
M  V30 19 2 18 20
M  V30 20 1 18 21
M  V30 21 1 19 22
M  V30 22 1 20 23
M  V30 23 2 21 24
M  V30 24 2 23 25
M  V30 25 1 7 9
M  V30 26 1 24 25
M  V30 27 1 4 26
M  V30 28 1 7 27
M  V30 29 1 8 28
M  V30 30 1 8 29
M  V30 31 1 8 30
M  V30 32 1 14 31
M  V30 33 1 14 32
M  V30 34 1 14 33
M  V30 35 1 19 34
M  V30 36 1 19 35
M  V30 37 1 20 36
M  V30 38 1 21 37
M  V30 39 1 22 38
M  V30 40 1 22 39
M  V30 41 1 22 40
M  V30 42 1 23 41
M  V30 43 1 24 42
M  V30 44 1 25 43
M  V30 END BOND
M  V30 END CTAB
M  END
>  <Structure No>
6590

>  <LogS>
-4.08

>  <MMFF94 Energy>
104.25

$$$$
Compound 6591
Actelion Java MolfileCreator 2.0

  0  0  0  0  0  0              0 V3000
M  V30 BEGIN CTAB
M  V30 COUNTS 45 48 0 0 0
M  V30 BEGIN ATOM
M  V30 1 F -0.6507 2.7679 2.1975 0
M  V30 2 C 0.1761 1.9777 1.468 0
M  V30 3 C -0.345 0.9348 0.6893 0
M  V30 4 C 1.5532 2.2076 1.508 0
M  V30 5 N -1.7615 0.7078 0.6337 0
M  V30 6 C 0.5252 0.1286 -0.058 0
M  V30 7 C 2.4374 1.3838 0.7858 0
M  V30 8 C -2.6488 1.7562 0.1174 0
M  V30 9 C -2.319 -0.4686 1.3107 0
M  V30 10 O 0.0131 -0.8617 -0.8989 0
M  V30 11 C 1.9185 0.3209 0.0132 0
M  V30 12 C 3.8281 1.5898 0.8207 0
M  V30 13 C -3.8454 1.1602 -0.6585 0
M  V30 14 C -3.8145 -0.6027 1.024 0
M  V30 15 C 0.8264 -1.453 -1.9059 0
M  V30 16 N 2.7629 -0.5232 -0.665 0
M  V30 17 O 4.3042 2.543 1.4974 0
M  V30 18 C 4.6837 0.7303 0.1025 0
M  V30 19 N -4.0542 -0.2815 -0.3919 0
M  V30 20 C 2.2377 -1.7204 -1.3577 0 CFG=1
M  V30 21 C 4.1152 -0.3293 -0.6248 0
M  V30 22 C 6.1618 0.9057 0.109 0
M  V30 23 C -5.4114 -0.6849 -0.7895 0
M  V30 24 C 2.2329 -2.9159 -0.3978 0
M  V30 25 O 6.8999 0.1161 -0.5385 0
M  V30 26 O 6.759 1.938 0.823 0 CHG=-1
M  V30 27 H 1.9246 3.0242 2.1151 0
M  V30 28 H -2.0861 2.4482 -0.5477 0
M  V30 29 H -3.03 2.351 0.9758 0
M  V30 30 H -1.8058 -1.3832 0.9434 0
M  V30 31 H -2.1497 -0.3882 2.4062 0
M  V30 32 H -3.6606 1.2894 -1.7471 0
M  V30 33 H -4.7553 1.7513 -0.4039 0
M  V30 34 H -4.1224 -1.648 1.2505 0
M  V30 35 H -4.3937 0.0805 1.687 0
M  V30 36 H 0.8987 -0.7498 -2.7637 0
M  V30 37 H 0.3512 -2.3894 -2.2681 0
M  V30 38 H 2.8875 -1.9758 -2.2255 0
M  V30 39 H 4.7644 -1.0171 -1.1548 0
M  V30 40 H -5.5205 -1.7871 -0.7032 0
M  V30 41 H -6.1808 -0.1934 -0.1529 0
M  V30 42 H -5.5946 -0.4172 -1.8526 0
M  V30 43 H 1.5789 -2.7132 0.4771 0
M  V30 44 H 1.8685 -3.8266 -0.9189 0
M  V30 45 H 3.2634 -3.1126 -0.0335 0
M  V30 END ATOM
M  V30 BEGIN BOND
M  V30 1 1 1 2
M  V30 2 2 2 3
M  V30 3 1 2 4
M  V30 4 1 3 5
M  V30 5 1 3 6
M  V30 6 2 4 7
M  V30 7 1 5 8
M  V30 8 1 5 9
M  V30 9 1 6 10
M  V30 10 2 6 11
M  V30 11 1 7 12
M  V30 12 1 8 13
M  V30 13 1 9 14
M  V30 14 1 10 15
M  V30 15 1 11 16
M  V30 16 2 12 17
M  V30 17 1 12 18
M  V30 18 1 13 19
M  V30 19 1 15 20
M  V30 20 1 16 21
M  V30 21 1 18 22
M  V30 22 1 19 23
M  V30 23 1 20 24
M  V30 24 2 22 25
M  V30 25 1 22 26
M  V30 26 1 7 11
M  V30 27 1 14 19
M  V30 28 1 16 20
M  V30 29 2 18 21
M  V30 30 1 4 27
M  V30 31 1 8 28
M  V30 32 1 8 29
M  V30 33 1 9 30
M  V30 34 1 9 31
M  V30 35 1 13 32
M  V30 36 1 13 33
M  V30 37 1 14 34
M  V30 38 1 14 35
M  V30 39 1 15 36
M  V30 40 1 15 37
M  V30 41 1 20 38
M  V30 42 1 21 39
M  V30 43 1 23 40
M  V30 44 1 23 41
M  V30 45 1 23 42
M  V30 46 1 24 43
M  V30 47 1 24 44
M  V30 48 1 24 45
M  V30 END BOND
M  V30 BEGIN COLLECTION
M  V30 MDLV30/STEABS ATOMS=(1 20)
M  V30 END COLLECTION
M  V30 END CTAB
M  END
>  <Structure No>
6591

>  <LogS>
-1.27

>  <MMFF94 Energy>
183.43

$$$$
Compound 6592
Actelion Java MolfileCreator 2.0

  0  0  0  0  0  0              0 V3000
M  V30 BEGIN CTAB
M  V30 COUNTS 54 57 0 0 0
M  V30 BEGIN ATOM
M  V30 1 O -4.9686 2.4819 0.48 0
M  V30 2 C -4.6898 1.2599 0.3348 0
M  V30 3 N -3.3106 0.8668 0.148 0
M  V30 4 C -5.8203 0.2538 0.3379 0 CFG=1
M  V30 5 C -2.86 -0.5155 0.3702 0
M  V30 6 C -2.3965 1.768 -0.5694 0
M  V30 7 O -7.0581 0.9048 0.5389 0
M  V30 8 C -5.8832 -0.5214 -0.9706 0
M  V30 9 C -1.4728 -0.5248 1.0132 0
M  V30 10 C -1.0093 1.7504 0.0741 0
M  V30 11 C -7.9757 0.3948 -0.4021 0
M  V30 12 C -7.348 -0.7678 -1.1406 0
M  V30 13 N -0.5693 0.3674 0.2794 0
M  V30 14 C 0.8228 0.0312 0.1387 0
M  V30 15 N 1.1962 -1.1977 -0.3142 0 CHG=1
M  V30 16 N 1.7723 0.9545 0.4345 0
M  V30 17 C 2.5083 -1.5382 -0.4656 0
M  V30 18 C 3.0936 0.6765 0.3148 0
M  V30 19 N 2.8207 -2.8423 -0.9801 0
M  V30 20 C 3.5122 -0.5946 -0.1316 0
M  V30 21 C 4.0321 1.6572 0.6449 0
M  V30 22 C 4.8939 -0.8633 -0.2124 0
M  V30 23 C 5.4083 1.3896 0.5483 0
M  V30 24 C 5.8405 0.1259 0.1227 0
M  V30 25 O 6.3786 2.3521 0.8703 0
M  V30 26 O 7.2234 -0.1088 0.0476 0
M  V30 27 C 6.0891 3.6735 1.3155 0
M  V30 28 C 7.8166 -1.335 -0.3672 0
M  V30 29 H -5.6812 -0.453 1.1832 0
M  V30 30 H -2.8202 -1.0493 -0.6037 0
M  V30 31 H -3.5463 -1.0637 1.0459 0
M  V30 32 H -2.7706 2.8141 -0.5715 0
M  V30 33 H -2.3165 1.4337 -1.6266 0
M  V30 34 H -5.3175 -1.4764 -0.9162 0
M  V30 35 H -5.509 0.0913 -1.822 0
M  V30 36 H -1.5523 -0.1732 2.065 0
M  V30 37 H -1.091 -1.5668 1.0366 0
M  V30 38 H -0.3036 2.2935 -0.5922 0
M  V30 39 H -1.0434 2.2754 1.0534 0
M  V30 40 H -8.236 1.202 -1.1207 0
M  V30 41 H -8.9029 0.0703 0.1164 0
M  V30 42 H -7.6434 -0.7869 -2.2123 0
M  V30 43 H -7.632 -1.7264 -0.652 0
M  V30 44 H 0.4603 -1.8859 -0.5897 0
M  V30 45 H 2.0565 -3.5385 -1.1266 0
M  V30 46 H 3.7692 -3.1203 -1.306 0
M  V30 47 H 3.6799 2.6242 0.9795 0
M  V30 48 H 5.2495 -1.8317 -0.5171 0
M  V30 49 H 5.5104 4.2194 0.5407 0
M  V30 50 H 7.0419 4.213 1.4928 0
M  V30 51 H 5.5179 3.6393 2.2672 0
M  V30 52 H 7.5162 -2.1559 0.3177 0
M  V30 53 H 7.5133 -1.5734 -1.4084 0
M  V30 54 H 8.9205 -1.2324 -0.3342 0
M  V30 END ATOM
M  V30 BEGIN BOND
M  V30 1 2 1 2
M  V30 2 1 2 3
M  V30 3 1 2 4
M  V30 4 1 3 5
M  V30 5 1 3 6
M  V30 6 1 4 7
M  V30 7 1 4 8
M  V30 8 1 5 9
M  V30 9 1 6 10
M  V30 10 1 7 11
M  V30 11 1 8 12
M  V30 12 1 9 13
M  V30 13 1 13 14
M  V30 14 1 14 15
M  V30 15 2 14 16
M  V30 16 2 15 17
M  V30 17 1 16 18
M  V30 18 1 17 19
M  V30 19 1 17 20
M  V30 20 2 18 21
M  V30 21 2 20 22
M  V30 22 1 21 23
M  V30 23 1 22 24
M  V30 24 1 23 25
M  V30 25 1 24 26
M  V30 26 1 25 27
M  V30 27 1 26 28
M  V30 28 1 10 13
M  V30 29 1 11 12
M  V30 30 1 18 20
M  V30 31 2 23 24
M  V30 32 1 4 29
M  V30 33 1 5 30
M  V30 34 1 5 31
M  V30 35 1 6 32
M  V30 36 1 6 33
M  V30 37 1 8 34
M  V30 38 1 8 35
M  V30 39 1 9 36
M  V30 40 1 9 37
M  V30 41 1 10 38
M  V30 42 1 10 39
M  V30 43 1 11 40
M  V30 44 1 11 41
M  V30 45 1 12 42
M  V30 46 1 12 43
M  V30 47 1 15 44
M  V30 48 1 19 45
M  V30 49 1 19 46
M  V30 50 1 21 47
M  V30 51 1 22 48
M  V30 52 1 27 49
M  V30 53 1 27 50
M  V30 54 1 27 51
M  V30 55 1 28 52
M  V30 56 1 28 53
M  V30 57 1 28 54
M  V30 END BOND
M  V30 BEGIN COLLECTION
M  V30 MDLV30/STEABS ATOMS=(1 4)
M  V30 END COLLECTION
M  V30 END CTAB
M  END
>  <Structure No>
6592

>  <LogS>
-1.8

>  <MMFF94 Energy>
70.948

$$$$
Compound 6593
Actelion Java MolfileCreator 2.0

  0  0  0  0  0  0              0 V3000
M  V30 BEGIN CTAB
M  V30 COUNTS 36 37 0 0 0
M  V30 BEGIN ATOM
M  V30 1 Cl 6.6977 -2.8073 1.1552 0
M  V30 2 C 5.1528 -1.994 0.984 0
M  V30 3 C 4.8152 -0.9455 1.8436 0
M  V30 4 C 4.2584 -2.3978 -0.0073 0
M  V30 5 C 3.5753 -0.2896 1.7248 0
M  V30 6 C 3.0307 -1.7497 -0.1489 0
M  V30 7 N 3.2379 0.7643 2.6454 0 CHG=1
M  V30 8 C 2.6788 -0.6891 0.7062 0
M  V30 9 O 4.1377 1.4015 3.2311 0
M  V30 10 O 1.9293 0.9885 3.0044 0 CHG=-1
M  V30 11 N 1.4457 0.0157 0.512 0 CHG=-1
M  V30 12 N 0.4954 -0.3971 -0.4329 0
M  V30 13 C -0.6004 0.2485 -0.72 0
M  V30 14 C -1.5683 -0.4165 -1.6079 0
M  V30 15 C -0.9734 1.5764 -0.1301 0
M  V30 16 O -1.2092 -1.4137 -2.2925 0
M  V30 17 N -2.928 0.0458 -1.6527 0
M  V30 18 C -2.2776 1.9495 -0.1111 0
M  V30 19 C 0.0943 2.5098 0.4009 0
M  V30 20 C -3.3104 1.1442 -0.8047 0
M  V30 21 C -3.9345 -0.6689 -2.4503 0
M  V30 22 C -2.7065 3.1614 0.5564 0
M  V30 23 O -4.5292 1.4443 -0.6709 0
M  V30 24 C -4.5424 -1.8099 -1.642 0
M  V30 25 N -3.0501 4.1293 1.09 0
M  V30 26 H 5.5143 -0.6538 2.6173 0
M  V30 27 H 4.5166 -3.2101 -0.6749 0
M  V30 28 H 2.3623 -2.0702 -0.9373 0
M  V30 29 H 0.2481 2.3271 1.4834 0
M  V30 30 H -0.1805 3.5753 0.2543 0
M  V30 31 H 1.0465 2.376 -0.1524 0
M  V30 32 H -3.4765 -1.0752 -3.3779 0
M  V30 33 H -4.7397 0.0266 -2.7719 0
M  V30 34 H -5.0341 -1.4131 -0.7287 0
M  V30 35 H -5.3011 -2.3394 -2.2558 0
M  V30 36 H -3.753 -2.5328 -1.3463 0
M  V30 END ATOM
M  V30 BEGIN BOND
M  V30 1 1 1 2
M  V30 2 2 2 3
M  V30 3 1 2 4
M  V30 4 1 3 5
M  V30 5 2 4 6
M  V30 6 1 5 7
M  V30 7 2 5 8
M  V30 8 2 7 9
M  V30 9 1 7 10
M  V30 10 1 8 11
M  V30 11 1 11 12
M  V30 12 2 12 13
M  V30 13 1 13 14
M  V30 14 1 13 15
M  V30 15 2 14 16
M  V30 16 1 14 17
M  V30 17 2 15 18
M  V30 18 1 15 19
M  V30 19 1 17 20
M  V30 20 1 17 21
M  V30 21 1 18 22
M  V30 22 2 20 23
M  V30 23 1 21 24
M  V30 24 3 22 25
M  V30 25 1 6 8
M  V30 26 1 18 20
M  V30 27 1 3 26
M  V30 28 1 4 27
M  V30 29 1 6 28
M  V30 30 1 19 29
M  V30 31 1 19 30
M  V30 32 1 19 31
M  V30 33 1 21 32
M  V30 34 1 21 33
M  V30 35 1 24 34
M  V30 36 1 24 35
M  V30 37 1 24 36
M  V30 END BOND
M  V30 END CTAB
M  END
>  <Structure No>
6593

>  <LogS>
-6.69

>  <MMFF94 Energy>
41.748

$$$$
Compound 6594
Actelion Java MolfileCreator 2.0

  0  0  0  0  0  0              0 V3000
M  V30 BEGIN CTAB
M  V30 COUNTS 48 50 0 0 0
M  V30 BEGIN ATOM
M  V30 1 S 2.2486 1.8467 -2.3289 0
M  V30 2 C 2.3678 0.3941 -1.2798 0
M  V30 3 C 1.9114 2.9478 -0.9518 0
M  V30 4 C 1.3847 0.1673 -0.3003 0
M  V30 5 C 3.3866 -0.5386 -1.4866 0
M  V30 6 C 0.955 2.5754 0.0118 0
M  V30 7 C 2.5553 4.1866 -0.8679 0
M  V30 8 N 0.4479 1.2229 0.0157 0
M  V30 9 C 1.4177 -1.0266 0.4415 0
M  V30 10 C 3.4144 -1.7217 -0.7441 0
M  V30 11 C 0.6438 3.4719 1.0501 0
M  V30 12 C 2.231 5.0735 0.1618 0
M  V30 13 C -0.9362 0.9313 0.4282 0
M  V30 14 C 2.4219 -1.9774 0.2213 0
M  V30 15 C 1.2723 4.7195 1.1151 0
M  V30 16 C -1.6764 0.0733 -0.6275 0 CFG=1
M  V30 17 O 2.4032 -3.153 0.9866 0
M  V30 18 C -3.0587 -0.3961 -0.0985 0
M  V30 19 C -1.8534 0.8727 -1.9277 0
M  V30 20 C 3.3578 -4.2029 0.8707 0
M  V30 21 N -2.9572 -1.5547 0.828 0 CHG=1
M  V30 22 C -4.1262 -1.5935 1.7245 0
M  V30 23 C -2.8663 -2.8277 0.0871 0
M  V30 24 H 4.1411 -0.3621 -2.2424 0
M  V30 25 H 3.2894 4.4715 -1.6107 0
M  V30 26 H 0.6836 -1.2141 1.2131 0
M  V30 27 H 4.2061 -2.4333 -0.9336 0
M  V30 28 H -0.0491 3.1934 1.833 0
M  V30 29 H 2.7225 6.036 0.2212 0
M  V30 30 H -0.9193 0.433 1.418 0
M  V30 31 H -1.5074 1.8757 0.5645 0
M  V30 32 H 1.0324 5.4038 1.9188 0
M  V30 33 H -1.0631 -0.8162 -0.8736 0
M  V30 34 H -3.5441 0.4727 0.4033 0
M  V30 35 H -3.7274 -0.655 -0.9518 0
M  V30 36 H -0.8677 1.1936 -2.3252 0
M  V30 37 H -2.34 0.2426 -2.7022 0
M  V30 38 H -2.4801 1.7735 -1.7519 0
M  V30 39 H 3.3382 -4.625 -0.1561 0
M  V30 40 H 4.3737 -3.8233 1.1093 0
M  V30 41 H 3.1012 -5.0071 1.5903 0
M  V30 42 H -2.1054 -1.4696 1.4291 0
M  V30 43 H -4.0643 -2.4655 2.4127 0
M  V30 44 H -5.0731 -1.6616 1.1435 0
M  V30 45 H -4.1594 -0.6796 2.3578 0
M  V30 46 H -1.9757 -2.8425 -0.5746 0
M  V30 47 H -3.7737 -2.9972 -0.5345 0
M  V30 48 H -2.7583 -3.6805 0.7932 0
M  V30 END ATOM
M  V30 BEGIN BOND
M  V30 1 1 1 2
M  V30 2 1 1 3
M  V30 3 2 2 4
M  V30 4 1 2 5
M  V30 5 2 3 6
M  V30 6 1 3 7
M  V30 7 1 4 8
M  V30 8 1 4 9
M  V30 9 2 5 10
M  V30 10 1 6 11
M  V30 11 2 7 12
M  V30 12 1 8 13
M  V30 13 2 9 14
M  V30 14 2 11 15
M  V30 15 1 13 16
M  V30 16 1 14 17
M  V30 17 1 16 18
M  V30 18 1 16 19
M  V30 19 1 17 20
M  V30 20 1 18 21
M  V30 21 1 21 22
M  V30 22 1 21 23
M  V30 23 1 6 8
M  V30 24 1 10 14
M  V30 25 1 12 15
M  V30 26 1 5 24
M  V30 27 1 7 25
M  V30 28 1 9 26
M  V30 29 1 10 27
M  V30 30 1 11 28
M  V30 31 1 12 29
M  V30 32 1 13 30
M  V30 33 1 13 31
M  V30 34 1 15 32
M  V30 35 1 16 33
M  V30 36 1 18 34
M  V30 37 1 18 35
M  V30 38 1 19 36
M  V30 39 1 19 37
M  V30 40 1 19 38
M  V30 41 1 20 39
M  V30 42 1 20 40
M  V30 43 1 20 41
M  V30 44 1 21 42
M  V30 45 1 22 43
M  V30 46 1 22 44
M  V30 47 1 22 45
M  V30 48 1 23 46
M  V30 49 1 23 47
M  V30 50 1 23 48
M  V30 END BOND
M  V30 BEGIN COLLECTION
M  V30 MDLV30/STEABS ATOMS=(1 16)
M  V30 END COLLECTION
M  V30 END CTAB
M  END
>  <Structure No>
6594

>  <LogS>
-4.37

>  <MMFF94 Energy>
73.459

$$$$
Compound 6595
Actelion Java MolfileCreator 2.0

  0  0  0  0  0  0              0 V3000
M  V30 BEGIN CTAB
M  V30 COUNTS 22 23 0 0 0
M  V30 BEGIN ATOM
M  V30 1 Cl 0.5641 2.1638 1.7872 0
M  V30 2 C 1.4648 0.9808 0.8341 0
M  V30 3 C 0.7812 0.0324 0.0445 0
M  V30 4 C 2.8692 0.9833 0.8613 0
M  V30 5 C 1.5113 -0.9075 -0.7126 0
M  V30 6 C -0.6993 0.0236 0.0108 0
M  V30 7 Cl 3.7629 2.1475 1.8314 0
M  V30 8 C 3.5845 0.0493 0.1087 0
M  V30 9 Cl 0.6694 -2.1008 -1.7056 0
M  V30 10 C 2.9155 -0.8929 -0.6755 0
M  V30 11 C -1.423 -0.7543 0.9388 0
M  V30 12 C -1.3892 0.7931 -0.9494 0
M  V30 13 Cl 3.8665 -2.046 -1.6033 0
M  V30 14 Cl -0.5731 -1.7225 2.1467 0
M  V30 15 C -2.8273 -0.7577 0.9007 0
M  V30 16 Cl -0.4966 1.7719 -2.1175 0
M  V30 17 C -2.7938 0.7798 -0.9754 0
M  V30 18 Cl -3.7706 -1.7125 2.0382 0
M  V30 19 C -3.5027 0.0068 -0.0531 0
M  V30 20 Cl -3.6954 1.7236 -2.155 0
M  V30 21 H 4.667 0.0558 0.1334 0
M  V30 22 H -4.5853 4.0E-4 -0.0778 0
M  V30 END ATOM
M  V30 BEGIN BOND
M  V30 1 1 1 2
M  V30 2 2 2 3
M  V30 3 1 2 4
M  V30 4 1 3 5
M  V30 5 1 3 6
M  V30 6 1 4 7
M  V30 7 2 4 8
M  V30 8 1 5 9
M  V30 9 2 5 10
M  V30 10 2 6 11
M  V30 11 1 6 12
M  V30 12 1 10 13
M  V30 13 1 11 14
M  V30 14 1 11 15
M  V30 15 1 12 16
M  V30 16 2 12 17
M  V30 17 1 15 18
M  V30 18 2 15 19
M  V30 19 1 17 20
M  V30 20 1 8 10
M  V30 21 1 17 19
M  V30 22 1 8 21
M  V30 23 1 19 22
M  V30 END BOND
M  V30 END CTAB
M  END
>  <Structure No>
6595

>  <LogS>
-9.38

>  <MMFF94 Energy>
52.334

$$$$
Compound 6596
Actelion Java MolfileCreator 2.0

  0  0  0  0  0  0              0 V3000
M  V30 BEGIN CTAB
M  V30 COUNTS 122 124 0 0 0
M  V30 BEGIN ATOM
M  V30 1 O -1.5914 0.3976 1.9896 0
M  V30 2 C -2.1957 0.0206 0.9433 0
M  V30 3 O -2.7343 -1.2734 0.8538 0
M  V30 4 C -2.3463 0.9791 -0.2163 0 CFG=2
M  V30 5 C -3.0213 -2.0957 1.9866 0 CFG=2
M  V30 6 C -0.9569 1.4905 -0.7694 0 CFG=2
M  V30 7 C -3.2985 2.1027 0.2131 0
M  V30 8 C -2.9282 -3.6137 1.5939 0 CFG=1
M  V30 9 C -4.3664 -1.6299 2.5962 0
M  V30 10 O -1.0283 2.8626 -1.1549 0
M  V30 11 C -0.4404 0.6778 -2.0133 0 CFG=1
M  V30 12 O -3.725 -3.7988 0.4472 0
M  V30 13 C -1.4216 -3.942 1.2619 0 CFG=1
M  V30 14 C -3.4475 -4.4836 2.7681 0
M  V30 15 C -5.5507 -1.7407 1.6331 0
M  V30 16 C -0.195 3.6975 -0.3692 0 CFG=2
M  V30 17 C 0.0697 -0.7724 -1.6204 0 CFG=2
M  V30 18 C -1.3818 0.8366 -3.2364 0
M  V30 19 O -0.7009 -4.0586 2.4692 0
M  V30 20 C -1.067 -5.1625 0.3295 0 CFG=2
M  V30 21 O -0.8411 3.9412 0.8651 0
M  V30 22 C 0.0095 5.0123 -1.1368 0
M  V30 23 O 1.4658 -0.6854 -1.3377 0
M  V30 24 C -0.1094 -1.9748 -2.6383 0 CFG=2
M  V30 25 C -1.4713 -5.0108 -1.1435 0
M  V30 26 C -1.5133 -6.5223 0.8741 0
M  V30 27 C -0.0162 4.7045 1.7204 0 CFG=1
M  V30 28 C 0.807 6.0669 -0.3157 0 CFG=2
M  V30 29 C 1.8182 -0.6458 0.0382 0 CFG=1
M  V30 30 O -1.4229 -2.0342 -3.1984 0
M  V30 31 C 0.3348 -3.3261 -1.9256 0
M  V30 32 C 0.8496 -1.789 -3.8439 0
M  V30 33 O -2.6121 -5.3142 -1.4886 0
M  V30 34 C -0.462 -4.6333 -2.2378 0 CFG=1
M  V30 35 C 0.2312 6.1197 1.1328 0 CFG=1
M  V30 36 C -0.6864 4.7839 3.0922 0
M  V30 37 O 0.6425 7.3794 -0.8599 0
M  V30 38 C 2.3156 5.6899 -0.2379 0
M  V30 39 O 2.5115 -1.8477 0.3776 0
M  V30 40 C 2.614 0.6641 0.3514 0 CFG=2
M  V30 41 C -2.4649 -2.2773 -2.2706 0
M  V30 42 C 0.4849 -5.8211 -2.4886 0
M  V30 43 O -0.9472 6.8938 1.1628 0
M  V30 44 C 1.0893 7.507 -2.1989 0
M  V30 45 C 3.9016 -1.84 0.0487 0 CFG=2
M  V30 46 O 3.1346 1.2043 -0.8433 0
M  V30 47 C 3.7603 0.36 1.3388 0 CFG=1
M  V30 48 C 4.7005 -0.6771 0.696 0
M  V30 49 C 4.1464 -1.9576 -1.4603 0
M  V30 50 N 4.5009 1.5537 1.8577 0 CHG=1
M  V30 51 C 4.9587 2.5137 0.8331 0
M  V30 52 C 3.718 2.2647 2.8906 0
M  V30 53 H -2.8791 0.4395 -1.014 0
M  V30 54 H -2.2446 -1.916 2.7561 0
M  V30 55 H -0.2119 1.3312 0.0352 0
M  V30 56 H -4.2836 1.673 0.4786 0
M  V30 57 H -2.9133 2.642 1.0991 0
M  V30 58 H -3.4634 2.8186 -0.6137 0
M  V30 59 H -4.2677 -0.5603 2.8837 0
M  V30 60 H -4.5801 -2.1786 3.534 0
M  V30 61 H 0.4674 1.2187 -2.354 0
M  V30 62 H -4.1255 -4.7094 0.4573 0
M  V30 63 H -1.0282 -3.0436 0.7262 0
M  V30 64 H -4.5486 -4.4028 2.8567 0
M  V30 65 H -2.9965 -4.1759 3.7263 0
M  V30 66 H -3.2338 -5.5478 2.631 0
M  V30 67 H -5.8083 -2.7992 1.4441 0
M  V30 68 H -6.4361 -1.2521 2.089 0
M  V30 69 H -5.3233 -1.2305 0.6755 0
M  V30 70 H 0.8052 3.2338 -0.2217 0
M  V30 71 H -0.5084 -1.0904 -0.7347 0
M  V30 72 H -0.9478 0.4545 -4.1712 0
M  V30 73 H -1.569 1.9152 -3.4267 0
M  V30 74 H -2.3724 0.378 -3.1128 0
M  V30 75 H 0.245 -3.821 2.2692 0
M  V30 76 H 0.0459 -5.2122 0.3372 0
M  V30 77 H -0.9933 5.4245 -1.3976 0
M  V30 78 H 0.5286 4.7733 -2.0876 0
M  V30 79 H -1.0149 -7.3352 0.3069 0
M  V30 80 H -1.2039 -6.6275 1.9395 0
M  V30 81 H -2.6105 -6.6701 0.7802 0
M  V30 82 H 0.9522 4.1839 1.8852 0
M  V30 83 H 0.933 -0.6046 0.7111 0
M  V30 84 H 0.4036 -3.1806 -0.8357 0
M  V30 85 H 1.3965 -3.5167 -2.1776 0
M  V30 86 H 0.6831 -0.8452 -4.3906 0
M  V30 87 H 0.7061 -2.6211 -4.5653 0
M  V30 88 H 1.9125 -1.7847 -3.5398 0
M  V30 89 H -1.0116 -4.4888 -3.1952 0
M  V30 90 H 0.9729 6.6423 1.7844 0
M  V30 91 H -0.7753 3.7609 3.5122 0
M  V30 92 H -1.7047 5.22 3.0075 0
M  V30 93 H -0.0729 5.4044 3.7889 0
M  V30 94 H 2.5066 4.853 0.4581 0
M  V30 95 H 2.9095 6.5589 0.1096 0
M  V30 96 H 2.7125 5.3687 -1.2226 0
M  V30 97 H 1.925 1.3964 0.8303 0
M  V30 98 H -3.056 -3.1383 -2.6373 0
M  V30 99 H -2.1207 -2.4797 -1.2409 0
M  V30 100 H -3.1764 -1.428 -2.2414 0
M  V30 101 H 1.1255 -5.6081 -3.37 0
M  V30 102 H 1.1383 -6.005 -1.6067 0
M  V30 103 H -0.104 -6.7432 -2.7006 0
M  V30 104 H -1.6462 6.4179 0.6412 0
M  V30 105 H 0.4382 6.9429 -2.8981 0
M  V30 106 H 1.0189 8.5757 -2.4863 0
M  V30 107 H 2.1625 7.2266 -2.3312 0
M  V30 108 H 4.3108 -2.7801 0.4794 0
M  V30 109 H 2.4819 1.8751 -1.1821 0
M  V30 110 H 3.3039 -0.1631 2.2137 0
M  V30 111 H 5.3687 -1.0863 1.4854 0
M  V30 112 H 5.3524 -0.1954 -0.0634 0
M  V30 113 H 3.5651 -2.8134 -1.8625 0
M  V30 114 H 3.8522 -1.0337 -1.9948 0
M  V30 115 H 5.2201 -2.1555 -1.6595 0
M  V30 116 H 5.3578 1.1988 2.342 0
M  V30 117 H 5.6764 3.2403 1.2838 0
M  V30 118 H 5.4982 2.0114 0.0073 0
M  V30 119 H 4.1128 3.1009 0.4141 0
M  V30 120 H 3.4843 1.581 3.7403 0
M  V30 121 H 4.3076 3.1143 3.3006 0
M  V30 122 H 2.7735 2.6645 2.4699 0
M  V30 END ATOM
M  V30 BEGIN BOND
M  V30 1 2 1 2
M  V30 2 1 2 3
M  V30 3 1 2 4
M  V30 4 1 3 5
M  V30 5 1 4 6
M  V30 6 1 4 7
M  V30 7 1 5 8
M  V30 8 1 5 9
M  V30 9 1 6 10
M  V30 10 1 6 11
M  V30 11 1 8 12
M  V30 12 1 8 13
M  V30 13 1 8 14
M  V30 14 1 9 15
M  V30 15 1 10 16
M  V30 16 1 11 17
M  V30 17 1 11 18
M  V30 18 1 13 19
M  V30 19 1 13 20
M  V30 20 1 16 21
M  V30 21 1 16 22
M  V30 22 1 17 23
M  V30 23 1 17 24
M  V30 24 1 20 25
M  V30 25 1 20 26
M  V30 26 1 21 27
M  V30 27 1 22 28
M  V30 28 1 23 29
M  V30 29 1 24 30
M  V30 30 1 24 31
M  V30 31 1 24 32
M  V30 32 2 25 33
M  V30 33 1 25 34
M  V30 34 1 27 35
M  V30 35 1 27 36
M  V30 36 1 28 37
M  V30 37 1 28 38
M  V30 38 1 29 39
M  V30 39 1 29 40
M  V30 40 1 30 41
M  V30 41 1 34 42
M  V30 42 1 35 43
M  V30 43 1 37 44
M  V30 44 1 39 45
M  V30 45 1 40 46
M  V30 46 1 40 47
M  V30 47 1 45 48
M  V30 48 1 45 49
M  V30 49 1 47 50
M  V30 50 1 50 51
M  V30 51 1 50 52
M  V30 52 1 28 35
M  V30 53 1 31 34
M  V30 54 1 47 48
M  V30 55 1 4 53
M  V30 56 1 5 54
M  V30 57 1 6 55
M  V30 58 1 7 56
M  V30 59 1 7 57
M  V30 60 1 7 58
M  V30 61 1 9 59
M  V30 62 1 9 60
M  V30 63 1 11 61
M  V30 64 1 12 62
M  V30 65 1 13 63
M  V30 66 1 14 64
M  V30 67 1 14 65
M  V30 68 1 14 66
M  V30 69 1 15 67
M  V30 70 1 15 68
M  V30 71 1 15 69
M  V30 72 1 16 70
M  V30 73 1 17 71
M  V30 74 1 18 72
M  V30 75 1 18 73
M  V30 76 1 18 74
M  V30 77 1 19 75
M  V30 78 1 20 76
M  V30 79 1 22 77
M  V30 80 1 22 78
M  V30 81 1 26 79
M  V30 82 1 26 80
M  V30 83 1 26 81
M  V30 84 1 27 82
M  V30 85 1 29 83
M  V30 86 1 31 84
M  V30 87 1 31 85
M  V30 88 1 32 86
M  V30 89 1 32 87
M  V30 90 1 32 88
M  V30 91 1 34 89
M  V30 92 1 35 90
M  V30 93 1 36 91
M  V30 94 1 36 92
M  V30 95 1 36 93
M  V30 96 1 38 94
M  V30 97 1 38 95
M  V30 98 1 38 96
M  V30 99 1 40 97
M  V30 100 1 41 98
M  V30 101 1 41 99
M  V30 102 1 41 100
M  V30 103 1 42 101
M  V30 104 1 42 102
M  V30 105 1 42 103
M  V30 106 1 43 104
M  V30 107 1 44 105
M  V30 108 1 44 106
M  V30 109 1 44 107
M  V30 110 1 45 108
M  V30 111 1 46 109
M  V30 112 1 47 110
M  V30 113 1 48 111
M  V30 114 1 48 112
M  V30 115 1 49 113
M  V30 116 1 49 114
M  V30 117 1 49 115
M  V30 118 1 50 116
M  V30 119 1 51 117
M  V30 120 1 51 118
M  V30 121 1 51 119
M  V30 122 1 52 120
M  V30 123 1 52 121
M  V30 124 1 52 122
M  V30 END BOND
M  V30 BEGIN COLLECTION
M  V30 MDLV30/STEABS ATOMS=(18 4 5 6 8 11 13 16 17 20 24 27 28 29 34 35 40 45 47)
M  V30 END COLLECTION
M  V30 END CTAB
M  END
>  <Structure No>
6596

>  <LogS>
-2.2

>  <MMFF94 Energy>
233.12

$$$$
Compound 6597
Actelion Java MolfileCreator 2.0

  0  0  0  0  0  0              0 V3000
M  V30 BEGIN CTAB
M  V30 COUNTS 37 38 0 0 0
M  V30 BEGIN ATOM
M  V30 1 Cl 5.4752 -0.0827 2.0713 0
M  V30 2 C 3.8796 -0.018 1.3301 0
M  V30 3 C 3.691 -0.1522 -0.0601 0
M  V30 4 C 2.7771 0.1873 2.1647 0
M  V30 5 S 5.0555 -0.3982 -1.1595 0
M  V30 6 C 2.392 -0.0746 -0.5867 0
M  V30 7 C 1.486 0.2621 1.637 0
M  V30 8 O 4.5564 -0.8163 -2.5144 0
M  V30 9 O 5.9525 -1.4813 -0.6292 0
M  V30 10 N 5.9443 1.0763 -1.3213 0
M  V30 11 C 1.28 0.1147 0.2514 0
M  V30 12 O 0.4231 0.5124 2.4984 0 CHG=-1
M  V30 13 C -0.0756 0.1796 -0.3426 0
M  V30 14 O -0.2214 0.6525 -1.5031 0
M  V30 15 N -1.2151 -0.3322 0.3642 0
M  V30 16 C -2.5579 -0.1194 -0.1001 0
M  V30 17 C -3.3454 -1.2238 -0.4973 0
M  V30 18 C -3.1095 1.1843 -0.1365 0
M  V30 19 C -4.6583 -1.0137 -0.9465 0
M  V30 20 C -2.7949 -2.6228 -0.4397 0
M  V30 21 C -4.415 1.3685 -0.6178 0
M  V30 22 C -2.3219 2.3848 0.3156 0
M  V30 23 C -5.1837 0.2756 -1.0154 0
M  V30 24 H 2.9237 0.3026 3.2316 0
M  V30 25 H 2.2421 -0.1752 -1.6541 0
M  V30 26 H 6.3642 1.2904 -0.3897 0
M  V30 27 H 6.7391 0.8837 -1.9711 0
M  V30 28 H -1.0599 -1.0377 1.1186 0
M  V30 29 H -5.2761 -1.8489 -1.2525 0
M  V30 30 H -3.463 -3.3461 -0.9537 0
M  V30 31 H -1.803 -2.6622 -0.9376 0
M  V30 32 H -2.6857 -2.936 0.6196 0
M  V30 33 H -4.8453 2.361 -0.6729 0
M  V30 34 H -1.6915 2.1336 1.1942 0
M  V30 35 H -2.9976 3.2128 0.6188 0
M  V30 36 H -1.6759 2.7417 -0.5125 0
M  V30 37 H -6.1938 0.4282 -1.3733 0
M  V30 END ATOM
M  V30 BEGIN BOND
M  V30 1 1 1 2
M  V30 2 2 2 3
M  V30 3 1 2 4
M  V30 4 1 3 5
M  V30 5 1 3 6
M  V30 6 2 4 7
M  V30 7 2 5 8
M  V30 8 2 5 9
M  V30 9 1 5 10
M  V30 10 2 6 11
M  V30 11 1 7 12
M  V30 12 1 11 13
M  V30 13 2 13 14
M  V30 14 1 13 15
M  V30 15 1 15 16
M  V30 16 2 16 17
M  V30 17 1 16 18
M  V30 18 1 17 19
M  V30 19 1 17 20
M  V30 20 2 18 21
M  V30 21 1 18 22
M  V30 22 2 19 23
M  V30 23 1 7 11
M  V30 24 1 21 23
M  V30 25 1 4 24
M  V30 26 1 6 25
M  V30 27 1 10 26
M  V30 28 1 10 27
M  V30 29 1 15 28
M  V30 30 1 19 29
M  V30 31 1 20 30
M  V30 32 1 20 31
M  V30 33 1 20 32
M  V30 34 1 21 33
M  V30 35 1 22 34
M  V30 36 1 22 35
M  V30 37 1 22 36
M  V30 38 1 23 37
M  V30 END BOND
M  V30 END CTAB
M  END
>  <Structure No>
6597

>  <LogS>
-3.9

>  <MMFF94 Energy>
-63.591

$$$$
Compound 6598
Actelion Java MolfileCreator 2.0

  0  0  0  0  0  0              0 V3000
M  V30 BEGIN CTAB
M  V30 COUNTS 34 35 0 0 0
M  V30 BEGIN ATOM
M  V30 1 S -0.7445 -1.7379 -1.3239 0
M  V30 2 O -0.7842 -1.896 -2.8169 0
M  V30 3 O -0.7727 -3.0999 -0.688 0
M  V30 4 N 0.7235 -0.933 -0.8768 0 CHG=-1
M  V30 5 C -2.1292 -0.775 -0.8203 0
M  V30 6 C 1.1028 -0.5768 0.4611 0
M  V30 7 C -2.1458 0.6009 -1.0766 0
M  V30 8 C -3.2153 -1.3704 -0.1673 0
M  V30 9 C 2.3076 0.1194 0.6744 0
M  V30 10 C 0.3181 -0.9245 1.5741 0
M  V30 11 C -3.2369 1.3804 -0.6802 0
M  V30 12 C -4.3068 -0.5914 0.2326 0
M  V30 13 N 3.1265 0.5001 -0.4425 0
M  V30 14 C 2.6754 0.4763 1.9819 0
M  V30 15 N 0.7101 -0.5745 2.8275 0
M  V30 16 C -4.3292 0.7954 -0.0186 0
M  V30 17 C 4.5575 0.3781 -0.4446 0
M  V30 18 C 1.8574 0.1157 3.0516 0
M  V30 19 N -5.4505 1.5994 0.3907 0 CHG=1
M  V30 20 O 5.1535 -0.2094 0.4978 0
M  V30 21 C 5.3475 0.9221 -1.5893 0
M  V30 22 O -6.3934 1.0921 1.0337 0
M  V30 23 O -5.4849 2.9466 0.1107 0 CHG=-1
M  V30 24 H -1.3125 1.071 -1.5833 0
M  V30 25 H -3.2193 -2.4326 0.0356 0
M  V30 26 H -0.6028 -1.4765 1.4584 0
M  V30 27 H -3.2242 2.4426 -0.8892 0
M  V30 28 H -5.1356 -1.0742 0.7353 0
M  V30 29 H 2.6581 0.793 -1.3292 0
M  V30 30 H 3.5761 1.0456 2.1709 0
M  V30 31 H 2.1334 0.3861 4.0623 0
M  V30 32 H 6.4254 0.6821 -1.4693 0
M  V30 33 H 4.9834 0.4763 -2.5388 0
M  V30 34 H 5.2268 2.0242 -1.6326 0
M  V30 END ATOM
M  V30 BEGIN BOND
M  V30 1 2 1 2
M  V30 2 2 1 3
M  V30 3 1 1 4
M  V30 4 1 1 5
M  V30 5 1 4 6
M  V30 6 2 5 7
M  V30 7 1 5 8
M  V30 8 2 6 9
M  V30 9 1 6 10
M  V30 10 1 7 11
M  V30 11 2 8 12
M  V30 12 1 9 13
M  V30 13 1 9 14
M  V30 14 2 10 15
M  V30 15 2 11 16
M  V30 16 1 13 17
M  V30 17 2 14 18
M  V30 18 1 16 19
M  V30 19 2 17 20
M  V30 20 1 17 21
M  V30 21 2 19 22
M  V30 22 1 19 23
M  V30 23 1 12 16
M  V30 24 1 15 18
M  V30 25 1 7 24
M  V30 26 1 8 25
M  V30 27 1 10 26
M  V30 28 1 11 27
M  V30 29 1 12 28
M  V30 30 1 13 29
M  V30 31 1 14 30
M  V30 32 1 18 31
M  V30 33 1 21 32
M  V30 34 1 21 33
M  V30 35 1 21 34
M  V30 END BOND
M  V30 END CTAB
M  END
>  <Structure No>
6598

>  <LogS>
-3.39

>  <MMFF94 Energy>
65.3

$$$$
Compound 6599
Actelion Java MolfileCreator 2.0

  0  0  0  0  0  0              0 V3000
M  V30 BEGIN CTAB
M  V30 COUNTS 44 46 0 0 0
M  V30 BEGIN ATOM
M  V30 1 O 0.4839 0.1613 -0.9681 0
M  V30 2 C 0.2989 -0.5808 0.0355 0
M  V30 3 N 1.3871 -0.855 0.9439 0
M  V30 4 C -1.0473 -1.2375 0.2228 0 CFG=2
M  V30 5 C 1.2247 -1.8576 1.9688 0
M  V30 6 C 2.6829 -0.1846 0.7639 0
M  V30 7 N -2.1312 -0.3231 -0.1519 0
M  V30 8 C -1.2404 -1.7106 1.6712 0
M  V30 9 O 2.1899 -2.1665 2.7193 0
M  V30 10 C -0.0748 -2.5911 2.1188 0
M  V30 11 C 3.5617 -0.9852 -0.2054 0
M  V30 12 C -2.3704 0.9937 0.3619 0
M  V30 13 C -3.3768 -0.7009 -0.7464 0
M  V30 14 C 4.9952 -0.4357 -0.3118 0
M  V30 15 O -1.5321 1.6621 1.0235 0
M  V30 16 C -3.7256 1.422 0.0371 0
M  V30 17 O -3.6029 -1.8269 -1.2633 0
M  V30 18 C -4.339 0.3893 -0.638 0
M  V30 19 C 5.0987 0.9951 -0.8693 0
M  V30 20 C -4.3966 2.611 0.318 0
M  V30 21 C -5.6598 0.4846 -1.0729 0
M  V30 22 C 4.5518 1.1248 -2.2904 0
M  V30 23 C -5.7293 2.7343 -0.1143 0
M  V30 24 C -6.3578 1.6763 -0.8064 0
M  V30 25 H -1.0747 -2.1252 -0.4463 0
M  V30 26 H 2.5204 0.843 0.3758 0
M  V30 27 H 3.1983 -0.076 1.743 0
M  V30 28 H -2.1858 -2.2904 1.7476 0
M  V30 29 H -1.3198 -0.835 2.3531 0
M  V30 30 H -0.0429 -3.5167 1.505 0
M  V30 31 H -0.2241 -2.8798 3.1818 0
M  V30 32 H 3.086 -1.021 -1.2077 0
M  V30 33 H 3.6264 -2.0335 0.1588 0
M  V30 34 H 5.4658 -0.4589 0.6951 0
M  V30 35 H 5.587 -1.1169 -0.9611 0
M  V30 36 H 6.1724 1.2818 -0.8834 0
M  V30 37 H 4.581 1.7146 -0.2011 0
M  V30 38 H -3.9086 3.4149 0.8533 0
M  V30 39 H -6.1352 -0.333 -1.5983 0
M  V30 40 H 3.4471 1.0184 -2.2958 0
M  V30 41 H 4.8016 2.1296 -2.6914 0
M  V30 42 H 5.0037 0.3567 -2.9532 0
M  V30 43 H -6.2772 3.6456 0.0872 0
M  V30 44 H -7.3845 1.7817 -1.132 0
M  V30 END ATOM
M  V30 BEGIN BOND
M  V30 1 2 1 2
M  V30 2 1 2 3
M  V30 3 1 2 4
M  V30 4 1 3 5
M  V30 5 1 3 6
M  V30 6 1 4 7
M  V30 7 1 4 8
M  V30 8 2 5 9
M  V30 9 1 5 10
M  V30 10 1 6 11
M  V30 11 1 7 12
M  V30 12 1 7 13
M  V30 13 1 11 14
M  V30 14 2 12 15
M  V30 15 1 12 16
M  V30 16 2 13 17
M  V30 17 1 13 18
M  V30 18 1 14 19
M  V30 19 1 16 20
M  V30 20 1 18 21
M  V30 21 1 19 22
M  V30 22 2 20 23
M  V30 23 2 21 24
M  V30 24 1 8 10
M  V30 25 2 16 18
M  V30 26 1 23 24
M  V30 27 1 4 25
M  V30 28 1 6 26
M  V30 29 1 6 27
M  V30 30 1 8 28
M  V30 31 1 8 29
M  V30 32 1 10 30
M  V30 33 1 10 31
M  V30 34 1 11 32
M  V30 35 1 11 33
M  V30 36 1 14 34
M  V30 37 1 14 35
M  V30 38 1 19 36
M  V30 39 1 19 37
M  V30 40 1 20 38
M  V30 41 1 21 39
M  V30 42 1 22 40
M  V30 43 1 22 41
M  V30 44 1 22 42
M  V30 45 1 23 43
M  V30 46 1 24 44
M  V30 END BOND
M  V30 BEGIN COLLECTION
M  V30 MDLV30/STEABS ATOMS=(1 4)
M  V30 END COLLECTION
M  V30 END CTAB
M  END
>  <Structure No>
6599

>  <LogS>
-4.7

>  <MMFF94 Energy>
-34.551

$$$$
Compound 6600
Actelion Java MolfileCreator 2.0

  0  0  0  0  0  0              0 V3000
M  V30 BEGIN CTAB
M  V30 COUNTS 43 45 0 0 0
M  V30 BEGIN ATOM
M  V30 1 O -2.0182 0.9683 -4.606 0
M  V30 2 C -2.6763 0.4176 -3.6807 0
M  V30 3 N -2.0473 -0.0306 -2.5458 0
M  V30 4 N -4.023 0.279 -3.8203 0
M  V30 5 C -2.7905 -0.5822 -1.5375 0
M  V30 6 C -0.5905 0.1449 -2.3647 0 CFG=2
M  V30 7 C -4.7799 -0.2863 -2.8444 0
M  V30 8 C -4.1741 -0.738 -1.6671 0
M  V30 9 O -0.0343 -0.9945 -1.7373 0
M  V30 10 C -0.2979 1.3875 -1.5229 0
M  V30 11 O -6.0261 -0.3949 -3.0045 0
M  V30 12 C -4.9875 -1.3415 -0.5557 0
M  V30 13 C 0.7833 -0.5381 -0.686 0 CFG=1
M  V30 14 C 0.2644 0.824 -0.2472 0 CFG=1
M  V30 15 C 0.7689 -1.5611 0.4585 0
M  V30 16 N 1.3412 1.6534 0.2813 0 CHG=-1
M  V30 17 O 1.5502 -1.1045 1.5617 0
M  V30 18 N 1.0895 2.8999 0.7532 0 CHG=1
M  V30 19 C 2.9504 -1.083 1.5614 0
M  V30 20 N 0.8815 3.9289 1.1435 0
M  V30 21 O 3.5918 -1.6073 0.6095 0
M  V30 22 C 3.674 -0.441 2.6797 0
M  V30 23 C 5.0786 -0.438 2.7214 0
M  V30 24 C 2.965 0.1874 3.7164 0
M  V30 25 C 5.737 0.1828 3.7855 0
M  V30 26 C 3.6638 0.7964 4.7616 0
M  V30 27 N 5.0226 0.7818 4.7742 0
M  V30 28 H -4.486 0.621 -4.6936 0
M  V30 29 H -2.3101 -0.9025 -0.6208 0
M  V30 30 H -0.0856 0.2503 -3.3507 0
M  V30 31 H 0.4545 2.0218 -2.0435 0
M  V30 32 H -1.2071 1.9971 -1.3242 0
M  V30 33 H -5.6081 -2.1735 -0.9515 0
M  V30 34 H -5.6518 -0.5665 -0.1183 0
M  V30 35 H -4.3386 -1.7467 0.25 0
M  V30 36 H 1.8226 -0.4427 -1.075 0
M  V30 37 H -0.5454 0.7192 0.5101 0
M  V30 38 H -0.2752 -1.7154 0.8046 0
M  V30 39 H 1.1514 -2.5415 0.1001 0
M  V30 40 H 5.6628 -0.9085 1.9402 0
M  V30 41 H 1.8824 0.2119 3.7201 0
M  V30 42 H 6.8182 0.1897 3.8242 0
M  V30 43 H 3.1245 1.2831 5.5632 0
M  V30 END ATOM
M  V30 BEGIN BOND
M  V30 1 2 1 2
M  V30 2 1 2 3
M  V30 3 1 2 4
M  V30 4 1 3 5
M  V30 5 1 3 6
M  V30 6 1 4 7
M  V30 7 2 5 8
M  V30 8 1 6 9
M  V30 9 1 6 10
M  V30 10 2 7 11
M  V30 11 1 8 12
M  V30 12 1 9 13
M  V30 13 1 10 14
M  V30 14 1 13 15
M  V30 15 1 14 16
M  V30 16 1 15 17
M  V30 17 1 16 18
M  V30 18 1 17 19
M  V30 19 3 18 20
M  V30 20 2 19 21
M  V30 21 1 19 22
M  V30 22 2 22 23
M  V30 23 1 22 24
M  V30 24 1 23 25
M  V30 25 2 24 26
M  V30 26 2 25 27
M  V30 27 1 7 8
M  V30 28 1 13 14
M  V30 29 1 26 27
M  V30 30 1 4 28
M  V30 31 1 5 29
M  V30 32 1 6 30
M  V30 33 1 10 31
M  V30 34 1 10 32
M  V30 35 1 12 33
M  V30 36 1 12 34
M  V30 37 1 12 35
M  V30 38 1 13 36
M  V30 39 1 14 37
M  V30 40 1 15 38
M  V30 41 1 15 39
M  V30 42 1 23 40
M  V30 43 1 24 41
M  V30 44 1 25 42
M  V30 45 1 26 43
M  V30 END BOND
M  V30 BEGIN COLLECTION
M  V30 MDLV30/STEABS ATOMS=(3 6 13 14)
M  V30 END COLLECTION
M  V30 END CTAB
M  END
>  <Structure No>
6600

>  <LogS>
-2.72

>  <MMFF94 Energy>
-52.047

$$$$
Compound 6601
Actelion Java MolfileCreator 2.0

  0  0  0  0  0  0              0 V3000
M  V30 BEGIN CTAB
M  V30 COUNTS 54 56 0 0 0
M  V30 BEGIN ATOM
M  V30 1 O -3.3665 2.1632 3.6876 0
M  V30 2 C -2.3256 1.9253 3.0118 0
M  V30 3 C -1.3686 2.9424 2.9763 0
M  V30 4 C -2.2722 0.6643 2.4131 0
M  V30 5 O -1.6888 4.0849 3.7411 0
M  V30 6 C -0.1631 2.9111 2.2704 0
M  V30 7 C -1.3257 0.0642 1.5635 0
M  V30 8 C -0.8858 5.2541 3.8883 0
M  V30 9 C 0.3535 1.9395 1.4274 0
M  V30 10 C -0.1489 0.6867 1.058 0
M  V30 11 C -1.6427 -1.3936 1.1619 0 CFG=1
M  V30 12 C 0.7181 -0.0584 0.0872 0
M  V30 13 N -1.7818 -1.5289 -0.2958 0
M  V30 14 C -0.6181 -2.4034 1.7537 0
M  V30 15 C 1.0572 0.5025 -1.1716 0
M  V30 16 C 1.2281 -1.3236 0.4414 0
M  V30 17 C -2.3214 -2.6973 -0.9271 0
M  V30 18 C 0.8471 -1.9495 1.7544 0
M  V30 19 O 0.5252 1.7371 -1.565 0
M  V30 20 C 1.9506 -0.1846 -2.0336 0
M  V30 21 C 2.0581 -2.0177 -0.4429 0
M  V30 22 O -2.7169 -3.6754 -0.2379 0
M  V30 23 C -2.3843 -2.7853 -2.4187 0
M  V30 24 C -0.8632 1.94 -1.811 0
M  V30 25 O 2.3964 0.3253 -3.2687 0
M  V30 26 C 2.4339 -1.4491 -1.6685 0
M  V30 27 C 2.0234 1.5604 -3.8675 0
M  V30 28 O 3.2905 -2.1142 -2.562 0
M  V30 29 C 3.8394 -3.4099 -2.3449 0
M  V30 30 H -3.1358 0.0548 2.6621 0
M  V30 31 H 0.4805 3.7756 2.3554 0
M  V30 32 H -1.4132 5.9729 4.5481 0
M  V30 33 H -0.7232 5.7352 2.9013 0
M  V30 34 H 0.0859 4.9945 4.3596 0
M  V30 35 H 1.3133 2.2133 0.9996 0
M  V30 36 H -2.6235 -1.7046 1.5843 0
M  V30 37 H -1.625 -0.6986 -0.9049 0
M  V30 38 H -0.6856 -3.3776 1.2261 0
M  V30 39 H -0.8998 -2.603 2.8113 0
M  V30 40 H 1.0138 -1.2178 2.5756 0
M  V30 41 H 1.4954 -2.8232 1.9848 0
M  V30 42 H 2.4206 -2.9978 -0.1633 0
M  V30 43 H -3.2752 -3.3738 -2.73 0
M  V30 44 H -2.4577 -1.771 -2.8637 0
M  V30 45 H -1.4682 -3.2879 -2.7993 0
M  V30 46 H -1.4406 1.9368 -0.8665 0
M  V30 47 H -1.0021 2.9267 -2.2975 0
M  V30 48 H -1.249 1.1508 -2.4908 0
M  V30 49 H 2.5856 1.6816 -4.8158 0
M  V30 50 H 2.2841 2.4078 -3.2029 0
M  V30 51 H 0.9402 1.557 -4.107 0
M  V30 52 H 4.4614 -3.4144 -1.4237 0
M  V30 53 H 4.4834 -3.6786 -3.2083 0
M  V30 54 H 3.0243 -4.1603 -2.2615 0
M  V30 END ATOM
M  V30 BEGIN BOND
M  V30 1 2 1 2
M  V30 2 1 2 3
M  V30 3 1 2 4
M  V30 4 1 3 5
M  V30 5 2 3 6
M  V30 6 2 4 7
M  V30 7 1 5 8
M  V30 8 1 6 9
M  V30 9 1 7 10
M  V30 10 1 7 11
M  V30 11 1 10 12
M  V30 12 1 11 13
M  V30 13 1 11 14
M  V30 14 2 12 15
M  V30 15 1 12 16
M  V30 16 1 13 17
M  V30 17 1 14 18
M  V30 18 1 15 19
M  V30 19 1 15 20
M  V30 20 2 16 21
M  V30 21 2 17 22
M  V30 22 1 17 23
M  V30 23 1 19 24
M  V30 24 1 20 25
M  V30 25 2 20 26
M  V30 26 1 25 27
M  V30 27 1 26 28
M  V30 28 1 28 29
M  V30 29 2 9 10
M  V30 30 1 16 18
M  V30 31 1 21 26
M  V30 32 1 4 30
M  V30 33 1 6 31
M  V30 34 1 8 32
M  V30 35 1 8 33
M  V30 36 1 8 34
M  V30 37 1 9 35
M  V30 38 1 11 36
M  V30 39 1 13 37
M  V30 40 1 14 38
M  V30 41 1 14 39
M  V30 42 1 18 40
M  V30 43 1 18 41
M  V30 44 1 21 42
M  V30 45 1 23 43
M  V30 46 1 23 44
M  V30 47 1 23 45
M  V30 48 1 24 46
M  V30 49 1 24 47
M  V30 50 1 24 48
M  V30 51 1 27 49
M  V30 52 1 27 50
M  V30 53 1 27 51
M  V30 54 1 29 52
M  V30 55 1 29 53
M  V30 56 1 29 54
M  V30 END BOND
M  V30 BEGIN COLLECTION
M  V30 MDLV30/STEABS ATOMS=(1 11)
M  V30 END COLLECTION
M  V30 END CTAB
M  END
>  <Structure No>
6601

>  <LogS>
-0.94

>  <MMFF94 Energy>
110.96

$$$$
Compound 6602
Actelion Java MolfileCreator 2.0

  0  0  0  0  0  0              0 V3000
M  V30 BEGIN CTAB
M  V30 COUNTS 35 38 0 0 0
M  V30 BEGIN ATOM
M  V30 1 Cl -0.4903 3.6821 2.9449 0
M  V30 2 C 0.2447 2.3268 2.1082 0
M  V30 3 C -0.56 1.3654 1.4943 0
M  V30 4 C 1.6321 2.2041 2.0654 0
M  V30 5 C 0.0097 0.2716 0.8139 0
M  V30 6 C 2.2185 1.1221 1.4098 0
M  V30 7 C -0.909 -0.7046 0.1416 0
M  V30 8 C 1.4264 0.1545 0.7667 0
M  V30 9 N -0.7259 -1.9954 0.2157 0
M  V30 10 C -2.0876 -0.2128 -0.6192 0
M  V30 11 N 2.058 -0.9833 0.1493 0
M  V30 12 C 0.378 -2.6662 0.8907 0
M  V30 13 C -2.0338 1.0078 -1.3196 0
M  V30 14 C -3.2685 -0.9775 -0.6761 0
M  V30 15 C 1.6519 -2.2598 0.236 0
M  V30 16 C 3.1775 -1.069 -0.6028 0
M  V30 17 C -3.1422 1.4594 -2.0423 0
M  V30 18 C -4.374 -0.5208 -1.4004 0
M  V30 19 N 2.4747 -3.0946 -0.4261 0
M  V30 20 N 3.4374 -2.3466 -0.9466 0
M  V30 21 C 4.0234 0.0826 -1.0466 0
M  V30 22 C -4.3116 0.6971 -2.0812 0
M  V30 23 H -1.6368 1.4705 1.5526 0
M  V30 24 H 2.2588 2.9388 2.5549 0
M  V30 25 H 3.2945 1.0238 1.4351 0
M  V30 26 H 0.2418 -3.7649 0.8096 0
M  V30 27 H 0.395 -2.3871 1.9662 0
M  V30 28 H -1.1314 1.6064 -1.319 0
M  V30 29 H -3.3406 -1.9217 -0.1507 0
M  V30 30 H -3.0923 2.3995 -2.5766 0
M  V30 31 H -5.2802 -1.1119 -1.4334 0
M  V30 32 H 3.3963 0.9846 -1.2053 0
M  V30 33 H 4.5244 -0.1671 -2.0053 0
M  V30 34 H 4.8003 0.2926 -0.283 0
M  V30 35 H -5.1684 1.0484 -2.6418 0
M  V30 END ATOM
M  V30 BEGIN BOND
M  V30 1 1 1 2
M  V30 2 2 2 3
M  V30 3 1 2 4
M  V30 4 1 3 5
M  V30 5 2 4 6
M  V30 6 1 5 7
M  V30 7 2 5 8
M  V30 8 2 7 9
M  V30 9 1 7 10
M  V30 10 1 8 11
M  V30 11 1 9 12
M  V30 12 2 10 13
M  V30 13 1 10 14
M  V30 14 1 11 15
M  V30 15 1 11 16
M  V30 16 1 13 17
M  V30 17 2 14 18
M  V30 18 2 15 19
M  V30 19 2 16 20
M  V30 20 1 16 21
M  V30 21 2 17 22
M  V30 22 1 6 8
M  V30 23 1 12 15
M  V30 24 1 18 22
M  V30 25 1 19 20
M  V30 26 1 3 23
M  V30 27 1 4 24
M  V30 28 1 6 25
M  V30 29 1 12 26
M  V30 30 1 12 27
M  V30 31 1 13 28
M  V30 32 1 14 29
M  V30 33 1 17 30
M  V30 34 1 18 31
M  V30 35 1 21 32
M  V30 36 1 21 33
M  V30 37 1 21 34
M  V30 38 1 22 35
M  V30 END BOND
M  V30 END CTAB
M  END
>  <Structure No>
6602

>  <LogS>
-3.6

>  <MMFF94 Energy>
87.11

$$$$
Compound 6603
Actelion Java MolfileCreator 2.0

  0  0  0  0  0  0              0 V3000
M  V30 BEGIN CTAB
M  V30 COUNTS 32 36 0 0 0
M  V30 BEGIN ATOM
M  V30 1 C 1.3802 0.1623 0.0811 0
M  V30 2 C 0.5246 1.296 -0.0158 0
M  V30 3 C 0.8479 -1.1579 0.0972 0
M  V30 4 C 2.7895 0.3517 0.1633 0
M  V30 5 C -0.8848 1.1066 -0.0978 0
M  V30 6 C 1.1208 2.5842 -0.0265 0
M  V30 7 C -0.5615 -1.3472 0.0151 0
M  V30 8 C 1.7567 -2.2437 0.1958 0
M  V30 9 C 3.3321 1.6394 0.1492 0
M  V30 10 C 3.6465 -0.7476 0.2591 0
M  V30 11 C -1.417 -0.2135 -0.0817 0
M  V30 12 C -1.7937 2.1925 -0.1963 0
M  V30 13 C 2.5009 2.7447 0.0548 0
M  V30 14 C -1.1577 -2.6353 0.026 0
M  V30 15 C 3.1304 -2.0339 0.2749 0
M  V30 16 C -2.8264 -0.4029 -0.1638 0
M  V30 17 C -3.1674 1.9829 -0.2754 0
M  V30 18 C -2.5379 -2.7958 -0.0554 0
M  V30 19 C -3.6835 0.6965 -0.2595 0
M  V30 20 C -3.3691 -1.6905 -0.1495 0
M  V30 21 H 0.5544 3.4959 -0.0967 0
M  V30 22 H 1.4461 -3.2731 0.2149 0
M  V30 23 H 4.4034 1.7919 0.2113 0
M  V30 24 H 4.72 -0.6118 0.322 0
M  V30 25 H -1.4831 3.222 -0.2154 0
M  V30 26 H 2.9299 3.7388 0.0447 0
M  V30 27 H -0.5915 -3.547 0.0962 0
M  V30 28 H 3.8018 -2.8801 0.3495 0
M  V30 29 H -3.8389 2.8291 -0.3498 0
M  V30 30 H -2.967 -3.7898 -0.045 0
M  V30 31 H -4.7571 0.5607 -0.3224 0
M  V30 32 H -4.4405 -1.8429 -0.2116 0
M  V30 END ATOM
M  V30 BEGIN BOND
M  V30 1 1 1 2
M  V30 2 2 1 3
M  V30 3 1 1 4
M  V30 4 1 2 5
M  V30 5 2 2 6
M  V30 6 1 3 7
M  V30 7 1 3 8
M  V30 8 1 4 9
M  V30 9 2 4 10
M  V30 10 1 5 11
M  V30 11 2 5 12
M  V30 12 1 6 13
M  V30 13 1 7 14
M  V30 14 2 8 15
M  V30 15 1 11 16
M  V30 16 1 12 17
M  V30 17 2 14 18
M  V30 18 1 16 19
M  V30 19 2 16 20
M  V30 20 2 7 11
M  V30 21 2 9 13
M  V30 22 1 10 15
M  V30 23 2 17 19
M  V30 24 1 18 20
M  V30 25 1 6 21
M  V30 26 1 8 22
M  V30 27 1 9 23
M  V30 28 1 10 24
M  V30 29 1 12 25
M  V30 30 1 13 26
M  V30 31 1 14 27
M  V30 32 1 15 28
M  V30 33 1 17 29
M  V30 34 1 18 30
M  V30 35 1 19 31
M  V30 36 1 20 32
M  V30 END BOND
M  V30 END CTAB
M  END
>  <Structure No>
6603

>  <LogS>
-8.7

>  <MMFF94 Energy>
85.407

$$$$
Compound 6604
Actelion Java MolfileCreator 2.0

  0  0  0  0  0  0              0 V3000
M  V30 BEGIN CTAB
M  V30 COUNTS 32 36 0 0 0
M  V30 BEGIN ATOM
M  V30 1 C -1.0553 -0.4057 0.0 0
M  V30 2 C -0.6154 0.9355 0.067 0
M  V30 3 C -0.1198 -1.4694 -0.0908 0
M  V30 4 C -2.4495 -0.6825 0.0246 0
M  V30 5 C 0.7699 1.244 0.0446 0
M  V30 6 C -1.5769 1.9791 0.1574 0
M  V30 7 C 1.2772 -1.1753 -0.1145 0
M  V30 8 C -0.6279 -2.794 -0.1547 0
M  V30 9 C -3.3761 0.362 0.1141 0
M  V30 10 C -2.9051 -2.0016 -0.0405 0
M  V30 11 C 1.7232 0.1849 -0.0465 0
M  V30 12 C 1.1446 2.6121 0.1151 0
M  V30 13 C -2.9437 1.681 0.1801 0
M  V30 14 C -1.1629 3.3118 0.2246 0
M  V30 15 C 2.255 -2.2019 -0.2043 0
M  V30 16 C -1.9979 -3.0471 -0.1294 0
M  V30 17 C 3.1208 0.4386 -0.0725 0
M  V30 18 C 0.1888 3.6221 0.2034 0
M  V30 19 C 3.6139 -1.9095 -0.2269 0
M  V30 20 C 4.0444 -0.5965 -0.1613 0
M  V30 21 H -0.001 -3.6648 -0.225 0
M  V30 22 H -4.4404 0.1577 0.1334 0
M  V30 23 H -3.9656 -2.2249 -0.0224 0
M  V30 24 H 2.1666 2.9462 0.105 0
M  V30 25 H -3.6817 2.4718 0.2489 0
M  V30 26 H -1.8865 4.1158 0.2939 0
M  V30 27 H 2.0108 -3.2476 -0.2594 0
M  V30 28 H -2.3587 -4.0666 -0.1795 0
M  V30 29 H 3.5433 1.4262 -0.026 0
M  V30 30 H 0.5018 4.6573 0.2559 0
M  V30 31 H 4.3392 -2.7104 -0.296 0
M  V30 32 H 5.1044 -0.3765 -0.1793 0
M  V30 END ATOM
M  V30 BEGIN BOND
M  V30 1 2 1 2
M  V30 2 1 1 3
M  V30 3 1 1 4
M  V30 4 1 2 5
M  V30 5 1 2 6
M  V30 6 2 3 7
M  V30 7 1 3 8
M  V30 8 1 4 9
M  V30 9 2 4 10
M  V30 10 2 5 11
M  V30 11 1 5 12
M  V30 12 1 6 13
M  V30 13 2 6 14
M  V30 14 1 7 15
M  V30 15 2 8 16
M  V30 16 1 11 17
M  V30 17 2 12 18
M  V30 18 2 15 19
M  V30 19 2 17 20
M  V30 20 1 7 11
M  V30 21 2 9 13
M  V30 22 1 10 16
M  V30 23 1 14 18
M  V30 24 1 19 20
M  V30 25 1 8 21
M  V30 26 1 9 22
M  V30 27 1 10 23
M  V30 28 1 12 24
M  V30 29 1 13 25
M  V30 30 1 14 26
M  V30 31 1 15 27
M  V30 32 1 16 28
M  V30 33 1 17 29
M  V30 34 1 18 30
M  V30 35 1 19 31
M  V30 36 1 20 32
M  V30 END BOND
M  V30 END CTAB
M  END
>  <Structure No>
6604

>  <LogS>
-7.66

>  <MMFF94 Energy>
88.757

$$$$
Compound 6605
Actelion Java MolfileCreator 2.0

  0  0  0  0  0  0              0 V3000
M  V30 BEGIN CTAB
M  V30 COUNTS 61 63 0 0 0
M  V30 BEGIN ATOM
M  V30 1 O 4.702 -2.07 1.3531 0
M  V30 2 C 4.3617 -1.2181 0.4854 0
M  V30 3 O 5.3403 -0.5186 -0.2277 0
M  V30 4 N 2.9672 -0.9655 0.2315 0
M  V30 5 C 6.7359 -0.6732 0.0174 0
M  V30 6 C 1.9491 -1.8076 0.8774 0
M  V30 7 C 2.5628 0.0862 -0.7082 0
M  V30 8 C 7.5486 0.228 -0.939 0
M  V30 9 C 0.5477 -1.548 0.311 0
M  V30 10 C 1.3334 0.8259 -0.174 0
M  V30 11 O 7.0943 1.5573 -0.8533 0
M  V30 12 C 7.3634 -0.2489 -2.3882 0
M  V30 13 C 9.0436 0.1681 -0.5738 0
M  V30 14 N 0.2725 -0.1058 0.2385 0
M  V30 15 C -1.0851 0.3681 0.3673 0
M  V30 16 N -1.3465 1.6576 0.7174 0 CHG=1
M  V30 17 N -2.1175 -0.4744 0.1168 0
M  V30 18 C -2.6218 2.129 0.8063 0
M  V30 19 C -3.4141 -0.0838 0.192 0
M  V30 20 N -2.8122 3.5108 1.1506 0
M  V30 21 C -3.708 1.253 0.546 0
M  V30 22 C -4.4614 -0.996 -0.0922 0
M  V30 23 C -5.0523 1.6533 0.6416 0
M  V30 24 O -4.2555 -2.3417 -0.4628 0
M  V30 25 C -5.7963 -0.5639 -0.0317 0
M  V30 26 C -6.1001 0.7616 0.352 0
M  V30 27 C -3.0083 -3.0189 -0.5889 0
M  V30 28 O -6.7858 -1.5095 -0.3619 0
M  V30 29 O -7.4438 1.1617 0.4573 0
M  V30 30 C -8.0932 -1.2099 -0.8473 0
M  V30 31 C -7.8875 2.4667 0.8167 0
M  V30 32 H 7.0238 -1.7396 -0.1247 0
M  V30 33 H 6.9502 -0.394 1.0736 0
M  V30 34 H 2.1972 -2.8805 0.7275 0
M  V30 35 H 1.9454 -1.5979 1.9685 0
M  V30 36 H 2.3271 -0.373 -1.6914 0
M  V30 37 H 3.3754 0.8276 -0.8586 0
M  V30 38 H 0.4652 -1.9871 -0.7069 0
M  V30 39 H -0.1915 -2.0537 0.9701 0
M  V30 40 H 0.955 1.4987 -0.9736 0
M  V30 41 H 1.6354 1.4444 0.6977 0
M  V30 42 H 7.1953 1.8555 0.0891 0
M  V30 43 H 7.9467 0.3933 -3.0828 0
M  V30 44 H 6.2939 -0.1892 -2.6841 0
M  V30 45 H 7.7055 -1.2989 -2.5054 0
M  V30 46 H 9.6348 0.8218 -1.2522 0
M  V30 47 H 9.2029 0.5179 0.4695 0
M  V30 48 H 9.4268 -0.8727 -0.6572 0
M  V30 49 H -0.5576 2.3084 0.9251 0
M  V30 50 H -3.7092 4.0212 1.0139 0
M  V30 51 H -1.9947 4.0872 1.4512 0
M  V30 52 H -5.304 2.6503 0.9553 0
M  V30 53 H -3.1989 -4.0703 -0.8914 0
M  V30 54 H -2.4779 -3.0349 0.391 0
M  V30 55 H -2.3891 -2.5402 -1.3785 0
M  V30 56 H -8.5457 -2.1407 -1.2505 0
M  V30 57 H -8.7443 -0.8416 -0.0253 0
M  V30 58 H -8.036 -0.4599 -1.6703 0
M  V30 59 H -7.5137 3.2125 0.082 0
M  V30 60 H -7.537 2.7218 1.8407 0
M  V30 61 H -8.9981 2.4862 0.8074 0
M  V30 END ATOM
M  V30 BEGIN BOND
M  V30 1 2 1 2
M  V30 2 1 2 3
M  V30 3 1 2 4
M  V30 4 1 3 5
M  V30 5 1 4 6
M  V30 6 1 4 7
M  V30 7 1 5 8
M  V30 8 1 6 9
M  V30 9 1 7 10
M  V30 10 1 8 11
M  V30 11 1 8 12
M  V30 12 1 8 13
M  V30 13 1 9 14
M  V30 14 1 14 15
M  V30 15 1 15 16
M  V30 16 2 15 17
M  V30 17 2 16 18
M  V30 18 1 17 19
M  V30 19 1 18 20
M  V30 20 1 18 21
M  V30 21 2 19 22
M  V30 22 2 21 23
M  V30 23 1 22 24
M  V30 24 1 22 25
M  V30 25 1 23 26
M  V30 26 1 24 27
M  V30 27 1 25 28
M  V30 28 1 26 29
M  V30 29 1 28 30
M  V30 30 1 29 31
M  V30 31 1 10 14
M  V30 32 1 19 21
M  V30 33 2 25 26
M  V30 34 1 5 32
M  V30 35 1 5 33
M  V30 36 1 6 34
M  V30 37 1 6 35
M  V30 38 1 7 36
M  V30 39 1 7 37
M  V30 40 1 9 38
M  V30 41 1 9 39
M  V30 42 1 10 40
M  V30 43 1 10 41
M  V30 44 1 11 42
M  V30 45 1 12 43
M  V30 46 1 12 44
M  V30 47 1 12 45
M  V30 48 1 13 46
M  V30 49 1 13 47
M  V30 50 1 13 48
M  V30 51 1 16 49
M  V30 52 1 20 50
M  V30 53 1 20 51
M  V30 54 1 23 52
M  V30 55 1 27 53
M  V30 56 1 27 54
M  V30 57 1 27 55
M  V30 58 1 30 56
M  V30 59 1 30 57
M  V30 60 1 30 58
M  V30 61 1 31 59
M  V30 62 1 31 60
M  V30 63 1 31 61
M  V30 END BOND
M  V30 END CTAB
M  END
>  <Structure No>
6605

>  <LogS>
-3.64

>  <MMFF94 Energy>
46.418

$$$$
Compound 6606
Actelion Java MolfileCreator 2.0

  0  0  0  0  0  0              0 V3000
M  V30 BEGIN CTAB
M  V30 COUNTS 43 46 0 0 0
M  V30 BEGIN ATOM
M  V30 1 O 3.3813 2.0116 0.3216 0
M  V30 2 C 2.6821 0.9997 0.0351 0
M  V30 3 C 1.2845 1.0114 0.2339 0
M  V30 4 C 3.3042 -0.1301 -0.5133 0
M  V30 5 C 0.5337 -0.1418 -0.1384 0
M  V30 6 C 0.6198 2.1428 0.7825 0
M  V30 7 C 2.5404 -1.2991 -0.7455 0
M  V30 8 C 4.6846 -0.125 -0.8054 0
M  V30 9 N 1.1988 -1.3214 -0.4271 0
M  V30 10 C -0.8875 -0.0314 -0.1844 0
M  V30 11 O 1.3658 3.2534 1.2181 0
M  V30 12 C -0.7786 2.1354 0.892 0
M  V30 13 C 3.1918 -2.4314 -1.2949 0
M  V30 14 C 5.3012 -1.2554 -1.3378 0
M  V30 15 C 0.5485 -2.6303 -0.1981 0
M  V30 16 C -1.5219 1.0766 0.3916 0
M  V30 17 C -1.7503 -0.9295 -0.9923 0
M  V30 18 C 0.8146 4.4396 1.782 0
M  V30 19 C 4.5559 -2.4036 -1.5858 0
M  V30 20 O -2.9206 1.1422 0.4226 0
M  V30 21 C -3.0819 -0.8854 -0.8869 0
M  V30 22 C -3.7524 0.0124 0.1303 0
M  V30 23 C -3.994 -0.778 1.4234 0
M  V30 24 C -5.085 0.5238 -0.4282 0
M  V30 25 H 5.2916 0.7542 -0.6272 0
M  V30 26 H -1.3095 2.9748 1.3195 0
M  V30 27 H 2.651 -3.3381 -1.5285 0
M  V30 28 H 6.3598 -1.2392 -1.5629 0
M  V30 29 H 1.2349 -3.3123 0.3489 0
M  V30 30 H 0.2707 -3.1011 -1.164 0
M  V30 31 H -0.3391 -2.5455 0.4627 0
M  V30 32 H -1.318 -1.5767 -1.7412 0
M  V30 33 H 0.1355 4.9299 1.0528 0
M  V30 34 H 1.6385 5.1412 2.0255 0
M  V30 35 H 0.2661 4.1994 2.7173 0
M  V30 36 H 5.036 -3.2768 -2.0086 0
M  V30 37 H -3.6821 -1.5493 -1.4981 0
M  V30 38 H -3.03 -1.1434 1.8386 0
M  V30 39 H -4.4759 -0.1296 2.1863 0
M  V30 40 H -4.6517 -1.6535 1.2323 0
M  V30 41 H -5.773 -0.3213 -0.6474 0
M  V30 42 H -5.5754 1.2 0.3045 0
M  V30 43 H -4.9123 1.0947 -1.3659 0
M  V30 END ATOM
M  V30 BEGIN BOND
M  V30 1 2 1 2
M  V30 2 1 2 3
M  V30 3 1 2 4
M  V30 4 2 3 5
M  V30 5 1 3 6
M  V30 6 2 4 7
M  V30 7 1 4 8
M  V30 8 1 5 9
M  V30 9 1 5 10
M  V30 10 1 6 11
M  V30 11 2 6 12
M  V30 12 1 7 13
M  V30 13 2 8 14
M  V30 14 1 9 15
M  V30 15 2 10 16
M  V30 16 1 10 17
M  V30 17 1 11 18
M  V30 18 2 13 19
M  V30 19 1 16 20
M  V30 20 2 17 21
M  V30 21 1 20 22
M  V30 22 1 22 23
M  V30 23 1 22 24
M  V30 24 1 7 9
M  V30 25 1 12 16
M  V30 26 1 14 19
M  V30 27 1 21 22
M  V30 28 1 8 25
M  V30 29 1 12 26
M  V30 30 1 13 27
M  V30 31 1 14 28
M  V30 32 1 15 29
M  V30 33 1 15 30
M  V30 34 1 15 31
M  V30 35 1 17 32
M  V30 36 1 18 33
M  V30 37 1 18 34
M  V30 38 1 18 35
M  V30 39 1 19 36
M  V30 40 1 21 37
M  V30 41 1 23 38
M  V30 42 1 23 39
M  V30 43 1 23 40
M  V30 44 1 24 41
M  V30 45 1 24 42
M  V30 46 1 24 43
M  V30 END BOND
M  V30 END CTAB
M  END
>  <Structure No>
6606

>  <LogS>
-5.21

>  <MMFF94 Energy>
125.76

$$$$
Compound 6607
Actelion Java MolfileCreator 2.0

  0  0  0  0  0  0              0 V3000
M  V30 BEGIN CTAB
M  V30 COUNTS 22 23 0 0 0
M  V30 BEGIN ATOM
M  V30 1 Cl -5.2862 -0.2878 -0.1919 0
M  V30 2 C -3.5252 -0.1882 -0.1166 0
M  V30 3 C -2.9103 0.7431 0.7379 0
M  V30 4 C -2.7391 -1.0402 -0.9114 0
M  V30 5 Cl -3.8993 1.8127 1.7353 0
M  V30 6 C -1.5086 0.8239 0.7984 0
M  V30 7 Cl -3.513 -2.2092 -1.9842 0
M  V30 8 C -1.3372 -0.9616 -0.8528 0
M  V30 9 Cl -0.7382 1.9974 1.8725 0
M  V30 10 C -0.7196 -0.0277 0.0016 0
M  V30 11 Cl -0.3512 -2.0331 -1.8546 0
M  V30 12 C 0.7551 0.058 0.062 0
M  V30 13 C 1.4698 0.9168 -0.7945 0
M  V30 14 C 1.4438 -0.7316 0.9899 0
M  V30 15 Cl 0.6053 1.9157 -1.9669 0
M  V30 16 C 2.8739 0.9762 -0.7127 0
M  V30 17 C 2.8363 -0.6756 1.0741 0
M  V30 18 Cl 3.7758 2.0506 -1.7834 0
M  V30 19 C 3.5585 0.1781 0.2236 0
M  V30 20 Cl 3.6505 -1.69 2.2585 0
M  V30 21 Cl 5.3179 0.2462 0.3326 0
M  V30 22 H 0.8941 -1.3926 1.6494 0
M  V30 END ATOM
M  V30 BEGIN BOND
M  V30 1 1 1 2
M  V30 2 2 2 3
M  V30 3 1 2 4
M  V30 4 1 3 5
M  V30 5 1 3 6
M  V30 6 1 4 7
M  V30 7 2 4 8
M  V30 8 1 6 9
M  V30 9 2 6 10
M  V30 10 1 8 11
M  V30 11 1 10 12
M  V30 12 2 12 13
M  V30 13 1 12 14
M  V30 14 1 13 15
M  V30 15 1 13 16
M  V30 16 2 14 17
M  V30 17 1 16 18
M  V30 18 2 16 19
M  V30 19 1 17 20
M  V30 20 1 19 21
M  V30 21 1 8 10
M  V30 22 1 17 19
M  V30 23 1 14 22
M  V30 END BOND
M  V30 END CTAB
M  END
>  <Structure No>
6607

>  <LogS>
-9.62

>  <MMFF94 Energy>
70.451

$$$$
Compound 6608
Actelion Java MolfileCreator 2.0

  0  0  0  0  0  0              0 V3000
M  V30 BEGIN CTAB
M  V30 COUNTS 52 55 0 0 0
M  V30 BEGIN ATOM
M  V30 1 S -1.4702 -1.3068 -2.206 0
M  V30 2 C -2.3709 0.0233 -1.4043 0
M  V30 3 C -1.7069 -2.4444 -0.8367 0
M  V30 4 C -2.1065 0.3244 -0.0547 0
M  V30 5 C -3.2818 0.7928 -2.1347 0
M  V30 6 C -1.4751 -2.0013 0.4796 0
M  V30 7 C -2.0435 -3.7791 -1.0843 0
M  V30 8 N -1.3079 -0.5875 0.7299 0
M  V30 9 C -2.757 1.417 0.5444 0
M  V30 10 C -3.9137 1.8847 -1.5344 0
M  V30 11 C -1.5496 -2.9252 1.5371 0
M  V30 12 C -2.1184 -4.688 -0.0259 0
M  V30 13 C -0.3686 -0.0891 1.7496 0
M  V30 14 C -3.6451 2.2041 -0.1986 0
M  V30 15 C -1.8624 -4.2638 1.281 0
M  V30 16 C 1.0697 -0.5742 1.4834 0
M  V30 17 S -4.4675 3.5991 0.5726 0
M  V30 18 C 1.6519 -0.084 0.1267 0 CFG=2
M  V30 19 C -3.1514 4.7738 0.1264 0
M  V30 20 N 2.7945 -0.9235 -0.3531 0 CHG=1 CFG=1
M  V30 21 C 1.9476 1.4506 0.1162 0
M  V30 22 C 3.4879 -0.2702 -1.4838 0
M  V30 23 C 3.7476 -1.3568 0.6966 0
M  V30 24 C 3.4339 1.8058 0.0362 0
M  V30 25 C 4.1724 1.0487 -1.079 0
M  V30 26 H -3.4817 0.5616 -3.1732 0
M  V30 27 H -2.2196 -4.1187 -2.0971 0
M  V30 28 H -2.6067 1.6368 1.5935 0
M  V30 29 H -4.608 2.4844 -2.1091 0
M  V30 30 H -1.4018 -2.6106 2.5608 0
M  V30 31 H -2.3679 -5.7233 -0.219 0
M  V30 32 H -0.6933 -0.4311 2.7543 0
M  V30 33 H -0.3752 1.0188 1.7838 0
M  V30 34 H -1.9244 -4.9698 2.0991 0
M  V30 35 H 1.7205 -0.2281 2.3154 0
M  V30 36 H 1.0644 -1.6843 1.5066 0
M  V30 37 H 0.8359 -0.2233 -0.6176 0
M  V30 38 H -3.0424 4.8229 -0.9772 0
M  V30 39 H -2.1897 4.4608 0.5843 0
M  V30 40 H -3.4198 5.7808 0.5065 0
M  V30 41 H 2.3803 -1.8054 -0.742 0
M  V30 42 H 1.5252 1.955 1.0101 0
M  V30 43 H 1.4436 1.9058 -0.7654 0
M  V30 44 H 2.7519 -0.0569 -2.293 0
M  V30 45 H 4.2424 -0.9572 -1.9289 0
M  V30 46 H 4.0041 -0.5398 1.3964 0
M  V30 47 H 4.6885 -1.7459 0.249 0
M  V30 48 H 3.3183 -2.1912 1.292 0
M  V30 49 H 3.9129 1.6135 1.018 0
M  V30 50 H 3.5336 2.8991 -0.1405 0
M  V30 51 H 5.2098 0.8362 -0.74 0
M  V30 52 H 4.2493 1.6977 -1.9787 0
M  V30 END ATOM
M  V30 BEGIN BOND
M  V30 1 1 1 2
M  V30 2 1 1 3
M  V30 3 2 2 4
M  V30 4 1 2 5
M  V30 5 2 3 6
M  V30 6 1 3 7
M  V30 7 1 4 8
M  V30 8 1 4 9
M  V30 9 2 5 10
M  V30 10 1 6 11
M  V30 11 2 7 12
M  V30 12 1 8 13
M  V30 13 2 9 14
M  V30 14 2 11 15
M  V30 15 1 13 16
M  V30 16 1 14 17
M  V30 17 1 16 18
M  V30 18 1 17 19
M  V30 19 1 18 20
M  V30 20 1 18 21
M  V30 21 1 20 22
M  V30 22 1 20 23
M  V30 23 1 21 24
M  V30 24 1 22 25
M  V30 25 1 6 8
M  V30 26 1 10 14
M  V30 27 1 12 15
M  V30 28 1 24 25
M  V30 29 1 5 26
M  V30 30 1 7 27
M  V30 31 1 9 28
M  V30 32 1 10 29
M  V30 33 1 11 30
M  V30 34 1 12 31
M  V30 35 1 13 32
M  V30 36 1 13 33
M  V30 37 1 15 34
M  V30 38 1 16 35
M  V30 39 1 16 36
M  V30 40 1 18 37
M  V30 41 1 19 38
M  V30 42 1 19 39
M  V30 43 1 19 40
M  V30 44 1 20 41
M  V30 45 1 21 42
M  V30 46 1 21 43
M  V30 47 1 22 44
M  V30 48 1 22 45
M  V30 49 1 23 46
M  V30 50 1 23 47
M  V30 51 1 23 48
M  V30 52 1 24 49
M  V30 53 1 24 50
M  V30 54 1 25 51
M  V30 55 1 25 52
M  V30 END BOND
M  V30 BEGIN COLLECTION
M  V30 MDLV30/STEABS ATOMS=(2 18 20)
M  V30 END COLLECTION
M  V30 END CTAB
M  END
>  <Structure No>
6608

>  <LogS>
-5.82

>  <MMFF94 Energy>
73.405

$$$$
Compound 6609
Actelion Java MolfileCreator 2.0

  0  0  0  0  0  0              0 V3000
M  V30 BEGIN CTAB
M  V30 COUNTS 41 43 0 0 0
M  V30 BEGIN ATOM
M  V30 1 Cl 8.4015 1.9721 -3.1238 0
M  V30 2 C 7.3871 1.7284 -1.714 0
M  V30 3 C 6.1378 1.1003 -1.8516 0
M  V30 4 C 7.8283 2.1628 -0.4466 0
M  V30 5 C 5.362 0.9259 -0.7086 0
M  V30 6 C 7.0251 1.9728 0.6912 0
M  V30 7 S 3.8499 0.2132 -0.5671 0
M  V30 8 C 5.7857 1.349 0.5414 0
M  V30 9 C 3.8006 0.4934 1.1088 0
M  V30 10 N 4.9217 1.1053 1.5598 0
M  V30 11 O 2.7714 0.1016 1.9732 0
M  V30 12 C 1.4611 -0.1994 1.5791 0
M  V30 13 C 0.8117 0.5073 0.5529 0
M  V30 14 C 0.7662 -1.2012 2.2641 0
M  V30 15 C -0.5015 0.1871 0.1957 0
M  V30 16 C -0.5461 -1.5231 1.9076 0
M  V30 17 C -1.1902 -0.8408 0.8688 0
M  V30 18 O -2.5091 -1.2092 0.5548 0
M  V30 19 C -3.2828 -0.7019 -0.5352 0 CFG=2
M  V30 20 C -4.7232 -1.0505 -0.3153 0
M  V30 21 C -2.8046 -1.3053 -1.858 0
M  V30 22 O -5.0362 -2.1994 0.1025 0
M  V30 23 O -5.7119 -0.1092 -0.624 0
M  V30 24 C -7.105 -0.3385 -0.4213 0
M  V30 25 C -7.4591 -0.2285 1.057 0
M  V30 26 H 5.7862 0.7604 -2.8172 0
M  V30 27 H 8.7916 2.6458 -0.3447 0
M  V30 28 H 7.3636 2.3051 1.6643 0
M  V30 29 H 1.3085 1.3242 0.0472 0
M  V30 30 H 1.2491 -1.7393 3.0699 0
M  V30 31 H -0.9693 0.7545 -0.5955 0
M  V30 32 H -1.0664 -2.3084 2.4411 0
M  V30 33 H -3.2046 0.4058 -0.5742 0
M  V30 34 H -1.748 -1.0305 -2.0528 0
M  V30 35 H -2.8794 -2.4135 -1.8271 0
M  V30 36 H -3.4228 -0.9234 -2.6986 0
M  V30 37 H -7.6752 0.4312 -0.9826 0
M  V30 38 H -7.3946 -1.3371 -0.8148 0
M  V30 39 H -8.5544 -0.354 1.1889 0
M  V30 40 H -7.1617 0.7689 1.4445 0
M  V30 41 H -6.9376 -1.0158 1.6402 0
M  V30 END ATOM
M  V30 BEGIN BOND
M  V30 1 1 1 2
M  V30 2 2 2 3
M  V30 3 1 2 4
M  V30 4 1 3 5
M  V30 5 2 4 6
M  V30 6 1 5 7
M  V30 7 2 5 8
M  V30 8 1 7 9
M  V30 9 1 8 10
M  V30 10 1 9 11
M  V30 11 1 11 12
M  V30 12 2 12 13
M  V30 13 1 12 14
M  V30 14 1 13 15
M  V30 15 2 14 16
M  V30 16 2 15 17
M  V30 17 1 17 18
M  V30 18 1 18 19
M  V30 19 1 19 20
M  V30 20 1 19 21
M  V30 21 2 20 22
M  V30 22 1 20 23
M  V30 23 1 23 24
M  V30 24 1 24 25
M  V30 25 1 6 8
M  V30 26 2 9 10
M  V30 27 1 16 17
M  V30 28 1 3 26
M  V30 29 1 4 27
M  V30 30 1 6 28
M  V30 31 1 13 29
M  V30 32 1 14 30
M  V30 33 1 15 31
M  V30 34 1 16 32
M  V30 35 1 19 33
M  V30 36 1 21 34
M  V30 37 1 21 35
M  V30 38 1 21 36
M  V30 39 1 24 37
M  V30 40 1 24 38
M  V30 41 1 25 39
M  V30 42 1 25 40
M  V30 43 1 25 41
M  V30 END BOND
M  V30 BEGIN COLLECTION
M  V30 MDLV30/STEABS ATOMS=(1 19)
M  V30 END COLLECTION
M  V30 END CTAB
M  END
>  <Structure No>
6609

>  <LogS>
-5.67

>  <MMFF94 Energy>
52.832

$$$$
Compound 6610
Actelion Java MolfileCreator 2.0

  0  0  0  0  0  0              0 V3000
M  V30 BEGIN CTAB
M  V30 COUNTS 35 38 0 0 0
M  V30 BEGIN ATOM
M  V30 1 Cl 3.4002 -2.5701 0.497 0
M  V30 2 C 3.3326 -0.8133 0.6065 0
M  V30 3 C 2.1205 -0.097 0.4673 0
M  V30 4 C 4.5358 -0.119 0.7859 0
M  V30 5 C 0.8176 -0.7848 0.2904 0
M  V30 6 C 2.1506 1.3091 0.5041 0
M  V30 7 C 4.5477 1.2765 0.8264 0
M  V30 8 N 0.5375 -1.7835 1.0823 0
M  V30 9 C -0.1244 -0.3089 -0.7734 0
M  V30 10 C 3.3571 1.9896 0.6834 0
M  V30 11 C -0.6934 -2.5631 1.0739 0
M  V30 12 C -1.5253 -0.1741 -0.5644 0
M  V30 13 C 0.4161 0.064 -2.0194 0
M  V30 14 C -1.83 -1.6607 1.4019 0
M  V30 15 N -2.1359 -0.5725 0.6782 0
M  V30 16 C -2.3354 0.2908 -1.6156 0
M  V30 17 C -0.4029 0.5458 -3.0419 0
M  V30 18 N -2.5999 -1.7662 2.5013 0
M  V30 19 C -3.1368 -0.0053 1.3885 0
M  V30 20 C -1.7774 0.6553 -2.8403 0
M  V30 21 Cl 0.2957 1.0005 -4.5854 0
M  V30 22 N -3.426 -0.7297 2.4884 0
M  V30 23 C -3.8301 1.2775 1.0531 0
M  V30 24 H 5.4671 -0.6622 0.8858 0
M  V30 25 H 1.2356 1.8808 0.4052 0
M  V30 26 H 5.4817 1.8058 0.9641 0
M  V30 27 H 3.3682 3.0715 0.7136 0
M  V30 28 H -0.8471 -3.0238 0.0746 0
M  V30 29 H -0.6183 -3.3714 1.8313 0
M  V30 30 H 1.4801 -0.0269 -2.2019 0
M  V30 31 H -3.4087 0.3451 -1.5001 0
M  V30 32 H -2.4178 1.0124 -3.6369 0
M  V30 33 H -4.2044 1.7562 1.9823 0
M  V30 34 H -3.1269 1.9795 0.5585 0
M  V30 35 H -4.6925 1.0738 0.3859 0
M  V30 END ATOM
M  V30 BEGIN BOND
M  V30 1 1 1 2
M  V30 2 2 2 3
M  V30 3 1 2 4
M  V30 4 1 3 5
M  V30 5 1 3 6
M  V30 6 2 4 7
M  V30 7 2 5 8
M  V30 8 1 5 9
M  V30 9 2 6 10
M  V30 10 1 8 11
M  V30 11 2 9 12
M  V30 12 1 9 13
M  V30 13 1 11 14
M  V30 14 1 12 15
M  V30 15 1 12 16
M  V30 16 2 13 17
M  V30 17 2 14 18
M  V30 18 1 15 19
M  V30 19 2 16 20
M  V30 20 1 17 21
M  V30 21 1 18 22
M  V30 22 1 19 23
M  V30 23 1 7 10
M  V30 24 1 14 15
M  V30 25 1 17 20
M  V30 26 2 19 22
M  V30 27 1 4 24
M  V30 28 1 6 25
M  V30 29 1 7 26
M  V30 30 1 10 27
M  V30 31 1 11 28
M  V30 32 1 11 29
M  V30 33 1 13 30
M  V30 34 1 16 31
M  V30 35 1 20 32
M  V30 36 1 23 33
M  V30 37 1 23 34
M  V30 38 1 23 35
M  V30 END BOND
M  V30 END CTAB
M  END
>  <Structure No>
6610

>  <LogS>
-4.08

>  <MMFF94 Energy>
87.541

$$$$
Compound 6611
Actelion Java MolfileCreator 2.0

  0  0  0  0  0  0              0 V3000
M  V30 BEGIN CTAB
M  V30 COUNTS 51 55 0 0 0
M  V30 BEGIN ATOM
M  V30 1 O -1.3 0.8936 -2.0318 0
M  V30 2 C -0.5572 0.5438 -1.0734 0
M  V30 3 C 0.8896 0.3478 -1.293 0
M  V30 4 C -1.12 0.4181 0.3289 0 CFG=1
M  V30 5 C 1.6756 -0.1147 -0.2173 0
M  V30 6 C 1.5031 0.643 -2.5342 0
M  V30 7 C -2.5999 0.083 0.3101 0
M  V30 8 C -0.3254 -0.6325 1.1471 0 CFG=2
M  V30 9 O 1.0848 -0.4391 1.0083 0
M  V30 10 C 3.053 -0.2402 -0.4001 0
M  V30 11 C 2.8909 0.4916 -2.691 0
M  V30 12 C -3.0328 -1.2381 0.5257 0
M  V30 13 C -3.5475 1.0856 0.0546 0
M  V30 14 C -0.7023 -2.0549 0.7067 0
M  V30 15 C 3.6359 0.0499 -1.5999 0
M  V30 16 C 4.085 -0.693 0.5703 0
M  V30 17 O -2.1109 -2.2515 0.8114 0
M  V30 18 C -4.3952 -1.543 0.4906 0
M  V30 19 C -4.9216 0.7805 0.0134 0
M  V30 20 O 4.9985 -0.1517 -1.5621 0
M  V30 21 C 5.393 -0.6239 -0.2716 0 CFG=1
M  V30 22 C -5.347 -0.5385 0.2325 0
M  V30 23 O -5.8944 1.76 -0.2425 0
M  V30 24 C 6.4241 0.3051 0.3388 0
M  V30 25 O -6.7236 -0.8111 0.1865 0
M  V30 26 C -5.6118 3.1344 -0.486 0
M  V30 27 C 6.1994 1.6272 0.4043 0
M  V30 28 C 7.7145 -0.247 0.8827 0
M  V30 29 C -7.2985 -2.098 0.3884 0
M  V30 30 H -0.9846 1.4019 0.8301 0
M  V30 31 H 0.9146 0.9989 -3.3702 0
M  V30 32 H -0.5862 -0.5236 2.2228 0
M  V30 33 H 3.3708 0.7182 -3.6339 0
M  V30 34 H -3.2046 2.0975 -0.1146 0
M  V30 35 H -0.183 -2.7991 1.3462 0
M  V30 36 H -0.3914 -2.2251 -0.3462 0
M  V30 37 H 3.8746 -1.7356 0.8918 0
M  V30 38 H 4.1017 -0.0182 1.4537 0
M  V30 39 H -4.7008 -2.5652 0.6675 0
M  V30 40 H 5.8063 -1.6495 -0.3851 0
M  V30 41 H -6.5648 3.6753 -0.6578 0
M  V30 42 H -5.1032 3.5815 0.3941 0
M  V30 43 H -4.9757 3.239 -1.3902 0
M  V30 44 H 5.2771 2.057 0.0252 0
M  V30 45 H 6.9354 2.2953 0.8415 0
M  V30 46 H 7.8066 0.0065 1.9601 0
M  V30 47 H 7.7598 -1.3512 0.781 0
M  V30 48 H 8.5727 0.1916 0.331 0
M  V30 49 H -6.9253 -2.8078 -0.3795 0
M  V30 50 H -8.4011 -2.021 0.2946 0
M  V30 51 H -7.0537 -2.4703 1.4055 0
M  V30 END ATOM
M  V30 BEGIN BOND
M  V30 1 2 1 2
M  V30 2 1 2 3
M  V30 3 1 2 4
M  V30 4 2 3 5
M  V30 5 1 3 6
M  V30 6 1 4 7
M  V30 7 1 4 8
M  V30 8 1 5 9
M  V30 9 1 5 10
M  V30 10 2 6 11
M  V30 11 2 7 12
M  V30 12 1 7 13
M  V30 13 1 8 14
M  V30 14 2 10 15
M  V30 15 1 10 16
M  V30 16 1 12 17
M  V30 17 1 12 18
M  V30 18 2 13 19
M  V30 19 1 15 20
M  V30 20 1 16 21
M  V30 21 2 18 22
M  V30 22 1 19 23
M  V30 23 1 21 24
M  V30 24 1 22 25
M  V30 25 1 23 26
M  V30 26 2 24 27
M  V30 27 1 24 28
M  V30 28 1 25 29
M  V30 29 1 8 9
M  V30 30 1 11 15
M  V30 31 1 14 17
M  V30 32 1 19 22
M  V30 33 1 20 21
M  V30 34 1 4 30
M  V30 35 1 6 31
M  V30 36 1 8 32
M  V30 37 1 11 33
M  V30 38 1 13 34
M  V30 39 1 14 35
M  V30 40 1 14 36
M  V30 41 1 16 37
M  V30 42 1 16 38
M  V30 43 1 18 39
M  V30 44 1 21 40
M  V30 45 1 26 41
M  V30 46 1 26 42
M  V30 47 1 26 43
M  V30 48 1 27 44
M  V30 49 1 27 45
M  V30 50 1 28 46
M  V30 51 1 28 47
M  V30 52 1 28 48
M  V30 53 1 29 49
M  V30 54 1 29 50
M  V30 55 1 29 51
M  V30 END BOND
M  V30 BEGIN COLLECTION
M  V30 MDLV30/STEABS ATOMS=(3 4 8 21)
M  V30 END COLLECTION
M  V30 END CTAB
M  END
>  <Structure No>
6611

>  <LogS>
-4.47

>  <MMFF94 Energy>
109.27

$$$$
Compound 6612
Actelion Java MolfileCreator 2.0

  0  0  0  0  0  0              0 V3000
M  V30 BEGIN CTAB
M  V30 COUNTS 31 32 0 0 0
M  V30 BEGIN ATOM
M  V30 1 Cl 3.2943 -1.8195 2.0797 0
M  V30 2 C 2.0878 -1.0761 1.0353 0
M  V30 3 C 2.4024 -0.5984 -0.2546 0
M  V30 4 C 0.7803 -0.9595 1.5222 0
M  V30 5 S 4.0409 -0.7143 -0.913 0
M  V30 6 C 1.3974 0.0071 -1.0241 0
M  V30 7 C -0.2246 -0.3753 0.7408 0
M  V30 8 O 4.0224 -0.435 -2.3899 0
M  V30 9 O 4.5827 -2.0997 -0.6997 0
M  V30 10 N 5.0683 0.4411 -0.1384 0
M  V30 11 C 0.0939 0.1209 -0.5288 0
M  V30 12 N -1.5609 -0.2697 1.2582 0
M  V30 13 S -1.1417 0.9233 -1.4759 0
M  V30 14 C -2.7459 -0.0686 0.4115 0 CFG=1
M  V30 15 O -1.4543 0.1002 -2.6935 0
M  V30 16 O -0.6433 2.2748 -1.9095 0
M  V30 17 N -2.5846 1.0866 -0.5015 0
M  V30 18 C -3.0839 -1.352 -0.3636 0
M  V30 19 C -2.5361 2.3463 0.2558 0
M  V30 20 Cl -3.5952 -2.6459 0.7528 0
M  V30 21 H 0.543 -1.3324 2.511 0
M  V30 22 H 1.6259 0.4007 -2.0062 0
M  V30 23 H 4.6064 1.3732 -0.2357 0
M  V30 24 H 5.0783 0.2151 0.8809 0
M  V30 25 H -1.7142 -0.401 2.2841 0
M  V30 26 H -3.6205 0.1259 1.0742 0
M  V30 27 H -2.207 -1.7187 -0.9355 0
M  V30 28 H -3.9151 -1.1535 -1.0732 0
M  V30 29 H -1.6222 2.404 0.8871 0
M  V30 30 H -3.4329 2.4453 0.9044 0
M  V30 31 H -2.5508 3.2085 -0.4437 0
M  V30 END ATOM
M  V30 BEGIN BOND
M  V30 1 1 1 2
M  V30 2 2 2 3
M  V30 3 1 2 4
M  V30 4 1 3 5
M  V30 5 1 3 6
M  V30 6 2 4 7
M  V30 7 2 5 8
M  V30 8 2 5 9
M  V30 9 1 5 10
M  V30 10 2 6 11
M  V30 11 1 7 12
M  V30 12 1 11 13
M  V30 13 1 12 14
M  V30 14 2 13 15
M  V30 15 2 13 16
M  V30 16 1 13 17
M  V30 17 1 14 18
M  V30 18 1 17 19
M  V30 19 1 18 20
M  V30 20 1 7 11
M  V30 21 1 14 17
M  V30 22 1 4 21
M  V30 23 1 6 22
M  V30 24 1 10 23
M  V30 25 1 10 24
M  V30 26 1 12 25
M  V30 27 1 14 26
M  V30 28 1 18 27
M  V30 29 1 18 28
M  V30 30 1 19 29
M  V30 31 1 19 30
M  V30 32 1 19 31
M  V30 END BOND
M  V30 BEGIN COLLECTION
M  V30 MDLV30/STEABS ATOMS=(1 14)
M  V30 END COLLECTION
M  V30 END CTAB
M  END
>  <Structure No>
6612

>  <LogS>
-3.78

>  <MMFF94 Energy>
-169.38

$$$$
Compound 6613
Actelion Java MolfileCreator 2.0

  0  0  0  0  0  0              0 V3000
M  V30 BEGIN CTAB
M  V30 COUNTS 48 51 0 0 0
M  V30 BEGIN ATOM
M  V30 1 Cl 8.98 -2.1986 2.1171 0
M  V30 2 C 7.3953 -1.7984 1.4828 0
M  V30 3 C 6.6951 -2.7354 0.7129 0
M  V30 4 C 6.8304 -0.5431 1.7489 0
M  V30 5 C 5.4289 -2.4164 0.2115 0
M  V30 6 C 5.5643 -0.22 1.2485 0
M  V30 7 N 4.7336 -3.3124 -0.5367 0
M  V30 8 C 4.861 -1.1537 0.4807 0
M  V30 9 C 3.5014 -3.0121 -1.0262 0
M  V30 10 N 3.63 -0.8591 -0.0132 0
M  V30 11 C 2.9311 -1.7628 -0.7554 0
M  V30 12 O 1.6732 -1.4512 -1.287 0
M  V30 13 C 0.8649 -0.3819 -0.8769 0
M  V30 14 C 0.0336 0.228 -1.8218 0
M  V30 15 C 0.8322 0.0642 0.4555 0
M  V30 16 C -0.8003 1.2874 -1.456 0
M  V30 17 C -0.0034 1.1224 0.8223 0
M  V30 18 C -0.829 1.74 -0.1236 0
M  V30 19 O -1.6707 2.7808 0.305 0
M  V30 20 C -2.6803 3.4073 -0.4909 0 CFG=1
M  V30 21 C -3.7404 2.4125 -0.8648 0
M  V30 22 C -3.3021 4.5501 0.3039 0
M  V30 23 O -4.3788 2.5503 -1.9442 0
M  V30 24 O -4.0048 1.3387 -0.0103 0
M  V30 25 C -4.8152 0.2285 -0.3856 0 CFG=1
M  V30 26 O -4.2273 -0.4329 -1.4827 0
M  V30 27 C -4.9021 -0.7465 0.7683 0
M  V30 28 C -3.5271 -1.5501 -0.9803 0
M  V30 29 C -3.7385 -1.6552 0.5194 0
M  V30 30 H 7.1325 -3.7048 0.5082 0
M  V30 31 H 7.3711 0.1814 2.3445 0
M  V30 32 H 5.1332 0.7513 1.4591 0
M  V30 33 H 2.9672 -3.7398 -1.6226 0
M  V30 34 H 0.0358 -0.12 -2.8452 0
M  V30 35 H 1.4247 -0.4222 1.2181 0
M  V30 36 H -1.4197 1.7415 -2.216 0
M  V30 37 H -0.0262 1.4508 1.8537 0
M  V30 38 H -2.2172 3.8323 -1.4089 0
M  V30 39 H -3.77 4.1651 1.2361 0
M  V30 40 H -2.5178 5.2872 0.5773 0
M  V30 41 H -4.0746 5.068 -0.3046 0
M  V30 42 H -5.8328 0.5835 -0.6593 0
M  V30 43 H -5.8532 -1.321 0.7058 0
M  V30 44 H -4.8326 -0.2429 1.7572 0
M  V30 45 H -2.4451 -1.4481 -1.2134 0
M  V30 46 H -3.9105 -2.4657 -1.48 0
M  V30 47 H -3.9593 -2.6983 0.8359 0
M  V30 48 H -2.8396 -1.2794 1.0581 0
M  V30 END ATOM
M  V30 BEGIN BOND
M  V30 1 1 1 2
M  V30 2 2 2 3
M  V30 3 1 2 4
M  V30 4 1 3 5
M  V30 5 2 4 6
M  V30 6 2 5 7
M  V30 7 1 5 8
M  V30 8 1 7 9
M  V30 9 2 8 10
M  V30 10 2 9 11
M  V30 11 1 11 12
M  V30 12 1 12 13
M  V30 13 2 13 14
M  V30 14 1 13 15
M  V30 15 1 14 16
M  V30 16 2 15 17
M  V30 17 2 16 18
M  V30 18 1 18 19
M  V30 19 1 19 20
M  V30 20 1 20 21
M  V30 21 1 20 22
M  V30 22 2 21 23
M  V30 23 1 21 24
M  V30 24 1 24 25
M  V30 25 1 25 26
M  V30 26 1 25 27
M  V30 27 1 26 28
M  V30 28 1 27 29
M  V30 29 1 6 8
M  V30 30 1 10 11
M  V30 31 1 17 18
M  V30 32 1 28 29
M  V30 33 1 3 30
M  V30 34 1 4 31
M  V30 35 1 6 32
M  V30 36 1 9 33
M  V30 37 1 14 34
M  V30 38 1 15 35
M  V30 39 1 16 36
M  V30 40 1 17 37
M  V30 41 1 20 38
M  V30 42 1 22 39
M  V30 43 1 22 40
M  V30 44 1 22 41
M  V30 45 1 25 42
M  V30 46 1 27 43
M  V30 47 1 27 44
M  V30 48 1 28 45
M  V30 49 1 28 46
M  V30 50 1 29 47
M  V30 51 1 29 48
M  V30 END BOND
M  V30 BEGIN COLLECTION
M  V30 MDLV30/STEABS ATOMS=(2 20 25)
M  V30 END COLLECTION
M  V30 END CTAB
M  END
>  <Structure No>
6613

>  <LogS>
-5.02

>  <MMFF94 Energy>
104.35

$$$$
Compound 6614
Actelion Java MolfileCreator 2.0

  0  0  0  0  0  0              0 V3000
M  V30 BEGIN CTAB
M  V30 COUNTS 28 29 0 0 0
M  V30 BEGIN ATOM
M  V30 1 Cl -0.0888 3.826 1.7782 0
M  V30 2 C 0.0273 2.1656 1.2044 0
M  V30 3 C 0.414 1.1086 2.0549 0
M  V30 4 C -0.2828 1.9071 -0.1359 0
M  V30 5 S 0.8105 1.4016 3.753 0
M  V30 6 C 0.4825 -0.1952 1.5404 0
M  V30 7 C -0.2242 0.6029 -0.6429 0
M  V30 8 O -0.4077 1.9196 4.4646 0
M  V30 9 O 1.9155 2.4169 3.8426 0
M  V30 10 N 1.3303 -0.0572 4.5247 0
M  V30 11 C 0.172 -0.445 0.1998 0
M  V30 12 N -0.5519 0.3516 -2.0197 0
M  V30 13 S 0.3192 -2.0619 -0.461 0
M  V30 14 C -0.9116 -0.9935 -2.4968 0 CFG=2
M  V30 15 O -0.7655 -2.9431 0.091 0
M  V30 16 O 1.6658 -2.6362 -0.1217 0
M  V30 17 N 0.1594 -1.9486 -2.1845 0
M  V30 18 C -1.1823 -0.9861 -4.0114 0
M  V30 19 Cl -1.5541 -2.6316 -4.5941 0
M  V30 20 Cl -2.5721 0.0644 -4.4009 0
M  V30 21 H -0.582 2.7226 -0.7829 0
M  V30 22 H 0.7814 -1.0195 2.1737 0
M  V30 23 H 1.4835 0.1684 5.5331 0
M  V30 24 H 2.2658 -0.2977 4.1269 0
M  V30 25 H -0.5842 1.1629 -2.6787 0
M  V30 26 H -1.8493 -1.3151 -1.989 0
M  V30 27 H 1.0617 -1.5697 -2.5553 0
M  V30 28 H -0.2882 -0.6122 -4.5546 0
M  V30 END ATOM
M  V30 BEGIN BOND
M  V30 1 1 1 2
M  V30 2 2 2 3
M  V30 3 1 2 4
M  V30 4 1 3 5
M  V30 5 1 3 6
M  V30 6 2 4 7
M  V30 7 2 5 8
M  V30 8 2 5 9
M  V30 9 1 5 10
M  V30 10 2 6 11
M  V30 11 1 7 12
M  V30 12 1 11 13
M  V30 13 1 12 14
M  V30 14 2 13 15
M  V30 15 2 13 16
M  V30 16 1 13 17
M  V30 17 1 14 18
M  V30 18 1 18 19
M  V30 19 1 18 20
M  V30 20 1 7 11
M  V30 21 1 14 17
M  V30 22 1 4 21
M  V30 23 1 6 22
M  V30 24 1 10 23
M  V30 25 1 10 24
M  V30 26 1 12 25
M  V30 27 1 14 26
M  V30 28 1 17 27
M  V30 29 1 18 28
M  V30 END BOND
M  V30 BEGIN COLLECTION
M  V30 MDLV30/STEABS ATOMS=(1 14)
M  V30 END COLLECTION
M  V30 END CTAB
M  END
>  <Structure No>
6614

>  <LogS>
-3.18

>  <MMFF94 Energy>
-164.88

$$$$
Compound 6615
Actelion Java MolfileCreator 2.0

  0  0  0  0  0  0              0 V3000
M  V30 BEGIN CTAB
M  V30 COUNTS 41 42 0 0 0
M  V30 BEGIN ATOM
M  V30 1 Cl 6.651 2.9889 0.4147 0
M  V30 2 C 5.36 1.8706 0.8039 0
M  V30 3 N 4.1201 2.0661 0.2859 0
M  V30 4 C 5.5999 0.7814 1.6413 0
M  V30 5 C 3.0958 1.2163 0.5714 0
M  V30 6 C 4.5452 -0.0866 1.924 0
M  V30 7 N 3.3182 0.1478 1.3829 0
M  V30 8 N 1.7888 1.4182 0.0138 0
M  V30 9 O 4.7631 -1.1862 2.759 0
M  V30 10 C 1.4092 2.5727 -0.7567 0
M  V30 11 C 3.7372 -2.1139 3.092 0
M  V30 12 O 2.1562 3.5859 -0.794 0
M  V30 13 N 0.1663 2.6153 -1.4669 0 CHG=-1
M  V30 14 S -0.8874 1.2579 -1.7064 0
M  V30 15 O -1.7412 1.5497 -2.9081 0
M  V30 16 O -0.0576 0.0351 -1.9819 0
M  V30 17 C -1.9339 0.994 -0.2969 0
M  V30 18 C -3.0813 0.1537 -0.3444 0
M  V30 19 C -1.6517 1.6983 0.8872 0
M  V30 20 C -3.457 -0.6366 -1.54 0
M  V30 21 C -3.91 0.0635 0.7903 0
M  V30 22 C -2.478 1.5802 2.0045 0
M  V30 23 O -4.6773 -0.8137 -1.8096 0
M  V30 24 O -2.4713 -1.2202 -2.3427 0
M  V30 25 C -3.6067 0.7673 1.9553 0
M  V30 26 C -2.7581 -2.0385 -3.4746 0
M  V30 27 C -3.1924 -3.4313 -3.0344 0
M  V30 28 H 6.5827 0.6113 2.0624 0
M  V30 29 H 1.0709 0.69 0.2198 0
M  V30 30 H 4.1536 -2.8921 3.7637 0
M  V30 31 H 2.9082 -1.5925 3.6158 0
M  V30 32 H 3.3521 -2.6016 2.1715 0
M  V30 33 H -0.7969 2.3553 0.9522 0
M  V30 34 H -4.7896 -0.5688 0.7814 0
M  V30 35 H -2.2468 2.1288 2.9085 0
M  V30 36 H -4.2491 0.6814 2.8223 0
M  V30 37 H -1.836 -2.1293 -4.0863 0
M  V30 38 H -3.5443 -1.5682 -4.1043 0
M  V30 39 H -4.138 -3.378 -2.4558 0
M  V30 40 H -3.3565 -4.0706 -3.9272 0
M  V30 41 H -2.404 -3.8914 -2.402 0
M  V30 END ATOM
M  V30 BEGIN BOND
M  V30 1 1 1 2
M  V30 2 2 2 3
M  V30 3 1 2 4
M  V30 4 1 3 5
M  V30 5 2 4 6
M  V30 6 2 5 7
M  V30 7 1 5 8
M  V30 8 1 6 9
M  V30 9 1 8 10
M  V30 10 1 9 11
M  V30 11 2 10 12
M  V30 12 1 10 13
M  V30 13 1 13 14
M  V30 14 2 14 15
M  V30 15 2 14 16
M  V30 16 1 14 17
M  V30 17 2 17 18
M  V30 18 1 17 19
M  V30 19 1 18 20
M  V30 20 1 18 21
M  V30 21 2 19 22
M  V30 22 2 20 23
M  V30 23 1 20 24
M  V30 24 2 21 25
M  V30 25 1 24 26
M  V30 26 1 26 27
M  V30 27 1 6 7
M  V30 28 1 22 25
M  V30 29 1 4 28
M  V30 30 1 8 29
M  V30 31 1 11 30
M  V30 32 1 11 31
M  V30 33 1 11 32
M  V30 34 1 19 33
M  V30 35 1 21 34
M  V30 36 1 22 35
M  V30 37 1 25 36
M  V30 38 1 26 37
M  V30 39 1 26 38
M  V30 40 1 27 39
M  V30 41 1 27 40
M  V30 42 1 27 41
M  V30 END BOND
M  V30 END CTAB
M  END
>  <Structure No>
6615

>  <LogS>
-4.58

>  <MMFF94 Energy>
-112.74

$$$$
Compound 6616
Actelion Java MolfileCreator 2.0

  0  0  0  0  0  0              0 V3000
M  V30 BEGIN CTAB
M  V30 COUNTS 35 37 0 0 0
M  V30 BEGIN ATOM
M  V30 1 S -2.7342 1.8222 0.5795 0
M  V30 2 O -3.1287 2.1922 1.9823 0
M  V30 3 O -3.1488 2.8998 -0.382 0
M  V30 4 N -1.0255 1.5867 0.4951 0
M  V30 5 C -3.4859 0.3157 0.1495 0
M  V30 6 C -0.4718 0.4312 -0.1763 0
M  V30 7 C -0.1566 2.5831 1.1268 0
M  V30 8 C -2.7061 -0.7379 -0.3625 0
M  V30 9 C -4.8691 0.1648 0.3191 0
M  V30 10 C -1.232 -0.6174 -0.5821 0
M  V30 11 C 0.985 0.3935 -0.4383 0
M  V30 12 C -3.3534 -1.9466 -0.6955 0
M  V30 13 C -5.4899 -1.038 -0.0158 0
M  V30 14 O -0.6041 -1.6605 -1.2638 0 CHG=-1
M  V30 15 O 1.4971 1.2732 -1.1818 0
M  V30 16 N 1.7965 -0.6486 0.1294 0
M  V30 17 C -4.7324 -2.0933 -0.5216 0
M  V30 18 C 3.2315 -0.6689 0.0901 0
M  V30 19 N 3.8736 -1.869 0.0371 0
M  V30 20 C 3.989 0.5129 0.1727 0
M  V30 21 C 5.2302 -1.9627 0.0255 0
M  V30 22 C 5.3834 0.4364 0.1604 0
M  V30 23 C 6.0111 -0.807 0.0815 0
M  V30 24 H 0.5154 2.0873 1.8587 0
M  V30 25 H 0.4489 3.1025 0.3558 0
M  V30 26 H -0.7518 3.3506 1.665 0
M  V30 27 H -5.465 0.9796 0.7113 0
M  V30 28 H -2.7962 -2.7867 -1.0898 0
M  V30 29 H -6.5581 -1.1524 0.117 0
M  V30 30 H 1.3168 -1.4784 0.5456 0
M  V30 31 H -5.2139 -3.0274 -0.7809 0
M  V30 32 H 3.5145 1.4795 0.2758 0
M  V30 33 H 5.702 -2.9349 -0.0242 0
M  V30 34 H 5.9765 1.3396 0.2229 0
M  V30 35 H 7.0913 -0.8755 0.0745 0
M  V30 END ATOM
M  V30 BEGIN BOND
M  V30 1 2 1 2
M  V30 2 2 1 3
M  V30 3 1 1 4
M  V30 4 1 1 5
M  V30 5 1 4 6
M  V30 6 1 4 7
M  V30 7 2 5 8
M  V30 8 1 5 9
M  V30 9 2 6 10
M  V30 10 1 6 11
M  V30 11 1 8 12
M  V30 12 2 9 13
M  V30 13 1 10 14
M  V30 14 2 11 15
M  V30 15 1 11 16
M  V30 16 2 12 17
M  V30 17 1 16 18
M  V30 18 2 18 19
M  V30 19 1 18 20
M  V30 20 1 19 21
M  V30 21 2 20 22
M  V30 22 2 21 23
M  V30 23 1 8 10
M  V30 24 1 13 17
M  V30 25 1 22 23
M  V30 26 1 7 24
M  V30 27 1 7 25
M  V30 28 1 7 26
M  V30 29 1 9 27
M  V30 30 1 12 28
M  V30 31 1 13 29
M  V30 32 1 16 30
M  V30 33 1 17 31
M  V30 34 1 20 32
M  V30 35 1 21 33
M  V30 36 1 22 34
M  V30 37 1 23 35
M  V30 END BOND
M  V30 END CTAB
M  END
>  <Structure No>
6616

>  <LogS>
-4.5

>  <MMFF94 Energy>
-5.7415

$$$$
Compound 6617
Actelion Java MolfileCreator 2.0

  0  0  0  0  0  0              0 V3000
M  V30 BEGIN CTAB
M  V30 COUNTS 40 42 0 0 0
M  V30 BEGIN ATOM
M  V30 1 S -4.6184 -1.9774 0.6588 0
M  V30 2 O -4.1235 -3.2172 1.3496 0
M  V30 3 O -5.2984 -2.3797 -0.6198 0
M  V30 4 N -5.7477 -1.1602 1.6809 0
M  V30 5 C -3.262 -0.9125 0.3028 0
M  V30 6 C -2.1449 -0.8888 1.1477 0
M  V30 7 C -3.3066 -0.0619 -0.8096 0
M  V30 8 C -1.071 -0.0388 0.87 0
M  V30 9 C -2.2322 0.7873 -1.0891 0
M  V30 10 C -1.0971 0.7903 -0.2642 0
M  V30 11 N -0.0011 1.673 -0.5583 0
M  V30 12 N -0.1802 2.9393 -0.9023 0
M  V30 13 C 1.3271 1.4191 -0.4609 0
M  V30 14 C 1.0353 3.5053 -1.0325 0
M  V30 15 C 1.954 0.1064 -0.1867 0
M  V30 16 C 2.0201 2.5811 -0.7418 0
M  V30 17 C 1.2584 4.9483 -1.3518 0
M  V30 18 C 3.0778 0.0261 0.6507 0
M  V30 19 C 1.4594 -1.0651 -0.7834 0
M  V30 20 F 2.3306 5.0791 -2.2155 0
M  V30 21 F 1.5249 5.64 -0.186 0
M  V30 22 F 0.1308 5.4819 -1.9489 0
M  V30 23 C 3.679 -1.2084 0.9114 0
M  V30 24 C 2.0593 -2.3001 -0.5209 0
M  V30 25 C 3.1773 -2.3783 0.3234 0
M  V30 26 C 3.8103 -3.7021 0.6351 0
M  V30 27 H -6.0841 -0.3231 1.155 0
M  V30 28 H -5.2123 -0.8033 2.5043 0
M  V30 29 H -2.1071 -1.5226 2.0245 0
M  V30 30 H -4.1719 -0.0549 -1.46 0
M  V30 31 H -0.2249 -0.0198 1.5448 0
M  V30 32 H -2.2773 1.4342 -1.9563 0
M  V30 33 H 3.0922 2.7287 -0.759 0
M  V30 34 H 3.4791 0.9174 1.1177 0
M  V30 35 H 0.6144 -1.0252 -1.459 0
M  V30 36 H 4.534 -1.2531 1.5752 0
M  V30 37 H 1.655 -3.193 -0.9817 0
M  V30 38 H 3.4699 -4.4882 -0.072 0
M  V30 39 H 3.54 -4.0076 1.6674 0
M  V30 40 H 4.9145 -3.6229 0.5573 0
M  V30 END ATOM
M  V30 BEGIN BOND
M  V30 1 2 1 2
M  V30 2 2 1 3
M  V30 3 1 1 4
M  V30 4 1 1 5
M  V30 5 2 5 6
M  V30 6 1 5 7
M  V30 7 1 6 8
M  V30 8 2 7 9
M  V30 9 2 8 10
M  V30 10 1 10 11
M  V30 11 1 11 12
M  V30 12 1 11 13
M  V30 13 2 12 14
M  V30 14 1 13 15
M  V30 15 2 13 16
M  V30 16 1 14 17
M  V30 17 2 15 18
M  V30 18 1 15 19
M  V30 19 1 17 20
M  V30 20 1 17 21
M  V30 21 1 17 22
M  V30 22 1 18 23
M  V30 23 2 19 24
M  V30 24 2 23 25
M  V30 25 1 25 26
M  V30 26 1 9 10
M  V30 27 1 14 16
M  V30 28 1 24 25
M  V30 29 1 4 27
M  V30 30 1 4 28
M  V30 31 1 6 29
M  V30 32 1 7 30
M  V30 33 1 8 31
M  V30 34 1 9 32
M  V30 35 1 16 33
M  V30 36 1 18 34
M  V30 37 1 19 35
M  V30 38 1 23 36
M  V30 39 1 24 37
M  V30 40 1 26 38
M  V30 41 1 26 39
M  V30 42 1 26 40
M  V30 END BOND
M  V30 END CTAB
M  END
>  <Structure No>
6617

>  <LogS>
-4.74

>  <MMFF94 Energy>
62.328

$$$$
Compound 6618
Actelion Java MolfileCreator 2.0

  0  0  0  0  0  0              0 V3000
M  V30 BEGIN CTAB
M  V30 COUNTS 56 59 0 0 0
M  V30 BEGIN ATOM
M  V30 1 O 2.5343 2.6979 1.3891 0
M  V30 2 C 2.5091 1.6078 0.7552 0
M  V30 3 C 3.7613 0.8546 0.488 0
M  V30 4 C 1.227 1.0624 0.2694 0
M  V30 5 C 5.0079 1.3327 0.9633 0
M  V30 6 C 3.7132 -0.3385 -0.2925 0
M  V30 7 C 0.182 1.8686 -0.0285 0
M  V30 8 C 1.1925 -0.4481 0.1192 0 CFG=2
M  V30 9 O 5.0795 2.4701 1.7691 0
M  V30 10 C 6.1896 0.667 0.6249 0
M  V30 11 C 4.9381 -0.9405 -0.6644 0
M  V30 12 C 2.3663 -0.8987 -0.8195 0 CFG=1
M  V30 13 O 0.3171 3.2479 0.1167 0 CHG=-1
M  V30 14 C -1.1103 1.31 -0.6093 0 CFG=2
M  V30 15 C -0.2079 -1.0335 -0.2804 0 CFG=2
M  V30 16 C 6.1547 -0.4509 -0.1975 0
M  V30 17 O 2.1268 -0.3789 -2.1065 0
M  V30 18 C 2.3958 -2.4524 -0.8901 0
M  V30 19 O -0.9347 1.1084 -1.9943 0
M  V30 20 C -2.2876 2.2893 -0.428 0
M  V30 21 C -1.3784 -0.071 0.0654 0 CFG=2
M  V30 22 O -0.3843 -2.2837 0.3443 0
M  V30 23 O -2.143 3.4521 -0.7837 0
M  V30 24 C -3.6847 1.8562 -0.0022 0 CFG=1
M  V30 25 C -2.8183 -0.561 -0.293 0 CFG=2
M  V30 26 C -3.7112 0.4183 0.4581 0
M  V30 27 C -4.2219 2.796 1.0558 0
M  V30 28 N -3.0219 -2.0282 -0.0286 0
M  V30 29 O -4.274 0.1237 1.5034 0
M  V30 30 O -5.3265 3.3792 0.8716 0
M  V30 31 N -3.5005 3.0168 2.2729 0
M  V30 32 C -2.8716 -2.8036 -1.2796 0
M  V30 33 C -4.3077 -2.4171 0.5852 0
M  V30 34 H 1.4259 -0.8387 1.1367 0
M  V30 35 H 5.9639 2.8256 2.1145 0
M  V30 36 H 7.1436 1.0321 0.9839 0
M  V30 37 H 4.978 -1.79 -1.3271 0
M  V30 38 H -0.2191 -1.1951 -1.3774 0
M  V30 39 H 7.0784 -0.9397 -0.4813 0
M  V30 40 H 2.8741 -0.6644 -2.6958 0
M  V30 41 H 1.4333 -2.8651 -1.2491 0
M  V30 42 H 2.6254 -2.8845 0.1075 0
M  V30 43 H 3.1339 -2.8237 -1.6262 0
M  V30 44 H -0.6396 1.9655 -2.4002 0
M  V30 45 H -1.3374 0.0701 1.1734 0
M  V30 46 H -0.467 -2.1277 1.3217 0
M  V30 47 H -4.3393 1.9253 -0.9015 0
M  V30 48 H -3.0013 -0.359 -1.3756 0
M  V30 49 H -2.5898 2.5328 2.4507 0
M  V30 50 H -3.8848 3.6595 3.004 0
M  V30 51 H -3.7491 -2.6559 -1.948 0
M  V30 52 H -2.766 -3.8854 -1.0475 0
M  V30 53 H -1.9656 -2.5083 -1.8424 0
M  V30 54 H -5.1619 -1.8904 0.1058 0
M  V30 55 H -4.485 -3.5116 0.4974 0
M  V30 56 H -4.2783 -2.23 1.6776 0
M  V30 END ATOM
M  V30 BEGIN BOND
M  V30 1 2 1 2
M  V30 2 1 2 3
M  V30 3 1 2 4
M  V30 4 2 3 5
M  V30 5 1 3 6
M  V30 6 2 4 7
M  V30 7 1 4 8
M  V30 8 1 5 9
M  V30 9 1 5 10
M  V30 10 2 6 11
M  V30 11 1 6 12
M  V30 12 1 7 13
M  V30 13 1 7 14
M  V30 14 1 8 15
M  V30 15 2 10 16
M  V30 16 1 12 17
M  V30 17 1 12 18
M  V30 18 1 14 19
M  V30 19 1 14 20
M  V30 20 1 14 21
M  V30 21 1 15 22
M  V30 22 2 20 23
M  V30 23 1 20 24
M  V30 24 1 21 25
M  V30 25 1 24 26
M  V30 26 1 24 27
M  V30 27 1 25 28
M  V30 28 2 26 29
M  V30 29 2 27 30
M  V30 30 1 27 31
M  V30 31 1 28 32
M  V30 32 1 28 33
M  V30 33 1 8 12
M  V30 34 1 11 16
M  V30 35 1 15 21
M  V30 36 1 25 26
M  V30 37 1 8 34
M  V30 38 1 9 35
M  V30 39 1 10 36
M  V30 40 1 11 37
M  V30 41 1 15 38
M  V30 42 1 16 39
M  V30 43 1 17 40
M  V30 44 1 18 41
M  V30 45 1 18 42
M  V30 46 1 18 43
M  V30 47 1 19 44
M  V30 48 1 21 45
M  V30 49 1 22 46
M  V30 50 1 24 47
M  V30 51 1 25 48
M  V30 52 1 31 49
M  V30 53 1 31 50
M  V30 54 1 32 51
M  V30 55 1 32 52
M  V30 56 1 32 53
M  V30 57 1 33 54
M  V30 58 1 33 55
M  V30 59 1 33 56
M  V30 END BOND
M  V30 BEGIN COLLECTION
M  V30 MDLV30/STEABS ATOMS=(7 8 12 14 15 21 24 25)
M  V30 END COLLECTION
M  V30 END CTAB
M  END
>  <Structure No>
6618

>  <LogS>
-3.15

>  <MMFF94 Energy>
93.245

$$$$
Compound 6619
Actelion Java MolfileCreator 2.0

  0  0  0  0  0  0              0 V3000
M  V30 BEGIN CTAB
M  V30 COUNTS 35 38 0 0 0
M  V30 BEGIN ATOM
M  V30 1 O 0.9012 2.7875 0.6553 0
M  V30 2 C 1.5705 1.767 0.3447 0
M  V30 3 O 2.5896 1.4088 1.1186 0
M  V30 4 C 1.2452 1.0204 -0.8069 0
M  V30 5 C 3.3529 0.353 0.8633 0
M  V30 6 C 2.0408 -0.0993 -1.1169 0
M  V30 7 C 0.0711 1.4152 -1.6808 0
M  V30 8 C 3.1066 -0.4465 -0.2735 0
M  V30 9 C 4.4077 0.0349 1.7264 0
M  V30 10 O 1.7779 -0.8577 -2.2556 0 CHG=-1
M  V30 11 C -1.2485 1.1376 -0.9884 0
M  V30 12 C 3.9285 -1.5586 -0.5291 0
M  V30 13 C 5.2185 -1.0727 1.4648 0
M  V30 14 C -2.0492 2.1844 -0.4829 0
M  V30 15 C -1.7057 -0.1829 -0.826 0
M  V30 16 C 4.9796 -1.8672 0.3401 0
M  V30 17 O -1.6933 3.386 -0.613 0
M  V30 18 O -3.1949 1.9205 0.1368 0
M  V30 19 O -0.9593 -1.2483 -1.322 0 CHG=-1
M  V30 20 C -2.9194 -0.4208 -0.1647 0
M  V30 21 C -3.6519 0.6865 0.3146 0
M  V30 22 C -3.4206 -1.72 0.0308 0
M  V30 23 C -4.8668 0.4859 0.9797 0
M  V30 24 C -4.6356 -1.909 0.6968 0
M  V30 25 C -5.3569 -0.8091 1.1701 0
M  V30 26 H 0.1697 2.4892 -1.9472 0
M  V30 27 H 0.0863 0.8754 -2.6509 0
M  V30 28 H 4.5991 0.6464 2.5994 0
M  V30 29 H 3.7622 -2.1888 -1.3939 0
M  V30 30 H 6.0333 -1.3158 2.1346 0
M  V30 31 H 5.6102 -2.7241 0.1414 0
M  V30 32 H -2.879 -2.5869 -0.3267 0
M  V30 33 H -5.4313 1.3331 1.3488 0
M  V30 34 H -5.0192 -2.91 0.8465 0
M  V30 35 H -6.2968 -0.9606 1.6849 0
M  V30 END ATOM
M  V30 BEGIN BOND
M  V30 1 2 1 2
M  V30 2 1 2 3
M  V30 3 1 2 4
M  V30 4 1 3 5
M  V30 5 2 4 6
M  V30 6 1 4 7
M  V30 7 2 5 8
M  V30 8 1 5 9
M  V30 9 1 6 10
M  V30 10 1 7 11
M  V30 11 1 8 12
M  V30 12 2 9 13
M  V30 13 1 11 14
M  V30 14 2 11 15
M  V30 15 2 12 16
M  V30 16 2 14 17
M  V30 17 1 14 18
M  V30 18 1 15 19
M  V30 19 1 15 20
M  V30 20 1 18 21
M  V30 21 1 20 22
M  V30 22 1 21 23
M  V30 23 2 22 24
M  V30 24 2 23 25
M  V30 25 1 6 8
M  V30 26 1 13 16
M  V30 27 2 20 21
M  V30 28 1 24 25
M  V30 29 1 7 26
M  V30 30 1 7 27
M  V30 31 1 9 28
M  V30 32 1 12 29
M  V30 33 1 13 30
M  V30 34 1 16 31
M  V30 35 1 22 32
M  V30 36 1 23 33
M  V30 37 1 24 34
M  V30 38 1 25 35
M  V30 END BOND
M  V30 END CTAB
M  END
>  <Structure No>
6619

>  <LogS>
-4.27

>  <MMFF94 Energy>
152.91

$$$$
Compound 6620
Actelion Java MolfileCreator 2.0

  0  0  0  0  0  0              0 V3000
M  V30 BEGIN CTAB
M  V30 COUNTS 35 37 0 0 0
M  V30 BEGIN ATOM
M  V30 1 S -3.1118 1.7653 -0.336 0
M  V30 2 O -3.4316 2.7359 0.7655 0
M  V30 3 O -3.7658 2.1963 -1.6195 0
M  V30 4 N -1.401 1.6635 -0.552 0
M  V30 5 C -3.6687 0.1741 0.0842 0
M  V30 6 C -0.659 0.5453 -0.01 0
M  V30 7 C -0.7318 2.7228 -1.3117 0
M  V30 8 C -2.7385 -0.8311 0.4074 0
M  V30 9 C -5.0443 -0.0944 0.0937 0
M  V30 10 C -1.2642 -0.5842 0.4392 0
M  V30 11 C 0.8198 0.6343 0.0616 0
M  V30 12 C -3.2278 -2.113 0.736 0
M  V30 13 C -5.5079 -1.3683 0.421 0
M  V30 14 O -0.4646 -1.5905 0.9825 0 CHG=-1
M  V30 15 O 1.3481 1.6254 0.6324 0
M  V30 16 N 1.6343 -0.3855 -0.541 0
M  V30 17 C -4.6003 -2.377 0.7404 0
M  V30 18 C 3.0558 -0.5017 -0.381 0
M  V30 19 S 4.0126 0.386 0.6896 0
M  V30 20 N 3.7865 -1.4117 -1.0629 0
M  V30 21 C 5.4231 -0.4056 0.2298 0
M  V30 22 C 5.1024 -1.3642 -0.7243 0
M  V30 23 C 6.7677 -0.1961 0.8406 0
M  V30 24 H -0.1331 2.2771 -2.134 0
M  V30 25 H -0.0715 3.3121 -0.6432 0
M  V30 26 H -1.468 3.4229 -1.7588 0
M  V30 27 H -5.7561 0.6834 -0.1532 0
M  V30 28 H -2.5513 -2.9193 0.9886 0
M  V30 29 H -6.5706 -1.5736 0.4264 0
M  V30 30 H 1.1645 -1.0866 -1.1573 0
M  V30 31 H -4.9599 -3.3661 0.9936 0
M  V30 32 H 5.8314 -2.0324 -1.1631 0
M  V30 33 H 6.8613 0.8495 1.2013 0
M  V30 34 H 7.5621 -0.388 0.0891 0
M  V30 35 H 6.8971 -0.8907 1.6965 0
M  V30 END ATOM
M  V30 BEGIN BOND
M  V30 1 2 1 2
M  V30 2 2 1 3
M  V30 3 1 1 4
M  V30 4 1 1 5
M  V30 5 1 4 6
M  V30 6 1 4 7
M  V30 7 2 5 8
M  V30 8 1 5 9
M  V30 9 2 6 10
M  V30 10 1 6 11
M  V30 11 1 8 12
M  V30 12 2 9 13
M  V30 13 1 10 14
M  V30 14 2 11 15
M  V30 15 1 11 16
M  V30 16 2 12 17
M  V30 17 1 16 18
M  V30 18 1 18 19
M  V30 19 2 18 20
M  V30 20 1 19 21
M  V30 21 1 20 22
M  V30 22 1 21 23
M  V30 23 1 8 10
M  V30 24 1 13 17
M  V30 25 2 21 22
M  V30 26 1 7 24
M  V30 27 1 7 25
M  V30 28 1 7 26
M  V30 29 1 9 27
M  V30 30 1 12 28
M  V30 31 1 13 29
M  V30 32 1 16 30
M  V30 33 1 17 31
M  V30 34 1 22 32
M  V30 35 1 23 33
M  V30 36 1 23 34
M  V30 37 1 23 35
M  V30 END BOND
M  V30 END CTAB
M  END
>  <Structure No>
6620

>  <LogS>
-1.92

>  <MMFF94 Energy>
-20.698

$$$$
Compound 6621
Actelion Java MolfileCreator 2.0

  0  0  0  0  0  0              0 V3000
M  V30 BEGIN CTAB
M  V30 COUNTS 83 84 0 0 0
M  V30 BEGIN ATOM
M  V30 1 S 1.2853 -0.3212 0.7228 0
M  V30 2 C 2.7521 -0.5366 -0.3315 0
M  V30 3 C 0.0087 0.3562 -0.4448 0
M  V30 4 C 3.6156 0.569 -0.6368 0
M  V30 5 C 2.9357 -1.7812 -1.0199 0
M  V30 6 S -1.4551 -0.7742 -0.3485 0
M  V30 7 C 0.4668 0.3673 -1.9119 0
M  V30 8 C -0.3079 1.7968 -0.0141 0
M  V30 9 C 4.2857 0.5331 -1.879 0
M  V30 10 C 3.9927 1.7348 0.3264 0
M  V30 11 C 3.5857 -1.7306 -2.2715 0
M  V30 12 C 2.4923 -3.1571 -0.4336 0
M  V30 13 C -2.7733 0.2695 0.3413 0
M  V30 14 C 4.2243 -0.5798 -2.7077 0
M  V30 15 C 3.2977 1.709 1.7071 0
M  V30 16 C 3.6823 3.0969 -0.3356 0
M  V30 17 C 5.514 1.66 0.6109 0
M  V30 18 C 3.2065 -4.3494 -1.1311 0
M  V30 19 C 0.976 -3.3726 -0.6019 0
M  V30 20 C 2.8787 -3.2558 1.0634 0
M  V30 21 C -2.8776 0.448 1.7642 0
M  V30 22 C -3.5818 1.079 -0.53 0
M  V30 23 O 4.845 -0.5715 -3.9562 0
M  V30 24 C -3.4039 1.6767 2.2194 0
M  V30 25 C -2.4752 -0.5928 2.8544 0
M  V30 26 C -4.0961 2.2805 0.0035 0
M  V30 27 C -3.9982 0.7296 -1.9921 0
M  V30 28 C -3.9734 2.5931 1.3475 0
M  V30 29 C -2.1672 -2.0136 2.3189 0
M  V30 30 C -3.6503 -0.7672 3.8572 0
M  V30 31 C -1.2428 -0.0815 3.6278 0
M  V30 32 C -3.4243 1.7785 -2.969 0
M  V30 33 C -3.5711 -0.6732 -2.4876 0
M  V30 34 C -5.5473 0.7563 -2.0894 0
M  V30 35 O -4.4668 3.8093 1.8174 0
M  V30 36 H -0.3521 0.7169 -2.5685 0
M  V30 37 H 1.3252 1.0539 -2.0596 0
M  V30 38 H 0.7408 -0.6519 -2.2487 0
M  V30 39 H -0.63 1.8337 1.0448 0
M  V30 40 H -1.0923 2.2454 -0.657 0
M  V30 41 H 0.5921 2.4312 -0.1014 0
M  V30 42 H 4.8885 1.3664 -2.2102 0
M  V30 43 H 3.6322 -2.5862 -2.9262 0
M  V30 44 H 3.4124 0.7169 2.1939 0
M  V30 45 H 2.2283 1.9883 1.6286 0
M  V30 46 H 3.748 2.4615 2.3907 0
M  V30 47 H 4.342 3.2966 -1.2044 0
M  V30 48 H 3.8382 3.9304 0.3823 0
M  V30 49 H 2.6355 3.1308 -0.693 0
M  V30 50 H 6.1163 1.7936 -0.3106 0
M  V30 51 H 5.8305 2.4574 1.3174 0
M  V30 52 H 5.7778 0.6755 1.0553 0
M  V30 53 H 3.0076 -5.3057 -0.5994 0
M  V30 54 H 4.3073 -4.1966 -1.1465 0
M  V30 55 H 2.8373 -4.4945 -2.1689 0
M  V30 56 H 0.7044 -4.4395 -0.4441 0
M  V30 57 H 0.649 -3.0791 -1.6221 0
M  V30 58 H 0.3998 -2.8027 0.1455 0
M  V30 59 H 3.9651 -3.062 1.1941 0
M  V30 60 H 2.323 -2.5452 1.7012 0
M  V30 61 H 2.6531 -4.2674 1.4669 0
M  V30 62 H 5.3362 0.2447 -4.3009 0
M  V30 63 H -3.3814 1.9359 3.2683 0
M  V30 64 H -4.6149 2.9932 -0.622 0
M  V30 65 H -2.9218 -2.3274 1.5657 0
M  V30 66 H -1.1428 -2.0801 1.9024 0
M  V30 67 H -2.1824 -2.7666 3.1368 0
M  V30 68 H -3.4264 -1.5539 4.6097 0
M  V30 69 H -3.8553 0.1523 4.4413 0
M  V30 70 H -4.5784 -1.0555 3.3169 0
M  V30 71 H -0.3994 0.1069 2.9353 0
M  V30 72 H -1.4654 0.8679 4.1586 0
M  V30 73 H -0.9157 -0.8268 4.3863 0
M  V30 74 H -3.8261 2.7916 -2.7639 0
M  V30 75 H -3.6885 1.5237 -4.017 0
M  V30 76 H -2.3209 1.8264 -2.8883 0
M  V30 77 H -4.101 -0.9452 -3.4248 0
M  V30 78 H -3.8151 -1.4527 -1.7346 0
M  V30 79 H -2.4971 -0.703 -2.7572 0
M  V30 80 H -5.9905 0.0442 -1.359 0
M  V30 81 H -5.8917 0.472 -3.1073 0
M  V30 82 H -5.9677 1.7631 -1.8931 0
M  V30 83 H -4.3963 4.0678 2.7939 0
M  V30 END ATOM
M  V30 BEGIN BOND
M  V30 1 1 1 2
M  V30 2 1 1 3
M  V30 3 2 2 4
M  V30 4 1 2 5
M  V30 5 1 3 6
M  V30 6 1 3 7
M  V30 7 1 3 8
M  V30 8 1 4 9
M  V30 9 1 4 10
M  V30 10 2 5 11
M  V30 11 1 5 12
M  V30 12 1 6 13
M  V30 13 2 9 14
M  V30 14 1 10 15
M  V30 15 1 10 16
M  V30 16 1 10 17
M  V30 17 1 12 18
M  V30 18 1 12 19
M  V30 19 1 12 20
M  V30 20 2 13 21
M  V30 21 1 13 22
M  V30 22 1 14 23
M  V30 23 1 21 24
M  V30 24 1 21 25
M  V30 25 2 22 26
M  V30 26 1 22 27
M  V30 27 2 24 28
M  V30 28 1 25 29
M  V30 29 1 25 30
M  V30 30 1 25 31
M  V30 31 1 27 32
M  V30 32 1 27 33
M  V30 33 1 27 34
M  V30 34 1 28 35
M  V30 35 1 11 14
M  V30 36 1 26 28
M  V30 37 1 7 36
M  V30 38 1 7 37
M  V30 39 1 7 38
M  V30 40 1 8 39
M  V30 41 1 8 40
M  V30 42 1 8 41
M  V30 43 1 9 42
M  V30 44 1 11 43
M  V30 45 1 15 44
M  V30 46 1 15 45
M  V30 47 1 15 46
M  V30 48 1 16 47
M  V30 49 1 16 48
M  V30 50 1 16 49
M  V30 51 1 17 50
M  V30 52 1 17 51
M  V30 53 1 17 52
M  V30 54 1 18 53
M  V30 55 1 18 54
M  V30 56 1 18 55
M  V30 57 1 19 56
M  V30 58 1 19 57
M  V30 59 1 19 58
M  V30 60 1 20 59
M  V30 61 1 20 60
M  V30 62 1 20 61
M  V30 63 1 23 62
M  V30 64 1 24 63
M  V30 65 1 26 64
M  V30 66 1 29 65
M  V30 67 1 29 66
M  V30 68 1 29 67
M  V30 69 1 30 68
M  V30 70 1 30 69
M  V30 71 1 30 70
M  V30 72 1 31 71
M  V30 73 1 31 72
M  V30 74 1 31 73
M  V30 75 1 32 74
M  V30 76 1 32 75
M  V30 77 1 32 76
M  V30 78 1 33 77
M  V30 79 1 33 78
M  V30 80 1 33 79
M  V30 81 1 34 80
M  V30 82 1 34 81
M  V30 83 1 34 82
M  V30 84 1 35 83
M  V30 END BOND
M  V30 END CTAB
M  END
>  <Structure No>
6621

>  <LogS>
-8.17

>  <MMFF94 Energy>
159.87

$$$$
Compound 6622
Actelion Java MolfileCreator 2.0

  0  0  0  0  0  0              0 V3000
M  V30 BEGIN CTAB
M  V30 COUNTS 55 58 0 0 0
M  V30 BEGIN ATOM
M  V30 1 S 0.2437 -2.2764 3.7418 0
M  V30 2 C 1.3457 -1.4681 2.577 0
M  V30 3 C -0.8327 -2.9226 2.4578 0
M  V30 4 C 0.8084 -0.7035 1.5242 0
M  V30 5 C 2.7273 -1.539 2.7632 0
M  V30 6 C -1.2492 -2.0761 1.4139 0
M  V30 7 C -1.3202 -4.2317 2.5392 0
M  V30 8 N -0.6005 -0.8042 1.2265 0
M  V30 9 C 1.6787 0.0188 0.6907 0
M  V30 10 C 3.5834 -0.8178 1.9291 0
M  V30 11 C -2.1878 -2.5445 0.4796 0
M  V30 12 C -2.2513 -4.6908 1.6025 0
M  V30 13 C -1.3976 0.37 1.0149 0
M  V30 14 C 3.0647 -0.0093 0.9043 0
M  V30 15 C -2.6905 -3.8452 0.579 0
M  V30 16 O -2.1198 0.7981 1.9558 0
M  V30 17 C -1.3568 1.1087 -0.2951 0
M  V30 18 N 3.9281 0.726 0.0193 0
M  V30 19 C -2.7479 1.5732 -0.7455 0
M  V30 20 C 5.1658 1.3288 0.4219 0
M  V30 21 N -3.6131 0.4032 -1.0237 0
M  V30 22 O 5.456 1.446 1.6449 0
M  V30 23 O 6.0317 1.8214 -0.5573 0
M  V30 24 C -4.9985 0.6041 -0.5634 0
M  V30 25 C -3.5847 0.0032 -2.4496 0
M  V30 26 C 7.2557 2.4769 -0.2411 0
M  V30 27 C -5.747 1.6367 -1.4396 0
M  V30 28 C -4.6808 0.7047 -3.2797 0
M  V30 29 C 8.0014 2.8151 -1.5213 0
M  V30 30 O -5.0801 1.9108 -2.6617 0
M  V30 31 H 3.1376 -2.1366 3.5664 0
M  V30 32 H -0.9975 -4.8835 3.3408 0
M  V30 33 H 1.2914 0.5832 -0.1443 0
M  V30 34 H 4.651 -0.9041 2.0813 0
M  V30 35 H -2.4874 -1.9233 -0.3516 0
M  V30 36 H -2.632 -5.7005 1.6694 0
M  V30 37 H -3.4007 -4.2061 -0.1527 0
M  V30 38 H -0.7029 1.9989 -0.1792 0
M  V30 39 H -0.9184 0.4547 -1.0788 0
M  V30 40 H 3.5974 0.9162 -0.9548 0
M  V30 41 H -3.1757 2.2258 0.0488 0
M  V30 42 H -2.638 2.2201 -1.6449 0
M  V30 43 H -5.0177 0.9097 0.5067 0
M  V30 44 H -5.5351 -0.3685 -0.6155 0
M  V30 45 H -2.5872 0.2048 -2.8978 0
M  V30 46 H -3.7327 -1.0952 -2.5159 0
M  V30 47 H 7.8876 1.8127 0.3875 0
M  V30 48 H 7.0435 3.4117 0.3198 0
M  V30 49 H -5.8256 2.5913 -0.8739 0
M  V30 50 H -6.7864 1.2904 -1.6411 0
M  V30 51 H -4.2802 0.9362 -4.2911 0
M  V30 52 H -5.5549 0.0265 -3.4258 0
M  V30 53 H 8.9529 3.3322 -1.2758 0
M  V30 54 H 7.3814 3.4827 -2.1572 0
M  V30 55 H 8.2295 1.8856 -2.0844 0
M  V30 END ATOM
M  V30 BEGIN BOND
M  V30 1 1 1 2
M  V30 2 1 1 3
M  V30 3 2 2 4
M  V30 4 1 2 5
M  V30 5 2 3 6
M  V30 6 1 3 7
M  V30 7 1 4 8
M  V30 8 1 4 9
M  V30 9 2 5 10
M  V30 10 1 6 11
M  V30 11 2 7 12
M  V30 12 1 8 13
M  V30 13 2 9 14
M  V30 14 2 11 15
M  V30 15 2 13 16
M  V30 16 1 13 17
M  V30 17 1 14 18
M  V30 18 1 17 19
M  V30 19 1 18 20
M  V30 20 1 19 21
M  V30 21 2 20 22
M  V30 22 1 20 23
M  V30 23 1 21 24
M  V30 24 1 21 25
M  V30 25 1 23 26
M  V30 26 1 24 27
M  V30 27 1 25 28
M  V30 28 1 26 29
M  V30 29 1 27 30
M  V30 30 1 6 8
M  V30 31 1 10 14
M  V30 32 1 12 15
M  V30 33 1 28 30
M  V30 34 1 5 31
M  V30 35 1 7 32
M  V30 36 1 9 33
M  V30 37 1 10 34
M  V30 38 1 11 35
M  V30 39 1 12 36
M  V30 40 1 15 37
M  V30 41 1 17 38
M  V30 42 1 17 39
M  V30 43 1 18 40
M  V30 44 1 19 41
M  V30 45 1 19 42
M  V30 46 1 24 43
M  V30 47 1 24 44
M  V30 48 1 25 45
M  V30 49 1 25 46
M  V30 50 1 26 47
M  V30 51 1 26 48
M  V30 52 1 27 49
M  V30 53 1 27 50
M  V30 54 1 28 51
M  V30 55 1 28 52
M  V30 56 1 29 53
M  V30 57 1 29 54
M  V30 58 1 29 55
M  V30 END BOND
M  V30 END CTAB
M  END
>  <Structure No>
6622

>  <LogS>
-3.9

>  <MMFF94 Energy>
74.369

$$$$
Compound 6623
Actelion Java MolfileCreator 2.0

  0  0  0  0  0  0              0 V3000
M  V30 BEGIN CTAB
M  V30 COUNTS 44 46 0 0 0
M  V30 BEGIN ATOM
M  V30 1 Cl -4.3244 0.7474 2.0773 0
M  V30 2 C -5.3302 0.1954 0.7442 0
M  V30 3 C -5.0601 0.5766 -0.5844 0
M  V30 4 C -6.455 -0.5875 1.0297 0
M  V30 5 O -3.9427 1.3529 -0.916 0
M  V30 6 C -5.9461 0.2061 -1.6006 0
M  V30 7 C -7.3174 -1.0044 0.0012 0
M  V30 8 C -2.6134 0.9877 -0.6545 0
M  V30 9 C -7.0673 -0.5756 -1.3129 0
M  V30 10 C -8.5536 -1.8069 0.3204 0
M  V30 11 C -2.246 -0.3371 -0.358 0
M  V30 12 C -1.6241 1.9739 -0.7144 0
M  V30 13 F -8.9103 -2.6039 -0.7534 0
M  V30 14 F -8.3343 -2.6273 1.4135 0
M  V30 15 F -9.5951 -0.944 0.6066 0
M  V30 16 C -0.9085 -0.6606 -0.11 0
M  V30 17 C -0.2865 1.6533 -0.4681 0
M  V30 18 F -0.5789 -1.9454 0.1762 0
M  V30 19 C 0.0859 0.3288 -0.1778 0
M  V30 20 N 1.4537 -0.0159 0.1045 0
M  V30 21 C 2.5844 0.5851 -0.5453 0
M  V30 22 O 2.4207 1.2946 -1.5751 0
M  V30 23 N 3.9055 0.3269 -0.0451 0
M  V30 24 C 5.0945 0.9411 -0.5716 0
M  V30 25 O 5.0042 1.9289 -1.3507 0
M  V30 26 C 6.435 0.4479 -0.178 0
M  V30 27 C 7.4995 1.3542 0.0052 0
M  V30 28 C 6.6737 -0.9307 0.0 0
M  V30 29 F 7.3105 2.6896 -0.1489 0
M  V30 30 C 8.7654 0.8899 0.3763 0
M  V30 31 F 5.696 -1.8445 -0.2272 0
M  V30 32 C 7.9441 -1.3837 0.3703 0
M  V30 33 C 8.9867 -0.4755 0.561 0
M  V30 34 H -6.6618 -0.8591 2.0577 0
M  V30 35 H -5.7593 0.5191 -2.62 0
M  V30 36 H -7.7399 -0.8436 -2.1181 0
M  V30 37 H -2.9903 -1.1217 -0.3244 0
M  V30 38 H -1.8958 2.9977 -0.9384 0
M  V30 39 H 0.45 2.4455 -0.4805 0
M  V30 40 H 1.6377 -0.8028 0.7668 0
M  V30 41 H 3.9981 -0.3134 0.7747 0
M  V30 42 H 9.577 1.5908 0.5238 0
M  V30 43 H 8.1235 -2.443 0.5014 0
M  V30 44 H 9.9682 -0.8309 0.8468 0
M  V30 END ATOM
M  V30 BEGIN BOND
M  V30 1 1 1 2
M  V30 2 2 2 3
M  V30 3 1 2 4
M  V30 4 1 3 5
M  V30 5 1 3 6
M  V30 6 2 4 7
M  V30 7 1 5 8
M  V30 8 2 6 9
M  V30 9 1 7 10
M  V30 10 2 8 11
M  V30 11 1 8 12
M  V30 12 1 10 13
M  V30 13 1 10 14
M  V30 14 1 10 15
M  V30 15 1 11 16
M  V30 16 2 12 17
M  V30 17 1 16 18
M  V30 18 2 16 19
M  V30 19 1 19 20
M  V30 20 1 20 21
M  V30 21 2 21 22
M  V30 22 1 21 23
M  V30 23 1 23 24
M  V30 24 2 24 25
M  V30 25 1 24 26
M  V30 26 2 26 27
M  V30 27 1 26 28
M  V30 28 1 27 29
M  V30 29 1 27 30
M  V30 30 1 28 31
M  V30 31 2 28 32
M  V30 32 2 30 33
M  V30 33 1 7 9
M  V30 34 1 17 19
M  V30 35 1 32 33
M  V30 36 1 4 34
M  V30 37 1 6 35
M  V30 38 1 9 36
M  V30 39 1 11 37
M  V30 40 1 12 38
M  V30 41 1 17 39
M  V30 42 1 20 40
M  V30 43 1 23 41
M  V30 44 1 30 42
M  V30 45 1 32 43
M  V30 46 1 33 44
M  V30 END BOND
M  V30 END CTAB
M  END
>  <Structure No>
6623

>  <LogS>
-8.09

>  <MMFF94 Energy>
14.625

$$$$
Compound 6624
Actelion Java MolfileCreator 2.0

  0  0  0  0  0  0              0 V3000
M  V30 BEGIN CTAB
M  V30 COUNTS 44 45 0 0 0
M  V30 BEGIN ATOM
M  V30 1 S -2.4926 1.6612 -0.249 0
M  V30 2 O -2.1916 2.2383 1.106 0
M  V30 3 O -3.7578 2.288 -0.7617 0
M  V30 4 N -1.1815 2.034 -1.3202 0 CHG=-1
M  V30 5 C -2.7086 -0.0853 -0.1188 0
M  V30 6 C 0.1946 1.7515 -1.0465 0
M  V30 7 N -2.8213 -0.6086 1.1321 0
M  V30 8 C -2.6882 -0.9545 -1.2383 0
M  V30 9 O 1.0643 2.1679 -1.8561 0
M  V30 10 N 0.5844 0.9878 0.1095 0
M  V30 11 C -2.9075 -1.9443 1.3682 0
M  V30 12 C -2.5882 -0.4779 -2.637 0
M  V30 13 C -2.7722 -2.3374 -1.0051 0
M  V30 14 C 1.9418 0.8095 0.5385 0
M  V30 15 C -2.8892 -2.8337 0.2912 0
M  V30 16 C -3.0531 -2.4484 2.7739 0
M  V30 17 O -1.9949 -1.1875 -3.4961 0
M  V30 18 O -3.1884 0.7241 -3.0211 0
M  V30 19 N 2.9609 1.4862 -0.0574 0
M  V30 20 N 2.2092 -0.0245 1.5778 0
M  V30 21 F -4.3456 -2.8998 2.9694 0
M  V30 22 F -2.7877 -1.4356 3.6798 0
M  V30 23 F -2.1679 -3.4877 2.9981 0
M  V30 24 C -3.1059 1.2362 -4.3454 0
M  V30 25 C 4.2471 1.3397 0.3621 0
M  V30 26 C 3.4798 -0.204 2.0316 0
M  V30 27 O 5.2866 2.043 -0.2535 0
M  V30 28 C 4.5318 0.483 1.4249 0
M  V30 29 O 3.7437 -1.0637 3.1012 0
M  V30 30 C 5.0717 2.9478 -1.3309 0
M  V30 31 C 2.7225 -1.7957 3.7683 0
M  V30 32 H -0.1502 0.5165 0.6783 0
M  V30 33 H -2.7613 -3.0361 -1.8316 0
M  V30 34 H -2.9681 -3.9018 0.4533 0
M  V30 35 H -3.5644 0.5206 -5.0593 0
M  V30 36 H -2.0445 1.4147 -4.6183 0
M  V30 37 H -3.657 2.1974 -4.399 0
M  V30 38 H 5.5486 0.3558 1.7742 0
M  V30 39 H 4.4024 3.7727 -1.0076 0
M  V30 40 H 6.0444 3.3797 -1.6433 0
M  V30 41 H 4.6215 2.4119 -2.1934 0
M  V30 42 H 1.9753 -1.0972 4.2014 0
M  V30 43 H 2.2234 -2.4869 3.0559 0
M  V30 44 H 3.1771 -2.3898 4.5873 0
M  V30 END ATOM
M  V30 BEGIN BOND
M  V30 1 2 1 2
M  V30 2 2 1 3
M  V30 3 1 1 4
M  V30 4 1 1 5
M  V30 5 1 4 6
M  V30 6 2 5 7
M  V30 7 1 5 8
M  V30 8 2 6 9
M  V30 9 1 6 10
M  V30 10 1 7 11
M  V30 11 1 8 12
M  V30 12 2 8 13
M  V30 13 1 10 14
M  V30 14 2 11 15
M  V30 15 1 11 16
M  V30 16 2 12 17
M  V30 17 1 12 18
M  V30 18 2 14 19
M  V30 19 1 14 20
M  V30 20 1 16 21
M  V30 21 1 16 22
M  V30 22 1 16 23
M  V30 23 1 18 24
M  V30 24 1 19 25
M  V30 25 2 20 26
M  V30 26 1 25 27
M  V30 27 2 25 28
M  V30 28 1 26 29
M  V30 29 1 27 30
M  V30 30 1 29 31
M  V30 31 1 13 15
M  V30 32 1 26 28
M  V30 33 1 10 32
M  V30 34 1 13 33
M  V30 35 1 15 34
M  V30 36 1 24 35
M  V30 37 1 24 36
M  V30 38 1 24 37
M  V30 39 1 28 38
M  V30 40 1 30 39
M  V30 41 1 30 40
M  V30 42 1 30 41
M  V30 43 1 31 42
M  V30 44 1 31 43
M  V30 45 1 31 44
M  V30 END BOND
M  V30 END CTAB
M  END
>  <Structure No>
6624

>  <LogS>
-3.89

>  <MMFF94 Energy>
5.2169

$$$$
Compound 6625
Actelion Java MolfileCreator 2.0

  0  0  0  0  0  0              0 V3000
M  V30 BEGIN CTAB
M  V30 COUNTS 53 55 0 0 0
M  V30 BEGIN ATOM
M  V30 1 O -3.9613 2.4239 0.0 0
M  V30 2 C -3.1704 1.4428 -0.0603 0
M  V30 3 N -3.6327 0.1907 -0.596 0
M  V30 4 C -1.7733 1.607 0.4078 0
M  V30 5 C -5.0498 -0.0527 -0.8875 0 CFG=2
M  V30 6 C -1.0224 0.5078 0.8546 0
M  V30 7 C -1.1862 2.882 0.433 0
M  V30 8 C -5.8034 -0.1864 0.4062 0
M  V30 9 C -5.2061 -1.313 -1.7693 0
M  V30 10 C 0.2923 0.677 1.2966 0
M  V30 11 C 0.129 3.0521 0.8725 0
M  V30 12 O -5.5048 -1.0939 1.2275 0
M  V30 13 O -6.8248 0.7048 0.7102 0 CHG=-1
M  V30 14 C -6.6106 -1.4721 -2.3771 0
M  V30 15 C 0.892 1.952 1.3095 0
M  V30 16 C -7.6112 -1.9687 -1.3788 0
M  V30 17 N 2.262 2.1307 1.7541 0
M  V30 18 O -8.5829 -1.2433 -1.0395 0
M  V30 19 O -7.4743 -3.2363 -0.827 0 CHG=-1
M  V30 20 C 2.8995 1.1708 2.6699 0
M  V30 21 C 3.0685 3.242 1.2344 0
M  V30 22 C 3.5399 0.0364 1.9171 0
M  V30 23 N 3.8096 0.1539 0.5873 0
M  V30 24 C 3.904 -1.142 2.5857 0
M  V30 25 C 4.403 -0.854 -0.104 0
M  V30 26 N 4.5 -2.1511 1.896 0
M  V30 27 C 4.7558 -2.0355 0.5674 0
M  V30 28 C 4.6771 -0.7546 -1.4742 0
M  V30 29 N 5.3497 -3.0499 -0.1105 0
M  V30 30 N 5.2741 -1.7998 -2.1082 0
M  V30 31 N 4.3392 0.4201 -2.2164 0
M  V30 32 C 5.6095 -2.9379 -1.4409 0
M  V30 33 N 6.2343 -4.0133 -2.1374 0
M  V30 34 H -2.9343 -0.5528 -0.8215 0
M  V30 35 H -5.448 0.8166 -1.4563 0
M  V30 36 H -1.452 -0.4844 0.8856 0
M  V30 37 H -1.742 3.7505 0.1011 0
M  V30 38 H -4.4915 -1.2277 -2.6175 0
M  V30 39 H -4.922 -2.2268 -1.2015 0
M  V30 40 H 0.8364 -0.1992 1.6183 0
M  V30 41 H 0.5409 4.0519 0.8764 0
M  V30 42 H -6.9492 -0.5096 -2.8193 0
M  V30 43 H -6.5587 -2.2133 -3.2032 0
M  V30 44 H 3.6799 1.6805 3.2756 0
M  V30 45 H 2.1489 0.781 3.3919 0
M  V30 46 H 2.7291 4.1988 1.6831 0
M  V30 47 H 4.1442 3.1083 1.4785 0
M  V30 48 H 2.9765 3.2915 0.1284 0
M  V30 49 H 3.7144 -1.2575 3.645 0
M  V30 50 H 3.8718 1.2371 -1.7637 0
M  V30 51 H 4.5532 0.4727 -3.2368 0
M  V30 52 H 6.4366 -3.9348 -3.1585 0
M  V30 53 H 6.4977 -4.8883 -1.6319 0
M  V30 END ATOM
M  V30 BEGIN BOND
M  V30 1 2 1 2
M  V30 2 1 2 3
M  V30 3 1 2 4
M  V30 4 1 3 5
M  V30 5 2 4 6
M  V30 6 1 4 7
M  V30 7 1 5 8
M  V30 8 1 5 9
M  V30 9 1 6 10
M  V30 10 2 7 11
M  V30 11 2 8 12
M  V30 12 1 8 13
M  V30 13 1 9 14
M  V30 14 2 10 15
M  V30 15 1 14 16
M  V30 16 1 15 17
M  V30 17 2 16 18
M  V30 18 1 16 19
M  V30 19 1 17 20
M  V30 20 1 17 21
M  V30 21 1 20 22
M  V30 22 2 22 23
M  V30 23 1 22 24
M  V30 24 1 23 25
M  V30 25 2 24 26
M  V30 26 1 25 27
M  V30 27 2 25 28
M  V30 28 2 27 29
M  V30 29 1 28 30
M  V30 30 1 28 31
M  V30 31 1 29 32
M  V30 32 1 32 33
M  V30 33 1 11 15
M  V30 34 1 26 27
M  V30 35 2 30 32
M  V30 36 1 3 34
M  V30 37 1 5 35
M  V30 38 1 6 36
M  V30 39 1 7 37
M  V30 40 1 9 38
M  V30 41 1 9 39
M  V30 42 1 10 40
M  V30 43 1 11 41
M  V30 44 1 14 42
M  V30 45 1 14 43
M  V30 46 1 20 44
M  V30 47 1 20 45
M  V30 48 1 21 46
M  V30 49 1 21 47
M  V30 50 1 21 48
M  V30 51 1 24 49
M  V30 52 1 31 50
M  V30 53 1 31 51
M  V30 54 1 33 52
M  V30 55 1 33 53
M  V30 END BOND
M  V30 BEGIN COLLECTION
M  V30 MDLV30/STEABS ATOMS=(1 5)
M  V30 END COLLECTION
M  V30 END CTAB
M  END
>  <Structure No>
6625

>  <LogS>
-4.0

>  <MMFF94 Energy>
112.53

$$$$
Compound 6626
Actelion Java MolfileCreator 2.0

  0  0  0  0  0  0              0 V3000
M  V30 BEGIN CTAB
M  V30 COUNTS 36 42 0 0 0
M  V30 BEGIN ATOM
M  V30 1 C -0.9857 -0.9857 0.0 0
M  V30 2 C -1.3767 0.3666 -0.0923 0
M  V30 3 C 0.3807 -1.3189 0.1085 0
M  V30 4 C -1.9619 -2.0054 -0.016 0
M  V30 5 C -0.4013 1.3856 -0.0762 0
M  V30 6 C -2.7443 0.7002 -0.2009 0
M  V30 7 C 1.3561 -0.2999 0.1247 0
M  V30 8 C 0.772 -2.6723 0.201 0
M  V30 9 C -3.3188 -1.663 -0.1243 0
M  V30 10 C -1.5623 -3.3477 0.0764 0
M  V30 11 C 0.9651 1.0523 0.0323 0
M  V30 12 C -0.7926 2.7391 -0.1686 0
M  V30 13 C -3.7069 -0.3212 -0.2159 0
M  V30 14 C -3.1228 2.0489 -0.2922 0
M  V30 15 C 2.7237 -0.6334 0.2333 0
M  V30 16 C -0.2065 -3.6784 0.1842 0
M  V30 17 C 2.1341 -2.9932 0.3087 0
M  V30 18 C 1.9413 2.0722 0.0484 0
M  V30 19 C -2.1548 3.06 -0.2762 0
M  V30 20 C 0.1858 3.7453 -0.1517 0
M  V30 21 C 3.102 -1.982 0.3247 0
M  V30 22 C 3.6861 0.388 0.2485 0
M  V30 23 C 1.5416 3.4145 -0.0439 0
M  V30 24 C 3.2981 1.7298 0.1568 0
M  V30 25 H -4.0806 -2.4334 -0.1381 0
M  V30 26 H -2.2989 -4.1422 0.0656 0
M  V30 27 H -4.7605 -0.0821 -0.2986 0
M  V30 28 H -4.1679 2.3218 -0.376 0
M  V30 29 H 0.0769 -4.7218 0.2542 0
M  V30 30 H 2.4512 -4.0266 0.3805 0
M  V30 31 H -2.4719 4.0935 -0.3479 0
M  V30 32 H -0.0977 4.7887 -0.2216 0
M  V30 33 H 4.1471 -2.2549 0.4086 0
M  V30 34 H 4.7397 0.1491 0.3313 0
M  V30 35 H 2.2781 4.2092 -0.033 0
M  V30 36 H 4.0598 2.5004 0.1707 0
M  V30 END ATOM
M  V30 BEGIN BOND
M  V30 1 2 1 2
M  V30 2 1 1 3
M  V30 3 1 1 4
M  V30 4 1 2 5
M  V30 5 1 2 6
M  V30 6 2 3 7
M  V30 7 1 3 8
M  V30 8 1 4 9
M  V30 9 2 4 10
M  V30 10 2 5 11
M  V30 11 1 5 12
M  V30 12 1 6 13
M  V30 13 2 6 14
M  V30 14 1 7 15
M  V30 15 2 8 16
M  V30 16 1 8 17
M  V30 17 1 11 18
M  V30 18 2 12 19
M  V30 19 1 12 20
M  V30 20 1 15 21
M  V30 21 2 15 22
M  V30 22 1 18 23
M  V30 23 2 18 24
M  V30 24 1 7 11
M  V30 25 2 9 13
M  V30 26 1 10 16
M  V30 27 1 14 19
M  V30 28 2 17 21
M  V30 29 2 20 23
M  V30 30 1 22 24
M  V30 31 1 9 25
M  V30 32 1 10 26
M  V30 33 1 13 27
M  V30 34 1 14 28
M  V30 35 1 16 29
M  V30 36 1 17 30
M  V30 37 1 19 31
M  V30 38 1 20 32
M  V30 39 1 21 33
M  V30 40 1 22 34
M  V30 41 1 23 35
M  V30 42 1 24 36
M  V30 END BOND
M  V30 END CTAB
M  END
>  <Structure No>
6626

>  <LogS>
-8.83

>  <MMFF94 Energy>
96.813

$$$$
Compound 6627
Actelion Java MolfileCreator 2.0

  0  0  0  0  0  0              0 V3000
M  V30 BEGIN CTAB
M  V30 COUNTS 74 80 0 0 0
M  V30 BEGIN ATOM
M  V30 1 O -2.0394 2.856 2.4476 0
M  V30 2 C -1.3164 1.825 2.4151 0
M  V30 3 O -0.6535 1.3309 3.5236 0
M  V30 4 C -1.1111 0.9733 1.2115 0 CFG=2
M  V30 5 C 0.0891 0.1747 3.1729 0
M  V30 6 C -2.3437 0.0428 1.0519 0 CFG=2
M  V30 7 C 0.1739 0.2487 1.6394 0 CFG=1
M  V30 8 C -2.036 -1.3219 0.4671 0
M  V30 9 C -3.4194 0.7705 0.2587 0
M  V30 10 C 0.4936 -1.0847 0.9228 0 CFG=1
M  V30 11 C -0.7161 -1.8658 0.4788 0
M  V30 12 C -3.118 -2.1476 0.0647 0
M  V30 13 C -4.5579 1.269 0.909 0
M  V30 14 C -3.2786 0.9653 -1.1252 0
M  V30 15 O 1.2903 -0.8414 -0.2289 0
M  V30 16 C -0.4985 -3.1866 0.0176 0
M  V30 17 C -2.8471 -3.4378 -0.3652 0
M  V30 18 C -5.5662 1.9322 0.1863 0
M  V30 19 C -4.2811 1.6228 -1.8615 0
M  V30 20 C 2.67 -0.6753 0.0789 0 CFG=2
M  V30 21 C -1.5916 -3.9351 -0.3927 0
M  V30 22 O -3.7354 -4.4002 -0.8026 0
M  V30 23 O -6.7178 2.4388 0.8127 0
M  V30 24 C -5.4235 2.0987 -1.2027 0
M  V30 25 O -4.1805 1.819 -3.2476 0
M  V30 26 O 3.0234 0.6768 -0.1593 0
M  V30 27 C 3.5317 -1.6115 -0.8132 0 CFG=1
M  V30 28 O -1.6193 -5.2369 -0.855 0
M  V30 29 C -2.9858 -5.5792 -1.1254 0
M  V30 30 C -6.9629 2.3934 2.2149 0
M  V30 31 O -6.4125 2.7438 -1.9475 0
M  V30 32 C -3.0728 1.405 -4.0434 0
M  V30 33 C 4.3041 0.9399 0.3918 0 CFG=1
M  V30 34 O 2.8119 -2.0355 -1.9465 0
M  V30 35 C 4.8372 -0.914 -1.2675 0 CFG=2
M  V30 36 C 5.401 -0.0207 -0.1473 0 CFG=1
M  V30 37 C 4.7212 2.366 0.0699 0
M  V30 38 O 4.5962 -0.1225 -2.4069 0
M  V30 39 O 6.5249 0.6786 -0.6596 0
M  V30 40 O 5.9796 2.6262 0.6486 0
M  V30 41 C 6.9819 1.7092 0.2145 0 CFG=1
M  V30 42 C 7.7229 1.1332 1.425 0
M  V30 43 H -0.9221 1.5868 0.3021 0
M  V30 44 H -0.4671 -0.7328 3.4931 0
M  V30 45 H 1.0947 0.1992 3.643 0
M  V30 46 H -2.7465 -0.1915 2.0657 0
M  V30 47 H 1.0127 0.9528 1.4335 0
M  V30 48 H 1.0179 -1.7533 1.6456 0
M  V30 49 H -4.1426 -1.8002 0.0971 0
M  V30 50 H -4.6553 1.1309 1.9771 0
M  V30 51 H -2.3911 0.5885 -1.6196 0
M  V30 52 H 0.493 -3.6204 -0.004 0
M  V30 53 H 2.903 -0.9388 1.1424 0
M  V30 54 H 3.8238 -2.5004 -0.2032 0
M  V30 55 H -3.1158 -5.8311 -2.1979 0
M  V30 56 H -3.305 -6.425 -0.4796 0
M  V30 57 H -6.1709 2.9493 2.7588 0
M  V30 58 H -7.9438 2.8659 2.4267 0
M  V30 59 H -6.9953 1.3392 2.5627 0
M  V30 60 H -7.2618 3.1035 -1.5254 0
M  V30 61 H -3.2592 1.6873 -5.101 0
M  V30 62 H -2.1446 1.9077 -3.698 0
M  V30 63 H -2.9505 0.3025 -3.9852 0
M  V30 64 H 4.2563 0.8606 1.5033 0
M  V30 65 H 2.3114 -2.8505 -1.6844 0
M  V30 66 H 5.5993 -1.6937 -1.5057 0
M  V30 67 H 5.7314 -0.6956 0.6743 0
M  V30 68 H 3.9785 3.0713 0.5013 0
M  V30 69 H 4.7541 2.5371 -1.0301 0
M  V30 70 H 4.6977 -0.7155 -3.198 0
M  V30 71 H 7.7271 2.2979 -0.3593 0
M  V30 72 H 7.0145 0.6408 2.1224 0
M  V30 73 H 8.4825 0.3959 1.0898 0
M  V30 74 H 8.2376 1.9504 1.9752 0
M  V30 END ATOM
M  V30 BEGIN BOND
M  V30 1 2 1 2
M  V30 2 1 2 3
M  V30 3 1 2 4
M  V30 4 1 3 5
M  V30 5 1 4 6
M  V30 6 1 4 7
M  V30 7 1 6 8
M  V30 8 1 6 9
M  V30 9 1 7 10
M  V30 10 2 8 11
M  V30 11 1 8 12
M  V30 12 2 9 13
M  V30 13 1 9 14
M  V30 14 1 10 15
M  V30 15 1 11 16
M  V30 16 2 12 17
M  V30 17 1 13 18
M  V30 18 2 14 19
M  V30 19 1 15 20
M  V30 20 2 16 21
M  V30 21 1 17 22
M  V30 22 1 18 23
M  V30 23 2 18 24
M  V30 24 1 19 25
M  V30 25 1 20 26
M  V30 26 1 20 27
M  V30 27 1 21 28
M  V30 28 1 22 29
M  V30 29 1 23 30
M  V30 30 1 24 31
M  V30 31 1 25 32
M  V30 32 1 26 33
M  V30 33 1 27 34
M  V30 34 1 27 35
M  V30 35 1 33 36
M  V30 36 1 33 37
M  V30 37 1 35 38
M  V30 38 1 36 39
M  V30 39 1 37 40
M  V30 40 1 39 41
M  V30 41 1 41 42
M  V30 42 1 5 7
M  V30 43 1 10 11
M  V30 44 1 17 21
M  V30 45 1 19 24
M  V30 46 1 28 29
M  V30 47 1 35 36
M  V30 48 1 40 41
M  V30 49 1 4 43
M  V30 50 1 5 44
M  V30 51 1 5 45
M  V30 52 1 6 46
M  V30 53 1 7 47
M  V30 54 1 10 48
M  V30 55 1 12 49
M  V30 56 1 13 50
M  V30 57 1 14 51
M  V30 58 1 16 52
M  V30 59 1 20 53
M  V30 60 1 27 54
M  V30 61 1 29 55
M  V30 62 1 29 56
M  V30 63 1 30 57
M  V30 64 1 30 58
M  V30 65 1 30 59
M  V30 66 1 31 60
M  V30 67 1 32 61
M  V30 68 1 32 62
M  V30 69 1 32 63
M  V30 70 1 33 64
M  V30 71 1 34 65
M  V30 72 1 35 66
M  V30 73 1 36 67
M  V30 74 1 37 68
M  V30 75 1 37 69
M  V30 76 1 38 70
M  V30 77 1 41 71
M  V30 78 1 42 72
M  V30 79 1 42 73
M  V30 80 1 42 74
M  V30 END BOND
M  V30 BEGIN COLLECTION
M  V30 MDLV30/STEABS ATOMS=(10 4 6 7 10 20 27 33 35 36 41)
M  V30 END COLLECTION
M  V30 END CTAB
M  END
>  <Structure No>
6627

>  <LogS>
-3.47

>  <MMFF94 Energy>
146.67

$$$$
Compound 6628
Actelion Java MolfileCreator 2.0

  0  0  0  0  0  0              0 V3000
M  V30 BEGIN CTAB
M  V30 COUNTS 196 196 0 0 0
M  V30 BEGIN ATOM
M  V30 1 O -6.5752 -2.1352 -0.7113 0
M  V30 2 C -5.7799 -1.3064 -0.1948 0
M  V30 3 N -4.6381 -1.7999 0.5333 0
M  V30 4 C -6.0459 0.1905 -0.3009 0 CFG=1
M  V30 5 C -3.4931 -2.3858 -0.2024 0 CFG=1
M  V30 6 C -4.5812 -1.5423 1.9739 0
M  V30 7 N -5.0761 0.8412 -1.2056 0
M  V30 8 C -7.5138 0.6121 -0.6587 0
M  V30 9 C -2.1837 -2.2523 0.5763 0
M  V30 10 C -3.7898 -3.8086 -0.7837 0 CFG=2
M  V30 11 C -3.9708 1.5718 -0.6463 0
M  V30 12 C -4.977 0.44 -2.616 0
M  V30 13 C -8.1982 -0.134 -1.8218 0
M  V30 14 C -8.4214 0.5676 0.5837 0
M  V30 15 O -1.7444 -1.0902 0.7881 0
M  V30 16 N -1.5055 -3.3514 1.209 0
M  V30 17 O -4.782 -3.7511 -1.7766 0
M  V30 18 C -4.1485 -4.9276 0.2404 0 CFG=1
M  V30 19 O -2.8624 0.9844 -0.5302 0
M  V30 20 C -4.0117 3.0553 -0.305 0 CFG=1
M  V30 21 C -0.4755 -4.1693 0.5396 0 CFG=1
M  V30 22 C -5.5985 -4.8442 0.7923 0
M  V30 23 C -3.9175 -6.3071 -0.4081 0
M  V30 24 N -3.3035 3.8483 -1.3312 0
M  V30 25 C -5.3809 3.6592 0.1515 0
M  V30 26 C 0.7077 -3.3264 0.1012 0
M  V30 27 C 0.0203 -5.2939 1.488 0
M  V30 28 C -5.8517 -5.8488 1.8916 0
M  V30 29 C -2.2017 4.7035 -0.9625 0
M  V30 30 C -3.4755 3.5465 -2.7563 0
M  V30 31 C -6.2967 4.3468 -0.897 0
M  V30 32 O 0.5715 -2.0997 -0.1526 0
M  V30 33 N 1.9832 -3.9344 -0.1364 0
M  V30 34 C -1.0924 -6.2123 1.9927 0
M  V30 35 C -5.199 -5.7908 3.0648 0
M  V30 36 O -1.145 4.674 -1.6509 0
M  V30 37 C -2.2945 5.6418 0.2227 0 CFG=1
M  V30 38 C -7.7135 4.5177 -0.3085 0
M  V30 39 C -5.7966 5.748 -1.2942 0
M  V30 40 C 3.1001 -3.612 0.7595 0
M  V30 41 C 2.2108 -4.55 -1.4451 0
M  V30 42 C -5.4235 -6.8203 4.1284 0
M  V30 43 N -1.8316 4.9777 1.4598 0
M  V30 44 C -1.5123 6.9642 0.0085 0
M  V30 45 C 3.9273 -4.835 1.0525 0
M  V30 46 C -0.464 4.562 1.6108 0
M  V30 47 C -2.6469 5.0412 2.6777 0
M  V30 48 C -2.2185 7.9919 -0.9139 0
M  V30 49 O 3.4716 -5.6726 1.8745 0
M  V30 50 N 5.1461 -5.1338 0.3352 0
M  V30 51 O 0.3302 5.3029 2.2528 0
M  V30 52 C -0.0048 3.2011 1.1395 0 CFG=1
M  V30 53 C -1.561 9.3705 -0.7491 0
M  V30 54 C -2.1781 7.5873 -2.3962 0
M  V30 55 C 6.0759 -4.0689 -0.1083 0 CFG=2
M  V30 56 C 5.4063 -6.5465 0.0243 0
M  V30 57 N 1.4623 3.1442 1.0872 0
M  V30 58 C -0.543 2.1184 2.0758 0
M  V30 59 C 5.9581 -3.8787 -1.6073 0
M  V30 60 C 7.5307 -4.3848 0.3344 0
M  V30 61 C 2.2229 3.9306 0.1576 0
M  V30 62 O 6.4065 -4.7644 -2.3825 0
M  V30 63 N 5.22 -2.7826 -2.169 0
M  V30 64 C 8.4673 -3.1546 0.2803 0
M  V30 65 O 1.7245 4.2235 -0.9619 0
M  V30 66 C 3.5709 4.5099 0.5194 0 CFG=2
M  V30 67 C 5.5277 -1.3715 -1.8827 0 CFG=2
M  V30 68 C 8.2775 -2.2387 1.4985 0
M  V30 69 C 9.9353 -3.5999 0.2024 0
M  V30 70 N 4.6516 3.995 -0.3375 0
M  V30 71 C 3.9132 4.425 2.0115 0
M  V30 72 C 4.2606 -0.6103 -1.5215 0
M  V30 73 C 6.265 -0.703 -3.0805 0
M  V30 74 C 5.3541 2.7365 -0.2358 0
M  V30 75 O 3.1526 -1.2111 -1.5218 0
M  V30 76 N 4.2776 0.8146 -1.285 0
M  V30 77 C 7.7063 -1.2122 -3.2037 0
M  V30 78 C 5.5281 -0.8777 -4.419 0
M  V30 79 O 6.5731 2.7178 -0.5544 0
M  V30 80 C 4.6547 1.4173 0.024 0 CFG=1
M  V30 81 C 3.4178 1.5969 -2.184 0
M  V30 82 C 5.546 0.4522 0.8783 0
M  V30 83 C 5.8706 0.8184 2.3523 0
M  V30 84 C 6.7653 2.0551 2.5035 0
M  V30 85 C 4.6336 0.8442 3.2665 0
M  V30 86 H -5.861 0.5863 0.7207 0
M  V30 87 H -3.3214 -1.7439 -1.0949 0
M  V30 88 H -5.6065 -1.4417 2.3915 0
M  V30 89 H -4.0213 -0.6046 2.1682 0
M  V30 90 H -4.0881 -2.3844 2.4992 0
M  V30 91 H -7.4628 1.6677 -0.9805 0
M  V30 92 H -2.8513 -4.1206 -1.2948 0
M  V30 93 H -5.6568 1.065 -3.2296 0
M  V30 94 H -3.9393 0.5685 -2.9982 0
M  V30 95 H -5.2337 -0.63 -2.7431 0
M  V30 96 H -9.0386 0.4811 -2.2127 0
M  V30 97 H -7.508 -0.3228 -2.6627 0
M  V30 98 H -8.6308 -1.0996 -1.4879 0
M  V30 99 H -8.4678 -0.4598 0.996 0
M  V30 100 H -9.4476 0.9017 0.3243 0
M  V30 101 H -8.0398 1.2543 1.3711 0
M  V30 102 H -1.453 -3.2851 2.2511 0
M  V30 103 H -4.4232 -3.2134 -2.5274 0
M  V30 104 H -3.4612 -4.847 1.0988 0
M  V30 105 H -3.4004 3.0932 0.6222 0
M  V30 106 H -0.9085 -4.6487 -0.3602 0
M  V30 107 H -6.328 -5.0247 -0.0297 0
M  V30 108 H -5.8208 -3.8494 1.2092 0
M  V30 109 H -4.0653 -7.1254 0.3315 0
M  V30 110 H -4.6211 -6.4586 -1.2602 0
M  V30 111 H -2.8778 -6.3864 -0.7971 0
M  V30 112 H -5.1775 4.4046 0.9501 0
M  V30 113 H -5.9504 2.8625 0.6651 0
M  V30 114 H 0.7528 -5.936 0.9529 0
M  V30 115 H 0.5337 -4.8437 2.3635 0
M  V30 116 H -6.5789 -6.6392 1.7161 0
M  V30 117 H -3.3291 4.4649 -3.3638 0
M  V30 118 H -2.728 2.7861 -3.0699 0
M  V30 119 H -4.4947 3.1719 -2.9676 0
M  V30 120 H -6.3734 3.7098 -1.8033 0
M  V30 121 H -0.6512 -6.9917 2.65 0
M  V30 122 H -1.5843 -6.7229 1.1394 0
M  V30 123 H -1.8419 -5.6491 2.5873 0
M  V30 124 H -4.4811 -4.9964 3.2536 0
M  V30 125 H -3.364 5.9176 0.3355 0
M  V30 126 H -7.6708 5.0818 0.6448 0
M  V30 127 H -8.362 5.0694 -1.0191 0
M  V30 128 H -8.1946 3.5434 -0.1033 0
M  V30 129 H -6.5013 6.2173 -2.0113 0
M  V30 130 H -5.7145 6.4035 -0.3993 0
M  V30 131 H -4.8191 5.7186 -1.7965 0
M  V30 132 H 3.6956 -2.8001 0.3192 0
M  V30 133 H 2.7078 -3.2222 1.7272 0
M  V30 134 H 1.9618 -3.8265 -2.2507 0
M  V30 135 H 1.5675 -5.4484 -1.5511 0
M  V30 136 H 3.2674 -4.8577 -1.578 0
M  V30 137 H -4.7552 -6.6163 4.9917 0
M  V30 138 H -5.1955 -7.8317 3.7283 0
M  V30 139 H -6.478 -6.7907 4.4732 0
M  V30 140 H -1.3927 7.4337 1.0101 0
M  V30 141 H -0.4842 6.7565 -0.3581 0
M  V30 142 H -3.6457 5.4799 2.4839 0
M  V30 143 H -2.134 5.6716 3.4369 0
M  V30 144 H -2.7888 4.0187 3.088 0
M  V30 145 H -3.282 8.0923 -0.6053 0
M  V30 146 H -0.4028 2.9935 0.1249 0
M  V30 147 H -0.4897 9.3278 -1.042 0
M  V30 148 H -2.0742 10.1227 -1.3853 0
M  V30 149 H -1.6336 9.7101 0.3054 0
M  V30 150 H -2.8096 6.6992 -2.5763 0
M  V30 151 H -2.585 8.4023 -3.0308 0
M  V30 152 H -1.1372 7.3688 -2.7152 0
M  V30 153 H 5.7997 -3.1243 0.3896 0
M  V30 154 H 5.5587 -7.1177 0.9631 0
M  V30 155 H 4.5389 -6.9688 -0.5254 0
M  V30 156 H 6.3029 -6.6769 -0.6125 0
M  V30 157 H 1.9676 2.5128 1.7513 0
M  V30 158 H -1.6505 2.0911 2.0376 0
M  V30 159 H -0.2195 2.3112 3.1215 0
M  V30 160 H -0.1634 1.1201 1.7641 0
M  V30 161 H 7.5184 -4.7884 1.374 0
M  V30 162 H 7.9466 -5.1862 -0.3153 0
M  V30 163 H 4.5822 -2.9997 -2.9695 0
M  V30 164 H 8.252 -2.5708 -0.6383 0
M  V30 165 H 3.4803 5.6012 0.3141 0
M  V30 166 H 6.2054 -1.3364 -1.0126 0
M  V30 167 H 7.2191 -1.9458 1.6153 0
M  V30 168 H 8.5975 -2.749 2.433 0
M  V30 169 H 8.8744 -1.3094 1.3762 0
M  V30 170 H 10.6033 -2.7124 0.1572 0
M  V30 171 H 10.2075 -4.2121 1.0902 0
M  V30 172 H 10.1029 -4.202 -0.7157 0
M  V30 173 H 5.0729 4.695 -0.9922 0
M  V30 174 H 3.9956 3.3757 2.3408 0
M  V30 175 H 4.8724 4.949 2.2084 0
M  V30 176 H 3.1212 4.9239 2.6114 0
M  V30 177 H 6.3328 0.3892 -2.8796 0
M  V30 178 H 8.2837 -0.9428 -2.295 0
M  V30 179 H 8.2102 -0.7397 -4.0746 0
M  V30 180 H 7.7273 -2.3158 -3.3394 0
M  V30 181 H 5.9829 -0.215 -5.1867 0
M  V30 182 H 5.6022 -1.9247 -4.7846 0
M  V30 183 H 4.4565 -0.6093 -4.3228 0
M  V30 184 H 3.721 1.6048 0.5815 0
M  V30 185 H 3.2481 1.0659 -3.144 0
M  V30 186 H 2.4328 1.7675 -1.7026 0
M  V30 187 H 3.8908 2.566 -2.438 0
M  V30 188 H 5.0483 -0.5388 0.9225 0
M  V30 189 H 6.5189 0.3148 0.358 0
M  V30 190 H 6.4958 -0.0153 2.7334 0
M  V30 191 H 7.6529 1.9677 1.8399 0
M  V30 192 H 6.2295 2.9878 2.2606 0
M  V30 193 H 7.1309 2.1348 3.5504 0
M  V30 194 H 4.4476 -0.1754 3.6705 0
M  V30 195 H 3.7125 1.1513 2.7365 0
M  V30 196 H 4.7859 1.528 4.1327 0
M  V30 END ATOM
M  V30 BEGIN BOND
M  V30 1 2 1 2
M  V30 2 1 2 3
M  V30 3 1 2 4
M  V30 4 1 3 5
M  V30 5 1 3 6
M  V30 6 1 4 7
M  V30 7 1 4 8
M  V30 8 1 5 9
M  V30 9 1 5 10
M  V30 10 1 7 11
M  V30 11 1 7 12
M  V30 12 1 8 13
M  V30 13 1 8 14
M  V30 14 2 9 15
M  V30 15 1 9 16
M  V30 16 1 10 17
M  V30 17 1 10 18
M  V30 18 2 11 19
M  V30 19 1 11 20
M  V30 20 1 16 21
M  V30 21 1 18 22
M  V30 22 1 18 23
M  V30 23 1 20 24
M  V30 24 1 20 25
M  V30 25 1 21 26
M  V30 26 1 21 27
M  V30 27 1 22 28
M  V30 28 1 24 29
M  V30 29 1 24 30
M  V30 30 1 25 31
M  V30 31 2 26 32
M  V30 32 1 26 33
M  V30 33 1 27 34
M  V30 34 2 28 35
M  V30 35 2 29 36
M  V30 36 1 29 37
M  V30 37 1 31 38
M  V30 38 1 31 39
M  V30 39 1 33 40
M  V30 40 1 33 41
M  V30 41 1 35 42
M  V30 42 1 37 43
M  V30 43 1 37 44
M  V30 44 1 40 45
M  V30 45 1 43 46
M  V30 46 1 43 47
M  V30 47 1 44 48
M  V30 48 2 45 49
M  V30 49 1 45 50
M  V30 50 2 46 51
M  V30 51 1 46 52
M  V30 52 1 48 53
M  V30 53 1 48 54
M  V30 54 1 50 55
M  V30 55 1 50 56
M  V30 56 1 52 57
M  V30 57 1 52 58
M  V30 58 1 55 59
M  V30 59 1 55 60
M  V30 60 1 57 61
M  V30 61 2 59 62
M  V30 62 1 59 63
M  V30 63 1 60 64
M  V30 64 2 61 65
M  V30 65 1 61 66
M  V30 66 1 63 67
M  V30 67 1 64 68
M  V30 68 1 64 69
M  V30 69 1 66 70
M  V30 70 1 66 71
M  V30 71 1 67 72
M  V30 72 1 67 73
M  V30 73 1 70 74
M  V30 74 2 72 75
M  V30 75 1 72 76
M  V30 76 1 73 77
M  V30 77 1 73 78
M  V30 78 2 74 79
M  V30 79 1 74 80
M  V30 80 1 76 81
M  V30 81 1 80 82
M  V30 82 1 82 83
M  V30 83 1 83 84
M  V30 84 1 83 85
M  V30 85 1 76 80
M  V30 86 1 4 86
M  V30 87 1 5 87
M  V30 88 1 6 88
M  V30 89 1 6 89
M  V30 90 1 6 90
M  V30 91 1 8 91
M  V30 92 1 10 92
M  V30 93 1 12 93
M  V30 94 1 12 94
M  V30 95 1 12 95
M  V30 96 1 13 96
M  V30 97 1 13 97
M  V30 98 1 13 98
M  V30 99 1 14 99
M  V30 100 1 14 100
M  V30 101 1 14 101
M  V30 102 1 16 102
M  V30 103 1 17 103
M  V30 104 1 18 104
M  V30 105 1 20 105
M  V30 106 1 21 106
M  V30 107 1 22 107
M  V30 108 1 22 108
M  V30 109 1 23 109
M  V30 110 1 23 110
M  V30 111 1 23 111
M  V30 112 1 25 112
M  V30 113 1 25 113
M  V30 114 1 27 114
M  V30 115 1 27 115
M  V30 116 1 28 116
M  V30 117 1 30 117
M  V30 118 1 30 118
M  V30 119 1 30 119
M  V30 120 1 31 120
M  V30 121 1 34 121
M  V30 122 1 34 122
M  V30 123 1 34 123
M  V30 124 1 35 124
M  V30 125 1 37 125
M  V30 126 1 38 126
M  V30 127 1 38 127
M  V30 128 1 38 128
M  V30 129 1 39 129
M  V30 130 1 39 130
M  V30 131 1 39 131
M  V30 132 1 40 132
M  V30 133 1 40 133
M  V30 134 1 41 134
M  V30 135 1 41 135
M  V30 136 1 41 136
M  V30 137 1 42 137
M  V30 138 1 42 138
M  V30 139 1 42 139
M  V30 140 1 44 140
M  V30 141 1 44 141
M  V30 142 1 47 142
M  V30 143 1 47 143
M  V30 144 1 47 144
M  V30 145 1 48 145
M  V30 146 1 52 146
M  V30 147 1 53 147
M  V30 148 1 53 148
M  V30 149 1 53 149
M  V30 150 1 54 150
M  V30 151 1 54 151
M  V30 152 1 54 152
M  V30 153 1 55 153
M  V30 154 1 56 154
M  V30 155 1 56 155
M  V30 156 1 56 156
M  V30 157 1 57 157
M  V30 158 1 58 158
M  V30 159 1 58 159
M  V30 160 1 58 160
M  V30 161 1 60 161
M  V30 162 1 60 162
M  V30 163 1 63 163
M  V30 164 1 64 164
M  V30 165 1 66 165
M  V30 166 1 67 166
M  V30 167 1 68 167
M  V30 168 1 68 168
M  V30 169 1 68 169
M  V30 170 1 69 170
M  V30 171 1 69 171
M  V30 172 1 69 172
M  V30 173 1 70 173
M  V30 174 1 71 174
M  V30 175 1 71 175
M  V30 176 1 71 176
M  V30 177 1 73 177
M  V30 178 1 77 178
M  V30 179 1 77 179
M  V30 180 1 77 180
M  V30 181 1 78 181
M  V30 182 1 78 182
M  V30 183 1 78 183
M  V30 184 1 80 184
M  V30 185 1 81 185
M  V30 186 1 81 186
M  V30 187 1 81 187
M  V30 188 1 82 188
M  V30 189 1 82 189
M  V30 190 1 83 190
M  V30 191 1 84 191
M  V30 192 1 84 192
M  V30 193 1 84 193
M  V30 194 1 85 194
M  V30 195 1 85 195
M  V30 196 1 85 196
M  V30 END BOND
M  V30 BEGIN COLLECTION
M  V30 MDLV30/STEABS ATOMS=(12 4 5 10 18 20 21 37 52 55 66 67 80)
M  V30 END COLLECTION
M  V30 END CTAB
M  END
>  <Structure No>
6628

>  <LogS>
-4.64

>  <MMFF94 Energy>
321.49

$$$$
Compound 6629
Actelion Java MolfileCreator 2.0

  0  0  0  0  0  0              0 V3000
M  V30 BEGIN CTAB
M  V30 COUNTS 7 6 0 0 0
M  V30 BEGIN ATOM
M  V30 1 N 2.178 0.9329 0.0 0
M  V30 2 C 1.2103 0.2982 0.0107 0
M  V30 3 C -0.0128 -0.5057 0.0243 0
M  V30 4 C -1.1814 0.3758 0.0211 0
M  V30 5 N -2.106 1.072 0.0185 0
M  V30 6 H -0.0377 -1.1553 -0.8745 0
M  V30 7 H -0.0294 -1.1374 0.9361 0
M  V30 END ATOM
M  V30 BEGIN BOND
M  V30 1 3 1 2
M  V30 2 1 2 3
M  V30 3 1 3 4
M  V30 4 3 4 5
M  V30 5 1 3 6
M  V30 6 1 3 7
M  V30 END BOND
M  V30 END CTAB
M  END
>  <Structure No>
6629

>  <LogS>
0.25

>  <MMFF94 Energy>
MMFF94 error code 2

$$$$
Compound 6630
Actelion Java MolfileCreator 2.0

  0  0  0  0  0  0              0 V3000
M  V30 BEGIN CTAB
M  V30 COUNTS 11 10 0 0 0
M  V30 BEGIN ATOM
M  V30 1 S 0.0 -0.3305 -0.6611 0
M  V30 2 O -0.3077 0.3345 -1.9728 0
M  V30 3 O 0.2861 -1.7867 -0.895 0
M  V30 4 C 1.4226 0.4419 0.0754 0
M  V30 5 C -1.3971 -0.1685 0.4274 0
M  V30 6 H 2.2938 0.3408 -0.6037 0
M  V30 7 H 1.6517 -0.0484 1.0439 0
M  V30 8 H 1.2132 1.5177 0.2483 0
M  V30 9 H -1.6102 0.9064 0.6007 0
M  V30 10 H -1.1719 -0.6598 1.3964 0
M  V30 11 H -2.2844 -0.6504 -0.0323 0
M  V30 END ATOM
M  V30 BEGIN BOND
M  V30 1 2 1 2
M  V30 2 2 1 3
M  V30 3 1 1 4
M  V30 4 1 1 5
M  V30 5 1 4 6
M  V30 6 1 4 7
M  V30 7 1 4 8
M  V30 8 1 5 9
M  V30 9 1 5 10
M  V30 10 1 5 11
M  V30 END BOND
M  V30 END CTAB
M  END
>  <Structure No>
6630

>  <LogS>
0.2

>  <MMFF94 Energy>
4.8984

$$$$
Compound 6631
Actelion Java MolfileCreator 2.0

  0  0  0  0  0  0              0 V3000
M  V30 BEGIN CTAB
M  V30 COUNTS 13 13 0 0 0
M  V30 BEGIN ATOM
M  V30 1 F -3.016 0.0792 0.1585 0
M  V30 2 C -1.6633 0.0222 0.0864 0
M  V30 3 C -1.0342 -1.154 -0.334 0
M  V30 4 C -0.8965 1.1397 0.4325 0
M  V30 5 C 0.3612 -1.2136 -0.4086 0
M  V30 6 C 0.4989 1.0815 0.3583 0
M  V30 7 C 1.1318 -0.0971 -0.063 0
M  V30 8 O 2.5206 -0.1687 -0.1415 0
M  V30 9 H -1.6265 -2.0194 -0.602 0
M  V30 10 H -1.3822 2.0506 0.7581 0
M  V30 11 H 0.8437 -2.1261 -0.7347 0
M  V30 12 H 1.086 1.9502 0.6278 0
M  V30 13 H 3.106 0.6219 0.1017 0
M  V30 END ATOM
M  V30 BEGIN BOND
M  V30 1 1 1 2
M  V30 2 2 2 3
M  V30 3 1 2 4
M  V30 4 1 3 5
M  V30 5 2 4 6
M  V30 6 2 5 7
M  V30 7 1 7 8
M  V30 8 1 6 7
M  V30 9 1 3 9
M  V30 10 1 4 10
M  V30 11 1 5 11
M  V30 12 1 6 12
M  V30 13 1 8 13
M  V30 END BOND
M  V30 END CTAB
M  END
>  <Structure No>
6631

>  <LogS>
-0.21

>  <MMFF94 Energy>
2.0335

$$$$
Compound 6632
Actelion Java MolfileCreator 2.0

  0  0  0  0  0  0              0 V3000
M  V30 BEGIN CTAB
M  V30 COUNTS 51 51 0 0 0
M  V30 BEGIN ATOM
M  V30 1 O 4.7065 0.3132 -3.2142 0
M  V30 2 C 4.2157 0.0492 -1.9283 0
M  V30 3 C 5.3216 0.1711 -0.9133 0
M  V30 4 C 5.2192 -0.2398 0.3654 0
M  V30 5 C 3.9869 -0.8423 0.9202 0
M  V30 6 C 6.4475 -0.2386 1.2292 0
M  V30 7 C 2.8173 -0.1963 0.9242 0
M  V30 8 C 1.6111 -0.82 1.5091 0
M  V30 9 C 0.3993 -0.2327 1.5361 0
M  V30 10 C -0.7306 -1.0056 2.1113 0
M  V30 11 C 0.1973 1.1777 1.0412 0
M  V30 12 C -1.9817 -1.0558 1.6241 0
M  V30 13 C -2.4649 -0.3608 0.3978 0
M  V30 14 C -1.9391 -0.6546 -0.8278 0
M  V30 15 C -3.7664 0.4548 0.5159 0
M  V30 16 C -2.2578 0.194 -2.0404 0
M  V30 17 C -0.8868 -1.7219 -1.0256 0
M  V30 18 C -3.916 1.4517 -0.6631 0
M  V30 19 C -4.9645 -0.5237 0.5343 0
M  V30 20 C -3.8013 1.2773 1.8269 0
M  V30 21 C -3.665 0.7788 -2.009 0
M  V30 22 H 5.2294 -0.4854 -3.4885 0
M  V30 23 H 3.7669 -0.9698 -1.895 0
M  V30 24 H 3.4233 0.7911 -1.7044 0
M  V30 25 H 6.2768 0.5485 -1.2626 0
M  V30 26 H 4.0734 -1.7971 1.4271 0
M  V30 27 H 6.1782 -0.3703 2.2993 0
M  V30 28 H 6.9898 0.726 1.1291 0
M  V30 29 H 7.119 -1.0686 0.924 0
M  V30 30 H 2.764 0.7974 0.5024 0
M  V30 31 H 1.7088 -1.8277 1.9003 0
M  V30 32 H -0.517 -1.6211 2.978 0
M  V30 33 H -0.7994 1.563 1.3202 0
M  V30 34 H 0.9404 1.8596 1.5065 0
M  V30 35 H 0.3023 1.212 -0.0637 0
M  V30 36 H -2.7091 -1.6265 2.1873 0
M  V30 37 H -1.5197 1.0244 -2.0855 0
M  V30 38 H -2.1481 -0.4004 -2.9731 0
M  V30 39 H -1.0065 -2.1976 -2.0216 0
M  V30 40 H -0.9728 -2.5361 -0.2761 0
M  V30 41 H 0.125 -1.2709 -0.9829 0
M  V30 42 H -4.9326 1.9039 -0.6666 0
M  V30 43 H -3.1874 2.2863 -0.5491 0
M  V30 44 H -5.9281 0.029 0.5018 0
M  V30 45 H -4.93 -1.2227 -0.3271 0
M  V30 46 H -4.959 -1.139 1.459 0
M  V30 47 H -3.7605 0.6222 2.7223 0
M  V30 48 H -4.7425 1.866 1.889 0
M  V30 49 H -2.9549 1.9912 1.8755 0
M  V30 50 H -3.7637 1.5326 -2.8197 0
M  V30 51 H -4.4155 -0.0164 -2.2007 0
M  V30 END ATOM
M  V30 BEGIN BOND
M  V30 1 1 1 2
M  V30 2 1 2 3
M  V30 3 2 3 4
M  V30 4 1 4 5
M  V30 5 1 4 6
M  V30 6 2 5 7
M  V30 7 1 7 8
M  V30 8 2 8 9
M  V30 9 1 9 10
M  V30 10 1 9 11
M  V30 11 2 10 12
M  V30 12 1 12 13
M  V30 13 2 13 14
M  V30 14 1 13 15
M  V30 15 1 14 16
M  V30 16 1 14 17
M  V30 17 1 15 18
M  V30 18 1 15 19
M  V30 19 1 15 20
M  V30 20 1 16 21
M  V30 21 1 18 21
M  V30 22 1 1 22
M  V30 23 1 2 23
M  V30 24 1 2 24
M  V30 25 1 3 25
M  V30 26 1 5 26
M  V30 27 1 6 27
M  V30 28 1 6 28
M  V30 29 1 6 29
M  V30 30 1 7 30
M  V30 31 1 8 31
M  V30 32 1 10 32
M  V30 33 1 11 33
M  V30 34 1 11 34
M  V30 35 1 11 35
M  V30 36 1 12 36
M  V30 37 1 16 37
M  V30 38 1 16 38
M  V30 39 1 17 39
M  V30 40 1 17 40
M  V30 41 1 17 41
M  V30 42 1 18 42
M  V30 43 1 18 43
M  V30 44 1 19 44
M  V30 45 1 19 45
M  V30 46 1 19 46
M  V30 47 1 20 47
M  V30 48 1 20 48
M  V30 49 1 20 49
M  V30 50 1 21 50
M  V30 51 1 21 51
M  V30 END BOND
M  V30 END CTAB
M  END
>  <Structure No>
6632

>  <LogS>
-3.81

>  <MMFF94 Energy>
39.899

$$$$
Compound 6633
Actelion Java MolfileCreator 2.0

  0  0  0  0  0  0              0 V3000
M  V30 BEGIN CTAB
M  V30 COUNTS 12 12 0 0 0
M  V30 BEGIN ATOM
M  V30 1 O 1.0449 -2.4932 0.0 0
M  V30 2 C 0.564 -1.3297 -0.0102 0
M  V30 3 C -0.8984 -1.1317 -0.0227 0
M  V30 4 C 1.46 -0.1569 -0.0097 0
M  V30 5 C -1.4091 0.104 -0.0336 0
M  V30 6 C 0.9493 1.0787 -0.0206 0
M  V30 7 C -0.5131 1.2768 -0.0331 0
M  V30 8 O -0.994 2.4402 -0.0433 0
M  V30 9 H -1.56 -1.9889 -0.023 0
M  V30 10 H 2.5337 -0.2969 -5.0E-4 0
M  V30 11 H -2.4829 0.244 -0.0427 0
M  V30 12 H 1.6108 1.936 -0.0202 0
M  V30 END ATOM
M  V30 BEGIN BOND
M  V30 1 2 1 2
M  V30 2 1 2 3
M  V30 3 1 2 4
M  V30 4 2 3 5
M  V30 5 2 4 6
M  V30 6 1 5 7
M  V30 7 2 7 8
M  V30 8 1 6 7
M  V30 9 1 3 9
M  V30 10 1 4 10
M  V30 11 1 5 11
M  V30 12 1 6 12
M  V30 END BOND
M  V30 END CTAB
M  END
>  <Structure No>
6633

>  <LogS>
-0.89

>  <MMFF94 Energy>
-1.1112

$$$$
Compound 6634
Actelion Java MolfileCreator 2.0

  0  0  0  0  0  0              0 V3000
M  V30 BEGIN CTAB
M  V30 COUNTS 13 13 0 0 0
M  V30 BEGIN ATOM
M  V30 1 Cl -2.6823 -1.8689 -0.0812 0
M  V30 2 C -1.3101 -0.7768 -0.0479 0
M  V30 3 C -0.0088 -1.2886 0.0211 0
M  V30 4 C -1.5152 0.6071 -0.0904 0
M  V30 5 C 1.0881 -0.4191 0.0478 0
M  V30 6 C -0.4212 1.4776 -0.0639 0
M  V30 7 O 2.3779 -0.9409 0.1166 0
M  V30 8 C 0.8789 0.967 0.005 0
M  V30 9 H 0.1511 -2.359 0.0542 0
M  V30 10 H -2.5194 1.0079 -0.1439 0
M  V30 11 H -0.5809 2.5477 -0.0969 0
M  V30 12 H 3.1922 -0.3381 0.1375 0
M  V30 13 H 1.7208 1.6473 0.0251 0
M  V30 END ATOM
M  V30 BEGIN BOND
M  V30 1 1 1 2
M  V30 2 2 2 3
M  V30 3 1 2 4
M  V30 4 1 3 5
M  V30 5 2 4 6
M  V30 6 1 5 7
M  V30 7 2 5 8
M  V30 8 1 6 8
M  V30 9 1 3 9
M  V30 10 1 4 10
M  V30 11 1 6 11
M  V30 12 1 7 12
M  V30 13 1 8 13
M  V30 END BOND
M  V30 END CTAB
M  END
>  <Structure No>
6634

>  <LogS>
-0.71

>  <MMFF94 Energy>
2.3595

$$$$
Compound 6635
Actelion Java MolfileCreator 2.0

  0  0  0  0  0  0              0 V3000
M  V30 BEGIN CTAB
M  V30 COUNTS 31 30 0 0 0
M  V30 BEGIN ATOM
M  V30 1 O 3.5414 2.0449 -0.4716 0
M  V30 2 C 3.4801 0.9478 0.1458 0
M  V30 3 N 2.2355 0.2424 0.2675 0
M  V30 4 N 4.6612 0.4148 0.7437 0
M  V30 5 C 1.0277 0.6462 -0.4065 0
M  V30 6 O 1.1082 1.4252 -1.3977 0
M  V30 7 C -0.3449 0.088 -0.0203 0
M  V30 8 C -1.3587 1.2116 -0.2038 0
M  V30 9 C -0.3849 -0.3497 1.4813 0
M  V30 10 C -0.6901 -1.0906 -0.9841 0
M  V30 11 O -1.1936 2.3046 0.4079 0
M  V30 12 O -2.4805 1.0344 -1.023 0
M  V30 13 C -1.7633 -0.8064 1.9778 0
M  V30 14 C 0.245 -2.301 -0.8902 0
M  V30 15 C -3.4639 2.045 -1.2068 0
M  V30 16 H 2.2402 -0.624 0.8462 0
M  V30 17 H 4.6325 -0.4902 1.2631 0
M  V30 18 H 5.5686 0.9254 0.6656 0
M  V30 19 H 0.3165 -1.1829 1.6792 0
M  V30 20 H -0.0546 0.5003 2.1187 0
M  V30 21 H -1.7282 -1.4445 -0.808 0
M  V30 22 H -0.6592 -0.7221 -2.0339 0
M  V30 23 H -1.7017 -1.039 3.0619 0
M  V30 24 H -2.5258 -0.0116 1.8426 0
M  V30 25 H -2.0883 -1.7271 1.452 0
M  V30 26 H 1.2996 -2.0065 -1.0656 0
M  V30 27 H 0.1519 -2.8019 0.0945 0
M  V30 28 H -0.037 -3.0394 -1.67 0
M  V30 29 H -4.2481 1.6694 -1.8955 0
M  V30 30 H -2.9993 2.9513 -1.65 0
M  V30 31 H -3.9325 2.3007 -0.2329 0
M  V30 END ATOM
M  V30 BEGIN BOND
M  V30 1 2 1 2
M  V30 2 1 2 3
M  V30 3 1 2 4
M  V30 4 1 3 5
M  V30 5 2 5 6
M  V30 6 1 5 7
M  V30 7 1 7 8
M  V30 8 1 7 9
M  V30 9 1 7 10
M  V30 10 2 8 11
M  V30 11 1 8 12
M  V30 12 1 9 13
M  V30 13 1 10 14
M  V30 14 1 12 15
M  V30 15 1 3 16
M  V30 16 1 4 17
M  V30 17 1 4 18
M  V30 18 1 9 19
M  V30 19 1 9 20
M  V30 20 1 10 21
M  V30 21 1 10 22
M  V30 22 1 13 23
M  V30 23 1 13 24
M  V30 24 1 13 25
M  V30 25 1 14 26
M  V30 26 1 14 27
M  V30 27 1 14 28
M  V30 28 1 15 29
M  V30 29 1 15 30
M  V30 30 1 15 31
M  V30 END BOND
M  V30 END CTAB
M  END
>  <Structure No>
6635

>  <LogS>
-1.96

>  <MMFF94 Energy>
-101.08

$$$$
Compound 6636
Actelion Java MolfileCreator 2.0

  0  0  0  0  0  0              0 V3000
M  V30 BEGIN CTAB
M  V30 COUNTS 34 33 0 0 0
M  V30 BEGIN ATOM
M  V30 1 O -3.1467 2.1231 -2.2018 0
M  V30 2 C -2.7151 2.335 -1.0367 0
M  V30 3 N -1.6954 1.5003 -0.4662 0
M  V30 4 N -3.2544 3.416 -0.277 0
M  V30 5 C -1.0739 0.3995 -1.1557 0
M  V30 6 O -1.3435 0.1858 -2.3697 0
M  V30 7 C -0.0465 -0.4691 -0.4287 0
M  V30 8 C 1.1246 0.4202 -0.0366 0
M  V30 9 C 0.5667 -1.5696 -1.3563 0
M  V30 10 C -0.6587 -1.0879 0.8768 0
M  V30 11 O 1.439 1.4124 -0.7533 0
M  V30 12 O 1.9132 0.0799 1.0714 0
M  V30 13 C -0.3701 -2.7083 -1.7678 0
M  V30 14 C -2.1369 -1.5035 0.8022 0
M  V30 15 C 3.0965 0.7844 1.4414 0
M  V30 16 C 4.2531 0.4093 0.5223 0
M  V30 17 H -1.3941 1.7047 0.5129 0
M  V30 18 H -3.9979 4.027 -0.6827 0
M  V30 19 H -2.9131 3.6084 0.6905 0
M  V30 20 H 0.9591 -1.0925 -2.2823 0
M  V30 21 H 1.4424 -2.035 -0.8496 0
M  V30 22 H -0.5883 -0.3545 1.7113 0
M  V30 23 H -0.0567 -1.9692 1.1898 0
M  V30 24 H 0.1323 -3.3323 -2.5367 0
M  V30 25 H -1.3143 -2.3251 -2.2039 0
M  V30 26 H -0.5889 -3.3643 -0.8999 0
M  V30 27 H -2.4 -2.0815 1.7131 0
M  V30 28 H -2.7935 -0.6096 0.7717 0
M  V30 29 H -2.3572 -2.1323 -0.0789 0
M  V30 30 H 3.3631 0.5046 2.4823 0
M  V30 31 H 2.9197 1.8818 1.4136 0
M  V30 32 H 5.1787 0.9221 0.8586 0
M  V30 33 H 4.0344 0.7168 -0.5214 0
M  V30 34 H 4.4183 -0.6884 0.551 0
M  V30 END ATOM
M  V30 BEGIN BOND
M  V30 1 2 1 2
M  V30 2 1 2 3
M  V30 3 1 2 4
M  V30 4 1 3 5
M  V30 5 2 5 6
M  V30 6 1 5 7
M  V30 7 1 7 8
M  V30 8 1 7 9
M  V30 9 1 7 10
M  V30 10 2 8 11
M  V30 11 1 8 12
M  V30 12 1 9 13
M  V30 13 1 10 14
M  V30 14 1 12 15
M  V30 15 1 15 16
M  V30 16 1 3 17
M  V30 17 1 4 18
M  V30 18 1 4 19
M  V30 19 1 9 20
M  V30 20 1 9 21
M  V30 21 1 10 22
M  V30 22 1 10 23
M  V30 23 1 13 24
M  V30 24 1 13 25
M  V30 25 1 13 26
M  V30 26 1 14 27
M  V30 27 1 14 28
M  V30 28 1 14 29
M  V30 29 1 15 30
M  V30 30 1 15 31
M  V30 31 1 16 32
M  V30 32 1 16 33
M  V30 33 1 16 34
M  V30 END BOND
M  V30 END CTAB
M  END
>  <Structure No>
6636

>  <LogS>
-2.08

>  <MMFF94 Energy>
-103.63

$$$$
Compound 6637
Actelion Java MolfileCreator 2.0

  0  0  0  0  0  0              0 V3000
M  V30 BEGIN CTAB
M  V30 COUNTS 21 22 0 0 0
M  V30 BEGIN ATOM
M  V30 1 O -1.5792 0.1661 -1.8287 0
M  V30 2 C -1.9809 -0.1759 -0.6845 0
M  V30 3 O -3.2653 -0.6856 -0.5439 0 CHG=-1
M  V30 4 C -1.0797 -0.0959 0.5295 0 CFG=2
M  V30 5 C -0.1082 1.1022 0.6494 0 CFG=2
M  V30 6 C -0.0846 -1.2748 0.6679 0 CFG=2
M  V30 7 C -0.1851 2.2074 -0.3774 0
M  V30 8 C 1.2319 0.3491 0.7302 0 CFG=1
M  V30 9 O 0.897 -0.7568 1.519 0
M  V30 10 C 0.7117 -1.5185 -0.6167 0
M  V30 11 O -1.2964 2.7303 -0.6562 0
M  V30 12 O 0.9739 2.7619 -0.9079 0 CHG=-1
M  V30 13 C 1.6171 -0.2955 -0.6146 0
M  V30 14 H -1.7358 -0.0991 1.4292 0
M  V30 15 H -0.272 1.5867 1.6389 0
M  V30 16 H -0.5495 -2.1982 1.0755 0
M  V30 17 H 2.0497 0.9524 1.1797 0
M  V30 18 H 0.093 -1.6059 -1.5314 0
M  V30 19 H 1.318 -2.4447 -0.5085 0
M  V30 20 H 1.4255 0.3527 -1.494 0
M  V30 21 H 2.686 -0.6013 -0.6023 0
M  V30 END ATOM
M  V30 BEGIN BOND
M  V30 1 2 1 2
M  V30 2 1 2 3
M  V30 3 1 2 4
M  V30 4 1 4 5
M  V30 5 1 4 6
M  V30 6 1 5 7
M  V30 7 1 5 8
M  V30 8 1 6 9
M  V30 9 1 6 10
M  V30 10 2 7 11
M  V30 11 1 7 12
M  V30 12 1 8 13
M  V30 13 1 8 9
M  V30 14 1 10 13
M  V30 15 1 4 14
M  V30 16 1 5 15
M  V30 17 1 6 16
M  V30 18 1 8 17
M  V30 19 1 10 18
M  V30 20 1 10 19
M  V30 21 1 13 20
M  V30 22 1 13 21
M  V30 END BOND
M  V30 BEGIN COLLECTION
M  V30 MDLV30/STEABS ATOMS=(4 4 5 6 8)
M  V30 END COLLECTION
M  V30 END CTAB
M  END
>  <Structure No>
6637

>  <LogS>
-0.27

>  <MMFF94 Energy>
75.159

$$$$
Compound 6638
Actelion Java MolfileCreator 2.0

  0  0  0  0  0  0              0 V3000
M  V30 BEGIN CTAB
M  V30 COUNTS 20 20 0 0 0
M  V30 BEGIN ATOM
M  V30 1 O -1.3311 0.2348 0.4696 0
M  V30 2 C 0.0616 0.1433 0.3313 0
M  V30 3 C -2.2677 -0.1842 -0.5195 0
M  V30 4 C 0.6738 -0.3825 -0.8233 0
M  V30 5 C 0.8659 0.5941 1.3855 0
M  V30 6 C -3.681 0.0682 -0.0194 0
M  V30 7 C 2.0678 -0.4516 -0.9115 0
M  V30 8 C 2.2594 0.5242 1.2955 0
M  V30 9 C 2.8643 0.0018 0.1483 0
M  V30 10 O 4.2537 -0.0623 0.0713 0
M  V30 11 H -2.1063 0.3891 -1.4579 0
M  V30 12 H -2.1421 -1.27 -0.7211 0
M  V30 13 H 0.0831 -0.7395 -1.6559 0
M  V30 14 H 0.4081 1.0006 2.2785 0
M  V30 15 H -4.4144 -0.2568 -0.7873 0
M  V30 16 H -3.8603 -0.5031 0.9158 0
M  V30 17 H -3.8248 1.1511 0.1812 0
M  V30 18 H 2.5277 -0.8576 -1.8035 0
M  V30 19 H 2.8694 0.8761 2.1178 0
M  V30 20 H 4.7218 -0.4353 -0.7461 0
M  V30 END ATOM
M  V30 BEGIN BOND
M  V30 1 1 1 2
M  V30 2 1 1 3
M  V30 3 2 2 4
M  V30 4 1 2 5
M  V30 5 1 3 6
M  V30 6 1 4 7
M  V30 7 2 5 8
M  V30 8 2 7 9
M  V30 9 1 9 10
M  V30 10 1 8 9
M  V30 11 1 3 11
M  V30 12 1 3 12
M  V30 13 1 4 13
M  V30 14 1 5 14
M  V30 15 1 6 15
M  V30 16 1 6 16
M  V30 17 1 6 17
M  V30 18 1 7 18
M  V30 19 1 8 19
M  V30 20 1 10 20
M  V30 END BOND
M  V30 END CTAB
M  END
>  <Structure No>
6638

>  <LogS>
-1.29

>  <MMFF94 Energy>
6.7019

$$$$
Compound 6639
Actelion Java MolfileCreator 2.0

  0  0  0  0  0  0              0 V3000
M  V30 BEGIN CTAB
M  V30 COUNTS 14 14 0 0 0
M  V30 BEGIN ATOM
M  V30 1 O 2.6202 2.064 -0.7934 0
M  V30 2 N 2.5122 0.9343 -0.2748 0 CHG=1
M  V30 3 O 3.6435 0.2618 0.1247 0 CHG=-1
M  V30 4 C 1.2215 0.3452 -0.0993 0
M  V30 5 N 0.0682 0.943 -0.4596 0
M  V30 6 C 0.9718 -0.8866 0.4627 0
M  V30 7 C -0.8716 0.0366 -0.1124 0
M  V30 8 N -0.3567 -1.0725 0.4566 0
M  V30 9 C -2.3362 0.2775 -0.2679 0
M  V30 10 H 1.6952 -1.5902 0.8532 0
M  V30 11 H -0.878 -1.8995 0.8237 0
M  V30 12 H -2.8542 -0.6761 -0.5015 0
M  V30 13 H -2.5183 0.9966 -1.0941 0
M  V30 14 H -2.7444 0.6944 0.676 0
M  V30 END ATOM
M  V30 BEGIN BOND
M  V30 1 2 1 2
M  V30 2 1 2 3
M  V30 3 1 2 4
M  V30 4 1 4 5
M  V30 5 2 4 6
M  V30 6 2 5 7
M  V30 7 1 6 8
M  V30 8 1 7 9
M  V30 9 1 7 8
M  V30 10 1 6 10
M  V30 11 1 8 11
M  V30 12 1 9 12
M  V30 13 1 9 13
M  V30 14 1 9 14
M  V30 END BOND
M  V30 END CTAB
M  END
>  <Structure No>
6639

>  <LogS>
-1.63

>  <MMFF94 Energy>
74.373

$$$$
Compound 6640
Actelion Java MolfileCreator 2.0

  0  0  0  0  0  0              0 V3000
M  V30 BEGIN CTAB
M  V30 COUNTS 37 36 0 0 0
M  V30 BEGIN ATOM
M  V30 1 O 3.9323 1.7287 2.2006 0
M  V30 2 C 3.1327 2.2262 1.363 0
M  V30 3 N 2.0652 1.4421 0.808 0
M  V30 4 N 3.2949 3.587 0.9649 0
M  V30 5 C 1.8176 0.0631 1.1428 0
M  V30 6 O 2.5745 -0.5306 1.9604 0
M  V30 7 C 0.6668 -0.691 0.4801 0
M  V30 8 C -0.5931 0.1409 0.6552 0
M  V30 9 C 0.4402 -2.0693 1.1825 0
M  V30 10 C 0.9907 -0.8601 -1.0383 0
M  V30 11 O -0.9236 0.5372 1.8082 0
M  V30 12 O -1.4011 0.444 -0.449 0
M  V30 13 C -0.6923 -2.9133 0.5848 0
M  V30 14 C 2.2423 -1.6945 -1.3338 0
M  V30 15 C -2.6493 1.1288 -0.3509 0
M  V30 16 C -3.0376 1.6464 -1.7341 0
M  V30 17 C -3.7267 0.1849 0.1902 0
M  V30 18 H 1.4326 1.9095 0.1206 0
M  V30 19 H 2.6442 4.0198 0.2726 0
M  V30 20 H 4.068 4.1648 1.3632 0
M  V30 21 H 1.3711 -2.6753 1.1614 0
M  V30 22 H 0.2056 -1.8981 2.2569 0
M  V30 23 H 0.1325 -1.3237 -1.5701 0
M  V30 24 H 1.1335 0.1408 -1.5012 0
M  V30 25 H -0.8508 -3.8121 1.2169 0
M  V30 26 H -0.4313 -3.2598 -0.4358 0
M  V30 27 H -1.6434 -2.3422 0.5521 0
M  V30 28 H 3.1289 -1.2842 -0.8075 0
M  V30 29 H 2.0912 -2.7531 -1.0396 0
M  V30 30 H 2.447 -1.672 -2.4248 0
M  V30 31 H -2.5477 2.0032 0.3299 0
M  V30 32 H -3.9965 2.2051 -1.6823 0
M  V30 33 H -3.1453 0.8023 -2.4486 0
M  V30 34 H -2.2504 2.3331 -2.111 0
M  V30 35 H -3.8261 -0.7053 -0.4667 0
M  V30 36 H -3.4593 -0.1568 1.2117 0
M  V30 37 H -4.7052 0.7082 0.2447 0
M  V30 END ATOM
M  V30 BEGIN BOND
M  V30 1 2 1 2
M  V30 2 1 2 3
M  V30 3 1 2 4
M  V30 4 1 3 5
M  V30 5 2 5 6
M  V30 6 1 5 7
M  V30 7 1 7 8
M  V30 8 1 7 9
M  V30 9 1 7 10
M  V30 10 2 8 11
M  V30 11 1 8 12
M  V30 12 1 9 13
M  V30 13 1 10 14
M  V30 14 1 12 15
M  V30 15 1 15 16
M  V30 16 1 15 17
M  V30 17 1 3 18
M  V30 18 1 4 19
M  V30 19 1 4 20
M  V30 20 1 9 21
M  V30 21 1 9 22
M  V30 22 1 10 23
M  V30 23 1 10 24
M  V30 24 1 13 25
M  V30 25 1 13 26
M  V30 26 1 13 27
M  V30 27 1 14 28
M  V30 28 1 14 29
M  V30 29 1 14 30
M  V30 30 1 15 31
M  V30 31 1 16 32
M  V30 32 1 16 33
M  V30 33 1 16 34
M  V30 34 1 17 35
M  V30 35 1 17 36
M  V30 36 1 17 37
M  V30 END BOND
M  V30 END CTAB
M  END
>  <Structure No>
6640

>  <LogS>
-2.77

>  <MMFF94 Energy>
-98.406

$$$$
Compound 6641
Actelion Java MolfileCreator 2.0

  0  0  0  0  0  0              0 V3000
M  V30 BEGIN CTAB
M  V30 COUNTS 35 34 0 0 0
M  V30 BEGIN ATOM
M  V30 1 O -3.4654 2.0466 -0.3146 0
M  V30 2 C -2.7537 1.8976 0.7146 0
M  V30 3 N -1.6741 0.9512 0.7323 0
M  V30 4 N -3.0331 2.677 1.877 0
M  V30 5 C -1.2899 0.1434 -0.396 0
M  V30 6 O -1.8456 0.3219 -1.5146 0
M  V30 7 C -0.1689 -0.8843 -0.2463 0
M  V30 8 C 1.1001 -0.1257 0.1139 0
M  V30 9 C 0.1532 -1.613 -1.5929 0
M  V30 10 C -0.4911 -1.9033 0.9034 0
M  V30 11 O 2.0377 -0.7146 0.7227 0
M  V30 12 O 1.2684 1.1993 -0.3115 0
M  V30 13 C -0.9116 -2.5841 -2.1092 0
M  V30 14 C -1.9651 -2.3133 1.0539 0
M  V30 15 C 2.4462 1.9546 -0.0501 0
M  V30 16 O 3.5342 1.3777 -0.7399 0
M  V30 17 C 4.7054 2.11 -0.459 0
M  V30 18 H -1.1398 0.8432 1.6234 0
M  V30 19 H -3.8197 3.3639 1.8757 0
M  V30 20 H -2.4557 2.5704 2.74 0
M  V30 21 H 1.097 -2.193 -1.4839 0
M  V30 22 H 0.3428 -0.8539 -2.3848 0
M  V30 23 H -0.19 -1.4728 1.8847 0
M  V30 24 H 0.1206 -2.822 0.7689 0
M  V30 25 H -0.6375 -2.9128 -3.1338 0
M  V30 26 H -1.9111 -2.1075 -2.1603 0
M  V30 27 H -0.9531 -3.4904 -1.4701 0
M  V30 28 H -2.0376 -3.1494 1.7811 0
M  V30 29 H -2.5681 -1.4706 1.4509 0
M  V30 30 H -2.4115 -2.6494 0.1007 0
M  V30 31 H 2.6259 1.9727 1.0495 0
M  V30 32 H 2.2692 2.9943 -0.4049 0
M  V30 33 H 5.5494 1.6528 -1.0151 0
M  V30 34 H 4.6128 3.1658 -0.7982 0
M  V30 35 H 4.9559 2.0689 0.6246 0
M  V30 END ATOM
M  V30 BEGIN BOND
M  V30 1 2 1 2
M  V30 2 1 2 3
M  V30 3 1 2 4
M  V30 4 1 3 5
M  V30 5 2 5 6
M  V30 6 1 5 7
M  V30 7 1 7 8
M  V30 8 1 7 9
M  V30 9 1 7 10
M  V30 10 2 8 11
M  V30 11 1 8 12
M  V30 12 1 9 13
M  V30 13 1 10 14
M  V30 14 1 12 15
M  V30 15 1 15 16
M  V30 16 1 16 17
M  V30 17 1 3 18
M  V30 18 1 4 19
M  V30 19 1 4 20
M  V30 20 1 9 21
M  V30 21 1 9 22
M  V30 22 1 10 23
M  V30 23 1 10 24
M  V30 24 1 13 25
M  V30 25 1 13 26
M  V30 26 1 13 27
M  V30 27 1 14 28
M  V30 28 1 14 29
M  V30 29 1 14 30
M  V30 30 1 15 31
M  V30 31 1 15 32
M  V30 32 1 17 33
M  V30 33 1 17 34
M  V30 34 1 17 35
M  V30 END BOND
M  V30 END CTAB
M  END
>  <Structure No>
6641

>  <LogS>
-2.17

>  <MMFF94 Energy>
-127.16

$$$$
Compound 6642
Actelion Java MolfileCreator 2.0

  0  0  0  0  0  0              0 V3000
M  V30 BEGIN CTAB
M  V30 COUNTS 16 16 0 0 0
M  V30 BEGIN ATOM
M  V30 1 S 2.24 -2.0798 0.7995 0
M  V30 2 C 1.7801 -0.6025 0.2512 0
M  V30 3 N 2.7915 0.3589 -0.0647 0
M  V30 4 C 0.3417 -0.2631 0.1091 0
M  V30 5 C -0.1008 1.0567 0.3184 0
M  V30 6 C -0.6046 -1.2494 -0.2328 0
M  V30 7 C -1.4546 1.3808 0.185 0
M  V30 8 C -1.9567 -0.9191 -0.3659 0
M  V30 9 C -2.3813 0.3945 -0.1578 0
M  V30 10 H 3.8 0.1388 0.0931 0
M  V30 11 H 2.5525 1.2673 -0.5195 0
M  V30 12 H 0.593 1.8356 0.607 0
M  V30 13 H -0.2998 -2.2724 -0.4128 0
M  V30 14 H -1.7857 2.3976 0.3522 0
M  V30 15 H -2.6758 -1.6826 -0.6334 0
M  V30 16 H -3.4286 0.6478 -0.2607 0
M  V30 END ATOM
M  V30 BEGIN BOND
M  V30 1 2 1 2
M  V30 2 1 2 3
M  V30 3 1 2 4
M  V30 4 2 4 5
M  V30 5 1 4 6
M  V30 6 1 5 7
M  V30 7 2 6 8
M  V30 8 2 7 9
M  V30 9 1 8 9
M  V30 10 1 3 10
M  V30 11 1 3 11
M  V30 12 1 5 12
M  V30 13 1 6 13
M  V30 14 1 7 14
M  V30 15 1 8 15
M  V30 16 1 9 16
M  V30 END BOND
M  V30 END CTAB
M  END
>  <Structure No>
6642

>  <LogS>
-1.92

>  <MMFF94 Energy>
17.094

$$$$
Compound 6643
Actelion Java MolfileCreator 2.0

  0  0  0  0  0  0              0 V3000
M  V30 BEGIN CTAB
M  V30 COUNTS 31 31 0 0 0
M  V30 BEGIN ATOM
M  V30 1 Cl 3.231 0.4841 2.5841 0
M  V30 2 C 4.4112 -0.1329 1.3985 0
M  V30 3 C 4.0218 0.2551 -0.0285 0
M  V30 4 N 2.7831 -0.4233 -0.4407 0
M  V30 5 N 2.8211 -1.7669 -0.8565 0
M  V30 6 C 1.51 0.2493 -0.3688 0
M  V30 7 O 3.8947 -2.4003 -0.9267 0
M  V30 8 O 1.4558 1.4589 -0.0136 0
M  V30 9 N 0.2961 -0.4463 -0.6995 0
M  V30 10 C -1.0229 0.1803 -0.5579 0
M  V30 11 C -2.0939 -0.6439 -1.2943 0
M  V30 12 C -1.3809 0.3416 0.9411 0
M  V30 13 C -3.4761 0.0388 -1.2402 0
M  V30 14 C -2.8985 0.3411 1.2174 0
M  V30 15 C -3.6916 0.8894 0.0276 0
M  V30 16 H 4.4796 -1.2368 1.4936 0
M  V30 17 H 5.4051 0.3004 1.6372 0
M  V30 18 H 4.8458 -0.0287 -0.7177 0
M  V30 19 H 3.9202 1.3592 -0.1027 0
M  V30 20 H 0.3544 -1.4226 -1.0666 0
M  V30 21 H -0.9922 1.1861 -1.0352 0
M  V30 22 H -2.1638 -1.6515 -0.8273 0
M  V30 23 H -1.7978 -0.7847 -2.3567 0
M  V30 24 H -0.9197 -0.4791 1.5332 0
M  V30 25 H -0.9466 1.2963 1.3097 0
M  V30 26 H -4.2619 -0.7456 -1.2958 0
M  V30 27 H -3.5994 0.6928 -2.1309 0
M  V30 28 H -3.2374 -0.6973 1.4275 0
M  V30 29 H -3.1121 0.9522 2.1208 0
M  V30 30 H -4.7738 0.9123 0.2798 0
M  V30 31 H -3.3703 1.9363 -0.1675 0
M  V30 END ATOM
M  V30 BEGIN BOND
M  V30 1 1 1 2
M  V30 2 1 2 3
M  V30 3 1 3 4
M  V30 4 1 4 5
M  V30 5 1 4 6
M  V30 6 2 5 7
M  V30 7 2 6 8
M  V30 8 1 6 9
M  V30 9 1 9 10
M  V30 10 1 10 11
M  V30 11 1 10 12
M  V30 12 1 11 13
M  V30 13 1 12 14
M  V30 14 1 13 15
M  V30 15 1 14 15
M  V30 16 1 2 16
M  V30 17 1 2 17
M  V30 18 1 3 18
M  V30 19 1 3 19
M  V30 20 1 9 20
M  V30 21 1 10 21
M  V30 22 1 11 22
M  V30 23 1 11 23
M  V30 24 1 12 24
M  V30 25 1 12 25
M  V30 26 1 13 26
M  V30 27 1 13 27
M  V30 28 1 14 28
M  V30 29 1 14 29
M  V30 30 1 15 30
M  V30 31 1 15 31
M  V30 END BOND
M  V30 END CTAB
M  END
>  <Structure No>
6643

>  <LogS>
-3.37

>  <MMFF94 Energy>
-36.077

$$$$
Compound 6644
Actelion Java MolfileCreator 2.0

  0  0  0  0  0  0              0 V3000
M  V30 BEGIN CTAB
M  V30 COUNTS 33 32 0 0 0
M  V30 BEGIN ATOM
M  V30 1 O 3.6177 0.157 2.1222 0
M  V30 2 C 3.5258 -0.0064 0.8759 0
M  V30 3 N 2.244 -0.1576 0.2468 0
M  V30 4 N 4.7126 -0.0273 0.0838 0
M  V30 5 C 1.0006 -0.2256 0.9709 0
M  V30 6 O 1.0162 -0.4162 2.2189 0
M  V30 7 C -0.3352 -0.1946 0.2324 0
M  V30 8 C -0.2446 0.7735 -0.9446 0
M  V30 9 C -1.4988 0.2291 1.191 0
M  V30 10 C -0.6024 -1.6432 -0.2739 0
M  V30 11 O -0.4031 2.0127 -0.7641 0
M  V30 12 O 0.0877 0.2983 -2.2192 0
M  V30 13 C -1.2524 1.511 1.9541 0
M  V30 14 C -1.8975 -1.7854 -1.0396 0
M  V30 15 C 0.2221 1.1531 -3.3476 0
M  V30 16 C -2.1762 2.0005 2.7845 0
M  V30 17 C -2.9923 -2.3128 -0.4835 0
M  V30 18 H 2.2265 -0.234 -0.7939 0
M  V30 19 H 5.6485 0.087 0.5324 0
M  V30 20 H 4.6592 -0.1578 -0.9506 0
M  V30 21 H -2.435 0.3536 0.6031 0
M  V30 22 H -1.681 -0.5795 1.9333 0
M  V30 23 H -0.5952 -2.3488 0.5878 0
M  V30 24 H 0.2245 -1.9707 -0.9415 0
M  V30 25 H -0.3162 2.0501 1.8427 0
M  V30 26 H -1.9517 -1.42 -2.0604 0
M  V30 27 H 1.0292 1.8947 -3.1682 0
M  V30 28 H -0.7364 1.6796 -3.5416 0
M  V30 29 H 0.4844 0.544 -4.2366 0
M  V30 30 H -3.1244 1.4907 2.9272 0
M  V30 31 H -1.9857 2.92 3.3285 0
M  V30 32 H -2.9844 -2.67 0.5417 0
M  V30 33 H -3.9108 -2.3844 -1.0568 0
M  V30 END ATOM
M  V30 BEGIN BOND
M  V30 1 2 1 2
M  V30 2 1 2 3
M  V30 3 1 2 4
M  V30 4 1 3 5
M  V30 5 2 5 6
M  V30 6 1 5 7
M  V30 7 1 7 8
M  V30 8 1 7 9
M  V30 9 1 7 10
M  V30 10 2 8 11
M  V30 11 1 8 12
M  V30 12 1 9 13
M  V30 13 1 10 14
M  V30 14 1 12 15
M  V30 15 2 13 16
M  V30 16 2 14 17
M  V30 17 1 3 18
M  V30 18 1 4 19
M  V30 19 1 4 20
M  V30 20 1 9 21
M  V30 21 1 9 22
M  V30 22 1 10 23
M  V30 23 1 10 24
M  V30 24 1 13 25
M  V30 25 1 14 26
M  V30 26 1 15 27
M  V30 27 1 15 28
M  V30 28 1 15 29
M  V30 29 1 16 30
M  V30 30 1 16 31
M  V30 31 1 17 32
M  V30 32 1 17 33
M  V30 END BOND
M  V30 END CTAB
M  END
>  <Structure No>
6644

>  <LogS>
-2.17

>  <MMFF94 Energy>
-87.057

$$$$
Compound 6645
Actelion Java MolfileCreator 2.0

  0  0  0  0  0  0              0 V3000
M  V30 BEGIN CTAB
M  V30 COUNTS 19 19 0 0 0
M  V30 BEGIN ATOM
M  V30 1 Cl 0.6433 -2.6557 -0.6433 0
M  V30 2 C 0.2829 -0.9751 -0.2276 0
M  V30 3 C 1.3308 -0.0876 0.1011 0
M  V30 4 C -1.053 -0.5182 -0.2238 0
M  V30 5 C 1.0323 1.2443 0.4294 0
M  V30 6 C 2.7625 -0.5504 0.1041 0
M  V30 7 C -1.3267 0.8182 0.1079 0
M  V30 8 C -2.1869 -1.4447 -0.5703 0
M  V30 9 C -0.288 1.6965 0.4334 0
M  V30 10 O -0.5579 3.0232 0.7629 0
M  V30 11 H 1.8255 1.937 0.6838 0
M  V30 12 H 2.8882 -1.3757 0.8362 0
M  V30 13 H 3.4591 0.2685 0.3836 0
M  V30 14 H 3.042 -0.9114 -0.9078 0
M  V30 15 H -2.3476 1.1807 0.1145 0
M  V30 16 H -2.2064 -2.2963 0.1418 0
M  V30 17 H -2.0526 -1.832 -1.6021 0
M  V30 18 H -3.1698 -0.9293 -0.5197 0
M  V30 19 H -1.5047 3.3845 0.7757 0
M  V30 END ATOM
M  V30 BEGIN BOND
M  V30 1 1 1 2
M  V30 2 2 2 3
M  V30 3 1 2 4
M  V30 4 1 3 5
M  V30 5 1 3 6
M  V30 6 2 4 7
M  V30 7 1 4 8
M  V30 8 2 5 9
M  V30 9 1 9 10
M  V30 10 1 7 9
M  V30 11 1 5 11
M  V30 12 1 6 12
M  V30 13 1 6 13
M  V30 14 1 6 14
M  V30 15 1 7 15
M  V30 16 1 8 16
M  V30 17 1 8 17
M  V30 18 1 8 18
M  V30 19 1 10 19
M  V30 END BOND
M  V30 END CTAB
M  END
>  <Structure No>
6645

>  <LogS>
-2.67

>  <MMFF94 Energy>
12.066

$$$$
Compound 6646
Actelion Java MolfileCreator 2.0

  0  0  0  0  0  0              0 V3000
M  V30 BEGIN CTAB
M  V30 COUNTS 20 20 0 0 0
M  V30 BEGIN ATOM
M  V30 1 O 1.2567 0.2355 -1.9641 0
M  V30 2 C 0.872 0.1006 -0.7699 0
M  V30 3 N 1.8478 -0.0375 0.2751 0
M  V30 4 C -0.5804 0.1066 -0.4697 0
M  V30 5 C 3.2677 -0.1925 -0.0259 0
M  V30 6 C -1.4792 0.7268 -1.3583 0
M  V30 7 C -1.0899 -0.522 0.6829 0
M  V30 8 O 3.9961 -0.2941 1.1659 0
M  V30 9 C -2.8514 0.7347 -1.089 0
M  V30 10 C -2.4635 -0.5118 0.9463 0
M  V30 11 C -3.3429 0.118 0.0633 0
M  V30 12 H 1.5516 0.0193 1.2751 0
M  V30 13 H 3.4147 -1.1132 -0.6334 0
M  V30 14 H 3.6199 0.6902 -0.6047 0
M  V30 15 H -1.12 1.2152 -2.2557 0
M  V30 16 H -0.4377 -1.0438 1.37 0
M  V30 17 H 4.9464 -0.3981 0.8991 0
M  V30 18 H -3.5342 1.2196 -1.7749 0
M  V30 19 H -2.8471 -0.9992 1.8335 0
M  V30 20 H -4.4056 0.1238 0.2693 0
M  V30 END ATOM
M  V30 BEGIN BOND
M  V30 1 2 1 2
M  V30 2 1 2 3
M  V30 3 1 2 4
M  V30 4 1 3 5
M  V30 5 2 4 6
M  V30 6 1 4 7
M  V30 7 1 5 8
M  V30 8 1 6 9
M  V30 9 2 7 10
M  V30 10 2 9 11
M  V30 11 1 10 11
M  V30 12 1 3 12
M  V30 13 1 5 13
M  V30 14 1 5 14
M  V30 15 1 6 15
M  V30 16 1 7 16
M  V30 17 1 8 17
M  V30 18 1 9 18
M  V30 19 1 10 19
M  V30 20 1 11 20
M  V30 END BOND
M  V30 END CTAB
M  END
>  <Structure No>
6646

>  <LogS>
-0.52

>  <MMFF94 Energy>
-32.593

$$$$
Compound 6647
Actelion Java MolfileCreator 2.0

  0  0  0  0  0  0              0 V3000
M  V30 BEGIN CTAB
M  V30 COUNTS 17 17 0 0 0
M  V30 BEGIN ATOM
M  V30 1 O 2.616 1.5055 -0.3168 0
M  V30 2 N 2.537 0.2723 -0.1472 0 CHG=1
M  V30 3 O 3.6948 -0.467 -0.0804 0 CHG=-1
M  V30 4 C 1.2644 -0.3812 -0.0217 0
M  V30 5 N 0.0564 0.2191 -0.0682 0
M  V30 6 C 1.0846 -1.7334 0.1668 0
M  V30 7 C -0.8303 -0.7916 0.0945 0
M  V30 8 C -0.2327 1.6421 -0.2527 0
M  V30 9 N -0.2349 -1.9964 0.2407 0
M  V30 10 C -2.3172 -0.6229 0.1147 0
M  V30 11 H 1.8603 -2.4833 0.2461 0
M  V30 12 H -1.3244 1.8368 -0.2475 0
M  V30 13 H 0.1739 1.9839 -1.2273 0
M  V30 14 H 0.226 2.2278 0.5711 0
M  V30 15 H -2.6065 0.0514 0.9475 0
M  V30 16 H -2.6585 -0.1923 -0.8494 0
M  V30 17 H -2.8135 -1.605 0.2623 0
M  V30 END ATOM
M  V30 BEGIN BOND
M  V30 1 2 1 2
M  V30 2 1 2 3
M  V30 3 1 2 4
M  V30 4 1 4 5
M  V30 5 2 4 6
M  V30 6 1 5 7
M  V30 7 1 5 8
M  V30 8 1 6 9
M  V30 9 1 7 10
M  V30 10 2 7 9
M  V30 11 1 6 11
M  V30 12 1 8 12
M  V30 13 1 8 13
M  V30 14 1 8 14
M  V30 15 1 10 15
M  V30 16 1 10 16
M  V30 17 1 10 17
M  V30 END BOND
M  V30 END CTAB
M  END
>  <Structure No>
6647

>  <LogS>
-1.16

>  <MMFF94 Energy>
4.523

$$$$
Compound 6648
Actelion Java MolfileCreator 2.0

  0  0  0  0  0  0              0 V3000
M  V30 BEGIN CTAB
M  V30 COUNTS 20 20 0 0 0
M  V30 BEGIN ATOM
M  V30 1 O 4.1438 0.1591 1.3532 0
M  V30 2 C 3.5143 0.6357 0.3715 0
M  V30 3 O 4.1746 1.4948 -0.4992 0 CHG=-1
M  V30 4 C 2.094 0.2871 0.1474 0
M  V30 5 C 1.396 0.8233 -0.9482 0
M  V30 6 C 1.4206 -0.5797 1.0266 0
M  V30 7 C 0.0539 0.4962 -1.1627 0
M  V30 8 C 0.0786 -0.9059 0.8109 0
M  V30 9 C -0.6107 -0.3793 -0.2914 0
M  V30 10 C -2.0647 -0.7046 -0.5042 0
M  V30 11 C -2.9545 0.2997 0.2204 0
M  V30 12 H 1.8848 1.4984 -1.6391 0
M  V30 13 H 1.9293 -1.0039 1.8832 0
M  V30 14 H -0.4679 0.9272 -2.0081 0
M  V30 15 H -0.424 -1.5685 1.5047 0
M  V30 16 H -2.2866 -1.7276 -0.13 0
M  V30 17 H -2.3048 -0.6906 -1.5896 0
M  V30 18 H -2.7524 0.2761 1.3126 0
M  V30 19 H -2.7709 1.3256 -0.1645 0
M  V30 20 H -4.0211 0.042 0.0507 0
M  V30 END ATOM
M  V30 BEGIN BOND
M  V30 1 2 1 2
M  V30 2 1 2 3
M  V30 3 1 2 4
M  V30 4 2 4 5
M  V30 5 1 4 6
M  V30 6 1 5 7
M  V30 7 2 6 8
M  V30 8 2 7 9
M  V30 9 1 9 10
M  V30 10 1 10 11
M  V30 11 1 8 9
M  V30 12 1 5 12
M  V30 13 1 6 13
M  V30 14 1 7 14
M  V30 15 1 8 15
M  V30 16 1 10 16
M  V30 17 1 10 17
M  V30 18 1 11 18
M  V30 19 1 11 19
M  V30 20 1 11 20
M  V30 END BOND
M  V30 END CTAB
M  END
>  <Structure No>
6648

>  <LogS>
-2.52

>  <MMFF94 Energy>
39.19

$$$$
Compound 6649
Actelion Java MolfileCreator 2.0

  0  0  0  0  0  0              0 V3000
M  V30 BEGIN CTAB
M  V30 COUNTS 20 20 0 0 0
M  V30 BEGIN ATOM
M  V30 1 O 4.4342 0.2371 0.1581 0
M  V30 2 N 3.3501 0.2016 0.7756 0 CHG=1
M  V30 3 O 3.3526 0.2339 2.1505 0 CHG=-1
M  V30 4 C 2.1115 0.1279 0.0651 0
M  V30 5 N 0.9068 0.0865 0.667 0
M  V30 6 C 1.968 0.0893 -1.3041 0
M  V30 7 C 0.0415 0.0224 -0.3704 0
M  V30 8 N 0.6553 0.0226 -1.5724 0
M  V30 9 C -1.4521 -0.0424 -0.2019 0
M  V30 10 C -1.8482 -1.3062 0.5667 0
M  V30 11 C -1.9645 1.2138 0.5079 0
M  V30 12 H 2.7532 0.1082 -2.0486 0
M  V30 13 H 0.2088 -0.0199 -2.5154 0
M  V30 14 H -1.9271 -0.0878 -1.2068 0
M  V30 15 H -1.481 -2.2082 0.0317 0
M  V30 16 H -2.9545 -1.3748 0.6441 0
M  V30 17 H -1.4183 -1.2965 1.5917 0
M  V30 18 H -1.6807 2.12 -0.0693 0
M  V30 19 H -1.5376 1.2917 1.5312 0
M  V30 20 H -3.0724 1.1841 0.5843 0
M  V30 END ATOM
M  V30 BEGIN BOND
M  V30 1 2 1 2
M  V30 2 1 2 3
M  V30 3 1 2 4
M  V30 4 1 4 5
M  V30 5 2 4 6
M  V30 6 2 5 7
M  V30 7 1 6 8
M  V30 8 1 7 9
M  V30 9 1 9 10
M  V30 10 1 9 11
M  V30 11 1 7 8
M  V30 12 1 6 12
M  V30 13 1 8 13
M  V30 14 1 9 14
M  V30 15 1 10 15
M  V30 16 1 10 16
M  V30 17 1 10 17
M  V30 18 1 11 18
M  V30 19 1 11 19
M  V30 20 1 11 20
M  V30 END BOND
M  V30 END CTAB
M  END
>  <Structure No>
6649

>  <LogS>
-1.15

>  <MMFF94 Energy>
75.386

$$$$
Compound 6650
Actelion Java MolfileCreator 2.0

  0  0  0  0  0  0              0 V3000
M  V30 BEGIN CTAB
M  V30 COUNTS 20 20 0 0 0
M  V30 BEGIN ATOM
M  V30 1 O -3.4642 -0.3145 -1.5734 0
M  V30 2 C -2.8683 -0.3419 -0.4628 0
M  V30 3 N -3.6297 -0.59 0.7222 0
M  V30 4 C -1.4053 -0.1015 -0.4092 0
M  V30 5 C -0.767 0.5792 -1.4608 0
M  V30 6 C -0.6289 -0.5631 0.669 0
M  V30 7 C 0.6109 0.8092 -1.4254 0
M  V30 8 C 0.7499 -0.3328 0.7017 0
M  V30 9 C 1.3803 0.3594 -0.348 0
M  V30 10 O 2.7592 0.6162 -0.3598 0
M  V30 11 C 3.6599 0.217 0.668 0
M  V30 12 H -4.6469 -0.8144 0.649 0
M  V30 13 H -3.2216 -0.4679 1.6743 0
M  V30 14 H -1.3353 0.9444 -2.3073 0
M  V30 15 H -1.075 -1.1237 1.4789 0
M  V30 16 H 1.0841 1.3412 -2.2411 0
M  V30 17 H 1.3168 -0.7031 1.5449 0
M  V30 18 H 3.3716 0.6867 1.6321 0
M  V30 19 H 4.6839 0.5507 0.4025 0
M  V30 20 H 3.6608 -0.889 0.7665 0
M  V30 END ATOM
M  V30 BEGIN BOND
M  V30 1 2 1 2
M  V30 2 1 2 3
M  V30 3 1 2 4
M  V30 4 2 4 5
M  V30 5 1 4 6
M  V30 6 1 5 7
M  V30 7 2 6 8
M  V30 8 2 7 9
M  V30 9 1 9 10
M  V30 10 1 10 11
M  V30 11 1 8 9
M  V30 12 1 3 12
M  V30 13 1 3 13
M  V30 14 1 5 14
M  V30 15 1 6 15
M  V30 16 1 7 16
M  V30 17 1 8 17
M  V30 18 1 11 18
M  V30 19 1 11 19
M  V30 20 1 11 20
M  V30 END BOND
M  V30 END CTAB
M  END
>  <Structure No>
6650

>  <LogS>
-1.72

>  <MMFF94 Energy>
7.7452

$$$$
Compound 6651
Actelion Java MolfileCreator 2.0

  0  0  0  0  0  0              0 V3000
M  V30 BEGIN CTAB
M  V30 COUNTS 20 20 0 0 0
M  V30 BEGIN ATOM
M  V30 1 O 3.543 -0.5505 0.1572 0
M  V30 2 C 2.4964 0.1085 0.4013 0
M  V30 3 N 2.622 1.4353 0.9205 0
M  V30 4 C 1.1686 -0.5085 0.163 0
M  V30 5 C 0.0245 0.2832 -0.0555 0
M  V30 6 C 1.0435 -1.9085 0.1301 0
M  V30 7 C -1.2302 -0.3166 -0.2839 0
M  V30 8 C -0.1991 -2.5036 -0.0952 0
M  V30 9 O -2.3953 0.4339 -0.5034 0
M  V30 10 C -1.3297 -1.7114 -0.2981 0
M  V30 11 C -2.4471 1.8568 -0.5148 0
M  V30 12 H 3.5674 1.8666 1.022 0
M  V30 13 H 1.8003 1.9614 1.2899 0
M  V30 14 H 0.1125 1.3594 -0.0736 0
M  V30 15 H 1.9055 -2.5442 0.2903 0
M  V30 16 H -0.2861 -3.5823 -0.112 0
M  V30 17 H -2.2884 -2.1832 -0.4721 0
M  V30 18 H -1.8 2.256 -1.3241 0
M  V30 19 H -3.4912 2.1799 -0.7036 0
M  V30 20 H -2.123 2.2588 0.4682 0
M  V30 END ATOM
M  V30 BEGIN BOND
M  V30 1 2 1 2
M  V30 2 1 2 3
M  V30 3 1 2 4
M  V30 4 2 4 5
M  V30 5 1 4 6
M  V30 6 1 5 7
M  V30 7 2 6 8
M  V30 8 1 7 9
M  V30 9 2 7 10
M  V30 10 1 9 11
M  V30 11 1 8 10
M  V30 12 1 3 12
M  V30 13 1 3 13
M  V30 14 1 5 14
M  V30 15 1 6 15
M  V30 16 1 8 16
M  V30 17 1 10 17
M  V30 18 1 11 18
M  V30 19 1 11 19
M  V30 20 1 11 20
M  V30 END BOND
M  V30 END CTAB
M  END
>  <Structure No>
6651

>  <LogS>
-1.72

>  <MMFF94 Energy>
3.8709

$$$$
Compound 6652
Actelion Java MolfileCreator 2.0

  0  0  0  0  0  0              0 V3000
M  V30 BEGIN CTAB
M  V30 COUNTS 48 48 0 0 0
M  V30 BEGIN ATOM
M  V30 1 F 0.0 -4.6217 -1.114 0
M  V30 2 C -0.0782 -3.3479 -0.6523 0
M  V30 3 C -1.0417 -2.9863 0.285 0
M  V30 4 C 0.8082 -2.384 -1.1114 0
M  V30 5 O -1.8503 -3.863 0.6967 0
M  V30 6 N -1.1027 -1.6965 0.7489 0
M  V30 7 N 0.7286 -1.1008 -0.6579 0
M  V30 8 C -0.211 -0.7606 0.2818 0
M  V30 9 C -2.1235 -1.2928 1.7366 0
M  V30 10 C 1.6956 -0.1062 -1.1416 0
M  V30 11 O -0.2555 0.4239 0.7216 0
M  V30 12 O -3.0022 -0.3252 1.1674 0
M  V30 13 O 2.6993 0.0952 -0.1525 0
M  V30 14 C -3.8902 -0.6141 0.1242 0
M  V30 15 C 3.7507 1.0044 -0.313 0
M  V30 16 O -4.0188 -1.801 -0.2871 0
M  V30 17 C -4.6639 0.5191 -0.5197 0
M  V30 18 O 3.87 1.6454 -1.3946 0
M  V30 19 C 4.7891 1.1498 0.7823 0
M  V30 20 C -5.4387 1.2845 0.5694 0
M  V30 21 C -5.6644 -0.0111 -1.5691 0
M  V30 22 C -3.6662 1.4691 -1.2074 0
M  V30 23 C 5.4532 2.5417 0.7205 0
M  V30 24 C 5.8601 0.0618 0.5942 0
M  V30 25 C 4.121 0.9802 2.1616 0
M  V30 26 H 1.5621 -2.6698 -1.8357 0
M  V30 27 H -2.7168 -2.1517 2.1174 0
M  V30 28 H -1.6217 -0.8423 2.6195 0
M  V30 29 H 2.1712 -0.4397 -2.0911 0
M  V30 30 H 1.1781 0.8555 -1.355 0
M  V30 31 H -6.0218 2.1194 0.1233 0
M  V30 32 H -4.7438 1.7149 1.3228 0
M  V30 33 H -6.1455 0.6051 1.0937 0
M  V30 34 H -6.2309 0.8272 -2.0296 0
M  V30 35 H -6.3941 -0.7059 -1.0986 0
M  V30 36 H -5.1323 -0.5551 -2.3802 0
M  V30 37 H -4.2003 2.3149 -1.6925 0
M  V30 38 H -3.0861 0.927 -1.9862 0
M  V30 39 H -2.9484 1.8903 -0.4699 0
M  V30 40 H 6.1924 2.6611 1.5423 0
M  V30 41 H 4.6883 3.3425 0.8193 0
M  V30 42 H 5.9885 2.6832 -0.243 0
M  V30 43 H 6.3566 0.1691 -0.3946 0
M  V30 44 H 5.4031 -0.9506 0.6468 0
M  V30 45 H 6.6375 0.1357 1.3852 0
M  V30 46 H 3.6749 -0.0328 2.267 0
M  V30 47 H 4.8655 1.1109 2.9769 0
M  V30 48 H 3.315 1.7341 2.2993 0
M  V30 END ATOM
M  V30 BEGIN BOND
M  V30 1 1 1 2
M  V30 2 1 2 3
M  V30 3 2 2 4
M  V30 4 2 3 5
M  V30 5 1 3 6
M  V30 6 1 4 7
M  V30 7 1 6 8
M  V30 8 1 6 9
M  V30 9 1 7 10
M  V30 10 2 8 11
M  V30 11 1 9 12
M  V30 12 1 10 13
M  V30 13 1 12 14
M  V30 14 1 13 15
M  V30 15 2 14 16
M  V30 16 1 14 17
M  V30 17 2 15 18
M  V30 18 1 15 19
M  V30 19 1 17 20
M  V30 20 1 17 21
M  V30 21 1 17 22
M  V30 22 1 19 23
M  V30 23 1 19 24
M  V30 24 1 19 25
M  V30 25 1 7 8
M  V30 26 1 4 26
M  V30 27 1 9 27
M  V30 28 1 9 28
M  V30 29 1 10 29
M  V30 30 1 10 30
M  V30 31 1 20 31
M  V30 32 1 20 32
M  V30 33 1 20 33
M  V30 34 1 21 34
M  V30 35 1 21 35
M  V30 36 1 21 36
M  V30 37 1 22 37
M  V30 38 1 22 38
M  V30 39 1 22 39
M  V30 40 1 23 40
M  V30 41 1 23 41
M  V30 42 1 23 42
M  V30 43 1 24 43
M  V30 44 1 24 44
M  V30 45 1 24 45
M  V30 46 1 25 46
M  V30 47 1 25 47
M  V30 48 1 25 48
M  V30 END BOND
M  V30 END CTAB
M  END
>  <Structure No>
6652

>  <LogS>
-3.9

>  <MMFF94 Energy>
-97.847

$$$$
Compound 6653
Actelion Java MolfileCreator 2.0

  0  0  0  0  0  0              0 V3000
M  V30 BEGIN CTAB
M  V30 COUNTS 27 27 0 0 0
M  V30 BEGIN ATOM
M  V30 1 O -0.1566 0.9399 -1.3317 0
M  V30 2 C -0.468 0.5427 -0.1752 0
M  V30 3 N 0.5415 0.4744 0.8454 0
M  V30 4 C -1.8675 0.1358 0.0992 0
M  V30 5 C 1.8971 0.978 0.6298 0
M  V30 6 C -2.4017 0.1902 1.4011 0
M  V30 7 C -2.6944 -0.2911 -0.9569 0
M  V30 8 N 2.5791 0.1895 -0.4152 0
M  V30 9 C -3.7257 -0.1925 1.6393 0
M  V30 10 C -4.0169 -0.6735 -0.7124 0
M  V30 11 C 3.8311 0.8545 -0.8085 0
M  V30 12 C 2.8716 -1.1703 0.0687 0
M  V30 13 C -4.5314 -0.6267 0.5847 0
M  V30 14 H 0.3274 0.0334 1.7672 0
M  V30 15 H 2.4658 0.9415 1.5874 0
M  V30 16 H 1.8264 2.0469 0.3274 0
M  V30 17 H -1.8126 0.5509 2.2333 0
M  V30 18 H -2.3148 -0.3401 -1.9701 0
M  V30 19 H -4.1295 -0.1456 2.6427 0
M  V30 20 H -4.6433 -1.0067 -1.5299 0
M  V30 21 H 4.5183 0.9691 0.0598 0
M  V30 22 H 3.6135 1.8581 -1.2334 0
M  V30 23 H 4.3441 0.2695 -1.6023 0
M  V30 24 H 1.9295 -1.6988 0.3278 0
M  V30 25 H 3.3654 -1.7629 -0.7312 0
M  V30 26 H 3.5336 -1.1493 0.9633 0
M  V30 27 H -5.556 -0.9215 0.7719 0
M  V30 END ATOM
M  V30 BEGIN BOND
M  V30 1 2 1 2
M  V30 2 1 2 3
M  V30 3 1 2 4
M  V30 4 1 3 5
M  V30 5 2 4 6
M  V30 6 1 4 7
M  V30 7 1 5 8
M  V30 8 1 6 9
M  V30 9 2 7 10
M  V30 10 1 8 11
M  V30 11 1 8 12
M  V30 12 2 9 13
M  V30 13 1 10 13
M  V30 14 1 3 14
M  V30 15 1 5 15
M  V30 16 1 5 16
M  V30 17 1 6 17
M  V30 18 1 7 18
M  V30 19 1 9 19
M  V30 20 1 10 20
M  V30 21 1 11 21
M  V30 22 1 11 22
M  V30 23 1 11 23
M  V30 24 1 12 24
M  V30 25 1 12 25
M  V30 26 1 12 26
M  V30 27 1 13 27
M  V30 END BOND
M  V30 END CTAB
M  END
>  <Structure No>
6653

>  <LogS>
0.42

>  <MMFF94 Energy>
-24.616

$$$$
Compound 6654
Actelion Java MolfileCreator 2.0

  0  0  0  0  0  0              0 V3000
M  V30 BEGIN CTAB
M  V30 COUNTS 26 26 0 0 0
M  V30 BEGIN ATOM
M  V30 1 O -5.2428 1.3484 1.1103 0
M  V30 2 C -4.6059 0.2723 1.2643 0
M  V30 3 O -5.1909 -0.7587 1.9905 0 CHG=-1
M  V30 4 C -3.2561 0.1068 0.6814 0
M  V30 5 C -2.6589 1.1477 -0.0522 0
M  V30 6 C -2.5492 -1.095 0.858 0
M  V30 7 C -1.3831 0.9869 -0.6006 0
M  V30 8 C -1.2734 -1.2544 0.309 0
M  V30 9 C -0.6865 -0.2193 -0.434 0
M  V30 10 C 0.7013 -0.3789 -0.9949 0
M  V30 11 C 1.7498 0.0849 0.0217 0
M  V30 12 C 3.1676 -0.073 -0.5387 0
M  V30 13 C 4.2142 0.3881 0.4715 0
M  V30 14 H -3.1757 2.0879 -0.2001 0
M  V30 15 H -2.9793 -1.9122 1.4233 0
M  V30 16 H -0.9372 1.8041 -1.1544 0
M  V30 17 H -0.7419 -2.1853 0.4648 0
M  V30 18 H 0.7985 0.2135 -1.9313 0
M  V30 19 H 0.8796 -1.4449 -1.2581 0
M  V30 20 H 1.5702 1.154 0.2732 0
M  V30 21 H 1.652 -0.518 0.952 0
M  V30 22 H 3.3551 -1.1402 -0.7887 0
M  V30 23 H 3.2734 0.5302 -1.4668 0
M  V30 24 H 4.0644 1.4606 0.7199 0
M  V30 25 H 5.2291 0.2623 0.0389 0
M  V30 26 H 4.1465 -0.2167 1.4008 0
M  V30 END ATOM
M  V30 BEGIN BOND
M  V30 1 2 1 2
M  V30 2 1 2 3
M  V30 3 1 2 4
M  V30 4 2 4 5
M  V30 5 1 4 6
M  V30 6 1 5 7
M  V30 7 2 6 8
M  V30 8 2 7 9
M  V30 9 1 9 10
M  V30 10 1 10 11
M  V30 11 1 11 12
M  V30 12 1 12 13
M  V30 13 1 8 9
M  V30 14 1 5 14
M  V30 15 1 6 15
M  V30 16 1 7 16
M  V30 17 1 8 17
M  V30 18 1 10 18
M  V30 19 1 10 19
M  V30 20 1 11 20
M  V30 21 1 11 21
M  V30 22 1 12 22
M  V30 23 1 12 23
M  V30 24 1 13 24
M  V30 25 1 13 25
M  V30 26 1 13 26
M  V30 END BOND
M  V30 END CTAB
M  END
>  <Structure No>
6654

>  <LogS>
-3.08

>  <MMFF94 Energy>
38.654

$$$$
Compound 6655
Actelion Java MolfileCreator 2.0

  0  0  0  0  0  0              0 V3000
M  V30 BEGIN CTAB
M  V30 COUNTS 30 30 0 0 0
M  V30 BEGIN ATOM
M  V30 1 F -0.08 2.7249 -3.2866 0
M  V30 2 C -0.045 1.8714 -2.2319 0
M  V30 3 C -1.1108 1.015 -1.971 0
M  V30 4 C 1.0598 1.8437 -1.3928 0
M  V30 5 O -2.1258 1.0557 -2.7198 0
M  V30 6 N -1.0518 0.1428 -0.9147 0
M  V30 7 N 1.0887 1.0072 -0.3165 0
M  V30 8 C 0.0406 0.1536 -0.0803 0
M  V30 9 C -2.1889 -0.751 -0.6317 0
M  V30 10 C 2.277 0.9923 0.5477 0
M  V30 11 O 0.0819 -0.6266 0.9132 0
M  V30 12 O -3.0934 -0.0993 0.2541 0
M  V30 13 O 3.1029 -0.1136 0.1976 0
M  V30 14 C -4.2692 -0.7019 0.7099 0
M  V30 15 C 4.3029 -0.3969 0.8556 0
M  V30 16 O -4.591 -1.8593 0.3261 0
M  V30 17 C -5.1762 0.0527 1.6211 0
M  V30 18 O 4.6948 0.3178 1.8179 0
M  V30 19 C 5.1022 -1.5867 0.446 0
M  V30 20 H 1.8924 2.5052 -1.6028 0
M  V30 21 H -1.8384 -1.7039 -0.1775 0
M  V30 22 H -2.7175 -1.0304 -1.5696 0
M  V30 23 H 2.857 1.9367 0.4431 0
M  V30 24 H 1.9735 0.914 1.6153 0
M  V30 25 H -5.6326 -0.637 2.3621 0
M  V30 26 H -4.604 0.834 2.164 0
M  V30 27 H -5.979 0.5361 1.0267 0
M  V30 28 H 6.1869 -1.3628 0.5246 0
M  V30 29 H 4.8552 -2.4432 1.1072 0
M  V30 30 H 4.8673 -1.8579 -0.6045 0
M  V30 END ATOM
M  V30 BEGIN BOND
M  V30 1 1 1 2
M  V30 2 1 2 3
M  V30 3 2 2 4
M  V30 4 2 3 5
M  V30 5 1 3 6
M  V30 6 1 4 7
M  V30 7 1 6 8
M  V30 8 1 6 9
M  V30 9 1 7 10
M  V30 10 2 8 11
M  V30 11 1 9 12
M  V30 12 1 10 13
M  V30 13 1 12 14
M  V30 14 1 13 15
M  V30 15 2 14 16
M  V30 16 1 14 17
M  V30 17 2 15 18
M  V30 18 1 15 19
M  V30 19 1 7 8
M  V30 20 1 4 20
M  V30 21 1 9 21
M  V30 22 1 9 22
M  V30 23 1 10 23
M  V30 24 1 10 24
M  V30 25 1 17 25
M  V30 26 1 17 26
M  V30 27 1 17 27
M  V30 28 1 19 28
M  V30 29 1 19 29
M  V30 30 1 19 30
M  V30 END BOND
M  V30 END CTAB
M  END
>  <Structure No>
6655

>  <LogS>
-1.81

>  <MMFF94 Energy>
-120.43

$$$$
Compound 6656
Actelion Java MolfileCreator 2.0

  0  0  0  0  0  0              0 V3000
M  V30 BEGIN CTAB
M  V30 COUNTS 42 42 0 0 0
M  V30 BEGIN ATOM
M  V30 1 O 3.7348 -0.238 1.5085 0
M  V30 2 C 3.6561 -0.5981 0.3052 0
M  V30 3 N 2.4173 -0.4897 -0.4131 0
M  V30 4 N 4.8114 -1.1335 -0.3556 0
M  V30 5 C 1.2329 0.1418 0.1179 0
M  V30 6 C 6.0684 -1.3377 0.3523 0
M  V30 7 O 1.2593 0.654 1.2729 0
M  V30 8 C -0.0697 0.141 -0.6794 0 CFG=2
M  V30 9 C -1.104 1.0728 -0.0083 0
M  V30 10 C -0.5996 -1.2808 -0.7871 0
M  V30 11 C 0.2027 0.6447 -2.1179 0
M  V30 12 C -2.1244 0.6072 0.7497 0
M  V30 13 C -0.9217 2.5813 -0.0526 0
M  V30 14 O -0.2297 -2.1694 0.0297 0
M  V30 15 O -1.5612 -1.5798 -1.7582 0
M  V30 16 C -3.0828 1.5686 1.3953 0
M  V30 17 C -1.0636 3.1883 1.3529 0
M  V30 18 C -2.2258 -2.8351 -1.8444 0
M  V30 19 C -2.3334 2.7128 2.1042 0
M  V30 20 C -3.2658 -2.9651 -0.742 0
M  V30 21 H 2.3778 -0.9191 -1.3648 0
M  V30 22 H 4.7609 -1.3623 -1.3736 0
M  V30 23 H 6.4199 -0.3753 0.7811 0
M  V30 24 H 6.8379 -1.7206 -0.3469 0
M  V30 25 H 5.9225 -2.0678 1.175 0
M  V30 26 H 0.7259 -0.1254 -2.7238 0
M  V30 27 H 0.8381 1.5551 -2.1218 0
M  V30 28 H -0.7525 0.8808 -2.6384 0
M  V30 29 H -2.2644 -0.4498 0.9357 0
M  V30 30 H -1.6921 3.0161 -0.7226 0
M  V30 31 H 0.0745 2.861 -0.448 0
M  V30 32 H -3.7369 1.9946 0.604 0
M  V30 33 H -3.7286 1.0312 2.1209 0
M  V30 34 H -0.166 2.9112 1.9484 0
M  V30 35 H -1.0683 4.2978 1.2723 0
M  V30 36 H -2.7397 -2.895 -2.8259 0
M  V30 37 H -1.491 -3.6678 -1.7848 0
M  V30 38 H -2.0438 2.3758 3.1262 0
M  V30 39 H -3.0315 3.5708 2.2321 0
M  V30 40 H -3.8558 -3.8892 -0.8942 0
M  V30 41 H -2.7665 -3.0193 0.2457 0
M  V30 42 H -3.9534 -2.0893 -0.7552 0
M  V30 END ATOM
M  V30 BEGIN BOND
M  V30 1 2 1 2
M  V30 2 1 2 3
M  V30 3 1 2 4
M  V30 4 1 3 5
M  V30 5 1 4 6
M  V30 6 2 5 7
M  V30 7 1 5 8
M  V30 8 1 8 9
M  V30 9 1 8 10
M  V30 10 1 8 11
M  V30 11 2 9 12
M  V30 12 1 9 13
M  V30 13 2 10 14
M  V30 14 1 10 15
M  V30 15 1 12 16
M  V30 16 1 13 17
M  V30 17 1 15 18
M  V30 18 1 16 19
M  V30 19 1 18 20
M  V30 20 1 17 19
M  V30 21 1 3 21
M  V30 22 1 4 22
M  V30 23 1 6 23
M  V30 24 1 6 24
M  V30 25 1 6 25
M  V30 26 1 11 26
M  V30 27 1 11 27
M  V30 28 1 11 28
M  V30 29 1 12 29
M  V30 30 1 13 30
M  V30 31 1 13 31
M  V30 32 1 16 32
M  V30 33 1 16 33
M  V30 34 1 17 34
M  V30 35 1 17 35
M  V30 36 1 18 36
M  V30 37 1 18 37
M  V30 38 1 19 38
M  V30 39 1 19 39
M  V30 40 1 20 40
M  V30 41 1 20 41
M  V30 42 1 20 42
M  V30 END BOND
M  V30 BEGIN COLLECTION
M  V30 MDLV30/STEABS ATOMS=(1 8)
M  V30 END COLLECTION
M  V30 END CTAB
M  END
>  <Structure No>
6656

>  <LogS>
-3.0

>  <MMFF94 Energy>
-55.164

$$$$
Compound 6657
Actelion Java MolfileCreator 2.0

  0  0  0  0  0  0              0 V3000
M  V30 BEGIN CTAB
M  V30 COUNTS 23 23 0 0 0
M  V30 BEGIN ATOM
M  V30 1 O 3.7976 -0.9483 -0.316 0
M  V30 2 N 3.3681 -0.033 0.4145 0 CHG=1
M  V30 3 O 4.2617 0.6934 1.1667 0 CHG=-1
M  V30 4 C 1.9783 0.3294 0.4128 0
M  V30 5 N 0.9801 -0.3535 -0.1881 0
M  V30 6 C 1.4555 1.4489 1.0178 0
M  V30 7 C -0.1288 0.3971 0.0365 0
M  V30 8 C 1.0839 -1.6128 -0.9287 0
M  V30 9 N 0.1294 1.4927 0.7889 0
M  V30 10 C -1.5245 0.0355 -0.4211 0
M  V30 11 C -2.1924 -0.8803 0.6083 0
M  V30 12 C -2.3761 1.289 -0.6593 0
M  V30 13 H 2.0008 2.1927 1.5835 0
M  V30 14 H 1.6929 -2.3414 -0.3544 0
M  V30 15 H 0.0914 -2.0793 -1.0826 0
M  V30 16 H 1.5534 -1.4272 -1.9172 0
M  V30 17 H -1.4664 -0.4995 -1.3924 0
M  V30 18 H -3.2025 -1.1796 0.2559 0
M  V30 19 H -2.292 -0.3622 1.5867 0
M  V30 20 H -1.5899 -1.8019 0.7536 0
M  V30 21 H -2.5285 1.8522 0.2866 0
M  V30 22 H -1.8789 1.9531 -1.3983 0
M  V30 23 H -3.3701 1.0029 -1.0649 0
M  V30 END ATOM
M  V30 BEGIN BOND
M  V30 1 2 1 2
M  V30 2 1 2 3
M  V30 3 1 2 4
M  V30 4 1 4 5
M  V30 5 2 4 6
M  V30 6 1 5 7
M  V30 7 1 5 8
M  V30 8 1 6 9
M  V30 9 1 7 10
M  V30 10 1 10 11
M  V30 11 1 10 12
M  V30 12 2 7 9
M  V30 13 1 6 13
M  V30 14 1 8 14
M  V30 15 1 8 15
M  V30 16 1 8 16
M  V30 17 1 10 17
M  V30 18 1 11 18
M  V30 19 1 11 19
M  V30 20 1 11 20
M  V30 21 1 12 21
M  V30 22 1 12 22
M  V30 23 1 12 23
M  V30 END BOND
M  V30 END CTAB
M  END
>  <Structure No>
6657

>  <LogS>
-1.26

>  <MMFF94 Energy>
6.5198

$$$$
Compound 6658
Actelion Java MolfileCreator 2.0

  0  0  0  0  0  0              0 V3000
M  V30 BEGIN CTAB
M  V30 COUNTS 26 26 0 0 0
M  V30 BEGIN ATOM
M  V30 1 O 2.6732 0.7856 1.0214 0
M  V30 2 C 2.7505 -0.0352 0.0665 0
M  V30 3 O 1.6006 -0.6471 -0.4487 0
M  V30 4 N 4.028 -0.3961 -0.4658 0
M  V30 5 C 0.2835 -0.2129 -0.2346 0
M  V30 6 C 5.2658 0.1865 0.0362 0
M  V30 7 C -0.7435 -1.1611 -0.2697 0
M  V30 8 C -0.0368 1.1389 -0.0307 0
M  V30 9 C -2.0837 -0.7848 -0.074 0
M  V30 10 C -1.3627 1.5261 0.1706 0
M  V30 11 C -2.3954 0.5745 0.1657 0
M  V30 12 C -3.1582 -1.84 -0.1024 0
M  V30 13 C -3.8163 1.0263 0.38 0
M  V30 14 H 4.0728 -1.0949 -1.2411 0
M  V30 15 H 5.3838 -0.0511 1.1143 0
M  V30 16 H 6.1315 -0.2301 -0.5203 0
M  V30 17 H 5.2466 1.2881 -0.1016 0
M  V30 18 H -0.4896 -2.1996 -0.4445 0
M  V30 19 H 0.7288 1.9017 -0.0555 0
M  V30 20 H -1.5829 2.5755 0.3246 0
M  V30 21 H -3.6069 -1.9442 0.9075 0
M  V30 22 H -3.9486 -1.5593 -0.8294 0
M  V30 23 H -2.7537 -2.8288 -0.4064 0
M  V30 24 H -4.285 0.4372 1.1957 0
M  V30 25 H -3.8662 2.0987 0.6657 0
M  V30 26 H -4.3978 0.8881 -0.5552 0
M  V30 END ATOM
M  V30 BEGIN BOND
M  V30 1 2 1 2
M  V30 2 1 2 3
M  V30 3 1 2 4
M  V30 4 1 3 5
M  V30 5 1 4 6
M  V30 6 2 5 7
M  V30 7 1 5 8
M  V30 8 1 7 9
M  V30 9 2 8 10
M  V30 10 2 9 11
M  V30 11 1 9 12
M  V30 12 1 11 13
M  V30 13 1 10 11
M  V30 14 1 4 14
M  V30 15 1 6 15
M  V30 16 1 6 16
M  V30 17 1 6 17
M  V30 18 1 7 18
M  V30 19 1 8 19
M  V30 20 1 10 20
M  V30 21 1 12 21
M  V30 22 1 12 22
M  V30 23 1 12 23
M  V30 24 1 13 24
M  V30 25 1 13 25
M  V30 26 1 13 26
M  V30 END BOND
M  V30 END CTAB
M  END
>  <Structure No>
6658

>  <LogS>
-2.49

>  <MMFF94 Energy>
-13.96

$$$$
Compound 6659
Actelion Java MolfileCreator 2.0

  0  0  0  0  0  0              0 V3000
M  V30 BEGIN CTAB
M  V30 COUNTS 24 24 0 0 0
M  V30 BEGIN ATOM
M  V30 1 O -2.2943 -2.8488 -1.3444 0
M  V30 2 N -1.4239 -1.9574 -1.2681 0 CHG=1
M  V30 3 O -0.2382 -2.1358 -1.9394 0 CHG=-1
M  V30 4 C -1.7003 -0.7537 -0.5307 0
M  V30 5 N -0.8309 0.2525 -0.2811 0
M  V30 6 C -2.9128 -0.449 0.0498 0
M  V30 7 C -1.5464 1.1384 0.4554 0
M  V30 8 C 0.5916 0.3498 -0.6339 0
M  V30 9 N -2.8205 0.743 0.6687 0
M  V30 10 C -1.0148 2.4379 0.976 0
M  V30 11 C 1.4461 -0.52 0.3008 0 CFG=2
M  V30 12 O 1.3307 -0.0443 1.6165 0
M  V30 13 C 2.9139 -0.4887 -0.1315 0
M  V30 14 H -3.8096 -1.0538 0.0266 0
M  V30 15 H 0.9327 1.4051 -0.5665 0
M  V30 16 H 0.7382 0.0558 -1.6933 0
M  V30 17 H -0.1166 2.2577 1.6012 0
M  V30 18 H -1.7826 2.9454 1.5972 0
M  V30 19 H -0.7495 3.1001 0.1259 0
M  V30 20 H 1.0835 -1.5719 0.2467 0
M  V30 21 H 1.6356 -0.7759 2.2147 0
M  V30 22 H 3.3107 0.548 -0.0841 0
M  V30 23 H 3.0175 -0.8713 -1.1692 0
M  V30 24 H 3.5193 -1.1333 0.5404 0
M  V30 END ATOM
M  V30 BEGIN BOND
M  V30 1 2 1 2
M  V30 2 1 2 3
M  V30 3 1 2 4
M  V30 4 1 4 5
M  V30 5 2 4 6
M  V30 6 1 5 7
M  V30 7 1 5 8
M  V30 8 1 6 9
M  V30 9 1 7 10
M  V30 10 1 8 11
M  V30 11 1 11 12
M  V30 12 1 11 13
M  V30 13 2 7 9
M  V30 14 1 6 14
M  V30 15 1 8 15
M  V30 16 1 8 16
M  V30 17 1 10 17
M  V30 18 1 10 18
M  V30 19 1 10 19
M  V30 20 1 11 20
M  V30 21 1 12 21
M  V30 22 1 13 22
M  V30 23 1 13 23
M  V30 24 1 13 24
M  V30 END BOND
M  V30 BEGIN COLLECTION
M  V30 MDLV30/STEABS ATOMS=(1 11)
M  V30 END COLLECTION
M  V30 END CTAB
M  END
>  <Structure No>
6659

>  <LogS>
-0.74

>  <MMFF94 Energy>
16.015

$$$$
Compound 6660
Actelion Java MolfileCreator 2.0

  0  0  0  0  0  0              0 V3000
M  V30 BEGIN CTAB
M  V30 COUNTS 20 21 0 0 0
M  V30 BEGIN ATOM
M  V30 1 N -1.5087 1.5087 -0.3174 0
M  V30 2 C -1.9512 0.2405 -0.0953 0
M  V30 3 C -0.1849 1.8148 -0.3585 0
M  V30 4 C -1.0296 -0.7966 0.0997 0
M  V30 5 C -3.42 -0.0393 -0.0603 0
M  V30 6 C 0.7738 0.8112 -0.169 0
M  V30 7 C 0.3421 -0.5146 0.0635 0
M  V30 8 C 2.1459 1.1022 -0.2068 0
M  V30 9 C 1.2917 -1.5303 0.2549 0
M  V30 10 C 3.0825 0.082 -0.0146 0
M  V30 11 C 2.6568 -1.2295 0.2154 0
M  V30 12 H 0.1155 2.8396 -0.5385 0
M  V30 13 H -1.3803 -1.8072 0.2767 0
M  V30 14 H -3.6809 -0.7731 -0.8517 0
M  V30 15 H -3.9997 0.8923 -0.2329 0
M  V30 16 H -3.6993 -0.4545 0.9308 0
M  V30 17 H 2.4917 2.1137 -0.384 0
M  V30 18 H 0.9794 -2.5521 0.4345 0
M  V30 19 H 4.1405 0.3085 -0.0441 0
M  V30 20 H 3.3867 -2.0149 0.3634 0
M  V30 END ATOM
M  V30 BEGIN BOND
M  V30 1 1 1 2
M  V30 2 2 1 3
M  V30 3 2 2 4
M  V30 4 1 2 5
M  V30 5 1 3 6
M  V30 6 1 4 7
M  V30 7 2 6 8
M  V30 8 2 7 9
M  V30 9 1 8 10
M  V30 10 1 9 11
M  V30 11 1 6 7
M  V30 12 2 10 11
M  V30 13 1 3 12
M  V30 14 1 4 13
M  V30 15 1 5 14
M  V30 16 1 5 15
M  V30 17 1 5 16
M  V30 18 1 8 17
M  V30 19 1 9 18
M  V30 20 1 10 19
M  V30 21 1 11 20
M  V30 END BOND
M  V30 END CTAB
M  END
>  <Structure No>
6660

>  <LogS>
-2.19

>  <MMFF94 Energy>
34.262

$$$$
Compound 6661
Actelion Java MolfileCreator 2.0

  0  0  0  0  0  0              0 V3000
M  V30 BEGIN CTAB
M  V30 COUNTS 32 32 0 0 0
M  V30 BEGIN ATOM
M  V30 1 O 2.5152 0.5498 -1.5714 0
M  V30 2 C 2.3575 0.7186 -0.3309 0
M  V30 3 O 1.2736 0.138 0.3394 0
M  V30 4 N 3.2581 1.5564 0.3987 0
M  V30 5 C 0.4606 -0.8868 -0.1706 0
M  V30 6 C 4.3933 2.2097 -0.2401 0
M  V30 7 C -0.907 -0.9362 0.1892 0
M  V30 8 C 0.9942 -1.8871 -1.0055 0
M  V30 9 C -1.7173 -1.9603 -0.3416 0
M  V30 10 C -1.5171 0.1287 1.0936 0 CFG=1
M  V30 11 C 0.1777 -2.8998 -1.5096 0
M  V30 12 C -1.1765 -2.9324 -1.1839 0
M  V30 13 C -2.5351 1.007 0.3358 0
M  V30 14 C -2.1635 -0.5084 2.3316 0
M  V30 15 C -1.8824 1.8032 -0.7948 0
M  V30 16 H 3.0973 1.7012 1.4208 0
M  V30 17 H 4.0345 2.8889 -1.0419 0
M  V30 18 H 5.0712 1.4458 -0.6755 0
M  V30 19 H 4.9566 2.8048 0.5092 0
M  V30 20 H 2.0478 -1.9005 -1.249 0
M  V30 21 H -2.7726 -2.0074 -0.1074 0
M  V30 22 H -0.725 0.8041 1.483 0
M  V30 23 H 0.5974 -3.6635 -2.1516 0
M  V30 24 H -1.8088 -3.7159 -1.5811 0
M  V30 25 H -2.9935 1.7307 1.045 0
M  V30 26 H -3.3545 0.3831 -0.082 0
M  V30 27 H -2.481 0.2826 3.0442 0
M  V30 28 H -1.4317 -1.165 2.8491 0
M  V30 29 H -3.0565 -1.1087 2.0581 0
M  V30 30 H -2.6374 2.4691 -1.263 0
M  V30 31 H -1.054 2.4287 -0.3994 0
M  V30 32 H -1.486 1.1204 -1.5754 0
M  V30 END ATOM
M  V30 BEGIN BOND
M  V30 1 2 1 2
M  V30 2 1 2 3
M  V30 3 1 2 4
M  V30 4 1 3 5
M  V30 5 1 4 6
M  V30 6 2 5 7
M  V30 7 1 5 8
M  V30 8 1 7 9
M  V30 9 1 7 10
M  V30 10 2 8 11
M  V30 11 2 9 12
M  V30 12 1 10 13
M  V30 13 1 10 14
M  V30 14 1 13 15
M  V30 15 1 11 12
M  V30 16 1 4 16
M  V30 17 1 6 17
M  V30 18 1 6 18
M  V30 19 1 6 19
M  V30 20 1 8 20
M  V30 21 1 9 21
M  V30 22 1 10 22
M  V30 23 1 11 23
M  V30 24 1 12 24
M  V30 25 1 13 25
M  V30 26 1 13 26
M  V30 27 1 14 27
M  V30 28 1 14 28
M  V30 29 1 14 29
M  V30 30 1 15 30
M  V30 31 1 15 31
M  V30 32 1 15 32
M  V30 END BOND
M  V30 BEGIN COLLECTION
M  V30 MDLV30/STEABS ATOMS=(1 10)
M  V30 END COLLECTION
M  V30 END CTAB
M  END
>  <Structure No>
6661

>  <LogS>
-2.53

>  <MMFF94 Energy>
-12.041

$$$$
Compound 6662
Actelion Java MolfileCreator 2.0

  0  0  0  0  0  0              0 V3000
M  V30 BEGIN CTAB
M  V30 COUNTS 37 36 0 0 0
M  V30 BEGIN ATOM
M  V30 1 O -4.274 1.7395 2.2144 0
M  V30 2 C -3.4562 2.2254 1.3878 0
M  V30 3 N -2.3613 1.4423 0.8879 0
M  V30 4 N -3.6226 3.5734 0.9504 0
M  V30 5 C -2.125 0.0661 1.2428 0
M  V30 6 O -2.9361 -0.5357 2.0003 0
M  V30 7 C -0.9194 -0.6762 0.6697 0
M  V30 8 C 0.3163 0.1673 0.9382 0
M  V30 9 C -1.1253 -0.8491 -0.8688 0
M  V30 10 C -0.7333 -2.0515 1.3888 0
M  V30 11 O 0.5279 0.6139 2.1009 0
M  V30 12 O 1.2445 0.4084 -0.081 0
M  V30 13 C -2.3481 -1.6877 -1.2573 0
M  V30 14 C 0.4423 -2.8901 0.8731 0
M  V30 15 C 2.4359 1.1578 0.1259 0
M  V30 16 C 3.2068 1.2152 -1.1485 0
M  V30 17 O 2.933 2.0993 -2.005 0
M  V30 18 O 4.1934 0.2578 -1.4004 0
M  V30 19 C 4.9586 0.2458 -2.5996 0
M  V30 20 H -1.6977 1.9082 0.2294 0
M  V30 21 H -4.4142 4.1516 1.3104 0
M  V30 22 H -2.9589 3.995 0.2636 0
M  V30 23 H -1.2339 0.1505 -1.3442 0
M  V30 24 H -0.2282 -1.3118 -1.3323 0
M  V30 25 H -1.6564 -2.6637 1.3047 0
M  V30 26 H -0.5743 -1.8755 2.4762 0
M  V30 27 H -2.4652 -1.6731 -2.3614 0
M  V30 28 H -2.2194 -2.7439 -0.945 0
M  V30 29 H -3.2748 -1.2762 -0.8062 0
M  V30 30 H 1.389 -2.3111 0.8963 0
M  V30 31 H 0.5668 -3.7822 1.522 0
M  V30 32 H 0.25 -3.2483 -0.1589 0
M  V30 33 H 3.0543 0.6709 0.9106 0
M  V30 34 H 2.1812 2.1882 0.4576 0
M  V30 35 H 5.5237 1.1965 -2.6999 0
M  V30 36 H 5.6795 -0.5967 -2.5638 0
M  V30 37 H 4.2899 0.111 -3.4763 0
M  V30 END ATOM
M  V30 BEGIN BOND
M  V30 1 2 1 2
M  V30 2 1 2 3
M  V30 3 1 2 4
M  V30 4 1 3 5
M  V30 5 2 5 6
M  V30 6 1 5 7
M  V30 7 1 7 8
M  V30 8 1 7 9
M  V30 9 1 7 10
M  V30 10 2 8 11
M  V30 11 1 8 12
M  V30 12 1 9 13
M  V30 13 1 10 14
M  V30 14 1 12 15
M  V30 15 1 15 16
M  V30 16 2 16 17
M  V30 17 1 16 18
M  V30 18 1 18 19
M  V30 19 1 3 20
M  V30 20 1 4 21
M  V30 21 1 4 22
M  V30 22 1 9 23
M  V30 23 1 9 24
M  V30 24 1 10 25
M  V30 25 1 10 26
M  V30 26 1 13 27
M  V30 27 1 13 28
M  V30 28 1 13 29
M  V30 29 1 14 30
M  V30 30 1 14 31
M  V30 31 1 14 32
M  V30 32 1 15 33
M  V30 33 1 15 34
M  V30 34 1 19 35
M  V30 35 1 19 36
M  V30 36 1 19 37
M  V30 END BOND
M  V30 END CTAB
M  END
>  <Structure No>
6662

>  <LogS>
-2.01

>  <MMFF94 Energy>
-102.56

$$$$
Compound 6663
Actelion Java MolfileCreator 2.0

  0  0  0  0  0  0              0 V3000
M  V30 BEGIN CTAB
M  V30 COUNTS 22 22 0 0 0
M  V30 BEGIN ATOM
M  V30 1 O -0.8807 1.6819 0.08 0
M  V30 2 C -0.3382 0.5694 -0.1616 0
M  V30 3 N -1.1553 -0.5231 -0.6055 0
M  V30 4 C 1.123 0.4127 0.038 0
M  V30 5 O -2.4685 -0.3278 -0.9006 0
M  V30 6 C 1.8568 -0.5628 -0.6643 0
M  V30 7 C 1.8047 1.2658 0.9265 0
M  V30 8 C -3.1979 -0.6869 0.2473 0
M  V30 9 C 3.2353 -0.6908 -0.4654 0
M  V30 10 C 3.1828 1.1325 1.1219 0
M  V30 11 C -4.652 -0.4839 -0.018 0
M  V30 12 C 3.897 0.1535 0.4285 0
M  V30 13 O -5.334 -1.4025 -0.5438 0
M  V30 14 O -5.246 0.7397 0.2636 0 CHG=-1
M  V30 15 H -0.7492 -1.4756 -0.74 0
M  V30 16 H 1.3794 -1.2109 -1.3862 0
M  V30 17 H 1.2701 2.0291 1.4787 0
M  V30 18 H -3.0217 -1.7568 0.5031 0
M  V30 19 H -2.9033 -0.0541 1.115 0
M  V30 20 H 3.7924 -1.4416 -1.0109 0
M  V30 21 H 3.697 1.7891 1.812 0
M  V30 22 H 4.964 0.0527 0.5799 0
M  V30 END ATOM
M  V30 BEGIN BOND
M  V30 1 2 1 2
M  V30 2 1 2 3
M  V30 3 1 2 4
M  V30 4 1 3 5
M  V30 5 2 4 6
M  V30 6 1 4 7
M  V30 7 1 5 8
M  V30 8 1 6 9
M  V30 9 2 7 10
M  V30 10 1 8 11
M  V30 11 2 9 12
M  V30 12 2 11 13
M  V30 13 1 11 14
M  V30 14 1 10 12
M  V30 15 1 3 15
M  V30 16 1 6 16
M  V30 17 1 7 17
M  V30 18 1 8 18
M  V30 19 1 8 19
M  V30 20 1 9 20
M  V30 21 1 10 21
M  V30 22 1 12 22
M  V30 END BOND
M  V30 END CTAB
M  END
>  <Structure No>
6663

>  <LogS>
-0.95

>  <MMFF94 Energy>
90.481

$$$$
Compound 6664
Actelion Java MolfileCreator 2.0

  0  0  0  0  0  0              0 V3000
M  V30 BEGIN CTAB
M  V30 COUNTS 23 23 0 0 0
M  V30 BEGIN ATOM
M  V30 1 O 1.6753 -0.5582 1.9947 0
M  V30 2 C 1.8726 -1.7797 1.7604 0
M  V30 3 O 2.0032 -2.6613 2.8253 0 CHG=-1
M  V30 4 C 2.0403 -2.2849 0.3839 0
M  V30 5 C 1.6832 -1.6393 -0.7379 0
M  V30 6 C 0.8973 -0.3888 -0.7933 0
M  V30 7 C -0.3113 -0.2565 -0.0877 0
M  V30 8 C 1.3133 0.6436 -1.6433 0
M  V30 9 C -1.0722 0.9254 -0.1867 0
M  V30 10 C 0.5625 1.8163 -1.7475 0
M  V30 11 O -2.2722 1.1039 0.5191 0
M  V30 12 C -0.6253 1.9621 -1.0187 0
M  V30 13 C -2.8367 0.1425 1.4051 0
M  V30 14 O -1.3719 3.1349 -1.1199 0
M  V30 15 H 2.5394 -3.2399 0.2748 0
M  V30 16 H 1.9891 -2.0695 -1.6841 0
M  V30 17 H -0.6546 -1.0778 0.527 0
M  V30 18 H 2.226 0.5449 -2.2186 0
M  V30 19 H 0.9034 2.6118 -2.3979 0
M  V30 20 H -2.1322 -0.07 2.2371 0
M  V30 21 H -3.072 -0.7924 0.8542 0
M  V30 22 H -3.7766 0.5497 1.8309 0
M  V30 23 H -1.0773 3.9019 -1.7132 0
M  V30 END ATOM
M  V30 BEGIN BOND
M  V30 1 2 1 2
M  V30 2 1 2 3
M  V30 3 1 2 4
M  V30 4 2 4 5
M  V30 5 1 5 6
M  V30 6 2 6 7
M  V30 7 1 6 8
M  V30 8 1 7 9
M  V30 9 2 8 10
M  V30 10 1 9 11
M  V30 11 2 9 12
M  V30 12 1 11 13
M  V30 13 1 12 14
M  V30 14 1 10 12
M  V30 15 1 4 15
M  V30 16 1 5 16
M  V30 17 1 7 17
M  V30 18 1 8 18
M  V30 19 1 10 19
M  V30 20 1 13 20
M  V30 21 1 13 21
M  V30 22 1 13 22
M  V30 23 1 14 23
M  V30 END BOND
M  V30 END CTAB
M  END
>  <Structure No>
6664

>  <LogS>
-3.05

>  <MMFF94 Energy>
14.356

$$$$
Compound 6665
Actelion Java MolfileCreator 2.0

  0  0  0  0  0  0              0 V3000
M  V30 BEGIN CTAB
M  V30 COUNTS 14 15 0 0 0
M  V30 BEGIN ATOM
M  V30 1 S 0.0812 3.0903 -0.0812 0
M  V30 2 C 0.5029 1.5107 -0.0385 0
M  V30 3 N 1.8192 1.1476 -0.0134 0
M  V30 4 C -0.4452 0.4929 -0.0263 0
M  V30 5 C 2.1957 -0.1712 0.0225 0
M  V30 6 N -1.783 0.5495 -0.0443 0
M  V30 7 C -0.0554 -0.8019 0.0091 0
M  V30 8 N 1.2513 -1.1613 0.0341 0
M  V30 9 C -2.1616 -0.7533 -0.0184 0
M  V30 10 N -1.1174 -1.626 0.0152 0
M  V30 11 H 3.2469 -0.4268 0.0417 0
M  V30 12 H -2.3977 1.3932 -0.0719 0
M  V30 13 H 1.5317 -2.167 0.0613 0
M  V30 14 H -3.1963 -1.07 -0.0238 0
M  V30 END ATOM
M  V30 BEGIN BOND
M  V30 1 2 1 2
M  V30 2 1 2 3
M  V30 3 1 2 4
M  V30 4 2 3 5
M  V30 5 1 4 6
M  V30 6 2 4 7
M  V30 7 1 5 8
M  V30 8 1 6 9
M  V30 9 1 7 10
M  V30 10 1 7 8
M  V30 11 2 9 10
M  V30 12 1 5 11
M  V30 13 1 6 12
M  V30 14 1 8 13
M  V30 15 1 9 14
M  V30 END BOND
M  V30 END CTAB
M  END
>  <Structure No>
6665

>  <LogS>
-2.95

>  <MMFF94 Energy>
-78.943

$$$$
Compound 6666
Actelion Java MolfileCreator 2.0

  0  0  0  0  0  0              0 V3000
M  V30 BEGIN CTAB
M  V30 COUNTS 18 18 0 0 0
M  V30 BEGIN ATOM
M  V30 1 F 4.0292 -0.4828 -0.3218 0
M  V30 2 C 2.8263 0.1442 -0.3504 0
M  V30 3 C 2.7429 1.5312 -0.439 0
M  V30 4 C 1.6444 -0.5918 -0.2874 0
M  V30 5 O 3.7884 2.2303 -0.4935 0
M  V30 6 N 1.5271 2.1306 -0.4716 0 CHG=-1
M  V30 7 N 0.4313 0.0384 -0.3022 0
M  V30 8 C 0.3789 1.4059 -0.4109 0
M  V30 9 C -0.7678 -0.7577 -0.2238 0
M  V30 10 O -0.7263 2.0082 -0.4803 0
M  V30 11 O -0.8468 -1.8331 -0.8794 0
M  V30 12 N -1.8567 -0.3578 0.6207 0
M  V30 13 C -3.1204 -1.0836 0.6375 0
M  V30 14 H 1.7051 -1.6712 -0.2085 0
M  V30 15 H -1.7358 0.4494 1.2724 0
M  V30 16 H -3.5841 -1.0538 -0.3708 0
M  V30 17 H -3.8151 -0.6154 1.3664 0
M  V30 18 H -2.9457 -2.1389 0.9357 0
M  V30 END ATOM
M  V30 BEGIN BOND
M  V30 1 1 1 2
M  V30 2 1 2 3
M  V30 3 2 2 4
M  V30 4 2 3 5
M  V30 5 1 3 6
M  V30 6 1 4 7
M  V30 7 1 6 8
M  V30 8 1 7 9
M  V30 9 2 8 10
M  V30 10 2 9 11
M  V30 11 1 9 12
M  V30 12 1 12 13
M  V30 13 1 7 8
M  V30 14 1 4 14
M  V30 15 1 12 15
M  V30 16 1 13 16
M  V30 17 1 13 17
M  V30 18 1 13 18
M  V30 END BOND
M  V30 END CTAB
M  END
>  <Structure No>
6666

>  <LogS>
-2.28

>  <MMFF94 Energy>
-24.298

$$$$
Compound 6667
Actelion Java MolfileCreator 2.0

  0  0  0  0  0  0              0 V3000
M  V30 BEGIN CTAB
M  V30 COUNTS 20 20 0 0 0
M  V30 BEGIN ATOM
M  V30 1 F 3.4364 1.5972 0.7185 0
M  V30 2 C 2.5421 0.634 0.3807 0
M  V30 3 C 1.2039 0.7306 0.7653 0
M  V30 4 C 2.9506 -0.4765 -0.3486 0
M  V30 5 O 0.8324 1.7207 1.4543 0
M  V30 6 N 0.3139 -0.251 0.4119 0
M  V30 7 N 2.0534 -1.4415 -0.6722 0
M  V30 8 C 0.7474 -1.3402 -0.3007 0
M  V30 9 C -1.07 -0.1545 0.8013 0
M  V30 10 O -0.0595 -2.2536 -0.6297 0
M  V30 11 O -1.5845 -1.0609 1.5111 0
M  V30 12 C -1.9346 0.966 0.2985 0
M  V30 13 C -2.7569 0.5078 -0.9003 0
M  V30 14 H 3.9848 -0.573 -0.654 0
M  V30 15 H 2.3764 -2.2718 -1.2187 0
M  V30 16 H -2.6171 1.3002 1.1095 0
M  V30 17 H -1.3109 1.8325 -0.0061 0
M  V30 18 H -3.3869 1.3477 -1.262 0
M  V30 19 H -2.0864 0.1846 -1.7254 0
M  V30 20 H -3.4204 -0.3362 -0.6145 0
M  V30 END ATOM
M  V30 BEGIN BOND
M  V30 1 1 1 2
M  V30 2 1 2 3
M  V30 3 2 2 4
M  V30 4 2 3 5
M  V30 5 1 3 6
M  V30 6 1 4 7
M  V30 7 1 6 8
M  V30 8 1 6 9
M  V30 9 2 8 10
M  V30 10 2 9 11
M  V30 11 1 9 12
M  V30 12 1 12 13
M  V30 13 1 7 8
M  V30 14 1 4 14
M  V30 15 1 7 15
M  V30 16 1 12 16
M  V30 17 1 12 17
M  V30 18 1 13 18
M  V30 19 1 13 19
M  V30 20 1 13 20
M  V30 END BOND
M  V30 END CTAB
M  END
>  <Structure No>
6667

>  <LogS>
-0.7

>  <MMFF94 Energy>
-50.06

$$$$
Compound 6668
Actelion Java MolfileCreator 2.0

  0  0  0  0  0  0              0 V3000
M  V30 BEGIN CTAB
M  V30 COUNTS 18 18 0 0 0
M  V30 BEGIN ATOM
M  V30 1 F -3.4567 -1.687 0.9637 0
M  V30 2 C -2.5517 -0.7923 0.4927 0
M  V30 3 C -2.9586 0.4373 -0.0123 0
M  V30 4 C -1.1918 -1.0906 0.5104 0
M  V30 5 O -4.1825 0.7367 -0.04 0
M  V30 6 N -2.032 1.3145 -0.477 0
M  V30 7 N -0.2704 -0.1922 0.0419 0
M  V30 8 C -0.7031 1.0141 -0.4588 0
M  V30 9 C 1.1355 -0.5365 0.0867 0
M  V30 10 O 0.1164 1.8555 -0.9192 0
M  V30 11 O 1.4883 -1.7359 0.2683 0
M  V30 12 O 2.1148 0.4538 -0.0576 0
M  V30 13 C 3.5083 0.1702 -0.0186 0
M  V30 14 H -0.8826 -2.0472 0.9149 0
M  V30 15 H -2.3457 2.2359 -0.8599 0
M  V30 16 H 3.7788 -0.2724 0.9634 0
M  V30 17 H 4.0759 1.1131 -0.1565 0
M  V30 18 H 3.7758 -0.5337 -0.8348 0
M  V30 END ATOM
M  V30 BEGIN BOND
M  V30 1 1 1 2
M  V30 2 1 2 3
M  V30 3 2 2 4
M  V30 4 2 3 5
M  V30 5 1 3 6
M  V30 6 1 4 7
M  V30 7 1 6 8
M  V30 8 1 7 9
M  V30 9 2 8 10
M  V30 10 2 9 11
M  V30 11 1 9 12
M  V30 12 1 12 13
M  V30 13 1 7 8
M  V30 14 1 4 14
M  V30 15 1 6 15
M  V30 16 1 13 16
M  V30 17 1 13 17
M  V30 18 1 13 18
M  V30 END BOND
M  V30 END CTAB
M  END
>  <Structure No>
6668

>  <LogS>
-0.91

>  <MMFF94 Energy>
-77.143

$$$$
Compound 6669
Actelion Java MolfileCreator 2.0

  0  0  0  0  0  0              0 V3000
M  V30 BEGIN CTAB
M  V30 COUNTS 21 21 0 0 0
M  V30 BEGIN ATOM
M  V30 1 F -3.601 2.0794 0.3196 0
M  V30 2 C -2.8324 0.966 0.2169 0
M  V30 3 C -3.367 -0.233 -0.2472 0
M  V30 4 C -1.486 1.0042 0.5711 0
M  V30 5 O -4.5821 -0.2988 -0.5745 0
M  V30 6 N -2.5732 -1.3315 -0.3499 0
M  V30 7 N -0.7124 -0.1178 0.4764 0
M  V30 8 C -1.2573 -1.2825 -0.0012 0
M  V30 9 C 0.7118 -0.0429 0.8272 0
M  V30 10 O -0.5472 -2.3184 -0.1248 0
M  V30 11 O 1.483 0.1207 -0.3584 0
M  V30 12 C 2.8772 0.2152 -0.3441 0
M  V30 13 O 3.5177 0.1341 0.7391 0
M  V30 14 C 3.6167 0.364 -1.6298 0
M  V30 15 H -1.0641 1.9385 0.9231 0
M  V30 16 H -2.9787 -2.2271 -0.7065 0
M  V30 17 H 1.0257 -0.9693 1.3569 0
M  V30 18 H 0.9048 0.8089 1.5172 0
M  V30 19 H 2.9518 0.8068 -2.4007 0
M  V30 20 H 4.4952 1.0286 -1.4898 0
M  V30 21 H 3.9617 -0.6325 -1.9753 0
M  V30 END ATOM
M  V30 BEGIN BOND
M  V30 1 1 1 2
M  V30 2 1 2 3
M  V30 3 2 2 4
M  V30 4 2 3 5
M  V30 5 1 3 6
M  V30 6 1 4 7
M  V30 7 1 6 8
M  V30 8 1 7 9
M  V30 9 2 8 10
M  V30 10 1 9 11
M  V30 11 1 11 12
M  V30 12 2 12 13
M  V30 13 1 12 14
M  V30 14 1 7 8
M  V30 15 1 4 15
M  V30 16 1 6 16
M  V30 17 1 9 17
M  V30 18 1 9 18
M  V30 19 1 14 19
M  V30 20 1 14 20
M  V30 21 1 14 21
M  V30 END BOND
M  V30 END CTAB
M  END
>  <Structure No>
6669

>  <LogS>
-0.67

>  <MMFF94 Energy>
-91.26

$$$$
Compound 6670
Actelion Java MolfileCreator 2.0

  0  0  0  0  0  0              0 V3000
M  V30 BEGIN CTAB
M  V30 COUNTS 24 24 0 0 0
M  V30 BEGIN ATOM
M  V30 1 O 0.5564 -1.4314 -1.0336 0
M  V30 2 C 1.136 -0.571 -0.3155 0
M  V30 3 O 2.3878 -0.8545 0.2412 0
M  V30 4 C 0.5165 0.7554 -0.0879 0
M  V30 5 C 3.0448 -2.1025 0.0571 0
M  V30 6 C -0.8765 0.976 -0.2396 0
M  V30 7 C 1.3448 1.8441 0.2421 0
M  V30 8 O -1.7735 -0.0677 -0.4934 0
M  V30 9 C -1.3904 2.2742 -0.1302 0
M  V30 10 C 0.8121 3.1284 0.3774 0
M  V30 11 C -1.9858 -1.1256 0.3979 0
M  V30 12 C -0.5514 3.3451 0.181 0
M  V30 13 O -1.4551 -1.1217 1.5422 0
M  V30 14 C -2.9017 -2.2368 0.0133 0
M  V30 15 H 3.2345 -2.2764 -1.0232 0
M  V30 16 H 2.4199 -2.9247 0.4659 0
M  V30 17 H 4.0148 -2.0865 0.5946 0
M  V30 18 H 2.4116 1.7086 0.3693 0
M  V30 19 H -2.4507 2.4484 -0.2632 0
M  V30 20 H 1.461 3.9596 0.6217 0
M  V30 21 H -0.96 4.3427 0.277 0
M  V30 22 H -3.92 -2.0279 0.4016 0
M  V30 23 H -2.9439 -2.3265 -1.0923 0
M  V30 24 H -2.5363 -3.1961 0.4366 0
M  V30 END ATOM
M  V30 BEGIN BOND
M  V30 1 2 1 2
M  V30 2 1 2 3
M  V30 3 1 2 4
M  V30 4 1 3 5
M  V30 5 2 4 6
M  V30 6 1 4 7
M  V30 7 1 6 8
M  V30 8 1 6 9
M  V30 9 2 7 10
M  V30 10 1 8 11
M  V30 11 2 9 12
M  V30 12 2 11 13
M  V30 13 1 11 14
M  V30 14 1 10 12
M  V30 15 1 5 15
M  V30 16 1 5 16
M  V30 17 1 5 17
M  V30 18 1 7 18
M  V30 19 1 9 19
M  V30 20 1 10 20
M  V30 21 1 12 21
M  V30 22 1 14 22
M  V30 23 1 14 23
M  V30 24 1 14 24
M  V30 END BOND
M  V30 END CTAB
M  END
>  <Structure No>
6670

>  <LogS>
-1.84

>  <MMFF94 Energy>
38.172

$$$$
Compound 6671
Actelion Java MolfileCreator 2.0

  0  0  0  0  0  0              0 V3000
M  V30 BEGIN CTAB
M  V30 COUNTS 14 15 0 0 0
M  V30 BEGIN ATOM
M  V30 1 O 3.2198 -1.126 -0.2412 0
M  V30 2 C 2.0477 -0.6748 -0.1519 0
M  V30 3 N 1.8425 0.6696 0.0536 0
M  V30 4 N 0.9847 -1.5299 -0.2607 0 CHG=-1
M  V30 5 C 0.578 1.1818 0.1539 0
M  V30 6 C -0.2644 -1.0166 -0.1607 0
M  V30 7 O 0.391 2.4134 0.3423 0
M  V30 8 C -0.487 0.3002 0.0412 0
M  V30 9 N -1.4212 -1.6949 -0.2411 0
M  V30 10 N -1.8047 0.5233 0.0989 0
M  V30 11 C -2.346 -0.7089 -0.0761 0
M  V30 12 H 2.6649 1.3101 0.1347 0
M  V30 13 H -2.3031 1.4293 0.2442 0
M  V30 14 H -3.4123 -0.8919 -0.084 0
M  V30 END ATOM
M  V30 BEGIN BOND
M  V30 1 2 1 2
M  V30 2 1 2 3
M  V30 3 1 2 4
M  V30 4 1 3 5
M  V30 5 1 4 6
M  V30 6 2 5 7
M  V30 7 1 5 8
M  V30 8 1 6 9
M  V30 9 1 8 10
M  V30 10 2 9 11
M  V30 11 2 6 8
M  V30 12 1 10 11
M  V30 13 1 3 12
M  V30 14 1 10 13
M  V30 15 1 11 14
M  V30 END BOND
M  V30 END CTAB
M  END
>  <Structure No>
6671

>  <LogS>
-3.87

>  <MMFF94 Energy>
-83.65

$$$$
Compound 6672
Actelion Java MolfileCreator 2.0

  0  0  0  0  0  0              0 V3000
M  V30 BEGIN CTAB
M  V30 COUNTS 21 21 0 0 0
M  V30 BEGIN ATOM
M  V30 1 F -3.4419 -1.0396 -2.1601 0
M  V30 2 C -2.7751 -0.3723 -1.1847 0
M  V30 3 C -1.4205 -0.066 -1.3225 0
M  V30 4 C -3.4337 0.0114 -0.0233 0
M  V30 5 O -0.8138 -0.4311 -2.367 0
M  V30 6 N -0.7625 0.6192 -0.3313 0
M  V30 7 N -2.7566 0.6634 0.9541 0
M  V30 8 C -1.4351 0.9611 0.817 0
M  V30 9 C 0.6736 0.9175 -0.4655 0
M  V30 10 O -0.838 1.551 1.7597 0
M  V30 11 O 1.4326 -0.1658 0.0616 0
M  V30 12 C 2.83 -0.1712 0.0763 0
M  V30 13 O 3.4836 0.7923 -0.4081 0
M  V30 14 C 3.5543 -1.3521 0.627 0
M  V30 15 H -4.4842 -0.218 0.1046 0
M  V30 16 H -3.2631 0.9343 1.8274 0
M  V30 17 H 0.9448 1.083 -1.5315 0
M  V30 18 H 0.9342 1.8557 0.0723 0
M  V30 19 H 2.9032 -1.8962 1.343 0
M  V30 20 H 4.473 -1.0229 1.1569 0
M  V30 21 H 3.8335 -2.0343 -0.2024 0
M  V30 END ATOM
M  V30 BEGIN BOND
M  V30 1 1 1 2
M  V30 2 1 2 3
M  V30 3 2 2 4
M  V30 4 2 3 5
M  V30 5 1 3 6
M  V30 6 1 4 7
M  V30 7 1 6 8
M  V30 8 1 6 9
M  V30 9 2 8 10
M  V30 10 1 9 11
M  V30 11 1 11 12
M  V30 12 2 12 13
M  V30 13 1 12 14
M  V30 14 1 7 8
M  V30 15 1 4 15
M  V30 16 1 7 16
M  V30 17 1 9 17
M  V30 18 1 9 18
M  V30 19 1 14 19
M  V30 20 1 14 20
M  V30 21 1 14 21
M  V30 END BOND
M  V30 END CTAB
M  END
>  <Structure No>
6672

>  <LogS>
-1.2

>  <MMFF94 Energy>
-95.993

$$$$
Compound 6673
Actelion Java MolfileCreator 2.0

  0  0  0  0  0  0              0 V3000
M  V30 BEGIN CTAB
M  V30 COUNTS 31 31 0 0 0
M  V30 BEGIN ATOM
M  V30 1 Cl 0.5575 1.2747 -3.5885 0
M  V30 2 C 0.6544 0.7068 -1.9364 0
M  V30 3 N -0.4804 0.4801 -1.2305 0
M  V30 4 N 1.8637 0.4935 -1.3621 0
M  V30 5 C -0.415 0.0392 0.0525 0
M  V30 6 C 1.9403 0.0524 -0.0791 0
M  V30 7 N 0.7997 -0.1728 0.6227 0
M  V30 8 N -1.6066 -0.2075 0.8192 0
M  V30 9 N 3.2116 -0.1766 0.5384 0
M  V30 10 C -2.9925 -0.0248 0.3416 0
M  V30 11 C 4.4656 0.0524 -0.1785 0
M  V30 12 C -3.9659 -0.4013 1.4781 0
M  V30 13 C -3.2386 1.4482 -0.0402 0
M  V30 14 C -3.2711 -0.9468 -0.8618 0
M  V30 15 C 5.6668 -0.2669 0.705 0
M  V30 16 H -1.4578 -0.5453 1.7981 0
M  V30 17 H 3.2281 -0.516 1.5274 0
M  V30 18 H 4.4983 -0.5933 -1.0825 0
M  V30 19 H 4.5215 1.116 -0.4961 0
M  V30 20 H -3.8164 -1.4599 1.7825 0
M  V30 21 H -5.0227 -0.2766 1.1563 0
M  V30 22 H -3.7933 0.2435 2.3669 0
M  V30 23 H -4.31 1.6147 -0.2848 0
M  V30 24 H -2.6465 1.7461 -0.9285 0
M  V30 25 H -2.9623 2.1154 0.8042 0
M  V30 26 H -4.3442 -0.902 -1.1482 0
M  V30 27 H -3.0181 -1.9983 -0.6069 0
M  V30 28 H -2.6791 -0.6509 -1.7509 0
M  V30 29 H 6.605 -0.0855 0.1395 0
M  V30 30 H 5.661 0.3817 1.6066 0
M  V30 31 H 5.6378 -1.332 1.0187 0
M  V30 END ATOM
M  V30 BEGIN BOND
M  V30 1 1 1 2
M  V30 2 2 2 3
M  V30 3 1 2 4
M  V30 4 1 3 5
M  V30 5 2 4 6
M  V30 6 2 5 7
M  V30 7 1 5 8
M  V30 8 1 6 9
M  V30 9 1 8 10
M  V30 10 1 9 11
M  V30 11 1 10 12
M  V30 12 1 10 13
M  V30 13 1 10 14
M  V30 14 1 11 15
M  V30 15 1 6 7
M  V30 16 1 8 16
M  V30 17 1 9 17
M  V30 18 1 11 18
M  V30 19 1 11 19
M  V30 20 1 12 20
M  V30 21 1 12 21
M  V30 22 1 12 22
M  V30 23 1 13 23
M  V30 24 1 13 24
M  V30 25 1 13 25
M  V30 26 1 14 26
M  V30 27 1 14 27
M  V30 28 1 14 28
M  V30 29 1 15 29
M  V30 30 1 15 30
M  V30 31 1 15 31
M  V30 END BOND
M  V30 END CTAB
M  END
>  <Structure No>
6673

>  <LogS>
-4.43

>  <MMFF94 Energy>
-226.85

$$$$
Compound 6674
Actelion Java MolfileCreator 2.0

  0  0  0  0  0  0              0 V3000
M  V30 BEGIN CTAB
M  V30 COUNTS 29 29 0 0 0
M  V30 BEGIN ATOM
M  V30 1 S -1.0404 3.3645 1.1205 0
M  V30 2 C -0.4626 1.7379 0.6524 0
M  V30 3 C -0.8768 4.0327 -0.5635 0
M  V30 4 N 0.8595 1.4422 0.7184 0
M  V30 5 N -1.3472 0.7991 0.2339 0
M  V30 6 C 1.3014 0.2088 0.3629 0
M  V30 7 C -0.9136 -0.4385 -0.1214 0
M  V30 8 N 0.4112 -0.7288 -0.0575 0
M  V30 9 N 2.6992 -0.0929 0.4335 0
M  V30 10 N -1.8385 -1.4368 -0.5708 0
M  V30 11 C 3.2204 -1.4076 0.0603 0
M  V30 12 C -3.2791 -1.2034 -0.6536 0
M  V30 13 C 4.7352 -1.4624 0.2268 0
M  V30 14 C -3.9098 -1.2361 0.7344 0
M  V30 15 H -1.5274 3.4668 -1.2628 0
M  V30 16 H -1.1892 5.0972 -0.5631 0
M  V30 17 H 0.1796 3.9677 -0.8983 0
M  V30 18 H 3.3517 0.6554 0.7619 0
M  V30 19 H -1.4626 -2.3527 -0.9054 0
M  V30 20 H 2.7562 -2.1859 0.7036 0
M  V30 21 H 2.964 -1.6197 -1.0001 0
M  V30 22 H -3.4805 -0.2265 -1.1441 0
M  V30 23 H -3.744 -1.9999 -1.274 0
M  V30 24 H 5.2187 -0.7019 -0.4225 0
M  V30 25 H 5.1064 -2.4683 -0.0621 0
M  V30 26 H 5.0104 -1.2697 1.2856 0
M  V30 27 H -5.0087 -1.1034 0.647 0
M  V30 28 H -3.7046 -2.2125 1.2225 0
M  V30 29 H -3.5038 -0.4198 1.3676 0
M  V30 END ATOM
M  V30 BEGIN BOND
M  V30 1 1 1 2
M  V30 2 1 1 3
M  V30 3 2 2 4
M  V30 4 1 2 5
M  V30 5 1 4 6
M  V30 6 2 5 7
M  V30 7 2 6 8
M  V30 8 1 6 9
M  V30 9 1 7 10
M  V30 10 1 9 11
M  V30 11 1 10 12
M  V30 12 1 11 13
M  V30 13 1 12 14
M  V30 14 1 7 8
M  V30 15 1 3 15
M  V30 16 1 3 16
M  V30 17 1 3 17
M  V30 18 1 9 18
M  V30 19 1 10 19
M  V30 20 1 11 20
M  V30 21 1 11 21
M  V30 22 1 12 22
M  V30 23 1 12 23
M  V30 24 1 13 24
M  V30 25 1 13 25
M  V30 26 1 13 26
M  V30 27 1 14 27
M  V30 28 1 14 28
M  V30 29 1 14 29
M  V30 END BOND
M  V30 END CTAB
M  END
>  <Structure No>
6674

>  <LogS>
-2.73

>  <MMFF94 Energy>
-247.38

$$$$
Compound 6675
Actelion Java MolfileCreator 2.0

  0  0  0  0  0  0              0 V3000
M  V30 BEGIN CTAB
M  V30 COUNTS 32 31 0 0 0
M  V30 BEGIN ATOM
M  V30 1 S -1.8146 0.0824 0.0 0
M  V30 2 O -2.7388 1.1497 0.5177 0
M  V30 3 O -2.0048 -0.0408 -1.4862 0
M  V30 4 C -0.1016 0.5465 0.3783 0
M  V30 5 C -2.2739 -1.4745 0.7564 0
M  V30 6 S 1.05 -0.5545 -0.4894 0
M  V30 7 C 0.1555 2.0417 0.0238 0
M  V30 8 C 0.1228 0.3847 1.8942 0
M  V30 9 C -3.688 -1.8776 0.357 0
M  V30 10 O 0.9964 -1.924 0.1286 0
M  V30 11 O 0.6738 -0.6722 -1.9401 0
M  V30 12 C 2.7318 0.0495 -0.3806 0
M  V30 13 C -0.0074 2.4188 -1.4517 0
M  V30 14 C 3.7062 -0.9331 -1.0177 0
M  V30 15 H -1.5668 -2.2657 0.435 0
M  V30 16 H -2.2273 -1.3762 1.8611 0
M  V30 17 H -0.5367 2.6823 0.6133 0
M  V30 18 H 1.1829 2.3275 0.3368 0
M  V30 19 H 1.1397 0.7257 2.182 0
M  V30 20 H 0.0235 -0.6749 2.2069 0
M  V30 21 H -0.6169 0.9859 2.4655 0
M  V30 22 H -3.7547 -2.014 -0.7429 0
M  V30 23 H -3.9535 -2.8367 0.8493 0
M  V30 24 H -4.4153 -1.1013 0.6766 0
M  V30 25 H 2.8087 1.0246 -0.905 0
M  V30 26 H 3.0031 0.1949 0.6855 0
M  V30 27 H 0.6908 1.8492 -2.0954 0
M  V30 28 H -1.0502 2.2658 -1.7925 0
M  V30 29 H 0.228 3.4968 -1.5761 0
M  V30 30 H 4.7383 -0.5298 -0.9485 0
M  V30 31 H 3.4553 -1.085 -2.0888 0
M  V30 32 H 3.6712 -1.909 -0.4892 0
M  V30 END ATOM
M  V30 BEGIN BOND
M  V30 1 2 1 2
M  V30 2 2 1 3
M  V30 3 1 1 4
M  V30 4 1 1 5
M  V30 5 1 4 6
M  V30 6 1 4 7
M  V30 7 1 4 8
M  V30 8 1 5 9
M  V30 9 2 6 10
M  V30 10 2 6 11
M  V30 11 1 6 12
M  V30 12 1 7 13
M  V30 13 1 12 14
M  V30 14 1 5 15
M  V30 15 1 5 16
M  V30 16 1 7 17
M  V30 17 1 7 18
M  V30 18 1 8 19
M  V30 19 1 8 20
M  V30 20 1 8 21
M  V30 21 1 9 22
M  V30 22 1 9 23
M  V30 23 1 9 24
M  V30 24 1 12 25
M  V30 25 1 12 26
M  V30 26 1 13 27
M  V30 27 1 13 28
M  V30 28 1 13 29
M  V30 29 1 14 30
M  V30 30 1 14 31
M  V30 31 1 14 32
M  V30 END BOND
M  V30 END CTAB
M  END
>  <Structure No>
6675

>  <LogS>
-1.91

>  <MMFF94 Energy>
-50.279

$$$$
Compound 6676
Actelion Java MolfileCreator 2.0

  0  0  0  0  0  0              0 V3000
M  V30 BEGIN CTAB
M  V30 COUNTS 21 21 0 0 0
M  V30 BEGIN ATOM
M  V30 1 F -3.9325 2.2457 0.0 0
M  V30 2 C -3.2106 1.1089 0.1661 0
M  V30 3 C -3.8201 -0.1418 0.1096 0
M  V30 4 C -1.8371 1.1715 0.3941 0
M  V30 5 O -5.0579 -0.2387 -0.0988 0
M  V30 6 N -3.0748 -1.261 0.2853 0 CHG=-1
M  V30 7 N -1.1057 0.027 0.5482 0
M  V30 8 C -1.7359 -1.1916 0.5083 0
M  V30 9 C 0.3139 0.134 0.7709 0
M  V30 10 O -1.0938 -2.2592 0.7009 0
M  V30 11 O 0.7539 1.001 1.5754 0
M  V30 12 N 1.2302 -0.7154 0.0621 0
M  V30 13 C 2.67 -0.701 0.312 0
M  V30 14 C 3.3178 0.5108 -0.3485 0
M  V30 15 H -1.3567 2.1428 0.4298 0
M  V30 16 H 0.8634 -1.3727 -0.6618 0
M  V30 17 H 3.124 -1.6226 -0.112 0
M  V30 18 H 2.8678 -0.6942 1.4058 0
M  V30 19 H 4.416 0.48 -0.1872 0
M  V30 20 H 2.922 1.4517 0.0875 0
M  V30 21 H 3.1158 0.5019 -1.4407 0
M  V30 END ATOM
M  V30 BEGIN BOND
M  V30 1 1 1 2
M  V30 2 1 2 3
M  V30 3 2 2 4
M  V30 4 2 3 5
M  V30 5 1 3 6
M  V30 6 1 4 7
M  V30 7 1 6 8
M  V30 8 1 7 9
M  V30 9 2 8 10
M  V30 10 2 9 11
M  V30 11 1 9 12
M  V30 12 1 12 13
M  V30 13 1 13 14
M  V30 14 1 7 8
M  V30 15 1 4 15
M  V30 16 1 12 16
M  V30 17 1 13 17
M  V30 18 1 13 18
M  V30 19 1 14 19
M  V30 20 1 14 20
M  V30 21 1 14 21
M  V30 END BOND
M  V30 END CTAB
M  END
>  <Structure No>
6676

>  <LogS>
-2.13

>  <MMFF94 Energy>
-25.846

$$$$
Compound 6677
Actelion Java MolfileCreator 2.0

  0  0  0  0  0  0              0 V3000
M  V30 BEGIN CTAB
M  V30 COUNTS 30 31 0 0 0
M  V30 BEGIN ATOM
M  V30 1 O -4.7752 -0.1588 -0.1588 0 CHG=-1
M  V30 2 N -3.3988 -0.1077 -0.1342 0 CHG=1
M  V30 3 C -2.6864 -1.2093 0.2455 0
M  V30 4 C -2.7558 1.0449 -0.487 0
M  V30 5 N -1.3289 -1.1635 0.2704 0
M  V30 6 N -3.3504 -2.4191 0.62 0
M  V30 7 N -3.4989 2.205 -0.8799 0
M  V30 8 C -1.3585 1.097 -0.4621 0
M  V30 9 C -0.6407 -0.043 -0.0755 0
M  V30 10 N 0.8038 -0.0459 -0.0316 0
M  V30 11 C 1.5803 0.887 -0.8674 0
M  V30 12 C 1.5068 -1.0632 0.766 0
M  V30 13 C 3.0179 0.3948 -1.0683 0
M  V30 14 C 2.7975 -0.4787 1.3484 0
M  V30 15 C 3.7233 0.1194 0.2694 0
M  V30 16 H -2.7928 -3.2535 0.9085 0
M  V30 17 H -4.3914 -2.4955 0.6144 0
M  V30 18 H -4.5423 2.1988 -0.907 0
M  V30 19 H -3.0079 3.0868 -1.1493 0
M  V30 20 H -0.8504 2.0149 -0.7274 0
M  V30 21 H 1.1076 0.978 -1.8699 0
M  V30 22 H 1.5928 1.8895 -0.3874 0
M  V30 23 H 1.7397 -1.9417 0.126 0
M  V30 24 H 0.8718 -1.4056 1.6123 0
M  V30 25 H 2.9941 -0.5415 -1.6682 0
M  V30 26 H 3.5943 1.1495 -1.6459 0
M  V30 27 H 2.5225 0.3194 2.0731 0
M  V30 28 H 3.3396 -1.2682 1.9127 0
M  V30 29 H 4.5715 -0.5751 0.0839 0
M  V30 30 H 4.1565 1.0687 0.6541 0
M  V30 END ATOM
M  V30 BEGIN BOND
M  V30 1 1 1 2
M  V30 2 2 2 3
M  V30 3 1 2 4
M  V30 4 1 3 5
M  V30 5 1 3 6
M  V30 6 1 4 7
M  V30 7 2 4 8
M  V30 8 2 5 9
M  V30 9 1 9 10
M  V30 10 1 10 11
M  V30 11 1 10 12
M  V30 12 1 11 13
M  V30 13 1 12 14
M  V30 14 1 13 15
M  V30 15 1 8 9
M  V30 16 1 14 15
M  V30 17 1 6 16
M  V30 18 1 6 17
M  V30 19 1 7 18
M  V30 20 1 7 19
M  V30 21 1 8 20
M  V30 22 1 11 21
M  V30 23 1 11 22
M  V30 24 1 12 23
M  V30 25 1 12 24
M  V30 26 1 13 25
M  V30 27 1 13 26
M  V30 28 1 14 27
M  V30 29 1 14 28
M  V30 30 1 15 29
M  V30 31 1 15 30
M  V30 END BOND
M  V30 END CTAB
M  END
>  <Structure No>
6677

>  <LogS>
-1.94

>  <MMFF94 Energy>
49.563

$$$$
Compound 6678
Actelion Java MolfileCreator 2.0

  0  0  0  0  0  0              0 V3000
M  V30 BEGIN CTAB
M  V30 COUNTS 25 25 0 0 0
M  V30 BEGIN ATOM
M  V30 1 F -4.7201 -2.0779 -0.5591 0
M  V30 2 C -3.9611 -0.9929 -0.2616 0
M  V30 3 C -2.661 -0.8702 -0.754 0
M  V30 4 C -4.468 0.0146 0.5494 0
M  V30 5 O -2.1899 -1.7933 -1.4742 0
M  V30 6 N -1.9095 0.2387 -0.4529 0
M  V30 7 N -3.6975 1.0879 0.8558 0
M  V30 8 C -2.4295 1.2051 0.3738 0
M  V30 9 C -0.5278 0.3543 -0.9504 0
M  V30 10 O -1.7396 2.2105 0.7001 0
M  V30 11 O 0.3629 -0.2477 -0.0165 0
M  V30 12 C 1.745 -0.2914 -0.2126 0
M  V30 13 O 2.2603 0.2077 -1.2514 0
M  V30 14 O 2.5467 -0.9031 0.7564 0
M  V30 15 C 3.9697 -0.9618 0.6763 0
M  V30 16 C 4.5852 0.3878 1.0283 0
M  V30 17 H -5.4737 -0.0616 0.9437 0
M  V30 18 H -4.0888 1.8316 1.4775 0
M  V30 19 H -0.4223 -0.1383 -1.942 0
M  V30 20 H -0.2504 1.4211 -1.1006 0
M  V30 21 H 4.3334 -1.7192 1.4023 0
M  V30 22 H 4.2883 -1.2785 -0.3406 0
M  V30 23 H 4.2584 0.7001 2.0428 0
M  V30 24 H 5.6925 0.3076 1.0155 0
M  V30 25 H 4.2756 1.1589 0.2925 0
M  V30 END ATOM
M  V30 BEGIN BOND
M  V30 1 1 1 2
M  V30 2 1 2 3
M  V30 3 2 2 4
M  V30 4 2 3 5
M  V30 5 1 3 6
M  V30 6 1 4 7
M  V30 7 1 6 8
M  V30 8 1 6 9
M  V30 9 2 8 10
M  V30 10 1 9 11
M  V30 11 1 11 12
M  V30 12 2 12 13
M  V30 13 1 12 14
M  V30 14 1 14 15
M  V30 15 1 15 16
M  V30 16 1 7 8
M  V30 17 1 4 17
M  V30 18 1 7 18
M  V30 19 1 9 19
M  V30 20 1 9 20
M  V30 21 1 15 21
M  V30 22 1 15 22
M  V30 23 1 16 23
M  V30 24 1 16 24
M  V30 25 1 16 25
M  V30 END BOND
M  V30 END CTAB
M  END
>  <Structure No>
6678

>  <LogS>
-1.46

>  <MMFF94 Energy>
-122.54

$$$$
Compound 6679
Actelion Java MolfileCreator 2.0

  0  0  0  0  0  0              0 V3000
M  V30 BEGIN CTAB
M  V30 COUNTS 43 43 0 0 0
M  V30 BEGIN ATOM
M  V30 1 O -3.437 0.078 -1.0145 0
M  V30 2 C -3.1528 -0.6471 0.156 0
M  V30 3 C -4.7347 0.5058 -1.4273 0
M  V30 4 C -1.8104 -0.9565 0.4354 0
M  V30 5 C -4.1635 -1.0664 1.0445 0
M  V30 6 C -5.232 1.6191 -0.5492 0
M  V30 7 O -0.8315 -0.5251 -0.4775 0
M  V30 8 C -1.4951 -1.6861 1.6005 0
M  V30 9 C -3.8369 -1.7845 2.1959 0
M  V30 10 C -6.4341 2.1651 -0.7451 0
M  V30 11 C 0.5837 -0.6488 -0.3216 0
M  V30 12 C -2.5061 -2.0937 2.4731 0
M  V30 13 C 1.1517 0.5168 0.5069 0 CFG=1
M  V30 14 O 0.4927 0.5772 1.7449 0
M  V30 15 C 2.6694 0.3604 0.7507 0
M  V30 16 N 3.4466 0.4229 -0.5032 0 CHG=1
M  V30 17 C 4.8923 0.6335 -0.2627 0
M  V30 18 C 5.5434 -0.5842 0.4178 0
M  V30 19 C 5.6095 0.9243 -1.5897 0
M  V30 20 H -4.6636 0.8799 -2.4703 0
M  V30 21 H -5.4429 -0.3506 -1.4199 0
M  V30 22 H -5.2042 -0.8423 0.8571 0
M  V30 23 H -4.6083 1.9872 0.2606 0
M  V30 24 H -0.4761 -1.9427 1.8488 0
M  V30 25 H -4.6179 -2.1025 2.8747 0
M  V30 26 H -7.0808 1.8175 -1.5452 0
M  V30 27 H -6.7781 2.9672 -0.1002 0
M  V30 28 H 1.0259 -0.6096 -1.3385 0
M  V30 29 H 0.8578 -1.6351 0.1071 0
M  V30 30 H -2.2566 -2.6511 3.3667 0
M  V30 31 H 0.9643 1.4611 -0.0566 0
M  V30 32 H 0.6253 1.4953 2.0995 0
M  V30 33 H 2.8484 -0.6091 1.2656 0
M  V30 34 H 2.9906 1.1757 1.4376 0
M  V30 35 H 3.3128 -0.4635 -1.0435 0
M  V30 36 H 3.0859 1.2199 -1.0795 0
M  V30 37 H 5.041 1.5229 0.3914 0
M  V30 38 H 5.3469 -1.5102 -0.1636 0
M  V30 39 H 5.1542 -0.7123 1.4487 0
M  V30 40 H 6.642 -0.4396 0.4976 0
M  V30 41 H 5.4991 0.0671 -2.288 0
M  V30 42 H 6.6906 1.1093 -1.4131 0
M  V30 43 H 5.1809 1.8316 -2.0662 0
M  V30 END ATOM
M  V30 BEGIN BOND
M  V30 1 1 1 2
M  V30 2 1 1 3
M  V30 3 2 2 4
M  V30 4 1 2 5
M  V30 5 1 3 6
M  V30 6 1 4 7
M  V30 7 1 4 8
M  V30 8 2 5 9
M  V30 9 2 6 10
M  V30 10 1 7 11
M  V30 11 2 8 12
M  V30 12 1 11 13
M  V30 13 1 13 14
M  V30 14 1 13 15
M  V30 15 1 15 16
M  V30 16 1 16 17
M  V30 17 1 17 18
M  V30 18 1 17 19
M  V30 19 1 9 12
M  V30 20 1 3 20
M  V30 21 1 3 21
M  V30 22 1 5 22
M  V30 23 1 6 23
M  V30 24 1 8 24
M  V30 25 1 9 25
M  V30 26 1 10 26
M  V30 27 1 10 27
M  V30 28 1 11 28
M  V30 29 1 11 29
M  V30 30 1 12 30
M  V30 31 1 13 31
M  V30 32 1 14 32
M  V30 33 1 15 33
M  V30 34 1 15 34
M  V30 35 1 16 35
M  V30 36 1 16 36
M  V30 37 1 17 37
M  V30 38 1 18 38
M  V30 39 1 18 39
M  V30 40 1 18 40
M  V30 41 1 19 41
M  V30 42 1 19 42
M  V30 43 1 19 43
M  V30 END BOND
M  V30 BEGIN COLLECTION
M  V30 MDLV30/STEABS ATOMS=(1 13)
M  V30 END COLLECTION
M  V30 END CTAB
M  END
>  <Structure No>
6679

>  <LogS>
-0.32

>  <MMFF94 Energy>
75.682

$$$$
Compound 6680
Actelion Java MolfileCreator 2.0

  0  0  0  0  0  0              0 V3000
M  V30 BEGIN CTAB
M  V30 COUNTS 35 35 0 0 0
M  V30 BEGIN ATOM
M  V30 1 O -1.0189 3.2165 -0.1567 0
M  V30 2 C -0.5304 1.9178 0.0075 0
M  V30 3 C -0.1681 4.3392 -0.3561 0
M  V30 4 N -1.4033 0.8966 0.1932 0
M  V30 5 N 0.805 1.6657 -0.0164 0
M  V30 6 C -0.9527 -0.3743 0.3561 0
M  V30 7 C 1.2657 0.399 0.1434 0
M  V30 8 N 0.3828 -0.617 0.3313 0
M  V30 9 N -1.865 -1.4665 0.5539 0
M  V30 10 N 2.677 0.1482 0.1186 0
M  V30 11 C -3.3289 -1.3535 0.6009 0
M  V30 12 C 3.2433 -1.1983 0.2515 0
M  V30 13 C -3.7848 -0.4867 1.7796 0
M  V30 14 C -3.8932 -0.8492 -0.7314 0
M  V30 15 C 3.0841 -1.9674 -1.0634 0
M  V30 16 C 4.7213 -1.1163 0.6465 0
M  V30 17 H 0.5106 4.4615 0.5144 0
M  V30 18 H -0.7885 5.253 -0.4592 0
M  V30 19 H 0.4294 4.2037 -1.2824 0
M  V30 20 H -1.4538 -2.4202 0.6734 0
M  V30 21 H 3.3176 0.9695 0.0234 0
M  V30 22 H -3.7448 -2.3727 0.766 0
M  V30 23 H 2.7085 -1.7458 1.0591 0
M  V30 24 H -4.8883 -0.5512 1.8899 0
M  V30 25 H -3.318 -0.8513 2.7193 0
M  V30 26 H -3.5121 0.5781 1.6324 0
M  V30 27 H -3.5031 -1.4699 -1.5659 0
M  V30 28 H -3.6219 0.2104 -0.9143 0
M  V30 29 H -5.0013 -0.9285 -0.7254 0
M  V30 30 H 3.6016 -1.4342 -1.8895 0
M  V30 31 H 2.0097 -2.0689 -1.3239 0
M  V30 32 H 3.5134 -2.9875 -0.9662 0
M  V30 33 H 5.1379 -2.1363 0.7899 0
M  V30 34 H 4.8256 -0.5593 1.6021 0
M  V30 35 H 5.3087 -0.5936 -0.1388 0
M  V30 END ATOM
M  V30 BEGIN BOND
M  V30 1 1 1 2
M  V30 2 1 1 3
M  V30 3 2 2 4
M  V30 4 1 2 5
M  V30 5 1 4 6
M  V30 6 2 5 7
M  V30 7 2 6 8
M  V30 8 1 6 9
M  V30 9 1 7 10
M  V30 10 1 9 11
M  V30 11 1 10 12
M  V30 12 1 11 13
M  V30 13 1 11 14
M  V30 14 1 12 15
M  V30 15 1 12 16
M  V30 16 1 7 8
M  V30 17 1 3 17
M  V30 18 1 3 18
M  V30 19 1 3 19
M  V30 20 1 9 20
M  V30 21 1 10 21
M  V30 22 1 11 22
M  V30 23 1 12 23
M  V30 24 1 13 24
M  V30 25 1 13 25
M  V30 26 1 13 26
M  V30 27 1 14 27
M  V30 28 1 14 28
M  V30 29 1 14 29
M  V30 30 1 15 30
M  V30 31 1 15 31
M  V30 32 1 15 32
M  V30 33 1 16 33
M  V30 34 1 16 34
M  V30 35 1 16 35
M  V30 END BOND
M  V30 END CTAB
M  END
>  <Structure No>
6680

>  <LogS>
-2.56

>  <MMFF94 Energy>
-238.92

$$$$
Compound 6681
Actelion Java MolfileCreator 2.0

  0  0  0  0  0  0              0 V3000
M  V30 BEGIN CTAB
M  V30 COUNTS 21 21 0 0 0
M  V30 BEGIN ATOM
M  V30 1 F 3.4435 -0.2399 -2.1611 0
M  V30 2 C 2.8023 -0.1364 -0.9698 0
M  V30 3 C 3.5072 0.1172 0.2013 0
M  V30 4 C 1.4199 -0.2858 -0.8988 0
M  V30 5 O 4.7592 0.256 0.1689 0
M  V30 6 N 2.841 0.2157 1.3802 0
M  V30 7 N 0.7643 -0.1875 0.2986 0
M  V30 8 C 1.4877 0.0704 1.4414 0
M  V30 9 C -0.6741 -0.3554 0.3203 0
M  V30 10 O 0.9139 0.1861 2.5592 0
M  V30 11 O -1.2858 -0.5195 1.4126 0
M  V30 12 O -1.3958 -0.3542 -0.882 0
M  V30 13 C -2.8162 -0.4647 -0.9499 0
M  V30 14 C -3.4776 0.8517 -0.5594 0
M  V30 15 H 0.8809 -0.4912 -1.8157 0
M  V30 16 H 3.3773 0.4106 2.2568 0
M  V30 17 H -3.1736 -1.287 -0.2927 0
M  V30 18 H -3.1016 -0.7105 -1.9943 0
M  V30 19 H -4.5787 0.7642 -0.6723 0
M  V30 20 H -3.1121 1.6687 -1.2166 0
M  V30 21 H -3.2471 1.1035 0.4966 0
M  V30 END ATOM
M  V30 BEGIN BOND
M  V30 1 1 1 2
M  V30 2 1 2 3
M  V30 3 2 2 4
M  V30 4 2 3 5
M  V30 5 1 3 6
M  V30 6 1 4 7
M  V30 7 1 6 8
M  V30 8 1 7 9
M  V30 9 2 8 10
M  V30 10 2 9 11
M  V30 11 1 9 12
M  V30 12 1 12 13
M  V30 13 1 13 14
M  V30 14 1 7 8
M  V30 15 1 4 15
M  V30 16 1 6 16
M  V30 17 1 13 17
M  V30 18 1 13 18
M  V30 19 1 14 19
M  V30 20 1 14 20
M  V30 21 1 14 21
M  V30 END BOND
M  V30 END CTAB
M  END
>  <Structure No>
6681

>  <LogS>
-1.47

>  <MMFF94 Energy>
-79.022

$$$$
Compound 6682
Actelion Java MolfileCreator 2.0

  0  0  0  0  0  0              0 V3000
M  V30 BEGIN CTAB
M  V30 COUNTS 21 21 0 0 0
M  V30 BEGIN ATOM
M  V30 1 F 2.4071 3.0497 0.4008 0
M  V30 2 C 2.2589 1.709 0.254 0
M  V30 3 C 3.2977 0.834 0.5648 0
M  V30 4 C 1.0605 1.1788 -0.2208 0
M  V30 5 O 4.395 1.2757 0.9957 0
M  V30 6 N 3.1252 -0.5013 0.3992 0 CHG=-1
M  V30 7 N 0.9112 -0.1708 -0.3645 0
M  V30 8 C 1.9521 -1.0092 -0.0623 0
M  V30 9 C -0.3281 -0.692 -0.876 0
M  V30 10 O 1.8339 -2.2573 -0.1972 0
M  V30 11 O -0.3167 -1.3696 -1.9403 0
M  V30 12 N -1.5729 -0.4625 -0.1848 0
M  V30 13 C -2.8364 -0.7619 -0.8643 0
M  V30 14 C -1.5717 -0.0265 1.2152 0
M  V30 15 H 0.2538 1.8533 -0.4841 0
M  V30 16 H -3.7129 -0.5027 -0.2337 0
M  V30 17 H -2.9035 -0.1731 -1.8035 0
M  V30 18 H -2.8853 -1.8445 -1.1069 0
M  V30 19 H -1.2599 1.0353 1.2828 0
M  V30 20 H -0.8725 -0.6557 1.8059 0
M  V30 21 H -2.5795 -0.1192 1.6718 0
M  V30 END ATOM
M  V30 BEGIN BOND
M  V30 1 1 1 2
M  V30 2 1 2 3
M  V30 3 2 2 4
M  V30 4 2 3 5
M  V30 5 1 3 6
M  V30 6 1 4 7
M  V30 7 1 6 8
M  V30 8 1 7 9
M  V30 9 2 8 10
M  V30 10 2 9 11
M  V30 11 1 9 12
M  V30 12 1 12 13
M  V30 13 1 12 14
M  V30 14 1 7 8
M  V30 15 1 4 15
M  V30 16 1 13 16
M  V30 17 1 13 17
M  V30 18 1 13 18
M  V30 19 1 14 19
M  V30 20 1 14 20
M  V30 21 1 14 21
M  V30 END BOND
M  V30 END CTAB
M  END
>  <Structure No>
6682

>  <LogS>
-1.53

>  <MMFF94 Energy>
3.8244

$$$$
Compound 6683
Actelion Java MolfileCreator 2.0

  0  0  0  0  0  0              0 V3000
M  V30 BEGIN CTAB
M  V30 COUNTS 24 24 0 0 0
M  V30 BEGIN ATOM
M  V30 1 F -2.1539 0.0 -3.5918 0
M  V30 2 C -2.0141 0.2409 -2.2638 0
M  V30 3 C -2.3367 1.4833 -1.7233 0
M  V30 4 C -1.541 -0.755 -1.4131 0
M  V30 5 O -2.7669 2.4043 -2.4681 0
M  V30 6 N -2.1856 1.6996 -0.3901 0
M  V30 7 N -1.3985 -0.514 -0.0754 0
M  V30 8 C -1.7215 0.7184 0.4327 0
M  V30 9 C -0.8819 -1.5731 0.8051 0
M  V30 10 O -1.5913 0.9564 1.6654 0
M  V30 11 O 0.3937 -1.2032 1.3232 0
M  V30 12 C 1.5422 -1.1073 0.531 0
M  V30 13 O 1.5115 -1.4162 -0.6913 0
M  V30 14 C 2.8061 -0.5838 1.1331 0
M  V30 15 C 2.8207 0.9397 1.0981 0
M  V30 16 H -1.2851 -1.7209 -1.8321 0
M  V30 17 H -2.4285 2.6351 0.0098 0
M  V30 18 H -0.8029 -2.5493 0.2767 0
M  V30 19 H -1.5835 -1.7224 1.6536 0
M  V30 20 H 3.683 -0.9762 0.574 0
M  V30 21 H 2.8827 -0.9295 2.1863 0
M  V30 22 H 1.9613 1.3474 1.6731 0
M  V30 23 H 2.7641 1.3018 0.0491 0
M  V30 24 H 3.7622 1.3132 1.5531 0
M  V30 END ATOM
M  V30 BEGIN BOND
M  V30 1 1 1 2
M  V30 2 1 2 3
M  V30 3 2 2 4
M  V30 4 2 3 5
M  V30 5 1 3 6
M  V30 6 1 4 7
M  V30 7 1 6 8
M  V30 8 1 7 9
M  V30 9 2 8 10
M  V30 10 1 9 11
M  V30 11 1 11 12
M  V30 12 2 12 13
M  V30 13 1 12 14
M  V30 14 1 14 15
M  V30 15 1 7 8
M  V30 16 1 4 16
M  V30 17 1 6 17
M  V30 18 1 9 18
M  V30 19 1 9 19
M  V30 20 1 14 20
M  V30 21 1 14 21
M  V30 22 1 15 22
M  V30 23 1 15 23
M  V30 24 1 15 24
M  V30 END BOND
M  V30 END CTAB
M  END
>  <Structure No>
6683

>  <LogS>
-0.81

>  <MMFF94 Energy>
-93.824

$$$$
Compound 6684
Actelion Java MolfileCreator 2.0

  0  0  0  0  0  0              0 V3000
M  V30 BEGIN CTAB
M  V30 COUNTS 21 21 0 0 0
M  V30 BEGIN ATOM
M  V30 1 F 3.7648 -1.6808 1.6007 0
M  V30 2 C 2.9942 -0.8428 0.862 0
M  V30 3 C 1.6306 -0.7034 1.1251 0
M  V30 4 C 3.5537 -0.115 -0.179 0
M  V30 5 O 1.1191 -1.3853 2.0557 0
M  V30 6 N 0.8613 0.1483 0.368 0
M  V30 7 N 2.7767 0.7158 -0.9161 0
M  V30 8 C 1.448 0.8576 -0.6537 0
M  V30 9 C -0.5528 0.2957 0.638 0
M  V30 10 O 0.7714 1.6627 -1.3515 0
M  V30 11 O -0.9858 0.2051 1.8208 0
M  V30 12 O -1.4445 0.5477 -0.4136 0
M  V30 13 C -2.8562 0.6562 -0.2409 0
M  V30 14 C -3.4821 -0.7202 -0.0493 0
M  V30 15 H 4.609 -0.2113 -0.4018 0
M  V30 16 H 3.2139 1.2597 -1.6942 0
M  V30 17 H -3.2887 1.1205 -1.1521 0
M  V30 18 H -3.092 1.3124 0.625 0
M  V30 19 H -3.102 -1.1932 0.88 0
M  V30 20 H -4.5855 -0.6212 0.0271 0
M  V30 21 H -3.2382 -1.371 -0.9154 0
M  V30 END ATOM
M  V30 BEGIN BOND
M  V30 1 1 1 2
M  V30 2 1 2 3
M  V30 3 2 2 4
M  V30 4 2 3 5
M  V30 5 1 3 6
M  V30 6 1 4 7
M  V30 7 1 6 8
M  V30 8 1 6 9
M  V30 9 2 8 10
M  V30 10 2 9 11
M  V30 11 1 9 12
M  V30 12 1 12 13
M  V30 13 1 13 14
M  V30 14 1 7 8
M  V30 15 1 4 15
M  V30 16 1 7 16
M  V30 17 1 13 17
M  V30 18 1 13 18
M  V30 19 1 14 19
M  V30 20 1 14 20
M  V30 21 1 14 21
M  V30 END BOND
M  V30 END CTAB
M  END
>  <Structure No>
6684

>  <LogS>
-0.45

>  <MMFF94 Energy>
-76.973

$$$$
Compound 6685
Actelion Java MolfileCreator 2.0

  0  0  0  0  0  0              0 V3000
M  V30 BEGIN CTAB
M  V30 COUNTS 68 70 0 0 0
M  V30 BEGIN ATOM
M  V30 1 O -7.0611 -1.7617 0.8805 0
M  V30 2 C -6.4461 -0.6913 0.6336 0
M  V30 3 O -5.1226 -0.7486 0.18 0
M  V30 4 C -7.1795 0.6177 0.7144 0
M  V30 5 C -4.2532 0.3852 0.1377 0 CFG=2
M  V30 6 C -6.214 1.8033 0.8708 0 CFG=2
M  V30 7 C -5.0525 1.6809 -0.1245 0
M  V30 8 C -3.1716 0.1394 -0.9334 0
M  V30 9 O -5.7131 1.8563 2.1846 0
M  V30 10 C -1.9497 1.0908 -0.8393 0
M  V30 11 C -0.6758 0.4916 -0.1795 0 CFG=2
M  V30 12 C -0.068 -0.688 -1.0302 0 CFG=2
M  V30 13 C -0.8995 0.1499 1.3281 0 CFG=1
M  V30 14 C 0.0634 -1.9925 -0.2571 0
M  V30 15 C 1.2536 -0.3006 -1.7307 0 CFG=1
M  V30 16 C -1.4171 -1.2532 1.5154 0
M  V30 17 C 0.3889 0.3259 2.1414 0
M  V30 18 C -0.9038 -2.2645 0.8188 0
M  V30 19 C 0.9422 -2.944 -0.6149 0
M  V30 20 O 2.2343 0.1078 -0.7709 0
M  V30 21 C 1.7601 -1.5055 -2.5415 0
M  V30 22 C 2.047 -2.7074 -1.6201 0 CFG=2
M  V30 23 C 3.4362 0.74 -1.1223 0
M  V30 24 C 2.2908 -3.9719 -2.4478 0
M  V30 25 O 3.6444 1.0695 -2.3223 0
M  V30 26 C 4.4811 1.0106 -0.0516 0
M  V30 27 C 3.835 1.9362 1.0204 0
M  V30 28 C 4.8897 -0.3443 0.565 0
M  V30 29 C 5.7319 1.6777 -0.6763 0
M  V30 30 C 4.785 2.4466 2.111 0
M  V30 31 H -7.8967 0.5989 1.564 0
M  V30 32 H -7.7652 0.7454 -0.2212 0
M  V30 33 H -3.7709 0.467 1.1318 0
M  V30 34 H -6.7643 2.7484 0.6482 0
M  V30 35 H -4.3953 2.57 -0.0143 0
M  V30 36 H -5.4595 1.6758 -1.1598 0
M  V30 37 H -2.8501 -0.9232 -0.8798 0
M  V30 38 H -3.6401 0.2564 -1.9369 0
M  V30 39 H -6.4423 2.2044 2.7611 0
M  V30 40 H -1.6751 1.4024 -1.8736 0
M  V30 41 H -2.2157 2.0317 -0.3109 0
M  V30 42 H 0.049 1.3382 -0.2009 0
M  V30 43 H -0.7758 -0.9209 -1.8565 0
M  V30 44 H -1.6321 0.8581 1.7686 0
M  V30 45 H 1.0455 0.5424 -2.4285 0
M  V30 46 H -2.1632 -1.4478 2.2776 0
M  V30 47 H 0.2134 0.0527 3.2041 0
M  V30 48 H 1.2036 -0.3135 1.7413 0
M  V30 49 H 0.7115 1.3881 2.1138 0
M  V30 50 H -1.2017 -3.2806 1.0489 0
M  V30 51 H 0.9693 -3.8706 -0.0515 0
M  V30 52 H 0.9913 -1.7802 -3.299 0
M  V30 53 H 2.6841 -1.2314 -3.0953 0
M  V30 54 H 2.9755 -2.4911 -1.0471 0
M  V30 55 H 2.5678 -4.8181 -1.7828 0
M  V30 56 H 1.3794 -4.2479 -3.0209 0
M  V30 57 H 3.1258 -3.8073 -3.1609 0
M  V30 58 H 3.3743 2.8216 0.5208 0
M  V30 59 H 3.0137 1.3857 1.5277 0
M  V30 60 H 5.7098 -0.2175 1.3018 0
M  V30 61 H 4.0283 -0.8242 1.0788 0
M  V30 62 H 5.2481 -1.0379 -0.2277 0
M  V30 63 H 6.1259 1.067 -1.5191 0
M  V30 64 H 5.482 2.6917 -1.0606 0
M  V30 65 H 6.5513 1.7715 0.067 0
M  V30 66 H 5.266 1.6037 2.6472 0
M  V30 67 H 4.2036 3.0358 2.8524 0
M  V30 68 H 5.5592 3.1155 1.682 0
M  V30 END ATOM
M  V30 BEGIN BOND
M  V30 1 2 1 2
M  V30 2 1 2 3
M  V30 3 1 2 4
M  V30 4 1 3 5
M  V30 5 1 4 6
M  V30 6 1 5 7
M  V30 7 1 5 8
M  V30 8 1 6 9
M  V30 9 1 8 10
M  V30 10 1 10 11
M  V30 11 1 11 12
M  V30 12 1 11 13
M  V30 13 1 12 14
M  V30 14 1 12 15
M  V30 15 1 13 16
M  V30 16 1 13 17
M  V30 17 1 14 18
M  V30 18 2 14 19
M  V30 19 1 15 20
M  V30 20 1 15 21
M  V30 21 1 19 22
M  V30 22 1 20 23
M  V30 23 1 22 24
M  V30 24 2 23 25
M  V30 25 1 23 26
M  V30 26 1 26 27
M  V30 27 1 26 28
M  V30 28 1 26 29
M  V30 29 1 27 30
M  V30 30 1 6 7
M  V30 31 2 16 18
M  V30 32 1 21 22
M  V30 33 1 4 31
M  V30 34 1 4 32
M  V30 35 1 5 33
M  V30 36 1 6 34
M  V30 37 1 7 35
M  V30 38 1 7 36
M  V30 39 1 8 37
M  V30 40 1 8 38
M  V30 41 1 9 39
M  V30 42 1 10 40
M  V30 43 1 10 41
M  V30 44 1 11 42
M  V30 45 1 12 43
M  V30 46 1 13 44
M  V30 47 1 15 45
M  V30 48 1 16 46
M  V30 49 1 17 47
M  V30 50 1 17 48
M  V30 51 1 17 49
M  V30 52 1 18 50
M  V30 53 1 19 51
M  V30 54 1 21 52
M  V30 55 1 21 53
M  V30 56 1 22 54
M  V30 57 1 24 55
M  V30 58 1 24 56
M  V30 59 1 24 57
M  V30 60 1 27 58
M  V30 61 1 27 59
M  V30 62 1 28 60
M  V30 63 1 28 61
M  V30 64 1 28 62
M  V30 65 1 29 63
M  V30 66 1 29 64
M  V30 67 1 29 65
M  V30 68 1 30 66
M  V30 69 1 30 67
M  V30 70 1 30 68
M  V30 END BOND
M  V30 BEGIN COLLECTION
M  V30 MDLV30/STEABS ATOMS=(7 5 6 11 12 13 15 22)
M  V30 END COLLECTION
M  V30 END CTAB
M  END
>  <Structure No>
6685

>  <LogS>
-5.48

>  <MMFF94 Energy>
32.902

$$$$
Compound 6686
Actelion Java MolfileCreator 2.0

  0  0  0  0  0  0              0 V3000
M  V30 BEGIN CTAB
M  V30 COUNTS 30 30 0 0 0
M  V30 BEGIN ATOM
M  V30 1 F 4.4615 2.7069 0.7955 0
M  V30 2 C 3.8965 1.5878 0.2766 0
M  V30 3 C 4.3833 1.018 -0.897 0
M  V30 4 C 2.8101 0.9886 0.9093 0
M  V30 5 O 5.3654 1.5372 -1.4917 0
M  V30 6 N 3.7933 -0.0975 -1.4014 0
M  V30 7 N 2.2451 -0.1428 0.3927 0
M  V30 8 C 2.7307 -0.6749 -0.7746 0
M  V30 9 C 1.0802 -0.7373 1.0604 0
M  V30 10 O 2.1982 -1.7009 -1.2809 0
M  V30 11 O -0.1066 -0.3313 0.3877 0
M  V30 12 C -1.3825 -0.7528 0.779 0
M  V30 13 O -1.5182 -1.4914 1.7943 0
M  V30 14 C -2.6073 -0.2654 0.0296 0
M  V30 15 C -3.2425 0.8932 0.8175 0
M  V30 16 C -2.214 0.2294 -1.3772 0
M  V30 17 C -3.6276 -1.4126 -0.1148 0
M  V30 18 H 2.4218 1.4355 1.8171 0
M  V30 19 H 4.1584 -0.5163 -2.2874 0
M  V30 20 H 1.0299 -0.4215 2.1266 0
M  V30 21 H 1.1584 -1.8469 1.0508 0
M  V30 22 H -4.1427 1.2782 0.2912 0
M  V30 23 H -2.5196 1.73 0.9322 0
M  V30 24 H -3.5494 0.5566 1.8317 0
M  V30 25 H -1.5129 1.0897 -1.3132 0
M  V30 26 H -1.7209 -0.5838 -1.9528 0
M  V30 27 H -3.112 0.5618 -1.9418 0
M  V30 28 H -4.5195 -1.0749 -0.6858 0
M  V30 29 H -3.1725 -2.2724 -0.6528 0
M  V30 30 H -3.9731 -1.7653 0.8809 0
M  V30 END ATOM
M  V30 BEGIN BOND
M  V30 1 1 1 2
M  V30 2 1 2 3
M  V30 3 2 2 4
M  V30 4 2 3 5
M  V30 5 1 3 6
M  V30 6 1 4 7
M  V30 7 1 6 8
M  V30 8 1 7 9
M  V30 9 2 8 10
M  V30 10 1 9 11
M  V30 11 1 11 12
M  V30 12 2 12 13
M  V30 13 1 12 14
M  V30 14 1 14 15
M  V30 15 1 14 16
M  V30 16 1 14 17
M  V30 17 1 7 8
M  V30 18 1 4 18
M  V30 19 1 6 19
M  V30 20 1 9 20
M  V30 21 1 9 21
M  V30 22 1 15 22
M  V30 23 1 15 23
M  V30 24 1 15 24
M  V30 25 1 16 25
M  V30 26 1 16 26
M  V30 27 1 16 27
M  V30 28 1 17 28
M  V30 29 1 17 29
M  V30 30 1 17 30
M  V30 END BOND
M  V30 END CTAB
M  END
>  <Structure No>
6686

>  <LogS>
-2.03

>  <MMFF94 Energy>
-78.343

$$$$
Compound 6687
Actelion Java MolfileCreator 2.0

  0  0  0  0  0  0              0 V3000
M  V30 BEGIN CTAB
M  V30 COUNTS 27 27 0 0 0
M  V30 BEGIN ATOM
M  V30 1 F -4.0635 -1.592 2.2293 0
M  V30 2 C -3.5677 -0.932 1.1525 0
M  V30 3 C -4.0906 -1.1441 -0.1206 0
M  V30 4 C -2.5198 -0.0269 1.302 0
M  V30 5 O -5.039 -1.957 -0.2872 0
M  V30 6 N -3.5746 -0.472 -1.1832 0
M  V30 7 N -2.0187 0.6384 0.2186 0
M  V30 8 C -2.5491 0.4106 -1.0256 0
M  V30 9 C -0.9028 1.5806 0.3941 0
M  V30 10 O -2.0933 1.0147 -2.0357 0
M  V30 11 O 0.2731 1.0756 -0.2344 0
M  V30 12 C 0.9732 -0.0404 0.2354 0
M  V30 13 O 0.6211 -0.6238 1.2968 0
M  V30 14 C 2.184 -0.5121 -0.5042 0
M  V30 15 C 3.4287 0.2398 -0.0257 0
M  V30 16 C 4.6743 -0.2243 -0.7748 0
M  V30 17 H -2.1086 0.1367 2.2912 0
M  V30 18 H -3.9708 -0.6362 -2.1371 0
M  V30 19 H -0.6962 1.7818 1.4691 0
M  V30 20 H -1.1657 2.5556 -0.0689 0
M  V30 21 H 2.0328 -0.3385 -1.5916 0
M  V30 22 H 2.3152 -1.6045 -0.3418 0
M  V30 23 H 3.577 0.065 1.0625 0
M  V30 24 H 3.2945 1.3313 -0.1921 0
M  V30 25 H 5.5594 0.3368 -0.4077 0
M  V30 26 H 4.8454 -1.3086 -0.6041 0
M  V30 27 H 4.5616 -0.0373 -1.864 0
M  V30 END ATOM
M  V30 BEGIN BOND
M  V30 1 1 1 2
M  V30 2 1 2 3
M  V30 3 2 2 4
M  V30 4 2 3 5
M  V30 5 1 3 6
M  V30 6 1 4 7
M  V30 7 1 6 8
M  V30 8 1 7 9
M  V30 9 2 8 10
M  V30 10 1 9 11
M  V30 11 1 11 12
M  V30 12 2 12 13
M  V30 13 1 12 14
M  V30 14 1 14 15
M  V30 15 1 15 16
M  V30 16 1 7 8
M  V30 17 1 4 17
M  V30 18 1 6 18
M  V30 19 1 9 19
M  V30 20 1 9 20
M  V30 21 1 14 21
M  V30 22 1 14 22
M  V30 23 1 15 23
M  V30 24 1 15 24
M  V30 25 1 16 25
M  V30 26 1 16 26
M  V30 27 1 16 27
M  V30 END BOND
M  V30 END CTAB
M  END
>  <Structure No>
6687

>  <LogS>
-1.31

>  <MMFF94 Energy>
-90.819

$$$$
Compound 6688
Actelion Java MolfileCreator 2.0

  0  0  0  0  0  0              0 V3000
M  V30 BEGIN CTAB
M  V30 COUNTS 32 33 0 0 0
M  V30 BEGIN ATOM
M  V30 1 O 1.1989 1.3589 -0.5593 0
M  V30 2 C 1.7791 0.4832 0.1405 0
M  V30 3 O 1.0663 -0.2127 1.1256 0
M  V30 4 C 3.2125 0.1893 -0.077 0
M  V30 5 C -0.3227 -0.0066 1.3797 0
M  V30 6 C 3.8618 -0.7896 0.6971 0
M  V30 7 C 3.9472 0.8803 -1.059 0
M  V30 8 C -1.172 -0.5956 0.2853 0
M  V30 9 C 5.2164 -1.0697 0.4922 0
M  V30 10 C 5.3016 0.5961 -1.2594 0
M  V30 11 O -0.667 -1.4423 -0.5014 0
M  V30 12 N -2.564 -0.2549 0.1619 0
M  V30 13 C 5.9356 -0.3777 -0.4847 0
M  V30 14 C -3.2594 0.6768 1.0337 0
M  V30 15 C -3.4378 -0.8581 -0.829 0
M  V30 16 C -4.6739 0.7832 0.4783 0
M  V30 17 C -4.8452 -0.4007 -0.4699 0
M  V30 18 H -0.5861 -0.5058 2.3351 0
M  V30 19 H -0.521 1.0802 1.491 0
M  V30 20 H 3.3251 -1.3394 1.46 0
M  V30 21 H 3.4768 1.6392 -1.6716 0
M  V30 22 H 5.7088 -1.8243 1.0919 0
M  V30 23 H 5.8598 1.1316 -2.0164 0
M  V30 24 H 6.9839 -0.5961 -0.6414 0
M  V30 25 H -2.7655 1.672 1.0151 0
M  V30 26 H -3.2758 0.2777 2.071 0
M  V30 27 H -3.1552 -0.4987 -1.8421 0
M  V30 28 H -3.3674 -1.9669 -0.787 0
M  V30 29 H -5.4307 0.761 1.2926 0
M  V30 30 H -4.7812 1.7324 -0.0917 0
M  V30 31 H -5.3814 -1.2213 0.0559 0
M  V30 32 H -5.4204 -0.1125 -1.3765 0
M  V30 END ATOM
M  V30 BEGIN BOND
M  V30 1 2 1 2
M  V30 2 1 2 3
M  V30 3 1 2 4
M  V30 4 1 3 5
M  V30 5 2 4 6
M  V30 6 1 4 7
M  V30 7 1 5 8
M  V30 8 1 6 9
M  V30 9 2 7 10
M  V30 10 2 8 11
M  V30 11 1 8 12
M  V30 12 2 9 13
M  V30 13 1 12 14
M  V30 14 1 12 15
M  V30 15 1 14 16
M  V30 16 1 15 17
M  V30 17 1 10 13
M  V30 18 1 16 17
M  V30 19 1 5 18
M  V30 20 1 5 19
M  V30 21 1 6 20
M  V30 22 1 7 21
M  V30 23 1 9 22
M  V30 24 1 10 23
M  V30 25 1 13 24
M  V30 26 1 14 25
M  V30 27 1 14 26
M  V30 28 1 15 27
M  V30 29 1 15 28
M  V30 30 1 16 29
M  V30 31 1 16 30
M  V30 32 1 17 31
M  V30 33 1 17 32
M  V30 END BOND
M  V30 END CTAB
M  END
>  <Structure No>
6688

>  <LogS>
-1.57

>  <MMFF94 Energy>
39.166

$$$$
Compound 6689
Actelion Java MolfileCreator 2.0

  0  0  0  0  0  0              0 V3000
M  V30 BEGIN CTAB
M  V30 COUNTS 51 52 0 0 0
M  V30 BEGIN ATOM
M  V30 1 O -0.9448 0.3148 0.0 0
M  V30 2 C -1.712 -0.6765 0.6418 0
M  V30 3 C 0.4759 0.4384 0.0651 0
M  V30 4 C -3.1245 -0.6093 0.5659 0
M  V30 5 C -1.1076 -1.7238 1.3702 0
M  V30 6 C 1.1528 -0.5031 -0.9477 0 CFG=1
M  V30 7 C -3.8938 -1.5614 1.2674 0
M  V30 8 C -3.8075 0.4933 -0.2358 0
M  V30 9 C -1.8871 -2.6667 2.0381 0
M  V30 10 O 0.9807 0.0125 -2.2449 0
M  V30 11 C 2.6539 -0.7174 -0.6351 0
M  V30 12 C -3.276 -2.5811 1.9943 0
M  V30 13 C -4.7941 -0.0206 -1.2836 0
M  V30 14 C -4.611 1.4544 0.6316 0
M  V30 15 N 3.4434 0.5249 -0.7748 0 CHG=1
M  V30 16 C -5.7844 1.1137 -1.5035 0
M  V30 17 C -5.6581 2.0555 -0.2991 0
M  V30 18 C 4.8953 0.3927 -0.4549 0
M  V30 19 C 5.5759 -0.6902 -1.3206 0
M  V30 20 C 5.5863 1.7414 -0.7507 0
M  V30 21 C 5.113 0.0636 1.0403 0
M  V30 22 H 0.7357 1.4895 -0.1843 0
M  V30 23 H 0.8294 0.2567 1.1026 0
M  V30 24 H -0.0321 -1.8247 1.4241 0
M  V30 25 H 0.6544 -1.5007 -0.8843 0
M  V30 26 H -4.9726 -1.5267 1.2458 0
M  V30 27 H -3.0571 1.0978 -0.7866 0
M  V30 28 H -1.4096 -3.4635 2.5965 0
M  V30 29 H 1.2563 -0.7054 -2.8802 0
M  V30 30 H 3.0299 -1.4864 -1.3387 0
M  V30 31 H 2.736 -1.1254 0.3909 0
M  V30 32 H -3.8735 -3.3137 2.5178 0
M  V30 33 H -5.3516 -0.9083 -0.9206 0
M  V30 34 H -4.2737 -0.2847 -2.2296 0
M  V30 35 H -3.9615 2.2389 1.0719 0
M  V30 36 H -5.1259 0.9153 1.4578 0
M  V30 37 H 3.3405 0.8689 -1.7607 0
M  V30 38 H 3.0339 1.2565 -0.1448 0
M  V30 39 H -5.5335 1.6569 -2.4414 0
M  V30 40 H -6.8227 0.7199 -1.586 0
M  V30 41 H -6.6379 2.1631 0.2284 0
M  V30 42 H -5.3278 3.0634 -0.6416 0
M  V30 43 H 5.2545 -1.7052 -1.0086 0
M  V30 44 H 5.322 -0.5401 -2.3942 0
M  V30 45 H 6.6887 -0.6487 -1.2092 0
M  V30 46 H 5.1552 2.5449 -0.1214 0
M  V30 47 H 6.6755 1.6932 -0.546 0
M  V30 48 H 5.4454 2.0242 -1.8106 0
M  V30 49 H 4.5437 0.7558 1.6844 0
M  V30 50 H 6.1903 0.1422 1.3108 0
M  V30 51 H 4.7963 -0.9647 1.2717 0
M  V30 END ATOM
M  V30 BEGIN BOND
M  V30 1 1 1 2
M  V30 2 1 1 3
M  V30 3 2 2 4
M  V30 4 1 2 5
M  V30 5 1 3 6
M  V30 6 1 4 7
M  V30 7 1 4 8
M  V30 8 2 5 9
M  V30 9 1 6 10
M  V30 10 1 6 11
M  V30 11 2 7 12
M  V30 12 1 8 13
M  V30 13 1 8 14
M  V30 14 1 11 15
M  V30 15 1 13 16
M  V30 16 1 14 17
M  V30 17 1 15 18
M  V30 18 1 18 19
M  V30 19 1 18 20
M  V30 20 1 18 21
M  V30 21 1 9 12
M  V30 22 1 16 17
M  V30 23 1 3 22
M  V30 24 1 3 23
M  V30 25 1 5 24
M  V30 26 1 6 25
M  V30 27 1 7 26
M  V30 28 1 8 27
M  V30 29 1 9 28
M  V30 30 1 10 29
M  V30 31 1 11 30
M  V30 32 1 11 31
M  V30 33 1 12 32
M  V30 34 1 13 33
M  V30 35 1 13 34
M  V30 36 1 14 35
M  V30 37 1 14 36
M  V30 38 1 15 37
M  V30 39 1 15 38
M  V30 40 1 16 39
M  V30 41 1 16 40
M  V30 42 1 17 41
M  V30 43 1 17 42
M  V30 44 1 19 43
M  V30 45 1 19 44
M  V30 46 1 19 45
M  V30 47 1 20 46
M  V30 48 1 20 47
M  V30 49 1 20 48
M  V30 50 1 21 49
M  V30 51 1 21 50
M  V30 52 1 21 51
M  V30 END BOND
M  V30 BEGIN COLLECTION
M  V30 MDLV30/STEABS ATOMS=(1 6)
M  V30 END COLLECTION
M  V30 END CTAB
M  END
>  <Structure No>
6689

>  <LogS>
-1.84

>  <MMFF94 Energy>
76.774

$$$$
Compound 6690
Actelion Java MolfileCreator 2.0

  0  0  0  0  0  0              0 V3000
M  V30 BEGIN CTAB
M  V30 COUNTS 29 29 0 0 0
M  V30 BEGIN ATOM
M  V30 1 O 1.1093 -1.9022 0.713 0
M  V30 2 C 1.1741 -0.7145 0.2924 0
M  V30 3 O -0.0028 -0.0209 -0.0104 0
M  V30 4 C 2.4877 -0.0445 0.1154 0
M  V30 5 C -1.2981 -0.5978 0.1342 0
M  V30 6 C 3.7092 -0.6985 0.4064 0
M  V30 7 C 2.5242 1.2821 -0.356 0
M  V30 8 C -2.3617 0.3872 -0.2672 0
M  V30 9 O 3.7219 -2.0121 0.8757 0
M  V30 10 C 4.9253 -0.0227 0.2228 0
M  V30 11 C 3.742 1.9426 -0.5341 0
M  V30 12 O -2.0171 1.536 -0.6607 0
M  V30 13 N -3.7627 0.0422 -0.2101 0
M  V30 14 C 4.9403 1.2915 -0.2451 0
M  V30 15 C -4.1882 -1.2864 0.2437 0
M  V30 16 C -4.761 1.0381 -0.6124 0
M  V30 17 H -1.3722 -1.4984 -0.5116 0
M  V30 18 H -1.4526 -0.8896 1.1949 0
M  V30 19 H 1.6103 1.814 -0.5888 0
M  V30 20 H 4.5878 -2.4935 1.0884 0
M  V30 21 H 5.8622 -0.518 0.4438 0
M  V30 22 H 3.7557 2.9622 -0.8971 0
M  V30 23 H 5.8826 1.8058 -0.3841 0
M  V30 24 H -5.2932 -1.3918 0.2293 0
M  V30 25 H -3.843 -1.4575 1.2847 0
M  V30 26 H -3.7625 -2.0662 -0.4213 0
M  V30 27 H -4.6736 1.9376 0.0328 0
M  V30 28 H -5.7958 0.6464 -0.5215 0
M  V30 29 H -4.5931 1.3298 -1.6706 0
M  V30 END ATOM
M  V30 BEGIN BOND
M  V30 1 2 1 2
M  V30 2 1 2 3
M  V30 3 1 2 4
M  V30 4 1 3 5
M  V30 5 2 4 6
M  V30 6 1 4 7
M  V30 7 1 5 8
M  V30 8 1 6 9
M  V30 9 1 6 10
M  V30 10 2 7 11
M  V30 11 2 8 12
M  V30 12 1 8 13
M  V30 13 2 10 14
M  V30 14 1 13 15
M  V30 15 1 13 16
M  V30 16 1 11 14
M  V30 17 1 5 17
M  V30 18 1 5 18
M  V30 19 1 7 19
M  V30 20 1 9 20
M  V30 21 1 10 21
M  V30 22 1 11 22
M  V30 23 1 14 23
M  V30 24 1 15 24
M  V30 25 1 15 25
M  V30 26 1 15 26
M  V30 27 1 16 27
M  V30 28 1 16 28
M  V30 29 1 16 29
M  V30 END BOND
M  V30 END CTAB
M  END
>  <Structure No>
6690

>  <LogS>
-1.71

>  <MMFF94 Energy>
33.24

$$$$
Compound 6691
Actelion Java MolfileCreator 2.0

  0  0  0  0  0  0              0 V3000
M  V30 BEGIN CTAB
M  V30 COUNTS 62 64 0 0 0
M  V30 BEGIN ATOM
M  V30 1 O -5.9441 2.0854 -1.4434 0
M  V30 2 C -4.7557 1.6709 -1.4893 0
M  V30 3 O -4.0794 1.3416 -0.3164 0
M  V30 4 C -4.0449 1.5157 -2.7972 0
M  V30 5 C -2.7927 0.7285 -0.378 0 CFG=1
M  V30 6 C -2.5792 1.9829 -2.6579 0 CFG=2
M  V30 7 C -1.875 1.525 -1.3404 0
M  V30 8 C -2.2211 0.6316 1.053 0
M  V30 9 O -2.4985 3.38 -2.7994 0
M  V30 10 C -0.8243 -0.0222 1.1523 0
M  V30 11 C -0.7262 -1.4764 0.6097 0 CFG=1
M  V30 12 C 0.6804 -2.1554 0.7507 0 CFG=1
M  V30 13 C -1.8128 -2.4432 1.2117 0 CFG=1
M  V30 14 C 0.6076 -3.4159 -0.0966 0
M  V30 15 C 1.9618 -1.3399 0.4192 0 CFG=2
M  V30 16 C -1.6484 -3.8708 0.7188 0
M  V30 17 C -1.8517 -2.4642 2.7528 0
M  V30 18 C -0.5201 -4.327 0.1611 0
M  V30 19 C 1.3133 -3.5675 -1.2331 0
M  V30 20 O 1.9819 -0.0866 1.096 0
M  V30 21 C 2.1111 -1.1737 -1.0953 0
M  V30 22 C 2.3162 -2.5562 -1.726 0
M  V30 23 C 3.1168 0.7173 1.2277 0
M  V30 24 O 4.2492 0.2981 0.8576 0
M  V30 25 C 2.9575 2.1082 1.7805 0 CFG=2
M  V30 26 C 2.6012 3.1182 0.668 0
M  V30 27 C 4.1756 2.5429 2.6085 0
M  V30 28 C 3.6589 3.241 -0.432 0
M  V30 29 H -4.5579 2.0968 -3.596 0
M  V30 30 H -4.068 0.4409 -3.081 0
M  V30 31 H -2.9296 -0.2951 -0.7906 0
M  V30 32 H -2.0214 1.5415 -3.5128 0
M  V30 33 H -1.0017 0.8916 -1.6099 0
M  V30 34 H -1.4699 2.4137 -0.8053 0
M  V30 35 H -2.9444 0.0908 1.6968 0
M  V30 36 H -2.1493 1.6585 1.4743 0
M  V30 37 H -3.0114 3.786 -2.0521 0
M  V30 38 H -0.4869 0.0068 2.2106 0
M  V30 39 H -0.1461 0.634 0.5737 0
M  V30 40 H -0.9326 -1.4038 -0.4815 0
M  V30 41 H 0.8085 -2.4681 1.8075 0
M  V30 42 H -2.8103 -2.1047 0.8587 0
M  V30 43 H 2.8307 -1.9339 0.7894 0
M  V30 44 H -2.4701 -4.5607 0.8663 0
M  V30 45 H -0.9027 -2.8429 3.1831 0
M  V30 46 H -2.0549 -1.4598 3.1721 0
M  V30 47 H -2.6719 -3.1317 3.0969 0
M  V30 48 H -0.4825 -5.3486 -0.1968 0
M  V30 49 H 1.1599 -4.449 -1.8437 0
M  V30 50 H 1.2076 -0.6847 -1.5218 0
M  V30 51 H 2.99 -0.537 -1.3337 0
M  V30 52 H 2.237 -2.468 -2.8314 0
M  V30 53 H 3.337 -2.9268 -1.4867 0
M  V30 54 H 2.0917 2.0851 2.4805 0
M  V30 55 H 2.4389 4.1214 1.1184 0
M  V30 56 H 1.6391 2.8169 0.1994 0
M  V30 57 H 4.0249 3.5731 2.9956 0
M  V30 58 H 5.1071 2.5191 2.0052 0
M  V30 59 H 4.3018 1.8609 3.4765 0
M  V30 60 H 4.6262 3.5904 -0.0226 0
M  V30 61 H 3.7991 2.2728 -0.9547 0
M  V30 62 H 3.3175 3.9885 -1.1776 0
M  V30 END ATOM
M  V30 BEGIN BOND
M  V30 1 2 1 2
M  V30 2 1 2 3
M  V30 3 1 2 4
M  V30 4 1 3 5
M  V30 5 1 4 6
M  V30 6 1 5 7
M  V30 7 1 5 8
M  V30 8 1 6 9
M  V30 9 1 8 10
M  V30 10 1 10 11
M  V30 11 1 11 12
M  V30 12 1 11 13
M  V30 13 1 12 14
M  V30 14 1 12 15
M  V30 15 1 13 16
M  V30 16 1 13 17
M  V30 17 1 14 18
M  V30 18 2 14 19
M  V30 19 1 15 20
M  V30 20 1 15 21
M  V30 21 1 19 22
M  V30 22 1 20 23
M  V30 23 2 23 24
M  V30 24 1 23 25
M  V30 25 1 25 26
M  V30 26 1 25 27
M  V30 27 1 26 28
M  V30 28 1 6 7
M  V30 29 2 16 18
M  V30 30 1 21 22
M  V30 31 1 4 29
M  V30 32 1 4 30
M  V30 33 1 5 31
M  V30 34 1 6 32
M  V30 35 1 7 33
M  V30 36 1 7 34
M  V30 37 1 8 35
M  V30 38 1 8 36
M  V30 39 1 9 37
M  V30 40 1 10 38
M  V30 41 1 10 39
M  V30 42 1 11 40
M  V30 43 1 12 41
M  V30 44 1 13 42
M  V30 45 1 15 43
M  V30 46 1 16 44
M  V30 47 1 17 45
M  V30 48 1 17 46
M  V30 49 1 17 47
M  V30 50 1 18 48
M  V30 51 1 19 49
M  V30 52 1 21 50
M  V30 53 1 21 51
M  V30 54 1 22 52
M  V30 55 1 22 53
M  V30 56 1 25 54
M  V30 57 1 26 55
M  V30 58 1 26 56
M  V30 59 1 27 57
M  V30 60 1 27 58
M  V30 61 1 27 59
M  V30 62 1 28 60
M  V30 63 1 28 61
M  V30 64 1 28 62
M  V30 END BOND
M  V30 BEGIN COLLECTION
M  V30 MDLV30/STEABS ATOMS=(7 5 6 11 12 13 15 25)
M  V30 END COLLECTION
M  V30 END CTAB
M  END
>  <Structure No>
6691

>  <LogS>
-5.42

>  <MMFF94 Energy>
14.647

$$$$
Compound 6692
Actelion Java MolfileCreator 2.0

  0  0  0  0  0  0              0 V3000
M  V30 BEGIN CTAB
M  V30 COUNTS 27 27 0 0 0
M  V30 BEGIN ATOM
M  V30 1 F 4.4662 2.3907 0.7964 0
M  V30 2 C 3.955 1.1925 0.4162 0
M  V30 3 C 4.7786 0.1916 -0.0865 0
M  V30 4 C 2.5897 0.9425 0.5263 0
M  V30 5 O 6.0185 0.388 -0.1967 0
M  V30 6 N 4.2413 -0.9983 -0.4593 0
M  V30 7 N 2.0649 -0.2643 0.1499 0
M  V30 8 C 2.9037 -1.2346 -0.3504 0
M  V30 9 C 0.6389 -0.4766 0.2883 0
M  V30 10 O 2.4516 -2.3516 -0.7248 0
M  V30 11 O 0.1493 -1.6364 0.1916 0
M  V30 12 O -0.2072 0.6108 0.5499 0
M  V30 13 C -1.6259 0.5 0.6504 0
M  V30 14 C -2.25 0.343 -0.7419 0
M  V30 15 C -3.7848 0.3986 -0.7115 0
M  V30 16 C -4.4065 -0.8393 -0.0657 0
M  V30 17 H 1.9577 1.7261 0.9271 0
M  V30 18 H 4.8663 -1.7453 -0.8403 0
M  V30 19 H -1.8905 -0.3568 1.3062 0
M  V30 20 H -2.0125 1.428 1.1227 0
M  V30 21 H -1.9178 -0.6112 -1.204 0
M  V30 22 H -1.8841 1.1723 -1.3858 0
M  V30 23 H -4.1252 1.3103 -0.174 0
M  V30 24 H -4.1542 0.4682 -1.7576 0
M  V30 25 H -4.1652 -0.881 1.0165 0
M  V30 26 H -4.0403 -1.7626 -0.5629 0
M  V30 27 H -5.511 -0.7954 -0.172 0
M  V30 END ATOM
M  V30 BEGIN BOND
M  V30 1 1 1 2
M  V30 2 1 2 3
M  V30 3 2 2 4
M  V30 4 2 3 5
M  V30 5 1 3 6
M  V30 6 1 4 7
M  V30 7 1 6 8
M  V30 8 1 7 9
M  V30 9 2 8 10
M  V30 10 2 9 11
M  V30 11 1 9 12
M  V30 12 1 12 13
M  V30 13 1 13 14
M  V30 14 1 14 15
M  V30 15 1 15 16
M  V30 16 1 7 8
M  V30 17 1 4 17
M  V30 18 1 6 18
M  V30 19 1 13 19
M  V30 20 1 13 20
M  V30 21 1 14 21
M  V30 22 1 14 22
M  V30 23 1 15 23
M  V30 24 1 15 24
M  V30 25 1 16 25
M  V30 26 1 16 26
M  V30 27 1 16 27
M  V30 END BOND
M  V30 END CTAB
M  END
>  <Structure No>
6692

>  <LogS>
-1.59

>  <MMFF94 Energy>
-79.97

$$$$
Compound 6693
Actelion Java MolfileCreator 2.0

  0  0  0  0  0  0              0 V3000
M  V30 BEGIN CTAB
M  V30 COUNTS 35 35 0 0 0
M  V30 BEGIN ATOM
M  V30 1 Cl 1.5139 3.0296 2.0721 0
M  V30 2 C 0.9462 1.4652 2.7039 0
M  V30 3 C -0.2248 0.9882 1.8915 0
M  V30 4 O -1.3555 1.4885 2.1437 0
M  V30 5 N -0.0952 0.0405 0.8048 0
M  V30 6 C -1.2139 -0.1499 -0.0831 0
M  V30 7 C 1.0874 -0.8166 0.6301 0
M  V30 8 C -2.1135 -1.221 0.1355 0
M  V30 9 C -1.4353 0.7407 -1.1626 0
M  V30 10 C 2.1706 -0.1048 -0.1774 0
M  V30 11 C -3.1779 -1.4245 -0.7553 0
M  V30 12 C -1.9236 -2.1789 1.2813 0
M  V30 13 C -2.5102 0.5132 -2.0351 0
M  V30 14 C -0.5123 1.8939 -1.4541 0
M  V30 15 O 3.3189 -0.9241 -0.2291 0
M  V30 16 C -3.3737 -0.5617 -1.832 0
M  V30 17 C 4.3236 -0.2733 -0.974 0
M  V30 18 H 0.6287 1.6071 3.7586 0
M  V30 19 H 1.7894 0.7502 2.707 0
M  V30 20 H 1.4797 -1.1435 1.6156 0
M  V30 21 H 0.8082 -1.7472 0.0886 0
M  V30 22 H 1.7777 0.0775 -1.2025 0
M  V30 23 H 2.4068 0.8687 0.3047 0
M  V30 24 H -3.8605 -2.2539 -0.6159 0
M  V30 25 H -1.5852 -1.6417 2.192 0
M  V30 26 H -1.1697 -2.9447 1.0056 0
M  V30 27 H -2.8756 -2.693 1.5334 0
M  V30 28 H -2.678 1.1702 -2.88 0
M  V30 29 H -1.099 2.7796 -1.7786 0
M  V30 30 H 0.0766 2.1963 -0.5662 0
M  V30 31 H 0.1845 1.6119 -2.2702 0
M  V30 32 H -4.1985 -0.7275 -2.5133 0
M  V30 33 H 4.6279 0.6822 -0.4916 0
M  V30 34 H 3.996 -0.0928 -2.0222 0
M  V30 35 H 5.2173 -0.9294 -1.0105 0
M  V30 END ATOM
M  V30 BEGIN BOND
M  V30 1 1 1 2
M  V30 2 1 2 3
M  V30 3 2 3 4
M  V30 4 1 3 5
M  V30 5 1 5 6
M  V30 6 1 5 7
M  V30 7 2 6 8
M  V30 8 1 6 9
M  V30 9 1 7 10
M  V30 10 1 8 11
M  V30 11 1 8 12
M  V30 12 2 9 13
M  V30 13 1 9 14
M  V30 14 1 10 15
M  V30 15 2 11 16
M  V30 16 1 15 17
M  V30 17 1 13 16
M  V30 18 1 2 18
M  V30 19 1 2 19
M  V30 20 1 7 20
M  V30 21 1 7 21
M  V30 22 1 10 22
M  V30 23 1 10 23
M  V30 24 1 11 24
M  V30 25 1 12 25
M  V30 26 1 12 26
M  V30 27 1 12 27
M  V30 28 1 13 28
M  V30 29 1 14 29
M  V30 30 1 14 30
M  V30 31 1 14 31
M  V30 32 1 16 32
M  V30 33 1 17 33
M  V30 34 1 17 34
M  V30 35 1 17 35
M  V30 END BOND
M  V30 END CTAB
M  END
>  <Structure No>
6693

>  <LogS>
-2.09

>  <MMFF94 Energy>
69.854

$$$$
Compound 6694
Actelion Java MolfileCreator 2.0

  0  0  0  0  0  0              0 V3000
M  V30 BEGIN CTAB
M  V30 COUNTS 27 27 0 0 0
M  V30 BEGIN ATOM
M  V30 1 F 4.8674 0.6373 -2.0724 0
M  V30 2 C 4.0205 0.465 -1.0261 0
M  V30 3 C 4.4008 0.8112 0.2654 0
M  V30 4 C 2.7476 -0.0608 -1.2296 0
M  V30 5 O 5.5458 1.2909 0.4811 0
M  V30 6 N 3.5334 0.6292 1.2942 0
M  V30 7 N 1.8837 -0.2343 -0.1809 0
M  V30 8 C 2.2901 0.1116 1.0875 0
M  V30 9 C 0.5643 -0.7746 -0.4368 0
M  V30 10 O 1.528 -0.0525 2.0793 0
M  V30 11 O 0.309 -1.3225 -1.546 0
M  V30 12 O -0.4394 -0.6903 0.5379 0
M  V30 13 C -1.7834 -1.1232 0.3285 0
M  V30 14 C -2.5579 -0.1246 -0.5516 0
M  V30 15 C -3.9749 -0.6419 -0.8233 0
M  V30 16 C -2.6136 1.2609 0.1048 0
M  V30 17 H 2.4565 -0.3187 -2.241 0
M  V30 18 H 3.8276 0.8882 2.264 0
M  V30 19 H -1.783 -2.134 -0.1357 0
M  V30 20 H -2.2819 -1.2104 1.318 0
M  V30 21 H -2.0379 -0.026 -1.5293 0
M  V30 22 H -4.5206 0.0638 -1.4854 0
M  V30 23 H -3.9312 -1.6278 -1.3332 0
M  V30 24 H -4.5412 -0.7537 0.1264 0
M  V30 25 H -3.1702 1.9702 -0.5442 0
M  V30 26 H -3.1191 1.2073 1.093 0
M  V30 27 H -1.5877 1.6623 0.2473 0
M  V30 END ATOM
M  V30 BEGIN BOND
M  V30 1 1 1 2
M  V30 2 1 2 3
M  V30 3 2 2 4
M  V30 4 2 3 5
M  V30 5 1 3 6
M  V30 6 1 4 7
M  V30 7 1 6 8
M  V30 8 1 7 9
M  V30 9 2 8 10
M  V30 10 2 9 11
M  V30 11 1 9 12
M  V30 12 1 12 13
M  V30 13 1 13 14
M  V30 14 1 14 15
M  V30 15 1 14 16
M  V30 16 1 7 8
M  V30 17 1 4 17
M  V30 18 1 6 18
M  V30 19 1 13 19
M  V30 20 1 13 20
M  V30 21 1 14 21
M  V30 22 1 15 22
M  V30 23 1 15 23
M  V30 24 1 15 24
M  V30 25 1 16 25
M  V30 26 1 16 26
M  V30 27 1 16 27
M  V30 END BOND
M  V30 END CTAB
M  END
>  <Structure No>
6694

>  <LogS>
-1.89

>  <MMFF94 Energy>
-72.199

$$$$
Compound 6695
Actelion Java MolfileCreator 2.0

  0  0  0  0  0  0              0 V3000
M  V30 BEGIN CTAB
M  V30 COUNTS 35 35 0 0 0
M  V30 BEGIN ATOM
M  V30 1 O 2.1333 -1.0267 -1.9751 0
M  V30 2 C 2.1965 -0.4653 -0.8463 0
M  V30 3 O 1.023 -0.0761 -0.1915 0
M  V30 4 C 3.5097 -0.2171 -0.2121 0
M  V30 5 C -0.274 -0.2845 -0.744 0
M  V30 6 C 3.5835 0.4079 1.0461 0
M  V30 7 C 4.7024 -0.6005 -0.8542 0
M  V30 8 C -1.334 0.2326 0.19 0
M  V30 9 C 4.8239 0.6436 1.6474 0
M  V30 10 C 5.94 -0.3623 -0.2481 0
M  V30 11 O -0.9798 0.7502 1.2853 0
M  V30 12 N -2.742 0.1288 -0.1298 0
M  V30 13 C 6.0007 0.2589 1.0011 0
M  V30 14 C -3.7467 0.4372 0.899 0
M  V30 15 C -3.1997 -0.1955 -1.4896 0
M  V30 16 C -3.8559 -0.7132 1.9012 0
M  V30 17 C -3.2568 1.0636 -2.3477 0
M  V30 18 O -4.8551 -0.4415 2.8456 0
M  V30 19 H -0.4322 -1.3727 -0.9028 0
M  V30 20 H -0.3445 0.2457 -1.7165 0
M  V30 21 H 2.6849 0.7152 1.5664 0
M  V30 22 H 4.6797 -1.0836 -1.823 0
M  V30 23 H 4.8724 1.125 2.6157 0
M  V30 24 H 6.8527 -0.66 -0.748 0
M  V30 25 H 6.9596 0.4423 1.4684 0
M  V30 26 H -3.4765 1.3794 1.4238 0
M  V30 27 H -4.7443 0.6032 0.4355 0
M  V30 28 H -2.5386 -0.95 -1.9632 0
M  V30 29 H -4.2134 -0.6517 -1.455 0
M  V30 30 H -2.8805 -0.8828 2.4104 0
M  V30 31 H -4.1255 -1.6444 1.3592 0
M  V30 32 H -3.5973 0.8022 -3.3717 0
M  V30 33 H -3.9713 1.7913 -1.9079 0
M  V30 34 H -2.2551 1.5363 -2.414 0
M  V30 35 H -4.4755 0.2245 3.4766 0
M  V30 END ATOM
M  V30 BEGIN BOND
M  V30 1 2 1 2
M  V30 2 1 2 3
M  V30 3 1 2 4
M  V30 4 1 3 5
M  V30 5 2 4 6
M  V30 6 1 4 7
M  V30 7 1 5 8
M  V30 8 1 6 9
M  V30 9 2 7 10
M  V30 10 2 8 11
M  V30 11 1 8 12
M  V30 12 2 9 13
M  V30 13 1 12 14
M  V30 14 1 12 15
M  V30 15 1 14 16
M  V30 16 1 15 17
M  V30 17 1 16 18
M  V30 18 1 10 13
M  V30 19 1 5 19
M  V30 20 1 5 20
M  V30 21 1 6 21
M  V30 22 1 7 22
M  V30 23 1 9 23
M  V30 24 1 10 24
M  V30 25 1 13 25
M  V30 26 1 14 26
M  V30 27 1 14 27
M  V30 28 1 15 28
M  V30 29 1 15 29
M  V30 30 1 16 30
M  V30 31 1 16 31
M  V30 32 1 17 32
M  V30 33 1 17 33
M  V30 34 1 17 34
M  V30 35 1 18 35
M  V30 END BOND
M  V30 END CTAB
M  END
>  <Structure No>
6695

>  <LogS>
-1.37

>  <MMFF94 Energy>
53.05

$$$$
Compound 6696
Actelion Java MolfileCreator 2.0

  0  0  0  0  0  0              0 V3000
M  V30 BEGIN CTAB
M  V30 COUNTS 21 21 0 0 0
M  V30 BEGIN ATOM
M  V30 1 Cl 3.3649 2.5434 -0.1639 0
M  V30 2 C 3.744 0.9094 0.44 0
M  V30 3 C 2.9018 -0.1365 -0.2779 0
M  V30 4 O 1.5218 0.0805 -4.0E-4 0
M  V30 5 C 0.5049 -0.7252 -0.5273 0
M  V30 6 O 0.8074 -1.6934 -1.2788 0
M  V30 7 N -0.8795 -0.4352 -0.2165 0
M  V30 8 C -1.8928 -1.3262 -0.4899 0
M  V30 9 C -1.1843 0.7635 0.3695 0
M  V30 10 O -1.6459 -2.4474 -1.0132 0
M  V30 11 N -3.184 -1.0127 -0.1885 0
M  V30 12 C -2.501 1.0904 0.6824 0
M  V30 13 C -3.5042 0.1734 0.3895 0
M  V30 14 F -2.7935 2.2832 1.2594 0
M  V30 15 O -4.7053 0.4414 0.66 0
M  V30 16 H 3.5466 0.8687 1.5322 0
M  V30 17 H 4.8208 0.704 0.264 0
M  V30 18 H 3.082 -0.0728 -1.3731 0
M  V30 19 H 3.1975 -1.1473 0.0776 0
M  V30 20 H -0.4111 1.4885 0.5939 0
M  V30 21 H -3.9435 -1.6993 -0.4028 0
M  V30 END ATOM
M  V30 BEGIN BOND
M  V30 1 1 1 2
M  V30 2 1 2 3
M  V30 3 1 3 4
M  V30 4 1 4 5
M  V30 5 2 5 6
M  V30 6 1 5 7
M  V30 7 1 7 8
M  V30 8 1 7 9
M  V30 9 2 8 10
M  V30 10 1 8 11
M  V30 11 2 9 12
M  V30 12 1 11 13
M  V30 13 1 12 14
M  V30 14 2 13 15
M  V30 15 1 12 13
M  V30 16 1 2 16
M  V30 17 1 2 17
M  V30 18 1 3 18
M  V30 19 1 3 19
M  V30 20 1 9 20
M  V30 21 1 11 21
M  V30 END BOND
M  V30 END CTAB
M  END
>  <Structure No>
6696

>  <LogS>
-1.91

>  <MMFF94 Energy>
-72.764

$$$$
Compound 6697
Actelion Java MolfileCreator 2.0

  0  0  0  0  0  0              0 V3000
M  V30 BEGIN CTAB
M  V30 COUNTS 43 46 0 0 0
M  V30 BEGIN ATOM
M  V30 1 O 3.6274 -3.3046 0.2415 0
M  V30 2 C 2.8365 -2.2075 0.5762 0
M  V30 3 C 1.6619 -1.9313 -0.133 0
M  V30 4 C 3.225 -1.3752 1.6242 0
M  V30 5 C 0.8392 -0.8371 0.2176 0
M  V30 6 C 2.4631 -0.2535 1.9465 0
M  V30 7 C 1.2915 0.0451 1.233 0
M  V30 8 C -0.4086 -0.5059 -0.6252 0 CFG=1
M  V30 9 C 0.5315 1.2945 1.6038 0
M  V30 10 C -1.3511 0.4847 0.1154 0 CFG=2
M  V30 11 C 0.0737 0.2313 -1.8991 0
M  V30 12 C -1.1912 -1.8244 -0.9866 0
M  V30 13 C -0.541 1.7119 0.5658 0 CFG=2
M  V30 14 C -2.147 -0.2246 1.2266 0
M  V30 15 C 0.7963 1.5546 -1.5462 0
M  V30 16 C -2.7136 -1.722 -0.8051 0
M  V30 17 N -0.008 2.4169 -0.6433 0 CHG=1 CFG=2
M  V30 18 C -3.0844 -1.3017 0.6334 0
M  V30 19 C 0.7332 3.6476 -0.3081 0
M  V30 20 H 3.3749 -3.9289 -0.5155 0
M  V30 21 H 1.4 -2.5684 -0.9679 0
M  V30 22 H 4.1309 -1.587 2.1779 0
M  V30 23 H 2.7956 0.3956 2.7475 0
M  V30 24 H 0.0238 1.1002 2.5731 0
M  V30 25 H 1.2367 2.1251 1.8045 0
M  V30 26 H -2.1147 0.8754 -0.5973 0
M  V30 27 H -0.7931 0.4556 -2.5595 0
M  V30 28 H 0.7687 -0.4146 -2.4792 0
M  V30 29 H -0.8697 -2.6641 -0.3319 0
M  V30 30 H -0.9742 -2.139 -2.0308 0
M  V30 31 H -1.2455 2.4025 1.0851 0
M  V30 32 H -1.4504 -0.7089 1.9444 0
M  V30 33 H -2.7507 0.5176 1.7926 0
M  V30 34 H 1.7889 1.3317 -1.0973 0
M  V30 35 H 0.9983 2.0964 -2.4976 0
M  V30 36 H -3.1809 -2.7049 -1.031 0
M  V30 37 H -3.1245 -0.9902 -1.5343 0
M  V30 38 H -0.8395 2.7362 -1.1975 0
M  V30 39 H -4.1287 -0.9206 0.6285 0
M  V30 40 H -3.0652 -2.198 1.2914 0
M  V30 41 H 0.1887 4.242 0.458 0
M  V30 42 H 1.756 3.4232 0.0632 0
M  V30 43 H 0.8402 4.287 -1.2123 0
M  V30 END ATOM
M  V30 BEGIN BOND
M  V30 1 1 1 2
M  V30 2 2 2 3
M  V30 3 1 2 4
M  V30 4 1 3 5
M  V30 5 2 4 6
M  V30 6 2 5 7
M  V30 7 1 5 8
M  V30 8 1 7 9
M  V30 9 1 8 10
M  V30 10 1 8 11
M  V30 11 1 8 12
M  V30 12 1 9 13
M  V30 13 1 10 14
M  V30 14 1 11 15
M  V30 15 1 12 16
M  V30 16 1 13 17
M  V30 17 1 14 18
M  V30 18 1 17 19
M  V30 19 1 6 7
M  V30 20 1 10 13
M  V30 21 1 15 17
M  V30 22 1 16 18
M  V30 23 1 1 20
M  V30 24 1 3 21
M  V30 25 1 4 22
M  V30 26 1 6 23
M  V30 27 1 9 24
M  V30 28 1 9 25
M  V30 29 1 10 26
M  V30 30 1 11 27
M  V30 31 1 11 28
M  V30 32 1 12 29
M  V30 33 1 12 30
M  V30 34 1 13 31
M  V30 35 1 14 32
M  V30 36 1 14 33
M  V30 37 1 15 34
M  V30 38 1 15 35
M  V30 39 1 16 36
M  V30 40 1 16 37
M  V30 41 1 17 38
M  V30 42 1 18 39
M  V30 43 1 18 40
M  V30 44 1 19 41
M  V30 45 1 19 42
M  V30 46 1 19 43
M  V30 END BOND
M  V30 BEGIN COLLECTION
M  V30 MDLV30/STEABS ATOMS=(4 8 10 13 17)
M  V30 END COLLECTION
M  V30 END CTAB
M  END
>  <Structure No>
6697

>  <LogS>
-2.72

>  <MMFF94 Energy>
43.747

$$$$
Compound 6698
Actelion Java MolfileCreator 2.0

  0  0  0  0  0  0              0 V3000
M  V30 BEGIN CTAB
M  V30 COUNTS 23 24 0 0 0
M  V30 BEGIN ATOM
M  V30 1 O -2.4627 -1.1116 0.4762 0
M  V30 2 C -2.6483 0.0963 0.1641 0
M  V30 3 O -3.9193 0.666 0.2813 0
M  V30 4 N -1.5748 0.8915 -0.354 0
M  V30 5 C -5.0422 -0.0572 0.7711 0
M  V30 6 C -0.1952 0.4978 -0.3529 0
M  V30 7 N 0.7201 1.0804 -1.1721 0
M  V30 8 N 0.3321 -0.4276 0.4906 0
M  V30 9 C 1.8631 0.4651 -0.8213 0
M  V30 10 C 1.6327 -0.4361 0.1749 0
M  V30 11 C 3.1385 0.6763 -1.3401 0
M  V30 12 C 2.6547 -1.1967 0.7388 0
M  V30 13 C 4.1974 -0.0785 -0.7995 0
M  V30 14 C 3.9565 -1.0108 0.236 0
M  V30 15 H -1.8211 1.7993 -0.8085 0
M  V30 16 H -5.2464 -0.9311 0.117 0
M  V30 17 H -5.9311 0.6063 0.7723 0
M  V30 18 H -4.8491 -0.402 1.809 0
M  V30 19 H -0.1366 -0.9763 1.2441 0
M  V30 20 H 3.3111 1.3968 -2.129 0
M  V30 21 H 2.4565 -1.904 1.5335 0
M  V30 22 H 5.2021 0.0578 -1.1774 0
M  V30 23 H 4.7778 -1.5838 0.6462 0
M  V30 END ATOM
M  V30 BEGIN BOND
M  V30 1 2 1 2
M  V30 2 1 2 3
M  V30 3 1 2 4
M  V30 4 1 3 5
M  V30 5 1 4 6
M  V30 6 2 6 7
M  V30 7 1 6 8
M  V30 8 1 7 9
M  V30 9 1 8 10
M  V30 10 1 9 11
M  V30 11 1 10 12
M  V30 12 2 11 13
M  V30 13 2 12 14
M  V30 14 2 9 10
M  V30 15 1 13 14
M  V30 16 1 4 15
M  V30 17 1 5 16
M  V30 18 1 5 17
M  V30 19 1 5 18
M  V30 20 1 8 19
M  V30 21 1 11 20
M  V30 22 1 12 21
M  V30 23 1 13 22
M  V30 24 1 14 23
M  V30 END BOND
M  V30 END CTAB
M  END
>  <Structure No>
6698

>  <LogS>
-4.52

>  <MMFF94 Energy>
-51.565

$$$$
Compound 6699
Actelion Java MolfileCreator 2.0

  0  0  0  0  0  0              0 V3000
M  V30 BEGIN CTAB
M  V30 COUNTS 63 65 0 0 0
M  V30 BEGIN ATOM
M  V30 1 O 1.5241 -3.6127 -1.2031 0
M  V30 2 C 2.3716 -2.8969 -0.6054 0
M  V30 3 O 2.3008 -1.5078 -0.7275 0
M  V30 4 C 3.5141 -3.5445 0.1233 0
M  V30 5 C 2.9293 -0.6062 0.1903 0 CFG=2
M  V30 6 C 4.0672 -2.6427 1.237 0 CFG=2
M  V30 7 C 4.2482 -1.1963 0.733 0
M  V30 8 C 1.9497 -0.2358 1.3281 0
M  V30 9 O 5.3002 -3.1572 1.6701 0
M  V30 10 C 0.6039 0.3176 0.8243 0
M  V30 11 C 0.6753 1.6627 0.0445 0 CFG=1
M  V30 12 C -0.7436 2.1154 -0.4336 0 CFG=1
M  V30 13 C 1.392 2.7938 0.8445 0 CFG=1
M  V30 14 C -0.7138 3.5289 -1.0031 0
M  V30 15 C -1.381 1.0947 -1.4434 0 CFG=1
M  V30 16 C 1.4292 4.0705 0.0484 0
M  V30 17 C 0.7679 3.0736 2.2245 0
M  V30 18 C 0.4335 4.4263 -0.7595 0
M  V30 19 C -1.7679 3.9848 -1.6908 0
M  V30 20 O -2.0972 0.1005 -0.7011 0
M  V30 21 C -2.3353 1.7338 -2.4885 0
M  V30 22 C -2.9148 3.0634 -1.9999 0 CFG=2
M  V30 23 C -2.3016 -1.2081 -1.1575 0
M  V30 24 O -3.7342 3.6162 -2.996 0
M  V30 25 O -1.8262 -1.5798 -2.2684 0
M  V30 26 C -3.0126 -2.1891 -0.2589 0 CFG=2
M  V30 27 C -2.0313 -2.6592 0.8412 0
M  V30 28 C -3.5972 -3.368 -1.0644 0
M  V30 29 C -2.6867 -3.5802 1.8691 0
M  V30 30 H 3.1766 -4.5042 0.5635 0
M  V30 31 H 4.3161 -3.7622 -0.6143 0
M  V30 32 H 3.1933 0.3218 -0.362 0
M  V30 33 H 3.3547 -2.6598 2.0893 0
M  V30 34 H 4.6374 -0.5552 1.5572 0
M  V30 35 H 5.0058 -1.1839 -0.0827 0
M  V30 36 H 2.4265 0.4803 2.0303 0
M  V30 37 H 1.7083 -1.1446 1.9171 0
M  V30 38 H 5.5179 -2.7014 2.5284 0
M  V30 39 H 0.159 -0.4612 0.175 0
M  V30 40 H -0.0794 0.4228 1.6947 0
M  V30 41 H 1.2828 1.4893 -0.8716 0
M  V30 42 H -1.4053 2.1624 0.4587 0
M  V30 43 H 2.4516 2.4983 0.999 0
M  V30 44 H -0.5567 0.6046 -2.0141 0
M  V30 45 H 2.2628 4.7497 0.1847 0
M  V30 46 H 1.2859 3.9275 2.7087 0
M  V30 47 H -0.3083 3.322 2.1404 0
M  V30 48 H 0.8838 2.2012 2.8974 0
M  V30 49 H 0.4869 5.3877 -1.258 0
M  V30 50 H -1.7619 4.9914 -2.094 0
M  V30 51 H -1.7698 1.9136 -3.4303 0
M  V30 52 H -3.1595 1.0313 -2.7415 0
M  V30 53 H -3.5139 2.8855 -1.0767 0
M  V30 54 H -4.2412 4.3547 -2.57 0
M  V30 55 H -3.8615 -1.649 0.2228 0
M  V30 56 H -1.6449 -1.7647 1.3843 0
M  V30 57 H -1.1538 -3.1823 0.3868 0
M  V30 58 H -2.7807 -4.0243 -1.4459 0
M  V30 59 H -4.2798 -3.9723 -0.4274 0
M  V30 60 H -4.1957 -2.9906 -1.9242 0
M  V30 61 H -2.9009 -4.5777 1.424 0
M  V30 62 H -1.9898 -3.7283 2.7249 0
M  V30 63 H -3.6306 -3.1308 2.2504 0
M  V30 END ATOM
M  V30 BEGIN BOND
M  V30 1 2 1 2
M  V30 2 1 2 3
M  V30 3 1 2 4
M  V30 4 1 3 5
M  V30 5 1 4 6
M  V30 6 1 5 7
M  V30 7 1 5 8
M  V30 8 1 6 9
M  V30 9 1 8 10
M  V30 10 1 10 11
M  V30 11 1 11 12
M  V30 12 1 11 13
M  V30 13 1 12 14
M  V30 14 1 12 15
M  V30 15 1 13 16
M  V30 16 1 13 17
M  V30 17 1 14 18
M  V30 18 2 14 19
M  V30 19 1 15 20
M  V30 20 1 15 21
M  V30 21 1 19 22
M  V30 22 1 20 23
M  V30 23 1 22 24
M  V30 24 2 23 25
M  V30 25 1 23 26
M  V30 26 1 26 27
M  V30 27 1 26 28
M  V30 28 1 27 29
M  V30 29 1 6 7
M  V30 30 2 16 18
M  V30 31 1 21 22
M  V30 32 1 4 30
M  V30 33 1 4 31
M  V30 34 1 5 32
M  V30 35 1 6 33
M  V30 36 1 7 34
M  V30 37 1 7 35
M  V30 38 1 8 36
M  V30 39 1 8 37
M  V30 40 1 9 38
M  V30 41 1 10 39
M  V30 42 1 10 40
M  V30 43 1 11 41
M  V30 44 1 12 42
M  V30 45 1 13 43
M  V30 46 1 15 44
M  V30 47 1 16 45
M  V30 48 1 17 46
M  V30 49 1 17 47
M  V30 50 1 17 48
M  V30 51 1 18 49
M  V30 52 1 19 50
M  V30 53 1 21 51
M  V30 54 1 21 52
M  V30 55 1 22 53
M  V30 56 1 24 54
M  V30 57 1 26 55
M  V30 58 1 27 56
M  V30 59 1 27 57
M  V30 60 1 28 58
M  V30 61 1 28 59
M  V30 62 1 28 60
M  V30 63 1 29 61
M  V30 64 1 29 62
M  V30 65 1 29 63
M  V30 END BOND
M  V30 BEGIN COLLECTION
M  V30 MDLV30/STEABS ATOMS=(8 5 6 11 12 13 15 22 26)
M  V30 END COLLECTION
M  V30 END CTAB
M  END
>  <Structure No>
6699

>  <LogS>
-3.35

>  <MMFF94 Energy>
10.509

$$$$
Compound 6700
Actelion Java MolfileCreator 2.0

  0  0  0  0  0  0              0 V3000
M  V30 BEGIN CTAB
M  V30 COUNTS 37 37 0 0 0
M  V30 BEGIN ATOM
M  V30 1 Cl -4.0621 -1.7857 -2.3545 0
M  V30 2 C -3.6954 -0.0428 -2.2608 0
M  V30 3 C -3.6806 0.4337 -0.8081 0
M  V30 4 N -2.6262 -0.2467 -0.0399 0
M  V30 5 C -1.2404 -0.0041 -0.3524 0
M  V30 6 C -2.9781 -1.1657 1.0526 0
M  V30 7 C -0.3874 -1.0723 -0.6711 0
M  V30 8 C -0.7273 1.3024 -0.3373 0
M  V30 9 C -2.5781 -0.5689 2.4 0
M  V30 10 C 0.9571 -0.8382 -0.9703 0
M  V30 11 C 0.6179 1.5367 -0.6346 0
M  V30 12 Cl -3.0499 -1.6656 3.722 0
M  V30 13 C 1.4689 0.4688 -0.9576 0
M  V30 14 C 2.9265 0.7216 -1.2475 0
M  V30 15 C 3.7387 0.9414 0.0371 0
M  V30 16 C 3.8335 -0.3294 0.8909 0
M  V30 17 C 4.6981 -0.0912 2.0881 0
M  V30 18 O 5.9366 -0.3109 2.0291 0
M  V30 19 O 4.1444 0.4205 3.2549 0 CHG=-1
M  V30 20 H -2.7136 0.1515 -2.7417 0
M  V30 21 H -4.4755 0.5131 -2.8223 0
M  V30 22 H -3.5175 1.5315 -0.7843 0
M  V30 23 H -4.682 0.2534 -0.3608 0
M  V30 24 H -4.0707 -1.3695 1.0605 0
M  V30 25 H -2.47 -2.1422 0.9084 0
M  V30 26 H -0.7659 -2.0855 -0.7036 0
M  V30 27 H -1.362 2.1383 -0.074 0
M  V30 28 H -3.0851 0.4086 2.5451 0
M  V30 29 H -1.4788 -0.4162 2.4409 0
M  V30 30 H 1.6 -1.6763 -1.2086 0
M  V30 31 H 0.9988 2.5501 -0.6067 0
M  V30 32 H 3.0154 1.6283 -1.885 0
M  V30 33 H 3.3633 -0.1196 -1.8292 0
M  V30 34 H 3.2836 1.7637 0.6329 0
M  V30 35 H 4.7642 1.2607 -0.2519 0
M  V30 36 H 4.2585 -1.161 0.2875 0
M  V30 37 H 2.8224 -0.6324 1.2376 0
M  V30 END ATOM
M  V30 BEGIN BOND
M  V30 1 1 1 2
M  V30 2 1 2 3
M  V30 3 1 3 4
M  V30 4 1 4 5
M  V30 5 1 4 6
M  V30 6 2 5 7
M  V30 7 1 5 8
M  V30 8 1 6 9
M  V30 9 1 7 10
M  V30 10 2 8 11
M  V30 11 1 9 12
M  V30 12 2 10 13
M  V30 13 1 13 14
M  V30 14 1 14 15
M  V30 15 1 15 16
M  V30 16 1 16 17
M  V30 17 2 17 18
M  V30 18 1 17 19
M  V30 19 1 11 13
M  V30 20 1 2 20
M  V30 21 1 2 21
M  V30 22 1 3 22
M  V30 23 1 3 23
M  V30 24 1 6 24
M  V30 25 1 6 25
M  V30 26 1 7 26
M  V30 27 1 8 27
M  V30 28 1 9 28
M  V30 29 1 9 29
M  V30 30 1 10 30
M  V30 31 1 11 31
M  V30 32 1 14 32
M  V30 33 1 14 33
M  V30 34 1 15 34
M  V30 35 1 15 35
M  V30 36 1 16 36
M  V30 37 1 16 37
M  V30 END BOND
M  V30 END CTAB
M  END
>  <Structure No>
6700

>  <LogS>
-3.4

>  <MMFF94 Energy>
60.293

$$$$
Compound 6701
Actelion Java MolfileCreator 2.0

  0  0  0  0  0  0              0 V3000
M  V30 BEGIN CTAB
M  V30 COUNTS 40 40 0 0 0
M  V30 BEGIN ATOM
M  V30 1 O 1.4198 0.4731 -1.4198 0
M  V30 2 C 2.176 -0.2326 -0.6969 0
M  V30 3 O 1.6526 -1.3205 0.0136 0
M  V30 4 C 3.617 0.0862 -0.5983 0
M  V30 5 C 0.2702 -1.6713 0.002 0
M  V30 6 C 4.1625 1.1742 -1.3059 0
M  V30 7 C 4.4637 -0.6955 0.2085 0
M  V30 8 C -0.5403 -0.6616 0.7626 0
M  V30 9 C 5.5257 1.4702 -1.2067 0
M  V30 10 C 5.8261 -0.3947 0.3038 0
M  V30 11 O -0.0878 -0.1965 1.8439 0
M  V30 12 N -1.8319 -0.2351 0.285 0
M  V30 13 C 6.3565 0.6868 -0.4027 0
M  V30 14 C -2.8368 -1.292 -0.0038 0
M  V30 15 C -2.0699 1.2304 0.2149 0
M  V30 16 C -3.7549 -1.5419 1.1986 0
M  V30 17 C -3.635 -1.0488 -1.288 0
M  V30 18 C -2.0658 1.7439 -1.2303 0
M  V30 19 C -3.3187 1.6792 0.9796 0
M  V30 20 H -0.0865 -1.7492 -1.048 0
M  V30 21 H 0.1492 -2.6622 0.4866 0
M  V30 22 H 3.5377 1.7958 -1.9349 0
M  V30 23 H 4.0753 -1.5385 0.766 0
M  V30 24 H 5.9378 2.3084 -1.7538 0
M  V30 25 H 6.4709 -1.0009 0.9267 0
M  V30 26 H 7.4111 0.9177 -0.3273 0
M  V30 27 H -2.3065 -2.2545 -0.1742 0
M  V30 28 H -1.2211 1.7543 0.7111 0
M  V30 29 H -3.1554 -1.5962 2.132 0
M  V30 30 H -4.523 -0.7517 1.3054 0
M  V30 31 H -4.2852 -2.5098 1.0707 0
M  V30 32 H -2.9451 -0.8401 -2.1322 0
M  V30 33 H -4.2158 -1.9608 -1.5436 0
M  V30 34 H -4.3576 -0.2178 -1.1713 0
M  V30 35 H -1.8852 2.8402 -1.237 0
M  V30 36 H -3.0334 1.567 -1.7385 0
M  V30 37 H -1.2537 1.2556 -1.8085 0
M  V30 38 H -3.3271 2.7871 1.063 0
M  V30 39 H -4.2487 1.3765 0.4605 0
M  V30 40 H -3.3064 1.26 2.0078 0
M  V30 END ATOM
M  V30 BEGIN BOND
M  V30 1 2 1 2
M  V30 2 1 2 3
M  V30 3 1 2 4
M  V30 4 1 3 5
M  V30 5 2 4 6
M  V30 6 1 4 7
M  V30 7 1 5 8
M  V30 8 1 6 9
M  V30 9 2 7 10
M  V30 10 2 8 11
M  V30 11 1 8 12
M  V30 12 2 9 13
M  V30 13 1 12 14
M  V30 14 1 12 15
M  V30 15 1 14 16
M  V30 16 1 14 17
M  V30 17 1 15 18
M  V30 18 1 15 19
M  V30 19 1 10 13
M  V30 20 1 5 20
M  V30 21 1 5 21
M  V30 22 1 6 22
M  V30 23 1 7 23
M  V30 24 1 9 24
M  V30 25 1 10 25
M  V30 26 1 13 26
M  V30 27 1 14 27
M  V30 28 1 15 28
M  V30 29 1 16 29
M  V30 30 1 16 30
M  V30 31 1 16 31
M  V30 32 1 17 32
M  V30 33 1 17 33
M  V30 34 1 17 34
M  V30 35 1 18 35
M  V30 36 1 18 36
M  V30 37 1 18 37
M  V30 38 1 19 38
M  V30 39 1 19 39
M  V30 40 1 19 40
M  V30 END BOND
M  V30 END CTAB
M  END
>  <Structure No>
6701

>  <LogS>
-3.34

>  <MMFF94 Energy>
45.228

$$$$
Compound 6702
Actelion Java MolfileCreator 2.0

  0  0  0  0  0  0              0 V3000
M  V30 BEGIN CTAB
M  V30 COUNTS 36 36 0 0 0
M  V30 BEGIN ATOM
M  V30 1 O 0.7112 0.158 -1.1064 0
M  V30 2 C 1.5444 0.5511 -0.2434 0
M  V30 3 O 1.1119 1.2999 0.8593 0
M  V30 4 C 2.9786 0.222 -0.3929 0
M  V30 5 C -0.2572 1.6243 1.0925 0
M  V30 6 C 3.4325 -0.5302 -1.4929 0
M  V30 7 C 3.9108 0.6565 0.5671 0
M  V30 8 C -1.029 0.3936 1.4863 0
M  V30 9 C 4.7899 -0.8388 -1.6267 0
M  V30 10 C 5.267 0.345 0.428 0
M  V30 11 O -0.4961 -0.4145 2.2951 0
M  V30 12 N -2.3549 0.1247 0.9781 0
M  V30 13 C 5.7062 -0.4017 -0.6675 0
M  V30 14 C -3.24 1.212 0.5343 0
M  V30 15 C -2.8552 -1.2581 0.9579 0
M  V30 16 C -3.3084 1.2637 -0.9939 0
M  V30 17 C -2.0783 -2.1002 -0.0585 0
M  V30 18 O -4.0475 2.3798 -1.4092 0
M  V30 19 O -2.618 -3.3914 -0.1322 0
M  V30 20 H -0.6757 2.1 0.1821 0
M  V30 21 H -0.3146 2.3586 1.9225 0
M  V30 22 H 2.7404 -0.8801 -2.2486 0
M  V30 23 H 3.5941 1.2363 1.4251 0
M  V30 24 H 5.1313 -1.4177 -2.4752 0
M  V30 25 H 5.9781 0.6829 1.1709 0
M  V30 26 H 6.7563 -0.6417 -0.773 0
M  V30 27 H -2.8954 2.1907 0.932 0
M  V30 28 H -4.2615 1.053 0.9436 0
M  V30 29 H -2.7633 -1.7055 1.9714 0
M  V30 30 H -3.9334 -1.28 0.6848 0
M  V30 31 H -2.2837 1.3426 -1.4128 0
M  V30 32 H -3.7669 0.3298 -1.3906 0
M  V30 33 H -2.1528 -1.6286 -1.061 0
M  V30 34 H -1.0003 -2.1499 0.2154 0
M  V30 35 H -5.0034 2.1623 -1.2508 0
M  V30 36 H -2.3119 -3.8736 0.68 0
M  V30 END ATOM
M  V30 BEGIN BOND
M  V30 1 2 1 2
M  V30 2 1 2 3
M  V30 3 1 2 4
M  V30 4 1 3 5
M  V30 5 2 4 6
M  V30 6 1 4 7
M  V30 7 1 5 8
M  V30 8 1 6 9
M  V30 9 2 7 10
M  V30 10 2 8 11
M  V30 11 1 8 12
M  V30 12 2 9 13
M  V30 13 1 12 14
M  V30 14 1 12 15
M  V30 15 1 14 16
M  V30 16 1 15 17
M  V30 17 1 16 18
M  V30 18 1 17 19
M  V30 19 1 10 13
M  V30 20 1 5 20
M  V30 21 1 5 21
M  V30 22 1 6 22
M  V30 23 1 7 23
M  V30 24 1 9 24
M  V30 25 1 10 25
M  V30 26 1 13 26
M  V30 27 1 14 27
M  V30 28 1 14 28
M  V30 29 1 15 29
M  V30 30 1 15 30
M  V30 31 1 16 31
M  V30 32 1 16 32
M  V30 33 1 17 33
M  V30 34 1 17 34
M  V30 35 1 18 35
M  V30 36 1 19 36
M  V30 END BOND
M  V30 END CTAB
M  END
>  <Structure No>
6702

>  <LogS>
0.43

>  <MMFF94 Energy>
71.515

$$$$
Compound 6703
Actelion Java MolfileCreator 2.0

  0  0  0  0  0  0              0 V3000
M  V30 BEGIN CTAB
M  V30 COUNTS 33 33 0 0 0
M  V30 BEGIN ATOM
M  V30 1 F 4.612 2.7811 2.0654 0
M  V30 2 C 4.3069 1.6485 1.3834 0
M  V30 3 C 5.2482 0.6389 1.2172 0
M  V30 4 C 3.0374 1.4749 0.8387 0
M  V30 5 O 6.405 0.7664 1.7002 0
M  V30 6 N 4.9162 -0.4848 0.5312 0
M  V30 7 N 2.7186 0.3331 0.1534 0
M  V30 8 C 3.6723 -0.6461 -0.001 0
M  V30 9 C 1.3837 0.1857 -0.3867 0
M  V30 10 O 3.419 -1.7004 -0.6458 0
M  V30 11 O 0.638 1.1972 -0.511 0
M  V30 12 O 0.9088 -1.0772 -0.7671 0
M  V30 13 C -0.4213 -1.3316 -1.2198 0
M  V30 14 C -1.2957 -1.8726 -0.0806 0
M  V30 15 C -1.566 -0.8609 1.0487 0
M  V30 16 C -2.45 0.3339 0.6458 0
M  V30 17 C -3.8952 -0.074 0.3245 0
M  V30 18 C -4.7775 1.1526 0.1101 0
M  V30 19 H 2.3062 2.2616 0.9823 0
M  V30 20 H 5.6307 -1.2383 0.4062 0
M  V30 21 H -0.3658 -2.1162 -2.0035 0
M  V30 22 H -0.8712 -0.4385 -1.7011 0
M  V30 23 H -2.2536 -2.2448 -0.4986 0
M  V30 24 H -0.7814 -2.7543 0.3597 0
M  V30 25 H -0.6001 -0.48 1.442 0
M  V30 26 H -2.0551 -1.397 1.8912 0
M  V30 27 H -2.0115 0.8735 -0.218 0
M  V30 28 H -2.462 1.0444 1.5013 0
M  V30 29 H -4.3142 -0.6747 1.161 0
M  V30 30 H -3.9217 -0.6864 -0.6009 0
M  V30 31 H -4.8082 1.7727 1.0312 0
M  V30 32 H -5.8114 0.8291 -0.1334 0
M  V30 33 H -4.3888 1.7645 -0.7316 0
M  V30 END ATOM
M  V30 BEGIN BOND
M  V30 1 1 1 2
M  V30 2 1 2 3
M  V30 3 2 2 4
M  V30 4 2 3 5
M  V30 5 1 3 6
M  V30 6 1 4 7
M  V30 7 1 6 8
M  V30 8 1 7 9
M  V30 9 2 8 10
M  V30 10 2 9 11
M  V30 11 1 9 12
M  V30 12 1 12 13
M  V30 13 1 13 14
M  V30 14 1 14 15
M  V30 15 1 15 16
M  V30 16 1 16 17
M  V30 17 1 17 18
M  V30 18 1 7 8
M  V30 19 1 4 19
M  V30 20 1 6 20
M  V30 21 1 13 21
M  V30 22 1 13 22
M  V30 23 1 14 23
M  V30 24 1 14 24
M  V30 25 1 15 25
M  V30 26 1 15 26
M  V30 27 1 16 27
M  V30 28 1 16 28
M  V30 29 1 17 29
M  V30 30 1 17 30
M  V30 31 1 18 31
M  V30 32 1 18 32
M  V30 33 1 18 33
M  V30 END BOND
M  V30 END CTAB
M  END
>  <Structure No>
6703

>  <LogS>
-2.24

>  <MMFF94 Energy>
-77.576

$$$$
Compound 6704
Actelion Java MolfileCreator 2.0

  0  0  0  0  0  0              0 V3000
M  V30 BEGIN CTAB
M  V30 COUNTS 35 35 0 0 0
M  V30 BEGIN ATOM
M  V30 1 O -0.3951 0.8694 -0.7903 0
M  V30 2 C -1.2102 0.574 0.1258 0
M  V30 3 O -0.7671 0.4542 1.4494 0
M  V30 4 C -2.6482 0.4126 -0.1761 0
M  V30 5 C 0.6052 0.5552 1.8224 0
M  V30 6 C -3.1188 -0.1246 -1.4023 0
M  V30 7 C -3.5837 0.836 0.7853 0
M  V30 8 C 1.3642 -0.6489 1.335 0
M  V30 9 O -2.2633 -0.6561 -2.3699 0
M  V30 10 C -4.4957 -0.1645 -1.6572 0
M  V30 11 C -4.9539 0.77 0.5235 0
M  V30 12 O 0.9008 -1.7925 1.5955 0
M  V30 13 N 2.5849 -0.5307 0.5716 0
M  V30 14 C -5.409 0.2798 -0.6998 0
M  V30 15 C 2.9636 -1.6066 -0.3564 0
M  V30 16 C 3.4953 0.6085 0.7563 0
M  V30 17 C 1.9945 -1.6705 -1.5343 0
M  V30 18 C 3.3804 1.5869 -0.4086 0
M  V30 19 H 0.6726 0.5915 2.9296 0
M  V30 20 H 1.02 1.5032 1.4251 0
M  V30 21 H -3.2537 1.2441 1.733 0
M  V30 22 H -1.2792 -0.8246 -2.2132 0
M  V30 23 H -4.8599 -0.5641 -2.5952 0
M  V30 24 H -5.6636 1.1094 1.267 0
M  V30 25 H -6.4713 0.2349 -0.9032 0
M  V30 26 H 2.9715 -2.5815 0.177 0
M  V30 27 H 3.9884 -1.4399 -0.7546 0
M  V30 28 H 4.5435 0.2448 0.8251 0
M  V30 29 H 3.2855 1.1346 1.7121 0
M  V30 30 H 1.9659 -0.693 -2.0603 0
M  V30 31 H 2.3275 -2.452 -2.249 0
M  V30 32 H 0.9722 -1.9246 -1.1838 0
M  V30 33 H 4.0281 2.4687 -0.2195 0
M  V30 34 H 2.3323 1.9314 -0.527 0
M  V30 35 H 3.7099 1.1014 -1.351 0
M  V30 END ATOM
M  V30 BEGIN BOND
M  V30 1 2 1 2
M  V30 2 1 2 3
M  V30 3 1 2 4
M  V30 4 1 3 5
M  V30 5 2 4 6
M  V30 6 1 4 7
M  V30 7 1 5 8
M  V30 8 1 6 9
M  V30 9 1 6 10
M  V30 10 2 7 11
M  V30 11 2 8 12
M  V30 12 1 8 13
M  V30 13 2 10 14
M  V30 14 1 13 15
M  V30 15 1 13 16
M  V30 16 1 15 17
M  V30 17 1 16 18
M  V30 18 1 11 14
M  V30 19 1 5 19
M  V30 20 1 5 20
M  V30 21 1 7 21
M  V30 22 1 9 22
M  V30 23 1 10 23
M  V30 24 1 11 24
M  V30 25 1 14 25
M  V30 26 1 15 26
M  V30 27 1 15 27
M  V30 28 1 16 28
M  V30 29 1 16 29
M  V30 30 1 17 30
M  V30 31 1 17 31
M  V30 32 1 17 32
M  V30 33 1 18 33
M  V30 34 1 18 34
M  V30 35 1 18 35
M  V30 END BOND
M  V30 END CTAB
M  END
>  <Structure No>
6704

>  <LogS>
-2.56

>  <MMFF94 Energy>
31.638

$$$$
Compound 6705
Actelion Java MolfileCreator 2.0

  0  0  0  0  0  0              0 V3000
M  V30 BEGIN CTAB
M  V30 COUNTS 46 49 0 0 0
M  V30 BEGIN ATOM
M  V30 1 O 4.3435 -0.5622 1.2854 0
M  V30 2 C 3.1835 -0.8029 0.5335 0
M  V30 3 C 5.4954 -1.399 1.2785 0
M  V30 4 C 2.1247 0.1036 0.6404 0
M  V30 5 C 3.053 -1.9166 -0.3087 0
M  V30 6 C 0.9337 -0.0621 -0.1019 0
M  V30 7 C 1.8706 -2.1271 -1.0143 0
M  V30 8 C 0.7985 -1.2301 -0.9033 0
M  V30 9 C -0.2593 0.898 0.0845 0 CFG=1
M  V30 10 C -0.4565 -1.5255 -1.6996 0
M  V30 11 C -1.1608 0.8192 -1.1801 0 CFG=1
M  V30 12 C -1.0571 0.425 1.3297 0
M  V30 13 C 0.2279 2.372 0.2679 0
M  V30 14 C -1.6716 -0.6304 -1.3338 0 CFG=2
M  V30 15 C -2.2964 1.8666 -1.199 0
M  V30 16 C -1.6492 -0.9821 1.1323 0
M  V30 17 C -0.8955 3.42 0.1905 0
M  V30 18 N -2.4273 -1.0793 -0.1226 0 CHG=1 CFG=2
M  V30 19 C -1.7174 3.2761 -1.0897 0
M  V30 20 C -2.9902 -2.4353 -0.2742 0
M  V30 21 H 5.9237 -1.4504 0.2554 0
M  V30 22 H 6.2577 -0.9719 1.9617 0
M  V30 23 H 5.2299 -2.4169 1.6339 0
M  V30 24 H 2.2449 0.9306 1.3237 0
M  V30 25 H 3.8552 -2.6335 -0.4162 0
M  V30 26 H 1.7863 -3.0015 -1.648 0
M  V30 27 H -0.2114 -1.3459 -2.7694 0
M  V30 28 H -0.7085 -2.6015 -1.6286 0
M  V30 29 H -0.5279 1.0505 -2.0702 0
M  V30 30 H -0.3942 0.4133 2.2225 0
M  V30 31 H -1.8885 1.1215 1.5603 0
M  V30 32 H 0.7179 2.5012 1.2556 0
M  V30 33 H 0.9811 2.6096 -0.5159 0
M  V30 34 H -2.3627 -0.6527 -2.2081 0
M  V30 35 H -2.8574 1.786 -2.1552 0
M  V30 36 H -3.02 1.7141 -0.3732 0
M  V30 37 H -0.838 -1.7419 1.1576 0
M  V30 38 H -2.3106 -1.1996 2.0013 0
M  V30 39 H -1.5612 3.339 1.0759 0
M  V30 40 H -0.4432 4.4349 0.2143 0
M  V30 41 H -3.2591 -0.4528 -0.0194 0
M  V30 42 H -2.5474 4.0151 -1.0783 0
M  V30 43 H -1.0777 3.4928 -1.9735 0
M  V30 44 H -3.7839 -2.6063 0.4866 0
M  V30 45 H -3.457 -2.5623 -1.2754 0
M  V30 46 H -2.2196 -3.2222 -0.1288 0
M  V30 END ATOM
M  V30 BEGIN BOND
M  V30 1 1 1 2
M  V30 2 1 1 3
M  V30 3 2 2 4
M  V30 4 1 2 5
M  V30 5 1 4 6
M  V30 6 2 5 7
M  V30 7 2 6 8
M  V30 8 1 6 9
M  V30 9 1 8 10
M  V30 10 1 9 11
M  V30 11 1 9 12
M  V30 12 1 9 13
M  V30 13 1 10 14
M  V30 14 1 11 15
M  V30 15 1 12 16
M  V30 16 1 13 17
M  V30 17 1 14 18
M  V30 18 1 15 19
M  V30 19 1 18 20
M  V30 20 1 7 8
M  V30 21 1 11 14
M  V30 22 1 16 18
M  V30 23 1 17 19
M  V30 24 1 3 21
M  V30 25 1 3 22
M  V30 26 1 3 23
M  V30 27 1 4 24
M  V30 28 1 5 25
M  V30 29 1 7 26
M  V30 30 1 10 27
M  V30 31 1 10 28
M  V30 32 1 11 29
M  V30 33 1 12 30
M  V30 34 1 12 31
M  V30 35 1 13 32
M  V30 36 1 13 33
M  V30 37 1 14 34
M  V30 38 1 15 35
M  V30 39 1 15 36
M  V30 40 1 16 37
M  V30 41 1 16 38
M  V30 42 1 17 39
M  V30 43 1 17 40
M  V30 44 1 18 41
M  V30 45 1 19 42
M  V30 46 1 19 43
M  V30 47 1 20 44
M  V30 48 1 20 45
M  V30 49 1 20 46
M  V30 END BOND
M  V30 BEGIN COLLECTION
M  V30 MDLV30/STEABS ATOMS=(4 9 11 14 18)
M  V30 END COLLECTION
M  V30 END CTAB
M  END
>  <Structure No>
6705

>  <LogS>
-3.48

>  <MMFF94 Energy>
60.592

$$$$
Compound 6706
Actelion Java MolfileCreator 2.0

  0  0  0  0  0  0              0 V3000
M  V30 BEGIN CTAB
M  V30 COUNTS 28 28 0 0 0
M  V30 BEGIN ATOM
M  V30 1 S -2.0987 -1.4526 -0.4033 0
M  V30 2 O -2.6306 -2.304 0.7161 0
M  V30 3 O -2.0526 -2.2975 -1.6461 0
M  V30 4 N -3.171 -0.0981 -0.6619 0
M  V30 5 C -0.4641 -0.9209 -0.0019 0
M  V30 6 C -3.2539 0.712 0.5596 0
M  V30 7 C -2.6816 0.7185 -1.7792 0
M  V30 8 C 0.4753 -0.7011 -1.0169 0
M  V30 9 C -0.0993 -0.7086 1.3335 0
M  V30 10 C 1.768 -0.2725 -0.7015 0
M  V30 11 C 1.1923 -0.2803 1.6512 0
M  V30 12 C 2.1398 -0.0576 0.6396 0
M  V30 13 N 3.4621 0.3843 0.9977 0
M  V30 14 C 4.5165 0.645 0.0235 0
M  V30 15 H -3.9877 1.5344 0.4188 0
M  V30 16 H -3.6139 0.091 1.407 0
M  V30 17 H -2.2681 1.1531 0.8243 0
M  V30 18 H -1.6857 1.1599 -1.5562 0
M  V30 19 H -3.3986 1.541 -1.9889 0
M  V30 20 H -2.6085 0.1023 -2.7002 0
M  V30 21 H 0.2061 -0.8556 -2.0539 0
M  V30 22 H -0.8158 -0.8688 2.1291 0
M  V30 23 H 2.4688 -0.1103 -1.5087 0
M  V30 24 H 1.4551 -0.12 2.6893 0
M  V30 25 H 3.6899 0.5299 2.0076 0
M  V30 26 H 5.4395 0.9735 0.5462 0
M  V30 27 H 4.7424 -0.2807 -0.5458 0
M  V30 28 H 4.1981 1.4497 -0.672 0
M  V30 END ATOM
M  V30 BEGIN BOND
M  V30 1 2 1 2
M  V30 2 2 1 3
M  V30 3 1 1 4
M  V30 4 1 1 5
M  V30 5 1 4 6
M  V30 6 1 4 7
M  V30 7 2 5 8
M  V30 8 1 5 9
M  V30 9 1 8 10
M  V30 10 2 9 11
M  V30 11 2 10 12
M  V30 12 1 12 13
M  V30 13 1 13 14
M  V30 14 1 11 12
M  V30 15 1 6 15
M  V30 16 1 6 16
M  V30 17 1 6 17
M  V30 18 1 7 18
M  V30 19 1 7 19
M  V30 20 1 7 20
M  V30 21 1 8 21
M  V30 22 1 9 22
M  V30 23 1 10 23
M  V30 24 1 11 24
M  V30 25 1 13 25
M  V30 26 1 14 26
M  V30 27 1 14 27
M  V30 28 1 14 28
M  V30 END BOND
M  V30 END CTAB
M  END
>  <Structure No>
6706

>  <LogS>
-3.08

>  <MMFF94 Energy>
-27.062

$$$$
Compound 6707
Actelion Java MolfileCreator 2.0

  0  0  0  0  0  0              0 V3000
M  V30 BEGIN CTAB
M  V30 COUNTS 37 37 0 0 0
M  V30 BEGIN ATOM
M  V30 1 O 0.9502 -1.2671 -2.139 0
M  V30 2 C 1.6084 -0.4613 -1.4242 0
M  V30 3 O 1.3265 0.9101 -1.4712 0
M  V30 4 C 2.6736 -0.9628 -0.5291 0
M  V30 5 C 0.2414 1.4612 -2.2142 0
M  V30 6 C 3.3931 -0.0708 0.287 0
M  V30 7 C 2.9778 -2.3361 -0.4725 0
M  V30 8 C -1.064 1.0573 -1.5995 0
M  V30 9 C 4.3959 -0.5437 1.1392 0
M  V30 10 C 3.9817 -2.8033 0.3814 0
M  V30 11 O -1.9279 0.4841 -2.3148 0
M  V30 12 N -1.305 1.3196 -0.2043 0
M  V30 13 C 4.6901 -1.9082 1.1863 0
M  V30 14 C -2.4341 0.7971 0.5969 0
M  V30 15 C -3.7117 1.6295 0.3133 0
M  V30 16 C -2.0971 0.9673 2.1051 0
M  V30 17 C -2.6939 -0.7075 0.306 0
M  V30 18 O -4.1186 1.529 -1.0257 0
M  V30 19 O -0.8963 0.3176 2.4359 0
M  V30 20 O -1.4898 -1.4265 0.3014 0
M  V30 21 H 0.3013 1.1311 -3.2745 0
M  V30 22 H 0.3181 2.5682 -2.1927 0
M  V30 23 H 3.1812 0.9909 0.2696 0
M  V30 24 H 2.4407 -3.0485 -1.086 0
M  V30 25 H 4.9449 0.1487 1.7643 0
M  V30 26 H 4.2099 -3.8606 0.4195 0
M  V30 27 H -0.5727 1.8825 0.2868 0
M  V30 28 H 5.4665 -2.2721 1.8468 0
M  V30 29 H -3.5428 2.6972 0.5914 0
M  V30 30 H -4.5439 1.2602 0.9513 0
M  V30 31 H -1.9731 2.0471 2.339 0
M  V30 32 H -2.9368 0.5994 2.7421 0
M  V30 33 H -3.2032 -0.8417 -0.6724 0
M  V30 34 H -3.3765 -1.1295 1.0783 0
M  V30 35 H -3.7481 2.3172 -1.5022 0
M  V30 36 H -1.1382 -0.569 2.8109 0
M  V30 37 H -1.7313 -2.371 0.1158 0
M  V30 END ATOM
M  V30 BEGIN BOND
M  V30 1 2 1 2
M  V30 2 1 2 3
M  V30 3 1 2 4
M  V30 4 1 3 5
M  V30 5 2 4 6
M  V30 6 1 4 7
M  V30 7 1 5 8
M  V30 8 1 6 9
M  V30 9 2 7 10
M  V30 10 2 8 11
M  V30 11 1 8 12
M  V30 12 2 9 13
M  V30 13 1 12 14
M  V30 14 1 14 15
M  V30 15 1 14 16
M  V30 16 1 14 17
M  V30 17 1 15 18
M  V30 18 1 16 19
M  V30 19 1 17 20
M  V30 20 1 10 13
M  V30 21 1 5 21
M  V30 22 1 5 22
M  V30 23 1 6 23
M  V30 24 1 7 24
M  V30 25 1 9 25
M  V30 26 1 10 26
M  V30 27 1 12 27
M  V30 28 1 13 28
M  V30 29 1 15 29
M  V30 30 1 15 30
M  V30 31 1 16 31
M  V30 32 1 16 32
M  V30 33 1 17 33
M  V30 34 1 17 34
M  V30 35 1 18 35
M  V30 36 1 19 36
M  V30 37 1 20 37
M  V30 END BOND
M  V30 END CTAB
M  END
>  <Structure No>
6707

>  <LogS>
-1.27

>  <MMFF94 Energy>
90.434

$$$$
Compound 6708
Actelion Java MolfileCreator 2.0

  0  0  0  0  0  0              0 V3000
M  V30 BEGIN CTAB
M  V30 COUNTS 32 32 0 0 0
M  V30 BEGIN ATOM
M  V30 1 O 1.4275 1.3482 1.0308 0
M  V30 2 C 1.5821 0.843 -0.1154 0
M  V30 3 O 0.4843 0.7053 -0.975 0
M  V30 4 C 2.9216 0.3945 -0.5544 0
M  V30 5 C -0.8433 1.0871 -0.617 0
M  V30 6 C 3.0973 -0.1744 -1.829 0
M  V30 7 C 4.0379 0.528 0.2927 0
M  V30 8 C -1.4395 0.125 0.3783 0
M  V30 9 C 4.3626 -0.5996 -2.2455 0
M  V30 10 C 5.3008 0.1008 -0.1289 0
M  V30 11 O -0.9175 -1.0162 0.5083 0
M  V30 12 N -2.621 0.4639 1.1393 0
M  V30 13 C 5.4631 -0.4622 -1.3967 0
M  V30 14 C -3.1599 -0.4858 2.1216 0
M  V30 15 C -3.336 1.7201 0.8882 0
M  V30 16 C -4.0331 -1.4943 1.439 0
M  V30 17 O -5.1931 -1.1677 1.072 0
M  V30 18 N -3.5519 -2.8115 1.1724 0
M  V30 19 H -0.8319 2.1202 -0.2098 0
M  V30 20 H -1.4711 1.0808 -1.5318 0
M  V30 21 H 2.2591 -0.2918 -2.5043 0
M  V30 22 H 3.9361 0.9615 1.2798 0
M  V30 23 H 4.4896 -1.0364 -3.2276 0
M  V30 24 H 6.1544 0.2068 0.5279 0
M  V30 25 H 6.4415 -0.7919 -1.7211 0
M  V30 26 H -3.7567 0.0473 2.8933 0
M  V30 27 H -2.3318 -0.989 2.666 0
M  V30 28 H -3.5863 1.8043 -0.1901 0
M  V30 29 H -2.7049 2.5804 1.1938 0
M  V30 30 H -4.2865 1.7673 1.461 0
M  V30 31 H -2.5923 -3.1005 1.465 0
M  V30 32 H -4.16 -3.5042 0.6821 0
M  V30 END ATOM
M  V30 BEGIN BOND
M  V30 1 2 1 2
M  V30 2 1 2 3
M  V30 3 1 2 4
M  V30 4 1 3 5
M  V30 5 2 4 6
M  V30 6 1 4 7
M  V30 7 1 5 8
M  V30 8 1 6 9
M  V30 9 2 7 10
M  V30 10 2 8 11
M  V30 11 1 8 12
M  V30 12 2 9 13
M  V30 13 1 12 14
M  V30 14 1 12 15
M  V30 15 1 14 16
M  V30 16 2 16 17
M  V30 17 1 16 18
M  V30 18 1 10 13
M  V30 19 1 5 19
M  V30 20 1 5 20
M  V30 21 1 6 21
M  V30 22 1 7 22
M  V30 23 1 9 23
M  V30 24 1 10 24
M  V30 25 1 13 25
M  V30 26 1 14 26
M  V30 27 1 14 27
M  V30 28 1 15 28
M  V30 29 1 15 29
M  V30 30 1 15 30
M  V30 31 1 18 31
M  V30 32 1 18 32
M  V30 END BOND
M  V30 END CTAB
M  END
>  <Structure No>
6708

>  <LogS>
-0.92

>  <MMFF94 Energy>
39.139

$$$$
Compound 6709
Actelion Java MolfileCreator 2.0

  0  0  0  0  0  0              0 V3000
M  V30 BEGIN CTAB
M  V30 COUNTS 39 39 0 0 0
M  V30 BEGIN ATOM
M  V30 1 F 6.5989 -0.3172 -2.3018 0
M  V30 2 C 5.6781 0.3368 -1.5498 0
M  V30 3 C 5.6215 1.7278 -1.5361 0
M  V30 4 C 4.7723 -0.3751 -0.7655 0
M  V30 5 O 6.4244 2.4052 -2.2299 0
M  V30 6 N 4.6955 2.3551 -0.7698 0 CHG=-1
M  V30 7 N 3.8465 0.2811 -0.002 0
M  V30 8 C 3.8143 1.654 -0.0086 0
M  V30 9 C 2.9291 -0.4819 0.8094 0
M  V30 10 O 2.9622 2.2847 0.6742 0
M  V30 11 O 2.6194 -0.0698 1.9614 0
M  V30 12 N 2.3586 -1.7029 0.3094 0
M  V30 13 C 1.4235 -2.5184 1.0845 0
M  V30 14 C -0.0174 -2.2962 0.6117 0
M  V30 15 C -0.5105 -0.8732 0.9086 0
M  V30 16 C -1.978 -0.702 0.4986 0
M  V30 17 C -2.4623 0.729 0.777 0
M  V30 18 C -3.9632 0.9105 0.5007 0
M  V30 19 C -4.2958 0.8836 -0.9981 0
M  V30 20 C -5.7691 1.2002 -1.2395 0
M  V30 21 H 4.8324 -1.457 -0.757 0
M  V30 22 H 2.5092 -1.959 -0.692 0
M  V30 23 H 1.6842 -3.5886 0.9393 0
M  V30 24 H 1.5098 -2.3066 2.1722 0
M  V30 25 H -0.6729 -3.0268 1.1342 0
M  V30 26 H -0.0817 -2.497 -0.4803 0
M  V30 27 H -0.4054 -0.6663 1.9965 0
M  V30 28 H 0.1091 -0.1411 0.3464 0
M  V30 29 H -2.0755 -0.9261 -0.5848 0
M  V30 30 H -2.6047 -1.4224 1.0691 0
M  V30 31 H -2.2806 0.9668 1.8483 0
M  V30 32 H -1.877 1.4526 0.1681 0
M  V30 33 H -4.5424 0.1235 1.0319 0
M  V30 34 H -4.2712 1.8944 0.9185 0
M  V30 35 H -3.6756 1.6332 -1.536 0
M  V30 36 H -4.0809 -0.1211 -1.4189 0
M  V30 37 H -5.9836 1.1642 -2.3283 0
M  V30 38 H -6.4128 0.4549 -0.7255 0
M  V30 39 H -6.0126 2.2169 -0.8637 0
M  V30 END ATOM
M  V30 BEGIN BOND
M  V30 1 1 1 2
M  V30 2 1 2 3
M  V30 3 2 2 4
M  V30 4 2 3 5
M  V30 5 1 3 6
M  V30 6 1 4 7
M  V30 7 1 6 8
M  V30 8 1 7 9
M  V30 9 2 8 10
M  V30 10 2 9 11
M  V30 11 1 9 12
M  V30 12 1 12 13
M  V30 13 1 13 14
M  V30 14 1 14 15
M  V30 15 1 15 16
M  V30 16 1 16 17
M  V30 17 1 17 18
M  V30 18 1 18 19
M  V30 19 1 19 20
M  V30 20 1 7 8
M  V30 21 1 4 21
M  V30 22 1 12 22
M  V30 23 1 13 23
M  V30 24 1 13 24
M  V30 25 1 14 25
M  V30 26 1 14 26
M  V30 27 1 15 27
M  V30 28 1 15 28
M  V30 29 1 16 29
M  V30 30 1 16 30
M  V30 31 1 17 31
M  V30 32 1 17 32
M  V30 33 1 18 33
M  V30 34 1 18 34
M  V30 35 1 19 35
M  V30 36 1 19 36
M  V30 37 1 20 37
M  V30 38 1 20 38
M  V30 39 1 20 39
M  V30 END BOND
M  V30 END CTAB
M  END
>  <Structure No>
6709

>  <LogS>
-4.18

>  <MMFF94 Energy>
-26.39

$$$$
Compound 6710
Actelion Java MolfileCreator 2.0

  0  0  0  0  0  0              0 V3000
M  V30 BEGIN CTAB
M  V30 COUNTS 41 42 0 0 0
M  V30 BEGIN ATOM
M  V30 1 O 2.5526 -2.2332 -1.2756 0
M  V30 2 C 2.8166 -1.2088 -0.587 0
M  V30 3 O 1.7973 -0.3137 -0.2449 0
M  V30 4 C 4.203 -0.9508 -0.1398 0
M  V30 5 C 0.4418 -0.5003 -0.6423 0
M  V30 6 C 4.5006 0.1906 0.627 0
M  V30 7 C 5.243 -1.8393 -0.4726 0
M  V30 8 C -0.4124 0.622 -0.1237 0
M  V30 9 C 5.8103 0.4363 1.0508 0
M  V30 10 C 6.5509 -1.5883 -0.046 0
M  V30 11 O 0.1426 1.6873 0.2627 0
M  V30 12 N -1.8522 0.5051 -0.0688 0
M  V30 13 C 6.8344 -0.4519 0.7147 0
M  V30 14 C -2.5838 1.2538 0.9759 0 CFG=2
M  V30 15 C -2.5712 -0.2899 -1.0907 0 CFG=1
M  V30 16 C -3.7256 0.4155 1.6156 0
M  V30 17 C -3.0996 2.5832 0.4095 0
M  V30 18 C -4.0262 -0.5788 -0.6769 0
M  V30 19 C -2.5304 0.4147 -2.4521 0
M  V30 20 C -4.0965 -0.8437 0.822 0
M  V30 21 H 0.0726 -1.4625 -0.2271 0
M  V30 22 H 0.3826 -0.5287 -1.7503 0
M  V30 23 H 3.7234 0.8935 0.8999 0
M  V30 24 H 5.0469 -2.7265 -1.0614 0
M  V30 25 H 6.0313 1.3167 1.6405 0
M  V30 26 H 7.3453 -2.276 -0.3058 0
M  V30 27 H 7.8473 -0.2596 1.0439 0
M  V30 28 H -1.882 1.5137 1.8009 0
M  V30 29 H -2.0732 -1.2776 -1.1977 0
M  V30 30 H -4.6395 1.0372 1.745 0
M  V30 31 H -3.4208 0.0985 2.6373 0
M  V30 32 H -2.2668 3.1454 -0.0631 0
M  V30 33 H -3.5194 3.207 1.2273 0
M  V30 34 H -3.8916 2.4158 -0.348 0
M  V30 35 H -4.6965 0.271 -0.9311 0
M  V30 36 H -4.3975 -1.4715 -1.2263 0
M  V30 37 H -1.4827 0.5598 -2.7854 0
M  V30 38 H -3.0205 1.4089 -2.3948 0
M  V30 39 H -3.0538 -0.1998 -3.2151 0
M  V30 40 H -5.1246 -1.1652 1.0965 0
M  V30 41 H -3.401 -1.6715 1.0852 0
M  V30 END ATOM
M  V30 BEGIN BOND
M  V30 1 2 1 2
M  V30 2 1 2 3
M  V30 3 1 2 4
M  V30 4 1 3 5
M  V30 5 2 4 6
M  V30 6 1 4 7
M  V30 7 1 5 8
M  V30 8 1 6 9
M  V30 9 2 7 10
M  V30 10 2 8 11
M  V30 11 1 8 12
M  V30 12 2 9 13
M  V30 13 1 12 14
M  V30 14 1 12 15
M  V30 15 1 14 16
M  V30 16 1 14 17
M  V30 17 1 15 18
M  V30 18 1 15 19
M  V30 19 1 16 20
M  V30 20 1 10 13
M  V30 21 1 18 20
M  V30 22 1 5 21
M  V30 23 1 5 22
M  V30 24 1 6 23
M  V30 25 1 7 24
M  V30 26 1 9 25
M  V30 27 1 10 26
M  V30 28 1 13 27
M  V30 29 1 14 28
M  V30 30 1 15 29
M  V30 31 1 16 30
M  V30 32 1 16 31
M  V30 33 1 17 32
M  V30 34 1 17 33
M  V30 35 1 17 34
M  V30 36 1 18 35
M  V30 37 1 18 36
M  V30 38 1 19 37
M  V30 39 1 19 38
M  V30 40 1 19 39
M  V30 41 1 20 40
M  V30 42 1 20 41
M  V30 END BOND
M  V30 BEGIN COLLECTION
M  V30 MDLV30/STEABS ATOMS=(2 14 15)
M  V30 END COLLECTION
M  V30 END CTAB
M  END
>  <Structure No>
6710

>  <LogS>
-3.26

>  <MMFF94 Energy>
44.838

$$$$
Compound 6711
Actelion Java MolfileCreator 2.0

  0  0  0  0  0  0              0 V3000
M  V30 BEGIN CTAB
M  V30 COUNTS 42 42 0 0 0
M  V30 BEGIN ATOM
M  V30 1 O 2.7651 2.2116 -1.2633 0
M  V30 2 C 2.8639 1.0847 -0.7034 0
M  V30 3 O 1.7116 0.3913 -0.3179 0
M  V30 4 C 4.1965 0.4935 -0.4528 0
M  V30 5 C 0.3978 0.9014 -0.5288 0
M  V30 6 C 4.3099 -0.7625 0.1706 0
M  V30 7 C 5.3685 1.1749 -0.8324 0
M  V30 8 C -0.6313 -0.0676 -0.0149 0
M  V30 9 C 5.5687 -1.3231 0.4084 0
M  V30 10 C 6.6245 0.6094 -0.5921 0
M  V30 11 O -0.2437 -1.1123 0.5774 0
M  V30 12 N -2.0472 0.1638 -0.2025 0
M  V30 13 C 6.7247 -0.6381 0.0276 0
M  V30 14 C -2.9938 -0.9464 -0.0173 0
M  V30 15 C -2.5695 1.5034 -0.5172 0
M  V30 16 C -2.921 -1.9148 -1.2007 0
M  V30 17 C -2.6743 2.3565 0.7467 0
M  V30 18 O -3.899 -2.9285 -1.0648 0
M  V30 19 O -3.6041 1.7712 1.6337 0
M  V30 20 C -3.3342 -4.0815 -0.4804 0
M  V30 21 C -3.6814 2.5462 2.8085 0
M  V30 22 H 0.2931 1.8711 8.0E-4 0
M  V30 23 H 0.2377 1.0554 -1.6173 0
M  V30 24 H 3.4281 -1.3122 0.4748 0
M  V30 25 H 5.3153 2.1433 -1.3141 0
M  V30 26 H 5.6476 -2.2898 0.8886 0
M  V30 27 H 7.5211 1.1392 -0.8868 0
M  V30 28 H 7.6978 -1.074 0.2126 0
M  V30 29 H -4.0353 -0.5656 0.0673 0
M  V30 30 H -2.771 -1.4765 0.9331 0
M  V30 31 H -3.5754 1.4283 -0.9858 0
M  V30 32 H -1.9234 2.0101 -1.2637 0
M  V30 33 H -1.8844 -2.3097 -1.3228 0
M  V30 34 H -3.1482 -1.3466 -2.1277 0
M  V30 35 H -1.6687 2.4321 1.218 0
M  V30 36 H -3.0109 3.375 0.4465 0
M  V30 37 H -2.8622 -3.8544 0.5009 0
M  V30 38 H -2.5948 -4.5494 -1.167 0
M  V30 39 H -4.1423 -4.8201 -0.3018 0
M  V30 40 H -4.0276 3.5807 2.5881 0
M  V30 41 H -4.4242 2.0822 3.4894 0
M  V30 42 H -2.7048 2.5676 3.3412 0
M  V30 END ATOM
M  V30 BEGIN BOND
M  V30 1 2 1 2
M  V30 2 1 2 3
M  V30 3 1 2 4
M  V30 4 1 3 5
M  V30 5 2 4 6
M  V30 6 1 4 7
M  V30 7 1 5 8
M  V30 8 1 6 9
M  V30 9 2 7 10
M  V30 10 2 8 11
M  V30 11 1 8 12
M  V30 12 2 9 13
M  V30 13 1 12 14
M  V30 14 1 12 15
M  V30 15 1 14 16
M  V30 16 1 15 17
M  V30 17 1 16 18
M  V30 18 1 17 19
M  V30 19 1 18 20
M  V30 20 1 19 21
M  V30 21 1 10 13
M  V30 22 1 5 22
M  V30 23 1 5 23
M  V30 24 1 6 24
M  V30 25 1 7 25
M  V30 26 1 9 26
M  V30 27 1 10 27
M  V30 28 1 13 28
M  V30 29 1 14 29
M  V30 30 1 14 30
M  V30 31 1 15 31
M  V30 32 1 15 32
M  V30 33 1 16 33
M  V30 34 1 16 34
M  V30 35 1 17 35
M  V30 36 1 17 36
M  V30 37 1 20 37
M  V30 38 1 20 38
M  V30 39 1 20 39
M  V30 40 1 21 40
M  V30 41 1 21 41
M  V30 42 1 21 42
M  V30 END BOND
M  V30 END CTAB
M  END
>  <Structure No>
6711

>  <LogS>
-1.57

>  <MMFF94 Energy>
79.118

$$$$
Compound 6712
Actelion Java MolfileCreator 2.0

  0  0  0  0  0  0              0 V3000
M  V30 BEGIN CTAB
M  V30 COUNTS 28 28 0 0 0
M  V30 BEGIN ATOM
M  V30 1 O 0.3187 -1.5148 -0.3187 0
M  V30 2 C 0.7353 -0.39 0.073 0
M  V30 3 O 2.1083 -0.183 0.2483 0
M  V30 4 C -0.216 0.7185 0.3476 0
M  V30 5 C 3.0781 -1.1939 -0.0018 0
M  V30 6 C -1.6188 0.5523 0.2274 0
M  V30 7 C 0.2929 1.9752 0.7287 0
M  V30 8 C 4.4412 -0.6466 0.2716 0
M  V30 9 O -2.145 -0.6984 -0.1343 0
M  V30 10 C -2.4707 1.6359 0.5189 0
M  V30 11 C -0.566 3.0423 0.9956 0
M  V30 12 O 5.021 -0.9186 1.3564 0
M  V30 13 N 5.0718 0.2185 -0.6715 0
M  V30 14 C -3.3322 -0.902 -0.8491 0
M  V30 15 C -1.9448 2.872 0.8948 0
M  V30 16 O -3.8638 0.033 -1.5071 0
M  V30 17 C -3.9077 -2.2749 -0.9273 0
M  V30 18 H 3.0177 -1.5193 -1.0627 0
M  V30 19 H 2.8836 -2.0714 0.6527 0
M  V30 20 H 1.3593 2.1375 0.8217 0
M  V30 21 H -3.5455 1.5204 0.4862 0
M  V30 22 H -0.1608 4.0021 1.2896 0
M  V30 23 H 4.5923 0.4723 -1.5637 0
M  V30 24 H 6.0193 0.6111 -0.4757 0
M  V30 25 H -2.6088 3.6975 1.1177 0
M  V30 26 H -3.4467 -2.8208 -1.7761 0
M  V30 27 H -5.0069 -2.2232 -1.0767 0
M  V30 28 H -3.7004 -2.8233 0.0151 0
M  V30 END ATOM
M  V30 BEGIN BOND
M  V30 1 2 1 2
M  V30 2 1 2 3
M  V30 3 1 2 4
M  V30 4 1 3 5
M  V30 5 2 4 6
M  V30 6 1 4 7
M  V30 7 1 5 8
M  V30 8 1 6 9
M  V30 9 1 6 10
M  V30 10 2 7 11
M  V30 11 2 8 12
M  V30 12 1 8 13
M  V30 13 1 9 14
M  V30 14 2 10 15
M  V30 15 2 14 16
M  V30 16 1 14 17
M  V30 17 1 11 15
M  V30 18 1 5 18
M  V30 19 1 5 19
M  V30 20 1 7 20
M  V30 21 1 10 21
M  V30 22 1 11 22
M  V30 23 1 13 23
M  V30 24 1 13 24
M  V30 25 1 15 25
M  V30 26 1 17 26
M  V30 27 1 17 27
M  V30 28 1 17 28
M  V30 END BOND
M  V30 END CTAB
M  END
>  <Structure No>
6712

>  <LogS>
-1.79

>  <MMFF94 Energy>
31.216

$$$$
Compound 6713
Actelion Java MolfileCreator 2.0

  0  0  0  0  0  0              0 V3000
M  V30 BEGIN CTAB
M  V30 COUNTS 39 40 0 0 0
M  V30 BEGIN ATOM
M  V30 1 O 0.0792 0.1585 -1.5868 0
M  V30 2 C -0.5009 0.0523 -0.4741 0
M  V30 3 N 0.238 -0.391 0.688 0
M  V30 4 C -1.9396 0.3876 -0.3897 0
M  V30 5 O -0.442 -0.7544 1.8121 0
M  V30 6 C 1.7111 -0.3406 0.7572 0
M  V30 7 C -2.8701 0.3705 -1.4206 0
M  V30 8 C -2.6213 0.8446 0.7238 0
M  V30 9 C -0.6694 -2.1402 1.7296 0
M  V30 10 C 2.3557 -1.414 -0.1476 0
M  V30 11 C 2.2528 1.094 0.5001 0
M  V30 12 O -4.036 0.7789 -0.9749 0
M  V30 13 C -2.628 -0.0334 -2.8387 0
M  V30 14 C -3.9173 1.0633 0.3011 0
M  V30 15 C 3.8758 -1.2265 -0.1995 0
M  V30 16 C 3.1394 1.1892 -0.7491 0
M  V30 17 C -5.0281 1.5876 1.1471 0
M  V30 18 C 4.2912 0.1701 -0.7129 0
M  V30 19 H 2.007 -0.6039 1.7988 0
M  V30 20 H -2.2258 1.0343 1.7126 0
M  V30 21 H -1.3169 -2.4447 2.577 0
M  V30 22 H 0.286 -2.7001 1.8129 0
M  V30 23 H -1.1949 -2.4099 0.7864 0
M  V30 24 H 1.9546 -1.3722 -1.1806 0
M  V30 25 H 2.1291 -2.4247 0.2536 0
M  V30 26 H 2.8569 1.4175 1.3767 0
M  V30 27 H 1.4198 1.8242 0.4088 0
M  V30 28 H -2.1228 -1.0213 -2.8693 0
M  V30 29 H -3.5941 -0.1092 -3.3803 0
M  V30 30 H -1.993 0.7258 -3.3402 0
M  V30 31 H 4.3182 -2.0096 -0.8527 0
M  V30 32 H 4.2884 -1.3793 0.8222 0
M  V30 33 H 3.559 2.2155 -0.8264 0
M  V30 34 H 2.5238 1.0171 -1.6571 0
M  V30 35 H -5.0345 1.0672 2.1278 0
M  V30 36 H -4.8881 2.6764 1.3097 0
M  V30 37 H -6.0017 1.4167 0.6421 0
M  V30 38 H 4.7095 0.0773 -1.7387 0
M  V30 39 H 5.1031 0.5653 -0.0639 0
M  V30 END ATOM
M  V30 BEGIN BOND
M  V30 1 2 1 2
M  V30 2 1 2 3
M  V30 3 1 2 4
M  V30 4 1 3 5
M  V30 5 1 3 6
M  V30 6 2 4 7
M  V30 7 1 4 8
M  V30 8 1 5 9
M  V30 9 1 6 10
M  V30 10 1 6 11
M  V30 11 1 7 12
M  V30 12 1 7 13
M  V30 13 2 8 14
M  V30 14 1 10 15
M  V30 15 1 11 16
M  V30 16 1 14 17
M  V30 17 1 15 18
M  V30 18 1 12 14
M  V30 19 1 16 18
M  V30 20 1 6 19
M  V30 21 1 8 20
M  V30 22 1 9 21
M  V30 23 1 9 22
M  V30 24 1 9 23
M  V30 25 1 10 24
M  V30 26 1 10 25
M  V30 27 1 11 26
M  V30 28 1 11 27
M  V30 29 1 13 28
M  V30 30 1 13 29
M  V30 31 1 13 30
M  V30 32 1 15 31
M  V30 33 1 15 32
M  V30 34 1 16 33
M  V30 35 1 16 34
M  V30 36 1 17 35
M  V30 37 1 17 36
M  V30 38 1 17 37
M  V30 39 1 18 38
M  V30 40 1 18 39
M  V30 END BOND
M  V30 END CTAB
M  END
>  <Structure No>
6713

>  <LogS>
-2.92

>  <MMFF94 Energy>
36.845

$$$$
Compound 6714
Actelion Java MolfileCreator 2.0

  0  0  0  0  0  0              0 V3000
M  V30 BEGIN CTAB
M  V30 COUNTS 24 25 0 0 0
M  V30 BEGIN ATOM
M  V30 1 O 0.0804 2.577 -0.4023 0
M  V30 2 C -1.0111 2.2742 0.1477 0
M  V30 3 O -1.7512 3.276 0.7654 0 CHG=-1
M  V30 4 C -1.5318 0.8849 0.1006 0
M  V30 5 C -0.6923 -0.2476 -0.0906 0
M  V30 6 C -2.9219 0.6907 0.2062 0
M  V30 7 C 0.785 -0.1515 -0.1057 0
M  V30 8 C -1.2719 -1.5226 -0.2141 0
M  V30 9 C -3.4762 -0.5853 0.0945 0
M  V30 10 C 1.5119 -0.6032 -1.2197 0
M  V30 11 C 1.4759 0.3495 1.0107 0
M  V30 12 C -2.6538 -1.6883 -0.1233 0
M  V30 13 C 2.9085 -0.5328 -1.2244 0
M  V30 14 C 2.8725 0.4184 1.0016 0
M  V30 15 C 3.588 -0.0206 -0.1157 0
M  V30 16 H -3.588 1.5324 0.3514 0
M  V30 17 H -0.6477 -2.3965 -0.3578 0
M  V30 18 H -4.548 -0.7174 0.1686 0
M  V30 19 H 0.9968 -1.002 -2.085 0
M  V30 20 H 0.9331 0.6839 1.8865 0
M  V30 21 H -3.0871 -2.6762 -0.2121 0
M  V30 22 H 3.4639 -0.8763 -2.0874 0
M  V30 23 H 3.4 0.8092 1.862 0
M  V30 24 H 4.669 0.0326 -0.1208 0
M  V30 END ATOM
M  V30 BEGIN BOND
M  V30 1 2 1 2
M  V30 2 1 2 3
M  V30 3 1 2 4
M  V30 4 2 4 5
M  V30 5 1 4 6
M  V30 6 1 5 7
M  V30 7 1 5 8
M  V30 8 2 6 9
M  V30 9 2 7 10
M  V30 10 1 7 11
M  V30 11 2 8 12
M  V30 12 1 10 13
M  V30 13 2 11 14
M  V30 14 2 13 15
M  V30 15 1 9 12
M  V30 16 1 14 15
M  V30 17 1 6 16
M  V30 18 1 8 17
M  V30 19 1 9 18
M  V30 20 1 10 19
M  V30 21 1 11 20
M  V30 22 1 12 21
M  V30 23 1 13 22
M  V30 24 1 14 23
M  V30 25 1 15 24
M  V30 END BOND
M  V30 END CTAB
M  END
>  <Structure No>
6714

>  <LogS>
-2.73

>  <MMFF94 Energy>
64.575

$$$$
Compound 6715
Actelion Java MolfileCreator 2.0

  0  0  0  0  0  0              0 V3000
M  V30 BEGIN CTAB
M  V30 COUNTS 37 37 0 0 0
M  V30 BEGIN ATOM
M  V30 1 O 2.541 -0.7935 -1.3493 0
M  V30 2 C 2.5809 -0.0624 -0.321 0
M  V30 3 O 1.7966 -0.3792 0.7959 0
M  V30 4 C 3.4551 1.1307 -0.2918 0
M  V30 5 C 0.9088 -1.4957 0.8381 0
M  V30 6 C 4.2517 1.4656 -1.4032 0
M  V30 7 C 3.5003 1.9499 0.851 0
M  V30 8 C -0.3108 -1.2573 -0.0146 0
M  V30 9 C 5.0749 2.5955 -1.3682 0
M  V30 10 C 4.3256 3.0786 0.8803 0
M  V30 11 O -0.5945 -0.0753 -0.3536 0
M  V30 12 N -1.1841 -2.3428 -0.4003 0
M  V30 13 C 5.112 3.4011 -0.2278 0
M  V30 14 C -2.346 -2.08 -1.2591 0
M  V30 15 C -0.9708 -3.6958 0.1249 0
M  V30 16 C -3.4887 -1.5798 -0.4356 0
M  V30 17 O -4.2547 -2.4021 0.1371 0
M  V30 18 O -3.667 -0.2036 -0.2701 0
M  V30 19 C -4.7077 0.3447 0.5314 0
M  V30 20 C -4.6172 1.8621 0.514 0
M  V30 21 H 1.4489 -2.4081 0.5081 0
M  V30 22 H 0.5805 -1.646 1.8875 0
M  V30 23 H 4.2392 0.8563 -2.298 0
M  V30 24 H 2.8995 1.7205 1.722 0
M  V30 25 H 5.6847 2.8467 -2.2265 0
M  V30 26 H 4.355 3.7038 1.7635 0
M  V30 27 H 5.7498 4.2752 -0.2028 0
M  V30 28 H -2.6539 -3.0033 -1.7967 0
M  V30 29 H -2.0867 -1.334 -2.0412 0
M  V30 30 H -1.8002 -4.3771 -0.1607 0
M  V30 31 H -0.0253 -4.1123 -0.2798 0
M  V30 32 H -0.9227 -3.668 1.234 0
M  V30 33 H -5.6957 0.0304 0.1307 0
M  V30 34 H -4.6057 -0.0167 1.5777 0
M  V30 35 H -3.6357 2.1878 0.9192 0
M  V30 36 H -5.4271 2.2935 1.1393 0
M  V30 37 H -4.7252 2.2367 -0.5257 0
M  V30 END ATOM
M  V30 BEGIN BOND
M  V30 1 2 1 2
M  V30 2 1 2 3
M  V30 3 1 2 4
M  V30 4 1 3 5
M  V30 5 2 4 6
M  V30 6 1 4 7
M  V30 7 1 5 8
M  V30 8 1 6 9
M  V30 9 2 7 10
M  V30 10 2 8 11
M  V30 11 1 8 12
M  V30 12 2 9 13
M  V30 13 1 12 14
M  V30 14 1 12 15
M  V30 15 1 14 16
M  V30 16 2 16 17
M  V30 17 1 16 18
M  V30 18 1 18 19
M  V30 19 1 19 20
M  V30 20 1 10 13
M  V30 21 1 5 21
M  V30 22 1 5 22
M  V30 23 1 6 23
M  V30 24 1 7 24
M  V30 25 1 9 25
M  V30 26 1 10 26
M  V30 27 1 13 27
M  V30 28 1 14 28
M  V30 29 1 14 29
M  V30 30 1 15 30
M  V30 31 1 15 31
M  V30 32 1 15 32
M  V30 33 1 19 33
M  V30 34 1 19 34
M  V30 35 1 20 35
M  V30 36 1 20 36
M  V30 37 1 20 37
M  V30 END BOND
M  V30 END CTAB
M  END
>  <Structure No>
6715

>  <LogS>
-1.67

>  <MMFF94 Energy>
56.104

$$$$
Compound 6716
Actelion Java MolfileCreator 2.0

  0  0  0  0  0  0              0 V3000
M  V30 BEGIN CTAB
M  V30 COUNTS 23 24 0 0 0
M  V30 BEGIN ATOM
M  V30 1 O -4.4802 -1.5983 0.2396 0
M  V30 2 C -3.4911 -0.8371 0.4039 0
M  V30 3 N -3.435 0.0132 1.471 0
M  V30 4 C -2.4256 -0.8323 -0.4839 0
M  V30 5 C -2.3605 0.8452 1.6639 0
M  V30 6 C -1.3744 -0.0018 -0.2784 0
M  V30 7 C -2.1238 -1.5357 -1.6319 0
M  V30 8 N -1.3127 0.8415 0.7834 0
M  V30 9 N -0.4648 -0.1744 -1.2522 0
M  V30 10 N -0.9123 -1.1155 -2.079 0
M  V30 11 C 0.8262 0.4889 -1.3849 0
M  V30 12 O 1.7067 0.0183 -0.3703 0
M  V30 13 C 3.0156 0.4874 -0.2317 0
M  V30 14 O 3.4669 1.3766 -1.0037 0
M  V30 15 C 3.8697 -0.0341 0.8732 0
M  V30 16 H -2.3439 1.5066 2.5201 0
M  V30 17 H -2.7265 -2.2986 -2.1061 0
M  V30 18 H -0.4934 1.4715 0.932 0
M  V30 19 H 1.2589 0.2708 -2.3855 0
M  V30 20 H 0.6903 1.588 -1.2893 0
M  V30 21 H 3.8178 0.6584 1.7388 0
M  V30 22 H 3.5125 -1.0372 1.1874 0
M  V30 23 H 4.9233 -0.1191 0.5332 0
M  V30 END ATOM
M  V30 BEGIN BOND
M  V30 1 2 1 2
M  V30 2 1 2 3
M  V30 3 1 2 4
M  V30 4 2 3 5
M  V30 5 2 4 6
M  V30 6 1 4 7
M  V30 7 1 5 8
M  V30 8 1 6 9
M  V30 9 2 7 10
M  V30 10 1 9 11
M  V30 11 1 11 12
M  V30 12 1 12 13
M  V30 13 2 13 14
M  V30 14 1 13 15
M  V30 15 1 6 8
M  V30 16 1 9 10
M  V30 17 1 5 16
M  V30 18 1 7 17
M  V30 19 1 8 18
M  V30 20 1 11 19
M  V30 21 1 11 20
M  V30 22 1 15 21
M  V30 23 1 15 22
M  V30 24 1 15 23
M  V30 END BOND
M  V30 END CTAB
M  END
>  <Structure No>
6716

>  <LogS>
-2.56

>  <MMFF94 Energy>
0.77702

$$$$
Compound 6717
Actelion Java MolfileCreator 2.0

  0  0  0  0  0  0              0 V3000
M  V30 BEGIN CTAB
M  V30 COUNTS 31 32 0 0 0
M  V30 BEGIN ATOM
M  V30 1 O 0.2428 0.0809 0.9718 0
M  V30 2 C 1.1055 0.5105 0.1571 0
M  V30 3 O 0.7012 1.1763 -1.0073 0
M  V30 4 C 2.546 0.3145 0.4302 0
M  V30 5 C -0.665 1.3763 -1.3615 0
M  V30 6 C 2.9728 -0.3489 1.5962 0
M  V30 7 C 3.5116 0.7892 -0.4761 0
M  V30 8 C -1.2899 0.0815 -1.7815 0
M  V30 9 C 4.3363 -0.5313 1.8471 0
M  V30 10 C 4.8737 0.6039 -0.22 0
M  V30 11 O -0.8361 -0.5336 -2.7822 0
M  V30 12 N -2.3884 -0.4687 -1.054 0
M  V30 13 C 5.2858 -0.0555 0.9402 0
M  V30 14 C -3.2255 -0.1228 0.1118 0 CFG=1
M  V30 15 C -3.2001 -1.6992 -1.0972 0
M  V30 16 C -4.0211 1.129 -0.1329 0
M  V30 17 C -4.0621 -1.3655 0.0776 0
M  V30 18 O -4.2633 1.9154 0.8195 0
M  V30 19 O -4.5277 1.4061 -1.3973 0 CHG=-1
M  V30 20 H -1.2145 1.8307 -0.5096 0
M  V30 21 H -0.7126 2.0867 -2.2129 0
M  V30 22 H 2.2549 -0.7264 2.3135 0
M  V30 23 H 3.2164 1.3031 -1.3822 0
M  V30 24 H 4.6568 -1.0423 2.7458 0
M  V30 25 H 5.6105 0.972 -0.9221 0
M  V30 26 H 6.3406 -0.1978 1.1363 0
M  V30 27 H -2.6064 -0.0518 1.0348 0
M  V30 28 H -3.776 -1.7608 -2.0472 0
M  V30 29 H -2.5678 -2.598 -0.9229 0
M  V30 30 H -5.1287 -1.2099 -0.1991 0
M  V30 31 H -3.8841 -2.0334 0.9482 0
M  V30 END ATOM
M  V30 BEGIN BOND
M  V30 1 2 1 2
M  V30 2 1 2 3
M  V30 3 1 2 4
M  V30 4 1 3 5
M  V30 5 2 4 6
M  V30 6 1 4 7
M  V30 7 1 5 8
M  V30 8 1 6 9
M  V30 9 2 7 10
M  V30 10 2 8 11
M  V30 11 1 8 12
M  V30 12 2 9 13
M  V30 13 1 12 14
M  V30 14 1 12 15
M  V30 15 1 14 16
M  V30 16 1 14 17
M  V30 17 2 16 18
M  V30 18 1 16 19
M  V30 19 1 10 13
M  V30 20 1 15 17
M  V30 21 1 5 20
M  V30 22 1 5 21
M  V30 23 1 6 22
M  V30 24 1 7 23
M  V30 25 1 9 24
M  V30 26 1 10 25
M  V30 27 1 13 26
M  V30 28 1 14 27
M  V30 29 1 15 28
M  V30 30 1 15 29
M  V30 31 1 17 30
M  V30 32 1 17 31
M  V30 END BOND
M  V30 BEGIN COLLECTION
M  V30 MDLV30/STEABS ATOMS=(1 14)
M  V30 END COLLECTION
M  V30 END CTAB
M  END
>  <Structure No>
6717

>  <LogS>
-2.14

>  <MMFF94 Energy>
81.867

$$$$
Compound 6718
Actelion Java MolfileCreator 2.0

  0  0  0  0  0  0              0 V3000
M  V30 BEGIN CTAB
M  V30 COUNTS 29 30 0 0 0
M  V30 BEGIN ATOM
M  V30 1 Cl 2.7751 -2.6909 1.7653 0
M  V30 2 C 2.5462 -1.549 0.411 0 CFG=1
M  V30 3 C 1.1197 -1.4615 0.0325 0
M  V30 4 C 2.8857 -0.0978 0.8185 0 CFG=2
M  V30 5 O 0.4332 -2.4561 -0.3242 0
M  V30 6 N 0.6354 -0.1279 0.0033 0
M  V30 7 C 1.7397 0.7819 0.2652 0
M  V30 8 C 4.2686 0.3338 0.3092 0
M  V30 9 C -0.7133 0.2825 -0.2976 0
M  V30 10 Cl 4.6856 1.963 0.9043 0
M  V30 11 C -1.809 -0.5044 0.1013 0
M  V30 12 C -0.9535 1.4982 -0.9595 0
M  V30 13 C -3.1262 -0.1084 -0.1926 0
M  V30 14 C -2.2594 1.9103 -1.2302 0
M  V30 15 C -3.3413 1.1169 -0.8449 0
M  V30 16 C -4.2938 -0.9366 0.2818 0
M  V30 17 F -3.9693 -2.2821 0.2795 0
M  V30 18 F -4.629 -0.5561 1.5677 0
M  V30 19 F -5.3911 -0.7555 -0.5423 0
M  V30 20 H 3.135 -1.8834 -0.4707 0
M  V30 21 H 2.875 -0.0162 1.9291 0
M  V30 22 H 1.4394 1.5523 1.0084 0
M  V30 23 H 2.0375 1.2764 -0.685 0
M  V30 24 H 4.2942 0.3351 -0.8015 0
M  V30 25 H 5.039 -0.3759 0.6782 0
M  V30 26 H -1.6403 -1.4117 0.6659 0
M  V30 27 H -0.1319 2.1287 -1.2717 0
M  V30 28 H -2.4341 2.851 -1.7363 0
M  V30 29 H -4.3458 1.4649 -1.0503 0
M  V30 END ATOM
M  V30 BEGIN BOND
M  V30 1 1 1 2
M  V30 2 1 2 3
M  V30 3 1 2 4
M  V30 4 2 3 5
M  V30 5 1 3 6
M  V30 6 1 4 7
M  V30 7 1 4 8
M  V30 8 1 6 9
M  V30 9 1 8 10
M  V30 10 2 9 11
M  V30 11 1 9 12
M  V30 12 1 11 13
M  V30 13 2 12 14
M  V30 14 2 13 15
M  V30 15 1 13 16
M  V30 16 1 16 17
M  V30 17 1 16 18
M  V30 18 1 16 19
M  V30 19 1 6 7
M  V30 20 1 14 15
M  V30 21 1 2 20
M  V30 22 1 4 21
M  V30 23 1 7 22
M  V30 24 1 7 23
M  V30 25 1 8 24
M  V30 26 1 8 25
M  V30 27 1 11 26
M  V30 28 1 12 27
M  V30 29 1 14 28
M  V30 30 1 15 29
M  V30 END BOND
M  V30 BEGIN COLLECTION
M  V30 MDLV30/STEABS ATOMS=(2 2 4)
M  V30 END COLLECTION
M  V30 END CTAB
M  END
>  <Structure No>
6718

>  <LogS>
-4.05

>  <MMFF94 Energy>
42.41

$$$$
Compound 6719
Actelion Java MolfileCreator 2.0

  0  0  0  0  0  0              0 V3000
M  V30 BEGIN CTAB
M  V30 COUNTS 34 34 0 0 0
M  V30 BEGIN ATOM
M  V30 1 O 0.397 1.4299 -1.5888 0
M  V30 2 C -0.2451 0.6803 -0.8023 0
M  V30 3 O -0.1141 0.8405 0.5824 0
M  V30 4 C -1.1082 -0.393 -1.3467 0
M  V30 5 C 0.7203 1.8275 1.1832 0
M  V30 6 C -2.1708 -0.9532 -0.5934 0
M  V30 7 C -0.8325 -0.9137 -2.6252 0
M  V30 8 C 2.1634 1.4886 0.97 0
M  V30 9 O -2.5521 -0.4427 0.6528 0
M  V30 10 C -2.8765 -2.0523 -1.0986 0
M  V30 11 C -1.566 -1.9907 -3.128 0
M  V30 12 O 2.9247 2.3267 0.4156 0
M  V30 13 N 2.671 0.2179 1.3988 0
M  V30 14 C -3.0125 0.8663 0.8351 0
M  V30 15 C -2.5791 -2.5659 -2.3616 0
M  V30 16 C 4.0341 -0.222 1.1115 0
M  V30 17 O -3.2522 1.6098 -0.155 0
M  V30 18 C -3.2778 1.3658 2.2141 0
M  V30 19 C 4.1733 -0.606 -0.3575 0
M  V30 20 H 0.517 1.8511 2.274 0
M  V30 21 H 0.4813 2.8307 0.7669 0
M  V30 22 H -0.0291 -0.5059 -3.2263 0
M  V30 23 H -3.6765 -2.4937 -0.5178 0
M  V30 24 H -1.3382 -2.3889 -4.1082 0
M  V30 25 H 2.0508 -0.4121 1.956 0
M  V30 26 H -3.1394 -3.4068 -2.7493 0
M  V30 27 H 4.2719 -1.11 1.7361 0
M  V30 28 H 4.7566 0.5822 1.3683 0
M  V30 29 H -4.3506 1.2238 2.4594 0
M  V30 30 H -3.0236 2.4445 2.2838 0
M  V30 31 H -2.6581 0.8051 2.9447 0
M  V30 32 H 3.4452 -1.4052 -0.6125 0
M  V30 33 H 3.9904 0.2739 -1.0089 0
M  V30 34 H 5.2003 -0.9819 -0.5486 0
M  V30 END ATOM
M  V30 BEGIN BOND
M  V30 1 2 1 2
M  V30 2 1 2 3
M  V30 3 1 2 4
M  V30 4 1 3 5
M  V30 5 2 4 6
M  V30 6 1 4 7
M  V30 7 1 5 8
M  V30 8 1 6 9
M  V30 9 1 6 10
M  V30 10 2 7 11
M  V30 11 2 8 12
M  V30 12 1 8 13
M  V30 13 1 9 14
M  V30 14 2 10 15
M  V30 15 1 13 16
M  V30 16 2 14 17
M  V30 17 1 14 18
M  V30 18 1 16 19
M  V30 19 1 11 15
M  V30 20 1 5 20
M  V30 21 1 5 21
M  V30 22 1 7 22
M  V30 23 1 10 23
M  V30 24 1 11 24
M  V30 25 1 13 25
M  V30 26 1 15 26
M  V30 27 1 16 27
M  V30 28 1 16 28
M  V30 29 1 18 29
M  V30 30 1 18 30
M  V30 31 1 18 31
M  V30 32 1 19 32
M  V30 33 1 19 33
M  V30 34 1 19 34
M  V30 END BOND
M  V30 END CTAB
M  END
>  <Structure No>
6719

>  <LogS>
-1.68

>  <MMFF94 Energy>
29.129

$$$$
Compound 6720
Actelion Java MolfileCreator 2.0

  0  0  0  0  0  0              0 V3000
M  V30 BEGIN CTAB
M  V30 COUNTS 33 33 0 0 0
M  V30 BEGIN ATOM
M  V30 1 O -0.9567 1.8344 0.0 0
M  V30 2 C -0.4299 0.6991 0.1599 0
M  V30 3 O 0.9086 0.6069 0.5567 0
M  V30 4 C -1.2147 -0.5417 -0.0707 0
M  V30 5 C 1.7245 1.7488 0.791 0
M  V30 6 C -2.5804 -0.5083 -0.4499 0
M  V30 7 C -0.578 -1.7887 0.081 0
M  V30 8 C 3.0901 1.3001 1.1866 0
M  V30 9 O -3.2349 0.7262 -0.5928 0
M  V30 10 C -3.276 -1.7192 -0.6348 0
M  V30 11 C -1.2785 -2.9778 -0.1258 0
M  V30 12 O 3.3755 1.166 2.4078 0
M  V30 13 O 4.0251 0.9906 0.1929 0
M  V30 14 C -4.2911 0.9863 -1.4754 0
M  V30 15 C -2.6255 -2.9431 -0.4787 0
M  V30 16 C 5.3223 0.4675 0.4714 0
M  V30 17 O -4.5345 0.2163 -2.4437 0
M  V30 18 C -5.0628 2.2538 -1.3338 0
M  V30 19 C 5.2382 -1.0084 0.8426 0
M  V30 20 H 1.7924 2.3589 -0.1353 0
M  V30 21 H 1.2813 2.3699 1.5998 0
M  V30 22 H 0.4662 -1.8488 0.3608 0
M  V30 23 H -4.3312 -1.7217 -0.8714 0
M  V30 24 H -0.7764 -3.9289 -0.0046 0
M  V30 25 H -3.1698 -3.8673 -0.6234 0
M  V30 26 H 5.948 0.5707 -0.4399 0
M  V30 27 H 5.8063 1.0451 1.2889 0
M  V30 28 H -5.0621 2.5801 -0.2726 0
M  V30 29 H -6.113 2.1008 -1.6609 0
M  V30 30 H -4.5949 3.043 -1.9583 0
M  V30 31 H 6.2602 -1.4126 0.9991 0
M  V30 32 H 4.6559 -1.1401 1.7783 0
M  V30 33 H 4.7472 -1.5771 0.025 0
M  V30 END ATOM
M  V30 BEGIN BOND
M  V30 1 2 1 2
M  V30 2 1 2 3
M  V30 3 1 2 4
M  V30 4 1 3 5
M  V30 5 2 4 6
M  V30 6 1 4 7
M  V30 7 1 5 8
M  V30 8 1 6 9
M  V30 9 1 6 10
M  V30 10 2 7 11
M  V30 11 2 8 12
M  V30 12 1 8 13
M  V30 13 1 9 14
M  V30 14 2 10 15
M  V30 15 1 13 16
M  V30 16 2 14 17
M  V30 17 1 14 18
M  V30 18 1 16 19
M  V30 19 1 11 15
M  V30 20 1 5 20
M  V30 21 1 5 21
M  V30 22 1 7 22
M  V30 23 1 10 23
M  V30 24 1 11 24
M  V30 25 1 15 25
M  V30 26 1 16 26
M  V30 27 1 16 27
M  V30 28 1 18 28
M  V30 29 1 18 29
M  V30 30 1 18 30
M  V30 31 1 19 31
M  V30 32 1 19 32
M  V30 33 1 19 33
M  V30 END BOND
M  V30 END CTAB
M  END
>  <Structure No>
6720

>  <LogS>
-2.58

>  <MMFF94 Energy>
42.673

$$$$
Compound 6721
Actelion Java MolfileCreator 2.0

  0  0  0  0  0  0              0 V3000
M  V30 BEGIN CTAB
M  V30 COUNTS 34 34 0 0 0
M  V30 BEGIN ATOM
M  V30 1 O 1.1928 1.5907 1.1133 0
M  V30 2 C 0.1253 1.0156 0.7613 0
M  V30 3 O 0.1186 -0.3707 0.5605 0
M  V30 4 C -1.116 1.8109 0.5718 0
M  V30 5 C 1.281 -1.1888 0.6869 0
M  V30 6 C -2.2891 1.2376 0.0218 0
M  V30 7 C -1.1329 3.1667 0.9559 0
M  V30 8 C 2.2198 -0.9876 -0.4752 0
M  V30 9 O -2.2798 -0.1033 -0.3943 0
M  V30 10 C -3.4361 2.038 -0.1481 0
M  V30 11 C -2.284 3.9396 0.7957 0
M  V30 12 O 1.785 -0.4308 -1.5212 0
M  V30 13 N 3.5812 -1.4675 -0.4356 0
M  V30 14 C -3.3836 -0.9654 -0.3799 0
M  V30 15 C -3.4321 3.3774 0.2422 0
M  V30 16 C 4.0847 -2.202 0.7303 0
M  V30 17 C 4.4564 -1.2265 -1.5873 0
M  V30 18 O -4.4129 -0.6939 0.296 0
M  V30 19 C -3.2898 -2.2781 -1.0797 0
M  V30 20 H 0.9631 -2.2519 0.702 0
M  V30 21 H 1.7879 -0.9634 1.6489 0
M  V30 22 H -0.2552 3.6322 1.3866 0
M  V30 23 H -4.3268 1.6383 -0.6135 0
M  V30 24 H -2.283 4.9797 1.0956 0
M  V30 25 H -4.3183 3.9836 0.105 0
M  V30 26 H 5.1171 -2.5757 0.5664 0
M  V30 27 H 3.4345 -3.0788 0.9338 0
M  V30 28 H 4.099 -1.5353 1.6177 0
M  V30 29 H 4.5411 -0.1344 -1.7706 0
M  V30 30 H 4.0323 -1.7166 -2.489 0
M  V30 31 H 5.4781 -1.6278 -1.4213 0
M  V30 32 H -4.2883 -2.5815 -1.4596 0
M  V30 33 H -2.5886 -2.1997 -1.9367 0
M  V30 34 H -2.9163 -3.0479 -0.3727 0
M  V30 END ATOM
M  V30 BEGIN BOND
M  V30 1 2 1 2
M  V30 2 1 2 3
M  V30 3 1 2 4
M  V30 4 1 3 5
M  V30 5 2 4 6
M  V30 6 1 4 7
M  V30 7 1 5 8
M  V30 8 1 6 9
M  V30 9 1 6 10
M  V30 10 2 7 11
M  V30 11 2 8 12
M  V30 12 1 8 13
M  V30 13 1 9 14
M  V30 14 2 10 15
M  V30 15 1 13 16
M  V30 16 1 13 17
M  V30 17 2 14 18
M  V30 18 1 14 19
M  V30 19 1 11 15
M  V30 20 1 5 20
M  V30 21 1 5 21
M  V30 22 1 7 22
M  V30 23 1 10 23
M  V30 24 1 11 24
M  V30 25 1 15 25
M  V30 26 1 16 26
M  V30 27 1 16 27
M  V30 28 1 16 28
M  V30 29 1 17 29
M  V30 30 1 17 30
M  V30 31 1 17 31
M  V30 32 1 19 32
M  V30 33 1 19 33
M  V30 34 1 19 34
M  V30 END BOND
M  V30 END CTAB
M  END
>  <Structure No>
6721

>  <LogS>
-1.55

>  <MMFF94 Energy>
44.1

$$$$
Compound 6722
Actelion Java MolfileCreator 2.0

  0  0  0  0  0  0              0 V3000
M  V30 BEGIN CTAB
M  V30 COUNTS 30 30 0 0 0
M  V30 BEGIN ATOM
M  V30 1 S -2.1889 0.5671 -1.2156 0
M  V30 2 O -2.72 -0.6302 -1.9559 0
M  V30 3 O -2.2422 1.758 -2.132 0
M  V30 4 N -3.1548 0.8728 0.2063 0
M  V30 5 C -0.5118 0.2902 -0.7512 0
M  V30 6 C -3.1182 -0.3027 1.0858 0
M  V30 7 C -4.5378 1.1554 -0.1973 0
M  V30 8 C 0.2849 1.3683 -0.348 0
M  V30 9 C 0.026 -1.0033 -0.7563 0
M  V30 10 C 1.6115 1.1585 0.0386 0
M  V30 11 C 1.3527 -1.2153 -0.3705 0
M  V30 12 C 2.1597 -0.136 0.0321 0
M  V30 13 N 3.5293 -0.3511 0.4299 0
M  V30 14 C 4.0322 0.2846 1.6182 0
M  V30 15 C 4.3603 -1.3282 -0.2801 0
M  V30 16 O 5.2157 0.0902 2.0045 0
M  V30 17 H -2.079 -0.4891 1.4291 0
M  V30 18 H -3.7331 -0.1204 1.9935 0
M  V30 19 H -3.4992 -1.2105 0.5676 0
M  V30 20 H -4.5684 2.0586 -0.843 0
M  V30 21 H -5.1602 1.3713 0.6976 0
M  V30 22 H -4.9832 0.2981 -0.7494 0
M  V30 23 H -0.1212 2.372 -0.3334 0
M  V30 24 H -0.5805 -1.8498 -1.0506 0
M  V30 25 H 2.2153 2.0083 0.3302 0
M  V30 26 H 1.7446 -2.2243 -0.3704 0
M  V30 27 H 3.3933 0.933 2.204 0
M  V30 28 H 5.4134 -0.9788 -0.3307 0
M  V30 29 H 4.0037 -1.4607 -1.3242 0
M  V30 30 H 4.3221 -2.3046 0.247 0
M  V30 END ATOM
M  V30 BEGIN BOND
M  V30 1 2 1 2
M  V30 2 2 1 3
M  V30 3 1 1 4
M  V30 4 1 1 5
M  V30 5 1 4 6
M  V30 6 1 4 7
M  V30 7 2 5 8
M  V30 8 1 5 9
M  V30 9 1 8 10
M  V30 10 2 9 11
M  V30 11 2 10 12
M  V30 12 1 12 13
M  V30 13 1 13 14
M  V30 14 1 13 15
M  V30 15 2 14 16
M  V30 16 1 11 12
M  V30 17 1 6 17
M  V30 18 1 6 18
M  V30 19 1 6 19
M  V30 20 1 7 20
M  V30 21 1 7 21
M  V30 22 1 7 22
M  V30 23 1 8 23
M  V30 24 1 9 24
M  V30 25 1 10 25
M  V30 26 1 11 26
M  V30 27 1 14 27
M  V30 28 1 15 28
M  V30 29 1 15 29
M  V30 30 1 15 30
M  V30 END BOND
M  V30 END CTAB
M  END
>  <Structure No>
6722

>  <LogS>
-2.37

>  <MMFF94 Energy>
-28.743

$$$$
Compound 6723
Actelion Java MolfileCreator 2.0

  0  0  0  0  0  0              0 V3000
M  V30 BEGIN CTAB
M  V30 COUNTS 31 32 0 0 0
M  V30 BEGIN ATOM
M  V30 1 O 4.2182 -1.1924 -1.9084 0
M  V30 2 C 4.6914 -0.3391 -1.1093 0
M  V30 3 O 3.9968 0.0195 0.0513 0
M  V30 4 C 6.0342 0.2523 -1.3728 0
M  V30 5 C 2.697 -0.4726 0.3728 0
M  V30 6 C 1.6308 0.2283 -0.4714 0
M  V30 7 O 0.3487 -0.2818 -0.1571 0
M  V30 8 C -0.3124 0.565 0.7593 0
M  V30 9 N -1.5618 -0.0638 1.1712 0
M  V30 10 C -2.7386 -0.0593 0.5355 0
M  V30 11 C -1.7609 -0.9031 2.2199 0
M  V30 12 N -3.0638 0.5942 -0.6057 0
M  V30 13 C -3.6114 -0.851 1.1976 0
M  V30 14 N -3.0258 -1.4072 2.2746 0
M  V30 15 C -4.3353 0.4441 -1.0895 0
M  V30 16 C -4.9015 -1.0145 0.7179 0
M  V30 17 N -5.2384 -0.3529 -0.429 0
M  V30 18 N -4.7233 1.116 -2.2854 0
M  V30 19 H 6.8209 -0.434 -0.997 0
M  V30 20 H 6.1745 0.4099 -2.4631 0
M  V30 21 H 6.1256 1.2302 -0.8551 0
M  V30 22 H 2.5038 -0.2701 1.4469 0
M  V30 23 H 2.6525 -1.573 0.2189 0
M  V30 24 H 1.826 0.0135 -1.5426 0
M  V30 25 H 1.7169 1.3352 -0.3526 0
M  V30 26 H 0.3127 0.7477 1.6633 0
M  V30 27 H -0.5414 1.545 0.2825 0
M  V30 28 H -0.9902 -1.16 2.9352 0
M  V30 29 H -5.6187 -1.6457 1.2255 0
M  V30 30 H -5.6908 1.0069 -2.6627 0
M  V30 31 H -4.0436 1.7231 -2.7948 0
M  V30 END ATOM
M  V30 BEGIN BOND
M  V30 1 2 1 2
M  V30 2 1 2 3
M  V30 3 1 2 4
M  V30 4 1 3 5
M  V30 5 1 5 6
M  V30 6 1 6 7
M  V30 7 1 7 8
M  V30 8 1 8 9
M  V30 9 1 9 10
M  V30 10 1 9 11
M  V30 11 2 10 12
M  V30 12 1 10 13
M  V30 13 2 11 14
M  V30 14 1 12 15
M  V30 15 2 13 16
M  V30 16 2 15 17
M  V30 17 1 15 18
M  V30 18 1 13 14
M  V30 19 1 16 17
M  V30 20 1 4 19
M  V30 21 1 4 20
M  V30 22 1 4 21
M  V30 23 1 5 22
M  V30 24 1 5 23
M  V30 25 1 6 24
M  V30 26 1 6 25
M  V30 27 1 8 26
M  V30 28 1 8 27
M  V30 29 1 11 28
M  V30 30 1 16 29
M  V30 31 1 18 30
M  V30 32 1 18 31
M  V30 END BOND
M  V30 END CTAB
M  END
>  <Structure No>
6723

>  <LogS>
-0.97

>  <MMFF94 Energy>
-50.078

$$$$
Compound 6724
Actelion Java MolfileCreator 2.0

  0  0  0  0  0  0              0 V3000
M  V30 BEGIN CTAB
M  V30 COUNTS 36 37 0 0 0
M  V30 BEGIN ATOM
M  V30 1 O 1.9217 1.8416 1.6814 0
M  V30 2 C 2.2783 0.9449 0.868 0
M  V30 3 O 1.3208 0.1068 0.2867 0
M  V30 4 C 3.7076 0.7779 0.5256 0
M  V30 5 C -0.0707 0.2109 0.5741 0
M  V30 6 C 4.685 1.6214 1.0871 0
M  V30 7 C 4.1099 -0.2299 -0.3697 0
M  V30 8 C -0.8385 -0.8206 -0.2019 0
M  V30 9 C 6.034 1.4578 0.7574 0
M  V30 10 C 5.4605 -0.3891 -0.6953 0
M  V30 11 O -0.2392 -1.8539 -0.6074 0
M  V30 12 N -2.2509 -0.6767 -0.4525 0
M  V30 13 C 6.4215 0.4539 -0.1325 0
M  V30 14 C -3.0919 0.3982 0.0639 0 CFG=2
M  V30 15 C -2.9632 -1.5456 -1.3745 0
M  V30 16 C -3.0951 0.4228 1.5709 0
M  V30 17 C -4.4944 0.125 -0.4877 0
M  V30 18 C -4.3055 -0.8727 -1.6261 0
M  V30 19 O -2.9864 1.5225 2.1755 0
M  V30 20 N -3.2514 -0.7822 2.3222 0
M  V30 21 H -0.2382 0.0444 1.6596 0
M  V30 22 H -0.4209 1.2278 0.2987 0
M  V30 23 H 4.4081 2.4067 1.7794 0
M  V30 24 H 3.3831 -0.8953 -0.8183 0
M  V30 25 H 6.7797 2.1106 1.1928 0
M  V30 26 H 5.762 -1.1669 -1.3845 0
M  V30 27 H 7.4661 0.329 -0.3864 0
M  V30 28 H -2.7245 1.3696 -0.3353 0
M  V30 29 H -3.1061 -2.5442 -0.908 0
M  V30 30 H -2.4001 -1.6501 -2.3275 0
M  V30 31 H -4.9711 1.0609 -0.8525 0
M  V30 32 H -5.1558 -0.3322 0.2822 0
M  V30 33 H -5.1312 -1.6162 -1.6563 0
M  V30 34 H -4.2715 -0.3259 -2.5942 0
M  V30 35 H -3.2543 -0.7548 3.3659 0
M  V30 36 H -3.3686 -1.7012 1.8411 0
M  V30 END ATOM
M  V30 BEGIN BOND
M  V30 1 2 1 2
M  V30 2 1 2 3
M  V30 3 1 2 4
M  V30 4 1 3 5
M  V30 5 2 4 6
M  V30 6 1 4 7
M  V30 7 1 5 8
M  V30 8 1 6 9
M  V30 9 2 7 10
M  V30 10 2 8 11
M  V30 11 1 8 12
M  V30 12 2 9 13
M  V30 13 1 12 14
M  V30 14 1 12 15
M  V30 15 1 14 16
M  V30 16 1 14 17
M  V30 17 1 15 18
M  V30 18 2 16 19
M  V30 19 1 16 20
M  V30 20 1 10 13
M  V30 21 1 17 18
M  V30 22 1 5 21
M  V30 23 1 5 22
M  V30 24 1 6 23
M  V30 25 1 7 24
M  V30 26 1 9 25
M  V30 27 1 10 26
M  V30 28 1 13 27
M  V30 29 1 14 28
M  V30 30 1 15 29
M  V30 31 1 15 30
M  V30 32 1 17 31
M  V30 33 1 17 32
M  V30 34 1 18 33
M  V30 35 1 18 34
M  V30 36 1 20 35
M  V30 37 1 20 36
M  V30 END BOND
M  V30 BEGIN COLLECTION
M  V30 MDLV30/STEABS ATOMS=(1 14)
M  V30 END COLLECTION
M  V30 END CTAB
M  END
>  <Structure No>
6724

>  <LogS>
-2.27

>  <MMFF94 Energy>
44.366

$$$$
Compound 6725
Actelion Java MolfileCreator 2.0

  0  0  0  0  0  0              0 V3000
M  V30 BEGIN CTAB
M  V30 COUNTS 41 45 0 0 0
M  V30 BEGIN ATOM
M  V30 1 O -2.6892 0.6514 0.7328 0
M  V30 2 C -2.3583 -0.6711 0.4902 0
M  V30 3 C -1.5085 1.4676 0.7575 0 CFG=1
M  V30 4 C -3.2309 -1.7337 0.2588 0
M  V30 5 C -1.0119 -0.8288 0.3607 0
M  V30 6 C -0.3149 0.4617 0.545 0 CFG=1
M  V30 7 C -1.5435 2.6005 -0.3114 0 CFG=2
M  V30 8 O -4.6011 -1.5768 0.4486 0
M  V30 9 C -2.6859 -2.9512 -0.2039 0
M  V30 10 C -0.4583 -1.9461 -0.2724 0
M  V30 11 C 0.4544 0.6752 -0.7732 0 CFG=1
M  V30 12 C 0.6296 0.3818 1.7919 0
M  V30 13 O -2.1932 2.1623 -1.4772 0
M  V30 14 C -0.1321 3.0401 -0.6744 0
M  V30 15 C -1.3091 -3.0437 -0.5086 0
M  V30 16 C 0.9013 -1.8265 -0.9574 0
M  V30 17 C 0.8272 2.1249 -0.9105 0
M  V30 18 C 1.5784 -0.4018 -0.8325 0 CFG=2
M  V30 19 C 2.1099 0.5539 1.4328 0
M  V30 20 N 2.5224 -0.3551 0.3395 0 CHG=1 CFG=2
M  V30 21 C 3.8861 -0.0042 -0.0987 0
M  V30 22 H -1.4605 1.9548 1.7545 0
M  V30 23 H -2.0832 3.4823 0.1062 0
M  V30 24 H -5.2478 -2.3367 0.2729 0
M  V30 25 H -3.3349 -3.7934 -0.4058 0
M  V30 26 H -0.2173 0.4811 -1.6445 0
M  V30 27 H 0.5141 -0.5915 2.3201 0
M  V30 28 H 0.3876 1.1606 2.5448 0
M  V30 29 H -3.1691 2.2334 -1.3087 0
M  V30 30 H 0.1109 4.0974 -0.7131 0
M  V30 31 H -0.927 -3.9344 -0.9908 0
M  V30 32 H 0.7339 -2.0197 -2.0397 0
M  V30 33 H 1.5714 -2.6394 -0.6069 0
M  V30 34 H 1.8409 2.4298 -1.1497 0
M  V30 35 H 2.1276 -0.2326 -1.7886 0
M  V30 36 H 2.3069 1.6168 1.172 0
M  V30 37 H 2.714 0.344 2.3452 0
M  V30 38 H 2.6025 -1.3042 0.7749 0
M  V30 39 H 3.9048 1.0013 -0.5739 0
M  V30 40 H 4.5895 -0.0047 0.7636 0
M  V30 41 H 4.2603 -0.7529 -0.8314 0
M  V30 END ATOM
M  V30 BEGIN BOND
M  V30 1 1 1 2
M  V30 2 1 1 3
M  V30 3 2 2 4
M  V30 4 1 2 5
M  V30 5 1 3 6
M  V30 6 1 3 7
M  V30 7 1 4 8
M  V30 8 1 4 9
M  V30 9 2 5 10
M  V30 10 1 6 11
M  V30 11 1 6 12
M  V30 12 1 7 13
M  V30 13 1 7 14
M  V30 14 2 9 15
M  V30 15 1 10 16
M  V30 16 1 11 17
M  V30 17 1 11 18
M  V30 18 1 12 19
M  V30 19 1 18 20
M  V30 20 1 20 21
M  V30 21 1 5 6
M  V30 22 1 10 15
M  V30 23 2 14 17
M  V30 24 1 16 18
M  V30 25 1 19 20
M  V30 26 1 3 22
M  V30 27 1 7 23
M  V30 28 1 8 24
M  V30 29 1 9 25
M  V30 30 1 11 26
M  V30 31 1 12 27
M  V30 32 1 12 28
M  V30 33 1 13 29
M  V30 34 1 14 30
M  V30 35 1 15 31
M  V30 36 1 16 32
M  V30 37 1 16 33
M  V30 38 1 17 34
M  V30 39 1 18 35
M  V30 40 1 19 36
M  V30 41 1 19 37
M  V30 42 1 20 38
M  V30 43 1 21 39
M  V30 44 1 21 40
M  V30 45 1 21 41
M  V30 END BOND
M  V30 BEGIN COLLECTION
M  V30 MDLV30/STEABS ATOMS=(6 3 6 7 11 18 20)
M  V30 END COLLECTION
M  V30 END CTAB
M  END
>  <Structure No>
6725

>  <LogS>
-3.15

>  <MMFF94 Energy>
110.05

$$$$
Compound 6726
Actelion Java MolfileCreator 2.0

  0  0  0  0  0  0              0 V3000
M  V30 BEGIN CTAB
M  V30 COUNTS 34 35 0 0 0
M  V30 BEGIN ATOM
M  V30 1 O 1.0506 0.8081 -1.2932 0
M  V30 2 C 1.7627 0.6407 -0.2644 0
M  V30 3 O 1.1603 0.5357 0.9959 0
M  V30 4 C 3.2343 0.5553 -0.3862 0
M  V30 5 C -0.2518 0.5807 1.1936 0
M  V30 6 C 3.8591 0.6622 -1.6432 0
M  V30 7 C 4.0314 0.3638 0.757 0
M  V30 8 C -0.9044 -0.6776 0.6883 0
M  V30 9 C 5.2508 0.5793 -1.7504 0
M  V30 10 C 5.4228 0.2817 0.6438 0
M  V30 11 O -0.2586 -1.7598 0.7375 0
M  V30 12 N -2.2609 -0.6843 0.2006 0
M  V30 13 C 6.0319 0.3894 -0.6083 0
M  V30 14 C -3.176 0.4517 0.2372 0 CFG=2
M  V30 15 C -2.8217 -1.8267 -0.5011 0
M  V30 16 C -3.401 0.9329 1.6443 0
M  V30 17 C -4.4794 -0.0497 -0.3909 0
M  V30 18 C -4.1148 -1.3314 -1.1335 0
M  V30 19 O -3.5859 0.1097 2.5799 0
M  V30 20 O -3.4443 2.2952 1.9111 0 CHG=-1
M  V30 21 H -0.6629 1.4794 0.6885 0
M  V30 22 H -0.4553 0.6711 2.2805 0
M  V30 23 H 3.274 0.8095 -2.5423 0
M  V30 24 H 3.582 0.2771 1.7382 0
M  V30 25 H 5.724 0.6626 -2.7202 0
M  V30 26 H 6.0291 0.1343 1.528 0
M  V30 27 H 7.1089 0.3255 -0.6935 0
M  V30 28 H -2.7613 1.2751 -0.3847 0
M  V30 29 H -3.0274 -2.6434 0.2241 0
M  V30 30 H -2.121 -2.1856 -1.2863 0
M  V30 31 H -5.2408 -0.291 0.3847 0
M  V30 32 H -4.9072 0.706 -1.0851 0
M  V30 33 H -3.9388 -1.0989 -2.207 0
M  V30 34 H -4.9218 -2.0917 -1.0529 0
M  V30 END ATOM
M  V30 BEGIN BOND
M  V30 1 2 1 2
M  V30 2 1 2 3
M  V30 3 1 2 4
M  V30 4 1 3 5
M  V30 5 2 4 6
M  V30 6 1 4 7
M  V30 7 1 5 8
M  V30 8 1 6 9
M  V30 9 2 7 10
M  V30 10 2 8 11
M  V30 11 1 8 12
M  V30 12 2 9 13
M  V30 13 1 12 14
M  V30 14 1 12 15
M  V30 15 1 14 16
M  V30 16 1 14 17
M  V30 17 1 15 18
M  V30 18 2 16 19
M  V30 19 1 16 20
M  V30 20 1 10 13
M  V30 21 1 17 18
M  V30 22 1 5 21
M  V30 23 1 5 22
M  V30 24 1 6 23
M  V30 25 1 7 24
M  V30 26 1 9 25
M  V30 27 1 10 26
M  V30 28 1 13 27
M  V30 29 1 14 28
M  V30 30 1 15 29
M  V30 31 1 15 30
M  V30 32 1 17 31
M  V30 33 1 17 32
M  V30 34 1 18 33
M  V30 35 1 18 34
M  V30 END BOND
M  V30 BEGIN COLLECTION
M  V30 MDLV30/STEABS ATOMS=(1 14)
M  V30 END COLLECTION
M  V30 END CTAB
M  END
>  <Structure No>
6726

>  <LogS>
-1.59

>  <MMFF94 Energy>
99.778

$$$$
Compound 6727
Actelion Java MolfileCreator 2.0

  0  0  0  0  0  0              0 V3000
M  V30 BEGIN CTAB
M  V30 COUNTS 29 30 0 0 0
M  V30 BEGIN ATOM
M  V30 1 O -4.7009 -0.0795 2.3085 0
M  V30 2 C -4.4316 -0.3685 1.1133 0
M  V30 3 N -5.258 -1.1785 0.3885 0
M  V30 4 C -3.2931 0.1192 0.4891 0
M  V30 5 C -4.9739 -1.504 -0.9141 0
M  V30 6 C -3.0271 -0.2141 -0.8016 0
M  V30 7 C -2.2518 0.9244 0.8848 0
M  V30 8 N -3.8459 -1.0206 -1.5202 0
M  V30 9 N -1.8767 0.3428 -1.2167 0
M  V30 10 N -1.4221 1.0442 -0.1811 0
M  V30 11 C -0.1516 1.7564 -0.1861 0
M  V30 12 O 0.8693 0.9018 0.3161 0
M  V30 13 C 2.2021 1.3062 0.43 0
M  V30 14 O 2.5579 2.4614 0.0689 0
M  V30 15 C 3.2222 0.3394 0.9409 0
M  V30 16 C 3.7491 -0.533 -0.2012 0
M  V30 17 C 4.7868 -1.5318 0.3025 0
M  V30 18 H -5.6473 -2.1491 -1.4627 0
M  V30 19 H -2.0983 1.3747 1.8573 0
M  V30 20 H -3.6229 -1.2683 -2.5099 0
M  V30 21 H 0.0965 2.0679 -1.2241 0
M  V30 22 H -0.2282 2.666 0.4491 0
M  V30 23 H 4.0619 0.8986 1.4092 0
M  V30 24 H 2.7541 -0.3007 1.7197 0
M  V30 25 H 2.9071 -1.0923 -0.6652 0
M  V30 26 H 4.2162 0.1099 -0.9792 0
M  V30 27 H 5.6521 -0.9969 0.7491 0
M  V30 28 H 5.1503 -2.1495 -0.5454 0
M  V30 29 H 4.3375 -2.2038 1.0645 0
M  V30 END ATOM
M  V30 BEGIN BOND
M  V30 1 2 1 2
M  V30 2 1 2 3
M  V30 3 1 2 4
M  V30 4 2 3 5
M  V30 5 1 4 6
M  V30 6 2 4 7
M  V30 7 1 5 8
M  V30 8 2 6 9
M  V30 9 1 7 10
M  V30 10 1 10 11
M  V30 11 1 11 12
M  V30 12 1 12 13
M  V30 13 2 13 14
M  V30 14 1 13 15
M  V30 15 1 15 16
M  V30 16 1 16 17
M  V30 17 1 6 8
M  V30 18 1 9 10
M  V30 19 1 5 18
M  V30 20 1 7 19
M  V30 21 1 8 20
M  V30 22 1 11 21
M  V30 23 1 11 22
M  V30 24 1 15 23
M  V30 25 1 15 24
M  V30 26 1 16 25
M  V30 27 1 16 26
M  V30 28 1 17 27
M  V30 29 1 17 28
M  V30 30 1 17 29
M  V30 END BOND
M  V30 END CTAB
M  END
>  <Structure No>
6727

>  <LogS>
-2.2

>  <MMFF94 Energy>
-66.51

$$$$
Compound 6728
Actelion Java MolfileCreator 2.0

  0  0  0  0  0  0              0 V3000
M  V30 BEGIN CTAB
M  V30 COUNTS 29 30 0 0 0
M  V30 BEGIN ATOM
M  V30 1 O 5.1013 1.831 -1.1142 0
M  V30 2 C 4.3341 0.8793 -0.8135 0
M  V30 3 N 4.5233 -0.3632 -1.3458 0
M  V30 4 C 3.2729 1.0536 0.0623 0
M  V30 5 C 3.6927 -1.408 -1.0284 0
M  V30 6 C 2.4611 0.01 0.3669 0
M  V30 7 C 2.7775 2.1302 0.7667 0
M  V30 8 N 2.6471 -1.2272 -0.1636 0
M  V30 9 N 1.5058 0.418 1.2249 0
M  V30 10 N 1.6926 1.7128 1.4667 0
M  V30 11 C 0.3984 -0.3516 1.7878 0
M  V30 12 O -0.8333 0.0681 1.2073 0
M  V30 13 C -1.1798 -0.1841 -0.124 0
M  V30 14 O -0.4237 -0.8624 -0.8712 0
M  V30 15 C -2.4887 0.3132 -0.6488 0
M  V30 16 C -3.5972 -0.7051 -0.3707 0
M  V30 17 C -4.9427 -0.2113 -0.8944 0
M  V30 18 H 3.8676 -2.3812 -1.4674 0
M  V30 19 H 3.1642 3.1406 0.7707 0
M  V30 20 H 2.0204 -2.0281 0.0683 0
M  V30 21 H 0.3536 -0.1675 2.8817 0
M  V30 22 H 0.5392 -1.4423 1.6429 0
M  V30 23 H -2.4047 0.4931 -1.743 0
M  V30 24 H -2.7317 1.2796 -0.1558 0
M  V30 25 H -3.6798 -0.8801 0.7246 0
M  V30 26 H -3.3514 -1.6709 -0.8643 0
M  V30 27 H -5.726 -0.9685 -0.6791 0
M  V30 28 H -5.224 0.7415 -0.3974 0
M  V30 29 H -4.8945 -0.0525 -1.9927 0
M  V30 END ATOM
M  V30 BEGIN BOND
M  V30 1 2 1 2
M  V30 2 1 2 3
M  V30 3 1 2 4
M  V30 4 2 3 5
M  V30 5 2 4 6
M  V30 6 1 4 7
M  V30 7 1 5 8
M  V30 8 1 6 9
M  V30 9 2 7 10
M  V30 10 1 9 11
M  V30 11 1 11 12
M  V30 12 1 12 13
M  V30 13 2 13 14
M  V30 14 1 13 15
M  V30 15 1 15 16
M  V30 16 1 16 17
M  V30 17 1 6 8
M  V30 18 1 9 10
M  V30 19 1 5 18
M  V30 20 1 7 19
M  V30 21 1 8 20
M  V30 22 1 11 21
M  V30 23 1 11 22
M  V30 24 1 15 23
M  V30 25 1 15 24
M  V30 26 1 16 25
M  V30 27 1 16 26
M  V30 28 1 17 27
M  V30 29 1 17 28
M  V30 30 1 17 29
M  V30 END BOND
M  V30 END CTAB
M  END
>  <Structure No>
6728

>  <LogS>
-2.83

>  <MMFF94 Energy>
0.85174

$$$$
Compound 6729
Actelion Java MolfileCreator 2.0

  0  0  0  0  0  0              0 V3000
M  V30 BEGIN CTAB
M  V30 COUNTS 31 32 0 0 0
M  V30 BEGIN ATOM
M  V30 1 O -4.773 -0.0794 -0.5559 0
M  V30 2 C -4.2228 0.7709 0.1942 0
M  V30 3 N -2.8314 0.6652 0.5363 0
M  V30 4 C -5.0266 1.9189 0.7131 0
M  V30 5 C -1.9637 -0.3936 0.104 0
M  V30 6 N -0.6495 -0.3787 0.4875 0
M  V30 7 N -2.4357 -1.4165 -0.6853 0
M  V30 8 C 0.1492 -1.3891 0.0683 0
M  V30 9 C -1.6247 -2.4318 -1.1062 0
M  V30 10 N 1.4511 -1.5622 0.3186 0
M  V30 11 C -0.2985 -2.3994 -0.7082 0
M  V30 12 C 1.7597 -2.7108 -0.3363 0
M  V30 13 C 2.3419 -0.7081 1.1016 0
M  V30 14 N 0.6969 -3.2616 -0.9874 0
M  V30 15 O 2.3897 0.592 0.5486 0
M  V30 16 C 3.2647 0.6166 -0.5605 0
M  V30 17 C 3.2163 1.9934 -1.2103 0
M  V30 18 O 3.6471 2.9651 -0.2983 0
M  V30 19 H -2.4198 1.4107 1.1424 0
M  V30 20 H -6.1037 1.7807 0.4788 0
M  V30 21 H -4.6723 2.8604 0.2441 0
M  V30 22 H -4.9069 1.9916 1.8144 0
M  V30 23 H -2.0102 -3.2282 -1.7285 0
M  V30 24 H 2.7504 -3.1465 -0.3469 0
M  V30 25 H 1.939 -0.6307 2.1333 0
M  V30 26 H 3.3532 -1.1693 1.1934 0
M  V30 27 H 4.3114 0.4135 -0.2384 0
M  V30 28 H 2.9635 -0.1346 -1.3255 0
M  V30 29 H 2.1737 2.2119 -1.534 0
M  V30 30 H 3.8789 1.9973 -2.1043 0
M  V30 31 H 3.5894 3.8337 -0.7748 0
M  V30 END ATOM
M  V30 BEGIN BOND
M  V30 1 2 1 2
M  V30 2 1 2 3
M  V30 3 1 2 4
M  V30 4 1 3 5
M  V30 5 2 5 6
M  V30 6 1 5 7
M  V30 7 1 6 8
M  V30 8 2 7 9
M  V30 9 1 8 10
M  V30 10 2 8 11
M  V30 11 1 10 12
M  V30 12 1 10 13
M  V30 13 1 11 14
M  V30 14 1 13 15
M  V30 15 1 15 16
M  V30 16 1 16 17
M  V30 17 1 17 18
M  V30 18 1 9 11
M  V30 19 2 12 14
M  V30 20 1 3 19
M  V30 21 1 4 20
M  V30 22 1 4 21
M  V30 23 1 4 22
M  V30 24 1 9 23
M  V30 25 1 12 24
M  V30 26 1 13 25
M  V30 27 1 13 26
M  V30 28 1 16 27
M  V30 29 1 16 28
M  V30 30 1 17 29
M  V30 31 1 17 30
M  V30 32 1 18 31
M  V30 END BOND
M  V30 END CTAB
M  END
>  <Structure No>
6729

>  <LogS>
-0.86

>  <MMFF94 Energy>
-23.969

$$$$
Compound 6730
Actelion Java MolfileCreator 2.0

  0  0  0  0  0  0              0 V3000
M  V30 BEGIN CTAB
M  V30 COUNTS 33 33 0 0 0
M  V30 BEGIN ATOM
M  V30 1 S -2.9102 1.616 0.2422 0
M  V30 2 O -3.2436 2.6204 -0.826 0
M  V30 3 O -2.9802 2.3138 1.5723 0
M  V30 4 N -4.0797 0.319 0.205 0
M  V30 5 C -1.2689 1.0192 -0.0141 0
M  V30 6 C -4.0467 -0.3441 -1.1042 0
M  V30 7 C -3.7861 -0.6474 1.2702 0
M  V30 8 C -0.7459 0.9282 -1.3109 0
M  V30 9 C -0.4832 0.6246 1.0769 0
M  V30 10 C 0.5502 0.4474 -1.5154 0
M  V30 11 C 0.8133 0.1442 0.8738 0
M  V30 12 C 1.3424 0.0543 -0.4238 0
M  V30 13 N 2.6766 -0.4491 -0.6328 0
M  V30 14 C 3.7934 0.1486 0.0635 0
M  V30 15 C 2.9013 -1.4813 -1.6508 0
M  V30 16 O 3.6168 1.174 0.7769 0
M  V30 17 C 5.1786 -0.4148 -0.0485 0
M  V30 18 H -4.8369 -1.1238 -1.1532 0
M  V30 19 H -3.0605 -0.8212 -1.295 0
M  V30 20 H -4.2578 0.3898 -1.9105 0
M  V30 21 H -3.8002 -0.1428 2.2595 0
M  V30 22 H -4.5684 -1.4362 1.2914 0
M  V30 23 H -2.7952 -1.1297 1.1216 0
M  V30 24 H -1.3426 1.2248 -2.1642 0
M  V30 25 H -0.8767 0.6803 2.0839 0
M  V30 26 H 0.941 0.3896 -2.5233 0
M  V30 27 H 1.4021 -0.1704 1.7262 0
M  V30 28 H 1.9433 -1.9548 -1.9561 0
M  V30 29 H 3.379 -1.028 -2.5445 0
M  V30 30 H 3.5515 -2.2855 -1.2483 0
M  V30 31 H 5.1963 -1.4485 0.3544 0
M  V30 32 H 5.4993 -0.4223 -1.1109 0
M  V30 33 H 5.8982 0.2015 0.5316 0
M  V30 END ATOM
M  V30 BEGIN BOND
M  V30 1 2 1 2
M  V30 2 2 1 3
M  V30 3 1 1 4
M  V30 4 1 1 5
M  V30 5 1 4 6
M  V30 6 1 4 7
M  V30 7 2 5 8
M  V30 8 1 5 9
M  V30 9 1 8 10
M  V30 10 2 9 11
M  V30 11 2 10 12
M  V30 12 1 12 13
M  V30 13 1 13 14
M  V30 14 1 13 15
M  V30 15 2 14 16
M  V30 16 1 14 17
M  V30 17 1 11 12
M  V30 18 1 6 18
M  V30 19 1 6 19
M  V30 20 1 6 20
M  V30 21 1 7 21
M  V30 22 1 7 22
M  V30 23 1 7 23
M  V30 24 1 8 24
M  V30 25 1 9 25
M  V30 26 1 10 26
M  V30 27 1 11 27
M  V30 28 1 15 28
M  V30 29 1 15 29
M  V30 30 1 15 30
M  V30 31 1 17 31
M  V30 32 1 17 32
M  V30 33 1 17 33
M  V30 END BOND
M  V30 END CTAB
M  END
>  <Structure No>
6730

>  <LogS>
-2.3

>  <MMFF94 Energy>
-19.062

$$$$
Compound 6731
Actelion Java MolfileCreator 2.0

  0  0  0  0  0  0              0 V3000
M  V30 BEGIN CTAB
M  V30 COUNTS 41 41 0 0 0
M  V30 BEGIN ATOM
M  V30 1 O 3.5558 0.7103 -0.5524 0
M  V30 2 C 2.5234 0.1232 -0.9784 0
M  V30 3 O 2.4088 -1.2679 -0.8819 0
M  V30 4 C 1.3971 0.9306 -1.5743 0 CFG=2
M  V30 5 C 3.3896 -2.075 -0.2435 0
M  V30 6 N 0.2034 0.9773 -0.6956 0
M  V30 7 C 1.0389 0.3914 -2.9617 0
M  V30 8 C -0.0916 -0.0964 0.2268 0
M  V30 9 C -0.6891 2.1156 -0.764 0
M  V30 10 C -0.964 -1.1511 -0.1454 0
M  V30 11 C 0.4689 -0.0853 1.5298 0
M  V30 12 O -0.5496 2.9724 -1.6791 0
M  V30 13 C -1.8086 2.2983 0.2214 0
M  V30 14 C -1.1983 -2.2035 0.7518 0
M  V30 15 C -1.6361 -1.2091 -1.4907 0
M  V30 16 C 0.2153 -1.1525 2.4028 0
M  V30 17 C 1.3702 1.0231 2.0058 0
M  V30 18 O -2.8678 1.4302 -0.1178 0
M  V30 19 C -0.6096 -2.2051 2.0141 0
M  V30 20 C -3.8342 1.4449 0.9077 0
M  V30 21 H 1.7774 1.9677 -1.7145 0
M  V30 22 H 3.073 -3.137 -0.2901 0
M  V30 23 H 4.3669 -1.9662 -0.7595 0
M  V30 24 H 3.4903 -1.7766 0.8216 0
M  V30 25 H 0.7564 -0.6795 -2.9114 0
M  V30 26 H 1.9115 0.4906 -3.6424 0
M  V30 27 H 0.1948 0.9678 -3.3949 0
M  V30 28 H -1.4177 2.0964 1.2446 0
M  V30 29 H -2.1569 3.3557 0.1854 0
M  V30 30 H -1.8444 -3.027 0.4724 0
M  V30 31 H -1.1225 -1.9571 -2.1293 0
M  V30 32 H -2.6969 -1.5161 -1.37 0
M  V30 33 H -1.6366 -0.2282 -2.0051 0
M  V30 34 H 0.6578 -1.1677 3.3915 0
M  V30 35 H 1.0953 1.3158 3.0414 0
M  V30 36 H 1.2934 1.9305 1.3732 0
M  V30 37 H 2.4224 0.6706 2.0035 0
M  V30 38 H -0.7987 -3.0232 2.6972 0
M  V30 39 H -3.4215 1.0188 1.8491 0
M  V30 40 H -4.6874 0.8073 0.5978 0
M  V30 41 H -4.2262 2.472 1.0828 0
M  V30 END ATOM
M  V30 BEGIN BOND
M  V30 1 2 1 2
M  V30 2 1 2 3
M  V30 3 1 2 4
M  V30 4 1 3 5
M  V30 5 1 4 6
M  V30 6 1 4 7
M  V30 7 1 6 8
M  V30 8 1 6 9
M  V30 9 2 8 10
M  V30 10 1 8 11
M  V30 11 2 9 12
M  V30 12 1 9 13
M  V30 13 1 10 14
M  V30 14 1 10 15
M  V30 15 2 11 16
M  V30 16 1 11 17
M  V30 17 1 13 18
M  V30 18 2 14 19
M  V30 19 1 18 20
M  V30 20 1 16 19
M  V30 21 1 4 21
M  V30 22 1 5 22
M  V30 23 1 5 23
M  V30 24 1 5 24
M  V30 25 1 7 25
M  V30 26 1 7 26
M  V30 27 1 7 27
M  V30 28 1 13 28
M  V30 29 1 13 29
M  V30 30 1 14 30
M  V30 31 1 15 31
M  V30 32 1 15 32
M  V30 33 1 15 33
M  V30 34 1 16 34
M  V30 35 1 17 35
M  V30 36 1 17 36
M  V30 37 1 17 37
M  V30 38 1 19 38
M  V30 39 1 20 39
M  V30 40 1 20 40
M  V30 41 1 20 41
M  V30 END BOND
M  V30 BEGIN COLLECTION
M  V30 MDLV30/STEABS ATOMS=(1 4)
M  V30 END COLLECTION
M  V30 END CTAB
M  END
>  <Structure No>
6731

>  <LogS>
-1.6

>  <MMFF94 Energy>
77.235

$$$$
Compound 6732
Actelion Java MolfileCreator 2.0

  0  0  0  0  0  0              0 V3000
M  V30 BEGIN CTAB
M  V30 COUNTS 40 40 0 0 0
M  V30 BEGIN ATOM
M  V30 1 O 1.5073 0.2378 -1.3485 0
M  V30 2 C 1.3083 0.1155 -0.1085 0
M  V30 3 O 0.0504 0.42 0.4239 0
M  V30 4 C 2.3956 -0.3469 0.7931 0
M  V30 5 C -1.0394 0.8684 -0.3769 0
M  V30 6 C 3.6827 -0.6875 0.3061 0
M  V30 7 C 2.1415 -0.4395 2.1754 0
M  V30 8 C -2.2463 1.1176 0.4838 0
M  V30 9 O 3.9494 -0.6147 -1.0709 0
M  V30 10 C 4.666 -1.1389 1.2085 0
M  V30 11 C 3.1343 -0.8702 3.0566 0
M  V30 12 O -2.0738 1.369 1.7085 0
M  V30 13 N -3.5857 1.1217 -0.0642 0
M  V30 14 C 5.1966 -0.3283 -1.641 0
M  V30 15 C 4.3922 -1.2233 2.5738 0
M  V30 16 C -3.8234 1.2375 -1.5119 0
M  V30 17 C -4.7429 1.0579 0.8427 0
M  V30 18 O 6.1169 0.2005 -0.9605 0
M  V30 19 C 5.3961 -0.5451 -3.1022 0
M  V30 20 C -4.1588 -0.1228 -2.1143 0
M  V30 21 C -4.8383 -0.3128 1.5085 0
M  V30 22 H -1.2704 0.0919 -1.1356 0
M  V30 23 H -0.7595 1.8141 -0.8885 0
M  V30 24 H 1.1718 -0.179 2.5809 0
M  V30 25 H 5.638 -1.4559 0.8561 0
M  V30 26 H 2.9244 -0.9381 4.1164 0
M  V30 27 H 5.155 -1.5723 3.2579 0
M  V30 28 H -4.6649 1.9384 -1.7027 0
M  V30 29 H -2.9411 1.6674 -2.0304 0
M  V30 30 H -4.6594 1.849 1.619 0
M  V30 31 H -5.689 1.2415 0.2875 0
M  V30 32 H 6.4524 -0.8198 -3.3074 0
M  V30 33 H 5.1453 0.3859 -3.6518 0
M  V30 34 H 4.7373 -1.3658 -3.4556 0
M  V30 35 H -5.119 -0.4979 -1.7021 0
M  V30 36 H -3.3564 -0.856 -1.8905 0
M  V30 37 H -4.2605 -0.0275 -3.2159 0
M  V30 38 H -5.7449 -0.3531 2.1484 0
M  V30 39 H -3.9492 -0.502 2.1452 0
M  V30 40 H -4.9094 -1.1094 0.7386 0
M  V30 END ATOM
M  V30 BEGIN BOND
M  V30 1 2 1 2
M  V30 2 1 2 3
M  V30 3 1 2 4
M  V30 4 1 3 5
M  V30 5 2 4 6
M  V30 6 1 4 7
M  V30 7 1 5 8
M  V30 8 1 6 9
M  V30 9 1 6 10
M  V30 10 2 7 11
M  V30 11 2 8 12
M  V30 12 1 8 13
M  V30 13 1 9 14
M  V30 14 2 10 15
M  V30 15 1 13 16
M  V30 16 1 13 17
M  V30 17 2 14 18
M  V30 18 1 14 19
M  V30 19 1 16 20
M  V30 20 1 17 21
M  V30 21 1 11 15
M  V30 22 1 5 22
M  V30 23 1 5 23
M  V30 24 1 7 24
M  V30 25 1 10 25
M  V30 26 1 11 26
M  V30 27 1 15 27
M  V30 28 1 16 28
M  V30 29 1 16 29
M  V30 30 1 17 30
M  V30 31 1 17 31
M  V30 32 1 19 32
M  V30 33 1 19 33
M  V30 34 1 19 34
M  V30 35 1 20 35
M  V30 36 1 20 36
M  V30 37 1 20 37
M  V30 38 1 21 38
M  V30 39 1 21 39
M  V30 40 1 21 40
M  V30 END BOND
M  V30 END CTAB
M  END
>  <Structure No>
6732

>  <LogS>
-2.11

>  <MMFF94 Energy>
40.659

$$$$
Compound 6733
Actelion Java MolfileCreator 2.0

  0  0  0  0  0  0              0 V3000
M  V30 BEGIN CTAB
M  V30 COUNTS 32 33 0 0 0
M  V30 BEGIN ATOM
M  V30 1 O 3.6637 -2.6272 -0.716 0
M  V30 2 C 3.8038 -1.4256 -0.3676 0
M  V30 3 N 4.8824 -0.6997 -0.785 0
M  V30 4 C 2.8756 -0.7948 0.4472 0
M  V30 5 C 5.0457 0.6113 -0.4137 0
M  V30 6 C 3.0531 0.5048 0.8044 0
M  V30 7 C 1.699 -1.1838 1.0413 0
M  V30 8 N 4.123 1.2257 0.3891 0
M  V30 9 N 2.0462 0.933 1.5847 0
M  V30 10 N 1.2294 -0.1086 1.7215 0
M  V30 11 C -0.0155 -0.0679 2.4806 0
M  V30 12 O -1.1217 -0.3161 1.6175 0
M  V30 13 C -1.5102 0.5635 0.5991 0
M  V30 14 O -0.9001 1.6583 0.4442 0
M  V30 15 C -2.599 0.1545 -0.3731 0
M  V30 16 C -3.6152 -0.7681 0.3292 0
M  V30 17 C -1.95 -0.5982 -1.5469 0
M  V30 18 C -3.3423 1.3974 -0.9053 0
M  V30 19 H 5.9105 1.1611 -0.7609 0
M  V30 20 H 1.2176 -2.1516 0.9824 0
M  V30 21 H 4.2413 2.2239 0.6727 0
M  V30 22 H -0.1357 0.9191 2.9783 0
M  V30 23 H 0.0101 -0.8508 3.2673 0
M  V30 24 H -4.0636 -0.2556 1.2081 0
M  V30 25 H -3.1277 -1.7038 0.679 0
M  V30 26 H -4.4348 -1.0506 -0.3663 0
M  V30 27 H -1.4123 -1.501 -1.1833 0
M  V30 28 H -1.2187 0.0531 -2.073 0
M  V30 29 H -2.7207 -0.9214 -2.2796 0
M  V30 30 H -4.1603 1.0992 -1.5963 0
M  V30 31 H -3.7867 1.9743 -0.0654 0
M  V30 32 H -2.6509 2.0652 -1.4633 0
M  V30 END ATOM
M  V30 BEGIN BOND
M  V30 1 2 1 2
M  V30 2 1 2 3
M  V30 3 1 2 4
M  V30 4 2 3 5
M  V30 5 1 4 6
M  V30 6 2 4 7
M  V30 7 1 5 8
M  V30 8 2 6 9
M  V30 9 1 7 10
M  V30 10 1 10 11
M  V30 11 1 11 12
M  V30 12 1 12 13
M  V30 13 2 13 14
M  V30 14 1 13 15
M  V30 15 1 15 16
M  V30 16 1 15 17
M  V30 17 1 15 18
M  V30 18 1 6 8
M  V30 19 1 9 10
M  V30 20 1 5 19
M  V30 21 1 7 20
M  V30 22 1 8 21
M  V30 23 1 11 22
M  V30 24 1 11 23
M  V30 25 1 16 24
M  V30 26 1 16 25
M  V30 27 1 16 26
M  V30 28 1 17 27
M  V30 29 1 17 28
M  V30 30 1 17 29
M  V30 31 1 18 30
M  V30 32 1 18 31
M  V30 33 1 18 32
M  V30 END BOND
M  V30 END CTAB
M  END
>  <Structure No>
6733

>  <LogS>
-2.17

>  <MMFF94 Energy>
-53.663

$$$$
Compound 6734
Actelion Java MolfileCreator 2.0

  0  0  0  0  0  0              0 V3000
M  V30 BEGIN CTAB
M  V30 COUNTS 35 36 0 0 0
M  V30 BEGIN ATOM
M  V30 1 Cl -3.9426 3.8586 -0.2513 0
M  V30 2 C -2.8714 2.477 -0.4172 0
M  V30 3 Cl -1.2551 2.7486 -1.0639 0
M  V30 4 C -3.3034 1.259 -0.0597 0
M  V30 5 C -2.4522 0.0239 -0.2087 0 CFG=2
M  V30 6 C -2.5318 -1.0327 0.9031 0
M  V30 7 C -1.3252 -0.0869 0.8299 0 CFG=1
M  V30 8 C -2.3638 -2.4861 0.435 0
M  V30 9 C -3.4725 -0.7959 2.0938 0
M  V30 10 C -0.0429 -0.6531 0.2994 0
M  V30 11 O 0.6225 -1.4518 1.0126 0
M  V30 12 O 0.4246 -0.2556 -0.9581 0
M  V30 13 C 1.6731 -0.6796 -1.4998 0
M  V30 14 C 2.8121 0.0061 -0.7891 0
M  V30 15 C 3.6958 -0.7196 0.0334 0
M  V30 16 C 2.9834 1.3965 -0.9241 0
M  V30 17 F 3.5532 -2.0602 0.1921 0
M  V30 18 C 4.7347 -0.0613 0.7013 0
M  V30 19 F 2.1405 2.1203 -1.7044 0
M  V30 20 C 4.0245 2.0468 -0.2527 0
M  V30 21 F 5.5847 -0.762 1.4921 0
M  V30 22 C 4.8983 1.3185 0.5579 0
M  V30 23 F 4.1864 3.3866 -0.3859 0
M  V30 24 H -4.3253 1.1462 0.2898 0
M  V30 25 H -2.2109 -0.3327 -1.2338 0
M  V30 26 H -1.2719 0.7326 1.5794 0
M  V30 27 H -3.3637 -2.9291 0.2445 0
M  V30 28 H -1.8594 -3.0747 1.2297 0
M  V30 29 H -1.7694 -2.5663 -0.4999 0
M  V30 30 H -3.4326 0.2496 2.4672 0
M  V30 31 H -4.5155 -1.0292 1.7936 0
M  V30 32 H -3.1848 -1.4675 2.9295 0
M  V30 33 H 1.7508 -1.787 -1.4479 0
M  V30 34 H 1.7036 -0.4047 -2.5751 0
M  V30 35 H 5.7026 1.8244 1.0767 0
M  V30 END ATOM
M  V30 BEGIN BOND
M  V30 1 1 1 2
M  V30 2 1 2 3
M  V30 3 2 2 4
M  V30 4 1 4 5
M  V30 5 1 5 6
M  V30 6 1 5 7
M  V30 7 1 6 8
M  V30 8 1 6 9
M  V30 9 1 7 10
M  V30 10 2 10 11
M  V30 11 1 10 12
M  V30 12 1 12 13
M  V30 13 1 13 14
M  V30 14 2 14 15
M  V30 15 1 14 16
M  V30 16 1 15 17
M  V30 17 1 15 18
M  V30 18 1 16 19
M  V30 19 2 16 20
M  V30 20 1 18 21
M  V30 21 2 18 22
M  V30 22 1 20 23
M  V30 23 1 6 7
M  V30 24 1 20 22
M  V30 25 1 4 24
M  V30 26 1 5 25
M  V30 27 1 7 26
M  V30 28 1 8 27
M  V30 29 1 8 28
M  V30 30 1 8 29
M  V30 31 1 9 30
M  V30 32 1 9 31
M  V30 33 1 9 32
M  V30 34 1 13 33
M  V30 35 1 13 34
M  V30 36 1 22 35
M  V30 END BOND
M  V30 BEGIN COLLECTION
M  V30 MDLV30/STEABS ATOMS=(2 5 7)
M  V30 END COLLECTION
M  V30 END CTAB
M  END
>  <Structure No>
6734

>  <LogS>
-6.81

>  <MMFF94 Energy>
17.197

$$$$
Compound 6735
Actelion Java MolfileCreator 2.0

  0  0  0  0  0  0              0 V3000
M  V30 BEGIN CTAB
M  V30 COUNTS 32 33 0 0 0
M  V30 BEGIN ATOM
M  V30 1 O 4.8612 0.159 1.6714 0
M  V30 2 C 3.9407 0.5353 0.8994 0
M  V30 3 N 3.6259 1.8589 0.7824 0
M  V30 4 C 3.2132 -0.3721 0.1438 0
M  V30 5 C 2.623 2.2819 -0.0536 0
M  V30 6 C 2.2266 0.0642 -0.6767 0
M  V30 7 C 3.2298 -1.7448 0.0066 0
M  V30 8 N 1.9105 1.3792 -0.7953 0
M  V30 9 N 1.6535 -0.9843 -1.2917 0
M  V30 10 N 2.2616 -2.0931 -0.8794 0
M  V30 11 C 0.5384 -0.9605 -2.2342 0
M  V30 12 O -0.5937 -0.3338 -1.6378 0
M  V30 13 C -1.2652 -0.8613 -0.5281 0
M  V30 14 O -0.936 -1.991 -0.0692 0
M  V30 15 C -2.3155 -0.0246 0.1746 0
M  V30 16 C -3.2839 -0.921 0.9746 0
M  V30 17 C -1.605 0.9465 1.1332 0
M  V30 18 C -3.1243 0.7777 -0.8638 0
M  V30 19 H 2.396 3.3375 -0.1244 0
M  V30 20 H 3.8855 -2.4422 0.5106 0
M  V30 21 H 1.1481 1.7018 -1.4316 0
M  V30 22 H 0.276 -1.9938 -2.5496 0
M  V30 23 H 0.8349 -0.3868 -3.1371 0
M  V30 24 H -4.0699 -0.3081 1.4669 0
M  V30 25 H -2.7421 -1.4818 1.7669 0
M  V30 26 H -3.7815 -1.6535 0.3026 0
M  V30 27 H -2.3443 1.583 1.666 0
M  V30 28 H -0.9101 1.611 0.5747 0
M  V30 29 H -1.015 0.3861 1.8908 0
M  V30 30 H -3.6099 0.0927 -1.5922 0
M  V30 31 H -3.9166 1.3774 -0.3656 0
M  V30 32 H -2.4684 1.4786 -1.4242 0
M  V30 END ATOM
M  V30 BEGIN BOND
M  V30 1 2 1 2
M  V30 2 1 2 3
M  V30 3 1 2 4
M  V30 4 2 3 5
M  V30 5 2 4 6
M  V30 6 1 4 7
M  V30 7 1 5 8
M  V30 8 1 6 9
M  V30 9 2 7 10
M  V30 10 1 9 11
M  V30 11 1 11 12
M  V30 12 1 12 13
M  V30 13 2 13 14
M  V30 14 1 13 15
M  V30 15 1 15 16
M  V30 16 1 15 17
M  V30 17 1 15 18
M  V30 18 1 6 8
M  V30 19 1 9 10
M  V30 20 1 5 19
M  V30 21 1 7 20
M  V30 22 1 8 21
M  V30 23 1 11 22
M  V30 24 1 11 23
M  V30 25 1 16 24
M  V30 26 1 16 25
M  V30 27 1 16 26
M  V30 28 1 17 27
M  V30 29 1 17 28
M  V30 30 1 17 29
M  V30 31 1 18 30
M  V30 32 1 18 31
M  V30 33 1 18 32
M  V30 END BOND
M  V30 END CTAB
M  END
>  <Structure No>
6735

>  <LogS>
-2.68

>  <MMFF94 Energy>
11.912

$$$$
Compound 6736
Actelion Java MolfileCreator 2.0

  0  0  0  0  0  0              0 V3000
M  V30 BEGIN CTAB
M  V30 COUNTS 23 24 0 0 0
M  V30 BEGIN ATOM
M  V30 1 Cl 5.4235 -1.0152 -0.1691 0
M  V30 2 C 3.7976 -0.3375 -0.0892 0
M  V30 3 C 2.7419 -1.0919 0.4534 0
M  V30 4 C 3.5489 0.9638 -0.5606 0
M  V30 5 Cl 3.0052 -2.7164 1.0746 0
M  V30 6 C 1.4536 -0.5499 0.5139 0
M  V30 7 Cl 4.8372 1.9521 -1.2371 0
M  V30 8 C 2.2567 1.4963 -0.4957 0
M  V30 9 C 1.2006 0.7419 0.0233 0
M  V30 10 O -0.0758 1.3208 0.0813 0
M  V30 11 C -1.2898 0.6239 -0.0085 0
M  V30 12 C -2.4133 1.1419 0.6481 0
M  V30 13 C -1.4206 -0.5488 -0.7759 0
M  V30 14 C -3.6446 0.4837 0.5694 0
M  V30 15 C -2.6532 -1.2049 -0.8531 0
M  V30 16 C -3.7636 -0.6911 -0.1777 0
M  V30 17 H 0.6558 -1.1292 0.9605 0
M  V30 18 H 2.0685 2.4994 -0.858 0
M  V30 19 H -2.3292 2.0529 1.2269 0
M  V30 20 H -0.5786 -0.9444 -1.3282 0
M  V30 21 H -4.5067 0.8854 1.0861 0
M  V30 22 H -2.7492 -2.1075 -1.4424 0
M  V30 23 H -4.7175 -1.1991 -0.2394 0
M  V30 END ATOM
M  V30 BEGIN BOND
M  V30 1 1 1 2
M  V30 2 2 2 3
M  V30 3 1 2 4
M  V30 4 1 3 5
M  V30 5 1 3 6
M  V30 6 1 4 7
M  V30 7 2 4 8
M  V30 8 2 6 9
M  V30 9 1 9 10
M  V30 10 1 10 11
M  V30 11 2 11 12
M  V30 12 1 11 13
M  V30 13 1 12 14
M  V30 14 2 13 15
M  V30 15 2 14 16
M  V30 16 1 8 9
M  V30 17 1 15 16
M  V30 18 1 6 17
M  V30 19 1 8 18
M  V30 20 1 12 19
M  V30 21 1 13 20
M  V30 22 1 14 21
M  V30 23 1 15 22
M  V30 24 1 16 23
M  V30 END BOND
M  V30 END CTAB
M  END
>  <Structure No>
6736

>  <LogS>
-6.77

>  <MMFF94 Energy>
43.2

$$$$
Compound 6737
Actelion Java MolfileCreator 2.0

  0  0  0  0  0  0              0 V3000
M  V30 BEGIN CTAB
M  V30 COUNTS 32 33 0 0 0
M  V30 BEGIN ATOM
M  V30 1 O -5.8068 -0.1587 1.4294 0
M  V30 2 C -4.7683 -0.156 0.7162 0
M  V30 3 N -4.7717 0.4139 -0.5276 0
M  V30 4 C -3.5867 -0.7259 1.1665 0
M  V30 5 C -3.6367 0.428 -1.3064 0
M  V30 6 N -3.3157 -1.3163 2.3464 0
M  V30 7 C -2.4877 -0.7045 0.3816 0
M  V30 8 N -2.4772 -0.1356 -0.8472 0
M  V30 9 N -3.6614 1.0334 -2.5989 0
M  V30 10 C -2.0 -1.6462 2.2199 0
M  V30 11 N -1.471 -1.294 1.0202 0
M  V30 12 C -0.0823 -1.4058 0.5905 0
M  V30 13 O 0.5871 -0.1982 0.8826 0
M  V30 14 C 1.9278 -0.2851 0.4498 0
M  V30 15 C 2.6437 1.021 0.7825 0
M  V30 16 O 4.0194 0.9498 0.4126 0
M  V30 17 C 4.4693 1.0643 -0.9075 0
M  V30 18 O 3.6588 1.2689 -1.8516 0
M  V30 19 C 5.9212 0.9038 -1.2046 0
M  V30 20 H -5.6509 0.849 -0.8884 0
M  V30 21 H -4.5356 1.4694 -2.9672 0
M  V30 22 H -2.8016 1.0462 -3.1909 0
M  V30 23 H -1.4329 -2.1284 3.0058 0
M  V30 24 H -0.0625 -1.617 -0.5032 0
M  V30 25 H 0.3931 -2.2594 1.1259 0
M  V30 26 H 1.9737 -0.4486 -0.6504 0
M  V30 27 H 2.4571 -1.116 0.9703 0
M  V30 28 H 2.5836 1.1948 1.878 0
M  V30 29 H 2.1501 1.8764 0.2712 0
M  V30 30 H 6.5202 1.1042 -0.2917 0
M  V30 31 H 6.1158 -0.1334 -1.5474 0
M  V30 32 H 6.2284 1.6169 -1.9985 0
M  V30 END ATOM
M  V30 BEGIN BOND
M  V30 1 2 1 2
M  V30 2 1 2 3
M  V30 3 1 2 4
M  V30 4 1 3 5
M  V30 5 1 4 6
M  V30 6 2 4 7
M  V30 7 2 5 8
M  V30 8 1 5 9
M  V30 9 2 6 10
M  V30 10 1 7 11
M  V30 11 1 11 12
M  V30 12 1 12 13
M  V30 13 1 13 14
M  V30 14 1 14 15
M  V30 15 1 15 16
M  V30 16 1 16 17
M  V30 17 2 17 18
M  V30 18 1 17 19
M  V30 19 1 7 8
M  V30 20 1 10 11
M  V30 21 1 3 20
M  V30 22 1 9 21
M  V30 23 1 9 22
M  V30 24 1 10 23
M  V30 25 1 12 24
M  V30 26 1 12 25
M  V30 27 1 14 26
M  V30 28 1 14 27
M  V30 29 1 15 28
M  V30 30 1 15 29
M  V30 31 1 19 30
M  V30 32 1 19 31
M  V30 33 1 19 32
M  V30 END BOND
M  V30 END CTAB
M  END
>  <Structure No>
6737

>  <LogS>
-2.7

>  <MMFF94 Energy>
-56.626

$$$$
Compound 6738
Actelion Java MolfileCreator 2.0

  0  0  0  0  0  0              0 V3000
M  V30 BEGIN CTAB
M  V30 COUNTS 36 36 0 0 0
M  V30 BEGIN ATOM
M  V30 1 S -3.3073 1.6122 1.0477 0
M  V30 2 O -3.2956 3.0862 0.7497 0
M  V30 3 O -3.6207 1.4373 2.508 0
M  V30 4 N -4.5461 0.8364 0.0911 0
M  V30 5 C -1.71 0.9397 0.7123 0
M  V30 6 C -4.5921 -0.5972 0.4036 0
M  V30 7 C -4.2703 1.0353 -1.3371 0
M  V30 8 C -0.9114 1.4894 -0.2993 0
M  V30 9 C -1.2356 -0.1531 1.4501 0
M  V30 10 C 0.3497 0.9519 -0.5709 0
M  V30 11 C 0.0252 -0.6918 1.179 0
M  V30 12 C 0.8301 -0.1413 0.168 0
M  V30 13 N 2.1279 -0.6996 -0.1181 0
M  V30 14 C 3.2981 0.1499 -0.1136 0
M  V30 15 C 2.2596 -2.1509 -0.2893 0
M  V30 16 O 3.192 1.3539 0.2529 0
M  V30 17 C 4.6481 -0.3846 -0.5341 0
M  V30 18 C 5.7694 0.6476 -0.4135 0
M  V30 19 H -5.4247 -1.0789 -0.1527 0
M  V30 20 H -4.7896 -0.7468 1.4863 0
M  V30 21 H -3.6401 -1.1044 0.1335 0
M  V30 22 H -4.2245 2.1201 -1.5705 0
M  V30 23 H -3.3124 0.5571 -1.6379 0
M  V30 24 H -5.0932 0.6017 -1.9449 0
M  V30 25 H -1.2679 2.328 -0.8839 0
M  V30 26 H -1.843 -0.5915 2.2317 0
M  V30 27 H 0.9488 1.379 -1.3653 0
M  V30 28 H 0.3792 -1.532 1.7628 0
M  V30 29 H 2.7434 -2.5916 0.6074 0
M  V30 30 H 2.8649 -2.38 -1.1907 0
M  V30 31 H 1.2658 -2.6277 -0.4316 0
M  V30 32 H 4.9069 -1.2596 0.0992 0
M  V30 33 H 4.589 -0.7194 -1.5916 0
M  V30 34 H 6.7298 0.1911 -0.7335 0
M  V30 35 H 5.5602 1.5233 -1.0646 0
M  V30 36 H 5.8719 0.985 0.6401 0
M  V30 END ATOM
M  V30 BEGIN BOND
M  V30 1 2 1 2
M  V30 2 2 1 3
M  V30 3 1 1 4
M  V30 4 1 1 5
M  V30 5 1 4 6
M  V30 6 1 4 7
M  V30 7 2 5 8
M  V30 8 1 5 9
M  V30 9 1 8 10
M  V30 10 2 9 11
M  V30 11 2 10 12
M  V30 12 1 12 13
M  V30 13 1 13 14
M  V30 14 1 13 15
M  V30 15 2 14 16
M  V30 16 1 14 17
M  V30 17 1 17 18
M  V30 18 1 11 12
M  V30 19 1 6 19
M  V30 20 1 6 20
M  V30 21 1 6 21
M  V30 22 1 7 22
M  V30 23 1 7 23
M  V30 24 1 7 24
M  V30 25 1 8 25
M  V30 26 1 9 26
M  V30 27 1 10 27
M  V30 28 1 11 28
M  V30 29 1 15 29
M  V30 30 1 15 30
M  V30 31 1 15 31
M  V30 32 1 17 32
M  V30 33 1 17 33
M  V30 34 1 18 34
M  V30 35 1 18 35
M  V30 36 1 18 36
M  V30 END BOND
M  V30 END CTAB
M  END
>  <Structure No>
6738

>  <LogS>
-2.48

>  <MMFF94 Energy>
-24.847

$$$$
Compound 6739
Actelion Java MolfileCreator 2.0

  0  0  0  0  0  0              0 V3000
M  V30 BEGIN CTAB
M  V30 COUNTS 23 24 0 0 0
M  V30 BEGIN ATOM
M  V30 1 Cl 5.167 1.7766 0.2536 0
M  V30 2 C 3.6393 0.9873 -0.1138 0
M  V30 3 C 3.0715 1.0608 -1.3962 0
M  V30 4 C 2.9903 0.2645 0.893 0
M  V30 5 Cl 3.8606 1.9473 -2.6936 0
M  V30 6 C 1.8551 0.4201 -1.6554 0
M  V30 7 C 1.7734 -0.376 0.635 0
M  V30 8 C 1.1906 -0.2823 -0.6441 0
M  V30 9 Cl 1.0397 -1.3423 1.9079 0
M  V30 10 O -0.0279 -0.9026 -0.945 0
M  V30 11 C -1.2375 -0.6439 -0.2828 0
M  V30 12 C -2.2954 -1.548 -0.4413 0
M  V30 13 C -1.4271 0.5051 0.5098 0
M  V30 14 C -3.5196 -1.3238 0.1962 0
M  V30 15 C -2.6525 0.7261 1.1461 0
M  V30 16 C -3.6973 -0.1885 0.9913 0
M  V30 17 H 3.4385 0.1915 1.8761 0
M  V30 18 H 1.415 0.4783 -2.6431 0
M  V30 19 H -2.1656 -2.4295 -1.0561 0
M  V30 20 H -0.6351 1.2322 0.6304 0
M  V30 21 H -4.3306 -2.0298 0.0731 0
M  V30 22 H -2.7933 1.6089 1.7564 0
M  V30 23 H -4.6454 -0.0157 1.4839 0
M  V30 END ATOM
M  V30 BEGIN BOND
M  V30 1 1 1 2
M  V30 2 2 2 3
M  V30 3 1 2 4
M  V30 4 1 3 5
M  V30 5 1 3 6
M  V30 6 2 4 7
M  V30 7 2 6 8
M  V30 8 1 7 9
M  V30 9 1 8 10
M  V30 10 1 10 11
M  V30 11 2 11 12
M  V30 12 1 11 13
M  V30 13 1 12 14
M  V30 14 2 13 15
M  V30 15 2 14 16
M  V30 16 1 7 8
M  V30 17 1 15 16
M  V30 18 1 4 17
M  V30 19 1 6 18
M  V30 20 1 12 19
M  V30 21 1 13 20
M  V30 22 1 14 21
M  V30 23 1 15 22
M  V30 24 1 16 23
M  V30 END BOND
M  V30 END CTAB
M  END
>  <Structure No>
6739

>  <LogS>
-6.58

>  <MMFF94 Energy>
45.19

$$$$
Compound 6740
Actelion Java MolfileCreator 2.0

  0  0  0  0  0  0              0 V3000
M  V30 BEGIN CTAB
M  V30 COUNTS 39 40 0 0 0
M  V30 BEGIN ATOM
M  V30 1 O 0.8029 0.5619 -0.4013 0
M  V30 2 C 1.1503 -0.6421 -0.5457 0
M  V30 3 O 0.1993 -1.5975 -0.9292 0
M  V30 4 C 2.558 -1.0584 -0.3128 0
M  V30 5 C -1.1784 -1.2914 -1.1439 0
M  V30 6 C 3.5567 -0.1377 0.0936 0
M  V30 7 C 2.9113 -2.4073 -0.5099 0
M  V30 8 C -1.8935 -1.037 0.1572 0
M  V30 9 O 3.2184 1.2085 0.3089 0
M  V30 10 C 4.8689 -0.5975 0.3203 0
M  V30 11 C 4.2211 -2.8403 -0.2994 0
M  V30 12 O -1.3371 -1.3816 1.2368 0
M  V30 13 N -3.2062 -0.4341 0.1891 0
M  V30 14 C 4.0775 2.3003 0.1291 0
M  V30 15 C 5.1966 -1.9383 0.119 0
M  V30 16 C -4.1221 -0.5709 -0.9529 0
M  V30 17 C -3.7838 -0.053 1.4845 0
M  V30 18 O 5.1365 2.1908 -0.5461 0
M  V30 19 C 3.6721 3.6386 0.6463 0
M  V30 20 C -5.159 0.5568 -0.9414 0
M  V30 21 C -4.845 1.0345 1.2953 0
M  V30 22 O -5.7915 0.6473 0.3195 0
M  V30 23 H -1.6569 -2.1564 -1.6482 0
M  V30 24 H -1.2606 -0.4047 -1.8088 0
M  V30 25 H 2.1741 -3.1341 -0.8273 0
M  V30 26 H 5.6364 0.0723 0.6831 0
M  V30 27 H 4.4778 -3.8806 -0.4532 0
M  V30 28 H 6.2078 -2.2807 0.2971 0
M  V30 29 H -4.6409 -1.5515 -0.8862 0
M  V30 30 H -3.579 -0.5257 -1.9185 0
M  V30 31 H -2.9956 0.3405 2.1631 0
M  V30 32 H -4.2468 -0.947 1.9559 0
M  V30 33 H 3.0275 3.5178 1.5424 0
M  V30 34 H 3.1066 4.1825 -0.1388 0
M  V30 35 H 4.57 4.2285 0.9277 0
M  V30 36 H -5.9314 0.337 -1.7083 0
M  V30 37 H -4.6849 1.5244 -1.2256 0
M  V30 38 H -5.3744 1.1866 2.2596 0
M  V30 39 H -4.3662 2.0053 1.031 0
M  V30 END ATOM
M  V30 BEGIN BOND
M  V30 1 2 1 2
M  V30 2 1 2 3
M  V30 3 1 2 4
M  V30 4 1 3 5
M  V30 5 2 4 6
M  V30 6 1 4 7
M  V30 7 1 5 8
M  V30 8 1 6 9
M  V30 9 1 6 10
M  V30 10 2 7 11
M  V30 11 2 8 12
M  V30 12 1 8 13
M  V30 13 1 9 14
M  V30 14 2 10 15
M  V30 15 1 13 16
M  V30 16 1 13 17
M  V30 17 2 14 18
M  V30 18 1 14 19
M  V30 19 1 16 20
M  V30 20 1 17 21
M  V30 21 1 20 22
M  V30 22 1 11 15
M  V30 23 1 21 22
M  V30 24 1 5 23
M  V30 25 1 5 24
M  V30 26 1 7 25
M  V30 27 1 10 26
M  V30 28 1 11 27
M  V30 29 1 15 28
M  V30 30 1 16 29
M  V30 31 1 16 30
M  V30 32 1 17 31
M  V30 33 1 17 32
M  V30 34 1 19 33
M  V30 35 1 19 34
M  V30 36 1 19 35
M  V30 37 1 20 36
M  V30 38 1 20 37
M  V30 39 1 21 38
M  V30 40 1 21 39
M  V30 END BOND
M  V30 END CTAB
M  END
>  <Structure No>
6740

>  <LogS>
-1.8

>  <MMFF94 Energy>
89.252

$$$$
Compound 6741
Actelion Java MolfileCreator 2.0

  0  0  0  0  0  0              0 V3000
M  V30 BEGIN CTAB
M  V30 COUNTS 23 24 0 0 0
M  V30 BEGIN ATOM
M  V30 1 S 3.4129 -0.4157 0.3325 0
M  V30 2 O 4.0355 -1.7801 0.2324 0
M  V30 3 O 3.7903 0.1963 1.6519 0
M  V30 4 O 4.0042 0.5308 -0.9231 0 CHG=-1
M  V30 5 C 1.65 -0.5292 0.2139 0
M  V30 6 C 0.839 0.6248 0.073 0
M  V30 7 C 1.0591 -1.799 0.2278 0
M  V30 8 N 1.4472 1.9271 0.0311 0
M  V30 9 C -0.5709 0.4771 -0.0401 0
M  V30 10 C -0.3173 -1.9468 0.0939 0
M  V30 11 C -1.1395 -0.8245 -0.0394 0
M  V30 12 C -1.4394 1.5887 -0.1239 0
M  V30 13 C -2.5289 -0.9885 -0.1593 0
M  V30 14 C -2.82 1.4077 -0.2403 0
M  V30 15 C -3.3623 0.1243 -0.2641 0
M  V30 16 H 1.6663 -2.6882 0.3338 0
M  V30 17 H 1.0356 2.7074 -0.5241 0
M  V30 18 H 2.3647 2.1174 0.488 0
M  V30 19 H -0.7413 -2.9443 0.1015 0
M  V30 20 H -1.0761 2.6043 -0.0814 0
M  V30 21 H -2.9707 -1.978 -0.1658 0
M  V30 22 H -3.4731 2.2685 -0.306 0
M  V30 23 H -4.4329 -0.0082 -0.3532 0
M  V30 END ATOM
M  V30 BEGIN BOND
M  V30 1 2 1 2
M  V30 2 2 1 3
M  V30 3 1 1 4
M  V30 4 1 1 5
M  V30 5 2 5 6
M  V30 6 1 5 7
M  V30 7 1 6 8
M  V30 8 1 6 9
M  V30 9 2 7 10
M  V30 10 1 9 11
M  V30 11 2 9 12
M  V30 12 2 11 13
M  V30 13 1 12 14
M  V30 14 1 13 15
M  V30 15 1 10 11
M  V30 16 2 14 15
M  V30 17 1 7 16
M  V30 18 1 8 17
M  V30 19 1 8 18
M  V30 20 1 10 19
M  V30 21 1 12 20
M  V30 22 1 13 21
M  V30 23 1 14 22
M  V30 24 1 15 23
M  V30 END BOND
M  V30 END CTAB
M  END
>  <Structure No>
6741

>  <LogS>
-2.96

>  <MMFF94 Energy>
84.837

$$$$
Compound 6742
Actelion Java MolfileCreator 2.0

  0  0  0  0  0  0              0 V3000
M  V30 BEGIN CTAB
M  V30 COUNTS 44 44 0 0 0
M  V30 BEGIN ATOM
M  V30 1 Cl -8.6114 1.7826 0.891 0
M  V30 2 C -6.9406 1.4506 0.4418 0
M  V30 3 C -6.6028 1.4198 -0.9154 0
M  V30 4 C -5.9406 1.2172 1.4095 0
M  V30 5 F -7.5473 1.6405 -1.8638 0
M  V30 6 N -5.3246 1.1694 -1.2949 0
M  V30 7 N -6.2616 1.2401 2.8098 0
M  V30 8 C -4.621 0.9604 0.9808 0
M  V30 9 C -4.3333 0.9418 -0.3906 0
M  V30 10 Cl -3.3162 0.6623 2.1293 0
M  V30 11 O -3.0264 0.6899 -0.8207 0
M  V30 12 C -2.6607 0.6349 -2.1947 0
M  V30 13 C -1.1994 0.3595 -2.2987 0
M  V30 14 O -0.4061 1.2891 -2.6114 0
M  V30 15 O -0.7231 -0.9246 -2.0119 0
M  V30 16 C 0.6639 -1.2632 -1.977 0 CFG=1
M  V30 17 C 1.2934 -0.737 -0.6693 0
M  V30 18 C 0.7889 -2.7841 -2.0964 0
M  V30 19 C 2.8244 -0.8631 -0.6541 0
M  V30 20 C 3.42 -0.1776 0.5823 0
M  V30 21 C 4.9457 -0.3262 0.6136 0
M  V30 22 C 5.5423 0.3808 1.8364 0
M  V30 23 C 7.0599 0.2286 1.8749 0
M  V30 24 H -5.5427 1.0523 3.5423 0
M  V30 25 H -7.228 1.4377 3.1493 0
M  V30 26 H -3.2221 -0.1799 -2.7005 0
M  V30 27 H -2.903 1.6015 -2.6889 0
M  V30 28 H 1.1742 -0.8056 -2.8542 0
M  V30 29 H 1.0286 0.3364 -0.5544 0
M  V30 30 H 0.8627 -1.2802 0.2005 0
M  V30 31 H 1.8502 -3.0854 -2.2136 0
M  V30 32 H 0.2369 -3.1333 -2.9948 0
M  V30 33 H 0.3594 -3.2838 -1.2015 0
M  V30 34 H 3.1103 -1.9367 -0.6415 0
M  V30 35 H 3.2443 -0.3927 -1.5706 0
M  V30 36 H 2.9871 -0.6335 1.5007 0
M  V30 37 H 3.1565 0.9033 0.5662 0
M  V30 38 H 5.2087 -1.4068 0.6481 0
M  V30 39 H 5.3779 0.1138 -0.3126 0
M  V30 40 H 5.2907 1.4637 1.8033 0
M  V30 41 H 5.1136 -0.0522 2.7672 0
M  V30 42 H 7.4632 0.75 2.7684 0
M  V30 43 H 7.3387 -0.8451 1.9343 0
M  V30 44 H 7.5157 0.6767 0.9665 0
M  V30 END ATOM
M  V30 BEGIN BOND
M  V30 1 1 1 2
M  V30 2 2 2 3
M  V30 3 1 2 4
M  V30 4 1 3 5
M  V30 5 1 3 6
M  V30 6 1 4 7
M  V30 7 2 4 8
M  V30 8 2 6 9
M  V30 9 1 8 10
M  V30 10 1 9 11
M  V30 11 1 11 12
M  V30 12 1 12 13
M  V30 13 2 13 14
M  V30 14 1 13 15
M  V30 15 1 15 16
M  V30 16 1 16 17
M  V30 17 1 16 18
M  V30 18 1 17 19
M  V30 19 1 19 20
M  V30 20 1 20 21
M  V30 21 1 21 22
M  V30 22 1 22 23
M  V30 23 1 8 9
M  V30 24 1 7 24
M  V30 25 1 7 25
M  V30 26 1 12 26
M  V30 27 1 12 27
M  V30 28 1 16 28
M  V30 29 1 17 29
M  V30 30 1 17 30
M  V30 31 1 18 31
M  V30 32 1 18 32
M  V30 33 1 18 33
M  V30 34 1 19 34
M  V30 35 1 19 35
M  V30 36 1 20 36
M  V30 37 1 20 37
M  V30 38 1 21 38
M  V30 39 1 21 39
M  V30 40 1 22 40
M  V30 41 1 22 41
M  V30 42 1 23 42
M  V30 43 1 23 43
M  V30 44 1 23 44
M  V30 END BOND
M  V30 BEGIN COLLECTION
M  V30 MDLV30/STEABS ATOMS=(1 16)
M  V30 END COLLECTION
M  V30 END CTAB
M  END
>  <Structure No>
6742

>  <LogS>
-6.43

>  <MMFF94 Energy>
76.941

$$$$
Compound 6743
Actelion Java MolfileCreator 2.0

  0  0  0  0  0  0              0 V3000
M  V30 BEGIN CTAB
M  V30 COUNTS 24 25 0 0 0
M  V30 BEGIN ATOM
M  V30 1 F -2.9877 2.1795 -1.9372 0
M  V30 2 C -2.7214 1.1144 -1.1397 0
M  V30 3 C -1.4893 0.4623 -1.2016 0
M  V30 4 C -3.6816 0.648 -0.2491 0
M  V30 5 O -0.6205 0.865 -2.0238 0
M  V30 6 N -1.2361 -0.6093 -0.3838 0
M  V30 7 N -3.4118 -0.4238 0.5378 0
M  V30 8 C -2.2063 -1.0538 0.4781 0
M  V30 9 C 0.0339 -1.289 -0.4481 0
M  V30 10 O -1.9895 -2.043 1.232 0
M  V30 11 O 0.0604 -2.5105 -0.7626 0
M  V30 12 C 1.3017 -0.5823 -0.1373 0
M  V30 13 C 1.2913 0.6407 0.5598 0
M  V30 14 C 2.5374 -1.138 -0.5184 0
M  V30 15 C 2.49 1.2975 0.8549 0
M  V30 16 C 3.7331 -0.4766 -0.2209 0
M  V30 17 C 3.7095 0.7405 0.4636 0
M  V30 18 H -4.6455 1.1377 -0.1868 0
M  V30 19 H -4.1452 -0.7644 1.2002 0
M  V30 20 H 0.36 1.085 0.8872 0
M  V30 21 H 2.5791 -2.0788 -1.0531 0
M  V30 22 H 2.4732 2.2377 1.3911 0
M  V30 23 H 4.6789 -0.9085 -0.5218 0
M  V30 24 H 4.6361 1.2503 0.6936 0
M  V30 END ATOM
M  V30 BEGIN BOND
M  V30 1 1 1 2
M  V30 2 1 2 3
M  V30 3 2 2 4
M  V30 4 2 3 5
M  V30 5 1 3 6
M  V30 6 1 4 7
M  V30 7 1 6 8
M  V30 8 1 6 9
M  V30 9 2 8 10
M  V30 10 2 9 11
M  V30 11 1 9 12
M  V30 12 2 12 13
M  V30 13 1 12 14
M  V30 14 1 13 15
M  V30 15 2 14 16
M  V30 16 2 15 17
M  V30 17 1 7 8
M  V30 18 1 16 17
M  V30 19 1 4 18
M  V30 20 1 7 19
M  V30 21 1 13 20
M  V30 22 1 14 21
M  V30 23 1 15 22
M  V30 24 1 16 23
M  V30 25 1 17 24
M  V30 END BOND
M  V30 END CTAB
M  END
>  <Structure No>
6743

>  <LogS>
-2.26

>  <MMFF94 Energy>
-10.722

$$$$
Compound 6744
Actelion Java MolfileCreator 2.0

  0  0  0  0  0  0              0 V3000
M  V30 BEGIN CTAB
M  V30 COUNTS 46 46 0 0 0
M  V30 BEGIN ATOM
M  V30 1 O 1.1879 0.0791 -0.871 0
M  V30 2 C 1.5464 -0.9622 -0.2551 0
M  V30 3 O 0.5812 -1.8902 0.1597 0
M  V30 4 C 2.9821 -1.2154 0.0334 0
M  V30 5 C -0.8189 -1.7111 -0.0523 0
M  V30 6 C 3.991 -0.274 -0.2918 0
M  V30 7 C 3.3514 -2.4306 0.6417 0
M  V30 8 C -1.3688 -0.6248 0.8347 0
M  V30 9 O 3.6375 0.952 -0.8791 0
M  V30 10 C 5.3333 -0.5628 0.0237 0
M  V30 11 C 4.6886 -2.707 0.9299 0
M  V30 12 O -0.7113 -0.2789 1.8548 0
M  V30 13 N -2.6363 0.0105 0.5536 0
M  V30 14 C 4.4367 1.6884 -1.763 0
M  V30 15 C 5.6769 -1.7737 0.6251 0
M  V30 16 C -3.6851 -0.6851 -0.2084 0
M  V30 17 C -2.9153 1.3418 1.1125 0
M  V30 18 O 5.4156 1.1559 -2.3527 0
M  V30 19 C 4.051 3.0887 -2.0987 0
M  V30 20 C -4.3834 -1.7234 0.6749 0
M  V30 21 C -2.1058 2.4094 0.3694 0
M  V30 22 C -5.477 -2.4583 -0.0941 0
M  V30 23 C -2.3934 3.8037 0.9182 0
M  V30 24 H -1.3368 -2.6634 0.1824 0
M  V30 25 H -0.9964 -1.4672 -1.1212 0
M  V30 26 H 2.6058 -3.1736 0.8959 0
M  V30 27 H 6.1151 0.1601 -0.1649 0
M  V30 28 H 4.958 -3.6449 1.3983 0
M  V30 29 H 6.7113 -1.9845 0.8644 0
M  V30 30 H -3.2566 -1.1695 -1.1097 0
M  V30 31 H -4.4395 0.0431 -0.5795 0
M  V30 32 H -2.6664 1.3555 2.1962 0
M  V30 33 H -3.9983 1.5827 1.0304 0
M  V30 34 H 3.4024 3.0878 -2.9992 0
M  V30 35 H 3.4962 3.5415 -1.2503 0
M  V30 36 H 4.9578 3.6975 -2.2995 0
M  V30 37 H -3.6436 -2.4647 1.0449 0
M  V30 38 H -4.8368 -1.2147 1.5534 0
M  V30 39 H -1.0194 2.1994 0.4736 0
M  V30 40 H -2.3657 2.3836 -0.711 0
M  V30 41 H -5.0422 -2.9937 -0.9649 0
M  V30 42 H -5.9649 -3.2008 0.5719 0
M  V30 43 H -6.2469 -1.7412 -0.4507 0
M  V30 44 H -2.122 3.858 1.9942 0
M  V30 45 H -1.7918 4.5533 0.362 0
M  V30 46 H -3.4694 4.0519 0.7978 0
M  V30 END ATOM
M  V30 BEGIN BOND
M  V30 1 2 1 2
M  V30 2 1 2 3
M  V30 3 1 2 4
M  V30 4 1 3 5
M  V30 5 2 4 6
M  V30 6 1 4 7
M  V30 7 1 5 8
M  V30 8 1 6 9
M  V30 9 1 6 10
M  V30 10 2 7 11
M  V30 11 2 8 12
M  V30 12 1 8 13
M  V30 13 1 9 14
M  V30 14 2 10 15
M  V30 15 1 13 16
M  V30 16 1 13 17
M  V30 17 2 14 18
M  V30 18 1 14 19
M  V30 19 1 16 20
M  V30 20 1 17 21
M  V30 21 1 20 22
M  V30 22 1 21 23
M  V30 23 1 11 15
M  V30 24 1 5 24
M  V30 25 1 5 25
M  V30 26 1 7 26
M  V30 27 1 10 27
M  V30 28 1 11 28
M  V30 29 1 15 29
M  V30 30 1 16 30
M  V30 31 1 16 31
M  V30 32 1 17 32
M  V30 33 1 17 33
M  V30 34 1 19 34
M  V30 35 1 19 35
M  V30 36 1 19 36
M  V30 37 1 20 37
M  V30 38 1 20 38
M  V30 39 1 21 39
M  V30 40 1 21 40
M  V30 41 1 22 41
M  V30 42 1 22 42
M  V30 43 1 22 43
M  V30 44 1 23 44
M  V30 45 1 23 45
M  V30 46 1 23 46
M  V30 END BOND
M  V30 END CTAB
M  END
>  <Structure No>
6744

>  <LogS>
-2.65

>  <MMFF94 Energy>
40.497

$$$$
Compound 6745
Actelion Java MolfileCreator 2.0

  0  0  0  0  0  0              0 V3000
M  V30 BEGIN CTAB
M  V30 COUNTS 37 38 0 0 0
M  V30 BEGIN ATOM
M  V30 1 N -1.8987 0.3162 0.7117 0
M  V30 2 C -1.9353 0.1739 -0.6405 0
M  V30 3 C -3.0231 0.6009 1.4205 0
M  V30 4 N -3.1143 0.3136 -1.3031 0
M  V30 5 N -0.7412 -0.1203 -1.3662 0
M  V30 6 C -4.2443 0.738 0.7531 0
M  V30 7 C -2.9533 0.728 2.9089 0
M  V30 8 C -4.2662 0.5966 -0.638 0
M  V30 9 N 0.4733 -0.2893 -0.6778 0
M  V30 10 C -5.5513 0.7222 -1.3923 0
M  V30 11 C 1.6281 -0.4833 -1.2484 0
M  V30 12 C 2.8199 -0.6965 -0.3896 0
M  V30 13 C 1.7648 -0.5505 -2.7476 0
M  V30 14 C 3.1102 0.1427 0.7192 0
M  V30 15 C 3.6761 -1.7769 -0.6727 0
M  V30 16 C 4.2272 -0.1418 1.5247 0
M  V30 17 C 2.2489 1.3295 1.0674 0
M  V30 18 C 4.7888 -2.0337 0.1298 0
M  V30 19 C 5.0615 -1.2205 1.2283 0
M  V30 20 H -0.801 -0.2233 -2.4036 0
M  V30 21 H -5.1545 0.95 1.3021 0
M  V30 22 H -1.8958 0.7713 3.2463 0
M  V30 23 H -3.4456 -0.1479 3.3805 0
M  V30 24 H -3.4671 1.6571 3.2359 0
M  V30 25 H -6.0615 1.6697 -1.1174 0
M  V30 26 H -5.3618 0.7266 -2.4868 0
M  V30 27 H -6.2129 -0.1346 -1.146 0
M  V30 28 H 1.3155 0.3523 -3.2118 0
M  V30 29 H 1.2599 -1.4617 -3.1307 0
M  V30 30 H 2.8326 -0.5792 -3.0505 0
M  V30 31 H 3.4712 -2.438 -1.5058 0
M  V30 32 H 4.4586 0.4771 2.383 0
M  V30 33 H 1.9811 1.8961 0.1507 0
M  V30 34 H 2.7805 2.0298 1.7466 0
M  V30 35 H 1.324 0.9841 1.5751 0
M  V30 36 H 5.4358 -2.8717 -0.0954 0
M  V30 37 H 5.9214 -1.4263 1.8525 0
M  V30 END ATOM
M  V30 BEGIN BOND
M  V30 1 2 1 2
M  V30 2 1 1 3
M  V30 3 1 2 4
M  V30 4 1 2 5
M  V30 5 2 3 6
M  V30 6 1 3 7
M  V30 7 2 4 8
M  V30 8 1 5 9
M  V30 9 1 8 10
M  V30 10 2 9 11
M  V30 11 1 11 12
M  V30 12 1 11 13
M  V30 13 2 12 14
M  V30 14 1 12 15
M  V30 15 1 14 16
M  V30 16 1 14 17
M  V30 17 2 15 18
M  V30 18 2 16 19
M  V30 19 1 6 8
M  V30 20 1 18 19
M  V30 21 1 5 20
M  V30 22 1 6 21
M  V30 23 1 7 22
M  V30 24 1 7 23
M  V30 25 1 7 24
M  V30 26 1 10 25
M  V30 27 1 10 26
M  V30 28 1 10 27
M  V30 29 1 13 28
M  V30 30 1 13 29
M  V30 31 1 13 30
M  V30 32 1 15 31
M  V30 33 1 16 32
M  V30 34 1 17 33
M  V30 35 1 17 34
M  V30 36 1 17 35
M  V30 37 1 18 36
M  V30 38 1 19 37
M  V30 END BOND
M  V30 END CTAB
M  END
>  <Structure No>
6745

>  <LogS>
-3.2

>  <MMFF94 Energy>
38.688

$$$$
Compound 6746
Actelion Java MolfileCreator 2.0

  0  0  0  0  0  0              0 V3000
M  V30 BEGIN CTAB
M  V30 COUNTS 35 35 0 0 0
M  V30 BEGIN ATOM
M  V30 1 O -1.3552 -0.8767 -1.2755 0
M  V30 2 C -0.8039 -0.5745 -0.1814 0
M  V30 3 O 0.5924 -0.537 -0.0972 0
M  V30 4 C -1.621 -0.2573 1.0189 0
M  V30 5 C 1.4398 -0.8243 -1.2036 0
M  V30 6 C -3.0385 -0.2546 0.9847 0
M  V30 7 C -0.9663 0.0631 2.2239 0
M  V30 8 C 2.8652 -0.6699 -0.7833 0
M  V30 9 O -3.7088 -0.5795 -0.2061 0
M  V30 10 C -3.7577 0.0343 2.1612 0
M  V30 11 C -1.6959 0.3671 3.3743 0
M  V30 12 O 3.5488 -1.6941 -0.5127 0
M  V30 13 N 3.4329 0.6398 -0.6439 0
M  V30 14 C -4.9554 -0.0742 -0.5975 0
M  V30 15 C -3.0884 0.3478 3.3443 0
M  V30 16 C 4.8174 0.8556 -0.2326 0
M  V30 17 O -5.4378 0.9579 -0.0572 0
M  V30 18 C -5.6639 -0.6972 -1.7515 0
M  V30 19 C 5.7504 0.5066 -1.3518 0
M  V30 20 O 5.836 1.2678 -2.3521 0
M  V30 21 N 6.5221 -0.6936 -1.3082 0
M  V30 22 H 1.2236 -0.1214 -2.037 0
M  V30 23 H 1.2576 -1.8631 -1.5564 0
M  V30 24 H 0.1147 0.0789 2.2816 0
M  V30 25 H -4.8383 -0.0093 2.1753 0
M  V30 26 H -1.1792 0.6102 4.2939 0
M  V30 27 H 2.829 1.4748 -0.8196 0
M  V30 28 H -3.6513 0.5689 4.2424 0
M  V30 29 H 4.9606 1.9257 0.0313 0
M  V30 30 H 5.0418 0.2547 0.6751 0
M  V30 31 H -5.4025 -1.7741 -1.8183 0
M  V30 32 H -6.763 -0.6037 -1.6214 0
M  V30 33 H -5.3608 -0.188 -2.6895 0
M  V30 34 H 7.1612 -0.9369 -2.0974 0
M  V30 35 H 6.4576 -1.3421 -0.4925 0
M  V30 END ATOM
M  V30 BEGIN BOND
M  V30 1 2 1 2
M  V30 2 1 2 3
M  V30 3 1 2 4
M  V30 4 1 3 5
M  V30 5 2 4 6
M  V30 6 1 4 7
M  V30 7 1 5 8
M  V30 8 1 6 9
M  V30 9 1 6 10
M  V30 10 2 7 11
M  V30 11 2 8 12
M  V30 12 1 8 13
M  V30 13 1 9 14
M  V30 14 2 10 15
M  V30 15 1 13 16
M  V30 16 2 14 17
M  V30 17 1 14 18
M  V30 18 1 16 19
M  V30 19 2 19 20
M  V30 20 1 19 21
M  V30 21 1 11 15
M  V30 22 1 5 22
M  V30 23 1 5 23
M  V30 24 1 7 24
M  V30 25 1 10 25
M  V30 26 1 11 26
M  V30 27 1 13 27
M  V30 28 1 15 28
M  V30 29 1 16 29
M  V30 30 1 16 30
M  V30 31 1 18 31
M  V30 32 1 18 32
M  V30 33 1 18 33
M  V30 34 1 21 34
M  V30 35 1 21 35
M  V30 END BOND
M  V30 END CTAB
M  END
>  <Structure No>
6746

>  <LogS>
-2.52

>  <MMFF94 Energy>
34.619

$$$$
Compound 6747
Actelion Java MolfileCreator 2.0

  0  0  0  0  0  0              0 V3000
M  V30 BEGIN CTAB
M  V30 COUNTS 39 39 0 0 0
M  V30 BEGIN ATOM
M  V30 1 S 3.1381 -1.4474 0.2411 0
M  V30 2 O 3.5593 -2.1081 -1.0432 0
M  V30 3 O 2.8838 -2.5163 1.2675 0
M  V30 4 N 4.3934 -0.3734 0.8056 0
M  V30 5 C 1.6464 -0.5438 -0.0102 0
M  V30 6 C 4.6532 0.654 -0.2108 0
M  V30 7 C 5.6146 -1.1465 1.0624 0
M  V30 8 C 1.2187 -0.2173 -1.3044 0
M  V30 9 C 0.8941 -0.1229 1.0935 0
M  V30 10 C 0.0423 0.5137 -1.4928 0
M  V30 11 C -0.2821 0.6078 0.9063 0
M  V30 12 C -0.7208 0.9276 -0.3888 0
M  V30 13 N -1.9338 1.6821 -0.5799 0
M  V30 14 C -3.1723 1.2826 0.046 0
M  V30 15 C -1.9302 2.8362 -1.484 0
M  V30 16 O -4.0806 2.139 0.2304 0
M  V30 17 C -3.4017 -0.1346 0.5114 0
M  V30 18 C -4.7952 -0.6381 0.1149 0
M  V30 19 C -5.0007 -2.0875 0.5459 0
M  V30 20 H 5.4541 1.3416 0.1366 0
M  V30 21 H 3.7432 1.2694 -0.3714 0
M  V30 22 H 4.9615 0.2001 -1.1785 0
M  V30 23 H 6.4171 -0.4777 1.4415 0
M  V30 24 H 5.4245 -1.9078 1.8483 0
M  V30 25 H 5.974 -1.6565 0.141 0
M  V30 26 H 1.7947 -0.5239 -2.1677 0
M  V30 27 H 1.2213 -0.3566 2.0988 0
M  V30 28 H -0.28 0.7492 -2.4991 0
M  V30 29 H -0.8486 0.9333 1.7697 0
M  V30 30 H -2.4701 3.6905 -1.0236 0
M  V30 31 H -0.8925 3.1728 -1.6955 0
M  V30 32 H -2.4235 2.5616 -2.4398 0
M  V30 33 H -3.2903 -0.1689 1.6165 0
M  V30 34 H -2.6449 -0.8118 0.0615 0
M  V30 35 H -5.5761 -0.01 0.5968 0
M  V30 36 H -4.9173 -0.5693 -0.9882 0
M  V30 37 H -4.9008 -2.1799 1.6484 0
M  V30 38 H -6.018 -2.4221 0.2521 0
M  V30 39 H -4.2545 -2.7466 0.0531 0
M  V30 END ATOM
M  V30 BEGIN BOND
M  V30 1 2 1 2
M  V30 2 2 1 3
M  V30 3 1 1 4
M  V30 4 1 1 5
M  V30 5 1 4 6
M  V30 6 1 4 7
M  V30 7 2 5 8
M  V30 8 1 5 9
M  V30 9 1 8 10
M  V30 10 2 9 11
M  V30 11 2 10 12
M  V30 12 1 12 13
M  V30 13 1 13 14
M  V30 14 1 13 15
M  V30 15 2 14 16
M  V30 16 1 14 17
M  V30 17 1 17 18
M  V30 18 1 18 19
M  V30 19 1 11 12
M  V30 20 1 6 20
M  V30 21 1 6 21
M  V30 22 1 6 22
M  V30 23 1 7 23
M  V30 24 1 7 24
M  V30 25 1 7 25
M  V30 26 1 8 26
M  V30 27 1 9 27
M  V30 28 1 10 28
M  V30 29 1 11 29
M  V30 30 1 15 30
M  V30 31 1 15 31
M  V30 32 1 15 32
M  V30 33 1 17 33
M  V30 34 1 17 34
M  V30 35 1 18 35
M  V30 36 1 18 36
M  V30 37 1 19 37
M  V30 38 1 19 38
M  V30 39 1 19 39
M  V30 END BOND
M  V30 END CTAB
M  END
>  <Structure No>
6747

>  <LogS>
-2.16

>  <MMFF94 Energy>
-20.017

$$$$
Compound 6748
Actelion Java MolfileCreator 2.0

  0  0  0  0  0  0              0 V3000
M  V30 BEGIN CTAB
M  V30 COUNTS 50 51 0 0 0
M  V30 BEGIN ATOM
M  V30 1 Cl 3.085 5.0665 0.316 0
M  V30 2 C 2.8006 3.3386 0.2177 0
M  V30 3 C 2.9148 2.6809 -1.0083 0
M  V30 4 C 2.4599 2.6217 1.3656 0
M  V30 5 C 2.684 1.2993 -1.0968 0
M  V30 6 C 2.2284 1.246 1.2958 0
M  V30 7 N 2.7904 0.6672 -2.3004 0 CHG=1
M  V30 8 C 2.3316 0.5641 0.0659 0
M  V30 9 C 2.5674 -0.6659 -2.4251 0
M  V30 10 C 2.07 -0.8218 -0.0587 0
M  V30 11 C 2.208 -1.4275 -1.3162 0
M  V30 12 N 1.648 -1.6147 1.0675 0
M  V30 13 C 0.533 -2.5668 0.9841 0 CFG=2
M  V30 14 C -0.6602 -2.0991 1.8473 0
M  V30 15 C 1.0111 -3.9502 1.4284 0
M  V30 16 C -1.0894 -0.6384 1.6114 0
M  V30 17 C -1.5127 -0.3428 0.1562 0
M  V30 18 N -1.869 1.0896 -0.0438 0 CHG=1
M  V30 19 C -1.5315 1.5419 -1.4213 0
M  V30 20 C -3.2863 1.3388 0.3297 0
M  V30 21 C -2.3505 0.864 -2.5292 0
M  V30 22 C -3.6602 2.8252 0.3078 0
M  V30 23 H 3.1801 3.2467 -1.8932 0
M  V30 24 H 2.3726 3.1311 2.317 0
M  V30 25 H 1.9683 0.7354 2.2107 0
M  V30 26 H 3.051 1.2073 -3.1569 0
M  V30 27 H 2.6679 -1.142 -3.3923 0
M  V30 28 H 2.0475 -2.4906 -1.439 0
M  V30 29 H 2.0862 -1.456 2.0022 0
M  V30 30 H 0.1793 -2.6689 -0.0636 0
M  V30 31 H -1.5306 -2.7644 1.6558 0
M  V30 32 H -0.3949 -2.2033 2.9226 0
M  V30 33 H 0.1828 -4.6864 1.3502 0
M  V30 34 H 1.8434 -4.2877 0.775 0
M  V30 35 H 1.3717 -3.9212 2.4789 0
M  V30 36 H -1.9389 -0.4241 2.2927 0
M  V30 37 H -0.2635 0.0371 1.908 0
M  V30 38 H -0.6682 -0.6184 -0.5076 0
M  V30 39 H -2.3619 -1.008 -0.1199 0
M  V30 40 H -1.2703 1.6662 0.595 0
M  V30 41 H -0.4517 1.3559 -1.6211 0
M  V30 42 H -1.6501 2.6431 -1.5087 0
M  V30 43 H -3.9829 0.7717 -0.3243 0
M  V30 44 H -3.4686 0.981 1.3659 0
M  V30 45 H -3.4089 1.1941 -2.4984 0
M  V30 46 H -1.937 1.157 -3.5171 0
M  V30 47 H -2.3003 -0.2409 -2.4501 0
M  V30 48 H -2.9089 3.4256 0.8628 0
M  V30 49 H -3.7407 3.1969 -0.7343 0
M  V30 50 H -4.6498 2.964 0.7922 0
M  V30 END ATOM
M  V30 BEGIN BOND
M  V30 1 1 1 2
M  V30 2 2 2 3
M  V30 3 1 2 4
M  V30 4 1 3 5
M  V30 5 2 4 6
M  V30 6 2 5 7
M  V30 7 1 5 8
M  V30 8 1 7 9
M  V30 9 2 8 10
M  V30 10 2 9 11
M  V30 11 1 10 12
M  V30 12 1 12 13
M  V30 13 1 13 14
M  V30 14 1 13 15
M  V30 15 1 14 16
M  V30 16 1 16 17
M  V30 17 1 17 18
M  V30 18 1 18 19
M  V30 19 1 18 20
M  V30 20 1 19 21
M  V30 21 1 20 22
M  V30 22 1 6 8
M  V30 23 1 10 11
M  V30 24 1 3 23
M  V30 25 1 4 24
M  V30 26 1 6 25
M  V30 27 1 7 26
M  V30 28 1 9 27
M  V30 29 1 11 28
M  V30 30 1 12 29
M  V30 31 1 13 30
M  V30 32 1 14 31
M  V30 33 1 14 32
M  V30 34 1 15 33
M  V30 35 1 15 34
M  V30 36 1 15 35
M  V30 37 1 16 36
M  V30 38 1 16 37
M  V30 39 1 17 38
M  V30 40 1 17 39
M  V30 41 1 18 40
M  V30 42 1 19 41
M  V30 43 1 19 42
M  V30 44 1 20 43
M  V30 45 1 20 44
M  V30 46 1 21 45
M  V30 47 1 21 46
M  V30 48 1 21 47
M  V30 49 1 22 48
M  V30 50 1 22 49
M  V30 51 1 22 50
M  V30 END BOND
M  V30 BEGIN COLLECTION
M  V30 MDLV30/STEABS ATOMS=(1 13)
M  V30 END COLLECTION
M  V30 END CTAB
M  END
>  <Structure No>
6748

>  <LogS>
-2.83

>  <MMFF94 Energy>
93.094

$$$$
Compound 6749
Actelion Java MolfileCreator 2.0

  0  0  0  0  0  0              0 V3000
M  V30 BEGIN CTAB
M  V30 COUNTS 43 43 0 0 0
M  V30 BEGIN ATOM
M  V30 1 O 1.0302 1.0302 -1.3474 0
M  V30 2 C 1.2428 0.2225 -0.402 0
M  V30 3 O 0.1648 -0.429 0.2125 0
M  V30 4 C 2.626 -0.0407 0.0735 0
M  V30 5 C -1.1942 -0.2882 -0.2073 0 CFG=2
M  V30 6 C 3.7568 0.5629 -0.5315 0
M  V30 7 C 2.8192 -0.9285 1.1497 0
M  V30 8 C -2.1081 -0.8097 0.8763 0
M  V30 9 C -1.427 -1.0812 -1.4957 0
M  V30 10 O 3.5822 1.459 -1.599 0
M  V30 11 C 5.0418 0.2869 -0.0243 0
M  V30 12 C 4.1015 -1.2036 1.6267 0
M  V30 13 O -1.6561 -1.6793 1.6719 0
M  V30 14 N -3.4987 -0.4132 0.9725 0
M  V30 15 C 4.492 1.6612 -2.6446 0
M  V30 16 C 5.2098 -0.5941 1.044 0
M  V30 17 C -4.0038 0.8123 0.3333 0
M  V30 18 C -4.4287 -1.2349 1.7617 0
M  V30 19 O 5.4012 0.822 -2.8868 0
M  V30 20 C 4.3068 2.8273 -3.5549 0
M  V30 21 C -3.6118 2.0409 1.148 0
M  V30 22 C -4.7952 -2.504 1.0002 0
M  V30 23 H -1.3967 0.7865 -0.3901 0
M  V30 24 H 1.9775 -1.4121 1.6289 0
M  V30 25 H -0.7965 -0.6777 -2.3151 0
M  V30 26 H -1.1687 -2.1508 -1.3414 0
M  V30 27 H -2.4901 -1.0099 -1.8099 0
M  V30 28 H 5.9156 0.775 -0.4336 0
M  V30 29 H 4.2347 -1.8857 2.4565 0
M  V30 30 H 6.2017 -0.7977 1.4264 0
M  V30 31 H -5.1126 0.7831 0.2546 0
M  V30 32 H -3.6308 0.8986 -0.7074 0
M  V30 33 H -5.3615 -0.6732 1.9868 0
M  V30 34 H -3.973 -1.4979 2.7406 0
M  V30 35 H 3.853 3.6728 -2.9964 0
M  V30 36 H 3.6361 2.5405 -4.3913 0
M  V30 37 H 5.2863 3.1532 -3.9644 0
M  V30 38 H -4.0511 1.9749 2.1659 0
M  V30 39 H -3.9961 2.9563 0.6512 0
M  V30 40 H -2.5086 2.1194 1.2368 0
M  V30 41 H -5.5183 -3.1008 1.5949 0
M  V30 42 H -3.8904 -3.1203 0.8157 0
M  V30 43 H -5.261 -2.2405 0.0272 0
M  V30 END ATOM
M  V30 BEGIN BOND
M  V30 1 2 1 2
M  V30 2 1 2 3
M  V30 3 1 2 4
M  V30 4 1 3 5
M  V30 5 2 4 6
M  V30 6 1 4 7
M  V30 7 1 5 8
M  V30 8 1 5 9
M  V30 9 1 6 10
M  V30 10 1 6 11
M  V30 11 2 7 12
M  V30 12 2 8 13
M  V30 13 1 8 14
M  V30 14 1 10 15
M  V30 15 2 11 16
M  V30 16 1 14 17
M  V30 17 1 14 18
M  V30 18 2 15 19
M  V30 19 1 15 20
M  V30 20 1 17 21
M  V30 21 1 18 22
M  V30 22 1 12 16
M  V30 23 1 5 23
M  V30 24 1 7 24
M  V30 25 1 9 25
M  V30 26 1 9 26
M  V30 27 1 9 27
M  V30 28 1 11 28
M  V30 29 1 12 29
M  V30 30 1 16 30
M  V30 31 1 17 31
M  V30 32 1 17 32
M  V30 33 1 18 33
M  V30 34 1 18 34
M  V30 35 1 20 35
M  V30 36 1 20 36
M  V30 37 1 20 37
M  V30 38 1 21 38
M  V30 39 1 21 39
M  V30 40 1 21 40
M  V30 41 1 22 41
M  V30 42 1 22 42
M  V30 43 1 22 43
M  V30 END BOND
M  V30 BEGIN COLLECTION
M  V30 MDLV30/STEABS ATOMS=(1 5)
M  V30 END COLLECTION
M  V30 END CTAB
M  END
>  <Structure No>
6749

>  <LogS>
-1.6

>  <MMFF94 Energy>
44.327

$$$$
Compound 6750
Actelion Java MolfileCreator 2.0

  0  0  0  0  0  0              0 V3000
M  V30 BEGIN CTAB
M  V30 COUNTS 46 46 0 0 0
M  V30 BEGIN ATOM
M  V30 1 O -2.1402 1.2678 0.5545 0
M  V30 2 C -1.9881 0.0221 0.4203 0
M  V30 3 O -0.6997 -0.5244 0.4389 0
M  V30 4 C -3.1627 -0.8713 0.2466 0
M  V30 5 C 0.4709 0.2656 0.6249 0
M  V30 6 C -4.4823 -0.3653 0.1375 0
M  V30 7 C -2.9592 -2.2639 0.2017 0
M  V30 8 C 1.6911 -0.6086 0.5703 0
M  V30 9 O -4.7026 1.0211 0.1607 0
M  V30 10 C -5.5542 -1.2616 -0.0405 0
M  V30 11 C -4.036 -3.1377 0.0439 0
M  V30 12 O 1.6127 -1.7822 1.0264 0
M  V30 13 N 2.9489 -0.1284 0.0356 0
M  V30 14 C -5.8446 1.6493 0.6741 0
M  V30 15 C -5.3301 -2.6376 -0.0816 0
M  V30 16 C 3.8181 -1.1364 -0.629 0
M  V30 17 C 3.3176 1.2954 0.2673 0
M  V30 18 O -6.6408 1.0328 1.4333 0
M  V30 19 C -6.0583 3.1 0.4034 0
M  V30 20 C 4.4762 -0.6331 -1.9182 0
M  V30 21 C 4.8484 -1.7315 0.3399 0
M  V30 22 C 4.6907 1.4647 0.927 0
M  V30 23 C 3.1865 2.1451 -1.0045 0
M  V30 24 H 0.4273 0.7667 1.6157 0
M  V30 25 H 0.5184 1.0341 -0.1745 0
M  V30 26 H -1.965 -2.6829 0.2916 0
M  V30 27 H -6.5631 -0.8976 -0.1792 0
M  V30 28 H -3.8652 -4.2057 0.0124 0
M  V30 29 H -6.1611 -3.3171 -0.2203 0
M  V30 30 H 3.1775 -1.9869 -0.9581 0
M  V30 31 H 2.6065 1.7343 1.0012 0
M  V30 32 H -5.353 3.6982 1.0178 0
M  V30 33 H -7.1011 3.3937 0.6522 0
M  V30 34 H -5.8736 3.3093 -0.671 0
M  V30 35 H 3.7131 -0.1825 -2.5872 0
M  V30 36 H 5.2824 0.097 -1.713 0
M  V30 37 H 4.9355 -1.488 -2.4593 0
M  V30 38 H 5.6979 -1.0428 0.516 0
M  V30 39 H 4.3691 -1.9711 1.3124 0
M  V30 40 H 5.2614 -2.6721 -0.0833 0
M  V30 41 H 4.7682 0.807 1.8185 0
M  V30 42 H 4.8148 2.5151 1.2672 0
M  V30 43 H 5.5154 1.2444 0.2232 0
M  V30 44 H 3.0911 3.2172 -0.7288 0
M  V30 45 H 4.0735 2.0519 -1.6604 0
M  V30 46 H 2.2819 1.8526 -1.5776 0
M  V30 END ATOM
M  V30 BEGIN BOND
M  V30 1 2 1 2
M  V30 2 1 2 3
M  V30 3 1 2 4
M  V30 4 1 3 5
M  V30 5 2 4 6
M  V30 6 1 4 7
M  V30 7 1 5 8
M  V30 8 1 6 9
M  V30 9 1 6 10
M  V30 10 2 7 11
M  V30 11 2 8 12
M  V30 12 1 8 13
M  V30 13 1 9 14
M  V30 14 2 10 15
M  V30 15 1 13 16
M  V30 16 1 13 17
M  V30 17 2 14 18
M  V30 18 1 14 19
M  V30 19 1 16 20
M  V30 20 1 16 21
M  V30 21 1 17 22
M  V30 22 1 17 23
M  V30 23 1 11 15
M  V30 24 1 5 24
M  V30 25 1 5 25
M  V30 26 1 7 26
M  V30 27 1 10 27
M  V30 28 1 11 28
M  V30 29 1 15 29
M  V30 30 1 16 30
M  V30 31 1 17 31
M  V30 32 1 19 32
M  V30 33 1 19 33
M  V30 34 1 19 34
M  V30 35 1 20 35
M  V30 36 1 20 36
M  V30 37 1 20 37
M  V30 38 1 21 38
M  V30 39 1 21 39
M  V30 40 1 21 40
M  V30 41 1 22 41
M  V30 42 1 22 42
M  V30 43 1 22 43
M  V30 44 1 23 44
M  V30 45 1 23 45
M  V30 46 1 23 46
M  V30 END BOND
M  V30 END CTAB
M  END
>  <Structure No>
6750

>  <LogS>
-3.25

>  <MMFF94 Energy>
51.773

$$$$
Compound 6751
Actelion Java MolfileCreator 2.0

  0  0  0  0  0  0              0 V3000
M  V30 BEGIN CTAB
M  V30 COUNTS 32 33 0 0 0
M  V30 BEGIN ATOM
M  V30 1 O 1.985 -2.3824 -3.0184 0
M  V30 2 C 1.6032 -1.7854 -1.9779 0
M  V30 3 N 2.403 -0.8595 -1.3726 0
M  V30 4 C 0.365 -2.0417 -1.4103 0
M  V30 5 C 2.0052 -0.194 -0.2367 0
M  V30 6 N -0.6007 -2.8902 -1.8118 0
M  V30 7 C -0.0129 -1.3814 -0.293 0
M  V30 8 N 0.7765 -0.459 0.3129 0
M  V30 9 N 2.865 0.7773 0.3836 0
M  V30 10 C -1.5723 -2.7013 -0.8761 0
M  V30 11 N -1.2387 -1.7835 0.0669 0
M  V30 12 C 4.1635 1.1477 -0.1072 0
M  V30 13 C -2.0519 -1.3252 1.1923 0
M  V30 14 O 4.6256 0.6433 -1.1659 0
M  V30 15 C 4.9707 2.1655 0.6316 0
M  V30 16 O -2.339 0.0529 1.0642 0
M  V30 17 C -3.4067 0.2461 0.159 0
M  V30 18 C -3.6324 1.741 -0.0482 0
M  V30 19 O -4.044 2.3474 1.1472 0
M  V30 20 H 0.4556 0.0352 1.1753 0
M  V30 21 H 2.5237 1.2478 1.2521 0
M  V30 22 H -2.5177 -3.2282 -0.8909 0
M  V30 23 H -1.4747 -1.4736 2.1291 0
M  V30 24 H -2.9737 -1.945 1.2928 0
M  V30 25 H 4.4772 3.1565 0.5537 0
M  V30 26 H 5.9949 2.2365 0.2075 0
M  V30 27 H 5.046 1.8778 1.7012 0
M  V30 28 H -3.1761 -0.2055 -0.8324 0
M  V30 29 H -4.3453 -0.202 0.5574 0
M  V30 30 H -4.429 1.8833 -0.8089 0
M  V30 31 H -2.7033 2.2194 -0.4351 0
M  V30 32 H -3.224 2.5093 1.6829 0
M  V30 END ATOM
M  V30 BEGIN BOND
M  V30 1 2 1 2
M  V30 2 1 2 3
M  V30 3 1 2 4
M  V30 4 2 3 5
M  V30 5 1 4 6
M  V30 6 2 4 7
M  V30 7 1 5 8
M  V30 8 1 5 9
M  V30 9 2 6 10
M  V30 10 1 7 11
M  V30 11 1 9 12
M  V30 12 1 11 13
M  V30 13 2 12 14
M  V30 14 1 12 15
M  V30 15 1 13 16
M  V30 16 1 16 17
M  V30 17 1 17 18
M  V30 18 1 18 19
M  V30 19 1 7 8
M  V30 20 1 10 11
M  V30 21 1 8 20
M  V30 22 1 9 21
M  V30 23 1 10 22
M  V30 24 1 13 23
M  V30 25 1 13 24
M  V30 26 1 15 25
M  V30 27 1 15 26
M  V30 28 1 15 27
M  V30 29 1 17 28
M  V30 30 1 17 29
M  V30 31 1 18 30
M  V30 32 1 18 31
M  V30 33 1 19 32
M  V30 END BOND
M  V30 END CTAB
M  END
>  <Structure No>
6751

>  <LogS>
-1.92

>  <MMFF94 Energy>
9.7822

$$$$
Compound 6752
Actelion Java MolfileCreator 2.0

  0  0  0  0  0  0              0 V3000
M  V30 BEGIN CTAB
M  V30 COUNTS 29 30 0 0 0
M  V30 BEGIN ATOM
M  V30 1 Cl -4.24 -2.1183 -2.1183 0
M  V30 2 C -3.2032 -1.1273 -1.0947 0
M  V30 3 C -1.8021 -1.0549 -1.2836 0
M  V30 4 C -3.813 -0.388 -0.0765 0
M  V30 5 C -1.0382 -0.1874 -0.4617 0
M  V30 6 C -1.1298 -1.8626 -2.3678 0
M  V30 7 C -3.0536 0.4395 0.7466 0
M  V30 8 N 0.3736 -0.0085 -0.6865 0
M  V30 9 C -1.6784 0.5478 0.5513 0
M  V30 10 C 1.3178 0.2215 0.3741 0
M  V30 11 C 2.4041 1.1184 0.2073 0
M  V30 12 C 1.2145 -0.5245 1.5622 0
M  V30 13 C 2.5354 1.9831 -0.9905 0
M  V30 14 C 3.365 1.2251 1.2311 0
M  V30 15 C 2.1687 -0.392 2.5709 0
M  V30 16 O 3.6608 2.4431 -1.3204 0
M  V30 17 O 1.4204 2.3385 -1.7403 0 CHG=-1
M  V30 18 C 3.2448 0.477 2.4035 0
M  V30 19 H -4.8838 -0.4487 0.0734 0
M  V30 20 H -0.1333 -2.2181 -2.0317 0
M  V30 21 H -1.0108 -1.2371 -3.2769 0
M  V30 22 H -1.7067 -2.7727 -2.6271 0
M  V30 23 H -3.5352 1.0138 1.5276 0
M  V30 24 H 0.7399 -0.0718 -1.6623 0
M  V30 25 H -1.1134 1.2256 1.1785 0
M  V30 26 H 0.4043 -1.2303 1.696 0
M  V30 27 H 4.202 1.9057 1.1342 0
M  V30 28 H 2.0801 -0.974 3.4792 0
M  V30 29 H 3.9865 0.5747 3.1857 0
M  V30 END ATOM
M  V30 BEGIN BOND
M  V30 1 1 1 2
M  V30 2 2 2 3
M  V30 3 1 2 4
M  V30 4 1 3 5
M  V30 5 1 3 6
M  V30 6 2 4 7
M  V30 7 1 5 8
M  V30 8 2 5 9
M  V30 9 1 8 10
M  V30 10 2 10 11
M  V30 11 1 10 12
M  V30 12 1 11 13
M  V30 13 1 11 14
M  V30 14 2 12 15
M  V30 15 2 13 16
M  V30 16 1 13 17
M  V30 17 2 14 18
M  V30 18 1 7 9
M  V30 19 1 15 18
M  V30 20 1 4 19
M  V30 21 1 6 20
M  V30 22 1 6 21
M  V30 23 1 6 22
M  V30 24 1 7 23
M  V30 25 1 8 24
M  V30 26 1 9 25
M  V30 27 1 12 26
M  V30 28 1 14 27
M  V30 29 1 15 28
M  V30 30 1 18 29
M  V30 END BOND
M  V30 END CTAB
M  END
>  <Structure No>
6752

>  <LogS>
-5.06

>  <MMFF94 Energy>
46.183

$$$$
Compound 6753
Actelion Java MolfileCreator 2.0

  0  0  0  0  0  0              0 V3000
M  V30 BEGIN CTAB
M  V30 COUNTS 32 33 0 0 0
M  V30 BEGIN ATOM
M  V30 1 O 2.0743 -1.9945 0.3986 0
M  V30 2 C 1.3025 -1.0045 0.2677 0
M  V30 3 C 1.8274 0.289 0.0747 0
M  V30 4 C -0.0891 -1.1939 0.3111 0
M  V30 5 C 3.2929 0.543 0.0103 0
M  V30 6 C 0.9303 1.3629 -0.063 0
M  V30 7 C -0.9458 -0.0794 0.1685 0
M  V30 8 C -0.6587 -2.4674 0.4887 0
M  V30 9 O 3.7216 1.7187 -0.1571 0
M  V30 10 O 4.2032 -0.5124 0.1336 0
M  V30 11 N -0.423 1.1771 -0.0018 0
M  V30 12 N -2.2966 -0.2677 0.1994 0
M  V30 13 C -2.0447 -2.6175 0.5167 0
M  V30 14 C 5.6121 -0.324 0.079 0
M  V30 15 C -1.3032 2.3458 -0.1768 0
M  V30 16 C -2.8611 -1.4933 0.3652 0
M  V30 17 C -1.6918 2.5059 -1.6429 0
M  V30 18 C -4.3497 -1.6295 0.3955 0
M  V30 19 H 1.3211 2.3616 -0.2227 0
M  V30 20 H -0.0372 -3.3469 0.6037 0
M  V30 21 H -2.4783 -3.6005 0.6535 0
M  V30 22 H 5.8999 0.1091 -0.9022 0
M  V30 23 H 6.1157 -1.3047 0.2007 0
M  V30 24 H 5.9373 0.3517 0.8981 0
M  V30 25 H -2.2203 2.2469 0.4439 0
M  V30 26 H -0.7965 3.2746 0.1678 0
M  V30 27 H -2.2406 1.6072 -1.9955 0
M  V30 28 H -2.3474 3.3944 -1.7609 0
M  V30 29 H -0.7826 2.6456 -2.2651 0
M  V30 30 H -4.6785 -2.3417 -0.3903 0
M  V30 31 H -4.671 -2.0061 1.3893 0
M  V30 32 H -4.8353 -0.6476 0.2112 0
M  V30 END ATOM
M  V30 BEGIN BOND
M  V30 1 2 1 2
M  V30 2 1 2 3
M  V30 3 1 2 4
M  V30 4 1 3 5
M  V30 5 2 3 6
M  V30 6 2 4 7
M  V30 7 1 4 8
M  V30 8 2 5 9
M  V30 9 1 5 10
M  V30 10 1 6 11
M  V30 11 1 7 12
M  V30 12 2 8 13
M  V30 13 1 10 14
M  V30 14 1 11 15
M  V30 15 2 12 16
M  V30 16 1 15 17
M  V30 17 1 16 18
M  V30 18 1 7 11
M  V30 19 1 13 16
M  V30 20 1 6 19
M  V30 21 1 8 20
M  V30 22 1 13 21
M  V30 23 1 14 22
M  V30 24 1 14 23
M  V30 25 1 14 24
M  V30 26 1 15 25
M  V30 27 1 15 26
M  V30 28 1 17 27
M  V30 29 1 17 28
M  V30 30 1 17 29
M  V30 31 1 18 30
M  V30 32 1 18 31
M  V30 33 1 18 32
M  V30 END BOND
M  V30 END CTAB
M  END
>  <Structure No>
6753

>  <LogS>
-2.7

>  <MMFF94 Energy>
19.116

$$$$
Compound 6754
Actelion Java MolfileCreator 2.0

  0  0  0  0  0  0              0 V3000
M  V30 BEGIN CTAB
M  V30 COUNTS 28 29 0 0 0
M  V30 BEGIN ATOM
M  V30 1 F 4.7563 -0.4024 2.0133 0
M  V30 2 C 4.0383 -0.5731 0.8746 0
M  V30 3 C 4.4929 -1.4102 -0.1378 0
M  V30 4 C 2.8281 0.0927 0.6987 0
M  V30 5 O 5.585 -2.0254 -0.0078 0
M  V30 6 N 3.7547 -1.5632 -1.2672 0
M  V30 7 N 2.0983 -0.0693 -0.4478 0
M  V30 8 C 2.5703 -0.9097 -1.4311 0
M  V30 9 C 0.8476 0.6482 -0.5839 0
M  V30 10 O 1.9149 -1.0972 -2.4928 0
M  V30 11 O 0.2624 0.7151 -1.7006 0
M  V30 12 O 0.2838 1.2872 0.5299 0
M  V30 13 C -0.9679 1.9697 0.4954 0
M  V30 14 C -2.0998 0.9842 0.3914 0
M  V30 15 C -2.3733 0.1165 1.4612 0
M  V30 16 C -2.8736 0.9018 -0.7783 0
M  V30 17 C -3.4119 -0.815 1.3646 0
M  V30 18 C -3.9113 -0.0313 -0.8709 0
M  V30 19 C -4.1807 -0.8885 0.1997 0
M  V30 20 H 2.4865 0.7486 1.4906 0
M  V30 21 H 4.101 -2.1976 -2.0234 0
M  V30 22 H -1.0817 2.5496 1.4357 0
M  V30 23 H -0.9797 2.699 -0.3442 0
M  V30 24 H -1.7812 0.1613 2.3671 0
M  V30 25 H -2.6737 1.5559 -1.6177 0
M  V30 26 H -3.6196 -1.481 2.1921 0
M  V30 27 H -4.5054 -0.0911 -1.7736 0
M  V30 28 H -4.9836 -1.6105 0.1259 0
M  V30 END ATOM
M  V30 BEGIN BOND
M  V30 1 1 1 2
M  V30 2 1 2 3
M  V30 3 2 2 4
M  V30 4 2 3 5
M  V30 5 1 3 6
M  V30 6 1 4 7
M  V30 7 1 6 8
M  V30 8 1 7 9
M  V30 9 2 8 10
M  V30 10 2 9 11
M  V30 11 1 9 12
M  V30 12 1 12 13
M  V30 13 1 13 14
M  V30 14 2 14 15
M  V30 15 1 14 16
M  V30 16 1 15 17
M  V30 17 2 16 18
M  V30 18 2 17 19
M  V30 19 1 7 8
M  V30 20 1 18 19
M  V30 21 1 4 20
M  V30 22 1 6 21
M  V30 23 1 13 22
M  V30 24 1 13 23
M  V30 25 1 15 24
M  V30 26 1 16 25
M  V30 27 1 17 26
M  V30 28 1 18 27
M  V30 29 1 19 28
M  V30 END BOND
M  V30 END CTAB
M  END
>  <Structure No>
6754

>  <LogS>
-2.82

>  <MMFF94 Energy>
-58.493

$$$$
Compound 6755
Actelion Java MolfileCreator 2.0

  0  0  0  0  0  0              0 V3000
M  V30 BEGIN CTAB
M  V30 COUNTS 44 46 0 0 0
M  V30 BEGIN ATOM
M  V30 1 Cl 6.598 -1.8936 3.5424 0
M  V30 2 C 5.5641 -1.0963 2.3708 0
M  V30 3 C 5.0235 0.1611 2.6555 0
M  V30 4 C 5.2723 -1.7211 1.1551 0
M  V30 5 C 4.1977 0.7972 1.7238 0
M  V30 6 C 4.4461 -1.0888 0.2212 0
M  V30 7 C 3.9115 0.1874 0.4892 0
M  V30 8 C 2.9772 0.8838 -0.4833 0 CFG=1
M  V30 9 S 3.4076 0.5927 -2.239 0
M  V30 10 C 1.4731 0.5529 -0.2821 0 CFG=1
M  V30 11 C 1.7227 1.0044 -2.619 0
M  V30 12 N 0.8014 0.9009 -1.535 0
M  V30 13 C 1.2067 -0.9258 0.0471 0
M  V30 14 O 1.3915 1.449 -3.7501 0
M  V30 15 C -0.63 1.0253 -1.6911 0
M  V30 16 O -1.1252 1.1158 -2.848 0
M  V30 17 N -1.5046 1.0366 -0.5491 0
M  V30 18 C -2.9633 0.9431 -0.6874 0
M  V30 19 C -3.3503 -0.4874 -1.1439 0
M  V30 20 C -3.6652 1.3597 0.6315 0
M  V30 21 C -4.7364 -0.8982 -0.6366 0
M  V30 22 C -3.8858 0.1583 1.5568 0
M  V30 23 C -4.7952 -0.9033 0.904 0
M  V30 24 H 5.2389 0.6452 3.5998 0
M  V30 25 H 5.6796 -2.6994 0.9351 0
M  V30 26 H 3.7785 1.7661 1.9667 0
M  V30 27 H 4.2183 -1.6034 -0.7028 0
M  V30 28 H 3.093 1.9823 -0.3408 0
M  V30 29 H 1.0958 1.1854 0.5492 0
M  V30 30 H 0.1151 -1.1183 0.1027 0
M  V30 31 H 1.641 -1.1897 1.0341 0
M  V30 32 H 1.6383 -1.5841 -0.7361 0
M  V30 33 H -1.098 1.0987 0.4089 0
M  V30 34 H -3.2923 1.6673 -1.4662 0
M  V30 35 H -2.6069 -1.2241 -0.7651 0
M  V30 36 H -3.3355 -0.5408 -2.254 0
M  V30 37 H -3.0764 2.1403 1.1608 0
M  V30 38 H -4.6545 1.8116 0.3958 0
M  V30 39 H -4.9896 -1.9101 -1.0207 0
M  V30 40 H -5.4932 -0.1879 -1.0365 0
M  V30 41 H -4.3413 0.5013 2.511 0
M  V30 42 H -2.8998 -0.2952 1.8 0
M  V30 43 H -4.4973 -1.9062 1.2802 0
M  V30 44 H -5.8477 -0.7318 1.2184 0
M  V30 END ATOM
M  V30 BEGIN BOND
M  V30 1 1 1 2
M  V30 2 2 2 3
M  V30 3 1 2 4
M  V30 4 1 3 5
M  V30 5 2 4 6
M  V30 6 2 5 7
M  V30 7 1 7 8
M  V30 8 1 8 9
M  V30 9 1 8 10
M  V30 10 1 9 11
M  V30 11 1 10 12
M  V30 12 1 10 13
M  V30 13 2 11 14
M  V30 14 1 12 15
M  V30 15 2 15 16
M  V30 16 1 15 17
M  V30 17 1 17 18
M  V30 18 1 18 19
M  V30 19 1 18 20
M  V30 20 1 19 21
M  V30 21 1 20 22
M  V30 22 1 21 23
M  V30 23 1 6 7
M  V30 24 1 11 12
M  V30 25 1 22 23
M  V30 26 1 3 24
M  V30 27 1 4 25
M  V30 28 1 5 26
M  V30 29 1 6 27
M  V30 30 1 8 28
M  V30 31 1 10 29
M  V30 32 1 13 30
M  V30 33 1 13 31
M  V30 34 1 13 32
M  V30 35 1 17 33
M  V30 36 1 18 34
M  V30 37 1 19 35
M  V30 38 1 19 36
M  V30 39 1 20 37
M  V30 40 1 20 38
M  V30 41 1 21 39
M  V30 42 1 21 40
M  V30 43 1 22 41
M  V30 44 1 22 42
M  V30 45 1 23 43
M  V30 46 1 23 44
M  V30 END BOND
M  V30 BEGIN COLLECTION
M  V30 MDLV30/STEABS ATOMS=(2 8 10)
M  V30 END COLLECTION
M  V30 END CTAB
M  END
>  <Structure No>
6755

>  <LogS>
-5.85

>  <MMFF94 Energy>
-60.332

$$$$
Compound 6756
Actelion Java MolfileCreator 2.0

  0  0  0  0  0  0              0 V3000
M  V30 BEGIN CTAB
M  V30 COUNTS 25 26 0 0 0
M  V30 BEGIN ATOM
M  V30 1 F -3.8813 1.7775 2.1009 0
M  V30 2 C -3.5739 0.9911 1.0386 0
M  V30 3 C -4.5663 0.5257 0.1834 0
M  V30 4 C -2.2517 0.6374 0.7836 0
M  V30 5 O -5.7721 0.8299 0.3878 0
M  V30 6 N -4.2311 -0.2585 -0.8731 0
M  V30 7 N -1.9304 -0.1523 -0.2872 0
M  V30 8 C -2.935 -0.602 -1.1152 0
M  V30 9 C -0.5384 -0.4861 -0.5113 0
M  V30 10 O -2.6777 -1.3433 -2.1032 0
M  V30 11 O -0.1756 -1.0338 -1.5891 0
M  V30 12 O 0.4069 -0.2403 0.497 0
M  V30 13 C 1.7985 -0.2226 0.3211 0
M  V30 14 C 2.6134 -0.5566 1.4109 0
M  V30 15 C 2.3992 0.1593 -0.8944 0
M  V30 16 C 4.006 -0.5423 1.2852 0
M  V30 17 C 3.7925 0.1735 -1.0165 0
M  V30 18 C 4.5953 -0.1812 0.0709 0
M  V30 19 H -1.4852 1.013 1.4511 0
M  V30 20 H -4.9834 -0.6073 -1.5108 0
M  V30 21 H 2.1645 -0.8357 2.3559 0
M  V30 22 H 1.7995 0.4747 -1.7371 0
M  V30 23 H 4.6281 -0.8094 2.1298 0
M  V30 24 H 4.2502 0.4686 -1.952 0
M  V30 25 H 5.6734 -0.1681 -0.025 0
M  V30 END ATOM
M  V30 BEGIN BOND
M  V30 1 1 1 2
M  V30 2 1 2 3
M  V30 3 2 2 4
M  V30 4 2 3 5
M  V30 5 1 3 6
M  V30 6 1 4 7
M  V30 7 1 6 8
M  V30 8 1 7 9
M  V30 9 2 8 10
M  V30 10 2 9 11
M  V30 11 1 9 12
M  V30 12 1 12 13
M  V30 13 2 13 14
M  V30 14 1 13 15
M  V30 15 1 14 16
M  V30 16 2 15 17
M  V30 17 2 16 18
M  V30 18 1 7 8
M  V30 19 1 17 18
M  V30 20 1 4 19
M  V30 21 1 6 20
M  V30 22 1 14 21
M  V30 23 1 15 22
M  V30 24 1 16 23
M  V30 25 1 17 24
M  V30 26 1 18 25
M  V30 END BOND
M  V30 END CTAB
M  END
>  <Structure No>
6756

>  <LogS>
-2.44

>  <MMFF94 Energy>
-40.806

$$$$
Compound 6757
Actelion Java MolfileCreator 2.0

  0  0  0  0  0  0              0 V3000
M  V30 BEGIN CTAB
M  V30 COUNTS 42 42 0 0 0
M  V30 BEGIN ATOM
M  V30 1 S 3.4539 2.0873 -0.4011 0
M  V30 2 O 3.6283 2.8765 0.8669 0
M  V30 3 O 3.0616 3.0447 -1.4922 0
M  V30 4 N 4.9656 1.3187 -0.819 0
M  V30 5 C 2.1636 0.9045 -0.1755 0
M  V30 6 C 5.3772 0.4106 0.2584 0
M  V30 7 C 4.8164 0.5774 -2.0772 0
M  V30 8 C 1.3683 0.5126 -1.2605 0
M  V30 9 C 1.9328 0.3446 1.0881 0
M  V30 10 C 0.3515 -0.4294 -1.084 0
M  V30 11 C 0.916 -0.5975 1.266 0
M  V30 12 C 0.1137 -0.9887 0.1818 0
M  V30 13 N -0.935 -1.9605 0.3616 0
M  V30 14 C -2.2816 -1.7037 -0.0921 0
M  V30 15 C -0.6495 -3.2045 1.0827 0
M  V30 16 O -3.0545 -2.6731 -0.3261 0
M  V30 17 C -2.7854 -0.299 -0.3182 0
M  V30 18 C -4.1844 -0.1005 0.2792 0
M  V30 19 C -4.6643 1.3428 0.0874 0
M  V30 20 C -6.0577 1.5434 0.6757 0
M  V30 21 H 6.3717 -0.0264 0.0252 0
M  V30 22 H 4.6463 -0.4157 0.397 0
M  V30 23 H 5.4789 0.9701 1.2124 0
M  V30 24 H 5.7942 0.1451 -2.3794 0
M  V30 25 H 4.0755 -0.246 -1.9799 0
M  V30 26 H 4.494 1.2628 -2.8892 0
M  V30 27 H 1.5401 0.9297 -2.2445 0
M  V30 28 H 2.5418 0.6338 1.935 0
M  V30 29 H -0.247 -0.7303 -1.9342 0
M  V30 30 H 0.7456 -1.0144 2.2505 0
M  V30 31 H -1.0741 -3.1469 2.1069 0
M  V30 32 H -1.0924 -4.0717 0.5492 0
M  V30 33 H 0.4453 -3.3808 1.1541 0
M  V30 34 H -2.8123 -0.1022 -1.4115 0
M  V30 35 H -2.0976 0.4347 0.153 0
M  V30 36 H -4.9015 -0.7914 -0.2165 0
M  V30 37 H -4.1559 -0.338 1.3658 0
M  V30 38 H -4.6929 1.5873 -0.9967 0
M  V30 39 H -3.9595 2.0425 0.5876 0
M  V30 40 H -6.3778 2.5957 0.5233 0
M  V30 41 H -6.7885 0.8738 0.1742 0
M  V30 42 H -6.0511 1.3287 1.7657 0
M  V30 END ATOM
M  V30 BEGIN BOND
M  V30 1 2 1 2
M  V30 2 2 1 3
M  V30 3 1 1 4
M  V30 4 1 1 5
M  V30 5 1 4 6
M  V30 6 1 4 7
M  V30 7 2 5 8
M  V30 8 1 5 9
M  V30 9 1 8 10
M  V30 10 2 9 11
M  V30 11 2 10 12
M  V30 12 1 12 13
M  V30 13 1 13 14
M  V30 14 1 13 15
M  V30 15 2 14 16
M  V30 16 1 14 17
M  V30 17 1 17 18
M  V30 18 1 18 19
M  V30 19 1 19 20
M  V30 20 1 11 12
M  V30 21 1 6 21
M  V30 22 1 6 22
M  V30 23 1 6 23
M  V30 24 1 7 24
M  V30 25 1 7 25
M  V30 26 1 7 26
M  V30 27 1 8 27
M  V30 28 1 9 28
M  V30 29 1 10 29
M  V30 30 1 11 30
M  V30 31 1 15 31
M  V30 32 1 15 32
M  V30 33 1 15 33
M  V30 34 1 17 34
M  V30 35 1 17 35
M  V30 36 1 18 36
M  V30 37 1 18 37
M  V30 38 1 19 38
M  V30 39 1 19 39
M  V30 40 1 20 40
M  V30 41 1 20 41
M  V30 42 1 20 42
M  V30 END BOND
M  V30 END CTAB
M  END
>  <Structure No>
6757

>  <LogS>
-2.85

>  <MMFF94 Energy>
-20.796

$$$$
Compound 6758
Actelion Java MolfileCreator 2.0

  0  0  0  0  0  0              0 V3000
M  V30 BEGIN CTAB
M  V30 COUNTS 37 38 0 0 0
M  V30 BEGIN ATOM
M  V30 1 O 5.798 -1.4272 2.1414 0
M  V30 2 C 4.9844 -0.6551 1.5701 0
M  V30 3 N 4.9003 0.6596 1.9299 0
M  V30 4 C 4.1458 -1.1047 0.5611 0
M  V30 5 C 4.0161 1.5115 1.3163 0
M  V30 6 C 3.2797 -0.2485 -0.0336 0
M  V30 7 C 3.9404 -2.3244 -0.0503 0
M  V30 8 N 3.1919 1.0584 0.3219 0
M  V30 9 N 2.5695 -0.9012 -0.9691 0
M  V30 10 N 2.9664 -2.1708 -0.9839 0
M  V30 11 C 1.5171 -0.3585 -1.8228 0
M  V30 12 O 0.4224 0.0899 -1.0284 0
M  V30 13 C -0.3869 -0.7753 -0.2857 0
M  V30 14 O -0.2033 -2.0225 -0.3223 0
M  V30 15 C -1.4871 -0.2083 0.5553 0
M  V30 16 N -2.4622 0.5294 -0.2777 0
M  V30 17 C -3.3482 1.3871 0.5399 0
M  V30 18 C -3.2198 -0.3406 -1.2117 0
M  V30 19 C -2.708 2.7551 0.757 0
M  V30 20 C -4.1173 -1.3774 -0.5204 0
M  V30 21 H 3.9719 2.548 1.6235 0
M  V30 22 H 4.4503 -3.2543 0.163 0
M  V30 23 H 2.5187 1.7061 -0.1445 0
M  V30 24 H 1.9197 0.4995 -2.4006 0
M  V30 25 H 1.17 -1.1283 -2.5463 0
M  V30 26 H -1.0076 0.4792 1.2835 0
M  V30 27 H -1.9807 -1.0051 1.1515 0
M  V30 28 H -4.3214 1.563 0.0288 0
M  V30 29 H -3.5725 0.9171 1.5242 0
M  V30 30 H -3.8513 0.2943 -1.8712 0
M  V30 31 H -2.5179 -0.8694 -1.8914 0
M  V30 32 H -3.413 3.413 1.3079 0
M  V30 33 H -1.7754 2.6668 1.351 0
M  V30 34 H -2.4733 3.2242 -0.222 0
M  V30 35 H -4.7766 -0.9034 0.2352 0
M  V30 36 H -4.7616 -1.8651 -1.2819 0
M  V30 37 H -3.5093 -2.1709 -0.0403 0
M  V30 END ATOM
M  V30 BEGIN BOND
M  V30 1 2 1 2
M  V30 2 1 2 3
M  V30 3 1 2 4
M  V30 4 2 3 5
M  V30 5 2 4 6
M  V30 6 1 4 7
M  V30 7 1 5 8
M  V30 8 1 6 9
M  V30 9 2 7 10
M  V30 10 1 9 11
M  V30 11 1 11 12
M  V30 12 1 12 13
M  V30 13 2 13 14
M  V30 14 1 13 15
M  V30 15 1 15 16
M  V30 16 1 16 17
M  V30 17 1 16 18
M  V30 18 1 17 19
M  V30 19 1 18 20
M  V30 20 1 6 8
M  V30 21 1 9 10
M  V30 22 1 5 21
M  V30 23 1 7 22
M  V30 24 1 8 23
M  V30 25 1 11 24
M  V30 26 1 11 25
M  V30 27 1 15 26
M  V30 28 1 15 27
M  V30 29 1 17 28
M  V30 30 1 17 29
M  V30 31 1 18 30
M  V30 32 1 18 31
M  V30 33 1 19 32
M  V30 34 1 19 33
M  V30 35 1 19 34
M  V30 36 1 20 35
M  V30 37 1 20 36
M  V30 38 1 20 37
M  V30 END BOND
M  V30 END CTAB
M  END
>  <Structure No>
6758

>  <LogS>
-1.79

>  <MMFF94 Energy>
43.527

$$$$
Compound 6759
Actelion Java MolfileCreator 2.0

  0  0  0  0  0  0              0 V3000
M  V30 BEGIN CTAB
M  V30 COUNTS 25 26 0 0 0
M  V30 BEGIN ATOM
M  V30 1 F 4.2862 -2.1009 -0.7268 0
M  V30 2 C 3.7559 -0.8672 -0.531 0
M  V30 3 C 2.3905 -0.7033 -0.2925 0
M  V30 4 C 4.5715 0.2556 -0.5556 0
M  V30 5 O 1.6551 -1.7278 -0.2446 0
M  V30 6 N 1.8665 0.5515 -0.0942 0
M  V30 7 N 4.0355 1.4842 -0.3538 0
M  V30 8 C 2.702 1.6443 -0.1295 0
M  V30 9 C 0.4487 0.7141 0.146 0
M  V30 10 O 2.246 2.8108 0.0276 0
M  V30 11 O 0.0348 1.6503 0.8848 0
M  V30 12 O -0.4672 -0.1391 -0.4874 0
M  V30 13 C -1.8134 -0.2984 -0.1265 0
M  V30 14 C -2.7296 -0.6765 -1.1168 0
M  V30 15 C -2.2627 -0.1337 1.1983 0
M  V30 16 C -4.0799 -0.8576 -0.8013 0
M  V30 17 C -3.6138 -0.3165 1.5108 0
M  V30 18 C -4.5225 -0.6738 0.5112 0
M  V30 19 H 5.634 0.1499 -0.7357 0
M  V30 20 H 4.6626 2.3202 -0.3794 0
M  V30 21 H -2.3943 -0.8226 -2.1358 0
M  V30 22 H -1.5719 0.1048 1.9951 0
M  V30 23 H -4.7824 -1.1419 -1.5739 0
M  V30 24 H -3.9548 -0.19 2.5303 0
M  V30 25 H -5.5674 -0.8163 0.7552 0
M  V30 END ATOM
M  V30 BEGIN BOND
M  V30 1 1 1 2
M  V30 2 1 2 3
M  V30 3 2 2 4
M  V30 4 2 3 5
M  V30 5 1 3 6
M  V30 6 1 4 7
M  V30 7 1 6 8
M  V30 8 1 6 9
M  V30 9 2 8 10
M  V30 10 2 9 11
M  V30 11 1 9 12
M  V30 12 1 12 13
M  V30 13 2 13 14
M  V30 14 1 13 15
M  V30 15 1 14 16
M  V30 16 2 15 17
M  V30 17 2 16 18
M  V30 18 1 7 8
M  V30 19 1 17 18
M  V30 20 1 4 19
M  V30 21 1 7 20
M  V30 22 1 14 21
M  V30 23 1 15 22
M  V30 24 1 16 23
M  V30 25 1 17 24
M  V30 26 1 18 25
M  V30 END BOND
M  V30 END CTAB
M  END
>  <Structure No>
6759

>  <LogS>
-3.22

>  <MMFF94 Energy>
-43.062

$$$$
Compound 6760
Actelion Java MolfileCreator 2.0

  0  0  0  0  0  0              0 V3000
M  V30 BEGIN CTAB
M  V30 COUNTS 33 35 0 0 0
M  V30 BEGIN ATOM
M  V30 1 O 4.6442 -2.32 -1.5195 0
M  V30 2 C 3.9846 -1.4484 -0.895 0
M  V30 3 N 4.6027 -0.599 -0.0236 0
M  V30 4 C 2.6141 -1.3206 -1.0637 0
M  V30 5 C 3.8967 0.3516 0.6711 0
M  V30 6 N 1.7787 -2.0459 -1.83 0
M  V30 7 C 1.9335 -0.3755 -0.3749 0
M  V30 8 N 2.5417 0.4673 0.4991 0
M  V30 9 N 4.581 1.2174 1.576 0
M  V30 10 C 0.5672 -1.4843 -1.5656 0
M  V30 11 N 0.6306 -0.4492 -0.6866 0
M  V30 12 C -0.4899 0.3033 -0.1173 0 CFG=1
M  V30 13 O -1.5069 0.4635 -1.0847 0
M  V30 14 C -1.0638 -0.4209 1.0973 0 CFG=1
M  V30 15 C -2.7248 0.0546 -0.5004 0 CFG=1
M  V30 16 O -0.5181 0.0665 2.2947 0
M  V30 17 C -2.5271 -0.0915 1.0049 0 CFG=1
M  V30 18 C -3.8386 1.0459 -0.8534 0
M  V30 19 O -3.3222 -1.1294 1.5152 0
M  V30 20 O -3.4778 2.3442 -0.4681 0
M  V30 21 H 1.998 1.1844 1.0279 0
M  V30 22 H 4.0606 1.9452 2.114 0
M  V30 23 H 5.6128 1.1308 1.7094 0
M  V30 24 H -0.3559 -1.8425 -2.0027 0
M  V30 25 H -0.1486 1.3211 0.174 0
M  V30 26 H -0.9172 -1.5249 1.0121 0
M  V30 27 H -2.993 -0.936 -0.933 0
M  V30 28 H 0.3744 -0.3567 2.388 0
M  V30 29 H -2.7449 0.8691 1.5304 0
M  V30 30 H -4.0097 1.0193 -1.9527 0
M  V30 31 H -4.7809 0.7449 -0.3427 0
M  V30 32 H -3.2563 -1.0729 2.504 0
M  V30 33 H -4.2411 2.9271 -0.7177 0
M  V30 END ATOM
M  V30 BEGIN BOND
M  V30 1 2 1 2
M  V30 2 1 2 3
M  V30 3 1 2 4
M  V30 4 2 3 5
M  V30 5 1 4 6
M  V30 6 2 4 7
M  V30 7 1 5 8
M  V30 8 1 5 9
M  V30 9 2 6 10
M  V30 10 1 7 11
M  V30 11 1 11 12
M  V30 12 1 12 13
M  V30 13 1 12 14
M  V30 14 1 13 15
M  V30 15 1 14 16
M  V30 16 1 14 17
M  V30 17 1 15 18
M  V30 18 1 17 19
M  V30 19 1 18 20
M  V30 20 1 7 8
M  V30 21 1 10 11
M  V30 22 1 15 17
M  V30 23 1 8 21
M  V30 24 1 9 22
M  V30 25 1 9 23
M  V30 26 1 10 24
M  V30 27 1 12 25
M  V30 28 1 14 26
M  V30 29 1 15 27
M  V30 30 1 16 28
M  V30 31 1 17 29
M  V30 32 1 18 30
M  V30 33 1 18 31
M  V30 34 1 19 32
M  V30 35 1 20 33
M  V30 END BOND
M  V30 BEGIN COLLECTION
M  V30 MDLV30/STEABS ATOMS=(4 12 14 15 17)
M  V30 END COLLECTION
M  V30 END CTAB
M  END
>  <Structure No>
6760

>  <LogS>
-2.74

>  <MMFF94 Energy>
53.16

$$$$
Compound 6761
Actelion Java MolfileCreator 2.0

  0  0  0  0  0  0              0 V3000
M  V30 BEGIN CTAB
M  V30 COUNTS 45 45 0 0 0
M  V30 BEGIN ATOM
M  V30 1 S -5.3788 -0.2403 -1.1221 0
M  V30 2 O -5.596 -1.1119 -2.328 0
M  V30 3 O -6.1504 1.0341 -1.3265 0
M  V30 4 N -5.9765 -1.0586 0.3008 0
M  V30 5 C -3.6605 0.1376 -0.9808 0
M  V30 6 C -5.2559 -2.324 0.4876 0
M  V30 7 C -5.8051 -0.1993 1.4788 0
M  V30 8 C -3.2495 1.3562 -0.4237 0
M  V30 9 C -2.6976 -0.7814 -1.4186 0
M  V30 10 C -1.8889 1.6522 -0.303 0
M  V30 11 C -1.3368 -0.4867 -1.298 0
M  V30 12 C -0.921 0.731 -0.7356 0
M  V30 13 N 0.4824 1.0362 -0.6152 0
M  V30 14 C 1.3641 0.1257 0.0813 0
M  V30 15 C 0.974 2.3311 -1.0989 0
M  V30 16 O 0.8838 -0.8975 0.6443 0
M  V30 17 C 2.8546 0.3746 0.1351 0
M  V30 18 C 3.5982 -0.6206 1.0432 0
M  V30 19 C 5.0901 -0.2833 1.1948 0
M  V30 20 C 5.8905 -0.5516 -0.088 0
M  V30 21 C 7.3837 -0.3357 0.1413 0
M  V30 22 H -5.3765 -2.9688 -0.4084 0
M  V30 23 H -4.1722 -2.1531 0.6702 0
M  V30 24 H -5.6814 -2.8775 1.3519 0
M  V30 25 H -6.2465 -0.69 2.3726 0
M  V30 26 H -4.7313 0.0095 1.6787 0
M  V30 27 H -6.3415 0.7622 1.3325 0
M  V30 28 H -3.9814 2.074 -0.0755 0
M  V30 29 H -2.9996 -1.7274 -1.8498 0
M  V30 30 H -1.5881 2.5938 0.1387 0
M  V30 31 H -0.6053 -1.2029 -1.6505 0
M  V30 32 H 1.1816 2.999 -0.2366 0
M  V30 33 H 1.899 2.1941 -1.6967 0
M  V30 34 H 0.2253 2.8203 -1.759 0
M  V30 35 H 3.2502 0.3005 -0.8988 0
M  V30 36 H 3.0324 1.4046 0.5123 0
M  V30 37 H 3.4857 -1.6537 0.6466 0
M  V30 38 H 3.1382 -0.5927 2.0557 0
M  V30 39 H 5.5018 -0.9146 2.0128 0
M  V30 40 H 5.2075 0.78 1.4994 0
M  V30 41 H 5.727 -1.5989 -0.4229 0
M  V30 42 H 5.5584 0.1343 -0.8956 0
M  V30 43 H 7.5775 0.7102 0.4615 0
M  V30 44 H 7.9363 -0.5263 -0.8028 0
M  V30 45 H 7.7602 -1.0336 0.9193 0
M  V30 END ATOM
M  V30 BEGIN BOND
M  V30 1 2 1 2
M  V30 2 2 1 3
M  V30 3 1 1 4
M  V30 4 1 1 5
M  V30 5 1 4 6
M  V30 6 1 4 7
M  V30 7 2 5 8
M  V30 8 1 5 9
M  V30 9 1 8 10
M  V30 10 2 9 11
M  V30 11 2 10 12
M  V30 12 1 12 13
M  V30 13 1 13 14
M  V30 14 1 13 15
M  V30 15 2 14 16
M  V30 16 1 14 17
M  V30 17 1 17 18
M  V30 18 1 18 19
M  V30 19 1 19 20
M  V30 20 1 20 21
M  V30 21 1 11 12
M  V30 22 1 6 22
M  V30 23 1 6 23
M  V30 24 1 6 24
M  V30 25 1 7 25
M  V30 26 1 7 26
M  V30 27 1 7 27
M  V30 28 1 8 28
M  V30 29 1 9 29
M  V30 30 1 10 30
M  V30 31 1 11 31
M  V30 32 1 15 32
M  V30 33 1 15 33
M  V30 34 1 15 34
M  V30 35 1 17 35
M  V30 36 1 17 36
M  V30 37 1 18 37
M  V30 38 1 18 38
M  V30 39 1 19 39
M  V30 40 1 19 40
M  V30 41 1 20 41
M  V30 42 1 20 42
M  V30 43 1 21 43
M  V30 44 1 21 44
M  V30 45 1 21 45
M  V30 END BOND
M  V30 END CTAB
M  END
>  <Structure No>
6761

>  <LogS>
-2.95

>  <MMFF94 Energy>
-24.288

$$$$
Compound 6762
Actelion Java MolfileCreator 2.0

  0  0  0  0  0  0              0 V3000
M  V30 BEGIN CTAB
M  V30 COUNTS 36 37 0 0 0
M  V30 BEGIN ATOM
M  V30 1 O 4.8696 -0.797 -0.1593 0
M  V30 2 C 5.1491 0.4008 0.1184 0
M  V30 3 O 4.3851 1.4539 -0.3969 0
M  V30 4 C 6.2829 0.6985 1.0392 0
M  V30 5 C 3.2442 1.2596 -1.2302 0
M  V30 6 C 2.042 0.807 -0.3991 0
M  V30 7 O 0.8904 0.7065 -1.2163 0
M  V30 8 C 0.7114 -0.6178 -1.6793 0
M  V30 9 N 0.0795 -1.435 -0.6458 0
M  V30 10 C -1.127 -1.2781 -0.0913 0
M  V30 11 C 0.5935 -2.518 -0.0083 0
M  V30 12 N -2.0508 -0.3273 -0.3687 0
M  V30 13 C -1.3221 -2.2358 0.8409 0
M  V30 14 N -0.2493 -3.0446 0.9237 0
M  V30 15 C -3.2285 -0.3488 0.3295 0
M  V30 16 C -2.5069 -2.2738 1.5575 0
M  V30 17 N -3.4433 -1.3184 1.2811 0
M  V30 18 N -4.225 0.647 0.0529 0
M  V30 19 C -5.4933 0.7398 0.7214 0
M  V30 20 O -5.8014 -0.0628 1.6431 0
M  V30 21 C -6.4537 1.8189 0.3387 0
M  V30 22 H 5.9481 0.574 2.0899 0
M  V30 23 H 6.6304 1.7419 0.8889 0
M  V30 24 H 7.1279 0.0067 0.8388 0
M  V30 25 H 2.9982 2.2252 -1.7206 0
M  V30 26 H 3.4751 0.5207 -2.0274 0
M  V30 27 H 1.8442 1.5792 0.374 0
M  V30 28 H 2.2766 -0.1326 0.1524 0
M  V30 29 H 1.6659 -1.0819 -2.0198 0
M  V30 30 H 0.0433 -0.5883 -2.5654 0
M  V30 31 H 1.5764 -2.9223 -0.2129 0
M  V30 32 H -2.6896 -3.0287 2.3104 0
M  V30 33 H -4.0107 1.353 -0.6872 0
M  V30 34 H -6.041 2.8046 0.6383 0
M  V30 35 H -7.4327 1.6685 0.8416 0
M  V30 36 H -6.6106 1.807 -0.7598 0
M  V30 END ATOM
M  V30 BEGIN BOND
M  V30 1 2 1 2
M  V30 2 1 2 3
M  V30 3 1 2 4
M  V30 4 1 3 5
M  V30 5 1 5 6
M  V30 6 1 6 7
M  V30 7 1 7 8
M  V30 8 1 8 9
M  V30 9 1 9 10
M  V30 10 1 9 11
M  V30 11 2 10 12
M  V30 12 1 10 13
M  V30 13 2 11 14
M  V30 14 1 12 15
M  V30 15 2 13 16
M  V30 16 2 15 17
M  V30 17 1 15 18
M  V30 18 1 18 19
M  V30 19 2 19 20
M  V30 20 1 19 21
M  V30 21 1 13 14
M  V30 22 1 16 17
M  V30 23 1 4 22
M  V30 24 1 4 23
M  V30 25 1 4 24
M  V30 26 1 5 25
M  V30 27 1 5 26
M  V30 28 1 6 27
M  V30 29 1 6 28
M  V30 30 1 8 29
M  V30 31 1 8 30
M  V30 32 1 11 31
M  V30 33 1 16 32
M  V30 34 1 18 33
M  V30 35 1 21 34
M  V30 36 1 21 35
M  V30 37 1 21 36
M  V30 END BOND
M  V30 END CTAB
M  END
>  <Structure No>
6762

>  <LogS>
-0.73

>  <MMFF94 Energy>
-40.115

$$$$
Compound 6763
Actelion Java MolfileCreator 2.0

  0  0  0  0  0  0              0 V3000
M  V30 BEGIN CTAB
M  V30 COUNTS 40 41 0 0 0
M  V30 BEGIN ATOM
M  V30 1 Cl 6.4206 0.5605 -0.8809 0
M  V30 2 C 4.7254 0.5826 -0.4308 0
M  V30 3 C 3.797 1.2551 -1.2321 0
M  V30 4 C 4.3001 -0.0746 0.7281 0
M  V30 5 C 2.4451 1.2706 -0.8763 0
M  V30 6 C 2.949 -0.0602 1.0869 0
M  V30 7 C 2.0108 0.6151 0.288 0
M  V30 8 C 0.5443 0.5997 0.6472 0
M  V30 9 C -0.2697 -0.3409 -0.2718 0 CFG=1
M  V30 10 N 0.4389 -1.6192 -0.4273 0
M  V30 11 C -1.7313 -0.6192 0.2212 0 CFG=2
M  V30 12 N 0.9673 -2.042 -1.5609 0
M  V30 13 C 0.6989 -2.5346 0.5238 0
M  V30 14 O -2.2745 -1.6549 -0.5654 0
M  V30 15 C -2.739 0.6018 0.297 0
M  V30 16 C 1.5432 -3.2252 -1.2742 0
M  V30 17 N 1.3988 -3.5705 0.0241 0
M  V30 18 C -2.5833 1.5666 -0.8988 0
M  V30 19 C -2.5662 1.3908 1.6189 0
M  V30 20 C -4.1967 0.0724 0.2933 0
M  V30 21 H 4.1209 1.7627 -2.1316 0
M  V30 22 H 5.0145 -0.5994 1.3494 0
M  V30 23 H 1.735 1.7881 -1.5097 0
M  V30 24 H 2.6341 -0.5813 1.9824 0
M  V30 25 H 0.4095 0.3024 1.7103 0
M  V30 26 H 0.1831 1.6391 0.5338 0
M  V30 27 H -0.3245 0.1352 -1.2751 0
M  V30 28 H -1.6485 -1.0367 1.2484 0
M  V30 29 H 0.3992 -2.4487 1.5601 0
M  V30 30 H -2.2932 -1.3373 -1.5056 0
M  V30 31 H 2.0664 -3.8303 -2.002 0
M  V30 32 H -1.6061 2.0895 -0.8761 0
M  V30 33 H -3.3729 2.3488 -0.8752 0
M  V30 34 H -2.6709 1.0194 -1.8611 0
M  V30 35 H -1.6048 1.9264 1.6787 0
M  V30 36 H -2.6426 0.7123 2.4956 0
M  V30 37 H -3.3581 2.1648 1.7194 0
M  V30 38 H -4.9247 0.8988 0.4467 0
M  V30 39 H -4.4504 -0.4077 -0.6759 0
M  V30 40 H -4.3431 -0.6725 1.1053 0
M  V30 END ATOM
M  V30 BEGIN BOND
M  V30 1 1 1 2
M  V30 2 2 2 3
M  V30 3 1 2 4
M  V30 4 1 3 5
M  V30 5 2 4 6
M  V30 6 2 5 7
M  V30 7 1 7 8
M  V30 8 1 8 9
M  V30 9 1 9 10
M  V30 10 1 9 11
M  V30 11 1 10 12
M  V30 12 1 10 13
M  V30 13 1 11 14
M  V30 14 1 11 15
M  V30 15 2 12 16
M  V30 16 2 13 17
M  V30 17 1 15 18
M  V30 18 1 15 19
M  V30 19 1 15 20
M  V30 20 1 6 7
M  V30 21 1 16 17
M  V30 22 1 3 21
M  V30 23 1 4 22
M  V30 24 1 5 23
M  V30 25 1 6 24
M  V30 26 1 8 25
M  V30 27 1 8 26
M  V30 28 1 9 27
M  V30 29 1 11 28
M  V30 30 1 13 29
M  V30 31 1 14 30
M  V30 32 1 16 31
M  V30 33 1 18 32
M  V30 34 1 18 33
M  V30 35 1 18 34
M  V30 36 1 19 35
M  V30 37 1 19 36
M  V30 38 1 19 37
M  V30 39 1 20 38
M  V30 40 1 20 39
M  V30 41 1 20 40
M  V30 END BOND
M  V30 BEGIN COLLECTION
M  V30 MDLV30/STEABS ATOMS=(2 9 11)
M  V30 END COLLECTION
M  V30 END CTAB
M  END
>  <Structure No>
6763

>  <LogS>
-4.05

>  <MMFF94 Energy>
54.15

$$$$
Compound 6764
Actelion Java MolfileCreator 2.0

  0  0  0  0  0  0              0 V3000
M  V30 BEGIN CTAB
M  V30 COUNTS 61 61 0 0 0
M  V30 BEGIN ATOM
M  V30 1 O 4.5583 -1.8842 0.3923 0
M  V30 2 C 5.1874 -0.8659 -0.0091 0
M  V30 3 N 6.6118 -0.7808 0.2253 0
M  V30 4 N 4.4807 0.1795 -0.7061 0
M  V30 5 C 7.4834 0.0309 -0.6375 0
M  V30 6 C 7.2119 -1.5592 1.3204 0
M  V30 7 C 3.0457 0.2886 -0.7581 0
M  V30 8 C 7.6598 1.4326 -0.06 0
M  V30 9 C 6.7782 -1.006 2.6767 0
M  V30 10 C 2.4445 0.8735 -1.8804 0
M  V30 11 C 2.2373 -0.1201 0.3118 0
M  V30 12 C 1.0452 1.0196 -1.9702 0
M  V30 13 C 0.8511 0.0088 0.2391 0
M  V30 14 C 0.2389 0.5764 -0.8948 0
M  V30 15 C 0.4378 1.6251 -3.191 0
M  V30 16 O -1.156 0.7303 -0.969 0
M  V30 17 O -0.772 1.4076 -3.4711 0
M  V30 18 C 1.2413 2.4697 -4.1346 0
M  V30 19 C -2.0832 0.2389 -0.0025 0
M  V30 20 C -3.5128 0.6044 -0.4212 0 CFG=1
M  V30 21 O -3.7864 0.0732 -1.6925 0
M  V30 22 C -4.5307 0.0483 0.5924 0
M  V30 23 N -5.8855 0.5786 0.331 0 CHG=1
M  V30 24 C -6.9646 0.0182 1.1941 0
M  V30 25 C -8.2843 0.7527 0.8618 0
M  V30 26 C -6.6632 0.2333 2.696 0
M  V30 27 C -7.1769 -1.4898 0.9209 0
M  V30 28 H 5.0233 0.8744 -1.2642 0
M  V30 29 H 8.4841 -0.4445 -0.732 0
M  V30 30 H 7.0767 0.0838 -1.6697 0
M  V30 31 H 8.3227 -1.5246 1.2696 0
M  V30 32 H 6.9125 -2.6269 1.2369 0
M  V30 33 H 8.186 1.3775 0.9161 0
M  V30 34 H 8.2669 2.0487 -0.7569 0
M  V30 35 H 6.6761 1.9249 0.0887 0
M  V30 36 H 7.0798 0.0582 2.7698 0
M  V30 37 H 7.2631 -1.5878 3.488 0
M  V30 38 H 5.6769 -1.0847 2.7964 0
M  V30 39 H 3.081 1.1914 -2.6955 0
M  V30 40 H 2.6731 -0.5148 1.2195 0
M  V30 41 H 0.2634 -0.3228 1.0839 0
M  V30 42 H 0.5701 3.0311 -4.8198 0
M  V30 43 H 1.9063 1.8219 -4.7434 0
M  V30 44 H 1.8502 3.2033 -3.5657 0
M  V30 45 H -1.865 0.7004 0.9857 0
M  V30 46 H -1.9846 -0.8663 0.0764 0
M  V30 47 H -3.6007 1.7166 -0.439 0
M  V30 48 H -3.415 0.7095 -2.3578 0
M  V30 49 H -4.2012 0.3442 1.6117 0
M  V30 50 H -4.5184 -1.059 0.5239 0
M  V30 51 H -5.8529 1.6181 0.4647 0
M  V30 52 H -6.1306 0.4023 -0.6727 0
M  V30 53 H -8.1893 1.8401 1.0694 0
M  V30 54 H -9.1269 0.3581 1.47 0
M  V30 55 H -8.5419 0.6261 -0.2116 0
M  V30 56 H -6.4047 1.2962 2.8923 0
M  V30 57 H -5.8226 -0.4075 3.0359 0
M  V30 58 H -7.5469 -0.0322 3.316 0
M  V30 59 H -8.0945 -1.8565 1.4314 0
M  V30 60 H -6.3309 -2.0975 1.3026 0
M  V30 61 H -7.2882 -1.6769 -0.1689 0
M  V30 END ATOM
M  V30 BEGIN BOND
M  V30 1 2 1 2
M  V30 2 1 2 3
M  V30 3 1 2 4
M  V30 4 1 3 5
M  V30 5 1 3 6
M  V30 6 1 4 7
M  V30 7 1 5 8
M  V30 8 1 6 9
M  V30 9 2 7 10
M  V30 10 1 7 11
M  V30 11 1 10 12
M  V30 12 2 11 13
M  V30 13 2 12 14
M  V30 14 1 12 15
M  V30 15 1 14 16
M  V30 16 2 15 17
M  V30 17 1 15 18
M  V30 18 1 16 19
M  V30 19 1 19 20
M  V30 20 1 20 21
M  V30 21 1 20 22
M  V30 22 1 22 23
M  V30 23 1 23 24
M  V30 24 1 24 25
M  V30 25 1 24 26
M  V30 26 1 24 27
M  V30 27 1 13 14
M  V30 28 1 4 28
M  V30 29 1 5 29
M  V30 30 1 5 30
M  V30 31 1 6 31
M  V30 32 1 6 32
M  V30 33 1 8 33
M  V30 34 1 8 34
M  V30 35 1 8 35
M  V30 36 1 9 36
M  V30 37 1 9 37
M  V30 38 1 9 38
M  V30 39 1 10 39
M  V30 40 1 11 40
M  V30 41 1 13 41
M  V30 42 1 18 42
M  V30 43 1 18 43
M  V30 44 1 18 44
M  V30 45 1 19 45
M  V30 46 1 19 46
M  V30 47 1 20 47
M  V30 48 1 21 48
M  V30 49 1 22 49
M  V30 50 1 22 50
M  V30 51 1 23 51
M  V30 52 1 23 52
M  V30 53 1 25 53
M  V30 54 1 25 54
M  V30 55 1 25 55
M  V30 56 1 26 56
M  V30 57 1 26 57
M  V30 58 1 26 58
M  V30 59 1 27 59
M  V30 60 1 27 60
M  V30 61 1 27 61
M  V30 END BOND
M  V30 BEGIN COLLECTION
M  V30 MDLV30/STEABS ATOMS=(1 20)
M  V30 END COLLECTION
M  V30 END CTAB
M  END
>  <Structure No>
6764

>  <LogS>
-1.9

>  <MMFF94 Energy>
-2.9454

$$$$
Compound 6765
Actelion Java MolfileCreator 2.0

  0  0  0  0  0  0              0 V3000
M  V30 BEGIN CTAB
M  V30 COUNTS 40 40 0 0 0
M  V30 BEGIN ATOM
M  V30 1 O -2.473 -1.5949 -0.2391 0
M  V30 2 C -1.9184 -0.4667 -0.3467 0
M  V30 3 O -0.8436 -0.3051 -1.2278 0
M  V30 4 C -2.3947 0.6933 0.4512 0
M  V30 5 C -0.3226 -1.3707 -2.014 0
M  V30 6 C -3.443 0.5749 1.3984 0
M  V30 7 C -1.7899 1.95 0.2545 0
M  V30 8 C 0.8399 -0.8716 -2.8094 0
M  V30 9 O -4.0447 -0.675 1.6199 0
M  V30 10 C -3.8352 1.7071 2.1402 0
M  V30 11 C -2.2058 3.0646 0.9841 0
M  V30 12 O 0.7417 -0.7695 -4.0625 0
M  V30 13 N 2.0502 -0.49 -2.1439 0
M  V30 14 C -5.3707 -0.8788 2.0227 0
M  V30 15 C -3.2237 2.9425 1.9273 0
M  V30 16 C 3.1979 0.0293 -2.8851 0
M  V30 17 O -6.2331 0.0338 1.9094 0
M  V30 18 C -5.7916 -2.2328 2.4827 0
M  V30 19 C 4.3206 0.3534 -1.9524 0
M  V30 20 O 4.3979 1.5048 -1.4432 0
M  V30 21 O 5.2469 -0.6415 -1.6207 0
M  V30 22 C 6.2903 -0.4545 -0.6667 0
M  V30 23 C 5.7366 -0.5153 0.7524 0
M  V30 24 H -1.1143 -1.757 -2.693 0
M  V30 25 H 0.0172 -2.1962 -1.3519 0
M  V30 26 H -0.9915 2.0754 -0.4659 0
M  V30 27 H -4.5934 1.6323 2.9073 0
M  V30 28 H -1.7312 4.0241 0.823 0
M  V30 29 H 2.0989 -0.5859 -1.1033 0
M  V30 30 H -3.5329 3.8055 2.5032 0
M  V30 31 H 3.541 -0.7318 -3.6184 0
M  V30 32 H 2.8993 0.9447 -3.4405 0
M  V30 33 H -6.1626 -2.8188 1.6164 0
M  V30 34 H -4.9285 -2.7618 2.9384 0
M  V30 35 H -6.5991 -2.1457 3.2403 0
M  V30 36 H 7.0366 -1.267 -0.7944 0
M  V30 37 H 6.8042 0.5163 -0.8394 0
M  V30 38 H 5.2155 -1.4822 0.9146 0
M  V30 39 H 5.0215 0.3158 0.9253 0
M  V30 40 H 6.5689 -0.4276 1.482 0
M  V30 END ATOM
M  V30 BEGIN BOND
M  V30 1 2 1 2
M  V30 2 1 2 3
M  V30 3 1 2 4
M  V30 4 1 3 5
M  V30 5 2 4 6
M  V30 6 1 4 7
M  V30 7 1 5 8
M  V30 8 1 6 9
M  V30 9 1 6 10
M  V30 10 2 7 11
M  V30 11 2 8 12
M  V30 12 1 8 13
M  V30 13 1 9 14
M  V30 14 2 10 15
M  V30 15 1 13 16
M  V30 16 2 14 17
M  V30 17 1 14 18
M  V30 18 1 16 19
M  V30 19 2 19 20
M  V30 20 1 19 21
M  V30 21 1 21 22
M  V30 22 1 22 23
M  V30 23 1 11 15
M  V30 24 1 5 24
M  V30 25 1 5 25
M  V30 26 1 7 26
M  V30 27 1 10 27
M  V30 28 1 11 28
M  V30 29 1 13 29
M  V30 30 1 15 30
M  V30 31 1 16 31
M  V30 32 1 16 32
M  V30 33 1 18 33
M  V30 34 1 18 34
M  V30 35 1 18 35
M  V30 36 1 22 36
M  V30 37 1 22 37
M  V30 38 1 23 38
M  V30 39 1 23 39
M  V30 40 1 23 40
M  V30 END BOND
M  V30 END CTAB
M  END
>  <Structure No>
6765

>  <LogS>
-1.87

>  <MMFF94 Energy>
52.411

$$$$
Compound 6766
Actelion Java MolfileCreator 2.0

  0  0  0  0  0  0              0 V3000
M  V30 BEGIN CTAB
M  V30 COUNTS 23 24 0 0 0
M  V30 BEGIN ATOM
M  V30 1 Cl -0.9495 0.7768 -2.1589 0
M  V30 2 C -1.7571 0.2469 -0.6889 0
M  V30 3 C -1.2085 -0.7629 0.1285 0
M  V30 4 C -2.9987 0.807 -0.3638 0
M  V30 5 O 0.0317 -1.3478 -0.1548 0
M  V30 6 C -1.9309 -1.222 1.2365 0
M  V30 7 C -3.7015 0.3597 0.7598 0
M  V30 8 C 1.2411 -0.6425 -0.2602 0
M  V30 9 C -3.1693 -0.6586 1.556 0
M  V30 10 Cl -5.2573 1.0645 1.1603 0
M  V30 11 C 2.3349 -1.2564 -0.8914 0
M  V30 12 C 1.3934 0.6518 0.2744 0
M  V30 13 Cl 2.1851 -2.8751 -1.5575 0
M  V30 14 C 3.5545 -0.5787 -1.0044 0
M  V30 15 C 2.6133 1.3239 0.1586 0
M  V30 16 C 3.6935 0.7109 -0.4822 0
M  V30 17 Cl 5.2237 1.5564 -0.6261 0
M  V30 18 H -3.4228 1.5815 -0.9906 0
M  V30 19 H -1.5236 -2.0084 1.8593 0
M  V30 20 H -3.7137 -1.0143 2.4216 0
M  V30 21 H 0.5745 1.1388 0.7874 0
M  V30 22 H 4.3932 -1.0541 -1.4974 0
M  V30 23 H 2.7185 2.3196 0.5708 0
M  V30 END ATOM
M  V30 BEGIN BOND
M  V30 1 1 1 2
M  V30 2 2 2 3
M  V30 3 1 2 4
M  V30 4 1 3 5
M  V30 5 1 3 6
M  V30 6 2 4 7
M  V30 7 1 5 8
M  V30 8 2 6 9
M  V30 9 1 7 10
M  V30 10 2 8 11
M  V30 11 1 8 12
M  V30 12 1 11 13
M  V30 13 1 11 14
M  V30 14 2 12 15
M  V30 15 2 14 16
M  V30 16 1 16 17
M  V30 17 1 7 9
M  V30 18 1 15 16
M  V30 19 1 4 18
M  V30 20 1 6 19
M  V30 21 1 9 20
M  V30 22 1 12 21
M  V30 23 1 14 22
M  V30 24 1 15 23
M  V30 END BOND
M  V30 END CTAB
M  END
>  <Structure No>
6766

>  <LogS>
-6.82

>  <MMFF94 Energy>
41.752

$$$$
Compound 6767
Actelion Java MolfileCreator 2.0

  0  0  0  0  0  0              0 V3000
M  V30 BEGIN CTAB
M  V30 COUNTS 29 30 0 0 0
M  V30 BEGIN ATOM
M  V30 1 F -5.5681 2.418 0.4832 0
M  V30 2 C -4.9199 1.2868 0.1068 0
M  V30 3 C -3.6742 0.9612 0.6449 0
M  V30 4 C -5.4875 0.4347 -0.8319 0
M  V30 5 O -3.1462 1.7434 1.4827 0
M  V30 6 N -3.0361 -0.1924 0.2619 0
M  V30 7 N -4.8262 -0.6853 -1.2154 0
M  V30 8 C -3.6111 -1.0006 -0.6886 0
M  V30 9 C -1.7088 -0.5211 0.8097 0
M  V30 10 O -3.0207 -2.0421 -1.0882 0
M  V30 11 O -0.7013 0.0638 -0.009 0
M  V30 12 C 0.6626 -0.0788 0.2546 0
M  V30 13 O 1.0516 -0.7201 1.2698 0
M  V30 14 O 1.5819 0.5487 -0.5943 0
M  V30 15 C 2.9593 0.2852 -0.6373 0
M  V30 16 C 3.495 -0.9793 -0.324 0
M  V30 17 C 3.8221 1.3101 -1.0477 0
M  V30 18 C 4.8751 -1.1955 -0.3937 0
M  V30 19 C 5.2014 1.0909 -1.1152 0
M  V30 20 C 5.7281 -0.1601 -0.7846 0
M  V30 21 H -6.4525 0.6696 -1.2633 0
M  V30 22 H -5.2607 -1.3098 -1.932 0
M  V30 23 H -1.6087 -0.1487 1.853 0
M  V30 24 H -1.5629 -1.6229 0.856 0
M  V30 25 H 2.852 -1.8061 -0.0563 0
M  V30 26 H 3.4219 2.2821 -1.307 0
M  V30 27 H 5.2825 -2.1689 -0.1532 0
M  V30 28 H 5.8616 1.8906 -1.4256 0
M  V30 29 H 6.7956 -0.3297 -0.8393 0
M  V30 END ATOM
M  V30 BEGIN BOND
M  V30 1 1 1 2
M  V30 2 1 2 3
M  V30 3 2 2 4
M  V30 4 2 3 5
M  V30 5 1 3 6
M  V30 6 1 4 7
M  V30 7 1 6 8
M  V30 8 1 6 9
M  V30 9 2 8 10
M  V30 10 1 9 11
M  V30 11 1 11 12
M  V30 12 2 12 13
M  V30 13 1 12 14
M  V30 14 1 14 15
M  V30 15 2 15 16
M  V30 16 1 15 17
M  V30 17 1 16 18
M  V30 18 2 17 19
M  V30 19 2 18 20
M  V30 20 1 7 8
M  V30 21 1 19 20
M  V30 22 1 4 21
M  V30 23 1 7 22
M  V30 24 1 9 23
M  V30 25 1 9 24
M  V30 26 1 16 25
M  V30 27 1 17 26
M  V30 28 1 18 27
M  V30 29 1 19 28
M  V30 30 1 20 29
M  V30 END BOND
M  V30 END CTAB
M  END
>  <Structure No>
6767

>  <LogS>
-2.45

>  <MMFF94 Energy>
-79.785

$$$$
Compound 6768
Actelion Java MolfileCreator 2.0

  0  0  0  0  0  0              0 V3000
M  V30 BEGIN CTAB
M  V30 COUNTS 48 48 0 0 0
M  V30 BEGIN ATOM
M  V30 1 S -3.2034 1.6007 1.2003 0
M  V30 2 O -4.4374 0.7766 0.9495 0
M  V30 3 O -3.5823 3.0554 1.1806 0
M  V30 4 N -2.5174 1.1912 2.753 0
M  V30 5 C -2.0163 1.3113 -0.0687 0
M  V30 6 C -2.1006 -0.2166 2.7479 0
M  V30 7 C -3.5191 1.4164 3.8027 0
M  V30 8 C -0.8305 2.0559 -0.0874 0
M  V30 9 C -2.2252 0.3158 -1.0338 0
M  V30 10 C 0.1433 1.8032 -1.0565 0
M  V30 11 C -1.251 0.0623 -2.0032 0
M  V30 12 C -0.0513 0.7912 -2.0095 0
M  V30 13 N 0.9674 0.5089 -2.9856 0
M  V30 14 C 1.4906 -0.8248 -3.1688 0
M  V30 15 C 1.3948 1.5709 -3.8996 0
M  V30 16 O 2.0319 -1.1344 -4.2651 0
M  V30 17 C 1.4924 -1.8482 -2.0593 0
M  V30 18 C 2.7842 -1.7862 -1.2275 0
M  V30 19 C 2.8754 -0.5636 -0.2966 0
M  V30 20 C 1.8629 -0.556 0.8671 0
M  V30 21 C 2.0791 -1.694 1.8867 0
M  V30 22 C 1.056 -2.8192 1.731 0
M  V30 23 H -2.9559 -0.8943 2.5281 0
M  V30 24 H -1.3078 -0.373 1.9866 0
M  V30 25 H -1.663 -0.4885 3.7336 0
M  V30 26 H -3.8159 2.4871 3.8221 0
M  V30 27 H -4.4244 0.7909 3.6411 0
M  V30 28 H -3.0883 1.1781 4.799 0
M  V30 29 H -0.6547 2.8211 0.6578 0
M  V30 30 H -3.1343 -0.2715 -1.0333 0
M  V30 31 H 1.0634 2.374 -1.0456 0
M  V30 32 H -1.4231 -0.7098 -2.7429 0
M  V30 33 H 0.9469 1.4027 -4.9012 0
M  V30 34 H 1.0778 2.5705 -3.5362 0
M  V30 35 H 2.5015 1.5705 -3.9882 0
M  V30 36 H 0.6008 -1.7586 -1.4118 0
M  V30 37 H 1.4267 -2.858 -2.5191 0
M  V30 38 H 2.8856 -2.7161 -0.632 0
M  V30 39 H 3.6552 -1.7686 -1.918 0
M  V30 40 H 2.7483 0.3634 -0.8943 0
M  V30 41 H 3.901 -0.519 0.1278 0
M  V30 42 H 1.9894 0.4123 1.4008 0
M  V30 43 H 0.8204 -0.5526 0.4873 0
M  V30 44 H 1.9744 -1.2824 2.9146 0
M  V30 45 H 3.1054 -2.1124 1.808 0
M  V30 46 H 1.0766 -3.241 0.7058 0
M  V30 47 H 0.0347 -2.4417 1.9412 0
M  V30 48 H 1.2871 -3.6314 2.451 0
M  V30 END ATOM
M  V30 BEGIN BOND
M  V30 1 2 1 2
M  V30 2 2 1 3
M  V30 3 1 1 4
M  V30 4 1 1 5
M  V30 5 1 4 6
M  V30 6 1 4 7
M  V30 7 2 5 8
M  V30 8 1 5 9
M  V30 9 1 8 10
M  V30 10 2 9 11
M  V30 11 2 10 12
M  V30 12 1 12 13
M  V30 13 1 13 14
M  V30 14 1 13 15
M  V30 15 2 14 16
M  V30 16 1 14 17
M  V30 17 1 17 18
M  V30 18 1 18 19
M  V30 19 1 19 20
M  V30 20 1 20 21
M  V30 21 1 21 22
M  V30 22 1 11 12
M  V30 23 1 6 23
M  V30 24 1 6 24
M  V30 25 1 6 25
M  V30 26 1 7 26
M  V30 27 1 7 27
M  V30 28 1 7 28
M  V30 29 1 8 29
M  V30 30 1 9 30
M  V30 31 1 10 31
M  V30 32 1 11 32
M  V30 33 1 15 33
M  V30 34 1 15 34
M  V30 35 1 15 35
M  V30 36 1 17 36
M  V30 37 1 17 37
M  V30 38 1 18 38
M  V30 39 1 18 39
M  V30 40 1 19 40
M  V30 41 1 19 41
M  V30 42 1 20 42
M  V30 43 1 20 43
M  V30 44 1 21 44
M  V30 45 1 21 45
M  V30 46 1 22 46
M  V30 47 1 22 47
M  V30 48 1 22 48
M  V30 END BOND
M  V30 END CTAB
M  END
>  <Structure No>
6768

>  <LogS>
-3.68

>  <MMFF94 Energy>
-25.828

$$$$
Compound 6769
Actelion Java MolfileCreator 2.0

  0  0  0  0  0  0              0 V3000
M  V30 BEGIN CTAB
M  V30 COUNTS 48 48 0 0 0
M  V30 BEGIN ATOM
M  V30 1 S -0.2399 -0.96 0.88 0
M  V30 2 O 0.0327 -2.3814 0.4717 0
M  V30 3 O 0.2575 -0.7681 2.2855 0
M  V30 4 N 0.5962 0.1064 -0.2151 0
M  V30 5 C -1.9702 -0.6361 0.8222 0
M  V30 6 C 1.2189 1.3127 0.274 0
M  V30 7 C 0.5609 -0.2018 -1.6439 0
M  V30 8 C -2.8907 -1.6868 0.8934 0
M  V30 9 C -2.4345 0.6793 0.7202 0
M  V30 10 O 0.9309 1.7431 1.4228 0
M  V30 11 C 2.2531 2.0657 -0.5252 0
M  V30 12 C -4.2637 -1.427 0.8563 0
M  V30 13 C -3.8063 0.944 0.6844 0
M  V30 14 C 3.6785 1.7144 -0.0732 0
M  V30 15 C -4.7454 -0.1056 0.7516 0
M  V30 16 C 4.0718 0.2792 -0.4516 0
M  V30 17 N -6.1704 0.1657 0.7111 0
M  V30 18 C 5.5127 -0.0275 -0.0211 0
M  V30 19 C -6.6895 1.4834 1.1 0
M  V30 20 C -7.1137 -0.8682 0.2683 0
M  V30 21 C 5.9066 -1.489 -0.2827 0
M  V30 22 C 6.0432 -1.8095 -1.7698 0
M  V30 23 H 1.5824 -0.4334 -2.007 0
M  V30 24 H -0.0871 -1.0809 -1.8457 0
M  V30 25 H 0.1459 0.6612 -2.2057 0
M  V30 26 H -2.5487 -2.7107 0.9805 0
M  V30 27 H -1.7363 1.5041 0.6661 0
M  V30 28 H 2.093 3.1554 -0.3687 0
M  V30 29 H 2.1458 1.8902 -1.6154 0
M  V30 30 H -4.9431 -2.2643 0.9216 0
M  V30 31 H -4.1249 1.9736 0.5928 0
M  V30 32 H 4.383 2.4226 -0.5636 0
M  V30 33 H 3.7675 1.8554 1.0271 0
M  V30 34 H 3.3831 -0.439 0.0437 0
M  V30 35 H 3.9798 0.1622 -1.552 0
M  V30 36 H 5.6095 0.1632 1.0701 0
M  V30 37 H 6.2188 0.6518 -0.5464 0
M  V30 38 H -6.4501 2.2307 0.3139 0
M  V30 39 H -6.2387 1.7981 2.0662 0
M  V30 40 H -7.7916 1.4627 1.2371 0
M  V30 41 H -7.2116 -1.6505 1.0502 0
M  V30 42 H -8.1221 -0.4444 0.072 0
M  V30 43 H -6.7536 -1.3255 -0.6776 0
M  V30 44 H 5.1631 -2.173 0.1778 0
M  V30 45 H 6.8854 -1.6807 0.2051 0
M  V30 46 H 6.458 -2.8327 -1.8904 0
M  V30 47 H 5.0521 -1.7806 -2.2699 0
M  V30 48 H 6.7297 -1.0886 -2.2625 0
M  V30 END ATOM
M  V30 BEGIN BOND
M  V30 1 2 1 2
M  V30 2 2 1 3
M  V30 3 1 1 4
M  V30 4 1 1 5
M  V30 5 1 4 6
M  V30 6 1 4 7
M  V30 7 2 5 8
M  V30 8 1 5 9
M  V30 9 2 6 10
M  V30 10 1 6 11
M  V30 11 1 8 12
M  V30 12 2 9 13
M  V30 13 1 11 14
M  V30 14 2 12 15
M  V30 15 1 14 16
M  V30 16 1 15 17
M  V30 17 1 16 18
M  V30 18 1 17 19
M  V30 19 1 17 20
M  V30 20 1 18 21
M  V30 21 1 21 22
M  V30 22 1 13 15
M  V30 23 1 7 23
M  V30 24 1 7 24
M  V30 25 1 7 25
M  V30 26 1 8 26
M  V30 27 1 9 27
M  V30 28 1 11 28
M  V30 29 1 11 29
M  V30 30 1 12 30
M  V30 31 1 13 31
M  V30 32 1 14 32
M  V30 33 1 14 33
M  V30 34 1 16 34
M  V30 35 1 16 35
M  V30 36 1 18 36
M  V30 37 1 18 37
M  V30 38 1 19 38
M  V30 39 1 19 39
M  V30 40 1 19 40
M  V30 41 1 20 41
M  V30 42 1 20 42
M  V30 43 1 20 43
M  V30 44 1 21 44
M  V30 45 1 21 45
M  V30 46 1 22 46
M  V30 47 1 22 47
M  V30 48 1 22 48
M  V30 END BOND
M  V30 END CTAB
M  END
>  <Structure No>
6769

>  <LogS>
-3.68

>  <MMFF94 Energy>
-56.566

$$$$
Compound 6770
Actelion Java MolfileCreator 2.0

  0  0  0  0  0  0              0 V3000
M  V30 BEGIN CTAB
M  V30 COUNTS 51 51 0 0 0
M  V30 BEGIN ATOM
M  V30 1 S 4.5614 0.7191 -0.7191 0
M  V30 2 O 5.5211 0.0107 -1.634 0
M  V30 3 O 5.3371 1.2348 0.4598 0
M  V30 4 N 3.8372 2.0636 -1.5664 0
M  V30 5 C 3.3426 -0.4277 -0.1576 0
M  V30 6 C 3.0503 1.5734 -2.7051 0
M  V30 7 C 2.9763 2.8227 -0.6509 0
M  V30 8 C 2.8103 -0.3199 1.134 0
M  V30 9 C 2.8855 -1.442 -1.0108 0
M  V30 10 C 1.8291 -1.217 1.5678 0
M  V30 11 C 1.8955 -2.3304 -0.5835 0
M  V30 12 C 1.3565 -2.2225 0.7079 0
M  V30 13 N 0.3403 -3.1441 1.144 0
M  V30 14 C -0.8546 -3.343 0.3629 0
M  V30 15 C 0.4633 -3.7863 2.4571 0
M  V30 16 O -1.4371 -4.4608 0.3825 0
M  V30 17 C -1.4884 -2.2076 -0.3947 0
M  V30 18 C -2.4014 -1.4049 0.5382 0
M  V30 19 C -3.0023 -0.1904 -0.1781 0
M  V30 20 C -3.9373 0.5861 0.7596 0
M  V30 21 C -4.4875 1.8682 0.104 0
M  V30 22 C -3.7881 3.1528 0.5824 0
M  V30 23 C -2.3261 3.2382 0.1452 0
M  V30 24 H 2.6656 2.4283 -3.2972 0
M  V30 25 H 3.6882 0.9682 -3.3833 0
M  V30 26 H 2.1882 0.9562 -2.3724 0
M  V30 27 H 2.5415 3.6986 -1.1773 0
M  V30 28 H 2.149 2.1943 -0.2516 0
M  V30 29 H 3.5769 3.2158 0.1966 0
M  V30 30 H 3.1465 0.4636 1.8016 0
M  V30 31 H 3.2858 -1.5368 -2.0113 0
M  V30 32 H 1.4213 -1.1129 2.5654 0
M  V30 33 H 1.5467 -3.104 -1.2557 0
M  V30 34 H 1.5325 -3.944 2.7154 0
M  V30 35 H -0.0318 -4.7797 2.4606 0
M  V30 36 H -0.0067 -3.143 3.2306 0
M  V30 37 H -0.7131 -1.5453 -0.8328 0
M  V30 38 H -2.0874 -2.6188 -1.2375 0
M  V30 39 H -1.8155 -1.0559 1.4189 0
M  V30 40 H -3.2228 -2.0689 0.8942 0
M  V30 41 H -3.584 -0.535 -1.0589 0
M  V30 42 H -2.1832 0.4703 -0.5314 0
M  V30 43 H -3.4126 0.8273 1.7086 0
M  V30 44 H -4.7926 -0.0773 1.0209 0
M  V30 45 H -5.5645 1.9585 0.3711 0
M  V30 46 H -4.4449 1.8053 -1.0057 0
M  V30 47 H -4.3295 4.0239 0.1541 0
M  V30 48 H -3.8518 3.2321 1.6895 0
M  V30 49 H -2.2374 3.0799 -0.9508 0
M  V30 50 H -1.9268 4.2472 0.3888 0
M  V30 51 H -1.7188 2.4849 0.6854 0
M  V30 END ATOM
M  V30 BEGIN BOND
M  V30 1 2 1 2
M  V30 2 2 1 3
M  V30 3 1 1 4
M  V30 4 1 1 5
M  V30 5 1 4 6
M  V30 6 1 4 7
M  V30 7 2 5 8
M  V30 8 1 5 9
M  V30 9 1 8 10
M  V30 10 2 9 11
M  V30 11 2 10 12
M  V30 12 1 12 13
M  V30 13 1 13 14
M  V30 14 1 13 15
M  V30 15 2 14 16
M  V30 16 1 14 17
M  V30 17 1 17 18
M  V30 18 1 18 19
M  V30 19 1 19 20
M  V30 20 1 20 21
M  V30 21 1 21 22
M  V30 22 1 22 23
M  V30 23 1 11 12
M  V30 24 1 6 24
M  V30 25 1 6 25
M  V30 26 1 6 26
M  V30 27 1 7 27
M  V30 28 1 7 28
M  V30 29 1 7 29
M  V30 30 1 8 30
M  V30 31 1 9 31
M  V30 32 1 10 32
M  V30 33 1 11 33
M  V30 34 1 15 34
M  V30 35 1 15 35
M  V30 36 1 15 36
M  V30 37 1 17 37
M  V30 38 1 17 38
M  V30 39 1 18 39
M  V30 40 1 18 40
M  V30 41 1 19 41
M  V30 42 1 19 42
M  V30 43 1 20 43
M  V30 44 1 20 44
M  V30 45 1 21 45
M  V30 46 1 21 46
M  V30 47 1 22 47
M  V30 48 1 22 48
M  V30 49 1 23 49
M  V30 50 1 23 50
M  V30 51 1 23 51
M  V30 END BOND
M  V30 END CTAB
M  END
>  <Structure No>
6770

>  <LogS>
-3.59

>  <MMFF94 Energy>
-22.458

$$$$
Compound 6771
Actelion Java MolfileCreator 2.0

  0  0  0  0  0  0              0 V3000
M  V30 BEGIN CTAB
M  V30 COUNTS 32 33 0 0 0
M  V30 BEGIN ATOM
M  V30 1 O -1.3604 -1.7609 -1.5206 0
M  V30 2 C -1.1854 -0.5137 -1.4453 0
M  V30 3 N -2.2379 0.3672 -1.5577 0
M  V30 4 C 0.0831 0.0074 -1.2436 0
M  V30 5 C -2.0165 1.727 -1.4631 0
M  V30 6 C -3.6049 -0.1343 -1.7612 0
M  V30 7 C 0.267 1.3483 -1.1564 0
M  V30 8 C 1.3299 -0.547 -1.0773 0
M  V30 9 N -0.7586 2.2225 -1.2595 0
M  V30 10 O -4.0478 -0.8431 -0.6058 0
M  V30 11 N 1.5587 1.6484 -0.9433 0
M  V30 12 N 2.1972 0.4816 -0.9098 0
M  V30 13 C -4.3167 -0.2211 0.6175 0
M  V30 14 C 3.6208 0.3496 -0.6324 0
M  V30 15 O -4.2431 1.032 0.7353 0
M  V30 16 C -4.7481 -1.0468 1.781 0
M  V30 17 O 3.8131 0.1581 0.7646 0
M  V30 18 C 5.0781 -0.0053 1.3353 0
M  V30 19 O 6.1173 0.0361 0.6223 0
M  V30 20 C 5.2015 -0.1819 2.8106 0
M  V30 21 H -2.8407 2.4247 -1.5439 0
M  V30 22 H -3.619 -0.8241 -2.6317 0
M  V30 23 H -4.3169 0.6891 -1.9916 0
M  V30 24 H 1.5886 -1.5981 -1.0653 0
M  V30 25 H 4.1515 1.2692 -0.9618 0
M  V30 26 H 4.0332 -0.5183 -1.1921 0
M  V30 27 H -4.3796 -2.0874 1.6644 0
M  V30 28 H -4.3367 -0.6245 2.722 0
M  V30 29 H -5.8564 -1.0566 1.837 0
M  V30 30 H 4.2533 -0.5839 3.225 0
M  V30 31 H 6.0232 -0.8918 3.0421 0
M  V30 32 H 5.4189 0.7981 3.2834 0
M  V30 END ATOM
M  V30 BEGIN BOND
M  V30 1 2 1 2
M  V30 2 1 2 3
M  V30 3 1 2 4
M  V30 4 1 3 5
M  V30 5 1 3 6
M  V30 6 1 4 7
M  V30 7 2 4 8
M  V30 8 2 5 9
M  V30 9 1 6 10
M  V30 10 2 7 11
M  V30 11 1 8 12
M  V30 12 1 10 13
M  V30 13 1 12 14
M  V30 14 2 13 15
M  V30 15 1 13 16
M  V30 16 1 14 17
M  V30 17 1 17 18
M  V30 18 2 18 19
M  V30 19 1 18 20
M  V30 20 1 7 9
M  V30 21 1 11 12
M  V30 22 1 5 21
M  V30 23 1 6 22
M  V30 24 1 6 23
M  V30 25 1 8 24
M  V30 26 1 14 25
M  V30 27 1 14 26
M  V30 28 1 16 27
M  V30 29 1 16 28
M  V30 30 1 16 29
M  V30 31 1 20 30
M  V30 32 1 20 31
M  V30 33 1 20 32
M  V30 END BOND
M  V30 END CTAB
M  END
>  <Structure No>
6771

>  <LogS>
-1.99

>  <MMFF94 Energy>
-107.81

$$$$
Compound 6772
Actelion Java MolfileCreator 2.0

  0  0  0  0  0  0              0 V3000
M  V30 BEGIN CTAB
M  V30 COUNTS 43 43 0 0 0
M  V30 BEGIN ATOM
M  V30 1 O -1.3546 -2.9502 -0.717 0
M  V30 2 C -1.6065 -1.7132 -0.7258 0
M  V30 3 O -0.5537 -0.7898 -0.7242 0
M  V30 4 C -3.0161 -1.2428 -0.7449 0
M  V30 5 C 0.822 -1.1557 -0.6335 0
M  V30 6 C -3.3441 0.123 -0.5595 0
M  V30 7 C -4.0543 -2.1757 -0.9359 0
M  V30 8 C 1.2022 -1.529 0.7776 0
M  V30 9 O -2.3201 1.0629 -0.3585 0
M  V30 10 C -4.6934 0.5237 -0.6139 0
M  V30 11 C -5.3873 -1.7632 -0.9649 0
M  V30 12 O 0.3016 -1.5843 1.6601 0
M  V30 13 N 2.5702 -1.8306 1.137 0
M  V30 14 C -2.4237 2.2302 0.4087 0
M  V30 15 C -5.7057 -0.4158 -0.8102 0
M  V30 16 C 3.6718 -1.6623 0.1766 0
M  V30 17 C 2.8623 -2.2643 2.5075 0
M  V30 18 O -3.382 2.4012 1.2097 0
M  V30 19 C -1.3244 3.2358 0.3569 0
M  V30 20 C 3.9727 -0.21 -0.0232 0
M  V30 21 O 4.3332 0.2018 -1.1592 0
M  V30 22 O 3.8773 0.6716 1.0595 0
M  V30 23 C 3.9507 2.0886 0.9237 0
M  V30 24 C 2.6584 2.6335 0.3254 0
M  V30 25 H 1.0394 -1.9975 -1.3251 0
M  V30 26 H 1.4226 -0.2803 -0.9511 0
M  V30 27 H -3.8363 -3.2278 -1.0713 0
M  V30 28 H -4.9654 1.5671 -0.5314 0
M  V30 29 H -6.1749 -2.4899 -1.1172 0
M  V30 30 H -6.7394 -0.097 -0.8497 0
M  V30 31 H 3.4093 -2.1432 -0.7896 0
M  V30 32 H 4.596 -2.161 0.5373 0
M  V30 33 H 2.3329 -3.2172 2.719 0
M  V30 34 H 2.5229 -1.489 3.2266 0
M  V30 35 H 3.9494 -2.4248 2.6664 0
M  V30 36 H -0.7099 3.0821 -0.555 0
M  V30 37 H -0.6792 3.125 1.2528 0
M  V30 38 H -1.7497 4.2611 0.3353 0
M  V30 39 H 4.8201 2.3746 0.2927 0
M  V30 40 H 4.0932 2.5335 1.931 0
M  V30 41 H 2.6989 3.7425 0.2918 0
M  V30 42 H 2.5182 2.2498 -0.7065 0
M  V30 43 H 1.7932 2.3225 0.9484 0
M  V30 END ATOM
M  V30 BEGIN BOND
M  V30 1 2 1 2
M  V30 2 1 2 3
M  V30 3 1 2 4
M  V30 4 1 3 5
M  V30 5 2 4 6
M  V30 6 1 4 7
M  V30 7 1 5 8
M  V30 8 1 6 9
M  V30 9 1 6 10
M  V30 10 2 7 11
M  V30 11 2 8 12
M  V30 12 1 8 13
M  V30 13 1 9 14
M  V30 14 2 10 15
M  V30 15 1 13 16
M  V30 16 1 13 17
M  V30 17 2 14 18
M  V30 18 1 14 19
M  V30 19 1 16 20
M  V30 20 2 20 21
M  V30 21 1 20 22
M  V30 22 1 22 23
M  V30 23 1 23 24
M  V30 24 1 11 15
M  V30 25 1 5 25
M  V30 26 1 5 26
M  V30 27 1 7 27
M  V30 28 1 10 28
M  V30 29 1 11 29
M  V30 30 1 15 30
M  V30 31 1 16 31
M  V30 32 1 16 32
M  V30 33 1 17 33
M  V30 34 1 17 34
M  V30 35 1 17 35
M  V30 36 1 19 36
M  V30 37 1 19 37
M  V30 38 1 19 38
M  V30 39 1 23 39
M  V30 40 1 23 40
M  V30 41 1 24 41
M  V30 42 1 24 42
M  V30 43 1 24 43
M  V30 END BOND
M  V30 END CTAB
M  END
>  <Structure No>
6772

>  <LogS>
-2.55

>  <MMFF94 Energy>
62.016

$$$$
Compound 6773
Actelion Java MolfileCreator 2.0

  0  0  0  0  0  0              0 V3000
M  V30 BEGIN CTAB
M  V30 COUNTS 38 39 0 0 0
M  V30 BEGIN ATOM
M  V30 1 O 3.2684 0.1592 1.673 0
M  V30 2 C 3.0424 0.7587 0.5851 0
M  V30 3 O 3.6529 0.3332 -0.6 0
M  V30 4 C 2.0605 1.8982 0.5284 0 CFG=1
M  V30 5 C 4.4669 -0.8334 -0.6854 0
M  V30 6 C 0.6824 1.3875 0.1597 0
M  V30 7 C 2.0203 2.6974 1.8375 0
M  V30 8 C 3.615 -2.0644 -0.6166 0
M  V30 9 C 0.0372 0.4162 0.9484 0
M  V30 10 C 0.0286 1.8882 -0.9792 0
M  V30 11 O 2.9221 -2.3989 -1.6142 0
M  V30 12 N 3.5525 -2.8406 0.58 0
M  V30 13 C -1.2376 -0.054 0.5997 0
M  V30 14 C -1.2417 1.4259 -1.3321 0
M  V30 15 C -1.8834 0.4547 -0.5506 0
M  V30 16 C -1.8781 -1.0262 1.3809 0
M  V30 17 C -3.1591 -0.0164 -0.8998 0
M  V30 18 C -3.1466 -1.4903 1.0244 0
M  V30 19 C -3.7967 -0.9942 -0.1113 0
M  V30 20 O -5.0698 -1.497 -0.4202 0
M  V30 21 C -5.8456 -1.0896 -1.5427 0
M  V30 22 H 2.4222 2.596 -0.2592 0
M  V30 23 H 5.2312 -0.8309 0.1214 0
M  V30 24 H 5.0025 -0.8219 -1.6577 0
M  V30 25 H 1.6738 2.0678 2.685 0
M  V30 26 H 1.329 3.5611 1.7315 0
M  V30 27 H 3.0325 3.0895 2.0746 0
M  V30 28 H 0.5304 0.0249 1.8305 0
M  V30 29 H 0.5029 2.6385 -1.5997 0
M  V30 30 H 2.9427 -3.687 0.6266 0
M  V30 31 H 4.1093 -2.5726 1.4216 0
M  V30 32 H -1.722 1.8276 -2.2166 0
M  V30 33 H -1.3982 -1.4276 2.2655 0
M  V30 34 H -3.6479 0.3786 -1.781 0
M  V30 35 H -3.6294 -2.2423 1.6356 0
M  V30 36 H -6.07 -0.004 -1.4777 0
M  V30 37 H -5.3018 -1.3129 -2.4845 0
M  V30 38 H -6.8029 -1.6502 -1.5441 0
M  V30 END ATOM
M  V30 BEGIN BOND
M  V30 1 2 1 2
M  V30 2 1 2 3
M  V30 3 1 2 4
M  V30 4 1 3 5
M  V30 5 1 4 6
M  V30 6 1 4 7
M  V30 7 1 5 8
M  V30 8 2 6 9
M  V30 9 1 6 10
M  V30 10 2 8 11
M  V30 11 1 8 12
M  V30 12 1 9 13
M  V30 13 2 10 14
M  V30 14 1 13 15
M  V30 15 2 13 16
M  V30 16 2 15 17
M  V30 17 1 16 18
M  V30 18 1 17 19
M  V30 19 1 19 20
M  V30 20 1 20 21
M  V30 21 1 14 15
M  V30 22 2 18 19
M  V30 23 1 4 22
M  V30 24 1 5 23
M  V30 25 1 5 24
M  V30 26 1 7 25
M  V30 27 1 7 26
M  V30 28 1 7 27
M  V30 29 1 9 28
M  V30 30 1 10 29
M  V30 31 1 12 30
M  V30 32 1 12 31
M  V30 33 1 14 32
M  V30 34 1 16 33
M  V30 35 1 17 34
M  V30 36 1 18 35
M  V30 37 1 21 36
M  V30 38 1 21 37
M  V30 39 1 21 38
M  V30 END BOND
M  V30 BEGIN COLLECTION
M  V30 MDLV30/STEABS ATOMS=(1 4)
M  V30 END COLLECTION
M  V30 END CTAB
M  END
>  <Structure No>
6773

>  <LogS>
-3.93

>  <MMFF94 Energy>
41.893

$$$$
Compound 6774
Actelion Java MolfileCreator 2.0

  0  0  0  0  0  0              0 V3000
M  V30 BEGIN CTAB
M  V30 COUNTS 46 50 0 0 0
M  V30 BEGIN ATOM
M  V30 1 O -3.3392 -2.7685 1.5464 0
M  V30 2 C -2.2767 -2.324 1.1401 0
M  V30 3 C -2.2664 -1.5476 -0.1623 0 CFG=1
M  V30 4 C -1.016 -2.6232 1.938 0
M  V30 5 O -3.3537 -0.6173 -0.2503 0
M  V30 6 C -0.9765 -0.6903 -0.3883 0 CFG=1
M  V30 7 C 0.2619 -1.9471 1.3943 0
M  V30 8 C -2.8842 0.6466 -0.5622 0
M  V30 9 C -1.5243 0.66 -0.6571 0
M  V30 10 C -0.0697 -0.5361 0.8602 0 CFG=2
M  V30 11 C -0.2072 -1.214 -1.6367 0
M  V30 12 C -3.6237 1.8262 -0.6375 0
M  V30 13 C -0.7993 1.8477 -0.5192 0
M  V30 14 O -0.7684 0.1535 1.8827 0
M  V30 15 C 1.145 0.353 0.4047 0 CFG=2
M  V30 16 C 1.0991 -0.4563 -1.9143 0
M  V30 17 O -5.0152 1.7915 -0.6009 0
M  V30 18 C -2.9197 3.0467 -0.7139 0
M  V30 19 C -1.5111 3.0599 -0.6117 0
M  V30 20 C 0.6304 1.8019 0.01 0
M  V30 21 N 1.9161 -0.3131 -0.6908 0 CHG=1 CFG=1
M  V30 22 C 3.2078 0.3467 -1.0164 0
M  V30 23 C 4.1244 0.4609 0.1771 0
M  V30 24 C 4.6718 -0.6142 0.7507 0
M  V30 25 H -2.4018 -2.289 -0.9806 0
M  V30 26 H -1.1807 -2.279 2.9823 0
M  V30 27 H -0.8601 -3.7227 1.9731 0
M  V30 28 H 0.6977 -2.6004 0.6131 0
M  V30 29 H 1.0129 -1.8737 2.2107 0
M  V30 30 H -0.8549 -1.1382 -2.5386 0
M  V30 31 H 0.0277 -2.2923 -1.5117 0
M  V30 32 H -0.1482 0.2701 2.6499 0
M  V30 33 H 1.805 0.4635 1.2933 0
M  V30 34 H 0.8692 0.5361 -2.3603 0
M  V30 35 H 1.6646 -1.027 -2.6852 0
M  V30 36 H -5.5647 2.6418 -0.642 0
M  V30 37 H -3.4604 3.983 -0.7628 0
M  V30 38 H -0.99 4.0053 -0.5285 0
M  V30 39 H 0.6565 2.4224 0.9323 0
M  V30 40 H 1.2905 2.3143 -0.7122 0
M  V30 41 H 2.1682 -1.2788 -0.3791 0
M  V30 42 H 3.056 1.3537 -1.4535 0
M  V30 43 H 3.7444 -0.2408 -1.7959 0
M  V30 44 H 4.3604 1.4469 0.5662 0
M  V30 45 H 4.4705 -1.6129 0.3758 0
M  V30 46 H 5.333 -0.4967 1.603 0
M  V30 END ATOM
M  V30 BEGIN BOND
M  V30 1 2 1 2
M  V30 2 1 2 3
M  V30 3 1 2 4
M  V30 4 1 3 5
M  V30 5 1 3 6
M  V30 6 1 4 7
M  V30 7 1 5 8
M  V30 8 1 6 9
M  V30 9 1 6 10
M  V30 10 1 6 11
M  V30 11 1 8 12
M  V30 12 1 9 13
M  V30 13 1 10 14
M  V30 14 1 10 15
M  V30 15 1 11 16
M  V30 16 1 12 17
M  V30 17 2 12 18
M  V30 18 2 13 19
M  V30 19 1 13 20
M  V30 20 1 15 21
M  V30 21 1 21 22
M  V30 22 1 22 23
M  V30 23 2 23 24
M  V30 24 1 7 10
M  V30 25 2 8 9
M  V30 26 1 15 20
M  V30 27 1 16 21
M  V30 28 1 18 19
M  V30 29 1 3 25
M  V30 30 1 4 26
M  V30 31 1 4 27
M  V30 32 1 7 28
M  V30 33 1 7 29
M  V30 34 1 11 30
M  V30 35 1 11 31
M  V30 36 1 14 32
M  V30 37 1 15 33
M  V30 38 1 16 34
M  V30 39 1 16 35
M  V30 40 1 17 36
M  V30 41 1 18 37
M  V30 42 1 19 38
M  V30 43 1 20 39
M  V30 44 1 20 40
M  V30 45 1 21 41
M  V30 46 1 22 42
M  V30 47 1 22 43
M  V30 48 1 23 44
M  V30 49 1 24 45
M  V30 50 1 24 46
M  V30 END BOND
M  V30 BEGIN COLLECTION
M  V30 MDLV30/STEABS ATOMS=(5 3 6 10 15 21)
M  V30 END COLLECTION
M  V30 END CTAB
M  END
>  <Structure No>
6774

>  <LogS>
-3.39

>  <MMFF94 Energy>
114.36

$$$$
Compound 6775
Actelion Java MolfileCreator 2.0

  0  0  0  0  0  0              0 V3000
M  V30 BEGIN CTAB
M  V30 COUNTS 34 35 0 0 0
M  V30 BEGIN ATOM
M  V30 1 O 3.8808 -0.8883 -1.3731 0
M  V30 2 C 3.4962 -0.009 -0.5572 0
M  V30 3 N 2.4135 0.867 -0.8158 0
M  V30 4 C 4.1282 0.2173 0.7758 0
M  V30 5 C 2.2723 1.6611 0.348 0
M  V30 6 C 1.4313 0.7479 -1.8906 0
M  V30 7 C 3.2941 1.3589 1.3929 0
M  V30 8 O 1.3631 2.5222 0.4857 0
M  V30 9 O 0.225 0.1804 -1.3874 0
M  V30 10 C 0.0956 -1.1658 -1.0265 0
M  V30 11 O 1.0268 -1.9781 -1.2821 0
M  V30 12 C -1.1424 -1.6457 -0.3644 0
M  V30 13 C -2.0529 -0.7446 0.2381 0
M  V30 14 C -1.4232 -3.0253 -0.3382 0
M  V30 15 O -1.7568 0.6279 0.263 0
M  V30 16 C -3.2141 -1.2464 0.8578 0
M  V30 17 C -2.586 -3.5039 0.2678 0
M  V30 18 C -2.701 1.662 0.2524 0
M  V30 19 C -3.4788 -2.6165 0.8657 0
M  V30 20 O -3.8942 1.4501 -0.0953 0
M  V30 21 C -2.2552 3.0545 0.543 0
M  V30 22 H 4.0599 -0.7037 1.3936 0
M  V30 23 H 5.1892 0.5224 0.6505 0
M  V30 24 H 1.8312 0.1349 -2.7271 0
M  V30 25 H 1.2078 1.7597 -2.2884 0
M  V30 26 H 3.9236 2.2544 1.5837 0
M  V30 27 H 2.7975 1.027 2.33 0
M  V30 28 H -0.7473 -3.7366 -0.7964 0
M  V30 29 H -3.9002 -0.5844 1.3685 0
M  V30 30 H -2.7922 -4.5665 0.2786 0
M  V30 31 H -4.3724 -2.992 1.3476 0
M  V30 32 H -1.4503 3.039 1.3072 0
M  V30 33 H -3.1038 3.6584 0.9289 0
M  V30 34 H -1.8664 3.5194 -0.3866 0
M  V30 END ATOM
M  V30 BEGIN BOND
M  V30 1 2 1 2
M  V30 2 1 2 3
M  V30 3 1 2 4
M  V30 4 1 3 5
M  V30 5 1 3 6
M  V30 6 1 4 7
M  V30 7 2 5 8
M  V30 8 1 6 9
M  V30 9 1 9 10
M  V30 10 2 10 11
M  V30 11 1 10 12
M  V30 12 2 12 13
M  V30 13 1 12 14
M  V30 14 1 13 15
M  V30 15 1 13 16
M  V30 16 2 14 17
M  V30 17 1 15 18
M  V30 18 2 16 19
M  V30 19 2 18 20
M  V30 20 1 18 21
M  V30 21 1 5 7
M  V30 22 1 17 19
M  V30 23 1 4 22
M  V30 24 1 4 23
M  V30 25 1 6 24
M  V30 26 1 6 25
M  V30 27 1 7 26
M  V30 28 1 7 27
M  V30 29 1 14 28
M  V30 30 1 16 29
M  V30 31 1 17 30
M  V30 32 1 19 31
M  V30 33 1 21 32
M  V30 34 1 21 33
M  V30 35 1 21 34
M  V30 END BOND
M  V30 END CTAB
M  END
>  <Structure No>
6775

>  <LogS>
-2.77

>  <MMFF94 Energy>
-45.946

$$$$
Compound 6776
Actelion Java MolfileCreator 2.0

  0  0  0  0  0  0              0 V3000
M  V30 BEGIN CTAB
M  V30 COUNTS 38 39 0 0 0
M  V30 BEGIN ATOM
M  V30 1 O 2.6266 -0.3181 1.1136 0
M  V30 2 C 2.6285 -0.2735 -0.1468 0
M  V30 3 O 1.4271 -0.1689 -0.8598 0
M  V30 4 N 3.8617 -0.3434 -0.8752 0
M  V30 5 C 0.1875 0.1986 -0.3146 0
M  V30 6 C 5.1376 -0.6434 -0.284 0
M  V30 7 C -0.9774 -0.2951 -0.9149 0
M  V30 8 C 0.078 1.0753 0.7799 0
M  V30 9 C 6.295 -0.0427 -0.8043 0
M  V30 10 C 5.2617 -1.5737 0.7652 0
M  V30 11 C -2.2443 0.0353 -0.4094 0
M  V30 12 C -1.18 1.4291 1.2733 0
M  V30 13 C 7.55 -0.3352 -0.2616 0
M  V30 14 C 6.519 -1.8644 1.3047 0
M  V30 15 N -3.4185 -0.4816 -1.0589 0
M  V30 16 C -2.3371 0.9155 0.6831 0
M  V30 17 C 7.6614 -1.2423 0.795 0
M  V30 18 C -4.6392 -0.8085 -0.3815 0
M  V30 19 O -4.68 -0.8591 0.8786 0
M  V30 20 O -5.774 -1.1198 -1.1389 0
M  V30 21 C -7.0435 -1.4242 -0.564 0
M  V30 22 C -7.7237 -0.1571 -0.0585 0
M  V30 23 H 3.8365 -0.066 -1.8825 0
M  V30 24 H -0.8947 -0.9557 -1.7693 0
M  V30 25 H 0.956 1.518 1.2294 0
M  V30 26 H 6.2217 0.6605 -1.6245 0
M  V30 27 H 4.3959 -2.0955 1.1501 0
M  V30 28 H -1.2591 2.1178 2.1046 0
M  V30 29 H 8.4363 0.1396 -0.662 0
M  V30 30 H 6.6084 -2.5796 2.1121 0
M  V30 31 H -3.3605 -0.7128 -2.0763 0
M  V30 32 H -3.2999 1.2344 1.0593 0
M  V30 33 H 8.6336 -1.4699 1.2128 0
M  V30 34 H -7.6839 -1.8849 -1.3455 0
M  V30 35 H -6.9287 -2.1576 0.2636 0
M  V30 36 H -8.7322 -0.4059 0.3338 0
M  V30 37 H -7.1282 0.3037 0.7569 0
M  V30 38 H -7.8305 0.5724 -0.8888 0
M  V30 END ATOM
M  V30 BEGIN BOND
M  V30 1 2 1 2
M  V30 2 1 2 3
M  V30 3 1 2 4
M  V30 4 1 3 5
M  V30 5 1 4 6
M  V30 6 2 5 7
M  V30 7 1 5 8
M  V30 8 2 6 9
M  V30 9 1 6 10
M  V30 10 1 7 11
M  V30 11 2 8 12
M  V30 12 1 9 13
M  V30 13 2 10 14
M  V30 14 1 11 15
M  V30 15 2 11 16
M  V30 16 2 13 17
M  V30 17 1 15 18
M  V30 18 2 18 19
M  V30 19 1 18 20
M  V30 20 1 20 21
M  V30 21 1 21 22
M  V30 22 1 12 16
M  V30 23 1 14 17
M  V30 24 1 4 23
M  V30 25 1 7 24
M  V30 26 1 8 25
M  V30 27 1 9 26
M  V30 28 1 10 27
M  V30 29 1 12 28
M  V30 30 1 13 29
M  V30 31 1 14 30
M  V30 32 1 15 31
M  V30 33 1 16 32
M  V30 34 1 17 33
M  V30 35 1 21 34
M  V30 36 1 21 35
M  V30 37 1 22 36
M  V30 38 1 22 37
M  V30 39 1 22 38
M  V30 END BOND
M  V30 END CTAB
M  END
>  <Structure No>
6776

>  <LogS>
-4.52

>  <MMFF94 Energy>
-44.781

$$$$
Compound 6777
Actelion Java MolfileCreator 2.0

  0  0  0  0  0  0              0 V3000
M  V30 BEGIN CTAB
M  V30 COUNTS 35 37 0 0 0
M  V30 BEGIN ATOM
M  V30 1 O -1.8614 2.2664 -0.8089 0
M  V30 2 C -2.18 1.1251 -0.3812 0
M  V30 3 N -1.2581 0.0627 -0.1254 0
M  V30 4 C -3.5261 0.668 -0.1497 0
M  V30 5 C 0.1807 0.1444 -0.1389 0
M  V30 6 C -2.0297 -1.1329 0.2458 0
M  V30 7 C -3.4527 -0.6547 0.2246 0
M  V30 8 C -4.743 1.3395 -0.2604 0
M  V30 9 C 0.8391 1.3425 0.1879 0
M  V30 10 C 0.9501 -0.9886 -0.4501 0
M  V30 11 C -4.6101 -1.3802 0.512 0
M  V30 12 C -5.9185 0.6261 0.0275 0
M  V30 13 C 2.2352 1.4107 0.1825 0
M  V30 14 C 2.3458 -0.9208 -0.4571 0
M  V30 15 C -5.8523 -0.7288 0.4127 0
M  V30 16 C 3.0047 0.2814 -0.1426 0
M  V30 17 C 4.5179 0.3692 -0.1476 0 CFG=1
M  V30 18 C 5.1079 -0.5638 0.8756 0
M  V30 19 C 5.0872 0.1131 -1.5492 0
M  V30 20 O 5.2934 -1.7816 0.6098 0
M  V30 21 O 5.4038 -0.091 2.1481 0 CHG=-1
M  V30 22 H -1.7479 -1.476 1.2641 0
M  V30 23 H -1.8901 -1.9383 -0.5056 0
M  V30 24 H -4.7828 2.3793 -0.5585 0
M  V30 25 H 0.2798 2.2218 0.4754 0
M  V30 26 H 0.4731 -1.9262 -0.7016 0
M  V30 27 H -4.5534 -2.421 0.803 0
M  V30 28 H -6.8793 1.1185 -0.0477 0
M  V30 29 H 2.7145 2.3471 0.4402 0
M  V30 30 H 2.9111 -1.809 -0.7079 0
M  V30 31 H -6.763 -1.2713 0.6312 0
M  V30 32 H 4.8293 1.4 0.1341 0
M  V30 33 H 4.8493 -0.9128 -1.9018 0
M  V30 34 H 4.662 0.8443 -2.2697 0
M  V30 35 H 6.1914 0.2374 -1.5387 0
M  V30 END ATOM
M  V30 BEGIN BOND
M  V30 1 2 1 2
M  V30 2 1 2 3
M  V30 3 1 2 4
M  V30 4 1 3 5
M  V30 5 1 3 6
M  V30 6 2 4 7
M  V30 7 1 4 8
M  V30 8 2 5 9
M  V30 9 1 5 10
M  V30 10 1 7 11
M  V30 11 2 8 12
M  V30 12 1 9 13
M  V30 13 2 10 14
M  V30 14 2 11 15
M  V30 15 2 13 16
M  V30 16 1 16 17
M  V30 17 1 17 18
M  V30 18 1 17 19
M  V30 19 2 18 20
M  V30 20 1 18 21
M  V30 21 1 6 7
M  V30 22 1 12 15
M  V30 23 1 14 16
M  V30 24 1 6 22
M  V30 25 1 6 23
M  V30 26 1 8 24
M  V30 27 1 9 25
M  V30 28 1 10 26
M  V30 29 1 11 27
M  V30 30 1 12 28
M  V30 31 1 13 29
M  V30 32 1 14 30
M  V30 33 1 15 31
M  V30 34 1 17 32
M  V30 35 1 19 33
M  V30 36 1 19 34
M  V30 37 1 19 35
M  V30 END BOND
M  V30 BEGIN COLLECTION
M  V30 MDLV30/STEABS ATOMS=(1 17)
M  V30 END COLLECTION
M  V30 END CTAB
M  END
>  <Structure No>
6777

>  <LogS>
-4.72

>  <MMFF94 Energy>
81.239

$$$$
Compound 6778
Actelion Java MolfileCreator 2.0

  0  0  0  0  0  0              0 V3000
M  V30 BEGIN CTAB
M  V30 COUNTS 37 38 0 0 0
M  V30 BEGIN ATOM
M  V30 1 O -4.1457 -0.9555 4.0658 0
M  V30 2 C -3.5453 -0.8387 2.9658 0
M  V30 3 N -4.2017 -0.3844 1.8586 0
M  V30 4 C -2.2044 -1.1646 2.836 0
M  V30 5 C -3.5625 -0.2391 0.6513 0
M  V30 6 N -1.3413 -1.6193 3.7643 0
M  V30 7 C -1.5936 -1.0373 1.6369 0
M  V30 8 N -2.2384 -0.5849 0.5318 0
M  V30 9 N -4.3118 0.2273 -0.4803 0
M  V30 10 C -0.1861 -1.7566 3.0565 0
M  V30 11 N -0.3142 -1.4181 1.7479 0
M  V30 12 C -3.7479 0.9869 -1.5594 0
M  V30 13 C 0.7297 -1.3912 0.7294 0
M  V30 14 O -2.6081 1.5137 -1.4486 0
M  V30 15 C -4.5567 1.2448 -2.7884 0
M  V30 16 O 1.0831 -0.0494 0.4671 0
M  V30 17 C 2.1686 0.0124 -0.4387 0
M  V30 18 C 3.479 0.2124 0.3246 0
M  V30 19 O 4.579 0.2982 -0.5791 0
M  V30 20 C 4.8687 1.44 -1.3346 0
M  V30 21 O 4.1678 2.4827 -1.2256 0
M  V30 22 C 5.9975 1.4096 -2.3076 0
M  V30 23 H -1.7406 -0.5375 -0.3837 0
M  V30 24 H -5.3465 0.0811 -0.4719 0
M  V30 25 H 0.7411 -2.0968 3.4991 0
M  V30 26 H 1.608 -1.9727 1.0919 0
M  V30 27 H 0.3403 -1.8777 -0.193 0
M  V30 28 H -3.8921 1.4917 -3.6432 0
M  V30 29 H -5.1492 0.3425 -3.0479 0
M  V30 30 H -5.2465 2.0947 -2.6052 0
M  V30 31 H 2.2492 -0.8778 -1.1074 0
M  V30 32 H 2.0045 0.8868 -1.102 0
M  V30 33 H 3.4256 1.127 0.9551 0
M  V30 34 H 3.6466 -0.6555 0.9957 0
M  V30 35 H 6.5314 2.3831 -2.3017 0
M  V30 36 H 6.7136 0.6065 -2.0338 0
M  V30 37 H 5.6024 1.2135 -3.3259 0
M  V30 END ATOM
M  V30 BEGIN BOND
M  V30 1 2 1 2
M  V30 2 1 2 3
M  V30 3 1 2 4
M  V30 4 2 3 5
M  V30 5 1 4 6
M  V30 6 2 4 7
M  V30 7 1 5 8
M  V30 8 1 5 9
M  V30 9 2 6 10
M  V30 10 1 7 11
M  V30 11 1 9 12
M  V30 12 1 11 13
M  V30 13 2 12 14
M  V30 14 1 12 15
M  V30 15 1 13 16
M  V30 16 1 16 17
M  V30 17 1 17 18
M  V30 18 1 18 19
M  V30 19 1 19 20
M  V30 20 2 20 21
M  V30 21 1 20 22
M  V30 22 1 7 8
M  V30 23 1 10 11
M  V30 24 1 8 23
M  V30 25 1 9 24
M  V30 26 1 10 25
M  V30 27 1 13 26
M  V30 28 1 13 27
M  V30 29 1 15 28
M  V30 30 1 15 29
M  V30 31 1 15 30
M  V30 32 1 17 31
M  V30 33 1 17 32
M  V30 34 1 18 33
M  V30 35 1 18 34
M  V30 36 1 22 35
M  V30 37 1 22 36
M  V30 38 1 22 37
M  V30 END BOND
M  V30 END CTAB
M  END
>  <Structure No>
6778

>  <LogS>
-2.14

>  <MMFF94 Energy>
-18.656

$$$$
Compound 6779
Actelion Java MolfileCreator 2.0

  0  0  0  0  0  0              0 V3000
M  V30 BEGIN CTAB
M  V30 COUNTS 23 25 0 0 0
M  V30 BEGIN ATOM
M  V30 1 Cl 5.5409 -0.5778 0.165 0
M  V30 2 C 3.8294 -0.1949 0.2056 0
M  V30 3 C 2.893 -1.1283 -0.2556 0
M  V30 4 C 3.4026 1.0433 0.6992 0
M  V30 5 C 1.5207 -0.8225 -0.2235 0
M  V30 6 C 2.0401 1.3543 0.7341 0
M  V30 7 N 0.5731 -1.7019 -0.6627 0 CHG=1
M  V30 8 C 1.0998 0.4261 0.2748 0
M  V30 9 O 0.9331 -2.9345 -1.1585 0 CHG=-1
M  V30 10 N -0.7212 -1.381 -0.6187 0
M  V30 11 N -0.2236 0.7186 0.3047 0
M  V30 12 C -1.1412 -0.1786 -0.1399 0
M  V30 13 N -2.5393 0.1385 -0.1048 0
M  V30 14 C -3.562 -0.6416 -0.5074 0
M  V30 15 C -3.1017 1.2762 0.3366 0
M  V30 16 N -4.7615 -0.046 -0.3404 0
M  V30 17 C -4.4655 1.1585 0.19 0
M  V30 18 H 3.2384 -2.0817 -0.6343 0
M  V30 19 H 4.126 1.7653 1.0559 0
M  V30 20 H 1.718 2.3146 1.1176 0
M  V30 21 H -3.4434 -1.6355 -0.9193 0
M  V30 22 H -2.5657 2.1282 0.7349 0
M  V30 23 H -5.2018 1.9057 0.4539 0
M  V30 END ATOM
M  V30 BEGIN BOND
M  V30 1 1 1 2
M  V30 2 2 2 3
M  V30 3 1 2 4
M  V30 4 1 3 5
M  V30 5 2 4 6
M  V30 6 2 5 7
M  V30 7 1 5 8
M  V30 8 1 7 9
M  V30 9 1 7 10
M  V30 10 2 8 11
M  V30 11 2 10 12
M  V30 12 1 12 13
M  V30 13 1 13 14
M  V30 14 1 13 15
M  V30 15 2 14 16
M  V30 16 2 15 17
M  V30 17 1 6 8
M  V30 18 1 11 12
M  V30 19 1 16 17
M  V30 20 1 3 18
M  V30 21 1 4 19
M  V30 22 1 6 20
M  V30 23 1 14 21
M  V30 24 1 15 22
M  V30 25 1 17 23
M  V30 END BOND
M  V30 END CTAB
M  END
>  <Structure No>
6779

>  <LogS>
-3.63

>  <MMFF94 Energy>
-17.53

$$$$
Compound 6780
Actelion Java MolfileCreator 2.0

  0  0  0  0  0  0              0 V3000
M  V30 BEGIN CTAB
M  V30 COUNTS 30 31 0 0 0
M  V30 BEGIN ATOM
M  V30 1 S 0.5721 -2.6173 -1.0626 0
M  V30 2 O 0.9314 -4.0494 -0.7845 0
M  V30 3 O 0.8418 -2.3212 -2.5117 0
M  V30 4 N -1.1103 -2.3734 -0.736 0 CHG=-1
M  V30 5 C 1.5336 -1.5729 -0.0205 0
M  V30 6 C -1.7089 -1.0778 -0.7661 0
M  V30 7 C 1.4224 -1.6921 1.3708 0
M  V30 8 C 2.3885 -0.6049 -0.5669 0
M  V30 9 O -2.9784 -0.8708 -0.4978 0
M  V30 10 N -1.0325 0.0518 -1.0703 0
M  V30 11 C 2.1624 -0.854 2.2106 0
M  V30 12 C 3.1264 0.235 0.273 0
M  V30 13 C -3.1787 0.4176 -0.618 0
M  V30 14 C -1.9782 1.0046 -0.9606 0
M  V30 15 C 3.0171 0.1145 1.6656 0
M  V30 16 C -4.4896 1.0991 -0.4037 0
M  V30 17 C -1.7412 2.4524 -1.2416 0
M  V30 18 N 3.7695 0.9756 2.5243 0
M  V30 19 H 0.7597 -2.4309 1.8044 0
M  V30 20 H 2.4822 -0.4941 -1.6393 0
M  V30 21 H 2.0675 -0.9576 3.284 0
M  V30 22 H 3.7804 0.981 -0.1607 0
M  V30 23 H -4.7328 1.7296 -1.2844 0
M  V30 24 H -4.4336 1.737 0.5029 0
M  V30 25 H -5.2919 0.3435 -0.2687 0
M  V30 26 H -2.1719 2.7137 -2.2309 0
M  V30 27 H -2.2189 3.0734 -0.4538 0
M  V30 28 H -0.6512 2.6647 -1.2512 0
M  V30 29 H 4.4027 1.7053 2.1276 0
M  V30 30 H 3.6981 0.8913 3.5632 0
M  V30 END ATOM
M  V30 BEGIN BOND
M  V30 1 2 1 2
M  V30 2 2 1 3
M  V30 3 1 1 4
M  V30 4 1 1 5
M  V30 5 1 4 6
M  V30 6 2 5 7
M  V30 7 1 5 8
M  V30 8 1 6 9
M  V30 9 2 6 10
M  V30 10 1 7 11
M  V30 11 2 8 12
M  V30 12 1 9 13
M  V30 13 1 10 14
M  V30 14 2 11 15
M  V30 15 1 13 16
M  V30 16 1 14 17
M  V30 17 1 15 18
M  V30 18 1 12 15
M  V30 19 2 13 14
M  V30 20 1 7 19
M  V30 21 1 8 20
M  V30 22 1 11 21
M  V30 23 1 12 22
M  V30 24 1 16 23
M  V30 25 1 16 24
M  V30 26 1 16 25
M  V30 27 1 17 26
M  V30 28 1 17 27
M  V30 29 1 17 28
M  V30 30 1 18 29
M  V30 31 1 18 30
M  V30 END BOND
M  V30 END CTAB
M  END
>  <Structure No>
6780

>  <LogS>
-2.22

>  <MMFF94 Energy>
41.624

$$$$
Compound 6781
Actelion Java MolfileCreator 2.0

  0  0  0  0  0  0              0 V3000
M  V30 BEGIN CTAB
M  V30 COUNTS 23 24 0 0 0
M  V30 BEGIN ATOM
M  V30 1 Cl 3.7062 1.8519 1.7637 0
M  V30 2 C 3.0298 0.5851 0.7394 0
M  V30 3 C 1.7829 0.7707 0.1106 0
M  V30 4 C 3.7405 -0.6123 0.5411 0
M  V30 5 Cl 0.923 2.3013 0.2831 0
M  V30 6 C 1.2484 -0.2519 -0.7 0
M  V30 7 Cl 5.3001 -0.8881 1.3064 0
M  V30 8 C 3.2138 -1.6078 -0.2861 0
M  V30 9 O 0.0076 -0.1137 -1.334 0
M  V30 10 C 1.9784 -1.4253 -0.9076 0
M  V30 11 C -1.2108 0.073 -0.6639 0
M  V30 12 C -2.3205 0.5032 -1.4001 0
M  V30 13 C -1.3548 -0.1809 0.7125 0
M  V30 14 C -3.5582 0.6996 -0.7758 0
M  V30 15 C -2.5886 0.014 1.3385 0
M  V30 16 Cl -4.921 1.25 -1.7411 0
M  V30 17 C -3.6924 0.4558 0.6013 0
M  V30 18 Cl -5.2285 0.6901 1.4243 0
M  V30 19 H 3.7619 -2.5272 -0.4477 0
M  V30 20 H 1.5783 -2.2054 -1.5426 0
M  V30 21 H -2.217 0.691 -2.4614 0
M  V30 22 H -0.5191 -0.5355 1.3012 0
M  V30 23 H -2.6864 -0.182 2.3987 0
M  V30 END ATOM
M  V30 BEGIN BOND
M  V30 1 1 1 2
M  V30 2 2 2 3
M  V30 3 1 2 4
M  V30 4 1 3 5
M  V30 5 1 3 6
M  V30 6 1 4 7
M  V30 7 2 4 8
M  V30 8 1 6 9
M  V30 9 2 6 10
M  V30 10 1 9 11
M  V30 11 2 11 12
M  V30 12 1 11 13
M  V30 13 1 12 14
M  V30 14 2 13 15
M  V30 15 1 14 16
M  V30 16 2 14 17
M  V30 17 1 17 18
M  V30 18 1 8 10
M  V30 19 1 15 17
M  V30 20 1 8 19
M  V30 21 1 10 20
M  V30 22 1 12 21
M  V30 23 1 13 22
M  V30 24 1 15 23
M  V30 END BOND
M  V30 END CTAB
M  END
>  <Structure No>
6781

>  <LogS>
-7.67

>  <MMFF94 Energy>
61.473

$$$$
Compound 6782
Actelion Java MolfileCreator 2.0

  0  0  0  0  0  0              0 V3000
M  V30 BEGIN CTAB
M  V30 COUNTS 33 34 0 0 0
M  V30 BEGIN ATOM
M  V30 1 Cl -2.9387 2.6936 1.0604 0
M  V30 2 C -3.8326 1.3177 0.4201 0
M  V30 3 C -3.2041 0.0832 0.1388 0
M  V30 4 C -5.215 1.453 0.2392 0
M  V30 5 C -1.7445 -0.1023 0.3013 0
M  V30 6 C -3.9863 -0.998 -0.304 0
M  V30 7 C -5.9772 0.3738 -0.2129 0
M  V30 8 C -0.8399 0.7177 -0.3893 0
M  V30 9 C -1.2508 -1.1304 1.1176 0
M  V30 10 C -5.3644 -0.8509 -0.481 0
M  V30 11 C 0.5376 0.5296 -0.2467 0
M  V30 12 C 0.1263 -1.3205 1.261 0
M  V30 13 C 1.0388 -0.487 0.5883 0
M  V30 14 C 2.5004 -0.7031 0.7445 0
M  V30 15 O 2.9158 -1.773 1.2685 0
M  V30 16 C 3.4741 0.3496 0.3749 0
M  V30 17 C 4.7175 0.1275 -0.0967 0
M  V30 18 C 5.2144 -1.2179 -0.4682 0
M  V30 19 C 5.6536 1.2985 -0.2356 0
M  V30 20 O 6.4398 -1.4883 -0.3616 0
M  V30 21 O 4.3561 -2.1737 -0.9994 0 CHG=-1
M  V30 22 H -5.7024 2.3948 0.4581 0
M  V30 23 H -3.5259 -1.9534 -0.5252 0
M  V30 24 H -7.0452 0.4854 -0.3494 0
M  V30 25 H -1.2015 1.4955 -1.0508 0
M  V30 26 H -1.9331 -1.7805 1.6516 0
M  V30 27 H -5.9573 -1.6872 -0.8281 0
M  V30 28 H 1.2052 1.1705 -0.8075 0
M  V30 29 H 0.4764 -2.1168 1.9061 0
M  V30 30 H 3.1647 1.3734 0.5526 0
M  V30 31 H 6.1209 1.5171 0.7474 0
M  V30 32 H 6.4543 1.0811 -0.9741 0
M  V30 33 H 5.1097 2.2013 -0.5885 0
M  V30 END ATOM
M  V30 BEGIN BOND
M  V30 1 1 1 2
M  V30 2 2 2 3
M  V30 3 1 2 4
M  V30 4 1 3 5
M  V30 5 1 3 6
M  V30 6 2 4 7
M  V30 7 2 5 8
M  V30 8 1 5 9
M  V30 9 2 6 10
M  V30 10 1 8 11
M  V30 11 2 9 12
M  V30 12 2 11 13
M  V30 13 1 13 14
M  V30 14 2 14 15
M  V30 15 1 14 16
M  V30 16 2 16 17
M  V30 17 1 17 18
M  V30 18 1 17 19
M  V30 19 2 18 20
M  V30 20 1 18 21
M  V30 21 1 7 10
M  V30 22 1 12 13
M  V30 23 1 4 22
M  V30 24 1 6 23
M  V30 25 1 7 24
M  V30 26 1 8 25
M  V30 27 1 9 26
M  V30 28 1 10 27
M  V30 29 1 11 28
M  V30 30 1 12 29
M  V30 31 1 16 30
M  V30 32 1 19 31
M  V30 33 1 19 32
M  V30 34 1 19 33
M  V30 END BOND
M  V30 END CTAB
M  END
>  <Structure No>
6782

>  <LogS>
-3.2

>  <MMFF94 Energy>
66.238

$$$$
Compound 6783
Actelion Java MolfileCreator 2.0

  0  0  0  0  0  0              0 V3000
M  V30 BEGIN CTAB
M  V30 COUNTS 42 43 0 0 0
M  V30 BEGIN ATOM
M  V30 1 O 6.0488 -1.1916 2.3047 0
M  V30 2 C 5.5982 -0.7347 1.222 0
M  V30 3 N 6.2533 0.263 0.5599 0
M  V30 4 C 4.4262 -1.2216 0.6632 0
M  V30 5 C 5.7693 0.773 -0.6181 0
M  V30 6 C 3.961 -0.7074 -0.5032 0
M  V30 7 C 3.5127 -2.1843 1.0381 0
M  V30 8 N 4.6093 0.2897 -1.1607 0
M  V30 9 N 2.8123 -1.3251 -0.8415 0
M  V30 10 N 2.5323 -2.2229 0.1004 0
M  V30 11 C 1.9397 -1.0623 -1.9839 0
M  V30 12 O 0.722 -0.4722 -1.5387 0
M  V30 13 C 0.645 0.8185 -1.0064 0
M  V30 14 O 1.6651 1.5576 -0.9511 0
M  V30 15 C -0.655 1.3028 -0.4519 0
M  V30 16 C -0.8207 0.8445 0.9987 0
M  V30 17 C -2.1837 1.2237 1.507 0
M  V30 18 O -2.3291 2.3471 2.0621 0
M  V30 19 N -3.3382 0.3895 1.2735 0
M  V30 20 C -3.2515 -1.0736 1.3848 0
M  V30 21 C -4.6413 1.0179 1.012 0
M  V30 22 C -3.1003 -1.7172 0.0103 0
M  V30 23 C -4.6294 1.7439 -0.3305 0
M  V30 24 H 6.3102 1.5653 -1.1188 0
M  V30 25 H 3.5453 -2.8043 1.9241 0
M  V30 26 H 4.2483 0.6895 -2.0531 0
M  V30 27 H 2.4292 -0.4093 -2.7349 0
M  V30 28 H 1.7036 -2.0247 -2.4842 0
M  V30 29 H -1.481 0.8992 -1.0761 0
M  V30 30 H -0.6968 2.4134 -0.5059 0
M  V30 31 H -0.045 1.3287 1.6321 0
M  V30 32 H -0.6627 -0.2514 1.0717 0
M  V30 33 H -2.4048 -1.3685 2.04 0
M  V30 34 H -4.1691 -1.4719 1.8699 0
M  V30 35 H -5.4499 0.2539 0.9867 0
M  V30 36 H -4.8872 1.735 1.8258 0
M  V30 37 H -3.0689 -2.8216 0.1202 0
M  V30 38 H -3.9628 -1.4501 -0.6367 0
M  V30 39 H -2.1611 -1.384 -0.4758 0
M  V30 40 H -4.37 1.0354 -1.1458 0
M  V30 41 H -5.634 2.1707 -0.5323 0
M  V30 42 H -3.8897 2.5718 -0.3189 0
M  V30 END ATOM
M  V30 BEGIN BOND
M  V30 1 2 1 2
M  V30 2 1 2 3
M  V30 3 1 2 4
M  V30 4 2 3 5
M  V30 5 2 4 6
M  V30 6 1 4 7
M  V30 7 1 5 8
M  V30 8 1 6 9
M  V30 9 2 7 10
M  V30 10 1 9 11
M  V30 11 1 11 12
M  V30 12 1 12 13
M  V30 13 2 13 14
M  V30 14 1 13 15
M  V30 15 1 15 16
M  V30 16 1 16 17
M  V30 17 2 17 18
M  V30 18 1 17 19
M  V30 19 1 19 20
M  V30 20 1 19 21
M  V30 21 1 20 22
M  V30 22 1 21 23
M  V30 23 1 6 8
M  V30 24 1 9 10
M  V30 25 1 5 24
M  V30 26 1 7 25
M  V30 27 1 8 26
M  V30 28 1 11 27
M  V30 29 1 11 28
M  V30 30 1 15 29
M  V30 31 1 15 30
M  V30 32 1 16 31
M  V30 33 1 16 32
M  V30 34 1 20 33
M  V30 35 1 20 34
M  V30 36 1 21 35
M  V30 37 1 21 36
M  V30 38 1 22 37
M  V30 39 1 22 38
M  V30 40 1 22 39
M  V30 41 1 23 40
M  V30 42 1 23 41
M  V30 43 1 23 42
M  V30 END BOND
M  V30 END CTAB
M  END
>  <Structure No>
6783

>  <LogS>
-0.99

>  <MMFF94 Energy>
-36.351

$$$$
Compound 6784
Actelion Java MolfileCreator 2.0

  0  0  0  0  0  0              0 V3000
M  V30 BEGIN CTAB
M  V30 COUNTS 44 45 0 0 0
M  V30 BEGIN ATOM
M  V30 1 O 1.2724 -0.477 2.7054 0
M  V30 2 C 1.3772 -1.0932 1.6109 0
M  V30 3 O 2.4702 -0.8575 0.7665 0
M  V30 4 C 0.2917 -2.0491 1.1954 0 CFG=1
M  V30 5 C 3.4813 0.0987 1.0697 0
M  V30 6 C -0.7972 -1.3156 0.4369 0
M  V30 7 C 0.8481 -3.216 0.3673 0
M  V30 8 C 4.5512 0.0868 0.0104 0
M  V30 9 C -2.1234 -1.3457 0.9055 0
M  V30 10 C -0.5046 -0.611 -0.7478 0
M  V30 11 O 4.4693 -0.7436 -0.9366 0
M  V30 12 N 5.6807 0.9848 0.0774 0
M  V30 13 C -3.1435 -0.6824 0.2037 0
M  V30 14 C -1.5145 0.0515 -1.4514 0
M  V30 15 C 6.7912 0.8119 -0.8656 0
M  V30 16 C 5.7171 2.0633 1.0726 0
M  V30 17 C -2.8366 0.0211 -0.9846 0
M  V30 18 C -4.4667 -0.7127 0.6686 0
M  V30 19 C -3.8575 0.6799 -1.6863 0
M  V30 20 C -5.4776 -0.0546 -0.0388 0
M  V30 21 C -5.1786 0.6456 -1.2231 0
M  V30 22 O -6.1598 1.3158 -1.9668 0
M  V30 23 C -7.5412 1.3614 -1.6227 0
M  V30 24 H -0.1315 -2.4934 2.1251 0
M  V30 25 H 3.0234 1.1077 1.1235 0
M  V30 26 H 3.9437 -0.1511 2.0513 0
M  V30 27 H 1.632 -3.7534 0.9429 0
M  V30 28 H 0.0343 -3.9352 0.1324 0
M  V30 29 H 1.2908 -2.8579 -0.5871 0
M  V30 30 H -2.3617 -1.8874 1.8153 0
M  V30 31 H 0.5085 -0.5748 -1.1297 0
M  V30 32 H -1.2614 0.5848 -2.3621 0
M  V30 33 H 7.214 -0.2093 -0.7593 0
M  V30 34 H 6.4258 0.9495 -1.9074 0
M  V30 35 H 7.6066 1.5438 -0.685 0
M  V30 36 H 4.8537 2.7442 0.9197 0
M  V30 37 H 6.6447 2.6666 0.9902 0
M  V30 38 H 5.677 1.6364 2.0977 0
M  V30 39 H -4.7197 -1.2465 1.5776 0
M  V30 40 H -3.6314 1.2215 -2.5971 0
M  V30 41 H -6.4885 -0.0974 0.3437 0
M  V30 42 H -8.087 1.9466 -2.3915 0
M  V30 43 H -7.962 0.3351 -1.593 0
M  V30 44 H -7.6734 1.857 -0.6388 0
M  V30 END ATOM
M  V30 BEGIN BOND
M  V30 1 2 1 2
M  V30 2 1 2 3
M  V30 3 1 2 4
M  V30 4 1 3 5
M  V30 5 1 4 6
M  V30 6 1 4 7
M  V30 7 1 5 8
M  V30 8 2 6 9
M  V30 9 1 6 10
M  V30 10 2 8 11
M  V30 11 1 8 12
M  V30 12 1 9 13
M  V30 13 2 10 14
M  V30 14 1 12 15
M  V30 15 1 12 16
M  V30 16 1 13 17
M  V30 17 2 13 18
M  V30 18 2 17 19
M  V30 19 1 18 20
M  V30 20 1 19 21
M  V30 21 1 21 22
M  V30 22 1 22 23
M  V30 23 1 14 17
M  V30 24 2 20 21
M  V30 25 1 4 24
M  V30 26 1 5 25
M  V30 27 1 5 26
M  V30 28 1 7 27
M  V30 29 1 7 28
M  V30 30 1 7 29
M  V30 31 1 9 30
M  V30 32 1 10 31
M  V30 33 1 14 32
M  V30 34 1 15 33
M  V30 35 1 15 34
M  V30 36 1 15 35
M  V30 37 1 16 36
M  V30 38 1 16 37
M  V30 39 1 16 38
M  V30 40 1 18 39
M  V30 41 1 19 40
M  V30 42 1 20 41
M  V30 43 1 23 42
M  V30 44 1 23 43
M  V30 45 1 23 44
M  V30 END BOND
M  V30 BEGIN COLLECTION
M  V30 MDLV30/STEABS ATOMS=(1 4)
M  V30 END COLLECTION
M  V30 END CTAB
M  END
>  <Structure No>
6784

>  <LogS>
-4.9

>  <MMFF94 Energy>
56.264

$$$$
Compound 6785
Actelion Java MolfileCreator 2.0

  0  0  0  0  0  0              0 V3000
M  V30 BEGIN CTAB
M  V30 COUNTS 42 43 0 0 0
M  V30 BEGIN ATOM
M  V30 1 O 2.2273 -0.1589 3.1033 0
M  V30 2 C 2.6568 0.279 2.0004 0
M  V30 3 O 3.6023 1.309 1.9689 0
M  V30 4 C 2.1674 -0.2969 0.7366 0
M  V30 5 C 4.1141 1.9158 3.1494 0
M  V30 6 N 2.6823 0.1115 -0.3831 0
M  V30 7 C 1.1198 -1.3454 0.7489 0
M  V30 8 O 2.2699 -0.387 -1.5996 0
M  V30 9 C -0.2105 -1.0801 1.1656 0
M  V30 10 C 1.4708 -2.6427 0.3399 0
M  V30 11 C 2.8195 0.1167 -2.8046 0
M  V30 12 C -1.1371 -2.1381 1.205 0
M  V30 13 C -0.6715 0.2991 1.5875 0
M  V30 14 C 0.5303 -3.6735 0.3647 0
M  V30 15 C -0.7692 -3.4231 0.8025 0
M  V30 16 O -1.9254 0.6223 0.9837 0
M  V30 17 C -2.1283 0.8663 -0.3865 0
M  V30 18 C -3.4481 0.9964 -0.8643 0
M  V30 19 C -1.0544 0.9847 -1.2912 0
M  V30 20 C -3.6754 1.2258 -2.2319 0
M  V30 21 C -4.6092 0.8658 0.0808 0
M  V30 22 C -1.2932 1.2147 -2.6476 0
M  V30 23 C -2.6013 1.3337 -3.1175 0
M  V30 24 H 4.8441 2.7022 2.868 0
M  V30 25 H 3.2872 2.3819 3.7263 0
M  V30 26 H 4.6272 1.1556 3.7759 0
M  V30 27 H 2.4808 -2.8584 0.0126 0
M  V30 28 H 3.9169 -0.0503 -2.8163 0
M  V30 29 H 2.6059 1.2031 -2.8886 0
M  V30 30 H 2.3601 -0.4113 -3.6652 0
M  V30 31 H -2.1528 -1.9648 1.5396 0
M  V30 32 H -0.8038 0.2974 2.6896 0
M  V30 33 H 0.0624 1.0961 1.3518 0
M  V30 34 H 0.8126 -4.6706 0.0518 0
M  V30 35 H -1.4946 -4.2261 0.8288 0
M  V30 36 H -0.0318 0.9071 -0.9572 0
M  V30 37 H -4.6842 1.3199 -2.6147 0
M  V30 38 H -5.578 1.0435 -0.4329 0
M  V30 39 H -4.5103 1.6075 0.9015 0
M  V30 40 H -4.623 -0.1564 0.5141 0
M  V30 41 H -0.4616 1.3019 -3.3352 0
M  V30 42 H -2.7834 1.511 -4.1698 0
M  V30 END ATOM
M  V30 BEGIN BOND
M  V30 1 2 1 2
M  V30 2 1 2 3
M  V30 3 1 2 4
M  V30 4 1 3 5
M  V30 5 2 4 6
M  V30 6 1 4 7
M  V30 7 1 6 8
M  V30 8 2 7 9
M  V30 9 1 7 10
M  V30 10 1 8 11
M  V30 11 1 9 12
M  V30 12 1 9 13
M  V30 13 2 10 14
M  V30 14 2 12 15
M  V30 15 1 13 16
M  V30 16 1 16 17
M  V30 17 2 17 18
M  V30 18 1 17 19
M  V30 19 1 18 20
M  V30 20 1 18 21
M  V30 21 2 19 22
M  V30 22 2 20 23
M  V30 23 1 14 15
M  V30 24 1 22 23
M  V30 25 1 5 24
M  V30 26 1 5 25
M  V30 27 1 5 26
M  V30 28 1 10 27
M  V30 29 1 11 28
M  V30 30 1 11 29
M  V30 31 1 11 30
M  V30 32 1 12 31
M  V30 33 1 13 32
M  V30 34 1 13 33
M  V30 35 1 14 34
M  V30 36 1 15 35
M  V30 37 1 19 36
M  V30 38 1 20 37
M  V30 39 1 21 38
M  V30 40 1 21 39
M  V30 41 1 21 40
M  V30 42 1 22 41
M  V30 43 1 23 42
M  V30 END BOND
M  V30 END CTAB
M  END
>  <Structure No>
6785

>  <LogS>
-5.19

>  <MMFF94 Energy>
111.27

$$$$
Compound 6786
Actelion Java MolfileCreator 2.0

  0  0  0  0  0  0              0 V3000
M  V30 BEGIN CTAB
M  V30 COUNTS 33 35 0 0 0
M  V30 BEGIN ATOM
M  V30 1 O -1.782 -0.8097 -3.2419 0
M  V30 2 C -1.3708 -0.5093 -2.089 0
M  V30 3 C -2.3192 -0.2438 -0.98 0
M  V30 4 C 0.1041 -0.3553 -1.851 0
M  V30 5 C -1.7856 -0.0545 0.3095 0
M  V30 6 C -3.7134 -0.1415 -1.175 0
M  V30 7 C 0.4577 -0.8022 -0.4235 0 CFG=2
M  V30 8 O -0.4083 -0.1784 0.5283 0
M  V30 9 C -2.6251 0.264 1.3802 0
M  V30 10 O -4.271 -0.3282 -2.4397 0
M  V30 11 C -4.5469 0.1598 -0.0874 0
M  V30 12 C 1.8968 -0.4794 -0.1035 0
M  V30 13 C -4.0071 0.368 1.185 0
M  V30 14 C 2.2773 0.8311 0.235 0
M  V30 15 C 2.8817 -1.4761 -0.1956 0
M  V30 16 O -4.8529 0.676 2.2483 0
M  V30 17 C 3.6199 1.1353 0.5019 0
M  V30 18 C 4.2197 -1.1736 0.0709 0
M  V30 19 O 3.9944 2.4332 0.8447 0
M  V30 20 C 4.5923 0.1306 0.422 0
M  V30 21 O 5.9256 0.436 0.6893 0
M  V30 22 H 0.3718 0.7136 -1.9965 0
M  V30 23 H 0.6739 -0.9666 -2.5846 0
M  V30 24 H 0.2976 -1.9021 -0.3544 0
M  V30 25 H -2.2029 0.4181 2.3653 0
M  V30 26 H -5.2695 -0.2554 -2.597 0
M  V30 27 H -5.617 0.2407 -0.2319 0
M  V30 28 H 1.5322 1.6155 0.2887 0
M  V30 29 H 2.615 -2.4879 -0.4744 0
M  V30 30 H -4.4936 0.8323 3.1828 0
M  V30 31 H 4.9672 -1.9534 0.0011 0
M  V30 32 H 3.3142 3.1816 0.9102 0
M  V30 33 H 6.6512 -0.2693 0.6386 0
M  V30 END ATOM
M  V30 BEGIN BOND
M  V30 1 2 1 2
M  V30 2 1 2 3
M  V30 3 1 2 4
M  V30 4 2 3 5
M  V30 5 1 3 6
M  V30 6 1 4 7
M  V30 7 1 5 8
M  V30 8 1 5 9
M  V30 9 1 6 10
M  V30 10 2 6 11
M  V30 11 1 7 12
M  V30 12 2 9 13
M  V30 13 2 12 14
M  V30 14 1 12 15
M  V30 15 1 13 16
M  V30 16 1 14 17
M  V30 17 2 15 18
M  V30 18 1 17 19
M  V30 19 2 17 20
M  V30 20 1 20 21
M  V30 21 1 7 8
M  V30 22 1 11 13
M  V30 23 1 18 20
M  V30 24 1 4 22
M  V30 25 1 4 23
M  V30 26 1 7 24
M  V30 27 1 9 25
M  V30 28 1 10 26
M  V30 29 1 11 27
M  V30 30 1 14 28
M  V30 31 1 15 29
M  V30 32 1 16 30
M  V30 33 1 18 31
M  V30 34 1 19 32
M  V30 35 1 21 33
M  V30 END BOND
M  V30 BEGIN COLLECTION
M  V30 MDLV30/STEABS ATOMS=(1 7)
M  V30 END COLLECTION
M  V30 END CTAB
M  END
>  <Structure No>
6786

>  <LogS>
-3.62

>  <MMFF94 Energy>
32.17

$$$$
Compound 6787
Actelion Java MolfileCreator 2.0

  0  0  0  0  0  0              0 V3000
M  V30 BEGIN CTAB
M  V30 COUNTS 38 39 0 0 0
M  V30 BEGIN ATOM
M  V30 1 O -0.4797 -3.282 -0.3198 0
M  V30 2 C -0.7251 -2.0437 -0.3032 0
M  V30 3 C 0.3241 -1.1099 -0.1814 0
M  V30 4 C -2.0523 -1.593 -0.4027 0
M  V30 5 C 1.7477 -1.526 -0.0614 0
M  V30 6 C 0.006 0.2586 -0.1702 0
M  V30 7 C -2.3163 -0.2049 -0.3877 0
M  V30 8 C -3.1327 -2.4867 -0.5126 0
M  V30 9 O 2.0627 -2.7481 -0.0628 0
M  V30 10 O 2.7477 -0.5535 0.0545 0
M  V30 11 N -1.2851 0.6939 -0.2859 0
M  V30 12 N -3.6067 0.2297 -0.4726 0
M  V30 13 C -4.4372 -2.0019 -0.5993 0
M  V30 14 C 4.1275 -0.8778 0.1736 0
M  V30 15 C -1.5461 2.1437 -0.2439 0
M  V30 16 C -4.6611 -0.6225 -0.5742 0
M  V30 17 O 4.8811 0.3246 0.2729 0
M  V30 18 C -1.8357 2.5922 1.1849 0
M  V30 19 C -6.0512 -0.0795 -0.6693 0
M  V30 20 C 6.2731 0.3328 0.3986 0
M  V30 21 O 6.9217 -0.7472 0.4536 0
M  V30 22 C 6.9928 1.6331 0.5183 0
M  V30 23 H 0.8029 0.9863 -0.0664 0
M  V30 24 H -2.973 -3.5579 -0.5294 0
M  V30 25 H -5.2658 -2.6943 -0.6836 0
M  V30 26 H 4.2874 -1.4932 1.0858 0
M  V30 27 H 4.454 -1.4482 -0.7233 0
M  V30 28 H -2.4029 2.4108 -0.9001 0
M  V30 29 H -0.6716 2.7117 -0.6324 0
M  V30 30 H -2.734 2.0703 1.5771 0
M  V30 31 H -0.9674 2.3654 1.839 0
M  V30 32 H -2.0219 3.6868 1.2026 0
M  V30 33 H -6.6744 -0.4949 0.1503 0
M  V30 34 H -6.4965 -0.3602 -1.6468 0
M  V30 35 H -6.0441 1.028 -0.5844 0
M  V30 36 H 6.3838 2.4463 0.0705 0
M  V30 37 H 7.9664 1.5803 -0.013 0
M  V30 38 H 7.1713 1.8597 1.5899 0
M  V30 END ATOM
M  V30 BEGIN BOND
M  V30 1 2 1 2
M  V30 2 1 2 3
M  V30 3 1 2 4
M  V30 4 1 3 5
M  V30 5 2 3 6
M  V30 6 2 4 7
M  V30 7 1 4 8
M  V30 8 2 5 9
M  V30 9 1 5 10
M  V30 10 1 6 11
M  V30 11 1 7 12
M  V30 12 2 8 13
M  V30 13 1 10 14
M  V30 14 1 11 15
M  V30 15 2 12 16
M  V30 16 1 14 17
M  V30 17 1 15 18
M  V30 18 1 16 19
M  V30 19 1 17 20
M  V30 20 2 20 21
M  V30 21 1 20 22
M  V30 22 1 7 11
M  V30 23 1 13 16
M  V30 24 1 6 23
M  V30 25 1 8 24
M  V30 26 1 13 25
M  V30 27 1 14 26
M  V30 28 1 14 27
M  V30 29 1 15 28
M  V30 30 1 15 29
M  V30 31 1 18 30
M  V30 32 1 18 31
M  V30 33 1 18 32
M  V30 34 1 19 33
M  V30 35 1 19 34
M  V30 36 1 19 35
M  V30 37 1 22 36
M  V30 38 1 22 37
M  V30 39 1 22 38
M  V30 END BOND
M  V30 END CTAB
M  END
>  <Structure No>
6787

>  <LogS>
-2.49

>  <MMFF94 Energy>
-14.605

$$$$
Compound 6788
Actelion Java MolfileCreator 2.0

  0  0  0  0  0  0              0 V3000
M  V30 BEGIN CTAB
M  V30 COUNTS 30 32 0 0 0
M  V30 BEGIN ATOM
M  V30 1 O -4.8309 -2.2522 0.0 0
M  V30 2 C -4.0326 -1.3223 0.2874 0
M  V30 3 N -3.9045 -0.886 1.5751 0
M  V30 4 C -3.2559 -0.7086 -0.6839 0
M  V30 5 C -3.0363 0.1254 1.902 0
M  V30 6 C -2.4048 0.2892 -0.3421 0
M  V30 7 C -3.1061 -0.8739 -2.0455 0
M  V30 8 N -2.2734 0.7246 0.9366 0
M  V30 9 N -1.7559 0.7239 -1.4354 0
M  V30 10 N -2.1781 0.0171 -2.4801 0
M  V30 11 C -0.7388 1.7685 -1.5062 0
M  V30 12 O 0.3939 1.4045 -0.722 0
M  V30 13 C 1.2282 0.3249 -1.0355 0
M  V30 14 O 1.0359 -0.3365 -2.093 0
M  V30 15 C 2.3339 -0.0382 -0.1229 0
M  V30 16 C 2.5321 0.6778 1.0718 0
M  V30 17 C 3.1992 -1.105 -0.4304 0
M  V30 18 C 3.5746 0.3338 1.9379 0
M  V30 19 C 4.2401 -1.4444 0.4394 0
M  V30 20 C 4.4277 -0.7258 1.6222 0
M  V30 21 H -2.9562 0.4489 2.9314 0
M  V30 22 H -3.6226 -1.5848 -2.6763 0
M  V30 23 H -1.6124 1.4936 1.1853 0
M  V30 24 H -1.1602 2.7174 -1.1132 0
M  V30 25 H -0.4311 1.9388 -2.5609 0
M  V30 26 H 1.8824 1.5018 1.3389 0
M  V30 27 H 3.0726 -1.6764 -1.3413 0
M  V30 28 H 3.7206 0.8894 2.8553 0
M  V30 29 H 4.9017 -2.2656 0.196 0
M  V30 30 H 5.2339 -0.9902 2.2942 0
M  V30 END ATOM
M  V30 BEGIN BOND
M  V30 1 2 1 2
M  V30 2 1 2 3
M  V30 3 1 2 4
M  V30 4 2 3 5
M  V30 5 2 4 6
M  V30 6 1 4 7
M  V30 7 1 5 8
M  V30 8 1 6 9
M  V30 9 2 7 10
M  V30 10 1 9 11
M  V30 11 1 11 12
M  V30 12 1 12 13
M  V30 13 2 13 14
M  V30 14 1 13 15
M  V30 15 2 15 16
M  V30 16 1 15 17
M  V30 17 1 16 18
M  V30 18 2 17 19
M  V30 19 2 18 20
M  V30 20 1 6 8
M  V30 21 1 9 10
M  V30 22 1 19 20
M  V30 23 1 5 21
M  V30 24 1 7 22
M  V30 25 1 8 23
M  V30 26 1 11 24
M  V30 27 1 11 25
M  V30 28 1 16 26
M  V30 29 1 17 27
M  V30 30 1 18 28
M  V30 31 1 19 29
M  V30 32 1 20 30
M  V30 END BOND
M  V30 END CTAB
M  END
>  <Structure No>
6788

>  <LogS>
-4.05

>  <MMFF94 Energy>
34.142

$$$$
Compound 6789
Actelion Java MolfileCreator 2.0

  0  0  0  0  0  0              0 V3000
M  V30 BEGIN CTAB
M  V30 COUNTS 44 45 0 0 0
M  V30 BEGIN ATOM
M  V30 1 O 1.5914 1.1934 1.7507 0
M  V30 2 C 1.2239 0.2229 1.0334 0
M  V30 3 N 1.8968 -0.9783 1.0513 0
M  V30 4 C 0.1233 0.342 0.199 0
M  V30 5 C 1.4715 -2.0228 0.2543 0
M  V30 6 C 3.0839 -1.1492 1.9013 0
M  V30 7 C -0.2679 -0.7024 -0.5719 0
M  V30 8 C -0.7703 1.3522 -0.0678 0
M  V30 9 N 0.3826 -1.8871 -0.5612 0
M  V30 10 O 4.1515 -0.3319 1.4266 0
M  V30 11 N -1.3537 -0.39 -1.2982 0
M  V30 12 N -1.6416 0.8716 -0.9888 0
M  V30 13 C 4.8186 -0.5693 0.2205 0
M  V30 14 C -2.7994 1.5833 -1.5127 0
M  V30 15 O 4.533 -1.5724 -0.4885 0
M  V30 16 C 5.9106 0.3594 -0.2115 0
M  V30 17 O -3.945 1.2554 -0.7346 0
M  V30 18 C 7.2005 0.1245 0.5832 0
M  V30 19 C -5.2125 1.7802 -1.0014 0
M  V30 20 C 7.8392 -1.2272 0.2667 0
M  V30 21 O -5.3884 2.5863 -1.9554 0
M  V30 22 C -6.3788 1.3388 -0.1769 0
M  V30 23 C -6.9877 0.0601 -0.7573 0
M  V30 24 C -8.174 -0.4138 0.0763 0
M  V30 25 H 1.9986 -2.9686 0.2607 0
M  V30 26 H 3.4136 -2.2114 1.9411 0
M  V30 27 H 2.8392 -0.8499 2.9428 0
M  V30 28 H -0.7967 2.3424 0.3693 0
M  V30 29 H -2.6195 2.6805 -1.4759 0
M  V30 30 H -2.9677 1.2863 -2.5709 0
M  V30 31 H 6.1055 0.2435 -1.2998 0
M  V30 32 H 5.5696 1.4036 -0.0451 0
M  V30 33 H 7.9258 0.9264 0.3258 0
M  V30 34 H 6.9936 0.1917 1.6739 0
M  V30 35 H 8.0359 -1.3157 -0.8227 0
M  V30 36 H 8.8025 -1.3177 0.8106 0
M  V30 37 H 7.1753 -2.0567 0.5901 0
M  V30 38 H -7.1425 2.1473 -0.1518 0
M  V30 39 H -6.0362 1.1534 0.8643 0
M  V30 40 H -6.2203 -0.7437 -0.7769 0
M  V30 41 H -7.3291 0.2449 -1.7987 0
M  V30 42 H -7.8525 -0.632 1.1168 0
M  V30 43 H -8.9684 0.3617 0.0919 0
M  V30 44 H -8.5919 -1.3417 -0.3666 0
M  V30 END ATOM
M  V30 BEGIN BOND
M  V30 1 2 1 2
M  V30 2 1 2 3
M  V30 3 1 2 4
M  V30 4 1 3 5
M  V30 5 1 3 6
M  V30 6 1 4 7
M  V30 7 2 4 8
M  V30 8 2 5 9
M  V30 9 1 6 10
M  V30 10 2 7 11
M  V30 11 1 8 12
M  V30 12 1 10 13
M  V30 13 1 12 14
M  V30 14 2 13 15
M  V30 15 1 13 16
M  V30 16 1 14 17
M  V30 17 1 16 18
M  V30 18 1 17 19
M  V30 19 1 18 20
M  V30 20 2 19 21
M  V30 21 1 19 22
M  V30 22 1 22 23
M  V30 23 1 23 24
M  V30 24 1 7 9
M  V30 25 1 11 12
M  V30 26 1 5 25
M  V30 27 1 6 26
M  V30 28 1 6 27
M  V30 29 1 8 28
M  V30 30 1 14 29
M  V30 31 1 14 30
M  V30 32 1 16 31
M  V30 33 1 16 32
M  V30 34 1 18 33
M  V30 35 1 18 34
M  V30 36 1 20 35
M  V30 37 1 20 36
M  V30 38 1 20 37
M  V30 39 1 22 38
M  V30 40 1 22 39
M  V30 41 1 23 40
M  V30 42 1 23 41
M  V30 43 1 24 42
M  V30 44 1 24 43
M  V30 45 1 24 44
M  V30 END BOND
M  V30 END CTAB
M  END
>  <Structure No>
6789

>  <LogS>
-3.55

>  <MMFF94 Energy>
-111.32

$$$$
Compound 6790
Actelion Java MolfileCreator 2.0

  0  0  0  0  0  0              0 V3000
M  V30 BEGIN CTAB
M  V30 COUNTS 41 42 0 0 0
M  V30 BEGIN ATOM
M  V30 1 O 0.0798 2.397 1.7574 0
M  V30 2 C -0.4553 1.6065 0.9315 0
M  V30 3 C 0.2208 1.2451 -0.2515 0
M  V30 4 C -1.7318 1.0806 1.1939 0
M  V30 5 C 1.5802 1.7547 -0.5761 0
M  V30 6 C -0.4133 0.3659 -1.1449 0
M  V30 7 C -2.3246 0.2007 0.2607 0
M  V30 8 C -2.4393 1.4017 2.3663 0
M  V30 9 O 2.1947 2.506 0.2305 0
M  V30 10 O 2.1865 1.3922 -1.7852 0
M  V30 11 N -1.6632 -0.1294 -0.8947 0
M  V30 12 N -3.5588 -0.3178 0.5234 0
M  V30 13 C -3.6999 0.8518 2.5966 0
M  V30 14 C 3.514 1.776 -2.1347 0
M  V30 15 C -2.2561 -1.0666 -1.865 0
M  V30 16 C -4.2521 -0.0206 1.6547 0
M  V30 17 O 4.4464 1.2211 -1.2109 0
M  V30 18 C -1.9283 -2.5067 -1.4839 0
M  V30 19 C -5.6037 -0.6196 1.8789 0
M  V30 20 C 4.6225 -0.1561 -1.0459 0
M  V30 21 O 3.989 -0.9779 -1.7634 0
M  V30 22 C 5.5285 -0.6558 0.033 0
M  V30 23 C 4.7811 -0.7375 1.3589 0
M  V30 24 H 0.1018 0.0702 -2.0518 0
M  V30 25 H -2.0211 2.0735 3.106 0
M  V30 26 H -4.2407 1.102 3.5013 0
M  V30 27 H 3.7424 1.4177 -3.1607 0
M  V30 28 H 3.6002 2.8832 -2.1247 0
M  V30 29 H -3.359 -0.9362 -1.9182 0
M  V30 30 H -1.8722 -0.8659 -2.8901 0
M  V30 31 H -2.3426 -2.7426 -0.4809 0
M  V30 32 H -0.8278 -2.6555 -1.468 0
M  V30 33 H -2.3737 -3.2007 -2.2274 0
M  V30 34 H -6.3683 0.1845 1.9147 0
M  V30 35 H -5.8608 -1.3212 1.057 0
M  V30 36 H -5.6135 -1.1776 2.839 0
M  V30 37 H 6.392 0.0353 0.1379 0
M  V30 38 H 5.9185 -1.6614 -0.2356 0
M  V30 39 H 3.9244 -1.4405 1.2761 0
M  V30 40 H 4.4039 0.2659 1.6521 0
M  V30 41 H 5.4675 -1.1048 2.1506 0
M  V30 END ATOM
M  V30 BEGIN BOND
M  V30 1 2 1 2
M  V30 2 1 2 3
M  V30 3 1 2 4
M  V30 4 1 3 5
M  V30 5 2 3 6
M  V30 6 2 4 7
M  V30 7 1 4 8
M  V30 8 2 5 9
M  V30 9 1 5 10
M  V30 10 1 6 11
M  V30 11 1 7 12
M  V30 12 2 8 13
M  V30 13 1 10 14
M  V30 14 1 11 15
M  V30 15 2 12 16
M  V30 16 1 14 17
M  V30 17 1 15 18
M  V30 18 1 16 19
M  V30 19 1 17 20
M  V30 20 2 20 21
M  V30 21 1 20 22
M  V30 22 1 22 23
M  V30 23 1 7 11
M  V30 24 1 13 16
M  V30 25 1 6 24
M  V30 26 1 8 25
M  V30 27 1 13 26
M  V30 28 1 14 27
M  V30 29 1 14 28
M  V30 30 1 15 29
M  V30 31 1 15 30
M  V30 32 1 18 31
M  V30 33 1 18 32
M  V30 34 1 18 33
M  V30 35 1 19 34
M  V30 36 1 19 35
M  V30 37 1 19 36
M  V30 38 1 22 37
M  V30 39 1 22 38
M  V30 40 1 23 39
M  V30 41 1 23 40
M  V30 42 1 23 41
M  V30 END BOND
M  V30 END CTAB
M  END
>  <Structure No>
6790

>  <LogS>
-2.83

>  <MMFF94 Energy>
-15.937

$$$$
Compound 6791
Actelion Java MolfileCreator 2.0

  0  0  0  0  0  0              0 V3000
M  V30 BEGIN CTAB
M  V30 COUNTS 50 51 0 0 0
M  V30 BEGIN ATOM
M  V30 1 O -1.6672 1.9055 1.1906 0
M  V30 2 C -1.3185 2.255 0.0291 0
M  V30 3 O -2.205 2.1194 -1.0487 0
M  V30 4 C 0.0798 2.7622 -0.203 0 CFG=1
M  V30 5 C -3.4825 1.4995 -0.9302 0
M  V30 6 C 1.0287 1.6125 -0.4763 0
M  V30 7 C 0.1266 3.7864 -1.342 0
M  V30 8 C -3.3146 0.01 -0.7709 0
M  V30 9 C 2.2188 1.4936 0.2623 0
M  V30 10 C 0.7599 0.6794 -1.497 0
M  V30 11 O -2.6103 -0.5964 -1.6235 0
M  V30 12 N -3.9175 -0.734 0.3149 0
M  V30 13 C 3.1215 0.4519 -0.0028 0
M  V30 14 C 1.6495 -0.3642 -1.7612 0
M  V30 15 C -5.1231 -0.2566 1.0131 0
M  V30 16 C -3.3209 -2.0225 0.7108 0
M  V30 17 C 2.8335 -0.4858 -1.022 0
M  V30 18 C 4.3111 0.3342 0.7305 0
M  V30 19 C -6.3153 -0.1734 0.0603 0
M  V30 20 C -1.9996 -1.7953 1.4434 0
M  V30 21 C 3.7389 -1.524 -1.2895 0
M  V30 22 C 5.2088 -0.7012 0.455 0
M  V30 23 C 4.9283 -1.6377 -0.5595 0
M  V30 24 O 5.8018 -2.6899 -0.873 0
M  V30 25 C 7.0496 -2.9202 -0.2222 0
M  V30 26 H 0.3956 3.2952 0.7219 0
M  V30 27 H -4.0575 1.6916 -1.86 0
M  V30 28 H -4.036 1.9657 -0.0917 0
M  V30 29 H -0.5625 4.6303 -1.1237 0
M  V30 30 H -0.1679 3.3241 -2.3073 0
M  V30 31 H 1.155 4.1939 -1.4432 0
M  V30 32 H 2.4449 2.2157 1.0385 0
M  V30 33 H -0.1388 0.7613 -2.0938 0
M  V30 34 H 1.4151 -1.0716 -2.5486 0
M  V30 35 H -5.3986 -0.944 1.8444 0
M  V30 36 H -4.9319 0.7289 1.4869 0
M  V30 37 H -4.0021 -2.5972 1.3784 0
M  V30 38 H -3.1521 -2.6553 -0.1878 0
M  V30 39 H 4.5483 1.044 1.5169 0
M  V30 40 H -6.4963 -1.1627 -0.4139 0
M  V30 41 H -7.224 0.1224 0.626 0
M  V30 42 H -6.1361 0.5837 -0.7313 0
M  V30 43 H -1.2542 -1.3218 0.7664 0
M  V30 44 H -2.1604 -1.1369 2.3207 0
M  V30 45 H -1.5959 -2.768 1.793 0
M  V30 46 H 3.5269 -2.2467 -2.0692 0
M  V30 47 H 6.1193 -0.7636 1.036 0
M  V30 48 H 6.8865 -3.1169 0.8581 0
M  V30 49 H 7.7201 -2.0431 -0.3547 0
M  V30 50 H 7.5342 -3.8087 -0.6736 0
M  V30 END ATOM
M  V30 BEGIN BOND
M  V30 1 2 1 2
M  V30 2 1 2 3
M  V30 3 1 2 4
M  V30 4 1 3 5
M  V30 5 1 4 6
M  V30 6 1 4 7
M  V30 7 1 5 8
M  V30 8 2 6 9
M  V30 9 1 6 10
M  V30 10 2 8 11
M  V30 11 1 8 12
M  V30 12 1 9 13
M  V30 13 2 10 14
M  V30 14 1 12 15
M  V30 15 1 12 16
M  V30 16 1 13 17
M  V30 17 2 13 18
M  V30 18 1 15 19
M  V30 19 1 16 20
M  V30 20 2 17 21
M  V30 21 1 18 22
M  V30 22 1 21 23
M  V30 23 1 23 24
M  V30 24 1 24 25
M  V30 25 1 14 17
M  V30 26 2 22 23
M  V30 27 1 4 26
M  V30 28 1 5 27
M  V30 29 1 5 28
M  V30 30 1 7 29
M  V30 31 1 7 30
M  V30 32 1 7 31
M  V30 33 1 9 32
M  V30 34 1 10 33
M  V30 35 1 14 34
M  V30 36 1 15 35
M  V30 37 1 15 36
M  V30 38 1 16 37
M  V30 39 1 16 38
M  V30 40 1 18 39
M  V30 41 1 19 40
M  V30 42 1 19 41
M  V30 43 1 19 42
M  V30 44 1 20 43
M  V30 45 1 20 44
M  V30 46 1 20 45
M  V30 47 1 21 46
M  V30 48 1 22 47
M  V30 49 1 25 48
M  V30 50 1 25 49
M  V30 51 1 25 50
M  V30 END BOND
M  V30 BEGIN COLLECTION
M  V30 MDLV30/STEABS ATOMS=(1 4)
M  V30 END COLLECTION
M  V30 END CTAB
M  END
>  <Structure No>
6791

>  <LogS>
-4.46

>  <MMFF94 Energy>
55.427

$$$$
Compound 6792
Actelion Java MolfileCreator 2.0

  0  0  0  0  0  0              0 V3000
M  V30 BEGIN CTAB
M  V30 COUNTS 48 49 0 0 0
M  V30 BEGIN ATOM
M  V30 1 O 1.112 2.7818 -1.9069 0
M  V30 2 C 1.4952 1.5949 -1.7164 0
M  V30 3 O 2.5098 1.3197 -0.792 0
M  V30 4 C 0.8172 0.4743 -2.4598 0 CFG=2
M  V30 5 C 3.1727 2.3423 -0.0565 0
M  V30 6 C -0.4575 0.0539 -1.7561 0
M  V30 7 C 1.7508 -0.7254 -2.657 0
M  V30 8 C 4.2432 1.7377 0.8036 0
M  V30 9 C -1.6704 0.006 -2.4656 0
M  V30 10 C -0.4418 -0.3278 -0.4023 0
M  V30 11 O 5.4339 1.7772 0.3894 0
M  V30 12 N 3.951 1.1225 2.0784 0
M  V30 13 C -2.853 -0.403 -1.8296 0
M  V30 14 C -1.6136 -0.7346 0.2379 0
M  V30 15 C 2.6197 0.5874 2.4056 0
M  V30 16 C 5.0497 0.9168 3.0271 0
M  V30 17 C -2.825 -0.775 -0.4657 0
M  V30 18 C -4.0637 -0.4493 -2.5348 0
M  V30 19 C 2.5897 -0.9361 2.2503 0
M  V30 20 C -4.0076 -1.1846 0.1698 0
M  V30 21 C -5.2356 -0.8579 -1.8939 0
M  V30 22 O 2.8839 -1.3074 0.9308 0
M  V30 23 C -5.221 -1.2271 -0.5442 0
M  V30 24 O -6.428 -1.6293 0.0472 0
M  V30 25 C -6.5675 -2.0135 1.4115 0
M  V30 26 H 0.5723 0.858 -3.4756 0
M  V30 27 H 2.4458 2.8976 0.5738 0
M  V30 28 H 3.6317 3.0671 -0.7642 0
M  V30 29 H 2.675 -0.4072 -3.1856 0
M  V30 30 H 1.2463 -1.4988 -3.2739 0
M  V30 31 H 2.034 -1.1782 -1.6838 0
M  V30 32 H -1.693 0.2863 -3.5127 0
M  V30 33 H 0.4808 -0.3112 0.1588 0
M  V30 34 H -1.5714 -1.0193 1.2827 0
M  V30 35 H 1.8284 1.0328 1.7714 0
M  V30 36 H 2.3625 0.8496 3.4547 0
M  V30 37 H 5.8093 0.2394 2.5826 0
M  V30 38 H 5.5228 1.8916 3.2695 0
M  V30 39 H 4.6867 0.4621 3.9735 0
M  V30 40 H -4.1043 -0.1705 -3.5811 0
M  V30 41 H 1.5707 -1.3006 2.5004 0
M  V30 42 H 3.3004 -1.4142 2.9627 0
M  V30 43 H -3.9774 -1.4693 1.2136 0
M  V30 44 H -6.1638 -0.8888 -2.4504 0
M  V30 45 H 3.8728 -1.3211 0.85 0
M  V30 46 H -6.2832 -1.1702 2.0766 0
M  V30 47 H -5.9344 -2.9003 1.6266 0
M  V30 48 H -7.6264 -2.2783 1.606 0
M  V30 END ATOM
M  V30 BEGIN BOND
M  V30 1 2 1 2
M  V30 2 1 2 3
M  V30 3 1 2 4
M  V30 4 1 3 5
M  V30 5 1 4 6
M  V30 6 1 4 7
M  V30 7 1 5 8
M  V30 8 2 6 9
M  V30 9 1 6 10
M  V30 10 2 8 11
M  V30 11 1 8 12
M  V30 12 1 9 13
M  V30 13 2 10 14
M  V30 14 1 12 15
M  V30 15 1 12 16
M  V30 16 1 13 17
M  V30 17 2 13 18
M  V30 18 1 15 19
M  V30 19 2 17 20
M  V30 20 1 18 21
M  V30 21 1 19 22
M  V30 22 1 20 23
M  V30 23 1 23 24
M  V30 24 1 24 25
M  V30 25 1 14 17
M  V30 26 2 21 23
M  V30 27 1 4 26
M  V30 28 1 5 27
M  V30 29 1 5 28
M  V30 30 1 7 29
M  V30 31 1 7 30
M  V30 32 1 7 31
M  V30 33 1 9 32
M  V30 34 1 10 33
M  V30 35 1 14 34
M  V30 36 1 15 35
M  V30 37 1 15 36
M  V30 38 1 16 37
M  V30 39 1 16 38
M  V30 40 1 16 39
M  V30 41 1 18 40
M  V30 42 1 19 41
M  V30 43 1 19 42
M  V30 44 1 20 43
M  V30 45 1 21 44
M  V30 46 1 22 45
M  V30 47 1 25 46
M  V30 48 1 25 47
M  V30 49 1 25 48
M  V30 END BOND
M  V30 BEGIN COLLECTION
M  V30 MDLV30/STEABS ATOMS=(1 4)
M  V30 END COLLECTION
M  V30 END CTAB
M  END
>  <Structure No>
6792

>  <LogS>
-3.39

>  <MMFF94 Energy>
74.043

$$$$
Compound 6793
Actelion Java MolfileCreator 2.0

  0  0  0  0  0  0              0 V3000
M  V30 BEGIN CTAB
M  V30 COUNTS 50 51 0 0 0
M  V30 BEGIN ATOM
M  V30 1 O 1.0342 -1.91 2.3879 0
M  V30 2 C 0.9401 -2.2196 1.1688 0
M  V30 3 N 2.0557 -2.4251 0.3859 0
M  V30 4 C -0.3058 -2.3585 0.577 0
M  V30 5 C 1.9139 -2.7588 -0.9461 0
M  V30 6 C 3.4153 -2.2746 0.9261 0
M  V30 7 C -0.4097 -2.6838 -0.7354 0
M  V30 8 C -1.5978 -2.2207 1.0259 0
M  V30 9 N 0.6766 -2.8873 -1.5131 0
M  V30 10 O 4.0784 -1.1868 0.2864 0
M  V30 11 N -1.6951 -2.7504 -1.1192 0
M  V30 12 N -2.4087 -2.4656 -0.0327 0
M  V30 13 C 3.7022 0.1509 0.4605 0
M  V30 14 C -3.866 -2.3996 -0.014 0
M  V30 15 O 2.7784 0.4476 1.269 0
M  V30 16 C 4.3469 1.2253 -0.3927 0
M  V30 17 O -4.2908 -1.1015 0.3924 0
M  V30 18 C 5.8348 0.8909 -0.6177 0
M  V30 19 C 3.621 1.2748 -1.7481 0
M  V30 20 C 4.2459 2.6031 0.2952 0
M  V30 21 C -4.0543 0.0528 -0.3648 0
M  V30 22 O -3.4913 -0.0362 -1.4916 0
M  V30 23 C -4.3871 1.4118 0.2181 0
M  V30 24 C -4.6278 2.4424 -0.905 0
M  V30 25 C -3.2073 1.8717 1.0919 0
M  V30 26 C -5.6599 1.314 1.0828 0
M  V30 27 H 2.7889 -2.9163 -1.5651 0
M  V30 28 H 3.9906 -3.2046 0.7315 0
M  V30 29 H 3.4196 -2.1193 2.0266 0
M  V30 30 H -1.9261 -1.9533 2.0226 0
M  V30 31 H -4.2564 -3.1484 0.7066 0
M  V30 32 H -4.2789 -2.6362 -1.0189 0
M  V30 33 H 6.3666 0.809 0.355 0
M  V30 34 H 5.9488 -0.0712 -1.1622 0
M  V30 35 H 6.3282 1.6839 -1.2205 0
M  V30 36 H 2.5454 1.5183 -1.6067 0
M  V30 37 H 4.0715 2.0491 -2.4061 0
M  V30 38 H 3.6897 0.293 -2.2654 0
M  V30 39 H 3.1838 2.9012 0.4328 0
M  V30 40 H 4.7362 2.5772 1.2925 0
M  V30 41 H 4.743 3.3855 -0.3184 0
M  V30 42 H -5.4562 2.1098 -1.5674 0
M  V30 43 H -4.898 3.4325 -0.4779 0
M  V30 44 H -3.7142 2.5757 -1.524 0
M  V30 45 H -3.0224 1.1458 1.9138 0
M  V30 46 H -2.2795 1.9527 0.4847 0
M  V30 47 H -3.4178 2.8652 1.5438 0
M  V30 48 H -6.514 0.9401 0.4772 0
M  V30 49 H -5.5075 0.6222 1.9396 0
M  V30 50 H -5.9324 2.3103 1.4941 0
M  V30 END ATOM
M  V30 BEGIN BOND
M  V30 1 2 1 2
M  V30 2 1 2 3
M  V30 3 1 2 4
M  V30 4 1 3 5
M  V30 5 1 3 6
M  V30 6 1 4 7
M  V30 7 2 4 8
M  V30 8 2 5 9
M  V30 9 1 6 10
M  V30 10 2 7 11
M  V30 11 1 8 12
M  V30 12 1 10 13
M  V30 13 1 12 14
M  V30 14 2 13 15
M  V30 15 1 13 16
M  V30 16 1 14 17
M  V30 17 1 16 18
M  V30 18 1 16 19
M  V30 19 1 16 20
M  V30 20 1 17 21
M  V30 21 2 21 22
M  V30 22 1 21 23
M  V30 23 1 23 24
M  V30 24 1 23 25
M  V30 25 1 23 26
M  V30 26 1 7 9
M  V30 27 1 11 12
M  V30 28 1 5 27
M  V30 29 1 6 28
M  V30 30 1 6 29
M  V30 31 1 8 30
M  V30 32 1 14 31
M  V30 33 1 14 32
M  V30 34 1 18 33
M  V30 35 1 18 34
M  V30 36 1 18 35
M  V30 37 1 19 36
M  V30 38 1 19 37
M  V30 39 1 19 38
M  V30 40 1 20 39
M  V30 41 1 20 40
M  V30 42 1 20 41
M  V30 43 1 24 42
M  V30 44 1 24 43
M  V30 45 1 24 44
M  V30 46 1 25 45
M  V30 47 1 25 46
M  V30 48 1 25 47
M  V30 49 1 26 48
M  V30 50 1 26 49
M  V30 51 1 26 50
M  V30 END BOND
M  V30 END CTAB
M  END
>  <Structure No>
6793

>  <LogS>
-3.91

>  <MMFF94 Energy>
-84.032

$$$$
Compound 6794
Actelion Java MolfileCreator 2.0

  0  0  0  0  0  0              0 V3000
M  V30 BEGIN CTAB
M  V30 COUNTS 23 24 0 0 0
M  V30 BEGIN ATOM
M  V30 1 Cl 5.4933 0.6293 -0.1797 0
M  V30 2 C 3.8082 0.126 -0.3075 0
M  V30 3 C 3.361 -0.5683 -1.4457 0
M  V30 4 C 2.9037 0.4098 0.7314 0
M  V30 5 Cl 4.4551 -0.9577 -2.7667 0
M  V30 6 C 2.0225 -0.9642 -1.5424 0
M  V30 7 Cl 3.4179 1.2588 2.1838 0
M  V30 8 C 1.5676 0.0092 0.625 0
M  V30 9 C 1.1156 -0.6653 -0.5215 0
M  V30 10 O -0.2135 -1.0929 -0.655 0
M  V30 11 C -1.3337 -0.4525 -0.1027 0
M  V30 12 C -2.4478 -1.2214 0.2648 0
M  V30 13 C -1.3833 0.9453 0.0464 0
M  V30 14 Cl -2.4297 -2.9669 0.067 0
M  V30 15 C -3.5814 -0.6045 0.8049 0
M  V30 16 C -2.5166 1.5628 0.5871 0
M  V30 17 C -3.6198 0.7837 0.9719 0
M  V30 18 Cl -2.5308 3.3126 0.7622 0
M  V30 19 Cl -5.0631 1.5202 1.6551 0
M  V30 20 H 1.6812 -1.5002 -2.4194 0
M  V30 21 H 0.8883 0.208 1.4438 0
M  V30 22 H -0.5499 1.5572 -0.2736 0
M  V30 23 H -4.4342 -1.2056 1.0948 0
M  V30 END ATOM
M  V30 BEGIN BOND
M  V30 1 1 1 2
M  V30 2 2 2 3
M  V30 3 1 2 4
M  V30 4 1 3 5
M  V30 5 1 3 6
M  V30 6 1 4 7
M  V30 7 2 4 8
M  V30 8 2 6 9
M  V30 9 1 9 10
M  V30 10 1 10 11
M  V30 11 2 11 12
M  V30 12 1 11 13
M  V30 13 1 12 14
M  V30 14 1 12 15
M  V30 15 2 13 16
M  V30 16 2 15 17
M  V30 17 1 16 18
M  V30 18 1 17 19
M  V30 19 1 8 9
M  V30 20 1 16 17
M  V30 21 1 6 20
M  V30 22 1 8 21
M  V30 23 1 13 22
M  V30 24 1 15 23
M  V30 END BOND
M  V30 END CTAB
M  END
>  <Structure No>
6794

>  <LogS>
-8.72

>  <MMFF94 Energy>
47.8

$$$$
Compound 6795
Actelion Java MolfileCreator 2.0

  0  0  0  0  0  0              0 V3000
M  V30 BEGIN CTAB
M  V30 COUNTS 40 41 0 0 0
M  V30 BEGIN ATOM
M  V30 1 Cl 4.0654 3.4141 1.6246 0
M  V30 2 C 2.6851 2.3771 1.2959 0
M  V30 3 C 2.7949 1.3159 0.3867 0
M  V30 4 C 1.4783 2.6194 1.9566 0
M  V30 5 O 4.0289 1.111 -0.2553 0
M  V30 6 C 1.6695 0.505 0.1427 0
M  V30 7 C 0.3633 1.8104 1.7196 0
M  V30 8 C 4.358 0.0172 -1.115 0
M  V30 9 C 0.4527 0.7404 0.8059 0
M  V30 10 Cl -1.1073 2.1332 2.631 0
M  V30 11 C 5.6347 0.3642 -1.8783 0
M  V30 12 C 4.5628 -1.2608 -0.295 0
M  V30 13 N -0.685 -0.096 0.5295 0
M  V30 14 N -1.9183 0.3461 0.3453 0
M  V30 15 C -0.7178 -1.432 0.3713 0
M  V30 16 C -2.6646 -0.752 0.0864 0
M  V30 17 O 0.2782 -2.1939 0.4909 0
M  V30 18 O -1.9293 -1.847 0.1005 0
M  V30 19 C -4.1516 -0.7137 -0.1864 0
M  V30 20 C -4.8695 -0.0672 1.0122 0
M  V30 21 C -4.6947 -2.1413 -0.3937 0
M  V30 22 C -4.41 0.1175 -1.4557 0
M  V30 23 H 1.4093 3.4362 2.6645 0
M  V30 24 H 1.7189 -0.2972 -0.5778 0
M  V30 25 H 3.5536 -0.1378 -1.866 0
M  V30 26 H 5.9062 -0.4593 -2.5726 0
M  V30 27 H 6.4751 0.538 -1.1722 0
M  V30 28 H 5.4753 1.2879 -2.4743 0
M  V30 29 H 3.6328 -1.5325 0.2447 0
M  V30 30 H 5.3723 -1.1146 0.4518 0
M  V30 31 H 4.8339 -2.1059 -0.963 0
M  V30 32 H -4.5149 0.9745 1.1701 0
M  V30 33 H -5.9674 -0.0366 0.8415 0
M  V30 34 H -4.6752 -0.646 1.9412 0
M  V30 35 H -4.5181 -2.7626 0.511 0
M  V30 36 H -4.1945 -2.6294 -1.2581 0
M  V30 37 H -5.7882 -2.1198 -0.5924 0
M  V30 38 H -3.8833 -0.328 -2.3274 0
M  V30 39 H -5.4971 0.1548 -1.6849 0
M  V30 40 H -4.0475 1.1602 -1.3248 0
M  V30 END ATOM
M  V30 BEGIN BOND
M  V30 1 1 1 2
M  V30 2 2 2 3
M  V30 3 1 2 4
M  V30 4 1 3 5
M  V30 5 1 3 6
M  V30 6 2 4 7
M  V30 7 1 5 8
M  V30 8 2 6 9
M  V30 9 1 7 10
M  V30 10 1 8 11
M  V30 11 1 8 12
M  V30 12 1 9 13
M  V30 13 1 13 14
M  V30 14 1 13 15
M  V30 15 2 14 16
M  V30 16 2 15 17
M  V30 17 1 15 18
M  V30 18 1 16 19
M  V30 19 1 19 20
M  V30 20 1 19 21
M  V30 21 1 19 22
M  V30 22 1 7 9
M  V30 23 1 16 18
M  V30 24 1 4 23
M  V30 25 1 6 24
M  V30 26 1 8 25
M  V30 27 1 11 26
M  V30 28 1 11 27
M  V30 29 1 11 28
M  V30 30 1 12 29
M  V30 31 1 12 30
M  V30 32 1 12 31
M  V30 33 1 20 32
M  V30 34 1 20 33
M  V30 35 1 20 34
M  V30 36 1 21 35
M  V30 37 1 21 36
M  V30 38 1 21 37
M  V30 39 1 22 38
M  V30 40 1 22 39
M  V30 41 1 22 40
M  V30 END BOND
M  V30 END CTAB
M  END
>  <Structure No>
6795

>  <LogS>
-5.54

>  <MMFF94 Energy>
56.463

$$$$
Compound 6796
Actelion Java MolfileCreator 2.0

  0  0  0  0  0  0              0 V3000
M  V30 BEGIN CTAB
M  V30 COUNTS 23 24 0 0 0
M  V30 BEGIN ATOM
M  V30 1 Cl 3.3311 2.5201 -1.7096 0
M  V30 2 C 2.8565 1.1325 -0.7279 0
M  V30 3 C 3.7144 0.6581 0.2825 0
M  V30 4 C 1.6232 0.4941 -0.9599 0
M  V30 5 Cl 5.2606 1.453 0.5825 0
M  V30 6 C 3.3402 -0.4589 1.048 0
M  V30 7 Cl 0.5813 1.0304 -2.2785 0
M  V30 8 C 1.2458 -0.6079 -0.1682 0
M  V30 9 Cl 4.3863 -1.0942 2.3118 0
M  V30 10 C 2.115 -1.0868 0.8141 0
M  V30 11 O 0.0232 -1.2633 -0.3579 0
M  V30 12 C -1.2339 -0.6579 -0.2102 0
M  V30 13 C -2.3588 -1.3187 -0.7166 0
M  V30 14 C -1.3986 0.5743 0.4488 0
M  V30 15 C -3.6343 -0.7558 -0.5894 0
M  V30 16 C -2.6702 1.1388 0.5773 0
M  V30 17 Cl -5.016 -1.6196 -1.2502 0
M  V30 18 C -3.7906 0.4807 0.0591 0
M  V30 19 Cl -5.3744 1.2227 0.24 0
M  V30 20 H 1.8271 -1.9447 1.409 0
M  V30 21 H -2.2382 -2.2717 -1.2163 0
M  V30 22 H -0.5492 1.0961 0.8694 0
M  V30 23 H -2.7841 2.0887 1.084 0
M  V30 END ATOM
M  V30 BEGIN BOND
M  V30 1 1 1 2
M  V30 2 2 2 3
M  V30 3 1 2 4
M  V30 4 1 3 5
M  V30 5 1 3 6
M  V30 6 1 4 7
M  V30 7 2 4 8
M  V30 8 1 6 9
M  V30 9 2 6 10
M  V30 10 1 8 11
M  V30 11 1 11 12
M  V30 12 2 12 13
M  V30 13 1 12 14
M  V30 14 1 13 15
M  V30 15 2 14 16
M  V30 16 1 15 17
M  V30 17 2 15 18
M  V30 18 1 18 19
M  V30 19 1 8 10
M  V30 20 1 16 18
M  V30 21 1 10 20
M  V30 22 1 13 21
M  V30 23 1 14 22
M  V30 24 1 16 23
M  V30 END BOND
M  V30 END CTAB
M  END
>  <Structure No>
6796

>  <LogS>
-8.78

>  <MMFF94 Energy>
59.308

$$$$
Compound 6797
Actelion Java MolfileCreator 2.0

  0  0  0  0  0  0              0 V3000
M  V30 BEGIN CTAB
M  V30 COUNTS 23 24 0 0 0
M  V30 BEGIN ATOM
M  V30 1 Cl -5.311 0.2695 1.4383 0
M  V30 2 C -3.74 0.2282 0.6497 0
M  V30 3 C -2.622 -0.3384 1.2825 0
M  V30 4 C -3.6118 0.7688 -0.6336 0
M  V30 5 Cl -2.7421 -1.0374 2.8916 0
M  V30 6 C -1.3858 -0.3552 0.6276 0
M  V30 7 C -2.3757 0.7529 -1.288 0
M  V30 8 C -1.2506 0.2008 -0.6585 0
M  V30 9 Cl -2.2463 1.4427 -2.8986 0
M  V30 10 O -0.0237 0.1938 -1.3408 0
M  V30 11 C 1.2233 -1.0E-4 -0.7342 0
M  V30 12 C 1.688 0.8462 0.2919 0
M  V30 13 C 2.0353 -1.0452 -1.1877 0
M  V30 14 Cl 0.7609 2.245 0.8179 0
M  V30 15 C 2.9384 0.6106 0.874 0
M  V30 16 C 3.2851 -1.2801 -0.6046 0
M  V30 17 C 3.7364 -0.4514 0.4355 0
M  V30 18 Cl 4.2623 -2.6173 -1.1949 0
M  V30 19 Cl 5.3011 -0.7109 1.1948 0
M  V30 20 H -4.4744 1.2027 -1.1238 0
M  V30 21 H -0.5355 -0.8087 1.12 0
M  V30 22 H 1.6848 -1.6853 -1.9877 0
M  V30 23 H 3.2959 1.2618 1.662 0
M  V30 END ATOM
M  V30 BEGIN BOND
M  V30 1 1 1 2
M  V30 2 2 2 3
M  V30 3 1 2 4
M  V30 4 1 3 5
M  V30 5 1 3 6
M  V30 6 2 4 7
M  V30 7 2 6 8
M  V30 8 1 7 9
M  V30 9 1 8 10
M  V30 10 1 10 11
M  V30 11 2 11 12
M  V30 12 1 11 13
M  V30 13 1 12 14
M  V30 14 1 12 15
M  V30 15 2 13 16
M  V30 16 2 15 17
M  V30 17 1 16 18
M  V30 18 1 17 19
M  V30 19 1 7 8
M  V30 20 1 16 17
M  V30 21 1 4 20
M  V30 22 1 6 21
M  V30 23 1 13 22
M  V30 24 1 15 23
M  V30 END BOND
M  V30 END CTAB
M  END
>  <Structure No>
6797

>  <LogS>
-8.36

>  <MMFF94 Energy>
49.863

$$$$
Compound 6798
Actelion Java MolfileCreator 2.0

  0  0  0  0  0  0              0 V3000
M  V30 BEGIN CTAB
M  V30 COUNTS 50 51 0 0 0
M  V30 BEGIN ATOM
M  V30 1 O -1.5118 -0.4772 2.6269 0
M  V30 2 C -0.729 -0.089 1.7168 0
M  V30 3 N -0.8351 -0.5616 0.4272 0
M  V30 4 C 0.2673 0.8347 1.9932 0
M  V30 5 C 0.0155 -0.0939 -0.5547 0
M  V30 6 C -1.8896 -1.5179 0.0706 0
M  V30 7 C 1.0929 1.2591 1.0112 0
M  V30 8 C 0.6743 1.5023 3.1313 0
M  V30 9 N 0.9902 0.8192 -0.2637 0
M  V30 10 O -3.1222 -0.8233 -0.0861 0
M  V30 11 N 1.9779 2.1379 1.5071 0
M  V30 12 N 1.7253 2.2975 2.803 0
M  V30 13 C -4.3205 -1.4688 -0.4094 0
M  V30 14 C 3.0318 2.8384 0.7785 0
M  V30 15 O -4.3355 -2.7186 -0.5911 0
M  V30 16 C -5.586 -0.6463 -0.5553 0
M  V30 17 O 3.8021 1.9132 0.0155 0
M  V30 18 C -5.8178 0.1524 0.7409 0
M  V30 19 C -6.8126 -1.5466 -0.8168 0
M  V30 20 C -5.4131 0.3265 -1.7355 0
M  V30 21 C 4.5776 0.9023 0.5958 0
M  V30 22 O 4.6925 0.8361 1.8519 0
M  V30 23 C 5.228 -0.1345 -0.2982 0
M  V30 24 C 4.1237 -0.9923 -0.9419 0
M  V30 25 C 6.1774 -1.0487 0.5055 0
M  V30 26 C 6.0342 0.5794 -1.3993 0
M  V30 27 H -0.0776 -0.4452 -1.5748 0
M  V30 28 H -1.9902 -2.2898 0.8654 0
M  V30 29 H -1.6391 -2.0494 -0.8745 0
M  V30 30 H 0.2471 1.4215 4.122 0
M  V30 31 H 2.57 3.5772 0.0907 0
M  V30 32 H 3.6924 3.3853 1.4862 0
M  V30 33 H -5.9217 -0.5349 1.6084 0
M  V30 34 H -4.9677 0.8404 0.9406 0
M  V30 35 H -6.7438 0.7626 0.665 0
M  V30 36 H -6.9587 -2.2625 0.0212 0
M  V30 37 H -7.7352 -0.9342 -0.9145 0
M  V30 38 H -6.6817 -2.126 -1.7565 0
M  V30 39 H -5.2285 -0.2335 -2.6779 0
M  V30 40 H -4.5533 1.0097 -1.562 0
M  V30 41 H -6.326 0.9465 -1.8698 0
M  V30 42 H 3.443 -0.3635 -1.5561 0
M  V30 43 H 3.5169 -1.4984 -0.1594 0
M  V30 44 H 4.5655 -1.7705 -1.6012 0
M  V30 45 H 6.6599 -1.7963 -0.1608 0
M  V30 46 H 6.9774 -0.4497 0.9926 0
M  V30 47 H 5.6197 -1.5995 1.2938 0
M  V30 48 H 5.3727 1.2151 -2.0274 0
M  V30 49 H 6.5312 -0.1604 -2.0637 0
M  V30 50 H 6.8175 1.2278 -0.9494 0
M  V30 END ATOM
M  V30 BEGIN BOND
M  V30 1 2 1 2
M  V30 2 1 2 3
M  V30 3 1 2 4
M  V30 4 1 3 5
M  V30 5 1 3 6
M  V30 6 2 4 7
M  V30 7 1 4 8
M  V30 8 2 5 9
M  V30 9 1 6 10
M  V30 10 1 7 11
M  V30 11 2 8 12
M  V30 12 1 10 13
M  V30 13 1 11 14
M  V30 14 2 13 15
M  V30 15 1 13 16
M  V30 16 1 14 17
M  V30 17 1 16 18
M  V30 18 1 16 19
M  V30 19 1 16 20
M  V30 20 1 17 21
M  V30 21 2 21 22
M  V30 22 1 21 23
M  V30 23 1 23 24
M  V30 24 1 23 25
M  V30 25 1 23 26
M  V30 26 1 7 9
M  V30 27 1 11 12
M  V30 28 1 5 27
M  V30 29 1 6 28
M  V30 30 1 6 29
M  V30 31 1 8 30
M  V30 32 1 14 31
M  V30 33 1 14 32
M  V30 34 1 18 33
M  V30 35 1 18 34
M  V30 36 1 18 35
M  V30 37 1 19 36
M  V30 38 1 19 37
M  V30 39 1 19 38
M  V30 40 1 20 39
M  V30 41 1 20 40
M  V30 42 1 20 41
M  V30 43 1 24 42
M  V30 44 1 24 43
M  V30 45 1 24 44
M  V30 46 1 25 45
M  V30 47 1 25 46
M  V30 48 1 25 47
M  V30 49 1 26 48
M  V30 50 1 26 49
M  V30 51 1 26 50
M  V30 END BOND
M  V30 END CTAB
M  END
>  <Structure No>
6798

>  <LogS>
-4.26

>  <MMFF94 Energy>
-43.948

$$$$
Compound 6799
Actelion Java MolfileCreator 2.0

  0  0  0  0  0  0              0 V3000
M  V30 BEGIN CTAB
M  V30 COUNTS 23 24 0 0 0
M  V30 BEGIN ATOM
M  V30 1 Cl 5.0434 1.1692 1.4392 0
M  V30 2 C 3.6412 0.5677 0.5542 0
M  V30 3 C 2.3653 1.115 0.7904 0
M  V30 4 C 3.7938 -0.4608 -0.3922 0
M  V30 5 Cl 2.1463 2.4069 1.9693 0
M  V30 6 C 1.2477 0.6274 0.0936 0
M  V30 7 Cl 5.3672 -1.1749 -0.7221 0
M  V30 8 C 2.6825 -0.929 -1.0985 0
M  V30 9 O -0.0111 1.1997 0.3359 0
M  V30 10 C 1.4187 -0.3865 -0.8638 0
M  V30 11 C -1.242 0.5319 0.2409 0
M  V30 12 C -2.387 1.2591 -0.1161 0
M  V30 13 C -1.3622 -0.8368 0.5419 0
M  V30 14 Cl -2.2764 2.9762 -0.4714 0
M  V30 15 C -3.6279 0.6194 -0.2037 0
M  V30 16 C -2.6033 -1.4774 0.4543 0
M  V30 17 C -3.7413 -0.7464 0.0757 0
M  V30 18 Cl -2.7052 -3.1915 0.8332 0
M  V30 19 Cl -5.3192 -1.5131 -0.0461 0
M  V30 20 H 2.7982 -1.7118 -1.8373 0
M  V30 21 H 0.5778 -0.7453 -1.4427 0
M  V30 22 H -0.497 -1.4023 0.8628 0
M  V30 23 H -4.5062 1.1855 -0.4887 0
M  V30 END ATOM
M  V30 BEGIN BOND
M  V30 1 1 1 2
M  V30 2 2 2 3
M  V30 3 1 2 4
M  V30 4 1 3 5
M  V30 5 1 3 6
M  V30 6 1 4 7
M  V30 7 2 4 8
M  V30 8 1 6 9
M  V30 9 2 6 10
M  V30 10 1 9 11
M  V30 11 2 11 12
M  V30 12 1 11 13
M  V30 13 1 12 14
M  V30 14 1 12 15
M  V30 15 2 13 16
M  V30 16 2 15 17
M  V30 17 1 16 18
M  V30 18 1 17 19
M  V30 19 1 8 10
M  V30 20 1 16 17
M  V30 21 1 8 20
M  V30 22 1 10 21
M  V30 23 1 13 22
M  V30 24 1 15 23
M  V30 END BOND
M  V30 END CTAB
M  END
>  <Structure No>
6799

>  <LogS>
-8.31

>  <MMFF94 Energy>
62.652

$$$$
Compound 6800
Actelion Java MolfileCreator 2.0

  0  0  0  0  0  0              0 V3000
M  V30 BEGIN CTAB
M  V30 COUNTS 27 29 0 0 0
M  V30 BEGIN ATOM
M  V30 1 S 4.6858 0.2462 -0.5745 0
M  V30 2 C 4.5826 -1.2351 0.2091 0
M  V30 3 C 3.0212 0.438 -0.6964 0
M  V30 4 N 3.2938 -1.6001 0.3807 0
M  V30 5 C 2.4228 -0.6717 -0.1017 0
M  V30 6 C 0.9667 -0.9044 -0.066 0
M  V30 7 N 0.4489 -2.1539 -0.1964 0
M  V30 8 N 0.0116 0.065 0.0436 0
M  V30 9 C -0.8781 -1.9414 -0.1769 0
M  V30 10 C -1.1499 -0.611 -0.034 0
M  V30 11 C 0.1807 1.4637 0.3246 0
M  V30 12 C -1.8875 -2.898 -0.2536 0
M  V30 13 C -2.4626 -0.1388 0.0735 0
M  V30 14 O 1.1251 1.8471 1.0681 0
M  V30 15 O -0.712 2.3946 -0.2143 0
M  V30 16 C -3.2195 -2.4537 -0.1709 0
M  V30 17 C -3.5056 -1.0804 -0.0047 0
M  V30 18 C -0.6047 3.7914 0.0308 0
M  V30 19 H 5.423 -1.8356 0.5291 0
M  V30 20 H 2.5166 1.2601 -1.1857 0
M  V30 21 H -1.6558 -3.9493 -0.3655 0
M  V30 22 H -2.6855 0.9083 0.2197 0
M  V30 23 H -4.0296 -3.1693 -0.2257 0
M  V30 24 H -4.5338 -0.7508 0.0695 0
M  V30 25 H -0.6958 3.9944 1.119 0
M  V30 26 H 0.3712 4.1688 -0.3412 0
M  V30 27 H -1.4216 4.319 -0.5027 0
M  V30 END ATOM
M  V30 BEGIN BOND
M  V30 1 1 1 2
M  V30 2 1 1 3
M  V30 3 2 2 4
M  V30 4 2 3 5
M  V30 5 1 5 6
M  V30 6 2 6 7
M  V30 7 1 6 8
M  V30 8 1 7 9
M  V30 9 1 8 10
M  V30 10 1 8 11
M  V30 11 1 9 12
M  V30 12 1 10 13
M  V30 13 2 11 14
M  V30 14 1 11 15
M  V30 15 2 12 16
M  V30 16 2 13 17
M  V30 17 1 15 18
M  V30 18 1 4 5
M  V30 19 2 9 10
M  V30 20 1 16 17
M  V30 21 1 2 19
M  V30 22 1 3 20
M  V30 23 1 12 21
M  V30 24 1 13 22
M  V30 25 1 16 23
M  V30 26 1 17 24
M  V30 27 1 18 25
M  V30 28 1 18 26
M  V30 29 1 18 27
M  V30 END BOND
M  V30 END CTAB
M  END
>  <Structure No>
6800

>  <LogS>
-3.11

>  <MMFF94 Energy>
44.791

$$$$
Compound 6801
Actelion Java MolfileCreator 2.0

  0  0  0  0  0  0              0 V3000
M  V30 BEGIN CTAB
M  V30 COUNTS 23 24 0 0 0
M  V30 BEGIN ATOM
M  V30 1 Cl -3.6925 1.71 2.0702 0
M  V30 2 C -3.0031 0.5979 0.8872 0
M  V30 3 C -1.7093 0.0733 1.0757 0
M  V30 4 C -3.7498 0.2251 -0.245 0
M  V30 5 Cl -0.799 0.465 2.5353 0
M  V30 6 C -1.1656 -0.8092 0.1195 0
M  V30 7 Cl -5.3688 0.8555 -0.522 0
M  V30 8 C -3.2115 -0.6717 -1.1718 0
M  V30 9 O 0.1203 -1.3448 0.2613 0
M  V30 10 C -1.9301 -1.1903 -0.9866 0
M  V30 11 C 1.2985 -0.5834 0.3291 0
M  V30 12 C 2.4732 -1.1884 0.8053 0
M  V30 13 C 1.3342 0.7584 -0.0908 0
M  V30 14 Cl 2.4245 -2.8739 1.3176 0
M  V30 15 C 3.6703 -0.4508 0.8798 0
M  V30 16 C 2.5202 1.489 -0.0169 0
M  V30 17 Cl 5.1434 -1.2075 1.4869 0
M  V30 18 C 3.6874 0.8933 0.4678 0
M  V30 19 Cl 5.1586 1.8549 0.5426 0
M  V30 20 H -3.7868 -0.9675 -2.0399 0
M  V30 21 H -1.5218 -1.8807 -1.7137 0
M  V30 22 H 0.4481 1.24 -0.4828 0
M  V30 23 H 2.5315 2.522 -0.3413 0
M  V30 END ATOM
M  V30 BEGIN BOND
M  V30 1 1 1 2
M  V30 2 2 2 3
M  V30 3 1 2 4
M  V30 4 1 3 5
M  V30 5 1 3 6
M  V30 6 1 4 7
M  V30 7 2 4 8
M  V30 8 1 6 9
M  V30 9 2 6 10
M  V30 10 1 9 11
M  V30 11 2 11 12
M  V30 12 1 11 13
M  V30 13 1 12 14
M  V30 14 1 12 15
M  V30 15 2 13 16
M  V30 16 1 15 17
M  V30 17 2 15 18
M  V30 18 1 18 19
M  V30 19 1 8 10
M  V30 20 1 16 18
M  V30 21 1 8 20
M  V30 22 1 10 21
M  V30 23 1 13 22
M  V30 24 1 16 23
M  V30 END BOND
M  V30 END CTAB
M  END
>  <Structure No>
6801

>  <LogS>
-8.14

>  <MMFF94 Energy>
74.516

$$$$
Compound 6802
Actelion Java MolfileCreator 2.0

  0  0  0  0  0  0              0 V3000
M  V30 BEGIN CTAB
M  V30 COUNTS 44 45 0 0 0
M  V30 BEGIN ATOM
M  V30 1 O 0.0797 2.4739 0.4784 0
M  V30 2 C -0.743 1.5396 0.2692 0
M  V30 3 C -0.3282 0.353 -0.3692 0
M  V30 4 C -2.0814 1.684 0.672 0
M  V30 5 C 1.0721 0.1458 -0.8273 0
M  V30 6 C -1.276 -0.6627 -0.578 0
M  V30 7 C -2.9935 0.6307 0.4383 0
M  V30 8 C -2.5441 2.8535 1.3015 0
M  V30 9 O 1.9407 1.047 -0.6659 0
M  V30 10 O 1.4296 -1.0592 -1.4446 0
M  V30 11 N -2.5734 -0.5257 -0.1678 0
M  V30 12 N -4.295 0.778 0.8199 0
M  V30 13 C -3.8821 2.9638 1.6784 0
M  V30 14 C 2.7526 -1.3399 -1.8884 0
M  V30 15 C -3.5177 -1.6235 -0.4404 0
M  V30 16 C -4.7584 1.9059 1.421 0
M  V30 17 O 3.6304 -1.4001 -0.7692 0
M  V30 18 C -4.2266 -1.3986 -1.7721 0
M  V30 19 C -6.1943 1.9957 1.8284 0
M  V30 20 C 5.0017 -1.6347 -0.898 0
M  V30 21 O 5.5209 -1.8142 -2.0334 0
M  V30 22 C 5.8673 -1.6271 0.3237 0
M  V30 23 C 6.5279 -0.2599 0.5413 0
M  V30 24 C 5.5146 0.8265 0.9018 0
M  V30 25 H -0.9719 -1.5756 -1.0772 0
M  V30 26 H -1.8765 3.6825 1.502 0
M  V30 27 H -4.233 3.8658 2.1647 0
M  V30 28 H 3.0871 -0.5503 -2.5965 0
M  V30 29 H 2.7535 -2.3182 -2.4136 0
M  V30 30 H -2.9859 -2.6004 -0.4727 0
M  V30 31 H -4.2702 -1.7094 0.3733 0
M  V30 32 H -4.8024 -0.4495 -1.7455 0
M  V30 33 H -4.9278 -2.2369 -1.9683 0
M  V30 34 H -3.4836 -1.3517 -2.596 0
M  V30 35 H -6.2685 1.9914 2.936 0
M  V30 36 H -6.7676 1.1332 1.4267 0
M  V30 37 H -6.6421 2.9326 1.4347 0
M  V30 38 H 6.6606 -2.3971 0.2085 0
M  V30 39 H 5.2614 -1.903 1.2138 0
M  V30 40 H 7.0874 0.0417 -0.371 0
M  V30 41 H 7.2598 -0.3487 1.3731 0
M  V30 42 H 4.933 0.5314 1.8009 0
M  V30 43 H 6.0501 1.774 1.1214 0
M  V30 44 H 4.8184 1.0068 0.056 0
M  V30 END ATOM
M  V30 BEGIN BOND
M  V30 1 2 1 2
M  V30 2 1 2 3
M  V30 3 1 2 4
M  V30 4 1 3 5
M  V30 5 2 3 6
M  V30 6 2 4 7
M  V30 7 1 4 8
M  V30 8 2 5 9
M  V30 9 1 5 10
M  V30 10 1 6 11
M  V30 11 1 7 12
M  V30 12 2 8 13
M  V30 13 1 10 14
M  V30 14 1 11 15
M  V30 15 2 12 16
M  V30 16 1 14 17
M  V30 17 1 15 18
M  V30 18 1 16 19
M  V30 19 1 17 20
M  V30 20 2 20 21
M  V30 21 1 20 22
M  V30 22 1 22 23
M  V30 23 1 23 24
M  V30 24 1 7 11
M  V30 25 1 13 16
M  V30 26 1 6 25
M  V30 27 1 8 26
M  V30 28 1 13 27
M  V30 29 1 14 28
M  V30 30 1 14 29
M  V30 31 1 15 30
M  V30 32 1 15 31
M  V30 33 1 18 32
M  V30 34 1 18 33
M  V30 35 1 18 34
M  V30 36 1 19 35
M  V30 37 1 19 36
M  V30 38 1 19 37
M  V30 39 1 22 38
M  V30 40 1 22 39
M  V30 41 1 23 40
M  V30 42 1 23 41
M  V30 43 1 24 42
M  V30 44 1 24 43
M  V30 45 1 24 44
M  V30 END BOND
M  V30 END CTAB
M  END
>  <Structure No>
6802

>  <LogS>
-2.95

>  <MMFF94 Energy>
-16.241

$$$$
Compound 6803
Actelion Java MolfileCreator 2.0

  0  0  0  0  0  0              0 V3000
M  V30 BEGIN CTAB
M  V30 COUNTS 23 24 0 0 0
M  V30 BEGIN ATOM
M  V30 1 Cl -5.3147 -0.8994 0.4496 0
M  V30 2 C -3.7315 -0.1648 0.1892 0
M  V30 3 C -3.6298 1.0853 -0.4491 0
M  V30 4 C -2.5682 -0.8293 0.6199 0
M  V30 5 Cl -5.0816 1.9264 -0.9951 0
M  V30 6 C -2.3662 1.6658 -0.6478 0
M  V30 7 Cl -2.6731 -2.3969 1.419 0
M  V30 8 C -1.3064 -0.254 0.4078 0
M  V30 9 Cl -2.1921 3.2311 -1.4321 0
M  V30 10 C -1.2158 1.0012 -0.2171 0
M  V30 11 O -0.1632 -0.9381 0.8524 0
M  V30 12 C 1.1412 -0.6805 0.4127 0
M  V30 13 C 1.4953 -0.7608 -0.9502 0
M  V30 14 C 2.1207 -0.367 1.3627 0
M  V30 15 Cl 0.3357 -1.2677 -2.1716 0
M  V30 16 C 2.8112 -0.4885 -1.344 0
M  V30 17 C 3.4321 -0.0961 0.9632 0
M  V30 18 C 3.7771 -0.1508 -0.3903 0
M  V30 19 Cl 5.4241 0.187 -0.8904 0
M  V30 20 H -0.2515 1.4701 -0.3645 0
M  V30 21 H 1.86 -0.3198 2.4125 0
M  V30 22 H 3.086 -0.5509 -2.3895 0
M  V30 23 H 4.1783 0.1559 1.7059 0
M  V30 END ATOM
M  V30 BEGIN BOND
M  V30 1 1 1 2
M  V30 2 2 2 3
M  V30 3 1 2 4
M  V30 4 1 3 5
M  V30 5 1 3 6
M  V30 6 1 4 7
M  V30 7 2 4 8
M  V30 8 1 6 9
M  V30 9 2 6 10
M  V30 10 1 8 11
M  V30 11 1 11 12
M  V30 12 2 12 13
M  V30 13 1 12 14
M  V30 14 1 13 15
M  V30 15 1 13 16
M  V30 16 2 14 17
M  V30 17 2 16 18
M  V30 18 1 18 19
M  V30 19 1 8 10
M  V30 20 1 17 18
M  V30 21 1 10 20
M  V30 22 1 14 21
M  V30 23 1 16 22
M  V30 24 1 17 23
M  V30 END BOND
M  V30 END CTAB
M  END
>  <Structure No>
6803

>  <LogS>
-8.44

>  <MMFF94 Energy>
57.616

$$$$
Compound 6804
Actelion Java MolfileCreator 2.0

  0  0  0  0  0  0              0 V3000
M  V30 BEGIN CTAB
M  V30 COUNTS 23 24 0 0 0
M  V30 BEGIN ATOM
M  V30 1 Cl 1.9783 -1.8883 -2.5183 0
M  V30 2 C 2.2576 -0.7556 -1.2045 0
M  V30 3 C 1.2696 -0.5387 -0.2298 0
M  V30 4 C 3.4651 -0.0523 -1.1547 0
M  V30 5 O 0.0662 -1.2537 -0.3262 0
M  V30 6 C 1.5278 0.3642 0.8279 0
M  V30 7 C 3.7043 0.8602 -0.125 0
M  V30 8 C -1.2153 -0.7187 -0.1297 0
M  V30 9 Cl 0.4031 0.5899 2.1619 0
M  V30 10 C 2.7407 1.062 0.8662 0
M  V30 11 Cl 5.2212 1.739 -0.0663 0
M  V30 12 C -1.6043 0.5405 -0.6401 0
M  V30 13 C -2.1459 -1.4882 0.5782 0
M  V30 14 Cl -0.5467 1.5073 -1.661 0
M  V30 15 C -2.8954 1.0207 -0.3915 0
M  V30 16 C -3.4348 -1.0048 0.8249 0
M  V30 17 C -3.8092 0.2593 0.3436 0
M  V30 18 Cl -4.5576 -2.0015 1.7403 0
M  V30 19 Cl -5.4197 0.9044 0.6306 0
M  V30 20 H 4.2166 -0.2144 -1.9171 0
M  V30 21 H 2.9406 1.753 1.6757 0
M  V30 22 H -1.8563 -2.4613 0.9549 0
M  V30 23 H -3.1946 1.9851 -0.7828 0
M  V30 END ATOM
M  V30 BEGIN BOND
M  V30 1 1 1 2
M  V30 2 2 2 3
M  V30 3 1 2 4
M  V30 4 1 3 5
M  V30 5 1 3 6
M  V30 6 2 4 7
M  V30 7 1 5 8
M  V30 8 1 6 9
M  V30 9 2 6 10
M  V30 10 1 7 11
M  V30 11 2 8 12
M  V30 12 1 8 13
M  V30 13 1 12 14
M  V30 14 1 12 15
M  V30 15 2 13 16
M  V30 16 2 15 17
M  V30 17 1 16 18
M  V30 18 1 17 19
M  V30 19 1 7 10
M  V30 20 1 16 17
M  V30 21 1 4 20
M  V30 22 1 10 21
M  V30 23 1 13 22
M  V30 24 1 15 23
M  V30 END BOND
M  V30 END CTAB
M  END
>  <Structure No>
6804

>  <LogS>
-8.04

>  <MMFF94 Energy>
41.812

$$$$
Compound 6805
Actelion Java MolfileCreator 2.0

  0  0  0  0  0  0              0 V3000
M  V30 BEGIN CTAB
M  V30 COUNTS 44 45 0 0 0
M  V30 BEGIN ATOM
M  V30 1 O -0.5582 1.1168 2.3943 0
M  V30 2 C -1.1261 0.5716 1.4075 0
M  V30 3 C -0.4178 -0.3259 0.5828 0
M  V30 4 C -2.4735 0.8581 1.131 0
M  V30 5 C 1.0068 -0.6761 0.8308 0
M  V30 6 C -1.0877 -0.907 -0.5066 0
M  V30 7 C -3.0989 0.2468 0.0213 0
M  V30 8 C -3.2243 1.7366 1.9325 0
M  V30 9 O 1.6313 -0.1753 1.8065 0
M  V30 10 O 1.6613 -1.5699 -0.0258 0
M  V30 11 N -2.3937 -0.6113 -0.7832 0
M  V30 12 N -4.4105 0.5177 -0.238 0
M  V30 13 C -4.5624 1.9887 1.6322 0
M  V30 14 C 3.0273 -1.9368 0.1334 0
M  V30 15 C -3.0385 -1.2757 -1.9295 0
M  V30 16 C -5.15 1.3605 0.5308 0
M  V30 17 O 3.8551 -0.7947 -0.0579 0
M  V30 18 C -3.7334 -2.5574 -1.4813 0
M  V30 19 C -6.5822 1.6184 0.1874 0
M  V30 20 C 5.2483 -0.8445 0.0508 0
M  V30 21 O 5.8323 -1.9318 0.3117 0
M  V30 22 C 6.055 0.4077 -0.1429 0
M  V30 23 C 5.86 0.9502 -1.5613 0
M  V30 24 C 5.6646 1.4568 0.9018 0
M  V30 25 H -0.5569 -1.6068 -1.1419 0
M  V30 26 H -2.782 2.227 2.791 0
M  V30 27 H -5.1364 2.6659 2.2528 0
M  V30 28 H 3.2801 -2.7094 -0.6228 0
M  V30 29 H 3.1869 -2.3604 1.1491 0
M  V30 30 H -3.7768 -0.6005 -2.4142 0
M  V30 31 H -2.2881 -1.5244 -2.7125 0
M  V30 32 H -4.5195 -2.3265 -0.7317 0
M  V30 33 H -2.9945 -3.2542 -1.0321 0
M  V30 34 H -4.2069 -3.0511 -2.3556 0
M  V30 35 H -6.7184 2.6901 -0.0688 0
M  V30 36 H -7.2287 1.3636 1.0534 0
M  V30 37 H -6.8923 1.0005 -0.6819 0
M  V30 38 H 7.1341 0.1709 -0.0085 0
M  V30 39 H 6.1593 0.1832 -2.3074 0
M  V30 40 H 4.7977 1.2264 -1.7366 0
M  V30 41 H 6.4932 1.8498 -1.7159 0
M  V30 42 H 4.5969 1.7465 0.7922 0
M  V30 43 H 6.2946 2.3644 0.785 0
M  V30 44 H 5.8235 1.0537 1.925 0
M  V30 END ATOM
M  V30 BEGIN BOND
M  V30 1 2 1 2
M  V30 2 1 2 3
M  V30 3 1 2 4
M  V30 4 1 3 5
M  V30 5 2 3 6
M  V30 6 2 4 7
M  V30 7 1 4 8
M  V30 8 2 5 9
M  V30 9 1 5 10
M  V30 10 1 6 11
M  V30 11 1 7 12
M  V30 12 2 8 13
M  V30 13 1 10 14
M  V30 14 1 11 15
M  V30 15 2 12 16
M  V30 16 1 14 17
M  V30 17 1 15 18
M  V30 18 1 16 19
M  V30 19 1 17 20
M  V30 20 2 20 21
M  V30 21 1 20 22
M  V30 22 1 22 23
M  V30 23 1 22 24
M  V30 24 1 7 11
M  V30 25 1 13 16
M  V30 26 1 6 25
M  V30 27 1 8 26
M  V30 28 1 13 27
M  V30 29 1 14 28
M  V30 30 1 14 29
M  V30 31 1 15 30
M  V30 32 1 15 31
M  V30 33 1 18 32
M  V30 34 1 18 33
M  V30 35 1 18 34
M  V30 36 1 19 35
M  V30 37 1 19 36
M  V30 38 1 19 37
M  V30 39 1 22 38
M  V30 40 1 23 39
M  V30 41 1 23 40
M  V30 42 1 23 41
M  V30 43 1 24 42
M  V30 44 1 24 43
M  V30 45 1 24 44
M  V30 END BOND
M  V30 END CTAB
M  END
>  <Structure No>
6805

>  <LogS>
-3.02

>  <MMFF94 Energy>
-9.949

$$$$
Compound 6806
Actelion Java MolfileCreator 2.0

  0  0  0  0  0  0              0 V3000
M  V30 BEGIN CTAB
M  V30 COUNTS 23 24 0 0 0
M  V30 BEGIN ATOM
M  V30 1 Cl 3.3307 2.2496 -1.5294 0
M  V30 2 C 2.8271 0.76 -0.7288 0
M  V30 3 C 1.5806 0.6904 -0.0736 0
M  V30 4 C 3.6781 -0.3592 -0.7356 0
M  V30 5 Cl 0.571 2.135 0.026 0
M  V30 6 C 1.1856 -0.5144 0.554 0
M  V30 7 Cl 5.241 -0.3163 -1.5421 0
M  V30 8 C 3.2938 -1.5316 -0.0816 0
M  V30 9 O -0.0496 -0.6612 1.2018 0
M  V30 10 C 2.0607 -1.6048 0.5644 0
M  V30 11 C -1.2877 -0.2239 0.7054 0
M  V30 12 C -2.1884 0.3817 1.5972 0
M  V30 13 C -1.6661 -0.398 -0.6469 0
M  V30 14 Cl -1.7606 0.5926 3.2885 0
M  V30 15 C -3.4262 0.8484 1.1439 0
M  V30 16 Cl -0.661 -1.2695 -1.7986 0
M  V30 17 C -2.9082 0.0737 -1.088 0
M  V30 18 C -3.7832 0.7012 -0.1979 0
M  V30 19 Cl -5.3377 1.2871 -0.7617 0
M  V30 20 H 3.9512 -2.3918 -0.0759 0
M  V30 21 H 1.7722 -2.5229 1.0602 0
M  V30 22 H -4.1096 1.3266 1.8344 0
M  V30 23 H -3.2 -0.0595 -2.1223 0
M  V30 END ATOM
M  V30 BEGIN BOND
M  V30 1 1 1 2
M  V30 2 2 2 3
M  V30 3 1 2 4
M  V30 4 1 3 5
M  V30 5 1 3 6
M  V30 6 1 4 7
M  V30 7 2 4 8
M  V30 8 1 6 9
M  V30 9 2 6 10
M  V30 10 1 9 11
M  V30 11 2 11 12
M  V30 12 1 11 13
M  V30 13 1 12 14
M  V30 14 1 12 15
M  V30 15 1 13 16
M  V30 16 2 13 17
M  V30 17 2 15 18
M  V30 18 1 18 19
M  V30 19 1 8 10
M  V30 20 1 17 18
M  V30 21 1 8 20
M  V30 22 1 10 21
M  V30 23 1 15 22
M  V30 24 1 17 23
M  V30 END BOND
M  V30 END CTAB
M  END
>  <Structure No>
6806

>  <LogS>
-8.1

>  <MMFF94 Energy>
54.912

$$$$
Compound 6807
Actelion Java MolfileCreator 2.0

  0  0  0  0  0  0              0 V3000
M  V30 BEGIN CTAB
M  V30 COUNTS 23 24 0 0 0
M  V30 BEGIN ATOM
M  V30 1 Cl -5.3172 0.5398 0.9898 0
M  V30 2 C -3.7191 0.0732 0.403 0
M  V30 3 C -3.211 -1.2062 0.6897 0
M  V30 4 C -2.9572 0.978 -0.3582 0
M  V30 5 Cl -4.1685 -2.349 1.6342 0
M  V30 6 C -1.9375 -1.5742 0.2246 0
M  V30 7 Cl -3.6023 2.5769 -0.7368 0
M  V30 8 C -1.6839 0.606 -0.8232 0
M  V30 9 Cl -1.2769 -3.1693 0.5801 0
M  V30 10 C -1.1674 -0.6658 -0.5142 0
M  V30 11 Cl -0.7536 1.7084 -1.8393 0
M  V30 12 O 0.1033 -1.0538 -0.9579 0
M  V30 13 C 1.3025 -0.448 -0.5531 0
M  V30 14 C 1.3659 0.4284 0.5479 0
M  V30 15 C 2.4745 -0.746 -1.2588 0
M  V30 16 C 2.5844 1.0055 0.9183 0
M  V30 17 C 3.692 -0.1679 -0.8866 0
M  V30 18 C 3.7477 0.7098 0.2009 0
M  V30 19 Cl 5.2755 1.4344 0.6673 0
M  V30 20 H 0.4801 0.6611 1.1238 0
M  V30 21 H 2.4398 -1.4246 -2.1016 0
M  V30 22 H 2.6234 1.6797 1.7646 0
M  V30 23 H 4.59 -0.403 -1.4431 0
M  V30 END ATOM
M  V30 BEGIN BOND
M  V30 1 1 1 2
M  V30 2 2 2 3
M  V30 3 1 2 4
M  V30 4 1 3 5
M  V30 5 1 3 6
M  V30 6 1 4 7
M  V30 7 2 4 8
M  V30 8 1 6 9
M  V30 9 2 6 10
M  V30 10 1 8 11
M  V30 11 1 10 12
M  V30 12 1 12 13
M  V30 13 2 13 14
M  V30 14 1 13 15
M  V30 15 1 14 16
M  V30 16 2 15 17
M  V30 17 2 16 18
M  V30 18 1 18 19
M  V30 19 1 8 10
M  V30 20 1 17 18
M  V30 21 1 14 20
M  V30 22 1 15 21
M  V30 23 1 16 22
M  V30 24 1 17 23
M  V30 END BOND
M  V30 END CTAB
M  END
>  <Structure No>
6807

>  <LogS>
-8.94

>  <MMFF94 Energy>
60.019

$$$$
Compound 6808
Actelion Java MolfileCreator 2.0

  0  0  0  0  0  0              0 V3000
M  V30 BEGIN CTAB
M  V30 COUNTS 37 38 0 0 0
M  V30 BEGIN ATOM
M  V30 1 Cl 7.9975 0.0813 2.4431 0
M  V30 2 C 6.3203 0.5907 2.3808 0
M  V30 3 C 5.6622 0.9996 3.5432 0
M  V30 4 C 5.631 0.6055 1.1667 0
M  V30 5 N 4.3622 1.3941 3.4869 0
M  V30 6 C 4.2968 1.0164 1.1278 0
M  V30 7 C 3.6582 1.3991 2.3224 0
M  V30 8 F 3.6535 1.0847 -0.0644 0
M  V30 9 O 2.3251 1.8306 2.3438 0
M  V30 10 C 1.2754 1.2495 1.6172 0
M  V30 11 C 1.29 -0.105 1.2414 0
M  V30 12 C 0.1632 2.0349 1.298 0
M  V30 13 C 0.2185 -0.6524 0.5294 0
M  V30 14 C -0.9081 1.4889 0.5859 0
M  V30 15 C -0.8904 0.1468 0.1892 0
M  V30 16 O -1.9955 -0.3449 -0.5251 0
M  V30 17 C -2.1066 -1.6474 -1.1027 0 CFG=1
M  V30 18 C -3.5419 -1.8976 -1.4512 0
M  V30 19 C -1.2509 -1.7445 -2.3679 0
M  V30 20 O -4.0527 -3.0297 -1.2305 0
M  V30 21 O -4.2921 -0.8841 -2.0557 0
M  V30 22 C -5.6527 -1.0576 -2.4319 0
M  V30 23 C -6.1494 0.1806 -3.0325 0
M  V30 24 C -6.5583 1.2009 -3.5274 0
M  V30 25 H 6.1824 1.0056 4.4919 0
M  V30 26 H 6.1313 0.3105 0.2531 0
M  V30 27 H 2.1215 -0.7425 1.5117 0
M  V30 28 H 0.1326 3.075 1.5968 0
M  V30 29 H 0.2641 -1.6972 0.2594 0
M  V30 30 H -1.7578 2.1129 0.3395 0
M  V30 31 H -1.787 -2.4183 -0.3681 0
M  V30 32 H -1.5637 -0.9753 -3.1065 0
M  V30 33 H -1.3571 -2.7512 -2.8257 0
M  V30 34 H -0.1799 -1.5848 -2.1278 0
M  V30 35 H -6.2655 -1.2976 -1.5371 0
M  V30 36 H -5.7386 -1.88 -3.1734 0
M  V30 37 H -6.9173 2.0968 -3.9617 0
M  V30 END ATOM
M  V30 BEGIN BOND
M  V30 1 1 1 2
M  V30 2 2 2 3
M  V30 3 1 2 4
M  V30 4 1 3 5
M  V30 5 2 4 6
M  V30 6 2 5 7
M  V30 7 1 6 8
M  V30 8 1 7 9
M  V30 9 1 9 10
M  V30 10 2 10 11
M  V30 11 1 10 12
M  V30 12 1 11 13
M  V30 13 2 12 14
M  V30 14 2 13 15
M  V30 15 1 15 16
M  V30 16 1 16 17
M  V30 17 1 17 18
M  V30 18 1 17 19
M  V30 19 2 18 20
M  V30 20 1 18 21
M  V30 21 1 21 22
M  V30 22 1 22 23
M  V30 23 3 23 24
M  V30 24 1 6 7
M  V30 25 1 14 15
M  V30 26 1 3 25
M  V30 27 1 4 26
M  V30 28 1 11 27
M  V30 29 1 12 28
M  V30 30 1 13 29
M  V30 31 1 14 30
M  V30 32 1 17 31
M  V30 33 1 19 32
M  V30 34 1 19 33
M  V30 35 1 19 34
M  V30 36 1 22 35
M  V30 37 1 22 36
M  V30 38 1 24 37
M  V30 END BOND
M  V30 BEGIN COLLECTION
M  V30 MDLV30/STEABS ATOMS=(1 17)
M  V30 END COLLECTION
M  V30 END CTAB
M  END
>  <Structure No>
6808

>  <LogS>
-5.15

>  <MMFF94 Energy>
77.58

$$$$
Compound 6809
Actelion Java MolfileCreator 2.0

  0  0  0  0  0  0              0 V3000
M  V30 BEGIN CTAB
M  V30 COUNTS 34 36 0 0 0
M  V30 BEGIN ATOM
M  V30 1 Cl -0.0814 -4.1627 -2.3654 0
M  V30 2 C -0.7038 -2.7715 -1.4968 0
M  V30 3 C 0.1269 -1.6792 -1.2403 0
M  V30 4 C -2.0295 -2.755 -1.065 0
M  V30 5 C -0.3554 -0.5565 -0.5424 0
M  V30 6 C -2.5279 -1.6475 -0.3786 0
M  V30 7 C 0.5749 0.5794 -0.2795 0
M  V30 8 C -1.7065 -0.537 -0.1098 0
M  V30 9 N 0.2138 1.8112 -0.5059 0
M  V30 10 C 1.9537 0.325 0.2141 0
M  V30 11 N -2.2522 0.5915 0.6077 0
M  V30 12 C -1.0999 2.2267 -0.9828 0 CFG=1
M  V30 13 C 2.9981 1.2169 -0.0965 0
M  V30 14 C 2.2346 -0.7941 1.0221 0
M  V30 15 C -2.1164 1.9278 0.0849 0
M  V30 16 C -3.1103 0.3628 1.7744 0
M  V30 17 O -1.0616 3.6012 -1.2629 0
M  V30 18 C 4.2935 0.9835 0.3748 0
M  V30 19 C 3.5317 -1.0222 1.4907 0
M  V30 20 O -2.8426 2.8575 0.5339 0
M  V30 21 C 4.5605 -0.1355 1.1662 0
M  V30 22 H 1.1515 -1.7036 -1.5912 0
M  V30 23 H -2.6777 -3.5987 -1.2648 0
M  V30 24 H -3.5641 -1.6503 -0.0656 0
M  V30 25 H -1.352 1.663 -1.9115 0
M  V30 26 H 2.8156 2.088 -0.7134 0
M  V30 27 H 1.45 -1.4851 1.3029 0
M  V30 28 H -4.1755 0.3591 1.4615 0
M  V30 29 H -2.8657 -0.6081 2.2562 0
M  V30 30 H -2.9525 1.1605 2.5312 0
M  V30 31 H -1.841 3.797 -1.8465 0
M  V30 32 H 5.0913 1.6712 0.1258 0
M  V30 33 H 3.7382 -1.8851 2.1104 0
M  V30 34 H 5.5638 -0.3139 1.5306 0
M  V30 END ATOM
M  V30 BEGIN BOND
M  V30 1 1 1 2
M  V30 2 2 2 3
M  V30 3 1 2 4
M  V30 4 1 3 5
M  V30 5 2 4 6
M  V30 6 1 5 7
M  V30 7 2 5 8
M  V30 8 2 7 9
M  V30 9 1 7 10
M  V30 10 1 8 11
M  V30 11 1 9 12
M  V30 12 2 10 13
M  V30 13 1 10 14
M  V30 14 1 11 15
M  V30 15 1 11 16
M  V30 16 1 12 17
M  V30 17 1 13 18
M  V30 18 2 14 19
M  V30 19 2 15 20
M  V30 20 2 18 21
M  V30 21 1 6 8
M  V30 22 1 12 15
M  V30 23 1 19 21
M  V30 24 1 3 22
M  V30 25 1 4 23
M  V30 26 1 6 24
M  V30 27 1 12 25
M  V30 28 1 13 26
M  V30 29 1 14 27
M  V30 30 1 16 28
M  V30 31 1 16 29
M  V30 32 1 16 30
M  V30 33 1 17 31
M  V30 34 1 18 32
M  V30 35 1 19 33
M  V30 36 1 21 34
M  V30 END BOND
M  V30 BEGIN COLLECTION
M  V30 MDLV30/STEABS ATOMS=(1 12)
M  V30 END COLLECTION
M  V30 END CTAB
M  END
>  <Structure No>
6809

>  <LogS>
-2.7

>  <MMFF94 Energy>
105.8

$$$$
Compound 6810
Actelion Java MolfileCreator 2.0

  0  0  0  0  0  0              0 V3000
M  V30 BEGIN CTAB
M  V30 COUNTS 43 46 0 0 0
M  V30 BEGIN ATOM
M  V30 1 Cl -4.4488 -4.1247 -2.5056 0
M  V30 2 C -3.91 -2.9257 -1.3441 0
M  V30 3 C -2.6269 -2.3806 -1.4445 0
M  V30 4 C -4.7551 -2.5286 -0.3065 0
M  V30 5 C -2.1866 -1.4131 -0.5302 0
M  V30 6 C -4.3192 -1.5855 0.6259 0
M  V30 7 N -0.8151 -1.0017 -0.6035 0
M  V30 8 C -3.04 -1.016 0.5198 0
M  V30 9 C -0.2691 0.1352 -0.2776 0
M  V30 10 N -2.6277 -0.05 1.4895 0
M  V30 11 N 1.1606 0.26 -0.4082 0
M  V30 12 C -1.0645 1.3196 0.146 0
M  V30 13 C -2.1351 1.2197 1.0583 0
M  V30 14 C 1.8519 -0.2341 -1.6024 0
M  V30 15 C 1.9503 0.989 0.5891 0
M  V30 16 C -0.6737 2.5941 -0.3074 0
M  V30 17 C -2.7523 2.3858 1.5396 0
M  V30 18 C 3.1134 -0.9997 -1.189 0
M  V30 19 C 3.21 0.1874 0.9359 0
M  V30 20 C -1.3107 3.7452 0.16 0
M  V30 21 C -2.3423 3.6417 1.0914 0
M  V30 22 N 3.9551 -0.1837 -0.2867 0 CHG=1
M  V30 23 C 5.1757 -0.9249 0.0718 0
M  V30 24 H -1.9634 -2.7161 -2.2323 0
M  V30 25 H -5.7468 -2.9536 -0.2178 0
M  V30 26 H -4.983 -1.2879 1.4281 0
M  V30 27 H -3.077 -0.0944 2.433 0
M  V30 28 H 2.1331 0.6296 -2.2428 0
M  V30 29 H 1.1983 -0.9043 -2.2013 0
M  V30 30 H 1.3612 1.1516 1.5183 0
M  V30 31 H 2.2412 1.9798 0.1784 0
M  V30 32 H 0.1326 2.6997 -1.0227 0
M  V30 33 H -3.5698 2.3173 2.2467 0
M  V30 34 H 2.812 -1.9493 -0.6899 0
M  V30 35 H 3.6803 -1.2622 -2.1105 0
M  V30 36 H 2.9128 -0.724 1.5039 0
M  V30 37 H 3.8488 0.8115 1.6008 0
M  V30 38 H -0.9971 4.7188 -0.1937 0
M  V30 39 H -2.8315 4.5346 1.4588 0
M  V30 40 H 4.2478 0.6896 -0.7878 0
M  V30 41 H 5.8298 -0.3038 0.7228 0
M  V30 42 H 5.7589 -1.177 -0.841 0
M  V30 43 H 4.9294 -1.8677 0.6096 0
M  V30 END ATOM
M  V30 BEGIN BOND
M  V30 1 1 1 2
M  V30 2 2 2 3
M  V30 3 1 2 4
M  V30 4 1 3 5
M  V30 5 2 4 6
M  V30 6 1 5 7
M  V30 7 2 5 8
M  V30 8 2 7 9
M  V30 9 1 8 10
M  V30 10 1 9 11
M  V30 11 1 9 12
M  V30 12 1 10 13
M  V30 13 1 11 14
M  V30 14 1 11 15
M  V30 15 1 12 16
M  V30 16 1 13 17
M  V30 17 1 14 18
M  V30 18 1 15 19
M  V30 19 2 16 20
M  V30 20 2 17 21
M  V30 21 1 18 22
M  V30 22 1 22 23
M  V30 23 1 6 8
M  V30 24 2 12 13
M  V30 25 1 19 22
M  V30 26 1 20 21
M  V30 27 1 3 24
M  V30 28 1 4 25
M  V30 29 1 6 26
M  V30 30 1 10 27
M  V30 31 1 14 28
M  V30 32 1 14 29
M  V30 33 1 15 30
M  V30 34 1 15 31
M  V30 35 1 16 32
M  V30 36 1 17 33
M  V30 37 1 18 34
M  V30 38 1 18 35
M  V30 39 1 19 36
M  V30 40 1 19 37
M  V30 41 1 20 38
M  V30 42 1 21 39
M  V30 43 1 22 40
M  V30 44 1 23 41
M  V30 45 1 23 42
M  V30 46 1 23 43
M  V30 END BOND
M  V30 END CTAB
M  END
>  <Structure No>
6810

>  <LogS>
-4.64

>  <MMFF94 Energy>
138.35

$$$$
Compound 6811
Actelion Java MolfileCreator 2.0

  0  0  0  0  0  0              0 V3000
M  V30 BEGIN CTAB
M  V30 COUNTS 30 32 0 0 0
M  V30 BEGIN ATOM
M  V30 1 S -0.6537 4.4187 0.9806 0
M  V30 2 C -1.9657 4.3626 -0.0656 0
M  V30 3 C -0.3501 2.7692 0.8875 0
M  V30 4 N -2.1894 3.1004 -0.4898 0
M  V30 5 C -1.2895 2.2147 0.019 0
M  V30 6 C -1.3917 0.773 -0.275 0
M  V30 7 N -2.5973 0.1736 -0.4606 0
M  V30 8 N -0.3429 -0.0981 -0.3376 0
M  V30 9 C -2.2749 -1.1197 -0.6329 0
M  V30 10 C -0.9225 -1.2922 -0.5589 0
M  V30 11 C 1.0635 0.1899 -0.3173 0
M  V30 12 C -3.1423 -2.1799 -0.8858 0
M  V30 13 C -0.3306 -2.5431 -0.7629 0
M  V30 14 O 1.4957 1.2498 -0.8478 0
M  V30 15 O 1.9501 -0.7159 0.2752 0
M  V30 16 C -2.5805 -3.4555 -1.0744 0
M  V30 17 C -1.1806 -3.6356 -1.0163 0
M  V30 18 C 3.3501 -0.4766 0.4005 0
M  V30 19 C 3.6254 0.5357 1.5065 0
M  V30 20 H -2.5693 5.2097 -0.3613 0
M  V30 21 H 0.4143 2.2384 1.4385 0
M  V30 22 H -4.2123 -2.027 -0.9426 0
M  V30 23 H 0.7408 -2.6808 -0.7372 0
M  V30 24 H -3.2242 -4.3023 -1.274 0
M  V30 25 H -0.7583 -4.6194 -1.1742 0
M  V30 26 H 3.8501 -1.4334 0.6599 0
M  V30 27 H 3.77 -0.1186 -0.5645 0
M  V30 28 H 4.7211 0.6657 1.6294 0
M  V30 29 H 3.1955 0.1755 2.4652 0
M  V30 30 H 3.1762 1.5188 1.2534 0
M  V30 END ATOM
M  V30 BEGIN BOND
M  V30 1 1 1 2
M  V30 2 1 1 3
M  V30 3 2 2 4
M  V30 4 2 3 5
M  V30 5 1 5 6
M  V30 6 2 6 7
M  V30 7 1 6 8
M  V30 8 1 7 9
M  V30 9 1 8 10
M  V30 10 1 8 11
M  V30 11 1 9 12
M  V30 12 1 10 13
M  V30 13 2 11 14
M  V30 14 1 11 15
M  V30 15 2 12 16
M  V30 16 2 13 17
M  V30 17 1 15 18
M  V30 18 1 18 19
M  V30 19 1 4 5
M  V30 20 2 9 10
M  V30 21 1 16 17
M  V30 22 1 2 20
M  V30 23 1 3 21
M  V30 24 1 12 22
M  V30 25 1 13 23
M  V30 26 1 16 24
M  V30 27 1 17 25
M  V30 28 1 18 26
M  V30 29 1 18 27
M  V30 30 1 19 28
M  V30 31 1 19 29
M  V30 32 1 19 30
M  V30 END BOND
M  V30 END CTAB
M  END
>  <Structure No>
6811

>  <LogS>
-2.92

>  <MMFF94 Energy>
35.746

$$$$
Compound 6812
Actelion Java MolfileCreator 2.0

  0  0  0  0  0  0              0 V3000
M  V30 BEGIN CTAB
M  V30 COUNTS 52 53 0 0 0
M  V30 BEGIN ATOM
M  V30 1 O -0.8737 -1.8276 -1.9071 0
M  V30 2 C -0.5942 -0.7439 -2.4941 0
M  V30 3 O -1.5296 0.2958 -2.5479 0
M  V30 4 C 0.7714 -0.5299 -3.0863 0 CFG=1
M  V30 5 C -2.7882 0.2444 -1.8785 0
M  V30 6 C 1.7441 -0.0765 -2.015 0
M  V30 7 C 1.2811 -1.7797 -3.8176 0
M  V30 8 C -2.6185 0.4416 -0.3915 0
M  V30 9 C 2.0549 -0.9061 -0.9188 0
M  V30 10 C 2.3405 1.1935 -2.1008 0
M  V30 11 O -1.5277 0.9145 0.0353 0
M  V30 12 N -3.6925 0.1722 0.5415 0
M  V30 13 C 2.9508 -0.4754 0.0716 0
M  V30 14 C 3.2345 1.6291 -1.1186 0
M  V30 15 C -3.5691 0.6161 1.9396 0
M  V30 16 C -4.8776 -0.6062 0.1476 0
M  V30 17 C 3.5482 0.8025 -0.0301 0
M  V30 18 C 3.2612 -1.3015 1.1624 0
M  V30 19 C -3.8232 2.121 2.0481 0
M  V30 20 C -4.58 -2.1055 0.2328 0
M  V30 21 C 4.4491 1.2314 0.9579 0
M  V30 22 C 4.1584 -0.8661 2.1412 0
M  V30 23 O -3.696 2.5387 3.3804 0
M  V30 24 O -5.681 -2.8479 -0.2176 0
M  V30 25 C 4.7597 0.3949 2.0494 0
M  V30 26 O 5.6571 0.7765 3.0585 0
M  V30 27 C 6.3535 2.0181 3.0901 0
M  V30 28 H 0.6716 0.2662 -3.8583 0
M  V30 29 H -3.4301 1.0625 -2.2681 0
M  V30 30 H -3.2822 -0.7223 -2.1069 0
M  V30 31 H 1.3788 -2.6447 -3.1269 0
M  V30 32 H 2.2737 -1.5729 -4.2712 0
M  V30 33 H 0.5769 -2.0556 -4.6326 0
M  V30 34 H 1.5976 -1.8851 -0.8361 0
M  V30 35 H 2.1135 1.8527 -2.9297 0
M  V30 36 H 3.6805 2.6127 -1.2109 0
M  V30 37 H -4.2988 0.0814 2.5863 0
M  V30 38 H -2.5573 0.3699 2.3296 0
M  V30 39 H -5.7324 -0.3691 0.8193 0
M  V30 40 H -5.2093 -0.3292 -0.8753 0
M  V30 41 H 2.8117 -2.2835 1.2581 0
M  V30 42 H -3.0803 2.6719 1.4341 0
M  V30 43 H -4.8379 2.3659 1.6588 0
M  V30 44 H -3.7033 -2.3537 -0.4017 0
M  V30 45 H -4.3287 -2.3834 1.282 0
M  V30 46 H 4.9038 2.2106 0.8722 0
M  V30 47 H 4.3905 -1.515 2.9774 0
M  V30 48 H -4.5328 2.2723 3.8441 0
M  V30 49 H -6.3639 -2.8089 0.5031 0
M  V30 50 H 5.63 2.862 3.1356 0
M  V30 51 H 7.0004 2.1151 2.191 0
M  V30 52 H 6.9956 2.05 3.995 0
M  V30 END ATOM
M  V30 BEGIN BOND
M  V30 1 2 1 2
M  V30 2 1 2 3
M  V30 3 1 2 4
M  V30 4 1 3 5
M  V30 5 1 4 6
M  V30 6 1 4 7
M  V30 7 1 5 8
M  V30 8 2 6 9
M  V30 9 1 6 10
M  V30 10 2 8 11
M  V30 11 1 8 12
M  V30 12 1 9 13
M  V30 13 2 10 14
M  V30 14 1 12 15
M  V30 15 1 12 16
M  V30 16 1 13 17
M  V30 17 2 13 18
M  V30 18 1 15 19
M  V30 19 1 16 20
M  V30 20 2 17 21
M  V30 21 1 18 22
M  V30 22 1 19 23
M  V30 23 1 20 24
M  V30 24 1 21 25
M  V30 25 1 25 26
M  V30 26 1 26 27
M  V30 27 1 14 17
M  V30 28 2 22 25
M  V30 29 1 4 28
M  V30 30 1 5 29
M  V30 31 1 5 30
M  V30 32 1 7 31
M  V30 33 1 7 32
M  V30 34 1 7 33
M  V30 35 1 9 34
M  V30 36 1 10 35
M  V30 37 1 14 36
M  V30 38 1 15 37
M  V30 39 1 15 38
M  V30 40 1 16 39
M  V30 41 1 16 40
M  V30 42 1 18 41
M  V30 43 1 19 42
M  V30 44 1 19 43
M  V30 45 1 20 44
M  V30 46 1 20 45
M  V30 47 1 21 46
M  V30 48 1 22 47
M  V30 49 1 23 48
M  V30 50 1 24 49
M  V30 51 1 27 50
M  V30 52 1 27 51
M  V30 53 1 27 52
M  V30 END BOND
M  V30 BEGIN COLLECTION
M  V30 MDLV30/STEABS ATOMS=(1 4)
M  V30 END COLLECTION
M  V30 END CTAB
M  END
>  <Structure No>
6812

>  <LogS>
-2.96

>  <MMFF94 Energy>
90.91

$$$$
Compound 6813
Actelion Java MolfileCreator 2.0

  0  0  0  0  0  0              0 V3000
M  V30 BEGIN CTAB
M  V30 COUNTS 40 43 0 0 0
M  V30 BEGIN ATOM
M  V30 1 Cl 1.7164 -4.4182 -1.9618 0
M  V30 2 C 0.8176 -2.9959 -1.4647 0
M  V30 3 C 1.4905 -1.8034 -1.1947 0
M  V30 4 C -0.5688 -3.056 -1.3401 0
M  V30 5 C 0.7867 -0.6532 -0.7905 0
M  V30 6 C -1.2861 -1.9249 -0.9506 0
M  V30 7 C 1.5635 0.5869 -0.4956 0
M  V30 8 C -0.6291 -0.71 -0.6768 0
M  V30 9 N 1.1937 1.7426 -0.9702 0
M  V30 10 C 2.8089 0.5205 0.3139 0
M  V30 11 N -1.4069 0.4417 -0.2715 0
M  V30 12 C -0.0083 1.9704 -1.7603 0
M  V30 13 C 2.9618 -0.4525 1.3208 0
M  V30 14 C 3.8459 1.4501 0.1049 0
M  V30 15 C -1.2039 1.7255 -0.8979 0
M  V30 16 C -2.4505 0.2942 0.7541 0
M  V30 17 C 4.1313 -0.5035 2.0852 0
M  V30 18 C 5.0133 1.394 0.8725 0
M  V30 19 O -2.014 2.6703 -0.6934 0
M  V30 20 C -3.844 0.2719 0.1063 0
M  V30 21 C 5.1567 0.4173 1.8604 0
M  V30 22 C -4.9879 0.1734 1.1049 0
M  V30 23 C -4.7354 1.4783 0.3691 0
M  V30 24 H 2.5679 -1.7725 -1.3046 0
M  V30 25 H -1.0945 -3.9791 -1.549 0
M  V30 26 H -2.3617 -1.9986 -0.872 0
M  V30 27 H -0.0248 1.2993 -2.6461 0
M  V30 28 H -0.0052 3.0206 -2.1225 0
M  V30 29 H 2.1729 -1.165 1.5264 0
M  V30 30 H 3.7591 2.2123 -0.6595 0
M  V30 31 H -2.3534 1.1144 1.4993 0
M  V30 32 H -2.3026 -0.6538 1.3164 0
M  V30 33 H 4.2403 -1.2553 2.8563 0
M  V30 34 H 5.8078 2.1087 0.7006 0
M  V30 35 H -4.0204 -0.2735 -0.8447 0
M  V30 36 H 6.0609 0.3763 2.4538 0
M  V30 37 H -4.7058 0.2034 2.1796 0
M  V30 38 H -5.8756 -0.384 0.738 0
M  V30 39 H -4.3126 2.2805 1.0107 0
M  V30 40 H -5.4704 1.6895 -0.4358 0
M  V30 END ATOM
M  V30 BEGIN BOND
M  V30 1 1 1 2
M  V30 2 2 2 3
M  V30 3 1 2 4
M  V30 4 1 3 5
M  V30 5 2 4 6
M  V30 6 1 5 7
M  V30 7 2 5 8
M  V30 8 2 7 9
M  V30 9 1 7 10
M  V30 10 1 8 11
M  V30 11 1 9 12
M  V30 12 2 10 13
M  V30 13 1 10 14
M  V30 14 1 11 15
M  V30 15 1 11 16
M  V30 16 1 13 17
M  V30 17 2 14 18
M  V30 18 2 15 19
M  V30 19 1 16 20
M  V30 20 2 17 21
M  V30 21 1 20 22
M  V30 22 1 20 23
M  V30 23 1 6 8
M  V30 24 1 12 15
M  V30 25 1 18 21
M  V30 26 1 22 23
M  V30 27 1 3 24
M  V30 28 1 4 25
M  V30 29 1 6 26
M  V30 30 1 12 27
M  V30 31 1 12 28
M  V30 32 1 13 29
M  V30 33 1 14 30
M  V30 34 1 16 31
M  V30 35 1 16 32
M  V30 36 1 17 33
M  V30 37 1 18 34
M  V30 38 1 20 35
M  V30 39 1 21 36
M  V30 40 1 22 37
M  V30 41 1 22 38
M  V30 42 1 23 39
M  V30 43 1 23 40
M  V30 END BOND
M  V30 END CTAB
M  END
>  <Structure No>
6813

>  <LogS>
-4.91

>  <MMFF94 Energy>
124.68

$$$$
Compound 6814
Actelion Java MolfileCreator 2.0

  0  0  0  0  0  0              0 V3000
M  V30 BEGIN CTAB
M  V30 COUNTS 48 49 0 0 0
M  V30 BEGIN ATOM
M  V30 1 O 0.7948 0.9538 1.9084 0
M  V30 2 C 1.5079 0.5299 0.9572 0
M  V30 3 C 0.9516 -0.2996 -0.0368 0
M  V30 4 C 2.8657 0.8856 0.8905 0
M  V30 5 C -0.4775 -0.7142 -0.0073 0
M  V30 6 C 1.7816 -0.7436 -1.0812 0
M  V30 7 C 3.655 0.4122 -0.1814 0
M  V30 8 C 3.4675 1.6999 1.8667 0
M  V30 9 O -0.9436 -1.4337 -0.9341 0
M  V30 10 O -1.3127 -0.3123 1.0436 0
M  V30 11 N 3.0979 -0.3799 -1.1527 0
M  V30 12 N 4.9756 0.7497 -0.2375 0
M  V30 13 C 4.8204 2.0238 1.772 0
M  V30 14 C -2.6979 -0.6474 1.117 0
M  V30 15 C 3.9134 -0.9017 -2.2635 0
M  V30 16 C 5.5718 1.5317 0.7013 0
M  V30 17 C -3.4885 0.1138 0.086 0
M  V30 18 C 4.6024 -2.1998 -1.8553 0
M  V30 19 C 7.0235 1.8681 0.5776 0
M  V30 20 O -3.0775 1.2502 -0.2762 0
M  V30 21 N -4.708 -0.416 -0.4787 0
M  V30 22 C -5.1133 0.0017 -1.8284 0
M  V30 23 C -5.5767 -1.3278 0.284 0
M  V30 24 C -6.0677 1.189 -1.7625 0
M  V30 25 C -6.2131 -0.6129 1.4736 0
M  V30 26 H 1.3682 -1.3909 -1.8465 0
M  V30 27 H 2.8972 2.0849 2.7034 0
M  V30 28 H 5.2793 2.651 2.5267 0
M  V30 29 H -2.8139 -1.7426 0.9795 0
M  V30 30 H -3.0701 -0.3787 2.1263 0
M  V30 31 H 4.6764 -0.1568 -2.578 0
M  V30 32 H 3.2812 -1.0923 -3.1593 0
M  V30 33 H 5.2056 -2.5855 -2.7038 0
M  V30 34 H 5.275 -2.0223 -0.9897 0
M  V30 35 H 3.8443 -2.9626 -1.5778 0
M  V30 36 H 7.5647 1.5396 1.4897 0
M  V30 37 H 7.4683 1.3585 -0.3033 0
M  V30 38 H 7.1442 2.965 0.4547 0
M  V30 39 H -5.6081 -0.8397 -2.36 0
M  V30 40 H -4.2205 0.2788 -2.4311 0
M  V30 41 H -5.0037 -2.2109 0.633 0
M  V30 42 H -6.3962 -1.7147 -0.3603 0
M  V30 43 H -6.3116 1.5281 -2.7911 0
M  V30 44 H -5.5995 2.0307 -1.2098 0
M  V30 45 H -7.01 0.8954 -1.2544 0
M  V30 46 H -6.7953 0.2664 1.1277 0
M  V30 47 H -5.4391 -0.2733 2.1909 0
M  V30 48 H -6.8995 -1.3083 2.001 0
M  V30 END ATOM
M  V30 BEGIN BOND
M  V30 1 2 1 2
M  V30 2 1 2 3
M  V30 3 1 2 4
M  V30 4 1 3 5
M  V30 5 2 3 6
M  V30 6 2 4 7
M  V30 7 1 4 8
M  V30 8 2 5 9
M  V30 9 1 5 10
M  V30 10 1 6 11
M  V30 11 1 7 12
M  V30 12 2 8 13
M  V30 13 1 10 14
M  V30 14 1 11 15
M  V30 15 2 12 16
M  V30 16 1 14 17
M  V30 17 1 15 18
M  V30 18 1 16 19
M  V30 19 2 17 20
M  V30 20 1 17 21
M  V30 21 1 21 22
M  V30 22 1 21 23
M  V30 23 1 22 24
M  V30 24 1 23 25
M  V30 25 1 7 11
M  V30 26 1 13 16
M  V30 27 1 6 26
M  V30 28 1 8 27
M  V30 29 1 13 28
M  V30 30 1 14 29
M  V30 31 1 14 30
M  V30 32 1 15 31
M  V30 33 1 15 32
M  V30 34 1 18 33
M  V30 35 1 18 34
M  V30 36 1 18 35
M  V30 37 1 19 36
M  V30 38 1 19 37
M  V30 39 1 19 38
M  V30 40 1 22 39
M  V30 41 1 22 40
M  V30 42 1 23 41
M  V30 43 1 23 42
M  V30 44 1 24 43
M  V30 45 1 24 44
M  V30 46 1 24 45
M  V30 47 1 25 46
M  V30 48 1 25 47
M  V30 49 1 25 48
M  V30 END BOND
M  V30 END CTAB
M  END
>  <Structure No>
6814

>  <LogS>
-1.43

>  <MMFF94 Energy>
20.649

$$$$
Compound 6815
Actelion Java MolfileCreator 2.0

  0  0  0  0  0  0              0 V3000
M  V30 BEGIN CTAB
M  V30 COUNTS 48 49 0 0 0
M  V30 BEGIN ATOM
M  V30 1 O -1.433 0.4775 -0.3979 0
M  V30 2 C -1.2082 0.3251 0.8352 0
M  V30 3 O -1.7474 -0.7679 1.5243 0
M  V30 4 C -0.3177 1.2881 1.5726 0 CFG=1
M  V30 5 C -2.6111 -1.7247 0.9124 0
M  V30 6 C 1.1405 0.9201 1.3858 0
M  V30 7 C -0.5851 2.7413 1.1601 0
M  V30 8 C -3.9603 -1.1214 0.6157 0
M  V30 9 C 1.7293 0.9157 0.1067 0
M  V30 10 C 1.9267 0.5821 2.5008 0
M  V30 11 O -4.3489 -0.1418 1.3097 0
M  V30 12 N -4.8334 -1.6727 -0.3963 0
M  V30 13 C 3.0808 0.5765 -0.0553 0
M  V30 14 C 3.2734 0.2438 2.3472 0
M  V30 15 C -6.066 -0.9598 -0.7617 0
M  V30 16 C -4.5004 -2.9375 -1.062 0
M  V30 17 C 3.8597 0.2377 1.0743 0
M  V30 18 C 3.6679 0.5704 -1.3286 0
M  V30 19 C -5.7391 0.2257 -1.6185 0
M  V30 20 C 5.2116 -0.1009 0.9113 0
M  V30 21 C 5.015 0.2314 -1.4816 0
M  V30 22 O -5.4227 0.0537 -2.8257 0
M  V30 23 N -5.7549 1.5453 -1.0728 0
M  V30 24 C 5.7968 -0.1066 -0.3605 0
M  V30 25 O 7.1523 -0.4526 -0.4667 0
M  V30 26 C 7.8759 -0.5027 -1.6921 0
M  V30 27 H -0.5827 1.2145 2.651 0
M  V30 28 H -2.13 -2.1087 -0.0104 0
M  V30 29 H -2.7514 -2.5748 1.6111 0
M  V30 30 H 0.058 3.4271 1.752 0
M  V30 31 H -1.6469 3.0026 1.3577 0
M  V30 32 H -0.3761 2.901 0.081 0
M  V30 33 H 1.1352 1.1754 -0.7608 0
M  V30 34 H 1.4978 0.5797 3.4952 0
M  V30 35 H 3.856 -0.0122 3.2239 0
M  V30 36 H -6.76 -1.6211 -1.3231 0
M  V30 37 H -6.6117 -0.6452 0.1538 0
M  V30 38 H -4.3322 -3.7303 -0.303 0
M  V30 39 H -3.5871 -2.8102 -1.6789 0
M  V30 40 H -5.3162 -3.2745 -1.7351 0
M  V30 41 H 3.0855 0.828 -2.2056 0
M  V30 42 H 5.8168 -0.3619 1.7717 0
M  V30 43 H 5.4391 0.236 -2.4764 0
M  V30 44 H -6.0011 1.7078 -0.0713 0
M  V30 45 H -5.5222 2.3662 -1.6754 0
M  V30 46 H 7.882 0.4982 -2.1733 0
M  V30 47 H 7.4209 -1.2522 -2.3738 0
M  V30 48 H 8.923 -0.8022 -1.4825 0
M  V30 END ATOM
M  V30 BEGIN BOND
M  V30 1 2 1 2
M  V30 2 1 2 3
M  V30 3 1 2 4
M  V30 4 1 3 5
M  V30 5 1 4 6
M  V30 6 1 4 7
M  V30 7 1 5 8
M  V30 8 2 6 9
M  V30 9 1 6 10
M  V30 10 2 8 11
M  V30 11 1 8 12
M  V30 12 1 9 13
M  V30 13 2 10 14
M  V30 14 1 12 15
M  V30 15 1 12 16
M  V30 16 1 13 17
M  V30 17 2 13 18
M  V30 18 1 15 19
M  V30 19 2 17 20
M  V30 20 1 18 21
M  V30 21 2 19 22
M  V30 22 1 19 23
M  V30 23 1 20 24
M  V30 24 1 24 25
M  V30 25 1 25 26
M  V30 26 1 14 17
M  V30 27 2 21 24
M  V30 28 1 4 27
M  V30 29 1 5 28
M  V30 30 1 5 29
M  V30 31 1 7 30
M  V30 32 1 7 31
M  V30 33 1 7 32
M  V30 34 1 9 33
M  V30 35 1 10 34
M  V30 36 1 14 35
M  V30 37 1 15 36
M  V30 38 1 15 37
M  V30 39 1 16 38
M  V30 40 1 16 39
M  V30 41 1 16 40
M  V30 42 1 18 41
M  V30 43 1 20 42
M  V30 44 1 21 43
M  V30 45 1 23 44
M  V30 46 1 23 45
M  V30 47 1 26 46
M  V30 48 1 26 47
M  V30 49 1 26 48
M  V30 END BOND
M  V30 BEGIN COLLECTION
M  V30 MDLV30/STEABS ATOMS=(1 4)
M  V30 END COLLECTION
M  V30 END CTAB
M  END
>  <Structure No>
6815

>  <LogS>
-3.78

>  <MMFF94 Energy>
56.444

$$$$
Compound 6816
Actelion Java MolfileCreator 2.0

  0  0  0  0  0  0              0 V3000
M  V30 BEGIN CTAB
M  V30 COUNTS 33 35 0 0 0
M  V30 BEGIN ATOM
M  V30 1 S -0.7328 -4.4029 -0.9771 0
M  V30 2 C -2.3945 -4.1631 -0.9857 0
M  V30 3 C -0.385 -2.8423 -0.462 0
M  V30 4 N -2.7018 -2.9074 -0.5957 0
M  V30 5 C -1.5952 -2.1641 -0.3202 0
M  V30 6 C -1.7125 -0.7805 0.1768 0
M  V30 7 N -2.7512 -0.3972 0.9651 0
M  V30 8 N -0.804 0.215 -0.0356 0
M  V30 9 C -2.4607 0.8824 1.2568 0
M  V30 10 C -1.291 1.2575 0.6612 0
M  V30 11 C 0.3378 0.2142 -0.9048 0
M  V30 12 C -3.2142 1.7661 2.0259 0
M  V30 13 C -0.7981 2.562 0.7681 0
M  V30 14 O 0.2899 -0.4014 -2.0048 0
M  V30 15 O 1.4944 0.9069 -0.5313 0
M  V30 16 C -2.7359 3.0812 2.1707 0
M  V30 17 C -1.5346 3.4779 1.542 0
M  V30 18 C 2.7073 0.8746 -1.2819 0
M  V30 19 C 3.4117 -0.4798 -1.1425 0
M  V30 20 C 3.7535 -0.7963 0.3115 0
M  V30 21 H -3.1342 -4.9054 -1.2523 0
M  V30 22 H 0.6018 -2.4576 -0.2437 0
M  V30 23 H -4.1403 1.4545 2.4914 0
M  V30 24 H 0.1114 2.8723 0.2738 0
M  V30 25 H -3.2959 3.7951 2.7606 0
M  V30 26 H -1.1815 4.495 1.6514 0
M  V30 27 H 2.497 1.0839 -2.3531 0
M  V30 28 H 3.3782 1.677 -0.908 0
M  V30 29 H 2.7681 -1.287 -1.5518 0
M  V30 30 H 4.3505 -0.4588 -1.7366 0
M  V30 31 H 2.8269 -0.8824 0.9182 0
M  V30 32 H 4.4004 -7.0E-4 0.7385 0
M  V30 33 H 4.298 -1.7623 0.3623 0
M  V30 END ATOM
M  V30 BEGIN BOND
M  V30 1 1 1 2
M  V30 2 1 1 3
M  V30 3 2 2 4
M  V30 4 2 3 5
M  V30 5 1 5 6
M  V30 6 2 6 7
M  V30 7 1 6 8
M  V30 8 1 7 9
M  V30 9 1 8 10
M  V30 10 1 8 11
M  V30 11 1 9 12
M  V30 12 1 10 13
M  V30 13 2 11 14
M  V30 14 1 11 15
M  V30 15 2 12 16
M  V30 16 2 13 17
M  V30 17 1 15 18
M  V30 18 1 18 19
M  V30 19 1 19 20
M  V30 20 1 4 5
M  V30 21 2 9 10
M  V30 22 1 16 17
M  V30 23 1 2 21
M  V30 24 1 3 22
M  V30 25 1 12 23
M  V30 26 1 13 24
M  V30 27 1 16 25
M  V30 28 1 17 26
M  V30 29 1 18 27
M  V30 30 1 18 28
M  V30 31 1 19 29
M  V30 32 1 19 30
M  V30 33 1 20 31
M  V30 34 1 20 32
M  V30 35 1 20 33
M  V30 END BOND
M  V30 END CTAB
M  END
>  <Structure No>
6816

>  <LogS>
-3.52

>  <MMFF94 Energy>
41.983

$$$$
Compound 6817
Actelion Java MolfileCreator 2.0

  0  0  0  0  0  0              0 V3000
M  V30 BEGIN CTAB
M  V30 COUNTS 37 40 0 0 0
M  V30 BEGIN ATOM
M  V30 1 O -0.6497 0.9747 -1.4624 0
M  V30 2 C 0.4501 0.5688 -1.0045 0
M  V30 3 O 1.5623 0.9036 -1.6495 0
M  V30 4 C 0.5062 -0.2243 0.1698 0
M  V30 5 C 2.7702 0.5202 -1.2584 0
M  V30 6 C 1.7761 -0.6667 0.5963 0
M  V30 7 C -0.7407 -0.671 0.9404 0 CFG=1
M  V30 8 C 2.9242 -0.2876 -0.1134 0
M  V30 9 C 3.8945 0.9176 -1.9909 0
M  V30 10 O 1.894 -1.4847 1.7183 0 CHG=-1
M  V30 11 C -1.8237 0.3935 0.9948 0
M  V30 12 C -1.259 -2.0292 0.4236 0
M  V30 13 C 4.2126 -0.6913 0.2809 0
M  V30 14 C 5.1712 0.5138 -1.5907 0
M  V30 15 C -3.0519 0.2454 0.3027 0
M  V30 16 C -1.5758 1.5794 1.7089 0
M  V30 17 C -2.1771 -1.8668 -0.7866 0
M  V30 18 C 5.3297 -0.2889 -0.4579 0
M  V30 19 C -4.0071 1.2732 0.3646 0
M  V30 20 C -3.4063 -1.032 -0.4202 0
M  V30 21 C -2.5302 2.5974 1.748 0
M  V30 22 C -3.7436 2.4445 1.0776 0
M  V30 23 H -0.447 -0.8406 2.0002 0
M  V30 24 H 3.7788 1.5381 -2.8707 0
M  V30 25 H -1.826 -2.537 1.2356 0
M  V30 26 H -0.4084 -2.6941 0.1575 0
M  V30 27 H 4.3601 -1.3128 1.1553 0
M  V30 28 H 6.0385 0.8227 -2.1596 0
M  V30 29 H -0.6364 1.716 2.2306 0
M  V30 30 H -1.6272 -1.3942 -1.6267 0
M  V30 31 H -2.51 -2.8701 -1.1298 0
M  V30 32 H 6.32 -0.6001 -0.1516 0
M  V30 33 H -4.9604 1.1649 -0.1379 0
M  V30 34 H -3.9644 -0.7971 -1.3526 0
M  V30 35 H -4.0735 -1.633 0.235 0
M  V30 36 H -2.3286 3.5065 2.2999 0
M  V30 37 H -4.4845 3.2329 1.1147 0
M  V30 END ATOM
M  V30 BEGIN BOND
M  V30 1 2 1 2
M  V30 2 1 2 3
M  V30 3 1 2 4
M  V30 4 1 3 5
M  V30 5 2 4 6
M  V30 6 1 4 7
M  V30 7 2 5 8
M  V30 8 1 5 9
M  V30 9 1 6 10
M  V30 10 1 7 11
M  V30 11 1 7 12
M  V30 12 1 8 13
M  V30 13 2 9 14
M  V30 14 2 11 15
M  V30 15 1 11 16
M  V30 16 1 12 17
M  V30 17 2 13 18
M  V30 18 1 15 19
M  V30 19 1 15 20
M  V30 20 2 16 21
M  V30 21 2 19 22
M  V30 22 1 6 8
M  V30 23 1 14 18
M  V30 24 1 17 20
M  V30 25 1 21 22
M  V30 26 1 7 23
M  V30 27 1 9 24
M  V30 28 1 12 25
M  V30 29 1 12 26
M  V30 30 1 13 27
M  V30 31 1 14 28
M  V30 32 1 16 29
M  V30 33 1 17 30
M  V30 34 1 17 31
M  V30 35 1 18 32
M  V30 36 1 19 33
M  V30 37 1 20 34
M  V30 38 1 20 35
M  V30 39 1 21 36
M  V30 40 1 22 37
M  V30 END BOND
M  V30 BEGIN COLLECTION
M  V30 MDLV30/STEABS ATOMS=(1 7)
M  V30 END COLLECTION
M  V30 END CTAB
M  END
>  <Structure No>
6817

>  <LogS>
-4.86

>  <MMFF94 Energy>
78.315

$$$$
Compound 6818
Actelion Java MolfileCreator 2.0

  0  0  0  0  0  0              0 V3000
M  V30 BEGIN CTAB
M  V30 COUNTS 52 52 0 0 0
M  V30 BEGIN ATOM
M  V30 1 O 0.6392 3.76 1.9186 0
M  V30 2 N -0.4174 3.1242 1.7234 0 CHG=1
M  V30 3 O -1.6106 3.8068 1.7802 0 CHG=-1
M  V30 4 C -0.3745 1.7198 1.3901 0
M  V30 5 C -1.5517 0.9393 1.3378 0
M  V30 6 C 0.8626 1.1006 1.1291 0
M  V30 7 O -2.7826 1.4985 1.6658 0 CHG=-1
M  V30 8 C -1.4817 -0.427 0.9991 0
M  V30 9 C 0.9344 -0.262 0.8 0
M  V30 10 O -2.6264 -1.2323 0.9266 0
M  V30 11 C -0.2392 -1.0213 0.7675 0
M  V30 12 C 2.2325 -0.9356 0.5636 0
M  V30 13 C -3.8078 -0.8648 0.2724 0
M  V30 14 C 3.2162 -0.4545 -0.2222 0
M  V30 15 O -3.8216 0.1138 -0.524 0
M  V30 16 N -4.9909 -1.6444 0.4776 0
M  V30 17 C 3.0258 0.7446 -1.0073 0
M  V30 18 C 4.4739 -1.2225 -0.3947 0
M  V30 19 C -6.2686 -1.3218 -0.1544 0
M  V30 20 N 2.8673 1.7031 -1.6366 0
M  V30 21 O 4.4466 -2.4784 -0.2731 0
M  V30 22 N 5.7216 -0.5708 -0.721 0
M  V30 23 C -6.9056 -0.0997 0.5209 0
M  V30 24 C 6.7269 -1.3109 -1.5004 0
M  V30 25 C 6.0983 0.6857 -0.0491 0
M  V30 26 C -8.3206 0.1923 -5.0E-4 0
M  V30 27 C 7.6671 -2.0945 -0.5875 0
M  V30 28 C 6.4117 1.79 -1.0571 0
M  V30 29 C -8.3212 0.7359 -1.4289 0
M  V30 30 H 1.7763 1.6758 1.2053 0
M  V30 31 H -0.194 -2.0786 0.5339 0
M  V30 32 H 2.364 -1.901 1.0386 0
M  V30 33 H -4.9264 -2.5013 1.0723 0
M  V30 34 H -6.9508 -2.1938 -0.0518 0
M  V30 35 H -6.1078 -1.1372 -1.2378 0
M  V30 36 H -6.2622 0.7955 0.3796 0
M  V30 37 H -6.972 -0.2951 1.6137 0
M  V30 38 H 6.224 -2.0162 -2.1978 0
M  V30 39 H 7.3218 -0.6168 -2.1281 0
M  V30 40 H 5.2827 1.0378 0.6181 0
M  V30 41 H 6.9833 0.5173 0.5995 0
M  V30 42 H -8.7886 0.9532 0.6612 0
M  V30 43 H -8.9456 -0.7256 0.0501 0
M  V30 44 H 8.2619 -1.4024 0.0441 0
M  V30 45 H 8.3679 -2.6948 -1.2051 0
M  V30 46 H 7.0918 -2.7824 0.066 0
M  V30 47 H 5.6214 1.8472 -1.8334 0
M  V30 48 H 6.4682 2.7666 -0.5315 0
M  V30 49 H 7.3907 1.6065 -1.5458 0
M  V30 50 H -7.6687 1.6317 -1.5043 0
M  V30 51 H -9.3545 1.0276 -1.7119 0
M  V30 52 H -7.9725 -0.0367 -2.1444 0
M  V30 END ATOM
M  V30 BEGIN BOND
M  V30 1 2 1 2
M  V30 2 1 2 3
M  V30 3 1 2 4
M  V30 4 2 4 5
M  V30 5 1 4 6
M  V30 6 1 5 7
M  V30 7 1 5 8
M  V30 8 2 6 9
M  V30 9 1 8 10
M  V30 10 2 8 11
M  V30 11 1 9 12
M  V30 12 1 10 13
M  V30 13 2 12 14
M  V30 14 2 13 15
M  V30 15 1 13 16
M  V30 16 1 14 17
M  V30 17 1 14 18
M  V30 18 1 16 19
M  V30 19 3 17 20
M  V30 20 2 18 21
M  V30 21 1 18 22
M  V30 22 1 19 23
M  V30 23 1 22 24
M  V30 24 1 22 25
M  V30 25 1 23 26
M  V30 26 1 24 27
M  V30 27 1 25 28
M  V30 28 1 26 29
M  V30 29 1 9 11
M  V30 30 1 6 30
M  V30 31 1 11 31
M  V30 32 1 12 32
M  V30 33 1 16 33
M  V30 34 1 19 34
M  V30 35 1 19 35
M  V30 36 1 23 36
M  V30 37 1 23 37
M  V30 38 1 24 38
M  V30 39 1 24 39
M  V30 40 1 25 40
M  V30 41 1 25 41
M  V30 42 1 26 42
M  V30 43 1 26 43
M  V30 44 1 27 44
M  V30 45 1 27 45
M  V30 46 1 27 46
M  V30 47 1 28 47
M  V30 48 1 28 48
M  V30 49 1 28 49
M  V30 50 1 29 50
M  V30 51 1 29 51
M  V30 52 1 29 52
M  V30 END BOND
M  V30 END CTAB
M  END
>  <Structure No>
6818

>  <LogS>
-2.32

>  <MMFF94 Energy>
21.793

$$$$
Compound 6819
Actelion Java MolfileCreator 2.0

  0  0  0  0  0  0              0 V3000
M  V30 BEGIN CTAB
M  V30 COUNTS 23 24 0 0 0
M  V30 BEGIN ATOM
M  V30 1 Cl -5.1438 -1.5596 -0.2751 0
M  V30 2 C -3.64 -0.6689 -0.0329 0
M  V30 3 C -3.6728 0.713 0.2311 0
M  V30 4 C -2.4054 -1.3404 -0.1042 0
M  V30 5 Cl -5.2149 1.5654 0.3206 0
M  V30 6 C -2.4716 1.4138 0.4279 0
M  V30 7 Cl -2.3418 -3.0699 -0.4366 0
M  V30 8 C -1.2064 -0.6356 0.0789 0
M  V30 9 Cl -2.4653 3.1395 0.7705 0
M  V30 10 C -1.2499 0.7411 0.3567 0
M  V30 11 O 0.0103 -1.3328 0.0065 0
M  V30 12 C 1.262 -0.7337 -0.1818 0
M  V30 13 C 1.5384 0.0682 -1.3068 0
M  V30 14 C 2.2679 -0.9698 0.7615 0
M  V30 15 Cl 0.3506 0.3002 -2.5827 0
M  V30 16 C 2.8018 0.6523 -1.4502 0
M  V30 17 C 3.5306 -0.3848 0.6172 0
M  V30 18 C 3.797 0.4351 -0.4912 0
M  V30 19 Cl 4.7573 -0.6949 1.8383 0
M  V30 20 Cl 5.3706 1.1883 -0.7112 0
M  V30 21 H -0.3349 1.2937 0.526 0
M  V30 22 H 2.0603 -1.5997 1.6175 0
M  V30 23 H 3.0143 1.2679 -2.3153 0
M  V30 END ATOM
M  V30 BEGIN BOND
M  V30 1 1 1 2
M  V30 2 2 2 3
M  V30 3 1 2 4
M  V30 4 1 3 5
M  V30 5 1 3 6
M  V30 6 1 4 7
M  V30 7 2 4 8
M  V30 8 1 6 9
M  V30 9 2 6 10
M  V30 10 1 8 11
M  V30 11 1 11 12
M  V30 12 2 12 13
M  V30 13 1 12 14
M  V30 14 1 13 15
M  V30 15 1 13 16
M  V30 16 2 14 17
M  V30 17 2 16 18
M  V30 18 1 17 19
M  V30 19 1 18 20
M  V30 20 1 8 10
M  V30 21 1 17 18
M  V30 22 1 10 21
M  V30 23 1 14 22
M  V30 24 1 16 23
M  V30 END BOND
M  V30 END CTAB
M  END
>  <Structure No>
6819

>  <LogS>
-9.5

>  <MMFF94 Energy>
61.787

$$$$
Compound 6820
Actelion Java MolfileCreator 2.0

  0  0  0  0  0  0              0 V3000
M  V30 BEGIN CTAB
M  V30 COUNTS 23 24 0 0 0
M  V30 BEGIN ATOM
M  V30 1 Cl -5.1468 0.2752 -2.0198 0
M  V30 2 C -3.6637 0.0088 -1.1002 0
M  V30 3 C -3.1992 -1.2999 -0.8791 0
M  V30 4 C -2.9507 1.105 -0.5816 0
M  V30 5 Cl -4.097 -2.6789 -1.5175 0
M  V30 6 C -2.0167 -1.5094 -0.1501 0
M  V30 7 Cl -3.5438 2.7475 -0.8399 0
M  V30 8 C -1.7686 0.8916 0.1488 0
M  V30 9 Cl -1.4108 -3.1409 0.131 0
M  V30 10 C -1.2926 -0.4174 0.3476 0
M  V30 11 Cl -0.9091 2.2568 0.8641 0
M  V30 12 O -0.1112 -0.653 1.0629 0
M  V30 13 C 1.1618 -0.231 0.6505 0
M  V30 14 C 2.2161 -0.2905 1.5689 0
M  V30 15 C 1.4125 0.2266 -0.6564 0
M  V30 16 C 3.5049 0.1157 1.2028 0
M  V30 17 C 2.6975 0.6328 -1.0247 0
M  V30 18 Cl 4.7953 0.0301 2.3943 0
M  V30 19 C 3.7464 0.5819 -0.1004 0
M  V30 20 Cl 5.3498 1.1019 -0.6013 0
M  V30 21 H 2.0297 -0.6499 2.5734 0
M  V30 22 H 0.6205 0.2641 -1.3927 0
M  V30 23 H 2.8778 0.9854 -2.0324 0
M  V30 END ATOM
M  V30 BEGIN BOND
M  V30 1 1 1 2
M  V30 2 2 2 3
M  V30 3 1 2 4
M  V30 4 1 3 5
M  V30 5 1 3 6
M  V30 6 1 4 7
M  V30 7 2 4 8
M  V30 8 1 6 9
M  V30 9 2 6 10
M  V30 10 1 8 11
M  V30 11 1 10 12
M  V30 12 1 12 13
M  V30 13 2 13 14
M  V30 14 1 13 15
M  V30 15 1 14 16
M  V30 16 2 15 17
M  V30 17 1 16 18
M  V30 18 2 16 19
M  V30 19 1 19 20
M  V30 20 1 8 10
M  V30 21 1 17 19
M  V30 22 1 14 21
M  V30 23 1 15 22
M  V30 24 1 17 23
M  V30 END BOND
M  V30 END CTAB
M  END
>  <Structure No>
6820

>  <LogS>
-9.46

>  <MMFF94 Energy>
65.432

$$$$
Compound 6821
Actelion Java MolfileCreator 2.0

  0  0  0  0  0  0              0 V3000
M  V30 BEGIN CTAB
M  V30 COUNTS 52 52 0 0 0
M  V30 BEGIN ATOM
M  V30 1 O 0.4796 0.4796 -4.9646 0
M  V30 2 N -0.5341 0.4472 -4.2358 0 CHG=1
M  V30 3 O -1.7489 0.78 -4.79 0 CHG=-1
M  V30 4 C -0.4147 0.1324 -2.8319 0
M  V30 5 C -1.5552 -0.1052 -2.0317 0
M  V30 6 C 0.8599 0.0435 -2.2411 0
M  V30 7 O -2.8252 -0.1063 -2.5997 0 CHG=-1
M  V30 8 C -1.4109 -0.3935 -0.6594 0
M  V30 9 C 1.0068 -0.2515 -0.8802 0
M  V30 10 O -2.5166 -0.6319 0.1684 0
M  V30 11 C -0.1338 -0.4957 -0.1027 0
M  V30 12 C 2.3704 -0.3735 -0.3174 0
M  V30 13 C -3.6701 0.1613 0.1922 0
M  V30 14 C 2.7821 0.1902 0.833 0
M  V30 15 O -3.6677 1.3019 -0.3455 0
M  V30 16 N -4.835 -0.3274 0.8755 0
M  V30 17 C 1.8955 0.986 1.6511 0
M  V30 18 C 4.1795 0.0238 1.2868 0
M  V30 19 C -6.1294 0.377 0.9633 0
M  V30 20 N 1.1872 1.6245 2.3073 0
M  V30 21 O 4.41 -0.0735 2.5232 0
M  V30 22 N 5.279 -0.0186 0.3525 0
M  V30 23 C -6.7027 0.6182 -0.4471 0
M  V30 24 C -5.9583 1.7155 1.7081 0
M  V30 25 C -7.1244 -0.4988 1.7525 0
M  V30 26 C 6.4259 -0.8913 0.6414 0
M  V30 27 C 5.3907 1.0122 -0.6928 0
M  V30 28 C 6.0723 -2.3435 0.3432 0
M  V30 29 C 5.5979 0.3973 -2.0771 0
M  V30 30 H 1.747 0.2156 -2.8391 0
M  V30 31 H -0.0372 -0.776 0.9387 0
M  V30 32 H 3.0832 -0.931 -0.9095 0
M  V30 33 H -4.7388 -1.2646 1.3288 0
M  V30 34 H -6.7641 -0.3402 -1.0062 0
M  V30 35 H -6.072 1.3211 -1.0285 0
M  V30 36 H -7.7224 1.0564 -0.3853 0
M  V30 37 H -5.4762 1.547 2.6952 0
M  V30 38 H -6.9453 2.1992 1.8762 0
M  V30 39 H -5.3326 2.4262 1.1312 0
M  V30 40 H -6.742 -0.6927 2.778 0
M  V30 41 H -7.2678 -1.4771 1.2447 0
M  V30 42 H -8.1147 -2.0E-4 1.8371 0
M  V30 43 H 6.7279 -0.7913 1.7064 0
M  V30 44 H 7.3081 -0.6026 0.0306 0
M  V30 45 H 4.4769 1.6442 -0.7236 0
M  V30 46 H 6.2447 1.6829 -0.4571 0
M  V30 47 H 5.2335 -2.6759 0.9913 0
M  V30 48 H 6.953 -2.9906 0.5392 0
M  V30 49 H 5.7758 -2.4527 -0.7215 0
M  V30 50 H 5.6002 1.2026 -2.8414 0
M  V30 51 H 4.7835 -0.3146 -2.3186 0
M  V30 52 H 6.57 -0.1339 -2.1328 0
M  V30 END ATOM
M  V30 BEGIN BOND
M  V30 1 2 1 2
M  V30 2 1 2 3
M  V30 3 1 2 4
M  V30 4 2 4 5
M  V30 5 1 4 6
M  V30 6 1 5 7
M  V30 7 1 5 8
M  V30 8 2 6 9
M  V30 9 1 8 10
M  V30 10 2 8 11
M  V30 11 1 9 12
M  V30 12 1 10 13
M  V30 13 2 12 14
M  V30 14 2 13 15
M  V30 15 1 13 16
M  V30 16 1 14 17
M  V30 17 1 14 18
M  V30 18 1 16 19
M  V30 19 3 17 20
M  V30 20 2 18 21
M  V30 21 1 18 22
M  V30 22 1 19 23
M  V30 23 1 19 24
M  V30 24 1 19 25
M  V30 25 1 22 26
M  V30 26 1 22 27
M  V30 27 1 26 28
M  V30 28 1 27 29
M  V30 29 1 9 11
M  V30 30 1 6 30
M  V30 31 1 11 31
M  V30 32 1 12 32
M  V30 33 1 16 33
M  V30 34 1 23 34
M  V30 35 1 23 35
M  V30 36 1 23 36
M  V30 37 1 24 37
M  V30 38 1 24 38
M  V30 39 1 24 39
M  V30 40 1 25 40
M  V30 41 1 25 41
M  V30 42 1 25 42
M  V30 43 1 26 43
M  V30 44 1 26 44
M  V30 45 1 27 45
M  V30 46 1 27 46
M  V30 47 1 28 47
M  V30 48 1 28 48
M  V30 49 1 28 49
M  V30 50 1 29 50
M  V30 51 1 29 51
M  V30 52 1 29 52
M  V30 END BOND
M  V30 END CTAB
M  END
>  <Structure No>
6821

>  <LogS>
-3.53

>  <MMFF94 Energy>
36.108

$$$$
Compound 6822
Actelion Java MolfileCreator 2.0

  0  0  0  0  0  0              0 V3000
M  V30 BEGIN CTAB
M  V30 COUNTS 23 24 0 0 0
M  V30 BEGIN ATOM
M  V30 1 Cl -1.6514 -3.029 1.2843 0
M  V30 2 C -2.145 -1.5025 0.5556 0
M  V30 3 C -1.2694 -0.4045 0.595 0
M  V30 4 C -3.3899 -1.3887 -0.0829 0
M  V30 5 O -0.0259 -0.5662 1.2248 0
M  V30 6 C -1.6685 0.8301 0.032 0
M  V30 7 Cl -4.4998 -2.7505 -0.1705 0
M  V30 8 C -3.7647 -0.1772 -0.6667 0
M  V30 9 C 1.2082 -0.1393 0.7121 0
M  V30 10 Cl -0.6582 2.268 0.1902 0
M  V30 11 C -2.9168 0.9312 -0.6071 0
M  V30 12 C 1.5556 -0.261 -0.6529 0
M  V30 13 C 2.1358 0.4037 1.609 0
M  V30 14 Cl -3.4546 2.4412 -1.333 0
M  V30 15 Cl 0.5134 -1.0617 -1.8229 0
M  V30 16 C 2.7992 0.2045 -1.0956 0
M  V30 17 C 3.377 0.8678 1.1623 0
M  V30 18 C 3.7074 0.7744 -0.1981 0
M  V30 19 Cl 4.4958 1.563 2.3272 0
M  V30 20 Cl 5.2573 1.345 -0.8015 0
M  V30 21 H -4.7252 -0.093 -1.1596 0
M  V30 22 H 1.8796 0.4819 2.6583 0
M  V30 23 H 3.0668 0.1108 -2.1408 0
M  V30 END ATOM
M  V30 BEGIN BOND
M  V30 1 1 1 2
M  V30 2 2 2 3
M  V30 3 1 2 4
M  V30 4 1 3 5
M  V30 5 1 3 6
M  V30 6 1 4 7
M  V30 7 2 4 8
M  V30 8 1 5 9
M  V30 9 1 6 10
M  V30 10 2 6 11
M  V30 11 2 9 12
M  V30 12 1 9 13
M  V30 13 1 11 14
M  V30 14 1 12 15
M  V30 15 1 12 16
M  V30 16 2 13 17
M  V30 17 2 16 18
M  V30 18 1 17 19
M  V30 19 1 18 20
M  V30 20 1 8 11
M  V30 21 1 17 18
M  V30 22 1 8 21
M  V30 23 1 13 22
M  V30 24 1 16 23
M  V30 END BOND
M  V30 END CTAB
M  END
>  <Structure No>
6822

>  <LogS>
-9.05

>  <MMFF94 Energy>
58.341

$$$$
Compound 6823
Actelion Java MolfileCreator 2.0

  0  0  0  0  0  0              0 V3000
M  V30 BEGIN CTAB
M  V30 COUNTS 23 24 0 0 0
M  V30 BEGIN ATOM
M  V30 1 Cl 3.0308 2.4793 2.1117 0
M  V30 2 C 2.7486 1.0773 1.0779 0
M  V30 3 C 1.4854 0.4513 1.0565 0
M  V30 4 C 3.7925 0.5766 0.2802 0
M  V30 5 Cl 0.2202 1.0191 2.1488 0
M  V30 6 C 1.2714 -0.665 0.2132 0
M  V30 7 Cl 5.3832 1.328 0.2757 0
M  V30 8 C 3.5809 -0.5477 -0.5198 0
M  V30 9 O 0.0349 -1.3213 0.1193 0
M  V30 10 C 2.3325 -1.1672 -0.5462 0
M  V30 11 C -1.2194 -0.6944 0.0526 0
M  V30 12 C -1.4622 0.414 -0.7929 0
M  V30 13 C -2.2644 -1.213 0.8359 0
M  V30 14 Cl -0.2214 1.0019 -1.9013 0
M  V30 15 C -2.7325 1.0171 -0.8 0
M  V30 16 Cl -1.9622 -2.611 1.865 0
M  V30 17 C -3.529 -0.6038 0.8178 0
M  V30 18 Cl -3.0822 2.4048 -1.824 0
M  V30 19 C -3.7531 0.5107 0.0079 0
M  V30 20 Cl -4.8515 -1.2138 1.8045 0
M  V30 21 H 4.3855 -0.9425 -1.1271 0
M  V30 22 H 2.1806 -2.033 -1.1783 0
M  V30 23 H -4.7295 0.9791 -0.0026 0
M  V30 END ATOM
M  V30 BEGIN BOND
M  V30 1 1 1 2
M  V30 2 2 2 3
M  V30 3 1 2 4
M  V30 4 1 3 5
M  V30 5 1 3 6
M  V30 6 1 4 7
M  V30 7 2 4 8
M  V30 8 1 6 9
M  V30 9 2 6 10
M  V30 10 1 9 11
M  V30 11 2 11 12
M  V30 12 1 11 13
M  V30 13 1 12 14
M  V30 14 1 12 15
M  V30 15 1 13 16
M  V30 16 2 13 17
M  V30 17 1 15 18
M  V30 18 2 15 19
M  V30 19 1 17 20
M  V30 20 1 8 10
M  V30 21 1 17 19
M  V30 22 1 8 21
M  V30 23 1 10 22
M  V30 24 1 19 23
M  V30 END BOND
M  V30 END CTAB
M  END
>  <Structure No>
6823

>  <LogS>
-9.09

>  <MMFF94 Energy>
71.198

$$$$
Compound 6824
Actelion Java MolfileCreator 2.0

  0  0  0  0  0  0              0 V3000
M  V30 BEGIN CTAB
M  V30 COUNTS 23 24 0 0 0
M  V30 BEGIN ATOM
M  V30 1 Cl 4.8689 -1.7436 -1.56 0
M  V30 2 C 3.5072 -0.9191 -0.7987 0
M  V30 3 C 3.7324 0.1848 0.0446 0
M  V30 4 C 2.1934 -1.3649 -1.0348 0
M  V30 5 Cl 5.3748 0.7537 0.3462 0
M  V30 6 C 2.6432 0.8326 0.6508 0
M  V30 7 Cl 1.8891 -2.7442 -2.0889 0
M  V30 8 C 1.1064 -0.7087 -0.4383 0
M  V30 9 Cl 2.8781 2.2105 1.7193 0
M  V30 10 C 1.342 0.3845 0.4129 0
M  V30 11 O -0.1927 -1.179 -0.6902 0
M  V30 12 C -1.3649 -0.4621 -0.4169 0
M  V30 13 C -1.6306 0.7726 -1.046 0
M  V30 14 C -2.3003 -1.002 0.4787 0
M  V30 15 Cl -0.5174 1.4105 -2.2558 0
M  V30 16 C -2.8134 1.4701 -0.7398 0
M  V30 17 Cl -1.9995 -2.5481 1.2568 0
M  V30 18 C -3.4733 -0.3023 0.7751 0
M  V30 19 Cl -3.1846 3.016 -1.4927 0
M  V30 20 C -3.7257 0.9308 0.1729 0
M  V30 21 H 0.5163 0.8871 0.8996 0
M  V30 22 H -4.1903 -0.7134 1.4743 0
M  V30 23 H -4.6375 1.4643 0.4104 0
M  V30 END ATOM
M  V30 BEGIN BOND
M  V30 1 1 1 2
M  V30 2 2 2 3
M  V30 3 1 2 4
M  V30 4 1 3 5
M  V30 5 1 3 6
M  V30 6 1 4 7
M  V30 7 2 4 8
M  V30 8 1 6 9
M  V30 9 2 6 10
M  V30 10 1 8 11
M  V30 11 1 11 12
M  V30 12 2 12 13
M  V30 13 1 12 14
M  V30 14 1 13 15
M  V30 15 1 13 16
M  V30 16 1 14 17
M  V30 17 2 14 18
M  V30 18 1 16 19
M  V30 19 2 16 20
M  V30 20 1 8 10
M  V30 21 1 18 20
M  V30 22 1 10 21
M  V30 23 1 18 22
M  V30 24 1 20 23
M  V30 END BOND
M  V30 END CTAB
M  END
>  <Structure No>
6824

>  <LogS>
-8.89

>  <MMFF94 Energy>
70.976

$$$$
Compound 6825
Actelion Java MolfileCreator 2.0

  0  0  0  0  0  0              0 V3000
M  V30 BEGIN CTAB
M  V30 COUNTS 36 38 0 0 0
M  V30 BEGIN ATOM
M  V30 1 S -3.4955 -0.7308 -4.554 0
M  V30 2 C -1.8259 -0.6844 -4.3806 0
M  V30 3 C -3.7946 -0.5297 -2.9128 0
M  V30 4 N -1.4811 -0.5191 -3.0856 0
M  V30 5 C -2.5647 -0.4205 -2.2673 0
M  V30 6 C -2.4451 -0.281 -0.8009 0
M  V30 7 N -3.451 -0.6572 0.0335 0
M  V30 8 N -1.3305 0.1448 -0.1366 0
M  V30 9 C -2.9304 -0.4586 1.2565 0
M  V30 10 C -1.6555 0.02 1.1634 0
M  V30 11 C -0.1148 0.6917 -0.671 0
M  V30 12 C -3.5529 -0.6699 2.4846 0
M  V30 13 C -0.9115 0.3507 2.3013 0
M  V30 14 O -0.1503 1.4372 -1.6879 0
M  V30 15 O 1.1022 0.4187 -0.041 0
M  V30 16 C -2.8253 -0.3649 3.6493 0
M  V30 17 C -1.5113 0.1458 3.5578 0
M  V30 18 C 2.3452 0.9361 -0.5058 0
M  V30 19 C 3.4838 0.4666 0.4118 0
M  V30 20 C 3.6149 -1.0619 0.3899 0
M  V30 21 C 4.8076 1.1206 -1.0E-4 0
M  V30 22 H -1.1086 -0.7794 -5.184 0
M  V30 23 H -4.7701 -0.4929 -2.4459 0
M  V30 24 H -4.5645 -1.0506 2.5419 0
M  V30 25 H 0.0874 0.7578 2.2346 0
M  V30 26 H -3.2778 -0.5155 4.6209 0
M  V30 27 H -0.9642 0.3865 4.46 0
M  V30 28 H 2.2985 2.0476 -0.5004 0
M  V30 29 H 2.5269 0.5923 -1.5482 0
M  V30 30 H 3.2507 0.7835 1.4527 0
M  V30 31 H 4.435 -1.3853 1.0659 0
M  V30 32 H 2.6745 -1.5358 0.7435 0
M  V30 33 H 3.8344 -1.4223 -0.638 0
M  V30 34 H 5.6219 0.8031 0.6856 0
M  V30 35 H 4.7227 2.227 0.0562 0
M  V30 36 H 5.0804 0.834 -1.0386 0
M  V30 END ATOM
M  V30 BEGIN BOND
M  V30 1 1 1 2
M  V30 2 1 1 3
M  V30 3 2 2 4
M  V30 4 2 3 5
M  V30 5 1 5 6
M  V30 6 2 6 7
M  V30 7 1 6 8
M  V30 8 1 7 9
M  V30 9 1 8 10
M  V30 10 1 8 11
M  V30 11 1 9 12
M  V30 12 1 10 13
M  V30 13 2 11 14
M  V30 14 1 11 15
M  V30 15 2 12 16
M  V30 16 2 13 17
M  V30 17 1 15 18
M  V30 18 1 18 19
M  V30 19 1 19 20
M  V30 20 1 19 21
M  V30 21 1 4 5
M  V30 22 2 9 10
M  V30 23 1 16 17
M  V30 24 1 2 22
M  V30 25 1 3 23
M  V30 26 1 12 24
M  V30 27 1 13 25
M  V30 28 1 16 26
M  V30 29 1 17 27
M  V30 30 1 18 28
M  V30 31 1 18 29
M  V30 32 1 19 30
M  V30 33 1 20 31
M  V30 34 1 20 32
M  V30 35 1 20 33
M  V30 36 1 21 34
M  V30 37 1 21 35
M  V30 38 1 21 36
M  V30 END BOND
M  V30 END CTAB
M  END
>  <Structure No>
6825

>  <LogS>
-4.17

>  <MMFF94 Energy>
40.706

$$$$
Compound 6826
Actelion Java MolfileCreator 2.0

  0  0  0  0  0  0              0 V3000
M  V30 BEGIN CTAB
M  V30 COUNTS 23 24 0 0 0
M  V30 BEGIN ATOM
M  V30 1 Cl 5.342 1.3103 -0.2806 0
M  V30 2 C 3.754 0.6149 0.0542 0
M  V30 3 C 3.3757 0.3343 1.3782 0
M  V30 4 C 2.8726 0.3313 -1.0037 0
M  V30 5 Cl 4.4861 0.6731 2.7078 0
M  V30 6 C 2.1099 -0.2128 1.6437 0
M  V30 7 Cl 3.3623 0.6573 -2.6686 0
M  V30 8 C 1.6059 -0.2197 -0.7377 0
M  V30 9 Cl 1.6125 -0.5568 3.3001 0
M  V30 10 C 1.2132 -0.4668 0.5957 0
M  V30 11 Cl 0.5535 -0.6694 -2.082 0
M  V30 12 O -0.0492 -0.9918 0.9116 0
M  V30 13 C -1.2738 -0.5299 0.4053 0
M  V30 14 C -1.5611 0.8424 0.2208 0
M  V30 15 C -2.254 -1.4814 0.099 0
M  V30 16 Cl -0.4487 2.1139 0.7135 0
M  V30 17 C -2.7992 1.2264 -0.3077 0
M  V30 18 C -3.4894 -1.0933 -0.429 0
M  V30 19 C -3.7606 0.2672 -0.6401 0
M  V30 20 Cl -4.676 -2.3313 -0.8185 0
M  V30 21 Cl -5.3013 0.7984 -1.3012 0
M  V30 22 H -2.0439 -2.5321 0.2559 0
M  V30 23 H -3.0207 2.2771 -0.4485 0
M  V30 END ATOM
M  V30 BEGIN BOND
M  V30 1 1 1 2
M  V30 2 2 2 3
M  V30 3 1 2 4
M  V30 4 1 3 5
M  V30 5 1 3 6
M  V30 6 1 4 7
M  V30 7 2 4 8
M  V30 8 1 6 9
M  V30 9 2 6 10
M  V30 10 1 8 11
M  V30 11 1 10 12
M  V30 12 1 12 13
M  V30 13 2 13 14
M  V30 14 1 13 15
M  V30 15 1 14 16
M  V30 16 1 14 17
M  V30 17 2 15 18
M  V30 18 2 17 19
M  V30 19 1 18 20
M  V30 20 1 19 21
M  V30 21 1 8 10
M  V30 22 1 18 19
M  V30 23 1 15 22
M  V30 24 1 17 23
M  V30 END BOND
M  V30 END CTAB
M  END
>  <Structure No>
6826

>  <LogS>
-10.1

>  <MMFF94 Energy>
66.221

$$$$
Compound 6827
Actelion Java MolfileCreator 2.0

  0  0  0  0  0  0              0 V3000
M  V30 BEGIN CTAB
M  V30 COUNTS 23 24 0 0 0
M  V30 BEGIN ATOM
M  V30 1 Cl -5.1566 0.5617 1.7794 0
M  V30 2 C -3.6433 0.4986 0.8726 0
M  V30 3 C -3.2448 1.5988 0.0949 0
M  V30 4 C -2.8428 -0.656 0.9188 0
M  V30 5 Cl -4.2559 3.0438 0.0205 0
M  V30 6 C -2.0376 1.5501 -0.6204 0
M  V30 7 Cl -3.3619 -2.0482 1.8729 0
M  V30 8 C -1.6351 -0.7063 0.1993 0
M  V30 9 Cl -1.5146 2.9281 -1.5881 0
M  V30 10 C -1.2175 0.4145 -0.5517 0
M  V30 11 Cl -0.699 -2.203 0.1809 0
M  V30 12 O -0.0081 0.4246 -1.2642 0
M  V30 13 C 1.2334 -0.006 -0.7721 0
M  V30 14 C 1.685 0.2877 0.537 0
M  V30 15 C 2.0566 -0.7331 -1.6372 0
M  V30 16 Cl 0.7501 1.335 1.6071 0
M  V30 17 C 2.9332 -0.2039 0.9707 0
M  V30 18 C 3.2914 -1.2145 -1.2057 0
M  V30 19 Cl 3.5073 0.139 2.6038 0
M  V30 20 C 3.7301 -0.9623 0.0954 0
M  V30 21 Cl 5.293 -1.5958 0.5962 0
M  V30 22 H 1.7255 -0.9443 -2.646 0
M  V30 23 H 3.9074 -1.7889 -1.8859 0
M  V30 END ATOM
M  V30 BEGIN BOND
M  V30 1 1 1 2
M  V30 2 2 2 3
M  V30 3 1 2 4
M  V30 4 1 3 5
M  V30 5 1 3 6
M  V30 6 1 4 7
M  V30 7 2 4 8
M  V30 8 1 6 9
M  V30 9 2 6 10
M  V30 10 1 8 11
M  V30 11 1 10 12
M  V30 12 1 12 13
M  V30 13 2 13 14
M  V30 14 1 13 15
M  V30 15 1 14 16
M  V30 16 1 14 17
M  V30 17 2 15 18
M  V30 18 1 17 19
M  V30 19 2 17 20
M  V30 20 1 20 21
M  V30 21 1 8 10
M  V30 22 1 18 20
M  V30 23 1 15 22
M  V30 24 1 18 23
M  V30 END BOND
M  V30 END CTAB
M  END
>  <Structure No>
6827

>  <LogS>
-10.6

>  <MMFF94 Energy>
80.511

$$$$
Compound 6828
Actelion Java MolfileCreator 2.0

  0  0  0  0  0  0              0 V3000
M  V30 BEGIN CTAB
M  V30 COUNTS 23 24 0 0 0
M  V30 BEGIN ATOM
M  V30 1 Cl 2.9026 0.1871 3.1838 0
M  V30 2 C 2.659 0.1151 1.4368 0
M  V30 3 C 3.7023 0.4867 0.5685 0
M  V30 4 C 1.4263 -0.3225 0.9131 0
M  V30 5 Cl 5.247 1.0393 1.2177 0
M  V30 6 C 3.5158 0.4049 -0.8202 0
M  V30 7 Cl 0.1705 -0.8931 2.0151 0
M  V30 8 C 1.2362 -0.3649 -0.487 0
M  V30 9 Cl 4.7974 0.8427 -1.943 0
M  V30 10 C 2.2927 -0.0261 -1.3358 0
M  V30 11 O 0.0274 -0.7624 -1.0779 0
M  V30 12 C -1.2543 -0.38 -0.6518 0
M  V30 13 C -1.5675 0.9587 -0.3163 0
M  V30 14 C -2.2546 -1.3646 -0.5874 0
M  V30 15 Cl -0.3838 2.2504 -0.5259 0
M  V30 16 C -2.8626 1.2785 0.1285 0
M  V30 17 Cl -1.8647 -3.0239 -1.0339 0
M  V30 18 C -3.5446 -1.0321 -0.1448 0
M  V30 19 Cl -3.2996 2.9252 0.5689 0
M  V30 20 C -3.8384 0.2833 0.2179 0
M  V30 21 Cl -4.8125 -2.2458 -0.03 0
M  V30 22 H 2.1515 -0.0786 -2.4083 0
M  V30 23 H -4.8342 0.5362 0.5604 0
M  V30 END ATOM
M  V30 BEGIN BOND
M  V30 1 1 1 2
M  V30 2 2 2 3
M  V30 3 1 2 4
M  V30 4 1 3 5
M  V30 5 1 3 6
M  V30 6 1 4 7
M  V30 7 2 4 8
M  V30 8 1 6 9
M  V30 9 2 6 10
M  V30 10 1 8 11
M  V30 11 1 11 12
M  V30 12 2 12 13
M  V30 13 1 12 14
M  V30 14 1 13 15
M  V30 15 1 13 16
M  V30 16 1 14 17
M  V30 17 2 14 18
M  V30 18 1 16 19
M  V30 19 2 16 20
M  V30 20 1 18 21
M  V30 21 1 8 10
M  V30 22 1 18 20
M  V30 23 1 10 22
M  V30 24 1 20 23
M  V30 END BOND
M  V30 END CTAB
M  END
>  <Structure No>
6828

>  <LogS>
-10.1

>  <MMFF94 Energy>
68.853

$$$$
Compound 6829
Actelion Java MolfileCreator 2.0

  0  0  0  0  0  0              0 V3000
M  V30 BEGIN CTAB
M  V30 COUNTS 45 46 0 0 0
M  V30 BEGIN ATOM
M  V30 1 O -0.399 2.2361 -1.2773 0
M  V30 2 C -1.2923 1.7429 -0.5347 0
M  V30 3 O -2.4391 2.4845 -0.2318 0
M  V30 4 C -1.1227 0.3809 0.0294 0
M  V30 5 C -2.6745 3.7849 -0.7571 0
M  V30 6 C 0.1622 -0.0559 0.4296 0
M  V30 7 C -2.2362 -0.4834 0.2029 0
M  V30 8 O 1.2628 0.8041 0.2813 0
M  V30 9 C 0.3122 -1.3186 1.0295 0
M  V30 10 C -3.5923 -0.1337 -0.2866 0
M  V30 11 C -2.0521 -1.742 0.795 0
M  V30 12 C 2.569 0.3972 -0.0153 0
M  V30 13 C -0.788 -2.1523 1.2093 0
M  V30 14 N -4.5983 -0.0478 0.5292 0
M  V30 15 C -3.8309 0.0832 -1.7493 0
M  V30 16 N 2.8249 -0.8509 -0.4932 0
M  V30 17 N 3.5906 1.2784 0.1421 0
M  V30 18 O -4.4556 -0.2337 1.8869 0
M  V30 19 C 4.0906 -1.2436 -0.8004 0
M  V30 20 C 4.8734 0.9316 -0.1544 0
M  V30 21 C -5.5786 -0.1327 2.7456 0
M  V30 22 O 4.3439 -2.5315 -1.2803 0
M  V30 23 C 5.1482 -0.3496 -0.6338 0
M  V30 24 O 5.9199 1.8431 0.0123 0
M  V30 25 C 3.3146 -3.495 -1.4718 0
M  V30 26 C 5.7186 3.1651 0.4976 0
M  V30 27 H -1.8762 4.48 -0.4216 0
M  V30 28 H -2.6994 3.7479 -1.8666 0
M  V30 29 H -3.6527 4.1548 -0.3872 0
M  V30 30 H 1.2765 -1.647 1.3933 0
M  V30 31 H -2.8916 -2.4146 0.9246 0
M  V30 32 H -0.6607 -3.1218 1.6737 0
M  V30 33 H -2.8915 -0.0342 -2.3292 0
M  V30 34 H -4.2294 1.1058 -1.917 0
M  V30 35 H -4.5697 -0.6578 -2.1193 0
M  V30 36 H -6.3367 -0.8932 2.4638 0
M  V30 37 H -5.2569 -0.3093 3.7922 0
M  V30 38 H -6.0218 0.882 2.6666 0
M  V30 39 H 6.1622 -0.6433 -0.8736 0
M  V30 40 H 3.7616 -4.4357 -1.8534 0
M  V30 41 H 2.8046 -3.7039 -0.5071 0
M  V30 42 H 2.5762 -3.1205 -2.2122 0
M  V30 43 H 5.0318 3.7179 -0.1773 0
M  V30 44 H 5.292 3.133 1.5225 0
M  V30 45 H 6.693 3.6937 0.5296 0
M  V30 END ATOM
M  V30 BEGIN BOND
M  V30 1 2 1 2
M  V30 2 1 2 3
M  V30 3 1 2 4
M  V30 4 1 3 5
M  V30 5 2 4 6
M  V30 6 1 4 7
M  V30 7 1 6 8
M  V30 8 1 6 9
M  V30 9 1 7 10
M  V30 10 2 7 11
M  V30 11 1 8 12
M  V30 12 2 9 13
M  V30 13 2 10 14
M  V30 14 1 10 15
M  V30 15 2 12 16
M  V30 16 1 12 17
M  V30 17 1 14 18
M  V30 18 1 16 19
M  V30 19 2 17 20
M  V30 20 1 18 21
M  V30 21 1 19 22
M  V30 22 2 19 23
M  V30 23 1 20 24
M  V30 24 1 22 25
M  V30 25 1 24 26
M  V30 26 1 11 13
M  V30 27 1 20 23
M  V30 28 1 5 27
M  V30 29 1 5 28
M  V30 30 1 5 29
M  V30 31 1 9 30
M  V30 32 1 11 31
M  V30 33 1 13 32
M  V30 34 1 15 33
M  V30 35 1 15 34
M  V30 36 1 15 35
M  V30 37 1 21 36
M  V30 38 1 21 37
M  V30 39 1 21 38
M  V30 40 1 23 39
M  V30 41 1 25 40
M  V30 42 1 25 41
M  V30 43 1 25 42
M  V30 44 1 26 43
M  V30 45 1 26 44
M  V30 46 1 26 45
M  V30 END BOND
M  V30 END CTAB
M  END
>  <Structure No>
6829

>  <LogS>
-3.31

>  <MMFF94 Energy>
-16.989

$$$$
Compound 6830
Actelion Java MolfileCreator 2.0

  0  0  0  0  0  0              0 V3000
M  V30 BEGIN CTAB
M  V30 COUNTS 43 45 0 0 0
M  V30 BEGIN ATOM
M  V30 1 S 0.081 -1.3778 0.081 0 CFG=1
M  V30 2 O -0.0417 -1.857 -1.3585 0
M  V30 3 C 1.7927 -0.9381 0.234 0
M  V30 4 C -0.7963 0.2 0.1332 0
M  V30 5 N 2.6066 -1.4737 1.1812 0
M  V30 6 N 2.4003 -0.0252 -0.5623 0
M  V30 7 C -2.2621 -0.0357 0.3808 0
M  V30 8 C 3.7763 -0.852 0.9462 0
M  V30 9 C 3.654 0.0158 -0.0964 0
M  V30 10 N -2.6526 -0.2597 1.6652 0
M  V30 11 C -3.2276 -0.0603 -0.657 0
M  V30 12 C 4.9731 -0.9993 1.6392 0
M  V30 13 C 4.7133 0.805 -0.5358 0
M  V30 14 C -3.9434 -0.4953 2.0068 0
M  V30 15 C -4.5818 -0.2685 -0.3113 0
M  V30 16 C -2.8409 0.196 -2.0937 0
M  V30 17 C 6.0713 -0.2208 1.2257 0
M  V30 18 C 5.9483 0.6853 0.1327 0
M  V30 19 C -4.9387 -0.5173 1.0256 0
M  V30 20 O -5.5766 -0.244 -1.2939 0
M  V30 21 O 7.0191 1.4759 -0.3094 0
M  V30 22 C -6.3735 -0.7432 1.413 0
M  V30 23 C -6.1845 0.9748 -1.7025 0
M  V30 24 C 8.3231 1.4537 0.2621 0
M  V30 25 H -0.6099 0.776 -0.7963 0
M  V30 26 H -0.3835 0.8018 0.9711 0
M  V30 27 H 1.9839 0.5291 -1.3438 0
M  V30 28 H 5.0574 -1.688 2.4703 0
M  V30 29 H 4.5895 1.4925 -1.3636 0
M  V30 30 H -4.1911 -0.663 3.0475 0
M  V30 31 H -1.9377 -0.3842 -2.366 0
M  V30 32 H -2.638 1.2783 -2.2356 0
M  V30 33 H -3.6376 -0.1118 -2.802 0
M  V30 34 H 7.0064 -0.3256 1.7578 0
M  V30 35 H -6.8611 -1.4396 0.6969 0
M  V30 36 H -6.9152 0.226 1.4091 0
M  V30 37 H -6.4514 -1.1894 2.4283 0
M  V30 38 H -6.7077 1.4457 -0.8429 0
M  V30 39 H -5.4176 1.6744 -2.0984 0
M  V30 40 H -6.925 0.7616 -2.5012 0
M  V30 41 H 8.2778 1.7663 1.3277 0
M  V30 42 H 8.9727 2.164 -0.2898 0
M  V30 43 H 8.759 0.4354 0.18 0
M  V30 END ATOM
M  V30 BEGIN BOND
M  V30 1 2 1 2
M  V30 2 1 1 3
M  V30 3 1 1 4
M  V30 4 2 3 5
M  V30 5 1 3 6
M  V30 6 1 4 7
M  V30 7 1 5 8
M  V30 8 1 6 9
M  V30 9 2 7 10
M  V30 10 1 7 11
M  V30 11 1 8 12
M  V30 12 1 9 13
M  V30 13 1 10 14
M  V30 14 2 11 15
M  V30 15 1 11 16
M  V30 16 2 12 17
M  V30 17 2 13 18
M  V30 18 2 14 19
M  V30 19 1 15 20
M  V30 20 1 18 21
M  V30 21 1 19 22
M  V30 22 1 20 23
M  V30 23 1 21 24
M  V30 24 2 8 9
M  V30 25 1 15 19
M  V30 26 1 17 18
M  V30 27 1 4 25
M  V30 28 1 4 26
M  V30 29 1 6 27
M  V30 30 1 12 28
M  V30 31 1 13 29
M  V30 32 1 14 30
M  V30 33 1 16 31
M  V30 34 1 16 32
M  V30 35 1 16 33
M  V30 36 1 17 34
M  V30 37 1 22 35
M  V30 38 1 22 36
M  V30 39 1 22 37
M  V30 40 1 23 38
M  V30 41 1 23 39
M  V30 42 1 23 40
M  V30 43 1 24 41
M  V30 44 1 24 42
M  V30 45 1 24 43
M  V30 END BOND
M  V30 BEGIN COLLECTION
M  V30 MDLV30/STEABS ATOMS=(1 1)
M  V30 END COLLECTION
M  V30 END CTAB
M  END
>  <Structure No>
6830

>  <LogS>
-4.28

>  <MMFF94 Energy>
47.419

$$$$
Compound 6831
Actelion Java MolfileCreator 2.0

  0  0  0  0  0  0              0 V3000
M  V30 BEGIN CTAB
M  V30 COUNTS 43 45 0 0 0
M  V30 BEGIN ATOM
M  V30 1 Cl 9.5965 -0.9727 -1.5405 0
M  V30 2 C 8.0187 -0.3098 -1.1558 0
M  V30 3 C 7.0192 -1.1409 -0.6345 0
M  V30 4 C 7.7605 1.0507 -1.3692 0
M  V30 5 C 5.7615 -0.6098 -0.3285 0
M  V30 6 C 6.5041 1.5856 -1.0639 0
M  V30 7 N 4.7819 -1.3984 0.1846 0
M  V30 8 C 5.5027 0.7585 -0.5445 0
M  V30 9 C 3.5561 -0.8932 0.4834 0
M  V30 10 N 4.2762 1.2596 -0.2432 0
M  V30 11 C 3.2879 0.4682 0.2528 0
M  V30 12 O 2.0488 1.0459 0.5627 0
M  V30 13 C 0.8106 0.3881 0.5192 0
M  V30 14 C 0.5441 -0.6363 -0.4052 0
M  V30 15 C -0.2011 0.8012 1.3921 0
M  V30 16 C -0.7086 -1.2553 -0.4284 0
M  V30 17 C -1.4544 0.1823 1.3702 0
M  V30 18 C -1.7172 -0.8557 0.4557 0
M  V30 19 O -2.9573 -1.512 0.3883 0
M  V30 20 C -4.1063 -1.1929 1.1756 0 CFG=1
M  V30 21 C -4.6725 0.1331 0.7591 0
M  V30 22 C -5.1572 -2.2817 0.9835 0
M  V30 23 O -5.1533 0.9082 1.6304 0
M  V30 24 O -4.6891 0.4817 -0.5962 0
M  V30 25 C -5.2639 1.6899 -1.0888 0
M  V30 26 C -6.7848 1.593 -1.1063 0
M  V30 27 H 7.2206 -2.192 -0.4679 0
M  V30 28 H 8.5327 1.6939 -1.7715 0
M  V30 29 H 6.3122 2.6381 -1.2318 0
M  V30 30 H 2.8072 -1.5425 0.9157 0
M  V30 31 H 1.2957 -0.9435 -1.1202 0
M  V30 32 H -0.012 1.601 2.0971 0
M  V30 33 H -0.9005 -2.0447 -1.144 0
M  V30 34 H -2.2081 0.5208 2.0669 0
M  V30 35 H -3.8268 -1.1719 2.2522 0
M  V30 36 H -5.4572 -2.3491 -0.0844 0
M  V30 37 H -6.0551 -2.064 1.6009 0
M  V30 38 H -4.7425 -3.2624 1.2992 0
M  V30 39 H -4.9052 1.8541 -2.1266 0
M  V30 40 H -4.9382 2.5546 -0.4705 0
M  V30 41 H -7.1016 0.7236 -1.7201 0
M  V30 42 H -7.1775 1.4728 -0.0752 0
M  V30 43 H -7.2129 2.5188 -1.545 0
M  V30 END ATOM
M  V30 BEGIN BOND
M  V30 1 1 1 2
M  V30 2 2 2 3
M  V30 3 1 2 4
M  V30 4 1 3 5
M  V30 5 2 4 6
M  V30 6 2 5 7
M  V30 7 1 5 8
M  V30 8 1 7 9
M  V30 9 2 8 10
M  V30 10 2 9 11
M  V30 11 1 11 12
M  V30 12 1 12 13
M  V30 13 2 13 14
M  V30 14 1 13 15
M  V30 15 1 14 16
M  V30 16 2 15 17
M  V30 17 2 16 18
M  V30 18 1 18 19
M  V30 19 1 19 20
M  V30 20 1 20 21
M  V30 21 1 20 22
M  V30 22 2 21 23
M  V30 23 1 21 24
M  V30 24 1 24 25
M  V30 25 1 25 26
M  V30 26 1 6 8
M  V30 27 1 10 11
M  V30 28 1 17 18
M  V30 29 1 3 27
M  V30 30 1 4 28
M  V30 31 1 6 29
M  V30 32 1 9 30
M  V30 33 1 14 31
M  V30 34 1 15 32
M  V30 35 1 16 33
M  V30 36 1 17 34
M  V30 37 1 20 35
M  V30 38 1 22 36
M  V30 39 1 22 37
M  V30 40 1 22 38
M  V30 41 1 25 39
M  V30 42 1 25 40
M  V30 43 1 26 41
M  V30 44 1 26 42
M  V30 45 1 26 43
M  V30 END BOND
M  V30 BEGIN COLLECTION
M  V30 MDLV30/STEABS ATOMS=(1 20)
M  V30 END COLLECTION
M  V30 END CTAB
M  END
>  <Structure No>
6831

>  <LogS>
-5.97

>  <MMFF94 Energy>
114.05

$$$$
Compound 6832
Actelion Java MolfileCreator 2.0

  0  0  0  0  0  0              0 V3000
M  V30 BEGIN CTAB
M  V30 COUNTS 34 38 0 0 0
M  V30 BEGIN ATOM
M  V30 1 N 0.0 -0.8862 0.161 0
M  V30 2 C 1.1095 -0.1105 0.1104 0
M  V30 3 C -1.0422 -0.0233 0.091 0
M  V30 4 C 2.4528 -0.519 0.1487 0
M  V30 5 C 0.7751 1.2251 0.0096 0
M  V30 6 C -2.4147 -0.3219 0.1048 0
M  V30 7 C -0.5991 1.2806 -0.0027 0
M  V30 8 C 3.4548 0.4926 0.0801 0
M  V30 9 C 2.8331 -1.8678 0.2509 0
M  V30 10 C 1.7342 2.2317 -0.0589 0
M  V30 11 C -3.3304 0.7673 0.0188 0
M  V30 12 C -2.9047 -1.6355 0.1991 0
M  V30 13 C -1.4726 2.3616 -0.0878 0
M  V30 14 C 3.0865 1.8563 -0.0229 0
M  V30 15 C 4.8086 0.1254 0.1154 0
M  V30 16 C 4.1874 -2.2118 0.2845 0
M  V30 17 C -2.8513 2.0967 -0.0766 0
M  V30 18 C -4.7099 0.5108 0.0294 0
M  V30 19 C -4.2829 -1.8688 0.208 0
M  V30 20 C 5.17 -1.2207 0.2173 0
M  V30 21 C -5.1808 -0.8015 0.1237 0
M  V30 22 H -0.0428 -1.9252 0.2376 0
M  V30 23 H 2.097 -2.6579 0.3049 0
M  V30 24 H 1.4508 3.2733 -0.1376 0
M  V30 25 H -2.2361 -2.4824 0.2658 0
M  V30 26 H -1.1044 3.3767 -0.1607 0
M  V30 27 H 3.8458 2.6272 -0.0753 0
M  V30 28 H 5.5861 0.8784 0.0645 0
M  V30 29 H 4.4771 -3.2518 0.3632 0
M  V30 30 H -3.5448 2.9265 -0.1421 0
M  V30 31 H -5.423 1.3242 -0.0348 0
M  V30 32 H -4.6571 -2.8819 0.2808 0
M  V30 33 H 6.2161 -1.4969 0.244 0
M  V30 34 H -6.2462 -0.9923 0.1314 0
M  V30 END ATOM
M  V30 BEGIN BOND
M  V30 1 1 1 2
M  V30 2 1 1 3
M  V30 3 1 2 4
M  V30 4 2 2 5
M  V30 5 1 3 6
M  V30 6 2 3 7
M  V30 7 1 4 8
M  V30 8 2 4 9
M  V30 9 1 5 10
M  V30 10 1 6 11
M  V30 11 2 6 12
M  V30 12 1 7 13
M  V30 13 1 8 14
M  V30 14 2 8 15
M  V30 15 1 9 16
M  V30 16 1 11 17
M  V30 17 2 11 18
M  V30 18 1 12 19
M  V30 19 1 15 20
M  V30 20 1 18 21
M  V30 21 1 5 7
M  V30 22 2 10 14
M  V30 23 2 13 17
M  V30 24 2 16 20
M  V30 25 2 19 21
M  V30 26 1 1 22
M  V30 27 1 9 23
M  V30 28 1 10 24
M  V30 29 1 12 25
M  V30 30 1 13 26
M  V30 31 1 14 27
M  V30 32 1 15 28
M  V30 33 1 16 29
M  V30 34 1 17 30
M  V30 35 1 18 31
M  V30 36 1 19 32
M  V30 37 1 20 33
M  V30 38 1 21 34
M  V30 END BOND
M  V30 END CTAB
M  END
>  <Structure No>
6832

>  <LogS>
-7.41

>  <MMFF94 Energy>
60.103

$$$$
Compound 6833
Actelion Java MolfileCreator 2.0

  0  0  0  0  0  0              0 V3000
M  V30 BEGIN CTAB
M  V30 COUNTS 55 58 0 0 0
M  V30 BEGIN ATOM
M  V30 1 O -10.37 0.3203 -1.6024 0
M  V30 2 C -9.2342 -0.0623 -1.2174 0
M  V30 3 N -9.1076 -0.9092 -0.1538 0
M  V30 4 C -8.0754 0.3603 -1.8514 0
M  V30 5 C -7.8757 -1.3311 0.2827 0
M  V30 6 N -7.9287 1.2011 -2.8932 0
M  V30 7 C -6.8711 -0.0686 -1.4106 0
M  V30 8 N -6.7369 -0.9048 -0.3499 0
M  V30 9 N -7.7874 -2.2137 1.4008 0
M  V30 10 C -6.5766 1.2494 -3.0506 0
M  V30 11 N -5.904 0.4743 -2.1617 0
M  V30 12 C -4.4592 0.3438 -2.0082 0
M  V30 13 O -4.0502 1.0709 -0.8695 0
M  V30 14 C -2.6622 0.9035 -0.6758 0
M  V30 15 C -2.2295 1.7112 0.5447 0
M  V30 16 O -0.8202 1.6106 0.7406 0
M  V30 17 C -0.1937 0.4815 1.2839 0
M  V30 18 O -0.8855 -0.4941 1.6872 0
M  V30 19 C 1.2813 0.439 1.3906 0
M  V30 20 C 1.93 -0.6828 1.9373 0
M  V30 21 C 2.0564 1.5219 0.9407 0
M  V30 22 C 3.324 -0.7185 2.0328 0
M  V30 23 C 3.4504 1.4849 1.0373 0
M  V30 24 C 4.093 0.3668 1.5894 0
M  V30 25 C 5.5975 0.3083 1.6697 0
M  V30 26 N 6.1417 -0.6596 0.6937 0
M  V30 27 C 5.8739 -0.2321 -0.7 0
M  V30 28 C 7.5802 -0.9289 0.9378 0
M  V30 29 C 6.8724 -0.8758 -1.6757 0
M  V30 30 C 8.4837 -0.1876 -0.0643 0
M  V30 31 O 8.2281 -0.5318 -1.4192 0
M  V30 32 H -5.7937 -1.2138 -0.0247 0
M  V30 33 H -8.6534 -2.539 1.8851 0
M  V30 34 H -6.8594 -2.5438 1.7471 0
M  V30 35 H -6.091 1.8543 -3.8055 0
M  V30 36 H -3.9581 0.7361 -2.9228 0
M  V30 37 H -4.2102 -0.737 -1.9048 0
M  V30 38 H -2.4189 -0.1685 -0.5 0
M  V30 39 H -2.0928 1.273 -1.5593 0
M  V30 40 H -2.7714 1.3657 1.4524 0
M  V30 41 H -2.485 2.7793 0.378 0
M  V30 42 H 1.3613 -1.5346 2.2888 0
M  V30 43 H 1.5873 2.3981 0.5107 0
M  V30 44 H 3.8056 -1.5941 2.4505 0
M  V30 45 H 4.028 2.3272 0.677 0
M  V30 46 H 6.049 1.3151 1.5171 0
M  V30 47 H 5.857 -0.0073 2.7048 0
M  V30 48 H 4.8456 -0.5423 -0.9853 0
M  V30 49 H 5.9438 0.8744 -0.8076 0
M  V30 50 H 7.7554 -2.0208 0.8296 0
M  V30 51 H 7.8922 -0.6632 1.9726 0
M  V30 52 H 6.7655 -1.9816 -1.6377 0
M  V30 53 H 6.6184 -0.5545 -2.7078 0
M  V30 54 H 9.5425 -0.4313 0.1646 0
M  V30 55 H 8.3627 0.9097 0.0649 0
M  V30 END ATOM
M  V30 BEGIN BOND
M  V30 1 2 1 2
M  V30 2 1 2 3
M  V30 3 1 2 4
M  V30 4 2 3 5
M  V30 5 1 4 6
M  V30 6 2 4 7
M  V30 7 1 5 8
M  V30 8 1 5 9
M  V30 9 2 6 10
M  V30 10 1 7 11
M  V30 11 1 11 12
M  V30 12 1 12 13
M  V30 13 1 13 14
M  V30 14 1 14 15
M  V30 15 1 15 16
M  V30 16 1 16 17
M  V30 17 2 17 18
M  V30 18 1 17 19
M  V30 19 2 19 20
M  V30 20 1 19 21
M  V30 21 1 20 22
M  V30 22 2 21 23
M  V30 23 2 22 24
M  V30 24 1 24 25
M  V30 25 1 25 26
M  V30 26 1 26 27
M  V30 27 1 26 28
M  V30 28 1 27 29
M  V30 29 1 28 30
M  V30 30 1 29 31
M  V30 31 1 7 8
M  V30 32 1 10 11
M  V30 33 1 23 24
M  V30 34 1 30 31
M  V30 35 1 8 32
M  V30 36 1 9 33
M  V30 37 1 9 34
M  V30 38 1 10 35
M  V30 39 1 12 36
M  V30 40 1 12 37
M  V30 41 1 14 38
M  V30 42 1 14 39
M  V30 43 1 15 40
M  V30 44 1 15 41
M  V30 45 1 20 42
M  V30 46 1 21 43
M  V30 47 1 22 44
M  V30 48 1 23 45
M  V30 49 1 25 46
M  V30 50 1 25 47
M  V30 51 1 27 48
M  V30 52 1 27 49
M  V30 53 1 28 50
M  V30 54 1 28 51
M  V30 55 1 29 52
M  V30 56 1 29 53
M  V30 57 1 30 54
M  V30 58 1 30 55
M  V30 END BOND
M  V30 END CTAB
M  END
>  <Structure No>
6833

>  <LogS>
-2.75

>  <MMFF94 Energy>
84.776

$$$$
Compound 6834
Actelion Java MolfileCreator 2.0

  0  0  0  0  0  0              0 V3000
M  V30 BEGIN CTAB
M  V30 COUNTS 37 38 0 0 0
M  V30 BEGIN ATOM
M  V30 1 Cl -4.6498 -2.7034 -1.858 0
M  V30 2 C -3.6907 -1.5749 -0.9103 0
M  V30 3 C -4.2583 -0.8477 0.1522 0
M  V30 4 C -2.3238 -1.4608 -1.1849 0
M  V30 5 O -5.6285 -0.936 0.4299 0
M  V30 6 C -3.4302 -0.0585 0.9678 0
M  V30 7 C -1.4988 -0.6568 -0.387 0
M  V30 8 C -6.6353 -0.2439 -0.3167 0
M  V30 9 Cl -4.0842 0.7927 2.3593 0
M  V30 10 C -2.0641 0.0503 0.6873 0
M  V30 11 N -0.102 -0.5428 -0.709 0
M  V30 12 F -6.413 -0.3677 -1.6772 0
M  V30 13 F -7.8618 -0.8101 -0.0205 0
M  V30 14 C -6.6741 1.2377 0.0561 0
M  V30 15 C 0.9407 -0.3868 0.2659 0
M  V30 16 F -5.5147 1.869 -0.357 0
M  V30 17 F -7.7552 1.846 -0.5562 0
M  V30 18 O 0.7001 -0.5817 1.4887 0
M  V30 19 N 2.2705 -0.0629 -0.1685 0
M  V30 20 C 3.3658 0.1909 0.7281 0
M  V30 21 O 3.1479 0.3749 1.9568 0
M  V30 22 C 4.7539 0.2756 0.2171 0
M  V30 23 C 5.6597 1.203 0.772 0
M  V30 24 C 5.1971 -0.5784 -0.8141 0
M  V30 25 F 5.2711 2.0483 1.7608 0
M  V30 26 C 6.9702 1.2837 0.2906 0
M  V30 27 F 4.3796 -1.5289 -1.3342 0
M  V30 28 C 6.5104 -0.4894 -1.2869 0
M  V30 29 C 7.394 0.4413 -0.738 0
M  V30 30 H -1.8953 -2.0205 -2.0073 0
M  V30 31 H -1.4533 0.7016 1.2983 0
M  V30 32 H 0.1825 -0.6657 -1.7072 0
M  V30 33 H -6.7804 1.3478 1.1558 0
M  V30 34 H 2.4363 0.0322 -1.1953 0
M  V30 35 H 7.6589 2.0033 0.7147 0
M  V30 36 H 6.8473 -1.1502 -2.0752 0
M  V30 37 H 8.4096 0.506 -1.1065 0
M  V30 END ATOM
M  V30 BEGIN BOND
M  V30 1 1 1 2
M  V30 2 2 2 3
M  V30 3 1 2 4
M  V30 4 1 3 5
M  V30 5 1 3 6
M  V30 6 2 4 7
M  V30 7 1 5 8
M  V30 8 1 6 9
M  V30 9 2 6 10
M  V30 10 1 7 11
M  V30 11 1 8 12
M  V30 12 1 8 13
M  V30 13 1 8 14
M  V30 14 1 11 15
M  V30 15 1 14 16
M  V30 16 1 14 17
M  V30 17 2 15 18
M  V30 18 1 15 19
M  V30 19 1 19 20
M  V30 20 2 20 21
M  V30 21 1 20 22
M  V30 22 2 22 23
M  V30 23 1 22 24
M  V30 24 1 23 25
M  V30 25 1 23 26
M  V30 26 1 24 27
M  V30 27 2 24 28
M  V30 28 2 26 29
M  V30 29 1 7 10
M  V30 30 1 28 29
M  V30 31 1 4 30
M  V30 32 1 10 31
M  V30 33 1 11 32
M  V30 34 1 14 33
M  V30 35 1 19 34
M  V30 36 1 26 35
M  V30 37 1 28 36
M  V30 38 1 29 37
M  V30 END BOND
M  V30 END CTAB
M  END
>  <Structure No>
6834

>  <LogS>
-5.82

>  <MMFF94 Energy>
21.512

$$$$
Compound 6835
Actelion Java MolfileCreator 2.0

  0  0  0  0  0  0              0 V3000
M  V30 BEGIN CTAB
M  V30 COUNTS 44 47 0 0 0
M  V30 BEGIN ATOM
M  V30 1 Cl -0.9844 1.6411 2.4624 0
M  V30 2 C 0.0623 0.689 1.4108 0
M  V30 3 C -0.4241 -0.0513 0.2998 0
M  V30 4 C 1.4259 0.6655 1.7286 0
M  V30 5 C 0.4922 -0.8472 -0.4207 0
M  V30 6 C -1.9084 -0.0753 -0.0789 0 CFG=1
M  V30 7 C 2.3271 -0.0857 0.9729 0
M  V30 8 C 1.8483 -0.8609 -0.0916 0
M  V30 9 O -2.4577 1.2206 0.0489 0
M  V30 10 O -2.0639 -0.5456 -1.4065 0
M  V30 11 C -2.655 -1.0362 0.8651 0
M  V30 12 O 3.6809 -0.0837 1.3398 0
M  V30 13 C -2.6023 1.7017 -1.2476 0 CFG=1
M  V30 14 C -2.6606 0.4855 -2.1278 0
M  V30 15 N -4.0834 -1.059 0.5596 0
M  V30 16 C 4.7618 -0.2493 0.4611 0
M  V30 17 C -3.8601 2.5626 -1.352 0
M  V30 18 N -4.9657 -0.205 1.0441 0
M  V30 19 C -4.7116 -1.8729 -0.3041 0
M  V30 20 C 4.711 0.1929 -0.874 0
M  V30 21 C 5.9403 -0.8294 0.9464 0
M  V30 22 C -6.1376 -0.5307 0.4649 0
M  V30 23 N -6.0214 -1.571 -0.3902 0
M  V30 24 C 5.8162 0.024 -1.7139 0
M  V30 25 C 7.0447 -0.9978 0.1053 0
M  V30 26 C 6.9824 -0.5747 -1.2263 0
M  V30 27 Cl 8.3687 -0.7844 -2.2803 0
M  V30 28 H 1.7913 1.2373 2.5729 0
M  V30 29 H 0.1641 -1.473 -1.2402 0
M  V30 30 H 2.5193 -1.4964 -0.6546 0
M  V30 31 H -2.5184 -0.7256 1.9229 0
M  V30 32 H -2.2373 -2.0626 0.7638 0
M  V30 33 H -1.7113 2.3173 -1.5061 0
M  V30 34 H -3.7062 0.1922 -2.3687 0
M  V30 35 H -2.1038 0.6556 -3.074 0
M  V30 36 H -4.7576 1.9829 -1.0463 0
M  V30 37 H -3.7643 3.446 -0.6858 0
M  V30 38 H -3.9929 2.9179 -2.396 0
M  V30 39 H -4.2298 -2.66 -0.8695 0
M  V30 40 H 3.8275 0.6843 -1.2597 0
M  V30 41 H 5.997 -1.1573 1.9767 0
M  V30 42 H -7.0671 -0.012 0.6572 0
M  V30 43 H 5.7674 0.3653 -2.7401 0
M  V30 44 H 7.9474 -1.4551 0.49 0
M  V30 END ATOM
M  V30 BEGIN BOND
M  V30 1 1 1 2
M  V30 2 2 2 3
M  V30 3 1 2 4
M  V30 4 1 3 5
M  V30 5 1 3 6
M  V30 6 2 4 7
M  V30 7 2 5 8
M  V30 8 1 6 9
M  V30 9 1 6 10
M  V30 10 1 6 11
M  V30 11 1 7 12
M  V30 12 1 9 13
M  V30 13 1 10 14
M  V30 14 1 11 15
M  V30 15 1 12 16
M  V30 16 1 13 17
M  V30 17 1 15 18
M  V30 18 1 15 19
M  V30 19 2 16 20
M  V30 20 1 16 21
M  V30 21 2 18 22
M  V30 22 2 19 23
M  V30 23 1 20 24
M  V30 24 2 21 25
M  V30 25 2 24 26
M  V30 26 1 26 27
M  V30 27 1 7 8
M  V30 28 1 13 14
M  V30 29 1 22 23
M  V30 30 1 25 26
M  V30 31 1 4 28
M  V30 32 1 5 29
M  V30 33 1 8 30
M  V30 34 1 11 31
M  V30 35 1 11 32
M  V30 36 1 13 33
M  V30 37 1 14 34
M  V30 38 1 14 35
M  V30 39 1 17 36
M  V30 40 1 17 37
M  V30 41 1 17 38
M  V30 42 1 19 39
M  V30 43 1 20 40
M  V30 44 1 21 41
M  V30 45 1 22 42
M  V30 46 1 24 43
M  V30 47 1 25 44
M  V30 END BOND
M  V30 BEGIN COLLECTION
M  V30 MDLV30/STEABS ATOMS=(2 6 13)
M  V30 END COLLECTION
M  V30 END CTAB
M  END
>  <Structure No>
6835

>  <LogS>
-4.91

>  <MMFF94 Energy>
68.711

$$$$
Compound 6836
Actelion Java MolfileCreator 2.0

  0  0  0  0  0  0              0 V3000
M  V30 BEGIN CTAB
M  V30 COUNTS 24 26 0 0 0
M  V30 BEGIN ATOM
M  V30 1 S 1.7184 0.773 -2.0624 0
M  V30 2 C 3.3732 0.6416 -1.6651 0
M  V30 3 C 0.527 0.3335 -0.9013 0
M  V30 4 C 4.3473 1.0174 -2.6588 0
M  V30 5 C 3.7524 0.1791 -0.4024 0
M  V30 6 C 0.8955 -0.116 0.3258 0
M  V30 7 C -0.8355 0.4475 -1.2435 0
M  V30 8 N 5.1293 1.3192 -3.4566 0
M  V30 9 S 2.56 -0.2534 0.7398 0
M  V30 10 C 5.1381 0.0529 -0.0261 0
M  V30 11 C -0.0777 -0.4767 1.2792 0
M  V30 12 O -1.1607 0.8674 -2.3892 0
M  V30 13 C -1.8317 0.0946 -0.3122 0
M  V30 14 N 6.2505 -0.0483 0.2761 0
M  V30 15 O 0.2825 -0.893 2.4159 0
M  V30 16 C -1.4474 -0.3739 0.9671 0
M  V30 17 C -3.201 0.1988 -0.6283 0
M  V30 18 C -2.4411 -0.7279 1.9015 0
M  V30 19 C -4.1719 -0.1564 0.3102 0
M  V30 20 C -3.7933 -0.6182 1.5707 0
M  V30 21 H -3.5244 0.5542 -1.5991 0
M  V30 22 H -2.1766 -1.0895 2.8877 0
M  V30 23 H -5.2217 -0.0734 0.0593 0
M  V30 24 H -4.5503 -0.8922 2.2945 0
M  V30 END ATOM
M  V30 BEGIN BOND
M  V30 1 1 1 2
M  V30 2 1 1 3
M  V30 3 1 2 4
M  V30 4 2 2 5
M  V30 5 2 3 6
M  V30 6 1 3 7
M  V30 7 3 4 8
M  V30 8 1 5 9
M  V30 9 1 5 10
M  V30 10 1 6 11
M  V30 11 2 7 12
M  V30 12 1 7 13
M  V30 13 3 10 14
M  V30 14 2 11 15
M  V30 15 1 11 16
M  V30 16 1 13 17
M  V30 17 1 16 18
M  V30 18 2 17 19
M  V30 19 2 18 20
M  V30 20 1 6 9
M  V30 21 2 13 16
M  V30 22 1 19 20
M  V30 23 1 17 21
M  V30 24 1 18 22
M  V30 25 1 19 23
M  V30 26 1 20 24
M  V30 END BOND
M  V30 END CTAB
M  END
>  <Structure No>
6836

>  <LogS>
-6.33

>  <MMFF94 Energy>
77.953

$$$$
Compound 6837
Actelion Java MolfileCreator 2.0

  0  0  0  0  0  0              0 V3000
M  V30 BEGIN CTAB
M  V30 COUNTS 55 59 0 0 0
M  V30 BEGIN ATOM
M  V30 1 Cl -6.1994 -2.7698 3.2592 0
M  V30 2 C -5.1514 -1.7632 2.2771 0
M  V30 3 C -5.0515 -1.9911 0.9 0
M  V30 4 C -4.4143 -0.7318 2.8703 0
M  V30 5 C -4.2161 -1.1895 0.1163 0
M  V30 6 C -3.5786 0.0708 2.0882 0
M  V30 7 C -3.4769 -0.1552 0.7082 0
M  V30 8 N -2.6124 0.6693 -0.0982 0
M  V30 9 C -1.3011 0.3013 -0.2934 0
M  V30 10 C -3.096 1.8273 -0.6752 0
M  V30 11 C -0.4351 1.1596 -1.1193 0
M  V30 12 C -0.7331 -0.8593 0.2626 0
M  V30 13 C -2.2395 2.637 -1.4708 0
M  V30 14 C -4.4376 2.2461 -0.5019 0
M  V30 15 N -0.947 2.2818 -1.6693 0
M  V30 16 C 0.887 0.7999 -1.3448 0
M  V30 17 C 0.6168 -1.195 0.0579 0
M  V30 18 C -2.7203 3.8117 -2.0608 0
M  V30 19 C -4.9013 3.4217 -1.0977 0
M  V30 20 C 1.428 -0.3639 -0.7755 0
M  V30 21 N 1.0426 -2.2576 0.6939 0
M  V30 22 C -4.0461 4.2019 -1.8744 0
M  V30 23 N 2.7501 -0.7407 -1.1835 0
M  V30 24 C 2.3737 -2.8526 0.8378 0
M  V30 25 C 3.9018 0.1127 -1.042 0
M  V30 26 C 3.2224 -2.0236 1.8079 0
M  V30 27 C 2.2131 -4.2737 1.3787 0
M  V30 28 C 5.0721 -0.1829 -1.7592 0
M  V30 29 C 3.8947 1.2219 -0.1737 0
M  V30 30 C 6.2076 0.6215 -1.6264 0
M  V30 31 C 5.0321 2.0241 -0.0429 0
M  V30 32 C 6.1883 1.7264 -0.7701 0
M  V30 33 Cl 7.6145 2.7335 -0.6031 0
M  V30 34 H -5.6195 -2.7877 0.4369 0
M  V30 35 H -4.4883 -0.552 3.9351 0
M  V30 36 H -4.1414 -1.37 -0.9483 0
M  V30 37 H -3.0096 0.8669 2.5516 0
M  V30 38 H -1.3307 -1.5105 0.8892 0
M  V30 39 H -5.1379 1.6737 0.0913 0
M  V30 40 H 1.4989 1.4161 -1.9932 0
M  V30 41 H -2.0648 4.4254 -2.6665 0
M  V30 42 H -5.9296 3.7288 -0.956 0
M  V30 43 H -4.4116 5.1114 -2.3333 0
M  V30 44 H 2.8238 -1.5689 -1.8163 0
M  V30 45 H 2.8796 -2.9522 -0.1384 0
M  V30 46 H 2.7764 -2.0377 2.8256 0
M  V30 47 H 4.2537 -2.4327 1.8589 0
M  V30 48 H 3.2808 -0.9693 1.4786 0
M  V30 49 H 3.2069 -4.7567 1.4959 0
M  V30 50 H 1.6971 -4.2636 2.363 0
M  V30 51 H 1.6113 -4.8811 0.6695 0
M  V30 52 H 5.1035 -1.037 -2.4237 0
M  V30 53 H 3.0177 1.4623 0.4127 0
M  V30 54 H 7.1019 0.384 -2.1883 0
M  V30 55 H 5.0147 2.874 0.6272 0
M  V30 END ATOM
M  V30 BEGIN BOND
M  V30 1 1 1 2
M  V30 2 2 2 3
M  V30 3 1 2 4
M  V30 4 1 3 5
M  V30 5 2 4 6
M  V30 6 2 5 7
M  V30 7 1 7 8
M  V30 8 1 8 9
M  V30 9 1 8 10
M  V30 10 1 9 11
M  V30 11 2 9 12
M  V30 12 2 10 13
M  V30 13 1 10 14
M  V30 14 2 11 15
M  V30 15 1 11 16
M  V30 16 1 12 17
M  V30 17 1 13 18
M  V30 18 2 14 19
M  V30 19 2 16 20
M  V30 20 2 17 21
M  V30 21 2 18 22
M  V30 22 1 20 23
M  V30 23 1 21 24
M  V30 24 1 23 25
M  V30 25 1 24 26
M  V30 26 1 24 27
M  V30 27 2 25 28
M  V30 28 1 25 29
M  V30 29 1 28 30
M  V30 30 2 29 31
M  V30 31 2 30 32
M  V30 32 1 32 33
M  V30 33 1 6 7
M  V30 34 1 13 15
M  V30 35 1 17 20
M  V30 36 1 19 22
M  V30 37 1 31 32
M  V30 38 1 3 34
M  V30 39 1 4 35
M  V30 40 1 5 36
M  V30 41 1 6 37
M  V30 42 1 12 38
M  V30 43 1 14 39
M  V30 44 1 16 40
M  V30 45 1 18 41
M  V30 46 1 19 42
M  V30 47 1 22 43
M  V30 48 1 23 44
M  V30 49 1 24 45
M  V30 50 1 26 46
M  V30 51 1 26 47
M  V30 52 1 26 48
M  V30 53 1 27 49
M  V30 54 1 27 50
M  V30 55 1 27 51
M  V30 56 1 28 52
M  V30 57 1 29 53
M  V30 58 1 30 54
M  V30 59 1 31 55
M  V30 END BOND
M  V30 END CTAB
M  END
>  <Structure No>
6837

>  <LogS>
-6.24

>  <MMFF94 Energy>
114.21

$$$$
Compound 6838
Actelion Java MolfileCreator 2.0

  0  0  0  0  0  0              0 V3000
M  V30 BEGIN CTAB
M  V30 COUNTS 113 119 0 0 0
M  V30 BEGIN ATOM
M  V30 1 O -4.0597 -0.9732 -2.5968 0
M  V30 2 C -3.3349 -1.3552 -1.6829 0
M  V30 3 C -3.8799 -1.3372 -0.2298 0 CFG=2
M  V30 4 C -1.9915 -1.9607 -2.0737 0 CFG=1
M  V30 5 C -2.8536 -0.6812 0.8252 0 CFG=2
M  V30 6 C -4.1957 -2.8568 0.1813 0 CFG=2
M  V30 7 C -5.2397 -0.5523 -0.2341 0
M  V30 8 O -1.7909 -1.9784 -3.4895 0
M  V30 9 C -0.8391 -1.2153 -1.4198 0
M  V30 10 C -3.4366 -0.8204 2.2793 0 CFG=1
M  V30 11 C -2.2476 0.7716 0.5885 0 CFG=2
M  V30 12 O -5.584 -3.109 0.2393 0
M  V30 13 C -3.575 -3.2858 1.528 0
M  V30 14 C -2.464 -2.8461 -4.3568 0
M  V30 15 C -0.0046 -1.8837 -0.5694 0
M  V30 16 C -0.685 0.3097 -1.5547 0
M  V30 17 O -4.5145 0.0783 2.5836 0
M  V30 18 C -3.854 -2.2483 2.6189 0 CFG=1
M  V30 19 C -2.4544 -1.0495 3.4229 0
M  V30 20 O -3.2195 1.6407 9.0E-4 0
M  V30 21 C -0.8131 0.9268 -0.108 0 CFG=1
M  V30 22 O -3.3457 -3.6315 -3.9221 0
M  V30 23 C -2.0885 -2.8794 -5.7981 0
M  V30 24 C 0.6736 -1.1781 0.5895 0 CFG=2
M  V30 25 C 0.1881 -3.3844 -0.6382 0
M  V30 26 C 0.7199 0.5798 -2.1703 0
M  V30 27 C -1.6684 0.9776 -2.5695 0
M  V30 28 C -4.419 1.3577 3.1484 0
M  V30 29 O -2.9148 -2.3594 3.6593 0
M  V30 30 C -3.487 2.9546 0.4261 0
M  V30 31 O -0.4982 2.3044 -0.1603 0
M  V30 32 C 0.3048 0.314 0.8028 0
M  V30 33 O 2.0909 -1.3167 0.4517 0
M  V30 34 O -3.3429 1.7776 3.6399 0
M  V30 35 C -5.6583 2.1819 3.2683 0
M  V30 36 O -2.7913 3.4879 1.3344 0
M  V30 37 C -4.5969 3.7153 -0.186 0
M  V30 38 C 2.9289 -1.8231 1.4564 0
M  V30 39 C -5.1437 3.3108 -1.4177 0
M  V30 40 C -5.1185 4.8562 0.4512 0
M  V30 41 O 2.4434 -2.267 2.5386 0
M  V30 42 C 4.4153 -1.8956 1.2157 0 CFG=2
M  V30 43 C -6.2001 4.0274 -1.9911 0
M  V30 44 C -6.1765 5.5686 -0.1254 0
M  V30 45 O 5.0656 -2.4493 2.3333 0
M  V30 46 C 5.0045 -0.4935 0.8764 0 CFG=1
M  V30 47 C -6.7198 5.1512 -1.3451 0
M  V30 48 N 6.4647 -0.5054 1.0019 0
M  V30 49 C 4.6415 -0.0047 -0.5123 0
M  V30 50 C 7.1886 0.6047 1.5696 0
M  V30 51 C 4.916 -0.785 -1.6557 0
M  V30 52 C 4.1463 1.3019 -0.6867 0
M  V30 53 O 6.5721 1.6622 1.8823 0
M  V30 54 C 8.6556 0.5388 1.7821 0
M  V30 55 C 4.6384 -0.2922 -2.9335 0
M  V30 56 C 3.8959 1.8003 -1.9696 0
M  V30 57 C 9.3275 -0.695 1.8964 0
M  V30 58 C 9.398 1.7311 1.9123 0
M  V30 59 C 4.1236 0.9996 -3.0906 0
M  V30 60 C 10.7093 -0.7299 2.1236 0
M  V30 61 C 10.7766 1.6899 2.1384 0
M  V30 62 C 11.4354 0.4613 2.24 0
M  V30 63 H -2.015 -3.0144 -1.7508 0
M  V30 64 H -1.9852 -1.3433 0.8442 0
M  V30 65 H -3.7627 -3.5517 -0.5751 0
M  V30 66 H -5.7691 -0.6256 0.7352 0
M  V30 67 H -5.9342 -0.9884 -0.9827 0
M  V30 68 H -5.1453 0.5029 -0.513 0
M  V30 69 H -2.0585 1.1576 1.6063 0
M  V30 70 H -5.7286 -4.0719 0.0355 0
M  V30 71 H -3.9948 -4.2646 1.843 0
M  V30 72 H -2.4804 -3.4443 1.4054 0
M  V30 73 H -4.8919 -2.3209 3.012 0
M  V30 74 H -1.3893 -1.0535 3.114 0
M  V30 75 H -2.6318 -0.4307 4.3245 0
M  V30 76 H -1.8305 -1.858 -6.1486 0
M  V30 77 H -1.2116 -3.5472 -5.9359 0
M  V30 78 H -2.9325 -3.2588 -6.4139 0
M  V30 79 H 0.3281 -1.7216 1.493 0
M  V30 80 H 1.0638 -3.7046 -0.0311 0
M  V30 81 H 0.3743 -3.6999 -1.6856 0
M  V30 82 H -0.6984 -3.9077 -0.2256 0
M  V30 83 H 0.7928 0.1126 -3.181 0
M  V30 84 H 0.9136 1.6704 -2.2736 0
M  V30 85 H 1.543 0.1526 -1.5688 0
M  V30 86 H -1.6728 0.4474 -3.5419 0
M  V30 87 H -1.361 2.0158 -2.8067 0
M  V30 88 H -2.7045 1.0507 -2.2083 0
M  V30 89 H -1.1312 2.7691 -0.7573 0
M  V30 90 H 1.2354 0.9079 0.6592 0
M  V30 91 H 0.0674 0.4752 1.8746 0
M  V30 92 H -6.0959 2.0451 4.2789 0
M  V30 93 H -5.4236 3.2594 3.1136 0
M  V30 94 H -6.4004 1.8724 2.5023 0
M  V30 95 H -4.7476 2.4569 -1.9469 0
M  V30 96 H -4.7219 5.1932 1.4021 0
M  V30 97 H 4.5825 -2.5936 0.3716 0
M  V30 98 H -6.6094 3.7131 -2.942 0
M  V30 99 H -6.5774 6.4417 0.3735 0
M  V30 100 H 4.9867 -1.8037 3.0824 0
M  V30 101 H 4.581 0.2083 1.6308 0
M  V30 102 H -7.538 5.7059 -1.7904 0
M  V30 103 H 6.9964 -1.2635 0.5176 0
M  V30 104 H 5.3664 -1.7655 -1.5682 0
M  V30 105 H 3.9619 1.9381 0.1685 0
M  V30 106 H 4.8474 -0.8964 -3.8069 0
M  V30 107 H 3.5138 2.8077 -2.094 0
M  V30 108 H 8.789 -1.6314 1.845 0
M  V30 109 H 8.913 2.6979 1.8274 0
M  V30 110 H 3.9236 1.3849 -4.082 0
M  V30 111 H 11.2159 -1.6807 2.2252 0
M  V30 112 H 11.3381 2.6098 2.2278 0
M  V30 113 H 12.505 0.4309 2.416 0
M  V30 END ATOM
M  V30 BEGIN BOND
M  V30 1 2 1 2
M  V30 2 1 2 3
M  V30 3 1 2 4
M  V30 4 1 3 5
M  V30 5 1 3 6
M  V30 6 1 3 7
M  V30 7 1 4 8
M  V30 8 1 4 9
M  V30 9 1 5 10
M  V30 10 1 5 11
M  V30 11 1 6 12
M  V30 12 1 6 13
M  V30 13 1 8 14
M  V30 14 2 9 15
M  V30 15 1 9 16
M  V30 16 1 10 17
M  V30 17 1 10 18
M  V30 18 1 10 19
M  V30 19 1 11 20
M  V30 20 1 11 21
M  V30 21 2 14 22
M  V30 22 1 14 23
M  V30 23 1 15 24
M  V30 24 1 15 25
M  V30 25 1 16 26
M  V30 26 1 16 27
M  V30 27 1 17 28
M  V30 28 1 18 29
M  V30 29 1 20 30
M  V30 30 1 21 31
M  V30 31 1 21 32
M  V30 32 1 24 33
M  V30 33 2 28 34
M  V30 34 1 28 35
M  V30 35 2 30 36
M  V30 36 1 30 37
M  V30 37 1 33 38
M  V30 38 2 37 39
M  V30 39 1 37 40
M  V30 40 2 38 41
M  V30 41 1 38 42
M  V30 42 1 39 43
M  V30 43 2 40 44
M  V30 44 1 42 45
M  V30 45 1 42 46
M  V30 46 2 43 47
M  V30 47 1 46 48
M  V30 48 1 46 49
M  V30 49 1 48 50
M  V30 50 2 49 51
M  V30 51 1 49 52
M  V30 52 2 50 53
M  V30 53 1 50 54
M  V30 54 1 51 55
M  V30 55 2 52 56
M  V30 56 2 54 57
M  V30 57 1 54 58
M  V30 58 2 55 59
M  V30 59 1 57 60
M  V30 60 2 58 61
M  V30 61 2 60 62
M  V30 62 1 13 18
M  V30 63 1 16 21
M  V30 64 1 19 29
M  V30 65 1 24 32
M  V30 66 1 44 47
M  V30 67 1 56 59
M  V30 68 1 61 62
M  V30 69 1 4 63
M  V30 70 1 5 64
M  V30 71 1 6 65
M  V30 72 1 7 66
M  V30 73 1 7 67
M  V30 74 1 7 68
M  V30 75 1 11 69
M  V30 76 1 12 70
M  V30 77 1 13 71
M  V30 78 1 13 72
M  V30 79 1 18 73
M  V30 80 1 19 74
M  V30 81 1 19 75
M  V30 82 1 23 76
M  V30 83 1 23 77
M  V30 84 1 23 78
M  V30 85 1 24 79
M  V30 86 1 25 80
M  V30 87 1 25 81
M  V30 88 1 25 82
M  V30 89 1 26 83
M  V30 90 1 26 84
M  V30 91 1 26 85
M  V30 92 1 27 86
M  V30 93 1 27 87
M  V30 94 1 27 88
M  V30 95 1 31 89
M  V30 96 1 32 90
M  V30 97 1 32 91
M  V30 98 1 35 92
M  V30 99 1 35 93
M  V30 100 1 35 94
M  V30 101 1 39 95
M  V30 102 1 40 96
M  V30 103 1 42 97
M  V30 104 1 43 98
M  V30 105 1 44 99
M  V30 106 1 45 100
M  V30 107 1 46 101
M  V30 108 1 47 102
M  V30 109 1 48 103
M  V30 110 1 51 104
M  V30 111 1 52 105
M  V30 112 1 55 106
M  V30 113 1 56 107
M  V30 114 1 57 108
M  V30 115 1 58 109
M  V30 116 1 59 110
M  V30 117 1 60 111
M  V30 118 1 61 112
M  V30 119 1 62 113
M  V30 END BOND
M  V30 BEGIN COLLECTION
M  V30 MDLV30/STEABS ATOMS=(11 3 4 5 6 10 11 18 21 24 42 46)
M  V30 END COLLECTION
M  V30 END CTAB
M  END
>  <Structure No>
6838

>  <LogS>
-6.33

>  <MMFF94 Energy>
224.63

$$$$
Compound 6839
Actelion Java MolfileCreator 2.0

  0  0  0  0  0  0              0 V3000
M  V30 BEGIN CTAB
M  V30 COUNTS 21 21 0 0 0
M  V30 BEGIN ATOM
M  V30 1 N -0.2328 -1.3979 0.6211 0 CHG=1
M  V30 2 C 1.0235 -1.1511 -0.1125 0
M  V30 3 C -1.4453 -0.963 -0.0971 0
M  V30 4 C 1.669 0.1848 0.2939 0
M  V30 5 C -1.3752 0.4507 -0.7135 0
M  V30 6 C 0.943 1.4107 -0.2704 0
M  V30 7 C -0.5488 1.4653 0.0926 0
M  V30 8 H -0.2104 -0.963 1.573 0
M  V30 9 H -0.3206 -2.4298 0.7763 0
M  V30 10 H 1.7498 -1.9571 0.1371 0
M  V30 11 H 0.8717 -1.1975 -1.2143 0
M  V30 12 H -2.3045 -0.995 0.6098 0
M  V30 13 H -1.6786 -1.6887 -0.9084 0
M  V30 14 H 2.7131 0.1998 -0.0871 0
M  V30 15 H 1.7303 0.2608 1.4015 0
M  V30 16 H -0.9896 0.3837 -1.7544 0
M  V30 17 H -2.4155 0.8344 -0.7996 0
M  V30 18 H 1.0711 1.4466 -1.3745 0
M  V30 19 H 1.4361 2.3188 0.1394 0
M  V30 20 H -0.7003 1.3329 1.1856 0
M  V30 21 H -0.9164 2.4835 -0.1614 0
M  V30 END ATOM
M  V30 BEGIN BOND
M  V30 1 1 1 2
M  V30 2 1 1 3
M  V30 3 1 2 4
M  V30 4 1 3 5
M  V30 5 1 4 6
M  V30 6 1 5 7
M  V30 7 1 6 7
M  V30 8 1 1 8
M  V30 9 1 1 9
M  V30 10 1 2 10
M  V30 11 1 2 11
M  V30 12 1 3 12
M  V30 13 1 3 13
M  V30 14 1 4 14
M  V30 15 1 4 15
M  V30 16 1 5 16
M  V30 17 1 5 17
M  V30 18 1 6 18
M  V30 19 1 6 19
M  V30 20 1 7 20
M  V30 21 1 7 21
M  V30 END BOND
M  V30 END CTAB
M  END
>  <Structure No>
6839

>  <LogS>
-0.49

>  <MMFF94 Energy>
9.2126

$$$$
Compound 6840
Actelion Java MolfileCreator 2.0

  0  0  0  0  0  0              0 V3000
M  V30 BEGIN CTAB
M  V30 COUNTS 26 25 0 0 0
M  V30 BEGIN ATOM
M  V30 1 C 0.7727 -0.0772 -0.0772 0
M  V30 2 C -0.8188 0.0505 0.0963 0
M  V30 3 C 1.3924 1.2106 -0.6824 0
M  V30 4 C 1.4828 -0.3286 1.2797 0
M  V30 5 C 1.1585 -1.2514 -1.016 0
M  V30 6 C -1.496 0.6088 -1.1837 0
M  V30 7 C -1.4786 -1.3215 0.3976 0
M  V30 8 C -1.1977 1.0023 1.2624 0
M  V30 9 H 1.0617 1.3656 -1.7307 0
M  V30 10 H 1.1336 2.1099 -0.0885 0
M  V30 11 H 2.5019 1.1397 -0.7053 0
M  V30 12 H 1.0725 -1.2167 1.8004 0
M  V30 13 H 2.5693 -0.5092 1.1272 0
M  V30 14 H 1.3978 0.5517 1.9509 0
M  V30 15 H 0.6616 -1.1688 -2.0032 0
M  V30 16 H 0.8999 -2.2324 -0.5651 0
M  V30 17 H 2.255 -1.2639 -1.1994 0
M  V30 18 H -1.2464 0.0041 -2.0781 0
M  V30 19 H -2.603 0.5997 -1.0787 0
M  V30 20 H -1.2029 1.6632 -1.3704 0
M  V30 21 H -1.3997 -2.0086 -0.4707 0
M  V30 22 H -1.0255 -1.8101 1.2831 0
M  V30 23 H -2.5634 -1.1983 0.6088 0
M  V30 24 H -2.2987 1.1526 1.3053 0
M  V30 25 H -0.7347 2.0022 1.1442 0
M  V30 26 H -0.8958 0.5808 2.2441 0
M  V30 END ATOM
M  V30 BEGIN BOND
M  V30 1 1 1 2
M  V30 2 1 1 3
M  V30 3 1 1 4
M  V30 4 1 1 5
M  V30 5 1 2 6
M  V30 6 1 2 7
M  V30 7 1 2 8
M  V30 8 1 3 9
M  V30 9 1 3 10
M  V30 10 1 3 11
M  V30 11 1 4 12
M  V30 12 1 4 13
M  V30 13 1 4 14
M  V30 14 1 5 15
M  V30 15 1 5 16
M  V30 16 1 5 17
M  V30 17 1 6 18
M  V30 18 1 6 19
M  V30 19 1 6 20
M  V30 20 1 7 21
M  V30 21 1 7 22
M  V30 22 1 7 23
M  V30 23 1 8 24
M  V30 24 1 8 25
M  V30 25 1 8 26
M  V30 END BOND
M  V30 END CTAB
M  END
>  <Structure No>
6840

>  <LogS>
-4.87

>  <MMFF94 Energy>
29.763

$$$$
Compound 6841
Actelion Java MolfileCreator 2.0

  0  0  0  0  0  0              0 V3000
M  V30 BEGIN CTAB
M  V30 COUNTS 23 23 0 0 0
M  V30 BEGIN ATOM
M  V30 1 N -0.5426 1.0855 -0.6201 0 CHG=1
M  V30 2 C -1.3634 0.2613 0.2866 0 CFG=2
M  V30 3 C 0.8641 1.0972 -0.1937 0
M  V30 4 C -0.7978 -1.1687 0.3658 0
M  V30 5 C -2.8228 0.2357 -0.1846 0
M  V30 6 C 1.4209 -0.3375 -0.1064 0 CFG=2
M  V30 7 N 0.599 -1.1378 0.8147 0
M  V30 8 C 2.872 -0.3128 0.3822 0
M  V30 9 H -0.6037 0.7186 -1.5998 0
M  V30 10 H -0.8981 2.0705 -0.6119 0
M  V30 11 H -1.3457 0.7063 1.3085 0
M  V30 12 H 1.4632 1.6832 -0.9259 0
M  V30 13 H 0.953 1.6009 0.796 0
M  V30 14 H -0.8724 -1.6704 -0.6263 0
M  V30 15 H -1.3948 -1.7599 1.0942 0
M  V30 16 H -2.8988 -0.2079 -1.2004 0
M  V30 17 H -3.442 -0.3626 0.5171 0
M  V30 18 H -3.2306 1.2685 -0.2141 0
M  V30 19 H 1.407 -0.7953 -1.1227 0
M  V30 20 H 0.9518 -2.1238 0.799 0
M  V30 21 H 2.9312 0.1179 1.4049 0
M  V30 22 H 3.4987 0.2954 -0.3043 0
M  V30 23 H 3.2828 -1.3445 0.4051 0
M  V30 END ATOM
M  V30 BEGIN BOND
M  V30 1 1 1 2
M  V30 2 1 1 3
M  V30 3 1 2 4
M  V30 4 1 2 5
M  V30 5 1 3 6
M  V30 6 1 4 7
M  V30 7 1 6 8
M  V30 8 1 6 7
M  V30 9 1 1 9
M  V30 10 1 1 10
M  V30 11 1 2 11
M  V30 12 1 3 12
M  V30 13 1 3 13
M  V30 14 1 4 14
M  V30 15 1 4 15
M  V30 16 1 5 16
M  V30 17 1 5 17
M  V30 18 1 5 18
M  V30 19 1 6 19
M  V30 20 1 7 20
M  V30 21 1 8 21
M  V30 22 1 8 22
M  V30 23 1 8 23
M  V30 END BOND
M  V30 BEGIN COLLECTION
M  V30 MDLV30/STEABS ATOMS=(2 2 6)
M  V30 END COLLECTION
M  V30 END CTAB
M  END
>  <Structure No>
6841

>  <LogS>
0.49

>  <MMFF94 Energy>
86.55

$$$$
Compound 6842
Actelion Java MolfileCreator 2.0

  0  0  0  0  0  0              0 V3000
M  V30 BEGIN CTAB
M  V30 COUNTS 19 18 0 0 0
M  V30 BEGIN ATOM
M  V30 1 O -2.2482 -0.3098 1.7052 0
M  V30 2 C -1.8096 0.4416 0.793 0
M  V30 3 O -2.4426 1.6581 0.5609 0 CHG=-1
M  V30 4 C -0.5618 0.0592 0.0152 0 CFG=1
M  V30 5 N -0.4809 0.8672 -1.2176 0 CHG=1
M  V30 6 C 0.664 0.3322 0.9353 0
M  V30 7 C -0.65 -1.4381 -0.3613 0
M  V30 8 C 2.0287 0.0509 0.2985 0
M  V30 9 H 0.2952 0.5352 -1.8339 0
M  V30 10 H -1.3712 0.7881 -1.7627 0
M  V30 11 H -0.3163 1.8752 -0.9891 0
M  V30 12 H 0.5809 -0.2852 1.8573 0
M  V30 13 H 0.6517 1.3975 1.2571 0
M  V30 14 H -0.6033 -2.0797 0.5448 0
M  V30 15 H 0.1775 -1.7307 -1.0404 0
M  V30 16 H -1.6047 -1.6461 -0.8912 0
M  V30 17 H 2.8259 0.2553 1.0439 0
M  V30 18 H 2.2056 0.7126 -0.5739 0
M  V30 19 H 2.1167 -1.0108 -0.0085 0
M  V30 END ATOM
M  V30 BEGIN BOND
M  V30 1 2 1 2
M  V30 2 1 2 3
M  V30 3 1 2 4
M  V30 4 1 4 5
M  V30 5 1 4 6
M  V30 6 1 4 7
M  V30 7 1 6 8
M  V30 8 1 5 9
M  V30 9 1 5 10
M  V30 10 1 5 11
M  V30 11 1 6 12
M  V30 12 1 6 13
M  V30 13 1 7 14
M  V30 14 1 7 15
M  V30 15 1 7 16
M  V30 16 1 8 17
M  V30 17 1 8 18
M  V30 18 1 8 19
M  V30 END BOND
M  V30 BEGIN COLLECTION
M  V30 MDLV30/STEABS ATOMS=(1 4)
M  V30 END COLLECTION
M  V30 END CTAB
M  END
>  <Structure No>
6842

>  <LogS>
0.38

>  <MMFF94 Energy>
-0.55796

$$$$
Compound 6843
Actelion Java MolfileCreator 2.0

  0  0  0  0  0  0              0 V3000
M  V30 BEGIN CTAB
M  V30 COUNTS 22 21 0 0 0
M  V30 BEGIN ATOM
M  V30 1 O 0.1542 -2.0839 -0.9257 0
M  V30 2 C 0.0611 -1.1671 -0.1224 0
M  V30 3 C 1.3144 -0.5403 0.4304 0
M  V30 4 C -1.3043 -0.6999 0.3093 0
M  V30 5 C 2.0629 0.2259 -0.665 0
M  V30 6 C -2.0362 -0.0239 -0.8546 0
M  V30 7 C 3.3301 0.8754 -0.1164 0
M  V30 8 C -3.418 0.4641 -0.4285 0
M  V30 9 H 1.0661 0.1567 1.2599 0
M  V30 10 H 1.9647 -1.3417 0.8438 0
M  V30 11 H -1.2197 0.0174 1.1542 0
M  V30 12 H -1.8879 -1.5765 0.6656 0
M  V30 13 H 2.343 -0.4688 -1.4868 0
M  V30 14 H 1.4037 1.0183 -1.083 0
M  V30 15 H -1.4424 0.8447 -1.2145 0
M  V30 16 H -2.1535 -0.7428 -1.6948 0
M  V30 17 H 4.0159 0.1013 0.2888 0
M  V30 18 H 3.0762 1.5986 0.6878 0
M  V30 19 H 3.8514 1.4201 -0.9317 0
M  V30 20 H -3.3287 1.2083 0.3916 0
M  V30 21 H -3.9242 0.9462 -1.2913 0
M  V30 22 H -4.0393 -0.3897 -0.0836 0
M  V30 END ATOM
M  V30 BEGIN BOND
M  V30 1 2 1 2
M  V30 2 1 2 3
M  V30 3 1 2 4
M  V30 4 1 3 5
M  V30 5 1 4 6
M  V30 6 1 5 7
M  V30 7 1 6 8
M  V30 8 1 3 9
M  V30 9 1 3 10
M  V30 10 1 4 11
M  V30 11 1 4 12
M  V30 12 1 5 13
M  V30 13 1 5 14
M  V30 14 1 6 15
M  V30 15 1 6 16
M  V30 16 1 7 17
M  V30 17 1 7 18
M  V30 18 1 7 19
M  V30 19 1 8 20
M  V30 20 1 8 21
M  V30 21 1 8 22
M  V30 END BOND
M  V30 END CTAB
M  END
>  <Structure No>
6843

>  <LogS>
-1.48

>  <MMFF94 Energy>
-0.4636

$$$$
Compound 6844
Actelion Java MolfileCreator 2.0

  0  0  0  0  0  0              0 V3000
M  V30 BEGIN CTAB
M  V30 COUNTS 23 23 0 0 0
M  V30 BEGIN ATOM
M  V30 1 O 1.0264 2.449 -0.0789 0
M  V30 2 C 0.4817 1.2182 0.3229 0
M  V30 3 C -0.9804 1.1089 -0.1645 0 CFG=1
M  V30 4 C 1.3467 0.0689 -0.2381 0 CFG=1
M  V30 5 O -1.0338 1.3251 -1.5527 0
M  V30 6 C -1.5836 -0.2677 0.1844 0 CFG=2
M  V30 7 O 2.6457 0.1518 0.2908 0
M  V30 8 C 0.7456 -1.2987 0.1327 0 CFG=1
M  V30 9 O -1.7184 -0.3817 1.5786 0
M  V30 10 C -0.707 -1.409 -0.3639 0
M  V30 11 O 1.5209 -2.3147 -0.4486 0
M  V30 12 H 0.6268 3.1446 0.5064 0
M  V30 13 H 0.4985 1.1553 1.4373 0
M  V30 14 H -1.575 1.8982 0.3533 0
M  V30 15 H 1.3877 0.1457 -1.3515 0
M  V30 16 H -1.9777 1.5394 -1.7747 0
M  V30 17 H -2.5924 -0.3359 -0.2862 0
M  V30 18 H 3.1323 0.8347 -0.2406 0
M  V30 19 H 0.7633 -1.4067 1.2436 0
M  V30 20 H -2.3398 -1.1377 1.7467 0
M  V30 21 H -1.1338 -2.3852 -0.0464 0
M  V30 22 H -0.7231 -1.3855 -1.476 0
M  V30 23 H 1.2853 -3.1585 0.019 0
M  V30 END ATOM
M  V30 BEGIN BOND
M  V30 1 1 1 2
M  V30 2 1 2 3
M  V30 3 1 2 4
M  V30 4 1 3 5
M  V30 5 1 3 6
M  V30 6 1 4 7
M  V30 7 1 4 8
M  V30 8 1 6 9
M  V30 9 1 6 10
M  V30 10 1 8 11
M  V30 11 1 8 10
M  V30 12 1 1 12
M  V30 13 1 2 13
M  V30 14 1 3 14
M  V30 15 1 4 15
M  V30 16 1 5 16
M  V30 17 1 6 17
M  V30 18 1 7 18
M  V30 19 1 8 19
M  V30 20 1 9 20
M  V30 21 1 10 21
M  V30 22 1 10 22
M  V30 23 1 11 23
M  V30 END BOND
M  V30 BEGIN COLLECTION
M  V30 MDLV30/STEABS ATOMS=(4 3 4 6 8)
M  V30 END COLLECTION
M  V30 END CTAB
M  END
>  <Structure No>
6844

>  <LogS>
-0.17

>  <MMFF94 Energy>
77.83

$$$$
Compound 6845
Actelion Java MolfileCreator 2.0

  0  0  0  0  0  0              0 V3000
M  V30 BEGIN CTAB
M  V30 COUNTS 39 38 0 0 0
M  V30 BEGIN ATOM
M  V30 1 O -2.8546 1.5422 2.0052 0
M  V30 2 C -3.0177 1.7109 0.621 0
M  V30 3 C -2.8533 0.3765 -0.1498 0 CFG=1
M  V30 4 N -1.4312 -3.0E-4 -0.3417 0 CHG=1
M  V30 5 C -3.6941 -0.7859 0.4415 0
M  V30 6 C -0.6815 -0.2427 0.9067 0
M  V30 7 C -5.1976 -0.5678 0.267 0
M  V30 8 C 0.7193 -0.7992 0.6167 0
M  V30 9 N 1.5101 0.1728 -0.1515 0
M  V30 10 C 2.8038 -0.3789 -0.6004 0 CFG=1
M  V30 11 C 3.223 0.3432 -1.8948 0
M  V30 12 C 3.8809 -0.2701 0.5111 0
M  V30 13 O 3.5367 1.6894 -1.6519 0
M  V30 14 C 5.182 -0.9884 0.1521 0
M  V30 15 H -3.7557 1.3774 2.3872 0
M  V30 16 H -2.2626 2.4419 0.2622 0
M  V30 17 H -4.014 2.1577 0.3959 0
M  V30 18 H -3.2611 0.5695 -1.1693 0
M  V30 19 H -0.9569 0.7638 -0.8781 0
M  V30 20 H -1.395 -0.8605 -0.9382 0
M  V30 21 H -3.4266 -1.732 -0.0767 0
M  V30 22 H -3.4807 -0.9258 1.5217 0
M  V30 23 H -1.2095 -0.9812 1.5452 0
M  V30 24 H -0.5668 0.7016 1.4805 0
M  V30 25 H -5.5352 0.321 0.8392 0
M  V30 26 H -5.449 -0.4327 -0.8062 0
M  V30 27 H -5.7463 -1.4548 0.6477 0
M  V30 28 H 0.6126 -1.7506 0.0504 0
M  V30 29 H 1.2168 -1.0231 1.585 0
M  V30 30 H 1.6705 1.0243 0.4377 0
M  V30 31 H 2.683 -1.4537 -0.868 0
M  V30 32 H 2.4062 0.2647 -2.649 0
M  V30 33 H 4.1087 -0.1554 -2.3396 0
M  V30 34 H 3.4943 -0.7295 1.4445 0
M  V30 35 H 4.1022 0.7958 0.7353 0
M  V30 36 H 2.6765 2.1844 -1.6266 0
M  V30 37 H 4.9778 -2.0387 -0.1454 0
M  V30 38 H 5.8545 -0.9968 1.0357 0
M  V30 39 H 5.707 -0.4633 -0.6721 0
M  V30 END ATOM
M  V30 BEGIN BOND
M  V30 1 1 1 2
M  V30 2 1 2 3
M  V30 3 1 3 4
M  V30 4 1 3 5
M  V30 5 1 4 6
M  V30 6 1 5 7
M  V30 7 1 6 8
M  V30 8 1 8 9
M  V30 9 1 9 10
M  V30 10 1 10 11
M  V30 11 1 10 12
M  V30 12 1 11 13
M  V30 13 1 12 14
M  V30 14 1 1 15
M  V30 15 1 2 16
M  V30 16 1 2 17
M  V30 17 1 3 18
M  V30 18 1 4 19
M  V30 19 1 4 20
M  V30 20 1 5 21
M  V30 21 1 5 22
M  V30 22 1 6 23
M  V30 23 1 6 24
M  V30 24 1 7 25
M  V30 25 1 7 26
M  V30 26 1 7 27
M  V30 27 1 8 28
M  V30 28 1 8 29
M  V30 29 1 9 30
M  V30 30 1 10 31
M  V30 31 1 11 32
M  V30 32 1 11 33
M  V30 33 1 12 34
M  V30 34 1 12 35
M  V30 35 1 13 36
M  V30 36 1 14 37
M  V30 37 1 14 38
M  V30 38 1 14 39
M  V30 END BOND
M  V30 BEGIN COLLECTION
M  V30 MDLV30/STEABS ATOMS=(2 3 10)
M  V30 END COLLECTION
M  V30 END CTAB
M  END
>  <Structure No>
6845

>  <LogS>
0.57

>  <MMFF94 Energy>
58.042

$$$$
Compound 6846
Actelion Java MolfileCreator 2.0

  0  0  0  0  0  0              0 V3000
M  V30 BEGIN CTAB
M  V30 COUNTS 29 31 0 0 0
M  V30 BEGIN ATOM
M  V30 1 N 2.6545 0.0 -0.4018 0 CHG=1
M  V30 2 C 1.1975 -0.02 -0.2001 0
M  V30 3 C 0.7756 1.1268 0.7604 0
M  V30 4 C 0.7628 -1.3781 0.4182 0
M  V30 5 C 0.4676 0.1694 -1.5591 0
M  V30 6 C -0.7546 1.1038 0.9709 0 CFG=1
M  V30 7 C -0.7674 -1.397 0.6292 0 CFG=2
M  V30 8 C -1.062 0.1479 -1.3448 0 CFG=1
M  V30 9 C -1.1692 -0.2515 1.5843 0
M  V30 10 C -1.4636 1.2921 -0.3881 0
M  V30 11 C -1.4764 -1.2066 -0.7296 0
M  V30 12 H 2.9424 -0.7707 -1.048 0
M  V30 13 H 2.9509 0.913 -0.818 0
M  V30 14 H 3.1494 -0.1271 0.5112 0
M  V30 15 H 1.2883 1.0144 1.7415 0
M  V30 16 H 1.079 2.1112 0.3401 0
M  V30 17 H 1.2752 -1.538 1.3928 0
M  V30 18 H 1.057 -2.2166 -0.2511 0
M  V30 19 H 0.7562 -0.6396 -2.266 0
M  V30 20 H 0.7653 1.1356 -2.0235 0
M  V30 21 H -1.047 1.9269 1.6586 0
M  V30 22 H -1.069 -2.3713 1.0715 0
M  V30 23 H -1.5754 0.2841 -2.3215 0
M  V30 24 H -2.2677 -0.2696 1.758 0
M  V30 25 H -0.6756 -0.3888 2.5716 0
M  V30 26 H -2.5665 1.2968 -0.2437 0
M  V30 27 H -1.1834 2.2734 -0.8304 0
M  V30 28 H -1.2054 -2.0361 -1.4191 0
M  V30 29 H -2.5794 -1.2388 -0.5901 0
M  V30 END ATOM
M  V30 BEGIN BOND
M  V30 1 1 1 2
M  V30 2 1 2 3
M  V30 3 1 2 4
M  V30 4 1 2 5
M  V30 5 1 3 6
M  V30 6 1 4 7
M  V30 7 1 5 8
M  V30 8 1 6 9
M  V30 9 1 6 10
M  V30 10 1 7 11
M  V30 11 1 7 9
M  V30 12 1 8 10
M  V30 13 1 8 11
M  V30 14 1 1 12
M  V30 15 1 1 13
M  V30 16 1 1 14
M  V30 17 1 3 15
M  V30 18 1 3 16
M  V30 19 1 4 17
M  V30 20 1 4 18
M  V30 21 1 5 19
M  V30 22 1 5 20
M  V30 23 1 6 21
M  V30 24 1 7 22
M  V30 25 1 8 23
M  V30 26 1 9 24
M  V30 27 1 9 25
M  V30 28 1 10 26
M  V30 29 1 10 27
M  V30 30 1 11 28
M  V30 31 1 11 29
M  V30 END BOND
M  V30 BEGIN COLLECTION
M  V30 MDLV30/STEABS ATOMS=(3 6 7 8)
M  V30 END COLLECTION
M  V30 END CTAB
M  END
>  <Structure No>
6846

>  <LogS>
-1.85

>  <MMFF94 Energy>
26.28

$$$$
Compound 6847
Actelion Java MolfileCreator 2.0

  0  0  0  0  0  0              0 V3000
M  V30 BEGIN CTAB
M  V30 COUNTS 13 12 0 0 0
M  V30 BEGIN ATOM
M  V30 1 O -1.0786 1.9267 0.7703 0
M  V30 2 N -0.0303 1.099 0.4173 0
M  V30 3 C -0.1676 -0.1023 -0.0666 0
M  V30 4 C 1.0279 -0.91 -0.4139 0
M  V30 5 C -1.5307 -0.7005 -0.2858 0
M  V30 6 N 2.2521 -0.4977 -0.2677 0
M  V30 7 O 2.5802 0.7429 0.2291 0
M  V30 8 H -2.0487 1.6531 0.6759 0
M  V30 9 H 0.8776 -1.9041 -0.8139 0
M  V30 10 H -2.0763 -0.7582 0.6794 0
M  V30 11 H -2.1048 -0.0771 -1.003 0
M  V30 12 H -1.4616 -1.7272 -0.7026 0
M  V30 13 H 3.5518 1.0105 0.321 0
M  V30 END ATOM
M  V30 BEGIN BOND
M  V30 1 1 1 2
M  V30 2 2 2 3
M  V30 3 1 3 4
M  V30 4 1 3 5
M  V30 5 2 4 6
M  V30 6 1 6 7
M  V30 7 1 1 8
M  V30 8 1 4 9
M  V30 9 1 5 10
M  V30 10 1 5 11
M  V30 11 1 5 12
M  V30 12 1 7 13
M  V30 END BOND
M  V30 END CTAB
M  END
>  <Structure No>
6847

>  <LogS>
-0.35

>  <MMFF94 Energy>
60.903

$$$$
Compound 6848
Actelion Java MolfileCreator 2.0

  0  0  0  0  0  0              0 V3000
M  V30 BEGIN CTAB
M  V30 COUNTS 19 18 0 0 0
M  V30 BEGIN ATOM
M  V30 1 O -0.6188 -2.0897 -0.9283 0
M  V30 2 C -0.5327 -1.5918 0.2258 0
M  V30 3 O -0.1132 -2.3874 1.2848 0 CHG=-1
M  V30 4 C -0.9182 -0.1564 0.4714 0 CFG=2
M  V30 5 N -2.3647 0.0048 0.2784 0 CHG=1
M  V30 6 C -0.139 0.815 -0.4501 0
M  V30 7 C 1.3192 1.0564 -0.0162 0
M  V30 8 C 2.2562 -0.0985 -0.3676 0
M  V30 9 H -0.6825 0.0942 1.5306 0
M  V30 10 H -2.6247 -0.1708 -0.7199 0
M  V30 11 H -2.8837 -0.6651 0.8922 0
M  V30 12 H -2.6533 0.9751 0.5423 0
M  V30 13 H -0.1776 0.4733 -1.5078 0
M  V30 14 H -0.6477 1.8037 -0.422 0
M  V30 15 H 1.689 1.9643 -0.5409 0
M  V30 16 H 1.371 1.2621 1.0747 0
M  V30 17 H 2.0715 -0.9696 0.2921 0
M  V30 18 H 3.3083 0.2227 -0.2165 0
M  V30 19 H 2.129 -0.3984 -1.4294 0
M  V30 END ATOM
M  V30 BEGIN BOND
M  V30 1 2 1 2
M  V30 2 1 2 3
M  V30 3 1 2 4
M  V30 4 1 4 5
M  V30 5 1 4 6
M  V30 6 1 6 7
M  V30 7 1 7 8
M  V30 8 1 4 9
M  V30 9 1 5 10
M  V30 10 1 5 11
M  V30 11 1 5 12
M  V30 12 1 6 13
M  V30 13 1 6 14
M  V30 14 1 7 15
M  V30 15 1 7 16
M  V30 16 1 8 17
M  V30 17 1 8 18
M  V30 18 1 8 19
M  V30 END BOND
M  V30 BEGIN COLLECTION
M  V30 MDLV30/STEABS ATOMS=(1 4)
M  V30 END COLLECTION
M  V30 END CTAB
M  END
>  <Structure No>
6848

>  <LogS>
-0.11

>  <MMFF94 Energy>
-9.7448

$$$$
Compound 6849
Actelion Java MolfileCreator 2.0

  0  0  0  0  0  0              0 V3000
M  V30 BEGIN CTAB
M  V30 COUNTS 16 15 0 0 0
M  V30 BEGIN ATOM
M  V30 1 O -2.5548 -0.1546 -1.6252 0
M  V30 2 N -1.2123 -0.0869 -1.305 0
M  V30 3 C -0.7377 -0.0627 -0.0915 0
M  V30 4 C 0.7339 0.047 0.1042 0
M  V30 5 C -1.6669 -0.11 1.0974 0
M  V30 6 N 1.1928 0.332 1.2904 0
M  V30 7 C 1.677 -0.1339 -1.0606 0
M  V30 8 O 2.5296 0.4931 1.6006 0
M  V30 9 H -3.2863 -0.1667 -0.9254 0
M  V30 10 H -2.3181 -1.0068 1.0315 0
M  V30 11 H -1.1177 -0.1762 2.0588 0
M  V30 12 H -2.295 0.8053 1.1177 0
M  V30 13 H 2.1912 0.8256 -1.2779 0
M  V30 14 H 1.1518 -0.4632 -1.9803 0
M  V30 15 H 2.4298 -0.9131 -0.8183 0
M  V30 16 H 3.2658 0.4239 0.9096 0
M  V30 END ATOM
M  V30 BEGIN BOND
M  V30 1 1 1 2
M  V30 2 2 2 3
M  V30 3 1 3 4
M  V30 4 1 3 5
M  V30 5 2 4 6
M  V30 6 1 4 7
M  V30 7 1 6 8
M  V30 8 1 1 9
M  V30 9 1 5 10
M  V30 10 1 5 11
M  V30 11 1 5 12
M  V30 12 1 7 13
M  V30 13 1 7 14
M  V30 14 1 7 15
M  V30 15 1 8 16
M  V30 END BOND
M  V30 END CTAB
M  END
>  <Structure No>
6849

>  <LogS>
-2.16

>  <MMFF94 Energy>
63.17

$$$$
Compound 6850
Actelion Java MolfileCreator 2.0

  0  0  0  0  0  0              0 V3000
M  V30 BEGIN CTAB
M  V30 COUNTS 15 14 0 0 0
M  V30 BEGIN ATOM
M  V30 1 O -1.9349 -2.0963 0.564 0
M  V30 2 C -1.4196 -1.2315 -0.1923 0
M  V30 3 O -1.8326 -1.1473 -1.517 0 CHG=-1
M  V30 4 C -0.3668 -0.2965 0.3358 0 CFG=1
M  V30 5 C 0.9454 -0.4884 -0.4481 0
M  V30 6 C -0.8736 1.1497 0.2575 0
M  V30 7 C 2.0832 0.254 0.1841 0
M  V30 8 O 2.4762 1.3469 -0.302 0
M  V30 9 O 2.6885 -0.2464 1.3299 0 CHG=-1
M  V30 10 H -0.1824 -0.5414 1.4066 0
M  V30 11 H 1.2106 -1.568 -0.4683 0
M  V30 12 H 0.8174 -0.1555 -1.5021 0
M  V30 13 H -1.8381 1.2464 0.8009 0
M  V30 14 H -0.1459 1.8413 0.7319 0
M  V30 15 H -1.0251 1.4585 -0.7992 0
M  V30 END ATOM
M  V30 BEGIN BOND
M  V30 1 2 1 2
M  V30 2 1 2 3
M  V30 3 1 2 4
M  V30 4 1 4 5
M  V30 5 1 4 6
M  V30 6 1 5 7
M  V30 7 2 7 8
M  V30 8 1 7 9
M  V30 9 1 4 10
M  V30 10 1 5 11
M  V30 11 1 5 12
M  V30 12 1 6 13
M  V30 13 1 6 14
M  V30 14 1 6 15
M  V30 END BOND
M  V30 BEGIN COLLECTION
M  V30 MDLV30/STEABS ATOMS=(1 4)
M  V30 END COLLECTION
M  V30 END CTAB
M  END
>  <Structure No>
6850

>  <LogS>
0.48

>  <MMFF94 Energy>
65.862

$$$$
Compound 6851
Actelion Java MolfileCreator 2.0

  0  0  0  0  0  0              0 V3000
M  V30 BEGIN CTAB
M  V30 COUNTS 46 45 0 0 0
M  V30 BEGIN ATOM
M  V30 1 O -7.8511 -0.548 1.0962 0
M  V30 2 C -7.0454 -1.3842 0.6094 0
M  V30 3 O -6.896 -2.627 1.2118 0 CHG=-1
M  V30 4 C -6.2274 -1.0296 -0.5944 0
M  V30 5 C -5.0543 -0.1066 -0.2373 0
M  V30 6 C -3.976 -0.8314 0.5871 0
M  V30 7 C -2.8314 0.1008 1.0166 0
M  V30 8 C -1.899 0.4694 -0.1508 0
M  V30 9 C -0.7267 1.3616 0.2905 0
M  V30 10 C 0.3897 0.5658 0.9885 0
M  V30 11 C 1.5287 1.4636 1.5049 0
M  V30 12 C 2.2847 2.2565 0.419 0
M  V30 13 C 2.8778 1.4058 -0.7184 0
M  V30 14 C 3.911 0.3833 -0.2231 0
M  V30 15 C 4.5762 -0.3398 -1.4035 0
M  V30 16 C 5.6868 -1.3027 -0.9559 0
M  V30 17 C 5.144 -2.544 -0.2479 0
M  V30 18 H -6.8819 -0.5127 -1.3292 0
M  V30 19 H -5.849 -1.9558 -1.079 0
M  V30 20 H -5.432 0.7781 0.3213 0
M  V30 21 H -4.6105 0.2557 -1.1881 0
M  V30 22 H -3.5676 -1.6887 0.0083 0
M  V30 23 H -4.4414 -1.2411 1.5096 0
M  V30 24 H -2.2487 -0.4265 1.8002 0
M  V30 25 H -3.2498 1.0237 1.4749 0
M  V30 26 H -2.4789 1.0323 -0.912 0
M  V30 27 H -1.5102 -0.4519 -0.6373 0
M  V30 28 H -1.0957 2.1714 0.9576 0
M  V30 29 H -0.31 1.8392 -0.6214 0
M  V30 30 H -0.03 0.033 1.8666 0
M  V30 31 H 0.7916 -0.21 0.3036 0
M  V30 32 H 1.1078 2.1879 2.2362 0
M  V30 33 H 2.2503 0.8358 2.0696 0
M  V30 34 H 1.6064 3.0186 -0.0201 0
M  V30 35 H 3.1086 2.8197 0.9093 0
M  V30 36 H 3.3728 2.0998 -1.4327 0
M  V30 37 H 2.0679 0.8909 -1.2773 0
M  V30 38 H 3.4034 -0.3638 0.4208 0
M  V30 39 H 4.6885 0.9052 0.3769 0
M  V30 40 H 3.8097 -0.8945 -1.9884 0
M  V30 41 H 5.032 0.4173 -2.0784 0
M  V30 42 H 6.2471 -1.6341 -1.8569 0
M  V30 43 H 6.4042 -0.7768 -0.2891 0
M  V30 44 H 5.9764 -3.2545 -0.0604 0
M  V30 45 H 4.6943 -2.2749 0.73 0
M  V30 46 H 4.3831 -3.0507 -0.879 0
M  V30 END ATOM
M  V30 BEGIN BOND
M  V30 1 2 1 2
M  V30 2 1 2 3
M  V30 3 1 2 4
M  V30 4 1 4 5
M  V30 5 1 5 6
M  V30 6 1 6 7
M  V30 7 1 7 8
M  V30 8 1 8 9
M  V30 9 1 9 10
M  V30 10 1 10 11
M  V30 11 1 11 12
M  V30 12 1 12 13
M  V30 13 1 13 14
M  V30 14 1 14 15
M  V30 15 1 15 16
M  V30 16 1 16 17
M  V30 17 1 4 18
M  V30 18 1 4 19
M  V30 19 1 5 20
M  V30 20 1 5 21
M  V30 21 1 6 22
M  V30 22 1 6 23
M  V30 23 1 7 24
M  V30 24 1 7 25
M  V30 25 1 8 26
M  V30 26 1 8 27
M  V30 27 1 9 28
M  V30 28 1 9 29
M  V30 29 1 10 30
M  V30 30 1 10 31
M  V30 31 1 11 32
M  V30 32 1 11 33
M  V30 33 1 12 34
M  V30 34 1 12 35
M  V30 35 1 13 36
M  V30 36 1 13 37
M  V30 37 1 14 38
M  V30 38 1 14 39
M  V30 39 1 15 40
M  V30 40 1 15 41
M  V30 41 1 16 42
M  V30 42 1 16 43
M  V30 43 1 17 44
M  V30 44 1 17 45
M  V30 45 1 17 46
M  V30 END BOND
M  V30 END CTAB
M  END
>  <Structure No>
6851

>  <LogS>
-4.31

>  <MMFF94 Energy>
1.2985

$$$$
Compound 6852
Actelion Java MolfileCreator 2.0

  0  0  0  0  0  0              0 V3000
M  V30 BEGIN CTAB
M  V30 COUNTS 17 16 0 0 0
M  V30 BEGIN ATOM
M  V30 1 O -3.2676 1.3216 0.6217 0
M  V30 2 C -2.6961 0.2628 0.9925 0
M  V30 3 O -2.6871 -0.0796 2.3388 0 CHG=-1
M  V30 4 C -2.0003 -0.6038 -0.0071 0
M  V30 5 N -0.7469 0.0164 -0.4282 0
M  V30 6 C 0.4064 0.0766 0.4226 0
M  V30 7 O 0.38 -0.4451 1.5702 0
M  V30 8 C 1.6708 0.7181 -0.0683 0
M  V30 9 N 2.4538 -0.2273 -0.8615 0 CHG=1
M  V30 10 H -2.6619 -0.7374 -0.8901 0
M  V30 11 H -1.8011 -1.6091 0.4227 0
M  V30 12 H -0.6854 0.4091 -1.3947 0
M  V30 13 H 1.419 1.6077 -0.6864 0
M  V30 14 H 2.2741 1.0677 0.7987 0
M  V30 15 H 3.3291 0.2424 -1.1876 0
M  V30 16 H 2.7108 -1.0573 -0.2791 0
M  V30 17 H 1.9044 -0.5371 -1.6962 0
M  V30 END ATOM
M  V30 BEGIN BOND
M  V30 1 2 1 2
M  V30 2 1 2 3
M  V30 3 1 2 4
M  V30 4 1 4 5
M  V30 5 1 5 6
M  V30 6 2 6 7
M  V30 7 1 6 8
M  V30 8 1 8 9
M  V30 9 1 4 10
M  V30 10 1 4 11
M  V30 11 1 5 12
M  V30 12 1 8 13
M  V30 13 1 8 14
M  V30 14 1 9 15
M  V30 15 1 9 16
M  V30 16 1 9 17
M  V30 END BOND
M  V30 END CTAB
M  END
>  <Structure No>
6852

>  <LogS>
0.1

>  <MMFF94 Energy>
-24.076

$$$$
Compound 6853
Actelion Java MolfileCreator 2.0

  0  0  0  0  0  0              0 V3000
M  V30 BEGIN CTAB
M  V30 COUNTS 21 20 0 0 0
M  V30 BEGIN ATOM
M  V30 1 O -2.4004 2.0 0.5597 0
M  V30 2 C -1.5671 1.7286 -0.3445 0
M  V30 3 O -0.8826 2.7578 -0.9778 0 CHG=-1
M  V30 4 C -1.3337 0.3051 -0.7543 0
M  V30 5 C -0.8074 -0.5641 0.4078 0 CFG=2
M  V30 6 C 0.5468 -0.0857 0.9997 0
M  V30 7 C -0.7702 -2.0443 -0.003 0
M  V30 8 C 1.7702 -0.1718 0.0634 0
M  V30 9 C 1.8951 1.0196 -0.836 0
M  V30 10 O 1.8703 0.8762 -2.0867 0
M  V30 11 O 2.0771 2.2858 -0.2936 0 CHG=-1
M  V30 12 H -0.6371 0.2662 -1.616 0
M  V30 13 H -2.304 -0.1064 -1.1079 0
M  V30 14 H -1.5509 -0.4939 1.2338 0
M  V30 15 H 0.4409 0.9493 1.3918 0
M  V30 16 H 0.7625 -0.7167 1.8899 0
M  V30 17 H -0.3203 -2.6617 0.8033 0
M  V30 18 H -0.1927 -2.1892 -0.9395 0
M  V30 19 H -1.8039 -2.4118 -0.1792 0
M  V30 20 H 2.6867 -0.2059 0.6907 0
M  V30 21 H 1.7628 -1.1078 -0.5308 0
M  V30 END ATOM
M  V30 BEGIN BOND
M  V30 1 2 1 2
M  V30 2 1 2 3
M  V30 3 1 2 4
M  V30 4 1 4 5
M  V30 5 1 5 6
M  V30 6 1 5 7
M  V30 7 1 6 8
M  V30 8 1 8 9
M  V30 9 2 9 10
M  V30 10 1 9 11
M  V30 11 1 4 12
M  V30 12 1 4 13
M  V30 13 1 5 14
M  V30 14 1 6 15
M  V30 15 1 6 16
M  V30 16 1 7 17
M  V30 17 1 7 18
M  V30 18 1 7 19
M  V30 19 1 8 20
M  V30 20 1 8 21
M  V30 END BOND
M  V30 BEGIN COLLECTION
M  V30 MDLV30/STEABS ATOMS=(1 5)
M  V30 END COLLECTION
M  V30 END CTAB
M  END
>  <Structure No>
6853

>  <LogS>
0.09

>  <MMFF94 Energy>
53.768

$$$$
Compound 6854
Actelion Java MolfileCreator 2.0

  0  0  0  0  0  0              0 V3000
M  V30 BEGIN CTAB
M  V30 COUNTS 36 36 0 0 0
M  V30 BEGIN ATOM
M  V30 1 O 2.2034 -0.4718 1.9671 0
M  V30 2 C 2.3784 -0.2382 0.7391 0
M  V30 3 N 3.7176 -0.024 0.242 0
M  V30 4 N 1.2393 -0.1884 -0.1406 0
M  V30 5 C 3.9647 0.1898 -1.1873 0
M  V30 6 C 4.8396 -0.0408 1.1865 0
M  V30 7 C -0.1329 -0.4057 0.3338 0
M  V30 8 C -0.7319 0.9574 0.7864 0
M  V30 9 C -0.9169 -1.1671 -0.7614 0
M  V30 10 C -1.4985 1.7674 -0.2759 0
M  V30 11 C -2.2997 -1.7467 -0.3707 0
M  V30 12 C -2.8695 1.2123 -0.7363 0
M  V30 13 C -3.1121 -0.9896 0.6952 0
M  V30 14 C -3.6719 0.3983 0.2956 0
M  V30 15 H 1.3598 0.1556 -1.1188 0
M  V30 16 H 5.0493 0.2714 -1.41 0
M  V30 17 H 3.4772 1.1316 -1.5161 0
M  V30 18 H 3.562 -0.6648 -1.7709 0
M  V30 19 H 5.8097 0.147 0.6806 0
M  V30 20 H 4.6935 0.7476 1.955 0
M  V30 21 H 4.8943 -1.0316 1.6854 0
M  V30 22 H -0.1007 -1.0737 1.2229 0
M  V30 23 H -1.352 0.8474 1.6964 0
M  V30 24 H 0.1056 1.5997 1.1388 0
M  V30 25 H -0.9843 -0.5529 -1.6804 0
M  V30 26 H -0.2914 -2.0328 -1.074 0
M  V30 27 H -1.6731 2.7792 0.1527 0
M  V30 28 H -0.8479 1.9135 -1.165 0
M  V30 29 H -2.135 -2.7752 0.0203 0
M  V30 30 H -2.9174 -1.8575 -1.2882 0
M  V30 31 H -2.7815 0.6433 -1.6819 0
M  V30 32 H -3.4948 2.0884 -1.0168 0
M  V30 33 H -2.5424 -0.9427 1.6432 0
M  V30 34 H -3.9866 -1.6281 0.9505 0
M  V30 35 H -4.6857 0.2414 -0.1349 0
M  V30 36 H -3.8141 1.0098 1.213 0
M  V30 END ATOM
M  V30 BEGIN BOND
M  V30 1 2 1 2
M  V30 2 1 2 3
M  V30 3 1 2 4
M  V30 4 1 3 5
M  V30 5 1 3 6
M  V30 6 1 4 7
M  V30 7 1 7 8
M  V30 8 1 7 9
M  V30 9 1 8 10
M  V30 10 1 9 11
M  V30 11 1 10 12
M  V30 12 1 11 13
M  V30 13 1 12 14
M  V30 14 1 13 14
M  V30 15 1 4 15
M  V30 16 1 5 16
M  V30 17 1 5 17
M  V30 18 1 5 18
M  V30 19 1 6 19
M  V30 20 1 6 20
M  V30 21 1 6 21
M  V30 22 1 7 22
M  V30 23 1 8 23
M  V30 24 1 8 24
M  V30 25 1 9 25
M  V30 26 1 9 26
M  V30 27 1 10 27
M  V30 28 1 10 28
M  V30 29 1 11 29
M  V30 30 1 11 30
M  V30 31 1 12 31
M  V30 32 1 12 32
M  V30 33 1 13 33
M  V30 34 1 13 34
M  V30 35 1 14 35
M  V30 36 1 14 36
M  V30 END BOND
M  V30 END CTAB
M  END
>  <Structure No>
6854

>  <LogS>
-2.26

>  <MMFF94 Energy>
-62.394

$$$$
Compound 6855
Actelion Java MolfileCreator 2.0

  0  0  0  0  0  0              0 V3000
M  V30 BEGIN CTAB
M  V30 COUNTS 21 21 0 0 0
M  V30 BEGIN ATOM
M  V30 1 O 3.2153 -1.7674 -0.4014 0
M  V30 2 C 2.7527 -0.6433 -0.0685 0
M  V30 3 O 3.6255 0.3297 0.404 0 CHG=-1
M  V30 4 C 1.3033 -0.3526 -0.1754 0
M  V30 5 C 0.4417 -1.3263 -0.5339 0
M  V30 6 C 0.8192 1.0215 0.2458 0
M  V30 7 C -1.0387 -1.0899 -0.7288 0 CFG=1
M  V30 8 C -0.6152 1.3434 -0.2136 0 CFG=1
M  V30 9 O -1.7827 -2.2341 -0.3915 0
M  V30 10 C -1.5571 0.153 0.0283 0 CFG=2
M  V30 11 O -1.0999 2.4705 0.469 0
M  V30 12 O -1.736 -0.091 1.4046 0
M  V30 13 H 0.8169 -2.3065 -0.8028 0
M  V30 14 H 1.4993 1.7953 -0.1719 0
M  V30 15 H 0.88 1.0897 1.3536 0
M  V30 16 H -1.1882 -0.9074 -1.8151 0
M  V30 17 H -0.6003 1.5535 -1.3097 0
M  V30 18 H -1.535 -2.497 0.5334 0
M  V30 19 H -2.5529 0.4138 -0.3929 0
M  V30 20 H -0.6274 3.2583 0.0922 0
M  V30 21 H -0.891 -0.4611 1.769 0
M  V30 END ATOM
M  V30 BEGIN BOND
M  V30 1 2 1 2
M  V30 2 1 2 3
M  V30 3 1 2 4
M  V30 4 2 4 5
M  V30 5 1 4 6
M  V30 6 1 5 7
M  V30 7 1 6 8
M  V30 8 1 7 9
M  V30 9 1 7 10
M  V30 10 1 8 11
M  V30 11 1 10 12
M  V30 12 1 8 10
M  V30 13 1 5 13
M  V30 14 1 6 14
M  V30 15 1 6 15
M  V30 16 1 7 16
M  V30 17 1 8 17
M  V30 18 1 9 18
M  V30 19 1 10 19
M  V30 20 1 11 20
M  V30 21 1 12 21
M  V30 END BOND
M  V30 BEGIN COLLECTION
M  V30 MDLV30/STEABS ATOMS=(3 7 8 10)
M  V30 END COLLECTION
M  V30 END CTAB
M  END
>  <Structure No>
6855

>  <LogS>
0.01

>  <MMFF94 Energy>
40.107

$$$$
Compound 6856
Actelion Java MolfileCreator 2.0

  0  0  0  0  0  0              0 V3000
M  V30 BEGIN CTAB
M  V30 COUNTS 26 28 0 0 0
M  V30 BEGIN ATOM
M  V30 1 O -1.6417 2.3811 1.6417 0
M  V30 2 C -1.3875 1.1837 1.3443 0
M  V30 3 O -1.8844 0.1196 2.0658 0
M  V30 4 C -0.4964 0.7648 0.2049 0 CFG=2
M  V30 5 C -1.3906 -1.0376 1.5032 0
M  V30 6 C -0.4985 -0.7874 0.316 0 CFG=2
M  V30 7 C 0.9873 1.0587 0.5518 0 CFG=1
M  V30 8 C -1.0132 1.3845 -1.1124 0
M  V30 9 O -1.648 -2.1798 1.9679 0
M  V30 10 C 0.9844 -1.0327 0.7013 0 CFG=2
M  V30 11 C -1.0171 -1.5866 -0.8999 0
M  V30 12 O 1.2847 0.0753 1.5041 0
M  V30 13 C 1.9397 0.6882 -0.5936 0
M  V30 14 C 1.9376 -0.8314 -0.485 0
M  V30 15 H 1.1607 2.086 0.94 0
M  V30 16 H -0.5177 0.964 -2.0078 0
M  V30 17 H -0.8431 2.4822 -1.104 0
M  V30 18 H -2.1038 1.2 -1.2211 0
M  V30 19 H 1.1553 -1.9946 1.2319 0
M  V30 20 H -0.5208 -1.299 -1.8459 0
M  V30 21 H -0.8501 -2.6723 -0.7354 0
M  V30 22 H -2.1072 -1.4166 -1.034 0
M  V30 23 H 1.6253 1.0508 -1.5912 0
M  V30 24 H 2.9558 1.0857 -0.3774 0
M  V30 25 H 2.9527 -1.1966 -0.2141 0
M  V30 26 H 1.6221 -1.3312 -1.4209 0
M  V30 END ATOM
M  V30 BEGIN BOND
M  V30 1 2 1 2
M  V30 2 1 2 3
M  V30 3 1 2 4
M  V30 4 1 3 5
M  V30 5 1 4 6
M  V30 6 1 4 7
M  V30 7 1 4 8
M  V30 8 2 5 9
M  V30 9 1 6 10
M  V30 10 1 6 11
M  V30 11 1 7 12
M  V30 12 1 7 13
M  V30 13 1 10 14
M  V30 14 1 5 6
M  V30 15 1 10 12
M  V30 16 1 13 14
M  V30 17 1 7 15
M  V30 18 1 8 16
M  V30 19 1 8 17
M  V30 20 1 8 18
M  V30 21 1 10 19
M  V30 22 1 11 20
M  V30 23 1 11 21
M  V30 24 1 11 22
M  V30 25 1 13 23
M  V30 26 1 13 24
M  V30 27 1 14 25
M  V30 28 1 14 26
M  V30 END BOND
M  V30 BEGIN COLLECTION
M  V30 MDLV30/STEABS ATOMS=(4 4 6 7 10)
M  V30 END COLLECTION
M  V30 END CTAB
M  END
>  <Structure No>
6856

>  <LogS>
-3.82

>  <MMFF94 Energy>
-14.094

$$$$
Compound 6857
Actelion Java MolfileCreator 2.0

  0  0  0  0  0  0              0 V3000
M  V30 BEGIN CTAB
M  V30 COUNTS 52 51 0 0 0
M  V30 BEGIN ATOM
M  V30 1 O -8.7196 -0.7831 0.0782 0
M  V30 2 C -7.6197 -0.6055 -0.5079 0
M  V30 3 O -7.4786 0.4481 -1.4021 0 CHG=-1
M  V30 4 C -6.4567 -1.503 -0.2154 0
M  V30 5 C -5.7828 -1.1551 1.1212 0
M  V30 6 C -5.2095 0.2749 1.1971 0
M  V30 7 C -4.1463 0.6111 0.1354 0
M  V30 8 C -2.8968 -0.2806 0.237 0
M  V30 9 C -1.7897 0.1439 -0.742 0
M  V30 10 C -0.9888 1.3559 -0.2351 0
M  V30 11 C 0.0628 1.8413 -1.2489 0
M  V30 12 C 1.1543 0.8121 -1.6088 0
M  V30 13 C 1.9201 0.2169 -0.413 0
M  V30 14 C 2.7073 1.2745 0.379 0
M  V30 15 C 3.4465 0.6861 1.5951 0
M  V30 16 C 4.5328 -0.3522 1.2599 0
M  V30 17 C 5.6441 0.2132 0.3586 0
M  V30 18 C 6.8588 -0.7226 0.2646 0
M  V30 19 C 6.5541 -2.0078 -0.5046 0
M  V30 20 H -6.8214 -2.5517 -0.1663 0
M  V30 21 H -5.7227 -1.4582 -1.0466 0
M  V30 22 H -6.5288 -1.2747 1.9374 0
M  V30 23 H -4.9788 -1.8932 1.3249 0
M  V30 24 H -4.7651 0.4213 2.2058 0
M  V30 25 H -6.0419 1.0061 1.1088 0
M  V30 26 H -4.583 0.5395 -0.8827 0
M  V30 27 H -3.8578 1.6719 0.2865 0
M  V30 28 H -3.1821 -1.3241 -0.0144 0
M  V30 29 H -2.505 -0.2778 1.2779 0
M  V30 30 H -2.2288 0.3636 -1.7399 0
M  V30 31 H -1.0992 -0.7179 -0.8594 0
M  V30 32 H -1.6796 2.204 -0.0483 0
M  V30 33 H -0.5052 1.1167 0.7354 0
M  V30 34 H 0.541 2.7631 -0.8551 0
M  V30 35 H -0.4571 2.1388 -2.1856 0
M  V30 36 H 1.8834 1.3012 -2.291 0
M  V30 37 H 0.6964 -0.0182 -2.1873 0
M  V30 38 H 1.2255 -0.3296 0.2589 0
M  V30 39 H 2.63 -0.5299 -0.8257 0
M  V30 40 H 3.4208 1.8006 -0.2897 0
M  V30 41 H 2.002 2.0376 0.7696 0
M  V30 42 H 3.9144 1.5216 2.1606 0
M  V30 43 H 2.7028 0.2142 2.2739 0
M  V30 44 H 4.0699 -1.2438 0.7897 0
M  V30 45 H 4.9822 -0.6881 2.22 0
M  V30 46 H 5.2494 0.4009 -0.663 0
M  V30 47 H 5.9897 1.1846 0.7751 0
M  V30 48 H 7.2274 -0.9759 1.2825 0
M  V30 49 H 7.6759 -0.1851 -0.2636 0
M  V30 50 H 5.8326 -2.6385 0.0547 0
M  V30 51 H 6.1395 -1.7716 -1.5077 0
M  V30 52 H 7.491 -2.5889 -0.6375 0
M  V30 END ATOM
M  V30 BEGIN BOND
M  V30 1 2 1 2
M  V30 2 1 2 3
M  V30 3 1 2 4
M  V30 4 1 4 5
M  V30 5 1 5 6
M  V30 6 1 6 7
M  V30 7 1 7 8
M  V30 8 1 8 9
M  V30 9 1 9 10
M  V30 10 1 10 11
M  V30 11 1 11 12
M  V30 12 1 12 13
M  V30 13 1 13 14
M  V30 14 1 14 15
M  V30 15 1 15 16
M  V30 16 1 16 17
M  V30 17 1 17 18
M  V30 18 1 18 19
M  V30 19 1 4 20
M  V30 20 1 4 21
M  V30 21 1 5 22
M  V30 22 1 5 23
M  V30 23 1 6 24
M  V30 24 1 6 25
M  V30 25 1 7 26
M  V30 26 1 7 27
M  V30 27 1 8 28
M  V30 28 1 8 29
M  V30 29 1 9 30
M  V30 30 1 9 31
M  V30 31 1 10 32
M  V30 32 1 10 33
M  V30 33 1 11 34
M  V30 34 1 11 35
M  V30 35 1 12 36
M  V30 36 1 12 37
M  V30 37 1 13 38
M  V30 38 1 13 39
M  V30 39 1 14 40
M  V30 40 1 14 41
M  V30 41 1 15 42
M  V30 42 1 15 43
M  V30 43 1 16 44
M  V30 44 1 16 45
M  V30 45 1 17 46
M  V30 46 1 17 47
M  V30 47 1 18 48
M  V30 48 1 18 49
M  V30 49 1 19 50
M  V30 50 1 19 51
M  V30 51 1 19 52
M  V30 END BOND
M  V30 END CTAB
M  END
>  <Structure No>
6857

>  <LogS>
-4.69

>  <MMFF94 Energy>
-0.14369

$$$$
Compound 6858
Actelion Java MolfileCreator 2.0

  0  0  0  0  0  0              0 V3000
M  V30 BEGIN CTAB
M  V30 COUNTS 14 13 0 0 0
M  V30 BEGIN ATOM
M  V30 1 O -3.7867 1.1268 -0.2413 0
M  V30 2 C -2.5499 0.9369 -0.1055 0
M  V30 3 O -1.752 2.0079 0.2692 0 CHG=-1
M  V30 4 C -2.0093 -0.4178 -0.3523 0
M  V30 5 C -0.7322 -0.8267 -0.2631 0
M  V30 6 C 0.4369 -2.0E-4 0.1074 0
M  V30 7 C 1.6578 -0.5434 0.1559 0
M  V30 8 C 2.8504 0.238 0.5192 0
M  V30 9 O 3.9759 -0.3241 0.5491 0
M  V30 10 O 2.7549 1.5898 0.8306 0 CHG=-1
M  V30 11 H -2.7367 -1.1684 -0.6397 0
M  V30 12 H -0.546 -1.8714 -0.4873 0
M  V30 13 H 0.3321 1.044 0.3434 0
M  V30 14 H 1.791 -1.5938 -0.0773 0
M  V30 END ATOM
M  V30 BEGIN BOND
M  V30 1 2 1 2
M  V30 2 1 2 3
M  V30 3 1 2 4
M  V30 4 2 4 5
M  V30 5 1 5 6
M  V30 6 2 6 7
M  V30 7 1 7 8
M  V30 8 2 8 9
M  V30 9 1 8 10
M  V30 10 1 4 11
M  V30 11 1 5 12
M  V30 12 1 6 13
M  V30 13 1 7 14
M  V30 END BOND
M  V30 END CTAB
M  END
>  <Structure No>
6858

>  <LogS>
-2.85

>  <MMFF94 Energy>
38.179

$$$$
Compound 6859
Actelion Java MolfileCreator 2.0

  0  0  0  0  0  0              0 V3000
M  V30 BEGIN CTAB
M  V30 COUNTS 11 10 0 0 0
M  V30 BEGIN ATOM
M  V30 1 Cl -2.5522 -0.2732 -0.4554 0
M  V30 2 C -1.0901 0.3561 0.3507 0
M  V30 3 Cl -1.1747 2.1398 0.2952 0
M  V30 4 Cl -1.1318 -0.1655 2.0593 0
M  V30 5 C 0.1751 -0.1611 -0.3707 0 CFG=2
M  V30 6 O 0.2435 -1.5634 -0.2965 0
M  V30 7 C 1.4327 0.4197 0.2152 0
M  V30 8 O 1.9426 -0.0749 1.2555 0
M  V30 9 O 2.0246 1.5298 -0.3748 0 CHG=-1
M  V30 10 H 0.1286 0.1577 -1.4392 0
M  V30 11 H -0.2818 -1.9246 -1.0575 0
M  V30 END ATOM
M  V30 BEGIN BOND
M  V30 1 1 1 2
M  V30 2 1 2 3
M  V30 3 1 2 4
M  V30 4 1 2 5
M  V30 5 1 5 6
M  V30 6 1 5 7
M  V30 7 2 7 8
M  V30 8 1 7 9
M  V30 9 1 5 10
M  V30 10 1 6 11
M  V30 END BOND
M  V30 BEGIN COLLECTION
M  V30 MDLV30/STEABS ATOMS=(1 5)
M  V30 END COLLECTION
M  V30 END CTAB
M  END
>  <Structure No>
6859

>  <LogS>
0.36

>  <MMFF94 Energy>
57.216

$$$$
Compound 6860
Actelion Java MolfileCreator 2.0

  0  0  0  0  0  0              0 V3000
M  V30 BEGIN CTAB
M  V30 COUNTS 55 54 0 0 0
M  V30 BEGIN ATOM
M  V30 1 O 6.9072 -1.5665 3.6844 0
M  V30 2 C 7.2546 -0.624 2.9253 0
M  V30 3 O 7.2187 0.6841 3.3915 0 CHG=-1
M  V30 4 C 7.6714 -0.9072 1.5146 0
M  V30 5 C 6.4628 -1.1533 0.602 0
M  V30 6 C 5.6297 0.1184 0.3845 0
M  V30 7 C 4.463 -0.1456 -0.5745 0
M  V30 8 C 3.6217 1.1231 -0.7793 0
M  V30 9 C 2.5169 0.9384 -1.8314 0
M  V30 10 C 1.3897 0.0125 -1.35 0
M  V30 11 C 0.2315 -0.0113 -2.3583 0
M  V30 12 C -0.8394 -1.0622 -2.0147 0
M  V30 13 C -1.5395 -0.8587 -0.6561 0
M  V30 14 C -2.2301 0.5074 -0.4766 0
M  V30 15 C -3.3013 0.8368 -1.5349 0
M  V30 16 C -4.4477 -0.1886 -1.6448 0
M  V30 17 C -5.2179 -0.4427 -0.3366 0
M  V30 18 C -5.9052 0.8223 0.2052 0
M  V30 19 C -6.8724 0.5175 1.3594 0
M  V30 20 C -6.1499 0.0826 2.6343 0
M  V30 21 H 8.3179 -1.8112 1.508 0
M  V30 22 H 8.2774 -0.0612 1.1243 0
M  V30 23 H 5.825 -1.9558 1.0344 0
M  V30 24 H 6.8384 -1.5118 -0.3812 0
M  V30 25 H 6.28 0.9163 -0.0372 0
M  V30 26 H 5.2255 0.47 1.3588 0
M  V30 27 H 4.8632 -0.4864 -1.5546 0
M  V30 28 H 3.8272 -0.9515 -0.15 0
M  V30 29 H 3.1717 1.4393 0.1874 0
M  V30 30 H 4.2883 1.9439 -1.124 0
M  V30 31 H 2.9565 0.5424 -2.7729 0
M  V30 32 H 2.0874 1.9396 -2.0553 0
M  V30 33 H 1.0188 0.3768 -0.3683 0
M  V30 34 H 1.7812 -1.0192 -1.2259 0
M  V30 35 H 0.6362 -0.2602 -3.3637 0
M  V30 36 H -0.2285 0.9964 -2.4344 0
M  V30 37 H -0.3653 -2.0678 -2.0156 0
M  V30 38 H -1.5998 -1.0755 -2.8238 0
M  V30 39 H -2.2866 -1.6686 -0.5189 0
M  V30 40 H -0.8 -0.9916 0.1614 0
M  V30 41 H -1.464 1.311 -0.4848 0
M  V30 42 H -2.6883 0.5437 0.5341 0
M  V30 43 H -3.7261 1.8376 -1.3084 0
M  V30 44 H -2.8171 0.9335 -2.5294 0
M  V30 45 H -4.045 -1.1544 -2.0163 0
M  V30 46 H -5.1633 0.1686 -2.4171 0
M  V30 47 H -5.9923 -1.2125 -0.5459 0
M  V30 48 H -4.5337 -0.8678 0.4258 0
M  V30 49 H -5.1444 1.5546 0.5507 0
M  V30 50 H -6.4869 1.2973 -0.6146 0
M  V30 51 H -7.5972 -0.2681 1.055 0
M  V30 52 H -7.4517 1.4391 1.5845 0
M  V30 53 H -6.8854 -0.0122 3.4606 0
M  V30 54 H -5.3869 0.8356 2.9251 0
M  V30 55 H -5.6614 -0.9034 2.4921 0
M  V30 END ATOM
M  V30 BEGIN BOND
M  V30 1 2 1 2
M  V30 2 1 2 3
M  V30 3 1 2 4
M  V30 4 1 4 5
M  V30 5 1 5 6
M  V30 6 1 6 7
M  V30 7 1 7 8
M  V30 8 1 8 9
M  V30 9 1 9 10
M  V30 10 1 10 11
M  V30 11 1 11 12
M  V30 12 1 12 13
M  V30 13 1 13 14
M  V30 14 1 14 15
M  V30 15 1 15 16
M  V30 16 1 16 17
M  V30 17 1 17 18
M  V30 18 1 18 19
M  V30 19 1 19 20
M  V30 20 1 4 21
M  V30 21 1 4 22
M  V30 22 1 5 23
M  V30 23 1 5 24
M  V30 24 1 6 25
M  V30 25 1 6 26
M  V30 26 1 7 27
M  V30 27 1 7 28
M  V30 28 1 8 29
M  V30 29 1 8 30
M  V30 30 1 9 31
M  V30 31 1 9 32
M  V30 32 1 10 33
M  V30 33 1 10 34
M  V30 34 1 11 35
M  V30 35 1 11 36
M  V30 36 1 12 37
M  V30 37 1 12 38
M  V30 38 1 13 39
M  V30 39 1 13 40
M  V30 40 1 14 41
M  V30 41 1 14 42
M  V30 42 1 15 43
M  V30 43 1 15 44
M  V30 44 1 16 45
M  V30 45 1 16 46
M  V30 46 1 17 47
M  V30 47 1 17 48
M  V30 48 1 18 49
M  V30 49 1 18 50
M  V30 50 1 19 51
M  V30 51 1 19 52
M  V30 52 1 20 53
M  V30 53 1 20 54
M  V30 54 1 20 55
M  V30 END BOND
M  V30 END CTAB
M  END
>  <Structure No>
6860

>  <LogS>
-4.98

>  <MMFF94 Energy>
-0.039052

$$$$
Compound 6861
Actelion Java MolfileCreator 2.0

  0  0  0  0  0  0              0 V3000
M  V30 BEGIN CTAB
M  V30 COUNTS 12 12 0 0 0
M  V30 BEGIN ATOM
M  V30 1 O 2.4822 0.56 0.24 0
M  V30 2 C 1.2461 0.3516 0.123 0
M  V30 3 N 0.2938 1.3948 0.1101 0
M  V30 4 C 0.6393 -1.0052 -0.0149 0
M  V30 5 C -0.9623 0.7658 -0.0355 0
M  V30 6 C -0.8726 -0.7216 -0.1235 0
M  V30 7 O -2.0437 1.4088 -0.0848 0
M  V30 8 H 0.48 2.4191 0.1915 0
M  V30 9 H 0.8658 -1.6201 0.8824 0
M  V30 10 H 1.018 -1.5035 -0.9327 0
M  V30 11 H -1.275 -1.0736 -1.0974 0
M  V30 12 H -1.4272 -1.1901 0.7177 0
M  V30 END ATOM
M  V30 BEGIN BOND
M  V30 1 2 1 2
M  V30 2 1 2 3
M  V30 3 1 2 4
M  V30 4 1 3 5
M  V30 5 1 4 6
M  V30 6 2 5 7
M  V30 7 1 5 6
M  V30 8 1 3 8
M  V30 9 1 4 9
M  V30 10 1 4 10
M  V30 11 1 6 11
M  V30 12 1 6 12
M  V30 END BOND
M  V30 END CTAB
M  END
>  <Structure No>
6861

>  <LogS>
0.39

>  <MMFF94 Energy>
-55.908

$$$$
Compound 6862
Actelion Java MolfileCreator 2.0

  0  0  0  0  0  0              0 V3000
M  V30 BEGIN CTAB
M  V30 COUNTS 34 35 0 0 0
M  V30 BEGIN ATOM
M  V30 1 O 2.6444 -1.2814 1.9226 0
M  V30 2 C 2.8549 -0.6906 0.8289 0
M  V30 3 O 1.8525 -0.5972 -0.1426 0
M  V30 4 C 4.174 -0.0424 0.5832 0
M  V30 5 C 0.5253 -1.1002 0.0324 0 CFG=1
M  V30 6 C -0.4564 -0.0375 0.6245 0 CFG=1
M  V30 7 C -0.1227 -1.4111 -1.336 0
M  V30 8 C -0.9416 0.753 -0.6148 0
M  V30 9 C -1.7237 -0.8349 1.0409 0
M  V30 10 C 0.1115 0.8081 1.7738 0
M  V30 11 C -1.3961 -0.5273 -1.3322 0 CFG=2
M  V30 12 C -2.0963 1.7694 -0.3482 0
M  V30 13 C 0.1517 1.5527 -1.3872 0
M  V30 14 C -2.3687 -1.1767 -0.3174 0
M  V30 15 H 4.9897 -0.6638 1.009 0
M  V30 16 H 4.1871 0.9591 1.061 0
M  V30 17 H 4.3423 0.0724 -0.5079 0
M  V30 18 H 0.5606 -2.0304 0.6443 0
M  V30 19 H -0.3675 -2.4919 -1.4305 0
M  V30 20 H 0.542 -1.1519 -2.187 0
M  V30 21 H -2.4109 -0.2306 1.6711 0
M  V30 22 H -1.4771 -1.7555 1.6143 0
M  V30 23 H 0.4192 0.1489 2.6122 0
M  V30 24 H 0.9903 1.3952 1.4368 0
M  V30 25 H -0.6561 1.5148 2.1526 0
M  V30 26 H -1.8372 -0.3707 -2.34 0
M  V30 27 H -2.5201 2.1177 -1.3144 0
M  V30 28 H -1.7067 2.6566 0.195 0
M  V30 29 H -2.9401 1.3784 0.248 0
M  V30 30 H 1.0172 0.9634 -1.732 0
M  V30 31 H -0.2905 2.0073 -2.2995 0
M  V30 32 H 0.5439 2.3749 -0.7523 0
M  V30 33 H -3.3871 -0.7416 -0.4049 0
M  V30 34 H -2.4565 -2.276 -0.4608 0
M  V30 END ATOM
M  V30 BEGIN BOND
M  V30 1 2 1 2
M  V30 2 1 2 3
M  V30 3 1 2 4
M  V30 4 1 3 5
M  V30 5 1 5 6
M  V30 6 1 5 7
M  V30 7 1 6 8
M  V30 8 1 6 9
M  V30 9 1 6 10
M  V30 10 1 7 11
M  V30 11 1 8 12
M  V30 12 1 8 13
M  V30 13 1 9 14
M  V30 14 1 8 11
M  V30 15 1 11 14
M  V30 16 1 4 15
M  V30 17 1 4 16
M  V30 18 1 4 17
M  V30 19 1 5 18
M  V30 20 1 7 19
M  V30 21 1 7 20
M  V30 22 1 9 21
M  V30 23 1 9 22
M  V30 24 1 10 23
M  V30 25 1 10 24
M  V30 26 1 10 25
M  V30 27 1 11 26
M  V30 28 1 12 27
M  V30 29 1 12 28
M  V30 30 1 12 29
M  V30 31 1 13 30
M  V30 32 1 13 31
M  V30 33 1 13 32
M  V30 34 1 14 33
M  V30 35 1 14 34
M  V30 END BOND
M  V30 BEGIN COLLECTION
M  V30 MDLV30/STEABS ATOMS=(3 5 6 11)
M  V30 END COLLECTION
M  V30 END CTAB
M  END
>  <Structure No>
6862

>  <LogS>
-3.93

>  <MMFF94 Energy>
45.291

$$$$
Compound 6863
Actelion Java MolfileCreator 2.0

  0  0  0  0  0  0              0 V3000
M  V30 BEGIN CTAB
M  V30 COUNTS 13 13 0 0 0
M  V30 BEGIN ATOM
M  V30 1 O 0.7879 2.3653 -0.1575 0
M  V30 2 C -0.0076 1.3904 -0.1217 0
M  V30 3 N -1.3219 1.4395 -0.6063 0 CHG=-1
M  V30 4 C 0.274 0.0809 0.454 0 CFG=2
M  V30 5 O -1.9342 0.2279 -0.5345 0
M  V30 6 N 1.2565 -0.6522 -0.3506 0 CHG=1
M  V30 7 C -1.1339 -0.5421 0.3547 0
M  V30 8 H 0.6105 0.1685 1.5111 0
M  V30 9 H 0.9374 -0.74 -1.3438 0
M  V30 10 H 1.391 -1.6074 0.053 0
M  V30 11 H 2.1746 -0.1515 -0.3257 0
M  V30 12 H -1.0896 -1.5933 -0.0021 0
M  V30 13 H -1.6137 -0.5422 1.3579 0
M  V30 END ATOM
M  V30 BEGIN BOND
M  V30 1 2 1 2
M  V30 2 1 2 3
M  V30 3 1 2 4
M  V30 4 1 3 5
M  V30 5 1 4 6
M  V30 6 1 4 7
M  V30 7 1 5 7
M  V30 8 1 4 8
M  V30 9 1 6 9
M  V30 10 1 6 10
M  V30 11 1 6 11
M  V30 12 1 7 12
M  V30 13 1 7 13
M  V30 END BOND
M  V30 BEGIN COLLECTION
M  V30 MDLV30/STEABS ATOMS=(1 4)
M  V30 END COLLECTION
M  V30 END CTAB
M  END
>  <Structure No>
6863

>  <LogS>
-0.01

>  <MMFF94 Energy>
-18.252

$$$$
Compound 6864
Actelion Java MolfileCreator 2.0

  0  0  0  0  0  0              0 V3000
M  V30 BEGIN CTAB
M  V30 COUNTS 25 25 0 0 0
M  V30 BEGIN ATOM
M  V30 1 S 3.5186 1.39 0.5721 0
M  V30 2 C 2.6487 -0.0208 -0.1071 0
M  V30 3 C 3.5088 -1.1428 -0.5108 0
M  V30 4 C 1.4246 -0.1175 -0.2926 0
M  V30 5 O 3.0795 -2.1784 -1.0266 0
M  V30 6 O 4.8767 -1.0383 -0.296 0 CHG=-1
M  V30 7 C 0.0064 -0.2293 -0.5073 0
M  V30 8 C -0.6109 -1.3476 0.2643 0
M  V30 9 C -0.7094 1.0603 -0.5742 0
M  V30 10 C -1.9309 -1.1296 0.8752 0
M  V30 11 C -1.6736 1.2274 0.6 0
M  V30 12 C -2.6745 0.0927 0.3922 0
M  V30 13 H 2.677 2.5173 0.6743 0
M  V30 14 H 1.2329 1.0493 0.4432 0
M  V30 15 H -0.0672 -0.614 -1.6146 0
M  V30 16 H -0.626 -2.2988 -0.3143 0
M  V30 17 H 0.1143 -1.5809 1.1048 0
M  V30 18 H -1.3051 1.1547 -1.5046 0
M  V30 19 H 0.0547 1.8762 -0.5959 0
M  V30 20 H -2.6374 -1.994 0.7058 0
M  V30 21 H -1.8805 -1.0289 1.9932 0
M  V30 22 H -2.1448 2.2107 0.6297 0
M  V30 23 H -1.0561 1.0477 1.5042 0
M  V30 24 H -3.5802 0.1949 0.9805 0
M  V30 25 H -2.8648 -0.0708 -0.7072 0
M  V30 END ATOM
M  V30 BEGIN BOND
M  V30 1 1 1 2
M  V30 2 1 2 3
M  V30 3 2 2 4
M  V30 4 2 3 5
M  V30 5 1 3 6
M  V30 6 1 4 7
M  V30 7 1 7 8
M  V30 8 1 7 9
M  V30 9 1 8 10
M  V30 10 1 9 11
M  V30 11 1 10 12
M  V30 12 1 11 12
M  V30 13 1 1 13
M  V30 14 1 4 14
M  V30 15 1 7 15
M  V30 16 1 8 16
M  V30 17 1 8 17
M  V30 18 1 9 18
M  V30 19 1 9 19
M  V30 20 1 10 20
M  V30 21 1 10 21
M  V30 22 1 11 22
M  V30 23 1 11 23
M  V30 24 1 12 24
M  V30 25 1 12 25
M  V30 END BOND
M  V30 END CTAB
M  END
>  <Structure No>
6864

>  <LogS>
-2.67

>  <MMFF94 Energy>
41.722

$$$$
Compound 6865
Actelion Java MolfileCreator 2.0

  0  0  0  0  0  0              0 V3000
M  V30 BEGIN CTAB
M  V30 COUNTS 20 20 0 0 0
M  V30 BEGIN ATOM
M  V30 1 O -3.3517 1.8791 -0.4899 0
M  V30 2 C -2.8823 0.7249 -0.6785 0
M  V30 3 O -3.7073 -0.2575 -1.2131 0 CHG=-1
M  V30 4 C -1.4748 0.4098 -0.3395 0
M  V30 5 C -0.7023 1.3276 0.2774 0
M  V30 6 C -0.976 -0.9997 -0.5902 0
M  V30 7 C 0.7525 1.1014 0.5958 0
M  V30 8 C 0.5519 -1.1162 -0.5588 0
M  V30 9 C 1.1104 -0.3906 0.6707 0 CFG=1
M  V30 10 C 2.5987 -0.576 0.7772 0
M  V30 11 O 3.3561 -0.246 -0.174 0
M  V30 12 O 3.1495 -1.1019 1.939 0 CHG=-1
M  V30 13 H -1.0916 2.3194 0.4733 0
M  V30 14 H -1.4068 -1.6668 0.1876 0
M  V30 15 H -1.334 -1.3555 -1.5803 0
M  V30 16 H 1.3556 1.6023 -0.1926 0
M  V30 17 H 0.9881 1.586 1.5679 0
M  V30 18 H 0.833 -2.1918 -0.527 0
M  V30 19 H 0.9737 -0.6748 -1.4896 0
M  V30 20 H 0.6393 -0.8232 1.5825 0
M  V30 END ATOM
M  V30 BEGIN BOND
M  V30 1 2 1 2
M  V30 2 1 2 3
M  V30 3 1 2 4
M  V30 4 2 4 5
M  V30 5 1 4 6
M  V30 6 1 5 7
M  V30 7 1 6 8
M  V30 8 1 7 9
M  V30 9 1 9 10
M  V30 10 2 10 11
M  V30 11 1 10 12
M  V30 12 1 8 9
M  V30 13 1 5 13
M  V30 14 1 6 14
M  V30 15 1 6 15
M  V30 16 1 7 16
M  V30 17 1 7 17
M  V30 18 1 8 18
M  V30 19 1 8 19
M  V30 20 1 9 20
M  V30 END BOND
M  V30 BEGIN COLLECTION
M  V30 MDLV30/STEABS ATOMS=(1 9)
M  V30 END COLLECTION
M  V30 END CTAB
M  END
>  <Structure No>
6865

>  <LogS>
-2.93

>  <MMFF94 Energy>
51.128

$$$$
Compound 6866
Actelion Java MolfileCreator 2.0

  0  0  0  0  0  0              0 V3000
M  V30 BEGIN CTAB
M  V30 COUNTS 39 38 0 0 0
M  V30 BEGIN ATOM
M  V30 1 O 6.5049 -0.8707 -0.2374 0
M  V30 2 C 6.1204 0.1629 -0.845 0
M  V30 3 O 6.9419 1.2823 -0.8866 0 CHG=-1
M  V30 4 C 4.7693 0.2003 -1.4904 0
M  V30 5 C 3.7558 0.9957 -0.6528 0
M  V30 6 C 3.4837 0.4058 0.7457 0
M  V30 7 C 2.9389 -1.0368 0.7537 0
M  V30 8 C 1.6499 -1.2514 -0.0594 0
M  V30 9 C 0.4691 -0.4204 0.4636 0
M  V30 10 C -0.8261 -0.7824 -0.2729 0
M  V30 11 C -2.0031 0.0578 0.2369 0
M  V30 12 C -3.2984 -0.3048 -0.4992 0
M  V30 13 C -4.4754 0.5357 0.0103 0
M  V30 14 C -5.7688 0.1731 -0.7253 0
M  V30 15 C -6.9078 1.0027 -0.2226 0
M  V30 16 O -7.5996 0.6052 0.7515 0
M  V30 17 O -7.175 2.2386 -0.7978 0 CHG=-1
M  V30 18 H 4.4006 -0.8304 -1.6765 0
M  V30 19 H 4.8698 0.6901 -2.4826 0
M  V30 20 H 2.8031 1.0781 -1.217 0
M  V30 21 H 4.1334 2.0342 -0.5267 0
M  V30 22 H 2.7708 1.0701 1.2788 0
M  V30 23 H 4.4237 0.4283 1.3381 0
M  V30 24 H 3.7209 -1.7281 0.3744 0
M  V30 25 H 2.7482 -1.3318 1.8087 0
M  V30 26 H 1.829 -1.0276 -1.1322 0
M  V30 27 H 1.3866 -2.3299 0.007 0
M  V30 28 H 0.3379 -0.6076 1.5522 0
M  V30 29 H 0.6772 0.6602 0.3104 0
M  V30 30 H -1.0498 -1.8608 -0.1164 0
M  V30 31 H -0.6911 -0.6036 -1.3626 0
M  V30 32 H -2.1373 -0.1202 1.3269 0
M  V30 33 H -1.7807 1.1364 0.0797 0
M  V30 34 H -3.5214 -1.3833 -0.3417 0
M  V30 35 H -3.1641 -0.1268 -1.5891 0
M  V30 36 H -4.2528 1.6146 -0.147 0
M  V30 37 H -4.6103 0.3577 1.1005 0
M  V30 38 H -5.6452 0.3513 -1.8156 0
M  V30 39 H -6.0017 -0.9036 -0.5736 0
M  V30 END ATOM
M  V30 BEGIN BOND
M  V30 1 2 1 2
M  V30 2 1 2 3
M  V30 3 1 2 4
M  V30 4 1 4 5
M  V30 5 1 5 6
M  V30 6 1 6 7
M  V30 7 1 7 8
M  V30 8 1 8 9
M  V30 9 1 9 10
M  V30 10 1 10 11
M  V30 11 1 11 12
M  V30 12 1 12 13
M  V30 13 1 13 14
M  V30 14 1 14 15
M  V30 15 2 15 16
M  V30 16 1 15 17
M  V30 17 1 4 18
M  V30 18 1 4 19
M  V30 19 1 5 20
M  V30 20 1 5 21
M  V30 21 1 6 22
M  V30 22 1 6 23
M  V30 23 1 7 24
M  V30 24 1 7 25
M  V30 25 1 8 26
M  V30 26 1 8 27
M  V30 27 1 9 28
M  V30 28 1 9 29
M  V30 29 1 10 30
M  V30 30 1 10 31
M  V30 31 1 11 32
M  V30 32 1 11 33
M  V30 33 1 12 34
M  V30 34 1 12 35
M  V30 35 1 13 36
M  V30 36 1 13 37
M  V30 37 1 14 38
M  V30 38 1 14 39
M  V30 END BOND
M  V30 END CTAB
M  END
>  <Structure No>
6866

>  <LogS>
-3.79

>  <MMFF94 Energy>
31.756

$$$$
Compound 6867
Actelion Java MolfileCreator 2.0

  0  0  0  0  0  0              0 V3000
M  V30 BEGIN CTAB
M  V30 COUNTS 19 19 0 0 0
M  V30 BEGIN ATOM
M  V30 1 O 2.5768 -0.156 -0.8583 0
M  V30 2 C 1.9158 -0.4632 0.3384 0
M  V30 3 C 0.4198 -0.4328 0.1305 0
M  V30 4 C -0.3046 0.7855 0.0814 0
M  V30 5 C -0.2606 -1.6462 -0.0729 0
M  V30 6 C -1.6952 0.7515 -0.1256 0
M  V30 7 C 0.3751 2.1149 0.2799 0
M  V30 8 C -1.64 -1.6601 -0.2878 0
M  V30 9 C -2.3563 -0.4641 -0.3099 0
M  V30 10 H 2.5013 -0.9589 -1.4377 0
M  V30 11 H 2.2477 -1.4578 0.715 0
M  V30 12 H 2.2104 0.274 1.1137 0
M  V30 13 H 0.2776 -2.586 -0.0635 0
M  V30 14 H -2.2713 1.6686 -0.149 0
M  V30 15 H -0.307 2.9608 0.0491 0
M  V30 16 H 1.2546 2.2005 -0.3917 0
M  V30 17 H 0.705 2.2116 1.3354 0
M  V30 18 H -2.1544 -2.6007 -0.4375 0
M  V30 19 H -3.4263 -0.4782 -0.4734 0
M  V30 END ATOM
M  V30 BEGIN BOND
M  V30 1 1 1 2
M  V30 2 1 2 3
M  V30 3 2 3 4
M  V30 4 1 3 5
M  V30 5 1 4 6
M  V30 6 1 4 7
M  V30 7 2 5 8
M  V30 8 2 6 9
M  V30 9 1 8 9
M  V30 10 1 1 10
M  V30 11 1 2 11
M  V30 12 1 2 12
M  V30 13 1 5 13
M  V30 14 1 6 14
M  V30 15 1 7 15
M  V30 16 1 7 16
M  V30 17 1 7 17
M  V30 18 1 8 18
M  V30 19 1 9 19
M  V30 END BOND
M  V30 END CTAB
M  END
>  <Structure No>
6867

>  <LogS>
-1.09

>  <MMFF94 Energy>
23.605

$$$$
Compound 6868
Actelion Java MolfileCreator 2.0

  0  0  0  0  0  0              0 V3000
M  V30 BEGIN CTAB
M  V30 COUNTS 16 16 0 0 0
M  V30 BEGIN ATOM
M  V30 1 N 0.0767 -0.9214 -0.0767 0 CHG=1
M  V30 2 C 1.2008 -0.15 -0.1409 0
M  V30 3 C -1.1644 -0.3685 0.0515 0
M  V30 4 N 2.4854 -0.7636 -0.2753 0
M  V30 5 C 1.0928 1.245 -0.0748 0
M  V30 6 N -2.3206 -1.2074 0.1159 0
M  V30 7 C -1.303 1.0237 0.1202 0
M  V30 8 C -0.1666 1.8297 0.0562 0
M  V30 9 H 0.1687 -1.9612 -0.1269 0
M  V30 10 H 3.3532 -0.1846 -0.3256 0
M  V30 11 H 2.5752 -1.8025 -0.3253 0
M  V30 12 H 1.975 1.8707 -0.1244 0
M  V30 13 H -2.2268 -2.2461 0.0655 0
M  V30 14 H -3.2761 -0.7969 0.214 0
M  V30 15 H -2.2808 1.4775 0.2219 0
M  V30 16 H -0.2619 2.9066 0.1082 0
M  V30 END ATOM
M  V30 BEGIN BOND
M  V30 1 2 1 2
M  V30 2 1 1 3
M  V30 3 1 2 4
M  V30 4 1 2 5
M  V30 5 1 3 6
M  V30 6 2 3 7
M  V30 7 2 5 8
M  V30 8 1 7 8
M  V30 9 1 1 9
M  V30 10 1 4 10
M  V30 11 1 4 11
M  V30 12 1 5 12
M  V30 13 1 6 13
M  V30 14 1 6 14
M  V30 15 1 7 15
M  V30 16 1 8 16
M  V30 END BOND
M  V30 END CTAB
M  END
>  <Structure No>
6868

>  <LogS>
-0.08

>  <MMFF94 Energy>
-0.34288

$$$$
Compound 6869
Actelion Java MolfileCreator 2.0

  0  0  0  0  0  0              0 V3000
M  V30 BEGIN CTAB
M  V30 COUNTS 16 16 0 0 0
M  V30 BEGIN ATOM
M  V30 1 N 0.8451 1.3063 -0.0768 0 CHG=1
M  V30 2 C -0.3949 0.7342 -0.1049 0
M  V30 3 C 1.9776 0.5668 0.063 0
M  V30 4 N -1.5458 1.5834 -0.2093 0
M  V30 5 C -0.5129 -0.674 -0.007 0
M  V30 6 C 1.8997 -0.8182 0.1833 0
M  V30 7 N -1.777 -1.3468 -0.0865 0
M  V30 8 C 0.6524 -1.4368 0.1479 0
M  V30 9 H 0.9372 2.3444 -0.1526 0
M  V30 10 H 2.9438 1.055 0.0864 0
M  V30 11 H -2.5163 1.244 -0.0426 0
M  V30 12 H -1.424 2.6088 -0.365 0
M  V30 13 H 2.7998 -1.4082 0.2975 0
M  V30 14 H -2.6515 -0.8699 -0.3915 0
M  V30 15 H -1.8345 -2.3773 0.0744 0
M  V30 16 H 0.5939 -2.5151 0.2285 0
M  V30 END ATOM
M  V30 BEGIN BOND
M  V30 1 2 1 2
M  V30 2 1 1 3
M  V30 3 1 2 4
M  V30 4 1 2 5
M  V30 5 2 3 6
M  V30 6 1 5 7
M  V30 7 2 5 8
M  V30 8 1 6 8
M  V30 9 1 1 9
M  V30 10 1 3 10
M  V30 11 1 4 11
M  V30 12 1 4 12
M  V30 13 1 6 13
M  V30 14 1 7 14
M  V30 15 1 7 15
M  V30 16 1 8 16
M  V30 END BOND
M  V30 END CTAB
M  END
>  <Structure No>
6869

>  <LogS>
-1.75

>  <MMFF94 Energy>
47.387

$$$$
Compound 6870
Actelion Java MolfileCreator 2.0

  0  0  0  0  0  0              0 V3000
M  V30 BEGIN CTAB
M  V30 COUNTS 60 59 0 0 0
M  V30 BEGIN ATOM
M  V30 1 O -8.1387 1.0925 -0.078 0
M  V30 2 C -7.1027 0.4015 -0.2764 0
M  V30 3 O -7.1922 -0.9498 -0.6387 0
M  V30 4 C -5.7547 1.0034 -0.0249 0
M  V30 5 C -8.3411 -1.5874 -1.131 0
M  V30 6 C -5.385 0.984 1.4675 0
M  V30 7 C -9.2809 -0.9585 -1.837 0
M  V30 8 C -5.2735 -0.4262 2.0778 0
M  V30 9 C -4.1624 -1.3096 1.4785 0
M  V30 10 C -2.7356 -0.7911 1.7577 0
M  V30 11 C -2.1147 -0.0975 0.5359 0
M  V30 12 C -0.6922 0.3875 0.8404 0
M  V30 13 C -0.0756 1.0825 -0.3824 0
M  V30 14 C 1.28 1.7463 -0.0787 0
M  V30 15 C 2.3866 0.79 0.4039 0
M  V30 16 C 2.7568 -0.2751 -0.6419 0
M  V30 17 C 3.8824 -1.2152 -0.1718 0
M  V30 18 C 5.2469 -0.5444 0.0758 0
M  V30 19 C 5.8418 0.0947 -1.1904 0
M  V30 20 C 7.2294 0.7195 -0.9529 0
M  V30 21 C 8.3436 -0.2803 -0.5936 0
M  V30 22 C 8.5823 -1.3294 -1.6794 0
M  V30 23 H -5.7641 2.0586 -0.3738 0
M  V30 24 H -4.9912 0.4731 -0.6296 0
M  V30 25 H -8.446 -2.6513 -0.9628 0
M  V30 26 H -6.1609 1.5469 2.0316 0
M  V30 27 H -4.4331 1.5335 1.6189 0
M  V30 28 H -9.1947 0.0874 -2.095 0
M  V30 29 H -10.1386 -1.5093 -2.2012 0
M  V30 30 H -6.2461 -0.9518 1.9666 0
M  V30 31 H -5.0981 -0.3235 3.1711 0
M  V30 32 H -4.3328 -1.4755 0.394 0
M  V30 33 H -4.2587 -2.311 1.9524 0
M  V30 34 H -2.093 -1.6588 2.026 0
M  V30 35 H -2.7307 -0.1011 2.6303 0
M  V30 36 H -2.0816 -0.8136 -0.3147 0
M  V30 37 H -2.7361 0.7709 0.2365 0
M  V30 38 H -0.0703 -0.4884 1.124 0
M  V30 39 H -0.7205 1.0991 1.6951 0
M  V30 40 H 0.0246 0.3618 -1.2209 0
M  V30 41 H -0.768 1.882 -0.7272 0
M  V30 42 H 1.128 2.5285 0.6972 0
M  V30 43 H 1.6312 2.2667 -0.9965 0
M  V30 44 H 2.0896 0.3043 1.3573 0
M  V30 45 H 3.2774 1.4155 0.6192 0
M  V30 46 H 3.0268 0.207 -1.6043 0
M  V30 47 H 1.8695 -0.9126 -0.8368 0
M  V30 48 H 4.0132 -2.0142 -0.934 0
M  V30 49 H 3.56 -1.7162 0.7672 0
M  V30 50 H 5.1698 0.21 0.886 0
M  V30 51 H 5.9308 -1.3392 0.4384 0
M  V30 52 H 5.1748 0.9155 -1.5275 0
M  V30 53 H 5.8877 -0.6504 -2.0123 0
M  V30 54 H 7.5292 1.2688 -1.8723 0
M  V30 55 H 7.152 1.4726 -0.1384 0
M  V30 56 H 8.1274 -0.7817 0.3723 0
M  V30 57 H 9.2858 0.2928 -0.4536 0
M  V30 58 H 7.7342 -2.044 -1.7254 0
M  V30 59 H 8.7147 -0.8431 -2.6692 0
M  V30 60 H 9.5022 -1.9039 -1.4412 0
M  V30 END ATOM
M  V30 BEGIN BOND
M  V30 1 2 1 2
M  V30 2 1 2 3
M  V30 3 1 2 4
M  V30 4 1 3 5
M  V30 5 1 4 6
M  V30 6 2 5 7
M  V30 7 1 6 8
M  V30 8 1 8 9
M  V30 9 1 9 10
M  V30 10 1 10 11
M  V30 11 1 11 12
M  V30 12 1 12 13
M  V30 13 1 13 14
M  V30 14 1 14 15
M  V30 15 1 15 16
M  V30 16 1 16 17
M  V30 17 1 17 18
M  V30 18 1 18 19
M  V30 19 1 19 20
M  V30 20 1 20 21
M  V30 21 1 21 22
M  V30 22 1 4 23
M  V30 23 1 4 24
M  V30 24 1 5 25
M  V30 25 1 6 26
M  V30 26 1 6 27
M  V30 27 1 7 28
M  V30 28 1 7 29
M  V30 29 1 8 30
M  V30 30 1 8 31
M  V30 31 1 9 32
M  V30 32 1 9 33
M  V30 33 1 10 34
M  V30 34 1 10 35
M  V30 35 1 11 36
M  V30 36 1 11 37
M  V30 37 1 12 38
M  V30 38 1 12 39
M  V30 39 1 13 40
M  V30 40 1 13 41
M  V30 41 1 14 42
M  V30 42 1 14 43
M  V30 43 1 15 44
M  V30 44 1 15 45
M  V30 45 1 16 46
M  V30 46 1 16 47
M  V30 47 1 17 48
M  V30 48 1 17 49
M  V30 49 1 18 50
M  V30 50 1 18 51
M  V30 51 1 19 52
M  V30 52 1 19 53
M  V30 53 1 20 54
M  V30 54 1 20 55
M  V30 55 1 21 56
M  V30 56 1 21 57
M  V30 57 1 22 58
M  V30 58 1 22 59
M  V30 59 1 22 60
M  V30 END BOND
M  V30 END CTAB
M  END
>  <Structure No>
6870

>  <LogS>
-6.15

>  <MMFF94 Energy>
15.474

$$$$
Compound 6871
Actelion Java MolfileCreator 2.0

  0  0  0  0  0  0              0 V3000
M  V30 BEGIN CTAB
M  V30 COUNTS 16 16 0 0 0
M  V30 BEGIN ATOM
M  V30 1 O 3.2836 1.328 -0.4685 0
M  V30 2 C 2.1683 0.7653 -0.31 0
M  V30 3 N 1.0627 1.5157 -0.0724 0
M  V30 4 N 2.0705 -0.5886 -0.3763 0
M  V30 5 C -0.159 0.946 0.1039 0
M  V30 6 C 0.873 -1.208 -0.207 0
M  V30 7 N -1.2867 1.7925 0.3512 0
M  V30 8 C -0.2847 -0.4568 0.0396 0
M  V30 9 C -1.6073 -1.1476 0.2261 0
M  V30 10 H 2.9227 -1.1653 -0.5592 0
M  V30 11 H 0.8229 -2.2887 -0.2648 0
M  V30 12 H -1.1589 2.8281 0.3928 0
M  V30 13 H -2.2482 1.4136 0.4944 0
M  V30 14 H -2.3227 -0.8055 -0.551 0
M  V30 15 H -2.0139 -0.9151 1.2329 0
M  V30 16 H -1.5074 -2.2506 0.1409 0
M  V30 END ATOM
M  V30 BEGIN BOND
M  V30 1 2 1 2
M  V30 2 1 2 3
M  V30 3 1 2 4
M  V30 4 2 3 5
M  V30 5 1 4 6
M  V30 6 1 5 7
M  V30 7 1 5 8
M  V30 8 1 8 9
M  V30 9 2 6 8
M  V30 10 1 4 10
M  V30 11 1 6 11
M  V30 12 1 7 12
M  V30 13 1 7 13
M  V30 14 1 9 14
M  V30 15 1 9 15
M  V30 16 1 9 16
M  V30 END BOND
M  V30 END CTAB
M  END
>  <Structure No>
6871

>  <LogS>
-1.44

>  <MMFF94 Energy>
-85.065

$$$$
Compound 6872
Actelion Java MolfileCreator 2.0

  0  0  0  0  0  0              0 V3000
M  V30 BEGIN CTAB
M  V30 COUNTS 32 31 0 0 0
M  V30 BEGIN ATOM
M  V30 1 O 3.7765 0.0785 -2.0442 0
M  V30 2 C 3.7128 0.413 -0.8307 0
M  V30 3 N 2.4599 0.4012 -0.1287 0
M  V30 4 N 4.9021 0.8183 -0.1541 0
M  V30 5 C 1.223 -0.0632 -0.7026 0
M  V30 6 O 1.2422 -0.6741 -1.8075 0
M  V30 7 C -0.0974 0.1062 0.0549 0 CFG=2
M  V30 8 C -1.2769 -0.3101 -0.8211 0
M  V30 9 C -0.2745 1.6124 0.4133 0
M  V30 10 C -0.0473 -0.7447 1.3633 0
M  V30 11 O -1.3595 0.1196 -2.0062 0
M  V30 12 O -2.3164 -1.0825 -0.2893 0
M  V30 13 C -1.5545 1.9104 1.1583 0
M  V30 14 C 0.2941 -2.2235 1.1383 0
M  V30 15 C -3.4671 -1.4442 -1.0424 0
M  V30 16 C -2.6834 2.2406 0.524 0
M  V30 17 H 2.4648 0.7341 0.8602 0
M  V30 18 H 5.8164 0.8342 -0.6579 0
M  V30 19 H 4.8724 1.1018 0.8501 0
M  V30 20 H -0.2259 2.2329 -0.5099 0
M  V30 21 H 0.56 1.9548 1.0599 0
M  V30 22 H -1.0238 -0.6914 1.8921 0
M  V30 23 H 0.7073 -0.3229 2.062 0
M  V30 24 H -1.5573 1.8483 2.2425 0
M  V30 25 H 0.2161 -2.7696 2.1019 0
M  V30 26 H 1.3338 -2.3334 0.7651 0
M  V30 27 H -0.4036 -2.6916 0.4145 0
M  V30 28 H -4.1401 -2.056 -0.4075 0
M  V30 29 H -4.0101 -0.5314 -1.3673 0
M  V30 30 H -3.1681 -2.0406 -1.9301 0
M  V30 31 H -2.7175 2.3113 -0.5587 0
M  V30 32 H -3.5857 2.4424 1.0919 0
M  V30 END ATOM
M  V30 BEGIN BOND
M  V30 1 2 1 2
M  V30 2 1 2 3
M  V30 3 1 2 4
M  V30 4 1 3 5
M  V30 5 2 5 6
M  V30 6 1 5 7
M  V30 7 1 7 8
M  V30 8 1 7 9
M  V30 9 1 7 10
M  V30 10 2 8 11
M  V30 11 1 8 12
M  V30 12 1 9 13
M  V30 13 1 10 14
M  V30 14 1 12 15
M  V30 15 2 13 16
M  V30 16 1 3 17
M  V30 17 1 4 18
M  V30 18 1 4 19
M  V30 19 1 9 20
M  V30 20 1 9 21
M  V30 21 1 10 22
M  V30 22 1 10 23
M  V30 23 1 13 24
M  V30 24 1 14 25
M  V30 25 1 14 26
M  V30 26 1 14 27
M  V30 27 1 15 28
M  V30 28 1 15 29
M  V30 29 1 15 30
M  V30 30 1 16 31
M  V30 31 1 16 32
M  V30 END BOND
M  V30 BEGIN COLLECTION
M  V30 MDLV30/STEABS ATOMS=(1 7)
M  V30 END COLLECTION
M  V30 END CTAB
M  END
>  <Structure No>
6872

>  <LogS>
-1.92

>  <MMFF94 Energy>
-99.502

$$$$
Compound 6873
Actelion Java MolfileCreator 2.0

  0  0  0  0  0  0              0 V3000
M  V30 BEGIN CTAB
M  V30 COUNTS 24 23 0 0 0
M  V30 BEGIN ATOM
M  V30 1 O -2.0267 2.0267 0.1557 0
M  V30 2 C -1.9866 0.8226 0.3656 0
M  V30 3 C -0.7072 0.2132 0.897 0 CFG=1
M  V30 4 C -3.2143 -0.0182 0.1268 0
M  V30 5 O -0.9373 -1.1139 1.305 0
M  V30 6 C 0.4027 0.2579 -0.181 0 CFG=2
M  V30 7 O -4.2164 0.7373 -0.4971 0
M  V30 8 O 0.0822 -0.6044 -1.2454 0
M  V30 9 C 1.7823 -0.1266 0.3992 0 CFG=1
M  V30 10 O 1.8001 -1.4943 0.7229 0
M  V30 11 C 2.9039 0.178 -0.6092 0
M  V30 12 O 4.1576 -0.1255 -0.0597 0
M  V30 13 H -0.3932 0.8363 1.7694 0
M  V30 14 H -2.9424 -0.8803 -0.5215 0
M  V30 15 H -3.5862 -0.3988 1.1038 0
M  V30 16 H -0.4385 -1.2546 2.1518 0
M  V30 17 H 0.4809 1.3081 -0.5533 0
M  V30 18 H -4.9875 0.1244 -0.6188 0
M  V30 19 H -0.5374 -0.1111 -1.8439 0
M  V30 20 H 1.9604 0.4881 1.3138 0
M  V30 21 H 2.4926 -1.6177 1.4236 0
M  V30 22 H 2.7625 -0.4367 -1.5237 0
M  V30 23 H 2.8729 1.2497 -0.9123 0
M  V30 24 H 4.3678 0.5988 0.5859 0
M  V30 END ATOM
M  V30 BEGIN BOND
M  V30 1 2 1 2
M  V30 2 1 2 3
M  V30 3 1 2 4
M  V30 4 1 3 5
M  V30 5 1 3 6
M  V30 6 1 4 7
M  V30 7 1 6 8
M  V30 8 1 6 9
M  V30 9 1 9 10
M  V30 10 1 9 11
M  V30 11 1 11 12
M  V30 12 1 3 13
M  V30 13 1 4 14
M  V30 14 1 4 15
M  V30 15 1 5 16
M  V30 16 1 6 17
M  V30 17 1 7 18
M  V30 18 1 8 19
M  V30 19 1 9 20
M  V30 20 1 10 21
M  V30 21 1 11 22
M  V30 22 1 11 23
M  V30 23 1 12 24
M  V30 END BOND
M  V30 BEGIN COLLECTION
M  V30 MDLV30/STEABS ATOMS=(3 3 6 9)
M  V30 END COLLECTION
M  V30 END CTAB
M  END
>  <Structure No>
6873

>  <LogS>
0.32

>  <MMFF94 Energy>
87.687

$$$$
Compound 6874
Actelion Java MolfileCreator 2.0

  0  0  0  0  0  0              0 V3000
M  V30 BEGIN CTAB
M  V30 COUNTS 14 14 0 0 0
M  V30 BEGIN ATOM
M  V30 1 O -3.1212 0.2338 0.0779 0
M  V30 2 C -1.8652 0.1326 0.0585 0
M  V30 3 N -1.0917 1.2063 0.378 0
M  V30 4 N -1.2841 -1.0496 -0.2815 0
M  V30 5 C 0.2664 1.1188 0.3634 0
M  V30 6 C 0.068 -1.1789 -0.3083 0
M  V30 7 O 0.9606 2.1275 0.6632 0
M  V30 8 C 0.8841 -0.0912 0.0155 0
M  V30 9 N 2.3097 -0.2231 -0.0114 0
M  V30 10 H -1.5478 2.1109 0.6381 0
M  V30 11 H -1.8802 -1.8725 -0.5263 0
M  V30 12 H 0.5102 -2.129 -0.5818 0
M  V30 13 H 2.7551 -1.1309 -0.2726 0
M  V30 14 H 2.9331 0.5798 0.2277 0
M  V30 END ATOM
M  V30 BEGIN BOND
M  V30 1 2 1 2
M  V30 2 1 2 3
M  V30 3 1 2 4
M  V30 4 1 3 5
M  V30 5 1 4 6
M  V30 6 2 5 7
M  V30 7 1 5 8
M  V30 8 1 8 9
M  V30 9 2 6 8
M  V30 10 1 3 10
M  V30 11 1 4 11
M  V30 12 1 6 12
M  V30 13 1 9 13
M  V30 14 1 9 14
M  V30 END BOND
M  V30 END CTAB
M  END
>  <Structure No>
6874

>  <LogS>
-2.41

>  <MMFF94 Energy>
-52.128

$$$$
Compound 6875
Actelion Java MolfileCreator 2.0

  0  0  0  0  0  0              0 V3000
M  V30 BEGIN CTAB
M  V30 COUNTS 14 14 0 0 0
M  V30 BEGIN ATOM
M  V30 1 N 3.2078 0.6409 1.3623 0
M  V30 2 C 2.1376 0.4949 0.9468 0
M  V30 3 C 0.8023 0.3128 0.4283 0
M  V30 4 C 0.419 -0.8869 -0.2079 0
M  V30 5 C -0.1274 1.354 0.5636 0
M  V30 6 C 1.3459 -1.9823 -0.3672 0
M  V30 7 C -0.8876 -1.025 -0.6983 0
M  V30 8 C -1.4272 1.206 0.0714 0
M  V30 9 N 2.0888 -2.8604 -0.4947 0
M  V30 10 C -1.8065 0.0186 -0.5584 0
M  V30 11 H 0.1528 2.2808 1.05 0
M  V30 12 H -1.1959 -1.9405 -1.1891 0
M  V30 13 H -2.1408 2.0127 0.1784 0
M  V30 14 H -2.8138 -0.0932 -0.9386 0
M  V30 END ATOM
M  V30 BEGIN BOND
M  V30 1 3 1 2
M  V30 2 1 2 3
M  V30 3 2 3 4
M  V30 4 1 3 5
M  V30 5 1 4 6
M  V30 6 1 4 7
M  V30 7 2 5 8
M  V30 8 3 6 9
M  V30 9 2 7 10
M  V30 10 1 8 10
M  V30 11 1 5 11
M  V30 12 1 7 12
M  V30 13 1 8 13
M  V30 14 1 10 14
M  V30 END BOND
M  V30 END CTAB
M  END
>  <Structure No>
6875

>  <LogS>
-2.38

>  <MMFF94 Energy>
27.42

$$$$
Compound 6876
Actelion Java MolfileCreator 2.0

  0  0  0  0  0  0              0 V3000
M  V30 BEGIN CTAB
M  V30 COUNTS 30 29 0 0 0
M  V30 BEGIN ATOM
M  V30 1 S 2.598 -0.0811 -0.9736 0
M  V30 2 C 2.7197 1.0862 -2.3276 0
M  V30 3 C 0.8962 0.4244 -0.5309 0
M  V30 4 O 3.1633 2.2453 -2.1148 0
M  V30 5 N 2.3235 0.7033 -3.6422 0
M  V30 6 C 0.3582 -0.3793 0.6902 0
M  V30 7 N -0.4172 -1.595 0.275 0 CHG=1
M  V30 8 C -0.4608 0.5737 1.6042 0
M  V30 9 C 0.4156 -2.5256 -0.5159 0
M  V30 10 C -0.961 -2.3269 1.4395 0
M  V30 11 S -1.998 1.1556 0.8001 0
M  V30 12 C -2.4913 2.1564 2.2009 0
M  V30 13 O -3.2269 1.6603 3.094 0
M  V30 14 N -2.056 3.5099 2.3032 0
M  V30 15 H 0.9364 1.5118 -0.3038 0
M  V30 16 H 0.2224 0.3016 -1.4059 0
M  V30 17 H 1.9686 -0.2614 -3.8268 0
M  V30 18 H 2.3921 1.3805 -4.434 0
M  V30 19 H 1.2319 -0.6987 1.3039 0
M  V30 20 H -1.2244 -1.3084 -0.3273 0
M  V30 21 H 0.1628 1.4563 1.8658 0
M  V30 22 H -0.7011 0.0822 2.5699 0
M  V30 23 H 1.3492 -2.7897 0.0287 0
M  V30 24 H -0.1373 -3.4634 -0.7455 0
M  V30 25 H 0.673 -2.0859 -1.502 0
M  V30 26 H -0.1701 -2.5171 2.1987 0
M  V30 27 H -1.3987 -3.3035 1.1344 0
M  V30 28 H -1.7986 -1.7656 1.9055 0
M  V30 29 H -2.3393 4.0963 3.1192 0
M  V30 30 H -1.4514 3.9239 1.5601 0
M  V30 END ATOM
M  V30 BEGIN BOND
M  V30 1 1 1 2
M  V30 2 1 1 3
M  V30 3 2 2 4
M  V30 4 1 2 5
M  V30 5 1 3 6
M  V30 6 1 6 7
M  V30 7 1 6 8
M  V30 8 1 7 9
M  V30 9 1 7 10
M  V30 10 1 8 11
M  V30 11 1 11 12
M  V30 12 2 12 13
M  V30 13 1 12 14
M  V30 14 1 3 15
M  V30 15 1 3 16
M  V30 16 1 5 17
M  V30 17 1 5 18
M  V30 18 1 6 19
M  V30 19 1 7 20
M  V30 20 1 8 21
M  V30 21 1 8 22
M  V30 22 1 9 23
M  V30 23 1 9 24
M  V30 24 1 9 25
M  V30 25 1 10 26
M  V30 26 1 10 27
M  V30 27 1 10 28
M  V30 28 1 14 29
M  V30 29 1 14 30
M  V30 END BOND
M  V30 END CTAB
M  END
>  <Structure No>
6876

>  <LogS>
-0.07

>  <MMFF94 Energy>
-108.26

$$$$
Compound 6877
Actelion Java MolfileCreator 2.0

  0  0  0  0  0  0              0 V3000
M  V30 BEGIN CTAB
M  V30 COUNTS 16 16 0 0 0
M  V30 BEGIN ATOM
M  V30 1 O 1.8318 -2.0709 -0.9554 0
M  V30 2 C 1.6986 -0.8864 -0.5458 0
M  V30 3 C 0.3387 -0.3723 -0.2518 0
M  V30 4 C 2.9139 -0.0761 -0.3576 0
M  V30 5 C -0.6525 -1.2513 0.2217 0
M  V30 6 C 0.0015 0.9762 -0.4763 0
M  V30 7 O 2.8822 1.0208 0.2597 0
M  V30 8 C -1.943 -0.7854 0.4911 0
M  V30 9 C -1.291 1.4366 -0.2061 0
M  V30 10 C -2.2613 0.5579 0.2804 0
M  V30 11 H 3.8622 -0.4451 -0.7257 0
M  V30 12 H -0.4248 -2.296 0.3944 0
M  V30 13 H 0.7247 1.67 -0.8841 0
M  V30 14 H -2.6971 -1.4671 0.863 0
M  V30 15 H -1.5426 2.4746 -0.382 0
M  V30 16 H -3.2613 0.9163 0.4876 0
M  V30 END ATOM
M  V30 BEGIN BOND
M  V30 1 2 1 2
M  V30 2 1 2 3
M  V30 3 1 2 4
M  V30 4 2 3 5
M  V30 5 1 3 6
M  V30 6 2 4 7
M  V30 7 1 5 8
M  V30 8 2 6 9
M  V30 9 2 8 10
M  V30 10 1 9 10
M  V30 11 1 4 11
M  V30 12 1 5 12
M  V30 13 1 6 13
M  V30 14 1 8 14
M  V30 15 1 9 15
M  V30 16 1 10 16
M  V30 END BOND
M  V30 END CTAB
M  END
>  <Structure No>
6877

>  <LogS>
-0.74

>  <MMFF94 Energy>
57.688

$$$$
Compound 6878
Actelion Java MolfileCreator 2.0

  0  0  0  0  0  0              0 V3000
M  V30 BEGIN CTAB
M  V30 COUNTS 11 11 0 0 0
M  V30 BEGIN ATOM
M  V30 1 Cl -2.8612 1.5982 -0.925 0
M  V30 2 C -1.4527 0.6855 -0.4256 0
M  V30 3 O -0.215 1.0822 -0.6065 0
M  V30 4 C -1.475 -0.5398 0.2072 0
M  V30 5 C 0.5853 0.1635 -0.116 0
M  V30 6 C -0.1538 -0.8799 0.4089 0
M  V30 7 C 2.0484 0.2556 -0.1351 0
M  V30 8 O 2.6095 1.261 -0.6438 0
M  V30 9 O 2.8228 -0.7628 0.4065 0 CHG=-1
M  V30 10 H -2.3468 -1.1157 0.4879 0
M  V30 11 H 0.2207 -1.7788 0.8808 0
M  V30 END ATOM
M  V30 BEGIN BOND
M  V30 1 1 1 2
M  V30 2 1 2 3
M  V30 3 2 2 4
M  V30 4 1 3 5
M  V30 5 1 4 6
M  V30 6 1 5 7
M  V30 7 2 7 8
M  V30 8 1 7 9
M  V30 9 2 5 6
M  V30 10 1 4 10
M  V30 11 1 6 11
M  V30 END BOND
M  V30 END CTAB
M  END
>  <Structure No>
6878

>  <LogS>
-1.69

>  <MMFF94 Energy>
34.475

$$$$
Compound 6879
Actelion Java MolfileCreator 2.0

  0  0  0  0  0  0              0 V3000
M  V30 BEGIN CTAB
M  V30 COUNTS 16 16 0 0 0
M  V30 BEGIN ATOM
M  V30 1 O -0.7175 3.112 0.3985 0
M  V30 2 C -1.1508 1.9492 0.1789 0
M  V30 3 C -0.2228 0.79 0.1183 0
M  V30 4 C -0.6672 -0.5426 -0.1271 0
M  V30 5 C 1.1543 1.0244 0.3125 0
M  V30 6 C 0.2855 -1.5819 -0.1676 0
M  V30 7 C -2.0965 -0.8875 -0.3433 0
M  V30 8 C 2.0743 -0.022 0.2673 0
M  V30 9 C 1.641 -1.3216 0.0279 0
M  V30 10 O -2.4478 -2.0786 -0.5575 0
M  V30 11 H -2.2127 1.8381 0.0392 0
M  V30 12 H 1.5266 2.0238 0.5012 0
M  V30 13 H -0.0164 -2.6056 -0.3514 0
M  V30 14 H -2.8727 -0.1414 -0.3248 0
M  V30 15 H 3.1276 0.1768 0.4187 0
M  V30 16 H 2.3579 -2.132 -0.0066 0
M  V30 END ATOM
M  V30 BEGIN BOND
M  V30 1 2 1 2
M  V30 2 1 2 3
M  V30 3 2 3 4
M  V30 4 1 3 5
M  V30 5 1 4 6
M  V30 6 1 4 7
M  V30 7 2 5 8
M  V30 8 2 6 9
M  V30 9 2 7 10
M  V30 10 1 8 9
M  V30 11 1 2 11
M  V30 12 1 5 12
M  V30 13 1 6 13
M  V30 14 1 7 14
M  V30 15 1 8 15
M  V30 16 1 9 16
M  V30 END BOND
M  V30 END CTAB
M  END
>  <Structure No>
6879

>  <LogS>
-1.34

>  <MMFF94 Energy>
33.233

$$$$
Compound 6880
Actelion Java MolfileCreator 2.0

  0  0  0  0  0  0              0 V3000
M  V30 BEGIN CTAB
M  V30 COUNTS 45 44 0 0 0
M  V30 BEGIN ATOM
M  V30 1 O 1.3303 -0.2346 -2.5837 0
M  V30 2 C 1.108 -0.0918 -1.3496 0
M  V30 3 O -0.1991 -0.1127 -0.8579 0
M  V30 4 N 2.1938 0.0959 -0.4373 0
M  V30 5 C -1.3401 -0.2731 -1.6982 0
M  V30 6 C 3.5823 0.1312 -0.8946 0
M  V30 7 C -2.6519 -0.2315 -0.8694 0 CFG=2
M  V30 8 C 4.5384 0.35 0.2824 0
M  V30 9 C -2.7923 1.1647 -0.2022 0
M  V30 10 C -2.6149 -1.3819 0.1897 0
M  V30 11 C -3.8291 -0.4344 -1.848 0
M  V30 12 C 5.9958 0.3887 -0.1907 0
M  V30 13 O -1.8018 1.3533 0.806 0
M  V30 14 C -3.8972 -1.5689 1.0368 0
M  V30 15 C 6.9497 0.6067 0.9802 0
M  V30 16 C -1.685 2.5349 1.5417 0
M  V30 17 C -4.7507 -2.7432 0.5566 0
M  V30 18 O -2.4794 3.4951 1.349 0
M  V30 19 N -0.6548 2.6542 2.5186 0
M  V30 20 H 1.9691 0.2127 0.5771 0
M  V30 21 H -1.2607 -1.245 -2.2345 0
M  V30 22 H -1.3454 0.5366 -2.4618 0
M  V30 23 H 3.8254 -0.8311 -1.3956 0
M  V30 24 H 3.7033 0.9578 -1.6286 0
M  V30 25 H 4.286 1.3109 0.7831 0
M  V30 26 H 4.409 -0.4764 1.0155 0
M  V30 27 H -2.6829 1.9599 -0.973 0
M  V30 28 H -3.7986 1.2908 0.2496 0
M  V30 29 H -2.3608 -2.3399 -0.317 0
M  V30 30 H -1.773 -1.1949 0.8917 0
M  V30 31 H -3.7807 -1.441 -2.3164 0
M  V30 32 H -4.8061 -0.3299 -1.3312 0
M  V30 33 H -3.8001 0.3262 -2.6583 0
M  V30 34 H 6.1307 1.2148 -0.9227 0
M  V30 35 H 6.2534 -0.5704 -0.6904 0
M  V30 36 H -4.521 -0.654 1.0593 0
M  V30 37 H -3.6025 -1.7772 2.0886 0
M  V30 38 H 7.9956 0.6303 0.6082 0
M  V30 39 H 6.8529 -0.2199 1.7159 0
M  V30 40 H 6.7295 1.5728 1.4827 0
M  V30 41 H -4.1743 -3.6904 0.6242 0
M  V30 42 H -5.081 -2.5933 -0.4909 0
M  V30 43 H -5.6516 -2.8338 1.1994 0
M  V30 44 H 0.0091 1.8649 2.679 0
M  V30 45 H -0.5533 3.5302 3.078 0
M  V30 END ATOM
M  V30 BEGIN BOND
M  V30 1 2 1 2
M  V30 2 1 2 3
M  V30 3 1 2 4
M  V30 4 1 3 5
M  V30 5 1 4 6
M  V30 6 1 5 7
M  V30 7 1 6 8
M  V30 8 1 7 9
M  V30 9 1 7 10
M  V30 10 1 7 11
M  V30 11 1 8 12
M  V30 12 1 9 13
M  V30 13 1 10 14
M  V30 14 1 12 15
M  V30 15 1 13 16
M  V30 16 1 14 17
M  V30 17 2 16 18
M  V30 18 1 16 19
M  V30 19 1 4 20
M  V30 20 1 5 21
M  V30 21 1 5 22
M  V30 22 1 6 23
M  V30 23 1 6 24
M  V30 24 1 8 25
M  V30 25 1 8 26
M  V30 26 1 9 27
M  V30 27 1 9 28
M  V30 28 1 10 29
M  V30 29 1 10 30
M  V30 30 1 11 31
M  V30 31 1 11 32
M  V30 32 1 11 33
M  V30 33 1 12 34
M  V30 34 1 12 35
M  V30 35 1 14 36
M  V30 36 1 14 37
M  V30 37 1 15 38
M  V30 38 1 15 39
M  V30 39 1 15 40
M  V30 40 1 17 41
M  V30 41 1 17 42
M  V30 42 1 17 43
M  V30 43 1 19 44
M  V30 44 1 19 45
M  V30 END BOND
M  V30 BEGIN COLLECTION
M  V30 MDLV30/STEABS ATOMS=(1 7)
M  V30 END COLLECTION
M  V30 END CTAB
M  END
>  <Structure No>
6880

>  <LogS>
-2.74

>  <MMFF94 Energy>
-129.44

$$$$
Compound 6881
Actelion Java MolfileCreator 2.0

  0  0  0  0  0  0              0 V3000
M  V30 BEGIN CTAB
M  V30 COUNTS 23 23 0 0 0
M  V30 BEGIN ATOM
M  V30 1 O -4.2128 -1.5087 -0.8732 0
M  V30 2 C -3.8294 -0.3108 -0.8106 0
M  V30 3 O -4.2456 0.5965 -1.7767 0 CHG=-1
M  V30 4 C -2.8874 0.1227 0.2675 0
M  V30 5 C -1.4357 -0.0493 -0.1878 0
M  V30 6 C -0.4594 0.3957 0.9061 0
M  V30 7 C 0.9639 0.2223 0.4476 0
M  V30 8 C 1.6168 1.2563 -0.2442 0
M  V30 9 C 1.6328 -0.9952 0.6576 0
M  V30 10 C 2.928 1.0816 -0.698 0
M  V30 11 C 2.9441 -1.1658 0.2022 0
M  V30 12 C 3.5918 -0.1275 -0.4731 0
M  V30 13 H -3.0714 -0.4812 1.1829 0
M  V30 14 H -3.0825 1.1899 0.5107 0
M  V30 15 H -1.2509 -1.1192 -0.4326 0
M  V30 16 H -1.2627 0.5579 -1.1044 0
M  V30 17 H -0.6438 1.4624 1.1627 0
M  V30 18 H -0.632 -0.201 1.829 0
M  V30 19 H 1.1103 2.1951 -0.4328 0
M  V30 20 H 1.1389 -1.8107 1.1715 0
M  V30 21 H 3.4283 1.8826 -1.2268 0
M  V30 22 H 3.4567 -2.1042 0.3698 0
M  V30 23 H 4.6061 -0.2617 -0.8261 0
M  V30 END ATOM
M  V30 BEGIN BOND
M  V30 1 2 1 2
M  V30 2 1 2 3
M  V30 3 1 2 4
M  V30 4 1 4 5
M  V30 5 1 5 6
M  V30 6 1 6 7
M  V30 7 2 7 8
M  V30 8 1 7 9
M  V30 9 1 8 10
M  V30 10 2 9 11
M  V30 11 2 10 12
M  V30 12 1 11 12
M  V30 13 1 4 13
M  V30 14 1 4 14
M  V30 15 1 5 15
M  V30 16 1 5 16
M  V30 17 1 6 17
M  V30 18 1 6 18
M  V30 19 1 8 19
M  V30 20 1 9 20
M  V30 21 1 10 21
M  V30 22 1 11 22
M  V30 23 1 12 23
M  V30 END BOND
M  V30 END CTAB
M  END
>  <Structure No>
6881

>  <LogS>
-1.78

>  <MMFF94 Energy>
22.8

$$$$
Compound 6882
Actelion Java MolfileCreator 2.0

  0  0  0  0  0  0              0 V3000
M  V30 BEGIN CTAB
M  V30 COUNTS 29 30 0 0 0
M  V30 BEGIN ATOM
M  V30 1 O 4.6973 0.7278 0.0808 0
M  V30 2 C 3.5285 0.2596 0.108 0
M  V30 3 N 2.996 -0.2681 1.3196 0
M  V30 4 N 2.7455 0.2197 -1.0804 0
M  V30 5 C 1.6381 -0.7184 1.3896 0
M  V30 6 C 1.4189 -0.3134 -1.0502 0
M  V30 7 O 1.2448 -1.2722 2.4527 0
M  V30 8 C 0.6438 -0.4047 0.2674 0
M  V30 9 O 0.8864 -0.6608 -2.1384 0
M  V30 10 C 0.0183 0.9777 0.6216 0
M  V30 11 C -0.4207 -1.5539 0.2075 0
M  V30 12 C -0.9264 1.5719 -0.4425 0
M  V30 13 C -1.7006 -1.2812 -0.6102 0
M  V30 14 C -2.4002 1.1733 -0.2675 0
M  V30 15 C -2.6481 -0.2986 0.0952 0
M  V30 16 H 3.6099 -0.3441 2.1617 0
M  V30 17 H 3.1784 0.4845 -1.9938 0
M  V30 18 H -0.5077 0.9212 1.6006 0
M  V30 19 H 0.8474 1.7078 0.7635 0
M  V30 20 H -0.7489 -1.8376 1.231 0
M  V30 21 H 0.0669 -2.4634 -0.2083 0
M  V30 22 H -0.5914 1.323 -1.4691 0
M  V30 23 H -0.8749 2.6808 -0.3748 0
M  V30 24 H -2.2364 -2.2507 -0.7084 0
M  V30 25 H -1.4823 -0.9481 -1.6443 0
M  V30 26 H -2.8554 1.8083 0.5239 0
M  V30 27 H -2.935 1.4058 -1.2145 0
M  V30 28 H -2.5917 -0.4258 1.1986 0
M  V30 29 H -3.6942 -0.546 -0.1898 0
M  V30 END ATOM
M  V30 BEGIN BOND
M  V30 1 2 1 2
M  V30 2 1 2 3
M  V30 3 1 2 4
M  V30 4 1 3 5
M  V30 5 1 4 6
M  V30 6 2 5 7
M  V30 7 1 5 8
M  V30 8 2 6 9
M  V30 9 1 8 10
M  V30 10 1 8 11
M  V30 11 1 10 12
M  V30 12 1 11 13
M  V30 13 1 12 14
M  V30 14 1 13 15
M  V30 15 1 6 8
M  V30 16 1 14 15
M  V30 17 1 3 16
M  V30 18 1 4 17
M  V30 19 1 10 18
M  V30 20 1 10 19
M  V30 21 1 11 20
M  V30 22 1 11 21
M  V30 23 1 12 22
M  V30 24 1 12 23
M  V30 25 1 13 24
M  V30 26 1 13 25
M  V30 27 1 14 26
M  V30 28 1 14 27
M  V30 29 1 15 28
M  V30 30 1 15 29
M  V30 END BOND
M  V30 END CTAB
M  END
>  <Structure No>
6882

>  <LogS>
-2.98

>  <MMFF94 Energy>
-118.74

$$$$
Compound 6883
Actelion Java MolfileCreator 2.0

  0  0  0  0  0  0              0 V3000
M  V30 BEGIN CTAB
M  V30 COUNTS 23 23 0 0 0
M  V30 BEGIN ATOM
M  V30 1 O 2.953 -2.0974 0.3881 0
M  V30 2 C 2.1926 -0.948 0.1743 0
M  V30 3 C 2.7839 0.327 0.1887 0
M  V30 4 C 0.8178 -1.0753 -0.0557 0
M  V30 5 O 4.1526 0.4606 0.4158 0
M  V30 6 C 1.9906 1.463 -0.0235 0
M  V30 7 C 0.0245 0.0609 -0.2816 0
M  V30 8 C 0.6184 1.3318 -0.2521 0
M  V30 9 C -1.4591 -0.0788 -0.4941 0
M  V30 10 C -2.2031 -0.0338 0.8459 0
M  V30 11 N -3.6459 -0.169 0.6482 0 CHG=1
M  V30 12 H 3.9504 -2.0584 0.5597 0
M  V30 13 H 0.3681 -2.0608 -0.0566 0
M  V30 14 H 4.6016 1.3689 0.4319 0
M  V30 15 H 2.4366 2.4494 -0.0081 0
M  V30 16 H 0.0187 2.2206 -0.4051 0
M  V30 17 H -1.6769 -1.0393 -1.0105 0
M  V30 18 H -1.8246 0.7401 -1.1519 0
M  V30 19 H -1.8429 -0.8596 1.4997 0
M  V30 20 H -1.9913 0.9319 1.3572 0
M  V30 21 H -4.1232 -0.1347 1.5778 0
M  V30 22 H -4.0023 0.6156 0.0557 0
M  V30 23 H -3.8614 -1.0846 0.1907 0
M  V30 END ATOM
M  V30 BEGIN BOND
M  V30 1 1 1 2
M  V30 2 2 2 3
M  V30 3 1 2 4
M  V30 4 1 3 5
M  V30 5 1 3 6
M  V30 6 2 4 7
M  V30 7 2 6 8
M  V30 8 1 7 9
M  V30 9 1 9 10
M  V30 10 1 10 11
M  V30 11 1 7 8
M  V30 12 1 1 12
M  V30 13 1 4 13
M  V30 14 1 5 14
M  V30 15 1 6 15
M  V30 16 1 8 16
M  V30 17 1 9 17
M  V30 18 1 9 18
M  V30 19 1 10 19
M  V30 20 1 10 20
M  V30 21 1 11 21
M  V30 22 1 11 22
M  V30 23 1 11 23
M  V30 END BOND
M  V30 END CTAB
M  END
>  <Structure No>
6883

>  <LogS>
0.12

>  <MMFF94 Energy>
19.531

$$$$
Compound 6884
Actelion Java MolfileCreator 2.0

  0  0  0  0  0  0              0 V3000
M  V30 BEGIN CTAB
M  V30 COUNTS 22 22 0 0 0
M  V30 BEGIN ATOM
M  V30 1 O 1.3323 1.7245 -0.3917 0
M  V30 2 C 1.546 0.4872 -0.5052 0
M  V30 3 N 0.4537 -0.4449 -0.5439 0
M  V30 4 C 2.957 -0.0082 -0.6052 0
M  V30 5 C -0.9077 -0.1063 -0.2289 0
M  V30 6 C 3.4323 -0.5448 0.7398 0
M  V30 7 C -1.219 0.8271 0.7779 0
M  V30 8 C -1.9527 -0.7655 -0.8957 0
M  V30 9 C -2.553 1.1187 1.0808 0
M  V30 10 C -3.285 -0.4703 -0.5905 0
M  V30 11 C -3.5851 0.4742 0.3941 0
M  V30 12 H 0.6498 -1.409 -0.8972 0
M  V30 13 H 3.6269 0.8181 -0.9281 0
M  V30 14 H 3.0162 -0.8143 -1.3675 0
M  V30 15 H 2.7936 -1.3941 1.0645 0
M  V30 16 H 4.4793 -0.9026 0.6482 0
M  V30 17 H 3.3958 0.2564 1.5089 0
M  V30 18 H -0.4372 1.3103 1.348 0
M  V30 19 H -1.7329 -1.501 -1.6593 0
M  V30 20 H -2.7867 1.8381 1.8552 0
M  V30 21 H -4.085 -0.9758 -1.116 0
M  V30 22 H -4.6169 0.7001 0.6312 0
M  V30 END ATOM
M  V30 BEGIN BOND
M  V30 1 2 1 2
M  V30 2 1 2 3
M  V30 3 1 2 4
M  V30 4 1 3 5
M  V30 5 1 4 6
M  V30 6 2 5 7
M  V30 7 1 5 8
M  V30 8 1 7 9
M  V30 9 2 8 10
M  V30 10 2 9 11
M  V30 11 1 10 11
M  V30 12 1 3 12
M  V30 13 1 4 13
M  V30 14 1 4 14
M  V30 15 1 6 15
M  V30 16 1 6 16
M  V30 17 1 6 17
M  V30 18 1 7 18
M  V30 19 1 8 19
M  V30 20 1 9 20
M  V30 21 1 10 21
M  V30 22 1 11 22
M  V30 END BOND
M  V30 END CTAB
M  END
>  <Structure No>
6884

>  <LogS>
-1.55

>  <MMFF94 Energy>
-1.2246

$$$$
Compound 6885
Actelion Java MolfileCreator 2.0

  0  0  0  0  0  0              0 V3000
M  V30 BEGIN CTAB
M  V30 COUNTS 28 28 0 0 0
M  V30 BEGIN ATOM
M  V30 1 S -3.6278 -3.0628 -0.4831 0
M  V30 2 C -2.4295 -1.9686 -0.2679 0
M  V30 3 N -1.7667 -1.4039 -1.3962 0
M  V30 4 N -1.9963 -1.6324 1.0479 0
M  V30 5 C -0.71 -0.4554 -1.2282 0
M  V30 6 C -0.9832 -0.6455 1.263 0
M  V30 7 O -0.0241 -0.1304 -2.2358 0
M  V30 8 C -0.4501 0.2137 0.1196 0
M  V30 9 O -0.5967 -0.423 2.4433 0
M  V30 10 C 1.0812 0.454 0.3173 0
M  V30 11 C -1.2319 1.5594 0.1874 0
M  V30 12 C 1.9102 -0.8447 0.3755 0
M  V30 13 C -0.8608 2.599 -0.8768 0
M  V30 14 C 3.3973 -0.5405 0.5327 0
M  V30 15 H -2.0143 -1.7276 -2.3586 0
M  V30 16 H -2.4169 -2.1192 1.8717 0
M  V30 17 H 1.4782 1.0738 -0.5146 0
M  V30 18 H 1.2491 1.0296 1.2548 0
M  V30 19 H -1.0782 2.0283 1.1851 0
M  V30 20 H -2.3219 1.3534 0.0932 0
M  V30 21 H 1.7666 -1.4328 -0.5557 0
M  V30 22 H 1.5887 -1.4706 1.2345 0
M  V30 23 H -1.5039 3.4949 -0.7468 0
M  V30 24 H -1.0335 2.2067 -1.8993 0
M  V30 25 H 0.1929 2.9258 -0.7691 0
M  V30 26 H 3.7633 0.054 -0.3311 0
M  V30 27 H 3.578 0.0257 1.4712 0
M  V30 28 H 3.9689 -1.4914 0.5763 0
M  V30 END ATOM
M  V30 BEGIN BOND
M  V30 1 2 1 2
M  V30 2 1 2 3
M  V30 3 1 2 4
M  V30 4 1 3 5
M  V30 5 1 4 6
M  V30 6 2 5 7
M  V30 7 1 5 8
M  V30 8 2 6 9
M  V30 9 1 8 10
M  V30 10 1 8 11
M  V30 11 1 10 12
M  V30 12 1 11 13
M  V30 13 1 12 14
M  V30 14 1 6 8
M  V30 15 1 3 15
M  V30 16 1 4 16
M  V30 17 1 10 17
M  V30 18 1 10 18
M  V30 19 1 11 19
M  V30 20 1 11 20
M  V30 21 1 12 21
M  V30 22 1 12 22
M  V30 23 1 13 23
M  V30 24 1 13 24
M  V30 25 1 13 25
M  V30 26 1 14 26
M  V30 27 1 14 27
M  V30 28 1 14 28
M  V30 END BOND
M  V30 END CTAB
M  END
>  <Structure No>
6885

>  <LogS>
-2.8

>  <MMFF94 Energy>
-100.82

$$$$
Compound 6886
Actelion Java MolfileCreator 2.0

  0  0  0  0  0  0              0 V3000
M  V30 BEGIN CTAB
M  V30 COUNTS 48 51 0 0 0
M  V30 BEGIN ATOM
M  V30 1 O -5.3503 -0.7283 1.1331 0
M  V30 2 C -4.3411 -0.416 0.5196 0
M  V30 3 C -3.6282 0.8635 0.8395 0
M  V30 4 C -3.861 -1.2589 -0.6217 0
M  V30 5 C -2.0972 0.651 0.8692 0 CFG=1
M  V30 6 C -2.3436 -1.4603 -0.5264 0
M  V30 7 C -1.5384 -0.1249 -0.373 0 CFG=2
M  V30 8 C -1.3825 2.0011 1.1028 0
M  V30 9 C -0.0205 -0.4774 -0.0869 0 CFG=2
M  V30 10 C -1.7017 0.7039 -1.6817 0
M  V30 11 C 0.1206 1.9873 0.7772 0
M  V30 12 C 0.748 0.5813 0.809 0 CFG=2
M  V30 13 C 0.7843 -0.9159 -1.3611 0
M  V30 14 C 2.2265 0.6572 0.3774 0 CFG=2
M  V30 15 C 2.2424 -1.3913 -1.0721 0
M  V30 16 C 2.8533 -0.7326 0.192 0 CFG=1
M  V30 17 C 3.2439 1.4264 1.2159 0
M  V30 18 C 4.3001 -0.3514 0.1004 0
M  V30 19 C 2.7214 -1.669 1.4263 0
M  V30 20 C 4.5211 0.8024 0.7366 0
M  V30 21 H -3.9123 1.6265 0.085 0
M  V30 22 H -3.9631 1.2384 1.832 0
M  V30 23 H -4.3611 -2.2517 -0.5991 0
M  V30 24 H -4.1293 -0.7693 -1.5811 0
M  V30 25 H -1.8912 0.0209 1.7662 0
M  V30 26 H -2.1541 -2.1215 0.3485 0
M  V30 27 H -2.0091 -2.0165 -1.4278 0
M  V30 28 H -1.8589 2.7989 0.491 0
M  V30 29 H -1.52 2.2898 2.1685 0
M  V30 30 H -0.053 -1.3908 0.5386 0
M  V30 31 H -1.0041 1.5586 -1.7292 0
M  V30 32 H -2.7263 1.1098 -1.79 0
M  V30 33 H -1.5115 0.0718 -2.5748 0
M  V30 34 H 0.2943 2.4582 -0.2122 0
M  V30 35 H 0.6431 2.635 1.5151 0
M  V30 36 H 0.7107 0.2397 1.8683 0
M  V30 37 H 0.2496 -1.7325 -1.8894 0
M  V30 38 H 0.8422 -0.0592 -2.0656 0
M  V30 39 H 2.2399 1.1729 -0.6158 0
M  V30 40 H 2.8671 -1.1517 -1.9607 0
M  V30 41 H 2.2535 -2.4989 -0.9723 0
M  V30 42 H 3.2222 2.5144 0.991 0
M  V30 43 H 3.1042 1.2462 2.303 0
M  V30 44 H 5.0897 -0.9905 -0.2814 0
M  V30 45 H 3.0295 -1.1559 2.3617 0
M  V30 46 H 3.3773 -2.557 1.2962 0
M  V30 47 H 1.6966 -2.0509 1.5748 0
M  V30 48 H 5.5085 1.2216 0.898 0
M  V30 END ATOM
M  V30 BEGIN BOND
M  V30 1 2 1 2
M  V30 2 1 2 3
M  V30 3 1 2 4
M  V30 4 1 3 5
M  V30 5 1 4 6
M  V30 6 1 5 7
M  V30 7 1 5 8
M  V30 8 1 7 9
M  V30 9 1 7 10
M  V30 10 1 8 11
M  V30 11 1 9 12
M  V30 12 1 9 13
M  V30 13 1 12 14
M  V30 14 1 13 15
M  V30 15 1 14 16
M  V30 16 1 14 17
M  V30 17 1 16 18
M  V30 18 1 16 19
M  V30 19 1 17 20
M  V30 20 1 6 7
M  V30 21 1 11 12
M  V30 22 1 15 16
M  V30 23 2 18 20
M  V30 24 1 3 21
M  V30 25 1 3 22
M  V30 26 1 4 23
M  V30 27 1 4 24
M  V30 28 1 5 25
M  V30 29 1 6 26
M  V30 30 1 6 27
M  V30 31 1 8 28
M  V30 32 1 8 29
M  V30 33 1 9 30
M  V30 34 1 10 31
M  V30 35 1 10 32
M  V30 36 1 10 33
M  V30 37 1 11 34
M  V30 38 1 11 35
M  V30 39 1 12 36
M  V30 40 1 13 37
M  V30 41 1 13 38
M  V30 42 1 14 39
M  V30 43 1 15 40
M  V30 44 1 15 41
M  V30 45 1 17 42
M  V30 46 1 17 43
M  V30 47 1 18 44
M  V30 48 1 19 45
M  V30 49 1 19 46
M  V30 50 1 19 47
M  V30 51 1 20 48
M  V30 END BOND
M  V30 BEGIN COLLECTION
M  V30 MDLV30/STEABS ATOMS=(6 5 7 9 12 14 16)
M  V30 END COLLECTION
M  V30 END CTAB
M  END
>  <Structure No>
6886

>  <LogS>
-6.07

>  <MMFF94 Energy>
81.099

$$$$
Compound 6887
Actelion Java MolfileCreator 2.0

  0  0  0  0  0  0              0 V3000
M  V30 BEGIN CTAB
M  V30 COUNTS 32 32 0 0 0
M  V30 BEGIN ATOM
M  V30 1 O -1.5113 -3.7417 -2.5464 0
M  V30 2 C -1.471 -2.7832 -1.7304 0
M  V30 3 N -0.8938 -2.9651 -0.443 0
M  V30 4 N -2.0298 -1.522 -2.0814 0
M  V30 5 C -0.8308 -1.8837 0.4902 0
M  V30 6 C -1.9316 -0.3973 -1.2016 0
M  V30 7 O -0.5124 -2.1391 1.6841 0
M  V30 8 C -1.0471 -0.4342 0.0487 0
M  V30 9 O -2.5036 0.6737 -1.54 0
M  V30 10 C -1.7474 0.3405 1.2195 0
M  V30 11 C 0.3282 0.1836 -0.3459 0
M  V30 12 C -1.9677 1.8173 0.9822 0
M  V30 13 C 1.4269 0.0843 0.7352 0
M  V30 14 C -1.0629 2.741 1.3201 0
M  V30 15 C 2.6385 0.9768 0.4253 0
M  V30 16 C 3.4204 0.5069 -0.8007 0
M  V30 17 H -0.5723 -3.9163 -0.1534 0
M  V30 18 H -2.5311 -1.4201 -2.9926 0
M  V30 19 H -1.1962 0.2162 2.176 0
M  V30 20 H -2.7456 -0.1196 1.3913 0
M  V30 21 H 0.1872 1.2464 -0.6381 0
M  V30 22 H 0.7005 -0.3416 -1.2536 0
M  V30 23 H -2.9179 2.1459 0.5717 0
M  V30 24 H 1.0269 0.3943 1.7205 0
M  V30 25 H 1.767 -0.9693 0.8329 0
M  V30 26 H -0.1163 2.4654 1.7708 0
M  V30 27 H -1.2738 3.792 1.1524 0
M  V30 28 H 2.3097 2.0286 0.2771 0
M  V30 29 H 3.3212 0.9599 1.3025 0
M  V30 30 H 2.8158 0.6326 -1.7229 0
M  V30 31 H 4.3424 1.1164 -0.9061 0
M  V30 32 H 3.7117 -0.5592 -0.6907 0
M  V30 END ATOM
M  V30 BEGIN BOND
M  V30 1 2 1 2
M  V30 2 1 2 3
M  V30 3 1 2 4
M  V30 4 1 3 5
M  V30 5 1 4 6
M  V30 6 2 5 7
M  V30 7 1 5 8
M  V30 8 2 6 9
M  V30 9 1 8 10
M  V30 10 1 8 11
M  V30 11 1 10 12
M  V30 12 1 11 13
M  V30 13 2 12 14
M  V30 14 1 13 15
M  V30 15 1 15 16
M  V30 16 1 6 8
M  V30 17 1 3 17
M  V30 18 1 4 18
M  V30 19 1 10 19
M  V30 20 1 10 20
M  V30 21 1 11 21
M  V30 22 1 11 22
M  V30 23 1 12 23
M  V30 24 1 13 24
M  V30 25 1 13 25
M  V30 26 1 14 26
M  V30 27 1 14 27
M  V30 28 1 15 28
M  V30 29 1 15 29
M  V30 30 1 16 30
M  V30 31 1 16 31
M  V30 32 1 16 32
M  V30 END BOND
M  V30 END CTAB
M  END
>  <Structure No>
6887

>  <LogS>
-2.17

>  <MMFF94 Energy>
-117.17

$$$$
Compound 6888
Actelion Java MolfileCreator 2.0

  0  0  0  0  0  0              0 V3000
M  V30 BEGIN CTAB
M  V30 COUNTS 20 20 0 0 0
M  V30 BEGIN ATOM
M  V30 1 O 3.4288 -1.9126 0.4779 0
M  V30 2 C 3.1764 -0.6782 0.4871 0
M  V30 3 O 4.2033 0.2168 0.7642 0 CHG=-1
M  V30 4 C 1.8083 -0.1869 0.2073 0
M  V30 5 C 0.766 -1.0869 -0.0733 0
M  V30 6 C 1.5355 1.1887 0.2201 0
M  V30 7 C -0.5358 -0.6255 -0.3372 0
M  V30 8 C 0.2485 1.6587 -0.0454 0
M  V30 9 C -0.7956 0.7651 -0.3316 0
M  V30 10 C -1.6256 -1.6215 -0.6384 0
M  V30 11 C -2.1742 1.3051 -0.6097 0
M  V30 12 H 0.966 -2.1516 -0.0861 0
M  V30 13 H 2.3176 1.9061 0.4351 0
M  V30 14 H 0.0688 2.7268 -0.0281 0
M  V30 15 H -1.2695 -2.6675 -0.5247 0
M  V30 16 H -2.4769 -1.4755 0.0588 0
M  V30 17 H -1.9774 -1.4876 -1.6825 0
M  V30 18 H -2.8735 0.9766 0.1873 0
M  V30 19 H -2.1815 2.4156 -0.64 0
M  V30 20 H -2.5357 0.9363 -1.5923 0
M  V30 END ATOM
M  V30 BEGIN BOND
M  V30 1 2 1 2
M  V30 2 1 2 3
M  V30 3 1 2 4
M  V30 4 2 4 5
M  V30 5 1 4 6
M  V30 6 1 5 7
M  V30 7 2 6 8
M  V30 8 2 7 9
M  V30 9 1 7 10
M  V30 10 1 9 11
M  V30 11 1 8 9
M  V30 12 1 5 12
M  V30 13 1 6 13
M  V30 14 1 8 14
M  V30 15 1 10 15
M  V30 16 1 10 16
M  V30 17 1 10 17
M  V30 18 1 11 18
M  V30 19 1 11 19
M  V30 20 1 11 20
M  V30 END BOND
M  V30 END CTAB
M  END
>  <Structure No>
6888

>  <LogS>
-3.16

>  <MMFF94 Energy>
43.313

$$$$
Compound 6889
Actelion Java MolfileCreator 2.0

  0  0  0  0  0  0              0 V3000
M  V30 BEGIN CTAB
M  V30 COUNTS 20 20 0 0 0
M  V30 BEGIN ATOM
M  V30 1 O -3.5095 -0.2389 0.0796 0
M  V30 2 C -2.5899 -1.0971 0.0353 0
M  V30 3 O -2.937 -2.4436 0.0284 0 CHG=-1
M  V30 4 C -1.1595 -0.6962 -0.0451 0
M  V30 5 C -0.688 0.5923 0.334 0
M  V30 6 C -0.2327 -1.6451 -0.5152 0
M  V30 7 C 0.6785 0.8967 0.1915 0
M  V30 8 C -1.6004 1.651 0.8989 0
M  V30 9 C 1.12 -1.3289 -0.639 0
M  V30 10 C 1.5802 -0.0513 -0.3071 0
M  V30 11 C 3.0409 0.2759 -0.4105 0
M  V30 12 H -0.5555 -2.6383 -0.8024 0
M  V30 13 H 1.0471 1.8757 0.4757 0
M  V30 14 H -1.0289 2.5149 1.3006 0
M  V30 15 H -2.2752 2.0296 0.1029 0
M  V30 16 H -2.1968 1.2339 1.7375 0
M  V30 17 H 1.8089 -2.0821 -1.0017 0
M  V30 18 H 3.5408 0.0405 0.5521 0
M  V30 19 H 3.1852 1.3532 -0.64 0
M  V30 20 H 3.5195 -0.3138 -1.2211 0
M  V30 END ATOM
M  V30 BEGIN BOND
M  V30 1 2 1 2
M  V30 2 1 2 3
M  V30 3 1 2 4
M  V30 4 2 4 5
M  V30 5 1 4 6
M  V30 6 1 5 7
M  V30 7 1 5 8
M  V30 8 2 6 9
M  V30 9 2 7 10
M  V30 10 1 10 11
M  V30 11 1 9 10
M  V30 12 1 6 12
M  V30 13 1 7 13
M  V30 14 1 8 14
M  V30 15 1 8 15
M  V30 16 1 8 16
M  V30 17 1 9 17
M  V30 18 1 11 18
M  V30 19 1 11 19
M  V30 20 1 11 20
M  V30 END BOND
M  V30 END CTAB
M  END
>  <Structure No>
6889

>  <LogS>
-2.97

>  <MMFF94 Energy>
46.254

$$$$
Compound 6890
Actelion Java MolfileCreator 2.0

  0  0  0  0  0  0              0 V3000
M  V30 BEGIN CTAB
M  V30 COUNTS 20 20 0 0 0
M  V30 BEGIN ATOM
M  V30 1 O -1.1952 -3.1098 0.4779 0
M  V30 2 C -1.5909 -2.0046 0.0199 0
M  V30 3 O -2.8774 -1.9222 -0.4979 0 CHG=-1
M  V30 4 C -0.6747 -0.8336 0.002 0
M  V30 5 C -1.141 0.5089 -0.0359 0
M  V30 6 C 0.7139 -1.0715 0.019 0
M  V30 7 C -0.2094 1.5595 -0.1043 0
M  V30 8 C -2.6071 0.8547 -0.0038 0
M  V30 9 C 1.6304 -0.0122 -0.0155 0
M  V30 10 C 1.1605 1.3015 -0.0996 0
M  V30 11 C 3.1047 -0.2898 -0.0451 0
M  V30 12 H 1.0893 -2.088 0.0427 0
M  V30 13 H -0.5436 2.5886 -0.1557 0
M  V30 14 H -2.7672 1.936 0.1955 0
M  V30 15 H -3.0713 0.6139 -0.9826 0
M  V30 16 H -3.1163 0.2942 0.8081 0
M  V30 17 H 1.8559 2.1301 -0.1565 0
M  V30 18 H 3.433 -0.429 -1.0962 0
M  V30 19 H 3.3416 -1.2079 0.5335 0
M  V30 20 H 3.6727 0.5532 0.4031 0
M  V30 END ATOM
M  V30 BEGIN BOND
M  V30 1 2 1 2
M  V30 2 1 2 3
M  V30 3 1 2 4
M  V30 4 2 4 5
M  V30 5 1 4 6
M  V30 6 1 5 7
M  V30 7 1 5 8
M  V30 8 2 6 9
M  V30 9 2 7 10
M  V30 10 1 9 11
M  V30 11 1 9 10
M  V30 12 1 6 12
M  V30 13 1 7 13
M  V30 14 1 8 14
M  V30 15 1 8 15
M  V30 16 1 8 16
M  V30 17 1 10 17
M  V30 18 1 11 18
M  V30 19 1 11 19
M  V30 20 1 11 20
M  V30 END BOND
M  V30 END CTAB
M  END
>  <Structure No>
6890

>  <LogS>
-2.92

>  <MMFF94 Energy>
46.143

$$$$
Compound 6891
Actelion Java MolfileCreator 2.0

  0  0  0  0  0  0              0 V3000
M  V30 BEGIN CTAB
M  V30 COUNTS 21 21 0 0 0
M  V30 BEGIN ATOM
M  V30 1 O 2.2697 -1.2517 0.9387 0
M  V30 2 C 1.6737 -0.2612 0.4328 0
M  V30 3 N 2.4397 0.8587 -0.0374 0
M  V30 4 C 0.1926 -0.268 0.3526 0
M  V30 5 C 3.8958 0.8174 -0.0929 0
M  V30 6 C -0.5546 -1.0783 1.2268 0
M  V30 7 C -0.4892 0.5068 -0.6041 0
M  V30 8 C -1.9508 -1.0982 1.159 0
M  V30 9 C -1.8857 0.4842 -0.6703 0
M  V30 10 C -2.6229 -0.3154 0.212 0
M  V30 11 N -4.0512 -0.3371 0.1425 0
M  V30 12 H 1.9631 1.7481 -0.305 0
M  V30 13 H 4.2227 0.007 -0.7777 0
M  V30 14 H 4.2872 1.7858 -0.4698 0
M  V30 15 H 4.3075 0.6357 0.9221 0
M  V30 16 H -0.0593 -1.6894 1.9713 0
M  V30 17 H 0.0499 1.1123 -1.3198 0
M  V30 18 H -2.5084 -1.7235 1.8449 0
M  V30 19 H -2.393 1.0854 -1.4144 0
M  V30 20 H -4.6093 -0.9318 0.7951 0
M  V30 21 H -4.5611 0.2417 -0.5614 0
M  V30 END ATOM
M  V30 BEGIN BOND
M  V30 1 2 1 2
M  V30 2 1 2 3
M  V30 3 1 2 4
M  V30 4 1 3 5
M  V30 5 2 4 6
M  V30 6 1 4 7
M  V30 7 1 6 8
M  V30 8 2 7 9
M  V30 9 2 8 10
M  V30 10 1 10 11
M  V30 11 1 9 10
M  V30 12 1 3 12
M  V30 13 1 5 13
M  V30 14 1 5 14
M  V30 15 1 5 15
M  V30 16 1 6 16
M  V30 17 1 7 17
M  V30 18 1 8 18
M  V30 19 1 9 19
M  V30 20 1 11 20
M  V30 21 1 11 21
M  V30 END BOND
M  V30 END CTAB
M  END
>  <Structure No>
6891

>  <LogS>
-1.24

>  <MMFF94 Energy>
-1.2988

$$$$
Compound 6892
Actelion Java MolfileCreator 2.0

  0  0  0  0  0  0              0 V3000
M  V30 BEGIN CTAB
M  V30 COUNTS 15 15 0 0 0
M  V30 BEGIN ATOM
M  V30 1 S 4.5493 -1.217 0.1622 0
M  V30 2 C 3.3547 -0.1882 -0.1702 0
M  V30 3 N 2.4105 0.6248 -0.4329 0
M  V30 4 C 1.0216 0.339 -0.2059 0
M  V30 5 C 0.5848 -0.8871 0.3359 0
M  V30 6 C 0.0728 1.3156 -0.536 0
M  V30 7 C -0.7786 -1.1213 0.5395 0
M  V30 8 C -1.2898 1.0787 -0.3313 0
M  V30 9 C -1.7189 -0.1412 0.2074 0
M  V30 10 O -3.0737 -0.3886 0.4159 0
M  V30 11 H 1.2923 -1.6617 0.6013 0
M  V30 12 H 0.392 2.2626 -0.953 0
M  V30 13 H -1.1049 -2.0656 0.9563 0
M  V30 14 H -2.0105 1.8434 -0.5915 0
M  V30 15 H -3.7794 0.301 0.1855 0
M  V30 END ATOM
M  V30 BEGIN BOND
M  V30 1 2 1 2
M  V30 2 2 2 3
M  V30 3 1 3 4
M  V30 4 2 4 5
M  V30 5 1 4 6
M  V30 6 1 5 7
M  V30 7 2 6 8
M  V30 8 2 7 9
M  V30 9 1 9 10
M  V30 10 1 8 9
M  V30 11 1 5 11
M  V30 12 1 6 12
M  V30 13 1 7 13
M  V30 14 1 8 14
M  V30 15 1 10 15
M  V30 END BOND
M  V30 END CTAB
M  END
>  <Structure No>
6892

>  <LogS>
-2.67

>  <MMFF94 Energy>
0.0043364

$$$$
Compound 6893
Actelion Java MolfileCreator 2.0

  0  0  0  0  0  0              0 V3000
M  V30 BEGIN CTAB
M  V30 COUNTS 31 31 0 0 0
M  V30 BEGIN ATOM
M  V30 1 S -2.9745 3.6186 0.7229 0
M  V30 2 C -2.2773 2.1526 0.5134 0
M  V30 3 N -2.1413 1.2614 1.6178 0
M  V30 4 N -1.8714 1.7339 -0.787 0
M  V30 5 C -1.4906 -0.0039 1.4701 0
M  V30 6 C -1.2699 0.4529 -0.9907 0
M  V30 7 O -1.4407 -0.7779 2.4652 0
M  V30 8 C -0.7611 -0.3806 0.1829 0
M  V30 9 O -1.107 0.0427 -2.1724 0
M  V30 10 C 0.7449 -0.0634 0.4296 0
M  V30 11 C -0.9687 -1.9026 -0.1052 0
M  V30 12 C 1.6858 -0.3161 -0.7683 0
M  V30 13 C -2.4414 -2.3137 -0.2351 0
M  V30 14 C 3.1604 -0.0575 -0.4188 0
M  V30 15 C 3.4778 1.4273 -0.2414 0
M  V30 16 H -2.5284 1.53 2.5508 0
M  V30 17 H -2.0664 2.344 -1.6127 0
M  V30 18 H 1.1058 -0.667 1.2924 0
M  V30 19 H 0.8301 1.0059 0.7225 0
M  V30 20 H -0.5052 -2.5081 0.7043 0
M  V30 21 H -0.4641 -2.1928 -1.05 0
M  V30 22 H 1.608 -1.375 -1.0869 0
M  V30 23 H 1.4008 0.3234 -1.63 0
M  V30 24 H -2.9399 -1.746 -1.0481 0
M  V30 25 H -2.5008 -3.3952 -0.4792 0
M  V30 26 H -2.9883 -2.1456 0.7155 0
M  V30 27 H 3.4396 -0.6114 0.5036 0
M  V30 28 H 3.7902 -0.4488 -1.247 0
M  V30 29 H 2.986 1.8304 0.6675 0
M  V30 30 H 4.5742 1.5578 -0.1247 0
M  V30 31 H 3.1467 2.0057 -1.13 0
M  V30 END ATOM
M  V30 BEGIN BOND
M  V30 1 2 1 2
M  V30 2 1 2 3
M  V30 3 1 2 4
M  V30 4 1 3 5
M  V30 5 1 4 6
M  V30 6 2 5 7
M  V30 7 1 5 8
M  V30 8 2 6 9
M  V30 9 1 8 10
M  V30 10 1 8 11
M  V30 11 1 10 12
M  V30 12 1 11 13
M  V30 13 1 12 14
M  V30 14 1 14 15
M  V30 15 1 6 8
M  V30 16 1 3 16
M  V30 17 1 4 17
M  V30 18 1 10 18
M  V30 19 1 10 19
M  V30 20 1 11 20
M  V30 21 1 11 21
M  V30 22 1 12 22
M  V30 23 1 12 23
M  V30 24 1 13 24
M  V30 25 1 13 25
M  V30 26 1 13 26
M  V30 27 1 14 27
M  V30 28 1 14 28
M  V30 29 1 15 29
M  V30 30 1 15 30
M  V30 31 1 15 31
M  V30 END BOND
M  V30 END CTAB
M  END
>  <Structure No>
6893

>  <LogS>
-3.14

>  <MMFF94 Energy>
-99.071

$$$$
Compound 6894
Actelion Java MolfileCreator 2.0

  0  0  0  0  0  0              0 V3000
M  V30 BEGIN CTAB
M  V30 COUNTS 15 15 0 0 0
M  V30 BEGIN ATOM
M  V30 1 S 4.6312 -0.1622 0.1622 0
M  V30 2 C 3.1414 -0.7694 0.0704 0
M  V30 3 N 1.964 -1.2492 -0.002 0
M  V30 4 C 0.7715 -0.449 0.0039 0
M  V30 5 C -0.47 -1.0939 -0.081 0
M  V30 6 C 0.8105 0.9578 0.0925 0
M  V30 7 C -1.66 -0.3516 -0.0785 0
M  V30 8 C -0.3769 1.6958 0.0948 0
M  V30 9 O -2.8954 -0.9899 -0.163 0
M  V30 10 C -1.609 1.0429 0.0096 0
M  V30 11 H -0.51 -2.1741 -0.1493 0
M  V30 12 H 1.753 1.4857 0.1595 0
M  V30 13 H -0.3417 2.7756 0.163 0
M  V30 14 H -2.9668 -1.9987 -0.2279 0
M  V30 15 H -2.5248 1.6206 0.012 0
M  V30 END ATOM
M  V30 BEGIN BOND
M  V30 1 2 1 2
M  V30 2 2 2 3
M  V30 3 1 3 4
M  V30 4 2 4 5
M  V30 5 1 4 6
M  V30 6 1 5 7
M  V30 7 2 6 8
M  V30 8 1 7 9
M  V30 9 2 7 10
M  V30 10 1 8 10
M  V30 11 1 5 11
M  V30 12 1 6 12
M  V30 13 1 8 13
M  V30 14 1 9 14
M  V30 15 1 10 15
M  V30 END BOND
M  V30 END CTAB
M  END
>  <Structure No>
6894

>  <LogS>
-1.99

>  <MMFF94 Energy>
0.50049

$$$$
Compound 6895
Actelion Java MolfileCreator 2.0

  0  0  0  0  0  0              0 V3000
M  V30 BEGIN CTAB
M  V30 COUNTS 46 49 0 0 0
M  V30 BEGIN ATOM
M  V30 1 O 6.1664 0.0 0.1619 0
M  V30 2 C 4.9344 -0.1781 -0.0299 0
M  V30 3 C 4.0324 -0.3409 1.1173 0
M  V30 4 C 4.406 -0.3032 -1.4221 0
M  V30 5 C 2.7028 -0.4689 0.9591 0
M  V30 6 C 2.9585 0.1844 -1.484 0
M  V30 7 C 2.0656 -0.5265 -0.4318 0 CFG=2
M  V30 8 C 1.8679 -0.8339 2.1605 0
M  V30 9 C 0.6235 0.0803 -0.4223 0 CFG=2
M  V30 10 C 0.5028 -0.1574 2.1036 0
M  V30 11 C -0.2038 -0.465 0.7719 0 CFG=1
M  V30 12 C -0.1223 -0.2201 -1.7414 0
M  V30 13 C -1.674 0.0435 0.7897 0 CFG=2
M  V30 14 C -1.5383 0.3663 -1.7389 0
M  V30 15 C -2.4141 -0.1277 -0.5498 0 CFG=2
M  V30 16 C -1.8591 1.5209 1.164 0
M  V30 17 C -3.6333 0.814 -0.3941 0 CFG=2
M  V30 18 C -2.8491 -1.5957 -0.7846 0
M  V30 19 C -3.1389 1.9849 0.4668 0
M  V30 20 O -4.6916 0.1646 0.268 0
M  V30 21 H 4.4701 -0.3708 2.1085 0
M  V30 22 H 4.4574 -1.3686 -1.7339 0
M  V30 23 H 5.0276 0.2993 -2.1195 0
M  V30 24 H 2.5895 -0.0168 -2.51 0
M  V30 25 H 2.9386 1.2844 -1.3168 0
M  V30 26 H 1.9944 -1.6018 -0.71 0
M  V30 27 H 1.7374 -1.9376 2.1843 0
M  V30 28 H 2.3669 -0.5299 3.1074 0
M  V30 29 H 0.7184 1.1836 -0.3192 0
M  V30 30 H -0.1127 -0.5283 2.9521 0
M  V30 31 H 0.6372 0.9393 2.2295 0
M  V30 32 H -0.252 -1.5735 0.6725 0
M  V30 33 H 0.4099 0.2412 -2.5972 0
M  V30 34 H -0.1579 -1.3146 -1.9259 0
M  V30 35 H -2.2167 -0.5484 1.5639 0
M  V30 36 H -1.4433 1.4748 -1.7155 0
M  V30 37 H -2.0342 0.1135 -2.7018 0
M  V30 38 H -1.0083 2.1412 0.8128 0
M  V30 39 H -1.9463 1.6372 2.2666 0
M  V30 40 H -3.9845 1.1764 -1.3899 0
M  V30 41 H -1.9726 -2.2634 -0.905 0
M  V30 42 H -3.4388 -1.9852 0.0722 0
M  V30 43 H -3.4737 -1.6689 -1.7004 0
M  V30 44 H -3.9031 2.2921 1.2144 0
M  V30 45 H -2.919 2.8624 -0.1805 0
M  V30 46 H -5.5031 0.7181 0.1226 0
M  V30 END ATOM
M  V30 BEGIN BOND
M  V30 1 2 1 2
M  V30 2 1 2 3
M  V30 3 1 2 4
M  V30 4 2 3 5
M  V30 5 1 4 6
M  V30 6 1 5 7
M  V30 7 1 5 8
M  V30 8 1 7 9
M  V30 9 1 8 10
M  V30 10 1 9 11
M  V30 11 1 9 12
M  V30 12 1 11 13
M  V30 13 1 12 14
M  V30 14 1 13 15
M  V30 15 1 13 16
M  V30 16 1 15 17
M  V30 17 1 15 18
M  V30 18 1 16 19
M  V30 19 1 17 20
M  V30 20 1 6 7
M  V30 21 1 10 11
M  V30 22 1 14 15
M  V30 23 1 17 19
M  V30 24 1 3 21
M  V30 25 1 4 22
M  V30 26 1 4 23
M  V30 27 1 6 24
M  V30 28 1 6 25
M  V30 29 1 7 26
M  V30 30 1 8 27
M  V30 31 1 8 28
M  V30 32 1 9 29
M  V30 33 1 10 30
M  V30 34 1 10 31
M  V30 35 1 11 32
M  V30 36 1 12 33
M  V30 37 1 12 34
M  V30 38 1 13 35
M  V30 39 1 14 36
M  V30 40 1 14 37
M  V30 41 1 16 38
M  V30 42 1 16 39
M  V30 43 1 17 40
M  V30 44 1 18 41
M  V30 45 1 18 42
M  V30 46 1 18 43
M  V30 47 1 19 44
M  V30 48 1 19 45
M  V30 49 1 20 46
M  V30 END BOND
M  V30 BEGIN COLLECTION
M  V30 MDLV30/STEABS ATOMS=(6 7 9 11 13 15 17)
M  V30 END COLLECTION
M  V30 END CTAB
M  END
>  <Structure No>
6895

>  <LogS>
-3.02

>  <MMFF94 Energy>
57.836

$$$$
Compound 6896
Actelion Java MolfileCreator 2.0

  0  0  0  0  0  0              0 V3000
M  V30 BEGIN CTAB
M  V30 COUNTS 15 15 0 0 0
M  V30 BEGIN ATOM
M  V30 1 O -3.323 -0.079 0.237 0
M  V30 2 C -2.0677 -0.0428 0.1317 0
M  V30 3 N -1.3639 -1.1992 0.0031 0
M  V30 4 N -1.4191 1.152 0.1515 0
M  V30 5 C -0.0086 -1.1855 -0.1129 0
M  V30 6 C -0.0649 1.2164 0.0387 0
M  V30 7 O 0.6165 -2.276 -0.2136 0
M  V30 8 C 0.6845 0.0375 -0.1179 0 CHG=-1
M  V30 9 O 0.5083 2.3391 0.0776 0
M  V30 10 C 2.1892 0.0784 -0.2074 0
M  V30 11 H -1.8726 -2.113 -0.0019 0
M  V30 12 H -1.9697 2.0346 0.2599 0
M  V30 13 H 2.5753 -0.7703 -0.8099 0
M  V30 14 H 2.5335 1.0136 -0.6973 0
M  V30 15 H 2.6209 0.0242 0.8136 0
M  V30 END ATOM
M  V30 BEGIN BOND
M  V30 1 2 1 2
M  V30 2 1 2 3
M  V30 3 1 2 4
M  V30 4 1 3 5
M  V30 5 1 4 6
M  V30 6 2 5 7
M  V30 7 1 5 8
M  V30 8 2 6 9
M  V30 9 1 8 10
M  V30 10 1 6 8
M  V30 11 1 3 11
M  V30 12 1 4 12
M  V30 13 1 10 13
M  V30 14 1 10 14
M  V30 15 1 10 15
M  V30 END BOND
M  V30 END CTAB
M  END
>  <Structure No>
6896

>  <LogS>
-1.13

>  <MMFF94 Energy>
-179.72

$$$$
Compound 6897
Actelion Java MolfileCreator 2.0

  0  0  0  0  0  0              0 V3000
M  V30 BEGIN CTAB
M  V30 COUNTS 20 20 0 0 0
M  V30 BEGIN ATOM
M  V30 1 O 1.5078 2.2226 -0.0793 0
M  V30 2 C 0.8213 1.1786 0.0912 0
M  V30 3 N -0.6075 1.2682 0.0729 0
M  V30 4 C 1.4985 -0.1373 0.3839 0 CFG=1
M  V30 5 C -1.4604 0.1665 0.526 0 CFG=2
M  V30 6 N 0.607 -1.2565 0.0693 0
M  V30 7 C 2.8043 -0.2786 -0.407 0
M  V30 8 C -0.813 -1.163 0.2269 0
M  V30 9 C -2.8395 0.2747 -0.1355 0
M  V30 10 O -1.5108 -2.212 0.1737 0
M  V30 11 H -1.0367 2.2078 -0.0899 0
M  V30 12 H 1.7368 -0.1702 1.4689 0
M  V30 13 H -1.5887 0.2491 1.6268 0
M  V30 14 H 1.0196 -2.2034 -0.0932 0
M  V30 15 H 3.5152 0.5296 -0.132 0
M  V30 16 H 3.2874 -1.2511 -0.1733 0
M  V30 17 H 2.6026 -0.2315 -1.4989 0
M  V30 18 H -2.7483 0.1779 -1.2388 0
M  V30 19 H -3.5174 -0.5183 0.2457 0
M  V30 20 H -3.299 1.2581 0.101 0
M  V30 END ATOM
M  V30 BEGIN BOND
M  V30 1 2 1 2
M  V30 2 1 2 3
M  V30 3 1 2 4
M  V30 4 1 3 5
M  V30 5 1 4 6
M  V30 6 1 4 7
M  V30 7 1 5 8
M  V30 8 1 5 9
M  V30 9 2 8 10
M  V30 10 1 6 8
M  V30 11 1 3 11
M  V30 12 1 4 12
M  V30 13 1 5 13
M  V30 14 1 6 14
M  V30 15 1 7 15
M  V30 16 1 7 16
M  V30 17 1 7 17
M  V30 18 1 9 18
M  V30 19 1 9 19
M  V30 20 1 9 20
M  V30 END BOND
M  V30 BEGIN COLLECTION
M  V30 MDLV30/STEABS ATOMS=(2 4 5)
M  V30 END COLLECTION
M  V30 END CTAB
M  END
>  <Structure No>
6897

>  <LogS>
-0.75

>  <MMFF94 Energy>
55.099

$$$$
Compound 6898
Actelion Java MolfileCreator 2.0

  0  0  0  0  0  0              0 V3000
M  V30 BEGIN CTAB
M  V30 COUNTS 51 53 0 0 0
M  V30 BEGIN ATOM
M  V30 1 O -1.4506 2.7414 -0.2416 0
M  V30 2 C -1.6022 1.8546 0.6412 0
M  V30 3 O -0.8684 1.9669 1.8157 0 CHG=-1
M  V30 4 C -2.6838 0.7868 0.5065 0 CFG=2
M  V30 5 C -2.1516 -0.6995 0.6564 0 CFG=1
M  V30 6 C -3.4341 0.9103 -0.8508 0
M  V30 7 C -3.7379 1.0919 1.604 0
M  V30 8 C -1.3723 -1.2991 -0.5783 0 CFG=2
M  V30 9 C -1.4024 -1.011 1.9758 0
M  V30 10 C -2.5865 0.4832 -2.0464 0
M  V30 11 C 0.173 -0.9137 -0.5879 0 CFG=2
M  V30 12 C -2.1268 -0.9695 -1.9062 0
M  V30 13 C -1.4283 -2.8574 -0.4651 0
M  V30 14 C 0.0599 -0.6998 1.9198 0
M  V30 15 C 0.7648 -0.6316 0.7824 0
M  V30 16 C 0.6398 0.2127 -1.5349 0
M  V30 17 C 2.1761 -0.1902 0.8518 0
M  V30 18 C 2.1761 0.2581 -1.6014 0
M  V30 19 C 2.8343 0.2571 -0.2359 0
M  V30 20 C 4.282 0.7059 -0.138 0
M  V30 21 C 4.4217 1.9438 0.7563 0
M  V30 22 C 5.1934 -0.4311 0.3412 0
M  V30 23 H -3.0892 -1.2982 0.7307 0
M  V30 24 H -3.7806 1.9555 -1.0127 0
M  V30 25 H -4.349 0.275 -0.8343 0
M  V30 26 H -4.5304 0.3131 1.6289 0
M  V30 27 H -3.2872 1.1605 2.6148 0
M  V30 28 H -4.2304 2.0703 1.4103 0
M  V30 29 H -1.8473 -0.4763 2.8359 0
M  V30 30 H -1.5106 -2.0878 2.2231 0
M  V30 31 H -3.2093 0.5652 -2.9638 0
M  V30 32 H -1.7399 1.1748 -2.1942 0
M  V30 33 H 0.7265 -1.8069 -0.9606 0
M  V30 34 H -3.0488 -1.5918 -1.9708 0
M  V30 35 H -1.5158 -1.2584 -2.7874 0
M  V30 36 H -0.8112 -3.2314 0.3786 0
M  V30 37 H -1.0329 -3.3323 -1.39 0
M  V30 38 H -2.4678 -3.2251 -0.3235 0
M  V30 39 H 0.5477 -0.4866 2.8645 0
M  V30 40 H 0.2852 1.1956 -1.1749 0
M  V30 41 H 0.2781 0.0514 -2.5696 0
M  V30 42 H 2.668 -0.1765 1.8173 0
M  V30 43 H 2.4749 1.1725 -2.1586 0
M  V30 44 H 2.5475 -0.6212 -2.1709 0
M  V30 45 H 4.6374 0.9964 -1.152 0
M  V30 46 H 4.1596 1.71 1.81 0
M  V30 47 H 3.7543 2.7539 0.3914 0
M  V30 48 H 5.4678 2.3168 0.728 0
M  V30 49 H 6.2562 -0.1109 0.2935 0
M  V30 50 H 5.069 -1.32 -0.3135 0
M  V30 51 H 4.9606 -0.7199 1.388 0
M  V30 END ATOM
M  V30 BEGIN BOND
M  V30 1 2 1 2
M  V30 2 1 2 3
M  V30 3 1 2 4
M  V30 4 1 4 5
M  V30 5 1 4 6
M  V30 6 1 4 7
M  V30 7 1 5 8
M  V30 8 1 5 9
M  V30 9 1 6 10
M  V30 10 1 8 11
M  V30 11 1 8 12
M  V30 12 1 8 13
M  V30 13 1 9 14
M  V30 14 1 11 15
M  V30 15 1 11 16
M  V30 16 1 15 17
M  V30 17 1 16 18
M  V30 18 2 17 19
M  V30 19 1 19 20
M  V30 20 1 20 21
M  V30 21 1 20 22
M  V30 22 1 10 12
M  V30 23 2 14 15
M  V30 24 1 18 19
M  V30 25 1 5 23
M  V30 26 1 6 24
M  V30 27 1 6 25
M  V30 28 1 7 26
M  V30 29 1 7 27
M  V30 30 1 7 28
M  V30 31 1 9 29
M  V30 32 1 9 30
M  V30 33 1 10 31
M  V30 34 1 10 32
M  V30 35 1 11 33
M  V30 36 1 12 34
M  V30 37 1 12 35
M  V30 38 1 13 36
M  V30 39 1 13 37
M  V30 40 1 13 38
M  V30 41 1 14 39
M  V30 42 1 16 40
M  V30 43 1 16 41
M  V30 44 1 17 42
M  V30 45 1 18 43
M  V30 46 1 18 44
M  V30 47 1 20 45
M  V30 48 1 21 46
M  V30 49 1 21 47
M  V30 50 1 21 48
M  V30 51 1 22 49
M  V30 52 1 22 50
M  V30 53 1 22 51
M  V30 END BOND
M  V30 BEGIN COLLECTION
M  V30 MDLV30/STEABS ATOMS=(4 4 5 8 11)
M  V30 END COLLECTION
M  V30 END CTAB
M  END
>  <Structure No>
6898

>  <LogS>
-3.8

>  <MMFF94 Energy>
62.033

$$$$
Compound 6899
Actelion Java MolfileCreator 2.0

  0  0  0  0  0  0              0 V3000
M  V30 BEGIN CTAB
M  V30 COUNTS 16 16 0 0 0
M  V30 BEGIN ATOM
M  V30 1 O 2.669 1.4551 -0.4848 0
M  V30 2 C 2.8859 0.3172 0.0085 0
M  V30 3 O 4.1866 -0.0424 0.3391 0 CHG=-1
M  V30 4 C 1.7889 -0.6502 0.197 0
M  V30 5 O 2.0846 -1.8489 0.4522 0
M  V30 6 C 0.36 -0.2714 0.075 0
M  V30 7 C -0.569 -1.203 -0.423 0
M  V30 8 C -0.0994 0.9938 0.4879 0
M  V30 9 C -1.9219 -0.8663 -0.5316 0
M  V30 10 C -1.4536 1.3251 0.378 0
M  V30 11 C -2.3634 0.3977 -0.1343 0
M  V30 12 H -0.2461 -2.1873 -0.739 0
M  V30 13 H 0.5787 1.7183 0.9191 0
M  V30 14 H -2.6284 -1.5864 -0.9235 0
M  V30 15 H -1.7993 2.2997 0.6983 0
M  V30 16 H -3.4112 0.656 -0.2172 0
M  V30 END ATOM
M  V30 BEGIN BOND
M  V30 1 2 1 2
M  V30 2 1 2 3
M  V30 3 1 2 4
M  V30 4 2 4 5
M  V30 5 1 4 6
M  V30 6 2 6 7
M  V30 7 1 6 8
M  V30 8 1 7 9
M  V30 9 2 8 10
M  V30 10 2 9 11
M  V30 11 1 10 11
M  V30 12 1 7 12
M  V30 13 1 8 13
M  V30 14 1 9 14
M  V30 15 1 10 15
M  V30 16 1 11 16
M  V30 END BOND
M  V30 END CTAB
M  END
>  <Structure No>
6899

>  <LogS>
-0.37

>  <MMFF94 Energy>
116.1

$$$$
Compound 6900
Actelion Java MolfileCreator 2.0

  0  0  0  0  0  0              0 V3000
M  V30 BEGIN CTAB
M  V30 COUNTS 52 55 0 0 0
M  V30 BEGIN ATOM
M  V30 1 O -5.1854 -0.9707 0.9707 0
M  V30 2 C -4.3479 -0.205 0.5185 0
M  V30 3 C -2.9469 -0.6039 0.1801 0 CFG=1
M  V30 4 C -4.6395 1.2208 0.168 0
M  V30 5 C -2.2727 0.7708 0.2017 0 CFG=2
M  V30 6 C -2.2374 -1.517 1.2147 0
M  V30 7 C -3.0044 -1.2733 -1.2207 0
M  V30 8 C -3.3019 1.7464 -0.3755 0
M  V30 9 C -0.8439 0.7368 -0.385 0 CFG=2
M  V30 10 C -0.7263 -1.1663 1.4294 0 CFG=2
M  V30 11 C -0.0392 -0.5179 0.1675 0 CFG=2
M  V30 12 C -0.1462 2.0842 -0.1089 0
M  V30 13 O -0.0492 -2.3334 1.8132 0
M  V30 14 C 1.5309 -0.2762 0.292 0 CFG=2
M  V30 15 C 1.3062 2.1423 -0.6052 0
M  V30 16 C 1.9504 0.7571 -0.8117 0 CFG=1
M  V30 17 C 2.294 -1.6173 0.0101 0
M  V30 18 C 1.9167 0.2248 1.7158 0
M  V30 19 C 3.4792 0.9091 -0.9819 0
M  V30 20 C 3.8132 -1.4459 -0.135 0
M  V30 21 C 4.1476 -0.4458 -1.2481 0 CFG=2
M  V30 22 O 5.5389 -0.2965 -1.3809 0
M  V30 23 H -4.937 1.7773 1.0827 0
M  V30 24 H -5.4377 1.2849 -0.6019 0
M  V30 25 H -2.1706 1.0812 1.2718 0
M  V30 26 H -2.7473 -1.4357 2.2004 0
M  V30 27 H -2.3361 -2.581 0.904 0
M  V30 28 H -3.4298 -0.5868 -1.9828 0
M  V30 29 H -3.6545 -2.1742 -1.181 0
M  V30 30 H -2.0187 -1.6077 -1.5857 0
M  V30 31 H -3.2911 1.7173 -1.4865 0
M  V30 32 H -3.1159 2.7875 -0.0331 0
M  V30 33 H -0.9271 0.6392 -1.4912 0
M  V30 34 H -0.6678 -0.4234 2.2587 0
M  V30 35 H -0.1444 -1.2855 -0.623 0
M  V30 36 H -0.7135 2.9 -0.608 0
M  V30 37 H -0.1797 2.3117 0.977 0
M  V30 38 H -0.3109 -2.5239 2.752 0
M  V30 39 H 1.3376 2.6918 -1.5724 0
M  V30 40 H 1.9006 2.7378 0.1226 0
M  V30 41 H 1.5691 0.3707 -1.7859 0
M  V30 42 H 1.9192 -2.0809 -0.9291 0
M  V30 43 H 2.1239 -2.3527 0.821 0
M  V30 44 H 2.9671 0.5692 1.767 0
M  V30 45 H 1.8114 -0.588 2.4642 0
M  V30 46 H 1.2816 1.0638 2.052 0
M  V30 47 H 3.9307 1.3884 -0.0876 0
M  V30 48 H 3.6842 1.5773 -1.8474 0
M  V30 49 H 4.2628 -2.4306 -0.3877 0
M  V30 50 H 4.2571 -1.1187 0.8292 0
M  V30 51 H 3.7594 -0.847 -2.2104 0
M  V30 52 H 5.8889 0.0566 -0.5211 0
M  V30 END ATOM
M  V30 BEGIN BOND
M  V30 1 2 1 2
M  V30 2 1 2 3
M  V30 3 1 2 4
M  V30 4 1 3 5
M  V30 5 1 3 6
M  V30 6 1 3 7
M  V30 7 1 4 8
M  V30 8 1 5 9
M  V30 9 1 6 10
M  V30 10 1 9 11
M  V30 11 1 9 12
M  V30 12 1 10 13
M  V30 13 1 11 14
M  V30 14 1 12 15
M  V30 15 1 14 16
M  V30 16 1 14 17
M  V30 17 1 14 18
M  V30 18 1 16 19
M  V30 19 1 17 20
M  V30 20 1 19 21
M  V30 21 1 21 22
M  V30 22 1 5 8
M  V30 23 1 10 11
M  V30 24 1 15 16
M  V30 25 1 20 21
M  V30 26 1 4 23
M  V30 27 1 4 24
M  V30 28 1 5 25
M  V30 29 1 6 26
M  V30 30 1 6 27
M  V30 31 1 7 28
M  V30 32 1 7 29
M  V30 33 1 7 30
M  V30 34 1 8 31
M  V30 35 1 8 32
M  V30 36 1 9 33
M  V30 37 1 10 34
M  V30 38 1 11 35
M  V30 39 1 12 36
M  V30 40 1 12 37
M  V30 41 1 13 38
M  V30 42 1 15 39
M  V30 43 1 15 40
M  V30 44 1 16 41
M  V30 45 1 17 42
M  V30 46 1 17 43
M  V30 47 1 18 44
M  V30 48 1 18 45
M  V30 49 1 18 46
M  V30 50 1 19 47
M  V30 51 1 19 48
M  V30 52 1 20 49
M  V30 53 1 20 50
M  V30 54 1 21 51
M  V30 55 1 22 52
M  V30 END BOND
M  V30 BEGIN COLLECTION
M  V30 MDLV30/STEABS ATOMS=(8 3 5 9 10 11 14 16 21)
M  V30 END COLLECTION
M  V30 END CTAB
M  END
>  <Structure No>
6900

>  <LogS>
-3.59

>  <MMFF94 Energy>
79.52

$$$$
Compound 6901
Actelion Java MolfileCreator 2.0

  0  0  0  0  0  0              0 V3000
M  V30 BEGIN CTAB
M  V30 COUNTS 15 15 0 0 0
M  V30 BEGIN ATOM
M  V30 1 O 3.0047 -1.2985 -0.5679 0
M  V30 2 C 2.5034 -0.5594 0.3206 0
M  V30 3 O 3.3134 -0.1064 1.3558 0 CHG=-1
M  V30 4 C 1.0748 -0.1782 0.2651 0
M  V30 5 C 0.2499 -0.6339 -0.7807 0
M  V30 6 C 0.5218 0.647 1.2605 0
M  V30 7 C -1.1024 -0.2692 -0.8275 0
M  V30 8 C -0.8274 1.0088 1.2106 0
M  V30 9 C -1.9395 -0.7392 -1.9004 0
M  V30 10 C -1.6391 0.5528 0.1699 0
M  V30 11 N -2.6123 -1.117 -2.7627 0
M  V30 12 H 0.6557 -1.2708 -1.5582 0
M  V30 13 H 1.1302 1.0135 2.0775 0
M  V30 14 H -1.2446 1.6444 1.981 0
M  V30 15 H -2.6833 0.8404 0.1427 0
M  V30 END ATOM
M  V30 BEGIN BOND
M  V30 1 2 1 2
M  V30 2 1 2 3
M  V30 3 1 2 4
M  V30 4 2 4 5
M  V30 5 1 4 6
M  V30 6 1 5 7
M  V30 7 2 6 8
M  V30 8 1 7 9
M  V30 9 2 7 10
M  V30 10 3 9 11
M  V30 11 1 8 10
M  V30 12 1 5 12
M  V30 13 1 6 13
M  V30 14 1 8 14
M  V30 15 1 10 15
M  V30 END BOND
M  V30 END CTAB
M  END
>  <Structure No>
6901

>  <LogS>
-2.63

>  <MMFF94 Energy>
41.351

$$$$
Compound 6902
Actelion Java MolfileCreator 2.0

  0  0  0  0  0  0              0 V3000
M  V30 BEGIN CTAB
M  V30 COUNTS 39 39 0 0 0
M  V30 BEGIN ATOM
M  V30 1 O 3.7378 0.9533 -0.2382 0
M  V30 2 C 3.1554 -0.1498 -0.4256 0
M  V30 3 N 1.7483 -0.1932 -0.7084 0
M  V30 4 N 3.8989 -1.3717 -0.3441 0
M  V30 5 C 0.9228 0.9767 -0.8597 0
M  V30 6 C 5.327 -1.3852 -0.0533 0
M  V30 7 O 1.4602 2.1128 -0.9798 0
M  V30 8 C -0.5901 0.8354 -0.9987 0 CFG=1
M  V30 9 C -1.118 -0.2549 -0.044 0
M  V30 10 C -1.2947 2.1349 -0.6346 0
M  V30 11 C -0.8554 0.5088 -2.4879 0
M  V30 12 C -0.8162 -0.1687 1.2784 0
M  V30 13 C -2.1296 -1.2911 -0.5302 0
M  V30 14 O -2.3683 2.4615 -1.2146 0
M  V30 15 O -0.8026 2.9232 0.4126 0
M  V30 16 C -1.2797 -1.1673 2.3075 0
M  V30 17 C -2.3692 -2.4372 0.4595 0
M  V30 18 C -1.4405 4.121 0.8378 0
M  V30 19 C -2.5501 -1.8942 1.8726 0
M  V30 20 H 1.3033 -1.1333 -0.8056 0
M  V30 21 H 3.4074 -2.281 -0.4966 0
M  V30 22 H 5.876 -0.8204 -0.836 0
M  V30 23 H 5.6989 -2.4312 -0.0377 0
M  V30 24 H 5.5137 -0.9229 0.9387 0
M  V30 25 H -1.9404 0.3857 -2.6929 0
M  V30 26 H -0.482 1.3314 -3.1365 0
M  V30 27 H -0.3309 -0.4241 -2.7875 0
M  V30 28 H -0.1381 0.6047 1.6269 0
M  V30 29 H -1.7872 -1.7488 -1.4808 0
M  V30 30 H -3.0941 -0.7733 -0.723 0
M  V30 31 H -0.4665 -1.9059 2.4751 0
M  V30 32 H -1.4699 -0.6415 3.2675 0
M  V30 33 H -3.2783 -3.0013 0.1588 0
M  V30 34 H -1.506 -3.1389 0.4359 0
M  V30 35 H -2.4706 3.8989 1.1887 0
M  V30 36 H -1.4775 4.8496 5.0E-4 0
M  V30 37 H -0.8632 4.5637 1.675 0
M  V30 38 H -3.416 -1.1961 1.9024 0
M  V30 39 H -2.7547 -2.7334 2.5719 0
M  V30 END ATOM
M  V30 BEGIN BOND
M  V30 1 2 1 2
M  V30 2 1 2 3
M  V30 3 1 2 4
M  V30 4 1 3 5
M  V30 5 1 4 6
M  V30 6 2 5 7
M  V30 7 1 5 8
M  V30 8 1 8 9
M  V30 9 1 8 10
M  V30 10 1 8 11
M  V30 11 2 9 12
M  V30 12 1 9 13
M  V30 13 2 10 14
M  V30 14 1 10 15
M  V30 15 1 12 16
M  V30 16 1 13 17
M  V30 17 1 15 18
M  V30 18 1 16 19
M  V30 19 1 17 19
M  V30 20 1 3 20
M  V30 21 1 4 21
M  V30 22 1 6 22
M  V30 23 1 6 23
M  V30 24 1 6 24
M  V30 25 1 11 25
M  V30 26 1 11 26
M  V30 27 1 11 27
M  V30 28 1 12 28
M  V30 29 1 13 29
M  V30 30 1 13 30
M  V30 31 1 16 31
M  V30 32 1 16 32
M  V30 33 1 17 33
M  V30 34 1 17 34
M  V30 35 1 18 35
M  V30 36 1 18 36
M  V30 37 1 18 37
M  V30 38 1 19 38
M  V30 39 1 19 39
M  V30 END BOND
M  V30 BEGIN COLLECTION
M  V30 MDLV30/STEABS ATOMS=(1 8)
M  V30 END COLLECTION
M  V30 END CTAB
M  END
>  <Structure No>
6902

>  <LogS>
-2.68

>  <MMFF94 Energy>
-56.802

$$$$
Compound 6903
Actelion Java MolfileCreator 2.0

  0  0  0  0  0  0              0 V3000
M  V30 BEGIN CTAB
M  V30 COUNTS 34 34 0 0 0
M  V30 BEGIN ATOM
M  V30 1 S 4.0171 3.3735 -0.6419 0
M  V30 2 C 3.0469 2.0545 -0.5395 0
M  V30 3 N 2.6847 1.3404 -1.7149 0
M  V30 4 N 2.571 1.6146 0.7252 0
M  V30 5 C 1.8261 0.1963 -1.6641 0
M  V30 6 C 1.7661 0.4376 0.8611 0
M  V30 7 O 1.4996 -0.3535 -2.7537 0
M  V30 8 C 1.2742 -0.3694 -0.3495 0
M  V30 9 O 1.4802 0.0539 2.0282 0
M  V30 10 C -0.2901 -0.3145 -0.4844 0
M  V30 11 C 1.8233 -1.8351 -0.2595 0
M  V30 12 C -1.117 -0.3054 0.8229 0
M  V30 13 C 1.1685 -2.766 0.7666 0
M  V30 14 C -2.611 -0.5965 0.5895 0
M  V30 15 C -3.3302 0.4089 -0.3254 0
M  V30 16 C -3.3314 1.8331 0.2314 0
M  V30 17 H 3.0276 1.6726 -2.6443 0
M  V30 18 H 2.8701 2.1239 1.5891 0
M  V30 19 H -0.5642 0.6197 -1.0242 0
M  V30 20 H -0.6251 -1.1593 -1.1284 0
M  V30 21 H 1.7098 -2.3436 -1.2431 0
M  V30 22 H 2.9172 -1.8014 -0.0531 0
M  V30 23 H -0.7482 -1.0737 1.528 0
M  V30 24 H -1.006 0.6767 1.3295 0
M  V30 25 H 1.217 -2.3636 1.7959 0
M  V30 26 H 1.698 -3.7442 0.762 0
M  V30 27 H 0.1163 -2.971 0.477 0
M  V30 28 H -2.7161 -1.6133 0.1496 0
M  V30 29 H -3.1263 -0.6169 1.5754 0
M  V30 30 H -2.8846 0.4007 -1.3425 0
M  V30 31 H -4.3871 0.0814 -0.4341 0
M  V30 32 H -4.0097 2.4685 -0.3797 0
M  V30 33 H -2.313 2.2739 0.1858 0
M  V30 34 H -3.6921 1.8384 1.2809 0
M  V30 END ATOM
M  V30 BEGIN BOND
M  V30 1 2 1 2
M  V30 2 1 2 3
M  V30 3 1 2 4
M  V30 4 1 3 5
M  V30 5 1 4 6
M  V30 6 2 5 7
M  V30 7 1 5 8
M  V30 8 2 6 9
M  V30 9 1 8 10
M  V30 10 1 8 11
M  V30 11 1 10 12
M  V30 12 1 11 13
M  V30 13 1 12 14
M  V30 14 1 14 15
M  V30 15 1 15 16
M  V30 16 1 6 8
M  V30 17 1 3 17
M  V30 18 1 4 18
M  V30 19 1 10 19
M  V30 20 1 10 20
M  V30 21 1 11 21
M  V30 22 1 11 22
M  V30 23 1 12 23
M  V30 24 1 12 24
M  V30 25 1 13 25
M  V30 26 1 13 26
M  V30 27 1 13 27
M  V30 28 1 14 28
M  V30 29 1 14 29
M  V30 30 1 15 30
M  V30 31 1 15 31
M  V30 32 1 16 32
M  V30 33 1 16 33
M  V30 34 1 16 34
M  V30 END BOND
M  V30 END CTAB
M  END
>  <Structure No>
6903

>  <LogS>
-3.71

>  <MMFF94 Energy>
-96.908

$$$$
Compound 6904
Actelion Java MolfileCreator 2.0

  0  0  0  0  0  0              0 V3000
M  V30 BEGIN CTAB
M  V30 COUNTS 20 20 0 0 0
M  V30 BEGIN ATOM
M  V30 1 S 1.2762 -2.2343 -0.7177 0
M  V30 2 C 0.8468 -0.6786 -0.3902 0
M  V30 3 N 1.8484 0.3536 -0.3126 0
M  V30 4 C -0.5813 -0.3401 -0.168 0
M  V30 5 C 3.2866 0.0888 -0.3199 0
M  V30 6 C -0.9353 0.6617 0.7549 0
M  V30 7 C -1.6039 -1.0099 -0.8683 0
M  V30 8 O 3.65 -0.6424 0.8181 0
M  V30 9 C -2.2783 0.9865 0.969 0
M  V30 10 C -2.9453 -0.6802 -0.6508 0
M  V30 11 C -3.2822 0.3171 0.2664 0
M  V30 12 H 1.5445 1.3525 -0.2798 0
M  V30 13 H 3.848 1.0497 -0.348 0
M  V30 14 H 3.5587 -0.4857 -1.2299 0
M  V30 15 H -0.1768 1.1809 1.3269 0
M  V30 16 H -1.3684 -1.7767 -1.595 0
M  V30 17 H 3.5225 -0.0351 1.5929 0
M  V30 18 H -2.5409 1.7555 1.684 0
M  V30 19 H -3.7241 -1.197 -1.1964 0
M  V30 20 H -4.3212 0.5702 0.4338 0
M  V30 END ATOM
M  V30 BEGIN BOND
M  V30 1 2 1 2
M  V30 2 1 2 3
M  V30 3 1 2 4
M  V30 4 1 3 5
M  V30 5 2 4 6
M  V30 6 1 4 7
M  V30 7 1 5 8
M  V30 8 1 6 9
M  V30 9 2 7 10
M  V30 10 2 9 11
M  V30 11 1 10 11
M  V30 12 1 3 12
M  V30 13 1 5 13
M  V30 14 1 5 14
M  V30 15 1 6 15
M  V30 16 1 7 16
M  V30 17 1 8 17
M  V30 18 1 9 18
M  V30 19 1 10 19
M  V30 20 1 11 20
M  V30 END BOND
M  V30 END CTAB
M  END
>  <Structure No>
6904

>  <LogS>
-1.14

>  <MMFF94 Energy>
-14.033

$$$$
Compound 6905
Actelion Java MolfileCreator 2.0

  0  0  0  0  0  0              0 V3000
M  V30 BEGIN CTAB
M  V30 COUNTS 43 45 0 0 0
M  V30 BEGIN ATOM
M  V30 1 O 1.1339 0.0 1.458 0
M  V30 2 C 1.3278 0.6572 0.4001 0
M  V30 3 N 0.2548 0.8844 -0.5305 0
M  V30 4 N 2.6295 1.19 0.1203 0
M  V30 5 C -1.1201 0.3686 -0.3878 0
M  V30 6 C 3.7853 0.9472 0.983 0
M  V30 7 C -1.9654 0.8216 -1.614 0
M  V30 8 C -1.7893 0.9297 0.8981 0
M  V30 9 C -1.124 -1.1852 -0.3419 0
M  V30 10 C 4.2907 -0.498 0.8488 0
M  V30 11 C -3.4124 0.297 -1.4956 0 CFG=1
M  V30 12 C -3.235 0.3972 1.0167 0 CFG=2
M  V30 13 C -2.5732 -1.7063 -0.2167 0 CFG=1
M  V30 14 C 4.7121 -0.8639 -0.5821 0
M  V30 15 C -4.0555 0.8541 -0.208 0
M  V30 16 C -3.395 -1.245 -1.4389 0
M  V30 17 C -3.2122 -1.1467 1.0741 0
M  V30 18 C 5.9081 -0.0801 -1.0274 0
M  V30 19 O 5.7692 0.9067 -1.7969 0
M  V30 20 O 7.1732 -0.4198 -0.5653 0 CHG=-1
M  V30 21 H 0.4867 1.4521 -1.3773 0
M  V30 22 H 2.755 1.8075 -0.7129 0
M  V30 23 H 3.5103 1.1497 2.0407 0
M  V30 24 H 4.6007 1.6532 0.7159 0
M  V30 25 H -1.9778 1.9324 -1.6803 0
M  V30 26 H -1.5088 0.4414 -2.5547 0
M  V30 27 H -1.2261 0.6308 1.8062 0
M  V30 28 H -1.7982 2.0417 0.8688 0
M  V30 29 H -0.654 -1.5945 -1.2633 0
M  V30 30 H -0.5361 -1.5621 0.5203 0
M  V30 31 H 5.1521 -0.6444 1.5365 0
M  V30 32 H 3.4919 -1.198 1.1743 0
M  V30 33 H -4.0015 0.6292 -2.3779 0
M  V30 34 H -3.7019 0.7955 1.9438 0
M  V30 35 H -2.5652 -2.8173 -0.1746 0
M  V30 36 H 4.969 -1.9442 -0.6128 0
M  V30 37 H 3.8663 -0.7068 -1.2861 0
M  V30 38 H -4.09 1.9651 -0.2496 0
M  V30 39 H -5.1038 0.493 -0.1195 0
M  V30 40 H -2.9509 -1.6549 -2.3725 0
M  V30 41 H -4.4343 -1.6345 -1.3672 0
M  V30 42 H -2.6346 -1.4855 1.962 0
M  V30 43 H -4.2479 -1.5372 1.1845 0
M  V30 END ATOM
M  V30 BEGIN BOND
M  V30 1 2 1 2
M  V30 2 1 2 3
M  V30 3 1 2 4
M  V30 4 1 3 5
M  V30 5 1 4 6
M  V30 6 1 5 7
M  V30 7 1 5 8
M  V30 8 1 5 9
M  V30 9 1 6 10
M  V30 10 1 7 11
M  V30 11 1 8 12
M  V30 12 1 9 13
M  V30 13 1 10 14
M  V30 14 1 11 15
M  V30 15 1 11 16
M  V30 16 1 12 17
M  V30 17 1 14 18
M  V30 18 2 18 19
M  V30 19 1 18 20
M  V30 20 1 12 15
M  V30 21 1 13 16
M  V30 22 1 13 17
M  V30 23 1 3 21
M  V30 24 1 4 22
M  V30 25 1 6 23
M  V30 26 1 6 24
M  V30 27 1 7 25
M  V30 28 1 7 26
M  V30 29 1 8 27
M  V30 30 1 8 28
M  V30 31 1 9 29
M  V30 32 1 9 30
M  V30 33 1 10 31
M  V30 34 1 10 32
M  V30 35 1 11 33
M  V30 36 1 12 34
M  V30 37 1 13 35
M  V30 38 1 14 36
M  V30 39 1 14 37
M  V30 40 1 15 38
M  V30 41 1 15 39
M  V30 42 1 16 40
M  V30 43 1 16 41
M  V30 44 1 17 42
M  V30 45 1 17 43
M  V30 END BOND
M  V30 BEGIN COLLECTION
M  V30 MDLV30/STEABS ATOMS=(3 11 12 13)
M  V30 END COLLECTION
M  V30 END CTAB
M  END
>  <Structure No>
6905

>  <LogS>
-1.6

>  <MMFF94 Energy>
-73.837

$$$$
Compound 6906
Actelion Java MolfileCreator 2.0

  0  0  0  0  0  0              0 V3000
M  V30 BEGIN CTAB
M  V30 COUNTS 18 18 0 0 0
M  V30 BEGIN ATOM
M  V30 1 O 2.7236 -1.7617 -0.8805 0
M  V30 2 C 2.6244 -0.6228 -0.3529 0
M  V30 3 O 3.7819 0.0509 0.0192 0 CHG=-1
M  V30 4 C 1.3054 0.0293 -0.1958 0
M  V30 5 C 0.1144 -0.6992 0.0617 0
M  V30 6 C 1.2343 1.4253 -0.3394 0
M  V30 7 O 0.1291 -2.0727 0.3254 0
M  V30 8 C -1.1245 -0.0262 0.0911 0
M  V30 9 C 0.0089 2.0868 -0.2723 0
M  V30 10 C -1.1656 1.3668 -0.0654 0
M  V30 11 C -2.3944 -0.7844 0.3613 0
M  V30 12 H 2.1288 2.0063 -0.5292 0
M  V30 13 H 0.9731 -2.5997 0.5013 0
M  V30 14 H -0.0314 3.1619 -0.3915 0
M  V30 15 H -2.1079 1.899 -0.0195 0
M  V30 16 H -2.4462 -1.6844 -0.2872 0
M  V30 17 H -3.2913 -0.1627 0.1536 0
M  V30 18 H -2.4186 -1.0998 1.4254 0
M  V30 END ATOM
M  V30 BEGIN BOND
M  V30 1 2 1 2
M  V30 2 1 2 3
M  V30 3 1 2 4
M  V30 4 2 4 5
M  V30 5 1 4 6
M  V30 6 1 5 7
M  V30 7 1 5 8
M  V30 8 2 6 9
M  V30 9 2 8 10
M  V30 10 1 8 11
M  V30 11 1 9 10
M  V30 12 1 6 12
M  V30 13 1 7 13
M  V30 14 1 9 14
M  V30 15 1 10 15
M  V30 16 1 11 16
M  V30 17 1 11 17
M  V30 18 1 11 18
M  V30 END BOND
M  V30 END CTAB
M  END
>  <Structure No>
6906

>  <LogS>
-2.04

>  <MMFF94 Energy>
16.792

$$$$
Compound 6907
Actelion Java MolfileCreator 2.0

  0  0  0  0  0  0              0 V3000
M  V30 BEGIN CTAB
M  V30 COUNTS 18 18 0 0 0
M  V30 BEGIN ATOM
M  V30 1 O -0.8809 -2.4842 1.6823 0
M  V30 2 C -0.1189 -2.0616 0.7729 0
M  V30 3 O 0.8015 -2.9369 0.2099 0 CHG=-1
M  V30 4 C -0.2239 -0.6583 0.2966 0
M  V30 5 C -1.4933 -0.0364 0.2417 0
M  V30 6 C 0.9227 0.0775 -0.1105 0
M  V30 7 O -2.6393 -0.7326 0.6291 0
M  V30 8 C -1.6141 1.2799 -0.2207 0
M  V30 9 C 0.7684 1.3897 -0.5896 0
M  V30 10 C 2.3125 -0.5016 -0.0433 0
M  V30 11 C -0.4898 1.9855 -0.6398 0
M  V30 12 H -3.5588 -0.3081 0.5922 0
M  V30 13 H -2.5861 1.7547 -0.2653 0
M  V30 14 H 1.6282 1.9611 -0.9172 0
M  V30 15 H 2.4715 -1.013 0.9292 0
M  V30 16 H 3.0874 0.29 -0.1279 0
M  V30 17 H 2.4592 -1.2201 -0.8763 0
M  V30 18 H -0.5935 2.9996 -1.0036 0
M  V30 END ATOM
M  V30 BEGIN BOND
M  V30 1 2 1 2
M  V30 2 1 2 3
M  V30 3 1 2 4
M  V30 4 2 4 5
M  V30 5 1 4 6
M  V30 6 1 5 7
M  V30 7 1 5 8
M  V30 8 2 6 9
M  V30 9 1 6 10
M  V30 10 2 8 11
M  V30 11 1 9 11
M  V30 12 1 7 12
M  V30 13 1 8 13
M  V30 14 1 9 14
M  V30 15 1 10 15
M  V30 16 1 10 16
M  V30 17 1 10 17
M  V30 18 1 11 18
M  V30 END BOND
M  V30 END CTAB
M  END
>  <Structure No>
6907

>  <LogS>
-2.04

>  <MMFF94 Energy>
19.552

$$$$
Compound 6908
Actelion Java MolfileCreator 2.0

  0  0  0  0  0  0              0 V3000
M  V30 BEGIN CTAB
M  V30 COUNTS 21 21 0 0 0
M  V30 BEGIN ATOM
M  V30 1 Cl 4.4149 -2.0049 0.0801 0
M  V30 2 C 2.7726 -1.4061 -0.003 0
M  V30 3 N 2.5048 -0.1151 0.3209 0
M  V30 4 N 1.7692 -2.2318 -0.3942 0
M  V30 5 C 1.2396 0.381 0.2636 0
M  V30 6 C 0.4881 -1.7886 -0.4621 0
M  V30 7 C 0.1824 -0.4666 -0.1213 0
M  V30 8 C 1.0085 1.8179 0.6224 0
M  V30 9 N -1.1767 -0.0047 -0.1812 0
M  V30 10 C -1.8815 0.3938 1.0366 0
M  V30 11 C -1.8452 0.0924 -1.4776 0
M  V30 12 H -0.2949 -2.4698 -0.7676 0
M  V30 13 H 0.3092 2.2901 -0.0994 0
M  V30 14 H 1.9654 2.381 0.595 0
M  V30 15 H 0.5878 1.8857 1.6468 0
M  V30 16 H -2.8469 -0.1503 1.1062 0
M  V30 17 H -1.2813 0.152 1.9399 0
M  V30 18 H -2.0786 1.486 1.0148 0
M  V30 19 H -1.2616 0.7559 -2.15 0
M  V30 20 H -2.8673 0.514 -1.3667 0
M  V30 21 H -1.9273 -0.9143 -1.9375 0
M  V30 END ATOM
M  V30 BEGIN BOND
M  V30 1 1 1 2
M  V30 2 2 2 3
M  V30 3 1 2 4
M  V30 4 1 3 5
M  V30 5 2 4 6
M  V30 6 2 5 7
M  V30 7 1 5 8
M  V30 8 1 7 9
M  V30 9 1 9 10
M  V30 10 1 9 11
M  V30 11 1 6 7
M  V30 12 1 6 12
M  V30 13 1 8 13
M  V30 14 1 8 14
M  V30 15 1 8 15
M  V30 16 1 10 16
M  V30 17 1 10 17
M  V30 18 1 10 18
M  V30 19 1 11 19
M  V30 20 1 11 20
M  V30 21 1 11 21
M  V30 END BOND
M  V30 END CTAB
M  END
>  <Structure No>
6908

>  <LogS>
-1.26

>  <MMFF94 Energy>
36.636

$$$$
Compound 6909
Actelion Java MolfileCreator 2.0

  0  0  0  0  0  0              0 V3000
M  V30 BEGIN CTAB
M  V30 COUNTS 37 37 0 0 0
M  V30 BEGIN ATOM
M  V30 1 S -4.2457 1.2802 -3.5237 0
M  V30 2 C -3.5192 0.6893 -2.181 0
M  V30 3 N -2.8861 1.5762 -1.2619 0
M  V30 4 N -3.5824 -0.7047 -1.8886 0
M  V30 5 C -2.2564 1.0789 -0.0783 0
M  V30 6 C -2.9134 -1.2512 -0.7479 0
M  V30 7 O -1.8897 1.9034 0.8033 0
M  V30 8 C -1.9608 -0.4089 0.0971 0
M  V30 9 O -3.0445 -2.4818 -0.5021 0
M  V30 10 C -0.5267 -0.7177 -0.4284 0
M  V30 11 C -2.0988 -0.8145 1.6 0
M  V30 12 C 0.6196 0.0292 0.2818 0
M  V30 13 C -3.5192 -0.6533 2.1583 0
M  V30 14 C 1.9726 -0.3219 -0.3502 0
M  V30 15 C 3.1186 0.4148 0.3537 0
M  V30 16 C 4.4696 0.0632 -0.2796 0
M  V30 17 C 5.6126 0.7946 0.4182 0
M  V30 18 H -2.9321 2.6083 -1.4212 0
M  V30 19 H -4.1322 -1.3399 -2.5104 0
M  V30 20 H -0.484 -0.4691 -1.5135 0
M  V30 21 H -0.3348 -1.8109 -0.339 0
M  V30 22 H -1.4258 -0.1975 2.2318 0
M  V30 23 H -1.7855 -1.8729 1.737 0
M  V30 24 H 0.6497 -0.2531 1.3548 0
M  V30 25 H 0.4669 1.1258 0.2011 0
M  V30 26 H -3.8654 0.3966 2.0615 0
M  V30 27 H -4.2325 -1.3223 1.634 0
M  V30 28 H -3.5233 -0.9228 3.2355 0
M  V30 29 H 2.1404 -1.4191 -0.2749 0
M  V30 30 H 1.9609 -0.0392 -1.4261 0
M  V30 31 H 3.1322 0.132 1.4296 0
M  V30 32 H 2.9517 1.5123 0.2787 0
M  V30 33 H 4.645 -1.0321 -0.2049 0
M  V30 34 H 4.4647 0.3467 -1.3548 0
M  V30 35 H 5.4745 1.894 0.3362 0
M  V30 36 H 6.5762 0.5211 -0.0608 0
M  V30 37 H 5.6555 0.509 1.491 0
M  V30 END ATOM
M  V30 BEGIN BOND
M  V30 1 2 1 2
M  V30 2 1 2 3
M  V30 3 1 2 4
M  V30 4 1 3 5
M  V30 5 1 4 6
M  V30 6 2 5 7
M  V30 7 1 5 8
M  V30 8 2 6 9
M  V30 9 1 8 10
M  V30 10 1 8 11
M  V30 11 1 10 12
M  V30 12 1 11 13
M  V30 13 1 12 14
M  V30 14 1 14 15
M  V30 15 1 15 16
M  V30 16 1 16 17
M  V30 17 1 6 8
M  V30 18 1 3 18
M  V30 19 1 4 19
M  V30 20 1 10 20
M  V30 21 1 10 21
M  V30 22 1 11 22
M  V30 23 1 11 23
M  V30 24 1 12 24
M  V30 25 1 12 25
M  V30 26 1 13 26
M  V30 27 1 13 27
M  V30 28 1 13 28
M  V30 29 1 14 29
M  V30 30 1 14 30
M  V30 31 1 15 31
M  V30 32 1 15 32
M  V30 33 1 16 33
M  V30 34 1 16 34
M  V30 35 1 17 35
M  V30 36 1 17 36
M  V30 37 1 17 37
M  V30 END BOND
M  V30 END CTAB
M  END
>  <Structure No>
6909

>  <LogS>
-4.08

>  <MMFF94 Energy>
-100.32

$$$$
Compound 6910
Actelion Java MolfileCreator 2.0

  0  0  0  0  0  0              0 V3000
M  V30 BEGIN CTAB
M  V30 COUNTS 38 39 0 0 0
M  V30 BEGIN ATOM
M  V30 1 O 5.6339 0.2409 -0.6426 0
M  V30 2 C 4.4131 0.335 -0.3476 0
M  V30 3 N 3.861 -0.4825 0.6771 0
M  V30 4 N 3.5873 1.2807 -1.0171 0
M  V30 5 C 2.4724 -0.4038 1.0105 0
M  V30 6 C 2.1854 1.363 -0.7419 0
M  V30 7 O 2.0718 -1.0002 2.0475 0
M  V30 8 C 1.468 0.2955 0.09 0
M  V30 9 O 1.5232 2.2846 -1.2912 0
M  V30 10 C 0.9145 -0.7618 -0.9278 0
M  V30 11 C 0.3829 1.0028 0.9819 0
M  V30 12 C 0.213 -2.0343 -0.3864 0
M  V30 13 C -0.8443 1.5957 0.2372 0
M  V30 14 C -1.1919 -1.8594 0.216 0
M  V30 15 C -2.192 1.3759 0.9709 0
M  V30 16 C -2.2596 -1.3519 -0.7742 0
M  V30 17 C -3.3154 0.8742 0.0378 0
M  V30 18 C -3.4364 -0.6621 -0.0542 0
M  V30 19 H 4.4901 -1.1061 1.2315 0
M  V30 20 H 4.0169 1.9414 -1.7032 0
M  V30 21 H 1.7939 -1.1394 -1.4979 0
M  V30 22 H 0.3012 -0.2877 -1.7157 0
M  V30 23 H 0.8777 1.8384 1.5269 0
M  V30 24 H 0.0626 0.336 1.8017 0
M  V30 25 H 0.8634 -2.5278 0.3645 0
M  V30 26 H 0.1242 -2.7544 -1.2293 0
M  V30 27 H -0.6878 2.6915 0.1262 0
M  V30 28 H -0.9062 1.23 -0.7987 0
M  V30 29 H -1.1483 -1.2434 1.1213 0
M  V30 30 H -1.5238 -2.8556 0.5826 0
M  V30 31 H -2.5092 2.3559 1.3911 0
M  V30 32 H -2.1078 0.7019 1.8482 0
M  V30 33 H -2.6506 -2.2343 -1.327 0
M  V30 34 H -1.8486 -0.6799 -1.549 0
M  V30 35 H -4.2806 1.2498 0.4433 0
M  V30 36 H -3.2177 1.3152 -0.9781 0
M  V30 37 H -3.5933 -1.0951 0.9583 0
M  V30 38 H -4.3613 -0.8812 -0.6315 0
M  V30 END ATOM
M  V30 BEGIN BOND
M  V30 1 2 1 2
M  V30 2 1 2 3
M  V30 3 1 2 4
M  V30 4 1 3 5
M  V30 5 1 4 6
M  V30 6 2 5 7
M  V30 7 1 5 8
M  V30 8 2 6 9
M  V30 9 1 8 10
M  V30 10 1 8 11
M  V30 11 1 10 12
M  V30 12 1 11 13
M  V30 13 1 12 14
M  V30 14 1 13 15
M  V30 15 1 14 16
M  V30 16 1 15 17
M  V30 17 1 16 18
M  V30 18 1 6 8
M  V30 19 1 17 18
M  V30 20 1 3 19
M  V30 21 1 4 20
M  V30 22 1 10 21
M  V30 23 1 10 22
M  V30 24 1 11 23
M  V30 25 1 11 24
M  V30 26 1 12 25
M  V30 27 1 12 26
M  V30 28 1 13 27
M  V30 29 1 13 28
M  V30 30 1 14 29
M  V30 31 1 14 30
M  V30 32 1 15 31
M  V30 33 1 15 32
M  V30 34 1 16 33
M  V30 35 1 16 34
M  V30 36 1 17 35
M  V30 37 1 17 36
M  V30 38 1 18 37
M  V30 39 1 18 38
M  V30 END BOND
M  V30 END CTAB
M  END
>  <Structure No>
6910

>  <LogS>
-4.59

>  <MMFF94 Energy>
-105.32

$$$$
Compound 6911
Actelion Java MolfileCreator 2.0

  0  0  0  0  0  0              0 V3000
M  V30 BEGIN CTAB
M  V30 COUNTS 51 54 0 0 0
M  V30 BEGIN ATOM
M  V30 1 O -5.2788 -0.6485 0.7296 0
M  V30 2 C -4.4395 0.0692 0.2079 0
M  V30 3 C -2.9681 -0.0382 0.4618 0 CFG=2
M  V30 4 C -4.777 1.2115 -0.7097 0
M  V30 5 C -2.4723 0.5846 -0.8559 0 CFG=1
M  V30 6 C -2.3795 -1.4582 0.5578 0
M  V30 7 C -2.7096 0.7545 1.7728 0
M  V30 8 C -3.4033 1.7568 -1.1485 0
M  V30 9 C -0.9443 0.6992 -1.0368 0 CFG=2
M  V30 10 C -0.8281 -1.4265 0.4401 0
M  V30 11 C -0.3146 -0.7178 -0.8571 0 CFG=2
M  V30 12 C -0.2632 1.7671 -0.17 0
M  V30 13 C 1.2576 -0.6878 -1.0721 0 CFG=1
M  V30 14 C 1.2314 1.6986 -0.2343 0
M  V30 15 C 1.9191 0.5642 -0.4782 0
M  V30 16 C 1.9427 -1.9525 -0.4612 0
M  V30 17 C 1.5225 -0.6751 -2.6046 0
M  V30 18 C 3.436 0.6164 -0.4081 0
M  V30 19 C 3.4796 -1.9079 -0.4958 0
M  V30 20 C 4.0155 -0.6607 0.2188 0 CFG=2
M  V30 21 O 3.6872 -0.7314 1.6091 0
M  V30 22 C 4.3144 0.0398 2.5924 0
M  V30 23 O 5.2599 0.8215 2.3048 0
M  V30 24 H -5.3432 0.8314 -1.587 0
M  V30 25 H -5.3657 1.9878 -0.1761 0
M  V30 26 H -2.7461 -0.1409 -1.6671 0
M  V30 27 H -2.7918 -2.0968 -0.2549 0
M  V30 28 H -2.6685 -1.9274 1.5235 0
M  V30 29 H -3.4541 0.4654 2.5468 0
M  V30 30 H -2.8011 1.8494 1.6183 0
M  V30 31 H -1.7298 0.5319 2.233 0
M  V30 32 H -3.1221 2.6476 -0.5476 0
M  V30 33 H -3.399 2.0223 -2.2281 0
M  V30 34 H -0.7863 1.0125 -2.0918 0
M  V30 35 H -0.5092 -2.49 0.4318 0
M  V30 36 H -0.3709 -0.9522 1.332 0
M  V30 37 H -0.7327 -1.35 -1.6745 0
M  V30 38 H -0.5173 1.678 0.8916 0
M  V30 39 H -0.5892 2.7742 -0.5071 0
M  V30 40 H 1.7655 2.588 0.0893 0
M  V30 41 H 1.6711 -2.0586 0.6091 0
M  V30 42 H 1.5927 -2.8677 -0.9869 0
M  V30 43 H 2.6017 -0.6338 -2.849 0
M  V30 44 H 1.0603 0.2103 -3.0863 0
M  V30 45 H 1.1086 -1.588 -3.0842 0
M  V30 46 H 3.7831 1.4926 0.1812 0
M  V30 47 H 3.8447 0.7442 -1.4326 0
M  V30 48 H 3.8761 -2.8128 0.014 0
M  V30 49 H 3.8542 -1.9429 -1.5396 0
M  V30 50 H 5.1224 -0.6517 0.1032 0
M  V30 51 H 3.9864 -0.0427 3.6193 0
M  V30 END ATOM
M  V30 BEGIN BOND
M  V30 1 2 1 2
M  V30 2 1 2 3
M  V30 3 1 2 4
M  V30 4 1 3 5
M  V30 5 1 3 6
M  V30 6 1 3 7
M  V30 7 1 4 8
M  V30 8 1 5 9
M  V30 9 1 6 10
M  V30 10 1 9 11
M  V30 11 1 9 12
M  V30 12 1 11 13
M  V30 13 1 12 14
M  V30 14 1 13 15
M  V30 15 1 13 16
M  V30 16 1 13 17
M  V30 17 1 15 18
M  V30 18 1 16 19
M  V30 19 1 18 20
M  V30 20 1 20 21
M  V30 21 1 21 22
M  V30 22 2 22 23
M  V30 23 1 5 8
M  V30 24 1 10 11
M  V30 25 2 14 15
M  V30 26 1 19 20
M  V30 27 1 4 24
M  V30 28 1 4 25
M  V30 29 1 5 26
M  V30 30 1 6 27
M  V30 31 1 6 28
M  V30 32 1 7 29
M  V30 33 1 7 30
M  V30 34 1 7 31
M  V30 35 1 8 32
M  V30 36 1 8 33
M  V30 37 1 9 34
M  V30 38 1 10 35
M  V30 39 1 10 36
M  V30 40 1 11 37
M  V30 41 1 12 38
M  V30 42 1 12 39
M  V30 43 1 14 40
M  V30 44 1 16 41
M  V30 45 1 16 42
M  V30 46 1 17 43
M  V30 47 1 17 44
M  V30 48 1 17 45
M  V30 49 1 18 46
M  V30 50 1 18 47
M  V30 51 1 19 48
M  V30 52 1 19 49
M  V30 53 1 20 50
M  V30 54 1 22 51
M  V30 END BOND
M  V30 BEGIN COLLECTION
M  V30 MDLV30/STEABS ATOMS=(6 3 5 9 11 13 20)
M  V30 END COLLECTION
M  V30 END CTAB
M  END
>  <Structure No>
6911

>  <LogS>
-4.41

>  <MMFF94 Energy>
75.79

$$$$
Compound 6912
Actelion Java MolfileCreator 2.0

  0  0  0  0  0  0              0 V3000
M  V30 BEGIN CTAB
M  V30 COUNTS 16 16 0 0 0
M  V30 BEGIN ATOM
M  V30 1 O 3.1432 0.161 1.0469 0
M  V30 2 C 2.4744 -0.4174 0.1508 0
M  V30 3 O 3.1181 -1.3063 -0.7021 0 CHG=-1
M  V30 4 C 1.0119 -0.2178 0.0451 0
M  V30 5 C 0.3763 1.0055 0.3816 0
M  V30 6 C 0.2204 -1.3007 -0.3776 0
M  V30 7 O 1.0893 2.158 0.7193 0
M  V30 8 C -1.0212 1.0926 0.3475 0
M  V30 9 C -1.1707 -1.1918 -0.4266 0
M  V30 10 C -1.7954 0.0025 -0.0556 0
M  V30 11 O -3.1831 0.119 -0.0896 0
M  V30 12 H 0.6774 -2.2454 -0.6458 0
M  V30 13 H 2.0897 2.2485 0.6091 0
M  V30 14 H -1.5073 2.0227 0.6149 0
M  V30 15 H -1.7628 -2.0409 -0.7435 0
M  V30 16 H -3.7725 -0.6526 -0.3793 0
M  V30 END ATOM
M  V30 BEGIN BOND
M  V30 1 2 1 2
M  V30 2 1 2 3
M  V30 3 1 2 4
M  V30 4 2 4 5
M  V30 5 1 4 6
M  V30 6 1 5 7
M  V30 7 1 5 8
M  V30 8 2 6 9
M  V30 9 2 8 10
M  V30 10 1 10 11
M  V30 11 1 9 10
M  V30 12 1 6 12
M  V30 13 1 7 13
M  V30 14 1 8 14
M  V30 15 1 9 15
M  V30 16 1 11 16
M  V30 END BOND
M  V30 END CTAB
M  END
>  <Structure No>
6912

>  <LogS>
-1.41

>  <MMFF94 Energy>
2.1646

$$$$
Compound 6913
Actelion Java MolfileCreator 2.0

  0  0  0  0  0  0              0 V3000
M  V30 BEGIN CTAB
M  V30 COUNTS 26 26 0 0 0
M  V30 BEGIN ATOM
M  V30 1 O 1.5041 -2.5343 -1.5041 0
M  V30 2 C 1.6166 -1.4026 -0.9616 0
M  V30 3 N 2.8224 -1.0585 -0.2671 0
M  V30 4 C 0.4723 -0.4232 -1.01 0 CFG=2
M  V30 5 C 2.947 0.2057 0.4569 0
M  V30 6 N 1.0115 0.9407 -1.0111 0
M  V30 7 C -0.457 -0.6425 0.2077 0
M  V30 8 C 2.1729 1.2825 -0.2437 0
M  V30 9 C -1.9161 -0.178 -0.0194 0
M  V30 10 O 2.535 2.4852 -0.1494 0
M  V30 11 C -2.796 -0.6329 1.1535 0
M  V30 12 C -2.0273 1.3438 -0.1902 0
M  V30 13 H 3.5992 -1.7548 -0.211 0
M  V30 14 H -0.0967 -0.5906 -1.9513 0
M  V30 15 H 4.0192 0.49 0.5224 0
M  V30 16 H 2.5467 0.0806 1.4849 0
M  V30 17 H 0.6009 1.6587 -1.6484 0
M  V30 18 H -0.4882 -1.7323 0.4349 0
M  V30 19 H -0.0342 -0.1423 1.1072 0
M  V30 20 H -2.3098 -0.6637 -0.9398 0
M  V30 21 H -2.7582 -1.7383 1.2589 0
M  V30 22 H -3.8546 -0.3457 0.9767 0
M  V30 23 H -2.4519 -0.1696 2.1034 0
M  V30 24 H -3.0918 1.6617 -0.1658 0
M  V30 25 H -1.4794 1.8741 0.6179 0
M  V30 26 H -1.6259 1.6511 -1.1757 0
M  V30 END ATOM
M  V30 BEGIN BOND
M  V30 1 2 1 2
M  V30 2 1 2 3
M  V30 3 1 2 4
M  V30 4 1 3 5
M  V30 5 1 4 6
M  V30 6 1 4 7
M  V30 7 1 5 8
M  V30 8 1 7 9
M  V30 9 2 8 10
M  V30 10 1 9 11
M  V30 11 1 9 12
M  V30 12 1 6 8
M  V30 13 1 3 13
M  V30 14 1 4 14
M  V30 15 1 5 15
M  V30 16 1 5 16
M  V30 17 1 6 17
M  V30 18 1 7 18
M  V30 19 1 7 19
M  V30 20 1 9 20
M  V30 21 1 11 21
M  V30 22 1 11 22
M  V30 23 1 11 23
M  V30 24 1 12 24
M  V30 25 1 12 25
M  V30 26 1 12 26
M  V30 END BOND
M  V30 BEGIN COLLECTION
M  V30 MDLV30/STEABS ATOMS=(1 4)
M  V30 END COLLECTION
M  V30 END CTAB
M  END
>  <Structure No>
6913

>  <LogS>
-1.25

>  <MMFF94 Energy>
58.821

$$$$
Compound 6914
Actelion Java MolfileCreator 2.0

  0  0  0  0  0  0              0 V3000
M  V30 BEGIN CTAB
M  V30 COUNTS 12 12 0 0 0
M  V30 BEGIN ATOM
M  V30 1 S 2.0521 -0.0854 -0.0854 0
M  V30 2 O 2.564 0.2494 1.2868 0
M  V30 3 O 2.496 0.9646 -1.0637 0
M  V30 4 O 2.6678 -1.5754 -0.5566 0 CHG=-1
M  V30 5 C 0.3019 -0.16 -0.0574 0
M  V30 6 N -0.3971 -1.269 -0.3745 0
M  V30 7 N -0.479 0.8815 0.282 0
M  V30 8 C -1.6832 -0.8931 -0.223 0
M  V30 9 C -1.7352 0.4231 0.179 0
M  V30 10 H -0.176 1.8399 0.5649 0
M  V30 11 H -2.532 -1.5411 -0.3955 0
M  V30 12 H -2.625 1.0045 0.3816 0
M  V30 END ATOM
M  V30 BEGIN BOND
M  V30 1 2 1 2
M  V30 2 2 1 3
M  V30 3 1 1 4
M  V30 4 1 1 5
M  V30 5 2 5 6
M  V30 6 1 5 7
M  V30 7 1 6 8
M  V30 8 1 7 9
M  V30 9 2 8 9
M  V30 10 1 7 10
M  V30 11 1 8 11
M  V30 12 1 9 12
M  V30 END BOND
M  V30 END CTAB
M  END
>  <Structure No>
6914

>  <LogS>
-0.3

>  <MMFF94 Energy>
67.176

$$$$
Compound 6915
Actelion Java MolfileCreator 2.0

  0  0  0  0  0  0              0 V3000
M  V30 BEGIN CTAB
M  V30 COUNTS 22 22 0 0 0
M  V30 BEGIN ATOM
M  V30 1 O 5.4026 -0.6344 0.3171 0
M  V30 2 C 5.0029 0.55 0.1589 0
M  V30 3 O 5.933 1.5767 0.064 0 CHG=-1
M  V30 4 C 3.5676 0.8641 0.073 0
M  V30 5 C 2.6217 -0.0769 0.157 0
M  V30 6 C 1.1931 0.2738 0.0668 0
M  V30 7 C 0.2501 -0.6741 0.1518 0
M  V30 8 C -1.2151 -0.427 0.0731 0
M  V30 9 C -1.7778 0.8566 -0.1024 0
M  V30 10 C -2.0804 -1.5317 0.1797 0
M  V30 11 C -3.1656 1.0184 -0.1681 0
M  V30 12 C -3.4664 -1.3624 0.1131 0
M  V30 13 C -4.0086 -0.0885 -0.0605 0
M  V30 14 H 3.2843 1.9014 -0.0632 0
M  V30 15 H 2.902 -1.1154 0.2934 0
M  V30 16 H 0.9338 1.313 -0.069 0
M  V30 17 H 0.5715 -1.7012 0.2882 0
M  V30 18 H -1.1677 1.742 -0.1905 0
M  V30 19 H -1.6831 -2.5303 0.315 0
M  V30 20 H -3.5885 2.0058 -0.3028 0
M  V30 21 H -4.1205 -2.2208 0.1966 0
M  V30 22 H -5.082 0.0408 -0.1119 0
M  V30 END ATOM
M  V30 BEGIN BOND
M  V30 1 2 1 2
M  V30 2 1 2 3
M  V30 3 1 2 4
M  V30 4 2 4 5
M  V30 5 1 5 6
M  V30 6 2 6 7
M  V30 7 1 7 8
M  V30 8 2 8 9
M  V30 9 1 8 10
M  V30 10 1 9 11
M  V30 11 2 10 12
M  V30 12 2 11 13
M  V30 13 1 12 13
M  V30 14 1 4 14
M  V30 15 1 5 15
M  V30 16 1 6 16
M  V30 17 1 7 17
M  V30 18 1 9 18
M  V30 19 1 10 19
M  V30 20 1 11 20
M  V30 21 1 12 21
M  V30 22 1 13 22
M  V30 END BOND
M  V30 END CTAB
M  END
>  <Structure No>
6915

>  <LogS>
-3.64

>  <MMFF94 Energy>
11.747

$$$$
Compound 6916
Actelion Java MolfileCreator 2.0

  0  0  0  0  0  0              0 V3000
M  V30 BEGIN CTAB
M  V30 COUNTS 53 56 0 0 0
M  V30 BEGIN ATOM
M  V30 1 O -3.8975 -0.9733 2.8408 0
M  V30 2 C -3.6406 -0.191 1.939 0
M  V30 3 C -4.1344 -0.4531 0.546 0
M  V30 4 C -2.8581 1.0555 2.2283 0
M  V30 5 C -2.9951 -0.2932 -0.4908 0 CFG=1
M  V30 6 C -2.5883 1.8411 0.9365 0
M  V30 7 C -2.0254 0.9457 -0.2176 0 CFG=1
M  V30 8 C -2.2482 -1.6391 -0.6478 0
M  V30 9 C -0.5774 0.4286 0.1477 0 CFG=1
M  V30 10 C -1.9883 1.8279 -1.4971 0
M  V30 11 C -1.0121 -1.4853 -1.5339 0
M  V30 12 C 0.0302 -0.4931 -0.9455 0 CFG=2
M  V30 13 C 0.4349 1.5309 0.5737 0
M  V30 14 C 1.2725 -1.2432 -0.3717 0 CFG=2
M  V30 15 C 1.9042 1.1712 0.2824 0
M  V30 16 C 2.2308 -0.3393 0.4788 0 CFG=2
M  V30 17 C 2.1316 -1.8526 -1.4967 0
M  V30 18 C 3.6509 -0.6706 -0.057 0 CFG=1
M  V30 19 C 2.1472 -0.6989 1.9822 0
M  V30 20 C 3.4449 -1.0977 -1.4962 0
M  V30 21 O 4.5531 0.4386 -0.0035 0
M  V30 22 C 5.3501 0.7373 1.1055 0
M  V30 23 O 5.389 -0.0244 2.108 0
M  V30 24 H -4.5967 -1.463 0.4791 0
M  V30 25 H -4.9386 0.2811 0.3219 0
M  V30 26 H -3.4348 1.6935 2.9317 0
M  V30 27 H -1.9004 0.7883 2.7222 0
M  V30 28 H -3.517 -0.1383 -1.4631 0
M  V30 29 H -3.5466 2.3047 0.6109 0
M  V30 30 H -1.907 2.6876 1.1636 0
M  V30 31 H -2.9283 -2.387 -1.1121 0
M  V30 32 H -1.946 -2.0427 0.3435 0
M  V30 33 H -0.7029 -0.2157 1.0433 0
M  V30 34 H -1.5855 1.2727 -2.3674 0
M  V30 35 H -1.387 2.7476 -1.3594 0
M  V30 36 H -3.0152 2.1581 -1.7656 0
M  V30 37 H -1.3373 -1.1296 -2.536 0
M  V30 38 H -0.5686 -2.4918 -1.6936 0
M  V30 39 H 0.3792 0.1529 -1.7826 0
M  V30 40 H 0.2301 2.4954 0.072 0
M  V30 41 H 0.3242 1.7175 1.6646 0
M  V30 42 H 0.8965 -2.0822 0.259 0
M  V30 43 H 2.1305 1.4631 -0.7669 0
M  V30 44 H 2.5552 1.7966 0.932 0
M  V30 45 H 2.3286 -2.9247 -1.2729 0
M  V30 46 H 1.6559 -1.7924 -2.5 0
M  V30 47 H 4.0894 -1.5441 0.4797 0
M  V30 48 H 1.1189 -0.5689 2.3743 0
M  V30 49 H 2.4388 -1.7574 2.1528 0
M  V30 50 H 2.8198 -0.049 2.5791 0
M  V30 51 H 4.2803 -1.7379 -1.8542 0
M  V30 52 H 3.3608 -0.2048 -2.155 0
M  V30 53 H 5.9563 1.6324 1.095 0
M  V30 END ATOM
M  V30 BEGIN BOND
M  V30 1 2 1 2
M  V30 2 1 2 3
M  V30 3 1 2 4
M  V30 4 1 3 5
M  V30 5 1 4 6
M  V30 6 1 5 7
M  V30 7 1 5 8
M  V30 8 1 7 9
M  V30 9 1 7 10
M  V30 10 1 8 11
M  V30 11 1 9 12
M  V30 12 1 9 13
M  V30 13 1 12 14
M  V30 14 1 13 15
M  V30 15 1 14 16
M  V30 16 1 14 17
M  V30 17 1 16 18
M  V30 18 1 16 19
M  V30 19 1 17 20
M  V30 20 1 18 21
M  V30 21 1 21 22
M  V30 22 2 22 23
M  V30 23 1 6 7
M  V30 24 1 11 12
M  V30 25 1 15 16
M  V30 26 1 18 20
M  V30 27 1 3 24
M  V30 28 1 3 25
M  V30 29 1 4 26
M  V30 30 1 4 27
M  V30 31 1 5 28
M  V30 32 1 6 29
M  V30 33 1 6 30
M  V30 34 1 8 31
M  V30 35 1 8 32
M  V30 36 1 9 33
M  V30 37 1 10 34
M  V30 38 1 10 35
M  V30 39 1 10 36
M  V30 40 1 11 37
M  V30 41 1 11 38
M  V30 42 1 12 39
M  V30 43 1 13 40
M  V30 44 1 13 41
M  V30 45 1 14 42
M  V30 46 1 15 43
M  V30 47 1 15 44
M  V30 48 1 17 45
M  V30 49 1 17 46
M  V30 50 1 18 47
M  V30 51 1 19 48
M  V30 52 1 19 49
M  V30 53 1 19 50
M  V30 54 1 20 51
M  V30 55 1 20 52
M  V30 56 1 22 53
M  V30 END BOND
M  V30 BEGIN COLLECTION
M  V30 MDLV30/STEABS ATOMS=(7 5 7 9 12 14 16 18)
M  V30 END COLLECTION
M  V30 END CTAB
M  END
>  <Structure No>
6916

>  <LogS>
-5.32

>  <MMFF94 Energy>
64.617

$$$$
Compound 6917
Actelion Java MolfileCreator 2.0

  0  0  0  0  0  0              0 V3000
M  V30 BEGIN CTAB
M  V30 COUNTS 21 21 0 0 0
M  V30 BEGIN ATOM
M  V30 1 S 5.9524 -0.2407 -1.8472 0
M  V30 2 C 4.8258 -0.4636 -0.7168 0
M  V30 3 N 3.9355 -0.6398 0.1764 0
M  V30 4 C 2.5353 -0.3944 -0.0292 0
M  V30 5 C 1.6508 -0.6255 1.0311 0
M  V30 6 C 2.0258 0.0691 -1.258 0
M  V30 7 C 0.2796 -0.4003 0.876 0
M  V30 8 C 0.6547 0.2941 -1.4124 0
M  V30 9 C -0.2287 0.0628 -0.3522 0
M  V30 10 O -1.5951 0.3041 -0.5585 0
M  V30 11 C -2.605 0.1128 0.4287 0
M  V30 12 C -3.9611 0.4751 -0.155 0
M  V30 13 H 2.0272 -0.9819 1.9821 0
M  V30 14 H 2.6829 0.2575 -2.0972 0
M  V30 15 H -0.3748 -0.5892 1.7159 0
M  V30 16 H 0.2759 0.6504 -2.3621 0
M  V30 17 H -2.6204 -0.9511 0.7506 0
M  V30 18 H -2.4017 0.7636 1.3067 0
M  V30 19 H -4.1821 -0.1712 -1.0307 0
M  V30 20 H -3.9641 1.5384 -0.4763 0
M  V30 21 H -4.7512 0.3274 0.6111 0
M  V30 END ATOM
M  V30 BEGIN BOND
M  V30 1 2 1 2
M  V30 2 2 2 3
M  V30 3 1 3 4
M  V30 4 2 4 5
M  V30 5 1 4 6
M  V30 6 1 5 7
M  V30 7 2 6 8
M  V30 8 2 7 9
M  V30 9 1 9 10
M  V30 10 1 10 11
M  V30 11 1 11 12
M  V30 12 1 8 9
M  V30 13 1 5 13
M  V30 14 1 6 14
M  V30 15 1 7 15
M  V30 16 1 8 16
M  V30 17 1 11 17
M  V30 18 1 11 18
M  V30 19 1 12 19
M  V30 20 1 12 20
M  V30 21 1 12 21
M  V30 END BOND
M  V30 END CTAB
M  END
>  <Structure No>
6917

>  <LogS>
-4.26

>  <MMFF94 Energy>
14.614

$$$$
Compound 6918
Actelion Java MolfileCreator 2.0

  0  0  0  0  0  0              0 V3000
M  V30 BEGIN CTAB
M  V30 COUNTS 43 43 0 0 0
M  V30 BEGIN ATOM
M  V30 1 O 4.3736 -0.6352 -0.3969 0
M  V30 2 C 3.7404 -1.3325 0.4423 0
M  V30 3 N 2.3623 -1.0515 0.7329 0
M  V30 4 N 4.4026 -2.4059 1.122 0
M  V30 5 C 1.5856 -0.0517 0.0474 0
M  V30 6 C 5.8012 -2.7296 0.8696 0
M  V30 7 O 2.033 0.4701 -1.0116 0
M  V30 8 C 0.1863 0.3103 0.5434 0 CFG=1
M  V30 9 C -0.3639 1.5457 -0.2072 0
M  V30 10 C -0.72 -0.895 0.3488 0
M  V30 11 C 0.2503 0.6394 2.0553 0
M  V30 12 C 0.3067 2.7247 -0.122 0
M  V30 13 C -1.7264 1.4895 -0.8984 0
M  V30 14 O -0.518 -1.695 -0.608 0
M  V30 15 O -1.8322 -1.0691 1.1826 0
M  V30 16 C -0.1341 3.9897 -0.8135 0
M  V30 17 C -2.0089 2.6852 -1.8147 0
M  V30 18 C -2.7828 -2.1122 0.9983 0
M  V30 19 C -1.6302 3.9891 -1.1215 0
M  V30 20 O -3.4725 -1.9049 -0.2159 0
M  V30 21 C -4.3965 -2.9511 -0.4122 0
M  V30 22 H 1.8992 -1.623 1.4738 0
M  V30 23 H 3.8715 -2.9762 1.8181 0
M  V30 24 H 6.1085 -3.5913 1.4991 0
M  V30 25 H 6.4407 -1.8567 1.1189 0
M  V30 26 H 5.9385 -2.9984 -0.1989 0
M  V30 27 H 0.4486 -0.2697 2.6618 0
M  V30 28 H 1.0547 1.3733 2.2746 0
M  V30 29 H -0.7146 1.0702 2.4013 0
M  V30 30 H 1.2628 2.7643 0.3909 0
M  V30 31 H -1.8013 0.5726 -1.5201 0
M  V30 32 H -2.5139 1.4404 -0.1154 0
M  V30 33 H 0.4403 4.0947 -1.7591 0
M  V30 34 H 0.1049 4.8614 -0.1678 0
M  V30 35 H -3.089 2.7032 -2.0766 0
M  V30 36 H -1.4283 2.5801 -2.7581 0
M  V30 37 H -2.25 -3.0912 1.0012 0
M  V30 38 H -3.4906 -2.0827 1.8565 0
M  V30 39 H -1.8726 4.8484 -1.7834 0
M  V30 40 H -2.2115 4.0999 -0.1793 0
M  V30 41 H -3.8797 -3.9324 -0.5029 0
M  V30 42 H -5.1512 -2.9823 0.405 0
M  V30 43 H -4.9391 -2.7692 -1.3625 0
M  V30 END ATOM
M  V30 BEGIN BOND
M  V30 1 2 1 2
M  V30 2 1 2 3
M  V30 3 1 2 4
M  V30 4 1 3 5
M  V30 5 1 4 6
M  V30 6 2 5 7
M  V30 7 1 5 8
M  V30 8 1 8 9
M  V30 9 1 8 10
M  V30 10 1 8 11
M  V30 11 2 9 12
M  V30 12 1 9 13
M  V30 13 2 10 14
M  V30 14 1 10 15
M  V30 15 1 12 16
M  V30 16 1 13 17
M  V30 17 1 15 18
M  V30 18 1 16 19
M  V30 19 1 18 20
M  V30 20 1 20 21
M  V30 21 1 17 19
M  V30 22 1 3 22
M  V30 23 1 4 23
M  V30 24 1 6 24
M  V30 25 1 6 25
M  V30 26 1 6 26
M  V30 27 1 11 27
M  V30 28 1 11 28
M  V30 29 1 11 29
M  V30 30 1 12 30
M  V30 31 1 13 31
M  V30 32 1 13 32
M  V30 33 1 16 33
M  V30 34 1 16 34
M  V30 35 1 17 35
M  V30 36 1 17 36
M  V30 37 1 18 37
M  V30 38 1 18 38
M  V30 39 1 19 39
M  V30 40 1 19 40
M  V30 41 1 21 41
M  V30 42 1 21 42
M  V30 43 1 21 43
M  V30 END BOND
M  V30 BEGIN COLLECTION
M  V30 MDLV30/STEABS ATOMS=(1 8)
M  V30 END COLLECTION
M  V30 END CTAB
M  END
>  <Structure No>
6918

>  <LogS>
-2.42

>  <MMFF94 Energy>
-69.999

$$$$
Compound 6919
Actelion Java MolfileCreator 2.0

  0  0  0  0  0  0              0 V3000
M  V30 BEGIN CTAB
M  V30 COUNTS 24 24 0 0 0
M  V30 BEGIN ATOM
M  V30 1 O 2.4405 0.472 -1.889 0
M  V30 2 C 1.9142 0.4185 -0.7433 0
M  V30 3 N 2.7376 0.5906 0.4207 0
M  V30 4 C 0.4524 0.1976 -0.6252 0
M  V30 5 C 4.1938 0.6582 0.3194 0
M  V30 6 C -0.1077 -0.3662 0.535 0
M  V30 7 C -0.3968 0.5302 -1.6949 0
M  V30 8 O 4.7608 0.8452 1.587 0
M  V30 9 C -1.4872 -0.5742 0.629 0
M  V30 10 C -1.7754 0.3227 -1.5984 0
M  V30 11 C -2.3331 -0.2273 -0.4402 0
M  V30 12 O -3.7225 -0.4149 -0.3929 0
M  V30 13 C -4.4222 -0.9632 0.7193 0
M  V30 14 H 2.2939 0.7192 1.3574 0
M  V30 15 H 4.4788 1.5149 -0.3268 0
M  V30 16 H 4.5844 -0.2767 -0.1417 0
M  V30 17 H 0.516 -0.6722 1.3638 0
M  V30 18 H 0.0037 0.9622 -2.6036 0
M  V30 19 H 4.6532 -0.0144 2.0717 0
M  V30 20 H -1.8845 -1.0113 1.5349 0
M  V30 21 H -2.415 0.5914 -2.4296 0
M  V30 22 H -5.5061 -0.9945 0.4862 0
M  V30 23 H -4.0713 -1.9978 0.9186 0
M  V30 24 H -4.2697 -0.328 1.6173 0
M  V30 END ATOM
M  V30 BEGIN BOND
M  V30 1 2 1 2
M  V30 2 1 2 3
M  V30 3 1 2 4
M  V30 4 1 3 5
M  V30 5 2 4 6
M  V30 6 1 4 7
M  V30 7 1 5 8
M  V30 8 1 6 9
M  V30 9 2 7 10
M  V30 10 2 9 11
M  V30 11 1 11 12
M  V30 12 1 12 13
M  V30 13 1 10 11
M  V30 14 1 3 14
M  V30 15 1 5 15
M  V30 16 1 5 16
M  V30 17 1 6 17
M  V30 18 1 7 18
M  V30 19 1 8 19
M  V30 20 1 9 20
M  V30 21 1 10 21
M  V30 22 1 13 22
M  V30 23 1 13 23
M  V30 24 1 13 24
M  V30 END BOND
M  V30 END CTAB
M  END
>  <Structure No>
6919

>  <LogS>
-1.22

>  <MMFF94 Energy>
-29.317

$$$$
Compound 6920
Actelion Java MolfileCreator 2.0

  0  0  0  0  0  0              0 V3000
M  V30 BEGIN CTAB
M  V30 COUNTS 18 18 0 0 0
M  V30 BEGIN ATOM
M  V30 1 Cl -1.9705 1.724 -1.3133 0
M  V30 2 C -1.3631 0.3395 -0.3995 0
M  V30 3 C 0.0948 0.2903 -0.1187 0
M  V30 4 C -2.177 -0.6331 0.0582 0
M  V30 5 C 0.7937 1.4708 0.1942 0
M  V30 6 C 0.8065 -0.9242 -0.1824 0
M  V30 7 C -3.636 -0.7161 -0.1627 0
M  V30 8 C 2.168 1.4347 0.4503 0
M  V30 9 C 2.1808 -0.9542 0.0735 0
M  V30 10 O -4.2871 -1.6314 0.4055 0
M  V30 11 O -4.312 0.1704 -0.9911 0 CHG=-1
M  V30 12 C 2.8605 0.2235 0.3912 0
M  V30 13 H -1.75 -1.4244 0.6635 0
M  V30 14 H 0.2757 2.4196 0.2568 0
M  V30 15 H 0.3053 -1.8465 -0.4485 0
M  V30 16 H 2.696 2.3471 0.6963 0
M  V30 17 H 2.72 -1.8912 0.0205 0
M  V30 18 H 3.9244 0.1981 0.5888 0
M  V30 END ATOM
M  V30 BEGIN BOND
M  V30 1 1 1 2
M  V30 2 1 2 3
M  V30 3 2 2 4
M  V30 4 2 3 5
M  V30 5 1 3 6
M  V30 6 1 4 7
M  V30 7 1 5 8
M  V30 8 2 6 9
M  V30 9 2 7 10
M  V30 10 1 7 11
M  V30 11 2 8 12
M  V30 12 1 9 12
M  V30 13 1 4 13
M  V30 14 1 5 14
M  V30 15 1 6 15
M  V30 16 1 8 16
M  V30 17 1 9 17
M  V30 18 1 12 18
M  V30 END BOND
M  V30 END CTAB
M  END
>  <Structure No>
6920

>  <LogS>
-2.77

>  <MMFF94 Energy>
6.5852

$$$$
Compound 6921
Actelion Java MolfileCreator 2.0

  0  0  0  0  0  0              0 V3000
M  V30 BEGIN CTAB
M  V30 COUNTS 24 24 0 0 0
M  V30 BEGIN ATOM
M  V30 1 O -2.1254 0.472 1.4952 0
M  V30 2 C -1.8274 -0.0032 0.3651 0
M  V30 3 N -2.861 -0.5563 -0.4656 0
M  V30 4 C -0.4105 -0.0016 -0.073 0
M  V30 5 C -4.2787 -0.4116 -0.1443 0
M  V30 6 C 0.6212 0.0715 0.8811 0
M  V30 7 C -0.0725 -0.047 -1.4372 0
M  V30 8 O -4.6864 0.9124 -0.3545 0
M  V30 9 C 1.9657 0.0799 0.4893 0
M  V30 10 C 1.2664 -0.0379 -1.834 0
M  V30 11 O 2.9496 0.146 1.4872 0
M  V30 12 C 2.2835 0.0222 -0.8798 0
M  V30 13 C 4.3508 0.1619 1.235 0
M  V30 14 H -2.6051 -1.154 -1.2826 0
M  V30 15 H -4.8743 -1.0715 -0.81 0
M  V30 16 H -4.4724 -0.73 0.9052 0
M  V30 17 H 0.3856 0.1117 1.9377 0
M  V30 18 H -0.8369 -0.0651 -2.2021 0
M  V30 19 H -4.4102 1.4272 0.4474 0
M  V30 20 H 1.5165 -0.0712 -2.8866 0
M  V30 21 H 3.3111 0.0283 -1.2163 0
M  V30 22 H 4.8924 0.2176 2.2013 0
M  V30 23 H 4.6547 -0.768 0.7099 0
M  V30 24 H 4.6189 1.0505 0.6254 0
M  V30 END ATOM
M  V30 BEGIN BOND
M  V30 1 2 1 2
M  V30 2 1 2 3
M  V30 3 1 2 4
M  V30 4 1 3 5
M  V30 5 2 4 6
M  V30 6 1 4 7
M  V30 7 1 5 8
M  V30 8 1 6 9
M  V30 9 2 7 10
M  V30 10 1 9 11
M  V30 11 2 9 12
M  V30 12 1 11 13
M  V30 13 1 10 12
M  V30 14 1 3 14
M  V30 15 1 5 15
M  V30 16 1 5 16
M  V30 17 1 6 17
M  V30 18 1 7 18
M  V30 19 1 8 19
M  V30 20 1 10 20
M  V30 21 1 12 21
M  V30 22 1 13 22
M  V30 23 1 13 23
M  V30 24 1 13 24
M  V30 END BOND
M  V30 END CTAB
M  END
>  <Structure No>
6921

>  <LogS>
-1.29

>  <MMFF94 Energy>
-33.843

$$$$
Compound 6922
Actelion Java MolfileCreator 2.0

  0  0  0  0  0  0              0 V3000
M  V30 BEGIN CTAB
M  V30 COUNTS 32 32 0 0 0
M  V30 BEGIN ATOM
M  V30 1 O -5.7085 2.3755 0.0791 0
M  V30 2 C -5.4065 1.2403 0.5342 0
M  V30 3 O -6.3547 0.5337 1.2654 0 CHG=-1
M  V30 4 C -4.0642 0.6663 0.2948 0
M  V30 5 C -3.7321 -0.5997 0.8068 0
M  V30 6 C -3.1008 1.3778 -0.4422 0
M  V30 7 C -2.4645 -1.1447 0.5829 0
M  V30 8 C -1.8338 0.8316 -0.6653 0
M  V30 9 C -1.5109 -0.4383 -0.1648 0
M  V30 10 C -0.1341 -1.0091 -0.3755 0
M  V30 11 C 0.8151 -0.5448 0.7371 0
M  V30 12 C 2.2015 -1.2079 0.6573 0
M  V30 13 C 2.9891 -0.9216 -0.6373 0
M  V30 14 C 3.2125 0.5691 -0.9461 0
M  V30 15 C 4.0176 1.2872 0.1359 0
M  V30 16 H -4.4499 -1.169 1.3838 0
M  V30 17 H -3.3244 2.3584 -0.8438 0
M  V30 18 H -2.226 -2.1176 0.9945 0
M  V30 19 H -1.1027 1.3999 -1.2272 0
M  V30 20 H -0.1837 -2.12 -0.3893 0
M  V30 21 H 0.2476 -0.6802 -1.3655 0
M  V30 22 H 0.9151 0.561 0.7178 0
M  V30 23 H 0.3701 -0.8116 1.7211 0
M  V30 24 H 2.8033 -0.8827 1.5324 0
M  V30 25 H 2.0767 -2.3083 0.7543 0
M  V30 26 H 3.9792 -1.4218 -0.5607 0
M  V30 27 H 2.4687 -1.3919 -1.4982 0
M  V30 28 H 3.7737 0.6429 -1.9026 0
M  V30 29 H 2.2428 1.0871 -1.1004 0
M  V30 30 H 4.2614 2.3149 -0.2062 0
M  V30 31 H 3.4296 1.3667 1.0739 0
M  V30 32 H 4.9666 0.7464 0.3374 0
M  V30 END ATOM
M  V30 BEGIN BOND
M  V30 1 2 1 2
M  V30 2 1 2 3
M  V30 3 1 2 4
M  V30 4 2 4 5
M  V30 5 1 4 6
M  V30 6 1 5 7
M  V30 7 2 6 8
M  V30 8 2 7 9
M  V30 9 1 9 10
M  V30 10 1 10 11
M  V30 11 1 11 12
M  V30 12 1 12 13
M  V30 13 1 13 14
M  V30 14 1 14 15
M  V30 15 1 8 9
M  V30 16 1 5 16
M  V30 17 1 6 17
M  V30 18 1 7 18
M  V30 19 1 8 19
M  V30 20 1 10 20
M  V30 21 1 10 21
M  V30 22 1 11 22
M  V30 23 1 11 23
M  V30 24 1 12 24
M  V30 25 1 12 25
M  V30 26 1 13 26
M  V30 27 1 13 27
M  V30 28 1 14 28
M  V30 29 1 14 29
M  V30 30 1 15 30
M  V30 31 1 15 31
M  V30 32 1 15 32
M  V30 END BOND
M  V30 END CTAB
M  END
>  <Structure No>
6922

>  <LogS>
-3.65

>  <MMFF94 Energy>
38.254

$$$$
Compound 6923
Actelion Java MolfileCreator 2.0

  0  0  0  0  0  0              0 V3000
M  V30 BEGIN CTAB
M  V30 COUNTS 16 17 0 0 0
M  V30 BEGIN ATOM
M  V30 1 N -1.91 1.273 -0.6363 0
M  V30 2 C -0.7081 0.7143 -0.3562 0
M  V30 3 C -3.0341 0.5232 -0.4215 0
M  V30 4 N 0.4975 1.2918 -0.49 0
M  V30 5 C -0.5942 -0.5437 0.1255 0
M  V30 6 N -2.9356 -0.7554 0.0676 0
M  V30 7 C 1.3348 0.3016 -0.0722 0
M  V30 8 N 0.6966 -0.8313 0.3211 0
M  V30 9 C -1.7229 -1.3158 0.352 0
M  V30 10 C 2.814 0.4765 0.0184 0
M  V30 11 H -4.0075 0.9418 -0.637 0
M  V30 12 H 1.1126 -1.713 0.6959 0
M  V30 13 H -1.6531 -2.3234 0.7396 0
M  V30 14 H 3.3233 -0.4829 -0.2099 0
M  V30 15 H 3.0852 0.8002 1.0446 0
M  V30 16 H 3.1519 1.2444 -0.7087 0
M  V30 END ATOM
M  V30 BEGIN BOND
M  V30 1 2 1 2
M  V30 2 1 1 3
M  V30 3 1 2 4
M  V30 4 1 2 5
M  V30 5 2 3 6
M  V30 6 2 4 7
M  V30 7 1 5 8
M  V30 8 2 5 9
M  V30 9 1 7 10
M  V30 10 1 6 9
M  V30 11 1 7 8
M  V30 12 1 3 11
M  V30 13 1 8 12
M  V30 14 1 9 13
M  V30 15 1 10 14
M  V30 16 1 10 15
M  V30 17 1 10 16
M  V30 END BOND
M  V30 END CTAB
M  END
>  <Structure No>
6923

>  <LogS>
-0.41

>  <MMFF94 Energy>
-28.024

$$$$
Compound 6924
Actelion Java MolfileCreator 2.0

  0  0  0  0  0  0              0 V3000
M  V30 BEGIN CTAB
M  V30 COUNTS 35 38 0 0 0
M  V30 BEGIN ATOM
M  V30 1 S -2.6271 -1.44 -1.5248 0
M  V30 2 S -0.8958 -2.6884 -1.1119 0
M  V30 3 C -2.175 0.0508 -0.5482 0 CFG=1
M  V30 4 C -0.0425 -1.6041 0.0948 0 CFG=1
M  V30 5 N -2.0781 -0.3606 0.8786 0
M  V30 6 C -0.7965 0.4796 -1.0049 0
M  V30 7 C -3.2298 1.1587 -0.7853 0
M  V30 8 N 0.2866 -0.3476 -0.5707 0
M  V30 9 C -1.0214 -1.2928 1.1955 0
M  V30 10 C 1.3037 -2.2117 0.549 0
M  V30 11 C -3.0991 -0.0254 1.8808 0
M  V30 12 O -0.6087 1.4508 -1.7858 0
M  V30 13 O -3.3379 1.4563 -2.1517 0
M  V30 14 C 1.7144 -0.1246 -0.7449 0 CFG=2
M  V30 15 O -0.9747 -1.8817 2.3101 0
M  V30 16 C 2.3158 -1.2312 0.0586 0
M  V30 17 C 2.2106 1.2377 -0.2026 0 CFG=2
M  V30 18 C 3.5756 -1.1742 0.5034 0
M  V30 19 O 1.8679 2.2635 -1.0949 0
M  V30 20 C 3.7194 1.2023 -0.0376 0
M  V30 21 C 4.3453 0.07 0.3164 0
M  V30 22 H -4.2231 0.8178 -0.4182 0
M  V30 23 H -2.9368 2.0771 -0.2282 0
M  V30 24 H 1.4942 -3.2068 0.0936 0
M  V30 25 H 1.3758 -2.2963 1.6545 0
M  V30 26 H -2.7926 -0.3443 2.8985 0
M  V30 27 H -3.2536 1.0721 1.9215 0
M  V30 28 H -4.0538 -0.5311 1.6258 0
M  V30 29 H -4.011 2.1821 -2.2241 0
M  V30 30 H 1.9907 -0.2424 -1.8156 0
M  V30 31 H 1.7453 1.4197 0.7949 0
M  V30 32 H 3.9899 -1.9779 1.0987 0
M  V30 33 H 1.9192 3.1149 -0.5864 0
M  V30 34 H 4.2941 2.1127 -0.1553 0
M  V30 35 H 5.4107 0.076 0.5063 0
M  V30 END ATOM
M  V30 BEGIN BOND
M  V30 1 1 1 2
M  V30 2 1 1 3
M  V30 3 1 2 4
M  V30 4 1 3 5
M  V30 5 1 3 6
M  V30 6 1 3 7
M  V30 7 1 4 8
M  V30 8 1 4 9
M  V30 9 1 4 10
M  V30 10 1 5 11
M  V30 11 2 6 12
M  V30 12 1 7 13
M  V30 13 1 8 14
M  V30 14 2 9 15
M  V30 15 1 10 16
M  V30 16 1 14 17
M  V30 17 2 16 18
M  V30 18 1 17 19
M  V30 19 1 17 20
M  V30 20 1 18 21
M  V30 21 1 5 9
M  V30 22 1 6 8
M  V30 23 1 14 16
M  V30 24 2 20 21
M  V30 25 1 7 22
M  V30 26 1 7 23
M  V30 27 1 10 24
M  V30 28 1 10 25
M  V30 29 1 11 26
M  V30 30 1 11 27
M  V30 31 1 11 28
M  V30 32 1 13 29
M  V30 33 1 14 30
M  V30 34 1 17 31
M  V30 35 1 18 32
M  V30 36 1 19 33
M  V30 37 1 20 34
M  V30 38 1 21 35
M  V30 END BOND
M  V30 BEGIN COLLECTION
M  V30 MDLV30/STEABS ATOMS=(4 3 4 14 17)
M  V30 END COLLECTION
M  V30 END CTAB
M  END
>  <Structure No>
6924

>  <LogS>
-3.67

>  <MMFF94 Energy>
173.29

$$$$
Compound 6925
Actelion Java MolfileCreator 2.0

  0  0  0  0  0  0              0 V3000
M  V30 BEGIN CTAB
M  V30 COUNTS 51 54 0 0 0
M  V30 BEGIN ATOM
M  V30 1 O 5.4466 -0.1622 -1.8672 0
M  V30 2 C 4.3522 -0.086 -1.249 0
M  V30 3 C 3.8676 -1.248 -0.4894 0
M  V30 4 C 3.5512 1.1827 -1.317 0
M  V30 5 C 2.7885 -1.1605 0.3083 0
M  V30 6 C 2.1344 1.0083 -0.735 0
M  V30 7 C 2.1275 0.1907 0.5962 0 CFG=1
M  V30 8 C 2.0726 -2.4192 0.7082 0
M  V30 9 C 0.6729 -0.0349 1.1924 0 CFG=2
M  V30 10 C 2.9753 0.9275 1.666 0
M  V30 11 C 0.6971 -2.384 0.0447 0
M  V30 12 C -0.1659 -1.1871 0.5337 0 CFG=2
M  V30 13 C -0.1481 1.2655 1.437 0
M  V30 14 C -1.1391 -0.6751 -0.5677 0 CFG=2
M  V30 15 C -1.658 1.0464 1.3052 0
M  V30 16 C -2.0454 0.5143 -0.1043 0 CFG=2
M  V30 17 C -2.0954 -1.7866 -1.0472 0
M  V30 18 C -3.4799 -0.0771 -0.0822 0 CFG=2
M  V30 19 C -1.9513 1.6683 -1.1405 0
M  V30 20 C -3.475 -1.1649 -1.1381 0
M  V30 21 O -4.4961 0.8858 -0.3757 0
M  V30 22 C -5.0787 1.7137 0.5885 0
M  V30 23 O -4.7954 1.5948 1.8103 0
M  V30 24 H 4.3308 -2.2085 -0.6817 0
M  V30 25 H 4.0923 1.9818 -0.7668 0
M  V30 26 H 3.4687 1.5062 -2.377 0
M  V30 27 H 1.7226 2.0267 -0.6067 0
M  V30 28 H 1.5168 0.4875 -1.4935 0
M  V30 29 H 2.6154 -3.333 0.3803 0
M  V30 30 H 1.9722 -2.4691 1.8137 0
M  V30 31 H 0.8447 -0.4263 2.2229 0
M  V30 32 H 2.5886 1.9553 1.8324 0
M  V30 33 H 2.9518 0.3827 2.6342 0
M  V30 34 H 4.0422 1.0041 1.3712 0
M  V30 35 H 0.8395 -2.3364 -1.0583 0
M  V30 36 H 0.1706 -3.3388 0.2621 0
M  V30 37 H -0.8077 -1.5982 1.3484 0
M  V30 38 H 0.0601 1.6401 2.4638 0
M  V30 39 H 0.1363 2.0917 0.7676 0
M  V30 40 H -0.5301 -0.3711 -1.4446 0
M  V30 41 H -1.9755 0.3352 2.099 0
M  V30 42 H -2.179 2.0063 1.5113 0
M  V30 43 H -1.7815 -2.1915 -2.034 0
M  V30 44 H -2.1399 -2.6286 -0.3215 0
M  V30 45 H -3.6964 -0.5726 0.8925 0
M  V30 46 H -0.9015 2.0009 -1.2759 0
M  V30 47 H -2.3255 1.3403 -2.1332 0
M  V30 48 H -2.5489 2.5469 -0.8165 0
M  V30 49 H -4.2725 -1.9164 -0.9497 0
M  V30 50 H -3.6221 -0.7251 -2.1493 0
M  V30 51 H -5.7965 2.4608 0.28 0
M  V30 END ATOM
M  V30 BEGIN BOND
M  V30 1 2 1 2
M  V30 2 1 2 3
M  V30 3 1 2 4
M  V30 4 2 3 5
M  V30 5 1 4 6
M  V30 6 1 5 7
M  V30 7 1 5 8
M  V30 8 1 7 9
M  V30 9 1 7 10
M  V30 10 1 8 11
M  V30 11 1 9 12
M  V30 12 1 9 13
M  V30 13 1 12 14
M  V30 14 1 13 15
M  V30 15 1 14 16
M  V30 16 1 14 17
M  V30 17 1 16 18
M  V30 18 1 16 19
M  V30 19 1 17 20
M  V30 20 1 18 21
M  V30 21 1 21 22
M  V30 22 2 22 23
M  V30 23 1 6 7
M  V30 24 1 11 12
M  V30 25 1 15 16
M  V30 26 1 18 20
M  V30 27 1 3 24
M  V30 28 1 4 25
M  V30 29 1 4 26
M  V30 30 1 6 27
M  V30 31 1 6 28
M  V30 32 1 8 29
M  V30 33 1 8 30
M  V30 34 1 9 31
M  V30 35 1 10 32
M  V30 36 1 10 33
M  V30 37 1 10 34
M  V30 38 1 11 35
M  V30 39 1 11 36
M  V30 40 1 12 37
M  V30 41 1 13 38
M  V30 42 1 13 39
M  V30 43 1 14 40
M  V30 44 1 15 41
M  V30 45 1 15 42
M  V30 46 1 17 43
M  V30 47 1 17 44
M  V30 48 1 18 45
M  V30 49 1 19 46
M  V30 50 1 19 47
M  V30 51 1 19 48
M  V30 52 1 20 49
M  V30 53 1 20 50
M  V30 54 1 22 51
M  V30 END BOND
M  V30 BEGIN COLLECTION
M  V30 MDLV30/STEABS ATOMS=(6 7 9 12 14 16 18)
M  V30 END COLLECTION
M  V30 END CTAB
M  END
>  <Structure No>
6925

>  <LogS>
-4.93

>  <MMFF94 Energy>
71.056

$$$$
Compound 6926
Actelion Java MolfileCreator 2.0

  0  0  0  0  0  0              0 V3000
M  V30 BEGIN CTAB
M  V30 COUNTS 19 19 0 0 0
M  V30 BEGIN ATOM
M  V30 1 S 5.3621 0.1621 0.6488 0
M  V30 2 C 4.1054 -0.7247 0.1687 0
M  V30 3 N 3.1122 -1.4256 -0.2105 0
M  V30 4 C 1.7538 -0.9596 -0.2035 0
M  V30 5 C 1.405 0.3329 0.2313 0
M  V30 6 C 0.7463 -1.8234 -0.6447 0
M  V30 7 C 0.0693 0.7461 0.2215 0
M  V30 8 C -0.5894 -1.4123 -0.6552 0
M  V30 9 C -0.947 -0.1217 -0.2222 0
M  V30 10 C -2.3736 0.3009 -0.2394 0
M  V30 11 O -3.2593 -0.5011 -0.6432 0
M  V30 12 C -2.8018 1.6652 0.2122 0
M  V30 13 H 2.1614 1.0248 0.5786 0
M  V30 14 H 0.9987 -2.821 -0.9823 0
M  V30 15 H -0.1587 1.7467 0.5632 0
M  V30 16 H -1.3424 -2.1082 -1.0035 0
M  V30 17 H -3.9031 1.7787 0.1203 0
M  V30 18 H -2.5215 1.8156 1.2757 0
M  V30 19 H -2.3159 2.4404 -0.4166 0
M  V30 END ATOM
M  V30 BEGIN BOND
M  V30 1 2 1 2
M  V30 2 2 2 3
M  V30 3 1 3 4
M  V30 4 2 4 5
M  V30 5 1 4 6
M  V30 6 1 5 7
M  V30 7 2 6 8
M  V30 8 2 7 9
M  V30 9 1 9 10
M  V30 10 2 10 11
M  V30 11 1 10 12
M  V30 12 1 8 9
M  V30 13 1 5 13
M  V30 14 1 6 14
M  V30 15 1 7 15
M  V30 16 1 8 16
M  V30 17 1 12 17
M  V30 18 1 12 18
M  V30 19 1 12 19
M  V30 END BOND
M  V30 END CTAB
M  END
>  <Structure No>
6926

>  <LogS>
-4.02

>  <MMFF94 Energy>
30.777

$$$$
Compound 6927
Actelion Java MolfileCreator 2.0

  0  0  0  0  0  0              0 V3000
M  V30 BEGIN CTAB
M  V30 COUNTS 15 16 0 0 0
M  V30 BEGIN ATOM
M  V30 1 N -1.5092 -1.6681 -0.0793 0
M  V30 2 C -0.3914 -0.9035 -0.0474 0
M  V30 3 C -2.7225 -1.038 -0.0214 0
M  V30 4 N 0.8799 -1.3367 -0.0936 0
M  V30 5 C -0.4448 0.4461 0.0386 0
M  V30 6 N -2.7939 0.3299 0.0662 0
M  V30 7 C 1.5735 -0.1666 -0.0298 0
M  V30 8 N 0.7963 0.9432 0.0518 0
M  V30 9 C -1.6659 1.0998 0.0982 0
M  V30 10 N 2.9982 -0.114 -0.0476 0
M  V30 11 H -3.6321 -1.6223 -0.0449 0
M  V30 12 H 1.0945 1.9424 0.1106 0
M  V30 13 H -1.7301 2.1775 0.1673 0
M  V30 14 H 3.4931 0.8037 0.0032 0
M  V30 15 H 3.5566 -0.9937 -0.1114 0
M  V30 END ATOM
M  V30 BEGIN BOND
M  V30 1 2 1 2
M  V30 2 1 1 3
M  V30 3 1 2 4
M  V30 4 1 2 5
M  V30 5 2 3 6
M  V30 6 2 4 7
M  V30 7 1 5 8
M  V30 8 2 5 9
M  V30 9 1 7 10
M  V30 10 1 6 9
M  V30 11 1 7 8
M  V30 12 1 3 11
M  V30 13 1 8 12
M  V30 14 1 9 13
M  V30 15 1 10 14
M  V30 16 1 10 15
M  V30 END BOND
M  V30 END CTAB
M  END
>  <Structure No>
6927

>  <LogS>
-2.43

>  <MMFF94 Energy>
-66.298

$$$$
Compound 6928
Actelion Java MolfileCreator 2.0

  0  0  0  0  0  0              0 V3000
M  V30 BEGIN CTAB
M  V30 COUNTS 19 19 0 0 0
M  V30 BEGIN ATOM
M  V30 1 S 1.9796 -1.3194 -1.2369 0
M  V30 2 C 2.1262 0.1807 -0.2486 0
M  V30 3 C 3.4726 0.7613 -0.0653 0
M  V30 4 C 1.0434 0.8021 0.2548 0
M  V30 5 O 4.4771 0.2001 -0.5767 0
M  V30 6 O 3.654 1.9253 0.6738 0 CHG=-1
M  V30 7 C -0.3417 0.307 0.1173 0
M  V30 8 C -0.7016 -0.9872 0.5325 0
M  V30 9 C -1.3364 1.177 -0.3555 0
M  V30 10 C -2.0281 -1.417 0.4276 0
M  V30 11 C -2.6619 0.7435 -0.4593 0
M  V30 12 C -3.0067 -0.5541 -0.0727 0
M  V30 13 H 2.2078 -2.147 -0.1219 0
M  V30 14 H 1.1611 1.7634 0.7407 0
M  V30 15 H 0.0367 -1.6561 0.9548 0
M  V30 16 H -1.0837 2.1874 -0.6534 0
M  V30 17 H -2.2991 -2.4161 0.7435 0
M  V30 18 H -3.4225 1.415 -0.8361 0
M  V30 19 H -4.0333 -0.8876 -0.1512 0
M  V30 END ATOM
M  V30 BEGIN BOND
M  V30 1 1 1 2
M  V30 2 1 2 3
M  V30 3 2 2 4
M  V30 4 2 3 5
M  V30 5 1 3 6
M  V30 6 1 4 7
M  V30 7 2 7 8
M  V30 8 1 7 9
M  V30 9 1 8 10
M  V30 10 2 9 11
M  V30 11 2 10 12
M  V30 12 1 11 12
M  V30 13 1 1 13
M  V30 14 1 4 14
M  V30 15 1 8 15
M  V30 16 1 9 16
M  V30 17 1 10 17
M  V30 18 1 11 18
M  V30 19 1 12 19
M  V30 END BOND
M  V30 END CTAB
M  END
>  <Structure No>
6928

>  <LogS>
-2.96

>  <MMFF94 Energy>
60.013

$$$$
Compound 6929
Actelion Java MolfileCreator 2.0

  0  0  0  0  0  0              0 V3000
M  V30 BEGIN CTAB
M  V30 COUNTS 21 21 0 0 0
M  V30 BEGIN ATOM
M  V30 1 S -3.4523 -1.5606 0.2463 0
M  V30 2 C -1.9031 -0.7891 -0.3328 0 CFG=1
M  V30 3 C -2.2067 0.5224 -1.0006 0
M  V30 4 C -0.9181 -0.6246 0.8371 0
M  V30 5 O -2.7325 1.4658 -0.352 0
M  V30 6 O -1.8999 0.7027 -2.3433 0 CHG=-1
M  V30 7 C 0.437 -0.1641 0.3619 0
M  V30 8 C 0.7822 1.1975 0.4057 0
M  V30 9 C 1.3505 -1.0886 -0.1715 0
M  V30 10 C 2.0288 1.6233 -0.0633 0
M  V30 11 C 2.5962 -0.6585 -0.6391 0
M  V30 12 C 2.9355 0.6961 -0.584 0
M  V30 13 H -3.7336 -0.549 1.1851 0
M  V30 14 H -1.4585 -1.4795 -1.0824 0
M  V30 15 H -1.3273 0.089 1.5861 0
M  V30 16 H -0.8031 -1.6011 1.3569 0
M  V30 17 H 0.0864 1.9279 0.7997 0
M  V30 18 H 1.0964 -2.1399 -0.2263 0
M  V30 19 H 2.2908 2.6728 -0.0256 0
M  V30 20 H 3.2973 -1.3751 -1.0469 0
M  V30 21 H 3.8995 1.0276 -0.9475 0
M  V30 END ATOM
M  V30 BEGIN BOND
M  V30 1 1 1 2
M  V30 2 1 2 3
M  V30 3 1 2 4
M  V30 4 2 3 5
M  V30 5 1 3 6
M  V30 6 1 4 7
M  V30 7 2 7 8
M  V30 8 1 7 9
M  V30 9 1 8 10
M  V30 10 2 9 11
M  V30 11 2 10 12
M  V30 12 1 11 12
M  V30 13 1 1 13
M  V30 14 1 2 14
M  V30 15 1 4 15
M  V30 16 1 4 16
M  V30 17 1 8 17
M  V30 18 1 9 18
M  V30 19 1 10 19
M  V30 20 1 11 20
M  V30 21 1 12 21
M  V30 END BOND
M  V30 BEGIN COLLECTION
M  V30 MDLV30/STEABS ATOMS=(1 2)
M  V30 END COLLECTION
M  V30 END CTAB
M  END
>  <Structure No>
6929

>  <LogS>
-1.56

>  <MMFF94 Energy>
63.556

$$$$
Compound 6930
Actelion Java MolfileCreator 2.0

  0  0  0  0  0  0              0 V3000
M  V30 BEGIN CTAB
M  V30 COUNTS 24 24 0 0 0
M  V30 BEGIN ATOM
M  V30 1 Cl -5.1286 1.5446 0.2437 0
M  V30 2 C -3.6049 0.7256 -0.0466 0
M  V30 3 C -3.5952 -0.6117 -0.4536 0
M  V30 4 C -2.3979 1.4096 0.127 0
M  V30 5 C -2.3808 -1.2647 -0.685 0
M  V30 6 C -1.1818 0.7589 -0.1041 0
M  V30 7 C -1.1649 -0.591 -0.5106 0
M  V30 8 O 0.024 -1.2967 -0.7586 0
M  V30 9 C 1.3438 -0.798 -0.5408 0
M  V30 10 C 1.6818 -0.8046 0.956 0
M  V30 11 C 3.1036 -0.3005 1.2318 0
M  V30 12 C 3.2307 1.1672 0.9601 0
M  V30 13 O 3.7975 1.5718 -0.0888 0
M  V30 14 O 2.6944 2.0881 1.8514 0 CHG=-1
M  V30 15 H -4.5267 -1.1459 -0.5908 0
M  V30 16 H -2.4006 2.4459 0.4401 0
M  V30 17 H -2.3836 -2.3005 -0.9998 0
M  V30 18 H -0.2669 1.3167 0.0354 0
M  V30 19 H 2.0553 -1.467 -1.0698 0
M  V30 20 H 1.4523 0.2145 -0.9835 0
M  V30 21 H 0.9512 -0.1885 1.5227 0
M  V30 22 H 1.5978 -1.8477 1.3312 0
M  V30 23 H 3.8367 -0.8702 0.6197 0
M  V30 24 H 3.3479 -0.4822 2.3004 0
M  V30 END ATOM
M  V30 BEGIN BOND
M  V30 1 1 1 2
M  V30 2 2 2 3
M  V30 3 1 2 4
M  V30 4 1 3 5
M  V30 5 2 4 6
M  V30 6 2 5 7
M  V30 7 1 7 8
M  V30 8 1 8 9
M  V30 9 1 9 10
M  V30 10 1 10 11
M  V30 11 1 11 12
M  V30 12 2 12 13
M  V30 13 1 12 14
M  V30 14 1 6 7
M  V30 15 1 3 15
M  V30 16 1 4 16
M  V30 17 1 5 17
M  V30 18 1 6 18
M  V30 19 1 9 19
M  V30 20 1 9 20
M  V30 21 1 10 21
M  V30 22 1 10 22
M  V30 23 1 11 23
M  V30 24 1 11 24
M  V30 END BOND
M  V30 END CTAB
M  END
>  <Structure No>
6930

>  <LogS>
-3.29

>  <MMFF94 Energy>
16.904

$$$$
Compound 6931
Actelion Java MolfileCreator 2.0

  0  0  0  0  0  0              0 V3000
M  V30 BEGIN CTAB
M  V30 COUNTS 15 15 0 0 0
M  V30 BEGIN ATOM
M  V30 1 O 1.4882 2.8125 0.992 0
M  V30 2 C 1.3611 1.9248 0.108 0
M  V30 3 O 2.149 1.9922 -1.0346 0 CHG=-1
M  V30 4 C 0.3227 0.8855 0.2579 0
M  V30 5 N -0.7924 1.209 0.9715 0
M  V30 6 C 0.4059 -0.3915 -0.3566 0
M  V30 7 C -1.8488 0.366 1.0984 0
M  V30 8 C 1.6286 -0.887 -1.0268 0
M  V30 9 C -0.6992 -1.2537 -0.255 0
M  V30 10 C -1.8266 -0.8764 0.4721 0
M  V30 11 O 1.5389 -1.6686 -2.0106 0
M  V30 12 O 2.8871 -0.5555 -0.5394 0 CHG=-1
M  V30 13 H -2.7125 0.6684 1.6755 0
M  V30 14 H -0.6762 -2.2366 -0.7098 0
M  V30 15 H -2.6698 -1.549 0.5624 0
M  V30 END ATOM
M  V30 BEGIN BOND
M  V30 1 2 1 2
M  V30 2 1 2 3
M  V30 3 1 2 4
M  V30 4 2 4 5
M  V30 5 1 4 6
M  V30 6 1 5 7
M  V30 7 1 6 8
M  V30 8 2 6 9
M  V30 9 2 7 10
M  V30 10 2 8 11
M  V30 11 1 8 12
M  V30 12 1 9 10
M  V30 13 1 7 13
M  V30 14 1 9 14
M  V30 15 1 10 15
M  V30 END BOND
M  V30 END CTAB
M  END
>  <Structure No>
6931

>  <LogS>
-1.48

>  <MMFF94 Energy>
166.64

$$$$
Compound 6932
Actelion Java MolfileCreator 2.0

  0  0  0  0  0  0              0 V3000
M  V30 BEGIN CTAB
M  V30 COUNTS 34 35 0 0 0
M  V30 BEGIN ATOM
M  V30 1 O 1.2705 -0.6351 -1.7472 0
M  V30 2 C 1.5795 -0.5274 -0.5285 0
M  V30 3 N 0.6077 -0.8519 0.4792 0
M  V30 4 C 2.9338 -0.0465 -0.1639 0
M  V30 5 C -0.6944 -1.427 0.1438 0
M  V30 6 C 3.6664 0.7421 -1.0708 0
M  V30 7 C 3.5199 -0.3832 1.0714 0
M  V30 8 N -1.4999 -0.4702 -0.6421 0
M  V30 9 C 4.9459 1.1991 -0.7408 0
M  V30 10 C 4.8005 0.0758 1.3955 0
M  V30 11 C -1.7266 0.7871 0.1173 0
M  V30 12 C -2.744 -1.1033 -1.1563 0
M  V30 13 C 5.5115 0.8684 0.4921 0
M  V30 14 C -2.9316 1.5686 -0.4165 0
M  V30 15 C -3.9767 -0.7655 -0.3063 0
M  V30 16 C -4.2268 0.7519 -0.2702 0
M  V30 17 H 0.8063 -0.6518 1.4843 0
M  V30 18 H -1.2312 -1.7101 1.0773 0
M  V30 19 H -0.5204 -2.3578 -0.4398 0
M  V30 20 H 3.2451 1.0151 -2.0304 0
M  V30 21 H 3.007 -1.0202 1.779 0
M  V30 22 H 5.4991 1.8105 -1.4419 0
M  V30 23 H 5.2449 -0.1892 2.3462 0
M  V30 24 H -1.8912 0.5815 1.2002 0
M  V30 25 H -0.8247 1.4302 0.0283 0
M  V30 26 H -2.9174 -0.7433 -2.1935 0
M  V30 27 H -2.6494 -2.2097 -1.23 0
M  V30 28 H 6.5027 1.2216 0.7452 0
M  V30 29 H -3.0309 2.5295 0.1333 0
M  V30 30 H -2.759 1.807 -1.4892 0
M  V30 31 H -4.8705 -1.2809 -0.7196 0
M  V30 32 H -3.8156 -1.1429 0.727 0
M  V30 33 H -4.7226 1.0097 0.6909 0
M  V30 34 H -4.9225 1.0338 -1.0903 0
M  V30 END ATOM
M  V30 BEGIN BOND
M  V30 1 2 1 2
M  V30 2 1 2 3
M  V30 3 1 2 4
M  V30 4 1 3 5
M  V30 5 2 4 6
M  V30 6 1 4 7
M  V30 7 1 5 8
M  V30 8 1 6 9
M  V30 9 2 7 10
M  V30 10 1 8 11
M  V30 11 1 8 12
M  V30 12 2 9 13
M  V30 13 1 11 14
M  V30 14 1 12 15
M  V30 15 1 14 16
M  V30 16 1 10 13
M  V30 17 1 15 16
M  V30 18 1 3 17
M  V30 19 1 5 18
M  V30 20 1 5 19
M  V30 21 1 6 20
M  V30 22 1 7 21
M  V30 23 1 9 22
M  V30 24 1 10 23
M  V30 25 1 11 24
M  V30 26 1 11 25
M  V30 27 1 12 26
M  V30 28 1 12 27
M  V30 29 1 13 28
M  V30 30 1 14 29
M  V30 31 1 14 30
M  V30 32 1 15 31
M  V30 33 1 15 32
M  V30 34 1 16 33
M  V30 35 1 16 34
M  V30 END BOND
M  V30 END CTAB
M  END
>  <Structure No>
6932

>  <LogS>
-2.15

>  <MMFF94 Energy>
-36.074

$$$$
Compound 6933
Actelion Java MolfileCreator 2.0

  0  0  0  0  0  0              0 V3000
M  V30 BEGIN CTAB
M  V30 COUNTS 23 23 0 0 0
M  V30 BEGIN ATOM
M  V30 1 O -2.8604 -1.0322 -1.5088 0
M  V30 2 C -3.2452 -0.0571 -0.8082 0
M  V30 3 O -2.4298 0.4773 0.1975 0
M  V30 4 C -4.6339 0.4599 -0.9713 0
M  V30 5 C -1.0459 0.2776 0.3123 0
M  V30 6 C -0.4653 0.352 1.5817 0
M  V30 7 C -0.2233 0.0477 -0.8038 0
M  V30 8 C 0.9102 0.1688 1.747 0
M  V30 9 C 1.1532 -0.1347 -0.6421 0
M  V30 10 C 1.7388 -0.0813 0.6377 0
M  V30 11 C 3.2016 -0.2747 0.829 0
M  V30 12 O 3.6951 -0.2096 1.9878 0
M  V30 13 C 4.1223 -0.5474 -0.3224 0
M  V30 14 H -4.6829 1.52 -0.6454 0
M  V30 15 H -4.9423 0.3981 -2.0362 0
M  V30 16 H -5.3288 -0.1444 -0.3522 0
M  V30 17 H -1.086 0.5449 2.4477 0
M  V30 18 H -0.6341 0.038 -1.8039 0
M  V30 19 H 1.3236 0.2246 2.7462 0
M  V30 20 H 1.7531 -0.3084 -1.525 0
M  V30 21 H 4.0938 0.3015 -1.0369 0
M  V30 22 H 3.8153 -1.4814 -0.8377 0
M  V30 23 H 5.167 -0.6709 0.0344 0
M  V30 END ATOM
M  V30 BEGIN BOND
M  V30 1 2 1 2
M  V30 2 1 2 3
M  V30 3 1 2 4
M  V30 4 1 3 5
M  V30 5 2 5 6
M  V30 6 1 5 7
M  V30 7 1 6 8
M  V30 8 2 7 9
M  V30 9 2 8 10
M  V30 10 1 10 11
M  V30 11 2 11 12
M  V30 12 1 11 13
M  V30 13 1 9 10
M  V30 14 1 4 14
M  V30 15 1 4 15
M  V30 16 1 4 16
M  V30 17 1 6 17
M  V30 18 1 7 18
M  V30 19 1 8 19
M  V30 20 1 9 20
M  V30 21 1 13 21
M  V30 22 1 13 22
M  V30 23 1 13 23
M  V30 END BOND
M  V30 END CTAB
M  END
>  <Structure No>
6933

>  <LogS>
-1.52

>  <MMFF94 Energy>
43.14

$$$$
Compound 6934
Actelion Java MolfileCreator 2.0

  0  0  0  0  0  0              0 V3000
M  V30 BEGIN CTAB
M  V30 COUNTS 22 22 0 0 0
M  V30 BEGIN ATOM
M  V30 1 O 3.9675 -1.2683 -0.6339 0
M  V30 2 C 3.4198 -0.1347 -0.5659 0
M  V30 3 N 4.2077 1.0288 -0.8316 0
M  V30 4 C 1.9779 -0.0355 -0.2308 0
M  V30 5 C 1.1344 -1.1445 -0.4213 0
M  V30 6 C 1.4335 1.1443 0.3077 0
M  V30 7 C -0.2256 -1.0672 -0.1074 0
M  V30 8 C 0.0736 1.2181 0.623 0
M  V30 9 C -0.7695 0.1246 0.4026 0
M  V30 10 O -2.1253 0.2468 0.7425 0
M  V30 11 C -3.1773 -0.4605 0.1466 0
M  V30 12 O -3.031 -1.0257 -0.9706 0
M  V30 13 C -4.5224 -0.4436 0.7891 0
M  V30 14 H 3.776 1.9718 -0.9442 0
M  V30 15 H 5.2326 0.9337 -1.0069 0
M  V30 16 H 1.5263 -2.0736 -0.8164 0
M  V30 17 H 2.0556 2.0049 0.5122 0
M  V30 18 H -0.8392 -1.9478 -0.2368 0
M  V30 19 H -0.3286 2.133 1.0398 0
M  V30 20 H -4.415 -0.3207 1.8872 0
M  V30 21 H -5.0552 -1.3965 0.586 0
M  V30 22 H -5.1155 0.4021 0.3838 0
M  V30 END ATOM
M  V30 BEGIN BOND
M  V30 1 2 1 2
M  V30 2 1 2 3
M  V30 3 1 2 4
M  V30 4 2 4 5
M  V30 5 1 4 6
M  V30 6 1 5 7
M  V30 7 2 6 8
M  V30 8 2 7 9
M  V30 9 1 9 10
M  V30 10 1 10 11
M  V30 11 2 11 12
M  V30 12 1 11 13
M  V30 13 1 8 9
M  V30 14 1 3 14
M  V30 15 1 3 15
M  V30 16 1 5 16
M  V30 17 1 6 17
M  V30 18 1 7 18
M  V30 19 1 8 19
M  V30 20 1 13 20
M  V30 21 1 13 21
M  V30 22 1 13 22
M  V30 END BOND
M  V30 END CTAB
M  END
>  <Structure No>
6934

>  <LogS>
-1.64

>  <MMFF94 Energy>
12.594

$$$$
Compound 6935
Actelion Java MolfileCreator 2.0

  0  0  0  0  0  0              0 V3000
M  V30 BEGIN CTAB
M  V30 COUNTS 17 17 0 0 0
M  V30 BEGIN ATOM
M  V30 1 F 2.2454 -2.3257 0.6411 0
M  V30 2 C 1.7072 -1.1119 0.3611 0
M  V30 3 C 2.5174 -0.0259 0.0467 0
M  V30 4 C 0.327 -0.9298 0.3905 0
M  V30 5 O 3.7699 -0.1596 0.0138 0
M  V30 6 N 1.9533 1.1793 -0.2248 0
M  V30 7 N -0.2228 0.2926 0.1141 0
M  V30 8 C 0.6017 1.3477 -0.1968 0
M  V30 9 C -1.6598 0.459 0.1642 0
M  V30 10 O 0.1208 2.4809 -0.4756 0
M  V30 11 O -2.1579 1.5554 0.5398 0
M  V30 12 C -2.5898 -0.6658 -0.1804 0
M  V30 13 H -0.296 -1.7749 0.6554 0
M  V30 14 H 2.568 1.991 -0.4639 0
M  V30 15 H -3.5727 -0.2649 -0.5069 0
M  V30 16 H -2.7428 -1.3102 0.7101 0
M  V30 17 H -2.1669 -1.2708 -1.0095 0
M  V30 END ATOM
M  V30 BEGIN BOND
M  V30 1 1 1 2
M  V30 2 1 2 3
M  V30 3 2 2 4
M  V30 4 2 3 5
M  V30 5 1 3 6
M  V30 6 1 4 7
M  V30 7 1 6 8
M  V30 8 1 7 9
M  V30 9 2 8 10
M  V30 10 2 9 11
M  V30 11 1 9 12
M  V30 12 1 7 8
M  V30 13 1 4 13
M  V30 14 1 6 14
M  V30 15 1 12 15
M  V30 16 1 12 16
M  V30 17 1 12 17
M  V30 END BOND
M  V30 END CTAB
M  END
>  <Structure No>
6935

>  <LogS>
-0.6

>  <MMFF94 Energy>
-46.049

$$$$
Compound 6936
Actelion Java MolfileCreator 2.0

  0  0  0  0  0  0              0 V3000
M  V30 BEGIN CTAB
M  V30 COUNTS 16 16 0 0 0
M  V30 BEGIN ATOM
M  V30 1 S 3.6367 -2.7266 0.2476 0
M  V30 2 C 3.0414 -1.2988 -0.2033 0
M  V30 3 N 2.5706 -0.1705 -0.5596 0
M  V30 4 C 1.1986 0.2172 -0.3856 0
M  V30 5 C 0.2443 -0.6368 0.2053 0
M  V30 6 C 0.8033 1.4874 -0.8198 0
M  V30 7 C -1.0915 -0.2222 0.3592 0
M  V30 8 C -0.5198 1.9062 -0.6706 0
M  V30 9 N -2.0612 -1.0983 0.9632 0 CHG=1
M  V30 10 C -1.4632 1.0593 -0.0854 0
M  V30 11 O -3.2479 -0.7357 1.1023 0
M  V30 12 O -1.6968 -2.352 1.3982 0 CHG=-1
M  V30 13 H 0.5396 -1.6206 0.5443 0
M  V30 14 H 1.525 2.1541 -1.2752 0
M  V30 15 H -0.8152 2.8907 -1.0097 0
M  V30 16 H -2.483 1.4068 0.0191 0
M  V30 END ATOM
M  V30 BEGIN BOND
M  V30 1 2 1 2
M  V30 2 2 2 3
M  V30 3 1 3 4
M  V30 4 2 4 5
M  V30 5 1 4 6
M  V30 6 1 5 7
M  V30 7 2 6 8
M  V30 8 1 7 9
M  V30 9 2 7 10
M  V30 10 2 9 11
M  V30 11 1 9 12
M  V30 12 1 8 10
M  V30 13 1 5 13
M  V30 14 1 6 14
M  V30 15 1 8 15
M  V30 16 1 10 16
M  V30 END BOND
M  V30 END CTAB
M  END
>  <Structure No>
6936

>  <LogS>
-3.55

>  <MMFF94 Energy>
35.452

$$$$
Compound 6937
Actelion Java MolfileCreator 2.0

  0  0  0  0  0  0              0 V3000
M  V30 BEGIN CTAB
M  V30 COUNTS 25 26 0 0 0
M  V30 BEGIN ATOM
M  V30 1 N 1.1686 2.0263 1.0127 0
M  V30 2 C 1.7662 1.0118 0.3634 0
M  V30 3 C -0.1004 1.6224 1.2505 0
M  V30 4 C 0.8991 -0.0355 0.1838 0
M  V30 5 C 3.0768 0.967 -0.1102 0
M  V30 6 C -0.3007 0.3362 0.758 0
M  V30 7 C 1.2796 -1.1981 -0.4869 0
M  V30 8 C 3.492 -0.1952 -0.7859 0
M  V30 9 C -1.5884 -0.4317 0.7626 0
M  V30 10 C 2.5974 -1.2723 -0.974 0
M  V30 11 C -2.3451 -0.2233 -0.5539 0
M  V30 12 N -3.6027 -0.9696 -0.5576 0 CHG=1
M  V30 13 H 1.5901 2.9465 1.2698 0
M  V30 14 H -0.8456 2.2319 1.745 0
M  V30 15 H 3.7531 1.7998 0.0335 0
M  V30 16 H 0.5877 -2.0176 -0.6311 0
M  V30 17 H 4.5028 -0.2629 -1.1666 0
M  V30 18 H -1.3725 -1.5121 0.9079 0
M  V30 19 H -2.2167 -0.09 1.6138 0
M  V30 20 H 2.927 -2.1598 -1.4981 0
M  V30 21 H -2.5596 0.8602 -0.6918 0
M  V30 22 H -1.7136 -0.5637 -1.405 0
M  V30 23 H -4.2173 -0.6418 0.2228 0
M  V30 24 H -3.4132 -1.9929 -0.4536 0
M  V30 25 H -4.0942 -0.807 -1.4662 0
M  V30 END ATOM
M  V30 BEGIN BOND
M  V30 1 1 1 2
M  V30 2 1 1 3
M  V30 3 2 2 4
M  V30 4 1 2 5
M  V30 5 2 3 6
M  V30 6 1 4 7
M  V30 7 2 5 8
M  V30 8 1 6 9
M  V30 9 2 7 10
M  V30 10 1 9 11
M  V30 11 1 11 12
M  V30 12 1 4 6
M  V30 13 1 8 10
M  V30 14 1 1 13
M  V30 15 1 3 14
M  V30 16 1 5 15
M  V30 17 1 7 16
M  V30 18 1 8 17
M  V30 19 1 9 18
M  V30 20 1 9 19
M  V30 21 1 10 20
M  V30 22 1 11 21
M  V30 23 1 11 22
M  V30 24 1 12 23
M  V30 25 1 12 24
M  V30 26 1 12 25
M  V30 END BOND
M  V30 END CTAB
M  END
>  <Structure No>
6937

>  <LogS>
-3.3

>  <MMFF94 Energy>
25.785

$$$$
Compound 6938
Actelion Java MolfileCreator 2.0

  0  0  0  0  0  0              0 V3000
M  V30 BEGIN CTAB
M  V30 COUNTS 66 69 0 0 0
M  V30 BEGIN ATOM
M  V30 1 O -5.581 2.2619 -1.7769 0
M  V30 2 C -5.4445 1.0488 -2.0949 0
M  V30 3 O -4.8371 0.7219 -3.3046 0 CHG=-1
M  V30 4 C -6.0209 -0.0232 -1.2134 0
M  V30 5 C -5.1016 -1.2579 -1.0656 0
M  V30 6 C -4.0454 -1.1992 0.0738 0 CFG=1
M  V30 7 C -2.9927 -0.0469 -0.1147 0 CFG=2
M  V30 8 C -4.7174 -1.2711 1.4623 0
M  V30 9 C -1.4967 -0.4084 0.1206 0 CFG=2
M  V30 10 C -3.1972 1.2517 0.7154 0
M  V30 11 C -0.8858 0.999 0.0557 0 CFG=1
M  V30 12 C -0.8562 -1.2464 -1.0096 0
M  V30 13 C -1.3211 -1.1131 1.5002 0
M  V30 14 C -1.8011 1.8848 0.8911 0
M  V30 15 C 0.6538 1.1153 0.1728 0 CFG=2
M  V30 16 C 0.6847 -1.2794 -0.8822 0
M  V30 17 C 1.3545 0.1346 -0.8192 0 CFG=2
M  V30 18 C 1.2743 1.0289 1.5692 0
M  V30 19 C 2.9479 0.0999 -0.6652 0 CFG=1
M  V30 20 C 2.7276 1.5267 1.5388 0
M  V30 21 C 3.4575 1.3346 0.1697 0 CFG=1
M  V30 22 C 3.4687 -1.2046 0.0264 0
M  V30 23 C 3.5315 0.1665 -2.1089 0
M  V30 24 C 4.9924 1.3183 0.3846 0
M  V30 25 C 4.993 -1.2348 0.231 0
M  V30 26 C 5.4999 -0.004 0.9997 0 CFG=1
M  V30 27 O 6.904 -0.0083 1.0617 0
M  V30 28 H -6.2854 0.4019 -0.2226 0
M  V30 29 H -6.9744 -0.3516 -1.6837 0
M  V30 30 H -4.5915 -1.4761 -2.0276 0
M  V30 31 H -5.7524 -2.1411 -0.8783 0
M  V30 32 H -3.4942 -2.1583 -0.0347 0
M  V30 33 H -3.0599 0.2611 -1.1822 0
M  V30 34 H -5.3313 -2.1938 1.5353 0
M  V30 35 H -5.3818 -0.4047 1.6504 0
M  V30 36 H -3.9645 -1.3095 2.2738 0
M  V30 37 H -3.8774 1.9511 0.1888 0
M  V30 38 H -3.6135 1.0542 1.7224 0
M  V30 39 H -1.0634 1.3676 -0.9876 0
M  V30 40 H -1.1215 -0.8238 -2.0038 0
M  V30 41 H -1.2469 -2.2859 -0.9826 0
M  V30 42 H -1.8649 -2.0777 1.5212 0
M  V30 43 H -1.6895 -0.4851 2.3371 0
M  V30 44 H -0.2808 -1.3863 1.7251 0
M  V30 45 H -1.5109 1.8705 1.9617 0
M  V30 46 H -1.7854 2.935 0.5258 0
M  V30 47 H 0.8722 2.1524 -0.1779 0
M  V30 48 H 1.0842 -1.8237 -1.7651 0
M  V30 49 H 0.9492 -1.8858 0.0043 0
M  V30 50 H 1.117 0.5793 -1.8142 0
M  V30 51 H 0.7067 1.6434 2.2963 0
M  V30 52 H 1.283 -0.0089 1.9405 0
M  V30 53 H 3.2669 1.025 2.366 0
M  V30 54 H 2.7353 2.6111 1.7834 0
M  V30 55 H 3.2389 2.2477 -0.4307 0
M  V30 56 H 2.9863 -1.3255 1.0195 0
M  V30 57 H 3.208 -2.0958 -0.5855 0
M  V30 58 H 3.2106 1.1029 -2.6182 0
M  V30 59 H 3.1707 -0.697 -2.7103 0
M  V30 60 H 4.6365 0.1526 -2.1403 0
M  V30 61 H 5.5079 1.5093 -0.5801 0
M  V30 62 H 5.278 2.1588 1.054 0
M  V30 63 H 5.2571 -2.1486 0.8056 0
M  V30 64 H 5.5094 -1.3253 -0.746 0
M  V30 65 H 5.1326 -0.0848 2.0433 0
M  V30 66 H 7.2488 0.0515 0.1322 0
M  V30 END ATOM
M  V30 BEGIN BOND
M  V30 1 2 1 2
M  V30 2 1 2 3
M  V30 3 1 2 4
M  V30 4 1 4 5
M  V30 5 1 5 6
M  V30 6 1 6 7
M  V30 7 1 6 8
M  V30 8 1 7 9
M  V30 9 1 7 10
M  V30 10 1 9 11
M  V30 11 1 9 12
M  V30 12 1 9 13
M  V30 13 1 10 14
M  V30 14 1 11 15
M  V30 15 1 12 16
M  V30 16 1 15 17
M  V30 17 1 15 18
M  V30 18 1 17 19
M  V30 19 1 18 20
M  V30 20 1 19 21
M  V30 21 1 19 22
M  V30 22 1 19 23
M  V30 23 1 21 24
M  V30 24 1 22 25
M  V30 25 1 24 26
M  V30 26 1 26 27
M  V30 27 1 11 14
M  V30 28 1 16 17
M  V30 29 1 20 21
M  V30 30 1 25 26
M  V30 31 1 4 28
M  V30 32 1 4 29
M  V30 33 1 5 30
M  V30 34 1 5 31
M  V30 35 1 6 32
M  V30 36 1 7 33
M  V30 37 1 8 34
M  V30 38 1 8 35
M  V30 39 1 8 36
M  V30 40 1 10 37
M  V30 41 1 10 38
M  V30 42 1 11 39
M  V30 43 1 12 40
M  V30 44 1 12 41
M  V30 45 1 13 42
M  V30 46 1 13 43
M  V30 47 1 13 44
M  V30 48 1 14 45
M  V30 49 1 14 46
M  V30 50 1 15 47
M  V30 51 1 16 48
M  V30 52 1 16 49
M  V30 53 1 17 50
M  V30 54 1 18 51
M  V30 55 1 18 52
M  V30 56 1 20 53
M  V30 57 1 20 54
M  V30 58 1 21 55
M  V30 59 1 22 56
M  V30 60 1 22 57
M  V30 61 1 23 58
M  V30 62 1 23 59
M  V30 63 1 23 60
M  V30 64 1 24 61
M  V30 65 1 24 62
M  V30 66 1 25 63
M  V30 67 1 25 64
M  V30 68 1 26 65
M  V30 69 1 27 66
M  V30 END BOND
M  V30 BEGIN COLLECTION
M  V30 MDLV30/STEABS ATOMS=(9 6 7 9 11 15 17 19 21 26)
M  V30 END COLLECTION
M  V30 END CTAB
M  END
>  <Structure No>
6938

>  <LogS>
-7.34

>  <MMFF94 Energy>
104.17

$$$$
Compound 6939
Actelion Java MolfileCreator 2.0

  0  0  0  0  0  0              0 V3000
M  V30 BEGIN CTAB
M  V30 COUNTS 17 17 0 0 0
M  V30 BEGIN ATOM
M  V30 1 F -2.3257 2.406 0.1602 0
M  V30 2 C -1.7513 1.1769 0.1246 0
M  V30 3 C -0.3716 1.0259 0.2701 0
M  V30 4 C -2.5355 0.0432 -0.0455 0
M  V30 5 O 0.3376 2.0523 0.4584 0
M  V30 6 N 0.1949 -0.2247 0.2296 0
M  V30 7 N -1.9559 -1.1823 -0.0686 0
M  V30 8 C -0.6086 -1.3269 0.0651 0
M  V30 9 C 1.6234 -0.3929 0.3733 0
M  V30 10 O -0.1089 -2.4855 0.021 0
M  V30 11 O 2.0769 -1.2511 1.1784 0
M  V30 12 C 2.5882 0.4432 -0.4103 0
M  V30 13 H -3.6086 0.1383 -0.1561 0
M  V30 14 H -2.5597 -2.0259 -0.1968 0
M  V30 15 H 2.1009 0.8378 -1.3267 0
M  V30 16 H 3.4608 -0.1722 -0.7146 0
M  V30 17 H 2.9436 1.2891 0.2141 0
M  V30 END ATOM
M  V30 BEGIN BOND
M  V30 1 1 1 2
M  V30 2 1 2 3
M  V30 3 2 2 4
M  V30 4 2 3 5
M  V30 5 1 3 6
M  V30 6 1 4 7
M  V30 7 1 6 8
M  V30 8 1 6 9
M  V30 9 2 8 10
M  V30 10 2 9 11
M  V30 11 1 9 12
M  V30 12 1 7 8
M  V30 13 1 4 13
M  V30 14 1 7 14
M  V30 15 1 12 15
M  V30 16 1 12 16
M  V30 17 1 12 17
M  V30 END BOND
M  V30 END CTAB
M  END
>  <Structure No>
6939

>  <LogS>
-0.6

>  <MMFF94 Energy>
-49.273

$$$$
Compound 6940
Actelion Java MolfileCreator 2.0

  0  0  0  0  0  0              0 V3000
M  V30 BEGIN CTAB
M  V30 COUNTS 66 69 0 0 0
M  V30 BEGIN ATOM
M  V30 1 O 7.2073 0.0807 0.4846 0
M  V30 2 C 6.6983 -0.7141 -0.3487 0
M  V30 3 O 7.4123 -1.0601 -1.4889 0 CHG=-1
M  V30 4 C 5.3473 -1.3146 -0.0932 0
M  V30 5 C 4.343 -1.0223 -1.2288 0
M  V30 6 C 3.5885 0.3309 -1.1321 0 CFG=1
M  V30 7 C 2.6504 0.4957 0.1218 0 CFG=2
M  V30 8 C 4.5831 1.5053 -1.2358 0
M  V30 9 C 1.58 -0.6017 0.4663 0 CFG=1
M  V30 10 C 1.8499 1.8008 0.0369 0
M  V30 11 C 0.5845 0.1786 1.3781 0 CFG=1
M  V30 12 C 0.8657 -1.2124 -0.7911 0
M  V30 13 C 2.2052 -1.7523 1.3027 0
M  V30 14 C 0.6394 1.6494 0.9444 0
M  V30 15 C -0.8521 -0.4423 1.4863 0 CFG=1
M  V30 16 C -0.5313 -0.6515 -1.0678 0
M  V30 17 C -1.8184 0.3747 2.4104 0 CFG=1
M  V30 18 C -1.4823 -0.9309 0.1224 0 CFG=2
M  V30 19 O -1.103 1.0028 3.4464 0
M  V30 20 C -2.7158 1.4117 1.6873 0
M  V30 21 C -2.9792 -0.456 -0.0894 0 CFG=1
M  V30 22 C -3.0445 1.0716 0.2153 0 CFG=1
M  V30 23 C -3.4582 -0.6476 -1.5612 0
M  V30 24 C -3.9118 -1.3041 0.8496 0
M  V30 25 C -4.3229 1.7983 -0.3054 0
M  V30 26 C -4.9172 -0.1967 -1.8032 0
M  V30 27 C -5.4281 0.8625 -0.8096 0
M  V30 28 H 5.4824 -2.4159 -0.0181 0
M  V30 29 H 4.9582 -0.9706 0.8859 0
M  V30 30 H 4.8688 -1.0692 -2.2078 0
M  V30 31 H 3.609 -1.8488 -1.2857 0
M  V30 32 H 2.966 0.4059 -2.049 0
M  V30 33 H 3.3097 0.6106 1.0121 0
M  V30 34 H 5.3139 1.3302 -2.053 0
M  V30 35 H 4.0503 2.4492 -1.4738 0
M  V30 36 H 5.1322 1.646 -0.2816 0
M  V30 37 H 2.4659 2.67 0.3577 0
M  V30 38 H 1.5036 1.9778 -1.006 0
M  V30 39 H 1.0095 0.17 2.41 0
M  V30 40 H 1.4581 -1.0966 -1.7146 0
M  V30 41 H 0.7557 -2.3144 -0.6733 0
M  V30 42 H 2.7982 -1.36 2.1571 0
M  V30 43 H 2.858 -2.405 0.6962 0
M  V30 44 H 1.4086 -2.4056 1.7183 0
M  V30 45 H 0.7442 2.3109 1.8336 0
M  V30 46 H -0.2608 1.9728 0.3988 0
M  V30 47 H -0.6794 -1.3797 2.0632 0
M  V30 48 H -0.9 -1.1748 -1.9756 0
M  V30 49 H -0.4699 0.4269 -1.3121 0
M  V30 50 H -2.4978 -0.365 2.8915 0
M  V30 51 H -1.5224 -2.0451 0.1641 0
M  V30 52 H -1.7639 1.2711 4.1375 0
M  V30 53 H -2.2386 2.4147 1.7242 0
M  V30 54 H -3.6591 1.4969 2.2678 0
M  V30 55 H -2.2328 1.5316 -0.3815 0
M  V30 56 H -3.346 -1.7123 -1.8658 0
M  V30 57 H -2.8257 -0.0384 -2.2438 0
M  V30 58 H -4.5864 -1.9777 0.2797 0
M  V30 59 H -4.5453 -0.6675 1.5 0
M  V30 60 H -3.3412 -1.9757 1.5252 0
M  V30 61 H -4.7515 2.4675 0.4707 0
M  V30 62 H -4.0408 2.4628 -1.1524 0
M  V30 63 H -5.5913 -1.0793 -1.7549 0
M  V30 64 H -4.9984 0.2051 -2.8364 0
M  V30 65 H -5.9214 0.3698 0.0522 0
M  V30 66 H -6.2185 1.4697 -1.3039 0
M  V30 END ATOM
M  V30 BEGIN BOND
M  V30 1 2 1 2
M  V30 2 1 2 3
M  V30 3 1 2 4
M  V30 4 1 4 5
M  V30 5 1 5 6
M  V30 6 1 6 7
M  V30 7 1 6 8
M  V30 8 1 7 9
M  V30 9 1 7 10
M  V30 10 1 9 11
M  V30 11 1 9 12
M  V30 12 1 9 13
M  V30 13 1 10 14
M  V30 14 1 11 15
M  V30 15 1 12 16
M  V30 16 1 15 17
M  V30 17 1 15 18
M  V30 18 1 17 19
M  V30 19 1 17 20
M  V30 20 1 18 21
M  V30 21 1 20 22
M  V30 22 1 21 23
M  V30 23 1 21 24
M  V30 24 1 22 25
M  V30 25 1 23 26
M  V30 26 1 25 27
M  V30 27 1 11 14
M  V30 28 1 16 18
M  V30 29 1 21 22
M  V30 30 1 26 27
M  V30 31 1 4 28
M  V30 32 1 4 29
M  V30 33 1 5 30
M  V30 34 1 5 31
M  V30 35 1 6 32
M  V30 36 1 7 33
M  V30 37 1 8 34
M  V30 38 1 8 35
M  V30 39 1 8 36
M  V30 40 1 10 37
M  V30 41 1 10 38
M  V30 42 1 11 39
M  V30 43 1 12 40
M  V30 44 1 12 41
M  V30 45 1 13 42
M  V30 46 1 13 43
M  V30 47 1 13 44
M  V30 48 1 14 45
M  V30 49 1 14 46
M  V30 50 1 15 47
M  V30 51 1 16 48
M  V30 52 1 16 49
M  V30 53 1 17 50
M  V30 54 1 18 51
M  V30 55 1 19 52
M  V30 56 1 20 53
M  V30 57 1 20 54
M  V30 58 1 22 55
M  V30 59 1 23 56
M  V30 60 1 23 57
M  V30 61 1 24 58
M  V30 62 1 24 59
M  V30 63 1 24 60
M  V30 64 1 25 61
M  V30 65 1 25 62
M  V30 66 1 26 63
M  V30 67 1 26 64
M  V30 68 1 27 65
M  V30 69 1 27 66
M  V30 END BOND
M  V30 BEGIN COLLECTION
M  V30 MDLV30/STEABS ATOMS=(9 6 7 9 11 15 17 18 21 22)
M  V30 END COLLECTION
M  V30 END CTAB
M  END
>  <Structure No>
6940

>  <LogS>
-6.46

>  <MMFF94 Energy>
99.613

$$$$
Compound 6941
Actelion Java MolfileCreator 2.0

  0  0  0  0  0  0              0 V3000
M  V30 BEGIN CTAB
M  V30 COUNTS 16 16 0 0 0
M  V30 BEGIN ATOM
M  V30 1 S 4.6864 1.1701 -0.2506 0
M  V30 2 C 3.1045 1.3502 -0.0019 0
M  V30 3 N 1.8543 1.4927 0.1944 0
M  V30 4 C 0.8915 0.4405 0.0239 0
M  V30 5 C -0.4592 0.7211 0.2713 0
M  V30 6 C 1.2619 -0.8568 -0.3816 0
M  V30 7 C -1.4414 -0.2791 0.1177 0
M  V30 8 C 0.2911 -1.8493 -0.5345 0
M  V30 9 N -2.8345 -0.0286 0.3621 0
M  V30 10 C -1.0528 -1.5619 -0.286 0
M  V30 11 C -3.2995 1.0975 0.7324 0
M  V30 12 S -3.888 2.5226 1.2008 0
M  V30 13 H -0.7373 1.7202 0.5829 0
M  V30 14 H 2.2966 -1.1042 -0.58 0
M  V30 15 H 0.5811 -2.8444 -0.8463 0
M  V30 16 H -1.7956 -2.3404 -0.4083 0
M  V30 END ATOM
M  V30 BEGIN BOND
M  V30 1 2 1 2
M  V30 2 2 2 3
M  V30 3 1 3 4
M  V30 4 2 4 5
M  V30 5 1 4 6
M  V30 6 1 5 7
M  V30 7 2 6 8
M  V30 8 1 7 9
M  V30 9 2 7 10
M  V30 10 2 9 11
M  V30 11 2 11 12
M  V30 12 1 8 10
M  V30 13 1 5 13
M  V30 14 1 6 14
M  V30 15 1 8 15
M  V30 16 1 10 16
M  V30 END BOND
M  V30 END CTAB
M  END
>  <Structure No>
6941

>  <LogS>
-4.7

>  <MMFF94 Energy>
4.9987

$$$$
Compound 6942
Actelion Java MolfileCreator 2.0

  0  0  0  0  0  0              0 V3000
M  V30 BEGIN CTAB
M  V30 COUNTS 54 57 0 0 0
M  V30 BEGIN ATOM
M  V30 1 O -4.7829 2.2677 0.0 0
M  V30 2 C -4.2662 1.3684 -0.6462 0
M  V30 3 C -3.4818 0.2589 -0.0197 0 CFG=1
M  V30 4 C -4.3681 1.2967 -2.1236 0
M  V30 5 C -2.9356 -0.527 -1.2473 0 CFG=1
M  V30 6 C -2.3618 0.8371 0.883 0
M  V30 7 C -4.4391 -0.6222 0.8114 0
M  V30 8 C -3.7081 -0.0284 -2.4908 0
M  V30 9 C -1.3887 -0.4654 -1.4135 0 CFG=2
M  V30 10 C -1.2329 -0.1669 1.1571 0
M  V30 11 C -0.6962 -0.9265 -0.1027 0 CFG=2
M  V30 12 C -0.8418 0.8917 -1.9474 0
M  V30 13 C 0.8678 -0.8647 -0.2336 0 CFG=1
M  V30 14 C 0.4837 1.3357 -1.37 0
M  V30 15 C 1.2677 0.5761 -0.5734 0
M  V30 16 C 1.5384 -1.4226 1.0836 0
M  V30 17 C 1.3511 -1.7559 -1.41 0
M  V30 18 C 2.5581 1.1956 -0.0728 0
M  V30 19 C 2.459 -0.4376 1.81 0
M  V30 20 C 3.3816 0.2567 0.8088 0 CFG=2
M  V30 21 O 4.3749 1.019 1.4954 0
M  V30 22 C 5.4974 0.4501 2.1076 0
M  V30 23 O 5.7095 -0.7916 2.043 0
M  V30 24 C 6.4583 1.3317 2.8309 0
M  V30 25 H -5.433 1.3113 -2.4418 0
M  V30 26 H -3.8256 2.1523 -2.58 0
M  V30 27 H -3.1776 -1.6095 -1.1292 0
M  V30 28 H -1.9202 1.7505 0.4332 0
M  V30 29 H -2.7887 1.1698 1.8551 0
M  V30 30 H -3.8945 -1.4872 1.2461 0
M  V30 31 H -4.8917 -0.0387 1.6421 0
M  V30 32 H -5.2616 -1.0148 0.1749 0
M  V30 33 H -4.5029 -0.7649 -2.7447 0
M  V30 34 H -3.0606 0.0829 -3.387 0
M  V30 35 H -1.1601 -1.2257 -2.1922 0
M  V30 36 H -0.4205 0.3975 1.6593 0
M  V30 37 H -1.5957 -0.9108 1.8994 0
M  V30 38 H -0.9699 -1.9982 0.0357 0
M  V30 39 H -0.7212 0.8231 -3.0498 0
M  V30 40 H -1.5666 1.71 -1.7736 0
M  V30 41 H 0.8098 2.3399 -1.6284 0
M  V30 42 H 2.1429 -2.3324 0.8684 0
M  V30 43 H 0.7801 -1.7796 1.8126 0
M  V30 44 H 2.4602 -1.8217 -1.4182 0
M  V30 45 H 1.0587 -1.3458 -2.399 0
M  V30 46 H 0.9423 -2.7849 -1.3163 0
M  V30 47 H 2.305 2.1097 0.5102 0
M  V30 48 H 3.1799 1.5056 -0.9415 0
M  V30 49 H 1.8578 0.3169 2.3624 0
M  V30 50 H 3.0596 -0.9964 2.5597 0
M  V30 51 H 3.8806 -0.4987 0.1601 0
M  V30 52 H 5.9226 1.8864 3.6293 0
M  V30 53 H 6.9025 2.0565 2.1176 0
M  V30 54 H 7.2718 0.731 3.2912 0
M  V30 END ATOM
M  V30 BEGIN BOND
M  V30 1 2 1 2
M  V30 2 1 2 3
M  V30 3 1 2 4
M  V30 4 1 3 5
M  V30 5 1 3 6
M  V30 6 1 3 7
M  V30 7 1 4 8
M  V30 8 1 5 9
M  V30 9 1 6 10
M  V30 10 1 9 11
M  V30 11 1 9 12
M  V30 12 1 11 13
M  V30 13 1 12 14
M  V30 14 1 13 15
M  V30 15 1 13 16
M  V30 16 1 13 17
M  V30 17 1 15 18
M  V30 18 1 16 19
M  V30 19 1 18 20
M  V30 20 1 20 21
M  V30 21 1 21 22
M  V30 22 2 22 23
M  V30 23 1 22 24
M  V30 24 1 5 8
M  V30 25 1 10 11
M  V30 26 2 14 15
M  V30 27 1 19 20
M  V30 28 1 4 25
M  V30 29 1 4 26
M  V30 30 1 5 27
M  V30 31 1 6 28
M  V30 32 1 6 29
M  V30 33 1 7 30
M  V30 34 1 7 31
M  V30 35 1 7 32
M  V30 36 1 8 33
M  V30 37 1 8 34
M  V30 38 1 9 35
M  V30 39 1 10 36
M  V30 40 1 10 37
M  V30 41 1 11 38
M  V30 42 1 12 39
M  V30 43 1 12 40
M  V30 44 1 14 41
M  V30 45 1 16 42
M  V30 46 1 16 43
M  V30 47 1 17 44
M  V30 48 1 17 45
M  V30 49 1 17 46
M  V30 50 1 18 47
M  V30 51 1 18 48
M  V30 52 1 19 49
M  V30 53 1 19 50
M  V30 54 1 20 51
M  V30 55 1 24 52
M  V30 56 1 24 53
M  V30 57 1 24 54
M  V30 END BOND
M  V30 BEGIN COLLECTION
M  V30 MDLV30/STEABS ATOMS=(6 3 5 9 11 13 20)
M  V30 END COLLECTION
M  V30 END CTAB
M  END
>  <Structure No>
6942

>  <LogS>
-4.53

>  <MMFF94 Energy>
64.696

$$$$
Compound 6943
Actelion Java MolfileCreator 2.0

  0  0  0  0  0  0              0 V3000
M  V30 BEGIN CTAB
M  V30 COUNTS 19 19 0 0 0
M  V30 BEGIN ATOM
M  V30 1 O -2.8195 2.0939 -0.4829 0
M  V30 2 C -1.8229 1.5716 0.3385 0
M  V30 3 C -0.9092 0.6492 -0.1848 0
M  V30 4 C -1.7279 1.9614 1.6816 0
M  V30 5 C 0.1022 0.1131 0.6317 0
M  V30 6 C -0.7236 1.4302 2.4954 0
M  V30 7 N 1.049 -0.831 0.1229 0 CHG=-1
M  V30 8 C 0.1884 0.509 1.9722 0
M  V30 9 N 1.022 -1.2721 -1.209 0
M  V30 10 C 1.8803 -2.1281 -1.6703 0
M  V30 11 C 1.7965 -2.5372 -3.0436 0
M  V30 12 C 2.9194 -2.6806 -0.8371 0
M  V30 13 N 1.7287 -2.8671 -4.1507 0
M  V30 14 N 3.7532 -3.124 -0.1681 0
M  V30 15 H -3.4959 2.7632 -0.1345 0
M  V30 16 H -0.9923 0.3556 -1.2233 0
M  V30 17 H -2.4304 2.6742 2.0946 0
M  V30 18 H -0.6519 1.7323 3.5323 0
M  V30 19 H 0.9634 0.1027 2.6102 0
M  V30 END ATOM
M  V30 BEGIN BOND
M  V30 1 1 1 2
M  V30 2 2 2 3
M  V30 3 1 2 4
M  V30 4 1 3 5
M  V30 5 2 4 6
M  V30 6 1 5 7
M  V30 7 2 5 8
M  V30 8 1 7 9
M  V30 9 2 9 10
M  V30 10 1 10 11
M  V30 11 1 10 12
M  V30 12 3 11 13
M  V30 13 3 12 14
M  V30 14 1 6 8
M  V30 15 1 1 15
M  V30 16 1 3 16
M  V30 17 1 4 17
M  V30 18 1 6 18
M  V30 19 1 8 19
M  V30 END BOND
M  V30 END CTAB
M  END
>  <Structure No>
6943

>  <LogS>
-2.95

>  <MMFF94 Energy>
62.695

$$$$
Compound 6944
Actelion Java MolfileCreator 2.0

  0  0  0  0  0  0              0 V3000
M  V30 BEGIN CTAB
M  V30 COUNTS 17 18 0 0 0
M  V30 BEGIN ATOM
M  V30 1 O -2.3139 -1.1165 -0.6379 0
M  V30 2 C -1.0523 -0.5811 -0.3659 0
M  V30 3 C -3.3416 -0.3743 -1.2834 0
M  V30 4 N -0.1171 -1.3608 0.259 0
M  V30 5 N -0.7476 0.7131 -0.7195 0
M  V30 6 C 1.0996 -0.8228 0.5134 0
M  V30 7 C 0.4798 1.2533 -0.4617 0
M  V30 8 N 2.1375 -1.4288 1.1137 0
M  V30 9 C 1.4109 0.4461 0.1715 0
M  V30 10 C 3.0843 -0.4497 1.1101 0
M  V30 11 N 2.6685 0.7099 0.5397 0
M  V30 12 H -4.2431 -1.0127 -1.3854 0
M  V30 13 H -3.6016 0.5206 -0.6791 0
M  V30 14 H -3.0067 -0.0607 -2.2947 0
M  V30 15 H 0.7096 2.2721 -0.7437 0
M  V30 16 H 4.0751 -0.5845 1.5234 0
M  V30 17 H 3.2062 1.5968 0.4186 0
M  V30 END ATOM
M  V30 BEGIN BOND
M  V30 1 1 1 2
M  V30 2 1 1 3
M  V30 3 2 2 4
M  V30 4 1 2 5
M  V30 5 1 4 6
M  V30 6 2 5 7
M  V30 7 1 6 8
M  V30 8 2 6 9
M  V30 9 2 8 10
M  V30 10 1 9 11
M  V30 11 1 7 9
M  V30 12 1 10 11
M  V30 13 1 3 12
M  V30 14 1 3 13
M  V30 15 1 3 14
M  V30 16 1 7 15
M  V30 17 1 10 16
M  V30 18 1 11 17
M  V30 END BOND
M  V30 END CTAB
M  END
>  <Structure No>
6944

>  <LogS>
-1.48

>  <MMFF94 Energy>
-55.35

$$$$
Compound 6945
Actelion Java MolfileCreator 2.0

  0  0  0  0  0  0              0 V3000
M  V30 BEGIN CTAB
M  V30 COUNTS 32 32 0 0 0
M  V30 BEGIN ATOM
M  V30 1 O 3.1419 0.4708 -1.0988 0
M  V30 2 C 3.1569 -0.1533 -0.0024 0
M  V30 3 O 2.0046 -0.7892 0.4772 0
M  V30 4 N 4.3741 -0.2676 0.74 0
M  V30 5 C 0.6978 -0.5496 0.0263 0
M  V30 6 C 5.6136 0.3525 0.2899 0
M  V30 7 C -0.2363 -1.5874 0.1136 0
M  V30 8 C 0.2907 0.7047 -0.463 0
M  V30 9 C -1.5589 -1.3992 -0.3152 0
M  V30 10 C -1.0293 0.9059 -0.8949 0
M  V30 11 C -1.9529 -0.1465 -0.808 0
M  V30 12 C -2.5634 -2.5129 -0.1867 0
M  V30 13 C -1.4705 2.2617 -1.3783 0
M  V30 14 C -3.2602 -2.4576 1.1686 0
M  V30 15 C -1.9759 3.1109 -0.2167 0
M  V30 16 H 4.3716 -0.8081 1.634 0
M  V30 17 H 5.9019 -0.0578 -0.7005 0
M  V30 18 H 6.4262 0.1417 1.0166 0
M  V30 19 H 5.4779 1.4518 0.2118 0
M  V30 20 H 0.0718 -2.5451 0.5152 0
M  V30 21 H 0.983 1.536 -0.477 0
M  V30 22 H -2.9804 0.0127 -1.1132 0
M  V30 23 H -2.0601 -3.4976 -0.3002 0
M  V30 24 H -3.3244 -2.4364 -0.9936 0
M  V30 25 H -0.6243 2.7851 -1.8742 0
M  V30 26 H -2.2797 2.154 -2.133 0
M  V30 27 H -3.9958 -3.2858 1.2428 0
M  V30 28 H -2.5181 -2.5662 1.9882 0
M  V30 29 H -3.798 -1.4925 1.2864 0
M  V30 30 H -2.296 4.1048 -0.5942 0
M  V30 31 H -1.1692 3.2579 0.5328 0
M  V30 32 H -2.8445 2.6189 0.271 0
M  V30 END ATOM
M  V30 BEGIN BOND
M  V30 1 2 1 2
M  V30 2 1 2 3
M  V30 3 1 2 4
M  V30 4 1 3 5
M  V30 5 1 4 6
M  V30 6 2 5 7
M  V30 7 1 5 8
M  V30 8 1 7 9
M  V30 9 2 8 10
M  V30 10 2 9 11
M  V30 11 1 9 12
M  V30 12 1 10 13
M  V30 13 1 12 14
M  V30 14 1 13 15
M  V30 15 1 10 11
M  V30 16 1 4 16
M  V30 17 1 6 17
M  V30 18 1 6 18
M  V30 19 1 6 19
M  V30 20 1 7 20
M  V30 21 1 8 21
M  V30 22 1 11 22
M  V30 23 1 12 23
M  V30 24 1 12 24
M  V30 25 1 13 25
M  V30 26 1 13 26
M  V30 27 1 14 27
M  V30 28 1 14 28
M  V30 29 1 14 29
M  V30 30 1 15 30
M  V30 31 1 15 31
M  V30 32 1 15 32
M  V30 END BOND
M  V30 END CTAB
M  END
>  <Structure No>
6945

>  <LogS>
-3.32

>  <MMFF94 Energy>
-16.219

$$$$
Compound 6946
Actelion Java MolfileCreator 2.0

  0  0  0  0  0  0              0 V3000
M  V30 BEGIN CTAB
M  V30 COUNTS 26 26 0 0 0
M  V30 BEGIN ATOM
M  V30 1 O 1.1858 1.9769 0.4742 0
M  V30 2 C 1.229 0.7646 0.1252 0
M  V30 3 O 2.4635 0.1444 -0.0957 0
M  V30 4 C -0.0237 -0.0038 -0.0512 0
M  V30 5 C 3.705 0.8246 0.0559 0
M  V30 6 C -1.2757 0.6011 0.166 0
M  V30 7 C 0.0242 -1.3525 -0.4393 0
M  V30 8 C 4.8482 -0.1271 -0.2568 0
M  V30 9 C -2.4675 -0.1322 -0.0024 0
M  V30 10 C -1.1539 -2.0823 -0.6073 0
M  V30 11 O -3.7335 0.438 0.2052 0
M  V30 12 C -2.3978 -1.4771 -0.3903 0
M  V30 13 C -3.9558 1.7881 0.6 0
M  V30 14 O -3.573 -2.2076 -0.5585 0
M  V30 15 H 3.8073 1.191 1.1005 0
M  V30 16 H 3.7464 1.69 -0.6406 0
M  V30 17 H -1.3187 1.6395 0.4652 0
M  V30 18 H 0.972 -1.846 -0.6139 0
M  V30 19 H 4.8215 -0.9931 0.438 0
M  V30 20 H 4.7608 -0.4946 -1.3013 0
M  V30 21 H 5.8183 0.4002 -0.1395 0
M  V30 22 H -1.0992 -3.1212 -0.9069 0
M  V30 23 H -5.0473 1.9646 0.6888 0
M  V30 24 H -3.5447 2.4818 -0.1633 0
M  V30 25 H -3.4835 1.9803 1.5867 0
M  V30 26 H -3.557 -3.1815 -0.8382 0
M  V30 END ATOM
M  V30 BEGIN BOND
M  V30 1 2 1 2
M  V30 2 1 2 3
M  V30 3 1 2 4
M  V30 4 1 3 5
M  V30 5 2 4 6
M  V30 6 1 4 7
M  V30 7 1 5 8
M  V30 8 1 6 9
M  V30 9 2 7 10
M  V30 10 1 9 11
M  V30 11 2 9 12
M  V30 12 1 11 13
M  V30 13 1 12 14
M  V30 14 1 10 12
M  V30 15 1 5 15
M  V30 16 1 5 16
M  V30 17 1 6 17
M  V30 18 1 7 18
M  V30 19 1 8 19
M  V30 20 1 8 20
M  V30 21 1 8 21
M  V30 22 1 10 22
M  V30 23 1 13 23
M  V30 24 1 13 24
M  V30 25 1 13 25
M  V30 26 1 14 26
M  V30 END BOND
M  V30 END CTAB
M  END
>  <Structure No>
6946

>  <LogS>
-1.72

>  <MMFF94 Energy>
32.118

$$$$
Compound 6947
Actelion Java MolfileCreator 2.0

  0  0  0  0  0  0              0 V3000
M  V30 BEGIN CTAB
M  V30 COUNTS 21 21 0 0 0
M  V30 BEGIN ATOM
M  V30 1 S -6.0562 0.4834 -1.0477 0
M  V30 2 C -4.4779 0.6335 -1.336 0
M  V30 3 N -3.2306 0.7519 -1.5638 0
M  V30 4 C -2.206 0.3363 -0.6471 0
M  V30 5 C -0.8655 0.5197 -1.0116 0
M  V30 6 C -2.5056 -0.2446 0.6009 0
M  V30 7 C 0.1746 0.1191 -0.1583 0
M  V30 8 C -1.4755 -0.6237 1.4645 0
M  V30 9 N 1.5382 0.3437 -0.5568 0
M  V30 10 C -0.1418 -0.4383 1.093 0
M  V30 11 C 2.6346 -0.5103 -0.1959 0
M  V30 12 O 2.4259 -1.6532 0.2936 0
M  V30 13 C 4.036 -0.086 -0.4921 0
M  V30 14 H -0.6309 0.9678 -1.9697 0
M  V30 15 H -3.5308 -0.3977 0.9124 0
M  V30 16 H -1.7118 -1.0548 2.429 0
M  V30 17 H 1.734 1.1302 -1.2173 0
M  V30 18 H 0.6366 -0.7065 1.7945 0
M  V30 19 H 4.1516 1.0007 -0.2965 0
M  V30 20 H 4.752 -0.6409 0.1506 0
M  V30 21 H 4.2669 -0.2922 -1.5579 0
M  V30 END ATOM
M  V30 BEGIN BOND
M  V30 1 2 1 2
M  V30 2 2 2 3
M  V30 3 1 3 4
M  V30 4 2 4 5
M  V30 5 1 4 6
M  V30 6 1 5 7
M  V30 7 2 6 8
M  V30 8 1 7 9
M  V30 9 2 7 10
M  V30 10 1 9 11
M  V30 11 2 11 12
M  V30 12 1 11 13
M  V30 13 1 8 10
M  V30 14 1 5 14
M  V30 15 1 6 15
M  V30 16 1 8 16
M  V30 17 1 9 17
M  V30 18 1 10 18
M  V30 19 1 13 19
M  V30 20 1 13 20
M  V30 21 1 13 21
M  V30 END BOND
M  V30 END CTAB
M  END
>  <Structure No>
6947

>  <LogS>
-3.53

>  <MMFF94 Energy>
-5.7759

$$$$
Compound 6948
Actelion Java MolfileCreator 2.0

  0  0  0  0  0  0              0 V3000
M  V30 BEGIN CTAB
M  V30 COUNTS 17 18 0 0 0
M  V30 BEGIN ATOM
M  V30 1 O 1.5953 0.7176 -0.2391 0
M  V30 2 C 0.497 -0.1218 -0.0351 0
M  V30 3 C 2.9319 0.2338 -0.2813 0
M  V30 4 N 0.645 -1.4712 0.1376 0
M  V30 5 C -0.7926 0.3876 -2.0E-4 0
M  V30 6 C -0.4393 -2.2881 0.3375 0
M  V30 7 N -1.2267 1.6449 -0.1371 0
M  V30 8 C -1.8488 -0.4318 0.1976 0
M  V30 9 N -1.7042 -1.7678 0.3689 0
M  V30 10 C -2.5739 1.534 -0.0126 0
M  V30 11 N -3.0014 0.2582 0.1967 0
M  V30 12 H 3.1916 -0.2503 0.6838 0
M  V30 13 H 3.0461 -0.496 -1.1105 0
M  V30 14 H 3.6222 1.0847 -0.4537 0
M  V30 15 H -0.2928 -3.351 0.4712 0
M  V30 16 H -0.6656 2.51 -0.3011 0
M  V30 17 H -3.2461 2.3797 -0.0738 0
M  V30 END ATOM
M  V30 BEGIN BOND
M  V30 1 1 1 2
M  V30 2 1 1 3
M  V30 3 2 2 4
M  V30 4 1 2 5
M  V30 5 1 4 6
M  V30 6 1 5 7
M  V30 7 2 5 8
M  V30 8 2 6 9
M  V30 9 1 7 10
M  V30 10 1 8 11
M  V30 11 1 8 9
M  V30 12 2 10 11
M  V30 13 1 3 12
M  V30 14 1 3 13
M  V30 15 1 3 14
M  V30 16 1 6 15
M  V30 17 1 7 16
M  V30 18 1 10 17
M  V30 END BOND
M  V30 END CTAB
M  END
>  <Structure No>
6948

>  <LogS>
-1.53

>  <MMFF94 Energy>
-54.969

$$$$
Compound 6949
Actelion Java MolfileCreator 2.0

  0  0  0  0  0  0              0 V3000
M  V30 BEGIN CTAB
M  V30 COUNTS 17 18 0 0 0
M  V30 BEGIN ATOM
M  V30 1 O 3.1871 -0.9553 0.0 0
M  V30 2 C 2.6397 0.3155 0.2072 0
M  V30 3 C 1.1501 0.2138 0.2254 0
M  V30 4 N 0.436 0.0243 1.3703 0
M  V30 5 N 0.3913 0.2314 -0.9014 0
M  V30 6 C -0.8219 -0.0595 0.9056 0
M  V30 7 C -0.8521 0.0618 -0.4407 0
M  V30 8 N -1.9453 -0.2526 1.6376 0
M  V30 9 C -2.0543 -0.009 -1.127 0
M  V30 10 C -3.1408 -0.3216 0.9758 0
M  V30 11 N -3.1887 -0.2011 -0.3906 0
M  V30 12 H 4.1718 -0.8323 -0.0057 0
M  V30 13 H 2.9525 1.0022 -0.6101 0
M  V30 14 H 2.9943 0.7282 1.1779 0
M  V30 15 H 0.7039 0.3414 -1.8919 0
M  V30 16 H -2.0994 0.0826 -2.2039 0
M  V30 17 H -4.0548 -0.474 1.5333 0
M  V30 END ATOM
M  V30 BEGIN BOND
M  V30 1 1 1 2
M  V30 2 1 2 3
M  V30 3 2 3 4
M  V30 4 1 3 5
M  V30 5 1 4 6
M  V30 6 1 5 7
M  V30 7 1 6 8
M  V30 8 1 7 9
M  V30 9 2 8 10
M  V30 10 2 9 11
M  V30 11 2 6 7
M  V30 12 1 10 11
M  V30 13 1 1 12
M  V30 14 1 2 13
M  V30 15 1 2 14
M  V30 16 1 5 15
M  V30 17 1 9 16
M  V30 18 1 10 17
M  V30 END BOND
M  V30 END CTAB
M  END
>  <Structure No>
6949

>  <LogS>
-1.52

>  <MMFF94 Energy>
-27.137

$$$$
Compound 6950
Actelion Java MolfileCreator 2.0

  0  0  0  0  0  0              0 V3000
M  V30 BEGIN CTAB
M  V30 COUNTS 25 25 0 0 0
M  V30 BEGIN ATOM
M  V30 1 O -3.6442 -1.108 1.2663 0
M  V30 2 C -3.0489 -0.3379 0.4626 0
M  V30 3 O -3.7872 0.4544 -0.4236 0
M  V30 4 C -1.5706 -0.2712 0.4547 0
M  V30 5 C -5.2091 0.4374 -0.467 0
M  V30 6 C -0.8115 -1.0572 1.3395 0
M  V30 7 C -0.9036 0.5882 -0.4346 0
M  V30 8 C 0.5845 -0.9896 1.3277 0
M  V30 9 C 0.4928 0.6536 -0.4459 0
M  V30 10 C 1.2499 -0.1498 0.4239 0
M  V30 11 N 2.6864 -0.084 0.4491 0
M  V30 12 C 3.5028 0.155 -0.7076 0
M  V30 13 O 3.0145 0.0775 -1.8672 0
M  V30 14 C 4.9674 0.4012 -0.5453 0
M  V30 15 H -5.6232 0.7493 0.5152 0
M  V30 16 H -5.5583 1.1459 -1.2458 0
M  V30 17 H -5.5695 -0.5821 -0.72 0
M  V30 18 H -1.2954 -1.7235 2.0428 0
M  V30 19 H -1.4601 1.2182 -1.1173 0
M  V30 20 H 1.1508 -1.6018 2.0185 0
M  V30 21 H 0.9755 1.3516 -1.1166 0
M  V30 22 H 3.1726 -0.3044 1.348 0
M  V30 23 H 5.3738 0.9181 -1.4404 0
M  V30 24 H 5.1474 1.0387 0.3455 0
M  V30 25 H 5.4924 -0.5676 -0.4138 0
M  V30 END ATOM
M  V30 BEGIN BOND
M  V30 1 2 1 2
M  V30 2 1 2 3
M  V30 3 1 2 4
M  V30 4 1 3 5
M  V30 5 2 4 6
M  V30 6 1 4 7
M  V30 7 1 6 8
M  V30 8 2 7 9
M  V30 9 2 8 10
M  V30 10 1 10 11
M  V30 11 1 11 12
M  V30 12 2 12 13
M  V30 13 1 12 14
M  V30 14 1 9 10
M  V30 15 1 5 15
M  V30 16 1 5 16
M  V30 17 1 5 17
M  V30 18 1 6 18
M  V30 19 1 7 19
M  V30 20 1 8 20
M  V30 21 1 9 21
M  V30 22 1 11 22
M  V30 23 1 14 23
M  V30 24 1 14 24
M  V30 25 1 14 25
M  V30 END BOND
M  V30 END CTAB
M  END
>  <Structure No>
6950

>  <LogS>
-1.9

>  <MMFF94 Energy>
13.244

$$$$
Compound 6951
Actelion Java MolfileCreator 2.0

  0  0  0  0  0  0              0 V3000
M  V30 BEGIN CTAB
M  V30 COUNTS 17 18 0 0 0
M  V30 BEGIN ATOM
M  V30 1 N 0.5628 0.965 -0.3215 0
M  V30 2 C -0.7406 0.5927 -0.2365 0
M  V30 3 C 1.5641 0.0866 -0.0375 0
M  V30 4 N -1.7326 1.475 -0.5215 0
M  V30 5 C -1.0593 -0.7183 0.1503 0
M  V30 6 C 1.241 -1.2234 0.349 0
M  V30 7 C 2.9916 0.5196 -0.1379 0
M  V30 8 C -3.0376 1.1007 -0.4358 0
M  V30 9 N -0.0637 -1.5977 0.4346 0
M  V30 10 C -2.4027 -1.0819 0.2318 0
M  V30 11 N -3.3641 -0.1667 -0.0623 0
M  V30 12 H 2.0199 -1.9389 0.5796 0
M  V30 13 H 3.5228 -0.1095 -0.8826 0
M  V30 14 H 3.0558 1.5816 -0.457 0
M  V30 15 H 3.4859 0.4136 0.8506 0
M  V30 16 H -3.8184 1.8126 -0.6654 0
M  V30 17 H -2.6857 -2.0841 0.5268 0
M  V30 END ATOM
M  V30 BEGIN BOND
M  V30 1 1 1 2
M  V30 2 2 1 3
M  V30 3 2 2 4
M  V30 4 1 2 5
M  V30 5 1 3 6
M  V30 6 1 3 7
M  V30 7 1 4 8
M  V30 8 1 5 9
M  V30 9 2 5 10
M  V30 10 2 8 11
M  V30 11 2 6 9
M  V30 12 1 10 11
M  V30 13 1 6 12
M  V30 14 1 7 13
M  V30 15 1 7 14
M  V30 16 1 7 15
M  V30 17 1 8 16
M  V30 18 1 10 17
M  V30 END BOND
M  V30 END CTAB
M  END
>  <Structure No>
6951

>  <LogS>
-0.01

>  <MMFF94 Energy>
67.708

$$$$
Compound 6952
Actelion Java MolfileCreator 2.0

  0  0  0  0  0  0              0 V3000
M  V30 BEGIN CTAB
M  V30 COUNTS 32 32 0 0 0
M  V30 BEGIN ATOM
M  V30 1 O 0.5475 -2.7398 -1.7215 0
M  V30 2 C 0.3564 -1.6491 -1.1217 0
M  V30 3 N 1.4179 -0.9001 -0.7352 0
M  V30 4 N -0.9086 -1.2229 -0.8639 0
M  V30 5 C 1.2251 0.278 -0.0889 0
M  V30 6 C -1.1105 -0.0404 -0.2119 0
M  V30 7 N -0.038 0.7025 0.1663 0
M  V30 8 N 2.3404 1.0809 0.3201 0
M  V30 9 N -2.4315 0.4516 0.0786 0
M  V30 10 C 3.732 0.6682 0.1092 0
M  V30 11 C -3.672 -0.2979 -0.1563 0
M  V30 12 C 4.6657 1.8788 0.2089 0
M  V30 13 C 4.126 -0.3958 1.1378 0
M  V30 14 C -3.8204 -1.4126 0.8849 0
M  V30 15 C -4.8795 0.6443 -0.0946 0
M  V30 16 H -1.7076 -1.8143 -1.1792 0
M  V30 17 H 2.1394 2.0048 0.7673 0
M  V30 18 H -2.497 1.4082 0.4967 0
M  V30 19 H 3.8402 0.2426 -0.9127 0
M  V30 20 H -3.6574 -0.7381 -1.1761 0
M  V30 21 H 4.6123 2.3329 1.2218 0
M  V30 22 H 5.7142 1.5729 0.0056 0
M  V30 23 H 4.3732 2.6431 -0.542 0
M  V30 24 H 3.4794 -1.292 1.0331 0
M  V30 25 H 4.0168 0.0027 2.1694 0
M  V30 26 H 5.1798 -0.7102 0.981 0
M  V30 27 H -2.9633 -2.1149 0.833 0
M  V30 28 H -4.7512 -1.9897 0.6985 0
M  V30 29 H -3.8609 -0.9828 1.9087 0
M  V30 30 H -4.9645 1.109 0.9113 0
M  V30 31 H -4.7689 1.4494 -0.8521 0
M  V30 32 H -5.8147 0.0859 -0.3136 0
M  V30 END ATOM
M  V30 BEGIN BOND
M  V30 1 2 1 2
M  V30 2 1 2 3
M  V30 3 1 2 4
M  V30 4 2 3 5
M  V30 5 1 4 6
M  V30 6 1 5 7
M  V30 7 1 5 8
M  V30 8 1 6 9
M  V30 9 1 8 10
M  V30 10 1 9 11
M  V30 11 1 10 12
M  V30 12 1 10 13
M  V30 13 1 11 14
M  V30 14 1 11 15
M  V30 15 2 6 7
M  V30 16 1 4 16
M  V30 17 1 8 17
M  V30 18 1 9 18
M  V30 19 1 10 19
M  V30 20 1 11 20
M  V30 21 1 12 21
M  V30 22 1 12 22
M  V30 23 1 12 23
M  V30 24 1 13 24
M  V30 25 1 13 25
M  V30 26 1 13 26
M  V30 27 1 14 27
M  V30 28 1 14 28
M  V30 29 1 14 29
M  V30 30 1 15 30
M  V30 31 1 15 31
M  V30 32 1 15 32
M  V30 END BOND
M  V30 END CTAB
M  END
>  <Structure No>
6952

>  <LogS>
-2.81

>  <MMFF94 Energy>
-263.58

$$$$
Compound 6953
Actelion Java MolfileCreator 2.0

  0  0  0  0  0  0              0 V3000
M  V30 BEGIN CTAB
M  V30 COUNTS 18 18 0 0 0
M  V30 BEGIN ATOM
M  V30 1 Cl -3.8927 2.152 0.0827 0
M  V30 2 C -2.2153 1.6519 -0.0304 0
M  V30 3 C -1.6557 0.8468 0.967 0
M  V30 4 C -1.4333 2.0633 -1.1147 0
M  V30 5 C -0.3184 0.4481 0.8784 0
M  V30 6 C -0.0959 1.6653 -1.2051 0
M  V30 7 C 0.4659 0.8448 -0.2191 0
M  V30 8 N 1.8448 0.465 -0.3315 0 CHG=-1
M  V30 9 N 2.4341 -0.5854 0.3965 0
M  V30 10 C 2.0055 -1.813 0.3751 0
M  V30 11 C 2.6719 -2.8 1.1759 0
M  V30 12 C 0.9251 -2.2314 -0.4838 0
M  V30 13 N 3.2092 -3.5958 1.8217 0
M  V30 14 N 0.0579 -2.5667 -1.1729 0
M  V30 15 H -2.254 0.5336 1.8132 0
M  V30 16 H -1.8598 2.6916 -1.8862 0
M  V30 17 H 0.1024 -0.1596 1.6683 0
M  V30 18 H 0.5023 1.9902 -2.0471 0
M  V30 END ATOM
M  V30 BEGIN BOND
M  V30 1 1 1 2
M  V30 2 2 2 3
M  V30 3 1 2 4
M  V30 4 1 3 5
M  V30 5 2 4 6
M  V30 6 2 5 7
M  V30 7 1 7 8
M  V30 8 1 8 9
M  V30 9 2 9 10
M  V30 10 1 10 11
M  V30 11 1 10 12
M  V30 12 3 11 13
M  V30 13 3 12 14
M  V30 14 1 6 7
M  V30 15 1 3 15
M  V30 16 1 4 16
M  V30 17 1 5 17
M  V30 18 1 6 18
M  V30 END BOND
M  V30 END CTAB
M  END
>  <Structure No>
6953

>  <LogS>
-4.36

>  <MMFF94 Energy>
62.373

$$$$
Compound 6954
Actelion Java MolfileCreator 2.0

  0  0  0  0  0  0              0 V3000
M  V30 BEGIN CTAB
M  V30 COUNTS 56 59 0 0 0
M  V30 BEGIN ATOM
M  V30 1 O 5.9183 -0.3236 -2.0238 0
M  V30 2 C 4.9968 -0.5073 -1.243 0
M  V30 3 C 4.652 0.5401 -0.2261 0
M  V30 4 C 4.274 -1.8212 -1.2295 0
M  V30 5 C 3.1217 0.7038 -0.1145 0 CFG=1
M  V30 6 C 2.758 -1.6127 -1.0829 0
M  V30 7 C 2.3501 -0.6524 0.0859 0 CFG=2
M  V30 8 C 2.7739 1.7575 0.9656 0
M  V30 9 C 0.7676 -0.3893 0.1422 0 CFG=1
M  V30 10 C 2.767 -1.3202 1.4302 0
M  V30 11 C 1.2751 1.8079 1.3229 0
M  V30 12 C 0.4039 1.1189 0.26 0 CFG=2
M  V30 13 C -0.0719 -0.9945 -1.007 0
M  V30 14 C -1.112 1.3693 0.4921 0 CFG=1
M  V30 15 C -1.5752 -0.8401 -0.7301 0
M  V30 16 C -2.0246 0.6393 -0.5171 0 CFG=1
M  V30 17 C -1.6495 0.9942 1.8821 0
M  V30 18 C -3.399 0.697 0.1829 0 CFG=2
M  V30 19 C -2.0861 1.3812 -1.872 0
M  V30 20 C -3.1076 0.5776 1.6823 0
M  V30 21 O -4.2715 -0.3402 -0.2724 0
M  V30 22 C -5.6247 -0.412 0.0731 0
M  V30 23 O -6.1595 0.4848 0.7804 0
M  V30 24 C -6.4552 -1.5357 -0.4456 0
M  V30 25 H 5.1013 1.512 -0.5286 0
M  V30 26 H 5.0991 0.2604 0.7506 0
M  V30 27 H 4.6644 -2.4478 -0.4008 0
M  V30 28 H 4.4707 -2.3695 -2.1769 0
M  V30 29 H 2.7991 1.1238 -1.095 0
M  V30 30 H 2.2967 -2.6133 -0.9389 0
M  V30 31 H 2.3925 -1.202 -2.0489 0
M  V30 32 H 3.0892 2.7574 0.5934 0
M  V30 33 H 3.355 1.5626 1.8937 0
M  V30 34 H 0.3835 -0.888 1.0578 0
M  V30 35 H 2.4594 -0.7024 2.299 0
M  V30 36 H 3.859 -1.4816 1.5112 0
M  V30 37 H 2.2759 -2.3118 1.5334 0
M  V30 38 H 1.1166 1.318 2.308 0
M  V30 39 H 0.9652 2.8704 1.4322 0
M  V30 40 H 0.6349 1.6087 -0.7118 0
M  V30 41 H 0.1235 -2.0829 -1.0943 0
M  V30 42 H 0.1849 -0.5156 -1.9753 0
M  V30 43 H -1.2814 2.4665 0.3798 0
M  V30 44 H -2.1403 -1.2899 -1.576 0
M  V30 45 H -1.8196 -1.4474 0.1696 0
M  V30 46 H -1.0878 0.1531 2.337 0
M  V30 47 H -1.5818 1.8649 2.5709 0
M  V30 48 H -3.8744 1.6881 -0.0043 0
M  V30 49 H -1.0947 1.3971 -2.368 0
M  V30 50 H -2.413 2.4345 -1.7354 0
M  V30 51 H -2.8097 0.8818 -2.5512 0
M  V30 52 H -3.7895 1.2345 2.2654 0
M  V30 53 H -3.249 -0.4716 2.0238 0
M  V30 54 H -7.199 -1.8449 0.3188 0
M  V30 55 H -6.986 -1.2096 -1.364 0
M  V30 56 H -5.8077 -2.4044 -0.6878 0
M  V30 END ATOM
M  V30 BEGIN BOND
M  V30 1 2 1 2
M  V30 2 1 2 3
M  V30 3 1 2 4
M  V30 4 1 3 5
M  V30 5 1 4 6
M  V30 6 1 5 7
M  V30 7 1 5 8
M  V30 8 1 7 9
M  V30 9 1 7 10
M  V30 10 1 8 11
M  V30 11 1 9 12
M  V30 12 1 9 13
M  V30 13 1 12 14
M  V30 14 1 13 15
M  V30 15 1 14 16
M  V30 16 1 14 17
M  V30 17 1 16 18
M  V30 18 1 16 19
M  V30 19 1 17 20
M  V30 20 1 18 21
M  V30 21 1 21 22
M  V30 22 2 22 23
M  V30 23 1 22 24
M  V30 24 1 6 7
M  V30 25 1 11 12
M  V30 26 1 15 16
M  V30 27 1 18 20
M  V30 28 1 3 25
M  V30 29 1 3 26
M  V30 30 1 4 27
M  V30 31 1 4 28
M  V30 32 1 5 29
M  V30 33 1 6 30
M  V30 34 1 6 31
M  V30 35 1 8 32
M  V30 36 1 8 33
M  V30 37 1 9 34
M  V30 38 1 10 35
M  V30 39 1 10 36
M  V30 40 1 10 37
M  V30 41 1 11 38
M  V30 42 1 11 39
M  V30 43 1 12 40
M  V30 44 1 13 41
M  V30 45 1 13 42
M  V30 46 1 14 43
M  V30 47 1 15 44
M  V30 48 1 15 45
M  V30 49 1 17 46
M  V30 50 1 17 47
M  V30 51 1 18 48
M  V30 52 1 19 49
M  V30 53 1 19 50
M  V30 54 1 19 51
M  V30 55 1 20 52
M  V30 56 1 20 53
M  V30 57 1 24 54
M  V30 58 1 24 55
M  V30 59 1 24 56
M  V30 END BOND
M  V30 BEGIN COLLECTION
M  V30 MDLV30/STEABS ATOMS=(7 5 7 9 12 14 16 18)
M  V30 END COLLECTION
M  V30 END CTAB
M  END
>  <Structure No>
6954

>  <LogS>
-5.35

>  <MMFF94 Energy>
69.292

$$$$
Compound 6955
Actelion Java MolfileCreator 2.0

  0  0  0  0  0  0              0 V3000
M  V30 BEGIN CTAB
M  V30 COUNTS 22 21 0 0 0
M  V30 BEGIN ATOM
M  V30 1 O 0.0 2.6663 0.5828 0
M  V30 2 C -0.4543 1.7098 -0.0986 0
M  V30 3 O -0.6001 1.8674 -1.4711 0 CHG=-1
M  V30 4 C -0.8022 0.4043 0.5759 0 CFG=2
M  V30 5 C 0.4028 -0.5905 0.6991 0 CFG=2
M  V30 6 C -2.0868 -0.2382 -0.0112 0
M  V30 7 C 1.1788 -0.3787 1.9785 0
M  V30 8 C 1.3483 -0.6626 -0.5343 0
M  V30 9 C -1.9153 -0.8789 -1.3576 0
M  V30 10 O 1.6234 -1.3699 2.6159 0
M  V30 11 O 1.4567 0.904 2.4365 0 CHG=-1
M  V30 12 C 2.3936 0.4179 -0.5964 0
M  V30 13 O -1.515 -2.0696 -1.4463 0
M  V30 14 O -2.2162 -0.1705 -2.5139 0 CHG=-1
M  V30 15 O 3.4044 0.3672 0.153 0
M  V30 16 O 2.2733 1.458 -1.5089 0 CHG=-1
M  V30 17 H -1.1059 0.6765 1.6132 0
M  V30 18 H -0.0428 -1.6063 0.7957 0
M  V30 19 H -2.8864 0.5318 -0.0794 0
M  V30 20 H -2.4582 -1.0105 0.6978 0
M  V30 21 H 0.761 -0.6435 -1.4741 0
M  V30 22 H 1.8756 -1.6415 -0.5177 0
M  V30 END ATOM
M  V30 BEGIN BOND
M  V30 1 2 1 2
M  V30 2 1 2 3
M  V30 3 1 2 4
M  V30 4 1 4 5
M  V30 5 1 4 6
M  V30 6 1 5 7
M  V30 7 1 5 8
M  V30 8 1 6 9
M  V30 9 2 7 10
M  V30 10 1 7 11
M  V30 11 1 8 12
M  V30 12 2 9 13
M  V30 13 1 9 14
M  V30 14 2 12 15
M  V30 15 1 12 16
M  V30 16 1 4 17
M  V30 17 1 5 18
M  V30 18 1 6 19
M  V30 19 1 6 20
M  V30 20 1 8 21
M  V30 21 1 8 22
M  V30 END BOND
M  V30 BEGIN COLLECTION
M  V30 MDLV30/STEABS ATOMS=(2 4 5)
M  V30 END COLLECTION
M  V30 END CTAB
M  END
>  <Structure No>
6955

>  <LogS>
-0.18

>  <MMFF94 Energy>
362.62

$$$$
Compound 6956
Actelion Java MolfileCreator 2.0

  0  0  0  0  0  0              0 V3000
M  V30 BEGIN CTAB
M  V30 COUNTS 17 17 0 0 0
M  V30 BEGIN ATOM
M  V30 1 O -2.7133 -1.8905 -0.8216 0
M  V30 2 C -1.5764 -1.9504 -0.2841 0
M  V30 3 O -1.0549 -3.1942 0.0523 0 CHG=-1
M  V30 4 C -0.7685 -0.7277 -0.0763 0
M  V30 5 C -1.3485 0.5326 0.2132 0
M  V30 6 C 0.6296 -0.8225 -0.2031 0
M  V30 7 O -2.7153 0.6982 0.4494 0
M  V30 8 C -0.5321 1.6643 0.3044 0
M  V30 9 C 1.4472 0.3142 -0.089 0
M  V30 10 C 0.8508 1.5604 0.1564 0
M  V30 11 C 2.9154 0.1981 -0.2366 0
M  V30 12 O 3.6515 1.2163 -0.1419 0
M  V30 13 O 3.5039 -1.0374 -0.4814 0 CHG=-1
M  V30 14 H 1.0799 -1.7842 -0.4183 0
M  V30 15 H -3.3581 -0.0715 0.5739 0
M  V30 16 H -0.9729 2.6307 0.5153 0
M  V30 17 H 1.4536 2.4558 0.2438 0
M  V30 END ATOM
M  V30 BEGIN BOND
M  V30 1 2 1 2
M  V30 2 1 2 3
M  V30 3 1 2 4
M  V30 4 2 4 5
M  V30 5 1 4 6
M  V30 6 1 5 7
M  V30 7 1 5 8
M  V30 8 2 6 9
M  V30 9 2 8 10
M  V30 10 1 9 11
M  V30 11 2 11 12
M  V30 12 1 11 13
M  V30 13 1 9 10
M  V30 14 1 6 14
M  V30 15 1 7 15
M  V30 16 1 8 16
M  V30 17 1 10 17
M  V30 END BOND
M  V30 END CTAB
M  END
>  <Structure No>
6956

>  <LogS>
-1.78

>  <MMFF94 Energy>
81.645

$$$$
Compound 6957
Actelion Java MolfileCreator 2.0

  0  0  0  0  0  0              0 V3000
M  V30 BEGIN CTAB
M  V30 COUNTS 24 24 0 0 0
M  V30 BEGIN ATOM
M  V30 1 O -3.5818 -1.4315 0.1589 0
M  V30 2 C -2.9094 -0.3692 0.046 0
M  V30 3 O -3.5615 0.8553 -0.1367 0
M  V30 4 C -1.4316 -0.4157 0.1069 0
M  V30 5 C -4.978 0.9688 -0.2038 0
M  V30 6 C -0.6784 0.7635 -0.0233 0
M  V30 7 C -0.7581 -1.6367 0.2873 0
M  V30 8 C 0.718 0.724 0.0346 0
M  V30 9 C 0.638 -1.6736 0.3437 0
M  V30 10 C 1.3864 -0.497 0.2345 0
M  V30 11 O 2.7855 -0.5876 0.2883 0
M  V30 12 C 3.6475 0.427 0.7242 0
M  V30 13 O 3.2211 1.3911 1.4159 0
M  V30 14 C 5.1102 0.3012 0.4651 0
M  V30 15 H -5.3669 0.375 -1.058 0
M  V30 16 H -5.2517 2.0336 -0.3518 0
M  V30 17 H -5.4336 0.6084 0.7428 0
M  V30 18 H -1.1664 1.7176 -0.1787 0
M  V30 19 H -1.3087 -2.5641 0.3839 0
M  V30 20 H 1.2696 1.6433 -0.107 0
M  V30 21 H 1.1417 -2.6221 0.4817 0
M  V30 22 H 5.2806 -0.2881 -0.46 0
M  V30 23 H 5.5639 1.3069 0.3378 0
M  V30 24 H 5.5944 -0.214 1.3204 0
M  V30 END ATOM
M  V30 BEGIN BOND
M  V30 1 2 1 2
M  V30 2 1 2 3
M  V30 3 1 2 4
M  V30 4 1 3 5
M  V30 5 2 4 6
M  V30 6 1 4 7
M  V30 7 1 6 8
M  V30 8 2 7 9
M  V30 9 2 8 10
M  V30 10 1 10 11
M  V30 11 1 11 12
M  V30 12 2 12 13
M  V30 13 1 12 14
M  V30 14 1 9 10
M  V30 15 1 5 15
M  V30 16 1 5 16
M  V30 17 1 5 17
M  V30 18 1 6 18
M  V30 19 1 7 19
M  V30 20 1 8 20
M  V30 21 1 9 21
M  V30 22 1 14 22
M  V30 23 1 14 23
M  V30 24 1 14 24
M  V30 END BOND
M  V30 END CTAB
M  END
>  <Structure No>
6957

>  <LogS>
-2.5

>  <MMFF94 Energy>
38.02

$$$$
Compound 6958
Actelion Java MolfileCreator 2.0

  0  0  0  0  0  0              0 V3000
M  V30 BEGIN CTAB
M  V30 COUNTS 57 60 0 0 0
M  V30 BEGIN ATOM
M  V30 1 O -5.5894 0.2425 -1.7795 0
M  V30 2 C -4.8655 0.6054 -0.8646 0
M  V30 3 C -3.4415 0.1646 -0.6972 0 CFG=1
M  V30 4 C -5.2858 1.6103 0.1671 0
M  V30 5 C -3.2812 0.4555 0.8024 0 CFG=2
M  V30 6 C -3.1625 -1.3378 -0.9724 0
M  V30 7 C -2.6159 1.0575 -1.6564 0
M  V30 8 C -4.0529 1.7458 1.0758 0
M  V30 9 C -1.8658 0.248 1.3744 0 CFG=1
M  V30 10 C -2.2887 -2.0533 0.1019 0
M  V30 11 C -1.3218 -1.1773 0.9894 0 CFG=1
M  V30 12 C -0.8874 1.4031 1.1313 0
M  V30 13 C 0.2218 -1.2936 0.6203 0 CFG=2
M  V30 14 C 0.5044 1.0427 1.5315 0
M  V30 15 C 1.0495 -0.1441 1.2069 0
M  V30 16 C 0.4986 -1.3548 -0.9236 0
M  V30 17 C 0.7439 -2.6201 1.2552 0
M  V30 18 C 2.5555 -0.216 1.0261 0
M  V30 19 C 1.7347 -0.5462 -1.3894 0
M  V30 20 C 2.9236 -0.6723 -0.4144 0 CFG=1
M  V30 21 O 4.0109 0.1051 -0.9169 0
M  V30 22 C 5.3205 -0.0024 -0.4357 0
M  V30 23 O 5.6105 -0.8336 0.4676 0
M  V30 24 C 6.3742 0.915 -0.9671 0
M  V30 25 C 6.3587 2.2387 -0.2117 0
M  V30 26 H -5.5432 2.5815 -0.3068 0
M  V30 27 H -6.1531 1.2174 0.7404 0
M  V30 28 H -3.8899 -0.3163 1.3411 0
M  V30 29 H -4.1269 -1.8885 -1.0426 0
M  V30 30 H -2.6847 -1.468 -1.968 0
M  V30 31 H -2.9983 0.9511 -2.6951 0
M  V30 32 H -1.5556 0.768 -1.6949 0
M  V30 33 H -2.6863 2.1319 -1.3851 0
M  V30 34 H -3.4561 2.6368 0.786 0
M  V30 35 H -4.3447 1.8282 2.1457 0
M  V30 36 H -2.0054 0.2569 2.4833 0
M  V30 37 H -2.9992 -2.5658 0.7903 0
M  V30 38 H -1.7327 -2.8806 -0.3861 0
M  V30 39 H -1.3949 -1.6981 1.9744 0
M  V30 40 H -0.8447 1.7253 0.0825 0
M  V30 41 H -1.2067 2.2882 1.7233 0
M  V30 42 H 1.1384 1.8538 1.8799 0
M  V30 43 H 0.6308 -2.409 -1.2544 0
M  V30 44 H -0.3661 -0.9917 -1.4973 0
M  V30 45 H 0.7434 -2.552 2.3653 0
M  V30 46 H 1.7744 -2.8692 0.9349 0
M  V30 47 H 0.1043 -3.48 0.9644 0
M  V30 48 H 3.0307 0.7683 1.2362 0
M  V30 49 H 2.9793 -0.9294 1.7644 0
M  V30 50 H 1.4533 0.5265 -1.4817 0
M  V30 51 H 2.042 -0.8969 -2.3986 0
M  V30 52 H 3.2331 -1.7406 -0.4011 0
M  V30 53 H 7.3747 0.4414 -0.865 0
M  V30 54 H 6.1877 1.1033 -2.0461 0
M  V30 55 H 5.3703 2.7348 -0.3223 0
M  V30 56 H 7.1415 2.9105 -0.6228 0
M  V30 57 H 6.5653 2.0694 0.8669 0
M  V30 END ATOM
M  V30 BEGIN BOND
M  V30 1 2 1 2
M  V30 2 1 2 3
M  V30 3 1 2 4
M  V30 4 1 3 5
M  V30 5 1 3 6
M  V30 6 1 3 7
M  V30 7 1 4 8
M  V30 8 1 5 9
M  V30 9 1 6 10
M  V30 10 1 9 11
M  V30 11 1 9 12
M  V30 12 1 11 13
M  V30 13 1 12 14
M  V30 14 1 13 15
M  V30 15 1 13 16
M  V30 16 1 13 17
M  V30 17 1 15 18
M  V30 18 1 16 19
M  V30 19 1 18 20
M  V30 20 1 20 21
M  V30 21 1 21 22
M  V30 22 2 22 23
M  V30 23 1 22 24
M  V30 24 1 24 25
M  V30 25 1 5 8
M  V30 26 1 10 11
M  V30 27 2 14 15
M  V30 28 1 19 20
M  V30 29 1 4 26
M  V30 30 1 4 27
M  V30 31 1 5 28
M  V30 32 1 6 29
M  V30 33 1 6 30
M  V30 34 1 7 31
M  V30 35 1 7 32
M  V30 36 1 7 33
M  V30 37 1 8 34
M  V30 38 1 8 35
M  V30 39 1 9 36
M  V30 40 1 10 37
M  V30 41 1 10 38
M  V30 42 1 11 39
M  V30 43 1 12 40
M  V30 44 1 12 41
M  V30 45 1 14 42
M  V30 46 1 16 43
M  V30 47 1 16 44
M  V30 48 1 17 45
M  V30 49 1 17 46
M  V30 50 1 17 47
M  V30 51 1 18 48
M  V30 52 1 18 49
M  V30 53 1 19 50
M  V30 54 1 19 51
M  V30 55 1 20 52
M  V30 56 1 24 53
M  V30 57 1 24 54
M  V30 58 1 25 55
M  V30 59 1 25 56
M  V30 60 1 25 57
M  V30 END BOND
M  V30 BEGIN COLLECTION
M  V30 MDLV30/STEABS ATOMS=(6 3 5 9 11 13 20)
M  V30 END COLLECTION
M  V30 END CTAB
M  END
>  <Structure No>
6958

>  <LogS>
-4.69

>  <MMFF94 Energy>
73.806

$$$$
Compound 6959
Actelion Java MolfileCreator 2.0

  0  0  0  0  0  0              0 V3000
M  V30 BEGIN CTAB
M  V30 COUNTS 16 17 0 0 0
M  V30 BEGIN ATOM
M  V30 1 N 0.7228 -1.1246 0.1605 0
M  V30 2 C -0.5471 -0.6495 0.08 0
M  V30 3 C 1.7921 -0.2861 0.0764 0
M  V30 4 N -1.6081 -1.4923 0.1649 0
M  V30 5 C -0.7585 0.7275 -0.0926 0
M  V30 6 N 3.117 -0.8105 0.1639 0
M  V30 7 C 1.577 1.0897 -0.0961 0
M  V30 8 C -2.8794 -1.015 0.0841 0
M  V30 9 N 0.306 1.5671 -0.1769 0
M  V30 10 C -2.069 1.1962 -0.1729 0
M  V30 11 N -3.1021 0.3171 -0.0831 0
M  V30 12 H 3.2691 -1.8353 0.2925 0
M  V30 13 H 3.9484 -0.1814 0.1013 0
M  V30 14 H 2.412 1.7745 -0.1656 0
M  V30 15 H -3.716 -1.6965 0.1532 0
M  V30 16 H -2.2699 2.2515 -0.306 0
M  V30 END ATOM
M  V30 BEGIN BOND
M  V30 1 1 1 2
M  V30 2 2 1 3
M  V30 3 2 2 4
M  V30 4 1 2 5
M  V30 5 1 3 6
M  V30 6 1 3 7
M  V30 7 1 4 8
M  V30 8 1 5 9
M  V30 9 2 5 10
M  V30 10 2 8 11
M  V30 11 2 7 9
M  V30 12 1 10 11
M  V30 13 1 6 12
M  V30 14 1 6 13
M  V30 15 1 7 14
M  V30 16 1 8 15
M  V30 17 1 10 16
M  V30 END BOND
M  V30 END CTAB
M  END
>  <Structure No>
6959

>  <LogS>
-2.31

>  <MMFF94 Energy>
42.307

$$$$
Compound 6960
Actelion Java MolfileCreator 2.0

  0  0  0  0  0  0              0 V3000
M  V30 BEGIN CTAB
M  V30 COUNTS 16 17 0 0 0
M  V30 BEGIN ATOM
M  V30 1 N 0.8031 0.8835 0.0 0
M  V30 2 C 1.754 -0.0775 0.1575 0
M  V30 3 C -0.5138 0.5567 -0.0666 0
M  V30 4 N 3.1322 0.2883 0.2251 0
M  V30 5 C 1.365 -1.4224 0.2519 0
M  V30 6 C -0.9028 -0.7887 0.0278 0
M  V30 7 C -1.5018 1.5269 -0.2277 0
M  V30 8 N 0.0458 -1.7479 0.185 0
M  V30 9 N -2.2179 -1.12 -0.0382 0
M  V30 10 N -2.807 1.1511 -0.2889 0
M  V30 11 C -3.1668 -0.1581 -0.1956 0
M  V30 12 H 3.8746 -0.4362 0.3458 0
M  V30 13 H 3.4139 1.2912 0.1542 0
M  V30 14 H 2.1037 -2.203 0.3774 0
M  V30 15 H -1.239 2.5741 -0.304 0
M  V30 16 H -4.211 -0.4347 -0.2467 0
M  V30 END ATOM
M  V30 BEGIN BOND
M  V30 1 2 1 2
M  V30 2 1 1 3
M  V30 3 1 2 4
M  V30 4 1 2 5
M  V30 5 1 3 6
M  V30 6 2 3 7
M  V30 7 2 5 8
M  V30 8 2 6 9
M  V30 9 1 7 10
M  V30 10 1 9 11
M  V30 11 1 6 8
M  V30 12 2 10 11
M  V30 13 1 4 12
M  V30 14 1 4 13
M  V30 15 1 5 14
M  V30 16 1 7 15
M  V30 17 1 11 16
M  V30 END BOND
M  V30 END CTAB
M  END
>  <Structure No>
6960

>  <LogS>
-2.34

>  <MMFF94 Energy>
39.206

$$$$
Compound 6961
Actelion Java MolfileCreator 2.0

  0  0  0  0  0  0              0 V3000
M  V30 BEGIN CTAB
M  V30 COUNTS 28 28 0 0 0
M  V30 BEGIN ATOM
M  V30 1 O -1.3424 1.3424 1.6585 0
M  V30 2 C -1.6227 0.4513 0.8108 0
M  V30 3 N -0.5641 -0.3135 0.2137 0
M  V30 4 C -3.0397 0.2289 0.4326 0
M  V30 5 N 0.7554 -0.2312 0.6953 0
M  V30 6 C -3.4711 -1.0027 -0.0902 0
M  V30 7 C -3.9867 1.2509 0.6179 0
M  V30 8 C 1.8259 -0.9524 0.0722 0
M  V30 9 C -4.8154 -1.1782 -0.4286 0
M  V30 10 C -5.3206 1.0326 0.2649 0
M  V30 11 O 1.6086 -1.6584 -0.9492 0
M  V30 12 C 3.2224 -0.8346 0.6046 0
M  V30 13 N -5.7036 -0.166 -0.247 0
M  V30 14 C 3.8994 0.425 0.0572 0
M  V30 15 C 5.3227 0.5613 0.5902 0
M  V30 16 H -0.7683 -0.9044 -0.6221 0
M  V30 17 H 0.9704 0.3602 1.5297 0
M  V30 18 H -2.7893 -1.8329 -0.2158 0
M  V30 19 H -3.6971 2.2133 1.0216 0
M  V30 20 H -5.1541 -2.124 -0.8301 0
M  V30 21 H -6.0524 1.8182 0.3989 0
M  V30 22 H 3.1887 -0.794 1.7152 0
M  V30 23 H 3.8074 -1.734 0.3116 0
M  V30 24 H 3.3165 1.3242 0.355 0
M  V30 25 H 3.9334 0.3793 -1.0534 0
M  V30 26 H 5.3141 0.6342 1.6988 0
M  V30 27 H 5.9348 -0.3138 0.2843 0
M  V30 28 H 5.7875 1.4814 0.1775 0
M  V30 END ATOM
M  V30 BEGIN BOND
M  V30 1 2 1 2
M  V30 2 1 2 3
M  V30 3 1 2 4
M  V30 4 1 3 5
M  V30 5 2 4 6
M  V30 6 1 4 7
M  V30 7 1 5 8
M  V30 8 1 6 9
M  V30 9 2 7 10
M  V30 10 2 8 11
M  V30 11 1 8 12
M  V30 12 2 9 13
M  V30 13 1 12 14
M  V30 14 1 14 15
M  V30 15 1 10 13
M  V30 16 1 3 16
M  V30 17 1 5 17
M  V30 18 1 6 18
M  V30 19 1 7 19
M  V30 20 1 9 20
M  V30 21 1 10 21
M  V30 22 1 12 22
M  V30 23 1 12 23
M  V30 24 1 14 24
M  V30 25 1 14 25
M  V30 26 1 15 26
M  V30 27 1 15 27
M  V30 28 1 15 28
M  V30 END BOND
M  V30 END CTAB
M  END
>  <Structure No>
6961

>  <LogS>
-0.32

>  <MMFF94 Energy>
34.004

$$$$
Compound 6962
Actelion Java MolfileCreator 2.0

  0  0  0  0  0  0              0 V3000
M  V30 BEGIN CTAB
M  V30 COUNTS 24 24 0 0 0
M  V30 BEGIN ATOM
M  V30 1 O -3.637 0.7897 1.6591 0
M  V30 2 C -3.9401 0.2149 0.5792 0
M  V30 3 N -2.9288 -0.1148 -0.385 0
M  V30 4 N -5.3095 -0.0702 0.2979 0
M  V30 5 C -1.5151 -0.0501 -0.1288 0
M  V30 6 C -0.9805 -0.3725 1.1309 0
M  V30 7 C -0.6426 0.2916 -1.1721 0
M  V30 8 C 0.4 -0.3234 1.3453 0
M  V30 9 C 0.7379 0.3404 -0.9569 0
M  V30 10 C 1.2704 0.0202 0.305 0
M  V30 11 O 2.6468 0.0663 0.5736 0
M  V30 12 C 3.6637 -0.1453 -0.3661 0
M  V30 13 O 3.4274 -0.7215 -1.4623 0
M  V30 14 C 5.0676 0.2106 -0.0127 0
M  V30 15 H -3.2424 -0.3309 -1.3582 0
M  V30 16 H -6.0535 0.1818 0.986 0
M  V30 17 H -5.5818 -0.5379 -0.5946 0
M  V30 18 H -1.6227 -0.6863 1.9426 0
M  V30 19 H -1.0362 0.5395 -2.1501 0
M  V30 20 H 0.7977 -0.5709 2.3214 0
M  V30 21 H 1.379 0.6548 -1.7685 0
M  V30 22 H 5.5684 -0.6683 0.4435 0
M  V30 23 H 5.6245 0.5194 -0.9226 0
M  V30 24 H 5.073 1.051 0.7126 0
M  V30 END ATOM
M  V30 BEGIN BOND
M  V30 1 2 1 2
M  V30 2 1 2 3
M  V30 3 1 2 4
M  V30 4 1 3 5
M  V30 5 2 5 6
M  V30 6 1 5 7
M  V30 7 1 6 8
M  V30 8 2 7 9
M  V30 9 2 8 10
M  V30 10 1 10 11
M  V30 11 1 11 12
M  V30 12 2 12 13
M  V30 13 1 12 14
M  V30 14 1 9 10
M  V30 15 1 3 15
M  V30 16 1 4 16
M  V30 17 1 4 17
M  V30 18 1 6 18
M  V30 19 1 7 19
M  V30 20 1 8 20
M  V30 21 1 9 21
M  V30 22 1 14 22
M  V30 23 1 14 23
M  V30 24 1 14 24
M  V30 END BOND
M  V30 END CTAB
M  END
>  <Structure No>
6962

>  <LogS>
-2.49

>  <MMFF94 Energy>
-62.264

$$$$
Compound 6963
Actelion Java MolfileCreator 2.0

  0  0  0  0  0  0              0 V3000
M  V30 BEGIN CTAB
M  V30 COUNTS 17 17 0 0 0
M  V30 BEGIN ATOM
M  V30 1 O -3.5387 0.0 -0.4932 0
M  V30 2 C -2.5126 0.7072 -0.3086 0
M  V30 3 O -2.6402 2.0911 -0.2979 0 CHG=-1
M  V30 4 C -1.208 0.0661 -0.033 0
M  V30 5 C 0.0199 0.6219 -0.4773 0
M  V30 6 C -1.1928 -1.1135 0.7279 0
M  V30 7 O 0.0445 1.7276 -1.3333 0
M  V30 8 C 1.2458 0.0271 -0.0846 0
M  V30 9 C 0.0119 -1.7114 1.0862 0
M  V30 10 C 2.5608 0.5903 -0.4901 0
M  V30 11 C 1.221 -1.1418 0.6954 0
M  V30 12 O 2.6374 1.677 -1.1219 0
M  V30 13 O 3.7379 -0.0756 -0.167 0 CHG=-1
M  V30 14 H -2.1182 -1.5599 1.0718 0
M  V30 15 H -0.7736 2.0879 -1.805 0
M  V30 16 H 0.0091 -2.6141 1.6837 0
M  V30 17 H 2.1403 -1.624 1.0032 0
M  V30 END ATOM
M  V30 BEGIN BOND
M  V30 1 2 1 2
M  V30 2 1 2 3
M  V30 3 1 2 4
M  V30 4 2 4 5
M  V30 5 1 4 6
M  V30 6 1 5 7
M  V30 7 1 5 8
M  V30 8 2 6 9
M  V30 9 1 8 10
M  V30 10 2 8 11
M  V30 11 2 10 12
M  V30 12 1 10 13
M  V30 13 1 9 11
M  V30 14 1 6 14
M  V30 15 1 7 15
M  V30 16 1 9 16
M  V30 17 1 11 17
M  V30 END BOND
M  V30 END CTAB
M  END
>  <Structure No>
6963

>  <LogS>
-2.11

>  <MMFF94 Energy>
95.845

$$$$
Compound 6964
Actelion Java MolfileCreator 2.0

  0  0  0  0  0  0              0 V3000
M  V30 BEGIN CTAB
M  V30 COUNTS 18 19 0 0 0
M  V30 BEGIN ATOM
M  V30 1 N -1.3323 0.6268 -0.235 0 CHG=1
M  V30 2 C -1.7373 -0.6857 -0.1558 0
M  V30 3 C -0.0137 0.9729 -0.1056 0
M  V30 4 N -0.821 -1.6796 0.0553 0
M  V30 5 N -3.1183 -1.0194 -0.294 0
M  V30 6 N 0.3937 2.3412 -0.1898 0
M  V30 7 C 0.9008 -0.054 0.1086 0
M  V30 8 C 0.4819 -1.3368 0.183 0
M  V30 9 N 2.2295 -0.0161 0.2694 0
M  V30 10 N 1.5126 -2.172 0.3929 0
M  V30 11 C 2.5712 -1.3181 0.4399 0
M  V30 12 H -2.0444 1.3742 -0.3966 0
M  V30 13 H -3.4284 -2.0146 -0.2344 0
M  V30 14 H -3.8335 -0.2761 -0.4556 0
M  V30 15 H 1.3955 2.6166 -0.0927 0
M  V30 16 H -0.3129 3.0925 -0.3512 0
M  V30 17 H 2.8646 0.8121 0.2667 0
M  V30 18 H 3.5894 -1.6475 0.5985 0
M  V30 END ATOM
M  V30 BEGIN BOND
M  V30 1 2 1 2
M  V30 2 1 1 3
M  V30 3 1 2 4
M  V30 4 1 2 5
M  V30 5 1 3 6
M  V30 6 2 3 7
M  V30 7 2 4 8
M  V30 8 1 7 9
M  V30 9 1 8 10
M  V30 10 1 9 11
M  V30 11 1 7 8
M  V30 12 2 10 11
M  V30 13 1 1 12
M  V30 14 1 5 13
M  V30 15 1 5 14
M  V30 16 1 6 15
M  V30 17 1 6 16
M  V30 18 1 9 17
M  V30 19 1 11 18
M  V30 END BOND
M  V30 END CTAB
M  END
>  <Structure No>
6964

>  <LogS>
-1.8

>  <MMFF94 Energy>
-92.341

$$$$
Compound 6965
Actelion Java MolfileCreator 2.0

  0  0  0  0  0  0              0 V3000
M  V30 BEGIN CTAB
M  V30 COUNTS 32 32 0 0 0
M  V30 BEGIN ATOM
M  V30 1 O 0.1563 2.8962 2.3478 0
M  V30 2 C 0.214 1.9211 1.553 0
M  V30 3 N 1.4173 1.3868 1.2326 0
M  V30 4 N -0.9258 1.4054 1.0197 0
M  V30 5 C 1.4914 0.3349 0.3788 0
M  V30 6 C -0.8633 0.3478 0.1558 0
M  V30 7 N 0.3537 -0.1769 -0.1528 0
M  V30 8 N 2.7575 -0.2387 0.0352 0
M  V30 9 N -2.0592 -0.2285 -0.4319 0
M  V30 10 C 4.0101 0.2796 0.5845 0
M  V30 11 C -3.3739 0.4274 -0.3308 0
M  V30 12 C -1.9619 -1.4971 -1.173 0
M  V30 13 C 5.2052 -0.5087 0.059 0
M  V30 14 C -3.4301 1.6668 -1.2195 0
M  V30 15 C -1.8496 -2.6728 -0.2077 0
M  V30 16 H -1.8348 1.8358 1.2942 0
M  V30 17 H 2.7709 -1.049 -0.626 0
M  V30 18 H 4.1258 1.3474 0.2985 0
M  V30 19 H 3.9864 0.2062 1.6934 0
M  V30 20 H -3.6042 0.6841 0.7236 0
M  V30 21 H -4.1843 -0.2632 -0.6509 0
M  V30 22 H -1.0844 -1.4796 -1.8547 0
M  V30 23 H -2.8544 -1.651 -1.8178 0
M  V30 24 H 6.1424 -0.097 0.4894 0
M  V30 25 H 5.1161 -1.5769 0.3504 0
M  V30 26 H 5.2559 -0.4327 -1.048 0
M  V30 27 H -3.2461 1.3815 -2.2771 0
M  V30 28 H -4.4348 2.1337 -1.1446 0
M  V30 29 H -2.6691 2.412 -0.9092 0
M  V30 30 H -0.9304 -2.584 0.4084 0
M  V30 31 H -2.7357 -2.6999 0.4612 0
M  V30 32 H -1.8033 -3.6227 -0.7806 0
M  V30 END ATOM
M  V30 BEGIN BOND
M  V30 1 2 1 2
M  V30 2 1 2 3
M  V30 3 1 2 4
M  V30 4 2 3 5
M  V30 5 1 4 6
M  V30 6 1 5 7
M  V30 7 1 5 8
M  V30 8 1 6 9
M  V30 9 1 8 10
M  V30 10 1 9 11
M  V30 11 1 9 12
M  V30 12 1 10 13
M  V30 13 1 11 14
M  V30 14 1 12 15
M  V30 15 2 6 7
M  V30 16 1 4 16
M  V30 17 1 8 17
M  V30 18 1 10 18
M  V30 19 1 10 19
M  V30 20 1 11 20
M  V30 21 1 11 21
M  V30 22 1 12 22
M  V30 23 1 12 23
M  V30 24 1 13 24
M  V30 25 1 13 25
M  V30 26 1 13 26
M  V30 27 1 14 27
M  V30 28 1 14 28
M  V30 29 1 14 29
M  V30 30 1 15 30
M  V30 31 1 15 31
M  V30 32 1 15 32
M  V30 END BOND
M  V30 END CTAB
M  END
>  <Structure No>
6965

>  <LogS>
-3.64

>  <MMFF94 Energy>
-259.56

$$$$
Compound 6966
Actelion Java MolfileCreator 2.0

  0  0  0  0  0  0              0 V3000
M  V30 BEGIN CTAB
M  V30 COUNTS 16 17 0 0 0
M  V30 BEGIN ATOM
M  V30 1 N -0.8837 -2.0093 0.0803 0
M  V30 2 C 0.1569 -1.1824 -0.1936 0
M  V30 3 C -2.0565 -1.513 0.5552 0
M  V30 4 N 1.3276 -1.6821 -0.6681 0
M  V30 5 C 0.0286 0.2021 0.013 0
M  V30 6 N -2.2012 -0.1764 0.7622 0
M  V30 7 C 2.3765 -0.8623 -0.9459 0
M  V30 8 N 1.0799 1.0191 -0.2657 0
M  V30 9 C -1.1888 0.695 0.5035 0
M  V30 10 C 2.2502 0.5153 -0.7406 0
M  V30 11 N -1.386 2.092 0.7361 0
M  V30 12 H -2.8777 -2.183 0.7694 0
M  V30 13 H 3.3019 -1.2763 -1.3231 0
M  V30 14 H 3.0765 1.1787 -0.9574 0
M  V30 15 H -0.6316 2.7893 0.549 0
M  V30 16 H -2.3014 2.4367 1.1019 0
M  V30 END ATOM
M  V30 BEGIN BOND
M  V30 1 1 1 2
M  V30 2 2 1 3
M  V30 3 2 2 4
M  V30 4 1 2 5
M  V30 5 1 3 6
M  V30 6 1 4 7
M  V30 7 2 5 8
M  V30 8 1 5 9
M  V30 9 2 7 10
M  V30 10 1 9 11
M  V30 11 2 6 9
M  V30 12 1 8 10
M  V30 13 1 3 12
M  V30 14 1 7 13
M  V30 15 1 10 14
M  V30 16 1 11 15
M  V30 17 1 11 16
M  V30 END BOND
M  V30 END CTAB
M  END
>  <Structure No>
6966

>  <LogS>
-2.31

>  <MMFF94 Energy>
52.676

$$$$
Compound 6967
Actelion Java MolfileCreator 2.0

  0  0  0  0  0  0              0 V3000
M  V30 BEGIN CTAB
M  V30 COUNTS 72 77 0 0 0
M  V30 BEGIN ATOM
M  V30 1 O -3.8908 0.9716 0.3237 0
M  V30 2 C -3.8378 -0.3141 -0.2966 0 CFG=1
M  V30 3 C -4.8782 1.8026 -0.254 0
M  V30 4 O -3.0622 -0.2105 -1.4828 0
M  V30 5 C -3.1137 -1.2992 0.661 0 CFG=1
M  V30 6 C -5.2605 -0.8477 -0.6874 0
M  V30 7 C -6.2855 1.3128 0.1515 0 CFG=2
M  V30 8 C -2.0064 -1.1469 -1.415 0 CFG=2
M  V30 9 C -1.7337 -1.4782 0.049 0 CFG=1
M  V30 10 C -3.1885 -1.0083 2.1697 0
M  V30 11 C -6.3376 -0.2319 0.2071 0
M  V30 12 C -7.3484 1.8795 -0.7964 0
M  V30 13 C -0.7031 -0.5622 -1.995 0
M  V30 14 C -0.4861 -0.6118 0.4121 0 CFG=2
M  V30 15 C 0.3155 -0.797 -0.8869 0 CFG=2
M  V30 16 C 0.3726 -1.1779 1.567 0
M  V30 17 C -0.8328 0.8888 0.6798 0
M  V30 18 C 1.6492 -0.0175 -0.9156 0 CFG=1
M  V30 19 C 1.7521 -0.4795 1.6384 0
M  V30 20 C 2.5287 -0.4996 0.2784 0 CFG=2
M  V30 21 C 2.3934 -0.2838 -2.2306 0
M  V30 22 C 3.9184 0.2485 0.328 0 CFG=2
M  V30 23 C 3.8027 0.2282 -2.2051 0
M  V30 24 C 4.5376 0.35 -1.0794 0
M  V30 25 C 4.8897 -0.5271 1.2995 0
M  V30 26 C 3.7402 1.7067 0.8365 0
M  V30 27 C 6.0043 0.722 -1.2395 0
M  V30 28 C 6.2785 -0.8483 0.721 0
M  V30 29 C 6.8754 0.3474 -0.0221 0 CFG=2
M  V30 30 O 7.0132 1.4337 0.8564 0
M  V30 31 H -4.76 1.8421 -1.3613 0
M  V30 32 H -4.733 2.8385 0.1205 0
M  V30 33 H -3.5839 -2.3041 0.5625 0
M  V30 34 H -5.489 -0.559 -1.7366 0
M  V30 35 H -5.3343 -1.956 -0.6605 0
M  V30 36 H -6.5043 1.698 1.1726 0
M  V30 37 H -2.296 -2.0664 -1.9716 0
M  V30 38 H -1.4483 -2.5545 0.1292 0
M  V30 39 H -3.0398 0.0531 2.43 0
M  V30 40 H -4.1953 -1.2844 2.5441 0
M  V30 41 H -2.4518 -1.6317 2.718 0
M  V30 42 H -7.3372 -0.6189 -0.0916 0
M  V30 43 H -6.1626 -0.5663 1.2519 0
M  V30 44 H -7.2901 2.9897 -0.8171 0
M  V30 45 H -7.2019 1.4926 -1.8273 0
M  V30 46 H -8.3637 1.5915 -0.4467 0
M  V30 47 H -0.4092 -1.0935 -2.9275 0
M  V30 48 H -0.8043 0.5242 -2.2121 0
M  V30 49 H 0.5976 -1.8768 -0.9705 0
M  V30 50 H 0.5352 -2.2698 1.431 0
M  V30 51 H -0.1523 -1.0384 2.5357 0
M  V30 52 H -1.4754 1.3216 -0.1078 0
M  V30 53 H 0.0614 1.536 0.7218 0
M  V30 54 H -1.3141 1.0236 1.6613 0
M  V30 55 H 1.455 1.0705 -0.8631 0
M  V30 56 H 2.3498 -0.9831 2.4252 0
M  V30 57 H 1.5933 0.5555 1.9904 0
M  V30 58 H 2.7526 -1.5732 0.0784 0
M  V30 59 H 2.4345 -1.3745 -2.4376 0
M  V30 60 H 1.8536 0.2042 -3.0697 0
M  V30 61 H 4.2813 0.3723 -3.1718 0
M  V30 62 H 5.0327 0.0366 2.2486 0
M  V30 63 H 4.4583 -1.5032 1.6103 0
M  V30 64 H 4.6836 2.2816 0.7514 0
M  V30 65 H 3.4543 1.7407 1.9062 0
M  V30 66 H 2.9787 2.2532 0.2463 0
M  V30 67 H 6.416 0.181 -2.1214 0
M  V30 68 H 6.0854 1.8075 -1.4607 0
M  V30 69 H 6.9615 -1.1615 1.5428 0
M  V30 70 H 6.1898 -1.7065 0.0165 0
M  V30 71 H 7.8852 0.0476 -0.3875 0
M  V30 72 H 7.6337 2.0761 0.4231 0
M  V30 END ATOM
M  V30 BEGIN BOND
M  V30 1 1 1 2
M  V30 2 1 1 3
M  V30 3 1 2 4
M  V30 4 1 2 5
M  V30 5 1 2 6
M  V30 6 1 3 7
M  V30 7 1 4 8
M  V30 8 1 5 9
M  V30 9 1 5 10
M  V30 10 1 6 11
M  V30 11 1 7 12
M  V30 12 1 8 13
M  V30 13 1 9 14
M  V30 14 1 13 15
M  V30 15 1 14 16
M  V30 16 1 14 17
M  V30 17 1 15 18
M  V30 18 1 16 19
M  V30 19 1 18 20
M  V30 20 1 18 21
M  V30 21 1 20 22
M  V30 22 1 21 23
M  V30 23 1 22 24
M  V30 24 1 22 25
M  V30 25 1 22 26
M  V30 26 1 24 27
M  V30 27 1 25 28
M  V30 28 1 27 29
M  V30 29 1 29 30
M  V30 30 1 7 11
M  V30 31 1 8 9
M  V30 32 1 14 15
M  V30 33 1 19 20
M  V30 34 2 23 24
M  V30 35 1 28 29
M  V30 36 1 3 31
M  V30 37 1 3 32
M  V30 38 1 5 33
M  V30 39 1 6 34
M  V30 40 1 6 35
M  V30 41 1 7 36
M  V30 42 1 8 37
M  V30 43 1 9 38
M  V30 44 1 10 39
M  V30 45 1 10 40
M  V30 46 1 10 41
M  V30 47 1 11 42
M  V30 48 1 11 43
M  V30 49 1 12 44
M  V30 50 1 12 45
M  V30 51 1 12 46
M  V30 52 1 13 47
M  V30 53 1 13 48
M  V30 54 1 15 49
M  V30 55 1 16 50
M  V30 56 1 16 51
M  V30 57 1 17 52
M  V30 58 1 17 53
M  V30 59 1 17 54
M  V30 60 1 18 55
M  V30 61 1 19 56
M  V30 62 1 19 57
M  V30 63 1 20 58
M  V30 64 1 21 59
M  V30 65 1 21 60
M  V30 66 1 23 61
M  V30 67 1 25 62
M  V30 68 1 25 63
M  V30 69 1 26 64
M  V30 70 1 26 65
M  V30 71 1 26 66
M  V30 72 1 27 67
M  V30 73 1 27 68
M  V30 74 1 28 69
M  V30 75 1 28 70
M  V30 76 1 29 71
M  V30 77 1 30 72
M  V30 END BOND
M  V30 BEGIN COLLECTION
M  V30 MDLV30/STEABS ATOMS=(11 2 5 7 8 9 14 15 18 20 22 29)
M  V30 END COLLECTION
M  V30 END CTAB
M  END
>  <Structure No>
6967

>  <LogS>
-7.32

>  <MMFF94 Energy>
102.15

$$$$
Compound 6968
Actelion Java MolfileCreator 2.0

  0  0  0  0  0  0              0 V3000
M  V30 BEGIN CTAB
M  V30 COUNTS 14 15 0 0 0
M  V30 BEGIN ATOM
M  V30 1 O 3.3489 1.1426 0.4895 0
M  V30 2 C 2.2287 0.6255 0.241 0
M  V30 3 N 1.0875 1.257 0.6274 0 CHG=-1
M  V30 4 C 2.1484 -0.5997 -0.433 0
M  V30 5 C -0.131 0.7154 0.3684 0
M  V30 6 N 0.9294 -1.1439 -0.6934 0
M  V30 7 N -1.2672 1.3496 0.7562 0
M  V30 8 C -0.2102 -0.5128 -0.3072 0
M  V30 9 C -2.4865 0.8058 0.4961 0
M  V30 10 C -1.4693 -1.0527 -0.5638 0
M  V30 11 N -2.5811 -0.3838 -0.1578 0
M  V30 12 H 3.0461 -1.1159 -0.7478 0
M  V30 13 H -3.384 1.3207 0.8101 0
M  V30 14 H -1.5687 -1.9974 -1.0823 0
M  V30 END ATOM
M  V30 BEGIN BOND
M  V30 1 2 1 2
M  V30 2 1 2 3
M  V30 3 1 2 4
M  V30 4 1 3 5
M  V30 5 2 4 6
M  V30 6 2 5 7
M  V30 7 1 5 8
M  V30 8 1 7 9
M  V30 9 2 8 10
M  V30 10 2 9 11
M  V30 11 1 6 8
M  V30 12 1 10 11
M  V30 13 1 4 12
M  V30 14 1 9 13
M  V30 15 1 10 14
M  V30 END BOND
M  V30 END CTAB
M  END
>  <Structure No>
6968

>  <LogS>
-2.12

>  <MMFF94 Energy>
75.801

$$$$
Compound 6969
Actelion Java MolfileCreator 2.0

  0  0  0  0  0  0              0 V3000
M  V30 BEGIN CTAB
M  V30 COUNTS 14 15 0 0 0
M  V30 BEGIN ATOM
M  V30 1 O 3.4307 0.1631 -0.6528 0
M  V30 2 C 2.2488 0.138 -0.2206 0
M  V30 3 N 1.2192 -0.1188 -1.0713 0 CHG=-1
M  V30 4 C 1.9851 0.3736 1.1348 0
M  V30 5 C -0.0623 -0.1495 -0.621 0
M  V30 6 N 0.7015 0.3426 1.5846 0
M  V30 7 C -0.3288 0.0863 0.7373 0
M  V30 8 C -1.1326 -0.4106 -1.4749 0
M  V30 9 N -1.6078 0.0566 1.1917 0
M  V30 10 N -2.3976 -0.4308 -0.9775 0
M  V30 11 C -2.6382 -0.2 0.342 0
M  V30 12 H 2.7921 0.5796 1.826 0
M  V30 13 H -0.965 -0.5969 -2.5276 0
M  V30 14 H -3.6525 -0.2209 0.7162 0
M  V30 END ATOM
M  V30 BEGIN BOND
M  V30 1 2 1 2
M  V30 2 1 2 3
M  V30 3 1 2 4
M  V30 4 1 3 5
M  V30 5 2 4 6
M  V30 6 2 5 7
M  V30 7 1 5 8
M  V30 8 1 7 9
M  V30 9 2 8 10
M  V30 10 2 9 11
M  V30 11 1 6 7
M  V30 12 1 10 11
M  V30 13 1 4 12
M  V30 14 1 8 13
M  V30 15 1 11 14
M  V30 END BOND
M  V30 END CTAB
M  END
>  <Structure No>
6969

>  <LogS>
-2.71

>  <MMFF94 Energy>
26.948

$$$$
Compound 6970
Actelion Java MolfileCreator 2.0

  0  0  0  0  0  0              0 V3000
M  V30 BEGIN CTAB
M  V30 COUNTS 15 16 0 0 0
M  V30 BEGIN ATOM
M  V30 1 O -3.3076 1.4511 -0.5641 0
M  V30 2 C -2.2394 0.8285 -0.3265 0
M  V30 3 N -1.0461 1.4724 -0.4346 0
M  V30 4 N -2.2798 -0.485 0.0375 0
M  V30 5 C 0.1177 0.821 -0.1833 0
M  V30 6 C -1.1358 -1.1742 0.2982 0
M  V30 7 N 1.3091 1.4647 -0.2915 0
M  V30 8 C 0.0957 -0.5309 0.1925 0
M  V30 9 C 2.4781 0.8159 -0.0405 0
M  V30 10 N 1.2633 -1.1792 0.4433 0
M  V30 11 C 2.4547 -0.5321 0.3342 0
M  V30 12 H -3.1994 -0.9749 0.1192 0
M  V30 13 H -1.1854 -2.2173 0.5862 0
M  V30 14 H 3.4189 1.3419 -0.1309 0
M  V30 15 H 3.3774 -1.0594 0.5364 0
M  V30 END ATOM
M  V30 BEGIN BOND
M  V30 1 2 1 2
M  V30 2 1 2 3
M  V30 3 1 2 4
M  V30 4 2 3 5
M  V30 5 1 4 6
M  V30 6 1 5 7
M  V30 7 1 5 8
M  V30 8 2 7 9
M  V30 9 1 8 10
M  V30 10 1 9 11
M  V30 11 2 6 8
M  V30 12 2 10 11
M  V30 13 1 4 12
M  V30 14 1 6 13
M  V30 15 1 9 14
M  V30 16 1 11 15
M  V30 END BOND
M  V30 END CTAB
M  END
>  <Structure No>
6970

>  <LogS>
-2.0

>  <MMFF94 Energy>
13.287

$$$$
Compound 6971
Actelion Java MolfileCreator 2.0

  0  0  0  0  0  0              0 V3000
M  V30 BEGIN CTAB
M  V30 COUNTS 17 17 0 0 0
M  V30 BEGIN ATOM
M  V30 1 O -0.2465 3.0433 -0.0821 0
M  V30 2 C 0.4753 2.1534 0.4367 0
M  V30 3 O 1.486 2.5452 1.3072 0 CHG=-1
M  V30 4 C 0.2632 0.7108 0.1312 0
M  V30 5 C 1.3616 -0.1787 0.2175 0
M  V30 6 C -1.021 0.1814 -0.1864 0
M  V30 7 O 2.6433 0.3014 0.4899 0
M  V30 8 C 1.1768 -1.5528 0.0178 0
M  V30 9 C -2.2283 1.0178 -0.3069 0
M  V30 10 C -1.1782 -1.2019 -0.3649 0
M  V30 11 C -0.087 -2.0609 -0.2655 0
M  V30 12 O -3.2025 0.8311 0.4686 0
M  V30 13 O -2.3354 1.9545 -1.3275 0 CHG=-1
M  V30 14 H 3.4432 -0.3176 0.5523 0
M  V30 15 H 2.0181 -2.2309 0.0848 0
M  V30 16 H -2.1528 -1.6179 -0.5926 0
M  V30 17 H -0.2212 -3.1248 -0.4133 0
M  V30 END ATOM
M  V30 BEGIN BOND
M  V30 1 2 1 2
M  V30 2 1 2 3
M  V30 3 1 2 4
M  V30 4 2 4 5
M  V30 5 1 4 6
M  V30 6 1 5 7
M  V30 7 1 5 8
M  V30 8 1 6 9
M  V30 9 2 6 10
M  V30 10 2 8 11
M  V30 11 2 9 12
M  V30 12 1 9 13
M  V30 13 1 10 11
M  V30 14 1 7 14
M  V30 15 1 8 15
M  V30 16 1 10 16
M  V30 17 1 11 17
M  V30 END BOND
M  V30 END CTAB
M  END
>  <Structure No>
6971

>  <LogS>
-2.11

>  <MMFF94 Energy>
95.142

$$$$
Compound 6972
Actelion Java MolfileCreator 2.0

  0  0  0  0  0  0              0 V3000
M  V30 BEGIN CTAB
M  V30 COUNTS 23 23 0 0 0
M  V30 BEGIN ATOM
M  V30 1 S 5.9884 -1.1308 2.0201 0
M  V30 2 C 5.1272 -0.2127 1.0141 0
M  V30 3 N 4.4466 0.5128 0.2192 0
M  V30 4 C 3.0117 0.5039 0.1568 0
M  V30 5 C 2.2285 -0.3231 0.9851 0
M  V30 6 C 2.3753 1.3478 -0.7601 0
M  V30 7 C 0.8337 -0.2995 0.8908 0
M  V30 8 C 0.9808 1.3721 -0.8552 0
M  V30 9 C 0.1951 0.5482 -0.0299 0
M  V30 10 C -1.2812 0.5689 -0.1268 0
M  V30 11 O -1.8503 1.3317 -0.956 0
M  V30 12 O -2.0457 -0.255 0.7093 0
M  V30 13 C -3.4681 -0.3376 0.6466 0
M  V30 14 C -3.9064 -1.1638 -0.5569 0
M  V30 15 H 2.6908 -0.9868 1.7043 0
M  V30 16 H 2.9637 1.9896 -1.4038 0
M  V30 17 H 0.257 -0.9464 1.5398 0
M  V30 18 H 0.519 2.0363 -1.5752 0
M  V30 19 H -3.8343 -0.8326 1.5707 0
M  V30 20 H -3.9145 0.6795 0.6007 0
M  V30 21 H -5.0121 -1.2647 -0.5578 0
M  V30 22 H -3.593 -0.6705 -1.5005 0
M  V30 23 H -3.4524 -2.176 -0.5068 0
M  V30 END ATOM
M  V30 BEGIN BOND
M  V30 1 2 1 2
M  V30 2 2 2 3
M  V30 3 1 3 4
M  V30 4 2 4 5
M  V30 5 1 4 6
M  V30 6 1 5 7
M  V30 7 2 6 8
M  V30 8 2 7 9
M  V30 9 1 9 10
M  V30 10 2 10 11
M  V30 11 1 10 12
M  V30 12 1 12 13
M  V30 13 1 13 14
M  V30 14 1 8 9
M  V30 15 1 5 15
M  V30 16 1 6 16
M  V30 17 1 7 17
M  V30 18 1 8 18
M  V30 19 1 13 19
M  V30 20 1 13 20
M  V30 21 1 14 21
M  V30 22 1 14 22
M  V30 23 1 14 23
M  V30 END BOND
M  V30 END CTAB
M  END
>  <Structure No>
6972

>  <LogS>
-4.05

>  <MMFF94 Energy>
23.102

$$$$
Compound 6973
Actelion Java MolfileCreator 2.0

  0  0  0  0  0  0              0 V3000
M  V30 BEGIN CTAB
M  V30 COUNTS 31 31 0 0 0
M  V30 BEGIN ATOM
M  V30 1 Cl 0.0 -3.8245 0.3978 0
M  V30 2 C -0.0267 -2.0993 0.107 0
M  V30 3 N -1.1367 -1.379 0.4029 0
M  V30 4 N 1.0624 -1.4828 -0.4141 0
M  V30 5 C -1.1624 -0.039 0.1765 0
M  V30 6 C 1.0467 -0.1425 -0.639 0
M  V30 7 N -0.0681 0.5743 -0.3435 0
M  V30 8 N -2.3294 0.734 0.4867 0
M  V30 9 N 2.1912 0.5202 -1.1908 0
M  V30 10 C -3.5574 0.1338 1.0193 0
M  V30 11 C 3.4398 -0.1755 -1.5014 0
M  V30 12 C -4.433 1.2075 1.6735 0
M  V30 13 C -4.3264 -0.5717 -0.1014 0
M  V30 14 C 4.2228 -0.5107 -0.2257 0
M  V30 15 C 4.6606 0.746 0.5239 0
M  V30 16 H -2.2824 1.769 0.3432 0
M  V30 17 H 2.1164 1.5358 -1.4256 0
M  V30 18 H -3.2948 -0.6103 1.8035 0
M  V30 19 H 4.0663 0.466 -2.1587 0
M  V30 20 H 3.2184 -1.1088 -2.0626 0
M  V30 21 H -3.8674 1.7113 2.4861 0
M  V30 22 H -5.3417 0.7457 2.1152 0
M  V30 23 H -4.7425 1.9698 0.9265 0
M  V30 24 H -4.5921 0.15 -0.9034 0
M  V30 25 H -3.709 -1.3818 -0.5426 0
M  V30 26 H -5.2576 -1.0267 0.2987 0
M  V30 27 H 5.1274 -1.0923 -0.5052 0
M  V30 28 H 3.6075 -1.1448 0.4471 0
M  V30 29 H 3.7755 1.3216 0.8685 0
M  V30 30 H 5.2853 1.3894 -0.1315 0
M  V30 31 H 5.2601 0.4572 1.4127 0
M  V30 END ATOM
M  V30 BEGIN BOND
M  V30 1 1 1 2
M  V30 2 2 2 3
M  V30 3 1 2 4
M  V30 4 1 3 5
M  V30 5 2 4 6
M  V30 6 2 5 7
M  V30 7 1 5 8
M  V30 8 1 6 9
M  V30 9 1 8 10
M  V30 10 1 9 11
M  V30 11 1 10 12
M  V30 12 1 10 13
M  V30 13 1 11 14
M  V30 14 1 14 15
M  V30 15 1 6 7
M  V30 16 1 8 16
M  V30 17 1 9 17
M  V30 18 1 10 18
M  V30 19 1 11 19
M  V30 20 1 11 20
M  V30 21 1 12 21
M  V30 22 1 12 22
M  V30 23 1 12 23
M  V30 24 1 13 24
M  V30 25 1 13 25
M  V30 26 1 13 26
M  V30 27 1 14 27
M  V30 28 1 14 28
M  V30 29 1 15 29
M  V30 30 1 15 30
M  V30 31 1 15 31
M  V30 END BOND
M  V30 END CTAB
M  END
>  <Structure No>
6973

>  <LogS>
-3.74

>  <MMFF94 Energy>
-237.68

$$$$
Compound 6974
Actelion Java MolfileCreator 2.0

  0  0  0  0  0  0              0 V3000
M  V30 BEGIN CTAB
M  V30 COUNTS 15 16 0 0 0
M  V30 BEGIN ATOM
M  V30 1 O -2.2452 -2.1649 1.3627 0
M  V30 2 C -1.3423 -1.4555 0.846 0
M  V30 3 N -0.1612 -2.0337 0.4711 0
M  V30 4 N -1.5474 -0.1085 0.6621 0
M  V30 5 C 0.7908 -1.2457 -0.0816 0
M  V30 6 C -0.5813 0.6843 0.1025 0
M  V30 7 N 2.0004 -1.6307 -0.5068 0
M  V30 8 C 0.6123 0.0777 -0.2719 0
M  V30 9 N -0.7995 2.0845 -0.0865 0
M  V30 10 C 2.5261 -0.4598 -0.959 0
M  V30 11 N 1.7037 0.6171 -0.8327 0 CHG=-1
M  V30 12 H -2.4566 0.3162 0.9548 0
M  V30 13 H -1.7024 2.5229 0.2008 0
M  V30 14 H -0.0631 2.6898 -0.5132 0
M  V30 15 H 3.5181 -0.3907 -1.3847 0
M  V30 END ATOM
M  V30 BEGIN BOND
M  V30 1 2 1 2
M  V30 2 1 2 3
M  V30 3 1 2 4
M  V30 4 2 3 5
M  V30 5 1 4 6
M  V30 6 1 5 7
M  V30 7 1 5 8
M  V30 8 1 6 9
M  V30 9 2 7 10
M  V30 10 1 8 11
M  V30 11 2 6 8
M  V30 12 1 10 11
M  V30 13 1 4 12
M  V30 14 1 9 13
M  V30 15 1 9 14
M  V30 16 1 10 15
M  V30 END BOND
M  V30 END CTAB
M  END
>  <Structure No>
6974

>  <LogS>
-3.38

>  <MMFF94 Energy>
-104.57

$$$$
Compound 6975
Actelion Java MolfileCreator 2.0

  0  0  0  0  0  0              0 V3000
M  V30 BEGIN CTAB
M  V30 COUNTS 16 17 0 0 0
M  V30 BEGIN ATOM
M  V30 1 O -3.1492 -1.1013 -0.2359 0
M  V30 2 C -2.0288 -0.5321 -0.1439 0
M  V30 3 N -1.9587 0.8418 -0.1218 0 CHG=1
M  V30 4 N -0.887 -1.2853 -0.0664 0
M  V30 5 C -0.759 1.4907 -0.0228 0
M  V30 6 C 0.2987 -0.6375 0.0314 0
M  V30 7 C 0.386 0.7144 0.0545 0
M  V30 8 N 1.5219 -1.1832 0.1176 0
M  V30 9 N 1.6721 1.0854 0.1566 0
M  V30 10 C 2.3343 -0.0988 0.1925 0
M  V30 11 O 3.5871 -0.1836 0.2866 0
M  V30 12 H -2.836 1.4064 -0.1815 0
M  V30 13 H -0.9254 -2.3296 -0.082 0
M  V30 14 H -0.7086 2.5721 -0.0057 0
M  V30 15 H 1.7834 -2.1943 0.1252 0
M  V30 16 H 2.0671 2.0515 0.1985 0
M  V30 END ATOM
M  V30 BEGIN BOND
M  V30 1 2 1 2
M  V30 2 1 2 3
M  V30 3 1 2 4
M  V30 4 2 3 5
M  V30 5 1 4 6
M  V30 6 1 5 7
M  V30 7 1 6 8
M  V30 8 1 7 9
M  V30 9 1 8 10
M  V30 10 2 10 11
M  V30 11 2 6 7
M  V30 12 1 9 10
M  V30 13 1 3 12
M  V30 14 1 4 13
M  V30 15 1 5 14
M  V30 16 1 8 15
M  V30 17 1 9 16
M  V30 END BOND
M  V30 END CTAB
M  END
>  <Structure No>
6975

>  <LogS>
-3.6

>  <MMFF94 Energy>
-92.627

$$$$
Compound 6976
Actelion Java MolfileCreator 2.0

  0  0  0  0  0  0              0 V3000
M  V30 BEGIN CTAB
M  V30 COUNTS 14 15 0 0 0
M  V30 BEGIN ATOM
M  V30 1 O -1.2063 2.736 -0.3215 0
M  V30 2 C -1.0676 1.4966 -0.1503 0
M  V30 3 N -2.157 0.6894 0.0145 0
M  V30 4 C 0.1879 0.9061 -0.1226 0
M  V30 5 C -2.0194 -0.6632 0.202 0
M  V30 6 N 1.4019 1.4712 -0.2583 0 CHG=-1
M  V30 7 C 0.3002 -0.4302 0.0637 0
M  V30 8 N -0.777 -1.2363 0.2279 0
M  V30 9 C 2.2261 0.3945 -0.1414 0
M  V30 10 N 1.589 -0.7864 0.0564 0
M  V30 11 O 3.4795 0.4887 -0.2115 0
M  V30 12 H -2.9007 -1.2778 0.3299 0
M  V30 13 H -0.6642 -2.2648 0.3702 0
M  V30 14 H 2.0018 -1.7385 0.174 0
M  V30 END ATOM
M  V30 BEGIN BOND
M  V30 1 2 1 2
M  V30 2 1 2 3
M  V30 3 1 2 4
M  V30 4 2 3 5
M  V30 5 1 4 6
M  V30 6 2 4 7
M  V30 7 1 5 8
M  V30 8 1 6 9
M  V30 9 1 7 10
M  V30 10 2 9 11
M  V30 11 1 7 8
M  V30 12 1 9 10
M  V30 13 1 5 12
M  V30 14 1 8 13
M  V30 15 1 10 14
M  V30 END BOND
M  V30 END CTAB
M  END
>  <Structure No>
6976

>  <LogS>
-2.96

>  <MMFF94 Energy>
-42.52

$$$$
Compound 6977
Actelion Java MolfileCreator 2.0

  0  0  0  0  0  0              0 V3000
M  V30 BEGIN CTAB
M  V30 COUNTS 23 23 0 0 0
M  V30 BEGIN ATOM
M  V30 1 O 1.4437 0.0 2.4071 0
M  V30 2 C 1.0404 -0.9788 1.7246 0
M  V30 3 O 0.9723 -2.2386 2.3058 0 CHG=-1
M  V30 4 C 0.5849 -0.7825 0.3076 0 CFG=2
M  V30 5 O 1.4265 0.1543 -0.3682 0
M  V30 6 C -0.8408 -0.289 0.2981 0
M  V30 7 C 2.7546 -0.1149 -0.7172 0
M  V30 8 C -1.1362 1.0582 0.5788 0
M  V30 9 C -1.898 -1.1852 0.0597 0
M  V30 10 O 3.268 -1.2425 -0.4828 0
M  V30 11 C 3.5542 0.9281 -1.4204 0
M  V30 12 C -2.4621 1.5018 0.5962 0
M  V30 13 C -3.2223 -0.7364 0.0781 0
M  V30 14 C -3.5041 0.606 0.3439 0
M  V30 15 H 0.642 -1.7569 -0.2275 0
M  V30 16 H -0.341 1.7635 0.7862 0
M  V30 17 H -1.6983 -2.2307 -0.1391 0
M  V30 18 H 3.1392 1.9346 -1.2023 0
M  V30 19 H 4.61 0.8941 -1.0785 0
M  V30 20 H 3.5164 0.7478 -2.5146 0
M  V30 21 H -2.682 2.5402 0.8087 0
M  V30 22 H -4.0309 -1.4307 -0.1104 0
M  V30 23 H -4.5299 0.9511 0.359 0
M  V30 END ATOM
M  V30 BEGIN BOND
M  V30 1 2 1 2
M  V30 2 1 2 3
M  V30 3 1 2 4
M  V30 4 1 4 5
M  V30 5 1 4 6
M  V30 6 1 5 7
M  V30 7 2 6 8
M  V30 8 1 6 9
M  V30 9 2 7 10
M  V30 10 1 7 11
M  V30 11 1 8 12
M  V30 12 2 9 13
M  V30 13 2 12 14
M  V30 14 1 13 14
M  V30 15 1 4 15
M  V30 16 1 8 16
M  V30 17 1 9 17
M  V30 18 1 11 18
M  V30 19 1 11 19
M  V30 20 1 11 20
M  V30 21 1 12 21
M  V30 22 1 13 22
M  V30 23 1 14 23
M  V30 END BOND
M  V30 BEGIN COLLECTION
M  V30 MDLV30/STEABS ATOMS=(1 4)
M  V30 END COLLECTION
M  V30 END CTAB
M  END
>  <Structure No>
6977

>  <LogS>
-1.23

>  <MMFF94 Energy>
82.663

$$$$
Compound 6978
Actelion Java MolfileCreator 2.0

  0  0  0  0  0  0              0 V3000
M  V30 BEGIN CTAB
M  V30 COUNTS 18 18 0 0 0
M  V30 BEGIN ATOM
M  V30 1 Cl 0.2538 -3.2183 0.6769 0
M  V30 2 C -0.6066 -1.7149 0.3822 0
M  V30 3 C 0.0697 -0.5954 -0.1306 0
M  V30 4 C -1.975 -1.6438 0.6669 0
M  V30 5 O 1.4444 -0.7066 -0.4031 0
M  V30 6 C -0.6498 0.5959 -0.3565 0
M  V30 7 C -2.6789 -0.4589 0.442 0
M  V30 8 C 2.2825 0.349 -0.8723 0
M  V30 9 C -2.0179 0.6607 -0.0694 0
M  V30 10 C 2.5141 1.3581 0.2078 0
M  V30 11 Cl -2.9044 2.148 -0.3522 0
M  V30 12 O 2.4251 2.5884 -0.0443 0
M  V30 13 O 2.8665 0.9413 1.4852 0 CHG=-1
M  V30 14 H -2.4941 -2.5073 1.0631 0
M  V30 15 H -0.162 1.4748 -0.7536 0
M  V30 16 H -3.7373 -0.4124 0.6652 0
M  V30 17 H 3.2634 -0.0815 -1.1612 0
M  V30 18 H 1.8419 0.8192 -1.7778 0
M  V30 END ATOM
M  V30 BEGIN BOND
M  V30 1 1 1 2
M  V30 2 2 2 3
M  V30 3 1 2 4
M  V30 4 1 3 5
M  V30 5 1 3 6
M  V30 6 2 4 7
M  V30 7 1 5 8
M  V30 8 2 6 9
M  V30 9 1 8 10
M  V30 10 1 9 11
M  V30 11 2 10 12
M  V30 12 1 10 13
M  V30 13 1 7 9
M  V30 14 1 4 14
M  V30 15 1 6 15
M  V30 16 1 7 16
M  V30 17 1 8 17
M  V30 18 1 8 18
M  V30 END BOND
M  V30 END CTAB
M  END
>  <Structure No>
6978

>  <LogS>
-2.62

>  <MMFF94 Energy>
76.296

$$$$
Compound 6979
Actelion Java MolfileCreator 2.0

  0  0  0  0  0  0              0 V3000
M  V30 BEGIN CTAB
M  V30 COUNTS 18 18 0 0 0
M  V30 BEGIN ATOM
M  V30 1 Cl -0.7614 2.7938 -0.3383 0
M  V30 2 C -1.0171 1.0548 -0.3621 0
M  V30 3 C 0.0423 0.1624 -0.6192 0
M  V30 4 C -2.3145 0.5624 -0.1771 0
M  V30 5 O 1.3504 0.6275 -0.796 0
M  V30 6 C -0.2212 -1.2136 -0.7238 0
M  V30 7 C -2.5644 -0.8094 -0.2577 0
M  V30 8 C 2.1396 1.1308 0.2805 0
M  V30 9 Cl 1.0721 -2.348 -1.0804 0
M  V30 10 C -1.5216 -1.6953 -0.5362 0
M  V30 11 C 2.562 0.0138 1.1796 0
M  V30 12 O 1.8592 -0.2963 2.1772 0
M  V30 13 O 3.703 -0.7214 0.8854 0 CHG=-1
M  V30 14 H -3.1329 1.2439 0.0183 0
M  V30 15 H -3.5697 -1.1851 -0.1156 0
M  V30 16 H 3.0442 1.6184 -0.1385 0
M  V30 17 H 1.5797 1.8939 0.8606 0
M  V30 18 H -1.725 -2.7562 -0.6079 0
M  V30 END ATOM
M  V30 BEGIN BOND
M  V30 1 1 1 2
M  V30 2 2 2 3
M  V30 3 1 2 4
M  V30 4 1 3 5
M  V30 5 1 3 6
M  V30 6 2 4 7
M  V30 7 1 5 8
M  V30 8 1 6 9
M  V30 9 2 6 10
M  V30 10 1 8 11
M  V30 11 2 11 12
M  V30 12 1 11 13
M  V30 13 1 7 10
M  V30 14 1 4 14
M  V30 15 1 7 15
M  V30 16 1 8 16
M  V30 17 1 8 17
M  V30 18 1 10 18
M  V30 END BOND
M  V30 END CTAB
M  END
>  <Structure No>
6979

>  <LogS>
-2.15

>  <MMFF94 Energy>
93.123

$$$$
Compound 6980
Actelion Java MolfileCreator 2.0

  0  0  0  0  0  0              0 V3000
M  V30 BEGIN CTAB
M  V30 COUNTS 21 22 0 0 0
M  V30 BEGIN ATOM
M  V30 1 N 0.2373 -1.9 -0.5538 0
M  V30 2 C -0.0209 -0.6048 -0.1975 0
M  V30 3 C 1.5185 -2.3747 -0.6666 0
M  V30 4 N -1.3788 -0.1419 -0.0895 0
M  V30 5 C 1.081 0.2125 0.0662 0
M  V30 6 N 2.585 -1.5595 -0.411 0
M  V30 7 C -1.7914 1.1519 -0.6368 0
M  V30 8 C -2.3782 -1.0082 0.5352 0
M  V30 9 N 1.1469 1.4765 0.5065 0
M  V30 10 C 2.3382 -0.2779 -0.0502 0
M  V30 11 C 2.4777 1.7111 0.6254 0
M  V30 12 N 3.2528 0.644 0.2927 0
M  V30 13 H 1.6861 -3.4035 -0.9541 0
M  V30 14 H -2.03 1.8504 0.1924 0
M  V30 15 H -0.9941 1.5904 -1.2739 0
M  V30 16 H -2.6938 1.0218 -1.2708 0
M  V30 17 H -2.0586 -1.2631 1.5679 0
M  V30 18 H -3.3669 -0.5036 0.589 0
M  V30 19 H -2.4907 -1.9419 -0.055 0
M  V30 20 H 0.3691 2.1307 0.7414 0
M  V30 21 H 2.8849 2.6527 0.9694 0
M  V30 END ATOM
M  V30 BEGIN BOND
M  V30 1 2 1 2
M  V30 2 1 1 3
M  V30 3 1 2 4
M  V30 4 1 2 5
M  V30 5 2 3 6
M  V30 6 1 4 7
M  V30 7 1 4 8
M  V30 8 1 5 9
M  V30 9 2 5 10
M  V30 10 1 9 11
M  V30 11 1 10 12
M  V30 12 1 6 10
M  V30 13 2 11 12
M  V30 14 1 3 13
M  V30 15 1 7 14
M  V30 16 1 7 15
M  V30 17 1 7 16
M  V30 18 1 8 17
M  V30 19 1 8 18
M  V30 20 1 8 19
M  V30 21 1 9 20
M  V30 22 1 11 21
M  V30 END BOND
M  V30 END CTAB
M  END
>  <Structure No>
6980

>  <LogS>
-1.3

>  <MMFF94 Energy>
-63.581

$$$$
Compound 6981
Actelion Java MolfileCreator 2.0

  0  0  0  0  0  0              0 V3000
M  V30 BEGIN CTAB
M  V30 COUNTS 31 31 0 0 0
M  V30 BEGIN ATOM
M  V30 1 O 1.2625 -1.1836 -0.3155 0
M  V30 2 C 1.9009 -0.0974 -0.2529 0
M  V30 3 N 1.2098 1.142 -0.4752 0
M  V30 4 C 3.3606 -0.1211 0.0081 0
M  V30 5 N -0.1931 1.2347 -0.4407 0
M  V30 6 C 4.0394 1.0314 0.441 0
M  V30 7 C 4.09 -1.3117 -0.1534 0
M  V30 8 C -0.9817 0.6236 0.5906 0
M  V30 9 C 5.4136 0.9745 0.6854 0
M  V30 10 C 5.4634 -1.3233 0.1013 0
M  V30 11 O -0.4254 0.0821 1.5838 0
M  V30 12 C -2.4771 0.614 0.4865 0
M  V30 13 N 6.091 -0.1902 0.5111 0
M  V30 14 C -2.9403 -0.5389 -0.4128 0
M  V30 15 C -4.4575 -0.5259 -0.6538 0
M  V30 16 C -5.2571 -0.911 0.5904 0
M  V30 17 H 1.743 1.9454 -0.8758 0
M  V30 18 H -0.664 1.8876 -1.1064 0
M  V30 19 H 3.5165 1.9636 0.6089 0
M  V30 20 H 3.606 -2.2231 -0.4819 0
M  V30 21 H 5.9416 1.8576 1.0197 0
M  V30 22 H 6.0308 -2.2353 -0.0267 0
M  V30 23 H -2.8213 1.5845 0.0684 0
M  V30 24 H -2.9106 0.5045 1.5033 0
M  V30 25 H -2.6374 -1.512 0.0326 0
M  V30 26 H -2.4359 -0.4492 -1.4002 0
M  V30 27 H -4.7805 0.4766 -1.0092 0
M  V30 28 H -4.6911 -1.2579 -1.4572 0
M  V30 29 H -5.1577 -0.1353 1.3776 0
M  V30 30 H -6.3319 -0.9976 0.3256 0
M  V30 31 H -4.9116 -1.8889 0.9876 0
M  V30 END ATOM
M  V30 BEGIN BOND
M  V30 1 2 1 2
M  V30 2 1 2 3
M  V30 3 1 2 4
M  V30 4 1 3 5
M  V30 5 2 4 6
M  V30 6 1 4 7
M  V30 7 1 5 8
M  V30 8 1 6 9
M  V30 9 2 7 10
M  V30 10 2 8 11
M  V30 11 1 8 12
M  V30 12 2 9 13
M  V30 13 1 12 14
M  V30 14 1 14 15
M  V30 15 1 15 16
M  V30 16 1 10 13
M  V30 17 1 3 17
M  V30 18 1 5 18
M  V30 19 1 6 19
M  V30 20 1 7 20
M  V30 21 1 9 21
M  V30 22 1 10 22
M  V30 23 1 12 23
M  V30 24 1 12 24
M  V30 25 1 14 25
M  V30 26 1 14 26
M  V30 27 1 15 27
M  V30 28 1 15 28
M  V30 29 1 16 29
M  V30 30 1 16 30
M  V30 31 1 16 31
M  V30 END BOND
M  V30 END CTAB
M  END
>  <Structure No>
6981

>  <LogS>
-1.01

>  <MMFF94 Energy>
26.458

$$$$
Compound 6982
Actelion Java MolfileCreator 2.0

  0  0  0  0  0  0              0 V3000
M  V30 BEGIN CTAB
M  V30 COUNTS 23 23 0 0 0
M  V30 BEGIN ATOM
M  V30 1 F 3.3478 2.6297 0.3184 0
M  V30 2 C 2.7888 1.4021 0.1697 0
M  V30 3 C 1.5216 1.2546 -0.3958 0
M  V30 4 C 3.4727 0.2657 0.5854 0
M  V30 5 O 0.8895 2.2823 -0.7666 0
M  V30 6 N 0.9701 0.0071 -0.5326 0
M  V30 7 N 2.9087 -0.9584 0.4303 0
M  V30 8 C 1.6746 -1.0985 -0.1273 0
M  V30 9 C -0.3387 -0.1362 -1.1169 0
M  V30 10 O 1.1964 -2.2564 -0.2817 0
M  V30 11 O -0.5489 0.2789 -2.2887 0
M  V30 12 C -1.4832 -0.6836 -0.3131 0
M  V30 13 C -2.2888 0.4599 0.3094 0
M  V30 14 C -3.4574 -0.0731 1.1332 0
M  V30 15 H 4.4564 0.3575 1.0286 0
M  V30 16 H 3.4392 -1.8042 0.7397 0
M  V30 17 H -1.1016 -1.3452 0.4932 0
M  V30 18 H -2.1378 -1.2899 -0.9765 0
M  V30 19 H -2.6859 1.12 -0.4926 0
M  V30 20 H -1.6297 1.0656 0.9695 0
M  V30 21 H -3.0855 -0.7148 1.9603 0
M  V30 22 H -4.1447 -0.6637 0.4906 0
M  V30 23 H -4.0225 0.7769 1.5702 0
M  V30 END ATOM
M  V30 BEGIN BOND
M  V30 1 1 1 2
M  V30 2 1 2 3
M  V30 3 2 2 4
M  V30 4 2 3 5
M  V30 5 1 3 6
M  V30 6 1 4 7
M  V30 7 1 6 8
M  V30 8 1 6 9
M  V30 9 2 8 10
M  V30 10 2 9 11
M  V30 11 1 9 12
M  V30 12 1 12 13
M  V30 13 1 13 14
M  V30 14 1 7 8
M  V30 15 1 4 15
M  V30 16 1 7 16
M  V30 17 1 12 17
M  V30 18 1 12 18
M  V30 19 1 13 19
M  V30 20 1 13 20
M  V30 21 1 14 21
M  V30 22 1 14 22
M  V30 23 1 14 23
M  V30 END BOND
M  V30 END CTAB
M  END
>  <Structure No>
6982

>  <LogS>
-1.28

>  <MMFF94 Energy>
-50.355

$$$$
Compound 6983
Actelion Java MolfileCreator 2.0

  0  0  0  0  0  0              0 V3000
M  V30 BEGIN CTAB
M  V30 COUNTS 28 28 0 0 0
M  V30 BEGIN ATOM
M  V30 1 O 3.0048 0.9481 1.3434 0
M  V30 2 C 3.217 0.4947 0.1859 0
M  V30 3 O 2.2128 -0.1783 -0.5221 0
M  V30 4 C 4.5915 0.5759 -0.3971 0
M  V30 5 C 0.8411 -0.1277 -0.232 0
M  V30 6 C 5.3982 -0.6677 -0.0437 0
M  V30 7 C 0.2383 0.9939 0.3658 0
M  V30 8 C 0.0446 -1.2225 -0.5854 0
M  V30 9 C -1.1357 1.0016 0.6242 0
M  V30 10 C -1.3293 -1.2156 -0.3274 0
M  V30 11 C -1.9343 -0.0946 0.2679 0
M  V30 12 N -3.3411 -0.0687 0.5662 0
M  V30 13 C -4.3477 -0.7049 -0.2361 0
M  V30 14 O -4.0789 -1.1199 -1.3957 0
M  V30 15 C -5.7531 -0.7891 0.2636 0
M  V30 16 H 4.5173 0.6659 -1.502 0
M  V30 17 H 5.1125 1.4783 -0.01 0
M  V30 18 H 5.4992 -0.7617 1.0588 0
M  V30 19 H 6.4128 -0.5911 -0.4882 0
M  V30 20 H 4.9016 -1.5769 -0.4457 0
M  V30 21 H 0.8172 1.8742 0.6084 0
M  V30 22 H 0.4967 -2.0911 -1.0474 0
M  V30 23 H -1.5836 1.8725 1.0866 0
M  V30 24 H -1.9093 -2.0955 -0.5711 0
M  V30 25 H -3.6618 0.5168 1.3709 0
M  V30 26 H -6.2673 0.1779 0.0852 0
M  V30 27 H -6.3028 -1.5976 -0.2633 0
M  V30 28 H -5.7549 -1.0092 1.3519 0
M  V30 END ATOM
M  V30 BEGIN BOND
M  V30 1 2 1 2
M  V30 2 1 2 3
M  V30 3 1 2 4
M  V30 4 1 3 5
M  V30 5 1 4 6
M  V30 6 2 5 7
M  V30 7 1 5 8
M  V30 8 1 7 9
M  V30 9 2 8 10
M  V30 10 2 9 11
M  V30 11 1 11 12
M  V30 12 1 12 13
M  V30 13 2 13 14
M  V30 14 1 13 15
M  V30 15 1 10 11
M  V30 16 1 4 16
M  V30 17 1 4 17
M  V30 18 1 6 18
M  V30 19 1 6 19
M  V30 20 1 6 20
M  V30 21 1 7 21
M  V30 22 1 8 22
M  V30 23 1 9 23
M  V30 24 1 10 24
M  V30 25 1 12 25
M  V30 26 1 15 26
M  V30 27 1 15 27
M  V30 28 1 15 28
M  V30 END BOND
M  V30 END CTAB
M  END
>  <Structure No>
6983

>  <LogS>
-2.72

>  <MMFF94 Energy>
6.4746

$$$$
Compound 6984
Actelion Java MolfileCreator 2.0

  0  0  0  0  0  0              0 V3000
M  V30 BEGIN CTAB
M  V30 COUNTS 22 22 0 0 0
M  V30 BEGIN ATOM
M  V30 1 S -2.1154 1.1386 0.4878 0
M  V30 2 O -2.7022 1.6212 -0.8098 0
M  V30 3 O -2.172 2.2617 1.4852 0
M  V30 4 N -3.033 -0.2051 1.0839 0
M  V30 5 C -0.439 0.6551 0.2458 0
M  V30 6 N -2.9442 -1.2393 0.1351 0
M  V30 7 C 0.4577 0.669 1.3222 0
M  V30 8 C -0.0013 0.2238 -1.0138 0
M  V30 9 C 1.7855 0.2718 1.1377 0
M  V30 10 C 1.3261 -0.1737 -1.1994 0
M  V30 11 C 2.2322 -0.1361 -0.1284 0
M  V30 12 C 3.6456 -0.6008 -0.3175 0
M  V30 13 H -4.0326 0.0999 1.1563 0
M  V30 14 H -3.6041 -1.0336 -0.652 0
M  V30 15 H -3.2862 -2.1108 0.5996 0
M  V30 16 H 0.1282 0.9813 2.3052 0
M  V30 17 H -0.6876 0.1878 -1.8503 0
M  V30 18 H 2.4641 0.2813 1.9819 0
M  V30 19 H 1.6465 -0.5118 -2.177 0
M  V30 20 H 3.7048 -1.6917 -0.1213 0
M  V30 21 H 3.9884 -0.3998 -1.3549 0
M  V30 22 H 4.3291 -0.0695 0.3786 0
M  V30 END ATOM
M  V30 BEGIN BOND
M  V30 1 2 1 2
M  V30 2 2 1 3
M  V30 3 1 1 4
M  V30 4 1 1 5
M  V30 5 1 4 6
M  V30 6 2 5 7
M  V30 7 1 5 8
M  V30 8 1 7 9
M  V30 9 2 8 10
M  V30 10 2 9 11
M  V30 11 1 11 12
M  V30 12 1 10 11
M  V30 13 1 4 13
M  V30 14 1 6 14
M  V30 15 1 6 15
M  V30 16 1 7 16
M  V30 17 1 8 17
M  V30 18 1 9 18
M  V30 19 1 10 19
M  V30 20 1 12 20
M  V30 21 1 12 21
M  V30 22 1 12 22
M  V30 END BOND
M  V30 END CTAB
M  END
>  <Structure No>
6984

>  <LogS>
-1.48

>  <MMFF94 Energy>
88.79

$$$$
Compound 6985
Actelion Java MolfileCreator 2.0

  0  0  0  0  0  0              0 V3000
M  V30 BEGIN CTAB
M  V30 COUNTS 21 21 0 0 0
M  V30 BEGIN ATOM
M  V30 1 Cl -4.2274 -1.7391 1.6562 0
M  V30 2 C -2.867 -0.9378 0.8926 0
M  V30 3 S -1.3086 -1.5598 0.8144 0
M  V30 4 C -2.8817 0.299 0.2533 0
M  V30 5 C -0.7136 -0.2244 -0.0297 0
M  V30 6 N -1.6831 0.6892 -0.2587 0
M  V30 7 C -4.1065 1.1458 0.1242 0
M  V30 8 N 0.6351 -0.0392 -0.4854 0
M  V30 9 C 1.7241 -0.9441 -0.2384 0
M  V30 10 O 1.5692 -1.9647 0.4842 0
M  V30 11 C 3.0818 -0.6481 -0.8007 0
M  V30 12 C 3.84 0.3143 0.1055 0
M  V30 13 H -4.4956 1.3981 1.1329 0
M  V30 14 H -4.8851 0.5939 -0.4426 0
M  V30 15 H -3.8703 2.0876 -0.4144 0
M  V30 16 H 0.8358 0.8255 -1.0364 0
M  V30 17 H 3.6613 -1.5913 -0.9027 0
M  V30 18 H 2.9776 -0.2 -1.8121 0
M  V30 19 H 3.9709 -0.1295 1.1156 0
M  V30 20 H 3.2893 1.2751 0.1957 0
M  V30 21 H 4.8425 0.519 -0.3255 0
M  V30 END ATOM
M  V30 BEGIN BOND
M  V30 1 1 1 2
M  V30 2 1 2 3
M  V30 3 2 2 4
M  V30 4 1 3 5
M  V30 5 1 4 6
M  V30 6 1 4 7
M  V30 7 1 5 8
M  V30 8 1 8 9
M  V30 9 2 9 10
M  V30 10 1 9 11
M  V30 11 1 11 12
M  V30 12 2 5 6
M  V30 13 1 7 13
M  V30 14 1 7 14
M  V30 15 1 7 15
M  V30 16 1 8 16
M  V30 17 1 11 17
M  V30 18 1 11 18
M  V30 19 1 12 19
M  V30 20 1 12 20
M  V30 21 1 12 21
M  V30 END BOND
M  V30 END CTAB
M  END
>  <Structure No>
6985

>  <LogS>
-3.06

>  <MMFF94 Energy>
-44.619

$$$$
Compound 6986
Actelion Java MolfileCreator 2.0

  0  0  0  0  0  0              0 V3000
M  V30 BEGIN CTAB
M  V30 COUNTS 68 71 0 0 0
M  V30 BEGIN ATOM
M  V30 1 O 6.7974 3.2325 0.6458 0
M  V30 2 C 6.9021 2.0162 0.3295 0
M  V30 3 O 7.8915 1.6177 -0.5631 0 CHG=-1
M  V30 4 C 5.9454 1.0077 0.8867 0
M  V30 5 C 4.9551 0.5422 -0.1953 0
M  V30 6 C 3.7396 -0.2622 0.355 0 CFG=1
M  V30 7 C 2.7916 -0.7329 -0.8149 0 CFG=1
M  V30 8 C 4.2387 -1.4692 1.1768 0
M  V30 9 C 1.3683 -1.3263 -0.4659 0 CFG=2
M  V30 10 C 2.4983 0.3704 -1.8372 0
M  V30 11 C 0.4513 -0.8871 -1.6655 0 CFG=2
M  V30 12 C 0.8095 -0.8079 0.8856 0
M  V30 13 C 1.4331 -2.8783 -0.4238 0
M  V30 14 C 1.3585 -0.1731 -2.665 0
M  V30 15 C -0.889 -0.1473 -1.3027 0 CFG=2
M  V30 16 C -0.6924 -1.0675 1.1019 0
M  V30 17 C -0.8612 1.3876 -0.9851 0 CFG=1
M  V30 18 C -1.5955 -0.9478 -0.1688 0 CFG=1
M  V30 19 O -0.3781 2.1099 -2.0869 0
M  V30 20 C -2.2814 1.9275 -0.6614 0 CFG=2
M  V30 21 C -3.0535 -0.4157 0.119 0 CFG=2
M  V30 22 O -2.2056 3.2875 -0.306 0
M  V30 23 C -2.9818 1.1106 0.4554 0 CFG=2
M  V30 24 C -3.6969 -1.1664 1.3321 0
M  V30 25 C -3.947 -0.7063 -1.1322 0
M  V30 26 C -4.372 1.6813 0.8145 0
M  V30 27 C -5.0579 -0.582 1.7576 0
M  V30 28 C -4.9793 0.9306 2.0149 0 CFG=2
M  V30 29 O -6.2708 1.4162 2.2755 0
M  V30 30 H 6.5403 0.1464 1.2564 0
M  V30 31 H 5.3922 1.4525 1.7428 0
M  V30 32 H 4.5784 1.4577 -0.6999 0
M  V30 33 H 5.4991 -0.0684 -0.95 0
M  V30 34 H 3.1944 0.4204 1.0378 0
M  V30 35 H 3.3638 -1.505 -1.3809 0
M  V30 36 H 3.4076 -2.0389 1.6229 0
M  V30 37 H 4.8479 -1.1369 2.0421 0
M  V30 38 H 4.8456 -2.152 0.5433 0
M  V30 39 H 2.1811 1.3047 -1.3235 0
M  V30 40 H 3.3738 0.5768 -2.4905 0
M  V30 41 H 0.1087 -1.8043 -2.2034 0
M  V30 42 H 1.0015 0.2744 0.9879 0
M  V30 43 H 1.3468 -1.2732 1.736 0
M  V30 44 H 0.4208 -3.3105 -0.2757 0
M  V30 45 H 2.0771 -3.2493 0.3931 0
M  V30 46 H 1.8304 -3.2823 -1.38 0
M  V30 47 H 0.8641 0.5886 -3.2939 0
M  V30 48 H 1.7784 -0.9236 -3.3741 0
M  V30 49 H -1.4939 -0.2414 -2.228 0
M  V30 50 H -0.8179 -2.0874 1.5279 0
M  V30 51 H -1.0046 -0.3654 1.8981 0
M  V30 52 H -0.2163 1.5819 -0.108 0
M  V30 53 H -1.7105 -1.9893 -0.5488 0
M  V30 54 H 0.0291 2.9462 -1.74 0
M  V30 55 H -2.8939 1.8756 -1.5845 0
M  V30 56 H -1.6604 3.3551 0.5205 0
M  V30 57 H -2.364 1.245 1.3685 0
M  V30 58 H -3.0458 -1.1229 2.2273 0
M  V30 59 H -3.8262 -2.2434 1.0874 0
M  V30 60 H -3.9378 -1.7923 -1.3667 0
M  V30 61 H -3.625 -0.1693 -2.0411 0
M  V30 62 H -5.0033 -0.4173 -0.9842 0
M  V30 63 H -5.0579 1.6418 -0.0574 0
M  V30 64 H -4.2711 2.7521 1.0971 0
M  V30 65 H -5.381 -1.0857 2.6952 0
M  V30 66 H -5.8391 -0.8055 1.0024 0
M  V30 67 H -4.3317 1.0945 2.9092 0
M  V30 68 H -6.1625 2.2893 2.7336 0
M  V30 END ATOM
M  V30 BEGIN BOND
M  V30 1 2 1 2
M  V30 2 1 2 3
M  V30 3 1 2 4
M  V30 4 1 4 5
M  V30 5 1 5 6
M  V30 6 1 6 7
M  V30 7 1 6 8
M  V30 8 1 7 9
M  V30 9 1 7 10
M  V30 10 1 9 11
M  V30 11 1 9 12
M  V30 12 1 9 13
M  V30 13 1 10 14
M  V30 14 1 11 15
M  V30 15 1 12 16
M  V30 16 1 15 17
M  V30 17 1 15 18
M  V30 18 1 17 19
M  V30 19 1 17 20
M  V30 20 1 18 21
M  V30 21 1 20 22
M  V30 22 1 20 23
M  V30 23 1 21 24
M  V30 24 1 21 25
M  V30 25 1 23 26
M  V30 26 1 24 27
M  V30 27 1 26 28
M  V30 28 1 28 29
M  V30 29 1 11 14
M  V30 30 1 16 18
M  V30 31 1 21 23
M  V30 32 1 27 28
M  V30 33 1 4 30
M  V30 34 1 4 31
M  V30 35 1 5 32
M  V30 36 1 5 33
M  V30 37 1 6 34
M  V30 38 1 7 35
M  V30 39 1 8 36
M  V30 40 1 8 37
M  V30 41 1 8 38
M  V30 42 1 10 39
M  V30 43 1 10 40
M  V30 44 1 11 41
M  V30 45 1 12 42
M  V30 46 1 12 43
M  V30 47 1 13 44
M  V30 48 1 13 45
M  V30 49 1 13 46
M  V30 50 1 14 47
M  V30 51 1 14 48
M  V30 52 1 15 49
M  V30 53 1 16 50
M  V30 54 1 16 51
M  V30 55 1 17 52
M  V30 56 1 18 53
M  V30 57 1 19 54
M  V30 58 1 20 55
M  V30 59 1 22 56
M  V30 60 1 23 57
M  V30 61 1 24 58
M  V30 62 1 24 59
M  V30 63 1 25 60
M  V30 64 1 25 61
M  V30 65 1 25 62
M  V30 66 1 26 63
M  V30 67 1 26 64
M  V30 68 1 27 65
M  V30 69 1 27 66
M  V30 70 1 28 67
M  V30 71 1 29 68
M  V30 END BOND
M  V30 BEGIN COLLECTION
M  V30 MDLV30/STEABS ATOMS=(11 6 7 9 11 15 17 18 20 21 23 28)
M  V30 END COLLECTION
M  V30 END CTAB
M  END
>  <Structure No>
6986

>  <LogS>
-4.35

>  <MMFF94 Energy>
129.52

$$$$
Compound 6987
Actelion Java MolfileCreator 2.0

  0  0  0  0  0  0              0 V3000
M  V30 BEGIN CTAB
M  V30 COUNTS 14 15 0 0 0
M  V30 BEGIN ATOM
M  V30 1 Cl -3.9358 1.3385 1.0875 0
M  V30 2 C -2.4422 0.6289 0.5146 0
M  V30 3 N -1.2507 1.087 0.9842 0
M  V30 4 N -2.4773 -0.3793 -0.3987 0
M  V30 5 C -0.0833 0.5471 0.5497 0
M  V30 6 C -1.3326 -0.9486 -0.8608 0
M  V30 7 N 1.1074 1.0034 1.0176 0
M  V30 8 C -0.1011 -0.4938 -0.3924 0
M  V30 9 C 2.2796 0.4653 0.5851 0
M  V30 10 N 1.0697 -1.0313 -0.8243 0
M  V30 11 C 2.2603 -0.5719 -0.3539 0
M  V30 12 H -1.3848 -1.7492 -1.5872 0
M  V30 13 H 3.22 0.8395 0.9671 0
M  V30 14 H 3.1855 -1.0082 -0.7056 0
M  V30 END ATOM
M  V30 BEGIN BOND
M  V30 1 1 1 2
M  V30 2 2 2 3
M  V30 3 1 2 4
M  V30 4 1 3 5
M  V30 5 2 4 6
M  V30 6 2 5 7
M  V30 7 1 5 8
M  V30 8 1 7 9
M  V30 9 2 8 10
M  V30 10 2 9 11
M  V30 11 1 6 8
M  V30 12 1 10 11
M  V30 13 1 6 12
M  V30 14 1 9 13
M  V30 15 1 11 14
M  V30 END BOND
M  V30 END CTAB
M  END
>  <Structure No>
6987

>  <LogS>
-0.71

>  <MMFF94 Energy>
48.372

$$$$
Compound 6988
Actelion Java MolfileCreator 2.0

  0  0  0  0  0  0              0 V3000
M  V30 BEGIN CTAB
M  V30 COUNTS 57 60 0 0 0
M  V30 BEGIN ATOM
M  V30 1 O -6.9605 1.8579 -1.0498 0
M  V30 2 C -5.7494 1.5539 -0.8857 0
M  V30 3 C -5.3634 0.1453 -0.7386 0
M  V30 4 C -4.7016 2.6185 -0.9173 0
M  V30 5 C -4.0902 -0.218 -0.5016 0
M  V30 6 C -3.5052 2.2107 -0.0571 0
M  V30 7 C -2.9596 0.8117 -0.4544 0 CFG=1
M  V30 8 C -3.7412 -1.6811 -0.547 0
M  V30 9 C -1.8127 0.3585 0.5119 0 CFG=1
M  V30 10 C -2.6634 -2.0121 0.4769 0
M  V30 11 C -1.4166 -1.1235 0.2736 0 CFG=2
M  V30 12 C -0.5642 1.2442 0.3469 0
M  V30 13 C -0.2603 -1.6041 1.2128 0 CFG=2
M  V30 14 C 0.5064 0.8719 1.3685 0
M  V30 15 C 0.9298 -0.617 1.3301 0 CFG=2
M  V30 16 C 0.3912 -2.8885 0.6535 0
M  V30 17 C 1.7941 -0.9528 0.0982 0 CFG=2
M  V30 18 C 1.718 -0.9104 2.6385 0
M  V30 19 C 1.6603 -2.4643 -0.0905 0
M  V30 20 O 3.1555 -0.5598 0.2817 0
M  V30 21 C 4.1 -0.56 -0.7492 0
M  V30 22 O 3.7844 -0.9278 -1.9137 0
M  V30 23 C 5.4926 -0.0873 -0.468 0
M  V30 24 C 5.5238 1.4098 -0.1356 0
M  V30 25 C 5.1437 2.2789 -1.334 0
M  V30 26 H -6.1375 -0.6072 -0.8366 0
M  V30 27 H -5.1208 3.5748 -0.5353 0
M  V30 28 H -4.374 2.7719 -1.9681 0
M  V30 29 H -3.8101 2.2078 1.0131 0
M  V30 30 H -2.7308 2.9913 -0.1943 0
M  V30 31 H -2.5441 0.883 -1.4845 0
M  V30 32 H -4.6302 -2.3152 -0.3334 0
M  V30 33 H -3.379 -1.9337 -1.5671 0
M  V30 34 H -2.1786 0.4587 1.5599 0
M  V30 35 H -3.072 -1.8678 1.5022 0
M  V30 36 H -2.4147 -3.0876 0.3723 0
M  V30 37 H -1.0783 -1.2227 -0.784 0
M  V30 38 H -0.8096 2.3086 0.5289 0
M  V30 39 H -0.1681 1.172 -0.6877 0
M  V30 40 H -0.6901 -1.8029 2.2215 0
M  V30 41 H 0.1077 1.1209 2.3781 0
M  V30 42 H 1.3981 1.5169 1.2053 0
M  V30 43 H -0.2691 -3.4619 -0.0291 0
M  V30 44 H 0.6617 -3.5617 1.4965 0
M  V30 45 H 1.3861 -0.4482 -0.804 0
M  V30 46 H 1.0586 -0.7979 3.5261 0
M  V30 47 H 2.1311 -1.9408 2.6493 0
M  V30 48 H 2.5655 -0.2009 2.7563 0
M  V30 49 H 2.5416 -2.9936 0.3347 0
M  V30 50 H 1.585 -2.7131 -1.1718 0
M  V30 51 H 6.155 -0.2974 -1.3362 0
M  V30 52 H 5.8866 -0.6566 0.4006 0
M  V30 53 H 4.8373 1.6265 0.7123 0
M  V30 54 H 6.5528 1.6808 0.1852 0
M  V30 55 H 5.82 2.0731 -2.1906 0
M  V30 56 H 5.2361 3.3506 -1.0583 0
M  V30 57 H 4.0936 2.085 -1.639 0
M  V30 END ATOM
M  V30 BEGIN BOND
M  V30 1 2 1 2
M  V30 2 1 2 3
M  V30 3 1 2 4
M  V30 4 2 3 5
M  V30 5 1 4 6
M  V30 6 1 5 7
M  V30 7 1 5 8
M  V30 8 1 7 9
M  V30 9 1 8 10
M  V30 10 1 9 11
M  V30 11 1 9 12
M  V30 12 1 11 13
M  V30 13 1 12 14
M  V30 14 1 13 15
M  V30 15 1 13 16
M  V30 16 1 15 17
M  V30 17 1 15 18
M  V30 18 1 16 19
M  V30 19 1 17 20
M  V30 20 1 20 21
M  V30 21 2 21 22
M  V30 22 1 21 23
M  V30 23 1 23 24
M  V30 24 1 24 25
M  V30 25 1 6 7
M  V30 26 1 10 11
M  V30 27 1 14 15
M  V30 28 1 17 19
M  V30 29 1 3 26
M  V30 30 1 4 27
M  V30 31 1 4 28
M  V30 32 1 6 29
M  V30 33 1 6 30
M  V30 34 1 7 31
M  V30 35 1 8 32
M  V30 36 1 8 33
M  V30 37 1 9 34
M  V30 38 1 10 35
M  V30 39 1 10 36
M  V30 40 1 11 37
M  V30 41 1 12 38
M  V30 42 1 12 39
M  V30 43 1 13 40
M  V30 44 1 14 41
M  V30 45 1 14 42
M  V30 46 1 16 43
M  V30 47 1 16 44
M  V30 48 1 17 45
M  V30 49 1 18 46
M  V30 50 1 18 47
M  V30 51 1 18 48
M  V30 52 1 19 49
M  V30 53 1 19 50
M  V30 54 1 23 51
M  V30 55 1 23 52
M  V30 56 1 24 53
M  V30 57 1 24 54
M  V30 58 1 25 55
M  V30 59 1 25 56
M  V30 60 1 25 57
M  V30 END BOND
M  V30 BEGIN COLLECTION
M  V30 MDLV30/STEABS ATOMS=(6 7 9 11 13 15 17)
M  V30 END COLLECTION
M  V30 END CTAB
M  END
>  <Structure No>
6988

>  <LogS>
-5.91

>  <MMFF94 Energy>
47.679

$$$$
Compound 6989
Actelion Java MolfileCreator 2.0

  0  0  0  0  0  0              0 V3000
M  V30 BEGIN CTAB
M  V30 COUNTS 63 66 0 0 0
M  V30 BEGIN ATOM
M  V30 1 O -6.9492 -0.2418 -0.403 0
M  V30 2 C -5.9708 -0.3778 0.3166 0
M  V30 3 C -4.6092 -0.7179 -0.2015 0 CFG=2
M  V30 4 C -6.0412 -0.2497 1.7867 0
M  V30 5 C -3.6956 -0.5939 1.0584 0 CFG=2
M  V30 6 C -4.2124 0.2421 -1.3412 0
M  V30 7 C -4.6314 -2.1781 -0.7102 0
M  V30 8 C -4.6716 -0.7198 2.2599 0
M  V30 9 C -2.8374 0.7227 1.1511 0 CFG=2
M  V30 10 C -2.6992 0.3857 -1.417 0
M  V30 11 C -2.1768 1.2034 -0.2154 0 CFG=2
M  V30 12 C -1.8 0.5852 2.3002 0
M  V30 13 C -0.5917 1.3604 -0.187 0 CFG=1
M  V30 14 C -0.5559 -0.0976 1.829 0
M  V30 15 C 0.0276 0.2646 0.6776 0
M  V30 16 C 0.0527 1.2827 -1.6117 0
M  V30 17 C -0.2313 2.7544 0.4025 0
M  V30 18 C 1.2475 -0.4858 0.1896 0
M  V30 19 C 1.594 1.3349 -1.594 0
M  V30 20 C 2.2403 0.4775 -0.4738 0 CFG=2
M  V30 21 O 3.3309 -0.282 -0.9934 0
M  V30 22 C 4.5535 0.2801 -1.3741 0
M  V30 23 O 4.7482 1.5224 -1.2829 0
M  V30 24 C 5.6419 -0.6097 -1.8909 0
M  V30 25 C 6.0453 -1.6801 -0.8633 0
M  V30 26 C 6.6016 -1.1088 0.4535 0
M  V30 27 C 7.9435 -0.3985 0.2731 0
M  V30 28 H -6.8483 -0.8904 2.2043 0
M  V30 29 H -6.2117 0.8145 2.0595 0
M  V30 30 H -2.982 -1.4492 1.0862 0
M  V30 31 H -4.6612 1.2498 -1.1839 0
M  V30 32 H -4.5987 -0.1272 -2.3173 0
M  V30 33 H -4.9259 -2.8736 0.1058 0
M  V30 34 H -5.3613 -2.2949 -1.5417 0
M  V30 35 H -3.6291 -2.4818 -1.0778 0
M  V30 36 H -4.74 -1.7903 2.5575 0
M  V30 37 H -4.373 -0.1367 3.1555 0
M  V30 38 H -3.5402 1.5303 1.4582 0
M  V30 39 H -2.4686 0.9127 -2.3681 0
M  V30 40 H -2.2177 -0.6154 -1.4422 0
M  V30 41 H -2.5779 2.2277 -0.4007 0
M  V30 42 H -1.5457 1.5777 2.7194 0
M  V30 43 H -2.1959 0.0088 3.1599 0
M  V30 44 H -0.1558 -0.9196 2.4168 0
M  V30 45 H -0.2121 0.324 -2.1046 0
M  V30 46 H -0.3341 2.1006 -2.2588 0
M  V30 47 H -0.8326 3.0141 1.293 0
M  V30 48 H -0.4226 3.5557 -0.3431 0
M  V30 49 H 0.8353 2.8048 0.7006 0
M  V30 50 H 0.9282 -1.2629 -0.5379 0
M  V30 51 H 1.7626 -0.9985 1.0322 0
M  V30 52 H 1.9246 2.3896 -1.4791 0
M  V30 53 H 1.9598 0.9989 -2.5883 0
M  V30 54 H 2.6243 1.1537 0.323 0
M  V30 55 H 5.2679 -1.1183 -2.8054 0
M  V30 56 H 6.527 -0.0088 -2.1923 0
M  V30 57 H 5.1576 -2.3077 -0.628 0
M  V30 58 H 6.8031 -2.3508 -1.3221 0
M  V30 59 H 5.8697 -0.4113 0.915 0
M  V30 60 H 6.7473 -1.9517 1.1648 0
M  V30 61 H 8.6723 -1.0651 -0.2357 0
M  V30 62 H 7.8185 0.5347 -0.3162 0
M  V30 63 H 8.3531 -0.1271 1.2694 0
M  V30 END ATOM
M  V30 BEGIN BOND
M  V30 1 2 1 2
M  V30 2 1 2 3
M  V30 3 1 2 4
M  V30 4 1 3 5
M  V30 5 1 3 6
M  V30 6 1 3 7
M  V30 7 1 4 8
M  V30 8 1 5 9
M  V30 9 1 6 10
M  V30 10 1 9 11
M  V30 11 1 9 12
M  V30 12 1 11 13
M  V30 13 1 12 14
M  V30 14 1 13 15
M  V30 15 1 13 16
M  V30 16 1 13 17
M  V30 17 1 15 18
M  V30 18 1 16 19
M  V30 19 1 18 20
M  V30 20 1 20 21
M  V30 21 1 21 22
M  V30 22 2 22 23
M  V30 23 1 22 24
M  V30 24 1 24 25
M  V30 25 1 25 26
M  V30 26 1 26 27
M  V30 27 1 5 8
M  V30 28 1 10 11
M  V30 29 2 14 15
M  V30 30 1 19 20
M  V30 31 1 4 28
M  V30 32 1 4 29
M  V30 33 1 5 30
M  V30 34 1 6 31
M  V30 35 1 6 32
M  V30 36 1 7 33
M  V30 37 1 7 34
M  V30 38 1 7 35
M  V30 39 1 8 36
M  V30 40 1 8 37
M  V30 41 1 9 38
M  V30 42 1 10 39
M  V30 43 1 10 40
M  V30 44 1 11 41
M  V30 45 1 12 42
M  V30 46 1 12 43
M  V30 47 1 14 44
M  V30 48 1 16 45
M  V30 49 1 16 46
M  V30 50 1 17 47
M  V30 51 1 17 48
M  V30 52 1 17 49
M  V30 53 1 18 50
M  V30 54 1 18 51
M  V30 55 1 19 52
M  V30 56 1 19 53
M  V30 57 1 20 54
M  V30 58 1 24 55
M  V30 59 1 24 56
M  V30 60 1 25 57
M  V30 61 1 25 58
M  V30 62 1 26 59
M  V30 63 1 26 60
M  V30 64 1 27 61
M  V30 65 1 27 62
M  V30 66 1 27 63
M  V30 END BOND
M  V30 BEGIN COLLECTION
M  V30 MDLV30/STEABS ATOMS=(6 3 5 9 11 13 20)
M  V30 END COLLECTION
M  V30 END CTAB
M  END
>  <Structure No>
6989

>  <LogS>
-4.76

>  <MMFF94 Energy>
60.444

$$$$
Compound 6990
Actelion Java MolfileCreator 2.0

  0  0  0  0  0  0              0 V3000
M  V30 BEGIN CTAB
M  V30 COUNTS 27 27 0 0 0
M  V30 BEGIN ATOM
M  V30 1 Cl -5.2526 -0.3226 0.5646 0
M  V30 2 C -3.5151 -0.4197 0.3422 0
M  V30 3 C -2.7425 0.7454 0.3526 0
M  V30 4 C -2.9046 -1.6613 0.153 0
M  V30 5 C -1.3497 0.6788 0.174 0
M  V30 6 C -1.5219 -1.7415 -0.0217 0
M  V30 7 C -0.7342 -0.5798 -0.0095 0
M  V30 8 C -0.538 1.9441 0.1631 0
M  V30 9 N 0.6917 -0.6938 -0.1672 0
M  V30 10 C 1.5625 -0.5254 0.9727 0
M  V30 11 C 1.2216 -1.1029 -1.4689 0
M  V30 12 S 1.0767 -1.0508 2.4511 0
M  V30 13 N 2.8662 0.0703 0.8537 0
M  V30 14 C 3.249 0.9635 -0.234 0
M  V30 15 H -3.2304 1.702 0.4962 0
M  V30 16 H -3.4998 -2.5655 0.1455 0
M  V30 17 H -1.0583 -2.7108 -0.1548 0
M  V30 18 H 0.166 1.9484 1.0207 0
M  V30 19 H 0.0321 2.0123 -0.7864 0
M  V30 20 H -1.183 2.8452 0.2405 0
M  V30 21 H 2.1954 -1.6238 -1.3499 0
M  V30 22 H 1.3453 -0.2114 -2.1182 0
M  V30 23 H 0.5257 -1.8082 -1.971 0
M  V30 24 H 3.5115 0.0147 1.6743 0
M  V30 25 H 3.5116 0.378 -1.1373 0
M  V30 26 H 4.1436 1.5509 0.0624 0
M  V30 27 H 2.4256 1.6711 -0.4602 0
M  V30 END ATOM
M  V30 BEGIN BOND
M  V30 1 1 1 2
M  V30 2 2 2 3
M  V30 3 1 2 4
M  V30 4 1 3 5
M  V30 5 2 4 6
M  V30 6 2 5 7
M  V30 7 1 5 8
M  V30 8 1 7 9
M  V30 9 1 9 10
M  V30 10 1 9 11
M  V30 11 2 10 12
M  V30 12 1 10 13
M  V30 13 1 13 14
M  V30 14 1 6 7
M  V30 15 1 3 15
M  V30 16 1 4 16
M  V30 17 1 6 17
M  V30 18 1 8 18
M  V30 19 1 8 19
M  V30 20 1 8 20
M  V30 21 1 11 21
M  V30 22 1 11 22
M  V30 23 1 11 23
M  V30 24 1 13 24
M  V30 25 1 14 25
M  V30 26 1 14 26
M  V30 27 1 14 27
M  V30 END BOND
M  V30 END CTAB
M  END
>  <Structure No>
6990

>  <LogS>
-3.66

>  <MMFF94 Energy>
-15.813

$$$$
Compound 6991
Actelion Java MolfileCreator 2.0

  0  0  0  0  0  0              0 V3000
M  V30 BEGIN CTAB
M  V30 COUNTS 16 16 0 0 0
M  V30 BEGIN ATOM
M  V30 1 S 2.2883 0.5082 -1.2708 0
M  V30 2 O 2.8734 -0.7748 -1.7901 0
M  V30 3 O 3.2764 1.1455 -0.3347 0
M  V30 4 O 1.9851 1.5458 -2.556 0 CHG=-1
M  V30 5 C 0.7844 0.1774 -0.418 0
M  V30 6 C -0.0237 -0.9009 -0.8054 0
M  V30 7 C 0.3758 1.0044 0.6383 0
M  V30 8 C -1.2237 -1.157 -0.1344 0
M  V30 9 C -0.8242 0.7474 1.3089 0
M  V30 10 C -1.6251 -0.3341 0.9243 0
M  V30 11 N -2.8111 -0.5872 1.5865 0 CHG=1
M  V30 12 N -3.7726 -0.7922 2.1235 0
M  V30 13 H 0.2725 -1.5411 -1.6264 0
M  V30 14 H 0.9833 1.8475 0.9416 0
M  V30 15 H -1.8406 -1.9932 -0.4395 0
M  V30 16 H -1.1308 1.3904 2.1247 0
M  V30 END ATOM
M  V30 BEGIN BOND
M  V30 1 2 1 2
M  V30 2 2 1 3
M  V30 3 1 1 4
M  V30 4 1 1 5
M  V30 5 2 5 6
M  V30 6 1 5 7
M  V30 7 1 6 8
M  V30 8 2 7 9
M  V30 9 2 8 10
M  V30 10 1 10 11
M  V30 11 3 11 12
M  V30 12 1 9 10
M  V30 13 1 6 13
M  V30 14 1 7 14
M  V30 15 1 8 15
M  V30 16 1 9 16
M  V30 END BOND
M  V30 END CTAB
M  END
>  <Structure No>
6991

>  <LogS>
-2.42

>  <MMFF94 Energy>
37.25

$$$$
Compound 6992
Actelion Java MolfileCreator 2.0

  0  0  0  0  0  0              0 V3000
M  V30 BEGIN CTAB
M  V30 COUNTS 31 32 0 0 0
M  V30 BEGIN ATOM
M  V30 1 O 0.2387 1.5923 0.7163 0
M  V30 2 C -0.1048 0.5269 0.1355 0
M  V30 3 N 0.8788 -0.2566 -0.5633 0
M  V30 4 C -1.5367 0.1272 0.1199 0
M  V30 5 C 2.2974 -0.0602 -0.4353 0
M  V30 6 C -2.3377 0.2529 1.2098 0
M  V30 7 C -2.0869 -0.5031 -1.1427 0
M  V30 8 C 3.1284 -0.3042 -1.5401 0
M  V30 9 C 2.88 0.3109 0.7912 0
M  V30 10 O -3.6939 -0.1044 1.1404 0
M  V30 11 C -1.8458 0.7992 2.5196 0
M  V30 12 C -3.603 -0.332 -1.2615 0
M  V30 13 C 4.5132 -0.1429 -1.4335 0
M  V30 14 C 4.2656 0.4702 0.8938 0
M  V30 15 C -4.2625 -0.796 0.0312 0
M  V30 16 C 5.081 0.248 -0.2185 0
M  V30 17 H 0.5544 -0.974 -1.2493 0
M  V30 18 H -1.8399 -1.587 -1.1398 0
M  V30 19 H -1.6112 -0.041 -2.035 0
M  V30 20 H 2.7 -0.6096 -2.4864 0
M  V30 21 H 2.2717 0.4522 1.6745 0
M  V30 22 H -0.8952 0.3077 2.8167 0
M  V30 23 H -2.5949 0.6027 3.3153 0
M  V30 24 H -1.7008 1.8968 2.4423 0
M  V30 25 H -3.9852 -0.9295 -2.1169 0
M  V30 26 H -3.8466 0.7384 -1.4392 0
M  V30 27 H 5.1461 -0.3234 -2.2927 0
M  V30 28 H 4.7082 0.757 1.839 0
M  V30 29 H -5.3544 -0.5986 -0.0054 0
M  V30 30 H -4.105 -1.8885 0.1619 0
M  V30 31 H 6.1532 0.3703 -0.1366 0
M  V30 END ATOM
M  V30 BEGIN BOND
M  V30 1 2 1 2
M  V30 2 1 2 3
M  V30 3 1 2 4
M  V30 4 1 3 5
M  V30 5 2 4 6
M  V30 6 1 4 7
M  V30 7 2 5 8
M  V30 8 1 5 9
M  V30 9 1 6 10
M  V30 10 1 6 11
M  V30 11 1 7 12
M  V30 12 1 8 13
M  V30 13 2 9 14
M  V30 14 1 10 15
M  V30 15 2 13 16
M  V30 16 1 12 15
M  V30 17 1 14 16
M  V30 18 1 3 17
M  V30 19 1 7 18
M  V30 20 1 7 19
M  V30 21 1 8 20
M  V30 22 1 9 21
M  V30 23 1 11 22
M  V30 24 1 11 23
M  V30 25 1 11 24
M  V30 26 1 12 25
M  V30 27 1 12 26
M  V30 28 1 13 27
M  V30 29 1 14 28
M  V30 30 1 15 29
M  V30 31 1 15 30
M  V30 32 1 16 31
M  V30 END BOND
M  V30 END CTAB
M  END
>  <Structure No>
6992

>  <LogS>
-2.56

>  <MMFF94 Energy>
0.37062

$$$$
Compound 6993
Actelion Java MolfileCreator 2.0

  0  0  0  0  0  0              0 V3000
M  V30 BEGIN CTAB
M  V30 COUNTS 26 26 0 0 0
M  V30 BEGIN ATOM
M  V30 1 O -3.4113 -0.3169 0.7925 0
M  V30 2 C -3.491 0.4969 -0.169 0
M  V30 3 O -2.3648 1.2044 -0.6064 0
M  V30 4 O -4.7222 0.7491 -0.7789 0
M  V30 5 C -1.0335 0.8816 -0.3024 0
M  V30 6 C -5.9217 0.0928 -0.3858 0
M  V30 7 C -0.6131 -0.4407 -0.0705 0
M  V30 8 C -0.0891 1.9135 -0.2665 0
M  V30 9 C 0.7278 -0.7154 0.2153 0
M  V30 10 C 1.2509 1.6401 0.0215 0
M  V30 11 C 1.675 0.3233 0.2501 0
M  V30 12 N 3.0555 0.0721 0.5656 0
M  V30 13 C 3.764 -1.1198 0.1926 0
M  V30 14 O 3.2808 -1.9166 -0.6562 0
M  V30 15 C 5.1316 -1.3725 0.7381 0
M  V30 16 H -6.7594 0.4563 -1.0158 0
M  V30 17 H -6.1476 0.3182 0.678 0
M  V30 18 H -5.8175 -1.0042 -0.5234 0
M  V30 19 H -1.3104 -1.2649 -0.1304 0
M  V30 20 H -0.3979 2.9345 -0.4523 0
M  V30 21 H 1.0165 -1.7364 0.4254 0
M  V30 22 H 1.9634 2.4549 0.0552 0
M  V30 23 H 3.6019 0.8373 1.0228 0
M  V30 24 H 5.8749 -0.7877 0.1575 0
M  V30 25 H 5.3819 -2.4525 0.6684 0
M  V30 26 H 5.1765 -1.0655 1.8041 0
M  V30 END ATOM
M  V30 BEGIN BOND
M  V30 1 2 1 2
M  V30 2 1 2 3
M  V30 3 1 2 4
M  V30 4 1 3 5
M  V30 5 1 4 6
M  V30 6 2 5 7
M  V30 7 1 5 8
M  V30 8 1 7 9
M  V30 9 2 8 10
M  V30 10 2 9 11
M  V30 11 1 11 12
M  V30 12 1 12 13
M  V30 13 2 13 14
M  V30 14 1 13 15
M  V30 15 1 10 11
M  V30 16 1 6 16
M  V30 17 1 6 17
M  V30 18 1 6 18
M  V30 19 1 7 19
M  V30 20 1 8 20
M  V30 21 1 9 21
M  V30 22 1 10 22
M  V30 23 1 12 23
M  V30 24 1 15 24
M  V30 25 1 15 25
M  V30 26 1 15 26
M  V30 END BOND
M  V30 END CTAB
M  END
>  <Structure No>
6993

>  <LogS>
-1.69

>  <MMFF94 Energy>
-6.4408

$$$$
Compound 6994
Actelion Java MolfileCreator 2.0

  0  0  0  0  0  0              0 V3000
M  V30 BEGIN CTAB
M  V30 COUNTS 20 20 0 0 0
M  V30 BEGIN ATOM
M  V30 1 S -1.9875 -1.4075 0.7449 0
M  V30 2 O -1.6029 -2.824 1.0684 0
M  V30 3 O -3.0022 -1.4277 -0.3629 0
M  V30 4 O -2.6587 -0.7066 2.116 0 CHG=-1
M  V30 5 C -0.5638 -0.4821 0.24 0
M  V30 6 C -0.6684 0.8563 -0.2126 0
M  V30 7 C 0.6999 -1.0929 0.299 0
M  V30 8 C 0.4931 1.5395 -0.6118 0
M  V30 9 C -1.9969 1.5596 -0.3063 0
M  V30 10 C 1.8508 -0.3985 -0.0935 0
M  V30 11 C 1.741 0.9183 -0.5504 0
M  V30 12 N 3.1311 -1.0326 -0.0298 0
M  V30 13 H 0.7957 -2.1122 0.6503 0
M  V30 14 H 0.4358 2.5594 -0.9721 0
M  V30 15 H -1.8732 2.6358 -0.5527 0
M  V30 16 H -2.6128 1.0937 -1.1029 0
M  V30 17 H -2.5333 1.5005 0.6625 0
M  V30 18 H 2.6233 1.4642 -0.86 0
M  V30 19 H 3.9952 -0.5232 -0.3209 0
M  V30 20 H 3.2249 -2.0159 0.3091 0
M  V30 END ATOM
M  V30 BEGIN BOND
M  V30 1 2 1 2
M  V30 2 2 1 3
M  V30 3 1 1 4
M  V30 4 1 1 5
M  V30 5 2 5 6
M  V30 6 1 5 7
M  V30 7 1 6 8
M  V30 8 1 6 9
M  V30 9 2 7 10
M  V30 10 2 8 11
M  V30 11 1 10 12
M  V30 12 1 10 11
M  V30 13 1 7 13
M  V30 14 1 8 14
M  V30 15 1 9 15
M  V30 16 1 9 16
M  V30 17 1 9 17
M  V30 18 1 11 18
M  V30 19 1 12 19
M  V30 20 1 12 20
M  V30 END BOND
M  V30 END CTAB
M  END
>  <Structure No>
6994

>  <LogS>
-1.62

>  <MMFF94 Energy>
37.246

$$$$
Compound 6995
Actelion Java MolfileCreator 2.0

  0  0  0  0  0  0              0 V3000
M  V30 BEGIN CTAB
M  V30 COUNTS 31 31 0 0 0
M  V30 BEGIN ATOM
M  V30 1 O -2.2121 -1.4216 -1.3426 0
M  V30 2 C -1.6622 -0.7933 -0.396 0
M  V30 3 O -2.4283 -0.3422 0.6867 0
M  V30 4 C -0.2051 -0.5378 -0.4229 0
M  V30 5 C -3.844 -0.4953 0.7678 0
M  V30 6 C 0.5827 -0.9852 -1.4978 0
M  V30 7 C 0.4111 0.1667 0.625 0
M  V30 8 C -4.5456 0.5177 -0.1407 0
M  V30 9 C 1.9586 -0.7397 -1.5181 0
M  V30 10 C 1.7875 0.4104 0.6037 0
M  V30 11 C -6.0629 0.4033 -0.0273 0
M  V30 12 C 2.5767 -0.0578 -0.4607 0
M  V30 13 N 3.9904 0.2001 -0.5188 0
M  V30 14 C 4.8461 0.2637 0.6325 0
M  V30 15 O 4.447 -0.1493 1.7547 0
M  V30 16 C 6.2572 0.7313 0.4846 0
M  V30 17 H -4.153 -0.317 1.8199 0
M  V30 18 H -4.1329 -1.5343 0.4955 0
M  V30 19 H 0.1368 -1.5235 -2.3249 0
M  V30 20 H -0.1707 0.5389 1.459 0
M  V30 21 H -4.2499 0.3451 -1.1974 0
M  V30 22 H -4.2357 1.546 0.146 0
M  V30 23 H 2.5475 -1.0911 -2.356 0
M  V30 24 H 2.2264 0.9871 1.4068 0
M  V30 25 H -6.3884 0.602 1.0161 0
M  V30 26 H -6.3963 -0.6124 -0.3288 0
M  V30 27 H -6.5428 1.1481 -0.6965 0
M  V30 28 H 4.4398 0.2643 -1.4603 0
M  V30 29 H 6.3017 1.5796 -0.2302 0
M  V30 30 H 6.6567 1.0705 1.4639 0
M  V30 31 H 6.8841 -0.1013 0.1036 0
M  V30 END ATOM
M  V30 BEGIN BOND
M  V30 1 2 1 2
M  V30 2 1 2 3
M  V30 3 1 2 4
M  V30 4 1 3 5
M  V30 5 2 4 6
M  V30 6 1 4 7
M  V30 7 1 5 8
M  V30 8 1 6 9
M  V30 9 2 7 10
M  V30 10 1 8 11
M  V30 11 2 9 12
M  V30 12 1 12 13
M  V30 13 1 13 14
M  V30 14 2 14 15
M  V30 15 1 14 16
M  V30 16 1 10 12
M  V30 17 1 5 17
M  V30 18 1 5 18
M  V30 19 1 6 19
M  V30 20 1 7 20
M  V30 21 1 8 21
M  V30 22 1 8 22
M  V30 23 1 9 23
M  V30 24 1 10 24
M  V30 25 1 11 25
M  V30 26 1 11 26
M  V30 27 1 11 27
M  V30 28 1 13 28
M  V30 29 1 16 29
M  V30 30 1 16 30
M  V30 31 1 16 31
M  V30 END BOND
M  V30 END CTAB
M  END
>  <Structure No>
6995

>  <LogS>
-3.29

>  <MMFF94 Energy>
10.556

$$$$
Compound 6996
Actelion Java MolfileCreator 2.0

  0  0  0  0  0  0              0 V3000
M  V30 BEGIN CTAB
M  V30 COUNTS 24 24 0 0 0
M  V30 BEGIN ATOM
M  V30 1 F -4.4719 -1.2761 -0.8772 0
M  V30 2 C -3.5387 -0.3636 -0.5058 0
M  V30 3 C -2.3833 -0.7546 0.1721 0
M  V30 4 C -3.7174 0.9812 -0.8041 0
M  V30 5 O -2.2077 -1.978 0.4264 0
M  V30 6 N -1.4538 0.1819 0.5508 0
M  V30 7 N -2.7724 1.885 -0.4445 0
M  V30 8 C -1.6463 1.5006 0.217 0
M  V30 9 C -0.2211 -0.234 1.2411 0
M  V30 10 O -0.7824 2.3712 0.5148 0
M  V30 11 O 0.7855 -0.5228 0.2767 0
M  V30 12 C 2.0724 -0.9372 0.6301 0
M  V30 13 O 2.3996 -1.0603 1.8421 0
M  V30 14 C 3.0829 -1.1899 -0.4423 0
M  V30 15 C 3.7734 0.1081 -0.8428 0
M  V30 16 H -4.6058 1.3057 -1.3313 0
M  V30 17 H -2.9155 2.8915 -0.6874 0
M  V30 18 H -0.4041 -1.1307 1.8734 0
M  V30 19 H 0.1346 0.5653 1.9281 0
M  V30 20 H 2.5762 -1.627 -1.329 0
M  V30 21 H 3.842 -1.9178 -0.0826 0
M  V30 22 H 4.3018 0.549 0.0294 0
M  V30 23 H 4.5165 -0.0975 -1.6418 0
M  V30 24 H 3.0294 0.838 -1.2285 0
M  V30 END ATOM
M  V30 BEGIN BOND
M  V30 1 1 1 2
M  V30 2 1 2 3
M  V30 3 2 2 4
M  V30 4 2 3 5
M  V30 5 1 3 6
M  V30 6 1 4 7
M  V30 7 1 6 8
M  V30 8 1 6 9
M  V30 9 2 8 10
M  V30 10 1 9 11
M  V30 11 1 11 12
M  V30 12 2 12 13
M  V30 13 1 12 14
M  V30 14 1 14 15
M  V30 15 1 7 8
M  V30 16 1 4 16
M  V30 17 1 7 17
M  V30 18 1 9 18
M  V30 19 1 9 19
M  V30 20 1 14 20
M  V30 21 1 14 21
M  V30 22 1 15 22
M  V30 23 1 15 23
M  V30 24 1 15 24
M  V30 END BOND
M  V30 END CTAB
M  END
>  <Structure No>
6996

>  <LogS>
-0.77

>  <MMFF94 Energy>
-97.358

$$$$
Compound 6997
Actelion Java MolfileCreator 2.0

  0  0  0  0  0  0              0 V3000
M  V30 BEGIN CTAB
M  V30 COUNTS 18 19 0 0 0
M  V30 BEGIN ATOM
M  V30 1 O -1.7721 -0.8857 1.9334 0
M  V30 2 C -0.9529 -0.8079 0.8035 0
M  V30 3 C -1.8732 0.168 2.8836 0
M  V30 4 N -0.2005 0.3017 0.5573 0
M  V30 5 C -0.9019 -1.8842 -0.091 0
M  V30 6 C 0.5947 0.3747 -0.5412 0
M  V30 7 N -0.1053 -1.8102 -1.1911 0
M  V30 8 C 0.6444 -0.7047 -1.4367 0
M  V30 9 C 1.371 1.5007 -0.8097 0
M  V30 10 N 1.4378 -0.6366 -2.5363 0
M  V30 11 N 2.1514 1.527 -1.9225 0
M  V30 12 C 2.188 0.4713 -2.7806 0
M  V30 13 H -0.8794 0.3672 3.3378 0
M  V30 14 H -2.2528 1.0885 2.3917 0
M  V30 15 H -2.581 -0.1295 3.6841 0
M  V30 16 H -1.492 -2.7732 0.0875 0
M  V30 17 H 1.3575 2.3518 -0.1412 0
M  V30 18 H 2.8158 0.5135 -3.6599 0
M  V30 END ATOM
M  V30 BEGIN BOND
M  V30 1 1 1 2
M  V30 2 1 1 3
M  V30 3 2 2 4
M  V30 4 1 2 5
M  V30 5 1 4 6
M  V30 6 2 5 7
M  V30 7 1 6 8
M  V30 8 2 6 9
M  V30 9 2 8 10
M  V30 10 1 9 11
M  V30 11 1 10 12
M  V30 12 1 7 8
M  V30 13 2 11 12
M  V30 14 1 3 13
M  V30 15 1 3 14
M  V30 16 1 3 15
M  V30 17 1 5 16
M  V30 18 1 9 17
M  V30 19 1 12 18
M  V30 END BOND
M  V30 END CTAB
M  END
>  <Structure No>
6997

>  <LogS>
-1.14

>  <MMFF94 Energy>
67.976

$$$$
Compound 6998
Actelion Java MolfileCreator 2.0

  0  0  0  0  0  0              0 V3000
M  V30 BEGIN CTAB
M  V30 COUNTS 18 19 0 0 0
M  V30 BEGIN ATOM
M  V30 1 O -2.7398 -0.161 -0.0805 0
M  V30 2 C -1.3642 -0.3984 -0.1498 0
M  V30 3 C -3.2849 1.079 0.3541 0
M  V30 4 N -0.4667 0.5655 0.2023 0
M  V30 5 C -0.8974 -1.6442 -0.5874 0
M  V30 6 C 0.8699 0.3354 0.1352 0
M  V30 7 N 0.4407 -1.8771 -0.6555 0
M  V30 8 N 1.7571 1.3007 0.4878 0
M  V30 9 C 1.3325 -0.9147 -0.3039 0
M  V30 10 C 3.0955 1.0683 0.4198 0
M  V30 11 C 2.7078 -1.1324 -0.3662 0
M  V30 12 N 3.5611 -0.1382 -0.0037 0
M  V30 13 H -2.9473 1.8985 -0.3152 0
M  V30 14 H -2.9659 1.2902 1.3967 0
M  V30 15 H -4.3922 1.0218 0.3217 0
M  V30 16 H -1.5944 -2.4214 -0.8711 0
M  V30 17 H 3.7921 1.8451 0.7034 0
M  V30 18 H 3.1006 -2.0841 -0.7001 0
M  V30 END ATOM
M  V30 BEGIN BOND
M  V30 1 1 1 2
M  V30 2 1 1 3
M  V30 3 2 2 4
M  V30 4 1 2 5
M  V30 5 1 4 6
M  V30 6 2 5 7
M  V30 7 2 6 8
M  V30 8 1 6 9
M  V30 9 1 8 10
M  V30 10 2 9 11
M  V30 11 2 10 12
M  V30 12 1 7 9
M  V30 13 1 11 12
M  V30 14 1 3 13
M  V30 15 1 3 14
M  V30 16 1 3 15
M  V30 17 1 5 16
M  V30 18 1 10 17
M  V30 19 1 11 18
M  V30 END BOND
M  V30 END CTAB
M  END
>  <Structure No>
6998

>  <LogS>
-0.91

>  <MMFF94 Energy>
61.313

$$$$
Compound 6999
Actelion Java MolfileCreator 2.0

  0  0  0  0  0  0              0 V3000
M  V30 BEGIN CTAB
M  V30 COUNTS 34 34 0 0 0
M  V30 BEGIN ATOM
M  V30 1 O -2.209 -1.8143 0.3153 0
M  V30 2 C -2.6173 -0.66 0.0107 0
M  V30 3 N -1.6886 0.3043 -0.5084 0
M  V30 4 C -4.0463 -0.3184 0.2146 0
M  V30 5 N -0.3798 -0.0651 -0.8696 0
M  V30 6 C -4.6648 0.7048 -0.5249 0
M  V30 7 C -4.8179 -1.04 1.142 0
M  V30 8 C 0.5606 0.8979 -1.3617 0
M  V30 9 C -6.0149 0.9948 -0.3103 0
M  V30 10 C -6.1646 -0.7168 1.3246 0
M  V30 11 O 0.2371 2.1124 -1.4581 0
M  V30 12 C 1.9515 0.4734 -1.7258 0
M  V30 13 N -6.7295 0.2867 0.6028 0
M  V30 14 C 2.8368 0.4079 -0.4773 0
M  V30 15 C 4.2621 -0.0358 -0.8376 0
M  V30 16 C 5.2137 1.0E-4 0.3681 0
M  V30 17 C 4.9168 -1.0973 1.3898 0
M  V30 18 H -1.9759 1.3054 -0.5787 0
M  V30 19 H -0.0787 -1.0628 -0.7909 0
M  V30 20 H -4.125 1.2626 -1.2781 0
M  V30 21 H -4.3809 -1.8372 1.7308 0
M  V30 22 H -6.4965 1.7822 -0.8753 0
M  V30 23 H -6.761 -1.2629 2.0434 0
M  V30 24 H 2.3796 1.1971 -2.4537 0
M  V30 25 H 1.9133 -0.5235 -2.216 0
M  V30 26 H 2.3916 -0.312 0.2425 0
M  V30 27 H 2.8712 1.4125 -2.0E-4 0
M  V30 28 H 4.6667 0.651 -1.6132 0
M  V30 29 H 4.2422 -1.06 -1.2708 0
M  V30 30 H 6.2528 -0.1404 -6.0E-4 0
M  V30 31 H 5.1656 0.9935 0.8648 0
M  V30 32 H 5.7031 -1.0916 2.1741 0
M  V30 33 H 3.9378 -0.9229 1.8819 0
M  V30 34 H 4.9137 -2.0952 0.9011 0
M  V30 END ATOM
M  V30 BEGIN BOND
M  V30 1 2 1 2
M  V30 2 1 2 3
M  V30 3 1 2 4
M  V30 4 1 3 5
M  V30 5 2 4 6
M  V30 6 1 4 7
M  V30 7 1 5 8
M  V30 8 1 6 9
M  V30 9 2 7 10
M  V30 10 2 8 11
M  V30 11 1 8 12
M  V30 12 2 9 13
M  V30 13 1 12 14
M  V30 14 1 14 15
M  V30 15 1 15 16
M  V30 16 1 16 17
M  V30 17 1 10 13
M  V30 18 1 3 18
M  V30 19 1 5 19
M  V30 20 1 6 20
M  V30 21 1 7 21
M  V30 22 1 9 22
M  V30 23 1 10 23
M  V30 24 1 12 24
M  V30 25 1 12 25
M  V30 26 1 14 26
M  V30 27 1 14 27
M  V30 28 1 15 28
M  V30 29 1 15 29
M  V30 30 1 16 30
M  V30 31 1 16 31
M  V30 32 1 17 32
M  V30 33 1 17 33
M  V30 34 1 17 34
M  V30 END BOND
M  V30 END CTAB
M  END
>  <Structure No>
6999

>  <LogS>
-1.24

>  <MMFF94 Energy>
35.549

$$$$
Compound 7000
Actelion Java MolfileCreator 2.0

  0  0  0  0  0  0              0 V3000
M  V30 BEGIN CTAB
M  V30 COUNTS 28 28 0 0 0
M  V30 BEGIN ATOM
M  V30 1 O 3.475 0.71 -0.3155 0
M  V30 2 C 2.7649 -0.1898 0.2128 0
M  V30 3 O 3.3331 -1.4072 0.5988 0
M  V30 4 C 1.2919 0.0384 0.4262 0 CFG=1
M  V30 5 C 4.7148 -1.6968 0.4246 0
M  V30 6 N 1.0656 1.1984 1.2927 0
M  V30 7 C 0.5743 0.2197 -0.9227 0
M  V30 8 C -0.9196 0.3079 -0.7422 0
M  V30 9 C -1.6874 -0.862 -0.6248 0
M  V30 10 C -1.5508 1.5579 -0.6427 0
M  V30 11 C -3.0737 -0.7843 -0.4278 0
M  V30 12 C -2.9322 1.6363 -0.4468 0
M  V30 13 O -3.8365 -1.9454 -0.3164 0
M  V30 14 C -3.6974 0.4671 -0.3401 0
M  V30 15 O -5.0755 0.5407 -0.1451 0
M  V30 16 H 0.871 -0.8617 0.9277 0
M  V30 17 H 4.9792 -1.6534 -0.653 0
M  V30 18 H 5.3306 -0.9674 0.9923 0
M  V30 19 H 4.924 -2.7174 0.8055 0
M  V30 20 H 1.5068 2.0464 0.8669 0
M  V30 21 H 1.5354 1.0274 2.2118 0
M  V30 22 H 0.9512 1.1327 -1.4352 0
M  V30 23 H 0.8093 -0.6421 -1.5861 0
M  V30 24 H -1.2082 -1.8316 -0.6846 0
M  V30 25 H -0.9732 2.4712 -0.7146 0
M  V30 26 H -3.407 2.6067 -0.3751 0
M  V30 27 H -3.4144 -2.8646 -0.3749 0
M  V30 28 H -5.5543 1.4312 -0.0771 0
M  V30 END ATOM
M  V30 BEGIN BOND
M  V30 1 2 1 2
M  V30 2 1 2 3
M  V30 3 1 2 4
M  V30 4 1 3 5
M  V30 5 1 4 6
M  V30 6 1 4 7
M  V30 7 1 7 8
M  V30 8 2 8 9
M  V30 9 1 8 10
M  V30 10 1 9 11
M  V30 11 2 10 12
M  V30 12 1 11 13
M  V30 13 2 11 14
M  V30 14 1 14 15
M  V30 15 1 12 14
M  V30 16 1 4 16
M  V30 17 1 5 17
M  V30 18 1 5 18
M  V30 19 1 5 19
M  V30 20 1 6 20
M  V30 21 1 6 21
M  V30 22 1 7 22
M  V30 23 1 7 23
M  V30 24 1 9 24
M  V30 25 1 10 25
M  V30 26 1 12 26
M  V30 27 1 13 27
M  V30 28 1 15 28
M  V30 END BOND
M  V30 BEGIN COLLECTION
M  V30 MDLV30/STEABS ATOMS=(1 4)
M  V30 END COLLECTION
M  V30 END CTAB
M  END
>  <Structure No>
7000

>  <LogS>
0.48

>  <MMFF94 Energy>
61.103

$$$$
Compound 7001
Actelion Java MolfileCreator 2.0

  0  0  0  0  0  0              0 V3000
M  V30 BEGIN CTAB
M  V30 COUNTS 20 21 0 0 0
M  V30 BEGIN ATOM
M  V30 1 N 0.2403 -1.4425 0.0 0
M  V30 2 C 1.3803 -0.7074 0.0395 0
M  V30 3 C -0.986 -0.8498 -0.0173 0
M  V30 4 N 2.5949 -1.3142 0.0564 0
M  V30 5 C 1.2965 0.6913 0.063 0
M  V30 6 C -1.0689 0.562 0.0064 0
M  V30 7 C -2.2107 -1.7147 -0.0611 0
M  V30 8 C 3.7367 -0.5759 0.096 0
M  V30 9 N 0.0797 1.2927 0.0462 0
M  V30 10 C 2.4777 1.4304 0.1036 0
M  V30 11 C -2.3862 1.2793 -0.0105 0
M  V30 12 N 3.6733 0.7834 0.1193 0
M  V30 13 H -1.9285 -2.789 -0.0741 0
M  V30 14 H -2.8386 -1.5281 0.8352 0
M  V30 15 H -2.797 -1.4951 -0.9777 0
M  V30 16 H 4.698 -1.0708 0.109 0
M  V30 17 H 2.4508 2.5124 0.1227 0
M  V30 18 H -2.2312 2.3791 0.013 0
M  V30 19 H -2.9446 1.0239 -0.9353 0
M  V30 20 H -2.9863 0.9909 0.8777 0
M  V30 END ATOM
M  V30 BEGIN BOND
M  V30 1 1 1 2
M  V30 2 2 1 3
M  V30 3 2 2 4
M  V30 4 1 2 5
M  V30 5 1 3 6
M  V30 6 1 3 7
M  V30 7 1 4 8
M  V30 8 1 5 9
M  V30 9 2 5 10
M  V30 10 1 6 11
M  V30 11 2 8 12
M  V30 12 2 6 9
M  V30 13 1 10 12
M  V30 14 1 7 13
M  V30 15 1 7 14
M  V30 16 1 7 15
M  V30 17 1 8 16
M  V30 18 1 10 17
M  V30 19 1 11 18
M  V30 20 1 11 19
M  V30 21 1 11 20
M  V30 END BOND
M  V30 END CTAB
M  END
>  <Structure No>
7001

>  <LogS>
-0.46

>  <MMFF94 Energy>
69.92

$$$$
Compound 7002
Actelion Java MolfileCreator 2.0

  0  0  0  0  0  0              0 V3000
M  V30 BEGIN CTAB
M  V30 COUNTS 15 16 0 0 0
M  V30 BEGIN ATOM
M  V30 1 S 3.7811 -0.3283 0.3283 0
M  V30 2 C 2.1838 -0.2985 -0.0338 0
M  V30 3 N 1.285 0.2115 0.8569 0
M  V30 4 C 1.7323 -0.798 -1.2636 0
M  V30 5 C -0.044 0.2401 0.5642 0
M  V30 6 N 0.4049 -0.7688 -1.5548 0
M  V30 7 N -0.9411 0.7479 1.4503 0
M  V30 8 C -0.4907 -0.2614 -0.669 0
M  V30 9 C -2.2685 0.7756 1.1557 0
M  V30 10 C -1.8553 -0.2237 -0.9514 0
M  V30 11 N -2.7163 0.2931 -0.0351 0
M  V30 12 H 1.6148 0.5857 1.7762 0
M  V30 13 H 2.4275 -1.2073 -1.9857 0
M  V30 14 H -2.9707 1.1824 1.8703 0
M  V30 15 H -2.2341 -0.6018 -1.8922 0
M  V30 END ATOM
M  V30 BEGIN BOND
M  V30 1 2 1 2
M  V30 2 1 2 3
M  V30 3 1 2 4
M  V30 4 1 3 5
M  V30 5 2 4 6
M  V30 6 2 5 7
M  V30 7 1 5 8
M  V30 8 1 7 9
M  V30 9 2 8 10
M  V30 10 2 9 11
M  V30 11 1 6 8
M  V30 12 1 10 11
M  V30 13 1 3 12
M  V30 14 1 4 13
M  V30 15 1 9 14
M  V30 16 1 10 15
M  V30 END BOND
M  V30 END CTAB
M  END
>  <Structure No>
7002

>  <LogS>
-2.71

>  <MMFF94 Energy>
31.315

$$$$
Compound 7003
Actelion Java MolfileCreator 2.0

  0  0  0  0  0  0              0 V3000
M  V30 BEGIN CTAB
M  V30 COUNTS 15 16 0 0 0
M  V30 BEGIN ATOM
M  V30 1 S -3.5329 1.6421 1.0671 0
M  V30 2 C -2.1982 0.8627 0.5318 0
M  V30 3 N -0.9677 1.3377 0.8648 0
M  V30 4 N -2.3157 -0.2549 -0.2426 0
M  V30 5 C 0.1569 0.7116 0.4349 0
M  V30 6 C -1.2125 -0.9116 -0.6938 0
M  V30 7 N 1.385 1.1872 0.7682 0
M  V30 8 C 0.0557 -0.4389 -0.3622 0
M  V30 9 C 2.5152 0.5629 0.3397 0
M  V30 10 N 1.1845 -1.0628 -0.7906 0
M  V30 11 C 2.4129 -0.5844 -0.4552 0
M  V30 12 H -3.2609 -0.6207 -0.4991 0
M  V30 13 H -1.3226 -1.7975 -1.3077 0
M  V30 14 H 3.4861 0.9535 0.6134 0
M  V30 15 H 3.3039 -1.0901 -0.8026 0
M  V30 END ATOM
M  V30 BEGIN BOND
M  V30 1 2 1 2
M  V30 2 1 2 3
M  V30 3 1 2 4
M  V30 4 2 3 5
M  V30 5 1 4 6
M  V30 6 1 5 7
M  V30 7 1 5 8
M  V30 8 2 7 9
M  V30 9 1 8 10
M  V30 10 1 9 11
M  V30 11 2 6 8
M  V30 12 2 10 11
M  V30 13 1 4 12
M  V30 14 1 6 13
M  V30 15 1 9 14
M  V30 16 1 11 15
M  V30 END BOND
M  V30 END CTAB
M  END
>  <Structure No>
7003

>  <LogS>
-2.68

>  <MMFF94 Energy>
28.997

$$$$
Compound 7004
Actelion Java MolfileCreator 2.0

  0  0  0  0  0  0              0 V3000
M  V30 BEGIN CTAB
M  V30 COUNTS 30 30 0 0 0
M  V30 BEGIN ATOM
M  V30 1 S 5.4911 -0.6354 -0.6354 0
M  V30 2 C 4.0606 -0.0229 -0.1325 0
M  V30 3 N 2.9625 0.0402 -0.909 0
M  V30 4 N 3.8496 0.4584 1.1079 0
M  V30 5 C 2.0189 0.5924 -0.1227 0
M  V30 6 C 2.5606 0.8448 1.1228 0
M  V30 7 C 0.5897 0.8133 -0.5305 0
M  V30 8 C -0.3385 -0.3164 0.0088 0 CFG=1
M  V30 9 N -1.8154 -0.0624 -0.1914 0 CHG=1
M  V30 10 C 0.1088 -1.6584 -0.5473 0
M  V30 11 C -2.1826 0.0665 -1.6243 0
M  V30 12 C -2.2314 1.1793 0.5138 0
M  V30 13 C -2.6014 -1.1817 0.3939 0
M  V30 14 O 0.3493 -1.8035 -1.7754 0
M  V30 15 O 0.2501 -2.7459 0.306 0 CHG=-1
M  V30 16 H 2.8607 -0.2794 -1.8982 0
M  V30 17 H 4.5323 0.512 1.8963 0
M  V30 18 H 2.0513 1.2663 1.9798 0
M  V30 19 H 0.2947 1.8019 -0.1293 0
M  V30 20 H 0.5428 0.8703 -1.6381 0
M  V30 21 H -0.1468 -0.3652 1.1067 0
M  V30 22 H -3.2763 0.2424 -1.7386 0
M  V30 23 H -1.6681 0.9252 -2.1045 0
M  V30 24 H -1.9419 -0.8553 -2.1938 0
M  V30 25 H -1.8622 2.0923 7.0E-4 0
M  V30 26 H -1.8657 1.1884 1.5647 0
M  V30 27 H -3.3402 1.2804 0.5414 0
M  V30 28 H -2.3371 -1.3388 1.4638 0
M  V30 29 H -3.6962 -0.9851 0.3391 0
M  V30 30 H -2.427 -2.1349 -0.1513 0
M  V30 END ATOM
M  V30 BEGIN BOND
M  V30 1 2 1 2
M  V30 2 1 2 3
M  V30 3 1 2 4
M  V30 4 1 3 5
M  V30 5 1 4 6
M  V30 6 1 5 7
M  V30 7 1 7 8
M  V30 8 1 8 9
M  V30 9 1 8 10
M  V30 10 1 9 11
M  V30 11 1 9 12
M  V30 12 1 9 13
M  V30 13 2 10 14
M  V30 14 1 10 15
M  V30 15 2 5 6
M  V30 16 1 3 16
M  V30 17 1 4 17
M  V30 18 1 6 18
M  V30 19 1 7 19
M  V30 20 1 7 20
M  V30 21 1 8 21
M  V30 22 1 11 22
M  V30 23 1 11 23
M  V30 24 1 11 24
M  V30 25 1 12 25
M  V30 26 1 12 26
M  V30 27 1 12 27
M  V30 28 1 13 28
M  V30 29 1 13 29
M  V30 30 1 13 30
M  V30 END BOND
M  V30 BEGIN COLLECTION
M  V30 MDLV30/STEABS ATOMS=(1 8)
M  V30 END COLLECTION
M  V30 END CTAB
M  END
>  <Structure No>
7004

>  <LogS>
-0.46

>  <MMFF94 Energy>
25.477

$$$$
Compound 7005
Actelion Java MolfileCreator 2.0

  0  0  0  0  0  0              0 V3000
M  V30 BEGIN CTAB
M  V30 COUNTS 24 24 0 0 0
M  V30 BEGIN ATOM
M  V30 1 F -4.0017 -1.1992 2.3195 0
M  V30 2 C -3.4131 -0.4562 1.3486 0
M  V30 3 C -4.0256 0.6926 0.8546 0
M  V30 4 C -2.1756 -0.8286 0.8269 0
M  V30 5 O -5.1417 1.0635 1.3042 0
M  V30 6 N -3.417 1.4127 -0.12 0 CHG=-1
M  V30 7 N -1.5746 -0.0741 -0.1414 0
M  V30 8 C -2.2105 1.0423 -0.6244 0
M  V30 9 C -0.2896 -0.4862 -0.6459 0
M  V30 10 O -1.7025 1.7252 -1.5543 0
M  V30 11 O -0.0858 -1.7034 -0.9094 0
M  V30 12 N 0.7675 0.4708 -0.8196 0
M  V30 13 C 2.0698 0.1138 -1.3811 0
M  V30 14 C 2.928 -0.6433 -0.36 0
M  V30 15 C 3.2572 0.2151 0.8599 0
M  V30 16 H -1.6903 -1.717 1.2151 0
M  V30 17 H 0.6117 1.4632 -0.5334 0
M  V30 18 H 2.6022 1.0382 -1.6949 0
M  V30 19 H 1.9269 -0.511 -2.2891 0
M  V30 20 H 2.4067 -1.5669 -0.03 0
M  V30 21 H 3.8786 -0.9473 -0.8488 0
M  V30 22 H 2.3294 0.4862 1.4069 0
M  V30 23 H 3.9165 -0.3554 1.5475 0
M  V30 24 H 3.7854 1.1417 0.5496 0
M  V30 END ATOM
M  V30 BEGIN BOND
M  V30 1 1 1 2
M  V30 2 1 2 3
M  V30 3 2 2 4
M  V30 4 2 3 5
M  V30 5 1 3 6
M  V30 6 1 4 7
M  V30 7 1 6 8
M  V30 8 1 7 9
M  V30 9 2 8 10
M  V30 10 2 9 11
M  V30 11 1 9 12
M  V30 12 1 12 13
M  V30 13 1 13 14
M  V30 14 1 14 15
M  V30 15 1 7 8
M  V30 16 1 4 16
M  V30 17 1 12 17
M  V30 18 1 13 18
M  V30 19 1 13 19
M  V30 20 1 14 20
M  V30 21 1 14 21
M  V30 22 1 15 22
M  V30 23 1 15 23
M  V30 24 1 15 24
M  V30 END BOND
M  V30 END CTAB
M  END
>  <Structure No>
7005

>  <LogS>
-1.83

>  <MMFF94 Energy>
-26.183

$$$$
Compound 7006
Actelion Java MolfileCreator 2.0

  0  0  0  0  0  0              0 V3000
M  V30 BEGIN CTAB
M  V30 COUNTS 26 26 0 0 0
M  V30 BEGIN ATOM
M  V30 1 F 3.5823 -0.5566 2.3074 0
M  V30 2 C 2.9117 -0.0404 1.2465 0
M  V30 3 C 2.0373 -0.8297 0.498 0
M  V30 4 C 3.0969 1.2865 0.8804 0
M  V30 5 O 1.8963 -2.0441 0.8075 0
M  V30 6 N 1.3619 -0.2907 -0.5691 0
M  V30 7 N 2.4352 1.7912 -0.1901 0
M  V30 8 C 1.5769 1.0214 -0.9141 0
M  V30 9 C 0.4395 -1.0902 -1.3436 0
M  V30 10 O 0.9734 1.5341 -1.8975 0
M  V30 11 O 0.57 -1.1498 -2.5965 0
M  V30 12 C -0.6939 -1.8454 -0.694 0
M  V30 13 C -1.4924 -0.9788 0.2912 0
M  V30 14 C -2.2641 0.1428 -0.4183 0
M  V30 15 C -3.0688 0.9721 0.578 0
M  V30 16 H 3.7737 1.9151 1.4456 0
M  V30 17 H 2.5885 2.7905 -0.4557 0
M  V30 18 H -0.2913 -2.7305 -0.1604 0
M  V30 19 H -1.3825 -2.2343 -1.4763 0
M  V30 20 H -2.2174 -1.6348 0.821 0
M  V30 21 H -0.8113 -0.5468 1.0566 0
M  V30 22 H -2.9599 -0.2959 -1.1662 0
M  V30 23 H -1.5571 0.815 -0.9491 0
M  V30 24 H -3.8069 0.3317 1.1064 0
M  V30 25 H -2.392 1.4434 1.3223 0
M  V30 26 H -3.6161 1.7736 0.0384 0
M  V30 END ATOM
M  V30 BEGIN BOND
M  V30 1 1 1 2
M  V30 2 1 2 3
M  V30 3 2 2 4
M  V30 4 2 3 5
M  V30 5 1 3 6
M  V30 6 1 4 7
M  V30 7 1 6 8
M  V30 8 1 6 9
M  V30 9 2 8 10
M  V30 10 2 9 11
M  V30 11 1 9 12
M  V30 12 1 12 13
M  V30 13 1 13 14
M  V30 14 1 14 15
M  V30 15 1 7 8
M  V30 16 1 4 16
M  V30 17 1 7 17
M  V30 18 1 12 18
M  V30 19 1 12 19
M  V30 20 1 13 20
M  V30 21 1 13 21
M  V30 22 1 14 22
M  V30 23 1 14 23
M  V30 24 1 15 24
M  V30 25 1 15 25
M  V30 26 1 15 26
M  V30 END BOND
M  V30 END CTAB
M  END
>  <Structure No>
7006

>  <LogS>
-2.3

>  <MMFF94 Energy>
-50.583

$$$$
Compound 7007
Actelion Java MolfileCreator 2.0

  0  0  0  0  0  0              0 V3000
M  V30 BEGIN CTAB
M  V30 COUNTS 30 31 0 0 0
M  V30 BEGIN ATOM
M  V30 1 O 0.5582 1.6753 0.957 0
M  V30 2 C 1.4833 0.9252 0.5427 0
M  V30 3 N 1.212 -0.328 0.0361 0
M  V30 4 C 2.7998 1.3958 0.6018 0
M  V30 5 C 2.2364 -1.1039 -0.4405 0
M  V30 6 C -0.1629 -0.8682 -0.0729 0 CFG=1
M  V30 7 C 3.8422 0.6002 0.1328 0
M  V30 8 C 3.5584 -0.6588 -0.395 0
M  V30 9 O -1.0089 -0.3656 0.9337 0
M  V30 10 C -0.7973 -0.5645 -1.4271 0 CFG=2
M  V30 11 O 5.152 1.0707 0.1923 0
M  V30 12 C -2.3254 -0.3905 0.4202 0 CFG=2
M  V30 13 O -0.381 0.6768 -1.9486 0
M  V30 14 C -2.2791 -0.5674 -1.1104 0 CFG=2
M  V30 15 C -3.0491 0.8994 0.8177 0
M  V30 16 O -2.8392 -1.8022 -1.4773 0
M  V30 17 O -3.095 1.0044 2.2138 0
M  V30 18 H 3.0113 2.3789 1.0057 0
M  V30 19 H 2.0364 -2.0813 -0.8645 0
M  V30 20 H -0.1319 -1.9763 0.0575 0
M  V30 21 H 4.3539 -1.2892 -0.7716 0
M  V30 22 H -0.5343 -1.3576 -2.1617 0
M  V30 23 H 5.93 0.5144 -0.1425 0
M  V30 24 H -2.8652 -1.2455 0.8871 0
M  V30 25 H -0.6895 1.3929 -1.3342 0
M  V30 26 H -2.7972 0.2548 -1.6602 0
M  V30 27 H -4.0864 0.8804 0.4135 0
M  V30 28 H -2.5118 1.7776 0.3939 0
M  V30 29 H -3.8242 -1.6948 -1.4125 0
M  V30 30 H -3.566 1.8557 2.4103 0
M  V30 END ATOM
M  V30 BEGIN BOND
M  V30 1 2 1 2
M  V30 2 1 2 3
M  V30 3 1 2 4
M  V30 4 1 3 5
M  V30 5 1 3 6
M  V30 6 2 4 7
M  V30 7 2 5 8
M  V30 8 1 6 9
M  V30 9 1 6 10
M  V30 10 1 7 11
M  V30 11 1 9 12
M  V30 12 1 10 13
M  V30 13 1 10 14
M  V30 14 1 12 15
M  V30 15 1 14 16
M  V30 16 1 15 17
M  V30 17 1 7 8
M  V30 18 1 12 14
M  V30 19 1 4 18
M  V30 20 1 5 19
M  V30 21 1 6 20
M  V30 22 1 8 21
M  V30 23 1 10 22
M  V30 24 1 11 23
M  V30 25 1 12 24
M  V30 26 1 13 25
M  V30 27 1 14 26
M  V30 28 1 15 27
M  V30 29 1 15 28
M  V30 30 1 16 29
M  V30 31 1 17 30
M  V30 END BOND
M  V30 BEGIN COLLECTION
M  V30 MDLV30/STEABS ATOMS=(4 6 10 12 14)
M  V30 END COLLECTION
M  V30 END CTAB
M  END
>  <Structure No>
7007

>  <LogS>
-0.77

>  <MMFF94 Energy>
58.445

$$$$
Compound 7008
Actelion Java MolfileCreator 2.0

  0  0  0  0  0  0              0 V3000
M  V30 BEGIN CTAB
M  V30 COUNTS 31 31 0 0 0
M  V30 BEGIN ATOM
M  V30 1 O 2.3697 -0.7894 1.9744 0
M  V30 2 C 2.6281 -1.0855 0.7762 0
M  V30 3 O 1.6036 -1.2478 -0.1649 0
M  V30 4 C 4.0491 -1.3005 0.3559 0
M  V30 5 C 0.2939 -0.7662 -0.0254 0
M  V30 6 C 4.5483 -0.162 -0.5421 0
M  V30 7 C -0.006 0.3916 0.7147 0
M  V30 8 C -0.7401 -1.4449 -0.6791 0
M  V30 9 C 4.6621 1.1636 0.2101 0
M  V30 10 C -1.3256 0.8421 0.8141 0
M  V30 11 C -2.06 -0.9952 -0.5801 0
M  V30 12 C -2.362 0.1631 0.1573 0
M  V30 13 N -3.7131 0.636 0.2955 0
M  V30 14 C -4.7156 0.5229 -0.7261 0
M  V30 15 O -4.3987 0.22 -1.9079 0
M  V30 16 C -6.1364 0.863 -0.414 0
M  V30 17 H 4.7059 -1.3961 1.2483 0
M  V30 18 H 4.1084 -2.256 -0.2075 0
M  V30 19 H 3.8677 -0.0374 -1.4126 0
M  V30 20 H 5.5524 -0.433 -0.9337 0
M  V30 21 H 0.7766 0.9646 1.1925 0
M  V30 22 H -0.5213 -2.3362 -1.2533 0
M  V30 23 H 3.663 1.5021 0.5575 0
M  V30 24 H 5.079 1.9387 -0.4665 0
M  V30 25 H 5.3383 1.0551 1.0845 0
M  V30 26 H -1.5395 1.7343 1.3894 0
M  V30 27 H -2.8426 -1.5677 -1.0593 0
M  V30 28 H -3.9612 1.1681 1.1605 0
M  V30 29 H -6.3991 0.4961 0.6002 0
M  V30 30 H -6.8182 0.3887 -1.1512 0
M  V30 31 H -6.2692 1.9642 -0.4502 0
M  V30 END ATOM
M  V30 BEGIN BOND
M  V30 1 2 1 2
M  V30 2 1 2 3
M  V30 3 1 2 4
M  V30 4 1 3 5
M  V30 5 1 4 6
M  V30 6 2 5 7
M  V30 7 1 5 8
M  V30 8 1 6 9
M  V30 9 1 7 10
M  V30 10 2 8 11
M  V30 11 2 10 12
M  V30 12 1 12 13
M  V30 13 1 13 14
M  V30 14 2 14 15
M  V30 15 1 14 16
M  V30 16 1 11 12
M  V30 17 1 4 17
M  V30 18 1 4 18
M  V30 19 1 6 19
M  V30 20 1 6 20
M  V30 21 1 7 21
M  V30 22 1 8 22
M  V30 23 1 9 23
M  V30 24 1 9 24
M  V30 25 1 9 25
M  V30 26 1 10 26
M  V30 27 1 11 27
M  V30 28 1 13 28
M  V30 29 1 16 29
M  V30 30 1 16 30
M  V30 31 1 16 31
M  V30 END BOND
M  V30 END CTAB
M  END
>  <Structure No>
7008

>  <LogS>
-2.83

>  <MMFF94 Energy>
6.1425

$$$$
Compound 7009
Actelion Java MolfileCreator 2.0

  0  0  0  0  0  0              0 V3000
M  V30 BEGIN CTAB
M  V30 COUNTS 18 19 0 0 0
M  V30 BEGIN ATOM
M  V30 1 O -2.5722 1.8482 -0.0803 0
M  V30 2 C -1.3827 1.4282 -0.0944 0
M  V30 3 N -1.106 0.0855 0.0047 0
M  V30 4 C -0.3386 2.353 -0.2108 0
M  V30 5 C 0.2007 -0.3353 0.0331 0
M  V30 6 C -2.1977 -0.8915 0.1537 0
M  V30 7 N 0.9478 1.9247 -0.2038 0
M  V30 8 N 0.5165 -1.6536 0.1724 0
M  V30 9 C 1.2394 0.6068 -0.0815 0
M  V30 10 C 1.8107 -2.0685 0.1961 0
M  V30 11 C 2.5603 0.1602 -0.0576 0
M  V30 12 N 2.8203 -1.1656 0.0806 0
M  V30 13 H -0.5492 3.4114 -0.2997 0
M  V30 14 H -2.3492 -1.119 1.2298 0
M  V30 15 H -3.1499 -0.5115 -0.2734 0
M  V30 16 H -1.9637 -1.8316 -0.39 0
M  V30 17 H 2.0377 -3.1198 0.3066 0
M  V30 18 H 3.3801 0.8619 -0.1446 0
M  V30 END ATOM
M  V30 BEGIN BOND
M  V30 1 2 1 2
M  V30 2 1 2 3
M  V30 3 1 2 4
M  V30 4 1 3 5
M  V30 5 1 3 6
M  V30 6 2 4 7
M  V30 7 2 5 8
M  V30 8 1 5 9
M  V30 9 1 8 10
M  V30 10 2 9 11
M  V30 11 2 10 12
M  V30 12 1 7 9
M  V30 13 1 11 12
M  V30 14 1 4 13
M  V30 15 1 6 14
M  V30 16 1 6 15
M  V30 17 1 6 16
M  V30 18 1 10 17
M  V30 19 1 11 18
M  V30 END BOND
M  V30 END CTAB
M  END
>  <Structure No>
7009

>  <LogS>
-0.92

>  <MMFF94 Energy>
35.269

$$$$
Compound 7010
Actelion Java MolfileCreator 2.0

  0  0  0  0  0  0              0 V3000
M  V30 BEGIN CTAB
M  V30 COUNTS 57 60 0 0 0
M  V30 BEGIN ATOM
M  V30 1 O 6.6498 -1.052 0.8901 0
M  V30 2 C 5.4701 -0.6343 0.7469 0
M  V30 3 C 4.6539 -1.1407 -0.3641 0
M  V30 4 C 4.9395 0.4086 1.6764 0
M  V30 5 C 3.3854 -0.74 -0.5667 0
M  V30 6 C 3.4075 0.3854 1.7121 0
M  V30 7 C 2.7495 0.372 0.2924 0 CFG=2
M  V30 8 C 2.6572 -1.2766 -1.7901 0
M  V30 9 C 1.2171 0.0527 0.4409 0 CFG=2
M  V30 10 C 2.9912 1.7424 -0.39 0
M  V30 11 C 1.1553 -1.4954 -1.5498 0
M  V30 12 C 0.5424 -0.2321 -0.9357 0 CFG=1
M  V30 13 C 0.3665 1.0649 1.2518 0
M  V30 14 C -1.0121 -0.1702 -0.8421 0 CFG=2
M  V30 15 C -1.0324 0.4839 1.6136 0
M  V30 16 C -1.6337 -0.4834 0.5287 0 CFG=1
M  V30 17 C -1.8842 -0.8976 -1.8568 0
M  V30 18 C -3.1517 -0.253 0.1945 0 CFG=2
M  V30 19 C -1.3958 -1.9738 0.9515 0
M  V30 20 C -3.2953 -0.8551 -1.238 0
M  V30 21 O -3.4015 1.1657 0.1528 0
M  V30 22 C -4.1114 -0.9099 1.2166 0
M  V30 23 C -4.6017 1.7974 -0.2082 0
M  V30 24 O -5.6 1.1372 -0.6034 0
M  V30 25 C -4.6743 3.2855 -0.1778 0
M  V30 26 H 5.1039 -1.873 -1.0246 0
M  V30 27 H 5.3067 1.4061 1.3568 0
M  V30 28 H 5.3267 0.2225 2.7016 0
M  V30 29 H 3.0764 1.2715 2.2929 0
M  V30 30 H 3.096 -0.5189 2.2811 0
M  V30 31 H 2.7946 -0.5537 -2.6234 0
M  V30 32 H 3.0918 -2.2457 -2.1202 0
M  V30 33 H 1.201 -0.8789 1.0355 0
M  V30 34 H 2.5706 1.7866 -1.4124 0
M  V30 35 H 2.5515 2.5665 0.2098 0
M  V30 36 H 4.0763 1.9422 -0.5019 0
M  V30 37 H 0.683 -1.7127 -2.5311 0
M  V30 38 H 1.0045 -2.3748 -0.89 0
M  V30 39 H 0.8005 0.5878 -1.6379 0
M  V30 40 H 0.2335 1.9946 0.6569 0
M  V30 41 H 0.8683 1.3487 2.1975 0
M  V30 42 H -1.2304 0.9113 -1.0315 0
M  V30 43 H -0.9479 -0.047 2.5869 0
M  V30 44 H -1.7065 1.3409 1.8168 0
M  V30 45 H -1.5618 -1.953 -1.9806 0
M  V30 46 H -1.8573 -0.3878 -2.8446 0
M  V30 47 H -1.7892 -2.1545 1.974 0
M  V30 48 H -0.3395 -2.2743 0.9714 0
M  V30 49 H -1.9034 -2.6856 0.2693 0
M  V30 50 H -3.9639 -0.2494 -1.8827 0
M  V30 51 H -3.7114 -1.8858 -1.2008 0
M  V30 52 H -4.0309 -2.0162 1.2098 0
M  V30 53 H -3.8869 -0.5372 2.2383 0
M  V30 54 H -5.1687 -0.6756 0.9876 0
M  V30 55 H -5.6848 3.6121 0.1468 0
M  V30 56 H -4.4666 3.6863 -1.1915 0
M  V30 57 H -3.9224 3.6869 0.5335 0
M  V30 END ATOM
M  V30 BEGIN BOND
M  V30 1 2 1 2
M  V30 2 1 2 3
M  V30 3 1 2 4
M  V30 4 2 3 5
M  V30 5 1 4 6
M  V30 6 1 5 7
M  V30 7 1 5 8
M  V30 8 1 7 9
M  V30 9 1 7 10
M  V30 10 1 8 11
M  V30 11 1 9 12
M  V30 12 1 9 13
M  V30 13 1 12 14
M  V30 14 1 13 15
M  V30 15 1 14 16
M  V30 16 1 14 17
M  V30 17 1 16 18
M  V30 18 1 16 19
M  V30 19 1 17 20
M  V30 20 1 18 21
M  V30 21 1 18 22
M  V30 22 1 21 23
M  V30 23 2 23 24
M  V30 24 1 23 25
M  V30 25 1 6 7
M  V30 26 1 11 12
M  V30 27 1 15 16
M  V30 28 1 18 20
M  V30 29 1 3 26
M  V30 30 1 4 27
M  V30 31 1 4 28
M  V30 32 1 6 29
M  V30 33 1 6 30
M  V30 34 1 8 31
M  V30 35 1 8 32
M  V30 36 1 9 33
M  V30 37 1 10 34
M  V30 38 1 10 35
M  V30 39 1 10 36
M  V30 40 1 11 37
M  V30 41 1 11 38
M  V30 42 1 12 39
M  V30 43 1 13 40
M  V30 44 1 13 41
M  V30 45 1 14 42
M  V30 46 1 15 43
M  V30 47 1 15 44
M  V30 48 1 17 45
M  V30 49 1 17 46
M  V30 50 1 19 47
M  V30 51 1 19 48
M  V30 52 1 19 49
M  V30 53 1 20 50
M  V30 54 1 20 51
M  V30 55 1 22 52
M  V30 56 1 22 53
M  V30 57 1 22 54
M  V30 58 1 25 55
M  V30 59 1 25 56
M  V30 60 1 25 57
M  V30 END BOND
M  V30 BEGIN COLLECTION
M  V30 MDLV30/STEABS ATOMS=(6 7 9 12 14 16 18)
M  V30 END COLLECTION
M  V30 END CTAB
M  END
>  <Structure No>
7010

>  <LogS>
-5.28

>  <MMFF94 Energy>
88.873

$$$$
Compound 7011
Actelion Java MolfileCreator 2.0

  0  0  0  0  0  0              0 V3000
M  V30 BEGIN CTAB
M  V30 COUNTS 18 19 0 0 0
M  V30 BEGIN ATOM
M  V30 1 O 0.8833 -0.1605 2.1692 0
M  V30 2 C 0.6136 -0.0807 0.9383 0
M  V30 3 N 1.6186 -0.045 0.0061 0
M  V30 4 C -0.7207 -0.0286 0.5241 0
M  V30 5 C 1.3153 0.0414 -1.3263 0
M  V30 6 C 3.0223 -0.0993 0.4325 0
M  V30 7 N -1.7505 -0.0613 1.4131 0
M  V30 8 C -0.9964 0.0595 -0.8477 0
M  V30 9 N 0.0218 0.0926 -1.7406 0
M  V30 10 C -3.0415 -0.0094 0.9887 0
M  V30 11 N -2.2869 0.1113 -1.2697 0
M  V30 12 C -3.3151 0.0786 -0.3801 0
M  V30 13 H 2.1004 0.0704 -2.0715 0
M  V30 14 H 3.2111 -1.0441 0.9856 0
M  V30 15 H 3.2477 0.7635 1.0952 0
M  V30 16 H 3.7191 -0.0609 -0.4326 0
M  V30 17 H -3.8494 -0.0363 1.7078 0
M  V30 18 H -4.3373 0.1207 -0.7319 0
M  V30 END ATOM
M  V30 BEGIN BOND
M  V30 1 2 1 2
M  V30 2 1 2 3
M  V30 3 1 2 4
M  V30 4 1 3 5
M  V30 5 1 3 6
M  V30 6 2 4 7
M  V30 7 1 4 8
M  V30 8 2 5 9
M  V30 9 1 7 10
M  V30 10 2 8 11
M  V30 11 2 10 12
M  V30 12 1 8 9
M  V30 13 1 11 12
M  V30 14 1 5 13
M  V30 15 1 6 14
M  V30 16 1 6 15
M  V30 17 1 6 16
M  V30 18 1 10 17
M  V30 19 1 12 18
M  V30 END BOND
M  V30 END CTAB
M  END
>  <Structure No>
7011

>  <LogS>
-1.07

>  <MMFF94 Energy>
55.599

$$$$
Compound 7012
Actelion Java MolfileCreator 2.0

  0  0  0  0  0  0              0 V3000
M  V30 BEGIN CTAB
M  V30 COUNTS 66 68 0 0 0
M  V30 BEGIN ATOM
M  V30 1 O 0.8813 0.1602 0.4005 0
M  V30 2 C 2.0638 0.6536 -0.2354 0 CFG=1
M  V30 3 C -0.2964 0.2457 -0.3826 0 CFG=2
M  V30 4 O 3.0125 -0.4021 -0.3377 0
M  V30 5 C 1.8561 1.2544 -1.6516 0 CFG=2
M  V30 6 C -0.5373 1.699 -0.8722 0 CFG=2
M  V30 7 C -1.4759 -0.2746 0.4484 0
M  V30 8 C 3.8502 -0.6111 0.806 0 CFG=1
M  V30 9 O 3.0243 1.9049 -2.0813 0
M  V30 10 C 0.6952 2.2601 -1.6363 0 CFG=2
M  V30 11 O -0.8772 2.5464 0.2011 0
M  V30 12 O -2.6612 -0.238 -0.3242 0
M  V30 13 O 4.3386 -1.9358 0.6902 0
M  V30 14 C 5.0826 0.3225 0.7841 0 CFG=2
M  V30 15 C 3.0983 -0.5292 2.1636 0
M  V30 16 O 0.3487 2.5724 -2.9622 0
M  V30 17 C -3.8047 -0.4437 0.4878 0 CFG=2
M  V30 18 C 5.6907 -1.8919 0.2787 0 CFG=2
M  V30 19 O 4.8119 1.5767 0.2161 0
M  V30 20 C 6.0588 -0.452 -0.059 0 CFG=2
M  V30 21 O 3.9091 -1.021 3.1978 0
M  V30 22 O -4.7885 -1.0842 -0.3157 0
M  V30 23 C -4.2986 0.9361 1.0415 0 CFG=2
M  V30 24 C 5.9018 -2.8469 -0.9037 0
M  V30 25 O 7.3885 -0.1754 0.3027 0
M  V30 26 C -6.0403 -1.1079 0.3476 0 CFG=1
M  V30 27 O -4.5791 0.8341 2.4147 0
M  V30 28 C -5.5627 1.4063 0.3057 0 CFG=2
M  V30 29 O 7.2683 -2.9923 -1.1855 0
M  V30 30 C -6.665 0.3173 0.3577 0 CFG=1
M  V30 31 C -6.9503 -2.1541 -0.3162 0
M  V30 32 O -5.2222 1.6974 -1.0283 0
M  V30 33 O -7.5618 0.4903 -0.7126 0
M  V30 34 O -6.4268 -3.444 -0.1322 0
M  V30 35 H 2.4393 1.4907 0.392 0
M  V30 36 H -0.2079 -0.4332 -1.2624 0
M  V30 37 H 1.6101 0.4326 -2.3665 0
M  V30 38 H -1.4086 1.6791 -1.5649 0
M  V30 39 H -1.2615 -1.326 0.7444 0
M  V30 40 H -1.5627 0.3381 1.3756 0
M  V30 41 H 3.6551 1.1988 -2.3824 0
M  V30 42 H 1.0559 3.1897 -1.1292 0
M  V30 43 H -0.1023 2.5712 0.8217 0
M  V30 44 H 5.4942 0.4483 1.8143 0
M  V30 45 H 2.8126 0.5206 2.3987 0
M  V30 46 H 2.178 -1.153 2.1075 0
M  V30 47 H -0.1897 3.4062 -2.9289 0
M  V30 48 H -3.5712 -1.134 1.3372 0
M  V30 49 H 6.3112 -2.2457 1.1338 0
M  V30 50 H 5.6019 2.1531 0.3986 0
M  V30 51 H 5.8881 -0.2398 -1.1425 0
M  V30 52 H 3.3745 -0.9441 4.0306 0
M  V30 53 H -3.5171 1.7182 0.8898 0
M  V30 54 H 5.3445 -2.4947 -1.8023 0
M  V30 55 H 5.495 -3.8455 -0.634 0
M  V30 56 H 7.6067 0.7111 -0.0888 0
M  V30 57 H -5.9097 -1.4415 1.4068 0
M  V30 58 H -3.7039 0.8306 2.8857 0
M  V30 59 H -5.938 2.3297 0.8103 0
M  V30 60 H 7.5281 -2.2244 -1.7589 0
M  V30 61 H -7.2233 0.4231 1.3187 0
M  V30 62 H -7.957 -2.1158 0.1518 0
M  V30 63 H -7.0702 -1.9389 -1.403 0
M  V30 64 H -5.8282 2.4235 -1.3342 0
M  V30 65 H -8.1446 1.2592 -0.4767 0
M  V30 66 H -5.7154 -3.5647 -0.8142 0
M  V30 END ATOM
M  V30 BEGIN BOND
M  V30 1 1 1 2
M  V30 2 1 1 3
M  V30 3 1 2 4
M  V30 4 1 2 5
M  V30 5 1 3 6
M  V30 6 1 3 7
M  V30 7 1 4 8
M  V30 8 1 5 9
M  V30 9 1 5 10
M  V30 10 1 6 11
M  V30 11 1 7 12
M  V30 12 1 8 13
M  V30 13 1 8 14
M  V30 14 1 8 15
M  V30 15 1 10 16
M  V30 16 1 12 17
M  V30 17 1 13 18
M  V30 18 1 14 19
M  V30 19 1 14 20
M  V30 20 1 15 21
M  V30 21 1 17 22
M  V30 22 1 17 23
M  V30 23 1 18 24
M  V30 24 1 20 25
M  V30 25 1 22 26
M  V30 26 1 23 27
M  V30 27 1 23 28
M  V30 28 1 24 29
M  V30 29 1 26 30
M  V30 30 1 26 31
M  V30 31 1 28 32
M  V30 32 1 30 33
M  V30 33 1 31 34
M  V30 34 1 6 10
M  V30 35 1 18 20
M  V30 36 1 28 30
M  V30 37 1 2 35
M  V30 38 1 3 36
M  V30 39 1 5 37
M  V30 40 1 6 38
M  V30 41 1 7 39
M  V30 42 1 7 40
M  V30 43 1 9 41
M  V30 44 1 10 42
M  V30 45 1 11 43
M  V30 46 1 14 44
M  V30 47 1 15 45
M  V30 48 1 15 46
M  V30 49 1 16 47
M  V30 50 1 17 48
M  V30 51 1 18 49
M  V30 52 1 19 50
M  V30 53 1 20 51
M  V30 54 1 21 52
M  V30 55 1 23 53
M  V30 56 1 24 54
M  V30 57 1 24 55
M  V30 58 1 25 56
M  V30 59 1 26 57
M  V30 60 1 27 58
M  V30 61 1 28 59
M  V30 62 1 29 60
M  V30 63 1 30 61
M  V30 64 1 31 62
M  V30 65 1 31 63
M  V30 66 1 32 64
M  V30 67 1 33 65
M  V30 68 1 34 66
M  V30 END BOND
M  V30 BEGIN COLLECTION
M  V30 MDLV30/STEABS ATOMS=(14 2 3 5 6 8 10 14 17 18 20 23 26 28 30)
M  V30 END COLLECTION
M  V30 END CTAB
M  END
>  <Structure No>
7012

>  <LogS>
0.3

>  <MMFF94 Energy>
312.2

$$$$
Compound 7013
Actelion Java MolfileCreator 2.0

  0  0  0  0  0  0              0 V3000
M  V30 BEGIN CTAB
M  V30 COUNTS 16 17 0 0 0
M  V30 BEGIN ATOM
M  V30 1 S -0.6453 2.9065 0.1613 0
M  V30 2 C -0.1348 1.3504 0.0948 0
M  V30 3 N 1.1997 1.047 0.1378 0
M  V30 4 C -1.032 0.2929 -0.0066 0
M  V30 5 C 1.6358 -0.2569 0.0826 0
M  V30 6 N -2.3698 0.2897 -0.0674 0
M  V30 7 C -0.5827 -0.9804 -0.0596 0
M  V30 8 N 0.7356 -1.283 -0.0172 0
M  V30 9 N 3.0325 -0.5483 0.1292 0
M  V30 10 C -2.6856 -1.0268 -0.1574 0
M  V30 11 N -1.602 -1.8504 -0.1558 0
M  V30 12 H 1.9017 1.8179 0.2141 0
M  V30 13 H -3.0237 1.1037 -0.05 0
M  V30 14 H 3.3661 -1.5367 0.0874 0
M  V30 15 H 3.7355 0.2197 0.2053 0
M  V30 16 H -3.7031 -1.389 -0.2244 0
M  V30 END ATOM
M  V30 BEGIN BOND
M  V30 1 2 1 2
M  V30 2 1 2 3
M  V30 3 1 2 4
M  V30 4 1 3 5
M  V30 5 1 4 6
M  V30 6 2 4 7
M  V30 7 2 5 8
M  V30 8 1 5 9
M  V30 9 1 6 10
M  V30 10 1 7 11
M  V30 11 1 7 8
M  V30 12 2 10 11
M  V30 13 1 3 12
M  V30 14 1 6 13
M  V30 15 1 9 14
M  V30 16 1 9 15
M  V30 17 1 10 16
M  V30 END BOND
M  V30 END CTAB
M  END
>  <Structure No>
7013

>  <LogS>
-3.31

>  <MMFF94 Energy>
-141.22

$$$$
Compound 7014
Actelion Java MolfileCreator 2.0

  0  0  0  0  0  0              0 V3000
M  V30 BEGIN CTAB
M  V30 COUNTS 33 33 0 0 0
M  V30 BEGIN ATOM
M  V30 1 O 4.3594 1.1874 0.1582 0
M  V30 2 C 4.2644 -0.0601 0.3272 0
M  V30 3 O 3.0105 -0.6707 0.4043 0
M  V30 4 O 5.4111 -0.8514 0.4479 0
M  V30 5 C 1.794 0.0583 0.2925 0
M  V30 6 C 6.7367 -0.3359 0.3401 0
M  V30 7 O 0.6989 -0.8441 0.4104 0
M  V30 8 C 7.09 -0.0578 -1.1164 0
M  V30 9 C -0.6503 -0.4659 0.3443 0
M  V30 10 C -1.6267 -1.4593 0.4774 0
M  V30 11 C -1.0526 0.8697 0.1554 0
M  V30 12 C -2.9852 -1.1348 0.4165 0
M  V30 13 C -2.4111 1.1945 0.0955 0
M  V30 14 C -3.3889 0.1954 0.2064 0
M  V30 15 N -4.7791 0.5616 0.1635 0
M  V30 16 C -5.817 -0.2744 -0.3711 0
M  V30 17 O -5.5335 -1.2881 -1.0646 0
M  V30 18 C -7.249 0.1112 -0.1902 0
M  V30 19 H 1.7418 0.8154 1.1052 0
M  V30 20 H 1.756 0.5628 -0.6976 0
M  V30 21 H 6.8437 0.5894 0.9471 0
M  V30 22 H 7.4438 -1.093 0.7397 0
M  V30 23 H 6.4278 0.7298 -1.5324 0
M  V30 24 H 6.9758 -0.9847 -1.7173 0
M  V30 25 H 8.1425 0.2886 -1.1855 0
M  V30 26 H -1.3305 -2.4883 0.6379 0
M  V30 27 H -0.325 1.6635 0.0559 0
M  V30 28 H -3.7151 -1.9201 0.5598 0
M  V30 29 H -2.7036 2.2274 -0.0479 0
M  V30 30 H -5.0423 1.5276 0.4644 0
M  V30 31 H -7.5229 0.8789 -0.9433 0
M  V30 32 H -7.4034 0.5261 0.8279 0
M  V30 33 H -7.9068 -0.7748 -0.3164 0
M  V30 END ATOM
M  V30 BEGIN BOND
M  V30 1 2 1 2
M  V30 2 1 2 3
M  V30 3 1 2 4
M  V30 4 1 3 5
M  V30 5 1 4 6
M  V30 6 1 5 7
M  V30 7 1 6 8
M  V30 8 1 7 9
M  V30 9 2 9 10
M  V30 10 1 9 11
M  V30 11 1 10 12
M  V30 12 2 11 13
M  V30 13 2 12 14
M  V30 14 1 14 15
M  V30 15 1 15 16
M  V30 16 2 16 17
M  V30 17 1 16 18
M  V30 18 1 13 14
M  V30 19 1 5 19
M  V30 20 1 5 20
M  V30 21 1 6 21
M  V30 22 1 6 22
M  V30 23 1 8 23
M  V30 24 1 8 24
M  V30 25 1 8 25
M  V30 26 1 10 26
M  V30 27 1 11 27
M  V30 28 1 12 28
M  V30 29 1 13 29
M  V30 30 1 15 30
M  V30 31 1 18 31
M  V30 32 1 18 32
M  V30 33 1 18 33
M  V30 END BOND
M  V30 END CTAB
M  END
>  <Structure No>
7014

>  <LogS>
-2.43

>  <MMFF94 Energy>
-45.019

$$$$
Compound 7015
Actelion Java MolfileCreator 2.0

  0  0  0  0  0  0              0 V3000
M  V30 BEGIN CTAB
M  V30 COUNTS 46 49 0 0 0
M  V30 BEGIN ATOM
M  V30 1 O -5.7947 -0.6516 0.7331 0
M  V30 2 C -4.5944 -0.3045 0.574 0
M  V30 3 C -3.6602 -1.2128 -0.1 0
M  V30 4 C -4.1516 1.0507 1.0155 0
M  V30 5 C -2.3613 -0.9063 -0.2745 0
M  V30 6 C -2.6457 1.0655 1.2954 0
M  V30 7 C -1.7862 0.4614 0.1348 0 CFG=1
M  V30 8 C -1.5068 -1.8587 -1.0767 0
M  V30 9 C -0.2961 0.2766 0.6348 0 CFG=2
M  V30 10 C -1.8474 1.4041 -1.0938 0
M  V30 11 C -0.1215 -2.0008 -0.4578 0
M  V30 12 C 0.4401 1.5853 0.888 0
M  V30 13 C 0.5498 -0.6242 -0.317 0 CFG=2
M  V30 14 O -0.005 2.4155 1.6647 0
M  V30 15 C 1.7974 1.8028 0.2846 0
M  V30 16 C 2.0271 -0.7709 0.173 0 CFG=2
M  V30 17 C 2.6926 0.5804 0.5963 0 CFG=1
M  V30 18 C 2.9321 -1.4006 -0.9189 0
M  V30 19 C 3.9401 0.6424 -0.22 0
M  V30 20 C 3.0757 0.561 2.0935 0
M  V30 21 C 4.1717 -0.5296 -1.0886 0
M  V30 22 O 4.7226 1.58 -0.1704 0
M  V30 23 H -4.0496 -2.159 -0.4575 0
M  V30 24 H -4.695 1.3362 1.9425 0
M  V30 25 H -4.4079 1.7934 0.2312 0
M  V30 26 H -2.3672 2.12 1.4931 0
M  V30 27 H -2.4656 0.4918 2.2318 0
M  V30 28 H -1.9649 -2.8712 -1.1299 0
M  V30 29 H -1.4169 -1.478 -2.1167 0
M  V30 30 H -0.3313 -0.2496 1.6157 0
M  V30 31 H -2.88 1.4651 -1.4963 0
M  V30 32 H -1.204 1.0434 -1.9202 0
M  V30 33 H -1.5231 2.4314 -0.8248 0
M  V30 34 H 0.4837 -2.6647 -1.1108 0
M  V30 35 H -0.2063 -2.4912 0.5374 0
M  V30 36 H 0.5803 -0.1518 -1.3226 0
M  V30 37 H 1.6814 1.9321 -0.8139 0
M  V30 38 H 2.2559 2.736 0.6817 0
M  V30 39 H 2.0205 -1.4667 1.044 0
M  V30 40 H 3.2289 -2.4308 -0.623 0
M  V30 41 H 2.412 -1.4717 -1.8993 0
M  V30 42 H 3.5701 1.5124 2.3863 0
M  V30 43 H 2.1735 0.4258 2.7273 0
M  V30 44 H 3.7767 -0.2749 2.3077 0
M  V30 45 H 4.2872 -0.2047 -2.1453 0
M  V30 46 H 5.0845 -1.0692 -0.7564 0
M  V30 END ATOM
M  V30 BEGIN BOND
M  V30 1 2 1 2
M  V30 2 1 2 3
M  V30 3 1 2 4
M  V30 4 2 3 5
M  V30 5 1 4 6
M  V30 6 1 5 7
M  V30 7 1 5 8
M  V30 8 1 7 9
M  V30 9 1 7 10
M  V30 10 1 8 11
M  V30 11 1 9 12
M  V30 12 1 9 13
M  V30 13 2 12 14
M  V30 14 1 12 15
M  V30 15 1 13 16
M  V30 16 1 15 17
M  V30 17 1 16 18
M  V30 18 1 17 19
M  V30 19 1 17 20
M  V30 20 1 18 21
M  V30 21 2 19 22
M  V30 22 1 6 7
M  V30 23 1 11 13
M  V30 24 1 16 17
M  V30 25 1 19 21
M  V30 26 1 3 23
M  V30 27 1 4 24
M  V30 28 1 4 25
M  V30 29 1 6 26
M  V30 30 1 6 27
M  V30 31 1 8 28
M  V30 32 1 8 29
M  V30 33 1 9 30
M  V30 34 1 10 31
M  V30 35 1 10 32
M  V30 36 1 10 33
M  V30 37 1 11 34
M  V30 38 1 11 35
M  V30 39 1 13 36
M  V30 40 1 15 37
M  V30 41 1 15 38
M  V30 42 1 16 39
M  V30 43 1 18 40
M  V30 44 1 18 41
M  V30 45 1 20 42
M  V30 46 1 20 43
M  V30 47 1 20 44
M  V30 48 1 21 45
M  V30 49 1 21 46
M  V30 END BOND
M  V30 BEGIN COLLECTION
M  V30 MDLV30/STEABS ATOMS=(5 7 9 13 16 17)
M  V30 END COLLECTION
M  V30 END CTAB
M  END
>  <Structure No>
7015

>  <LogS>
-3.48

>  <MMFF94 Energy>
57.315

$$$$
Compound 7016
Actelion Java MolfileCreator 2.0

  0  0  0  0  0  0              0 V3000
M  V30 BEGIN CTAB
M  V30 COUNTS 62 65 0 0 0
M  V30 BEGIN ATOM
M  V30 1 O -7.374 1.8598 -0.1616 0
M  V30 2 C -6.1396 1.6244 -0.0773 0
M  V30 3 C -5.463 0.8768 -1.1456 0
M  V30 4 C -5.3507 2.1691 1.0702 0
M  V30 5 C -4.1558 0.5716 -1.0744 0
M  V30 6 C -4.1732 1.2449 1.3789 0
M  V30 7 C -3.2985 0.9905 0.1208 0 CFG=1
M  V30 8 C -3.5089 -0.0452 -2.2861 0
M  V30 9 C -2.1672 -0.0511 0.436 0 CFG=1
M  V30 10 C -1.9913 -0.1019 -2.1457 0
M  V30 11 C -1.6046 -0.804 -0.8345 0 CFG=1
M  V30 12 C -1.0335 0.6164 1.2756 0
M  V30 13 C -0.069 -0.9748 -0.7523 0 CFG=1
M  V30 14 C 0.0976 -0.3571 1.6965 0
M  V30 15 C 0.4071 -1.4545 0.6284 0 CFG=2
M  V30 16 C 0.596 -1.9194 -1.7515 0
M  V30 17 C 1.9195 -1.6917 0.3313 0 CFG=1
M  V30 18 C -0.2903 -2.7915 1.0562 0
M  V30 19 C 1.91 -2.347 -1.0748 0
M  V30 20 O 2.5928 -0.4241 0.2672 0
M  V30 21 C 2.5794 -2.5489 1.3426 0
M  V30 22 C 3.9558 -0.2304 -0.0054 0
M  V30 23 C 3.1195 -3.2448 2.1658 0
M  V30 24 O 4.7276 -1.221 -0.1369 0
M  V30 25 C 4.5033 1.1813 -0.057 0
M  V30 26 C 3.4647 2.1155 -0.71 0
M  V30 27 C 5.8068 1.233 -0.8813 0
M  V30 28 C 4.785 1.6524 1.3797 0
M  V30 29 H -6.0397 0.5916 -2.0184 0
M  V30 30 H -4.9765 3.1817 0.806 0
M  V30 31 H -5.9982 2.2543 1.9699 0
M  V30 32 H -3.5734 1.7171 2.1836 0
M  V30 33 H -4.5699 0.2806 1.768 0
M  V30 34 H -2.822 1.9561 -0.1613 0
M  V30 35 H -3.9092 -1.0727 -2.4304 0
M  V30 36 H -3.7556 0.554 -3.1902 0
M  V30 37 H -2.6236 -0.8287 1.0853 0
M  V30 38 H -1.5719 0.9286 -2.1687 0
M  V30 39 H -1.5808 -0.6582 -3.0157 0
M  V30 40 H -2.0628 -1.8182 -0.8684 0
M  V30 41 H -0.5897 1.4476 0.6846 0
M  V30 42 H -1.4455 1.069 2.2003 0
M  V30 43 H 0.3778 0.0308 -0.9456 0
M  V30 44 H -0.1852 -0.8291 2.6634 0
M  V30 45 H 0.9964 0.2515 1.9279 0
M  V30 46 H 0.7969 -1.3994 -2.7136 0
M  V30 47 H -0.0464 -2.8053 -1.9482 0
M  V30 48 H 0.1053 -3.1443 2.0318 0
M  V30 49 H -1.3806 -2.6731 1.1954 0
M  V30 50 H -0.1322 -3.6028 0.3168 0
M  V30 51 H 2.7783 -2.0264 -1.6883 0
M  V30 52 H 1.9397 -3.4572 -1.0007 0
M  V30 53 H 3.5934 -3.8558 2.8883 0
M  V30 54 H 3.8602 3.1517 -0.7835 0
M  V30 55 H 2.5273 2.1497 -0.1125 0
M  V30 56 H 3.2134 1.7626 -1.734 0
M  V30 57 H 6.596 0.6047 -0.4143 0
M  V30 58 H 5.6286 0.8643 -1.9148 0
M  V30 59 H 6.1909 2.2743 -0.9429 0
M  V30 60 H 5.1808 2.691 1.3812 0
M  V30 61 H 5.534 0.9915 1.8676 0
M  V30 62 H 3.8543 1.6322 1.988 0
M  V30 END ATOM
M  V30 BEGIN BOND
M  V30 1 2 1 2
M  V30 2 1 2 3
M  V30 3 1 2 4
M  V30 4 2 3 5
M  V30 5 1 4 6
M  V30 6 1 5 7
M  V30 7 1 5 8
M  V30 8 1 7 9
M  V30 9 1 8 10
M  V30 10 1 9 11
M  V30 11 1 9 12
M  V30 12 1 11 13
M  V30 13 1 12 14
M  V30 14 1 13 15
M  V30 15 1 13 16
M  V30 16 1 15 17
M  V30 17 1 15 18
M  V30 18 1 16 19
M  V30 19 1 17 20
M  V30 20 1 17 21
M  V30 21 1 20 22
M  V30 22 3 21 23
M  V30 23 2 22 24
M  V30 24 1 22 25
M  V30 25 1 25 26
M  V30 26 1 25 27
M  V30 27 1 25 28
M  V30 28 1 6 7
M  V30 29 1 10 11
M  V30 30 1 14 15
M  V30 31 1 17 19
M  V30 32 1 3 29
M  V30 33 1 4 30
M  V30 34 1 4 31
M  V30 35 1 6 32
M  V30 36 1 6 33
M  V30 37 1 7 34
M  V30 38 1 8 35
M  V30 39 1 8 36
M  V30 40 1 9 37
M  V30 41 1 10 38
M  V30 42 1 10 39
M  V30 43 1 11 40
M  V30 44 1 12 41
M  V30 45 1 12 42
M  V30 46 1 13 43
M  V30 47 1 14 44
M  V30 48 1 14 45
M  V30 49 1 16 46
M  V30 50 1 16 47
M  V30 51 1 18 48
M  V30 52 1 18 49
M  V30 53 1 18 50
M  V30 54 1 19 51
M  V30 55 1 19 52
M  V30 56 1 23 53
M  V30 57 1 26 54
M  V30 58 1 26 55
M  V30 59 1 26 56
M  V30 60 1 27 57
M  V30 61 1 27 58
M  V30 62 1 27 59
M  V30 63 1 28 60
M  V30 64 1 28 61
M  V30 65 1 28 62
M  V30 END BOND
M  V30 BEGIN COLLECTION
M  V30 MDLV30/STEABS ATOMS=(6 7 9 11 13 15 17)
M  V30 END COLLECTION
M  V30 END CTAB
M  END
>  <Structure No>
7016

>  <LogS>
-7.16

>  <MMFF94 Energy>
69.167

$$$$
Compound 7017
Actelion Java MolfileCreator 2.0

  0  0  0  0  0  0              0 V3000
M  V30 BEGIN CTAB
M  V30 COUNTS 29 29 0 0 0
M  V30 BEGIN ATOM
M  V30 1 O 3.1217 2.9615 -1.3598 0
M  V30 2 C 2.2062 2.1586 -1.0359 0
M  V30 3 O 0.8945 2.4812 -1.3632 0 CHG=-1
M  V30 4 C 2.5332 0.8981 -0.3178 0
M  V30 5 C 1.5305 -0.0361 0.0408 0
M  V30 6 C 3.8729 0.6276 0.0253 0
M  V30 7 O 0.1929 0.2098 -0.3061 0
M  V30 8 C 1.8966 -1.2245 0.7027 0
M  V30 9 C 4.2145 -0.5462 0.6985 0
M  V30 10 C -0.9277 -0.2236 0.4172 0
M  V30 11 C 3.229 -1.4722 1.0325 0
M  V30 12 O -0.8074 -0.5744 1.6241 0
M  V30 13 C -2.3048 -0.1253 -0.2089 0
M  V30 14 C -2.2038 -0.3124 -1.7361 0
M  V30 15 C -2.8901 1.2634 0.0988 0
M  V30 16 C -3.2341 -1.2157 0.3637 0
M  V30 17 H 4.6619 1.3251 -0.2269 0
M  V30 18 H 1.1568 -1.9772 0.9392 0
M  V30 19 H 5.2479 -0.7416 0.9543 0
M  V30 20 H 3.4992 -2.3892 1.5405 0
M  V30 21 H -3.2116 -0.2752 -2.2037 0
M  V30 22 H -1.5858 0.4894 -2.1953 0
M  V30 23 H -1.7418 -1.294 -1.9782 0
M  V30 24 H -2.9797 1.416 1.1963 0
M  V30 25 H -2.2358 2.0633 -0.3116 0
M  V30 26 H -3.9001 1.3721 -0.3525 0
M  V30 27 H -3.373 -1.0845 1.4588 0
M  V30 28 H -4.2362 -1.1683 -0.115 0
M  V30 29 H -2.8068 -2.2256 0.1822 0
M  V30 END ATOM
M  V30 BEGIN BOND
M  V30 1 2 1 2
M  V30 2 1 2 3
M  V30 3 1 2 4
M  V30 4 2 4 5
M  V30 5 1 4 6
M  V30 6 1 5 7
M  V30 7 1 5 8
M  V30 8 2 6 9
M  V30 9 1 7 10
M  V30 10 2 8 11
M  V30 11 2 10 12
M  V30 12 1 10 13
M  V30 13 1 13 14
M  V30 14 1 13 15
M  V30 15 1 13 16
M  V30 16 1 9 11
M  V30 17 1 6 17
M  V30 18 1 8 18
M  V30 19 1 9 19
M  V30 20 1 11 20
M  V30 21 1 14 21
M  V30 22 1 14 22
M  V30 23 1 14 23
M  V30 24 1 15 24
M  V30 25 1 15 25
M  V30 26 1 15 26
M  V30 27 1 16 27
M  V30 28 1 16 28
M  V30 29 1 16 29
M  V30 END BOND
M  V30 END CTAB
M  END
>  <Structure No>
7017

>  <LogS>
-3.01

>  <MMFF94 Energy>
52.761

$$$$
Compound 7018
Actelion Java MolfileCreator 2.0

  0  0  0  0  0  0              0 V3000
M  V30 BEGIN CTAB
M  V30 COUNTS 37 37 0 0 0
M  V30 BEGIN ATOM
M  V30 1 O -2.3656 1.5765 0.2363 0
M  V30 2 C -2.7746 0.4165 -0.0432 0
M  V30 3 N -1.9426 -0.4578 -0.8208 0
M  V30 4 C -4.0985 -0.0267 0.4579 0
M  V30 5 N -0.7713 0.0132 -1.442 0
M  V30 6 C -4.6712 0.5959 1.5801 0
M  V30 7 C -4.8163 -1.0512 -0.1839 0
M  V30 8 C 0.1016 -0.8684 -2.16 0
M  V30 9 C -5.9209 0.1772 2.0433 0
M  V30 10 C -6.0641 -1.4375 0.3124 0
M  V30 11 O -0.1648 -2.0977 -2.2449 0
M  V30 12 C 1.3629 -0.343 -2.782 0
M  V30 13 N -6.585 -0.822 1.406 0
M  V30 14 C 2.5798 -0.5636 -1.8737 0
M  V30 15 C 2.5238 0.2987 -0.6037 0
M  V30 16 C 3.7916 0.1197 0.2391 0
M  V30 17 C 3.7317 0.9742 1.5105 0
M  V30 18 C 4.9919 0.7986 2.3528 0
M  V30 19 H -2.1835 -1.4716 -0.8837 0
M  V30 20 H -0.5211 1.0259 -1.3814 0
M  V30 21 H -4.1535 1.3917 2.1014 0
M  V30 22 H -4.4363 -1.5351 -1.0733 0
M  V30 23 H -6.3633 0.6483 2.9109 0
M  V30 24 H -6.6223 -2.2239 -0.1778 0
M  V30 25 H 1.5338 -0.8726 -3.7441 0
M  V30 26 H 1.2539 0.7377 -3.0181 0
M  V30 27 H 3.4937 -0.3003 -2.4498 0
M  V30 28 H 2.6505 -1.6391 -1.5981 0
M  V30 29 H 1.6406 0.0067 0.0051 0
M  V30 30 H 2.4195 1.369 -0.8886 0
M  V30 31 H 4.6788 0.4174 -0.3622 0
M  V30 32 H 3.8979 -0.9514 0.5204 0
M  V30 33 H 2.8488 0.6799 2.1193 0
M  V30 34 H 3.6287 2.0471 1.237 0
M  V30 35 H 5.8883 1.1106 1.7755 0
M  V30 36 H 4.9202 1.4281 3.2647 0
M  V30 37 H 5.1049 -0.2624 2.6615 0
M  V30 END ATOM
M  V30 BEGIN BOND
M  V30 1 2 1 2
M  V30 2 1 2 3
M  V30 3 1 2 4
M  V30 4 1 3 5
M  V30 5 2 4 6
M  V30 6 1 4 7
M  V30 7 1 5 8
M  V30 8 1 6 9
M  V30 9 2 7 10
M  V30 10 2 8 11
M  V30 11 1 8 12
M  V30 12 2 9 13
M  V30 13 1 12 14
M  V30 14 1 14 15
M  V30 15 1 15 16
M  V30 16 1 16 17
M  V30 17 1 17 18
M  V30 18 1 10 13
M  V30 19 1 3 19
M  V30 20 1 5 20
M  V30 21 1 6 21
M  V30 22 1 7 22
M  V30 23 1 9 23
M  V30 24 1 10 24
M  V30 25 1 12 25
M  V30 26 1 12 26
M  V30 27 1 14 27
M  V30 28 1 14 28
M  V30 29 1 15 29
M  V30 30 1 15 30
M  V30 31 1 16 31
M  V30 32 1 16 32
M  V30 33 1 17 33
M  V30 34 1 17 34
M  V30 35 1 18 35
M  V30 36 1 18 36
M  V30 37 1 18 37
M  V30 END BOND
M  V30 END CTAB
M  END
>  <Structure No>
7018

>  <LogS>
-2.1

>  <MMFF94 Energy>
26.866

$$$$
Compound 7019
Actelion Java MolfileCreator 2.0

  0  0  0  0  0  0              0 V3000
M  V30 BEGIN CTAB
M  V30 COUNTS 20 21 0 0 0
M  V30 BEGIN ATOM
M  V30 1 N -1.8761 0.625 -0.3125 0 CHG=1
M  V30 2 C -2.1464 -0.6838 0.0138 0
M  V30 3 C -0.5933 1.1036 -0.3295 0
M  V30 4 N -1.1283 -1.5409 0.3307 0
M  V30 5 N -3.4932 -1.1566 0.0239 0
M  V30 6 N -0.327 2.4667 -0.6706 0
M  V30 7 C 0.4275 0.2152 -0.004 0
M  V30 8 C 0.1398 -1.0687 0.3142 0
M  V30 9 N 1.7523 0.4007 0.0608 0
M  V30 10 N 1.255 -1.7632 0.596 0
M  V30 11 C 2.2196 -0.8191 0.4271 0
M  V30 12 N 3.6057 -1.0909 0.6195 0
M  V30 13 H -2.6651 1.2671 -0.552 0
M  V30 14 H -3.7011 -2.1494 0.2711 0
M  V30 15 H -4.2846 -0.5188 -0.2146 0
M  V30 16 H -1.1112 3.1127 -0.9109 0
M  V30 17 H 0.6462 2.8427 -0.6869 0
M  V30 18 H 2.3017 1.2689 -0.1235 0
M  V30 19 H 3.9205 -2.0453 0.9017 0
M  V30 20 H 4.3156 -0.3385 0.4798 0
M  V30 END ATOM
M  V30 BEGIN BOND
M  V30 1 2 1 2
M  V30 2 1 1 3
M  V30 3 1 2 4
M  V30 4 1 2 5
M  V30 5 1 3 6
M  V30 6 2 3 7
M  V30 7 2 4 8
M  V30 8 1 7 9
M  V30 9 1 8 10
M  V30 10 1 9 11
M  V30 11 1 11 12
M  V30 12 1 7 8
M  V30 13 2 10 11
M  V30 14 1 1 13
M  V30 15 1 5 14
M  V30 16 1 5 15
M  V30 17 1 6 16
M  V30 18 1 6 17
M  V30 19 1 9 18
M  V30 20 1 12 19
M  V30 21 1 12 20
M  V30 END BOND
M  V30 END CTAB
M  END
>  <Structure No>
7019

>  <LogS>
-1.52

>  <MMFF94 Energy>
-131.54

$$$$
Compound 7020
Actelion Java MolfileCreator 2.0

  0  0  0  0  0  0              0 V3000
M  V30 BEGIN CTAB
M  V30 COUNTS 17 18 0 0 0
M  V30 BEGIN ATOM
M  V30 1 O 3.0009 -1.9457 0.162 0
M  V30 2 C 2.5214 -0.7827 0.0981 0
M  V30 3 N 3.3551 0.2899 0.0529 0
M  V30 4 C 1.1384 -0.5813 0.0733 0
M  V30 5 C 2.8677 1.5585 -0.0163 0
M  V30 6 N 0.2588 -1.6174 0.1164 0
M  V30 7 C 0.655 0.7353 0.0017 0
M  V30 8 N 1.5256 1.7761 -0.0414 0 CHG=-1
M  V30 9 C -1.0825 -1.396 0.091 0
M  V30 10 N -0.685 0.9543 -0.0235 0
M  V30 11 C -1.5679 -0.0813 0.0195 0
M  V30 12 C -3.0387 0.1856 -0.0095 0
M  V30 13 H 3.55 2.3966 -0.0513 0
M  V30 14 H -1.7651 -2.2354 0.1263 0
M  V30 15 H -3.5107 -0.2144 0.9123 0
M  V30 16 H -3.4916 -0.306 -0.8959 0
M  V30 17 H -3.2361 1.2771 -0.0667 0
M  V30 END ATOM
M  V30 BEGIN BOND
M  V30 1 2 1 2
M  V30 2 1 2 3
M  V30 3 1 2 4
M  V30 4 2 3 5
M  V30 5 2 4 6
M  V30 6 1 4 7
M  V30 7 1 5 8
M  V30 8 1 6 9
M  V30 9 2 7 10
M  V30 10 2 9 11
M  V30 11 1 11 12
M  V30 12 1 7 8
M  V30 13 1 10 11
M  V30 14 1 5 13
M  V30 15 1 9 14
M  V30 16 1 12 15
M  V30 17 1 12 16
M  V30 18 1 12 17
M  V30 END BOND
M  V30 END CTAB
M  END
>  <Structure No>
7020

>  <LogS>
-1.56

>  <MMFF94 Energy>
117.52

$$$$
Compound 7021
Actelion Java MolfileCreator 2.0

  0  0  0  0  0  0              0 V3000
M  V30 BEGIN CTAB
M  V30 COUNTS 34 34 0 0 0
M  V30 BEGIN ATOM
M  V30 1 O -1.0257 2.7635 0.8678 0
M  V30 2 C -0.9144 1.6087 0.3706 0
M  V30 3 O -2.0542 0.9142 -0.0479 0
M  V30 4 C 0.4195 0.9852 0.2286 0
M  V30 5 C -3.3701 1.4462 0.0724 0
M  V30 6 C 1.579 1.6673 0.6376 0
M  V30 7 C 0.5443 -0.3064 -0.3099 0
M  V30 8 C -4.3905 0.4469 -0.472 0
M  V30 9 C 2.8371 1.0732 0.501 0
M  V30 10 C 1.8028 -0.8994 -0.4446 0
M  V30 11 C -4.4146 -0.8447 0.3551 0
M  V30 12 C 2.9608 -0.2098 -0.0592 0
M  V30 13 C -5.4526 -1.8243 -0.1844 0
M  V30 14 N 4.2405 -0.8533 -0.1888 0
M  V30 15 C 5.4666 -0.1603 -0.4691 0
M  V30 16 O 5.4535 1.0367 -0.8642 0
M  V30 17 C 6.7676 -0.89 -0.3887 0
M  V30 18 H -3.4414 2.3894 -0.5117 0
M  V30 19 H -3.5921 1.671 1.1388 0
M  V30 20 H 1.5142 2.6574 1.0713 0
M  V30 21 H -0.3299 -0.8619 -0.6257 0
M  V30 22 H -5.3971 0.9192 -0.4489 0
M  V30 23 H -4.1407 0.2124 -1.53 0
M  V30 24 H 3.7067 1.6082 0.8581 0
M  V30 25 H 1.8771 -1.8965 -0.8603 0
M  V30 26 H -4.6598 -0.608 1.4135 0
M  V30 27 H -3.4153 -1.3312 0.3258 0
M  V30 28 H -5.2165 -2.0963 -1.2352 0
M  V30 29 H -5.4472 -2.7483 0.4314 0
M  V30 30 H -6.4675 -1.3743 -0.1406 0
M  V30 31 H 4.2705 -1.8978 -0.1587 0
M  V30 32 H 6.9216 -1.4744 -1.3195 0
M  V30 33 H 6.7605 -1.5811 0.4802 0
M  V30 34 H 7.6063 -0.1722 -0.2653 0
M  V30 END ATOM
M  V30 BEGIN BOND
M  V30 1 2 1 2
M  V30 2 1 2 3
M  V30 3 1 2 4
M  V30 4 1 3 5
M  V30 5 2 4 6
M  V30 6 1 4 7
M  V30 7 1 5 8
M  V30 8 1 6 9
M  V30 9 2 7 10
M  V30 10 1 8 11
M  V30 11 2 9 12
M  V30 12 1 11 13
M  V30 13 1 12 14
M  V30 14 1 14 15
M  V30 15 2 15 16
M  V30 16 1 15 17
M  V30 17 1 10 12
M  V30 18 1 5 18
M  V30 19 1 5 19
M  V30 20 1 6 20
M  V30 21 1 7 21
M  V30 22 1 8 22
M  V30 23 1 8 23
M  V30 24 1 9 24
M  V30 25 1 10 25
M  V30 26 1 11 26
M  V30 27 1 11 27
M  V30 28 1 13 28
M  V30 29 1 13 29
M  V30 30 1 13 30
M  V30 31 1 14 31
M  V30 32 1 17 32
M  V30 33 1 17 33
M  V30 34 1 17 34
M  V30 END BOND
M  V30 END CTAB
M  END
>  <Structure No>
7021

>  <LogS>
-3.46

>  <MMFF94 Energy>
9.8828

$$$$
Compound 7022
Actelion Java MolfileCreator 2.0

  0  0  0  0  0  0              0 V3000
M  V30 BEGIN CTAB
M  V30 COUNTS 17 18 0 0 0
M  V30 BEGIN ATOM
M  V30 1 O 1.2157 -2.7573 -0.7293 0
M  V30 2 C 1.5922 -1.5752 -0.5114 0
M  V30 3 N 2.9188 -1.2787 -0.5069 0
M  V30 4 C 0.6596 -0.5617 -0.2735 0
M  V30 5 C 3.3566 -0.0115 -0.2748 0
M  V30 6 N -0.6789 -0.8017 -0.2663 0
M  V30 7 C 1.1312 0.7397 -0.036 0
M  V30 8 N 2.4657 0.989 -0.0411 0 CHG=-1
M  V30 9 C -1.5698 0.2006 -0.0322 0
M  V30 10 N 0.2426 1.74 0.1974 0
M  V30 11 C -1.096 1.4999 0.2046 0
M  V30 12 C -3.0372 -0.086 -0.0291 0
M  V30 13 H 4.4168 0.2007 -0.276 0
M  V30 14 H -1.7851 2.3131 0.3931 0
M  V30 15 H -3.225 -1.1615 -0.2335 0
M  V30 16 H -3.5392 0.5191 -0.813 0
M  V30 17 H -3.467 0.1691 0.9622 0
M  V30 END ATOM
M  V30 BEGIN BOND
M  V30 1 2 1 2
M  V30 2 1 2 3
M  V30 3 1 2 4
M  V30 4 2 3 5
M  V30 5 2 4 6
M  V30 6 1 4 7
M  V30 7 1 5 8
M  V30 8 1 6 9
M  V30 9 2 7 10
M  V30 10 2 9 11
M  V30 11 1 9 12
M  V30 12 1 7 8
M  V30 13 1 10 11
M  V30 14 1 5 13
M  V30 15 1 11 14
M  V30 16 1 12 15
M  V30 17 1 12 16
M  V30 18 1 12 17
M  V30 END BOND
M  V30 END CTAB
M  END
>  <Structure No>
7022

>  <LogS>
-1.65

>  <MMFF94 Energy>
117.12

$$$$
Compound 7023
Actelion Java MolfileCreator 2.0

  0  0  0  0  0  0              0 V3000
M  V30 BEGIN CTAB
M  V30 COUNTS 18 19 0 0 0
M  V30 BEGIN ATOM
M  V30 1 N 0.639 -1.6782 0.0 0
M  V30 2 C 1.8281 -1.0348 -0.1479 0
M  V30 3 C -0.52 -0.9793 0.1 0
M  V30 4 N 1.8663 0.3248 -0.1974 0
M  V30 5 N 3.0357 -1.7853 -0.2512 0
M  V30 6 N -1.7049 -1.6272 0.2477 0
M  V30 7 C -0.5007 0.4253 0.051 0
M  V30 8 C 0.7332 1.0721 -0.1018 0
M  V30 9 C -2.872 -0.9364 0.3489 0
M  V30 10 N -1.6702 1.113 0.1525 0
M  V30 11 N 0.8237 2.498 -0.1591 0
M  V30 12 C -2.8543 0.4612 0.3002 0
M  V30 13 H 3.0146 -2.8286 -0.214 0
M  V30 14 H 3.9524 -1.2985 -0.365 0
M  V30 15 H -3.8071 -1.4677 0.4661 0
M  V30 16 H -0.0245 3.103 -0.089 0
M  V30 17 H 1.754 2.9582 -0.2734 0
M  V30 18 H -3.7754 1.0231 0.3794 0
M  V30 END ATOM
M  V30 BEGIN BOND
M  V30 1 2 1 2
M  V30 2 1 1 3
M  V30 3 1 2 4
M  V30 4 1 2 5
M  V30 5 2 3 6
M  V30 6 1 3 7
M  V30 7 2 4 8
M  V30 8 1 6 9
M  V30 9 2 7 10
M  V30 10 1 8 11
M  V30 11 2 9 12
M  V30 12 1 7 8
M  V30 13 1 10 12
M  V30 14 1 5 13
M  V30 15 1 5 14
M  V30 16 1 9 15
M  V30 17 1 11 16
M  V30 18 1 11 17
M  V30 19 1 12 18
M  V30 END BOND
M  V30 END CTAB
M  END
>  <Structure No>
7023

>  <LogS>
-2.69

>  <MMFF94 Energy>
-31.055

$$$$
Compound 7024
Actelion Java MolfileCreator 2.0

  0  0  0  0  0  0              0 V3000
M  V30 BEGIN CTAB
M  V30 COUNTS 60 63 0 0 0
M  V30 BEGIN ATOM
M  V30 1 O -4.6103 3.3955 2.2627 0
M  V30 2 C -4.0794 2.4563 1.6125 0
M  V30 3 C -3.872 1.1524 2.2406 0
M  V30 4 C -3.5509 2.6935 0.2414 0
M  V30 5 C -3.4537 0.0878 1.535 0
M  V30 6 C -3.8216 1.4634 -0.6317 0
M  V30 7 C -3.373 0.0845 -0.0025 0 CFG=1
M  V30 8 C -3.0539 -1.1589 2.2967 0
M  V30 9 C -1.9262 -0.4213 -0.4658 0 CFG=2
M  V30 10 C -4.4316 -0.9449 -0.4957 0
M  V30 11 C -1.9939 -1.9907 1.5564 0
M  V30 12 C -1.1002 -1.1075 0.664 0 CFG=1
M  V30 13 C -1.0279 0.6143 -1.2061 0
M  V30 14 C 0.0582 -1.9354 0.0307 0 CFG=1
M  V30 15 C 0.4883 0.3384 -1.1003 0
M  V30 16 C 0.8609 -1.1735 -1.0765 0 CFG=1
M  V30 17 C 1.0895 -2.3834 1.0668 0
M  V30 18 C 2.3698 -1.4159 -0.7312 0 CFG=2
M  V30 19 C 0.5781 -1.7863 -2.4715 0
M  V30 20 C 2.3797 -2.5387 0.295 0
M  V30 21 O 3.004 -0.2725 -0.1489 0
M  V30 22 C 3.6584 0.7159 -0.8935 0
M  V30 23 O 3.7525 0.6259 -2.1477 0
M  V30 24 C 4.2855 1.8709 -0.1813 0
M  V30 25 C 5.7342 1.5433 0.1928 0
M  V30 26 C 6.3719 2.6883 0.9745 0
M  V30 27 H -3.9949 1.0802 3.3153 0
M  V30 28 H -4.0504 3.5791 -0.2091 0
M  V30 29 H -2.4708 2.9195 0.3196 0
M  V30 30 H -3.394 1.6127 -1.644 0
M  V30 31 H -4.9231 1.4676 -0.8005 0
M  V30 32 H -2.6259 -0.8693 3.2832 0
M  V30 33 H -3.9547 -1.7796 2.4912 0
M  V30 34 H -2.1014 -1.2175 -1.2228 0
M  V30 35 H -5.4403 -0.6987 -0.0959 0
M  V30 36 H -4.201 -1.9804 -0.1817 0
M  V30 37 H -4.489 -0.9408 -1.6064 0
M  V30 38 H -1.374 -2.513 2.3165 0
M  V30 39 H -2.4749 -2.7835 0.9472 0
M  V30 40 H -0.6673 -0.312 1.3138 0
M  V30 41 H -1.3142 0.6414 -2.2803 0
M  V30 42 H -1.1749 1.6288 -0.8036 0
M  V30 43 H -0.3835 -2.8612 -0.406 0
M  V30 44 H 0.8401 0.819 -0.1608 0
M  V30 45 H 1.0062 0.852 -1.9395 0
M  V30 46 H 1.2287 -1.6074 1.852 0
M  V30 47 H 0.7993 -3.3429 1.5472 0
M  V30 48 H 2.9636 -1.7509 -1.6125 0
M  V30 49 H -0.4933 -1.719 -2.7424 0
M  V30 50 H 0.8673 -2.8592 -2.4926 0
M  V30 51 H 1.1623 -1.256 -3.2533 0
M  V30 52 H 2.3827 -3.5225 -0.2249 0
M  V30 53 H 3.2637 -2.4844 0.9668 0
M  V30 54 H 3.6962 2.0911 0.7361 0
M  V30 55 H 4.2585 2.7705 -0.8372 0
M  V30 56 H 5.7667 0.6195 0.8142 0
M  V30 57 H 6.327 1.366 -0.7332 0
M  V30 58 H 6.3808 3.6158 0.3605 0
M  V30 59 H 5.8062 2.8761 1.9128 0
M  V30 60 H 7.4204 2.4232 1.2346 0
M  V30 END ATOM
M  V30 BEGIN BOND
M  V30 1 2 1 2
M  V30 2 1 2 3
M  V30 3 1 2 4
M  V30 4 2 3 5
M  V30 5 1 4 6
M  V30 6 1 5 7
M  V30 7 1 5 8
M  V30 8 1 7 9
M  V30 9 1 7 10
M  V30 10 1 8 11
M  V30 11 1 9 12
M  V30 12 1 9 13
M  V30 13 1 12 14
M  V30 14 1 13 15
M  V30 15 1 14 16
M  V30 16 1 14 17
M  V30 17 1 16 18
M  V30 18 1 16 19
M  V30 19 1 17 20
M  V30 20 1 18 21
M  V30 21 1 21 22
M  V30 22 2 22 23
M  V30 23 1 22 24
M  V30 24 1 24 25
M  V30 25 1 25 26
M  V30 26 1 6 7
M  V30 27 1 11 12
M  V30 28 1 15 16
M  V30 29 1 18 20
M  V30 30 1 3 27
M  V30 31 1 4 28
M  V30 32 1 4 29
M  V30 33 1 6 30
M  V30 34 1 6 31
M  V30 35 1 8 32
M  V30 36 1 8 33
M  V30 37 1 9 34
M  V30 38 1 10 35
M  V30 39 1 10 36
M  V30 40 1 10 37
M  V30 41 1 11 38
M  V30 42 1 11 39
M  V30 43 1 12 40
M  V30 44 1 13 41
M  V30 45 1 13 42
M  V30 46 1 14 43
M  V30 47 1 15 44
M  V30 48 1 15 45
M  V30 49 1 17 46
M  V30 50 1 17 47
M  V30 51 1 18 48
M  V30 52 1 19 49
M  V30 53 1 19 50
M  V30 54 1 19 51
M  V30 55 1 20 52
M  V30 56 1 20 53
M  V30 57 1 24 54
M  V30 58 1 24 55
M  V30 59 1 25 56
M  V30 60 1 25 57
M  V30 61 1 26 58
M  V30 62 1 26 59
M  V30 63 1 26 60
M  V30 END BOND
M  V30 BEGIN COLLECTION
M  V30 MDLV30/STEABS ATOMS=(6 7 9 12 14 16 18)
M  V30 END COLLECTION
M  V30 END CTAB
M  END
>  <Structure No>
7024

>  <LogS>
-5.93

>  <MMFF94 Energy>
67.407

$$$$
Compound 7025
Actelion Java MolfileCreator 2.0

  0  0  0  0  0  0              0 V3000
M  V30 BEGIN CTAB
M  V30 COUNTS 27 27 0 0 0
M  V30 BEGIN ATOM
M  V30 1 F -4.9427 -1.433 -0.8755 0
M  V30 2 C -3.9858 -0.5033 -0.6281 0
M  V30 3 C -2.8787 -0.8072 0.1652 0
M  V30 4 C -4.0909 0.7707 -1.1712 0
M  V30 5 O -2.7691 -1.9699 0.6431 0
M  V30 6 N -1.9247 0.1477 0.4153 0
M  V30 7 N -3.1221 1.6893 -0.9334 0
M  V30 8 C -2.0433 1.3901 -0.1588 0
M  V30 9 C -0.7414 -0.1804 1.2286 0
M  V30 10 O -1.154 2.2677 0.0201 0
M  V30 11 O 0.2959 -0.6595 0.38 0
M  V30 12 C 1.553 -1.0332 0.8622 0
M  V30 13 O 1.8174 -0.9638 2.0937 0
M  V30 14 C 2.604 -1.4905 -0.1012 0
M  V30 15 C 3.1542 -0.3245 -0.9319 0
M  V30 16 C 3.9596 0.6616 -0.0864 0
M  V30 17 H -4.9409 1.0268 -1.7915 0
M  V30 18 H -3.2091 2.6396 -1.3598 0
M  V30 19 H -0.3878 0.7147 1.7864 0
M  V30 20 H -0.986 -0.9493 1.9942 0
M  V30 21 H 2.1499 -2.237 -0.7873 0
M  V30 22 H 3.4324 -1.9956 0.4422 0
M  V30 23 H 3.8181 -0.7347 -1.7232 0
M  V30 24 H 2.3201 0.2121 -1.4347 0
M  V30 25 H 4.7971 0.1399 0.4232 0
M  V30 26 H 4.3809 1.4528 -0.7415 0
M  V30 27 H 3.3102 1.1449 0.6736 0
M  V30 END ATOM
M  V30 BEGIN BOND
M  V30 1 1 1 2
M  V30 2 1 2 3
M  V30 3 2 2 4
M  V30 4 2 3 5
M  V30 5 1 3 6
M  V30 6 1 4 7
M  V30 7 1 6 8
M  V30 8 1 6 9
M  V30 9 2 8 10
M  V30 10 1 9 11
M  V30 11 1 11 12
M  V30 12 2 12 13
M  V30 13 1 12 14
M  V30 14 1 14 15
M  V30 15 1 15 16
M  V30 16 1 7 8
M  V30 17 1 4 17
M  V30 18 1 7 18
M  V30 19 1 9 19
M  V30 20 1 9 20
M  V30 21 1 14 21
M  V30 22 1 14 22
M  V30 23 1 15 23
M  V30 24 1 15 24
M  V30 25 1 16 25
M  V30 26 1 16 26
M  V30 27 1 16 27
M  V30 END BOND
M  V30 END CTAB
M  END
>  <Structure No>
7025

>  <LogS>
-1.13

>  <MMFF94 Energy>
-97.32

$$$$
Compound 7026
Actelion Java MolfileCreator 2.0

  0  0  0  0  0  0              0 V3000
M  V30 BEGIN CTAB
M  V30 COUNTS 23 23 0 0 0
M  V30 BEGIN ATOM
M  V30 1 O 3.7111 -1.6929 1.0477 0
M  V30 2 C 3.3504 -0.5497 0.6551 0
M  V30 3 C 1.914 -0.2866 0.369 0
M  V30 4 C 4.3984 0.5101 0.4914 0
M  V30 5 C 0.9627 -1.3112 0.5362 0
M  V30 6 C 1.4736 0.9772 -0.0709 0
M  V30 7 C -0.39 -1.0788 0.2712 0
M  V30 8 C 0.1199 1.2062 -0.335 0
M  V30 9 C -0.8181 0.1837 -0.1665 0
M  V30 10 N -2.1963 0.4495 -0.445 0 CHG=-1
M  V30 11 N -3.1907 -0.5297 -0.2975 0
M  V30 12 C -4.4399 -0.2886 -0.5501 0
M  V30 13 C -5.4067 -1.3357 -0.3783 0
M  V30 14 C -4.8839 1.0074 -1.0001 0
M  V30 15 N -6.1861 -2.1799 -0.2398 0
M  V30 16 N -5.2399 2.0477 -1.3613 0
M  V30 17 H 4.4247 0.8545 -0.5634 0
M  V30 18 H 4.1751 1.3677 1.1602 0
M  V30 19 H 5.4011 0.1112 0.7554 0
M  V30 20 H 1.2628 -2.2957 0.8729 0
M  V30 21 H 2.1679 1.7942 -0.2135 0
M  V30 22 H -1.0983 -1.8856 0.4089 0
M  V30 23 H -0.1999 2.1844 -0.6725 0
M  V30 END ATOM
M  V30 BEGIN BOND
M  V30 1 2 1 2
M  V30 2 1 2 3
M  V30 3 1 2 4
M  V30 4 2 3 5
M  V30 5 1 3 6
M  V30 6 1 5 7
M  V30 7 2 6 8
M  V30 8 2 7 9
M  V30 9 1 9 10
M  V30 10 1 10 11
M  V30 11 2 11 12
M  V30 12 1 12 13
M  V30 13 1 12 14
M  V30 14 3 13 15
M  V30 15 3 14 16
M  V30 16 1 8 9
M  V30 17 1 4 17
M  V30 18 1 4 18
M  V30 19 1 4 19
M  V30 20 1 5 20
M  V30 21 1 6 21
M  V30 22 1 7 22
M  V30 23 1 8 23
M  V30 END BOND
M  V30 END CTAB
M  END
>  <Structure No>
7026

>  <LogS>
-2.71

>  <MMFF94 Energy>
80.98

$$$$
Compound 7027
Actelion Java MolfileCreator 2.0

  0  0  0  0  0  0              0 V3000
M  V30 BEGIN CTAB
M  V30 COUNTS 17 18 0 0 0
M  V30 BEGIN ATOM
M  V30 1 O -2.8874 -2.0847 -1.0419 0
M  V30 2 C -1.9146 -1.3608 -0.7026 0
M  V30 3 N -0.6905 -1.9219 -0.5204 0
M  V30 4 N -2.0903 -0.0215 -0.5193 0
M  V30 5 C 0.373 -1.1639 -0.1551 0
M  V30 6 C -1.0522 0.7832 -0.1519 0
M  V30 7 N 1.594 -1.7315 0.0251 0
M  V30 8 C 0.2166 0.2185 0.0396 0
M  V30 9 N -1.2699 2.1868 0.0325 0
M  V30 10 C 2.667 -0.9811 0.3914 0
M  V30 11 N 1.2926 0.9661 0.4061 0
M  V30 12 C 2.5132 0.395 0.5858 0
M  V30 13 H -3.0389 0.3935 -0.6637 0
M  V30 14 H -2.2188 2.5974 -0.1125 0
M  V30 15 H -0.4946 2.8271 0.3135 0
M  V30 16 H 3.6323 -1.4486 0.5309 0
M  V30 17 H 3.3583 1.0043 0.8772 0
M  V30 END ATOM
M  V30 BEGIN BOND
M  V30 1 2 1 2
M  V30 2 1 2 3
M  V30 3 1 2 4
M  V30 4 2 3 5
M  V30 5 1 4 6
M  V30 6 1 5 7
M  V30 7 1 5 8
M  V30 8 1 6 9
M  V30 9 2 7 10
M  V30 10 1 8 11
M  V30 11 1 10 12
M  V30 12 2 6 8
M  V30 13 2 11 12
M  V30 14 1 4 13
M  V30 15 1 9 14
M  V30 16 1 9 15
M  V30 17 1 10 16
M  V30 18 1 12 17
M  V30 END BOND
M  V30 END CTAB
M  END
>  <Structure No>
7027

>  <LogS>
-3.36

>  <MMFF94 Energy>
-9.5415

$$$$
Compound 7028
Actelion Java MolfileCreator 2.0

  0  0  0  0  0  0              0 V3000
M  V30 BEGIN CTAB
M  V30 COUNTS 17 18 0 0 0
M  V30 BEGIN ATOM
M  V30 1 O -0.2403 -2.4051 -1.7633 0
M  V30 2 C 0.1594 -1.4716 -1.018 0
M  V30 3 N 1.4797 -1.3679 -0.7157 0
M  V30 4 C -0.7407 -0.5396 -0.4972 0
M  V30 5 C 1.9475 -0.3721 0.0863 0
M  V30 6 N -2.0726 -0.5975 -0.7681 0
M  V30 7 C -0.2445 0.4827 0.3292 0
M  V30 8 N 1.0857 0.5484 0.6054 0
M  V30 9 N 3.3425 -0.2979 0.3799 0
M  V30 10 C -2.9306 0.321 -0.2497 0
M  V30 11 N -1.1073 1.399 0.8449 0
M  V30 12 C -2.4383 1.3392 0.5729 0
M  V30 13 H 1.448 1.3116 1.2209 0
M  V30 14 H 4.0028 -1.0024 -0.0172 0
M  V30 15 H 3.7195 0.4585 0.993 0
M  V30 16 H -3.9872 0.2619 -0.4741 0
M  V30 17 H -3.11 2.0766 0.9919 0
M  V30 END ATOM
M  V30 BEGIN BOND
M  V30 1 2 1 2
M  V30 2 1 2 3
M  V30 3 1 2 4
M  V30 4 2 3 5
M  V30 5 2 4 6
M  V30 6 1 4 7
M  V30 7 1 5 8
M  V30 8 1 5 9
M  V30 9 1 6 10
M  V30 10 2 7 11
M  V30 11 2 10 12
M  V30 12 1 7 8
M  V30 13 1 11 12
M  V30 14 1 8 13
M  V30 15 1 9 14
M  V30 16 1 9 15
M  V30 17 1 10 16
M  V30 18 1 12 17
M  V30 END BOND
M  V30 END CTAB
M  END
>  <Structure No>
7028

>  <LogS>
-3.97

>  <MMFF94 Energy>
-13.333

$$$$
Compound 7029
Actelion Java MolfileCreator 2.0

  0  0  0  0  0  0              0 V3000
M  V30 BEGIN CTAB
M  V30 COUNTS 16 17 0 0 0
M  V30 BEGIN ATOM
M  V30 1 O 2.9143 -1.6992 -0.1617 0
M  V30 2 C 1.9222 -0.9242 -0.1017 0
M  V30 3 N 0.6579 -1.4284 -0.1577 0
M  V30 4 C 2.1128 0.4592 0.0229 0
M  V30 5 C -0.4223 -0.6009 -0.0938 0
M  V30 6 O 3.3971 0.9897 0.0815 0 CHG=-1
M  V30 7 N 1.0329 1.2855 0.0867 0 CHG=1
M  V30 8 C -0.2311 0.786 0.0311 0
M  V30 9 C -1.7313 -1.0882 -0.1487 0
M  V30 10 N -1.307 1.6141 0.0951 0
M  V30 11 N -2.7758 -0.2215 -0.081 0
M  V30 12 C -2.5712 1.1174 0.0398 0
M  V30 13 H 0.5218 -2.4613 -0.2507 0
M  V30 14 H 1.1801 2.3161 0.1797 0
M  V30 15 H -1.9224 -2.1491 -0.2446 0
M  V30 16 H -3.4168 1.7894 0.0919 0
M  V30 END ATOM
M  V30 BEGIN BOND
M  V30 1 2 1 2
M  V30 2 1 2 3
M  V30 3 1 2 4
M  V30 4 1 3 5
M  V30 5 1 4 6
M  V30 6 2 4 7
M  V30 7 2 5 8
M  V30 8 1 5 9
M  V30 9 1 8 10
M  V30 10 2 9 11
M  V30 11 2 10 12
M  V30 12 1 7 8
M  V30 13 1 11 12
M  V30 14 1 3 13
M  V30 15 1 7 14
M  V30 16 1 9 15
M  V30 17 1 12 16
M  V30 END BOND
M  V30 END CTAB
M  END
>  <Structure No>
7029

>  <LogS>
-2.69

>  <MMFF94 Energy>
-7.6526

$$$$
Compound 7030
Actelion Java MolfileCreator 2.0

  0  0  0  0  0  0              0 V3000
M  V30 BEGIN CTAB
M  V30 COUNTS 27 27 0 0 0
M  V30 BEGIN ATOM
M  V30 1 O 4.3548 0.9489 -1.5027 0
M  V30 2 C 4.9625 0.3931 -0.549 0
M  V30 3 N 4.2732 -0.5034 0.336 0
M  V30 4 N 6.3592 0.627 -0.3765 0
M  V30 5 N 2.8757 -0.6739 0.3403 0
M  V30 6 C 2.032 0.2926 0.1371 0
M  V30 7 C 0.5764 0.0436 0.1355 0
M  V30 8 C -0.3063 1.1172 -0.0566 0
M  V30 9 C 0.0516 -1.2466 0.3286 0
M  V30 10 C -1.6885 0.9068 -0.0641 0
M  V30 11 C -1.3306 -1.4547 0.322 0
M  V30 12 C -2.2105 -0.3876 0.1108 0
M  V30 13 O -3.5894 -0.6465 0.1222 0
M  V30 14 C -4.5595 0.0971 -0.5619 0
M  V30 15 O -4.2423 0.8641 -1.5108 0
M  V30 16 C -5.9996 -0.1125 -0.2389 0
M  V30 17 H 4.8459 -1.1637 0.9068 0
M  V30 18 H 6.8816 0.1687 0.4024 0
M  V30 19 H 6.872 1.264 -1.0256 0
M  V30 20 H 2.3875 1.3065 5.0E-4 0
M  V30 21 H 0.0738 2.1224 -0.193 0
M  V30 22 H 0.7066 -2.0943 0.4856 0
M  V30 23 H -2.343 1.7601 -0.1763 0
M  V30 24 H -1.7207 -2.4532 0.4736 0
M  V30 25 H -6.1074 -0.4273 0.8201 0
M  V30 26 H -6.5672 0.8297 -0.3917 0
M  V30 27 H -6.4154 -0.9022 -0.8983 0
M  V30 END ATOM
M  V30 BEGIN BOND
M  V30 1 2 1 2
M  V30 2 1 2 3
M  V30 3 1 2 4
M  V30 4 1 3 5
M  V30 5 2 5 6
M  V30 6 1 6 7
M  V30 7 2 7 8
M  V30 8 1 7 9
M  V30 9 1 8 10
M  V30 10 2 9 11
M  V30 11 2 10 12
M  V30 12 1 12 13
M  V30 13 1 13 14
M  V30 14 2 14 15
M  V30 15 1 14 16
M  V30 16 1 11 12
M  V30 17 1 3 17
M  V30 18 1 4 18
M  V30 19 1 4 19
M  V30 20 1 6 20
M  V30 21 1 8 21
M  V30 22 1 9 22
M  V30 23 1 10 23
M  V30 24 1 11 24
M  V30 25 1 16 25
M  V30 26 1 16 26
M  V30 27 1 16 27
M  V30 END BOND
M  V30 END CTAB
M  END
>  <Structure No>
7030

>  <LogS>
-2.84

>  <MMFF94 Energy>
6.8266

$$$$
Compound 7031
Actelion Java MolfileCreator 2.0

  0  0  0  0  0  0              0 V3000
M  V30 BEGIN CTAB
M  V30 COUNTS 15 16 0 0 0
M  V30 BEGIN ATOM
M  V30 1 O -0.6504 2.9295 -0.3251 0
M  V30 2 C -0.92 1.7028 -0.2297 0
M  V30 3 N -2.214 1.2905 -0.2783 0
M  V30 4 C 0.0979 0.7588 -0.0742 0
M  V30 5 C -2.5385 -0.0267 -0.1781 0
M  V30 6 N 1.4088 1.1176 -0.0194 0
M  V30 7 C -0.2552 -0.5976 0.0276 0
M  V30 8 N -1.5639 -0.9644 -0.0261 0
M  V30 9 C 2.3831 0.1815 0.1324 0
M  V30 10 N 0.7224 -1.5304 0.1794 0 CHG=-1
M  V30 11 C 2.0324 -1.1699 0.2339 0
M  V30 12 O 2.9216 -2.0492 0.375 0
M  V30 13 H -3.5773 -0.3267 -0.22 0
M  V30 14 H -1.8292 -1.9722 0.0493 0
M  V30 15 H 3.4207 0.487 0.1738 0
M  V30 END ATOM
M  V30 BEGIN BOND
M  V30 1 2 1 2
M  V30 2 1 2 3
M  V30 3 1 2 4
M  V30 4 2 3 5
M  V30 5 1 4 6
M  V30 6 2 4 7
M  V30 7 1 5 8
M  V30 8 2 6 9
M  V30 9 1 7 10
M  V30 10 1 9 11
M  V30 11 2 11 12
M  V30 12 1 7 8
M  V30 13 1 10 11
M  V30 14 1 5 13
M  V30 15 1 8 14
M  V30 16 1 9 15
M  V30 END BOND
M  V30 END CTAB
M  END
>  <Structure No>
7031

>  <LogS>
-2.82

>  <MMFF94 Energy>
85.111

$$$$
Compound 7032
Actelion Java MolfileCreator 2.0

  0  0  0  0  0  0              0 V3000
M  V30 BEGIN CTAB
M  V30 COUNTS 22 23 0 0 0
M  V30 BEGIN ATOM
M  V30 1 N 0.1596 0.6387 -0.2394 0
M  V30 2 C 1.4945 0.4529 -0.3982 0
M  V30 3 C -0.6632 -0.3749 0.1579 0
M  V30 4 N 2.2937 1.4767 -0.7945 0
M  V30 5 C 2.0471 -0.8101 -0.149 0
M  V30 6 N -2.0809 -0.1266 0.3131 0
M  V30 7 C -0.0948 -1.6434 0.4062 0
M  V30 8 C 3.6315 1.2885 -0.953 0
M  V30 9 N 1.2428 -1.8288 0.2468 0
M  V30 10 C 3.4201 -0.9834 -0.3169 0
M  V30 11 C -2.9987 -1.1904 0.7386 0
M  V30 12 C -2.6025 1.217 0.0378 0
M  V30 13 N 4.1845 0.068 -0.7152 0
M  V30 14 H -0.6982 -2.4818 0.7228 0
M  V30 15 H 4.2575 2.1116 -1.2691 0
M  V30 16 H 3.881 -1.9453 -0.1334 0
M  V30 17 H -4.0466 -0.8299 0.8063 0
M  V30 18 H -2.7027 -1.5635 1.7417 0
M  V30 19 H -2.9732 -2.0243 0.0059 0
M  V30 20 H -2.3883 1.4932 -1.0163 0
M  V30 21 H -3.7001 1.2766 0.1932 0
M  V30 22 H -2.1184 1.9527 0.7146 0
M  V30 END ATOM
M  V30 BEGIN BOND
M  V30 1 1 1 2
M  V30 2 2 1 3
M  V30 3 2 2 4
M  V30 4 1 2 5
M  V30 5 1 3 6
M  V30 6 1 3 7
M  V30 7 1 4 8
M  V30 8 1 5 9
M  V30 9 2 5 10
M  V30 10 1 6 11
M  V30 11 1 6 12
M  V30 12 2 8 13
M  V30 13 2 7 9
M  V30 14 1 10 13
M  V30 15 1 7 14
M  V30 16 1 8 15
M  V30 17 1 10 16
M  V30 18 1 11 17
M  V30 19 1 11 18
M  V30 20 1 11 19
M  V30 21 1 12 20
M  V30 22 1 12 21
M  V30 23 1 12 22
M  V30 END BOND
M  V30 END CTAB
M  END
>  <Structure No>
7032

>  <LogS>
-0.09

>  <MMFF94 Energy>
57.327

$$$$
Compound 7033
Actelion Java MolfileCreator 2.0

  0  0  0  0  0  0              0 V3000
M  V30 BEGIN CTAB
M  V30 COUNTS 15 16 0 0 0
M  V30 BEGIN ATOM
M  V30 1 O -1.4641 2.6855 -0.2439 0
M  V30 2 C -1.3998 1.4282 -0.288 0
M  V30 3 N -2.5162 0.7047 -0.5671 0
M  V30 4 C -0.1909 0.767 -0.0529 0
M  V30 5 C -2.4793 -0.654 -0.6219 0
M  V30 6 N 0.9545 1.443 0.2303 0 CHG=-1
M  V30 7 C -0.1714 -0.637 -0.1137 0
M  V30 8 N -1.3138 -1.3169 -0.3964 0 CHG=-1
M  V30 9 C 2.1187 0.7782 0.4555 0
M  V30 10 N 0.9953 -1.3005 0.1119 0 CHG=1
M  V30 11 O 3.1694 1.4203 0.7163 0
M  V30 12 C 2.1402 -0.6203 0.3952 0
M  V30 13 H -3.38 -1.2088 -0.8457 0
M  V30 14 H 1.0189 -2.3444 0.0687 0
M  V30 15 H 3.0616 -1.1618 0.5727 0
M  V30 END ATOM
M  V30 BEGIN BOND
M  V30 1 2 1 2
M  V30 2 1 2 3
M  V30 3 1 2 4
M  V30 4 2 3 5
M  V30 5 1 4 6
M  V30 6 2 4 7
M  V30 7 1 5 8
M  V30 8 1 6 9
M  V30 9 1 7 10
M  V30 10 2 9 11
M  V30 11 1 9 12
M  V30 12 1 7 8
M  V30 13 2 10 12
M  V30 14 1 5 13
M  V30 15 1 10 14
M  V30 16 1 12 15
M  V30 END BOND
M  V30 END CTAB
M  END
>  <Structure No>
7033

>  <LogS>
-2.96

>  <MMFF94 Energy>
7.4803

$$$$
Compound 7034
Actelion Java MolfileCreator 2.0

  0  0  0  0  0  0              0 V3000
M  V30 BEGIN CTAB
M  V30 COUNTS 40 40 0 0 0
M  V30 BEGIN ATOM
M  V30 1 O 3.5492 1.8917 0.6302 0
M  V30 2 C 3.9524 0.7158 0.4155 0
M  V30 3 N 3.0006 -0.3579 0.3584 0
M  V30 4 C 5.4001 0.472 0.2042 0
M  V30 5 N 1.6579 -0.1625 0.732 0
M  V30 6 C 6.2356 1.5189 -0.2216 0
M  V30 7 C 5.971 -0.7899 0.4461 0
M  V30 8 C 0.691 -1.2155 0.6285 0
M  V30 9 C 7.5992 1.2839 -0.413 0
M  V30 10 C 7.3402 -0.9804 0.2429 0
M  V30 11 O 1.0224 -2.3418 0.1693 0
M  V30 12 C -0.7342 -0.9696 1.0229 0
M  V30 13 N 8.1183 0.0502 -0.1795 0
M  V30 14 C -1.4987 -0.298 -0.1218 0
M  V30 15 C -2.958 -0.0365 0.2698 0
M  V30 16 C -3.7291 0.6179 -0.8845 0
M  V30 17 C -5.144 1.0666 -0.4811 0
M  V30 18 C -6.0949 -0.1042 -0.1553 0
M  V30 19 C -6.2869 -0.297 1.349 0
M  V30 20 H 3.2989 -1.2872 -0.012 0
M  V30 21 H 1.3488 0.7651 1.101 0
M  V30 22 H 5.8368 2.5071 -0.4155 0
M  V30 23 H 5.378 -1.6174 0.8116 0
M  V30 24 H 8.2457 2.0843 -0.7474 0
M  V30 25 H 7.7859 -1.9486 0.4286 0
M  V30 26 H -1.2185 -1.9364 1.2832 0
M  V30 27 H -0.7574 -0.3207 1.9254 0
M  V30 28 H -1.0069 0.6671 -0.3759 0
M  V30 29 H -1.4703 -0.9562 -1.0186 0
M  V30 30 H -3.4368 -1.0049 0.5296 0
M  V30 31 H -2.9855 0.6298 1.1601 0
M  V30 32 H -3.172 1.5175 -1.2276 0
M  V30 33 H -3.7903 -0.0862 -1.7432 0
M  V30 34 H -5.0862 1.788 0.3639 0
M  V30 35 H -5.5696 1.6273 -1.3422 0
M  V30 36 H -5.7331 -1.0526 -0.6085 0
M  V30 37 H -7.0923 0.108 -0.599 0
M  V30 38 H -6.743 0.6117 1.7967 0
M  V30 39 H -5.3203 -0.5011 1.8523 0
M  V30 40 H -6.9663 -1.1567 1.5287 0
M  V30 END ATOM
M  V30 BEGIN BOND
M  V30 1 2 1 2
M  V30 2 1 2 3
M  V30 3 1 2 4
M  V30 4 1 3 5
M  V30 5 2 4 6
M  V30 6 1 4 7
M  V30 7 1 5 8
M  V30 8 1 6 9
M  V30 9 2 7 10
M  V30 10 2 8 11
M  V30 11 1 8 12
M  V30 12 2 9 13
M  V30 13 1 12 14
M  V30 14 1 14 15
M  V30 15 1 15 16
M  V30 16 1 16 17
M  V30 17 1 17 18
M  V30 18 1 18 19
M  V30 19 1 10 13
M  V30 20 1 3 20
M  V30 21 1 5 21
M  V30 22 1 6 22
M  V30 23 1 7 23
M  V30 24 1 9 24
M  V30 25 1 10 25
M  V30 26 1 12 26
M  V30 27 1 12 27
M  V30 28 1 14 28
M  V30 29 1 14 29
M  V30 30 1 15 30
M  V30 31 1 15 31
M  V30 32 1 16 32
M  V30 33 1 16 33
M  V30 34 1 17 34
M  V30 35 1 17 35
M  V30 36 1 18 36
M  V30 37 1 18 37
M  V30 38 1 19 38
M  V30 39 1 19 39
M  V30 40 1 19 40
M  V30 END BOND
M  V30 END CTAB
M  END
>  <Structure No>
7034

>  <LogS>
-2.91

>  <MMFF94 Energy>
26.504

$$$$
Compound 7035
Actelion Java MolfileCreator 2.0

  0  0  0  0  0  0              0 V3000
M  V30 BEGIN CTAB
M  V30 COUNTS 63 66 0 0 0
M  V30 BEGIN ATOM
M  V30 1 O -7.5966 -1.048 -0.0805 0
M  V30 2 C -6.3663 -0.781 -0.1165 0
M  V30 3 C -5.7499 -0.0623 1.007 0
M  V30 4 C -5.5556 -1.2044 -1.3015 0
M  V30 5 C -4.4697 0.3552 0.9779 0
M  V30 6 C -4.0466 -1.0785 -1.0354 0
M  V30 7 C -3.6437 0.2581 -0.3254 0 CFG=2
M  V30 8 C -3.9063 0.8554 2.29 0
M  V30 9 C -2.0649 0.3597 -0.0846 0 CFG=1
M  V30 10 C -4.0556 1.4528 -1.2248 0
M  V30 11 C -2.4153 1.1573 2.2609 0
M  V30 12 C -1.6608 0.1416 1.3912 0 CFG=2
M  V30 13 C -1.2137 -0.5393 -1.0142 0
M  V30 14 C -0.1232 0.2318 1.6446 0 CFG=1
M  V30 15 C 0.2861 -0.3175 -0.8101 0
M  V30 16 C 0.7417 -0.5735 0.6558 0 CFG=1
M  V30 17 C 0.4714 1.6478 1.628 0
M  V30 18 C 2.1546 0.0141 0.895 0 CFG=2
M  V30 19 C 0.7116 -2.084 0.9855 0
M  V30 20 C 1.9403 1.4907 1.2374 0
M  V30 21 O 3.0056 -0.1081 -0.2479 0
M  V30 22 C 3.792 -1.2337 -0.5146 0
M  V30 23 O 3.8899 -2.1694 0.3254 0
M  V30 24 C 4.5619 -1.3017 -1.7967 0
M  V30 25 C 5.7367 -0.3154 -1.8041 0
M  V30 26 C 6.8283 -0.7062 -0.7973 0
M  V30 27 C 8.0088 0.2582 -0.8639 0
M  V30 28 H -6.3378 0.0552 1.9111 0
M  V30 29 H -5.7915 -2.2623 -1.5476 0
M  V30 30 H -5.8431 -0.587 -2.179 0
M  V30 31 H -3.7335 -1.9349 -0.3973 0
M  V30 32 H -3.5436 -1.1805 -2.0196 0
M  V30 33 H -4.4555 1.7699 2.6047 0
M  V30 34 H -4.079 0.0758 3.0658 0
M  V30 35 H -1.7486 1.3981 -0.3307 0
M  V30 36 H -3.7757 2.4155 -0.744 0
M  V30 37 H -5.151 1.4925 -1.3971 0
M  V30 38 H -3.5466 1.3903 -2.2106 0
M  V30 39 H -2.0291 1.1312 3.304 0
M  V30 40 H -2.2646 2.1898 1.875 0
M  V30 41 H -1.9819 -0.8822 1.6894 0
M  V30 42 H -1.4418 -1.6123 -0.8491 0
M  V30 43 H -1.4452 -0.2939 -2.0733 0
M  V30 44 H 0.0583 -0.17 2.6696 0
M  V30 45 H 0.8411 -0.9879 -1.5026 0
M  V30 46 H 0.5263 0.7252 -1.1149 0
M  V30 47 H -0.0357 2.2922 0.8795 0
M  V30 48 H 0.3776 2.1271 2.6272 0
M  V30 49 H 2.6346 -0.4633 1.7808 0
M  V30 50 H 1.2975 -2.6596 0.2394 0
M  V30 51 H -0.3256 -2.476 0.9816 0
M  V30 52 H 1.1375 -2.2796 1.993 0
M  V30 53 H 2.167 2.1367 0.36 0
M  V30 54 H 2.6041 1.7944 2.0765 0
M  V30 55 H 4.9312 -2.3362 -1.971 0
M  V30 56 H 3.8737 -1.0471 -2.631 0
M  V30 57 H 6.1742 -0.304 -2.8265 0
M  V30 58 H 5.366 0.7099 -1.5823 0
M  V30 59 H 7.1907 -1.7342 -1.0167 0
M  V30 60 H 6.4156 -0.6911 0.2347 0
M  V30 61 H 7.6762 1.2915 -0.6271 0
M  V30 62 H 8.4639 0.2419 -1.8772 0
M  V30 63 H 8.7791 -0.0451 -0.1238 0
M  V30 END ATOM
M  V30 BEGIN BOND
M  V30 1 2 1 2
M  V30 2 1 2 3
M  V30 3 1 2 4
M  V30 4 2 3 5
M  V30 5 1 4 6
M  V30 6 1 5 7
M  V30 7 1 5 8
M  V30 8 1 7 9
M  V30 9 1 7 10
M  V30 10 1 8 11
M  V30 11 1 9 12
M  V30 12 1 9 13
M  V30 13 1 12 14
M  V30 14 1 13 15
M  V30 15 1 14 16
M  V30 16 1 14 17
M  V30 17 1 16 18
M  V30 18 1 16 19
M  V30 19 1 17 20
M  V30 20 1 18 21
M  V30 21 1 21 22
M  V30 22 2 22 23
M  V30 23 1 22 24
M  V30 24 1 24 25
M  V30 25 1 25 26
M  V30 26 1 26 27
M  V30 27 1 6 7
M  V30 28 1 11 12
M  V30 29 1 15 16
M  V30 30 1 18 20
M  V30 31 1 3 28
M  V30 32 1 4 29
M  V30 33 1 4 30
M  V30 34 1 6 31
M  V30 35 1 6 32
M  V30 36 1 8 33
M  V30 37 1 8 34
M  V30 38 1 9 35
M  V30 39 1 10 36
M  V30 40 1 10 37
M  V30 41 1 10 38
M  V30 42 1 11 39
M  V30 43 1 11 40
M  V30 44 1 12 41
M  V30 45 1 13 42
M  V30 46 1 13 43
M  V30 47 1 14 44
M  V30 48 1 15 45
M  V30 49 1 15 46
M  V30 50 1 17 47
M  V30 51 1 17 48
M  V30 52 1 18 49
M  V30 53 1 19 50
M  V30 54 1 19 51
M  V30 55 1 19 52
M  V30 56 1 20 53
M  V30 57 1 20 54
M  V30 58 1 24 55
M  V30 59 1 24 56
M  V30 60 1 25 57
M  V30 61 1 25 58
M  V30 62 1 26 59
M  V30 63 1 26 60
M  V30 64 1 27 61
M  V30 65 1 27 62
M  V30 66 1 27 63
M  V30 END BOND
M  V30 BEGIN COLLECTION
M  V30 MDLV30/STEABS ATOMS=(6 7 9 12 14 16 18)
M  V30 END COLLECTION
M  V30 END CTAB
M  END
>  <Structure No>
7035

>  <LogS>
-6.19

>  <MMFF94 Energy>
62.98

$$$$
Compound 7036
Actelion Java MolfileCreator 2.0

  0  0  0  0  0  0              0 V3000
M  V30 BEGIN CTAB
M  V30 COUNTS 33 33 0 0 0
M  V30 BEGIN ATOM
M  V30 1 N -2.1305 1.341 -4.4229 0 CHG=1
M  V30 2 N -2.9067 1.7866 -5.0964 0
M  V30 3 N -1.1902 0.8016 -3.6072 0 CHG=-1
M  V30 4 C -1.5274 0.3176 -2.308 0
M  V30 5 N -0.5611 -0.2142 -1.5188 0
M  V30 6 N -2.8061 0.3863 -1.8559 0
M  V30 7 C -0.861 -0.6793 -0.2762 0
M  V30 8 C -3.1159 -0.0763 -0.6185 0
M  V30 9 N -2.1449 -0.6073 0.1666 0
M  V30 10 N 0.1712 -1.2398 0.5655 0
M  V30 11 N -4.4582 -0.0039 -0.1438 0
M  V30 12 C 1.4902 -1.5827 0.0074 0
M  V30 13 C -0.1044 -1.5297 1.9817 0
M  V30 14 C 2.5637 -0.5723 0.4324 0
M  V30 15 C -0.2424 -0.2403 2.7892 0
M  V30 16 C 2.2833 0.8352 -0.1102 0
M  V30 17 C 3.3909 1.8071 0.2843 0
M  V30 18 H -4.7018 -0.3573 0.8079 0
M  V30 19 H -5.2097 0.4038 -0.7431 0
M  V30 20 H 1.4556 -1.648 -1.1013 0
M  V30 21 H 1.7887 -2.5933 0.3616 0
M  V30 22 H -1.0343 -2.1316 2.0706 0
M  V30 23 H 0.7186 -2.1316 2.4252 0
M  V30 24 H 2.6322 -0.5451 1.5411 0
M  V30 25 H 3.5444 -0.9232 0.0434 0
M  V30 26 H -1.0985 0.364 2.425 0
M  V30 27 H -0.4172 -0.4889 3.8571 0
M  V30 28 H 0.6847 0.3642 2.7136 0
M  V30 29 H 1.3205 1.2137 0.2949 0
M  V30 30 H 2.2117 0.8022 -1.2191 0
M  V30 31 H 3.4671 1.8756 1.3906 0
M  V30 32 H 4.365 1.4719 -0.131 0
M  V30 33 H 3.1611 2.8159 -0.1187 0
M  V30 END ATOM
M  V30 BEGIN BOND
M  V30 1 3 1 2
M  V30 2 1 1 3
M  V30 3 1 3 4
M  V30 4 2 4 5
M  V30 5 1 4 6
M  V30 6 1 5 7
M  V30 7 2 6 8
M  V30 8 2 7 9
M  V30 9 1 7 10
M  V30 10 1 8 11
M  V30 11 1 10 12
M  V30 12 1 10 13
M  V30 13 1 12 14
M  V30 14 1 13 15
M  V30 15 1 14 16
M  V30 16 1 16 17
M  V30 17 1 8 9
M  V30 18 1 11 18
M  V30 19 1 11 19
M  V30 20 1 12 20
M  V30 21 1 12 21
M  V30 22 1 13 22
M  V30 23 1 13 23
M  V30 24 1 14 24
M  V30 25 1 14 25
M  V30 26 1 15 26
M  V30 27 1 15 27
M  V30 28 1 15 28
M  V30 29 1 16 29
M  V30 30 1 16 30
M  V30 31 1 17 31
M  V30 32 1 17 32
M  V30 33 1 17 33
M  V30 END BOND
M  V30 END CTAB
M  END
>  <Structure No>
7036

>  <LogS>
-3.52

>  <MMFF94 Energy>
-249.69

$$$$
Compound 7037
Actelion Java MolfileCreator 2.0

  0  0  0  0  0  0              0 V3000
M  V30 BEGIN CTAB
M  V30 COUNTS 22 23 0 0 0
M  V30 BEGIN ATOM
M  V30 1 O -0.8979 2.614 -0.7346 0
M  V30 2 N -0.0083 2.2722 0.0703 0 CHG=1
M  V30 3 O 0.6688 3.2493 0.7633 0 CHG=-1
M  V30 4 C 0.4571 0.9136 0.1053 0
M  V30 5 C -0.4326 -0.1785 -0.0065 0
M  V30 6 C 1.8325 0.6635 0.255 0
M  V30 7 N -1.8484 0.0063 -0.0634 0
M  V30 8 C 0.0678 -1.4848 0.0037 0
M  V30 9 C 2.3339 -0.6506 0.2676 0
M  V30 10 C -3.2303 -0.5565 -0.121 0
M  V30 11 C -3.1057 0.8144 -0.0682 0
M  V30 12 C 1.4367 -1.7211 0.1351 0
M  V30 13 N 3.7451 -0.898 0.4106 0 CHG=1
M  V30 14 O 4.5496 0.0492 0.5315 0
M  V30 15 O 4.2321 -2.1852 0.4179 0 CHG=-1
M  V30 16 H 2.5154 1.4989 0.3425 0
M  V30 17 H -0.6108 -2.3251 -0.077 0
M  V30 18 H -3.4388 -1.0035 -1.1158 0
M  V30 19 H -3.4925 -1.0716 0.827 0
M  V30 20 H -3.2805 1.294 0.9179 0
M  V30 21 H -3.2409 1.3563 -1.0278 0
M  V30 22 H 1.7912 -2.7436 0.142 0
M  V30 END ATOM
M  V30 BEGIN BOND
M  V30 1 2 1 2
M  V30 2 1 2 3
M  V30 3 1 2 4
M  V30 4 2 4 5
M  V30 5 1 4 6
M  V30 6 1 5 7
M  V30 7 1 5 8
M  V30 8 2 6 9
M  V30 9 1 7 10
M  V30 10 1 7 11
M  V30 11 2 8 12
M  V30 12 1 9 13
M  V30 13 2 13 14
M  V30 14 1 13 15
M  V30 15 1 9 12
M  V30 16 1 10 11
M  V30 17 1 6 16
M  V30 18 1 8 17
M  V30 19 1 10 18
M  V30 20 1 10 19
M  V30 21 1 11 20
M  V30 22 1 11 21
M  V30 23 1 12 22
M  V30 END BOND
M  V30 END CTAB
M  END
>  <Structure No>
7037

>  <LogS>
-3.0

>  <MMFF94 Energy>
96.684

$$$$
Compound 7038
Actelion Java MolfileCreator 2.0

  0  0  0  0  0  0              0 V3000
M  V30 BEGIN CTAB
M  V30 COUNTS 32 32 0 0 0
M  V30 BEGIN ATOM
M  V30 1 O -1.8189 1.1859 -0.158 0
M  V30 2 C -1.9878 -0.0207 0.1708 0
M  V30 3 O -0.906 -0.8147 0.57 0
M  V30 4 O -3.2713 -0.5715 0.1965 0
M  V30 5 C 0.4466 -0.5159 0.3473 0
M  V30 6 C -4.4319 0.1665 -0.1726 0
M  V30 7 C 1.3964 -1.0177 1.244 0
M  V30 8 C 0.8802 0.2266 -0.7657 0
M  V30 9 C -5.6647 -0.7246 -0.039 0
M  V30 10 C 2.7569 -0.7532 1.0609 0
M  V30 11 C 2.2407 0.4897 -0.9508 0
M  V30 12 C -6.9357 0.0259 -0.4254 0
M  V30 13 C 3.1887 0.0233 -0.0285 0
M  V30 14 N 4.5837 0.2899 -0.2554 0
M  V30 15 C 5.5495 0.4742 0.791 0
M  V30 16 O 5.1806 0.6561 1.9826 0
M  V30 17 C 7.0032 0.5502 0.4554 0
M  V30 18 H -4.5354 1.0512 0.4937 0
M  V30 19 H -4.3315 0.5117 -1.2251 0
M  V30 20 H 1.0778 -1.6167 2.0877 0
M  V30 21 H 0.1775 0.5763 -1.5094 0
M  V30 22 H -5.7542 -1.0758 1.0118 0
M  V30 23 H -5.5513 -1.6127 -0.6979 0
M  V30 24 H 3.4683 -1.1788 1.7556 0
M  V30 25 H 2.5578 1.0605 -1.8146 0
M  V30 26 H -7.812 -0.6475 -0.3179 0
M  V30 27 H -7.0807 0.9059 0.2369 0
M  V30 28 H -6.8768 0.3666 -1.4811 0
M  V30 29 H 4.9015 0.4407 -1.2398 0
M  V30 30 H 7.6191 0.3242 1.3517 0
M  V30 31 H 7.246 1.5712 0.0941 0
M  V30 32 H 7.2472 -0.1862 -0.3384 0
M  V30 END ATOM
M  V30 BEGIN BOND
M  V30 1 2 1 2
M  V30 2 1 2 3
M  V30 3 1 2 4
M  V30 4 1 3 5
M  V30 5 1 4 6
M  V30 6 2 5 7
M  V30 7 1 5 8
M  V30 8 1 6 9
M  V30 9 1 7 10
M  V30 10 2 8 11
M  V30 11 1 9 12
M  V30 12 2 10 13
M  V30 13 1 13 14
M  V30 14 1 14 15
M  V30 15 2 15 16
M  V30 16 1 15 17
M  V30 17 1 11 13
M  V30 18 1 6 18
M  V30 19 1 6 19
M  V30 20 1 7 20
M  V30 21 1 8 21
M  V30 22 1 9 22
M  V30 23 1 9 23
M  V30 24 1 10 24
M  V30 25 1 11 25
M  V30 26 1 12 26
M  V30 27 1 12 27
M  V30 28 1 12 28
M  V30 29 1 14 29
M  V30 30 1 17 30
M  V30 31 1 17 31
M  V30 32 1 17 32
M  V30 END BOND
M  V30 END CTAB
M  END
>  <Structure No>
7038

>  <LogS>
-2.57

>  <MMFF94 Energy>
-8.7988

$$$$
Compound 7039
Actelion Java MolfileCreator 2.0

  0  0  0  0  0  0              0 V3000
M  V30 BEGIN CTAB
M  V30 COUNTS 30 30 0 0 0
M  V30 BEGIN ATOM
M  V30 1 F 4.8561 1.9084 1.1924 0
M  V30 2 C 4.1235 0.8464 0.772 0
M  V30 3 C 2.8316 0.6307 1.254 0
M  V30 4 C 4.6526 -0.0467 -0.1504 0
M  V30 5 O 2.35 1.4424 2.0913 0
M  V30 6 N 2.1026 -0.449 0.8182 0
M  V30 7 N 3.9147 -1.1054 -0.5664 0
M  V30 8 C 2.6547 -1.3136 -0.0952 0
M  V30 9 C 0.7305 -0.6887 1.3058 0
M  V30 10 O 2.0008 -2.3109 -0.5092 0
M  V30 11 O -0.2065 -0.5304 0.2429 0
M  V30 12 C -0.4993 0.7048 -0.344 0
M  V30 13 O 0.0342 1.7653 0.0811 0
M  V30 14 C -1.4932 0.7699 -1.4614 0
M  V30 15 C -2.8844 1.1976 -0.9678 0
M  V30 16 C -3.5177 0.2324 0.0504 0
M  V30 17 C -3.8336 -1.1383 -0.5464 0
M  V30 18 H 5.6529 0.1027 -0.5367 0
M  V30 19 H 4.3266 -1.7686 -1.2613 0
M  V30 20 H 0.6547 -1.7266 1.6947 0
M  V30 21 H 0.4531 -0.02 2.149 0
M  V30 22 H -1.1388 1.5088 -2.2121 0
M  V30 23 H -1.5469 -0.2119 -1.9761 0
M  V30 24 H -2.8062 2.2041 -0.5011 0
M  V30 25 H -3.5605 1.2983 -1.8447 0
M  V30 26 H -2.8567 0.1105 0.9348 0
M  V30 27 H -4.4685 0.6823 0.4097 0
M  V30 28 H -4.4382 -1.0303 -1.4718 0
M  V30 29 H -2.8993 -1.6914 -0.7751 0
M  V30 30 H -4.4149 -1.7349 0.1878 0
M  V30 END ATOM
M  V30 BEGIN BOND
M  V30 1 1 1 2
M  V30 2 1 2 3
M  V30 3 2 2 4
M  V30 4 2 3 5
M  V30 5 1 3 6
M  V30 6 1 4 7
M  V30 7 1 6 8
M  V30 8 1 6 9
M  V30 9 2 8 10
M  V30 10 1 9 11
M  V30 11 1 11 12
M  V30 12 2 12 13
M  V30 13 1 12 14
M  V30 14 1 14 15
M  V30 15 1 15 16
M  V30 16 1 16 17
M  V30 17 1 7 8
M  V30 18 1 4 18
M  V30 19 1 7 19
M  V30 20 1 9 20
M  V30 21 1 9 21
M  V30 22 1 14 22
M  V30 23 1 14 23
M  V30 24 1 15 24
M  V30 25 1 15 25
M  V30 26 1 16 26
M  V30 27 1 16 27
M  V30 28 1 17 28
M  V30 29 1 17 29
M  V30 30 1 17 30
M  V30 END BOND
M  V30 END CTAB
M  END
>  <Structure No>
7039

>  <LogS>
-1.66

>  <MMFF94 Energy>
-92.756

$$$$
Compound 7040
Actelion Java MolfileCreator 2.0

  0  0  0  0  0  0              0 V3000
M  V30 BEGIN CTAB
M  V30 COUNTS 26 26 0 0 0
M  V30 BEGIN ATOM
M  V30 1 S 4.2268 -1.0554 -0.3246 0
M  V30 2 C 2.6507 -0.21 -0.2858 0
M  V30 3 C 4.0065 -1.6297 -2.0366 0
M  V30 4 N 2.5692 1.0907 -0.6626 0
M  V30 5 N 1.5377 -0.8689 0.1238 0
M  V30 6 C 1.3753 1.7339 -0.6348 0
M  V30 7 C 0.3393 -0.2315 0.1556 0
M  V30 8 N 0.2615 1.0702 -0.2269 0
M  V30 9 N 1.3018 3.1032 -1.0346 0
M  V30 10 N -0.8309 -0.9392 0.5856 0
M  V30 11 N 0.2349 3.718 -1.0176 0 CHG=1
M  V30 12 C -2.1519 -0.3067 0.6669 0
M  V30 13 N -0.8306 4.3321 -1.0006 0 CHG=-1
M  V30 14 C -3.2505 -1.3738 0.7021 0
M  V30 15 C -2.2333 0.5841 1.9102 0
M  V30 16 H 3.9023 -0.7608 -2.7197 0
M  V30 17 H 3.1055 -2.274 -2.1095 0
M  V30 18 H 4.896 -2.2196 -2.3383 0
M  V30 19 H -0.7293 -1.9527 0.8231 0
M  V30 20 H -2.3183 0.3182 -0.2384 0
M  V30 21 H -4.2523 -0.8937 0.719 0
M  V30 22 H -3.1435 -2.0171 1.602 0
M  V30 23 H -3.185 -2.0123 -0.2043 0
M  V30 24 H -2.0584 -0.0157 2.8289 0
M  V30 25 H -1.4699 1.3883 1.86 0
M  V30 26 H -3.2338 1.0624 1.9753 0
M  V30 END ATOM
M  V30 BEGIN BOND
M  V30 1 1 1 2
M  V30 2 1 1 3
M  V30 3 2 2 4
M  V30 4 1 2 5
M  V30 5 1 4 6
M  V30 6 2 5 7
M  V30 7 2 6 8
M  V30 8 1 6 9
M  V30 9 1 7 10
M  V30 10 2 9 11
M  V30 11 1 10 12
M  V30 12 2 11 13
M  V30 13 1 12 14
M  V30 14 1 12 15
M  V30 15 1 7 8
M  V30 16 1 3 16
M  V30 17 1 3 17
M  V30 18 1 3 18
M  V30 19 1 10 19
M  V30 20 1 12 20
M  V30 21 1 14 21
M  V30 22 1 14 22
M  V30 23 1 14 23
M  V30 24 1 15 24
M  V30 25 1 15 25
M  V30 26 1 15 26
M  V30 END BOND
M  V30 END CTAB
M  END
>  <Structure No>
7040

>  <LogS>
-3.48

>  <MMFF94 Energy>
-235.7

$$$$
Compound 7041
Actelion Java MolfileCreator 2.0

  0  0  0  0  0  0              0 V3000
M  V30 BEGIN CTAB
M  V30 COUNTS 18 19 0 0 0
M  V30 BEGIN ATOM
M  V30 1 S 2.6617 1.9126 -0.3324 0
M  V30 2 C 1.087 1.1719 0.0922 0
M  V30 3 C 3.4286 0.3199 -0.7632 0
M  V30 4 N 0.133 1.0122 -0.8647 0
M  V30 5 C 0.8249 0.7607 1.4059 0
M  V30 6 C -1.0689 0.4549 -0.5655 0
M  V30 7 N -0.3777 0.2022 1.7078 0
M  V30 8 N -2.0164 0.2963 -1.525 0
M  V30 9 C -1.3286 0.0407 0.7507 0
M  V30 10 C -3.2196 -0.2622 -1.2237 0
M  V30 11 C -2.5678 -0.5292 1.0383 0
M  V30 12 N -3.4877 -0.6693 0.047 0
M  V30 13 H 3.4341 -0.3518 0.1206 0
M  V30 14 H 4.4747 0.497 -1.0866 0
M  V30 15 H 2.8707 -0.1591 -1.5948 0
M  V30 16 H 1.5713 0.8817 2.1799 0
M  V30 17 H -3.966 -0.3831 -1.9967 0
M  V30 18 H -2.803 -0.86 2.0418 0
M  V30 END ATOM
M  V30 BEGIN BOND
M  V30 1 1 1 2
M  V30 2 1 1 3
M  V30 3 2 2 4
M  V30 4 1 2 5
M  V30 5 1 4 6
M  V30 6 2 5 7
M  V30 7 2 6 8
M  V30 8 1 6 9
M  V30 9 1 8 10
M  V30 10 2 9 11
M  V30 11 2 10 12
M  V30 12 1 7 9
M  V30 13 1 11 12
M  V30 14 1 3 13
M  V30 15 1 3 14
M  V30 16 1 3 15
M  V30 17 1 5 16
M  V30 18 1 10 17
M  V30 19 1 11 18
M  V30 END BOND
M  V30 END CTAB
M  END
>  <Structure No>
7041

>  <LogS>
-1.55

>  <MMFF94 Energy>
58.164

$$$$
Compound 7042
Actelion Java MolfileCreator 2.0

  0  0  0  0  0  0              0 V3000
M  V30 BEGIN CTAB
M  V30 COUNTS 18 18 0 0 0
M  V30 BEGIN ATOM
M  V30 1 Cl -4.095 1.5669 -0.261 0
M  V30 2 C -2.5521 0.7177 -0.1739 0
M  V30 3 C -2.4249 -0.5751 -0.7104 0
M  V30 4 C -1.4409 1.3287 0.4329 0
M  V30 5 Cl -3.7853 -1.3835 -1.4788 0
M  V30 6 C -1.1986 -1.2441 -0.639 0
M  V30 7 Cl -1.5505 2.9446 1.12 0
M  V30 8 C -0.2182 0.6516 0.5 0
M  V30 9 C -0.0885 -0.6416 -0.039 0
M  V30 10 O 1.1162 -1.3629 0.0013 0
M  V30 11 C 2.3528 -0.8771 0.5236 0
M  V30 12 C 2.9357 0.1644 -0.378 0
M  V30 13 O 3.0923 -0.0762 -1.6037 0
M  V30 14 O 3.3313 1.3916 0.1386 0 CHG=-1
M  V30 15 H -1.105 -2.2399 -1.054 0
M  V30 16 H 0.6202 1.1413 0.9743 0
M  V30 17 H 2.2102 -0.4805 1.5516 0
M  V30 18 H 3.0666 -1.7243 0.5875 0
M  V30 END ATOM
M  V30 BEGIN BOND
M  V30 1 1 1 2
M  V30 2 2 2 3
M  V30 3 1 2 4
M  V30 4 1 3 5
M  V30 5 1 3 6
M  V30 6 1 4 7
M  V30 7 2 4 8
M  V30 8 2 6 9
M  V30 9 1 9 10
M  V30 10 1 10 11
M  V30 11 1 11 12
M  V30 12 2 12 13
M  V30 13 1 12 14
M  V30 14 1 8 9
M  V30 15 1 6 15
M  V30 16 1 8 16
M  V30 17 1 11 17
M  V30 18 1 11 18
M  V30 END BOND
M  V30 END CTAB
M  END
>  <Structure No>
7042

>  <LogS>
-2.94

>  <MMFF94 Energy>
64.39

$$$$
Compound 7043
Actelion Java MolfileCreator 2.0

  0  0  0  0  0  0              0 V3000
M  V30 BEGIN CTAB
M  V30 COUNTS 37 37 0 0 0
M  V30 BEGIN ATOM
M  V30 1 O 0.6306 -1.5771 -0.8671 0
M  V30 2 C 0.9741 -0.9264 0.1569 0
M  V30 3 O 0.1456 0.0676 0.6936 0
M  V30 4 C 2.3336 -1.1372 0.743 0
M  V30 5 C -1.2213 0.2206 0.4189 0
M  V30 6 C 3.3424 -0.1711 0.1159 0
M  V30 7 C -1.7834 1.4975 0.5247 0
M  V30 8 C -2.0493 -0.867 0.0875 0
M  V30 9 C 4.7401 -0.3711 0.7132 0
M  V30 10 C -3.1423 1.6987 0.2676 0
M  V30 11 C -3.409 -0.6666 -0.1695 0
M  V30 12 C 5.7498 0.5964 0.0856 0
M  V30 13 C -3.9628 0.624 -0.1036 0
M  V30 14 C 7.1424 0.4005 0.6776 0
M  V30 15 N -5.3625 0.8544 -0.3403 0
M  V30 16 C -6.1535 0.1126 -1.2815 0
M  V30 17 O -5.6043 -0.6298 -2.1394 0
M  V30 18 C -7.6359 0.2945 -1.3128 0
M  V30 19 H 2.2827 -0.9695 1.8407 0
M  V30 20 H 2.6538 -2.1874 0.5668 0
M  V30 21 H 3.3831 -0.3439 -0.9824 0
M  V30 22 H 3.011 0.8755 0.2971 0
M  V30 23 H -1.1617 2.3396 0.8013 0
M  V30 24 H -1.6593 -1.8751 0.0644 0
M  V30 25 H 5.0715 -1.4174 0.5317 0
M  V30 26 H 4.6991 -0.1985 1.8114 0
M  V30 27 H -3.5558 2.6962 0.3492 0
M  V30 28 H -4.0301 -1.5253 -0.3856 0
M  V30 29 H 5.4268 1.6449 0.2663 0
M  V30 30 H 5.7988 0.4272 -1.0121 0
M  V30 31 H 7.8506 1.1131 0.2052 0
M  V30 32 H 7.5 -0.6339 0.4884 0
M  V30 33 H 7.1263 0.5889 1.7723 0
M  V30 34 H -5.8158 1.6642 0.1409 0
M  V30 35 H -7.8831 1.2166 -1.8786 0
M  V30 36 H -8.0279 0.3843 -0.278 0
M  V30 37 H -8.1218 -0.5756 -1.8026 0
M  V30 END ATOM
M  V30 BEGIN BOND
M  V30 1 2 1 2
M  V30 2 1 2 3
M  V30 3 1 2 4
M  V30 4 1 3 5
M  V30 5 1 4 6
M  V30 6 2 5 7
M  V30 7 1 5 8
M  V30 8 1 6 9
M  V30 9 1 7 10
M  V30 10 2 8 11
M  V30 11 1 9 12
M  V30 12 2 10 13
M  V30 13 1 12 14
M  V30 14 1 13 15
M  V30 15 1 15 16
M  V30 16 2 16 17
M  V30 17 1 16 18
M  V30 18 1 11 13
M  V30 19 1 4 19
M  V30 20 1 4 20
M  V30 21 1 6 21
M  V30 22 1 6 22
M  V30 23 1 7 23
M  V30 24 1 8 24
M  V30 25 1 9 25
M  V30 26 1 9 26
M  V30 27 1 10 27
M  V30 28 1 11 28
M  V30 29 1 12 29
M  V30 30 1 12 30
M  V30 31 1 14 31
M  V30 32 1 14 32
M  V30 33 1 14 33
M  V30 34 1 15 34
M  V30 35 1 18 35
M  V30 36 1 18 36
M  V30 37 1 18 37
M  V30 END BOND
M  V30 END CTAB
M  END
>  <Structure No>
7043

>  <LogS>
-4.14

>  <MMFF94 Energy>
5.7022

$$$$
Compound 7044
Actelion Java MolfileCreator 2.0

  0  0  0  0  0  0              0 V3000
M  V30 BEGIN CTAB
M  V30 COUNTS 43 43 0 0 0
M  V30 BEGIN ATOM
M  V30 1 O 2.6006 -1.339 -0.2362 0
M  V30 2 C 3.1694 -0.2137 -0.2777 0
M  V30 3 N 2.5749 0.9041 0.4 0
M  V30 4 C 4.4254 -0.0639 -1.0522 0
M  V30 5 N 1.4533 0.738 1.2332 0
M  V30 6 C 4.7271 -0.9683 -2.0849 0
M  V30 7 C 5.3451 0.9597 -0.7629 0
M  V30 8 C 0.7879 1.8609 1.8264 0
M  V30 9 C 5.9101 -0.8203 -2.8126 0
M  V30 10 C 6.5176 1.0694 -1.515 0
M  V30 11 O 1.2193 3.0302 1.6363 0
M  V30 12 C -0.4571 1.6578 2.6403 0
M  V30 13 N 6.7719 0.1876 -2.5167 0
M  V30 14 C -1.7254 1.8657 1.8017 0
M  V30 15 C -1.8886 0.7932 0.714 0
M  V30 16 C -3.2263 0.9545 -0.0224 0
M  V30 17 C -3.3412 0.0497 -1.263 0
M  V30 18 C -3.2534 -1.4599 -0.9757 0
M  V30 19 C -4.3883 -1.9634 -0.0722 0
M  V30 20 C -4.359 -3.4843 0.0505 0
M  V30 21 H 2.9408 1.865 0.2215 0
M  V30 22 H 1.076 -0.2195 1.4138 0
M  V30 23 H 4.0484 -1.7742 -2.3367 0
M  V30 24 H 5.1792 1.6554 0.048 0
M  V30 25 H 6.1426 -1.5077 -3.6149 0
M  V30 26 H 7.2289 1.8553 -1.2979 0
M  V30 27 H -0.4595 2.3864 3.4797 0
M  V30 28 H -0.4606 0.6404 3.0886 0
M  V30 29 H -1.7029 2.8756 1.3363 0
M  V30 30 H -2.6022 1.8255 2.4848 0
M  V30 31 H -1.0568 0.8792 -0.0185 0
M  V30 32 H -1.8457 -0.2097 1.1897 0
M  V30 33 H -3.3228 2.0079 -0.3663 0
M  V30 34 H -4.0696 0.7629 0.6744 0
M  V30 35 H -4.3075 0.264 -1.7691 0
M  V30 36 H -2.5348 0.3199 -1.9792 0
M  V30 37 H -2.2693 -1.71 -0.5264 0
M  V30 38 H -3.3092 -1.9913 -1.9512 0
M  V30 39 H -4.2852 -1.5304 0.945 0
M  V30 40 H -5.3702 -1.6552 -0.4925 0
M  V30 41 H -3.394 -3.8163 0.4892 0
M  V30 42 H -5.1841 -3.8199 0.7136 0
M  V30 43 H -4.4901 -3.9565 -0.9459 0
M  V30 END ATOM
M  V30 BEGIN BOND
M  V30 1 2 1 2
M  V30 2 1 2 3
M  V30 3 1 2 4
M  V30 4 1 3 5
M  V30 5 2 4 6
M  V30 6 1 4 7
M  V30 7 1 5 8
M  V30 8 1 6 9
M  V30 9 2 7 10
M  V30 10 2 8 11
M  V30 11 1 8 12
M  V30 12 2 9 13
M  V30 13 1 12 14
M  V30 14 1 14 15
M  V30 15 1 15 16
M  V30 16 1 16 17
M  V30 17 1 17 18
M  V30 18 1 18 19
M  V30 19 1 19 20
M  V30 20 1 10 13
M  V30 21 1 3 21
M  V30 22 1 5 22
M  V30 23 1 6 23
M  V30 24 1 7 24
M  V30 25 1 9 25
M  V30 26 1 10 26
M  V30 27 1 12 27
M  V30 28 1 12 28
M  V30 29 1 14 29
M  V30 30 1 14 30
M  V30 31 1 15 31
M  V30 32 1 15 32
M  V30 33 1 16 33
M  V30 34 1 16 34
M  V30 35 1 17 35
M  V30 36 1 17 36
M  V30 37 1 18 37
M  V30 38 1 18 38
M  V30 39 1 19 39
M  V30 40 1 19 40
M  V30 41 1 20 41
M  V30 42 1 20 42
M  V30 43 1 20 43
M  V30 END BOND
M  V30 END CTAB
M  END
>  <Structure No>
7044

>  <LogS>
-3.52

>  <MMFF94 Energy>
34.767

$$$$
Compound 7045
Actelion Java MolfileCreator 2.0

  0  0  0  0  0  0              0 V3000
M  V30 BEGIN CTAB
M  V30 COUNTS 32 32 0 0 0
M  V30 BEGIN ATOM
M  V30 1 O -3.5135 -2.1549 2.3945 0
M  V30 2 C -2.6063 -1.62 1.7026 0
M  V30 3 O -1.2813 -1.8923 2.0217 0 CHG=-1
M  V30 4 C -2.9572 -0.7176 0.5739 0
M  V30 5 C -1.9627 -0.1206 -0.2392 0
M  V30 6 C -4.3132 -0.4369 0.3111 0
M  V30 7 O -0.608 -0.4006 -0.0027 0
M  V30 8 C -2.3496 0.7132 -1.3064 0
M  V30 9 C -4.6772 0.4068 -0.7392 0
M  V30 10 C 0.4525 0.4874 -0.2234 0
M  V30 11 C -3.6976 0.9775 -1.5488 0
M  V30 12 O 0.2411 1.7219 -0.381 0
M  V30 13 C 1.8647 -0.0332 -0.1712 0
M  V30 14 C 2.6224 0.3975 -1.4476 0
M  V30 15 C 2.573 0.4518 1.1142 0
M  V30 16 C 3.9296 -0.3694 -1.654 0
M  V30 17 C 1.8953 -0.0662 2.3846 0
M  V30 18 H -5.0975 -0.8705 0.9191 0
M  V30 19 H -1.611 1.1379 -1.9728 0
M  V30 20 H -5.7226 0.6124 -0.9304 0
M  V30 21 H -3.9837 1.6191 -2.3723 0
M  V30 22 H 1.8182 -1.1453 -0.1537 0
M  V30 23 H 1.9796 0.2054 -2.3355 0
M  V30 24 H 2.8382 1.4883 -1.4185 0
M  V30 25 H 2.599 1.5635 1.1415 0
M  V30 26 H 3.6211 0.0885 1.1274 0
M  V30 27 H 3.7491 -1.4648 -1.619 0
M  V30 28 H 4.3519 -0.1151 -2.649 0
M  V30 29 H 4.6792 -0.0921 -0.8851 0
M  V30 30 H 1.8406 -1.1755 2.3684 0
M  V30 31 H 0.8709 0.3508 2.482 0
M  V30 32 H 2.4841 0.2463 3.2726 0
M  V30 END ATOM
M  V30 BEGIN BOND
M  V30 1 2 1 2
M  V30 2 1 2 3
M  V30 3 1 2 4
M  V30 4 2 4 5
M  V30 5 1 4 6
M  V30 6 1 5 7
M  V30 7 1 5 8
M  V30 8 2 6 9
M  V30 9 1 7 10
M  V30 10 2 8 11
M  V30 11 2 10 12
M  V30 12 1 10 13
M  V30 13 1 13 14
M  V30 14 1 13 15
M  V30 15 1 14 16
M  V30 16 1 15 17
M  V30 17 1 9 11
M  V30 18 1 6 18
M  V30 19 1 8 19
M  V30 20 1 9 20
M  V30 21 1 11 21
M  V30 22 1 13 22
M  V30 23 1 14 23
M  V30 24 1 14 24
M  V30 25 1 15 25
M  V30 26 1 15 26
M  V30 27 1 16 27
M  V30 28 1 16 28
M  V30 29 1 16 29
M  V30 30 1 17 30
M  V30 31 1 17 31
M  V30 32 1 17 32
M  V30 END BOND
M  V30 END CTAB
M  END
>  <Structure No>
7045

>  <LogS>
-1.84

>  <MMFF94 Energy>
43.178

$$$$
Compound 7046
Actelion Java MolfileCreator 2.0

  0  0  0  0  0  0              0 V3000
M  V30 BEGIN CTAB
M  V30 COUNTS 18 18 0 0 0
M  V30 BEGIN ATOM
M  V30 1 Cl 1.0441 2.9605 0.9571 0
M  V30 2 C 1.2419 1.32 0.3452 0
M  V30 3 C 2.5233 0.7514 0.2319 0
M  V30 4 C 0.1057 0.5804 -0.0275 0
M  V30 5 Cl 3.9648 1.6488 0.6915 0
M  V30 6 C 2.6676 -0.5515 -0.2534 0
M  V30 7 O -1.159 1.1816 0.1002 0
M  V30 8 C 0.268 -0.7306 -0.5175 0
M  V30 9 C 1.5437 -1.2909 -0.6276 0
M  V30 10 C -2.4093 0.5489 -0.1741 0
M  V30 11 Cl 1.7339 -2.9249 -1.2374 0
M  V30 12 C -2.723 -0.4774 0.8679 0
M  V30 13 O -2.6907 -0.1698 2.0885 0
M  V30 14 O -3.0782 -1.7665 0.4921 0 CHG=-1
M  V30 15 H 3.654 -0.9895 -0.3406 0
M  V30 16 H -0.5845 -1.3232 -0.8169 0
M  V30 17 H -2.4013 0.0981 -1.1894 0
M  V30 18 H -3.207 1.3204 -0.1569 0
M  V30 END ATOM
M  V30 BEGIN BOND
M  V30 1 1 1 2
M  V30 2 2 2 3
M  V30 3 1 2 4
M  V30 4 1 3 5
M  V30 5 1 3 6
M  V30 6 1 4 7
M  V30 7 2 4 8
M  V30 8 2 6 9
M  V30 9 1 7 10
M  V30 10 1 9 11
M  V30 11 1 10 12
M  V30 12 2 12 13
M  V30 13 1 12 14
M  V30 14 1 8 9
M  V30 15 1 6 15
M  V30 16 1 8 16
M  V30 17 1 10 17
M  V30 18 1 10 18
M  V30 END BOND
M  V30 END CTAB
M  END
>  <Structure No>
7046

>  <LogS>
-3.0

>  <MMFF94 Energy>
73.736

$$$$
Compound 7047
Actelion Java MolfileCreator 2.0

  0  0  0  0  0  0              0 V3000
M  V30 BEGIN CTAB
M  V30 COUNTS 41 42 0 0 0
M  V30 BEGIN ATOM
M  V30 1 O 0.3158 1.4218 0.6317 0
M  V30 2 C -0.0313 0.3804 0.0089 0
M  V30 3 N 0.9539 -0.5838 -0.3861 0
M  V30 4 C -1.4948 0.1458 -0.3009 0 CFG=1
M  V30 5 C 2.3551 -0.3764 -0.155 0
M  V30 6 N -2.3391 0.143 0.9267 0 CHG=1 CFG=1
M  V30 7 C -1.9756 1.2212 -1.3145 0
M  V30 8 C 3.0398 -1.1967 0.7686 0
M  V30 9 C 3.0604 0.6254 -0.8632 0
M  V30 10 C -3.7484 -0.2236 0.616 0
M  V30 11 C -1.819 -0.7862 1.9527 0
M  V30 12 C -3.4608 1.5714 -1.1537 0
M  V30 13 C 4.41 -0.9932 0.9933 0
M  V30 14 C 2.315 -2.2851 1.513 0
M  V30 15 C 4.4242 0.826 -0.5995 0
M  V30 16 C 2.3751 1.4999 -1.8793 0
M  V30 17 C -4.2621 0.3486 -0.7225 0
M  V30 18 C 5.0935 0.0183 0.3194 0
M  V30 19 H 0.6405 -1.5252 -0.7129 0
M  V30 20 H -1.592 -0.8474 -0.7978 0
M  V30 21 H -2.3328 1.1046 1.3453 0
M  V30 22 H -1.3957 2.1654 -1.2117 0
M  V30 23 H -1.7978 0.8439 -2.3457 0
M  V30 24 H -4.4081 0.1462 1.4337 0
M  V30 25 H -3.8729 -1.3307 0.5778 0
M  V30 26 H -1.6548 -1.8009 1.5265 0
M  V30 27 H -2.5297 -0.868 2.8053 0
M  V30 28 H -0.8609 -0.4145 2.3751 0
M  V30 29 H -3.859 1.9606 -2.1158 0
M  V30 30 H -3.5783 2.3723 -0.3906 0
M  V30 31 H 4.951 -1.6131 1.6976 0
M  V30 32 H 1.408 -1.8709 2.002 0
M  V30 33 H 2.0146 -3.0846 0.8039 0
M  V30 34 H 2.9535 -2.7363 2.302 0
M  V30 35 H 4.975 1.6028 -1.1158 0
M  V30 36 H 3.1028 1.8861 -2.6246 0
M  V30 37 H 1.6021 0.9288 -2.4353 0
M  V30 38 H 1.8992 2.3627 -1.3692 0
M  V30 39 H -4.1828 -0.429 -1.5143 0
M  V30 40 H -5.3357 0.6211 -0.6276 0
M  V30 41 H 6.1482 0.1744 0.5068 0
M  V30 END ATOM
M  V30 BEGIN BOND
M  V30 1 2 1 2
M  V30 2 1 2 3
M  V30 3 1 2 4
M  V30 4 1 3 5
M  V30 5 1 4 6
M  V30 6 1 4 7
M  V30 7 2 5 8
M  V30 8 1 5 9
M  V30 9 1 6 10
M  V30 10 1 6 11
M  V30 11 1 7 12
M  V30 12 1 8 13
M  V30 13 1 8 14
M  V30 14 2 9 15
M  V30 15 1 9 16
M  V30 16 1 10 17
M  V30 17 2 13 18
M  V30 18 1 12 17
M  V30 19 1 15 18
M  V30 20 1 3 19
M  V30 21 1 4 20
M  V30 22 1 6 21
M  V30 23 1 7 22
M  V30 24 1 7 23
M  V30 25 1 10 24
M  V30 26 1 10 25
M  V30 27 1 11 26
M  V30 28 1 11 27
M  V30 29 1 11 28
M  V30 30 1 12 29
M  V30 31 1 12 30
M  V30 32 1 13 31
M  V30 33 1 14 32
M  V30 34 1 14 33
M  V30 35 1 14 34
M  V30 36 1 15 35
M  V30 37 1 16 36
M  V30 38 1 16 37
M  V30 39 1 16 38
M  V30 40 1 17 39
M  V30 41 1 17 40
M  V30 42 1 18 41
M  V30 END BOND
M  V30 BEGIN COLLECTION
M  V30 MDLV30/STEABS ATOMS=(2 4 6)
M  V30 END COLLECTION
M  V30 END CTAB
M  END
>  <Structure No>
7047

>  <LogS>
-1.99

>  <MMFF94 Energy>
55.996

$$$$
Compound 7048
Actelion Java MolfileCreator 2.0

  0  0  0  0  0  0              0 V3000
M  V30 BEGIN CTAB
M  V30 COUNTS 38 39 0 0 0
M  V30 BEGIN ATOM
M  V30 1 O 3.516 -2.6361 0.2394 0
M  V30 2 C 3.2417 -1.4046 0.2261 0
M  V30 3 O 1.9402 -0.9747 0.5066 0
M  V30 4 C 4.2954 -0.4122 -0.0801 0
M  V30 5 C 0.8841 -1.8736 0.8262 0
M  V30 6 C 4.0022 0.9635 -0.0591 0
M  V30 7 C 5.6045 -0.8265 -0.3908 0
M  V30 8 C -0.3672 -1.0955 1.0743 0
M  V30 9 C 4.9991 1.9032 -0.3396 0
M  V30 10 C 6.5978 0.1176 -0.6686 0
M  V30 11 O -0.6835 -0.7907 2.256 0
M  V30 12 N -1.175 -0.6612 -0.0298 0
M  V30 13 C 6.2956 1.4809 -0.6427 0
M  V30 14 C -2.427 0.0823 0.1588 0
M  V30 15 C -2.8744 0.7572 -1.1643 0
M  V30 16 C -3.5309 -0.8511 0.6877 0
M  V30 17 C -4.3886 1.0563 -1.2217 0
M  V30 18 C -4.8268 -0.0772 1.0101 0
M  V30 19 C -5.0012 1.2064 0.1747 0
M  V30 20 H 1.1502 -2.4584 1.7329 0
M  V30 21 H 0.7217 -2.5786 -0.0157 0
M  V30 22 H 3.0055 1.3156 0.1758 0
M  V30 23 H 5.8617 -1.8775 -0.4183 0
M  V30 24 H 4.7668 2.9606 -0.3181 0
M  V30 25 H 7.6025 -0.2086 -0.9042 0
M  V30 26 H -0.8233 -0.8507 -0.9956 0
M  V30 27 H 7.0664 2.2109 -0.8579 0
M  V30 28 H -2.2509 0.8859 0.9101 0
M  V30 29 H -2.6248 0.1115 -2.0345 0
M  V30 30 H -2.307 1.7068 -1.2863 0
M  V30 31 H -3.1894 -1.3777 1.6046 0
M  V30 32 H -3.7459 -1.6269 -0.0804 0
M  V30 33 H -4.5627 1.9861 -1.8057 0
M  V30 34 H -4.9106 0.2278 -1.7516 0
M  V30 35 H -5.6962 -0.7504 0.8367 0
M  V30 36 H -4.834 0.1984 2.0879 0
M  V30 37 H -6.0828 1.4448 0.0852 0
M  V30 38 H -4.5111 2.0584 0.6947 0
M  V30 END ATOM
M  V30 BEGIN BOND
M  V30 1 2 1 2
M  V30 2 1 2 3
M  V30 3 1 2 4
M  V30 4 1 3 5
M  V30 5 2 4 6
M  V30 6 1 4 7
M  V30 7 1 5 8
M  V30 8 1 6 9
M  V30 9 2 7 10
M  V30 10 2 8 11
M  V30 11 1 8 12
M  V30 12 2 9 13
M  V30 13 1 12 14
M  V30 14 1 14 15
M  V30 15 1 14 16
M  V30 16 1 15 17
M  V30 17 1 16 18
M  V30 18 1 17 19
M  V30 19 1 10 13
M  V30 20 1 18 19
M  V30 21 1 5 20
M  V30 22 1 5 21
M  V30 23 1 6 22
M  V30 24 1 7 23
M  V30 25 1 9 24
M  V30 26 1 10 25
M  V30 27 1 12 26
M  V30 28 1 13 27
M  V30 29 1 14 28
M  V30 30 1 15 29
M  V30 31 1 15 30
M  V30 32 1 16 31
M  V30 33 1 16 32
M  V30 34 1 17 33
M  V30 35 1 17 34
M  V30 36 1 18 35
M  V30 37 1 18 36
M  V30 38 1 19 37
M  V30 39 1 19 38
M  V30 END BOND
M  V30 END CTAB
M  END
>  <Structure No>
7048

>  <LogS>
-3.9

>  <MMFF94 Energy>
29.789

$$$$
Compound 7049
Actelion Java MolfileCreator 2.0

  0  0  0  0  0  0              0 V3000
M  V30 BEGIN CTAB
M  V30 COUNTS 20 20 0 0 0
M  V30 BEGIN ATOM
M  V30 1 O -0.3268 1.6348 -2.0439 0
M  V30 2 N -0.5303 0.445 -1.7263 0 CHG=1
M  V30 3 O -0.6089 -0.5032 -2.7201 0 CHG=-1
M  V30 4 C -0.8892 0.1049 -0.3771 0
M  V30 5 C -0.3193 0.772 0.7374 0
M  V30 6 C -1.8664 -0.881 -0.1556 0
M  V30 7 N 0.7551 1.7147 0.6012 0 CHG=-1
M  V30 8 C -0.7981 0.4993 2.0255 0
M  V30 9 C -2.308 -1.1665 1.1381 0
M  V30 10 N 1.8509 1.5676 -0.2728 0
M  V30 11 C -1.7839 -0.4684 2.2259 0
M  V30 12 C 2.4786 0.4513 -0.506 0
M  V30 13 C 3.5602 0.4471 -1.4491 0
M  V30 14 C 2.1906 -0.7648 0.213 0
M  V30 15 N 4.4321 0.4437 -2.2098 0
M  V30 16 N 1.9605 -1.7416 0.7895 0
M  V30 17 H -2.3113 -1.4089 -0.9894 0
M  V30 18 H -0.381 1.0178 2.8799 0
M  V30 19 H -3.0693 -1.9195 1.2957 0
M  V30 20 H -2.135 -0.6839 3.2267 0
M  V30 END ATOM
M  V30 BEGIN BOND
M  V30 1 2 1 2
M  V30 2 1 2 3
M  V30 3 1 2 4
M  V30 4 2 4 5
M  V30 5 1 4 6
M  V30 6 1 5 7
M  V30 7 1 5 8
M  V30 8 2 6 9
M  V30 9 1 7 10
M  V30 10 2 8 11
M  V30 11 2 10 12
M  V30 12 1 12 13
M  V30 13 1 12 14
M  V30 14 3 13 15
M  V30 15 3 14 16
M  V30 16 1 9 11
M  V30 17 1 6 17
M  V30 18 1 8 18
M  V30 19 1 9 19
M  V30 20 1 11 20
M  V30 END BOND
M  V30 END CTAB
M  END
>  <Structure No>
7049

>  <LogS>
-3.93

>  <MMFF94 Energy>
131.88

$$$$
Compound 7050
Actelion Java MolfileCreator 2.0

  0  0  0  0  0  0              0 V3000
M  V30 BEGIN CTAB
M  V30 COUNTS 42 45 0 0 0
M  V30 BEGIN ATOM
M  V30 1 O 6.3151 -0.1615 -0.4847 0
M  V30 2 C 4.9443 0.0365 -0.3342 0
M  V30 3 C 4.1582 -0.9729 0.2232 0
M  V30 4 C 4.3515 1.2413 -0.7205 0
M  V30 5 C 2.7727 -0.7996 0.3753 0
M  V30 6 C 2.9773 1.4289 -0.5628 0
M  V30 7 C 2.1604 0.3978 -0.0521 0
M  V30 8 C 1.9929 -1.8497 1.112 0
M  V30 9 C 0.6632 0.6229 0.145 0 CFG=2
M  V30 10 C 0.5139 -1.7666 0.8811 0
M  V30 11 C -0.1111 -0.6581 0.4346 0
M  V30 12 C 0.0484 1.4185 -1.043 0
M  V30 13 C -1.6358 -0.6529 0.4119 0 CFG=1
M  V30 14 C -1.428 1.1269 -1.3713 0
M  V30 15 C -2.2678 0.6313 -0.1647 0 CFG=1
M  V30 16 C -2.2043 -1.8056 -0.4379 0
M  V30 17 C -3.6678 0.1424 -0.6077 0 CFG=2
M  V30 18 C -2.4278 1.7489 0.8928 0
M  V30 19 C -3.4935 -1.3021 -1.0836 0
M  V30 20 O -4.2826 0.9769 -1.5626 0
M  V30 21 H 6.9132 0.5539 -0.8809 0
M  V30 22 H 4.6321 -1.888 0.5579 0
M  V30 23 H 4.9565 2.039 -1.1322 0
M  V30 24 H 2.5555 2.3854 -0.8413 0
M  V30 25 H 2.3362 -2.8584 0.7962 0
M  V30 26 H 2.1865 -1.7427 2.2002 0
M  V30 27 H 0.5788 1.2461 1.0595 0
M  V30 28 H -0.0732 -2.6332 1.1722 0
M  V30 29 H 0.6298 1.2282 -1.9727 0
M  V30 30 H 0.148 2.5043 -0.8229 0
M  V30 31 H -1.9963 -0.7954 1.4569 0
M  V30 32 H -1.4506 0.3575 -2.1747 0
M  V30 33 H -1.8817 2.0475 -1.7997 0
M  V30 34 H -2.408 -2.6948 0.198 0
M  V30 35 H -1.4875 -2.1016 -1.2366 0
M  V30 36 H -4.3377 0.107 0.2816 0
M  V30 37 H -1.4537 2.1267 1.2539 0
M  V30 38 H -2.9834 2.6068 0.4573 0
M  V30 39 H -2.995 1.3823 1.775 0
M  V30 40 H -4.3616 -1.9232 -0.7715 0
M  V30 41 H -3.4018 -1.361 -2.1901 0
M  V30 42 H -3.857 0.8212 -2.4445 0
M  V30 END ATOM
M  V30 BEGIN BOND
M  V30 1 1 1 2
M  V30 2 2 2 3
M  V30 3 1 2 4
M  V30 4 1 3 5
M  V30 5 2 4 6
M  V30 6 2 5 7
M  V30 7 1 5 8
M  V30 8 1 7 9
M  V30 9 1 8 10
M  V30 10 1 9 11
M  V30 11 1 9 12
M  V30 12 1 11 13
M  V30 13 1 12 14
M  V30 14 1 13 15
M  V30 15 1 13 16
M  V30 16 1 15 17
M  V30 17 1 15 18
M  V30 18 1 16 19
M  V30 19 1 17 20
M  V30 20 1 6 7
M  V30 21 2 10 11
M  V30 22 1 14 15
M  V30 23 1 17 19
M  V30 24 1 1 21
M  V30 25 1 3 22
M  V30 26 1 4 23
M  V30 27 1 6 24
M  V30 28 1 8 25
M  V30 29 1 8 26
M  V30 30 1 9 27
M  V30 31 1 10 28
M  V30 32 1 12 29
M  V30 33 1 12 30
M  V30 34 1 13 31
M  V30 35 1 14 32
M  V30 36 1 14 33
M  V30 37 1 16 34
M  V30 38 1 16 35
M  V30 39 1 17 36
M  V30 40 1 18 37
M  V30 41 1 18 38
M  V30 42 1 18 39
M  V30 43 1 19 40
M  V30 44 1 19 41
M  V30 45 1 20 42
M  V30 END BOND
M  V30 BEGIN COLLECTION
M  V30 MDLV30/STEABS ATOMS=(4 9 13 15 17)
M  V30 END COLLECTION
M  V30 END CTAB
M  END
>  <Structure No>
7050

>  <LogS>
-4.4

>  <MMFF94 Energy>
76.479

$$$$
Compound 7051
Actelion Java MolfileCreator 2.0

  0  0  0  0  0  0              0 V3000
M  V30 BEGIN CTAB
M  V30 COUNTS 23 24 0 0 0
M  V30 BEGIN ATOM
M  V30 1 O 0.0799 2.4799 0.3197 0
M  V30 2 C 0.004 1.2409 0.0937 0
M  V30 3 C -1.3282 0.5922 0.0681 0
M  V30 4 C 1.257 0.4753 -0.1121 0
M  V30 5 N -1.4337 -0.7565 0.2364 0
M  V30 6 C -2.4972 1.3566 -0.089 0
M  V30 7 C 1.3123 -0.6013 -1.0175 0
M  V30 8 C 2.4276 0.8511 0.5715 0
M  V30 9 C -2.6352 -1.3932 0.2413 0
M  V30 10 C -3.7405 0.7203 -0.0869 0
M  V30 11 C 2.507 -1.302 -1.2108 0
M  V30 12 C 3.6195 0.1467 0.3751 0
M  V30 13 C -3.8135 -0.6631 0.0778 0
M  V30 14 C 3.6585 -0.9306 -0.5127 0
M  V30 15 H -2.45 2.4308 -0.2181 0
M  V30 16 H 0.4412 -0.8878 -1.5927 0
M  V30 17 H 2.4166 1.6821 1.2663 0
M  V30 18 H -2.675 -2.466 0.3743 0
M  V30 19 H -4.6464 1.2996 -0.212 0
M  V30 20 H 2.5416 -2.1289 -1.9084 0
M  V30 21 H 4.5137 0.4373 0.9115 0
M  V30 22 H -4.7729 -1.1642 0.0813 0
M  V30 23 H 4.5823 -1.4736 -0.6648 0
M  V30 END ATOM
M  V30 BEGIN BOND
M  V30 1 2 1 2
M  V30 2 1 2 3
M  V30 3 1 2 4
M  V30 4 2 3 5
M  V30 5 1 3 6
M  V30 6 2 4 7
M  V30 7 1 4 8
M  V30 8 1 5 9
M  V30 9 2 6 10
M  V30 10 1 7 11
M  V30 11 2 8 12
M  V30 12 2 9 13
M  V30 13 2 11 14
M  V30 14 1 10 13
M  V30 15 1 12 14
M  V30 16 1 6 15
M  V30 17 1 7 16
M  V30 18 1 8 17
M  V30 19 1 9 18
M  V30 20 1 10 19
M  V30 21 1 11 20
M  V30 22 1 12 21
M  V30 23 1 13 22
M  V30 24 1 14 23
M  V30 END BOND
M  V30 END CTAB
M  END
>  <Structure No>
7051

>  <LogS>
-2.02

>  <MMFF94 Energy>
82.628

$$$$
Compound 7052
Actelion Java MolfileCreator 2.0

  0  0  0  0  0  0              0 V3000
M  V30 BEGIN CTAB
M  V30 COUNTS 33 33 0 0 0
M  V30 BEGIN ATOM
M  V30 1 F 4.1327 -3.3369 1.6674 0
M  V30 2 C 3.8153 -2.259 0.9064 0
M  V30 3 C 3.3881 -1.0672 1.4939 0
M  V30 4 C 3.9102 -2.3279 -0.4775 0
M  V30 5 O 3.2996 -1.0049 2.7509 0
M  V30 6 N 3.0697 0.0147 0.7094 0
M  V30 7 N 3.5907 -1.2472 -1.2318 0
M  V30 8 C 3.1743 -0.0857 -0.6565 0
M  V30 9 C 2.5999 1.2789 1.3091 0
M  V30 10 O 2.8848 0.8962 -1.3951 0
M  V30 11 O 1.2468 1.5281 0.9347 0
M  V30 12 C 0.1734 0.7508 1.3813 0
M  V30 13 O 0.3506 -0.1752 2.219 0
M  V30 14 C -1.189 0.9886 0.8141 0
M  V30 15 C -1.3616 0.204 -0.4928 0
M  V30 16 C -2.6918 0.5129 -1.1972 0
M  V30 17 C -3.9023 -0.0764 -0.4581 0
M  V30 18 C -5.1878 0.137 -1.2524 0
M  V30 19 H 4.2388 -3.2435 -0.953 0
M  V30 20 H 3.6668 -1.3148 -2.2719 0
M  V30 21 H 3.2308 2.1164 0.9417 0
M  V30 22 H 2.6861 1.2854 2.4171 0
M  V30 23 H -1.9516 0.6744 1.5578 0
M  V30 24 H -1.3144 2.0763 0.6229 0
M  V30 25 H -0.5351 0.4765 -1.1863 0
M  V30 26 H -1.2851 -0.8875 -0.2923 0
M  V30 27 H -2.6477 0.0752 -2.2188 0
M  V30 28 H -2.8135 1.613 -1.3074 0
M  V30 29 H -4.0186 0.4106 0.5329 0
M  V30 30 H -3.7546 -1.167 -0.3018 0
M  V30 31 H -5.1214 -0.3697 -2.2387 0
M  V30 32 H -6.0464 -0.2895 -0.692 0
M  V30 33 H -5.3691 1.222 -1.4084 0
M  V30 END ATOM
M  V30 BEGIN BOND
M  V30 1 1 1 2
M  V30 2 1 2 3
M  V30 3 2 2 4
M  V30 4 2 3 5
M  V30 5 1 3 6
M  V30 6 1 4 7
M  V30 7 1 6 8
M  V30 8 1 6 9
M  V30 9 2 8 10
M  V30 10 1 9 11
M  V30 11 1 11 12
M  V30 12 2 12 13
M  V30 13 1 12 14
M  V30 14 1 14 15
M  V30 15 1 15 16
M  V30 16 1 16 17
M  V30 17 1 17 18
M  V30 18 1 7 8
M  V30 19 1 4 19
M  V30 20 1 7 20
M  V30 21 1 9 21
M  V30 22 1 9 22
M  V30 23 1 14 23
M  V30 24 1 14 24
M  V30 25 1 15 25
M  V30 26 1 15 26
M  V30 27 1 16 27
M  V30 28 1 16 28
M  V30 29 1 17 29
M  V30 30 1 17 30
M  V30 31 1 18 31
M  V30 32 1 18 32
M  V30 33 1 18 33
M  V30 END BOND
M  V30 END CTAB
M  END
>  <Structure No>
7052

>  <LogS>
-2.11

>  <MMFF94 Energy>
-97.857

$$$$
Compound 7053
Actelion Java MolfileCreator 2.0

  0  0  0  0  0  0              0 V3000
M  V30 BEGIN CTAB
M  V30 COUNTS 49 50 0 0 0
M  V30 BEGIN ATOM
M  V30 1 S 4.1295 -0.1617 -2.8326 0
M  V30 2 C 2.5525 0.0782 -1.916 0
M  V30 3 C 5.1337 0.9713 -1.8184 0
M  V30 4 C 2.7136 0.4205 -0.4096 0 CFG=1
M  V30 5 C 5.2749 0.4565 -0.3787 0
M  V30 6 C 1.4196 0.0699 0.3928 0 CFG=1
M  V30 7 C 3.9993 -0.2106 0.1709 0
M  V30 8 C 1.2705 -1.4346 0.7115 0
M  V30 9 C 1.3051 0.9095 1.6832 0
M  V30 10 C 0.0117 -1.7235 1.4899 0
M  V30 11 C 0.0632 0.5747 2.4726 0
M  V30 12 O -0.3527 -2.8837 1.6085 0
M  V30 13 C -0.7992 -0.6269 2.1423 0 CFG=1
M  V30 14 O -0.2623 1.3045 3.3969 0
M  V30 15 C -1.9857 -0.2578 1.276 0
M  V30 16 N -1.9208 0.7853 0.5017 0
M  V30 17 C -3.2273 -1.1194 1.3066 0
M  V30 18 O -2.9703 1.1762 -0.2992 0
M  V30 19 C -3.3633 -1.9473 0.0218 0
M  V30 20 C -2.8427 2.3069 -1.1453 0
M  V30 21 C -4.6005 -2.8386 0.0707 0
M  V30 22 C -4.1287 2.5034 -1.9312 0
M  V30 23 H 1.9794 0.8896 -2.4132 0
M  V30 24 H 1.9701 -0.8558 -2.046 0
M  V30 25 H 4.6664 1.9795 -1.8251 0
M  V30 26 H 6.1407 1.0665 -2.2759 0
M  V30 27 H 2.8336 1.5262 -0.3494 0
M  V30 28 H 5.5512 1.3135 0.2734 0
M  V30 29 H 6.1088 -0.2771 -0.3316 0
M  V30 30 H 0.5592 0.3596 -0.2506 0
M  V30 31 H 4.0232 -1.2946 -0.0776 0
M  V30 32 H 4.0164 -0.127 1.2773 0
M  V30 33 H 2.1286 -1.7938 1.3171 0
M  V30 34 H 1.2422 -2.0181 -0.2318 0
M  V30 35 H 2.186 0.7468 2.3379 0
M  V30 36 H 1.2698 1.9872 1.4121 0
M  V30 37 H -1.1749 -1.0244 3.1117 0
M  V30 38 H -4.1211 -0.472 1.4417 0
M  V30 39 H -3.1854 -1.8108 2.1761 0
M  V30 40 H -3.4432 -1.2792 -0.8615 0
M  V30 41 H -2.4653 -2.5883 -0.1092 0
M  V30 42 H -2.6406 3.2102 -0.5306 0
M  V30 43 H -1.9977 2.1501 -1.8496 0
M  V30 44 H -4.5334 -3.5457 0.9248 0
M  V30 45 H -5.5172 -2.2202 0.177 0
M  V30 46 H -4.6741 -3.4242 -0.8695 0
M  V30 47 H -4.3345 1.6056 -2.5517 0
M  V30 48 H -4.9778 2.6677 -1.2344 0
M  V30 49 H -4.0307 3.3874 -2.5958 0
M  V30 END ATOM
M  V30 BEGIN BOND
M  V30 1 1 1 2
M  V30 2 1 1 3
M  V30 3 1 2 4
M  V30 4 1 3 5
M  V30 5 1 4 6
M  V30 6 1 4 7
M  V30 7 1 6 8
M  V30 8 1 6 9
M  V30 9 1 8 10
M  V30 10 1 9 11
M  V30 11 2 10 12
M  V30 12 1 10 13
M  V30 13 2 11 14
M  V30 14 1 13 15
M  V30 15 2 15 16
M  V30 16 1 15 17
M  V30 17 1 16 18
M  V30 18 1 17 19
M  V30 19 1 18 20
M  V30 20 1 19 21
M  V30 21 1 20 22
M  V30 22 1 5 7
M  V30 23 1 11 13
M  V30 24 1 2 23
M  V30 25 1 2 24
M  V30 26 1 3 25
M  V30 27 1 3 26
M  V30 28 1 4 27
M  V30 29 1 5 28
M  V30 30 1 5 29
M  V30 31 1 6 30
M  V30 32 1 7 31
M  V30 33 1 7 32
M  V30 34 1 8 33
M  V30 35 1 8 34
M  V30 36 1 9 35
M  V30 37 1 9 36
M  V30 38 1 13 37
M  V30 39 1 17 38
M  V30 40 1 17 39
M  V30 41 1 19 40
M  V30 42 1 19 41
M  V30 43 1 20 42
M  V30 44 1 20 43
M  V30 45 1 21 44
M  V30 46 1 21 45
M  V30 47 1 21 46
M  V30 48 1 22 47
M  V30 49 1 22 48
M  V30 50 1 22 49
M  V30 END BOND
M  V30 BEGIN COLLECTION
M  V30 MDLV30/STEABS ATOMS=(3 4 6 13)
M  V30 END COLLECTION
M  V30 END CTAB
M  END
>  <Structure No>
7053

>  <LogS>
-3.58

>  <MMFF94 Energy>
7.473

$$$$
Compound 7054
Actelion Java MolfileCreator 2.0

  0  0  0  0  0  0              0 V3000
M  V30 BEGIN CTAB
M  V30 COUNTS 35 35 0 0 0
M  V30 BEGIN ATOM
M  V30 1 O 1.027 -1.027 -1.1851 0
M  V30 2 C 1.4379 -0.4156 -0.1602 0
M  V30 3 O 0.6075 0.4814 0.5223 0
M  V30 4 O 2.7531 -0.5807 0.279 0
M  V30 5 C -0.7871 0.5591 0.3905 0
M  V30 6 C 3.6762 -1.4527 -0.3667 0
M  V30 7 C -1.4103 1.7911 0.6174 0
M  V30 8 C -1.5775 -0.5611 0.076 0
M  V30 9 C 5.0294 -1.4166 0.349 0
M  V30 10 C -2.7981 1.9158 0.5082 0
M  V30 11 C -2.9663 -0.4378 -0.031 0
M  V30 12 C 5.6625 -0.0159 0.3898 0
M  V30 13 C -3.5902 0.8012 0.1981 0
M  V30 14 C 6.1137 0.4703 -0.9869 0
M  V30 15 N -5.0137 0.9616 0.0707 0
M  V30 16 C -5.973 -0.0518 0.4089 0
M  V30 17 O -5.6308 -1.0643 1.0773 0
M  V30 18 C -7.4115 0.1384 0.0535 0
M  V30 19 H 3.2831 -2.492 -0.334 0
M  V30 20 H 3.7939 -1.1621 -1.4321 0
M  V30 21 H -0.8144 2.6591 0.8694 0
M  V30 22 H -1.1306 -1.5352 -0.0658 0
M  V30 23 H 5.7253 -2.128 -0.1463 0
M  V30 24 H 4.8838 -1.7686 1.3935 0
M  V30 25 H -3.2591 2.8809 0.6771 0
M  V30 26 H -3.546 -1.3072 -0.3098 0
M  V30 27 H 6.5532 -0.0553 1.0535 0
M  V30 28 H 4.9525 0.7175 0.8294 0
M  V30 29 H 6.7794 -0.2788 -1.4655 0
M  V30 30 H 6.6755 1.4216 -0.8757 0
M  V30 31 H 5.239 0.6619 -1.6421 0
M  V30 32 H -5.3792 1.9008 -0.2071 0
M  V30 33 H -7.8932 0.7991 0.8039 0
M  V30 34 H -7.4947 0.6039 -0.9507 0
M  V30 35 H -7.9379 -0.8393 0.0368 0
M  V30 END ATOM
M  V30 BEGIN BOND
M  V30 1 2 1 2
M  V30 2 1 2 3
M  V30 3 1 2 4
M  V30 4 1 3 5
M  V30 5 1 4 6
M  V30 6 2 5 7
M  V30 7 1 5 8
M  V30 8 1 6 9
M  V30 9 1 7 10
M  V30 10 2 8 11
M  V30 11 1 9 12
M  V30 12 2 10 13
M  V30 13 1 12 14
M  V30 14 1 13 15
M  V30 15 1 15 16
M  V30 16 2 16 17
M  V30 17 1 16 18
M  V30 18 1 11 13
M  V30 19 1 6 19
M  V30 20 1 6 20
M  V30 21 1 7 21
M  V30 22 1 8 22
M  V30 23 1 9 23
M  V30 24 1 9 24
M  V30 25 1 10 25
M  V30 26 1 11 26
M  V30 27 1 12 27
M  V30 28 1 12 28
M  V30 29 1 14 29
M  V30 30 1 14 30
M  V30 31 1 14 31
M  V30 32 1 15 32
M  V30 33 1 18 33
M  V30 34 1 18 34
M  V30 35 1 18 35
M  V30 END BOND
M  V30 END CTAB
M  END
>  <Structure No>
7054

>  <LogS>
-3.37

>  <MMFF94 Energy>
-8.9909

$$$$
Compound 7055
Actelion Java MolfileCreator 2.0

  0  0  0  0  0  0              0 V3000
M  V30 BEGIN CTAB
M  V30 COUNTS 24 25 0 0 0
M  V30 BEGIN ATOM
M  V30 1 O 3.2729 -1.4358 0.6379 0
M  V30 2 C 3.4464 -0.3884 -0.0419 0
M  V30 3 O 2.369 0.4394 -0.3825 0
M  V30 4 C 4.8316 0.0392 -0.3887 0
M  V30 5 C 1.0167 0.0667 -0.3499 0
M  V30 6 C 0.0572 1.0649 -0.1418 0
M  V30 7 C 0.5984 -1.2604 -0.559 0
M  V30 8 C -1.3088 0.7468 -0.1088 0
M  V30 9 C -0.7599 -1.588 -0.5292 0
M  V30 10 C -1.7211 -0.5935 -0.3012 0
M  V30 11 C -2.2714 1.7442 0.1122 0
M  V30 12 C -3.0878 -0.9116 -0.2689 0
M  V30 13 C -3.6295 1.4143 0.1431 0
M  V30 14 C -4.0362 0.0909 -0.0466 0
M  V30 15 H 5.2606 0.6214 0.4529 0
M  V30 16 H 5.4687 -0.8491 -0.5832 0
M  V30 17 H 4.8141 0.6735 -1.2995 0
M  V30 18 H 0.3831 2.0884 0.0027 0
M  V30 19 H 1.3147 -2.0409 -0.7747 0
M  V30 20 H -1.0589 -2.6164 -0.6931 0
M  V30 21 H -1.9745 2.7756 0.2612 0
M  V30 22 H -3.4213 -1.9319 -0.4154 0
M  V30 23 H -4.3686 2.1862 0.3143 0
M  V30 24 H -5.0892 -0.1581 -0.0221 0
M  V30 END ATOM
M  V30 BEGIN BOND
M  V30 1 2 1 2
M  V30 2 1 2 3
M  V30 3 1 2 4
M  V30 4 1 3 5
M  V30 5 2 5 6
M  V30 6 1 5 7
M  V30 7 1 6 8
M  V30 8 2 7 9
M  V30 9 1 8 10
M  V30 10 2 8 11
M  V30 11 2 10 12
M  V30 12 1 11 13
M  V30 13 1 12 14
M  V30 14 1 9 10
M  V30 15 2 13 14
M  V30 16 1 4 15
M  V30 17 1 4 16
M  V30 18 1 4 17
M  V30 19 1 6 18
M  V30 20 1 7 19
M  V30 21 1 9 20
M  V30 22 1 11 21
M  V30 23 1 12 22
M  V30 24 1 13 23
M  V30 25 1 14 24
M  V30 END BOND
M  V30 END CTAB
M  END
>  <Structure No>
7055

>  <LogS>
-3.44

>  <MMFF94 Energy>
37.561

$$$$
Compound 7056
Actelion Java MolfileCreator 2.0

  0  0  0  0  0  0              0 V3000
M  V30 BEGIN CTAB
M  V30 COUNTS 72 75 0 0 0
M  V30 BEGIN ATOM
M  V30 1 O -9.6763 0.0803 -0.6428 0
M  V30 2 C -8.4308 0.1779 -0.4745 0
M  V30 3 C -7.5943 -1.0363 -0.5098 0
M  V30 4 C -7.8173 1.5348 -0.2411 0
M  V30 5 C -6.2536 -0.9467 -0.4861 0
M  V30 6 C -6.3632 1.4264 0.2557 0
M  V30 7 C -5.5853 0.4086 -0.604 0 CFG=1
M  V30 8 C -5.4228 -2.139 -0.1292 0
M  V30 9 C -4.0516 0.3943 -0.2759 0 CFG=1
M  V30 10 C -4.6238 -1.7719 1.1166 0
M  V30 11 C -3.6045 -0.6306 0.8505 0 CFG=1
M  V30 12 C -3.2231 0.2377 -1.5865 0
M  V30 13 C -2.2072 -1.2264 0.5249 0 CFG=1
M  V30 14 C -1.6871 0.3302 -1.3819 0
M  V30 15 C -1.2067 -0.1823 0.0082 0 CFG=2
M  V30 16 C -1.4691 -1.9612 1.6398 0
M  V30 17 C 0.0937 -1.0229 -0.0299 0 CFG=2
M  V30 18 C -1.0121 1.0183 0.9888 0
M  V30 19 C -1.0E-4 -1.9496 1.198 0
M  V30 20 O 1.2845 -0.2341 0.0442 0
M  V30 21 C 1.8448 0.438 -1.0488 0
M  V30 22 O 1.3322 0.3473 -2.1965 0
M  V30 23 C 3.0881 1.2459 -0.8559 0
M  V30 24 C 4.3162 0.4645 -1.3398 0
M  V30 25 C 5.6056 1.3031 -1.2923 0
M  V30 26 C 6.0583 1.7293 0.12 0
M  V30 27 C 6.1837 0.5942 1.1617 0
M  V30 28 C 7.1095 -0.5778 0.7636 0
M  V30 29 C 8.5808 -0.4006 1.18 0
M  V30 30 C 9.3086 0.6936 0.401 0
M  V30 31 H -8.082 -2.0013 -0.439 0
M  V30 32 H -7.8392 2.102 -1.1978 0
M  V30 33 H -8.4205 2.0935 0.5079 0
M  V30 34 H -5.892 2.4318 0.1882 0
M  V30 35 H -6.351 1.1091 1.323 0
M  V30 36 H -5.714 0.7372 -1.6605 0
M  V30 37 H -6.0544 -3.0277 0.0916 0
M  V30 38 H -4.7465 -2.4048 -0.9683 0
M  V30 39 H -3.8074 1.4144 0.0851 0
M  V30 40 H -4.1259 -2.6846 1.5062 0
M  V30 41 H -5.3313 -1.4471 1.9142 0
M  V30 42 H -3.5138 -0.0637 1.8039 0
M  V30 43 H -3.4671 -0.7397 -2.0552 0
M  V30 44 H -3.5185 1.0239 -2.3159 0
M  V30 45 H -2.3582 -1.9835 -0.2845 0
M  V30 46 H -1.2151 -0.2595 -2.196 0
M  V30 47 H -1.3627 1.3824 -1.5374 0
M  V30 48 H -1.5885 -1.4296 2.6094 0
M  V30 49 H -1.8345 -3.0043 1.7511 0
M  V30 50 H 0.1215 -1.6646 -0.9413 0
M  V30 51 H -0.2589 1.7289 0.5841 0
M  V30 52 H -0.6512 0.6819 1.9834 0
M  V30 53 H -1.9383 1.5983 1.1519 0
M  V30 54 H 0.3366 -2.975 0.931 0
M  V30 55 H 0.6366 -1.5745 2.0287 0
M  V30 56 H 3.1926 1.4933 0.2218 0
M  V30 57 H 2.9937 2.197 -1.4234 0
M  V30 58 H 4.4358 -0.4684 -0.7502 0
M  V30 59 H 4.1536 0.1585 -2.3962 0
M  V30 60 H 6.423 0.7414 -1.7933 0
M  V30 61 H 5.4545 2.2217 -1.9024 0
M  V30 62 H 5.3399 2.481 0.5152 0
M  V30 63 H 7.0246 2.2642 0.0251 0
M  V30 64 H 6.5307 1.0327 2.124 0
M  V30 65 H 5.1675 0.1928 1.3653 0
M  V30 66 H 6.7383 -1.4824 1.2917 0
M  V30 67 H 7.0435 -0.8155 -0.3167 0
M  V30 68 H 9.1071 -1.3621 0.9915 0
M  V30 69 H 8.6519 -0.1943 2.2718 0
M  V30 70 H 10.4063 0.5512 0.5017 0
M  V30 71 H 9.0453 0.6586 -0.6786 0
M  V30 72 H 9.0607 1.6904 0.8195 0
M  V30 END ATOM
M  V30 BEGIN BOND
M  V30 1 2 1 2
M  V30 2 1 2 3
M  V30 3 1 2 4
M  V30 4 2 3 5
M  V30 5 1 4 6
M  V30 6 1 5 7
M  V30 7 1 5 8
M  V30 8 1 7 9
M  V30 9 1 8 10
M  V30 10 1 9 11
M  V30 11 1 9 12
M  V30 12 1 11 13
M  V30 13 1 12 14
M  V30 14 1 13 15
M  V30 15 1 13 16
M  V30 16 1 15 17
M  V30 17 1 15 18
M  V30 18 1 16 19
M  V30 19 1 17 20
M  V30 20 1 20 21
M  V30 21 2 21 22
M  V30 22 1 21 23
M  V30 23 1 23 24
M  V30 24 1 24 25
M  V30 25 1 25 26
M  V30 26 1 26 27
M  V30 27 1 27 28
M  V30 28 1 28 29
M  V30 29 1 29 30
M  V30 30 1 6 7
M  V30 31 1 10 11
M  V30 32 1 14 15
M  V30 33 1 17 19
M  V30 34 1 3 31
M  V30 35 1 4 32
M  V30 36 1 4 33
M  V30 37 1 6 34
M  V30 38 1 6 35
M  V30 39 1 7 36
M  V30 40 1 8 37
M  V30 41 1 8 38
M  V30 42 1 9 39
M  V30 43 1 10 40
M  V30 44 1 10 41
M  V30 45 1 11 42
M  V30 46 1 12 43
M  V30 47 1 12 44
M  V30 48 1 13 45
M  V30 49 1 14 46
M  V30 50 1 14 47
M  V30 51 1 16 48
M  V30 52 1 16 49
M  V30 53 1 17 50
M  V30 54 1 18 51
M  V30 55 1 18 52
M  V30 56 1 18 53
M  V30 57 1 19 54
M  V30 58 1 19 55
M  V30 59 1 23 56
M  V30 60 1 23 57
M  V30 61 1 24 58
M  V30 62 1 24 59
M  V30 63 1 25 60
M  V30 64 1 25 61
M  V30 65 1 26 62
M  V30 66 1 26 63
M  V30 67 1 27 64
M  V30 68 1 27 65
M  V30 69 1 28 66
M  V30 70 1 28 67
M  V30 71 1 29 68
M  V30 72 1 29 69
M  V30 73 1 30 70
M  V30 74 1 30 71
M  V30 75 1 30 72
M  V30 END BOND
M  V30 BEGIN COLLECTION
M  V30 MDLV30/STEABS ATOMS=(6 7 9 11 13 15 17)
M  V30 END COLLECTION
M  V30 END CTAB
M  END
>  <Structure No>
7056

>  <LogS>
-5.72

>  <MMFF94 Energy>
50.672

$$$$
Compound 7057
Actelion Java MolfileCreator 2.0

  0  0  0  0  0  0              0 V3000
M  V30 BEGIN CTAB
M  V30 COUNTS 37 37 0 0 0
M  V30 BEGIN ATOM
M  V30 1 O 0.4731 0.3942 -1.341 0
M  V30 2 C 1.3128 0.3673 -0.3988 0
M  V30 3 O 0.9078 0.6562 0.9111 0
M  V30 4 C 2.7263 0.0305 -0.6742 0
M  V30 5 C -0.4431 0.9496 1.2672 0 CFG=1
M  V30 6 C 3.1529 -0.2666 -1.9825 0
M  V30 7 C 3.6658 5.0E-4 0.3727 0
M  V30 8 C -1.2896 -0.2952 1.1401 0
M  V30 9 C -0.4774 1.4644 2.7041 0
M  V30 10 C 4.491 -0.5856 -2.2346 0
M  V30 11 C 5.0025 -0.3192 0.1146 0
M  V30 12 O -0.8587 -1.3663 1.6497 0
M  V30 13 N -2.5561 -0.299 0.4419 0
M  V30 14 C 5.4148 -0.6119 -1.1873 0
M  V30 15 C -3.3731 0.9176 0.3193 0
M  V30 16 C -3.0716 -1.5611 -0.1104 0
M  V30 17 C -3.2605 1.5056 -1.084 0
M  V30 18 C -2.2063 -2.0356 -1.2753 0
M  V30 19 H -0.8127 1.7573 0.6022 0
M  V30 20 H 2.4543 -0.2529 -2.8099 0
M  V30 21 H 3.3696 0.2234 1.3901 0
M  V30 22 H -1.5197 1.6999 3.0077 0
M  V30 23 H 0.1304 2.3905 2.7845 0
M  V30 24 H -0.0601 0.705 3.4 0
M  V30 25 H 4.8115 -0.813 -3.2431 0
M  V30 26 H 5.7193 -0.3402 0.9254 0
M  V30 27 H 6.4498 -0.8593 -1.3846 0
M  V30 28 H -4.4383 0.6789 0.5299 0
M  V30 29 H -3.074 1.6783 1.0701 0
M  V30 30 H -4.1134 -1.4335 -0.4783 0
M  V30 31 H -3.0958 -2.3396 0.6822 0
M  V30 32 H -2.1993 1.7046 -1.3398 0
M  V30 33 H -3.6864 0.8017 -1.8295 0
M  V30 34 H -3.8265 2.4594 -1.1346 0
M  V30 35 H -1.1745 -2.2565 -0.9306 0
M  V30 36 H -2.166 -1.256 -2.0649 0
M  V30 37 H -2.6402 -2.9613 -1.7084 0
M  V30 END ATOM
M  V30 BEGIN BOND
M  V30 1 2 1 2
M  V30 2 1 2 3
M  V30 3 1 2 4
M  V30 4 1 3 5
M  V30 5 2 4 6
M  V30 6 1 4 7
M  V30 7 1 5 8
M  V30 8 1 5 9
M  V30 9 1 6 10
M  V30 10 2 7 11
M  V30 11 2 8 12
M  V30 12 1 8 13
M  V30 13 2 10 14
M  V30 14 1 13 15
M  V30 15 1 13 16
M  V30 16 1 15 17
M  V30 17 1 16 18
M  V30 18 1 11 14
M  V30 19 1 5 19
M  V30 20 1 6 20
M  V30 21 1 7 21
M  V30 22 1 9 22
M  V30 23 1 9 23
M  V30 24 1 9 24
M  V30 25 1 10 25
M  V30 26 1 11 26
M  V30 27 1 14 27
M  V30 28 1 15 28
M  V30 29 1 15 29
M  V30 30 1 16 30
M  V30 31 1 16 31
M  V30 32 1 17 32
M  V30 33 1 17 33
M  V30 34 1 17 34
M  V30 35 1 18 35
M  V30 36 1 18 36
M  V30 37 1 18 37
M  V30 END BOND
M  V30 BEGIN COLLECTION
M  V30 MDLV30/STEABS ATOMS=(1 5)
M  V30 END COLLECTION
M  V30 END CTAB
M  END
>  <Structure No>
7057

>  <LogS>
-2.28

>  <MMFF94 Energy>
36.986

$$$$
Compound 7058
Actelion Java MolfileCreator 2.0

  0  0  0  0  0  0              0 V3000
M  V30 BEGIN CTAB
M  V30 COUNTS 35 36 0 0 0
M  V30 BEGIN ATOM
M  V30 1 O 1.9211 0.3199 -1.7609 0
M  V30 2 C 1.4679 0.1659 -0.5913 0
M  V30 3 N 2.2106 -0.6288 0.3564 0
M  V30 4 C 0.1202 0.7791 -0.2058 0 CFG=1
M  V30 5 C 1.9022 -0.543 1.7612 0
M  V30 6 C 3.3824 -1.3918 -0.0896 0
M  V30 7 C -0.9873 -0.2895 -0.3457 0
M  V30 8 C 0.2993 1.3121 1.2487 0
M  V30 9 C -0.1934 1.9714 -1.1658 0
M  V30 10 O 2.6199 -1.1404 2.6087 0
M  V30 11 C 0.7008 0.2124 2.2398 0
M  V30 12 O 4.5187 -0.5758 -0.0337 0
M  V30 13 C -0.9673 -1.1953 -1.4326 0
M  V30 14 C -2.1105 -0.3254 0.5155 0
M  V30 15 C -1.5066 2.7116 -0.8849 0
M  V30 16 C -1.9844 -2.1378 -1.6049 0
M  V30 17 C -3.1239 -1.2713 0.3366 0
M  V30 18 C -3.0576 -2.1811 -0.7169 0
M  V30 19 H 3.2292 -1.7599 -1.129 0
M  V30 20 H 3.5266 -2.289 0.5531 0
M  V30 21 H 1.096 2.0903 1.256 0
M  V30 22 H -0.6113 1.8143 1.6291 0
M  V30 23 H -0.2434 1.5996 -2.2134 0
M  V30 24 H 0.6353 2.7126 -1.1235 0
M  V30 25 H 0.9261 0.6812 3.2222 0
M  V30 26 H -0.1334 -0.5026 2.392 0
M  V30 27 H 5.2759 -1.1366 -0.3449 0
M  V30 28 H -0.1684 -1.175 -2.1608 0
M  V30 29 H -2.2268 0.3766 1.3262 0
M  V30 30 H -1.4798 3.221 0.0992 0
M  V30 31 H -2.3732 2.0213 -0.9291 0
M  V30 32 H -1.6557 3.492 -1.6607 0
M  V30 33 H -1.9442 -2.8301 -2.4359 0
M  V30 34 H -3.9693 -1.2911 1.0125 0
M  V30 35 H -3.846 -2.9098 -0.8544 0
M  V30 END ATOM
M  V30 BEGIN BOND
M  V30 1 2 1 2
M  V30 2 1 2 3
M  V30 3 1 2 4
M  V30 4 1 3 5
M  V30 5 1 3 6
M  V30 6 1 4 7
M  V30 7 1 4 8
M  V30 8 1 4 9
M  V30 9 2 5 10
M  V30 10 1 5 11
M  V30 11 1 6 12
M  V30 12 2 7 13
M  V30 13 1 7 14
M  V30 14 1 9 15
M  V30 15 1 13 16
M  V30 16 2 14 17
M  V30 17 2 16 18
M  V30 18 1 8 11
M  V30 19 1 17 18
M  V30 20 1 6 19
M  V30 21 1 6 20
M  V30 22 1 8 21
M  V30 23 1 8 22
M  V30 24 1 9 23
M  V30 25 1 9 24
M  V30 26 1 11 25
M  V30 27 1 11 26
M  V30 28 1 12 27
M  V30 29 1 13 28
M  V30 30 1 14 29
M  V30 31 1 15 30
M  V30 32 1 15 31
M  V30 33 1 15 32
M  V30 34 1 16 33
M  V30 35 1 17 34
M  V30 36 1 18 35
M  V30 END BOND
M  V30 BEGIN COLLECTION
M  V30 MDLV30/STEABS ATOMS=(1 4)
M  V30 END COLLECTION
M  V30 END CTAB
M  END
>  <Structure No>
7058

>  <LogS>
-1.66

>  <MMFF94 Energy>
-16.153

$$$$
Compound 7059
Actelion Java MolfileCreator 2.0

  0  0  0  0  0  0              0 V3000
M  V30 BEGIN CTAB
M  V30 COUNTS 46 46 0 0 0
M  V30 BEGIN ATOM
M  V30 1 O -5.0466 -0.9447 1.6537 0
M  V30 2 C -4.966 -0.2432 0.6084 0
M  V30 3 N -3.8286 -0.3926 -0.2566 0
M  V30 4 C -6.0665 0.6915 0.2683 0
M  V30 5 N -2.6447 -1.0268 0.1616 0
M  V30 6 C -5.8776 1.7276 -0.6631 0
M  V30 7 C -7.3198 0.568 0.8933 0
M  V30 8 C -2.0396 -0.7692 1.4373 0
M  V30 9 C -6.9326 2.5954 -0.9575 0
M  V30 10 C -8.3473 1.4573 0.5683 0
M  V30 11 O -2.4794 0.1509 2.1788 0
M  V30 12 C -0.8254 -1.5388 1.8608 0
M  V30 13 N -8.1345 2.4429 -0.3424 0
M  V30 14 C 0.4464 -0.8646 1.3371 0
M  V30 15 C 1.6966 -1.6562 1.7484 0
M  V30 16 C 3.0027 -0.9459 1.3581 0
M  V30 17 C 3.249 -0.9508 -0.1581 0
M  V30 18 C 4.6285 -0.3697 -0.4922 0
M  V30 19 C 4.8654 -0.3539 -2.0096 0
M  V30 20 C 6.2886 0.0914 -2.3804 0
M  V30 21 C 6.5303 1.5775 -2.1164 0
M  V30 22 H -3.9483 -0.205 -1.2766 0
M  V30 23 H -2.1053 -1.5821 -0.5396 0
M  V30 24 H -4.923 1.8825 -1.1481 0
M  V30 25 H -7.5076 -0.2133 1.6188 0
M  V30 26 H -6.7934 3.395 -1.6734 0
M  V30 27 H -9.3154 1.3634 1.0416 0
M  V30 28 H -0.7937 -1.5937 2.9711 0
M  V30 29 H -0.8932 -2.5762 1.4664 0
M  V30 30 H 0.39 -0.8033 0.229 0
M  V30 31 H 0.5092 0.1677 1.7478 0
M  V30 32 H 1.6935 -1.783 2.8534 0
M  V30 33 H 1.6692 -2.6705 1.2931 0
M  V30 34 H 3.8421 -1.4754 1.86 0
M  V30 35 H 2.9907 0.0997 1.7366 0
M  V30 36 H 2.4713 -0.3409 -0.6656 0
M  V30 37 H 3.1884 -1.9941 -0.5392 0
M  V30 38 H 4.6879 0.6661 -0.0945 0
M  V30 39 H 5.4145 -0.9849 -0.0017 0
M  V30 40 H 4.1221 0.3108 -2.5024 0
M  V30 41 H 4.7142 -1.3814 -2.4078 0
M  V30 42 H 6.4437 -0.099 -3.4644 0
M  V30 43 H 7.0371 -0.5127 -1.8228 0
M  V30 44 H 5.7563 2.1939 -2.6214 0
M  V30 45 H 6.5201 1.7905 -1.0274 0
M  V30 46 H 7.5261 1.8654 -2.5147 0
M  V30 END ATOM
M  V30 BEGIN BOND
M  V30 1 2 1 2
M  V30 2 1 2 3
M  V30 3 1 2 4
M  V30 4 1 3 5
M  V30 5 2 4 6
M  V30 6 1 4 7
M  V30 7 1 5 8
M  V30 8 1 6 9
M  V30 9 2 7 10
M  V30 10 2 8 11
M  V30 11 1 8 12
M  V30 12 2 9 13
M  V30 13 1 12 14
M  V30 14 1 14 15
M  V30 15 1 15 16
M  V30 16 1 16 17
M  V30 17 1 17 18
M  V30 18 1 18 19
M  V30 19 1 19 20
M  V30 20 1 20 21
M  V30 21 1 10 13
M  V30 22 1 3 22
M  V30 23 1 5 23
M  V30 24 1 6 24
M  V30 25 1 7 25
M  V30 26 1 9 26
M  V30 27 1 10 27
M  V30 28 1 12 28
M  V30 29 1 12 29
M  V30 30 1 14 30
M  V30 31 1 14 31
M  V30 32 1 15 32
M  V30 33 1 15 33
M  V30 34 1 16 34
M  V30 35 1 16 35
M  V30 36 1 17 36
M  V30 37 1 17 37
M  V30 38 1 18 38
M  V30 39 1 18 39
M  V30 40 1 19 40
M  V30 41 1 19 41
M  V30 42 1 20 42
M  V30 43 1 20 43
M  V30 44 1 21 44
M  V30 45 1 21 45
M  V30 46 1 21 46
M  V30 END BOND
M  V30 END CTAB
M  END
>  <Structure No>
7059

>  <LogS>
-4.17

>  <MMFF94 Energy>
25.419

$$$$
Compound 7060
Actelion Java MolfileCreator 2.0

  0  0  0  0  0  0              0 V3000
M  V30 BEGIN CTAB
M  V30 COUNTS 29 30 0 0 0
M  V30 BEGIN ATOM
M  V30 1 O -0.2371 -1.4237 0.4744 0
M  V30 2 C 1.0796 -0.9443 0.4157 0
M  V30 3 C -1.3758 -0.7295 0.0392 0
M  V30 4 C 1.3801 0.4238 0.5429 0
M  V30 5 C 2.1246 -1.8647 0.2779 0
M  V30 6 C -1.3318 0.1704 -1.0406 0
M  V30 7 C -2.5981 -0.9779 0.6739 0
M  V30 8 C 2.7069 0.8614 0.4952 0
M  V30 9 C 3.4519 -1.4282 0.2299 0
M  V30 10 C -2.4921 0.8306 -1.4559 0
M  V30 11 C -3.759 -0.3179 0.2599 0
M  V30 12 C 3.75 -0.06 0.3191 0
M  V30 13 C -3.7154 0.582 -0.8155 0
M  V30 14 C 5.1759 0.4051 0.3082 0
M  V30 15 C -4.9524 1.3195 -1.2352 0
M  V30 16 H 0.5926 1.1488 0.7017 0
M  V30 17 H 1.9062 -2.9225 0.2039 0
M  V30 18 H -0.4063 0.35 -1.5716 0
M  V30 19 H -2.6457 -1.6769 1.4993 0
M  V30 20 H 2.9211 1.9178 0.6021 0
M  V30 21 H 4.2463 -2.1567 0.124 0
M  V30 22 H -2.4378 1.5296 -2.2816 0
M  V30 23 H -4.6914 -0.5105 0.7762 0
M  V30 24 H 5.2503 1.4293 -0.1156 0
M  V30 25 H 5.5694 0.4133 1.3461 0
M  V30 26 H 5.8032 -0.2695 -0.3121 0
M  V30 27 H -5.0302 2.2663 -0.6609 0
M  V30 28 H -4.9189 1.5555 -2.3201 0
M  V30 29 H -5.8584 0.7053 -1.0455 0
M  V30 END ATOM
M  V30 BEGIN BOND
M  V30 1 1 1 2
M  V30 2 1 1 3
M  V30 3 2 2 4
M  V30 4 1 2 5
M  V30 5 2 3 6
M  V30 6 1 3 7
M  V30 7 1 4 8
M  V30 8 2 5 9
M  V30 9 1 6 10
M  V30 10 2 7 11
M  V30 11 2 8 12
M  V30 12 2 10 13
M  V30 13 1 12 14
M  V30 14 1 13 15
M  V30 15 1 9 12
M  V30 16 1 11 13
M  V30 17 1 4 16
M  V30 18 1 5 17
M  V30 19 1 6 18
M  V30 20 1 7 19
M  V30 21 1 8 20
M  V30 22 1 9 21
M  V30 23 1 10 22
M  V30 24 1 11 23
M  V30 25 1 14 24
M  V30 26 1 14 25
M  V30 27 1 14 26
M  V30 28 1 15 27
M  V30 29 1 15 28
M  V30 30 1 15 29
M  V30 END BOND
M  V30 END CTAB
M  END
>  <Structure No>
7060

>  <LogS>
-4.85

>  <MMFF94 Energy>
46.39

$$$$
Compound 7061
Actelion Java MolfileCreator 2.0

  0  0  0  0  0  0              0 V3000
M  V30 BEGIN CTAB
M  V30 COUNTS 33 33 0 0 0
M  V30 BEGIN ATOM
M  V30 1 O 1.7416 0.2373 1.0288 0
M  V30 2 C 1.8171 0.3475 -0.226 0
M  V30 3 O 0.6885 0.1569 -1.0322 0
M  V30 4 O 3.0442 0.6151 -0.8408 0
M  V30 5 C -0.6407 0.1567 -0.5829 0
M  V30 6 C 4.2691 0.7591 -0.1239 0
M  V30 7 C -1.5828 -0.5991 -1.2891 0
M  V30 8 C -1.0616 0.9154 0.5244 0
M  V30 9 C 4.8108 -0.6079 0.2983 0
M  V30 10 C -2.9215 -0.6227 -0.8875 0
M  V30 11 C -2.4002 0.8925 0.9266 0
M  V30 12 O 6.0137 -0.4518 1.0275 0
M  V30 13 C -3.3448 0.1363 0.2177 0
M  V30 14 C 7.129 -0.6506 0.1872 0
M  V30 15 N -4.7105 0.1132 0.6675 0
M  V30 16 C -5.8445 -0.0169 -0.2035 0
M  V30 17 O -5.7193 0.1302 -1.4491 0
M  V30 18 C -7.2053 -0.2303 0.3748 0
M  V30 19 H 4.1214 1.4102 0.7654 0
M  V30 20 H 5.006 1.2535 -0.7902 0
M  V30 21 H -1.2715 -1.1857 -2.1442 0
M  V30 22 H -0.3684 1.5472 1.0624 0
M  V30 23 H 4.9073 -1.2716 -0.5941 0
M  V30 24 H 4.0711 -1.0932 0.9684 0
M  V30 25 H -3.6159 -1.2527 -1.4266 0
M  V30 26 H -2.7072 1.4809 1.7823 0
M  V30 27 H 8.0508 -0.4348 0.7651 0
M  V30 28 H 7.1829 -1.7083 -0.1522 0
M  V30 29 H 7.11 0.0371 -0.6869 0
M  V30 30 H -4.8964 0.2833 1.6822 0
M  V30 31 H -7.1443 -0.9246 1.2388 0
M  V30 32 H -7.6186 0.7416 0.7153 0
M  V30 33 H -7.8843 -0.6691 -0.3865 0
M  V30 END ATOM
M  V30 BEGIN BOND
M  V30 1 2 1 2
M  V30 2 1 2 3
M  V30 3 1 2 4
M  V30 4 1 3 5
M  V30 5 1 4 6
M  V30 6 2 5 7
M  V30 7 1 5 8
M  V30 8 1 6 9
M  V30 9 1 7 10
M  V30 10 2 8 11
M  V30 11 1 9 12
M  V30 12 2 10 13
M  V30 13 1 12 14
M  V30 14 1 13 15
M  V30 15 1 15 16
M  V30 16 2 16 17
M  V30 17 1 16 18
M  V30 18 1 11 13
M  V30 19 1 6 19
M  V30 20 1 6 20
M  V30 21 1 7 21
M  V30 22 1 8 22
M  V30 23 1 9 23
M  V30 24 1 9 24
M  V30 25 1 10 25
M  V30 26 1 11 26
M  V30 27 1 14 27
M  V30 28 1 14 28
M  V30 29 1 14 29
M  V30 30 1 15 30
M  V30 31 1 18 31
M  V30 32 1 18 32
M  V30 33 1 18 33
M  V30 END BOND
M  V30 END CTAB
M  END
>  <Structure No>
7061

>  <LogS>
-1.69

>  <MMFF94 Energy>
9.3779

$$$$
Compound 7062
Actelion Java MolfileCreator 2.0

  0  0  0  0  0  0              0 V3000
M  V30 BEGIN CTAB
M  V30 COUNTS 19 20 0 0 0
M  V30 BEGIN ATOM
M  V30 1 Cl 3.1802 2.364 0.4887 0
M  V30 2 C 2.1672 0.9784 0.1291 0
M  V30 3 C 0.7823 1.0398 0.382 0
M  V30 4 C 2.7451 -0.1941 -0.4141 0
M  V30 5 C 0.0204 -0.0901 0.0806 0
M  V30 6 C 1.9446 -1.3131 -0.7125 0
M  V30 7 N -1.3029 -0.2897 0.2212 0
M  V30 8 C 0.5811 -1.2185 -0.4514 0
M  V30 9 C -1.482 -1.545 -0.2608 0
M  V30 10 C -2.3257 0.6567 0.666 0
M  V30 11 O -0.3564 -2.1128 -0.6587 0
M  V30 12 O -2.6045 -2.1124 -0.3319 0
M  V30 13 O -2.7651 1.4299 -0.4158 0
M  V30 14 H 0.3299 1.932 0.7947 0
M  V30 15 H 3.8094 -0.2339 -0.6063 0
M  V30 16 H 2.3733 -2.2128 -1.1337 0
M  V30 17 H -3.1917 0.1031 1.0865 0
M  V30 18 H -1.9258 1.3083 1.4748 0
M  V30 19 H -2.0228 2.0506 -0.6366 0
M  V30 END ATOM
M  V30 BEGIN BOND
M  V30 1 1 1 2
M  V30 2 2 2 3
M  V30 3 1 2 4
M  V30 4 1 3 5
M  V30 5 2 4 6
M  V30 6 1 5 7
M  V30 7 2 5 8
M  V30 8 1 7 9
M  V30 9 1 7 10
M  V30 10 1 8 11
M  V30 11 2 9 12
M  V30 12 1 10 13
M  V30 13 1 6 8
M  V30 14 1 9 11
M  V30 15 1 3 14
M  V30 16 1 4 15
M  V30 17 1 6 16
M  V30 18 1 10 17
M  V30 19 1 10 18
M  V30 20 1 13 19
M  V30 END BOND
M  V30 END CTAB
M  END
>  <Structure No>
7062

>  <LogS>
-2.7

>  <MMFF94 Energy>
-25.82

$$$$
Compound 7063
Actelion Java MolfileCreator 2.0

  0  0  0  0  0  0              0 V3000
M  V30 BEGIN CTAB
M  V30 COUNTS 19 20 0 0 0
M  V30 BEGIN ATOM
M  V30 1 O -3.527 1.3616 0.9609 0
M  V30 2 C -2.7333 0.5082 0.4848 0
M  V30 3 N -3.2023 -0.6526 -0.0569 0
M  V30 4 C -1.3615 0.7122 0.4917 0
M  V30 5 C -2.348 -1.5899 -0.5788 0
M  V30 6 C -0.5253 -0.2239 -0.0284 0
M  V30 7 C -0.5527 1.7317 0.9404 0
M  V30 8 N -0.9951 -1.3815 -0.5685 0
M  V30 9 N 0.7533 0.1973 0.0924 0
M  V30 10 N 0.7338 1.3904 0.6836 0
M  V30 11 C 1.9693 -0.4556 -0.3137 0
M  V30 12 O 1.9422 -1.5848 -0.8703 0
M  V30 13 C 3.2915 0.2046 -0.0775 0
M  V30 14 H -2.7506 -2.501 -1.0017 0
M  V30 15 H -0.8651 2.6516 1.4166 0
M  V30 16 H -0.3664 -2.1079 -0.9707 0
M  V30 17 H 3.322 1.178 -0.6103 0
M  V30 18 H 3.4327 0.377 1.0098 0
M  V30 19 H 4.1211 -0.4335 -0.4498 0
M  V30 END ATOM
M  V30 BEGIN BOND
M  V30 1 2 1 2
M  V30 2 1 2 3
M  V30 3 1 2 4
M  V30 4 2 3 5
M  V30 5 2 4 6
M  V30 6 1 4 7
M  V30 7 1 5 8
M  V30 8 1 6 9
M  V30 9 2 7 10
M  V30 10 1 9 11
M  V30 11 2 11 12
M  V30 12 1 11 13
M  V30 13 1 6 8
M  V30 14 1 9 10
M  V30 15 1 5 14
M  V30 16 1 7 15
M  V30 17 1 8 16
M  V30 18 1 13 17
M  V30 19 1 13 18
M  V30 20 1 13 19
M  V30 END BOND
M  V30 END CTAB
M  END
>  <Structure No>
7063

>  <LogS>
-2.38

>  <MMFF94 Energy>
42.724

$$$$
Compound 7064
Actelion Java MolfileCreator 2.0

  0  0  0  0  0  0              0 V3000
M  V30 BEGIN CTAB
M  V30 COUNTS 23 24 0 0 0
M  V30 BEGIN ATOM
M  V30 1 Cl 4.237 0.7934 0.8816 0
M  V30 2 C 2.816 0.1457 0.0832 0
M  V30 3 C 2.9178 -0.3769 -1.2101 0
M  V30 4 C 1.5797 0.1563 0.7385 0
M  V30 5 C 1.7839 -0.8876 -1.8505 0
M  V30 6 C 0.44 -0.3614 0.1041 0
M  V30 7 Cl 1.9106 -1.5329 -3.4764 0
M  V30 8 C 0.5472 -0.8784 -1.1966 0
M  V30 9 C -0.8946 -0.3197 0.7953 0 CFG=2
M  V30 10 O -0.8597 -1.0461 2.0036 0
M  V30 11 C -1.6395 -1.5939 0.9662 0
M  V30 12 C -1.64 1.0181 0.9709 0
M  V30 13 C -2.1482 1.6338 -0.3466 0
M  V30 14 Cl -3.1966 3.025 0.0298 0
M  V30 15 Cl -0.8011 2.2356 -1.3502 0
M  V30 16 Cl -3.1085 0.4645 -1.2938 0
M  V30 17 H 3.8742 -0.3828 -1.7173 0
M  V30 18 H 1.5049 0.5694 1.7371 0
M  V30 19 H -0.3293 -1.2654 -1.7014 0
M  V30 20 H -1.1726 -2.5168 0.5629 0
M  V30 21 H -2.7225 -1.5233 1.1998 0
M  V30 22 H -0.961 1.7408 1.4729 0
M  V30 23 H -2.5085 0.8714 1.6511 0
M  V30 END ATOM
M  V30 BEGIN BOND
M  V30 1 1 1 2
M  V30 2 2 2 3
M  V30 3 1 2 4
M  V30 4 1 3 5
M  V30 5 2 4 6
M  V30 6 1 5 7
M  V30 7 2 5 8
M  V30 8 1 6 9
M  V30 9 1 9 10
M  V30 10 1 9 11
M  V30 11 1 9 12
M  V30 12 1 12 13
M  V30 13 1 13 14
M  V30 14 1 13 15
M  V30 15 1 13 16
M  V30 16 1 6 8
M  V30 17 1 10 11
M  V30 18 1 3 17
M  V30 19 1 4 18
M  V30 20 1 8 19
M  V30 21 1 11 20
M  V30 22 1 11 21
M  V30 23 1 12 22
M  V30 24 1 12 23
M  V30 END BOND
M  V30 BEGIN COLLECTION
M  V30 MDLV30/STEABS ATOMS=(1 9)
M  V30 END COLLECTION
M  V30 END CTAB
M  END
>  <Structure No>
7064

>  <LogS>
-5.25

>  <MMFF94 Energy>
8.5483

$$$$
Compound 7065
Actelion Java MolfileCreator 2.0

  0  0  0  0  0  0              0 V3000
M  V30 BEGIN CTAB
M  V30 COUNTS 20 21 0 0 0
M  V30 BEGIN ATOM
M  V30 1 O 2.6634 -2.3403 -0.9679 0
M  V30 2 C 2.5807 -1.2257 -0.387 0
M  V30 3 N 3.7091 -0.6063 0.0496 0
M  V30 4 C 1.3389 -0.6165 -0.1853 0
M  V30 5 C 3.6517 0.5979 0.6804 0
M  V30 6 N 0.18 -1.1906 -0.601 0
M  V30 7 C 1.3007 0.6242 0.4665 0
M  V30 8 N 2.4531 1.2066 0.8858 0 CHG=-1
M  V30 9 C -1.0229 -0.5858 -0.3979 0
M  V30 10 N 0.1055 1.2329 0.6723 0
M  V30 11 C -1.0613 0.6652 0.2593 0
M  V30 12 C -2.2693 -1.2674 -0.8788 0
M  V30 13 C -2.3511 1.3866 0.5155 0
M  V30 14 H 4.5619 1.0726 1.0193 0
M  V30 15 H -2.7904 -0.6255 -1.6195 0
M  V30 16 H -2.9452 -1.4697 -0.0218 0
M  V30 17 H -2.0213 -2.2343 -1.3656 0
M  V30 18 H -2.8592 1.6074 -0.4462 0
M  V30 19 H -3.014 0.7634 1.1513 0
M  V30 20 H -2.1626 2.3468 1.0411 0
M  V30 END ATOM
M  V30 BEGIN BOND
M  V30 1 2 1 2
M  V30 2 1 2 3
M  V30 3 1 2 4
M  V30 4 2 3 5
M  V30 5 2 4 6
M  V30 6 1 4 7
M  V30 7 1 5 8
M  V30 8 1 6 9
M  V30 9 2 7 10
M  V30 10 2 9 11
M  V30 11 1 9 12
M  V30 12 1 11 13
M  V30 13 1 7 8
M  V30 14 1 10 11
M  V30 15 1 5 14
M  V30 16 1 12 15
M  V30 17 1 12 16
M  V30 18 1 12 17
M  V30 19 1 13 18
M  V30 20 1 13 19
M  V30 21 1 13 20
M  V30 END BOND
M  V30 END CTAB
M  END
>  <Structure No>
7065

>  <LogS>
-2.29

>  <MMFF94 Energy>
120.49

$$$$
Compound 7066
Actelion Java MolfileCreator 2.0

  0  0  0  0  0  0              0 V3000
M  V30 BEGIN CTAB
M  V30 COUNTS 55 58 0 0 0
M  V30 BEGIN ATOM
M  V30 1 O -6.5967 0.9752 0.7313 0
M  V30 2 C -5.4172 0.6267 0.4618 0
M  V30 3 C -4.7188 1.2571 -0.6681 0
M  V30 4 C -4.7475 -0.4213 1.3035 0
M  V30 5 C -3.503 0.8433 -1.0546 0
M  V30 6 C -3.2328 -0.509 1.0353 0
M  V30 7 C -2.7354 1.6891 -1.9876 0
M  V30 8 C -2.8747 -0.436 -0.4799 0 CFG=2
M  V30 9 C -1.4096 1.7512 -1.8832 0
M  V30 10 C -1.3064 -0.4526 -0.7347 0 CFG=1
M  V30 11 C -3.4978 -1.6481 -1.2185 0
M  V30 12 C -0.7037 0.9846 -0.7892 0 CFG=1
M  V30 13 C -0.5049 -1.4051 0.2042 0
M  V30 14 C 0.8129 0.8855 -1.0669 0 CFG=2
M  V30 15 C 1.0169 -1.3819 -0.0669 0
M  V30 16 C 1.5804 0.0659 -0.0124 0 CFG=1
M  V30 17 C 1.6098 2.1728 -1.214 0
M  V30 18 C 3.0516 0.2542 -0.5222 0 CFG=2
M  V30 19 C 1.4225 0.6464 1.4328 0
M  V30 20 C 3.0681 1.7434 -0.9875 0
M  V30 21 O 3.2607 -0.5772 -1.6454 0
M  V30 22 C 4.1907 0.0085 0.5193 0
M  V30 23 C 4.3134 -1.4496 0.9858 0
M  V30 24 C 5.5979 -1.6548 1.7254 0
M  V30 25 O 6.6284 -2.0373 1.1114 0
M  V30 26 O 5.6702 -1.3755 3.0842 0 CHG=-1
M  V30 27 H -5.1619 2.1397 -1.1158 0
M  V30 28 H -5.2252 -1.4036 1.1018 0
M  V30 29 H -4.9097 -0.1871 2.3777 0
M  V30 30 H -2.726 0.3244 1.5705 0
M  V30 31 H -2.8815 -1.4649 1.4783 0
M  V30 32 H -3.2456 2.3051 -2.7186 0
M  V30 33 H -0.8572 2.3686 -2.5795 0
M  V30 34 H -1.1442 -0.8685 -1.7573 0
M  V30 35 H -4.6055 -1.6486 -1.1514 0
M  V30 36 H -3.1246 -2.603 -0.7921 0
M  V30 37 H -3.2441 -1.6228 -2.3001 0
M  V30 38 H -0.8976 1.5178 0.1639 0
M  V30 39 H -0.6719 -1.1516 1.2687 0
M  V30 40 H -0.8665 -2.4458 0.0628 0
M  V30 41 H 0.9071 0.366 -2.0526 0
M  V30 42 H 1.1989 -1.8388 -1.0636 0
M  V30 43 H 1.5139 -2.0282 0.682 0
M  V30 44 H 1.4831 2.6147 -2.2259 0
M  V30 45 H 1.2949 2.917 -0.45 0
M  V30 46 H 1.9154 -0.0152 2.1735 0
M  V30 47 H 1.8732 1.656 1.5241 0
M  V30 48 H 0.3708 0.7395 1.7576 0
M  V30 49 H 3.6565 1.8694 -1.9226 0
M  V30 50 H 3.521 2.4062 -0.2171 0
M  V30 51 H 4.1699 -0.397 -2.0018 0
M  V30 52 H 5.1523 0.3042 0.0423 0
M  V30 53 H 4.0783 0.6693 1.4049 0
M  V30 54 H 3.4832 -1.7019 1.6734 0
M  V30 55 H 4.2768 -2.1435 0.1189 0
M  V30 END ATOM
M  V30 BEGIN BOND
M  V30 1 2 1 2
M  V30 2 1 2 3
M  V30 3 1 2 4
M  V30 4 2 3 5
M  V30 5 1 4 6
M  V30 6 1 5 7
M  V30 7 1 5 8
M  V30 8 2 7 9
M  V30 9 1 8 10
M  V30 10 1 8 11
M  V30 11 1 9 12
M  V30 12 1 10 13
M  V30 13 1 12 14
M  V30 14 1 13 15
M  V30 15 1 14 16
M  V30 16 1 14 17
M  V30 17 1 16 18
M  V30 18 1 16 19
M  V30 19 1 17 20
M  V30 20 1 18 21
M  V30 21 1 18 22
M  V30 22 1 22 23
M  V30 23 1 23 24
M  V30 24 2 24 25
M  V30 25 1 24 26
M  V30 26 1 6 8
M  V30 27 1 10 12
M  V30 28 1 15 16
M  V30 29 1 18 20
M  V30 30 1 3 27
M  V30 31 1 4 28
M  V30 32 1 4 29
M  V30 33 1 6 30
M  V30 34 1 6 31
M  V30 35 1 7 32
M  V30 36 1 9 33
M  V30 37 1 10 34
M  V30 38 1 11 35
M  V30 39 1 11 36
M  V30 40 1 11 37
M  V30 41 1 12 38
M  V30 42 1 13 39
M  V30 43 1 13 40
M  V30 44 1 14 41
M  V30 45 1 15 42
M  V30 46 1 15 43
M  V30 47 1 17 44
M  V30 48 1 17 45
M  V30 49 1 19 46
M  V30 50 1 19 47
M  V30 51 1 19 48
M  V30 52 1 20 49
M  V30 53 1 20 50
M  V30 54 1 21 51
M  V30 55 1 22 52
M  V30 56 1 22 53
M  V30 57 1 23 54
M  V30 58 1 23 55
M  V30 END BOND
M  V30 BEGIN COLLECTION
M  V30 MDLV30/STEABS ATOMS=(6 8 10 12 14 16 18)
M  V30 END COLLECTION
M  V30 END CTAB
M  END
>  <Structure No>
7066

>  <LogS>
-5.17

>  <MMFF94 Energy>
80.317

$$$$
Compound 7067
Actelion Java MolfileCreator 2.0

  0  0  0  0  0  0              0 V3000
M  V30 BEGIN CTAB
M  V30 COUNTS 23 24 0 0 0
M  V30 BEGIN ATOM
M  V30 1 O -4.7541 -1.046 0.7241 0
M  V30 2 C -3.6086 -0.6071 0.4417 0
M  V30 3 N -3.3702 0.7449 0.065 0
M  V30 4 C -2.3599 -1.4384 0.462 0
M  V30 5 C -1.9752 0.8099 -0.1626 0
M  V30 6 C -1.3601 -0.4047 0.0528 0
M  V30 7 C -1.2562 1.9284 -0.576 0
M  V30 8 C 0.0143 -0.5586 -0.1295 0
M  V30 9 C 0.1288 1.7967 -0.7644 0
M  V30 10 C 0.7763 0.5641 -0.5307 0
M  V30 11 O 2.1604 0.4893 -0.7465 0
M  V30 12 C 3.0336 -0.4003 -0.1075 0
M  V30 13 O 2.701 -0.9864 0.9581 0
M  V30 14 C 4.4191 -0.5644 -0.6326 0
M  V30 15 H -4.0705 1.5136 -0.031 0
M  V30 16 H -2.1481 -1.8157 1.4846 0
M  V30 17 H -2.4148 -2.2584 -0.2845 0
M  V30 18 H -1.752 2.8745 -0.751 0
M  V30 19 H 0.4648 -1.5317 0.0081 0
M  V30 20 H 0.7053 2.6543 -1.0871 0
M  V30 21 H 5.0935 0.1589 -0.1292 0
M  V30 22 H 4.7804 -1.5972 -0.4424 0
M  V30 23 H 4.4331 -0.376 -1.7265 0
M  V30 END ATOM
M  V30 BEGIN BOND
M  V30 1 2 1 2
M  V30 2 1 2 3
M  V30 3 1 2 4
M  V30 4 1 3 5
M  V30 5 1 4 6
M  V30 6 1 5 7
M  V30 7 1 6 8
M  V30 8 2 7 9
M  V30 9 2 8 10
M  V30 10 1 10 11
M  V30 11 1 11 12
M  V30 12 2 12 13
M  V30 13 1 12 14
M  V30 14 2 5 6
M  V30 15 1 9 10
M  V30 16 1 3 15
M  V30 17 1 4 16
M  V30 18 1 4 17
M  V30 19 1 7 18
M  V30 20 1 8 19
M  V30 21 1 9 20
M  V30 22 1 14 21
M  V30 23 1 14 22
M  V30 24 1 14 23
M  V30 END BOND
M  V30 END CTAB
M  END
>  <Structure No>
7067

>  <LogS>
-1.54

>  <MMFF94 Energy>
17.317

$$$$
Compound 7068
Actelion Java MolfileCreator 2.0

  0  0  0  0  0  0              0 V3000
M  V30 BEGIN CTAB
M  V30 COUNTS 26 27 0 0 0
M  V30 BEGIN ATOM
M  V30 1 N 1.0362 0.4781 -1.116 0
M  V30 2 C 1.9724 -0.3608 -0.6075 0
M  V30 3 C -0.2141 0.5634 -0.581 0
M  V30 4 N 3.2101 -0.434 -1.161 0
M  V30 5 C 1.6524 -1.1576 0.4978 0
M  V30 6 C -0.5305 -0.2305 0.5534 0
M  V30 7 C -1.1788 1.5453 -1.1934 0
M  V30 8 C 4.1469 -1.2782 -0.6513 0
M  V30 9 N 0.4152 -1.0768 1.0483 0
M  V30 10 C 2.6248 -2.0176 1.0057 0
M  V30 11 C -1.8876 -0.2276 1.2078 0
M  V30 12 C -1.0451 2.9165 -0.5382 0
M  V30 13 N 3.8519 -2.0611 0.422 0
M  V30 14 C -2.7998 -1.269 0.5673 0
M  V30 15 H -2.2263 1.1891 -1.1161 0
M  V30 16 H -0.9575 1.6464 -2.2781 0
M  V30 17 H 5.1291 -1.3277 -1.1007 0
M  V30 18 H 2.4117 -2.6484 1.859 0
M  V30 19 H -2.3619 0.7736 1.1576 0
M  V30 20 H -1.773 -0.4705 2.2866 0
M  V30 21 H -0.0161 3.311 -0.6798 0
M  V30 22 H -1.2634 2.8543 0.5487 0
M  V30 23 H -1.7634 3.6229 -1.0046 0
M  V30 24 H -2.9402 -1.0552 -0.513 0
M  V30 25 H -3.7922 -1.25 1.065 0
M  V30 26 H -2.3639 -2.2843 0.6828 0
M  V30 END ATOM
M  V30 BEGIN BOND
M  V30 1 1 1 2
M  V30 2 2 1 3
M  V30 3 2 2 4
M  V30 4 1 2 5
M  V30 5 1 3 6
M  V30 6 1 3 7
M  V30 7 1 4 8
M  V30 8 1 5 9
M  V30 9 2 5 10
M  V30 10 1 6 11
M  V30 11 1 7 12
M  V30 12 2 8 13
M  V30 13 1 11 14
M  V30 14 2 6 9
M  V30 15 1 10 13
M  V30 16 1 7 15
M  V30 17 1 7 16
M  V30 18 1 8 17
M  V30 19 1 10 18
M  V30 20 1 11 19
M  V30 21 1 11 20
M  V30 22 1 12 21
M  V30 23 1 12 22
M  V30 24 1 12 23
M  V30 25 1 14 24
M  V30 26 1 14 25
M  V30 27 1 14 26
M  V30 END BOND
M  V30 END CTAB
M  END
>  <Structure No>
7068

>  <LogS>
-0.18

>  <MMFF94 Energy>
69.731

$$$$
Compound 7069
Actelion Java MolfileCreator 2.0

  0  0  0  0  0  0              0 V3000
M  V30 BEGIN CTAB
M  V30 COUNTS 24 24 0 0 0
M  V30 BEGIN ATOM
M  V30 1 Cl 2.8737 3.1134 0.0 0
M  V30 2 C 2.3088 1.4933 -0.3754 0
M  V30 3 N 0.9799 1.2305 -0.2911 0
M  V30 4 C 3.1831 0.4694 -0.7692 0
M  V30 5 C 0.4597 0.0041 -0.5679 0
M  V30 6 N 2.6749 -0.7633 -1.0278 0
M  V30 7 N 4.5913 0.6861 -0.8911 0
M  V30 8 C 1.3463 -1.0365 -0.9309 0
M  V30 9 C -1.0093 -0.1655 -0.5104 0
M  V30 10 N 0.9062 -2.3822 -1.1412 0
M  V30 11 O -1.5815 -0.9493 -1.3159 0
M  V30 12 N -1.7936 0.6613 0.3691 0 CHG=1
M  V30 13 C -2.9253 0.3077 0.9211 0
M  V30 14 N -3.6667 1.266 1.6825 0
M  V30 15 N -3.4241 -1.0342 0.8338 0
M  V30 16 H 5.0273 1.6147 -0.7007 0
M  V30 17 H 5.215 -0.0995 -1.1805 0
M  V30 18 H -0.0254 -2.7213 -0.819 0
M  V30 19 H 1.5802 -3.0948 -1.4989 0
M  V30 20 H -1.4315 1.6221 0.5639 0
M  V30 21 H -3.3342 2.2511 1.7813 0
M  V30 22 H -4.5592 0.9929 2.1503 0
M  V30 23 H -4.3819 -1.2541 1.1858 0
M  V30 24 H -2.8164 -1.8389 0.5682 0
M  V30 END ATOM
M  V30 BEGIN BOND
M  V30 1 1 1 2
M  V30 2 2 2 3
M  V30 3 1 2 4
M  V30 4 1 3 5
M  V30 5 2 4 6
M  V30 6 1 4 7
M  V30 7 2 5 8
M  V30 8 1 5 9
M  V30 9 1 8 10
M  V30 10 2 9 11
M  V30 11 1 9 12
M  V30 12 2 12 13
M  V30 13 1 13 14
M  V30 14 1 13 15
M  V30 15 1 6 8
M  V30 16 1 7 16
M  V30 17 1 7 17
M  V30 18 1 10 18
M  V30 19 1 10 19
M  V30 20 1 12 20
M  V30 21 1 14 21
M  V30 22 1 14 22
M  V30 23 1 15 23
M  V30 24 1 15 24
M  V30 END BOND
M  V30 END CTAB
M  END
>  <Structure No>
7069

>  <LogS>
-2.87

>  <MMFF94 Energy>
-139.42

$$$$
Compound 7070
Actelion Java MolfileCreator 2.0

  0  0  0  0  0  0              0 V3000
M  V30 BEGIN CTAB
M  V30 COUNTS 43 43 0 0 0
M  V30 BEGIN ATOM
M  V30 1 O 0.0 1.6491 1.4134 0
M  V30 2 C 0.3308 0.858 0.4872 0
M  V30 3 O -0.6379 0.367 -0.3974 0
M  V30 4 C 1.7445 0.4525 0.3279 0
M  V30 5 C -2.0307 0.6526 -0.2811 0
M  V30 6 C 2.1183 -0.4274 -0.7013 0
M  V30 7 C 2.7353 0.9441 1.1962 0
M  V30 8 C -2.6504 -0.1874 0.8521 0
M  V30 9 C 3.4529 -0.8133 -0.8541 0
M  V30 10 C 4.0695 0.5563 1.0428 0
M  V30 11 N -4.1305 -0.0869 0.9978 0 CHG=1
M  V30 12 C 4.4368 -0.3415 0.0258 0
M  V30 13 C -4.6888 1.295 1.0012 0
M  V30 14 C -4.9257 -1.1062 0.2561 0
M  V30 15 N 5.8053 -0.738 -0.1686 0
M  V30 16 C -5.1337 1.8389 -0.363 0
M  V30 17 C -4.5448 -1.3082 -1.2165 0
M  V30 18 C 6.7543 -0.909 0.8954 0
M  V30 19 O 6.3728 -0.959 2.0959 0
M  V30 20 C 8.1968 -1.1294 0.5762 0
M  V30 21 H -2.1679 1.7389 -0.0948 0
M  V30 22 H -2.4982 0.4078 -1.251 0
M  V30 23 H 1.3808 -0.8181 -1.391 0
M  V30 24 H 2.4817 1.6359 1.9898 0
M  V30 25 H -2.3522 -1.2512 0.7189 0
M  V30 26 H -2.1701 0.1392 1.8026 0
M  V30 27 H 3.7204 -1.491 -1.6552 0
M  V30 28 H 4.814 0.98 1.7033 0
M  V30 29 H -4.2735 -0.3829 1.9953 0
M  V30 30 H -5.5841 1.3286 1.6643 0
M  V30 31 H -3.9576 2.003 1.451 0
M  V30 32 H -4.8096 -2.0966 0.7539 0
M  V30 33 H -6.0103 -0.8658 0.3184 0
M  V30 34 H 6.1091 -0.9976 -1.1347 0
M  V30 35 H -4.3112 1.8482 -1.1007 0
M  V30 36 H -5.9932 1.2614 -0.7605 0
M  V30 37 H -5.4747 2.888 -0.2356 0
M  V30 38 H -3.5201 -1.7228 -1.3094 0
M  V30 39 H -5.2397 -2.0478 -1.6672 0
M  V30 40 H -4.6307 -0.3761 -1.8041 0
M  V30 41 H 8.3568 -2.1934 0.3047 0
M  V30 42 H 8.4983 -0.485 -0.2761 0
M  V30 43 H 8.8295 -0.8773 1.4535 0
M  V30 END ATOM
M  V30 BEGIN BOND
M  V30 1 2 1 2
M  V30 2 1 2 3
M  V30 3 1 2 4
M  V30 4 1 3 5
M  V30 5 2 4 6
M  V30 6 1 4 7
M  V30 7 1 5 8
M  V30 8 1 6 9
M  V30 9 2 7 10
M  V30 10 1 8 11
M  V30 11 2 9 12
M  V30 12 1 11 13
M  V30 13 1 11 14
M  V30 14 1 12 15
M  V30 15 1 13 16
M  V30 16 1 14 17
M  V30 17 1 15 18
M  V30 18 2 18 19
M  V30 19 1 18 20
M  V30 20 1 10 12
M  V30 21 1 5 21
M  V30 22 1 5 22
M  V30 23 1 6 23
M  V30 24 1 7 24
M  V30 25 1 8 25
M  V30 26 1 8 26
M  V30 27 1 9 27
M  V30 28 1 10 28
M  V30 29 1 11 29
M  V30 30 1 13 30
M  V30 31 1 13 31
M  V30 32 1 14 32
M  V30 33 1 14 33
M  V30 34 1 15 34
M  V30 35 1 16 35
M  V30 36 1 16 36
M  V30 37 1 16 37
M  V30 38 1 17 38
M  V30 39 1 17 39
M  V30 40 1 17 40
M  V30 41 1 20 41
M  V30 42 1 20 42
M  V30 43 1 20 43
M  V30 END BOND
M  V30 END CTAB
M  END
>  <Structure No>
7070

>  <LogS>
-1.65

>  <MMFF94 Energy>
24.77

$$$$
Compound 7071
Actelion Java MolfileCreator 2.0

  0  0  0  0  0  0              0 V3000
M  V30 BEGIN CTAB
M  V30 COUNTS 23 23 0 0 0
M  V30 BEGIN ATOM
M  V30 1 Cl -4.4563 -2.3913 0.3295 0
M  V30 2 C -4.3658 -0.9457 -0.7068 0
M  V30 3 C -3.4871 0.0909 -0.0685 0
M  V30 4 O -4.0431 1.0326 0.5602 0
M  V30 5 C -2.0002 0.0274 -0.1296 0
M  V30 6 C -1.33 -1.0838 -0.6788 0
M  V30 7 C -1.2319 1.0942 0.3749 0
M  V30 8 C 0.0666 -1.1212 -0.7237 0
M  V30 9 C 0.1644 1.0537 0.3279 0
M  V30 10 C 0.821 -0.0564 -0.2232 0
M  V30 11 N 2.2488 -0.125 -0.2837 0 CHG=-1
M  V30 12 N 3.0676 0.9068 0.2002 0
M  V30 13 C 4.3618 0.8446 0.1452 0
M  V30 14 C 5.1405 1.9356 0.6586 0
M  V30 15 C 5.0404 -0.2952 -0.4196 0
M  V30 16 N 5.7681 2.8154 1.0727 0
M  V30 17 N 5.5848 -1.2102 -0.873 0
M  V30 18 H -3.9847 -1.2198 -1.7122 0
M  V30 19 H -5.3931 -0.5434 -0.8374 0
M  V30 20 H -1.8742 -1.9324 -1.0682 0
M  V30 21 H -1.7098 1.9659 0.8044 0
M  V30 22 H 0.5636 -1.9844 -1.1485 0
M  V30 23 H 0.7277 1.8897 0.722 0
M  V30 END ATOM
M  V30 BEGIN BOND
M  V30 1 1 1 2
M  V30 2 1 2 3
M  V30 3 2 3 4
M  V30 4 1 3 5
M  V30 5 2 5 6
M  V30 6 1 5 7
M  V30 7 1 6 8
M  V30 8 2 7 9
M  V30 9 2 8 10
M  V30 10 1 10 11
M  V30 11 1 11 12
M  V30 12 2 12 13
M  V30 13 1 13 14
M  V30 14 1 13 15
M  V30 15 3 14 16
M  V30 16 3 15 17
M  V30 17 1 9 10
M  V30 18 1 2 18
M  V30 19 1 2 19
M  V30 20 1 6 20
M  V30 21 1 7 21
M  V30 22 1 8 22
M  V30 23 1 9 23
M  V30 END BOND
M  V30 END CTAB
M  END
>  <Structure No>
7071

>  <LogS>
-3.19

>  <MMFF94 Energy>
93.758

$$$$
Compound 7072
Actelion Java MolfileCreator 2.0

  0  0  0  0  0  0              0 V3000
M  V30 BEGIN CTAB
M  V30 COUNTS 40 40 0 0 0
M  V30 BEGIN ATOM
M  V30 1 O -0.6298 -2.2057 -0.7085 0
M  V30 2 C -0.3079 -1.0436 -0.3377 0
M  V30 3 O -1.2428 -0.2091 0.2874 0
M  V30 4 C 1.0952 -0.5495 -0.5671 0 CFG=1
M  V30 5 C -2.6087 -0.5684 0.4845 0
M  V30 6 N 1.09 0.6163 -1.4546 0
M  V30 7 C 1.7652 -0.2053 0.7744 0
M  V30 8 C -3.3938 -0.4244 -0.8254 0
M  V30 9 C 3.2134 0.1678 0.5848 0
M  V30 10 C -4.834 -0.9575 -0.7235 0
M  V30 11 C 4.1939 -0.8322 0.4867 0
M  V30 12 C 3.589 1.5142 0.4578 0
M  V30 13 C -5.7294 -0.2114 0.2818 0
M  V30 14 C 5.539 -0.4916 0.2816 0
M  V30 15 C 4.9285 1.8559 0.2539 0
M  V30 16 C -5.936 1.2592 -0.0787 0
M  V30 17 O 6.508 -1.4896 0.1903 0
M  V30 18 C 5.9068 0.8601 0.1663 0
M  V30 19 O 7.2355 1.2313 -0.0369 0
M  V30 20 H 1.6833 -1.3603 -1.0543 0
M  V30 21 H -3.0334 0.1175 1.246 0
M  V30 22 H -2.6776 -1.6072 0.8758 0
M  V30 23 H 0.6662 0.3385 -2.37 0
M  V30 24 H 0.486 1.3664 -1.0446 0
M  V30 25 H 1.7028 -1.0832 1.4555 0
M  V30 26 H 1.2187 0.6271 1.2713 0
M  V30 27 H -2.876 -1.0025 -1.6202 0
M  V30 28 H -3.3931 0.638 -1.1482 0
M  V30 29 H -5.3031 -0.9044 -1.7302 0
M  V30 30 H -4.8006 -2.0319 -0.4391 0
M  V30 31 H 3.9118 -1.875 0.5681 0
M  V30 32 H 2.8446 2.2991 0.5148 0
M  V30 33 H -6.7237 -0.7084 0.292 0
M  V30 34 H -5.317 -0.2917 1.3094 0
M  V30 35 H 5.2071 2.8979 0.1607 0
M  V30 36 H -6.7096 1.697 0.587 0
M  V30 37 H -6.2778 1.3582 -1.1309 0
M  V30 38 H -4.9968 1.833 0.0632 0
M  V30 39 H 6.2684 -2.471 0.2696 0
M  V30 40 H 7.9801 0.5482 -0.1078 0
M  V30 END ATOM
M  V30 BEGIN BOND
M  V30 1 2 1 2
M  V30 2 1 2 3
M  V30 3 1 2 4
M  V30 4 1 3 5
M  V30 5 1 4 6
M  V30 6 1 4 7
M  V30 7 1 5 8
M  V30 8 1 7 9
M  V30 9 1 8 10
M  V30 10 2 9 11
M  V30 11 1 9 12
M  V30 12 1 10 13
M  V30 13 1 11 14
M  V30 14 2 12 15
M  V30 15 1 13 16
M  V30 16 1 14 17
M  V30 17 2 14 18
M  V30 18 1 18 19
M  V30 19 1 15 18
M  V30 20 1 4 20
M  V30 21 1 5 21
M  V30 22 1 5 22
M  V30 23 1 6 23
M  V30 24 1 6 24
M  V30 25 1 7 25
M  V30 26 1 7 26
M  V30 27 1 8 27
M  V30 28 1 8 28
M  V30 29 1 10 29
M  V30 30 1 10 30
M  V30 31 1 11 31
M  V30 32 1 12 32
M  V30 33 1 13 33
M  V30 34 1 13 34
M  V30 35 1 15 35
M  V30 36 1 16 36
M  V30 37 1 16 37
M  V30 38 1 16 38
M  V30 39 1 17 39
M  V30 40 1 19 40
M  V30 END BOND
M  V30 BEGIN COLLECTION
M  V30 MDLV30/STEABS ATOMS=(1 4)
M  V30 END COLLECTION
M  V30 END CTAB
M  END
>  <Structure No>
7072

>  <LogS>
-0.99

>  <MMFF94 Energy>
59.194

$$$$
Compound 7073
Actelion Java MolfileCreator 2.0

  0  0  0  0  0  0              0 V3000
M  V30 BEGIN CTAB
M  V30 COUNTS 41 41 0 0 0
M  V30 BEGIN ATOM
M  V30 1 O -4.7586 1.8221 -1.7428 0
M  V30 2 C -4.1173 2.2175 -0.7325 0
M  V30 3 N -2.9752 1.4901 -0.2538 0
M  V30 4 N -4.5355 3.4045 -0.0598 0
M  V30 5 C -2.4759 0.2819 -0.8587 0
M  V30 6 O -3.0657 -0.209 -1.8612 0
M  V30 7 C -1.2617 -0.4271 -0.2638 0
M  V30 8 C -0.1544 0.6024 -0.1114 0
M  V30 9 C -0.7546 -1.5469 -1.2307 0
M  V30 10 C -1.6545 -1.0033 1.1337 0
M  V30 11 O 0.2157 1.2724 -1.116 0
M  V30 12 O 0.475 0.7901 1.1265 0
M  V30 13 C 0.4728 -2.318 -0.7296 0
M  V30 14 C -2.7555 -2.0694 1.0976 0
M  V30 15 C 1.6382 1.5954 1.2983 0
M  V30 16 C 2.8337 0.9076 0.6993 0
M  V30 17 C 3.4218 1.3907 -0.4814 0
M  V30 18 C 3.3389 -0.2604 1.2929 0
M  V30 19 C 4.5071 0.7188 -1.0524 0
M  V30 20 C 4.4237 -0.9297 0.7185 0
M  V30 21 C 5.0079 -0.4401 -0.4527 0
M  V30 22 H -2.4812 1.8688 0.5849 0
M  V30 23 H -5.3647 3.9401 -0.4007 0
M  V30 24 H -4.0192 3.7508 0.7788 0
M  V30 25 H -1.5638 -2.2794 -1.4373 0
M  V30 26 H -0.4916 -1.0919 -2.2117 0
M  V30 27 H -0.7661 -1.4401 1.638 0
M  V30 28 H -2.005 -0.1771 1.7906 0
M  V30 29 H 0.2242 -2.9203 0.1677 0
M  V30 30 H 1.31 -1.6286 -0.4957 0
M  V30 31 H 0.8138 -3.0166 -1.5223 0
M  V30 32 H -3.6597 -1.6921 0.5764 0
M  V30 33 H -3.0414 -2.3349 2.1372 0
M  V30 34 H -2.3961 -2.9931 0.5998 0
M  V30 35 H 1.4758 2.6012 0.8523 0
M  V30 36 H 1.8118 1.7411 2.3854 0
M  V30 37 H 3.0383 2.2821 -0.9623 0
M  V30 38 H 2.887 -0.6551 2.1947 0
M  V30 39 H 4.9576 1.0945 -1.9619 0
M  V30 40 H 4.8086 -1.8302 1.1791 0
M  V30 41 H 5.8465 -0.9601 -0.8973 0
M  V30 END ATOM
M  V30 BEGIN BOND
M  V30 1 2 1 2
M  V30 2 1 2 3
M  V30 3 1 2 4
M  V30 4 1 3 5
M  V30 5 2 5 6
M  V30 6 1 5 7
M  V30 7 1 7 8
M  V30 8 1 7 9
M  V30 9 1 7 10
M  V30 10 2 8 11
M  V30 11 1 8 12
M  V30 12 1 9 13
M  V30 13 1 10 14
M  V30 14 1 12 15
M  V30 15 1 15 16
M  V30 16 2 16 17
M  V30 17 1 16 18
M  V30 18 1 17 19
M  V30 19 2 18 20
M  V30 20 2 19 21
M  V30 21 1 20 21
M  V30 22 1 3 22
M  V30 23 1 4 23
M  V30 24 1 4 24
M  V30 25 1 9 25
M  V30 26 1 9 26
M  V30 27 1 10 27
M  V30 28 1 10 28
M  V30 29 1 13 29
M  V30 30 1 13 30
M  V30 31 1 13 31
M  V30 32 1 14 32
M  V30 33 1 14 33
M  V30 34 1 14 34
M  V30 35 1 15 35
M  V30 36 1 15 36
M  V30 37 1 17 37
M  V30 38 1 18 38
M  V30 39 1 19 39
M  V30 40 1 20 40
M  V30 41 1 21 41
M  V30 END BOND
M  V30 END CTAB
M  END
>  <Structure No>
7073

>  <LogS>
-3.66

>  <MMFF94 Energy>
-81.075

$$$$
Compound 7074
Actelion Java MolfileCreator 2.0

  0  0  0  0  0  0              0 V3000
M  V30 BEGIN CTAB
M  V30 COUNTS 43 43 0 0 0
M  V30 BEGIN ATOM
M  V30 1 O -0.0787 -2.2075 -2.6021 0
M  V30 2 C 0.8123 -1.8362 -1.7906 0
M  V30 3 O 0.5135 -1.6219 -0.4393 0
M  V30 4 C 2.2162 -1.639 -2.273 0
M  V30 5 C -0.7662 -1.3777 0.0793 0
M  V30 6 C 2.3762 -0.3033 -3.0124 0
M  V30 7 C -1.7844 -0.7767 -0.6822 0
M  V30 8 C -1.0156 -1.7004 1.4174 0
M  V30 9 C 2.1889 0.9366 -2.1164 0
M  V30 10 C -3.0423 -0.5419 -0.1185 0
M  V30 11 C -2.2723 -1.4645 1.9822 0
M  V30 12 C 3.3435 1.1533 -1.1134 0
M  V30 13 C -3.3036 -0.9051 1.2144 0
M  V30 14 C 2.934 0.8132 0.3296 0
M  V30 15 N -4.5805 -0.6512 1.8256 0
M  V30 16 C 4.1055 0.9202 1.3178 0
M  V30 17 C -5.8328 -0.7012 1.1243 0
M  V30 18 C 4.5389 2.3643 1.5685 0
M  V30 19 O -5.9112 -1.2353 -0.0146 0
M  V30 20 C -7.0769 -0.2062 1.787 0
M  V30 21 H 2.927 -1.7011 -1.4234 0
M  V30 22 H 2.4718 -2.4655 -2.9705 0
M  V30 23 H 1.6347 -0.2599 -3.8403 0
M  V30 24 H 3.3826 -0.2684 -3.4835 0
M  V30 25 H -1.6015 -0.4526 -1.6974 0
M  V30 26 H -0.2322 -2.1401 2.0215 0
M  V30 27 H 2.1476 1.8212 -2.7892 0
M  V30 28 H 1.2034 0.8987 -1.6026 0
M  V30 29 H -3.7961 -0.0462 -0.7154 0
M  V30 30 H -2.4461 -1.726 3.0183 0
M  V30 31 H 4.2364 0.5572 -1.4032 0
M  V30 32 H 3.6388 2.2235 -1.1536 0
M  V30 33 H 2.1052 1.48 0.6547 0
M  V30 34 H 2.5575 -0.2284 0.3679 0
M  V30 35 H -4.6095 -0.4975 2.8597 0
M  V30 36 H 4.9718 0.3287 0.9499 0
M  V30 37 H 3.7872 0.4799 2.2878 0
M  V30 38 H 5.3012 2.3851 2.3756 0
M  V30 39 H 4.9918 2.8034 0.6557 0
M  V30 40 H 3.672 2.9817 1.8863 0
M  V30 41 H -7.4721 -0.9907 2.4649 0
M  V30 42 H -6.8552 0.709 2.376 0
M  V30 43 H -7.8474 0.039 1.0256 0
M  V30 END ATOM
M  V30 BEGIN BOND
M  V30 1 2 1 2
M  V30 2 1 2 3
M  V30 3 1 2 4
M  V30 4 1 3 5
M  V30 5 1 4 6
M  V30 6 2 5 7
M  V30 7 1 5 8
M  V30 8 1 6 9
M  V30 9 1 7 10
M  V30 10 2 8 11
M  V30 11 1 9 12
M  V30 12 2 10 13
M  V30 13 1 12 14
M  V30 14 1 13 15
M  V30 15 1 14 16
M  V30 16 1 15 17
M  V30 17 1 16 18
M  V30 18 2 17 19
M  V30 19 1 17 20
M  V30 20 1 11 13
M  V30 21 1 4 21
M  V30 22 1 4 22
M  V30 23 1 6 23
M  V30 24 1 6 24
M  V30 25 1 7 25
M  V30 26 1 8 26
M  V30 27 1 9 27
M  V30 28 1 9 28
M  V30 29 1 10 29
M  V30 30 1 11 30
M  V30 31 1 12 31
M  V30 32 1 12 32
M  V30 33 1 14 33
M  V30 34 1 14 34
M  V30 35 1 15 35
M  V30 36 1 16 36
M  V30 37 1 16 37
M  V30 38 1 18 38
M  V30 39 1 18 39
M  V30 40 1 18 40
M  V30 41 1 20 41
M  V30 42 1 20 42
M  V30 43 1 20 43
M  V30 END BOND
M  V30 END CTAB
M  END
>  <Structure No>
7074

>  <LogS>
-4.44

>  <MMFF94 Energy>
5.2853

$$$$
Compound 7075
Actelion Java MolfileCreator 2.0

  0  0  0  0  0  0              0 V3000
M  V30 BEGIN CTAB
M  V30 COUNTS 41 42 0 0 0
M  V30 BEGIN ATOM
M  V30 1 O 2.0733 -0.3187 -1.2755 0
M  V30 2 C 2.7015 -0.0079 -0.2254 0
M  V30 3 O 2.0044 0.4592 0.8966 0
M  V30 4 C 4.1745 -0.1362 -0.1762 0
M  V30 5 C 0.5838 0.5852 0.9377 0
M  V30 6 C 4.8782 0.2041 0.9936 0
M  V30 7 C 4.8935 -0.6004 -1.2942 0
M  V30 8 C -0.0737 -0.7681 0.988 0
M  V30 9 C 6.2705 0.0825 1.0422 0
M  V30 10 C 6.2857 -0.7199 -1.2397 0
M  V30 11 O 0.531 -1.7148 1.5625 0
M  V30 12 N -1.3768 -1.0022 0.4118 0
M  V30 13 C 6.9736 -0.3787 -0.0729 0
M  V30 14 C -2.3625 0.0917 0.2771 0
M  V30 15 C -1.6761 -2.36 -0.0619 0
M  V30 16 C -2.588 0.4517 -1.2039 0
M  V30 17 C -3.695 -0.2604 0.971 0
M  V30 18 C -3.5999 1.5975 -1.3375 0
M  V30 19 C -4.7002 0.8905 0.8308 0
M  V30 20 C -4.9242 1.2485 -0.6446 0
M  V30 21 H 0.2423 1.1589 0.0498 0
M  V30 22 H 0.3031 1.1504 1.8505 0
M  V30 23 H 4.355 0.5636 1.8707 0
M  V30 24 H 4.3815 -0.871 -2.2093 0
M  V30 25 H 6.8048 0.3465 1.946 0
M  V30 26 H 6.8316 -1.0775 -2.1032 0
M  V30 27 H 8.0512 -0.472 -0.0328 0
M  V30 28 H -1.9825 1.0022 0.7902 0
M  V30 29 H -0.8785 -2.6979 -0.7573 0
M  V30 30 H -1.7264 -3.0556 0.802 0
M  V30 31 H -2.6389 -2.4085 -0.608 0
M  V30 32 H -2.9633 -0.428 -1.7688 0
M  V30 33 H -1.624 0.7638 -1.6602 0
M  V30 34 H -4.1448 -1.1766 0.5344 0
M  V30 35 H -3.5091 -0.4519 2.0501 0
M  V30 36 H -3.7906 1.7949 -2.4144 0
M  V30 37 H -3.1773 2.5241 -0.8899 0
M  V30 38 H -5.6685 0.5898 1.286 0
M  V30 39 H -4.3276 1.7834 1.3796 0
M  V30 40 H -5.4046 0.3923 -1.1677 0
M  V30 41 H -5.6123 2.1187 -0.71 0
M  V30 END ATOM
M  V30 BEGIN BOND
M  V30 1 2 1 2
M  V30 2 1 2 3
M  V30 3 1 2 4
M  V30 4 1 3 5
M  V30 5 2 4 6
M  V30 6 1 4 7
M  V30 7 1 5 8
M  V30 8 1 6 9
M  V30 9 2 7 10
M  V30 10 2 8 11
M  V30 11 1 8 12
M  V30 12 2 9 13
M  V30 13 1 12 14
M  V30 14 1 12 15
M  V30 15 1 14 16
M  V30 16 1 14 17
M  V30 17 1 16 18
M  V30 18 1 17 19
M  V30 19 1 18 20
M  V30 20 1 10 13
M  V30 21 1 19 20
M  V30 22 1 5 21
M  V30 23 1 5 22
M  V30 24 1 6 23
M  V30 25 1 7 24
M  V30 26 1 9 25
M  V30 27 1 10 26
M  V30 28 1 13 27
M  V30 29 1 14 28
M  V30 30 1 15 29
M  V30 31 1 15 30
M  V30 32 1 15 31
M  V30 33 1 16 32
M  V30 34 1 16 33
M  V30 35 1 17 34
M  V30 36 1 17 35
M  V30 37 1 18 36
M  V30 38 1 18 37
M  V30 39 1 19 38
M  V30 40 1 19 39
M  V30 41 1 20 40
M  V30 42 1 20 41
M  V30 END BOND
M  V30 END CTAB
M  END
>  <Structure No>
7075

>  <LogS>
-3.29

>  <MMFF94 Energy>
42.062

$$$$
Compound 7076
Actelion Java MolfileCreator 2.0

  0  0  0  0  0  0              0 V3000
M  V30 BEGIN CTAB
M  V30 COUNTS 17 18 0 0 0
M  V30 BEGIN ATOM
M  V30 1 O 0.0 -2.5856 1.5346 0
M  V30 2 C -0.2947 -1.5275 0.9179 0
M  V30 3 N -1.599 -1.1927 0.7373 0
M  V30 4 C 0.7057 -0.6922 0.4165 0
M  V30 5 C -1.9546 -0.0569 0.0759 0
M  V30 6 N 2.0262 -0.9803 0.5698 0 CHG=-1
M  V30 7 C 0.3247 0.4767 -0.264 0
M  V30 8 N -0.9936 0.7728 -0.4217 0
M  V30 9 N -3.3366 0.2592 -0.0928 0
M  V30 10 C 2.9834 -0.1521 0.0731 0
M  V30 11 N 1.286 1.3018 -0.7589 0
M  V30 12 O 4.2005 -0.4349 0.2244 0
M  V30 13 C 2.6061 1.0128 -0.6051 0
M  V30 14 H -1.2699 1.644 -0.929 0
M  V30 15 H -4.0728 -0.3757 0.288 0
M  V30 16 H -3.6282 1.1257 -0.5972 0
M  V30 17 H 3.3541 1.684 -1.0073 0
M  V30 END ATOM
M  V30 BEGIN BOND
M  V30 1 2 1 2
M  V30 2 1 2 3
M  V30 3 1 2 4
M  V30 4 2 3 5
M  V30 5 1 4 6
M  V30 6 2 4 7
M  V30 7 1 5 8
M  V30 8 1 5 9
M  V30 9 1 6 10
M  V30 10 1 7 11
M  V30 11 2 10 12
M  V30 12 1 10 13
M  V30 13 1 7 8
M  V30 14 2 11 13
M  V30 15 1 8 14
M  V30 16 1 9 15
M  V30 17 1 9 16
M  V30 18 1 13 17
M  V30 END BOND
M  V30 END CTAB
M  END
>  <Structure No>
7076

>  <LogS>
-3.86

>  <MMFF94 Energy>
-38.224

$$$$
Compound 7077
Actelion Java MolfileCreator 2.0

  0  0  0  0  0  0              0 V3000
M  V30 BEGIN CTAB
M  V30 COUNTS 16 17 0 0 0
M  V30 BEGIN ATOM
M  V30 1 O 3.4077 -0.9727 -0.4862 0
M  V30 2 C 2.2798 -0.4459 -0.2894 0
M  V30 3 N 1.1516 -1.2044 -0.379 0
M  V30 4 N 2.1931 0.8807 0.0124 0
M  V30 5 C -0.0724 -0.6512 -0.1695 0
M  V30 6 C 0.9869 1.4741 0.2296 0
M  V30 7 N -1.2002 -1.4058 -0.2581 0 CHG=-1
M  V30 8 C -0.1813 0.7138 0.1425 0
M  V30 9 O 0.9299 2.7026 0.5076 0
M  V30 10 C -2.4277 -0.859 -0.0498 0
M  V30 11 N -1.4101 1.2592 0.3506 0
M  V30 12 O -3.4588 -1.5755 -0.1368 0
M  V30 13 C -2.5353 0.5013 0.2611 0
M  V30 14 H 1.2274 -2.2211 -0.6109 0
M  V30 15 H 3.0667 1.4516 0.0782 0
M  V30 16 H -3.5038 0.9541 0.4302 0
M  V30 END ATOM
M  V30 BEGIN BOND
M  V30 1 2 1 2
M  V30 2 1 2 3
M  V30 3 1 2 4
M  V30 4 1 3 5
M  V30 5 1 4 6
M  V30 6 1 5 7
M  V30 7 2 5 8
M  V30 8 2 6 9
M  V30 9 1 7 10
M  V30 10 1 8 11
M  V30 11 2 10 12
M  V30 12 1 10 13
M  V30 13 1 6 8
M  V30 14 2 11 13
M  V30 15 1 3 14
M  V30 16 1 4 15
M  V30 17 1 13 16
M  V30 END BOND
M  V30 END CTAB
M  END
>  <Structure No>
7077

>  <LogS>
-3.34

>  <MMFF94 Energy>
4.2247

$$$$
Compound 7078
Actelion Java MolfileCreator 2.0

  0  0  0  0  0  0              0 V3000
M  V30 BEGIN CTAB
M  V30 COUNTS 41 42 0 0 0
M  V30 BEGIN ATOM
M  V30 1 O 1.5146 -1.4349 0.6375 0
M  V30 2 C 2.3689 -0.6854 0.0883 0
M  V30 3 O 1.9989 0.1264 -0.992 0
M  V30 4 C 3.7622 -0.6611 0.5841 0
M  V30 5 C 0.6699 0.1843 -1.5085 0
M  V30 6 C 4.7172 0.175 -0.0225 0
M  V30 7 C 4.1537 -1.4694 1.6682 0
M  V30 8 C -0.2518 0.8982 -0.5556 0
M  V30 9 C 6.0346 0.2003 0.4458 0
M  V30 10 C 5.4725 -1.4398 2.1323 0
M  V30 11 O 0.2422 1.7004 0.2839 0
M  V30 12 N -1.6851 0.7125 -0.6153 0
M  V30 13 C 6.4119 -0.606 1.5219 0
M  V30 14 C -2.4689 0.9677 0.6218 0 CFG=1
M  V30 15 C -2.2804 0.4492 -1.9433 0
M  V30 16 C -4.004 0.9873 0.4251 0
M  V30 17 C -2.0686 -0.019 1.7464 0
M  V30 18 C -3.8088 0.3996 -1.956 0
M  V30 19 C -4.394 1.4053 -0.9813 0
M  V30 20 C -2.0905 -1.488 1.3114 0
M  V30 21 H 0.3063 -0.8471 -1.7022 0
M  V30 22 H 0.6858 0.7381 -2.4698 0
M  V30 23 H 4.4482 0.8094 -0.8575 0
M  V30 24 H 3.4425 -2.1232 2.1573 0
M  V30 25 H 6.7636 0.8462 -0.0261 0
M  V30 26 H 5.7659 -2.0642 2.9663 0
M  V30 27 H 7.432 -0.5847 1.8827 0
M  V30 28 H -2.2052 1.9891 0.9784 0
M  V30 29 H -1.954 1.2504 -2.6426 0
M  V30 30 H -1.9057 -0.5184 -2.3382 0
M  V30 31 H -4.4586 1.6974 1.1506 0
M  V30 32 H -4.4547 -0.0057 0.636 0
M  V30 33 H -2.746 0.112 2.6185 0
M  V30 34 H -1.0434 0.2222 2.1002 0
M  V30 35 H -4.1759 0.6221 -2.9814 0
M  V30 36 H -4.1529 -0.6259 -1.6944 0
M  V30 37 H -4.02 2.4296 -1.2024 0
M  V30 38 H -5.5017 1.4072 -1.0721 0
M  V30 39 H -1.8008 -2.1287 2.1705 0
M  V30 40 H -1.3667 -1.6659 0.4893 0
M  V30 41 H -3.1017 -1.7948 0.9764 0
M  V30 END ATOM
M  V30 BEGIN BOND
M  V30 1 2 1 2
M  V30 2 1 2 3
M  V30 3 1 2 4
M  V30 4 1 3 5
M  V30 5 2 4 6
M  V30 6 1 4 7
M  V30 7 1 5 8
M  V30 8 1 6 9
M  V30 9 2 7 10
M  V30 10 2 8 11
M  V30 11 1 8 12
M  V30 12 2 9 13
M  V30 13 1 12 14
M  V30 14 1 12 15
M  V30 15 1 14 16
M  V30 16 1 14 17
M  V30 17 1 15 18
M  V30 18 1 16 19
M  V30 19 1 17 20
M  V30 20 1 10 13
M  V30 21 1 18 19
M  V30 22 1 5 21
M  V30 23 1 5 22
M  V30 24 1 6 23
M  V30 25 1 7 24
M  V30 26 1 9 25
M  V30 27 1 10 26
M  V30 28 1 13 27
M  V30 29 1 14 28
M  V30 30 1 15 29
M  V30 31 1 15 30
M  V30 32 1 16 31
M  V30 33 1 16 32
M  V30 34 1 17 33
M  V30 35 1 17 34
M  V30 36 1 18 35
M  V30 37 1 18 36
M  V30 38 1 19 37
M  V30 39 1 19 38
M  V30 40 1 20 39
M  V30 41 1 20 40
M  V30 42 1 20 41
M  V30 END BOND
M  V30 BEGIN COLLECTION
M  V30 MDLV30/STEABS ATOMS=(1 14)
M  V30 END COLLECTION
M  V30 END CTAB
M  END
>  <Structure No>
7078

>  <LogS>
-2.72

>  <MMFF94 Energy>
39.13

$$$$
Compound 7079
Actelion Java MolfileCreator 2.0

  0  0  0  0  0  0              0 V3000
M  V30 BEGIN CTAB
M  V30 COUNTS 39 39 0 0 0
M  V30 BEGIN ATOM
M  V30 1 F 4.2035 3.5682 -1.2675 0
M  V30 2 C 4.4594 2.3165 -0.8106 0
M  V30 3 C 3.7228 1.2223 -1.2662 0
M  V30 4 C 5.4594 2.1056 0.1299 0
M  V30 5 O 2.799 1.4127 -2.1047 0
M  V30 6 N 4.0009 -0.0394 -0.8026 0
M  V30 7 N 5.6977 0.8541 0.5944 0
M  V30 8 C 4.9777 -0.2115 0.1479 0
M  V30 9 C 3.2021 -1.1883 -1.2627 0
M  V30 10 O 5.2181 -1.3561 0.622 0
M  V30 11 O 2.0557 -1.3288 -0.4306 0
M  V30 12 C 1.097 -2.326 -0.6283 0
M  V30 13 O 1.2107 -3.1504 -1.5761 0
M  V30 14 C -0.0997 -2.3811 0.2667 0
M  V30 15 C -1.1642 -1.3858 -0.2035 0
M  V30 16 C -2.3916 -1.4175 0.7194 0
M  V30 17 C -3.5414 -0.5331 0.2101 0
M  V30 18 C -3.2552 0.9681 0.3874 0
M  V30 19 C -4.4136 1.8497 -0.1053 0
M  V30 20 C -5.6231 1.8168 0.829 0
M  V30 21 H 6.0411 2.9411 0.4985 0
M  V30 22 H 6.4448 0.7138 1.3116 0
M  V30 23 H 2.8847 -1.0485 -2.3195 0
M  V30 24 H 3.802 -2.1244 -1.2374 0
M  V30 25 H -0.5173 -3.4118 0.2663 0
M  V30 26 H 0.2149 -2.134 1.3038 0
M  V30 27 H -0.7236 -0.3659 -0.2074 0
M  V30 28 H -1.4731 -1.6436 -1.2407 0
M  V30 29 H -2.7659 -2.4632 0.779 0
M  V30 30 H -2.1021 -1.1054 1.7469 0
M  V30 31 H -4.45 -0.8016 0.789 0
M  V30 32 H -3.7448 -0.7582 -0.8595 0
M  V30 33 H -2.3555 1.2407 -0.2029 0
M  V30 34 H -3.0391 1.1925 1.4551 0
M  V30 35 H -4.0536 2.8998 -0.167 0
M  V30 36 H -4.7229 1.5413 -1.1276 0
M  V30 37 H -6.0989 0.8147 0.8251 0
M  V30 38 H -5.3213 2.0797 1.8653 0
M  V30 39 H -6.3757 2.5564 0.4832 0
M  V30 END ATOM
M  V30 BEGIN BOND
M  V30 1 1 1 2
M  V30 2 1 2 3
M  V30 3 2 2 4
M  V30 4 2 3 5
M  V30 5 1 3 6
M  V30 6 1 4 7
M  V30 7 1 6 8
M  V30 8 1 6 9
M  V30 9 2 8 10
M  V30 10 1 9 11
M  V30 11 1 11 12
M  V30 12 2 12 13
M  V30 13 1 12 14
M  V30 14 1 14 15
M  V30 15 1 15 16
M  V30 16 1 16 17
M  V30 17 1 17 18
M  V30 18 1 18 19
M  V30 19 1 19 20
M  V30 20 1 7 8
M  V30 21 1 4 21
M  V30 22 1 7 22
M  V30 23 1 9 23
M  V30 24 1 9 24
M  V30 25 1 14 25
M  V30 26 1 14 26
M  V30 27 1 15 27
M  V30 28 1 15 28
M  V30 29 1 16 29
M  V30 30 1 16 30
M  V30 31 1 17 31
M  V30 32 1 17 32
M  V30 33 1 18 33
M  V30 34 1 18 34
M  V30 35 1 19 35
M  V30 36 1 19 36
M  V30 37 1 20 37
M  V30 38 1 20 38
M  V30 39 1 20 39
M  V30 END BOND
M  V30 END CTAB
M  END
>  <Structure No>
7079

>  <LogS>
-3.29

>  <MMFF94 Energy>
-98.446

$$$$
Compound 7080
Actelion Java MolfileCreator 2.0

  0  0  0  0  0  0              0 V3000
M  V30 BEGIN CTAB
M  V30 COUNTS 16 17 0 0 0
M  V30 BEGIN ATOM
M  V30 1 O 1.5502 2.5302 0.5709 0
M  V30 2 C 1.5098 1.3152 0.2407 0
M  V30 3 N 2.6657 0.6622 -0.0494 0
M  V30 4 C 0.2878 0.6279 0.1689 0
M  V30 5 C 2.664 -0.6483 -0.4094 0
M  V30 6 N -0.9064 1.2268 0.4479 0
M  V30 7 C 0.3107 -0.7283 -0.2061 0
M  V30 8 N 1.4941 -1.3347 -0.4861 0 CHG=-1
M  V30 9 C -2.0719 0.5263 0.3669 0
M  V30 10 N -0.8563 -1.4227 -0.2852 0 CHG=1
M  V30 11 O -3.1679 1.0917 0.6274 0
M  V30 12 C -2.046 -0.8237 -0.0066 0
M  V30 13 O -3.2276 -1.5524 -0.0937 0 CHG=-1
M  V30 14 H 3.5968 -1.1462 -0.6356 0
M  V30 15 H -0.9409 2.2339 0.728 0
M  V30 16 H -0.8427 -2.4301 -0.5634 0
M  V30 END ATOM
M  V30 BEGIN BOND
M  V30 1 2 1 2
M  V30 2 1 2 3
M  V30 3 1 2 4
M  V30 4 2 3 5
M  V30 5 1 4 6
M  V30 6 2 4 7
M  V30 7 1 5 8
M  V30 8 1 6 9
M  V30 9 1 7 10
M  V30 10 2 9 11
M  V30 11 1 9 12
M  V30 12 1 12 13
M  V30 13 1 7 8
M  V30 14 2 10 12
M  V30 15 1 5 14
M  V30 16 1 6 15
M  V30 17 1 10 16
M  V30 END BOND
M  V30 END CTAB
M  END
>  <Structure No>
7080

>  <LogS>
-3.69

>  <MMFF94 Energy>
29.038

$$$$
Compound 7081
Actelion Java MolfileCreator 2.0

  0  0  0  0  0  0              0 V3000
M  V30 BEGIN CTAB
M  V30 COUNTS 40 43 0 0 0
M  V30 BEGIN ATOM
M  V30 1 O -4.706 0.9723 -0.486 0
M  V30 2 C -3.7287 0.6337 0.1647 0
M  V30 3 C -2.5103 0.0067 -0.4395 0 CFG=2
M  V30 4 C -3.6276 0.8481 1.6336 0
M  V30 5 C -1.7619 -0.4915 0.8261 0 CFG=2
M  V30 6 C -1.7316 1.0986 -1.2324 0
M  V30 7 C -2.8945 -1.1745 -1.3537 0
M  V30 8 C -2.1944 0.4387 1.967 0
M  V30 9 C -0.2548 -0.5722 0.643 0
M  V30 10 C -0.2484 0.758 -1.4319 0
M  V30 11 C 0.3998 -1.6927 1.0046 0
M  V30 12 C 0.4334 0.5735 -0.0688 0 CFG=2
M  V30 13 C 1.8287 -1.9768 0.6393 0
M  V30 14 C 1.9335 0.4173 -0.2102 0
M  V30 15 C 2.5884 -0.7799 0.1417 0
M  V30 16 C 2.6978 1.5099 -0.6598 0
M  V30 17 C 3.9817 -0.8801 -0.0052 0
M  V30 18 C 4.0833 1.4032 -0.7922 0
M  V30 19 C 4.7284 0.2055 -0.469 0
M  V30 20 O 6.1097 0.0842 -0.6023 0
M  V30 21 H -3.8074 1.9137 1.8925 0
M  V30 22 H -4.3574 0.1945 2.1579 0
M  V30 23 H -2.1581 -1.5006 1.0907 0
M  V30 24 H -2.2037 1.261 -2.2261 0
M  V30 25 H -1.7861 2.0731 -0.6952 0
M  V30 26 H -3.5435 -1.8973 -0.8133 0
M  V30 27 H -3.4499 -0.8157 -2.2466 0
M  V30 28 H -1.9846 -1.7115 -1.6951 0
M  V30 29 H -1.5543 1.3468 2.0017 0
M  V30 30 H -2.142 -0.0769 2.9504 0
M  V30 31 H -0.1428 -0.1632 -2.0456 0
M  V30 32 H 0.2264 1.5925 -1.991 0
M  V30 33 H -0.1445 -2.4997 1.4869 0
M  V30 34 H 0.2681 1.4923 0.5356 0
M  V30 35 H 1.8387 -2.7581 -0.1498 0
M  V30 36 H 2.3391 -2.3868 1.5372 0
M  V30 37 H 2.2188 2.4496 -0.9058 0
M  V30 38 H 4.4893 -1.8039 0.2453 0
M  V30 39 H 4.6542 2.2526 -1.1448 0
M  V30 40 H 6.6791 0.8535 -0.9352 0
M  V30 END ATOM
M  V30 BEGIN BOND
M  V30 1 2 1 2
M  V30 2 1 2 3
M  V30 3 1 2 4
M  V30 4 1 3 5
M  V30 5 1 3 6
M  V30 6 1 3 7
M  V30 7 1 4 8
M  V30 8 1 5 9
M  V30 9 1 6 10
M  V30 10 2 9 11
M  V30 11 1 9 12
M  V30 12 1 11 13
M  V30 13 1 12 14
M  V30 14 1 13 15
M  V30 15 1 14 16
M  V30 16 1 15 17
M  V30 17 2 16 18
M  V30 18 2 17 19
M  V30 19 1 19 20
M  V30 20 1 5 8
M  V30 21 1 10 12
M  V30 22 2 14 15
M  V30 23 1 18 19
M  V30 24 1 4 21
M  V30 25 1 4 22
M  V30 26 1 5 23
M  V30 27 1 6 24
M  V30 28 1 6 25
M  V30 29 1 7 26
M  V30 30 1 7 27
M  V30 31 1 7 28
M  V30 32 1 8 29
M  V30 33 1 8 30
M  V30 34 1 10 31
M  V30 35 1 10 32
M  V30 36 1 11 33
M  V30 37 1 12 34
M  V30 38 1 13 35
M  V30 39 1 13 36
M  V30 40 1 16 37
M  V30 41 1 17 38
M  V30 42 1 18 39
M  V30 43 1 20 40
M  V30 END BOND
M  V30 BEGIN COLLECTION
M  V30 MDLV30/STEABS ATOMS=(3 3 5 12)
M  V30 END COLLECTION
M  V30 END CTAB
M  END
>  <Structure No>
7081

>  <LogS>
-4.99

>  <MMFF94 Energy>
50.901

$$$$
Compound 7082
Actelion Java MolfileCreator 2.0

  0  0  0  0  0  0              0 V3000
M  V30 BEGIN CTAB
M  V30 COUNTS 35 35 0 0 0
M  V30 BEGIN ATOM
M  V30 1 O 3.5764 -0.1587 2.5422 0
M  V30 2 C 3.6853 0.2472 1.3539 0
M  V30 3 N 2.5281 0.3789 0.5145 0
M  V30 4 N 4.9779 0.561 0.8371 0
M  V30 5 C 1.1805 0.1863 0.9824 0
M  V30 6 O 0.9427 0.2391 2.2217 0
M  V30 7 C 0.0228 0.0616 -0.0089 0 CFG=1
M  V30 8 C -1.2385 -0.4909 0.6919 0
M  V30 9 C -0.1922 1.4688 -0.5486 0
M  V30 10 C 0.4234 -0.9288 -1.1506 0
M  V30 11 C -1.1429 -1.6504 1.4948 0
M  V30 12 C -2.528 0.0388 0.4475 0
M  V30 13 O -0.5742 2.3831 0.2351 0
M  V30 14 O 0.0854 1.7712 -1.8869 0
M  V30 15 C -0.7185 -1.2813 -2.1142 0
M  V30 16 C -2.2775 -2.2086 2.0893 0
M  V30 17 C -3.6588 -0.5258 1.0451 0
M  V30 18 C -0.085 3.074 -2.4309 0
M  V30 19 C -3.533 -1.6424 1.8711 0
M  V30 20 H 2.6824 0.6609 -0.4783 0
M  V30 21 H 5.091 0.8935 -0.1458 0
M  V30 22 H 5.8252 0.4621 1.4394 0
M  V30 23 H 1.2561 -0.5144 -1.7571 0
M  V30 24 H 0.7982 -1.877 -0.7056 0
M  V30 25 H -0.1855 -2.1288 1.658 0
M  V30 26 H -2.6759 0.8777 -0.2181 0
M  V30 27 H -0.3149 -1.8717 -2.9635 0
M  V30 28 H -1.4861 -1.9001 -1.6035 0
M  V30 29 H -1.1993 -0.3677 -2.5197 0
M  V30 30 H -2.1833 -3.0886 2.7122 0
M  V30 31 H -4.6373 -0.1029 0.8563 0
M  V30 32 H -1.1471 3.3868 -2.3412 0
M  V30 33 H 0.5666 3.7974 -1.8964 0
M  V30 34 H 0.1966 3.0604 -3.5037 0
M  V30 35 H -4.4113 -2.0791 2.3289 0
M  V30 END ATOM
M  V30 BEGIN BOND
M  V30 1 2 1 2
M  V30 2 1 2 3
M  V30 3 1 2 4
M  V30 4 1 3 5
M  V30 5 2 5 6
M  V30 6 1 5 7
M  V30 7 1 7 8
M  V30 8 1 7 9
M  V30 9 1 7 10
M  V30 10 2 8 11
M  V30 11 1 8 12
M  V30 12 2 9 13
M  V30 13 1 9 14
M  V30 14 1 10 15
M  V30 15 1 11 16
M  V30 16 2 12 17
M  V30 17 1 14 18
M  V30 18 2 16 19
M  V30 19 1 17 19
M  V30 20 1 3 20
M  V30 21 1 4 21
M  V30 22 1 4 22
M  V30 23 1 10 23
M  V30 24 1 10 24
M  V30 25 1 11 25
M  V30 26 1 12 26
M  V30 27 1 15 27
M  V30 28 1 15 28
M  V30 29 1 15 29
M  V30 30 1 16 30
M  V30 31 1 17 31
M  V30 32 1 18 32
M  V30 33 1 18 33
M  V30 34 1 18 34
M  V30 35 1 19 35
M  V30 END BOND
M  V30 BEGIN COLLECTION
M  V30 MDLV30/STEABS ATOMS=(1 7)
M  V30 END COLLECTION
M  V30 END CTAB
M  END
>  <Structure No>
7082

>  <LogS>
-2.75

>  <MMFF94 Energy>
-48.785

$$$$
Compound 7083
Actelion Java MolfileCreator 2.0

  0  0  0  0  0  0              0 V3000
M  V30 BEGIN CTAB
M  V30 COUNTS 36 36 0 0 0
M  V30 BEGIN ATOM
M  V30 1 O 1.5029 -0.8699 -0.2371 0
M  V30 2 C 1.4747 0.13 -1.0069 0
M  V30 3 O 0.2571 0.6941 -1.4049 0
M  V30 4 O 2.6614 0.6561 -1.5276 0
M  V30 5 C -0.9787 0.4829 -0.7753 0
M  V30 6 C 3.9595 0.1822 -1.167 0 CFG=2
M  V30 7 C -2.1446 0.591 -1.5412 0
M  V30 8 C -1.0858 0.2144 0.6013 0
M  V30 9 C 4.3349 0.6921 0.2368 0
M  V30 10 C 4.9641 0.6657 -2.2135 0
M  V30 11 C -3.3999 0.3964 -0.9574 0
M  V30 12 C -2.3408 0.0217 1.1863 0
M  V30 13 O 5.6131 0.219 0.6219 0
M  V30 14 C -3.5068 0.0875 0.41 0
M  V30 15 C 5.4918 -0.9527 1.398 0
M  V30 16 N -4.786 -0.0929 1.042 0
M  V30 17 C -5.9286 -0.6763 0.397 0
M  V30 18 O -5.8056 -1.2931 -0.6953 0
M  V30 19 C -7.2614 -0.6401 1.0708 0
M  V30 20 H 3.9621 -0.9298 -1.1786 0
M  V30 21 H -2.0772 0.8279 -2.5954 0
M  V30 22 H -0.2081 0.1846 1.2322 0
M  V30 23 H 4.3725 1.8024 0.2141 0
M  V30 24 H 3.5341 0.4353 0.97 0
M  V30 25 H 5.0015 1.776 -2.2335 0
M  V30 26 H 5.978 0.27 -1.9923 0
M  V30 27 H 4.6607 0.3027 -3.2183 0
M  V30 28 H -4.2834 0.5145 -1.5701 0
M  V30 29 H -2.4055 -0.1813 2.248 0
M  V30 30 H 5.0158 -0.7286 2.378 0
M  V30 31 H 4.9214 -1.7429 0.862 0
M  V30 32 H 6.5075 -1.35 1.6001 0
M  V30 33 H -4.8693 0.1383 2.0581 0
M  V30 34 H -7.3145 -1.4497 1.828 0
M  V30 35 H -8.0743 -0.7818 0.3273 0
M  V30 36 H -7.4054 0.3397 1.5723 0
M  V30 END ATOM
M  V30 BEGIN BOND
M  V30 1 2 1 2
M  V30 2 1 2 3
M  V30 3 1 2 4
M  V30 4 1 3 5
M  V30 5 1 4 6
M  V30 6 2 5 7
M  V30 7 1 5 8
M  V30 8 1 6 9
M  V30 9 1 6 10
M  V30 10 1 7 11
M  V30 11 2 8 12
M  V30 12 1 9 13
M  V30 13 2 11 14
M  V30 14 1 13 15
M  V30 15 1 14 16
M  V30 16 1 16 17
M  V30 17 2 17 18
M  V30 18 1 17 19
M  V30 19 1 12 14
M  V30 20 1 6 20
M  V30 21 1 7 21
M  V30 22 1 8 22
M  V30 23 1 9 23
M  V30 24 1 9 24
M  V30 25 1 10 25
M  V30 26 1 10 26
M  V30 27 1 10 27
M  V30 28 1 11 28
M  V30 29 1 12 29
M  V30 30 1 15 30
M  V30 31 1 15 31
M  V30 32 1 15 32
M  V30 33 1 16 33
M  V30 34 1 19 34
M  V30 35 1 19 35
M  V30 36 1 19 36
M  V30 END BOND
M  V30 BEGIN COLLECTION
M  V30 MDLV30/STEABS ATOMS=(1 6)
M  V30 END COLLECTION
M  V30 END CTAB
M  END
>  <Structure No>
7083

>  <LogS>
-2.48

>  <MMFF94 Energy>
11.169

$$$$
Compound 7084
Actelion Java MolfileCreator 2.0

  0  0  0  0  0  0              0 V3000
M  V30 BEGIN CTAB
M  V30 COUNTS 41 41 0 0 0
M  V30 BEGIN ATOM
M  V30 1 O -0.7102 -0.868 1.1839 0
M  V30 2 C -0.473 -1.8189 0.3886 0
M  V30 3 O 0.6388 -1.7821 -0.4611 0
M  V30 4 O -1.3482 -2.9068 0.3017 0
M  V30 5 C 1.7347 -0.9161 -0.3282 0
M  V30 6 C -2.5589 -3.0161 1.0515 0
M  V30 7 C 2.4324 -0.5423 -1.4819 0
M  V30 8 C 2.174 -0.4437 0.922 0
M  V30 9 C -3.7591 -2.5135 0.2413 0
M  V30 10 C 3.5363 0.3109 -1.399 0
M  V30 11 C 3.2799 0.408 1.0061 0
M  V30 12 C -3.7148 -0.9983 0.0043 0
M  V30 13 C 3.9796 0.7819 -0.1548 0
M  V30 14 C -4.9838 -0.5162 -0.7139 0
M  V30 15 N 5.1047 1.6761 -0.0996 0
M  V30 16 C -5.0274 1.0116 -0.8724 0
M  V30 17 C 6.0476 1.7202 0.9825 0
M  V30 18 C -4.0044 1.5319 -1.882 0
M  V30 19 O 6.0856 0.7978 1.841 0
M  V30 20 C 7.0613 2.8161 1.0407 0
M  V30 21 H -2.4835 -2.4843 2.0255 0
M  V30 22 H -2.724 -4.0906 1.2784 0
M  V30 23 H 2.1101 -0.9063 -2.4492 0
M  V30 24 H 1.681 -0.7462 1.8357 0
M  V30 25 H -4.6859 -2.7695 0.8003 0
M  V30 26 H -3.7889 -3.0446 -0.7352 0
M  V30 27 H 4.0552 0.5969 -2.3054 0
M  V30 28 H 3.5733 0.7855 1.9764 0
M  V30 29 H -2.8298 -0.7573 -0.6197 0
M  V30 30 H -3.6217 -0.4743 0.9811 0
M  V30 31 H -5.0612 -1.0005 -1.7122 0
M  V30 32 H -5.8726 -0.8237 -0.1202 0
M  V30 33 H 5.2975 2.2751 -0.9345 0
M  V30 34 H -4.8635 1.5034 0.1111 0
M  V30 35 H -6.0417 1.2984 -1.2258 0
M  V30 36 H -4.1682 2.6179 -2.046 0
M  V30 37 H -4.1161 1.0074 -2.8548 0
M  V30 38 H -2.971 1.3933 -1.5025 0
M  V30 39 H 7.9037 2.5767 0.359 0
M  V30 40 H 6.5992 3.776 0.728 0
M  V30 41 H 7.4496 2.9289 2.0753 0
M  V30 END ATOM
M  V30 BEGIN BOND
M  V30 1 2 1 2
M  V30 2 1 2 3
M  V30 3 1 2 4
M  V30 4 1 3 5
M  V30 5 1 4 6
M  V30 6 2 5 7
M  V30 7 1 5 8
M  V30 8 1 6 9
M  V30 9 1 7 10
M  V30 10 2 8 11
M  V30 11 1 9 12
M  V30 12 2 10 13
M  V30 13 1 12 14
M  V30 14 1 13 15
M  V30 15 1 14 16
M  V30 16 1 15 17
M  V30 17 1 16 18
M  V30 18 2 17 19
M  V30 19 1 17 20
M  V30 20 1 11 13
M  V30 21 1 6 21
M  V30 22 1 6 22
M  V30 23 1 7 23
M  V30 24 1 8 24
M  V30 25 1 9 25
M  V30 26 1 9 26
M  V30 27 1 10 27
M  V30 28 1 11 28
M  V30 29 1 12 29
M  V30 30 1 12 30
M  V30 31 1 14 31
M  V30 32 1 14 32
M  V30 33 1 15 33
M  V30 34 1 16 34
M  V30 35 1 16 35
M  V30 36 1 18 36
M  V30 37 1 18 37
M  V30 38 1 18 38
M  V30 39 1 20 39
M  V30 40 1 20 40
M  V30 41 1 20 41
M  V30 END BOND
M  V30 END CTAB
M  END
>  <Structure No>
7084

>  <LogS>
-4.32

>  <MMFF94 Energy>
-9.4162

$$$$
Compound 7085
Actelion Java MolfileCreator 2.0

  0  0  0  0  0  0              0 V3000
M  V30 BEGIN CTAB
M  V30 COUNTS 22 23 0 0 0
M  V30 BEGIN ATOM
M  V30 1 O -1.8273 -1.9069 -1.2709 0
M  V30 2 C -1.1983 -0.9688 -0.7089 0
M  V30 3 N -1.8349 -0.0715 0.1203 0
M  V30 4 C 0.1654 -0.818 -0.9087 0
M  V30 5 C -1.1131 0.9232 0.7501 0
M  V30 6 C -3.2742 -0.1967 0.3908 0
M  V30 7 C 0.8381 0.178 -0.29 0
M  V30 8 C 1.1155 -1.5107 -1.6321 0
M  V30 9 N 0.2323 1.0533 0.5447 0
M  V30 10 O -3.4989 -1.2094 1.332 0
M  V30 11 N 2.1388 0.1202 -0.6146 0
M  V30 12 N 2.3199 -0.9176 -1.4261 0
M  V30 13 C 3.2125 0.9632 -0.1038 0
M  V30 14 O 3.6203 0.4885 1.148 0
M  V30 15 H -1.6049 1.6163 1.4214 0
M  V30 16 H -3.8185 -0.4463 -0.5451 0
M  V30 17 H -3.702 0.7658 0.7547 0
M  V30 18 H 0.9551 -2.3845 -2.2491 0
M  V30 19 H -3.1524 -0.868 2.1972 0
M  V30 20 H 4.0696 0.9424 -0.8132 0
M  V30 21 H 2.8533 2.0128 -0.0143 0
M  V30 22 H 4.3436 1.097 1.4501 0
M  V30 END ATOM
M  V30 BEGIN BOND
M  V30 1 2 1 2
M  V30 2 1 2 3
M  V30 3 1 2 4
M  V30 4 1 3 5
M  V30 5 1 3 6
M  V30 6 2 4 7
M  V30 7 1 4 8
M  V30 8 2 5 9
M  V30 9 1 6 10
M  V30 10 1 7 11
M  V30 11 2 8 12
M  V30 12 1 11 13
M  V30 13 1 13 14
M  V30 14 1 7 9
M  V30 15 1 11 12
M  V30 16 1 5 15
M  V30 17 1 6 16
M  V30 18 1 6 17
M  V30 19 1 8 18
M  V30 20 1 10 19
M  V30 21 1 13 20
M  V30 22 1 13 21
M  V30 23 1 14 22
M  V30 END BOND
M  V30 END CTAB
M  END
>  <Structure No>
7085

>  <LogS>
-1.72

>  <MMFF94 Energy>
-29.412

$$$$
Compound 7086
Actelion Java MolfileCreator 2.0

  0  0  0  0  0  0              0 V3000
M  V30 BEGIN CTAB
M  V30 COUNTS 22 23 0 0 0
M  V30 BEGIN ATOM
M  V30 1 O 4.1568 -0.7185 -1.1977 0
M  V30 2 C 3.2957 0.0207 -0.6527 0
M  V30 3 N 3.6202 1.2795 -0.2389 0
M  V30 4 C 1.9934 -0.4114 -0.4516 0
M  V30 5 C 2.6922 2.0931 0.3587 0
M  V30 6 C 1.0818 0.4054 0.1381 0
M  V30 7 C 1.3273 -1.5847 -0.7228 0
M  V30 8 N 1.4089 1.659 0.5549 0
M  V30 9 N -0.1049 -0.235 0.2294 0
M  V30 10 N 0.048 -1.449 -0.2958 0
M  V30 11 C -1.3532 0.2368 0.7706 0
M  V30 12 O -1.477 1.4282 1.1593 0
M  V30 13 C -2.5497 -0.6687 0.8304 0
M  V30 14 C -3.296 -0.6639 -0.4988 0
M  V30 15 H 2.9809 3.0857 0.6788 0
M  V30 16 H 1.7319 -2.4721 -1.1907 0
M  V30 17 H 0.724 2.2923 1.0182 0
M  V30 18 H -2.2303 -1.7041 1.075 0
M  V30 19 H -3.2366 -0.3292 1.6359 0
M  V30 20 H -4.1794 -1.3333 -0.4312 0
M  V30 21 H -3.6455 0.3626 -0.7407 0
M  V30 22 H -2.6365 -1.0281 -1.315 0
M  V30 END ATOM
M  V30 BEGIN BOND
M  V30 1 2 1 2
M  V30 2 1 2 3
M  V30 3 1 2 4
M  V30 4 2 3 5
M  V30 5 2 4 6
M  V30 6 1 4 7
M  V30 7 1 5 8
M  V30 8 1 6 9
M  V30 9 2 7 10
M  V30 10 1 9 11
M  V30 11 2 11 12
M  V30 12 1 11 13
M  V30 13 1 13 14
M  V30 14 1 6 8
M  V30 15 1 9 10
M  V30 16 1 5 15
M  V30 17 1 7 16
M  V30 18 1 8 17
M  V30 19 1 13 18
M  V30 20 1 13 19
M  V30 21 1 14 20
M  V30 22 1 14 21
M  V30 23 1 14 22
M  V30 END BOND
M  V30 END CTAB
M  END
>  <Structure No>
7086

>  <LogS>
-2.81

>  <MMFF94 Energy>
41.3

$$$$
Compound 7087
Actelion Java MolfileCreator 2.0

  0  0  0  0  0  0              0 V3000
M  V30 BEGIN CTAB
M  V30 COUNTS 46 46 0 0 0
M  V30 BEGIN ATOM
M  V30 1 O 1.8925 -1.2614 1.8136 0
M  V30 2 C 2.5652 -1.047 0.7672 0
M  V30 3 O 1.9199 -0.9388 -0.4718 0
M  V30 4 C 4.0358 -0.9085 0.8457 0
M  V30 5 C 0.504 -1.0315 -0.6284 0
M  V30 6 C 4.7888 -0.6627 -0.317 0
M  V30 7 C 4.7035 -1.0179 2.0804 0
M  V30 8 C -0.1854 0.2337 -0.1851 0
M  V30 9 C 6.1791 -0.5301 -0.2447 0
M  V30 10 C 6.094 -0.8846 2.1466 0
M  V30 11 O 0.5113 1.176 0.2835 0
M  V30 12 N -1.6172 0.4038 -0.3164 0
M  V30 13 C 6.8311 -0.6409 0.9856 0
M  V30 14 C -2.53 -0.745 -0.454 0
M  V30 15 C -2.1976 1.7537 -0.2126 0
M  V30 16 C -3.1711 -1.123 0.8989 0
M  V30 17 C -1.8352 2.6185 -1.4383 0
M  V30 18 C -4.2661 -2.1761 0.69 0
M  V30 19 C -2.1294 -1.6403 1.8995 0
M  V30 20 C -2.3955 2.0139 -2.7328 0
M  V30 21 C -2.359 4.0473 -1.2519 0
M  V30 22 H 0.1253 -1.905 -0.0584 0
M  V30 23 H 0.2825 -1.1931 -1.7038 0
M  V30 24 H 4.3057 -0.5722 -1.2817 0
M  V30 25 H 4.1529 -1.2062 2.9937 0
M  V30 26 H 6.7514 -0.3411 -1.1436 0
M  V30 27 H 6.6003 -0.97 3.0996 0
M  V30 28 H 7.9072 -0.538 1.0392 0
M  V30 29 H -3.3331 -0.4762 -1.1753 0
M  V30 30 H -2.0192 -1.6243 -0.8961 0
M  V30 31 H -1.8306 2.2382 0.7187 0
M  V30 32 H -3.3058 1.6985 -0.1248 0
M  V30 33 H -3.6514 -0.2203 1.3359 0
M  V30 34 H -0.729 2.675 -1.5318 0
M  V30 35 H -5.0502 -1.7846 0.0072 0
M  V30 36 H -3.8392 -3.104 0.2517 0
M  V30 37 H -4.7495 -2.4261 1.6588 0
M  V30 38 H -2.6203 -1.8966 2.8626 0
M  V30 39 H -1.3684 -0.8601 2.1087 0
M  V30 40 H -1.6246 -2.5485 1.5072 0
M  V30 41 H -2.1426 2.6613 -3.5995 0
M  V30 42 H -1.9501 1.0134 -2.9165 0
M  V30 43 H -3.5004 1.9115 -2.6721 0
M  V30 44 H -2.0673 4.6793 -2.1178 0
M  V30 45 H -1.9233 4.4987 -0.335 0
M  V30 46 H -3.4669 4.0509 -1.1621 0
M  V30 END ATOM
M  V30 BEGIN BOND
M  V30 1 2 1 2
M  V30 2 1 2 3
M  V30 3 1 2 4
M  V30 4 1 3 5
M  V30 5 2 4 6
M  V30 6 1 4 7
M  V30 7 1 5 8
M  V30 8 1 6 9
M  V30 9 2 7 10
M  V30 10 2 8 11
M  V30 11 1 8 12
M  V30 12 2 9 13
M  V30 13 1 12 14
M  V30 14 1 12 15
M  V30 15 1 14 16
M  V30 16 1 15 17
M  V30 17 1 16 18
M  V30 18 1 16 19
M  V30 19 1 17 20
M  V30 20 1 17 21
M  V30 21 1 10 13
M  V30 22 1 5 22
M  V30 23 1 5 23
M  V30 24 1 6 24
M  V30 25 1 7 25
M  V30 26 1 9 26
M  V30 27 1 10 27
M  V30 28 1 13 28
M  V30 29 1 14 29
M  V30 30 1 14 30
M  V30 31 1 15 31
M  V30 32 1 15 32
M  V30 33 1 16 33
M  V30 34 1 17 34
M  V30 35 1 18 35
M  V30 36 1 18 36
M  V30 37 1 18 37
M  V30 38 1 19 38
M  V30 39 1 19 39
M  V30 40 1 19 40
M  V30 41 1 20 41
M  V30 42 1 20 42
M  V30 43 1 20 43
M  V30 44 1 21 44
M  V30 45 1 21 45
M  V30 46 1 21 46
M  V30 END BOND
M  V30 END CTAB
M  END
>  <Structure No>
7087

>  <LogS>
-3.56

>  <MMFF94 Energy>
45.67

$$$$
Compound 7088
Actelion Java MolfileCreator 2.0

  0  0  0  0  0  0              0 V3000
M  V30 BEGIN CTAB
M  V30 COUNTS 68 71 0 0 0
M  V30 BEGIN ATOM
M  V30 1 O -7.594 3.4684 1.2088 0
M  V30 2 C -6.5843 2.9862 0.63 0
M  V30 3 C -6.5299 1.5452 0.327 0
M  V30 4 C -5.4938 3.8969 0.1522 0
M  V30 5 C -5.4613 0.9907 -0.2716 0
M  V30 6 C -4.1653 3.1432 0.1389 0
M  V30 7 C -4.2778 1.8478 -0.703 0 CFG=1
M  V30 8 C -5.5958 -0.39 -0.8565 0
M  V30 9 C -2.9346 1.0489 -0.7683 0 CFG=2
M  V30 10 C -4.2679 -1.1408 -0.8134 0
M  V30 11 C -3.1253 -0.3265 -1.4635 0 CFG=2
M  V30 12 C -2.2103 0.8761 0.5848 0
M  V30 13 C -1.8061 -1.1606 -1.5461 0 CFG=2
M  V30 14 C -0.8435 0.2042 0.3787 0
M  V30 15 C -0.9165 -1.2089 -0.2711 0 CFG=2
M  V30 16 C -0.8747 -0.6547 -2.6546 0
M  V30 17 C 0.4853 -1.6647 -0.8544 0 CFG=1
M  V30 18 C -1.4439 -2.2145 0.7975 0
M  V30 19 C 0.5125 -1.2078 -2.3394 0
M  V30 20 O 1.6031 -1.2131 -0.0584 0
M  V30 21 C 0.6002 -3.1444 -0.8737 0
M  V30 22 C 2.2505 0.0369 -0.033 0
M  V30 23 C 0.7032 -4.3473 -0.8851 0
M  V30 24 O 2.0275 0.9286 -0.8958 0
M  V30 25 C 3.2681 0.295 1.0323 0
M  V30 26 C 4.6478 -0.2058 0.5962 0
M  V30 27 C 5.6901 0.0508 1.6918 0
M  V30 28 C 7.0828 -0.4165 1.256 0
M  V30 29 C 8.1179 -0.1491 2.3553 0
M  V30 30 C 9.5014 -0.6436 1.9418 0
M  V30 31 H -7.4023 0.9421 0.55 0
M  V30 32 H -5.7316 4.2672 -0.8692 0
M  V30 33 H -5.4075 4.772 0.8327 0
M  V30 34 H -3.3721 3.7974 -0.2817 0
M  V30 35 H -3.9169 2.9032 1.1954 0
M  V30 36 H -4.5029 2.1669 -1.7476 0
M  V30 37 H -6.3548 -0.9876 -0.303 0
M  V30 38 H -5.9335 -0.2996 -1.9126 0
M  V30 39 H -2.2614 1.6627 -1.4076 0
M  V30 40 H -4.3957 -2.1032 -1.3546 0
M  V30 41 H -4.0502 -1.3802 0.2423 0
M  V30 42 H -3.4478 -0.1241 -2.5119 0
M  V30 43 H -2.8421 0.3316 1.3154 0
M  V30 44 H -1.9898 1.8697 1.0264 0
M  V30 45 H -2.0747 -2.2048 -1.8304 0
M  V30 46 H -0.2677 0.8899 -0.2721 0
M  V30 47 H -0.3184 0.1475 1.3581 0
M  V30 48 H -1.2263 -0.9949 -3.6541 0
M  V30 49 H -0.823 0.4551 -2.6606 0
M  V30 50 H -2.2759 -1.8121 1.4063 0
M  V30 51 H -1.8023 -3.1554 0.3248 0
M  V30 52 H -0.632 -2.4625 1.5173 0
M  V30 53 H 1.2927 -0.4629 -2.579 0
M  V30 54 H 0.7129 -2.0539 -3.0409 0
M  V30 55 H 0.7936 -5.4018 -0.8974 0
M  V30 56 H 2.9536 -0.2233 1.9652 0
M  V30 57 H 3.3135 1.3872 1.2424 0
M  V30 58 H 4.5937 -1.2985 0.3856 0
M  V30 59 H 4.9542 0.3212 -0.3356 0
M  V30 60 H 5.7228 1.1374 1.9214 0
M  V30 61 H 5.3911 -0.495 2.6137 0
M  V30 62 H 7.3805 0.1253 0.3312 0
M  V30 63 H 7.0512 -1.5055 1.0318 0
M  V30 64 H 8.1734 0.943 2.5609 0
M  V30 65 H 7.815 -0.6685 3.2911 0
M  V30 66 H 10.2291 -0.4206 2.7492 0
M  V30 67 H 9.8366 -0.1337 1.0122 0
M  V30 68 H 9.4812 -1.7425 1.7715 0
M  V30 END ATOM
M  V30 BEGIN BOND
M  V30 1 2 1 2
M  V30 2 1 2 3
M  V30 3 1 2 4
M  V30 4 2 3 5
M  V30 5 1 4 6
M  V30 6 1 5 7
M  V30 7 1 5 8
M  V30 8 1 7 9
M  V30 9 1 8 10
M  V30 10 1 9 11
M  V30 11 1 9 12
M  V30 12 1 11 13
M  V30 13 1 12 14
M  V30 14 1 13 15
M  V30 15 1 13 16
M  V30 16 1 15 17
M  V30 17 1 15 18
M  V30 18 1 16 19
M  V30 19 1 17 20
M  V30 20 1 17 21
M  V30 21 1 20 22
M  V30 22 3 21 23
M  V30 23 2 22 24
M  V30 24 1 22 25
M  V30 25 1 25 26
M  V30 26 1 26 27
M  V30 27 1 27 28
M  V30 28 1 28 29
M  V30 29 1 29 30
M  V30 30 1 6 7
M  V30 31 1 10 11
M  V30 32 1 14 15
M  V30 33 1 17 19
M  V30 34 1 3 31
M  V30 35 1 4 32
M  V30 36 1 4 33
M  V30 37 1 6 34
M  V30 38 1 6 35
M  V30 39 1 7 36
M  V30 40 1 8 37
M  V30 41 1 8 38
M  V30 42 1 9 39
M  V30 43 1 10 40
M  V30 44 1 10 41
M  V30 45 1 11 42
M  V30 46 1 12 43
M  V30 47 1 12 44
M  V30 48 1 13 45
M  V30 49 1 14 46
M  V30 50 1 14 47
M  V30 51 1 16 48
M  V30 52 1 16 49
M  V30 53 1 18 50
M  V30 54 1 18 51
M  V30 55 1 18 52
M  V30 56 1 19 53
M  V30 57 1 19 54
M  V30 58 1 23 55
M  V30 59 1 25 56
M  V30 60 1 25 57
M  V30 61 1 26 58
M  V30 62 1 26 59
M  V30 63 1 27 60
M  V30 64 1 27 61
M  V30 65 1 28 62
M  V30 66 1 28 63
M  V30 67 1 29 64
M  V30 68 1 29 65
M  V30 69 1 30 66
M  V30 70 1 30 67
M  V30 71 1 30 68
M  V30 END BOND
M  V30 BEGIN COLLECTION
M  V30 MDLV30/STEABS ATOMS=(6 7 9 11 13 15 17)
M  V30 END COLLECTION
M  V30 END CTAB
M  END
>  <Structure No>
7088

>  <LogS>
-6.89

>  <MMFF94 Energy>
55.125

$$$$
Compound 7089
Actelion Java MolfileCreator 2.0

  0  0  0  0  0  0              0 V3000
M  V30 BEGIN CTAB
M  V30 COUNTS 39 40 0 0 0
M  V30 BEGIN ATOM
M  V30 1 O 6.0819 -1.3579 1.3579 0
M  V30 2 C 5.0919 -1.7943 0.7095 0
M  V30 3 C 3.8267 -1.0115 0.6779 0
M  V30 4 C 5.2337 -3.1011 -0.0117 0
M  V30 5 C 2.7012 -1.4655 -0.0354 0
M  V30 6 C 3.7364 0.2098 1.3697 0
M  V30 7 C 1.5193 -0.7184 -0.0553 0
M  V30 8 C 2.5541 0.9542 1.3491 0
M  V30 9 C 1.4355 0.5017 0.6426 0
M  V30 10 O 0.2796 1.3029 0.6626 0
M  V30 11 C -0.9871 0.9938 0.075 0 CFG=2
M  V30 12 O -1.6378 2.2257 -0.1959 0
M  V30 13 C -1.8207 0.1417 1.0573 0 CFG=2
M  V30 14 C -2.9021 2.0623 -0.8288 0 CFG=2
M  V30 15 O -1.1898 -1.0907 1.2937 0
M  V30 16 C -3.2136 -0.1196 0.4643 0 CFG=2
M  V30 17 C -3.8734 1.1961 0.0142 0 CFG=1
M  V30 18 C -2.787 1.5882 -2.2942 0
M  V30 19 O -4.0347 -0.7542 1.4119 0
M  V30 20 O -4.3618 1.9209 1.1189 0
M  V30 21 O -1.8996 2.4076 -3.0065 0
M  V30 22 H 4.4923 -3.8295 0.3783 0
M  V30 23 H 6.251 -3.5212 0.1388 0
M  V30 24 H 5.0742 -2.9504 -1.1 0
M  V30 25 H 2.7248 -2.3987 -0.5815 0
M  V30 26 H 4.5803 0.5934 1.9295 0
M  V30 27 H 0.683 -1.111 -0.6138 0
M  V30 28 H 2.5063 1.8918 1.8887 0
M  V30 29 H -0.8206 0.4489 -0.8754 0
M  V30 30 H -1.9358 0.7022 2.0156 0
M  V30 31 H -3.3571 3.076 -0.8851 0
M  V30 32 H -0.5973 -0.9702 2.0812 0
M  V30 33 H -3.1069 -0.7754 -0.4324 0
M  V30 34 H -4.7544 0.9373 -0.6135 0
M  V30 35 H -2.4836 0.5208 -2.368 0
M  V30 36 H -3.7859 1.6649 -2.7744 0
M  V30 37 H -3.7763 -1.7126 1.4238 0
M  V30 38 H -3.5862 2.2865 1.6177 0
M  V30 39 H -0.9857 2.0675 -2.8222 0
M  V30 END ATOM
M  V30 BEGIN BOND
M  V30 1 2 1 2
M  V30 2 1 2 3
M  V30 3 1 2 4
M  V30 4 2 3 5
M  V30 5 1 3 6
M  V30 6 1 5 7
M  V30 7 2 6 8
M  V30 8 2 7 9
M  V30 9 1 9 10
M  V30 10 1 10 11
M  V30 11 1 11 12
M  V30 12 1 11 13
M  V30 13 1 12 14
M  V30 14 1 13 15
M  V30 15 1 13 16
M  V30 16 1 14 17
M  V30 17 1 14 18
M  V30 18 1 16 19
M  V30 19 1 17 20
M  V30 20 1 18 21
M  V30 21 1 8 9
M  V30 22 1 16 17
M  V30 23 1 4 22
M  V30 24 1 4 23
M  V30 25 1 4 24
M  V30 26 1 5 25
M  V30 27 1 6 26
M  V30 28 1 7 27
M  V30 29 1 8 28
M  V30 30 1 11 29
M  V30 31 1 13 30
M  V30 32 1 14 31
M  V30 33 1 15 32
M  V30 34 1 16 33
M  V30 35 1 17 34
M  V30 36 1 18 35
M  V30 37 1 18 36
M  V30 38 1 19 37
M  V30 39 1 20 38
M  V30 40 1 21 39
M  V30 END BOND
M  V30 BEGIN COLLECTION
M  V30 MDLV30/STEABS ATOMS=(5 11 13 14 16 17)
M  V30 END COLLECTION
M  V30 END CTAB
M  END
>  <Structure No>
7089

>  <LogS>
-1.17

>  <MMFF94 Energy>
141.51

$$$$
Compound 7090
Actelion Java MolfileCreator 2.0

  0  0  0  0  0  0              0 V3000
M  V30 BEGIN CTAB
M  V30 COUNTS 27 28 0 0 0
M  V30 BEGIN ATOM
M  V30 1 O -1.335 2.6714 -2.9074 0
M  V30 2 C -1.3036 1.7667 -2.0321 0
M  V30 3 N -2.245 0.7794 -2.052 0
M  V30 4 N -0.3276 1.7803 -1.0661 0
M  V30 5 C -2.1907 -0.1766 -1.0977 0
M  V30 6 C -0.2643 0.8137 -0.0935 0
M  V30 7 N -2.9978 -1.2415 -0.9874 0 CHG=1
M  V30 8 C -1.2357 -0.1968 -0.1305 0
M  V30 9 N 0.7372 0.8701 0.9365 0
M  V30 10 C -2.4973 -1.92 0.0724 0
M  V30 11 N -1.4095 -1.3123 0.6139 0
M  V30 12 C 2.0949 1.3677 0.7125 0
M  V30 13 C -0.6177 -1.8209 1.7295 0
M  V30 14 C 2.8284 0.5178 -0.3283 0
M  V30 15 O 2.8625 -0.8274 0.0647 0
M  V30 16 H 0.3627 2.5629 -1.0721 0
M  V30 17 H -3.8084 -1.5016 -1.5915 0
M  V30 18 H 0.4918 0.5668 1.9032 0
M  V30 19 H -2.9092 -2.855 0.4308 0
M  V30 20 H 2.6604 1.3322 1.6691 0
M  V30 21 H 2.0687 2.4287 0.3892 0
M  V30 22 H -0.8967 -2.8727 1.9527 0
M  V30 23 H 0.4614 -1.8022 1.4711 0
M  V30 24 H -0.8102 -1.2104 2.6359 0
M  V30 25 H 3.8628 0.9058 -0.4672 0
M  V30 26 H 2.3093 0.5926 -1.3068 0
M  V30 27 H 3.5339 -0.8935 0.793 0
M  V30 END ATOM
M  V30 BEGIN BOND
M  V30 1 2 1 2
M  V30 2 1 2 3
M  V30 3 1 2 4
M  V30 4 2 3 5
M  V30 5 1 4 6
M  V30 6 1 5 7
M  V30 7 1 5 8
M  V30 8 1 6 9
M  V30 9 2 7 10
M  V30 10 1 8 11
M  V30 11 1 9 12
M  V30 12 1 11 13
M  V30 13 1 12 14
M  V30 14 1 14 15
M  V30 15 2 6 8
M  V30 16 1 10 11
M  V30 17 1 4 16
M  V30 18 1 7 17
M  V30 19 1 9 18
M  V30 20 1 10 19
M  V30 21 1 12 20
M  V30 22 1 12 21
M  V30 23 1 13 22
M  V30 24 1 13 23
M  V30 25 1 13 24
M  V30 26 1 14 25
M  V30 27 1 14 26
M  V30 28 1 15 27
M  V30 END BOND
M  V30 END CTAB
M  END
>  <Structure No>
7090

>  <LogS>
0.08

>  <MMFF94 Energy>
-27.098

$$$$
Compound 7091
Actelion Java MolfileCreator 2.0

  0  0  0  0  0  0              0 V3000
M  V30 BEGIN CTAB
M  V30 COUNTS 31 31 0 0 0
M  V30 BEGIN ATOM
M  V30 1 Cl 5.4777 1.2244 1.1427 0
M  V30 2 C 3.7152 1.3288 0.8473 0
M  V30 3 C 3.0872 0.0038 0.3342 0
M  V30 4 C 1.5954 0.1946 0.111 0
M  V30 5 C 3.2825 -1.1136 1.3779 0
M  V30 6 C 3.7478 -0.406 -0.9993 0
M  V30 7 S 0.5678 -0.9209 -0.6355 0
M  V30 8 N 0.8865 1.2551 0.5681 0
M  V30 9 C -0.7752 0.0611 -0.3554 0
M  V30 10 N -0.4182 1.1838 0.3085 0
M  V30 11 N -2.1352 -0.2558 -0.7185 0
M  V30 12 C -3.2088 0.6437 -0.3751 0
M  V30 13 C -2.441 -1.5456 -1.3446 0
M  V30 14 O -3.0091 1.8896 -0.3799 0
M  V30 15 N -4.5057 0.1358 -0.0274 0
M  V30 16 C -5.6322 1.0245 0.2294 0
M  V30 17 H 3.5427 2.1412 0.1084 0
M  V30 18 H 3.2369 1.6336 1.8035 0
M  V30 19 H 2.8248 -0.824 2.3486 0
M  V30 20 H 4.3603 -1.3216 1.5454 0
M  V30 21 H 2.8068 -2.0585 1.0368 0
M  V30 22 H 4.838 -0.5728 -0.8733 0
M  V30 23 H 3.3132 -1.353 -1.3848 0
M  V30 24 H 3.5991 0.3853 -1.7656 0
M  V30 25 H -3.409 -1.502 -1.8878 0
M  V30 26 H -2.4895 -2.3364 -0.567 0
M  V30 27 H -1.6654 -1.81 -2.0933 0
M  V30 28 H -4.6509 -0.8927 0.08 0
M  V30 29 H -5.3928 1.7025 1.0756 0
M  V30 30 H -5.8516 1.6253 -0.678 0
M  V30 31 H -6.5317 0.4281 0.4913 0
M  V30 END ATOM
M  V30 BEGIN BOND
M  V30 1 1 1 2
M  V30 2 1 2 3
M  V30 3 1 3 4
M  V30 4 1 3 5
M  V30 5 1 3 6
M  V30 6 1 4 7
M  V30 7 2 4 8
M  V30 8 1 7 9
M  V30 9 1 8 10
M  V30 10 1 9 11
M  V30 11 1 11 12
M  V30 12 1 11 13
M  V30 13 2 12 14
M  V30 14 1 12 15
M  V30 15 1 15 16
M  V30 16 2 9 10
M  V30 17 1 2 17
M  V30 18 1 2 18
M  V30 19 1 5 19
M  V30 20 1 5 20
M  V30 21 1 5 21
M  V30 22 1 6 22
M  V30 23 1 6 23
M  V30 24 1 6 24
M  V30 25 1 13 25
M  V30 26 1 13 26
M  V30 27 1 13 27
M  V30 28 1 15 28
M  V30 29 1 16 29
M  V30 30 1 16 30
M  V30 31 1 16 31
M  V30 END BOND
M  V30 END CTAB
M  END
>  <Structure No>
7091

>  <LogS>
-2.47

>  <MMFF94 Energy>
-69.322

$$$$
Compound 7092
Actelion Java MolfileCreator 2.0

  0  0  0  0  0  0              0 V3000
M  V30 BEGIN CTAB
M  V30 COUNTS 42 42 0 0 0
M  V30 BEGIN ATOM
M  V30 1 O 1.7375 1.5795 0.7105 0
M  V30 2 C 2.4375 0.5727 0.4109 0
M  V30 3 O 1.8802 -0.7114 0.4693 0
M  V30 4 C 3.8472 0.7454 -0.0029 0
M  V30 5 C 0.5224 -0.9582 0.833 0
M  V30 6 C 4.4268 2.027 -0.0638 0
M  V30 7 C 4.6292 -0.3732 -0.3437 0
M  V30 8 C -0.4214 -0.5571 -0.2735 0
M  V30 9 C 5.7598 2.1824 -0.4571 0
M  V30 10 C 5.9617 -0.2119 -0.7363 0
M  V30 11 O 0.0488 -0.3693 -1.4295 0
M  V30 12 N -1.8505 -0.4611 -0.0601 0
M  V30 13 C 6.5265 1.0642 -0.793 0
M  V30 14 C -2.7533 -0.3672 -1.219 0
M  V30 15 C -2.4251 -0.4163 1.2941 0
M  V30 16 C -2.8968 -1.7322 -1.9075 0 CFG=1
M  V30 17 C -2.3206 0.9997 1.8811 0 CFG=1
M  V30 18 O -3.4389 -2.6558 -0.9994 0
M  V30 19 C -3.8048 -1.6217 -3.1348 0
M  V30 20 O -3.1053 1.8781 1.117 0
M  V30 21 C -2.799 1.0138 3.335 0
M  V30 22 H 0.2964 -0.4207 1.7766 0
M  V30 23 H 0.3993 -2.0453 1.0186 0
M  V30 24 H 3.8518 2.9084 0.1916 0
M  V30 25 H 4.2131 -1.3724 -0.3079 0
M  V30 26 H 6.1985 3.1708 -0.5015 0
M  V30 27 H 6.5567 -1.0776 -0.997 0
M  V30 28 H 7.5579 1.1867 -1.097 0
M  V30 29 H -3.759 -0.0102 -0.9034 0
M  V30 30 H -2.3622 0.3875 -1.9361 0
M  V30 31 H -3.495 -0.7216 1.269 0
M  V30 32 H -1.918 -1.1565 1.949 0
M  V30 33 H -1.8901 -2.0734 -2.2428 0
M  V30 34 H -1.256 1.3266 1.8562 0
M  V30 35 H -3.2425 -3.5605 -1.3584 0
M  V30 36 H -3.3834 -0.894 -3.861 0
M  V30 37 H -3.8839 -2.6096 -3.6359 0
M  V30 38 H -4.8229 -1.2906 -2.8369 0
M  V30 39 H -2.7933 2.7976 1.325 0
M  V30 40 H -2.1773 0.3295 3.951 0
M  V30 41 H -2.7081 2.039 3.7526 0
M  V30 42 H -3.8619 0.6959 3.3974 0
M  V30 END ATOM
M  V30 BEGIN BOND
M  V30 1 2 1 2
M  V30 2 1 2 3
M  V30 3 1 2 4
M  V30 4 1 3 5
M  V30 5 2 4 6
M  V30 6 1 4 7
M  V30 7 1 5 8
M  V30 8 1 6 9
M  V30 9 2 7 10
M  V30 10 2 8 11
M  V30 11 1 8 12
M  V30 12 2 9 13
M  V30 13 1 12 14
M  V30 14 1 12 15
M  V30 15 1 14 16
M  V30 16 1 15 17
M  V30 17 1 16 18
M  V30 18 1 16 19
M  V30 19 1 17 20
M  V30 20 1 17 21
M  V30 21 1 10 13
M  V30 22 1 5 22
M  V30 23 1 5 23
M  V30 24 1 6 24
M  V30 25 1 7 25
M  V30 26 1 9 26
M  V30 27 1 10 27
M  V30 28 1 13 28
M  V30 29 1 14 29
M  V30 30 1 14 30
M  V30 31 1 15 31
M  V30 32 1 15 32
M  V30 33 1 16 33
M  V30 34 1 17 34
M  V30 35 1 18 35
M  V30 36 1 19 36
M  V30 37 1 19 37
M  V30 38 1 19 38
M  V30 39 1 20 39
M  V30 40 1 21 40
M  V30 41 1 21 41
M  V30 42 1 21 42
M  V30 END BOND
M  V30 BEGIN COLLECTION
M  V30 MDLV30/STEABS ATOMS=(2 16 17)
M  V30 END COLLECTION
M  V30 END CTAB
M  END
>  <Structure No>
7092

>  <LogS>
-1.18

>  <MMFF94 Energy>
78.413

$$$$
Compound 7093
Actelion Java MolfileCreator 2.0

  0  0  0  0  0  0              0 V3000
M  V30 BEGIN CTAB
M  V30 COUNTS 49 49 0 0 0
M  V30 BEGIN ATOM
M  V30 1 O 1.4965 2.1271 2.2848 0
M  V30 2 C 0.7927 1.1492 1.9122 0
M  V30 3 O 1.3123 0.1663 1.0599 0
M  V30 4 C -0.6531 1.091 2.2969 0
M  V30 5 C 2.6727 -0.0365 0.7862 0
M  V30 6 C -1.5232 1.9779 1.3923 0
M  V30 7 C 3.0272 -0.5934 -0.4472 0
M  V30 8 C 3.6812 0.2567 1.7216 0
M  V30 9 C -1.4995 1.5856 -0.0991 0
M  V30 10 C 4.3693 -0.8207 -0.7653 0
M  V30 11 C 5.0236 0.0273 1.4054 0
M  V30 12 C -1.9591 0.1458 -0.4061 0
M  V30 13 C 5.3821 -0.4908 0.1524 0
M  V30 14 C -3.3604 -0.22 0.1159 0
M  V30 15 N 6.769 -0.7372 -0.1379 0
M  V30 16 C -4.4735 0.6347 -0.5137 0
M  V30 17 C 7.3496 -0.6299 -1.447 0
M  V30 18 C -5.8753 0.2216 -0.0366 0
M  V30 19 O 6.7194 -0.0743 -2.387 0
M  V30 20 C 8.7511 -1.0927 -1.678 0
M  V30 21 C -6.3565 -1.0893 -0.6761 0
M  V30 22 C -7.7973 -1.3976 -0.278 0
M  V30 23 H -0.7585 1.4414 3.3465 0
M  V30 24 H -1.0083 0.0397 2.2715 0
M  V30 25 H -2.5684 1.9644 1.7668 0
M  V30 26 H -1.1737 3.0299 1.4821 0
M  V30 27 H 2.257 -0.8513 -1.1633 0
M  V30 28 H 3.4357 0.6309 2.7059 0
M  V30 29 H -0.468 1.7148 -0.4918 0
M  V30 30 H -2.1315 2.3021 -0.665 0
M  V30 31 H 4.6092 -1.2785 -1.7155 0
M  V30 32 H 5.7876 0.2557 2.1381 0
M  V30 33 H -1.94 0.0011 -1.5084 0
M  V30 34 H -1.2232 -0.572 0.0138 0
M  V30 35 H -3.5325 -1.2878 -0.1331 0
M  V30 36 H -3.3933 -0.1364 1.2226 0
M  V30 37 H 7.4135 -0.9243 0.6635 0
M  V30 38 H -4.4188 0.5779 -1.623 0
M  V30 39 H -4.3234 1.6955 -0.2213 0
M  V30 40 H -5.8858 0.1302 1.0719 0
M  V30 41 H -6.5841 1.0332 -0.313 0
M  V30 42 H 8.9291 -2.0439 -1.1338 0
M  V30 43 H 9.46 -0.3222 -1.3099 0
M  V30 44 H 8.9285 -1.264 -2.7611 0
M  V30 45 H -5.7157 -1.9345 -0.3489 0
M  V30 46 H -6.3005 -1.0115 -1.7838 0
M  V30 47 H -8.1165 -2.3522 -0.7469 0
M  V30 48 H -7.8792 -1.4988 0.8253 0
M  V30 49 H -8.4757 -0.5886 -0.6237 0
M  V30 END ATOM
M  V30 BEGIN BOND
M  V30 1 2 1 2
M  V30 2 1 2 3
M  V30 3 1 2 4
M  V30 4 1 3 5
M  V30 5 1 4 6
M  V30 6 2 5 7
M  V30 7 1 5 8
M  V30 8 1 6 9
M  V30 9 1 7 10
M  V30 10 2 8 11
M  V30 11 1 9 12
M  V30 12 2 10 13
M  V30 13 1 12 14
M  V30 14 1 13 15
M  V30 15 1 14 16
M  V30 16 1 15 17
M  V30 17 1 16 18
M  V30 18 2 17 19
M  V30 19 1 17 20
M  V30 20 1 18 21
M  V30 21 1 21 22
M  V30 22 1 11 13
M  V30 23 1 4 23
M  V30 24 1 4 24
M  V30 25 1 6 25
M  V30 26 1 6 26
M  V30 27 1 7 27
M  V30 28 1 8 28
M  V30 29 1 9 29
M  V30 30 1 9 30
M  V30 31 1 10 31
M  V30 32 1 11 32
M  V30 33 1 12 33
M  V30 34 1 12 34
M  V30 35 1 14 35
M  V30 36 1 14 36
M  V30 37 1 15 37
M  V30 38 1 16 38
M  V30 39 1 16 39
M  V30 40 1 18 40
M  V30 41 1 18 41
M  V30 42 1 20 42
M  V30 43 1 20 43
M  V30 44 1 20 44
M  V30 45 1 21 45
M  V30 46 1 21 46
M  V30 47 1 22 47
M  V30 48 1 22 48
M  V30 49 1 22 49
M  V30 END BOND
M  V30 END CTAB
M  END
>  <Structure No>
7093

>  <LogS>
-4.53

>  <MMFF94 Energy>
4.8708

$$$$
Compound 7094
Actelion Java MolfileCreator 2.0

  0  0  0  0  0  0              0 V3000
M  V30 BEGIN CTAB
M  V30 COUNTS 29 30 0 0 0
M  V30 BEGIN ATOM
M  V30 1 S -3.8273 3.2566 -0.8134 0
M  V30 2 C -2.617 2.1795 -0.5791 0
M  V30 3 N -2.3396 1.69 0.7303 0
M  V30 4 N -1.7911 1.7836 -1.6716 0
M  V30 5 C -1.2873 0.7478 0.9544 0
M  V30 6 C -0.7487 0.8187 -1.4981 0
M  V30 7 O -0.9697 0.4653 2.1426 0
M  V30 8 C -0.6022 0.0256 -0.2057 0
M  V30 9 O 0.0081 0.5634 -2.4749 0
M  V30 10 C 0.9091 -0.114 0.0789 0
M  V30 11 C -1.3462 -1.329 -0.423 0
M  V30 12 C 1.6215 0.9867 0.6095 0
M  V30 13 C 1.6534 -1.2538 -0.3082 0
M  V30 14 C -1.3269 -2.2791 0.7824 0
M  V30 15 C 3.0012 0.9185 0.8198 0
M  V30 16 C 3.0337 -1.315 -0.0938 0
M  V30 17 C 3.7053 -0.2343 0.4764 0
M  V30 18 H -2.8795 2.0568 1.5468 0
M  V30 19 H -1.9334 2.217 -2.6121 0
M  V30 20 H -2.4132 -1.1222 -0.6654 0
M  V30 21 H -0.9409 -1.8595 -1.311 0
M  V30 22 H 1.1094 1.9085 0.8559 0
M  V30 23 H 1.1865 -2.1046 -0.7797 0
M  V30 24 H -0.3011 -2.4235 1.1764 0
M  V30 25 H -1.9755 -1.8904 1.5949 0
M  V30 26 H -1.7257 -3.269 0.4754 0
M  V30 27 H 3.5264 1.7665 1.2402 0
M  V30 28 H 3.5857 -2.2008 -0.3812 0
M  V30 29 H 4.7746 -0.2843 0.6368 0
M  V30 END ATOM
M  V30 BEGIN BOND
M  V30 1 2 1 2
M  V30 2 1 2 3
M  V30 3 1 2 4
M  V30 4 1 3 5
M  V30 5 1 4 6
M  V30 6 2 5 7
M  V30 7 1 5 8
M  V30 8 2 6 9
M  V30 9 1 8 10
M  V30 10 1 8 11
M  V30 11 2 10 12
M  V30 12 1 10 13
M  V30 13 1 11 14
M  V30 14 1 12 15
M  V30 15 2 13 16
M  V30 16 2 15 17
M  V30 17 1 6 8
M  V30 18 1 16 17
M  V30 19 1 3 18
M  V30 20 1 4 19
M  V30 21 1 11 20
M  V30 22 1 11 21
M  V30 23 1 12 22
M  V30 24 1 13 23
M  V30 25 1 14 24
M  V30 26 1 14 25
M  V30 27 1 14 26
M  V30 28 1 15 27
M  V30 29 1 16 28
M  V30 30 1 17 29
M  V30 END BOND
M  V30 END CTAB
M  END
>  <Structure No>
7094

>  <LogS>
-3.58

>  <MMFF94 Energy>
-45.53

$$$$
Compound 7095
Actelion Java MolfileCreator 2.0

  0  0  0  0  0  0              0 V3000
M  V30 BEGIN CTAB
M  V30 COUNTS 24 25 0 0 0
M  V30 BEGIN ATOM
M  V30 1 S 6.4902 0.6475 0.1618 0
M  V30 2 C 5.2744 -0.3803 -0.0859 0
M  V30 3 N 4.3134 -1.1926 -0.2817 0
M  V30 4 C 2.9269 -0.8245 -0.212 0
M  V30 5 C 2.5117 0.488 0.0845 0
M  V30 6 C 1.9595 -1.8078 -0.4477 0
M  V30 7 C 1.1508 0.8023 0.1414 0
M  V30 8 C 0.5985 -1.4948 -0.39 0
M  V30 9 C 0.1784 -0.1856 -0.0949 0
M  V30 10 C -1.2679 0.1479 -0.0339 0
M  V30 11 C -1.7464 1.3594 -0.5689 0
M  V30 12 C -2.1836 -0.7416 0.5598 0
M  V30 13 C -3.1084 1.6705 -0.5105 0
M  V30 14 C -3.5443 -0.4247 0.6162 0
M  V30 15 C -4.0065 0.7797 0.0814 0
M  V30 16 H 3.2353 1.27 0.2755 0
M  V30 17 H 2.2631 -2.8208 -0.6806 0
M  V30 18 H 0.8589 1.8154 0.3884 0
M  V30 19 H -0.1252 -2.2739 -0.594 0
M  V30 20 H -1.071 2.0571 -1.0478 0
M  V30 21 H -1.8455 -1.6732 0.996 0
M  V30 22 H -3.4683 2.6022 -0.9281 0
M  V30 23 H -4.2407 -1.1126 1.0782 0
M  V30 24 H -5.0602 1.0229 0.1258 0
M  V30 END ATOM
M  V30 BEGIN BOND
M  V30 1 2 1 2
M  V30 2 2 2 3
M  V30 3 1 3 4
M  V30 4 2 4 5
M  V30 5 1 4 6
M  V30 6 1 5 7
M  V30 7 2 6 8
M  V30 8 2 7 9
M  V30 9 1 9 10
M  V30 10 2 10 11
M  V30 11 1 10 12
M  V30 12 1 11 13
M  V30 13 2 12 14
M  V30 14 2 13 15
M  V30 15 1 8 9
M  V30 16 1 14 15
M  V30 17 1 5 16
M  V30 18 1 6 17
M  V30 19 1 7 18
M  V30 20 1 8 19
M  V30 21 1 11 20
M  V30 22 1 12 21
M  V30 23 1 13 22
M  V30 24 1 14 23
M  V30 25 1 15 24
M  V30 END BOND
M  V30 END CTAB
M  END
>  <Structure No>
7095

>  <LogS>
-4.85

>  <MMFF94 Energy>
34.113

$$$$
Compound 7096
Actelion Java MolfileCreator 2.0

  0  0  0  0  0  0              0 V3000
M  V30 BEGIN CTAB
M  V30 COUNTS 19 19 0 0 0
M  V30 BEGIN ATOM
M  V30 1 S 2.2918 -1.103 0.2544 0
M  V30 2 O 2.2199 -2.5489 -0.1502 0
M  V30 3 O 2.7922 -1.0174 1.6687 0
M  V30 4 O 3.363 -0.3232 -0.7789 0 CHG=-1
M  V30 5 C 0.6895 -0.3539 0.1402 0
M  V30 6 C 0.5014 1.0555 0.1251 0
M  V30 7 C -0.4268 -1.198 0.0102 0
M  V30 8 C 1.6061 2.0271 0.3101 0
M  V30 9 C -0.795 1.567 -0.0646 0
M  V30 10 C -1.7121 -0.671 -0.1593 0
M  V30 11 O 2.596 1.7557 1.038 0
M  V30 12 O 1.5306 3.2846 -0.2776 0 CHG=-1
M  V30 13 C -1.8894 0.7136 -0.2035 0
M  V30 14 N -2.8367 -1.5444 -0.2944 0
M  V30 15 H -0.3005 -2.2728 0.0311 0
M  V30 16 H -0.9683 2.6362 -0.0844 0
M  V30 17 H -2.8785 1.1334 -0.3384 0
M  V30 18 H -3.7994 -1.1606 -0.424 0
M  V30 19 H -2.7155 -2.5814 -0.2653 0
M  V30 END ATOM
M  V30 BEGIN BOND
M  V30 1 2 1 2
M  V30 2 2 1 3
M  V30 3 1 1 4
M  V30 4 1 1 5
M  V30 5 2 5 6
M  V30 6 1 5 7
M  V30 7 1 6 8
M  V30 8 1 6 9
M  V30 9 2 7 10
M  V30 10 2 8 11
M  V30 11 1 8 12
M  V30 12 2 9 13
M  V30 13 1 10 14
M  V30 14 1 10 13
M  V30 15 1 7 15
M  V30 16 1 9 16
M  V30 17 1 13 17
M  V30 18 1 14 18
M  V30 19 1 14 19
M  V30 END BOND
M  V30 END CTAB
M  END
>  <Structure No>
7096

>  <LogS>
-1.86

>  <MMFF94 Energy>
102.26

$$$$
Compound 7097
Actelion Java MolfileCreator 2.0

  0  0  0  0  0  0              0 V3000
M  V30 BEGIN CTAB
M  V30 COUNTS 41 42 0 0 0
M  V30 BEGIN ATOM
M  V30 1 O 0.9548 1.1937 1.5122 0
M  V30 2 C 0.5498 0.5325 0.5162 0
M  V30 3 O 1.4395 -0.2442 -0.2342 0
M  V30 4 C -0.9054 0.5617 0.1328 0 CFG=2
M  V30 5 C 2.8426 -0.3052 0.0212 0
M  V30 6 N -1.3395 1.9305 -0.1578 0
M  V30 7 C -1.7684 -0.058 1.2456 0
M  V30 8 C 3.4242 -1.5275 -0.7037 0
M  V30 9 C 3.5277 0.9843 -0.4675 0
M  V30 10 C -3.2105 -0.1722 0.8214 0
M  V30 11 C 4.9446 -1.6091 -0.5195 0
M  V30 12 C 5.049 0.9049 -0.2873 0
M  V30 13 C -4.1347 0.8273 1.1665 0
M  V30 14 C -3.6314 -1.257 0.0376 0
M  V30 15 C 5.6255 -0.3231 -1.0021 0
M  V30 16 C -5.4671 0.7388 0.747 0
M  V30 17 C -4.961 -1.3494 -0.3814 0
M  V30 18 O -6.36 1.7468 1.1098 0
M  V30 19 C -5.8841 -0.355 -0.0303 0
M  V30 20 O -7.2095 -0.449 -0.4522 0
M  V30 21 H -1.0322 -0.0491 -0.7891 0
M  V30 22 H 3.0145 -0.4293 1.1144 0
M  V30 23 H -1.1742 2.5376 0.6784 0
M  V30 24 H -0.7561 2.3085 -0.94 0
M  V30 25 H -1.6895 0.5509 2.1734 0
M  V30 26 H -1.382 -1.0721 1.4925 0
M  V30 27 H 2.9587 -2.4515 -0.2977 0
M  V30 28 H 3.1839 -1.4722 -1.7882 0
M  V30 29 H 3.2887 1.1532 -1.5407 0
M  V30 30 H 3.1449 1.8544 0.1071 0
M  V30 31 H 5.1828 -1.7785 0.5535 0
M  V30 32 H 5.3389 -2.4725 -1.0978 0
M  V30 33 H 5.5168 1.8239 -0.7029 0
M  V30 34 H 5.2941 0.8556 0.797 0
M  V30 35 H -3.8201 1.6778 1.7589 0
M  V30 36 H -2.929 -2.0296 -0.2491 0
M  V30 37 H 6.7163 -0.3873 -0.7999 0
M  V30 38 H 5.4862 -0.2158 -2.1002 0
M  V30 39 H -5.2726 -2.1937 -0.9827 0
M  V30 40 H -7.3334 1.7306 0.8298 0
M  V30 41 H -7.5335 -1.2267 -1.0148 0
M  V30 END ATOM
M  V30 BEGIN BOND
M  V30 1 2 1 2
M  V30 2 1 2 3
M  V30 3 1 2 4
M  V30 4 1 3 5
M  V30 5 1 4 6
M  V30 6 1 4 7
M  V30 7 1 5 8
M  V30 8 1 5 9
M  V30 9 1 7 10
M  V30 10 1 8 11
M  V30 11 1 9 12
M  V30 12 2 10 13
M  V30 13 1 10 14
M  V30 14 1 11 15
M  V30 15 1 13 16
M  V30 16 2 14 17
M  V30 17 1 16 18
M  V30 18 2 16 19
M  V30 19 1 19 20
M  V30 20 1 12 15
M  V30 21 1 17 19
M  V30 22 1 4 21
M  V30 23 1 5 22
M  V30 24 1 6 23
M  V30 25 1 6 24
M  V30 26 1 7 25
M  V30 27 1 7 26
M  V30 28 1 8 27
M  V30 29 1 8 28
M  V30 30 1 9 29
M  V30 31 1 9 30
M  V30 32 1 11 31
M  V30 33 1 11 32
M  V30 34 1 12 33
M  V30 35 1 12 34
M  V30 36 1 13 35
M  V30 37 1 14 36
M  V30 38 1 15 37
M  V30 39 1 15 38
M  V30 40 1 17 39
M  V30 41 1 18 40
M  V30 42 1 20 41
M  V30 END BOND
M  V30 BEGIN COLLECTION
M  V30 MDLV30/STEABS ATOMS=(1 4)
M  V30 END COLLECTION
M  V30 END CTAB
M  END
>  <Structure No>
7097

>  <LogS>
-1.27

>  <MMFF94 Energy>
62.553

$$$$
Compound 7098
Actelion Java MolfileCreator 2.0

  0  0  0  0  0  0              0 V3000
M  V30 BEGIN CTAB
M  V30 COUNTS 32 35 0 0 0
M  V30 BEGIN ATOM
M  V30 1 C 0.7282 -0.0808 -0.1617 0
M  V30 2 C -0.6791 0.022 -0.0143 0
M  V30 3 C 1.5209 1.0894 -0.1558 0
M  V30 4 C 1.3271 -1.3536 -0.3005 0
M  V30 5 C -1.2767 1.2941 0.1371 0
M  V30 6 C -1.4707 -1.149 -0.0076 0
M  V30 7 C 0.9057 2.3427 -0.0415 0
M  V30 8 C 3.0154 1.0139 -0.355 0
M  V30 9 C 0.5215 -2.4992 -0.3284 0
M  V30 10 C 2.8166 -1.491 -0.5034 0
M  V30 11 C -0.4775 2.4439 0.1033 0
M  V30 12 C -2.7753 1.4375 0.2513 0
M  V30 13 C -0.8617 -2.398 -0.1836 0
M  V30 14 C -2.9741 -1.0674 0.1029 0
M  V30 15 C 3.5718 -0.3241 0.1377 0
M  V30 16 C -3.4051 0.1861 0.8682 0
M  V30 17 H 1.5003 3.2475 -0.0679 0
M  V30 18 H 3.5202 1.8347 0.1997 0
M  V30 19 H 3.2407 1.1357 -1.4366 0
M  V30 20 H 0.9667 -3.4768 -0.4664 0
M  V30 21 H 3.1809 -2.4402 -0.0534 0
M  V30 22 H 3.0301 -1.5189 -1.5937 0
M  V30 23 H -0.9284 3.4253 0.1863 0
M  V30 24 H -3.0316 2.314 0.8858 0
M  V30 25 H -3.1989 1.6069 -0.7621 0
M  V30 26 H -1.462 -3.2992 -0.2121 0
M  V30 27 H -3.3707 -1.961 0.6324 0
M  V30 28 H -3.4095 -1.0479 -0.9195 0
M  V30 29 H 3.4745 -0.3819 1.2445 0
M  V30 30 H 4.6508 -0.3945 -0.1182 0
M  V30 31 H -4.5125 0.2757 0.8412 0
M  V30 32 H -3.0912 0.0983 1.932 0
M  V30 END ATOM
M  V30 BEGIN BOND
M  V30 1 1 1 2
M  V30 2 1 1 3
M  V30 3 2 1 4
M  V30 4 1 2 5
M  V30 5 2 2 6
M  V30 6 2 3 7
M  V30 7 1 3 8
M  V30 8 1 4 9
M  V30 9 1 4 10
M  V30 10 2 5 11
M  V30 11 1 5 12
M  V30 12 1 6 13
M  V30 13 1 6 14
M  V30 14 1 8 15
M  V30 15 1 12 16
M  V30 16 1 7 11
M  V30 17 2 9 13
M  V30 18 1 10 15
M  V30 19 1 14 16
M  V30 20 1 7 17
M  V30 21 1 8 18
M  V30 22 1 8 19
M  V30 23 1 9 20
M  V30 24 1 10 21
M  V30 25 1 10 22
M  V30 26 1 11 23
M  V30 27 1 12 24
M  V30 28 1 12 25
M  V30 29 1 13 26
M  V30 30 1 14 27
M  V30 31 1 14 28
M  V30 32 1 15 29
M  V30 33 1 15 30
M  V30 34 1 16 31
M  V30 35 1 16 32
M  V30 END BOND
M  V30 END CTAB
M  END
>  <Structure No>
7098

>  <LogS>
-5.96

>  <MMFF94 Energy>
35.798

$$$$
Compound 7099
Actelion Java MolfileCreator 2.0

  0  0  0  0  0  0              0 V3000
M  V30 BEGIN CTAB
M  V30 COUNTS 18 18 0 0 0
M  V30 BEGIN ATOM
M  V30 1 Cl 0.9832 2.5936 -0.3574 0
M  V30 2 C -0.2635 1.3484 -0.3134 0
M  V30 3 C -1.5881 1.6744 0.0327 0
M  V30 4 C 0.0783 0.0208 -0.6218 0
M  V30 5 Cl -2.0174 3.3368 0.4375 0
M  V30 6 C -2.5697 0.6689 0.0534 0
M  V30 7 O 1.4037 -0.2895 -0.9475 0
M  V30 8 C -0.9165 -0.973 -0.6235 0
M  V30 9 Cl -4.2388 1.0286 0.4781 0
M  V30 10 C -2.2307 -0.6448 -0.2806 0
M  V30 11 C 2.2552 -1.0337 -0.0778 0
M  V30 12 Cl -0.56 -2.6212 -1.12 0
M  V30 13 C 2.6432 -0.2039 1.1034 0
M  V30 14 O 1.9511 -0.2364 2.1548 0
M  V30 15 O 3.7375 0.6477 1.0252 0 CHG=-1
M  V30 16 H -2.9946 -1.4123 -0.2843 0
M  V30 17 H 3.1716 -1.319 -0.635 0
M  V30 18 H 1.7589 -1.9668 0.2612 0
M  V30 END ATOM
M  V30 BEGIN BOND
M  V30 1 1 1 2
M  V30 2 2 2 3
M  V30 3 1 2 4
M  V30 4 1 3 5
M  V30 5 1 3 6
M  V30 6 1 4 7
M  V30 7 2 4 8
M  V30 8 1 6 9
M  V30 9 2 6 10
M  V30 10 1 7 11
M  V30 11 1 8 12
M  V30 12 1 11 13
M  V30 13 2 13 14
M  V30 14 1 13 15
M  V30 15 1 8 10
M  V30 16 1 10 16
M  V30 17 1 11 17
M  V30 18 1 11 18
M  V30 END BOND
M  V30 END CTAB
M  END
>  <Structure No>
7099

>  <LogS>
-3.41

>  <MMFF94 Energy>
84.681

$$$$
Compound 7100
Actelion Java MolfileCreator 2.0

  0  0  0  0  0  0              0 V3000
M  V30 BEGIN CTAB
M  V30 COUNTS 25 26 0 0 0
M  V30 BEGIN ATOM
M  V30 1 O 4.5471 0.6372 -1.5139 0
M  V30 2 C 3.6195 0.1387 -0.824 0
M  V30 3 N 3.8169 -1.0136 -0.1198 0
M  V30 4 C 2.3725 0.7407 -0.7442 0
M  V30 5 C 2.8217 -1.554 0.6544 0
M  V30 6 C 1.3897 0.1796 0.0052 0
M  V30 7 C 1.8413 1.9112 -1.2418 0
M  V30 8 N 1.5971 -0.9479 0.7353 0
M  V30 9 N 0.2942 0.9638 -0.0303 0
M  V30 10 N 0.5698 2.0261 -0.7822 0
M  V30 11 C -0.9744 0.7608 0.6052 0
M  V30 12 O -1.563 1.7429 1.1327 0
M  V30 13 C -1.6415 -0.589 0.6056 0
M  V30 14 C -3.0611 -0.5329 0.0233 0
M  V30 15 C -3.0615 -0.1911 -1.4665 0
M  V30 16 H 3.0142 -2.4585 1.2161 0
M  V30 17 H 2.3388 2.6378 -1.8702 0
M  V30 18 H 0.864 -1.3406 1.3644 0
M  V30 19 H -1.6946 -0.9567 1.6527 0
M  V30 20 H -1.0463 -1.3178 0.0155 0
M  V30 21 H -3.675 0.2107 0.5765 0
M  V30 22 H -3.5386 -1.5277 0.157 0
M  V30 23 H -2.6432 0.8238 -1.6344 0
M  V30 24 H -4.1032 -0.2098 -1.8507 0
M  V30 25 H -2.4609 -0.9337 -2.0335 0
M  V30 END ATOM
M  V30 BEGIN BOND
M  V30 1 2 1 2
M  V30 2 1 2 3
M  V30 3 1 2 4
M  V30 4 2 3 5
M  V30 5 2 4 6
M  V30 6 1 4 7
M  V30 7 1 5 8
M  V30 8 1 6 9
M  V30 9 2 7 10
M  V30 10 1 9 11
M  V30 11 2 11 12
M  V30 12 1 11 13
M  V30 13 1 13 14
M  V30 14 1 14 15
M  V30 15 1 6 8
M  V30 16 1 9 10
M  V30 17 1 5 16
M  V30 18 1 7 17
M  V30 19 1 8 18
M  V30 20 1 13 19
M  V30 21 1 13 20
M  V30 22 1 14 21
M  V30 23 1 14 22
M  V30 24 1 15 23
M  V30 25 1 15 24
M  V30 26 1 15 25
M  V30 END BOND
M  V30 END CTAB
M  END
>  <Structure No>
7100

>  <LogS>
-3.27

>  <MMFF94 Energy>
41.037

$$$$
Compound 7101
Actelion Java MolfileCreator 2.0

  0  0  0  0  0  0              0 V3000
M  V30 BEGIN CTAB
M  V30 COUNTS 28 29 0 0 0
M  V30 BEGIN ATOM
M  V30 1 N 2.8627 0.0 -0.7945 0
M  V30 2 C 3.9279 0.0969 0.047 0
M  V30 3 C 1.6094 -0.1857 -0.3063 0
M  V30 4 N 3.7432 0.0075 1.3934 0
M  V30 5 N 5.2374 0.2919 -0.4809 0
M  V30 6 N 0.5486 -0.2845 -1.1443 0
M  V30 7 C 1.4038 -0.2793 1.0737 0
M  V30 8 C 2.5048 -0.178 1.9221 0
M  V30 9 C -0.7185 -0.4753 -0.6801 0
M  V30 10 N 0.1485 -0.4587 1.5541 0
M  V30 11 C -0.9287 -0.555 0.7248 0
M  V30 12 C -1.8271 -0.5742 -1.6969 0
M  V30 13 C -2.2863 -0.7246 1.3627 0
M  V30 14 C -2.5716 0.7495 -1.8397 0
M  V30 15 C -2.6791 0.527 2.143 0
M  V30 16 H 5.3867 0.3615 -1.5118 0
M  V30 17 H 6.0594 0.3673 0.1584 0
M  V30 18 H 2.3818 -0.2449 2.9953 0
M  V30 19 H -2.5306 -1.3945 -1.4469 0
M  V30 20 H -1.3911 -0.8351 -2.686 0
M  V30 21 H -2.2443 -1.5851 2.0642 0
M  V30 22 H -3.0835 -0.948 0.6291 0
M  V30 23 H -3.0874 1.0156 -0.8952 0
M  V30 24 H -1.864 1.5618 -2.1114 0
M  V30 25 H -3.3344 0.6608 -2.6415 0
M  V30 26 H -3.6917 0.3919 2.578 0
M  V30 27 H -1.9614 0.7087 2.9713 0
M  V30 28 H -2.694 1.4137 1.475 0
M  V30 END ATOM
M  V30 BEGIN BOND
M  V30 1 2 1 2
M  V30 2 1 1 3
M  V30 3 1 2 4
M  V30 4 1 2 5
M  V30 5 2 3 6
M  V30 6 1 3 7
M  V30 7 2 4 8
M  V30 8 1 6 9
M  V30 9 2 7 10
M  V30 10 2 9 11
M  V30 11 1 9 12
M  V30 12 1 11 13
M  V30 13 1 12 14
M  V30 14 1 13 15
M  V30 15 1 7 8
M  V30 16 1 10 11
M  V30 17 1 5 16
M  V30 18 1 5 17
M  V30 19 1 8 18
M  V30 20 1 12 19
M  V30 21 1 12 20
M  V30 22 1 13 21
M  V30 23 1 13 22
M  V30 24 1 14 23
M  V30 25 1 14 24
M  V30 26 1 14 25
M  V30 27 1 15 26
M  V30 28 1 15 27
M  V30 29 1 15 28
M  V30 END BOND
M  V30 END CTAB
M  END
>  <Structure No>
7101

>  <LogS>
-3.04

>  <MMFF94 Energy>
-18.213

$$$$
Compound 7102
Actelion Java MolfileCreator 2.0

  0  0  0  0  0  0              0 V3000
M  V30 BEGIN CTAB
M  V30 COUNTS 27 28 0 0 0
M  V30 BEGIN ATOM
M  V30 1 O -4.337 -1.2835 2.488 0
M  V30 2 C -4.3918 -0.5606 1.4585 0
M  V30 3 O -4.9166 0.7227 1.5454 0 CHG=-1
M  V30 4 C -3.8463 -1.0595 0.1591 0
M  V30 5 C -2.3941 -0.6907 0.0323 0
M  V30 6 C -1.3999 -1.5505 0.5224 0
M  V30 7 C -2.0222 0.54 -0.5288 0
M  V30 8 C -0.051 -1.1953 0.4319 0
M  V30 9 C -0.6738 0.8969 -0.6189 0
M  V30 10 C 0.3275 0.0323 -0.1412 0
M  V30 11 C 1.7609 0.4107 -0.2363 0
M  V30 12 C 2.7319 -0.546 -0.5889 0
M  V30 13 C 2.1717 1.732 0.025 0
M  V30 14 C 4.0803 -0.187 -0.6781 0
M  V30 15 C 3.5217 2.085 -0.0647 0
M  V30 16 C 4.475 1.1268 -0.4162 0
M  V30 17 H -4.4295 -0.6192 -0.6786 0
M  V30 18 H -3.9712 -2.1629 0.0982 0
M  V30 19 H -1.6698 -2.4949 0.9789 0
M  V30 20 H -2.7771 1.2229 -0.899 0
M  V30 21 H 0.6946 -1.872 0.8296 0
M  V30 22 H -0.414 1.8434 -1.0761 0
M  V30 23 H 2.4465 -1.5662 -0.8128 0
M  V30 24 H 1.4523 2.4873 0.316 0
M  V30 25 H 4.8196 -0.9279 -0.954 0
M  V30 26 H 3.8293 3.1021 0.1419 0
M  V30 27 H 5.5194 1.4023 -0.4853 0
M  V30 END ATOM
M  V30 BEGIN BOND
M  V30 1 2 1 2
M  V30 2 1 2 3
M  V30 3 1 2 4
M  V30 4 1 4 5
M  V30 5 2 5 6
M  V30 6 1 5 7
M  V30 7 1 6 8
M  V30 8 2 7 9
M  V30 9 2 8 10
M  V30 10 1 10 11
M  V30 11 2 11 12
M  V30 12 1 11 13
M  V30 13 1 12 14
M  V30 14 2 13 15
M  V30 15 2 14 16
M  V30 16 1 9 10
M  V30 17 1 15 16
M  V30 18 1 4 17
M  V30 19 1 4 18
M  V30 20 1 6 19
M  V30 21 1 7 20
M  V30 22 1 8 21
M  V30 23 1 9 22
M  V30 24 1 12 23
M  V30 25 1 13 24
M  V30 26 1 14 25
M  V30 27 1 15 26
M  V30 28 1 16 27
M  V30 END BOND
M  V30 END CTAB
M  END
>  <Structure No>
7102

>  <LogS>
-3.73

>  <MMFF94 Energy>
69.852

$$$$
Compound 7103
Actelion Java MolfileCreator 2.0

  0  0  0  0  0  0              0 V3000
M  V30 BEGIN CTAB
M  V30 COUNTS 28 29 0 0 0
M  V30 BEGIN ATOM
M  V30 1 N 0.2383 -1.5899 0.7152 0
M  V30 2 C 1.5265 -1.2113 0.5241 0
M  V30 3 C -0.8042 -0.7809 0.3777 0
M  V30 4 N 2.5457 -2.0353 0.8761 0
M  V30 5 C 1.7995 0.0419 -0.0399 0
M  V30 6 C -0.5292 0.4798 -0.2132 0
M  V30 7 C -2.2013 -1.2988 0.6 0
M  V30 8 C 3.8377 -1.6578 0.6886 0
M  V30 9 N 0.7684 0.853 -0.3903 0
M  V30 10 C 3.1378 0.4161 -0.2248 0
M  V30 11 C -1.6052 1.4591 -0.6041 0
M  V30 12 C -2.6936 -2.0702 -0.6203 0
M  V30 13 N 4.1243 -0.4446 0.1446 0
M  V30 14 N 3.4841 1.6816 -0.7936 0
M  V30 15 C -1.9406 2.3875 0.5587 0
M  V30 16 H -2.2022 -1.982 1.4768 0
M  V30 17 H -2.907 -0.477 0.8386 0
M  V30 18 H 4.6405 -2.3237 0.9737 0
M  V30 19 H -1.2462 2.0738 -1.458 0
M  V30 20 H -2.5219 0.9401 -0.9512 0
M  V30 21 H -2.7095 -1.4159 -1.5172 0
M  V30 22 H -2.0314 -2.9403 -0.8173 0
M  V30 23 H -3.7229 -2.4426 -0.4342 0
M  V30 24 H 4.4877 1.9392 -0.9226 0
M  V30 25 H 2.7534 2.3669 -1.0878 0
M  V30 26 H -2.7334 3.1003 0.2483 0
M  V30 27 H -2.3075 1.8062 1.4306 0
M  V30 28 H -1.0412 2.9659 0.8601 0
M  V30 END ATOM
M  V30 BEGIN BOND
M  V30 1 1 1 2
M  V30 2 2 1 3
M  V30 3 2 2 4
M  V30 4 1 2 5
M  V30 5 1 3 6
M  V30 6 1 3 7
M  V30 7 1 4 8
M  V30 8 1 5 9
M  V30 9 2 5 10
M  V30 10 1 6 11
M  V30 11 1 7 12
M  V30 12 2 8 13
M  V30 13 1 10 14
M  V30 14 1 11 15
M  V30 15 2 6 9
M  V30 16 1 10 13
M  V30 17 1 7 16
M  V30 18 1 7 17
M  V30 19 1 8 18
M  V30 20 1 11 19
M  V30 21 1 11 20
M  V30 22 1 12 21
M  V30 23 1 12 22
M  V30 24 1 12 23
M  V30 25 1 14 24
M  V30 26 1 14 25
M  V30 27 1 15 26
M  V30 28 1 15 27
M  V30 29 1 15 28
M  V30 END BOND
M  V30 END CTAB
M  END
>  <Structure No>
7103

>  <LogS>
-2.93

>  <MMFF94 Energy>
55.551

$$$$
Compound 7104
Actelion Java MolfileCreator 2.0

  0  0  0  0  0  0              0 V3000
M  V30 BEGIN CTAB
M  V30 COUNTS 31 31 0 0 0
M  V30 BEGIN ATOM
M  V30 1 S -0.2413 1.8512 0.0 0
M  V30 2 O -0.3254 2.7093 -1.2309 0
M  V30 3 O 0.2491 2.724 1.1227 0
M  V30 4 N -1.8495 1.2508 0.3805 0
M  V30 5 C 0.954 0.5788 -0.2958 0
M  V30 6 C -2.2672 0.1057 -0.4512 0
M  V30 7 C -2.0655 1.0341 1.8266 0
M  V30 8 C 1.9082 0.2548 0.6808 0
M  V30 9 C 1.0027 -0.0665 -1.5406 0
M  V30 10 C -2.7596 0.5809 -1.8146 0
M  V30 11 C -1.2672 -0.1366 2.4097 0
M  V30 12 C 2.865 -0.734 0.4337 0
M  V30 13 C 1.959 -1.0555 -1.788 0
M  V30 14 C 2.8917 -1.3977 -0.8 0
M  V30 15 N 3.8703 -2.409 -1.0528 0
M  V30 16 H -1.4499 -0.6331 -0.5712 0
M  V30 17 H -3.1178 -0.4306 0.0257 0
M  V30 18 H -3.1469 0.8501 2.0078 0
M  V30 19 H -1.8196 1.9604 2.3881 0
M  V30 20 H 1.9212 0.77 1.632 0
M  V30 21 H 0.3008 0.1931 -2.3209 0
M  V30 22 H -1.9394 1.0491 -2.3934 0
M  V30 23 H -3.5805 1.3179 -1.6863 0
M  V30 24 H -3.1445 -0.2851 -2.3931 0
M  V30 25 H -1.4445 -1.0733 1.8431 0
M  V30 26 H -0.1874 0.0946 2.4204 0
M  V30 27 H -1.5843 -0.305 3.4603 0
M  V30 28 H 3.5889 -0.9781 1.2009 0
M  V30 29 H 1.9758 -1.5511 -2.7504 0
M  V30 30 H 3.9001 -2.9064 -1.9705 0
M  V30 31 H 4.5717 -2.6682 -0.3236 0
M  V30 END ATOM
M  V30 BEGIN BOND
M  V30 1 2 1 2
M  V30 2 2 1 3
M  V30 3 1 1 4
M  V30 4 1 1 5
M  V30 5 1 4 6
M  V30 6 1 4 7
M  V30 7 2 5 8
M  V30 8 1 5 9
M  V30 9 1 6 10
M  V30 10 1 7 11
M  V30 11 1 8 12
M  V30 12 2 9 13
M  V30 13 2 12 14
M  V30 14 1 14 15
M  V30 15 1 13 14
M  V30 16 1 6 16
M  V30 17 1 6 17
M  V30 18 1 7 18
M  V30 19 1 7 19
M  V30 20 1 8 20
M  V30 21 1 9 21
M  V30 22 1 10 22
M  V30 23 1 10 23
M  V30 24 1 10 24
M  V30 25 1 11 25
M  V30 26 1 11 26
M  V30 27 1 11 27
M  V30 28 1 12 28
M  V30 29 1 13 29
M  V30 30 1 15 30
M  V30 31 1 15 31
M  V30 END BOND
M  V30 END CTAB
M  END
>  <Structure No>
7104

>  <LogS>
-2.63

>  <MMFF94 Energy>
-29.805

$$$$
Compound 7105
Actelion Java MolfileCreator 2.0

  0  0  0  0  0  0              0 V3000
M  V30 BEGIN CTAB
M  V30 COUNTS 28 29 0 0 0
M  V30 BEGIN ATOM
M  V30 1 O 4.0658 1.6726 -0.2388 0
M  V30 2 C 4.3618 0.5306 0.2061 0
M  V30 3 O 3.3719 -0.3397 0.6807 0
M  V30 4 C 5.7956 0.1448 0.3393 0
M  V30 5 C 1.9997 -0.2353 0.4066 0
M  V30 6 C 1.5105 0.3352 -0.7818 0
M  V30 7 C 1.0935 -0.7566 1.3358 0
M  V30 8 C 0.134 0.4076 -1.0156 0
M  V30 9 C -0.283 -0.6853 1.1043 0
M  V30 10 C -0.7791 -0.098 -0.0732 0
M  V30 11 C -2.2417 -0.0207 -0.3217 0
M  V30 12 C -2.8099 1.133 -0.8951 0
M  V30 13 C -3.0831 -1.0994 0.0113 0
M  V30 14 C -4.187 1.2037 -1.1278 0
M  V30 15 C -4.4594 -1.0233 -0.2244 0
M  V30 16 C -5.0108 0.1268 -0.7931 0
M  V30 17 H 6.193 0.5254 1.3032 0
M  V30 18 H 6.3866 0.5747 -0.4968 0
M  V30 19 H 5.8932 -0.9605 0.3155 0
M  V30 20 H 2.1863 0.6952 -1.5452 0
M  V30 21 H 1.4582 -1.2095 2.2493 0
M  V30 22 H -0.2154 0.8363 -1.9466 0
M  V30 23 H -0.9595 -1.0744 1.8549 0
M  V30 24 H -2.1928 1.9863 -1.1468 0
M  V30 25 H -2.6755 -2.0076 0.4369 0
M  V30 26 H -4.6161 2.0962 -1.5651 0
M  V30 27 H -5.0984 -1.8589 0.0307 0
M  V30 28 H -6.0765 0.1835 -0.9745 0
M  V30 END ATOM
M  V30 BEGIN BOND
M  V30 1 2 1 2
M  V30 2 1 2 3
M  V30 3 1 2 4
M  V30 4 1 3 5
M  V30 5 2 5 6
M  V30 6 1 5 7
M  V30 7 1 6 8
M  V30 8 2 7 9
M  V30 9 2 8 10
M  V30 10 1 10 11
M  V30 11 2 11 12
M  V30 12 1 11 13
M  V30 13 1 12 14
M  V30 14 2 13 15
M  V30 15 2 14 16
M  V30 16 1 9 10
M  V30 17 1 15 16
M  V30 18 1 4 17
M  V30 19 1 4 18
M  V30 20 1 4 19
M  V30 21 1 6 20
M  V30 22 1 7 21
M  V30 23 1 8 22
M  V30 24 1 9 23
M  V30 25 1 12 24
M  V30 26 1 13 25
M  V30 27 1 14 26
M  V30 28 1 15 27
M  V30 29 1 16 28
M  V30 END BOND
M  V30 END CTAB
M  END
>  <Structure No>
7105

>  <LogS>
-4.4

>  <MMFF94 Energy>
47.249

$$$$
Compound 7106
Actelion Java MolfileCreator 2.0

  0  0  0  0  0  0              0 V3000
M  V30 BEGIN CTAB
M  V30 COUNTS 65 68 0 0 0
M  V30 BEGIN ATOM
M  V30 1 O -8.1036 1.2932 -2.0212 0
M  V30 2 C -7.7968 0.4216 -1.1636 0
M  V30 3 O -8.8007 -0.3813 -0.6303 0 CHG=-1
M  V30 4 C -6.3911 0.2451 -0.7281 0
M  V30 5 C -5.4183 1.0197 -1.2437 0
M  V30 6 C -6.0931 -0.7641 0.3588 0
M  V30 7 C -3.9945 0.8688 -0.8564 0
M  V30 8 C -4.6241 -1.216 0.3663 0
M  V30 9 C -3.0685 1.5802 -1.5235 0
M  V30 10 C -3.6066 -0.0411 0.3207 0 CFG=1
M  V30 11 C -1.6111 1.3704 -1.266 0
M  V30 12 C -2.1301 -0.6636 0.1684 0 CFG=1
M  V30 13 C -3.7652 0.823 1.6032 0
M  V30 14 C -1.3899 -0.1393 -1.1007 0 CFG=2
M  V30 15 C -1.2434 -0.5957 1.4623 0
M  V30 16 C 0.0602 -0.6687 -1.1457 0 CFG=2
M  V30 17 C 0.2028 -1.1302 1.2888 0
M  V30 18 C 0.9251 -0.45 0.1004 0 CFG=1
M  V30 19 C 0.9525 -0.3713 -2.345 0
M  V30 20 C 2.2282 -1.1575 -0.3701 0 CFG=1
M  V30 21 C 1.2256 1.0509 0.411 0
M  V30 22 C 2.3684 -0.7152 -1.8508 0
M  V30 23 C 3.4553 -0.9147 0.4925 0
M  V30 24 O 3.3571 -1.076 1.7392 0
M  V30 25 N 4.7375 -0.6015 -0.0891 0
M  V30 26 C 5.8481 0.0418 0.6377 0
M  V30 27 C 6.4833 -0.963 1.6203 0
M  V30 28 C 6.9238 0.4838 -0.3768 0
M  V30 29 C 5.3466 1.2915 1.3905 0
M  V30 30 H -5.6653 1.7497 -2.0064 0
M  V30 31 H -6.3686 -0.3269 1.3434 0
M  V30 32 H -6.7237 -1.6678 0.2146 0
M  V30 33 H -4.4694 -1.8673 -0.5227 0
M  V30 34 H -4.4456 -1.8457 1.2661 0
M  V30 35 H -3.3546 2.2162 -2.3523 0
M  V30 36 H -1.359 1.9322 -0.3508 0
M  V30 37 H -1.0282 1.7771 -2.1155 0
M  V30 38 H -2.2305 -1.761 -0.0134 0
M  V30 39 H -4.7724 1.2857 1.6698 0
M  V30 40 H -3.043 1.6687 1.5986 0
M  V30 41 H -3.6229 0.2181 2.5224 0
M  V30 42 H -1.8856 -0.6184 -1.9807 0
M  V30 43 H -1.1862 0.4349 1.8543 0
M  V30 44 H -1.7316 -1.2061 2.2522 0
M  V30 45 H -0.0977 -1.7771 -1.2179 0
M  V30 46 H 0.1598 -2.2316 1.1367 0
M  V30 47 H 0.7692 -0.9498 2.2281 0
M  V30 48 H 0.6627 -1.0036 -3.219 0
M  V30 49 H 0.9031 0.7011 -2.6387 0
M  V30 50 H 2.0657 -2.2604 -0.3665 0
M  V30 51 H 2.0255 1.1451 1.1729 0
M  V30 52 H 1.5555 1.5995 -0.4996 0
M  V30 53 H 0.366 1.5921 0.836 0
M  V30 54 H 2.8208 -1.5241 -2.4631 0
M  V30 55 H 2.9937 0.1988 -1.9335 0
M  V30 56 H 4.8785 -0.8223 -1.1009 0
M  V30 57 H 6.7905 -1.8847 1.0783 0
M  V30 58 H 5.7691 -1.2533 2.4178 0
M  V30 59 H 7.3795 -0.5233 2.1075 0
M  V30 60 H 7.3307 -0.3935 -0.9221 0
M  V30 61 H 7.765 0.9968 0.1361 0
M  V30 62 H 6.4882 1.1849 -1.1237 0
M  V30 63 H 6.1986 1.8574 1.8216 0
M  V30 64 H 4.6744 1.0177 2.2312 0
M  V30 65 H 4.7925 1.9584 0.6955 0
M  V30 END ATOM
M  V30 BEGIN BOND
M  V30 1 2 1 2
M  V30 2 1 2 3
M  V30 3 1 2 4
M  V30 4 2 4 5
M  V30 5 1 4 6
M  V30 6 1 5 7
M  V30 7 1 6 8
M  V30 8 2 7 9
M  V30 9 1 7 10
M  V30 10 1 9 11
M  V30 11 1 10 12
M  V30 12 1 10 13
M  V30 13 1 11 14
M  V30 14 1 12 15
M  V30 15 1 14 16
M  V30 16 1 15 17
M  V30 17 1 16 18
M  V30 18 1 16 19
M  V30 19 1 18 20
M  V30 20 1 18 21
M  V30 21 1 19 22
M  V30 22 1 20 23
M  V30 23 2 23 24
M  V30 24 1 23 25
M  V30 25 1 25 26
M  V30 26 1 26 27
M  V30 27 1 26 28
M  V30 28 1 26 29
M  V30 29 1 8 10
M  V30 30 1 12 14
M  V30 31 1 17 18
M  V30 32 1 20 22
M  V30 33 1 5 30
M  V30 34 1 6 31
M  V30 35 1 6 32
M  V30 36 1 8 33
M  V30 37 1 8 34
M  V30 38 1 9 35
M  V30 39 1 11 36
M  V30 40 1 11 37
M  V30 41 1 12 38
M  V30 42 1 13 39
M  V30 43 1 13 40
M  V30 44 1 13 41
M  V30 45 1 14 42
M  V30 46 1 15 43
M  V30 47 1 15 44
M  V30 48 1 16 45
M  V30 49 1 17 46
M  V30 50 1 17 47
M  V30 51 1 19 48
M  V30 52 1 19 49
M  V30 53 1 20 50
M  V30 54 1 21 51
M  V30 55 1 21 52
M  V30 56 1 21 53
M  V30 57 1 22 54
M  V30 58 1 22 55
M  V30 59 1 25 56
M  V30 60 1 27 57
M  V30 61 1 27 58
M  V30 62 1 27 59
M  V30 63 1 28 60
M  V30 64 1 28 61
M  V30 65 1 28 62
M  V30 66 1 29 63
M  V30 67 1 29 64
M  V30 68 1 29 65
M  V30 END BOND
M  V30 BEGIN COLLECTION
M  V30 MDLV30/STEABS ATOMS=(6 10 12 14 16 18 20)
M  V30 END COLLECTION
M  V30 END CTAB
M  END
>  <Structure No>
7106

>  <LogS>
-8.76

>  <MMFF94 Energy>
57.009

$$$$
Compound 7107
Actelion Java MolfileCreator 2.0

  0  0  0  0  0  0              0 V3000
M  V30 BEGIN CTAB
M  V30 COUNTS 45 47 0 0 0
M  V30 BEGIN ATOM
M  V30 1 S -2.7766 -1.7142 -0.3263 0
M  V30 2 C -4.2766 -0.681 0.0427 0
M  V30 3 C -1.7249 -0.264 -0.692 0 CFG=1
M  V30 4 C -4.0034 0.7456 -0.5197 0 CFG=2
M  V30 5 C -5.4988 -1.312 -0.6407 0
M  V30 6 C -4.4747 -0.6986 1.5707 0
M  V30 7 N -2.568 0.8718 -0.4777 0 CFG=1
M  V30 8 C -0.7922 0.1072 0.3414 0 CFG=2
M  V30 9 C -4.7143 1.8786 0.1783 0
M  V30 10 C -1.5786 1.3688 0.511 0
M  V30 11 N 0.5561 0.3616 -0.1724 0 CHG=1
M  V30 12 O -5.737 2.3905 -0.3484 0
M  V30 13 O -4.2906 2.337 1.4196 0 CHG=-1
M  V30 14 O -1.4693 2.3949 1.2319 0
M  V30 15 C 1.3461 -0.6285 -0.4773 0
M  V30 16 N 2.6942 -0.4292 -0.9532 0
M  V30 17 C 3.225 0.8813 -1.352 0
M  V30 18 C 3.6323 -1.5528 -0.8777 0
M  V30 19 C 3.8676 1.5985 -0.1586 0
M  V30 20 C 4.1856 -1.7265 0.5465 0
M  V30 21 C 4.9474 0.7538 0.5446 0
M  V30 22 C 4.3524 -0.4195 1.3497 0
M  V30 23 H -1.3154 -0.2708 -1.7272 0
M  V30 24 H -4.2916 0.7728 -1.5944 0
M  V30 25 H -5.3364 -1.3864 -1.7372 0
M  V30 26 H -6.4056 -0.6965 -0.4573 0
M  V30 27 H -5.6788 -2.3361 -0.2489 0
M  V30 28 H -4.5615 -1.7442 1.9363 0
M  V30 29 H -5.4024 -0.1598 1.859 0
M  V30 30 H -3.6084 -0.2276 2.0819 0
M  V30 31 H -0.8047 -0.5275 1.2551 0
M  V30 32 H 0.8847 1.3497 -0.233 0
M  V30 33 H 0.9938 -1.6458 -0.3405 0
M  V30 34 H 2.4294 1.5115 -1.8015 0
M  V30 35 H 3.9877 0.756 -2.1513 0
M  V30 36 H 3.1344 -2.4908 -1.2072 0
M  V30 37 H 4.4831 -1.3933 -1.5758 0
M  V30 38 H 3.0854 1.8967 0.572 0
M  V30 39 H 4.3379 2.5344 -0.5303 0
M  V30 40 H 3.5051 -2.3965 1.1156 0
M  V30 41 H 5.1688 -2.2416 0.4824 0
M  V30 42 H 5.702 0.3917 -0.187 0
M  V30 43 H 5.4813 1.4216 1.2552 0
M  V30 44 H 3.3735 -0.1264 1.7889 0
M  V30 45 H 5.0252 -0.6359 2.2082 0
M  V30 END ATOM
M  V30 BEGIN BOND
M  V30 1 1 1 2
M  V30 2 1 1 3
M  V30 3 1 2 4
M  V30 4 1 2 5
M  V30 5 1 2 6
M  V30 6 1 3 7
M  V30 7 1 3 8
M  V30 8 1 4 9
M  V30 9 1 7 10
M  V30 10 1 8 11
M  V30 11 2 9 12
M  V30 12 1 9 13
M  V30 13 2 10 14
M  V30 14 2 11 15
M  V30 15 1 15 16
M  V30 16 1 16 17
M  V30 17 1 16 18
M  V30 18 1 17 19
M  V30 19 1 18 20
M  V30 20 1 19 21
M  V30 21 1 20 22
M  V30 22 1 4 7
M  V30 23 1 8 10
M  V30 24 1 21 22
M  V30 25 1 3 23
M  V30 26 1 4 24
M  V30 27 1 5 25
M  V30 28 1 5 26
M  V30 29 1 5 27
M  V30 30 1 6 28
M  V30 31 1 6 29
M  V30 32 1 6 30
M  V30 33 1 8 31
M  V30 34 1 11 32
M  V30 35 1 15 33
M  V30 36 1 17 34
M  V30 37 1 17 35
M  V30 38 1 18 36
M  V30 39 1 18 37
M  V30 40 1 19 38
M  V30 41 1 19 39
M  V30 42 1 20 40
M  V30 43 1 20 41
M  V30 44 1 21 42
M  V30 45 1 21 43
M  V30 46 1 22 44
M  V30 47 1 22 45
M  V30 END BOND
M  V30 BEGIN COLLECTION
M  V30 MDLV30/STEABS ATOMS=(4 3 4 7 8)
M  V30 END COLLECTION
M  V30 END CTAB
M  END
>  <Structure No>
7107

>  <LogS>
-4.5

>  <MMFF94 Energy>
42.724

$$$$
Compound 7108
Actelion Java MolfileCreator 2.0

  0  0  0  0  0  0              0 V3000
M  V30 BEGIN CTAB
M  V30 COUNTS 31 32 0 0 0
M  V30 BEGIN ATOM
M  V30 1 F 5.125 -1.8687 -0.7309 0
M  V30 2 C 4.5838 -0.9282 0.127 0
M  V30 3 F 5.4162 0.1754 0.1707 0
M  V30 4 F 4.5185 -1.4798 1.395 0
M  V30 5 C 3.2194 -0.5102 -0.3754 0
M  V30 6 C 3.0646 0.039 -1.656 0
M  V30 7 C 2.0722 -0.6419 0.4207 0
M  V30 8 O 4.0618 0.1859 -2.4141 0
M  V30 9 N 1.8349 0.4216 -2.0863 0
M  V30 10 N 0.8432 -0.264 -0.0451 0
M  V30 11 C 0.7341 0.2833 -1.2998 0
M  V30 12 C -0.3293 -0.4069 0.8442 0 CFG=2
M  V30 13 O -0.3838 0.6693 -1.7388 0
M  V30 14 O -1.4237 -0.9498 0.1383 0
M  V30 15 C -0.7367 0.9403 1.4456 0
M  V30 16 C -2.5755 -0.3489 0.6775 0 CFG=1
M  V30 17 C -2.2042 1.0695 1.1074 0 CFG=2
M  V30 18 C -3.7288 -0.4022 -0.3351 0
M  V30 19 O -2.3802 1.9852 0.0553 0
M  V30 20 O -4.1329 -1.7284 -0.5442 0
M  V30 21 H 2.1637 -1.0486 1.4206 0
M  V30 22 H 1.7331 0.8363 -3.0412 0
M  V30 23 H -0.0976 -1.1108 1.6774 0
M  V30 24 H -0.5986 0.9222 2.5493 0
M  V30 25 H -0.1422 1.7856 1.0323 0
M  V30 26 H -2.884 -0.9241 1.5817 0
M  V30 27 H -2.805 1.3753 1.9962 0
M  V30 28 H -3.4277 0.065 -1.3009 0
M  V30 29 H -4.5947 0.1668 0.0659 0
M  V30 30 H -2.3329 2.8914 0.4581 0
M  V30 31 H -3.4714 -2.1339 -1.1635 0
M  V30 END ATOM
M  V30 BEGIN BOND
M  V30 1 1 1 2
M  V30 2 1 2 3
M  V30 3 1 2 4
M  V30 4 1 2 5
M  V30 5 1 5 6
M  V30 6 2 5 7
M  V30 7 2 6 8
M  V30 8 1 6 9
M  V30 9 1 7 10
M  V30 10 1 9 11
M  V30 11 1 10 12
M  V30 12 2 11 13
M  V30 13 1 12 14
M  V30 14 1 12 15
M  V30 15 1 14 16
M  V30 16 1 15 17
M  V30 17 1 16 18
M  V30 18 1 17 19
M  V30 19 1 18 20
M  V30 20 1 10 11
M  V30 21 1 16 17
M  V30 22 1 7 21
M  V30 23 1 9 22
M  V30 24 1 12 23
M  V30 25 1 15 24
M  V30 26 1 15 25
M  V30 27 1 16 26
M  V30 28 1 17 27
M  V30 29 1 18 28
M  V30 30 1 18 29
M  V30 31 1 19 30
M  V30 32 1 20 31
M  V30 END BOND
M  V30 BEGIN COLLECTION
M  V30 MDLV30/STEABS ATOMS=(3 12 16 17)
M  V30 END COLLECTION
M  V30 END CTAB
M  END
>  <Structure No>
7108

>  <LogS>
-0.71

>  <MMFF94 Energy>
-84.691

$$$$
Compound 7109
Actelion Java MolfileCreator 2.0

  0  0  0  0  0  0              0 V3000
M  V30 BEGIN CTAB
M  V30 COUNTS 25 26 0 0 0
M  V30 BEGIN ATOM
M  V30 1 O -3.251 0.0791 -0.6337 0
M  V30 2 C -2.0272 0.055 -0.319 0
M  V30 3 N -1.4133 -1.1547 -0.0372 0
M  V30 4 N -1.3181 1.2359 -0.263 0
M  V30 5 C -0.0739 -1.1953 0.2785 0
M  V30 6 C -2.1793 -2.4078 -0.1461 0
M  V30 7 C -0.0068 1.1766 0.0954 0
M  V30 8 C -1.9724 2.5258 -0.521 0
M  V30 9 O 0.5146 -2.2905 0.4913 0
M  V30 10 C 0.6194 0.0062 0.3566 0
M  V30 11 N 0.8468 2.2136 0.2137 0
M  V30 12 N 1.9046 0.2599 0.6598 0
M  V30 13 C 2.0125 1.6076 0.5588 0
M  V30 14 C 2.9804 -0.6812 0.9683 0
M  V30 15 O 3.3464 -1.3873 -0.1846 0
M  V30 16 H -3.2362 -2.2587 0.1626 0
M  V30 17 H -1.7675 -3.1951 0.5207 0
M  V30 18 H -2.153 -2.7698 -1.1954 0
M  V30 19 H -2.6733 2.4426 -1.3791 0
M  V30 20 H -1.233 3.313 -0.7806 0
M  V30 21 H -2.5354 2.8441 0.3815 0
M  V30 22 H 2.9335 2.1505 0.7284 0
M  V30 23 H 3.8617 -0.1408 1.3822 0
M  V30 24 H 2.6383 -1.3984 1.7433 0
M  V30 25 H 3.7866 -0.7311 -0.7855 0
M  V30 END ATOM
M  V30 BEGIN BOND
M  V30 1 2 1 2
M  V30 2 1 2 3
M  V30 3 1 2 4
M  V30 4 1 3 5
M  V30 5 1 3 6
M  V30 6 1 4 7
M  V30 7 1 4 8
M  V30 8 2 5 9
M  V30 9 1 5 10
M  V30 10 1 7 11
M  V30 11 1 10 12
M  V30 12 2 11 13
M  V30 13 1 12 14
M  V30 14 1 14 15
M  V30 15 2 7 10
M  V30 16 1 12 13
M  V30 17 1 6 16
M  V30 18 1 6 17
M  V30 19 1 6 18
M  V30 20 1 8 19
M  V30 21 1 8 20
M  V30 22 1 8 21
M  V30 23 1 13 22
M  V30 24 1 14 23
M  V30 25 1 14 24
M  V30 26 1 15 25
M  V30 END BOND
M  V30 END CTAB
M  END
>  <Structure No>
7109

>  <LogS>
-0.41

>  <MMFF94 Energy>
-126.05

$$$$
Compound 7110
Actelion Java MolfileCreator 2.0

  0  0  0  0  0  0              0 V3000
M  V30 BEGIN CTAB
M  V30 COUNTS 33 34 0 0 0
M  V30 BEGIN ATOM
M  V30 1 O -2.977 0.4823 -2.4132 0
M  V30 2 C -2.2764 0.0307 -1.4674 0
M  V30 3 N -2.1326 0.7686 -0.2434 0
M  V30 4 N -1.6524 -1.246 -1.5994 0
M  V30 5 C -1.3328 0.1983 0.8096 0
M  V30 6 C -2.9255 1.9782 -0.0032 0
M  V30 7 C -0.7895 -1.7401 -0.5707 0
M  V30 8 O -1.5293 0.5596 2.0038 0
M  V30 9 C -0.2083 -0.7784 0.4665 0 CFG=1
M  V30 10 O -4.189 1.619 0.4807 0
M  V30 11 O -0.4764 -2.9608 -0.577 0
M  V30 12 C 0.9681 0.0316 -0.1053 0
M  V30 13 C 0.2495 -1.5486 1.7513 0
M  V30 14 C 1.6669 -0.3731 -1.2671 0
M  V30 15 C 1.4389 1.1694 0.5877 0
M  V30 16 C 1.5657 -2.3283 1.6091 0
M  V30 17 C 2.7585 0.3624 -1.7371 0
M  V30 18 C 2.531 1.8992 0.1114 0
M  V30 19 C 3.1869 1.4994 -1.0523 0
M  V30 20 H -1.8753 -1.8484 -2.4234 0
M  V30 21 H -2.409 2.634 0.7334 0
M  V30 22 H -3.0308 2.5613 -0.9453 0
M  V30 23 H -4.6799 2.4692 0.6263 0
M  V30 24 H -0.5526 -2.2501 2.0708 0
M  V30 25 H 0.4038 -0.8339 2.589 0
M  V30 26 H 1.3838 -1.2604 -1.8157 0
M  V30 27 H 0.9641 1.4923 1.5049 0
M  V30 28 H 1.5402 -3.0423 0.764 0
M  V30 29 H 2.4185 -1.632 1.4662 0
M  V30 30 H 1.7508 -2.9042 2.5402 0
M  V30 31 H 3.2785 0.0448 -2.6316 0
M  V30 32 H 2.8733 2.7731 0.6506 0
M  V30 33 H 4.0341 2.0649 -1.4178 0
M  V30 END ATOM
M  V30 BEGIN BOND
M  V30 1 2 1 2
M  V30 2 1 2 3
M  V30 3 1 2 4
M  V30 4 1 3 5
M  V30 5 1 3 6
M  V30 6 1 4 7
M  V30 7 2 5 8
M  V30 8 1 5 9
M  V30 9 1 6 10
M  V30 10 2 7 11
M  V30 11 1 9 12
M  V30 12 1 9 13
M  V30 13 2 12 14
M  V30 14 1 12 15
M  V30 15 1 13 16
M  V30 16 1 14 17
M  V30 17 2 15 18
M  V30 18 2 17 19
M  V30 19 1 7 9
M  V30 20 1 18 19
M  V30 21 1 4 20
M  V30 22 1 6 21
M  V30 23 1 6 22
M  V30 24 1 10 23
M  V30 25 1 13 24
M  V30 26 1 13 25
M  V30 27 1 14 26
M  V30 28 1 15 27
M  V30 29 1 16 28
M  V30 30 1 16 29
M  V30 31 1 16 30
M  V30 32 1 17 31
M  V30 33 1 18 32
M  V30 34 1 19 33
M  V30 END BOND
M  V30 BEGIN COLLECTION
M  V30 MDLV30/STEABS ATOMS=(1 9)
M  V30 END COLLECTION
M  V30 END CTAB
M  END
>  <Structure No>
7110

>  <LogS>
-1.6

>  <MMFF94 Energy>
-89.83

$$$$
Compound 7111
Actelion Java MolfileCreator 2.0

  0  0  0  0  0  0              0 V3000
M  V30 BEGIN CTAB
M  V30 COUNTS 23 24 0 0 0
M  V30 BEGIN ATOM
M  V30 1 S 0.1643 0.9861 1.3972 0
M  V30 2 C -1.1473 -0.2346 1.3619 0
M  V30 3 C 1.1678 0.1157 0.1547 0
M  V30 4 N -1.1241 -1.3031 2.2125 0
M  V30 5 C -2.22 -0.1372 0.4846 0
M  V30 6 O 2.3629 0.8521 -0.0745 0
M  V30 7 C -2.12 -2.247 2.1996 0
M  V30 8 N -2.4967 0.783 -0.4462 0
M  V30 9 C -3.1912 -1.0774 0.4857 0
M  V30 10 C 3.3413 0.4354 -0.9813 0
M  V30 11 N -3.1684 -2.1385 1.3274 0
M  V30 12 C -3.663 0.3501 -0.9888 0
M  V30 13 N -4.1286 -0.8044 -0.437 0
M  V30 14 O 3.1856 -0.6165 -1.6593 0
M  V30 15 C 4.5592 1.271 -1.1841 0
M  V30 16 H 1.4215 -0.8997 0.5286 0
M  V30 17 H 0.5936 0.0331 -0.7933 0
M  V30 18 H -2.0755 -3.0831 2.8837 0
M  V30 19 H -1.948 1.6337 -0.7018 0
M  V30 20 H -4.175 0.872 -1.7864 0
M  V30 21 H 4.7416 1.8995 -0.2872 0
M  V30 22 H 5.4437 0.6211 -1.352 0
M  V30 23 H 4.4138 1.9284 -2.0661 0
M  V30 END ATOM
M  V30 BEGIN BOND
M  V30 1 1 1 2
M  V30 2 1 1 3
M  V30 3 2 2 4
M  V30 4 1 2 5
M  V30 5 1 3 6
M  V30 6 1 4 7
M  V30 7 1 5 8
M  V30 8 2 5 9
M  V30 9 1 6 10
M  V30 10 2 7 11
M  V30 11 1 8 12
M  V30 12 1 9 13
M  V30 13 2 10 14
M  V30 14 1 10 15
M  V30 15 1 9 11
M  V30 16 2 12 13
M  V30 17 1 3 16
M  V30 18 1 3 17
M  V30 19 1 7 18
M  V30 20 1 8 19
M  V30 21 1 12 20
M  V30 22 1 15 21
M  V30 23 1 15 22
M  V30 24 1 15 23
M  V30 END BOND
M  V30 END CTAB
M  END
>  <Structure No>
7111

>  <LogS>
-2.15

>  <MMFF94 Energy>
-83.849

$$$$
Compound 7112
Actelion Java MolfileCreator 2.0

  0  0  0  0  0  0              0 V3000
M  V30 BEGIN CTAB
M  V30 COUNTS 17 18 0 0 0
M  V30 BEGIN ATOM
M  V30 1 O -3.1732 1.7077 0.0 0
M  V30 2 C -2.1932 0.9152 -0.0083 0
M  V30 3 N -0.9237 1.4053 0.0561 0
M  V30 4 N -2.4078 -0.4286 -0.0818 0
M  V30 5 C 0.1473 0.5639 0.0483 0
M  V30 6 C -1.367 -1.3059 -0.0925 0
M  V30 7 N 1.4206 1.0479 0.1126 0
M  V30 8 C -0.0574 -0.8242 -0.0271 0
M  V30 9 O -1.5887 -2.5452 -0.1611 0
M  V30 10 C 2.4905 0.2041 0.1046 0
M  V30 11 N 1.0128 -1.6627 -0.0349 0
M  V30 12 O 3.6611 0.6673 0.1646 0
M  V30 13 C 2.2809 -1.1792 0.0292 0
M  V30 14 O 3.3566 -2.0591 0.0195 0 CHG=-1
M  V30 15 H -0.7746 2.4389 0.1123 0
M  V30 16 H -3.3875 -0.7916 -0.1308 0
M  V30 17 H 1.5827 2.0794 0.1691 0
M  V30 END ATOM
M  V30 BEGIN BOND
M  V30 1 2 1 2
M  V30 2 1 2 3
M  V30 3 1 2 4
M  V30 4 1 3 5
M  V30 5 1 4 6
M  V30 6 1 5 7
M  V30 7 2 5 8
M  V30 8 2 6 9
M  V30 9 1 7 10
M  V30 10 1 8 11
M  V30 11 2 10 12
M  V30 12 1 10 13
M  V30 13 1 13 14
M  V30 14 1 6 8
M  V30 15 2 11 13
M  V30 16 1 3 15
M  V30 17 1 4 16
M  V30 18 1 7 17
M  V30 END BOND
M  V30 END CTAB
M  END
>  <Structure No>
7112

>  <LogS>
-4.06

>  <MMFF94 Energy>
-0.68233

$$$$
Compound 7113
Actelion Java MolfileCreator 2.0

  0  0  0  0  0  0              0 V3000
M  V30 BEGIN CTAB
M  V30 COUNTS 45 45 0 0 0
M  V30 BEGIN ATOM
M  V30 1 S 0.5549 1.1895 0.6342 0
M  V30 2 C -0.7048 2.015 -0.3967 0
M  V30 3 C 1.2984 0.2155 -0.7236 0
M  V30 4 C -1.8043 1.0624 -0.7381 0
M  V30 5 C 2.5005 -0.5815 -0.2154 0
M  V30 6 O -2.6464 0.5694 0.1403 0
M  V30 7 C -2.0807 0.562 -1.9963 0
M  V30 8 N 3.6016 0.3013 0.1798 0
M  V30 9 C -3.4683 -0.2387 -0.4881 0
M  V30 10 C -3.1602 -0.2796 -1.8345 0
M  V30 11 C 4.8335 -0.1674 0.7656 0
M  V30 12 C -4.5928 -0.978 0.1779 0
M  V30 13 N 5.0824 -1.4509 0.8669 0 CHG=1
M  V30 14 C 5.8501 0.872 1.1856 0
M  V30 15 N -5.9015 -0.337 -0.0845 0 CHG=1
M  V30 16 C 6.3197 -2.0066 1.4148 0
M  V30 17 N 6.8397 1.0689 0.1329 0 CHG=1
M  V30 18 C -6.9921 -1.2187 0.3662 0
M  V30 19 C -6.0055 0.9687 0.5938 0
M  V30 20 O 6.4862 1.4813 -0.9908 0
M  V30 21 O 8.1797 0.9552 0.4206 0 CHG=-1
M  V30 22 H -1.1337 2.8589 0.1823 0
M  V30 23 H -0.2425 2.4328 -1.3164 0
M  V30 24 H 0.5422 -0.4951 -1.1184 0
M  V30 25 H 1.6183 0.8879 -1.5483 0
M  V30 26 H 2.1857 -1.2012 0.6521 0
M  V30 27 H 2.8467 -1.2537 -1.0299 0
M  V30 28 H -1.5582 0.7812 -2.9181 0
M  V30 29 H 3.4896 1.3322 0.0441 0
M  V30 30 H -3.6624 -0.8506 -2.6041 0
M  V30 31 H -4.3958 -1.0381 1.2721 0
M  V30 32 H -4.5878 -2.0195 -0.2151 0
M  V30 33 H 4.3799 -2.1495 0.5398 0
M  V30 34 H 6.3503 0.5778 2.1318 0
M  V30 35 H 5.3439 1.8393 1.3923 0
M  V30 36 H -6.0154 -0.1883 -1.1156 0
M  V30 37 H 7.1948 -1.6457 0.8355 0
M  V30 38 H 6.2949 -3.115 1.3492 0
M  V30 39 H 6.4254 -1.7283 2.4844 0
M  V30 40 H -6.9615 -2.1862 -0.1812 0
M  V30 41 H -7.9813 -0.7545 0.1572 0
M  V30 42 H -6.9164 -1.4229 1.4578 0
M  V30 43 H -6.999 1.4301 0.4004 0
M  V30 44 H -5.2402 1.6749 0.206 0
M  V30 45 H -5.8709 0.8618 1.6934 0
M  V30 END ATOM
M  V30 BEGIN BOND
M  V30 1 1 1 2
M  V30 2 1 1 3
M  V30 3 1 2 4
M  V30 4 1 3 5
M  V30 5 1 4 6
M  V30 6 2 4 7
M  V30 7 1 5 8
M  V30 8 1 6 9
M  V30 9 1 7 10
M  V30 10 1 8 11
M  V30 11 1 9 12
M  V30 12 2 11 13
M  V30 13 1 11 14
M  V30 14 1 12 15
M  V30 15 1 13 16
M  V30 16 1 14 17
M  V30 17 1 15 18
M  V30 18 1 15 19
M  V30 19 2 17 20
M  V30 20 1 17 21
M  V30 21 2 9 10
M  V30 22 1 2 22
M  V30 23 1 2 23
M  V30 24 1 3 24
M  V30 25 1 3 25
M  V30 26 1 5 26
M  V30 27 1 5 27
M  V30 28 1 7 28
M  V30 29 1 8 29
M  V30 30 1 10 30
M  V30 31 1 12 31
M  V30 32 1 12 32
M  V30 33 1 13 33
M  V30 34 1 14 34
M  V30 35 1 14 35
M  V30 36 1 15 36
M  V30 37 1 16 37
M  V30 38 1 16 38
M  V30 39 1 16 39
M  V30 40 1 18 40
M  V30 41 1 18 41
M  V30 42 1 18 42
M  V30 43 1 19 43
M  V30 44 1 19 44
M  V30 45 1 19 45
M  V30 END BOND
M  V30 END CTAB
M  END
>  <Structure No>
7113

>  <LogS>
-2.5

>  <MMFF94 Energy>
60.745

$$$$
Compound 7114
Actelion Java MolfileCreator 2.0

  0  0  0  0  0  0              0 V3000
M  V30 BEGIN CTAB
M  V30 COUNTS 52 55 0 0 0
M  V30 BEGIN ATOM
M  V30 1 O 4.4798 -2.4417 -3.1751 0
M  V30 2 C 3.8503 -1.9537 -2.1999 0
M  V30 3 C 3.6458 -0.5067 -2.1048 0
M  V30 4 C 3.2953 -2.8312 -1.1701 0
M  V30 5 C 3.0031 0.0332 -1.0571 0
M  V30 6 C 2.6699 -2.3169 -0.1104 0
M  V30 7 C 2.5705 -0.815 0.1515 0 CFG=2
M  V30 8 C 2.7818 1.534 -1.0435 0
M  V30 9 C 1.1154 -0.3905 0.6374 0 CFG=2
M  V30 10 C 3.5966 -0.5409 1.2778 0
M  V30 11 C 1.6939 1.9684 -0.0474 0
M  V30 12 C -0.0116 -1.3718 0.4433 0
M  V30 13 C 0.577 0.913 0.0116 0 CFG=2
M  V30 14 O -0.0402 -2.1648 -0.4864 0
M  V30 15 C -1.2266 -1.1445 1.2822 0
M  V30 16 C -0.6889 1.4242 0.7796 0 CFG=2
M  V30 17 C -1.7617 0.3307 1.1718 0 CFG=1
M  V30 18 C -1.4543 2.4782 -0.0504 0
M  V30 19 C -2.908 0.4901 0.1047 0 CFG=2
M  V30 20 C -2.3079 0.7107 2.5827 0
M  V30 21 C -2.89 1.9882 -0.2311 0
M  V30 22 O -4.1763 0.1817 0.6433 0
M  V30 23 C -2.6873 -0.3204 -1.1829 0
M  V30 24 O -1.7893 -0.0097 -1.9509 0
M  V30 25 C -3.6045 -1.4573 -1.5655 0
M  V30 26 O -3.193 -2.0399 -2.7722 0
M  V30 27 H 3.9926 0.1219 -2.917 0
M  V30 28 H 3.3883 -3.9055 -1.2711 0
M  V30 29 H 2.3008 -3.0002 0.646 0
M  V30 30 H 2.4613 1.8593 -2.0585 0
M  V30 31 H 3.7366 2.0499 -0.8059 0
M  V30 32 H 1.1758 -0.2145 1.7369 0
M  V30 33 H 3.6149 0.5276 1.5709 0
M  V30 34 H 3.3544 -1.137 2.1849 0
M  V30 35 H 4.6228 -0.8174 0.9489 0
M  V30 36 H 2.1271 2.1249 0.9629 0
M  V30 37 H 1.2881 2.9491 -0.3761 0
M  V30 38 H 0.2962 0.699 -1.0413 0
M  V30 39 H -2.0182 -1.8804 1.0296 0
M  V30 40 H -0.9258 -1.378 2.3275 0
M  V30 41 H -0.3067 1.9208 1.7016 0
M  V30 42 H -1.0009 2.6341 -1.0537 0
M  V30 43 H -1.4511 3.4598 0.4728 0
M  V30 44 H -1.4847 0.7213 3.3301 0
M  V30 45 H -2.7739 1.7188 2.5832 0
M  V30 46 H -3.0607 -0.0239 2.9395 0
M  V30 47 H -3.2618 2.1982 -1.2591 0
M  V30 48 H -3.5481 2.5449 0.473 0
M  V30 49 H -4.1435 -0.7452 0.9952 0
M  V30 50 H -3.5923 -2.228 -0.7648 0
M  V30 51 H -4.6389 -1.0639 -1.6783 0
M  V30 52 H -3.8394 -2.769 -2.9608 0
M  V30 END ATOM
M  V30 BEGIN BOND
M  V30 1 2 1 2
M  V30 2 1 2 3
M  V30 3 1 2 4
M  V30 4 2 3 5
M  V30 5 2 4 6
M  V30 6 1 5 7
M  V30 7 1 5 8
M  V30 8 1 7 9
M  V30 9 1 7 10
M  V30 10 1 8 11
M  V30 11 1 9 12
M  V30 12 1 9 13
M  V30 13 2 12 14
M  V30 14 1 12 15
M  V30 15 1 13 16
M  V30 16 1 15 17
M  V30 17 1 16 18
M  V30 18 1 17 19
M  V30 19 1 17 20
M  V30 20 1 18 21
M  V30 21 1 19 22
M  V30 22 1 19 23
M  V30 23 2 23 24
M  V30 24 1 23 25
M  V30 25 1 25 26
M  V30 26 1 6 7
M  V30 27 1 11 13
M  V30 28 1 16 17
M  V30 29 1 19 21
M  V30 30 1 3 27
M  V30 31 1 4 28
M  V30 32 1 6 29
M  V30 33 1 8 30
M  V30 34 1 8 31
M  V30 35 1 9 32
M  V30 36 1 10 33
M  V30 37 1 10 34
M  V30 38 1 10 35
M  V30 39 1 11 36
M  V30 40 1 11 37
M  V30 41 1 13 38
M  V30 42 1 15 39
M  V30 43 1 15 40
M  V30 44 1 16 41
M  V30 45 1 18 42
M  V30 46 1 18 43
M  V30 47 1 20 44
M  V30 48 1 20 45
M  V30 49 1 20 46
M  V30 50 1 21 47
M  V30 51 1 21 48
M  V30 52 1 22 49
M  V30 53 1 25 50
M  V30 54 1 25 51
M  V30 55 1 26 52
M  V30 END BOND
M  V30 BEGIN COLLECTION
M  V30 MDLV30/STEABS ATOMS=(6 7 9 13 16 17 19)
M  V30 END COLLECTION
M  V30 END CTAB
M  END
>  <Structure No>
7114

>  <LogS>
-3.48

>  <MMFF94 Energy>
127.38

$$$$
Compound 7115
Actelion Java MolfileCreator 2.0

  0  0  0  0  0  0              0 V3000
M  V30 BEGIN CTAB
M  V30 COUNTS 25 27 0 0 0
M  V30 BEGIN ATOM
M  V30 1 O -0.0806 1.3709 -2.2587 0
M  V30 2 C -0.1336 0.6874 -1.1994 0
M  V30 3 N 1.0129 0.2888 -0.5828 0
M  V30 4 C -1.3699 0.322 -0.6322 0
M  V30 5 C 0.9947 -0.435 0.5466 0
M  V30 6 C 2.3711 0.5708 -1.0135 0
M  V30 7 C -1.3572 -0.4456 0.5604 0
M  V30 8 C -2.6002 0.6905 -1.2047 0
M  V30 9 N -0.1736 -0.8081 1.1262 0
M  V30 10 C 2.3421 -0.7623 1.0676 0 CFG=1
M  V30 11 C 3.2793 -0.1511 0.0025 0
M  V30 12 C -2.5639 -0.8291 1.1561 0
M  V30 13 C -3.7985 0.3001 -0.5985 0
M  V30 14 O 2.5498 -0.1973 2.3385 0
M  V30 15 C -3.7806 -0.4566 0.5769 0
M  V30 16 H 2.5375 0.1782 -2.0402 0
M  V30 17 H 2.5543 1.6672 -0.9911 0
M  V30 18 H -2.6379 1.2765 -2.1147 0
M  V30 19 H 2.4711 -1.8644 1.1227 0
M  V30 20 H 3.8489 -0.9589 -0.5068 0
M  V30 21 H 4.0049 0.561 0.4532 0
M  V30 22 H -2.5614 -1.415 2.0669 0
M  V30 23 H -4.7443 0.5849 -1.0411 0
M  V30 24 H 2.405 0.7833 2.2652 0
M  V30 25 H -4.7121 -0.755 1.0404 0
M  V30 END ATOM
M  V30 BEGIN BOND
M  V30 1 2 1 2
M  V30 2 1 2 3
M  V30 3 1 2 4
M  V30 4 1 3 5
M  V30 5 1 3 6
M  V30 6 2 4 7
M  V30 7 1 4 8
M  V30 8 2 5 9
M  V30 9 1 5 10
M  V30 10 1 6 11
M  V30 11 1 7 12
M  V30 12 2 8 13
M  V30 13 1 10 14
M  V30 14 2 12 15
M  V30 15 1 7 9
M  V30 16 1 10 11
M  V30 17 1 13 15
M  V30 18 1 6 16
M  V30 19 1 6 17
M  V30 20 1 8 18
M  V30 21 1 10 19
M  V30 22 1 11 20
M  V30 23 1 11 21
M  V30 24 1 12 22
M  V30 25 1 13 23
M  V30 26 1 14 24
M  V30 27 1 15 25
M  V30 END BOND
M  V30 BEGIN COLLECTION
M  V30 MDLV30/STEABS ATOMS=(1 10)
M  V30 END COLLECTION
M  V30 END CTAB
M  END
>  <Structure No>
7115

>  <LogS>
-2.1

>  <MMFF94 Energy>
12.778

$$$$
Compound 7116
Actelion Java MolfileCreator 2.0

  0  0  0  0  0  0              0 V3000
M  V30 BEGIN CTAB
M  V30 COUNTS 30 31 0 0 0
M  V30 BEGIN ATOM
M  V30 1 O -3.875 -0.6318 0.7108 0
M  V30 2 C -2.6748 -0.4169 0.3789 0
M  V30 3 N -2.138 0.8517 0.5234 0
M  V30 4 N -1.9171 -1.4492 -0.1301 0
M  V30 5 C -0.856 1.1149 0.0968 0
M  V30 6 C -2.9698 1.9428 1.0583 0
M  V30 7 C -0.6496 -1.1696 -0.5377 0
M  V30 8 C -2.4838 -2.7929 -0.3062 0
M  V30 9 O -0.3693 2.2759 0.1734 0
M  V30 10 C -0.1112 0.0678 -0.4346 0
M  V30 11 N 0.2275 -2.0301 -1.0915 0
M  V30 12 N 1.1413 0.0378 -0.9263 0
M  V30 13 C 1.3169 -1.2505 -1.3121 0
M  V30 14 C 2.139 1.1077 -0.9953 0
M  V30 15 C 2.8045 1.3368 0.3676 0
M  V30 16 C 3.6426 0.139 0.8099 0
M  V30 17 H -2.3501 2.7142 1.5635 0
M  V30 18 H -3.5384 2.417 0.2309 0
M  V30 19 H -3.6826 1.5656 1.8224 0
M  V30 20 H -3.1516 -3.051 0.5432 0
M  V30 21 H -1.6873 -3.5664 -0.3385 0
M  V30 22 H -3.0637 -2.8307 -1.2522 0
M  V30 23 H 2.2342 -1.6263 -1.7465 0
M  V30 24 H 2.9138 0.855 -1.7522 0
M  V30 25 H 1.6563 2.0477 -1.3363 0
M  V30 26 H 2.0332 1.5485 1.1384 0
M  V30 27 H 3.4666 2.2264 0.2952 0
M  V30 28 H 4.4055 -0.1055 0.0406 0
M  V30 29 H 2.9953 -0.7461 0.9825 0
M  V30 30 H 4.1626 0.382 1.7603 0
M  V30 END ATOM
M  V30 BEGIN BOND
M  V30 1 2 1 2
M  V30 2 1 2 3
M  V30 3 1 2 4
M  V30 4 1 3 5
M  V30 5 1 3 6
M  V30 6 1 4 7
M  V30 7 1 4 8
M  V30 8 2 5 9
M  V30 9 1 5 10
M  V30 10 1 7 11
M  V30 11 1 10 12
M  V30 12 2 11 13
M  V30 13 1 12 14
M  V30 14 1 14 15
M  V30 15 1 15 16
M  V30 16 2 7 10
M  V30 17 1 12 13
M  V30 18 1 6 17
M  V30 19 1 6 18
M  V30 20 1 6 19
M  V30 21 1 8 20
M  V30 22 1 8 21
M  V30 23 1 8 22
M  V30 24 1 13 23
M  V30 25 1 14 24
M  V30 26 1 14 25
M  V30 27 1 15 26
M  V30 28 1 15 27
M  V30 29 1 16 28
M  V30 30 1 16 29
M  V30 31 1 16 30
M  V30 END BOND
M  V30 END CTAB
M  END
>  <Structure No>
7116

>  <LogS>
0.02

>  <MMFF94 Energy>
-126.15

$$$$
Compound 7117
Actelion Java MolfileCreator 2.0

  0  0  0  0  0  0              0 V3000
M  V30 BEGIN CTAB
M  V30 COUNTS 27 28 0 0 0
M  V30 BEGIN ATOM
M  V30 1 O 0.6355 -3.0216 -2.7032 0
M  V30 2 C 0.8717 -2.0395 -1.951 0
M  V30 3 N -0.0554 -1.1249 -1.6141 0
M  V30 4 N 2.0763 -1.8001 -1.4028 0
M  V30 5 C 0.5885 -0.2576 -0.8053 0
M  V30 6 C 1.9132 -0.6692 -0.6881 0
M  V30 7 C -0.0431 0.9325 -0.1926 0
M  V30 8 C 2.993 -0.0637 0.163 0
M  V30 9 O 0.6659 1.9432 0.0611 0
M  V30 10 C -1.4923 0.9767 0.1124 0
M  V30 11 C 2.7752 -0.397 1.635 0
M  V30 12 C -2.1909 -0.1829 0.4897 0
M  V30 13 C -2.1837 2.1986 0.071 0
M  V30 14 C -3.5532 -0.1028 0.7884 0
M  V30 15 C -3.5464 2.2335 0.3771 0
M  V30 16 N -4.1971 1.0923 0.7252 0
M  V30 17 H -1.0504 -1.0914 -1.93 0
M  V30 18 H 2.9445 -2.3722 -1.5028 0
M  V30 19 H 3.0202 1.0366 0.0239 0
M  V30 20 H 3.9803 -0.462 -0.1547 0
M  V30 21 H 1.8091 0.021 1.9899 0
M  V30 22 H 3.5952 0.0428 2.2407 0
M  V30 23 H 2.7737 -1.4981 1.7836 0
M  V30 24 H -1.6873 -1.1376 0.5714 0
M  V30 25 H -1.6776 3.1152 -0.206 0
M  V30 26 H -4.0978 -0.9917 1.0778 0
M  V30 27 H -4.0869 3.1698 0.3388 0
M  V30 END ATOM
M  V30 BEGIN BOND
M  V30 1 2 1 2
M  V30 2 1 2 3
M  V30 3 1 2 4
M  V30 4 1 3 5
M  V30 5 1 4 6
M  V30 6 1 5 7
M  V30 7 1 6 8
M  V30 8 2 7 9
M  V30 9 1 7 10
M  V30 10 1 8 11
M  V30 11 2 10 12
M  V30 12 1 10 13
M  V30 13 1 12 14
M  V30 14 2 13 15
M  V30 15 2 14 16
M  V30 16 2 5 6
M  V30 17 1 15 16
M  V30 18 1 3 17
M  V30 19 1 4 18
M  V30 20 1 8 19
M  V30 21 1 8 20
M  V30 22 1 11 21
M  V30 23 1 11 22
M  V30 24 1 11 23
M  V30 25 1 12 24
M  V30 26 1 13 25
M  V30 27 1 14 26
M  V30 28 1 15 27
M  V30 END BOND
M  V30 END CTAB
M  END
>  <Structure No>
7117

>  <LogS>
-1.99

>  <MMFF94 Energy>
9.4756

$$$$
Compound 7118
Actelion Java MolfileCreator 2.0

  0  0  0  0  0  0              0 V3000
M  V30 BEGIN CTAB
M  V30 COUNTS 35 35 0 0 0
M  V30 BEGIN ATOM
M  V30 1 O -3.1697 0.7125 -3.4871 0
M  V30 2 C -3.1634 1.1228 -2.2949 0
M  V30 3 N -4.1523 2.0618 -1.8706 0
M  V30 4 C -2.0988 0.6495 -1.3403 0 CFG=1
M  V30 5 N -2.0328 -0.8162 -1.3579 0
M  V30 6 C -0.737 1.2505 -1.728 0
M  V30 7 C -1.9002 -1.6044 -0.1657 0
M  V30 8 C 0.3304 0.8735 -0.7329 0
M  V30 9 O -1.9465 -1.0619 0.9713 0
M  V30 10 C -1.6539 -3.0736 -0.2695 0
M  V30 11 C 1.1671 -0.2276 -0.9715 0
M  V30 12 C 0.4587 1.5858 0.4692 0
M  V30 13 C 2.1208 -0.6066 -0.0231 0
M  V30 14 C 1.4131 1.2058 1.4171 0
M  V30 15 C 2.2425 0.0936 1.1825 0
M  V30 16 O 3.2191 -0.3213 2.1001 0
M  V30 17 C 3.1525 -0.1465 3.4884 0
M  V30 18 O 2.0578 0.1052 4.0611 0
M  V30 19 C 4.3735 -0.3782 4.3112 0
M  V30 20 H -4.8832 2.3931 -2.5386 0
M  V30 21 H -4.1568 2.434 -0.8952 0
M  V30 22 H -2.3649 1.0063 -0.3211 0
M  V30 23 H -1.9265 -1.2994 -2.2791 0
M  V30 24 H -0.8192 2.3594 -1.7697 0
M  V30 25 H -0.4475 0.908 -2.7463 0
M  V30 26 H -2.3423 -3.5187 -1.0179 0
M  V30 27 H -1.8243 -3.5674 0.7107 0
M  V30 28 H -0.6051 -3.2488 -0.5869 0
M  V30 29 H 1.0745 -0.7985 -1.8869 0
M  V30 30 H -0.1805 2.4365 0.6711 0
M  V30 31 H 2.7599 -1.458 -0.2195 0
M  V30 32 H 1.5152 1.7964 2.317 0
M  V30 33 H 4.3704 0.2915 5.197 0
M  V30 34 H 4.3962 -1.4347 4.6502 0
M  V30 35 H 5.2813 -0.1692 3.7076 0
M  V30 END ATOM
M  V30 BEGIN BOND
M  V30 1 2 1 2
M  V30 2 1 2 3
M  V30 3 1 2 4
M  V30 4 1 4 5
M  V30 5 1 4 6
M  V30 6 1 5 7
M  V30 7 1 6 8
M  V30 8 2 7 9
M  V30 9 1 7 10
M  V30 10 2 8 11
M  V30 11 1 8 12
M  V30 12 1 11 13
M  V30 13 2 12 14
M  V30 14 2 13 15
M  V30 15 1 15 16
M  V30 16 1 16 17
M  V30 17 2 17 18
M  V30 18 1 17 19
M  V30 19 1 14 15
M  V30 20 1 3 20
M  V30 21 1 3 21
M  V30 22 1 4 22
M  V30 23 1 5 23
M  V30 24 1 6 24
M  V30 25 1 6 25
M  V30 26 1 10 26
M  V30 27 1 10 27
M  V30 28 1 10 28
M  V30 29 1 11 29
M  V30 30 1 12 30
M  V30 31 1 13 31
M  V30 32 1 14 32
M  V30 33 1 19 33
M  V30 34 1 19 34
M  V30 35 1 19 35
M  V30 END BOND
M  V30 BEGIN COLLECTION
M  V30 MDLV30/STEABS ATOMS=(1 4)
M  V30 END COLLECTION
M  V30 END CTAB
M  END
>  <Structure No>
7118

>  <LogS>
-1.9

>  <MMFF94 Energy>
15.314

$$$$
Compound 7119
Actelion Java MolfileCreator 2.0

  0  0  0  0  0  0              0 V3000
M  V30 BEGIN CTAB
M  V30 COUNTS 30 31 0 0 0
M  V30 BEGIN ATOM
M  V30 1 N 1.1894 -0.9514 -0.6342 0
M  V30 2 C -0.0096 -0.439 -0.2479 0
M  V30 3 C 2.2566 -0.1441 -0.8674 0
M  V30 4 N -0.1525 0.9079 -0.1122 0
M  V30 5 N -1.1225 -1.321 -0.0427 0
M  V30 6 C 3.5099 -0.7198 -1.2708 0
M  V30 7 C 2.1286 1.2386 -0.7183 0
M  V30 8 C 0.8889 1.7545 -0.3283 0
M  V30 9 C -2.3627 -0.9286 0.5698 0
M  V30 10 C 4.5614 -1.2027 -1.6093 0
M  V30 11 C 0.6947 3.2293 -0.176 0
M  V30 12 C -3.5624 -1.5098 0.1295 0
M  V30 13 C -2.3955 -0.0202 1.6447 0
M  V30 14 C 5.8374 -1.7883 -2.0201 0
M  V30 15 C -4.7785 -1.1603 0.7251 0
M  V30 16 C -3.6138 0.3262 2.238 0
M  V30 17 C -4.8047 -0.2396 1.7757 0
M  V30 18 H -1.0524 -2.2861 -0.4383 0
M  V30 19 H 2.969 1.8978 -0.9039 0
M  V30 20 H 0.7716 3.7199 -1.1689 0
M  V30 21 H -0.305 3.4478 0.2561 0
M  V30 22 H 1.4716 3.6453 0.4997 0
M  V30 23 H -3.5544 -2.2258 -0.6825 0
M  V30 24 H -1.4821 0.4013 2.0425 0
M  V30 25 H 6.5805 -0.9803 -2.181 0
M  V30 26 H 6.2022 -2.4735 -1.2274 0
M  V30 27 H 5.6976 -2.3552 -2.9634 0
M  V30 28 H -5.7005 -1.6052 0.3732 0
M  V30 29 H -3.6333 1.0268 3.063 0
M  V30 30 H -5.7464 0.0284 2.2374 0
M  V30 END ATOM
M  V30 BEGIN BOND
M  V30 1 2 1 2
M  V30 2 1 1 3
M  V30 3 1 2 4
M  V30 4 1 2 5
M  V30 5 1 3 6
M  V30 6 2 3 7
M  V30 7 2 4 8
M  V30 8 1 5 9
M  V30 9 3 6 10
M  V30 10 1 8 11
M  V30 11 2 9 12
M  V30 12 1 9 13
M  V30 13 1 10 14
M  V30 14 1 12 15
M  V30 15 2 13 16
M  V30 16 2 15 17
M  V30 17 1 7 8
M  V30 18 1 16 17
M  V30 19 1 5 18
M  V30 20 1 7 19
M  V30 21 1 11 20
M  V30 22 1 11 21
M  V30 23 1 11 22
M  V30 24 1 12 23
M  V30 25 1 13 24
M  V30 26 1 14 25
M  V30 27 1 14 26
M  V30 28 1 14 27
M  V30 29 1 15 28
M  V30 30 1 16 29
M  V30 31 1 17 30
M  V30 END BOND
M  V30 END CTAB
M  END
>  <Structure No>
7119

>  <LogS>
-4.6

>  <MMFF94 Energy>
-55.844

$$$$
Compound 7120
Actelion Java MolfileCreator 2.0

  0  0  0  0  0  0              0 V3000
M  V30 BEGIN CTAB
M  V30 COUNTS 26 27 0 0 0
M  V30 BEGIN ATOM
M  V30 1 S 0.0 -0.3269 -0.8174 0
M  V30 2 C 1.6997 -0.7667 -0.4596 0
M  V30 3 C -0.3718 0.1182 0.9117 0
M  V30 4 N 2.0274 -2.0475 -0.1168 0
M  V30 5 C 2.7292 0.1635 -0.5213 0
M  V30 6 O -1.7304 0.529 1.0278 0
M  V30 7 C 3.3236 -2.4024 0.1599 0
M  V30 8 N 2.7017 1.4671 -0.8209 0
M  V30 9 C 4.0 -0.2042 -0.2445 0
M  V30 10 C -2.8079 -0.3588 0.9382 0
M  V30 11 N 4.3261 -1.4736 0.0976 0
M  V30 12 C 3.9993 1.8491 -0.7109 0
M  V30 13 N 4.8393 0.8388 -0.3538 0
M  V30 14 O -2.6143 -1.5936 0.7694 0
M  V30 15 C -4.2042 0.1724 0.9981 0
M  V30 16 C -4.673 0.6 -0.3873 0
M  V30 17 H 0.28 0.9639 1.2153 0
M  V30 18 H -0.1748 -0.7423 1.587 0
M  V30 19 H 3.5542 -3.4237 0.4296 0
M  V30 20 H 1.8795 2.0575 -1.0767 0
M  V30 21 H 4.3357 2.862 -0.8887 0
M  V30 22 H -4.2369 1.0455 1.6845 0
M  V30 23 H -4.8884 -0.6076 1.3965 0
M  V30 24 H -5.7086 0.9954 -0.3236 0
M  V30 25 H -4.0119 1.3977 -0.7891 0
M  V30 26 H -4.6652 -0.2672 -1.0816 0
M  V30 END ATOM
M  V30 BEGIN BOND
M  V30 1 1 1 2
M  V30 2 1 1 3
M  V30 3 2 2 4
M  V30 4 1 2 5
M  V30 5 1 3 6
M  V30 6 1 4 7
M  V30 7 1 5 8
M  V30 8 2 5 9
M  V30 9 1 6 10
M  V30 10 2 7 11
M  V30 11 1 8 12
M  V30 12 1 9 13
M  V30 13 2 10 14
M  V30 14 1 10 15
M  V30 15 1 15 16
M  V30 16 1 9 11
M  V30 17 2 12 13
M  V30 18 1 3 17
M  V30 19 1 3 18
M  V30 20 1 7 19
M  V30 21 1 8 20
M  V30 22 1 12 21
M  V30 23 1 15 22
M  V30 24 1 15 23
M  V30 25 1 16 24
M  V30 26 1 16 25
M  V30 27 1 16 26
M  V30 END BOND
M  V30 END CTAB
M  END
>  <Structure No>
7120

>  <LogS>
-2.39

>  <MMFF94 Energy>
-84.532

$$$$
Compound 7121
Actelion Java MolfileCreator 2.0

  0  0  0  0  0  0              0 V3000
M  V30 BEGIN CTAB
M  V30 COUNTS 46 48 0 0 0
M  V30 BEGIN ATOM
M  V30 1 S 2.7011 1.5545 0.6543 0
M  V30 2 C 4.3326 0.7399 0.2938 0
M  V30 3 C 1.7524 0.007 0.4322 0 CFG=2
M  V30 4 C 4.1181 -0.7954 0.4526 0 CFG=1
M  V30 5 C 4.7341 1.1417 -1.1399 0
M  V30 6 C 5.3759 1.2622 1.2933 0
M  V30 7 N 2.7319 -0.981 0.0981 0 CFG=2
M  V30 8 C 1.0532 -0.1138 -0.8206 0 CFG=1
M  V30 9 C 5.0477 -1.6928 -0.3282 0
M  V30 10 C 2.0015 -1.2145 -1.1743 0
M  V30 11 N -0.3189 -0.5987 -0.6564 0
M  V30 12 O 6.2882 -1.4767 -0.3204 0
M  V30 13 O 4.5682 -2.8389 -0.9499 0 CHG=-1
M  V30 14 O 2.1537 -1.9692 -2.1699 0
M  V30 15 C -1.3555 0.2644 -0.1525 0
M  V30 16 O -1.0959 1.488 0.0236 0
M  V30 17 C -2.7776 -0.2313 0.1282 0
M  V30 18 N -2.8439 -1.7077 0.0668 0 CHG=1
M  V30 19 C -3.7032 0.3727 -0.9652 0
M  V30 20 C -3.2189 0.2418 1.5625 0
M  V30 21 C -5.1946 0.0675 -0.7287 0
M  V30 22 C -4.6016 0.9157 1.6065 0
M  V30 23 C -5.6179 0.1556 0.7516 0
M  V30 24 H 1.1738 -0.2874 1.3368 0
M  V30 25 H 4.22 -1.0708 1.5253 0
M  V30 26 H 4.7248 2.2479 -1.2456 0
M  V30 27 H 5.7569 0.7905 -1.3883 0
M  V30 28 H 4.0225 0.7189 -1.8801 0
M  V30 29 H 6.3635 0.7872 1.115 0
M  V30 30 H 5.0601 1.0423 2.3356 0
M  V30 31 H 5.4913 2.3629 1.1929 0
M  V30 32 H 1.1322 0.7591 -1.5052 0
M  V30 33 H -0.5441 -1.561 -0.9906 0
M  V30 34 H -2.1185 -2.1338 0.6893 0
M  V30 35 H -2.7094 -2.0519 -0.9117 0
M  V30 36 H -3.7764 -2.0517 0.3903 0
M  V30 37 H -3.5759 1.4784 -0.9913 0
M  V30 38 H -3.4103 -0.0053 -1.9696 0
M  V30 39 H -3.2336 -0.6235 2.2616 0
M  V30 40 H -2.4918 0.9553 2.0078 0
M  V30 41 H -5.7978 0.7852 -1.3269 0
M  V30 42 H -5.4285 -0.9489 -1.1136 0
M  V30 43 H -4.5209 1.9634 1.242 0
M  V30 44 H -4.9595 0.9546 2.6583 0
M  V30 45 H -6.6059 0.6601 0.8247 0
M  V30 46 H -5.7427 -0.8682 1.1669 0
M  V30 END ATOM
M  V30 BEGIN BOND
M  V30 1 1 1 2
M  V30 2 1 1 3
M  V30 3 1 2 4
M  V30 4 1 2 5
M  V30 5 1 2 6
M  V30 6 1 3 7
M  V30 7 1 3 8
M  V30 8 1 4 9
M  V30 9 1 7 10
M  V30 10 1 8 11
M  V30 11 2 9 12
M  V30 12 1 9 13
M  V30 13 2 10 14
M  V30 14 1 11 15
M  V30 15 2 15 16
M  V30 16 1 15 17
M  V30 17 1 17 18
M  V30 18 1 17 19
M  V30 19 1 17 20
M  V30 20 1 19 21
M  V30 21 1 20 22
M  V30 22 1 21 23
M  V30 23 1 4 7
M  V30 24 1 8 10
M  V30 25 1 22 23
M  V30 26 1 3 24
M  V30 27 1 4 25
M  V30 28 1 5 26
M  V30 29 1 5 27
M  V30 30 1 5 28
M  V30 31 1 6 29
M  V30 32 1 6 30
M  V30 33 1 6 31
M  V30 34 1 8 32
M  V30 35 1 11 33
M  V30 36 1 18 34
M  V30 37 1 18 35
M  V30 38 1 18 36
M  V30 39 1 19 37
M  V30 40 1 19 38
M  V30 41 1 20 39
M  V30 42 1 20 40
M  V30 43 1 21 41
M  V30 44 1 21 42
M  V30 45 1 22 43
M  V30 46 1 22 44
M  V30 47 1 23 45
M  V30 48 1 23 46
M  V30 END BOND
M  V30 BEGIN COLLECTION
M  V30 MDLV30/STEABS ATOMS=(4 3 4 7 8)
M  V30 END COLLECTION
M  V30 END CTAB
M  END
>  <Structure No>
7121

>  <LogS>
-1.04

>  <MMFF94 Energy>
31.323

$$$$
Compound 7122
Actelion Java MolfileCreator 2.0

  0  0  0  0  0  0              0 V3000
M  V30 BEGIN CTAB
M  V30 COUNTS 29 30 0 0 0
M  V30 BEGIN ATOM
M  V30 1 O -1.2798 -2.641 -1.68 0
M  V30 2 C -2.4216 -2.3609 -1.2285 0
M  V30 3 O -3.4782 -3.2224 -1.5007 0 CHG=-1
M  V30 4 C -2.6545 -1.117 -0.453 0
M  V30 5 C -1.5976 -0.3897 0.1538 0
M  V30 6 C -3.9688 -0.6236 -0.3477 0
M  V30 7 N -0.2538 -0.9006 0.1637 0
M  V30 8 C -1.8836 0.8039 0.8396 0
M  V30 9 C -4.2324 0.5673 0.3311 0
M  V30 10 C 0.9087 -0.1 -0.1151 0
M  V30 11 C -3.1915 1.2816 0.9207 0
M  V30 12 C 2.1651 -0.5234 0.3461 0
M  V30 13 C 0.8213 1.0742 -0.8847 0
M  V30 14 C 3.317 0.2337 0.0805 0
M  V30 15 C 1.9686 1.8198 -1.1662 0
M  V30 16 C 3.2127 1.4014 -0.6893 0
M  V30 17 C 4.6588 -0.2421 0.5527 0
M  V30 18 H -4.7961 -1.151 -0.8061 0
M  V30 19 H -0.1146 -1.8961 0.4502 0
M  V30 20 H -1.0912 1.3544 1.3309 0
M  V30 21 H -5.2472 0.938 0.3986 0
M  V30 22 H -3.3995 2.2015 1.4518 0
M  V30 23 H 2.2435 -1.4394 0.9193 0
M  V30 24 H -0.1281 1.4052 -1.2846 0
M  V30 25 H 1.8946 2.7193 -1.7635 0
M  V30 26 H 4.0946 1.9845 -0.9244 0
M  V30 27 H 5.103 -0.9119 -0.2126 0
M  V30 28 H 4.5623 -0.7984 1.5094 0
M  V30 29 H 5.3421 0.6168 0.7231 0
M  V30 END ATOM
M  V30 BEGIN BOND
M  V30 1 2 1 2
M  V30 2 1 2 3
M  V30 3 1 2 4
M  V30 4 2 4 5
M  V30 5 1 4 6
M  V30 6 1 5 7
M  V30 7 1 5 8
M  V30 8 2 6 9
M  V30 9 1 7 10
M  V30 10 2 8 11
M  V30 11 2 10 12
M  V30 12 1 10 13
M  V30 13 1 12 14
M  V30 14 2 13 15
M  V30 15 2 14 16
M  V30 16 1 14 17
M  V30 17 1 9 11
M  V30 18 1 15 16
M  V30 19 1 6 18
M  V30 20 1 7 19
M  V30 21 1 8 20
M  V30 22 1 9 21
M  V30 23 1 11 22
M  V30 24 1 12 23
M  V30 25 1 13 24
M  V30 26 1 15 25
M  V30 27 1 16 26
M  V30 28 1 17 27
M  V30 29 1 17 28
M  V30 30 1 17 29
M  V30 END BOND
M  V30 END CTAB
M  END
>  <Structure No>
7122

>  <LogS>
-5.06

>  <MMFF94 Energy>
46.73

$$$$
Compound 7123
Actelion Java MolfileCreator 2.0

  0  0  0  0  0  0              0 V3000
M  V30 BEGIN CTAB
M  V30 COUNTS 29 30 0 0 0
M  V30 BEGIN ATOM
M  V30 1 O 4.0541 -2.0652 -2.7013 0
M  V30 2 C 3.2883 -1.485 -1.8871 0
M  V30 3 N 1.944 -1.5254 -2.0823 0
M  V30 4 N 3.8065 -0.8196 -0.8161 0
M  V30 5 C 1.0988 -0.9083 -1.2194 0
M  V30 6 C 2.9961 -0.1848 0.0787 0
M  V30 7 N -0.2416 -0.95 -1.4215 0
M  V30 8 C 1.6072 -0.2204 -0.1106 0
M  V30 9 N 3.5702 0.5055 1.1947 0
M  V30 10 C -1.1138 -0.3343 -0.5757 0
M  V30 11 N 0.7469 0.3884 0.7458 0
M  V30 12 C -0.6015 0.3451 0.56 0
M  V30 13 C -2.5871 -0.4597 -0.8649 0
M  V30 14 C -1.4743 1.0763 1.5463 0
M  V30 15 C -3.1656 -1.7045 -0.1995 0
M  V30 16 C -1.6804 2.5254 1.1165 0
M  V30 17 H 4.8427 -0.7975 -0.6806 0
M  V30 18 H 4.6056 0.5256 1.3271 0
M  V30 19 H 2.9748 1.0007 1.8951 0
M  V30 20 H -2.7376 -0.5408 -1.9633 0
M  V30 21 H -3.1448 0.4403 -0.5347 0
M  V30 22 H -2.4558 0.5751 1.6717 0
M  V30 23 H -0.9839 1.0676 2.544 0
M  V30 24 H -4.2502 -1.777 -0.4263 0
M  V30 25 H -3.0359 -1.656 0.9021 0
M  V30 26 H -2.6605 -2.6158 -0.5848 0
M  V30 27 H -2.1733 2.5728 0.1228 0
M  V30 28 H -0.7039 3.0527 1.0633 0
M  V30 29 H -2.3242 3.0449 1.8573 0
M  V30 END ATOM
M  V30 BEGIN BOND
M  V30 1 2 1 2
M  V30 2 1 2 3
M  V30 3 1 2 4
M  V30 4 2 3 5
M  V30 5 1 4 6
M  V30 6 1 5 7
M  V30 7 1 5 8
M  V30 8 1 6 9
M  V30 9 2 7 10
M  V30 10 1 8 11
M  V30 11 1 10 12
M  V30 12 1 10 13
M  V30 13 1 12 14
M  V30 14 1 13 15
M  V30 15 1 14 16
M  V30 16 2 6 8
M  V30 17 2 11 12
M  V30 18 1 4 17
M  V30 19 1 9 18
M  V30 20 1 9 19
M  V30 21 1 13 20
M  V30 22 1 13 21
M  V30 23 1 14 22
M  V30 24 1 14 23
M  V30 25 1 15 24
M  V30 26 1 15 25
M  V30 27 1 15 26
M  V30 28 1 16 27
M  V30 29 1 16 28
M  V30 30 1 16 29
M  V30 END BOND
M  V30 END CTAB
M  END
>  <Structure No>
7123

>  <LogS>
-3.55

>  <MMFF94 Energy>
-4.3743

$$$$
Compound 7124
Actelion Java MolfileCreator 2.0

  0  0  0  0  0  0              0 V3000
M  V30 BEGIN CTAB
M  V30 COUNTS 29 30 0 0 0
M  V30 BEGIN ATOM
M  V30 1 O 2.0649 2.9396 -1.2703 0
M  V30 2 C 2.3015 1.7766 -0.8482 0
M  V30 3 N 3.5833 1.3897 -0.6184 0
M  V30 4 C 1.2589 0.8778 -0.612 0
M  V30 5 C 3.8742 0.141 -0.161 0
M  V30 6 N -0.0395 1.215 -0.8196 0
M  V30 7 C 1.5723 -0.4027 -0.142 0
M  V30 8 N 2.8694 -0.7501 0.0756 0
M  V30 9 N 5.2338 -0.2287 0.0686 0
M  V30 10 C -1.0562 0.3385 -0.5864 0
M  V30 11 N 0.5691 -1.2871 0.0894 0
M  V30 12 C -0.738 -0.9676 -0.1236 0
M  V30 13 C -2.4653 0.8264 -0.8221 0
M  V30 14 C -1.7718 -2.0266 0.1641 0
M  V30 15 C -2.836 1.9173 0.1791 0
M  V30 16 C -2.4197 -1.8159 1.5293 0
M  V30 17 H 3.0954 -1.7084 0.4264 0
M  V30 18 H 6.0032 0.4534 -0.1124 0
M  V30 19 H 5.4757 -1.182 0.4192 0
M  V30 20 H -3.2184 0.0187 -0.7594 0
M  V30 21 H -2.5287 1.2465 -1.8489 0
M  V30 22 H -1.2803 -3.0241 0.1641 0
M  V30 23 H -2.5417 -2.065 -0.6335 0
M  V30 24 H -2.7468 1.5382 1.2189 0
M  V30 25 H -3.8845 2.2401 0.0066 0
M  V30 26 H -2.1714 2.799 0.0557 0
M  V30 27 H -1.6446 -1.8007 2.3251 0
M  V30 28 H -3.125 -2.648 1.7368 0
M  V30 29 H -2.9866 -0.8634 1.5536 0
M  V30 END ATOM
M  V30 BEGIN BOND
M  V30 1 2 1 2
M  V30 2 1 2 3
M  V30 3 1 2 4
M  V30 4 2 3 5
M  V30 5 2 4 6
M  V30 6 1 4 7
M  V30 7 1 5 8
M  V30 8 1 5 9
M  V30 9 1 6 10
M  V30 10 2 7 11
M  V30 11 2 10 12
M  V30 12 1 10 13
M  V30 13 1 12 14
M  V30 14 1 13 15
M  V30 15 1 14 16
M  V30 16 1 7 8
M  V30 17 1 11 12
M  V30 18 1 8 17
M  V30 19 1 9 18
M  V30 20 1 9 19
M  V30 21 1 13 20
M  V30 22 1 13 21
M  V30 23 1 14 22
M  V30 24 1 14 23
M  V30 25 1 15 24
M  V30 26 1 15 25
M  V30 27 1 15 26
M  V30 28 1 16 27
M  V30 29 1 16 28
M  V30 30 1 16 29
M  V30 END BOND
M  V30 END CTAB
M  END
>  <Structure No>
7124

>  <LogS>
-4.28

>  <MMFF94 Energy>
-10.417

$$$$
Compound 7125
Actelion Java MolfileCreator 2.0

  0  0  0  0  0  0              0 V3000
M  V30 BEGIN CTAB
M  V30 COUNTS 27 28 0 0 0
M  V30 BEGIN ATOM
M  V30 1 O 4.9686 -1.4405 1.5206 0
M  V30 2 C 4.0069 -0.8467 0.9656 0
M  V30 3 N 4.1997 0.3699 0.3811 0
M  V30 4 N 2.7761 -1.4243 0.9524 0 CHG=-1
M  V30 5 C 3.1705 1.0261 -0.2238 0
M  V30 6 C 1.7247 -0.8037 0.3599 0
M  V30 7 O 3.3676 2.1504 -0.7594 0
M  V30 8 C 1.8998 0.4445 -0.2459 0
M  V30 9 N 0.4978 -1.3803 0.3536 0
M  V30 10 N 0.8409 1.0538 -0.8376 0
M  V30 11 C -0.5771 -0.7802 -0.2312 0
M  V30 12 C -0.3954 0.482 -0.861 0
M  V30 13 C -1.9033 -1.497 -0.1542 0
M  V30 14 C -1.5032 1.241 -1.5463 0
M  V30 15 C -2.4034 -1.5591 1.2865 0
M  V30 16 C -2.372 1.9882 -0.5392 0
M  V30 17 H 5.1504 0.805 0.3975 0
M  V30 18 H -2.6855 -1.0271 -0.7795 0
M  V30 19 H -1.7695 -2.5334 -0.5315 0
M  V30 20 H -1.0577 1.9869 -2.2402 0
M  V30 21 H -2.1221 0.5692 -2.1757 0
M  V30 22 H -1.6953 -2.1367 1.9181 0
M  V30 23 H -3.3925 -2.0628 1.3158 0
M  V30 24 H -2.5121 -0.5366 1.7056 0
M  V30 25 H -1.7486 2.6745 0.0728 0
M  V30 26 H -2.8985 1.2786 0.1301 0
M  V30 27 H -3.1334 2.5885 -1.0804 0
M  V30 END ATOM
M  V30 BEGIN BOND
M  V30 1 2 1 2
M  V30 2 1 2 3
M  V30 3 1 2 4
M  V30 4 1 3 5
M  V30 5 1 4 6
M  V30 6 2 5 7
M  V30 7 1 5 8
M  V30 8 1 6 9
M  V30 9 1 8 10
M  V30 10 2 9 11
M  V30 11 2 10 12
M  V30 12 1 11 13
M  V30 13 1 12 14
M  V30 14 1 13 15
M  V30 15 1 14 16
M  V30 16 2 6 8
M  V30 17 1 11 12
M  V30 18 1 3 17
M  V30 19 1 13 18
M  V30 20 1 13 19
M  V30 21 1 14 20
M  V30 22 1 14 21
M  V30 23 1 15 22
M  V30 24 1 15 23
M  V30 25 1 15 24
M  V30 26 1 16 25
M  V30 27 1 16 26
M  V30 28 1 16 27
M  V30 END BOND
M  V30 END CTAB
M  END
>  <Structure No>
7125

>  <LogS>
-2.39

>  <MMFF94 Energy>
55.201

$$$$
Compound 7126
Actelion Java MolfileCreator 2.0

  0  0  0  0  0  0              0 V3000
M  V30 BEGIN CTAB
M  V30 COUNTS 29 30 0 0 0
M  V30 BEGIN ATOM
M  V30 1 S -0.9769 -0.4069 -1.5471 0
M  V30 2 C -2.3867 -1.0112 -0.62 0
M  V30 3 C -0.041 0.045 -0.0543 0
M  V30 4 N -2.4608 -2.3228 -0.246 0
M  V30 5 C -3.4401 -0.181 -0.2579 0
M  V30 6 O 1.2149 0.5868 -0.4421 0
M  V30 7 C -3.5327 -2.8028 0.4639 0
M  V30 8 N -3.6304 1.1243 -0.481 0
M  V30 9 C -4.4872 -0.6716 0.4423 0
M  V30 10 C 2.1653 1.0229 0.4852 0
M  V30 11 N -4.5609 -1.9717 0.8158 0
M  V30 12 C -4.8245 1.3805 0.1111 0
M  V30 13 N -5.3904 0.2896 0.6973 0
M  V30 14 O 1.9369 0.9514 1.7239 0
M  V30 15 C 3.4842 1.5407 6.0E-4 0
M  V30 16 C 4.567 0.455 0.0376 0
M  V30 17 C 4.313 -0.6556 -0.9814 0
M  V30 18 H -0.6108 0.8032 0.5253 0
M  V30 19 H 0.1203 -0.8603 0.5697 0
M  V30 20 H -3.5646 -3.8456 0.7476 0
M  V30 21 H -3.0097 1.7938 -0.9874 0
M  V30 22 H -5.284 2.3601 0.1187 0
M  V30 23 H 3.7991 2.3868 0.6493 0
M  V30 24 H 3.3754 1.9353 -1.0328 0
M  V30 25 H 5.548 0.925 -0.1907 0
M  V30 26 H 4.6313 0.0161 1.0574 0
M  V30 27 H 4.237 -0.2314 -2.0052 0
M  V30 28 H 3.3769 -1.2017 -0.7389 0
M  V30 29 H 5.1555 -1.3783 -0.9588 0
M  V30 END ATOM
M  V30 BEGIN BOND
M  V30 1 1 1 2
M  V30 2 1 1 3
M  V30 3 2 2 4
M  V30 4 1 2 5
M  V30 5 1 3 6
M  V30 6 1 4 7
M  V30 7 1 5 8
M  V30 8 2 5 9
M  V30 9 1 6 10
M  V30 10 2 7 11
M  V30 11 1 8 12
M  V30 12 1 9 13
M  V30 13 2 10 14
M  V30 14 1 10 15
M  V30 15 1 15 16
M  V30 16 1 16 17
M  V30 17 1 9 11
M  V30 18 2 12 13
M  V30 19 1 3 18
M  V30 20 1 3 19
M  V30 21 1 7 20
M  V30 22 1 8 21
M  V30 23 1 12 22
M  V30 24 1 15 23
M  V30 25 1 15 24
M  V30 26 1 16 25
M  V30 27 1 16 26
M  V30 28 1 17 27
M  V30 29 1 17 28
M  V30 30 1 17 29
M  V30 END BOND
M  V30 END CTAB
M  END
>  <Structure No>
7126

>  <LogS>
-2.69

>  <MMFF94 Energy>
-83.932

$$$$
Compound 7127
Actelion Java MolfileCreator 2.0

  0  0  0  0  0  0              0 V3000
M  V30 BEGIN CTAB
M  V30 COUNTS 46 47 0 0 0
M  V30 BEGIN ATOM
M  V30 1 O -2.7022 -1.5094 -0.2382 0
M  V30 2 C -1.5238 -0.8782 0.2325 0 CFG=1
M  V30 3 C -3.6573 -1.6213 0.8045 0 CFG=1
M  V30 4 O -0.5492 -0.9262 -0.8115 0
M  V30 5 C -1.8248 0.5919 0.611 0 CFG=1
M  V30 6 C -4.1475 -0.2185 1.2383 0 CFG=1
M  V30 7 C -4.8152 -2.5014 0.3167 0
M  V30 8 C 0.8216 -0.6427 -0.6774 0
M  V30 9 O -2.2265 1.3122 -0.5272 0
M  V30 10 C -2.9443 0.6441 1.6706 0 CFG=1
M  V30 11 O -4.8264 0.4012 0.1744 0
M  V30 12 O -5.7424 -2.6987 1.3488 0
M  V30 13 C 1.6011 -0.5901 -1.8437 0
M  V30 14 C 1.4316 -0.4261 0.5735 0
M  V30 15 O -2.461 0.1762 2.9051 0
M  V30 16 O 0.9706 -0.8261 -3.076 0
M  V30 17 C 2.9775 -0.3042 -1.7511 0
M  V30 18 C 2.7955 -0.1415 0.6552 0
M  V30 19 C 1.6297 -0.8016 -4.338 0
M  V30 20 C 3.5715 -0.0536 -0.5075 0
M  V30 21 C 5.0209 0.2215 -0.4422 0
M  V30 22 C 5.5616 1.3158 0.113 0
M  V30 23 C 4.7717 2.4409 0.7246 0
M  V30 24 O 4.4612 2.1562 2.0607 0
M  V30 25 H -1.1273 -1.4369 1.111 0
M  V30 26 H -3.2125 -2.1443 1.6845 0
M  V30 27 H -0.9154 1.0665 1.0461 0
M  V30 28 H -4.8392 -0.3313 2.1065 0
M  V30 29 H -5.3145 -2.0301 -0.5595 0
M  V30 30 H -4.4072 -3.4861 -0.004 0
M  V30 31 H -1.4007 1.567 -1.0159 0
M  V30 32 H -3.2873 1.699 1.7914 0
M  V30 33 H -5.3615 1.1401 0.5663 0
M  V30 34 H -6.4619 -3.2663 0.9676 0
M  V30 35 H 0.8689 -0.4867 1.4936 0
M  V30 36 H -1.895 0.8979 3.2857 0
M  V30 37 H 3.5904 -0.2612 -2.642 0
M  V30 38 H 3.2482 -0.0187 1.6296 0
M  V30 39 H 2.0649 0.2033 -4.5221 0
M  V30 40 H 0.8913 -1.0203 -5.1364 0
M  V30 41 H 2.4255 -1.5755 -4.3683 0
M  V30 42 H 5.6822 -0.4626 -0.9599 0
M  V30 43 H 6.6364 1.438 0.0537 0
M  V30 44 H 3.8342 2.6157 0.1551 0
M  V30 45 H 5.3672 3.3799 0.6682 0
M  V30 46 H 5.3055 2.2484 2.5755 0
M  V30 END ATOM
M  V30 BEGIN BOND
M  V30 1 1 1 2
M  V30 2 1 1 3
M  V30 3 1 2 4
M  V30 4 1 2 5
M  V30 5 1 3 6
M  V30 6 1 3 7
M  V30 7 1 4 8
M  V30 8 1 5 9
M  V30 9 1 5 10
M  V30 10 1 6 11
M  V30 11 1 7 12
M  V30 12 2 8 13
M  V30 13 1 8 14
M  V30 14 1 10 15
M  V30 15 1 13 16
M  V30 16 1 13 17
M  V30 17 2 14 18
M  V30 18 1 16 19
M  V30 19 2 17 20
M  V30 20 1 20 21
M  V30 21 2 21 22
M  V30 22 1 22 23
M  V30 23 1 23 24
M  V30 24 1 6 10
M  V30 25 1 18 20
M  V30 26 1 2 25
M  V30 27 1 3 26
M  V30 28 1 5 27
M  V30 29 1 6 28
M  V30 30 1 7 29
M  V30 31 1 7 30
M  V30 32 1 9 31
M  V30 33 1 10 32
M  V30 34 1 11 33
M  V30 35 1 12 34
M  V30 36 1 14 35
M  V30 37 1 15 36
M  V30 38 1 17 37
M  V30 39 1 18 38
M  V30 40 1 19 39
M  V30 41 1 19 40
M  V30 42 1 19 41
M  V30 43 1 21 42
M  V30 44 1 22 43
M  V30 45 1 23 44
M  V30 46 1 23 45
M  V30 47 1 24 46
M  V30 END BOND
M  V30 BEGIN COLLECTION
M  V30 MDLV30/STEABS ATOMS=(5 2 3 5 6 10)
M  V30 END COLLECTION
M  V30 END CTAB
M  END
>  <Structure No>
7127

>  <LogS>
-1.87

>  <MMFF94 Energy>
135.02

$$$$
Compound 7128
Actelion Java MolfileCreator 2.0

  0  0  0  0  0  0              0 V3000
M  V30 BEGIN CTAB
M  V30 COUNTS 28 29 0 0 0
M  V30 BEGIN ATOM
M  V30 1 O -3.279 3.1188 -1.4385 0
M  V30 2 C -2.3269 2.3337 -1.1847 0
M  V30 3 O -1.0763 2.6019 -1.7284 0 CHG=-1
M  V30 4 C -2.556 1.125 -0.3542 0
M  V30 5 C -1.4927 0.4389 0.2862 0
M  V30 6 C -3.8656 0.6214 -0.2296 0
M  V30 7 N -0.1568 0.9697 0.2798 0
M  V30 8 C -1.7661 -0.7264 1.024 0
M  V30 9 C -4.1167 -0.5414 0.5009 0
M  V30 10 C 1.0198 0.1749 0.0474 0
M  V30 11 C -3.0685 -1.2161 1.1236 0
M  V30 12 C 2.266 0.6386 0.498 0
M  V30 13 C 0.956 -1.037 -0.6644 0
M  V30 14 C 3.4309 -0.1079 0.2681 0
M  V30 15 C 2.1158 -1.7816 -0.8941 0
M  V30 16 N 4.6948 0.3671 0.7393 0
M  V30 17 C 3.3493 -1.3217 -0.4274 0
M  V30 18 H -4.6974 1.1186 -0.7132 0
M  V30 19 H -0.0351 1.9807 0.5163 0
M  V30 20 H -0.9686 -1.2442 1.542 0
M  V30 21 H -5.1273 -0.9208 0.5829 0
M  V30 22 H -3.2668 -2.1138 1.695 0
M  V30 23 H 2.3278 1.5777 1.0343 0
M  V30 24 H 0.0149 -1.4012 -1.0551 0
M  V30 25 H 2.0592 -2.7142 -1.4405 0
M  V30 26 H 5.5679 -0.1811 0.5728 0
M  V30 27 H 4.7667 1.2708 1.2583 0
M  V30 28 H 4.2412 -1.907 -0.6124 0
M  V30 END ATOM
M  V30 BEGIN BOND
M  V30 1 2 1 2
M  V30 2 1 2 3
M  V30 3 1 2 4
M  V30 4 2 4 5
M  V30 5 1 4 6
M  V30 6 1 5 7
M  V30 7 1 5 8
M  V30 8 2 6 9
M  V30 9 1 7 10
M  V30 10 2 8 11
M  V30 11 2 10 12
M  V30 12 1 10 13
M  V30 13 1 12 14
M  V30 14 2 13 15
M  V30 15 1 14 16
M  V30 16 2 14 17
M  V30 17 1 9 11
M  V30 18 1 15 17
M  V30 19 1 6 18
M  V30 20 1 7 19
M  V30 21 1 8 20
M  V30 22 1 9 21
M  V30 23 1 11 22
M  V30 24 1 12 23
M  V30 25 1 13 24
M  V30 26 1 15 25
M  V30 27 1 16 26
M  V30 28 1 16 27
M  V30 29 1 17 28
M  V30 END BOND
M  V30 END CTAB
M  END
>  <Structure No>
7128

>  <LogS>
-4.09

>  <MMFF94 Energy>
38.426

$$$$
Compound 7129
Actelion Java MolfileCreator 2.0

  0  0  0  0  0  0              0 V3000
M  V30 BEGIN CTAB
M  V30 COUNTS 18 18 0 0 0
M  V30 BEGIN ATOM
M  V30 1 Cl 4.0457 1.6537 0.1836 0
M  V30 2 C 2.4562 0.9538 -0.1332 0
M  V30 3 C 2.3048 -0.4421 -0.2113 0
M  V30 4 C 1.3432 1.7928 -0.3199 0
M  V30 5 Cl 3.7067 -1.4954 -0.0068 0
M  V30 6 C 1.0379 -0.9986 -0.4605 0
M  V30 7 Cl 1.5323 3.5461 -0.2424 0
M  V30 8 C 0.0783 1.2338 -0.5682 0
M  V30 9 Cl 0.8587 -2.7432 -0.6485 0
M  V30 10 C -0.0796 -0.1591 -0.6154 0
M  V30 11 Cl -1.3258 2.2705 -0.8179 0
M  V30 12 O -1.3524 -0.6967 -0.8421 0
M  V30 13 C -2.1053 -1.3465 0.181 0
M  V30 14 C -2.6119 -0.3457 1.1692 0
M  V30 15 O -1.9287 -0.0596 2.1874 0
M  V30 16 O -3.8134 0.3119 0.9387 0 CHG=-1
M  V30 17 H -2.9701 -1.8622 -0.2859 0
M  V30 18 H -1.4916 -2.1127 0.6993 0
M  V30 END ATOM
M  V30 BEGIN BOND
M  V30 1 1 1 2
M  V30 2 2 2 3
M  V30 3 1 2 4
M  V30 4 1 3 5
M  V30 5 1 3 6
M  V30 6 1 4 7
M  V30 7 2 4 8
M  V30 8 1 6 9
M  V30 9 2 6 10
M  V30 10 1 8 11
M  V30 11 1 10 12
M  V30 12 1 12 13
M  V30 13 1 13 14
M  V30 14 2 14 15
M  V30 15 1 14 16
M  V30 16 1 8 10
M  V30 17 1 13 17
M  V30 18 1 13 18
M  V30 END BOND
M  V30 END CTAB
M  END
>  <Structure No>
7129

>  <LogS>
-3.75

>  <MMFF94 Energy>
98.077

$$$$
Compound 7130
Actelion Java MolfileCreator 2.0

  0  0  0  0  0  0              0 V3000
M  V30 BEGIN CTAB
M  V30 COUNTS 18 19 0 0 0
M  V30 BEGIN ATOM
M  V30 1 Cl 0.9716 3.3595 0.2649 0
M  V30 2 C 0.9906 1.605 0.0983 0
M  V30 3 C -0.1614 0.7569 0.1105 0
M  V30 4 C 2.2671 1.0544 -0.0555 0
M  V30 5 C -1.5023 1.2296 0.2623 0
M  V30 6 C 0.0407 -0.6552 -0.0384 0
M  V30 7 C 2.4444 -0.315 -0.1986 0
M  V30 8 Cl -1.9782 2.9152 0.4592 0
M  V30 9 C -2.5686 0.326 0.2625 0
M  V30 10 C -1.0653 -1.5365 -0.033 0
M  V30 11 C 1.3446 -1.1641 -0.1906 0
M  V30 12 Cl 4.0601 -0.9731 -0.3898 0
M  V30 13 C -2.3542 -1.0364 0.1171 0
M  V30 14 Cl -0.8945 -3.2838 -0.2112 0
M  V30 15 H 3.1363 1.7012 -0.0639 0
M  V30 16 H -3.5847 0.6841 0.3775 0
M  V30 17 H 1.5255 -2.2243 -0.3049 0
M  V30 18 H -3.2021 -1.7103 0.1213 0
M  V30 END ATOM
M  V30 BEGIN BOND
M  V30 1 1 1 2
M  V30 2 1 2 3
M  V30 3 2 2 4
M  V30 4 2 3 5
M  V30 5 1 3 6
M  V30 6 1 4 7
M  V30 7 1 5 8
M  V30 8 1 5 9
M  V30 9 2 6 10
M  V30 10 1 6 11
M  V30 11 1 7 12
M  V30 12 2 9 13
M  V30 13 1 10 14
M  V30 14 2 7 11
M  V30 15 1 10 13
M  V30 16 1 4 15
M  V30 17 1 9 16
M  V30 18 1 11 17
M  V30 19 1 13 18
M  V30 END BOND
M  V30 END CTAB
M  END
>  <Structure No>
7130

>  <LogS>
-7.51

>  <MMFF94 Energy>
35.372

$$$$
Compound 7131
Actelion Java MolfileCreator 2.0

  0  0  0  0  0  0              0 V3000
M  V30 BEGIN CTAB
M  V30 COUNTS 43 44 0 0 0
M  V30 BEGIN ATOM
M  V30 1 O -0.2364 -3.3932 -0.4729 0
M  V30 2 C -1.2042 -2.3894 -0.3011 0 CFG=2
M  V30 3 C -0.7049 -1.2854 0.6743 0 CFG=2
M  V30 4 C -2.5244 -3.0195 0.1679 0
M  V30 5 N -1.7563 -0.279 0.8824 0
M  V30 6 C 0.5856 -0.5872 0.1716 0
M  V30 7 C -2.2907 0.5819 0.0039 0
M  V30 8 C -2.4299 -0.0214 2.0341 0
M  V30 9 C 1.8718 -1.2873 0.6462 0
M  V30 10 N -1.9717 0.74 -1.3035 0
M  V30 11 C -3.2434 1.3211 0.6161 0
M  V30 12 N -3.3603 0.965 1.9089 0
M  V30 13 C 3.1422 -0.6408 0.0704 0
M  V30 14 C -2.6494 1.6876 -2.0188 0
M  V30 15 C -3.9396 2.2876 -0.1007 0
M  V30 16 C 3.4171 0.7554 0.6568 0
M  V30 17 N -3.6207 2.4492 -1.4198 0
M  V30 18 N -4.9532 3.0896 0.5053 0
M  V30 19 C 4.8139 1.2811 0.2931 0
M  V30 20 C 4.9509 1.6127 -1.1923 0
M  V30 21 H -0.104 -3.8344 0.4071 0
M  V30 22 H -1.3907 -1.9319 -1.2963 0
M  V30 23 H -0.4878 -1.7643 1.6563 0
M  V30 24 H -2.423 -3.415 1.201 0
M  V30 25 H -2.8029 -3.855 -0.5087 0
M  V30 26 H -3.3453 -2.2721 0.145 0
M  V30 27 H 0.5992 0.4516 0.5655 0
M  V30 28 H 0.5778 -0.5191 -0.9381 0
M  V30 29 H -2.2511 -0.5487 2.9622 0
M  V30 30 H 1.8628 -2.3468 0.3221 0
M  V30 31 H 1.918 -1.2792 1.7573 0
M  V30 32 H 3.0547 -0.5813 -1.0354 0
M  V30 33 H 4.0007 -1.3069 0.3066 0
M  V30 34 H -2.4183 1.8377 -3.0641 0
M  V30 35 H 2.6521 1.4789 0.3026 0
M  V30 36 H 3.3489 0.704 1.7653 0
M  V30 37 H -5.2019 2.9715 1.5127 0
M  V30 38 H -5.4599 3.8081 -0.0575 0
M  V30 39 H 5.5899 0.5395 0.5824 0
M  V30 40 H 5.0029 2.2085 0.8761 0
M  V30 41 H 5.9366 2.0901 -1.3743 0
M  V30 42 H 4.1531 2.3179 -1.5086 0
M  V30 43 H 4.8949 0.6906 -1.8069 0
M  V30 END ATOM
M  V30 BEGIN BOND
M  V30 1 1 1 2
M  V30 2 1 2 3
M  V30 3 1 2 4
M  V30 4 1 3 5
M  V30 5 1 3 6
M  V30 6 1 5 7
M  V30 7 1 5 8
M  V30 8 1 6 9
M  V30 9 2 7 10
M  V30 10 1 7 11
M  V30 11 2 8 12
M  V30 12 1 9 13
M  V30 13 1 10 14
M  V30 14 2 11 15
M  V30 15 1 13 16
M  V30 16 2 14 17
M  V30 17 1 15 18
M  V30 18 1 16 19
M  V30 19 1 19 20
M  V30 20 1 11 12
M  V30 21 1 15 17
M  V30 22 1 1 21
M  V30 23 1 2 22
M  V30 24 1 3 23
M  V30 25 1 4 24
M  V30 26 1 4 25
M  V30 27 1 4 26
M  V30 28 1 6 27
M  V30 29 1 6 28
M  V30 30 1 8 29
M  V30 31 1 9 30
M  V30 32 1 9 31
M  V30 33 1 13 32
M  V30 34 1 13 33
M  V30 35 1 14 34
M  V30 36 1 16 35
M  V30 37 1 16 36
M  V30 38 1 18 37
M  V30 39 1 18 38
M  V30 40 1 19 39
M  V30 41 1 19 40
M  V30 42 1 20 41
M  V30 43 1 20 42
M  V30 44 1 20 43
M  V30 END BOND
M  V30 BEGIN COLLECTION
M  V30 MDLV30/STEABS ATOMS=(2 2 3)
M  V30 END COLLECTION
M  V30 END CTAB
M  END
>  <Structure No>
7131

>  <LogS>
-2.25

>  <MMFF94 Energy>
10.661

$$$$
Compound 7132
Actelion Java MolfileCreator 2.0

  0  0  0  0  0  0              0 V3000
M  V30 BEGIN CTAB
M  V30 COUNTS 30 31 0 0 0
M  V30 BEGIN ATOM
M  V30 1 Cl 3.9811 2.5698 2.3209 0
M  V30 2 C 3.6616 1.2604 1.1981 0
M  V30 3 C 4.723 0.525 0.6626 0
M  V30 4 C 2.3449 0.9559 0.8353 0
M  V30 5 C 4.4696 -0.515 -0.2365 0
M  V30 6 C 2.08 -0.0874 -0.068 0
M  V30 7 Cl 5.8019 -1.4415 -0.9027 0
M  V30 8 C 3.1537 -0.8204 -0.6014 0
M  V30 9 N 0.7267 -0.4009 -0.4418 0
M  V30 10 C 0.2353 -0.8072 -1.7093 0
M  V30 11 C -0.4437 -0.3623 0.3671 0
M  V30 12 O 0.9523 -0.928 -2.737 0
M  V30 13 O -1.1379 -1.0114 -1.7117 0
M  V30 14 O -0.4316 -0.0937 1.5987 0
M  V30 15 C -1.6759 -0.7418 -0.4145 0 CFG=2
M  V30 16 C -2.6719 0.4257 -0.5014 0
M  V30 17 C -2.3216 -2.0135 0.1486 0
M  V30 18 O -3.1598 0.7466 0.7858 0
M  V30 19 C -4.0671 1.8209 0.6881 0
M  V30 20 H 5.7414 0.761 0.9442 0
M  V30 21 H 1.5341 1.5466 1.2409 0
M  V30 22 H 2.9701 -1.6412 -1.2821 0
M  V30 23 H -2.1514 1.3025 -0.9534 0
M  V30 24 H -3.5081 0.1249 -1.1741 0
M  V30 25 H -1.5859 -2.8464 0.1576 0
M  V30 26 H -3.1838 -2.316 -0.483 0
M  V30 27 H -2.6796 -1.8466 1.1871 0
M  V30 28 H -4.9451 1.5515 0.0597 0
M  V30 29 H -3.5697 2.7338 0.2913 0
M  V30 30 H -4.4431 2.0594 1.7043 0
M  V30 END ATOM
M  V30 BEGIN BOND
M  V30 1 1 1 2
M  V30 2 2 2 3
M  V30 3 1 2 4
M  V30 4 1 3 5
M  V30 5 2 4 6
M  V30 6 1 5 7
M  V30 7 2 5 8
M  V30 8 1 6 9
M  V30 9 1 9 10
M  V30 10 1 9 11
M  V30 11 2 10 12
M  V30 12 1 10 13
M  V30 13 2 11 14
M  V30 14 1 11 15
M  V30 15 1 15 16
M  V30 16 1 15 17
M  V30 17 1 16 18
M  V30 18 1 18 19
M  V30 19 1 6 8
M  V30 20 1 13 15
M  V30 21 1 3 20
M  V30 22 1 4 21
M  V30 23 1 8 22
M  V30 24 1 16 23
M  V30 25 1 16 24
M  V30 26 1 17 25
M  V30 27 1 17 26
M  V30 28 1 17 27
M  V30 29 1 19 28
M  V30 30 1 19 29
M  V30 31 1 19 30
M  V30 END BOND
M  V30 BEGIN COLLECTION
M  V30 MDLV30/STEABS ATOMS=(1 15)
M  V30 END COLLECTION
M  V30 END CTAB
M  END
>  <Structure No>
7132

>  <LogS>
-4.66

>  <MMFF94 Energy>
0.4371

$$$$
Compound 7133
Actelion Java MolfileCreator 2.0

  0  0  0  0  0  0              0 V3000
M  V30 BEGIN CTAB
M  V30 COUNTS 25 26 0 0 0
M  V30 BEGIN ATOM
M  V30 1 F -2.4256 -1.5357 -0.3231 0
M  V30 2 C -2.3606 -0.2386 0.071 0
M  V30 3 C -1.5189 0.6735 -0.594 0
M  V30 4 C -3.1405 0.1842 1.1523 0
M  V30 5 C -1.4524 2.0044 -0.1392 0
M  V30 6 C -0.6464 0.2154 -1.7333 0
M  V30 7 C -3.0803 1.5104 1.5858 0
M  V30 8 F -0.6277 2.8999 -0.7391 0
M  V30 9 C -2.236 2.4181 0.9428 0
M  V30 10 N 0.6539 -0.2048 -1.2249 0
M  V30 11 N 1.6888 0.6027 -1.0553 0
M  V30 12 C 0.9834 -1.4256 -0.7711 0
M  V30 13 N 2.7031 -0.0575 -0.5147 0
M  V30 14 C 2.2851 -1.3266 -0.3286 0
M  V30 15 C 3.0985 -2.3995 0.2614 0
M  V30 16 O 2.6106 -3.5531 0.3975 0
M  V30 17 N 4.4393 -2.1481 0.6834 0
M  V30 18 H -3.7902 -0.5183 1.6584 0
M  V30 19 H -0.5103 1.0363 -2.4702 0
M  V30 20 H -1.1256 -0.6241 -2.2823 0
M  V30 21 H -3.6841 1.8336 2.4239 0
M  V30 22 H -2.1857 3.4432 1.2868 0
M  V30 23 H 0.3353 -2.2926 -0.7556 0
M  V30 24 H 4.8677 -1.2015 0.582 0
M  V30 25 H 5.0106 -2.9155 1.1016 0
M  V30 END ATOM
M  V30 BEGIN BOND
M  V30 1 1 1 2
M  V30 2 2 2 3
M  V30 3 1 2 4
M  V30 4 1 3 5
M  V30 5 1 3 6
M  V30 6 2 4 7
M  V30 7 1 5 8
M  V30 8 2 5 9
M  V30 9 1 6 10
M  V30 10 1 10 11
M  V30 11 1 10 12
M  V30 12 2 11 13
M  V30 13 2 12 14
M  V30 14 1 14 15
M  V30 15 2 15 16
M  V30 16 1 15 17
M  V30 17 1 7 9
M  V30 18 1 13 14
M  V30 19 1 4 18
M  V30 20 1 6 19
M  V30 21 1 6 20
M  V30 22 1 7 21
M  V30 23 1 9 22
M  V30 24 1 12 23
M  V30 25 1 17 24
M  V30 26 1 17 25
M  V30 END BOND
M  V30 END CTAB
M  END
>  <Structure No>
7133

>  <LogS>
-3.5

>  <MMFF94 Energy>
-2.7807

$$$$
Compound 7134
Actelion Java MolfileCreator 2.0

  0  0  0  0  0  0              0 V3000
M  V30 BEGIN CTAB
M  V30 COUNTS 27 28 0 0 0
M  V30 BEGIN ATOM
M  V30 1 O -1.445 -2.0074 2.1682 0
M  V30 2 C -2.4887 -1.4597 1.7247 0
M  V30 3 O -3.7157 -1.8157 2.2731 0 CHG=-1
M  V30 4 C -2.4183 -0.4232 0.6645 0
M  V30 5 C -1.2816 -0.2654 -0.1705 0
M  V30 6 C -3.506 0.4567 0.5079 0
M  V30 7 N -0.1882 -1.1976 -0.1217 0
M  V30 8 C -1.2643 0.7639 -1.1282 0
M  V30 9 C -3.4674 1.4777 -0.4435 0
M  V30 10 C 1.1968 -0.8078 -0.1276 0
M  V30 11 C -2.3475 1.6331 -1.2577 0
M  V30 12 C 1.6014 0.4681 0.3087 0
M  V30 13 C 2.172 -1.7325 -0.5322 0
M  V30 14 C 2.9561 0.8194 0.3123 0
M  V30 15 C 3.5248 -1.3811 -0.5294 0
M  V30 16 O 3.3357 2.089 0.742 0
M  V30 17 C 3.9173 -0.1073 -0.1117 0
M  V30 18 H -4.3846 0.3676 1.1347 0
M  V30 19 H -0.4175 -2.2171 -0.1449 0
M  V30 20 H -0.4156 0.8789 -1.7905 0
M  V30 21 H -4.3086 2.1509 -0.5483 0
M  V30 22 H -2.323 2.4215 -1.9988 0
M  V30 23 H 0.8723 1.187 0.6597 0
M  V30 24 H 1.8818 -2.7237 -0.8574 0
M  V30 25 H 4.2696 -2.0978 -0.8504 0
M  V30 26 H 4.308 2.374 0.7579 0
M  V30 27 H 4.9673 0.1563 -0.112 0
M  V30 END ATOM
M  V30 BEGIN BOND
M  V30 1 2 1 2
M  V30 2 1 2 3
M  V30 3 1 2 4
M  V30 4 2 4 5
M  V30 5 1 4 6
M  V30 6 1 5 7
M  V30 7 1 5 8
M  V30 8 2 6 9
M  V30 9 1 7 10
M  V30 10 2 8 11
M  V30 11 2 10 12
M  V30 12 1 10 13
M  V30 13 1 12 14
M  V30 14 2 13 15
M  V30 15 1 14 16
M  V30 16 2 14 17
M  V30 17 1 9 11
M  V30 18 1 15 17
M  V30 19 1 6 18
M  V30 20 1 7 19
M  V30 21 1 8 20
M  V30 22 1 9 21
M  V30 23 1 11 22
M  V30 24 1 12 23
M  V30 25 1 13 24
M  V30 26 1 15 25
M  V30 27 1 16 26
M  V30 28 1 17 27
M  V30 END BOND
M  V30 END CTAB
M  END
>  <Structure No>
7134

>  <LogS>
-3.54

>  <MMFF94 Energy>
34.691

$$$$
Compound 7135
Actelion Java MolfileCreator 2.0

  0  0  0  0  0  0              0 V3000
M  V30 BEGIN CTAB
M  V30 COUNTS 38 39 0 0 0
M  V30 BEGIN ATOM
M  V30 1 O 1.6035 2.4862 -0.9618 0
M  V30 2 C 2.1654 1.3739 -0.7625 0
M  V30 3 O 1.3989 0.2535 -0.4239 0
M  V30 4 C 3.6344 1.2504 -0.8863 0
M  V30 5 C -0.0179 0.3034 -0.2832 0
M  V30 6 C 4.265 0.0147 -0.6528 0
M  V30 7 C 4.4223 2.3628 -1.2379 0
M  V30 8 C -0.5505 -1.0509 0.0883 0
M  V30 9 C 5.6535 -0.1039 -0.7692 0
M  V30 10 C 5.8103 2.238 -1.3531 0
M  V30 11 O 0.2235 -1.8862 0.6304 0
M  V30 12 N -1.9337 -1.3987 -0.1206 0
M  V30 13 C 6.4251 1.006 -1.1195 0
M  V30 14 C -2.9614 -0.4944 -0.6259 0 CFG=2
M  V30 15 C -2.422 -2.7574 0.0457 0
M  V30 16 C -3.127 0.6991 0.2719 0
M  V30 17 C -4.2482 -1.3227 -0.6774 0
M  V30 18 C -3.8078 -2.7803 -0.5831 0
M  V30 19 O -3.3369 1.8357 -0.2331 0
M  V30 20 O -3.0791 0.5346 1.6597 0
M  V30 21 C -3.2232 1.6216 2.565 0
M  V30 22 H -0.2853 1.0278 0.5153 0
M  V30 23 H -0.4646 0.6332 -1.2446 0
M  V30 24 H 3.6876 -0.8597 -0.3805 0
M  V30 25 H 3.9675 3.3275 -1.4245 0
M  V30 26 H 6.1312 -1.0577 -0.5873 0
M  V30 27 H 6.4095 3.0977 -1.6239 0
M  V30 28 H 7.4995 0.9115 -1.2097 0
M  V30 29 H -2.6882 -0.1696 -1.6544 0
M  V30 30 H -1.7528 -3.4798 -0.4708 0
M  V30 31 H -2.4786 -3.0013 1.1286 0
M  V30 32 H -4.9165 -1.095 0.1835 0
M  V30 33 H -4.8077 -1.1355 -1.6198 0
M  V30 34 H -4.5185 -3.3811 0.025 0
M  V30 35 H -3.745 -3.2139 -1.6054 0
M  V30 36 H -2.4255 2.3735 2.3862 0
M  V30 37 H -4.2206 2.0927 2.4378 0
M  V30 38 H -3.1342 1.2442 3.6041 0
M  V30 END ATOM
M  V30 BEGIN BOND
M  V30 1 2 1 2
M  V30 2 1 2 3
M  V30 3 1 2 4
M  V30 4 1 3 5
M  V30 5 2 4 6
M  V30 6 1 4 7
M  V30 7 1 5 8
M  V30 8 1 6 9
M  V30 9 2 7 10
M  V30 10 2 8 11
M  V30 11 1 8 12
M  V30 12 2 9 13
M  V30 13 1 12 14
M  V30 14 1 12 15
M  V30 15 1 14 16
M  V30 16 1 14 17
M  V30 17 1 15 18
M  V30 18 2 16 19
M  V30 19 1 16 20
M  V30 20 1 20 21
M  V30 21 1 10 13
M  V30 22 1 17 18
M  V30 23 1 5 22
M  V30 24 1 5 23
M  V30 25 1 6 24
M  V30 26 1 7 25
M  V30 27 1 9 26
M  V30 28 1 10 27
M  V30 29 1 13 28
M  V30 30 1 14 29
M  V30 31 1 15 30
M  V30 32 1 15 31
M  V30 33 1 17 32
M  V30 34 1 17 33
M  V30 35 1 18 34
M  V30 36 1 18 35
M  V30 37 1 21 36
M  V30 38 1 21 37
M  V30 39 1 21 38
M  V30 END BOND
M  V30 BEGIN COLLECTION
M  V30 MDLV30/STEABS ATOMS=(1 14)
M  V30 END COLLECTION
M  V30 END CTAB
M  END
>  <Structure No>
7135

>  <LogS>
-2.08

>  <MMFF94 Energy>
65.258

$$$$
Compound 7136
Actelion Java MolfileCreator 2.0

  0  0  0  0  0  0              0 V3000
M  V30 BEGIN CTAB
M  V30 COUNTS 19 20 0 0 0
M  V30 BEGIN ATOM
M  V30 1 Cl -3.8498 0.0854 1.0255 0
M  V30 2 C -2.1466 -0.2155 0.6866 0
M  V30 3 C -1.3045 0.7596 0.0961 0
M  V30 4 C -1.6517 -1.4918 0.9761 0
M  V30 5 C 0.0368 0.4146 -0.1972 0
M  V30 6 C -1.8096 2.1217 -0.2151 0
M  V30 7 C -0.3299 -1.8254 0.6881 0
M  V30 8 N 0.887 1.3271 -0.7484 0
M  V30 9 C 0.519 -0.8816 0.1024 0
M  V30 10 O -2.6494 2.6835 0.5365 0
M  V30 11 O -1.3478 2.8055 -1.3338 0 CHG=-1
M  V30 12 C 2.1826 1.0326 -1.034 0
M  V30 13 C 1.8526 -1.2 -0.1883 0
M  V30 14 C 2.6886 -0.2392 -0.7603 0
M  V30 15 Cl 4.3599 -0.6248 -1.1271 0
M  V30 16 H -2.3001 -2.2365 1.4207 0
M  V30 17 H 0.0273 -2.8214 0.9216 0
M  V30 18 H 2.8182 1.7899 -1.4737 0
M  V30 19 H 2.2434 -2.1869 0.0302 0
M  V30 END ATOM
M  V30 BEGIN BOND
M  V30 1 1 1 2
M  V30 2 2 2 3
M  V30 3 1 2 4
M  V30 4 1 3 5
M  V30 5 1 3 6
M  V30 6 2 4 7
M  V30 7 2 5 8
M  V30 8 1 5 9
M  V30 9 2 6 10
M  V30 10 1 6 11
M  V30 11 1 8 12
M  V30 12 2 9 13
M  V30 13 2 12 14
M  V30 14 1 14 15
M  V30 15 1 7 9
M  V30 16 1 13 14
M  V30 17 1 4 16
M  V30 18 1 7 17
M  V30 19 1 12 18
M  V30 20 1 13 19
M  V30 END BOND
M  V30 END CTAB
M  END
>  <Structure No>
7136

>  <LogS>
-3.57

>  <MMFF94 Energy>
41.075

$$$$
Compound 7137
Actelion Java MolfileCreator 2.0

  0  0  0  0  0  0              0 V3000
M  V30 BEGIN CTAB
M  V30 COUNTS 23 25 0 0 0
M  V30 BEGIN ATOM
M  V30 1 N -3.4567 -1.2851 -0.1605 0
M  V30 2 C -2.274 -0.6426 -0.0086 0
M  V30 3 C -4.5871 -0.6708 0.3053 0
M  V30 4 N -1.066 -1.0797 -0.3973 0
M  V30 5 C -2.183 0.5685 0.5808 0
M  V30 6 N -4.5125 0.5606 0.9073 0
M  V30 7 C -0.2434 -0.0625 -0.0081 0
M  V30 8 N -0.9059 0.9641 0.5965 0
M  V30 9 C -3.318 1.2057 1.0587 0
M  V30 10 C 1.2249 -0.0945 -0.2322 0
M  V30 11 C 2.0561 0.967 0.1779 0
M  V30 12 C 1.8121 -1.2056 -0.8682 0
M  V30 13 C 3.4359 0.9139 -0.0441 0
M  V30 14 C 3.192 -1.2527 -1.0873 0
M  V30 15 C 4.0032 -0.194 -0.6757 0
M  V30 16 H -5.5461 -1.1588 0.1986 0
M  V30 17 H -0.5333 1.8566 0.9876 0
M  V30 18 H -3.2665 2.1761 1.5341 0
M  V30 19 H 1.6539 1.8406 0.6696 0
M  V30 20 H 1.206 -2.0403 -1.1975 0
M  V30 21 H 4.0662 1.7342 0.2746 0
M  V30 22 H 3.6326 -2.1115 -1.577 0
M  V30 23 H 5.0714 -0.2321 -0.8462 0
M  V30 END ATOM
M  V30 BEGIN BOND
M  V30 1 2 1 2
M  V30 2 1 1 3
M  V30 3 1 2 4
M  V30 4 1 2 5
M  V30 5 2 3 6
M  V30 6 2 4 7
M  V30 7 1 5 8
M  V30 8 2 5 9
M  V30 9 1 7 10
M  V30 10 2 10 11
M  V30 11 1 10 12
M  V30 12 1 11 13
M  V30 13 2 12 14
M  V30 14 2 13 15
M  V30 15 1 6 9
M  V30 16 1 7 8
M  V30 17 1 14 15
M  V30 18 1 3 16
M  V30 19 1 8 17
M  V30 20 1 9 18
M  V30 21 1 11 19
M  V30 22 1 12 20
M  V30 23 1 13 21
M  V30 24 1 14 22
M  V30 25 1 15 23
M  V30 END BOND
M  V30 END CTAB
M  END
>  <Structure No>
7137

>  <LogS>
-3.06

>  <MMFF94 Energy>
-7.9053

$$$$
Compound 7138
Actelion Java MolfileCreator 2.0

  0  0  0  0  0  0              0 V3000
M  V30 BEGIN CTAB
M  V30 COUNTS 29 30 0 0 0
M  V30 BEGIN ATOM
M  V30 1 O 1.518 1.8378 1.1183 0
M  V30 2 C 1.8827 0.7675 0.5591 0
M  V30 3 N 0.9237 -0.0082 -0.1762 0
M  V30 4 C 3.3016 0.346 0.6547 0
M  V30 5 N -0.4519 0.2829 -0.1147 0
M  V30 6 C 3.6743 -1.0017 0.5074 0
M  V30 7 C 4.3021 1.2963 0.9222 0
M  V30 8 C -1.4018 -0.4344 -0.9182 0
M  V30 9 C 5.0201 -1.3627 0.6111 0
M  V30 10 C 5.6357 0.8914 1.0167 0
M  V30 11 O -0.9895 -1.2043 -1.8284 0
M  V30 12 C -2.8617 -0.2693 -0.7132 0
M  V30 13 N 5.964 -0.4175 0.8597 0
M  V30 14 C -3.3818 0.1346 0.5317 0
M  V30 15 C -3.7552 -0.5427 -1.7661 0
M  V30 16 C -4.7617 0.2786 0.7093 0
M  V30 17 C -5.1338 -0.3958 -1.5829 0
M  V30 18 C -5.6365 0.0167 -0.3472 0
M  V30 19 H 1.2568 -0.7795 -0.7956 0
M  V30 20 H -0.7847 1.0593 0.499 0
M  V30 21 H 2.9382 -1.7762 0.339 0
M  V30 22 H 4.0572 2.3439 1.0465 0
M  V30 23 H 5.3134 -2.3982 0.5002 0
M  V30 24 H 6.4106 1.6198 1.2156 0
M  V30 25 H -2.7319 0.3158 1.3771 0
M  V30 26 H -3.3875 -0.8596 -2.7343 0
M  V30 27 H -5.1536 0.5876 1.6699 0
M  V30 28 H -5.8128 -0.6023 -2.4002 0
M  V30 29 H -6.704 0.1283 -0.2068 0
M  V30 END ATOM
M  V30 BEGIN BOND
M  V30 1 2 1 2
M  V30 2 1 2 3
M  V30 3 1 2 4
M  V30 4 1 3 5
M  V30 5 2 4 6
M  V30 6 1 4 7
M  V30 7 1 5 8
M  V30 8 1 6 9
M  V30 9 2 7 10
M  V30 10 2 8 11
M  V30 11 1 8 12
M  V30 12 2 9 13
M  V30 13 2 12 14
M  V30 14 1 12 15
M  V30 15 1 14 16
M  V30 16 2 15 17
M  V30 17 2 16 18
M  V30 18 1 10 13
M  V30 19 1 17 18
M  V30 20 1 3 19
M  V30 21 1 5 20
M  V30 22 1 6 21
M  V30 23 1 7 22
M  V30 24 1 9 23
M  V30 25 1 10 24
M  V30 26 1 14 25
M  V30 27 1 15 26
M  V30 28 1 16 27
M  V30 29 1 17 28
M  V30 30 1 18 29
M  V30 END BOND
M  V30 END CTAB
M  END
>  <Structure No>
7138

>  <LogS>
-2.54

>  <MMFF94 Energy>
61.794

$$$$
Compound 7139
Actelion Java MolfileCreator 2.0

  0  0  0  0  0  0              0 V3000
M  V30 BEGIN CTAB
M  V30 COUNTS 18 18 0 0 0
M  V30 BEGIN ATOM
M  V30 1 O -0.9367 -3.4092 0.8515 0
M  V30 2 N -1.3023 -2.4769 0.1061 0 CHG=1
M  V30 3 O -2.3709 -2.6834 -0.7357 0 CHG=-1
M  V30 4 C -0.6191 -1.208 0.1266 0
M  V30 5 C -1.3294 -0.0177 -0.1287 0
M  V30 6 C 0.7631 -1.1464 0.4007 0
M  V30 7 O -2.7018 -0.0747 -0.3507 0 CHG=-1
M  V30 8 C -0.6668 1.2266 -0.1269 0
M  V30 9 O 1.4713 -2.3257 0.6124 0 CHG=-1
M  V30 10 C 1.4327 0.0956 0.4329 0
M  V30 11 N -1.3757 2.4536 -0.4029 0 CHG=1
M  V30 12 C 0.7069 1.2658 0.1621 0
M  V30 13 N 2.8441 0.1872 0.7236 0 CHG=1
M  V30 14 O -0.847 3.5581 -0.158 0
M  V30 15 O -2.6187 2.4397 -0.9927 0 CHG=-1
M  V30 16 O 3.4768 -0.7904 1.1725 0
M  V30 17 O 3.5136 1.3776 0.5528 0 CHG=-1
M  V30 18 H 1.2168 2.2201 0.1739 0
M  V30 END ATOM
M  V30 BEGIN BOND
M  V30 1 2 1 2
M  V30 2 1 2 3
M  V30 3 1 2 4
M  V30 4 2 4 5
M  V30 5 1 4 6
M  V30 6 1 5 7
M  V30 7 1 5 8
M  V30 8 1 6 9
M  V30 9 2 6 10
M  V30 10 1 8 11
M  V30 11 2 8 12
M  V30 12 1 10 13
M  V30 13 2 11 14
M  V30 14 1 11 15
M  V30 15 2 13 16
M  V30 16 1 13 17
M  V30 17 1 10 12
M  V30 18 1 12 18
M  V30 END BOND
M  V30 END CTAB
M  END
>  <Structure No>
7139

>  <LogS>
-3.51

>  <MMFF94 Energy>
248.34

$$$$
Compound 7140
Actelion Java MolfileCreator 2.0

  0  0  0  0  0  0              0 V3000
M  V30 BEGIN CTAB
M  V30 COUNTS 28 28 0 0 0
M  V30 BEGIN ATOM
M  V30 1 S -2.628 0.1641 2.217 0
M  V30 2 O -3.4142 1.4342 2.0478 0
M  V30 3 O -2.4386 -0.0966 3.6842 0
M  V30 4 N -3.514 -1.1511 1.5164 0 CHG=-1
M  V30 5 C -1.0458 0.3002 1.4578 0
M  V30 6 C -3.8338 -1.2638 0.1255 0
M  V30 7 C -0.2648 -0.8462 1.2704 0
M  V30 8 C -0.5583 1.5455 1.0403 0
M  V30 9 O -4.4743 -2.2722 -0.2715 0
M  V30 10 C -3.4019 -0.2335 -0.8725 0
M  V30 11 C 0.9875 -0.7534 0.6567 0
M  V30 12 C 0.6945 1.6398 0.428 0
M  V30 13 C 1.4701 0.4908 0.2122 0
M  V30 14 N 2.7639 0.6189 -0.4022 0
M  V30 15 C 3.3575 -0.3795 -1.2461 0
M  V30 16 O 2.6673 -1.3323 -1.6988 0
M  V30 17 C 4.7814 -0.2388 -1.6752 0
M  V30 18 H -0.6244 -1.8116 1.6038 0
M  V30 19 H -1.1445 2.4433 1.1868 0
M  V30 20 H -3.6807 0.7813 -0.5231 0
M  V30 21 H -2.3039 -0.2903 -1.0183 0
M  V30 22 H -3.8971 -0.4122 -1.8504 0
M  V30 23 H 1.5851 -1.6491 0.5544 0
M  V30 24 H 1.0581 2.6091 0.1103 0
M  V30 25 H 3.27 1.5276 -0.297 0
M  V30 26 H 4.8424 0.4712 -2.5257 0
M  V30 27 H 5.394 0.1455 -0.8328 0
M  V30 28 H 5.1887 -1.2226 -1.991 0
M  V30 END ATOM
M  V30 BEGIN BOND
M  V30 1 2 1 2
M  V30 2 2 1 3
M  V30 3 1 1 4
M  V30 4 1 1 5
M  V30 5 1 4 6
M  V30 6 2 5 7
M  V30 7 1 5 8
M  V30 8 2 6 9
M  V30 9 1 6 10
M  V30 10 1 7 11
M  V30 11 2 8 12
M  V30 12 2 11 13
M  V30 13 1 13 14
M  V30 14 1 14 15
M  V30 15 2 15 16
M  V30 16 1 15 17
M  V30 17 1 12 13
M  V30 18 1 7 18
M  V30 19 1 8 19
M  V30 20 1 10 20
M  V30 21 1 10 21
M  V30 22 1 10 22
M  V30 23 1 11 23
M  V30 24 1 12 24
M  V30 25 1 14 25
M  V30 26 1 17 26
M  V30 27 1 17 27
M  V30 28 1 17 28
M  V30 END BOND
M  V30 END CTAB
M  END
>  <Structure No>
7140

>  <LogS>
-2.78

>  <MMFF94 Energy>
23.698

$$$$
Compound 7141
Actelion Java MolfileCreator 2.0

  0  0  0  0  0  0              0 V3000
M  V30 BEGIN CTAB
M  V30 COUNTS 34 35 0 0 0
M  V30 BEGIN ATOM
M  V30 1 F 3.1174 1.7576 -1.1182 0
M  V30 2 C 4.0154 1.7414 -0.0662 0
M  V30 3 C 4.7934 0.4293 -0.0654 0
M  V30 4 O 3.9045 -0.6822 0.0234 0
M  V30 5 C 3.2568 -1.057 1.2058 0
M  V30 6 O 3.5059 -0.4696 2.294 0
M  V30 7 C 2.2198 -2.1317 1.1626 0
M  V30 8 C 0.9036 -1.5501 0.727 0
M  V30 9 C 0.5965 -1.4384 -0.6373 0
M  V30 10 C -5.0E-4 -1.053 1.6773 0
M  V30 11 C -0.6074 -0.8578 -1.0454 0
M  V30 12 C -1.2058 -0.4738 1.2706 0
M  V30 13 C -1.5236 -0.3703 -0.0957 0
M  V30 14 C -2.8026 0.2487 -0.5285 0
M  V30 15 C -3.9966 -0.0113 0.1711 0
M  V30 16 C -2.8415 1.1064 -1.6444 0
M  V30 17 C -5.1994 0.5726 -0.2384 0
M  V30 18 C -4.047 1.6884 -2.0488 0
M  V30 19 C -5.2246 1.4217 -1.3469 0
M  V30 20 H 3.4618 1.863 0.8883 0
M  V30 21 H 4.7205 2.5918 -0.1782 0
M  V30 22 H 5.52 0.4123 0.7757 0
M  V30 23 H 5.3647 0.3511 -1.0143 0
M  V30 24 H 2.5423 -2.9253 0.4544 0
M  V30 25 H 2.1221 -2.6059 2.1638 0
M  V30 26 H 1.2909 -1.8004 -1.3855 0
M  V30 27 H 0.2309 -1.1079 2.7341 0
M  V30 28 H -0.8278 -0.8028 -2.104 0
M  V30 29 H -1.8794 -0.0862 2.0246 0
M  V30 30 H -4.0034 -0.6796 1.0231 0
M  V30 31 H -1.938 1.3411 -2.193 0
M  V30 32 H -6.1134 0.3638 0.3027 0
M  V30 33 H -4.0673 2.3498 -2.9054 0
M  V30 34 H -6.1567 1.8731 -1.6618 0
M  V30 END ATOM
M  V30 BEGIN BOND
M  V30 1 1 1 2
M  V30 2 1 2 3
M  V30 3 1 3 4
M  V30 4 1 4 5
M  V30 5 2 5 6
M  V30 6 1 5 7
M  V30 7 1 7 8
M  V30 8 2 8 9
M  V30 9 1 8 10
M  V30 10 1 9 11
M  V30 11 2 10 12
M  V30 12 2 11 13
M  V30 13 1 13 14
M  V30 14 2 14 15
M  V30 15 1 14 16
M  V30 16 1 15 17
M  V30 17 2 16 18
M  V30 18 2 17 19
M  V30 19 1 12 13
M  V30 20 1 18 19
M  V30 21 1 2 20
M  V30 22 1 2 21
M  V30 23 1 3 22
M  V30 24 1 3 23
M  V30 25 1 7 24
M  V30 26 1 7 25
M  V30 27 1 9 26
M  V30 28 1 10 27
M  V30 29 1 11 28
M  V30 30 1 12 29
M  V30 31 1 15 30
M  V30 32 1 16 31
M  V30 33 1 17 32
M  V30 34 1 18 33
M  V30 35 1 19 34
M  V30 END BOND
M  V30 END CTAB
M  END
>  <Structure No>
7141

>  <LogS>
-5.01

>  <MMFF94 Energy>
58.247

$$$$
Compound 7142
Actelion Java MolfileCreator 2.0

  0  0  0  0  0  0              0 V3000
M  V30 BEGIN CTAB
M  V30 COUNTS 46 47 0 0 0
M  V30 BEGIN ATOM
M  V30 1 O -2.6785 0.3935 1.4173 0
M  V30 2 C -3.8794 0.5654 0.7099 0
M  V30 3 C -2.0282 -0.8538 1.6661 0
M  V30 4 C -4.276 1.8713 0.393 0
M  V30 5 C -4.6983 -0.5135 0.3186 0
M  V30 6 C -1.364 -1.4222 0.3877 0 CFG=1
M  V30 7 C -5.4615 2.1029 -0.3111 0
M  V30 8 C -5.8834 -0.2777 -0.3858 0
M  V30 9 N -0.5333 -0.4312 -0.355 0 CHG=1
M  V30 10 C -0.6344 -2.7434 0.6795 0
M  V30 11 C -6.2642 1.0286 -0.7016 0
M  V30 12 C 0.8905 -0.2621 0.046 0 CFG=1
M  V30 13 C 1.6228 0.6307 -0.9992 0 CFG=1
M  V30 14 C 1.0283 0.3241 1.4661 0
M  V30 15 O 1.1341 1.9483 -0.9343 0
M  V30 16 C 3.1329 0.589 -0.828 0
M  V30 17 C 3.8336 1.6261 -0.1817 0
M  V30 18 C 3.8502 -0.5246 -1.2992 0
M  V30 19 C 5.2204 1.5511 -0.0219 0
M  V30 20 C 5.2368 -0.5962 -1.1379 0
M  V30 21 C 5.9256 0.4426 -0.499 0
M  V30 22 O 7.3072 0.3821 -0.3323 0
M  V30 23 H -2.7551 -1.5843 2.0813 0
M  V30 24 H -1.283 -0.7009 2.4659 0
M  V30 25 H -3.6592 2.7099 0.6905 0
M  V30 26 H -4.4378 -1.5344 0.5565 0
M  V30 27 H -2.2067 -1.7025 -0.2838 0
M  V30 28 H -5.7573 3.1153 -0.5541 0
M  V30 29 H -6.5087 -1.1091 -0.6849 0
M  V30 30 H -1.006 0.5019 -0.3555 0
M  V30 31 H -0.5397 -0.7465 -1.354 0
M  V30 32 H -1.3623 -3.5054 1.0318 0
M  V30 33 H 0.1342 -2.6161 1.4693 0
M  V30 34 H -0.1551 -3.1284 -0.2453 0
M  V30 35 H -7.1819 1.2085 -1.2466 0
M  V30 36 H 1.4013 -1.249 0.0284 0
M  V30 37 H 1.3994 0.2228 -2.0134 0
M  V30 38 H 0.8726 -0.4653 2.2259 0
M  V30 39 H 2.0501 0.7096 1.6502 0
M  V30 40 H 0.3075 1.1541 1.6252 0
M  V30 41 H 1.4104 2.3998 -1.7747 0
M  V30 42 H 3.3105 2.4906 0.2066 0
M  V30 43 H 3.3333 -1.3392 -1.7912 0
M  V30 44 H 5.7476 2.3546 0.4764 0
M  V30 45 H 5.7742 -1.4598 -1.508 0
M  V30 46 H 7.8466 -0.4079 -0.6664 0
M  V30 END ATOM
M  V30 BEGIN BOND
M  V30 1 1 1 2
M  V30 2 1 1 3
M  V30 3 2 2 4
M  V30 4 1 2 5
M  V30 5 1 3 6
M  V30 6 1 4 7
M  V30 7 2 5 8
M  V30 8 1 6 9
M  V30 9 1 6 10
M  V30 10 2 7 11
M  V30 11 1 9 12
M  V30 12 1 12 13
M  V30 13 1 12 14
M  V30 14 1 13 15
M  V30 15 1 13 16
M  V30 16 2 16 17
M  V30 17 1 16 18
M  V30 18 1 17 19
M  V30 19 2 18 20
M  V30 20 2 19 21
M  V30 21 1 21 22
M  V30 22 1 8 11
M  V30 23 1 20 21
M  V30 24 1 3 23
M  V30 25 1 3 24
M  V30 26 1 4 25
M  V30 27 1 5 26
M  V30 28 1 6 27
M  V30 29 1 7 28
M  V30 30 1 8 29
M  V30 31 1 9 30
M  V30 32 1 9 31
M  V30 33 1 10 32
M  V30 34 1 10 33
M  V30 35 1 10 34
M  V30 36 1 11 35
M  V30 37 1 12 36
M  V30 38 1 13 37
M  V30 39 1 14 38
M  V30 40 1 14 39
M  V30 41 1 14 40
M  V30 42 1 15 41
M  V30 43 1 17 42
M  V30 44 1 18 43
M  V30 45 1 19 44
M  V30 46 1 20 45
M  V30 47 1 22 46
M  V30 END BOND
M  V30 BEGIN COLLECTION
M  V30 MDLV30/STEABS ATOMS=(3 6 12 13)
M  V30 END COLLECTION
M  V30 END CTAB
M  END
>  <Structure No>
7142

>  <LogS>
-1.53

>  <MMFF94 Energy>
83.482

$$$$
Compound 7143
Actelion Java MolfileCreator 2.0

  0  0  0  0  0  0              0 V3000
M  V30 BEGIN CTAB
M  V30 COUNTS 54 56 0 0 0
M  V30 BEGIN ATOM
M  V30 1 O 2.0815 0.48 -1.6009 0
M  V30 2 C 2.7166 -0.192 -0.7434 0
M  V30 3 O 2.2087 -1.4161 -0.2926 0
M  V30 4 C 4.0079 0.305 -0.2215 0
M  V30 5 C 0.8904 -1.8792 -0.5766 0
M  V30 6 C 4.7368 -0.455 0.7109 0
M  V30 7 C 4.5214 1.5473 -0.6391 0
M  V30 8 C -0.0728 -1.344 0.4376 0
M  V30 9 C 5.9532 0.0178 1.2121 0
M  V30 10 C 5.7385 2.0151 -0.1346 0
M  V30 11 O 0.0869 -1.6351 1.6531 0
M  V30 12 N -1.1057 -0.4199 0.0602 0
M  V30 13 C 6.4537 1.2513 0.79 0
M  V30 14 C -2.4989 -0.8761 -0.1674 0
M  V30 15 C -0.7816 1.0187 0.1511 0
M  V30 16 C -2.6611 -1.6136 -1.518 0
M  V30 17 C -3.0861 -1.6518 1.0389 0
M  V30 18 C -1.1099 1.7726 -1.1658 0
M  V30 19 C -1.4655 1.6677 1.3693 0
M  V30 20 C -2.3862 -3.1204 -1.4508 0
M  V30 21 C -2.7981 -3.1598 1.0209 0
M  V30 22 C -1.4087 3.2692 -0.9467 0
M  V30 23 C -1.0037 3.1268 1.5636 0
M  V30 24 C -3.1762 -3.7794 -0.3223 0
M  V30 25 C -0.6289 3.8347 0.2448 0
M  V30 26 H 0.892 -2.9866 -0.5076 0
M  V30 27 H 0.5824 -1.6004 -1.6076 0
M  V30 28 H 4.3674 -1.4129 1.0554 0
M  V30 29 H 3.9825 2.1583 -1.3523 0
M  V30 30 H 6.508 -0.573 1.9291 0
M  V30 31 H 6.1268 2.9715 -0.4603 0
M  V30 32 H 7.3961 1.6151 1.1787 0
M  V30 33 H -3.1434 0.0247 -0.2576 0
M  V30 34 H 0.3144 1.1323 0.318 0
M  V30 35 H -1.9973 -1.1541 -2.2814 0
M  V30 36 H -3.7064 -1.4747 -1.8724 0
M  V30 37 H -2.7103 -1.2143 1.9889 0
M  V30 38 H -4.191 -1.518 1.0401 0
M  V30 39 H -1.9768 1.3252 -1.6921 0
M  V30 40 H -0.2446 1.6762 -1.8551 0
M  V30 41 H -1.2333 1.0846 2.2867 0
M  V30 42 H -2.5681 1.6578 1.2356 0
M  V30 43 H -1.306 -3.3137 -1.3118 0
M  V30 44 H -2.6809 -3.584 -2.4167 0
M  V30 45 H -3.3906 -3.6487 1.8239 0
M  V30 46 H -1.7295 -3.3619 1.235 0
M  V30 47 H -1.1488 3.8377 -1.8655 0
M  V30 48 H -2.4971 3.4072 -0.763 0
M  V30 49 H -1.8173 3.6931 2.0674 0
M  V30 50 H -0.1216 3.147 2.2406 0
M  V30 51 H -2.9474 -4.8668 -0.3015 0
M  V30 52 H -4.2675 -3.66 -0.5024 0
M  V30 53 H -0.8297 4.9235 0.3382 0
M  V30 54 H 0.4595 3.7104 0.0529 0
M  V30 END ATOM
M  V30 BEGIN BOND
M  V30 1 2 1 2
M  V30 2 1 2 3
M  V30 3 1 2 4
M  V30 4 1 3 5
M  V30 5 2 4 6
M  V30 6 1 4 7
M  V30 7 1 5 8
M  V30 8 1 6 9
M  V30 9 2 7 10
M  V30 10 2 8 11
M  V30 11 1 8 12
M  V30 12 2 9 13
M  V30 13 1 12 14
M  V30 14 1 12 15
M  V30 15 1 14 16
M  V30 16 1 14 17
M  V30 17 1 15 18
M  V30 18 1 15 19
M  V30 19 1 16 20
M  V30 20 1 17 21
M  V30 21 1 18 22
M  V30 22 1 19 23
M  V30 23 1 20 24
M  V30 24 1 22 25
M  V30 25 1 10 13
M  V30 26 1 21 24
M  V30 27 1 23 25
M  V30 28 1 5 26
M  V30 29 1 5 27
M  V30 30 1 6 28
M  V30 31 1 7 29
M  V30 32 1 9 30
M  V30 33 1 10 31
M  V30 34 1 13 32
M  V30 35 1 14 33
M  V30 36 1 15 34
M  V30 37 1 16 35
M  V30 38 1 16 36
M  V30 39 1 17 37
M  V30 40 1 17 38
M  V30 41 1 18 39
M  V30 42 1 18 40
M  V30 43 1 19 41
M  V30 44 1 19 42
M  V30 45 1 20 43
M  V30 46 1 20 44
M  V30 47 1 21 45
M  V30 48 1 21 46
M  V30 49 1 22 47
M  V30 50 1 22 48
M  V30 51 1 23 49
M  V30 52 1 23 50
M  V30 53 1 24 51
M  V30 54 1 24 52
M  V30 55 1 25 53
M  V30 56 1 25 54
M  V30 END BOND
M  V30 END CTAB
M  END
>  <Structure No>
7143

>  <LogS>
-5.06

>  <MMFF94 Energy>
51.377

$$$$
Compound 7144
Actelion Java MolfileCreator 2.0

  0  0  0  0  0  0              0 V3000
M  V30 BEGIN CTAB
M  V30 COUNTS 26 27 0 0 0
M  V30 BEGIN ATOM
M  V30 1 O -3.5881 0.5575 -0.3981 0
M  V30 2 C -2.3374 0.3819 -0.3498 0
M  V30 3 N -1.4947 1.4718 -0.216 0
M  V30 4 N -1.8296 -0.8959 -0.4238 0
M  V30 5 C -0.1325 1.291 -0.1338 0
M  V30 6 C -2.0632 2.824 -0.0803 0
M  V30 7 C -0.478 -1.0496 -0.396 0
M  V30 8 C -2.7171 -2.0548 -0.5921 0
M  V30 9 O 0.6366 2.2664 0.0801 0
M  V30 10 C 0.3724 -0.0013 -0.2676 0
M  V30 11 N 0.1978 -2.2131 -0.4493 0
M  V30 12 N 1.6374 -0.4721 -0.2376 0
M  V30 13 C 1.4912 -1.8177 -0.3468 0
M  V30 14 C 2.8884 0.2359 -0.1714 0
M  V30 15 O 2.9896 1.3981 -0.6461 0
M  V30 16 C 4.1133 -0.4329 0.3687 0
M  V30 17 H -2.2944 3.0251 0.9868 0
M  V30 18 H -1.3593 3.5988 -0.4527 0
M  V30 19 H -2.9911 2.9313 -0.6818 0
M  V30 20 H -2.2208 -2.9972 -0.277 0
M  V30 21 H -3.0147 -2.1431 -1.6581 0
M  V30 22 H -3.628 -1.9433 0.0341 0
M  V30 23 H 2.3197 -2.5137 -0.371 0
M  V30 24 H 4.5584 -1.0808 -0.4145 0
M  V30 25 H 3.8488 -1.0514 1.252 0
M  V30 26 H 4.8619 0.3259 0.6807 0
M  V30 END ATOM
M  V30 BEGIN BOND
M  V30 1 2 1 2
M  V30 2 1 2 3
M  V30 3 1 2 4
M  V30 4 1 3 5
M  V30 5 1 3 6
M  V30 6 1 4 7
M  V30 7 1 4 8
M  V30 8 2 5 9
M  V30 9 1 5 10
M  V30 10 1 7 11
M  V30 11 1 10 12
M  V30 12 2 11 13
M  V30 13 1 12 14
M  V30 14 2 14 15
M  V30 15 1 14 16
M  V30 16 2 7 10
M  V30 17 1 12 13
M  V30 18 1 6 17
M  V30 19 1 6 18
M  V30 20 1 6 19
M  V30 21 1 8 20
M  V30 22 1 8 21
M  V30 23 1 8 22
M  V30 24 1 13 23
M  V30 25 1 16 24
M  V30 26 1 16 25
M  V30 27 1 16 26
M  V30 END BOND
M  V30 END CTAB
M  END
>  <Structure No>
7144

>  <LogS>
-1.4

>  <MMFF94 Energy>
-113.85

$$$$
Compound 7145
Actelion Java MolfileCreator 2.0

  0  0  0  0  0  0              0 V3000
M  V30 BEGIN CTAB
M  V30 COUNTS 30 31 0 0 0
M  V30 BEGIN ATOM
M  V30 1 S 0.9625 2.0864 1.3638 0
M  V30 2 C 0.1668 1.2577 0.1959 0
M  V30 3 N -1.1809 0.8556 0.4472 0
M  V30 4 N 0.7658 1.0412 -1.0939 0
M  V30 5 N -1.8543 0.2095 -0.417 0
M  V30 6 N 2.1432 1.2037 -1.3274 0
M  V30 7 C -3.206 -0.2009 -0.1792 0
M  V30 8 C 3.1495 0.5306 -0.5518 0
M  V30 9 C -3.8855 -0.9094 -1.179 0
M  V30 10 C -3.8651 0.0891 1.0305 0
M  V30 11 C 2.837 -0.5958 0.2314 0
M  V30 12 C 4.4782 0.9797 -0.6055 0
M  V30 13 C -5.2057 -1.3244 -0.9773 0
M  V30 14 C -5.1855 -0.3276 1.2284 0
M  V30 15 C 3.8358 -1.2413 0.9673 0
M  V30 16 C 5.4739 0.3315 0.1317 0
M  V30 17 C -5.8553 -1.0337 0.2255 0
M  V30 18 C 5.1525 -0.7764 0.9198 0
M  V30 19 H 0.1385 0.9259 -1.9206 0
M  V30 20 H 2.4402 1.7277 -2.1811 0
M  V30 21 H -3.3901 -1.139 -2.1141 0
M  V30 22 H -3.3624 0.6349 1.8186 0
M  V30 23 H 1.8278 -0.9842 0.2658 0
M  V30 24 H 4.7394 1.8375 -1.2124 0
M  V30 25 H -5.7251 -1.8714 -1.7536 0
M  V30 26 H -5.6896 -0.103 2.1597 0
M  V30 27 H 3.5896 -2.1056 1.5704 0
M  V30 28 H 6.4952 0.6878 0.091 0
M  V30 29 H -6.877 -1.3554 0.3803 0
M  V30 30 H 5.9243 -1.2778 1.4892 0
M  V30 END ATOM
M  V30 BEGIN BOND
M  V30 1 2 1 2
M  V30 2 1 2 3
M  V30 3 1 2 4
M  V30 4 2 3 5
M  V30 5 1 4 6
M  V30 6 1 5 7
M  V30 7 1 6 8
M  V30 8 2 7 9
M  V30 9 1 7 10
M  V30 10 2 8 11
M  V30 11 1 8 12
M  V30 12 1 9 13
M  V30 13 2 10 14
M  V30 14 1 11 15
M  V30 15 2 12 16
M  V30 16 2 13 17
M  V30 17 2 15 18
M  V30 18 1 14 17
M  V30 19 1 16 18
M  V30 20 1 4 19
M  V30 21 1 6 20
M  V30 22 1 9 21
M  V30 23 1 10 22
M  V30 24 1 11 23
M  V30 25 1 12 24
M  V30 26 1 13 25
M  V30 27 1 14 26
M  V30 28 1 15 27
M  V30 29 1 16 28
M  V30 30 1 17 29
M  V30 31 1 18 30
M  V30 END BOND
M  V30 END CTAB
M  END
>  <Structure No>
7145

>  <LogS>
-6.61

>  <MMFF94 Energy>
72.859

$$$$
Compound 7146
Actelion Java MolfileCreator 2.0

  0  0  0  0  0  0              0 V3000
M  V30 BEGIN CTAB
M  V30 COUNTS 32 33 0 0 0
M  V30 BEGIN ATOM
M  V30 1 S -1.7855 0.5678 1.136 0
M  V30 2 C -3.3087 -0.2357 0.641 0
M  V30 3 C -0.8608 -0.0289 -0.3182 0
M  V30 4 N -3.5882 -1.5072 1.0539 0
M  V30 5 C -4.247 0.3974 -0.164 0
M  V30 6 O 0.4879 0.4239 -0.2588 0
M  V30 7 C -4.7497 -2.138 0.685 0
M  V30 8 N -4.237 1.6191 -0.7094 0
M  V30 9 C -5.3852 -0.2401 -0.5179 0
M  V30 10 C 1.424 -0.0787 0.6511 0
M  V30 11 N -5.6625 -1.502 -0.1108 0
M  V30 12 C -5.408 1.6749 -1.3932 0
M  V30 13 N -6.1516 0.5381 -1.3 0
M  V30 14 O 1.1154 -1.0071 1.4475 0
M  V30 15 C 2.8201 0.4573 0.6408 0
M  V30 16 C 3.6855 -0.3278 -0.3525 0
M  V30 17 C 5.097 0.261 -0.4985 0
M  V30 18 C 5.9616 0.0377 0.7418 0
M  V30 19 H -0.8878 -1.139 -0.3685 0
M  V30 20 H -1.3304 0.3792 -1.2375 0
M  V30 21 H -4.9446 -3.1453 1.0259 0
M  V30 22 H -3.5037 2.3583 -0.6331 0
M  V30 23 H -5.7216 2.5408 -1.961 0
M  V30 24 H 2.7916 1.5304 0.3528 0
M  V30 25 H 3.2435 0.3825 1.6649 0
M  V30 26 H 3.198 -0.3016 -1.3522 0
M  V30 27 H 3.7522 -1.3928 -0.038 0
M  V30 28 H 5.0371 1.3487 -0.7203 0
M  V30 29 H 5.5945 -0.2307 -1.3622 0
M  V30 30 H 6.9977 0.3788 0.535 0
M  V30 31 H 5.9913 -1.0406 1.0064 0
M  V30 32 H 5.5726 0.6196 1.6028 0
M  V30 END ATOM
M  V30 BEGIN BOND
M  V30 1 1 1 2
M  V30 2 1 1 3
M  V30 3 2 2 4
M  V30 4 1 2 5
M  V30 5 1 3 6
M  V30 6 1 4 7
M  V30 7 1 5 8
M  V30 8 2 5 9
M  V30 9 1 6 10
M  V30 10 2 7 11
M  V30 11 1 8 12
M  V30 12 1 9 13
M  V30 13 2 10 14
M  V30 14 1 10 15
M  V30 15 1 15 16
M  V30 16 1 16 17
M  V30 17 1 17 18
M  V30 18 1 9 11
M  V30 19 2 12 13
M  V30 20 1 3 19
M  V30 21 1 3 20
M  V30 22 1 7 21
M  V30 23 1 8 22
M  V30 24 1 12 23
M  V30 25 1 15 24
M  V30 26 1 15 25
M  V30 27 1 16 26
M  V30 28 1 16 27
M  V30 29 1 17 28
M  V30 30 1 17 29
M  V30 31 1 18 30
M  V30 32 1 18 31
M  V30 33 1 18 32
M  V30 END BOND
M  V30 END CTAB
M  END
>  <Structure No>
7146

>  <LogS>
-3.1

>  <MMFF94 Energy>
-83.84

$$$$
Compound 7147
Actelion Java MolfileCreator 2.0

  0  0  0  0  0  0              0 V3000
M  V30 BEGIN CTAB
M  V30 COUNTS 26 27 0 0 0
M  V30 BEGIN ATOM
M  V30 1 S 2.7663 3.3365 -1.2197 0
M  V30 2 C 3.1617 1.7765 -1.2967 0
M  V30 3 N 3.4721 0.543 -1.3573 0
M  V30 4 C 2.6579 -0.5139 -0.8252 0
M  V30 5 C 1.4421 -0.2617 -0.1568 0
M  V30 6 C 3.0943 -1.835 -0.975 0
M  V30 7 C 0.6641 -1.3237 0.3406 0
M  V30 8 C 2.337 -2.8922 -0.4666 0
M  V30 9 C -0.6102 -1.0665 1.0554 0
M  V30 10 C 1.1313 -2.6401 0.1915 0
M  V30 11 O -0.9519 -1.8437 1.9885 0
M  V30 12 C -1.4968 0.0725 0.7133 0
M  V30 13 C -1.6139 0.5273 -0.6138 0
M  V30 14 C -2.269 0.6879 1.715 0
M  V30 15 C -2.4638 1.5933 -0.9236 0
M  V30 16 C -3.118 1.7535 1.3998 0
M  V30 17 C -3.213 2.2078 0.0823 0
M  V30 18 H 1.1094 0.7576 -0.0102 0
M  V30 19 H 4.0266 -2.044 -1.4844 0
M  V30 20 H 2.6852 -3.9102 -0.5838 0
M  V30 21 H 0.5571 -3.4749 0.5744 0
M  V30 22 H -1.06 0.0507 -1.4127 0
M  V30 23 H -2.2062 0.3521 2.7428 0
M  V30 24 H -2.5462 1.9394 -1.9459 0
M  V30 25 H -3.7027 2.2273 2.1778 0
M  V30 26 H -3.8712 3.0323 -0.1597 0
M  V30 END ATOM
M  V30 BEGIN BOND
M  V30 1 2 1 2
M  V30 2 2 2 3
M  V30 3 1 3 4
M  V30 4 2 4 5
M  V30 5 1 4 6
M  V30 6 1 5 7
M  V30 7 2 6 8
M  V30 8 1 7 9
M  V30 9 2 7 10
M  V30 10 2 9 11
M  V30 11 1 9 12
M  V30 12 2 12 13
M  V30 13 1 12 14
M  V30 14 1 13 15
M  V30 15 2 14 16
M  V30 16 2 15 17
M  V30 17 1 8 10
M  V30 18 1 16 17
M  V30 19 1 5 18
M  V30 20 1 6 19
M  V30 21 1 8 20
M  V30 22 1 10 21
M  V30 23 1 13 22
M  V30 24 1 14 23
M  V30 25 1 15 24
M  V30 26 1 16 25
M  V30 27 1 17 26
M  V30 END BOND
M  V30 END CTAB
M  END
>  <Structure No>
7147

>  <LogS>
-5.4

>  <MMFF94 Energy>
59.685

$$$$
Compound 7148
Actelion Java MolfileCreator 2.0

  0  0  0  0  0  0              0 V3000
M  V30 BEGIN CTAB
M  V30 COUNTS 26 27 0 0 0
M  V30 BEGIN ATOM
M  V30 1 Cl -5.0746 1.1442 -1.8802 0
M  V30 2 C -3.7326 0.3243 -1.103 0
M  V30 3 C -2.5013 0.9744 -0.9632 0
M  V30 4 C -3.894 -0.9782 -0.6213 0
M  V30 5 C -1.4186 0.3231 -0.351 0
M  V30 6 C -2.8279 -1.6285 0.0047 0
M  V30 7 N -0.1674 1.0179 -0.2014 0
M  V30 8 C -1.5964 -0.982 0.1457 0
M  V30 9 C 1.0967 0.3584 -0.0191 0
M  V30 10 C 2.0353 0.8228 0.9389 0
M  V30 11 C 1.4455 -0.7049 -0.8704 0
M  V30 12 C 1.7209 1.9115 1.8975 0
M  V30 13 C 3.2987 0.2061 1.0089 0
M  V30 14 C 2.6983 -1.3103 -0.7752 0
M  V30 15 O 0.5293 2.2334 2.1475 0
M  V30 16 O 2.7461 2.5713 2.566 0 CHG=-1
M  V30 17 C 3.6243 -0.8534 0.1603 0
M  V30 18 H -2.3841 1.984 -1.3374 0
M  V30 19 H -4.8451 -1.4845 -0.7259 0
M  V30 20 H -2.9575 -2.6328 0.3867 0
M  V30 21 H -0.1641 2.0595 -0.29 0
M  V30 22 H -0.7913 -1.4958 0.654 0
M  V30 23 H 0.7498 -1.0511 -1.6243 0
M  V30 24 H 4.0341 0.5321 1.734 0
M  V30 25 H 2.9557 -2.1278 -1.4362 0
M  V30 26 H 4.5974 -1.3221 0.2297 0
M  V30 END ATOM
M  V30 BEGIN BOND
M  V30 1 1 1 2
M  V30 2 2 2 3
M  V30 3 1 2 4
M  V30 4 1 3 5
M  V30 5 2 4 6
M  V30 6 1 5 7
M  V30 7 2 5 8
M  V30 8 1 7 9
M  V30 9 2 9 10
M  V30 10 1 9 11
M  V30 11 1 10 12
M  V30 12 1 10 13
M  V30 13 2 11 14
M  V30 14 2 12 15
M  V30 15 1 12 16
M  V30 16 2 13 17
M  V30 17 1 6 8
M  V30 18 1 14 17
M  V30 19 1 3 18
M  V30 20 1 4 19
M  V30 21 1 6 20
M  V30 22 1 7 21
M  V30 23 1 8 22
M  V30 24 1 11 23
M  V30 25 1 13 24
M  V30 26 1 14 25
M  V30 27 1 17 26
M  V30 END BOND
M  V30 END CTAB
M  END
>  <Structure No>
7148

>  <LogS>
-5.3

>  <MMFF94 Energy>
38.24

$$$$
Compound 7149
Actelion Java MolfileCreator 2.0

  0  0  0  0  0  0              0 V3000
M  V30 BEGIN CTAB
M  V30 COUNTS 23 24 0 0 0
M  V30 BEGIN ATOM
M  V30 1 Cl -5.0545 1.2618 -0.8411 0
M  V30 2 C -3.4347 0.6555 -0.5512 0
M  V30 3 C -2.364 1.5537 -0.4273 0
M  V30 4 C -3.2113 -0.7307 -0.4479 0
M  V30 5 C -1.0917 1.0357 -0.1996 0
M  V30 6 C -1.9188 -1.2298 -0.2158 0
M  V30 7 S 0.3443 1.8795 -0.0299 0
M  V30 8 C -0.8525 -0.3273 -0.0866 0
M  V30 9 C 1.3189 0.5063 0.1672 0
M  V30 10 C 0.502 -0.6382 0.1558 0
M  V30 11 C 2.8 0.5364 0.4379 0
M  V30 12 C 1.0211 -2.0389 0.331 0
M  V30 13 C 3.4586 1.7146 -0.2087 0
M  V30 14 O 3.7582 1.6803 -1.4312 0
M  V30 15 O 3.7038 2.8665 0.5279 0 CHG=-1
M  V30 16 H -2.5199 2.6218 -0.5096 0
M  V30 17 H -4.0392 -1.4208 -0.5488 0
M  V30 18 H -1.7663 -2.2981 -0.1483 0
M  V30 19 H 3.2791 -0.3851 0.0457 0
M  V30 20 H 2.9651 0.5735 1.5353 0
M  V30 21 H 0.2741 -2.6736 0.8496 0
M  V30 22 H 1.25 -2.4762 -0.6626 0
M  V30 23 H 1.9367 -2.049 0.9568 0
M  V30 END ATOM
M  V30 BEGIN BOND
M  V30 1 1 1 2
M  V30 2 2 2 3
M  V30 3 1 2 4
M  V30 4 1 3 5
M  V30 5 2 4 6
M  V30 6 1 5 7
M  V30 7 2 5 8
M  V30 8 1 7 9
M  V30 9 1 8 10
M  V30 10 1 9 11
M  V30 11 1 10 12
M  V30 12 1 11 13
M  V30 13 2 13 14
M  V30 14 1 13 15
M  V30 15 1 6 8
M  V30 16 2 9 10
M  V30 17 1 3 16
M  V30 18 1 4 17
M  V30 19 1 6 18
M  V30 20 1 11 19
M  V30 21 1 11 20
M  V30 22 1 12 21
M  V30 23 1 12 22
M  V30 24 1 12 23
M  V30 END BOND
M  V30 END CTAB
M  END
>  <Structure No>
7149

>  <LogS>
-3.84

>  <MMFF94 Energy>
47.204

$$$$
Compound 7150
Actelion Java MolfileCreator 2.0

  0  0  0  0  0  0              0 V3000
M  V30 BEGIN CTAB
M  V30 COUNTS 32 33 0 0 0
M  V30 BEGIN ATOM
M  V30 1 O 2.2324 -1.2752 1.3549 0
M  V30 2 C 2.2973 -0.6683 0.251 0
M  V30 3 N 1.1588 -0.6695 -0.6239 0
M  V30 4 C 3.5578 0.0144 -0.129 0
M  V30 5 N -0.0898 -1.1555 -0.1944 0
M  V30 6 C 3.5636 1.0767 -1.0502 0
M  V30 7 C 4.7752 -0.3801 0.4517 0
M  V30 8 C -1.2201 -1.1962 -1.0746 0
M  V30 9 C 4.7697 1.7003 -1.3796 0
M  V30 10 C 5.958 0.2702 0.0924 0
M  V30 11 O -1.1162 -0.791 -2.2637 0
M  V30 12 C -2.5473 -1.6773 -0.5731 0
M  V30 13 N 5.931 1.2871 -0.8082 0
M  V30 14 C -3.2707 -0.5602 0.1267 0
M  V30 15 C -3.1271 -0.379 1.5128 0
M  V30 16 C -4.0546 0.3452 -0.6081 0
M  V30 17 C -3.7754 0.6804 2.1553 0
M  V30 18 C -4.7012 1.4032 0.0385 0
M  V30 19 C -4.5631 1.5698 1.4193 0
M  V30 20 H 1.2708 -0.3467 -1.6104 0
M  V30 21 H -0.2115 -1.4811 0.7908 0
M  V30 22 H 2.6483 1.4431 -1.4954 0
M  V30 23 H 4.8142 -1.1911 1.1684 0
M  V30 24 H 4.7807 2.5191 -2.0865 0
M  V30 25 H 6.8989 -0.0338 0.5313 0
M  V30 26 H -2.3955 -2.5344 0.1184 0
M  V30 27 H -3.1578 -2.0535 -1.4231 0
M  V30 28 H -2.5138 -1.056 2.0942 0
M  V30 29 H -4.1627 0.2321 -1.6798 0
M  V30 30 H -3.6647 0.8135 3.2239 0
M  V30 31 H -5.3068 2.0959 -0.5311 0
M  V30 32 H -5.0635 2.39 1.918 0
M  V30 END ATOM
M  V30 BEGIN BOND
M  V30 1 2 1 2
M  V30 2 1 2 3
M  V30 3 1 2 4
M  V30 4 1 3 5
M  V30 5 2 4 6
M  V30 6 1 4 7
M  V30 7 1 5 8
M  V30 8 1 6 9
M  V30 9 2 7 10
M  V30 10 2 8 11
M  V30 11 1 8 12
M  V30 12 2 9 13
M  V30 13 1 12 14
M  V30 14 2 14 15
M  V30 15 1 14 16
M  V30 16 1 15 17
M  V30 17 2 16 18
M  V30 18 2 17 19
M  V30 19 1 10 13
M  V30 20 1 18 19
M  V30 21 1 3 20
M  V30 22 1 5 21
M  V30 23 1 6 22
M  V30 24 1 7 23
M  V30 25 1 9 24
M  V30 26 1 10 25
M  V30 27 1 12 26
M  V30 28 1 12 27
M  V30 29 1 15 28
M  V30 30 1 16 29
M  V30 31 1 17 30
M  V30 32 1 18 31
M  V30 33 1 19 32
M  V30 END BOND
M  V30 END CTAB
M  END
>  <Structure No>
7150

>  <LogS>
-2.47

>  <MMFF94 Energy>
70.678

$$$$
Compound 7151
Actelion Java MolfileCreator 2.0

  0  0  0  0  0  0              0 V3000
M  V30 BEGIN CTAB
M  V30 COUNTS 23 24 0 0 0
M  V30 BEGIN ATOM
M  V30 1 S 3.8261 0.997 0.0 0
M  V30 2 O 3.751 2.2007 -0.8968 0
M  V30 3 O 4.8523 0.0477 -0.5514 0
M  V30 4 O 4.2803 1.4765 1.5441 0 CHG=-1
M  V30 5 C 2.2548 0.2061 0.0711 0
M  V30 6 C 1.0809 0.9655 -0.029 0
M  V30 7 C 2.173 -1.181 0.2511 0
M  V30 8 C -0.1743 0.3411 0.0374 0
M  V30 9 C 0.9283 -1.8129 0.3186 0
M  V30 10 C -0.2509 -1.0614 0.2117 0
M  V30 11 C -1.3544 1.094 -0.0659 0
M  V30 12 C -1.5053 -1.6852 0.2784 0
M  V30 13 C -2.605 0.463 0.0013 0
M  V30 14 C -2.6741 -0.9263 0.1734 0
M  V30 15 N -3.8052 1.2337 -0.1048 0
M  V30 16 H 1.1464 2.0399 -0.1563 0
M  V30 17 H 3.0733 -1.7752 0.3415 0
M  V30 18 H 0.888 -2.8869 0.4561 0
M  V30 19 H -1.3049 2.1687 -0.1991 0
M  V30 20 H -1.582 -2.7578 0.4118 0
M  V30 21 H -3.6356 -1.4215 0.2267 0
M  V30 22 H -4.7418 0.7741 -0.056 0
M  V30 23 H -3.7663 2.2695 -0.2332 0
M  V30 END ATOM
M  V30 BEGIN BOND
M  V30 1 2 1 2
M  V30 2 2 1 3
M  V30 3 1 1 4
M  V30 4 1 1 5
M  V30 5 2 5 6
M  V30 6 1 5 7
M  V30 7 1 6 8
M  V30 8 2 7 9
M  V30 9 1 8 10
M  V30 10 2 8 11
M  V30 11 2 10 12
M  V30 12 1 11 13
M  V30 13 1 12 14
M  V30 14 1 13 15
M  V30 15 1 9 10
M  V30 16 2 13 14
M  V30 17 1 6 16
M  V30 18 1 7 17
M  V30 19 1 9 18
M  V30 20 1 11 19
M  V30 21 1 12 20
M  V30 22 1 14 21
M  V30 23 1 15 22
M  V30 24 1 15 23
M  V30 END BOND
M  V30 END CTAB
M  END
>  <Structure No>
7151

>  <LogS>
-3.05

>  <MMFF94 Energy>
47.596

$$$$
Compound 7152
Actelion Java MolfileCreator 2.0

  0  0  0  0  0  0              0 V3000
M  V30 BEGIN CTAB
M  V30 COUNTS 28 29 0 0 0
M  V30 BEGIN ATOM
M  V30 1 S -2.6761 -0.162 -1.9457 0
M  V30 2 C -1.5393 -0.2957 -0.7108 0
M  V30 3 C -3.9853 -0.3624 -0.9131 0
M  V30 4 C -2.2299 -0.5453 0.4845 0
M  V30 5 C -0.0834 -0.2226 -0.9291 0
M  V30 6 N -3.5853 -0.5764 0.3585 0
M  V30 7 C -5.4095 -0.4208 -1.3482 0
M  V30 8 C -1.5832 -0.8079 1.8088 0
M  V30 9 O 0.3926 -0.7181 -1.9853 0
M  V30 10 N 0.7789 0.4155 0.0288 0
M  V30 11 C 2.2092 0.4822 -0.0945 0
M  V30 12 C 3.0038 0.3369 1.0532 0
M  V30 13 C 2.8295 0.7558 -1.3276 0
M  V30 14 C 4.3967 0.4215 0.9651 0
M  V30 15 C 4.223 0.8408 -1.4115 0
M  V30 16 C 5.0062 0.6687 -0.2673 0
M  V30 17 H -5.6592 -1.4569 -1.6567 0
M  V30 18 H -5.5724 0.2663 -2.2047 0
M  V30 19 H -6.0743 -0.117 -0.5126 0
M  V30 20 H -0.6279 -1.3577 1.6768 0
M  V30 21 H -2.2531 -1.4302 2.4389 0
M  V30 22 H -1.3996 0.1525 2.333 0
M  V30 23 H 0.3584 0.8092 0.8985 0
M  V30 24 H 2.5419 0.1472 2.0141 0
M  V30 25 H 2.2416 0.9332 -2.2178 0
M  V30 26 H 5.0032 0.2978 1.853 0
M  V30 27 H 4.6953 1.0504 -2.3625 0
M  V30 28 H 6.0842 0.7367 -0.3341 0
M  V30 END ATOM
M  V30 BEGIN BOND
M  V30 1 1 1 2
M  V30 2 1 1 3
M  V30 3 2 2 4
M  V30 4 1 2 5
M  V30 5 2 3 6
M  V30 6 1 3 7
M  V30 7 1 4 8
M  V30 8 2 5 9
M  V30 9 1 5 10
M  V30 10 1 10 11
M  V30 11 2 11 12
M  V30 12 1 11 13
M  V30 13 1 12 14
M  V30 14 2 13 15
M  V30 15 2 14 16
M  V30 16 1 4 6
M  V30 17 1 15 16
M  V30 18 1 7 17
M  V30 19 1 7 18
M  V30 20 1 7 19
M  V30 21 1 8 20
M  V30 22 1 8 21
M  V30 23 1 8 22
M  V30 24 1 10 23
M  V30 25 1 12 24
M  V30 26 1 13 25
M  V30 27 1 14 26
M  V30 28 1 15 27
M  V30 29 1 16 28
M  V30 END BOND
M  V30 END CTAB
M  END
>  <Structure No>
7152

>  <LogS>
-1.73

>  <MMFF94 Energy>
11.942

$$$$
Compound 7153
Actelion Java MolfileCreator 2.0

  0  0  0  0  0  0              0 V3000
M  V30 BEGIN CTAB
M  V30 COUNTS 23 24 0 0 0
M  V30 BEGIN ATOM
M  V30 1 Cl -1.7762 -1.6915 2.5381 0
M  V30 2 C -2.1741 -1.0174 0.9655 0
M  V30 3 C -1.4055 0.0242 0.4218 0
M  V30 4 C -3.2552 -1.5409 0.2481 0
M  V30 5 O -0.3247 0.5303 1.1554 0
M  V30 6 C -1.7532 0.5613 -0.8349 0
M  V30 7 C -3.5824 -1.0212 -1.0059 0
M  V30 8 C 1.0062 0.5302 0.712 0
M  V30 9 Cl -0.8913 1.9363 -1.5125 0
M  V30 10 C -2.8369 0.0303 -1.5439 0
M  V30 11 C 1.4364 -0.2668 -0.3664 0
M  V30 12 C 1.9366 1.3318 1.3846 0
M  V30 13 C 2.7746 -0.2404 -0.7706 0
M  V30 14 C 3.2743 1.3566 0.979 0
M  V30 15 C 3.6942 0.5724 -0.1002 0
M  V30 16 Cl 5.3726 0.6037 -0.6082 0
M  V30 17 H -3.8424 -2.3509 0.6619 0
M  V30 18 H -4.4205 -1.4273 -1.5575 0
M  V30 19 H -3.1095 0.4395 -2.5085 0
M  V30 20 H 0.7437 -0.9128 -0.8893 0
M  V30 21 H 1.6198 1.9414 2.2214 0
M  V30 22 H 3.096 -0.8545 -1.6021 0
M  V30 23 H 3.9828 1.9845 1.5041 0
M  V30 END ATOM
M  V30 BEGIN BOND
M  V30 1 1 1 2
M  V30 2 2 2 3
M  V30 3 1 2 4
M  V30 4 1 3 5
M  V30 5 1 3 6
M  V30 6 2 4 7
M  V30 7 1 5 8
M  V30 8 1 6 9
M  V30 9 2 6 10
M  V30 10 2 8 11
M  V30 11 1 8 12
M  V30 12 1 11 13
M  V30 13 2 12 14
M  V30 14 2 13 15
M  V30 15 1 15 16
M  V30 16 1 7 10
M  V30 17 1 14 15
M  V30 18 1 4 17
M  V30 19 1 7 18
M  V30 20 1 10 19
M  V30 21 1 11 20
M  V30 22 1 12 21
M  V30 23 1 13 22
M  V30 24 1 14 23
M  V30 END BOND
M  V30 END CTAB
M  END
>  <Structure No>
7153

>  <LogS>
-5.91

>  <MMFF94 Energy>
50.615

$$$$
Compound 7154
Actelion Java MolfileCreator 2.0

  0  0  0  0  0  0              0 V3000
M  V30 BEGIN CTAB
M  V30 COUNTS 35 36 0 0 0
M  V30 BEGIN ATOM
M  V30 1 S -2.5091 1.2944 -1.2135 0
M  V30 2 C -4.0547 0.5962 -0.634 0
M  V30 3 C -1.622 0.9085 0.3268 0
M  V30 4 N -4.9674 1.3757 0.0181 0
M  V30 5 C -4.3765 -0.741 -0.8281 0
M  V30 6 O -0.2751 1.3487 0.2082 0
M  V30 7 C -6.1557 0.858 0.4684 0
M  V30 8 N -3.6847 -1.7213 -1.4196 0
M  V30 9 C -5.5516 -1.2335 -0.3763 0
M  V30 10 C 0.6625 1.187 1.2319 0
M  V30 11 N -6.4567 -0.4619 0.2723 0
M  V30 12 C -4.495 -2.8034 -1.2999 0
M  V30 13 N -5.6663 -2.5423 -0.6566 0
M  V30 14 O 0.3438 0.6225 2.3141 0
M  V30 15 C 2.07 1.645 1.0183 0
M  V30 16 C 2.8848 0.5567 0.3136 0
M  V30 17 C 4.3339 1.0137 0.0901 0
M  V30 18 C 5.1531 0.0011 -0.7246 0
M  V30 19 C 5.461 -1.2757 0.0568 0
M  V30 20 H -2.1115 1.4303 1.1774 0
M  V30 21 H -1.6408 -0.1892 0.5 0
M  V30 22 H -6.8593 1.4981 0.9826 0
M  V30 23 H -2.7423 -1.6726 -1.8663 0
M  V30 24 H -4.2347 -3.783 -1.6783 0
M  V30 25 H 2.5336 1.8902 1.9991 0
M  V30 26 H 2.0578 2.5685 0.3997 0
M  V30 27 H 2.8744 -0.3613 0.9398 0
M  V30 28 H 2.4144 0.3237 -0.6673 0
M  V30 29 H 4.3252 1.9753 -0.4685 0
M  V30 30 H 4.8287 1.1975 1.0692 0
M  V30 31 H 4.618 -0.2567 -1.6642 0
M  V30 32 H 6.1173 0.4766 -1.0072 0
M  V30 33 H 5.9495 -1.0318 1.0241 0
M  V30 34 H 4.5336 -1.8548 0.2458 0
M  V30 35 H 6.1504 -1.9131 -0.5357 0
M  V30 END ATOM
M  V30 BEGIN BOND
M  V30 1 1 1 2
M  V30 2 1 1 3
M  V30 3 2 2 4
M  V30 4 1 2 5
M  V30 5 1 3 6
M  V30 6 1 4 7
M  V30 7 1 5 8
M  V30 8 2 5 9
M  V30 9 1 6 10
M  V30 10 2 7 11
M  V30 11 1 8 12
M  V30 12 1 9 13
M  V30 13 2 10 14
M  V30 14 1 10 15
M  V30 15 1 15 16
M  V30 16 1 16 17
M  V30 17 1 17 18
M  V30 18 1 18 19
M  V30 19 1 9 11
M  V30 20 2 12 13
M  V30 21 1 3 20
M  V30 22 1 3 21
M  V30 23 1 7 22
M  V30 24 1 8 23
M  V30 25 1 12 24
M  V30 26 1 15 25
M  V30 27 1 15 26
M  V30 28 1 16 27
M  V30 29 1 16 28
M  V30 30 1 17 29
M  V30 31 1 17 30
M  V30 32 1 18 31
M  V30 33 1 18 32
M  V30 34 1 19 33
M  V30 35 1 19 34
M  V30 36 1 19 35
M  V30 END BOND
M  V30 END CTAB
M  END
>  <Structure No>
7154

>  <LogS>
-3.63

>  <MMFF94 Energy>
-84.522

$$$$
Compound 7155
Actelion Java MolfileCreator 2.0

  0  0  0  0  0  0              0 V3000
M  V30 BEGIN CTAB
M  V30 COUNTS 23 24 0 0 0
M  V30 BEGIN ATOM
M  V30 1 S 3.8274 -0.5817 0.0 0
M  V30 2 O 4.0774 -1.7458 0.917 0
M  V30 3 O 4.636 0.5913 0.4782 0
M  V30 4 O 4.298 -0.9864 -1.5603 0 CHG=-1
M  V30 5 C 2.115 -0.1724 0.0076 0
M  V30 6 C 1.1547 -1.1736 0.1797 0
M  V30 7 C 1.7075 1.1497 -0.1889 0
M  V30 8 C -0.2127 -0.8569 0.1754 0
M  V30 9 C 0.3505 1.4817 -0.1944 0
M  V30 10 C -0.6353 0.4902 -6.0E-4 0
M  V30 11 C -1.1613 -1.8758 0.3383 0
M  V30 12 C -2.0277 0.7843 0.0075 0
M  V30 13 C -2.5211 -1.578 0.3259 0
M  V30 14 N -2.5387 2.1204 -0.1246 0
M  V30 15 C -2.9502 -0.2625 0.1616 0
M  V30 16 H 1.474 -2.2009 0.3122 0
M  V30 17 H 2.4425 1.9292 -0.3447 0
M  V30 18 H 0.1017 2.5163 -0.3672 0
M  V30 19 H -0.8505 -2.9054 0.4709 0
M  V30 20 H -3.2479 -2.3708 0.4489 0
M  V30 21 H -1.943 2.9718 -0.0622 0
M  V30 22 H -3.5675 2.2823 -0.2053 0
M  V30 23 H -4.0131 -0.0548 0.165 0
M  V30 END ATOM
M  V30 BEGIN BOND
M  V30 1 2 1 2
M  V30 2 2 1 3
M  V30 3 1 1 4
M  V30 4 1 1 5
M  V30 5 2 5 6
M  V30 6 1 5 7
M  V30 7 1 6 8
M  V30 8 2 7 9
M  V30 9 1 8 10
M  V30 10 2 8 11
M  V30 11 2 10 12
M  V30 12 1 11 13
M  V30 13 1 12 14
M  V30 14 1 12 15
M  V30 15 1 9 10
M  V30 16 2 13 15
M  V30 17 1 6 16
M  V30 18 1 7 17
M  V30 19 1 9 18
M  V30 20 1 11 19
M  V30 21 1 13 20
M  V30 22 1 14 21
M  V30 23 1 14 22
M  V30 24 1 15 23
M  V30 END BOND
M  V30 END CTAB
M  END
>  <Structure No>
7155

>  <LogS>
-2.24

>  <MMFF94 Energy>
63.111

$$$$
Compound 7156
Actelion Java MolfileCreator 2.0

  0  0  0  0  0  0              0 V3000
M  V30 BEGIN CTAB
M  V30 COUNTS 30 31 0 0 0
M  V30 BEGIN ATOM
M  V30 1 O -1.5217 -1.7621 -2.4035 0
M  V30 2 C -2.6163 -1.7675 -1.7808 0
M  V30 3 O -3.6597 -2.5463 -2.2688 0 CHG=-1
M  V30 4 C -2.8132 -0.9311 -0.5705 0
M  V30 5 C -1.7265 -0.4025 0.1738 0
M  V30 6 C -4.1271 -0.6232 -0.1694 0
M  V30 7 N -0.3696 -0.7676 -0.1305 0
M  V30 8 C -1.9839 0.417 1.287 0
M  V30 9 C -4.363 0.1984 0.9344 0
M  V30 10 C 0.7197 0.1711 -0.1812 0
M  V30 11 C -3.2935 0.7202 1.6593 0
M  V30 12 C 2.0365 -0.2903 -0.0247 0
M  V30 13 C 0.4966 1.537 -0.4314 0
M  V30 14 C 3.1228 0.6046 -0.0883 0
M  V30 15 C 1.5715 2.426 -0.4948 0
M  V30 16 O 4.4524 0.1872 0.0724 0
M  V30 17 C 2.877 1.9622 -0.3209 0
M  V30 18 C 4.8496 -1.1587 0.3139 0
M  V30 19 H -4.9777 -1.0046 -0.7207 0
M  V30 20 H -0.1577 -1.7827 -0.2615 0
M  V30 21 H -1.1654 0.8045 1.8805 0
M  V30 22 H -5.3786 0.4319 1.2274 0
M  V30 23 H -3.4795 1.3518 2.5185 0
M  V30 24 H 2.2034 -1.3441 0.1531 0
M  V30 25 H -0.5045 1.9149 -0.5916 0
M  V30 26 H 1.3929 3.4764 -0.6851 0
M  V30 27 H 3.7032 2.66 -0.373 0
M  V30 28 H 4.4051 -1.5233 1.264 0
M  V30 29 H 5.9546 -1.2006 0.3995 0
M  V30 30 H 4.5334 -1.8072 -0.5302 0
M  V30 END ATOM
M  V30 BEGIN BOND
M  V30 1 2 1 2
M  V30 2 1 2 3
M  V30 3 1 2 4
M  V30 4 2 4 5
M  V30 5 1 4 6
M  V30 6 1 5 7
M  V30 7 1 5 8
M  V30 8 2 6 9
M  V30 9 1 7 10
M  V30 10 2 8 11
M  V30 11 2 10 12
M  V30 12 1 10 13
M  V30 13 1 12 14
M  V30 14 2 13 15
M  V30 15 1 14 16
M  V30 16 2 14 17
M  V30 17 1 16 18
M  V30 18 1 9 11
M  V30 19 1 15 17
M  V30 20 1 6 19
M  V30 21 1 7 20
M  V30 22 1 8 21
M  V30 23 1 9 22
M  V30 24 1 11 23
M  V30 25 1 12 24
M  V30 26 1 13 25
M  V30 27 1 15 26
M  V30 28 1 17 27
M  V30 29 1 18 28
M  V30 30 1 18 29
M  V30 31 1 18 30
M  V30 END BOND
M  V30 END CTAB
M  END
>  <Structure No>
7156

>  <LogS>
-4.8

>  <MMFF94 Energy>
46.599

$$$$
Compound 7157
Actelion Java MolfileCreator 2.0

  0  0  0  0  0  0              0 V3000
M  V30 BEGIN CTAB
M  V30 COUNTS 23 24 0 0 0
M  V30 BEGIN ATOM
M  V30 1 Cl -0.9301 -0.4227 -3.4699 0
M  V30 2 C -1.7484 -0.2748 -1.9224 0
M  V30 3 C -1.09 -0.6237 -0.7328 0
M  V30 4 C -3.0591 0.2126 -1.8834 0
M  V30 5 O 0.224 -1.1048 -0.7952 0
M  V30 6 C -1.7714 -0.5128 0.4965 0
M  V30 7 C -3.7241 0.3425 -0.6609 0
M  V30 8 C 1.3223 -0.4992 -0.1667 0
M  V30 9 Cl -1.0308 -1.0369 2.0029 0
M  V30 10 C -3.0828 -0.0245 0.5255 0
M  V30 11 Cl -5.3683 0.9525 -0.6169 0
M  V30 12 C 1.2732 0.8223 0.3191 0
M  V30 13 C 2.511 -1.2294 -0.0447 0
M  V30 14 C 2.395 1.3879 0.9328 0
M  V30 15 C 3.6312 -0.6606 0.5694 0
M  V30 16 C 3.5726 0.6465 1.0599 0
M  V30 17 H -3.56 0.4904 -2.8022 0
M  V30 18 H -3.6071 0.0597 1.4692 0
M  V30 19 H 0.3752 1.4175 0.2179 0
M  V30 20 H 2.5644 -2.2423 -0.4227 0
M  V30 21 H 2.3525 2.4027 1.3069 0
M  V30 22 H 4.5447 -1.2331 0.6643 0
M  V30 23 H 4.4402 1.0859 1.5345 0
M  V30 END ATOM
M  V30 BEGIN BOND
M  V30 1 1 1 2
M  V30 2 2 2 3
M  V30 3 1 2 4
M  V30 4 1 3 5
M  V30 5 1 3 6
M  V30 6 2 4 7
M  V30 7 1 5 8
M  V30 8 1 6 9
M  V30 9 2 6 10
M  V30 10 1 7 11
M  V30 11 2 8 12
M  V30 12 1 8 13
M  V30 13 1 12 14
M  V30 14 2 13 15
M  V30 15 2 14 16
M  V30 16 1 7 10
M  V30 17 1 15 16
M  V30 18 1 4 17
M  V30 19 1 10 18
M  V30 20 1 12 19
M  V30 21 1 13 20
M  V30 22 1 14 21
M  V30 23 1 15 22
M  V30 24 1 16 23
M  V30 END BOND
M  V30 END CTAB
M  END
>  <Structure No>
7157

>  <LogS>
-6.11

>  <MMFF94 Energy>
36.666

$$$$
Compound 7158
Actelion Java MolfileCreator 2.0

  0  0  0  0  0  0              0 V3000
M  V30 BEGIN CTAB
M  V30 COUNTS 45 49 0 0 0
M  V30 BEGIN ATOM
M  V30 1 O 2.028 0.973 0.3242 0
M  V30 2 C 1.8893 -0.4247 0.2229 0
M  V30 3 C 0.876 1.4699 -0.3725 0 CFG=2
M  V30 4 C 2.8619 -1.4237 0.2595 0
M  V30 5 C 0.6023 -0.741 -0.1136 0
M  V30 6 C 0.2817 2.8373 -0.2661 0
M  V30 7 C -0.2058 0.4514 -0.0579 0 CFG=2
M  V30 8 O 4.172 -1.0977 0.6339 0
M  V30 9 C 2.4623 -2.7371 -0.1314 0
M  V30 10 C 0.1818 -1.9596 -0.5863 0
M  V30 11 O 0.9918 3.8843 0.3359 0
M  V30 12 C -0.9397 2.9782 -0.8721 0
M  V30 13 C -1.2625 0.5131 -1.0745 0
M  V30 14 C -0.8974 0.5144 1.333 0
M  V30 15 C 5.2402 -2.0362 0.6898 0
M  V30 16 C 1.1385 -2.9925 -0.5877 0
M  V30 17 C -1.1999 -2.0337 -1.2385 0
M  V30 18 C 0.4973 5.2133 0.4593 0
M  V30 19 C -1.6923 1.7629 -1.3958 0
M  V30 20 C -2.1128 -0.7411 -1.0315 0 CFG=1
M  V30 21 C -1.9433 -0.6307 1.4633 0
M  V30 22 N -2.8417 -0.7269 0.2764 0 CHG=1 CFG=2
M  V30 23 C -3.7761 -1.8586 0.42 0
M  V30 24 H 1.144 1.3962 -1.4596 0
M  V30 25 H 3.175 -3.5501 -0.138 0
M  V30 26 H -1.4211 3.9442 -0.933 0
M  V30 27 H -1.4189 1.487 1.4668 0
M  V30 28 H -0.1498 0.4301 2.1527 0
M  V30 29 H 5.0041 -2.8401 1.4186 0
M  V30 30 H 5.4174 -2.4728 -0.3156 0
M  V30 31 H 6.163 -1.5165 1.0195 0
M  V30 32 H 0.8754 -3.9751 -0.9572 0
M  V30 33 H -1.713 -2.9587 -0.9135 0
M  V30 34 H -1.0314 -2.1467 -2.3308 0
M  V30 35 H 0.329 5.6526 -0.5465 0
M  V30 36 H 1.2459 5.8308 0.9965 0
M  V30 37 H -0.4499 5.2155 1.0393 0
M  V30 38 H -2.6337 1.8979 -1.9118 0
M  V30 39 H -2.8491 -0.6992 -1.866 0
M  V30 40 H -2.5492 -0.4432 2.3781 0
M  V30 41 H -1.4107 -1.5933 1.6273 0
M  V30 42 H -3.4408 0.1346 0.2814 0
M  V30 43 H -4.5049 -1.649 1.234 0
M  V30 44 H -3.248 -2.7994 0.6829 0
M  V30 45 H -4.3562 -2.0149 -0.5155 0
M  V30 END ATOM
M  V30 BEGIN BOND
M  V30 1 1 1 2
M  V30 2 1 1 3
M  V30 3 2 2 4
M  V30 4 1 2 5
M  V30 5 1 3 6
M  V30 6 1 3 7
M  V30 7 1 4 8
M  V30 8 1 4 9
M  V30 9 2 5 10
M  V30 10 1 6 11
M  V30 11 2 6 12
M  V30 12 1 7 13
M  V30 13 1 7 14
M  V30 14 1 8 15
M  V30 15 2 9 16
M  V30 16 1 10 17
M  V30 17 1 11 18
M  V30 18 1 12 19
M  V30 19 1 13 20
M  V30 20 1 14 21
M  V30 21 1 20 22
M  V30 22 1 22 23
M  V30 23 1 5 7
M  V30 24 1 10 16
M  V30 25 2 13 19
M  V30 26 1 17 20
M  V30 27 1 21 22
M  V30 28 1 3 24
M  V30 29 1 9 25
M  V30 30 1 12 26
M  V30 31 1 14 27
M  V30 32 1 14 28
M  V30 33 1 15 29
M  V30 34 1 15 30
M  V30 35 1 15 31
M  V30 36 1 16 32
M  V30 37 1 17 33
M  V30 38 1 17 34
M  V30 39 1 18 35
M  V30 40 1 18 36
M  V30 41 1 18 37
M  V30 42 1 19 38
M  V30 43 1 20 39
M  V30 44 1 21 40
M  V30 45 1 21 41
M  V30 46 1 22 42
M  V30 47 1 23 43
M  V30 48 1 23 44
M  V30 49 1 23 45
M  V30 END BOND
M  V30 BEGIN COLLECTION
M  V30 MDLV30/STEABS ATOMS=(4 3 7 20 22)
M  V30 END COLLECTION
M  V30 END CTAB
M  END
>  <Structure No>
7158

>  <LogS>
-2.66

>  <MMFF94 Energy>
108.7

$$$$
Compound 7159
Actelion Java MolfileCreator 2.0

  0  0  0  0  0  0              0 V3000
M  V30 BEGIN CTAB
M  V30 COUNTS 23 24 0 0 0
M  V30 BEGIN ATOM
M  V30 1 S 3.4109 -1.1637 0.083 0
M  V30 2 O 4.3629 -0.2459 -0.631 0
M  V30 3 O 3.4513 -2.5115 -0.5803 0
M  V30 4 O 3.8788 -1.316 1.6887 0 CHG=-1
M  V30 5 C 1.778 -0.5084 0.0088 0
M  V30 6 C 1.5787 0.8741 -0.0323 0
M  V30 7 C 0.6777 -1.3675 0.0203 0
M  V30 8 C 0.2865 1.4207 -0.0744 0
M  V30 9 C -0.6248 -0.8542 -0.0343 0
M  V30 10 N 0.159 2.8518 -0.0847 0
M  V30 11 C -0.8381 0.5512 -0.0916 0
M  V30 12 C -1.7188 -1.7343 -0.0378 0
M  V30 13 C -2.1664 1.0256 -0.1767 0
M  V30 14 C -3.0202 -1.2393 -0.1085 0
M  V30 15 C -3.2423 0.1342 -0.1817 0
M  V30 16 H 2.4367 1.5348 -0.0182 0
M  V30 17 H 0.8377 -2.4383 0.0682 0
M  V30 18 H -0.742 3.3488 0.0716 0
M  V30 19 H 1.0091 3.4532 -0.1666 0
M  V30 20 H -1.5669 -2.8061 0.0099 0
M  V30 21 H -2.4009 2.075 -0.2541 0
M  V30 22 H -3.8592 -1.9232 -0.1131 0
M  V30 23 H -4.2549 0.5117 -0.2463 0
M  V30 END ATOM
M  V30 BEGIN BOND
M  V30 1 2 1 2
M  V30 2 2 1 3
M  V30 3 1 1 4
M  V30 4 1 1 5
M  V30 5 1 5 6
M  V30 6 2 5 7
M  V30 7 2 6 8
M  V30 8 1 7 9
M  V30 9 1 8 10
M  V30 10 1 8 11
M  V30 11 2 9 12
M  V30 12 2 11 13
M  V30 13 1 12 14
M  V30 14 1 13 15
M  V30 15 1 9 11
M  V30 16 2 14 15
M  V30 17 1 6 16
M  V30 18 1 7 17
M  V30 19 1 10 18
M  V30 20 1 10 19
M  V30 21 1 12 20
M  V30 22 1 13 21
M  V30 23 1 14 22
M  V30 24 1 15 23
M  V30 END BOND
M  V30 END CTAB
M  END
>  <Structure No>
7159

>  <LogS>
-2.34

>  <MMFF94 Energy>
55.537

$$$$
Compound 7160
Actelion Java MolfileCreator 2.0

  0  0  0  0  0  0              0 V3000
M  V30 BEGIN CTAB
M  V30 COUNTS 23 24 0 0 0
M  V30 BEGIN ATOM
M  V30 1 Cl 1.3537 -3.2172 -0.0845 0
M  V30 2 C 2.0027 -1.5809 -0.1488 0
M  V30 3 C 1.1815 -0.5291 -0.5891 0
M  V30 4 C 3.3244 -1.3189 0.2528 0
M  V30 5 O -0.1343 -0.8078 -0.9807 0
M  V30 6 C 1.7002 0.7793 -0.659 0
M  V30 7 Cl 4.3772 -2.606 0.8252 0
M  V30 8 C 3.8222 -0.0133 0.2005 0
M  V30 9 C -1.2758 -0.2593 -0.3765 0
M  V30 10 Cl 0.7448 2.1086 -1.3021 0
M  V30 11 C 3.0159 1.0295 -0.2579 0
M  V30 12 C -1.2269 0.3765 0.8797 0
M  V30 13 C -2.5048 -0.3737 -1.0382 0
M  V30 14 C -2.3916 0.9029 1.4471 0
M  V30 15 C -3.6677 0.1535 -0.4679 0
M  V30 16 C -3.6108 0.7934 0.7731 0
M  V30 17 H 4.8397 0.1934 0.5071 0
M  V30 18 H 3.4193 2.0328 -0.3107 0
M  V30 19 H -0.2954 0.4594 1.4237 0
M  V30 20 H -2.5571 -0.8685 -1.9997 0
M  V30 21 H -2.3496 1.3927 2.4115 0
M  V30 22 H -4.6129 0.0654 -0.9878 0
M  V30 23 H -4.5116 1.2007 1.2139 0
M  V30 END ATOM
M  V30 BEGIN BOND
M  V30 1 1 1 2
M  V30 2 2 2 3
M  V30 3 1 2 4
M  V30 4 1 3 5
M  V30 5 1 3 6
M  V30 6 1 4 7
M  V30 7 2 4 8
M  V30 8 1 5 9
M  V30 9 1 6 10
M  V30 10 2 6 11
M  V30 11 2 9 12
M  V30 12 1 9 13
M  V30 13 1 12 14
M  V30 14 2 13 15
M  V30 15 2 14 16
M  V30 16 1 8 11
M  V30 17 1 15 16
M  V30 18 1 8 17
M  V30 19 1 11 18
M  V30 20 1 12 19
M  V30 21 1 13 20
M  V30 22 1 14 21
M  V30 23 1 15 22
M  V30 24 1 16 23
M  V30 END BOND
M  V30 END CTAB
M  END
>  <Structure No>
7160

>  <LogS>
-5.95

>  <MMFF94 Energy>
57.035

$$$$
Compound 7161
Actelion Java MolfileCreator 2.0

  0  0  0  0  0  0              0 V3000
M  V30 BEGIN CTAB
M  V30 COUNTS 44 47 0 0 0
M  V30 BEGIN ATOM
M  V30 1 O 0.0807 4.2882 0.6463 0
M  V30 2 C -0.5669 3.2342 0.4113 0
M  V30 3 C -1.2098 3.0392 -0.898 0
M  V30 4 C -0.7405 2.1955 1.4827 0
M  V30 5 C -1.8521 1.9003 -1.1771 0
M  V30 6 C -0.7953 0.7677 0.8564 0 CFG=1
M  V30 7 C -1.991 0.7936 -0.1433 0 CFG=2
M  V30 8 C 0.5123 0.3467 0.1345 0
M  V30 9 C -1.112 -0.2815 1.948 0
M  V30 10 C -2.1276 -0.5968 -0.7837 0 CFG=2
M  V30 11 C 1.7998 0.5606 0.7047 0
M  V30 12 C 0.4344 -0.4321 -1.0553 0
M  V30 13 C -1.3731 -1.6711 1.333 0
M  V30 14 N -2.4085 -1.6148 0.2749 0 CHG=1 CFG=2
M  V30 15 C -0.8781 -0.8911 -1.6545 0
M  V30 16 O 1.9273 1.1059 1.9817 0
M  V30 17 C 2.9653 0.1888 0.0068 0
M  V30 18 C 1.6038 -0.7964 -1.7329 0
M  V30 19 C -2.6605 -2.9602 -0.2764 0
M  V30 20 O 4.2172 0.4793 0.5744 0
M  V30 21 C 2.8533 -0.4698 -1.2242 0
M  V30 22 C 5.4709 0.1567 -0.0185 0
M  V30 23 H -1.1407 3.8146 -1.6506 0
M  V30 24 H 0.018 2.3136 2.2752 0
M  V30 25 H -1.7071 2.4096 1.9903 0
M  V30 26 H -2.3217 1.7881 -2.1466 0
M  V30 27 H -2.932 1.0074 0.4138 0
M  V30 28 H -2.0137 0.0261 2.5231 0
M  V30 29 H -0.2703 -0.3542 2.6704 0
M  V30 30 H -3.007 -0.5614 -1.4687 0
M  V30 31 H -0.4243 -2.0945 0.9364 0
M  V30 32 H -1.7074 -2.3498 2.1498 0
M  V30 33 H -3.3046 -1.3302 0.7404 0
M  V30 34 H -1.0003 -0.3597 -2.6236 0
M  V30 35 H -0.8144 -1.9655 -1.9147 0
M  V30 36 H 2.8228 1.257 2.4296 0
M  V30 37 H 1.5458 -1.3507 -2.6622 0
M  V30 38 H -3.3292 -2.9075 -1.1632 0
M  V30 39 H -1.7173 -3.4735 -0.5608 0
M  V30 40 H -3.1664 -3.5949 0.4845 0
M  V30 41 H 3.7302 -0.7681 -1.7818 0
M  V30 42 H 5.572 0.667 -0.9996 0
M  V30 43 H 5.5612 -0.9426 -0.1468 0
M  V30 44 H 6.2868 0.5042 0.6476 0
M  V30 END ATOM
M  V30 BEGIN BOND
M  V30 1 2 1 2
M  V30 2 1 2 3
M  V30 3 1 2 4
M  V30 4 2 3 5
M  V30 5 1 4 6
M  V30 6 1 5 7
M  V30 7 1 6 8
M  V30 8 1 6 9
M  V30 9 1 7 10
M  V30 10 2 8 11
M  V30 11 1 8 12
M  V30 12 1 9 13
M  V30 13 1 10 14
M  V30 14 1 10 15
M  V30 15 1 11 16
M  V30 16 1 11 17
M  V30 17 2 12 18
M  V30 18 1 14 19
M  V30 19 1 17 20
M  V30 20 2 17 21
M  V30 21 1 20 22
M  V30 22 1 6 7
M  V30 23 1 12 15
M  V30 24 1 13 14
M  V30 25 1 18 21
M  V30 26 1 3 23
M  V30 27 1 4 24
M  V30 28 1 4 25
M  V30 29 1 5 26
M  V30 30 1 7 27
M  V30 31 1 9 28
M  V30 32 1 9 29
M  V30 33 1 10 30
M  V30 34 1 13 31
M  V30 35 1 13 32
M  V30 36 1 14 33
M  V30 37 1 15 34
M  V30 38 1 15 35
M  V30 39 1 16 36
M  V30 40 1 18 37
M  V30 41 1 19 38
M  V30 42 1 19 39
M  V30 43 1 19 40
M  V30 44 1 21 41
M  V30 45 1 22 42
M  V30 46 1 22 43
M  V30 47 1 22 44
M  V30 END BOND
M  V30 BEGIN COLLECTION
M  V30 MDLV30/STEABS ATOMS=(4 6 7 10 14)
M  V30 END COLLECTION
M  V30 END CTAB
M  END
>  <Structure No>
7161

>  <LogS>
-1.87

>  <MMFF94 Energy>
83.993

$$$$
Compound 7162
Actelion Java MolfileCreator 2.0

  0  0  0  0  0  0              0 V3000
M  V30 BEGIN CTAB
M  V30 COUNTS 32 33 0 0 0
M  V30 BEGIN ATOM
M  V30 1 O -0.2391 -0.6378 1.4355 0
M  V30 2 C -0.9239 -0.111 0.5175 0
M  V30 3 N -0.2813 0.4175 -0.6533 0
M  V30 4 C -2.3907 -0.0289 0.6727 0
M  V30 5 N 1.1104 0.3541 -0.8446 0
M  V30 6 C -3.2888 -0.541 -0.2991 0
M  V30 7 C -2.9032 0.5649 1.8386 0
M  V30 8 C 2.0418 0.7434 0.1768 0
M  V30 9 C -4.6723 -0.3821 -0.1057 0
M  V30 10 C -2.8139 -1.2496 -1.541 0
M  V30 11 C -4.2809 0.6956 2.0228 0
M  V30 12 O 1.6392 1.434 1.1529 0
M  V30 13 C 3.4766 0.3808 0.0793 0
M  V30 14 C -5.1635 0.2308 1.0486 0
M  V30 15 C 4.4335 1.0593 0.8539 0
M  V30 16 C 3.9068 -0.656 -0.767 0
M  V30 17 C 5.7812 0.7043 0.7577 0
M  V30 18 C 5.2646 -0.9786 -0.8313 0
M  V30 19 N 6.1653 -0.2975 -0.0754 0
M  V30 20 H -0.8709 0.7603 -1.4435 0
M  V30 21 H 1.4641 0.2321 -1.8195 0
M  V30 22 H -2.2328 0.9461 2.5996 0
M  V30 23 H -5.375 -0.7462 -0.8453 0
M  V30 24 H -1.8623 -1.7903 -1.357 0
M  V30 25 H -3.5598 -2.0044 -1.8701 0
M  V30 26 H -2.6735 -0.5148 -2.3604 0
M  V30 27 H -4.6645 1.1648 2.9197 0
M  V30 28 H -6.231 0.3397 1.1907 0
M  V30 29 H 4.145 1.862 1.5212 0
M  V30 30 H 3.2049 -1.2268 -1.3603 0
M  V30 31 H 6.5227 1.2267 1.3475 0
M  V30 32 H 5.602 -1.7761 -1.4797 0
M  V30 END ATOM
M  V30 BEGIN BOND
M  V30 1 2 1 2
M  V30 2 1 2 3
M  V30 3 1 2 4
M  V30 4 1 3 5
M  V30 5 2 4 6
M  V30 6 1 4 7
M  V30 7 1 5 8
M  V30 8 1 6 9
M  V30 9 1 6 10
M  V30 10 2 7 11
M  V30 11 2 8 12
M  V30 12 1 8 13
M  V30 13 2 9 14
M  V30 14 2 13 15
M  V30 15 1 13 16
M  V30 16 1 15 17
M  V30 17 2 16 18
M  V30 18 2 17 19
M  V30 19 1 11 14
M  V30 20 1 18 19
M  V30 21 1 3 20
M  V30 22 1 5 21
M  V30 23 1 7 22
M  V30 24 1 9 23
M  V30 25 1 10 24
M  V30 26 1 10 25
M  V30 27 1 10 26
M  V30 28 1 11 27
M  V30 29 1 14 28
M  V30 30 1 15 29
M  V30 31 1 16 30
M  V30 32 1 17 31
M  V30 33 1 18 32
M  V30 END BOND
M  V30 END CTAB
M  END
>  <Structure No>
7162

>  <LogS>
-2.73

>  <MMFF94 Energy>
66.771

$$$$
Compound 7163
Actelion Java MolfileCreator 2.0

  0  0  0  0  0  0              0 V3000
M  V30 BEGIN CTAB
M  V30 COUNTS 35 37 0 0 0
M  V30 BEGIN ATOM
M  V30 1 O 2.0005 1.9204 -1.8403 0
M  V30 2 C 1.7633 1.0409 -0.9641 0
M  V30 3 N 0.4666 0.6961 -0.6664 0
M  V30 4 C 2.8337 0.4243 -0.2938 0
M  V30 5 C 0.2165 -0.2323 0.3181 0
M  V30 6 C -0.6334 1.4227 -1.3337 0
M  V30 7 C 2.5373 -0.5323 0.6926 0
M  V30 8 C 4.1788 0.7352 -0.5725 0
M  V30 9 N 1.2473 -0.8341 0.9684 0
M  V30 10 C -1.187 -0.6805 0.6474 0 CFG=1
M  V30 11 C -1.9891 0.7374 -1.1687 0
M  V30 12 C 3.5705 -1.1721 1.3873 0
M  V30 13 C 5.2061 0.0925 0.1258 0
M  V30 14 N -2.1721 0.3488 0.2385 0
M  V30 15 C -1.4382 -2.0729 0.0267 0
M  V30 16 C 4.9026 -0.8592 1.1034 0
M  V30 17 C -3.5698 -0.0234 0.5453 0
M  V30 18 C -4.3893 1.2178 0.8875 0
M  V30 19 H -0.4282 1.5171 -2.423 0
M  V30 20 H -0.6962 2.4466 -0.9037 0
M  V30 21 H 4.4376 1.4691 -1.3258 0
M  V30 22 H -1.2453 -0.7901 1.7536 0
M  V30 23 H -2.7735 1.4592 -1.4817 0
M  V30 24 H -2.064 -0.1377 -1.8481 0
M  V30 25 H 3.3434 -1.9103 2.1468 0
M  V30 26 H 6.2389 0.3328 -0.0909 0
M  V30 27 H -0.7415 -2.8111 0.4785 0
M  V30 28 H -2.468 -2.4306 0.2289 0
M  V30 29 H -1.2614 -2.0728 -1.0682 0
M  V30 30 H 5.7006 -1.3543 1.6416 0
M  V30 31 H -4.0418 -0.5623 -0.3071 0
M  V30 32 H -3.6135 -0.6914 1.4347 0
M  V30 33 H -4.4835 1.8869 0.0078 0
M  V30 34 H -5.4092 0.9142 1.2055 0
M  V30 35 H -3.9074 1.7742 1.7195 0
M  V30 END ATOM
M  V30 BEGIN BOND
M  V30 1 2 1 2
M  V30 2 1 2 3
M  V30 3 1 2 4
M  V30 4 1 3 5
M  V30 5 1 3 6
M  V30 6 2 4 7
M  V30 7 1 4 8
M  V30 8 2 5 9
M  V30 9 1 5 10
M  V30 10 1 6 11
M  V30 11 1 7 12
M  V30 12 2 8 13
M  V30 13 1 10 14
M  V30 14 1 10 15
M  V30 15 2 12 16
M  V30 16 1 14 17
M  V30 17 1 17 18
M  V30 18 1 7 9
M  V30 19 1 11 14
M  V30 20 1 13 16
M  V30 21 1 6 19
M  V30 22 1 6 20
M  V30 23 1 8 21
M  V30 24 1 10 22
M  V30 25 1 11 23
M  V30 26 1 11 24
M  V30 27 1 12 25
M  V30 28 1 13 26
M  V30 29 1 15 27
M  V30 30 1 15 28
M  V30 31 1 15 29
M  V30 32 1 16 30
M  V30 33 1 17 31
M  V30 34 1 17 32
M  V30 35 1 18 33
M  V30 36 1 18 34
M  V30 37 1 18 35
M  V30 END BOND
M  V30 BEGIN COLLECTION
M  V30 MDLV30/STEABS ATOMS=(1 10)
M  V30 END COLLECTION
M  V30 END CTAB
M  END
>  <Structure No>
7163

>  <LogS>
-2.5

>  <MMFF94 Energy>
55.798

$$$$
Compound 7164
Actelion Java MolfileCreator 2.0

  0  0  0  0  0  0              0 V3000
M  V30 BEGIN CTAB
M  V30 COUNTS 34 34 0 0 0
M  V30 BEGIN ATOM
M  V30 1 O 3.6245 1.368 -0.5631 0
M  V30 2 N 2.6789 2.1414 -0.3059 0 CHG=1
M  V30 3 O 2.8688 3.4953 -0.4625 0 CHG=-1
M  V30 4 C 1.4677 1.6442 0.2917 0
M  V30 5 C 1.0076 0.3303 0.0395 0
M  V30 6 C 0.7454 2.4691 1.1662 0
M  V30 7 O 1.6449 -0.4835 -0.9061 0
M  V30 8 C -0.1126 -0.1757 0.7356 0
M  V30 9 C -0.4046 2.0011 1.8184 0
M  V30 10 C 1.7274 -0.1574 -2.2645 0
M  V30 11 C -0.8214 0.68 1.6013 0
M  V30 12 C -0.597 -1.5987 0.4645 0 CFG=2
M  V30 13 N -1.1459 2.8611 2.7053 0 CHG=1
M  V30 14 O 1.1641 0.8768 -2.7163 0
M  V30 15 C 2.5136 -1.0303 -3.1814 0
M  V30 16 C -1.5649 -1.6677 -0.7394 0
M  V30 17 C -1.1553 -2.3088 1.7108 0
M  V30 18 O -0.7753 4.0356 2.9119 0
M  V30 19 O -2.2835 2.407 3.3333 0 CHG=-1
M  V30 20 C -2.8274 -0.8138 -0.594 0
M  V30 21 H 1.0928 3.4771 1.3528 0
M  V30 22 H -1.7131 0.3266 2.0972 0
M  V30 23 H 0.2893 -2.2083 0.1807 0
M  V30 24 H 2.0398 -1.0551 -4.1854 0
M  V30 25 H 2.5526 -2.0638 -2.778 0
M  V30 26 H 3.5465 -0.6346 -3.2721 0
M  V30 27 H -1.0262 -1.3387 -1.6546 0
M  V30 28 H -1.8669 -2.7248 -0.9054 0
M  V30 29 H -1.3133 -3.3865 1.4907 0
M  V30 30 H -0.4287 -2.232 2.5479 0
M  V30 31 H -2.1246 -1.885 2.0396 0
M  V30 32 H -3.4097 -1.1071 0.3025 0
M  V30 33 H -2.5687 0.2634 -0.5369 0
M  V30 34 H -3.4718 -0.962 -1.4857 0
M  V30 END ATOM
M  V30 BEGIN BOND
M  V30 1 2 1 2
M  V30 2 1 2 3
M  V30 3 1 2 4
M  V30 4 2 4 5
M  V30 5 1 4 6
M  V30 6 1 5 7
M  V30 7 1 5 8
M  V30 8 2 6 9
M  V30 9 1 7 10
M  V30 10 2 8 11
M  V30 11 1 8 12
M  V30 12 1 9 13
M  V30 13 2 10 14
M  V30 14 1 10 15
M  V30 15 1 12 16
M  V30 16 1 12 17
M  V30 17 2 13 18
M  V30 18 1 13 19
M  V30 19 1 16 20
M  V30 20 1 9 11
M  V30 21 1 6 21
M  V30 22 1 11 22
M  V30 23 1 12 23
M  V30 24 1 15 24
M  V30 25 1 15 25
M  V30 26 1 15 26
M  V30 27 1 16 27
M  V30 28 1 16 28
M  V30 29 1 17 29
M  V30 30 1 17 30
M  V30 31 1 17 31
M  V30 32 1 20 32
M  V30 33 1 20 33
M  V30 34 1 20 34
M  V30 END BOND
M  V30 BEGIN COLLECTION
M  V30 MDLV30/STEABS ATOMS=(1 12)
M  V30 END COLLECTION
M  V30 END CTAB
M  END
>  <Structure No>
7164

>  <LogS>
-2.25

>  <MMFF94 Energy>
78.664

$$$$
Compound 7165
Actelion Java MolfileCreator 2.0

  0  0  0  0  0  0              0 V3000
M  V30 BEGIN CTAB
M  V30 COUNTS 29 30 0 0 0
M  V30 BEGIN ATOM
M  V30 1 O -4.0602 0.477 -0.0794 0
M  V30 2 C -2.81 0.2982 -0.1285 0
M  V30 3 N -2.2552 -0.8379 0.4349 0
M  V30 4 N -2.0146 1.2388 -0.7444 0
M  V30 5 C -0.9048 -1.0813 0.3212 0
M  V30 6 C -3.1249 -1.8273 1.0943 0
M  V30 7 C -0.6828 0.9803 -0.8478 0
M  V30 8 C -2.5943 2.4479 -1.3452 0
M  V30 9 O -0.3894 -2.1138 0.8282 0
M  V30 10 C -0.1193 -0.15 -0.3561 0
M  V30 11 N 0.2455 1.7712 -1.4188 0
M  V30 12 N 1.207 -0.1156 -0.604 0
M  V30 13 C 1.3918 1.0673 -1.2449 0
M  V30 14 C 2.2221 -1.0975 -0.3251 0
M  V30 15 O 1.9397 -2.325 -0.3486 0
M  V30 16 C 3.6383 -0.6842 -0.0365 0
M  V30 17 C 3.7191 0.1074 1.2645 0
M  V30 18 H -3.5002 -2.5525 0.3421 0
M  V30 19 H -2.5814 -2.3779 1.8916 0
M  V30 20 H -3.9891 -1.3351 1.59 0
M  V30 21 H -3.4219 2.8404 -0.7162 0
M  V30 22 H -2.985 2.2096 -2.3568 0
M  V30 23 H -1.8402 3.2591 -1.4301 0
M  V30 24 H 2.3502 1.4159 -1.6058 0
M  V30 25 H 4.2834 -1.5854 0.0524 0
M  V30 26 H 4.0331 -0.0725 -0.8742 0
M  V30 27 H 3.3358 -0.5023 2.1105 0
M  V30 28 H 4.7765 0.3765 1.4703 0
M  V30 29 H 3.1249 1.0429 1.1887 0
M  V30 END ATOM
M  V30 BEGIN BOND
M  V30 1 2 1 2
M  V30 2 1 2 3
M  V30 3 1 2 4
M  V30 4 1 3 5
M  V30 5 1 3 6
M  V30 6 1 4 7
M  V30 7 1 4 8
M  V30 8 2 5 9
M  V30 9 1 5 10
M  V30 10 1 7 11
M  V30 11 1 10 12
M  V30 12 2 11 13
M  V30 13 1 12 14
M  V30 14 2 14 15
M  V30 15 1 14 16
M  V30 16 1 16 17
M  V30 17 2 7 10
M  V30 18 1 12 13
M  V30 19 1 6 18
M  V30 20 1 6 19
M  V30 21 1 6 20
M  V30 22 1 8 21
M  V30 23 1 8 22
M  V30 24 1 8 23
M  V30 25 1 13 24
M  V30 26 1 16 25
M  V30 27 1 16 26
M  V30 28 1 17 27
M  V30 29 1 17 28
M  V30 30 1 17 29
M  V30 END BOND
M  V30 END CTAB
M  END
>  <Structure No>
7165

>  <LogS>
-1.1

>  <MMFF94 Energy>
-115.11

$$$$
Compound 7166
Actelion Java MolfileCreator 2.0

  0  0  0  0  0  0              0 V3000
M  V30 BEGIN CTAB
M  V30 COUNTS 40 42 0 0 0
M  V30 BEGIN ATOM
M  V30 1 N 3.009 0.4746 1.3452 0 CHG=1
M  V30 2 C 2.525 -0.4604 0.6051 0
M  V30 3 C 3.8522 -0.091 2.3903 0
M  V30 4 N 2.9115 -1.7559 1.0139 0
M  V30 5 C 1.5738 -0.2036 -0.5244 0
M  V30 6 C 3.7711 -1.6114 2.1737 0
M  V30 7 N 0.2793 0.2674 -0.0117 0
M  V30 8 C -0.2578 1.5258 -0.4616 0
M  V30 9 C -0.5483 -0.6156 0.8211 0
M  V30 10 C -0.3644 1.8006 -1.8355 0
M  V30 11 C -0.7004 2.4827 0.4674 0
M  V30 12 C -1.6481 -1.224 -0.0063 0
M  V30 13 C -0.905 3.0143 -2.272 0
M  V30 14 C -1.2374 3.6968 0.0274 0
M  V30 15 C -1.4155 -2.4018 -0.7369 0
M  V30 16 C -2.8965 -0.5827 -0.1088 0
M  V30 17 C -1.3406 3.9622 -1.3411 0
M  V30 18 C -2.4248 -2.9431 -1.5412 0
M  V30 19 C -3.9052 -1.1338 -0.9068 0
M  V30 20 C -3.6696 -2.3116 -1.6237 0
M  V30 21 H 2.8113 1.4936 1.2243 0
M  V30 22 H 3.4588 0.1892 3.3913 0
M  V30 23 H 4.8953 0.271 2.2718 0
M  V30 24 H 2.6043 -2.6559 0.5831 0
M  V30 25 H 1.4236 -1.1314 -1.117 0
M  V30 26 H 2.0332 0.5528 -1.1966 0
M  V30 27 H 3.313 -2.1174 3.0496 0
M  V30 28 H 4.7721 -2.0414 1.9595 0
M  V30 29 H -0.9726 -0.0499 1.6782 0
M  V30 30 H 0.0687 -1.4277 1.2653 0
M  V30 31 H -0.0428 1.0682 -2.5653 0
M  V30 32 H -0.6168 2.2952 1.5306 0
M  V30 33 H -0.9887 3.2189 -3.3318 0
M  V30 34 H -1.5726 4.4324 0.7486 0
M  V30 35 H -0.4548 -2.8978 -0.6846 0
M  V30 36 H -3.0857 0.3443 0.4244 0
M  V30 37 H -1.7576 4.9022 -1.6797 0
M  V30 38 H -2.2422 -3.8518 -2.1003 0
M  V30 39 H -4.866 -0.6373 -0.983 0
M  V30 40 H -4.4484 -2.7314 -2.2476 0
M  V30 END ATOM
M  V30 BEGIN BOND
M  V30 1 2 1 2
M  V30 2 1 1 3
M  V30 3 1 2 4
M  V30 4 1 2 5
M  V30 5 1 3 6
M  V30 6 1 5 7
M  V30 7 1 7 8
M  V30 8 1 7 9
M  V30 9 2 8 10
M  V30 10 1 8 11
M  V30 11 1 9 12
M  V30 12 1 10 13
M  V30 13 2 11 14
M  V30 14 2 12 15
M  V30 15 1 12 16
M  V30 16 2 13 17
M  V30 17 1 15 18
M  V30 18 2 16 19
M  V30 19 2 18 20
M  V30 20 1 4 6
M  V30 21 1 14 17
M  V30 22 1 19 20
M  V30 23 1 1 21
M  V30 24 1 3 22
M  V30 25 1 3 23
M  V30 26 1 4 24
M  V30 27 1 5 25
M  V30 28 1 5 26
M  V30 29 1 6 27
M  V30 30 1 6 28
M  V30 31 1 9 29
M  V30 32 1 9 30
M  V30 33 1 10 31
M  V30 34 1 11 32
M  V30 35 1 13 33
M  V30 36 1 14 34
M  V30 37 1 15 35
M  V30 38 1 16 36
M  V30 39 1 17 37
M  V30 40 1 18 38
M  V30 41 1 19 39
M  V30 42 1 20 40
M  V30 END BOND
M  V30 END CTAB
M  END
>  <Structure No>
7166

>  <LogS>
-2.6

>  <MMFF94 Energy>
101.62

$$$$
Compound 7167
Actelion Java MolfileCreator 2.0

  0  0  0  0  0  0              0 V3000
M  V30 BEGIN CTAB
M  V30 COUNTS 23 24 0 0 0
M  V30 BEGIN ATOM
M  V30 1 S -2.8289 -1.0809 1.0809 0
M  V30 2 O -2.5229 -0.9257 2.5441 0
M  V30 3 O -2.6342 -2.513 0.6696 0
M  V30 4 O -4.4365 -0.663 0.8227 0 CHG=-1
M  V30 5 C -1.7561 -0.0366 0.1331 0
M  V30 6 C -0.3416 -0.1698 0.1619 0
M  V30 7 C -2.3369 0.9554 -0.6724 0
M  V30 8 C 0.4541 0.7054 -0.6263 0
M  V30 9 C 0.3075 -1.1445 0.9488 0
M  V30 10 C -1.5444 1.8072 -1.4405 0
M  V30 11 C 1.8533 0.5911 -0.6125 0
M  V30 12 C -0.1572 1.6855 -1.4199 0
M  V30 13 C 1.7005 -1.2464 0.9524 0
M  V30 14 C 2.4781 -0.3824 0.1747 0
M  V30 15 N 3.904 -0.4937 0.1843 0
M  V30 16 H -3.4113 1.076 -0.7106 0
M  V30 17 H -0.2448 -1.8363 1.5675 0
M  V30 18 H -2.0094 2.5668 -2.056 0
M  V30 19 H 2.4603 1.2586 -1.2138 0
M  V30 20 H 0.4385 2.3586 -2.0252 0
M  V30 21 H 2.1757 -2.0028 1.5647 0
M  V30 22 H 4.4946 0.1461 -0.3925 0
M  V30 23 H 4.38 -1.2169 0.7685 0
M  V30 END ATOM
M  V30 BEGIN BOND
M  V30 1 2 1 2
M  V30 2 2 1 3
M  V30 3 1 1 4
M  V30 4 1 1 5
M  V30 5 1 5 6
M  V30 6 2 5 7
M  V30 7 1 6 8
M  V30 8 2 6 9
M  V30 9 1 7 10
M  V30 10 2 8 11
M  V30 11 1 8 12
M  V30 12 1 9 13
M  V30 13 1 11 14
M  V30 14 1 14 15
M  V30 15 2 10 12
M  V30 16 2 13 14
M  V30 17 1 7 16
M  V30 18 1 9 17
M  V30 19 1 10 18
M  V30 20 1 11 19
M  V30 21 1 12 20
M  V30 22 1 13 21
M  V30 23 1 15 22
M  V30 24 1 15 23
M  V30 END BOND
M  V30 END CTAB
M  END
>  <Structure No>
7167

>  <LogS>
-2.75

>  <MMFF94 Energy>
51.035

$$$$
Compound 7168
Actelion Java MolfileCreator 2.0

  0  0  0  0  0  0              0 V3000
M  V30 BEGIN CTAB
M  V30 COUNTS 40 43 0 0 0
M  V30 BEGIN ATOM
M  V30 1 O 6.3859 -0.6452 0.0806 0
M  V30 2 C 4.9946 -0.5707 0.0822 0
M  V30 3 C 4.3378 0.5125 -0.5093 0
M  V30 4 C 4.2521 -1.5907 0.6758 0
M  V30 5 C 2.9352 0.5817 -0.5051 0
M  V30 6 C 2.8566 -1.5341 0.6917 0
M  V30 7 C 2.1692 -0.4407 0.1156 0
M  V30 8 C 2.2943 1.6564 -1.1262 0
M  V30 9 C 0.7469 -0.344 0.1293 0
M  V30 10 C 0.9068 1.7236 -1.1581 0
M  V30 11 C 0.1215 0.7327 -0.5521 0
M  V30 12 C -0.0918 -1.4193 0.7961 0
M  V30 13 C -1.3868 0.8833 -0.6362 0 CFG=1
M  V30 14 C -1.5513 -1.018 1.0219 0
M  V30 15 C -2.1933 -0.3596 -0.2267 0 CFG=1
M  V30 16 C -1.9016 2.0185 0.257 0
M  V30 17 C -3.5787 0.2343 0.1088 0 CFG=2
M  V30 18 C -2.3055 -1.3736 -1.3877 0
M  V30 19 C -3.3061 1.6166 0.7081 0
M  V30 20 O -4.3009 -0.5798 0.9977 0
M  V30 21 H 6.9551 0.078 -0.3433 0
M  V30 22 H 4.9229 1.2956 -0.9774 0
M  V30 23 H 4.7591 -2.4355 1.1249 0
M  V30 24 H 2.3335 -2.3626 1.1471 0
M  V30 25 H 2.8686 2.4416 -1.6041 0
M  V30 26 H 0.4363 2.5593 -1.6622 0
M  V30 27 H -0.0486 -2.3443 0.1824 0
M  V30 28 H 0.3278 -1.654 1.7976 0
M  V30 29 H -1.6514 1.1424 -1.6884 0
M  V30 30 H -1.5891 -0.3169 1.8852 0
M  V30 31 H -2.1244 -1.9248 1.3155 0
M  V30 32 H -1.2498 2.1473 1.1503 0
M  V30 33 H -1.9252 2.9783 -0.3042 0
M  V30 34 H -4.1651 0.3734 -0.8312 0
M  V30 35 H -2.8183 -0.9212 -2.2636 0
M  V30 36 H -2.8864 -2.2645 -1.0668 0
M  V30 37 H -1.3015 -1.7042 -1.7262 0
M  V30 38 H -3.3471 1.5771 1.8194 0
M  V30 39 H -4.0616 2.3508 0.3519 0
M  V30 40 H -5.2237 -0.2147 1.0293 0
M  V30 END ATOM
M  V30 BEGIN BOND
M  V30 1 1 1 2
M  V30 2 2 2 3
M  V30 3 1 2 4
M  V30 4 1 3 5
M  V30 5 2 4 6
M  V30 6 1 5 7
M  V30 7 2 5 8
M  V30 8 2 7 9
M  V30 9 1 8 10
M  V30 10 1 9 11
M  V30 11 1 9 12
M  V30 12 1 11 13
M  V30 13 1 12 14
M  V30 14 1 13 15
M  V30 15 1 13 16
M  V30 16 1 15 17
M  V30 17 1 15 18
M  V30 18 1 16 19
M  V30 19 1 17 20
M  V30 20 1 6 7
M  V30 21 2 10 11
M  V30 22 1 14 15
M  V30 23 1 17 19
M  V30 24 1 1 21
M  V30 25 1 3 22
M  V30 26 1 4 23
M  V30 27 1 6 24
M  V30 28 1 8 25
M  V30 29 1 10 26
M  V30 30 1 12 27
M  V30 31 1 12 28
M  V30 32 1 13 29
M  V30 33 1 14 30
M  V30 34 1 14 31
M  V30 35 1 16 32
M  V30 36 1 16 33
M  V30 37 1 17 34
M  V30 38 1 18 35
M  V30 39 1 18 36
M  V30 40 1 18 37
M  V30 41 1 19 38
M  V30 42 1 19 39
M  V30 43 1 20 40
M  V30 END BOND
M  V30 BEGIN COLLECTION
M  V30 MDLV30/STEABS ATOMS=(3 13 15 17)
M  V30 END COLLECTION
M  V30 END CTAB
M  END
>  <Structure No>
7168

>  <LogS>
-4.64

>  <MMFF94 Energy>
54.06

$$$$
Compound 7169
Actelion Java MolfileCreator 2.0

  0  0  0  0  0  0              0 V3000
M  V30 BEGIN CTAB
M  V30 COUNTS 28 29 0 0 0
M  V30 BEGIN ATOM
M  V30 1 S 0.8083 -1.698 0.6466 0
M  V30 2 C 2.2615 -0.8955 0.4033 0
M  V30 3 C -0.1067 -0.6508 -0.3196 0
M  V30 4 C 2.0546 0.2011 -0.4199 0
M  V30 5 C 3.5177 -1.2079 0.9171 0
M  V30 6 C 0.7254 0.3526 -0.8277 0
M  V30 7 C -1.5982 -0.76 -0.5095 0 CFG=1
M  V30 8 C 3.1218 1.0364 -0.7604 0
M  V30 9 C 4.5968 -0.3765 0.5789 0
M  V30 10 N -2.3065 0.2145 0.3346 0
M  V30 11 C -1.9957 -0.5758 -1.9764 0
M  V30 12 C 4.3999 0.7409 -0.256 0
M  V30 13 O -1.7781 1.4515 0.5194 0
M  V30 14 C -3.5949 -0.087 0.9014 0
M  V30 15 O -4.1567 -1.1886 0.6567 0
M  V30 16 N -4.2553 0.8584 1.7448 0
M  V30 17 H 3.659 -2.067 1.5599 0
M  V30 18 H 0.3817 1.1634 -1.4568 0
M  V30 19 H -1.8879 -1.7916 -0.2115 0
M  V30 20 H 2.9716 1.8966 -1.4007 0
M  V30 21 H 5.5848 -0.5945 0.9628 0
M  V30 22 H -1.7818 0.4584 -2.319 0
M  V30 23 H -3.0829 -0.7672 -2.0978 0
M  V30 24 H -1.4402 -1.2934 -2.6172 0
M  V30 25 H 5.2381 1.3766 -0.51 0
M  V30 26 H -2.1286 1.9966 -0.231 0
M  V30 27 H -5.1926 0.6364 2.1479 0
M  V30 28 H -3.8158 1.7759 1.9775 0
M  V30 END ATOM
M  V30 BEGIN BOND
M  V30 1 1 1 2
M  V30 2 1 1 3
M  V30 3 2 2 4
M  V30 4 1 2 5
M  V30 5 2 3 6
M  V30 6 1 3 7
M  V30 7 1 4 8
M  V30 8 2 5 9
M  V30 9 1 7 10
M  V30 10 1 7 11
M  V30 11 2 8 12
M  V30 12 1 10 13
M  V30 13 1 10 14
M  V30 14 2 14 15
M  V30 15 1 14 16
M  V30 16 1 4 6
M  V30 17 1 9 12
M  V30 18 1 5 17
M  V30 19 1 6 18
M  V30 20 1 7 19
M  V30 21 1 8 20
M  V30 22 1 9 21
M  V30 23 1 11 22
M  V30 24 1 11 23
M  V30 25 1 11 24
M  V30 26 1 12 25
M  V30 27 1 13 26
M  V30 28 1 16 27
M  V30 29 1 16 28
M  V30 END BOND
M  V30 BEGIN COLLECTION
M  V30 MDLV30/STEABS ATOMS=(1 7)
M  V30 END COLLECTION
M  V30 END CTAB
M  END
>  <Structure No>
7169

>  <LogS>
-3.37

>  <MMFF94 Energy>
-12.129

$$$$
Compound 7170
Actelion Java MolfileCreator 2.0

  0  0  0  0  0  0              0 V3000
M  V30 BEGIN CTAB
M  V30 COUNTS 23 24 0 0 0
M  V30 BEGIN ATOM
M  V30 1 S 3.2466 -0.2494 0.1663 0
M  V30 2 O 3.4615 -1.2808 -0.9052 0
M  V30 3 O 3.3813 -0.8868 1.5204 0
M  V30 4 O 4.4291 0.9348 0.0121 0 CHG=-1
M  V30 5 C 1.6299 0.4594 -0.0021 0
M  V30 6 C 0.4406 -0.3181 0.063 0
M  V30 7 C 1.538 1.8419 -0.2043 0
M  V30 8 C -0.8301 0.3166 -0.0969 0
M  V30 9 C 0.4833 -1.7086 0.2919 0
M  V30 10 C 0.3005 2.4612 -0.3347 0
M  V30 11 C -2.0172 -0.4674 -0.0475 0
M  V30 12 C -0.8723 1.7144 -0.2788 0
M  V30 13 C -0.6879 -2.4555 0.366 0
M  V30 14 N -3.3241 0.091 -0.2581 0
M  V30 15 C -1.9241 -1.8429 0.1991 0
M  V30 16 H 2.4285 2.454 -0.254 0
M  V30 17 H 1.415 -2.2376 0.4246 0
M  V30 18 H 0.2493 3.5333 -0.4765 0
M  V30 19 H -1.7994 2.2584 -0.3611 0
M  V30 20 H -0.6366 -3.5214 0.548 0
M  V30 21 H -4.1758 -0.4868 -0.0801 0
M  V30 22 H -3.4832 1.0195 -0.7019 0
M  V30 23 H -2.82 -2.4497 0.247 0
M  V30 END ATOM
M  V30 BEGIN BOND
M  V30 1 2 1 2
M  V30 2 2 1 3
M  V30 3 1 1 4
M  V30 4 1 1 5
M  V30 5 1 5 6
M  V30 6 2 5 7
M  V30 7 1 6 8
M  V30 8 2 6 9
M  V30 9 1 7 10
M  V30 10 2 8 11
M  V30 11 1 8 12
M  V30 12 1 9 13
M  V30 13 1 11 14
M  V30 14 1 11 15
M  V30 15 2 10 12
M  V30 16 2 13 15
M  V30 17 1 7 16
M  V30 18 1 9 17
M  V30 19 1 10 18
M  V30 20 1 12 19
M  V30 21 1 13 20
M  V30 22 1 14 21
M  V30 23 1 14 22
M  V30 24 1 15 23
M  V30 END BOND
M  V30 END CTAB
M  END
>  <Structure No>
7170

>  <LogS>
-2.35

>  <MMFF94 Energy>
66.427

$$$$
Compound 7171
Actelion Java MolfileCreator 2.0

  0  0  0  0  0  0              0 V3000
M  V30 BEGIN CTAB
M  V30 COUNTS 23 24 0 0 0
M  V30 BEGIN ATOM
M  V30 1 S 3.1636 0.4158 0.0 0
M  V30 2 O 4.2104 -0.6567 0.1151 0
M  V30 3 O 3.3417 1.3873 1.1327 0
M  V30 4 O 3.3711 1.2076 -1.4673 0 CHG=-1
M  V30 5 C 1.537 -0.2897 0.0704 0
M  V30 6 C 0.3594 0.495 -0.0474 0
M  V30 7 C 1.4247 -1.6716 0.2565 0
M  V30 8 C -0.9215 -0.1366 0.0152 0
M  V30 9 C 0.4227 1.8958 -0.2177 0
M  V30 10 C 0.1797 -2.2873 0.308 0
M  V30 11 C -0.9985 -1.5462 0.1736 0
M  V30 12 C -2.0817 0.6666 -0.061 0
M  V30 13 C -0.7399 2.6581 -0.3098 0
M  V30 14 N -2.2466 -2.258 0.1866 0
M  V30 15 C -1.9856 2.0473 -0.2263 0
M  V30 16 H 2.3078 -2.2886 0.3567 0
M  V30 17 H 1.3635 2.4222 -0.2762 0
M  V30 18 H 0.1336 -3.3616 0.4381 0
M  V30 19 H -3.075 0.2556 0.0238 0
M  V30 20 H -0.6737 3.7311 -0.4375 0
M  V30 21 H -2.2698 -3.2707 0.4418 0
M  V30 22 H -3.1382 -1.8527 -0.1668 0
M  V30 23 H -2.8842 2.6483 -0.2844 0
M  V30 END ATOM
M  V30 BEGIN BOND
M  V30 1 2 1 2
M  V30 2 2 1 3
M  V30 3 1 1 4
M  V30 4 1 1 5
M  V30 5 1 5 6
M  V30 6 2 5 7
M  V30 7 1 6 8
M  V30 8 2 6 9
M  V30 9 1 7 10
M  V30 10 1 8 11
M  V30 11 2 8 12
M  V30 12 1 9 13
M  V30 13 1 11 14
M  V30 14 1 12 15
M  V30 15 2 10 11
M  V30 16 2 13 15
M  V30 17 1 7 16
M  V30 18 1 9 17
M  V30 19 1 10 18
M  V30 20 1 12 19
M  V30 21 1 13 20
M  V30 22 1 14 21
M  V30 23 1 14 22
M  V30 24 1 15 23
M  V30 END BOND
M  V30 END CTAB
M  END
>  <Structure No>
7171

>  <LogS>
-2.91

>  <MMFF94 Energy>
66.357

$$$$
Compound 7172
Actelion Java MolfileCreator 2.0

  0  0  0  0  0  0              0 V3000
M  V30 BEGIN CTAB
M  V30 COUNTS 47 50 0 0 0
M  V30 BEGIN ATOM
M  V30 1 O 7.1333 0.8795 0.5596 0
M  V30 2 C 5.8908 0.682 0.6245 0
M  V30 3 N 4.9896 1.785 0.5927 0
M  V30 4 C 5.3514 -0.7158 0.6502 0
M  V30 5 C 3.5837 1.5903 0.9182 0
M  V30 6 O 4.0356 -0.7907 1.1832 0
M  V30 7 C 3.1252 0.1414 0.599 0 CFG=2
M  V30 8 C 2.9914 -0.0835 -0.9443 0
M  V30 9 C 1.7455 -0.0781 1.2842 0
M  V30 10 C 1.563 0.1841 -1.4363 0
M  V30 11 C 0.9183 -1.1521 0.5616 0
M  V30 12 N 0.5928 -0.7784 -0.8483 0 CHG=1 CFG=1
M  V30 13 C -0.7857 -0.2402 -0.9701 0
M  V30 14 C -1.8459 -1.3567 -0.9809 0
M  V30 15 C -3.2249 -0.7697 -1.0149 0
M  V30 16 C -3.9449 -0.2579 0.0463 0
M  V30 17 C -4.0021 -0.5366 -2.1455 0
M  V30 18 C -5.114 0.2391 -0.4701 0
M  V30 19 C -3.6502 -0.1799 1.4078 0
M  V30 20 N -5.1603 0.0736 -1.8038 0
M  V30 21 C -6.074 0.8431 0.3409 0
M  V30 22 C -4.6018 0.4225 2.2508 0
M  V30 23 C -5.8087 0.9308 1.7201 0
M  V30 24 H 5.3688 2.7574 0.5427 0
M  V30 25 H 6.0139 -1.3352 1.2905 0
M  V30 26 H 5.3933 -1.1538 -0.3687 0
M  V30 27 H 3.4502 1.7988 2.0027 0
M  V30 28 H 2.9711 2.3253 0.3521 0
M  V30 29 H 3.2336 -1.1391 -1.1971 0
M  V30 30 H 3.7023 0.5613 -1.5056 0
M  V30 31 H 1.8904 -0.3761 2.3462 0
M  V30 32 H 1.1481 0.8614 1.2933 0
M  V30 33 H 1.5468 0.1026 -2.5468 0
M  V30 34 H 1.2913 1.2346 -1.1818 0
M  V30 35 H 0.0039 -1.3457 1.1633 0
M  V30 36 H 1.4972 -2.1036 0.5728 0
M  V30 37 H 0.6534 -1.6513 -1.4265 0
M  V30 38 H -0.9938 0.4775 -0.1434 0
M  V30 39 H -0.8994 0.3236 -1.9254 0
M  V30 40 H -1.6996 -1.9993 -1.8759 0
M  V30 41 H -1.7549 -2.0046 -0.0853 0
M  V30 42 H -3.7293 -0.7888 -3.1619 0
M  V30 43 H -2.7212 -0.5669 1.8064 0
M  V30 44 H -5.9254 0.369 -2.45 0
M  V30 45 H -6.9927 1.2357 -0.0757 0
M  V30 46 H -4.4069 0.4991 3.3127 0
M  V30 47 H -6.5326 1.394 2.3781 0
M  V30 END ATOM
M  V30 BEGIN BOND
M  V30 1 2 1 2
M  V30 2 1 2 3
M  V30 3 1 2 4
M  V30 4 1 3 5
M  V30 5 1 4 6
M  V30 6 1 5 7
M  V30 7 1 7 8
M  V30 8 1 7 9
M  V30 9 1 8 10
M  V30 10 1 9 11
M  V30 11 1 10 12
M  V30 12 1 12 13
M  V30 13 1 13 14
M  V30 14 1 14 15
M  V30 15 1 15 16
M  V30 16 2 15 17
M  V30 17 2 16 18
M  V30 18 1 16 19
M  V30 19 1 17 20
M  V30 20 1 18 21
M  V30 21 2 19 22
M  V30 22 2 21 23
M  V30 23 1 6 7
M  V30 24 1 11 12
M  V30 25 1 18 20
M  V30 26 1 22 23
M  V30 27 1 3 24
M  V30 28 1 4 25
M  V30 29 1 4 26
M  V30 30 1 5 27
M  V30 31 1 5 28
M  V30 32 1 8 29
M  V30 33 1 8 30
M  V30 34 1 9 31
M  V30 35 1 9 32
M  V30 36 1 10 33
M  V30 37 1 10 34
M  V30 38 1 11 35
M  V30 39 1 11 36
M  V30 40 1 12 37
M  V30 41 1 13 38
M  V30 42 1 13 39
M  V30 43 1 14 40
M  V30 44 1 14 41
M  V30 45 1 17 42
M  V30 46 1 19 43
M  V30 47 1 20 44
M  V30 48 1 21 45
M  V30 49 1 22 46
M  V30 50 1 23 47
M  V30 END BOND
M  V30 BEGIN COLLECTION
M  V30 MDLV30/STEABS ATOMS=(2 7 12)
M  V30 END COLLECTION
M  V30 END CTAB
M  END
>  <Structure No>
7172

>  <LogS>
-2.99

>  <MMFF94 Energy>
82.467

$$$$
Compound 7173
Actelion Java MolfileCreator 2.0

  0  0  0  0  0  0              0 V3000
M  V30 BEGIN CTAB
M  V30 COUNTS 32 33 0 0 0
M  V30 BEGIN ATOM
M  V30 1 O -4.4576 0.4046 -1.6192 0
M  V30 2 N -3.6371 1.2807 -1.2798 0 CHG=1
M  V30 3 O -4.0221 2.6009 -1.3229 0 CHG=-1
M  V30 4 C -2.2567 0.9415 -1.0722 0
M  V30 5 C -1.877 -0.2415 -0.4056 0
M  V30 6 C -1.2599 1.8125 -1.5372 0
M  V30 7 N -2.8422 -1.1202 0.1751 0
M  V30 8 C -0.5218 -0.5507 -0.2554 0
M  V30 9 C 0.1036 1.5173 -1.372 0
M  V30 10 C -3.1757 -2.3443 0.9624 0
M  V30 11 C -4.2243 -1.5584 0.5375 0
M  V30 12 C 0.4773 0.3066 -0.7417 0
M  V30 13 N 1.0868 2.4735 -1.8069 0 CHG=1
M  V30 14 C 1.8915 -0.1178 -0.6413 0
M  V30 15 O 0.8576 3.2066 -2.7911 0
M  V30 16 O 2.1973 2.7278 -1.0351 0 CHG=-1
M  V30 17 O 2.6566 0.0326 -1.6326 0
M  V30 18 N 2.3886 -0.72 0.564 0
M  V30 19 C 3.7681 -1.1825 0.6995 0
M  V30 20 C 4.7149 -9.0E-4 0.8798 0
M  V30 21 H -1.5478 2.7339 -2.0277 0
M  V30 22 H -0.2506 -1.4813 0.2286 0
M  V30 23 H -2.8663 -2.2344 2.0231 0
M  V30 24 H -2.9687 -3.2646 0.377 0
M  V30 25 H -4.7836 -1.9249 -0.3487 0
M  V30 26 H -4.6775 -0.8806 1.2912 0
M  V30 27 H 1.7463 -0.8457 1.3786 0
M  V30 28 H 3.8477 -1.8414 1.5911 0
M  V30 29 H 4.0606 -1.7766 -0.1927 0
M  V30 30 H 5.7505 -0.373 1.027 0
M  V30 31 H 4.4174 0.5924 1.7703 0
M  V30 32 H 4.6976 0.6536 -0.0163 0
M  V30 END ATOM
M  V30 BEGIN BOND
M  V30 1 2 1 2
M  V30 2 1 2 3
M  V30 3 1 2 4
M  V30 4 2 4 5
M  V30 5 1 4 6
M  V30 6 1 5 7
M  V30 7 1 5 8
M  V30 8 2 6 9
M  V30 9 1 7 10
M  V30 10 1 7 11
M  V30 11 2 8 12
M  V30 12 1 9 13
M  V30 13 1 12 14
M  V30 14 2 13 15
M  V30 15 1 13 16
M  V30 16 2 14 17
M  V30 17 1 14 18
M  V30 18 1 18 19
M  V30 19 1 19 20
M  V30 20 1 9 12
M  V30 21 1 10 11
M  V30 22 1 6 21
M  V30 23 1 8 22
M  V30 24 1 10 23
M  V30 25 1 10 24
M  V30 26 1 11 25
M  V30 27 1 11 26
M  V30 28 1 18 27
M  V30 29 1 19 28
M  V30 30 1 19 29
M  V30 31 1 20 30
M  V30 32 1 20 31
M  V30 33 1 20 32
M  V30 END BOND
M  V30 END CTAB
M  END
>  <Structure No>
7173

>  <LogS>
-3.13

>  <MMFF94 Energy>
53.25

$$$$
Compound 7174
Actelion Java MolfileCreator 2.0

  0  0  0  0  0  0              0 V3000
M  V30 BEGIN CTAB
M  V30 COUNTS 62 65 0 0 0
M  V30 BEGIN ATOM
M  V30 1 S -4.7703 1.4786 -0.9855 0
M  V30 2 C -3.4847 0.2464 -1.2802 0
M  V30 3 C -6.1674 0.332 -1.2063 0
M  V30 4 O -3.369 -0.1886 -2.4162 0
M  V30 5 C -2.4478 -0.1207 -0.1961 0 CFG=2
M  V30 6 O -2.9868 0.2127 1.0966 0
M  V30 7 C -1.0789 0.641 -0.4293 0 CFG=2
M  V30 8 C -2.0837 -1.6293 -0.3279 0 CFG=1
M  V30 9 C -4.1215 -0.3673 1.6868 0
M  V30 10 C -0.2409 -0.3166 -1.3523 0 CFG=2
M  V30 11 C -0.3403 0.8965 0.9284 0
M  V30 12 C -1.3212 2.0336 -1.0909 0
M  V30 13 C -0.9858 -1.6728 -1.3927 0
M  V30 14 C -1.5944 -2.3338 0.962 0
M  V30 15 O -4.6258 -1.4243 1.2279 0
M  V30 16 C -4.723 0.2614 2.8962 0
M  V30 17 C 1.2398 -0.5057 -0.9004 0 CFG=2
M  V30 18 C 1.1515 1.3315 0.817 0 CFG=1
M  V30 19 C 1.8903 0.8463 -0.4774 0 CFG=2
M  V30 20 C 2.091 -1.1984 -1.9822 0
M  V30 21 O 1.2268 2.7331 0.9116 0
M  V30 22 F 1.6263 1.7608 -1.4877 0
M  V30 23 C 3.4897 0.7407 -0.3198 0 CFG=2
M  V30 24 C 3.4278 -1.6638 -1.389 0
M  V30 25 C 3.925 -0.7357 -0.3006 0
M  V30 26 C 4.0027 1.5212 0.8945 0
M  V30 27 C 4.2179 1.3938 -1.5239 0
M  V30 28 C 4.7556 -1.2286 0.6314 0
M  V30 29 C 4.8089 1.0003 1.8201 0
M  V30 30 C 5.2342 -0.3943 1.734 0
M  V30 31 O 6.003 -0.8781 2.6064 0
M  V30 32 H -7.1119 0.9154 -1.2007 0
M  V30 33 H -6.0847 -0.1978 -2.1786 0
M  V30 34 H -6.2073 -0.4017 -0.3814 0
M  V30 35 H -2.9671 -2.2049 -0.6885 0
M  V30 36 H -0.2259 0.0882 -2.3896 0
M  V30 37 H -0.8979 1.657 1.5211 0
M  V30 38 H -0.3762 -0.0147 1.5538 0
M  V30 39 H -1.641 1.9397 -2.1492 0
M  V30 40 H -0.4329 2.6841 -1.0732 0
M  V30 41 H -2.1061 2.586 -0.5343 0
M  V30 42 H -1.4466 -1.8091 -2.3958 0
M  V30 43 H -0.321 -2.5511 -1.2445 0
M  V30 44 H -0.515 -2.171 1.1493 0
M  V30 45 H -1.739 -3.4289 0.8583 0
M  V30 46 H -2.1405 -2.016 1.8647 0
M  V30 47 H -4.8401 -0.5013 3.6973 0
M  V30 48 H -5.7199 0.6699 2.6362 0
M  V30 49 H -4.0702 1.0799 3.2679 0
M  V30 50 H 1.2393 -1.1746 -0.01 0
M  V30 51 H 1.6607 0.8585 1.6904 0
M  V30 52 H 2.2584 -0.5098 -2.8347 0
M  V30 53 H 1.5706 -2.0855 -2.3987 0
M  V30 54 H 1.5013 2.9552 1.8392 0
M  V30 55 H 3.2753 -2.6805 -0.9648 0
M  V30 56 H 4.1893 -1.7376 -2.1935 0
M  V30 57 H 3.7686 2.576 0.9689 0
M  V30 58 H 3.912 0.949 -2.4899 0
M  V30 59 H 4.008 2.4848 -1.5744 0
M  V30 60 H 5.3189 1.2644 -1.431 0
M  V30 61 H 5.0651 -2.2673 0.5961 0
M  V30 62 H 5.1661 1.622 2.6336 0
M  V30 END ATOM
M  V30 BEGIN BOND
M  V30 1 1 1 2
M  V30 2 1 1 3
M  V30 3 2 2 4
M  V30 4 1 2 5
M  V30 5 1 5 6
M  V30 6 1 5 7
M  V30 7 1 5 8
M  V30 8 1 6 9
M  V30 9 1 7 10
M  V30 10 1 7 11
M  V30 11 1 7 12
M  V30 12 1 8 13
M  V30 13 1 8 14
M  V30 14 2 9 15
M  V30 15 1 9 16
M  V30 16 1 10 17
M  V30 17 1 11 18
M  V30 18 1 17 19
M  V30 19 1 17 20
M  V30 20 1 18 21
M  V30 21 1 19 22
M  V30 22 1 19 23
M  V30 23 1 20 24
M  V30 24 1 23 25
M  V30 25 1 23 26
M  V30 26 1 23 27
M  V30 27 2 25 28
M  V30 28 2 26 29
M  V30 29 1 28 30
M  V30 30 2 30 31
M  V30 31 1 10 13
M  V30 32 1 18 19
M  V30 33 1 24 25
M  V30 34 1 29 30
M  V30 35 1 3 32
M  V30 36 1 3 33
M  V30 37 1 3 34
M  V30 38 1 8 35
M  V30 39 1 10 36
M  V30 40 1 11 37
M  V30 41 1 11 38
M  V30 42 1 12 39
M  V30 43 1 12 40
M  V30 44 1 12 41
M  V30 45 1 13 42
M  V30 46 1 13 43
M  V30 47 1 14 44
M  V30 48 1 14 45
M  V30 49 1 14 46
M  V30 50 1 16 47
M  V30 51 1 16 48
M  V30 52 1 16 49
M  V30 53 1 17 50
M  V30 54 1 18 51
M  V30 55 1 20 52
M  V30 56 1 20 53
M  V30 57 1 21 54
M  V30 58 1 24 55
M  V30 59 1 24 56
M  V30 60 1 26 57
M  V30 61 1 27 58
M  V30 62 1 27 59
M  V30 63 1 27 60
M  V30 64 1 28 61
M  V30 65 1 29 62
M  V30 END BOND
M  V30 BEGIN COLLECTION
M  V30 MDLV30/STEABS ATOMS=(8 5 7 8 10 17 18 19 23)
M  V30 END COLLECTION
M  V30 END CTAB
M  END
>  <Structure No>
7174

>  <LogS>
-6.22

>  <MMFF94 Energy>
143.01

$$$$
Compound 7175
Actelion Java MolfileCreator 2.0

  0  0  0  0  0  0              0 V3000
M  V30 BEGIN CTAB
M  V30 COUNTS 32 33 0 0 0
M  V30 BEGIN ATOM
M  V30 1 O 1.6757 1.5959 -0.7179 0
M  V30 2 C 2.012 0.4516 -0.3075 0
M  V30 3 N 1.0001 -0.5126 0.0406 0
M  V30 4 C 3.4549 0.1251 -0.2022 0
M  V30 5 C -0.4086 -0.2249 0.0532 0
M  V30 6 C 4.3845 1.1509 0.0521 0
M  V30 7 C 3.9261 -1.1903 -0.3775 0
M  V30 8 C -0.9031 1.0028 0.5267 0
M  V30 9 C -1.316 -1.2168 -0.3449 0
M  V30 10 C 5.7492 0.8637 0.1512 0
M  V30 11 C 5.2925 -1.4714 -0.2786 0
M  V30 12 C -2.2795 1.2459 0.554 0
M  V30 13 C -2.6923 -0.9723 -0.3194 0
M  V30 14 C 6.2025 -0.4466 -0.0112 0
M  V30 15 C -3.1834 0.2725 0.1145 0
M  V30 16 O -4.5553 0.5617 0.1677 0
M  V30 17 C -5.5342 0.0027 -0.6637 0
M  V30 18 O -5.2232 -0.5614 -1.7473 0
M  V30 19 C -6.9731 0.1824 -0.3174 0
M  V30 20 H 1.2819 -1.4947 0.2513 0
M  V30 21 H 4.0539 2.1735 0.1868 0
M  V30 22 H 3.2526 -2.0002 -0.6207 0
M  V30 23 H -0.2316 1.7632 0.9022 0
M  V30 24 H -0.9542 -2.1815 -0.6783 0
M  V30 25 H 6.4554 1.6583 0.3542 0
M  V30 26 H 5.647 -2.4846 -0.4174 0
M  V30 27 H -2.6466 2.1964 0.9204 0
M  V30 28 H -3.3665 -1.7667 -0.6078 0
M  V30 29 H 7.2595 -0.667 0.0639 0
M  V30 30 H -7.5624 -0.6917 -0.666 0
M  V30 31 H -7.3586 1.1024 -0.8037 0
M  V30 32 H -7.0881 0.2758 0.7828 0
M  V30 END ATOM
M  V30 BEGIN BOND
M  V30 1 2 1 2
M  V30 2 1 2 3
M  V30 3 1 2 4
M  V30 4 1 3 5
M  V30 5 2 4 6
M  V30 6 1 4 7
M  V30 7 2 5 8
M  V30 8 1 5 9
M  V30 9 1 6 10
M  V30 10 2 7 11
M  V30 11 1 8 12
M  V30 12 2 9 13
M  V30 13 2 10 14
M  V30 14 2 12 15
M  V30 15 1 15 16
M  V30 16 1 16 17
M  V30 17 2 17 18
M  V30 18 1 17 19
M  V30 19 1 11 14
M  V30 20 1 13 15
M  V30 21 1 3 20
M  V30 22 1 6 21
M  V30 23 1 7 22
M  V30 24 1 8 23
M  V30 25 1 9 24
M  V30 26 1 10 25
M  V30 27 1 11 26
M  V30 28 1 12 27
M  V30 29 1 13 28
M  V30 30 1 14 29
M  V30 31 1 19 30
M  V30 32 1 19 31
M  V30 33 1 19 32
M  V30 END BOND
M  V30 END CTAB
M  END
>  <Structure No>
7175

>  <LogS>
-4.14

>  <MMFF94 Energy>
41.326

$$$$
Compound 7176
Actelion Java MolfileCreator 2.0

  0  0  0  0  0  0              0 V3000
M  V30 BEGIN CTAB
M  V30 COUNTS 35 37 0 0 0
M  V30 BEGIN ATOM
M  V30 1 O 1.4407 -2.0014 1.2805 0
M  V30 2 C 1.1972 -0.9071 0.6979 0
M  V30 3 N -0.0668 -0.6423 0.2172 0
M  V30 4 C 2.2268 0.0394 0.5577 0
M  V30 5 C -0.3384 0.6022 -0.2979 0
M  V30 6 C -1.113 -1.6968 0.2919 0 CFG=1
M  V30 7 C 1.9188 1.2707 -0.0429 0
M  V30 8 C 3.5427 -0.2049 0.9961 0
M  V30 9 N 0.6502 1.5239 -0.4355 0
M  V30 10 C -1.737 1.0109 -0.6635 0 CFG=2
M  V30 11 C -2.5519 -1.2057 -0.0415 0
M  V30 12 C -0.7591 -2.8699 -0.6407 0
M  V30 13 C 2.9114 2.2439 -0.208 0
M  V30 14 C 4.5307 0.7702 0.8265 0
M  V30 15 N -2.741 0.2467 0.1028 0
M  V30 16 C -1.9611 0.8789 -2.175 0
M  V30 17 C 4.2159 1.9917 0.2245 0
M  V30 18 C -2.7846 0.651 1.5202 0
M  V30 19 H -1.1415 -2.0857 1.3349 0
M  V30 20 H 3.8101 -1.1444 1.4639 0
M  V30 21 H -1.8577 2.0932 -0.4277 0
M  V30 22 H -3.281 -1.7487 0.6008 0
M  V30 23 H -2.8392 -1.4902 -1.0769 0
M  V30 24 H 0.1837 -3.365 -0.3356 0
M  V30 25 H -1.5608 -3.6389 -0.6115 0
M  V30 26 H -0.6453 -2.5076 -1.6848 0
M  V30 27 H 2.6732 3.1954 -0.667 0
M  V30 28 H 5.5416 0.5789 1.1623 0
M  V30 29 H -1.6809 -0.1312 -2.5409 0
M  V30 30 H -1.3386 1.6242 -2.7149 0
M  V30 31 H -3.0272 1.0719 -2.419 0
M  V30 32 H 4.9828 2.7445 0.0964 0
M  V30 33 H -3.002 1.7373 1.6017 0
M  V30 34 H -1.8253 0.4358 2.0384 0
M  V30 35 H -3.6039 0.115 2.0451 0
M  V30 END ATOM
M  V30 BEGIN BOND
M  V30 1 2 1 2
M  V30 2 1 2 3
M  V30 3 1 2 4
M  V30 4 1 3 5
M  V30 5 1 3 6
M  V30 6 2 4 7
M  V30 7 1 4 8
M  V30 8 2 5 9
M  V30 9 1 5 10
M  V30 10 1 6 11
M  V30 11 1 6 12
M  V30 12 1 7 13
M  V30 13 2 8 14
M  V30 14 1 10 15
M  V30 15 1 10 16
M  V30 16 2 13 17
M  V30 17 1 15 18
M  V30 18 1 7 9
M  V30 19 1 11 15
M  V30 20 1 14 17
M  V30 21 1 6 19
M  V30 22 1 8 20
M  V30 23 1 10 21
M  V30 24 1 11 22
M  V30 25 1 11 23
M  V30 26 1 12 24
M  V30 27 1 12 25
M  V30 28 1 12 26
M  V30 29 1 13 27
M  V30 30 1 14 28
M  V30 31 1 16 29
M  V30 32 1 16 30
M  V30 33 1 16 31
M  V30 34 1 17 32
M  V30 35 1 18 33
M  V30 36 1 18 34
M  V30 37 1 18 35
M  V30 END BOND
M  V30 BEGIN COLLECTION
M  V30 MDLV30/STEABS ATOMS=(2 6 10)
M  V30 END COLLECTION
M  V30 END CTAB
M  END
>  <Structure No>
7176

>  <LogS>
-2.09

>  <MMFF94 Energy>
61.456

$$$$
Compound 7177
Actelion Java MolfileCreator 2.0

  0  0  0  0  0  0              0 V3000
M  V30 BEGIN CTAB
M  V30 COUNTS 23 24 0 0 0
M  V30 BEGIN ATOM
M  V30 1 S 2.6639 -0.499 -0.2495 0
M  V30 2 O 3.1616 -1.2944 0.9239 0
M  V30 3 O 3.7539 0.4356 -0.6945 0
M  V30 4 O 2.3212 -1.522 -1.5381 0 CHG=-1
M  V30 5 C 1.2287 0.4449 0.2078 0
M  V30 6 C -0.1191 0.0119 -0.0023 0
M  V30 7 C 1.4675 1.7673 0.617 0
M  V30 8 C -0.5019 -1.3437 -0.2255 0
M  V30 9 C -1.1485 1.0008 -0.0025 0
M  V30 10 C 0.4301 2.6887 0.7157 0
M  V30 11 N 0.3371 -2.4439 0.1368 0
M  V30 12 C -1.8075 -1.6397 -0.6448 0
M  V30 13 C -0.8641 2.3209 0.3708 0
M  V30 14 C -2.4565 0.6652 -0.3804 0
M  V30 15 C -2.7715 -0.641 -0.7365 0
M  V30 16 H 2.4764 2.1063 0.8152 0
M  V30 17 H 0.6401 3.7083 1.0128 0
M  V30 18 H 0.148 -3.4002 -0.2382 0
M  V30 19 H 0.9619 -2.3748 0.9673 0
M  V30 20 H -2.0978 -2.6652 -0.8369 0
M  V30 21 H -1.6474 3.0695 0.401 0
M  V30 22 H -3.2356 1.4181 -0.4086 0
M  V30 23 H -3.7814 -0.8908 -1.0354 0
M  V30 END ATOM
M  V30 BEGIN BOND
M  V30 1 2 1 2
M  V30 2 2 1 3
M  V30 3 1 1 4
M  V30 4 1 1 5
M  V30 5 1 5 6
M  V30 6 2 5 7
M  V30 7 2 6 8
M  V30 8 1 6 9
M  V30 9 1 7 10
M  V30 10 1 8 11
M  V30 11 1 8 12
M  V30 12 1 9 13
M  V30 13 2 9 14
M  V30 14 2 12 15
M  V30 15 2 10 13
M  V30 16 1 14 15
M  V30 17 1 7 16
M  V30 18 1 10 17
M  V30 19 1 11 18
M  V30 20 1 11 19
M  V30 21 1 12 20
M  V30 22 1 13 21
M  V30 23 1 14 22
M  V30 24 1 15 23
M  V30 END BOND
M  V30 END CTAB
M  END
>  <Structure No>
7177

>  <LogS>
-3.07

>  <MMFF94 Energy>
60.388

$$$$
Compound 7178
Actelion Java MolfileCreator 2.0

  0  0  0  0  0  0              0 V3000
M  V30 BEGIN CTAB
M  V30 COUNTS 29 31 0 0 0
M  V30 BEGIN ATOM
M  V30 1 O 2.5299 -2.775 0.8971 0
M  V30 2 C 2.5193 -1.5676 0.533 0
M  V30 3 C 1.3115 -0.8671 0.3795 0
M  V30 4 C 3.7263 -0.9157 0.2768 0
M  V30 5 C 1.3708 0.482 -0.0284 0
M  V30 6 C 0.0626 -1.4642 0.6185 0
M  V30 7 C 3.7061 0.4278 -0.1288 0
M  V30 8 O 2.5442 1.063 -0.2628 0
M  V30 9 C 0.1932 1.2158 -0.1889 0
M  V30 10 C -1.1231 -0.7331 0.4444 0
M  V30 11 C 4.9521 1.1586 -0.412 0
M  V30 12 C -1.0558 0.6281 0.0615 0
M  V30 13 C -2.4405 -1.3944 0.7785 0
M  V30 14 O 6.073 0.5952 -0.2976 0
M  V30 15 O 4.8956 2.4879 -0.8114 0 CHG=-1
M  V30 16 C -2.3049 1.4402 -0.1917 0
M  V30 17 C -3.6409 -0.6532 0.1832 0
M  V30 18 C -3.5438 0.8423 0.4808 0
M  V30 19 H 4.6627 -1.4487 0.392 0
M  V30 20 H 0.0058 -2.497 0.9425 0
M  V30 21 H 0.2516 2.2483 -0.5124 0
M  V30 22 H -2.4461 -2.4398 0.4005 0
M  V30 23 H -2.5461 -1.43 1.8846 0
M  V30 24 H -2.475 1.4918 -1.289 0
M  V30 25 H -2.1643 2.4779 0.1818 0
M  V30 26 H -3.6771 -0.8171 -0.9164 0
M  V30 27 H -4.5778 -1.0584 0.6225 0
M  V30 28 H -4.4527 1.3559 0.0998 0
M  V30 29 H -3.4913 1.0053 1.58 0
M  V30 END ATOM
M  V30 BEGIN BOND
M  V30 1 2 1 2
M  V30 2 1 2 3
M  V30 3 1 2 4
M  V30 4 2 3 5
M  V30 5 1 3 6
M  V30 6 2 4 7
M  V30 7 1 5 8
M  V30 8 1 5 9
M  V30 9 2 6 10
M  V30 10 1 7 11
M  V30 11 2 9 12
M  V30 12 1 10 13
M  V30 13 2 11 14
M  V30 14 1 11 15
M  V30 15 1 12 16
M  V30 16 1 13 17
M  V30 17 1 16 18
M  V30 18 1 7 8
M  V30 19 1 10 12
M  V30 20 1 17 18
M  V30 21 1 4 19
M  V30 22 1 6 20
M  V30 23 1 9 21
M  V30 24 1 13 22
M  V30 25 1 13 23
M  V30 26 1 16 24
M  V30 27 1 16 25
M  V30 28 1 17 26
M  V30 29 1 17 27
M  V30 30 1 18 28
M  V30 31 1 18 29
M  V30 END BOND
M  V30 END CTAB
M  END
>  <Structure No>
7178

>  <LogS>
-1.05

>  <MMFF94 Energy>
54.096

$$$$
Compound 7179
Actelion Java MolfileCreator 2.0

  0  0  0  0  0  0              0 V3000
M  V30 BEGIN CTAB
M  V30 COUNTS 27 28 0 0 0
M  V30 BEGIN ATOM
M  V30 1 S -4.8873 3.6638 -0.8133 0
M  V30 2 C -4.9873 2.0743 -0.5683 0
M  V30 3 N -5.0661 0.8182 -0.3747 0
M  V30 4 C -3.926 -0.0417 -0.2234 0
M  V30 5 C -2.6039 0.4458 -0.2765 0
M  V30 6 C -4.1414 -1.409 -0.0145 0
M  V30 7 C -1.5155 -0.4243 -0.1354 0
M  V30 8 C -3.0607 -2.2787 0.1475 0
M  V30 9 O -0.2208 0.1135 -0.186 0
M  V30 10 C -1.7526 -1.7919 0.0933 0
M  V30 11 C 0.9277 -0.5702 -0.6103 0
M  V30 12 O 0.8254 -1.6336 -1.2818 0
M  V30 13 C 2.2641 -0.0066 -0.3181 0
M  V30 14 C 3.4318 -0.6606 -0.7553 0
M  V30 15 C 2.386 1.1936 0.4059 0
M  V30 16 C 4.6914 -0.1223 -0.4739 0
M  V30 17 C 3.6483 1.7271 0.6844 0
M  V30 18 C 4.7997 1.0701 0.2448 0
M  V30 19 H -2.4114 1.4992 -0.435 0
M  V30 20 H -5.1507 -1.7987 0.0308 0
M  V30 21 H -3.2378 -3.3318 0.3247 0
M  V30 22 H -0.9346 -2.4788 0.2601 0
M  V30 23 H 3.3726 -1.5865 -1.3134 0
M  V30 24 H 1.508 1.7208 0.7579 0
M  V30 25 H 5.5845 -0.6309 -0.8136 0
M  V30 26 H 3.7334 2.651 1.2418 0
M  V30 27 H 5.7756 1.4849 0.4616 0
M  V30 END ATOM
M  V30 BEGIN BOND
M  V30 1 2 1 2
M  V30 2 2 2 3
M  V30 3 1 3 4
M  V30 4 2 4 5
M  V30 5 1 4 6
M  V30 6 1 5 7
M  V30 7 2 6 8
M  V30 8 1 7 9
M  V30 9 2 7 10
M  V30 10 1 9 11
M  V30 11 2 11 12
M  V30 12 1 11 13
M  V30 13 2 13 14
M  V30 14 1 13 15
M  V30 15 1 14 16
M  V30 16 2 15 17
M  V30 17 2 16 18
M  V30 18 1 8 10
M  V30 19 1 17 18
M  V30 20 1 5 19
M  V30 21 1 6 20
M  V30 22 1 8 21
M  V30 23 1 10 22
M  V30 24 1 14 23
M  V30 25 1 15 24
M  V30 26 1 16 25
M  V30 27 1 17 26
M  V30 28 1 18 27
M  V30 END BOND
M  V30 END CTAB
M  END
>  <Structure No>
7179

>  <LogS>
-4.85

>  <MMFF94 Energy>
57.342

$$$$
Compound 7180
Actelion Java MolfileCreator 2.0

  0  0  0  0  0  0              0 V3000
M  V30 BEGIN CTAB
M  V30 COUNTS 27 28 0 0 0
M  V30 BEGIN ATOM
M  V30 1 O -3.9129 0.0 0.2392 0
M  V30 2 C -2.6496 0.0272 0.2158 0
M  V30 3 N -1.9372 -1.1586 0.1847 0
M  V30 4 N -1.9983 1.24 0.2088 0
M  V30 5 C -0.5642 -1.1427 0.0838 0
M  V30 6 C -2.6568 -2.4436 0.1661 0
M  V30 7 C -0.6403 1.2365 0.1271 0
M  V30 8 C -2.7469 2.5044 0.2016 0
M  V30 9 O 0.0837 -2.2165 -0.0373 0
M  V30 10 C 0.0863 0.0914 0.0869 0
M  V30 11 N 0.1577 2.3173 0.034 0
M  V30 12 N 1.3934 0.4167 -0.0233 0
M  V30 13 C 1.396 1.7727 -0.058 0
M  V30 14 C 2.57 -0.4069 -0.0644 0
M  V30 15 O 2.5456 -1.5861 0.3791 0
M  V30 16 O 3.7648 0.1301 -0.5554 0
M  V30 17 C 4.9762 -0.6134 -0.6086 0
M  V30 18 H -3.5935 -2.3877 0.7609 0
M  V30 19 H -2.9047 -2.7163 -0.8811 0
M  V30 20 H -2.0478 -3.2546 0.6199 0
M  V30 21 H -3.6452 2.4328 0.8515 0
M  V30 22 H -2.1304 3.341 0.5942 0
M  V30 23 H -3.0634 2.7433 -0.8353 0
M  V30 24 H 2.2953 2.3702 -0.1379 0
M  V30 25 H 5.2748 -0.9277 0.4138 0
M  V30 26 H 5.7766 0.0243 -1.0367 0
M  V30 27 H 4.8451 -1.508 -1.2534 0
M  V30 END ATOM
M  V30 BEGIN BOND
M  V30 1 2 1 2
M  V30 2 1 2 3
M  V30 3 1 2 4
M  V30 4 1 3 5
M  V30 5 1 3 6
M  V30 6 1 4 7
M  V30 7 1 4 8
M  V30 8 2 5 9
M  V30 9 1 5 10
M  V30 10 1 7 11
M  V30 11 1 10 12
M  V30 12 2 11 13
M  V30 13 1 12 14
M  V30 14 2 14 15
M  V30 15 1 14 16
M  V30 16 1 16 17
M  V30 17 2 7 10
M  V30 18 1 12 13
M  V30 19 1 6 18
M  V30 20 1 6 19
M  V30 21 1 6 20
M  V30 22 1 8 21
M  V30 23 1 8 22
M  V30 24 1 8 23
M  V30 25 1 13 24
M  V30 26 1 17 25
M  V30 27 1 17 26
M  V30 28 1 17 27
M  V30 END BOND
M  V30 END CTAB
M  END
>  <Structure No>
7180

>  <LogS>
-1.24

>  <MMFF94 Energy>
-122.23

$$$$
Compound 7181
Actelion Java MolfileCreator 2.0

  0  0  0  0  0  0              0 V3000
M  V30 BEGIN CTAB
M  V30 COUNTS 50 50 0 0 0
M  V30 BEGIN ATOM
M  V30 1 O 1.5802 -1.4221 2.1338 0
M  V30 2 C 1.3689 -2.143 1.1198 0
M  V30 3 O 2.2546 -2.118 0.0353 0
M  V30 4 C 0.1116 -2.9653 1.0481 0 CFG=1
M  V30 5 C 3.3675 -1.2296 -0.0369 0
M  V30 6 C -0.9933 -2.1675 0.3862 0
M  V30 7 C 0.3468 -4.2984 0.3284 0
M  V30 8 C 2.9035 0.1765 -0.3228 0
M  V30 9 C -2.1606 -1.8515 1.1036 0
M  V30 10 C -0.8603 -1.7048 -0.9364 0
M  V30 11 O 1.8653 0.3284 -1.0232 0
M  V30 12 N 3.6458 1.3413 0.1087 0
M  V30 13 C -3.1673 -1.0811 0.5153 0
M  V30 14 C -1.8659 -0.9325 -1.5224 0
M  V30 15 C 4.8093 1.238 1.0031 0
M  V30 16 C 3.2014 2.6636 -0.3475 0
M  V30 17 C -3.0267 -0.6143 -0.8009 0
M  V30 18 C 4.3669 1.0131 2.4204 0
M  V30 19 C -4.0922 0.2596 -1.414 0
M  V30 20 O 4.791 0.0122 3.059 0
M  V30 21 N 3.4893 1.9401 3.0622 0
M  V30 22 C -4.0345 1.7066 -0.8761 0
M  V30 23 C -2.7274 2.4092 -1.2747 0
M  V30 24 C -5.2374 2.5089 -1.3872 0
M  V30 25 H -0.1838 -3.2173 2.091 0
M  V30 26 H 4.0288 -1.5552 -0.8667 0
M  V30 27 H 3.9444 -1.2994 0.9067 0
M  V30 28 H -0.59 -4.8962 0.324 0
M  V30 29 H 1.1295 -4.882 0.8589 0
M  V30 30 H 0.6731 -4.1422 -0.7218 0
M  V30 31 H -2.2896 -2.1904 2.1244 0
M  V30 32 H 0.0287 -1.9273 -1.5112 0
M  V30 33 H -4.0533 -0.8382 1.0897 0
M  V30 34 H -1.733 -0.5711 -2.5348 0
M  V30 35 H 5.4846 0.4244 0.6611 0
M  V30 36 H 5.4153 2.1687 0.974 0
M  V30 37 H 2.1535 2.8388 -0.0229 0
M  V30 38 H 3.2553 2.7158 -1.4554 0
M  V30 39 H 3.8294 3.4772 0.072 0
M  V30 40 H -3.9997 0.2647 -2.5235 0
M  V30 41 H -5.0848 -0.184 -1.1786 0
M  V30 42 H 3.1545 2.7937 2.5624 0
M  V30 43 H 3.1762 1.776 4.0458 0
M  V30 44 H -4.0936 1.6819 0.2353 0
M  V30 45 H -2.7293 3.4594 -0.9119 0
M  V30 46 H -1.8556 1.8985 -0.8155 0
M  V30 47 H -2.6043 2.4114 -2.3788 0
M  V30 48 H -6.1853 2.0197 -1.0759 0
M  V30 49 H -5.2178 2.5823 -2.497 0
M  V30 50 H -5.2247 3.5349 -0.959 0
M  V30 END ATOM
M  V30 BEGIN BOND
M  V30 1 2 1 2
M  V30 2 1 2 3
M  V30 3 1 2 4
M  V30 4 1 3 5
M  V30 5 1 4 6
M  V30 6 1 4 7
M  V30 7 1 5 8
M  V30 8 2 6 9
M  V30 9 1 6 10
M  V30 10 2 8 11
M  V30 11 1 8 12
M  V30 12 1 9 13
M  V30 13 2 10 14
M  V30 14 1 12 15
M  V30 15 1 12 16
M  V30 16 2 13 17
M  V30 17 1 15 18
M  V30 18 1 17 19
M  V30 19 2 18 20
M  V30 20 1 18 21
M  V30 21 1 19 22
M  V30 22 1 22 23
M  V30 23 1 22 24
M  V30 24 1 14 17
M  V30 25 1 4 25
M  V30 26 1 5 26
M  V30 27 1 5 27
M  V30 28 1 7 28
M  V30 29 1 7 29
M  V30 30 1 7 30
M  V30 31 1 9 31
M  V30 32 1 10 32
M  V30 33 1 13 33
M  V30 34 1 14 34
M  V30 35 1 15 35
M  V30 36 1 15 36
M  V30 37 1 16 37
M  V30 38 1 16 38
M  V30 39 1 16 39
M  V30 40 1 19 40
M  V30 41 1 19 41
M  V30 42 1 21 42
M  V30 43 1 21 43
M  V30 44 1 22 44
M  V30 45 1 23 45
M  V30 46 1 23 46
M  V30 47 1 23 47
M  V30 48 1 24 48
M  V30 49 1 24 49
M  V30 50 1 24 50
M  V30 END BOND
M  V30 BEGIN COLLECTION
M  V30 MDLV30/STEABS ATOMS=(1 4)
M  V30 END COLLECTION
M  V30 END CTAB
M  END
>  <Structure No>
7181

>  <LogS>
-3.41

>  <MMFF94 Energy>
46.2

$$$$
Compound 7182
Actelion Java MolfileCreator 2.0

  0  0  0  0  0  0              0 V3000
M  V30 BEGIN CTAB
M  V30 COUNTS 30 31 0 0 0
M  V30 BEGIN ATOM
M  V30 1 O -3.903 -0.7955 0.716 0
M  V30 2 C -2.7803 -0.4508 0.2495 0
M  V30 3 N -1.7217 -1.3444 0.2739 0
M  V30 4 N -2.6245 0.813 -0.2782 0
M  V30 5 C -0.5025 -0.9893 -0.2574 0
M  V30 6 C -1.9214 -2.7023 0.8078 0
M  V30 7 C -1.3993 1.1569 -0.7597 0
M  V30 8 C -3.7269 1.7838 -0.2606 0
M  V30 9 O 0.4622 -1.8015 -0.2805 0
M  V30 10 C -0.3582 0.2936 -0.7706 0
M  V30 11 N -1.0385 2.3493 -1.2754 0
M  V30 12 N 0.7094 0.9081 -1.3089 0
M  V30 13 C 0.2669 2.1567 -1.5973 0
M  V30 14 C 2.0666 0.3995 -1.485 0
M  V30 15 O 2.6881 0.2565 -0.2123 0
M  V30 16 C 3.9866 -0.2356 -0.0589 0
M  V30 17 O 4.6623 -0.595 -1.0611 0
M  V30 18 C 4.5583 -0.385 1.3096 0
M  V30 19 H -2.6384 -2.6969 1.6565 0
M  V30 20 H -2.3104 -3.3636 0.0053 0
M  V30 21 H -0.974 -3.1273 1.2023 0
M  V30 22 H -3.7995 2.2458 0.7463 0
M  V30 23 H -3.5749 2.5849 -1.015 0
M  V30 24 H -4.6896 1.2861 -0.5054 0
M  V30 25 H 0.888 2.9279 -2.0343 0
M  V30 26 H 2.6579 1.1037 -2.1104 0
M  V30 27 H 2.0314 -0.5818 -2.0049 0
M  V30 28 H 5.6454 -0.1587 1.2959 0
M  V30 29 H 4.4043 -1.4255 1.6628 0
M  V30 30 H 4.0554 0.3153 2.009 0
M  V30 END ATOM
M  V30 BEGIN BOND
M  V30 1 2 1 2
M  V30 2 1 2 3
M  V30 3 1 2 4
M  V30 4 1 3 5
M  V30 5 1 3 6
M  V30 6 1 4 7
M  V30 7 1 4 8
M  V30 8 2 5 9
M  V30 9 1 5 10
M  V30 10 1 7 11
M  V30 11 1 10 12
M  V30 12 2 11 13
M  V30 13 1 12 14
M  V30 14 1 14 15
M  V30 15 1 15 16
M  V30 16 2 16 17
M  V30 17 1 16 18
M  V30 18 2 7 10
M  V30 19 1 12 13
M  V30 20 1 6 19
M  V30 21 1 6 20
M  V30 22 1 6 21
M  V30 23 1 8 22
M  V30 24 1 8 23
M  V30 25 1 8 24
M  V30 26 1 13 25
M  V30 27 1 14 26
M  V30 28 1 14 27
M  V30 29 1 18 28
M  V30 30 1 18 29
M  V30 31 1 18 30
M  V30 END BOND
M  V30 END CTAB
M  END
>  <Structure No>
7182

>  <LogS>
-1.83

>  <MMFF94 Energy>
-143.28

$$$$
Compound 7183
Actelion Java MolfileCreator 2.0

  0  0  0  0  0  0              0 V3000
M  V30 BEGIN CTAB
M  V30 COUNTS 41 42 0 0 0
M  V30 BEGIN ATOM
M  V30 1 O 1.0306 -2.3002 1.5859 0
M  V30 2 C 0.2723 -1.3257 1.3197 0
M  V30 3 N -1.0236 -1.586 0.7232 0
M  V30 4 C 0.789 0.0866 1.56 0 CFG=2
M  V30 5 C -2.0724 -0.5546 0.6398 0
M  V30 6 C -1.3531 -2.9524 0.2882 0
M  V30 7 C 1.3769 0.7064 0.3034 0
M  V30 8 C 1.8044 0.152 2.7161 0
M  V30 9 C -1.793 0.4471 -0.4516 0
M  V30 10 C -1.8446 -3.7874 1.4659 0
M  V30 11 C 1.2563 2.0933 0.0963 0
M  V30 12 C 2.1007 -0.0588 -0.635 0
M  V30 13 O 2.9927 -0.5118 2.3795 0
M  V30 14 C -2.08 1.8055 -0.2439 0
M  V30 15 C -1.3239 0.0367 -1.7109 0
M  V30 16 C 1.7969 2.69 -1.0463 0
M  V30 17 C 2.6399 0.544 -1.7756 0
M  V30 18 C -1.8533 2.7239 -1.2716 0
M  V30 19 C -1.1083 0.9894 -2.7103 0
M  V30 20 C 2.4831 1.9155 -1.9841 0
M  V30 21 N -1.3735 2.3006 -2.4712 0
M  V30 22 H -0.0689 0.708 1.8887 0
M  V30 23 H -3.0596 -1.0179 0.4238 0
M  V30 24 H -2.1851 -0.0609 1.6285 0
M  V30 25 H -2.1433 -2.9311 -0.4937 0
M  V30 26 H -0.4636 -3.4355 -0.1721 0
M  V30 27 H 2.0271 1.219 2.9469 0
M  V30 28 H 1.3595 -0.3107 3.6267 0
M  V30 29 H -1.0415 -3.8978 2.2254 0
M  V30 30 H -2.7271 -3.3026 1.9367 0
M  V30 31 H -2.1396 -4.797 1.1103 0
M  V30 32 H 0.7305 2.7106 0.814 0
M  V30 33 H 2.247 -1.1214 -0.4928 0
M  V30 34 H 3.597 -0.4083 3.1597 0
M  V30 35 H -2.4656 2.1521 0.7071 0
M  V30 36 H -1.1171 -1.0055 -1.9169 0
M  V30 37 H 1.6816 3.754 -1.2053 0
M  V30 38 H 3.1806 -0.0532 -2.4986 0
M  V30 39 H -2.061 3.7743 -1.1146 0
M  V30 40 H -0.7304 0.6839 -3.6774 0
M  V30 41 H 2.8971 2.3783 -2.8707 0
M  V30 END ATOM
M  V30 BEGIN BOND
M  V30 1 2 1 2
M  V30 2 1 2 3
M  V30 3 1 2 4
M  V30 4 1 3 5
M  V30 5 1 3 6
M  V30 6 1 4 7
M  V30 7 1 4 8
M  V30 8 1 5 9
M  V30 9 1 6 10
M  V30 10 2 7 11
M  V30 11 1 7 12
M  V30 12 1 8 13
M  V30 13 2 9 14
M  V30 14 1 9 15
M  V30 15 1 11 16
M  V30 16 2 12 17
M  V30 17 1 14 18
M  V30 18 2 15 19
M  V30 19 2 16 20
M  V30 20 2 18 21
M  V30 21 1 17 20
M  V30 22 1 19 21
M  V30 23 1 4 22
M  V30 24 1 5 23
M  V30 25 1 5 24
M  V30 26 1 6 25
M  V30 27 1 6 26
M  V30 28 1 8 27
M  V30 29 1 8 28
M  V30 30 1 10 29
M  V30 31 1 10 30
M  V30 32 1 10 31
M  V30 33 1 11 32
M  V30 34 1 12 33
M  V30 35 1 13 34
M  V30 36 1 14 35
M  V30 37 1 15 36
M  V30 38 1 16 37
M  V30 39 1 17 38
M  V30 40 1 18 39
M  V30 41 1 19 40
M  V30 42 1 20 41
M  V30 END BOND
M  V30 BEGIN COLLECTION
M  V30 MDLV30/STEABS ATOMS=(1 4)
M  V30 END COLLECTION
M  V30 END CTAB
M  END
>  <Structure No>
7183

>  <LogS>
-1.7

>  <MMFF94 Energy>
48.283

$$$$
Compound 7184
Actelion Java MolfileCreator 2.0

  0  0  0  0  0  0              0 V3000
M  V30 BEGIN CTAB
M  V30 COUNTS 26 27 0 0 0
M  V30 BEGIN ATOM
M  V30 1 S -3.8411 3.3501 0.9796 0
M  V30 2 C -4.1631 1.7779 0.8361 0
M  V30 3 N -4.4167 0.5353 0.7224 0
M  V30 4 C -3.4188 -0.4659 0.4686 0
M  V30 5 C -2.0504 -0.1486 0.3408 0
M  V30 6 C -3.8246 -1.8008 0.3543 0
M  V30 7 C -1.1047 -1.1606 0.0879 0
M  V30 8 C -2.8855 -2.8086 0.1249 0
M  V30 9 O 0.266 -0.8902 -0.037 0
M  V30 10 C -1.5318 -2.4899 -0.0015 0
M  V30 11 C 0.8167 0.3027 -0.5268 0
M  V30 12 O 0.1084 1.1059 -1.1943 0
M  V30 13 C 2.2509 0.59 -0.308 0
M  V30 14 C 3.0594 -0.3077 0.4095 0
M  V30 15 C 2.8383 1.765 -0.807 0
M  V30 16 N 4.3771 -0.0363 0.6085 0
M  V30 17 C 4.1935 2.0187 -0.5883 0
M  V30 18 C 4.9549 1.0963 0.1293 0
M  V30 19 H -1.7217 0.873 0.4689 0
M  V30 20 H -4.8716 -2.0601 0.4513 0
M  V30 21 H -3.2074 -3.8389 0.0457 0
M  V30 22 H -0.8113 -3.2782 -0.1785 0
M  V30 23 H 2.6476 -1.2236 0.8128 0
M  V30 24 H 2.2531 2.4858 -1.3641 0
M  V30 25 H 4.6492 2.9225 -0.9714 0
M  V30 26 H 6.0061 1.2804 0.306 0
M  V30 END ATOM
M  V30 BEGIN BOND
M  V30 1 2 1 2
M  V30 2 2 2 3
M  V30 3 1 3 4
M  V30 4 2 4 5
M  V30 5 1 4 6
M  V30 6 1 5 7
M  V30 7 2 6 8
M  V30 8 1 7 9
M  V30 9 2 7 10
M  V30 10 1 9 11
M  V30 11 2 11 12
M  V30 12 1 11 13
M  V30 13 2 13 14
M  V30 14 1 13 15
M  V30 15 1 14 16
M  V30 16 2 15 17
M  V30 17 2 16 18
M  V30 18 1 8 10
M  V30 19 1 17 18
M  V30 20 1 5 19
M  V30 21 1 6 20
M  V30 22 1 8 21
M  V30 23 1 10 22
M  V30 24 1 14 23
M  V30 25 1 15 24
M  V30 26 1 17 25
M  V30 27 1 18 26
M  V30 END BOND
M  V30 END CTAB
M  END
>  <Structure No>
7184

>  <LogS>
-4.3

>  <MMFF94 Energy>
52.412

$$$$
Compound 7185
Actelion Java MolfileCreator 2.0

  0  0  0  0  0  0              0 V3000
M  V30 BEGIN CTAB
M  V30 COUNTS 41 42 0 0 0
M  V30 BEGIN ATOM
M  V30 1 S 2.0953 -1.3696 2.9021 0
M  V30 2 C 2.5195 -1.5486 1.1694 0
M  V30 3 C 2.3242 0.4427 2.9207 0
M  V30 4 N 1.5435 -1.5513 0.2142 0
M  V30 5 C 3.8327 -1.7015 0.7433 0
M  V30 6 O 1.4504 1.083 1.9938 0
M  V30 7 C 1.8465 -1.6897 -1.1164 0
M  V30 8 N 4.9715 -1.7382 1.4444 0
M  V30 9 C 4.1129 -1.8371 -0.5722 0
M  V30 10 C 0.0589 1.1043 2.1383 0
M  V30 11 N 3.1455 -1.8344 -1.5206 0
M  V30 12 C 5.9272 -1.9019 0.4948 0
M  V30 13 N 5.4346 -1.9677 -0.7729 0
M  V30 14 O -0.4951 0.5564 3.131 0
M  V30 15 C -0.779 1.771 1.0929 0
M  V30 16 C -0.6848 1.0077 -0.2338 0
M  V30 17 C -1.485 1.6744 -1.3662 0
M  V30 18 C -3.0108 1.7255 -1.1481 0
M  V30 19 C -3.678 0.3677 -0.8619 0
M  V30 20 C -3.4859 -0.6441 -2.0008 0
M  V30 21 C -4.2731 -1.9241 -1.7365 0
M  V30 22 H 2.1358 0.8267 3.9456 0
M  V30 23 H 3.3736 0.6788 2.6505 0
M  V30 24 H 1.0525 -1.6842 -1.8504 0
M  V30 25 H 5.1008 -1.6606 2.4777 0
M  V30 26 H 6.9822 -1.9741 0.7231 0
M  V30 27 H -0.4175 2.8129 0.9546 0
M  V30 28 H -1.8336 1.8087 1.4405 0
M  V30 29 H 0.3808 0.9751 -0.5516 0
M  V30 30 H -1.0125 -0.0446 -0.0953 0
M  V30 31 H -1.2698 1.1405 -2.3162 0
M  V30 32 H -1.1156 2.7136 -1.5019 0
M  V30 33 H -3.4775 2.1674 -2.0554 0
M  V30 34 H -3.2407 2.4185 -0.3107 0
M  V30 35 H -4.7668 0.5492 -0.7241 0
M  V30 36 H -3.2991 -0.0536 0.0935 0
M  V30 37 H -3.83 -0.2018 -2.9608 0
M  V30 38 H -2.4126 -0.9092 -2.0971 0
M  V30 39 H -5.361 -1.7068 -1.6822 0
M  V30 40 H -3.9435 -2.3898 -0.7833 0
M  V30 41 H -4.0969 -2.6446 -2.5635 0
M  V30 END ATOM
M  V30 BEGIN BOND
M  V30 1 1 1 2
M  V30 2 1 1 3
M  V30 3 2 2 4
M  V30 4 1 2 5
M  V30 5 1 3 6
M  V30 6 1 4 7
M  V30 7 1 5 8
M  V30 8 2 5 9
M  V30 9 1 6 10
M  V30 10 2 7 11
M  V30 11 1 8 12
M  V30 12 1 9 13
M  V30 13 2 10 14
M  V30 14 1 10 15
M  V30 15 1 15 16
M  V30 16 1 16 17
M  V30 17 1 17 18
M  V30 18 1 18 19
M  V30 19 1 19 20
M  V30 20 1 20 21
M  V30 21 1 9 11
M  V30 22 2 12 13
M  V30 23 1 3 22
M  V30 24 1 3 23
M  V30 25 1 7 24
M  V30 26 1 8 25
M  V30 27 1 12 26
M  V30 28 1 15 27
M  V30 29 1 15 28
M  V30 30 1 16 29
M  V30 31 1 16 30
M  V30 32 1 17 31
M  V30 33 1 17 32
M  V30 34 1 18 33
M  V30 35 1 18 34
M  V30 36 1 19 35
M  V30 37 1 19 36
M  V30 38 1 20 37
M  V30 39 1 20 38
M  V30 40 1 21 39
M  V30 41 1 21 40
M  V30 42 1 21 41
M  V30 END BOND
M  V30 END CTAB
M  END
>  <Structure No>
7185

>  <LogS>
-4.62

>  <MMFF94 Energy>
-84.678

$$$$
Compound 7186
Actelion Java MolfileCreator 2.0

  0  0  0  0  0  0              0 V3000
M  V30 BEGIN CTAB
M  V30 COUNTS 38 40 0 0 0
M  V30 BEGIN ATOM
M  V30 1 O 2.477 -0.7985 -2.2371 0
M  V30 2 C 2.0927 -0.5095 -1.0683 0
M  V30 3 N 0.8811 0.1094 -0.8735 0
M  V30 4 C 2.9098 -0.8308 0.0286 0
M  V30 5 C 0.4498 0.3807 0.4039 0
M  V30 6 C 0.0195 0.371 -2.0405 0
M  V30 7 C 2.4431 -0.5199 1.3175 0
M  V30 8 C 4.1648 -1.4519 -0.1205 0
M  V30 9 N 1.2357 0.0717 1.4689 0
M  V30 10 C -0.8688 1.0739 0.6805 0 CFG=2
M  V30 11 C -1.0836 1.3869 -1.7367 0
M  V30 12 C 3.2212 -0.8223 2.4411 0
M  V30 13 C 4.9369 -1.7515 1.0064 0
M  V30 14 N -1.7883 1.0669 -0.4819 0
M  V30 15 C -0.6275 2.5111 1.1561 0
M  V30 16 C 4.4664 -1.4369 2.2843 0
M  V30 17 C -2.5692 -0.1884 -0.5783 0
M  V30 18 C -3.8507 -0.077 0.2555 0
M  V30 19 C -4.6919 -1.3458 0.1502 0
M  V30 20 H -0.4367 -0.5852 -2.3759 0
M  V30 21 H 0.624 0.7729 -2.8833 0
M  V30 22 H 4.5496 -1.7046 -1.1007 0
M  V30 23 H -1.3455 0.5473 1.5373 0
M  V30 24 H -0.6396 2.4027 -1.6732 0
M  V30 25 H -1.8032 1.4225 -2.5839 0
M  V30 26 H 2.8627 -0.5829 3.4347 0
M  V30 27 H 5.9015 -2.2281 0.8889 0
M  V30 28 H -0.0082 3.0788 0.4307 0
M  V30 29 H -0.0996 2.5058 2.1339 0
M  V30 30 H -1.5986 3.0337 1.2891 0
M  V30 31 H 5.067 -1.6705 3.1539 0
M  V30 32 H -1.9665 -1.0623 -0.2407 0
M  V30 33 H -2.8735 -0.387 -1.631 0
M  V30 34 H -3.6021 0.0965 1.3236 0
M  V30 35 H -4.4507 0.7862 -0.1056 0
M  V30 36 H -5.6106 -1.2348 0.764 0
M  V30 37 H -4.1183 -2.2204 0.5242 0
M  V30 38 H -4.9899 -1.5258 -0.9046 0
M  V30 END ATOM
M  V30 BEGIN BOND
M  V30 1 2 1 2
M  V30 2 1 2 3
M  V30 3 1 2 4
M  V30 4 1 3 5
M  V30 5 1 3 6
M  V30 6 2 4 7
M  V30 7 1 4 8
M  V30 8 2 5 9
M  V30 9 1 5 10
M  V30 10 1 6 11
M  V30 11 1 7 12
M  V30 12 2 8 13
M  V30 13 1 10 14
M  V30 14 1 10 15
M  V30 15 2 12 16
M  V30 16 1 14 17
M  V30 17 1 17 18
M  V30 18 1 18 19
M  V30 19 1 7 9
M  V30 20 1 11 14
M  V30 21 1 13 16
M  V30 22 1 6 20
M  V30 23 1 6 21
M  V30 24 1 8 22
M  V30 25 1 10 23
M  V30 26 1 11 24
M  V30 27 1 11 25
M  V30 28 1 12 26
M  V30 29 1 13 27
M  V30 30 1 15 28
M  V30 31 1 15 29
M  V30 32 1 15 30
M  V30 33 1 16 31
M  V30 34 1 17 32
M  V30 35 1 17 33
M  V30 36 1 18 34
M  V30 37 1 18 35
M  V30 38 1 19 36
M  V30 39 1 19 37
M  V30 40 1 19 38
M  V30 END BOND
M  V30 BEGIN COLLECTION
M  V30 MDLV30/STEABS ATOMS=(1 10)
M  V30 END COLLECTION
M  V30 END CTAB
M  END
>  <Structure No>
7186

>  <LogS>
-2.31

>  <MMFF94 Energy>
55.662

$$$$
Compound 7187
Actelion Java MolfileCreator 2.0

  0  0  0  0  0  0              0 V3000
M  V30 BEGIN CTAB
M  V30 COUNTS 35 36 0 0 0
M  V30 BEGIN ATOM
M  V30 1 O 4.6805 0.967 1.612 0
M  V30 2 C 3.7534 0.6964 0.8033 0
M  V30 3 N 3.6586 1.4017 -0.4363 0
M  V30 4 C 2.7753 -0.4014 1.1176 0
M  V30 5 C 2.6316 1.0562 -1.3666 0
M  V30 6 N 1.498 -0.176 0.404 0
M  V30 7 O 2.5297 1.6779 -2.4573 0
M  V30 8 C 1.7192 -0.0921 -1.0595 0
M  V30 9 C 0.4464 -1.1452 0.8307 0 CFG=1
M  V30 10 C -0.9226 -0.4483 0.9486 0
M  V30 11 C 0.3742 -2.4281 -0.0214 0
M  V30 12 N -1.423 -0.007 -0.3763 0
M  V30 13 C -2.6833 -0.6764 -0.7677 0
M  V30 14 C -1.5266 1.4652 -0.488 0
M  V30 15 C -3.8528 -0.1602 0.0256 0
M  V30 16 C -2.6873 2.0002 0.3056 0
M  V30 17 O -4.8624 -0.8899 0.2117 0
M  V30 18 N -3.8357 1.1786 0.5234 0
M  V30 19 O -2.6662 3.1828 0.7385 0
M  V30 20 H 4.3314 2.1699 -0.6573 0
M  V30 21 H 3.2174 -1.3804 0.8294 0
M  V30 22 H 2.603 -0.3986 2.2166 0
M  V30 23 H 0.7634 0.0635 -1.5973 0
M  V30 24 H 2.1935 -1.0215 -1.4436 0
M  V30 25 H 0.6653 -1.4952 1.8662 0
M  V30 26 H -0.8163 0.406 1.6554 0
M  V30 27 H -1.6331 -1.1496 1.4436 0
M  V30 28 H -0.34 -3.1445 0.4373 0
M  V30 29 H 1.3704 -2.9161 -0.0615 0
M  V30 30 H 0.0292 -2.2156 -1.0547 0
M  V30 31 H -2.8763 -0.4912 -1.846 0
M  V30 32 H -2.5899 -1.7772 -0.6397 0
M  V30 33 H -0.5801 1.9434 -0.1514 0
M  V30 34 H -1.6674 1.7424 -1.5546 0
M  V30 35 H -4.6532 1.5505 1.0572 0
M  V30 END ATOM
M  V30 BEGIN BOND
M  V30 1 2 1 2
M  V30 2 1 2 3
M  V30 3 1 2 4
M  V30 4 1 3 5
M  V30 5 1 4 6
M  V30 6 2 5 7
M  V30 7 1 5 8
M  V30 8 1 6 9
M  V30 9 1 9 10
M  V30 10 1 9 11
M  V30 11 1 10 12
M  V30 12 1 12 13
M  V30 13 1 12 14
M  V30 14 1 13 15
M  V30 15 1 14 16
M  V30 16 2 15 17
M  V30 17 1 15 18
M  V30 18 2 16 19
M  V30 19 1 6 8
M  V30 20 1 16 18
M  V30 21 1 3 20
M  V30 22 1 4 21
M  V30 23 1 4 22
M  V30 24 1 8 23
M  V30 25 1 8 24
M  V30 26 1 9 25
M  V30 27 1 10 26
M  V30 28 1 10 27
M  V30 29 1 11 28
M  V30 30 1 11 29
M  V30 31 1 11 30
M  V30 32 1 13 31
M  V30 33 1 13 32
M  V30 34 1 14 33
M  V30 35 1 14 34
M  V30 36 1 18 35
M  V30 END BOND
M  V30 BEGIN COLLECTION
M  V30 MDLV30/STEABS ATOMS=(1 9)
M  V30 END COLLECTION
M  V30 END CTAB
M  END
>  <Structure No>
7187

>  <LogS>
-1.27

>  <MMFF94 Energy>
116.3

$$$$
Compound 7188
Actelion Java MolfileCreator 2.0

  0  0  0  0  0  0              0 V3000
M  V30 BEGIN CTAB
M  V30 COUNTS 32 33 0 0 0
M  V30 BEGIN ATOM
M  V30 1 O -4.0541 -1.2705 0.3175 0
M  V30 2 C -2.926 -0.7168 0.1832 0
M  V30 3 N -1.9999 -0.7851 1.2105 0
M  V30 4 N -2.6311 -0.0553 -0.9884 0
M  V30 5 C -0.7793 -0.1603 1.0877 0
M  V30 6 C -2.3469 -1.4768 2.4638 0
M  V30 7 C -1.4056 0.524 -1.1039 0
M  V30 8 C -3.5818 -0.0351 -2.1083 0
M  V30 9 O 0.0715 -0.21 2.0167 0
M  V30 10 C -0.4987 0.5127 -0.0982 0
M  V30 11 N -0.9144 1.1576 -2.1865 0
M  V30 12 N 0.614 1.1506 -0.5117 0
M  V30 13 C 0.3283 1.5253 -1.7844 0
M  V30 14 C 1.8277 1.4232 0.2081 0
M  V30 15 O 1.7794 1.7534 1.4232 0
M  V30 16 C 3.1685 1.291 -0.4593 0
M  V30 17 C 3.7823 -0.0933 -0.2162 0
M  V30 18 C 3.0098 -1.2062 -0.9246 0
M  V30 19 H -1.4435 -1.8765 2.9719 0
M  V30 20 H -2.8656 -0.7713 3.1464 0
M  V30 21 H -3.0066 -2.3494 2.2706 0
M  V30 22 H -4.6209 0.0946 -1.7372 0
M  V30 23 H -3.3768 0.8102 -2.7992 0
M  V30 24 H -3.5111 -0.9883 -2.673 0
M  V30 25 H 1.0053 2.0849 -2.416 0
M  V30 26 H 3.8525 2.0621 -0.0429 0
M  V30 27 H 3.0921 1.4814 -1.5497 0
M  V30 28 H 3.8228 -0.3058 0.8745 0
M  V30 29 H 4.8255 -0.0901 -0.5994 0
M  V30 30 H 1.9918 -1.3105 -0.4939 0
M  V30 31 H 2.9295 -0.9916 -2.0114 0
M  V30 32 H 3.5444 -2.1701 -0.7917 0
M  V30 END ATOM
M  V30 BEGIN BOND
M  V30 1 2 1 2
M  V30 2 1 2 3
M  V30 3 1 2 4
M  V30 4 1 3 5
M  V30 5 1 3 6
M  V30 6 1 4 7
M  V30 7 1 4 8
M  V30 8 2 5 9
M  V30 9 1 5 10
M  V30 10 1 7 11
M  V30 11 1 10 12
M  V30 12 2 11 13
M  V30 13 1 12 14
M  V30 14 2 14 15
M  V30 15 1 14 16
M  V30 16 1 16 17
M  V30 17 1 17 18
M  V30 18 2 7 10
M  V30 19 1 12 13
M  V30 20 1 6 19
M  V30 21 1 6 20
M  V30 22 1 6 21
M  V30 23 1 8 22
M  V30 24 1 8 23
M  V30 25 1 8 24
M  V30 26 1 13 25
M  V30 27 1 16 26
M  V30 28 1 16 27
M  V30 29 1 17 28
M  V30 30 1 17 29
M  V30 31 1 18 30
M  V30 32 1 18 31
M  V30 33 1 18 32
M  V30 END BOND
M  V30 END CTAB
M  END
>  <Structure No>
7188

>  <LogS>
-1.53

>  <MMFF94 Energy>
-115.13

$$$$
Compound 7189
Actelion Java MolfileCreator 2.0

  0  0  0  0  0  0              0 V3000
M  V30 BEGIN CTAB
M  V30 COUNTS 57 60 0 0 0
M  V30 BEGIN ATOM
M  V30 1 O -6.6838 -1.3015 2.4414 0
M  V30 2 C -5.5906 -0.8889 1.9725 0
M  V30 3 C -5.1186 -1.3636 0.6727 0
M  V30 4 C -4.7614 0.0344 2.7405 0
M  V30 5 C -3.9839 -0.8889 0.132 0
M  V30 6 C -3.6377 0.5251 2.2166 0
M  V30 7 C -3.2107 0.2837 0.7637 0 CFG=1
M  V30 8 C -3.5536 -1.4668 -1.1937 0
M  V30 9 C -1.6493 -0.0128 0.7375 0 CFG=2
M  V30 10 C -3.6056 1.5577 -0.0264 0
M  V30 11 C -2.155 -1.0208 -1.6267 0
M  V30 12 C -0.7645 1.2388 0.9287 0
M  V30 13 C -1.19 -0.9865 -0.4213 0 CFG=1
M  V30 14 O -1.1488 2.149 1.6465 0
M  V30 15 C 0.6665 1.3106 0.445 0
M  V30 16 C 0.3214 -0.8355 -0.7611 0 CFG=2
M  V30 17 C 0.8442 0.5984 -0.9102 0 CFG=2
M  V30 18 C 0.9105 -1.6074 -1.9427 0
M  V30 19 C 2.3305 0.3626 -1.366 0 CFG=1
M  V30 20 C 0.0796 1.4097 -2.0003 0
M  V30 21 C 2.2438 -0.9114 -2.2565 0
M  V30 22 O 2.7979 1.4547 -2.1286 0
M  V30 23 C 3.286 0.1258 -0.1873 0
M  V30 24 O 3.2693 -0.9427 0.4082 0
M  V30 25 C 4.2486 1.203 0.2563 0
M  V30 26 O 4.8713 0.874 1.4982 0
M  V30 27 C 5.9212 -0.0446 1.6113 0
M  V30 28 O 6.3725 -0.6377 0.5939 0
M  V30 29 C 6.478 -0.361 2.9575 0
M  V30 30 H -5.6851 -2.1377 0.1673 0
M  V30 31 H -5.0485 0.3028 3.7499 0
M  V30 32 H -3.0647 1.204 2.8332 0
M  V30 33 H -4.2901 -1.1871 -1.9783 0
M  V30 34 H -3.5515 -2.5771 -1.1101 0
M  V30 35 H -1.4424 -0.6001 1.6623 0
M  V30 36 H -3.2376 2.4849 0.4566 0
M  V30 37 H -4.7131 1.6478 -0.0762 0
M  V30 38 H -3.2292 1.5445 -1.0639 0
M  V30 39 H -1.8169 -1.7668 -2.3726 0
M  V30 40 H -2.2128 -0.0566 -2.1558 0
M  V30 41 H -1.2695 -2.0181 -0.001 0
M  V30 42 H 1.2908 0.847 1.2368 0
M  V30 43 H 0.9862 2.3723 0.3519 0
M  V30 44 H 0.827 -1.269 0.1336 0
M  V30 45 H 1.0648 -2.6771 -1.682 0
M  V30 46 H 0.2696 -1.5452 -2.844 0
M  V30 47 H 0.565 2.3936 -2.1709 0
M  V30 48 H 0.0454 0.8682 -2.9684 0
M  V30 49 H -0.9509 1.6545 -1.6869 0
M  V30 50 H 2.2598 -0.6326 -3.3341 0
M  V30 51 H 3.0973 -1.6043 -2.087 0
M  V30 52 H 3.6576 1.1869 -2.5486 0
M  V30 53 H 5.0217 1.3741 -0.523 0
M  V30 54 H 3.6832 2.1484 0.393 0
M  V30 55 H 5.9861 -1.2727 3.3555 0
M  V30 56 H 6.2939 0.4851 3.6523 0
M  V30 57 H 7.5724 -0.5352 2.8865 0
M  V30 END ATOM
M  V30 BEGIN BOND
M  V30 1 2 1 2
M  V30 2 1 2 3
M  V30 3 1 2 4
M  V30 4 2 3 5
M  V30 5 2 4 6
M  V30 6 1 5 7
M  V30 7 1 5 8
M  V30 8 1 7 9
M  V30 9 1 7 10
M  V30 10 1 8 11
M  V30 11 1 9 12
M  V30 12 1 9 13
M  V30 13 2 12 14
M  V30 14 1 12 15
M  V30 15 1 13 16
M  V30 16 1 15 17
M  V30 17 1 16 18
M  V30 18 1 17 19
M  V30 19 1 17 20
M  V30 20 1 18 21
M  V30 21 1 19 22
M  V30 22 1 19 23
M  V30 23 2 23 24
M  V30 24 1 23 25
M  V30 25 1 25 26
M  V30 26 1 26 27
M  V30 27 2 27 28
M  V30 28 1 27 29
M  V30 29 1 6 7
M  V30 30 1 11 13
M  V30 31 1 16 17
M  V30 32 1 19 21
M  V30 33 1 3 30
M  V30 34 1 4 31
M  V30 35 1 6 32
M  V30 36 1 8 33
M  V30 37 1 8 34
M  V30 38 1 9 35
M  V30 39 1 10 36
M  V30 40 1 10 37
M  V30 41 1 10 38
M  V30 42 1 11 39
M  V30 43 1 11 40
M  V30 44 1 13 41
M  V30 45 1 15 42
M  V30 46 1 15 43
M  V30 47 1 16 44
M  V30 48 1 18 45
M  V30 49 1 18 46
M  V30 50 1 20 47
M  V30 51 1 20 48
M  V30 52 1 20 49
M  V30 53 1 21 50
M  V30 54 1 21 51
M  V30 55 1 22 52
M  V30 56 1 25 53
M  V30 57 1 25 54
M  V30 58 1 29 55
M  V30 59 1 29 56
M  V30 60 1 29 57
M  V30 END BOND
M  V30 BEGIN COLLECTION
M  V30 MDLV30/STEABS ATOMS=(6 7 9 13 16 17 19)
M  V30 END COLLECTION
M  V30 END CTAB
M  END
>  <Structure No>
7189

>  <LogS>
-4.24

>  <MMFF94 Energy>
114.49

$$$$
Compound 7190
Actelion Java MolfileCreator 2.0

  0  0  0  0  0  0              0 V3000
M  V30 BEGIN CTAB
M  V30 COUNTS 35 36 0 0 0
M  V30 BEGIN ATOM
M  V30 1 O 4.8506 1.3725 -0.2421 0
M  V30 2 N 4.1718 1.237 0.7956 0 CHG=1
M  V30 3 O 4.6652 1.735 1.9798 0 CHG=-1
M  V30 4 C 2.8116 0.7812 0.7195 0
M  V30 5 C 2.4278 -0.2616 -0.1489 0
M  V30 6 C 1.8412 1.3786 1.5387 0
M  V30 7 N 3.3846 -0.9806 -0.9291 0
M  V30 8 C 1.0865 -0.6496 -0.219 0
M  V30 9 C 0.496 0.9788 1.4893 0
M  V30 10 C 4.7601 -1.3086 -1.4127 0
M  V30 11 C 3.7182 -2.0721 -1.8919 0
M  V30 12 C 0.1079 -0.0254 0.5691 0
M  V30 13 N -0.4395 1.566 2.4116 0 CHG=1
M  V30 14 C -1.3045 -0.4186 0.375 0
M  V30 15 O -1.3299 0.8687 2.9403 0
M  V30 16 O -0.2453 2.8499 2.8672 0 CHG=-1
M  V30 17 O -1.5985 -1.6419 0.2852 0
M  V30 18 N -2.329 0.5791 0.2415 0
M  V30 19 C -3.7441 0.24 0.1075 0
M  V30 20 C -4.0492 -0.2301 -1.3176 0
M  V30 21 C -5.5307 -0.5537 -1.4861 0
M  V30 22 H 2.1387 2.1568 2.2305 0
M  V30 23 H 0.8033 -1.4369 -0.9084 0
M  V30 24 H 5.1508 -0.5273 -2.098 0
M  V30 25 H 5.3758 -1.7555 -0.6039 0
M  V30 26 H 3.5762 -3.0712 -1.4288 0
M  V30 27 H 3.348 -1.833 -2.9111 0
M  V30 28 H -2.0642 1.5898 0.259 0
M  V30 29 H -4.014 -0.5468 0.8456 0
M  V30 30 H -4.3538 1.1426 0.332 0
M  V30 31 H -3.4549 -1.1386 -1.5532 0
M  V30 32 H -3.7683 0.5684 -2.0382 0
M  V30 33 H -5.7214 -0.8915 -2.5265 0
M  V30 34 H -6.1482 0.348 -1.2867 0
M  V30 35 H -5.8297 -1.365 -0.7885 0
M  V30 END ATOM
M  V30 BEGIN BOND
M  V30 1 2 1 2
M  V30 2 1 2 3
M  V30 3 1 2 4
M  V30 4 2 4 5
M  V30 5 1 4 6
M  V30 6 1 5 7
M  V30 7 1 5 8
M  V30 8 2 6 9
M  V30 9 1 7 10
M  V30 10 1 7 11
M  V30 11 2 8 12
M  V30 12 1 9 13
M  V30 13 1 12 14
M  V30 14 2 13 15
M  V30 15 1 13 16
M  V30 16 2 14 17
M  V30 17 1 14 18
M  V30 18 1 18 19
M  V30 19 1 19 20
M  V30 20 1 20 21
M  V30 21 1 9 12
M  V30 22 1 10 11
M  V30 23 1 6 22
M  V30 24 1 8 23
M  V30 25 1 10 24
M  V30 26 1 10 25
M  V30 27 1 11 26
M  V30 28 1 11 27
M  V30 29 1 18 28
M  V30 30 1 19 29
M  V30 31 1 19 30
M  V30 32 1 20 31
M  V30 33 1 20 32
M  V30 34 1 21 33
M  V30 35 1 21 34
M  V30 36 1 21 35
M  V30 END BOND
M  V30 END CTAB
M  END
>  <Structure No>
7190

>  <LogS>
-3.89

>  <MMFF94 Energy>
52.399

$$$$
Compound 7191
Actelion Java MolfileCreator 2.0

  0  0  0  0  0  0              0 V3000
M  V30 BEGIN CTAB
M  V30 COUNTS 38 41 0 0 0
M  V30 BEGIN ATOM
M  V30 1 O -4.7055 -0.729 0.486 0
M  V30 2 C -3.7734 0.0293 0.2674 0
M  V30 3 C -2.3612 -0.4136 0.0806 0 CFG=1
M  V30 4 C -3.9327 1.5074 0.0841 0
M  V30 5 C -1.6279 0.888 0.404 0 CFG=2
M  V30 6 C -1.8379 -1.4717 1.0646 0
M  V30 7 C -2.2036 -0.8911 -1.3887 0
M  V30 8 C -2.5006 1.9999 -0.1857 0
M  V30 9 C -0.168 0.7748 0.0709 0
M  V30 10 C -0.2967 -1.6482 0.9346 0
M  V30 11 C 0.4983 -0.4342 0.4132 0
M  V30 12 C 0.5519 1.8681 -0.4258 0
M  V30 13 C 1.9029 -0.524 0.2065 0
M  V30 14 C 1.9239 1.7722 -0.632 0
M  V30 15 C 2.6075 0.591 -0.3223 0
M  V30 16 C 2.6307 -1.6959 0.5108 0
M  V30 17 C 3.9936 0.514 -0.5335 0
M  V30 18 C 4.0092 -1.7565 0.2947 0
M  V30 19 C 4.6926 -0.6576 -0.2259 0
M  V30 20 O 6.0678 -0.7397 -0.4337 0
M  V30 21 H -4.602 1.7316 -0.7737 0
M  V30 22 H -4.3332 1.9592 1.0173 0
M  V30 23 H -1.655 1.0602 1.5084 0
M  V30 24 H -2.0827 -1.1699 2.1078 0
M  V30 25 H -2.3443 -2.4457 0.8859 0
M  V30 26 H -2.803 -1.8124 -1.5521 0
M  V30 27 H -2.5609 -0.1219 -2.1059 0
M  V30 28 H -1.1503 -1.1243 -1.6447 0
M  V30 29 H -2.3244 2.1003 -1.279 0
M  V30 30 H -2.3108 2.9755 0.3125 0
M  V30 31 H 0.1022 -1.9428 1.9292 0
M  V30 32 H -0.1182 -2.4958 0.2376 0
M  V30 33 H 0.056 2.8036 -0.6491 0
M  V30 34 H 2.4557 2.6307 -1.0254 0
M  V30 35 H 2.1505 -2.5744 0.9184 0
M  V30 36 H 4.5336 1.3631 -0.9366 0
M  V30 37 H 4.5495 -2.6638 0.5342 0
M  V30 38 H 6.5945 0.0399 -0.8101 0
M  V30 END ATOM
M  V30 BEGIN BOND
M  V30 1 2 1 2
M  V30 2 1 2 3
M  V30 3 1 2 4
M  V30 4 1 3 5
M  V30 5 1 3 6
M  V30 6 1 3 7
M  V30 7 1 4 8
M  V30 8 1 5 9
M  V30 9 1 6 10
M  V30 10 2 9 11
M  V30 11 1 9 12
M  V30 12 1 11 13
M  V30 13 2 12 14
M  V30 14 1 13 15
M  V30 15 2 13 16
M  V30 16 2 15 17
M  V30 17 1 16 18
M  V30 18 1 17 19
M  V30 19 1 19 20
M  V30 20 1 5 8
M  V30 21 1 10 11
M  V30 22 1 14 15
M  V30 23 2 18 19
M  V30 24 1 4 21
M  V30 25 1 4 22
M  V30 26 1 5 23
M  V30 27 1 6 24
M  V30 28 1 6 25
M  V30 29 1 7 26
M  V30 30 1 7 27
M  V30 31 1 7 28
M  V30 32 1 8 29
M  V30 33 1 8 30
M  V30 34 1 10 31
M  V30 35 1 10 32
M  V30 36 1 12 33
M  V30 37 1 14 34
M  V30 38 1 16 35
M  V30 39 1 17 36
M  V30 40 1 18 37
M  V30 41 1 20 38
M  V30 END BOND
M  V30 BEGIN COLLECTION
M  V30 MDLV30/STEABS ATOMS=(2 3 5)
M  V30 END COLLECTION
M  V30 END CTAB
M  END
>  <Structure No>
7191

>  <LogS>
-4.96

>  <MMFF94 Energy>
47.439

$$$$
Compound 7192
Actelion Java MolfileCreator 2.0

  0  0  0  0  0  0              0 V3000
M  V30 BEGIN CTAB
M  V30 COUNTS 43 45 0 0 0
M  V30 BEGIN ATOM
M  V30 1 S -0.3274 -0.0818 -1.3921 0
M  V30 2 C -1.3939 -1.5102 -1.0009 0 CFG=2
M  V30 3 C -1.6188 0.703 -2.435 0
M  V30 4 N -2.6156 -0.9958 -0.4373 0
M  V30 5 C -1.0892 -2.3078 0.1699 0 CFG=2
M  V30 6 C -2.9085 1.0203 -1.686 0
M  V30 7 C -3.4001 0.1549 -0.7588 0
M  V30 8 C -2.3954 -1.8546 0.7502 0
M  V30 9 N 0.0505 -1.8297 0.9582 0
M  V30 10 C -3.6584 2.2605 -2.1043 0
M  V30 11 C -4.672 0.3593 -0.0196 0
M  V30 12 O -3.0179 -2.0765 1.8218 0
M  V30 13 C 1.4025 -2.1412 0.5871 0
M  V30 14 O -5.2384 -0.6259 0.522 0
M  V30 15 O -5.2475 1.6162 0.1208 0 CHG=-1
M  V30 16 O 1.6189 -2.9434 -0.3622 0
M  V30 17 C 2.5804 -1.4772 1.264 0 CFG=2
M  V30 18 N 2.5194 -1.5984 2.7276 0 CHG=1
M  V30 19 C 2.7154 -0.03 0.8091 0
M  V30 20 C 1.8568 0.9331 1.2207 0
M  V30 21 C 3.822 0.3403 -0.165 0
M  V30 22 C 1.9841 2.3503 0.7173 0
M  V30 23 C 3.3769 1.432 -1.1074 0
M  V30 24 C 2.515 2.3734 -0.6931 0
M  V30 25 H -1.6048 -2.1322 -1.8992 0
M  V30 26 H -1.1779 1.6315 -2.8545 0
M  V30 27 H -1.8541 0.0317 -3.288 0
M  V30 28 H -1.0685 -3.4052 -0.0065 0
M  V30 29 H -0.1317 -1.2793 1.8259 0
M  V30 30 H -3.18 2.7497 -2.9791 0
M  V30 31 H -3.6678 2.9962 -1.2725 0
M  V30 32 H -4.6971 2.0009 -2.4002 0
M  V30 33 H 3.4938 -2.0238 0.9345 0
M  V30 34 H 2.4655 -2.6095 2.9929 0
M  V30 35 H 1.6958 -1.0993 3.1318 0
M  V30 36 H 3.3912 -1.1973 3.1452 0
M  V30 37 H 1.0491 0.7099 1.9068 0
M  V30 38 H 4.1384 -0.5442 -0.7591 0
M  V30 39 H 4.6969 0.7051 0.414 0
M  V30 40 H 2.6887 2.9024 1.3742 0
M  V30 41 H 0.9949 2.8524 0.7515 0
M  V30 42 H 3.759 1.4573 -2.1233 0
M  V30 43 H 2.2002 3.1584 -1.3739 0
M  V30 END ATOM
M  V30 BEGIN BOND
M  V30 1 1 1 2
M  V30 2 1 1 3
M  V30 3 1 2 4
M  V30 4 1 2 5
M  V30 5 1 3 6
M  V30 6 1 4 7
M  V30 7 1 4 8
M  V30 8 1 5 9
M  V30 9 1 6 10
M  V30 10 1 7 11
M  V30 11 2 8 12
M  V30 12 1 9 13
M  V30 13 2 11 14
M  V30 14 1 11 15
M  V30 15 2 13 16
M  V30 16 1 13 17
M  V30 17 1 17 18
M  V30 18 1 17 19
M  V30 19 2 19 20
M  V30 20 1 19 21
M  V30 21 1 20 22
M  V30 22 1 21 23
M  V30 23 1 22 24
M  V30 24 1 5 8
M  V30 25 2 6 7
M  V30 26 2 23 24
M  V30 27 1 2 25
M  V30 28 1 3 26
M  V30 29 1 3 27
M  V30 30 1 5 28
M  V30 31 1 9 29
M  V30 32 1 10 30
M  V30 33 1 10 31
M  V30 34 1 10 32
M  V30 35 1 17 33
M  V30 36 1 18 34
M  V30 37 1 18 35
M  V30 38 1 18 36
M  V30 39 1 20 37
M  V30 40 1 21 38
M  V30 41 1 21 39
M  V30 42 1 22 40
M  V30 43 1 22 41
M  V30 44 1 23 42
M  V30 45 1 24 43
M  V30 END BOND
M  V30 BEGIN COLLECTION
M  V30 MDLV30/STEABS ATOMS=(3 2 5 17)
M  V30 END COLLECTION
M  V30 END CTAB
M  END
>  <Structure No>
7192

>  <LogS>
-1.22

>  <MMFF94 Energy>
-0.14398

$$$$
Compound 7193
Actelion Java MolfileCreator 2.0

  0  0  0  0  0  0              0 V3000
M  V30 BEGIN CTAB
M  V30 COUNTS 34 35 0 0 0
M  V30 BEGIN ATOM
M  V30 1 O -3.9025 0.9546 -1.6711 0
M  V30 2 C -2.9851 0.5028 -0.9286 0
M  V30 3 N -2.418 -0.7296 -1.2089 0
M  V30 4 N -2.5596 1.2458 0.1515 0
M  V30 5 C -1.3982 -1.2179 -0.4237 0
M  V30 6 C -2.8591 -1.4869 -2.3923 0
M  V30 7 C -1.5806 0.724 0.9393 0
M  V30 8 C -3.1862 2.5334 0.4801 0
M  V30 9 O -0.8404 -2.3184 -0.6861 0
M  V30 10 C -0.996 -0.4662 0.6731 0
M  V30 11 N -1.0433 1.2861 2.0408 0
M  V30 12 N -0.0563 -0.7061 1.6041 0
M  V30 13 C -0.1095 0.3756 2.4196 0
M  V30 14 C 0.8567 -1.8428 1.7163 0
M  V30 15 O 1.752 -1.867 0.6072 0
M  V30 16 C 2.7216 -0.8853 0.386 0
M  V30 17 O 2.8858 0.0523 1.215 0
M  V30 18 O 3.5106 -0.9626 -0.7656 0
M  V30 19 C 4.4744 0.0256 -1.1243 0
M  V30 20 C 3.7883 1.2724 -1.6711 0
M  V30 21 H -2.7102 -2.579 -2.2544 0
M  V30 22 H -3.9444 -1.3409 -2.5791 0
M  V30 23 H -2.2869 -1.1516 -3.2826 0
M  V30 24 H -4.1465 2.3554 1.0082 0
M  V30 25 H -2.5288 3.1529 1.1266 0
M  V30 26 H -3.3794 3.1199 -0.4433 0
M  V30 27 H 0.5306 0.5093 3.282 0
M  V30 28 H 1.4332 -1.789 2.6658 0
M  V30 29 H 0.2706 -2.7855 1.7306 0
M  V30 30 H 5.1078 0.2859 -0.2484 0
M  V30 31 H 5.1335 -0.3934 -1.9135 0
M  V30 32 H 3.1534 1.0043 -2.5418 0
M  V30 33 H 3.1546 1.7407 -0.8893 0
M  V30 34 H 4.554 2.0075 -1.9965 0
M  V30 END ATOM
M  V30 BEGIN BOND
M  V30 1 2 1 2
M  V30 2 1 2 3
M  V30 3 1 2 4
M  V30 4 1 3 5
M  V30 5 1 3 6
M  V30 6 1 4 7
M  V30 7 1 4 8
M  V30 8 2 5 9
M  V30 9 1 5 10
M  V30 10 1 7 11
M  V30 11 1 10 12
M  V30 12 2 11 13
M  V30 13 1 12 14
M  V30 14 1 14 15
M  V30 15 1 15 16
M  V30 16 2 16 17
M  V30 17 1 16 18
M  V30 18 1 18 19
M  V30 19 1 19 20
M  V30 20 2 7 10
M  V30 21 1 12 13
M  V30 22 1 6 21
M  V30 23 1 6 22
M  V30 24 1 6 23
M  V30 25 1 8 24
M  V30 26 1 8 25
M  V30 27 1 8 26
M  V30 28 1 13 27
M  V30 29 1 14 28
M  V30 30 1 14 29
M  V30 31 1 19 30
M  V30 32 1 19 31
M  V30 33 1 20 32
M  V30 34 1 20 33
M  V30 35 1 20 34
M  V30 END BOND
M  V30 END CTAB
M  END
>  <Structure No>
7193

>  <LogS>
-1.86

>  <MMFF94 Energy>
-171.75

$$$$
Compound 7194
Actelion Java MolfileCreator 2.0

  0  0  0  0  0  0              0 V3000
M  V30 BEGIN CTAB
M  V30 COUNTS 35 36 0 0 0
M  V30 BEGIN ATOM
M  V30 1 O -4.9327 -0.7266 -1.2112 0
M  V30 2 N -3.9021 -1.4288 -1.1903 0 CHG=1
M  V30 3 O -3.962 -2.7084 -1.6927 0 CHG=-1
M  V30 4 C -2.6305 -0.844 -0.8668 0
M  V30 5 C -2.4934 0.1072 0.1653 0
M  V30 6 C -1.4975 -1.2193 -1.6045 0
M  V30 7 N -3.5901 0.4645 1.0087 0
M  V30 8 C -1.2403 0.6669 0.4327 0
M  V30 9 C -0.2399 -0.648 -1.3527 0
M  V30 10 C -5.0031 0.3921 1.4901 0
M  V30 11 C -4.1411 1.2239 2.1704 0
M  V30 12 C -0.1048 0.2897 -0.3001 0
M  V30 13 N 0.8626 -0.9882 -2.2113 0 CHG=1
M  V30 14 C 1.2064 0.8452 0.1016 0
M  V30 15 O 1.6695 -0.1104 -2.5811 0
M  V30 16 O 0.9229 -2.233 -2.7945 0 CHG=-1
M  V30 17 O 1.2957 2.0689 0.3944 0
M  V30 18 N 2.3567 -0.0073 0.2189 0
M  V30 19 C 3.6916 0.5162 0.5278 0
M  V30 20 C 4.6136 -0.6158 0.9921 0
M  V30 21 C 4.2807 1.2128 -0.7022 0
M  V30 22 H -1.6057 -1.9272 -2.4164 0
M  V30 23 H -1.1453 1.3729 1.25 0
M  V30 24 H -5.22 -0.5915 1.9569 0
M  V30 25 H -5.7028 0.8843 0.7823 0
M  V30 26 H -3.7304 0.8426 3.1289 0
M  V30 27 H -4.2069 2.309 1.9438 0
M  V30 28 H 2.2173 -1.0408 0.141 0
M  V30 29 H 3.615 1.2523 1.3587 0
M  V30 30 H 4.7369 -1.3744 0.1893 0
M  V30 31 H 4.1819 -1.1098 1.8885 0
M  V30 32 H 5.6122 -0.2116 1.2633 0
M  V30 33 H 4.3662 0.4984 -1.5487 0
M  V30 34 H 5.2881 1.6184 -0.4681 0
M  V30 35 H 3.632 2.0581 -1.014 0
M  V30 END ATOM
M  V30 BEGIN BOND
M  V30 1 2 1 2
M  V30 2 1 2 3
M  V30 3 1 2 4
M  V30 4 2 4 5
M  V30 5 1 4 6
M  V30 6 1 5 7
M  V30 7 1 5 8
M  V30 8 2 6 9
M  V30 9 1 7 10
M  V30 10 1 7 11
M  V30 11 2 8 12
M  V30 12 1 9 13
M  V30 13 1 12 14
M  V30 14 2 13 15
M  V30 15 1 13 16
M  V30 16 2 14 17
M  V30 17 1 14 18
M  V30 18 1 18 19
M  V30 19 1 19 20
M  V30 20 1 19 21
M  V30 21 1 9 12
M  V30 22 1 10 11
M  V30 23 1 6 22
M  V30 24 1 8 23
M  V30 25 1 10 24
M  V30 26 1 10 25
M  V30 27 1 11 26
M  V30 28 1 11 27
M  V30 29 1 18 28
M  V30 30 1 19 29
M  V30 31 1 20 30
M  V30 32 1 20 31
M  V30 33 1 20 32
M  V30 34 1 21 33
M  V30 35 1 21 34
M  V30 36 1 21 35
M  V30 END BOND
M  V30 END CTAB
M  END
>  <Structure No>
7194

>  <LogS>
-3.5

>  <MMFF94 Energy>
56.678

$$$$
Compound 7195
Actelion Java MolfileCreator 2.0

  0  0  0  0  0  0              0 V3000
M  V30 BEGIN CTAB
M  V30 COUNTS 22 23 0 0 0
M  V30 BEGIN ATOM
M  V30 1 Cl -0.7788 -2.6843 0.346 0
M  V30 2 C -1.4939 -1.0758 0.2075 0
M  V30 3 C -2.893 -0.9261 0.2396 0
M  V30 4 C -0.6744 0.0607 0.0354 0
M  V30 5 Cl -3.9564 -2.3121 0.4468 0
M  V30 6 C -3.465 0.3429 0.1016 0
M  V30 7 C 0.7996 -0.0505 0.0116 0
M  V30 8 C -1.2647 1.3268 -0.1019 0
M  V30 9 C -2.654 1.4666 -0.0699 0
M  V30 10 C 1.534 0.1967 -1.1672 0
M  V30 11 C 1.4828 -0.3919 1.1907 0
M  V30 12 Cl -3.3797 3.0541 -0.2431 0
M  V30 13 Cl 0.7348 0.5986 -2.6835 0
M  V30 14 C 2.9307 0.097 -1.151 0
M  V30 15 C 2.8766 -0.4887 1.1962 0
M  V30 16 C 3.5997 -0.2439 0.0271 0
M  V30 17 H -4.5418 0.4555 0.1262 0
M  V30 18 H -0.6428 2.205 -0.2291 0
M  V30 19 H 0.9346 -0.5783 2.1062 0
M  V30 20 H 3.4995 0.2805 -2.0536 0
M  V30 21 H 3.3965 -0.7521 2.1082 0
M  V30 22 H 4.6792 -0.3197 0.0333 0
M  V30 END ATOM
M  V30 BEGIN BOND
M  V30 1 1 1 2
M  V30 2 2 2 3
M  V30 3 1 2 4
M  V30 4 1 3 5
M  V30 5 1 3 6
M  V30 6 1 4 7
M  V30 7 2 4 8
M  V30 8 2 6 9
M  V30 9 2 7 10
M  V30 10 1 7 11
M  V30 11 1 9 12
M  V30 12 1 10 13
M  V30 13 1 10 14
M  V30 14 2 11 15
M  V30 15 2 14 16
M  V30 16 1 8 9
M  V30 17 1 15 16
M  V30 18 1 6 17
M  V30 19 1 8 18
M  V30 20 1 11 19
M  V30 21 1 14 20
M  V30 22 1 15 21
M  V30 23 1 16 22
M  V30 END BOND
M  V30 END CTAB
M  END
>  <Structure No>
7195

>  <LogS>
-6.23

>  <MMFF94 Energy>
45.039

$$$$
Compound 7196
Actelion Java MolfileCreator 2.0

  0  0  0  0  0  0              0 V3000
M  V30 BEGIN CTAB
M  V30 COUNTS 30 31 0 0 0
M  V30 BEGIN ATOM
M  V30 1 O -4.6233 0.0795 0.2387 0
M  V30 2 C -3.3641 0.1473 0.1538 0
M  V30 3 N -2.6094 0.3677 1.2926 0
M  V30 4 N -2.7584 -0.0122 -1.0719 0
M  V30 5 C -1.2343 0.3694 1.2263 0
M  V30 6 C -3.2785 0.509 2.5973 0
M  V30 7 C -1.3991 0.0104 -1.1216 0
M  V30 8 C -3.5488 -0.286 -2.2798 0
M  V30 9 O -0.5404 0.4779 2.2724 0
M  V30 10 C -0.6308 0.2161 -0.0221 0
M  V30 11 N -0.6353 -0.2006 -2.2104 0
M  V30 12 N 0.6682 0.1521 -0.3887 0
M  V30 13 C 0.625 -0.1073 -1.7194 0
M  V30 14 C 1.8732 0.3367 0.3716 0
M  V30 15 O 1.8551 0.9644 1.4642 0
M  V30 16 O 3.0841 -0.1427 -0.1382 0
M  V30 17 C 4.324 0.0193 0.5422 0
M  V30 18 C 5.4393 -0.6133 -0.274 0
M  V30 19 H -4.2626 1.0139 2.4912 0
M  V30 20 H -3.4293 -0.4939 3.0489 0
M  V30 21 H -2.6804 1.1359 3.2927 0
M  V30 22 H -3.787 -1.3691 -2.3308 0
M  V30 23 H -4.4945 0.297 -2.2711 0
M  V30 24 H -2.9971 0.0074 -3.1983 0
M  V30 25 H 1.5058 -0.2176 -2.3391 0
M  V30 26 H 4.5382 1.1016 0.6796 0
M  V30 27 H 4.273 -0.4723 1.5379 0
M  V30 28 H 5.2404 -1.6973 -0.4118 0
M  V30 29 H 5.5048 -0.125 -1.2692 0
M  V30 30 H 6.408 -0.4883 0.254 0
M  V30 END ATOM
M  V30 BEGIN BOND
M  V30 1 2 1 2
M  V30 2 1 2 3
M  V30 3 1 2 4
M  V30 4 1 3 5
M  V30 5 1 3 6
M  V30 6 1 4 7
M  V30 7 1 4 8
M  V30 8 2 5 9
M  V30 9 1 5 10
M  V30 10 1 7 11
M  V30 11 1 10 12
M  V30 12 2 11 13
M  V30 13 1 12 14
M  V30 14 2 14 15
M  V30 15 1 14 16
M  V30 16 1 16 17
M  V30 17 1 17 18
M  V30 18 2 7 10
M  V30 19 1 12 13
M  V30 20 1 6 19
M  V30 21 1 6 20
M  V30 22 1 6 21
M  V30 23 1 8 22
M  V30 24 1 8 23
M  V30 25 1 8 24
M  V30 26 1 13 25
M  V30 27 1 17 26
M  V30 28 1 17 27
M  V30 29 1 18 28
M  V30 30 1 18 29
M  V30 31 1 18 30
M  V30 END BOND
M  V30 END CTAB
M  END
>  <Structure No>
7196

>  <LogS>
-1.65

>  <MMFF94 Energy>
-126.17

$$$$
Compound 7197
Actelion Java MolfileCreator 2.0

  0  0  0  0  0  0              0 V3000
M  V30 BEGIN CTAB
M  V30 COUNTS 38 40 0 0 0
M  V30 BEGIN ATOM
M  V30 1 O 1.6794 -2.3198 1.5194 0
M  V30 2 C 1.5598 -1.3327 0.7409 0
M  V30 3 N 0.3435 -0.6978 0.6018 0
M  V30 4 C 2.6782 -0.9005 0.0082 0
M  V30 5 C 0.1854 0.2262 -0.4103 0
M  V30 6 C -0.7834 -1.0581 1.5057 0 CFG=2
M  V30 7 C 2.5039 0.1455 -0.9102 0
M  V30 8 C 3.955 -1.4735 0.1686 0
M  V30 9 N 1.2702 0.6613 -1.1072 0
M  V30 10 C -1.1812 0.7822 -0.7794 0 CFG=2
M  V30 11 C -2.0625 -0.2549 1.2084 0
M  V30 12 C -0.4119 -0.8278 2.9861 0
M  V30 13 C 3.5903 0.622 -1.6533 0
M  V30 14 C 5.0375 -0.9928 -0.5751 0
M  V30 15 N -2.2408 -0.1047 -0.2413 0
M  V30 16 C -1.2947 0.9142 -2.3139 0
M  V30 17 C 4.8561 0.0546 -1.4827 0
M  V30 18 C -3.6351 0.2885 -0.5761 0
M  V30 19 C -4.0198 1.7119 -0.1457 0
M  V30 20 H -1.0207 -2.1362 1.3622 0
M  V30 21 H 4.12 -2.283 0.8691 0
M  V30 22 H -1.2541 1.7983 -0.3325 0
M  V30 23 H -2.9233 -0.8003 1.6577 0
M  V30 24 H -2.0074 0.7462 1.6955 0
M  V30 25 H -1.3095 -0.9347 3.6332 0
M  V30 26 H 0.006 0.1926 3.1233 0
M  V30 27 H 0.3261 -1.5691 3.3487 0
M  V30 28 H 3.4543 1.4251 -2.3673 0
M  V30 29 H 6.0184 -1.4323 -0.4472 0
M  V30 30 H -2.2168 1.4581 -2.6019 0
M  V30 31 H -1.2963 -0.0899 -2.7892 0
M  V30 32 H -0.4542 1.5097 -2.7284 0
M  V30 33 H 5.6957 0.423 -2.0577 0
M  V30 34 H -3.8107 0.1721 -1.6653 0
M  V30 35 H -4.346 -0.4239 -0.1026 0
M  V30 36 H -5.0896 1.8857 -0.3874 0
M  V30 37 H -3.8928 1.8496 0.9471 0
M  V30 38 H -3.426 2.4728 -0.6911 0
M  V30 END ATOM
M  V30 BEGIN BOND
M  V30 1 2 1 2
M  V30 2 1 2 3
M  V30 3 1 2 4
M  V30 4 1 3 5
M  V30 5 1 3 6
M  V30 6 2 4 7
M  V30 7 1 4 8
M  V30 8 2 5 9
M  V30 9 1 5 10
M  V30 10 1 6 11
M  V30 11 1 6 12
M  V30 12 1 7 13
M  V30 13 2 8 14
M  V30 14 1 10 15
M  V30 15 1 10 16
M  V30 16 2 13 17
M  V30 17 1 15 18
M  V30 18 1 18 19
M  V30 19 1 7 9
M  V30 20 1 11 15
M  V30 21 1 14 17
M  V30 22 1 6 20
M  V30 23 1 8 21
M  V30 24 1 10 22
M  V30 25 1 11 23
M  V30 26 1 11 24
M  V30 27 1 12 25
M  V30 28 1 12 26
M  V30 29 1 12 27
M  V30 30 1 13 28
M  V30 31 1 14 29
M  V30 32 1 16 30
M  V30 33 1 16 31
M  V30 34 1 16 32
M  V30 35 1 17 33
M  V30 36 1 18 34
M  V30 37 1 18 35
M  V30 38 1 19 36
M  V30 39 1 19 37
M  V30 40 1 19 38
M  V30 END BOND
M  V30 BEGIN COLLECTION
M  V30 MDLV30/STEABS ATOMS=(2 6 10)
M  V30 END COLLECTION
M  V30 END CTAB
M  END
>  <Structure No>
7197

>  <LogS>
-2.46

>  <MMFF94 Energy>
59.708

$$$$
Compound 7198
Actelion Java MolfileCreator 2.0

  0  0  0  0  0  0              0 V3000
M  V30 BEGIN CTAB
M  V30 COUNTS 34 35 0 0 0
M  V30 BEGIN ATOM
M  V30 1 O 1.1935 -0.0795 -1.0343 0
M  V30 2 C 1.4922 0.7085 -0.0957 0
M  V30 3 N 0.4594 1.4027 0.6208 0
M  V30 4 N 2.8688 0.9814 0.2078 0
M  V30 5 C -0.9377 1.0697 0.5472 0
M  V30 6 C 3.9743 0.2098 -0.2925 0
M  V30 7 C -1.3692 -0.2609 0.4045 0
M  V30 8 C -1.895 2.0845 0.6889 0
M  V30 9 C 3.8709 -1.1801 -0.4907 0
M  V30 10 C 5.2035 0.8441 -0.5323 0
M  V30 11 C -2.7342 -0.5609 0.3588 0
M  V30 12 C -3.2593 1.7837 0.6433 0
M  V30 13 C 4.9699 -1.9096 -0.9554 0
M  V30 14 C 6.2997 0.1114 -0.9978 0
M  V30 15 C -3.6908 0.4656 0.4594 0
M  V30 16 C 6.1818 -1.2638 -1.2132 0
M  V30 17 O -5.0706 0.2124 0.4277 0
M  V30 18 C -5.6835 -0.8554 -0.24 0
M  V30 19 O -5.0761 -1.4943 -1.1412 0
M  V30 20 C -7.1154 -1.1633 0.0386 0
M  V30 21 H 0.7343 2.248 1.1705 0
M  V30 22 H 3.0815 1.8388 0.7665 0
M  V30 23 H -0.6556 -1.0728 0.3623 0
M  V30 24 H -1.5825 3.1122 0.8261 0
M  V30 25 H 2.954 -1.7068 -0.2631 0
M  V30 26 H 5.3081 1.9093 -0.3673 0
M  V30 27 H -3.0361 -1.5965 0.2841 0
M  V30 28 H -3.9855 2.5802 0.7452 0
M  V30 29 H 4.8845 -2.9778 -1.1071 0
M  V30 30 H 7.2412 0.6097 -1.1893 0
M  V30 31 H 7.0316 -1.8304 -1.5712 0
M  V30 32 H -7.3703 -0.8664 1.0776 0
M  V30 33 H -7.7592 -0.6014 -0.6694 0
M  V30 34 H -7.3025 -2.2515 -0.079 0
M  V30 END ATOM
M  V30 BEGIN BOND
M  V30 1 2 1 2
M  V30 2 1 2 3
M  V30 3 1 2 4
M  V30 4 1 3 5
M  V30 5 1 4 6
M  V30 6 2 5 7
M  V30 7 1 5 8
M  V30 8 2 6 9
M  V30 9 1 6 10
M  V30 10 1 7 11
M  V30 11 2 8 12
M  V30 12 1 9 13
M  V30 13 2 10 14
M  V30 14 2 11 15
M  V30 15 2 13 16
M  V30 16 1 15 17
M  V30 17 1 17 18
M  V30 18 2 18 19
M  V30 19 1 18 20
M  V30 20 1 12 15
M  V30 21 1 14 16
M  V30 22 1 3 21
M  V30 23 1 4 22
M  V30 24 1 7 23
M  V30 25 1 8 24
M  V30 26 1 9 25
M  V30 27 1 10 26
M  V30 28 1 11 27
M  V30 29 1 12 28
M  V30 30 1 13 29
M  V30 31 1 14 30
M  V30 32 1 16 31
M  V30 33 1 20 32
M  V30 34 1 20 33
M  V30 35 1 20 34
M  V30 END BOND
M  V30 END CTAB
M  END
>  <Structure No>
7198

>  <LogS>
-4.44

>  <MMFF94 Energy>
-20.356

$$$$
Compound 7199
Actelion Java MolfileCreator 2.0

  0  0  0  0  0  0              0 V3000
M  V30 BEGIN CTAB
M  V30 COUNTS 33 34 0 0 0
M  V30 BEGIN ATOM
M  V30 1 O -3.8971 1.1122 1.6687 0
M  V30 2 C -2.9385 0.5949 1.0284 0
M  V30 3 N -1.6998 0.4602 1.6344 0
M  V30 4 N -3.141 0.1651 -0.2655 0
M  V30 5 C -0.6695 -0.1683 0.9728 0
M  V30 6 C -1.5081 0.9177 3.0209 0
M  V30 7 C -2.1065 -0.4461 -0.9038 0
M  V30 8 C -4.4551 0.2875 -0.9104 0
M  V30 9 O 0.452 -0.3414 1.5236 0
M  V30 10 C -0.8981 -0.6187 -0.3214 0
M  V30 11 N -2.115 -0.9583 -2.1511 0
M  V30 12 N -0.0876 -1.2555 -1.1842 0
M  V30 13 C -0.8532 -1.4425 -2.2873 0
M  V30 14 C 1.3135 -1.6294 -1.0166 0
M  V30 15 O 2.1111 -0.4529 -0.9441 0
M  V30 16 C 3.4894 -0.4882 -0.7187 0
M  V30 17 O 4.092 -1.5877 -0.5809 0
M  V30 18 C 4.2436 0.796 -0.5889 0
M  V30 19 C 4.085 1.3681 0.8147 0
M  V30 20 H -1.7967 0.1077 3.7232 0
M  V30 21 H -2.1198 1.8205 3.2329 0
M  V30 22 H -0.4517 1.2046 3.2102 0
M  V30 23 H -4.9373 1.2504 -0.6371 0
M  V30 24 H -4.3653 0.2726 -2.0174 0
M  V30 25 H -5.1065 -0.552 -0.5889 0
M  V30 26 H -0.4998 -1.926 -3.1888 0
M  V30 27 H 1.4279 -2.2256 -0.0857 0
M  V30 28 H 1.6478 -2.2522 -1.875 0
M  V30 29 H 3.8548 1.5258 -1.3307 0
M  V30 30 H 5.3216 0.6264 -0.8004 0
M  V30 31 H 4.4842 0.6563 1.5686 0
M  V30 32 H 3.0135 1.5689 1.0312 0
M  V30 33 H 4.6479 2.3219 0.8931 0
M  V30 END ATOM
M  V30 BEGIN BOND
M  V30 1 2 1 2
M  V30 2 1 2 3
M  V30 3 1 2 4
M  V30 4 1 3 5
M  V30 5 1 3 6
M  V30 6 1 4 7
M  V30 7 1 4 8
M  V30 8 2 5 9
M  V30 9 1 5 10
M  V30 10 1 7 11
M  V30 11 1 10 12
M  V30 12 2 11 13
M  V30 13 1 12 14
M  V30 14 1 14 15
M  V30 15 1 15 16
M  V30 16 2 16 17
M  V30 17 1 16 18
M  V30 18 1 18 19
M  V30 19 2 7 10
M  V30 20 1 12 13
M  V30 21 1 6 20
M  V30 22 1 6 21
M  V30 23 1 6 22
M  V30 24 1 8 23
M  V30 25 1 8 24
M  V30 26 1 8 25
M  V30 27 1 13 26
M  V30 28 1 14 27
M  V30 29 1 14 28
M  V30 30 1 18 29
M  V30 31 1 18 30
M  V30 32 1 19 31
M  V30 33 1 19 32
M  V30 34 1 19 33
M  V30 END BOND
M  V30 END CTAB
M  END
>  <Structure No>
7199

>  <LogS>
-2.3

>  <MMFF94 Energy>
-146.28

$$$$
Compound 7200
Actelion Java MolfileCreator 2.0

  0  0  0  0  0  0              0 V3000
M  V30 BEGIN CTAB
M  V30 COUNTS 27 28 0 0 0
M  V30 BEGIN ATOM
M  V30 1 O 4.7862 2.6749 0.6479 0
M  V30 2 N 5.2128 1.6486 0.0815 0 CHG=1
M  V30 3 O 6.5538 1.5394 -0.204 0 CHG=-1
M  V30 4 C 4.3106 0.5966 -0.2662 0
M  V30 5 O 3.0207 0.6309 -0.0253 0
M  V30 6 C 4.6591 -0.5837 -0.893 0
M  V30 7 C 2.4981 -0.4887 -0.4715 0
M  V30 8 C 3.4803 -1.2883 -1.0259 0
M  V30 9 C 1.0758 -0.827 -0.3865 0
M  V30 10 N 0.2437 0.005 0.1588 0
M  V30 11 N -1.1344 -0.251 0.2743 0
M  V30 12 C -2.0677 0.6506 0.8497 0
M  V30 13 C -1.8624 -1.4049 -0.2525 0
M  V30 14 O -1.7495 1.7703 1.3317 0
M  V30 15 N -3.3987 0.1659 0.7936 0
M  V30 16 C -3.2831 -1.0663 0.0857 0
M  V30 17 C -4.6132 0.9641 0.9358 0
M  V30 18 O -4.2742 -1.773 -0.2372 0
M  V30 19 O -4.9075 1.6106 -0.2713 0
M  V30 20 H 5.6445 -0.8946 -1.2135 0
M  V30 21 H 3.3542 -2.2657 -1.4728 0
M  V30 22 H 0.7366 -1.7761 -0.7815 0
M  V30 23 H -1.7313 -1.479 -1.3527 0
M  V30 24 H -1.5462 -2.335 0.2651 0
M  V30 25 H -4.4899 1.7065 1.756 0
M  V30 26 H -5.4616 0.3008 1.2053 0
M  V30 27 H -4.2307 2.3288 -0.3773 0
M  V30 END ATOM
M  V30 BEGIN BOND
M  V30 1 2 1 2
M  V30 2 1 2 3
M  V30 3 1 2 4
M  V30 4 1 4 5
M  V30 5 2 4 6
M  V30 6 1 5 7
M  V30 7 1 6 8
M  V30 8 1 7 9
M  V30 9 2 9 10
M  V30 10 1 10 11
M  V30 11 1 11 12
M  V30 12 1 11 13
M  V30 13 2 12 14
M  V30 14 1 12 15
M  V30 15 1 13 16
M  V30 16 1 15 17
M  V30 17 2 16 18
M  V30 18 1 17 19
M  V30 19 2 7 8
M  V30 20 1 15 16
M  V30 21 1 6 20
M  V30 22 1 8 21
M  V30 23 1 9 22
M  V30 24 1 13 23
M  V30 25 1 13 24
M  V30 26 1 17 25
M  V30 27 1 17 26
M  V30 28 1 19 27
M  V30 END BOND
M  V30 END CTAB
M  END
>  <Structure No>
7200

>  <LogS>
-2.91

>  <MMFF94 Energy>
29.08

$$$$
Compound 7201
Actelion Java MolfileCreator 2.0

  0  0  0  0  0  0              0 V3000
M  V30 BEGIN CTAB
M  V30 COUNTS 31 32 0 0 0
M  V30 BEGIN ATOM
M  V30 1 O 2.2512 2.9756 -0.0803 0
M  V30 2 C 3.2531 2.2167 -0.1564 0
M  V30 3 O 4.5055 2.7815 -0.3686 0 CHG=-1
M  V30 4 C 3.106 0.7426 -0.0625 0
M  V30 5 C 1.9544 0.127 0.4933 0
M  V30 6 C 4.1322 -0.0716 -0.5777 0
M  V30 7 N 0.9243 0.9081 1.1227 0
M  V30 8 C 1.8613 -1.2759 0.5129 0
M  V30 9 C 4.0186 -1.4629 -0.5561 0
M  V30 10 C -0.4834 0.6853 0.9242 0
M  V30 11 C 2.8839 -2.0637 -0.015 0
M  V30 12 C -0.9694 0.0633 -0.241 0
M  V30 13 C -1.3938 1.1372 1.8883 0
M  V30 14 C -2.3508 -0.1361 -0.4322 0
M  V30 15 C -2.764 0.946 1.7097 0
M  V30 16 C -2.8428 -0.804 -1.6678 0
M  V30 17 C -3.2425 0.3114 0.5617 0
M  V30 18 O -2.0183 -1.2033 -2.5346 0
M  V30 19 C -4.3043 -1.0242 -1.9218 0
M  V30 20 H 5.0199 0.3675 -1.0153 0
M  V30 21 H 1.2194 1.6352 1.8133 0
M  V30 22 H 1.001 -1.7597 0.9581 0
M  V30 23 H 4.8126 -2.0763 -0.9617 0
M  V30 24 H 2.8011 -3.1427 0.0059 0
M  V30 25 H -0.2708 -0.2515 -1.0055 0
M  V30 26 H -1.0393 1.6314 2.7842 0
M  V30 27 H -3.4591 1.2916 2.4642 0
M  V30 28 H -4.311 0.1795 0.4575 0
M  V30 29 H -4.7328 -1.6666 -1.1242 0
M  V30 30 H -4.4584 -1.5286 -2.8994 0
M  V30 31 H -4.8346 -0.0491 -1.943 0
M  V30 END ATOM
M  V30 BEGIN BOND
M  V30 1 2 1 2
M  V30 2 1 2 3
M  V30 3 1 2 4
M  V30 4 2 4 5
M  V30 5 1 4 6
M  V30 6 1 5 7
M  V30 7 1 5 8
M  V30 8 2 6 9
M  V30 9 1 7 10
M  V30 10 2 8 11
M  V30 11 2 10 12
M  V30 12 1 10 13
M  V30 13 1 12 14
M  V30 14 2 13 15
M  V30 15 1 14 16
M  V30 16 2 14 17
M  V30 17 2 16 18
M  V30 18 1 16 19
M  V30 19 1 9 11
M  V30 20 1 15 17
M  V30 21 1 6 20
M  V30 22 1 7 21
M  V30 23 1 8 22
M  V30 24 1 9 23
M  V30 25 1 11 24
M  V30 26 1 12 25
M  V30 27 1 13 26
M  V30 28 1 15 27
M  V30 29 1 17 28
M  V30 30 1 19 29
M  V30 31 1 19 30
M  V30 32 1 19 31
M  V30 END BOND
M  V30 END CTAB
M  END
>  <Structure No>
7201

>  <LogS>
-4.86

>  <MMFF94 Energy>
53.906

$$$$
Compound 7202
Actelion Java MolfileCreator 2.0

  0  0  0  0  0  0              0 V3000
M  V30 BEGIN CTAB
M  V30 COUNTS 22 23 0 0 0
M  V30 BEGIN ATOM
M  V30 1 Cl 0.3461 -2.1646 -1.7314 0
M  V30 2 C 1.3225 -1.0456 -0.7775 0
M  V30 3 C 2.7268 -1.1323 -0.8064 0
M  V30 4 C 0.7023 -0.0598 0.0179 0
M  V30 5 Cl 3.5475 -2.3439 -1.7822 0
M  V30 6 C 3.498 -0.2439 -0.0488 0
M  V30 7 C -0.7686 0.0619 0.0736 0
M  V30 8 C 1.4885 0.8234 0.7717 0
M  V30 9 C 2.8806 0.7304 0.7373 0
M  V30 10 C -1.4481 0.8934 -0.8401 0
M  V30 11 C -1.5048 -0.6523 1.0412 0
M  V30 12 Cl -0.5796 1.8071 -2.0693 0
M  V30 13 C -2.8419 1.0023 -0.7821 0
M  V30 14 Cl -0.7085 -1.7059 2.2056 0
M  V30 15 C -2.8982 -0.533 1.0866 0
M  V30 16 C -3.5642 0.2913 0.178 0
M  V30 17 H 4.5784 -0.3079 -0.0687 0
M  V30 18 H 1.0213 1.5838 1.3857 0
M  V30 19 H 3.4825 1.4148 1.3211 0
M  V30 20 H -3.3675 1.6389 -1.4825 0
M  V30 21 H -3.4673 -1.0805 1.8271 0
M  V30 22 H -4.6422 0.3793 0.2178 0
M  V30 END ATOM
M  V30 BEGIN BOND
M  V30 1 1 1 2
M  V30 2 2 2 3
M  V30 3 1 2 4
M  V30 4 1 3 5
M  V30 5 1 3 6
M  V30 6 1 4 7
M  V30 7 2 4 8
M  V30 8 2 6 9
M  V30 9 2 7 10
M  V30 10 1 7 11
M  V30 11 1 10 12
M  V30 12 1 10 13
M  V30 13 1 11 14
M  V30 14 2 11 15
M  V30 15 2 13 16
M  V30 16 1 8 9
M  V30 17 1 15 16
M  V30 18 1 6 17
M  V30 19 1 8 18
M  V30 20 1 9 19
M  V30 21 1 13 20
M  V30 22 1 15 21
M  V30 23 1 16 22
M  V30 END BOND
M  V30 END CTAB
M  END
>  <Structure No>
7202

>  <LogS>
-6.3

>  <MMFF94 Energy>
55.117

$$$$
Compound 7203
Actelion Java MolfileCreator 2.0

  0  0  0  0  0  0              0 V3000
M  V30 BEGIN CTAB
M  V30 COUNTS 34 35 0 0 0
M  V30 BEGIN ATOM
M  V30 1 O -0.6345 3.9712 -1.2694 0
M  V30 2 C -0.956 2.8724 -0.7428 0
M  V30 3 C -0.2382 1.7058 -1.0311 0
M  V30 4 C -2.0354 2.8209 0.127 0
M  V30 5 O 0.8411 1.7496 -1.9174 0
M  V30 6 C -0.6145 0.481 -0.4241 0
M  V30 7 C -2.3914 1.6098 0.7089 0
M  V30 8 N -1.6883 0.4616 0.4538 0
M  V30 9 C 0.1929 -0.7725 -0.767 0 CFG=1
M  V30 10 C -2.1729 -0.7691 1.1101 0
M  V30 11 O 0.2072 -0.9413 -2.1635 0
M  V30 12 C 1.5984 -0.6689 -0.1956 0
M  V30 13 C -3.094 -1.5548 0.1718 0
M  V30 14 C 2.7261 -0.473 -1.0197 0
M  V30 15 C 1.7846 -0.7498 1.1967 0
M  V30 16 O -3.531 -2.7317 0.794 0
M  V30 17 C 4.0029 -0.3675 -0.4599 0
M  V30 18 C 3.0636 -0.6438 1.7506 0
M  V30 19 C 4.1717 -0.4537 0.9232 0
M  V30 20 H -2.6041 3.7152 0.3512 0
M  V30 21 H 1.1397 2.6056 -2.3691 0
M  V30 22 H -3.2479 1.5998 1.3735 0
M  V30 23 H -0.2613 -1.6856 -0.3372 0
M  V30 24 H -2.7437 -0.5242 2.0342 0
M  V30 25 H -1.3341 -1.3951 1.4718 0
M  V30 26 H 0.5183 -1.8675 -2.344 0
M  V30 27 H -3.9813 -0.9322 -0.0703 0
M  V30 28 H -2.5792 -1.7926 -0.7853 0
M  V30 29 H 2.6258 -0.396 -2.0943 0
M  V30 30 H 0.9394 -0.8905 1.8565 0
M  V30 31 H -2.7705 -3.369 0.7594 0
M  V30 32 H 4.8625 -0.217 -1.1 0
M  V30 33 H 3.195 -0.7075 2.8231 0
M  V30 34 H 5.1611 -0.3709 1.354 0
M  V30 END ATOM
M  V30 BEGIN BOND
M  V30 1 2 1 2
M  V30 2 1 2 3
M  V30 3 1 2 4
M  V30 4 1 3 5
M  V30 5 2 3 6
M  V30 6 2 4 7
M  V30 7 1 6 8
M  V30 8 1 6 9
M  V30 9 1 8 10
M  V30 10 1 9 11
M  V30 11 1 9 12
M  V30 12 1 10 13
M  V30 13 2 12 14
M  V30 14 1 12 15
M  V30 15 1 13 16
M  V30 16 1 14 17
M  V30 17 2 15 18
M  V30 18 2 17 19
M  V30 19 1 7 8
M  V30 20 1 18 19
M  V30 21 1 4 20
M  V30 22 1 5 21
M  V30 23 1 7 22
M  V30 24 1 9 23
M  V30 25 1 10 24
M  V30 26 1 10 25
M  V30 27 1 11 26
M  V30 28 1 13 27
M  V30 29 1 13 28
M  V30 30 1 14 29
M  V30 31 1 15 30
M  V30 32 1 16 31
M  V30 33 1 17 32
M  V30 34 1 18 33
M  V30 35 1 19 34
M  V30 END BOND
M  V30 BEGIN COLLECTION
M  V30 MDLV30/STEABS ATOMS=(1 9)
M  V30 END COLLECTION
M  V30 END CTAB
M  END
>  <Structure No>
7203

>  <LogS>
-2.82

>  <MMFF94 Energy>
104.67

$$$$
Compound 7204
Actelion Java MolfileCreator 2.0

  0  0  0  0  0  0              0 V3000
M  V30 BEGIN CTAB
M  V30 COUNTS 23 24 0 0 0
M  V30 BEGIN ATOM
M  V30 1 Cl -3.1109 -0.2589 2.8514 0
M  V30 2 C -2.6939 -0.6776 1.1954 0
M  V30 3 C -3.4671 -1.59 0.4579 0
M  V30 4 C -1.573 -0.0797 0.607 0
M  V30 5 Cl -4.8825 -2.3627 1.1589 0
M  V30 6 C -3.1156 -1.8887 -0.8628 0
M  V30 7 C -1.2077 -0.3969 -0.7136 0
M  V30 8 C -1.996 -1.2903 -1.4465 0
M  V30 9 O -0.0993 0.193 -1.339 0
M  V30 10 C 1.0764 0.6019 -0.6927 0
M  V30 11 C 1.572 -0.0646 0.4425 0
M  V30 12 C 1.7974 1.6756 -1.2256 0
M  V30 13 C 2.7565 0.3623 1.0544 0
M  V30 14 C 2.9802 2.1045 -0.6179 0
M  V30 15 Cl 3.3369 -0.4942 2.4761 0
M  V30 16 C 3.4624 1.4552 0.5239 0
M  V30 17 Cl 4.954 2.0234 1.2615 0
M  V30 18 H -1.0006 0.6437 1.1728 0
M  V30 19 H -3.7109 -2.5849 -1.4397 0
M  V30 20 H -1.7345 -1.5279 -2.4697 0
M  V30 21 H 1.0507 -0.9253 0.8408 0
M  V30 22 H 1.4346 2.1848 -2.1094 0
M  V30 23 H 3.5227 2.9426 -1.0367 0
M  V30 END ATOM
M  V30 BEGIN BOND
M  V30 1 1 1 2
M  V30 2 2 2 3
M  V30 3 1 2 4
M  V30 4 1 3 5
M  V30 5 1 3 6
M  V30 6 2 4 7
M  V30 7 2 6 8
M  V30 8 1 7 9
M  V30 9 1 9 10
M  V30 10 2 10 11
M  V30 11 1 10 12
M  V30 12 1 11 13
M  V30 13 2 12 14
M  V30 14 1 13 15
M  V30 15 2 13 16
M  V30 16 1 16 17
M  V30 17 1 7 8
M  V30 18 1 14 16
M  V30 19 1 4 18
M  V30 20 1 6 19
M  V30 21 1 8 20
M  V30 22 1 11 21
M  V30 23 1 12 22
M  V30 24 1 14 23
M  V30 END BOND
M  V30 END CTAB
M  END
>  <Structure No>
7204

>  <LogS>
-6.98

>  <MMFF94 Energy>
48.365

$$$$
Compound 7205
Actelion Java MolfileCreator 2.0

  0  0  0  0  0  0              0 V3000
M  V30 BEGIN CTAB
M  V30 COUNTS 41 43 0 0 0
M  V30 BEGIN ATOM
M  V30 1 O -0.8819 1.5238 2.4068 0
M  V30 2 C -2.0884 1.2698 2.15 0
M  V30 3 O -2.9835 1.0588 3.1917 0 CHG=-1
M  V30 4 C -2.5552 1.1748 0.7287 0
M  V30 5 C -2.2345 -0.193 0.0636 0 CFG=2
M  V30 6 O -2.9082 -1.2393 0.79 0
M  V30 7 C -0.73 -0.4155 -0.0392 0
M  V30 8 C -2.8545 -0.2472 -1.3624 0
M  V30 9 C -2.1186 -1.972 1.7252 0
M  V30 10 N 0.1996 0.4645 -0.4832 0
M  V30 11 C -0.1366 -1.5735 0.3948 0
M  V30 12 C -2.3004 0.7395 -2.3974 0
M  V30 13 C -0.9061 -2.6446 1.0689 0
M  V30 14 C 1.3872 -0.1627 -0.3409 0
M  V30 15 C 1.2159 -1.4173 0.1988 0
M  V30 16 C 2.665 0.338 -0.6345 0
M  V30 17 C 2.2904 -2.2508 0.4961 0
M  V30 18 C 3.7706 -0.4911 -0.3386 0
M  V30 19 C 2.8707 1.7248 -1.1846 0
M  V30 20 C 3.5825 -1.7755 0.217 0
M  V30 21 C 2.8609 2.759 -0.0634 0
M  V30 22 H -2.0909 2.0101 0.1657 0
M  V30 23 H -3.654 1.3438 0.7107 0
M  V30 24 H -3.9519 -0.0815 -1.2841 0
M  V30 25 H -2.7203 -1.2741 -1.7698 0
M  V30 26 H -1.7867 -1.3203 2.5602 0
M  V30 27 H -2.7558 -2.763 2.173 0
M  V30 28 H 0.0337 1.4352 -0.8289 0
M  V30 29 H -2.3749 1.7879 -2.0473 0
M  V30 30 H -2.8966 0.6545 -3.3304 0
M  V30 31 H -1.2503 0.4952 -2.6559 0
M  V30 32 H -0.2846 -3.1438 1.8424 0
M  V30 33 H -1.2412 -3.391 0.3178 0
M  V30 34 H 2.1397 -3.2297 0.9325 0
M  V30 35 H 4.778 -0.1436 -0.5311 0
M  V30 36 H 2.0761 1.9664 -1.9225 0
M  V30 37 H 3.8417 1.7828 -1.7228 0
M  V30 38 H 4.4412 -2.3958 0.4382 0
M  V30 39 H 3.676 2.5475 0.6614 0
M  V30 40 H 3.018 3.7718 -0.4905 0
M  V30 41 H 1.8858 2.7458 0.4689 0
M  V30 END ATOM
M  V30 BEGIN BOND
M  V30 1 2 1 2
M  V30 2 1 2 3
M  V30 3 1 2 4
M  V30 4 1 4 5
M  V30 5 1 5 6
M  V30 6 1 5 7
M  V30 7 1 5 8
M  V30 8 1 6 9
M  V30 9 1 7 10
M  V30 10 2 7 11
M  V30 11 1 8 12
M  V30 12 1 9 13
M  V30 13 1 10 14
M  V30 14 1 11 15
M  V30 15 1 14 16
M  V30 16 1 15 17
M  V30 17 2 16 18
M  V30 18 1 16 19
M  V30 19 2 17 20
M  V30 20 1 19 21
M  V30 21 1 11 13
M  V30 22 2 14 15
M  V30 23 1 18 20
M  V30 24 1 4 22
M  V30 25 1 4 23
M  V30 26 1 8 24
M  V30 27 1 8 25
M  V30 28 1 9 26
M  V30 29 1 9 27
M  V30 30 1 10 28
M  V30 31 1 12 29
M  V30 32 1 12 30
M  V30 33 1 12 31
M  V30 34 1 13 32
M  V30 35 1 13 33
M  V30 36 1 17 34
M  V30 37 1 18 35
M  V30 38 1 19 36
M  V30 39 1 19 37
M  V30 40 1 20 38
M  V30 41 1 21 39
M  V30 42 1 21 40
M  V30 43 1 21 41
M  V30 END BOND
M  V30 BEGIN COLLECTION
M  V30 MDLV30/STEABS ATOMS=(1 5)
M  V30 END COLLECTION
M  V30 END CTAB
M  END
>  <Structure No>
7205

>  <LogS>
-3.31

>  <MMFF94 Energy>
35.947

$$$$
Compound 7206
Actelion Java MolfileCreator 2.0

  0  0  0  0  0  0              0 V3000
M  V30 BEGIN CTAB
M  V30 COUNTS 19 19 0 0 0
M  V30 BEGIN ATOM
M  V30 1 S 3.4996 0.1792 0.1792 0
M  V30 2 O 3.9655 0.138 -1.2487 0
M  V30 3 O 4.2404 -0.8627 0.9691 0
M  V30 4 N 3.8099 1.7483 0.8353 0
M  V30 5 C 1.781 -0.1529 0.2401 0
M  V30 6 S 0.8903 -0.3195 1.6609 0
M  V30 7 N 1.0072 -0.301 -0.8573 0
M  V30 8 C -0.5065 -0.5866 0.7626 0
M  V30 9 N -0.2694 -0.5436 -0.5667 0
M  V30 10 N -1.7909 -0.8294 1.3355 0 CHG=-1
M  V30 11 S -3.2031 -1.0849 0.3681 0
M  V30 12 O -2.9458 -2.1839 -0.6239 0
M  V30 13 O -4.3422 -1.4878 1.2611 0
M  V30 14 C -3.633 0.4171 -0.4828 0
M  V30 15 H 3.5255 1.7213 1.8402 0
M  V30 16 H 4.8451 1.8867 0.8191 0
M  V30 17 H -4.5621 0.2593 -1.0685 0
M  V30 18 H -2.811 0.706 -1.1693 0
M  V30 19 H -3.7965 1.2281 0.2565 0
M  V30 END ATOM
M  V30 BEGIN BOND
M  V30 1 2 1 2
M  V30 2 2 1 3
M  V30 3 1 1 4
M  V30 4 1 1 5
M  V30 5 1 5 6
M  V30 6 2 5 7
M  V30 7 1 6 8
M  V30 8 1 7 9
M  V30 9 1 8 10
M  V30 10 1 10 11
M  V30 11 2 11 12
M  V30 12 2 11 13
M  V30 13 1 11 14
M  V30 14 2 8 9
M  V30 15 1 4 15
M  V30 16 1 4 16
M  V30 17 1 14 17
M  V30 18 1 14 18
M  V30 19 1 14 19
M  V30 END BOND
M  V30 END CTAB
M  END
>  <Structure No>
7206

>  <LogS>
-1.68

>  <MMFF94 Energy>
-0.5873

$$$$
Compound 7207
Actelion Java MolfileCreator 2.0

  0  0  0  0  0  0              0 V3000
M  V30 BEGIN CTAB
M  V30 COUNTS 38 40 0 0 0
M  V30 BEGIN ATOM
M  V30 1 Cl 2.4473 -0.5706 3.591 0
M  V30 2 C 2.7853 -0.4432 1.87 0
M  V30 3 C 4.0696 -0.6911 1.3604 0
M  V30 4 C 1.746 -0.0927 1.001 0
M  V30 5 Cl 5.4017 -1.1349 2.419 0
M  V30 6 C 4.3012 -0.5907 -0.0144 0
M  V30 7 C 1.975 0.0226 -0.3851 0
M  V30 8 C 3.2628 -0.242 -0.8812 0
M  V30 9 C 0.8596 0.365 -1.3626 0 CFG=2
M  V30 10 C -0.1675 1.3047 -0.7713 0
M  V30 11 C 0.1893 -0.8919 -1.9312 0
M  V30 12 C -1.43 0.8402 -0.3153 0
M  V30 13 C 0.1452 2.6726 -0.6838 0
M  V30 14 C -0.69 -1.5665 -0.8836 0
M  V30 15 C -2.3832 1.7923 0.1024 0
M  V30 16 C -1.8231 -0.6418 -0.3583 0 CFG=1
M  V30 17 C -0.7945 3.5864 -0.2097 0
M  V30 18 C -2.0619 3.1491 0.167 0
M  V30 19 N -2.2818 -1.0998 0.9773 0 CHG=1
M  V30 20 C -2.8849 -2.4386 0.9382 0
M  V30 21 H 0.7616 0.0852 1.4123 0
M  V30 22 H 5.2876 -0.7871 -0.4149 0
M  V30 23 H 3.4633 -0.1806 -1.9437 0
M  V30 24 H 1.3175 0.8886 -2.2326 0
M  V30 25 H -0.4377 -0.614 -2.8075 0
M  V30 26 H 0.9617 -1.6086 -2.287 0
M  V30 27 H 1.1164 3.033 -1.0005 0
M  V30 28 H -1.1422 -2.4722 -1.343 0
M  V30 29 H -0.0494 -1.9167 -0.0463 0
M  V30 30 H -3.3875 1.4923 0.3705 0
M  V30 31 H -2.6692 -0.7122 -1.08 0
M  V30 32 H -0.547 4.6388 -0.1554 0
M  V30 33 H -2.8009 3.8642 0.5052 0
M  V30 34 H -1.4809 -1.1047 1.6517 0
M  V30 35 H -3.0118 -0.4558 1.3565 0
M  V30 36 H -3.3476 -2.6693 1.9224 0
M  V30 37 H -2.1161 -3.2157 0.7413 0
M  V30 38 H -3.6793 -2.4928 0.1622 0
M  V30 END ATOM
M  V30 BEGIN BOND
M  V30 1 1 1 2
M  V30 2 2 2 3
M  V30 3 1 2 4
M  V30 4 1 3 5
M  V30 5 1 3 6
M  V30 6 2 4 7
M  V30 7 2 6 8
M  V30 8 1 7 9
M  V30 9 1 9 10
M  V30 10 1 9 11
M  V30 11 2 10 12
M  V30 12 1 10 13
M  V30 13 1 11 14
M  V30 14 1 12 15
M  V30 15 1 12 16
M  V30 16 2 13 17
M  V30 17 2 15 18
M  V30 18 1 16 19
M  V30 19 1 19 20
M  V30 20 1 7 8
M  V30 21 1 14 16
M  V30 22 1 17 18
M  V30 23 1 4 21
M  V30 24 1 6 22
M  V30 25 1 8 23
M  V30 26 1 9 24
M  V30 27 1 11 25
M  V30 28 1 11 26
M  V30 29 1 13 27
M  V30 30 1 14 28
M  V30 31 1 14 29
M  V30 32 1 15 30
M  V30 33 1 16 31
M  V30 34 1 17 32
M  V30 35 1 18 33
M  V30 36 1 19 34
M  V30 37 1 19 35
M  V30 38 1 20 36
M  V30 39 1 20 37
M  V30 40 1 20 38
M  V30 END BOND
M  V30 BEGIN COLLECTION
M  V30 MDLV30/STEABS ATOMS=(2 9 16)
M  V30 END COLLECTION
M  V30 END CTAB
M  END
>  <Structure No>
7207

>  <LogS>
-5.23

>  <MMFF94 Energy>
62.252

$$$$
Compound 7208
Actelion Java MolfileCreator 2.0

  0  0  0  0  0  0              0 V3000
M  V30 BEGIN CTAB
M  V30 COUNTS 30 31 0 0 0
M  V30 BEGIN ATOM
M  V30 1 N 6.6544 1.2147 3.4042 0
M  V30 2 C 5.8018 1.0279 2.643 0
M  V30 3 C 4.7611 0.8118 1.6841 0
M  V30 4 N 4.2007 1.8557 1.1248 0
M  V30 5 C 4.3276 -0.5525 1.447 0
M  V30 6 N 3.0955 1.8291 0.2359 0 CHG=-1
M  V30 7 N 3.9991 -1.6547 1.2783 0
M  V30 8 C 2.008 0.8801 0.3231 0
M  V30 9 C 1.5453 0.2364 -0.8316 0
M  V30 10 C 1.4697 0.5229 1.572 0
M  V30 11 C 0.506 -0.7157 -0.7543 0
M  V30 12 C 0.4779 -0.4679 1.6577 0
M  V30 13 C 0.0142 -1.1246 0.5006 0
M  V30 14 N -0.9558 -2.1838 0.6296 0
M  V30 15 N -2.1156 -2.2125 0.0728 0
M  V30 16 C -2.7131 -1.164 -0.7021 0
M  V30 17 C -3.5094 -1.5068 -1.8 0
M  V30 18 C -2.6629 0.1849 -0.2954 0
M  V30 19 C -4.201 -0.5262 -2.521 0
M  V30 20 C -3.3558 1.1663 -1.0174 0
M  V30 21 C -4.1246 0.8143 -2.133 0
M  V30 22 H 1.9424 0.5301 -1.7975 0
M  V30 23 H 1.7547 1.0718 2.4703 0
M  V30 24 H 0.1569 -1.2029 -1.6526 0
M  V30 25 H 0.066 -0.7396 2.6246 0
M  V30 26 H -3.6047 -2.5489 -2.0904 0
M  V30 27 H -2.1267 0.4783 0.5991 0
M  V30 28 H -4.8067 -0.812 -3.3742 0
M  V30 29 H -3.3163 2.2061 -0.7091 0
M  V30 30 H -4.6583 1.5684 -2.6942 0
M  V30 END ATOM
M  V30 BEGIN BOND
M  V30 1 3 1 2
M  V30 2 1 2 3
M  V30 3 2 3 4
M  V30 4 1 3 5
M  V30 5 1 4 6
M  V30 6 3 5 7
M  V30 7 1 6 8
M  V30 8 2 8 9
M  V30 9 1 8 10
M  V30 10 1 9 11
M  V30 11 2 10 12
M  V30 12 2 11 13
M  V30 13 1 13 14
M  V30 14 2 14 15
M  V30 15 1 15 16
M  V30 16 2 16 17
M  V30 17 1 16 18
M  V30 18 1 17 19
M  V30 19 2 18 20
M  V30 20 2 19 21
M  V30 21 1 12 13
M  V30 22 1 20 21
M  V30 23 1 9 22
M  V30 24 1 10 23
M  V30 25 1 11 24
M  V30 26 1 12 25
M  V30 27 1 17 26
M  V30 28 1 18 27
M  V30 29 1 19 28
M  V30 30 1 20 29
M  V30 31 1 21 30
M  V30 END BOND
M  V30 END CTAB
M  END
>  <Structure No>
7208

>  <LogS>
-4.92

>  <MMFF94 Energy>
90.483

$$$$
Compound 7209
Actelion Java MolfileCreator 2.0

  0  0  0  0  0  0              0 V3000
M  V30 BEGIN CTAB
M  V30 COUNTS 23 24 0 0 0
M  V30 BEGIN ATOM
M  V30 1 Cl 4.8428 2.5923 -0.6908 0
M  V30 2 C 3.4845 1.5209 -0.3493 0
M  V30 3 C 2.1921 2.0487 -0.1782 0
M  V30 4 C 3.6873 0.1337 -0.2388 0
M  V30 5 Cl 1.8898 3.7782 -0.2869 0
M  V30 6 C 1.1177 1.1944 0.0917 0
M  V30 7 Cl 5.2859 -0.574 -0.4324 0
M  V30 8 C 2.6059 -0.7117 0.0312 0
M  V30 9 C 1.3163 -0.1933 0.1807 0
M  V30 10 O 0.264 -1.0767 0.464 0
M  V30 11 C -1.0738 -0.8965 0.0827 0
M  V30 12 C -1.4267 -0.227 -1.1038 0
M  V30 13 C -2.0819 -1.4428 0.8867 0
M  V30 14 C -2.7719 -0.0823 -1.4569 0
M  V30 15 C -3.4267 -1.2971 0.5324 0
M  V30 16 C -3.7732 -0.6135 -0.6375 0
M  V30 17 Cl -5.4602 -0.4327 -1.0824 0
M  V30 18 H 0.1334 1.6155 0.2505 0
M  V30 19 H 2.7652 -1.7794 0.1173 0
M  V30 20 H -0.6645 0.1652 -1.7639 0
M  V30 21 H -1.8216 -1.9752 1.7927 0
M  V30 22 H -3.0341 0.4361 -2.3703 0
M  V30 23 H -4.1974 -1.7169 1.1664 0
M  V30 END ATOM
M  V30 BEGIN BOND
M  V30 1 1 1 2
M  V30 2 2 2 3
M  V30 3 1 2 4
M  V30 4 1 3 5
M  V30 5 1 3 6
M  V30 6 1 4 7
M  V30 7 2 4 8
M  V30 8 2 6 9
M  V30 9 1 9 10
M  V30 10 1 10 11
M  V30 11 2 11 12
M  V30 12 1 11 13
M  V30 13 1 12 14
M  V30 14 2 13 15
M  V30 15 2 14 16
M  V30 16 1 16 17
M  V30 17 1 8 9
M  V30 18 1 15 16
M  V30 19 1 6 18
M  V30 20 1 8 19
M  V30 21 1 12 20
M  V30 22 1 13 21
M  V30 23 1 14 22
M  V30 24 1 15 23
M  V30 END BOND
M  V30 END CTAB
M  END
>  <Structure No>
7209

>  <LogS>
-7.35

>  <MMFF94 Energy>
41.6

$$$$
Compound 7210
Actelion Java MolfileCreator 2.0

  0  0  0  0  0  0              0 V3000
M  V30 BEGIN CTAB
M  V30 COUNTS 23 24 0 0 0
M  V30 BEGIN ATOM
M  V30 1 Cl 3.1098 0.8631 2.5911 0
M  V30 2 C 2.7491 -0.0057 1.1055 0
M  V30 3 C 3.6384 -0.9617 0.5866 0
M  V30 4 C 1.5546 0.2726 0.4305 0
M  V30 5 Cl 5.1491 -1.3408 1.4027 0
M  V30 6 C 3.3273 -1.6235 -0.606 0
M  V30 7 C 1.2322 -0.4084 -0.757 0
M  V30 8 C 2.1338 -1.3431 -1.2767 0
M  V30 9 O 0.0511 -0.145 -1.4664 0
M  V30 10 C -1.168 0.2513 -0.8969 0
M  V30 11 C -1.563 -0.1722 0.3856 0
M  V30 12 C -2.0331 1.0534 -1.651 0
M  V30 13 C -2.7937 0.2336 0.9135 0
M  V30 14 C -3.264 1.4585 -1.1229 0
M  V30 15 Cl -3.277 -0.2923 2.5156 0
M  V30 16 C -3.6421 1.0518 0.1606 0
M  V30 17 Cl -4.3337 2.475 -2.0714 0
M  V30 18 H 0.8896 1.0316 0.822 0
M  V30 19 H 4.011 -2.3558 -1.016 0
M  V30 20 H 1.9042 -1.8602 -2.1996 0
M  V30 21 H -0.928 -0.8289 0.9658 0
M  V30 22 H -1.7429 1.368 -2.6455 0
M  V30 23 H -4.5949 1.3647 0.569 0
M  V30 END ATOM
M  V30 BEGIN BOND
M  V30 1 1 1 2
M  V30 2 2 2 3
M  V30 3 1 2 4
M  V30 4 1 3 5
M  V30 5 1 3 6
M  V30 6 2 4 7
M  V30 7 2 6 8
M  V30 8 1 7 9
M  V30 9 1 9 10
M  V30 10 2 10 11
M  V30 11 1 10 12
M  V30 12 1 11 13
M  V30 13 2 12 14
M  V30 14 1 13 15
M  V30 15 2 13 16
M  V30 16 1 14 17
M  V30 17 1 7 8
M  V30 18 1 14 16
M  V30 19 1 4 18
M  V30 20 1 6 19
M  V30 21 1 8 20
M  V30 22 1 11 21
M  V30 23 1 12 22
M  V30 24 1 16 23
M  V30 END BOND
M  V30 END CTAB
M  END
>  <Structure No>
7210

>  <LogS>
-7.32

>  <MMFF94 Energy>
26.96

$$$$
Compound 7211
Actelion Java MolfileCreator 2.0

  0  0  0  0  0  0              0 V3000
M  V30 BEGIN CTAB
M  V30 COUNTS 35 36 0 0 0
M  V30 BEGIN ATOM
M  V30 1 O -5.3236 0.5551 0.1585 0
M  V30 2 C -4.0669 0.4257 0.192 0
M  V30 3 N -3.4967 -0.5383 1.0053 0
M  V30 4 N -3.2808 1.2391 -0.593 0
M  V30 5 C -2.1348 -0.7389 0.9952 0
M  V30 6 C -4.3592 -1.4158 1.815 0
M  V30 7 C -1.9353 1.0381 -0.5755 0
M  V30 8 C -3.8786 2.2372 -1.4902 0
M  V30 9 O -1.6157 -1.6759 1.6596 0
M  V30 10 C -1.3481 0.0983 0.2054 0
M  V30 11 N -1.0203 1.6787 -1.3271 0
M  V30 12 N -0.0172 0.1171 -0.0212 0
M  V30 13 C 0.1428 1.0859 -0.9596 0
M  V30 14 C 1.0346 -0.6462 0.5987 0
M  V30 15 O 0.9149 -1.0425 1.7886 0
M  V30 16 C 2.3236 -0.9151 -0.1244 0
M  V30 17 C 3.4053 0.0852 0.3066 0
M  V30 18 C 4.6904 -0.0418 -0.525 0
M  V30 19 C 5.4549 -1.3335 -0.2373 0
M  V30 20 H -4.6718 -2.2922 1.2094 0
M  V30 21 H -5.2629 -0.8745 2.1685 0
M  V30 22 H -3.8324 -1.7712 2.7264 0
M  V30 23 H -4.7584 2.7186 -1.0118 0
M  V30 24 H -3.1576 3.0477 -1.73 0
M  V30 25 H -4.198 1.7458 -2.4331 0
M  V30 26 H 1.1006 1.3775 -1.3698 0
M  V30 27 H 2.1582 -0.856 -1.2216 0
M  V30 28 H 2.6504 -1.9499 0.1115 0
M  V30 29 H 3.6399 -0.0538 1.3851 0
M  V30 30 H 3.0168 1.1193 0.1805 0
M  V30 31 H 5.3528 0.8167 -0.2808 0
M  V30 32 H 4.4514 0.0163 -1.6092 0
M  V30 33 H 6.4251 -1.3155 -0.7769 0
M  V30 34 H 5.6576 -1.4313 0.8503 0
M  V30 35 H 4.8811 -2.2161 -0.5881 0
M  V30 END ATOM
M  V30 BEGIN BOND
M  V30 1 2 1 2
M  V30 2 1 2 3
M  V30 3 1 2 4
M  V30 4 1 3 5
M  V30 5 1 3 6
M  V30 6 1 4 7
M  V30 7 1 4 8
M  V30 8 2 5 9
M  V30 9 1 5 10
M  V30 10 1 7 11
M  V30 11 1 10 12
M  V30 12 2 11 13
M  V30 13 1 12 14
M  V30 14 2 14 15
M  V30 15 1 14 16
M  V30 16 1 16 17
M  V30 17 1 17 18
M  V30 18 1 18 19
M  V30 19 2 7 10
M  V30 20 1 12 13
M  V30 21 1 6 20
M  V30 22 1 6 21
M  V30 23 1 6 22
M  V30 24 1 8 23
M  V30 25 1 8 24
M  V30 26 1 8 25
M  V30 27 1 13 26
M  V30 28 1 16 27
M  V30 29 1 16 28
M  V30 30 1 17 29
M  V30 31 1 17 30
M  V30 32 1 18 31
M  V30 33 1 18 32
M  V30 34 1 19 33
M  V30 35 1 19 34
M  V30 36 1 19 35
M  V30 END BOND
M  V30 END CTAB
M  END
>  <Structure No>
7211

>  <LogS>
-2.12

>  <MMFF94 Energy>
-115.6

$$$$
Compound 7212
Actelion Java MolfileCreator 2.0

  0  0  0  0  0  0              0 V3000
M  V30 BEGIN CTAB
M  V30 COUNTS 38 39 0 0 0
M  V30 BEGIN ATOM
M  V30 1 O 1.6687 -1.9073 -0.0794 0
M  V30 2 C 0.9331 -1.2956 -0.9027 0
M  V30 3 O 1.481 -0.7112 -2.0502 0
M  V30 4 C -0.5423 -1.1576 -0.6397 0 CFG=1
M  V30 5 C 2.8795 -0.6931 -2.3266 0
M  V30 6 N -1.1577 -2.4667 -0.4028 0
M  V30 7 C -0.7831 -0.2182 0.5547 0
M  V30 8 C 3.5845 0.2516 -1.3916 0
M  V30 9 C -2.2524 0.0557 0.75 0
M  V30 10 C 4.4777 -0.233 -0.4213 0
M  V30 11 C 3.3276 1.6304 -1.4643 0
M  V30 12 C -3.0056 -0.7138 1.6512 0
M  V30 13 C -2.8905 1.0531 -0.0032 0
M  V30 14 C 5.1098 0.6524 0.4576 0
M  V30 15 C 3.9616 2.5124 -0.5834 0
M  V30 16 C -4.3792 -0.4784 1.8118 0
M  V30 17 C -4.2584 1.2898 0.1557 0
M  V30 18 C 4.8525 2.0239 0.3763 0
M  V30 19 O -5.1203 -1.243 2.7118 0
M  V30 20 C -5.0071 0.5301 1.0607 0
M  V30 21 O -6.3705 0.7891 1.1983 0
M  V30 22 H -1.0138 -0.7065 -1.5415 0
M  V30 23 H 3.2928 -1.7234 -2.2583 0
M  V30 24 H 3.0308 -0.3454 -3.3703 0
M  V30 25 H -0.9948 -3.0709 -1.2413 0
M  V30 26 H -0.6963 -2.9304 0.414 0
M  V30 27 H -0.3502 -0.6596 1.4798 0
M  V30 28 H -0.2543 0.7455 0.3805 0
M  V30 29 H 4.6823 -1.2934 -0.3424 0
M  V30 30 H 2.6349 2.0198 -2.2003 0
M  V30 31 H -2.5267 -1.4969 2.2262 0
M  V30 32 H -2.3282 1.6458 -0.7143 0
M  V30 33 H 5.7975 0.275 1.2033 0
M  V30 34 H 3.7606 3.5743 -0.6435 0
M  V30 35 H -4.7394 2.0644 -0.4281 0
M  V30 36 H 5.3418 2.7076 1.0581 0
M  V30 37 H -4.6915 -1.9763 3.2643 0
M  V30 38 H -6.9555 0.2667 1.8393 0
M  V30 END ATOM
M  V30 BEGIN BOND
M  V30 1 2 1 2
M  V30 2 1 2 3
M  V30 3 1 2 4
M  V30 4 1 3 5
M  V30 5 1 4 6
M  V30 6 1 4 7
M  V30 7 1 5 8
M  V30 8 1 7 9
M  V30 9 2 8 10
M  V30 10 1 8 11
M  V30 11 2 9 12
M  V30 12 1 9 13
M  V30 13 1 10 14
M  V30 14 2 11 15
M  V30 15 1 12 16
M  V30 16 2 13 17
M  V30 17 2 14 18
M  V30 18 1 16 19
M  V30 19 2 16 20
M  V30 20 1 20 21
M  V30 21 1 15 18
M  V30 22 1 17 20
M  V30 23 1 4 22
M  V30 24 1 5 23
M  V30 25 1 5 24
M  V30 26 1 6 25
M  V30 27 1 6 26
M  V30 28 1 7 27
M  V30 29 1 7 28
M  V30 30 1 10 29
M  V30 31 1 11 30
M  V30 32 1 12 31
M  V30 33 1 13 32
M  V30 34 1 14 33
M  V30 35 1 15 34
M  V30 36 1 17 35
M  V30 37 1 18 36
M  V30 38 1 19 37
M  V30 39 1 21 38
M  V30 END BOND
M  V30 BEGIN COLLECTION
M  V30 MDLV30/STEABS ATOMS=(1 4)
M  V30 END COLLECTION
M  V30 END CTAB
M  END
>  <Structure No>
7212

>  <LogS>
-1.81

>  <MMFF94 Energy>
70.985

$$$$
Compound 7213
Actelion Java MolfileCreator 2.0

  0  0  0  0  0  0              0 V3000
M  V30 BEGIN CTAB
M  V30 COUNTS 23 24 0 0 0
M  V30 BEGIN ATOM
M  V30 1 Cl -4.8411 -0.7769 -1.8998 0
M  V30 2 C -3.5189 -0.1618 -0.9175 0
M  V30 3 C -3.634 1.0515 -0.2181 0
M  V30 4 C -2.3339 -0.9026 -0.8349 0
M  V30 5 Cl -5.1048 2.0123 -0.2931 0
M  V30 6 C -2.5656 1.5069 0.5619 0
M  V30 7 C -1.256 -0.4397 -0.0718 0
M  V30 8 C -1.3846 0.765 0.6414 0
M  V30 9 O -0.0934 -1.2213 -0.0051 0
M  V30 10 C 1.2077 -0.7305 0.1843 0
M  V30 11 C 2.1487 -1.5292 0.8532 0
M  V30 12 C 1.604 0.5209 -0.3225 0
M  V30 13 Cl 1.695 -3.108 1.476 0
M  V30 14 C 3.4571 -1.0681 1.0405 0
M  V30 15 C 2.9115 0.9769 -0.1335 0
M  V30 16 C 3.8376 0.1851 0.551 0
M  V30 17 Cl 5.4786 0.7583 0.786 0
M  V30 18 H -2.2455 -1.8388 -1.3715 0
M  V30 19 H -2.6521 2.4344 1.1139 0
M  V30 20 H -0.5815 1.1209 1.2733 0
M  V30 21 H 0.909 1.1352 -0.8796 0
M  V30 22 H 4.1772 -1.6839 1.5645 0
M  V30 23 H 3.205 1.9423 -0.5256 0
M  V30 END ATOM
M  V30 BEGIN BOND
M  V30 1 1 1 2
M  V30 2 2 2 3
M  V30 3 1 2 4
M  V30 4 1 3 5
M  V30 5 1 3 6
M  V30 6 2 4 7
M  V30 7 2 6 8
M  V30 8 1 7 9
M  V30 9 1 9 10
M  V30 10 2 10 11
M  V30 11 1 10 12
M  V30 12 1 11 13
M  V30 13 1 11 14
M  V30 14 2 12 15
M  V30 15 2 14 16
M  V30 16 1 16 17
M  V30 17 1 7 8
M  V30 18 1 15 16
M  V30 19 1 4 18
M  V30 20 1 6 19
M  V30 21 1 8 20
M  V30 22 1 12 21
M  V30 23 1 14 22
M  V30 24 1 15 23
M  V30 END BOND
M  V30 END CTAB
M  END
>  <Structure No>
7213

>  <LogS>
-7.0

>  <MMFF94 Energy>
44.693

$$$$
Compound 7214
Actelion Java MolfileCreator 2.0

  0  0  0  0  0  0              0 V3000
M  V30 BEGIN CTAB
M  V30 COUNTS 23 24 0 0 0
M  V30 BEGIN ATOM
M  V30 1 Cl 5.3608 0.0863 0.9496 0
M  V30 2 C 3.7483 -0.1072 0.2753 0
M  V30 3 C 3.3979 0.4755 -0.9534 0
M  V30 4 C 2.807 -0.8678 0.9772 0
M  V30 5 Cl 4.5545 1.4277 -1.874 0
M  V30 6 C 2.1064 0.3009 -1.4622 0
M  V30 7 C 1.5149 -1.0425 0.4695 0
M  V30 8 C 1.1548 -0.4377 -0.7507 0
M  V30 9 Cl 0.3947 -2.077 1.3457 0
M  V30 10 O -0.1281 -0.5813 -1.2931 0
M  V30 11 C -1.3122 -0.1887 -0.651 0
M  V30 12 C -1.3126 0.6999 0.4416 0
M  V30 13 C -2.5314 -0.6793 -1.1344 0
M  V30 14 C -2.5172 1.0696 1.0475 0
M  V30 15 C -3.7349 -0.3083 -0.5271 0
M  V30 16 C -3.729 0.5643 0.5655 0
M  V30 17 Cl -5.2393 1.0294 1.3266 0
M  V30 18 H 3.0838 -1.3336 1.9147 0
M  V30 19 H 1.8342 0.7521 -2.4082 0
M  V30 20 H -0.3871 1.113 0.8202 0
M  V30 21 H -2.5447 -1.3549 -1.98 0
M  V30 22 H -2.5078 1.751 1.8886 0
M  V30 23 H -4.6704 -0.6989 -0.9068 0
M  V30 END ATOM
M  V30 BEGIN BOND
M  V30 1 1 1 2
M  V30 2 2 2 3
M  V30 3 1 2 4
M  V30 4 1 3 5
M  V30 5 1 3 6
M  V30 6 2 4 7
M  V30 7 2 6 8
M  V30 8 1 7 9
M  V30 9 1 8 10
M  V30 10 1 10 11
M  V30 11 2 11 12
M  V30 12 1 11 13
M  V30 13 1 12 14
M  V30 14 2 13 15
M  V30 15 2 14 16
M  V30 16 1 16 17
M  V30 17 1 7 8
M  V30 18 1 15 16
M  V30 19 1 4 18
M  V30 20 1 6 19
M  V30 21 1 12 20
M  V30 22 1 13 21
M  V30 23 1 14 22
M  V30 24 1 15 23
M  V30 END BOND
M  V30 END CTAB
M  END
>  <Structure No>
7214

>  <LogS>
-7.04

>  <MMFF94 Energy>
44.118

$$$$
Compound 7215
Actelion Java MolfileCreator 2.0

  0  0  0  0  0  0              0 V3000
M  V30 BEGIN CTAB
M  V30 COUNTS 22 23 0 0 0
M  V30 BEGIN ATOM
M  V30 1 Cl 1.3387 -2.9302 -1.0876 0
M  V30 2 C 0.9882 -1.3222 -0.4337 0
M  V30 3 C 2.0512 -0.502 6.0E-4 0
M  V30 4 C -0.341 -0.835 -0.3938 0
M  V30 5 N 3.4085 -0.9794 0.0137 0 CHG=1
M  V30 6 C 1.7857 0.8084 0.4181 0
M  V30 7 C -0.5969 0.4907 0.059 0
M  V30 8 C -1.4282 -1.6448 -0.7881 0
M  V30 9 O 4.3527 -0.1905 -0.199 0
M  V30 10 O 3.696 -2.2534 0.4459 0 CHG=-1
M  V30 11 C 0.4836 1.3214 0.4362 0
M  V30 12 C -1.9319 0.9389 0.1511 0
M  V30 13 C -2.7365 -1.1674 -0.7141 0
M  V30 14 N 0.2849 2.6926 0.8181 0 CHG=1
M  V30 15 C -2.988 0.116 -0.2387 0
M  V30 16 O 0.9404 3.1785 1.763 0
M  V30 17 O -0.421 3.5392 -0.0053 0 CHG=-1
M  V30 18 H 2.6066 1.4442 0.7266 0
M  V30 19 H -1.284 -2.655 -1.1454 0
M  V30 20 H -2.176 1.9158 0.5436 0
M  V30 21 H -3.5608 -1.8015 -1.0147 0
M  V30 22 H -4.0071 0.4736 -0.1658 0
M  V30 END ATOM
M  V30 BEGIN BOND
M  V30 1 1 1 2
M  V30 2 2 2 3
M  V30 3 1 2 4
M  V30 4 1 3 5
M  V30 5 1 3 6
M  V30 6 1 4 7
M  V30 7 2 4 8
M  V30 8 2 5 9
M  V30 9 1 5 10
M  V30 10 2 6 11
M  V30 11 2 7 12
M  V30 12 1 8 13
M  V30 13 1 11 14
M  V30 14 1 12 15
M  V30 15 2 14 16
M  V30 16 1 14 17
M  V30 17 1 7 11
M  V30 18 2 13 15
M  V30 19 1 6 18
M  V30 20 1 8 19
M  V30 21 1 12 20
M  V30 22 1 13 21
M  V30 23 1 15 22
M  V30 END BOND
M  V30 END CTAB
M  END
>  <Structure No>
7215

>  <LogS>
-5.4

>  <MMFF94 Energy>
75.682

$$$$
Compound 7216
Actelion Java MolfileCreator 2.0

  0  0  0  0  0  0              0 V3000
M  V30 BEGIN CTAB
M  V30 COUNTS 38 39 0 0 0
M  V30 BEGIN ATOM
M  V30 1 O -5.3261 -1.773 0.725 0
M  V30 2 N -4.5833 -0.8135 1.0186 0 CHG=1
M  V30 3 O -5.0997 0.2218 1.7611 0 CHG=-1
M  V30 4 C -3.1681 -0.903 0.7932 0
M  V30 5 C -2.4094 0.2289 0.4373 0
M  V30 6 C -2.5216 -2.1396 0.9443 0
M  V30 7 N -3.0253 1.4899 0.1707 0
M  V30 8 C -1.0285 0.111 0.2539 0
M  V30 9 C -1.1322 -2.2621 0.7766 0
M  V30 10 C -2.9294 2.9163 -0.2602 0
M  V30 11 C -4.1826 2.4255 0.0335 0
M  V30 12 C -0.3763 -1.1219 0.4123 0
M  V30 13 N -0.5043 -3.5302 1.0336 0 CHG=1
M  V30 14 C 1.0689 -1.2031 0.1023 0
M  V30 15 O -1.116 -4.5927 0.7973 0
M  V30 16 O 0.6829 -3.5882 1.7266 0 CHG=-1
M  V30 17 O 1.5172 -2.1974 -0.5311 0
M  V30 18 N 1.9555 -0.1435 0.4934 0
M  V30 19 C 3.3507 -0.0844 0.0595 0
M  V30 20 C 3.4541 0.3046 -1.4285 0
M  V30 21 C 2.8702 1.7018 -1.6797 0
M  V30 22 C 4.9148 0.2501 -1.8904 0
M  V30 23 H -3.0998 -3.0064 1.2403 0
M  V30 24 H -0.4686 0.9841 -0.0607 0
M  V30 25 H -2.6613 2.9922 -1.3349 0
M  V30 26 H -2.4374 3.5368 0.5183 0
M  V30 27 H -4.5997 2.7121 1.0218 0
M  V30 28 H -4.825 2.1489 -0.8286 0
M  V30 29 H 1.6138 0.5882 1.1567 0
M  V30 30 H 3.8942 0.6638 0.6777 0
M  V30 31 H 3.8311 -1.0718 0.235 0
M  V30 32 H 2.879 -0.4277 -2.0361 0
M  V30 33 H 1.7924 1.7252 -1.4129 0
M  V30 34 H 3.4067 2.4658 -1.0766 0
M  V30 35 H 2.9595 1.9666 -2.7548 0
M  V30 36 H 5.3243 -0.7723 -1.7458 0
M  V30 37 H 4.9851 0.4988 -2.9709 0
M  V30 38 H 5.5356 0.9703 -1.3151 0
M  V30 END ATOM
M  V30 BEGIN BOND
M  V30 1 2 1 2
M  V30 2 1 2 3
M  V30 3 1 2 4
M  V30 4 2 4 5
M  V30 5 1 4 6
M  V30 6 1 5 7
M  V30 7 1 5 8
M  V30 8 2 6 9
M  V30 9 1 7 10
M  V30 10 1 7 11
M  V30 11 2 8 12
M  V30 12 1 9 13
M  V30 13 1 12 14
M  V30 14 2 13 15
M  V30 15 1 13 16
M  V30 16 2 14 17
M  V30 17 1 14 18
M  V30 18 1 18 19
M  V30 19 1 19 20
M  V30 20 1 20 21
M  V30 21 1 20 22
M  V30 22 1 9 12
M  V30 23 1 10 11
M  V30 24 1 6 23
M  V30 25 1 8 24
M  V30 26 1 10 25
M  V30 27 1 10 26
M  V30 28 1 11 27
M  V30 29 1 11 28
M  V30 30 1 18 29
M  V30 31 1 19 30
M  V30 32 1 19 31
M  V30 33 1 20 32
M  V30 34 1 21 33
M  V30 35 1 21 34
M  V30 36 1 21 35
M  V30 37 1 22 36
M  V30 38 1 22 37
M  V30 39 1 22 38
M  V30 END BOND
M  V30 END CTAB
M  END
>  <Structure No>
7216

>  <LogS>
-3.85

>  <MMFF94 Energy>
56.941

$$$$
Compound 7217
Actelion Java MolfileCreator 2.0

  0  0  0  0  0  0              0 V3000
M  V30 BEGIN CTAB
M  V30 COUNTS 23 24 0 0 0
M  V30 BEGIN ATOM
M  V30 1 Cl 2.072 -1.1219 2.9362 0
M  V30 2 C 2.3121 -0.6266 1.2679 0
M  V30 3 C 1.2769 -6.0E-4 0.5552 0
M  V30 4 C 3.5437 -0.8726 0.65 0
M  V30 5 O 0.0562 0.2492 1.2011 0
M  V30 6 C 1.5037 0.4044 -0.7733 0
M  V30 7 C 3.7544 -0.4847 -0.6766 0
M  V30 8 C -1.2012 0.28 0.5804 0
M  V30 9 C 2.7351 0.157 -1.3858 0
M  V30 10 Cl 5.2999 -0.7931 -1.4468 0
M  V30 11 C -2.1998 1.0965 1.125 0
M  V30 12 C -1.4983 -0.5187 -0.5392 0
M  V30 13 C -3.4715 1.1439 0.543 0
M  V30 14 C -2.7699 -0.4709 -1.121 0
M  V30 15 Cl -4.7107 2.1807 1.2258 0
M  V30 16 C -3.7547 0.363 -0.582 0
M  V30 17 Cl -3.132 -1.4648 -2.5201 0
M  V30 18 H 4.3362 -1.3632 1.2009 0
M  V30 19 H 0.7364 0.9278 -1.3287 0
M  V30 20 H 2.898 0.4708 -2.4089 0
M  V30 21 H -1.9829 1.7003 1.9975 0
M  V30 22 H -0.7535 -1.1895 -0.947 0
M  V30 23 H -4.7391 0.3991 -1.0318 0
M  V30 END ATOM
M  V30 BEGIN BOND
M  V30 1 1 1 2
M  V30 2 2 2 3
M  V30 3 1 2 4
M  V30 4 1 3 5
M  V30 5 1 3 6
M  V30 6 2 4 7
M  V30 7 1 5 8
M  V30 8 2 6 9
M  V30 9 1 7 10
M  V30 10 2 8 11
M  V30 11 1 8 12
M  V30 12 1 11 13
M  V30 13 2 12 14
M  V30 14 1 13 15
M  V30 15 2 13 16
M  V30 16 1 14 17
M  V30 17 1 7 9
M  V30 18 1 14 16
M  V30 19 1 4 18
M  V30 20 1 6 19
M  V30 21 1 9 20
M  V30 22 1 11 21
M  V30 23 1 12 22
M  V30 24 1 16 23
M  V30 END BOND
M  V30 END CTAB
M  END
>  <Structure No>
7217

>  <LogS>
-7.14

>  <MMFF94 Energy>
23.618

$$$$
Compound 7218
Actelion Java MolfileCreator 2.0

  0  0  0  0  0  0              0 V3000
M  V30 BEGIN CTAB
M  V30 COUNTS 23 24 0 0 0
M  V30 BEGIN ATOM
M  V30 1 Cl 5.1009 -0.0863 -1.3814 0
M  V30 2 C 3.6286 -0.0114 -0.4232 0
M  V30 3 C 3.6302 0.5287 0.874 0
M  V30 4 C 2.4375 -0.5031 -0.9705 0
M  V30 5 Cl 5.1037 1.156 1.5995 0
M  V30 6 C 2.4424 0.5641 1.6123 0
M  V30 7 C 1.2436 -0.4504 -0.2422 0
M  V30 8 C 1.2557 0.0726 1.0626 0
M  V30 9 O 0.0768 -0.9678 -0.8236 0
M  V30 10 C -1.229 -0.5262 -0.5594 0
M  V30 11 C -2.2905 -1.4409 -0.6465 0
M  V30 12 C -1.504 0.8207 -0.2572 0
M  V30 13 Cl -1.986 -3.1238 -1.0475 0
M  V30 14 C -3.603 -1.0205 -0.4022 0
M  V30 15 C -2.8175 1.2358 -0.0136 0
M  V30 16 C -3.8656 0.3137 -0.0827 0
M  V30 17 Cl -3.1503 2.9151 0.3682 0
M  V30 18 H 2.4359 -0.9215 -1.9692 0
M  V30 19 H 2.4387 0.9669 2.6173 0
M  V30 20 H 0.3545 0.0834 1.6614 0
M  V30 21 H -0.7046 1.5496 -0.2295 0
M  V30 22 H -4.4206 -1.7275 -0.4608 0
M  V30 23 H -4.8837 0.6309 0.104 0
M  V30 END ATOM
M  V30 BEGIN BOND
M  V30 1 1 1 2
M  V30 2 2 2 3
M  V30 3 1 2 4
M  V30 4 1 3 5
M  V30 5 1 3 6
M  V30 6 2 4 7
M  V30 7 2 6 8
M  V30 8 1 7 9
M  V30 9 1 9 10
M  V30 10 2 10 11
M  V30 11 1 10 12
M  V30 12 1 11 13
M  V30 13 1 11 14
M  V30 14 2 12 15
M  V30 15 2 14 16
M  V30 16 1 15 17
M  V30 17 1 7 8
M  V30 18 1 15 16
M  V30 19 1 4 18
M  V30 20 1 6 19
M  V30 21 1 8 20
M  V30 22 1 12 21
M  V30 23 1 14 22
M  V30 24 1 16 23
M  V30 END BOND
M  V30 END CTAB
M  END
>  <Structure No>
7218

>  <LogS>
-7.07

>  <MMFF94 Energy>
46.984

$$$$
Compound 7219
Actelion Java MolfileCreator 2.0

  0  0  0  0  0  0              0 V3000
M  V30 BEGIN CTAB
M  V30 COUNTS 23 24 0 0 0
M  V30 BEGIN ATOM
M  V30 1 Cl -3.5448 2.5064 -1.3822 0
M  V30 2 C -2.9828 1.0275 -0.6019 0
M  V30 3 C -1.7126 0.5011 -0.9091 0
M  V30 4 C -3.808 0.3646 0.3246 0
M  V30 5 Cl -0.7048 1.2764 -2.1316 0
M  V30 6 C -1.2709 -0.6776 -0.2734 0
M  V30 7 Cl -5.4011 0.9854 0.7396 0
M  V30 8 C -3.3707 -0.8177 0.9279 0
M  V30 9 O -0.0116 -1.2285 -0.5408 0
M  V30 10 C -2.1126 -1.3383 0.6256 0
M  V30 11 C 1.2076 -0.5756 -0.3043 0
M  V30 12 C 1.3004 0.565 0.517 0
M  V30 13 C 2.3698 -1.0949 -0.8877 0
M  V30 14 C 2.5376 1.1807 0.7292 0
M  V30 15 C 3.6063 -0.4779 -0.674 0
M  V30 16 C 3.691 0.6615 0.1325 0
M  V30 17 Cl 5.2425 1.4348 0.4002 0
M  V30 18 H -4.0067 -1.335 1.6353 0
M  V30 19 H -1.7828 -2.2525 1.1028 0
M  V30 20 H 0.4221 0.9746 0.9984 0
M  V30 21 H 2.3128 -1.9765 -1.5134 0
M  V30 22 H 2.599 2.0586 1.3599 0
M  V30 23 H 4.4966 -0.8862 -1.1351 0
M  V30 END ATOM
M  V30 BEGIN BOND
M  V30 1 1 1 2
M  V30 2 2 2 3
M  V30 3 1 2 4
M  V30 4 1 3 5
M  V30 5 1 3 6
M  V30 6 1 4 7
M  V30 7 2 4 8
M  V30 8 1 6 9
M  V30 9 2 6 10
M  V30 10 1 9 11
M  V30 11 2 11 12
M  V30 12 1 11 13
M  V30 13 1 12 14
M  V30 14 2 13 15
M  V30 15 2 14 16
M  V30 16 1 16 17
M  V30 17 1 8 10
M  V30 18 1 15 16
M  V30 19 1 8 18
M  V30 20 1 10 19
M  V30 21 1 12 20
M  V30 22 1 13 21
M  V30 23 1 14 22
M  V30 24 1 15 23
M  V30 END BOND
M  V30 END CTAB
M  END
>  <Structure No>
7219

>  <LogS>
-7.01

>  <MMFF94 Energy>
56.137

$$$$
Compound 7220
Actelion Java MolfileCreator 2.0

  0  0  0  0  0  0              0 V3000
M  V30 BEGIN CTAB
M  V30 COUNTS 23 24 0 0 0
M  V30 BEGIN ATOM
M  V30 1 Cl 2.4187 -2.9376 0.0863 0
M  V30 2 C 2.4357 -1.1851 -0.0927 0
M  V30 3 C 3.5463 -0.5347 -0.66 0
M  V30 4 C 1.3222 -0.4376 0.3263 0
M  V30 5 Cl 4.9517 -1.4386 -1.2087 0
M  V30 6 C 3.5456 0.8576 -0.7945 0
M  V30 7 O 0.23 -1.1042 0.9036 0
M  V30 8 C 1.3439 0.9635 0.204 0
M  V30 9 C 2.4489 1.6059 -0.3601 0
M  V30 10 C -1.1099 -0.6985 0.8154 0
M  V30 11 Cl 2.4631 3.3534 -0.5139 0
M  V30 12 C -1.6074 -0.0089 -0.306 0
M  V30 13 C -1.9841 -1.0343 1.8565 0
M  V30 14 C -2.9539 0.3638 -0.3627 0
M  V30 15 C -3.3305 -0.6606 1.7985 0
M  V30 16 C -3.8158 0.0418 0.6908 0
M  V30 17 Cl -5.5051 0.5085 0.6178 0
M  V30 18 H 4.4007 1.3587 -1.2304 0
M  V30 19 H 0.5129 1.5569 0.5631 0
M  V30 20 H -0.9617 0.2233 -1.1426 0
M  V30 21 H -1.6165 -1.5799 2.7162 0
M  V30 22 H -3.3275 0.896 -1.2283 0
M  V30 23 H -3.9947 -0.9189 2.6133 0
M  V30 END ATOM
M  V30 BEGIN BOND
M  V30 1 1 1 2
M  V30 2 2 2 3
M  V30 3 1 2 4
M  V30 4 1 3 5
M  V30 5 1 3 6
M  V30 6 1 4 7
M  V30 7 2 4 8
M  V30 8 2 6 9
M  V30 9 1 7 10
M  V30 10 1 9 11
M  V30 11 2 10 12
M  V30 12 1 10 13
M  V30 13 1 12 14
M  V30 14 2 13 15
M  V30 15 2 14 16
M  V30 16 1 16 17
M  V30 17 1 8 9
M  V30 18 1 15 16
M  V30 19 1 6 18
M  V30 20 1 8 19
M  V30 21 1 12 20
M  V30 22 1 13 21
M  V30 23 1 14 22
M  V30 24 1 15 23
M  V30 END BOND
M  V30 END CTAB
M  END
>  <Structure No>
7220

>  <LogS>
-7.14

>  <MMFF94 Energy>
40.13

$$$$
Compound 7221
Actelion Java MolfileCreator 2.0

  0  0  0  0  0  0              0 V3000
M  V30 BEGIN CTAB
M  V30 COUNTS 23 24 0 0 0
M  V30 BEGIN ATOM
M  V30 1 Cl -0.7772 2.3331 -0.259 0
M  V30 2 C -1.7086 0.8369 -0.3169 0
M  V30 3 C -2.8123 0.7263 -1.1835 0
M  V30 4 C -1.3869 -0.236 0.5417 0
M  V30 5 Cl -3.2502 2.0325 -2.2773 0
M  V30 6 C -3.5912 -0.4359 -1.1782 0
M  V30 7 O -0.2932 -0.1765 1.4142 0
M  V30 8 C -2.191 -1.3811 0.5525 0
M  V30 9 C -3.285 -1.4838 -0.3083 0
M  V30 10 C 1.0398 -0.0145 1.008 0
M  V30 11 C 1.9931 0.3448 1.9676 0
M  V30 12 C 1.4479 -0.2254 -0.3219 0
M  V30 13 C 3.3363 0.5137 1.6106 0
M  V30 14 C 2.7876 -0.0577 -0.6815 0
M  V30 15 Cl 4.4953 0.975 2.8498 0
M  V30 16 C 3.7351 0.3136 0.2783 0
M  V30 17 Cl 5.4115 0.5154 -0.2125 0
M  V30 18 H -4.4415 -0.5245 -1.8425 0
M  V30 19 H -1.9573 -2.1997 1.2214 0
M  V30 20 H -3.8959 -2.3772 -0.302 0
M  V30 21 H 1.6855 0.4989 2.9945 0
M  V30 22 H 0.7358 -0.5259 -1.0791 0
M  V30 23 H 3.089 -0.22 -1.7085 0
M  V30 END ATOM
M  V30 BEGIN BOND
M  V30 1 1 1 2
M  V30 2 2 2 3
M  V30 3 1 2 4
M  V30 4 1 3 5
M  V30 5 1 3 6
M  V30 6 1 4 7
M  V30 7 2 4 8
M  V30 8 2 6 9
M  V30 9 1 7 10
M  V30 10 2 10 11
M  V30 11 1 10 12
M  V30 12 1 11 13
M  V30 13 2 12 14
M  V30 14 1 13 15
M  V30 15 2 13 16
M  V30 16 1 16 17
M  V30 17 1 8 9
M  V30 18 1 14 16
M  V30 19 1 6 18
M  V30 20 1 8 19
M  V30 21 1 9 20
M  V30 22 1 11 21
M  V30 23 1 12 22
M  V30 24 1 14 23
M  V30 END BOND
M  V30 END CTAB
M  END
>  <Structure No>
7221

>  <LogS>
-6.9

>  <MMFF94 Energy>
59.451

$$$$
Compound 7222
Actelion Java MolfileCreator 2.0

  0  0  0  0  0  0              0 V3000
M  V30 BEGIN CTAB
M  V30 COUNTS 39 40 0 0 0
M  V30 BEGIN ATOM
M  V30 1 O -4.2914 1.4289 -0.9524 0
M  V30 2 C -3.3741 0.7617 -0.3954 0
M  V30 3 N -2.4604 1.4013 0.4265 0
M  V30 4 N -3.2946 -0.5964 -0.616 0
M  V30 5 C -1.4403 0.6889 1.0149 0
M  V30 6 C -2.5367 2.8601 0.6129 0
M  V30 7 C -2.3025 -1.2875 0.0082 0
M  V30 8 C -4.2851 -1.2873 -1.4524 0
M  V30 9 O -0.5773 1.2589 1.7372 0
M  V30 10 C -1.3848 -0.682 0.7961 0
M  V30 11 N -2.0627 -2.6115 -0.076 0
M  V30 12 N -0.5176 -1.6075 1.2425 0
M  V30 13 C -0.957 -2.7683 0.697 0
M  V30 14 C 0.669 -1.4269 2.0776 0
M  V30 15 O 1.5931 -0.5562 1.4314 0
M  V30 16 C 2.2312 -0.8725 0.2261 0
M  V30 17 O 2.0955 -2.0226 -0.2773 0
M  V30 18 C 2.9956 0.2033 -0.5185 0
M  V30 19 C 4.0766 -0.4241 -1.4229 0
M  V30 20 C 3.6779 1.1529 0.4861 0
M  V30 21 C 2.0016 0.9993 -1.3819 0
M  V30 22 H -2.1191 3.1658 1.5959 0
M  V30 23 H -3.5905 3.2118 0.5987 0
M  V30 24 H -1.9711 3.3681 -0.196 0
M  V30 25 H -3.9062 -2.2696 -1.8062 0
M  V30 26 H -5.2158 -1.4493 -0.8691 0
M  V30 27 H -4.5195 -0.6846 -2.356 0
M  V30 28 H -0.4721 -3.724 0.8482 0
M  V30 29 H 0.3695 -0.9809 3.049 0
M  V30 30 H 1.1549 -2.4052 2.2853 0
M  V30 31 H 3.6172 -1.0795 -2.1943 0
M  V30 32 H 4.6562 0.366 -1.9477 0
M  V30 33 H 4.7835 -1.0335 -0.819 0
M  V30 34 H 2.9248 1.6694 1.1203 0
M  V30 35 H 4.3673 0.5873 1.1497 0
M  V30 36 H 4.2654 1.9316 -0.0468 0
M  V30 37 H 1.2182 1.4681 -0.7469 0
M  V30 38 H 2.5252 1.8041 -1.9417 0
M  V30 39 H 1.4993 0.332 -2.1156 0
M  V30 END ATOM
M  V30 BEGIN BOND
M  V30 1 2 1 2
M  V30 2 1 2 3
M  V30 3 1 2 4
M  V30 4 1 3 5
M  V30 5 1 3 6
M  V30 6 1 4 7
M  V30 7 1 4 8
M  V30 8 2 5 9
M  V30 9 1 5 10
M  V30 10 1 7 11
M  V30 11 1 10 12
M  V30 12 2 11 13
M  V30 13 1 12 14
M  V30 14 1 14 15
M  V30 15 1 15 16
M  V30 16 2 16 17
M  V30 17 1 16 18
M  V30 18 1 18 19
M  V30 19 1 18 20
M  V30 20 1 18 21
M  V30 21 2 7 10
M  V30 22 1 12 13
M  V30 23 1 6 22
M  V30 24 1 6 23
M  V30 25 1 6 24
M  V30 26 1 8 25
M  V30 27 1 8 26
M  V30 28 1 8 27
M  V30 29 1 13 28
M  V30 30 1 14 29
M  V30 31 1 14 30
M  V30 32 1 19 31
M  V30 33 1 19 32
M  V30 34 1 19 33
M  V30 35 1 20 34
M  V30 36 1 20 35
M  V30 37 1 20 36
M  V30 38 1 21 37
M  V30 39 1 21 38
M  V30 40 1 21 39
M  V30 END BOND
M  V30 END CTAB
M  END
>  <Structure No>
7222

>  <LogS>
-2.17

>  <MMFF94 Energy>
-134.74

$$$$
Compound 7223
Actelion Java MolfileCreator 2.0

  0  0  0  0  0  0              0 V3000
M  V30 BEGIN CTAB
M  V30 COUNTS 23 24 0 0 0
M  V30 BEGIN ATOM
M  V30 1 Cl 5.1875 -0.7769 1.3814 0
M  V30 2 C 3.6735 -0.4493 0.5492 0
M  V30 3 C 3.2914 -1.185 -0.5842 0
M  V30 4 C 2.8461 0.5734 1.0253 0
M  V30 5 Cl 4.308 -2.4695 -1.223 0
M  V30 6 C 2.0805 -0.8976 -1.2234 0
M  V30 7 C 1.6346 0.8613 0.387 0
M  V30 8 C 1.2385 0.1074 -0.7351 0
M  V30 9 Cl 0.6707 2.2114 0.9709 0
M  V30 10 O 0.0324 0.357 -1.4011 0
M  V30 11 C -1.2351 0.2921 -0.8033 0
M  V30 12 C -2.3198 0.8797 -1.4662 0
M  V30 13 C -1.4517 -0.3658 0.4228 0
M  V30 14 C -3.602 0.8324 -0.9074 0
M  V30 15 C -2.7335 -0.4119 0.9792 0
M  V30 16 Cl -4.9513 1.58 -1.7423 0
M  V30 17 C -3.8074 0.188 0.3167 0
M  V30 18 H 3.1507 1.1538 1.8873 0
M  V30 19 H 1.7836 -1.4661 -2.0959 0
M  V30 20 H -2.1627 1.3785 -2.4142 0
M  V30 21 H -0.6362 -0.8487 0.9446 0
M  V30 22 H -2.8951 -0.9163 1.9231 0
M  V30 23 H -4.7974 0.1483 0.7527 0
M  V30 END ATOM
M  V30 BEGIN BOND
M  V30 1 1 1 2
M  V30 2 2 2 3
M  V30 3 1 2 4
M  V30 4 1 3 5
M  V30 5 1 3 6
M  V30 6 2 4 7
M  V30 7 2 6 8
M  V30 8 1 7 9
M  V30 9 1 8 10
M  V30 10 1 10 11
M  V30 11 2 11 12
M  V30 12 1 11 13
M  V30 13 1 12 14
M  V30 14 2 13 15
M  V30 15 1 14 16
M  V30 16 2 14 17
M  V30 17 1 7 8
M  V30 18 1 15 17
M  V30 19 1 4 18
M  V30 20 1 6 19
M  V30 21 1 12 20
M  V30 22 1 13 21
M  V30 23 1 15 22
M  V30 24 1 17 23
M  V30 END BOND
M  V30 END CTAB
M  END
>  <Structure No>
7223

>  <LogS>
-7.27

>  <MMFF94 Energy>
40.534

$$$$
Compound 7224
Actelion Java MolfileCreator 2.0

  0  0  0  0  0  0              0 V3000
M  V30 BEGIN CTAB
M  V30 COUNTS 23 24 0 0 0
M  V30 BEGIN ATOM
M  V30 1 Cl -1.813 -2.245 -2.1586 0
M  V30 2 C -2.1806 -0.8709 -1.1275 0
M  V30 3 C -1.2176 0.124 -0.8974 0
M  V30 4 C -3.4382 -0.7857 -0.5207 0
M  V30 5 O 0.0367 0.0155 -1.5112 0
M  V30 6 C -1.5395 1.2266 -0.0796 0
M  V30 7 C -3.7466 0.297 0.3074 0
M  V30 8 C 1.2556 -0.0562 -0.8204 0
M  V30 9 Cl -0.4086 2.5527 0.1544 0
M  V30 10 C -2.8005 1.3034 0.5227 0
M  V30 11 Cl -5.3254 0.4007 1.0647 0
M  V30 12 C 1.3211 -0.3522 0.5549 0
M  V30 13 C 2.4429 0.1491 -1.5335 0
M  V30 14 C 2.5587 -0.4201 1.2019 0
M  V30 15 C 3.6796 0.0807 -0.8848 0
M  V30 16 C 3.7385 -0.2015 0.4836 0
M  V30 17 Cl 5.2903 -0.2876 1.2966 0
M  V30 18 H -4.1749 -1.5604 -0.6923 0
M  V30 19 H -3.0488 2.1505 1.1499 0
M  V30 20 H 0.4208 -0.5381 1.1256 0
M  V30 21 H 2.4058 0.3679 -2.5931 0
M  V30 22 H 2.5994 -0.6458 2.2599 0
M  V30 23 H 4.59 0.2466 -1.4463 0
M  V30 END ATOM
M  V30 BEGIN BOND
M  V30 1 1 1 2
M  V30 2 2 2 3
M  V30 3 1 2 4
M  V30 4 1 3 5
M  V30 5 1 3 6
M  V30 6 2 4 7
M  V30 7 1 5 8
M  V30 8 1 6 9
M  V30 9 2 6 10
M  V30 10 1 7 11
M  V30 11 2 8 12
M  V30 12 1 8 13
M  V30 13 1 12 14
M  V30 14 2 13 15
M  V30 15 2 14 16
M  V30 16 1 16 17
M  V30 17 1 7 10
M  V30 18 1 15 16
M  V30 19 1 4 18
M  V30 20 1 10 19
M  V30 21 1 12 20
M  V30 22 1 13 21
M  V30 23 1 14 22
M  V30 24 1 15 23
M  V30 END BOND
M  V30 END CTAB
M  END
>  <Structure No>
7224

>  <LogS>
-6.83

>  <MMFF94 Energy>
34.63

$$$$
Compound 7225
Actelion Java MolfileCreator 2.0

  0  0  0  0  0  0              0 V3000
M  V30 BEGIN CTAB
M  V30 COUNTS 28 29 0 0 0
M  V30 BEGIN ATOM
M  V30 1 O 4.8726 0.0 1.8657 0
M  V30 2 N 4.7865 0.0715 0.6221 0 CHG=1
M  V30 3 O 5.9442 0.0907 -0.1216 0 CHG=-1
M  V30 4 C 3.5012 0.1323 -0.0232 0
M  V30 5 C 2.3148 0.1135 0.7345 0
M  V30 6 C 3.4132 0.2132 -1.4234 0
M  V30 7 C 1.0595 0.1628 0.108 0
M  V30 8 C 2.1676 0.28 -2.0511 0
M  V30 9 N -0.1335 0.1607 0.9128 0
M  V30 10 C 0.9958 0.2607 -1.2928 0
M  V30 11 C -1.4259 -0.2396 0.4262 0
M  V30 12 C -2.5918 0.5061 0.7409 0
M  V30 13 C -1.5466 -1.4416 -0.2931 0
M  V30 14 C -2.5363 1.8038 1.4594 0
M  V30 15 C -3.8452 0.0177 0.3262 0
M  V30 16 C -2.7973 -1.9007 -0.7057 0
M  V30 17 O -1.4695 2.4705 1.5152 0
M  V30 18 O -3.6812 2.3226 2.0537 0 CHG=-1
M  V30 19 C -3.9446 -1.1742 -0.3937 0
M  V30 20 H 2.3621 0.0529 1.8147 0
M  V30 21 H 4.3068 0.2307 -2.0334 0
M  V30 22 H 2.1105 0.353 -3.1295 0
M  V30 23 H -0.0503 0.4047 1.9258 0
M  V30 24 H 0.0432 0.3366 -1.8002 0
M  V30 25 H -0.6687 -2.0347 -0.516 0
M  V30 26 H -4.7527 0.567 0.5439 0
M  V30 27 H -2.878 -2.8277 -1.2584 0
M  V30 28 H -4.9147 -1.5344 -0.7114 0
M  V30 END ATOM
M  V30 BEGIN BOND
M  V30 1 2 1 2
M  V30 2 1 2 3
M  V30 3 1 2 4
M  V30 4 2 4 5
M  V30 5 1 4 6
M  V30 6 1 5 7
M  V30 7 2 6 8
M  V30 8 1 7 9
M  V30 9 2 7 10
M  V30 10 1 9 11
M  V30 11 2 11 12
M  V30 12 1 11 13
M  V30 13 1 12 14
M  V30 14 1 12 15
M  V30 15 2 13 16
M  V30 16 2 14 17
M  V30 17 1 14 18
M  V30 18 2 15 19
M  V30 19 1 8 10
M  V30 20 1 16 19
M  V30 21 1 5 20
M  V30 22 1 6 21
M  V30 23 1 8 22
M  V30 24 1 9 23
M  V30 25 1 10 24
M  V30 26 1 13 25
M  V30 27 1 15 26
M  V30 28 1 16 27
M  V30 29 1 19 28
M  V30 END BOND
M  V30 END CTAB
M  END
>  <Structure No>
7225

>  <LogS>
-6.43

>  <MMFF94 Energy>
66.456

$$$$
Compound 7226
Actelion Java MolfileCreator 2.0

  0  0  0  0  0  0              0 V3000
M  V30 BEGIN CTAB
M  V30 COUNTS 23 24 0 0 0
M  V30 BEGIN ATOM
M  V30 1 Cl -3.7179 2.4198 -0.9501 0
M  V30 2 C -3.0441 0.8656 -0.4583 0
M  V30 3 C -1.7169 0.5298 -0.7909 0
M  V30 4 C -3.8359 -0.0474 0.2615 0
M  V30 5 Cl -0.7428 1.6307 -1.7662 0
M  V30 6 C -1.1865 -0.7124 -0.3861 0
M  V30 7 Cl -5.4976 0.3291 0.6998 0
M  V30 8 C -3.3083 -1.2868 0.634 0
M  V30 9 O 0.1305 -1.0813 -0.6857 0
M  V30 10 C -1.9939 -1.6191 0.3062 0
M  V30 11 C 1.269 -0.3875 -0.2483 0
M  V30 12 C 2.4988 -0.6669 -0.8573 0
M  V30 13 C 1.216 0.5577 0.7947 0
M  V30 14 C 3.6599 -0.0011 -0.4482 0
M  V30 15 C 2.3771 1.2215 1.2016 0
M  V30 16 Cl 5.193 -0.3531 -1.2245 0
M  V30 17 C 3.5974 0.9446 0.5801 0
M  V30 18 H -3.9176 -1.9954 1.1807 0
M  V30 19 H -1.5946 -2.5803 0.6042 0
M  V30 20 H 2.5491 -1.3991 -1.6536 0
M  V30 21 H 0.2834 0.7771 1.2978 0
M  V30 22 H 2.3313 1.949 2.002 0
M  V30 23 H 4.4929 1.462 0.9004 0
M  V30 END ATOM
M  V30 BEGIN BOND
M  V30 1 1 1 2
M  V30 2 2 2 3
M  V30 3 1 2 4
M  V30 4 1 3 5
M  V30 5 1 3 6
M  V30 6 1 4 7
M  V30 7 2 4 8
M  V30 8 1 6 9
M  V30 9 2 6 10
M  V30 10 1 9 11
M  V30 11 2 11 12
M  V30 12 1 11 13
M  V30 13 1 12 14
M  V30 14 2 13 15
M  V30 15 1 14 16
M  V30 16 2 14 17
M  V30 17 1 8 10
M  V30 18 1 15 17
M  V30 19 1 8 18
M  V30 20 1 10 19
M  V30 21 1 12 20
M  V30 22 1 13 21
M  V30 23 1 15 22
M  V30 24 1 17 23
M  V30 END BOND
M  V30 END CTAB
M  END
>  <Structure No>
7226

>  <LogS>
-7.09

>  <MMFF94 Energy>
52.523

$$$$
Compound 7227
Actelion Java MolfileCreator 2.0

  0  0  0  0  0  0              0 V3000
M  V30 BEGIN CTAB
M  V30 COUNTS 23 24 0 0 0
M  V30 BEGIN ATOM
M  V30 1 Cl 0.5179 -0.8633 2.0729 0
M  V30 2 C 1.5991 -0.3672 0.7767 0
M  V30 3 C 1.2459 -0.4877 -0.5876 0
M  V30 4 C 2.8735 0.0981 1.1251 0
M  V30 5 O -0.0162 -0.9321 -1.0073 0
M  V30 6 C 2.1959 -0.1831 -1.5708 0
M  V30 7 C 3.8018 0.428 0.1334 0
M  V30 8 C -1.2428 -0.5406 -0.451 0
M  V30 9 C 3.4644 0.2802 -1.2139 0
M  V30 10 Cl 5.3956 1.0083 0.5805 0
M  V30 11 C -1.5341 0.8014 -0.1115 0
M  V30 12 C -2.2207 -1.5248 -0.2571 0
M  V30 13 Cl -0.4187 2.1187 -0.4519 0
M  V30 14 C -2.7748 1.1197 0.4547 0
M  V30 15 C -3.4565 -1.1974 0.309 0
M  V30 16 C -3.7298 0.1238 0.6709 0
M  V30 17 Cl -4.6622 -2.4451 0.5665 0
M  V30 18 H 3.1477 0.1909 2.1687 0
M  V30 19 H 1.9417 -0.2892 -2.6177 0
M  V30 20 H 4.1833 0.5244 -1.9855 0
M  V30 21 H -2.0098 -2.5507 -0.5318 0
M  V30 22 H -3.0063 2.1446 0.7162 0
M  V30 23 H -4.6859 0.3825 1.108 0
M  V30 END ATOM
M  V30 BEGIN BOND
M  V30 1 1 1 2
M  V30 2 2 2 3
M  V30 3 1 2 4
M  V30 4 1 3 5
M  V30 5 1 3 6
M  V30 6 2 4 7
M  V30 7 1 5 8
M  V30 8 2 6 9
M  V30 9 1 7 10
M  V30 10 2 8 11
M  V30 11 1 8 12
M  V30 12 1 11 13
M  V30 13 1 11 14
M  V30 14 2 12 15
M  V30 15 2 14 16
M  V30 16 1 15 17
M  V30 17 1 7 9
M  V30 18 1 15 16
M  V30 19 1 4 18
M  V30 20 1 6 19
M  V30 21 1 9 20
M  V30 22 1 12 21
M  V30 23 1 14 22
M  V30 24 1 16 23
M  V30 END BOND
M  V30 END CTAB
M  END
>  <Structure No>
7227

>  <LogS>
-6.77

>  <MMFF94 Energy>
44.063

$$$$
Compound 7228
Actelion Java MolfileCreator 2.0

  0  0  0  0  0  0              0 V3000
M  V30 BEGIN CTAB
M  V30 COUNTS 33 34 0 0 0
M  V30 BEGIN ATOM
M  V30 1 O -4.6977 0.8745 0.4769 0
M  V30 2 C -3.4963 0.5171 0.3142 0
M  V30 3 N -2.5437 1.4532 -0.0491 0
M  V30 4 N -3.1511 -0.8024 0.5003 0
M  V30 5 C -1.2479 1.0639 -0.3045 0
M  V30 6 C -2.9355 2.8612 -0.2361 0
M  V30 7 C -1.8666 -1.1696 0.2427 0
M  V30 8 C -4.1557 -1.803 0.8861 0
M  V30 9 O -0.3762 1.9096 -0.6402 0
M  V30 10 C -0.9228 -0.2862 -0.1692 0
M  V30 11 N -1.3493 -2.4076 0.3604 0
M  V30 12 N 0.2424 -0.9498 -0.3345 0
M  V30 13 C -0.0532 -2.2296 0.0038 0
M  V30 14 C 1.5287 -0.4968 -0.786 0
M  V30 15 O 1.6315 0.5417 -1.492 0
M  V30 16 O 2.6661 -1.2549 -0.4802 0
M  V30 17 C 3.9967 -0.8672 -0.8229 0
M  V30 18 C 4.6566 -0.0866 0.3188 0
M  V30 19 C 4.0281 1.2885 0.5324 0
M  V30 20 H -2.0893 3.5491 -0.025 0
M  V30 21 H -3.279 3.016 -1.2806 0
M  V30 22 H -3.7506 3.1478 0.4625 0
M  V30 23 H -3.6843 -2.682 1.375 0
M  V30 24 H -4.8759 -1.3749 1.616 0
M  V30 25 H -4.7071 -2.1429 -0.0156 0
M  V30 26 H 0.665 -3.0394 -0.0223 0
M  V30 27 H 4.0189 -0.2858 -1.7707 0
M  V30 28 H 4.5884 -1.7915 -0.9927 0
M  V30 29 H 5.7334 0.0502 0.0794 0
M  V30 30 H 4.587 -0.6741 1.2598 0
M  V30 31 H 4.6133 1.8475 1.2927 0
M  V30 32 H 2.9868 1.1879 0.9034 0
M  V30 33 H 4.0325 1.8694 -0.4143 0
M  V30 END ATOM
M  V30 BEGIN BOND
M  V30 1 2 1 2
M  V30 2 1 2 3
M  V30 3 1 2 4
M  V30 4 1 3 5
M  V30 5 1 3 6
M  V30 6 1 4 7
M  V30 7 1 4 8
M  V30 8 2 5 9
M  V30 9 1 5 10
M  V30 10 1 7 11
M  V30 11 1 10 12
M  V30 12 2 11 13
M  V30 13 1 12 14
M  V30 14 2 14 15
M  V30 15 1 14 16
M  V30 16 1 16 17
M  V30 17 1 17 18
M  V30 18 1 18 19
M  V30 19 2 7 10
M  V30 20 1 12 13
M  V30 21 1 6 20
M  V30 22 1 6 21
M  V30 23 1 6 22
M  V30 24 1 8 23
M  V30 25 1 8 24
M  V30 26 1 8 25
M  V30 27 1 13 26
M  V30 28 1 17 27
M  V30 29 1 17 28
M  V30 30 1 18 29
M  V30 31 1 18 30
M  V30 32 1 19 31
M  V30 33 1 19 32
M  V30 34 1 19 33
M  V30 END BOND
M  V30 END CTAB
M  END
>  <Structure No>
7228

>  <LogS>
-1.45

>  <MMFF94 Energy>
-126.54

$$$$
Compound 7229
Actelion Java MolfileCreator 2.0

  0  0  0  0  0  0              0 V3000
M  V30 BEGIN CTAB
M  V30 COUNTS 23 24 0 0 0
M  V30 BEGIN ATOM
M  V30 1 Cl 2.4187 0.6906 -3.0241 0
M  V30 2 C 2.4293 0.0681 -1.3796 0
M  V30 3 C 3.5744 -0.5396 -0.8383 0
M  V30 4 C 1.2712 0.1881 -0.6022 0
M  V30 5 Cl 5.0489 -0.71 -1.7807 0
M  V30 6 C 3.5509 -1.0173 0.4763 0
M  V30 7 C 1.2437 -0.3047 0.7159 0
M  V30 8 C 2.3931 -0.8968 1.2491 0
M  V30 9 O 0.1046 -0.1998 1.5282 0
M  V30 10 C -1.183 0.0868 1.0566 0
M  V30 11 C -1.8309 -0.7603 0.134 0
M  V30 12 C -1.8505 1.2247 1.5375 0
M  V30 13 Cl -1.0845 -2.2538 -0.4178 0
M  V30 14 C -3.1161 -0.4424 -0.3204 0
M  V30 15 Cl -1.0754 2.2866 2.7026 0
M  V30 16 C -3.1347 1.5331 1.0763 0
M  V30 17 C -3.7638 0.7037 0.1458 0
M  V30 18 H 0.4 0.6711 -1.025 0
M  V30 19 H 4.4307 -1.483 0.9014 0
M  V30 20 H 2.3869 -1.2703 2.2652 0
M  V30 21 H -3.6188 -1.0897 -1.0275 0
M  V30 22 H -3.6462 2.4158 1.4387 0
M  V30 23 H -4.7581 0.9442 -0.2076 0
M  V30 END ATOM
M  V30 BEGIN BOND
M  V30 1 1 1 2
M  V30 2 2 2 3
M  V30 3 1 2 4
M  V30 4 1 3 5
M  V30 5 1 3 6
M  V30 6 2 4 7
M  V30 7 2 6 8
M  V30 8 1 7 9
M  V30 9 1 9 10
M  V30 10 2 10 11
M  V30 11 1 10 12
M  V30 12 1 11 13
M  V30 13 1 11 14
M  V30 14 1 12 15
M  V30 15 2 12 16
M  V30 16 2 14 17
M  V30 17 1 7 8
M  V30 18 1 16 17
M  V30 19 1 4 18
M  V30 20 1 6 19
M  V30 21 1 8 20
M  V30 22 1 14 21
M  V30 23 1 16 22
M  V30 24 1 17 23
M  V30 END BOND
M  V30 END CTAB
M  END
>  <Structure No>
7229

>  <LogS>
-6.56

>  <MMFF94 Energy>
55.297

$$$$
Compound 7230
Actelion Java MolfileCreator 2.0

  0  0  0  0  0  0              0 V3000
M  V30 BEGIN CTAB
M  V30 COUNTS 23 24 0 0 0
M  V30 BEGIN ATOM
M  V30 1 Cl -0.6907 2.3325 -0.7771 0
M  V30 2 C -1.7149 0.9958 -0.2543 0
M  V30 3 C -2.9485 1.2556 0.372 0
M  V30 4 C -1.3306 -0.3378 -0.5092 0
M  V30 5 Cl -3.4699 2.8998 0.7177 0
M  V30 6 C -3.7911 0.1951 0.723 0
M  V30 7 O -0.1094 -0.6466 -1.1206 0
M  V30 8 C -2.196 -1.3855 -0.175 0
M  V30 9 C -3.4187 -1.1207 0.4445 0
M  V30 10 C 1.15 -0.3067 -0.6013 0
M  V30 11 C 2.2716 -0.3639 -1.444 0
M  V30 12 C 1.321 0.065 0.7465 0
M  V30 13 Cl 2.0976 -0.8355 -3.1272 0
M  V30 14 C 3.5402 -0.0358 -0.9516 0
M  V30 15 C 2.5898 0.3918 1.2328 0
M  V30 16 C 3.6994 0.3437 0.3844 0
M  V30 17 Cl 5.2909 0.7541 0.9971 0
M  V30 18 H -4.7412 0.3909 1.204 0
M  V30 19 H -1.9121 -2.4089 -0.384 0
M  V30 20 H -4.078 -1.937 0.7102 0
M  V30 21 H 0.4778 0.0956 1.424 0
M  V30 22 H 4.401 -0.0761 -1.6071 0
M  V30 23 H 2.7093 0.6787 2.2698 0
M  V30 END ATOM
M  V30 BEGIN BOND
M  V30 1 1 1 2
M  V30 2 2 2 3
M  V30 3 1 2 4
M  V30 4 1 3 5
M  V30 5 1 3 6
M  V30 6 1 4 7
M  V30 7 2 4 8
M  V30 8 2 6 9
M  V30 9 1 7 10
M  V30 10 2 10 11
M  V30 11 1 10 12
M  V30 12 1 11 13
M  V30 13 1 11 14
M  V30 14 2 12 15
M  V30 15 2 14 16
M  V30 16 1 16 17
M  V30 17 1 8 9
M  V30 18 1 15 16
M  V30 19 1 6 18
M  V30 20 1 8 19
M  V30 21 1 9 20
M  V30 22 1 12 21
M  V30 23 1 14 22
M  V30 24 1 15 23
M  V30 END BOND
M  V30 END CTAB
M  END
>  <Structure No>
7230

>  <LogS>
-6.65

>  <MMFF94 Energy>
56.196

$$$$
Compound 7231
Actelion Java MolfileCreator 2.0

  0  0  0  0  0  0              0 V3000
M  V30 BEGIN CTAB
M  V30 COUNTS 41 43 0 0 0
M  V30 BEGIN ATOM
M  V30 1 O -2.3152 0.3191 -2.3152 0
M  V30 2 C -1.9769 0.2465 -1.1003 0
M  V30 3 N -0.7449 -0.2641 -0.7505 0
M  V30 4 C -2.8648 0.7088 -0.1134 0
M  V30 5 C -0.3379 -0.1811 0.5611 0
M  V30 6 C 0.1342 -0.8423 -1.8028 0 CFG=1
M  V30 7 C -2.4386 0.6896 1.2241 0
M  V30 8 C -4.1531 1.1883 -0.4206 0
M  V30 9 N -1.1884 0.2696 1.5203 0
M  V30 10 C 1.0735 -0.5025 0.9744 0 CFG=2
M  V30 11 C 1.5478 -1.2354 -1.2981 0
M  V30 12 C -0.5176 -2.0875 -2.4353 0
M  V30 13 C -3.288 1.1374 2.2427 0
M  V30 14 C -4.9986 1.6318 0.6014 0
M  V30 15 N 2.011 -0.4184 -0.1656 0
M  V30 16 C 1.1408 -1.8733 1.6594 0
M  V30 17 C -4.5676 1.6051 1.9307 0
M  V30 18 C 2.3054 0.9794 -0.5643 0
M  V30 19 C 3.4951 1.5324 0.2303 0
M  V30 20 C 4.7769 0.7474 -0.0411 0
M  V30 21 H 0.2727 -0.0789 -2.601 0
M  V30 22 H -4.5095 1.2169 -1.443 0
M  V30 23 H 1.3792 0.2387 1.7461 0
M  V30 24 H 1.5782 -2.3053 -0.9995 0
M  V30 25 H 2.2736 -1.1665 -2.1389 0
M  V30 26 H -0.7775 -2.8257 -1.6465 0
M  V30 27 H 0.1816 -2.5639 -3.1558 0
M  V30 28 H -1.4369 -1.8327 -2.9978 0
M  V30 29 H -2.9573 1.1283 3.274 0
M  V30 30 H -5.9892 1.9969 0.3628 0
M  V30 31 H 0.6202 -1.8304 2.6402 0
M  V30 32 H 0.6507 -2.6595 1.0475 0
M  V30 33 H 2.1997 -2.1563 1.8388 0
M  V30 34 H -5.2239 1.951 2.7189 0
M  V30 35 H 2.5603 1.0499 -1.646 0
M  V30 36 H 1.4239 1.6405 -0.4071 0
M  V30 37 H 3.6579 2.5926 -0.0612 0
M  V30 38 H 3.2763 1.5132 1.3187 0
M  V30 39 H 4.6671 -0.3051 0.2957 0
M  V30 40 H 5.6193 1.2091 0.5157 0
M  V30 41 H 5.0175 0.7628 -1.1255 0
M  V30 END ATOM
M  V30 BEGIN BOND
M  V30 1 2 1 2
M  V30 2 1 2 3
M  V30 3 1 2 4
M  V30 4 1 3 5
M  V30 5 1 3 6
M  V30 6 2 4 7
M  V30 7 1 4 8
M  V30 8 2 5 9
M  V30 9 1 5 10
M  V30 10 1 6 11
M  V30 11 1 6 12
M  V30 12 1 7 13
M  V30 13 2 8 14
M  V30 14 1 10 15
M  V30 15 1 10 16
M  V30 16 2 13 17
M  V30 17 1 15 18
M  V30 18 1 18 19
M  V30 19 1 19 20
M  V30 20 1 7 9
M  V30 21 1 11 15
M  V30 22 1 14 17
M  V30 23 1 6 21
M  V30 24 1 8 22
M  V30 25 1 10 23
M  V30 26 1 11 24
M  V30 27 1 11 25
M  V30 28 1 12 26
M  V30 29 1 12 27
M  V30 30 1 12 28
M  V30 31 1 13 29
M  V30 32 1 14 30
M  V30 33 1 16 31
M  V30 34 1 16 32
M  V30 35 1 16 33
M  V30 36 1 17 34
M  V30 37 1 18 35
M  V30 38 1 18 36
M  V30 39 1 19 37
M  V30 40 1 19 38
M  V30 41 1 20 39
M  V30 42 1 20 40
M  V30 43 1 20 41
M  V30 END BOND
M  V30 BEGIN COLLECTION
M  V30 MDLV30/STEABS ATOMS=(2 6 10)
M  V30 END COLLECTION
M  V30 END CTAB
M  END
>  <Structure No>
7231

>  <LogS>
-2.24

>  <MMFF94 Energy>
60.895

$$$$
Compound 7232
Actelion Java MolfileCreator 2.0

  0  0  0  0  0  0              0 V3000
M  V30 BEGIN CTAB
M  V30 COUNTS 23 24 0 0 0
M  V30 BEGIN ATOM
M  V30 1 Cl 1.2954 1.641 -2.7649 0
M  V30 2 C 1.9714 0.9894 -1.2743 0
M  V30 3 C 1.2865 -0.0311 -0.5938 0
M  V30 4 C 3.1763 1.4942 -0.7545 0
M  V30 5 O 0.0845 -0.5182 -1.1238 0
M  V30 6 C 1.8307 -0.5684 0.5898 0
M  V30 7 Cl 4.054 2.7824 -1.5688 0
M  V30 8 C 3.6965 0.9694 0.4324 0
M  V30 9 C -1.1518 -0.4717 -0.4621 0
M  V30 10 Cl 1.0647 -1.9168 1.419 0
M  V30 11 C 3.0298 -0.06 1.0985 0
M  V30 12 C -2.2054 -1.2508 -0.9554 0
M  V30 13 C -1.3703 0.3496 0.6612 0
M  V30 14 C -3.4557 -1.2296 -0.3293 0
M  V30 15 C -2.6212 0.3692 1.2858 0
M  V30 16 C -3.664 -0.4213 0.7928 0
M  V30 17 Cl -5.2328 -0.395 1.5774 0
M  V30 18 H 4.6248 1.3534 0.8361 0
M  V30 19 H 3.4526 -0.4701 2.0069 0
M  V30 20 H -2.0525 -1.8787 -1.8239 0
M  V30 21 H -0.5808 0.979 1.0499 0
M  V30 22 H -4.2606 -1.8405 -0.7175 0
M  V30 23 H -2.7794 1.0017 2.1501 0
M  V30 END ATOM
M  V30 BEGIN BOND
M  V30 1 1 1 2
M  V30 2 2 2 3
M  V30 3 1 2 4
M  V30 4 1 3 5
M  V30 5 1 3 6
M  V30 6 1 4 7
M  V30 7 2 4 8
M  V30 8 1 5 9
M  V30 9 1 6 10
M  V30 10 2 6 11
M  V30 11 2 9 12
M  V30 12 1 9 13
M  V30 13 1 12 14
M  V30 14 2 13 15
M  V30 15 2 14 16
M  V30 16 1 16 17
M  V30 17 1 8 11
M  V30 18 1 15 16
M  V30 19 1 8 18
M  V30 20 1 11 19
M  V30 21 1 12 20
M  V30 22 1 13 21
M  V30 23 1 14 22
M  V30 24 1 15 23
M  V30 END BOND
M  V30 END CTAB
M  END
>  <Structure No>
7232

>  <LogS>
-6.64

>  <MMFF94 Energy>
54.986

$$$$
Compound 7233
Actelion Java MolfileCreator 2.0

  0  0  0  0  0  0              0 V3000
M  V30 BEGIN CTAB
M  V30 COUNTS 38 39 0 0 0
M  V30 BEGIN ATOM
M  V30 1 O 5.1674 -2.0968 0.8867 0
M  V30 2 N 4.5384 -1.3064 0.1529 0 CHG=1
M  V30 3 O 5.1649 -0.7907 -0.9566 0 CHG=-1
M  V30 4 C 3.1244 -1.1299 0.3295 0
M  V30 5 C 2.5056 0.1132 0.0937 0
M  V30 6 C 2.3373 -2.2203 0.7312 0
M  V30 7 N 3.2665 1.2813 -0.218 0
M  V30 8 C 1.1219 0.2417 0.2473 0
M  V30 9 C 0.9444 -2.1023 0.8724 0
M  V30 10 C 3.3414 2.747 -0.4922 0
M  V30 11 C 4.5261 2.0444 -0.4711 0
M  V30 12 C 0.3297 -0.8488 0.639 0
M  V30 13 N 0.1704 -3.2705 1.1982 0 CHG=1
M  V30 14 C -1.1131 -0.6263 0.8822 0
M  V30 15 O 0.6614 -4.1705 1.9104 0
M  V30 16 O -1.0346 -3.5012 0.5751 0 CHG=-1
M  V30 17 O -1.648 -1.1252 1.9084 0
M  V30 18 N -1.8882 0.1701 -0.0347 0
M  V30 19 C -3.2993 0.5566 0.1628 0
M  V30 20 C -4.1947 -0.6969 0.2099 0
M  V30 21 C -3.4514 1.3739 1.4604 0
M  V30 22 C -3.7497 1.4347 -1.0229 0
M  V30 23 H 2.8083 -3.1823 0.8917 0
M  V30 24 H 0.6691 1.2158 0.1028 0
M  V30 25 H 3.0937 3.3371 0.4151 0
M  V30 26 H 2.9184 2.9891 -1.4899 0
M  V30 27 H 5.1394 2.1279 0.4505 0
M  V30 28 H 4.9647 1.7977 -1.4606 0
M  V30 29 H -1.4082 0.4802 -0.9106 0
M  V30 30 H -4.0256 -1.3238 -0.6917 0
M  V30 31 H -3.9876 -1.3139 1.1075 0
M  V30 32 H -5.268 -0.4097 0.2435 0
M  V30 33 H -3.2315 0.7593 2.357 0
M  V30 34 H -2.7561 2.2407 1.4524 0
M  V30 35 H -4.4902 1.7558 1.5629 0
M  V30 36 H -3.1193 2.3476 -1.0908 0
M  V30 37 H -3.6549 0.875 -1.9786 0
M  V30 38 H -4.8095 1.7493 -0.9059 0
M  V30 END ATOM
M  V30 BEGIN BOND
M  V30 1 2 1 2
M  V30 2 1 2 3
M  V30 3 1 2 4
M  V30 4 2 4 5
M  V30 5 1 4 6
M  V30 6 1 5 7
M  V30 7 1 5 8
M  V30 8 2 6 9
M  V30 9 1 7 10
M  V30 10 1 7 11
M  V30 11 2 8 12
M  V30 12 1 9 13
M  V30 13 1 12 14
M  V30 14 2 13 15
M  V30 15 1 13 16
M  V30 16 2 14 17
M  V30 17 1 14 18
M  V30 18 1 18 19
M  V30 19 1 19 20
M  V30 20 1 19 21
M  V30 21 1 19 22
M  V30 22 1 9 12
M  V30 23 1 10 11
M  V30 24 1 6 23
M  V30 25 1 8 24
M  V30 26 1 10 25
M  V30 27 1 10 26
M  V30 28 1 11 27
M  V30 29 1 11 28
M  V30 30 1 18 29
M  V30 31 1 20 30
M  V30 32 1 20 31
M  V30 33 1 20 32
M  V30 34 1 21 33
M  V30 35 1 21 34
M  V30 36 1 21 35
M  V30 37 1 22 36
M  V30 38 1 22 37
M  V30 39 1 22 38
M  V30 END BOND
M  V30 END CTAB
M  END
>  <Structure No>
7233

>  <LogS>
-3.17

>  <MMFF94 Energy>
67.558

$$$$
Compound 7234
Actelion Java MolfileCreator 2.0

  0  0  0  0  0  0              0 V3000
M  V30 BEGIN CTAB
M  V30 COUNTS 36 37 0 0 0
M  V30 BEGIN ATOM
M  V30 1 O -4.6901 0.9525 1.1113 0
M  V30 2 C -3.6594 0.5606 0.4938 0
M  V30 3 N -2.7334 1.4867 0.0448 0
M  V30 4 N -3.4676 -0.7866 0.2823 0
M  V30 5 C -1.5706 1.0685 -0.5622 0
M  V30 6 C -2.9535 2.9218 0.2934 0
M  V30 7 C -2.3168 -1.1804 -0.3269 0
M  V30 8 C -4.4332 -1.7782 0.7753 0
M  V30 9 O -0.6995 1.9013 -0.9322 0
M  V30 10 C -1.3774 -0.2989 -0.749 0
M  V30 11 N -1.9317 -2.4483 -0.5711 0
M  V30 12 N -0.3525 -0.9895 -1.29 0
M  V30 13 C -0.7216 -2.288 -1.1629 0
M  V30 14 C 0.9194 -0.5268 -1.8485 0
M  V30 15 O 1.9968 -0.9035 -0.9947 0
M  V30 16 C 2.1982 -0.3561 0.2766 0
M  V30 17 O 1.4347 0.5434 0.7216 0
M  V30 18 C 3.3583 -0.8211 1.1011 0
M  V30 19 C 4.6812 -0.2291 0.6 0
M  V30 20 C 4.7686 1.2789 0.8334 0
M  V30 21 H -2.4685 3.5468 -0.4865 0
M  V30 22 H -2.541 3.1948 1.2874 0
M  V30 23 H -4.0354 3.1729 0.2653 0
M  V30 24 H -4.3642 -2.7281 0.2035 0
M  V30 25 H -4.2375 -1.9862 1.8483 0
M  V30 26 H -5.4733 -1.4054 0.6584 0
M  V30 27 H -0.1101 -3.1189 -1.4907 0
M  V30 28 H 0.9321 0.5663 -2.0188 0
M  V30 29 H 1.0717 -1.0074 -2.8378 0
M  V30 30 H 3.2018 -0.5561 2.17 0
M  V30 31 H 3.4133 -1.9289 1.0365 0
M  V30 32 H 5.5177 -0.7189 1.1438 0
M  V30 33 H 4.8093 -0.4455 -0.4832 0
M  V30 34 H 5.7643 1.6469 0.5078 0
M  V30 35 H 4.64 1.5114 1.9121 0
M  V30 36 H 3.9895 1.8105 0.2471 0
M  V30 END ATOM
M  V30 BEGIN BOND
M  V30 1 2 1 2
M  V30 2 1 2 3
M  V30 3 1 2 4
M  V30 4 1 3 5
M  V30 5 1 3 6
M  V30 6 1 4 7
M  V30 7 1 4 8
M  V30 8 2 5 9
M  V30 9 1 5 10
M  V30 10 1 7 11
M  V30 11 1 10 12
M  V30 12 2 11 13
M  V30 13 1 12 14
M  V30 14 1 14 15
M  V30 15 1 15 16
M  V30 16 2 16 17
M  V30 17 1 16 18
M  V30 18 1 18 19
M  V30 19 1 19 20
M  V30 20 2 7 10
M  V30 21 1 12 13
M  V30 22 1 6 21
M  V30 23 1 6 22
M  V30 24 1 6 23
M  V30 25 1 8 24
M  V30 26 1 8 25
M  V30 27 1 8 26
M  V30 28 1 13 27
M  V30 29 1 14 28
M  V30 30 1 14 29
M  V30 31 1 18 30
M  V30 32 1 18 31
M  V30 33 1 19 32
M  V30 34 1 19 33
M  V30 35 1 20 34
M  V30 36 1 20 35
M  V30 37 1 20 36
M  V30 END BOND
M  V30 END CTAB
M  END
>  <Structure No>
7234

>  <LogS>
-1.86

>  <MMFF94 Energy>
-144.93

$$$$
Compound 7235
Actelion Java MolfileCreator 2.0

  0  0  0  0  0  0              0 V3000
M  V30 BEGIN CTAB
M  V30 COUNTS 23 24 0 0 0
M  V30 BEGIN ATOM
M  V30 1 Cl 5.362 1.209 -0.7771 0
M  V30 2 C 3.7692 0.5269 -0.4774 0
M  V30 3 C 2.7388 1.3 0.0821 0
M  V30 4 C 3.5348 -0.8141 -0.7984 0
M  V30 5 Cl 2.9966 2.9839 0.5185 0
M  V30 6 C 1.4825 0.7265 0.308 0
M  V30 7 C 2.2786 -1.3868 -0.5726 0
M  V30 8 C 1.2383 -0.6158 -0.0335 0
M  V30 9 Cl 2.0151 -3.0744 -0.9843 0
M  V30 10 O -0.0086 -1.2174 0.197 0
M  V30 11 C -1.25 -0.5646 0.1462 0
M  V30 12 C -2.2994 -1.028 0.9565 0
M  V30 13 C -1.4822 0.511 -0.7317 0
M  V30 14 Cl -2.0523 -2.3854 2.0441 0
M  V30 15 C -3.5515 -0.4033 0.9118 0
M  V30 16 C -2.7346 1.1305 -0.7719 0
M  V30 17 C -3.7672 0.6763 0.0515 0
M  V30 18 H 4.3306 -1.4131 -1.2232 0
M  V30 19 H 0.7039 1.3224 0.7666 0
M  V30 20 H -0.7029 0.858 -1.3973 0
M  V30 21 H -4.3584 -0.755 1.5423 0
M  V30 22 H -2.9068 1.9585 -1.4474 0
M  V30 23 H -4.7368 1.1562 0.0182 0
M  V30 END ATOM
M  V30 BEGIN BOND
M  V30 1 1 1 2
M  V30 2 2 2 3
M  V30 3 1 2 4
M  V30 4 1 3 5
M  V30 5 1 3 6
M  V30 6 2 4 7
M  V30 7 2 6 8
M  V30 8 1 7 9
M  V30 9 1 8 10
M  V30 10 1 10 11
M  V30 11 2 11 12
M  V30 12 1 11 13
M  V30 13 1 12 14
M  V30 14 1 12 15
M  V30 15 2 13 16
M  V30 16 2 15 17
M  V30 17 1 7 8
M  V30 18 1 16 17
M  V30 19 1 4 18
M  V30 20 1 6 19
M  V30 21 1 13 20
M  V30 22 1 15 21
M  V30 23 1 16 22
M  V30 24 1 17 23
M  V30 END BOND
M  V30 END CTAB
M  END
>  <Structure No>
7235

>  <LogS>
-7.0

>  <MMFF94 Energy>
54.161

$$$$
Compound 7236
Actelion Java MolfileCreator 2.0

  0  0  0  0  0  0              0 V3000
M  V30 BEGIN CTAB
M  V30 COUNTS 23 24 0 0 0
M  V30 BEGIN ATOM
M  V30 1 Cl 3.6318 -1.6418 -2.0741 0
M  V30 2 C 3.0013 -0.5826 -0.8122 0
M  V30 3 C 1.7295 -0.8208 -0.2549 0
M  V30 4 C 3.7732 0.4998 -0.3527 0
M  V30 5 Cl 0.7895 -2.2249 -0.7614 0
M  V30 6 C 1.2328 0.0369 0.7481 0
M  V30 7 Cl 5.3658 0.8362 -1.0196 0
M  V30 8 C 3.2821 1.3269 0.6611 0
M  V30 9 O -0.03 -0.1567 1.3211 0
M  V30 10 C 2.0224 1.0924 1.2122 0
M  V30 11 C -1.2402 -0.1289 0.6097 0
M  V30 12 C -2.3962 -0.6515 1.212 0
M  V30 13 C -1.3302 0.4309 -0.6801 0
M  V30 14 Cl -2.3246 -1.3466 2.8237 0
M  V30 15 C -3.6173 -0.6313 0.5278 0
M  V30 16 C -2.5525 0.4477 -1.3577 0
M  V30 17 C -3.6944 -0.0845 -0.7553 0
M  V30 18 H 3.8771 2.1558 1.0231 0
M  V30 19 H 1.6506 1.7427 1.9939 0
M  V30 20 H -0.4609 0.8611 -1.1595 0
M  V30 21 H -4.5072 -1.0392 0.9901 0
M  V30 22 H -2.6151 0.877 -2.3492 0
M  V30 23 H -4.6402 -0.0701 -1.2814 0
M  V30 END ATOM
M  V30 BEGIN BOND
M  V30 1 1 1 2
M  V30 2 2 2 3
M  V30 3 1 2 4
M  V30 4 1 3 5
M  V30 5 1 3 6
M  V30 6 1 4 7
M  V30 7 2 4 8
M  V30 8 1 6 9
M  V30 9 2 6 10
M  V30 10 1 9 11
M  V30 11 2 11 12
M  V30 12 1 11 13
M  V30 13 1 12 14
M  V30 14 1 12 15
M  V30 15 2 13 16
M  V30 16 2 15 17
M  V30 17 1 8 10
M  V30 18 1 16 17
M  V30 19 1 8 18
M  V30 20 1 10 19
M  V30 21 1 13 20
M  V30 22 1 15 21
M  V30 23 1 16 22
M  V30 24 1 17 23
M  V30 END BOND
M  V30 END CTAB
M  END
>  <Structure No>
7236

>  <LogS>
-6.74

>  <MMFF94 Energy>
67.604

$$$$
Compound 7237
Actelion Java MolfileCreator 2.0

  0  0  0  0  0  0              0 V3000
M  V30 BEGIN CTAB
M  V30 COUNTS 44 46 0 0 0
M  V30 BEGIN ATOM
M  V30 1 S -1.9709 -0.2462 -1.2315 0
M  V30 2 O -1.0283 -1.4096 -1.3698 0
M  V30 3 O -2.113 0.4353 -2.5635 0
M  V30 4 N -3.5443 -0.8208 -0.7213 0
M  V30 5 N -1.3343 0.8807 -0.0787 0 CHG=-1
M  V30 6 C -4.4589 0.2973 -0.3992 0
M  V30 7 C -3.4394 -1.798 0.3765 0
M  V30 8 C -0.0033 1.4037 -0.1055 0
M  V30 9 C -4.6019 0.5319 1.1241 0 CFG=1
M  V30 10 C -3.0904 -1.1289 1.7272 0
M  V30 11 O 0.3819 2.121 0.8553 0
M  V30 12 N 0.885 1.1288 -1.2009 0
M  V30 13 O -3.377 0.2589 1.7692 0
M  V30 14 C -5.013 1.9732 1.4202 0
M  V30 15 C 2.3252 1.3751 -1.1344 0
M  V30 16 C 3.0842 0.0415 -1.0093 0 CFG=1
M  V30 17 C 4.623 0.2302 -1.0009 0 CFG=2
M  V30 18 C 2.8425 -0.684 0.3449 0
M  V30 19 C 5.2268 -1.1412 -1.1655 0
M  V30 20 C 4.9132 0.4513 0.4737 0
M  V30 21 C 4.2751 -0.8572 0.8924 0 CFG=2
M  V30 22 C 5.0065 -1.8012 -0.0268 0
M  V30 23 H -5.4621 0.0583 -0.8127 0
M  V30 24 H -4.1335 1.2312 -0.9103 0
M  V30 25 H -4.4187 -2.3154 0.4772 0
M  V30 26 H -2.6992 -2.5902 0.134 0
M  V30 27 H -5.4073 -0.1273 1.5279 0
M  V30 28 H -3.6234 -1.6453 2.5555 0
M  V30 29 H -2.0029 -1.2561 1.9127 0
M  V30 30 H 0.5226 0.6525 -2.0552 0
M  V30 31 H -5.9718 2.2105 0.9116 0
M  V30 32 H -4.2302 2.6805 1.0716 0
M  V30 33 H -5.1505 2.1073 2.5142 0
M  V30 34 H 2.6385 1.8819 -2.0722 0
M  V30 35 H 2.5744 2.0583 -0.2956 0
M  V30 36 H 2.7847 -0.6147 -1.859 0
M  V30 37 H 5.0256 0.9987 -1.6947 0
M  V30 38 H 2.2421 -0.0707 1.052 0
M  V30 39 H 2.3413 -1.666 0.198 0
M  V30 40 H 5.8055 -1.506 -2.0071 0
M  V30 41 H 6.0048 0.4963 0.7012 0
M  V30 42 H 4.4117 1.3452 0.9075 0
M  V30 43 H 4.346 -1.1042 1.9726 0
M  V30 44 H 5.3811 -2.7904 0.2134 0
M  V30 END ATOM
M  V30 BEGIN BOND
M  V30 1 2 1 2
M  V30 2 2 1 3
M  V30 3 1 1 4
M  V30 4 1 1 5
M  V30 5 1 4 6
M  V30 6 1 4 7
M  V30 7 1 5 8
M  V30 8 1 6 9
M  V30 9 1 7 10
M  V30 10 2 8 11
M  V30 11 1 8 12
M  V30 12 1 9 13
M  V30 13 1 9 14
M  V30 14 1 12 15
M  V30 15 1 15 16
M  V30 16 1 16 17
M  V30 17 1 16 18
M  V30 18 1 17 19
M  V30 19 1 17 20
M  V30 20 1 18 21
M  V30 21 2 19 22
M  V30 22 1 10 13
M  V30 23 1 20 21
M  V30 24 1 21 22
M  V30 25 1 6 23
M  V30 26 1 6 24
M  V30 27 1 7 25
M  V30 28 1 7 26
M  V30 29 1 9 27
M  V30 30 1 10 28
M  V30 31 1 10 29
M  V30 32 1 12 30
M  V30 33 1 14 31
M  V30 34 1 14 32
M  V30 35 1 14 33
M  V30 36 1 15 34
M  V30 37 1 15 35
M  V30 38 1 16 36
M  V30 39 1 17 37
M  V30 40 1 18 38
M  V30 41 1 18 39
M  V30 42 1 19 40
M  V30 43 1 20 41
M  V30 44 1 20 42
M  V30 45 1 21 43
M  V30 46 1 22 44
M  V30 END BOND
M  V30 BEGIN COLLECTION
M  V30 MDLV30/STEABS ATOMS=(4 9 16 17 21)
M  V30 END COLLECTION
M  V30 END CTAB
M  END
>  <Structure No>
7237

>  <LogS>
-2.26

>  <MMFF94 Energy>
-14.845

$$$$
Compound 7238
Actelion Java MolfileCreator 2.0

  0  0  0  0  0  0              0 V3000
M  V30 BEGIN CTAB
M  V30 COUNTS 23 24 0 0 0
M  V30 BEGIN ATOM
M  V30 1 Cl 3.2866 3.1135 0.2591 0
M  V30 2 C 2.8496 1.4084 0.1309 0
M  V30 3 C 3.728 0.4181 0.6102 0
M  V30 4 C 1.6256 1.0372 -0.4579 0
M  V30 5 Cl 5.2626 0.8733 1.352 0
M  V30 6 C 3.3836 -0.9385 0.4879 0
M  V30 7 Cl 0.558 2.2676 -1.1353 0
M  V30 8 C 1.2781 -0.3244 -0.5505 0
M  V30 9 Cl 4.456 -2.21 1.0605 0
M  V30 10 C 2.1675 -1.3002 -0.0957 0
M  V30 11 O 0.0657 -0.7352 -1.118 0
M  V30 12 C -1.2006 -0.3938 -0.6194 0
M  V30 13 C -1.3799 0.134 0.6746 0
M  V30 14 C -2.3211 -0.61 -1.4315 0
M  V30 15 C -2.662 0.4547 1.1318 0
M  V30 16 C -3.6018 -0.2883 -0.971 0
M  V30 17 C -3.772 0.2457 0.3091 0
M  V30 18 H 1.9026 -2.3465 -0.1845 0
M  V30 19 H -0.5349 0.2911 1.3317 0
M  V30 20 H -2.1976 -1.0234 -2.4243 0
M  V30 21 H -2.7953 0.8623 2.1256 0
M  V30 22 H -4.4623 -0.4537 -1.6064 0
M  V30 23 H -4.7638 0.4937 0.6647 0
M  V30 END ATOM
M  V30 BEGIN BOND
M  V30 1 1 1 2
M  V30 2 2 2 3
M  V30 3 1 2 4
M  V30 4 1 3 5
M  V30 5 1 3 6
M  V30 6 1 4 7
M  V30 7 2 4 8
M  V30 8 1 6 9
M  V30 9 2 6 10
M  V30 10 1 8 11
M  V30 11 1 11 12
M  V30 12 2 12 13
M  V30 13 1 12 14
M  V30 14 1 13 15
M  V30 15 2 14 16
M  V30 16 2 15 17
M  V30 17 1 8 10
M  V30 18 1 16 17
M  V30 19 1 10 18
M  V30 20 1 13 19
M  V30 21 1 14 20
M  V30 22 1 15 21
M  V30 23 1 16 22
M  V30 24 1 17 23
M  V30 END BOND
M  V30 END CTAB
M  END
>  <Structure No>
7238

>  <LogS>
-7.52

>  <MMFF94 Energy>
55.281

$$$$
Compound 7239
Actelion Java MolfileCreator 2.0

  0  0  0  0  0  0              0 V3000
M  V30 BEGIN CTAB
M  V30 COUNTS 38 39 0 0 0
M  V30 BEGIN ATOM
M  V30 1 O 4.8399 0.0 -0.0805 0
M  V30 2 N 4.1339 -0.9305 0.3571 0 CHG=1
M  V30 3 O 4.7124 -1.8713 1.1779 0 CHG=-1
M  V30 4 C 2.7064 -0.8953 0.1994 0
M  V30 5 C 2.1045 -0.4657 -1.0017 0
M  V30 6 C 1.8886 -1.3095 1.2625 0
M  V30 7 N 2.8801 -0.1315 -2.154 0
M  V30 8 C 0.7111 -0.4122 -1.1003 0
M  V30 9 C 0.4873 -1.2752 1.163 0
M  V30 10 C 4.149 0.0397 -2.9246 0
M  V30 11 C 2.9657 0.2904 -3.5837 0
M  V30 12 C -0.1058 -0.783 -0.023 0
M  V30 13 N -0.3101 -1.7709 2.2547 0 CHG=1
M  V30 14 C -1.5691 -0.6224 -0.1649 0
M  V30 15 O 0.1226 -1.7178 3.4246 0
M  V30 16 O -1.4802 -2.4526 2.0124 0 CHG=-1
M  V30 17 O -2.1403 -1.1367 -1.1649 0
M  V30 18 N -2.3458 0.1229 0.7982 0
M  V30 19 C -3.7691 -0.1938 0.9793 0
M  V30 20 C -1.7595 1.2564 1.5331 0
M  V30 21 C -4.6376 0.7051 0.1062 0
M  V30 22 C -1.3708 2.3858 0.5817 0
M  V30 23 H 2.3479 -1.6681 2.1752 0
M  V30 24 H 0.261 -0.0609 -2.022 0
M  V30 25 H 4.7183 0.9301 -2.5839 0
M  V30 26 H 4.6343 -0.9385 -3.1246 0
M  V30 27 H 2.5908 -0.5068 -4.2594 0
M  V30 28 H 2.6737 1.355 -3.7043 0
M  V30 29 H -3.9638 -1.2578 0.721 0
M  V30 30 H -4.0573 -0.0645 2.045 0
M  V30 31 H -2.4867 1.6602 2.2709 0
M  V30 32 H -0.8686 0.9272 2.1054 0
M  V30 33 H -5.7031 0.4119 0.214 0
M  V30 34 H -4.3449 0.6057 -0.9601 0
M  V30 35 H -4.5287 1.7646 0.4192 0
M  V30 36 H -0.566 2.0583 -0.1075 0
M  V30 37 H -0.9992 3.2531 1.1671 0
M  V30 38 H -2.2506 2.708 -0.0134 0
M  V30 END ATOM
M  V30 BEGIN BOND
M  V30 1 2 1 2
M  V30 2 1 2 3
M  V30 3 1 2 4
M  V30 4 2 4 5
M  V30 5 1 4 6
M  V30 6 1 5 7
M  V30 7 1 5 8
M  V30 8 2 6 9
M  V30 9 1 7 10
M  V30 10 1 7 11
M  V30 11 2 8 12
M  V30 12 1 9 13
M  V30 13 1 12 14
M  V30 14 2 13 15
M  V30 15 1 13 16
M  V30 16 2 14 17
M  V30 17 1 14 18
M  V30 18 1 18 19
M  V30 19 1 18 20
M  V30 20 1 19 21
M  V30 21 1 20 22
M  V30 22 1 9 12
M  V30 23 1 10 11
M  V30 24 1 6 23
M  V30 25 1 8 24
M  V30 26 1 10 25
M  V30 27 1 10 26
M  V30 28 1 11 27
M  V30 29 1 11 28
M  V30 30 1 19 29
M  V30 31 1 19 30
M  V30 32 1 20 31
M  V30 33 1 20 32
M  V30 34 1 21 33
M  V30 35 1 21 34
M  V30 36 1 21 35
M  V30 37 1 22 36
M  V30 38 1 22 37
M  V30 39 1 22 38
M  V30 END BOND
M  V30 END CTAB
M  END
>  <Structure No>
7239

>  <LogS>
-2.59

>  <MMFF94 Energy>
65.243

$$$$
Compound 7240
Actelion Java MolfileCreator 2.0

  0  0  0  0  0  0              0 V3000
M  V30 BEGIN CTAB
M  V30 COUNTS 38 41 0 0 0
M  V30 BEGIN ATOM
M  V30 1 O 1.6331 -3.4319 0.8163 0
M  V30 2 C 1.0313 -2.4063 0.4017 0
M  V30 3 N -0.3733 -2.4755 0.1543 0
M  V30 4 C 1.7271 -1.1029 0.2671 0
M  V30 5 C -1.0862 -1.2957 -0.334 0 CFG=1
M  V30 6 C 3.1452 -1.0023 0.145 0
M  V30 7 C 0.9276 0.0891 0.3054 0
M  V30 8 C -2.6185 -1.5087 -0.2484 0 CFG=1
M  V30 9 C -0.5994 -0.0309 0.4297 0 CFG=1
M  V30 10 O 3.9904 -2.0991 -0.033 0
M  V30 11 C 3.7089 0.2667 0.1741 0
M  V30 12 C 1.5772 1.3507 0.344 0
M  V30 13 O -3.0203 -1.967 1.0219 0
M  V30 14 C -3.3879 -0.2398 -0.6819 0 CFG=1
M  V30 15 C -1.3778 1.2225 -0.0582 0 CFG=2
M  V30 16 O 5.0457 0.6108 0.0998 0
M  V30 17 C 2.9614 1.3884 0.2745 0
M  V30 18 O -4.7754 -0.4208 -0.5391 0
M  V30 19 C -2.9054 1.0214 0.0759 0 CFG=1
M  V30 20 O -1.0317 1.5066 -1.3926 0
M  V30 21 C 5.1415 2.0395 0.167 0
M  V30 22 O 3.7872 2.4962 0.278 0
M  V30 23 O -3.5993 2.167 -0.3554 0
M  V30 24 H -0.8778 -3.3743 0.3297 0
M  V30 25 H -0.8254 -1.1674 -1.4092 0
M  V30 26 H -2.8794 -2.3097 -0.9747 0
M  V30 27 H -0.8108 -0.1611 1.5132 0
M  V30 28 H 3.6639 -3.0232 -0.2769 0
M  V30 29 H 1.0432 2.2841 0.4265 0
M  V30 30 H -2.7738 -1.285 1.6954 0
M  V30 31 H -3.1874 -0.0874 -1.7656 0
M  V30 32 H -1.1207 2.0803 0.6055 0
M  V30 33 H -4.9804 -0.4534 0.4315 0
M  V30 34 H -3.1344 0.8987 1.1564 0
M  V30 35 H -1.0619 2.493 -1.4996 0
M  V30 36 H 5.7229 2.3432 1.0626 0
M  V30 37 H 5.6052 2.4367 -0.7602 0
M  V30 38 H -3.5053 2.2305 -1.3413 0
M  V30 END ATOM
M  V30 BEGIN BOND
M  V30 1 2 1 2
M  V30 2 1 2 3
M  V30 3 1 2 4
M  V30 4 1 3 5
M  V30 5 2 4 6
M  V30 6 1 4 7
M  V30 7 1 5 8
M  V30 8 1 5 9
M  V30 9 1 6 10
M  V30 10 1 6 11
M  V30 11 2 7 12
M  V30 12 1 8 13
M  V30 13 1 8 14
M  V30 14 1 9 15
M  V30 15 1 11 16
M  V30 16 2 11 17
M  V30 17 1 14 18
M  V30 18 1 14 19
M  V30 19 1 15 20
M  V30 20 1 16 21
M  V30 21 1 17 22
M  V30 22 1 19 23
M  V30 23 1 7 9
M  V30 24 1 12 17
M  V30 25 1 15 19
M  V30 26 1 21 22
M  V30 27 1 3 24
M  V30 28 1 5 25
M  V30 29 1 8 26
M  V30 30 1 9 27
M  V30 31 1 10 28
M  V30 32 1 12 29
M  V30 33 1 13 30
M  V30 34 1 14 31
M  V30 35 1 15 32
M  V30 36 1 18 33
M  V30 37 1 19 34
M  V30 38 1 20 35
M  V30 39 1 21 36
M  V30 40 1 21 37
M  V30 41 1 23 38
M  V30 END BOND
M  V30 BEGIN COLLECTION
M  V30 MDLV30/STEABS ATOMS=(6 5 8 9 14 15 19)
M  V30 END COLLECTION
M  V30 END CTAB
M  END
>  <Structure No>
7240

>  <LogS>
-3.8

>  <MMFF94 Energy>
119.09

$$$$
Compound 7241
Actelion Java MolfileCreator 2.0

  0  0  0  0  0  0              0 V3000
M  V30 BEGIN CTAB
M  V30 COUNTS 23 24 0 0 0
M  V30 BEGIN ATOM
M  V30 1 Cl -1.0367 2.7662 -1.9012 0
M  V30 2 C -1.8064 1.4848 -0.9677 0
M  V30 3 C -3.0609 1.6913 -0.3642 0
M  V30 4 C -1.1446 0.2559 -0.8159 0
M  V30 5 Cl -3.8868 3.24 -0.5394 0
M  V30 6 C -3.6539 0.6571 0.3801 0
M  V30 7 O 0.1061 0.0741 -1.4204 0
M  V30 8 C -1.7566 -0.7813 -0.0874 0
M  V30 9 Cl -5.2209 0.868 1.1516 0
M  V30 10 C -3.0023 -0.5723 0.5097 0
M  V30 11 C 1.2903 -0.2112 -0.7243 0
M  V30 12 Cl -1.0131 -2.3698 0.0411 0
M  V30 13 C 2.4014 -0.6608 -1.4487 0
M  V30 14 C 1.4016 -0.0365 0.6693 0
M  V30 15 C 3.6027 -0.9508 -0.7943 0
M  V30 16 C 2.6043 -0.3277 1.3204 0
M  V30 17 C 3.7034 -0.7865 0.5897 0
M  V30 18 H -3.4709 -1.3725 1.069 0
M  V30 19 H 2.3312 -0.7899 -2.5213 0
M  V30 20 H 0.5664 0.3305 1.2509 0
M  V30 21 H 4.4554 -1.3024 -1.3605 0
M  V30 22 H 2.6852 -0.1942 2.3916 0
M  V30 23 H 4.6338 -1.0107 1.0951 0
M  V30 END ATOM
M  V30 BEGIN BOND
M  V30 1 1 1 2
M  V30 2 2 2 3
M  V30 3 1 2 4
M  V30 4 1 3 5
M  V30 5 1 3 6
M  V30 6 1 4 7
M  V30 7 2 4 8
M  V30 8 1 6 9
M  V30 9 2 6 10
M  V30 10 1 7 11
M  V30 11 1 8 12
M  V30 12 2 11 13
M  V30 13 1 11 14
M  V30 14 1 13 15
M  V30 15 2 14 16
M  V30 16 2 15 17
M  V30 17 1 8 10
M  V30 18 1 16 17
M  V30 19 1 10 18
M  V30 20 1 13 19
M  V30 21 1 14 20
M  V30 22 1 15 21
M  V30 23 1 16 22
M  V30 24 1 17 23
M  V30 END BOND
M  V30 END CTAB
M  END
>  <Structure No>
7241

>  <LogS>
-7.06

>  <MMFF94 Energy>
52.23

$$$$
Compound 7242
Actelion Java MolfileCreator 2.0

  0  0  0  0  0  0              0 V3000
M  V30 BEGIN CTAB
M  V30 COUNTS 30 32 0 0 0
M  V30 BEGIN ATOM
M  V30 1 F 3.5227 -3.1126 0.9002 0
M  V30 2 C 2.5429 -2.2327 0.5771 0
M  V30 3 C 2.784 -0.863 0.6569 0
M  V30 4 C 1.3047 -2.6996 0.1456 0
M  V30 5 C 1.7806 0.0622 0.3073 0
M  V30 6 C 0.2807 -1.7997 -0.1809 0
M  V30 7 C 2.0363 1.4426 0.3308 0
M  V30 8 C 0.5013 -0.403 -0.0966 0
M  V30 9 C -1.0165 -2.3293 -0.7092 0
M  V30 10 O 3.1638 1.868 0.7078 0
M  V30 11 C 1.0411 2.3446 -0.0825 0
M  V30 12 N -0.5003 0.4961 -0.4069 0
M  V30 13 C -2.1465 -1.3988 -0.3102 0
M  V30 14 C 1.2743 3.8147 -0.1283 0
M  V30 15 C -0.2076 1.8357 -0.4686 0
M  V30 16 C -1.8655 0.0349 -0.7985 0 CFG=1
M  V30 17 O 2.3964 4.3047 0.1673 0
M  V30 18 O 0.2498 4.6776 -0.5021 0 CHG=-1
M  V30 19 C -2.9818 0.949 -0.2469 0
M  V30 20 H 3.7638 -0.5298 0.9771 0
M  V30 21 H 1.1426 -3.7675 0.0635 0
M  V30 22 H -1.2252 -3.3418 -0.2989 0
M  V30 23 H -0.958 -2.4039 -1.8168 0
M  V30 24 H -3.0948 -1.7734 -0.7548 0
M  V30 25 H -2.2536 -1.4107 0.7982 0
M  V30 26 H -0.9501 2.5352 -0.823 0
M  V30 27 H -1.9326 0.0402 -1.9094 0
M  V30 28 H -2.803 1.1749 0.8262 0
M  V30 29 H -3.9758 0.4615 -0.3449 0
M  V30 30 H -3.0458 1.8957 -0.8209 0
M  V30 END ATOM
M  V30 BEGIN BOND
M  V30 1 1 1 2
M  V30 2 2 2 3
M  V30 3 1 2 4
M  V30 4 1 3 5
M  V30 5 2 4 6
M  V30 6 1 5 7
M  V30 7 2 5 8
M  V30 8 1 6 9
M  V30 9 2 7 10
M  V30 10 1 7 11
M  V30 11 1 8 12
M  V30 12 1 9 13
M  V30 13 1 11 14
M  V30 14 2 11 15
M  V30 15 1 12 16
M  V30 16 2 14 17
M  V30 17 1 14 18
M  V30 18 1 16 19
M  V30 19 1 6 8
M  V30 20 1 12 15
M  V30 21 1 13 16
M  V30 22 1 3 20
M  V30 23 1 4 21
M  V30 24 1 9 22
M  V30 25 1 9 23
M  V30 26 1 13 24
M  V30 27 1 13 25
M  V30 28 1 15 26
M  V30 29 1 16 27
M  V30 30 1 19 28
M  V30 31 1 19 29
M  V30 32 1 19 30
M  V30 END BOND
M  V30 BEGIN COLLECTION
M  V30 MDLV30/STEABS ATOMS=(1 16)
M  V30 END COLLECTION
M  V30 END CTAB
M  END
>  <Structure No>
7242

>  <LogS>
-3.74

>  <MMFF94 Energy>
27.82

$$$$
Compound 7243
Actelion Java MolfileCreator 2.0

  0  0  0  0  0  0              0 V3000
M  V30 BEGIN CTAB
M  V30 COUNTS 23 24 0 0 0
M  V30 BEGIN ATOM
M  V30 1 Cl 0.8638 2.4201 -0.6046 0
M  V30 2 C 1.7469 0.9069 -0.405 0
M  V30 3 C 1.2738 -0.0773 0.4867 0
M  V30 4 C 2.9499 0.6964 -1.1003 0
M  V30 5 O 0.0735 0.1008 1.1869 0
M  V30 6 C 2.0235 -1.2446 0.7032 0
M  V30 7 Cl 3.5754 1.8931 -2.2279 0
M  V30 8 C 3.6784 -0.4784 -0.8954 0
M  V30 9 C -1.1887 0.2041 0.5829 0
M  V30 10 Cl 1.4309 -2.4564 1.8365 0
M  V30 11 C 3.2253 -1.446 0.0051 0
M  V30 12 C -2.2674 0.6502 1.3572 0
M  V30 13 C -1.4068 -0.1466 -0.7642 0
M  V30 14 Cl 4.1834 -2.9026 0.2378 0
M  V30 15 C -3.5433 0.7628 0.7957 0
M  V30 16 C -2.6839 -0.0325 -1.3224 0
M  V30 17 C -3.751 0.4236 -0.5439 0
M  V30 18 H 4.6053 -0.6366 -1.4327 0
M  V30 19 H -2.1146 0.9146 2.3959 0
M  V30 20 H -0.5967 -0.5136 -1.3803 0
M  V30 21 H -4.3709 1.1126 1.3993 0
M  V30 22 H -2.847 -0.3009 -2.3582 0
M  V30 23 H -4.739 0.5106 -0.9774 0
M  V30 END ATOM
M  V30 BEGIN BOND
M  V30 1 1 1 2
M  V30 2 2 2 3
M  V30 3 1 2 4
M  V30 4 1 3 5
M  V30 5 1 3 6
M  V30 6 1 4 7
M  V30 7 2 4 8
M  V30 8 1 5 9
M  V30 9 1 6 10
M  V30 10 2 6 11
M  V30 11 2 9 12
M  V30 12 1 9 13
M  V30 13 1 11 14
M  V30 14 1 12 15
M  V30 15 2 13 16
M  V30 16 2 15 17
M  V30 17 1 8 11
M  V30 18 1 16 17
M  V30 19 1 8 18
M  V30 20 1 12 19
M  V30 21 1 13 20
M  V30 22 1 15 21
M  V30 23 1 16 22
M  V30 24 1 17 23
M  V30 END BOND
M  V30 END CTAB
M  END
>  <Structure No>
7243

>  <LogS>
-7.02

>  <MMFF94 Energy>
54.296

$$$$
Compound 7244
Actelion Java MolfileCreator 2.0

  0  0  0  0  0  0              0 V3000
M  V30 BEGIN CTAB
M  V30 COUNTS 36 37 0 0 0
M  V30 BEGIN ATOM
M  V30 1 O -5.1698 -1.0323 0.5557 0
M  V30 2 C -4.0328 -0.5199 0.3511 0
M  V30 3 N -2.957 -1.3349 0.0445 0
M  V30 4 N -3.8827 0.8469 0.4225 0
M  V30 5 C -1.7307 -0.7845 -0.253 0
M  V30 6 C -3.1481 -2.7917 -0.0558 0
M  V30 7 C -2.6585 1.3712 0.1447 0
M  V30 8 C -5.0278 1.7233 0.7043 0
M  V30 9 O -0.7735 -1.5113 -0.6314 0
M  V30 10 C -1.5862 0.5992 -0.1617 0
M  V30 11 N -2.3425 2.6794 0.0865 0
M  V30 12 N -0.5347 1.4064 -0.4169 0
M  V30 13 C -1.0322 2.6592 -0.2626 0
M  V30 14 C 0.8306 1.0896 -0.7291 0
M  V30 15 O 1.5401 1.936 -1.3396 0
M  V30 16 O 1.3886 -0.1243 -0.3142 0
M  V30 17 C 2.7546 -0.4769 -0.5229 0
M  V30 18 C 3.6534 0.2392 0.4928 0
M  V30 19 C 5.1468 -0.0253 0.2502 0
M  V30 20 C 5.5565 -1.4578 0.5913 0
M  V30 21 H -3.9078 -3.1478 0.6725 0
M  V30 22 H -3.4761 -3.0542 -1.0835 0
M  V30 23 H -2.2105 -3.3394 0.1789 0
M  V30 24 H -4.6967 2.7003 1.1169 0
M  V30 25 H -5.5999 1.9002 -0.2305 0
M  V30 26 H -5.6976 1.2632 1.4621 0
M  V30 27 H -0.4434 3.5593 -0.3871 0
M  V30 28 H 2.8466 -1.5743 -0.389 0
M  V30 29 H 3.058 -0.2293 -1.5638 0
M  V30 30 H 3.482 1.3343 0.4174 0
M  V30 31 H 3.3739 -0.072 1.523 0
M  V30 32 H 5.7344 0.6663 0.8921 0
M  V30 33 H 5.4075 0.1952 -0.8076 0
M  V30 34 H 5.2565 -1.7113 1.6303 0
M  V30 35 H 6.6595 -1.5551 0.5089 0
M  V30 36 H 5.0932 -2.1779 -0.1142 0
M  V30 END ATOM
M  V30 BEGIN BOND
M  V30 1 2 1 2
M  V30 2 1 2 3
M  V30 3 1 2 4
M  V30 4 1 3 5
M  V30 5 1 3 6
M  V30 6 1 4 7
M  V30 7 1 4 8
M  V30 8 2 5 9
M  V30 9 1 5 10
M  V30 10 1 7 11
M  V30 11 1 10 12
M  V30 12 2 11 13
M  V30 13 1 12 14
M  V30 14 2 14 15
M  V30 15 1 14 16
M  V30 16 1 16 17
M  V30 17 1 17 18
M  V30 18 1 18 19
M  V30 19 1 19 20
M  V30 20 2 7 10
M  V30 21 1 12 13
M  V30 22 1 6 21
M  V30 23 1 6 22
M  V30 24 1 6 23
M  V30 25 1 8 24
M  V30 26 1 8 25
M  V30 27 1 8 26
M  V30 28 1 13 27
M  V30 29 1 17 28
M  V30 30 1 17 29
M  V30 31 1 18 30
M  V30 32 1 18 31
M  V30 33 1 19 32
M  V30 34 1 19 33
M  V30 35 1 20 34
M  V30 36 1 20 35
M  V30 37 1 20 36
M  V30 END BOND
M  V30 END CTAB
M  END
>  <Structure No>
7244

>  <LogS>
-1.93

>  <MMFF94 Energy>
-126.83

$$$$
Compound 7245
Actelion Java MolfileCreator 2.0

  0  0  0  0  0  0              0 V3000
M  V30 BEGIN CTAB
M  V30 COUNTS 39 40 0 0 0
M  V30 BEGIN ATOM
M  V30 1 O -4.446 1.9829 2.0623 0
M  V30 2 C -3.6128 1.5583 1.2123 0
M  V30 3 N -3.1041 0.2749 1.3302 0
M  V30 4 N -3.2254 2.3778 0.1736 0
M  V30 5 C -2.2543 -0.2244 0.3692 0
M  V30 6 C -3.5381 -0.5849 2.444 0
M  V30 7 C -2.3799 1.8657 -0.7613 0
M  V30 8 C -3.7708 3.7341 0.0276 0
M  V30 9 O -1.814 -1.4048 0.4351 0
M  V30 10 C -1.8972 0.6045 -0.6868 0
M  V30 11 N -1.9131 2.4938 -1.8593 0
M  V30 12 N -1.1025 0.3807 -1.7479 0
M  V30 13 C -1.1263 1.5485 -2.4362 0
M  V30 14 C -0.3323 -0.8144 -2.0797 0
M  V30 15 O 0.7304 -0.9674 -1.1455 0
M  V30 16 C 1.6191 -2.0449 -1.1849 0
M  V30 17 O 1.5213 -2.9281 -2.0802 0
M  V30 18 C 2.7251 -2.1218 -0.1814 0
M  V30 19 C 3.942 -1.3249 -0.6678 0
M  V30 20 C 5.1483 -1.4572 0.2743 0
M  V30 21 C 4.9478 -0.7186 1.5975 0
M  V30 22 H -4.4802 -1.1037 2.1682 0
M  V30 23 H -3.7056 0.0113 3.3664 0
M  V30 24 H -2.7661 -1.3423 2.6973 0
M  V30 25 H -3.9118 4.2113 1.0209 0
M  V30 26 H -3.0795 4.3853 -0.5484 0
M  V30 27 H -4.7478 3.6874 -0.4976 0
M  V30 28 H -0.5748 1.717 -3.3525 0
M  V30 29 H 0.0856 -0.7247 -3.1063 0
M  V30 30 H -0.9968 -1.7047 -2.0511 0
M  V30 31 H 3.0054 -3.1859 -0.021 0
M  V30 32 H 2.356 -1.7096 0.7811 0
M  V30 33 H 3.6711 -0.2519 -0.7845 0
M  V30 34 H 4.2443 -1.7066 -1.668 0
M  V30 35 H 5.3624 -2.5296 0.4742 0
M  V30 36 H 6.0385 -1.0261 -0.2329 0
M  V30 37 H 4.6861 0.3451 1.4133 0
M  V30 38 H 5.8894 -0.7533 2.1851 0
M  V30 39 H 4.1481 -1.198 2.199 0
M  V30 END ATOM
M  V30 BEGIN BOND
M  V30 1 2 1 2
M  V30 2 1 2 3
M  V30 3 1 2 4
M  V30 4 1 3 5
M  V30 5 1 3 6
M  V30 6 1 4 7
M  V30 7 1 4 8
M  V30 8 2 5 9
M  V30 9 1 5 10
M  V30 10 1 7 11
M  V30 11 1 10 12
M  V30 12 2 11 13
M  V30 13 1 12 14
M  V30 14 1 14 15
M  V30 15 1 15 16
M  V30 16 2 16 17
M  V30 17 1 16 18
M  V30 18 1 18 19
M  V30 19 1 19 20
M  V30 20 1 20 21
M  V30 21 2 7 10
M  V30 22 1 12 13
M  V30 23 1 6 22
M  V30 24 1 6 23
M  V30 25 1 6 24
M  V30 26 1 8 25
M  V30 27 1 8 26
M  V30 28 1 8 27
M  V30 29 1 13 28
M  V30 30 1 14 29
M  V30 31 1 14 30
M  V30 32 1 18 31
M  V30 33 1 18 32
M  V30 34 1 19 33
M  V30 35 1 19 34
M  V30 36 1 20 35
M  V30 37 1 20 36
M  V30 38 1 21 37
M  V30 39 1 21 38
M  V30 40 1 21 39
M  V30 END BOND
M  V30 END CTAB
M  END
>  <Structure No>
7245

>  <LogS>
-2.37

>  <MMFF94 Energy>
-147.35

$$$$
Compound 7246
Actelion Java MolfileCreator 2.0

  0  0  0  0  0  0              0 V3000
M  V30 BEGIN CTAB
M  V30 COUNTS 29 29 0 0 0
M  V30 BEGIN ATOM
M  V30 1 S 4.4822 1.0777 -1.9902 0
M  V30 2 O 5.8227 1.6425 -1.611 0
M  V30 3 O 3.7107 2.1129 -2.7591 0
M  V30 4 N 4.7074 -0.3302 -2.9676 0
M  V30 5 C 3.5982 0.6489 -0.5406 0
M  V30 6 S 2.0364 0.0222 -0.5258 0
M  V30 7 N 4.1016 0.7644 0.7071 0
M  V30 8 C 2.0654 -0.0501 1.1617 0
M  V30 9 N 3.2521 0.367 1.653 0
M  V30 10 N 1.0399 -0.5961 1.9993 0 CHG=-1
M  V30 11 C -0.3373 -0.7916 1.6527 0
M  V30 12 O -1.0031 -1.6531 2.2861 0
M  V30 13 C -1.0067 0.0024 0.5627 0
M  V30 14 N -2.4156 0.2629 0.8906 0
M  V30 15 C -3.4643 -0.1482 -0.0097 0
M  V30 16 C -2.7479 1.0703 2.0692 0
M  V30 17 N -4.5832 -0.6184 0.4543 0 CHG=1
M  V30 18 N -3.2849 -0.0195 -1.4248 0
M  V30 19 H 5.2824 -1.0007 -2.41 0
M  V30 20 H 5.2877 -0.0435 -3.7875 0
M  V30 21 H -0.4909 0.9758 0.422 0
M  V30 22 H -0.9192 -0.5821 -0.3772 0
M  V30 23 H -3.4108 1.9123 1.7761 0
M  V30 24 H -3.2584 0.4435 2.8292 0
M  V30 25 H -1.8315 1.4966 2.531 0
M  V30 26 H -5.3514 -0.9065 -0.1919 0
M  V30 27 H -4.7395 -0.7407 1.479 0
M  V30 28 H -4.0179 -0.3537 -2.0896 0
M  V30 29 H -2.4485 0.4668 -1.8161 0
M  V30 END ATOM
M  V30 BEGIN BOND
M  V30 1 2 1 2
M  V30 2 2 1 3
M  V30 3 1 1 4
M  V30 4 1 1 5
M  V30 5 1 5 6
M  V30 6 2 5 7
M  V30 7 1 6 8
M  V30 8 1 7 9
M  V30 9 1 8 10
M  V30 10 1 10 11
M  V30 11 2 11 12
M  V30 12 1 11 13
M  V30 13 1 13 14
M  V30 14 1 14 15
M  V30 15 1 14 16
M  V30 16 2 15 17
M  V30 17 1 15 18
M  V30 18 2 8 9
M  V30 19 1 4 19
M  V30 20 1 4 20
M  V30 21 1 13 21
M  V30 22 1 13 22
M  V30 23 1 16 23
M  V30 24 1 16 24
M  V30 25 1 16 25
M  V30 26 1 17 26
M  V30 27 1 17 27
M  V30 28 1 18 28
M  V30 29 1 18 29
M  V30 END BOND
M  V30 END CTAB
M  END
>  <Structure No>
7246

>  <LogS>
-1.14

>  <MMFF94 Energy>
-226.05

$$$$
Compound 7247
Actelion Java MolfileCreator 2.0

  0  0  0  0  0  0              0 V3000
M  V30 BEGIN CTAB
M  V30 COUNTS 29 30 0 0 0
M  V30 BEGIN ATOM
M  V30 1 Cl 4.1898 -0.8205 2.2165 0
M  V30 2 C 3.2586 0.1013 1.0511 0
M  V30 3 C 2.3806 -0.5648 0.1736 0
M  V30 4 C 3.3928 1.5091 0.9986 0
M  V30 5 C 1.6602 0.2133 -0.7351 0
M  V30 6 C 2.6503 2.2633 0.0712 0
M  V30 7 N 0.7617 -0.163 -1.6655 0
M  V30 8 C 1.7912 1.5749 -0.7792 0
M  V30 9 C 0.3818 1.0123 -2.2257 0
M  V30 10 C 0.2245 -1.4937 -1.9514 0
M  V30 11 O 0.9975 2.0589 -1.7048 0
M  V30 12 O -0.478 1.1026 -3.1416 0
M  V30 13 O -1.1195 -1.5819 -1.4878 0
M  V30 14 C -1.4596 -1.6001 -0.1317 0
M  V30 15 O -0.5706 -1.7079 0.7559 0
M  V30 16 C -2.8928 -1.4365 0.2678 0
M  V30 17 C -3.3415 0.0231 0.1393 0
M  V30 18 C -2.6242 0.9091 1.1121 0
M  V30 19 O -3.0267 0.9997 2.3017 0
M  V30 20 O -1.4854 1.5993 0.7164 0 CHG=-1
M  V30 21 H 2.2742 -1.6402 0.2103 0
M  V30 22 H 4.069 2.0141 1.6763 0
M  V30 23 H 2.7408 3.3405 0.024 0
M  V30 24 H 0.2338 -1.6604 -3.0488 0
M  V30 25 H 0.8449 -2.2892 -1.4884 0
M  V30 26 H -3.0448 -1.7917 1.3108 0
M  V30 27 H -3.5207 -2.0668 -0.3972 0
M  V30 28 H -4.4344 0.0837 0.3318 0
M  V30 29 H -3.1634 0.3857 -0.8966 0
M  V30 END ATOM
M  V30 BEGIN BOND
M  V30 1 1 1 2
M  V30 2 2 2 3
M  V30 3 1 2 4
M  V30 4 1 3 5
M  V30 5 2 4 6
M  V30 6 1 5 7
M  V30 7 2 5 8
M  V30 8 1 7 9
M  V30 9 1 7 10
M  V30 10 1 8 11
M  V30 11 2 9 12
M  V30 12 1 10 13
M  V30 13 1 13 14
M  V30 14 2 14 15
M  V30 15 1 14 16
M  V30 16 1 16 17
M  V30 17 1 17 18
M  V30 18 2 18 19
M  V30 19 1 18 20
M  V30 20 1 6 8
M  V30 21 1 9 11
M  V30 22 1 3 21
M  V30 23 1 4 22
M  V30 24 1 6 23
M  V30 25 1 10 24
M  V30 26 1 10 25
M  V30 27 1 16 26
M  V30 28 1 16 27
M  V30 29 1 17 28
M  V30 30 1 17 29
M  V30 END BOND
M  V30 END CTAB
M  END
>  <Structure No>
7247

>  <LogS>
-3.41

>  <MMFF94 Energy>
-48.246

$$$$
Compound 7248
Actelion Java MolfileCreator 2.0

  0  0  0  0  0  0              0 V3000
M  V30 BEGIN CTAB
M  V30 COUNTS 43 46 0 0 0
M  V30 BEGIN ATOM
M  V30 1 O 2.0149 -0.4833 -1.4504 0
M  V30 2 C 1.3271 -0.8266 -0.4505 0
M  V30 3 C 1.8171 -0.4675 0.8985 0
M  V30 4 C 0.0876 -1.6903 -0.6403 0 CFG=2
M  V30 5 C 2.0117 0.8782 1.2924 0
M  V30 6 C 2.0878 -1.4941 1.8144 0
M  V30 7 N -0.4688 -1.5899 -2.0235 0 CHG=1 CFG=2
M  V30 8 C -1.0292 -1.3777 0.4068 0
M  V30 9 C 2.501 1.1386 2.5971 0
M  V30 10 C 1.7049 1.9682 0.4509 0
M  V30 11 C 2.5672 -1.1836 3.0865 0
M  V30 12 C -1.0402 -0.238 -2.2671 0
M  V30 13 C -1.5374 -2.608 -2.1956 0
M  V30 14 C -2.3707 -1.1423 -0.3209 0 CFG=1
M  V30 15 N 2.7641 0.1102 3.4459 0
M  V30 16 C 2.7018 2.4563 3.0241 0
M  V30 17 C 1.9051 3.2792 0.8922 0
M  V30 18 C -2.2254 0.0532 -1.2974 0 CFG=1
M  V30 19 C -2.6735 -2.3994 -1.1606 0
M  V30 20 C 2.4065 3.5227 2.1723 0
M  V30 21 C -2.0641 1.3727 -0.5703 0
M  V30 22 C -2.0211 2.5326 -1.2326 0
M  V30 23 H 0.4272 -2.7379 -0.4728 0
M  V30 24 H 1.9429 -2.532 1.5412 0
M  V30 25 H 0.28 -1.7832 -2.7299 0
M  V30 26 H -0.7894 -0.491 1.0287 0
M  V30 27 H -1.1335 -2.2337 1.1092 0
M  V30 28 H 1.2992 1.8203 -0.5404 0
M  V30 29 H 2.7853 -1.9752 3.7908 0
M  V30 30 H -0.246 0.5343 -2.1764 0
M  V30 31 H -1.4018 -0.1684 -3.3178 0
M  V30 32 H -1.1122 -3.6309 -2.0843 0
M  V30 33 H -1.9554 -2.5505 -3.2261 0
M  V30 34 H -3.1891 -0.9633 0.4107 0
M  V30 35 H 3.0794 2.6562 4.0194 0
M  V30 36 H 1.6668 4.1098 0.2401 0
M  V30 37 H -3.1641 0.1245 -1.8929 0
M  V30 38 H -3.6491 -2.2833 -1.6819 0
M  V30 39 H -2.7532 -3.2879 -0.4964 0
M  V30 40 H 2.5591 4.5403 2.5079 0
M  V30 41 H -2.0197 1.3984 0.5142 0
M  V30 42 H -2.0845 2.5597 -2.3161 0
M  V30 43 H -1.9201 3.4657 -0.6878 0
M  V30 END ATOM
M  V30 BEGIN BOND
M  V30 1 2 1 2
M  V30 2 1 2 3
M  V30 3 1 2 4
M  V30 4 1 3 5
M  V30 5 2 3 6
M  V30 6 1 4 7
M  V30 7 1 4 8
M  V30 8 1 5 9
M  V30 9 2 5 10
M  V30 10 1 6 11
M  V30 11 1 7 12
M  V30 12 1 7 13
M  V30 13 1 8 14
M  V30 14 1 9 15
M  V30 15 2 9 16
M  V30 16 1 10 17
M  V30 17 1 12 18
M  V30 18 1 13 19
M  V30 19 1 16 20
M  V30 20 1 18 21
M  V30 21 2 21 22
M  V30 22 2 11 15
M  V30 23 1 14 18
M  V30 24 1 14 19
M  V30 25 2 17 20
M  V30 26 1 4 23
M  V30 27 1 6 24
M  V30 28 1 7 25
M  V30 29 1 8 26
M  V30 30 1 8 27
M  V30 31 1 10 28
M  V30 32 1 11 29
M  V30 33 1 12 30
M  V30 34 1 12 31
M  V30 35 1 13 32
M  V30 36 1 13 33
M  V30 37 1 14 34
M  V30 38 1 16 35
M  V30 39 1 17 36
M  V30 40 1 18 37
M  V30 41 1 19 38
M  V30 42 1 19 39
M  V30 43 1 20 40
M  V30 44 1 21 41
M  V30 45 1 22 42
M  V30 46 1 22 43
M  V30 END BOND
M  V30 BEGIN COLLECTION
M  V30 MDLV30/STEABS ATOMS=(4 4 7 14 18)
M  V30 END COLLECTION
M  V30 END CTAB
M  END
>  <Structure No>
7248

>  <LogS>
-3.19

>  <MMFF94 Energy>
108.54

$$$$
Compound 7249
Actelion Java MolfileCreator 2.0

  0  0  0  0  0  0              0 V3000
M  V30 BEGIN CTAB
M  V30 COUNTS 39 41 0 0 0
M  V30 BEGIN ATOM
M  V30 1 O -4.6436 -0.0813 2.0346 0
M  V30 2 N -4.1147 -0.9919 1.3661 0 CHG=1
M  V30 3 O -4.5786 -2.2786 1.5159 0 CHG=-1
M  V30 4 C -2.9037 -0.7454 0.6336 0
M  V30 5 C -2.7063 0.4494 -0.0895 0
M  V30 6 C -1.8958 -1.7221 0.6269 0
M  V30 7 N -3.7337 1.435 -0.2084 0
M  V30 8 C -1.4979 0.665 -0.7584 0
M  V30 9 C -0.6875 -1.5208 -0.0598 0
M  V30 10 C -4.2326 2.7313 -0.7566 0
M  V30 11 C -5.0982 1.9985 0.0253 0
M  V30 12 C -0.4744 -0.2924 -0.7312 0
M  V30 13 N 0.2837 -2.5832 -0.0916 0 CHG=1
M  V30 14 C 0.8118 0.0383 -1.3832 0
M  V30 15 O 0.9826 -2.7764 -1.1076 0
M  V30 16 O 0.337 -3.5006 0.9324 0 CHG=-1
M  V30 17 O 0.8004 0.4462 -2.5767 0
M  V30 18 N 2.0651 -0.0717 -0.6784 0
M  V30 19 C 2.1167 0.0269 0.7895 0
M  V30 20 C 3.3091 -0.2238 -1.4481 0
M  V30 21 C 3.3826 0.7703 1.2244 0
M  V30 22 C 4.4399 -0.7603 -0.5644 0
M  V30 23 C 4.6683 0.1163 0.6797 0
M  V30 24 H -2.0576 -2.6526 1.1563 0
M  V30 25 H -1.3506 1.5969 -1.2927 0
M  V30 26 H -3.7248 3.5921 -0.2726 0
M  V30 27 H -4.3787 2.6711 -1.8557 0
M  V30 28 H -5.8743 1.409 -0.5066 0
M  V30 29 H -5.2249 2.3446 1.0727 0
M  V30 30 H 2.1083 -0.9913 1.2331 0
M  V30 31 H 1.2367 0.5863 1.1755 0
M  V30 32 H 3.1492 -0.9414 -2.2825 0
M  V30 33 H 3.5994 0.7585 -1.8794 0
M  V30 34 H 3.32 1.8159 0.8497 0
M  V30 35 H 3.4255 0.815 2.3343 0
M  V30 36 H 5.379 -0.8234 -1.1554 0
M  V30 37 H 4.1764 -1.7914 -0.2401 0
M  V30 38 H 5.1273 -0.5117 1.4742 0
M  V30 39 H 5.3992 0.9172 0.4329 0
M  V30 END ATOM
M  V30 BEGIN BOND
M  V30 1 2 1 2
M  V30 2 1 2 3
M  V30 3 1 2 4
M  V30 4 2 4 5
M  V30 5 1 4 6
M  V30 6 1 5 7
M  V30 7 1 5 8
M  V30 8 2 6 9
M  V30 9 1 7 10
M  V30 10 1 7 11
M  V30 11 2 8 12
M  V30 12 1 9 13
M  V30 13 1 12 14
M  V30 14 2 13 15
M  V30 15 1 13 16
M  V30 16 2 14 17
M  V30 17 1 14 18
M  V30 18 1 18 19
M  V30 19 1 18 20
M  V30 20 1 19 21
M  V30 21 1 20 22
M  V30 22 1 21 23
M  V30 23 1 9 12
M  V30 24 1 10 11
M  V30 25 1 22 23
M  V30 26 1 6 24
M  V30 27 1 8 25
M  V30 28 1 10 26
M  V30 29 1 10 27
M  V30 30 1 11 28
M  V30 31 1 11 29
M  V30 32 1 19 30
M  V30 33 1 19 31
M  V30 34 1 20 32
M  V30 35 1 20 33
M  V30 36 1 21 34
M  V30 37 1 21 35
M  V30 38 1 22 36
M  V30 39 1 22 37
M  V30 40 1 23 38
M  V30 41 1 23 39
M  V30 END BOND
M  V30 END CTAB
M  END
>  <Structure No>
7249

>  <LogS>
-3.17

>  <MMFF94 Energy>
65.637

$$$$
Compound 7250
Actelion Java MolfileCreator 2.0

  0  0  0  0  0  0              0 V3000
M  V30 BEGIN CTAB
M  V30 COUNTS 37 40 0 0 0
M  V30 BEGIN ATOM
M  V30 1 C 0.9654 0.2412 -0.0804 0
M  V30 2 C 2.3564 0.5816 -0.1548 0
M  V30 3 C 0.5788 -1.0589 0.3591 0
M  V30 4 C -0.0498 1.1587 -0.4172 0
M  V30 5 C 3.3254 -0.3732 0.2576 0
M  V30 6 C 2.8292 1.8339 -0.6284 0
M  V30 7 C -0.7986 -1.4278 0.3951 0
M  V30 8 C 1.5802 -1.9638 0.7702 0
M  V30 9 C -1.4044 0.8313 -0.3211 0
M  V30 10 C 2.9242 -1.6246 0.7209 0
M  V30 11 C 4.6958 -0.0688 0.2079 0
M  V30 12 C 4.1963 2.1176 -0.6726 0
M  V30 13 C -1.7951 -0.4493 0.131 0
M  V30 14 C -1.1947 -2.8562 0.7341 0
M  V30 15 C -2.4121 1.9224 -0.619 0
M  V30 16 C 5.1261 1.1717 -0.2538 0
M  V30 17 C -3.274 -0.794 0.2552 0
M  V30 18 C -3.8224 1.3847 -0.848 0
M  V30 19 C -4.1951 0.4275 0.2753 0
M  V30 20 H 0.1759 2.1636 -0.7305 0
M  V30 21 H 2.1771 2.6133 -0.9831 0
M  V30 22 H 1.3429 -2.9428 1.1612 0
M  V30 23 H 3.6583 -2.3522 1.0486 0
M  V30 24 H 5.4362 -0.7937 0.5257 0
M  V30 25 H 4.5362 3.0787 -1.0373 0
M  V30 26 H -2.2272 -3.114 0.4308 0
M  V30 27 H -1.0902 -3.0245 1.8265 0
M  V30 28 H -0.557 -3.5758 0.1798 0
M  V30 29 H -2.1027 2.488 -1.5253 0
M  V30 30 H -2.4269 2.6326 0.2365 0
M  V30 31 H 6.1837 1.3989 -0.2909 0
M  V30 32 H -3.5607 -1.4407 -0.6025 0
M  V30 33 H -3.4543 -1.354 1.1983 0
M  V30 34 H -4.5416 2.232 -0.8691 0
M  V30 35 H -3.8747 0.8606 -1.828 0
M  V30 36 H -4.1149 0.9458 1.2568 0
M  V30 37 H -5.2485 0.0968 0.1469 0
M  V30 END ATOM
M  V30 BEGIN BOND
M  V30 1 2 1 2
M  V30 2 1 1 3
M  V30 3 1 1 4
M  V30 4 1 2 5
M  V30 5 1 2 6
M  V30 6 1 3 7
M  V30 7 2 3 8
M  V30 8 2 4 9
M  V30 9 2 5 10
M  V30 10 1 5 11
M  V30 11 2 6 12
M  V30 12 2 7 13
M  V30 13 1 7 14
M  V30 14 1 9 15
M  V30 15 2 11 16
M  V30 16 1 13 17
M  V30 17 1 15 18
M  V30 18 1 17 19
M  V30 19 1 8 10
M  V30 20 1 9 13
M  V30 21 1 12 16
M  V30 22 1 18 19
M  V30 23 1 4 20
M  V30 24 1 6 21
M  V30 25 1 8 22
M  V30 26 1 10 23
M  V30 27 1 11 24
M  V30 28 1 12 25
M  V30 29 1 14 26
M  V30 30 1 14 27
M  V30 31 1 14 28
M  V30 32 1 15 29
M  V30 33 1 15 30
M  V30 34 1 16 31
M  V30 35 1 17 32
M  V30 36 1 17 33
M  V30 37 1 18 34
M  V30 38 1 18 35
M  V30 39 1 19 36
M  V30 40 1 19 37
M  V30 END BOND
M  V30 END CTAB
M  END
>  <Structure No>
7250

>  <LogS>
-6.75

>  <MMFF94 Energy>
65.791

$$$$
Compound 7251
Actelion Java MolfileCreator 2.0

  0  0  0  0  0  0              0 V3000
M  V30 BEGIN CTAB
M  V30 COUNTS 42 43 0 0 0
M  V30 BEGIN ATOM
M  V30 1 O -5.159 1.5852 0.5546 0
M  V30 2 C -4.2113 0.7807 0.3269 0
M  V30 3 N -3.1878 1.1489 -0.5314 0
M  V30 4 N -4.2128 -0.4576 0.9325 0
M  V30 5 C -2.1895 0.2539 -0.8433 0
M  V30 6 C -3.2124 2.4724 -1.1766 0
M  V30 7 C -3.2118 -1.3234 0.6163 0
M  V30 8 C -5.3034 -0.8643 1.8288 0
M  V30 9 O -1.2756 0.5525 -1.66 0
M  V30 10 C -2.2182 -0.9981 -0.2418 0
M  V30 11 N -3.0577 -2.5828 1.0729 0
M  V30 12 N -1.3876 -2.0482 -0.3622 0
M  V30 13 C -1.9228 -2.9931 0.4496 0
M  V30 14 C -0.1621 -2.1635 -1.1514 0
M  V30 15 O 0.8148 -1.2394 -0.6798 0
M  V30 16 C 1.4157 -1.3384 0.579 0
M  V30 17 O 1.1747 -2.3193 1.3346 0
M  V30 18 C 2.3885 -0.2881 1.0104 0
M  V30 19 C 3.7815 -0.58 0.4378 0
M  V30 20 C 4.8031 0.5179 0.8011 0
M  V30 21 C 5.0792 1.5053 -0.3454 0
M  V30 22 C 3.8694 2.3687 -0.6971 0
M  V30 23 H -2.1866 2.8248 -1.4172 0
M  V30 24 H -3.808 2.4191 -2.1122 0
M  V30 25 H -3.6559 3.2375 -0.5039 0
M  V30 26 H -6.1673 -1.217 1.2269 0
M  V30 27 H -4.9823 -1.6785 2.513 0
M  V30 28 H -5.6244 -0.0128 2.4664 0
M  V30 29 H -1.4913 -3.9754 0.5935 0
M  V30 30 H -0.3879 -1.9414 -2.2154 0
M  V30 31 H 0.2411 -3.1987 -1.0999 0
M  V30 32 H 2.0213 0.6992 0.6631 0
M  V30 33 H 2.4377 -0.2616 2.1212 0
M  V30 34 H 4.1336 -1.5464 0.8621 0
M  V30 35 H 3.7222 -0.7109 -0.6655 0
M  V30 36 H 5.7681 0.0239 1.0486 0
M  V30 37 H 4.4922 1.0732 1.7137 0
M  V30 38 H 5.4161 0.9531 -1.2495 0
M  V30 39 H 5.9093 2.177 -0.0358 0
M  V30 40 H 3.0791 1.7537 -1.1756 0
M  V30 41 H 4.1752 3.1559 -1.4181 0
M  V30 42 H 3.4634 2.8607 0.2123 0
M  V30 END ATOM
M  V30 BEGIN BOND
M  V30 1 2 1 2
M  V30 2 1 2 3
M  V30 3 1 2 4
M  V30 4 1 3 5
M  V30 5 1 3 6
M  V30 6 1 4 7
M  V30 7 1 4 8
M  V30 8 2 5 9
M  V30 9 1 5 10
M  V30 10 1 7 11
M  V30 11 1 10 12
M  V30 12 2 11 13
M  V30 13 1 12 14
M  V30 14 1 14 15
M  V30 15 1 15 16
M  V30 16 2 16 17
M  V30 17 1 16 18
M  V30 18 1 18 19
M  V30 19 1 19 20
M  V30 20 1 20 21
M  V30 21 1 21 22
M  V30 22 2 7 10
M  V30 23 1 12 13
M  V30 24 1 6 23
M  V30 25 1 6 24
M  V30 26 1 6 25
M  V30 27 1 8 26
M  V30 28 1 8 27
M  V30 29 1 8 28
M  V30 30 1 13 29
M  V30 31 1 14 30
M  V30 32 1 14 31
M  V30 33 1 18 32
M  V30 34 1 18 33
M  V30 35 1 19 34
M  V30 36 1 19 35
M  V30 37 1 20 36
M  V30 38 1 20 37
M  V30 39 1 21 38
M  V30 40 1 21 39
M  V30 41 1 22 40
M  V30 42 1 22 41
M  V30 43 1 22 42
M  V30 END BOND
M  V30 END CTAB
M  END
>  <Structure No>
7251

>  <LogS>
-2.64

>  <MMFF94 Energy>
-147.58

$$$$
Compound 7252
Actelion Java MolfileCreator 2.0

  0  0  0  0  0  0              0 V3000
M  V30 BEGIN CTAB
M  V30 COUNTS 32 33 0 0 0
M  V30 BEGIN ATOM
M  V30 1 S 2.9418 -0.4898 1.1432 0
M  V30 2 C 1.2383 -0.074 1.5114 0
M  V30 3 C 2.9685 0.4811 -0.4006 0
M  V30 4 N 0.9379 1.0346 2.2515 0
M  V30 5 C 0.1811 -0.8534 1.0605 0
M  V30 6 O 4.2549 0.4002 -1.0066 0
M  V30 7 C -0.3612 1.3741 2.5353 0
M  V30 8 N 0.1996 -1.9637 0.2983 0
M  V30 9 C -1.0904 -0.5003 1.3555 0
M  V30 10 C 5.3871 1.0354 -0.4851 0
M  V30 11 N -1.3951 0.6027 2.0813 0
M  V30 12 C -1.1243 -2.2529 0.1586 0
M  V30 13 N -1.9362 -1.3793 0.807 0
M  V30 14 O 5.3038 1.7642 0.5408 0
M  V30 15 C 6.6967 0.8908 -1.1826 0
M  V30 16 C -3.3932 -1.333 0.7848 0
M  V30 17 O -3.822 -0.4712 -0.2636 0
M  V30 18 C -5.1711 -0.2227 -0.5304 0
M  V30 19 O -6.0752 -0.7457 0.1765 0
M  V30 20 C -5.5425 0.7104 -1.6321 0
M  V30 21 H 2.7091 1.543 -0.1977 0
M  V30 22 H 2.2193 0.0617 -1.1044 0
M  V30 23 H -0.569 2.2594 3.1205 0
M  V30 24 H -1.4888 -3.0888 -0.4244 0
M  V30 25 H 6.8518 1.7555 -1.8608 0
M  V30 26 H 6.7076 -0.0459 -1.778 0
M  V30 27 H 7.5219 0.8535 -0.4405 0
M  V30 28 H -3.7698 -0.9555 1.7606 0
M  V30 29 H -3.7982 -2.3554 0.6203 0
M  V30 30 H -5.7221 1.7228 -1.2145 0
M  V30 31 H -4.7209 0.7639 -2.3768 0
M  V30 32 H -6.4636 0.3538 -2.1397 0
M  V30 END ATOM
M  V30 BEGIN BOND
M  V30 1 1 1 2
M  V30 2 1 1 3
M  V30 3 2 2 4
M  V30 4 1 2 5
M  V30 5 1 3 6
M  V30 6 1 4 7
M  V30 7 1 5 8
M  V30 8 2 5 9
M  V30 9 1 6 10
M  V30 10 2 7 11
M  V30 11 2 8 12
M  V30 12 1 9 13
M  V30 13 2 10 14
M  V30 14 1 10 15
M  V30 15 1 13 16
M  V30 16 1 16 17
M  V30 17 1 17 18
M  V30 18 2 18 19
M  V30 19 1 18 20
M  V30 20 1 9 11
M  V30 21 1 12 13
M  V30 22 1 3 21
M  V30 23 1 3 22
M  V30 24 1 7 23
M  V30 25 1 12 24
M  V30 26 1 15 25
M  V30 27 1 15 26
M  V30 28 1 15 27
M  V30 29 1 16 28
M  V30 30 1 16 29
M  V30 31 1 20 30
M  V30 32 1 20 31
M  V30 33 1 20 32
M  V30 END BOND
M  V30 END CTAB
M  END
>  <Structure No>
7252

>  <LogS>
-2.54

>  <MMFF94 Energy>
-26.445

$$$$
Compound 7253
Actelion Java MolfileCreator 2.0

  0  0  0  0  0  0              0 V3000
M  V30 BEGIN CTAB
M  V30 COUNTS 37 39 0 0 0
M  V30 BEGIN ATOM
M  V30 1 O 3.8366 -3.0194 1.468 0
M  V30 2 N 3.5707 -2.2263 0.5413 0 CHG=1
M  V30 3 O 4.2436 -2.3506 -0.651 0 CHG=-1
M  V30 4 C 2.4264 -1.364 0.6361 0
M  V30 5 C 2.437 -0.069 0.081 0
M  V30 6 C 1.2731 -1.8155 1.2981 0
M  V30 7 N 3.6149 0.4845 -0.5073 0
M  V30 8 C 1.291 0.7281 0.1548 0
M  V30 9 C 0.1245 -1.0127 1.3933 0
M  V30 10 C 4.3317 1.6248 -1.1521 0
M  V30 11 C 5.0504 0.4722 -0.9224 0
M  V30 12 C 0.1259 0.2638 0.7806 0
M  V30 13 N -1.0087 -1.4975 2.1379 0 CHG=1
M  V30 14 C -1.0761 1.1244 0.7461 0
M  V30 15 O -1.7321 -0.7105 2.7825 0
M  V30 16 O -1.2155 -2.8507 2.2775 0 CHG=-1
M  V30 17 O -0.9926 2.2938 1.2107 0
M  V30 18 N -2.3156 0.6713 0.1601 0
M  V30 19 C -3.5946 1.2172 0.6297 0
M  V30 20 C -2.3532 -0.4943 -0.7318 0
M  V30 21 C -4.6018 1.2559 -0.5236 0
M  V30 22 C -3.4587 -0.3162 -1.7764 0
M  V30 23 O -4.6916 -0.0062 -1.1558 0
M  V30 24 H 1.2742 -2.7998 1.749 0
M  V30 25 H 1.3057 1.7157 -0.2922 0
M  V30 26 H 4.4826 2.4593 -0.4352 0
M  V30 27 H 3.9672 1.7917 -2.1875 0
M  V30 28 H 5.2185 -0.1816 -1.8037 0
M  V30 29 H 5.7254 0.4722 -0.0408 0
M  V30 30 H -3.4719 2.2473 1.0279 0
M  V30 31 H -3.9885 0.5711 1.4436 0
M  V30 32 H -1.3843 -0.6181 -1.2623 0
M  V30 33 H -2.5562 -1.409 -0.1353 0
M  V30 34 H -5.6005 1.518 -0.1152 0
M  V30 35 H -4.3286 2.0532 -1.2525 0
M  V30 36 H -3.1726 0.4656 -2.517 0
M  V30 37 H -3.5749 -1.2674 -2.3372 0
M  V30 END ATOM
M  V30 BEGIN BOND
M  V30 1 2 1 2
M  V30 2 1 2 3
M  V30 3 1 2 4
M  V30 4 2 4 5
M  V30 5 1 4 6
M  V30 6 1 5 7
M  V30 7 1 5 8
M  V30 8 2 6 9
M  V30 9 1 7 10
M  V30 10 1 7 11
M  V30 11 2 8 12
M  V30 12 1 9 13
M  V30 13 1 12 14
M  V30 14 2 13 15
M  V30 15 1 13 16
M  V30 16 2 14 17
M  V30 17 1 14 18
M  V30 18 1 18 19
M  V30 19 1 18 20
M  V30 20 1 19 21
M  V30 21 1 20 22
M  V30 22 1 21 23
M  V30 23 1 9 12
M  V30 24 1 10 11
M  V30 25 1 22 23
M  V30 26 1 6 24
M  V30 27 1 8 25
M  V30 28 1 10 26
M  V30 29 1 10 27
M  V30 30 1 11 28
M  V30 31 1 11 29
M  V30 32 1 19 30
M  V30 33 1 19 31
M  V30 34 1 20 32
M  V30 35 1 20 33
M  V30 36 1 21 34
M  V30 37 1 21 35
M  V30 38 1 22 36
M  V30 39 1 22 37
M  V30 END BOND
M  V30 END CTAB
M  END
>  <Structure No>
7253

>  <LogS>
-2.89

>  <MMFF94 Energy>
113.32

$$$$
Compound 7254
Actelion Java MolfileCreator 2.0

  0  0  0  0  0  0              0 V3000
M  V30 BEGIN CTAB
M  V30 COUNTS 23 23 0 0 0
M  V30 BEGIN ATOM
M  V30 1 S 3.9092 0.1735 0.7809 0
M  V30 2 O 4.47 -1.2208 0.8006 0
M  V30 3 O 4.2132 0.8494 2.088 0
M  V30 4 N 4.6285 1.0596 -0.5175 0
M  V30 5 C 2.175 0.101 0.5501 0
M  V30 6 S 1.194 1.4287 0.2531 0
M  V30 7 N 1.4591 -1.041 0.5916 0
M  V30 8 C -0.176 0.4522 0.1838 0
M  V30 9 N 0.1519 -0.8621 0.3898 0
M  V30 10 N -1.3557 0.9646 -0.0412 0
M  V30 11 C -0.7331 -2.0222 0.4102 0
M  V30 12 S -2.933 0.2482 -0.171 0
M  V30 13 O -2.9926 -0.7185 -1.3191 0
M  V30 14 O -3.3281 -0.4213 1.1142 0
M  V30 15 C -4.0965 1.5542 -0.4909 0
M  V30 16 H 5.663 1.0215 -0.3775 0
M  V30 17 H 4.423 0.534 -1.3966 0
M  V30 18 H -1.2154 -2.158 -0.5749 0
M  V30 19 H -1.464 -1.9365 1.2349 0
M  V30 20 H -0.1446 -2.9448 0.604 0
M  V30 21 H -4.0726 2.2852 0.3435 0
M  V30 22 H -3.8272 2.0677 -1.437 0
M  V30 23 H -5.1179 1.1298 -0.5799 0
M  V30 END ATOM
M  V30 BEGIN BOND
M  V30 1 2 1 2
M  V30 2 2 1 3
M  V30 3 1 1 4
M  V30 4 1 1 5
M  V30 5 1 5 6
M  V30 6 2 5 7
M  V30 7 1 6 8
M  V30 8 1 7 9
M  V30 9 2 8 10
M  V30 10 1 9 11
M  V30 11 1 10 12
M  V30 12 2 12 13
M  V30 13 2 12 14
M  V30 14 1 12 15
M  V30 15 1 8 9
M  V30 16 1 4 16
M  V30 17 1 4 17
M  V30 18 1 11 18
M  V30 19 1 11 19
M  V30 20 1 11 20
M  V30 21 1 15 21
M  V30 22 1 15 22
M  V30 23 1 15 23
M  V30 END BOND
M  V30 END CTAB
M  END
>  <Structure No>
7254

>  <LogS>
-2.05

>  <MMFF94 Energy>
-24.645

$$$$
Compound 7255
Actelion Java MolfileCreator 2.0

  0  0  0  0  0  0              0 V3000
M  V30 BEGIN CTAB
M  V30 COUNTS 22 23 0 0 0
M  V30 BEGIN ATOM
M  V30 1 Cl -0.884 2.2111 -1.5916 0
M  V30 2 C -1.5644 0.8218 -0.7405 0
M  V30 3 C -2.9539 0.5988 -0.7604 0
M  V30 4 C -0.7222 -0.0846 -0.0611 0
M  V30 5 Cl -4.0439 1.6968 -1.5975 0
M  V30 6 C -3.4938 -0.5151 -0.1094 0
M  V30 7 C 0.7406 0.1211 -0.0039 0
M  V30 8 C -1.2801 -1.1974 0.587 0
M  V30 9 C -2.6599 -1.4118 0.5617 0
M  V30 10 C 1.6289 -0.7327 -0.6931 0
M  V30 11 C 1.2515 1.1782 0.7651 0
M  V30 12 Cl -3.3454 -2.8067 1.3748 0
M  V30 13 Cl 1.0107 -2.05 -1.6929 0
M  V30 14 C 3.0163 -0.5132 -0.6013 0
M  V30 15 C 2.6284 1.3883 0.8496 0
M  V30 16 Cl 4.1632 -1.546 -1.4451 0
M  V30 17 C 3.5078 0.5452 0.1699 0
M  V30 18 H -4.5631 -0.6849 -0.1264 0
M  V30 19 H -0.6409 -1.8951 1.1148 0
M  V30 20 H 0.5808 1.8374 1.303 0
M  V30 21 H 3.0147 2.2055 1.445 0
M  V30 22 H 4.5743 0.7164 0.242 0
M  V30 END ATOM
M  V30 BEGIN BOND
M  V30 1 1 1 2
M  V30 2 2 2 3
M  V30 3 1 2 4
M  V30 4 1 3 5
M  V30 5 1 3 6
M  V30 6 1 4 7
M  V30 7 2 4 8
M  V30 8 2 6 9
M  V30 9 2 7 10
M  V30 10 1 7 11
M  V30 11 1 9 12
M  V30 12 1 10 13
M  V30 13 1 10 14
M  V30 14 2 11 15
M  V30 15 1 14 16
M  V30 16 2 14 17
M  V30 17 1 8 9
M  V30 18 1 15 17
M  V30 19 1 6 18
M  V30 20 1 8 19
M  V30 21 1 11 20
M  V30 22 1 15 21
M  V30 23 1 17 22
M  V30 END BOND
M  V30 END CTAB
M  END
>  <Structure No>
7255

>  <LogS>
-6.96

>  <MMFF94 Energy>
52.13

$$$$
Compound 7256
Actelion Java MolfileCreator 2.0

  0  0  0  0  0  0              0 V3000
M  V30 BEGIN CTAB
M  V30 COUNTS 46 48 0 0 0
M  V30 BEGIN ATOM
M  V30 1 O -3.3393 0.7148 -1.1916 0
M  V30 2 C -2.3289 0.2648 -0.5806 0
M  V30 3 N -2.5024 -0.4904 0.5702 0
M  V30 4 N -1.064 0.5308 -1.0676 0
M  V30 5 C -1.4086 -1.0091 1.2269 0
M  V30 6 C -3.8619 -0.7846 1.0643 0
M  V30 7 C -0.0023 0.0211 -0.3854 0
M  V30 8 C -0.8467 1.3559 -2.2702 0
M  V30 9 O -1.5359 -1.7249 2.2584 0
M  V30 10 C -0.1507 -0.7293 0.7255 0
M  V30 11 C -4.3962 -2.0661 0.4166 0
M  V30 12 N 1.3011 0.1654 -0.6909 0
M  V30 13 C -0.456 2.7942 -1.9008 0
M  V30 14 N 1.0518 -1.1001 1.1822 0
M  V30 15 C -5.8021 -2.3923 0.9114 0
M  V30 16 C 1.9153 -0.539 0.2988 0
M  V30 17 C -1.5811 3.5372 -1.1836 0
M  V30 18 C 3.4097 -0.6777 0.4096 0
M  V30 19 C 4.0316 -1.3126 -0.8265 0
M  V30 20 C 4.1115 0.6656 0.5547 0
M  V30 21 C 5.4703 -0.8103 -0.8565 0
M  V30 22 C 5.5198 0.4459 0.0147 0
M  V30 23 H -4.5487 0.0631 0.8472 0
M  V30 24 H -3.8606 -0.8946 2.1715 0
M  V30 25 H -0.0333 0.9115 -2.885 0
M  V30 26 H -1.7464 1.3659 -2.9233 0
M  V30 27 H -3.7208 -2.9148 0.6594 0
M  V30 28 H -4.4206 -1.9427 -0.6876 0
M  V30 29 H -0.2054 3.3448 -2.8333 0
M  V30 30 H 0.4496 2.7887 -1.2571 0
M  V30 31 H 1.2724 -1.6812 2.0217 0
M  V30 32 H -6.5016 -1.5672 0.6575 0
M  V30 33 H -5.7981 -2.5448 2.0119 0
M  V30 34 H -6.1604 -3.3239 0.4249 0
M  V30 35 H -2.5053 3.5293 -1.7998 0
M  V30 36 H -1.7891 3.0705 -0.198 0
M  V30 37 H -1.278 4.5917 -1.013 0
M  V30 38 H 3.6597 -1.3062 1.2947 0
M  V30 39 H 3.991 -2.4225 -0.7719 0
M  V30 40 H 3.5109 -0.9754 -1.7508 0
M  V30 41 H 4.1315 0.9956 1.6164 0
M  V30 42 H 3.6059 1.4458 -0.0578 0
M  V30 43 H 5.7842 -0.5839 -1.8989 0
M  V30 44 H 6.1493 -1.5863 -0.4391 0
M  V30 45 H 6.2281 0.2928 0.8587 0
M  V30 46 H 5.8536 1.3265 -0.5765 0
M  V30 END ATOM
M  V30 BEGIN BOND
M  V30 1 2 1 2
M  V30 2 1 2 3
M  V30 3 1 2 4
M  V30 4 1 3 5
M  V30 5 1 3 6
M  V30 6 1 4 7
M  V30 7 1 4 8
M  V30 8 2 5 9
M  V30 9 1 5 10
M  V30 10 1 6 11
M  V30 11 1 7 12
M  V30 12 1 8 13
M  V30 13 1 10 14
M  V30 14 1 11 15
M  V30 15 2 12 16
M  V30 16 1 13 17
M  V30 17 1 16 18
M  V30 18 1 18 19
M  V30 19 1 18 20
M  V30 20 1 19 21
M  V30 21 1 20 22
M  V30 22 2 7 10
M  V30 23 1 14 16
M  V30 24 1 21 22
M  V30 25 1 6 23
M  V30 26 1 6 24
M  V30 27 1 8 25
M  V30 28 1 8 26
M  V30 29 1 11 27
M  V30 30 1 11 28
M  V30 31 1 13 29
M  V30 32 1 13 30
M  V30 33 1 14 31
M  V30 34 1 15 32
M  V30 35 1 15 33
M  V30 36 1 15 34
M  V30 37 1 17 35
M  V30 38 1 17 36
M  V30 39 1 17 37
M  V30 40 1 18 38
M  V30 41 1 19 39
M  V30 42 1 19 40
M  V30 43 1 20 41
M  V30 44 1 20 42
M  V30 45 1 21 43
M  V30 46 1 21 44
M  V30 47 1 22 45
M  V30 48 1 22 46
M  V30 END BOND
M  V30 END CTAB
M  END
>  <Structure No>
7256

>  <LogS>
-4.96

>  <MMFF94 Energy>
-123.45

$$$$
Compound 7257
Actelion Java MolfileCreator 2.0

  0  0  0  0  0  0              0 V3000
M  V30 BEGIN CTAB
M  V30 COUNTS 30 31 0 0 0
M  V30 BEGIN ATOM
M  V30 1 O 5.9396 0.8933 -1.7059 0
M  V30 2 N 4.8405 1.44 -1.48 0 CHG=1
M  V30 3 O 4.6765 2.7563 -1.8472 0 CHG=-1
M  V30 4 C 3.7608 0.7188 -0.848 0
M  V30 5 C 3.8971 -0.6345 -0.4614 0
M  V30 6 C 2.5373 1.3719 -0.6065 0
M  V30 7 O 5.0842 -1.3263 -0.68 0 CHG=-1
M  V30 8 C 2.8326 -1.3035 0.1547 0
M  V30 9 C 1.4612 0.6995 -0.0045 0
M  V30 10 O 2.9855 -2.6349 0.5387 0
M  V30 11 C 1.6241 -0.6379 0.3862 0
M  V30 12 C 0.1888 1.4179 0.2527 0
M  V30 13 O 0.2294 2.6498 0.5221 0
M  V30 14 C -1.1296 0.7394 0.2046 0
M  V30 15 C -2.1803 1.1863 1.0242 0
M  V30 16 C -1.3662 -0.3208 -0.6887 0
M  V30 17 C -3.4317 0.5647 0.9754 0
M  V30 18 C -2.6179 -0.9413 -0.7368 0
M  V30 19 C -3.6527 -0.5145 0.108 0
M  V30 20 C -5.0069 -1.1547 0.0275 0
M  V30 21 H 2.4137 2.4071 -0.899 0
M  V30 22 H 2.2352 -3.148 0.9868 0
M  V30 23 H 0.819 -1.1633 0.8847 0
M  V30 24 H -2.0307 2.0119 1.709 0
M  V30 25 H -0.5897 -0.6585 -1.3633 0
M  V30 26 H -4.228 0.9256 1.6149 0
M  V30 27 H -2.7813 -1.7515 -1.4367 0
M  V30 28 H -5.5224 -1.106 1.0105 0
M  V30 29 H -4.9182 -2.2239 -0.2606 0
M  V30 30 H -5.6212 -0.6249 -0.7302 0
M  V30 END ATOM
M  V30 BEGIN BOND
M  V30 1 2 1 2
M  V30 2 1 2 3
M  V30 3 1 2 4
M  V30 4 2 4 5
M  V30 5 1 4 6
M  V30 6 1 5 7
M  V30 7 1 5 8
M  V30 8 2 6 9
M  V30 9 1 8 10
M  V30 10 2 8 11
M  V30 11 1 9 12
M  V30 12 2 12 13
M  V30 13 1 12 14
M  V30 14 2 14 15
M  V30 15 1 14 16
M  V30 16 1 15 17
M  V30 17 2 16 18
M  V30 18 2 17 19
M  V30 19 1 19 20
M  V30 20 1 9 11
M  V30 21 1 18 19
M  V30 22 1 6 21
M  V30 23 1 10 22
M  V30 24 1 11 23
M  V30 25 1 15 24
M  V30 26 1 16 25
M  V30 27 1 17 26
M  V30 28 1 18 27
M  V30 29 1 20 28
M  V30 30 1 20 29
M  V30 31 1 20 30
M  V30 END BOND
M  V30 END CTAB
M  END
>  <Structure No>
7257

>  <LogS>
-4.17

>  <MMFF94 Energy>
84.153

$$$$
Compound 7258
Actelion Java MolfileCreator 2.0

  0  0  0  0  0  0              0 V3000
M  V30 BEGIN CTAB
M  V30 COUNTS 30 31 0 0 0
M  V30 BEGIN ATOM
M  V30 1 S 0.1635 2.2909 -0.9813 0
M  V30 2 O 0.7694 2.9385 -2.1937 0
M  V30 3 O -0.575 3.3316 -0.1866 0
M  V30 4 N -0.9536 1.0684 -1.4832 0 CHG=-1
M  V30 5 C 1.4433 1.562 -0.0175 0
M  V30 6 C -1.6744 0.2709 -0.5433 0
M  V30 7 C 2.0455 0.3724 -0.4488 0
M  V30 8 C 1.8654 2.1581 1.1791 0
M  V30 9 N -1.5765 0.3965 0.7946 0
M  V30 10 C -2.5529 -0.7398 -0.8607 0
M  V30 11 C 3.0578 -0.2199 0.312 0
M  V30 12 C 2.8775 1.565 1.9403 0
M  V30 13 O -2.3539 -0.514 1.3093 0
M  V30 14 C -2.9453 -1.2227 0.3722 0
M  V30 15 C -2.8894 -1.2746 -2.2161 0
M  V30 16 C 3.4781 0.3726 1.5111 0
M  V30 17 C -3.8943 -2.3447 0.6356 0
M  V30 18 N 4.5146 -0.2321 2.2886 0
M  V30 19 H 1.7271 -0.0986 -1.37 0
M  V30 20 H 1.4129 3.0788 1.5253 0
M  V30 21 H 3.5136 -1.1399 -0.0316 0
M  V30 22 H 3.1933 2.0335 2.864 0
M  V30 23 H -2.1842 -2.0911 -2.4751 0
M  V30 24 H -2.8108 -0.4687 -2.975 0
M  V30 25 H -3.927 -1.6686 -2.2245 0
M  V30 26 H -4.9285 -2.0166 0.4027 0
M  V30 27 H -3.6317 -3.2188 0.0034 0
M  V30 28 H -3.8394 -2.6441 1.7032 0
M  V30 29 H 4.9665 -1.1214 1.9786 0
M  V30 30 H 4.8437 0.2107 3.1746 0
M  V30 END ATOM
M  V30 BEGIN BOND
M  V30 1 2 1 2
M  V30 2 2 1 3
M  V30 3 1 1 4
M  V30 4 1 1 5
M  V30 5 1 4 6
M  V30 6 2 5 7
M  V30 7 1 5 8
M  V30 8 2 6 9
M  V30 9 1 6 10
M  V30 10 1 7 11
M  V30 11 2 8 12
M  V30 12 1 9 13
M  V30 13 2 10 14
M  V30 14 1 10 15
M  V30 15 2 11 16
M  V30 16 1 14 17
M  V30 17 1 16 18
M  V30 18 1 12 16
M  V30 19 1 13 14
M  V30 20 1 7 19
M  V30 21 1 8 20
M  V30 22 1 11 21
M  V30 23 1 12 22
M  V30 24 1 15 23
M  V30 25 1 15 24
M  V30 26 1 15 25
M  V30 27 1 17 26
M  V30 28 1 17 27
M  V30 29 1 17 28
M  V30 30 1 18 29
M  V30 31 1 18 30
M  V30 END BOND
M  V30 END CTAB
M  END
>  <Structure No>
7258

>  <LogS>
-2.19

>  <MMFF94 Energy>
50.014

$$$$
Compound 7259
Actelion Java MolfileCreator 2.0

  0  0  0  0  0  0              0 V3000
M  V30 BEGIN CTAB
M  V30 COUNTS 38 40 0 0 0
M  V30 BEGIN ATOM
M  V30 1 O -4.2932 0.0808 -1.4565 0
M  V30 2 C -3.3537 0.7164 -0.9047 0
M  V30 3 C -2.1214 0.098 -0.6315 0
M  V30 4 C -3.541 2.0546 -0.562 0
M  V30 5 C -1.1081 0.8622 -0.0094 0
M  V30 6 C -1.8765 -1.2392 -0.9682 0
M  V30 7 C -2.4924 2.7549 0.047 0
M  V30 8 O -1.3392 2.1395 0.2937 0
M  V30 9 C 0.1474 0.2827 0.2866 0
M  V30 10 C -0.6349 -1.8201 -0.6947 0
M  V30 11 C -2.6429 4.1697 0.4225 0
M  V30 12 C 0.3871 -1.0704 -0.0805 0
M  V30 13 C 1.2172 1.1398 0.9392 0
M  V30 14 C -0.3512 -3.2419 -1.1053 0
M  V30 15 O -1.6857 4.7793 0.9681 0
M  V30 16 O -3.8329 4.847 0.1823 0 CHG=-1
M  V30 17 C 1.73 -1.7601 0.0711 0
M  V30 18 C 2.1798 1.7046 -0.1116 0
M  V30 19 C 0.3958 -3.9863 0.0114 0
M  V30 20 C 1.5616 -3.1805 0.6385 0
M  V30 21 C 3.2667 2.5565 0.5368 0
M  V30 22 H -4.4879 2.5386 -0.7702 0
M  V30 23 H -2.6443 -1.8294 -1.4545 0
M  V30 24 H 1.7649 0.5653 1.7134 0
M  V30 25 H 0.7568 1.9843 1.496 0
M  V30 26 H -1.2913 -3.7891 -1.3363 0
M  V30 27 H 0.2715 -3.2315 -2.0258 0
M  V30 28 H 2.4393 -1.2157 0.7209 0
M  V30 29 H 2.2026 -1.8245 -0.9329 0
M  V30 30 H 2.6621 0.8765 -0.6736 0
M  V30 31 H 1.6132 2.3321 -0.8341 0
M  V30 32 H -0.3343 -4.2417 0.8111 0
M  V30 33 H 0.7816 -4.9469 -0.3938 0
M  V30 34 H 1.3938 -3.1027 1.7354 0
M  V30 35 H 2.5142 -3.7355 0.4958 0
M  V30 36 H 2.8133 3.4125 1.0806 0
M  V30 37 H 3.8634 1.9445 1.2465 0
M  V30 38 H 3.9452 2.9534 -0.2474 0
M  V30 END ATOM
M  V30 BEGIN BOND
M  V30 1 2 1 2
M  V30 2 1 2 3
M  V30 3 1 2 4
M  V30 4 2 3 5
M  V30 5 1 3 6
M  V30 6 2 4 7
M  V30 7 1 5 8
M  V30 8 1 5 9
M  V30 9 2 6 10
M  V30 10 1 7 11
M  V30 11 2 9 12
M  V30 12 1 9 13
M  V30 13 1 10 14
M  V30 14 2 11 15
M  V30 15 1 11 16
M  V30 16 1 12 17
M  V30 17 1 13 18
M  V30 18 1 14 19
M  V30 19 1 17 20
M  V30 20 1 18 21
M  V30 21 1 7 8
M  V30 22 1 10 12
M  V30 23 1 19 20
M  V30 24 1 4 22
M  V30 25 1 6 23
M  V30 26 1 13 24
M  V30 27 1 13 25
M  V30 28 1 14 26
M  V30 29 1 14 27
M  V30 30 1 17 28
M  V30 31 1 17 29
M  V30 32 1 18 30
M  V30 33 1 18 31
M  V30 34 1 19 32
M  V30 35 1 19 33
M  V30 36 1 20 34
M  V30 37 1 20 35
M  V30 38 1 21 36
M  V30 39 1 21 37
M  V30 40 1 21 38
M  V30 END BOND
M  V30 END CTAB
M  END
>  <Structure No>
7259

>  <LogS>
-1.9

>  <MMFF94 Energy>
59.284

$$$$
Compound 7260
Actelion Java MolfileCreator 2.0

  0  0  0  0  0  0              0 V3000
M  V30 BEGIN CTAB
M  V30 COUNTS 35 37 0 0 0
M  V30 BEGIN ATOM
M  V30 1 O -1.2062 -2.333 -2.9773 0
M  V30 2 C -0.8887 -1.7793 -1.8917 0
M  V30 3 N -1.355 -2.2091 -0.6256 0
M  V30 4 N -0.0472 -0.638 -1.8166 0
M  V30 5 C -0.8254 -1.2439 0.2768 0
M  V30 6 C -2.5164 -3.0607 -0.3857 0
M  V30 7 C 0.0561 -0.2247 -0.413 0
M  V30 8 O -1.1013 -1.2316 1.5073 0
M  V30 9 O -3.6961 -2.3374 -0.6042 0
M  V30 10 C 1.5291 -0.2934 -0.0032 0
M  V30 11 C -0.5395 1.166 -0.1882 0
M  V30 12 C 2.4233 0.6763 -0.5016 0
M  V30 13 C 2.0484 -1.3349 0.7978 0
M  V30 14 C -0.3014 1.8427 1.0264 0
M  V30 15 C -1.4028 1.7643 -1.1314 0
M  V30 16 C 3.7813 0.6319 -0.1753 0
M  V30 17 C 3.4084 -1.3733 1.1202 0
M  V30 18 C -0.8686 3.097 1.2679 0
M  V30 19 C -1.9672 3.0191 -0.8832 0
M  V30 20 C 4.2727 -0.3892 0.6383 0
M  V30 21 C -1.6968 3.6868 0.3122 0
M  V30 22 H 0.4069 -0.1676 -2.6315 0
M  V30 23 H -2.4903 -3.9261 -1.0806 0
M  V30 24 H -2.4906 -3.4595 0.653 0
M  V30 25 H -3.7747 -1.6944 0.148 0
M  V30 26 H 2.0664 1.471 -1.145 0
M  V30 27 H 1.4159 -2.1261 1.1754 0
M  V30 28 H 0.3238 1.3974 1.7901 0
M  V30 29 H -1.6508 1.2667 -2.0593 0
M  V30 30 H 4.454 1.3884 -0.5581 0
M  V30 31 H 3.7939 -2.1719 1.7407 0
M  V30 32 H -0.6701 3.6094 2.2004 0
M  V30 33 H -2.6214 3.4718 -1.6172 0
M  V30 34 H 5.3252 -0.4231 0.8885 0
M  V30 35 H -2.137 4.6572 0.502 0
M  V30 END ATOM
M  V30 BEGIN BOND
M  V30 1 2 1 2
M  V30 2 1 2 3
M  V30 3 1 2 4
M  V30 4 1 3 5
M  V30 5 1 3 6
M  V30 6 1 4 7
M  V30 7 2 5 8
M  V30 8 1 6 9
M  V30 9 1 7 10
M  V30 10 1 7 11
M  V30 11 2 10 12
M  V30 12 1 10 13
M  V30 13 2 11 14
M  V30 14 1 11 15
M  V30 15 1 12 16
M  V30 16 2 13 17
M  V30 17 1 14 18
M  V30 18 2 15 19
M  V30 19 2 16 20
M  V30 20 2 18 21
M  V30 21 1 5 7
M  V30 22 1 17 20
M  V30 23 1 19 21
M  V30 24 1 4 22
M  V30 25 1 6 23
M  V30 26 1 6 24
M  V30 27 1 9 25
M  V30 28 1 12 26
M  V30 29 1 13 27
M  V30 30 1 14 28
M  V30 31 1 15 29
M  V30 32 1 16 30
M  V30 33 1 17 31
M  V30 34 1 18 32
M  V30 35 1 19 33
M  V30 36 1 20 34
M  V30 37 1 21 35
M  V30 END BOND
M  V30 END CTAB
M  END
>  <Structure No>
7260

>  <LogS>
-3.3

>  <MMFF94 Energy>
-20.888

$$$$
Compound 7261
Actelion Java MolfileCreator 2.0

  0  0  0  0  0  0              0 V3000
M  V30 BEGIN CTAB
M  V30 COUNTS 42 43 0 0 0
M  V30 BEGIN ATOM
M  V30 1 O -6.4343 1.5064 -0.0792 0
M  V30 2 C -5.2916 0.9686 -0.0303 0
M  V30 3 N -4.1635 1.7607 0.0931 0
M  V30 4 N -5.1846 -0.402 -0.0997 0
M  V30 5 C -2.9198 1.1846 0.2249 0
M  V30 6 C -4.3024 3.226 0.1597 0
M  V30 7 C -3.9486 -0.9544 0.0324 0
M  V30 8 C -6.377 -1.2509 -0.2297 0
M  V30 9 O -1.8896 1.8999 0.3443 0
M  V30 10 C -2.8294 -0.2079 0.2101 0
M  V30 11 N -3.6521 -2.2676 0.0015 0
M  V30 12 N -1.769 -1.0406 0.3047 0
M  V30 13 C -2.3062 -2.2785 0.1656 0
M  V30 14 C -0.3754 -0.7739 0.5314 0
M  V30 15 O -0.0056 0.3083 1.0603 0
M  V30 16 O 0.5697 -1.7561 0.2109 0
M  V30 17 C 1.9761 -1.5742 0.3647 0
M  V30 18 C 2.5211 -0.663 -0.7429 0
M  V30 19 C 4.0557 -0.5795 -0.7435 0
M  V30 20 C 4.5997 0.2573 0.4271 0
M  V30 21 C 6.1341 0.343 0.4261 0
M  V30 22 C 6.6771 1.243 -0.6838 0
M  V30 23 H -5.1573 3.5773 -0.4566 0
M  V30 24 H -4.4605 3.537 1.2138 0
M  V30 25 H -3.4007 3.7373 -0.2396 0
M  V30 26 H -6.8353 -1.4038 0.77 0
M  V30 27 H -6.1236 -2.2401 -0.6669 0
M  V30 28 H -7.1223 -0.78 -0.9058 0
M  V30 29 H -1.7265 -3.1924 0.1986 0
M  V30 30 H 2.4629 -2.5698 0.2936 0
M  V30 31 H 2.1914 -1.156 1.371 0
M  V30 32 H 2.0886 0.3562 -0.6472 0
M  V30 33 H 2.1944 -1.0736 -1.7232 0
M  V30 34 H 4.4894 -1.603 -0.7147 0
M  V30 35 H 4.3636 -0.1098 -1.7013 0
M  V30 36 H 4.2927 -0.2118 1.3854 0
M  V30 37 H 4.1655 1.2809 0.3983 0
M  V30 38 H 6.5749 -0.6731 0.332 0
M  V30 39 H 6.4624 0.7616 1.4022 0
M  V30 40 H 6.2052 2.2476 -0.6364 0
M  V30 41 H 7.7737 1.3629 -0.557 0
M  V30 42 H 6.4936 0.7942 -1.6815 0
M  V30 END ATOM
M  V30 BEGIN BOND
M  V30 1 2 1 2
M  V30 2 1 2 3
M  V30 3 1 2 4
M  V30 4 1 3 5
M  V30 5 1 3 6
M  V30 6 1 4 7
M  V30 7 1 4 8
M  V30 8 2 5 9
M  V30 9 1 5 10
M  V30 10 1 7 11
M  V30 11 1 10 12
M  V30 12 2 11 13
M  V30 13 1 12 14
M  V30 14 2 14 15
M  V30 15 1 14 16
M  V30 16 1 16 17
M  V30 17 1 17 18
M  V30 18 1 18 19
M  V30 19 1 19 20
M  V30 20 1 20 21
M  V30 21 1 21 22
M  V30 22 2 7 10
M  V30 23 1 12 13
M  V30 24 1 6 23
M  V30 25 1 6 24
M  V30 26 1 6 25
M  V30 27 1 8 26
M  V30 28 1 8 27
M  V30 29 1 8 28
M  V30 30 1 13 29
M  V30 31 1 17 30
M  V30 32 1 17 31
M  V30 33 1 18 32
M  V30 34 1 18 33
M  V30 35 1 19 34
M  V30 36 1 19 35
M  V30 37 1 20 36
M  V30 38 1 20 37
M  V30 39 1 21 38
M  V30 40 1 21 39
M  V30 41 1 22 40
M  V30 42 1 22 41
M  V30 43 1 22 42
M  V30 END BOND
M  V30 END CTAB
M  END
>  <Structure No>
7261

>  <LogS>
-3.0

>  <MMFF94 Energy>
-125.44

$$$$
Compound 7262
Actelion Java MolfileCreator 2.0

  0  0  0  0  0  0              0 V3000
M  V30 BEGIN CTAB
M  V30 COUNTS 23 24 0 0 0
M  V30 BEGIN ATOM
M  V30 1 Cl -5.3854 0.9696 0.6169 0
M  V30 2 C -3.7559 0.323 0.4278 0
M  V30 3 C -2.6536 1.0137 0.9627 0
M  V30 4 C -3.5503 -0.8905 -0.2524 0
M  V30 5 Cl -2.8602 2.5251 1.839 0
M  V30 6 C -1.3626 0.497 0.8092 0
M  V30 7 Cl -4.8968 -1.798 -0.9291 0
M  V30 8 C -2.2551 -1.3984 -0.4005 0
M  V30 9 C -1.1548 -0.7042 0.1111 0
M  V30 10 O 0.1242 -1.2574 -0.0488 0
M  V30 11 C 1.3176 -0.5283 -0.1592 0
M  V30 12 C 2.5055 -1.1104 0.2977 0
M  V30 13 C 1.3596 0.7438 -0.7565 0
M  V30 14 C 3.7215 -0.4238 0.194 0
M  V30 15 C 2.5712 1.4319 -0.862 0
M  V30 16 Cl 5.1858 -1.1898 0.7951 0
M  V30 17 C 3.7538 0.8559 -0.3854 0
M  V30 18 Cl 5.2593 1.7519 -0.5361 0
M  V30 19 H -0.5259 1.0227 1.2508 0
M  V30 20 H -2.0999 -2.334 -0.9234 0
M  V30 21 H 2.4802 -2.0975 0.7423 0
M  V30 22 H 0.4615 1.1955 -1.1571 0
M  V30 23 H 2.5905 2.4121 -1.3214 0
M  V30 END ATOM
M  V30 BEGIN BOND
M  V30 1 1 1 2
M  V30 2 2 2 3
M  V30 3 1 2 4
M  V30 4 1 3 5
M  V30 5 1 3 6
M  V30 6 1 4 7
M  V30 7 2 4 8
M  V30 8 2 6 9
M  V30 9 1 9 10
M  V30 10 1 10 11
M  V30 11 2 11 12
M  V30 12 1 11 13
M  V30 13 1 12 14
M  V30 14 2 13 15
M  V30 15 1 14 16
M  V30 16 2 14 17
M  V30 17 1 17 18
M  V30 18 1 8 9
M  V30 19 1 15 17
M  V30 20 1 6 19
M  V30 21 1 8 20
M  V30 22 1 12 21
M  V30 23 1 13 22
M  V30 24 1 15 23
M  V30 END BOND
M  V30 END CTAB
M  END
>  <Structure No>
7262

>  <LogS>
-8.25

>  <MMFF94 Energy>
47.052

$$$$
Compound 7263
Actelion Java MolfileCreator 2.0

  0  0  0  0  0  0              0 V3000
M  V30 BEGIN CTAB
M  V30 COUNTS 60 64 0 0 0
M  V30 BEGIN ATOM
M  V30 1 O -7.41 -1.2998 1.2186 0
M  V30 2 C -6.1699 -1.1617 1.0486 0
M  V30 3 C -5.6079 -1.2353 -0.3098 0
M  V30 4 C -5.2714 -0.982 2.2345 0
M  V30 5 C -4.2913 -1.0885 -0.5397 0
M  V30 6 C -4.0013 -0.231 1.8302 0
M  V30 7 C -3.3121 -0.9082 0.6235 0 CFG=2
M  V30 8 C -3.7996 -1.2501 -1.9602 0
M  V30 9 C -1.9873 -0.1423 0.2572 0 CFG=2
M  V30 10 C -2.2853 -1.0753 -2.0826 0
M  V30 11 C -1.8378 0.1448 -1.2593 0 CFG=2
M  V30 12 C -0.7707 -0.9064 0.8144 0
M  V30 13 C -0.4334 0.6918 -1.6723 0 CFG=2
M  V30 14 C 0.5399 -0.1737 0.5287 0
M  V30 15 C 0.8047 0.0524 -0.9911 0 CFG=2
M  V30 16 C -0.3098 2.2024 -1.4139 0
M  V30 17 C 1.9098 1.1532 -1.179 0 CFG=1
M  V30 18 C 1.1881 -1.296 -1.6604 0
M  V30 19 C 1.1464 2.4812 -1.0515 0
M  V30 20 O 2.9119 1.1099 -0.1491 0
M  V30 21 C 2.5424 1.1283 -2.5234 0
M  V30 22 C 3.9692 0.1916 -0.0473 0
M  V30 23 C 3.0543 1.1126 -3.6152 0
M  V30 24 O 4.2851 -0.5372 -1.0266 0
M  V30 25 C 4.7312 0.1003 1.2165 0
M  V30 26 C 5.8282 -0.7739 1.3342 0
M  V30 27 C 4.3605 0.8825 2.3257 0
M  V30 28 C 6.5386 -0.8589 2.5357 0
M  V30 29 C 5.0743 0.793 3.5247 0
M  V30 30 C 6.1623 -0.0763 3.6297 0
M  V30 31 H -6.2863 -1.406 -1.138 0
M  V30 32 H -5.0043 -1.9813 2.6407 0
M  V30 33 H -5.8002 -0.4094 3.0269 0
M  V30 34 H -4.2672 0.8182 1.5707 0
M  V30 35 H -3.306 -0.2073 2.6976 0
M  V30 36 H -3.0567 -1.9443 0.9425 0
M  V30 37 H -4.2996 -0.4895 -2.5998 0
M  V30 38 H -4.0803 -2.256 -2.3414 0
M  V30 39 H -1.9948 0.8515 0.7596 0
M  V30 40 H -1.7934 -2.0019 -1.7266 0
M  V30 41 H -2.0323 -0.9421 -3.1565 0
M  V30 42 H -2.5625 0.9564 -1.5064 0
M  V30 43 H -0.7316 -1.9385 0.4103 0
M  V30 44 H -0.8791 -0.9995 1.9175 0
M  V30 45 H -0.3245 0.5672 -2.7743 0
M  V30 46 H 0.509 0.7968 1.0702 0
M  V30 47 H 1.3738 -0.7586 0.9751 0
M  V30 48 H -0.9625 2.5303 -0.5755 0
M  V30 49 H -0.6027 2.7746 -2.3216 0
M  V30 50 H 2.1132 -1.7079 -1.2137 0
M  V30 51 H 0.4071 -2.0627 -1.5237 0
M  V30 52 H 1.3374 -1.1845 -2.7545 0
M  V30 53 H 1.5674 3.2886 -1.6932 0
M  V30 54 H 1.1935 2.8494 -0.0021 0
M  V30 55 H 3.5032 1.0981 -4.573 0
M  V30 56 H 6.1374 -1.3911 0.5 0
M  V30 57 H 3.5182 1.5608 2.2697 0
M  V30 58 H 7.3813 -1.533 2.6187 0
M  V30 59 H 4.7825 1.3977 4.3738 0
M  V30 60 H 6.7131 -0.1442 4.559 0
M  V30 END ATOM
M  V30 BEGIN BOND
M  V30 1 2 1 2
M  V30 2 1 2 3
M  V30 3 1 2 4
M  V30 4 2 3 5
M  V30 5 1 4 6
M  V30 6 1 5 7
M  V30 7 1 5 8
M  V30 8 1 7 9
M  V30 9 1 8 10
M  V30 10 1 9 11
M  V30 11 1 9 12
M  V30 12 1 11 13
M  V30 13 1 12 14
M  V30 14 1 13 15
M  V30 15 1 13 16
M  V30 16 1 15 17
M  V30 17 1 15 18
M  V30 18 1 16 19
M  V30 19 1 17 20
M  V30 20 1 17 21
M  V30 21 1 20 22
M  V30 22 3 21 23
M  V30 23 2 22 24
M  V30 24 1 22 25
M  V30 25 2 25 26
M  V30 26 1 25 27
M  V30 27 1 26 28
M  V30 28 2 27 29
M  V30 29 2 28 30
M  V30 30 1 6 7
M  V30 31 1 10 11
M  V30 32 1 14 15
M  V30 33 1 17 19
M  V30 34 1 29 30
M  V30 35 1 3 31
M  V30 36 1 4 32
M  V30 37 1 4 33
M  V30 38 1 6 34
M  V30 39 1 6 35
M  V30 40 1 7 36
M  V30 41 1 8 37
M  V30 42 1 8 38
M  V30 43 1 9 39
M  V30 44 1 10 40
M  V30 45 1 10 41
M  V30 46 1 11 42
M  V30 47 1 12 43
M  V30 48 1 12 44
M  V30 49 1 13 45
M  V30 50 1 14 46
M  V30 51 1 14 47
M  V30 52 1 16 48
M  V30 53 1 16 49
M  V30 54 1 18 50
M  V30 55 1 18 51
M  V30 56 1 18 52
M  V30 57 1 19 53
M  V30 58 1 19 54
M  V30 59 1 23 55
M  V30 60 1 26 56
M  V30 61 1 27 57
M  V30 62 1 28 58
M  V30 63 1 29 59
M  V30 64 1 30 60
M  V30 END BOND
M  V30 BEGIN COLLECTION
M  V30 MDLV30/STEABS ATOMS=(6 7 9 11 13 15 17)
M  V30 END COLLECTION
M  V30 END CTAB
M  END
>  <Structure No>
7263

>  <LogS>
-7.75

>  <MMFF94 Energy>
100.9

$$$$
Compound 7264
Actelion Java MolfileCreator 2.0

  0  0  0  0  0  0              0 V3000
M  V30 BEGIN CTAB
M  V30 COUNTS 23 24 0 0 0
M  V30 BEGIN ATOM
M  V30 1 Cl -5.3835 -1.3219 -0.3524 0
M  V30 2 C -3.8064 -0.5817 -0.1135 0
M  V30 3 C -2.7115 -1.3318 0.3451 0
M  V30 4 C -3.6506 0.7824 -0.3806 0
M  V30 5 Cl -2.8688 -3.0447 0.7109 0
M  V30 6 C -1.4698 -0.7121 0.5248 0
M  V30 7 C -2.409 1.4014 -0.2011 0
M  V30 8 C -1.3052 0.6548 0.2365 0
M  V30 9 Cl -2.2445 3.1165 -0.5447 0
M  V30 10 O -0.0732 1.3011 0.4221 0
M  V30 11 C 1.1879 0.7107 0.2544 0
M  V30 12 C 1.4112 -0.3143 -0.6823 0
M  V30 13 C 2.2611 1.1929 1.0112 0
M  V30 14 C 2.6867 -0.8714 -0.8329 0
M  V30 15 C 3.5357 0.6397 0.8634 0
M  V30 16 Cl 2.9207 -2.1563 -2.0101 0
M  V30 17 C 3.7539 -0.3944 -0.053 0
M  V30 18 Cl 5.3712 -1.0661 -0.2111 0
M  V30 19 H -4.4961 1.3634 -0.7274 0
M  V30 20 H -0.6397 -1.2923 0.9062 0
M  V30 21 H 0.6018 -0.6679 -1.3077 0
M  V30 22 H 2.1042 1.9939 1.7224 0
M  V30 23 H 4.3545 1.0175 1.4625 0
M  V30 END ATOM
M  V30 BEGIN BOND
M  V30 1 1 1 2
M  V30 2 2 2 3
M  V30 3 1 2 4
M  V30 4 1 3 5
M  V30 5 1 3 6
M  V30 6 2 4 7
M  V30 7 2 6 8
M  V30 8 1 7 9
M  V30 9 1 8 10
M  V30 10 1 10 11
M  V30 11 2 11 12
M  V30 12 1 11 13
M  V30 13 1 12 14
M  V30 14 2 13 15
M  V30 15 1 14 16
M  V30 16 2 14 17
M  V30 17 1 17 18
M  V30 18 1 7 8
M  V30 19 1 15 17
M  V30 20 1 4 19
M  V30 21 1 6 20
M  V30 22 1 12 21
M  V30 23 1 13 22
M  V30 24 1 15 23
M  V30 END BOND
M  V30 END CTAB
M  END
>  <Structure No>
7264

>  <LogS>
-7.83

>  <MMFF94 Energy>
48.86

$$$$
Compound 7265
Actelion Java MolfileCreator 2.0

  0  0  0  0  0  0              0 V3000
M  V30 BEGIN CTAB
M  V30 COUNTS 67 70 0 0 0
M  V30 BEGIN ATOM
M  V30 1 O -5.1292 2.6028 -3.2543 0
M  V30 2 C -4.4678 2.2723 -2.235 0
M  V30 3 C -4.6951 0.9735 -1.6005 0
M  V30 4 C -3.4734 3.1842 -1.6823 0
M  V30 5 C -4.0003 0.5937 -0.5071 0
M  V30 6 C -2.7621 2.8369 -0.6122 0
M  V30 7 C -2.9153 1.4992 0.1064 0 CFG=2
M  V30 8 C -4.1946 -0.7766 0.1431 0 CFG=2
M  V30 9 C -1.5384 0.7183 0.1398 0 CFG=2
M  V30 10 C -3.3452 1.8875 1.5449 0
M  V30 11 C -2.8637 -1.536 0.0909 0
M  V30 12 C -5.3185 -1.6441 -0.4523 0
M  V30 13 C -0.7474 0.6749 -1.2261 0 CFG=1
M  V30 14 C -1.7131 -0.7258 0.7384 0 CFG=1
M  V30 15 O -0.4586 1.9638 -1.7071 0
M  V30 16 C 0.6022 -0.1077 -1.1281 0
M  V30 17 C -0.3363 -1.431 0.7652 0 CFG=2
M  V30 18 C 0.434 -1.539 -0.5629 0 CFG=2
M  V30 19 C -0.1762 -2.7834 1.4481 0
M  V30 20 C 1.7459 -2.2654 -0.069 0 CFG=1
M  V30 21 C -0.2688 -2.439 -1.6388 0
M  V30 22 C 1.1936 -3.2986 0.9593 0
M  V30 23 O 2.3986 -2.9723 -1.1002 0
M  V30 24 C 2.7628 -1.3309 0.6158 0
M  V30 25 O 2.6171 -1.0177 1.789 0
M  V30 26 C 3.9782 -0.822 -0.1254 0
M  V30 27 O 4.7457 0.0788 0.6734 0
M  V30 28 C 4.3692 1.4034 0.922 0
M  V30 29 O 3.3245 1.8858 0.4059 0
M  V30 30 C 5.2482 2.2709 1.769 0
M  V30 31 C 6.2242 3.0865 0.9143 0
M  V30 32 C 7.2179 2.2072 0.2173 0
M  V30 33 O 8.2325 1.7845 0.833 0
M  V30 34 O 6.9983 1.8155 -1.0966 0 CHG=-1
M  V30 35 H -5.4408 0.3365 -2.0531 0
M  V30 36 H -3.3137 4.1509 -2.1441 0
M  V30 37 H -2.0429 3.551 -0.2266 0
M  V30 38 H -4.4711 -0.6301 1.2074 0
M  V30 39 H -0.8778 1.2744 0.8448 0
M  V30 40 H -3.4298 1.0226 2.2279 0
M  V30 41 H -4.3335 2.3982 1.5271 0
M  V30 42 H -2.6066 2.5813 2.003 0
M  V30 43 H -2.6677 -1.7582 -0.9654 0
M  V30 44 H -2.9808 -2.5012 0.6279 0
M  V30 45 H -5.1028 -1.9075 -1.5101 0
M  V30 46 H -6.292 -1.1126 -0.3872 0
M  V30 47 H -5.4144 -2.5889 0.1249 0
M  V30 48 H -1.4035 0.2011 -1.9813 0
M  V30 49 H -1.9932 -0.6126 1.8085 0
M  V30 50 H 0.0915 2.4264 -1.0212 0
M  V30 51 H 1.0778 -0.1553 -2.1321 0
M  V30 52 H 1.2796 0.478 -0.4754 0
M  V30 53 H 0.2487 -0.7419 1.4169 0
M  V30 54 H -0.9782 -3.4891 1.1488 0
M  V30 55 H -0.1903 -2.6742 2.5549 0
M  V30 56 H -1.0169 -1.9022 -2.2439 0
M  V30 57 H 0.4398 -2.7931 -2.4121 0
M  V30 58 H -0.7451 -3.3343 -1.1902 0
M  V30 59 H 1.886 -3.4612 1.8141 0
M  V30 60 H 1.0478 -4.2862 0.4686 0
M  V30 61 H 2.5906 -2.3304 -1.833 0
M  V30 62 H 3.6747 -0.3224 -1.0704 0
M  V30 63 H 4.6227 -1.6877 -0.3838 0
M  V30 64 H 4.6117 2.968 2.3566 0
M  V30 65 H 5.8095 1.6408 2.4928 0
M  V30 66 H 6.7701 3.7992 1.57 0
M  V30 67 H 5.6634 3.6847 0.1631 0
M  V30 END ATOM
M  V30 BEGIN BOND
M  V30 1 2 1 2
M  V30 2 1 2 3
M  V30 3 1 2 4
M  V30 4 2 3 5
M  V30 5 2 4 6
M  V30 6 1 5 7
M  V30 7 1 5 8
M  V30 8 1 7 9
M  V30 9 1 7 10
M  V30 10 1 8 11
M  V30 11 1 8 12
M  V30 12 1 9 13
M  V30 13 1 9 14
M  V30 14 1 13 15
M  V30 15 1 13 16
M  V30 16 1 14 17
M  V30 17 1 16 18
M  V30 18 1 17 19
M  V30 19 1 18 20
M  V30 20 1 18 21
M  V30 21 1 19 22
M  V30 22 1 20 23
M  V30 23 1 20 24
M  V30 24 2 24 25
M  V30 25 1 24 26
M  V30 26 1 26 27
M  V30 27 1 27 28
M  V30 28 2 28 29
M  V30 29 1 28 30
M  V30 30 1 30 31
M  V30 31 1 31 32
M  V30 32 2 32 33
M  V30 33 1 32 34
M  V30 34 1 6 7
M  V30 35 1 11 14
M  V30 36 1 17 18
M  V30 37 1 20 22
M  V30 38 1 3 35
M  V30 39 1 4 36
M  V30 40 1 6 37
M  V30 41 1 8 38
M  V30 42 1 9 39
M  V30 43 1 10 40
M  V30 44 1 10 41
M  V30 45 1 10 42
M  V30 46 1 11 43
M  V30 47 1 11 44
M  V30 48 1 12 45
M  V30 49 1 12 46
M  V30 50 1 12 47
M  V30 51 1 13 48
M  V30 52 1 14 49
M  V30 53 1 15 50
M  V30 54 1 16 51
M  V30 55 1 16 52
M  V30 56 1 17 53
M  V30 57 1 19 54
M  V30 58 1 19 55
M  V30 59 1 21 56
M  V30 60 1 21 57
M  V30 61 1 21 58
M  V30 62 1 22 59
M  V30 63 1 22 60
M  V30 64 1 23 61
M  V30 65 1 26 62
M  V30 66 1 26 63
M  V30 67 1 30 64
M  V30 68 1 30 65
M  V30 69 1 31 66
M  V30 70 1 31 67
M  V30 END BOND
M  V30 BEGIN COLLECTION
M  V30 MDLV30/STEABS ATOMS=(8 7 8 9 13 14 17 18 20)
M  V30 END COLLECTION
M  V30 END CTAB
M  END
>  <Structure No>
7265

>  <LogS>
-4.2

>  <MMFF94 Energy>
93.993

$$$$
Compound 7266
Actelion Java MolfileCreator 2.0

  0  0  0  0  0  0              0 V3000
M  V30 BEGIN CTAB
M  V30 COUNTS 23 24 0 0 0
M  V30 BEGIN ATOM
M  V30 1 Cl 5.2073 -1.5866 0.8812 0
M  V30 2 C 3.6112 -1.1787 0.2523 0
M  V30 3 C 2.8766 -0.1208 0.8174 0
M  V30 4 C 3.0672 -1.9041 -0.8227 0
M  V30 5 Cl 3.5211 0.8291 2.1503 0
M  V30 6 C 1.6104 0.1983 0.3154 0
M  V30 7 Cl 3.9508 -3.2277 -1.5717 0
M  V30 8 C 1.8 -1.5768 -1.3171 0
M  V30 9 C 1.0577 -0.5398 -0.7445 0
M  V30 10 O -0.2025 -0.2378 -1.2812 0
M  V30 11 C -1.284 0.3002 -0.5664 0
M  V30 12 C -2.2016 1.1269 -1.2343 0
M  V30 13 C -1.4968 -0.0079 0.7903 0
M  V30 14 Cl -1.9809 1.5111 -2.9343 0
M  V30 15 C -3.2968 1.6629 -0.5466 0
M  V30 16 C -2.5918 0.5294 1.4726 0
M  V30 17 C -3.4902 1.3679 0.8065 0
M  V30 18 Cl -4.8649 2.0402 1.6642 0
M  V30 19 H 1.0675 1.0331 0.7396 0
M  V30 20 H 1.3842 -2.1359 -2.1462 0
M  V30 21 H -0.8281 -0.6774 1.3149 0
M  V30 22 H -3.9971 2.3069 -1.0636 0
M  V30 23 H -2.7448 0.2877 2.5168 0
M  V30 END ATOM
M  V30 BEGIN BOND
M  V30 1 1 1 2
M  V30 2 2 2 3
M  V30 3 1 2 4
M  V30 4 1 3 5
M  V30 5 1 3 6
M  V30 6 1 4 7
M  V30 7 2 4 8
M  V30 8 2 6 9
M  V30 9 1 9 10
M  V30 10 1 10 11
M  V30 11 2 11 12
M  V30 12 1 11 13
M  V30 13 1 12 14
M  V30 14 1 12 15
M  V30 15 2 13 16
M  V30 16 2 15 17
M  V30 17 1 17 18
M  V30 18 1 8 9
M  V30 19 1 16 17
M  V30 20 1 6 19
M  V30 21 1 8 20
M  V30 22 1 13 21
M  V30 23 1 15 22
M  V30 24 1 16 23
M  V30 END BOND
M  V30 END CTAB
M  END
>  <Structure No>
7266

>  <LogS>
-7.89

>  <MMFF94 Energy>
43.264

$$$$
Compound 7267
Actelion Java MolfileCreator 2.0

  0  0  0  0  0  0              0 V3000
M  V30 BEGIN CTAB
M  V30 COUNTS 26 28 0 0 0
M  V30 BEGIN ATOM
M  V30 1 O -4.8416 1.9345 -0.0805 0
M  V30 2 C -4.1383 0.8907 -0.0586 0
M  V30 3 N -4.7158 -0.3352 0.103 0
M  V30 4 C -2.759 0.9441 -0.1935 0
M  V30 5 C -3.9597 -1.4794 0.1365 0
M  V30 6 C -2.0257 -0.1976 -0.1698 0
M  V30 7 C -1.8508 1.9685 -0.3482 0
M  V30 8 N -2.5987 -1.4176 0.0055 0
M  V30 9 N -0.7178 0.1026 -0.2965 0
M  V30 10 N -0.6098 1.4243 -0.4129 0
M  V30 11 C 0.3955 -0.8024 -0.3819 0
M  V30 12 O 0.2283 -1.9497 -0.8771 0
M  V30 13 C 1.7497 -0.3971 0.0639 0
M  V30 14 C 2.8893 -0.9965 -0.5035 0
M  V30 15 C 1.919 0.5624 1.0795 0
M  V30 16 C 4.1693 -0.6259 -0.0799 0
M  V30 17 C 3.2014 0.9287 1.5 0
M  V30 18 C 4.3253 0.3374 0.9189 0
M  V30 19 H -4.4457 -2.4363 0.2745 0
M  V30 20 H -2.0652 3.0271 -0.4089 0
M  V30 21 H -2.032 -2.2916 0.0554 0
M  V30 22 H 2.7904 -1.7428 -1.2818 0
M  V30 23 H 1.0636 1.014 1.5649 0
M  V30 24 H 5.0408 -1.0868 -0.5265 0
M  V30 25 H 3.3233 1.667 2.2822 0
M  V30 26 H 5.3169 0.6218 1.2467 0
M  V30 END ATOM
M  V30 BEGIN BOND
M  V30 1 2 1 2
M  V30 2 1 2 3
M  V30 3 1 2 4
M  V30 4 2 3 5
M  V30 5 2 4 6
M  V30 6 1 4 7
M  V30 7 1 5 8
M  V30 8 1 6 9
M  V30 9 2 7 10
M  V30 10 1 9 11
M  V30 11 2 11 12
M  V30 12 1 11 13
M  V30 13 2 13 14
M  V30 14 1 13 15
M  V30 15 1 14 16
M  V30 16 2 15 17
M  V30 17 2 16 18
M  V30 18 1 6 8
M  V30 19 1 9 10
M  V30 20 1 17 18
M  V30 21 1 5 19
M  V30 22 1 7 20
M  V30 23 1 8 21
M  V30 24 1 14 22
M  V30 25 1 15 23
M  V30 26 1 16 24
M  V30 27 1 17 25
M  V30 28 1 18 26
M  V30 END BOND
M  V30 END CTAB
M  END
>  <Structure No>
7267

>  <LogS>
-4.23

>  <MMFF94 Energy>
78.431

$$$$
Compound 7268
Actelion Java MolfileCreator 2.0

  0  0  0  0  0  0              0 V3000
M  V30 BEGIN CTAB
M  V30 COUNTS 28 29 0 0 0
M  V30 BEGIN ATOM
M  V30 1 Cl -2.6809 0.7778 2.4213 0
M  V30 2 C -2.4762 0.3777 0.7169 0
M  V30 3 C -1.2259 0.4675 0.0492 0
M  V30 4 C -3.6122 -0.0588 0.0231 0
M  V30 5 C -1.166 0.0949 -1.3109 0
M  V30 6 C 0.0393 0.9482 0.7618 0 CFG=1
M  V30 7 C -3.5288 -0.4133 -1.3227 0
M  V30 8 C -2.3073 -0.3386 -1.9878 0
M  V30 9 C 1.1778 -0.0565 0.5735 0
M  V30 10 C 0.3722 2.4477 0.4718 0
M  V30 11 C 1.2066 -1.1991 1.3981 0
M  V30 12 C 2.1571 0.066 -0.4347 0
M  V30 13 Cl 0.4271 2.8717 -1.2653 0
M  V30 14 Cl -0.8753 3.4947 1.2041 0
M  V30 15 Cl 1.9272 2.9129 1.2203 0
M  V30 16 C 2.1998 -2.1697 1.2429 0
M  V30 17 C 3.1494 -0.9072 -0.5858 0
M  V30 18 C 3.1737 -2.0232 0.2532 0
M  V30 19 Cl 4.4187 -3.2432 0.0576 0
M  V30 20 H -4.5662 -0.1274 0.5309 0
M  V30 21 H -0.233 0.1375 -1.8559 0
M  V30 22 H -0.1476 0.9333 1.8556 0
M  V30 23 H -4.4123 -0.7502 -1.8496 0
M  V30 24 H -2.243 -0.6181 -3.0315 0
M  V30 25 H 0.4532 -1.3409 2.1636 0
M  V30 26 H 2.1695 0.9043 -1.1101 0
M  V30 27 H 2.2078 -3.0373 1.8903 0
M  V30 28 H 3.8973 -0.7938 -1.3604 0
M  V30 END ATOM
M  V30 BEGIN BOND
M  V30 1 1 1 2
M  V30 2 2 2 3
M  V30 3 1 2 4
M  V30 4 1 3 5
M  V30 5 1 3 6
M  V30 6 2 4 7
M  V30 7 2 5 8
M  V30 8 1 6 9
M  V30 9 1 6 10
M  V30 10 2 9 11
M  V30 11 1 9 12
M  V30 12 1 10 13
M  V30 13 1 10 14
M  V30 14 1 10 15
M  V30 15 1 11 16
M  V30 16 2 12 17
M  V30 17 2 16 18
M  V30 18 1 18 19
M  V30 19 1 7 8
M  V30 20 1 17 18
M  V30 21 1 4 20
M  V30 22 1 5 21
M  V30 23 1 6 22
M  V30 24 1 7 23
M  V30 25 1 8 24
M  V30 26 1 11 25
M  V30 27 1 12 26
M  V30 28 1 16 27
M  V30 29 1 17 28
M  V30 END BOND
M  V30 BEGIN COLLECTION
M  V30 MDLV30/STEABS ATOMS=(1 6)
M  V30 END COLLECTION
M  V30 END CTAB
M  END
>  <Structure No>
7268

>  <LogS>
-7.13

>  <MMFF94 Energy>
88.169

$$$$
Compound 7269
Actelion Java MolfileCreator 2.0

  0  0  0  0  0  0              0 V3000
M  V30 BEGIN CTAB
M  V30 COUNTS 23 24 0 0 0
M  V30 BEGIN ATOM
M  V30 1 Cl 5.1165 -0.2642 2.2031 0
M  V30 2 C 3.6684 -0.1958 1.2079 0
M  V30 3 C 2.5637 0.5863 1.5818 0
M  V30 4 C 3.6278 -0.9318 0.0191 0
M  V30 5 Cl 2.5803 1.5415 3.0582 0
M  V30 6 C 1.4264 0.6188 0.767 0
M  V30 7 C 2.4905 -0.8992 -0.7946 0
M  V30 8 C 1.3748 -0.137 -0.418 0
M  V30 9 Cl 2.4695 -1.8339 -2.2821 0
M  V30 10 O 0.2508 -0.1094 -1.2581 0
M  V30 11 C -1.0774 0.0452 -0.8343 0
M  V30 12 C -1.5211 -0.4311 0.4132 0
M  V30 13 C -1.9937 0.6507 -1.7028 0
M  V30 14 C -2.8579 -0.2701 0.7937 0
M  V30 15 C -3.3307 0.8112 -1.322 0
M  V30 16 Cl -3.4031 -0.8603 2.353 0
M  V30 17 C -3.7614 0.3543 -0.0723 0
M  V30 18 Cl -4.4668 1.5834 -2.4128 0
M  V30 19 H 4.4818 -1.5296 -0.2735 0
M  V30 20 H 0.5917 1.2474 1.0491 0
M  V30 21 H -0.8381 -0.9416 1.0796 0
M  V30 22 H -1.6625 1.0036 -2.6714 0
M  V30 23 H -4.7961 0.4777 0.222 0
M  V30 END ATOM
M  V30 BEGIN BOND
M  V30 1 1 1 2
M  V30 2 2 2 3
M  V30 3 1 2 4
M  V30 4 1 3 5
M  V30 5 1 3 6
M  V30 6 2 4 7
M  V30 7 2 6 8
M  V30 8 1 7 9
M  V30 9 1 8 10
M  V30 10 1 10 11
M  V30 11 2 11 12
M  V30 12 1 11 13
M  V30 13 1 12 14
M  V30 14 2 13 15
M  V30 15 1 14 16
M  V30 16 2 14 17
M  V30 17 1 15 18
M  V30 18 1 7 8
M  V30 19 1 15 17
M  V30 20 1 4 19
M  V30 21 1 6 20
M  V30 22 1 12 21
M  V30 23 1 13 22
M  V30 24 1 17 23
M  V30 END BOND
M  V30 END CTAB
M  END
>  <Structure No>
7269

>  <LogS>
-8.06

>  <MMFF94 Energy>
27.855

$$$$
Compound 7270
Actelion Java MolfileCreator 2.0

  0  0  0  0  0  0              0 V3000
M  V30 BEGIN CTAB
M  V30 COUNTS 23 24 0 0 0
M  V30 BEGIN ATOM
M  V30 1 Cl 2.2039 -1.6747 -2.5569 0
M  V30 2 C 2.3352 -1.0135 -0.9294 0
M  V30 3 C 3.4546 -1.302 -0.1282 0
M  V30 4 C 1.3038 -0.2014 -0.4289 0
M  V30 5 Cl 4.758 -2.3261 -0.7156 0
M  V30 6 C 3.5451 -0.769 1.1617 0
M  V30 7 O 0.2016 0.0859 -1.2492 0
M  V30 8 C 1.4179 0.3447 0.8622 0
M  V30 9 C 2.5313 0.0555 1.6551 0
M  V30 10 C -1.1081 0.3127 -0.8017 0
M  V30 11 Cl 2.6605 0.7359 3.2668 0
M  V30 12 C -1.6189 -0.3095 0.3516 0
M  V30 13 C -1.9405 1.1467 -1.5554 0
M  V30 14 C -2.9361 -0.0708 0.7616 0
M  V30 15 C -3.2559 1.387 -1.1497 0
M  V30 16 Cl -3.5325 -0.8632 2.2135 0
M  V30 17 C -3.7579 0.7851 0.009 0
M  V30 18 Cl -5.4178 1.1113 0.4886 0
M  V30 19 H 4.4069 -0.9904 1.7785 0
M  V30 20 H 0.6534 1.008 1.2452 0
M  V30 21 H -1.0029 -0.9928 0.9213 0
M  V30 22 H -1.5634 1.6168 -2.4546 0
M  V30 23 H -3.8854 2.0419 -1.7387 0
M  V30 END ATOM
M  V30 BEGIN BOND
M  V30 1 1 1 2
M  V30 2 2 2 3
M  V30 3 1 2 4
M  V30 4 1 3 5
M  V30 5 1 3 6
M  V30 6 1 4 7
M  V30 7 2 4 8
M  V30 8 2 6 9
M  V30 9 1 7 10
M  V30 10 1 9 11
M  V30 11 2 10 12
M  V30 12 1 10 13
M  V30 13 1 12 14
M  V30 14 2 13 15
M  V30 15 1 14 16
M  V30 16 2 14 17
M  V30 17 1 17 18
M  V30 18 1 8 9
M  V30 19 1 15 17
M  V30 20 1 6 19
M  V30 21 1 8 20
M  V30 22 1 12 21
M  V30 23 1 13 22
M  V30 24 1 15 23
M  V30 END BOND
M  V30 END CTAB
M  END
>  <Structure No>
7270

>  <LogS>
-7.83

>  <MMFF94 Energy>
45.836

$$$$
Compound 7271
Actelion Java MolfileCreator 2.0

  0  0  0  0  0  0              0 V3000
M  V30 BEGIN CTAB
M  V30 COUNTS 23 24 0 0 0
M  V30 BEGIN ATOM
M  V30 1 Cl 5.3823 -0.8809 -1.0572 0
M  V30 2 C 3.7745 -0.3018 -0.6424 0
M  V30 3 C 2.6482 -0.6799 -1.3911 0
M  V30 4 C 3.6247 0.5577 0.4508 0
M  V30 5 Cl 2.7945 -1.7427 -2.7842 0
M  V30 6 C 1.3827 -0.201 -1.0344 0
M  V30 7 C 2.3593 1.036 0.807 0
M  V30 8 C 1.2268 0.6466 0.0772 0
M  V30 9 Cl 2.2031 2.1157 2.184 0
M  V30 10 O -0.0298 1.1515 0.4457 0
M  V30 11 C -1.2551 0.4876 0.2799 0
M  V30 12 C -2.4205 1.2445 0.0795 0
M  V30 13 C -1.3503 -0.9143 0.3579 0
M  V30 14 Cl -2.3416 2.9978 0.0041 0
M  V30 15 C -3.657 0.6063 -0.0731 0
M  V30 16 C -2.5869 -1.547 0.2052 0
M  V30 17 C -3.7403 -0.7881 -0.0141 0
M  V30 18 Cl -5.2918 -1.584 -0.2041 0
M  V30 19 H 4.4934 0.8559 1.0244 0
M  V30 20 H 0.5252 -0.4748 -1.6351 0
M  V30 21 H -0.4732 -1.5162 0.5555 0
M  V30 22 H -4.5519 1.1937 -0.2358 0
M  V30 23 H -2.6485 -2.6261 0.2647 0
M  V30 END ATOM
M  V30 BEGIN BOND
M  V30 1 1 1 2
M  V30 2 2 2 3
M  V30 3 1 2 4
M  V30 4 1 3 5
M  V30 5 1 3 6
M  V30 6 2 4 7
M  V30 7 2 6 8
M  V30 8 1 7 9
M  V30 9 1 8 10
M  V30 10 1 10 11
M  V30 11 2 11 12
M  V30 12 1 11 13
M  V30 13 1 12 14
M  V30 14 1 12 15
M  V30 15 2 13 16
M  V30 16 2 15 17
M  V30 17 1 17 18
M  V30 18 1 7 8
M  V30 19 1 16 17
M  V30 20 1 4 19
M  V30 21 1 6 20
M  V30 22 1 13 21
M  V30 23 1 15 22
M  V30 24 1 16 23
M  V30 END BOND
M  V30 END CTAB
M  END
>  <Structure No>
7271

>  <LogS>
-7.61

>  <MMFF94 Energy>
45.505

$$$$
Compound 7272
Actelion Java MolfileCreator 2.0

  0  0  0  0  0  0              0 V3000
M  V30 BEGIN CTAB
M  V30 COUNTS 23 24 0 0 0
M  V30 BEGIN ATOM
M  V30 1 Cl 3.705 2.2924 0.6168 0
M  V30 2 C 2.9895 0.8423 -0.0879 0
M  V30 3 C 1.8245 0.2814 0.4715 0
M  V30 4 C 3.5876 0.237 -1.2078 0
M  V30 5 Cl 1.1151 0.9822 1.9267 0
M  V30 6 C 1.2569 -0.8735 -0.1052 0
M  V30 7 Cl 5.0419 0.9026 -1.9402 0
M  V30 8 C 3.0319 -0.923 -1.754 0
M  V30 9 O 0.0931 -1.4565 0.4109 0
M  V30 10 C 1.8775 -1.4779 -1.2017 0
M  V30 11 C -1.1501 -0.8112 0.4927 0
M  V30 12 C -2.1457 -1.3756 1.2994 0
M  V30 13 C -1.4316 0.3665 -0.2265 0
M  V30 14 C -3.4008 -0.7666 1.4068 0
M  V30 15 C -2.6866 0.9751 -0.1176 0
M  V30 16 Cl -4.6367 -1.4784 2.4279 0
M  V30 17 C -3.67 0.4097 0.7002 0
M  V30 18 Cl -3.0281 2.4458 -1.0106 0
M  V30 19 H 3.4944 -1.3965 -2.6109 0
M  V30 20 H 1.4534 -2.374 -1.6366 0
M  V30 21 H -1.9396 -2.2861 1.8479 0
M  V30 22 H -0.6851 0.8079 -0.8737 0
M  V30 23 H -4.6412 0.8811 0.7836 0
M  V30 END ATOM
M  V30 BEGIN BOND
M  V30 1 1 1 2
M  V30 2 2 2 3
M  V30 3 1 2 4
M  V30 4 1 3 5
M  V30 5 1 3 6
M  V30 6 1 4 7
M  V30 7 2 4 8
M  V30 8 1 6 9
M  V30 9 2 6 10
M  V30 10 1 9 11
M  V30 11 2 11 12
M  V30 12 1 11 13
M  V30 13 1 12 14
M  V30 14 2 13 15
M  V30 15 1 14 16
M  V30 16 2 14 17
M  V30 17 1 15 18
M  V30 18 1 8 10
M  V30 19 1 15 17
M  V30 20 1 8 19
M  V30 21 1 10 20
M  V30 22 1 12 21
M  V30 23 1 13 22
M  V30 24 1 17 23
M  V30 END BOND
M  V30 END CTAB
M  END
>  <Structure No>
7272

>  <LogS>
-7.86

>  <MMFF94 Energy>
40.116

$$$$
Compound 7273
Actelion Java MolfileCreator 2.0

  0  0  0  0  0  0              0 V3000
M  V30 BEGIN CTAB
M  V30 COUNTS 23 24 0 0 0
M  V30 BEGIN ATOM
M  V30 1 Cl -4.6796 -2.2937 -1.3228 0
M  V30 2 C -3.4632 -1.1231 -0.8086 0
M  V30 3 C -3.7468 0.2549 -0.8515 0
M  V30 4 C -2.2074 -1.5669 -0.3538 0
M  V30 5 Cl -5.3172 0.823 -1.4212 0
M  V30 6 C -2.7763 1.1797 -0.4315 0
M  V30 7 Cl -1.8315 -3.2878 -0.2906 0
M  V30 8 C -1.2329 -0.6397 0.0444 0
M  V30 9 Cl -3.0937 2.9104 -0.4494 0
M  V30 10 C -1.5323 0.7317 0.0187 0
M  V30 11 O 0.0069 -1.1079 0.5072 0
M  V30 12 C 1.234 -0.4444 0.3593 0
M  V30 13 C 2.233 -0.6569 1.3173 0
M  V30 14 C 1.5036 0.3865 -0.7442 0
M  V30 15 C 3.4748 -0.0251 1.197 0
M  V30 16 C 2.7458 1.0173 -0.8632 0
M  V30 17 C 3.731 0.8154 0.1088 0
M  V30 18 Cl 5.2895 1.6061 -0.0426 0
M  V30 19 H -0.8048 1.4539 0.3664 0
M  V30 20 H 2.0429 -1.3078 2.1614 0
M  V30 21 H 0.7634 0.5315 -1.5201 0
M  V30 22 H 4.2363 -0.1909 1.9484 0
M  V30 23 H 2.9436 1.6566 -1.7144 0
M  V30 END ATOM
M  V30 BEGIN BOND
M  V30 1 1 1 2
M  V30 2 2 2 3
M  V30 3 1 2 4
M  V30 4 1 3 5
M  V30 5 1 3 6
M  V30 6 1 4 7
M  V30 7 2 4 8
M  V30 8 1 6 9
M  V30 9 2 6 10
M  V30 10 1 8 11
M  V30 11 1 11 12
M  V30 12 2 12 13
M  V30 13 1 12 14
M  V30 14 1 13 15
M  V30 15 2 14 16
M  V30 16 2 15 17
M  V30 17 1 17 18
M  V30 18 1 8 10
M  V30 19 1 16 17
M  V30 20 1 10 19
M  V30 21 1 13 20
M  V30 22 1 14 21
M  V30 23 1 15 22
M  V30 24 1 16 23
M  V30 END BOND
M  V30 END CTAB
M  END
>  <Structure No>
7273

>  <LogS>
-8.06

>  <MMFF94 Energy>
53.769

$$$$
Compound 7274
Actelion Java MolfileCreator 2.0

  0  0  0  0  0  0              0 V3000
M  V30 BEGIN CTAB
M  V30 COUNTS 23 24 0 0 0
M  V30 BEGIN ATOM
M  V30 1 Cl -0.4404 -0.2642 -2.5563 0
M  V30 2 C -1.5821 -0.1729 -1.2217 0
M  V30 3 C -1.3074 0.5967 -0.0727 0
M  V30 4 C -2.8062 -0.8417 -1.3366 0
M  V30 5 O -0.0903 1.2748 0.0744 0
M  V30 6 C -2.2816 0.713 0.9312 0
M  V30 7 C -3.7626 -0.74 -0.322 0
M  V30 8 C 1.1666 0.6528 0.1075 0
M  V30 9 Cl -1.9734 1.6823 2.3637 0
M  V30 10 C -3.5021 0.0405 0.8076 0
M  V30 11 Cl -5.2953 -1.5797 -0.4735 0
M  V30 12 C 2.3094 1.444 -0.0562 0
M  V30 13 C 1.312 -0.7296 0.3247 0
M  V30 14 C 3.5853 0.8689 -0.0252 0
M  V30 15 C 2.584 -1.3065 0.3561 0
M  V30 16 Cl 4.9907 1.9027 -0.245 0
M  V30 17 C 3.7233 -0.5141 0.1796 0
M  V30 18 Cl 5.3071 -1.2765 0.2254 0
M  V30 19 H -3.0186 -1.432 -2.2191 0
M  V30 20 H -4.247 0.1245 1.5892 0
M  V30 21 H 2.2027 2.51 -0.2135 0
M  V30 22 H 0.4465 -1.3608 0.4775 0
M  V30 23 H 2.6832 -2.3719 0.5213 0
M  V30 END ATOM
M  V30 BEGIN BOND
M  V30 1 1 1 2
M  V30 2 2 2 3
M  V30 3 1 2 4
M  V30 4 1 3 5
M  V30 5 1 3 6
M  V30 6 2 4 7
M  V30 7 1 5 8
M  V30 8 1 6 9
M  V30 9 2 6 10
M  V30 10 1 7 11
M  V30 11 2 8 12
M  V30 12 1 8 13
M  V30 13 1 12 14
M  V30 14 2 13 15
M  V30 15 1 14 16
M  V30 16 2 14 17
M  V30 17 1 17 18
M  V30 18 1 7 10
M  V30 19 1 15 17
M  V30 20 1 4 19
M  V30 21 1 10 20
M  V30 22 1 12 21
M  V30 23 1 13 22
M  V30 24 1 15 23
M  V30 END BOND
M  V30 END CTAB
M  END
>  <Structure No>
7274

>  <LogS>
-7.62

>  <MMFF94 Energy>
39.692

$$$$
Compound 7275
Actelion Java MolfileCreator 2.0

  0  0  0  0  0  0              0 V3000
M  V30 BEGIN CTAB
M  V30 COUNTS 28 29 0 0 0
M  V30 BEGIN ATOM
M  V30 1 S -0.7361 -1.4726 -1.6363 0
M  V30 2 O -0.1668 -2.5039 -2.569 0
M  V30 3 O -2.0276 -0.9566 -2.2069 0
M  V30 4 N -1.0505 -2.206 -0.0959 0
M  V30 5 C 0.4318 -0.1671 -1.456 0
M  V30 6 C -1.4443 -1.4679 1.0744 0
M  V30 7 C 0.3053 1.0081 -2.2091 0
M  V30 8 C 1.4948 -0.2999 -0.553 0
M  V30 9 N -1.8178 -0.1549 0.9999 0
M  V30 10 C -1.4476 -2.1097 2.3183 0
M  V30 11 C 1.23 2.0454 -2.0537 0
M  V30 12 C 2.4192 0.7372 -0.3968 0
M  V30 13 C -2.1784 0.5336 2.1186 0
M  V30 14 C -1.8212 -1.3854 3.4478 0
M  V30 15 C 2.2908 1.9155 -1.1459 0
M  V30 16 O -2.5164 1.7439 2.0348 0
M  V30 17 N -2.1773 -0.0817 3.329 0
M  V30 18 N 3.2356 2.9769 -0.9859 0
M  V30 19 H -0.8627 -3.2301 -0.0111 0
M  V30 20 H -0.5076 1.1237 -2.9144 0
M  V30 21 H 1.6063 -1.2042 0.0317 0
M  V30 22 H -1.8426 0.3432 0.0839 0
M  V30 23 H -1.1601 -3.1493 2.411 0
M  V30 24 H 1.1201 2.9494 -2.6396 0
M  V30 25 H 3.2343 0.623 0.3067 0
M  V30 26 H -1.8274 -1.8592 4.4204 0
M  V30 27 H 3.1484 3.8583 -1.5396 0
M  V30 28 H 4.0291 2.8892 -0.3125 0
M  V30 END ATOM
M  V30 BEGIN BOND
M  V30 1 2 1 2
M  V30 2 2 1 3
M  V30 3 1 1 4
M  V30 4 1 1 5
M  V30 5 1 4 6
M  V30 6 2 5 7
M  V30 7 1 5 8
M  V30 8 1 6 9
M  V30 9 2 6 10
M  V30 10 1 7 11
M  V30 11 2 8 12
M  V30 12 1 9 13
M  V30 13 1 10 14
M  V30 14 2 11 15
M  V30 15 2 13 16
M  V30 16 1 13 17
M  V30 17 1 15 18
M  V30 18 1 12 15
M  V30 19 2 14 17
M  V30 20 1 4 19
M  V30 21 1 7 20
M  V30 22 1 8 21
M  V30 23 1 9 22
M  V30 24 1 10 23
M  V30 25 1 11 24
M  V30 26 1 12 25
M  V30 27 1 14 26
M  V30 28 1 18 27
M  V30 29 1 18 28
M  V30 END BOND
M  V30 END CTAB
M  END
>  <Structure No>
7275

>  <LogS>
-3.55

>  <MMFF94 Energy>
-123.52

$$$$
Compound 7276
Actelion Java MolfileCreator 2.0

  0  0  0  0  0  0              0 V3000
M  V30 BEGIN CTAB
M  V30 COUNTS 23 24 0 0 0
M  V30 BEGIN ATOM
M  V30 1 Cl 3.7071 -2.382 -0.1763 0
M  V30 2 C 3.0215 -0.7718 0.05 0
M  V30 3 C 1.6831 -0.6204 0.4667 0
M  V30 4 C 3.8173 0.3651 -0.1764 0
M  V30 5 Cl 0.7268 -2.0521 0.8551 0
M  V30 6 C 1.1439 0.6769 0.6327 0
M  V30 7 Cl 5.4913 0.222 -0.6982 0
M  V30 8 C 3.2855 1.6405 0.0257 0
M  V30 9 O -0.1852 0.899 1.0214 0
M  V30 10 C 1.9615 1.7938 0.4347 0
M  V30 11 C -1.3086 0.2413 0.4978 0
M  V30 12 C -1.4597 -0.0411 -0.8807 0
M  V30 13 C -2.3294 -0.1198 1.3865 0
M  V30 14 Cl -0.2984 0.5022 -2.0858 0
M  V30 15 C -2.6017 -0.7172 -1.329 0
M  V30 16 C -3.4646 -0.7934 0.9299 0
M  V30 17 C -3.5985 -1.0989 -0.4263 0
M  V30 18 Cl -5.0253 -1.9436 -0.9991 0
M  V30 19 H 3.8985 2.5178 -0.1374 0
M  V30 20 H 1.5598 2.7888 0.5794 0
M  V30 21 H -2.2323 0.1073 2.4407 0
M  V30 22 H -2.7214 -0.9342 -2.3832 0
M  V30 23 H -4.2386 -1.0779 1.6315 0
M  V30 END ATOM
M  V30 BEGIN BOND
M  V30 1 1 1 2
M  V30 2 2 2 3
M  V30 3 1 2 4
M  V30 4 1 3 5
M  V30 5 1 3 6
M  V30 6 1 4 7
M  V30 7 2 4 8
M  V30 8 1 6 9
M  V30 9 2 6 10
M  V30 10 1 9 11
M  V30 11 2 11 12
M  V30 12 1 11 13
M  V30 13 1 12 14
M  V30 14 1 12 15
M  V30 15 2 13 16
M  V30 16 2 15 17
M  V30 17 1 17 18
M  V30 18 1 8 10
M  V30 19 1 16 17
M  V30 20 1 8 19
M  V30 21 1 10 20
M  V30 22 1 13 21
M  V30 23 1 15 22
M  V30 24 1 16 23
M  V30 END BOND
M  V30 END CTAB
M  END
>  <Structure No>
7276

>  <LogS>
-7.44

>  <MMFF94 Energy>
58.326

$$$$
Compound 7277
Actelion Java MolfileCreator 2.0

  0  0  0  0  0  0              0 V3000
M  V30 BEGIN CTAB
M  V30 COUNTS 23 24 0 0 0
M  V30 BEGIN ATOM
M  V30 1 Cl 5.1171 1.8506 0.7928 0
M  V30 2 C 3.6619 0.9808 0.3264 0
M  V30 3 C 3.3572 0.7419 -1.0234 0
M  V30 4 C 2.8034 0.5109 1.3263 0
M  V30 5 Cl 4.4156 1.3032 -2.3104 0
M  V30 6 C 2.1915 0.0454 -1.3601 0
M  V30 7 C 1.637 -0.1852 0.9908 0
M  V30 8 C 1.3175 -0.4033 -0.3638 0
M  V30 9 Cl 0.6359 -0.8306 2.2848 0
M  V30 10 O 0.1579 -1.0891 -0.746 0
M  V30 11 C -1.1473 -0.703 -0.402 0
M  V30 12 C -2.1888 -1.6362 -0.5272 0
M  V30 13 C -1.4424 0.602 0.0387 0
M  V30 14 Cl -1.8597 -3.2685 -1.0871 0
M  V30 15 C -3.5003 -1.2763 -0.1968 0
M  V30 16 C -2.7548 0.9562 0.3685 0
M  V30 17 C -3.7825 0.0159 0.2524 0
M  V30 18 Cl -3.1119 2.5814 0.9234 0
M  V30 19 H 3.0492 0.6776 2.3677 0
M  V30 20 H 1.954 -0.1368 -2.4007 0
M  V30 21 H -0.6599 1.3451 0.1193 0
M  V30 22 H -4.302 -1.9979 -0.2878 0
M  V30 23 H -4.7996 0.2862 0.5061 0
M  V30 END ATOM
M  V30 BEGIN BOND
M  V30 1 1 1 2
M  V30 2 2 2 3
M  V30 3 1 2 4
M  V30 4 1 3 5
M  V30 5 1 3 6
M  V30 6 2 4 7
M  V30 7 2 6 8
M  V30 8 1 7 9
M  V30 9 1 8 10
M  V30 10 1 10 11
M  V30 11 2 11 12
M  V30 12 1 11 13
M  V30 13 1 12 14
M  V30 14 1 12 15
M  V30 15 2 13 16
M  V30 16 2 15 17
M  V30 17 1 16 18
M  V30 18 1 7 8
M  V30 19 1 16 17
M  V30 20 1 4 19
M  V30 21 1 6 20
M  V30 22 1 13 21
M  V30 23 1 15 22
M  V30 24 1 17 23
M  V30 END BOND
M  V30 END CTAB
M  END
>  <Structure No>
7277

>  <LogS>
-7.56

>  <MMFF94 Energy>
48.111

$$$$
Compound 7278
Actelion Java MolfileCreator 2.0

  0  0  0  0  0  0              0 V3000
M  V30 BEGIN CTAB
M  V30 COUNTS 23 24 0 0 0
M  V30 BEGIN ATOM
M  V30 1 Cl 0.2643 2.0277 0.9694 0
M  V30 2 C 1.4749 0.8771 0.4016 0
M  V30 3 C 2.7162 0.7976 1.0613 0
M  V30 4 C 1.2436 0.0816 -0.7456 0
M  V30 5 Cl 3.0525 1.756 2.498 0
M  V30 6 C 3.7176 -0.0466 0.5717 0
M  V30 7 O 0.025 0.0929 -1.4395 0
M  V30 8 C 2.2695 -0.7326 -1.2387 0
M  V30 9 C 3.4986 -0.8041 -0.58 0
M  V30 10 C -1.2478 0.0434 -0.8516 0
M  V30 11 Cl 4.7652 -1.8487 -1.1972 0
M  V30 12 C -1.5551 -0.7996 0.2425 0
M  V30 13 C -2.2549 0.8474 -1.4003 0
M  V30 14 Cl -0.3946 -1.9457 0.9022 0
M  V30 15 C -2.8445 -0.7837 0.7896 0
M  V30 16 C -3.5378 0.8564 -0.848 0
M  V30 17 C -3.8318 0.0466 0.2513 0
M  V30 18 Cl -5.4436 0.0571 0.9431 0
M  V30 19 H 4.6715 -0.1052 1.0807 0
M  V30 20 H 2.1006 -1.3273 -2.1277 0
M  V30 21 H -2.0353 1.4831 -2.2487 0
M  V30 22 H -3.0838 -1.4282 1.6263 0
M  V30 23 H -4.3017 1.4936 -1.275 0
M  V30 END ATOM
M  V30 BEGIN BOND
M  V30 1 1 1 2
M  V30 2 2 2 3
M  V30 3 1 2 4
M  V30 4 1 3 5
M  V30 5 1 3 6
M  V30 6 1 4 7
M  V30 7 2 4 8
M  V30 8 2 6 9
M  V30 9 1 7 10
M  V30 10 1 9 11
M  V30 11 2 10 12
M  V30 12 1 10 13
M  V30 13 1 12 14
M  V30 14 1 12 15
M  V30 15 2 13 16
M  V30 16 2 15 17
M  V30 17 1 17 18
M  V30 18 1 8 9
M  V30 19 1 16 17
M  V30 20 1 6 19
M  V30 21 1 8 20
M  V30 22 1 13 21
M  V30 23 1 15 22
M  V30 24 1 16 23
M  V30 END BOND
M  V30 END CTAB
M  END
>  <Structure No>
7278

>  <LogS>
-7.64

>  <MMFF94 Energy>
42.657

$$$$
Compound 7279
Actelion Java MolfileCreator 2.0

  0  0  0  0  0  0              0 V3000
M  V30 BEGIN CTAB
M  V30 COUNTS 23 24 0 0 0
M  V30 BEGIN ATOM
M  V30 1 Cl 1.1459 2.2044 -0.9695 0
M  V30 2 C 1.8884 0.6822 -0.4787 0
M  V30 3 C 1.2825 -0.1154 0.515 0
M  V30 4 C 3.1132 0.2811 -1.043 0
M  V30 5 O 0.059 0.2497 1.0919 0
M  V30 6 C 1.9246 -1.2815 0.9584 0
M  V30 7 Cl 3.9031 1.239 -2.2891 0
M  V30 8 C 3.7304 -0.8956 -0.6072 0
M  V30 9 C -1.1487 0.3614 0.3865 0
M  V30 10 Cl 1.1979 -2.2787 2.2093 0
M  V30 11 C 3.1417 -1.6707 0.3928 0
M  V30 12 C -2.2274 1.0045 1.0044 0
M  V30 13 C -1.3132 -0.1709 -0.9055 0
M  V30 14 C -3.4538 1.1366 0.342 0
M  V30 15 C -2.536 -0.0407 -1.5693 0
M  V30 16 Cl -4.7772 1.9604 1.1561 0
M  V30 17 C -3.6082 0.6129 -0.9526 0
M  V30 18 Cl -5.1313 0.7569 -1.8198 0
M  V30 19 H 4.6734 -1.2071 -1.0384 0
M  V30 20 H 3.6325 -2.5759 0.7272 0
M  V30 21 H -2.1083 1.4079 2.0024 0
M  V30 22 H -0.5029 -0.6918 -1.3982 0
M  V30 23 H -2.6499 -0.4522 -2.5642 0
M  V30 END ATOM
M  V30 BEGIN BOND
M  V30 1 1 1 2
M  V30 2 2 2 3
M  V30 3 1 2 4
M  V30 4 1 3 5
M  V30 5 1 3 6
M  V30 6 1 4 7
M  V30 7 2 4 8
M  V30 8 1 5 9
M  V30 9 1 6 10
M  V30 10 2 6 11
M  V30 11 2 9 12
M  V30 12 1 9 13
M  V30 13 1 12 14
M  V30 14 2 13 15
M  V30 15 1 14 16
M  V30 16 2 14 17
M  V30 17 1 17 18
M  V30 18 1 8 11
M  V30 19 1 15 17
M  V30 20 1 8 19
M  V30 21 1 11 20
M  V30 22 1 12 21
M  V30 23 1 13 22
M  V30 24 1 15 23
M  V30 END BOND
M  V30 END CTAB
M  END
>  <Structure No>
7279

>  <LogS>
-7.35

>  <MMFF94 Energy>
60.035

$$$$
Compound 7280
Actelion Java MolfileCreator 2.0

  0  0  0  0  0  0              0 V3000
M  V30 BEGIN CTAB
M  V30 COUNTS 23 24 0 0 0
M  V30 BEGIN ATOM
M  V30 1 Cl -2.0279 1.4986 2.3809 0
M  V30 2 C -2.2952 0.518 0.9414 0
M  V30 3 C -3.4963 0.6218 0.2155 0
M  V30 4 C -1.2858 -0.3588 0.5131 0
M  V30 5 Cl -4.7591 1.7351 0.742 0
M  V30 6 C -3.6858 -0.1659 -0.9327 0
M  V30 7 O -0.0957 -0.4417 1.2478 0
M  V30 8 C -1.494 -1.1601 -0.625 0
M  V30 9 Cl -5.1705 -0.0715 -1.8716 0
M  V30 10 C -2.688 -1.0543 -1.3426 0
M  V30 11 C 1.1758 -0.1441 0.7352 0
M  V30 12 Cl -0.3017 -2.3468 -1.1377 0
M  V30 13 C 1.3514 0.5651 -0.4687 0
M  V30 14 C 2.3022 -0.5472 1.4627 0
M  V30 15 C 2.6379 0.8451 -0.9389 0
M  V30 16 C 3.5879 -0.2661 0.9907 0
M  V30 17 C 3.757 0.4283 -0.2111 0
M  V30 18 Cl 5.3703 0.7808 -0.8024 0
M  V30 19 H -2.8455 -1.6725 -2.2176 0
M  V30 20 H 0.4987 0.9083 -1.0395 0
M  V30 21 H 2.1797 -1.0847 2.3945 0
M  V30 22 H 2.7635 1.3889 -1.8665 0
M  V30 23 H 4.4507 -0.5876 1.5601 0
M  V30 END ATOM
M  V30 BEGIN BOND
M  V30 1 1 1 2
M  V30 2 2 2 3
M  V30 3 1 2 4
M  V30 4 1 3 5
M  V30 5 1 3 6
M  V30 6 1 4 7
M  V30 7 2 4 8
M  V30 8 1 6 9
M  V30 9 2 6 10
M  V30 10 1 7 11
M  V30 11 1 8 12
M  V30 12 2 11 13
M  V30 13 1 11 14
M  V30 14 1 13 15
M  V30 15 2 14 16
M  V30 16 2 15 17
M  V30 17 1 17 18
M  V30 18 1 8 10
M  V30 19 1 16 17
M  V30 20 1 10 19
M  V30 21 1 13 20
M  V30 22 1 14 21
M  V30 23 1 15 22
M  V30 24 1 16 23
M  V30 END BOND
M  V30 END CTAB
M  END
>  <Structure No>
7280

>  <LogS>
-7.77

>  <MMFF94 Energy>
50.382

$$$$
Compound 7281
Actelion Java MolfileCreator 2.0

  0  0  0  0  0  0              0 V3000
M  V30 BEGIN CTAB
M  V30 COUNTS 48 49 0 0 0
M  V30 BEGIN ATOM
M  V30 1 O -6.5821 0.9495 -1.583 0
M  V30 2 C -5.6016 0.5611 -0.8866 0
M  V30 3 N -4.5761 1.4428 -0.5907 0
M  V30 4 N -5.5677 -0.7377 -0.4299 0
M  V30 5 C -3.5171 1.0402 0.1916 0
M  V30 6 C -4.6535 2.8382 -1.0563 0
M  V30 7 C -4.4907 -1.1299 0.3029 0
M  V30 8 C -6.628 -1.6927 -0.7802 0
M  V30 9 O -2.603 1.8488 0.5074 0
M  V30 10 C -3.483 -0.2829 0.6271 0
M  V30 11 N -4.2646 -2.3604 0.8026 0
M  V30 12 N -2.5741 -0.9574 1.3611 0
M  V30 13 C -3.0776 -2.2137 1.4426 0
M  V30 14 C -1.2877 -0.5288 1.9141 0
M  V30 15 O -0.2179 -1.1528 1.209 0
M  V30 16 C 0.1054 -0.8551 -0.1187 0
M  V30 17 O -0.5333 0.0238 -0.7583 0
M  V30 18 C 1.2512 -1.5624 -0.7732 0
M  V30 19 C 2.518 -0.6968 -0.7918 0
M  V30 20 C 3.1073 -0.4997 0.6157 0
M  V30 21 C 4.3364 0.4229 0.6169 0
M  V30 22 C 5.566 -0.2271 -0.0411 0
M  V30 23 C 6.853 0.579 0.1921 0
M  V30 24 C 6.8582 1.9116 -0.5564 0
M  V30 25 H -3.6422 3.2765 -1.1946 0
M  V30 26 H -5.1589 2.9048 -2.0433 0
M  V30 27 H -5.2157 3.4464 -0.3166 0
M  V30 28 H -7.6239 -1.2013 -0.7464 0
M  V30 29 H -6.662 -2.5423 -0.0655 0
M  V30 30 H -6.4494 -2.0877 -1.8023 0
M  V30 31 H -2.5813 -3.025 1.9595 0
M  V30 32 H -1.1664 0.5706 1.8959 0
M  V30 33 H -1.2342 -0.8399 2.9786 0
M  V30 34 H 1.4522 -2.5203 -0.2464 0
M  V30 35 H 0.9675 -1.8102 -1.8188 0
M  V30 36 H 3.2653 -1.2071 -1.4351 0
M  V30 37 H 2.2894 0.2899 -1.2515 0
M  V30 38 H 2.3382 -0.0367 1.2708 0
M  V30 39 H 3.3747 -1.485 1.0564 0
M  V30 40 H 4.0823 1.3734 0.1003 0
M  V30 41 H 4.5789 0.6668 1.6744 0
M  V30 42 H 5.7152 -1.2411 0.39 0
M  V30 43 H 5.4012 -0.3437 -1.1335 0
M  V30 44 H 6.9991 0.7618 1.279 0
M  V30 45 H 7.7152 -0.0247 -0.1649 0
M  V30 46 H 7.8513 2.3949 -0.442 0
M  V30 47 H 6.0904 2.5975 -0.1423 0
M  V30 48 H 6.6663 1.7504 -1.6385 0
M  V30 END ATOM
M  V30 BEGIN BOND
M  V30 1 2 1 2
M  V30 2 1 2 3
M  V30 3 1 2 4
M  V30 4 1 3 5
M  V30 5 1 3 6
M  V30 6 1 4 7
M  V30 7 1 4 8
M  V30 8 2 5 9
M  V30 9 1 5 10
M  V30 10 1 7 11
M  V30 11 1 10 12
M  V30 12 2 11 13
M  V30 13 1 12 14
M  V30 14 1 14 15
M  V30 15 1 15 16
M  V30 16 2 16 17
M  V30 17 1 16 18
M  V30 18 1 18 19
M  V30 19 1 19 20
M  V30 20 1 20 21
M  V30 21 1 21 22
M  V30 22 1 22 23
M  V30 23 1 23 24
M  V30 24 2 7 10
M  V30 25 1 12 13
M  V30 26 1 6 25
M  V30 27 1 6 26
M  V30 28 1 6 27
M  V30 29 1 8 28
M  V30 30 1 8 29
M  V30 31 1 8 30
M  V30 32 1 13 31
M  V30 33 1 14 32
M  V30 34 1 14 33
M  V30 35 1 18 34
M  V30 36 1 18 35
M  V30 37 1 19 36
M  V30 38 1 19 37
M  V30 39 1 20 38
M  V30 40 1 20 39
M  V30 41 1 21 40
M  V30 42 1 21 41
M  V30 43 1 22 42
M  V30 44 1 22 43
M  V30 45 1 23 44
M  V30 46 1 23 45
M  V30 47 1 24 46
M  V30 48 1 24 47
M  V30 49 1 24 48
M  V30 END BOND
M  V30 END CTAB
M  END
>  <Structure No>
7281

>  <LogS>
-3.45

>  <MMFF94 Energy>
-145.57

$$$$
Compound 7282
Actelion Java MolfileCreator 2.0

  0  0  0  0  0  0              0 V3000
M  V30 BEGIN CTAB
M  V30 COUNTS 23 24 0 0 0
M  V30 BEGIN ATOM
M  V30 1 Cl -1.7626 -3.2626 0.5285 0
M  V30 2 C -2.1902 -1.5726 0.3084 0
M  V30 3 C -1.2412 -0.5626 0.5379 0
M  V30 4 C -3.4794 -1.2453 -0.1234 0
M  V30 5 O 0.0452 -0.9356 0.9554 0
M  V30 6 C -1.6174 0.7907 0.3717 0
M  V30 7 C -3.8378 0.0907 -0.3147 0
M  V30 8 C 1.246 -0.3981 0.4693 0
M  V30 9 Cl -0.5345 2.1189 0.77 0
M  V30 10 C -2.9111 1.1051 -0.061 0
M  V30 11 Cl -5.4567 0.4962 -0.8553 0
M  V30 12 C 1.4667 -0.135 -0.9032 0
M  V30 13 C 2.2711 -0.1437 1.389 0
M  V30 14 Cl 0.2907 -0.5576 -2.1417 0
M  V30 15 C 2.6855 0.4179 -1.3162 0
M  V30 16 C 3.4834 0.4076 0.968 0
M  V30 17 C 3.6889 0.6955 -0.3833 0
M  V30 18 Cl 5.2123 1.3864 -0.9114 0
M  V30 19 H -4.2018 -2.0297 -0.3114 0
M  V30 20 H -3.2012 2.1408 -0.1878 0
M  V30 21 H 2.119 -0.3582 2.4394 0
M  V30 22 H 2.8585 0.6195 -2.3659 0
M  V30 23 H 4.2611 0.6112 1.6929 0
M  V30 END ATOM
M  V30 BEGIN BOND
M  V30 1 1 1 2
M  V30 2 2 2 3
M  V30 3 1 2 4
M  V30 4 1 3 5
M  V30 5 1 3 6
M  V30 6 2 4 7
M  V30 7 1 5 8
M  V30 8 1 6 9
M  V30 9 2 6 10
M  V30 10 1 7 11
M  V30 11 2 8 12
M  V30 12 1 8 13
M  V30 13 1 12 14
M  V30 14 1 12 15
M  V30 15 2 13 16
M  V30 16 2 15 17
M  V30 17 1 17 18
M  V30 18 1 7 10
M  V30 19 1 16 17
M  V30 20 1 4 19
M  V30 21 1 10 20
M  V30 22 1 13 21
M  V30 23 1 15 22
M  V30 24 1 16 23
M  V30 END BOND
M  V30 END CTAB
M  END
>  <Structure No>
7282

>  <LogS>
-7.33

>  <MMFF94 Energy>
36.361

$$$$
Compound 7283
Actelion Java MolfileCreator 2.0

  0  0  0  0  0  0              0 V3000
M  V30 BEGIN CTAB
M  V30 COUNTS 23 24 0 0 0
M  V30 BEGIN ATOM
M  V30 1 Cl 2.5574 -2.734 -0.8813 0
M  V30 2 C 2.4985 -1.0305 -0.436 0
M  V30 3 C 3.6815 -0.3243 -0.152 0
M  V30 4 C 1.2549 -0.3805 -0.3563 0
M  V30 5 Cl 5.2542 -1.1073 -0.2319 0
M  V30 6 C 3.6186 1.0276 0.2014 0
M  V30 7 O 0.0884 -1.1045 -0.6507 0
M  V30 8 C 1.2093 0.9839 -0.0114 0
M  V30 9 C 2.3865 1.6796 0.2693 0
M  V30 10 C -1.206 -0.7093 -0.2912 0
M  V30 11 C -1.5677 -0.4902 1.0528 0
M  V30 12 C -2.1671 -0.5618 -1.2973 0
M  V30 13 Cl -0.4333 -0.7762 2.3659 0
M  V30 14 C -2.8719 -0.0904 1.3653 0
M  V30 15 C -3.4706 -0.1616 -0.9837 0
M  V30 16 C -3.8233 0.0808 0.3539 0
M  V30 17 Cl -4.6393 0.0284 -2.2837 0
M  V30 18 Cl -5.4506 0.5838 0.7916 0
M  V30 19 H 4.526 1.5759 0.4205 0
M  V30 20 H 0.2663 1.5128 0.0327 0
M  V30 21 H 2.344 2.7278 0.5363 0
M  V30 22 H -1.8935 -0.7464 -2.3287 0
M  V30 23 H -3.1499 0.0765 2.3986 0
M  V30 END ATOM
M  V30 BEGIN BOND
M  V30 1 1 1 2
M  V30 2 2 2 3
M  V30 3 1 2 4
M  V30 4 1 3 5
M  V30 5 1 3 6
M  V30 6 1 4 7
M  V30 7 2 4 8
M  V30 8 2 6 9
M  V30 9 1 7 10
M  V30 10 2 10 11
M  V30 11 1 10 12
M  V30 12 1 11 13
M  V30 13 1 11 14
M  V30 14 2 12 15
M  V30 15 2 14 16
M  V30 16 1 15 17
M  V30 17 1 16 18
M  V30 18 1 8 9
M  V30 19 1 15 16
M  V30 20 1 6 19
M  V30 21 1 8 20
M  V30 22 1 9 21
M  V30 23 1 12 22
M  V30 24 1 14 23
M  V30 END BOND
M  V30 END CTAB
M  END
>  <Structure No>
7283

>  <LogS>
-7.48

>  <MMFF94 Energy>
59.943

$$$$
Compound 7284
Actelion Java MolfileCreator 2.0

  0  0  0  0  0  0              0 V3000
M  V30 BEGIN CTAB
M  V30 COUNTS 23 24 0 0 0
M  V30 BEGIN ATOM
M  V30 1 Cl -5.2085 -0.8814 0.6169 0
M  V30 2 C -3.669 -0.1625 0.1432 0
M  V30 3 C -2.5098 -0.9578 0.0629 0
M  V30 4 C -3.5951 1.2091 -0.1576 0
M  V30 5 Cl -2.5751 -2.68 0.432 0
M  V30 6 C -1.2823 -0.3819 -0.303 0
M  V30 7 Cl -5.0162 2.2429 -0.0722 0
M  V30 8 C -2.3761 1.7742 -0.5415 0
M  V30 9 O -0.144 -1.1988 -0.3904 0
M  V30 10 C -1.2279 0.9857 -0.6204 0
M  V30 11 C 1.1752 -0.7873 -0.1451 0
M  V30 12 C 2.2262 -1.422 -0.8261 0
M  V30 13 C 1.4718 0.2114 0.8015 0
M  V30 14 Cl 1.8929 -2.6914 -1.9939 0
M  V30 15 C 3.5514 -1.0395 -0.5874 0
M  V30 16 C 2.7978 0.5903 1.0363 0
M  V30 17 C 3.8363 -0.0331 0.3387 0
M  V30 18 Cl 3.1579 1.8401 2.2135 0
M  V30 19 H -2.3181 2.8273 -0.7866 0
M  V30 20 H -0.3013 1.4392 -0.9473 0
M  V30 21 H 0.6786 0.681 1.3689 0
M  V30 22 H 4.3613 -1.523 -1.1187 0
M  V30 23 H 4.864 0.2561 0.5182 0
M  V30 END ATOM
M  V30 BEGIN BOND
M  V30 1 1 1 2
M  V30 2 2 2 3
M  V30 3 1 2 4
M  V30 4 1 3 5
M  V30 5 1 3 6
M  V30 6 1 4 7
M  V30 7 2 4 8
M  V30 8 1 6 9
M  V30 9 2 6 10
M  V30 10 1 9 11
M  V30 11 2 11 12
M  V30 12 1 11 13
M  V30 13 1 12 14
M  V30 14 1 12 15
M  V30 15 2 13 16
M  V30 16 2 15 17
M  V30 17 1 16 18
M  V30 18 1 8 10
M  V30 19 1 16 17
M  V30 20 1 8 19
M  V30 21 1 10 20
M  V30 22 1 13 21
M  V30 23 1 15 22
M  V30 24 1 17 23
M  V30 END BOND
M  V30 END CTAB
M  END
>  <Structure No>
7284

>  <LogS>
-7.7

>  <MMFF94 Energy>
62.482

$$$$
Compound 7285
Actelion Java MolfileCreator 2.0

  0  0  0  0  0  0              0 V3000
M  V30 BEGIN CTAB
M  V30 COUNTS 40 41 0 0 0
M  V30 BEGIN ATOM
M  V30 1 O -0.4699 -0.705 -0.3916 0
M  V30 2 C -0.3031 0.5352 -0.5491 0
M  V30 3 N -1.4292 1.3891 -0.8025 0
M  V30 4 N 1.021 1.0904 -0.5591 0
M  V30 5 C -2.7989 0.9943 -0.6126 0
M  V30 6 C 2.1947 0.3845 -0.1205 0
M  V30 7 C -3.1772 0.1383 0.4384 0
M  V30 8 C -3.7869 1.5174 -1.4583 0
M  V30 9 C 3.4281 0.6537 -0.7338 0
M  V30 10 C 2.1456 -0.522 0.9525 0
M  V30 11 C -4.5256 -0.2222 0.6204 0
M  V30 12 C -5.1254 1.1603 -1.2865 0
M  V30 13 C 4.6008 -5.0E-4 -0.3126 0
M  V30 14 C 3.3057 -1.1717 1.3784 0
M  V30 15 C -4.9274 -1.1334 1.7217 0
M  V30 16 C -5.4942 0.2907 -0.2582 0
M  V30 17 C 5.9034 0.2777 -0.9682 0
M  V30 18 C 4.5261 -0.9166 0.7496 0
M  V30 19 N -4.3649 -1.0501 2.8911 0 CHG=1
M  V30 20 N -5.9526 -2.1094 1.5004 0
M  V30 21 N 5.9728 0.4661 -2.2529 0 CHG=1
M  V30 22 N 7.1002 0.3312 -0.1824 0
M  V30 23 H -1.2422 2.3274 -1.2231 0
M  V30 24 H 1.1463 2.0385 -0.9803 0
M  V30 25 H -2.4252 -0.2421 1.1165 0
M  V30 26 H -3.5159 2.1935 -2.2594 0
M  V30 27 H 3.4696 1.3829 -1.5335 0
M  V30 28 H 1.2197 -0.7091 1.4795 0
M  V30 29 H -5.8804 1.5626 -1.9498 0
M  V30 30 H 3.2598 -1.8714 2.203 0
M  V30 31 H -6.5405 0.0414 -0.134 0
M  V30 32 H 5.4088 -1.4445 1.0875 0
M  V30 33 H -4.6456 -1.693 3.6652 0
M  V30 34 H -3.6417 -0.3274 3.1035 0
M  V30 35 H -6.3613 -2.2549 0.551 0
M  V30 36 H -6.2775 -2.7284 2.2762 0
M  V30 37 H 6.8885 0.6649 -2.7144 0
M  V30 38 H 5.1292 0.3988 -2.8649 0
M  V30 39 H 8.0297 0.4813 -0.634 0
M  V30 40 H 7.0638 0.2715 0.8592 0
M  V30 END ATOM
M  V30 BEGIN BOND
M  V30 1 2 1 2
M  V30 2 1 2 3
M  V30 3 1 2 4
M  V30 4 1 3 5
M  V30 5 1 4 6
M  V30 6 2 5 7
M  V30 7 1 5 8
M  V30 8 2 6 9
M  V30 9 1 6 10
M  V30 10 1 7 11
M  V30 11 2 8 12
M  V30 12 1 9 13
M  V30 13 2 10 14
M  V30 14 1 11 15
M  V30 15 2 11 16
M  V30 16 1 13 17
M  V30 17 2 13 18
M  V30 18 2 15 19
M  V30 19 1 15 20
M  V30 20 2 17 21
M  V30 21 1 17 22
M  V30 22 1 12 16
M  V30 23 1 14 18
M  V30 24 1 3 23
M  V30 25 1 4 24
M  V30 26 1 7 25
M  V30 27 1 8 26
M  V30 28 1 9 27
M  V30 29 1 10 28
M  V30 30 1 12 29
M  V30 31 1 14 30
M  V30 32 1 16 31
M  V30 33 1 18 32
M  V30 34 1 19 33
M  V30 35 1 19 34
M  V30 36 1 20 35
M  V30 37 1 20 36
M  V30 38 1 21 37
M  V30 39 1 21 38
M  V30 40 1 22 39
M  V30 41 1 22 40
M  V30 END BOND
M  V30 END CTAB
M  END
>  <Structure No>
7285

>  <LogS>
-1.77

>  <MMFF94 Energy>
-53.642

$$$$
Compound 7286
Actelion Java MolfileCreator 2.0

  0  0  0  0  0  0              0 V3000
M  V30 BEGIN CTAB
M  V30 COUNTS 23 24 0 0 0
M  V30 BEGIN ATOM
M  V30 1 Cl 4.768 2.0289 1.2346 0
M  V30 2 C 3.4673 1.0729 0.524 0
M  V30 3 C 2.1348 1.5222 0.5987 0
M  V30 4 C 3.7577 -0.1417 -0.1216 0
M  V30 5 Cl 1.7432 3.0425 1.3996 0
M  V30 6 C 1.0985 0.7545 0.0428 0
M  V30 7 Cl 5.4065 -0.7432 -0.241 0
M  V30 8 C 2.7262 -0.8925 -0.6917 0
M  V30 9 O -0.2196 1.2315 0.1167 0
M  V30 10 C 1.4062 -0.4471 -0.6169 0
M  V30 11 C -1.3729 0.4342 0.1859 0
M  V30 12 C -2.5727 0.9193 -0.3617 0
M  V30 13 C -1.3636 -0.8146 0.8333 0
M  V30 14 Cl -2.5901 2.4959 -1.1474 0
M  V30 15 C -3.7438 0.1429 -0.2889 0
M  V30 16 C -2.5284 -1.581 0.9033 0
M  V30 17 Cl -5.2603 0.711 -0.975 0
M  V30 18 C -3.7141 -1.1057 0.3406 0
M  V30 19 H 2.9477 -1.8218 -1.201 0
M  V30 20 H 0.6277 -1.0308 -1.0903 0
M  V30 21 H -0.4613 -1.1869 1.3003 0
M  V30 22 H -2.5139 -2.542 1.4009 0
M  V30 23 H -4.6127 -1.7065 0.4007 0
M  V30 END ATOM
M  V30 BEGIN BOND
M  V30 1 1 1 2
M  V30 2 2 2 3
M  V30 3 1 2 4
M  V30 4 1 3 5
M  V30 5 1 3 6
M  V30 6 1 4 7
M  V30 7 2 4 8
M  V30 8 1 6 9
M  V30 9 2 6 10
M  V30 10 1 9 11
M  V30 11 2 11 12
M  V30 12 1 11 13
M  V30 13 1 12 14
M  V30 14 1 12 15
M  V30 15 2 13 16
M  V30 16 1 15 17
M  V30 17 2 15 18
M  V30 18 1 8 10
M  V30 19 1 16 18
M  V30 20 1 8 19
M  V30 21 1 10 20
M  V30 22 1 13 21
M  V30 23 1 16 22
M  V30 24 1 18 23
M  V30 END BOND
M  V30 END CTAB
M  END
>  <Structure No>
7286

>  <LogS>
-7.38

>  <MMFF94 Energy>
72.8

$$$$
Compound 7287
Actelion Java MolfileCreator 2.0

  0  0  0  0  0  0              0 V3000
M  V30 BEGIN CTAB
M  V30 COUNTS 23 24 0 0 0
M  V30 BEGIN ATOM
M  V30 1 Cl -0.6169 -2.2927 -1.0577 0
M  V30 2 C -1.6629 -0.9936 -0.4849 0
M  V30 3 C -1.2579 0.3507 -0.612 0
M  V30 4 C -2.924 -1.2926 0.0584 0
M  V30 5 O -0.0033 0.6789 -1.1415 0
M  V30 6 C -2.129 1.3836 -0.2301 0
M  V30 7 Cl -3.4693 -2.9549 0.2428 0
M  V30 8 C -3.7758 -0.2585 0.4568 0
M  V30 9 C 1.2214 0.3322 -0.5513 0
M  V30 10 Cl -1.618 3.0595 -0.4143 0
M  V30 11 C -3.388 1.0758 0.3106 0
M  V30 12 C 1.3099 -0.1288 0.7768 0
M  V30 13 C 2.392 0.473 -1.3062 0
M  V30 14 Cl -4.4996 2.3421 0.8154 0
M  V30 15 C 2.5529 -0.458 1.3257 0
M  V30 16 C 3.6342 0.1433 -0.7553 0
M  V30 17 C 3.7155 -0.3243 0.5602 0
M  V30 18 Cl 5.2741 -0.7375 1.2506 0
M  V30 19 H -4.747 -0.493 0.8745 0
M  V30 20 H 0.4241 -0.2273 1.3902 0
M  V30 21 H 2.3376 0.8347 -2.3252 0
M  V30 22 H 2.6113 -0.8137 2.3466 0
M  V30 23 H 4.5313 0.2522 -1.3511 0
M  V30 END ATOM
M  V30 BEGIN BOND
M  V30 1 1 1 2
M  V30 2 2 2 3
M  V30 3 1 2 4
M  V30 4 1 3 5
M  V30 5 1 3 6
M  V30 6 1 4 7
M  V30 7 2 4 8
M  V30 8 1 5 9
M  V30 9 1 6 10
M  V30 10 2 6 11
M  V30 11 2 9 12
M  V30 12 1 9 13
M  V30 13 1 11 14
M  V30 14 1 12 15
M  V30 15 2 13 16
M  V30 16 2 15 17
M  V30 17 1 17 18
M  V30 18 1 8 11
M  V30 19 1 16 17
M  V30 20 1 8 19
M  V30 21 1 12 20
M  V30 22 1 13 21
M  V30 23 1 15 22
M  V30 24 1 16 23
M  V30 END BOND
M  V30 END CTAB
M  END
>  <Structure No>
7287

>  <LogS>
-7.76

>  <MMFF94 Energy>
52.439

$$$$
Compound 7288
Actelion Java MolfileCreator 2.0

  0  0  0  0  0  0              0 V3000
M  V30 BEGIN CTAB
M  V30 COUNTS 19 23 0 0 0
M  V30 BEGIN ATOM
M  V30 1 Cl 0 0 0 0
M  V30 2 C 0 0 0 0
M  V30 3 C 0 0 0 0
M  V30 4 C 0 0 0 0
M  V30 5 C 0 0 0 0
M  V30 6 C 0 0 0 0
M  V30 7 C 0 0 0 0
M  V30 8 N 0 0 0 0
M  V30 9 N 0 0 0 0
M  V30 10 C 0 0 0 0
M  V30 11 N 0 0 0 0
M  V30 12 C 0 0 0 0
M  V30 13 C 0 0 0 0
M  V30 14 C 0 0 0 0
M  V30 15 C 0 0 0 0
M  V30 16 C 0 0 0 0
M  V30 17 C 0 0 0 0
M  V30 18 N 0 0 0 0
M  V30 19 N 0 0 0 0
M  V30 END ATOM
M  V30 BEGIN BOND
M  V30 1 1 1 2
M  V30 2 2 2 3
M  V30 3 1 2 4
M  V30 4 1 3 5
M  V30 5 2 4 6
M  V30 6 2 5 7
M  V30 7 1 7 8
M  V30 8 1 8 9
M  V30 9 1 8 10
M  V30 10 2 9 11
M  V30 11 1 10 12
M  V30 12 1 10 13
M  V30 13 1 12 14
M  V30 14 1 13 15
M  V30 15 1 13 16
M  V30 16 1 14 17
M  V30 17 1 15 18
M  V30 18 1 17 19
M  V30 19 1 6 7
M  V30 20 1 11 12
M  V30 21 1 14 16
M  V30 22 1 15 17
M  V30 23 2 18 19
M  V30 END BOND
M  V30 END CTAB
M  END
>  <Structure No>
7288

>  <LogS>
-4.87

>  <MMFF94 Energy>
47.606

$$$$
Compound 7289
Actelion Java MolfileCreator 2.0

  0  0  0  0  0  0              0 V3000
M  V30 BEGIN CTAB
M  V30 COUNTS 23 24 0 0 0
M  V30 BEGIN ATOM
M  V30 1 Cl -1.1456 1.7628 -1.3219 0
M  V30 2 C -1.8637 0.4936 -0.3305 0
M  V30 3 C -1.1956 -0.7373 -0.1599 0
M  V30 4 C -3.1288 0.6862 0.2538 0
M  V30 5 O 0.0684 -0.9603 -0.7204 0
M  V30 6 C -1.8146 -1.7712 0.5587 0
M  V30 7 Cl -3.9973 2.2055 0.0745 0
M  V30 8 C -3.7237 -0.3453 0.9872 0
M  V30 9 C 1.2241 -0.2343 -0.3906 0
M  V30 10 Cl -1.0096 -3.3191 0.7649 0
M  V30 11 C -3.0722 -1.5707 1.1343 0
M  V30 12 C 2.3516 -0.3366 -1.221 0
M  V30 13 C 1.29 0.5733 0.7617 0
M  V30 14 Cl 2.3094 -1.3447 -2.6592 0
M  V30 15 C 3.5194 0.3715 -0.9142 0
M  V30 16 C 2.4583 1.2783 1.0632 0
M  V30 17 C 3.5727 1.1799 0.2254 0
M  V30 18 Cl 5.0383 2.0655 0.6061 0
M  V30 19 H -4.6976 -0.201 1.4378 0
M  V30 20 H -3.5459 -2.3646 1.6979 0
M  V30 21 H 0.444 0.6538 1.4316 0
M  V30 22 H 4.3844 0.2932 -1.5608 0
M  V30 23 H 2.4973 1.8981 1.9502 0
M  V30 END ATOM
M  V30 BEGIN BOND
M  V30 1 1 1 2
M  V30 2 2 2 3
M  V30 3 1 2 4
M  V30 4 1 3 5
M  V30 5 1 3 6
M  V30 6 1 4 7
M  V30 7 2 4 8
M  V30 8 1 5 9
M  V30 9 1 6 10
M  V30 10 2 6 11
M  V30 11 2 9 12
M  V30 12 1 9 13
M  V30 13 1 12 14
M  V30 14 1 12 15
M  V30 15 2 13 16
M  V30 16 2 15 17
M  V30 17 1 17 18
M  V30 18 1 8 11
M  V30 19 1 16 17
M  V30 20 1 8 19
M  V30 21 1 11 20
M  V30 22 1 13 21
M  V30 23 1 15 22
M  V30 24 1 16 23
M  V30 END BOND
M  V30 END CTAB
M  END
>  <Structure No>
7289

>  <LogS>
-7.24

>  <MMFF94 Energy>
56.718

$$$$
Compound 7290
Actelion Java MolfileCreator 2.0

  0  0  0  0  0  0              0 V3000
M  V30 BEGIN CTAB
M  V30 COUNTS 23 24 0 0 0
M  V30 BEGIN ATOM
M  V30 1 Cl 5.3829 0.7048 0.1761 0
M  V30 2 C 3.7141 0.1528 0.13 0
M  V30 3 C 2.6575 0.9946 0.5134 0
M  V30 4 C 3.4434 -1.1519 -0.2939 0
M  V30 5 Cl 2.9546 2.6386 1.0618 0
M  V30 6 C 1.3404 0.5246 0.4651 0
M  V30 7 C 2.1267 -1.6214 -0.343 0
M  V30 8 C 1.0639 -0.7838 0.0259 0
M  V30 9 Cl 1.8191 -3.265 -0.8817 0
M  V30 10 O -0.2466 -1.2839 -0.0287 0
M  V30 11 C -1.402 -0.4922 0.0011 0
M  V30 12 C -2.3454 -0.6968 1.0205 0
M  V30 13 C -1.6487 0.482 -0.9884 0
M  V30 14 Cl -2.0735 -1.918 2.2537 0
M  V30 15 C -3.5039 0.0857 1.0731 0
M  V30 16 Cl -0.5552 0.7037 -2.3476 0
M  V30 17 C -2.8112 1.2591 -0.9264 0
M  V30 18 C -3.7333 1.0649 0.1045 0
M  V30 19 H 4.2578 -1.8029 -0.5859 0
M  V30 20 H 0.5368 1.1787 0.7775 0
M  V30 21 H -4.227 -0.0643 1.8647 0
M  V30 22 H -3.0067 2.0074 -1.6838 0
M  V30 23 H -4.6314 1.6675 0.1471 0
M  V30 END ATOM
M  V30 BEGIN BOND
M  V30 1 1 1 2
M  V30 2 2 2 3
M  V30 3 1 2 4
M  V30 4 1 3 5
M  V30 5 1 3 6
M  V30 6 2 4 7
M  V30 7 2 6 8
M  V30 8 1 7 9
M  V30 9 1 8 10
M  V30 10 1 10 11
M  V30 11 2 11 12
M  V30 12 1 11 13
M  V30 13 1 12 14
M  V30 14 1 12 15
M  V30 15 1 13 16
M  V30 16 2 13 17
M  V30 17 2 15 18
M  V30 18 1 7 8
M  V30 19 1 17 18
M  V30 20 1 4 19
M  V30 21 1 6 20
M  V30 22 1 15 21
M  V30 23 1 17 22
M  V30 24 1 18 23
M  V30 END BOND
M  V30 END CTAB
M  END
>  <Structure No>
7290

>  <LogS>
-7.12

>  <MMFF94 Energy>
55.864

$$$$
Compound 7291
Actelion Java MolfileCreator 2.0

  0  0  0  0  0  0              0 V3000
M  V30 BEGIN CTAB
M  V30 COUNTS 23 24 0 0 0
M  V30 BEGIN ATOM
M  V30 1 Cl -3.5308 2.3823 -0.9701 0
M  V30 2 C -2.9175 0.8396 -0.3721 0
M  V30 3 C -1.5904 0.4484 -0.643 0
M  V30 4 C -3.7601 -0.0075 0.369 0
M  V30 5 Cl -0.5779 1.4668 -1.6691 0
M  V30 6 C -1.1095 -0.7862 -0.1472 0
M  V30 7 Cl -5.422 0.4419 0.7311 0
M  V30 8 C -3.2859 -1.2403 0.8222 0
M  V30 9 O 0.2055 -1.2258 -0.3579 0
M  V30 10 C -1.9734 -1.6288 0.5588 0
M  V30 11 C 1.3602 -0.4394 -0.2208 0
M  V30 12 C 1.5411 0.4602 0.8568 0
M  V30 13 C 2.38 -0.5784 -1.1774 0
M  V30 14 Cl 0.381 0.5961 2.1729 0
M  V30 15 C 2.7086 1.2294 0.9315 0
M  V30 16 Cl 2.1987 -1.7028 -2.5153 0
M  V30 17 C 3.5409 0.1962 -1.0897 0
M  V30 18 C 3.7014 1.1028 -0.0413 0
M  V30 19 H -3.9353 -1.8999 1.384 0
M  V30 20 H -1.6168 -2.5838 0.9235 0
M  V30 21 H 2.8545 1.9185 1.7538 0
M  V30 22 H 4.3194 0.0968 -1.8353 0
M  V30 23 H 4.6019 1.6996 0.0242 0
M  V30 END ATOM
M  V30 BEGIN BOND
M  V30 1 1 1 2
M  V30 2 2 2 3
M  V30 3 1 2 4
M  V30 4 1 3 5
M  V30 5 1 3 6
M  V30 6 1 4 7
M  V30 7 2 4 8
M  V30 8 1 6 9
M  V30 9 2 6 10
M  V30 10 1 9 11
M  V30 11 2 11 12
M  V30 12 1 11 13
M  V30 13 1 12 14
M  V30 14 1 12 15
M  V30 15 1 13 16
M  V30 16 2 13 17
M  V30 17 2 15 18
M  V30 18 1 8 10
M  V30 19 1 17 18
M  V30 20 1 8 19
M  V30 21 1 10 20
M  V30 22 1 15 21
M  V30 23 1 17 22
M  V30 24 1 18 23
M  V30 END BOND
M  V30 END CTAB
M  END
>  <Structure No>
7291

>  <LogS>
-7.23

>  <MMFF94 Energy>
68.72

$$$$
Compound 7292
Actelion Java MolfileCreator 2.0

  0  0  0  0  0  0              0 V3000
M  V30 BEGIN CTAB
M  V30 COUNTS 46 47 0 0 0
M  V30 BEGIN ATOM
M  V30 1 O 1.5057 -2.4576 0.8715 0
M  V30 2 C 1.3419 -1.3133 0.3658 0
M  V30 3 O 1.6629 -1.0768 -0.9763 0
M  V30 4 C 0.7638 -0.2073 1.2048 0 CFG=2
M  V30 5 C 2.3275 -2.028 -1.8053 0
M  V30 6 C -0.6962 0.0158 0.8609 0
M  V30 7 C 1.5828 1.0811 1.0606 0
M  V30 8 C 3.8035 -2.1267 -1.4316 0
M  V30 9 C -1.69 -0.2457 1.821 0
M  V30 10 C -1.0814 0.471 -0.4144 0
M  V30 11 O 4.3992 -0.835 -1.4948 0
M  V30 12 C -3.0462 -0.0516 1.5171 0
M  V30 13 C -2.4293 0.6669 -0.7239 0
M  V30 14 C 5.7268 -0.5969 -1.1309 0
M  V30 15 C -3.4195 0.409 0.2338 0
M  V30 16 C -4.0366 -0.3111 2.4749 0
M  V30 17 O 6.4638 -1.5386 -0.7294 0
M  V30 18 C 6.2597 0.8016 -1.1739 0
M  V30 19 C -4.7765 0.6024 -0.0702 0
M  V30 20 C -5.3843 -0.1154 2.1635 0
M  V30 21 N 5.7747 1.5714 -0.0296 0 CHG=1
M  V30 22 C -5.7666 0.3397 0.8965 0
M  V30 23 O -7.1346 0.517 0.6398 0
M  V30 24 C -7.6694 0.97 -0.5997 0
M  V30 25 H 0.8496 -0.5121 2.2726 0
M  V30 26 H 1.84 -3.0233 -1.7198 0
M  V30 27 H 2.2453 -1.6947 -2.8615 0
M  V30 28 H 1.6081 1.433 0.0076 0
M  V30 29 H 2.6272 0.9044 1.3971 0
M  V30 30 H 1.1446 1.8821 1.6939 0
M  V30 31 H 3.9022 -2.5364 -0.4031 0
M  V30 32 H 4.318 -2.8109 -2.1402 0
M  V30 33 H -1.4077 -0.6011 2.8055 0
M  V30 34 H -0.3387 0.6751 -1.1742 0
M  V30 35 H -2.6969 1.0188 -1.7131 0
M  V30 36 H -3.7698 -0.6645 3.4639 0
M  V30 37 H 7.3724 0.7835 -1.169 0
M  V30 38 H 5.9275 1.2872 -2.1179 0
M  V30 39 H -5.0546 0.9551 -1.0552 0
M  V30 40 H -6.1388 -0.3196 2.9128 0
M  V30 41 H 6.1723 2.5375 -0.0743 0
M  V30 42 H 4.7305 1.6335 -0.0566 0
M  V30 43 H 6.0809 1.1191 0.863 0
M  V30 44 H -8.7745 1.0192 -0.5209 0
M  V30 45 H -7.4021 0.2623 -1.4124 0
M  V30 46 H -7.2848 1.9851 -0.8334 0
M  V30 END ATOM
M  V30 BEGIN BOND
M  V30 1 2 1 2
M  V30 2 1 2 3
M  V30 3 1 2 4
M  V30 4 1 3 5
M  V30 5 1 4 6
M  V30 6 1 4 7
M  V30 7 1 5 8
M  V30 8 2 6 9
M  V30 9 1 6 10
M  V30 10 1 8 11
M  V30 11 1 9 12
M  V30 12 2 10 13
M  V30 13 1 11 14
M  V30 14 1 12 15
M  V30 15 2 12 16
M  V30 16 2 14 17
M  V30 17 1 14 18
M  V30 18 2 15 19
M  V30 19 1 16 20
M  V30 20 1 18 21
M  V30 21 1 19 22
M  V30 22 1 22 23
M  V30 23 1 23 24
M  V30 24 1 13 15
M  V30 25 2 20 22
M  V30 26 1 4 25
M  V30 27 1 5 26
M  V30 28 1 5 27
M  V30 29 1 7 28
M  V30 30 1 7 29
M  V30 31 1 7 30
M  V30 32 1 8 31
M  V30 33 1 8 32
M  V30 34 1 9 33
M  V30 35 1 10 34
M  V30 36 1 13 35
M  V30 37 1 16 36
M  V30 38 1 18 37
M  V30 39 1 18 38
M  V30 40 1 19 39
M  V30 41 1 20 40
M  V30 42 1 21 41
M  V30 43 1 21 42
M  V30 44 1 21 43
M  V30 45 1 24 44
M  V30 46 1 24 45
M  V30 47 1 24 46
M  V30 END BOND
M  V30 BEGIN COLLECTION
M  V30 MDLV30/STEABS ATOMS=(1 4)
M  V30 END COLLECTION
M  V30 END CTAB
M  END
>  <Structure No>
7292

>  <LogS>
-1.98

>  <MMFF94 Energy>
79.574

$$$$
Compound 7293
Actelion Java MolfileCreator 2.0

  0  0  0  0  0  0              0 V3000
M  V30 BEGIN CTAB
M  V30 COUNTS 23 23 0 0 0
M  V30 BEGIN ATOM
M  V30 1 S -1.4998 0.0881 0.4409 0
M  V30 2 O -1.3257 0.7849 1.7618 0
M  V30 3 O -1.1661 -1.3707 0.5919 0
M  V30 4 N -3.1501 0.2713 -0.0954 0
M  V30 5 N -0.4371 0.8066 -0.7231 0 CHG=-1
M  V30 6 C -3.3143 -0.3891 -1.3961 0
M  V30 7 C -4.0535 -0.3305 0.893 0
M  V30 8 C 0.9838 0.8192 -0.5792 0
M  V30 9 S 1.8478 0.1585 0.7115 0
M  V30 10 N 1.8028 1.3804 -1.4936 0
M  V30 11 C 3.296 0.6452 0.0037 0
M  V30 12 N 3.0907 1.2838 -1.1689 0
M  V30 13 S 4.8806 0.3666 0.6941 0
M  V30 14 O 5.0105 1.1337 1.9796 0
M  V30 15 O 5.9357 0.8313 -0.2697 0
M  V30 16 N 5.089 -1.322 0.9943 0 CHG=-1
M  V30 17 H -3.0783 -1.4747 -1.3338 0
M  V30 18 H -2.65 0.084 -2.1496 0
M  V30 19 H -4.3584 -0.2669 -1.7568 0
M  V30 20 H -3.9432 0.183 1.8716 0
M  V30 21 H -3.8459 -1.4155 1.0266 0
M  V30 22 H -5.1098 -0.202 0.5722 0
M  V30 23 H 6.0401 -1.4432 1.4091 0
M  V30 END ATOM
M  V30 BEGIN BOND
M  V30 1 2 1 2
M  V30 2 2 1 3
M  V30 3 1 1 4
M  V30 4 1 1 5
M  V30 5 1 4 6
M  V30 6 1 4 7
M  V30 7 1 5 8
M  V30 8 1 8 9
M  V30 9 2 8 10
M  V30 10 1 9 11
M  V30 11 1 10 12
M  V30 12 1 11 13
M  V30 13 2 13 14
M  V30 14 2 13 15
M  V30 15 1 13 16
M  V30 16 2 11 12
M  V30 17 1 6 17
M  V30 18 1 6 18
M  V30 19 1 6 19
M  V30 20 1 7 20
M  V30 21 1 7 21
M  V30 22 1 7 22
M  V30 23 1 16 23
M  V30 END BOND
M  V30 END CTAB
M  END
>  <Structure No>
7293

>  <LogS>
-2.68

>  <MMFF94 Energy>
62.651

$$$$
Compound 7294
Actelion Java MolfileCreator 2.0

  0  0  0  0  0  0              0 V3000
M  V30 BEGIN CTAB
M  V30 COUNTS 23 24 0 0 0
M  V30 BEGIN ATOM
M  V30 1 Cl 5.1248 0.8823 -1.7651 0
M  V30 2 C 3.6288 0.5837 -0.8768 0
M  V30 3 C 2.9459 -0.6352 -1.038 0
M  V30 4 C 3.1239 1.5617 -0.0015 0
M  V30 5 Cl 3.5894 -1.8723 -2.12 0
M  V30 6 C 1.7535 -0.871 -0.3316 0
M  V30 7 Cl 3.9835 3.088 0.2133 0
M  V30 8 C 1.9313 1.3235 0.7016 0
M  V30 9 Cl 0.9309 -2.4252 -0.4734 0
M  V30 10 C 1.2373 0.1188 0.5247 0
M  V30 11 Cl 1.2751 2.5388 1.7969 0
M  V30 12 O 0.0452 -0.0903 1.2303 0
M  V30 13 C -1.2126 -0.2508 0.6298 0
M  V30 14 C -1.4411 0.0545 -0.7264 0
M  V30 15 C -2.2765 -0.7099 1.4166 0
M  V30 16 C -2.7134 -0.1163 -1.2807 0
M  V30 17 C -3.5476 -0.8794 0.859 0
M  V30 18 C -3.7655 -0.5846 -0.4892 0
M  V30 19 H -0.6431 0.4298 -1.353 0
M  V30 20 H -2.1156 -0.94 2.4621 0
M  V30 21 H -2.8846 0.1175 -2.3235 0
M  V30 22 H -4.3636 -1.2386 1.4725 0
M  V30 23 H -4.7499 -0.7157 -0.9197 0
M  V30 END ATOM
M  V30 BEGIN BOND
M  V30 1 1 1 2
M  V30 2 2 2 3
M  V30 3 1 2 4
M  V30 4 1 3 5
M  V30 5 1 3 6
M  V30 6 1 4 7
M  V30 7 2 4 8
M  V30 8 1 6 9
M  V30 9 2 6 10
M  V30 10 1 8 11
M  V30 11 1 10 12
M  V30 12 1 12 13
M  V30 13 2 13 14
M  V30 14 1 13 15
M  V30 15 1 14 16
M  V30 16 2 15 17
M  V30 17 2 16 18
M  V30 18 1 8 10
M  V30 19 1 17 18
M  V30 20 1 14 19
M  V30 21 1 15 20
M  V30 22 1 16 21
M  V30 23 1 17 22
M  V30 24 1 18 23
M  V30 END BOND
M  V30 END CTAB
M  END
>  <Structure No>
7294

>  <LogS>
-7.94

>  <MMFF94 Energy>
61.687

$$$$
Compound 7295
Actelion Java MolfileCreator 2.0

  0  0  0  0  0  0              0 V3000
M  V30 BEGIN CTAB
M  V30 COUNTS 38 39 0 0 0
M  V30 BEGIN ATOM
M  V30 1 S -3.0044 -0.4867 -2.4354 0
M  V30 2 C -1.8887 0.4648 -1.4044 0
M  V30 3 C -2.4911 -2.0992 -1.747 0
M  V30 4 N -2.3099 0.965 -0.205 0
M  V30 5 C -0.5793 0.7235 -1.7861 0
M  V30 6 O -2.7593 -2.169 -0.3484 0
M  V30 7 C -1.4696 1.6895 0.6021 0
M  V30 8 N 0.0812 0.3394 -2.8951 0
M  V30 9 C 0.2307 1.4395 -0.9738 0
M  V30 10 C -4.052 -2.217 0.1839 0
M  V30 11 N -0.1793 1.9318 0.2203 0
M  V30 12 C 1.3228 0.8646 -2.701 0
M  V30 13 N 1.4413 1.5459 -1.533 0
M  V30 14 O -5.062 -2.1984 -0.5714 0
M  V30 15 C -4.2341 -2.2701 1.6679 0
M  V30 16 C 2.6398 2.1862 -0.9978 0
M  V30 17 C -3.8841 -0.9291 2.3021 0
M  V30 18 O 3.621 1.2023 -0.6817 0
M  V30 19 C 3.4748 0.2842 0.3635 0
M  V30 20 O 2.47 0.3266 1.1246 0
M  V30 21 C 4.5493 -0.7257 0.6092 0
M  V30 22 C 5.6231 -0.1527 1.5262 0
M  V30 23 H -1.4028 -2.2392 -1.9148 0
M  V30 24 H -3.0278 -2.9144 -2.2768 0
M  V30 25 H -1.8301 2.0691 1.5482 0
M  V30 26 H 2.1349 0.7404 -3.4056 0
M  V30 27 H -5.287 -2.5293 1.9135 0
M  V30 28 H -3.5754 -3.0598 2.0879 0
M  V30 29 H 2.3974 2.7874 -0.0942 0
M  V30 30 H 3.0565 2.8741 -1.7629 0
M  V30 31 H -4.062 -0.9783 3.3971 0
M  V30 32 H -4.5165 -0.1216 1.8744 0
M  V30 33 H -2.8135 -0.6892 2.1291 0
M  V30 34 H 4.112 -1.6359 1.0739 0
M  V30 35 H 5.0085 -1.0177 -0.3593 0
M  V30 36 H 5.1836 0.1257 2.508 0
M  V30 37 H 6.0867 0.7449 1.0637 0
M  V30 38 H 6.4135 -0.9143 1.6939 0
M  V30 END ATOM
M  V30 BEGIN BOND
M  V30 1 1 1 2
M  V30 2 1 1 3
M  V30 3 2 2 4
M  V30 4 1 2 5
M  V30 5 1 3 6
M  V30 6 1 4 7
M  V30 7 1 5 8
M  V30 8 2 5 9
M  V30 9 1 6 10
M  V30 10 2 7 11
M  V30 11 2 8 12
M  V30 12 1 9 13
M  V30 13 2 10 14
M  V30 14 1 10 15
M  V30 15 1 13 16
M  V30 16 1 15 17
M  V30 17 1 16 18
M  V30 18 1 18 19
M  V30 19 2 19 20
M  V30 20 1 19 21
M  V30 21 1 21 22
M  V30 22 1 9 11
M  V30 23 1 12 13
M  V30 24 1 3 23
M  V30 25 1 3 24
M  V30 26 1 7 25
M  V30 27 1 12 26
M  V30 28 1 15 27
M  V30 29 1 15 28
M  V30 30 1 16 29
M  V30 31 1 16 30
M  V30 32 1 17 31
M  V30 33 1 17 32
M  V30 34 1 17 33
M  V30 35 1 21 34
M  V30 36 1 21 35
M  V30 37 1 22 36
M  V30 38 1 22 37
M  V30 39 1 22 38
M  V30 END BOND
M  V30 END CTAB
M  END
>  <Structure No>
7295

>  <LogS>
-2.78

>  <MMFF94 Energy>
-30.711

$$$$
Compound 7296
Actelion Java MolfileCreator 2.0

  0  0  0  0  0  0              0 V3000
M  V30 BEGIN CTAB
M  V30 COUNTS 32 33 0 0 0
M  V30 BEGIN ATOM
M  V30 1 Cl -2.5659 0.9927 -2.2346 0
M  V30 2 C -3.6056 0.4148 -0.9391 0
M  V30 3 C -3.2631 0.5993 0.4165 0
M  V30 4 C -4.8236 -0.1904 -1.2726 0
M  V30 5 O -2.0541 1.1951 0.7967 0
M  V30 6 C -4.1637 0.2091 1.415 0
M  V30 7 C -5.7059 -0.6001 -0.2675 0
M  V30 8 C -0.7839 0.7107 0.4493 0
M  V30 9 C -5.3775 -0.3947 1.0758 0
M  V30 10 Cl -7.2308 -1.356 -0.6924 0
M  V30 11 C 0.3188 1.559 0.593 0
M  V30 12 C -0.5844 -0.6034 -0.0107 0
M  V30 13 C 1.6035 1.1163 0.2643 0
M  V30 14 C 0.6997 -1.0464 -0.3393 0
M  V30 15 C 1.8029 -0.1956 -0.2069 0
M  V30 16 O 3.0699 -0.6936 -0.5532 0
M  V30 17 C 4.3008 0.0246 -0.4415 0 CFG=1
M  V30 18 C 4.6777 0.2043 1.0011 0
M  V30 19 C 5.3959 -0.7482 -1.1705 0
M  V30 20 O 4.5262 -0.7392 1.8218 0
M  V30 21 O 5.2371 1.402 1.4277 0 CHG=-1
M  V30 22 H -5.0896 -0.3319 -2.3126 0
M  V30 23 H -3.9148 0.3623 2.4575 0
M  V30 24 H -6.0611 -0.7021 1.857 0
M  V30 25 H 0.1781 2.5696 0.9556 0
M  V30 26 H -1.4162 -1.2882 -0.1087 0
M  V30 27 H 2.43 1.8024 0.3817 0
M  V30 28 H 0.8394 -2.0594 -0.6952 0
M  V30 29 H 4.2003 1.0171 -0.933 0
M  V30 30 H 5.5228 -1.7582 -0.7245 0
M  V30 31 H 5.123 -0.8643 -2.2409 0
M  V30 32 H 6.3603 -0.1994 -1.1106 0
M  V30 END ATOM
M  V30 BEGIN BOND
M  V30 1 1 1 2
M  V30 2 2 2 3
M  V30 3 1 2 4
M  V30 4 1 3 5
M  V30 5 1 3 6
M  V30 6 2 4 7
M  V30 7 1 5 8
M  V30 8 2 6 9
M  V30 9 1 7 10
M  V30 10 2 8 11
M  V30 11 1 8 12
M  V30 12 1 11 13
M  V30 13 2 12 14
M  V30 14 2 13 15
M  V30 15 1 15 16
M  V30 16 1 16 17
M  V30 17 1 17 18
M  V30 18 1 17 19
M  V30 19 2 18 20
M  V30 20 1 18 21
M  V30 21 1 7 9
M  V30 22 1 14 15
M  V30 23 1 4 22
M  V30 24 1 6 23
M  V30 25 1 9 24
M  V30 26 1 11 25
M  V30 27 1 12 26
M  V30 28 1 13 27
M  V30 29 1 14 28
M  V30 30 1 17 29
M  V30 31 1 19 30
M  V30 32 1 19 31
M  V30 33 1 19 32
M  V30 END BOND
M  V30 BEGIN COLLECTION
M  V30 MDLV30/STEABS ATOMS=(1 17)
M  V30 END COLLECTION
M  V30 END CTAB
M  END
>  <Structure No>
7296

>  <LogS>
-5.04

>  <MMFF94 Energy>
97.282

$$$$
Compound 7297
Actelion Java MolfileCreator 2.0

  0  0  0  0  0  0              0 V3000
M  V30 BEGIN CTAB
M  V30 COUNTS 30 32 0 0 0
M  V30 BEGIN ATOM
M  V30 1 Cl -5.7301 2.2073 1.0623 0
M  V30 2 C -4.4503 1.1328 0.5305 0
M  V30 3 C -3.1053 1.4862 0.7501 0
M  V30 4 C -4.7754 -0.0825 -0.1157 0
M  V30 5 C -2.1239 0.6007 0.3099 0
M  V30 6 C -3.7613 -0.9568 -0.5491 0
M  V30 7 C -2.4376 -0.5857 -0.3208 0
M  V30 8 C -0.7499 0.6484 0.3696 0
M  V30 9 N -1.3266 -1.2775 -0.656 0
M  V30 10 C -0.3006 -0.5098 -0.227 0
M  V30 11 C 0.1235 1.5978 0.8899 0
M  V30 12 C 1.0596 -0.7876 -0.3386 0
M  V30 13 C 1.5024 1.3427 0.7906 0
M  V30 14 C 1.984 0.1533 0.1793 0
M  V30 15 C 3.4757 -0.0931 0.0838 0 CFG=1
M  V30 16 C 3.8579 -1.3369 0.8403 0
M  V30 17 C 3.939 -0.1488 -1.3774 0
M  V30 18 O 3.752 -2.475 0.3099 0
M  V30 19 O 4.2834 -1.2365 2.159 0 CHG=-1
M  V30 20 H -2.8424 2.4132 1.2433 0
M  V30 21 H -5.8121 -0.3466 -0.2806 0
M  V30 22 H -4.0035 -1.8881 -1.0442 0
M  V30 23 H -1.2728 -2.2015 -1.1399 0
M  V30 24 H -0.2426 2.5034 1.3558 0
M  V30 25 H 1.3894 -1.7036 -0.8112 0
M  V30 26 H 2.1957 2.072 1.1901 0
M  V30 27 H 4.021 0.7548 0.5548 0
M  V30 28 H 3.4629 -0.9921 -1.9212 0
M  V30 29 H 5.0418 -0.276 -1.4211 0
M  V30 30 H 3.6778 0.7998 -1.8935 0
M  V30 END ATOM
M  V30 BEGIN BOND
M  V30 1 1 1 2
M  V30 2 2 2 3
M  V30 3 1 2 4
M  V30 4 1 3 5
M  V30 5 2 4 6
M  V30 6 2 5 7
M  V30 7 1 5 8
M  V30 8 1 7 9
M  V30 9 2 8 10
M  V30 10 1 8 11
M  V30 11 1 10 12
M  V30 12 2 11 13
M  V30 13 2 12 14
M  V30 14 1 14 15
M  V30 15 1 15 16
M  V30 16 1 15 17
M  V30 17 2 16 18
M  V30 18 1 16 19
M  V30 19 1 6 7
M  V30 20 1 9 10
M  V30 21 1 13 14
M  V30 22 1 3 20
M  V30 23 1 4 21
M  V30 24 1 6 22
M  V30 25 1 9 23
M  V30 26 1 11 24
M  V30 27 1 12 25
M  V30 28 1 13 26
M  V30 29 1 15 27
M  V30 30 1 17 28
M  V30 31 1 17 29
M  V30 32 1 17 30
M  V30 END BOND
M  V30 BEGIN COLLECTION
M  V30 MDLV30/STEABS ATOMS=(1 15)
M  V30 END COLLECTION
M  V30 END CTAB
M  END
>  <Structure No>
7297

>  <LogS>
-4.7

>  <MMFF94 Energy>
59.957

$$$$
Compound 7298
Actelion Java MolfileCreator 2.0

  0  0  0  0  0  0              0 V3000
M  V30 BEGIN CTAB
M  V30 COUNTS 46 47 0 0 0
M  V30 BEGIN ATOM
M  V30 1 O -2.3779 -2.1399 -1.902 0
M  V30 2 C -2.1259 -2.4043 -0.6938 0
M  V30 3 O -2.948 -1.9172 0.3259 0
M  V30 4 C -0.8854 -3.1659 -0.3171 0 CFG=2
M  V30 5 C -3.7555 -0.7478 0.1967 0 CFG=2
M  V30 6 C 0.2136 -2.1858 0.0395 0
M  V30 7 C -0.4381 -4.1433 -1.4127 0
M  V30 8 O -2.9819 0.4006 0.544 0
M  V30 9 C -4.9303 -0.855 1.1581 0
M  V30 10 C 0.7107 -1.2808 -0.9176 0
M  V30 11 C 0.7019 -2.1253 1.3558 0
M  V30 12 C -2.0287 0.9799 -0.3001 0
M  V30 13 C 1.6724 -0.3241 -0.5627 0
M  V30 14 C 1.6627 -1.1772 1.7161 0
M  V30 15 O -1.9769 0.6759 -1.5221 0
M  V30 16 C -1.0917 2.0103 0.2493 0
M  V30 17 C 2.1494 -0.2684 0.7664 0
M  V30 18 C 2.1542 0.5891 -1.5111 0
M  V30 19 N -1.7614 3.3034 0.3725 0 CHG=1
M  V30 20 C 3.0985 0.7006 1.1243 0
M  V30 21 C 3.0992 1.5509 -1.1455 0
M  V30 22 C 3.5781 1.6133 0.1772 0
M  V30 23 O 4.5265 2.5619 0.5891 0
M  V30 24 C 5.1078 3.5409 -0.2658 0
M  V30 25 H -1.1393 -3.7828 0.5734 0
M  V30 26 H -4.1631 -0.6503 -0.8345 0
M  V30 27 H -0.1933 -3.6122 -2.3567 0
M  V30 28 H 0.4611 -4.702 -1.0756 0
M  V30 29 H -1.2467 -4.8772 -1.6187 0
M  V30 30 H -5.5652 0.0529 1.0815 0
M  V30 31 H -4.5638 -0.9529 2.2024 0
M  V30 32 H -5.5454 -1.7444 0.9055 0
M  V30 33 H 0.328 -1.3048 -1.931 0
M  V30 34 H 0.3291 -2.8051 2.112 0
M  V30 35 H 2.0172 -1.148 2.7394 0
M  V30 36 H -0.7316 1.6774 1.2473 0
M  V30 37 H -0.2064 2.1106 -0.4169 0
M  V30 38 H 1.7966 0.5627 -2.5333 0
M  V30 39 H -1.0836 4.0037 0.7507 0
M  V30 40 H -2.5719 3.2268 1.03 0
M  V30 41 H -2.0948 3.6261 -0.5651 0
M  V30 42 H 3.4688 0.7522 2.1415 0
M  V30 43 H 3.4508 2.2423 -1.8988 0
M  V30 44 H 4.319 4.2031 -0.6808 0
M  V30 45 H 5.8178 4.159 0.3207 0
M  V30 46 H 5.6637 3.0456 -1.0893 0
M  V30 END ATOM
M  V30 BEGIN BOND
M  V30 1 2 1 2
M  V30 2 1 2 3
M  V30 3 1 2 4
M  V30 4 1 3 5
M  V30 5 1 4 6
M  V30 6 1 4 7
M  V30 7 1 5 8
M  V30 8 1 5 9
M  V30 9 2 6 10
M  V30 10 1 6 11
M  V30 11 1 8 12
M  V30 12 1 10 13
M  V30 13 2 11 14
M  V30 14 2 12 15
M  V30 15 1 12 16
M  V30 16 1 13 17
M  V30 17 2 13 18
M  V30 18 1 16 19
M  V30 19 2 17 20
M  V30 20 1 18 21
M  V30 21 1 20 22
M  V30 22 1 22 23
M  V30 23 1 23 24
M  V30 24 1 14 17
M  V30 25 2 21 22
M  V30 26 1 4 25
M  V30 27 1 5 26
M  V30 28 1 7 27
M  V30 29 1 7 28
M  V30 30 1 7 29
M  V30 31 1 9 30
M  V30 32 1 9 31
M  V30 33 1 9 32
M  V30 34 1 10 33
M  V30 35 1 11 34
M  V30 36 1 14 35
M  V30 37 1 16 36
M  V30 38 1 16 37
M  V30 39 1 18 38
M  V30 40 1 19 39
M  V30 41 1 19 40
M  V30 42 1 19 41
M  V30 43 1 20 42
M  V30 44 1 21 43
M  V30 45 1 24 44
M  V30 46 1 24 45
M  V30 47 1 24 46
M  V30 END BOND
M  V30 BEGIN COLLECTION
M  V30 MDLV30/STEABS ATOMS=(2 4 5)
M  V30 END COLLECTION
M  V30 END CTAB
M  END
>  <Structure No>
7298

>  <LogS>
-2.44

>  <MMFF94 Energy>
34.204

$$$$
Compound 7299
Actelion Java MolfileCreator 2.0

  0  0  0  0  0  0              0 V3000
M  V30 BEGIN CTAB
M  V30 COUNTS 26 28 0 0 0
M  V30 BEGIN ATOM
M  V30 1 O -1.4721 1.9632 0.4087 0
M  V30 2 C -0.7857 0.9331 0.1733 0
M  V30 3 C -1.1343 -0.3626 0.8206 0
M  V30 4 C 0.4391 1.0462 -0.6612 0
M  V30 5 C -2.4153 -0.6206 1.3831 0
M  V30 6 C -0.1284 -1.3532 0.9269 0
M  V30 7 C 0.6654 2.1657 -1.4965 0
M  V30 8 C 1.4096 0.0224 -0.5993 0
M  V30 9 O -3.512 0.2252 1.2009 0
M  V30 10 C -2.6252 -1.7862 2.127 0
M  V30 11 C 1.1811 -1.1596 0.2613 0
M  V30 12 C -0.378 -2.5274 1.6583 0
M  V30 13 O -0.2834 3.1836 -1.5963 0
M  V30 14 C 1.8486 2.2545 -2.2417 0
M  V30 15 C 2.5903 0.134 -1.3544 0
M  V30 16 C -1.6127 -2.7307 2.2687 0
M  V30 17 O 2.0981 -2.0134 0.4131 0
M  V30 18 C 2.8058 1.2448 -2.1687 0
M  V30 19 H -3.5592 0.9364 0.4851 0
M  V30 20 H -3.5934 -1.9742 2.574 0
M  V30 21 H 0.3832 -3.2907 1.7601 0
M  V30 22 H -0.1386 3.9907 -2.1919 0
M  V30 23 H 2.0264 3.1094 -2.8819 0
M  V30 24 H 3.3468 -0.6398 -1.3189 0
M  V30 25 H -1.7937 -3.6357 2.8346 0
M  V30 26 H 3.7169 1.3214 -2.748 0
M  V30 END ATOM
M  V30 BEGIN BOND
M  V30 1 2 1 2
M  V30 2 1 2 3
M  V30 3 1 2 4
M  V30 4 2 3 5
M  V30 5 1 3 6
M  V30 6 2 4 7
M  V30 7 1 4 8
M  V30 8 1 5 9
M  V30 9 1 5 10
M  V30 10 1 6 11
M  V30 11 2 6 12
M  V30 12 1 7 13
M  V30 13 1 7 14
M  V30 14 2 8 15
M  V30 15 2 10 16
M  V30 16 2 11 17
M  V30 17 2 14 18
M  V30 18 1 8 11
M  V30 19 1 12 16
M  V30 20 1 15 18
M  V30 21 1 9 19
M  V30 22 1 10 20
M  V30 23 1 12 21
M  V30 24 1 13 22
M  V30 25 1 14 23
M  V30 26 1 15 24
M  V30 27 1 16 25
M  V30 28 1 18 26
M  V30 END BOND
M  V30 END CTAB
M  END
>  <Structure No>
7299

>  <LogS>
-5.19

>  <MMFF94 Energy>
71.68

$$$$
Compound 7300
Actelion Java MolfileCreator 2.0

  0  0  0  0  0  0              0 V3000
M  V30 BEGIN CTAB
M  V30 COUNTS 31 32 0 0 0
M  V30 BEGIN ATOM
M  V30 1 S -0.5703 2.2827 -1.3854 0
M  V30 2 O 0.0958 3.3403 -0.55 0
M  V30 3 O -1.3622 2.948 -2.4752 0
M  V30 4 N 0.6483 1.2735 -2.0987 0
M  V30 5 C -1.6622 1.3104 -0.4044 0
M  V30 6 C 1.5307 0.4229 -1.3499 0
M  V30 7 C -2.014 0.0194 -0.8201 0
M  V30 8 C -2.1833 1.8185 0.7933 0
M  V30 9 N 2.3522 -0.4239 -2.0224 0
M  V30 10 C 1.5759 0.4411 0.0496 0
M  V30 11 C -2.8725 -0.7611 -0.0403 0
M  V30 12 C -3.0425 1.0382 1.573 0
M  V30 13 C 3.2069 -1.2577 -1.3751 0
M  V30 14 C 2.4552 -0.419 0.7043 0
M  V30 15 C -3.3904 -0.2558 1.1607 0
M  V30 16 O 3.9496 -2.0203 -2.0506 0
M  V30 17 N 3.257 -1.2656 -0.0067 0
M  V30 18 N -4.268 -1.0543 1.9587 0
M  V30 19 C 4.187 -2.1568 0.6967 0
M  V30 20 H 0.6992 1.2475 -3.1415 0
M  V30 21 H -1.6222 -0.3832 -1.7453 0
M  V30 22 H -1.9252 2.816 1.1251 0
M  V30 23 H 0.9553 1.1036 0.6353 0
M  V30 24 H -3.1341 -1.7582 -0.3714 0
M  V30 25 H -3.4368 1.4414 2.4975 0
M  V30 26 H 2.4903 -0.4014 1.7872 0
M  V30 27 H -4.533 -2.0193 1.6598 0
M  V30 28 H -4.659 -0.6865 2.8548 0
M  V30 29 H 4.0299 -2.13 1.797 0
M  V30 30 H 5.2327 -1.8491 0.4842 0
M  V30 31 H 4.0377 -3.2045 0.3585 0
M  V30 END ATOM
M  V30 BEGIN BOND
M  V30 1 2 1 2
M  V30 2 2 1 3
M  V30 3 1 1 4
M  V30 4 1 1 5
M  V30 5 1 4 6
M  V30 6 2 5 7
M  V30 7 1 5 8
M  V30 8 2 6 9
M  V30 9 1 6 10
M  V30 10 1 7 11
M  V30 11 2 8 12
M  V30 12 1 9 13
M  V30 13 2 10 14
M  V30 14 2 11 15
M  V30 15 2 13 16
M  V30 16 1 13 17
M  V30 17 1 15 18
M  V30 18 1 17 19
M  V30 19 1 12 15
M  V30 20 1 14 17
M  V30 21 1 4 20
M  V30 22 1 7 21
M  V30 23 1 8 22
M  V30 24 1 10 23
M  V30 25 1 11 24
M  V30 26 1 12 25
M  V30 27 1 14 26
M  V30 28 1 18 27
M  V30 29 1 18 28
M  V30 30 1 19 29
M  V30 31 1 19 30
M  V30 32 1 19 31
M  V30 END BOND
M  V30 END CTAB
M  END
>  <Structure No>
7300

>  <LogS>
-2.36

>  <MMFF94 Energy>
-142.47

$$$$
Compound 7301
Actelion Java MolfileCreator 2.0

  0  0  0  0  0  0              0 V3000
M  V30 BEGIN CTAB
M  V30 COUNTS 39 40 0 0 0
M  V30 BEGIN ATOM
M  V30 1 O 0.1595 1.9153 0.319 0
M  V30 2 C -0.2571 0.7253 0.3635 0
M  V30 3 N 0.6678 -0.3428 0.6286 0
M  V30 4 C -1.7049 0.4525 0.1915 0
M  V30 5 C 2.0857 -0.2445 0.4077 0
M  V30 6 C -2.6432 1.4883 0.3464 0
M  V30 7 C -2.1643 -0.834 -0.1413 0
M  V30 8 C 2.9613 -0.9994 1.2017 0
M  V30 9 C 2.6129 0.5432 -0.6304 0
M  V30 10 C -4.0091 1.242 0.1797 0
M  V30 11 C -3.5305 -1.0784 -0.3073 0
M  V30 12 C 4.3421 -0.9372 0.9931 0
M  V30 13 C 3.9937 0.6033 -0.8396 0
M  V30 14 C -4.4632 -0.0419 -0.1654 0
M  V30 15 C 4.8698 -0.1181 -0.0214 0
M  V30 16 N -5.8642 -0.328 -0.3202 0
M  V30 17 O 6.2466 -0.0304 -0.276 0
M  V30 18 C -6.8245 0.6036 -0.8413 0
M  V30 19 C 7.2596 -0.2082 0.675 0
M  V30 20 O -6.4492 1.6541 -1.4285 0
M  V30 21 C -8.282 0.2822 -0.7775 0
M  V30 22 O 7.0132 -0.1381 1.9094 0
M  V30 23 C 8.6694 -0.3654 0.2166 0
M  V30 24 H 0.3074 -1.1949 1.1143 0
M  V30 25 H -2.323 2.4875 0.6145 0
M  V30 26 H -1.4717 -1.6513 -0.292 0
M  V30 27 H 2.572 -1.6373 1.9854 0
M  V30 28 H 1.9602 1.0934 -1.2949 0
M  V30 29 H -4.708 2.0505 0.347 0
M  V30 30 H -3.863 -2.0767 -0.563 0
M  V30 31 H 4.988 -1.5528 1.6036 0
M  V30 32 H 4.3858 1.2147 -1.6426 0
M  V30 33 H -6.1924 -1.2997 -0.1186 0
M  V30 34 H -8.8865 1.2098 -0.8658 0
M  V30 35 H -8.5197 -0.2056 0.1909 0
M  V30 36 H -8.5455 -0.4051 -1.6077 0
M  V30 37 H 9.231 -1.0128 0.9226 0
M  V30 38 H 9.1552 0.6309 0.1665 0
M  V30 39 H 8.6892 -0.8321 -0.7902 0
M  V30 END ATOM
M  V30 BEGIN BOND
M  V30 1 2 1 2
M  V30 2 1 2 3
M  V30 3 1 2 4
M  V30 4 1 3 5
M  V30 5 2 4 6
M  V30 6 1 4 7
M  V30 7 2 5 8
M  V30 8 1 5 9
M  V30 9 1 6 10
M  V30 10 2 7 11
M  V30 11 1 8 12
M  V30 12 2 9 13
M  V30 13 2 10 14
M  V30 14 2 12 15
M  V30 15 1 14 16
M  V30 16 1 15 17
M  V30 17 1 16 18
M  V30 18 1 17 19
M  V30 19 2 18 20
M  V30 20 1 18 21
M  V30 21 2 19 22
M  V30 22 1 19 23
M  V30 23 1 11 14
M  V30 24 1 13 15
M  V30 25 1 3 24
M  V30 26 1 6 25
M  V30 27 1 7 26
M  V30 28 1 8 27
M  V30 29 1 9 28
M  V30 30 1 10 29
M  V30 31 1 11 30
M  V30 32 1 12 31
M  V30 33 1 13 32
M  V30 34 1 16 33
M  V30 35 1 21 34
M  V30 36 1 21 35
M  V30 37 1 21 36
M  V30 38 1 23 37
M  V30 39 1 23 38
M  V30 40 1 23 39
M  V30 END BOND
M  V30 END CTAB
M  END
>  <Structure No>
7301

>  <LogS>
-4.41

>  <MMFF94 Energy>
23.566

$$$$
Compound 7302
Actelion Java MolfileCreator 2.0

  0  0  0  0  0  0              0 V3000
M  V30 BEGIN CTAB
M  V30 COUNTS 31 33 0 0 0
M  V30 BEGIN ATOM
M  V30 1 O 4.4745 -0.3988 0.7978 0
M  V30 2 C 3.3396 -0.1092 0.3235 0
M  V30 3 N 3.2501 0.6519 -0.8315 0
M  V30 4 N 2.2024 -0.5549 0.9641 0
M  V30 5 C 2.0171 0.9946 -1.3388 0
M  V30 6 C 4.475 1.1524 -1.4767 0
M  V30 7 C 0.9979 -0.2357 0.4174 0
M  V30 8 C 2.2873 -1.4008 2.1619 0
M  V30 9 O 1.9034 1.7195 -2.3652 0
M  V30 10 C 0.8888 0.5218 -0.6921 0
M  V30 11 N -0.2191 -0.5894 0.8695 0
M  V30 12 N -0.4037 0.6894 -0.9987 0
M  V30 13 C -1.0593 -0.0016 -0.027 0
M  V30 14 C -2.5369 -0.1211 0.0657 0
M  V30 15 C -3.1124 -0.9312 1.0637 0
M  V30 16 C -3.3882 0.5638 -0.8239 0
M  V30 17 C -4.5012 -1.0548 1.1658 0
M  V30 18 C -4.7767 0.4361 -0.7162 0
M  V30 19 C -5.3326 -0.3723 0.2766 0
M  V30 20 H 5.3005 0.4139 -1.3918 0
M  V30 21 H 4.3207 1.3265 -2.5628 0
M  V30 22 H 4.7856 2.1043 -0.9969 0
M  V30 23 H 2.5091 -2.4467 1.8632 0
M  V30 24 H 3.0879 -1.0358 2.8401 0
M  V30 25 H 1.3385 -1.3845 2.7394 0
M  V30 26 H -0.7912 1.2217 -1.8079 0
M  V30 27 H -2.4903 -1.4723 1.7655 0
M  V30 28 H -2.995 1.203 -1.6004 0
M  V30 29 H -4.9329 -1.6812 1.9359 0
M  V30 30 H -5.4228 0.9665 -1.4037 0
M  V30 31 H -6.4076 -0.469 0.3573 0
M  V30 END ATOM
M  V30 BEGIN BOND
M  V30 1 2 1 2
M  V30 2 1 2 3
M  V30 3 1 2 4
M  V30 4 1 3 5
M  V30 5 1 3 6
M  V30 6 1 4 7
M  V30 7 1 4 8
M  V30 8 2 5 9
M  V30 9 1 5 10
M  V30 10 1 7 11
M  V30 11 1 10 12
M  V30 12 2 11 13
M  V30 13 1 13 14
M  V30 14 2 14 15
M  V30 15 1 14 16
M  V30 16 1 15 17
M  V30 17 2 16 18
M  V30 18 2 17 19
M  V30 19 2 7 10
M  V30 20 1 12 13
M  V30 21 1 18 19
M  V30 22 1 6 20
M  V30 23 1 6 21
M  V30 24 1 6 22
M  V30 25 1 8 23
M  V30 26 1 8 24
M  V30 27 1 8 25
M  V30 28 1 12 26
M  V30 29 1 15 27
M  V30 30 1 16 28
M  V30 31 1 17 29
M  V30 32 1 18 30
M  V30 33 1 19 31
M  V30 END BOND
M  V30 END CTAB
M  END
>  <Structure No>
7302

>  <LogS>
-5.0

>  <MMFF94 Energy>
-103.39

$$$$
Compound 7303
Actelion Java MolfileCreator 2.0

  0  0  0  0  0  0              0 V3000
M  V30 BEGIN CTAB
M  V30 COUNTS 50 53 0 0 0
M  V30 BEGIN ATOM
M  V30 1 O 3.7622 1.0395 -1.0395 0
M  V30 2 C 2.6701 0.4367 -0.8385 0
M  V30 3 N 2.6693 -0.9349 -0.6317 0
M  V30 4 N 1.4912 1.1545 -0.819 0
M  V30 5 C 1.4895 -1.5905 -0.3578 0
M  V30 6 C 3.9402 -1.6849 -0.6402 0
M  V30 7 C 0.3404 0.4785 -0.5533 0
M  V30 8 C 1.4732 2.6143 -1.0085 0
M  V30 9 O 1.4613 -2.831 -0.1292 0
M  V30 10 C 0.3212 -0.8513 -0.3284 0
M  V30 11 C 4.5564 -1.701 0.7624 0
M  V30 12 N -0.898 0.9967 -0.4474 0
M  V30 13 C 1.6539 3.3251 0.3362 0
M  V30 14 N -0.9314 -1.2461 -0.0716 0
M  V30 15 C 5.8729 -2.4712 0.7802 0
M  V30 16 C -1.6514 -0.0979 -0.1563 0
M  V30 17 C 1.6339 4.8412 0.1682 0
M  V30 18 C -3.1329 -0.0243 0.0814 0
M  V30 19 C -3.8587 -1.0002 -0.8772 0
M  V30 20 C -3.4063 -0.2159 1.5949 0
M  V30 21 C -5.1991 -0.5343 -1.4311 0
M  V30 22 C -3.9644 -0.5031 -2.3144 0
M  V30 23 C -4.753 -0.7859 2.0226 0
M  V30 24 C -3.4939 -1.635 2.141 0
M  V30 25 H 3.7763 -2.7276 -0.9914 0
M  V30 26 H 4.6556 -1.2325 -1.3618 0
M  V30 27 H 2.2775 2.9239 -1.7114 0
M  V30 28 H 0.5135 2.9309 -1.4743 0
M  V30 29 H 3.8483 -2.1779 1.4742 0
M  V30 30 H 4.7423 -0.6584 1.0994 0
M  V30 31 H 0.8359 3.0267 1.0273 0
M  V30 32 H 2.6229 3.0235 0.7894 0
M  V30 33 H -1.2696 -2.2089 0.1487 0
M  V30 34 H 6.2934 -2.4644 1.8078 0
M  V30 35 H 5.7074 -3.5252 0.471 0
M  V30 36 H 6.606 -1.9975 0.0932 0
M  V30 37 H 0.663 5.1689 -0.2605 0
M  V30 38 H 2.4592 5.166 -0.5006 0
M  V30 39 H 1.767 5.3265 1.1579 0
M  V30 40 H -3.4519 1.0169 -0.148 0
M  V30 41 H -3.7024 -2.097 -0.809 0
M  V30 42 H -2.9742 0.5225 2.3043 0
M  V30 43 H -5.5451 0.4656 -1.0933 0
M  V30 44 H -5.905 -1.3584 -1.6661 0
M  V30 45 H -3.9452 -1.3031 -3.0841 0
M  V30 46 H -3.5817 0.5208 -2.5139 0
M  V30 47 H -5.1249 -0.4143 3.0008 0
M  V30 48 H -5.447 -1.1418 1.2358 0
M  V30 49 H -3.4465 -2.4699 1.4148 0
M  V30 50 H -3.1324 -1.7496 3.1846 0
M  V30 END ATOM
M  V30 BEGIN BOND
M  V30 1 2 1 2
M  V30 2 1 2 3
M  V30 3 1 2 4
M  V30 4 1 3 5
M  V30 5 1 3 6
M  V30 6 1 4 7
M  V30 7 1 4 8
M  V30 8 2 5 9
M  V30 9 1 5 10
M  V30 10 1 6 11
M  V30 11 1 7 12
M  V30 12 1 8 13
M  V30 13 1 10 14
M  V30 14 1 11 15
M  V30 15 2 12 16
M  V30 16 1 13 17
M  V30 17 1 16 18
M  V30 18 1 18 19
M  V30 19 1 18 20
M  V30 20 1 19 21
M  V30 21 1 19 22
M  V30 22 1 20 23
M  V30 23 1 20 24
M  V30 24 2 7 10
M  V30 25 1 14 16
M  V30 26 1 21 22
M  V30 27 1 23 24
M  V30 28 1 6 25
M  V30 29 1 6 26
M  V30 30 1 8 27
M  V30 31 1 8 28
M  V30 32 1 11 29
M  V30 33 1 11 30
M  V30 34 1 13 31
M  V30 35 1 13 32
M  V30 36 1 14 33
M  V30 37 1 15 34
M  V30 38 1 15 35
M  V30 39 1 15 36
M  V30 40 1 17 37
M  V30 41 1 17 38
M  V30 42 1 17 39
M  V30 43 1 18 40
M  V30 44 1 19 41
M  V30 45 1 20 42
M  V30 46 1 21 43
M  V30 47 1 21 44
M  V30 48 1 22 45
M  V30 49 1 22 46
M  V30 50 1 23 47
M  V30 51 1 23 48
M  V30 52 1 24 49
M  V30 53 1 24 50
M  V30 END BOND
M  V30 END CTAB
M  END
>  <Structure No>
7303

>  <LogS>
-4.59

>  <MMFF94 Energy>
-71.794

$$$$
Compound 7304
Actelion Java MolfileCreator 2.0

  0  0  0  0  0  0              0 V3000
M  V30 BEGIN CTAB
M  V30 COUNTS 39 41 0 0 0
M  V30 BEGIN ATOM
M  V30 1 O 2.3496 -3.6477 0.8907 0
M  V30 2 C 2.3608 -2.4295 0.5662 0
M  V30 3 C 1.1674 -1.7296 0.2694 0
M  V30 4 C 3.5857 -1.7681 0.4998 0
M  V30 5 C 1.2789 -0.367 -0.0861 0
M  V30 6 C -0.1065 -2.336 0.3214 0
M  V30 7 C 3.6128 -0.418 0.1394 0
M  V30 8 O 2.4777 0.2136 -0.1337 0
M  V30 9 C 0.1343 0.395 -0.3863 0
M  V30 10 O -0.2044 -3.6772 0.714 0
M  V30 11 C -1.2643 -1.5884 -0.0064 0
M  V30 12 C 4.8787 0.3281 0.0553 0
M  V30 13 C -1.1516 -0.2004 -0.2978 0
M  V30 14 C 0.3159 1.8594 -0.7548 0
M  V30 15 C -2.6215 -2.2738 0.0312 0
M  V30 16 O 5.9787 -0.233 0.3041 0
M  V30 17 O 4.8643 1.6704 -0.3027 0 CHG=-1
M  V30 18 C -2.3922 0.6286 -0.5993 0
M  V30 19 C 0.402 2.7308 0.5042 0
M  V30 20 C -3.746 -1.4609 -0.608 0
M  V30 21 C -3.6886 -0.0218 -0.1239 0
M  V30 22 C 0.5566 4.2055 0.1451 0
M  V30 23 H 4.5012 -2.3018 0.7266 0
M  V30 24 H -1.0768 -4.1653 0.865 0
M  V30 25 H 1.2444 1.9866 -1.3536 0
M  V30 26 H -0.5011 2.2171 -1.4146 0
M  V30 27 H -2.8846 -2.4809 1.0915 0
M  V30 28 H -2.5707 -3.2401 -0.5149 0
M  V30 29 H -2.3262 1.6193 -0.1032 0
M  V30 30 H -2.4521 0.7921 -1.6974 0
M  V30 31 H 1.2751 2.4181 1.1173 0
M  V30 32 H -0.515 2.6046 1.1186 0
M  V30 33 H -3.6534 -1.4918 -1.7166 0
M  V30 34 H -4.7261 -1.9069 -0.3327 0
M  V30 35 H -4.5554 0.5421 -0.5316 0
M  V30 36 H -3.7458 0.0098 0.9868 0
M  V30 37 H 0.6219 4.8096 1.0746 0
M  V30 38 H -0.3191 4.5529 -0.4433 0
M  V30 39 H 1.4833 4.3631 -0.4468 0
M  V30 END ATOM
M  V30 BEGIN BOND
M  V30 1 2 1 2
M  V30 2 1 2 3
M  V30 3 1 2 4
M  V30 4 2 3 5
M  V30 5 1 3 6
M  V30 6 2 4 7
M  V30 7 1 5 8
M  V30 8 1 5 9
M  V30 9 1 6 10
M  V30 10 2 6 11
M  V30 11 1 7 12
M  V30 12 2 9 13
M  V30 13 1 9 14
M  V30 14 1 11 15
M  V30 15 2 12 16
M  V30 16 1 12 17
M  V30 17 1 13 18
M  V30 18 1 14 19
M  V30 19 1 15 20
M  V30 20 1 18 21
M  V30 21 1 19 22
M  V30 22 1 7 8
M  V30 23 1 11 13
M  V30 24 1 20 21
M  V30 25 1 4 23
M  V30 26 1 10 24
M  V30 27 1 14 25
M  V30 28 1 14 26
M  V30 29 1 15 27
M  V30 30 1 15 28
M  V30 31 1 18 29
M  V30 32 1 18 30
M  V30 33 1 19 31
M  V30 34 1 19 32
M  V30 35 1 20 33
M  V30 36 1 20 34
M  V30 37 1 21 35
M  V30 38 1 21 36
M  V30 39 1 22 37
M  V30 40 1 22 38
M  V30 41 1 22 39
M  V30 END BOND
M  V30 END CTAB
M  END
>  <Structure No>
7304

>  <LogS>
-2.68

>  <MMFF94 Energy>
52.306

$$$$
Compound 7305
Actelion Java MolfileCreator 2.0

  0  0  0  0  0  0              0 V3000
M  V30 BEGIN CTAB
M  V30 COUNTS 43 45 0 0 0
M  V30 BEGIN ATOM
M  V30 1 S -3.2709 -1.3891 -1.1439 0
M  V30 2 C -4.1691 -0.5157 0.2288 0
M  V30 3 C -1.6269 -1.1526 -0.3777 0 CFG=2
M  V30 4 C -3.1844 -0.4134 1.431 0 CFG=1
M  V30 5 C -4.6008 0.8603 -0.3138 0
M  V30 6 C -5.4133 -1.3314 0.6101 0
M  V30 7 N -1.8793 -0.4083 0.8177 0 CFG=2
M  V30 8 C -0.808 -0.1203 -0.965 0 CFG=1
M  V30 9 C -3.4041 0.7473 2.3688 0
M  V30 10 C -0.953 0.6376 0.3152 0
M  V30 11 N 0.582 -0.5245 -1.1902 0
M  V30 12 O -3.0281 1.9105 2.0668 0
M  V30 13 O -4.0804 0.5414 3.5645 0 CHG=-1
M  V30 14 O -0.513 1.7314 0.7564 0
M  V30 15 C 1.5521 0.3953 -1.7085 0
M  V30 16 O 1.2091 1.5713 -2.0111 0
M  V30 17 C 2.9957 -0.0307 -1.8283 0 CFG=1
M  V30 18 N 3.7234 0.78 -2.814 0 CHG=1
M  V30 19 C 3.6729 0.0305 -0.4733 0
M  V30 20 C 3.7394 1.2385 0.2474 0
M  V30 21 C 4.2532 -1.1254 0.0794 0
M  V30 22 C 4.3701 1.2844 1.4942 0
M  V30 23 C 4.8818 -1.074 1.3274 0
M  V30 24 C 4.9401 0.1294 2.0342 0
M  V30 25 H -1.1192 -2.1152 -0.1475 0
M  V30 26 H -3.2485 -1.3462 2.0338 0
M  V30 27 H -5.2153 1.4083 0.4321 0
M  V30 28 H -3.712 1.4742 -0.5723 0
M  V30 29 H -5.2121 0.7374 -1.2335 0
M  V30 30 H -6.1048 -1.4153 -0.2556 0
M  V30 31 H -5.9532 -0.8445 1.4506 0
M  V30 32 H -5.1253 -2.3583 0.9214 0
M  V30 33 H -1.2628 0.3977 -1.8379 0
M  V30 34 H 0.8979 -1.4924 -0.9516 0
M  V30 35 H 2.9937 -1.0829 -2.1939 0
M  V30 36 H 3.26 0.6988 -3.7484 0
M  V30 37 H 4.7037 0.4257 -2.9028 0
M  V30 38 H 3.751 1.7866 -2.5316 0
M  V30 39 H 3.2999 2.1432 -0.1527 0
M  V30 40 H 4.2191 -2.0673 -0.4531 0
M  V30 41 H 4.4156 2.2162 2.0429 0
M  V30 42 H 5.3243 -1.9681 1.7469 0
M  V30 43 H 5.4272 0.1667 3.0 0
M  V30 END ATOM
M  V30 BEGIN BOND
M  V30 1 1 1 2
M  V30 2 1 1 3
M  V30 3 1 2 4
M  V30 4 1 2 5
M  V30 5 1 2 6
M  V30 6 1 3 7
M  V30 7 1 3 8
M  V30 8 1 4 9
M  V30 9 1 7 10
M  V30 10 1 8 11
M  V30 11 2 9 12
M  V30 12 1 9 13
M  V30 13 2 10 14
M  V30 14 1 11 15
M  V30 15 2 15 16
M  V30 16 1 15 17
M  V30 17 1 17 18
M  V30 18 1 17 19
M  V30 19 2 19 20
M  V30 20 1 19 21
M  V30 21 1 20 22
M  V30 22 2 21 23
M  V30 23 2 22 24
M  V30 24 1 4 7
M  V30 25 1 8 10
M  V30 26 1 23 24
M  V30 27 1 3 25
M  V30 28 1 4 26
M  V30 29 1 5 27
M  V30 30 1 5 28
M  V30 31 1 5 29
M  V30 32 1 6 30
M  V30 33 1 6 31
M  V30 34 1 6 32
M  V30 35 1 8 33
M  V30 36 1 11 34
M  V30 37 1 17 35
M  V30 38 1 18 36
M  V30 39 1 18 37
M  V30 40 1 18 38
M  V30 41 1 20 39
M  V30 42 1 21 40
M  V30 43 1 22 41
M  V30 44 1 23 42
M  V30 45 1 24 43
M  V30 END BOND
M  V30 BEGIN COLLECTION
M  V30 MDLV30/STEABS ATOMS=(5 3 4 7 8 17)
M  V30 END COLLECTION
M  V30 END CTAB
M  END
>  <Structure No>
7305

>  <LogS>
-1.99

>  <MMFF94 Energy>
45.299

$$$$
Compound 7306
Actelion Java MolfileCreator 2.0

  0  0  0  0  0  0              0 V3000
M  V30 BEGIN CTAB
M  V30 COUNTS 56 60 0 0 0
M  V30 BEGIN ATOM
M  V30 1 O -3.5438 1.8512 0.885 0
M  V30 2 C -3.461 0.4849 0.5322 0 CFG=1
M  V30 3 C -4.885 -0.0032 0.0649 0
M  V30 4 C -2.3629 0.2734 -0.5563 0
M  V30 5 C -3.0323 -0.272 1.8131 0
M  V30 6 C -5.545 0.9503 -0.949 0
M  V30 7 C -4.9146 -1.4352 -0.5068 0
M  V30 8 C -0.9653 0.6974 -0.0259 0 CFG=1
M  V30 9 C -1.6154 0.1305 2.2528 0
M  V30 10 N -0.6427 -0.1214 1.1681 0 CHG=1 CFG=2
M  V30 11 C 0.1253 0.5909 -1.0988 0
M  V30 12 C 0.7224 0.1833 1.6189 0
M  V30 13 C 1.4042 0.0066 -0.8277 0
M  V30 14 C -0.1044 1.187 -2.3514 0
M  V30 15 C 1.7412 -0.3969 0.6135 0 CFG=1
M  V30 16 C 2.2843 -0.238 -1.9388 0
M  V30 17 C 0.8107 1.0534 -3.3823 0
M  V30 18 C 3.1962 -0.1107 1.0064 0
M  V30 19 C 1.9693 0.3184 -3.1903 0
M  V30 20 C 3.5738 -1.0529 -1.9336 0
M  V30 21 C 4.2235 -0.8967 0.4398 0
M  V30 22 C 3.5606 0.8948 1.9357 0
M  V30 23 C 3.9129 -1.8478 -0.678 0
M  V30 24 C 5.5632 -0.6875 0.8118 0
M  V30 25 C 4.8947 1.0848 2.3011 0
M  V30 26 C 5.8932 0.291 1.746 0
M  V30 27 H -3.4896 2.4022 0.0611 0
M  V30 28 H -5.5466 -0.0038 0.9603 0
M  V30 29 H -2.6435 0.8496 -1.4579 0
M  V30 30 H -2.3061 -0.7956 -0.8514 0
M  V30 31 H -3.0376 -1.369 1.6526 0
M  V30 32 H -3.7422 -0.0501 2.6399 0
M  V30 33 H -5.7096 1.9522 -0.5006 0
M  V30 34 H -4.926 1.0539 -1.8638 0
M  V30 35 H -6.5433 0.5636 -1.2465 0
M  V30 36 H -4.398 -1.486 -1.488 0
M  V30 37 H -4.458 -2.1683 0.1849 0
M  V30 38 H -5.9675 -1.7531 -0.6645 0
M  V30 39 H -1.0138 1.7741 0.2592 0
M  V30 40 H -1.3538 -0.4746 3.1499 0
M  V30 41 H -1.6007 1.2021 2.557 0
M  V30 42 H -0.6955 -1.1408 0.9229 0
M  V30 43 H 0.8327 1.2866 1.7096 0
M  V30 44 H 0.9168 -0.2715 2.6175 0
M  V30 45 H -0.9959 1.7671 -2.542 0
M  V30 46 H 1.5878 -1.4934 0.6833 0
M  V30 47 H 0.6075 1.5003 -4.3471 0
M  V30 48 H 2.6389 0.1882 -4.0327 0
M  V30 49 H 4.4229 -0.3713 -2.1649 0
M  V30 50 H 3.5197 -1.7846 -2.7701 0
M  V30 51 H 2.8356 1.5408 2.4028 0
M  V30 52 H 3.1002 -2.5562 -0.422 0
M  V30 53 H 4.7986 -2.4843 -0.8964 0
M  V30 54 H 6.3578 -1.2703 0.3626 0
M  V30 55 H 5.1543 1.8527 3.0186 0
M  V30 56 H 6.927 0.4458 2.0268 0
M  V30 END ATOM
M  V30 BEGIN BOND
M  V30 1 1 1 2
M  V30 2 1 2 3
M  V30 3 1 2 4
M  V30 4 1 2 5
M  V30 5 1 3 6
M  V30 6 1 3 7
M  V30 7 1 4 8
M  V30 8 1 5 9
M  V30 9 1 8 10
M  V30 10 1 8 11
M  V30 11 1 10 12
M  V30 12 2 11 13
M  V30 13 1 11 14
M  V30 14 1 12 15
M  V30 15 1 13 16
M  V30 16 2 14 17
M  V30 17 1 15 18
M  V30 18 2 16 19
M  V30 19 1 16 20
M  V30 20 2 18 21
M  V30 21 1 18 22
M  V30 22 1 20 23
M  V30 23 1 21 24
M  V30 24 2 22 25
M  V30 25 2 24 26
M  V30 26 1 9 10
M  V30 27 1 13 15
M  V30 28 1 17 19
M  V30 29 1 21 23
M  V30 30 1 25 26
M  V30 31 1 1 27
M  V30 32 1 3 28
M  V30 33 1 4 29
M  V30 34 1 4 30
M  V30 35 1 5 31
M  V30 36 1 5 32
M  V30 37 1 6 33
M  V30 38 1 6 34
M  V30 39 1 6 35
M  V30 40 1 7 36
M  V30 41 1 7 37
M  V30 42 1 7 38
M  V30 43 1 8 39
M  V30 44 1 9 40
M  V30 45 1 9 41
M  V30 46 1 10 42
M  V30 47 1 12 43
M  V30 48 1 12 44
M  V30 49 1 14 45
M  V30 50 1 15 46
M  V30 51 1 17 47
M  V30 52 1 19 48
M  V30 53 1 20 49
M  V30 54 1 20 50
M  V30 55 1 22 51
M  V30 56 1 23 52
M  V30 57 1 23 53
M  V30 58 1 24 54
M  V30 59 1 25 55
M  V30 60 1 26 56
M  V30 END BOND
M  V30 BEGIN COLLECTION
M  V30 MDLV30/STEABS ATOMS=(4 2 8 10 15)
M  V30 END COLLECTION
M  V30 END CTAB
M  END
>  <Structure No>
7306

>  <LogS>
-3.81

>  <MMFF94 Energy>
104.79

$$$$
Compound 7307
Actelion Java MolfileCreator 2.0

  0  0  0  0  0  0              0 V3000
M  V30 BEGIN CTAB
M  V30 COUNTS 94 97 0 0 0
M  V30 BEGIN ATOM
M  V30 1 O 5.3732 -1.5215 -4.4895 0
M  V30 2 C 5.2288 -0.7155 -3.5298 0
M  V30 3 O 4.6463 0.537 -3.7606 0
M  V30 4 C 5.6383 -1.1342 -2.1834 0
M  V30 5 C 4.8656 1.6729 -2.9207 0 CFG=2
M  V30 6 C 4.7584 -1.5431 -1.2618 0
M  V30 7 C 3.7208 2.6815 -3.1173 0
M  V30 8 C 6.2104 2.3173 -3.2812 0
M  V30 9 C 3.2863 -1.6856 -1.5293 0 CFG=1
M  V30 10 C 2.4732 2.2479 -2.394 0
M  V30 11 O 3.054 -2.4905 -2.6612 0
M  V30 12 C 2.7828 -3.0837 -1.4082 0 CFG=2
M  V30 13 C 2.2476 2.4612 -1.0917 0
M  V30 14 C 1.2819 -3.4063 -1.3138 0
M  V30 15 C 3.2394 3.0684 -0.1722 0
M  V30 16 C 0.4292 -2.413 -0.4832 0 CFG=1
M  V30 17 C 2.9144 3.6291 0.9987 0
M  V30 18 O 0.1225 -1.2677 -1.2446 0
M  V30 19 C -0.8758 -3.0985 0.0181 0
M  V30 20 C 1.5265 3.8508 1.43 0
M  V30 21 C -0.8007 -3.553 1.5101 0 CFG=2
M  V30 22 C 0.726 2.8957 1.9185 0
M  V30 23 O -0.7652 -2.4273 2.3956 0
M  V30 24 O 0.4075 -4.2597 1.6627 0
M  V30 25 C -1.9455 -4.5524 1.8641 0
M  V30 26 C 1.1587 1.5001 2.16 0
M  V30 27 C -2.0116 -1.7525 2.5288 0 CFG=1
M  V30 28 C -3.2957 -3.8808 2.142 0 CFG=1
M  V30 29 C 0.3225 0.5286 2.5618 0
M  V30 30 C -3.1117 -2.6843 3.0892 0 CFG=1
M  V30 31 C -1.8395 -0.49 3.4092 0
M  V30 32 O -3.875 -3.4405 0.9403 0
M  V30 33 C -1.1697 0.7101 2.6931 0 CFG=2
M  V30 34 C -2.8464 -3.1319 4.5086 0
M  V30 35 O -1.7089 0.8851 1.393 0
M  V30 36 O -1.6924 -3.4846 4.8749 0
M  V30 37 O -3.9008 -3.2006 5.4145 0 CHG=-1
M  V30 38 C -2.8543 1.732 1.3716 0 CFG=1
M  V30 39 O -2.5324 2.9876 0.7935 0
M  V30 40 C -3.9858 1.0434 0.5806 0 CFG=1
M  V30 41 C -2.0131 2.844 -0.522 0 CFG=1
M  V30 42 O -5.207 1.7273 0.743 0
M  V30 43 C -3.5942 0.9019 -0.9107 0 CFG=2
M  V30 44 C -3.0727 2.2447 -1.475 0 CFG=2
M  V30 45 C -1.5638 4.2237 -1.0105 0
M  V30 46 N -4.7195 0.3902 -1.7044 0 CHG=1
M  V30 47 O -2.4896 2.0311 -2.7373 0
M  V30 48 H 6.6949 -1.1271 -1.9407 0
M  V30 49 H 4.8995 1.3612 -1.8515 0
M  V30 50 H 5.1248 -1.8473 -0.2878 0
M  V30 51 H 4.013 3.7007 -2.776 0
M  V30 52 H 3.4948 2.7602 -4.2023 0
M  V30 53 H 7.0348 1.5814 -3.1548 0
M  V30 54 H 6.4133 3.1807 -2.6102 0
M  V30 55 H 6.1998 2.6695 -4.3379 0
M  V30 56 H 2.6052 -0.8061 -1.5055 0
M  V30 57 H 1.6724 1.8135 -2.9821 0
M  V30 58 H 3.5082 -3.9116 -1.23 0
M  V30 59 H 1.2811 2.1711 -0.6959 0
M  V30 60 H 1.2183 -4.4112 -0.8358 0
M  V30 61 H 0.8455 -3.5292 -2.3319 0
M  V30 62 H 4.2861 3.0761 -0.4437 0
M  V30 63 H 1.0199 -2.0722 0.3921 0
M  V30 64 H 3.7013 4.0964 1.5791 0
M  V30 65 H -0.4228 -1.5576 -2.021 0
M  V30 66 H -1.7356 -2.429 -0.1605 0
M  V30 67 H -1.0977 -3.9812 -0.6236 0
M  V30 68 H 1.142 4.8598 1.3631 0
M  V30 69 H -0.2764 3.1973 2.1845 0
M  V30 70 H 0.5739 -4.3698 2.6369 0
M  V30 71 H -1.6637 -5.1181 2.778 0
M  V30 72 H -2.0594 -5.3173 1.0654 0
M  V30 73 H 2.2087 1.2425 2.055 0
M  V30 74 H -2.3742 -1.3995 1.5495 0
M  V30 75 H -3.9826 -4.6238 2.6203 0
M  V30 76 H 0.7548 -0.4398 2.7833 0
M  V30 77 H -4.0735 -2.1214 3.0965 0
M  V30 78 H -2.8453 -0.1527 3.7431 0
M  V30 79 H -1.2712 -0.7401 4.3312 0
M  V30 80 H -4.2097 -4.2471 0.4669 0
M  V30 81 H -1.3247 1.6006 3.3443 0
M  V30 82 H -3.2668 1.9231 2.3912 0
M  V30 83 H -4.1295 0.0253 0.9998 0
M  V30 84 H -1.1059 2.1948 -0.5222 0
M  V30 85 H -5.0868 2.6544 0.4111 0
M  V30 86 H -2.7649 0.1599 -0.9704 0
M  V30 87 H -3.9205 2.9683 -1.5542 0
M  V30 88 H -2.431 4.9189 -1.0715 0
M  V30 89 H -1.0861 4.1506 -2.0135 0
M  V30 90 H -0.8211 4.6513 -0.3041 0
M  V30 91 H -5.4948 1.092 -1.7473 0
M  V30 92 H -5.0772 -0.4991 -1.2824 0
M  V30 93 H -4.3984 0.1783 -2.6775 0
M  V30 94 H -3.1901 2.1968 -3.4226 0
M  V30 END ATOM
M  V30 BEGIN BOND
M  V30 1 2 1 2
M  V30 2 1 2 3
M  V30 3 1 2 4
M  V30 4 1 3 5
M  V30 5 2 4 6
M  V30 6 1 5 7
M  V30 7 1 5 8
M  V30 8 1 6 9
M  V30 9 1 7 10
M  V30 10 1 9 11
M  V30 11 1 9 12
M  V30 12 2 10 13
M  V30 13 1 12 14
M  V30 14 1 13 15
M  V30 15 1 14 16
M  V30 16 2 15 17
M  V30 17 1 16 18
M  V30 18 1 16 19
M  V30 19 1 17 20
M  V30 20 1 19 21
M  V30 21 2 20 22
M  V30 22 1 21 23
M  V30 23 1 21 24
M  V30 24 1 21 25
M  V30 25 1 22 26
M  V30 26 1 23 27
M  V30 27 1 25 28
M  V30 28 2 26 29
M  V30 29 1 27 30
M  V30 30 1 27 31
M  V30 31 1 28 32
M  V30 32 1 29 33
M  V30 33 1 30 34
M  V30 34 1 33 35
M  V30 35 2 34 36
M  V30 36 1 34 37
M  V30 37 1 35 38
M  V30 38 1 38 39
M  V30 39 1 38 40
M  V30 40 1 39 41
M  V30 41 1 40 42
M  V30 42 1 40 43
M  V30 43 1 41 44
M  V30 44 1 41 45
M  V30 45 1 43 46
M  V30 46 1 44 47
M  V30 47 1 11 12
M  V30 48 1 28 30
M  V30 49 1 31 33
M  V30 50 1 43 44
M  V30 51 1 4 48
M  V30 52 1 5 49
M  V30 53 1 6 50
M  V30 54 1 7 51
M  V30 55 1 7 52
M  V30 56 1 8 53
M  V30 57 1 8 54
M  V30 58 1 8 55
M  V30 59 1 9 56
M  V30 60 1 10 57
M  V30 61 1 12 58
M  V30 62 1 13 59
M  V30 63 1 14 60
M  V30 64 1 14 61
M  V30 65 1 15 62
M  V30 66 1 16 63
M  V30 67 1 17 64
M  V30 68 1 18 65
M  V30 69 1 19 66
M  V30 70 1 19 67
M  V30 71 1 20 68
M  V30 72 1 22 69
M  V30 73 1 24 70
M  V30 74 1 25 71
M  V30 75 1 25 72
M  V30 76 1 26 73
M  V30 77 1 27 74
M  V30 78 1 28 75
M  V30 79 1 29 76
M  V30 80 1 30 77
M  V30 81 1 31 78
M  V30 82 1 31 79
M  V30 83 1 32 80
M  V30 84 1 33 81
M  V30 85 1 38 82
M  V30 86 1 40 83
M  V30 87 1 41 84
M  V30 88 1 42 85
M  V30 89 1 43 86
M  V30 90 1 44 87
M  V30 91 1 45 88
M  V30 92 1 45 89
M  V30 93 1 45 90
M  V30 94 1 46 91
M  V30 95 1 46 92
M  V30 96 1 46 93
M  V30 97 1 47 94
M  V30 END BOND
M  V30 BEGIN COLLECTION
M  V30 MDLV30/STEABS ATOMS=(14 5 9 12 16 21 27 28 30 33 38 40 41 43 44)
M  V30 END COLLECTION
M  V30 END CTAB
M  END
>  <Structure No>
7307

>  <LogS>
-2.21

>  <MMFF94 Energy>
13.458

$$$$
Compound 7308
Actelion Java MolfileCreator 2.0

  0  0  0  0  0  0              0 V3000
M  V30 BEGIN CTAB
M  V30 COUNTS 41 43 0 0 0
M  V30 BEGIN ATOM
M  V30 1 F -1.2874 3.0596 1.2069 0
M  V30 2 C -0.3669 2.1596 0.7789 0
M  V30 3 C -0.7578 0.8798 0.3674 0
M  V30 4 C 0.9807 2.5112 0.7877 0
M  V30 5 N -2.1455 0.4991 0.3618 0
M  V30 6 C 0.2149 -0.041 -0.0429 0
M  V30 7 C 1.9683 1.5929 0.382 0
M  V30 8 C -3.1563 1.3549 -0.2653 0
M  V30 9 C -2.6061 -0.6159 1.1938 0
M  V30 10 C 1.5908 0.2945 -0.0518 0
M  V30 11 C 3.329 1.9459 0.4102 0
M  V30 12 C -4.2024 0.4855 -0.9717 0
M  V30 13 C -3.668 -1.4203 0.4372 0
M  V30 14 N 2.562 -0.5994 -0.4612 0
M  V30 15 O 3.6716 3.1 0.7911 0
M  V30 16 C 4.3047 1.0124 0.0195 0
M  V30 17 N -4.7364 -0.5412 -0.0633 0 CHG=1
M  V30 18 C 3.8858 -0.2551 -0.406 0
M  V30 19 C 2.2437 -1.962 -0.9361 0
M  V30 20 C 5.7594 1.3275 0.0446 0
M  V30 21 C 2.0531 -2.9148 0.2412 0
M  V30 22 O 6.1746 2.4527 0.4293 0
M  V30 23 O 6.6909 0.3774 -0.3588 0 CHG=-1
M  V30 24 H 1.2491 3.5056 1.1235 0
M  V30 25 H -0.1333 -1.0143 -0.3509 0
M  V30 26 H -2.6866 2.032 -1.012 0
M  V30 27 H -3.651 1.9742 0.5139 0
M  V30 28 H -3.0419 -0.2134 2.1337 0
M  V30 29 H -1.7643 -1.2885 1.4664 0
M  V30 30 H -3.7426 0.0032 -1.8636 0
M  V30 31 H -5.032 1.1343 -1.3291 0
M  V30 32 H -4.1024 -2.1819 1.1214 0
M  V30 33 H -3.1895 -1.9606 -0.4104 0
M  V30 34 H -5.4324 -1.1225 -0.5856 0
M  V30 35 H -5.227 -0.0838 0.7412 0
M  V30 36 H 4.6369 -0.979 -0.7013 0
M  V30 37 H 3.0618 -2.3598 -1.5774 0
M  V30 38 H 1.3519 -1.962 -1.596 0
M  V30 39 H 1.8122 -3.9306 -0.1361 0
M  V30 40 H 1.2253 -2.5728 0.8962 0
M  V30 41 H 2.987 -2.9677 0.8398 0
M  V30 END ATOM
M  V30 BEGIN BOND
M  V30 1 1 1 2
M  V30 2 2 2 3
M  V30 3 1 2 4
M  V30 4 1 3 5
M  V30 5 1 3 6
M  V30 6 2 4 7
M  V30 7 1 5 8
M  V30 8 1 5 9
M  V30 9 2 6 10
M  V30 10 1 7 11
M  V30 11 1 8 12
M  V30 12 1 9 13
M  V30 13 1 10 14
M  V30 14 2 11 15
M  V30 15 1 11 16
M  V30 16 1 12 17
M  V30 17 1 14 18
M  V30 18 1 14 19
M  V30 19 1 16 20
M  V30 20 1 19 21
M  V30 21 2 20 22
M  V30 22 1 20 23
M  V30 23 1 7 10
M  V30 24 1 13 17
M  V30 25 2 16 18
M  V30 26 1 4 24
M  V30 27 1 6 25
M  V30 28 1 8 26
M  V30 29 1 8 27
M  V30 30 1 9 28
M  V30 31 1 9 29
M  V30 32 1 12 30
M  V30 33 1 12 31
M  V30 34 1 13 32
M  V30 35 1 13 33
M  V30 36 1 17 34
M  V30 37 1 17 35
M  V30 38 1 18 36
M  V30 39 1 19 37
M  V30 40 1 19 38
M  V30 41 1 21 39
M  V30 42 1 21 40
M  V30 43 1 21 41
M  V30 END BOND
M  V30 END CTAB
M  END
>  <Structure No>
7308

>  <LogS>
-2.76

>  <MMFF94 Energy>
119.79

$$$$
Compound 7309
Actelion Java MolfileCreator 2.0

  0  0  0  0  0  0              0 V3000
M  V30 BEGIN CTAB
M  V30 COUNTS 44 45 0 0 0
M  V30 BEGIN ATOM
M  V30 1 S 2.3438 -2.8293 -0.0807 0
M  V30 2 C 0.6628 -3.0666 0.4929 0
M  V30 3 C 2.5087 -1.1995 0.7089 0
M  V30 4 N 0.4148 -3.6299 1.7122 0
M  V30 5 C -0.4284 -2.6679 -0.2657 0
M  V30 6 O 3.7254 -0.5994 0.283 0
M  V30 7 C -0.8662 -3.787 2.1782 0
M  V30 8 N -0.458 -2.0734 -1.4739 0
M  V30 9 C -1.6813 -2.828 0.2165 0
M  V30 10 C 4.1666 0.6337 0.7717 0
M  V30 11 N -1.9339 -3.3779 1.4279 0
M  V30 12 C -1.7902 -1.8849 -1.6823 0
M  V30 13 N -2.5629 -2.3362 -0.6612 0
M  V30 14 O 3.5312 1.2287 1.6844 0
M  V30 15 C 5.3874 1.2654 0.178 0
M  V30 16 C -4.0091 -2.1943 -0.5179 0
M  V30 17 C 5.0392 2.1148 -1.0538 0
M  V30 18 O -4.3542 -0.8158 -0.3899 0
M  V30 19 C 4.235 3.3669 -0.6941 0
M  V30 20 C -4.0059 -0.0343 0.7187 0
M  V30 21 O -3.416 -0.5441 1.7126 0
M  V30 22 C -4.3019 1.4348 0.7035 0
M  V30 23 C -3.074 2.2556 0.2908 0
M  V30 24 C -2.6686 2.006 -1.1623 0
M  V30 25 H 2.5188 -1.3318 1.812 0
M  V30 26 H 1.6574 -0.5484 0.418 0
M  V30 27 H -1.0327 -4.2328 3.149 0
M  V30 28 H -2.1876 -1.3993 -2.5638 0
M  V30 29 H 6.0876 0.4581 -0.1328 0
M  V30 30 H 5.9083 1.8851 0.942 0
M  V30 31 H -4.5067 -2.6038 -1.4218 0
M  V30 32 H -4.3745 -2.7622 0.3641 0
M  V30 33 H 4.4675 1.5068 -1.7896 0
M  V30 34 H 5.9852 2.4351 -1.5404 0
M  V30 35 H 4.0874 3.9895 -1.6053 0
M  V30 36 H 4.7785 3.9696 0.0674 0
M  V30 37 H 3.2364 3.0877 -0.2987 0
M  V30 38 H -5.1483 1.6386 0.011 0
M  V30 39 H -4.6215 1.7502 1.7215 0
M  V30 40 H -3.315 3.3335 0.4078 0
M  V30 41 H -2.2161 2.0227 0.9609 0
M  V30 42 H -3.5252 2.1849 -1.8445 0
M  V30 43 H -1.844 2.6971 -1.4385 0
M  V30 44 H -2.3069 0.9658 -1.2913 0
M  V30 END ATOM
M  V30 BEGIN BOND
M  V30 1 1 1 2
M  V30 2 1 1 3
M  V30 3 2 2 4
M  V30 4 1 2 5
M  V30 5 1 3 6
M  V30 6 1 4 7
M  V30 7 1 5 8
M  V30 8 2 5 9
M  V30 9 1 6 10
M  V30 10 2 7 11
M  V30 11 2 8 12
M  V30 12 1 9 13
M  V30 13 2 10 14
M  V30 14 1 10 15
M  V30 15 1 13 16
M  V30 16 1 15 17
M  V30 17 1 16 18
M  V30 18 1 17 19
M  V30 19 1 18 20
M  V30 20 2 20 21
M  V30 21 1 20 22
M  V30 22 1 22 23
M  V30 23 1 23 24
M  V30 24 1 9 11
M  V30 25 1 12 13
M  V30 26 1 3 25
M  V30 27 1 3 26
M  V30 28 1 7 27
M  V30 29 1 12 28
M  V30 30 1 15 29
M  V30 31 1 15 30
M  V30 32 1 16 31
M  V30 33 1 16 32
M  V30 34 1 17 33
M  V30 35 1 17 34
M  V30 36 1 19 35
M  V30 37 1 19 36
M  V30 38 1 19 37
M  V30 39 1 22 38
M  V30 40 1 22 39
M  V30 41 1 23 40
M  V30 42 1 23 41
M  V30 43 1 24 42
M  V30 44 1 24 43
M  V30 45 1 24 44
M  V30 END BOND
M  V30 END CTAB
M  END
>  <Structure No>
7309

>  <LogS>
-3.71

>  <MMFF94 Energy>
-30.621

$$$$
Compound 7310
Actelion Java MolfileCreator 2.0

  0  0  0  0  0  0              0 V3000
M  V30 BEGIN CTAB
M  V30 COUNTS 41 43 0 0 0
M  V30 BEGIN ATOM
M  V30 1 S -3.5223 0.4091 1.8009 0
M  V30 2 C -1.9163 0.5822 0.9179 0 CFG=2
M  V30 3 C -4.5349 -0.2465 0.413 0
M  V30 4 N -2.0933 0.4717 -0.5102 0
M  V30 5 C -1.0527 -0.5743 0.9852 0 CFG=1
M  V30 6 C -4.4232 0.5917 -0.8494 0
M  V30 7 C -3.1885 0.837 -1.3419 0
M  V30 8 C -1.1382 -0.6587 -0.5085 0
M  V30 9 N 0.3125 -0.2726 1.4237 0
M  V30 10 C -5.6859 1.0473 -1.5336 0
M  V30 11 C -2.8932 1.4894 -2.6403 0
M  V30 12 O -0.653 -1.4157 -1.3891 0
M  V30 13 C 1.3287 -1.2839 1.4496 0
M  V30 14 O -1.6999 1.7661 -2.932 0
M  V30 15 O -3.8897 1.7919 -3.5593 0 CHG=-1
M  V30 16 O 1.0355 -2.481 1.1781 0
M  V30 17 C 2.7589 -0.8962 1.7425 0 CFG=1
M  V30 18 N 3.5757 -2.0589 2.1149 0 CHG=1
M  V30 19 C 3.36 -0.1784 0.5498 0
M  V30 20 C 3.3935 -0.7892 -0.7186 0
M  V30 21 C 3.9047 1.1093 0.7012 0
M  V30 22 C 3.9514 -0.1191 -1.8114 0
M  V30 23 C 4.4621 1.7747 -0.395 0
M  V30 24 C 4.4846 1.1617 -1.6499 0
M  V30 25 H -1.4314 1.5507 1.1715 0
M  V30 26 H -5.5865 -0.314 0.7607 0
M  V30 27 H -4.1961 -1.2806 0.1897 0
M  V30 28 H -1.493 -1.4578 1.4978 0
M  V30 29 H 0.5814 0.7017 1.691 0
M  V30 30 H -5.7985 0.5296 -2.5087 0
M  V30 31 H -5.6621 2.1475 -1.6821 0
M  V30 32 H -6.5847 0.8129 -0.9265 0
M  V30 33 H 2.7328 -0.206 2.6163 0
M  V30 34 H 3.6265 -2.7514 1.3326 0
M  V30 35 H 3.1665 -2.5228 2.9587 0
M  V30 36 H 4.5446 -1.744 2.3525 0
M  V30 37 H 2.9834 -1.7806 -0.8628 0
M  V30 38 H 3.8974 1.6007 1.6661 0
M  V30 39 H 3.9701 -0.5935 -2.7839 0
M  V30 40 H 4.8773 2.7665 -0.271 0
M  V30 41 H 4.9161 1.6788 -2.497 0
M  V30 END ATOM
M  V30 BEGIN BOND
M  V30 1 1 1 2
M  V30 2 1 1 3
M  V30 3 1 2 4
M  V30 4 1 2 5
M  V30 5 1 3 6
M  V30 6 1 4 7
M  V30 7 1 4 8
M  V30 8 1 5 9
M  V30 9 1 6 10
M  V30 10 1 7 11
M  V30 11 2 8 12
M  V30 12 1 9 13
M  V30 13 2 11 14
M  V30 14 1 11 15
M  V30 15 2 13 16
M  V30 16 1 13 17
M  V30 17 1 17 18
M  V30 18 1 17 19
M  V30 19 2 19 20
M  V30 20 1 19 21
M  V30 21 1 20 22
M  V30 22 2 21 23
M  V30 23 2 22 24
M  V30 24 1 5 8
M  V30 25 2 6 7
M  V30 26 1 23 24
M  V30 27 1 2 25
M  V30 28 1 3 26
M  V30 29 1 3 27
M  V30 30 1 5 28
M  V30 31 1 9 29
M  V30 32 1 10 30
M  V30 33 1 10 31
M  V30 34 1 10 32
M  V30 35 1 17 33
M  V30 36 1 18 34
M  V30 37 1 18 35
M  V30 38 1 18 36
M  V30 39 1 20 37
M  V30 40 1 21 38
M  V30 41 1 22 39
M  V30 42 1 23 40
M  V30 43 1 24 41
M  V30 END BOND
M  V30 BEGIN COLLECTION
M  V30 MDLV30/STEABS ATOMS=(3 2 5 17)
M  V30 END COLLECTION
M  V30 END CTAB
M  END
>  <Structure No>
7310

>  <LogS>
-1.58

>  <MMFF94 Energy>
28.725

$$$$
Compound 7311
Actelion Java MolfileCreator 2.0

  0  0  0  0  0  0              0 V3000
M  V30 BEGIN CTAB
M  V30 COUNTS 31 32 0 0 0
M  V30 BEGIN ATOM
M  V30 1 S 2.0591 -1.4822 2.1415 0
M  V30 2 O 1.7706 -2.5343 3.1743 0
M  V30 3 O 3.0404 -0.493 2.7059 0
M  V30 4 N 2.7571 -2.2296 0.7437 0 CHG=-1
M  V30 5 C 0.5545 -0.6787 1.7044 0
M  V30 6 C 3.0712 -1.5006 -0.4437 0
M  V30 7 C 0.2101 0.5489 2.284 0
M  V30 8 C -0.3114 -1.2729 0.7782 0
M  V30 9 N 2.8413 -0.1608 -0.5173 0
M  V30 10 N 3.599 -2.1552 -1.5116 0
M  V30 11 C -0.982 1.1854 1.9265 0
M  V30 12 C -1.503 -0.6366 0.4183 0
M  V30 13 C 3.1302 0.5372 -1.6458 0
M  V30 14 C 3.9024 -1.4919 -2.6577 0
M  V30 15 C -1.8391 0.6101 0.9762 0
M  V30 16 C 3.6716 -0.1198 -2.7496 0
M  V30 17 N -3.0684 1.2767 0.6406 0
M  V30 18 C -3.6863 1.2235 -0.6545 0
M  V30 19 O -3.0533 0.7833 -1.6518 0
M  V30 20 C -5.0569 1.7855 -0.8477 0
M  V30 21 H 0.8614 1.0143 3.0125 0
M  V30 22 H -0.0671 -2.2317 0.3387 0
M  V30 23 H -1.2344 2.1344 2.3826 0
M  V30 24 H -2.1697 -1.1324 -0.2741 0
M  V30 25 H 2.9392 1.6013 -1.6851 0
M  V30 26 H 4.3218 -2.0303 -3.4971 0
M  V30 27 H 3.9074 0.4222 -3.6561 0
M  V30 28 H -3.4975 1.9063 1.3566 0
M  V30 29 H -4.9914 2.8873 -0.964 0
M  V30 30 H -5.5288 1.3501 -1.7539 0
M  V30 31 H -5.691 1.548 0.0321 0
M  V30 END ATOM
M  V30 BEGIN BOND
M  V30 1 2 1 2
M  V30 2 2 1 3
M  V30 3 1 1 4
M  V30 4 1 1 5
M  V30 5 1 4 6
M  V30 6 2 5 7
M  V30 7 1 5 8
M  V30 8 2 6 9
M  V30 9 1 6 10
M  V30 10 1 7 11
M  V30 11 2 8 12
M  V30 12 1 9 13
M  V30 13 2 10 14
M  V30 14 2 11 15
M  V30 15 2 13 16
M  V30 16 1 15 17
M  V30 17 1 17 18
M  V30 18 2 18 19
M  V30 19 1 18 20
M  V30 20 1 12 15
M  V30 21 1 14 16
M  V30 22 1 7 21
M  V30 23 1 8 22
M  V30 24 1 11 23
M  V30 25 1 12 24
M  V30 26 1 13 25
M  V30 27 1 14 26
M  V30 28 1 16 27
M  V30 29 1 17 28
M  V30 30 1 20 29
M  V30 31 1 20 30
M  V30 32 1 20 31
M  V30 END BOND
M  V30 END CTAB
M  END
>  <Structure No>
7311

>  <LogS>
-3.59

>  <MMFF94 Energy>
3.6024

$$$$
Compound 7312
Actelion Java MolfileCreator 2.0

  0  0  0  0  0  0              0 V3000
M  V30 BEGIN CTAB
M  V30 COUNTS 45 47 0 0 0
M  V30 BEGIN ATOM
M  V30 1 O -3.5103 0.5578 -0.0796 0
M  V30 2 C -2.307 0.172 -0.0811 0
M  V30 3 N -2.0123 -1.1629 0.1542 0
M  V30 4 N -1.3006 1.0868 -0.3178 0
M  V30 5 C -0.7044 -1.5939 0.1376 0
M  V30 6 C -3.1019 -2.1343 0.3724 0
M  V30 7 C -0.0163 0.6369 -0.2988 0
M  V30 8 C -1.5893 2.515 -0.5292 0
M  V30 9 O -0.4063 -2.8062 0.3199 0
M  V30 10 C 0.29 -0.6592 -0.0858 0
M  V30 11 C -3.5739 -2.7113 -0.9657 0
M  V30 12 N 1.1012 1.3665 -0.4799 0
M  V30 13 C -1.6203 3.253 0.8126 0
M  V30 14 N 1.6181 -0.8197 -0.1242 0
M  V30 15 C -4.7016 -3.7197 -0.7673 0
M  V30 16 C 2.0836 0.4327 -0.3677 0
M  V30 17 C -1.9129 4.738 0.6211 0
M  V30 18 C 3.5478 0.7747 -0.4805 0 CFG=2
M  V30 19 C 4.242 -0.0713 -1.5557 0
M  V30 20 C 4.285 0.4966 0.8444 0
M  V30 21 C 5.0316 -1.0585 -0.7815 0
M  V30 22 C 5.0186 -0.832 0.6826 0
M  V30 23 O 5.6388 -1.9792 -1.3047 0
M  V30 24 H -3.9557 -1.6525 0.8983 0
M  V30 25 H -2.764 -2.9581 1.0394 0
M  V30 26 H -2.5625 2.6408 -1.053 0
M  V30 27 H -0.8192 2.9708 -1.1904 0
M  V30 28 H -3.9354 -1.8882 -1.6193 0
M  V30 29 H -2.7234 -3.2147 -1.4742 0
M  V30 30 H -2.4055 2.8099 1.4629 0
M  V30 31 H -0.6386 3.1399 1.3216 0
M  V30 32 H 2.1637 -1.7002 0.0071 0
M  V30 33 H -5.574 -3.2322 -0.2818 0
M  V30 34 H -5.0208 -4.1187 -1.7529 0
M  V30 35 H -4.3556 -4.5661 -0.1363 0
M  V30 36 H -1.1258 5.2085 -0.0058 0
M  V30 37 H -2.902 4.8767 0.1349 0
M  V30 38 H -1.929 5.244 1.6095 0
M  V30 39 H 3.6409 1.8534 -0.7393 0
M  V30 40 H 3.522 -0.5848 -2.2305 0
M  V30 41 H 4.9321 0.5552 -2.1609 0
M  V30 42 H 3.5989 0.4702 1.7202 0
M  V30 43 H 5.0316 1.303 1.0188 0
M  V30 44 H 4.4656 -1.6542 1.1852 0
M  V30 45 H 6.0541 -0.7664 1.0808 0
M  V30 END ATOM
M  V30 BEGIN BOND
M  V30 1 2 1 2
M  V30 2 1 2 3
M  V30 3 1 2 4
M  V30 4 1 3 5
M  V30 5 1 3 6
M  V30 6 1 4 7
M  V30 7 1 4 8
M  V30 8 2 5 9
M  V30 9 1 5 10
M  V30 10 1 6 11
M  V30 11 1 7 12
M  V30 12 1 8 13
M  V30 13 1 10 14
M  V30 14 1 11 15
M  V30 15 2 12 16
M  V30 16 1 13 17
M  V30 17 1 16 18
M  V30 18 1 18 19
M  V30 19 1 18 20
M  V30 20 1 19 21
M  V30 21 1 20 22
M  V30 22 2 21 23
M  V30 23 2 7 10
M  V30 24 1 14 16
M  V30 25 1 21 22
M  V30 26 1 6 24
M  V30 27 1 6 25
M  V30 28 1 8 26
M  V30 29 1 8 27
M  V30 30 1 11 28
M  V30 31 1 11 29
M  V30 32 1 13 30
M  V30 33 1 13 31
M  V30 34 1 14 32
M  V30 35 1 15 33
M  V30 36 1 15 34
M  V30 37 1 15 35
M  V30 38 1 17 36
M  V30 39 1 17 37
M  V30 40 1 17 38
M  V30 41 1 18 39
M  V30 42 1 19 40
M  V30 43 1 19 41
M  V30 44 1 20 42
M  V30 45 1 20 43
M  V30 46 1 22 44
M  V30 47 1 22 45
M  V30 END BOND
M  V30 BEGIN COLLECTION
M  V30 MDLV30/STEABS ATOMS=(1 18)
M  V30 END COLLECTION
M  V30 END CTAB
M  END
>  <Structure No>
7312

>  <LogS>
-3.16

>  <MMFF94 Energy>
-131.81

$$$$
Compound 7313
Actelion Java MolfileCreator 2.0

  0  0  0  0  0  0              0 V3000
M  V30 BEGIN CTAB
M  V30 COUNTS 23 24 0 0 0
M  V30 BEGIN ATOM
M  V30 1 Cl -3.3311 1.5295 -2.5201 0
M  V30 2 C -2.8606 0.6145 -1.0873 0
M  V30 3 C -1.6057 -0.0232 -1.0326 0
M  V30 4 C -3.7437 0.5128 0.0027 0
M  V30 5 Cl -0.5262 0.0258 -2.4269 0
M  V30 6 C -1.237 -0.7455 0.1214 0
M  V30 7 Cl -5.3203 1.2932 -0.0205 0
M  V30 8 C -3.379 -0.2286 1.1299 0
M  V30 9 O 0.005 -1.3839 0.2232 0
M  V30 10 C -2.1361 -0.8587 1.1855 0
M  V30 11 C 1.2438 -0.7278 0.1599 0
M  V30 12 C 1.3614 0.6648 0.315 0
M  V30 13 C 2.3959 -1.4934 -0.0404 0
M  V30 14 C 2.6148 1.2822 0.2478 0
M  V30 15 C 3.6539 -0.8852 -0.1081 0
M  V30 16 Cl 2.7075 3.0284 0.4399 0
M  V30 17 C 3.7694 0.509 0.0333 0
M  V30 18 Cl 5.0684 -1.8969 -0.3718 0
M  V30 19 Cl 5.3519 1.2819 -0.053 0
M  V30 20 H -4.0598 -0.316 1.9673 0
M  V30 21 H -1.8626 -1.4263 2.0659 0
M  V30 22 H 0.4837 1.2721 0.4944 0
M  V30 23 H 2.3103 -2.5673 -0.1502 0
M  V30 END ATOM
M  V30 BEGIN BOND
M  V30 1 1 1 2
M  V30 2 2 2 3
M  V30 3 1 2 4
M  V30 4 1 3 5
M  V30 5 1 3 6
M  V30 6 1 4 7
M  V30 7 2 4 8
M  V30 8 1 6 9
M  V30 9 2 6 10
M  V30 10 1 9 11
M  V30 11 2 11 12
M  V30 12 1 11 13
M  V30 13 1 12 14
M  V30 14 2 13 15
M  V30 15 1 14 16
M  V30 16 2 14 17
M  V30 17 1 15 18
M  V30 18 1 17 19
M  V30 19 1 8 10
M  V30 20 1 15 17
M  V30 21 1 8 20
M  V30 22 1 10 21
M  V30 23 1 12 22
M  V30 24 1 13 23
M  V30 END BOND
M  V30 END CTAB
M  END
>  <Structure No>
7313

>  <LogS>
-8.49

>  <MMFF94 Energy>
60.238

$$$$
Compound 7314
Actelion Java MolfileCreator 2.0

  0  0  0  0  0  0              0 V3000
M  V30 BEGIN CTAB
M  V30 COUNTS 39 41 0 0 0
M  V30 BEGIN ATOM
M  V30 1 O -3.3203 -0.9709 -2.4287 0
M  V30 2 C -2.4359 -0.5626 -1.6299 0
M  V30 3 N -1.0938 -0.9996 -1.659 0
M  V30 4 C -2.637 0.446 -0.5429 0 CFG=2
M  V30 5 C -0.4805 -0.2648 -0.6071 0
M  V30 6 N -1.2822 0.55 0.0084 0
M  V30 7 C -3.6482 -0.0579 0.5382 0
M  V30 8 C -3.0464 1.7923 -1.1643 0
M  V30 9 C 0.9601 -0.3232 -0.3016 0
M  V30 10 C -3.249 -1.4255 1.1272 0
M  V30 11 C -3.8272 0.9527 1.6849 0
M  V30 12 N 1.5926 0.8517 -0.0316 0
M  V30 13 C 1.7071 -1.5299 -0.3289 0
M  V30 14 C 2.9305 0.9289 0.1835 0
M  V30 15 C 1.081 -2.8656 -0.467 0
M  V30 16 C 3.0975 -1.4616 -0.1393 0
M  V30 17 C 3.7196 -0.2361 0.1197 0
M  V30 18 C 3.5287 2.1648 0.4549 0
M  V30 19 O -0.0844 -3.0792 -0.0399 0
M  V30 20 O 1.8004 -3.9192 -1.0184 0 CHG=-1
M  V30 21 C 5.1045 -0.1513 0.3314 0
M  V30 22 C 4.9091 2.2425 0.6642 0
M  V30 23 C 5.695 1.0874 0.6023 0
M  V30 24 H -0.6405 -1.618 -2.3676 0
M  V30 25 H -4.6409 -0.1867 0.0514 0
M  V30 26 H -2.96 2.6122 -0.4214 0
M  V30 27 H -2.3792 2.0486 -2.016 0
M  V30 28 H -4.0924 1.747 -1.5361 0
M  V30 29 H -4.0103 -1.7638 1.8622 0
M  V30 30 H -2.2662 -1.3635 1.6413 0
M  V30 31 H -3.1923 -2.1982 0.3327 0
M  V30 32 H -2.8495 1.1968 2.1523 0
M  V30 33 H -4.4988 0.5367 2.4661 0
M  V30 34 H -4.3004 1.8862 1.3168 0
M  V30 35 H 3.6924 -2.3679 -0.1564 0
M  V30 36 H 2.9274 3.0646 0.5024 0
M  V30 37 H 5.7259 -1.0376 0.2892 0
M  V30 38 H 5.3704 3.1988 0.874 0
M  V30 39 H 6.763 1.1521 0.7653 0
M  V30 END ATOM
M  V30 BEGIN BOND
M  V30 1 2 1 2
M  V30 2 1 2 3
M  V30 3 1 2 4
M  V30 4 1 3 5
M  V30 5 1 4 6
M  V30 6 1 4 7
M  V30 7 1 4 8
M  V30 8 1 5 9
M  V30 9 1 7 10
M  V30 10 1 7 11
M  V30 11 2 9 12
M  V30 12 1 9 13
M  V30 13 1 12 14
M  V30 14 1 13 15
M  V30 15 2 13 16
M  V30 16 1 14 17
M  V30 17 2 14 18
M  V30 18 2 15 19
M  V30 19 1 15 20
M  V30 20 2 17 21
M  V30 21 1 18 22
M  V30 22 1 21 23
M  V30 23 2 5 6
M  V30 24 1 16 17
M  V30 25 2 22 23
M  V30 26 1 3 24
M  V30 27 1 7 25
M  V30 28 1 8 26
M  V30 29 1 8 27
M  V30 30 1 8 28
M  V30 31 1 10 29
M  V30 32 1 10 30
M  V30 33 1 10 31
M  V30 34 1 11 32
M  V30 35 1 11 33
M  V30 36 1 11 34
M  V30 37 1 16 35
M  V30 38 1 18 36
M  V30 39 1 21 37
M  V30 40 1 22 38
M  V30 41 1 23 39
M  V30 END BOND
M  V30 BEGIN COLLECTION
M  V30 MDLV30/STEABS ATOMS=(1 4)
M  V30 END COLLECTION
M  V30 END CTAB
M  END
>  <Structure No>
7314

>  <LogS>
-3.72

>  <MMFF94 Energy>
50.219

$$$$
Compound 7315
Actelion Java MolfileCreator 2.0

  0  0  0  0  0  0              0 V3000
M  V30 BEGIN CTAB
M  V30 COUNTS 33 34 0 0 0
M  V30 BEGIN ATOM
M  V30 1 F 0.1611 2.6616 2.8231 0
M  V30 2 C 0.299 1.7589 1.8192 0
M  V30 3 C -0.6835 0.803 1.5788 0
M  V30 4 C 1.4354 1.769 1.0208 0
M  V30 5 O -1.7098 0.7761 2.3134 0
M  V30 6 N -0.5256 -0.1031 0.5641 0
M  V30 7 N 1.5793 0.8635 0.0109 0
M  V30 8 C 0.6097 -0.0825 -0.2064 0
M  V30 9 C -1.5374 -1.1023 0.3241 0
M  V30 10 C 2.8074 0.8776 -0.7955 0
M  V30 11 O 0.7595 -0.9353 -1.1277 0
M  V30 12 O -1.2366 -2.3214 0.447 0
M  V30 13 C -2.9147 -0.7209 -0.077 0
M  V30 14 O 3.6966 -0.1284 -0.3209 0
M  V30 15 C -3.1913 0.5725 -0.5592 0
M  V30 16 C -3.9631 -1.6569 5.0E-4 0
M  V30 17 C 4.9443 -0.3678 -0.903 0
M  V30 18 C -4.49 0.923 -0.9412 0
M  V30 19 C -5.2601 -1.3008 -0.3825 0
M  V30 20 O 5.3475 0.3295 -1.8734 0
M  V30 21 C 5.8275 -1.4275 -0.3379 0
M  V30 22 C -5.5237 -0.0118 -0.8515 0
M  V30 23 H 2.2053 2.5063 1.2173 0
M  V30 24 H 3.3071 1.8709 -0.7411 0
M  V30 25 H 2.5654 0.6936 -1.8656 0
M  V30 26 H -2.4046 1.3104 -0.6519 0
M  V30 27 H -3.7825 -2.6607 0.3644 0
M  V30 28 H -4.6942 1.9198 -1.3105 0
M  V30 29 H -6.0616 -2.0253 -0.3155 0
M  V30 30 H 6.3827 -1.9364 -1.1539 0
M  V30 31 H 5.2175 -2.1804 0.204 0
M  V30 32 H 6.5508 -0.9686 0.3676 0
M  V30 33 H -6.5281 0.2614 -1.1482 0
M  V30 END ATOM
M  V30 BEGIN BOND
M  V30 1 1 1 2
M  V30 2 1 2 3
M  V30 3 2 2 4
M  V30 4 2 3 5
M  V30 5 1 3 6
M  V30 6 1 4 7
M  V30 7 1 6 8
M  V30 8 1 6 9
M  V30 9 1 7 10
M  V30 10 2 8 11
M  V30 11 2 9 12
M  V30 12 1 9 13
M  V30 13 1 10 14
M  V30 14 2 13 15
M  V30 15 1 13 16
M  V30 16 1 14 17
M  V30 17 1 15 18
M  V30 18 2 16 19
M  V30 19 2 17 20
M  V30 20 1 17 21
M  V30 21 2 18 22
M  V30 22 1 7 8
M  V30 23 1 19 22
M  V30 24 1 4 23
M  V30 25 1 10 24
M  V30 26 1 10 25
M  V30 27 1 15 26
M  V30 28 1 16 27
M  V30 29 1 18 28
M  V30 30 1 19 29
M  V30 31 1 21 30
M  V30 32 1 21 31
M  V30 33 1 21 32
M  V30 34 1 22 33
M  V30 END BOND
M  V30 END CTAB
M  END
>  <Structure No>
7315

>  <LogS>
-3.34

>  <MMFF94 Energy>
-39.67

$$$$
Compound 7316
Actelion Java MolfileCreator 2.0

  0  0  0  0  0  0              0 V3000
M  V30 BEGIN CTAB
M  V30 COUNTS 49 51 0 0 0
M  V30 BEGIN ATOM
M  V30 1 O 6.5968 -2.6508 0.8027 0
M  V30 2 N 6.4427 -1.6511 1.5319 0 CHG=1
M  V30 3 O 7.033 -1.6386 2.7742 0 CHG=-1
M  V30 4 C 5.7458 -0.4844 1.0648 0
M  V30 5 N 5.0076 -0.3892 -0.0651 0
M  V30 6 C 5.7329 0.7303 1.7124 0
M  V30 7 C 4.5707 0.8951 -0.0699 0
M  V30 8 C 4.6714 -1.444 -1.0315 0
M  V30 9 N 4.9968 1.603 0.9991 0
M  V30 10 C 3.7186 1.5035 -1.1397 0
M  V30 11 C 3.6379 -2.4134 -0.4481 0
M  V30 12 O 2.401 -1.7485 -0.2014 0
M  V30 13 C 1.463 -1.4666 -1.2024 0
M  V30 14 O 1.6472 -1.8843 -2.379 0
M  V30 15 C 0.2604 -0.6696 -0.8769 0
M  V30 16 C -0.7169 -0.4115 -1.8543 0
M  V30 17 C 0.0851 -0.1485 0.4165 0
M  V30 18 C -1.8464 0.3503 -1.5425 0
M  V30 19 C -1.0443 0.6141 0.7266 0
M  V30 20 C -2.016 0.8718 -0.2518 0
M  V30 21 C -3.2462 1.6747 0.0803 0
M  V30 22 N -4.4445 0.8116 0.0742 0
M  V30 23 C -5.6684 1.6321 -0.0267 0
M  V30 24 C -4.5048 -0.0314 1.2837 0
M  V30 25 C -6.9295 0.7817 0.2257 0
M  V30 26 C -5.7557 -0.9351 1.2399 0
M  V30 27 O -6.6272 -0.5977 0.1752 0
M  V30 28 H 6.2316 0.9722 2.6414 0
M  V30 29 H 5.5876 -1.9971 -1.323 0
M  V30 30 H 4.2722 -1.0038 -1.9687 0
M  V30 31 H 2.7362 0.9944 -1.1765 0
M  V30 32 H 3.5491 2.5802 -0.9283 0
M  V30 33 H 4.225 1.4124 -2.1228 0
M  V30 34 H 3.4843 -3.2691 -1.1409 0
M  V30 35 H 4.0106 -2.8268 0.511 0
M  V30 36 H -0.6106 -0.7993 -2.8596 0
M  V30 37 H 0.8212 -0.3271 1.1901 0
M  V30 38 H -2.5913 0.5338 -2.3071 0
M  V30 39 H -1.1617 1.0005 1.7315 0
M  V30 40 H -3.1351 2.1952 1.0592 0
M  V30 41 H -3.3412 2.4702 -0.6929 0
M  V30 42 H -5.7266 2.0664 -1.049 0
M  V30 43 H -5.6453 2.4733 0.7039 0
M  V30 44 H -4.5408 0.603 2.1991 0
M  V30 45 H -3.6007 -0.675 1.3498 0
M  V30 46 H -7.6877 1.0069 -0.5539 0
M  V30 47 H -7.3896 1.0474 1.2056 0
M  V30 48 H -5.435 -1.9889 1.0973 0
M  V30 49 H -6.2995 -0.8929 2.2103 0
M  V30 END ATOM
M  V30 BEGIN BOND
M  V30 1 2 1 2
M  V30 2 1 2 3
M  V30 3 1 2 4
M  V30 4 1 4 5
M  V30 5 2 4 6
M  V30 6 1 5 7
M  V30 7 1 5 8
M  V30 8 1 6 9
M  V30 9 1 7 10
M  V30 10 1 8 11
M  V30 11 1 11 12
M  V30 12 1 12 13
M  V30 13 2 13 14
M  V30 14 1 13 15
M  V30 15 2 15 16
M  V30 16 1 15 17
M  V30 17 1 16 18
M  V30 18 2 17 19
M  V30 19 2 18 20
M  V30 20 1 20 21
M  V30 21 1 21 22
M  V30 22 1 22 23
M  V30 23 1 22 24
M  V30 24 1 23 25
M  V30 25 1 24 26
M  V30 26 1 25 27
M  V30 27 2 7 9
M  V30 28 1 19 20
M  V30 29 1 26 27
M  V30 30 1 6 28
M  V30 31 1 8 29
M  V30 32 1 8 30
M  V30 33 1 10 31
M  V30 34 1 10 32
M  V30 35 1 10 33
M  V30 36 1 11 34
M  V30 37 1 11 35
M  V30 38 1 16 36
M  V30 39 1 17 37
M  V30 40 1 18 38
M  V30 41 1 19 39
M  V30 42 1 21 40
M  V30 43 1 21 41
M  V30 44 1 23 42
M  V30 45 1 23 43
M  V30 46 1 24 44
M  V30 47 1 24 45
M  V30 48 1 25 46
M  V30 49 1 25 47
M  V30 50 1 26 48
M  V30 51 1 26 49
M  V30 END BOND
M  V30 END CTAB
M  END
>  <Structure No>
7316

>  <LogS>
-2.89

>  <MMFF94 Energy>
96.693

$$$$
Compound 7317
Actelion Java MolfileCreator 2.0

  0  0  0  0  0  0              0 V3000
M  V30 BEGIN CTAB
M  V30 COUNTS 29 30 0 0 0
M  V30 BEGIN ATOM
M  V30 1 Cl -4.9764 -1.9378 -1.6006 0
M  V30 2 C -3.7696 -0.9987 -0.7319 0
M  V30 3 C -3.6758 -1.0517 0.668 0
M  V30 4 C -2.89 -0.1874 -1.4583 0
M  V30 5 Cl -4.76 -2.0583 1.6186 0
M  V30 6 C -2.7057 -0.2904 1.3269 0
M  V30 7 C -1.909 0.5741 -0.8038 0
M  V30 8 C -1.829 0.5193 0.6003 0
M  V30 9 N -1.0184 1.3904 -1.586 0
M  V30 10 S 0.3914 2.1756 -0.9465 0
M  V30 11 O 1.1656 2.7981 -2.0737 0
M  V30 12 O -0.0379 3.2559 0.0067 0
M  V30 13 C 1.4208 1.0001 -0.1346 0
M  V30 14 C 1.5546 -0.2922 -0.6591 0
M  V30 15 C 2.1073 1.3467 1.0371 0
M  V30 16 C 2.3608 -1.2338 -0.0128 0
M  V30 17 C 2.9145 0.4055 1.6834 0
M  V30 18 C 3.044 -0.8897 1.1622 0
M  V30 19 N 3.8683 -1.8528 1.824 0
M  V30 20 H -2.967 -0.154 -2.5381 0
M  V30 21 H -2.6307 -0.3234 2.4066 0
M  V30 22 H -1.0991 1.1001 1.145 0
M  V30 23 H -1.1744 1.4671 -2.6161 0
M  V30 24 H 1.0327 -0.5715 -1.5657 0
M  V30 25 H 2.0178 2.3426 1.4519 0
M  V30 26 H 2.453 -2.2299 -0.4269 0
M  V30 27 H 3.4378 0.6848 2.5892 0
M  V30 28 H 4.3813 -1.6059 2.6998 0
M  V30 29 H 3.9712 -2.82 1.4434 0
M  V30 END ATOM
M  V30 BEGIN BOND
M  V30 1 1 1 2
M  V30 2 2 2 3
M  V30 3 1 2 4
M  V30 4 1 3 5
M  V30 5 1 3 6
M  V30 6 2 4 7
M  V30 7 2 6 8
M  V30 8 1 7 9
M  V30 9 1 9 10
M  V30 10 2 10 11
M  V30 11 2 10 12
M  V30 12 1 10 13
M  V30 13 2 13 14
M  V30 14 1 13 15
M  V30 15 1 14 16
M  V30 16 2 15 17
M  V30 17 2 16 18
M  V30 18 1 18 19
M  V30 19 1 7 8
M  V30 20 1 17 18
M  V30 21 1 4 20
M  V30 22 1 6 21
M  V30 23 1 8 22
M  V30 24 1 9 23
M  V30 25 1 14 24
M  V30 26 1 15 25
M  V30 27 1 16 26
M  V30 28 1 17 27
M  V30 29 1 19 28
M  V30 30 1 19 29
M  V30 END BOND
M  V30 END CTAB
M  END
>  <Structure No>
7317

>  <LogS>
-4.94

>  <MMFF94 Energy>
-10.906

$$$$
Compound 7318
Actelion Java MolfileCreator 2.0

  0  0  0  0  0  0              0 V3000
M  V30 BEGIN CTAB
M  V30 COUNTS 35 36 0 0 0
M  V30 BEGIN ATOM
M  V30 1 S 0.3235 2.5094 -0.6471 0
M  V30 2 O 0.5509 2.6066 -2.1298 0
M  V30 3 O 0.3476 3.8909 -0.0567 0
M  V30 4 N -1.2285 1.7882 -0.3568 0
M  V30 5 C 1.5849 1.5476 0.1178 0
M  V30 6 C -1.4949 0.381 -0.5151 0
M  V30 7 C 1.3816 1.0285 1.4033 0
M  V30 8 C 2.7878 1.2863 -0.5525 0
M  V30 9 C -2.6105 -0.1956 0.1275 0
M  V30 10 C -0.6622 -0.4298 -1.3104 0
M  V30 11 C 2.3691 0.2479 2.0112 0
M  V30 12 C 3.776 0.5061 0.0555 0
M  V30 13 O -3.4371 0.622 0.9161 0
M  V30 14 C -2.8647 -1.5723 -0.0271 0
M  V30 15 C -0.9203 -1.7983 -1.4536 0
M  V30 16 C 3.5709 -0.0178 1.3399 0
M  V30 17 C -4.5873 0.1686 1.6227 0
M  V30 18 C -2.0235 -2.3648 -0.8086 0
M  V30 19 N -0.0618 -2.612 -2.2576 0
M  V30 20 N 4.5806 -0.8175 1.9609 0
M  V30 21 H -1.9606 2.4098 0.0527 0
M  V30 22 H 0.457 1.2239 1.9317 0
M  V30 23 H 2.9613 1.6819 -1.5447 0
M  V30 24 H 0.1843 -0.006 -1.8313 0
M  V30 25 H 2.1976 -0.15 3.0034 0
M  V30 26 H 4.6997 0.3092 -0.4735 0
M  V30 27 H -3.7103 -2.0421 0.4561 0
M  V30 28 H -4.2985 -0.6022 2.3679 0
M  V30 29 H -5.0446 1.0258 2.1582 0
M  V30 30 H -5.3336 -0.2451 0.9122 0
M  V30 31 H -2.2336 -3.4218 -0.9134 0
M  V30 32 H 0.7667 -2.2 -2.7417 0
M  V30 33 H -0.2469 -3.6335 -2.3725 0
M  V30 34 H 5.479 -1.0209 1.4687 0
M  V30 35 H 4.437 -1.2121 2.9171 0
M  V30 END ATOM
M  V30 BEGIN BOND
M  V30 1 2 1 2
M  V30 2 2 1 3
M  V30 3 1 1 4
M  V30 4 1 1 5
M  V30 5 1 4 6
M  V30 6 2 5 7
M  V30 7 1 5 8
M  V30 8 2 6 9
M  V30 9 1 6 10
M  V30 10 1 7 11
M  V30 11 2 8 12
M  V30 12 1 9 13
M  V30 13 1 9 14
M  V30 14 2 10 15
M  V30 15 2 11 16
M  V30 16 1 13 17
M  V30 17 2 14 18
M  V30 18 1 15 19
M  V30 19 1 16 20
M  V30 20 1 12 16
M  V30 21 1 15 18
M  V30 22 1 4 21
M  V30 23 1 7 22
M  V30 24 1 8 23
M  V30 25 1 10 24
M  V30 26 1 11 25
M  V30 27 1 12 26
M  V30 28 1 14 27
M  V30 29 1 17 28
M  V30 30 1 17 29
M  V30 31 1 17 30
M  V30 32 1 18 31
M  V30 33 1 19 32
M  V30 34 1 19 33
M  V30 35 1 20 34
M  V30 36 1 20 35
M  V30 END BOND
M  V30 END CTAB
M  END
>  <Structure No>
7318

>  <LogS>
-5.08

>  <MMFF94 Energy>
-8.8097

$$$$
Compound 7319
Actelion Java MolfileCreator 2.0

  0  0  0  0  0  0              0 V3000
M  V30 BEGIN CTAB
M  V30 COUNTS 40 42 0 0 0
M  V30 BEGIN ATOM
M  V30 1 F -1.3712 -1.2905 -2.9055 0
M  V30 2 C -0.4165 -0.9345 -2.0105 0
M  V30 3 C -0.7504 -0.4548 -0.7314 0
M  V30 4 C 0.9259 -1.0856 -2.3585 0
M  V30 5 N 0.2491 -0.1691 0.1471 0
M  V30 6 N -2.1216 -0.2744 -0.32 0
M  V30 7 C 1.9386 -0.769 -1.4376 0
M  V30 8 C 1.5702 -0.3082 -0.1562 0
M  V30 9 C -2.4624 -0.355 1.1051 0
M  V30 10 C -3.1534 0.1609 -1.2711 0
M  V30 11 C 3.3005 -0.8999 -1.7586 0
M  V30 12 N 2.5319 -3.0E-4 0.7718 0
M  V30 13 C -3.9422 -0.7231 1.2684 0
M  V30 14 C -4.2409 0.9638 -0.5467 0
M  V30 15 O 3.6388 -1.3157 -2.9011 0
M  V30 16 C 4.2801 -0.5624 -0.8037 0
M  V30 17 C 3.8584 -0.1076 0.4579 0
M  V30 18 C 2.1609 0.5017 2.1067 0
M  V30 19 N -4.8526 0.2102 0.5673 0 CHG=1
M  V30 20 C 5.7352 -0.6717 -1.0961 0
M  V30 21 C 1.9527 2.0123 2.0699 0
M  V30 22 O 6.5863 -0.3667 -0.2185 0
M  V30 23 O 6.187 -1.1094 -2.3356 0 CHG=-1
M  V30 24 H 1.1688 -1.4556 -3.347 0
M  V30 25 H -2.2563 0.6217 1.594 0
M  V30 26 H -1.8477 -1.1373 1.6022 0
M  V30 27 H -3.6081 -0.7275 -1.7592 0
M  V30 28 H -2.7042 0.8138 -2.0512 0
M  V30 29 H -4.1912 -0.7528 2.3525 0
M  V30 30 H -4.0885 -1.7538 0.8729 0
M  V30 31 H -5.0258 1.2584 -1.2782 0
M  V30 32 H -3.7868 1.9032 -0.1575 0
M  V30 33 H 4.6025 0.1645 1.1981 0
M  V30 34 H 1.2346 0.0062 2.4715 0
M  V30 35 H 2.9525 0.2624 2.8511 0
M  V30 36 H -5.2312 0.8988 1.2593 0
M  V30 37 H -5.6669 -0.3343 0.1974 0
M  V30 38 H 1.6845 2.3772 3.0837 0
M  V30 39 H 2.8856 2.5175 1.7417 0
M  V30 40 H 1.1317 2.2706 1.3684 0
M  V30 END ATOM
M  V30 BEGIN BOND
M  V30 1 1 1 2
M  V30 2 2 2 3
M  V30 3 1 2 4
M  V30 4 1 3 5
M  V30 5 1 3 6
M  V30 6 2 4 7
M  V30 7 2 5 8
M  V30 8 1 6 9
M  V30 9 1 6 10
M  V30 10 1 7 11
M  V30 11 1 8 12
M  V30 12 1 9 13
M  V30 13 1 10 14
M  V30 14 2 11 15
M  V30 15 1 11 16
M  V30 16 1 12 17
M  V30 17 1 12 18
M  V30 18 1 13 19
M  V30 19 1 16 20
M  V30 20 1 18 21
M  V30 21 2 20 22
M  V30 22 1 20 23
M  V30 23 1 7 8
M  V30 24 1 14 19
M  V30 25 2 16 17
M  V30 26 1 4 24
M  V30 27 1 9 25
M  V30 28 1 9 26
M  V30 29 1 10 27
M  V30 30 1 10 28
M  V30 31 1 13 29
M  V30 32 1 13 30
M  V30 33 1 14 31
M  V30 34 1 14 32
M  V30 35 1 17 33
M  V30 36 1 18 34
M  V30 37 1 18 35
M  V30 38 1 19 36
M  V30 39 1 19 37
M  V30 40 1 21 38
M  V30 41 1 21 39
M  V30 42 1 21 40
M  V30 END BOND
M  V30 END CTAB
M  END
>  <Structure No>
7319

>  <LogS>
-2.92

>  <MMFF94 Energy>
63.175

$$$$
Compound 7320
Actelion Java MolfileCreator 2.0

  0  0  0  0  0  0              0 V3000
M  V30 BEGIN CTAB
M  V30 COUNTS 28 28 0 0 0
M  V30 BEGIN ATOM
M  V30 1 S -2.0462 -0.2556 -1.7902 0
M  V30 2 O -2.2088 1.1999 -2.1114 0
M  V30 3 O -2.4268 -1.0192 -3.0271 0
M  V30 4 N -0.4046 -0.6985 -1.3979 0
M  V30 5 N -3.1367 -0.7291 -0.509 0
M  V30 6 C 0.6308 -0.1175 -0.8513 0
M  V30 7 C -2.9038 0.0859 0.6869 0
M  V30 8 C -2.9305 -2.1491 -0.1975 0
M  V30 9 S 2.0435 -0.9885 -0.5661 0
M  V30 10 N 0.765 1.1756 -0.4174 0
M  V30 11 C 2.7829 0.3477 0.1222 0
M  V30 12 N 1.9644 1.4182 0.1157 0
M  V30 13 C -0.1683 2.2832 -0.5659 0
M  V30 14 S 4.4125 0.3687 0.7643 0
M  V30 15 O 4.771 1.7704 1.1703 0
M  V30 16 O 5.3737 -0.0972 -0.292 0
M  V30 17 N 4.512 -0.667 2.1446 0
M  V30 18 H -1.8457 0.0192 1.0231 0
M  V30 19 H -3.5633 -0.2508 1.5158 0
M  V30 20 H -3.172 1.142 0.4773 0
M  V30 21 H -1.9011 -2.3371 0.18 0
M  V30 22 H -3.6619 -2.4803 0.5707 0
M  V30 23 H -3.1043 -2.7685 -1.1028 0
M  V30 24 H -0.2722 2.5458 -1.638 0
M  V30 25 H 0.2259 3.1852 -0.0501 0
M  V30 26 H -1.1312 2.0479 -0.0849 0
M  V30 27 H 3.778 -0.3508 2.8172 0
M  V30 28 H 4.239 -1.6245 1.8288 0
M  V30 END ATOM
M  V30 BEGIN BOND
M  V30 1 2 1 2
M  V30 2 2 1 3
M  V30 3 1 1 4
M  V30 4 1 1 5
M  V30 5 2 4 6
M  V30 6 1 5 7
M  V30 7 1 5 8
M  V30 8 1 6 9
M  V30 9 1 6 10
M  V30 10 1 9 11
M  V30 11 1 10 12
M  V30 12 1 10 13
M  V30 13 1 11 14
M  V30 14 2 14 15
M  V30 15 2 14 16
M  V30 16 1 14 17
M  V30 17 2 11 12
M  V30 18 1 7 18
M  V30 19 1 7 19
M  V30 20 1 7 20
M  V30 21 1 8 21
M  V30 22 1 8 22
M  V30 23 1 8 23
M  V30 24 1 13 24
M  V30 25 1 13 25
M  V30 26 1 13 26
M  V30 27 1 17 27
M  V30 28 1 17 28
M  V30 END BOND
M  V30 END CTAB
M  END
>  <Structure No>
7320

>  <LogS>
-2.7

>  <MMFF94 Energy>
-122.74

$$$$
Compound 7321
Actelion Java MolfileCreator 2.0

  0  0  0  0  0  0              0 V3000
M  V30 BEGIN CTAB
M  V30 COUNTS 23 24 0 0 0
M  V30 BEGIN ATOM
M  V30 1 Cl -0.2697 -1.259 -1.889 0
M  V30 2 C -1.5285 -0.6126 -0.835 0
M  V30 3 C -2.796 -0.317 -1.3725 0
M  V30 4 C -1.3054 -0.4499 0.5532 0
M  V30 5 Cl -3.1244 -0.4908 -3.0923 0
M  V30 6 C -3.8299 0.1139 -0.5348 0
M  V30 7 O -0.0637 -0.7034 1.154 0
M  V30 8 C -2.3618 -0.0486 1.3795 0
M  V30 9 C -3.6166 0.2401 0.8389 0
M  V30 10 C 1.1809 -0.2881 0.6577 0
M  V30 11 Cl -4.9229 0.7658 1.8853 0
M  V30 12 C 1.3956 0.9956 0.1061 0
M  V30 13 C 2.2529 -1.184 0.7451 0
M  V30 14 Cl 0.1443 2.2328 0.0877 0
M  V30 15 C 2.6608 1.3356 -0.3868 0
M  V30 16 C 3.5154 -0.8405 0.2513 0
M  V30 17 C 3.7185 0.4232 -0.324 0
M  V30 18 Cl 4.8218 -2.0121 0.3641 0
M  V30 19 Cl 5.29 0.8957 -0.9563 0
M  V30 20 H -4.8038 0.3398 -0.9509 0
M  V30 21 H -2.198 0.0576 2.4446 0
M  V30 22 H 2.0958 -2.1617 1.1837 0
M  V30 23 H 2.8264 2.3191 -0.809 0
M  V30 END ATOM
M  V30 BEGIN BOND
M  V30 1 1 1 2
M  V30 2 2 2 3
M  V30 3 1 2 4
M  V30 4 1 3 5
M  V30 5 1 3 6
M  V30 6 1 4 7
M  V30 7 2 4 8
M  V30 8 2 6 9
M  V30 9 1 7 10
M  V30 10 1 9 11
M  V30 11 2 10 12
M  V30 12 1 10 13
M  V30 13 1 12 14
M  V30 14 1 12 15
M  V30 15 2 13 16
M  V30 16 2 15 17
M  V30 17 1 16 18
M  V30 18 1 17 19
M  V30 19 1 8 9
M  V30 20 1 16 17
M  V30 21 1 6 20
M  V30 22 1 8 21
M  V30 23 1 13 22
M  V30 24 1 15 23
M  V30 END BOND
M  V30 END CTAB
M  END
>  <Structure No>
7321

>  <LogS>
-8.41

>  <MMFF94 Energy>
46.559

$$$$
Compound 7322
Actelion Java MolfileCreator 2.0

  0  0  0  0  0  0              0 V3000
M  V30 BEGIN CTAB
M  V30 COUNTS 23 24 0 0 0
M  V30 BEGIN ATOM
M  V30 1 Cl 3.3315 1.7998 -2.1601 0
M  V30 2 C 2.8719 0.6325 -0.9192 0
M  V30 3 C 1.5635 0.1085 -0.8847 0
M  V30 4 C 3.8187 0.2158 0.0328 0
M  V30 5 Cl 0.4183 0.5532 -2.152 0
M  V30 6 C 1.2066 -0.8177 0.1238 0
M  V30 7 Cl 5.4614 0.8453 0.0271 0
M  V30 8 C 3.4662 -0.7264 1.0009 0
M  V30 9 O -0.0826 -1.3595 0.2344 0
M  V30 10 C 2.1725 -1.2441 1.0402 0
M  V30 11 C -1.2823 -0.6425 0.1143 0
M  V30 12 C -1.4798 0.6259 0.7117 0
M  V30 13 C -2.3256 -1.2342 -0.6072 0
M  V30 14 Cl -0.252 1.3438 1.7558 0
M  V30 15 C -2.7039 1.2965 0.5256 0
M  V30 16 C -3.5373 -0.5634 -0.7847 0
M  V30 17 Cl -2.9984 2.8792 1.2355 0
M  V30 18 C -3.722 0.7022 -0.2264 0
M  V30 19 Cl -4.8251 -1.3094 -1.7132 0
M  V30 20 H 4.1957 -1.0575 1.729 0
M  V30 21 H 1.9109 -1.9675 1.802 0
M  V30 22 H -2.1835 -2.2125 -1.0487 0
M  V30 23 H -4.6625 1.2202 -0.367 0
M  V30 END ATOM
M  V30 BEGIN BOND
M  V30 1 1 1 2
M  V30 2 2 2 3
M  V30 3 1 2 4
M  V30 4 1 3 5
M  V30 5 1 3 6
M  V30 6 1 4 7
M  V30 7 2 4 8
M  V30 8 1 6 9
M  V30 9 2 6 10
M  V30 10 1 9 11
M  V30 11 2 11 12
M  V30 12 1 11 13
M  V30 13 1 12 14
M  V30 14 1 12 15
M  V30 15 2 13 16
M  V30 16 1 15 17
M  V30 17 2 15 18
M  V30 18 1 16 19
M  V30 19 1 8 10
M  V30 20 1 16 18
M  V30 21 1 8 20
M  V30 22 1 10 21
M  V30 23 1 13 22
M  V30 24 1 18 23
M  V30 END BOND
M  V30 END CTAB
M  END
>  <Structure No>
7322

>  <LogS>
-8.55

>  <MMFF94 Energy>
58.563

$$$$
Compound 7323
Actelion Java MolfileCreator 2.0

  0  0  0  0  0  0              0 V3000
M  V30 BEGIN CTAB
M  V30 COUNTS 23 24 0 0 0
M  V30 BEGIN ATOM
M  V30 1 Cl 0.6294 -1.439 2.069 0
M  V30 2 C 1.6578 -0.6911 0.8475 0
M  V30 3 C 1.2974 0.5478 0.2789 0
M  V30 4 C 2.8637 -1.306 0.47 0
M  V30 5 O 0.0968 1.18 0.6279 0
M  V30 6 C 2.1606 1.1779 -0.6315 0
M  V30 7 Cl 3.3511 -2.8546 1.1471 0
M  V30 8 C 3.7061 -0.6821 -0.4541 0
M  V30 9 C -1.179 0.6523 0.3782 0
M  V30 10 Cl 1.7071 2.7358 -1.318 0
M  V30 11 C 3.3644 0.557 -1.0018 0
M  V30 12 C -1.3849 -0.424 -0.5054 0
M  V30 13 C -2.2799 1.2346 1.0151 0
M  V30 14 Cl 4.4631 1.3077 -2.152 0
M  V30 15 C -2.6748 -0.9196 -0.73 0
M  V30 16 C -3.5687 0.7429 0.7924 0
M  V30 17 Cl -2.8868 -2.2699 -1.8363 0
M  V30 18 C -3.7722 -0.3345 -0.0762 0
M  V30 19 Cl -5.4083 -0.9268 -0.3305 0
M  V30 20 H 4.6349 -1.159 -0.7419 0
M  V30 21 H -0.5495 -0.8746 -1.0249 0
M  V30 22 H -2.1349 2.0688 1.6898 0
M  V30 23 H -4.4099 1.2012 1.2968 0
M  V30 END ATOM
M  V30 BEGIN BOND
M  V30 1 1 1 2
M  V30 2 2 2 3
M  V30 3 1 2 4
M  V30 4 1 3 5
M  V30 5 1 3 6
M  V30 6 1 4 7
M  V30 7 2 4 8
M  V30 8 1 5 9
M  V30 9 1 6 10
M  V30 10 2 6 11
M  V30 11 2 9 12
M  V30 12 1 9 13
M  V30 13 1 11 14
M  V30 14 1 12 15
M  V30 15 2 13 16
M  V30 16 1 15 17
M  V30 17 2 15 18
M  V30 18 1 18 19
M  V30 19 1 8 11
M  V30 20 1 16 18
M  V30 21 1 8 20
M  V30 22 1 12 21
M  V30 23 1 13 22
M  V30 24 1 16 23
M  V30 END BOND
M  V30 END CTAB
M  END
>  <Structure No>
7323

>  <LogS>
-8.3

>  <MMFF94 Energy>
57.484

$$$$
Compound 7324
Actelion Java MolfileCreator 2.0

  0  0  0  0  0  0              0 V3000
M  V30 BEGIN CTAB
M  V30 COUNTS 23 24 0 0 0
M  V30 BEGIN ATOM
M  V30 1 Cl -1.2589 2.4289 2.0688 0
M  V30 2 C -1.9212 1.2734 0.9146 0
M  V30 3 C -3.1493 1.5226 0.2742 0
M  V30 4 C -1.1991 0.1046 0.625 0
M  V30 5 Cl -4.0502 2.9984 0.6234 0
M  V30 6 C -3.656 0.5893 -0.6466 0
M  V30 7 O 0.024 -0.1196 1.2702 0
M  V30 8 C -1.7257 -0.8348 -0.2811 0
M  V30 9 Cl -5.1872 0.8566 -1.4709 0
M  V30 10 C -2.9456 -0.5839 -0.9144 0
M  V30 11 C 1.2553 -0.2701 0.6123 0
M  V30 12 Cl -0.9089 -2.3609 -0.5933 0
M  V30 13 C 2.3452 -0.7999 1.3214 0
M  V30 14 C 1.432 0.1194 -0.7299 0
M  V30 15 Cl 2.1644 -1.2833 3.0008 0
M  V30 16 C 3.5862 -0.9556 0.6929 0
M  V30 17 C 2.6732 -0.0383 -1.3524 0
M  V30 18 C 3.7501 -0.5774 -0.643 0
M  V30 19 Cl 5.3072 -0.7741 -1.4267 0
M  V30 20 H -3.3486 -1.3089 -1.6107 0
M  V30 21 H 0.6159 0.552 -1.2933 0
M  V30 22 H 4.4221 -1.3697 1.2428 0
M  V30 23 H 2.7974 0.2622 -2.385 0
M  V30 END ATOM
M  V30 BEGIN BOND
M  V30 1 1 1 2
M  V30 2 2 2 3
M  V30 3 1 2 4
M  V30 4 1 3 5
M  V30 5 1 3 6
M  V30 6 1 4 7
M  V30 7 2 4 8
M  V30 8 1 6 9
M  V30 9 2 6 10
M  V30 10 1 7 11
M  V30 11 1 8 12
M  V30 12 2 11 13
M  V30 13 1 11 14
M  V30 14 1 13 15
M  V30 15 1 13 16
M  V30 16 2 14 17
M  V30 17 2 16 18
M  V30 18 1 18 19
M  V30 19 1 8 10
M  V30 20 1 17 18
M  V30 21 1 10 20
M  V30 22 1 14 21
M  V30 23 1 16 22
M  V30 24 1 17 23
M  V30 END BOND
M  V30 END CTAB
M  END
>  <Structure No>
7324

>  <LogS>
-8.47

>  <MMFF94 Energy>
53.654

$$$$
Compound 7325
Actelion Java MolfileCreator 2.0

  0  0  0  0  0  0              0 V3000
M  V30 BEGIN CTAB
M  V30 COUNTS 34 35 0 0 0
M  V30 BEGIN ATOM
M  V30 1 S -2.9572 -2.1351 -1.4778 0
M  V30 2 O -3.8979 -2.4586 -2.6035 0
M  V30 3 O -2.8845 -3.3127 -0.5463 0
M  V30 4 N -1.3792 -1.8251 -2.1198 0 CHG=-1
M  V30 5 C -3.5429 -0.7055 -0.6333 0
M  V30 6 C -0.2878 -1.395 -1.3039 0
M  V30 7 C -4.078 -0.8065 0.6597 0
M  V30 8 C -3.4603 0.5493 -1.2527 0
M  V30 9 N -0.4444 -1.2444 0.0396 0
M  V30 10 C 0.9485 -1.1205 -1.8918 0
M  V30 11 C -4.5246 0.3394 1.3257 0
M  V30 12 C -3.908 1.6934 -0.5844 0
M  V30 13 C 0.5724 -0.8308 0.8411 0
M  V30 14 C 2.0094 -0.6923 -1.0917 0
M  V30 15 C -4.4403 1.5888 0.7039 0
M  V30 16 C 1.8336 -0.5414 0.293 0
M  V30 17 C 2.9504 -0.0874 1.1495 0
M  V30 18 O 2.787 0.0225 2.3961 0
M  V30 19 O 4.1917 0.2121 0.5736 0
M  V30 20 C 5.3057 0.7046 1.3159 0
M  V30 21 C 5.1109 2.1749 1.6678 0
M  V30 22 H -4.1499 -1.7668 1.1533 0
M  V30 23 H -3.0478 0.6409 -2.2495 0
M  V30 24 H 1.0859 -1.2332 -2.9596 0
M  V30 25 H -4.9356 0.2591 2.3239 0
M  V30 26 H -3.8412 2.6609 -1.0648 0
M  V30 27 H 0.3924 -0.7282 1.9032 0
M  V30 28 H 2.9637 -0.4801 -1.5567 0
M  V30 29 H -4.7853 2.4751 1.2201 0
M  V30 30 H 6.2175 0.6064 0.6903 0
M  V30 31 H 5.4536 0.1025 2.2386 0
M  V30 32 H 4.2297 2.3015 2.3306 0
M  V30 33 H 4.96 2.7693 0.7419 0
M  V30 34 H 6.0104 2.5543 2.1971 0
M  V30 END ATOM
M  V30 BEGIN BOND
M  V30 1 2 1 2
M  V30 2 2 1 3
M  V30 3 1 1 4
M  V30 4 1 1 5
M  V30 5 1 4 6
M  V30 6 2 5 7
M  V30 7 1 5 8
M  V30 8 2 6 9
M  V30 9 1 6 10
M  V30 10 1 7 11
M  V30 11 2 8 12
M  V30 12 1 9 13
M  V30 13 2 10 14
M  V30 14 2 11 15
M  V30 15 2 13 16
M  V30 16 1 16 17
M  V30 17 2 17 18
M  V30 18 1 17 19
M  V30 19 1 19 20
M  V30 20 1 20 21
M  V30 21 1 12 15
M  V30 22 1 14 16
M  V30 23 1 7 22
M  V30 24 1 8 23
M  V30 25 1 10 24
M  V30 26 1 11 25
M  V30 27 1 12 26
M  V30 28 1 13 27
M  V30 29 1 14 28
M  V30 30 1 15 29
M  V30 31 1 20 30
M  V30 32 1 20 31
M  V30 33 1 21 32
M  V30 34 1 21 33
M  V30 35 1 21 34
M  V30 END BOND
M  V30 END CTAB
M  END
>  <Structure No>
7325

>  <LogS>
-4.24

>  <MMFF94 Energy>
62.715

$$$$
Compound 7326
Actelion Java MolfileCreator 2.0

  0  0  0  0  0  0              0 V3000
M  V30 BEGIN CTAB
M  V30 COUNTS 42 43 0 0 0
M  V30 BEGIN ATOM
M  V30 1 O 2.8713 1.5944 -1.9135 0
M  V30 2 C 2.5056 1.1001 -0.8118 0
M  V30 3 N 1.4977 1.7678 -0.0342 0
M  V30 4 C 3.1295 -0.1583 -0.3366 0
M  V30 5 C 0.6399 2.8157 -0.606 0 CFG=2
M  V30 6 C 4.3915 -0.5467 -0.8237 0
M  V30 7 C 2.4652 -0.9994 0.5773 0
M  V30 8 C -0.0485 3.6181 0.4741 0
M  V30 9 C -0.3839 2.2182 -1.594 0
M  V30 10 C 4.9821 -1.7382 -0.3919 0
M  V30 11 C 3.0601 -2.1908 1.0039 0
M  V30 12 O -0.4674 3.055 1.5216 0
M  V30 13 N -0.2871 5.0134 0.2878 0
M  V30 14 C -1.2369 1.1352 -0.977 0
M  V30 15 C 4.318 -2.5584 0.5223 0
M  V30 16 C -0.8126 -0.2025 -1.0027 0
M  V30 17 C -2.4447 1.4584 -0.3392 0
M  V30 18 C -1.5823 -1.201 -0.3998 0
M  V30 19 C -3.2148 0.459 0.262 0
M  V30 20 C -2.7999 -0.8772 0.2264 0
M  V30 21 O -3.6002 -1.8419 0.8565 0
M  V30 22 C -3.6663 -3.196 0.5044 0
M  V30 23 O -3.2627 -3.5966 -0.6206 0
M  V30 24 C -4.3321 -4.1572 1.4293 0
M  V30 25 H 1.3924 1.5079 0.9717 0
M  V30 26 H 1.2865 3.5214 -1.1726 0
M  V30 27 H 4.9256 0.075 -1.5312 0
M  V30 28 H 1.4781 -0.7561 0.9467 0
M  V30 29 H -1.0337 3.0303 -1.9892 0
M  V30 30 H 0.1565 1.8045 -2.4729 0
M  V30 31 H 5.9556 -2.0258 -0.7674 0
M  V30 32 H 2.5415 -2.8328 1.7041 0
M  V30 33 H 0.0145 5.4955 -0.5877 0
M  V30 34 H -0.7789 5.5662 1.0246 0
M  V30 35 H 4.7758 -3.4814 0.8538 0
M  V30 36 H 0.1206 -0.4719 -1.4805 0
M  V30 37 H -2.7861 2.4854 -0.3008 0
M  V30 38 H -1.2074 -2.215 -0.3986 0
M  V30 39 H -4.1419 0.7232 0.7547 0
M  V30 40 H -4.2323 -3.804 2.477 0
M  V30 41 H -3.8617 -5.1594 1.3428 0
M  V30 42 H -5.4087 -4.2335 1.171 0
M  V30 END ATOM
M  V30 BEGIN BOND
M  V30 1 2 1 2
M  V30 2 1 2 3
M  V30 3 1 2 4
M  V30 4 1 3 5
M  V30 5 2 4 6
M  V30 6 1 4 7
M  V30 7 1 5 8
M  V30 8 1 5 9
M  V30 9 1 6 10
M  V30 10 2 7 11
M  V30 11 2 8 12
M  V30 12 1 8 13
M  V30 13 1 9 14
M  V30 14 2 10 15
M  V30 15 2 14 16
M  V30 16 1 14 17
M  V30 17 1 16 18
M  V30 18 2 17 19
M  V30 19 2 18 20
M  V30 20 1 20 21
M  V30 21 1 21 22
M  V30 22 2 22 23
M  V30 23 1 22 24
M  V30 24 1 11 15
M  V30 25 1 19 20
M  V30 26 1 3 25
M  V30 27 1 5 26
M  V30 28 1 6 27
M  V30 29 1 7 28
M  V30 30 1 9 29
M  V30 31 1 9 30
M  V30 32 1 10 31
M  V30 33 1 11 32
M  V30 34 1 13 33
M  V30 35 1 13 34
M  V30 36 1 15 35
M  V30 37 1 16 36
M  V30 38 1 17 37
M  V30 39 1 18 38
M  V30 40 1 19 39
M  V30 41 1 24 40
M  V30 42 1 24 41
M  V30 43 1 24 42
M  V30 END BOND
M  V30 BEGIN COLLECTION
M  V30 MDLV30/STEABS ATOMS=(1 5)
M  V30 END COLLECTION
M  V30 END CTAB
M  END
>  <Structure No>
7326

>  <LogS>
-3.89

>  <MMFF94 Energy>
46.194

$$$$
Compound 7327
Actelion Java MolfileCreator 2.0

  0  0  0  0  0  0              0 V3000
M  V30 BEGIN CTAB
M  V30 COUNTS 23 24 0 0 0
M  V30 BEGIN ATOM
M  V30 1 Cl 2.0693 -2.7897 -1.0792 0
M  V30 2 C 2.318 -1.2605 -0.2399 0
M  V30 3 C 1.3138 -0.2774 -0.2843 0
M  V30 4 C 3.4975 -1.032 0.4896 0
M  V30 5 O 0.1436 -0.5487 -1.0098 0
M  V30 6 C 1.5206 0.9579 0.3715 0
M  V30 7 Cl 4.764 -2.2487 0.5841 0
M  V30 8 C 3.6783 0.1814 1.1581 0
M  V30 9 C -1.1623 -0.2704 -0.5802 0
M  V30 10 Cl 0.3741 2.287 0.2483 0
M  V30 11 C 2.6988 1.1725 1.0937 0
M  V30 12 C -1.5981 -0.5046 0.7438 0
M  V30 13 C -2.0687 0.2327 -1.521 0
M  V30 14 Cl -0.5696 -1.2682 1.9502 0
M  V30 15 C -2.9119 -0.187 1.1077 0
M  V30 16 C -3.3805 0.549 -1.1532 0
M  V30 17 C -3.8022 0.3447 0.1696 0
M  V30 18 Cl -4.4719 1.201 -2.3682 0
M  V30 19 Cl -5.4429 0.7279 0.6737 0
M  V30 20 H 4.5856 0.3632 1.72 0
M  V30 21 H 2.8634 2.1169 1.5972 0
M  V30 22 H -1.7428 0.3961 -2.5407 0
M  V30 23 H -3.2471 -0.367 2.1218 0
M  V30 END ATOM
M  V30 BEGIN BOND
M  V30 1 1 1 2
M  V30 2 2 2 3
M  V30 3 1 2 4
M  V30 4 1 3 5
M  V30 5 1 3 6
M  V30 6 1 4 7
M  V30 7 2 4 8
M  V30 8 1 5 9
M  V30 9 1 6 10
M  V30 10 2 6 11
M  V30 11 2 9 12
M  V30 12 1 9 13
M  V30 13 1 12 14
M  V30 14 1 12 15
M  V30 15 2 13 16
M  V30 16 2 15 17
M  V30 17 1 16 18
M  V30 18 1 17 19
M  V30 19 1 8 11
M  V30 20 1 16 17
M  V30 21 1 8 20
M  V30 22 1 11 21
M  V30 23 1 13 22
M  V30 24 1 15 23
M  V30 END BOND
M  V30 END CTAB
M  END
>  <Structure No>
7327

>  <LogS>
-7.88

>  <MMFF94 Energy>
62.213

$$$$
Compound 7328
Actelion Java MolfileCreator 2.0

  0  0  0  0  0  0              0 V3000
M  V30 BEGIN CTAB
M  V30 COUNTS 39 39 0 0 0
M  V30 BEGIN ATOM
M  V30 1 S 5.255 0.7377 1.4759 0
M  V30 2 O 4.1729 1.2111 2.4054 0
M  V30 3 O 6.3928 1.719 1.5053 0
M  V30 4 N 5.8253 -0.8148 1.978 0
M  V30 5 C 4.6201 0.6312 -0.1522 0
M  V30 6 S 3.2416 -0.2306 -0.5837 0
M  V30 7 N 5.195 1.2198 -1.2229 0
M  V30 8 C 3.4315 0.2373 -2.1936 0
M  V30 9 N 4.5392 0.992 -2.3596 0
M  V30 10 N 2.6317 -0.2003 -3.2971 0 CHG=-1
M  V30 11 C 1.284 -0.6888 -3.2527 0
M  V30 12 O 0.8747 -1.4135 -4.1977 0
M  V30 13 C 0.3141 -0.2934 -2.1729 0
M  V30 14 C -0.0575 -1.4934 -1.2955 0
M  V30 15 N -1.0793 -1.1146 -0.3217 0
M  V30 16 C -0.7898 -0.304 0.8283 0
M  V30 17 O 0.4026 -0.0046 1.1053 0
M  V30 18 C -1.8864 0.1614 1.7462 0
M  V30 19 N -3.122 0.4543 1.0057 0
M  V30 20 C -4.2901 -0.3926 1.1377 0
M  V30 21 C -3.1443 1.6169 0.11 0
M  V30 22 N -5.4841 0.0904 0.9552 0 CHG=1
M  V30 23 N -4.1458 -1.7826 1.4615 0
M  V30 24 H 6.154 -0.715 2.9644 0
M  V30 25 H 4.9973 -1.4515 2.0 0
M  V30 26 H 0.7244 0.5315 -1.5561 0
M  V30 27 H -0.6076 0.0972 -2.6565 0
M  V30 28 H 0.8354 -1.8929 -0.7698 0
M  V30 29 H -0.4608 -2.3055 -1.9396 0
M  V30 30 H -2.0513 -1.4626 -0.4752 0
M  V30 31 H -2.0551 -0.5986 2.5368 0
M  V30 32 H -1.5573 1.0849 2.2711 0
M  V30 33 H -3.5276 1.317 -0.8881 0
M  V30 34 H -2.1248 2.0383 -0.0248 0
M  V30 35 H -3.7867 2.4144 0.5371 0
M  V30 36 H -5.6495 1.0962 0.7349 0
M  V30 37 H -6.3259 -0.5218 1.0416 0
M  V30 38 H -3.2115 -2.2436 1.4995 0
M  V30 39 H -4.9868 -2.384 1.608 0
M  V30 END ATOM
M  V30 BEGIN BOND
M  V30 1 2 1 2
M  V30 2 2 1 3
M  V30 3 1 1 4
M  V30 4 1 1 5
M  V30 5 1 5 6
M  V30 6 2 5 7
M  V30 7 1 6 8
M  V30 8 1 7 9
M  V30 9 1 8 10
M  V30 10 1 10 11
M  V30 11 2 11 12
M  V30 12 1 11 13
M  V30 13 1 13 14
M  V30 14 1 14 15
M  V30 15 1 15 16
M  V30 16 2 16 17
M  V30 17 1 16 18
M  V30 18 1 18 19
M  V30 19 1 19 20
M  V30 20 1 19 21
M  V30 21 2 20 22
M  V30 22 1 20 23
M  V30 23 2 8 9
M  V30 24 1 4 24
M  V30 25 1 4 25
M  V30 26 1 13 26
M  V30 27 1 13 27
M  V30 28 1 14 28
M  V30 29 1 14 29
M  V30 30 1 15 30
M  V30 31 1 18 31
M  V30 32 1 18 32
M  V30 33 1 21 33
M  V30 34 1 21 34
M  V30 35 1 21 35
M  V30 36 1 22 36
M  V30 37 1 22 37
M  V30 38 1 23 38
M  V30 39 1 23 39
M  V30 END BOND
M  V30 END CTAB
M  END
>  <Structure No>
7328

>  <LogS>
-1.13

>  <MMFF94 Energy>
-263.32

$$$$
Compound 7329
Actelion Java MolfileCreator 2.0

  0  0  0  0  0  0              0 V3000
M  V30 BEGIN CTAB
M  V30 COUNTS 35 37 0 0 0
M  V30 BEGIN ATOM
M  V30 1 O -5.5806 -0.9549 0.6365 0
M  V30 2 C -4.4372 -0.4758 0.3916 0
M  V30 3 N -4.3252 0.7059 -0.3243 0
M  V30 4 N -3.3132 -1.1411 0.8345 0
M  V30 5 C -3.0828 1.1964 -0.657 0
M  V30 6 C -5.5368 1.393 -0.8012 0
M  V30 7 C -2.0979 -0.6291 0.4995 0
M  V30 8 C -3.4186 -2.4068 1.5721 0
M  V30 9 O -2.9497 2.2438 -1.3481 0
M  V30 10 C -1.9672 0.5037 -0.2205 0
M  V30 11 N -0.89 -1.1487 0.7887 0
M  V30 12 N -0.6692 0.7631 -0.4224 0
M  V30 13 C -0.0365 -0.2623 0.2091 0
M  V30 14 C 1.4269 -0.4441 0.2674 0
M  V30 15 C 2.298 0.4564 -0.2092 0
M  V30 16 C 3.7705 0.2861 -0.1448 0
M  V30 17 C 4.3832 -0.9794 -0.0351 0
M  V30 18 C 4.5855 1.4283 -0.2348 0
M  V30 19 C 5.7768 -1.0881 0.0091 0
M  V30 20 C 5.978 1.3132 -0.1891 0
M  V30 21 C 6.5731 0.0565 -0.064 0
M  V30 22 H -5.8473 0.9649 -1.7774 0
M  V30 23 H -5.3639 2.4838 -0.9205 0
M  V30 24 H -6.3693 1.2852 -0.0734 0
M  V30 25 H -2.5044 -2.6016 2.1726 0
M  V30 26 H -4.273 -2.3761 2.2817 0
M  V30 27 H -3.5666 -3.2427 0.8568 0
M  V30 28 H -0.2628 1.5613 -0.9578 0
M  V30 29 H 1.7828 -1.3412 0.7546 0
M  V30 30 H 1.9304 1.3855 -0.6228 0
M  V30 31 H 3.7983 -1.8881 -0.0081 0
M  V30 32 H 4.1428 2.4124 -0.3319 0
M  V30 33 H 6.2402 -2.0628 0.0928 0
M  V30 34 H 6.596 2.1996 -0.252 0
M  V30 35 H 7.6513 -0.0309 -0.0305 0
M  V30 END ATOM
M  V30 BEGIN BOND
M  V30 1 2 1 2
M  V30 2 1 2 3
M  V30 3 1 2 4
M  V30 4 1 3 5
M  V30 5 1 3 6
M  V30 6 1 4 7
M  V30 7 1 4 8
M  V30 8 2 5 9
M  V30 9 1 5 10
M  V30 10 1 7 11
M  V30 11 1 10 12
M  V30 12 2 11 13
M  V30 13 1 13 14
M  V30 14 2 14 15
M  V30 15 1 15 16
M  V30 16 2 16 17
M  V30 17 1 16 18
M  V30 18 1 17 19
M  V30 19 2 18 20
M  V30 20 2 19 21
M  V30 21 2 7 10
M  V30 22 1 12 13
M  V30 23 1 20 21
M  V30 24 1 6 22
M  V30 25 1 6 23
M  V30 26 1 6 24
M  V30 27 1 8 25
M  V30 28 1 8 26
M  V30 29 1 8 27
M  V30 30 1 12 28
M  V30 31 1 14 29
M  V30 32 1 15 30
M  V30 33 1 17 31
M  V30 34 1 18 32
M  V30 35 1 19 33
M  V30 36 1 20 34
M  V30 37 1 21 35
M  V30 END BOND
M  V30 END CTAB
M  END
>  <Structure No>
7329

>  <LogS>
-6.66

>  <MMFF94 Energy>
-111.92

$$$$
Compound 7330
Actelion Java MolfileCreator 2.0

  0  0  0  0  0  0              0 V3000
M  V30 BEGIN CTAB
M  V30 COUNTS 23 24 0 0 0
M  V30 BEGIN ATOM
M  V30 1 Cl -1.7986 -2.9689 0.2696 0
M  V30 2 C -2.1911 -1.2546 0.167 0
M  V30 3 C -1.2885 -0.3761 -0.453 0
M  V30 4 C -3.3862 -0.7607 0.7151 0
M  V30 5 O -0.0984 -0.8879 -0.9856 0
M  V30 6 C -1.6001 0.9948 -0.557 0
M  V30 7 Cl -4.5336 -1.8275 1.5143 0
M  V30 8 C -3.6797 0.6028 0.6312 0
M  V30 9 C 1.1868 -0.5234 -0.5539 0
M  V30 10 Cl -0.5219 2.0857 -1.4269 0
M  V30 11 C -2.7976 1.4806 -0.0045 0
M  V30 12 C 2.2935 -0.8708 -1.3447 0
M  V30 13 C 1.3966 0.1594 0.6602 0
M  V30 14 Cl -3.2252 3.1842 -0.1037 0
M  V30 15 Cl 2.07 -1.7337 -2.8584 0
M  V30 16 C 3.5871 -0.5251 -0.9371 0
M  V30 17 C 2.6904 0.5021 1.0622 0
M  V30 18 C 3.7859 0.1623 0.2638 0
M  V30 19 Cl 5.4088 0.5934 0.7709 0
M  V30 20 H -4.6018 0.9809 1.055 0
M  V30 21 H 0.5644 0.4209 1.3002 0
M  V30 22 H 4.4369 -0.791 -1.5532 0
M  V30 23 H 2.84 1.0289 1.9961 0
M  V30 END ATOM
M  V30 BEGIN BOND
M  V30 1 1 1 2
M  V30 2 2 2 3
M  V30 3 1 2 4
M  V30 4 1 3 5
M  V30 5 1 3 6
M  V30 6 1 4 7
M  V30 7 2 4 8
M  V30 8 1 5 9
M  V30 9 1 6 10
M  V30 10 2 6 11
M  V30 11 2 9 12
M  V30 12 1 9 13
M  V30 13 1 11 14
M  V30 14 1 12 15
M  V30 15 1 12 16
M  V30 16 2 13 17
M  V30 17 2 16 18
M  V30 18 1 18 19
M  V30 19 1 8 11
M  V30 20 1 17 18
M  V30 21 1 8 20
M  V30 22 1 13 21
M  V30 23 1 16 22
M  V30 24 1 17 23
M  V30 END BOND
M  V30 END CTAB
M  END
>  <Structure No>
7330

>  <LogS>
-8.42

>  <MMFF94 Energy>
54.35

$$$$
Compound 7331
Actelion Java MolfileCreator 2.0

  0  0  0  0  0  0              0 V3000
M  V30 BEGIN CTAB
M  V30 COUNTS 23 24 0 0 0
M  V30 BEGIN ATOM
M  V30 1 Cl -3.422 2.3405 1.4398 0
M  V30 2 C -2.9123 0.842 0.6602 0
M  V30 3 C -1.6448 0.7529 0.0497 0
M  V30 4 C -3.7793 -0.2646 0.639 0
M  V30 5 Cl -0.6122 2.1829 -0.0169 0
M  V30 6 C -1.2458 -0.459 -0.5614 0
M  V30 7 Cl -5.369 -0.1973 1.3898 0
M  V30 8 C -3.3897 -1.4438 0.001 0
M  V30 9 O 0.0092 -0.6256 -1.1648 0
M  V30 10 C -2.1359 -1.5363 -0.6008 0
M  V30 11 C 1.2348 -0.2006 -0.6284 0
M  V30 12 C 2.1697 0.3986 -1.4909 0
M  V30 13 C 1.5642 -0.3823 0.7351 0
M  V30 14 Cl 1.7684 0.6016 -3.1944 0
M  V30 15 C 3.4015 0.854 -0.9904 0
M  V30 16 Cl 0.5112 -1.2465 1.8488 0
M  V30 17 C 2.7936 0.0754 1.2197 0
M  V30 18 Cl 4.5837 1.6277 -2.0376 0
M  V30 19 C 3.7037 0.6956 0.3641 0
M  V30 20 H -4.059 -2.2943 -0.0264 0
M  V30 21 H -1.8436 -2.4598 -1.0845 0
M  V30 22 H 3.052 -0.0617 2.2621 0
M  V30 23 H 4.6519 1.0431 0.7542 0
M  V30 END ATOM
M  V30 BEGIN BOND
M  V30 1 1 1 2
M  V30 2 2 2 3
M  V30 3 1 2 4
M  V30 4 1 3 5
M  V30 5 1 3 6
M  V30 6 1 4 7
M  V30 7 2 4 8
M  V30 8 1 6 9
M  V30 9 2 6 10
M  V30 10 1 9 11
M  V30 11 2 11 12
M  V30 12 1 11 13
M  V30 13 1 12 14
M  V30 14 1 12 15
M  V30 15 1 13 16
M  V30 16 2 13 17
M  V30 17 1 15 18
M  V30 18 2 15 19
M  V30 19 1 8 10
M  V30 20 1 17 19
M  V30 21 1 8 20
M  V30 22 1 10 21
M  V30 23 1 17 22
M  V30 24 1 19 23
M  V30 END BOND
M  V30 END CTAB
M  END
>  <Structure No>
7331

>  <LogS>
-7.96

>  <MMFF94 Energy>
75.586

$$$$
Compound 7332
Actelion Java MolfileCreator 2.0

  0  0  0  0  0  0              0 V3000
M  V30 BEGIN CTAB
M  V30 COUNTS 23 23 0 0 0
M  V30 BEGIN ATOM
M  V30 1 S 3.2965 0.356 -1.0683 0
M  V30 2 O 4.3836 0.7901 -0.1259 0
M  V30 3 O 3.3095 1.2461 -2.2789 0
M  V30 4 N 3.5715 -1.2843 -1.5386 0
M  V30 5 C 1.7457 0.484 -0.2651 0
M  V30 6 S 0.2605 0.1815 -1.0016 0
M  V30 7 N 1.5994 0.8336 1.0315 0
M  V30 8 C -0.5504 0.5282 0.4404 0
M  V30 9 N 0.3252 0.8588 1.421 0
M  V30 10 N -1.8378 0.4929 0.6226 0
M  V30 11 C -0.0576 1.2094 2.7853 0
M  V30 12 S -3.0078 0.0717 -0.5887 0
M  V30 13 O -4.3609 0.5364 -0.1295 0
M  V30 14 O -2.6809 0.756 -1.8866 0
M  V30 15 C -3.0524 -1.6951 -0.8163 0
M  V30 16 F -3.2682 -2.3111 0.4016 0
M  V30 17 F -1.8535 -2.133 -1.3439 0
M  V30 18 F -4.0779 -2.0228 -1.6825 0
M  V30 19 H 2.8301 -1.532 -2.2317 0
M  V30 20 H 4.4817 -1.3067 -2.0505 0
M  V30 21 H 0.8428 1.4465 3.3911 0
M  V30 22 H -0.7228 2.0985 2.7723 0
M  V30 23 H -0.5905 0.3567 3.2567 0
M  V30 END ATOM
M  V30 BEGIN BOND
M  V30 1 2 1 2
M  V30 2 2 1 3
M  V30 3 1 1 4
M  V30 4 1 1 5
M  V30 5 1 5 6
M  V30 6 2 5 7
M  V30 7 1 6 8
M  V30 8 1 7 9
M  V30 9 2 8 10
M  V30 10 1 9 11
M  V30 11 1 10 12
M  V30 12 2 12 13
M  V30 13 2 12 14
M  V30 14 1 12 15
M  V30 15 1 15 16
M  V30 16 1 15 17
M  V30 17 1 15 18
M  V30 18 1 8 9
M  V30 19 1 4 19
M  V30 20 1 4 20
M  V30 21 1 11 21
M  V30 22 1 11 22
M  V30 23 1 11 23
M  V30 END BOND
M  V30 END CTAB
M  END
>  <Structure No>
7332

>  <LogS>
-1.16

>  <MMFF94 Energy>
114.14

$$$$
Compound 7333
Actelion Java MolfileCreator 2.0

  0  0  0  0  0  0              0 V3000
M  V30 BEGIN CTAB
M  V30 COUNTS 34 36 0 0 0
M  V30 BEGIN ATOM
M  V30 1 O -4.5476 -0.3186 1.3546 0
M  V30 2 C -3.4458 -0.2395 0.7409 0
M  V30 3 N -3.4181 -0.3486 -0.6393 0
M  V30 4 N -2.2834 -0.0505 1.456 0
M  V30 5 C -2.2169 -0.3391 -1.3114 0
M  V30 6 C -4.6721 -0.5566 -1.3829 0
M  V30 7 C -1.1078 -0.038 0.7717 0
M  V30 8 C -2.3002 0.0506 2.9215 0
M  V30 9 O -2.1713 -0.4679 -2.5654 0
M  V30 10 C -1.0486 -0.1807 -0.5724 0
M  V30 11 N 0.1253 0.1 1.2935 0
M  V30 12 N 0.2404 -0.152 -0.9622 0
M  V30 13 C 0.9291 0.0427 0.1992 0
M  V30 14 C 0.7695 -0.348 -2.3133 0
M  V30 15 C 2.3954 0.194 0.3038 0
M  V30 16 C 3.1015 1.0286 -0.5795 0
M  V30 17 C 3.0893 -0.4489 1.342 0
M  V30 18 C 4.4848 1.1844 -0.4482 0
M  V30 19 C 4.4729 -0.2909 1.4699 0
M  V30 20 C 5.1707 0.522 0.573 0
M  V30 21 H -5.5187 -0.0262 -0.897 0
M  V30 22 H -4.6026 -0.1529 -2.4156 0
M  V30 23 H -4.9004 -1.642 -1.431 0
M  V30 24 H -3.1851 0.6283 3.2647 0
M  V30 25 H -2.3334 -0.967 3.3641 0
M  V30 26 H -1.4006 0.581 3.3005 0
M  V30 27 H 1.8377 -0.6436 -2.2818 0
M  V30 28 H 0.6587 0.5886 -2.8981 0
M  V30 29 H 0.2277 -1.1717 -2.8216 0
M  V30 30 H 2.5823 1.5743 -1.3571 0
M  V30 31 H 2.5617 -1.0811 2.0459 0
M  V30 32 H 5.024 1.8259 -1.1333 0
M  V30 33 H 5.0036 -0.797 2.2658 0
M  V30 34 H 6.2412 0.645 0.6744 0
M  V30 END ATOM
M  V30 BEGIN BOND
M  V30 1 2 1 2
M  V30 2 1 2 3
M  V30 3 1 2 4
M  V30 4 1 3 5
M  V30 5 1 3 6
M  V30 6 1 4 7
M  V30 7 1 4 8
M  V30 8 2 5 9
M  V30 9 1 5 10
M  V30 10 1 7 11
M  V30 11 1 10 12
M  V30 12 2 11 13
M  V30 13 1 12 14
M  V30 14 1 13 15
M  V30 15 2 15 16
M  V30 16 1 15 17
M  V30 17 1 16 18
M  V30 18 2 17 19
M  V30 19 2 18 20
M  V30 20 2 7 10
M  V30 21 1 12 13
M  V30 22 1 19 20
M  V30 23 1 6 21
M  V30 24 1 6 22
M  V30 25 1 6 23
M  V30 26 1 8 24
M  V30 27 1 8 25
M  V30 28 1 8 26
M  V30 29 1 14 27
M  V30 30 1 14 28
M  V30 31 1 14 29
M  V30 32 1 16 30
M  V30 33 1 17 31
M  V30 34 1 18 32
M  V30 35 1 19 33
M  V30 36 1 20 34
M  V30 END BOND
M  V30 END CTAB
M  END
>  <Structure No>
7333

>  <LogS>
-3.31

>  <MMFF94 Energy>
-95.365

$$$$
Compound 7334
Actelion Java MolfileCreator 2.0

  0  0  0  0  0  0              0 V3000
M  V30 BEGIN CTAB
M  V30 COUNTS 51 53 0 0 0
M  V30 BEGIN ATOM
M  V30 1 O 5.0577 -3.8517 -1.1222 0
M  V30 2 N 4.9416 -2.9791 -0.2374 0 CHG=1
M  V30 3 O 4.8655 -3.357 1.0822 0 CHG=-1
M  V30 4 C 4.8788 -1.5944 -0.5854 0
M  V30 5 O 4.7555 -0.6296 0.2943 0
M  V30 6 C 4.9334 -1.0811 -1.8659 0
M  V30 7 C 4.7172 0.513 -0.3513 0
M  V30 8 C 4.8325 0.2859 -1.7131 0
M  V30 9 C 4.5875 1.8396 0.2854 0
M  V30 10 O 4.8529 2.8608 -0.4063 0
M  V30 11 N 4.1724 2.0054 1.662 0
M  V30 12 C 3.3863 0.9808 2.373 0
M  V30 13 C 4.4747 3.277 2.3288 0
M  V30 14 C 2.1021 0.6776 1.6424 0
M  V30 15 C 1.7642 -0.6438 1.3113 0
M  V30 16 C 1.2154 1.7147 1.3135 0
M  V30 17 C 0.5733 -0.9189 0.6338 0
M  V30 18 C 0.0235 1.4388 0.6371 0
M  V30 19 C -0.3044 0.1148 0.289 0
M  V30 20 O -1.485 -0.2139 -0.3925 0
M  V30 21 C -2.4713 0.7317 -0.7997 0
M  V30 22 C -3.6112 0.01 -1.5152 0
M  V30 23 N -4.2204 -1.0028 -0.6217 0
M  V30 24 C -4.688 -2.199 -1.3504 0
M  V30 25 C -5.3024 -0.4476 0.2213 0
M  V30 26 C -6.0126 -1.9275 -2.0756 0
M  V30 27 C -6.6261 -0.3027 -0.5543 0
M  V30 28 O -7.0043 -1.5257 -1.1531 0
M  V30 29 H 5.0326 -1.629 -2.7934 0
M  V30 30 H 4.8365 1.026 -2.5025 0
M  V30 31 H 4.0038 0.0702 2.516 0
M  V30 32 H 3.1164 1.3209 3.3955 0
M  V30 33 H 3.9574 4.1086 1.805 0
M  V30 34 H 4.1467 3.2788 3.3894 0
M  V30 35 H 5.5703 3.4576 2.3092 0
M  V30 36 H 2.4228 -1.4626 1.5724 0
M  V30 37 H 1.4503 2.7387 1.5764 0
M  V30 38 H 0.3296 -1.942 0.3768 0
M  V30 39 H -0.6343 2.2609 0.3906 0
M  V30 40 H -2.0163 1.4665 -1.4987 0
M  V30 41 H -2.8617 1.2751 0.0868 0
M  V30 42 H -3.1802 -0.4607 -2.4267 0
M  V30 43 H -4.3567 0.7571 -1.8626 0
M  V30 44 H -4.8406 -3.0262 -0.623 0
M  V30 45 H -3.9213 -2.5537 -2.0735 0
M  V30 46 H -5.4674 -1.1296 1.0837 0
M  V30 47 H -5.0121 0.5376 0.6447 0
M  V30 48 H -5.8785 -1.1688 -2.8798 0
M  V30 49 H -6.3479 -2.8661 -2.5648 0
M  V30 50 H -6.5668 0.5081 -1.3132 0
M  V30 51 H -7.4204 -0.0058 0.1625 0
M  V30 END ATOM
M  V30 BEGIN BOND
M  V30 1 2 1 2
M  V30 2 1 2 3
M  V30 3 1 2 4
M  V30 4 1 4 5
M  V30 5 2 4 6
M  V30 6 1 5 7
M  V30 7 1 6 8
M  V30 8 1 7 9
M  V30 9 2 9 10
M  V30 10 1 9 11
M  V30 11 1 11 12
M  V30 12 1 11 13
M  V30 13 1 12 14
M  V30 14 2 14 15
M  V30 15 1 14 16
M  V30 16 1 15 17
M  V30 17 2 16 18
M  V30 18 2 17 19
M  V30 19 1 19 20
M  V30 20 1 20 21
M  V30 21 1 21 22
M  V30 22 1 22 23
M  V30 23 1 23 24
M  V30 24 1 23 25
M  V30 25 1 24 26
M  V30 26 1 25 27
M  V30 27 1 26 28
M  V30 28 2 7 8
M  V30 29 1 18 19
M  V30 30 1 27 28
M  V30 31 1 6 29
M  V30 32 1 8 30
M  V30 33 1 12 31
M  V30 34 1 12 32
M  V30 35 1 13 33
M  V30 36 1 13 34
M  V30 37 1 13 35
M  V30 38 1 15 36
M  V30 39 1 16 37
M  V30 40 1 17 38
M  V30 41 1 18 39
M  V30 42 1 21 40
M  V30 43 1 21 41
M  V30 44 1 22 42
M  V30 45 1 22 43
M  V30 46 1 24 44
M  V30 47 1 24 45
M  V30 48 1 25 46
M  V30 49 1 25 47
M  V30 50 1 26 48
M  V30 51 1 26 49
M  V30 52 1 27 50
M  V30 53 1 27 51
M  V30 END BOND
M  V30 END CTAB
M  END
>  <Structure No>
7334

>  <LogS>
-2.29

>  <MMFF94 Energy>
149.59

$$$$
Compound 7335
Actelion Java MolfileCreator 2.0

  0  0  0  0  0  0              0 V3000
M  V30 BEGIN CTAB
M  V30 COUNTS 35 36 0 0 0
M  V30 BEGIN ATOM
M  V30 1 S -1.3787 0.4053 2.7589 0
M  V30 2 O -0.6634 -0.7598 3.3837 0
M  V30 3 O -2.2399 1.0678 3.7969 0
M  V30 4 N -0.2038 1.5385 2.1765 0
M  V30 5 C -2.3975 -0.1349 1.4286 0
M  V30 6 C 0.7021 1.2096 1.1163 0
M  V30 7 C -2.7944 -1.476 1.3354 0
M  V30 8 C -2.8133 0.7797 0.4521 0
M  V30 9 N 0.685 -0.0273 0.5553 0
M  V30 10 C 1.6085 2.1592 0.6467 0
M  V30 11 C -3.5942 -1.8996 0.2696 0
M  V30 12 C -3.6125 0.3561 -0.6139 0
M  V30 13 C 1.5266 -0.3624 -0.4565 0
M  V30 14 C 2.4694 1.8075 -0.3906 0
M  V30 15 C -4.0062 -0.9859 -0.7108 0
M  V30 16 O 1.4686 -1.5258 -0.9382 0
M  V30 17 N 2.4224 0.5571 -0.9413 0
M  V30 18 N -4.8229 -1.4196 -1.8014 0
M  V30 19 C 3.364 0.2216 -2.0221 0
M  V30 20 C 4.7271 -0.0777 -1.4623 0
M  V30 21 C 4.9658 -1.1786 -0.7447 0
M  V30 22 H -0.1794 2.4898 2.6071 0
M  V30 23 H -2.4856 -2.1937 2.0843 0
M  V30 24 H -2.5163 1.8191 0.5143 0
M  V30 25 H 1.6482 3.1526 1.0754 0
M  V30 26 H -3.8925 -2.9387 0.2078 0
M  V30 27 H -3.9244 1.0727 -1.3634 0
M  V30 28 H 3.1789 2.5423 -0.7531 0
M  V30 29 H -5.1349 -0.7463 -2.5365 0
M  V30 30 H -5.1212 -2.4172 -1.8821 0
M  V30 31 H 3.4453 1.0798 -2.725 0
M  V30 32 H 3.007 -0.6399 -2.6273 0
M  V30 33 H 5.5395 0.6174 -1.6524 0
M  V30 34 H 5.961 -1.3672 -0.3559 0
M  V30 35 H 4.1784 -1.8974 -0.5423 0
M  V30 END ATOM
M  V30 BEGIN BOND
M  V30 1 2 1 2
M  V30 2 2 1 3
M  V30 3 1 1 4
M  V30 4 1 1 5
M  V30 5 1 4 6
M  V30 6 2 5 7
M  V30 7 1 5 8
M  V30 8 2 6 9
M  V30 9 1 6 10
M  V30 10 1 7 11
M  V30 11 2 8 12
M  V30 12 1 9 13
M  V30 13 2 10 14
M  V30 14 2 11 15
M  V30 15 2 13 16
M  V30 16 1 13 17
M  V30 17 1 15 18
M  V30 18 1 17 19
M  V30 19 1 19 20
M  V30 20 2 20 21
M  V30 21 1 12 15
M  V30 22 1 14 17
M  V30 23 1 4 22
M  V30 24 1 7 23
M  V30 25 1 8 24
M  V30 26 1 10 25
M  V30 27 1 11 26
M  V30 28 1 12 27
M  V30 29 1 14 28
M  V30 30 1 18 29
M  V30 31 1 18 30
M  V30 32 1 19 31
M  V30 33 1 19 32
M  V30 34 1 20 33
M  V30 35 1 21 34
M  V30 36 1 21 35
M  V30 END BOND
M  V30 END CTAB
M  END
>  <Structure No>
7335

>  <LogS>
-3.11

>  <MMFF94 Energy>
-134.4

$$$$
Compound 7336
Actelion Java MolfileCreator 2.0

  0  0  0  0  0  0              0 V3000
M  V30 BEGIN CTAB
M  V30 COUNTS 29 30 0 0 0
M  V30 BEGIN ATOM
M  V30 1 S 1.5119 -2.4367 -1.68 0
M  V30 2 O 1.1604 -2.2555 -3.1303 0
M  V30 3 O 1.4575 -3.899 -1.3413 0
M  V30 4 N 3.1191 -1.8486 -1.4129 0 CHG=-1
M  V30 5 C 0.375 -1.5679 -0.654 0
M  V30 6 C 3.499 -0.4877 -1.6266 0
M  V30 7 C -0.8916 -1.215 -1.1371 0
M  V30 8 C 0.7396 -1.216 0.6511 0
M  V30 9 S 2.4843 0.7393 -2.1753 0
M  V30 10 N 4.7497 -0.0384 -1.3969 0
M  V30 11 C -1.787 -0.5164 -0.3214 0
M  V30 12 C -0.1538 -0.5161 1.4668 0
M  V30 13 C 3.6982 1.9024 -2.1177 0
M  V30 14 C 4.8629 1.2891 -1.6691 0
M  V30 15 C -1.4307 -0.1754 0.9959 0
M  V30 16 N -2.3217 0.5648 1.848 0
M  V30 17 C -3.7514 0.4325 1.8292 0
M  V30 18 O -4.3012 -0.5264 1.2232 0
M  V30 19 C -4.5957 1.3821 2.6149 0
M  V30 20 H -1.1845 -1.4707 -2.1472 0
M  V30 21 H 1.717 -1.4788 1.0357 0
M  V30 22 H -2.7438 -0.2218 -0.7312 0
M  V30 23 H 0.1449 -0.2467 2.472 0
M  V30 24 H 3.5937 2.9458 -2.3826 0
M  V30 25 H 5.7951 1.8222 -1.5419 0
M  V30 26 H -1.902 1.1772 2.5839 0
M  V30 27 H -4.6033 1.0747 3.6811 0
M  V30 28 H -5.6371 1.385 2.228 0
M  V30 29 H -4.1839 2.4101 2.5336 0
M  V30 END ATOM
M  V30 BEGIN BOND
M  V30 1 2 1 2
M  V30 2 2 1 3
M  V30 3 1 1 4
M  V30 4 1 1 5
M  V30 5 1 4 6
M  V30 6 2 5 7
M  V30 7 1 5 8
M  V30 8 1 6 9
M  V30 9 2 6 10
M  V30 10 1 7 11
M  V30 11 2 8 12
M  V30 12 1 9 13
M  V30 13 1 10 14
M  V30 14 2 11 15
M  V30 15 1 15 16
M  V30 16 1 16 17
M  V30 17 2 17 18
M  V30 18 1 17 19
M  V30 19 1 12 15
M  V30 20 2 13 14
M  V30 21 1 7 20
M  V30 22 1 8 21
M  V30 23 1 11 22
M  V30 24 1 12 23
M  V30 25 1 13 24
M  V30 26 1 14 25
M  V30 27 1 16 26
M  V30 28 1 19 27
M  V30 29 1 19 28
M  V30 30 1 19 29
M  V30 END BOND
M  V30 END CTAB
M  END
>  <Structure No>
7336

>  <LogS>
-3.43

>  <MMFF94 Energy>
39.262

$$$$
Compound 7337
Actelion Java MolfileCreator 2.0

  0  0  0  0  0  0              0 V3000
M  V30 BEGIN CTAB
M  V30 COUNTS 37 38 0 0 0
M  V30 BEGIN ATOM
M  V30 1 S 1.5392 -2.7557 -1.215 0
M  V30 2 O 2.4717 -3.9322 -1.1559 0
M  V30 3 O 0.8657 -2.7281 -2.5585 0
M  V30 4 N 0.3297 -2.9163 0.0157 0
M  V30 5 C 2.4622 -1.279 -0.955 0
M  V30 6 C -0.6385 -1.8892 0.2618 0
M  V30 7 C 2.8157 -0.8972 0.3459 0
M  V30 8 C 2.8425 -0.477 -2.0397 0
M  V30 9 N -0.6593 -0.7664 -0.4999 0
M  V30 10 C -1.5643 -2.0281 1.2919 0
M  V30 11 C 3.5362 0.281 0.5622 0
M  V30 12 C 3.5639 0.701 -1.8237 0
M  V30 13 C -1.5574 0.2289 -0.2837 0
M  V30 14 C -2.4838 -1.0047 1.5097 0
M  V30 15 C 3.913 1.0865 -0.5216 0
M  V30 16 O -1.5205 1.2453 -1.0264 0
M  V30 17 N -2.4839 0.1208 0.729 0
M  V30 18 N 4.6493 2.2923 -0.3006 0
M  V30 19 C -3.4848 1.1785 1.0112 0
M  V30 20 C -2.8137 2.4917 1.4353 0
M  V30 21 C -4.441 1.3813 -0.1716 0
M  V30 22 H 0.3325 -3.7814 0.6011 0
M  V30 23 H 2.5302 -1.5092 1.1921 0
M  V30 24 H 2.5811 -0.7603 -3.0509 0
M  V30 25 H -1.573 -2.9113 1.9181 0
M  V30 26 H 3.8001 0.5662 1.5728 0
M  V30 27 H 3.85 1.3132 -2.6697 0
M  V30 28 H -3.1986 -1.1233 2.3155 0
M  V30 29 H 4.9349 2.8985 -1.1016 0
M  V30 30 H 4.9138 2.5878 0.6655 0
M  V30 31 H -4.125 0.8733 1.8705 0
M  V30 32 H -3.5805 3.2033 1.8095 0
M  V30 33 H -2.281 2.9733 0.5904 0
M  V30 34 H -2.0893 2.2971 2.2543 0
M  V30 35 H -3.9309 1.8492 -1.0378 0
M  V30 36 H -5.2809 2.0423 0.1317 0
M  V30 37 H -4.8629 0.4035 -0.4865 0
M  V30 END ATOM
M  V30 BEGIN BOND
M  V30 1 2 1 2
M  V30 2 2 1 3
M  V30 3 1 1 4
M  V30 4 1 1 5
M  V30 5 1 4 6
M  V30 6 2 5 7
M  V30 7 1 5 8
M  V30 8 2 6 9
M  V30 9 1 6 10
M  V30 10 1 7 11
M  V30 11 2 8 12
M  V30 12 1 9 13
M  V30 13 2 10 14
M  V30 14 2 11 15
M  V30 15 2 13 16
M  V30 16 1 13 17
M  V30 17 1 15 18
M  V30 18 1 17 19
M  V30 19 1 19 20
M  V30 20 1 19 21
M  V30 21 1 12 15
M  V30 22 1 14 17
M  V30 23 1 4 22
M  V30 24 1 7 23
M  V30 25 1 8 24
M  V30 26 1 10 25
M  V30 27 1 11 26
M  V30 28 1 12 27
M  V30 29 1 14 28
M  V30 30 1 18 29
M  V30 31 1 18 30
M  V30 32 1 19 31
M  V30 33 1 20 32
M  V30 34 1 20 33
M  V30 35 1 20 34
M  V30 36 1 21 35
M  V30 37 1 21 36
M  V30 38 1 21 37
M  V30 END BOND
M  V30 END CTAB
M  END
>  <Structure No>
7337

>  <LogS>
-3.17

>  <MMFF94 Energy>
-139.22

$$$$
Compound 7338
Actelion Java MolfileCreator 2.0

  0  0  0  0  0  0              0 V3000
M  V30 BEGIN CTAB
M  V30 COUNTS 46 46 0 0 0
M  V30 BEGIN ATOM
M  V30 1 O 3.2874 -1.0414 4.9744 0
M  V30 2 N 2.3102 -1.378 4.2745 0 CHG=1
M  V30 3 O 1.4673 -2.3553 4.753 0 CHG=-1
M  V30 4 C 2.0715 -0.7771 2.9837 0
M  V30 5 C 2.8427 0.3124 2.5175 0
M  V30 6 C 1.0507 -1.2853 2.161 0
M  V30 7 O 3.8503 0.8614 3.3046 0 CHG=-1
M  V30 8 C 2.6101 0.8582 1.2472 0
M  V30 9 C 0.7771 -0.71 0.9102 0
M  V30 10 O 3.4033 1.9372 0.8256 0
M  V30 11 C 1.5715 0.3465 0.4517 0
M  V30 12 C -0.2877 -1.242 0.0283 0
M  V30 13 C 3.7381 2.2264 -0.5035 0
M  V30 14 C -1.5479 -1.5112 0.4209 0
M  V30 15 O 3.5972 1.3581 -1.4079 0
M  V30 16 N 4.2923 3.5091 -0.8172 0
M  V30 17 C -1.9859 -1.2692 1.7769 0
M  V30 18 C -2.5197 -2.0622 -0.5507 0
M  V30 19 C 4.6918 3.8891 -2.1706 0
M  V30 20 N -2.3378 -1.076 2.8626 0
M  V30 21 O -2.1138 -2.8638 -1.4367 0
M  V30 22 N -3.92 -1.7164 -0.4991 0
M  V30 23 C 6.0107 3.2237 -2.5481 0
M  V30 24 C -4.3499 -0.3258 -0.2743 0
M  V30 25 C -4.9232 -2.7346 -0.8364 0
M  V30 26 C -3.7818 0.6058 -1.3426 0
M  V30 27 C -5.3241 -2.6352 -2.3049 0
M  V30 28 H 0.4772 -2.1436 2.4861 0
M  V30 29 H 1.3481 0.7954 -0.5073 0
M  V30 30 H -0.0369 -1.3455 -1.0216 0
M  V30 31 H 4.3545 4.2234 -0.0571 0
M  V30 32 H 3.8982 3.607 -2.8959 0
M  V30 33 H 4.8232 4.9918 -2.2176 0
M  V30 34 H 5.901 2.1192 -2.56 0
M  V30 35 H 6.8008 3.5043 -1.8195 0
M  V30 36 H 6.3209 3.56 -3.5598 0
M  V30 37 H -5.4591 -0.2527 -0.304 0
M  V30 38 H -4.0334 0.021 0.7294 0
M  V30 39 H -4.523 -3.7521 -0.6327 0
M  V30 40 H -5.8237 -2.6058 -0.1973 0
M  V30 41 H -4.1842 1.6301 -1.1952 0
M  V30 42 H -4.0699 0.2504 -2.3543 0
M  V30 43 H -2.6747 0.6498 -1.2721 0
M  V30 44 H -4.4324 -2.7482 -2.9566 0
M  V30 45 H -6.0491 -3.4402 -2.5479 0
M  V30 46 H -5.8031 -1.6543 -2.5076 0
M  V30 END ATOM
M  V30 BEGIN BOND
M  V30 1 2 1 2
M  V30 2 1 2 3
M  V30 3 1 2 4
M  V30 4 2 4 5
M  V30 5 1 4 6
M  V30 6 1 5 7
M  V30 7 1 5 8
M  V30 8 2 6 9
M  V30 9 1 8 10
M  V30 10 2 8 11
M  V30 11 1 9 12
M  V30 12 1 10 13
M  V30 13 2 12 14
M  V30 14 2 13 15
M  V30 15 1 13 16
M  V30 16 1 14 17
M  V30 17 1 14 18
M  V30 18 1 16 19
M  V30 19 3 17 20
M  V30 20 2 18 21
M  V30 21 1 18 22
M  V30 22 1 19 23
M  V30 23 1 22 24
M  V30 24 1 22 25
M  V30 25 1 24 26
M  V30 26 1 25 27
M  V30 27 1 9 11
M  V30 28 1 6 28
M  V30 29 1 11 29
M  V30 30 1 12 30
M  V30 31 1 16 31
M  V30 32 1 19 32
M  V30 33 1 19 33
M  V30 34 1 23 34
M  V30 35 1 23 35
M  V30 36 1 23 36
M  V30 37 1 24 37
M  V30 38 1 24 38
M  V30 39 1 25 39
M  V30 40 1 25 40
M  V30 41 1 26 41
M  V30 42 1 26 42
M  V30 43 1 26 43
M  V30 44 1 27 44
M  V30 45 1 27 45
M  V30 46 1 27 46
M  V30 END BOND
M  V30 END CTAB
M  END
>  <Structure No>
7338

>  <LogS>
-3.18

>  <MMFF94 Energy>
22.601

$$$$
Compound 7339
Actelion Java MolfileCreator 2.0

  0  0  0  0  0  0              0 V3000
M  V30 BEGIN CTAB
M  V30 COUNTS 50 51 0 0 0
M  V30 BEGIN ATOM
M  V30 1 S 2.3357 -0.5634 -4.5948 0
M  V30 2 C 0.9316 -1.3954 -3.8523 0
M  V30 3 C 1.5334 1.079 -4.6394 0
M  V30 4 N -0.2179 -1.6031 -4.5607 0
M  V30 5 C 0.9632 -1.8275 -2.5341 0
M  V30 6 O 1.0043 1.4438 -3.3655 0
M  V30 7 C -1.3158 -2.1902 -3.9831 0
M  V30 8 N 1.9628 -1.7592 -1.6361 0
M  V30 9 C -0.1305 -2.4008 -1.9856 0
M  V30 10 C 1.7864 1.9186 -2.3087 0
M  V30 11 N -1.2815 -2.5898 -2.6755 0
M  V30 12 C 1.4078 -2.3212 -0.5268 0
M  V30 13 N 0.1256 -2.7265 -0.7142 0
M  V30 14 O 3.0391 2.0112 -2.4283 0
M  V30 15 C 1.0954 2.4208 -1.0743 0
M  V30 16 C -0.8113 -3.2092 0.2952 0
M  V30 17 C 1.9415 2.3156 0.2032 0
M  V30 18 O -1.454 -2.1007 0.9193 0
M  V30 19 C 2.1932 0.8589 0.6107 0
M  V30 20 C -0.8434 -1.3181 1.9059 0
M  V30 21 C 2.8603 0.7729 1.9803 0
M  V30 22 O 0.2278 -1.6964 2.4536 0
M  V30 23 C -1.4418 0.0017 2.2855 0
M  V30 24 C -2.9389 -0.1372 2.5972 0
M  V30 25 C -3.592 1.2088 2.9445 0
M  V30 26 C -3.2169 1.7057 4.3411 0
M  V30 27 H 2.2601 1.8428 -4.9887 0
M  V30 28 H 0.7011 1.0438 -5.3735 0
M  V30 29 H -2.2171 -2.3313 -4.564 0
M  V30 30 H 1.9334 -2.4101 0.4152 0
M  V30 31 H 0.8343 3.488 -1.2372 0
M  V30 32 H 0.1432 1.8642 -0.9352 0
M  V30 33 H -0.2831 -3.8338 1.0478 0
M  V30 34 H -1.5829 -3.845 -0.1883 0
M  V30 35 H 2.9095 2.8457 0.0658 0
M  V30 36 H 1.39 2.8299 1.0214 0
M  V30 37 H 2.8524 0.3692 -0.138 0
M  V30 38 H 1.2288 0.3096 0.6495 0
M  V30 39 H 3.0434 -0.2927 2.2391 0
M  V30 40 H 2.2014 1.2148 2.7575 0
M  V30 41 H 3.8321 1.3112 1.9707 0
M  V30 42 H -0.9041 0.4051 3.1699 0
M  V30 43 H -1.2983 0.7078 1.44 0
M  V30 44 H -3.4547 -0.5395 1.6972 0
M  V30 45 H -3.0922 -0.8621 3.4281 0
M  V30 46 H -3.3133 1.9775 2.1896 0
M  V30 47 H -4.6962 1.0852 2.906 0
M  V30 48 H -3.4729 0.9432 5.1065 0
M  V30 49 H -3.7843 2.6345 4.5628 0
M  V30 50 H -2.1334 1.9413 4.4032 0
M  V30 END ATOM
M  V30 BEGIN BOND
M  V30 1 1 1 2
M  V30 2 1 1 3
M  V30 3 2 2 4
M  V30 4 1 2 5
M  V30 5 1 3 6
M  V30 6 1 4 7
M  V30 7 1 5 8
M  V30 8 2 5 9
M  V30 9 1 6 10
M  V30 10 2 7 11
M  V30 11 2 8 12
M  V30 12 1 9 13
M  V30 13 2 10 14
M  V30 14 1 10 15
M  V30 15 1 13 16
M  V30 16 1 15 17
M  V30 17 1 16 18
M  V30 18 1 17 19
M  V30 19 1 18 20
M  V30 20 1 19 21
M  V30 21 2 20 22
M  V30 22 1 20 23
M  V30 23 1 23 24
M  V30 24 1 24 25
M  V30 25 1 25 26
M  V30 26 1 9 11
M  V30 27 1 12 13
M  V30 28 1 3 27
M  V30 29 1 3 28
M  V30 30 1 7 29
M  V30 31 1 12 30
M  V30 32 1 15 31
M  V30 33 1 15 32
M  V30 34 1 16 33
M  V30 35 1 16 34
M  V30 36 1 17 35
M  V30 37 1 17 36
M  V30 38 1 19 37
M  V30 39 1 19 38
M  V30 40 1 21 39
M  V30 41 1 21 40
M  V30 42 1 21 41
M  V30 43 1 23 42
M  V30 44 1 23 43
M  V30 45 1 24 44
M  V30 46 1 24 45
M  V30 47 1 25 46
M  V30 48 1 25 47
M  V30 49 1 26 48
M  V30 50 1 26 49
M  V30 51 1 26 50
M  V30 END BOND
M  V30 END CTAB
M  END
>  <Structure No>
7339

>  <LogS>
-4.33

>  <MMFF94 Energy>
-29.549

$$$$
Compound 7340
Actelion Java MolfileCreator 2.0

  0  0  0  0  0  0              0 V3000
M  V30 BEGIN CTAB
M  V30 COUNTS 33 34 0 0 0
M  V30 BEGIN ATOM
M  V30 1 S -0.6572 -2.7133 -1.0682 0
M  V30 2 O -1.5361 -3.5941 -1.9104 0
M  V30 3 O 0.2487 -3.578 -0.2367 0
M  V30 4 N 0.3096 -1.7112 -2.1043 0
M  V30 5 C -1.6784 -1.7115 -0.0412 0
M  V30 6 C 1.1613 -0.6516 -1.6323 0
M  V30 7 C -1.9273 -2.0787 1.2867 0
M  V30 8 C -2.2445 -0.5373 -0.5514 0
M  V30 9 C 1.4442 -0.4758 -0.2649 0
M  V30 10 C 1.7317 0.2316 -2.5611 0
M  V30 11 C -2.729 -1.2736 2.1012 0
M  V30 12 C -3.0458 0.2698 0.2609 0
M  V30 13 C 2.2699 0.5695 0.1596 0
M  V30 14 C 2.5575 1.2755 -2.1359 0
M  V30 15 C -3.2964 -0.0885 1.5972 0
M  V30 16 C 2.8329 1.456 -0.7768 0
M  V30 17 N -4.1209 0.7448 2.4324 0 CHG=1
M  V30 18 O 3.6658 2.5201 -0.4001 0
M  V30 19 O -4.3471 0.4314 3.6197 0
M  V30 20 O -4.6738 1.9031 1.936 0 CHG=-1
M  V30 21 C 4.0273 2.8209 0.9437 0
M  V30 22 H 0.2 -1.853 -3.1335 0
M  V30 23 H -1.5006 -2.9862 1.694 0
M  V30 24 H -2.0629 -0.2444 -1.5778 0
M  V30 25 H 1.0381 -1.1415 0.4824 0
M  V30 26 H 1.5311 0.1146 -3.6187 0
M  V30 27 H -2.9046 -1.5778 3.1252 0
M  V30 28 H -3.4687 1.1741 -0.1568 0
M  V30 29 H 2.4654 0.678 1.2177 0
M  V30 30 H 2.9854 1.9495 -2.8673 0
M  V30 31 H 4.5753 1.9657 1.3923 0
M  V30 32 H 4.6901 3.7103 0.9504 0
M  V30 33 H 3.1195 3.0495 1.5413 0
M  V30 END ATOM
M  V30 BEGIN BOND
M  V30 1 2 1 2
M  V30 2 2 1 3
M  V30 3 1 1 4
M  V30 4 1 1 5
M  V30 5 1 4 6
M  V30 6 2 5 7
M  V30 7 1 5 8
M  V30 8 2 6 9
M  V30 9 1 6 10
M  V30 10 1 7 11
M  V30 11 2 8 12
M  V30 12 1 9 13
M  V30 13 2 10 14
M  V30 14 2 11 15
M  V30 15 2 13 16
M  V30 16 1 15 17
M  V30 17 1 16 18
M  V30 18 2 17 19
M  V30 19 1 17 20
M  V30 20 1 18 21
M  V30 21 1 12 15
M  V30 22 1 14 16
M  V30 23 1 4 22
M  V30 24 1 7 23
M  V30 25 1 8 24
M  V30 26 1 9 25
M  V30 27 1 10 26
M  V30 28 1 11 27
M  V30 29 1 12 28
M  V30 30 1 13 29
M  V30 31 1 14 30
M  V30 32 1 21 31
M  V30 33 1 21 32
M  V30 34 1 21 33
M  V30 END BOND
M  V30 END CTAB
M  END
>  <Structure No>
7340

>  <LogS>
-4.64

>  <MMFF94 Energy>
32.476

$$$$
Compound 7341
Actelion Java MolfileCreator 2.0

  0  0  0  0  0  0              0 V3000
M  V30 BEGIN CTAB
M  V30 COUNTS 44 46 0 0 0
M  V30 BEGIN ATOM
M  V30 1 S -2.5352 -0.9808 1.1443 0
M  V30 2 C -3.8878 0.2262 0.735 0
M  V30 3 C -1.2834 -0.0924 0.1511 0 CFG=2
M  V30 4 C -3.2079 1.5003 0.151 0 CFG=1
M  V30 5 C -4.8277 -0.4691 -0.2686 0
M  V30 6 C -4.6636 0.5614 2.0177 0
M  V30 7 N -1.9839 1.0102 -0.432 0 CFG=2
M  V30 8 C -0.9575 -0.6869 -1.1194 0 CFG=1
M  V30 9 C -4.0378 2.3084 -0.8156 0
M  V30 10 C -1.5747 0.5107 -1.7687 0
M  V30 11 N 0.4851 -0.7573 -1.3535 0
M  V30 12 O -4.5915 3.3697 -0.4248 0
M  V30 13 O -4.2452 1.8772 -2.12 0 CHG=-1
M  V30 14 O -1.7264 0.8994 -2.9562 0
M  V30 15 C 1.3061 -1.7282 -0.6912 0
M  V30 16 O 0.7795 -2.5858 0.0703 0
M  V30 17 C 2.8059 -1.6752 -0.8598 0 CFG=2
M  V30 18 N 3.4462 -2.9352 -0.4593 0 CHG=1
M  V30 19 C 3.3786 -0.51 -0.0766 0
M  V30 20 C 4.1541 0.4653 -0.7275 0
M  V30 21 C 3.1554 -0.3919 1.3084 0
M  V30 22 C 4.6866 1.5409 -0.0103 0
M  V30 23 C 3.6889 0.6851 2.022 0
M  V30 24 C 4.4544 1.6537 1.3666 0
M  V30 25 O 4.9794 2.7217 2.0906 0
M  V30 26 H -0.4146 0.2566 0.7541 0
M  V30 27 H -2.9123 2.1703 0.9895 0
M  V30 28 H -4.2884 -0.7018 -1.2113 0
M  V30 29 H -5.2055 -1.4243 0.155 0
M  V30 30 H -5.7059 0.17 -0.5015 0
M  V30 31 H -3.9816 0.9849 2.7859 0
M  V30 32 H -5.4622 1.3041 1.8043 0
M  V30 33 H -5.1323 -0.3532 2.44 0
M  V30 34 H -1.4906 -1.6317 -1.3639 0
M  V30 35 H 0.9336 -0.0968 -2.0291 0
M  V30 36 H 3.0025 -1.5248 -1.9457 0
M  V30 37 H 4.4761 -2.8746 -0.6325 0
M  V30 38 H 3.2843 -3.1358 0.5546 0
M  V30 39 H 3.0638 -3.7234 -1.031 0
M  V30 40 H 4.3463 0.3964 -1.7909 0
M  V30 41 H 2.5639 -1.1302 1.8349 0
M  V30 42 H 5.2798 2.2856 -0.5256 0
M  V30 43 H 3.5069 0.767 3.0862 0
M  V30 44 H 5.5382 3.4399 1.6448 0
M  V30 END ATOM
M  V30 BEGIN BOND
M  V30 1 1 1 2
M  V30 2 1 1 3
M  V30 3 1 2 4
M  V30 4 1 2 5
M  V30 5 1 2 6
M  V30 6 1 3 7
M  V30 7 1 3 8
M  V30 8 1 4 9
M  V30 9 1 7 10
M  V30 10 1 8 11
M  V30 11 2 9 12
M  V30 12 1 9 13
M  V30 13 2 10 14
M  V30 14 1 11 15
M  V30 15 2 15 16
M  V30 16 1 15 17
M  V30 17 1 17 18
M  V30 18 1 17 19
M  V30 19 2 19 20
M  V30 20 1 19 21
M  V30 21 1 20 22
M  V30 22 2 21 23
M  V30 23 2 22 24
M  V30 24 1 24 25
M  V30 25 1 4 7
M  V30 26 1 8 10
M  V30 27 1 23 24
M  V30 28 1 3 26
M  V30 29 1 4 27
M  V30 30 1 5 28
M  V30 31 1 5 29
M  V30 32 1 5 30
M  V30 33 1 6 31
M  V30 34 1 6 32
M  V30 35 1 6 33
M  V30 36 1 8 34
M  V30 37 1 11 35
M  V30 38 1 17 36
M  V30 39 1 18 37
M  V30 40 1 18 38
M  V30 41 1 18 39
M  V30 42 1 20 40
M  V30 43 1 21 41
M  V30 44 1 22 42
M  V30 45 1 23 43
M  V30 46 1 25 44
M  V30 END BOND
M  V30 BEGIN COLLECTION
M  V30 MDLV30/STEABS ATOMS=(5 3 4 7 8 17)
M  V30 END COLLECTION
M  V30 END CTAB
M  END
>  <Structure No>
7341

>  <LogS>
-2.17

>  <MMFF94 Energy>
35.785

$$$$
Compound 7342
Actelion Java MolfileCreator 2.0

  0  0  0  0  0  0              0 V3000
M  V30 BEGIN CTAB
M  V30 COUNTS 54 58 0 0 0
M  V30 BEGIN ATOM
M  V30 1 O -4.1974 0.8868 -1.2901 0
M  V30 2 C -3.1192 0.2587 -1.0934 0
M  V30 3 N -3.1355 -1.1264 -1.0047 0
M  V30 4 N -1.9376 0.9617 -0.9615 0
M  V30 5 C -1.966 -1.8155 -0.7721 0
M  V30 6 C -4.4055 -1.8717 -1.1328 0
M  V30 7 C -0.7988 0.2511 -0.7384 0
M  V30 8 C -1.8919 2.4341 -1.0286 0
M  V30 9 O -1.9498 -3.0736 -0.6759 0
M  V30 10 C -0.7941 -1.0935 -0.6438 0
M  V30 11 C -4.9691 -2.2681 0.2399 0
M  V30 12 N 0.4401 0.7443 -0.5544 0
M  V30 13 C -1.8237 3.0599 0.372 0
M  V30 14 N 0.4495 -1.5225 -0.3974 0
M  V30 15 C -5.3737 -1.0572 1.0774 0
M  V30 16 C 1.1825 -0.3799 -0.3646 0
M  V30 17 C -3.0808 2.7871 1.1943 0
M  V30 18 C 2.6491 -0.3472 -0.0152 0 CFG=1
M  V30 19 C 3.4245 0.924 -0.5231 0 CFG=1
M  V30 20 C 2.8868 -0.3633 1.5055 0
M  V30 21 C 3.4464 -1.5343 -0.5904 0
M  V30 22 C 4.0384 1.5279 0.7487 0
M  V30 23 C 4.5985 0.3588 -1.3367 0
M  V30 24 C 4.2675 0.277 1.5908 0 CFG=2
M  V30 25 C 4.8567 -0.9564 -0.611 0 CFG=1
M  V30 26 C 5.3151 -0.6511 0.866 0
M  V30 27 H -4.241 -2.7941 -1.732 0
M  V30 28 H -5.1667 -1.2895 -1.6966 0
M  V30 29 H -2.7665 2.8422 -1.5804 0
M  V30 30 H -0.9962 2.7528 -1.6058 0
M  V30 31 H -4.2207 -2.8682 0.8002 0
M  V30 32 H -5.8657 -2.9062 0.0841 0
M  V30 33 H -1.7024 4.1595 0.2636 0
M  V30 34 H -0.9365 2.6742 0.9184 0
M  V30 35 H 0.7717 -2.5037 -0.2426 0
M  V30 36 H -6.0948 -0.4224 0.5198 0
M  V30 37 H -4.4804 -0.4563 1.346 0
M  V30 38 H -5.8566 -1.4012 2.0161 0
M  V30 39 H -3.1702 1.7035 1.4165 0
M  V30 40 H -3.9848 3.1299 0.6476 0
M  V30 41 H -3.0194 3.3359 2.1575 0
M  V30 42 H 2.8258 1.6603 -1.1013 0
M  V30 43 H 2.1335 0.2601 2.0406 0
M  V30 44 H 2.869 -1.3811 1.9547 0
M  V30 45 H 3.1106 -1.7841 -1.6232 0
M  V30 46 H 3.3858 -2.4604 0.0234 0
M  V30 47 H 4.9799 2.0942 0.5737 0
M  V30 48 H 3.3126 2.2138 1.2419 0
M  V30 49 H 4.2893 0.179 -2.3912 0
M  V30 50 H 5.4977 1.0137 -1.351 0
M  V30 51 H 4.5639 0.5139 2.635 0
M  V30 52 H 5.5767 -1.6074 -1.151 0
M  V30 53 H 6.3085 -0.1529 0.8529 0
M  V30 54 H 5.4223 -1.6037 1.4283 0
M  V30 END ATOM
M  V30 BEGIN BOND
M  V30 1 2 1 2
M  V30 2 1 2 3
M  V30 3 1 2 4
M  V30 4 1 3 5
M  V30 5 1 3 6
M  V30 6 1 4 7
M  V30 7 1 4 8
M  V30 8 2 5 9
M  V30 9 1 5 10
M  V30 10 1 6 11
M  V30 11 1 7 12
M  V30 12 1 8 13
M  V30 13 1 10 14
M  V30 14 1 11 15
M  V30 15 2 12 16
M  V30 16 1 13 17
M  V30 17 1 16 18
M  V30 18 1 18 19
M  V30 19 1 18 20
M  V30 20 1 18 21
M  V30 21 1 19 22
M  V30 22 1 19 23
M  V30 23 1 20 24
M  V30 24 1 21 25
M  V30 25 1 24 26
M  V30 26 2 7 10
M  V30 27 1 14 16
M  V30 28 1 22 24
M  V30 29 1 23 25
M  V30 30 1 25 26
M  V30 31 1 6 27
M  V30 32 1 6 28
M  V30 33 1 8 29
M  V30 34 1 8 30
M  V30 35 1 11 31
M  V30 36 1 11 32
M  V30 37 1 13 33
M  V30 38 1 13 34
M  V30 39 1 14 35
M  V30 40 1 15 36
M  V30 41 1 15 37
M  V30 42 1 15 38
M  V30 43 1 17 39
M  V30 44 1 17 40
M  V30 45 1 17 41
M  V30 46 1 19 42
M  V30 47 1 20 43
M  V30 48 1 20 44
M  V30 49 1 21 45
M  V30 50 1 21 46
M  V30 51 1 22 47
M  V30 52 1 22 48
M  V30 53 1 23 49
M  V30 54 1 23 50
M  V30 55 1 24 51
M  V30 56 1 25 52
M  V30 57 1 26 53
M  V30 58 1 26 54
M  V30 END BOND
M  V30 BEGIN COLLECTION
M  V30 MDLV30/STEABS ATOMS=(4 18 19 24 25)
M  V30 END COLLECTION
M  V30 END CTAB
M  END
>  <Structure No>
7342

>  <LogS>
-5.85

>  <MMFF94 Energy>
-91.099

$$$$
Compound 7343
Actelion Java MolfileCreator 2.0

  0  0  0  0  0  0              0 V3000
M  V30 BEGIN CTAB
M  V30 COUNTS 58 59 0 0 0
M  V30 BEGIN ATOM
M  V30 1 O -1.9788 -0.5537 2.4542 0
M  V30 2 C -2.3986 -0.5893 1.2642 0
M  V30 3 O -2.1882 -1.721 0.4702 0
M  V30 4 C -3.163 0.5791 0.6981 0 CFG=2
M  V30 5 C -1.5515 -2.896 0.9617 0
M  V30 6 N -2.3911 1.8187 0.8595 0 CHG=1
M  V30 7 C -4.5506 0.6667 1.3764 0
M  V30 8 C -1.452 -3.9326 -0.1542 0
M  V30 9 C -5.5026 1.7024 0.7147 0
M  V30 10 O -0.6922 -3.4244 -1.2487 0
M  V30 11 C -6.9282 1.1445 0.6116 0
M  V30 12 C -5.5285 3.0251 1.4968 0
M  V30 13 C 0.7004 -3.286 -1.2181 0
M  V30 14 O 1.3695 -3.7291 -0.2424 0
M  V30 15 C 1.3939 -2.5894 -2.3537 0 CFG=1
M  V30 16 C 2.0985 -1.3399 -1.8553 0
M  V30 17 C 2.3394 -3.5463 -3.0942 0
M  V30 18 C 3.3062 -1.4171 -1.1323 0
M  V30 19 C 1.5031 -0.0821 -2.0558 0
M  V30 20 C 3.9262 -0.254 -0.6516 0
M  V30 21 C 2.1125 1.0797 -1.5755 0
M  V30 22 C 3.3257 1.0056 -0.8759 0
M  V30 23 C 5.137 -0.3295 0.0529 0
M  V30 24 C 3.947 2.1682 -0.3924 0
M  V30 25 C 5.7499 0.8341 0.5293 0
M  V30 26 C 5.1581 2.0929 0.3077 0
M  V30 27 O 5.7381 3.2875 0.764 0
M  V30 28 C 6.9616 3.3619 1.4904 0
M  V30 29 H -3.3117 0.3903 -0.3886 0
M  V30 30 H -0.536 -2.6453 1.3377 0
M  V30 31 H -2.1485 -3.3181 1.7992 0
M  V30 32 H -2.82 2.5813 0.2871 0
M  V30 33 H -1.4118 1.6766 0.5125 0
M  V30 34 H -2.3569 2.1092 1.8667 0
M  V30 35 H -4.4288 0.8832 2.4606 0
M  V30 36 H -5.0074 -0.3464 1.3189 0
M  V30 37 H -0.9944 -4.8693 0.2307 0
M  V30 38 H -2.4742 -4.1732 -0.5139 0
M  V30 39 H -5.1633 1.9198 -0.3214 0
M  V30 40 H -6.9358 0.2287 -0.0147 0
M  V30 41 H -7.3249 0.8928 1.6184 0
M  V30 42 H -7.5996 1.8907 0.1372 0
M  V30 43 H -6.1513 3.7718 0.9608 0
M  V30 44 H -5.9492 2.8719 2.515 0
M  V30 45 H -4.5102 3.4475 1.6018 0
M  V30 46 H 0.6162 -2.2922 -3.0928 0
M  V30 47 H 1.7511 -4.355 -3.5824 0
M  V30 48 H 2.8952 -2.9958 -3.8821 0
M  V30 49 H 3.0684 -4.0209 -2.4045 0
M  V30 50 H 3.7609 -2.3801 -0.9371 0
M  V30 51 H 0.5601 0.0015 -2.5836 0
M  V30 52 H 1.6341 2.0357 -1.7499 0
M  V30 53 H 5.6096 -1.2879 0.2348 0
M  V30 54 H 3.4937 3.1385 -0.5573 0
M  V30 55 H 6.684 0.7438 1.069 0
M  V30 56 H 7.7958 2.9443 0.8816 0
M  V30 57 H 7.1854 4.427 1.7176 0
M  V30 58 H 6.8681 2.8035 2.4474 0
M  V30 END ATOM
M  V30 BEGIN BOND
M  V30 1 2 1 2
M  V30 2 1 2 3
M  V30 3 1 2 4
M  V30 4 1 3 5
M  V30 5 1 4 6
M  V30 6 1 4 7
M  V30 7 1 5 8
M  V30 8 1 7 9
M  V30 9 1 8 10
M  V30 10 1 9 11
M  V30 11 1 9 12
M  V30 12 1 10 13
M  V30 13 2 13 14
M  V30 14 1 13 15
M  V30 15 1 15 16
M  V30 16 1 15 17
M  V30 17 2 16 18
M  V30 18 1 16 19
M  V30 19 1 18 20
M  V30 20 2 19 21
M  V30 21 1 20 22
M  V30 22 2 20 23
M  V30 23 2 22 24
M  V30 24 1 23 25
M  V30 25 1 24 26
M  V30 26 1 26 27
M  V30 27 1 27 28
M  V30 28 1 21 22
M  V30 29 2 25 26
M  V30 30 1 4 29
M  V30 31 1 5 30
M  V30 32 1 5 31
M  V30 33 1 6 32
M  V30 34 1 6 33
M  V30 35 1 6 34
M  V30 36 1 7 35
M  V30 37 1 7 36
M  V30 38 1 8 37
M  V30 39 1 8 38
M  V30 40 1 9 39
M  V30 41 1 11 40
M  V30 42 1 11 41
M  V30 43 1 11 42
M  V30 44 1 12 43
M  V30 45 1 12 44
M  V30 46 1 12 45
M  V30 47 1 15 46
M  V30 48 1 17 47
M  V30 49 1 17 48
M  V30 50 1 17 49
M  V30 51 1 18 50
M  V30 52 1 19 51
M  V30 53 1 21 52
M  V30 54 1 23 53
M  V30 55 1 24 54
M  V30 56 1 25 55
M  V30 57 1 28 56
M  V30 58 1 28 57
M  V30 59 1 28 58
M  V30 END BOND
M  V30 BEGIN COLLECTION
M  V30 MDLV30/STEABS ATOMS=(2 4 15)
M  V30 END COLLECTION
M  V30 END CTAB
M  END
>  <Structure No>
7343

>  <LogS>
-3.82

>  <MMFF94 Energy>
76.645

$$$$
Compound 7344
Actelion Java MolfileCreator 2.0

  0  0  0  0  0  0              0 V3000
M  V30 BEGIN CTAB
M  V30 COUNTS 40 41 0 0 0
M  V30 BEGIN ATOM
M  V30 1 S -2.9912 -2.7484 0.8885 0
M  V30 2 O -4.1692 -3.5562 0.4228 0
M  V30 3 O -2.6717 -3.1236 2.3088 0
M  V30 4 N -1.6201 -3.1059 -0.1137 0
M  V30 5 C -3.3949 -1.0384 0.7719 0
M  V30 6 C -0.3549 -2.433 -0.0175 0
M  V30 7 C -3.8471 -0.3373 1.8981 0
M  V30 8 C -3.2618 -0.3702 -0.4523 0
M  V30 9 N 0.5899 -2.675 -0.962 0
M  V30 10 C -0.0648 -1.5334 1.0153 0
M  V30 11 C -4.1552 1.0231 1.8021 0
M  V30 12 C -3.5689 0.9902 -0.5483 0
M  V30 13 C 1.8046 -2.0681 -0.9333 0
M  V30 14 C 1.1827 -0.9141 1.0351 0
M  V30 15 C -4.0162 1.6939 0.5788 0
M  V30 16 O 2.6372 -2.3223 -1.845 0
M  V30 17 N 2.1127 -1.1899 0.0734 0
M  V30 18 N -4.3296 3.0856 0.4811 0
M  V30 19 C 3.4089 -0.4941 0.1077 0
M  V30 20 C 3.3393 0.798 -0.7124 0
M  V30 21 C 4.6791 1.5414 -0.687 0
M  V30 22 C 4.6102 2.8287 -1.5032 0
M  V30 23 H -1.7525 -3.8089 -0.8743 0
M  V30 24 H -3.96 -0.8407 2.8496 0
M  V30 25 H -2.9176 -0.9009 -1.3307 0
M  V30 26 H -0.7768 -1.3063 1.7953 0
M  V30 27 H -4.5013 1.5541 2.68 0
M  V30 28 H -3.4585 1.4955 -1.4995 0
M  V30 29 H 1.4022 -0.2085 1.828 0
M  V30 30 H -4.2294 3.5939 -0.4256 0
M  V30 31 H -4.6638 3.6183 1.3152 0
M  V30 32 H 4.2131 -1.1527 -0.2884 0
M  V30 33 H 3.6887 -0.2541 1.1583 0
M  V30 34 H 3.0733 0.5503 -1.7633 0
M  V30 35 H 2.544 1.4528 -0.293 0
M  V30 36 H 5.4766 0.8911 -1.1077 0
M  V30 37 H 4.9477 1.7949 0.3618 0
M  V30 38 H 4.3676 2.601 -2.5631 0
M  V30 39 H 5.5925 3.3449 -1.4668 0
M  V30 40 H 3.8361 3.5083 -1.0873 0
M  V30 END ATOM
M  V30 BEGIN BOND
M  V30 1 2 1 2
M  V30 2 2 1 3
M  V30 3 1 1 4
M  V30 4 1 1 5
M  V30 5 1 4 6
M  V30 6 2 5 7
M  V30 7 1 5 8
M  V30 8 2 6 9
M  V30 9 1 6 10
M  V30 10 1 7 11
M  V30 11 2 8 12
M  V30 12 1 9 13
M  V30 13 2 10 14
M  V30 14 2 11 15
M  V30 15 2 13 16
M  V30 16 1 13 17
M  V30 17 1 15 18
M  V30 18 1 17 19
M  V30 19 1 19 20
M  V30 20 1 20 21
M  V30 21 1 21 22
M  V30 22 1 12 15
M  V30 23 1 14 17
M  V30 24 1 4 23
M  V30 25 1 7 24
M  V30 26 1 8 25
M  V30 27 1 10 26
M  V30 28 1 11 27
M  V30 29 1 12 28
M  V30 30 1 14 29
M  V30 31 1 18 30
M  V30 32 1 18 31
M  V30 33 1 19 32
M  V30 34 1 19 33
M  V30 35 1 20 34
M  V30 36 1 20 35
M  V30 37 1 21 36
M  V30 38 1 21 37
M  V30 39 1 22 38
M  V30 40 1 22 39
M  V30 41 1 22 40
M  V30 END BOND
M  V30 END CTAB
M  END
>  <Structure No>
7344

>  <LogS>
-3.09

>  <MMFF94 Energy>
-141.42

$$$$
Compound 7345
Actelion Java MolfileCreator 2.0

  0  0  0  0  0  0              0 V3000
M  V30 BEGIN CTAB
M  V30 COUNTS 58 59 0 0 0
M  V30 BEGIN ATOM
M  V30 1 O 1.8991 -2.5328 1.7408 0
M  V30 2 C 2.2926 -1.5025 1.1282 0
M  V30 3 O 2.2886 -0.2563 1.7616 0
M  V30 4 C 2.7314 -1.6072 -0.3128 0 CFG=1
M  V30 5 C 1.8752 -0.0767 3.1112 0
M  V30 6 N 1.6632 -1.087 -1.1784 0 CHG=1
M  V30 7 C 4.0827 -0.856 -0.54 0 CFG=2
M  V30 8 C 2.0261 1.3919 3.4963 0
M  V30 9 C 4.5397 -0.8112 -2.0219 0
M  V30 10 C 5.1998 -1.4273 0.3546 0
M  V30 11 O 1.2859 2.2176 2.6007 0
M  V30 12 C 4.7349 -2.1843 -2.6715 0
M  V30 13 C -0.1074 2.35 2.6495 0
M  V30 14 O -0.7581 1.8959 3.6313 0
M  V30 15 C -0.8495 3.0131 1.5174 0 CFG=2
M  V30 16 C -1.7649 2.0234 0.8255 0
M  V30 17 C 0.1019 3.6542 0.5006 0
M  V30 18 C -3.1067 2.3607 0.5775 0
M  V30 19 C -1.2802 0.7766 0.3909 0
M  V30 20 C -3.9618 1.4558 -0.0691 0
M  V30 21 C -2.125 -0.1294 -0.2551 0
M  V30 22 C -3.4685 0.1981 -0.486 0
M  V30 23 C -5.3041 1.785 -0.3026 0
M  V30 24 C -4.3273 -0.7113 -1.1242 0
M  V30 25 C -6.1516 0.8728 -0.9351 0
M  V30 26 C -5.6774 -0.3775 -1.3466 0
M  V30 27 O -6.5767 -1.2568 -1.968 0
M  V30 28 C -6.2397 -2.5622 -2.428 0
M  V30 29 H 2.8809 -2.6854 -0.5442 0
M  V30 30 H 0.8143 -0.3888 3.2227 0
M  V30 31 H 2.5069 -0.698 3.7828 0
M  V30 32 H 0.7504 -1.5268 -0.9186 0
M  V30 33 H 1.8485 -1.3321 -2.1768 0
M  V30 34 H 1.5842 -0.0489 -1.0822 0
M  V30 35 H 3.9389 0.2042 -0.2338 0
M  V30 36 H 1.6906 1.5546 4.5443 0
M  V30 37 H 3.099 1.6719 3.4318 0
M  V30 38 H 5.5015 -0.2564 -2.087 0
M  V30 39 H 3.8116 -0.2252 -2.6241 0
M  V30 40 H 5.3049 -2.5228 0.209 0
M  V30 41 H 6.1709 -0.939 0.1282 0
M  V30 42 H 4.9745 -1.2375 1.4245 0
M  V30 43 H 3.7832 -2.7498 -2.7076 0
M  V30 44 H 5.0876 -2.0466 -3.7138 0
M  V30 45 H 5.4974 -2.7761 -2.1266 0
M  V30 46 H -1.4539 3.8334 1.9649 0
M  V30 47 H -0.4811 4.1645 -0.2953 0
M  V30 48 H 0.7412 4.4121 1.0016 0
M  V30 49 H 0.7543 2.8876 0.0298 0
M  V30 50 H -3.4852 3.3258 0.8936 0
M  V30 51 H -0.2472 0.503 0.5623 0
M  V30 52 H -1.7292 -1.0871 -0.5702 0
M  V30 53 H -5.6993 2.7449 0.0078 0
M  V30 54 H -3.9424 -1.6729 -1.4405 0
M  V30 55 H -7.1875 1.1381 -1.1048 0
M  V30 56 H -7.142 -3.0373 -2.8636 0
M  V30 57 H -5.8854 -3.186 -1.5806 0
M  V30 58 H -5.455 -2.4996 -3.2119 0
M  V30 END ATOM
M  V30 BEGIN BOND
M  V30 1 2 1 2
M  V30 2 1 2 3
M  V30 3 1 2 4
M  V30 4 1 3 5
M  V30 5 1 4 6
M  V30 6 1 4 7
M  V30 7 1 5 8
M  V30 8 1 7 9
M  V30 9 1 7 10
M  V30 10 1 8 11
M  V30 11 1 9 12
M  V30 12 1 11 13
M  V30 13 2 13 14
M  V30 14 1 13 15
M  V30 15 1 15 16
M  V30 16 1 15 17
M  V30 17 2 16 18
M  V30 18 1 16 19
M  V30 19 1 18 20
M  V30 20 2 19 21
M  V30 21 1 20 22
M  V30 22 2 20 23
M  V30 23 2 22 24
M  V30 24 1 23 25
M  V30 25 1 24 26
M  V30 26 1 26 27
M  V30 27 1 27 28
M  V30 28 1 21 22
M  V30 29 2 25 26
M  V30 30 1 4 29
M  V30 31 1 5 30
M  V30 32 1 5 31
M  V30 33 1 6 32
M  V30 34 1 6 33
M  V30 35 1 6 34
M  V30 36 1 7 35
M  V30 37 1 8 36
M  V30 38 1 8 37
M  V30 39 1 9 38
M  V30 40 1 9 39
M  V30 41 1 10 40
M  V30 42 1 10 41
M  V30 43 1 10 42
M  V30 44 1 12 43
M  V30 45 1 12 44
M  V30 46 1 12 45
M  V30 47 1 15 46
M  V30 48 1 17 47
M  V30 49 1 17 48
M  V30 50 1 17 49
M  V30 51 1 18 50
M  V30 52 1 19 51
M  V30 53 1 21 52
M  V30 54 1 23 53
M  V30 55 1 24 54
M  V30 56 1 25 55
M  V30 57 1 28 56
M  V30 58 1 28 57
M  V30 59 1 28 58
M  V30 END BOND
M  V30 BEGIN COLLECTION
M  V30 MDLV30/STEABS ATOMS=(3 4 7 15)
M  V30 END COLLECTION
M  V30 END CTAB
M  END
>  <Structure No>
7345

>  <LogS>
-3.82

>  <MMFF94 Energy>
74.162

$$$$
Compound 7346
Actelion Java MolfileCreator 2.0

  0  0  0  0  0  0              0 V3000
M  V30 BEGIN CTAB
M  V30 COUNTS 30 33 0 0 0
M  V30 BEGIN ATOM
M  V30 1 S 1.0817 -0.4991 2.9976 0
M  V30 2 C 0.6908 0.4481 1.4641 0 CFG=2
M  V30 3 C -0.5369 -1.385 3.011 0
M  V30 4 N -0.6087 -0.023 1.0444 0
M  V30 5 C 1.7353 0.2047 0.3955 0
M  V30 6 C -1.2388 -0.9127 1.8023 0
M  V30 7 C -1.4596 0.2704 0.0586 0
M  V30 8 C 2.5483 1.2648 -0.0554 0
M  V30 9 C 1.9165 -1.0789 -0.1634 0
M  V30 10 N -2.4804 -1.2461 1.3633 0
M  V30 11 C -2.5902 -0.4802 0.2509 0
M  V30 12 C -1.3195 1.1617 -1.0011 0
M  V30 13 F 2.4126 2.5139 0.4579 0
M  V30 14 C 3.5104 1.0441 -1.0459 0
M  V30 15 F 1.162 -2.13 0.2456 0
M  V30 16 C 2.8817 -1.2874 -1.1531 0
M  V30 17 C -3.6733 -0.3939 -0.6204 0
M  V30 18 C -2.3985 1.2671 -1.899 0
M  V30 19 C 3.6761 -0.2284 -1.5942 0
M  V30 20 C -3.5686 0.4932 -1.7103 0
M  V30 21 H 0.6103 1.5234 1.7299 0
M  V30 22 H -0.3739 -2.4812 2.9586 0
M  V30 23 H -1.1126 -1.1153 3.9205 0
M  V30 24 H -0.4198 1.7485 -1.132 0
M  V30 25 H 4.1299 1.8625 -1.3897 0
M  V30 26 H 3.0147 -2.2734 -1.5794 0
M  V30 27 H -4.5662 -0.9855 -0.4649 0
M  V30 28 H -2.3329 1.9461 -2.7391 0
M  V30 29 H 4.422 -0.3942 -2.3607 0
M  V30 30 H -4.3912 0.5854 -2.4075 0
M  V30 END ATOM
M  V30 BEGIN BOND
M  V30 1 1 1 2
M  V30 2 1 1 3
M  V30 3 1 2 4
M  V30 4 1 2 5
M  V30 5 1 3 6
M  V30 6 1 4 7
M  V30 7 2 5 8
M  V30 8 1 5 9
M  V30 9 2 6 10
M  V30 10 2 7 11
M  V30 11 1 7 12
M  V30 12 1 8 13
M  V30 13 1 8 14
M  V30 14 1 9 15
M  V30 15 2 9 16
M  V30 16 1 11 17
M  V30 17 2 12 18
M  V30 18 2 14 19
M  V30 19 2 17 20
M  V30 20 1 4 6
M  V30 21 1 10 11
M  V30 22 1 16 19
M  V30 23 1 18 20
M  V30 24 1 2 21
M  V30 25 1 3 22
M  V30 26 1 3 23
M  V30 27 1 12 24
M  V30 28 1 14 25
M  V30 29 1 16 26
M  V30 30 1 17 27
M  V30 31 1 18 28
M  V30 32 1 19 29
M  V30 33 1 20 30
M  V30 END BOND
M  V30 BEGIN COLLECTION
M  V30 MDLV30/STEABS ATOMS=(1 2)
M  V30 END COLLECTION
M  V30 END CTAB
M  END
>  <Structure No>
7346

>  <LogS>
-3.76

>  <MMFF94 Energy>
20.72

$$$$
Compound 7347
Actelion Java MolfileCreator 2.0

  0  0  0  0  0  0              0 V3000
M  V30 BEGIN CTAB
M  V30 COUNTS 49 50 0 0 0
M  V30 BEGIN ATOM
M  V30 1 O 5.6415 0.3171 2.3807 0
M  V30 2 C 4.6182 -0.0184 1.7193 0
M  V30 3 N 3.3575 0.1732 2.2587 0
M  V30 4 N 4.7722 -0.5776 0.4701 0
M  V30 5 C 2.2389 -0.2573 1.5814 0
M  V30 6 C 3.2171 0.766 3.5998 0
M  V30 7 C 3.6548 -0.9891 -0.188 0
M  V30 8 C 6.1061 -0.8016 -0.1032 0
M  V30 9 O 1.09 -0.1302 2.0848 0
M  V30 10 C 2.4102 -0.8445 0.3291 0
M  V30 11 N 3.608 -1.5838 -1.3961 0
M  V30 12 N 1.5192 -1.3522 -0.5471 0
M  V30 13 C 2.2795 -1.7865 -1.5821 0
M  V30 14 C 0.0572 -1.4108 -0.4923 0
M  V30 15 O -0.5093 -0.5128 -1.4431 0
M  V30 16 C -0.4046 0.8781 -1.3449 0
M  V30 17 O 0.2415 1.4132 -0.4036 0
M  V30 18 C -1.1113 1.7421 -2.3417 0
M  V30 19 C -2.5209 2.1091 -1.8611 0
M  V30 20 C -3.4471 0.9145 -1.878 0
M  V30 21 O -3.6898 0.3759 -2.993 0
M  V30 22 N -4.053 0.3692 -0.6795 0
M  V30 23 C -4.2125 1.1708 0.5438 0
M  V30 24 C -4.6313 -0.9845 -0.7173 0
M  V30 25 C -3.0563 0.9214 1.5069 0
M  V30 26 C -3.5356 -2.0416 -0.8147 0
M  V30 27 H 3.273 -0.0337 4.3679 0
M  V30 28 H 4.0146 1.515 3.7932 0
M  V30 29 H 2.2515 1.3055 3.7048 0
M  V30 30 H 6.5272 -1.7489 0.294 0
M  V30 31 H 6.0646 -0.8602 -1.2117 0
M  V30 32 H 6.7887 0.0373 0.1503 0
M  V30 33 H 1.8713 -2.2467 -2.4731 0
M  V30 34 H -0.27 -2.4412 -0.745 0
M  V30 35 H -0.3354 -1.1894 0.518 0
M  V30 36 H -1.1582 1.2212 -3.3226 0
M  V30 37 H -0.5264 2.6758 -2.4903 0
M  V30 38 H -2.4449 2.5813 -0.8627 0
M  V30 39 H -2.9388 2.8772 -2.5467 0
M  V30 40 H -4.2973 2.2513 0.304 0
M  V30 41 H -5.1633 0.907 1.0562 0
M  V30 42 H -5.2258 -1.1901 0.1994 0
M  V30 43 H -5.3231 -1.078 -1.582 0
M  V30 44 H -3.0431 -0.1438 1.8188 0
M  V30 45 H -2.0874 1.1687 1.0302 0
M  V30 46 H -3.1807 1.5548 2.4103 0
M  V30 47 H -2.956 -1.9197 -1.7531 0
M  V30 48 H -3.993 -3.0532 -0.812 0
M  V30 49 H -2.8499 -1.9596 0.0539 0
M  V30 END ATOM
M  V30 BEGIN BOND
M  V30 1 2 1 2
M  V30 2 1 2 3
M  V30 3 1 2 4
M  V30 4 1 3 5
M  V30 5 1 3 6
M  V30 6 1 4 7
M  V30 7 1 4 8
M  V30 8 2 5 9
M  V30 9 1 5 10
M  V30 10 1 7 11
M  V30 11 1 10 12
M  V30 12 2 11 13
M  V30 13 1 12 14
M  V30 14 1 14 15
M  V30 15 1 15 16
M  V30 16 2 16 17
M  V30 17 1 16 18
M  V30 18 1 18 19
M  V30 19 1 19 20
M  V30 20 2 20 21
M  V30 21 1 20 22
M  V30 22 1 22 23
M  V30 23 1 22 24
M  V30 24 1 23 25
M  V30 25 1 24 26
M  V30 26 2 7 10
M  V30 27 1 12 13
M  V30 28 1 6 27
M  V30 29 1 6 28
M  V30 30 1 6 29
M  V30 31 1 8 30
M  V30 32 1 8 31
M  V30 33 1 8 32
M  V30 34 1 13 33
M  V30 35 1 14 34
M  V30 36 1 14 35
M  V30 37 1 18 36
M  V30 38 1 18 37
M  V30 39 1 19 38
M  V30 40 1 19 39
M  V30 41 1 23 40
M  V30 42 1 23 41
M  V30 43 1 24 42
M  V30 44 1 24 43
M  V30 45 1 25 44
M  V30 46 1 25 45
M  V30 47 1 25 46
M  V30 48 1 26 47
M  V30 49 1 26 48
M  V30 50 1 26 49
M  V30 END BOND
M  V30 END CTAB
M  END
>  <Structure No>
7347

>  <LogS>
-1.14

>  <MMFF94 Energy>
-173.55

$$$$
Compound 7348
Actelion Java MolfileCreator 2.0

  0  0  0  0  0  0              0 V3000
M  V30 BEGIN CTAB
M  V30 COUNTS 40 41 0 0 0
M  V30 BEGIN ATOM
M  V30 1 S 2.6684 -0.1615 2.7493 0
M  V30 2 O 2.2553 1.0039 3.6043 0
M  V30 3 O 3.8407 -0.8504 3.3887 0
M  V30 4 N 1.3412 -1.2702 2.6333 0
M  V30 5 C 3.1316 0.3847 1.1408 0
M  V30 6 C 0.1233 -0.9223 1.9632 0
M  V30 7 C 3.496 1.7201 0.9203 0
M  V30 8 C 3.1304 -0.5185 0.0696 0
M  V30 9 N -0.0474 0.3232 1.4486 0
M  V30 10 C -0.8953 -1.8639 1.8227 0
M  V30 11 C 3.8486 2.1499 -0.3627 0
M  V30 12 C 3.4818 -0.089 -1.2134 0
M  V30 13 C -1.1852 0.6741 0.7956 0
M  V30 14 C -2.0595 -1.4964 1.1515 0
M  V30 15 C 3.8416 1.2476 -1.4361 0
M  V30 16 O -1.2913 1.8436 0.3368 0
M  V30 17 N -2.2004 -0.2355 0.641 0
M  V30 18 N 4.2001 1.6877 -2.7486 0
M  V30 19 C -3.433 0.119 -0.0847 0
M  V30 20 C -3.2227 0.0714 -1.6136 0
M  V30 21 C -2.8875 -1.3474 -2.0932 0
M  V30 22 C -4.4723 0.5902 -2.3355 0
M  V30 23 H 1.4579 -2.2249 3.0408 0
M  V30 24 H 3.5063 2.4292 1.7382 0
M  V30 25 H 2.8536 -1.5533 0.2271 0
M  V30 26 H -0.7876 -2.8656 2.2193 0
M  V30 27 H 4.126 3.1846 -0.5205 0
M  V30 28 H 3.4732 -0.7965 -2.033 0
M  V30 29 H -2.8467 -2.2316 1.0329 0
M  V30 30 H 4.4696 2.6814 -2.9242 0
M  V30 31 H 4.1978 1.0231 -3.5544 0
M  V30 32 H -4.2675 -0.5608 0.2008 0
M  V30 33 H -3.7564 1.1402 0.2171 0
M  V30 34 H -2.3749 0.7386 -1.8832 0
M  V30 35 H -3.6843 -2.0617 -1.7937 0
M  V30 36 H -2.7876 -1.3655 -3.1996 0
M  V30 37 H -1.92 -1.6825 -1.6643 0
M  V30 38 H -4.3088 0.5914 -3.4344 0
M  V30 39 H -5.3523 -0.048 -2.104 0
M  V30 40 H -4.6922 1.6328 -2.0208 0
M  V30 END ATOM
M  V30 BEGIN BOND
M  V30 1 2 1 2
M  V30 2 2 1 3
M  V30 3 1 1 4
M  V30 4 1 1 5
M  V30 5 1 4 6
M  V30 6 2 5 7
M  V30 7 1 5 8
M  V30 8 2 6 9
M  V30 9 1 6 10
M  V30 10 1 7 11
M  V30 11 2 8 12
M  V30 12 1 9 13
M  V30 13 2 10 14
M  V30 14 2 11 15
M  V30 15 2 13 16
M  V30 16 1 13 17
M  V30 17 1 15 18
M  V30 18 1 17 19
M  V30 19 1 19 20
M  V30 20 1 20 21
M  V30 21 1 20 22
M  V30 22 1 12 15
M  V30 23 1 14 17
M  V30 24 1 4 23
M  V30 25 1 7 24
M  V30 26 1 8 25
M  V30 27 1 10 26
M  V30 28 1 11 27
M  V30 29 1 12 28
M  V30 30 1 14 29
M  V30 31 1 18 30
M  V30 32 1 18 31
M  V30 33 1 19 32
M  V30 34 1 19 33
M  V30 35 1 20 34
M  V30 36 1 21 35
M  V30 37 1 21 36
M  V30 38 1 21 37
M  V30 39 1 22 38
M  V30 40 1 22 39
M  V30 41 1 22 40
M  V30 END BOND
M  V30 END CTAB
M  END
>  <Structure No>
7348

>  <LogS>
-3.11

>  <MMFF94 Energy>
-140.29

$$$$
Compound 7349
Actelion Java MolfileCreator 2.0

  0  0  0  0  0  0              0 V3000
M  V30 BEGIN CTAB
M  V30 COUNTS 39 40 0 0 0
M  V30 BEGIN ATOM
M  V30 1 F -1.8465 -3.5348 -2.1679 0
M  V30 2 C -1.2993 -2.5069 -1.4711 0
M  V30 3 C -1.9657 -1.2907 -1.351 0
M  V30 4 C -0.0534 -2.6513 -0.8744 0
M  V30 5 O -3.0896 -1.1465 -1.9072 0
M  V30 6 N -1.3965 -0.2629 -0.6472 0
M  V30 7 N 0.5014 -1.6207 -0.1739 0
M  V30 8 C -0.1604 -0.423 -0.0735 0
M  V30 9 C -2.0807 1.0014 -0.5346 0
M  V30 10 C 1.8342 -1.7891 0.4205 0
M  V30 11 O 0.3685 0.536 0.5581 0
M  V30 12 O -1.545 2.034 -1.0227 0
M  V30 13 C -3.3899 1.1081 0.1567 0
M  V30 14 O 2.7997 -1.1309 -0.3924 0
M  V30 15 C -4.1889 2.2553 -0.0061 0
M  V30 16 C -3.8438 0.0765 1.0004 0
M  V30 17 C 4.1545 -1.0689 -0.056 0
M  V30 18 C -5.4192 2.3603 0.6503 0
M  V30 19 C -5.0748 0.1869 1.6543 0
M  V30 20 O 4.5833 -1.6196 0.9947 0
M  V30 21 C 5.0944 -0.2983 -0.9298 0
M  V30 22 C -5.8623 1.3268 1.4785 0
M  V30 23 C 5.281 1.14 -0.43 0
M  V30 24 C 4.0098 1.9772 -0.5737 0
M  V30 25 H 0.4691 -3.5949 -0.9787 0
M  V30 26 H 1.849 -1.3594 1.4466 0
M  V30 27 H 2.0991 -2.8663 0.5125 0
M  V30 28 H -3.8669 3.0675 -0.6457 0
M  V30 29 H -3.2451 -0.8101 1.1648 0
M  V30 30 H -6.0295 3.2442 0.5163 0
M  V30 31 H -5.4166 -0.6106 2.3011 0
M  V30 32 H 6.0817 -0.8088 -0.9368 0
M  V30 33 H 4.7145 -0.2922 -1.9743 0
M  V30 34 H -6.8145 1.4105 1.9865 0
M  V30 35 H 6.0877 1.6197 -1.0252 0
M  V30 36 H 5.6035 1.1341 0.6341 0
M  V30 37 H 4.2202 3.0246 -0.2706 0
M  V30 38 H 3.6627 1.9768 -1.6288 0
M  V30 39 H 3.2042 1.58 0.0787 0
M  V30 END ATOM
M  V30 BEGIN BOND
M  V30 1 1 1 2
M  V30 2 1 2 3
M  V30 3 2 2 4
M  V30 4 2 3 5
M  V30 5 1 3 6
M  V30 6 1 4 7
M  V30 7 1 6 8
M  V30 8 1 6 9
M  V30 9 1 7 10
M  V30 10 2 8 11
M  V30 11 2 9 12
M  V30 12 1 9 13
M  V30 13 1 10 14
M  V30 14 2 13 15
M  V30 15 1 13 16
M  V30 16 1 14 17
M  V30 17 1 15 18
M  V30 18 2 16 19
M  V30 19 2 17 20
M  V30 20 1 17 21
M  V30 21 2 18 22
M  V30 22 1 21 23
M  V30 23 1 23 24
M  V30 24 1 7 8
M  V30 25 1 19 22
M  V30 26 1 4 25
M  V30 27 1 10 26
M  V30 28 1 10 27
M  V30 29 1 15 28
M  V30 30 1 16 29
M  V30 31 1 18 30
M  V30 32 1 19 31
M  V30 33 1 21 32
M  V30 34 1 21 33
M  V30 35 1 22 34
M  V30 36 1 23 35
M  V30 37 1 23 36
M  V30 38 1 24 37
M  V30 39 1 24 38
M  V30 40 1 24 39
M  V30 END BOND
M  V30 END CTAB
M  END
>  <Structure No>
7349

>  <LogS>
-3.73

>  <MMFF94 Energy>
-41.832

$$$$
Compound 7350
Actelion Java MolfileCreator 2.0

  0  0  0  0  0  0              0 V3000
M  V30 BEGIN CTAB
M  V30 COUNTS 42 44 0 0 0
M  V30 BEGIN ATOM
M  V30 1 F -0.4837 -3.39 -0.1612 0
M  V30 2 C 0.2948 -2.2851 -0.0472 0
M  V30 3 C -0.2838 -1.0225 0.1364 0
M  V30 4 C 1.6815 -2.4211 -0.0986 0
M  V30 5 N -1.713 -0.8695 0.1711 0
M  V30 6 C 0.5405 0.1016 0.2774 0
M  V30 7 C 2.5192 -1.2975 0.0367 0
M  V30 8 C -2.5352 -1.3765 -0.934 0
M  V30 9 C -2.3513 -0.3874 1.4015 0
M  V30 10 C 1.9471 -0.017 0.2428 0
M  V30 11 C 3.9183 -1.4241 -0.0386 0
M  V30 12 C -3.7246 -0.4365 -1.2349 0
M  V30 13 C -3.8513 -0.182 1.1907 0
M  V30 14 N 2.7615 1.0829 0.3719 0
M  V30 15 O 4.4372 -2.5605 -0.2192 0
M  V30 16 C 4.7342 -0.2844 0.085 0
M  V30 17 N -4.0564 0.472 -0.1111 0
M  V30 18 N 2.2173 2.3587 0.6291 0
M  V30 19 C 4.1187 0.9598 0.2917 0
M  V30 20 C 6.2186 -0.366 0.0107 0
M  V30 21 C -5.4416 0.954 -0.232 0
M  V30 22 C 2.5118 3.4954 -0.235 0
M  V30 23 O 6.9215 0.671 0.1456 0
M  V30 24 O 6.8606 -1.5795 -0.2096 0 CHG=-1
M  V30 25 H 2.0972 -3.4104 -0.2473 0
M  V30 26 H 0.0663 1.0671 0.3795 0
M  V30 27 H -1.9216 -1.4992 -1.854 0
M  V30 28 H -2.9257 -2.3788 -0.6525 0
M  V30 29 H -1.9022 0.5866 1.6931 0
M  V30 30 H -2.1812 -1.1149 2.2246 0
M  V30 31 H -3.4689 0.186 -2.1196 0
M  V30 32 H -4.5991 -1.0673 -1.5174 0
M  V30 33 H -4.3835 -1.1598 1.2282 0
M  V30 34 H -4.2367 0.4549 2.0182 0
M  V30 35 H 1.4974 2.4763 1.378 0
M  V30 36 H 4.736 1.8406 0.415 0
M  V30 37 H -5.6551 1.7102 0.5548 0
M  V30 38 H -5.5895 1.4482 -1.2165 0
M  V30 39 H -6.1657 0.1136 -0.1315 0
M  V30 40 H 3.5649 3.8144 -0.1003 0
M  V30 41 H 2.341 3.214 -1.2952 0
M  V30 42 H 1.8474 4.3475 0.023 0
M  V30 END ATOM
M  V30 BEGIN BOND
M  V30 1 1 1 2
M  V30 2 2 2 3
M  V30 3 1 2 4
M  V30 4 1 3 5
M  V30 5 1 3 6
M  V30 6 2 4 7
M  V30 7 1 5 8
M  V30 8 1 5 9
M  V30 9 2 6 10
M  V30 10 1 7 11
M  V30 11 1 8 12
M  V30 12 1 9 13
M  V30 13 1 10 14
M  V30 14 2 11 15
M  V30 15 1 11 16
M  V30 16 1 12 17
M  V30 17 1 14 18
M  V30 18 1 14 19
M  V30 19 1 16 20
M  V30 20 1 17 21
M  V30 21 1 18 22
M  V30 22 2 20 23
M  V30 23 1 20 24
M  V30 24 1 7 10
M  V30 25 1 13 17
M  V30 26 2 16 19
M  V30 27 1 4 25
M  V30 28 1 6 26
M  V30 29 1 8 27
M  V30 30 1 8 28
M  V30 31 1 9 29
M  V30 32 1 9 30
M  V30 33 1 12 31
M  V30 34 1 12 32
M  V30 35 1 13 33
M  V30 36 1 13 34
M  V30 37 1 18 35
M  V30 38 1 19 36
M  V30 39 1 21 37
M  V30 40 1 21 38
M  V30 41 1 21 39
M  V30 42 1 22 40
M  V30 43 1 22 41
M  V30 44 1 22 42
M  V30 END BOND
M  V30 END CTAB
M  END
>  <Structure No>
7350

>  <LogS>
-3.73

>  <MMFF94 Energy>
126.83

$$$$
Compound 7351
Actelion Java MolfileCreator 2.0

  0  0  0  0  0  0              0 V3000
M  V30 BEGIN CTAB
M  V30 COUNTS 34 35 0 0 0
M  V30 BEGIN ATOM
M  V30 1 S 6.4114 -0.3323 -0.4154 0
M  V30 2 O 6.9657 -0.6765 0.9389 0
M  V30 3 O 6.9673 0.9927 -0.8551 0
M  V30 4 N 6.8596 -1.5602 -1.5469 0
M  V30 5 C 4.6656 -0.2309 -0.3227 0
M  V30 6 S 3.6627 0.0696 -1.6524 0
M  V30 7 N 3.971 -0.3911 0.8292 0
M  V30 8 C 2.279 -0.0076 -0.705 0
M  V30 9 C 2.6379 -0.2638 0.6077 0
M  V30 10 C 0.951 0.1454 -1.0924 0
M  V30 11 C 1.66 -0.3836 1.5943 0
M  V30 12 C -0.0509 0.0472 -0.111 0
M  V30 13 C 0.3104 -0.233 1.2321 0
M  V30 14 O -1.3874 0.1917 -0.5099 0
M  V30 15 C -2.432 0.6494 0.3069 0
M  V30 16 O -2.1775 1.3168 1.3481 0
M  V30 17 C -3.8693 0.4687 -0.1409 0
M  V30 18 C -3.9947 -0.7888 -1.0245 0
M  V30 19 C -4.7941 0.308 1.0837 0
M  V30 20 C -4.296 1.7062 -0.949 0
M  V30 21 H 7.901 -1.6361 -1.5194 0
M  V30 22 H 6.4813 -2.4636 -1.183 0
M  V30 23 H 0.6971 0.3433 -2.126 0
M  V30 24 H 1.9324 -0.5989 2.6197 0
M  V30 25 H -0.4465 -0.3644 1.9928 0
M  V30 26 H -3.6518 -1.6896 -0.4703 0
M  V30 27 H -5.0509 -0.9487 -1.3321 0
M  V30 28 H -3.3827 -0.6896 -1.9471 0
M  V30 29 H -5.8455 0.1427 0.7627 0
M  V30 30 H -4.4758 -0.5607 1.6998 0
M  V30 31 H -4.7713 1.2181 1.7217 0
M  V30 32 H -5.3465 1.6038 -1.2977 0
M  V30 33 H -4.2228 2.625 -0.3271 0
M  V30 34 H -3.643 1.8361 -1.8395 0
M  V30 END ATOM
M  V30 BEGIN BOND
M  V30 1 2 1 2
M  V30 2 2 1 3
M  V30 3 1 1 4
M  V30 4 1 1 5
M  V30 5 1 5 6
M  V30 6 2 5 7
M  V30 7 1 6 8
M  V30 8 1 7 9
M  V30 9 1 8 10
M  V30 10 1 9 11
M  V30 11 2 10 12
M  V30 12 2 11 13
M  V30 13 1 12 14
M  V30 14 1 14 15
M  V30 15 2 15 16
M  V30 16 1 15 17
M  V30 17 1 17 18
M  V30 18 1 17 19
M  V30 19 1 17 20
M  V30 20 2 8 9
M  V30 21 1 12 13
M  V30 22 1 4 21
M  V30 23 1 4 22
M  V30 24 1 10 23
M  V30 25 1 11 24
M  V30 26 1 13 25
M  V30 27 1 18 26
M  V30 28 1 18 27
M  V30 29 1 18 28
M  V30 30 1 19 29
M  V30 31 1 19 30
M  V30 32 1 19 31
M  V30 33 1 20 32
M  V30 34 1 20 33
M  V30 35 1 20 34
M  V30 END BOND
M  V30 END CTAB
M  END
>  <Structure No>
7351

>  <LogS>
-3.73

>  <MMFF94 Energy>
16.36

$$$$
Compound 7352
Actelion Java MolfileCreator 2.0

  0  0  0  0  0  0              0 V3000
M  V30 BEGIN CTAB
M  V30 COUNTS 40 41 0 0 0
M  V30 BEGIN ATOM
M  V30 1 S -2.2643 -2.9119 1.0508 0
M  V30 2 O -3.3159 -3.966 0.8492 0
M  V30 3 O -1.547 -3.1778 2.345 0
M  V30 4 N -1.1228 -2.9851 -0.2548 0
M  V30 5 C -3.0436 -1.3331 1.0835 0
M  V30 6 C -0.0485 -2.0498 -0.4386 0
M  V30 7 C -3.3549 -0.72 2.305 0
M  V30 8 C -3.3535 -0.6809 -0.1173 0
M  V30 9 N 0.6807 -2.1047 -1.5812 0
M  V30 10 C 0.2737 -1.086 0.5213 0
M  V30 11 C -3.9631 0.5389 2.3248 0
M  V30 12 C -3.9609 0.5781 -0.0978 0
M  V30 13 C 1.706 -1.2474 -1.8239 0
M  V30 14 C 1.3245 -0.2088 0.2657 0
M  V30 15 C -4.2678 1.1948 1.1235 0
M  V30 16 O 2.3414 -1.3565 -2.9071 0
M  V30 17 N 2.0376 -0.283 -0.9019 0
M  V30 18 N -4.8883 2.4831 1.1437 0
M  V30 19 C 3.1516 0.6656 -1.1447 0 CFG=2
M  V30 20 C 4.2678 0.4654 -0.094 0
M  V30 21 C 2.6286 2.1114 -1.1734 0
M  V30 22 C 5.5688 1.1764 -0.4683 0
M  V30 23 H -1.2733 -3.7188 -0.9826 0
M  V30 24 H -3.1263 -1.2133 3.241 0
M  V30 25 H -3.1221 -1.1451 -1.0675 0
M  V30 26 H -0.2635 -1.0045 1.455 0
M  V30 27 H -4.1963 1.0031 3.2749 0
M  V30 28 H -4.1919 1.0727 -1.0329 0
M  V30 29 H 1.5647 0.5337 1.0161 0
M  V30 30 H -5.1191 2.9794 0.2541 0
M  V30 31 H -5.121 2.9504 2.0485 0
M  V30 32 H 3.6039 0.4811 -2.1436 0
M  V30 33 H 4.4836 -0.6217 -0.0055 0
M  V30 34 H 3.9356 0.8257 0.9033 0
M  V30 35 H 1.7446 2.1776 -1.8426 0
M  V30 36 H 2.3355 2.4549 -0.1592 0
M  V30 37 H 3.4057 2.798 -1.5695 0
M  V30 38 H 6.3547 0.9212 0.2734 0
M  V30 39 H 5.9147 0.8528 -1.4728 0
M  V30 40 H 5.4309 2.2775 -0.4606 0
M  V30 END ATOM
M  V30 BEGIN BOND
M  V30 1 2 1 2
M  V30 2 2 1 3
M  V30 3 1 1 4
M  V30 4 1 1 5
M  V30 5 1 4 6
M  V30 6 2 5 7
M  V30 7 1 5 8
M  V30 8 2 6 9
M  V30 9 1 6 10
M  V30 10 1 7 11
M  V30 11 2 8 12
M  V30 12 1 9 13
M  V30 13 2 10 14
M  V30 14 2 11 15
M  V30 15 2 13 16
M  V30 16 1 13 17
M  V30 17 1 15 18
M  V30 18 1 17 19
M  V30 19 1 19 20
M  V30 20 1 19 21
M  V30 21 1 20 22
M  V30 22 1 12 15
M  V30 23 1 14 17
M  V30 24 1 4 23
M  V30 25 1 7 24
M  V30 26 1 8 25
M  V30 27 1 10 26
M  V30 28 1 11 27
M  V30 29 1 12 28
M  V30 30 1 14 29
M  V30 31 1 18 30
M  V30 32 1 18 31
M  V30 33 1 19 32
M  V30 34 1 20 33
M  V30 35 1 20 34
M  V30 36 1 21 35
M  V30 37 1 21 36
M  V30 38 1 21 37
M  V30 39 1 22 38
M  V30 40 1 22 39
M  V30 41 1 22 40
M  V30 END BOND
M  V30 BEGIN COLLECTION
M  V30 MDLV30/STEABS ATOMS=(1 19)
M  V30 END COLLECTION
M  V30 END CTAB
M  END
>  <Structure No>
7352

>  <LogS>
-2.76

>  <MMFF94 Energy>
-139.96

$$$$
Compound 7353
Actelion Java MolfileCreator 2.0

  0  0  0  0  0  0              0 V3000
M  V30 BEGIN CTAB
M  V30 COUNTS 56 58 0 0 0
M  V30 BEGIN ATOM
M  V30 1 O -0.4799 0.0799 -3.0423 0
M  V30 2 C 0.1464 -1.0075 -2.8981 0
M  V30 3 O -0.4721 -2.1102 -2.296 0
M  V30 4 C 1.5874 -1.1171 -3.315 0 CFG=2
M  V30 5 C -1.7441 -2.0415 -1.6545 0
M  V30 6 C 2.4865 -0.5632 -2.2262 0
M  V30 7 C 1.8472 -0.4428 -4.6683 0
M  V30 8 C -1.6207 -1.3378 -0.3059 0
M  V30 9 C 3.3436 -1.4247 -1.5178 0
M  V30 10 C 2.4457 0.8001 -1.8772 0
M  V30 11 O -2.8818 -1.3475 0.3542 0
M  V30 12 C 4.1471 -0.9346 -0.4767 0
M  V30 13 C 3.2427 1.2944 -0.8436 0
M  V30 14 C -3.0849 -0.743 1.5983 0
M  V30 15 C 4.0947 0.4361 -0.1358 0
M  V30 16 C 4.996 -1.7936 0.2362 0
M  V30 17 O -2.1408 -0.1458 2.1844 0
M  V30 18 C -4.4446 -0.802 2.2379 0
M  V30 19 C 4.8903 0.9237 0.9123 0
M  V30 20 C 5.7842 -1.3002 1.2784 0
M  V30 21 N -5.3248 0.3251 1.8633 0
M  V30 22 C 5.7365 0.0647 1.6238 0
M  V30 23 C -4.7965 1.6369 2.2764 0
M  V30 24 C -5.6826 0.3311 0.4324 0
M  V30 25 O 6.5106 0.6051 2.6611 0
M  V30 26 C -5.8302 2.7409 1.9642 0
M  V30 27 C -6.5432 1.5658 0.0969 0
M  V30 28 C 7.4037 -0.148 3.4745 0
M  V30 29 O -6.9594 2.238 1.2705 0
M  V30 30 H 1.8047 -2.1988 -3.4598 0
M  V30 31 H -2.1118 -3.0761 -1.4884 0
M  V30 32 H -2.4767 -1.5128 -2.3027 0
M  V30 33 H 2.9111 -0.5781 -4.9608 0
M  V30 34 H 1.2093 -0.9081 -5.4511 0
M  V30 35 H 1.623 0.6439 -4.6324 0
M  V30 36 H -1.2898 -0.2878 -0.4595 0
M  V30 37 H -0.8691 -1.8677 0.3202 0
M  V30 38 H 3.3776 -2.4783 -1.7703 0
M  V30 39 H 1.7853 1.4823 -2.3971 0
M  V30 40 H 3.1885 2.3469 -0.5937 0
M  V30 41 H 5.0475 -2.847 -0.0097 0
M  V30 42 H -4.9328 -1.7612 1.9576 0
M  V30 43 H -4.3286 -0.8268 3.3428 0
M  V30 44 H 4.854 1.9731 1.1837 0
M  V30 45 H 6.4271 -1.9882 1.8113 0
M  V30 46 H -4.5788 1.6322 3.3677 0
M  V30 47 H -3.852 1.8652 1.7346 0
M  V30 48 H -4.7738 0.3493 -0.2063 0
M  V30 49 H -6.2556 -0.5917 0.1938 0
M  V30 50 H -6.1842 3.1854 2.9184 0
M  V30 51 H -5.3571 3.565 1.384 0
M  V30 52 H -7.4466 1.2407 -0.4613 0
M  V30 53 H -5.9861 2.2599 -0.5721 0
M  V30 54 H 6.8438 -0.9252 4.0353 0
M  V30 55 H 7.8939 0.5318 4.2011 0
M  V30 56 H 8.1882 -0.6194 2.8459 0
M  V30 END ATOM
M  V30 BEGIN BOND
M  V30 1 2 1 2
M  V30 2 1 2 3
M  V30 3 1 2 4
M  V30 4 1 3 5
M  V30 5 1 4 6
M  V30 6 1 4 7
M  V30 7 1 5 8
M  V30 8 2 6 9
M  V30 9 1 6 10
M  V30 10 1 8 11
M  V30 11 1 9 12
M  V30 12 2 10 13
M  V30 13 1 11 14
M  V30 14 1 12 15
M  V30 15 2 12 16
M  V30 16 2 14 17
M  V30 17 1 14 18
M  V30 18 2 15 19
M  V30 19 1 16 20
M  V30 20 1 18 21
M  V30 21 1 19 22
M  V30 22 1 21 23
M  V30 23 1 21 24
M  V30 24 1 22 25
M  V30 25 1 23 26
M  V30 26 1 24 27
M  V30 27 1 25 28
M  V30 28 1 26 29
M  V30 29 1 13 15
M  V30 30 2 20 22
M  V30 31 1 27 29
M  V30 32 1 4 30
M  V30 33 1 5 31
M  V30 34 1 5 32
M  V30 35 1 7 33
M  V30 36 1 7 34
M  V30 37 1 7 35
M  V30 38 1 8 36
M  V30 39 1 8 37
M  V30 40 1 9 38
M  V30 41 1 10 39
M  V30 42 1 13 40
M  V30 43 1 16 41
M  V30 44 1 18 42
M  V30 45 1 18 43
M  V30 46 1 19 44
M  V30 47 1 20 45
M  V30 48 1 23 46
M  V30 49 1 23 47
M  V30 50 1 24 48
M  V30 51 1 24 49
M  V30 52 1 26 50
M  V30 53 1 26 51
M  V30 54 1 27 52
M  V30 55 1 27 53
M  V30 56 1 28 54
M  V30 57 1 28 55
M  V30 58 1 28 56
M  V30 END BOND
M  V30 BEGIN COLLECTION
M  V30 MDLV30/STEABS ATOMS=(1 4)
M  V30 END COLLECTION
M  V30 END CTAB
M  END
>  <Structure No>
7353

>  <LogS>
-4.3

>  <MMFF94 Energy>
150.84

$$$$
Compound 7354
Actelion Java MolfileCreator 2.0

  0  0  0  0  0  0              0 V3000
M  V30 BEGIN CTAB
M  V30 COUNTS 22 23 0 0 0
M  V30 BEGIN ATOM
M  V30 1 Cl -5.3564 -0.0921 -0.2765 0
M  V30 2 C -3.5931 -0.0536 -0.1953 0
M  V30 3 C -2.887 1.0165 -0.7704 0
M  V30 4 C -2.8969 -1.093 0.4445 0
M  V30 5 Cl -3.7646 2.3196 -1.5762 0
M  V30 6 C -1.483 1.0487 -0.7073 0
M  V30 7 Cl -3.7872 -2.4344 1.1694 0
M  V30 8 C -1.493 -1.0639 0.5108 0
M  V30 9 Cl -0.6024 2.3838 -1.4612 0
M  V30 10 C -0.7816 0.0077 -0.0659 0
M  V30 11 Cl -0.6281 -2.36 1.3462 0
M  V30 12 C 0.6948 0.0403 0.0022 0
M  V30 13 C 1.3421 0.9486 0.853 0
M  V30 14 C 1.4567 -0.8359 -0.7833 0
M  V30 15 C 2.74 0.983 0.9192 0
M  V30 16 C 2.8519 -0.8041 -0.7185 0
M  V30 17 Cl 3.5127 2.137 1.9975 0
M  V30 18 C 3.4988 0.102 0.1296 0
M  V30 19 Cl 5.2562 0.1126 0.1833 0
M  V30 20 H 0.7588 1.6273 1.464 0
M  V30 21 H 0.9693 -1.5407 -1.4457 0
M  V30 22 H 3.4304 -1.4851 -1.3295 0
M  V30 END ATOM
M  V30 BEGIN BOND
M  V30 1 1 1 2
M  V30 2 2 2 3
M  V30 3 1 2 4
M  V30 4 1 3 5
M  V30 5 1 3 6
M  V30 6 1 4 7
M  V30 7 2 4 8
M  V30 8 1 6 9
M  V30 9 2 6 10
M  V30 10 1 8 11
M  V30 11 1 10 12
M  V30 12 2 12 13
M  V30 13 1 12 14
M  V30 14 1 13 15
M  V30 15 2 14 16
M  V30 16 1 15 17
M  V30 17 2 15 18
M  V30 18 1 18 19
M  V30 19 1 8 10
M  V30 20 1 16 18
M  V30 21 1 13 20
M  V30 22 1 14 21
M  V30 23 1 16 22
M  V30 END BOND
M  V30 END CTAB
M  END
>  <Structure No>
7354

>  <LogS>
-8.9

>  <MMFF94 Energy>
65.19

$$$$
Compound 7355
Actelion Java MolfileCreator 2.0

  0  0  0  0  0  0              0 V3000
M  V30 BEGIN CTAB
M  V30 COUNTS 22 23 0 0 0
M  V30 BEGIN ATOM
M  V30 1 Cl 0.8293 -2.3971 -1.198 0
M  V30 2 C 1.5961 -0.947 -0.5417 0
M  V30 3 C 0.8125 0.1064 -0.0212 0
M  V30 4 C 2.9962 -0.8318 -0.5616 0
M  V30 5 C 1.4434 1.2684 0.475 0
M  V30 6 C -0.6613 -0.0065 0.0041 0
M  V30 7 Cl 4.011 -2.1175 -1.2038 0
M  V30 8 C 3.6102 0.3212 -0.0692 0
M  V30 9 Cl 0.4872 2.5864 1.1609 0
M  V30 10 C 2.8446 1.3683 0.4468 0
M  V30 11 C -1.2855 -0.8859 0.8987 0
M  V30 12 C -1.4425 0.7648 -0.8662 0
M  V30 13 Cl 3.6728 2.7955 1.0574 0
M  V30 14 C -2.6797 -0.9965 0.9258 0
M  V30 15 C -2.8374 0.6617 -0.8453 0
M  V30 16 Cl -3.4161 -2.115 2.0661 0
M  V30 17 C -3.4641 -0.2215 0.0523 0
M  V30 18 Cl -3.7743 1.6518 -1.9568 0
M  V30 19 Cl -5.2219 -0.3562 0.0826 0
M  V30 20 H 4.6897 0.404 -0.0877 0
M  V30 21 H -0.6866 -1.4833 1.5756 0
M  V30 22 H -0.9652 1.445 -1.5615 0
M  V30 END ATOM
M  V30 BEGIN BOND
M  V30 1 1 1 2
M  V30 2 2 2 3
M  V30 3 1 2 4
M  V30 4 1 3 5
M  V30 5 1 3 6
M  V30 6 1 4 7
M  V30 7 2 4 8
M  V30 8 1 5 9
M  V30 9 2 5 10
M  V30 10 2 6 11
M  V30 11 1 6 12
M  V30 12 1 10 13
M  V30 13 1 11 14
M  V30 14 2 12 15
M  V30 15 1 14 16
M  V30 16 2 14 17
M  V30 17 1 15 18
M  V30 18 1 17 19
M  V30 19 1 8 10
M  V30 20 1 15 17
M  V30 21 1 8 20
M  V30 22 1 11 21
M  V30 23 1 12 22
M  V30 END BOND
M  V30 END CTAB
M  END
>  <Structure No>
7355

>  <LogS>
-9.1

>  <MMFF94 Energy>
56.934

$$$$
Compound 7356
Actelion Java MolfileCreator 2.0

  0  0  0  0  0  0              0 V3000
M  V30 BEGIN CTAB
M  V30 COUNTS 54 57 0 0 0
M  V30 BEGIN ATOM
M  V30 1 O -0.89 -3.6447 -0.4044 0
M  V30 2 C -1.8352 -2.8146 -0.3262 0
M  V30 3 C -3.2547 -3.2435 -0.4889 0
M  V30 4 C -1.5444 -1.3962 -0.0606 0
M  V30 5 C -4.2457 -2.3108 -0.4403 0
M  V30 6 C -3.5648 -4.7029 -0.7161 0
M  V30 7 N -0.2505 -0.8164 -0.0291 0
M  V30 8 C -2.4984 -0.5025 0.0355 0
M  V30 9 N -5.6267 -2.6722 -0.61 0
M  V30 10 C -3.9038 -0.8778 -0.2189 0
M  V30 11 C -0.3756 0.5899 0.3288 0 CFG=1
M  V30 12 C 0.689 -1.0163 -1.1182 0
M  V30 13 C -1.9224 0.8774 0.1819 0 CFG=2
M  V30 14 O -4.7975 0.0077 -0.2841 0
M  V30 15 O 0.1046 0.7248 1.666 0
M  V30 16 C 0.4849 1.3185 -0.7352 0 CFG=2
M  V30 17 C 1.0577 0.3815 -1.5751 0 CFG=1
M  V30 18 C -2.592 1.6344 1.3517 0
M  V30 19 C 0.4271 2.0496 2.0512 0
M  V30 20 N 1.9582 1.0646 -0.6031 0 CFG=1
M  V30 21 O -2.2427 3.0172 1.3363 0
M  V30 22 C 3.2544 1.2833 -0.0583 0
M  V30 23 C -2.7599 3.9352 0.4162 0
M  V30 24 O 3.4433 2.227 0.7545 0
M  V30 25 O 4.308 0.4553 -0.4497 0
M  V30 26 O -3.6378 3.5877 -0.4195 0
M  V30 27 N -2.2916 5.2807 0.43 0
M  V30 28 C 5.6305 0.6007 0.059 0
M  V30 29 C 6.5445 -0.4637 -0.5467 0
M  V30 30 C 6.1255 -1.8727 -0.1324 0
M  V30 31 H -4.2369 -5.0763 0.0853 0
M  V30 32 H -2.6504 -5.3305 -0.7032 0
M  V30 33 H -4.0518 -4.8354 -1.7052 0
M  V30 34 H -5.9368 -3.6518 -0.7899 0
M  V30 35 H -6.3757 -1.9468 -0.5571 0
M  V30 36 H 1.582 -1.5709 -0.7591 0
M  V30 37 H 0.2174 -1.5635 -1.9634 0
M  V30 38 H -2.1222 1.4184 -0.7686 0
M  V30 39 H 0.2371 2.3186 -1.1502 0
M  V30 40 H 1.2722 0.6456 -2.6318 0
M  V30 41 H -2.2922 1.1882 2.3225 0
M  V30 42 H -3.6971 1.5518 1.304 0
M  V30 43 H 0.2707 2.8246 1.2714 0
M  V30 44 H -0.1804 2.3243 2.9376 0
M  V30 45 H 1.4862 2.08 2.3723 0
M  V30 46 H -1.5633 5.575 1.1175 0
M  V30 47 H -2.6682 5.9801 -0.2476 0
M  V30 48 H 6.0201 1.6067 -0.2095 0
M  V30 49 H 5.6229 0.5067 1.1672 0
M  V30 50 H 7.5866 -0.2826 -0.2057 0
M  V30 51 H 6.5234 -0.3832 -1.6552 0
M  V30 52 H 5.1005 -2.0969 -0.4973 0
M  V30 53 H 6.8266 -2.6124 -0.5731 0
M  V30 54 H 6.1518 -1.974 0.9734 0
M  V30 END ATOM
M  V30 BEGIN BOND
M  V30 1 2 1 2
M  V30 2 1 2 3
M  V30 3 1 2 4
M  V30 4 2 3 5
M  V30 5 1 3 6
M  V30 6 1 4 7
M  V30 7 2 4 8
M  V30 8 1 5 9
M  V30 9 1 5 10
M  V30 10 1 7 11
M  V30 11 1 7 12
M  V30 12 1 8 13
M  V30 13 2 10 14
M  V30 14 1 11 15
M  V30 15 1 11 16
M  V30 16 1 12 17
M  V30 17 1 13 18
M  V30 18 1 15 19
M  V30 19 1 16 20
M  V30 20 1 18 21
M  V30 21 1 20 22
M  V30 22 1 21 23
M  V30 23 2 22 24
M  V30 24 1 22 25
M  V30 25 2 23 26
M  V30 26 1 23 27
M  V30 27 1 25 28
M  V30 28 1 28 29
M  V30 29 1 29 30
M  V30 30 1 8 10
M  V30 31 1 11 13
M  V30 32 1 16 17
M  V30 33 1 17 20
M  V30 34 1 6 31
M  V30 35 1 6 32
M  V30 36 1 6 33
M  V30 37 1 9 34
M  V30 38 1 9 35
M  V30 39 1 12 36
M  V30 40 1 12 37
M  V30 41 1 13 38
M  V30 42 1 16 39
M  V30 43 1 17 40
M  V30 44 1 18 41
M  V30 45 1 18 42
M  V30 46 1 19 43
M  V30 47 1 19 44
M  V30 48 1 19 45
M  V30 49 1 27 46
M  V30 50 1 27 47
M  V30 51 1 28 48
M  V30 52 1 28 49
M  V30 53 1 29 50
M  V30 54 1 29 51
M  V30 55 1 30 52
M  V30 56 1 30 53
M  V30 57 1 30 54
M  V30 END BOND
M  V30 BEGIN COLLECTION
M  V30 MDLV30/STEABS ATOMS=(5 11 13 16 17 20)
M  V30 END COLLECTION
M  V30 END CTAB
M  END
>  <Structure No>
7356

>  <LogS>
-3.48

>  <MMFF94 Energy>
12.244

$$$$
Compound 7357
Actelion Java MolfileCreator 2.0

  0  0  0  0  0  0              0 V3000
M  V30 BEGIN CTAB
M  V30 COUNTS 38 40 0 0 0
M  V30 BEGIN ATOM
M  V30 1 O -5.2568 -1.5111 0.3975 0
M  V30 2 C -4.2472 -0.7604 0.276 0
M  V30 3 N -4.4147 0.6128 0.2139 0
M  V30 4 N -2.9903 -1.3201 0.2099 0
M  V30 5 C -3.3182 1.4435 0.1572 0
M  V30 6 C -5.7678 1.1899 0.2886 0
M  V30 7 C -1.9203 -0.4816 0.1521 0
M  V30 8 C -2.8016 -2.7753 0.2816 0
M  V30 9 O -3.454 2.6972 0.1262 0
M  V30 10 C -2.0517 0.8651 0.1337 0
M  V30 11 N -0.6239 -0.8367 0.0891 0
M  V30 12 N -0.8268 1.4263 0.0802 0
M  V30 13 C 0.0214 0.359 0.0328 0
M  V30 14 C -0.4941 2.8508 0.0023 0
M  V30 15 C 1.4913 0.4648 -0.1064 0
M  V30 16 C 2.2829 -0.6164 -0.0679 0
M  V30 17 C 3.7577 -0.5638 -0.2219 0
M  V30 18 C 4.4357 -1.7322 -0.6117 0
M  V30 19 C 4.5075 0.6012 0.0433 0
M  V30 20 C 5.826 -1.7313 -0.7597 0
M  V30 21 C 5.8983 0.5954 -0.1055 0
M  V30 22 C 6.5563 -0.5678 -0.5099 0
M  V30 23 H -6.0514 1.3367 1.3521 0
M  V30 24 H -5.8226 2.1652 -0.2407 0
M  V30 25 H -6.5138 0.5275 -0.2002 0
M  V30 26 H -1.8329 -3.0806 -0.1683 0
M  V30 27 H -2.8261 -3.1015 1.3427 0
M  V30 28 H -3.601 -3.3023 -0.282 0
M  V30 29 H -0.5816 3.1983 -1.048 0
M  V30 30 H 0.5325 3.0416 0.3722 0
M  V30 31 H -1.1707 3.4435 0.6505 0
M  V30 32 H 1.922 1.4375 -0.2828 0
M  V30 33 H 1.8306 -1.5953 0.0429 0
M  V30 34 H 3.8869 -2.6449 -0.8104 0
M  V30 35 H 4.0344 1.5099 0.3887 0
M  V30 36 H 6.3374 -2.6344 -1.0672 0
M  V30 37 H 6.4672 1.493 0.1003 0
M  V30 38 H 7.6327 -0.5694 -0.6232 0
M  V30 END ATOM
M  V30 BEGIN BOND
M  V30 1 2 1 2
M  V30 2 1 2 3
M  V30 3 1 2 4
M  V30 4 1 3 5
M  V30 5 1 3 6
M  V30 6 1 4 7
M  V30 7 1 4 8
M  V30 8 2 5 9
M  V30 9 1 5 10
M  V30 10 1 7 11
M  V30 11 1 10 12
M  V30 12 2 11 13
M  V30 13 1 12 14
M  V30 14 1 13 15
M  V30 15 2 15 16
M  V30 16 1 16 17
M  V30 17 2 17 18
M  V30 18 1 17 19
M  V30 19 1 18 20
M  V30 20 2 19 21
M  V30 21 2 20 22
M  V30 22 2 7 10
M  V30 23 1 12 13
M  V30 24 1 21 22
M  V30 25 1 6 23
M  V30 26 1 6 24
M  V30 27 1 6 25
M  V30 28 1 8 26
M  V30 29 1 8 27
M  V30 30 1 8 28
M  V30 31 1 14 29
M  V30 32 1 14 30
M  V30 33 1 14 31
M  V30 34 1 15 32
M  V30 35 1 16 33
M  V30 36 1 18 34
M  V30 37 1 19 35
M  V30 38 1 20 36
M  V30 39 1 21 37
M  V30 40 1 22 38
M  V30 END BOND
M  V30 END CTAB
M  END
>  <Structure No>
7357

>  <LogS>
-5.55

>  <MMFF94 Energy>
-104.53

$$$$
Compound 7358
Actelion Java MolfileCreator 2.0

  0  0  0  0  0  0              0 V3000
M  V30 BEGIN CTAB
M  V30 COUNTS 64 65 0 0 0
M  V30 BEGIN ATOM
M  V30 1 O -4.3523 1.5018 1.5018 0
M  V30 2 C -4.4884 0.7717 0.481 0
M  V30 3 O -3.6469 -0.3267 0.2803 0
M  V30 4 C -5.5874 1.0709 -0.5108 0 CFG=1
M  V30 5 C -2.6248 -0.6893 1.2008 0
M  V30 6 N -5.0856 0.9558 -1.8888 0 CHG=1
M  V30 7 C -6.8592 0.1925 -0.2778 0 CFG=2
M  V30 8 C -1.9029 -1.9354 0.6875 0
M  V30 9 C -7.4898 0.4018 1.1227 0
M  V30 10 C -6.5973 -1.3085 -0.4986 0
M  V30 11 C -0.8637 -2.4715 1.6857 0
M  V30 12 C -8.0102 1.8216 1.3457 0
M  V30 13 C 0.3822 -1.5878 1.8279 0
M  V30 14 O 1.1429 -1.5814 0.6205 0
M  V30 15 C 1.0788 -0.5649 -0.3416 0
M  V30 16 O 0.3906 0.4705 -0.1365 0
M  V30 17 C 1.8878 -0.6721 -1.6049 0 CFG=1
M  V30 18 C 3.2726 -0.0912 -1.4022 0
M  V30 19 C 1.9646 -2.1196 -2.1032 0
M  V30 20 C 4.1278 -0.5902 -0.4011 0
M  V30 21 C 3.7231 0.9533 -2.2269 0
M  V30 22 C 5.4084 -0.046 -0.2201 0
M  V30 23 C 4.9994 1.4968 -2.0563 0
M  V30 24 C 5.8492 1.0063 -1.055 0
M  V30 25 C 6.2552 -0.5346 0.7846 0
M  V30 26 C 7.1311 1.5505 -0.8742 0
M  V30 27 C 7.5256 0.0166 0.9623 0
M  V30 28 C 7.9751 1.0573 0.1404 0
M  V30 29 O 9.2593 1.5724 0.3663 0
M  V30 30 C 9.8528 2.6163 -0.3981 0
M  V30 31 H -5.8834 2.1332 -0.3718 0
M  V30 32 H -1.912 0.1547 1.3031 0
M  V30 33 H -3.0818 -0.9024 2.1911 0
M  V30 34 H -5.8627 1.1178 -2.5705 0
M  V30 35 H -4.3533 1.6847 -2.0535 0
M  V30 36 H -4.6599 0.0192 -2.0678 0
M  V30 37 H -7.6205 0.4967 -1.0312 0
M  V30 38 H -2.6623 -2.7302 0.5202 0
M  V30 39 H -1.4292 -1.7237 -0.2938 0
M  V30 40 H -8.3542 -0.2885 1.236 0
M  V30 41 H -6.7613 0.1481 1.9232 0
M  V30 42 H -5.866 -1.6985 0.2393 0
M  V30 43 H -6.2256 -1.5046 -1.5244 0
M  V30 44 H -7.5423 -1.8805 -0.3829 0
M  V30 45 H -0.5406 -3.4816 1.351 0
M  V30 46 H -1.3383 -2.5952 2.6837 0
M  V30 47 H -8.6115 1.8504 2.2787 0
M  V30 48 H -8.6557 2.1389 0.499 0
M  V30 49 H -7.1712 2.5368 1.4634 0
M  V30 50 H 0.1248 -0.5584 2.1564 0
M  V30 51 H 1.018 -2.0259 2.6265 0
M  V30 52 H 1.3525 -0.0939 -2.391 0
M  V30 53 H 0.9407 -2.5175 -2.2713 0
M  V30 54 H 2.5163 -2.1592 -3.0663 0
M  V30 55 H 2.486 -2.7721 -1.3709 0
M  V30 56 H 3.7941 -1.3992 0.2379 0
M  V30 57 H 3.0865 1.3509 -3.0069 0
M  V30 58 H 5.3202 2.3024 -2.7057 0
M  V30 59 H 5.9338 -1.3405 1.4336 0
M  V30 60 H 7.4634 2.3546 -1.5206 0
M  V30 61 H 8.1671 -0.3674 1.7455 0
M  V30 62 H 9.2487 3.545 -0.3131 0
M  V30 63 H 10.8693 2.8193 -0.0058 0
M  V30 64 H 9.9359 2.3102 -1.4616 0
M  V30 END ATOM
M  V30 BEGIN BOND
M  V30 1 2 1 2
M  V30 2 1 2 3
M  V30 3 1 2 4
M  V30 4 1 3 5
M  V30 5 1 4 6
M  V30 6 1 4 7
M  V30 7 1 5 8
M  V30 8 1 7 9
M  V30 9 1 7 10
M  V30 10 1 8 11
M  V30 11 1 9 12
M  V30 12 1 11 13
M  V30 13 1 13 14
M  V30 14 1 14 15
M  V30 15 2 15 16
M  V30 16 1 15 17
M  V30 17 1 17 18
M  V30 18 1 17 19
M  V30 19 2 18 20
M  V30 20 1 18 21
M  V30 21 1 20 22
M  V30 22 2 21 23
M  V30 23 1 22 24
M  V30 24 2 22 25
M  V30 25 2 24 26
M  V30 26 1 25 27
M  V30 27 1 26 28
M  V30 28 1 28 29
M  V30 29 1 29 30
M  V30 30 1 23 24
M  V30 31 2 27 28
M  V30 32 1 4 31
M  V30 33 1 5 32
M  V30 34 1 5 33
M  V30 35 1 6 34
M  V30 36 1 6 35
M  V30 37 1 6 36
M  V30 38 1 7 37
M  V30 39 1 8 38
M  V30 40 1 8 39
M  V30 41 1 9 40
M  V30 42 1 9 41
M  V30 43 1 10 42
M  V30 44 1 10 43
M  V30 45 1 10 44
M  V30 46 1 11 45
M  V30 47 1 11 46
M  V30 48 1 12 47
M  V30 49 1 12 48
M  V30 50 1 12 49
M  V30 51 1 13 50
M  V30 52 1 13 51
M  V30 53 1 17 52
M  V30 54 1 19 53
M  V30 55 1 19 54
M  V30 56 1 19 55
M  V30 57 1 20 56
M  V30 58 1 21 57
M  V30 59 1 23 58
M  V30 60 1 25 59
M  V30 61 1 26 60
M  V30 62 1 27 61
M  V30 63 1 30 62
M  V30 64 1 30 63
M  V30 65 1 30 64
M  V30 END BOND
M  V30 BEGIN COLLECTION
M  V30 MDLV30/STEABS ATOMS=(3 4 7 17)
M  V30 END COLLECTION
M  V30 END CTAB
M  END
>  <Structure No>
7358

>  <LogS>
-4.52

>  <MMFF94 Energy>
77.007

$$$$
Compound 7359
Actelion Java MolfileCreator 2.0

  0  0  0  0  0  0              0 V3000
M  V30 BEGIN CTAB
M  V30 COUNTS 56 62 0 0 0
M  V30 BEGIN ATOM
M  V30 1 O 1.0655 3.8563 -0.2458 0
M  V30 2 C 0.169 2.9782 -0.1433 0
M  V30 3 N 0.5124 1.5938 -0.0511 0
M  V30 4 C -1.2967 3.3832 0.0027 0
M  V30 5 C 1.7309 0.8347 -0.0949 0
M  V30 6 C -0.4354 0.6108 -0.4516 0 CFG=1
M  V30 7 C -2.3566 2.3161 -0.455 0 CFG=1
M  V30 8 C 1.4627 -0.5406 -0.091 0
M  V30 9 C 3.0317 1.3151 -0.2026 0
M  V30 10 C -0.0019 -0.7147 0.2252 0 CFG=2
M  V30 11 C -1.8643 0.8927 -0.1775 0 CFG=1
M  V30 12 O -3.5636 2.5263 0.2917 0
M  V30 13 C 2.4905 -1.4754 -0.1231 0
M  V30 14 C 4.0925 0.38 -0.2791 0
M  V30 15 C -0.9729 -1.8743 -0.2164 0 CFG=1
M  V30 16 C -0.1014 -0.7365 1.7657 0
M  V30 17 C -2.6829 -0.2071 -0.9434 0 CFG=1
M  V30 18 C -4.6534 1.6794 -0.0944 0
M  V30 19 C 3.8227 -1.0113 -0.2362 0
M  V30 20 O 5.4301 0.7902 -0.3938 0
M  V30 21 N -1.8708 -2.2065 0.9518 0 CHG=1 CFG=1
M  V30 22 C -1.8472 -1.4439 -1.4129 0
M  V30 23 C -1.3626 -1.4937 2.1406 0
M  V30 24 C -3.6725 -0.653 0.0637 0
M  V30 25 C -4.5796 0.2585 0.4995 0
M  V30 26 O 4.9092 -1.8977 -0.2992 0
M  V30 27 C 5.8552 2.1481 -0.4475 0
M  V30 28 C -3.3566 -1.9658 0.7853 0
M  V30 29 C 4.7938 -3.3164 -0.2647 0
M  V30 30 H -1.4607 3.6086 1.0787 0
M  V30 31 H -1.4738 4.326 -0.5583 0
M  V30 32 H -0.3264 0.5678 -1.5657 0
M  V30 33 H -2.536 2.4572 -1.545 0
M  V30 34 H 3.2122 2.3796 -0.23 0
M  V30 35 H -1.969 0.8171 0.926 0
M  V30 36 H 2.255 -2.5277 -0.0452 0
M  V30 37 H -0.3677 -2.763 -0.5048 0
M  V30 38 H -0.0969 0.2828 2.2115 0
M  V30 39 H 0.7613 -1.289 2.2041 0
M  V30 40 H -3.185 0.1951 -1.8497 0
M  V30 41 H -5.5824 2.1457 0.2941 0
M  V30 42 H -4.7819 1.6533 -1.1983 0
M  V30 43 H -1.7624 -3.2327 1.1373 0
M  V30 44 H -2.5131 -2.2763 -1.7301 0
M  V30 45 H -1.2271 -1.2204 -2.3065 0
M  V30 46 H -1.1412 -2.2132 2.9623 0
M  V30 47 H -2.102 -0.7709 2.5546 0
M  V30 48 H -5.2549 -0.0039 1.3082 0
M  V30 49 H 5.5608 2.6774 0.4834 0
M  V30 50 H 6.9601 2.1786 -0.539 0
M  V30 51 H 5.411 2.6526 -1.3314 0
M  V30 52 H -3.8745 -2.0048 1.7704 0
M  V30 53 H -3.7993 -2.794 0.1898 0
M  V30 54 H 5.8059 -3.7642 -0.3381 0
M  V30 55 H 4.1846 -3.6709 -1.1227 0
M  V30 56 H 4.3313 -3.6386 0.692 0
M  V30 END ATOM
M  V30 BEGIN BOND
M  V30 1 2 1 2
M  V30 2 1 2 3
M  V30 3 1 2 4
M  V30 4 1 3 5
M  V30 5 1 3 6
M  V30 6 1 4 7
M  V30 7 2 5 8
M  V30 8 1 5 9
M  V30 9 1 6 10
M  V30 10 1 6 11
M  V30 11 1 7 12
M  V30 12 1 8 13
M  V30 13 2 9 14
M  V30 14 1 10 15
M  V30 15 1 10 16
M  V30 16 1 11 17
M  V30 17 1 12 18
M  V30 18 2 13 19
M  V30 19 1 14 20
M  V30 20 1 15 21
M  V30 21 1 15 22
M  V30 22 1 16 23
M  V30 23 1 17 24
M  V30 24 1 18 25
M  V30 25 1 19 26
M  V30 26 1 20 27
M  V30 27 1 21 28
M  V30 28 1 26 29
M  V30 29 1 7 11
M  V30 30 1 8 10
M  V30 31 1 14 19
M  V30 32 1 17 22
M  V30 33 1 21 23
M  V30 34 2 24 25
M  V30 35 1 24 28
M  V30 36 1 4 30
M  V30 37 1 4 31
M  V30 38 1 6 32
M  V30 39 1 7 33
M  V30 40 1 9 34
M  V30 41 1 11 35
M  V30 42 1 13 36
M  V30 43 1 15 37
M  V30 44 1 16 38
M  V30 45 1 16 39
M  V30 46 1 17 40
M  V30 47 1 18 41
M  V30 48 1 18 42
M  V30 49 1 21 43
M  V30 50 1 22 44
M  V30 51 1 22 45
M  V30 52 1 23 46
M  V30 53 1 23 47
M  V30 54 1 25 48
M  V30 55 1 27 49
M  V30 56 1 27 50
M  V30 57 1 27 51
M  V30 58 1 28 52
M  V30 59 1 28 53
M  V30 60 1 29 54
M  V30 61 1 29 55
M  V30 62 1 29 56
M  V30 END BOND
M  V30 BEGIN COLLECTION
M  V30 MDLV30/STEABS ATOMS=(7 6 7 10 11 15 17 21)
M  V30 END COLLECTION
M  V30 END CTAB
M  END
>  <Structure No>
7359

>  <LogS>
-2.79

>  <MMFF94 Energy>
110.12

$$$$
Compound 7360
Actelion Java MolfileCreator 2.0

  0  0  0  0  0  0              0 V3000
M  V30 BEGIN CTAB
M  V30 COUNTS 23 24 0 0 0
M  V30 BEGIN ATOM
M  V30 1 Cl -3.4897 1.5602 -2.2949 0
M  V30 2 C -2.9135 0.5411 -0.9743 0
M  V30 3 C -3.6779 -0.5631 -0.5515 0
M  V30 4 C -1.6928 0.8364 -0.3373 0
M  V30 5 Cl -5.2074 -0.9427 -1.3449 0
M  V30 6 C -3.2238 -1.3595 0.5132 0
M  V30 7 Cl -0.7721 2.2667 -0.8054 0
M  V30 8 C -1.2335 0.0147 0.7105 0
M  V30 9 Cl -4.1523 -2.7409 1.0837 0
M  V30 10 C -2.0116 -1.0625 1.1399 0
M  V30 11 O -0.0192 0.2651 1.3616 0
M  V30 12 C 1.2349 0.2643 0.7321 0
M  V30 13 C 2.3225 0.8242 1.4087 0
M  V30 14 C 1.4328 -0.3004 -0.5403 0
M  V30 15 C 3.5931 0.8448 0.8235 0
M  V30 16 C 2.6993 -0.284 -1.134 0
M  V30 17 Cl 4.9232 1.5711 1.7168 0
M  V30 18 C 3.7875 0.2918 -0.4546 0
M  V30 19 Cl 2.8926 -0.9963 -2.7309 0
M  V30 20 Cl 5.386 0.3162 -1.1986 0
M  V30 21 H -1.6618 -1.6811 1.9571 0
M  V30 22 H 2.176 1.2515 2.3931 0
M  V30 23 H 0.6081 -0.7593 -1.0701 0
M  V30 END ATOM
M  V30 BEGIN BOND
M  V30 1 1 1 2
M  V30 2 2 2 3
M  V30 3 1 2 4
M  V30 4 1 3 5
M  V30 5 1 3 6
M  V30 6 1 4 7
M  V30 7 2 4 8
M  V30 8 1 6 9
M  V30 9 2 6 10
M  V30 10 1 8 11
M  V30 11 1 11 12
M  V30 12 2 12 13
M  V30 13 1 12 14
M  V30 14 1 13 15
M  V30 15 2 14 16
M  V30 16 1 15 17
M  V30 17 2 15 18
M  V30 18 1 16 19
M  V30 19 1 18 20
M  V30 20 1 8 10
M  V30 21 1 16 18
M  V30 22 1 10 21
M  V30 23 1 13 22
M  V30 24 1 14 23
M  V30 END BOND
M  V30 END CTAB
M  END
>  <Structure No>
7360

>  <LogS>
-9.54

>  <MMFF94 Energy>
58.252

$$$$
Compound 7361
Actelion Java MolfileCreator 2.0

  0  0  0  0  0  0              0 V3000
M  V30 BEGIN CTAB
M  V30 COUNTS 34 38 0 0 0
M  V30 BEGIN ATOM
M  V30 1 C 0.243 0.4051 0.0 0
M  V30 2 C -1.0782 0.9372 -0.0766 0
M  V30 3 C 0.4116 -1.0123 0.1525 0
M  V30 4 C 1.3927 1.2191 -0.0683 0
M  V30 5 C -2.1382 0.0325 0.0027 0
M  V30 6 C -1.4248 2.304 -0.2265 0
M  V30 7 C 1.6987 -1.5618 0.2304 0
M  V30 8 C -0.7131 -1.8661 0.2254 0
M  V30 9 C 2.6758 0.6578 0.0107 0
M  V30 10 C -1.9854 -1.3081 0.147 0
M  V30 11 C -3.4507 0.3892 -0.055 0
M  V30 12 C -2.7835 2.6898 -0.2881 0
M  V30 13 C 2.8291 -0.7398 0.1609 0
M  V30 14 C 3.8159 1.476 -0.0581 0
M  V30 15 C -3.3176 -1.9875 0.1983 0
M  V30 16 C -3.8086 1.7288 -0.2022 0
M  V30 17 C -4.3287 -0.8161 0.0588 0
M  V30 18 C 4.1173 -1.2934 0.2392 0
M  V30 19 C 5.0922 0.9126 0.021 0
M  V30 20 C 5.2425 -0.4678 0.1693 0
M  V30 21 H 1.3125 2.2897 -0.1828 0
M  V30 22 H -0.6795 3.0808 -0.297 0
M  V30 23 H 1.8208 -2.6336 0.3457 0
M  V30 24 H -0.6014 -2.9375 0.3405 0
M  V30 25 H -3.0394 3.7351 -0.4026 0
M  V30 26 H 3.7204 2.5493 -0.1731 0
M  V30 27 H -3.4179 -2.7031 -0.6456 0
M  V30 28 H -3.4458 -2.5109 1.17 0
M  V30 29 H -4.849 2.0227 -0.2493 0
M  V30 30 H -4.9473 -0.9301 -0.8568 0
M  V30 31 H -4.9753 -0.7381 0.959 0
M  V30 32 H 4.2538 -2.3619 0.3545 0
M  V30 33 H 5.9668 1.5478 -0.0327 0
M  V30 34 H 6.2333 -0.8991 0.2302 0
M  V30 END ATOM
M  V30 BEGIN BOND
M  V30 1 2 1 2
M  V30 2 1 1 3
M  V30 3 1 1 4
M  V30 4 1 2 5
M  V30 5 1 2 6
M  V30 6 1 3 7
M  V30 7 2 3 8
M  V30 8 2 4 9
M  V30 9 2 5 10
M  V30 10 1 5 11
M  V30 11 2 6 12
M  V30 12 2 7 13
M  V30 13 1 9 14
M  V30 14 1 10 15
M  V30 15 2 11 16
M  V30 16 1 11 17
M  V30 17 1 13 18
M  V30 18 2 14 19
M  V30 19 2 18 20
M  V30 20 1 8 10
M  V30 21 1 9 13
M  V30 22 1 12 16
M  V30 23 1 15 17
M  V30 24 1 19 20
M  V30 25 1 4 21
M  V30 26 1 6 22
M  V30 27 1 7 23
M  V30 28 1 8 24
M  V30 29 1 12 25
M  V30 30 1 14 26
M  V30 31 1 15 27
M  V30 32 1 15 28
M  V30 33 1 16 29
M  V30 34 1 17 30
M  V30 35 1 17 31
M  V30 36 1 18 32
M  V30 37 1 19 33
M  V30 38 1 20 34
M  V30 END BOND
M  V30 END CTAB
M  END
>  <Structure No>
7361

>  <LogS>
-2.97

>  <MMFF94 Energy>
77.088

$$$$
Compound 7362
Actelion Java MolfileCreator 2.0

  0  0  0  0  0  0              0 V3000
M  V30 BEGIN CTAB
M  V30 COUNTS 40 41 0 0 0
M  V30 BEGIN ATOM
M  V30 1 S 2.9305 -2.2787 1.6273 0
M  V30 2 O 3.4729 -2.2925 3.0283 0
M  V30 3 O 2.7394 -3.6958 1.1632 0
M  V30 4 N 1.4003 -1.4691 1.613 0 CHG=-1
M  V30 5 C 4.0606 -1.4252 0.5817 0
M  V30 6 C 0.649 -1.2674 0.4123 0
M  V30 7 C 4.8147 -2.1193 -0.3756 0
M  V30 8 C 4.2068 -0.037 0.7053 0
M  V30 9 O 1.0986 -1.6971 -0.6851 0
M  V30 10 C -0.651 -0.5583 0.4551 0
M  V30 11 C 5.7038 -1.4288 -1.2052 0
M  V30 12 C 5.0962 0.6536 -0.1232 0
M  V30 13 C -1.4021 -0.3725 -0.7194 0
M  V30 14 C -1.1558 -0.0592 1.6685 0
M  V30 15 C 5.8479 -0.0388 -1.0837 0
M  V30 16 C -2.6305 0.2942 -0.6813 0
M  V30 17 C -2.3843 0.6064 1.7047 0
M  V30 18 N 6.7578 0.667 -1.9315 0
M  V30 19 C -3.1342 0.7871 0.5373 0
M  V30 20 O -4.3604 1.4659 0.638 0
M  V30 21 C -5.2997 1.6591 -0.4222 0
M  V30 22 C -6.0624 0.3594 -0.6991 0
M  V30 23 C -6.2723 2.7658 -0.0182 0
M  V30 24 H 4.7173 -3.1919 -0.4815 0
M  V30 25 H 3.6315 0.5095 1.4427 0
M  V30 26 H 6.2811 -1.9766 -1.9401 0
M  V30 27 H 5.1992 1.7266 -0.0173 0
M  V30 28 H -1.0409 -0.7423 -1.6708 0
M  V30 29 H -0.6041 -0.1808 2.5924 0
M  V30 30 H -3.1737 0.4185 -1.607 0
M  V30 31 H -2.758 0.9839 2.6485 0
M  V30 32 H 7.3148 0.1611 -2.6568 0
M  V30 33 H 6.8805 1.7006 -1.8412 0
M  V30 34 H -4.7767 1.9956 -1.3431 0
M  V30 35 H -5.3634 -0.4454 -1.0046 0
M  V30 36 H -6.7954 0.5119 -1.5197 0
M  V30 37 H -6.603 0.0272 0.2127 0
M  V30 38 H -5.7119 3.7057 0.1728 0
M  V30 39 H -7.0051 2.9532 -0.8325 0
M  V30 40 H -6.8196 2.4847 0.9071 0
M  V30 END ATOM
M  V30 BEGIN BOND
M  V30 1 2 1 2
M  V30 2 2 1 3
M  V30 3 1 1 4
M  V30 4 1 1 5
M  V30 5 1 4 6
M  V30 6 2 5 7
M  V30 7 1 5 8
M  V30 8 2 6 9
M  V30 9 1 6 10
M  V30 10 1 7 11
M  V30 11 2 8 12
M  V30 12 2 10 13
M  V30 13 1 10 14
M  V30 14 2 11 15
M  V30 15 1 13 16
M  V30 16 2 14 17
M  V30 17 1 15 18
M  V30 18 2 16 19
M  V30 19 1 19 20
M  V30 20 1 20 21
M  V30 21 1 21 22
M  V30 22 1 21 23
M  V30 23 1 12 15
M  V30 24 1 17 19
M  V30 25 1 7 24
M  V30 26 1 8 25
M  V30 27 1 11 26
M  V30 28 1 12 27
M  V30 29 1 13 28
M  V30 30 1 14 29
M  V30 31 1 16 30
M  V30 32 1 17 31
M  V30 33 1 18 32
M  V30 34 1 18 33
M  V30 35 1 21 34
M  V30 36 1 22 35
M  V30 37 1 22 36
M  V30 38 1 22 37
M  V30 39 1 23 38
M  V30 40 1 23 39
M  V30 41 1 23 40
M  V30 END BOND
M  V30 END CTAB
M  END
>  <Structure No>
7362

>  <LogS>
-4.3

>  <MMFF94 Energy>
67.788

$$$$
Compound 7363
Actelion Java MolfileCreator 2.0

  0  0  0  0  0  0              0 V3000
M  V30 BEGIN CTAB
M  V30 COUNTS 29 31 0 0 0
M  V30 BEGIN ATOM
M  V30 1 S 4.8204 -0.4978 1.0789 0
M  V30 2 C 3.1815 -0.6658 0.3686 0
M  V30 3 C 5.1823 1.0446 0.1838 0
M  V30 4 C 2.0779 -0.0909 1.0109 0
M  V30 5 C 3.0059 -1.3799 -0.8217 0
M  V30 6 C 0.7902 -0.2221 0.4581 0
M  V30 7 C 1.7317 -1.5161 -1.378 0
M  V30 8 C -0.3455 0.3415 1.066 0
M  V30 9 C 0.6227 -0.9421 -0.7473 0
M  V30 10 O -0.2364 0.9918 2.1432 0
M  V30 11 C -1.6041 0.1732 0.4605 0
M  V30 12 O -0.583 -1.0795 -1.2885 0
M  V30 13 C -1.6791 -0.5613 -0.744 0
M  V30 14 C -2.78 0.7118 1.0169 0
M  V30 15 C -2.9132 -0.7474 -1.3716 0
M  V30 16 C -4.0218 0.5235 0.3836 0
M  V30 17 C -4.076 -0.2105 -0.8144 0
M  V30 18 C -5.2547 1.0922 0.9733 0
M  V30 19 O -6.3697 0.9266 0.4104 0
M  V30 20 O -5.2002 1.8179 2.158 0 CHG=-1
M  V30 21 H 4.4481 1.829 0.4637 0
M  V30 22 H 5.1427 0.8681 -0.9114 0
M  V30 23 H 6.2001 1.3914 0.4558 0
M  V30 24 H 2.2306 0.4562 1.9334 0
M  V30 25 H 3.8573 -1.8276 -1.3183 0
M  V30 26 H 1.6059 -2.0686 -2.3007 0
M  V30 27 H -2.7298 1.2762 1.9403 0
M  V30 28 H -2.9724 -1.3101 -2.2948 0
M  V30 29 H -5.0187 -0.3705 -1.3228 0
M  V30 END ATOM
M  V30 BEGIN BOND
M  V30 1 1 1 2
M  V30 2 1 1 3
M  V30 3 2 2 4
M  V30 4 1 2 5
M  V30 5 1 4 6
M  V30 6 2 5 7
M  V30 7 1 6 8
M  V30 8 2 6 9
M  V30 9 2 8 10
M  V30 10 1 8 11
M  V30 11 1 9 12
M  V30 12 2 11 13
M  V30 13 1 11 14
M  V30 14 1 13 15
M  V30 15 2 14 16
M  V30 16 2 15 17
M  V30 17 1 16 18
M  V30 18 2 18 19
M  V30 19 1 18 20
M  V30 20 1 7 9
M  V30 21 1 12 13
M  V30 22 1 16 17
M  V30 23 1 3 21
M  V30 24 1 3 22
M  V30 25 1 3 23
M  V30 26 1 4 24
M  V30 27 1 5 25
M  V30 28 1 7 26
M  V30 29 1 14 27
M  V30 30 1 15 28
M  V30 31 1 17 29
M  V30 END BOND
M  V30 END CTAB
M  END
>  <Structure No>
7363

>  <LogS>
-5.32

>  <MMFF94 Energy>
67.559

$$$$
Compound 7364
Actelion Java MolfileCreator 2.0

  0  0  0  0  0  0              0 V3000
M  V30 BEGIN CTAB
M  V30 COUNTS 44 46 0 0 0
M  V30 BEGIN ATOM
M  V30 1 F -0.0806 0.8879 0.8879 0
M  V30 2 C 0.5231 0.024 0.036 0
M  V30 3 C -0.3236 -0.7408 -0.7814 0
M  V30 4 C 1.9382 -0.162 0.0055 0
M  V30 5 N -1.7445 -0.5243 -0.7357 0
M  V30 6 C 0.2133 -1.7139 -1.6268 0
M  V30 7 N 2.821 0.5968 0.7599 0
M  V30 8 C 2.4541 -1.1854 -0.8407 0
M  V30 9 C -2.31 0.7231 -1.2541 0
M  V30 10 C -2.6582 -1.6348 -0.4582 0
M  V30 11 F -0.5925 -2.4435 -2.4386 0
M  V30 12 C 1.5836 -1.9392 -1.6503 0
M  V30 13 C 4.16 0.3072 0.7578 0
M  V30 14 C 2.4108 1.7374 1.6054 0
M  V30 15 C 3.836 -1.4462 -0.86 0
M  V30 16 C -3.5017 1.1532 -0.3795 0 CFG=2
M  V30 17 C -3.8354 -1.1339 0.3846 0
M  V30 18 C 4.7019 -0.7056 -0.0424 0
M  V30 19 C 2.0118 1.2636 3.0022 0
M  V30 20 O 4.295 -2.3524 -1.61 0
M  V30 21 N -4.4657 0.0436 -0.2336 0 CHG=1
M  V30 22 C -4.1883 2.386 -0.9805 0
M  V30 23 C 6.169 -0.9622 -0.0104 0
M  V30 24 O 6.9224 -0.2664 0.7216 0
M  V30 25 O 6.7389 -1.9697 -0.7802 0 CHG=-1
M  V30 26 H -2.643 0.5583 -2.3023 0
M  V30 27 H -1.5437 1.5295 -1.2586 0
M  V30 28 H -3.0366 -2.051 -1.4168 0
M  V30 29 H -2.1325 -2.4425 0.0968 0
M  V30 30 H 1.9622 -2.7109 -2.3098 0
M  V30 31 H 4.8313 0.8836 1.3853 0
M  V30 32 H 1.6158 2.3402 1.1248 0
M  V30 33 H 3.2461 2.4649 1.7181 0
M  V30 34 H -3.1146 1.4402 0.6255 0
M  V30 35 H -4.585 -1.95 0.4813 0
M  V30 36 H -3.4777 -0.8817 1.4085 0
M  V30 37 H 1.6363 2.1237 3.5952 0
M  V30 38 H 1.2202 0.4886 2.9511 0
M  V30 39 H 2.895 0.8321 3.5192 0
M  V30 40 H -4.858 -0.222 -1.1682 0
M  V30 41 H -5.2558 0.3503 0.3812 0
M  V30 42 H -4.599 2.154 -1.9865 0
M  V30 43 H -5.0198 2.7167 -0.3225 0
M  V30 44 H -3.463 3.2227 -1.0712 0
M  V30 END ATOM
M  V30 BEGIN BOND
M  V30 1 1 1 2
M  V30 2 2 2 3
M  V30 3 1 2 4
M  V30 4 1 3 5
M  V30 5 1 3 6
M  V30 6 1 4 7
M  V30 7 2 4 8
M  V30 8 1 5 9
M  V30 9 1 5 10
M  V30 10 1 6 11
M  V30 11 2 6 12
M  V30 12 1 7 13
M  V30 13 1 7 14
M  V30 14 1 8 15
M  V30 15 1 9 16
M  V30 16 1 10 17
M  V30 17 2 13 18
M  V30 18 1 14 19
M  V30 19 2 15 20
M  V30 20 1 16 21
M  V30 21 1 16 22
M  V30 22 1 18 23
M  V30 23 2 23 24
M  V30 24 1 23 25
M  V30 25 1 8 12
M  V30 26 1 15 18
M  V30 27 1 17 21
M  V30 28 1 9 26
M  V30 29 1 9 27
M  V30 30 1 10 28
M  V30 31 1 10 29
M  V30 32 1 12 30
M  V30 33 1 13 31
M  V30 34 1 14 32
M  V30 35 1 14 33
M  V30 36 1 16 34
M  V30 37 1 17 35
M  V30 38 1 17 36
M  V30 39 1 19 37
M  V30 40 1 19 38
M  V30 41 1 19 39
M  V30 42 1 21 40
M  V30 43 1 21 41
M  V30 44 1 22 42
M  V30 45 1 22 43
M  V30 46 1 22 44
M  V30 END BOND
M  V30 BEGIN COLLECTION
M  V30 MDLV30/STEABS ATOMS=(1 16)
M  V30 END COLLECTION
M  V30 END CTAB
M  END
>  <Structure No>
7364

>  <LogS>
-2.33

>  <MMFF94 Energy>
143.99

$$$$
Compound 7365
Actelion Java MolfileCreator 2.0

  0  0  0  0  0  0              0 V3000
M  V30 BEGIN CTAB
M  V30 COUNTS 48 51 0 0 0
M  V30 BEGIN ATOM
M  V30 1 F 0.9698 2.9116 1.2932 0
M  V30 2 C -0.0676 2.1668 0.8352 0
M  V30 3 C 0.1508 0.8906 0.3 0
M  V30 4 C -1.3609 2.6808 0.9184 0
M  V30 5 N 1.4813 0.3539 0.1877 0
M  V30 6 C -0.9418 0.1297 -0.1359 0
M  V30 7 C -2.4654 1.9256 0.4788 0
M  V30 8 C 1.833 -0.8856 0.8832 0
M  V30 9 C 2.5581 1.1429 -0.4144 0
M  V30 10 C -2.2648 0.6185 -0.0333 0
M  V30 11 C -3.7671 2.4558 0.5281 0
M  V30 12 C 2.7502 -1.7374 -0.0041 0
M  V30 13 C 3.474 0.2329 -1.2471 0
M  V30 14 N -3.3489 -0.1362 -0.4291 0
M  V30 15 O -3.9573 3.614 0.9938 0
M  V30 16 C -4.8517 1.6998 0.0464 0
M  V30 17 N 3.9179 -0.9749 -0.5071 0 CHG=1
M  V30 18 C -4.6034 0.4095 -0.4425 0
M  V30 19 C -3.1905 -1.5109 -0.9422 0
M  V30 20 C -6.2445 2.2245 0.0397 0
M  V30 21 C 4.8919 -0.6866 0.5785 0
M  V30 22 C -2.7034 -2.5124 0.101 0
M  V30 23 C -4.1492 -2.5429 -0.3489 0
M  V30 24 O -6.503 3.3881 0.4471 0
M  V30 25 O -7.2909 1.4332 -0.4209 0 CHG=-1
M  V30 26 C 6.2639 -0.258 0.0454 0
M  V30 27 H -1.494 3.6753 1.3267 0
M  V30 28 H -0.7364 -0.8354 -0.5766 0
M  V30 29 H 2.339 -0.641 1.8407 0
M  V30 30 H 0.9239 -1.4759 1.13 0
M  V30 31 H 2.1348 1.9238 -1.084 0
M  V30 32 H 3.1366 1.6578 0.3802 0
M  V30 33 H 2.1529 -2.1129 -0.8661 0
M  V30 34 H 3.0813 -2.6361 0.5626 0
M  V30 35 H 2.9115 -0.0827 -2.1553 0
M  V30 36 H 4.3404 0.8189 -1.6173 0
M  V30 37 H 4.3952 -1.6005 -1.1996 0
M  V30 38 H -5.4315 -0.172 -0.8312 0
M  V30 39 H -2.8544 -1.6585 -1.9905 0
M  V30 40 H 5.0577 -1.6031 1.1881 0
M  V30 41 H 4.5157 0.0946 1.2708 0
M  V30 42 H -2.081 -3.3342 -0.3109 0
M  V30 43 H -2.5585 -2.1076 1.1259 0
M  V30 44 H -4.3865 -3.3952 -1.0196 0
M  V30 45 H -4.8506 -2.1916 0.4376 0
M  V30 46 H 6.9939 -0.2399 0.8822 0
M  V30 47 H 6.223 0.7624 -0.3863 0
M  V30 48 H 6.6287 -0.9738 -0.721 0
M  V30 END ATOM
M  V30 BEGIN BOND
M  V30 1 1 1 2
M  V30 2 2 2 3
M  V30 3 1 2 4
M  V30 4 1 3 5
M  V30 5 1 3 6
M  V30 6 2 4 7
M  V30 7 1 5 8
M  V30 8 1 5 9
M  V30 9 2 6 10
M  V30 10 1 7 11
M  V30 11 1 8 12
M  V30 12 1 9 13
M  V30 13 1 10 14
M  V30 14 2 11 15
M  V30 15 1 11 16
M  V30 16 1 12 17
M  V30 17 1 14 18
M  V30 18 1 14 19
M  V30 19 1 16 20
M  V30 20 1 17 21
M  V30 21 1 19 22
M  V30 22 1 19 23
M  V30 23 2 20 24
M  V30 24 1 20 25
M  V30 25 1 21 26
M  V30 26 1 7 10
M  V30 27 1 13 17
M  V30 28 2 16 18
M  V30 29 1 22 23
M  V30 30 1 4 27
M  V30 31 1 6 28
M  V30 32 1 8 29
M  V30 33 1 8 30
M  V30 34 1 9 31
M  V30 35 1 9 32
M  V30 36 1 12 33
M  V30 37 1 12 34
M  V30 38 1 13 35
M  V30 39 1 13 36
M  V30 40 1 17 37
M  V30 41 1 18 38
M  V30 42 1 19 39
M  V30 43 1 21 40
M  V30 44 1 21 41
M  V30 45 1 22 42
M  V30 46 1 22 43
M  V30 47 1 23 44
M  V30 48 1 23 45
M  V30 49 1 26 46
M  V30 50 1 26 47
M  V30 51 1 26 48
M  V30 END BOND
M  V30 END CTAB
M  END
>  <Structure No>
7365

>  <LogS>
-3.18

>  <MMFF94 Energy>
124.39

$$$$
Compound 7366
Actelion Java MolfileCreator 2.0

  0  0  0  0  0  0              0 V3000
M  V30 BEGIN CTAB
M  V30 COUNTS 36 38 0 0 0
M  V30 BEGIN ATOM
M  V30 1 O 3.706 -0.4828 2.0128 0
M  V30 2 C 4.4284 -0.9267 1.082 0
M  V30 3 O 5.081 -2.1429 1.2375 0 CHG=-1
M  V30 4 C 4.5473 -0.1714 -0.2066 0
M  V30 5 C 3.5898 -0.7181 -1.2697 0
M  V30 6 C 2.1614 -0.4641 -0.9004 0
M  V30 7 O 1.5587 0.6888 -1.0809 0
M  V30 8 N 1.369 -1.3858 -0.3148 0
M  V30 9 C 0.3411 0.5663 -0.6123 0
M  V30 10 C 0.202 -0.7337 -0.142 0
M  V30 11 C -0.633 1.6762 -0.5861 0
M  V30 12 C -1.0092 -1.3919 0.3893 0
M  V30 13 C -0.6503 2.6071 -1.6371 0
M  V30 14 C -1.5031 1.8555 0.5039 0
M  V30 15 C -2.2727 -1.1542 -0.1801 0
M  V30 16 C -0.895 -2.3143 1.4427 0
M  V30 17 C -1.5515 3.6764 -1.6182 0
M  V30 18 C -2.4031 2.9256 0.5188 0
M  V30 19 C -3.4059 -1.8005 0.3229 0
M  V30 20 C -2.0307 -2.959 1.9425 0
M  V30 21 C -2.4302 3.8331 -0.5431 0
M  V30 22 C -3.2857 -2.6994 1.3859 0
M  V30 23 H 4.3493 0.9097 -0.0349 0
M  V30 24 H 5.5899 -0.2658 -0.5786 0
M  V30 25 H 3.8003 -0.2159 -2.238 0
M  V30 26 H 3.7564 -1.8084 -1.4108 0
M  V30 27 H 0.0248 2.4993 -2.4772 0
M  V30 28 H -1.4766 1.181 1.3498 0
M  V30 29 H -2.3818 -0.4816 -1.0213 0
M  V30 30 H 0.0708 -2.5252 1.8854 0
M  V30 31 H -1.5674 4.3846 -2.4365 0
M  V30 32 H -3.074 3.0559 1.3581 0
M  V30 33 H -4.3765 -1.6098 -0.1161 0
M  V30 34 H -1.9375 -3.661 2.761 0
M  V30 35 H -3.1262 4.6618 -0.5292 0
M  V30 36 H -4.1636 -3.1999 1.7732 0
M  V30 END ATOM
M  V30 BEGIN BOND
M  V30 1 2 1 2
M  V30 2 1 2 3
M  V30 3 1 2 4
M  V30 4 1 4 5
M  V30 5 1 5 6
M  V30 6 1 6 7
M  V30 7 2 6 8
M  V30 8 1 7 9
M  V30 9 1 8 10
M  V30 10 1 9 11
M  V30 11 1 10 12
M  V30 12 2 11 13
M  V30 13 1 11 14
M  V30 14 2 12 15
M  V30 15 1 12 16
M  V30 16 1 13 17
M  V30 17 2 14 18
M  V30 18 1 15 19
M  V30 19 2 16 20
M  V30 20 2 17 21
M  V30 21 2 19 22
M  V30 22 2 9 10
M  V30 23 1 18 21
M  V30 24 1 20 22
M  V30 25 1 4 23
M  V30 26 1 4 24
M  V30 27 1 5 25
M  V30 28 1 5 26
M  V30 29 1 13 27
M  V30 30 1 14 28
M  V30 31 1 15 29
M  V30 32 1 16 30
M  V30 33 1 17 31
M  V30 34 1 18 32
M  V30 35 1 19 33
M  V30 36 1 20 34
M  V30 37 1 21 35
M  V30 38 1 22 36
M  V30 END BOND
M  V30 END CTAB
M  END
>  <Structure No>
7366

>  <LogS>
-2.24

>  <MMFF94 Energy>
44.25

$$$$
Compound 7367
Actelion Java MolfileCreator 2.0

  0  0  0  0  0  0              0 V3000
M  V30 BEGIN CTAB
M  V30 COUNTS 23 24 0 0 0
M  V30 BEGIN ATOM
M  V30 1 Cl -5.2377 -1.652 0.0917 0
M  V30 2 C -3.6356 -1.0084 0.4598 0
M  V30 3 C -3.1357 0.0902 -0.2621 0
M  V30 4 C -2.8624 -1.5892 1.4808 0
M  V30 5 Cl -4.1138 0.8343 -1.5292 0
M  V30 6 C -1.8588 0.6006 0.0304 0
M  V30 7 Cl -3.4905 -2.96 2.3981 0
M  V30 8 C -1.5862 -1.0778 1.7697 0
M  V30 9 Cl -1.2562 2.0244 -0.8198 0
M  V30 10 C -1.0769 0.0017 1.0355 0
M  V30 11 Cl -0.5957 -1.7956 3.0391 0
M  V30 12 O 0.2025 0.4864 1.3367 0
M  V30 13 C 1.2882 0.4689 0.4468 0
M  V30 14 C 2.43 1.2266 0.7526 0
M  V30 15 C 1.2712 -0.304 -0.7308 0
M  V30 16 Cl 2.491 2.1928 2.2187 0
M  V30 17 C 3.5297 1.2249 -0.1134 0
M  V30 18 C 2.3717 -0.3018 -1.592 0
M  V30 19 C 3.5005 0.4634 -1.2854 0
M  V30 20 Cl 4.8808 0.4642 -2.3678 0
M  V30 21 H 0.4132 -0.9136 -0.9817 0
M  V30 22 H 4.406 1.8149 0.1248 0
M  V30 23 H 2.3471 -0.8978 -2.4954 0
M  V30 END ATOM
M  V30 BEGIN BOND
M  V30 1 1 1 2
M  V30 2 2 2 3
M  V30 3 1 2 4
M  V30 4 1 3 5
M  V30 5 1 3 6
M  V30 6 1 4 7
M  V30 7 2 4 8
M  V30 8 1 6 9
M  V30 9 2 6 10
M  V30 10 1 8 11
M  V30 11 1 10 12
M  V30 12 1 12 13
M  V30 13 2 13 14
M  V30 14 1 13 15
M  V30 15 1 14 16
M  V30 16 1 14 17
M  V30 17 2 15 18
M  V30 18 2 17 19
M  V30 19 1 19 20
M  V30 20 1 8 10
M  V30 21 1 18 19
M  V30 22 1 15 21
M  V30 23 1 17 22
M  V30 24 1 18 23
M  V30 END BOND
M  V30 END CTAB
M  END
>  <Structure No>
7367

>  <LogS>
-9.64

>  <MMFF94 Energy>
62.051

$$$$
Compound 7368
Actelion Java MolfileCreator 2.0

  0  0  0  0  0  0              0 V3000
M  V30 BEGIN CTAB
M  V30 COUNTS 36 39 0 0 0
M  V30 BEGIN ATOM
M  V30 1 O 0.8087 1.78 -3.5624 0
M  V30 2 C 0.5277 1.3883 -2.3998 0
M  V30 3 O 0.5483 0.0606 -1.995 0
M  V30 4 C 0.1314 2.2224 -1.2983 0
M  V30 5 C 0.182 -0.0554 -0.6094 0
M  V30 6 C -0.0835 1.3902 -0.2236 0
M  V30 7 C -0.0561 3.6011 -1.2232 0
M  V30 8 C -1.1094 -0.8553 -0.4527 0
M  V30 9 C 1.3578 -0.7006 0.1264 0
M  V30 10 C -0.5161 1.9136 1.0009 0
M  V30 11 C -0.4801 4.1421 0.0012 0
M  V30 12 C -1.9944 -1.0264 -1.5373 0
M  V30 13 C -1.4819 -1.3686 0.807 0
M  V30 14 C 2.2494 0.0398 0.9341 0
M  V30 15 C 1.6225 -2.0701 -0.0789 0
M  V30 16 C -0.7101 3.3015 1.1089 0
M  V30 17 C -3.1945 -1.7241 -1.372 0
M  V30 18 C -2.6828 -2.0654 0.9654 0
M  V30 19 C 3.3332 -0.5871 1.5562 0
M  V30 20 C 2.7074 -2.6906 0.5458 0
M  V30 21 C -3.5367 -2.2461 -0.1235 0
M  V30 22 C 3.5588 -1.951 1.3672 0
M  V30 23 H 0.1153 4.2363 -2.0823 0
M  V30 24 H -0.6905 1.2687 1.8512 0
M  V30 25 H -0.6346 5.2093 0.0935 0
M  V30 26 H -1.7658 -0.6189 -2.5131 0
M  V30 27 H -0.8414 -1.2313 1.6689 0
M  V30 28 H 2.1252 1.1026 1.0856 0
M  V30 29 H 0.9843 -2.6605 -0.7246 0
M  V30 30 H -1.039 3.7267 2.0482 0
M  V30 31 H -3.8632 -1.8551 -2.2129 0
M  V30 32 H -2.9536 -2.4616 1.9355 0
M  V30 33 H 4.0046 -0.0113 2.1802 0
M  V30 34 H 2.891 -3.7453 0.3879 0
M  V30 35 H -4.4673 -2.7844 0.0017 0
M  V30 36 H 4.4 -2.4325 1.8485 0
M  V30 END ATOM
M  V30 BEGIN BOND
M  V30 1 2 1 2
M  V30 2 1 2 3
M  V30 3 1 2 4
M  V30 4 1 3 5
M  V30 5 2 4 6
M  V30 6 1 4 7
M  V30 7 1 5 8
M  V30 8 1 5 9
M  V30 9 1 6 10
M  V30 10 2 7 11
M  V30 11 2 8 12
M  V30 12 1 8 13
M  V30 13 2 9 14
M  V30 14 1 9 15
M  V30 15 2 10 16
M  V30 16 1 12 17
M  V30 17 2 13 18
M  V30 18 1 14 19
M  V30 19 2 15 20
M  V30 20 2 17 21
M  V30 21 2 19 22
M  V30 22 1 5 6
M  V30 23 1 11 16
M  V30 24 1 18 21
M  V30 25 1 20 22
M  V30 26 1 7 23
M  V30 27 1 10 24
M  V30 28 1 11 25
M  V30 29 1 12 26
M  V30 30 1 13 27
M  V30 31 1 14 28
M  V30 32 1 15 29
M  V30 33 1 16 30
M  V30 34 1 17 31
M  V30 35 1 18 32
M  V30 36 1 19 33
M  V30 37 1 20 34
M  V30 38 1 21 35
M  V30 39 1 22 36
M  V30 END BOND
M  V30 END CTAB
M  END
>  <Structure No>
7368

>  <LogS>
-3.85

>  <MMFF94 Energy>
90.423

$$$$
Compound 7369
Actelion Java MolfileCreator 2.0

  0  0  0  0  0  0              0 V3000
M  V30 BEGIN CTAB
M  V30 COUNTS 46 50 0 0 0
M  V30 BEGIN ATOM
M  V30 1 F 1.3861 2.692 1.0598 0
M  V30 2 C 0.3129 1.9862 0.6236 0
M  V30 3 C 0.4849 0.7395 0.0123 0
M  V30 4 C -0.9657 2.5107 0.8047 0
M  V30 5 N 1.8082 0.2167 -0.1901 0
M  V30 6 C -0.6409 0.0205 -0.4153 0
M  V30 7 C -2.1031 1.7956 0.3834 0
M  V30 8 C 2.1808 -1.1985 -0.1686 0 CFG=2
M  V30 9 C 2.8338 0.9025 -0.9703 0
M  V30 10 C -1.9494 0.5192 -0.215 0
M  V30 11 C -3.392 2.3384 0.5325 0
M  V30 12 C 3.3999 -1.3218 0.7561 0
M  V30 13 C 2.8341 -1.3753 -1.5183 0
M  V30 14 C 3.8216 -0.2512 -1.2658 0 CFG=2
M  V30 15 N -3.0642 -0.1959 -0.599 0
M  V30 16 O -3.5391 3.4683 1.0761 0
M  V30 17 C -4.5116 1.6274 0.0647 0
M  V30 18 N 4.4989 -0.7057 -0.0252 0 CHG=1 CFG=1
M  V30 19 C -4.3088 0.3655 -0.5138 0
M  V30 20 C -2.9548 -1.5385 -1.2019 0
M  V30 21 C -5.8921 2.1757 0.1656 0
M  V30 22 C 5.2271 0.3471 0.7057 0
M  V30 23 C -2.4286 -2.6079 -0.249 0
M  V30 24 C -3.8966 -2.5927 -0.621 0
M  V30 25 O -6.877 1.5012 -0.2376 0
M  V30 26 O -6.1265 3.4366 0.7022 0 CHG=-1
M  V30 27 H -1.0613 3.4825 1.2738 0
M  V30 28 H -0.4818 -0.911 -0.9368 0
M  V30 29 H 1.3507 -1.8977 0.0664 0
M  V30 30 H 3.281 1.7481 -0.4134 0
M  V30 31 H 2.3976 1.2896 -1.9179 0
M  V30 32 H 3.6166 -2.3949 0.961 0
M  V30 33 H 3.2091 -0.8096 1.7268 0
M  V30 34 H 2.1382 -1.1754 -2.3658 0
M  V30 35 H 3.3228 -2.3687 -1.644 0
M  V30 36 H 4.5229 -0.0562 -2.1064 0
M  V30 37 H 5.1937 -1.4471 -0.2865 0
M  V30 38 H -5.1651 -0.1807 -0.893 0
M  V30 39 H -2.678 -1.626 -2.274 0
M  V30 40 H 4.5423 1.0261 1.2575 0
M  V30 41 H 5.9053 -0.1177 1.4538 0
M  V30 42 H 5.8488 0.9449 0.0043 0
M  V30 43 H -1.842 -3.4107 -0.7434 0
M  V30 44 H -2.2228 -2.2686 0.7889 0
M  V30 45 H -4.5494 -2.2811 0.222 0
M  V30 46 H -4.183 -3.3992 -1.3281 0
M  V30 END ATOM
M  V30 BEGIN BOND
M  V30 1 1 1 2
M  V30 2 2 2 3
M  V30 3 1 2 4
M  V30 4 1 3 5
M  V30 5 1 3 6
M  V30 6 2 4 7
M  V30 7 1 5 8
M  V30 8 1 5 9
M  V30 9 2 6 10
M  V30 10 1 7 11
M  V30 11 1 8 12
M  V30 12 1 8 13
M  V30 13 1 9 14
M  V30 14 1 10 15
M  V30 15 2 11 16
M  V30 16 1 11 17
M  V30 17 1 12 18
M  V30 18 1 15 19
M  V30 19 1 15 20
M  V30 20 1 17 21
M  V30 21 1 18 22
M  V30 22 1 20 23
M  V30 23 1 20 24
M  V30 24 2 21 25
M  V30 25 1 21 26
M  V30 26 1 7 10
M  V30 27 1 13 14
M  V30 28 1 14 18
M  V30 29 2 17 19
M  V30 30 1 23 24
M  V30 31 1 4 27
M  V30 32 1 6 28
M  V30 33 1 8 29
M  V30 34 1 9 30
M  V30 35 1 9 31
M  V30 36 1 12 32
M  V30 37 1 12 33
M  V30 38 1 13 34
M  V30 39 1 13 35
M  V30 40 1 14 36
M  V30 41 1 18 37
M  V30 42 1 19 38
M  V30 43 1 20 39
M  V30 44 1 22 40
M  V30 45 1 22 41
M  V30 46 1 22 42
M  V30 47 1 23 43
M  V30 48 1 23 44
M  V30 49 1 24 45
M  V30 50 1 24 46
M  V30 END BOND
M  V30 BEGIN COLLECTION
M  V30 MDLV30/STEABS ATOMS=(3 8 14 18)
M  V30 END COLLECTION
M  V30 END CTAB
M  END
>  <Structure No>
7369

>  <LogS>
-2.9

>  <MMFF94 Energy>
117.71

$$$$
Compound 7370
Actelion Java MolfileCreator 2.0

  0  0  0  0  0  0              0 V3000
M  V30 BEGIN CTAB
M  V30 COUNTS 30 32 0 0 0
M  V30 BEGIN ATOM
M  V30 1 O 2.5199 2.6013 1.0561 0
M  V30 2 C 1.9623 1.5666 0.6095 0
M  V30 3 C 2.7004 0.4886 0.0639 0
M  V30 4 C 0.5685 1.5018 0.664 0
M  V30 5 C 1.9478 -0.6211 -0.4057 0
M  V30 6 C 4.1265 0.4379 -0.0461 0
M  V30 7 C -0.0988 0.3658 0.1771 0
M  V30 8 O 0.6218 -0.63 -0.3292 0
M  V30 9 C 2.587 -1.732 -0.9605 0
M  V30 10 O 4.9936 1.453 0.3728 0
M  V30 11 C 4.7336 -0.6924 -0.608 0
M  V30 12 C -1.5876 0.22 0.1997 0
M  V30 13 C 3.9739 -1.7682 -1.0616 0
M  V30 14 C -2.1669 -0.9591 -0.3128 0
M  V30 15 C -2.4478 1.2149 0.7143 0
M  V30 16 O 4.6011 -2.8777 -1.615 0 CHG=-1
M  V30 17 C -3.5537 -1.1439 -0.3144 0
M  V30 18 C -3.833 1.0304 0.7127 0
M  V30 19 O -4.0786 -2.3276 -0.8324 0
M  V30 20 C -4.3923 -0.1448 0.2007 0
M  V30 21 O -5.775 -0.3226 0.2021 0
M  V30 22 H 0.038 2.3412 1.0862 0
M  V30 23 H 2.001 -2.5713 -1.3147 0
M  V30 24 H 4.7294 2.3275 0.7952 0
M  V30 25 H 5.8128 -0.7335 -0.6927 0
M  V30 26 H -1.5453 -1.7482 -0.7172 0
M  V30 27 H -2.0766 2.1409 1.122 0
M  V30 28 H -4.4738 1.8064 1.1123 0
M  V30 29 H -5.0747 -2.5099 -0.8566 0
M  V30 30 H -6.4009 0.385 0.569 0
M  V30 END ATOM
M  V30 BEGIN BOND
M  V30 1 2 1 2
M  V30 2 1 2 3
M  V30 3 1 2 4
M  V30 4 2 3 5
M  V30 5 1 3 6
M  V30 6 2 4 7
M  V30 7 1 5 8
M  V30 8 1 5 9
M  V30 9 1 6 10
M  V30 10 2 6 11
M  V30 11 1 7 12
M  V30 12 2 9 13
M  V30 13 2 12 14
M  V30 14 1 12 15
M  V30 15 1 13 16
M  V30 16 1 14 17
M  V30 17 2 15 18
M  V30 18 1 17 19
M  V30 19 2 17 20
M  V30 20 1 20 21
M  V30 21 1 7 8
M  V30 22 1 11 13
M  V30 23 1 18 20
M  V30 24 1 4 22
M  V30 25 1 9 23
M  V30 26 1 10 24
M  V30 27 1 11 25
M  V30 28 1 14 26
M  V30 29 1 15 27
M  V30 30 1 18 28
M  V30 31 1 19 29
M  V30 32 1 21 30
M  V30 END BOND
M  V30 END CTAB
M  END
>  <Structure No>
7370

>  <LogS>
-3.61

>  <MMFF94 Energy>
17.142

$$$$
Compound 7371
Actelion Java MolfileCreator 2.0

  0  0  0  0  0  0              0 V3000
M  V30 BEGIN CTAB
M  V30 COUNTS 43 45 0 0 0
M  V30 BEGIN ATOM
M  V30 1 O 2.3705 1.1057 -1.2637 0
M  V30 2 C 1.4128 0.361 -0.9218 0
M  V30 3 N 0.2616 0.7895 -0.3617 0
M  V30 4 C 1.3903 -1.0144 -1.0309 0
M  V30 5 N -0.5005 -0.2634 -0.081 0
M  V30 6 C -0.1219 2.0629 -0.0634 0
M  V30 7 C 0.1716 -1.38 -0.4718 0
M  V30 8 C 2.4945 -1.9081 -1.5143 0
M  V30 9 C -1.7229 -0.1156 0.5253 0
M  V30 10 N -1.3213 2.2575 0.547 0 CHG=1
M  V30 11 N 0.7038 3.1875 -0.3962 0
M  V30 12 O -0.2742 -2.6895 -0.3136 0
M  V30 13 C 3.3526 -2.3857 -0.3394 0
M  V30 14 C -2.1324 1.2023 0.8483 0
M  V30 15 C -2.5821 -1.1926 0.8324 0
M  V30 16 C 0.7441 3.6755 -1.7734 0
M  V30 17 C 1.3155 3.9668 0.6777 0
M  V30 18 C 4.48 -3.2964 -0.8154 0
M  V30 19 C -3.3712 1.4205 1.4669 0
M  V30 20 C -3.8124 -0.964 1.469 0
M  V30 21 C -4.2064 0.3459 1.7703 0
M  V30 22 C -4.7357 -2.1116 1.7579 0
M  V30 23 H 2.058 -2.7794 -2.0476 0
M  V30 24 H 3.1272 -1.3508 -2.2387 0
M  V30 25 H -1.6252 3.2327 0.7709 0
M  V30 26 H 0.2832 -3.4804 -0.6103 0
M  V30 27 H 2.7207 -2.9442 0.3852 0
M  V30 28 H 3.7937 -1.5082 0.1823 0
M  V30 29 H -2.3309 -2.2087 0.5858 0
M  V30 30 H 1.7896 3.9179 -2.0579 0
M  V30 31 H 0.3591 2.9061 -2.477 0
M  V30 32 H 0.1184 4.5881 -1.863 0
M  V30 33 H 1.8606 4.845 0.2704 0
M  V30 34 H 0.5344 4.3308 1.3776 0
M  V30 35 H 2.0358 3.3305 1.2334 0
M  V30 36 H 5.1425 -2.753 -1.5224 0
M  V30 37 H 5.0844 -3.6258 0.0557 0
M  V30 38 H 4.0633 -4.1945 -1.319 0
M  V30 39 H -3.693 2.4255 1.7109 0
M  V30 40 H -5.1638 0.5363 2.2397 0
M  V30 41 H -5.3639 -2.3134 0.8655 0
M  V30 42 H -4.1561 -3.0256 2.008 0
M  V30 43 H -5.3963 -1.8795 2.6205 0
M  V30 END ATOM
M  V30 BEGIN BOND
M  V30 1 2 1 2
M  V30 2 1 2 3
M  V30 3 1 2 4
M  V30 4 1 3 5
M  V30 5 1 3 6
M  V30 6 2 4 7
M  V30 7 1 4 8
M  V30 8 1 5 9
M  V30 9 2 6 10
M  V30 10 1 6 11
M  V30 11 1 7 12
M  V30 12 1 8 13
M  V30 13 2 9 14
M  V30 14 1 9 15
M  V30 15 1 11 16
M  V30 16 1 11 17
M  V30 17 1 13 18
M  V30 18 1 14 19
M  V30 19 2 15 20
M  V30 20 2 19 21
M  V30 21 1 20 22
M  V30 22 1 5 7
M  V30 23 1 10 14
M  V30 24 1 20 21
M  V30 25 1 8 23
M  V30 26 1 8 24
M  V30 27 1 10 25
M  V30 28 1 12 26
M  V30 29 1 13 27
M  V30 30 1 13 28
M  V30 31 1 15 29
M  V30 32 1 16 30
M  V30 33 1 16 31
M  V30 34 1 16 32
M  V30 35 1 17 33
M  V30 36 1 17 34
M  V30 37 1 17 35
M  V30 38 1 18 36
M  V30 39 1 18 37
M  V30 40 1 18 38
M  V30 41 1 19 39
M  V30 42 1 21 40
M  V30 43 1 22 41
M  V30 44 1 22 42
M  V30 45 1 22 43
M  V30 END BOND
M  V30 END CTAB
M  END
>  <Structure No>
7371

>  <LogS>
-3.63

>  <MMFF94 Energy>
-84.595

$$$$
Compound 7372
Actelion Java MolfileCreator 2.0

  0  0  0  0  0  0              0 V3000
M  V30 BEGIN CTAB
M  V30 COUNTS 42 45 0 0 0
M  V30 BEGIN ATOM
M  V30 1 C -2.3192 0.0799 -0.1598 0
M  V30 2 C -3.5422 -0.33 -0.7795 0
M  V30 3 C -2.2881 1.3076 0.5599 0
M  V30 4 C -1.127 -0.6819 -0.2275 0
M  V30 5 C -4.6923 0.5019 -0.6579 0
M  V30 6 C -3.6728 -1.534 -1.5166 0
M  V30 7 C -1.1064 1.7417 1.1802 0
M  V30 8 C -3.4378 2.0994 0.6582 0
M  V30 9 C 0.0512 -0.2427 0.3951 0
M  V30 10 C -4.6247 1.7017 0.0569 0
M  V30 11 C -5.9072 0.1271 -1.2547 0
M  V30 12 C -4.8905 -1.8886 -2.1024 0
M  V30 13 C 0.0607 0.977 1.1029 0
M  V30 14 C 1.2264 -1.0089 0.3183 0
M  V30 15 C -6.0028 -1.0622 -1.9725 0
M  V30 16 C 1.2413 1.4142 1.7222 0
M  V30 17 C 2.4054 -0.5702 0.9414 0
M  V30 18 C 2.4049 0.6465 1.6403 0
M  V30 19 C 3.6687 -1.3863 0.8309 0
M  V30 20 C 4.329 -1.2517 -0.552 0
M  V30 21 C 4.8018 0.1736 -0.8886 0
M  V30 22 C 5.9688 0.6329 -0.0154 0
M  V30 23 H -1.0821 -1.6198 -0.7561 0
M  V30 24 H -2.8584 -2.2233 -1.6603 0
M  V30 25 H -1.0956 2.6799 1.7255 0
M  V30 26 H -3.4191 3.0351 1.2051 0
M  V30 27 H -5.4972 2.338 0.152 0
M  V30 28 H -6.7852 0.7564 -1.1654 0
M  V30 29 H -4.9711 -2.812 -2.6617 0
M  V30 30 H 1.2295 -1.9461 -0.227 0
M  V30 31 H -6.9426 -1.3443 -2.4296 0
M  V30 32 H 1.2651 2.3503 2.2674 0
M  V30 33 H 3.3074 1.0039 2.12 0
M  V30 34 H 3.4175 -2.4564 0.9978 0
M  V30 35 H 4.3893 -1.1117 1.6303 0
M  V30 36 H 3.6057 -1.5781 -1.3308 0
M  V30 37 H 5.1952 -1.9465 -0.6054 0
M  V30 38 H 5.1364 0.1866 -1.9484 0
M  V30 39 H 3.9618 0.8951 -0.8006 0
M  V30 40 H 6.7991 -0.1035 -0.057 0
M  V30 41 H 6.3445 1.6096 -0.3868 0
M  V30 42 H 5.6452 0.7669 1.0369 0
M  V30 END ATOM
M  V30 BEGIN BOND
M  V30 1 2 1 2
M  V30 2 1 1 3
M  V30 3 1 1 4
M  V30 4 1 2 5
M  V30 5 1 2 6
M  V30 6 1 3 7
M  V30 7 2 3 8
M  V30 8 2 4 9
M  V30 9 2 5 10
M  V30 10 1 5 11
M  V30 11 2 6 12
M  V30 12 2 7 13
M  V30 13 1 9 14
M  V30 14 2 11 15
M  V30 15 1 13 16
M  V30 16 2 14 17
M  V30 17 2 16 18
M  V30 18 1 17 19
M  V30 19 1 19 20
M  V30 20 1 20 21
M  V30 21 1 21 22
M  V30 22 1 8 10
M  V30 23 1 9 13
M  V30 24 1 12 15
M  V30 25 1 17 18
M  V30 26 1 4 23
M  V30 27 1 6 24
M  V30 28 1 7 25
M  V30 29 1 8 26
M  V30 30 1 10 27
M  V30 31 1 11 28
M  V30 32 1 12 29
M  V30 33 1 14 30
M  V30 34 1 15 31
M  V30 35 1 16 32
M  V30 36 1 18 33
M  V30 37 1 19 34
M  V30 38 1 19 35
M  V30 39 1 20 36
M  V30 40 1 20 37
M  V30 41 1 21 38
M  V30 42 1 21 39
M  V30 43 1 22 40
M  V30 44 1 22 41
M  V30 45 1 22 42
M  V30 END BOND
M  V30 END CTAB
M  END
>  <Structure No>
7372

>  <LogS>
-7.52

>  <MMFF94 Energy>
65.667

$$$$
Compound 7373
Actelion Java MolfileCreator 2.0

  0  0  0  0  0  0              0 V3000
M  V30 BEGIN CTAB
M  V30 COUNTS 44 46 0 0 0
M  V30 BEGIN ATOM
M  V30 1 S 2.2119 0.4093 1.72 0
M  V30 2 C 1.4191 -0.4228 0.313 0 CFG=1
M  V30 3 C 3.1295 1.5762 0.6301 0
M  V30 4 N 2.4648 -0.8891 -0.5561 0
M  V30 5 C 0.9283 -1.752 0.5773 0 CFG=2
M  V30 6 C 4.0379 0.9019 -0.3997 0
M  V30 7 C 3.683 -0.2724 -0.9743 0
M  V30 8 C 1.9456 -2.2672 -0.3927 0
M  V30 9 N -0.4373 -1.9486 0.0851 0
M  V30 10 O 5.2204 1.5355 -0.8205 0
M  V30 11 C 4.5252 -0.9608 -1.9815 0
M  V30 12 O 2.2593 -3.403 -0.8364 0
M  V30 13 C -1.5621 -1.9188 0.9764 0
M  V30 14 C 5.6404 2.8301 -0.4047 0
M  V30 15 O 4.0589 -1.937 -2.6257 0
M  V30 16 O 5.8308 -0.5574 -2.235 0 CHG=-1
M  V30 17 O -1.3717 -1.9666 2.2234 0
M  V30 18 C -2.9807 -1.7597 0.4689 0 CFG=2
M  V30 19 N -3.1743 -2.3488 -0.8646 0 CHG=1
M  V30 20 C -3.386 -0.2934 0.4718 0
M  V30 21 C -4.5876 0.0744 0.9675 0
M  V30 22 C -2.4574 0.7711 -0.0987 0
M  V30 23 C -5.0046 1.5246 0.9938 0
M  V30 24 C -3.2289 1.9246 -0.6846 0
M  V30 25 C -4.4185 2.2764 -0.1747 0
M  V30 26 H 0.7111 0.242 -0.2327 0
M  V30 27 H 3.721 2.2272 1.3036 0
M  V30 28 H 2.4019 2.2241 0.0954 0
M  V30 29 H 1.102 -2.1368 1.6069 0
M  V30 30 H -0.5955 -1.9228 -0.9472 0
M  V30 31 H 6.56 3.1075 -0.963 0
M  V30 32 H 4.8491 3.5802 -0.6265 0
M  V30 33 H 5.8797 2.8278 0.6799 0
M  V30 34 H -3.6296 -2.3214 1.1819 0
M  V30 35 H -2.7759 -3.3178 -0.8961 0
M  V30 36 H -2.7344 -1.7615 -1.6114 0
M  V30 37 H -4.2001 -2.4139 -1.0643 0
M  V30 38 H -5.2694 -0.6694 1.3732 0
M  V30 39 H -1.8119 1.1597 0.7199 0
M  V30 40 H -1.8037 0.3424 -0.8864 0
M  V30 41 H -6.1128 1.5957 0.9689 0
M  V30 42 H -4.6378 1.9869 1.9363 0
M  V30 43 H -2.8107 2.4839 -1.517 0
M  V30 44 H -4.9596 3.1176 -0.5961 0
M  V30 END ATOM
M  V30 BEGIN BOND
M  V30 1 1 1 2
M  V30 2 1 1 3
M  V30 3 1 2 4
M  V30 4 1 2 5
M  V30 5 1 3 6
M  V30 6 1 4 7
M  V30 7 1 4 8
M  V30 8 1 5 9
M  V30 9 1 6 10
M  V30 10 1 7 11
M  V30 11 2 8 12
M  V30 12 1 9 13
M  V30 13 1 10 14
M  V30 14 2 11 15
M  V30 15 1 11 16
M  V30 16 2 13 17
M  V30 17 1 13 18
M  V30 18 1 18 19
M  V30 19 1 18 20
M  V30 20 2 20 21
M  V30 21 1 20 22
M  V30 22 1 21 23
M  V30 23 1 22 24
M  V30 24 1 23 25
M  V30 25 1 5 8
M  V30 26 2 6 7
M  V30 27 2 24 25
M  V30 28 1 2 26
M  V30 29 1 3 27
M  V30 30 1 3 28
M  V30 31 1 5 29
M  V30 32 1 9 30
M  V30 33 1 14 31
M  V30 34 1 14 32
M  V30 35 1 14 33
M  V30 36 1 18 34
M  V30 37 1 19 35
M  V30 38 1 19 36
M  V30 39 1 19 37
M  V30 40 1 21 38
M  V30 41 1 22 39
M  V30 42 1 22 40
M  V30 43 1 23 41
M  V30 44 1 23 42
M  V30 45 1 24 43
M  V30 46 1 25 44
M  V30 END BOND
M  V30 BEGIN COLLECTION
M  V30 MDLV30/STEABS ATOMS=(3 2 5 18)
M  V30 END COLLECTION
M  V30 END CTAB
M  END
>  <Structure No>
7373

>  <LogS>
-1.89

>  <MMFF94 Energy>
25.299

$$$$
Compound 7374
Actelion Java MolfileCreator 2.0

  0  0  0  0  0  0              0 V3000
M  V30 BEGIN CTAB
M  V30 COUNTS 35 35 0 0 0
M  V30 BEGIN ATOM
M  V30 1 Cl 1.673 3.5157 -0.418 0
M  V30 2 C 1.5361 1.7798 -0.1579 0
M  V30 3 C 2.6629 0.9607 0.0481 0
M  V30 4 C 0.2569 1.217 -0.1561 0
M  V30 5 S 4.3031 1.6258 0.0475 0
M  V30 6 C 2.4825 -0.4162 0.2443 0
M  V30 7 C 0.0741 -0.1614 0.0351 0
M  V30 8 O 5.272 0.6089 0.5836 0
M  V30 9 O 4.362 2.8453 0.9245 0
M  V30 10 N 4.7622 2.0386 -1.5679 0
M  V30 11 C 1.2002 -0.9858 0.2443 0
M  V30 12 N -1.2551 -0.7089 0.0682 0
M  V30 13 S 1.0238 -2.7324 0.4708 0
M  V30 14 C -2.2768 -0.3501 -0.8738 0
M  V30 15 O 0.1256 -3.2853 -0.6002 0
M  V30 16 O 0.4222 -3.004 1.8211 0
M  V30 17 N 2.5578 -3.5266 0.3652 0
M  V30 18 O -1.9953 0.3352 -1.8942 0
M  V30 19 C -3.6954 -0.7955 -0.651 0
M  V30 20 N -4.329 -0.061 0.4563 0 CHG=1
M  V30 21 C -4.5873 1.341 0.1102 0
M  V30 22 H -0.6027 1.8629 -0.2842 0
M  V30 23 H 3.3473 -1.0468 0.393 0
M  V30 24 H 4.1465 2.8239 -1.8754 0
M  V30 25 H 5.7336 2.4199 -1.5209 0
M  V30 26 H -1.4867 -1.4231 0.7938 0
M  V30 27 H 3.0648 -3.3366 1.2586 0
M  V30 28 H 2.3688 -4.5537 0.3444 0
M  V30 29 H -3.6864 -1.8815 -0.4119 0
M  V30 30 H -4.288 -0.6774 -1.5862 0
M  V30 31 H -3.7264 -0.1035 1.3114 0
M  V30 32 H -5.2439 -0.5191 0.6777 0
M  V30 33 H -5.1244 1.8388 0.9462 0
M  V30 34 H -3.6342 1.8875 -0.058 0
M  V30 35 H -5.2218 1.4114 -0.8002 0
M  V30 END ATOM
M  V30 BEGIN BOND
M  V30 1 1 1 2
M  V30 2 2 2 3
M  V30 3 1 2 4
M  V30 4 1 3 5
M  V30 5 1 3 6
M  V30 6 2 4 7
M  V30 7 2 5 8
M  V30 8 2 5 9
M  V30 9 1 5 10
M  V30 10 2 6 11
M  V30 11 1 7 12
M  V30 12 1 11 13
M  V30 13 1 12 14
M  V30 14 2 13 15
M  V30 15 2 13 16
M  V30 16 1 13 17
M  V30 17 2 14 18
M  V30 18 1 14 19
M  V30 19 1 19 20
M  V30 20 1 20 21
M  V30 21 1 7 11
M  V30 22 1 4 22
M  V30 23 1 6 23
M  V30 24 1 10 24
M  V30 25 1 10 25
M  V30 26 1 12 26
M  V30 27 1 17 27
M  V30 28 1 17 28
M  V30 29 1 19 29
M  V30 30 1 19 30
M  V30 31 1 20 31
M  V30 32 1 20 32
M  V30 33 1 21 33
M  V30 34 1 21 34
M  V30 35 1 21 35
M  V30 END BOND
M  V30 END CTAB
M  END
>  <Structure No>
7374

>  <LogS>
-1.27

>  <MMFF94 Energy>
-139.19

$$$$
Compound 7375
Actelion Java MolfileCreator 2.0

  0  0  0  0  0  0              0 V3000
M  V30 BEGIN CTAB
M  V30 COUNTS 33 36 0 0 0
M  V30 BEGIN ATOM
M  V30 1 Cl -6.1297 -1.3053 -0.4893 0
M  V30 2 C -4.387 -1.3105 -0.2847 0
M  V30 3 C -3.6811 -0.1042 -0.2693 0
M  V30 4 C -3.7088 -2.5196 -0.1476 0
M  V30 5 C -2.2747 -0.087 -0.1025 0
M  V30 6 C -2.3221 -2.5294 -0.0145 0
M  V30 7 C -1.5969 -1.3244 -0.0048 0
M  V30 8 C -1.5306 1.1221 -0.0497 0
M  V30 9 C -0.2041 -1.3614 0.0932 0
M  V30 10 C -0.1048 1.0661 -0.0877 0
M  V30 11 C -2.249 2.4576 0.056 0
M  V30 12 C 0.5714 -0.1847 0.0374 0
M  V30 13 C 0.6604 2.2365 -0.2719 0
M  V30 14 C 2.0041 -0.2145 0.0807 0
M  V30 15 C 2.0469 2.2004 -0.2698 0
M  V30 16 C 2.7267 0.9989 -0.0811 0
M  V30 17 C 2.7536 -1.4028 0.285 0
M  V30 18 C 4.1311 1.0027 -0.0608 0
M  V30 19 C 4.15 -1.3786 0.3057 0
M  V30 20 C 4.8367 -0.1817 0.1299 0
M  V30 21 H -4.2477 0.8023 -0.4237 0
M  V30 22 H -4.2541 -3.4547 -0.1588 0
M  V30 23 H -1.8142 -3.483 0.0716 0
M  V30 24 H 0.2507 -2.3352 0.1599 0
M  V30 25 H -3.1939 2.3729 0.6287 0
M  V30 26 H -1.6632 3.193 0.6432 0
M  V30 27 H -2.4554 2.8591 -0.9579 0
M  V30 28 H 0.2029 3.197 -0.46 0
M  V30 29 H 2.5933 3.1254 -0.4158 0
M  V30 30 H 2.2981 -2.364 0.4499 0
M  V30 31 H 4.6845 1.9258 -0.1901 0
M  V30 32 H 4.7031 -2.2958 0.4634 0
M  V30 33 H 5.9188 -0.1708 0.1468 0
M  V30 END ATOM
M  V30 BEGIN BOND
M  V30 1 1 1 2
M  V30 2 2 2 3
M  V30 3 1 2 4
M  V30 4 1 3 5
M  V30 5 2 4 6
M  V30 6 1 5 7
M  V30 7 2 5 8
M  V30 8 2 7 9
M  V30 9 1 8 10
M  V30 10 1 8 11
M  V30 11 1 9 12
M  V30 12 2 10 13
M  V30 13 2 12 14
M  V30 14 1 13 15
M  V30 15 1 14 16
M  V30 16 1 14 17
M  V30 17 1 16 18
M  V30 18 2 17 19
M  V30 19 2 18 20
M  V30 20 1 6 7
M  V30 21 1 10 12
M  V30 22 2 15 16
M  V30 23 1 19 20
M  V30 24 1 3 21
M  V30 25 1 4 22
M  V30 26 1 6 23
M  V30 27 1 9 24
M  V30 28 1 11 25
M  V30 29 1 11 26
M  V30 30 1 11 27
M  V30 31 1 13 28
M  V30 32 1 15 29
M  V30 33 1 17 30
M  V30 34 1 18 31
M  V30 35 1 19 32
M  V30 36 1 20 33
M  V30 END BOND
M  V30 END CTAB
M  END
>  <Structure No>
7375

>  <LogS>
-7.44

>  <MMFF94 Energy>
70.622

$$$$
Compound 7376
Actelion Java MolfileCreator 2.0

  0  0  0  0  0  0              0 V3000
M  V30 BEGIN CTAB
M  V30 COUNTS 47 47 0 0 0
M  V30 BEGIN ATOM
M  V30 1 S -0.5688 -0.8126 -1.3004 0
M  V30 2 O 0.2641 -2.0309 -1.5861 0
M  V30 3 O -1.0054 -0.227 -2.6145 0
M  V30 4 C -1.9945 -1.276 -0.3735 0
M  V30 5 C 0.4118 0.3998 -0.4086 0 CFG=1
M  V30 6 C -3.1627 -0.5078 -0.4507 0
M  V30 7 C -1.964 -2.4039 0.4554 0
M  V30 8 C -0.3639 1.6821 -0.3018 0
M  V30 9 C 0.8432 -0.1059 0.9828 0
M  V30 10 C -4.2918 -0.8646 0.2917 0
M  V30 11 C -3.0919 -2.7635 1.1983 0
M  V30 12 O -1.2051 1.8437 0.6254 0
M  V30 13 O -0.1934 2.6622 -1.2852 0
M  V30 14 C 1.7942 -1.2599 0.8922 0
M  V30 15 C -4.2697 -1.9972 1.1242 0
M  V30 16 C -0.8873 3.9096 -1.2841 0
M  V30 17 O 1.5174 -2.3458 1.4712 0
M  V30 18 O 2.9836 -1.1177 0.1684 0
M  V30 19 N -5.4346 -2.3643 1.8856 0 CHG=1
M  V30 20 C -0.283 4.8498 -0.2376 0
M  V30 21 C -0.7928 4.5278 -2.6771 0
M  V30 22 C 3.9539 -2.1556 0.034 0
M  V30 23 O -5.425 -3.3767 2.6159 0
M  V30 24 O -6.5841 -1.6109 1.8123 0 CHG=-1
M  V30 25 C 4.8629 -1.8304 -1.1488 0
M  V30 26 C 4.7729 -2.284 1.3211 0
M  V30 27 H 1.3236 0.6081 -1.0099 0
M  V30 28 H -3.1988 0.3708 -1.0824 0
M  V30 29 H -1.0674 -3.0053 0.5299 0
M  V30 30 H -0.049 -0.3954 1.5801 0
M  V30 31 H 1.3591 0.7141 1.5276 0
M  V30 32 H -5.1817 -0.2535 0.214 0
M  V30 33 H -3.0424 -3.6401 1.8312 0
M  V30 34 H -1.963 3.7422 -1.0526 0
M  V30 35 H -0.8047 5.8303 -0.2544 0
M  V30 36 H 0.7979 5.0094 -0.4392 0
M  V30 37 H -0.3948 4.416 0.7778 0
M  V30 38 H -1.3488 5.4889 -2.7119 0
M  V30 39 H 0.2689 4.71 -2.9499 0
M  V30 40 H -1.2383 3.8371 -3.4237 0
M  V30 41 H 3.4448 -3.1221 -0.1775 0
M  V30 42 H 4.2553 -1.7466 -2.075 0
M  V30 43 H 5.6135 -2.6367 -1.2919 0
M  V30 44 H 5.3898 -0.8669 -0.9809 0
M  V30 45 H 4.1138 -2.5677 2.1674 0
M  V30 46 H 5.5484 -3.071 1.2074 0
M  V30 47 H 5.267 -1.3189 1.5633 0
M  V30 END ATOM
M  V30 BEGIN BOND
M  V30 1 2 1 2
M  V30 2 2 1 3
M  V30 3 1 1 4
M  V30 4 1 1 5
M  V30 5 2 4 6
M  V30 6 1 4 7
M  V30 7 1 5 8
M  V30 8 1 5 9
M  V30 9 1 6 10
M  V30 10 2 7 11
M  V30 11 2 8 12
M  V30 12 1 8 13
M  V30 13 1 9 14
M  V30 14 2 10 15
M  V30 15 1 13 16
M  V30 16 2 14 17
M  V30 17 1 14 18
M  V30 18 1 15 19
M  V30 19 1 16 20
M  V30 20 1 16 21
M  V30 21 1 18 22
M  V30 22 2 19 23
M  V30 23 1 19 24
M  V30 24 1 22 25
M  V30 25 1 22 26
M  V30 26 1 11 15
M  V30 27 1 5 27
M  V30 28 1 6 28
M  V30 29 1 7 29
M  V30 30 1 9 30
M  V30 31 1 9 31
M  V30 32 1 10 32
M  V30 33 1 11 33
M  V30 34 1 16 34
M  V30 35 1 20 35
M  V30 36 1 20 36
M  V30 37 1 20 37
M  V30 38 1 21 38
M  V30 39 1 21 39
M  V30 40 1 21 40
M  V30 41 1 22 41
M  V30 42 1 25 42
M  V30 43 1 25 43
M  V30 44 1 25 44
M  V30 45 1 26 45
M  V30 46 1 26 46
M  V30 47 1 26 47
M  V30 END BOND
M  V30 BEGIN COLLECTION
M  V30 MDLV30/STEABS ATOMS=(1 5)
M  V30 END COLLECTION
M  V30 END CTAB
M  END
>  <Structure No>
7376

>  <LogS>
-4.29

>  <MMFF94 Energy>
-18.505

$$$$
Compound 7377
Actelion Java MolfileCreator 2.0

  0  0  0  0  0  0              0 V3000
M  V30 BEGIN CTAB
M  V30 COUNTS 43 45 0 0 0
M  V30 BEGIN ATOM
M  V30 1 F -0.4071 -1.5476 -0.4071 0
M  V30 2 C -0.5896 -0.2106 -0.2923 0
M  V30 3 C 0.5606 0.5646 -0.0668 0
M  V30 4 C -1.8783 0.3997 -0.3849 0
M  V30 5 N 1.8532 -0.0561 0.0312 0
M  V30 6 C 0.455 1.9482 0.0703 0
M  V30 7 N -3.0432 -0.3139 -0.6296 0
M  V30 8 C -1.9569 1.812 -0.2085 0
M  V30 9 C 2.8347 0.1289 -1.0396 0
M  V30 10 C 2.107 -1.0931 1.0343 0
M  V30 11 F 1.5615 2.6995 0.3 0
M  V30 12 C -0.7874 2.5647 0.0066 0
M  V30 13 C -4.2579 0.3205 -0.6257 0
M  V30 14 C -3.0795 -1.7693 -0.8845 0
M  V30 15 C -3.2082 2.4528 -0.2425 0
M  V30 16 C 4.2405 0.2149 -0.4411 0
M  V30 17 C 3.5379 -0.9605 1.5596 0
M  V30 18 C -4.3766 1.7019 -0.4399 0
M  V30 19 C -3.1068 -2.551 0.4288 0
M  V30 20 O -3.2796 3.7043 -0.0891 0
M  V30 21 N 4.4948 -0.9462 0.435 0
M  V30 22 C -5.7283 2.3264 -0.4621 0
M  V30 23 F -3.0516 -3.9072 0.1654 0
M  V30 24 C 5.8713 -0.8925 0.9497 0
M  V30 25 O -5.8759 3.565 -0.2862 0
M  V30 26 O -6.8594 1.5466 -0.6775 0 CHG=-1
M  V30 27 H 2.7786 -0.7331 -1.7388 0
M  V30 28 H 2.6242 1.0575 -1.614 0
M  V30 29 H 1.396 -0.9955 1.8841 0
M  V30 30 H 1.9742 -2.0952 0.5722 0
M  V30 31 H -0.8302 3.6395 0.1359 0
M  V30 32 H -5.1627 -0.2575 -0.7781 0
M  V30 33 H -3.9887 -2.0471 -1.4642 0
M  V30 34 H -2.2539 -2.0888 -1.5494 0
M  V30 35 H 4.9729 0.2283 -1.2784 0
M  V30 36 H 4.3422 1.1694 0.1251 0
M  V30 37 H 3.7444 -1.8277 2.225 0
M  V30 38 H 3.6237 -0.029 2.1656 0
M  V30 39 H -4.0469 -2.3282 0.9768 0
M  V30 40 H -2.2507 -2.2734 1.0768 0
M  V30 41 H 6.5956 -0.915 0.1073 0
M  V30 42 H 6.0432 0.0281 1.5514 0
M  V30 43 H 6.0776 -1.7824 1.5827 0
M  V30 END ATOM
M  V30 BEGIN BOND
M  V30 1 1 1 2
M  V30 2 2 2 3
M  V30 3 1 2 4
M  V30 4 1 3 5
M  V30 5 1 3 6
M  V30 6 1 4 7
M  V30 7 2 4 8
M  V30 8 1 5 9
M  V30 9 1 5 10
M  V30 10 1 6 11
M  V30 11 2 6 12
M  V30 12 1 7 13
M  V30 13 1 7 14
M  V30 14 1 8 15
M  V30 15 1 9 16
M  V30 16 1 10 17
M  V30 17 2 13 18
M  V30 18 1 14 19
M  V30 19 2 15 20
M  V30 20 1 16 21
M  V30 21 1 18 22
M  V30 22 1 19 23
M  V30 23 1 21 24
M  V30 24 2 22 25
M  V30 25 1 22 26
M  V30 26 1 8 12
M  V30 27 1 15 18
M  V30 28 1 17 21
M  V30 29 1 9 27
M  V30 30 1 9 28
M  V30 31 1 10 29
M  V30 32 1 10 30
M  V30 33 1 12 31
M  V30 34 1 13 32
M  V30 35 1 14 33
M  V30 36 1 14 34
M  V30 37 1 16 35
M  V30 38 1 16 36
M  V30 39 1 17 37
M  V30 40 1 17 38
M  V30 41 1 19 39
M  V30 42 1 19 40
M  V30 43 1 24 41
M  V30 44 1 24 42
M  V30 45 1 24 43
M  V30 END BOND
M  V30 END CTAB
M  END
>  <Structure No>
7377

>  <LogS>
-2.73

>  <MMFF94 Energy>
172.09

$$$$
Compound 7378
Actelion Java MolfileCreator 2.0

  0  0  0  0  0  0              0 V3000
M  V30 BEGIN CTAB
M  V30 COUNTS 46 49 0 0 0
M  V30 BEGIN ATOM
M  V30 1 F 1.3829 -2.7672 1.2201 0
M  V30 2 C 0.3765 -1.9894 0.7467 0
M  V30 3 C 0.66 -0.7497 0.1668 0
M  V30 4 C -0.9377 -2.4314 0.8599 0
M  V30 5 N 2.0266 -0.3176 0.0829 0
M  V30 6 C -0.3911 0.0597 -0.3191 0
M  V30 7 C -2.0037 -1.6346 0.4077 0
M  V30 8 C 2.52 0.7312 0.9815 0
M  V30 9 C 2.8923 -0.8801 -0.9608 0
M  V30 10 C -1.7381 -0.369 -0.1741 0
M  V30 11 C -0.0762 1.3946 -0.9517 0
M  V30 12 C -3.3343 -2.0754 0.5287 0
M  V30 13 C 3.8764 0.3364 1.5883 0
M  V30 14 C 4.3231 -0.3422 -0.8462 0
M  V30 15 N -2.7842 0.4162 -0.6068 0
M  V30 16 C -1.2061 1.8629 -1.8623 0
M  V30 17 O -3.5783 -3.2028 1.0415 0
M  V30 18 C -4.3885 -1.2598 0.0801 0
M  V30 19 C 4.8068 -0.4274 0.608 0
M  V30 20 C -4.077 -0.0119 -0.4789 0
M  V30 21 C -2.563 1.7707 -1.1524 0 CFG=2
M  V30 22 C -5.8127 -1.6802 0.1904 0
M  V30 23 O 6.1141 0.0777 0.6856 0
M  V30 24 C -2.7056 2.8185 -0.0391 0
M  V30 25 O -6.7339 -0.9252 -0.2208 0
M  V30 26 O -6.1583 -2.9072 0.745 0 CHG=-1
M  V30 27 H -1.1178 -3.3983 1.3137 0
M  V30 28 H 1.7924 0.9234 1.8009 0
M  V30 29 H 2.6361 1.6744 0.4049 0
M  V30 30 H 2.4821 -0.629 -1.9625 0
M  V30 31 H 2.9157 -1.987 -0.8626 0
M  V30 32 H 0.1033 2.1447 -0.1528 0
M  V30 33 H 0.8468 1.325 -1.5659 0
M  V30 34 H 3.6959 -0.3048 2.4787 0
M  V30 35 H 4.3749 1.2616 1.9521 0
M  V30 36 H 4.9939 -0.9387 -1.502 0
M  V30 37 H 4.355 0.7141 -1.1931 0
M  V30 38 H -1.012 2.9051 -2.1973 0
M  V30 39 H -1.23 1.2173 -2.7681 0
M  V30 40 H 4.8151 -1.5071 0.8911 0
M  V30 41 H -4.8841 0.632 -0.8109 0
M  V30 42 H -3.3346 1.9963 -1.9241 0
M  V30 43 H 6.4866 -0.2275 1.554 0
M  V30 44 H -2.0211 2.5963 0.8061 0
M  V30 45 H -3.7464 2.8153 0.3478 0
M  V30 46 H -2.4848 3.8341 -0.4312 0
M  V30 END ATOM
M  V30 BEGIN BOND
M  V30 1 1 1 2
M  V30 2 2 2 3
M  V30 3 1 2 4
M  V30 4 1 3 5
M  V30 5 1 3 6
M  V30 6 2 4 7
M  V30 7 1 5 8
M  V30 8 1 5 9
M  V30 9 2 6 10
M  V30 10 1 6 11
M  V30 11 1 7 12
M  V30 12 1 8 13
M  V30 13 1 9 14
M  V30 14 1 10 15
M  V30 15 1 11 16
M  V30 16 2 12 17
M  V30 17 1 12 18
M  V30 18 1 13 19
M  V30 19 1 15 20
M  V30 20 1 15 21
M  V30 21 1 18 22
M  V30 22 1 19 23
M  V30 23 1 21 24
M  V30 24 2 22 25
M  V30 25 1 22 26
M  V30 26 1 7 10
M  V30 27 1 14 19
M  V30 28 1 16 21
M  V30 29 2 18 20
M  V30 30 1 4 27
M  V30 31 1 8 28
M  V30 32 1 8 29
M  V30 33 1 9 30
M  V30 34 1 9 31
M  V30 35 1 11 32
M  V30 36 1 11 33
M  V30 37 1 13 34
M  V30 38 1 13 35
M  V30 39 1 14 36
M  V30 40 1 14 37
M  V30 41 1 16 38
M  V30 42 1 16 39
M  V30 43 1 19 40
M  V30 44 1 20 41
M  V30 45 1 21 42
M  V30 46 1 23 43
M  V30 47 1 24 44
M  V30 48 1 24 45
M  V30 49 1 24 46
M  V30 END BOND
M  V30 BEGIN COLLECTION
M  V30 MDLV30/STEABS ATOMS=(1 21)
M  V30 END COLLECTION
M  V30 END CTAB
M  END
>  <Structure No>
7378

>  <LogS>
-3.78

>  <MMFF94 Energy>
59.983

$$$$
Compound 7379
Actelion Java MolfileCreator 2.0

  0  0  0  0  0  0              0 V3000
M  V30 BEGIN CTAB
M  V30 COUNTS 39 40 0 0 0
M  V30 BEGIN ATOM
M  V30 1 S -0.1623 -3.0875 -1.3803 0
M  V30 2 O -0.9326 -3.7831 -0.2929 0
M  V30 3 O 0.449 -4.118 -2.2866 0
M  V30 4 N -1.2506 -2.0919 -2.2902 0
M  V30 5 C 1.1194 -2.0951 -0.6934 0
M  V30 6 C -1.9053 -0.9588 -1.7064 0
M  V30 7 C 1.5749 -2.3234 0.6113 0
M  V30 8 C 1.6918 -1.0701 -1.4562 0
M  V30 9 N -1.7159 -0.6539 -0.3961 0
M  V30 10 C -2.7432 -0.1559 -2.4794 0
M  V30 11 C 2.5829 -1.5218 1.1553 0
M  V30 12 C 2.7001 -0.2685 -0.9138 0
M  V30 13 C -2.3163 0.4201 0.1789 0
M  V30 14 C -3.3566 0.9432 -1.8815 0
M  V30 15 C 3.1408 -0.4726 0.4022 0
M  V30 16 O -2.1129 0.653 1.401 0
M  V30 17 N -3.1322 1.234 -0.5648 0
M  V30 18 N 4.1927 0.3539 0.9294 0
M  V30 19 C -3.8146 2.3879 0.0421 0
M  V30 20 C 4.3041 0.7331 2.31 0
M  V30 21 C -5.1446 1.9595 0.6531 0
M  V30 22 O 3.3409 0.5601 3.1046 0
M  V30 23 C 5.5343 1.4299 2.7923 0
M  V30 24 H -1.409 -2.3246 -3.296 0
M  V30 25 H 1.1566 -3.1247 1.2065 0
M  V30 26 H 1.3561 -0.8901 -2.4696 0
M  V30 27 H -2.9191 -0.3767 -3.5245 0
M  V30 28 H 2.9405 -1.7395 2.1526 0
M  V30 29 H 3.1315 0.5212 -1.516 0
M  V30 30 H -4.0147 1.5631 -2.479 0
M  V30 31 H 4.8721 0.7743 0.2553 0
M  V30 32 H -3.1779 2.8529 0.8263 0
M  V30 33 H -4.0011 3.1763 -0.7206 0
M  V30 34 H -5.6508 2.84 1.1018 0
M  V30 35 H -5.8028 1.5278 -0.1302 0
M  V30 36 H -4.9755 1.2009 1.4463 0
M  V30 37 H 5.631 1.3252 3.8938 0
M  V30 38 H 6.4323 0.9867 2.3131 0
M  V30 39 H 5.4749 2.5071 2.5322 0
M  V30 END ATOM
M  V30 BEGIN BOND
M  V30 1 2 1 2
M  V30 2 2 1 3
M  V30 3 1 1 4
M  V30 4 1 1 5
M  V30 5 1 4 6
M  V30 6 2 5 7
M  V30 7 1 5 8
M  V30 8 2 6 9
M  V30 9 1 6 10
M  V30 10 1 7 11
M  V30 11 2 8 12
M  V30 12 1 9 13
M  V30 13 2 10 14
M  V30 14 2 11 15
M  V30 15 2 13 16
M  V30 16 1 13 17
M  V30 17 1 15 18
M  V30 18 1 17 19
M  V30 19 1 18 20
M  V30 20 1 19 21
M  V30 21 2 20 22
M  V30 22 1 20 23
M  V30 23 1 12 15
M  V30 24 1 14 17
M  V30 25 1 4 24
M  V30 26 1 7 25
M  V30 27 1 8 26
M  V30 28 1 10 27
M  V30 29 1 11 28
M  V30 30 1 12 29
M  V30 31 1 14 30
M  V30 32 1 18 31
M  V30 33 1 19 32
M  V30 34 1 19 33
M  V30 35 1 21 34
M  V30 36 1 21 35
M  V30 37 1 21 36
M  V30 38 1 23 37
M  V30 39 1 23 38
M  V30 40 1 23 39
M  V30 END BOND
M  V30 END CTAB
M  END
>  <Structure No>
7379

>  <LogS>
-2.71

>  <MMFF94 Energy>
-152.22

$$$$
Compound 7380
Actelion Java MolfileCreator 2.0

  0  0  0  0  0  0              0 V3000
M  V30 BEGIN CTAB
M  V30 COUNTS 34 35 0 0 0
M  V30 BEGIN ATOM
M  V30 1 S -0.9999 -1.8338 2.5847 0
M  V30 2 O -2.0539 -0.8948 3.1036 0
M  V30 3 O -0.4836 -2.6651 3.7249 0
M  V30 4 N -1.7061 -2.874 1.3935 0 CHG=-1
M  V30 5 C 0.3407 -0.9385 1.8772 0
M  V30 6 C -2.2656 -2.3941 0.1699 0
M  V30 7 C 1.3017 -1.6142 1.1161 0
M  V30 8 C 0.4473 0.447 2.0542 0
M  V30 9 S -2.3532 -0.7775 -0.3059 0
M  V30 10 N -2.8115 -3.2147 -0.7515 0
M  V30 11 C 2.364 -0.9121 0.5405 0
M  V30 12 C 1.5094 1.1505 1.4786 0
M  V30 13 C -3.1072 -1.2263 -1.7457 0
M  V30 14 N -3.285 -2.5648 -1.8137 0
M  V30 15 C 2.4888 0.4724 0.7307 0
M  V30 16 C -3.6035 -0.2725 -2.7845 0
M  V30 17 N 3.5789 1.1733 0.1074 0
M  V30 18 C -5.001 0.2243 -2.4335 0
M  V30 19 C 4.2128 2.3372 0.6604 0
M  V30 20 O 4.0004 2.6806 1.8546 0
M  V30 21 C 5.2116 3.0956 -0.1512 0
M  V30 22 H 1.2257 -2.6837 0.9657 0
M  V30 23 H -0.2952 0.987 2.6272 0
M  V30 24 H 3.0971 -1.4489 -0.0479 0
M  V30 25 H 1.5464 2.225 1.5969 0
M  V30 26 H -3.63 -0.7813 -3.7716 0
M  V30 27 H -2.9093 0.5918 -2.8568 0
M  V30 28 H 3.9926 0.7638 -0.7608 0
M  V30 29 H -5.709 -0.6294 -2.3685 0
M  V30 30 H -4.9856 0.7632 -1.462 0
M  V30 31 H -5.3561 0.9232 -3.2202 0
M  V30 32 H 6.1988 2.5926 -0.0863 0
M  V30 33 H 5.3058 4.1366 0.2254 0
M  V30 34 H 4.8884 3.1304 -1.2131 0
M  V30 END ATOM
M  V30 BEGIN BOND
M  V30 1 2 1 2
M  V30 2 2 1 3
M  V30 3 1 1 4
M  V30 4 1 1 5
M  V30 5 1 4 6
M  V30 6 2 5 7
M  V30 7 1 5 8
M  V30 8 1 6 9
M  V30 9 2 6 10
M  V30 10 1 7 11
M  V30 11 2 8 12
M  V30 12 1 9 13
M  V30 13 1 10 14
M  V30 14 2 11 15
M  V30 15 1 13 16
M  V30 16 1 15 17
M  V30 17 1 16 18
M  V30 18 1 17 19
M  V30 19 2 19 20
M  V30 20 1 19 21
M  V30 21 1 12 15
M  V30 22 2 13 14
M  V30 23 1 7 22
M  V30 24 1 8 23
M  V30 25 1 11 24
M  V30 26 1 12 25
M  V30 27 1 16 26
M  V30 28 1 16 27
M  V30 29 1 17 28
M  V30 30 1 18 29
M  V30 31 1 18 30
M  V30 32 1 18 31
M  V30 33 1 21 32
M  V30 34 1 21 33
M  V30 35 1 21 34
M  V30 END BOND
M  V30 END CTAB
M  END
>  <Structure No>
7380

>  <LogS>
-3.4

>  <MMFF94 Energy>
37.56

$$$$
Compound 7381
Actelion Java MolfileCreator 2.0

  0  0  0  0  0  0              0 V3000
M  V30 BEGIN CTAB
M  V30 COUNTS 51 53 0 0 0
M  V30 BEGIN ATOM
M  V30 1 O 9.6257 1.2687 0.8721 0
M  V30 2 C 8.6732 0.694 0.2802 0
M  V30 3 N 8.9009 -0.3691 -0.5498 0
M  V30 4 C 7.3631 1.1167 0.4497 0
M  V30 5 C 7.8625 -1.0063 -1.1917 0
M  V30 6 N 6.877 2.1168 1.2095 0
M  V30 7 C 6.3615 0.4791 -0.1945 0
M  V30 8 N 6.5743 -0.5791 -1.0126 0
M  V30 9 N 8.1228 -2.1161 -2.0504 0
M  V30 10 C 5.5358 2.041 0.9807 0
M  V30 11 N 5.1939 1.0541 0.1142 0
M  V30 12 C 3.8518 0.6455 -0.2819 0
M  V30 13 O 3.369 -0.3077 0.6409 0
M  V30 14 C 2.0039 -0.5879 0.3956 0
M  V30 15 C 1.1196 0.2624 1.3097 0
M  V30 16 O -0.2559 -0.0721 1.1349 0
M  V30 17 C -1.0161 0.3378 0.0325 0
M  V30 18 O -0.4959 1.0618 -0.8602 0
M  V30 19 C -2.434 -0.0703 -0.0766 0
M  V30 20 C -3.0372 -0.8208 0.9463 0
M  V30 21 C -3.1993 0.2871 -1.201 0
M  V30 22 C -4.3803 -1.1959 0.853 0
M  V30 23 C -4.5408 -0.0933 -1.2954 0
M  V30 24 C -5.1461 -0.8278 -0.2639 0
M  V30 25 C -6.6055 -1.2266 -0.3571 0
M  V30 26 N -7.5425 -0.2165 0.1936 0 CHG=1
M  V30 27 C -7.3261 0.0283 1.631 0
M  V30 28 C -7.5112 1.0491 -0.5621 0
M  V30 29 H 9.88 -0.7043 -0.6934 0
M  V30 30 H 9.0992 -2.4496 -2.2096 0
M  V30 31 H 7.3362 -2.6061 -2.5308 0
M  V30 32 H 4.8164 2.6984 1.4533 0
M  V30 33 H 3.8924 0.2038 -1.303 0
M  V30 34 H 3.1992 1.5475 -0.3137 0
M  V30 35 H 1.8263 -1.6565 0.6379 0
M  V30 36 H 1.7085 -0.4572 -0.6718 0
M  V30 37 H 1.2756 1.345 1.1166 0
M  V30 38 H 1.3984 0.0616 2.3653 0
M  V30 39 H -2.4743 -1.1153 1.823 0
M  V30 40 H -2.7622 0.8606 -2.0089 0
M  V30 41 H -4.8255 -1.7701 1.6563 0
M  V30 42 H -5.1102 0.1912 -2.1715 0
M  V30 43 H -6.7555 -2.1966 0.169 0
M  V30 44 H -6.861 -1.4327 -1.4207 0
M  V30 45 H -8.508 -0.6117 0.0922 0
M  V30 46 H -6.3609 0.5491 1.8114 0
M  V30 47 H -7.3332 -0.9297 2.1955 0
M  V30 48 H -8.1422 0.665 2.04 0
M  V30 49 H -6.5566 1.596 -0.4001 0
M  V30 50 H -7.6389 0.8568 -1.6501 0
M  V30 51 H -8.3463 1.7094 -0.2392 0
M  V30 END ATOM
M  V30 BEGIN BOND
M  V30 1 2 1 2
M  V30 2 1 2 3
M  V30 3 1 2 4
M  V30 4 1 3 5
M  V30 5 1 4 6
M  V30 6 2 4 7
M  V30 7 2 5 8
M  V30 8 1 5 9
M  V30 9 2 6 10
M  V30 10 1 7 11
M  V30 11 1 11 12
M  V30 12 1 12 13
M  V30 13 1 13 14
M  V30 14 1 14 15
M  V30 15 1 15 16
M  V30 16 1 16 17
M  V30 17 2 17 18
M  V30 18 1 17 19
M  V30 19 2 19 20
M  V30 20 1 19 21
M  V30 21 1 20 22
M  V30 22 2 21 23
M  V30 23 2 22 24
M  V30 24 1 24 25
M  V30 25 1 25 26
M  V30 26 1 26 27
M  V30 27 1 26 28
M  V30 28 1 7 8
M  V30 29 1 10 11
M  V30 30 1 23 24
M  V30 31 1 3 29
M  V30 32 1 9 30
M  V30 33 1 9 31
M  V30 34 1 10 32
M  V30 35 1 12 33
M  V30 36 1 12 34
M  V30 37 1 14 35
M  V30 38 1 14 36
M  V30 39 1 15 37
M  V30 40 1 15 38
M  V30 41 1 20 39
M  V30 42 1 21 40
M  V30 43 1 22 41
M  V30 44 1 23 42
M  V30 45 1 25 43
M  V30 46 1 25 44
M  V30 47 1 26 45
M  V30 48 1 27 46
M  V30 49 1 27 47
M  V30 50 1 27 48
M  V30 51 1 28 49
M  V30 52 1 28 50
M  V30 53 1 28 51
M  V30 END BOND
M  V30 END CTAB
M  END
>  <Structure No>
7381

>  <LogS>
-2.47

>  <MMFF94 Energy>
-23.467

$$$$
Compound 7382
Actelion Java MolfileCreator 2.0

  0  0  0  0  0  0              0 V3000
M  V30 BEGIN CTAB
M  V30 COUNTS 48 50 0 0 0
M  V30 BEGIN ATOM
M  V30 1 O 0.5619 -0.8832 -1.9278 0
M  V30 2 C -0.1678 -0.4436 -1.0003 0
M  V30 3 N 0.3355 0.187 0.1649 0
M  V30 4 N -1.5861 -0.5011 -1.035 0
M  V30 5 C -0.8386 0.6083 0.8518 0
M  V30 6 C 1.6616 0.7778 0.3113 0
M  V30 7 C -2.1103 0.1618 0.1628 0
M  V30 8 O -0.8055 1.3087 1.9 0
M  V30 9 O 2.6546 -0.1759 -0.0503 0
M  V30 10 C -2.9351 1.4003 -0.1916 0
M  V30 11 C -2.924 -0.8627 0.9568 0
M  V30 12 C 4.0211 0.1164 -0.0353 0
M  V30 13 C -2.8577 2.0035 -1.4656 0
M  V30 14 C -3.732 2.0179 0.7951 0
M  V30 15 C -4.1765 -1.2757 0.4577 0
M  V30 16 C -2.4397 -1.4702 2.137 0
M  V30 17 O 4.428 1.2605 0.3097 0
M  V30 18 C 5.006 -0.9422 -0.4489 0
M  V30 19 C -3.5927 3.1579 -1.7516 0
M  V30 20 C -4.4638 3.1719 0.5026 0
M  V30 21 C -4.9372 -2.2315 1.1362 0
M  V30 22 C -3.2064 -2.4259 2.8107 0
M  V30 23 C 5.7323 -0.5051 -1.7326 0
M  V30 24 C 5.9826 -1.231 0.7065 0
M  V30 25 C -4.3981 3.7387 -0.7707 0
M  V30 26 C -4.4546 -2.803 2.3139 0
M  V30 27 O 6.4467 -1.5805 -2.2761 0
M  V30 28 O 6.7601 -2.3656 0.4285 0
M  V30 29 H -2.1546 -0.9324 -1.7983 0
M  V30 30 H 1.8194 1.0864 1.3673 0
M  V30 31 H 1.738 1.6717 -0.3447 0
M  V30 32 H -2.2281 1.5927 -2.2431 0
M  V30 33 H -3.7858 1.6054 1.7949 0
M  V30 34 H -4.5658 -0.8539 -0.4608 0
M  V30 35 H -1.4704 -1.2193 2.5446 0
M  V30 36 H 4.4371 -1.8735 -0.6674 0
M  V30 37 H -3.532 3.6069 -2.7344 0
M  V30 38 H -5.0781 3.6303 1.2669 0
M  V30 39 H -5.9007 -2.532 0.7454 0
M  V30 40 H -2.8285 -2.8789 3.7181 0
M  V30 41 H 4.9827 -0.1579 -2.4803 0
M  V30 42 H 6.4253 0.3385 -1.5117 0
M  V30 43 H 6.6245 -0.3415 0.9117 0
M  V30 44 H 5.4014 -1.4369 1.6313 0
M  V30 45 H -4.964 4.6338 -0.9948 0
M  V30 46 H -5.0444 -3.5443 2.8372 0
M  V30 47 H 6.902 -1.2287 -3.0847 0
M  V30 48 H 7.6279 -2.0428 0.0711 0
M  V30 END ATOM
M  V30 BEGIN BOND
M  V30 1 2 1 2
M  V30 2 1 2 3
M  V30 3 1 2 4
M  V30 4 1 3 5
M  V30 5 1 3 6
M  V30 6 1 4 7
M  V30 7 2 5 8
M  V30 8 1 6 9
M  V30 9 1 7 10
M  V30 10 1 7 11
M  V30 11 1 9 12
M  V30 12 2 10 13
M  V30 13 1 10 14
M  V30 14 2 11 15
M  V30 15 1 11 16
M  V30 16 2 12 17
M  V30 17 1 12 18
M  V30 18 1 13 19
M  V30 19 2 14 20
M  V30 20 1 15 21
M  V30 21 2 16 22
M  V30 22 1 18 23
M  V30 23 1 18 24
M  V30 24 2 19 25
M  V30 25 2 21 26
M  V30 26 1 23 27
M  V30 27 1 24 28
M  V30 28 1 5 7
M  V30 29 1 20 25
M  V30 30 1 22 26
M  V30 31 1 4 29
M  V30 32 1 6 30
M  V30 33 1 6 31
M  V30 34 1 13 32
M  V30 35 1 14 33
M  V30 36 1 15 34
M  V30 37 1 16 35
M  V30 38 1 18 36
M  V30 39 1 19 37
M  V30 40 1 20 38
M  V30 41 1 21 39
M  V30 42 1 22 40
M  V30 43 1 23 41
M  V30 44 1 23 42
M  V30 45 1 24 43
M  V30 46 1 24 44
M  V30 47 1 25 45
M  V30 48 1 26 46
M  V30 49 1 27 47
M  V30 50 1 28 48
M  V30 END BOND
M  V30 END CTAB
M  END
>  <Structure No>
7382

>  <LogS>
-2.21

>  <MMFF94 Energy>
-36.725

$$$$
Compound 7383
Actelion Java MolfileCreator 2.0

  0  0  0  0  0  0              0 V3000
M  V30 BEGIN CTAB
M  V30 COUNTS 50 51 0 0 0
M  V30 BEGIN ATOM
M  V30 1 O -2.3945 -1.0371 -1.8354 0
M  V30 2 C -3.2601 -0.2659 -1.3368 0
M  V30 3 C -2.8145 0.8035 -0.4102 0
M  V30 4 C -4.6849 -0.4634 -1.6982 0
M  V30 5 C -1.6896 0.5985 0.4072 0
M  V30 6 C -3.4707 2.0455 -0.3698 0
M  V30 7 C -5.7133 -0.1854 -0.7777 0
M  V30 8 C -5.0234 -0.9828 -2.9605 0
M  V30 9 C -1.2351 1.6082 1.2779 0
M  V30 10 C -3.0266 3.0509 0.4902 0
M  V30 11 C -7.0507 -0.3953 -1.1268 0
M  V30 12 C -6.3623 -1.1922 -3.304 0
M  V30 13 C -1.9176 2.8361 1.3101 0
M  V30 14 C -0.0174 1.396 2.1563 0 CFG=2
M  V30 15 C -7.3752 -0.8958 -2.3893 0
M  V30 16 C 1.214 1.2145 1.3128 0
M  V30 17 C -0.2112 0.2157 3.1153 0
M  V30 18 O 2.0242 2.1719 1.1808 0
M  V30 19 O 1.4356 0.0012 0.6499 0
M  V30 20 C 2.5704 -0.2408 -0.1792 0
M  V30 21 C 3.8202 -0.4177 0.6437 0
M  V30 22 O 3.7059 -0.698 1.8685 0
M  V30 23 N 5.1343 -0.3303 0.0472 0
M  V30 24 C 6.333 -0.5139 0.8758 0
M  V30 25 C 5.2863 -0.1506 -1.4009 0
M  V30 26 C 6.6603 -1.9719 0.991 0
M  V30 27 O 7.2548 -2.5542 0.0454 0
M  V30 28 N 6.271 -2.7154 2.1451 0
M  V30 29 H -1.1726 -0.3515 0.3704 0
M  V30 30 H -4.3168 2.2456 -1.015 0
M  V30 31 H -5.4836 0.1787 0.2152 0
M  V30 32 H -4.2526 -1.2166 -3.6844 0
M  V30 33 H -3.539 4.0041 0.5153 0
M  V30 34 H -7.8357 -0.1767 -0.4145 0
M  V30 35 H -6.6144 -1.5864 -4.2797 0
M  V30 36 H -1.5882 3.6329 1.9649 0
M  V30 37 H 0.1379 2.2945 2.7951 0
M  V30 38 H -8.4108 -1.0595 -2.6567 0
M  V30 39 H 0.6657 0.1301 3.7919 0
M  V30 40 H -0.3247 -0.7419 2.5657 0
M  V30 41 H -1.1164 0.3788 3.7383 0
M  V30 42 H 2.6845 0.5965 -0.899 0
M  V30 43 H 2.3938 -1.1724 -0.7549 0
M  V30 44 H 7.1992 0.0211 0.4288 0
M  V30 45 H 6.1818 -0.0676 1.8828 0
M  V30 46 H 6.3503 -0.2306 -1.7096 0
M  V30 47 H 4.7168 -0.9358 -1.9417 0
M  V30 48 H 4.9144 0.8523 -1.6976 0
M  V30 49 H 6.4767 -3.7369 2.2056 0
M  V30 50 H 5.7823 -2.2502 2.9412 0
M  V30 END ATOM
M  V30 BEGIN BOND
M  V30 1 2 1 2
M  V30 2 1 2 3
M  V30 3 1 2 4
M  V30 4 2 3 5
M  V30 5 1 3 6
M  V30 6 2 4 7
M  V30 7 1 4 8
M  V30 8 1 5 9
M  V30 9 2 6 10
M  V30 10 1 7 11
M  V30 11 2 8 12
M  V30 12 2 9 13
M  V30 13 1 9 14
M  V30 14 2 11 15
M  V30 15 1 14 16
M  V30 16 1 14 17
M  V30 17 2 16 18
M  V30 18 1 16 19
M  V30 19 1 19 20
M  V30 20 1 20 21
M  V30 21 2 21 22
M  V30 22 1 21 23
M  V30 23 1 23 24
M  V30 24 1 23 25
M  V30 25 1 24 26
M  V30 26 2 26 27
M  V30 27 1 26 28
M  V30 28 1 10 13
M  V30 29 1 12 15
M  V30 30 1 5 29
M  V30 31 1 6 30
M  V30 32 1 7 31
M  V30 33 1 8 32
M  V30 34 1 10 33
M  V30 35 1 11 34
M  V30 36 1 12 35
M  V30 37 1 13 36
M  V30 38 1 14 37
M  V30 39 1 15 38
M  V30 40 1 17 39
M  V30 41 1 17 40
M  V30 42 1 17 41
M  V30 43 1 20 42
M  V30 44 1 20 43
M  V30 45 1 24 44
M  V30 46 1 24 45
M  V30 47 1 25 46
M  V30 48 1 25 47
M  V30 49 1 25 48
M  V30 50 1 28 49
M  V30 51 1 28 50
M  V30 END BOND
M  V30 BEGIN COLLECTION
M  V30 MDLV30/STEABS ATOMS=(1 14)
M  V30 END COLLECTION
M  V30 END CTAB
M  END
>  <Structure No>
7383

>  <LogS>
-2.42

>  <MMFF94 Energy>
92.793

$$$$
Compound 7384
Actelion Java MolfileCreator 2.0

  0  0  0  0  0  0              0 V3000
M  V30 BEGIN CTAB
M  V30 COUNTS 45 48 0 0 0
M  V30 BEGIN ATOM
M  V30 1 C 2.0781 0.2396 -0.4792 0
M  V30 2 C 3.1002 -0.68 -0.8889 0
M  V30 3 C 0.9378 -0.2396 0.236 0
M  V30 4 C 2.1516 1.6149 -0.7761 0
M  V30 5 C 2.9205 -2.068 -0.643 0
M  V30 6 C 4.3033 -0.2773 -1.5282 0
M  V30 7 C -0.0504 0.6751 0.72 0
M  V30 8 C 0.804 -1.6312 0.4374 0
M  V30 9 C 1.14 2.5011 -0.4016 0
M  V30 10 C 1.7719 -2.5226 6.0E-4 0
M  V30 11 C 3.8922 -2.9983 -1.0476 0
M  V30 12 C 5.2582 -1.2168 -1.9229 0
M  V30 13 C 0.0229 2.0446 0.3374 0
M  V30 14 C -1.1643 0.1958 1.6472 0
M  V30 15 C 1.2392 3.8556 -0.7712 0
M  V30 16 C 5.0522 -2.5723 -1.6873 0
M  V30 17 C -0.9943 2.9808 0.6541 0
M  V30 18 C -2.3967 -0.2551 0.8515 0
M  V30 19 C 0.2364 4.7585 -0.4264 0
M  V30 20 C -0.8799 4.3206 0.279 0
M  V30 21 C -3.4613 -0.8565 1.7807 0
M  V30 22 C -4.7949 -1.121 1.0648 0
M  V30 23 C -4.6875 -2.1979 -0.0147 0
M  V30 24 H 2.9697 2.0271 -1.343 0
M  V30 25 H 4.55 0.7522 -1.7236 0
M  V30 26 H -0.0651 -2.0671 0.9047 0
M  V30 27 H 1.6212 -3.5829 0.1738 0
M  V30 28 H 3.7538 -4.0581 -0.8656 0
M  V30 29 H 6.1667 -0.8888 -2.4122 0
M  V30 30 H -1.4443 0.9825 2.3765 0
M  V30 31 H -0.8062 -0.6207 2.3067 0
M  V30 32 H 2.0921 4.2161 -1.3344 0
M  V30 33 H 5.7971 -3.2941 -1.9956 0
M  V30 34 H -1.8998 2.7005 1.1691 0
M  V30 35 H -2.8235 0.6137 0.3062 0
M  V30 36 H -2.0917 -1.0155 0.1025 0
M  V30 37 H 0.3187 5.7979 -0.7188 0
M  V30 38 H -1.6659 5.0209 0.531 0
M  V30 39 H -3.0793 -1.8046 2.2201 0
M  V30 40 H -3.6582 -0.1501 2.6169 0
M  V30 41 H -5.5375 -1.4551 1.8211 0
M  V30 42 H -5.1772 -0.1795 0.6125 0
M  V30 43 H -4.0905 -1.8299 -0.875 0
M  V30 44 H -4.2203 -3.1198 0.3946 0
M  V30 45 H -5.7035 -2.4509 -0.3846 0
M  V30 END ATOM
M  V30 BEGIN BOND
M  V30 1 2 1 2
M  V30 2 1 1 3
M  V30 3 1 1 4
M  V30 4 1 2 5
M  V30 5 1 2 6
M  V30 6 1 3 7
M  V30 7 2 3 8
M  V30 8 2 4 9
M  V30 9 2 5 10
M  V30 10 1 5 11
M  V30 11 2 6 12
M  V30 12 2 7 13
M  V30 13 1 7 14
M  V30 14 1 9 15
M  V30 15 2 11 16
M  V30 16 1 13 17
M  V30 17 1 14 18
M  V30 18 2 15 19
M  V30 19 2 17 20
M  V30 20 1 18 21
M  V30 21 1 21 22
M  V30 22 1 22 23
M  V30 23 1 8 10
M  V30 24 1 9 13
M  V30 25 1 12 16
M  V30 26 1 19 20
M  V30 27 1 4 24
M  V30 28 1 6 25
M  V30 29 1 8 26
M  V30 30 1 10 27
M  V30 31 1 11 28
M  V30 32 1 12 29
M  V30 33 1 14 30
M  V30 34 1 14 31
M  V30 35 1 15 32
M  V30 36 1 16 33
M  V30 37 1 17 34
M  V30 38 1 18 35
M  V30 39 1 18 36
M  V30 40 1 19 37
M  V30 41 1 20 38
M  V30 42 1 21 39
M  V30 43 1 21 40
M  V30 44 1 22 41
M  V30 45 1 22 42
M  V30 46 1 23 43
M  V30 47 1 23 44
M  V30 48 1 23 45
M  V30 END BOND
M  V30 END CTAB
M  END
>  <Structure No>
7384

>  <LogS>
-8.57

>  <MMFF94 Energy>
74.801

$$$$
Compound 7385
Actelion Java MolfileCreator 2.0

  0  0  0  0  0  0              0 V3000
M  V30 BEGIN CTAB
M  V30 COUNTS 23 24 0 0 0
M  V30 BEGIN ATOM
M  V30 1 Cl -3.4663 2.4349 1.0297 0
M  V30 2 C -2.9011 0.9228 0.3151 0
M  V30 3 C -3.7457 0.1957 -0.5441 0
M  V30 4 C -1.611 0.4403 0.612 0
M  V30 5 Cl -5.361 0.7961 -0.9232 0
M  V30 6 C -3.3042 -1.019 -1.0918 0
M  V30 7 Cl -0.6089 1.3062 1.7795 0
M  V30 8 C -1.1622 -0.7648 0.0253 0
M  V30 9 Cl -4.3317 -1.9696 -2.1574 0
M  V30 10 C -2.0247 -1.4927 -0.798 0
M  V30 11 O 0.1187 -1.289 0.254 0
M  V30 12 C 1.3124 -0.5519 0.2646 0
M  V30 13 C 1.6092 0.4366 -0.7012 0
M  V30 14 C 2.2452 -0.8404 1.2638 0
M  V30 15 Cl 0.5275 0.7203 -2.0672 0
M  V30 16 C 2.8159 1.1589 -0.6124 0
M  V30 17 C 3.4426 -0.129 1.3527 0
M  V30 18 Cl 3.1898 2.4068 -1.804 0
M  V30 19 C 3.73 0.8805 0.4207 0
M  V30 20 Cl 4.5632 -0.5223 2.6507 0
M  V30 21 Cl 5.2411 1.7838 0.5401 0
M  V30 22 H -1.686 -2.426 -1.2306 0
M  V30 23 H 2.0246 -1.6121 1.991 0
M  V30 END ATOM
M  V30 BEGIN BOND
M  V30 1 1 1 2
M  V30 2 2 2 3
M  V30 3 1 2 4
M  V30 4 1 3 5
M  V30 5 1 3 6
M  V30 6 1 4 7
M  V30 7 2 4 8
M  V30 8 1 6 9
M  V30 9 2 6 10
M  V30 10 1 8 11
M  V30 11 1 11 12
M  V30 12 2 12 13
M  V30 13 1 12 14
M  V30 14 1 13 15
M  V30 15 1 13 16
M  V30 16 2 14 17
M  V30 17 1 16 18
M  V30 18 2 16 19
M  V30 19 1 17 20
M  V30 20 1 19 21
M  V30 21 1 8 10
M  V30 22 1 17 19
M  V30 23 1 10 22
M  V30 24 1 14 23
M  V30 END BOND
M  V30 END CTAB
M  END
>  <Structure No>
7385

>  <LogS>
-10.1

>  <MMFF94 Energy>
72.691

$$$$
Compound 7386
Actelion Java MolfileCreator 2.0

  0  0  0  0  0  0              0 V3000
M  V30 BEGIN CTAB
M  V30 COUNTS 58 60 0 0 0
M  V30 BEGIN ATOM
M  V30 1 O 0.7986 -0.3992 -3.0374 0
M  V30 2 C -0.2032 -0.0531 -2.3563 0
M  V30 3 N -0.6164 1.2897 -2.1904 0
M  V30 4 N -1.0439 -0.975 -1.6788 0
M  V30 5 C -1.798 1.2006 -1.4038 0
M  V30 6 C -0.0578 2.4735 -2.8366 0
M  V30 7 C -2.1328 -0.2297 -1.034 0
M  V30 8 O -2.4705 2.2075 -1.052 0
M  V30 9 O 1.3425 2.5451 -2.5868 0
M  V30 10 C -3.4578 -0.7278 -1.6155 0
M  V30 11 C -2.0886 -0.3598 0.4895 0
M  V30 12 C 1.8751 2.772 -1.3128 0
M  V30 13 C -3.9687 -1.9728 -1.193 0
M  V30 14 C -4.1438 -0.0353 -2.6394 0
M  V30 15 C -0.9649 -0.8881 1.1596 0
M  V30 16 C -3.1666 0.1188 1.2628 0
M  V30 17 O 1.1259 3.0895 -0.3477 0
M  V30 18 C 3.345 2.5936 -1.0878 0
M  V30 19 C -5.1534 -2.4799 -1.7317 0
M  V30 20 C -5.3288 -0.549 -3.1742 0
M  V30 21 C -0.9445 -0.9709 2.5558 0
M  V30 22 C -3.1379 0.0364 2.6575 0
M  V30 23 C 3.7774 1.1355 -1.3098 0
M  V30 24 C -5.836 -1.7662 -2.717 0
M  V30 25 C -2.0301 -0.5131 3.3031 0
M  V30 26 C 3.1262 0.1344 -0.3373 0
M  V30 27 C 3.6484 0.2783 1.0997 0
M  V30 28 C 3.116 -0.8588 1.9843 0
M  V30 29 C 3.5011 -0.6943 3.4615 0
M  V30 30 C 4.9883 -0.9357 3.7125 0
M  V30 31 H -0.9294 -2.0128 -1.683 0
M  V30 32 H -0.2261 2.4031 -3.9313 0
M  V30 33 H -0.5566 3.395 -2.4657 0
M  V30 34 H -3.4482 -2.5546 -0.4427 0
M  V30 35 H -3.7707 0.8983 -3.0376 0
M  V30 36 H -0.1 -1.2377 0.6127 0
M  V30 37 H -4.0309 0.5614 0.7827 0
M  V30 38 H 3.6262 2.9307 -0.0689 0
M  V30 39 H 3.8889 3.239 -1.8085 0
M  V30 40 H -5.5391 -3.4315 -1.3893 0
M  V30 41 H -5.8521 -0.0039 -3.95 0
M  V30 42 H -0.0839 -1.3887 3.0601 0
M  V30 43 H -3.9748 0.4025 3.2378 0
M  V30 44 H 3.5173 0.8372 -2.3496 0
M  V30 45 H 4.8834 1.0696 -1.2236 0
M  V30 46 H -6.7531 -2.1622 -3.1336 0
M  V30 47 H -2.0098 -0.5764 4.383 0
M  V30 48 H 2.0209 0.2501 -0.3476 0
M  V30 49 H 3.354 -0.8924 -0.702 0
M  V30 50 H 3.3141 1.2525 1.5209 0
M  V30 51 H 4.7603 0.2534 1.0884 0
M  V30 52 H 3.4815 -1.8385 1.6069 0
M  V30 53 H 2.0079 -0.8649 1.9211 0
M  V30 54 H 3.221 0.3179 3.8232 0
M  V30 55 H 2.924 -1.4357 4.0551 0
M  V30 56 H 5.602 -0.1424 3.2397 0
M  V30 57 H 5.1848 -0.921 4.8045 0
M  V30 58 H 5.2926 -1.9251 3.3132 0
M  V30 END ATOM
M  V30 BEGIN BOND
M  V30 1 2 1 2
M  V30 2 1 2 3
M  V30 3 1 2 4
M  V30 4 1 3 5
M  V30 5 1 3 6
M  V30 6 1 4 7
M  V30 7 2 5 8
M  V30 8 1 6 9
M  V30 9 1 7 10
M  V30 10 1 7 11
M  V30 11 1 9 12
M  V30 12 2 10 13
M  V30 13 1 10 14
M  V30 14 2 11 15
M  V30 15 1 11 16
M  V30 16 2 12 17
M  V30 17 1 12 18
M  V30 18 1 13 19
M  V30 19 2 14 20
M  V30 20 1 15 21
M  V30 21 2 16 22
M  V30 22 1 18 23
M  V30 23 2 19 24
M  V30 24 2 21 25
M  V30 25 1 23 26
M  V30 26 1 26 27
M  V30 27 1 27 28
M  V30 28 1 28 29
M  V30 29 1 29 30
M  V30 30 1 5 7
M  V30 31 1 20 24
M  V30 32 1 22 25
M  V30 33 1 4 31
M  V30 34 1 6 32
M  V30 35 1 6 33
M  V30 36 1 13 34
M  V30 37 1 14 35
M  V30 38 1 15 36
M  V30 39 1 16 37
M  V30 40 1 18 38
M  V30 41 1 18 39
M  V30 42 1 19 40
M  V30 43 1 20 41
M  V30 44 1 21 42
M  V30 45 1 22 43
M  V30 46 1 23 44
M  V30 47 1 23 45
M  V30 48 1 24 46
M  V30 49 1 25 47
M  V30 50 1 26 48
M  V30 51 1 26 49
M  V30 52 1 27 50
M  V30 53 1 27 51
M  V30 54 1 28 52
M  V30 55 1 28 53
M  V30 56 1 29 54
M  V30 57 1 29 55
M  V30 58 1 30 56
M  V30 59 1 30 57
M  V30 60 1 30 58
M  V30 END BOND
M  V30 END CTAB
M  END
>  <Structure No>
7386

>  <LogS>
-6.52

>  <MMFF94 Energy>
-39.383

$$$$
Compound 7387
Actelion Java MolfileCreator 2.0

  0  0  0  0  0  0              0 V3000
M  V30 BEGIN CTAB
M  V30 COUNTS 30 32 0 0 0
M  V30 BEGIN ATOM
M  V30 1 S 4.5882 -0.1665 0.9997 0 CFG=2
M  V30 2 O 5.255 -1.5096 0.7337 0
M  V30 3 C 2.9767 -0.319 0.2587 0
M  V30 4 C 5.4769 1.0045 -0.0425 0
M  V30 5 C 1.8423 0.0434 0.995 0
M  V30 6 C 2.8364 -0.7966 -1.0508 0
M  V30 7 C 0.5607 -0.0679 0.4239 0
M  V30 8 C 1.5687 -0.9108 -1.6261 0
M  V30 9 C -0.6045 0.2859 1.127 0
M  V30 10 C 0.43 -0.5498 -0.8986 0
M  V30 11 O -0.5288 0.7204 2.3105 0
M  V30 12 C -1.8552 0.1503 0.4972 0
M  V30 13 O -0.7693 -0.6638 -1.4593 0
M  V30 14 C -1.8924 -0.3396 -0.8272 0
M  V30 15 C -3.0592 0.4866 1.1447 0
M  V30 16 C -3.1177 -0.4864 -1.482 0
M  V30 17 C -4.2926 0.3379 0.483 0
M  V30 18 C -4.3087 -0.151 -0.8342 0
M  V30 19 C -5.56 0.6907 1.1614 0
M  V30 20 O -5.5548 1.1298 2.3423 0
M  V30 21 O -6.776 0.5421 0.5039 0 CHG=-1
M  V30 22 H 6.5061 1.1384 0.3492 0
M  V30 23 H 4.9511 1.9813 -0.0317 0
M  V30 24 H 5.5284 0.6251 -1.0837 0
M  V30 25 H 1.9653 0.4111 2.0067 0
M  V30 26 H 3.7083 -1.0819 -1.6252 0
M  V30 27 H 1.471 -1.281 -2.639 0
M  V30 28 H -3.0384 0.8631 2.1605 0
M  V30 29 H -3.1478 -0.862 -2.4973 0
M  V30 30 H -5.2432 -0.2754 -1.3667 0
M  V30 END ATOM
M  V30 BEGIN BOND
M  V30 1 2 1 2
M  V30 2 1 1 3
M  V30 3 1 1 4
M  V30 4 2 3 5
M  V30 5 1 3 6
M  V30 6 1 5 7
M  V30 7 2 6 8
M  V30 8 1 7 9
M  V30 9 2 7 10
M  V30 10 2 9 11
M  V30 11 1 9 12
M  V30 12 1 10 13
M  V30 13 2 12 14
M  V30 14 1 12 15
M  V30 15 1 14 16
M  V30 16 2 15 17
M  V30 17 2 16 18
M  V30 18 1 17 19
M  V30 19 2 19 20
M  V30 20 1 19 21
M  V30 21 1 8 10
M  V30 22 1 13 14
M  V30 23 1 17 18
M  V30 24 1 4 22
M  V30 25 1 4 23
M  V30 26 1 4 24
M  V30 27 1 5 25
M  V30 28 1 6 26
M  V30 29 1 8 27
M  V30 30 1 15 28
M  V30 31 1 16 29
M  V30 32 1 18 30
M  V30 END BOND
M  V30 BEGIN COLLECTION
M  V30 MDLV30/STEABS ATOMS=(1 1)
M  V30 END COLLECTION
M  V30 END CTAB
M  END
>  <Structure No>
7387

>  <LogS>
-5.02

>  <MMFF94 Energy>
76.908

$$$$
Compound 7388
Actelion Java MolfileCreator 2.0

  0  0  0  0  0  0              0 V3000
M  V30 BEGIN CTAB
M  V30 COUNTS 36 38 0 0 0
M  V30 BEGIN ATOM
M  V30 1 S 5.5932 -0.4104 0.9032 0
M  V30 2 C 4.0022 0.1209 0.2676 0
M  V30 3 C 5.3938 -2.1199 0.3123 0
M  V30 4 C 2.8618 0.0358 1.073 0
M  V30 5 C 3.9012 0.6348 -1.0294 0
M  V30 6 C 1.6214 0.4498 0.5796 0
M  V30 7 C 2.662 1.0496 -1.5259 0
M  V30 8 C 1.5062 0.9466 -0.7317 0
M  V30 9 C 0.1976 1.3963 -1.2636 0
M  V30 10 O 0.1677 2.352 -2.0864 0
M  V30 11 C -1.0795 0.7663 -0.8569 0
M  V30 12 C -1.1915 -0.6116 -0.6303 0
M  V30 13 C -2.2537 1.5406 -0.7189 0
M  V30 14 O -0.2587 -1.528 -0.7357 0
M  V30 15 C -2.376 -1.1879 -0.2598 0
M  V30 16 C -3.4839 0.941 -0.345 0
M  V30 17 C -0.8003 -2.6939 -0.4341 0
M  V30 18 C -3.5421 -0.4473 -0.0987 0
M  V30 19 C -2.1453 -2.5363 -0.1222 0
M  V30 20 C -4.7108 1.7894 -0.1593 0
M  V30 21 C -4.7898 2.2758 1.2521 0
M  V30 22 O -4.2451 3.363 1.5793 0
M  V30 23 O -5.4228 1.5048 2.2188 0 CHG=-1
M  V30 24 H 5.285 -2.131 -0.7924 0
M  V30 25 H 6.293 -2.7065 0.5905 0
M  V30 26 H 4.5014 -2.5851 0.7814 0
M  V30 27 H 2.9356 -0.3491 2.0822 0
M  V30 28 H 4.7814 0.7099 -1.6552 0
M  V30 29 H 0.7547 0.3906 1.2261 0
M  V30 30 H 2.6035 1.4383 -2.5351 0
M  V30 31 H -2.2126 2.6105 -0.8871 0
M  V30 32 H -0.2611 -3.6315 -0.4359 0
M  V30 33 H -4.4651 -0.9291 0.2 0
M  V30 34 H -2.8533 -3.3054 0.1567 0
M  V30 35 H -5.6239 1.2024 -0.3986 0
M  V30 36 H -4.6891 2.6566 -0.8551 0
M  V30 END ATOM
M  V30 BEGIN BOND
M  V30 1 1 1 2
M  V30 2 1 1 3
M  V30 3 2 2 4
M  V30 4 1 2 5
M  V30 5 1 4 6
M  V30 6 2 5 7
M  V30 7 2 6 8
M  V30 8 1 8 9
M  V30 9 2 9 10
M  V30 10 1 9 11
M  V30 11 2 11 12
M  V30 12 1 11 13
M  V30 13 1 12 14
M  V30 14 1 12 15
M  V30 15 2 13 16
M  V30 16 1 14 17
M  V30 17 2 15 18
M  V30 18 1 15 19
M  V30 19 1 16 20
M  V30 20 1 20 21
M  V30 21 2 21 22
M  V30 22 1 21 23
M  V30 23 1 7 8
M  V30 24 1 16 18
M  V30 25 2 17 19
M  V30 26 1 3 24
M  V30 27 1 3 25
M  V30 28 1 3 26
M  V30 29 1 4 27
M  V30 30 1 5 28
M  V30 31 1 6 29
M  V30 32 1 7 30
M  V30 33 1 13 31
M  V30 34 1 17 32
M  V30 35 1 18 33
M  V30 36 1 19 34
M  V30 37 1 20 35
M  V30 38 1 20 36
M  V30 END BOND
M  V30 END CTAB
M  END
>  <Structure No>
7388

>  <LogS>
-5.51

>  <MMFF94 Energy>
90.294

$$$$
Compound 7389
Actelion Java MolfileCreator 2.0

  0  0  0  0  0  0              0 V3000
M  V30 BEGIN CTAB
M  V30 COUNTS 34 35 0 0 0
M  V30 BEGIN ATOM
M  V30 1 Cl 5.5185 -2.5056 -1.6699 0
M  V30 2 C 4.9572 -1.2636 -0.5556 0
M  V30 3 C 3.8303 -0.4604 -0.8367 0
M  V30 4 C 5.6699 -1.0728 0.6348 0
M  V30 5 S 2.9045 -0.6717 -2.3288 0
M  V30 6 C 3.4525 0.5347 0.0801 0
M  V30 7 C 5.2762 -0.0881 1.5432 0
M  V30 8 O 2.5244 -2.1155 -2.5031 0
M  V30 9 O 3.7471 -0.2393 -3.4949 0
M  V30 10 N 1.4599 0.2852 -2.3054 0 CHG=-1
M  V30 11 C 4.1705 0.7163 1.2647 0
M  V30 12 C 0.3427 -0.0249 -1.4697 0
M  V30 13 O 0.3881 -1.0252 -0.7036 0
M  V30 14 N -0.8182 0.8171 -1.512 0
M  V30 15 C -1.9923 0.6303 -0.707 0
M  V30 16 N -2.0759 -0.3904 0.1868 0
M  V30 17 N -3.0345 1.4914 -0.8366 0
M  V30 18 C -3.1884 -0.5506 0.9464 0
M  V30 19 C -4.1564 1.3293 -0.0894 0
M  V30 20 O -3.2484 -1.6046 1.8615 0
M  V30 21 N -4.2272 0.3154 0.8097 0
M  V30 22 C -5.282 2.3016 -0.2096 0
M  V30 23 C -4.3785 -1.8377 2.6938 0
M  V30 24 H 6.5336 -1.6867 0.8562 0
M  V30 25 H 2.6051 1.1769 -0.1173 0
M  V30 26 H 5.8316 0.0549 2.461 0
M  V30 27 H 3.8703 1.4836 1.9666 0
M  V30 28 H -0.8049 1.6261 -2.1734 0
M  V30 29 H -5.3317 2.704 -1.2434 0
M  V30 30 H -5.1237 3.1395 0.5006 0
M  V30 31 H -6.246 1.8022 0.0241 0
M  V30 32 H -4.5559 -0.959 3.3495 0
M  V30 33 H -4.1865 -2.7268 3.3287 0
M  V30 34 H -5.2774 -2.0285 2.0699 0
M  V30 END ATOM
M  V30 BEGIN BOND
M  V30 1 1 1 2
M  V30 2 2 2 3
M  V30 3 1 2 4
M  V30 4 1 3 5
M  V30 5 1 3 6
M  V30 6 2 4 7
M  V30 7 2 5 8
M  V30 8 2 5 9
M  V30 9 1 5 10
M  V30 10 2 6 11
M  V30 11 1 10 12
M  V30 12 2 12 13
M  V30 13 1 12 14
M  V30 14 1 14 15
M  V30 15 2 15 16
M  V30 16 1 15 17
M  V30 17 1 16 18
M  V30 18 2 17 19
M  V30 19 1 18 20
M  V30 20 2 18 21
M  V30 21 1 19 22
M  V30 22 1 20 23
M  V30 23 1 7 11
M  V30 24 1 19 21
M  V30 25 1 4 24
M  V30 26 1 6 25
M  V30 27 1 7 26
M  V30 28 1 11 27
M  V30 29 1 14 28
M  V30 30 1 22 29
M  V30 31 1 22 30
M  V30 32 1 22 31
M  V30 33 1 23 32
M  V30 34 1 23 33
M  V30 35 1 23 34
M  V30 END BOND
M  V30 END CTAB
M  END
>  <Structure No>
7389

>  <LogS>
-1.71

>  <MMFF94 Energy>
-131.19

$$$$
Compound 7390
Actelion Java MolfileCreator 2.0

  0  0  0  0  0  0              0 V3000
M  V30 BEGIN CTAB
M  V30 COUNTS 26 27 0 0 0
M  V30 BEGIN ATOM
M  V30 1 S 1.3099 -2.5335 -0.0872 0
M  V30 2 O 2.2224 -3.5239 0.5781 0
M  V30 3 O 0.8395 -3.0992 -1.3981 0
M  V30 4 N -0.0644 -2.2523 0.9269 0 CHG=-1
M  V30 5 C 2.1846 -1.0273 -0.3435 0
M  V30 6 C -1.082 -1.3133 0.5821 0
M  V30 7 C 2.3014 -0.0987 0.7007 0
M  V30 8 C 2.7723 -0.7496 -1.5864 0
M  V30 9 S -2.4196 -0.9769 1.5445 0
M  V30 10 N -1.0774 -0.5802 -0.5526 0
M  V30 11 C 2.9917 1.1007 0.5003 0
M  V30 12 C 3.4626 0.4505 -1.7837 0
M  V30 13 C -2.9623 0.1449 0.4106 0
M  V30 14 N -2.127 0.2334 -0.6474 0
M  V30 15 C 3.5713 1.3758 -0.7415 0
M  V30 16 S -4.4235 1.096 0.5762 0
M  V30 17 O -5.5934 0.1821 0.8099 0
M  V30 18 O -4.6551 1.8789 -0.6852 0
M  V30 19 N -4.2554 2.1902 1.9039 0
M  V30 20 H 1.8578 -0.3023 1.6671 0
M  V30 21 H 2.6974 -1.4587 -2.4006 0
M  V30 22 H 3.0777 1.8164 1.3077 0
M  V30 23 H 3.9138 0.6631 -2.7443 0
M  V30 24 H 4.1056 2.3043 -0.8954 0
M  V30 25 H -4.1506 1.6106 2.7666 0
M  V30 26 H -5.1611 2.7028 1.9939 0
M  V30 END ATOM
M  V30 BEGIN BOND
M  V30 1 2 1 2
M  V30 2 2 1 3
M  V30 3 1 1 4
M  V30 4 1 1 5
M  V30 5 1 4 6
M  V30 6 2 5 7
M  V30 7 1 5 8
M  V30 8 1 6 9
M  V30 9 2 6 10
M  V30 10 1 7 11
M  V30 11 2 8 12
M  V30 12 1 9 13
M  V30 13 1 10 14
M  V30 14 2 11 15
M  V30 15 1 13 16
M  V30 16 2 16 17
M  V30 17 2 16 18
M  V30 18 1 16 19
M  V30 19 1 12 15
M  V30 20 2 13 14
M  V30 21 1 7 20
M  V30 22 1 8 21
M  V30 23 1 11 22
M  V30 24 1 12 23
M  V30 25 1 15 24
M  V30 26 1 19 25
M  V30 27 1 19 26
M  V30 END BOND
M  V30 END CTAB
M  END
>  <Structure No>
7390

>  <LogS>
-2.9

>  <MMFF94 Energy>
27.291

$$$$
Compound 7391
Actelion Java MolfileCreator 2.0

  0  0  0  0  0  0              0 V3000
M  V30 BEGIN CTAB
M  V30 COUNTS 21 23 0 0 0
M  V30 BEGIN ATOM
M  V30 1 Cl 4.9334 -1.2774 0.7298 0
M  V30 2 C 3.2953 -0.6977 0.4347 0
M  V30 3 C 2.2237 -1.6169 0.3711 0
M  V30 4 C 3.0514 0.69 0.2611 0
M  V30 5 Cl 2.4657 -3.3465 0.5787 0
M  V30 6 C 0.9442 -1.1178 0.136 0
M  V30 7 Cl 4.3645 1.8576 0.335 0
M  V30 8 C 1.7469 1.1621 0.0251 0
M  V30 9 O -0.1713 -1.8097 0.0435 0
M  V30 10 C 0.7088 0.2313 -0.0324 0
M  V30 11 C -1.1368 -0.9445 -0.1826 0
M  V30 12 C -0.6558 0.3491 -0.2418 0
M  V30 13 C -2.4854 -1.2324 -0.3493 0
M  V30 14 C -1.5103 1.4379 -0.4742 0
M  V30 15 C -3.3706 -0.1672 -0.5837 0
M  V30 16 Cl -0.9088 3.0907 -0.5518 0
M  V30 17 C -2.8897 1.1669 -0.647 0
M  V30 18 Cl -5.0786 -0.5294 -0.7951 0
M  V30 19 Cl -4.0175 2.4903 -0.9423 0
M  V30 20 H 1.573 2.2185 -0.1054 0
M  V30 21 H -2.8401 -2.2538 -0.2987 0
M  V30 END ATOM
M  V30 BEGIN BOND
M  V30 1 1 1 2
M  V30 2 2 2 3
M  V30 3 1 2 4
M  V30 4 1 3 5
M  V30 5 1 3 6
M  V30 6 1 4 7
M  V30 7 2 4 8
M  V30 8 1 6 9
M  V30 9 2 6 10
M  V30 10 1 9 11
M  V30 11 1 10 12
M  V30 12 1 11 13
M  V30 13 1 12 14
M  V30 14 2 13 15
M  V30 15 1 14 16
M  V30 16 2 14 17
M  V30 17 1 15 18
M  V30 18 1 17 19
M  V30 19 1 8 10
M  V30 20 2 11 12
M  V30 21 1 15 17
M  V30 22 1 8 20
M  V30 23 1 13 21
M  V30 END BOND
M  V30 END CTAB
M  END
>  <Structure No>
7391

>  <LogS>
-10.3

>  <MMFF94 Energy>
43.911

$$$$
Compound 7392
Actelion Java MolfileCreator 2.0

  0  0  0  0  0  0              0 V3000
M  V30 BEGIN CTAB
M  V30 COUNTS 31 33 0 0 0
M  V30 BEGIN ATOM
M  V30 1 O -2.6842 1.7889 -1.7889 0
M  V30 2 C -2.0348 1.0635 -0.9909 0
M  V30 3 C -0.6319 1.104 -1.0326 0
M  V30 4 C -2.6881 0.185 -0.0933 0
M  V30 5 O 0.0326 1.948 -1.9266 0
M  V30 6 C 0.1 0.2527 -0.1866 0
M  V30 7 C -1.8645 -0.6835 0.6698 0
M  V30 8 C -4.1044 0.0897 0.0615 0
M  V30 9 O -0.5412 -0.6063 0.597 0
M  V30 10 C 1.5807 0.2557 -0.1556 0
M  V30 11 C -2.4323 -1.6434 1.5113 0
M  V30 12 O -5.0163 0.9588 -0.5448 0
M  V30 13 C -4.6432 -0.9062 0.8856 0
M  V30 14 C 2.273 -0.962 -0.0711 0
M  V30 15 C 2.3091 1.4558 -0.1499 0
M  V30 16 C -3.816 -1.7646 1.608 0
M  V30 17 C 3.6722 -0.9941 -0.0171 0
M  V30 18 C 3.704 1.4338 -0.0963 0
M  V30 19 O -4.3723 -2.735 2.4325 0 CHG=-1
M  V30 20 O 4.2935 -2.2427 0.0532 0
M  V30 21 C 4.3978 0.2204 -0.034 0
M  V30 22 O 5.7926 0.2678 0.0132 0
M  V30 23 H -0.4599 2.5697 -2.5564 0
M  V30 24 H -1.794 -2.3056 2.0837 0
M  V30 25 H -4.7843 1.867 -0.9172 0
M  V30 26 H -5.7179 -0.993 0.9886 0
M  V30 27 H 1.7244 -1.8965 -0.0584 0
M  V30 28 H 1.802 2.4121 -0.1621 0
M  V30 29 H 4.2511 2.3682 -0.0952 0
M  V30 30 H 5.2936 -2.3739 0.1003 0
M  V30 31 H 6.3839 -0.5494 0.0559 0
M  V30 END ATOM
M  V30 BEGIN BOND
M  V30 1 2 1 2
M  V30 2 1 2 3
M  V30 3 1 2 4
M  V30 4 1 3 5
M  V30 5 2 3 6
M  V30 6 2 4 7
M  V30 7 1 4 8
M  V30 8 1 6 9
M  V30 9 1 6 10
M  V30 10 1 7 11
M  V30 11 1 8 12
M  V30 12 2 8 13
M  V30 13 2 10 14
M  V30 14 1 10 15
M  V30 15 2 11 16
M  V30 16 1 14 17
M  V30 17 2 15 18
M  V30 18 1 16 19
M  V30 19 1 17 20
M  V30 20 2 17 21
M  V30 21 1 21 22
M  V30 22 1 7 9
M  V30 23 1 13 16
M  V30 24 1 18 21
M  V30 25 1 5 23
M  V30 26 1 11 24
M  V30 27 1 12 25
M  V30 28 1 13 26
M  V30 29 1 14 27
M  V30 30 1 15 28
M  V30 31 1 18 29
M  V30 32 1 20 30
M  V30 33 1 22 31
M  V30 END BOND
M  V30 END CTAB
M  END
>  <Structure No>
7392

>  <LogS>
-1.99

>  <MMFF94 Energy>
49.929

$$$$
Compound 7393
Actelion Java MolfileCreator 2.0

  0  0  0  0  0  0              0 V3000
M  V30 BEGIN CTAB
M  V30 COUNTS 39 41 0 0 0
M  V30 BEGIN ATOM
M  V30 1 Cl -0.3343 -2.5094 1.4214 0
M  V30 2 C -1.3988 -2.4645 0.0172 0
M  V30 3 C -1.7818 -1.2524 -0.6151 0
M  V30 4 C -1.8705 -3.6891 -0.4747 0
M  V30 5 C -2.6497 -1.3114 -1.7231 0
M  V30 6 C -1.3163 0.1124 -0.1283 0 CFG=2
M  V30 7 C -2.7226 -3.7279 -1.5815 0
M  V30 8 C -3.1118 -2.5391 -2.2038 0
M  V30 9 O 0.0713 0.0994 0.1606 0
M  V30 10 C -2.0907 0.5241 1.1331 0
M  V30 11 Cl -3.3056 -5.2683 -2.1883 0
M  V30 12 C 0.8298 0.3569 -1.0055 0
M  V30 13 N -1.6636 1.8499 1.5776 0
M  V30 14 C 2.2925 0.3353 -0.6467 0
M  V30 15 C -2.0979 3.0372 1.1134 0
M  V30 16 C -0.6614 2.1334 2.4257 0
M  V30 17 C 3.178 -0.6687 -1.1051 0
M  V30 18 C 2.7815 1.3435 0.2069 0
M  V30 19 N -1.421 4.0771 1.6453 0
M  V30 20 C -0.521 3.5026 2.4705 0
M  V30 21 Cl 2.6368 -2.0302 -2.0844 0
M  V30 22 C 4.5337 -0.6129 -0.7558 0
M  V30 23 C 4.1328 1.383 0.5557 0
M  V30 24 C 5.0127 0.4149 0.0619 0
M  V30 25 Cl 6.711 0.4724 0.4989 0
M  V30 26 H -1.5756 -4.6146 0.0064 0
M  V30 27 H -2.971 -0.403 -2.2214 0
M  V30 28 H -1.5612 0.8883 -0.8964 0
M  V30 29 H -3.7757 -2.5644 -3.0596 0
M  V30 30 H -3.1812 0.5446 0.9131 0
M  V30 31 H -1.9279 -0.21 1.952 0
M  V30 32 H 0.5912 -0.3833 -1.8012 0
M  V30 33 H 0.5971 1.3716 -1.4078 0
M  V30 34 H -2.8859 3.1487 0.3798 0
M  V30 35 H -0.0628 1.4017 2.9522 0
M  V30 36 H 2.1099 2.0981 0.6077 0
M  V30 37 H 0.2046 4.0508 3.0571 0
M  V30 38 H 5.2136 -1.3799 -1.1073 0
M  V30 39 H 4.4928 2.161 1.2173 0
M  V30 END ATOM
M  V30 BEGIN BOND
M  V30 1 1 1 2
M  V30 2 2 2 3
M  V30 3 1 2 4
M  V30 4 1 3 5
M  V30 5 1 3 6
M  V30 6 2 4 7
M  V30 7 2 5 8
M  V30 8 1 6 9
M  V30 9 1 6 10
M  V30 10 1 7 11
M  V30 11 1 9 12
M  V30 12 1 10 13
M  V30 13 1 12 14
M  V30 14 1 13 15
M  V30 15 1 13 16
M  V30 16 2 14 17
M  V30 17 1 14 18
M  V30 18 2 15 19
M  V30 19 2 16 20
M  V30 20 1 17 21
M  V30 21 1 17 22
M  V30 22 2 18 23
M  V30 23 2 22 24
M  V30 24 1 24 25
M  V30 25 1 7 8
M  V30 26 1 19 20
M  V30 27 1 23 24
M  V30 28 1 4 26
M  V30 29 1 5 27
M  V30 30 1 6 28
M  V30 31 1 8 29
M  V30 32 1 10 30
M  V30 33 1 10 31
M  V30 34 1 12 32
M  V30 35 1 12 33
M  V30 36 1 15 34
M  V30 37 1 16 35
M  V30 38 1 18 36
M  V30 39 1 20 37
M  V30 40 1 22 38
M  V30 41 1 23 39
M  V30 END BOND
M  V30 BEGIN COLLECTION
M  V30 MDLV30/STEABS ATOMS=(1 6)
M  V30 END COLLECTION
M  V30 END CTAB
M  END
>  <Structure No>
7393

>  <LogS>
-5.08

>  <MMFF94 Energy>
34.138

$$$$
Compound 7394
Actelion Java MolfileCreator 2.0

  0  0  0  0  0  0              0 V3000
M  V30 BEGIN CTAB
M  V30 COUNTS 34 36 0 0 0
M  V30 BEGIN ATOM
M  V30 1 O 4.6691 -0.8038 0.1607 0
M  V30 2 C 3.5472 -0.2319 0.05 0
M  V30 3 N 3.4949 1.1284 -0.1445 0
M  V30 4 N 2.3937 -0.9761 0.1252 0
M  V30 5 C 2.286 1.7555 -0.2943 0
M  V30 6 C 4.7438 1.9012 -0.2659 0
M  V30 7 C 1.177 -0.3552 0.0368 0
M  V30 8 C 2.4594 -2.4275 0.3732 0
M  V30 9 O 2.2274 2.9958 -0.5251 0
M  V30 10 C 1.1054 1.0255 -0.1883 0
M  V30 11 N 0.0159 -1.0589 0.1567 0
M  V30 12 N -0.1091 1.6287 -0.2954 0
M  V30 13 C -1.2055 -0.4622 0.0601 0
M  V30 14 C -1.2625 0.9173 -0.1778 0
M  V30 15 N -2.3598 -1.1884 0.1781 0
M  V30 16 C -2.5057 1.5325 -0.2974 0
M  V30 17 C -3.5761 -0.5672 0.0227 0
M  V30 18 C -2.2913 -2.6456 0.387 0
M  V30 19 O -2.5623 2.7732 -0.5262 0
M  V30 20 N -3.6515 0.7913 -0.1757 0
M  V30 21 O -4.6376 -1.2528 0.0567 0
M  V30 22 C -4.9652 1.4376 -0.3434 0
M  V30 23 H 5.5398 1.4833 0.3866 0
M  V30 24 H 5.0902 1.885 -1.3206 0
M  V30 25 H 4.6028 2.9555 0.0544 0
M  V30 26 H 2.3747 -2.6227 1.4629 0
M  V30 27 H 3.4082 -2.8657 -0.0017 0
M  V30 28 H 1.6421 -2.9605 -0.1581 0
M  V30 29 H -2.1742 -3.1568 -0.5915 0
M  V30 30 H -3.2034 -3.0297 0.8913 0
M  V30 31 H -1.438 -2.9153 1.0452 0
M  V30 32 H -5.7415 0.9359 0.273 0
M  V30 33 H -4.9417 2.4972 -0.0102 0
M  V30 34 H -5.2656 1.3984 -1.4116 0
M  V30 END ATOM
M  V30 BEGIN BOND
M  V30 1 2 1 2
M  V30 2 1 2 3
M  V30 3 1 2 4
M  V30 4 1 3 5
M  V30 5 1 3 6
M  V30 6 1 4 7
M  V30 7 1 4 8
M  V30 8 2 5 9
M  V30 9 1 5 10
M  V30 10 1 7 11
M  V30 11 1 10 12
M  V30 12 2 11 13
M  V30 13 2 12 14
M  V30 14 1 13 15
M  V30 15 1 14 16
M  V30 16 1 15 17
M  V30 17 1 15 18
M  V30 18 2 16 19
M  V30 19 1 16 20
M  V30 20 2 17 21
M  V30 21 1 20 22
M  V30 22 2 7 10
M  V30 23 1 13 14
M  V30 24 1 17 20
M  V30 25 1 6 23
M  V30 26 1 6 24
M  V30 27 1 6 25
M  V30 28 1 8 26
M  V30 29 1 8 27
M  V30 30 1 8 28
M  V30 31 1 18 29
M  V30 32 1 18 30
M  V30 33 1 18 31
M  V30 34 1 22 32
M  V30 35 1 22 33
M  V30 36 1 22 34
M  V30 END BOND
M  V30 END CTAB
M  END
>  <Structure No>
7394

>  <LogS>
-3.31

>  <MMFF94 Energy>
-49.982

$$$$
Compound 7395
Actelion Java MolfileCreator 2.0

  0  0  0  0  0  0              0 V3000
M  V30 BEGIN CTAB
M  V30 COUNTS 29 30 0 0 0
M  V30 BEGIN ATOM
M  V30 1 S 5.8 -1.1235 0.0863 0
M  V30 2 O 5.5719 -2.5993 0.2547 0
M  V30 3 O 7.0125 -0.7194 0.8766 0
M  V30 4 N 6.0577 -0.7526 -1.582 0
M  V30 5 C 4.4036 -0.2451 0.6742 0
M  V30 6 S 2.8296 -0.4749 0.1216 0
M  V30 7 N 4.465 0.7083 1.6291 0
M  V30 8 C 2.2732 0.7137 1.1831 0
M  V30 9 N 3.2783 1.2421 1.9128 0
M  V30 10 N 0.916 1.1369 1.3214 0 CHG=-1
M  V30 11 S -0.3811 0.4676 0.3908 0
M  V30 12 O -0.1278 0.7045 -1.0716 0
M  V30 13 O -0.486 -1.0075 0.6588 0
M  V30 14 C -1.9023 1.2678 0.8676 0
M  V30 15 C -3.0566 0.7137 0.0802 0
M  V30 16 C -3.4081 1.2801 -1.1564 0
M  V30 17 C -3.7613 -0.4075 0.5493 0
M  V30 18 C -4.4621 0.7434 -1.9024 0
M  V30 19 C -4.8146 -0.9411 -0.1998 0
M  V30 20 C -5.1659 -0.365 -1.4238 0
M  V30 21 H 6.8696 -1.3274 -1.9008 0
M  V30 22 H 5.2213 -1.0974 -2.1046 0
M  V30 23 H -2.0669 1.1136 1.9554 0
M  V30 24 H -1.8059 2.361 0.6948 0
M  V30 25 H -2.8653 2.134 -1.5424 0
M  V30 26 H -3.4935 -0.8685 1.492 0
M  V30 27 H -4.7312 1.1851 -2.8531 0
M  V30 28 H -5.3565 -1.8031 0.167 0
M  V30 29 H -5.9806 -0.78 -2.003 0
M  V30 END ATOM
M  V30 BEGIN BOND
M  V30 1 2 1 2
M  V30 2 2 1 3
M  V30 3 1 1 4
M  V30 4 1 1 5
M  V30 5 1 5 6
M  V30 6 2 5 7
M  V30 7 1 6 8
M  V30 8 1 7 9
M  V30 9 1 8 10
M  V30 10 1 10 11
M  V30 11 2 11 12
M  V30 12 2 11 13
M  V30 13 1 11 14
M  V30 14 1 14 15
M  V30 15 2 15 16
M  V30 16 1 15 17
M  V30 17 1 16 18
M  V30 18 2 17 19
M  V30 19 2 18 20
M  V30 20 2 8 9
M  V30 21 1 19 20
M  V30 22 1 4 21
M  V30 23 1 4 22
M  V30 24 1 14 23
M  V30 25 1 14 24
M  V30 26 1 16 25
M  V30 27 1 17 26
M  V30 28 1 18 27
M  V30 29 1 19 28
M  V30 30 1 20 29
M  V30 END BOND
M  V30 END CTAB
M  END
>  <Structure No>
7395

>  <LogS>
-2.7

>  <MMFF94 Energy>
46.621

$$$$
Compound 7396
Actelion Java MolfileCreator 2.0

  0  0  0  0  0  0              0 V3000
M  V30 BEGIN CTAB
M  V30 COUNTS 37 38 0 0 0
M  V30 BEGIN ATOM
M  V30 1 S -0.3287 0.6575 1.48 0
M  V30 2 O -1.429 -0.2357 1.983 0
M  V30 3 O 0.1783 1.46 2.6452 0
M  V30 4 C 0.9957 -0.3084 0.8368 0
M  V30 5 C -0.9777 1.7303 0.2165 0
M  V30 6 C 2.0166 0.3078 0.1038 0
M  V30 7 C 1.0326 -1.6938 1.0425 0
M  V30 8 C -0.5351 3.1464 0.1818 0
M  V30 9 C -1.8689 1.2871 -0.6944 0
M  V30 10 C 3.0608 -0.4532 -0.4288 0
M  V30 11 C 2.0748 -2.4574 0.5094 0
M  V30 12 O -1.1022 3.9741 -0.5851 0
M  V30 13 O 0.5266 3.5646 0.9898 0
M  V30 14 C -2.3142 -0.1123 -0.8004 0
M  V30 15 C 3.1008 -1.845 -0.2338 0
M  V30 16 C 1.0118 4.9017 0.9921 0
M  V30 17 C -1.4384 -1.1064 -1.2642 0
M  V30 18 C -3.6399 -0.4477 -0.4896 0
M  V30 19 N 4.175 -2.6272 -0.7864 0 CHG=1
M  V30 20 C -1.8722 -2.4312 -1.3686 0
M  V30 21 C -4.0718 -1.7736 -0.5979 0
M  V30 22 O 4.2152 -3.8636 -0.6172 0
M  V30 23 O 5.1768 -2.0248 -1.5127 0 CHG=-1
M  V30 24 C -3.1871 -2.7655 -1.0318 0
M  V30 25 H 2.0026 1.3775 -0.0606 0
M  V30 26 H 0.2523 -2.1874 1.607 0
M  V30 27 H -2.3081 1.9788 -1.4028 0
M  V30 28 H 3.8354 0.0475 -0.9946 0
M  V30 29 H 2.0772 -3.5266 0.6773 0
M  V30 30 H 0.2043 5.5987 1.3013 0
M  V30 31 H 1.8521 4.9828 1.7117 0
M  V30 32 H 1.3773 5.1749 -0.0203 0
M  V30 33 H -0.4248 -0.8548 -1.5494 0
M  V30 34 H -4.3325 0.3133 -0.1515 0
M  V30 35 H -1.1908 -3.197 -1.7157 0
M  V30 36 H -5.0922 -2.032 -0.3457 0
M  V30 37 H -3.5226 -3.7912 -1.1143 0
M  V30 END ATOM
M  V30 BEGIN BOND
M  V30 1 2 1 2
M  V30 2 2 1 3
M  V30 3 1 1 4
M  V30 4 1 1 5
M  V30 5 2 4 6
M  V30 6 1 4 7
M  V30 7 1 5 8
M  V30 8 2 5 9
M  V30 9 1 6 10
M  V30 10 2 7 11
M  V30 11 2 8 12
M  V30 12 1 8 13
M  V30 13 1 9 14
M  V30 14 2 10 15
M  V30 15 1 13 16
M  V30 16 2 14 17
M  V30 17 1 14 18
M  V30 18 1 15 19
M  V30 19 1 17 20
M  V30 20 2 18 21
M  V30 21 2 19 22
M  V30 22 1 19 23
M  V30 23 2 20 24
M  V30 24 1 11 15
M  V30 25 1 21 24
M  V30 26 1 6 25
M  V30 27 1 7 26
M  V30 28 1 9 27
M  V30 29 1 10 28
M  V30 30 1 11 29
M  V30 31 1 16 30
M  V30 32 1 16 31
M  V30 33 1 16 32
M  V30 34 1 17 33
M  V30 35 1 18 34
M  V30 36 1 20 35
M  V30 37 1 21 36
M  V30 38 1 24 37
M  V30 END BOND
M  V30 END CTAB
M  END
>  <Structure No>
7396

>  <LogS>
-4.57

>  <MMFF94 Energy>
70.806

$$$$
Compound 7397
Actelion Java MolfileCreator 2.0

  0  0  0  0  0  0              0 V3000
M  V30 BEGIN CTAB
M  V30 COUNTS 39 42 0 0 0
M  V30 BEGIN ATOM
M  V30 1 Cl -6.1453 -2.5366 -0.9813 0
M  V30 2 C -4.6701 -1.7661 -0.4274 0
M  V30 3 C -3.6684 -1.4323 -1.3436 0
M  V30 4 C -4.4967 -1.4808 0.9304 0
M  V30 5 C -2.4926 -0.8176 -0.9039 0
M  V30 6 C -3.3219 -0.8663 1.3744 0
M  V30 7 C -2.3024 -0.5383 0.4633 0
M  V30 8 C -1.0377 0.1483 0.9491 0 CFG=1
M  V30 9 C 0.23 -0.5369 0.4398 0
M  V30 10 C -1.1005 1.6422 0.5547 0
M  V30 11 C 0.398 -1.9389 0.4959 0
M  V30 12 C 1.3143 0.2375 -0.0186 0
M  V30 13 C 0.2539 2.333 0.771 0 CFG=2
M  V30 14 O -0.4977 -2.6745 0.9891 0
M  V30 15 O 1.5081 -2.5055 0.0347 0
M  V30 16 O 1.2518 1.6362 0.0235 0
M  V30 17 C 2.461 -0.3988 -0.5132 0
M  V30 18 O 0.5741 2.3055 2.1404 0
M  V30 19 C 0.1919 3.787 0.289 0
M  V30 20 C 2.5183 -1.8082 -0.471 0
M  V30 21 C 3.5504 0.3245 -1.0297 0
M  V30 22 C 3.6503 -2.4758 -0.952 0
M  V30 23 C 4.6765 -0.3527 -1.5079 0
M  V30 24 C 4.7258 -1.7491 -1.4705 0
M  V30 25 H -3.8002 -1.6466 -2.3964 0
M  V30 26 H -5.2722 -1.7326 1.6426 0
M  V30 27 H -1.7283 -0.5615 -1.6272 0
M  V30 28 H -3.2081 -0.6481 2.4289 0
M  V30 29 H -0.9947 0.0963 2.0601 0
M  V30 30 H -1.3789 1.7361 -0.5191 0
M  V30 31 H -1.8864 2.1505 1.1568 0
M  V30 32 H 1.523 2.5851 2.2261 0
M  V30 33 H -0.0625 3.827 -0.7917 0
M  V30 34 H -0.574 4.3525 0.862 0
M  V30 35 H 1.1773 4.279 0.4337 0
M  V30 36 H 3.5339 1.4068 -1.0685 0
M  V30 37 H 3.6978 -3.557 -0.9211 0
M  V30 38 H 5.5128 0.2059 -1.9079 0
M  V30 39 H 5.5998 -2.2687 -1.8412 0
M  V30 END ATOM
M  V30 BEGIN BOND
M  V30 1 1 1 2
M  V30 2 2 2 3
M  V30 3 1 2 4
M  V30 4 1 3 5
M  V30 5 2 4 6
M  V30 6 2 5 7
M  V30 7 1 7 8
M  V30 8 1 8 9
M  V30 9 1 8 10
M  V30 10 1 9 11
M  V30 11 2 9 12
M  V30 12 1 10 13
M  V30 13 2 11 14
M  V30 14 1 11 15
M  V30 15 1 12 16
M  V30 16 1 12 17
M  V30 17 1 13 18
M  V30 18 1 13 19
M  V30 19 1 15 20
M  V30 20 1 17 21
M  V30 21 1 20 22
M  V30 22 2 21 23
M  V30 23 2 22 24
M  V30 24 1 6 7
M  V30 25 1 13 16
M  V30 26 2 17 20
M  V30 27 1 23 24
M  V30 28 1 3 25
M  V30 29 1 4 26
M  V30 30 1 5 27
M  V30 31 1 6 28
M  V30 32 1 8 29
M  V30 33 1 10 30
M  V30 34 1 10 31
M  V30 35 1 18 32
M  V30 36 1 19 33
M  V30 37 1 19 34
M  V30 38 1 19 35
M  V30 39 1 21 36
M  V30 40 1 22 37
M  V30 41 1 23 38
M  V30 42 1 24 39
M  V30 END BOND
M  V30 BEGIN COLLECTION
M  V30 MDLV30/STEABS ATOMS=(2 8 13)
M  V30 END COLLECTION
M  V30 END CTAB
M  END
>  <Structure No>
7397

>  <LogS>
-5.84

>  <MMFF94 Energy>
34.882

$$$$
Compound 7398
Actelion Java MolfileCreator 2.0

  0  0  0  0  0  0              0 V3000
M  V30 BEGIN CTAB
M  V30 COUNTS 36 38 0 0 0
M  V30 BEGIN ATOM
M  V30 1 S 4.3352 1.1438 -0.49 0
M  V30 2 O 4.7303 0.8295 -1.9058 0
M  V30 3 O 5.4092 0.6402 0.4334 0
M  V30 4 N 4.1638 2.8538 -0.3055 0
M  V30 5 C 2.8065 0.3587 -0.1092 0
M  V30 6 C 2.5145 -0.0098 1.2105 0
M  V30 7 C 1.8633 0.1233 -1.1179 0
M  V30 8 C 1.2943 -0.6188 1.5179 0
M  V30 9 C 0.6435 -0.4863 -0.8119 0
M  V30 10 C 0.3486 -0.8594 0.5092 0
M  V30 11 C -0.944 -1.4995 0.8327 0
M  V30 12 C -2.219 -1.1452 0.4066 0
M  V30 13 C -1.1455 -2.6825 1.5226 0
M  V30 14 N -3.0984 -2.0731 0.8367 0
M  V30 15 C -2.6236 0.0557 -0.3562 0
M  V30 16 O -2.4258 -2.9688 1.4996 0
M  V30 17 C -0.1137 -3.5322 2.1902 0
M  V30 18 C -1.9835 1.2931 -0.1602 0
M  V30 19 C -3.6942 -0.0233 -1.2632 0
M  V30 20 C -2.3866 2.4192 -0.8842 0
M  V30 21 C -4.0944 1.1055 -1.9847 0
M  V30 22 C -3.4386 2.3249 -1.7983 0
M  V30 23 H 5.1045 3.2755 -0.4746 0
M  V30 24 H 3.9299 3.0304 0.6972 0
M  V30 25 H 3.2273 0.1799 2.0028 0
M  V30 26 H 2.0702 0.4116 -2.1405 0
M  V30 27 H 1.0807 -0.8821 2.5458 0
M  V30 28 H -0.069 -0.6706 -1.6064 0
M  V30 29 H 0.8008 -3.5873 1.5637 0
M  V30 30 H 0.139 -3.1017 3.1811 0
M  V30 31 H -0.5091 -4.5592 2.3341 0
M  V30 32 H -1.1866 1.3965 0.5645 0
M  V30 33 H -4.2115 -0.9615 -1.4225 0
M  V30 34 H -1.8876 3.3673 -0.7307 0
M  V30 35 H -4.9136 1.0348 -2.6885 0
M  V30 36 H -3.7502 3.1981 -2.3569 0
M  V30 END ATOM
M  V30 BEGIN BOND
M  V30 1 2 1 2
M  V30 2 2 1 3
M  V30 3 1 1 4
M  V30 4 1 1 5
M  V30 5 2 5 6
M  V30 6 1 5 7
M  V30 7 1 6 8
M  V30 8 2 7 9
M  V30 9 2 8 10
M  V30 10 1 10 11
M  V30 11 1 11 12
M  V30 12 2 11 13
M  V30 13 2 12 14
M  V30 14 1 12 15
M  V30 15 1 13 16
M  V30 16 1 13 17
M  V30 17 2 15 18
M  V30 18 1 15 19
M  V30 19 1 18 20
M  V30 20 2 19 21
M  V30 21 2 20 22
M  V30 22 1 9 10
M  V30 23 1 14 16
M  V30 24 1 21 22
M  V30 25 1 4 23
M  V30 26 1 4 24
M  V30 27 1 6 25
M  V30 28 1 7 26
M  V30 29 1 8 27
M  V30 30 1 9 28
M  V30 31 1 17 29
M  V30 32 1 17 30
M  V30 33 1 17 31
M  V30 34 1 18 32
M  V30 35 1 19 33
M  V30 36 1 20 34
M  V30 37 1 21 35
M  V30 38 1 22 36
M  V30 END BOND
M  V30 END CTAB
M  END
>  <Structure No>
7398

>  <LogS>
-4.52

>  <MMFF94 Energy>
-22.546

$$$$
Compound 7399
Actelion Java MolfileCreator 2.0

  0  0  0  0  0  0              0 V3000
M  V30 BEGIN CTAB
M  V30 COUNTS 42 43 0 0 0
M  V30 BEGIN ATOM
M  V30 1 S 7.4027 -0.2461 2.2165 0
M  V30 2 O 8.3066 0.8857 1.8169 0
M  V30 3 O 7.9022 -1.5154 1.586 0
M  V30 4 N 7.4017 -0.4077 3.9373 0
M  V30 5 C 5.7746 0.0795 1.658 0
M  V30 6 S 5.1304 1.6317 1.4547 0
M  V30 7 N 4.886 -0.8969 1.355 0
M  V30 8 C 3.6512 1.0196 0.9507 0
M  V30 9 C 3.7024 -0.3637 0.9597 0
M  V30 10 C 2.508 1.7152 0.569 0
M  V30 11 C 2.5882 -1.1113 0.5829 0
M  V30 12 C 1.372 0.9837 0.18 0
M  V30 13 C 1.4188 -0.4362 0.1933 0
M  V30 14 O 0.2269 1.7018 -0.2015 0
M  V30 15 C -0.9805 1.132 -0.7062 0
M  V30 16 C -0.81 0.7064 -2.1665 0
M  V30 17 O -2.0036 0.0905 -2.6436 0
M  V30 18 C -3.1611 0.8061 -2.967 0
M  V30 19 O -3.1523 2.0668 -3.0044 0
M  V30 20 C -4.4381 0.0674 -3.2021 0
M  V30 21 N -5.2133 0.0162 -1.9657 0
M  V30 22 C -4.8208 -0.7908 -0.8464 0
M  V30 23 O -3.8638 -1.605 -0.9516 0
M  V30 24 C -5.5082 -0.6276 0.4762 0
M  V30 25 N -4.939 0.4991 1.2131 0 CHG=1
M  V30 26 H 6.8083 -1.2367 4.1654 0
M  V30 27 H 8.3773 -0.6481 4.2226 0
M  V30 28 H 2.4957 2.7976 0.5711 0
M  V30 29 H 2.621 -2.1933 0.5897 0
M  V30 30 H 0.5612 -1.0276 -0.0923 0
M  V30 31 H -1.7762 1.9039 -0.6475 0
M  V30 32 H -1.3075 0.2775 -0.076 0
M  V30 33 H -0.5481 1.5835 -2.7971 0
M  V30 34 H 0.0164 -0.028 -2.2475 0
M  V30 35 H -5.0254 0.5929 -3.9859 0
M  V30 36 H -4.229 -0.9615 -3.5648 0
M  V30 37 H -6.0521 0.6329 -1.8774 0
M  V30 38 H -5.3962 -1.5591 1.0739 0
M  V30 39 H -6.5951 -0.4584 0.3126 0
M  V30 40 H -5.4271 0.5884 2.1333 0
M  V30 41 H -3.9192 0.3391 1.3823 0
M  V30 42 H -5.0708 1.3851 0.6724 0
M  V30 END ATOM
M  V30 BEGIN BOND
M  V30 1 2 1 2
M  V30 2 2 1 3
M  V30 3 1 1 4
M  V30 4 1 1 5
M  V30 5 1 5 6
M  V30 6 2 5 7
M  V30 7 1 6 8
M  V30 8 1 7 9
M  V30 9 1 8 10
M  V30 10 1 9 11
M  V30 11 2 10 12
M  V30 12 2 11 13
M  V30 13 1 12 14
M  V30 14 1 14 15
M  V30 15 1 15 16
M  V30 16 1 16 17
M  V30 17 1 17 18
M  V30 18 2 18 19
M  V30 19 1 18 20
M  V30 20 1 20 21
M  V30 21 1 21 22
M  V30 22 2 22 23
M  V30 23 1 22 24
M  V30 24 1 24 25
M  V30 25 2 8 9
M  V30 26 1 12 13
M  V30 27 1 4 26
M  V30 28 1 4 27
M  V30 29 1 10 28
M  V30 30 1 11 29
M  V30 31 1 13 30
M  V30 32 1 15 31
M  V30 33 1 15 32
M  V30 34 1 16 33
M  V30 35 1 16 34
M  V30 36 1 20 35
M  V30 37 1 20 36
M  V30 38 1 21 37
M  V30 39 1 24 38
M  V30 40 1 24 39
M  V30 41 1 25 40
M  V30 42 1 25 41
M  V30 43 1 25 42
M  V30 END BOND
M  V30 END CTAB
M  END
>  <Structure No>
7399

>  <LogS>
-1.3

>  <MMFF94 Energy>
24.202

$$$$
Compound 7400
Actelion Java MolfileCreator 2.0

  0  0  0  0  0  0              0 V3000
M  V30 BEGIN CTAB
M  V30 COUNTS 29 30 0 0 0
M  V30 BEGIN ATOM
M  V30 1 S -0.7778 2.1616 1.9886 0
M  V30 2 O -0.4429 1.4802 3.286 0
M  V30 3 O -1.6339 3.3631 2.2714 0
M  V30 4 N 0.6909 2.6744 1.2273 0 CHG=-1
M  V30 5 C -1.6569 1.0689 0.9243 0
M  V30 6 C 1.7059 1.7651 0.7985 0
M  V30 7 C -1.6833 1.3087 -0.4555 0
M  V30 8 C -2.3347 -0.0402 1.4476 0
M  V30 9 S 1.6607 0.0865 0.9721 0
M  V30 10 N 2.8366 2.1732 0.1849 0
M  V30 11 C -2.3694 0.4388 -1.3081 0
M  V30 12 C -3.0218 -0.9104 0.5959 0
M  V30 13 C 3.1596 -0.042 0.2165 0
M  V30 14 N 3.6465 1.1668 -0.1385 0
M  V30 15 C -3.0293 -0.6856 -0.7891 0
M  V30 16 S 3.9976 -1.5527 -0.0752 0
M  V30 17 C -3.7974 -1.5976 -1.6988 0
M  V30 18 O 3.0644 -2.5205 -0.7459 0
M  V30 19 O 4.4664 -2.1266 1.2316 0
M  V30 20 N 5.3619 -1.2807 -1.1024 0
M  V30 21 H -1.1732 2.1683 -0.8712 0
M  V30 22 H -2.3343 -0.2317 2.5129 0
M  V30 23 H -2.3852 0.6416 -2.3717 0
M  V30 24 H -3.5467 -1.7593 1.0165 0
M  V30 25 H -3.3272 -1.634 -2.7045 0
M  V30 26 H -4.8389 -1.2273 -1.7991 0
M  V30 27 H -3.8176 -2.6309 -1.2918 0
M  V30 28 H 5.9758 -0.5862 -0.6207 0
M  V30 29 H 5.0059 -0.8205 -1.97 0
M  V30 END ATOM
M  V30 BEGIN BOND
M  V30 1 2 1 2
M  V30 2 2 1 3
M  V30 3 1 1 4
M  V30 4 1 1 5
M  V30 5 1 4 6
M  V30 6 2 5 7
M  V30 7 1 5 8
M  V30 8 1 6 9
M  V30 9 2 6 10
M  V30 10 1 7 11
M  V30 11 2 8 12
M  V30 12 1 9 13
M  V30 13 1 10 14
M  V30 14 2 11 15
M  V30 15 1 13 16
M  V30 16 1 15 17
M  V30 17 2 16 18
M  V30 18 2 16 19
M  V30 19 1 16 20
M  V30 20 1 12 15
M  V30 21 2 13 14
M  V30 22 1 7 21
M  V30 23 1 8 22
M  V30 24 1 11 23
M  V30 25 1 12 24
M  V30 26 1 17 25
M  V30 27 1 17 26
M  V30 28 1 17 27
M  V30 29 1 20 28
M  V30 30 1 20 29
M  V30 END BOND
M  V30 END CTAB
M  END
>  <Structure No>
7400

>  <LogS>
-1.22

>  <MMFF94 Energy>
29.666

$$$$
Compound 7401
Actelion Java MolfileCreator 2.0

  0  0  0  0  0  0              0 V3000
M  V30 BEGIN CTAB
M  V30 COUNTS 44 45 0 0 0
M  V30 BEGIN ATOM
M  V30 1 S -3.6604 -1.9509 1.3816 0
M  V30 2 O -3.5931 -1.5274 2.8218 0
M  V30 3 O -4.4305 -3.2388 1.2867 0
M  V30 4 N -4.4739 -0.7373 0.4566 0
M  V30 5 C -2.0225 -2.1622 0.7573 0
M  V30 6 C -1.1464 -1.0656 0.699 0
M  V30 7 C -1.6072 -3.4144 0.2865 0
M  V30 8 O -1.5967 0.187 1.1425 0
M  V30 9 C 0.1668 -1.2376 0.2069 0
M  V30 10 C -0.3169 -3.5915 -0.2367 0
M  V30 11 C -1.5763 1.3603 0.3723 0
M  V30 12 N 1.0988 -0.1409 0.2341 0
M  V30 13 C 0.5633 -2.4991 -0.2695 0
M  V30 14 C 0.1171 -4.9153 -0.7379 0
M  V30 15 C -1.4283 1.3346 -1.0283 0
M  V30 16 C -1.7239 2.5916 1.0227 0
M  V30 17 C 2.1441 0.0235 -0.7792 0
M  V30 18 O -0.6656 -5.902 -0.7039 0
M  V30 19 O 1.396 -5.0888 -1.2549 0 CHG=-1
M  V30 20 C -1.401 2.5292 -1.7543 0
M  V30 21 C -1.6979 3.7846 0.2935 0
M  V30 22 C 2.7591 1.4318 -0.7358 0
M  V30 23 C -1.5328 3.7535 -1.0937 0
M  V30 24 C 3.6232 1.6913 0.5111 0
M  V30 25 C 4.9612 0.9535 0.4672 0
M  V30 26 H -4.4996 -1.0728 -0.5322 0
M  V30 27 H -5.4627 -0.7072 0.7923 0
M  V30 28 H -2.2925 -4.2515 0.3231 0
M  V30 29 H 0.939 0.6256 0.9257 0
M  V30 30 H 1.5682 -2.6378 -0.6441 0
M  V30 31 H -1.3389 0.3966 -1.5597 0
M  V30 32 H -1.8487 2.6236 2.0977 0
M  V30 33 H 1.6931 -0.123 -1.7849 0
M  V30 34 H 2.9298 -0.7466 -0.6429 0
M  V30 35 H -1.2807 2.5055 -2.8296 0
M  V30 36 H -1.8048 4.733 0.8042 0
M  V30 37 H 1.9371 2.1809 -0.767 0
M  V30 38 H 3.3734 1.5885 -1.6492 0
M  V30 39 H -1.5118 4.6775 -1.6571 0
M  V30 40 H 3.8326 2.7816 0.5679 0
M  V30 41 H 3.0774 1.4109 1.4366 0
M  V30 42 H 4.8107 -0.1429 0.5402 0
M  V30 43 H 5.5859 1.2728 1.3279 0
M  V30 44 H 5.5066 1.1912 -0.4706 0
M  V30 END ATOM
M  V30 BEGIN BOND
M  V30 1 2 1 2
M  V30 2 2 1 3
M  V30 3 1 1 4
M  V30 4 1 1 5
M  V30 5 2 5 6
M  V30 6 1 5 7
M  V30 7 1 6 8
M  V30 8 1 6 9
M  V30 9 2 7 10
M  V30 10 1 8 11
M  V30 11 1 9 12
M  V30 12 2 9 13
M  V30 13 1 10 14
M  V30 14 2 11 15
M  V30 15 1 11 16
M  V30 16 1 12 17
M  V30 17 2 14 18
M  V30 18 1 14 19
M  V30 19 1 15 20
M  V30 20 2 16 21
M  V30 21 1 17 22
M  V30 22 2 20 23
M  V30 23 1 22 24
M  V30 24 1 24 25
M  V30 25 1 10 13
M  V30 26 1 21 23
M  V30 27 1 4 26
M  V30 28 1 4 27
M  V30 29 1 7 28
M  V30 30 1 12 29
M  V30 31 1 13 30
M  V30 32 1 15 31
M  V30 33 1 16 32
M  V30 34 1 17 33
M  V30 35 1 17 34
M  V30 36 1 20 35
M  V30 37 1 21 36
M  V30 38 1 22 37
M  V30 39 1 22 38
M  V30 40 1 23 39
M  V30 41 1 24 40
M  V30 42 1 24 41
M  V30 43 1 25 42
M  V30 44 1 25 43
M  V30 45 1 25 44
M  V30 END BOND
M  V30 END CTAB
M  END
>  <Structure No>
7401

>  <LogS>
-3.56

>  <MMFF94 Energy>
-24.191

$$$$
Compound 7402
Actelion Java MolfileCreator 2.0

  0  0  0  0  0  0              0 V3000
M  V30 BEGIN CTAB
M  V30 COUNTS 50 53 0 0 0
M  V30 BEGIN ATOM
M  V30 1 F 0.5669 0.2429 1.7826 0
M  V30 2 C 0.7755 0.1662 0.4447 0
M  V30 3 C -0.3521 0.0334 -0.3719 0
M  V30 4 C 2.0803 0.2403 -0.1159 0
M  V30 5 N -1.6641 -0.0723 0.2065 0
M  V30 6 C -0.2138 0.0361 -1.757 0
M  V30 7 N 3.2149 0.2814 0.6763 0
M  V30 8 C 2.211 0.2784 -1.5395 0
M  V30 9 C -2.1746 0.9641 1.105 0
M  V30 10 C -2.4094 -1.3272 0.1118 0
M  V30 11 F -1.3266 -0.038 -2.5331 0
M  V30 12 C 1.0397 0.2083 -2.3529 0
M  V30 13 C 4.4374 0.5337 0.1223 0
M  V30 14 C 3.1694 0.1283 2.1444 0
M  V30 15 C 3.5138 0.3596 -2.0931 0
M  V30 16 C -3.6627 1.2262 0.8124 0 CFG=2
M  V30 17 C -3.8897 -1.0278 -0.1813 0 CFG=2
M  V30 18 N 1.0817 0.3792 -3.7776 0
M  V30 19 C 4.6272 0.553 -1.2594 0
M  V30 20 C 2.7549 -1.2645 2.6135 0
M  V30 21 C 4.2013 -0.8369 2.7325 0
M  V30 22 O 3.6949 0.2317 -3.3337 0
M  V30 23 N -4.4298 -0.0401 0.7793 0 CHG=1
M  V30 24 C -3.8435 2.0493 -0.4758 0
M  V30 25 C -4.7115 -2.3227 -0.1365 0
M  V30 26 C 6.001 0.7485 -1.7997 0
M  V30 27 O 6.1997 0.8882 -3.0356 0
M  V30 28 O 7.0939 0.7919 -0.9413 0 CHG=-1
M  V30 29 H -2.0637 0.6196 2.1561 0
M  V30 30 H -1.5931 1.9061 0.991 0
M  V30 31 H -1.9941 -1.9704 -0.6952 0
M  V30 32 H -2.3116 -1.876 1.0741 0
M  V30 33 H 5.2956 0.6787 0.769 0
M  V30 34 H 2.8831 1.0011 2.7693 0
M  V30 35 H -4.0594 1.8496 1.6459 0
M  V30 36 H -3.9719 -0.6282 -1.2159 0
M  V30 37 H 1.7015 1.0947 -4.216 0
M  V30 38 H 0.3251 -0.0121 -4.3818 0
M  V30 39 H 2.2041 -1.277 3.5775 0
M  V30 40 H 2.5658 -2.0043 1.8062 0
M  V30 41 H 4.863 -1.3765 2.022 0
M  V30 42 H 4.5096 -0.6109 3.7749 0
M  V30 43 H -4.4239 -0.4548 1.7419 0
M  V30 44 H -5.4267 0.1708 0.537 0
M  V30 45 H -4.9225 2.1678 -0.7096 0
M  V30 46 H -3.4081 3.0619 -0.3383 0
M  V30 47 H -3.3354 1.5724 -1.3389 0
M  V30 48 H -4.3189 -3.0518 -0.8769 0
M  V30 49 H -4.6698 -2.7792 0.8754 0
M  V30 50 H -5.7719 -2.1086 -0.3881 0
M  V30 END ATOM
M  V30 BEGIN BOND
M  V30 1 1 1 2
M  V30 2 2 2 3
M  V30 3 1 2 4
M  V30 4 1 3 5
M  V30 5 1 3 6
M  V30 6 1 4 7
M  V30 7 2 4 8
M  V30 8 1 5 9
M  V30 9 1 5 10
M  V30 10 1 6 11
M  V30 11 2 6 12
M  V30 12 1 7 13
M  V30 13 1 7 14
M  V30 14 1 8 15
M  V30 15 1 9 16
M  V30 16 1 10 17
M  V30 17 1 12 18
M  V30 18 2 13 19
M  V30 19 1 14 20
M  V30 20 1 14 21
M  V30 21 2 15 22
M  V30 22 1 16 23
M  V30 23 1 16 24
M  V30 24 1 17 25
M  V30 25 1 19 26
M  V30 26 2 26 27
M  V30 27 1 26 28
M  V30 28 1 8 12
M  V30 29 1 15 19
M  V30 30 1 17 23
M  V30 31 1 20 21
M  V30 32 1 9 29
M  V30 33 1 9 30
M  V30 34 1 10 31
M  V30 35 1 10 32
M  V30 36 1 13 33
M  V30 37 1 14 34
M  V30 38 1 16 35
M  V30 39 1 17 36
M  V30 40 1 18 37
M  V30 41 1 18 38
M  V30 42 1 20 39
M  V30 43 1 20 40
M  V30 44 1 21 41
M  V30 45 1 21 42
M  V30 46 1 23 43
M  V30 47 1 23 44
M  V30 48 1 24 45
M  V30 49 1 24 46
M  V30 50 1 24 47
M  V30 51 1 25 48
M  V30 52 1 25 49
M  V30 53 1 25 50
M  V30 END BOND
M  V30 BEGIN COLLECTION
M  V30 MDLV30/STEABS ATOMS=(2 16 17)
M  V30 END COLLECTION
M  V30 END CTAB
M  END
>  <Structure No>
7402

>  <LogS>
-3.37

>  <MMFF94 Energy>
177.24

$$$$
Compound 7403
Actelion Java MolfileCreator 2.0

  0  0  0  0  0  0              0 V3000
M  V30 BEGIN CTAB
M  V30 COUNTS 43 45 0 0 0
M  V30 BEGIN ATOM
M  V30 1 Cl 4.5335 -1.1319 -4.939 0
M  V30 2 C 3.7066 -0.7764 -3.4333 0
M  V30 3 C 4.2827 0.0996 -2.5099 0
M  V30 4 C 2.4765 -1.3769 -3.1534 0
M  V30 5 C 3.6276 0.3847 -1.3066 0
M  V30 6 C 1.8114 -1.1 -1.9554 0
M  V30 7 N 4.2076 1.2264 -0.4113 0
M  V30 8 C 2.37 -0.2045 -1.0203 0
M  V30 9 C 3.6167 1.5319 0.7711 0
M  V30 10 C 1.7361 0.1093 0.2062 0
M  V30 11 C 2.3766 0.9856 1.0978 0
M  V30 12 N 0.4274 -0.3996 0.5259 0
M  V30 13 C 0.0152 -0.7308 1.8641 0
M  V30 14 C -1.2978 -0.4453 2.3155 0
M  V30 15 C 0.8973 -1.4316 2.7055 0
M  V30 16 C -2.245 0.3505 1.5024 0
M  V30 17 C -1.6978 -0.8932 3.5881 0
M  V30 18 C 0.4881 -1.8519 3.9717 0
M  V30 19 O -3.4875 0.1775 1.6383 0
M  V30 20 O -1.7599 1.3204 0.616 0
M  V30 21 C -0.8088 -1.5886 4.4096 0
M  V30 22 C -2.5745 2.0313 -0.3154 0
M  V30 23 C -2.5562 1.3456 -1.6954 0 CFG=2
M  V30 24 O -3.1212 2.1829 -2.6735 0
M  V30 25 C -3.2464 -0.0302 -1.7004 0
M  V30 26 O -4.5774 0.064 -1.2654 0
M  V30 27 H 5.2411 0.556 -2.7263 0
M  V30 28 H 2.0354 -2.0652 -3.8633 0
M  V30 29 H 0.8743 -1.6052 -1.7696 0
M  V30 30 H 4.1071 2.21 1.4567 0
M  V30 31 H 1.9079 1.2629 2.0335 0
M  V30 32 H -0.2719 -0.5044 -0.2412 0
M  V30 33 H 1.8966 -1.6756 2.3683 0
M  V30 34 H -2.6944 -0.6845 3.9581 0
M  V30 35 H 1.1742 -2.3943 4.6093 0
M  V30 36 H -1.1253 -1.9201 5.3902 0
M  V30 37 H -3.6119 2.1551 0.0649 0
M  V30 38 H -2.146 3.0498 -0.4294 0
M  V30 39 H -1.4921 1.1845 -1.9752 0
M  V30 40 H -4.0375 2.422 -2.3752 0
M  V30 41 H -2.701 -0.7255 -1.0295 0
M  V30 42 H -3.1969 -0.4691 -2.7237 0
M  V30 43 H -5.1275 0.2771 -2.0635 0
M  V30 END ATOM
M  V30 BEGIN BOND
M  V30 1 1 1 2
M  V30 2 2 2 3
M  V30 3 1 2 4
M  V30 4 1 3 5
M  V30 5 2 4 6
M  V30 6 2 5 7
M  V30 7 1 5 8
M  V30 8 1 7 9
M  V30 9 2 8 10
M  V30 10 2 9 11
M  V30 11 1 10 12
M  V30 12 1 12 13
M  V30 13 2 13 14
M  V30 14 1 13 15
M  V30 15 1 14 16
M  V30 16 1 14 17
M  V30 17 2 15 18
M  V30 18 2 16 19
M  V30 19 1 16 20
M  V30 20 2 17 21
M  V30 21 1 20 22
M  V30 22 1 22 23
M  V30 23 1 23 24
M  V30 24 1 23 25
M  V30 25 1 25 26
M  V30 26 1 6 8
M  V30 27 1 10 11
M  V30 28 1 18 21
M  V30 29 1 3 27
M  V30 30 1 4 28
M  V30 31 1 6 29
M  V30 32 1 9 30
M  V30 33 1 11 31
M  V30 34 1 12 32
M  V30 35 1 15 33
M  V30 36 1 17 34
M  V30 37 1 18 35
M  V30 38 1 21 36
M  V30 39 1 22 37
M  V30 40 1 22 38
M  V30 41 1 23 39
M  V30 42 1 24 40
M  V30 43 1 25 41
M  V30 44 1 25 42
M  V30 45 1 26 43
M  V30 END BOND
M  V30 BEGIN COLLECTION
M  V30 MDLV30/STEABS ATOMS=(1 23)
M  V30 END COLLECTION
M  V30 END CTAB
M  END
>  <Structure No>
7403

>  <LogS>
-4.54

>  <MMFF94 Energy>
96.772

$$$$
Compound 7404
Actelion Java MolfileCreator 2.0

  0  0  0  0  0  0              0 V3000
M  V30 BEGIN CTAB
M  V30 COUNTS 28 29 0 0 0
M  V30 BEGIN ATOM
M  V30 1 S -0.1731 0.8657 2.7723 0
M  V30 2 O -0.9223 1.0569 4.0603 0
M  V30 3 O 0.8053 1.994 2.6009 0
M  V30 4 N 0.6986 -0.6297 2.8361 0 CHG=-1
M  V30 5 C -1.323 0.8349 1.4393 0
M  V30 6 C 1.4885 -1.1191 1.7508 0
M  V30 7 C -2.0255 -0.3424 1.1496 0
M  V30 8 C -1.5404 1.9805 0.6613 0
M  V30 9 S 1.7162 -0.3409 0.27 0
M  V30 10 N 2.1468 -2.2963 1.8028 0
M  V30 11 C -2.9314 -0.3775 0.0852 0
M  V30 12 C -2.4469 1.9458 -0.4028 0
M  V30 13 C 2.6923 -1.6074 -0.2563 0
M  V30 14 N 2.8171 -2.5686 0.6847 0
M  V30 15 C -3.1458 0.7662 -0.6968 0
M  V30 16 S 3.4511 -1.6862 -1.8324 0
M  V30 17 N -4.0716 0.7304 -1.7861 0
M  V30 18 O 2.4106 -1.9806 -2.8756 0
M  V30 19 O 4.4837 -2.7784 -1.8367 0
M  V30 20 N 4.2175 -0.1762 -2.181 0
M  V30 21 H -1.8694 -1.233 1.7451 0
M  V30 22 H -1.0096 2.8991 0.8754 0
M  V30 23 H -3.4653 -1.2946 -0.1298 0
M  V30 24 H -2.6044 2.8368 -0.9977 0
M  V30 25 H -4.5969 -0.1434 -2.0127 0
M  V30 26 H -4.2383 1.5774 -2.3742 0
M  V30 27 H 4.7119 -0.2876 -3.0944 0
M  V30 28 H 4.9541 -0.0324 -1.4543 0
M  V30 END ATOM
M  V30 BEGIN BOND
M  V30 1 2 1 2
M  V30 2 2 1 3
M  V30 3 1 1 4
M  V30 4 1 1 5
M  V30 5 1 4 6
M  V30 6 2 5 7
M  V30 7 1 5 8
M  V30 8 1 6 9
M  V30 9 2 6 10
M  V30 10 1 7 11
M  V30 11 2 8 12
M  V30 12 1 9 13
M  V30 13 1 10 14
M  V30 14 2 11 15
M  V30 15 1 13 16
M  V30 16 1 15 17
M  V30 17 2 16 18
M  V30 18 2 16 19
M  V30 19 1 16 20
M  V30 20 1 12 15
M  V30 21 2 13 14
M  V30 22 1 7 21
M  V30 23 1 8 22
M  V30 24 1 11 23
M  V30 25 1 12 24
M  V30 26 1 17 25
M  V30 27 1 17 26
M  V30 28 1 20 27
M  V30 29 1 20 28
M  V30 END BOND
M  V30 END CTAB
M  END
>  <Structure No>
7404

>  <LogS>
-1.5

>  <MMFF94 Energy>
18.582

$$$$
Compound 7405
Actelion Java MolfileCreator 2.0

  0  0  0  0  0  0              0 V3000
M  V30 BEGIN CTAB
M  V30 COUNTS 58 60 0 0 0
M  V30 BEGIN ATOM
M  V30 1 O 2.9229 0.0789 -2.2113 0
M  V30 2 C 1.6715 -0.1352 -1.6103 0
M  V30 3 C 4.1866 -0.25 -1.6339 0
M  V30 4 C 1.5161 -0.8428 -0.4021 0
M  V30 5 C 0.5363 0.3725 -2.2522 0
M  V30 6 C 4.5464 0.7518 -0.5224 0
M  V30 7 C 0.2457 -1.0194 0.1533 0
M  V30 8 C -0.7335 0.1963 -1.6976 0
M  V30 9 N 5.9243 0.5598 -0.0098 0 CHG=1
M  V30 10 C -0.8872 -0.4875 -0.4807 0
M  V30 11 C 6.328 1.7305 0.7894 0
M  V30 12 C 6.0316 -0.6593 0.8141 0
M  V30 13 C -2.2343 -0.6805 0.116 0
M  V30 14 C -2.6269 -2.0774 0.4155 0
M  V30 15 C -3.0726 0.37 0.3464 0
M  V30 16 C -2.7233 -3.0164 -0.6242 0
M  V30 17 C -2.8248 -2.4951 1.742 0
M  V30 18 C -2.5881 1.773 0.2339 0
M  V30 19 C -4.5254 0.1697 0.742 0
M  V30 20 C -3.0553 -4.3452 -0.3435 0
M  V30 21 C -3.1563 -3.8248 2.0187 0
M  V30 22 C -1.4732 2.2002 0.9784 0
M  V30 23 C -3.2478 2.6935 -0.5986 0
M  V30 24 C -5.3708 -0.3371 -0.4258 0
M  V30 25 C -3.2753 -4.7483 0.9765 0
M  V30 26 C -1.0143 3.5162 0.8714 0
M  V30 27 C -2.7859 4.0094 -0.7012 0
M  V30 28 C -1.669 4.4197 0.031 0
M  V30 29 H 4.1748 -1.2962 -1.2669 0
M  V30 30 H 4.9531 -0.188 -2.4346 0
M  V30 31 H 2.3652 -1.2625 0.1175 0
M  V30 32 H 0.6399 0.9087 -3.1871 0
M  V30 33 H 3.8086 0.6843 0.3073 0
M  V30 34 H 4.4452 1.7701 -0.9622 0
M  V30 35 H 0.1466 -1.56 1.0867 0
M  V30 36 H -1.5977 0.59 -2.2184 0
M  V30 37 H 6.5899 0.4796 -0.8151 0
M  V30 38 H 5.6498 1.8726 1.6608 0
M  V30 39 H 6.3095 2.6527 0.1677 0
M  V30 40 H 7.3691 1.61 1.1621 0
M  V30 41 H 5.8774 -1.5685 0.1969 0
M  V30 42 H 7.0498 -0.7464 1.2535 0
M  V30 43 H 5.2887 -0.6522 1.6428 0
M  V30 44 H -2.551 -2.7157 -1.6504 0
M  V30 45 H -2.7147 -1.7929 2.5594 0
M  V30 46 H -4.6127 -0.5308 1.5963 0
M  V30 47 H -4.9585 1.1319 1.093 0
M  V30 48 H -3.139 -5.0631 -1.1491 0
M  V30 49 H -3.3147 -4.1407 3.0417 0
M  V30 50 H -0.9615 1.5143 1.6423 0
M  V30 51 H -4.1087 2.3933 -1.1799 0
M  V30 52 H -5.0499 -1.3521 -0.7354 0
M  V30 53 H -6.4354 -0.39 -0.1151 0
M  V30 54 H -5.2912 0.3471 -1.2955 0
M  V30 55 H -3.5305 -5.7776 1.1923 0
M  V30 56 H -0.1524 3.8362 1.4426 0
M  V30 57 H -3.2937 4.7112 -1.3502 0
M  V30 58 H -1.3129 5.4386 -0.0506 0
M  V30 END ATOM
M  V30 BEGIN BOND
M  V30 1 1 1 2
M  V30 2 1 1 3
M  V30 3 2 2 4
M  V30 4 1 2 5
M  V30 5 1 3 6
M  V30 6 1 4 7
M  V30 7 2 5 8
M  V30 8 1 6 9
M  V30 9 2 7 10
M  V30 10 1 9 11
M  V30 11 1 9 12
M  V30 12 1 10 13
M  V30 13 1 13 14
M  V30 14 2 13 15
M  V30 15 2 14 16
M  V30 16 1 14 17
M  V30 17 1 15 18
M  V30 18 1 15 19
M  V30 19 1 16 20
M  V30 20 2 17 21
M  V30 21 2 18 22
M  V30 22 1 18 23
M  V30 23 1 19 24
M  V30 24 2 20 25
M  V30 25 1 22 26
M  V30 26 2 23 27
M  V30 27 2 26 28
M  V30 28 1 8 10
M  V30 29 1 21 25
M  V30 30 1 27 28
M  V30 31 1 3 29
M  V30 32 1 3 30
M  V30 33 1 4 31
M  V30 34 1 5 32
M  V30 35 1 6 33
M  V30 36 1 6 34
M  V30 37 1 7 35
M  V30 38 1 8 36
M  V30 39 1 9 37
M  V30 40 1 11 38
M  V30 41 1 11 39
M  V30 42 1 11 40
M  V30 43 1 12 41
M  V30 44 1 12 42
M  V30 45 1 12 43
M  V30 46 1 16 44
M  V30 47 1 17 45
M  V30 48 1 19 46
M  V30 49 1 19 47
M  V30 50 1 20 48
M  V30 51 1 21 49
M  V30 52 1 22 50
M  V30 53 1 23 51
M  V30 54 1 24 52
M  V30 55 1 24 53
M  V30 56 1 24 54
M  V30 57 1 25 55
M  V30 58 1 26 56
M  V30 59 1 27 57
M  V30 60 1 28 58
M  V30 END BOND
M  V30 END CTAB
M  END
>  <Structure No>
7405

>  <LogS>
-8.49

>  <MMFF94 Energy>
102.32

$$$$
Compound 7406
Actelion Java MolfileCreator 2.0

  0  0  0  0  0  0              0 V3000
M  V30 BEGIN CTAB
M  V30 COUNTS 28 29 0 0 0
M  V30 BEGIN ATOM
M  V30 1 S -1.2121 -1.2121 -2.3385 0
M  V30 2 O -0.3655 -0.8626 -3.5311 0
M  V30 3 O -2.3797 -2.042 -2.7909 0
M  V30 4 N -0.2583 -2.1254 -1.2197 0 CHG=-1
M  V30 5 C -1.8125 0.2451 -1.5536 0
M  V30 6 C 0.8707 -1.5638 -0.5528 0
M  V30 7 C -2.3587 0.1645 -0.2652 0
M  V30 8 C -1.7421 1.4867 -2.201 0
M  V30 9 S 1.8177 -2.3949 0.5618 0
M  V30 10 N 1.3012 -0.2961 -0.7378 0
M  V30 11 C -2.8228 1.3201 0.3809 0
M  V30 12 C -2.205 2.6394 -1.5597 0
M  V30 13 C 2.7846 -1.0299 0.7687 0
M  V30 14 N 2.3674 0.0011 0.0018 0
M  V30 15 N -3.3764 1.2352 1.6965 0
M  V30 16 C -2.7411 2.5585 -0.2713 0
M  V30 17 S 4.1556 -0.9356 1.8548 0
M  V30 18 O 3.6694 -0.7485 3.2643 0
M  V30 19 O 5.0171 0.2327 1.466 0
M  V30 20 N 5.0896 -2.3868 1.7424 0
M  V30 21 H -2.4168 -0.7935 0.2362 0
M  V30 22 H -1.3265 1.5669 -3.1976 0
M  V30 23 H -2.1487 3.5961 -2.0625 0
M  V30 24 H -3.4774 0.3117 2.1757 0
M  V30 25 H -3.7058 2.0927 2.1928 0
M  V30 26 H -3.0959 3.4582 0.2157 0
M  V30 27 H 5.8953 -2.2829 2.3985 0
M  V30 28 H 4.497 -3.1603 2.1177 0
M  V30 END ATOM
M  V30 BEGIN BOND
M  V30 1 2 1 2
M  V30 2 2 1 3
M  V30 3 1 1 4
M  V30 4 1 1 5
M  V30 5 1 4 6
M  V30 6 2 5 7
M  V30 7 1 5 8
M  V30 8 1 6 9
M  V30 9 2 6 10
M  V30 10 1 7 11
M  V30 11 2 8 12
M  V30 12 1 9 13
M  V30 13 1 10 14
M  V30 14 1 11 15
M  V30 15 2 11 16
M  V30 16 1 13 17
M  V30 17 2 17 18
M  V30 18 2 17 19
M  V30 19 1 17 20
M  V30 20 1 12 16
M  V30 21 2 13 14
M  V30 22 1 7 21
M  V30 23 1 8 22
M  V30 24 1 12 23
M  V30 25 1 15 24
M  V30 26 1 15 25
M  V30 27 1 16 26
M  V30 28 1 20 27
M  V30 29 1 20 28
M  V30 END BOND
M  V30 END CTAB
M  END
>  <Structure No>
7406

>  <LogS>
-1.54

>  <MMFF94 Energy>
14.879

$$$$
Compound 7407
Actelion Java MolfileCreator 2.0

  0  0  0  0  0  0              0 V3000
M  V30 BEGIN CTAB
M  V30 COUNTS 36 39 0 0 0
M  V30 BEGIN ATOM
M  V30 1 Cl 1.3929 -3.1155 -3.4439 0
M  V30 2 C 0.385 -2.0383 -2.4944 0
M  V30 3 C 0.9731 -1.0876 -1.6583 0
M  V30 4 C -1.0028 -2.1228 -2.5846 0
M  V30 5 C 0.1823 -0.2137 -0.8869 0
M  V30 6 C -1.8059 -1.2627 -1.8365 0
M  V30 7 C 0.8769 0.7661 0.01 0
M  V30 8 C -1.2342 -0.3153 -0.9685 0
M  V30 9 N 0.4884 2.008 0.1155 0
M  V30 10 C 2.0583 0.3333 0.8012 0
M  V30 11 N -2.0904 0.588 -0.2415 0
M  V30 12 C -0.657 2.6042 -0.5601 0
M  V30 13 C 3.1452 1.2052 1.0225 0
M  V30 14 C 2.0966 -0.9573 1.3628 0
M  V30 15 C -1.8919 1.9071 -0.1026 0
M  V30 16 C -3.2456 0.3404 0.4234 0
M  V30 17 F 3.1596 2.4519 0.4859 0
M  V30 18 C 4.2435 0.7834 1.7796 0
M  V30 19 C 3.1977 -1.3703 2.1179 0
M  V30 20 C -2.924 2.4409 0.6348 0
M  V30 21 N -3.7839 1.4562 0.965 0
M  V30 22 C -3.8656 -1.0107 0.6007 0
M  V30 23 C 4.27 -0.5012 2.3257 0
M  V30 24 H 2.0538 -1.0257 -1.6161 0
M  V30 25 H -1.4623 -2.8465 -3.2458 0
M  V30 26 H -2.8783 -1.3175 -1.9599 0
M  V30 27 H -0.7081 3.6843 -0.3076 0
M  V30 28 H -0.5468 2.5019 -1.6611 0
M  V30 29 H 1.2688 -1.6425 1.2274 0
M  V30 30 H 5.0783 1.4534 1.9408 0
M  V30 31 H 3.2172 -2.3644 2.5457 0
M  V30 32 H -3.0333 3.4741 0.9371 0
M  V30 33 H -4.5441 -1.2261 -0.2499 0
M  V30 34 H -3.0806 -1.7925 0.666 0
M  V30 35 H -4.4566 -1.0327 1.5403 0
M  V30 36 H 5.1218 -0.8231 2.9109 0
M  V30 END ATOM
M  V30 BEGIN BOND
M  V30 1 1 1 2
M  V30 2 2 2 3
M  V30 3 1 2 4
M  V30 4 1 3 5
M  V30 5 2 4 6
M  V30 6 1 5 7
M  V30 7 2 5 8
M  V30 8 2 7 9
M  V30 9 1 7 10
M  V30 10 1 8 11
M  V30 11 1 9 12
M  V30 12 2 10 13
M  V30 13 1 10 14
M  V30 14 1 11 15
M  V30 15 1 11 16
M  V30 16 1 13 17
M  V30 17 1 13 18
M  V30 18 2 14 19
M  V30 19 2 15 20
M  V30 20 2 16 21
M  V30 21 1 16 22
M  V30 22 2 18 23
M  V30 23 1 6 8
M  V30 24 1 12 15
M  V30 25 1 19 23
M  V30 26 1 20 21
M  V30 27 1 3 24
M  V30 28 1 4 25
M  V30 29 1 6 26
M  V30 30 1 12 27
M  V30 31 1 12 28
M  V30 32 1 14 29
M  V30 33 1 18 30
M  V30 34 1 19 31
M  V30 35 1 20 32
M  V30 36 1 22 33
M  V30 37 1 22 34
M  V30 38 1 22 35
M  V30 39 1 23 36
M  V30 END BOND
M  V30 END CTAB
M  END
>  <Structure No>
7407

>  <LogS>
-4.13

>  <MMFF94 Energy>
71.654

$$$$
Compound 7408
Actelion Java MolfileCreator 2.0

  0  0  0  0  0  0              0 V3000
M  V30 BEGIN CTAB
M  V30 COUNTS 48 48 0 0 0
M  V30 BEGIN ATOM
M  V30 1 S 3.2039 1.8064 1.5599 0
M  V30 2 O 2.9499 2.8291 2.6316 0
M  V30 3 O 4.0774 2.43 0.5073 0
M  V30 4 N 4.013 0.4398 2.2556 0
M  V30 5 C 1.6617 1.3137 0.86 0
M  V30 6 S 4.1246 -0.8153 1.0305 0 CFG=2
M  V30 7 C 1.5189 1.1844 -0.5204 0
M  V30 8 C 0.5893 1.0124 1.6957 0
M  V30 9 C 4.4235 -2.1668 1.8606 0
M  V30 10 C 5.6859 -0.4792 0.1939 0
M  V30 11 C 0.3025 0.7731 -1.0868 0
M  V30 12 C -0.6323 0.5636 1.1732 0
M  V30 13 N 0.1997 0.727 -2.5212 0 CHG=1
M  V30 14 C -0.7919 0.44 -0.2382 0
M  V30 15 N -1.6768 0.21 2.0991 0 CHG=1
M  V30 16 O 1.1962 0.4275 -3.2113 0
M  V30 17 O -0.938 1.1594 -3.1588 0 CHG=-1
M  V30 18 N -2.0446 -0.0272 -0.7948 0
M  V30 19 O -2.4265 -0.7619 1.8795 0
M  V30 20 O -1.7596 0.8446 3.3175 0 CHG=-1
M  V30 21 C -2.0985 -1.2438 -1.6292 0
M  V30 22 C -3.2815 0.742 -0.5705 0
M  V30 23 C -2.2138 -2.5212 -0.7869 0
M  V30 24 C -3.5373 1.7261 -1.7146 0
M  V30 25 C -0.882 -2.9397 -0.1646 0
M  V30 26 C -4.8472 2.4818 -1.5097 0
M  V30 27 H 3.3851 0.0836 3.0114 0
M  V30 28 H 2.3551 1.4249 -1.1646 0
M  V30 29 H 0.7199 1.0924 2.7679 0
M  V30 30 H 4.4379 -2.1592 2.9451 0
M  V30 31 H 4.6103 -3.0944 1.3309 0
M  V30 32 H 5.5835 0.4277 -0.4352 0
M  V30 33 H 5.953 -1.3383 -0.4555 0
M  V30 34 H 6.4887 -0.3186 0.9433 0
M  V30 35 H -1.2165 -1.3201 -2.2952 0
M  V30 36 H -2.9857 -1.1954 -2.2978 0
M  V30 37 H -4.1415 0.0427 -0.477 0
M  V30 38 H -3.2203 1.3171 0.3772 0
M  V30 39 H -2.5534 -3.3465 -1.4496 0
M  V30 40 H -2.9852 -2.3961 0.001 0
M  V30 41 H -3.589 1.1784 -2.6798 0
M  V30 42 H -2.7061 2.462 -1.7604 0
M  V30 43 H -0.1088 -3.066 -0.9519 0
M  V30 44 H -1.0098 -3.9087 0.3619 0
M  V30 45 H -0.5316 -2.191 0.5721 0
M  V30 46 H -5.0027 3.1903 -2.3504 0
M  V30 47 H -4.8161 3.0584 -0.5605 0
M  V30 48 H -5.7016 1.7724 -1.4804 0
M  V30 END ATOM
M  V30 BEGIN BOND
M  V30 1 2 1 2
M  V30 2 2 1 3
M  V30 3 1 1 4
M  V30 4 1 1 5
M  V30 5 1 4 6
M  V30 6 2 5 7
M  V30 7 1 5 8
M  V30 8 2 6 9
M  V30 9 1 6 10
M  V30 10 1 7 11
M  V30 11 2 8 12
M  V30 12 1 11 13
M  V30 13 2 11 14
M  V30 14 1 12 15
M  V30 15 2 13 16
M  V30 16 1 13 17
M  V30 17 1 14 18
M  V30 18 2 15 19
M  V30 19 1 15 20
M  V30 20 1 18 21
M  V30 21 1 18 22
M  V30 22 1 21 23
M  V30 23 1 22 24
M  V30 24 1 23 25
M  V30 25 1 24 26
M  V30 26 1 12 14
M  V30 27 1 4 27
M  V30 28 1 7 28
M  V30 29 1 8 29
M  V30 30 1 9 30
M  V30 31 1 9 31
M  V30 32 1 10 32
M  V30 33 1 10 33
M  V30 34 1 10 34
M  V30 35 1 21 35
M  V30 36 1 21 36
M  V30 37 1 22 37
M  V30 38 1 22 38
M  V30 39 1 23 39
M  V30 40 1 23 40
M  V30 41 1 24 41
M  V30 42 1 24 42
M  V30 43 1 25 43
M  V30 44 1 25 44
M  V30 45 1 25 45
M  V30 46 1 26 46
M  V30 47 1 26 47
M  V30 48 1 26 48
M  V30 END BOND
M  V30 BEGIN COLLECTION
M  V30 MDLV30/STEABS ATOMS=(1 6)
M  V30 END COLLECTION
M  V30 END CTAB
M  END
>  <Structure No>
7408

>  <LogS>
-4.86

>  <MMFF94 Energy>
112.55

$$$$
Compound 7409
Actelion Java MolfileCreator 2.0

  0  0  0  0  0  0              0 V3000
M  V30 BEGIN CTAB
M  V30 COUNTS 47 50 0 0 0
M  V30 BEGIN ATOM
M  V30 1 S -1.7963 -1.2245 0.6529 0
M  V30 2 C -3.3801 -0.5862 -0.0794 0
M  V30 3 C -1.7424 0.0682 1.9555 0 CFG=2
M  V30 4 C -4.0381 0.3324 0.9926 0 CFG=1
M  V30 5 C -3.0136 0.1712 -1.3722 0
M  V30 6 C -4.2833 -1.7828 -0.4162 0
M  V30 7 N -2.9138 0.8589 1.7285 0 CFG=2
M  V30 8 C -0.8377 1.1854 1.7956 0 CFG=2
M  V30 9 C -4.9583 1.4121 0.4778 0
M  V30 10 C -2.0397 2.054 1.6038 0
M  V30 11 N -0.0028 1.1305 0.5931 0
M  V30 12 N -5.0513 2.6489 1.0006 0
M  V30 13 N -5.9211 1.2079 -0.4398 0 CHG=-1
M  V30 14 O -2.2228 3.2778 1.3729 0
M  V30 15 C 1.1748 0.3144 0.5301 0
M  V30 16 N -6.0589 3.2145 0.3573 0
M  V30 17 N -6.5783 2.3539 -0.503 0
M  V30 18 O 1.5153 -0.3761 1.5299 0
M  V30 19 C 1.9461 0.2145 -0.7641 0 CFG=2
M  V30 20 N 1.3831 -0.8445 -1.6112 0 CHG=1
M  V30 21 C 3.4328 0.0062 -0.517 0
M  V30 22 C 4.3271 1.0781 -0.6871 0
M  V30 23 C 3.9358 -1.2346 -0.0803 0
M  V30 24 C 5.6936 0.9084 -0.4473 0
M  V30 25 C 5.3027 -1.4015 0.1586 0
M  V30 26 C 6.1881 -0.3321 -0.0258 0
M  V30 27 N 7.5865 -0.5047 0.2198 0
M  V30 28 H -1.7401 -0.357 2.9831 0
M  V30 29 H -4.6274 -0.2917 1.6995 0
M  V30 30 H -2.3837 -0.4682 -2.0271 0
M  V30 31 H -3.9198 0.4498 -1.9489 0
M  V30 32 H -2.4454 1.0953 -1.1392 0
M  V30 33 H -5.2491 -1.4384 -0.8436 0
M  V30 34 H -3.7873 -2.4466 -1.1565 0
M  V30 35 H -4.493 -2.3805 0.4965 0
M  V30 36 H -0.2663 1.4528 2.7115 0
M  V30 37 H -0.2346 1.7412 -0.2237 0
M  V30 38 H 1.816 1.179 -1.3062 0
M  V30 39 H 0.4161 -0.576 -1.9071 0
M  V30 40 H 1.9671 -0.9635 -2.4708 0
M  V30 41 H 1.3304 -1.7532 -1.097 0
M  V30 42 H 3.9681 2.0488 -1.006 0
M  V30 43 H 3.2737 -2.0731 0.0861 0
M  V30 44 H 6.3666 1.7448 -0.5882 0
M  V30 45 H 5.671 -2.3635 0.4917 0
M  V30 46 H 8.2542 0.2876 0.088 0
M  V30 47 H 7.9649 -1.4267 0.5337 0
M  V30 END ATOM
M  V30 BEGIN BOND
M  V30 1 1 1 2
M  V30 2 1 1 3
M  V30 3 1 2 4
M  V30 4 1 2 5
M  V30 5 1 2 6
M  V30 6 1 3 7
M  V30 7 1 3 8
M  V30 8 1 4 9
M  V30 9 1 7 10
M  V30 10 1 8 11
M  V30 11 2 9 12
M  V30 12 1 9 13
M  V30 13 2 10 14
M  V30 14 1 11 15
M  V30 15 1 12 16
M  V30 16 1 13 17
M  V30 17 2 15 18
M  V30 18 1 15 19
M  V30 19 1 19 20
M  V30 20 1 19 21
M  V30 21 2 21 22
M  V30 22 1 21 23
M  V30 23 1 22 24
M  V30 24 2 23 25
M  V30 25 2 24 26
M  V30 26 1 26 27
M  V30 27 1 4 7
M  V30 28 1 8 10
M  V30 29 2 16 17
M  V30 30 1 25 26
M  V30 31 1 3 28
M  V30 32 1 4 29
M  V30 33 1 5 30
M  V30 34 1 5 31
M  V30 35 1 5 32
M  V30 36 1 6 33
M  V30 37 1 6 34
M  V30 38 1 6 35
M  V30 39 1 8 36
M  V30 40 1 11 37
M  V30 41 1 19 38
M  V30 42 1 20 39
M  V30 43 1 20 40
M  V30 44 1 20 41
M  V30 45 1 22 42
M  V30 46 1 23 43
M  V30 47 1 24 44
M  V30 48 1 25 45
M  V30 49 1 27 46
M  V30 50 1 27 47
M  V30 END BOND
M  V30 BEGIN COLLECTION
M  V30 MDLV30/STEABS ATOMS=(5 3 4 7 8 19)
M  V30 END COLLECTION
M  V30 END CTAB
M  END
>  <Structure No>
7409

>  <LogS>
-1.57

>  <MMFF94 Energy>
-6.7614

$$$$
Compound 7410
Actelion Java MolfileCreator 2.0

  0  0  0  0  0  0              0 V3000
M  V30 BEGIN CTAB
M  V30 COUNTS 25 26 0 0 0
M  V30 BEGIN ATOM
M  V30 1 S 5.1397 0.0 1.3275 0
M  V30 2 O 6.3304 -0.1142 0.4171 0
M  V30 3 O 5.2276 -1.0536 2.395 0
M  V30 4 N 5.1256 1.5689 2.0537 0
M  V30 5 C 3.6721 -0.2287 0.3998 0
M  V30 6 S 2.1198 0.0619 0.9813 0
M  V30 7 N 3.6528 -0.667 -0.8771 0
M  V30 8 C 1.4598 -0.4076 -0.5013 0
M  V30 9 N 2.4225 -0.7661 -1.3779 0
M  V30 10 N 0.0677 -0.4427 -0.8384 0 CHG=-1
M  V30 11 C -1.0296 -0.0826 0.0129 0
M  V30 12 O -0.809 0.3222 1.1861 0
M  V30 13 C -2.4281 -0.1793 -0.4866 0
M  V30 14 C -2.7329 -0.9143 -1.6553 0
M  V30 15 C -3.4829 0.4636 0.2012 0
M  V30 16 F -1.7668 -1.5728 -2.3447 0
M  V30 17 C -4.0515 -0.9976 -2.1164 0
M  V30 18 F -3.2465 1.196 1.3199 0
M  V30 19 C -4.797 0.373 -0.2704 0
M  V30 20 F -4.3324 -1.7091 -3.2366 0
M  V30 21 C -5.0808 -0.3554 -1.4263 0
M  V30 22 F -5.7997 0.9984 0.3959 0
M  V30 23 F -6.3568 -0.4399 -1.8787 0
M  V30 24 H 5.1036 2.2657 1.2755 0
M  V30 25 H 6.0422 1.6889 2.5403 0
M  V30 END ATOM
M  V30 BEGIN BOND
M  V30 1 2 1 2
M  V30 2 2 1 3
M  V30 3 1 1 4
M  V30 4 1 1 5
M  V30 5 1 5 6
M  V30 6 2 5 7
M  V30 7 1 6 8
M  V30 8 1 7 9
M  V30 9 1 8 10
M  V30 10 1 10 11
M  V30 11 2 11 12
M  V30 12 1 11 13
M  V30 13 2 13 14
M  V30 14 1 13 15
M  V30 15 1 14 16
M  V30 16 1 14 17
M  V30 17 1 15 18
M  V30 18 2 15 19
M  V30 19 1 17 20
M  V30 20 2 17 21
M  V30 21 1 19 22
M  V30 22 1 21 23
M  V30 23 2 8 9
M  V30 24 1 19 21
M  V30 25 1 4 24
M  V30 26 1 4 25
M  V30 END BOND
M  V30 END CTAB
M  END
>  <Structure No>
7410

>  <LogS>
-1.37

>  <MMFF94 Energy>
4.953

$$$$
Compound 7411
Actelion Java MolfileCreator 2.0

  0  0  0  0  0  0              0 V3000
M  V30 BEGIN CTAB
M  V30 COUNTS 63 65 0 0 0
M  V30 BEGIN ATOM
M  V30 1 O 6.2634 4.5161 -2.2957 0
M  V30 2 C 6.4613 3.4507 -1.6523 0
M  V30 3 N 7.4204 3.3855 -0.6788 0
M  V30 4 C 5.7185 2.3083 -1.9092 0
M  V30 5 C 7.6443 2.2226 0.0227 0
M  V30 6 N 4.734 2.1107 -2.8066 0
M  V30 7 C 5.9554 1.1795 -1.2062 0
M  V30 8 N 6.9034 1.1027 -0.2422 0
M  V30 9 N 8.6581 2.1751 1.0276 0
M  V30 10 C 4.3972 0.8075 -2.5979 0
M  V30 11 N 5.1298 0.2141 -1.6213 0
M  V30 12 C 5.0456 -1.1662 -1.151 0
M  V30 13 O 4.7793 -1.1963 0.2374 0
M  V30 14 C 3.4013 -0.9963 0.4959 0
M  V30 15 C 2.6958 -2.3427 0.672 0
M  V30 16 O 1.325 -2.149 1.0151 0
M  V30 17 C 0.8929 -1.7841 2.2974 0
M  V30 18 O 1.7278 -1.6665 3.2374 0
M  V30 19 C -0.5459 -1.5479 2.5496 0
M  V30 20 C -1.4791 -1.6771 1.5059 0
M  V30 21 C -1.0012 -1.1914 3.8314 0
M  V30 22 C -2.8476 -1.4574 1.7355 0
M  V30 23 C -2.361 -0.9714 4.0629 0
M  V30 24 C -3.2815 -1.103 3.022 0
M  V30 25 C -3.8364 -1.5888 0.5977 0
M  V30 26 N -3.7783 -0.4243 -0.3268 0 CHG=1
M  V30 27 C -4.2371 -0.795 -1.6939 0
M  V30 28 C -4.4965 0.746 0.241 0
M  V30 29 C -5.73 -1.2055 -1.8004 0
M  V30 30 C -4.1792 2.0568 -0.5035 0
M  V30 31 C -6.5896 -0.1333 -2.4703 0
M  V30 32 C -4.8387 3.2524 0.1781 0
M  V30 33 H 7.993 4.2337 -0.4684 0
M  V30 34 H 9.2485 3.0126 1.2308 0
M  V30 35 H 8.8302 1.2931 1.5598 0
M  V30 36 H 3.6251 0.2995 -3.1592 0
M  V30 37 H 6.0243 -1.6596 -1.3285 0
M  V30 38 H 4.2918 -1.7386 -1.7393 0
M  V30 39 H 3.3171 -0.4206 1.4416 0
M  V30 40 H 2.8813 -0.3914 -0.2851 0
M  V30 41 H 3.2064 -2.9512 1.4509 0
M  V30 42 H 2.7395 -2.9057 -0.2834 0
M  V30 43 H -1.1489 -1.9475 0.5105 0
M  V30 44 H -0.3084 -1.0831 4.6559 0
M  V30 45 H -2.7029 -0.6971 5.0526 0
M  V30 46 H -4.3314 -0.9252 3.219 0
M  V30 47 H -4.8621 -1.7192 1.0075 0
M  V30 48 H -3.5979 -2.5336 0.0602 0
M  V30 49 H -2.771 -0.1542 -0.4323 0
M  V30 50 H -3.9991 0.0184 -2.4131 0
M  V30 51 H -3.6214 -1.6488 -2.0592 0
M  V30 52 H -4.1868 0.8934 1.2989 0
M  V30 53 H -5.5931 0.5737 0.2598 0
M  V30 54 H -5.7999 -2.1262 -2.4187 0
M  V30 55 H -6.1699 -1.4569 -0.8159 0
M  V30 56 H -4.548 2.0144 -1.5469 0
M  V30 57 H -3.0804 2.2191 -0.5247 0
M  V30 58 H -7.6227 -0.5174 -2.6024 0
M  V30 59 H -6.1817 0.1221 -3.4692 0
M  V30 60 H -6.6363 0.7802 -1.8487 0
M  V30 61 H -4.4666 3.3572 1.218 0
M  V30 62 H -5.942 3.1249 0.1937 0
M  V30 63 H -4.5967 4.1805 -0.3796 0
M  V30 END ATOM
M  V30 BEGIN BOND
M  V30 1 2 1 2
M  V30 2 1 2 3
M  V30 3 1 2 4
M  V30 4 1 3 5
M  V30 5 1 4 6
M  V30 6 2 4 7
M  V30 7 2 5 8
M  V30 8 1 5 9
M  V30 9 2 6 10
M  V30 10 1 7 11
M  V30 11 1 11 12
M  V30 12 1 12 13
M  V30 13 1 13 14
M  V30 14 1 14 15
M  V30 15 1 15 16
M  V30 16 1 16 17
M  V30 17 2 17 18
M  V30 18 1 17 19
M  V30 19 2 19 20
M  V30 20 1 19 21
M  V30 21 1 20 22
M  V30 22 2 21 23
M  V30 23 2 22 24
M  V30 24 1 22 25
M  V30 25 1 25 26
M  V30 26 1 26 27
M  V30 27 1 26 28
M  V30 28 1 27 29
M  V30 29 1 28 30
M  V30 30 1 29 31
M  V30 31 1 30 32
M  V30 32 1 7 8
M  V30 33 1 10 11
M  V30 34 1 23 24
M  V30 35 1 3 33
M  V30 36 1 9 34
M  V30 37 1 9 35
M  V30 38 1 10 36
M  V30 39 1 12 37
M  V30 40 1 12 38
M  V30 41 1 14 39
M  V30 42 1 14 40
M  V30 43 1 15 41
M  V30 44 1 15 42
M  V30 45 1 20 43
M  V30 46 1 21 44
M  V30 47 1 23 45
M  V30 48 1 24 46
M  V30 49 1 25 47
M  V30 50 1 25 48
M  V30 51 1 26 49
M  V30 52 1 27 50
M  V30 53 1 27 51
M  V30 54 1 28 52
M  V30 55 1 28 53
M  V30 56 1 29 54
M  V30 57 1 29 55
M  V30 58 1 30 56
M  V30 59 1 30 57
M  V30 60 1 31 58
M  V30 61 1 31 59
M  V30 62 1 31 60
M  V30 63 1 32 61
M  V30 64 1 32 62
M  V30 65 1 32 63
M  V30 END BOND
M  V30 END CTAB
M  END
>  <Structure No>
7411

>  <LogS>
-0.35

>  <MMFF94 Energy>
-16.863

$$$$
Compound 7412
Actelion Java MolfileCreator 2.0

  0  0  0  0  0  0              0 V3000
M  V30 BEGIN CTAB
M  V30 COUNTS 26 27 0 0 0
M  V30 BEGIN ATOM
M  V30 1 Cl -4.7166 2.6679 1.3333 0
M  V30 2 C -3.7637 1.2512 0.9319 0
M  V30 3 C -3.5699 0.2444 1.8839 0
M  V30 4 C -3.1977 1.1255 -0.3413 0
M  V30 5 C -2.8094 -0.885 1.5651 0
M  V30 6 C -2.4377 -0.0034 -0.6618 0
M  V30 7 C -2.2362 -1.0114 0.2915 0
M  V30 8 S -1.2725 -2.4272 -0.1164 0
M  V30 9 O -2.1334 -3.4092 -0.8587 0
M  V30 10 O -0.741 -3.0797 1.1292 0
M  V30 11 N 0.0604 -1.9641 -1.1189 0 CHG=-1
M  V30 12 C 1.0198 -0.9927 -0.7038 0
M  V30 13 S 2.314 -0.4823 -1.649 0
M  V30 14 N 0.9881 -0.3657 0.4927 0
M  V30 15 C 2.8022 0.5682 -0.4254 0
M  V30 16 N 1.9832 0.5051 0.6472 0
M  V30 17 S 4.1961 1.6239 -0.5216 0
M  V30 18 O 4.4664 2.2207 0.8312 0
M  V30 19 O 3.9234 2.7262 -1.5054 0
M  V30 20 N 5.5758 0.7144 -1.0296 0
M  V30 21 H -4.0078 0.3358 2.8699 0
M  V30 22 H -3.3461 1.9008 -1.0822 0
M  V30 23 H -2.6691 -1.6575 2.3101 0
M  V30 24 H -2.0058 -0.0906 -1.6507 0
M  V30 25 H 6.3941 1.3633 -1.0096 0
M  V30 26 H 5.7486 -0.0121 -0.299 0
M  V30 END ATOM
M  V30 BEGIN BOND
M  V30 1 1 1 2
M  V30 2 2 2 3
M  V30 3 1 2 4
M  V30 4 1 3 5
M  V30 5 2 4 6
M  V30 6 2 5 7
M  V30 7 1 7 8
M  V30 8 2 8 9
M  V30 9 2 8 10
M  V30 10 1 8 11
M  V30 11 1 11 12
M  V30 12 1 12 13
M  V30 13 2 12 14
M  V30 14 1 13 15
M  V30 15 1 14 16
M  V30 16 1 15 17
M  V30 17 2 17 18
M  V30 18 2 17 19
M  V30 19 1 17 20
M  V30 20 1 6 7
M  V30 21 2 15 16
M  V30 22 1 3 21
M  V30 23 1 4 22
M  V30 24 1 5 23
M  V30 25 1 6 24
M  V30 26 1 20 25
M  V30 27 1 20 26
M  V30 END BOND
M  V30 END CTAB
M  END
>  <Structure No>
7412

>  <LogS>
-2.01

>  <MMFF94 Energy>
22.314

$$$$
Compound 7413
Actelion Java MolfileCreator 2.0

  0  0  0  0  0  0              0 V3000
M  V30 BEGIN CTAB
M  V30 COUNTS 45 46 0 0 0
M  V30 BEGIN ATOM
M  V30 1 S 5.579 -2.7866 0.3275 0
M  V30 2 O 5.5558 -3.7487 -0.8275 0
M  V30 3 O 5.4586 -3.5492 1.616 0
M  V30 4 N 7.0761 -1.923 0.3054 0
M  V30 5 C 4.2373 -1.6554 0.1903 0
M  V30 6 C 4.3328 -0.3797 0.7628 0
M  V30 7 C 3.056 -2.0348 -0.4617 0
M  V30 8 C 3.264 0.5166 0.6676 0
M  V30 9 C 1.9851 -1.1405 -0.554 0
M  V30 10 C 2.0883 0.147 -0.0041 0
M  V30 11 C 0.9175 1.0901 -0.0593 0
M  V30 12 N 0.068 0.9194 1.1187 0
M  V30 13 C -1.228 1.526 1.2408 0
M  V30 14 S -2.1016 1.2307 2.5997 0
M  V30 15 N -1.7374 2.3947 0.2081 0
M  V30 16 C -3.1708 2.5983 -0.0538 0 CFG=1
M  V30 17 C -3.4194 4.0137 -0.501 0
M  V30 18 C -3.7154 1.5773 -1.092 0 CFG=1
M  V30 19 O -2.8094 4.4909 -1.4952 0
M  V30 20 O -4.3412 4.8025 0.1774 0 CHG=-1
M  V30 21 O -3.1942 1.7768 -2.3863 0
M  V30 22 C -3.5209 0.1456 -0.6261 0
M  V30 23 C -4.4173 -0.4004 0.3104 0
M  V30 24 C -2.4207 -0.6295 -1.0446 0
M  V30 25 C -4.223 -1.6911 0.81 0
M  V30 26 C -2.2297 -1.9184 -0.5392 0
M  V30 27 C -3.1296 -2.4488 0.3867 0
M  V30 28 H 7.8413 -2.632 0.3579 0
M  V30 29 H 7.1501 -1.464 -0.6296 0
M  V30 30 H 5.2306 -0.0807 1.2893 0
M  V30 31 H 2.9601 -3.0238 -0.8923 0
M  V30 32 H 3.3502 1.4955 1.1227 0
M  V30 33 H 1.0749 -1.453 -1.0515 0
M  V30 34 H 1.2761 2.1408 -0.1072 0
M  V30 35 H 0.3286 0.8902 -0.9796 0
M  V30 36 H 0.3987 0.3058 1.9 0
M  V30 37 H -1.0593 2.785 -0.4842 0
M  V30 38 H -3.7483 2.4617 0.8851 0
M  V30 39 H -4.8118 1.7502 -1.1704 0
M  V30 40 H -2.2135 1.8952 -2.3175 0
M  V30 41 H -5.2613 0.1804 0.6639 0
M  V30 42 H -1.702 -0.2454 -1.7539 0
M  V30 43 H -4.9173 -2.1003 1.5322 0
M  V30 44 H -1.3815 -2.506 -0.8644 0
M  V30 45 H -2.9787 -3.4459 0.7776 0
M  V30 END ATOM
M  V30 BEGIN BOND
M  V30 1 2 1 2
M  V30 2 2 1 3
M  V30 3 1 1 4
M  V30 4 1 1 5
M  V30 5 2 5 6
M  V30 6 1 5 7
M  V30 7 1 6 8
M  V30 8 2 7 9
M  V30 9 2 8 10
M  V30 10 1 10 11
M  V30 11 1 11 12
M  V30 12 1 12 13
M  V30 13 2 13 14
M  V30 14 1 13 15
M  V30 15 1 15 16
M  V30 16 1 16 17
M  V30 17 1 16 18
M  V30 18 2 17 19
M  V30 19 1 17 20
M  V30 20 1 18 21
M  V30 21 1 18 22
M  V30 22 2 22 23
M  V30 23 1 22 24
M  V30 24 1 23 25
M  V30 25 2 24 26
M  V30 26 2 25 27
M  V30 27 1 9 10
M  V30 28 1 26 27
M  V30 29 1 4 28
M  V30 30 1 4 29
M  V30 31 1 6 30
M  V30 32 1 7 31
M  V30 33 1 8 32
M  V30 34 1 9 33
M  V30 35 1 11 34
M  V30 36 1 11 35
M  V30 37 1 12 36
M  V30 38 1 15 37
M  V30 39 1 16 38
M  V30 40 1 18 39
M  V30 41 1 21 40
M  V30 42 1 23 41
M  V30 43 1 24 42
M  V30 44 1 25 43
M  V30 45 1 26 44
M  V30 46 1 27 45
M  V30 END BOND
M  V30 BEGIN COLLECTION
M  V30 MDLV30/STEABS ATOMS=(2 16 18)
M  V30 END COLLECTION
M  V30 END CTAB
M  END
>  <Structure No>
7413

>  <LogS>
-1.29

>  <MMFF94 Energy>
-44.354

$$$$
Compound 7414
Actelion Java MolfileCreator 2.0

  0  0  0  0  0  0              0 V3000
M  V30 BEGIN CTAB
M  V30 COUNTS 33 34 0 0 0
M  V30 BEGIN ATOM
M  V30 1 S 5.3541 1.6125 0.1696 0
M  V30 2 O 6.6462 0.8586 0.3093 0
M  V30 3 O 5.1941 2.5373 1.3434 0
M  V30 4 N 5.3812 2.5229 -1.2994 0
M  V30 5 C 4.0204 0.4786 0.1329 0
M  V30 6 S 2.3936 0.9183 0.0877 0
M  V30 7 N 4.1776 -0.8631 0.1314 0
M  V30 8 C 1.9344 -0.7084 0.0688 0
M  V30 9 N 3.0191 -1.5205 0.0966 0
M  V30 10 N 0.714 -1.1543 0.0319 0
M  V30 11 C 2.9586 -2.9787 0.0881 0
M  V30 12 S -0.693 -0.142 -0.0047 0
M  V30 13 O -0.7332 0.7163 1.2286 0
M  V30 14 O -0.662 0.7258 -1.2316 0
M  V30 15 C -2.1419 -1.1812 -0.0506 0
M  V30 16 C -3.3889 -0.3428 -0.0836 0
M  V30 17 C -3.9978 0.0696 1.1135 0
M  V30 18 C -3.9275 0.0789 -1.3108 0
M  V30 19 C -5.1398 0.8759 1.0812 0
M  V30 20 C -5.0696 0.8852 -1.3385 0
M  V30 21 C -5.6764 1.282 -0.1436 0
M  V30 22 H 4.4943 3.0737 -1.3342 0
M  V30 23 H 6.1609 3.2131 -1.2166 0
M  V30 24 H 2.394 -3.3364 0.9748 0
M  V30 25 H 3.9825 -3.4084 0.1198 0
M  V30 26 H 2.4532 -3.3282 -0.8367 0
M  V30 27 H -2.0908 -1.8336 -0.9482 0
M  V30 28 H -2.1428 -1.8405 0.8434 0
M  V30 29 H -3.587 -0.2308 2.0693 0
M  V30 30 H -3.4619 -0.2143 -2.2435 0
M  V30 31 H -5.6071 1.1887 2.006 0
M  V30 32 H -5.4826 1.2051 -2.2863 0
M  V30 33 H -6.5595 1.9072 -0.1668 0
M  V30 END ATOM
M  V30 BEGIN BOND
M  V30 1 2 1 2
M  V30 2 2 1 3
M  V30 3 1 1 4
M  V30 4 1 1 5
M  V30 5 1 5 6
M  V30 6 2 5 7
M  V30 7 1 6 8
M  V30 8 1 7 9
M  V30 9 2 8 10
M  V30 10 1 9 11
M  V30 11 1 10 12
M  V30 12 2 12 13
M  V30 13 2 12 14
M  V30 14 1 12 15
M  V30 15 1 15 16
M  V30 16 2 16 17
M  V30 17 1 16 18
M  V30 18 1 17 19
M  V30 19 2 18 20
M  V30 20 2 19 21
M  V30 21 1 8 9
M  V30 22 1 20 21
M  V30 23 1 4 22
M  V30 24 1 4 23
M  V30 25 1 11 24
M  V30 26 1 11 25
M  V30 27 1 11 26
M  V30 28 1 15 27
M  V30 29 1 15 28
M  V30 30 1 17 29
M  V30 31 1 18 30
M  V30 32 1 19 31
M  V30 33 1 20 32
M  V30 34 1 21 33
M  V30 END BOND
M  V30 END CTAB
M  END
>  <Structure No>
7414

>  <LogS>
-2.48

>  <MMFF94 Energy>
22.8

$$$$
Compound 7415
Actelion Java MolfileCreator 2.0

  0  0  0  0  0  0              0 V3000
M  V30 BEGIN CTAB
M  V30 COUNTS 30 31 0 0 0
M  V30 BEGIN ATOM
M  V30 1 S -0.863 0.2588 3.1095 0
M  V30 2 O -2.1708 0.9984 3.0582 0
M  V30 3 O -0.2785 0.3888 4.4872 0
M  V30 4 N -1.1501 -1.4147 2.7675 0 CHG=-1
M  V30 5 C 0.2712 0.9267 1.9402 0
M  V30 6 C -1.6572 -1.8795 1.5154 0
M  V30 7 C 1.3406 0.1484 1.4801 0
M  V30 8 C 0.1102 2.2331 1.4612 0
M  V30 9 S -2.075 -0.9067 0.2008 0
M  V30 10 N -1.848 -3.1886 1.2482 0
M  V30 11 C 2.2356 0.6663 0.5395 0
M  V30 12 C 1.0061 2.7525 0.5225 0
M  V30 13 C -2.4966 -2.2724 -0.6886 0
M  V30 14 N -2.3165 -3.4074 0.0209 0
M  V30 15 C 2.072 1.977 0.0513 0
M  V30 16 S -3.1024 -2.239 -2.3313 0
M  V30 17 O 2.9403 2.5417 -0.8946 0
M  V30 18 O -4.4932 -1.6699 -2.3422 0
M  V30 19 O -3.134 -3.6378 -2.8793 0
M  V30 20 N -2.0611 -1.2703 -3.3147 0
M  V30 21 C 4.0571 1.8664 -1.4631 0
M  V30 22 H 1.4787 -0.861 1.8459 0
M  V30 23 H -0.7074 2.8498 1.8115 0
M  V30 24 H 3.0487 0.0404 0.1986 0
M  V30 25 H 0.8703 3.7626 0.157 0
M  V30 26 H -2.104 -0.2963 -2.9388 0
M  V30 27 H -2.4822 -1.2425 -4.2701 0
M  V30 28 H 4.5635 2.5443 -2.1804 0
M  V30 29 H 4.7795 1.5867 -0.6675 0
M  V30 30 H 3.7182 0.9608 -2.0087 0
M  V30 END ATOM
M  V30 BEGIN BOND
M  V30 1 2 1 2
M  V30 2 2 1 3
M  V30 3 1 1 4
M  V30 4 1 1 5
M  V30 5 1 4 6
M  V30 6 2 5 7
M  V30 7 1 5 8
M  V30 8 1 6 9
M  V30 9 2 6 10
M  V30 10 1 7 11
M  V30 11 2 8 12
M  V30 12 1 9 13
M  V30 13 1 10 14
M  V30 14 2 11 15
M  V30 15 1 13 16
M  V30 16 1 15 17
M  V30 17 2 16 18
M  V30 18 2 16 19
M  V30 19 1 16 20
M  V30 20 1 17 21
M  V30 21 1 12 15
M  V30 22 2 13 14
M  V30 23 1 7 22
M  V30 24 1 8 23
M  V30 25 1 11 24
M  V30 26 1 12 25
M  V30 27 1 20 26
M  V30 28 1 20 27
M  V30 29 1 21 28
M  V30 30 1 21 29
M  V30 31 1 21 30
M  V30 END BOND
M  V30 END CTAB
M  END
>  <Structure No>
7415

>  <LogS>
-2.25

>  <MMFF94 Energy>
29.954

$$$$
Compound 7416
Actelion Java MolfileCreator 2.0

  0  0  0  0  0  0              0 V3000
M  V30 BEGIN CTAB
M  V30 COUNTS 50 53 0 0 0
M  V30 BEGIN ATOM
M  V30 1 O -6.091 0.3998 1.7602 0
M  V30 2 C -5.4999 0.045 0.7048 0
M  V30 3 N -4.064 -0.0716 0.6999 0
M  V30 4 C -6.3095 -0.2267 -0.4953 0
M  V30 5 C -3.2928 0.4591 -0.4353 0
M  V30 6 C -3.3805 -0.4276 1.9494 0
M  V30 7 O -7.5219 0.2474 -0.671 0
M  V30 8 C -5.9566 -1.0202 -1.5712 0
M  V30 9 C -1.8862 0.8882 -0.0071 0
M  V30 10 C -1.9993 -1.0279 1.6643 0
M  V30 11 C -7.9825 -0.1878 -1.8209 0
M  V30 12 C -7.0368 -0.9893 -2.4264 0
M  V30 13 N -1.2206 -0.1914 0.7365 0
M  V30 14 C 0.216 -0.3293 0.6623 0
M  V30 15 N 0.8324 -1.4887 1.0344 0 CHG=1
M  V30 16 N 0.9678 0.7106 0.2187 0
M  V30 17 C 2.1889 -1.6301 0.9855 0
M  V30 18 C 2.318 0.6313 0.135 0
M  V30 19 N 2.7616 -2.873 1.4237 0
M  V30 20 C 2.9823 -0.5532 0.5152 0
M  V30 21 C 3.0399 1.7319 -0.3327 0
M  V30 22 C 4.3866 -0.6098 0.3964 0
M  V30 23 C 4.4401 1.6749 -0.4377 0
M  V30 24 C 5.115 0.5014 -0.0744 0
M  V30 25 O 5.1971 2.763 -0.9007 0
M  V30 26 O 6.5141 0.4787 -0.1978 0
M  V30 27 C 4.6496 4.0123 -1.3103 0
M  V30 28 C 7.34 -0.633 0.1335 0
M  V30 29 H -3.8113 1.3414 -0.871 0
M  V30 30 H -3.2022 -0.3209 -1.2185 0
M  V30 31 H -3.2687 0.4828 2.5778 0
M  V30 32 H -3.9809 -1.1727 2.5162 0
M  V30 33 H -5.0487 -1.5906 -1.7055 0
M  V30 34 H -1.311 1.1477 -0.9227 0
M  V30 35 H -1.9476 1.7926 0.6363 0
M  V30 36 H -1.4594 -1.123 2.6319 0
M  V30 37 H -2.1255 -2.0405 1.2239 0
M  V30 38 H -8.9601 0.0511 -2.2178 0
M  V30 39 H -7.131 -1.5041 -3.3731 0
M  V30 40 H 0.2608 -2.2989 1.361 0
M  V30 41 H 2.1373 -3.6653 1.6943 0
M  V30 42 H 3.7816 -3.0207 1.5674 0
M  V30 43 H 2.5011 2.6276 -0.6131 0
M  V30 44 H 4.9262 -1.5043 0.6526 0
M  V30 45 H 4.1097 4.4887 -0.4648 0
M  V30 46 H 5.4742 4.683 -1.6275 0
M  V30 47 H 3.9616 3.8646 -2.1696 0
M  V30 48 H 8.3995 -0.3665 -0.0578 0
M  V30 49 H 7.0748 -1.5076 -0.4972 0
M  V30 50 H 7.2265 -0.8865 1.2088 0
M  V30 END ATOM
M  V30 BEGIN BOND
M  V30 1 2 1 2
M  V30 2 1 2 3
M  V30 3 1 2 4
M  V30 4 1 3 5
M  V30 5 1 3 6
M  V30 6 1 4 7
M  V30 7 2 4 8
M  V30 8 1 5 9
M  V30 9 1 6 10
M  V30 10 1 7 11
M  V30 11 1 8 12
M  V30 12 1 9 13
M  V30 13 1 13 14
M  V30 14 1 14 15
M  V30 15 2 14 16
M  V30 16 2 15 17
M  V30 17 1 16 18
M  V30 18 1 17 19
M  V30 19 1 17 20
M  V30 20 2 18 21
M  V30 21 2 20 22
M  V30 22 1 21 23
M  V30 23 1 22 24
M  V30 24 1 23 25
M  V30 25 1 24 26
M  V30 26 1 25 27
M  V30 27 1 26 28
M  V30 28 1 10 13
M  V30 29 2 11 12
M  V30 30 1 18 20
M  V30 31 2 23 24
M  V30 32 1 5 29
M  V30 33 1 5 30
M  V30 34 1 6 31
M  V30 35 1 6 32
M  V30 36 1 8 33
M  V30 37 1 9 34
M  V30 38 1 9 35
M  V30 39 1 10 36
M  V30 40 1 10 37
M  V30 41 1 11 38
M  V30 42 1 12 39
M  V30 43 1 15 40
M  V30 44 1 19 41
M  V30 45 1 19 42
M  V30 46 1 21 43
M  V30 47 1 22 44
M  V30 48 1 27 45
M  V30 49 1 27 46
M  V30 50 1 27 47
M  V30 51 1 28 48
M  V30 52 1 28 49
M  V30 53 1 28 50
M  V30 END BOND
M  V30 END CTAB
M  END
>  <Structure No>
7416

>  <LogS>
-5.09

>  <MMFF94 Energy>
58.867

$$$$
Compound 7417
Actelion Java MolfileCreator 2.0

  0  0  0  0  0  0              0 V3000
M  V30 BEGIN CTAB
M  V30 COUNTS 33 34 0 0 0
M  V30 BEGIN ATOM
M  V30 1 S -0.509 2.462 -0.2544 0
M  V30 2 O -0.3302 2.9706 1.1473 0
M  V30 3 O -0.8954 3.6229 -1.126 0
M  V30 4 N 0.9864 1.815 -0.8596 0
M  V30 5 C -1.8047 1.2737 -0.3515 0
M  V30 6 C 1.7819 0.8736 -0.4282 0
M  V30 7 C -1.7421 0.2359 -1.2907 0
M  V30 8 C -2.9046 1.3611 0.5118 0
M  V30 9 S 3.148 0.4285 -1.3058 0
M  V30 10 N 1.6654 0.1158 0.7078 0
M  V30 11 C -2.7675 -0.7115 -1.3612 0
M  V30 12 C -3.9308 0.4144 0.4419 0
M  V30 13 C 3.5413 -0.7467 -0.1766 0
M  V30 14 N 2.6512 -0.7742 0.8356 0
M  V30 15 C 0.6776 0.231 1.7755 0
M  V30 16 C -3.8754 -0.6201 -0.5046 0
M  V30 17 S 4.9436 -1.792 -0.2704 0
M  V30 18 C -4.9555 -1.6595 -0.5523 0
M  V30 19 O 4.965 -2.4836 -1.604 0
M  V30 20 O 4.8688 -2.8262 0.8171 0
M  V30 21 N 6.3849 -0.8586 -0.072 0
M  V30 22 H -0.8989 0.1553 -1.9643 0
M  V30 23 H -2.9646 2.1573 1.243 0
M  V30 24 H -2.6982 -1.5151 -2.0838 0
M  V30 25 H -4.7681 0.4884 1.125 0
M  V30 26 H 0.804 1.1923 2.3094 0
M  V30 27 H -0.3436 0.094 1.3842 0
M  V30 28 H 0.8342 -0.574 2.5253 0
M  V30 29 H -4.6966 -2.4924 0.1339 0
M  V30 30 H -5.9307 -1.2256 -0.2442 0
M  V30 31 H -5.0685 -2.0601 -1.5822 0
M  V30 32 H 6.3905 -0.1397 -0.8298 0
M  V30 33 H 6.2926 -0.3428 0.8317 0
M  V30 END ATOM
M  V30 BEGIN BOND
M  V30 1 2 1 2
M  V30 2 2 1 3
M  V30 3 1 1 4
M  V30 4 1 1 5
M  V30 5 2 4 6
M  V30 6 2 5 7
M  V30 7 1 5 8
M  V30 8 1 6 9
M  V30 9 1 6 10
M  V30 10 1 7 11
M  V30 11 2 8 12
M  V30 12 1 9 13
M  V30 13 1 10 14
M  V30 14 1 10 15
M  V30 15 2 11 16
M  V30 16 1 13 17
M  V30 17 1 16 18
M  V30 18 2 17 19
M  V30 19 2 17 20
M  V30 20 1 17 21
M  V30 21 1 12 16
M  V30 22 2 13 14
M  V30 23 1 7 22
M  V30 24 1 8 23
M  V30 25 1 11 24
M  V30 26 1 12 25
M  V30 27 1 15 26
M  V30 28 1 15 27
M  V30 29 1 15 28
M  V30 30 1 18 29
M  V30 31 1 18 30
M  V30 32 1 18 31
M  V30 33 1 21 32
M  V30 34 1 21 33
M  V30 END BOND
M  V30 END CTAB
M  END
>  <Structure No>
7417

>  <LogS>
-2.84

>  <MMFF94 Energy>
10.736

$$$$
Compound 7418
Actelion Java MolfileCreator 2.0

  0  0  0  0  0  0              0 V3000
M  V30 BEGIN CTAB
M  V30 COUNTS 58 60 0 0 0
M  V30 BEGIN ATOM
M  V30 1 O 3.8312 -2.5529 0.1594 0
M  V30 2 C 4.2991 -1.6209 -0.5516 0
M  V30 3 O 3.597 -1.1546 -1.6698 0
M  V30 4 C 5.6275 -1.0085 -0.1967 0 CFG=1
M  V30 5 C 2.3 -1.6224 -2.0337 0
M  V30 6 N 6.6042 -1.2445 -1.263 0
M  V30 7 C 5.4655 0.4992 0.0647 0
M  V30 8 C 1.2397 -1.0396 -1.1049 0
M  V30 9 C 6.7475 1.1085 0.5708 0
M  V30 10 O -0.0508 -1.4599 -1.5341 0
M  V30 11 C 7.6519 1.7071 -0.3222 0
M  V30 12 C 7.0728 1.0383 1.9361 0
M  V30 13 C -1.2226 -1.1076 -0.8566 0
M  V30 14 C 8.856 2.2407 0.1468 0
M  V30 15 C 8.2771 1.5744 2.4014 0
M  V30 16 O -1.1655 -0.3877 0.1802 0
M  V30 17 C -2.5447 -1.6095 -1.3816 0 CFG=2
M  V30 18 C 9.1676 2.1762 1.5078 0
M  V30 19 C -3.7339 -0.9726 -0.6793 0
M  V30 20 C -2.6067 -3.1395 -1.3024 0
M  V30 21 C -4.5737 -0.0894 -1.3808 0
M  V30 22 C -4.0044 -1.2414 0.676 0
M  V30 23 C -5.6721 0.5088 -0.7442 0
M  V30 24 C -5.0961 -0.6505 1.3159 0
M  V30 25 C -5.937 0.2247 0.6153 0
M  V30 26 C -6.5116 1.3873 -1.4439 0
M  V30 27 C -7.0365 0.8223 1.2516 0
M  V30 28 C -7.603 1.9777 -0.8021 0
M  V30 29 C -7.8757 1.7038 0.5428 0
M  V30 30 O -8.985 2.3259 1.1353 0
M  V30 31 C -9.3851 2.1394 2.4892 0
M  V30 32 H 6.0019 -1.4873 0.7365 0
M  V30 33 H 2.087 -1.2953 -3.0736 0
M  V30 34 H 2.2696 -2.734 -2.0081 0
M  V30 35 H 6.722 -2.2768 -1.3869 0
M  V30 36 H 6.2376 -0.8605 -2.1648 0
M  V30 37 H 5.1395 1.0153 -0.8655 0
M  V30 38 H 4.664 0.6604 0.8199 0
M  V30 39 H 1.297 0.0703 -1.1281 0
M  V30 40 H 1.4165 -1.3906 -0.0657 0
M  V30 41 H 7.426 1.7572 -1.3805 0
M  V30 42 H 6.3955 0.5663 2.637 0
M  V30 43 H 9.5484 2.7027 -0.5447 0
M  V30 44 H 8.5222 1.5193 3.4547 0
M  V30 45 H -2.5781 -1.3467 -2.462 0
M  V30 46 H 10.1005 2.5883 1.8692 0
M  V30 47 H -3.5934 -3.5011 -1.6634 0
M  V30 48 H -1.8192 -3.5866 -1.9462 0
M  V30 49 H -2.4504 -3.495 -0.2621 0
M  V30 50 H -4.3728 0.1313 -2.4229 0
M  V30 51 H -3.3642 -1.9045 1.2434 0
M  V30 52 H -5.2806 -0.8764 2.3597 0
M  V30 53 H -6.3245 1.6174 -2.4858 0
M  V30 54 H -7.2329 0.5991 2.2926 0
M  V30 55 H -8.2431 2.6542 -1.3539 0
M  V30 56 H -9.6306 1.0722 2.6711 0
M  V30 57 H -10.2896 2.7502 2.6879 0
M  V30 58 H -8.5767 2.4686 3.1753 0
M  V30 END ATOM
M  V30 BEGIN BOND
M  V30 1 2 1 2
M  V30 2 1 2 3
M  V30 3 1 2 4
M  V30 4 1 3 5
M  V30 5 1 4 6
M  V30 6 1 4 7
M  V30 7 1 5 8
M  V30 8 1 7 9
M  V30 9 1 8 10
M  V30 10 2 9 11
M  V30 11 1 9 12
M  V30 12 1 10 13
M  V30 13 1 11 14
M  V30 14 2 12 15
M  V30 15 2 13 16
M  V30 16 1 13 17
M  V30 17 2 14 18
M  V30 18 1 17 19
M  V30 19 1 17 20
M  V30 20 2 19 21
M  V30 21 1 19 22
M  V30 22 1 21 23
M  V30 23 2 22 24
M  V30 24 1 23 25
M  V30 25 2 23 26
M  V30 26 2 25 27
M  V30 27 1 26 28
M  V30 28 1 27 29
M  V30 29 1 29 30
M  V30 30 1 30 31
M  V30 31 1 15 18
M  V30 32 1 24 25
M  V30 33 2 28 29
M  V30 34 1 4 32
M  V30 35 1 5 33
M  V30 36 1 5 34
M  V30 37 1 6 35
M  V30 38 1 6 36
M  V30 39 1 7 37
M  V30 40 1 7 38
M  V30 41 1 8 39
M  V30 42 1 8 40
M  V30 43 1 11 41
M  V30 44 1 12 42
M  V30 45 1 14 43
M  V30 46 1 15 44
M  V30 47 1 17 45
M  V30 48 1 18 46
M  V30 49 1 20 47
M  V30 50 1 20 48
M  V30 51 1 20 49
M  V30 52 1 21 50
M  V30 53 1 22 51
M  V30 54 1 24 52
M  V30 55 1 26 53
M  V30 56 1 27 54
M  V30 57 1 28 55
M  V30 58 1 31 56
M  V30 59 1 31 57
M  V30 60 1 31 58
M  V30 END BOND
M  V30 BEGIN COLLECTION
M  V30 MDLV30/STEABS ATOMS=(2 4 17)
M  V30 END COLLECTION
M  V30 END CTAB
M  END
>  <Structure No>
7418

>  <LogS>
-3.75

>  <MMFF94 Energy>
125.73

$$$$
Compound 7419
Actelion Java MolfileCreator 2.0

  0  0  0  0  0  0              0 V3000
M  V30 BEGIN CTAB
M  V30 COUNTS 126 132 0 0 0
M  V30 BEGIN ATOM
M  V30 1 O 1.373 2.5856 0.7267 0
M  V30 2 C 2.3711 1.6081 0.4735 0 CFG=2
M  V30 3 C 1.4736 3.7695 -0.0498 0 CFG=2
M  V30 4 O 3.6827 2.1277 0.6235 0
M  V30 5 C 2.1845 0.8587 -0.8714 0 CFG=1
M  V30 6 C 1.4283 4.9733 0.9086 0 CFG=1
M  V30 7 C 0.2642 3.8018 -1.0073 0 CFG=1
M  V30 8 C 4.7226 1.1831 0.3352 0 CFG=2
M  V30 9 O 2.3863 1.6995 -1.9822 0
M  V30 10 C 3.1274 -0.3743 -0.9192 0 CFG=2
M  V30 11 O 1.7685 6.1518 0.221 0
M  V30 12 C 0.0337 5.0952 1.5577 0 CFG=1
M  V30 13 O -0.9539 3.8479 -0.2883 0
M  V30 14 C 0.358 4.8428 -2.1431 0
M  V30 15 C 4.2603 -0.2976 0.1412 0 CFG=1
M  V30 16 C 5.7788 1.2692 1.4477 0
M  V30 17 O 3.6248 -0.5861 -2.2198 0
M  V30 18 O -0.0531 6.3062 2.2645 0
M  V30 19 C -1.1045 5.0099 0.5146 0 CFG=1
M  V30 20 O -0.7135 4.6711 -3.027 0
M  V30 21 O 5.3747 -1.1007 -0.2443 0
M  V30 22 O 6.2952 2.572 1.5319 0
M  V30 23 O -2.3157 4.8871 1.238 0
M  V30 24 C 5.3521 -2.465 0.1892 0 CFG=1
M  V30 25 C -3.4926 5.2292 0.5058 0 CFG=2
M  V30 26 O 4.5635 -2.6685 1.3599 0
M  V30 27 C 5.1232 -3.4396 -1.0123 0 CFG=2
M  V30 28 C -4.6979 4.891 1.4238 0 CFG=1
M  V30 29 C -3.6572 4.4459 -0.8419 0 CFG=1
M  V30 30 C 3.9282 -3.9279 1.4588 0 CFG=1
M  V30 31 O 5.4504 -2.817 -2.231 0
M  V30 32 C 3.7131 -4.0776 -1.0965 0 CFG=1
M  V30 33 O -5.7987 5.7109 1.1228 0
M  V30 34 C -5.1178 3.3957 1.2975 0 CFG=2
M  V30 35 O -3.7197 3.0258 -0.7014 0
M  V30 36 C -4.8551 4.9353 -1.6734 0
M  V30 37 C 2.9897 -4.1826 0.2636 0 CFG=1
M  V30 38 C 4.9242 -5.0663 1.785 0
M  V30 39 O 2.8978 -3.3706 -2.0002 0
M  V30 40 O -5.3837 2.8823 2.5788 0
M  V30 41 C -4.0065 2.5625 0.6143 0 CFG=2
M  V30 42 O -4.7778 4.3984 -2.9656 0
M  V30 43 O 2.4078 -5.4722 0.4012 0
M  V30 44 O 4.2658 -6.0815 2.4968 0
M  V30 45 O -4.4068 1.2052 0.5431 0
M  V30 46 C 1.0015 -5.5041 0.1929 0 CFG=2
M  V30 47 C -3.2906 0.3293 0.3761 0 CFG=1
M  V30 48 O 0.6177 -4.7431 -0.9431 0
M  V30 49 C 0.2389 -5.0337 1.4464 0 CFG=2
M  V30 50 C -3.4051 -0.8811 1.3384 0 CFG=1
M  V30 51 C -3.1428 -0.1047 -1.1098 0 CFG=1
M  V30 52 C -0.7386 -4.9982 -1.2765 0 CFG=1
M  V30 53 O 0.6113 -5.8225 2.5476 0
M  V30 54 C -1.2873 -5.1119 1.2136 0 CFG=1
M  V30 55 O -4.3273 -0.6029 2.3628 0
M  V30 56 C -3.8102 -2.1546 0.5893 0 CFG=2
M  V30 57 O -2.3305 -1.2614 -1.2385 0
M  V30 58 C -4.4656 -0.2229 -1.9083 0
M  V30 59 C -1.6982 -4.5038 -0.1554 0 CFG=1
M  V30 60 C -1.0437 -4.3392 -2.6282 0
M  V30 61 O -1.7699 -6.4262 1.3649 0
M  V30 62 O -3.8532 -3.2475 1.4701 0
M  V30 63 C -2.7981 -2.4274 -0.5635 0 CFG=1
M  V30 64 O -4.7312 0.9772 -2.5808 0
M  V30 65 O -1.6439 -3.085 -0.0467 0
M  V30 66 O -0.2105 -4.8629 -3.6278 0
M  V30 67 H 2.2048 0.8675 1.2856 0
M  V30 68 H 2.4188 3.8355 -0.6309 0
M  V30 69 H 1.1354 0.4959 -0.9187 0
M  V30 70 H 2.1776 4.7921 1.7158 0
M  V30 71 H 0.2503 2.825 -1.5334 0
M  V30 72 H 5.2191 1.5085 -0.6051 0
M  V30 73 H 3.2965 2.0853 -1.9234 0
M  V30 74 H 2.512 -1.2556 -0.6581 0
M  V30 75 H 2.1212 6.7906 0.8948 0
M  V30 76 H -0.0764 4.2393 2.2668 0
M  V30 77 H 0.3615 5.8802 -1.7547 0
M  V30 78 H 1.3077 4.6835 -2.6983 0
M  V30 79 H 3.8422 -0.591 1.1255 0
M  V30 80 H 5.3393 0.9596 2.4243 0
M  V30 81 H 6.6224 0.5836 1.2238 0
M  V30 82 H 4.3588 0.063 -2.3809 0
M  V30 83 H -0.6961 6.1659 3.0096 0
M  V30 84 H -1.1155 5.9361 -0.1012 0
M  V30 85 H -0.675 5.4321 -3.6634 0
M  V30 86 H 5.6636 3.0977 2.09 0
M  V30 87 H 6.3956 -2.6643 0.5134 0
M  V30 88 H -3.4757 6.3239 0.3036 0
M  V30 89 H 5.8343 -4.288 -0.8862 0
M  V30 90 H -4.3964 5.0863 2.4783 0
M  V30 91 H -2.7903 4.6888 -1.4837 0
M  V30 92 H 3.2683 -3.8493 2.3491 0
M  V30 93 H 6.4348 -2.6855 -2.2362 0
M  V30 94 H 3.853 -5.1153 -1.4866 0
M  V30 95 H -5.5802 6.6224 1.4528 0
M  V30 96 H -6.038 3.3188 0.6736 0
M  V30 97 H -4.8386 6.046 -1.7358 0
M  V30 98 H -5.812 4.6202 -1.2112 0
M  V30 99 H 2.2338 -3.3662 0.3199 0
M  V30 100 H 5.7576 -4.6516 2.3965 0
M  V30 101 H 5.3505 -5.5068 0.8674 0
M  V30 102 H 3.098 -3.7108 -2.9126 0
M  V30 103 H -5.9583 2.0821 2.46 0
M  V30 104 H -3.1065 2.657 1.2616 0
M  V30 105 H -5.559 4.7586 -3.4628 0
M  V30 106 H 4.9644 -6.5783 2.9956 0
M  V30 107 H 0.7652 -6.5792 0.0175 0
M  V30 108 H -2.3163 0.8085 0.6437 0
M  V30 109 H 0.5026 -3.9706 1.6501 0
M  V30 110 H -2.3987 -1.0601 1.7895 0
M  V30 111 H -2.5628 0.7085 -1.6028 0
M  V30 112 H -0.8973 -6.0918 -1.4291 0
M  V30 113 H 0.2773 -5.3577 3.3613 0
M  V30 114 H -1.7631 -4.5122 2.0165 0
M  V30 115 H -4.0858 -1.1696 3.1419 0
M  V30 116 H -4.8226 -2.0239 0.1525 0
M  V30 117 H -4.3793 -1.0389 -2.6596 0
M  V30 118 H -5.3239 -0.4559 -1.2441 0
M  V30 119 H -2.7252 -4.8822 -0.3827 0
M  V30 120 H -0.8554 -3.2455 -2.5619 0
M  V30 121 H -2.1111 -4.4906 -2.9036 0
M  V30 122 H -1.4018 -6.9818 0.6328 0
M  V30 123 H -4.734 -3.2266 1.9303 0
M  V30 124 H -3.3212 -3.0392 -1.3339 0
M  V30 125 H -5.6129 0.8604 -3.0264 0
M  V30 126 H -0.5692 -5.7603 -3.8549 0
M  V30 END ATOM
M  V30 BEGIN BOND
M  V30 1 1 1 2
M  V30 2 1 1 3
M  V30 3 1 2 4
M  V30 4 1 2 5
M  V30 5 1 3 6
M  V30 6 1 3 7
M  V30 7 1 4 8
M  V30 8 1 5 9
M  V30 9 1 5 10
M  V30 10 1 6 11
M  V30 11 1 6 12
M  V30 12 1 7 13
M  V30 13 1 7 14
M  V30 14 1 8 15
M  V30 15 1 8 16
M  V30 16 1 10 17
M  V30 17 1 12 18
M  V30 18 1 12 19
M  V30 19 1 14 20
M  V30 20 1 15 21
M  V30 21 1 16 22
M  V30 22 1 19 23
M  V30 23 1 21 24
M  V30 24 1 23 25
M  V30 25 1 24 26
M  V30 26 1 24 27
M  V30 27 1 25 28
M  V30 28 1 25 29
M  V30 29 1 26 30
M  V30 30 1 27 31
M  V30 31 1 27 32
M  V30 32 1 28 33
M  V30 33 1 28 34
M  V30 34 1 29 35
M  V30 35 1 29 36
M  V30 36 1 30 37
M  V30 37 1 30 38
M  V30 38 1 32 39
M  V30 39 1 34 40
M  V30 40 1 34 41
M  V30 41 1 36 42
M  V30 42 1 37 43
M  V30 43 1 38 44
M  V30 44 1 41 45
M  V30 45 1 43 46
M  V30 46 1 45 47
M  V30 47 1 46 48
M  V30 48 1 46 49
M  V30 49 1 47 50
M  V30 50 1 47 51
M  V30 51 1 48 52
M  V30 52 1 49 53
M  V30 53 1 49 54
M  V30 54 1 50 55
M  V30 55 1 50 56
M  V30 56 1 51 57
M  V30 57 1 51 58
M  V30 58 1 52 59
M  V30 59 1 52 60
M  V30 60 1 54 61
M  V30 61 1 56 62
M  V30 62 1 56 63
M  V30 63 1 58 64
M  V30 64 1 59 65
M  V30 65 1 60 66
M  V30 66 1 10 15
M  V30 67 1 13 19
M  V30 68 1 32 37
M  V30 69 1 35 41
M  V30 70 1 54 59
M  V30 71 1 57 63
M  V30 72 1 63 65
M  V30 73 1 2 67
M  V30 74 1 3 68
M  V30 75 1 5 69
M  V30 76 1 6 70
M  V30 77 1 7 71
M  V30 78 1 8 72
M  V30 79 1 9 73
M  V30 80 1 10 74
M  V30 81 1 11 75
M  V30 82 1 12 76
M  V30 83 1 14 77
M  V30 84 1 14 78
M  V30 85 1 15 79
M  V30 86 1 16 80
M  V30 87 1 16 81
M  V30 88 1 17 82
M  V30 89 1 18 83
M  V30 90 1 19 84
M  V30 91 1 20 85
M  V30 92 1 22 86
M  V30 93 1 24 87
M  V30 94 1 25 88
M  V30 95 1 27 89
M  V30 96 1 28 90
M  V30 97 1 29 91
M  V30 98 1 30 92
M  V30 99 1 31 93
M  V30 100 1 32 94
M  V30 101 1 33 95
M  V30 102 1 34 96
M  V30 103 1 36 97
M  V30 104 1 36 98
M  V30 105 1 37 99
M  V30 106 1 38 100
M  V30 107 1 38 101
M  V30 108 1 39 102
M  V30 109 1 40 103
M  V30 110 1 41 104
M  V30 111 1 42 105
M  V30 112 1 44 106
M  V30 113 1 46 107
M  V30 114 1 47 108
M  V30 115 1 49 109
M  V30 116 1 50 110
M  V30 117 1 51 111
M  V30 118 1 52 112
M  V30 119 1 53 113
M  V30 120 1 54 114
M  V30 121 1 55 115
M  V30 122 1 56 116
M  V30 123 1 58 117
M  V30 124 1 58 118
M  V30 125 1 59 119
M  V30 126 1 60 120
M  V30 127 1 60 121
M  V30 128 1 61 122
M  V30 129 1 62 123
M  V30 130 1 63 124
M  V30 131 1 64 125
M  V30 132 1 66 126
M  V30 END BOND
M  V30 BEGIN COLLECTION
M  V30 MDLV30/STEABS ATOMS=(30 2 3 5 6 7 8 10 12 15 19 24 25 27 28 29 30 32 34 37 41 46 47 49 50 51 52 54 56 59 63)
M  V30 END COLLECTION
M  V30 END CTAB
M  END
>  <Structure No>
7419

>  <LogS>
-0.91

>  <MMFF94 Energy>
599.02

$$$$
Compound 7420
Actelion Java MolfileCreator 2.0

  0  0  0  0  0  0              0 V3000
M  V30 BEGIN CTAB
M  V30 COUNTS 41 43 0 0 0
M  V30 BEGIN ATOM
M  V30 1 S 3.011 1.8709 2.1965 0
M  V30 2 O 4.3597 2.5257 2.0969 0
M  V30 3 O 2.6039 1.8052 3.6424 0
M  V30 4 N 1.8479 2.8186 1.3234 0
M  V30 5 C 3.1129 0.255 1.5035 0
M  V30 6 C 0.5045 2.3881 1.0546 0
M  V30 7 C 3.2679 -0.8651 2.3316 0
M  V30 8 C 3.0296 0.0838 0.1153 0
M  V30 9 N -0.2354 3.0734 0.1454 0
M  V30 10 C -0.0656 1.2834 1.6975 0
M  V30 11 C 3.3297 -2.1467 1.7759 0
M  V30 12 C 3.0902 -1.1975 -0.4405 0
M  V30 13 C -1.5068 2.7093 -0.1649 0
M  V30 14 C -1.3689 0.916 1.3711 0
M  V30 15 C 3.2394 -2.3193 0.3872 0
M  V30 16 O -2.1417 3.3786 -1.024 0
M  V30 17 N -2.0838 1.6273 0.4489 0
M  V30 18 N 3.2996 -3.6301 -0.1808 0
M  V30 19 C -3.4413 1.1831 0.0944 0
M  V30 20 C -3.3897 0.2398 -1.078 0
M  V30 21 C -3.0822 -1.1166 -0.8799 0
M  V30 22 C -3.5949 0.715 -2.3844 0
M  V30 23 C -2.9963 -1.9864 -1.9714 0
M  V30 24 C -3.5085 -0.1582 -3.4731 0
M  V30 25 C -3.2103 -1.5078 -3.2669 0
M  V30 26 H 2.1829 3.7057 0.8858 0
M  V30 27 H 3.3378 -0.7488 3.4056 0
M  V30 28 H 2.9128 0.9411 -0.5356 0
M  V30 29 H 0.4731 0.7106 2.4384 0
M  V30 30 H 3.4467 -3.0043 2.4265 0
M  V30 31 H 3.0202 -1.316 -1.5144 0
M  V30 32 H -1.8048 0.0535 1.8615 0
M  V30 33 H 3.4107 -4.4718 0.4276 0
M  V30 34 H 3.2328 -3.7686 -1.2138 0
M  V30 35 H -3.9241 0.6763 0.9601 0
M  V30 36 H -4.0912 2.0565 -0.1348 0
M  V30 37 H -2.9085 -1.4998 0.1178 0
M  V30 38 H -3.8218 1.759 -2.5603 0
M  V30 39 H -2.7612 -3.0311 -1.813 0
M  V30 40 H -3.6703 0.212 -4.4772 0
M  V30 41 H -3.1425 -2.1821 -4.1109 0
M  V30 END ATOM
M  V30 BEGIN BOND
M  V30 1 2 1 2
M  V30 2 2 1 3
M  V30 3 1 1 4
M  V30 4 1 1 5
M  V30 5 1 4 6
M  V30 6 2 5 7
M  V30 7 1 5 8
M  V30 8 2 6 9
M  V30 9 1 6 10
M  V30 10 1 7 11
M  V30 11 2 8 12
M  V30 12 1 9 13
M  V30 13 2 10 14
M  V30 14 2 11 15
M  V30 15 2 13 16
M  V30 16 1 13 17
M  V30 17 1 15 18
M  V30 18 1 17 19
M  V30 19 1 19 20
M  V30 20 2 20 21
M  V30 21 1 20 22
M  V30 22 1 21 23
M  V30 23 2 22 24
M  V30 24 2 23 25
M  V30 25 1 12 15
M  V30 26 1 14 17
M  V30 27 1 24 25
M  V30 28 1 4 26
M  V30 29 1 7 27
M  V30 30 1 8 28
M  V30 31 1 10 29
M  V30 32 1 11 30
M  V30 33 1 12 31
M  V30 34 1 14 32
M  V30 35 1 18 33
M  V30 36 1 18 34
M  V30 37 1 19 35
M  V30 38 1 19 36
M  V30 39 1 21 37
M  V30 40 1 22 38
M  V30 41 1 23 39
M  V30 42 1 24 40
M  V30 43 1 25 41
M  V30 END BOND
M  V30 END CTAB
M  END
>  <Structure No>
7420

>  <LogS>
-4.8

>  <MMFF94 Energy>
-123.8

$$$$
Compound 7421
Actelion Java MolfileCreator 2.0

  0  0  0  0  0  0              0 V3000
M  V30 BEGIN CTAB
M  V30 COUNTS 30 31 0 0 0
M  V30 BEGIN ATOM
M  V30 1 S 1.0326 -0.8604 2.3244 0
M  V30 2 O 0.2222 -0.0711 3.3149 0
M  V30 3 O 1.9559 -1.7809 3.0707 0
M  V30 4 N -0.0395 -1.8052 1.3407 0
M  V30 5 C 1.9923 0.2135 1.3115 0
M  V30 6 C -0.9617 -1.3036 0.5736 0
M  V30 7 C 2.4591 -0.2313 0.0666 0
M  V30 8 C 2.2916 1.5153 1.7391 0
M  V30 9 S -1.3036 0.341 0.3812 0
M  V30 10 N -1.7793 -2.0632 -0.1955 0
M  V30 11 C 3.2118 0.6211 -0.747 0
M  V30 12 C 3.0452 2.3659 0.9239 0
M  V30 13 C -2.5253 -0.0215 -0.7215 0
M  V30 14 N -2.6452 -1.353 -0.9176 0
M  V30 15 C -1.7276 -3.5201 -0.2656 0
M  V30 16 C 3.5043 1.9198 -0.3192 0
M  V30 17 S -3.5134 1.1734 -1.535 0
M  V30 18 F 4.234 2.7457 -1.1089 0
M  V30 19 O -4.1982 2.0375 -0.5137 0
M  V30 20 O -4.5527 0.4781 -2.3685 0
M  V30 21 N -2.518 2.1466 -2.5597 0
M  V30 22 H 2.2379 -1.2347 -0.2742 0
M  V30 23 H 1.9427 1.8726 2.6994 0
M  V30 24 H 3.5675 0.2743 -1.7085 0
M  V30 25 H 3.2721 3.3707 1.2564 0
M  V30 26 H -0.7459 -3.8407 -0.6737 0
M  V30 27 H -2.5332 -3.9042 -0.927 0
M  V30 28 H -1.8642 -3.9513 0.7486 0
M  V30 29 H -1.8423 2.6493 -1.9417 0
M  V30 30 H -3.1361 2.874 -2.9844 0
M  V30 END ATOM
M  V30 BEGIN BOND
M  V30 1 2 1 2
M  V30 2 2 1 3
M  V30 3 1 1 4
M  V30 4 1 1 5
M  V30 5 2 4 6
M  V30 6 2 5 7
M  V30 7 1 5 8
M  V30 8 1 6 9
M  V30 9 1 6 10
M  V30 10 1 7 11
M  V30 11 2 8 12
M  V30 12 1 9 13
M  V30 13 1 10 14
M  V30 14 1 10 15
M  V30 15 2 11 16
M  V30 16 1 13 17
M  V30 17 1 16 18
M  V30 18 2 17 19
M  V30 19 2 17 20
M  V30 20 1 17 21
M  V30 21 1 12 16
M  V30 22 2 13 14
M  V30 23 1 7 22
M  V30 24 1 8 23
M  V30 25 1 11 24
M  V30 26 1 12 25
M  V30 27 1 15 26
M  V30 28 1 15 27
M  V30 29 1 15 28
M  V30 30 1 21 29
M  V30 31 1 21 30
M  V30 END BOND
M  V30 END CTAB
M  END
>  <Structure No>
7421

>  <LogS>
-2.03

>  <MMFF94 Energy>
16.098

$$$$
Compound 7422
Actelion Java MolfileCreator 2.0

  0  0  0  0  0  0              0 V3000
M  V30 BEGIN CTAB
M  V30 COUNTS 46 47 0 0 0
M  V30 BEGIN ATOM
M  V30 1 S 2.5797 -2.1632 -1.414 0
M  V30 2 O 2.8638 -2.417 -2.8675 0
M  V30 3 O 3.7404 -2.6153 -0.5727 0
M  V30 4 C 2.2836 -0.4653 -1.1425 0
M  V30 5 C 1.0754 -3.0061 -0.9308 0 CFG=2
M  V30 6 S 3.294 0.7944 -1.6047 0
M  V30 7 C 1.1557 0.0341 -0.5033 0
M  V30 8 C 0.4473 -2.2905 0.2818 0
M  V30 9 C 1.3606 -4.4761 -0.6167 0
M  V30 10 C 2.2882 2.0052 -1.0096 0
M  V30 11 C 1.1501 1.4378 -0.4517 0
M  V30 12 C 0.0028 -0.8417 -0.0502 0 CFG=1
M  V30 13 S 2.6127 3.7234 -1.1243 0
M  V30 14 N -0.6969 -0.2325 1.1058 0
M  V30 15 O 2.0535 4.2544 -2.4137 0
M  V30 16 O 4.0968 3.9577 -1.0854 0
M  V30 17 N 1.8747 4.5417 0.2083 0
M  V30 18 C -1.9966 0.3977 0.9629 0
M  V30 19 C 0.011 -0.0963 2.3932 0
M  V30 20 O -2.6219 0.7684 1.995 0
M  V30 21 C -2.6317 0.6224 -0.3924 0
M  V30 22 C -0.5211 -1.0898 3.4243 0
M  V30 23 N -3.7798 1.5408 -0.3178 0 CHG=1
M  V30 24 C -4.3408 1.778 -1.6504 0
M  V30 25 H 0.3627 -2.9663 -1.7834 0
M  V30 26 H 1.1786 -2.2919 1.1185 0
M  V30 27 H -0.4484 -2.8611 0.6121 0
M  V30 28 H 0.4124 -5.0066 -0.3854 0
M  V30 29 H 1.829 -4.9686 -1.4951 0
M  V30 30 H 2.0427 -4.5678 0.2553 0
M  V30 31 H 0.3437 2.0232 -0.0298 0
M  V30 32 H -0.6838 -0.9334 -0.9148 0
M  V30 33 H 2.1539 5.5463 0.1432 0
M  V30 34 H 2.3107 4.1631 1.0789 0
M  V30 35 H -0.0996 0.9405 2.7794 0
M  V30 36 H 1.1014 -0.2673 2.2651 0
M  V30 37 H -1.8648 1.0495 -1.0762 0
M  V30 38 H -2.9649 -0.3616 -0.7905 0
M  V30 39 H -0.407 -2.1302 3.0569 0
M  V30 40 H 0.0518 -0.9842 4.3694 0
M  V30 41 H -1.5921 -0.9 3.6412 0
M  V30 42 H -3.4737 2.4586 0.0834 0
M  V30 43 H -4.5276 1.1261 0.2868 0
M  V30 44 H -3.5847 2.2492 -2.3162 0
M  V30 45 H -4.6899 0.8244 -2.1043 0
M  V30 46 H -5.211 2.4652 -1.5732 0
M  V30 END ATOM
M  V30 BEGIN BOND
M  V30 1 2 1 2
M  V30 2 2 1 3
M  V30 3 1 1 4
M  V30 4 1 1 5
M  V30 5 1 4 6
M  V30 6 2 4 7
M  V30 7 1 5 8
M  V30 8 1 5 9
M  V30 9 1 6 10
M  V30 10 1 7 11
M  V30 11 1 7 12
M  V30 12 1 10 13
M  V30 13 1 12 14
M  V30 14 2 13 15
M  V30 15 2 13 16
M  V30 16 1 13 17
M  V30 17 1 14 18
M  V30 18 1 14 19
M  V30 19 2 18 20
M  V30 20 1 18 21
M  V30 21 1 19 22
M  V30 22 1 21 23
M  V30 23 1 23 24
M  V30 24 1 8 12
M  V30 25 2 10 11
M  V30 26 1 5 25
M  V30 27 1 8 26
M  V30 28 1 8 27
M  V30 29 1 9 28
M  V30 30 1 9 29
M  V30 31 1 9 30
M  V30 32 1 11 31
M  V30 33 1 12 32
M  V30 34 1 17 33
M  V30 35 1 17 34
M  V30 36 1 19 35
M  V30 37 1 19 36
M  V30 38 1 21 37
M  V30 39 1 21 38
M  V30 40 1 22 39
M  V30 41 1 22 40
M  V30 42 1 22 41
M  V30 43 1 23 42
M  V30 44 1 23 43
M  V30 45 1 24 44
M  V30 46 1 24 45
M  V30 47 1 24 46
M  V30 END BOND
M  V30 BEGIN COLLECTION
M  V30 MDLV30/STEABS ATOMS=(2 5 12)
M  V30 END COLLECTION
M  V30 END CTAB
M  END
>  <Structure No>
7422

>  <LogS>
-1.21

>  <MMFF94 Energy>
-21.42

$$$$
Compound 7423
Actelion Java MolfileCreator 2.0

  0  0  0  0  0  0              0 V3000
M  V30 BEGIN CTAB
M  V30 COUNTS 32 33 0 0 0
M  V30 BEGIN ATOM
M  V30 1 S -0.9343 1.0193 -0.7644 0
M  V30 2 O -0.782 2.5012 -0.5677 0
M  V30 3 O -0.936 0.6897 -2.2304 0
M  V30 4 N 0.315 0.1475 0.0696 0
M  V30 5 C -2.478 0.5214 -0.0789 0
M  V30 6 C 1.6151 0.1466 -0.0498 0
M  V30 7 C -3.1648 -0.5784 -0.6116 0
M  V30 8 C -3.0137 1.2033 1.0228 0
M  V30 9 S 2.574 -0.8327 0.928 0
M  V30 10 N 2.3876 0.8756 -0.9154 0
M  V30 11 C -4.3833 -0.9832 -0.0576 0
M  V30 12 C -4.2323 0.7985 1.5768 0
M  V30 13 C 3.971 -0.273 0.1881 0
M  V30 14 N 3.6918 0.6323 -0.7713 0
M  V30 15 C 1.9542 1.8382 -1.9229 0
M  V30 16 C -4.9238 -0.2955 1.0383 0
M  V30 17 S 5.593 -0.7881 0.6 0
M  V30 18 N -6.1697 -0.7099 1.6051 0
M  V30 19 O 5.9549 -0.2651 1.9613 0
M  V30 20 O 6.5622 -0.2473 -0.4135 0
M  V30 21 N 5.669 -2.5152 0.5975 0
M  V30 22 H -2.7575 -1.1247 -1.4527 0
M  V30 23 H -2.4887 2.0455 1.4554 0
M  V30 24 H -4.9046 -1.8329 -0.4803 0
M  V30 25 H -4.636 1.3355 2.4261 0
M  V30 26 H 2.8368 2.2526 -2.4561 0
M  V30 27 H 1.445 2.6953 -1.4454 0
M  V30 28 H 1.3294 1.3425 -2.688 0
M  V30 29 H -6.6915 -1.5246 1.2116 0
M  V30 30 H -6.5796 -0.2047 2.4224 0
M  V30 31 H 6.6632 -2.7778 0.7803 0
M  V30 32 H 5.4474 -2.8291 -0.3738 0
M  V30 END ATOM
M  V30 BEGIN BOND
M  V30 1 2 1 2
M  V30 2 2 1 3
M  V30 3 1 1 4
M  V30 4 1 1 5
M  V30 5 2 4 6
M  V30 6 2 5 7
M  V30 7 1 5 8
M  V30 8 1 6 9
M  V30 9 1 6 10
M  V30 10 1 7 11
M  V30 11 2 8 12
M  V30 12 1 9 13
M  V30 13 1 10 14
M  V30 14 1 10 15
M  V30 15 2 11 16
M  V30 16 1 13 17
M  V30 17 1 16 18
M  V30 18 2 17 19
M  V30 19 2 17 20
M  V30 20 1 17 21
M  V30 21 1 12 16
M  V30 22 2 13 14
M  V30 23 1 7 22
M  V30 24 1 8 23
M  V30 25 1 11 24
M  V30 26 1 12 25
M  V30 27 1 15 26
M  V30 28 1 15 27
M  V30 29 1 15 28
M  V30 30 1 18 29
M  V30 31 1 18 30
M  V30 32 1 21 31
M  V30 33 1 21 32
M  V30 END BOND
M  V30 END CTAB
M  END
>  <Structure No>
7423

>  <LogS>
-2.5

>  <MMFF94 Energy>
10.494

$$$$
Compound 7424
Actelion Java MolfileCreator 2.0

  0  0  0  0  0  0              0 V3000
M  V30 BEGIN CTAB
M  V30 COUNTS 70 75 0 0 0
M  V30 BEGIN ATOM
M  V30 1 O -8.8816 1.4626 2.3572 0
M  V30 2 C -7.7315 1.4013 1.8451 0
M  V30 3 C -7.33 0.196 1.1 0
M  V30 4 C -6.7914 2.5634 1.9862 0
M  V30 5 C -6.1274 0.1129 0.5058 0
M  V30 6 C -5.336 2.1116 1.812 0
M  V30 7 C -5.1705 1.3001 0.5052 0 CFG=1
M  V30 8 C -5.6796 -1.1986 -0.0911 0
M  V30 9 C -3.716 0.7939 0.3079 0 CFG=1
M  V30 10 C -4.7704 -0.9625 -1.3001 0
M  V30 11 C -3.5695 -0.0097 -1.0158 0 CFG=2
M  V30 12 C -2.6562 1.9261 0.3786 0
M  V30 13 C -2.2044 -0.7555 -0.9827 0 CFG=2
M  V30 14 C -1.4106 1.6685 -0.4969 0
M  V30 15 C -0.9902 0.1613 -0.5845 0 CFG=2
M  V30 16 C -1.8351 -1.3975 -2.3215 0
M  V30 17 C 0.1172 -0.116 -1.6847 0 CFG=2
M  V30 18 C -0.4679 -0.2734 0.8147 0
M  V30 19 C -0.3212 -1.4323 -2.3368 0
M  V30 20 O 1.4164 -0.2463 -1.0846 0
M  V30 21 C 0.1893 0.9285 -2.7377 0
M  V30 22 C 2.5937 -0.6144 -1.755 0
M  V30 23 C 0.2565 1.769 -3.5994 0
M  V30 24 O 2.561 -0.9391 -2.9726 0
M  V30 25 C 3.8773 -0.6236 -1.0216 0
M  V30 26 C 3.9605 -0.0589 0.2612 0
M  V30 27 C 5.0313 -1.186 -1.5953 0
M  V30 28 C 5.1767 -0.0388 0.9501 0
M  V30 29 C 6.2449 -1.1736 -0.9025 0
M  V30 30 C 6.3326 -0.5875 0.3715 0
M  V30 31 C 7.6249 -0.5505 1.0966 0
M  V30 32 C 8.4549 -1.6873 1.1349 0
M  V30 33 C 8.0343 0.6187 1.7665 0
M  V30 34 C 9.6692 -1.6532 1.8278 0
M  V30 35 C 9.2504 0.6496 2.455 0
M  V30 36 C 10.0652 -0.4874 2.4899 0
M  V30 37 H -8.0032 -0.6528 1.0923 0
M  V30 38 H -7.0418 3.3248 1.2152 0
M  V30 39 H -6.9145 3.0261 2.9906 0
M  V30 40 H -5.0338 1.4883 2.6847 0
M  V30 41 H -4.6951 3.0183 1.8002 0
M  V30 42 H -5.4392 1.9595 -0.3512 0
M  V30 43 H -6.5539 -1.8006 -0.4229 0
M  V30 44 H -5.1323 -1.7813 0.6809 0
M  V30 45 H -3.5084 0.0972 1.1526 0
M  V30 46 H -5.3919 -0.5182 -2.1093 0
M  V30 47 H -4.4293 -1.949 -1.6785 0
M  V30 48 H -3.5487 0.7194 -1.8582 0
M  V30 49 H -2.3385 2.0599 1.4349 0
M  V30 50 H -3.1042 2.8889 0.0491 0
M  V30 51 H -2.3057 -1.5907 -0.2497 0
M  V30 52 H -0.5612 2.2827 -0.1233 0
M  V30 53 H -1.6639 2.0567 -1.506 0
M  V30 54 H -2.1964 -0.7764 -3.1718 0
M  V30 55 H -2.2463 -2.427 -2.4159 0
M  V30 56 H 0.3707 0.3775 1.1429 0
M  V30 57 H -0.1069 -1.3241 0.788 0
M  V30 58 H -1.2616 -0.2123 1.5855 0
M  V30 59 H 0.0577 -1.5609 -3.3759 0
M  V30 60 H 0.0292 -2.2919 -1.7221 0
M  V30 61 H 0.3152 2.5071 -4.3562 0
M  V30 62 H 3.0882 0.3803 0.7297 0
M  V30 63 H 4.9986 -1.6358 -2.5803 0
M  V30 64 H 5.2123 0.4062 1.9376 0
M  V30 65 H 7.1214 -1.5951 -1.3759 0
M  V30 66 H 8.154 -2.6051 0.6439 0
M  V30 67 H 7.4215 1.512 1.7441 0
M  V30 68 H 10.2995 -2.5334 1.8573 0
M  V30 69 H 9.5625 1.5559 2.9616 0
M  V30 70 H 11.0043 -0.461 3.0262 0
M  V30 END ATOM
M  V30 BEGIN BOND
M  V30 1 2 1 2
M  V30 2 1 2 3
M  V30 3 1 2 4
M  V30 4 2 3 5
M  V30 5 1 4 6
M  V30 6 1 5 7
M  V30 7 1 5 8
M  V30 8 1 7 9
M  V30 9 1 8 10
M  V30 10 1 9 11
M  V30 11 1 9 12
M  V30 12 1 11 13
M  V30 13 1 12 14
M  V30 14 1 13 15
M  V30 15 1 13 16
M  V30 16 1 15 17
M  V30 17 1 15 18
M  V30 18 1 16 19
M  V30 19 1 17 20
M  V30 20 1 17 21
M  V30 21 1 20 22
M  V30 22 3 21 23
M  V30 23 2 22 24
M  V30 24 1 22 25
M  V30 25 2 25 26
M  V30 26 1 25 27
M  V30 27 1 26 28
M  V30 28 2 27 29
M  V30 29 2 28 30
M  V30 30 1 30 31
M  V30 31 2 31 32
M  V30 32 1 31 33
M  V30 33 1 32 34
M  V30 34 2 33 35
M  V30 35 2 34 36
M  V30 36 1 6 7
M  V30 37 1 10 11
M  V30 38 1 14 15
M  V30 39 1 17 19
M  V30 40 1 29 30
M  V30 41 1 35 36
M  V30 42 1 3 37
M  V30 43 1 4 38
M  V30 44 1 4 39
M  V30 45 1 6 40
M  V30 46 1 6 41
M  V30 47 1 7 42
M  V30 48 1 8 43
M  V30 49 1 8 44
M  V30 50 1 9 45
M  V30 51 1 10 46
M  V30 52 1 10 47
M  V30 53 1 11 48
M  V30 54 1 12 49
M  V30 55 1 12 50
M  V30 56 1 13 51
M  V30 57 1 14 52
M  V30 58 1 14 53
M  V30 59 1 16 54
M  V30 60 1 16 55
M  V30 61 1 18 56
M  V30 62 1 18 57
M  V30 63 1 18 58
M  V30 64 1 19 59
M  V30 65 1 19 60
M  V30 66 1 23 61
M  V30 67 1 26 62
M  V30 68 1 27 63
M  V30 69 1 28 64
M  V30 70 1 29 65
M  V30 71 1 32 66
M  V30 72 1 33 67
M  V30 73 1 34 68
M  V30 74 1 35 69
M  V30 75 1 36 70
M  V30 END BOND
M  V30 BEGIN COLLECTION
M  V30 MDLV30/STEABS ATOMS=(6 7 9 11 13 15 17)
M  V30 END COLLECTION
M  V30 END CTAB
M  END
>  <Structure No>
7424

>  <LogS>
-8.11

>  <MMFF94 Energy>
120.88

$$$$
Compound 7425
Actelion Java MolfileCreator 2.0

  0  0  0  0  0  0              0 V3000
M  V30 BEGIN CTAB
M  V30 COUNTS 32 33 0 0 0
M  V30 BEGIN ATOM
M  V30 1 S -0.9343 -0.1698 -2.4646 0
M  V30 2 O -0.0566 0.7927 -3.2149 0
M  V30 3 O -1.8852 -0.8193 -3.4288 0
M  V30 4 N 0.0587 -1.3914 -1.7359 0
M  V30 5 C -1.8621 0.6728 -1.2276 0
M  V30 6 C 0.9863 -1.1524 -0.8568 0
M  V30 7 C -2.3574 -0.0329 -0.1221 0
M  V30 8 C -2.1082 2.0479 -1.3395 0
M  V30 9 S 1.4127 0.369 -0.2553 0
M  V30 10 N 1.7416 -2.1266 -0.2939 0
M  V30 11 C -3.0868 0.6325 0.8739 0
M  V30 12 C -2.8362 2.7131 -0.3492 0
M  V30 13 C 2.5851 -0.3286 0.7338 0
M  V30 14 N 2.6288 -1.6713 0.5897 0
M  V30 15 C 1.6129 -3.5487 -0.5961 0
M  V30 16 N -3.5851 -0.0884 2.0037 0
M  V30 17 C -3.3235 2.0094 0.7554 0
M  V30 18 S 3.6288 0.5666 1.8186 0
M  V30 19 O 4.4872 -0.3939 2.5921 0
M  V30 20 O 2.79 1.3599 2.7802 0
M  V30 21 N 4.6432 1.6315 0.9103 0
M  V30 22 H -2.1732 -1.0964 -0.034 0
M  V30 23 H -1.7372 2.6052 -2.1898 0
M  V30 24 H -3.0228 3.7755 -0.4378 0
M  V30 25 H 1.785 -3.7198 -1.6796 0
M  V30 26 H 2.3589 -4.1357 -0.0194 0
M  V30 27 H 0.5949 -3.8992 -0.3243 0
M  V30 28 H -3.4127 -1.1137 2.102 0
M  V30 29 H -4.1291 0.398 2.7507 0
M  V30 30 H -3.8853 2.5352 1.5171 0
M  V30 31 H 4.0141 2.273 0.3774 0
M  V30 32 H 5.1452 1.0472 0.205 0
M  V30 END ATOM
M  V30 BEGIN BOND
M  V30 1 2 1 2
M  V30 2 2 1 3
M  V30 3 1 1 4
M  V30 4 1 1 5
M  V30 5 2 4 6
M  V30 6 2 5 7
M  V30 7 1 5 8
M  V30 8 1 6 9
M  V30 9 1 6 10
M  V30 10 1 7 11
M  V30 11 2 8 12
M  V30 12 1 9 13
M  V30 13 1 10 14
M  V30 14 1 10 15
M  V30 15 1 11 16
M  V30 16 2 11 17
M  V30 17 1 13 18
M  V30 18 2 18 19
M  V30 19 2 18 20
M  V30 20 1 18 21
M  V30 21 1 12 17
M  V30 22 2 13 14
M  V30 23 1 7 22
M  V30 24 1 8 23
M  V30 25 1 12 24
M  V30 26 1 15 25
M  V30 27 1 15 26
M  V30 28 1 15 27
M  V30 29 1 16 28
M  V30 30 1 16 29
M  V30 31 1 17 30
M  V30 32 1 21 31
M  V30 33 1 21 32
M  V30 END BOND
M  V30 END CTAB
M  END
>  <Structure No>
7425

>  <LogS>
-2.45

>  <MMFF94 Energy>
-1.7873

$$$$
Compound 7426
Actelion Java MolfileCreator 2.0

  0  0  0  0  0  0              0 V3000
M  V30 BEGIN CTAB
M  V30 COUNTS 35 36 0 0 0
M  V30 BEGIN ATOM
M  V30 1 S 0.0851 1.7894 2.0452 0
M  V30 2 O 0.7574 1.2458 3.273 0
M  V30 3 O -0.5928 3.0733 2.432 0
M  V30 4 N 1.3029 2.1318 0.8632 0 CHG=-1
M  V30 5 C -1.1362 0.6799 1.3472 0
M  V30 6 C 1.992 1.1051 0.1517 0
M  V30 7 C -1.3046 -0.6549 1.8186 0
M  V30 8 C -1.9531 1.1337 0.2729 0
M  V30 9 S 3.1543 1.3953 -1.0286 0
M  V30 10 N 1.7811 -0.2155 0.3399 0
M  V30 11 C -2.2786 -1.4815 1.2336 0
M  V30 12 C -0.485 -1.2336 2.9427 0
M  V30 13 C -2.9193 0.2797 -0.2811 0
M  V30 14 C -1.8483 2.5334 -0.2818 0
M  V30 15 C 3.3455 -0.2627 -1.2585 0
M  V30 16 N 2.5372 -0.9784 -0.4465 0
M  V30 17 C -3.0726 -1.0274 0.1801 0
M  V30 18 S 4.4604 -0.9847 -2.4007 0
M  V30 19 C -4.1346 -1.9143 -0.4021 0
M  V30 20 O 4.2067 -0.4239 -3.7714 0
M  V30 21 O 4.2493 -2.4721 -2.4323 0
M  V30 22 N 6.0876 -0.6498 -1.9233 0
M  V30 23 H -2.4229 -2.4916 1.5993 0
M  V30 24 H 0.5951 -1.1773 2.6978 0
M  V30 25 H -0.7185 -2.3056 3.1176 0
M  V30 26 H -0.7042 -0.692 3.8862 0
M  V30 27 H -3.5588 0.6332 -1.0817 0
M  V30 28 H -2.4418 2.6516 -1.2134 0
M  V30 29 H -0.7983 2.776 -0.5387 0
M  V30 30 H -2.2357 3.2624 0.459 0
M  V30 31 H -4.3117 -1.6661 -1.4704 0
M  V30 32 H -3.8299 -2.9811 -0.3457 0
M  V30 33 H -5.0803 -1.7775 0.1627 0
M  V30 34 H 6.1903 0.3892 -1.8941 0
M  V30 35 H 6.1941 -0.9908 -0.9415 0
M  V30 END ATOM
M  V30 BEGIN BOND
M  V30 1 2 1 2
M  V30 2 2 1 3
M  V30 3 1 1 4
M  V30 4 1 1 5
M  V30 5 1 4 6
M  V30 6 2 5 7
M  V30 7 1 5 8
M  V30 8 1 6 9
M  V30 9 2 6 10
M  V30 10 1 7 11
M  V30 11 1 7 12
M  V30 12 2 8 13
M  V30 13 1 8 14
M  V30 14 1 9 15
M  V30 15 1 10 16
M  V30 16 2 11 17
M  V30 17 1 15 18
M  V30 18 1 17 19
M  V30 19 2 18 20
M  V30 20 2 18 21
M  V30 21 1 18 22
M  V30 22 1 13 17
M  V30 23 2 15 16
M  V30 24 1 11 23
M  V30 25 1 12 24
M  V30 26 1 12 25
M  V30 27 1 12 26
M  V30 28 1 13 27
M  V30 29 1 14 28
M  V30 30 1 14 29
M  V30 31 1 14 30
M  V30 32 1 19 31
M  V30 33 1 19 32
M  V30 34 1 19 33
M  V30 35 1 22 34
M  V30 36 1 22 35
M  V30 END BOND
M  V30 END CTAB
M  END
>  <Structure No>
7426

>  <LogS>
-2.7

>  <MMFF94 Energy>
45.062

$$$$
Compound 7427
Actelion Java MolfileCreator 2.0

  0  0  0  0  0  0              0 V3000
M  V30 BEGIN CTAB
M  V30 COUNTS 40 42 0 0 0
M  V30 BEGIN ATOM
M  V30 1 Cl 6.2892 -1.6522 -0.8258 0
M  V30 2 C 4.5396 -1.5141 -0.6878 0
M  V30 3 C 3.8798 -0.2676 -0.6992 0
M  V30 4 C 3.797 -2.6918 -0.5609 0
M  V30 5 S 4.7743 1.2514 -0.8617 0
M  V30 6 C 2.4823 -0.228 -0.5635 0
M  V30 7 C 2.4081 -2.6442 -0.4352 0
M  V30 8 O 3.8272 2.3774 -1.1703 0
M  V30 9 O 5.7653 1.1454 -1.9866 0
M  V30 10 N 5.6016 1.6066 0.6145 0
M  V30 11 C 1.7356 -1.4117 -0.4241 0
M  V30 12 C 0.2595 -1.3704 -0.2886 0
M  V30 13 O -0.4176 -2.4075 -0.5249 0
M  V30 14 N -0.4084 -0.1798 0.1468 0
M  V30 15 N -1.7937 -0.0182 -0.0249 0
M  V30 16 C -2.6203 0.5018 1.0006 0
M  V30 17 C -2.3892 0.3489 -1.3175 0 CFG=2
M  V30 18 C -3.7385 1.1064 0.4986 0
M  V30 19 C -2.379 0.4412 2.3759 0
M  V30 20 C -3.7415 1.046 -0.9864 0
M  V30 21 C -2.588 -0.8812 -2.2043 0
M  V30 22 C -4.6893 1.687 1.3403 0
M  V30 23 C -3.3203 1.0175 3.2444 0
M  V30 24 C -4.4739 1.639 2.7276 0
M  V30 25 H 4.2983 -3.6515 -0.5561 0
M  V30 26 H 1.977 0.7277 -0.5846 0
M  V30 27 H 1.8612 -3.5733 -0.3337 0
M  V30 28 H 4.888 1.5821 1.3772 0
M  V30 29 H 6.2644 0.8209 0.7971 0
M  V30 30 H 0.1072 0.5023 0.747 0
M  V30 31 H -1.7228 1.0727 -1.8376 0
M  V30 32 H -1.4925 -0.0412 2.766 0
M  V30 33 H -3.7741 2.0717 -1.4126 0
M  V30 34 H -4.6218 0.4617 -1.333 0
M  V30 35 H -1.6056 -1.2759 -2.5348 0
M  V30 36 H -3.1645 -0.6049 -3.1127 0
M  V30 37 H -3.1377 -1.6736 -1.6526 0
M  V30 38 H -5.5709 2.1655 0.9341 0
M  V30 39 H -3.1592 0.9832 4.3141 0
M  V30 40 H -5.1961 2.0821 3.4011 0
M  V30 END ATOM
M  V30 BEGIN BOND
M  V30 1 1 1 2
M  V30 2 2 2 3
M  V30 3 1 2 4
M  V30 4 1 3 5
M  V30 5 1 3 6
M  V30 6 2 4 7
M  V30 7 2 5 8
M  V30 8 2 5 9
M  V30 9 1 5 10
M  V30 10 2 6 11
M  V30 11 1 11 12
M  V30 12 2 12 13
M  V30 13 1 12 14
M  V30 14 1 14 15
M  V30 15 1 15 16
M  V30 16 1 15 17
M  V30 17 2 16 18
M  V30 18 1 16 19
M  V30 19 1 17 20
M  V30 20 1 17 21
M  V30 21 1 18 22
M  V30 22 2 19 23
M  V30 23 2 22 24
M  V30 24 1 7 11
M  V30 25 1 18 20
M  V30 26 1 23 24
M  V30 27 1 4 25
M  V30 28 1 6 26
M  V30 29 1 7 27
M  V30 30 1 10 28
M  V30 31 1 10 29
M  V30 32 1 14 30
M  V30 33 1 17 31
M  V30 34 1 19 32
M  V30 35 1 20 33
M  V30 36 1 20 34
M  V30 37 1 21 35
M  V30 38 1 21 36
M  V30 39 1 21 37
M  V30 40 1 22 38
M  V30 41 1 23 39
M  V30 42 1 24 40
M  V30 END BOND
M  V30 BEGIN COLLECTION
M  V30 MDLV30/STEABS ATOMS=(1 17)
M  V30 END COLLECTION
M  V30 END CTAB
M  END
>  <Structure No>
7427

>  <LogS>
-3.79

>  <MMFF94 Energy>
-5.3002

$$$$
Compound 7428
Actelion Java MolfileCreator 2.0

  0  0  0  0  0  0              0 V3000
M  V30 BEGIN CTAB
M  V30 COUNTS 43 44 0 0 0
M  V30 BEGIN ATOM
M  V30 1 S 6.4592 -0.9208 0.4185 0
M  V30 2 O 6.7314 0.3723 1.1342 0
M  V30 3 O 6.9116 -0.7919 -1.0085 0
M  V30 4 O 7.2931 -2.1694 1.1752 0 CHG=-1
M  V30 5 N 4.7638 -1.2573 0.4502 0
M  V30 6 C 3.8227 -1.989 -0.4298 0
M  V30 7 C 3.661 -0.9662 1.3465 0 CFG=2
M  V30 8 O 3.9138 -2.5797 -1.5383 0
M  V30 9 C 2.7186 -1.7312 0.5475 0 CFG=1
M  V30 10 C 3.427 0.5514 1.4428 0
M  V30 11 N 1.6194 -0.9555 -0.0419 0
M  V30 12 C 0.3422 -0.8634 0.6149 0
M  V30 13 O 0.1499 -1.4901 1.6955 0
M  V30 14 C -0.7833 -0.1043 0.0228 0
M  V30 15 N -1.9848 -0.3739 0.4381 0
M  V30 16 C -0.5641 0.9325 -1.0159 0
M  V30 17 O -3.0961 0.288 -0.0403 0
M  V30 18 N -1.4412 1.106 -2.045 0
M  V30 19 C 0.4854 1.8506 -0.9847 0
M  V30 20 C -4.4079 0.0048 0.4425 0
M  V30 21 C -1.0803 2.1375 -2.8383 0
M  V30 22 S 0.3222 2.8902 -2.3014 0
M  V30 23 C -5.4026 0.8751 -0.2902 0
M  V30 24 C -4.7369 -1.4758 0.1815 0
M  V30 25 C -4.4737 0.3163 1.9466 0
M  V30 26 N -1.8359 2.5435 -3.9767 0
M  V30 27 O -5.0082 1.7498 -1.1073 0
M  V30 28 O -6.7665 0.7292 -0.0553 0 CHG=-1
M  V30 29 H 3.831 -1.4187 2.3503 0
M  V30 30 H 2.3796 -2.678 1.0218 0
M  V30 31 H 4.237 1.0125 2.0435 0
M  V30 32 H 2.4587 0.7595 1.9435 0
M  V30 33 H 3.4299 1.0192 0.4348 0
M  V30 34 H 1.7545 -0.5049 -0.9778 0
M  V30 35 H 1.2491 1.9168 -0.2258 0
M  V30 36 H -4.0217 -2.1337 0.7209 0
M  V30 37 H -5.7656 -1.724 0.5268 0
M  V30 38 H -4.66 -1.6986 -0.9056 0
M  V30 39 H -4.1833 1.3743 2.1264 0
M  V30 40 H -3.7757 -0.3357 2.5121 0
M  V30 41 H -5.4979 0.1609 2.3408 0
M  V30 42 H -1.4762 3.3079 -4.5956 0
M  V30 43 H -2.731 2.0626 -4.2132 0
M  V30 END ATOM
M  V30 BEGIN BOND
M  V30 1 2 1 2
M  V30 2 2 1 3
M  V30 3 1 1 4
M  V30 4 1 1 5
M  V30 5 1 5 6
M  V30 6 1 5 7
M  V30 7 2 6 8
M  V30 8 1 6 9
M  V30 9 1 7 10
M  V30 10 1 9 11
M  V30 11 1 11 12
M  V30 12 2 12 13
M  V30 13 1 12 14
M  V30 14 2 14 15
M  V30 15 1 14 16
M  V30 16 1 15 17
M  V30 17 1 16 18
M  V30 18 2 16 19
M  V30 19 1 17 20
M  V30 20 2 18 21
M  V30 21 1 19 22
M  V30 22 1 20 23
M  V30 23 1 20 24
M  V30 24 1 20 25
M  V30 25 1 21 26
M  V30 26 2 23 27
M  V30 27 1 23 28
M  V30 28 1 7 9
M  V30 29 1 21 22
M  V30 30 1 7 29
M  V30 31 1 9 30
M  V30 32 1 10 31
M  V30 33 1 10 32
M  V30 34 1 10 33
M  V30 35 1 11 34
M  V30 36 1 19 35
M  V30 37 1 24 36
M  V30 38 1 24 37
M  V30 39 1 24 38
M  V30 40 1 25 39
M  V30 41 1 25 40
M  V30 42 1 25 41
M  V30 43 1 26 42
M  V30 44 1 26 43
M  V30 END BOND
M  V30 BEGIN COLLECTION
M  V30 MDLV30/STEABS ATOMS=(2 7 9)
M  V30 END COLLECTION
M  V30 END CTAB
M  END
>  <Structure No>
7428

>  <LogS>
-1.64

>  <MMFF94 Energy>
3.8146

$$$$
Compound 7429
Actelion Java MolfileCreator 2.0

  0  0  0  0  0  0              0 V3000
M  V30 BEGIN CTAB
M  V30 COUNTS 58 60 0 0 0
M  V30 BEGIN ATOM
M  V30 1 O 2.4727 0.7174 2.2332 0
M  V30 2 C 2.8171 0.7003 1.0203 0
M  V30 3 O 1.9968 1.2619 0.0357 0
M  V30 4 C 4.1238 0.0665 0.6258 0 CFG=1
M  V30 5 C 0.6833 1.7548 0.289 0 CFG=2
M  V30 6 N 3.8869 -1.1205 -0.2 0
M  V30 7 C 5.0053 1.0804 -0.1241 0
M  V30 8 O -0.2031 0.6581 0.5084 0
M  V30 9 C 0.2073 2.5298 -0.9307 0
M  V30 10 C 6.37 0.5108 -0.4151 0
M  V30 11 C -0.6354 0.2337 1.7707 0
M  V30 12 C 6.6376 -0.0985 -1.6528 0
M  V30 13 C 7.373 0.5407 0.5684 0
M  V30 14 O -0.3717 0.9083 2.8036 0
M  V30 15 C -1.453 -1.0215 1.8934 0 CFG=1
M  V30 16 C 7.896 -0.6525 -1.907 0
M  V30 17 C 8.6299 -0.0148 0.3102 0
M  V30 18 C -2.8239 -0.8258 1.2732 0
M  V30 19 C -0.713 -2.2167 1.2802 0
M  V30 20 C 8.8918 -0.6092 -0.927 0
M  V30 21 C -2.977 -0.6332 -0.1139 0
M  V30 22 C -3.9649 -0.8045 2.0941 0
M  V30 23 C -4.2482 -0.4278 -0.6704 0
M  V30 24 C -5.2344 -0.6031 1.5465 0
M  V30 25 C -5.3874 -0.4131 0.1663 0
M  V30 26 C -4.4001 -0.2329 -2.0504 0
M  V30 27 C -6.6594 -0.2049 -0.3905 0
M  V30 28 C -5.6694 -0.0255 -2.5955 0
M  V30 29 C -6.8049 -0.0087 -1.7776 0
M  V30 30 O -8.054 0.2053 -2.3799 0
M  V30 31 C -9.2909 0.2503 -1.6754 0
M  V30 32 H 4.6609 -0.2476 1.5497 0
M  V30 33 H 0.6947 2.4533 1.1557 0
M  V30 34 H 3.3317 -1.8101 0.3576 0
M  V30 35 H 3.3123 -0.8581 -1.0342 0
M  V30 36 H 5.12 1.9993 0.4934 0
M  V30 37 H 4.5112 1.3886 -1.0723 0
M  V30 38 H 0.8864 3.3871 -1.1231 0
M  V30 39 H 0.1965 1.869 -1.8237 0
M  V30 40 H -0.8188 2.9171 -0.7554 0
M  V30 41 H 5.8722 -0.1468 -2.4181 0
M  V30 42 H 7.1799 0.9912 1.5341 0
M  V30 43 H -1.5694 -1.2502 2.9774 0
M  V30 44 H 8.0978 -1.1196 -2.8623 0
M  V30 45 H 9.3995 0.0109 1.0711 0
M  V30 46 H -0.4812 -2.0475 0.2076 0
M  V30 47 H 0.243 -2.3865 1.821 0
M  V30 48 H -1.3322 -3.1342 1.3723 0
M  V30 49 H 9.8644 -1.0404 -1.1246 0
M  V30 50 H -2.108 -0.6374 -0.7601 0
M  V30 51 H -3.8743 -0.9417 3.1645 0
M  V30 52 H -6.0962 -0.5918 2.2035 0
M  V30 53 H -3.5383 -0.241 -2.7074 0
M  V30 54 H -7.5269 -0.1941 0.2567 0
M  V30 55 H -5.7725 0.1237 -3.663 0
M  V30 56 H -9.4752 -0.7185 -1.165 0
M  V30 57 H -9.2785 1.0777 -0.9345 0
M  V30 58 H -10.1129 0.4327 -2.3976 0
M  V30 END ATOM
M  V30 BEGIN BOND
M  V30 1 2 1 2
M  V30 2 1 2 3
M  V30 3 1 2 4
M  V30 4 1 3 5
M  V30 5 1 4 6
M  V30 6 1 4 7
M  V30 7 1 5 8
M  V30 8 1 5 9
M  V30 9 1 7 10
M  V30 10 1 8 11
M  V30 11 2 10 12
M  V30 12 1 10 13
M  V30 13 2 11 14
M  V30 14 1 11 15
M  V30 15 1 12 16
M  V30 16 2 13 17
M  V30 17 1 15 18
M  V30 18 1 15 19
M  V30 19 2 16 20
M  V30 20 2 18 21
M  V30 21 1 18 22
M  V30 22 1 21 23
M  V30 23 2 22 24
M  V30 24 1 23 25
M  V30 25 2 23 26
M  V30 26 2 25 27
M  V30 27 1 26 28
M  V30 28 1 27 29
M  V30 29 1 29 30
M  V30 30 1 30 31
M  V30 31 1 17 20
M  V30 32 1 24 25
M  V30 33 2 28 29
M  V30 34 1 4 32
M  V30 35 1 5 33
M  V30 36 1 6 34
M  V30 37 1 6 35
M  V30 38 1 7 36
M  V30 39 1 7 37
M  V30 40 1 9 38
M  V30 41 1 9 39
M  V30 42 1 9 40
M  V30 43 1 12 41
M  V30 44 1 13 42
M  V30 45 1 15 43
M  V30 46 1 16 44
M  V30 47 1 17 45
M  V30 48 1 19 46
M  V30 49 1 19 47
M  V30 50 1 19 48
M  V30 51 1 20 49
M  V30 52 1 21 50
M  V30 53 1 22 51
M  V30 54 1 24 52
M  V30 55 1 26 53
M  V30 56 1 27 54
M  V30 57 1 28 55
M  V30 58 1 31 56
M  V30 59 1 31 57
M  V30 60 1 31 58
M  V30 END BOND
M  V30 BEGIN COLLECTION
M  V30 MDLV30/STEABS ATOMS=(3 4 5 15)
M  V30 END COLLECTION
M  V30 END CTAB
M  END
>  <Structure No>
7429

>  <LogS>
-3.5

>  <MMFF94 Energy>
93.176

$$$$
Compound 7430
Actelion Java MolfileCreator 2.0

  0  0  0  0  0  0              0 V3000
M  V30 BEGIN CTAB
M  V30 COUNTS 30 31 0 0 0
M  V30 BEGIN ATOM
M  V30 1 Cl 5.1312 -1.129 -3.0417 0
M  V30 2 C 4.0899 -0.8537 -1.6573 0
M  V30 3 C 4.0274 -1.7999 -0.6285 0
M  V30 4 C 3.3222 0.3133 -1.5792 0
M  V30 5 C 3.1968 -1.5814 0.4749 0
M  V30 6 C 2.4914 0.5333 -0.4763 0
M  V30 7 C 2.4207 -0.4165 0.5526 0
M  V30 8 S 1.3693 -0.1464 1.9389 0
M  V30 9 O 2.1911 0.5188 3.0058 0
M  V30 10 O 0.844 -1.4396 2.4935 0
M  V30 11 N 0.0555 0.9181 1.5357 0
M  V30 12 C -0.9758 0.7907 0.745 0
M  V30 13 S -2.0503 2.0663 0.5153 0
M  V30 14 N -1.3454 -0.2971 -0.0019 0
M  V30 15 C -2.9621 1.159 -0.5601 0
M  V30 16 N -2.4515 -0.0789 -0.716 0
M  V30 17 C -0.7379 -1.6233 -0.0321 0
M  V30 18 S -4.4132 1.7232 -1.3626 0
M  V30 19 O -4.8514 0.7042 -2.3763 0
M  V30 20 O -4.1262 3.0205 -2.064 0
M  V30 21 N -5.6738 1.9521 -0.2022 0
M  V30 22 H 4.6211 -2.7033 -0.6828 0
M  V30 23 H 3.3686 1.0497 -2.3714 0
M  V30 24 H 3.1565 -2.32 1.2653 0
M  V30 25 H 1.904 1.4411 -0.4272 0
M  V30 26 H -0.8694 -2.1248 0.9457 0
M  V30 27 H -1.2493 -2.2574 -0.788 0
M  V30 28 H 0.3185 -1.5659 -0.3409 0
M  V30 29 H -5.3255 2.6478 0.4947 0
M  V30 30 H -5.7881 1.0471 0.3069 0
M  V30 END ATOM
M  V30 BEGIN BOND
M  V30 1 1 1 2
M  V30 2 2 2 3
M  V30 3 1 2 4
M  V30 4 1 3 5
M  V30 5 2 4 6
M  V30 6 2 5 7
M  V30 7 1 7 8
M  V30 8 2 8 9
M  V30 9 2 8 10
M  V30 10 1 8 11
M  V30 11 2 11 12
M  V30 12 1 12 13
M  V30 13 1 12 14
M  V30 14 1 13 15
M  V30 15 1 14 16
M  V30 16 1 14 17
M  V30 17 1 15 18
M  V30 18 2 18 19
M  V30 19 2 18 20
M  V30 20 1 18 21
M  V30 21 1 6 7
M  V30 22 2 15 16
M  V30 23 1 3 22
M  V30 24 1 4 23
M  V30 25 1 5 24
M  V30 26 1 6 25
M  V30 27 1 17 26
M  V30 28 1 17 27
M  V30 29 1 17 28
M  V30 30 1 21 29
M  V30 31 1 21 30
M  V30 END BOND
M  V30 END CTAB
M  END
>  <Structure No>
7430

>  <LogS>
-2.44

>  <MMFF94 Energy>
8.3145

$$$$
Compound 7431
Actelion Java MolfileCreator 2.0

  0  0  0  0  0  0              0 V3000
M  V30 BEGIN CTAB
M  V30 COUNTS 54 57 0 0 0
M  V30 BEGIN ATOM
M  V30 1 Cl -3.1224 -3.3692 -3.2047 0
M  V30 2 C -2.1202 -2.2623 -2.2744 0
M  V30 3 C -2.3507 -0.8739 -2.2846 0
M  V30 4 C -1.0642 -2.7872 -1.5194 0
M  V30 5 S -3.7 -0.152 -3.2301 0
M  V30 6 C -1.5102 -0.0274 -1.5502 0
M  V30 7 C -0.2123 -1.9385 -0.7991 0
M  V30 8 C -4.8399 -0.2038 -1.8454 0
M  V30 9 C -0.455 -0.555 -0.8028 0
M  V30 10 C 0.8692 -2.5232 0.0203 0
M  V30 11 C -4.8888 0.8623 -0.9371 0
M  V30 12 C -5.696 -1.3019 -1.6794 0
M  V30 13 C 2.1387 -2.0876 0.05 0
M  V30 14 C -5.7815 0.8209 0.1378 0
M  V30 15 C -6.5783 -1.349 -0.5947 0
M  V30 16 C 2.7128 -1.076 -0.8731 0
M  V30 17 O -5.8657 1.8855 1.0413 0
M  V30 18 C -6.6087 -0.2956 0.3226 0
M  V30 19 O 2.1947 -0.9164 -2.0123 0
M  V30 20 N 3.8817 -0.3059 -0.5112 0
M  V30 21 C -6.9497 1.9818 1.9694 0
M  V30 22 O -7.4611 -0.3345 1.4308 0
M  V30 23 C 4.744 -0.7336 0.602 0
M  V30 24 C 4.2659 0.8607 -1.3174 0
M  V30 25 C -7.3115 0.5919 2.5097 0
M  V30 26 C 6.0432 0.0791 0.6743 0
M  V30 27 C 4.7634 1.992 -0.4124 0
M  V30 28 N 5.763 1.5181 0.5575 0
M  V30 29 C 6.5308 2.4958 1.2931 0
M  V30 30 O 6.129 3.6901 1.3531 0
M  V30 31 C 7.7969 2.1305 2.0091 0
M  V30 32 H -0.8975 -3.8578 -1.5072 0
M  V30 33 H -1.6813 1.0416 -1.5487 0
M  V30 34 H 0.1666 0.1138 -0.2208 0
M  V30 35 H 0.609 -3.3643 0.6522 0
M  V30 36 H -4.2452 1.7228 -1.0703 0
M  V30 37 H -5.679 -2.1186 -2.3878 0
M  V30 38 H 2.7966 -2.556 0.7696 0
M  V30 39 H -7.2284 -2.2041 -0.4626 0
M  V30 40 H -7.8332 2.4111 1.4491 0
M  V30 41 H -6.6655 2.6565 2.8045 0
M  V30 42 H 4.1888 -0.6134 1.5573 0
M  V30 43 H 5.0147 -1.8042 0.4768 0
M  V30 44 H 3.405 1.2434 -1.9083 0
M  V30 45 H 5.0692 0.566 -2.0266 0
M  V30 46 H -6.4985 0.2384 3.1795 0
M  V30 47 H -8.256 0.6401 3.0917 0
M  V30 48 H 6.7247 -0.2277 -0.1484 0
M  V30 49 H 6.5361 -0.1578 1.6401 0
M  V30 50 H 5.2076 2.7845 -1.0539 0
M  V30 51 H 3.901 2.4272 0.1384 0
M  V30 52 H 8.4294 1.4889 1.3596 0
M  V30 53 H 8.3755 3.0447 2.264 0
M  V30 54 H 7.5548 1.5921 2.9488 0
M  V30 END ATOM
M  V30 BEGIN BOND
M  V30 1 1 1 2
M  V30 2 2 2 3
M  V30 3 1 2 4
M  V30 4 1 3 5
M  V30 5 1 3 6
M  V30 6 2 4 7
M  V30 7 1 5 8
M  V30 8 2 6 9
M  V30 9 1 7 10
M  V30 10 2 8 11
M  V30 11 1 8 12
M  V30 12 2 10 13
M  V30 13 1 11 14
M  V30 14 2 12 15
M  V30 15 1 13 16
M  V30 16 1 14 17
M  V30 17 2 14 18
M  V30 18 2 16 19
M  V30 19 1 16 20
M  V30 20 1 17 21
M  V30 21 1 18 22
M  V30 22 1 20 23
M  V30 23 1 20 24
M  V30 24 1 21 25
M  V30 25 1 23 26
M  V30 26 1 24 27
M  V30 27 1 26 28
M  V30 28 1 28 29
M  V30 29 2 29 30
M  V30 30 1 29 31
M  V30 31 1 7 9
M  V30 32 1 15 18
M  V30 33 1 22 25
M  V30 34 1 27 28
M  V30 35 1 4 32
M  V30 36 1 6 33
M  V30 37 1 9 34
M  V30 38 1 10 35
M  V30 39 1 11 36
M  V30 40 1 12 37
M  V30 41 1 13 38
M  V30 42 1 15 39
M  V30 43 1 21 40
M  V30 44 1 21 41
M  V30 45 1 23 42
M  V30 46 1 23 43
M  V30 47 1 24 44
M  V30 48 1 24 45
M  V30 49 1 25 46
M  V30 50 1 25 47
M  V30 51 1 26 48
M  V30 52 1 26 49
M  V30 53 1 27 50
M  V30 54 1 27 51
M  V30 55 1 31 52
M  V30 56 1 31 53
M  V30 57 1 31 54
M  V30 END BOND
M  V30 END CTAB
M  END
>  <Structure No>
7431

>  <LogS>
-2.05

>  <MMFF94 Energy>
81.401

$$$$
Compound 7432
Actelion Java MolfileCreator 2.0

  0  0  0  0  0  0              0 V3000
M  V30 BEGIN CTAB
M  V30 COUNTS 52 55 0 0 0
M  V30 BEGIN ATOM
M  V30 1 S 4.8382 0.8856 -2.8201 0
M  V30 2 C 3.6432 0.5314 -1.761 0
M  V30 3 N 2.281 0.7642 -2.1358 0
M  V30 4 N 3.9586 -0.1075 -0.5169 0
M  V30 5 C 1.6482 2.0388 -1.7705 0
M  V30 6 C 1.5916 -0.2055 -2.9917 0
M  V30 7 C 2.9212 -0.435 0.4596 0
M  V30 8 C 0.2368 2.149 -2.3556 0
M  V30 9 C 0.1472 -0.3974 -2.5148 0
M  V30 10 C 3.4928 -1.2186 1.5983 0
M  V30 11 N -0.481 0.8842 -2.1655 0
M  V30 12 O 4.2444 -0.7013 2.5416 0
M  V30 13 C 3.333 -2.5732 1.8076 0
M  V30 14 C -1.8853 0.9119 -1.8833 0
M  V30 15 C 4.5859 -1.6586 3.3733 0
M  V30 16 C 4.0374 -2.855 2.9577 0
M  V30 17 N -2.7499 1.2687 -2.8703 0
M  V30 18 C -2.3846 0.5794 -0.6083 0
M  V30 19 C -4.0904 1.2997 -2.6595 0
M  V30 20 C -3.7806 0.6155 -0.4177 0
M  V30 21 C -1.5487 0.2339 0.4674 0
M  V30 22 N -4.5968 0.9727 -1.4436 0
M  V30 23 C -4.3282 0.2924 0.8263 0
M  V30 24 C -2.101 -0.0973 1.7214 0
M  V30 25 C -3.4932 -0.0673 1.901 0
M  V30 26 O -1.3003 -0.4621 2.8153 0
M  V30 27 O -4.0088 -0.4009 3.1642 0
M  V30 28 C 0.1185 -0.5702 2.7783 0
M  V30 29 C -5.3947 -0.4194 3.4916 0
M  V30 30 H 4.9607 -0.3101 -0.2981 0
M  V30 31 H 2.2659 2.8875 -2.1387 0
M  V30 32 H 1.5819 2.1092 -0.6638 0
M  V30 33 H 2.1163 -1.186 -2.9782 0
M  V30 34 H 1.5915 0.172 -4.0362 0
M  V30 35 H 2.1192 -1.0284 -0.0312 0
M  V30 36 H 2.4785 0.5017 0.8568 0
M  V30 37 H 0.2961 2.3753 -3.4427 0
M  V30 38 H -0.3005 2.9832 -1.8548 0
M  V30 39 H 0.1442 -1.0619 -1.6255 0
M  V30 40 H -0.4365 -0.894 -3.3189 0
M  V30 41 H 2.7752 -3.2718 1.1948 0
M  V30 42 H 5.2069 -1.5158 4.2463 0
M  V30 43 H 4.1432 -3.8179 3.436 0
M  V30 44 H -4.7563 1.584 -3.4627 0
M  V30 45 H -0.476 0.2296 0.3338 0
M  V30 46 H -5.4031 0.3258 0.9478 0
M  V30 47 H 0.4845 -0.8916 3.7745 0
M  V30 48 H 0.5694 0.4148 2.5359 0
M  V30 49 H 0.4223 -1.3293 2.0275 0
M  V30 50 H -5.5121 -0.7189 4.5539 0
M  V30 51 H -5.9288 -1.1557 2.8541 0
M  V30 52 H -5.833 0.5925 3.3568 0
M  V30 END ATOM
M  V30 BEGIN BOND
M  V30 1 2 1 2
M  V30 2 1 2 3
M  V30 3 1 2 4
M  V30 4 1 3 5
M  V30 5 1 3 6
M  V30 6 1 4 7
M  V30 7 1 5 8
M  V30 8 1 6 9
M  V30 9 1 7 10
M  V30 10 1 8 11
M  V30 11 1 10 12
M  V30 12 2 10 13
M  V30 13 1 11 14
M  V30 14 1 12 15
M  V30 15 1 13 16
M  V30 16 2 14 17
M  V30 17 1 14 18
M  V30 18 1 17 19
M  V30 19 1 18 20
M  V30 20 2 18 21
M  V30 21 2 19 22
M  V30 22 2 20 23
M  V30 23 1 21 24
M  V30 24 1 23 25
M  V30 25 1 24 26
M  V30 26 1 25 27
M  V30 27 1 26 28
M  V30 28 1 27 29
M  V30 29 1 9 11
M  V30 30 2 15 16
M  V30 31 1 20 22
M  V30 32 2 24 25
M  V30 33 1 4 30
M  V30 34 1 5 31
M  V30 35 1 5 32
M  V30 36 1 6 33
M  V30 37 1 6 34
M  V30 38 1 7 35
M  V30 39 1 7 36
M  V30 40 1 8 37
M  V30 41 1 8 38
M  V30 42 1 9 39
M  V30 43 1 9 40
M  V30 44 1 13 41
M  V30 45 1 15 42
M  V30 46 1 16 43
M  V30 47 1 19 44
M  V30 48 1 21 45
M  V30 49 1 23 46
M  V30 50 1 28 47
M  V30 51 1 28 48
M  V30 52 1 28 49
M  V30 53 1 29 50
M  V30 54 1 29 51
M  V30 55 1 29 52
M  V30 END BOND
M  V30 END CTAB
M  END
>  <Structure No>
7432

>  <LogS>
-5.63

>  <MMFF94 Energy>
19.393

$$$$
Compound 7433
Actelion Java MolfileCreator 2.0

  0  0  0  0  0  0              0 V3000
M  V30 BEGIN CTAB
M  V30 COUNTS 49 52 0 0 0
M  V30 BEGIN ATOM
M  V30 1 S 7.8138 -2.2743 -3.1688 0
M  V30 2 C 6.4726 -2.5895 -2.2072 0
M  V30 3 C 7.5927 -0.6123 -3.2834 0
M  V30 4 C 5.8345 -1.3811 -1.9516 0
M  V30 5 C 6.4537 -0.2767 -2.565 0
M  V30 6 N 4.6211 -1.3083 -1.1859 0
M  V30 7 C 4.1627 -0.1204 -0.5174 0
M  V30 8 O 4.9819 0.8005 -0.2484 0
M  V30 9 N 2.7818 0.0112 -0.1186 0
M  V30 10 C 1.7601 -0.8516 -0.7363 0
M  V30 11 C 2.3749 1.1161 0.7652 0
M  V30 12 C 0.3472 -0.3176 -0.489 0
M  V30 13 C 1.2271 0.6787 1.6834 0
M  V30 14 N 0.1729 -0.0156 0.9358 0
M  V30 15 C -0.9515 -0.5471 1.653 0
M  V30 16 N -0.7359 -1.5011 2.5982 0
M  V30 17 C -2.2702 -0.118 1.3917 0
M  V30 18 C -1.7615 -2.0659 3.2839 0
M  V30 19 C -3.3178 -0.73 2.1098 0
M  V30 20 C -2.5702 0.9032 0.4743 0
M  V30 21 N -3.0395 -1.6856 3.0341 0
M  V30 22 C -4.6427 -0.3488 1.8825 0
M  V30 23 C -3.9056 1.2889 0.2444 0
M  V30 24 C -4.9445 0.6583 0.9467 0
M  V30 25 O -4.2413 2.2973 -0.6735 0
M  V30 26 O -6.2639 1.0646 0.6898 0
M  V30 27 C -3.3001 3.0191 -1.4616 0
M  V30 28 C -7.4153 0.5177 1.3246 0
M  V30 29 H 6.1614 -3.5622 -1.8503 0
M  V30 30 H 8.2179 0.0761 -3.8353 0
M  V30 31 H 6.0776 0.7358 -2.5174 0
M  V30 32 H 4.0814 -2.1923 -1.0534 0
M  V30 33 H 1.927 -0.9098 -1.8341 0
M  V30 34 H 1.8384 -1.8741 -0.3082 0
M  V30 35 H 2.0497 1.9789 0.1443 0
M  V30 36 H 3.2221 1.4479 1.4039 0
M  V30 37 H 0.2 0.6097 -1.0832 0
M  V30 38 H -0.3977 -1.0703 -0.8296 0
M  V30 39 H 1.6317 -0.0012 2.4644 0
M  V30 40 H 0.7983 1.5735 2.184 0
M  V30 41 H -1.5602 -2.825 4.0271 0
M  V30 42 H -1.7722 1.409 -0.0466 0
M  V30 43 H -5.4296 -0.8376 2.4417 0
M  V30 44 H -2.6014 3.579 -0.8045 0
M  V30 45 H -2.7353 2.322 -2.116 0
M  V30 46 H -3.8436 3.7446 -2.1009 0
M  V30 47 H -7.364 0.6875 2.4209 0
M  V30 48 H -8.3208 1.0223 0.9295 0
M  V30 49 H -7.4909 -0.5687 1.1081 0
M  V30 END ATOM
M  V30 BEGIN BOND
M  V30 1 1 1 2
M  V30 2 1 1 3
M  V30 3 2 2 4
M  V30 4 2 3 5
M  V30 5 1 4 6
M  V30 6 1 6 7
M  V30 7 2 7 8
M  V30 8 1 7 9
M  V30 9 1 9 10
M  V30 10 1 9 11
M  V30 11 1 10 12
M  V30 12 1 11 13
M  V30 13 1 12 14
M  V30 14 1 14 15
M  V30 15 2 15 16
M  V30 16 1 15 17
M  V30 17 1 16 18
M  V30 18 1 17 19
M  V30 19 2 17 20
M  V30 20 2 18 21
M  V30 21 2 19 22
M  V30 22 1 20 23
M  V30 23 1 22 24
M  V30 24 1 23 25
M  V30 25 1 24 26
M  V30 26 1 25 27
M  V30 27 1 26 28
M  V30 28 1 4 5
M  V30 29 1 13 14
M  V30 30 1 19 21
M  V30 31 2 23 24
M  V30 32 1 2 29
M  V30 33 1 3 30
M  V30 34 1 5 31
M  V30 35 1 6 32
M  V30 36 1 10 33
M  V30 37 1 10 34
M  V30 38 1 11 35
M  V30 39 1 11 36
M  V30 40 1 12 37
M  V30 41 1 12 38
M  V30 42 1 13 39
M  V30 43 1 13 40
M  V30 44 1 18 41
M  V30 45 1 20 42
M  V30 46 1 22 43
M  V30 47 1 27 44
M  V30 48 1 27 45
M  V30 49 1 27 46
M  V30 50 1 28 47
M  V30 51 1 28 48
M  V30 52 1 28 49
M  V30 END BOND
M  V30 END CTAB
M  END
>  <Structure No>
7433

>  <LogS>
-5.3

>  <MMFF94 Energy>
10.085

$$$$
Compound 7434
Actelion Java MolfileCreator 2.0

  0  0  0  0  0  0              0 V3000
M  V30 BEGIN CTAB
M  V30 COUNTS 40 42 0 0 0
M  V30 BEGIN ATOM
M  V30 1 S 7.0507 0.0 0.4907 0
M  V30 2 O 7.3264 -0.759 1.7584 0
M  V30 3 O 7.7618 1.3224 0.5578 0
M  V30 4 N 7.6382 -0.9023 -0.8609 0
M  V30 5 C 5.3181 0.263 0.3186 0
M  V30 6 C 4.4093 -0.6737 0.8274 0
M  V30 7 C 4.8404 1.3916 -0.3597 0
M  V30 8 C 3.0339 -0.473 0.6785 0
M  V30 9 C 3.4651 1.5929 -0.5092 0
M  V30 10 C 2.5503 0.6753 0.0267 0
M  V30 11 N 1.1413 0.888 -0.165 0
M  V30 12 C 0.1206 0.4765 0.7578 0
M  V30 13 N -1.1274 0.21 0.2889 0
M  V30 14 C 0.3606 0.4111 2.1375 0
M  V30 15 C -2.139 -0.1561 1.1231 0
M  V30 16 C -0.6854 0.0391 2.9796 0
M  V30 17 N -1.9094 -0.2358 2.4609 0
M  V30 18 N -3.4525 -0.4317 0.6144 0
M  V30 19 C -3.7711 -0.5108 -0.7865 0
M  V30 20 O -2.8474 -0.6466 -1.6347 0
M  V30 21 C -5.1792 -0.4718 -1.2507 0
M  V30 22 C -5.5281 -0.9954 -2.5083 0
M  V30 23 C -6.1928 0.1069 -0.4672 0
M  V30 24 N -6.818 -0.954 -2.937 0
M  V30 25 C -7.5086 0.1368 -0.9323 0
M  V30 26 C -7.8057 -0.4064 -2.1819 0
M  V30 27 H 7.3891 -0.3621 -1.7195 0
M  V30 28 H 7.0905 -1.7912 -0.8953 0
M  V30 29 H 4.7644 -1.5642 1.33 0
M  V30 30 H 5.531 2.1131 -0.7773 0
M  V30 31 H 2.3501 -1.2224 1.055 0
M  V30 32 H 3.1103 2.4694 -1.0369 0
M  V30 33 H 0.833 1.3709 -1.0394 0
M  V30 34 H 1.3264 0.6611 2.5566 0
M  V30 35 H -0.5277 -0.0212 4.0481 0
M  V30 36 H -4.2041 -0.6266 1.3128 0
M  V30 37 H -4.779 -1.446 -3.1463 0
M  V30 38 H -5.9718 0.5566 0.4916 0
M  V30 39 H -8.2905 0.5835 -0.3316 0
M  V30 40 H -8.8212 -0.3888 -2.5543 0
M  V30 END ATOM
M  V30 BEGIN BOND
M  V30 1 2 1 2
M  V30 2 2 1 3
M  V30 3 1 1 4
M  V30 4 1 1 5
M  V30 5 2 5 6
M  V30 6 1 5 7
M  V30 7 1 6 8
M  V30 8 2 7 9
M  V30 9 2 8 10
M  V30 10 1 10 11
M  V30 11 1 11 12
M  V30 12 2 12 13
M  V30 13 1 12 14
M  V30 14 1 13 15
M  V30 15 2 14 16
M  V30 16 2 15 17
M  V30 17 1 15 18
M  V30 18 1 18 19
M  V30 19 2 19 20
M  V30 20 1 19 21
M  V30 21 2 21 22
M  V30 22 1 21 23
M  V30 23 1 22 24
M  V30 24 2 23 25
M  V30 25 2 24 26
M  V30 26 1 9 10
M  V30 27 1 16 17
M  V30 28 1 25 26
M  V30 29 1 4 27
M  V30 30 1 4 28
M  V30 31 1 6 29
M  V30 32 1 7 30
M  V30 33 1 8 31
M  V30 34 1 9 32
M  V30 35 1 11 33
M  V30 36 1 14 34
M  V30 37 1 16 35
M  V30 38 1 18 36
M  V30 39 1 22 37
M  V30 40 1 23 38
M  V30 41 1 25 39
M  V30 42 1 26 40
M  V30 END BOND
M  V30 END CTAB
M  END
>  <Structure No>
7434

>  <LogS>
-1.27

>  <MMFF94 Energy>
-139.8

$$$$
Compound 7435
Actelion Java MolfileCreator 2.0

  0  0  0  0  0  0              0 V3000
M  V30 BEGIN CTAB
M  V30 COUNTS 71 76 0 0 0
M  V30 BEGIN ATOM
M  V30 1 O -6.5952 3.1714 2.6016 0
M  V30 2 C -5.8304 2.5994 1.7804 0
M  V30 3 C -6.3565 1.5548 0.8933 0
M  V30 4 C -4.3687 2.9144 1.7684 0
M  V30 5 C -5.5895 0.9862 -0.0504 0
M  V30 6 C -3.8248 2.804 0.3434 0
M  V30 7 C -4.162 1.4434 -0.3297 0 CFG=1
M  V30 8 C -6.083 -0.2551 -0.75 0
M  V30 9 C -3.1504 0.3028 0.016 0 CFG=1
M  V30 10 C -4.9106 -1.0984 -1.2728 0
M  V30 11 C -3.75 -1.1289 -0.2417 0 CFG=1
M  V30 12 C -1.7843 0.5202 -0.6906 0
M  V30 13 C -2.6908 -2.2109 -0.6039 0 CFG=1
M  V30 14 C -1.6354 -0.2974 -1.9784 0
M  V30 15 C -1.6797 -1.8408 -1.7385 0 CFG=1
M  V30 16 C -1.8523 -2.6217 0.6045 0
M  V30 17 C -0.2801 -2.4316 -1.2473 0 CFG=2
M  V30 18 C -2.163 -2.4948 -3.0657 0
M  V30 19 C -0.6146 -3.2592 0.01 0
M  V30 20 O 0.6908 -1.3837 -1.0376 0
M  V30 21 C 0.3568 -3.3437 -2.2235 0
M  V30 22 C 1.3645 -0.9832 0.1313 0
M  V30 23 C 0.8772 -4.0908 -3.0162 0
M  V30 24 O 0.8583 -1.156 1.2716 0
M  V30 25 C 2.6551 -0.273 0.0056 0
M  V30 26 C 3.3032 -0.1969 -1.2407 0
M  V30 27 C 3.26 0.3254 1.1259 0
M  V30 28 C 4.5342 0.4551 -1.3598 0
M  V30 29 C 4.4878 0.982 1.0013 0
M  V30 30 C 5.1443 1.0318 -0.2413 0
M  V30 31 O 6.3761 1.6836 -0.4079 0
M  V30 32 C 7.3681 1.8135 0.5754 0
M  V30 33 C 7.5803 0.8243 1.555 0
M  V30 34 C 8.2008 2.9405 0.5476 0
M  V30 35 C 8.5872 0.9868 2.5125 0
M  V30 36 C 9.209 3.0982 1.5042 0
M  V30 37 C 9.3989 2.1244 2.4896 0
M  V30 38 H -7.3677 1.2006 1.0564 0
M  V30 39 H -3.8381 2.2029 2.4362 0
M  V30 40 H -4.1992 3.9463 2.1465 0
M  V30 41 H -2.7319 2.9904 0.3654 0
M  V30 42 H -4.2763 3.6203 -0.2643 0
M  V30 43 H -4.1021 1.6179 -1.4278 0
M  V30 44 H -6.7553 0.0287 -1.5884 0
M  V30 45 H -6.6635 -0.8815 -0.0359 0
M  V30 46 H -2.9543 0.3695 1.1095 0
M  V30 47 H -4.5681 -0.6693 -2.2354 0
M  V30 48 H -5.2787 -2.1279 -1.4758 0
M  V30 49 H -4.2175 -1.4619 0.7153 0
M  V30 50 H -1.6231 1.5873 -0.9483 0
M  V30 51 H -0.9768 0.2597 0.0147 0
M  V30 52 H -3.2452 -3.1357 -0.8897 0
M  V30 53 H -2.4463 0.0221 -2.6675 0
M  V30 54 H -0.693 -0.0138 -2.4954 0
M  V30 55 H -1.5742 -1.7416 1.2195 0
M  V30 56 H -2.3994 -3.3437 1.251 0
M  V30 57 H -3.1795 -2.1496 -3.3416 0
M  V30 58 H -2.2051 -3.6015 -2.9746 0
M  V30 59 H -1.4798 -2.2313 -3.9013 0
M  V30 60 H 0.2184 -3.3602 0.7331 0
M  V30 61 H -0.8953 -4.3006 -0.2743 0
M  V30 62 H 1.3277 -4.7505 -3.7124 0
M  V30 63 H 2.8635 -0.6449 -2.1229 0
M  V30 64 H 2.7788 0.2977 2.0971 0
M  V30 65 H 5.024 0.5021 -2.3248 0
M  V30 66 H 4.9165 1.4633 1.8709 0
M  V30 67 H 6.9808 -0.0764 1.5694 0
M  V30 68 H 8.06 3.6993 -0.2126 0
M  V30 69 H 8.7441 0.2256 3.2663 0
M  V30 70 H 9.8421 3.9772 1.4835 0
M  V30 71 H 10.1783 2.2506 3.2314 0
M  V30 END ATOM
M  V30 BEGIN BOND
M  V30 1 2 1 2
M  V30 2 1 2 3
M  V30 3 1 2 4
M  V30 4 2 3 5
M  V30 5 1 4 6
M  V30 6 1 5 7
M  V30 7 1 5 8
M  V30 8 1 7 9
M  V30 9 1 8 10
M  V30 10 1 9 11
M  V30 11 1 9 12
M  V30 12 1 11 13
M  V30 13 1 12 14
M  V30 14 1 13 15
M  V30 15 1 13 16
M  V30 16 1 15 17
M  V30 17 1 15 18
M  V30 18 1 16 19
M  V30 19 1 17 20
M  V30 20 1 17 21
M  V30 21 1 20 22
M  V30 22 3 21 23
M  V30 23 2 22 24
M  V30 24 1 22 25
M  V30 25 2 25 26
M  V30 26 1 25 27
M  V30 27 1 26 28
M  V30 28 2 27 29
M  V30 29 2 28 30
M  V30 30 1 30 31
M  V30 31 1 31 32
M  V30 32 2 32 33
M  V30 33 1 32 34
M  V30 34 1 33 35
M  V30 35 2 34 36
M  V30 36 2 35 37
M  V30 37 1 6 7
M  V30 38 1 10 11
M  V30 39 1 14 15
M  V30 40 1 17 19
M  V30 41 1 29 30
M  V30 42 1 36 37
M  V30 43 1 3 38
M  V30 44 1 4 39
M  V30 45 1 4 40
M  V30 46 1 6 41
M  V30 47 1 6 42
M  V30 48 1 7 43
M  V30 49 1 8 44
M  V30 50 1 8 45
M  V30 51 1 9 46
M  V30 52 1 10 47
M  V30 53 1 10 48
M  V30 54 1 11 49
M  V30 55 1 12 50
M  V30 56 1 12 51
M  V30 57 1 13 52
M  V30 58 1 14 53
M  V30 59 1 14 54
M  V30 60 1 16 55
M  V30 61 1 16 56
M  V30 62 1 18 57
M  V30 63 1 18 58
M  V30 64 1 18 59
M  V30 65 1 19 60
M  V30 66 1 19 61
M  V30 67 1 23 62
M  V30 68 1 26 63
M  V30 69 1 27 64
M  V30 70 1 28 65
M  V30 71 1 29 66
M  V30 72 1 33 67
M  V30 73 1 34 68
M  V30 74 1 35 69
M  V30 75 1 36 70
M  V30 76 1 37 71
M  V30 END BOND
M  V30 BEGIN COLLECTION
M  V30 MDLV30/STEABS ATOMS=(6 7 9 11 13 15 17)
M  V30 END COLLECTION
M  V30 END CTAB
M  END
>  <Structure No>
7435

>  <LogS>
-6.84

>  <MMFF94 Energy>
123.57

$$$$
Compound 7436
Actelion Java MolfileCreator 2.0

  0  0  0  0  0  0              0 V3000
M  V30 BEGIN CTAB
M  V30 COUNTS 34 35 0 0 0
M  V30 BEGIN ATOM
M  V30 1 S 0.5087 -1.357 0.1695 0
M  V30 2 O 0.4101 -1.8049 1.6005 0
M  V30 3 O 0.4707 -2.5461 -0.7484 0
M  V30 4 N -0.7529 -0.2282 -0.2191 0
M  V30 5 C 2.0477 -0.5303 -0.0511 0
M  V30 6 C -2.0545 -0.3315 -0.2197 0
M  V30 7 C 2.6897 -0.5546 -1.2962 0
M  V30 8 C 2.6241 0.1824 1.0086 0
M  V30 9 S -3.0266 0.9722 -0.6559 0
M  V30 10 N -2.8188 -1.4214 0.1049 0
M  V30 11 C 3.904 0.1145 -1.4751 0
M  V30 12 C 3.8386 0.8521 0.8306 0
M  V30 13 C -4.4184 0.0703 -0.4062 0
M  V30 14 N -4.1276 -1.1833 -0.0035 0
M  V30 15 C -2.3731 -2.7432 0.5333 0
M  V30 16 C 4.4896 0.8209 -0.4178 0
M  V30 17 S -6.0487 0.6666 -0.6367 0
M  V30 18 O 5.7088 1.4755 -0.6474 0
M  V30 19 O -7.0297 -0.3409 -0.1061 0
M  V30 20 O -6.3013 0.8815 -2.1021 0
M  V30 21 N -6.2446 2.1578 0.2158 0
M  V30 22 C 6.4138 2.2289 0.3338 0
M  V30 23 H 2.2507 -1.0881 -2.1296 0
M  V30 24 H 2.133 0.2231 1.9728 0
M  V30 25 H 4.3918 0.0862 -2.4412 0
M  V30 26 H 4.2605 1.3918 1.6674 0
M  V30 27 H -1.826 -2.6752 1.4913 0
M  V30 28 H -1.7807 -3.2287 -0.2634 0
M  V30 29 H -3.2516 -3.3986 0.7175 0
M  V30 30 H -6.0969 1.9519 1.2293 0
M  V30 31 H -7.244 2.4425 0.1083 0
M  V30 32 H 6.689 1.5776 1.1903 0
M  V30 33 H 7.3427 2.6332 -0.1177 0
M  V30 34 H 5.7897 3.0782 0.6843 0
M  V30 END ATOM
M  V30 BEGIN BOND
M  V30 1 2 1 2
M  V30 2 2 1 3
M  V30 3 1 1 4
M  V30 4 1 1 5
M  V30 5 2 4 6
M  V30 6 2 5 7
M  V30 7 1 5 8
M  V30 8 1 6 9
M  V30 9 1 6 10
M  V30 10 1 7 11
M  V30 11 2 8 12
M  V30 12 1 9 13
M  V30 13 1 10 14
M  V30 14 1 10 15
M  V30 15 2 11 16
M  V30 16 1 13 17
M  V30 17 1 16 18
M  V30 18 2 17 19
M  V30 19 2 17 20
M  V30 20 1 17 21
M  V30 21 1 18 22
M  V30 22 1 12 16
M  V30 23 2 13 14
M  V30 24 1 7 23
M  V30 25 1 8 24
M  V30 26 1 11 25
M  V30 27 1 12 26
M  V30 28 1 15 27
M  V30 29 1 15 28
M  V30 30 1 15 29
M  V30 31 1 21 30
M  V30 32 1 21 31
M  V30 33 1 22 32
M  V30 34 1 22 33
M  V30 35 1 22 34
M  V30 END BOND
M  V30 END CTAB
M  END
>  <Structure No>
7436

>  <LogS>
-2.76

>  <MMFF94 Energy>
12.739

$$$$
Compound 7437
Actelion Java MolfileCreator 2.0

  0  0  0  0  0  0              0 V3000
M  V30 BEGIN CTAB
M  V30 COUNTS 28 29 0 0 0
M  V30 BEGIN ATOM
M  V30 1 S -0.7899 -2.7226 -0.0877 0
M  V30 2 O -1.779 -3.7912 -0.4566 0
M  V30 3 O -0.074 -3.1287 1.1703 0
M  V30 4 N 0.3687 -2.5523 -1.3639 0 CHG=-1
M  V30 5 C -1.6488 -1.204 0.1504 0
M  V30 6 C 1.4207 -1.5858 -1.3388 0
M  V30 7 C -2.0228 -0.4328 -0.9563 0
M  V30 8 C -1.9574 -0.7563 1.441 0
M  V30 9 S 1.7176 -0.4861 -0.0929 0
M  V30 10 N 2.3062 -1.4474 -2.3479 0
M  V30 11 C -2.6912 0.7814 -0.7758 0
M  V30 12 C -2.6271 0.4572 1.6244 0
M  V30 13 C 3.0283 0.141 -0.9443 0
M  V30 14 N 3.2007 -0.4853 -2.1286 0
M  V30 15 C -2.9997 1.2411 0.518 0
M  V30 16 S 4.0433 1.4572 -0.3902 0
M  V30 17 N -3.6864 2.4916 0.7095 0 CHG=1
M  V30 18 O 3.6282 2.732 -1.0699 0
M  V30 19 O 5.4769 1.1519 -0.7223 0
M  V30 20 N 3.8881 1.6355 1.3234 0
M  V30 21 O -4.0052 3.1993 -0.2683 0
M  V30 22 O -4.0029 2.9291 1.9753 0 CHG=-1
M  V30 23 H -1.7932 -0.7695 -1.9593 0
M  V30 24 H -1.679 -1.3434 2.3068 0
M  V30 25 H -2.966 1.3607 -1.6479 0
M  V30 26 H -2.8516 0.7823 2.6319 0
M  V30 27 H 2.9132 1.9618 1.511 0
M  V30 28 H 4.5242 2.4137 1.608 0
M  V30 END ATOM
M  V30 BEGIN BOND
M  V30 1 2 1 2
M  V30 2 2 1 3
M  V30 3 1 1 4
M  V30 4 1 1 5
M  V30 5 1 4 6
M  V30 6 2 5 7
M  V30 7 1 5 8
M  V30 8 1 6 9
M  V30 9 2 6 10
M  V30 10 1 7 11
M  V30 11 2 8 12
M  V30 12 1 9 13
M  V30 13 1 10 14
M  V30 14 2 11 15
M  V30 15 1 13 16
M  V30 16 1 15 17
M  V30 17 2 16 18
M  V30 18 2 16 19
M  V30 19 1 16 20
M  V30 20 2 17 21
M  V30 21 1 17 22
M  V30 22 1 12 15
M  V30 23 2 13 14
M  V30 24 1 7 23
M  V30 25 1 8 24
M  V30 26 1 11 25
M  V30 27 1 12 26
M  V30 28 1 20 27
M  V30 29 1 20 28
M  V30 END BOND
M  V30 END CTAB
M  END
>  <Structure No>
7437

>  <LogS>
-1.33

>  <MMFF94 Energy>
56.604

$$$$
Compound 7438
Actelion Java MolfileCreator 2.0

  0  0  0  0  0  0              0 V3000
M  V30 BEGIN CTAB
M  V30 COUNTS 39 39 0 0 0
M  V30 BEGIN ATOM
M  V30 1 Cl -1.9421 -0.2531 3.4639 0
M  V30 2 C -2.1732 0.0204 1.7347 0
M  V30 3 C -3.3954 0.5326 1.2607 0
M  V30 4 C -1.1468 -0.3136 0.8294 0
M  V30 5 Cl -4.6684 0.9536 2.4113 0
M  V30 6 C -3.597 0.6978 -0.1242 0
M  V30 7 N 0.0915 -0.854 1.3122 0
M  V30 8 C -1.3532 -0.1508 -0.5538 0
M  V30 9 S -5.1215 1.3338 -0.7588 0
M  V30 10 C -2.5761 0.3485 -1.0173 0
M  V30 11 C 1.0211 -0.0694 2.0713 0
M  V30 12 S -0.0726 -0.5384 -1.7099 0
M  V30 13 O -5.0722 1.4178 -2.2592 0
M  V30 14 O -5.358 2.7113 -0.2057 0
M  V30 15 N -6.4203 0.2891 -0.2986 0
M  V30 16 O 0.8188 1.163 2.2457 0
M  V30 17 C 2.2592 -0.6968 2.6332 0
M  V30 18 O 0.1638 -2.0222 -1.7141 0
M  V30 19 O 1.1895 0.1725 -1.3105 0
M  V30 20 N -0.5106 -0.0347 -3.3062 0
M  V30 21 N 3.4142 -0.3659 1.8035 0
M  V30 22 C 3.7235 -1.0686 0.5918 0
M  V30 23 O 2.9746 -1.9966 0.1827 0
M  V30 24 C 4.925 -0.6785 -0.2181 0
M  V30 25 N 4.5939 0.4 -1.1471 0 CHG=1
M  V30 26 H 0.3593 -1.8203 1.021 0
M  V30 27 H -2.7345 0.4694 -2.0794 0
M  V30 28 H -6.2424 -0.636 -0.7499 0
M  V30 29 H -7.2902 0.674 -0.7305 0
M  V30 30 H 2.1446 -1.7991 2.7131 0
M  V30 31 H 2.4228 -0.3057 3.6605 0
M  V30 32 H 0.2645 -0.3276 -3.9421 0
M  V30 33 H -0.5184 1.0099 -3.3058 0
M  V30 34 H 4.0436 0.4078 2.1153 0
M  V30 35 H 5.2943 -1.5603 -0.7867 0
M  V30 36 H 5.7408 -0.3494 0.4621 0
M  V30 37 H 5.4563 0.6797 -1.6674 0
M  V30 38 H 4.2293 1.2291 -0.6231 0
M  V30 39 H 3.8779 0.0712 -1.8349 0
M  V30 END ATOM
M  V30 BEGIN BOND
M  V30 1 1 1 2
M  V30 2 2 2 3
M  V30 3 1 2 4
M  V30 4 1 3 5
M  V30 5 1 3 6
M  V30 6 1 4 7
M  V30 7 2 4 8
M  V30 8 1 6 9
M  V30 9 2 6 10
M  V30 10 1 7 11
M  V30 11 1 8 12
M  V30 12 2 9 13
M  V30 13 2 9 14
M  V30 14 1 9 15
M  V30 15 2 11 16
M  V30 16 1 11 17
M  V30 17 2 12 18
M  V30 18 2 12 19
M  V30 19 1 12 20
M  V30 20 1 17 21
M  V30 21 1 21 22
M  V30 22 2 22 23
M  V30 23 1 22 24
M  V30 24 1 24 25
M  V30 25 1 8 10
M  V30 26 1 7 26
M  V30 27 1 10 27
M  V30 28 1 15 28
M  V30 29 1 15 29
M  V30 30 1 17 30
M  V30 31 1 17 31
M  V30 32 1 20 32
M  V30 33 1 20 33
M  V30 34 1 21 34
M  V30 35 1 24 35
M  V30 36 1 24 36
M  V30 37 1 25 37
M  V30 38 1 25 38
M  V30 39 1 25 39
M  V30 END BOND
M  V30 END CTAB
M  END
>  <Structure No>
7438

>  <LogS>
-1.23

>  <MMFF94 Energy>
-134.42

$$$$
Compound 7439
Actelion Java MolfileCreator 2.0

  0  0  0  0  0  0              0 V3000
M  V30 BEGIN CTAB
M  V30 COUNTS 60 63 0 0 0
M  V30 BEGIN ATOM
M  V30 1 O 1.7804 3.9687 -0.2426 0
M  V30 2 C 1.7764 2.7113 -0.1486 0
M  V30 3 C 3.0486 1.9408 -0.0463 0
M  V30 4 C 0.4994 1.9765 -0.0467 0
M  V30 5 C 4.3051 2.5701 -0.1974 0
M  V30 6 C 2.9946 0.5417 0.2122 0
M  V30 7 C -0.5603 2.2176 -0.8607 0
M  V30 8 C 0.5648 0.7947 0.8878 0 CFG=2
M  V30 9 O 4.3917 3.9402 -0.4461 0
M  V30 10 C 5.4802 1.8169 -0.1022 0
M  V30 11 C 4.1941 -0.203 0.2719 0
M  V30 12 C 1.6556 -0.165 0.3789 0
M  V30 13 O -0.5228 3.2314 -1.8268 0
M  V30 14 C -1.8532 1.4089 -0.7766 0 CFG=2
M  V30 15 C -0.7838 0.0945 1.1108 0
M  V30 16 C 5.4254 0.4451 0.126 0
M  V30 17 N 4.1676 -1.6249 0.4777 0
M  V30 18 O -2.3551 1.2313 -2.0845 0
M  V30 19 C -2.8902 2.1234 0.0636 0
M  V30 20 C -1.6138 -0.0107 -0.1814 0 CFG=1
M  V30 21 C 4.8244 -2.1875 1.6576 0
M  V30 22 C 3.8957 -2.5007 -0.6592 0
M  V30 23 O -2.6955 3.2912 0.5009 0
M  V30 24 C -4.1495 1.4162 0.3275 0 CHG=-1 CFG=2
M  V30 25 C -2.9323 -0.8653 0.0875 0 CFG=1
M  V30 26 C -4.1941 -2.0E-4 -0.08 0
M  V30 27 C -5.3385 2.1122 0.8744 0
M  V30 28 N -2.9228 -2.1543 -0.6915 0 CHG=1
M  V30 29 O -5.2827 -0.4655 -0.5077 0
M  V30 30 O -5.423 3.3674 0.7976 0
M  V30 31 N -6.3931 1.3824 1.5068 0
M  V30 32 C -1.7996 -3.0237 -0.258 0
M  V30 33 C -4.17 -2.947 -0.5429 0
M  V30 34 H 0.8953 1.1673 1.8847 0
M  V30 35 H 5.2844 4.4067 -0.5573 0
M  V30 36 H 6.444 2.2964 -0.2171 0
M  V30 37 H 1.7567 -0.9984 1.1077 0
M  V30 38 H 1.3577 -0.5951 -0.6011 0
M  V30 39 H 0.309 3.7405 -2.0891 0
M  V30 40 H -0.6105 -0.9168 1.5397 0
M  V30 41 H -1.3631 0.6673 1.869 0
M  V30 42 H 6.3471 -0.121 0.1768 0
M  V30 43 H -2.6999 2.103 -2.414 0
M  V30 44 H -0.9903 -0.5215 -0.9427 0
M  V30 45 H 4.7466 -1.4843 2.516 0
M  V30 46 H 5.8969 -2.3777 1.4374 0
M  V30 47 H 4.3359 -3.1418 1.9478 0
M  V30 48 H 3.2615 -1.9851 -1.41 0
M  V30 49 H 3.3603 -3.4109 -0.3182 0
M  V30 50 H 4.8508 -2.7959 -1.1397 0
M  V30 51 H -2.9607 -1.1383 1.1683 0
M  V30 52 H -2.7937 -1.9362 -1.7081 0
M  V30 53 H -7.2437 1.8834 1.8471 0
M  V30 54 H -6.3034 0.3629 1.7094 0
M  V30 55 H -1.7716 -3.9605 -0.8575 0
M  V30 56 H -1.8975 -3.2925 0.8171 0
M  V30 57 H -0.8079 -2.5593 -0.4113 0
M  V30 58 H -4.9213 -2.6463 -1.303 0
M  V30 59 H -4.5936 -2.8508 0.4815 0
M  V30 60 H -4.0114 -4.0317 -0.7374 0
M  V30 END ATOM
M  V30 BEGIN BOND
M  V30 1 2 1 2
M  V30 2 1 2 3
M  V30 3 1 2 4
M  V30 4 2 3 5
M  V30 5 1 3 6
M  V30 6 2 4 7
M  V30 7 1 4 8
M  V30 8 1 5 9
M  V30 9 1 5 10
M  V30 10 2 6 11
M  V30 11 1 6 12
M  V30 12 1 7 13
M  V30 13 1 7 14
M  V30 14 1 8 15
M  V30 15 2 10 16
M  V30 16 1 11 17
M  V30 17 1 14 18
M  V30 18 1 14 19
M  V30 19 1 14 20
M  V30 20 1 17 21
M  V30 21 1 17 22
M  V30 22 2 19 23
M  V30 23 1 19 24
M  V30 24 1 20 25
M  V30 25 1 24 26
M  V30 26 1 24 27
M  V30 27 1 25 28
M  V30 28 2 26 29
M  V30 29 2 27 30
M  V30 30 1 27 31
M  V30 31 1 28 32
M  V30 32 1 28 33
M  V30 33 1 8 12
M  V30 34 1 11 16
M  V30 35 1 15 20
M  V30 36 1 25 26
M  V30 37 1 8 34
M  V30 38 1 9 35
M  V30 39 1 10 36
M  V30 40 1 12 37
M  V30 41 1 12 38
M  V30 42 1 13 39
M  V30 43 1 15 40
M  V30 44 1 15 41
M  V30 45 1 16 42
M  V30 46 1 18 43
M  V30 47 1 20 44
M  V30 48 1 21 45
M  V30 49 1 21 46
M  V30 50 1 21 47
M  V30 51 1 22 48
M  V30 52 1 22 49
M  V30 53 1 22 50
M  V30 54 1 25 51
M  V30 55 1 28 52
M  V30 56 1 31 53
M  V30 57 1 31 54
M  V30 58 1 32 55
M  V30 59 1 32 56
M  V30 60 1 32 57
M  V30 61 1 33 58
M  V30 62 1 33 59
M  V30 63 1 33 60
M  V30 END BOND
M  V30 BEGIN COLLECTION
M  V30 MDLV30/STEABS ATOMS=(5 8 14 20 24 25)
M  V30 END COLLECTION
M  V30 END CTAB
M  END
>  <Structure No>
7439

>  <LogS>
-0.94

>  <MMFF94 Energy>
54.216

$$$$
Compound 7440
Actelion Java MolfileCreator 2.0

  0  0  0  0  0  0              0 V3000
M  V30 BEGIN CTAB
M  V30 COUNTS 28 29 0 0 0
M  V30 BEGIN ATOM
M  V30 1 S -0.2632 1.4045 2.4589 0
M  V30 2 O 0.6288 0.472 3.2297 0
M  V30 3 O -0.9991 2.2905 3.4237 0
M  V30 4 N 0.7149 2.3844 1.4178 0 CHG=-1
M  V30 5 C -1.4339 0.4966 1.5067 0
M  V30 6 C 1.5162 1.8453 0.3649 0
M  V30 7 C -1.7705 -0.818 1.8601 0
M  V30 8 C -2.0323 1.0895 0.3884 0
M  V30 9 S 1.6575 0.2087 -0.0251 0
M  V30 10 N 2.2555 2.6202 -0.4565 0
M  V30 11 C -2.6988 -1.5491 1.0961 0
M  V30 12 C -2.9532 0.3717 -0.3769 0
M  V30 13 C 2.7096 0.5896 -1.2834 0
M  V30 14 N 2.9199 1.9209 -1.3748 0
M  V30 15 N -3.0406 -2.8988 1.4616 0 CHG=1
M  V30 16 C -3.2867 -0.9392 -0.0278 0
M  V30 17 S 3.4364 -0.5841 -2.3607 0
M  V30 18 O -3.8733 -3.5478 0.7949 0
M  V30 19 O -2.4562 -3.4967 2.5548 0 CHG=-1
M  V30 20 O 2.4141 -1.0529 -3.3582 0
M  V30 21 O 3.9368 -1.7544 -1.5617 0
M  V30 22 N 4.7676 0.1412 -3.193 0
M  V30 23 H -1.3097 -1.2686 2.7293 0
M  V30 24 H -1.7851 2.1062 0.1089 0
M  V30 25 H -3.4106 0.833 -1.2427 0
M  V30 26 H -4.0037 -1.4756 -0.6362 0
M  V30 27 H 4.3752 0.8972 -3.7982 0
M  V30 28 H 5.16 -0.5846 -3.8336 0
M  V30 END ATOM
M  V30 BEGIN BOND
M  V30 1 2 1 2
M  V30 2 2 1 3
M  V30 3 1 1 4
M  V30 4 1 1 5
M  V30 5 1 4 6
M  V30 6 2 5 7
M  V30 7 1 5 8
M  V30 8 1 6 9
M  V30 9 2 6 10
M  V30 10 1 7 11
M  V30 11 2 8 12
M  V30 12 1 9 13
M  V30 13 1 10 14
M  V30 14 1 11 15
M  V30 15 2 11 16
M  V30 16 1 13 17
M  V30 17 2 15 18
M  V30 18 1 15 19
M  V30 19 2 17 20
M  V30 20 2 17 21
M  V30 21 1 17 22
M  V30 22 1 12 16
M  V30 23 2 13 14
M  V30 24 1 7 23
M  V30 25 1 8 24
M  V30 26 1 12 25
M  V30 27 1 16 26
M  V30 28 1 22 27
M  V30 29 1 22 28
M  V30 END BOND
M  V30 END CTAB
M  END
>  <Structure No>
7440

>  <LogS>
-1.46

>  <MMFF94 Energy>
43.157

$$$$
Compound 7441
Actelion Java MolfileCreator 2.0

  0  0  0  0  0  0              0 V3000
M  V30 BEGIN CTAB
M  V30 COUNTS 59 61 0 0 0
M  V30 BEGIN ATOM
M  V30 1 S -3.7288 -2.4306 0.7287 0
M  V30 2 C -2.2954 -2.0182 -0.2861 0
M  V30 3 C -3.9357 -0.7693 1.4083 0
M  V30 4 C -2.4155 -1.6102 -1.6348 0
M  V30 5 C -1.0211 -2.1434 0.2816 0
M  V30 6 C -5.0118 0.08 1.0262 0
M  V30 7 C -3.0316 -0.3473 2.4048 0
M  V30 8 N -3.6899 -1.5506 -2.2828 0 CHG=1
M  V30 9 C -1.2606 -1.3033 -2.3732 0
M  V30 10 C 0.1252 -1.8471 -0.4663 0
M  V30 11 C -5.1449 1.3256 1.6745 0
M  V30 12 C -6.0846 -0.3712 0.0508 0
M  V30 13 C -3.1627 0.9062 3.0051 0
M  V30 14 O -4.4004 -2.5756 -2.3469 0
M  V30 15 O -4.0175 -0.461 -3.0507 0 CHG=-1
M  V30 16 C 0.013 -1.4091 -1.7959 0
M  V30 17 C -4.2175 1.7407 2.6404 0
M  V30 18 C -7.275 -0.9529 0.8039 0
M  V30 19 C -6.5338 0.7467 -0.9102 0
M  V30 20 C 1.2097 -1.2164 -2.6414 0
M  V30 21 C 2.3325 -0.5831 -2.2655 0
M  V30 22 C 2.4894 0.2058 -1.0222 0
M  V30 23 O 1.4902 0.7948 -0.5226 0
M  V30 24 N 3.7839 0.3494 -0.4061 0
M  V30 25 C 4.7753 -0.7295 -0.5339 0
M  V30 26 C 4.0535 1.4912 0.4801 0
M  V30 27 C 5.9536 -0.5386 0.4283 0
M  V30 28 C 5.501 1.9657 0.3088 0
M  V30 29 N 6.4546 0.843 0.3537 0
M  V30 30 C 7.8704 1.1032 0.4538 0
M  V30 31 O 8.6521 0.1888 0.8387 0
M  V30 32 C 8.4417 2.4573 0.1608 0
M  V30 33 H -0.9123 -2.4947 1.3016 0
M  V30 34 H -2.2243 -0.9931 2.7258 0
M  V30 35 H -1.3572 -1.0183 -3.4137 0
M  V30 36 H 1.0979 -1.9916 -0.0134 0
M  V30 37 H -5.9685 1.9898 1.4477 0
M  V30 38 H -5.6824 -1.1749 -0.5931 0
M  V30 39 H -2.454 1.2261 3.7639 0
M  V30 40 H -4.3257 2.7074 3.1097 0
M  V30 41 H -8.0569 -1.2764 0.0953 0
M  V30 42 H -7.7118 -0.1995 1.4901 0
M  V30 43 H -6.9504 -1.8389 1.3946 0
M  V30 44 H -7.1022 0.3072 -1.7614 0
M  V30 45 H -5.6484 1.2856 -1.3204 0
M  V30 46 H -7.1929 1.4724 -0.3953 0
M  V30 47 H 1.1821 -1.6479 -3.635 0
M  V30 48 H 3.1755 -0.615 -2.9416 0
M  V30 49 H 4.2932 -1.7078 -0.314 0
M  V30 50 H 5.1629 -0.7503 -1.5745 0
M  V30 51 H 3.8845 1.1844 1.5356 0
M  V30 52 H 3.3777 2.3443 0.2461 0
M  V30 53 H 5.6276 -0.7519 1.4719 0
M  V30 54 H 6.7448 -1.267 0.1535 0
M  V30 55 H 5.5978 2.4893 -0.6613 0
M  V30 56 H 5.7295 2.6841 1.1223 0
M  V30 57 H 8.266 3.1325 1.0252 0
M  V30 58 H 7.9668 2.8905 -0.7456 0
M  V30 59 H 9.535 2.3855 -0.0213 0
M  V30 END ATOM
M  V30 BEGIN BOND
M  V30 1 1 1 2
M  V30 2 1 1 3
M  V30 3 2 2 4
M  V30 4 1 2 5
M  V30 5 2 3 6
M  V30 6 1 3 7
M  V30 7 1 4 8
M  V30 8 1 4 9
M  V30 9 2 5 10
M  V30 10 1 6 11
M  V30 11 1 6 12
M  V30 12 2 7 13
M  V30 13 2 8 14
M  V30 14 1 8 15
M  V30 15 2 9 16
M  V30 16 2 11 17
M  V30 17 1 12 18
M  V30 18 1 12 19
M  V30 19 1 16 20
M  V30 20 2 20 21
M  V30 21 1 21 22
M  V30 22 2 22 23
M  V30 23 1 22 24
M  V30 24 1 24 25
M  V30 25 1 24 26
M  V30 26 1 25 27
M  V30 27 1 26 28
M  V30 28 1 27 29
M  V30 29 1 29 30
M  V30 30 2 30 31
M  V30 31 1 30 32
M  V30 32 1 10 16
M  V30 33 1 13 17
M  V30 34 1 28 29
M  V30 35 1 5 33
M  V30 36 1 7 34
M  V30 37 1 9 35
M  V30 38 1 10 36
M  V30 39 1 11 37
M  V30 40 1 12 38
M  V30 41 1 13 39
M  V30 42 1 17 40
M  V30 43 1 18 41
M  V30 44 1 18 42
M  V30 45 1 18 43
M  V30 46 1 19 44
M  V30 47 1 19 45
M  V30 48 1 19 46
M  V30 49 1 20 47
M  V30 50 1 21 48
M  V30 51 1 25 49
M  V30 52 1 25 50
M  V30 53 1 26 51
M  V30 54 1 26 52
M  V30 55 1 27 53
M  V30 56 1 27 54
M  V30 57 1 28 55
M  V30 58 1 28 56
M  V30 59 1 32 57
M  V30 60 1 32 58
M  V30 61 1 32 59
M  V30 END BOND
M  V30 END CTAB
M  END
>  <Structure No>
7441

>  <LogS>
-2.7

>  <MMFF94 Energy>
86.45

$$$$
Compound 7442
Actelion Java MolfileCreator 2.0

  0  0  0  0  0  0              0 V3000
M  V30 BEGIN CTAB
M  V30 COUNTS 28 29 0 0 0
M  V30 BEGIN ATOM
M  V30 1 S -1.0553 1.6714 -1.4953 0
M  V30 2 O -0.4596 2.8019 -0.703 0
M  V30 3 O -1.8854 2.2307 -2.6158 0
M  V30 4 N 0.2392 0.7432 -2.1755 0 CHG=-1
M  V30 5 C -2.0763 0.6571 -0.4589 0
M  V30 6 C 1.281 0.1898 -1.3724 0
M  V30 7 C -2.9552 1.1989 0.52 0
M  V30 8 C -1.9682 -0.7386 -0.5854 0
M  V30 9 S 2.5504 -0.7316 -1.9789 0
M  V30 10 N 1.3521 0.329 -0.0302 0
M  V30 11 C -3.1992 2.6519 0.6783 0
M  V30 12 C -3.6472 0.3213 1.3754 0
M  V30 13 C -2.6787 -1.5896 0.261 0
M  V30 14 C 3.1672 -0.9193 -0.4221 0
M  V30 15 N 2.4061 -0.2889 0.4989 0
M  V30 16 O -3.1828 3.4247 -0.315 0
M  V30 17 O -3.5142 3.1714 1.9288 0 CHG=-1
M  V30 18 C -3.5089 -1.0607 1.2459 0
M  V30 19 S 4.6221 -1.8139 -0.032 0
M  V30 20 O 4.5135 -3.2099 -0.5769 0
M  V30 21 O 4.7821 -1.8808 1.4607 0
M  V30 22 N 5.9981 -1.0233 -0.7174 0
M  V30 23 H -1.3242 -1.177 -1.3357 0
M  V30 24 H -4.3183 0.7055 2.1343 0
M  V30 25 H -2.5797 -2.6624 0.1566 0
M  V30 26 H -4.0558 -1.7233 1.9045 0
M  V30 27 H 5.9896 -0.0384 -0.369 0
M  V30 28 H 5.843 -0.9792 -1.7495 0
M  V30 END ATOM
M  V30 BEGIN BOND
M  V30 1 2 1 2
M  V30 2 2 1 3
M  V30 3 1 1 4
M  V30 4 1 1 5
M  V30 5 1 4 6
M  V30 6 2 5 7
M  V30 7 1 5 8
M  V30 8 1 6 9
M  V30 9 2 6 10
M  V30 10 1 7 11
M  V30 11 1 7 12
M  V30 12 2 8 13
M  V30 13 1 9 14
M  V30 14 1 10 15
M  V30 15 2 11 16
M  V30 16 1 11 17
M  V30 17 2 12 18
M  V30 18 1 14 19
M  V30 19 2 19 20
M  V30 20 2 19 21
M  V30 21 1 19 22
M  V30 22 1 13 18
M  V30 23 2 14 15
M  V30 24 1 8 23
M  V30 25 1 12 24
M  V30 26 1 13 25
M  V30 27 1 18 26
M  V30 28 1 22 27
M  V30 29 1 22 28
M  V30 END BOND
M  V30 END CTAB
M  END
>  <Structure No>
7442

>  <LogS>
-2.32

>  <MMFF94 Energy>
78.519

$$$$
Compound 7443
Actelion Java MolfileCreator 2.0

  0  0  0  0  0  0              0 V3000
M  V30 BEGIN CTAB
M  V30 COUNTS 33 34 0 0 0
M  V30 BEGIN ATOM
M  V30 1 S -0.1715 -3.2623 -1.4585 0
M  V30 2 O -0.4941 -4.1026 -0.2543 0
M  V30 3 O 0.5545 -4.1068 -2.4668 0
M  V30 4 N -1.6492 -2.6859 -2.1551 0 CHG=-1
M  V30 5 C 0.8507 -1.9013 -1.0092 0
M  V30 6 C -2.5507 -1.818 -1.4659 0
M  V30 7 C 1.5865 -1.9277 0.1825 0
M  V30 8 C 0.9354 -0.7846 -1.8494 0
M  V30 9 S -2.3536 -1.2431 0.1091 0
M  V30 10 N -3.6847 -1.3506 -2.0294 0
M  V30 11 C 2.3873 -0.8387 0.5395 0
M  V30 12 C 1.7368 0.3042 -1.4942 0
M  V30 13 C -3.7945 -0.3808 -0.0141 0
M  V30 14 N -4.3779 -0.5511 -1.2205 0
M  V30 15 C 2.4545 0.2962 -0.2889 0
M  V30 16 S -4.4722 0.6114 1.2613 0
M  V30 17 N 3.2881 1.42 0.0433 0
M  V30 18 O -3.365 1.3363 1.9732 0
M  V30 19 O -5.2114 -0.2601 2.2367 0
M  V30 20 N -5.5606 1.7735 0.5866 0
M  V30 21 C 3.5267 1.8766 1.3836 0
M  V30 22 O 2.8208 1.4596 2.3411 0
M  V30 23 C 4.5601 2.9254 1.6372 0
M  V30 24 H 1.5461 -2.7915 0.8335 0
M  V30 25 H 0.3802 -0.7559 -2.7785 0
M  V30 26 H 2.9711 -0.8969 1.4483 0
M  V30 27 H 1.7906 1.1611 -2.1538 0
M  V30 28 H 3.6801 1.9906 -0.7401 0
M  V30 29 H -6.311 1.2412 0.0918 0
M  V30 30 H -5.0316 2.3012 -0.1434 0
M  V30 31 H 5.4753 2.7014 1.0502 0
M  V30 32 H 4.8267 2.955 2.7153 0
M  V30 33 H 4.1636 3.9164 1.333 0
M  V30 END ATOM
M  V30 BEGIN BOND
M  V30 1 2 1 2
M  V30 2 2 1 3
M  V30 3 1 1 4
M  V30 4 1 1 5
M  V30 5 1 4 6
M  V30 6 2 5 7
M  V30 7 1 5 8
M  V30 8 1 6 9
M  V30 9 2 6 10
M  V30 10 1 7 11
M  V30 11 2 8 12
M  V30 12 1 9 13
M  V30 13 1 10 14
M  V30 14 2 11 15
M  V30 15 1 13 16
M  V30 16 1 15 17
M  V30 17 2 16 18
M  V30 18 2 16 19
M  V30 19 1 16 20
M  V30 20 1 17 21
M  V30 21 2 21 22
M  V30 22 1 21 23
M  V30 23 1 12 15
M  V30 24 2 13 14
M  V30 25 1 7 24
M  V30 26 1 8 25
M  V30 27 1 11 26
M  V30 28 1 12 27
M  V30 29 1 17 28
M  V30 30 1 20 29
M  V30 31 1 20 30
M  V30 32 1 23 31
M  V30 33 1 23 32
M  V30 34 1 23 33
M  V30 END BOND
M  V30 END CTAB
M  END
>  <Structure No>
7443

>  <LogS>
-1.62

>  <MMFF94 Energy>
9.1744

$$$$
Compound 7444
Actelion Java MolfileCreator 2.0

  0  0  0  0  0  0              0 V3000
M  V30 BEGIN CTAB
M  V30 COUNTS 28 29 0 0 0
M  V30 BEGIN ATOM
M  V30 1 S -1.3167 1.5802 -1.1411 0
M  V30 2 O -2.1594 2.8047 -1.3599 0
M  V30 3 O -1.0464 0.9182 -2.4633 0
M  V30 4 N 0.1975 2.061 -0.4518 0 CHG=-1
M  V30 5 C -2.167 0.4726 -0.0529 0
M  V30 6 C 1.2469 1.1274 -0.1998 0
M  V30 7 C -3.1447 -0.4414 -0.5206 0
M  V30 8 C -1.819 0.4707 1.308 0
M  V30 9 S 2.7268 1.5356 0.4868 0
M  V30 10 N 1.1607 -0.1934 -0.4698 0
M  V30 11 N -3.5906 -0.438 -1.8863 0 CHG=1
M  V30 12 C -3.7053 -1.3658 0.379 0
M  V30 13 C -2.399 -0.4423 2.1897 0
M  V30 14 C 3.2175 -0.074 0.4029 0
M  V30 15 N 2.2615 -0.8628 -0.1345 0
M  V30 16 O -3.8873 -1.5119 -2.4492 0
M  V30 17 O -3.9165 0.7465 -2.5048 0 CHG=-1
M  V30 18 C -3.3341 -1.3649 1.7244 0
M  V30 19 S 4.7779 -0.6651 0.9362 0
M  V30 20 O 4.8049 -2.1642 0.8361 0
M  V30 21 O 5.0034 -0.2649 2.3668 0
M  V30 22 N 6.0269 -0.0049 -0.0598 0
M  V30 23 H -1.0879 1.1706 1.6907 0
M  V30 24 H -4.4498 -2.0755 0.0408 0
M  V30 25 H -2.1175 -0.4385 3.2348 0
M  V30 26 H -3.7798 -2.075 2.4092 0
M  V30 27 H 5.9651 1.0347 0.0207 0
M  V30 28 H 5.7882 -0.2452 -1.048 0
M  V30 END ATOM
M  V30 BEGIN BOND
M  V30 1 2 1 2
M  V30 2 2 1 3
M  V30 3 1 1 4
M  V30 4 1 1 5
M  V30 5 1 4 6
M  V30 6 2 5 7
M  V30 7 1 5 8
M  V30 8 1 6 9
M  V30 9 2 6 10
M  V30 10 1 7 11
M  V30 11 1 7 12
M  V30 12 2 8 13
M  V30 13 1 9 14
M  V30 14 1 10 15
M  V30 15 2 11 16
M  V30 16 1 11 17
M  V30 17 2 12 18
M  V30 18 1 14 19
M  V30 19 2 19 20
M  V30 20 2 19 21
M  V30 21 1 19 22
M  V30 22 1 13 18
M  V30 23 2 14 15
M  V30 24 1 8 23
M  V30 25 1 12 24
M  V30 26 1 13 25
M  V30 27 1 18 26
M  V30 28 1 22 27
M  V30 29 1 22 28
M  V30 END BOND
M  V30 END CTAB
M  END
>  <Structure No>
7444

>  <LogS>
-1.82

>  <MMFF94 Energy>
22.113

$$$$
Compound 7445
Actelion Java MolfileCreator 2.0

  0  0  0  0  0  0              0 V3000
M  V30 BEGIN CTAB
M  V30 COUNTS 52 55 0 0 0
M  V30 BEGIN ATOM
M  V30 1 Cl -4.6635 -3.8442 0.0 0
M  V30 2 C -3.3981 -2.8133 -0.6556 0
M  V30 3 C -3.6819 -1.8128 -1.6015 0
M  V30 4 C -2.0804 -3.0136 -0.2281 0
M  V30 5 S -5.3602 -1.5098 -2.1721 0
M  V30 6 C -2.6384 -1.0428 -2.1265 0
M  V30 7 C -1.0334 -2.2227 -0.7283 0
M  V30 8 C -5.6434 -0.2116 -0.9673 0
M  V30 9 C -1.3246 -1.2431 -1.6971 0
M  V30 10 C 0.3456 -2.4806 -0.2465 0
M  V30 11 C -6.2111 -0.5239 0.2839 0
M  V30 12 C -5.3021 1.1256 -1.2804 0
M  V30 13 C 1.3301 -1.571 -0.2912 0
M  V30 14 C -6.4045 0.5175 1.1882 0
M  V30 15 C -5.5118 2.1542 -0.3438 0
M  V30 16 C 2.6956 -1.8637 0.2064 0
M  V30 17 C -6.0668 1.8101 0.8872 0
M  V30 18 C -6.9247 0.514 2.4639 0
M  V30 19 O 2.979 -3.0367 0.5776 0
M  V30 20 N 3.7093 -0.835 0.2643 0
M  V30 21 N -6.3486 2.6282 1.914 0
M  V30 22 C -6.8733 1.8406 2.8809 0
M  V30 23 C 3.3253 0.5862 0.2765 0
M  V30 24 C 5.1144 -1.2101 0.4797 0
M  V30 25 C 4.4862 1.4883 0.708 0
M  V30 26 C 6.0494 -0.259 -0.2761 0
M  V30 27 N 5.7013 1.1527 -0.047 0
M  V30 28 C 6.602 2.1994 -0.4716 0
M  V30 29 O 6.4439 3.3785 -0.0525 0
M  V30 30 C 7.7512 1.9151 -1.392 0
M  V30 31 H -1.8741 -3.7859 0.5035 0
M  V30 32 H -2.8446 -0.2847 -2.8714 0
M  V30 33 H -0.5435 -0.6452 -2.1455 0
M  V30 34 H 0.5405 -3.4454 0.2074 0
M  V30 35 H -6.4899 -1.5378 0.5384 0
M  V30 36 H -4.8722 1.364 -2.2445 0
M  V30 37 H 1.1287 -0.5853 -0.6822 0
M  V30 38 H -5.2503 3.179 -0.5734 0
M  V30 39 H -7.2943 -0.3355 3.0226 0
M  V30 40 H -6.1969 3.6605 1.9604 0
M  V30 41 H -7.2046 2.2072 3.8435 0
M  V30 42 H 2.4803 0.7429 0.9823 0
M  V30 43 H 2.9998 0.8839 -0.7435 0
M  V30 44 H 5.3096 -2.2442 0.1213 0
M  V30 45 H 5.3394 -1.1718 1.5675 0
M  V30 46 H 4.6823 1.3547 1.7939 0
M  V30 47 H 4.1856 2.5449 0.538 0
M  V30 48 H 5.9849 -0.4777 -1.3637 0
M  V30 49 H 7.0896 -0.4516 0.0641 0
M  V30 50 H 7.3977 1.345 -2.2759 0
M  V30 51 H 8.5259 1.3291 -0.8558 0
M  V30 52 H 8.2071 2.8634 -1.748 0
M  V30 END ATOM
M  V30 BEGIN BOND
M  V30 1 1 1 2
M  V30 2 2 2 3
M  V30 3 1 2 4
M  V30 4 1 3 5
M  V30 5 1 3 6
M  V30 6 2 4 7
M  V30 7 1 5 8
M  V30 8 2 6 9
M  V30 9 1 7 10
M  V30 10 2 8 11
M  V30 11 1 8 12
M  V30 12 2 10 13
M  V30 13 1 11 14
M  V30 14 2 12 15
M  V30 15 1 13 16
M  V30 16 2 14 17
M  V30 17 1 14 18
M  V30 18 2 16 19
M  V30 19 1 16 20
M  V30 20 1 17 21
M  V30 21 2 18 22
M  V30 22 1 20 23
M  V30 23 1 20 24
M  V30 24 1 23 25
M  V30 25 1 24 26
M  V30 26 1 25 27
M  V30 27 1 27 28
M  V30 28 2 28 29
M  V30 29 1 28 30
M  V30 30 1 7 9
M  V30 31 1 15 17
M  V30 32 1 21 22
M  V30 33 1 26 27
M  V30 34 1 4 31
M  V30 35 1 6 32
M  V30 36 1 9 33
M  V30 37 1 10 34
M  V30 38 1 11 35
M  V30 39 1 12 36
M  V30 40 1 13 37
M  V30 41 1 15 38
M  V30 42 1 18 39
M  V30 43 1 21 40
M  V30 44 1 22 41
M  V30 45 1 23 42
M  V30 46 1 23 43
M  V30 47 1 24 44
M  V30 48 1 24 45
M  V30 49 1 25 46
M  V30 50 1 25 47
M  V30 51 1 26 48
M  V30 52 1 26 49
M  V30 53 1 30 50
M  V30 54 1 30 51
M  V30 55 1 30 52
M  V30 END BOND
M  V30 END CTAB
M  END
>  <Structure No>
7445

>  <LogS>
-2.74

>  <MMFF94 Energy>
52.307

$$$$
Compound 7446
Actelion Java MolfileCreator 2.0

  0  0  0  0  0  0              0 V3000
M  V30 BEGIN CTAB
M  V30 COUNTS 39 40 0 0 0
M  V30 BEGIN ATOM
M  V30 1 S -0.1679 1.0918 -0.0839 0
M  V30 2 O 0.1788 1.8695 1.1545 0
M  V30 3 O 0.0123 2.006 -1.263 0
M  V30 4 N 0.8909 -0.2725 -0.2337 0
M  V30 5 C -1.8493 0.4903 -0.002 0
M  V30 6 C 2.1851 -0.1902 -0.3175 0
M  V30 7 C -2.4401 0.1549 1.2484 0
M  V30 8 C -2.6076 0.2915 -1.1897 0
M  V30 9 S 3.0898 1.2376 -0.2982 0
M  V30 10 N 2.9894 -1.2745 -0.434 0
M  V30 11 C -3.7913 -0.2227 1.3015 0
M  V30 12 C -1.6713 0.195 2.5443 0
M  V30 13 C -3.9562 -0.0881 -1.0998 0
M  V30 14 C -2.0222 0.4814 -2.5656 0
M  V30 15 C 4.5191 0.3564 -0.4453 0
M  V30 16 N 4.2852 -0.973 -0.5053 0
M  V30 17 C 2.5133 -2.6535 -0.4801 0
M  V30 18 C -4.5578 -0.3167 0.1388 0
M  V30 19 S 6.1186 1.0649 -0.5157 0
M  V30 20 C -5.9903 -0.7584 0.2124 0
M  V30 21 O 6.3005 1.7621 -1.8341 0
M  V30 22 O 7.1519 -0.0177 -0.379 0
M  V30 23 N 6.3058 2.1982 0.776 0
M  V30 24 H -4.2512 -0.4523 2.2559 0
M  V30 25 H -1.5877 1.243 2.8993 0
M  V30 26 H -2.1799 -0.3955 3.3361 0
M  V30 27 H -0.6627 -0.2493 2.4141 0
M  V30 28 H -4.5436 -0.2136 -2.0022 0
M  V30 29 H -1.9801 1.5631 -2.8099 0
M  V30 30 H -2.6383 -0.0214 -3.3413 0
M  V30 31 H -1.0086 0.0333 -2.6242 0
M  V30 32 H 3.369 -3.3551 -0.5775 0
M  V30 33 H 1.8393 -2.7891 -1.3522 0
M  V30 34 H 1.9608 -2.8916 0.4533 0
M  V30 35 H -6.0386 -1.8658 0.1545 0
M  V30 36 H -6.4553 -0.4245 1.1645 0
M  V30 37 H -6.5779 -0.3254 -0.6249 0
M  V30 38 H 6.2076 1.6636 1.6682 0
M  V30 39 H 7.2905 2.5448 0.7387 0
M  V30 END ATOM
M  V30 BEGIN BOND
M  V30 1 2 1 2
M  V30 2 2 1 3
M  V30 3 1 1 4
M  V30 4 1 1 5
M  V30 5 2 4 6
M  V30 6 2 5 7
M  V30 7 1 5 8
M  V30 8 1 6 9
M  V30 9 1 6 10
M  V30 10 1 7 11
M  V30 11 1 7 12
M  V30 12 2 8 13
M  V30 13 1 8 14
M  V30 14 1 9 15
M  V30 15 1 10 16
M  V30 16 1 10 17
M  V30 17 2 11 18
M  V30 18 1 15 19
M  V30 19 1 18 20
M  V30 20 2 19 21
M  V30 21 2 19 22
M  V30 22 1 19 23
M  V30 23 1 13 18
M  V30 24 2 15 16
M  V30 25 1 11 24
M  V30 26 1 12 25
M  V30 27 1 12 26
M  V30 28 1 12 27
M  V30 29 1 13 28
M  V30 30 1 14 29
M  V30 31 1 14 30
M  V30 32 1 14 31
M  V30 33 1 17 32
M  V30 34 1 17 33
M  V30 35 1 17 34
M  V30 36 1 20 35
M  V30 37 1 20 36
M  V30 38 1 20 37
M  V30 39 1 23 38
M  V30 40 1 23 39
M  V30 END BOND
M  V30 END CTAB
M  END
>  <Structure No>
7446

>  <LogS>
-3.0

>  <MMFF94 Energy>
28.373

$$$$
Compound 7447
Actelion Java MolfileCreator 2.0

  0  0  0  0  0  0              0 V3000
M  V30 BEGIN CTAB
M  V30 COUNTS 45 46 0 0 0
M  V30 BEGIN ATOM
M  V30 1 S -1.96 -0.3264 -2.287 0
M  V30 2 O -3.1336 0.5296 -2.6711 0
M  V30 3 O -1.6118 -1.2149 -3.448 0
M  V30 4 N -0.6042 0.6842 -1.9165 0 CHG=-1
M  V30 5 C -2.3868 -1.3101 -0.8868 0
M  V30 6 C 0.6239 0.1645 -1.4044 0
M  V30 7 N -2.2018 -2.6566 -0.9605 0
M  V30 8 C -2.9253 -0.7451 0.2895 0
M  V30 9 O 0.761 -1.0777 -1.2381 0
M  V30 10 N 1.6898 1.0711 -1.0875 0
M  V30 11 C -2.5177 -3.4875 0.0669 0
M  V30 12 C -3.1337 0.7085 0.4361 0
M  V30 13 C -3.2561 -1.5935 1.3547 0
M  V30 14 C 2.9458 0.6813 -0.5122 0
M  V30 15 C -3.0531 -2.9688 1.2448 0
M  V30 16 O -2.1231 1.4568 0.529 0
M  V30 17 N -4.4587 1.2779 0.4809 0
M  V30 18 N 3.1977 -0.6165 -0.1909 0
M  V30 19 N 3.8959 1.6255 -0.2779 0
M  V30 20 C -4.6131 2.7083 0.7622 0
M  V30 21 C -5.635 0.4507 0.19 0
M  V30 22 C 4.3841 -0.9918 0.3595 0
M  V30 23 C 5.0981 1.2977 0.2704 0
M  V30 24 O 4.6316 -2.3281 0.6858 0
M  V30 25 C 5.3653 -0.0307 0.6016 0
M  V30 26 O 6.0692 2.275 0.5069 0
M  V30 27 C 3.6774 -3.361 0.4693 0
M  V30 28 C 5.8697 3.6488 0.1962 0
M  V30 29 H 1.5364 2.0863 -1.2818 0
M  V30 30 H -2.3537 -4.5521 -0.0323 0
M  V30 31 H -3.6646 -1.1883 2.2726 0
M  V30 32 H -3.3062 -3.6262 2.0664 0
M  V30 33 H -4.1674 2.9444 1.7515 0
M  V30 34 H -4.0977 3.302 -0.0219 0
M  V30 35 H -5.6809 3.0112 0.7846 0
M  V30 36 H -5.7632 -0.3147 0.9828 0
M  V30 37 H -5.5074 -0.0524 -0.7915 0
M  V30 38 H -6.5631 1.0581 0.1444 0
M  V30 39 H 6.3156 -0.31 1.0388 0
M  V30 40 H 2.7532 -3.1527 1.0491 0
M  V30 41 H 4.1035 -4.3278 0.807 0
M  V30 42 H 3.4335 -3.4329 -0.6117 0
M  V30 43 H 5.6874 3.7699 -0.8926 0
M  V30 44 H 5.0047 4.0465 0.7684 0
M  V30 45 H 6.7782 4.2212 0.4743 0
M  V30 END ATOM
M  V30 BEGIN BOND
M  V30 1 2 1 2
M  V30 2 2 1 3
M  V30 3 1 1 4
M  V30 4 1 1 5
M  V30 5 1 4 6
M  V30 6 2 5 7
M  V30 7 1 5 8
M  V30 8 2 6 9
M  V30 9 1 6 10
M  V30 10 1 7 11
M  V30 11 1 8 12
M  V30 12 2 8 13
M  V30 13 1 10 14
M  V30 14 2 11 15
M  V30 15 2 12 16
M  V30 16 1 12 17
M  V30 17 2 14 18
M  V30 18 1 14 19
M  V30 19 1 17 20
M  V30 20 1 17 21
M  V30 21 1 18 22
M  V30 22 2 19 23
M  V30 23 1 22 24
M  V30 24 2 22 25
M  V30 25 1 23 26
M  V30 26 1 24 27
M  V30 27 1 26 28
M  V30 28 1 13 15
M  V30 29 1 23 25
M  V30 30 1 10 29
M  V30 31 1 11 30
M  V30 32 1 13 31
M  V30 33 1 15 32
M  V30 34 1 20 33
M  V30 35 1 20 34
M  V30 36 1 20 35
M  V30 37 1 21 36
M  V30 38 1 21 37
M  V30 39 1 21 38
M  V30 40 1 25 39
M  V30 41 1 27 40
M  V30 42 1 27 41
M  V30 43 1 27 42
M  V30 44 1 28 43
M  V30 45 1 28 44
M  V30 46 1 28 45
M  V30 END BOND
M  V30 END CTAB
M  END
>  <Structure No>
7447

>  <LogS>
-3.97

>  <MMFF94 Energy>
-60.771

$$$$
Compound 7448
Actelion Java MolfileCreator 2.0

  0  0  0  0  0  0              0 V3000
M  V30 BEGIN CTAB
M  V30 COUNTS 56 58 0 0 0
M  V30 BEGIN ATOM
M  V30 1 S 0.0805 1.2084 -1.3696 0
M  V30 2 C -1.0735 0.3189 -2.4192 0
M  V30 3 C 0.9806 -0.2782 -0.7928 0 CFG=1
M  V30 4 C -2.0959 -0.4829 -1.8707 0
M  V30 5 C -0.9693 0.472 -3.807 0
M  V30 6 C 2.4082 0.1155 -0.4682 0
M  V30 7 C 0.2714 -0.8775 0.4414 0 CFG=2
M  V30 8 N -2.1278 -0.7598 -0.4551 0
M  V30 9 C -3.012 -1.1073 -2.7393 0
M  V30 10 C -1.8873 -0.1493 -4.6554 0
M  V30 11 C 3.4794 -0.4951 -1.1414 0
M  V30 12 C 2.6856 1.0798 0.5183 0
M  V30 13 O 1.1355 -1.8283 1.0719 0
M  V30 14 C -1.0339 -1.5344 0.059 0
M  V30 15 C -3.402 -0.8363 0.2808 0
M  V30 16 C -2.911 -0.9329 -4.1217 0
M  V30 17 C 4.7984 -0.1483 -0.836 0
M  V30 18 C 4.0053 1.4251 0.8227 0
M  V30 19 C 0.961 -2.2752 2.3864 0
M  V30 20 O -1.1715 -2.7818 0.1871 0
M  V30 21 C -4.3027 0.4104 0.0816 0
M  V30 22 C 5.0743 0.8104 0.1447 0
M  V30 23 O 0.0068 -1.849 3.0926 0
M  V30 24 C 1.9247 -3.2608 2.9538 0
M  V30 25 N -3.9824 1.5753 0.9444 0 CHG=1
M  V30 26 O 6.4152 1.1219 0.4144 0
M  V30 27 C -4.1707 1.2987 2.3809 0
M  V30 28 C -2.642 2.1218 0.6855 0
M  V30 29 C 6.8399 2.0731 1.3853 0
M  V30 30 H 0.9913 -1.0401 -1.6052 0
M  V30 31 H -0.1851 1.0874 -4.2296 0
M  V30 32 H 0.055 -0.0583 1.1617 0
M  V30 33 H -3.7899 -1.7516 -2.3538 0
M  V30 34 H -1.8064 -0.0214 -5.7271 0
M  V30 35 H 3.2969 -1.2436 -1.9025 0
M  V30 36 H 1.8793 1.5659 1.0533 0
M  V30 37 H -3.9583 -1.7355 -0.0597 0
M  V30 38 H -3.2081 -1.0042 1.3593 0
M  V30 39 H -3.6185 -1.4191 -4.781 0
M  V30 40 H 5.6122 -0.629 -1.364 0
M  V30 41 H 4.1828 2.1699 1.5864 0
M  V30 42 H -4.296 0.7236 -0.9848 0
M  V30 43 H -5.3535 0.0995 0.2791 0
M  V30 44 H 2.94 -2.8129 2.9762 0
M  V30 45 H 1.941 -4.1701 2.3176 0
M  V30 46 H 1.6314 -3.547 3.9863 0
M  V30 47 H -4.6678 2.3271 0.6911 0
M  V30 48 H -4.2023 2.2538 2.9506 0
M  V30 49 H -5.1331 0.7716 2.5604 0
M  V30 50 H -3.3395 0.6898 2.7967 0
M  V30 51 H -2.5096 2.3251 -0.399 0
M  V30 52 H -1.8504 1.4257 1.0317 0
M  V30 53 H -2.5101 3.0861 1.224 0
M  V30 54 H 6.4437 3.0795 1.1328 0
M  V30 55 H 6.4936 1.7682 2.3955 0
M  V30 56 H 7.9481 2.1181 1.3882 0
M  V30 END ATOM
M  V30 BEGIN BOND
M  V30 1 1 1 2
M  V30 2 1 1 3
M  V30 3 2 2 4
M  V30 4 1 2 5
M  V30 5 1 3 6
M  V30 6 1 3 7
M  V30 7 1 4 8
M  V30 8 1 4 9
M  V30 9 2 5 10
M  V30 10 2 6 11
M  V30 11 1 6 12
M  V30 12 1 7 13
M  V30 13 1 7 14
M  V30 14 1 8 15
M  V30 15 2 9 16
M  V30 16 1 11 17
M  V30 17 2 12 18
M  V30 18 1 13 19
M  V30 19 2 14 20
M  V30 20 1 15 21
M  V30 21 2 17 22
M  V30 22 2 19 23
M  V30 23 1 19 24
M  V30 24 1 21 25
M  V30 25 1 22 26
M  V30 26 1 25 27
M  V30 27 1 25 28
M  V30 28 1 26 29
M  V30 29 1 8 14
M  V30 30 1 10 16
M  V30 31 1 18 22
M  V30 32 1 3 30
M  V30 33 1 5 31
M  V30 34 1 7 32
M  V30 35 1 9 33
M  V30 36 1 10 34
M  V30 37 1 11 35
M  V30 38 1 12 36
M  V30 39 1 15 37
M  V30 40 1 15 38
M  V30 41 1 16 39
M  V30 42 1 17 40
M  V30 43 1 18 41
M  V30 44 1 21 42
M  V30 45 1 21 43
M  V30 46 1 24 44
M  V30 47 1 24 45
M  V30 48 1 24 46
M  V30 49 1 25 47
M  V30 50 1 27 48
M  V30 51 1 27 49
M  V30 52 1 27 50
M  V30 53 1 28 51
M  V30 54 1 28 52
M  V30 55 1 28 53
M  V30 56 1 29 54
M  V30 57 1 29 55
M  V30 58 1 29 56
M  V30 END BOND
M  V30 BEGIN COLLECTION
M  V30 MDLV30/STEABS ATOMS=(2 3 7)
M  V30 END COLLECTION
M  V30 END CTAB
M  END
>  <Structure No>
7448

>  <LogS>
-2.95

>  <MMFF94 Energy>
90.363

$$$$
Compound 7449
Actelion Java MolfileCreator 2.0

  0  0  0  0  0  0              0 V3000
M  V30 BEGIN CTAB
M  V30 COUNTS 38 39 0 0 0
M  V30 BEGIN ATOM
M  V30 1 S 2.6778 1.1709 -1.673 0
M  V30 2 O 3.8347 1.7934 -2.4017 0
M  V30 3 O 2.6075 1.7339 -0.281 0
M  V30 4 N 1.2179 1.576 -2.516 0 CHG=-1
M  V30 5 C 2.9013 -0.579 -1.6224 0
M  V30 6 C -0.106 1.3239 -2.0307 0
M  V30 7 C 3.9032 -1.2442 -0.9022 0
M  V30 8 C 2.0458 -1.4542 -2.3119 0
M  V30 9 O -1.081 1.7334 -2.7144 0
M  V30 10 N -0.3282 0.6048 -0.8027 0
M  V30 11 S 3.688 -2.8986 -1.1291 0
M  V30 12 C 4.9902 -0.668 -0.0887 0
M  V30 13 C 2.3501 -2.7954 -2.1357 0
M  V30 14 C -1.6207 0.3745 -0.2209 0
M  V30 15 O 5.7349 -1.4373 0.5781 0
M  V30 16 O 5.2106 0.711 -0.0654 0
M  V30 17 N -1.7199 -0.3737 0.9085 0
M  V30 18 N -2.7455 0.8988 -0.7759 0
M  V30 19 C 6.2439 1.312 0.705 0
M  V30 20 C -2.9294 -0.6018 1.479 0
M  V30 21 C -3.959 0.6761 -0.2124 0
M  V30 22 O -3.0062 -1.3758 2.6396 0
M  V30 23 N -4.0488 -0.0753 0.9161 0
M  V30 24 O -5.1008 1.2242 -0.8022 0
M  V30 25 C -4.2366 -1.6576 3.296 0
M  V30 26 C -6.4072 1.0341 -0.2714 0
M  V30 27 H 1.2183 -1.1246 -2.925 0
M  V30 28 H 0.4887 0.198 -0.2986 0
M  V30 29 H 1.8165 -3.6279 -2.5734 0
M  V30 30 H 6.0927 1.0901 1.7824 0
M  V30 31 H 6.2157 2.411 0.5568 0
M  V30 32 H 7.2337 0.93 0.3773 0
M  V30 33 H -4.7192 -0.7119 3.6222 0
M  V30 34 H -4.9156 -2.2087 2.6113 0
M  V30 35 H -4.0384 -2.2862 4.1882 0
M  V30 36 H -6.4636 1.4475 0.7579 0
M  V30 37 H -7.1417 1.5638 -0.9121 0
M  V30 38 H -6.6576 -0.0477 -0.2557 0
M  V30 END ATOM
M  V30 BEGIN BOND
M  V30 1 2 1 2
M  V30 2 2 1 3
M  V30 3 1 1 4
M  V30 4 1 1 5
M  V30 5 1 4 6
M  V30 6 2 5 7
M  V30 7 1 5 8
M  V30 8 2 6 9
M  V30 9 1 6 10
M  V30 10 1 7 11
M  V30 11 1 7 12
M  V30 12 2 8 13
M  V30 13 1 10 14
M  V30 14 2 12 15
M  V30 15 1 12 16
M  V30 16 2 14 17
M  V30 17 1 14 18
M  V30 18 1 16 19
M  V30 19 1 17 20
M  V30 20 2 18 21
M  V30 21 1 20 22
M  V30 22 2 20 23
M  V30 23 1 21 24
M  V30 24 1 22 25
M  V30 25 1 24 26
M  V30 26 1 11 13
M  V30 27 1 21 23
M  V30 28 1 8 27
M  V30 29 1 10 28
M  V30 30 1 13 29
M  V30 31 1 19 30
M  V30 32 1 19 31
M  V30 33 1 19 32
M  V30 34 1 25 33
M  V30 35 1 25 34
M  V30 36 1 25 35
M  V30 37 1 26 36
M  V30 38 1 26 37
M  V30 39 1 26 38
M  V30 END BOND
M  V30 END CTAB
M  END
>  <Structure No>
7449

>  <LogS>
-3.19

>  <MMFF94 Energy>
-204.42

$$$$
Compound 7450
Actelion Java MolfileCreator 2.0

  0  0  0  0  0  0              0 V3000
M  V30 BEGIN CTAB
M  V30 COUNTS 48 51 0 0 0
M  V30 BEGIN ATOM
M  V30 1 Cl 5.4612 0.244 -1.3835 0
M  V30 2 C 4.7754 1.0304 0.0355 0
M  V30 3 C 3.552 0.6145 0.6118 0
M  V30 4 C 5.4429 2.1484 0.5526 0
M  V30 5 C 2.7999 -0.558 0.1188 0
M  V30 6 C 3.0073 1.3588 1.6724 0
M  V30 7 C 4.9016 2.8625 1.6236 0
M  V30 8 O 1.5006 -0.4273 -0.1249 0
M  V30 9 C 3.418 -1.8004 -0.0546 0
M  V30 10 C 3.6824 2.472 2.1787 0
M  V30 11 C 0.7258 -1.4216 -0.5547 0
M  V30 12 C 2.6609 -2.8814 -0.5015 0
M  V30 13 C 1.2845 -2.7092 -0.7623 0
M  V30 14 C -0.6492 -1.1826 -0.7939 0
M  V30 15 O 3.2258 -3.9979 -0.6559 0
M  V30 16 C 0.4539 -3.7623 -1.2005 0
M  V30 17 C -1.4623 -2.2677 -1.1955 0
M  V30 18 C -1.2328 0.2124 -0.5378 0 CFG=2
M  V30 19 O 0.9697 -5.0396 -1.4245 0
M  V30 20 C -0.908 -3.5298 -1.4069 0
M  V30 21 O -2.8309 -2.1138 -1.3816 0 CHG=-1
M  V30 22 C -1.8738 0.3239 0.8667 0 CFG=2
M  V30 23 C -2.1515 0.7395 -1.6737 0
M  V30 24 O -2.7991 -0.7072 1.106 0
M  V30 25 C -2.5782 1.6847 1.0123 0
M  V30 26 C -3.5805 1.0236 -1.1904 0
M  V30 27 N -3.6002 1.9633 -0.0426 0 CHG=1 CFG=1
M  V30 28 C -4.9551 2.0087 0.5362 0
M  V30 29 H 6.3774 2.4746 0.1139 0
M  V30 30 H 2.0634 1.068 2.1186 0
M  V30 31 H 5.4221 3.7266 2.0159 0
M  V30 32 H 4.4681 -1.933 0.1769 0
M  V30 33 H 3.2593 3.0324 3.0025 0
M  V30 34 H -0.3871 0.9355 -0.5242 0
M  V30 35 H 0.3832 -5.8049 -1.7369 0
M  V30 36 H -1.5486 -4.3424 -1.7266 0
M  V30 37 H -1.0607 0.2838 1.6318 0
M  V30 38 H -2.1817 0.043 -2.5382 0
M  V30 39 H -1.7354 1.6924 -2.0714 0
M  V30 40 H -2.2961 -1.4664 1.5015 0
M  V30 41 H -1.7936 2.4754 0.9792 0
M  V30 42 H -3.0091 1.7454 2.0383 0
M  V30 43 H -4.1544 1.4588 -2.0398 0
M  V30 44 H -4.0816 0.0663 -0.9293 0
M  V30 45 H -3.4083 2.9205 -0.4258 0
M  V30 46 H -5.0204 2.8076 1.3076 0
M  V30 47 H -5.7091 2.2431 -0.2475 0
M  V30 48 H -5.2178 1.0349 1.0064 0
M  V30 END ATOM
M  V30 BEGIN BOND
M  V30 1 1 1 2
M  V30 2 2 2 3
M  V30 3 1 2 4
M  V30 4 1 3 5
M  V30 5 1 3 6
M  V30 6 2 4 7
M  V30 7 1 5 8
M  V30 8 2 5 9
M  V30 9 2 6 10
M  V30 10 1 8 11
M  V30 11 1 9 12
M  V30 12 2 11 13
M  V30 13 1 11 14
M  V30 14 2 12 15
M  V30 15 1 13 16
M  V30 16 2 14 17
M  V30 17 1 14 18
M  V30 18 1 16 19
M  V30 19 2 16 20
M  V30 20 1 17 21
M  V30 21 1 18 22
M  V30 22 1 18 23
M  V30 23 1 22 24
M  V30 24 1 22 25
M  V30 25 1 23 26
M  V30 26 1 25 27
M  V30 27 1 27 28
M  V30 28 1 7 10
M  V30 29 1 12 13
M  V30 30 1 17 20
M  V30 31 1 26 27
M  V30 32 1 4 29
M  V30 33 1 6 30
M  V30 34 1 7 31
M  V30 35 1 9 32
M  V30 36 1 10 33
M  V30 37 1 18 34
M  V30 38 1 19 35
M  V30 39 1 20 36
M  V30 40 1 22 37
M  V30 41 1 23 38
M  V30 42 1 23 39
M  V30 43 1 24 40
M  V30 44 1 25 41
M  V30 45 1 25 42
M  V30 46 1 26 43
M  V30 47 1 26 44
M  V30 48 1 27 45
M  V30 49 1 28 46
M  V30 50 1 28 47
M  V30 51 1 28 48
M  V30 END BOND
M  V30 BEGIN COLLECTION
M  V30 MDLV30/STEABS ATOMS=(3 18 22 27)
M  V30 END COLLECTION
M  V30 END CTAB
M  END
>  <Structure No>
7450

>  <LogS>
-4.26

>  <MMFF94 Energy>
8.7793

$$$$
Compound 7451
Actelion Java MolfileCreator 2.0

  0  0  0  0  0  0              0 V3000
M  V30 BEGIN CTAB
M  V30 COUNTS 42 45 0 0 0
M  V30 BEGIN ATOM
M  V30 1 F -2.83 0.3231 -0.9696 0
M  V30 2 C -2.2353 -0.8915 -1.0753 0
M  V30 3 C -0.9514 -1.1374 -0.5224 0
M  V30 4 C -2.9426 -1.9125 -1.7179 0
M  V30 5 C -0.49 -2.4753 -0.5162 0
M  V30 6 C -0.1953 -0.0471 0.2738 0 CFG=2
M  V30 7 C -2.422 -3.2037 -1.7736 0
M  V30 8 C -1.2049 -3.488 -1.1591 0
M  V30 9 N -0.7833 -0.096 1.6366 0
M  V30 10 C -0.3212 1.3566 -0.3518 0
M  V30 11 C 1.3302 -0.2811 0.314 0
M  V30 12 C -1.9144 0.5148 2.0645 0
M  V30 13 C -0.5197 -1.0159 2.5887 0
M  V30 14 C -0.1972 2.5146 0.4484 0
M  V30 15 C -0.3386 1.5252 -1.7557 0
M  V30 16 C 2.1006 0.1412 1.4213 0
M  V30 17 C 2.0215 -0.7214 -0.8383 0
M  V30 18 N -2.3336 0.0697 3.2667 0
M  V30 19 C -1.4477 -0.8885 3.5937 0
M  V30 20 C -0.211 3.7886 -0.1256 0
M  V30 21 C -0.3524 2.8015 -2.3247 0
M  V30 22 C 3.4924 0.016 1.4166 0
M  V30 23 C 3.4133 -0.8448 -0.8373 0
M  V30 24 C -0.3005 3.9326 -1.5102 0
M  V30 25 C 4.1472 -0.4876 0.2931 0
M  V30 26 F -0.3069 5.1696 -2.065 0
M  V30 27 H -3.9108 -1.7058 -2.1556 0
M  V30 28 H 0.422 -2.7479 -0.0027 0
M  V30 29 H -2.9775 -3.9913 -2.2659 0
M  V30 30 H -0.8215 -4.5001 -1.1646 0
M  V30 31 H -2.4579 1.2563 1.4945 0
M  V30 32 H 0.2658 -1.7587 2.5391 0
M  V30 33 H -0.0743 2.4375 1.5204 0
M  V30 34 H -0.3381 0.6693 -2.4173 0
M  V30 35 H 1.6322 0.5859 2.2889 0
M  V30 36 H 1.4851 -0.9673 -1.7451 0
M  V30 37 H -1.4993 -1.4853 4.4942 0
M  V30 38 H -0.1349 4.6649 0.5051 0
M  V30 39 H -0.3885 2.9113 -3.4009 0
M  V30 40 H 4.0655 0.3268 2.2805 0
M  V30 41 H 3.9242 -1.2044 -1.7209 0
M  V30 42 H 5.2256 -0.5783 0.2899 0
M  V30 END ATOM
M  V30 BEGIN BOND
M  V30 1 1 1 2
M  V30 2 2 2 3
M  V30 3 1 2 4
M  V30 4 1 3 5
M  V30 5 1 3 6
M  V30 6 2 4 7
M  V30 7 2 5 8
M  V30 8 1 6 9
M  V30 9 1 6 10
M  V30 10 1 6 11
M  V30 11 1 9 12
M  V30 12 1 9 13
M  V30 13 2 10 14
M  V30 14 1 10 15
M  V30 15 2 11 16
M  V30 16 1 11 17
M  V30 17 2 12 18
M  V30 18 2 13 19
M  V30 19 1 14 20
M  V30 20 2 15 21
M  V30 21 1 16 22
M  V30 22 2 17 23
M  V30 23 2 20 24
M  V30 24 2 22 25
M  V30 25 1 24 26
M  V30 26 1 7 8
M  V30 27 1 18 19
M  V30 28 1 21 24
M  V30 29 1 23 25
M  V30 30 1 4 27
M  V30 31 1 5 28
M  V30 32 1 7 29
M  V30 33 1 8 30
M  V30 34 1 12 31
M  V30 35 1 13 32
M  V30 36 1 14 33
M  V30 37 1 15 34
M  V30 38 1 16 35
M  V30 39 1 17 36
M  V30 40 1 19 37
M  V30 41 1 20 38
M  V30 42 1 21 39
M  V30 43 1 22 40
M  V30 44 1 23 41
M  V30 45 1 25 42
M  V30 END BOND
M  V30 BEGIN COLLECTION
M  V30 MDLV30/STEABS ATOMS=(1 6)
M  V30 END COLLECTION
M  V30 END CTAB
M  END
>  <Structure No>
7451

>  <LogS>
-8.4

>  <MMFF94 Energy>
125.79

$$$$
Compound 7452
Actelion Java MolfileCreator 2.0

  0  0  0  0  0  0              0 V3000
M  V30 BEGIN CTAB
M  V30 COUNTS 32 34 0 0 0
M  V30 BEGIN ATOM
M  V30 1 S 2.1135 -2.1981 -2.0289 0
M  V30 2 O 3.5143 -1.6939 -2.2342 0
M  V30 3 O 2.0944 -3.6997 -1.9794 0
M  V30 4 N 1.457 -1.5479 -0.5576 0
M  V30 5 C 1.0984 -1.6334 -3.3099 0
M  V30 6 C 0.2203 -0.7776 -0.5473 0
M  V30 7 C 2.2314 -1.7466 0.67 0
M  V30 8 C -0.0097 -0.8688 -3.0275 0
M  V30 9 C 1.2977 -1.8879 -4.6706 0
M  V30 10 C -0.4581 -0.4656 -1.6824 0
M  V30 11 C -0.3309 -0.3116 0.7479 0
M  V30 12 S -0.7698 -0.4973 -4.4818 0
M  V30 13 C 0.3221 -1.3114 -5.4753 0
M  V30 14 O -1.6483 0.2542 -1.5999 0 CHG=-1
M  V30 15 O -0.5487 -1.1515 1.6619 0
M  V30 16 N -0.5971 1.0863 0.9584 0
M  V30 17 C -1.2466 1.6222 2.1246 0
M  V30 18 N -1.7325 0.798 3.0961 0
M  V30 19 C -1.3959 3.0102 2.2644 0
M  V30 20 C -2.3564 1.2786 4.2049 0
M  V30 21 C -2.0336 3.5236 3.3959 0
M  V30 22 C -2.5179 2.6548 4.3748 0
M  V30 23 H 1.6701 -2.398 1.3708 0
M  V30 24 H 2.4406 -0.7669 1.1496 0
M  V30 25 H 3.2031 -2.2391 0.4545 0
M  V30 26 H 2.122 -2.472 -5.058 0
M  V30 27 H 0.2734 -1.377 -6.5537 0
M  V30 28 H -0.2842 1.7557 0.2188 0
M  V30 29 H -1.0217 3.6858 1.5056 0
M  V30 30 H -2.7274 0.5917 4.9539 0
M  V30 31 H -2.1526 4.593 3.5133 0
M  V30 32 H -3.0137 3.0434 5.2551 0
M  V30 END ATOM
M  V30 BEGIN BOND
M  V30 1 2 1 2
M  V30 2 2 1 3
M  V30 3 1 1 4
M  V30 4 1 1 5
M  V30 5 1 4 6
M  V30 6 1 4 7
M  V30 7 2 5 8
M  V30 8 1 5 9
M  V30 9 2 6 10
M  V30 10 1 6 11
M  V30 11 1 8 12
M  V30 12 2 9 13
M  V30 13 1 10 14
M  V30 14 2 11 15
M  V30 15 1 11 16
M  V30 16 1 16 17
M  V30 17 2 17 18
M  V30 18 1 17 19
M  V30 19 1 18 20
M  V30 20 2 19 21
M  V30 21 2 20 22
M  V30 22 1 8 10
M  V30 23 1 12 13
M  V30 24 1 21 22
M  V30 25 1 7 23
M  V30 26 1 7 24
M  V30 27 1 7 25
M  V30 28 1 9 26
M  V30 29 1 13 27
M  V30 30 1 16 28
M  V30 31 1 19 29
M  V30 32 1 20 30
M  V30 33 1 21 31
M  V30 34 1 22 32
M  V30 END BOND
M  V30 END CTAB
M  END
>  <Structure No>
7452

>  <LogS>
-3.88

>  <MMFF94 Energy>
-12.605

$$$$
Compound 7453
Actelion Java MolfileCreator 2.0

  0  0  0  0  0  0              0 V3000
M  V30 BEGIN CTAB
M  V30 COUNTS 35 36 0 0 0
M  V30 BEGIN ATOM
M  V30 1 S 1.4499 -1.8766 -3.2431 0
M  V30 2 O 0.801 -2.4207 -4.4836 0
M  V30 3 O 2.3549 -2.9264 -2.6611 0
M  V30 4 N 2.3952 -0.4853 -3.656 0 CHG=-1
M  V30 5 C 0.1972 -1.4294 -2.0894 0
M  V30 6 C 3.1044 0.2908 -2.6884 0
M  V30 7 C -0.4863 -0.2163 -2.237 0
M  V30 8 C -0.1243 -2.2793 -1.0233 0
M  V30 9 S 3.158 -0.0153 -1.029 0
M  V30 10 N 3.8198 1.3872 -3.0171 0
M  V30 11 C -1.4714 0.1526 -1.3167 0
M  V30 12 C -1.1088 -1.9107 -0.1015 0
M  V30 13 C 4.1402 1.3329 -0.8017 0
M  V30 14 N 4.3966 1.9678 -1.9663 0
M  V30 15 C -1.7775 -0.6798 -0.2299 0
M  V30 16 S 4.7521 1.8634 0.7505 0
M  V30 17 N -2.8077 -0.2849 0.6923 0
M  V30 18 O 5.6184 3.0765 0.5599 0
M  V30 19 O 5.5688 0.7648 1.37 0
M  V30 20 N 3.4271 2.2647 1.7845 0 CHG=-1
M  V30 21 C -2.7978 -0.5997 2.0936 0
M  V30 22 O -1.7571 -1.0508 2.644 0
M  V30 23 C -4.0028 -0.3015 2.9366 0
M  V30 24 N -3.9688 1.0793 3.4151 0 CHG=1
M  V30 25 H -0.2551 0.4446 -3.0626 0
M  V30 26 H 0.3808 -3.2295 -0.9071 0
M  V30 27 H -1.9898 1.095 -1.4433 0
M  V30 28 H -1.362 -2.599 0.6936 0
M  V30 29 H -3.5668 0.3424 0.3412 0
M  V30 30 H 3.8335 2.5781 2.6944 0
M  V30 31 H -4.0325 -0.9971 3.8044 0
M  V30 32 H -4.9249 -0.4677 2.3373 0
M  V30 33 H -3.1146 1.2359 3.9985 0
M  V30 34 H -4.8164 1.2595 4.0004 0
M  V30 35 H -3.9696 1.7408 2.6047 0
M  V30 END ATOM
M  V30 BEGIN BOND
M  V30 1 2 1 2
M  V30 2 2 1 3
M  V30 3 1 1 4
M  V30 4 1 1 5
M  V30 5 1 4 6
M  V30 6 2 5 7
M  V30 7 1 5 8
M  V30 8 1 6 9
M  V30 9 2 6 10
M  V30 10 1 7 11
M  V30 11 2 8 12
M  V30 12 1 9 13
M  V30 13 1 10 14
M  V30 14 2 11 15
M  V30 15 1 13 16
M  V30 16 1 15 17
M  V30 17 2 16 18
M  V30 18 2 16 19
M  V30 19 1 16 20
M  V30 20 1 17 21
M  V30 21 2 21 22
M  V30 22 1 21 23
M  V30 23 1 23 24
M  V30 24 1 12 15
M  V30 25 2 13 14
M  V30 26 1 7 25
M  V30 27 1 8 26
M  V30 28 1 11 27
M  V30 29 1 12 28
M  V30 30 1 17 29
M  V30 31 1 20 30
M  V30 32 1 23 31
M  V30 33 1 23 32
M  V30 34 1 24 33
M  V30 35 1 24 34
M  V30 36 1 24 35
M  V30 END BOND
M  V30 END CTAB
M  END
>  <Structure No>
7453

>  <LogS>
-1.19

>  <MMFF94 Energy>
18.036

$$$$
Compound 7454
Actelion Java MolfileCreator 2.0

  0  0  0  0  0  0              0 V3000
M  V30 BEGIN CTAB
M  V30 COUNTS 32 33 0 0 0
M  V30 BEGIN ATOM
M  V30 1 S -0.7737 -0.7737 1.1178 0
M  V30 2 O -0.9727 -2.254 0.9533 0
M  V30 3 O -0.3374 -0.4635 2.5218 0
M  V30 4 N 0.3694 -0.1656 -0.0396 0
M  V30 5 C -2.3107 0.0322 0.8203 0
M  V30 6 C 1.6308 -0.4282 -0.2494 0
M  V30 7 C -3.2327 -0.5167 -0.0795 0
M  V30 8 C -2.6072 1.2431 1.4587 0
M  V30 9 S 2.4834 0.3441 -1.4788 0
M  V30 10 N 2.4386 -1.3041 0.4269 0
M  V30 11 C -4.447 0.1299 -0.328 0
M  V30 12 C -3.8207 1.8918 1.212 0
M  V30 13 C 3.8835 -0.4927 -1.0891 0
M  V30 14 N 3.685 -1.328 -0.0493 0
M  V30 15 C 2.0954 -2.1638 1.555 0
M  V30 16 C -4.7556 1.3409 0.3162 0
M  V30 17 S 5.4196 -0.3055 -1.9097 0
M  V30 18 N -6.0064 2.005 0.0584 0 CHG=1
M  V30 19 O 5.229 -0.5171 -3.385 0
M  V30 20 O 6.3913 -1.3266 -1.3891 0
M  V30 21 N 6.0486 1.2786 -1.6221 0
M  V30 22 O -6.2854 3.0811 0.627 0
M  V30 23 O -6.9177 1.4636 -0.8192 0 CHG=-1
M  V30 24 H -3.012 -1.4442 -0.5922 0
M  V30 25 H -1.8989 1.6884 2.1458 0
M  V30 26 H -5.1428 -0.3169 -1.0261 0
M  V30 27 H -4.0267 2.8253 1.72 0
M  V30 28 H 2.9843 -2.7533 1.8669 0
M  V30 29 H 1.3206 -2.8955 1.2622 0
M  V30 30 H 1.7996 -1.5553 2.4291 0
M  V30 31 H 5.3396 1.9586 -1.9774 0
M  V30 32 H 6.0947 1.4054 -0.5861 0
M  V30 END ATOM
M  V30 BEGIN BOND
M  V30 1 2 1 2
M  V30 2 2 1 3
M  V30 3 1 1 4
M  V30 4 1 1 5
M  V30 5 2 4 6
M  V30 6 2 5 7
M  V30 7 1 5 8
M  V30 8 1 6 9
M  V30 9 1 6 10
M  V30 10 1 7 11
M  V30 11 2 8 12
M  V30 12 1 9 13
M  V30 13 1 10 14
M  V30 14 1 10 15
M  V30 15 2 11 16
M  V30 16 1 13 17
M  V30 17 1 16 18
M  V30 18 2 17 19
M  V30 19 2 17 20
M  V30 20 1 17 21
M  V30 21 2 18 22
M  V30 22 1 18 23
M  V30 23 1 12 16
M  V30 24 2 13 14
M  V30 25 1 7 24
M  V30 26 1 8 25
M  V30 27 1 11 26
M  V30 28 1 12 27
M  V30 29 1 15 28
M  V30 30 1 15 29
M  V30 31 1 15 30
M  V30 32 1 21 31
M  V30 33 1 21 32
M  V30 END BOND
M  V30 END CTAB
M  END
>  <Structure No>
7454

>  <LogS>
-2.7

>  <MMFF94 Energy>
55.706

$$$$
Compound 7455
Actelion Java MolfileCreator 2.0

  0  0  0  0  0  0              0 V3000
M  V30 BEGIN CTAB
M  V30 COUNTS 32 33 0 0 0
M  V30 BEGIN ATOM
M  V30 1 S -0.9457 -1.0317 -0.7737 0
M  V30 2 O -0.826 -1.249 -2.2558 0
M  V30 3 O -0.8578 -2.3456 -0.0499 0
M  V30 4 N 0.2655 0.0765 -0.2073 0
M  V30 5 C -2.5193 -0.3164 -0.4362 0
M  V30 6 C 1.57 0.0279 -0.2092 0
M  V30 7 C -3.1188 -0.4972 0.8187 0
M  V30 8 C -3.1646 0.4605 -1.4068 0
M  V30 9 S 2.4846 1.2902 0.4272 0
M  V30 10 N 2.381 -0.968 -0.6864 0
M  V30 11 C -4.3686 0.0814 1.106 0
M  V30 12 C -4.4052 1.0387 -1.1312 0
M  V30 13 C 3.9141 0.494 0.0597 0
M  V30 14 N 3.6779 -0.695 -0.5305 0
M  V30 15 C 1.9928 -2.2278 -1.3119 0
M  V30 16 N -4.9811 -0.1103 2.3945 0 CHG=1
M  V30 17 C -5.0069 0.8507 0.1155 0
M  V30 18 S 5.5169 1.1183 0.3876 0
M  V30 19 O -6.0893 0.4024 2.6556 0
M  V30 20 O -4.3553 -0.8633 3.3615 0 CHG=-1
M  V30 21 O 6.5401 0.0774 0.0305 0
M  V30 22 O 5.6383 1.4467 1.8491 0
M  V30 23 N 5.7916 2.5371 -0.5607 0
M  V30 24 H -2.6081 -1.0857 1.5698 0
M  V30 25 H -2.7081 0.6223 -2.3747 0
M  V30 26 H -4.9011 1.6363 -1.8851 0
M  V30 27 H 1.4238 -2.8535 -0.6003 0
M  V30 28 H 1.4415 -2.0401 -2.251 0
M  V30 29 H 2.8989 -2.8088 -1.5885 0
M  V30 30 H -5.9686 1.3093 0.306 0
M  V30 31 H 5.0991 3.2536 -0.2466 0
M  V30 32 H 6.7369 2.8988 -0.3026 0
M  V30 END ATOM
M  V30 BEGIN BOND
M  V30 1 2 1 2
M  V30 2 2 1 3
M  V30 3 1 1 4
M  V30 4 1 1 5
M  V30 5 2 4 6
M  V30 6 2 5 7
M  V30 7 1 5 8
M  V30 8 1 6 9
M  V30 9 1 6 10
M  V30 10 1 7 11
M  V30 11 2 8 12
M  V30 12 1 9 13
M  V30 13 1 10 14
M  V30 14 1 10 15
M  V30 15 1 11 16
M  V30 16 2 11 17
M  V30 17 1 13 18
M  V30 18 2 16 19
M  V30 19 1 16 20
M  V30 20 2 18 21
M  V30 21 2 18 22
M  V30 22 1 18 23
M  V30 23 1 12 17
M  V30 24 2 13 14
M  V30 25 1 7 24
M  V30 26 1 8 25
M  V30 27 1 12 26
M  V30 28 1 15 27
M  V30 29 1 15 28
M  V30 30 1 15 29
M  V30 31 1 17 30
M  V30 32 1 23 31
M  V30 33 1 23 32
M  V30 END BOND
M  V30 END CTAB
M  END
>  <Structure No>
7455

>  <LogS>
-2.67

>  <MMFF94 Energy>
37.954

$$$$
Compound 7456
Actelion Java MolfileCreator 2.0

  0  0  0  0  0  0              0 V3000
M  V30 BEGIN CTAB
M  V30 COUNTS 48 51 0 0 0
M  V30 BEGIN ATOM
M  V30 1 F 2.108 -2.7573 -0.8103 0
M  V30 2 C 0.8882 -2.1917 -0.6265 0
M  V30 3 C 0.7785 -0.8899 -0.1214 0
M  V30 4 C -0.2556 -2.9115 -0.9699 0
M  V30 5 N 1.958 -0.1478 0.2353 0
M  V30 6 C -0.4891 -0.3086 0.018 0
M  V30 7 C -1.5347 -2.3403 -0.8265 0
M  V30 8 C 2.878 -0.6598 1.2561 0
M  V30 9 C 2.1719 1.1952 -0.3159 0
M  V30 10 C -1.6606 -1.0145 -0.3403 0
M  V30 11 C -2.6934 -3.0676 -1.1567 0
M  V30 12 C 4.348 -0.5159 0.8044 0
M  V30 13 C 3.6289 1.6376 -0.1188 0
M  V30 14 N -2.9106 -0.4514 -0.2118 0
M  V30 15 O -2.5905 -4.2484 -1.5909 0
M  V30 16 C -3.9625 -2.4793 -0.9994 0
M  V30 17 N 4.5351 0.4821 -0.2799 0 CHG=1
M  V30 18 C -3.0919 0.9058 0.233 0
M  V30 19 C -4.0348 -1.1618 -0.5214 0
M  V30 20 C -5.2168 -3.2103 -1.3285 0
M  V30 21 C 5.9364 0.9328 -0.3245 0
M  V30 22 C -3.6215 1.1666 1.5062 0
M  V30 23 C -2.7578 1.9769 -0.6107 0
M  V30 24 O -6.3372 -2.6535 -1.1784 0
M  V30 25 O -5.1831 -4.5157 -1.8053 0 CHG=-1
M  V30 26 C -3.802 2.4853 1.9351 0
M  V30 27 C -2.9384 3.2943 -0.1786 0
M  V30 28 C -3.4595 3.5489 1.094 0
M  V30 29 F -3.6345 4.8268 1.5117 0
M  V30 30 H -0.1351 -3.9176 -1.3525 0
M  V30 31 H -0.5491 0.6889 0.4296 0
M  V30 32 H 2.7233 -0.0751 2.1891 0
M  V30 33 H 2.6613 -1.7224 1.5007 0
M  V30 34 H 1.9498 1.1795 -1.4055 0
M  V30 35 H 1.49 1.9232 0.173 0
M  V30 36 H 4.9555 -0.2512 1.7002 0
M  V30 37 H 4.7103 -1.5077 0.4511 0
M  V30 38 H 3.7486 2.0834 0.8952 0
M  V30 39 H 3.8607 2.4291 -0.867 0
M  V30 40 H 4.328 0.0195 -1.1983 0
M  V30 41 H -5.0062 -0.6917 -0.4067 0
M  V30 42 H 6.6202 0.0617 -0.4285 0
M  V30 43 H 6.2067 1.4922 0.5987 0
M  V30 44 H 6.1027 1.595 -1.2027 0
M  V30 45 H -3.8873 0.3477 2.1627 0
M  V30 46 H -2.3556 1.7863 -1.5977 0
M  V30 47 H -4.2071 2.6817 2.9194 0
M  V30 48 H -2.6753 4.117 -0.8308 0
M  V30 END ATOM
M  V30 BEGIN BOND
M  V30 1 1 1 2
M  V30 2 2 2 3
M  V30 3 1 2 4
M  V30 4 1 3 5
M  V30 5 1 3 6
M  V30 6 2 4 7
M  V30 7 1 5 8
M  V30 8 1 5 9
M  V30 9 2 6 10
M  V30 10 1 7 11
M  V30 11 1 8 12
M  V30 12 1 9 13
M  V30 13 1 10 14
M  V30 14 2 11 15
M  V30 15 1 11 16
M  V30 16 1 12 17
M  V30 17 1 14 18
M  V30 18 1 14 19
M  V30 19 1 16 20
M  V30 20 1 17 21
M  V30 21 2 18 22
M  V30 22 1 18 23
M  V30 23 2 20 24
M  V30 24 1 20 25
M  V30 25 1 22 26
M  V30 26 2 23 27
M  V30 27 2 26 28
M  V30 28 1 28 29
M  V30 29 1 7 10
M  V30 30 1 13 17
M  V30 31 2 16 19
M  V30 32 1 27 28
M  V30 33 1 4 30
M  V30 34 1 6 31
M  V30 35 1 8 32
M  V30 36 1 8 33
M  V30 37 1 9 34
M  V30 38 1 9 35
M  V30 39 1 12 36
M  V30 40 1 12 37
M  V30 41 1 13 38
M  V30 42 1 13 39
M  V30 43 1 17 40
M  V30 44 1 19 41
M  V30 45 1 21 42
M  V30 46 1 21 43
M  V30 47 1 21 44
M  V30 48 1 22 45
M  V30 49 1 23 46
M  V30 50 1 26 47
M  V30 51 1 27 48
M  V30 END BOND
M  V30 END CTAB
M  END
>  <Structure No>
7456

>  <LogS>
-3.82

>  <MMFF94 Energy>
135.77

$$$$
Compound 7457
Actelion Java MolfileCreator 2.0

  0  0  0  0  0  0              0 V3000
M  V30 BEGIN CTAB
M  V30 COUNTS 44 45 0 0 0
M  V30 BEGIN ATOM
M  V30 1 S 0.8341 2.1698 0.0 0
M  V30 2 O 1.4906 2.7987 1.1974 0
M  V30 3 O 1.0626 3.0275 -1.212 0
M  V30 4 N 1.4594 0.5656 -0.2969 0
M  V30 5 C -0.8733 1.9983 0.2817 0
M  V30 6 C 0.4704 -0.2188 -1.0697 0
M  V30 7 C 1.8663 -0.1102 0.9528 0
M  V30 8 S -1.9161 3.1933 0.8342 0
M  V30 9 C -1.5565 0.8099 0.0903 0
M  V30 10 C -0.8763 -0.4786 -0.3169 0 CFG=1
M  V30 11 C 3.3435 0.1654 1.2606 0
M  V30 12 C -3.267 2.1892 0.8602 0
M  V30 13 C -2.9132 0.9135 0.4373 0
M  V30 14 N -1.8061 -1.2644 -1.1515 0
M  V30 15 C 4.2714 -0.439 0.1996 0
M  V30 16 S -4.875 2.6932 1.3455 0
M  V30 17 C -1.4675 -2.6934 -1.1853 0
M  V30 18 O 5.6203 -0.1393 0.5064 0
M  V30 19 O -4.7748 3.6158 2.5282 0
M  V30 20 O -5.6853 1.4881 1.7349 0
M  V30 21 N -5.6513 3.5095 0.034 0
M  V30 22 C -2.6201 -3.4816 -1.7943 0
M  V30 23 C 6.2272 -1.2246 1.173 0
M  V30 24 H 0.9357 -1.186 -1.353 0
M  V30 25 H 0.2622 0.3086 -2.0268 0
M  V30 26 H 1.7415 -1.2141 0.874 0
M  V30 27 H 1.2379 0.2182 1.8107 0
M  V30 28 H -0.6686 -1.0291 0.6264 0
M  V30 29 H 3.5256 1.2583 1.3264 0
M  V30 30 H 3.5838 -0.2761 2.2514 0
M  V30 31 H -3.6116 0.088 0.3879 0
M  V30 32 H -1.8096 -0.8888 -2.1296 0
M  V30 33 H 4.0712 -1.5316 0.0841 0
M  V30 34 H 4.0407 0.0257 -0.7824 0
M  V30 35 H -0.5558 -2.8657 -1.7969 0
M  V30 36 H -1.2918 -3.0799 -0.1572 0
M  V30 37 H -5.647 2.8531 -0.779 0
M  V30 38 H -5.0412 4.3165 -0.2276 0
M  V30 39 H -2.8056 -3.146 -2.8366 0
M  V30 40 H -2.3693 -4.5631 -1.806 0
M  V30 41 H -3.5422 -3.3332 -1.1931 0
M  V30 42 H 6.322 -2.1006 0.4938 0
M  V30 43 H 7.2498 -0.9241 1.4806 0
M  V30 44 H 5.6671 -1.5057 2.0926 0
M  V30 END ATOM
M  V30 BEGIN BOND
M  V30 1 2 1 2
M  V30 2 2 1 3
M  V30 3 1 1 4
M  V30 4 1 1 5
M  V30 5 1 4 6
M  V30 6 1 4 7
M  V30 7 1 5 8
M  V30 8 2 5 9
M  V30 9 1 6 10
M  V30 10 1 7 11
M  V30 11 1 8 12
M  V30 12 1 9 13
M  V30 13 1 10 14
M  V30 14 1 11 15
M  V30 15 1 12 16
M  V30 16 1 14 17
M  V30 17 1 15 18
M  V30 18 2 16 19
M  V30 19 2 16 20
M  V30 20 1 16 21
M  V30 21 1 17 22
M  V30 22 1 18 23
M  V30 23 1 9 10
M  V30 24 2 12 13
M  V30 25 1 6 24
M  V30 26 1 6 25
M  V30 27 1 7 26
M  V30 28 1 7 27
M  V30 29 1 10 28
M  V30 30 1 11 29
M  V30 31 1 11 30
M  V30 32 1 13 31
M  V30 33 1 14 32
M  V30 34 1 15 33
M  V30 35 1 15 34
M  V30 36 1 17 35
M  V30 37 1 17 36
M  V30 38 1 21 37
M  V30 39 1 21 38
M  V30 40 1 22 39
M  V30 41 1 22 40
M  V30 42 1 22 41
M  V30 43 1 23 42
M  V30 44 1 23 43
M  V30 45 1 23 44
M  V30 END BOND
M  V30 BEGIN COLLECTION
M  V30 MDLV30/STEABS ATOMS=(1 10)
M  V30 END COLLECTION
M  V30 END CTAB
M  END
>  <Structure No>
7457

>  <LogS>
-2.95

>  <MMFF94 Energy>
-59.07

$$$$
Compound 7458
Actelion Java MolfileCreator 2.0

  0  0  0  0  0  0              0 V3000
M  V30 BEGIN CTAB
M  V30 COUNTS 37 38 0 0 0
M  V30 BEGIN ATOM
M  V30 1 S 0.422 2.2806 -1.858 0
M  V30 2 O 0.9197 3.5073 -1.1486 0
M  V30 3 O -0.1239 2.7025 -3.1923 0
M  V30 4 N 1.7307 1.1726 -2.1431 0
M  V30 5 C -0.8879 1.507 -0.9712 0
M  V30 6 C 2.5818 0.5849 -1.3461 0
M  V30 7 C -1.7672 2.2788 -0.202 0
M  V30 8 C -1.0541 0.1174 -1.0265 0
M  V30 9 S 3.7065 -0.5156 -1.9444 0
M  V30 10 N 2.705 0.7164 0.0126 0
M  V30 11 C -2.8026 1.6659 0.5093 0
M  V30 12 C -2.0895 -0.4966 -0.3158 0
M  V30 13 C 4.3164 -0.7909 -0.4072 0
M  V30 14 N 3.6739 -0.0495 0.5175 0
M  V30 15 C 1.984 1.6189 0.9041 0
M  V30 16 C -2.9846 0.2762 0.4458 0
M  V30 17 S 5.6305 -1.8869 -0.0367 0
M  V30 18 N -4.0432 -0.3311 1.2063 0
M  V30 19 O 5.7871 -1.994 1.4542 0
M  V30 20 O 6.9054 -1.3607 -0.6326 0
M  V30 21 N 5.2806 -3.4494 -0.6882 0
M  V30 22 C -4.7571 -1.5079 0.7972 0
M  V30 23 O -4.662 -1.9405 -0.3828 0
M  V30 24 C -5.6999 -2.1727 1.7463 0
M  V30 25 H -1.6491 3.3536 -0.1487 0
M  V30 26 H -0.3774 -0.4931 -1.6101 0
M  V30 27 H -3.4715 2.2756 1.1039 0
M  V30 28 H -2.1714 -1.5746 -0.3431 0
M  V30 29 H 0.8983 1.4349 0.8577 0
M  V30 30 H 2.2865 1.4332 1.9573 0
M  V30 31 H 2.2482 2.6695 0.6775 0
M  V30 32 H -4.3706 0.1577 2.0705 0
M  V30 33 H 6.0514 -4.0863 -0.3861 0
M  V30 34 H 4.4093 -3.7871 -0.2213 0
M  V30 35 H -5.2742 -2.1633 2.7715 0
M  V30 36 H -5.8737 -3.227 1.4433 0
M  V30 37 H -6.6674 -1.6294 1.7472 0
M  V30 END ATOM
M  V30 BEGIN BOND
M  V30 1 2 1 2
M  V30 2 2 1 3
M  V30 3 1 1 4
M  V30 4 1 1 5
M  V30 5 2 4 6
M  V30 6 2 5 7
M  V30 7 1 5 8
M  V30 8 1 6 9
M  V30 9 1 6 10
M  V30 10 1 7 11
M  V30 11 2 8 12
M  V30 12 1 9 13
M  V30 13 1 10 14
M  V30 14 1 10 15
M  V30 15 2 11 16
M  V30 16 1 13 17
M  V30 17 1 16 18
M  V30 18 2 17 19
M  V30 19 2 17 20
M  V30 20 1 17 21
M  V30 21 1 18 22
M  V30 22 2 22 23
M  V30 23 1 22 24
M  V30 24 1 12 16
M  V30 25 2 13 14
M  V30 26 1 7 25
M  V30 27 1 8 26
M  V30 28 1 11 27
M  V30 29 1 12 28
M  V30 30 1 15 29
M  V30 31 1 15 30
M  V30 32 1 15 31
M  V30 33 1 18 32
M  V30 34 1 21 33
M  V30 35 1 21 34
M  V30 36 1 24 35
M  V30 37 1 24 36
M  V30 38 1 24 37
M  V30 END BOND
M  V30 END CTAB
M  END
>  <Structure No>
7458

>  <LogS>
-1.69

>  <MMFF94 Energy>
-7.6125

$$$$
Compound 7459
Actelion Java MolfileCreator 2.0

  0  0  0  0  0  0              0 V3000
M  V30 BEGIN CTAB
M  V30 COUNTS 32 33 0 0 0
M  V30 BEGIN ATOM
M  V30 1 S -1.2925 -1.1201 -0.1722 0
M  V30 2 O -1.3175 -1.5138 -1.6218 0
M  V30 3 O -1.0924 -2.3331 0.6934 0
M  V30 4 N -0.0395 0.0389 0.1572 0
M  V30 5 C -2.8528 -0.3781 0.2255 0
M  V30 6 C 1.2539 0.0095 -0.0149 0
M  V30 7 C -3.1844 0.955 -0.1443 0
M  V30 8 C -3.7704 -1.1277 0.9834 0
M  V30 9 S 2.2156 1.3183 0.429 0
M  V30 10 N 2.0173 -1.0007 -0.5387 0
M  V30 11 C -2.3098 1.8012 -0.9905 0
M  V30 12 C -4.4031 1.5032 0.299 0
M  V30 13 C -4.9805 -0.5697 1.396 0
M  V30 14 C 3.6021 0.5236 -0.0801 0
M  V30 15 N 3.317 -0.6999 -0.5703 0
M  V30 16 C 1.5756 -2.2871 -1.0678 0
M  V30 17 O -2.2693 3.0473 -0.8075 0
M  V30 18 O -1.5706 1.2516 -2.0302 0 CHG=-1
M  V30 19 C -5.2927 0.7457 1.0616 0
M  V30 20 S 5.2217 1.1821 0.0104 0
M  V30 21 O 5.6948 1.1562 1.4362 0
M  V30 22 O 5.2176 2.5975 -0.4958 0
M  V30 23 N 6.286 0.2312 -0.9655 0
M  V30 24 H -3.5484 -2.1481 1.2687 0
M  V30 25 H -4.679 2.5182 0.0367 0
M  V30 26 H -5.6747 -1.1571 1.9834 0
M  V30 27 H 1.0357 -2.8634 -0.2953 0
M  V30 28 H 0.9765 -2.1378 -1.9859 0
M  V30 29 H 2.456 -2.9001 -1.3583 0
M  V30 30 H -6.2302 1.1783 1.3873 0
M  V30 31 H 7.227 0.6828 -0.9211 0
M  V30 32 H 5.9559 0.3191 -1.9528 0
M  V30 END ATOM
M  V30 BEGIN BOND
M  V30 1 2 1 2
M  V30 2 2 1 3
M  V30 3 1 1 4
M  V30 4 1 1 5
M  V30 5 2 4 6
M  V30 6 2 5 7
M  V30 7 1 5 8
M  V30 8 1 6 9
M  V30 9 1 6 10
M  V30 10 1 7 11
M  V30 11 1 7 12
M  V30 12 2 8 13
M  V30 13 1 9 14
M  V30 14 1 10 15
M  V30 15 1 10 16
M  V30 16 2 11 17
M  V30 17 1 11 18
M  V30 18 2 12 19
M  V30 19 1 14 20
M  V30 20 2 20 21
M  V30 21 2 20 22
M  V30 22 1 20 23
M  V30 23 1 13 19
M  V30 24 2 14 15
M  V30 25 1 8 24
M  V30 26 1 12 25
M  V30 27 1 13 26
M  V30 28 1 16 27
M  V30 29 1 16 28
M  V30 30 1 16 29
M  V30 31 1 19 30
M  V30 32 1 23 31
M  V30 33 1 23 32
M  V30 END BOND
M  V30 END CTAB
M  END
>  <Structure No>
7459

>  <LogS>
-2.51

>  <MMFF94 Energy>
-15.245

$$$$
Compound 7460
Actelion Java MolfileCreator 2.0

  0  0  0  0  0  0              0 V3000
M  V30 BEGIN CTAB
M  V30 COUNTS 40 42 0 0 0
M  V30 BEGIN ATOM
M  V30 1 S 4.1487 -1.6579 -1.7409 0
M  V30 2 O 4.1539 -2.823 -2.6899 0
M  V30 3 O 5.0705 -1.958 -0.5913 0
M  V30 4 N 4.7193 -0.2461 -2.5709 0 CHG=-1
M  V30 5 C 2.5039 -1.3965 -1.1696 0
M  V30 6 C 4.8262 1.0629 -1.9963 0
M  V30 7 C 2.0898 -1.9142 0.0654 0
M  V30 8 C 1.5997 -0.6672 -1.9528 0
M  V30 9 N 5.2374 2.0908 -2.7886 0
M  V30 10 C 4.515 1.3158 -0.6478 0
M  V30 11 C 0.7846 -1.6961 0.5179 0
M  V30 12 C 0.2945 -0.4493 -1.502 0
M  V30 13 C 5.3573 3.3622 -2.3203 0
M  V30 14 C 4.6301 2.6157 -0.1499 0
M  V30 15 C -0.1222 -0.959 -0.266 0
M  V30 16 C 5.054 3.6476 -0.9884 0
M  V30 17 N -1.4654 -0.7136 0.1671 0
M  V30 18 N -1.9133 -1.1584 1.2723 0
M  V30 19 C -3.2558 -0.9097 1.708 0
M  V30 20 C -4.1535 -0.1478 0.9382 0
M  V30 21 C -3.6749 -1.435 2.9314 0
M  V30 22 C -5.4692 0.0887 1.3852 0
M  V30 23 C -4.9732 -1.2089 3.3883 0
M  V30 24 C -5.8748 -0.4509 2.6274 0
M  V30 25 C -6.3947 0.8938 0.5454 0
M  V30 26 O -7.1658 -0.2389 3.1113 0
M  V30 27 O -5.9949 1.4007 -0.537 0
M  V30 28 O -7.7141 1.1031 0.929 0 CHG=-1
M  V30 29 H 2.7749 -2.4855 0.679 0
M  V30 30 H 1.9054 -0.2646 -2.9102 0
M  V30 31 H 4.1928 0.5272 0.0176 0
M  V30 32 H 0.486 -2.1027 1.4762 0
M  V30 33 H -0.3946 0.1182 -2.1158 0
M  V30 34 H 5.6895 4.1505 -2.9828 0
M  V30 35 H 4.391 2.8229 0.885 0
M  V30 36 H 5.1462 4.6576 -0.6109 0
M  V30 37 H -3.8261 0.2588 -0.011 0
M  V30 38 H -2.9918 -2.0218 3.5329 0
M  V30 39 H -5.2802 -1.6251 4.3399 0
M  V30 40 H -7.4717 -0.6198 3.9999 0
M  V30 END ATOM
M  V30 BEGIN BOND
M  V30 1 2 1 2
M  V30 2 2 1 3
M  V30 3 1 1 4
M  V30 4 1 1 5
M  V30 5 1 4 6
M  V30 6 2 5 7
M  V30 7 1 5 8
M  V30 8 2 6 9
M  V30 9 1 6 10
M  V30 10 1 7 11
M  V30 11 2 8 12
M  V30 12 1 9 13
M  V30 13 2 10 14
M  V30 14 2 11 15
M  V30 15 2 13 16
M  V30 16 1 15 17
M  V30 17 2 17 18
M  V30 18 1 18 19
M  V30 19 2 19 20
M  V30 20 1 19 21
M  V30 21 1 20 22
M  V30 22 2 21 23
M  V30 23 2 22 24
M  V30 24 1 22 25
M  V30 25 1 24 26
M  V30 26 2 25 27
M  V30 27 1 25 28
M  V30 28 1 12 15
M  V30 29 1 14 16
M  V30 30 1 23 24
M  V30 31 1 7 29
M  V30 32 1 8 30
M  V30 33 1 10 31
M  V30 34 1 11 32
M  V30 35 1 12 33
M  V30 36 1 13 34
M  V30 37 1 14 35
M  V30 38 1 16 36
M  V30 39 1 20 37
M  V30 40 1 21 38
M  V30 41 1 23 39
M  V30 42 1 26 40
M  V30 END BOND
M  V30 END CTAB
M  END
>  <Structure No>
7460

>  <LogS>
-6.14

>  <MMFF94 Energy>
94.841

$$$$
Compound 7461
Actelion Java MolfileCreator 2.0

  0  0  0  0  0  0              0 V3000
M  V30 BEGIN CTAB
M  V30 COUNTS 59 61 0 0 0
M  V30 BEGIN ATOM
M  V30 1 O 3.3735 -4.0975 0.6419 0
M  V30 2 C 2.7358 -3.2493 1.3212 0
M  V30 3 O 2.8441 -3.2737 2.7069 0 CHG=-1
M  V30 4 C 1.7701 -2.2936 0.6592 0 CFG=1
M  V30 5 N 1.6451 -1.034 1.4324 0
M  V30 6 C 2.0561 -2.0588 -0.8586 0
M  V30 7 C 2.7794 -0.1613 1.6331 0
M  V30 8 C 0.4262 -0.8132 2.232 0
M  V30 9 C 0.9375 -1.2473 -1.5254 0
M  V30 10 C 3.4194 -1.4172 -1.1622 0
M  V30 11 O 3.9082 -0.6565 1.9007 0
M  V30 12 C 2.6153 1.3375 1.5411 0
M  V30 13 C -0.7501 -0.4745 1.3542 0
M  V30 14 C 3.9358 2.1272 1.5886 0
M  V30 15 C -1.6589 -1.4732 0.9668 0
M  V30 16 C -0.9321 0.8362 0.8871 0
M  V30 17 C 4.7698 1.963 0.3096 0
M  V30 18 C -2.7165 -1.1704 0.1057 0
M  V30 19 C -1.99 1.1396 0.0262 0
M  V30 20 C 6.0041 2.8598 0.3386 0
M  V30 21 C -2.8916 0.1396 -0.3673 0
M  V30 22 C -3.9852 0.4525 -1.3141 0
M  V30 23 C -5.3536 0.2244 -1.0039 0
M  V30 24 C -3.6372 0.9311 -2.5898 0
M  V30 25 C -5.8104 -0.1896 0.3455 0
M  V30 26 C -6.3228 0.441 -2.001 0
M  V30 27 C -4.6167 1.1558 -3.5572 0
M  V30 28 N -6.9854 -0.7987 0.5923 0
M  V30 29 N -5.142 0.0399 1.4912 0 CHG=-1
M  V30 30 C -5.9557 0.903 -3.2662 0
M  V30 31 N -7.0193 -0.9516 1.9056 0
M  V30 32 N -5.9187 -0.451 2.4421 0
M  V30 33 H 0.7983 -2.8313 0.6961 0
M  V30 34 H 2.0535 -3.0572 -1.3509 0
M  V30 35 H 0.2105 -1.725 2.831 0
M  V30 36 H 0.5736 -0.0035 2.9776 0
M  V30 37 H -0.0416 -1.7494 -1.3818 0
M  V30 38 H 0.889 -0.2219 -1.1034 0
M  V30 39 H 1.1215 -1.1691 -2.6181 0
M  V30 40 H 4.2319 -1.8928 -0.5765 0
M  V30 41 H 3.4009 -0.3298 -0.9536 0
M  V30 42 H 3.6588 -1.5448 -2.2394 0
M  V30 43 H 1.9917 1.6802 2.3922 0
M  V30 44 H 2.0744 1.5835 0.6028 0
M  V30 45 H 3.684 3.2035 1.7129 0
M  V30 46 H 4.5309 1.8201 2.4767 0
M  V30 47 H -1.5417 -2.4904 1.3189 0
M  V30 48 H -0.2563 1.625 1.186 0
M  V30 49 H 5.1055 0.91 0.2055 0
M  V30 50 H 4.1548 2.2287 -0.5778 0
M  V30 51 H -3.3946 -1.9581 -0.1995 0
M  V30 52 H -2.1088 2.155 -0.3311 0
M  V30 53 H 5.7045 3.9272 0.4061 0
M  V30 54 H 6.591 2.7151 -0.5928 0
M  V30 55 H 6.6471 2.6029 1.2071 0
M  V30 56 H -2.5987 1.107 -2.8442 0
M  V30 57 H -7.3731 0.2749 -1.7949 0
M  V30 58 H -4.3353 1.5161 -4.5385 0
M  V30 59 H -6.7132 1.0731 -4.0204 0
M  V30 END ATOM
M  V30 BEGIN BOND
M  V30 1 2 1 2
M  V30 2 1 2 3
M  V30 3 1 2 4
M  V30 4 1 4 5
M  V30 5 1 4 6
M  V30 6 1 5 7
M  V30 7 1 5 8
M  V30 8 1 6 9
M  V30 9 1 6 10
M  V30 10 2 7 11
M  V30 11 1 7 12
M  V30 12 1 8 13
M  V30 13 1 12 14
M  V30 14 2 13 15
M  V30 15 1 13 16
M  V30 16 1 14 17
M  V30 17 1 15 18
M  V30 18 2 16 19
M  V30 19 1 17 20
M  V30 20 2 18 21
M  V30 21 1 21 22
M  V30 22 2 22 23
M  V30 23 1 22 24
M  V30 24 1 23 25
M  V30 25 1 23 26
M  V30 26 2 24 27
M  V30 27 2 25 28
M  V30 28 1 25 29
M  V30 29 2 26 30
M  V30 30 1 28 31
M  V30 31 1 29 32
M  V30 32 1 19 21
M  V30 33 1 27 30
M  V30 34 2 31 32
M  V30 35 1 4 33
M  V30 36 1 6 34
M  V30 37 1 8 35
M  V30 38 1 8 36
M  V30 39 1 9 37
M  V30 40 1 9 38
M  V30 41 1 9 39
M  V30 42 1 10 40
M  V30 43 1 10 41
M  V30 44 1 10 42
M  V30 45 1 12 43
M  V30 46 1 12 44
M  V30 47 1 14 45
M  V30 48 1 14 46
M  V30 49 1 15 47
M  V30 50 1 16 48
M  V30 51 1 17 49
M  V30 52 1 17 50
M  V30 53 1 18 51
M  V30 54 1 19 52
M  V30 55 1 20 53
M  V30 56 1 20 54
M  V30 57 1 20 55
M  V30 58 1 24 56
M  V30 59 1 26 57
M  V30 60 1 27 58
M  V30 61 1 30 59
M  V30 END BOND
M  V30 BEGIN COLLECTION
M  V30 MDLV30/STEABS ATOMS=(1 4)
M  V30 END COLLECTION
M  V30 END CTAB
M  END
>  <Structure No>
7461

>  <LogS>
-4.2

>  <MMFF94 Energy>
148.1

$$$$
Compound 7462
Actelion Java MolfileCreator 2.0

  0  0  0  0  0  0              0 V3000
M  V30 BEGIN CTAB
M  V30 COUNTS 32 33 0 0 0
M  V30 BEGIN ATOM
M  V30 1 S -0.9461 0.86 -0.1719 0
M  V30 2 O -0.7392 1.8863 0.9072 0
M  V30 3 O -0.598 1.44 -1.5142 0
M  V30 4 N 0.0786 -0.5019 0.153 0
M  V30 5 C -2.6377 0.3418 -0.1819 0
M  V30 6 C 1.3757 -0.4458 0.212 0
M  V30 7 C -3.7069 1.2511 0.0228 0
M  V30 8 C -2.9194 -1.0242 -0.3502 0
M  V30 9 S 2.3179 0.94 -0.0101 0
M  V30 10 N 2.1522 -1.5269 0.4661 0
M  V30 11 N -3.4847 2.6656 0.1453 0 CHG=1
M  V30 12 C -5.0219 0.7574 0.0982 0
M  V30 13 C -4.2328 -1.4928 -0.2904 0
M  V30 14 C 3.7252 0.0467 0.2419 0
M  V30 15 N 3.4566 -1.2555 0.4828 0
M  V30 16 C 1.6399 -2.873 0.7029 0
M  V30 17 O -4.1959 3.3453 0.9141 0
M  V30 18 O -2.6555 3.3165 -0.7381 0 CHG=-1
M  V30 19 C -5.2816 -0.6047 -0.0587 0
M  V30 20 S 5.3445 0.7113 0.1929 0
M  V30 21 O 6.3338 -0.357 0.5643 0
M  V30 22 O 5.4517 1.8443 1.1746 0
M  V30 23 N 5.6899 1.2785 -1.4029 0
M  V30 24 H -2.1215 -1.735 -0.5206 0
M  V30 25 H -5.8519 1.4344 0.2582 0
M  V30 26 H -4.4367 -2.5482 -0.4172 0
M  V30 27 H 0.9777 -2.8715 1.5945 0
M  V30 28 H 1.0649 -3.2173 -0.1825 0
M  V30 29 H 2.4779 -3.58 0.8816 0
M  V30 30 H -6.2989 -0.9708 -0.0084 0
M  V30 31 H 5.0198 2.0545 -1.6034 0
M  V30 32 H 6.6436 1.7041 -1.376 0
M  V30 END ATOM
M  V30 BEGIN BOND
M  V30 1 2 1 2
M  V30 2 2 1 3
M  V30 3 1 1 4
M  V30 4 1 1 5
M  V30 5 2 4 6
M  V30 6 2 5 7
M  V30 7 1 5 8
M  V30 8 1 6 9
M  V30 9 1 6 10
M  V30 10 1 7 11
M  V30 11 1 7 12
M  V30 12 2 8 13
M  V30 13 1 9 14
M  V30 14 1 10 15
M  V30 15 1 10 16
M  V30 16 2 11 17
M  V30 17 1 11 18
M  V30 18 2 12 19
M  V30 19 1 14 20
M  V30 20 2 20 21
M  V30 21 2 20 22
M  V30 22 1 20 23
M  V30 23 1 13 19
M  V30 24 2 14 15
M  V30 25 1 8 24
M  V30 26 1 12 25
M  V30 27 1 13 26
M  V30 28 1 16 27
M  V30 29 1 16 28
M  V30 30 1 16 29
M  V30 31 1 19 30
M  V30 32 1 23 31
M  V30 33 1 23 32
M  V30 END BOND
M  V30 END CTAB
M  END
>  <Structure No>
7462

>  <LogS>
-2.79

>  <MMFF94 Energy>
-10.64

$$$$
Compound 7463
Actelion Java MolfileCreator 2.0

  0  0  0  0  0  0              0 V3000
M  V30 BEGIN CTAB
M  V30 COUNTS 28 29 0 0 0
M  V30 BEGIN ATOM
M  V30 1 Cl -3.8411 -2.5894 0.6246 0
M  V30 2 C -2.7461 -1.5898 -0.3238 0
M  V30 3 C -1.8155 -2.1408 -1.2353 0
M  V30 4 C -2.8588 -0.2004 -0.196 0
M  V30 5 N -1.6573 -3.5639 -1.3845 0 CHG=1
M  V30 6 C -1.0283 -1.2708 -2.0132 0
M  V30 7 C -2.0622 0.6488 -0.9643 0
M  V30 8 O -1.24 -4.0392 -2.4609 0
M  V30 9 O -1.8085 -4.4054 -0.3071 0 CHG=-1
M  V30 10 C -1.1436 0.1183 -1.8744 0
M  V30 11 S -0.1308 1.1996 -2.8265 0
M  V30 12 O -0.9302 1.7254 -3.9845 0
M  V30 13 O 1.075 0.4717 -3.3516 0
M  V30 14 N 0.3969 2.5277 -1.8473 0 CHG=-1
M  V30 15 C 1.1316 2.358 -0.6338 0
M  V30 16 S 1.6223 0.8814 0.0208 0
M  V30 17 N 1.5078 3.3972 0.1408 0
M  V30 18 C 2.3231 1.6814 1.3257 0
M  V30 19 N 2.1715 3.0204 1.2323 0
M  V30 20 S 3.1455 0.8858 2.6523 0
M  V30 21 O 3.4526 1.8923 3.7253 0
M  V30 22 O 4.4295 0.2827 2.1577 0
M  V30 23 N 2.1342 -0.3516 3.3123 0
M  V30 24 H -3.5741 0.2252 0.4962 0
M  V30 25 H -0.3108 -1.6774 -2.7145 0
M  V30 26 H -2.1635 1.7208 -0.8507 0
M  V30 27 H 1.951 -1.0389 2.5471 0
M  V30 28 H 1.2176 0.0932 3.5441 0
M  V30 END ATOM
M  V30 BEGIN BOND
M  V30 1 1 1 2
M  V30 2 2 2 3
M  V30 3 1 2 4
M  V30 4 1 3 5
M  V30 5 1 3 6
M  V30 6 2 4 7
M  V30 7 2 5 8
M  V30 8 1 5 9
M  V30 9 2 6 10
M  V30 10 1 10 11
M  V30 11 2 11 12
M  V30 12 2 11 13
M  V30 13 1 11 14
M  V30 14 1 14 15
M  V30 15 1 15 16
M  V30 16 2 15 17
M  V30 17 1 16 18
M  V30 18 1 17 19
M  V30 19 1 18 20
M  V30 20 2 20 21
M  V30 21 2 20 22
M  V30 22 1 20 23
M  V30 23 1 7 10
M  V30 24 2 18 19
M  V30 25 1 4 24
M  V30 26 1 6 25
M  V30 27 1 7 26
M  V30 28 1 23 27
M  V30 29 1 23 28
M  V30 END BOND
M  V30 END CTAB
M  END
>  <Structure No>
7463

>  <LogS>
-1.99

>  <MMFF94 Energy>
29.563

$$$$
Compound 7464
Actelion Java MolfileCreator 2.0

  0  0  0  0  0  0              0 V3000
M  V30 BEGIN CTAB
M  V30 COUNTS 54 57 0 0 0
M  V30 BEGIN ATOM
M  V30 1 O 10.3611 -0.8872 -0.8065 0
M  V30 2 N 9.413 -1.1452 -1.5769 0 CHG=1
M  V30 3 O 9.69 -1.6963 -2.807 0 CHG=-1
M  V30 4 C 8.055 -0.8684 -1.1885 0
M  V30 5 C 7.7682 -0.2982 0.0647 0
M  V30 6 C 6.9913 -1.1723 -2.0551 0
M  V30 7 C 6.4478 -0.0308 0.4371 0
M  V30 8 C 5.6711 -0.9035 -1.6815 0
M  V30 9 C 5.3896 -0.3123 -0.4379 0
M  V30 10 N 4.0386 -0.0486 -0.0208 0
M  V30 11 C 2.9887 0.3504 -0.9227 0
M  V30 12 O 3.2881 0.7783 -2.0714 0
M  V30 13 N 1.6009 0.2948 -0.5222 0
M  V30 14 C 0.5395 0.4927 -1.5233 0
M  V30 15 C 1.2447 0.1339 0.8983 0
M  V30 16 C -0.6187 -0.4783 -1.273 0
M  V30 17 C -0.2619 0.2832 1.1346 0
M  V30 18 N -1.0049 -0.494 0.1406 0
M  V30 19 C -2.1703 -1.2262 0.5363 0
M  V30 20 N -2.0445 -2.5389 0.8647 0
M  V30 21 C -3.4368 -0.6129 0.5959 0
M  V30 22 C -3.1162 -3.2758 1.2537 0
M  V30 23 C -4.5319 -1.3989 1.0049 0
M  V30 24 C -3.6402 0.7358 0.2606 0
M  V30 25 N -4.3463 -2.7065 1.323 0
M  V30 26 C -5.8089 -0.8369 1.0823 0
M  V30 27 C -4.927 1.3037 0.3375 0
M  V30 28 C -6.0136 0.516 0.7504 0
M  V30 29 O -5.1671 2.6483 0.0112 0
M  V30 30 O -7.282 1.1147 0.8169 0
M  V30 31 C -4.1674 3.566 -0.4205 0
M  V30 32 C -8.472 0.4429 1.2171 0
M  V30 33 H 8.5645 -0.06 0.7581 0
M  V30 34 H 7.1781 -1.6262 -3.0194 0
M  V30 35 H 6.2487 0.4069 1.4074 0
M  V30 36 H 4.8718 -1.181 -2.3556 0
M  V30 37 H 3.8459 -0.0719 1.0044 0
M  V30 38 H 0.9172 0.3222 -2.5544 0
M  V30 39 H 0.1699 1.5391 -1.4599 0
M  V30 40 H 1.7693 0.902 1.507 0
M  V30 41 H 1.5616 -0.8751 1.24 0
M  V30 42 H -0.3098 -1.5023 -1.5749 0
M  V30 43 H -1.4871 -0.1743 -1.8969 0
M  V30 44 H -0.5069 -0.0588 2.1642 0
M  V30 45 H -0.5475 1.3538 1.0495 0
M  V30 46 H -2.9892 -4.3183 1.5103 0
M  V30 47 H -2.8044 1.3397 -0.0622 0
M  V30 48 H -6.6346 -1.4596 1.4002 0
M  V30 49 H -4.6377 4.5532 -0.6059 0
M  V30 50 H -3.7044 3.21 -1.3649 0
M  V30 51 H -3.3919 3.6838 0.3656 0
M  V30 52 H -8.684 -0.4015 0.528 0
M  V30 53 H -8.3689 0.0711 2.2585 0
M  V30 54 H -9.3212 1.1554 1.1772 0
M  V30 END ATOM
M  V30 BEGIN BOND
M  V30 1 2 1 2
M  V30 2 1 2 3
M  V30 3 1 2 4
M  V30 4 2 4 5
M  V30 5 1 4 6
M  V30 6 1 5 7
M  V30 7 2 6 8
M  V30 8 2 7 9
M  V30 9 1 9 10
M  V30 10 1 10 11
M  V30 11 2 11 12
M  V30 12 1 11 13
M  V30 13 1 13 14
M  V30 14 1 13 15
M  V30 15 1 14 16
M  V30 16 1 15 17
M  V30 17 1 16 18
M  V30 18 1 18 19
M  V30 19 2 19 20
M  V30 20 1 19 21
M  V30 21 1 20 22
M  V30 22 1 21 23
M  V30 23 2 21 24
M  V30 24 2 22 25
M  V30 25 2 23 26
M  V30 26 1 24 27
M  V30 27 1 26 28
M  V30 28 1 27 29
M  V30 29 1 28 30
M  V30 30 1 29 31
M  V30 31 1 30 32
M  V30 32 1 8 9
M  V30 33 1 17 18
M  V30 34 1 23 25
M  V30 35 2 27 28
M  V30 36 1 5 33
M  V30 37 1 6 34
M  V30 38 1 7 35
M  V30 39 1 8 36
M  V30 40 1 10 37
M  V30 41 1 14 38
M  V30 42 1 14 39
M  V30 43 1 15 40
M  V30 44 1 15 41
M  V30 45 1 16 42
M  V30 46 1 16 43
M  V30 47 1 17 44
M  V30 48 1 17 45
M  V30 49 1 22 46
M  V30 50 1 24 47
M  V30 51 1 26 48
M  V30 52 1 31 49
M  V30 53 1 31 50
M  V30 54 1 31 51
M  V30 55 1 32 52
M  V30 56 1 32 53
M  V30 57 1 32 54
M  V30 END BOND
M  V30 END CTAB
M  END
>  <Structure No>
7464

>  <LogS>
-6.95

>  <MMFF94 Energy>
52.512

$$$$
Compound 7465
Actelion Java MolfileCreator 2.0

  0  0  0  0  0  0              0 V3000
M  V30 BEGIN CTAB
M  V30 COUNTS 35 38 0 0 0
M  V30 BEGIN ATOM
M  V30 1 O -3.3688 4.3564 0.903 0
M  V30 2 C -2.633 3.3497 0.7262 0
M  V30 3 C -3.1603 2.2041 0.1201 0
M  V30 4 C -1.2937 3.3884 1.1372 0
M  V30 5 C -2.3544 1.0836 -0.0806 0
M  V30 6 C -0.4508 2.2872 0.9557 0
M  V30 7 O -2.8477 4.0E-4 -0.6591 0
M  V30 8 C -0.9392 1.1138 0.3561 0
M  V30 9 C -2.1224 -1.0911 -0.8739 0
M  V30 10 C -0.1558 -0.0342 0.132 0
M  V30 11 C -0.7559 -1.1571 -0.4882 0
M  V30 12 C -2.729 -2.1906 -1.4922 0
M  V30 13 C 1.2665 -0.0657 0.5542 0
M  V30 14 C -0.0382 -2.3469 -0.7364 0
M  V30 15 C -2.0012 -3.3575 -1.7322 0
M  V30 16 C 2.3381 0.1702 -0.3497 0
M  V30 17 C 1.542 -0.3769 1.8957 0
M  V30 18 C -0.6598 -3.4346 -1.3545 0
M  V30 19 O -2.6128 -4.4431 -2.3468 0 CHG=-1
M  V30 20 C 2.1224 0.5185 -1.7808 0
M  V30 21 C 3.6592 0.0717 0.1315 0
M  V30 22 C 2.8576 -0.4605 2.3493 0
M  V30 23 O 3.0806 0.4627 -2.597 0
M  V30 24 O 0.88 0.931 -2.2463 0 CHG=-1
M  V30 25 C 3.9138 -0.239 1.4685 0
M  V30 26 H -4.1965 2.1856 -0.1961 0
M  V30 27 H -0.8994 4.2836 1.6025 0
M  V30 28 H 0.5774 2.3644 1.2842 0
M  V30 29 H -3.7702 -2.1377 -1.7862 0
M  V30 30 H 1.0024 -2.4468 -0.4569 0
M  V30 31 H 0.7316 -0.5614 2.5909 0
M  V30 32 H -0.0967 -4.3405 -1.5398 0
M  V30 33 H 4.5023 0.2455 -0.5253 0
M  V30 34 H 3.0585 -0.7018 3.3851 0
M  V30 35 H 4.9344 -0.3064 1.8227 0
M  V30 END ATOM
M  V30 BEGIN BOND
M  V30 1 2 1 2
M  V30 2 1 2 3
M  V30 3 1 2 4
M  V30 4 2 3 5
M  V30 5 2 4 6
M  V30 6 1 5 7
M  V30 7 1 5 8
M  V30 8 1 7 9
M  V30 9 2 8 10
M  V30 10 2 9 11
M  V30 11 1 9 12
M  V30 12 1 10 13
M  V30 13 1 11 14
M  V30 14 2 12 15
M  V30 15 2 13 16
M  V30 16 1 13 17
M  V30 17 2 14 18
M  V30 18 1 15 19
M  V30 19 1 16 20
M  V30 20 1 16 21
M  V30 21 2 17 22
M  V30 22 2 20 23
M  V30 23 1 20 24
M  V30 24 2 21 25
M  V30 25 1 6 8
M  V30 26 1 10 11
M  V30 27 1 15 18
M  V30 28 1 22 25
M  V30 29 1 3 26
M  V30 30 1 4 27
M  V30 31 1 6 28
M  V30 32 1 12 29
M  V30 33 1 14 30
M  V30 34 1 17 31
M  V30 35 1 18 32
M  V30 36 1 21 33
M  V30 37 1 22 34
M  V30 38 1 25 35
M  V30 END BOND
M  V30 END CTAB
M  END
>  <Structure No>
7465

>  <LogS>
-3.82

>  <MMFF94 Energy>
102.46

$$$$
Compound 7466
Actelion Java MolfileCreator 2.0

  0  0  0  0  0  0              0 V3000
M  V30 BEGIN CTAB
M  V30 COUNTS 63 66 0 0 0
M  V30 BEGIN ATOM
M  V30 1 S 5.4853 0.4025 3.6274 0
M  V30 2 O 6.2037 -0.6162 4.467 0
M  V30 3 O 5.4257 1.6887 4.4058 0
M  V30 4 N 6.4098 0.6445 2.1607 0
M  V30 5 C 3.816 -0.2069 3.3553 0
M  V30 6 C 6.2616 -0.5059 1.2621 0
M  V30 7 C 6.0166 1.888 1.4856 0
M  V30 8 C 2.9528 0.7812 2.6186 0
M  V30 9 C 2.5457 0.5187 1.2906 0
M  V30 10 C 2.5249 1.9735 3.2604 0
M  V30 11 C 1.7554 1.4687 0.6455 0
M  V30 12 C 1.7248 2.9083 2.5807 0
M  V30 13 C 1.359 2.6242 1.2687 0
M  V30 14 C 1.2087 1.4926 -0.6218 0
M  V30 15 N 0.5887 3.37 0.4578 0
M  V30 16 C 0.4874 2.6809 -0.6999 0
M  V30 17 C 1.2838 0.4222 -1.6719 0
M  V30 18 C 0.403 -0.8004 -1.3357 0
M  V30 19 N -1.0304 -0.4739 -1.116 0 CHG=1
M  V30 20 C -1.6895 -0.0576 -2.3816 0
M  V30 21 C -1.7177 -1.6539 -0.534 0
M  V30 22 C -3.1777 0.2542 -2.1627 0
M  V30 23 C -3.196 -1.3529 -0.2599 0
M  V30 24 N -3.8216 -0.8734 -1.4913 0
M  V30 25 C -4.6539 -1.7647 -2.243 0
M  V30 26 N -4.0891 -2.5228 -3.2201 0
M  V30 27 C -6.0296 -1.9157 -1.9524 0
M  V30 28 C -4.8143 -3.4348 -3.9157 0
M  V30 29 O -6.7323 -1.152 -1.006 0
M  V30 30 C -6.739 -2.8901 -2.6634 0
M  V30 31 N -6.1277 -3.6174 -3.6309 0
M  V30 32 C -6.3872 0.1623 -0.5849 0
M  V30 33 H 3.8662 -1.1758 2.8147 0
M  V30 34 H 3.355 -0.416 4.3435 0
M  V30 35 H 6.9817 -0.4176 0.4214 0
M  V30 36 H 5.2354 -0.5694 0.8434 0
M  V30 37 H 6.496 -1.4496 1.8005 0
M  V30 38 H 6.6636 2.0566 0.5973 0
M  V30 39 H 6.1636 2.7553 2.1632 0
M  V30 40 H 4.9593 1.8602 1.1516 0
M  V30 41 H 2.8398 -0.3902 0.7806 0
M  V30 42 H 2.8076 2.1735 4.2866 0
M  V30 43 H 1.396 3.8186 3.0661 0
M  V30 44 H 0.1396 4.2876 0.6804 0
M  V30 45 H -0.092 3.0127 -1.5515 0
M  V30 46 H 2.3386 0.0845 -1.7527 0
M  V30 47 H 1.0187 0.842 -2.664 0
M  V30 48 H 0.5078 -1.5458 -2.1567 0
M  V30 49 H 0.8314 -1.2734 -0.4226 0
M  V30 50 H -1.1005 0.3064 -0.4209 0
M  V30 51 H -1.5938 -0.8547 -3.1529 0
M  V30 52 H -1.2215 0.8654 -2.7837 0
M  V30 53 H -1.2431 -1.9421 0.4313 0
M  V30 54 H -1.6455 -2.527 -1.2222 0
M  V30 55 H -3.2794 1.1618 -1.5295 0
M  V30 56 H -3.6705 0.4676 -3.1372 0
M  V30 57 H -3.2719 -0.5684 0.5235 0
M  V30 58 H -3.7077 -2.2671 0.1158 0
M  V30 59 H -4.3432 -4.023 -4.6909 0
M  V30 60 H -7.7911 -3.0465 -2.4635 0
M  V30 61 H -5.5797 0.127 0.1724 0
M  V30 62 H -6.089 0.7852 -1.4552 0
M  V30 63 H -7.2783 0.6274 -0.1131 0
M  V30 END ATOM
M  V30 BEGIN BOND
M  V30 1 2 1 2
M  V30 2 2 1 3
M  V30 3 1 1 4
M  V30 4 1 1 5
M  V30 5 1 4 6
M  V30 6 1 4 7
M  V30 7 1 5 8
M  V30 8 2 8 9
M  V30 9 1 8 10
M  V30 10 1 9 11
M  V30 11 2 10 12
M  V30 12 2 11 13
M  V30 13 1 11 14
M  V30 14 1 13 15
M  V30 15 2 14 16
M  V30 16 1 14 17
M  V30 17 1 17 18
M  V30 18 1 18 19
M  V30 19 1 19 20
M  V30 20 1 19 21
M  V30 21 1 20 22
M  V30 22 1 21 23
M  V30 23 1 22 24
M  V30 24 1 24 25
M  V30 25 2 25 26
M  V30 26 1 25 27
M  V30 27 1 26 28
M  V30 28 1 27 29
M  V30 29 2 27 30
M  V30 30 2 28 31
M  V30 31 1 29 32
M  V30 32 1 12 13
M  V30 33 1 15 16
M  V30 34 1 23 24
M  V30 35 1 30 31
M  V30 36 1 5 33
M  V30 37 1 5 34
M  V30 38 1 6 35
M  V30 39 1 6 36
M  V30 40 1 6 37
M  V30 41 1 7 38
M  V30 42 1 7 39
M  V30 43 1 7 40
M  V30 44 1 9 41
M  V30 45 1 10 42
M  V30 46 1 12 43
M  V30 47 1 15 44
M  V30 48 1 16 45
M  V30 49 1 17 46
M  V30 50 1 17 47
M  V30 51 1 18 48
M  V30 52 1 18 49
M  V30 53 1 19 50
M  V30 54 1 20 51
M  V30 55 1 20 52
M  V30 56 1 21 53
M  V30 57 1 21 54
M  V30 58 1 22 55
M  V30 59 1 22 56
M  V30 60 1 23 57
M  V30 61 1 23 58
M  V30 62 1 28 59
M  V30 63 1 30 60
M  V30 64 1 32 61
M  V30 65 1 32 62
M  V30 66 1 32 63
M  V30 END BOND
M  V30 END CTAB
M  END
>  <Structure No>
7466

>  <LogS>
-3.76

>  <MMFF94 Energy>
93.777

$$$$
Compound 7467
Actelion Java MolfileCreator 2.0

  0  0  0  0  0  0              0 V3000
M  V30 BEGIN CTAB
M  V30 COUNTS 42 45 0 0 0
M  V30 BEGIN ATOM
M  V30 1 S 0.8527 0.0 -1.3646 0
M  V30 2 C -0.3037 -0.199 0.0505 0 CFG=1
M  V30 3 C 1.447 1.6987 -0.9953 0
M  V30 4 N -0.0791 0.8102 1.0581 0
M  V30 5 C -1.6554 0.232 -0.1995 0 CFG=2
M  V30 6 C 1.9402 1.8605 0.4344 0
M  V30 7 C 1.1025 1.5054 1.4395 0
M  V30 8 C -1.4989 1.2062 0.9255 0
M  V30 9 N -2.651 -0.7957 0.1148 0
M  V30 10 C 3.301 2.4864 0.6547 0
M  V30 11 C 1.3228 1.7576 2.8869 0
M  V30 12 O -2.2453 2.0536 1.4838 0
M  V30 13 C -3.6259 -1.2316 -0.8404 0
M  V30 14 S 4.4661 1.3402 1.4769 0
M  V30 15 O 0.5964 1.1732 3.7347 0
M  V30 16 O 2.2791 2.6496 3.3417 0 CHG=-1
M  V30 17 O -3.6091 -0.7899 -2.0213 0
M  V30 18 C -4.6945 -2.2004 -0.4323 0
M  V30 19 C 4.4705 0.1419 0.149 0
M  V30 20 N -5.5418 -1.6244 0.6076 0
M  V30 21 S 5.3513 0.2938 -1.277 0
M  V30 22 N 3.7739 -1.0143 0.182 0
M  V30 23 N -5.9608 -2.2651 1.6841 0
M  V30 24 C -6.1235 -0.4133 0.6299 0
M  V30 25 C 4.7575 -1.1852 -1.8222 0
M  V30 26 N 3.9357 -1.7544 -0.9132 0
M  V30 27 N -6.7632 -1.4609 2.3665 0
M  V30 28 N -6.8854 -0.3 1.735 0
M  V30 29 C 5.1051 -1.8137 -3.1279 0
M  V30 30 H -0.2213 -1.2166 0.4954 0
M  V30 31 H 0.61 2.4112 -1.1719 0
M  V30 32 H 2.2456 1.9384 -1.7283 0
M  V30 33 H -1.8159 0.7482 -1.1717 0
M  V30 34 H -2.6632 -1.2203 1.071 0
M  V30 35 H 3.2048 3.4186 1.2473 0
M  V30 36 H 3.7543 2.7992 -0.3081 0
M  V30 37 H -5.3241 -2.472 -1.3057 0
M  V30 38 H -4.2124 -3.1261 -0.0528 0
M  V30 39 H -6.0065 0.3535 -0.1249 0
M  V30 40 H 4.9932 -1.067 -3.9417 0
M  V30 41 H 6.1527 -2.1752 -3.1043 0
M  V30 42 H 4.4287 -2.6703 -3.3306 0
M  V30 END ATOM
M  V30 BEGIN BOND
M  V30 1 1 1 2
M  V30 2 1 1 3
M  V30 3 1 2 4
M  V30 4 1 2 5
M  V30 5 1 3 6
M  V30 6 1 4 7
M  V30 7 1 4 8
M  V30 8 1 5 9
M  V30 9 1 6 10
M  V30 10 1 7 11
M  V30 11 2 8 12
M  V30 12 1 9 13
M  V30 13 1 10 14
M  V30 14 2 11 15
M  V30 15 1 11 16
M  V30 16 2 13 17
M  V30 17 1 13 18
M  V30 18 1 14 19
M  V30 19 1 18 20
M  V30 20 1 19 21
M  V30 21 2 19 22
M  V30 22 1 20 23
M  V30 23 1 20 24
M  V30 24 1 21 25
M  V30 25 1 22 26
M  V30 26 2 23 27
M  V30 27 2 24 28
M  V30 28 1 25 29
M  V30 29 1 5 8
M  V30 30 2 6 7
M  V30 31 2 25 26
M  V30 32 1 27 28
M  V30 33 1 2 30
M  V30 34 1 3 31
M  V30 35 1 3 32
M  V30 36 1 5 33
M  V30 37 1 9 34
M  V30 38 1 10 35
M  V30 39 1 10 36
M  V30 40 1 18 37
M  V30 41 1 18 38
M  V30 42 1 24 39
M  V30 43 1 29 40
M  V30 44 1 29 41
M  V30 45 1 29 42
M  V30 END BOND
M  V30 BEGIN COLLECTION
M  V30 MDLV30/STEABS ATOMS=(2 2 5)
M  V30 END COLLECTION
M  V30 END CTAB
M  END
>  <Structure No>
7467

>  <LogS>
-2.62

>  <MMFF94 Energy>
33.937

$$$$
Compound 7468
Actelion Java MolfileCreator 2.0

  0  0  0  0  0  0              0 V3000
M  V30 BEGIN CTAB
M  V30 COUNTS 70 72 0 0 0
M  V30 BEGIN ATOM
M  V30 1 S 1.8495 -2.1715 -2.8155 0
M  V30 2 C 2.7987 -1.6291 -1.3482 0
M  V30 3 C 0.502 -1.0042 -2.4613 0
M  V30 4 C 2.3886 -0.1428 -1.1633 0 CFG=1
M  V30 5 C 2.3748 -2.542 -0.1772 0
M  V30 6 C 4.2891 -1.81 -1.6954 0
M  V30 7 N 0.9409 -0.0909 -1.4138 0
M  V30 8 C 2.8052 0.6437 0.0812 0
M  V30 9 C -0.027 0.3897 -0.4586 0
M  V30 10 O 2.4578 1.8537 0.1373 0
M  V30 11 N 3.6006 0.0943 1.1495 0
M  V30 12 O 0.071 0.0433 0.749 0
M  V30 13 C -1.1241 1.353 -0.8534 0 CFG=1
M  V30 14 C 3.6188 0.6125 2.5328 0
M  V30 15 O -1.1328 1.5887 -2.2409 0
M  V30 16 C -2.5198 0.9163 -0.3148 0 CFG=2
M  V30 17 C 4.3219 1.9822 2.5778 0
M  V30 18 C 4.4031 -0.3714 3.4266 0
M  V30 19 C 2.1839 0.7311 3.0826 0
M  V30 20 N -2.8665 -0.4324 -0.7884 0
M  V30 21 C -3.6393 1.9021 -0.7158 0
M  V30 22 C -2.6483 -1.6167 0.001 0
M  V30 23 C -3.4347 3.2736 -0.123 0
M  V30 24 O -2.3575 -1.5011 1.2232 0
M  V30 25 C -2.773 -2.9791 -0.5825 0
M  V30 26 C -2.8876 4.3103 -0.8983 0
M  V30 27 C -3.757 3.5173 1.2225 0
M  V30 28 C -2.8819 -4.0955 0.2709 0
M  V30 29 C -2.7528 -3.1951 -1.976 0
M  V30 30 C -2.6742 5.5726 -0.3364 0
M  V30 31 C -3.5445 4.7823 1.7798 0
M  V30 32 C -2.9779 -5.3874 -0.2547 0
M  V30 33 C -2.849 -4.4899 -2.4951 0
M  V30 34 C -3.004 5.8091 1.0009 0
M  V30 35 C -2.963 -5.5843 -1.6363 0
M  V30 36 H -0.3786 -1.587 -2.1246 0
M  V30 37 H 0.2555 -0.4407 -3.3841 0
M  V30 38 H 2.8634 0.413 -2.003 0
M  V30 39 H 1.3186 -2.3551 0.1097 0
M  V30 40 H 3.0068 -2.4174 0.7199 0
M  V30 41 H 2.4601 -3.608 -0.4787 0
M  V30 42 H 4.5626 -1.1847 -2.573 0
M  V30 43 H 4.4912 -2.8717 -1.9557 0
M  V30 44 H 4.965 -1.544 -0.864 0
M  V30 45 H 4.2614 -0.6749 0.9279 0
M  V30 46 H -0.8631 2.316 -0.3654 0
M  V30 47 H -1.5851 0.8253 -2.6815 0
M  V30 48 H -2.4742 0.9167 0.7971 0
M  V30 49 H 5.3264 1.9124 2.1085 0
M  V30 50 H 3.739 2.7596 2.0447 0
M  V30 51 H 4.4474 2.3226 3.628 0
M  V30 52 H 3.9286 -1.376 3.4047 0
M  V30 53 H 5.4499 -0.475 3.0666 0
M  V30 54 H 4.4297 -0.0188 4.481 0
M  V30 55 H 1.6056 1.5028 2.5337 0
M  V30 56 H 2.1973 1.0206 4.1551 0
M  V30 57 H 1.655 -0.2409 2.9891 0
M  V30 58 H -3.3001 -0.5194 -1.7337 0
M  V30 59 H -3.715 1.9686 -1.8233 0
M  V30 60 H -4.6141 1.5027 -0.359 0
M  V30 61 H -2.6209 4.1394 -1.9339 0
M  V30 62 H -4.1707 2.7279 1.838 0
M  V30 63 H -2.897 -3.9712 1.3469 0
M  V30 64 H -2.638 -2.3789 -2.6743 0
M  V30 65 H -2.2509 6.3667 -0.9373 0
M  V30 66 H -3.7975 4.966 2.8161 0
M  V30 67 H -3.062 -6.2367 0.4106 0
M  V30 68 H -2.8285 -4.6456 -3.5661 0
M  V30 69 H -2.8394 6.7873 1.4338 0
M  V30 70 H -3.0336 -6.5855 -2.042 0
M  V30 END ATOM
M  V30 BEGIN BOND
M  V30 1 1 1 2
M  V30 2 1 1 3
M  V30 3 1 2 4
M  V30 4 1 2 5
M  V30 5 1 2 6
M  V30 6 1 3 7
M  V30 7 1 4 8
M  V30 8 1 7 9
M  V30 9 2 8 10
M  V30 10 1 8 11
M  V30 11 2 9 12
M  V30 12 1 9 13
M  V30 13 1 11 14
M  V30 14 1 13 15
M  V30 15 1 13 16
M  V30 16 1 14 17
M  V30 17 1 14 18
M  V30 18 1 14 19
M  V30 19 1 16 20
M  V30 20 1 16 21
M  V30 21 1 20 22
M  V30 22 1 21 23
M  V30 23 2 22 24
M  V30 24 1 22 25
M  V30 25 2 23 26
M  V30 26 1 23 27
M  V30 27 2 25 28
M  V30 28 1 25 29
M  V30 29 1 26 30
M  V30 30 2 27 31
M  V30 31 1 28 32
M  V30 32 2 29 33
M  V30 33 2 30 34
M  V30 34 2 32 35
M  V30 35 1 4 7
M  V30 36 1 31 34
M  V30 37 1 33 35
M  V30 38 1 3 36
M  V30 39 1 3 37
M  V30 40 1 4 38
M  V30 41 1 5 39
M  V30 42 1 5 40
M  V30 43 1 5 41
M  V30 44 1 6 42
M  V30 45 1 6 43
M  V30 46 1 6 44
M  V30 47 1 11 45
M  V30 48 1 13 46
M  V30 49 1 15 47
M  V30 50 1 16 48
M  V30 51 1 17 49
M  V30 52 1 17 50
M  V30 53 1 17 51
M  V30 54 1 18 52
M  V30 55 1 18 53
M  V30 56 1 18 54
M  V30 57 1 19 55
M  V30 58 1 19 56
M  V30 59 1 19 57
M  V30 60 1 20 58
M  V30 61 1 21 59
M  V30 62 1 21 60
M  V30 63 1 26 61
M  V30 64 1 27 62
M  V30 65 1 28 63
M  V30 66 1 29 64
M  V30 67 1 30 65
M  V30 68 1 31 66
M  V30 69 1 32 67
M  V30 70 1 33 68
M  V30 71 1 34 69
M  V30 72 1 35 70
M  V30 END BOND
M  V30 BEGIN COLLECTION
M  V30 MDLV30/STEABS ATOMS=(3 4 13 16)
M  V30 END COLLECTION
M  V30 END CTAB
M  END
>  <Structure No>
7468

>  <LogS>
-3.62

>  <MMFF94 Energy>
93.062

$$$$
Compound 7469
Actelion Java MolfileCreator 2.0

  0  0  0  0  0  0              0 V3000
M  V30 BEGIN CTAB
M  V30 COUNTS 26 27 0 0 0
M  V30 BEGIN ATOM
M  V30 1 S -0.9053 -2.5362 -0.181 0
M  V30 2 O -1.6816 -3.6058 -0.8963 0
M  V30 3 O -0.1784 -3.1678 0.973 0
M  V30 4 N 0.2473 -1.8446 -1.2705 0 CHG=-1
M  V30 5 C -2.0253 -1.2819 0.364 0
M  V30 6 C 1.0983 -0.7643 -0.8896 0
M  V30 7 C -2.9107 -0.7003 -0.5598 0
M  V30 8 C -2.029 -0.8336 1.6989 0
M  V30 9 S 2.2142 -0.0366 -1.9161 0
M  V30 10 N 1.0988 -0.2022 0.339 0
M  V30 11 F -2.914 -1.1024 -1.8562 0
M  V30 12 C -3.7941 0.3053 -0.1529 0
M  V30 13 F -1.1753 -1.3568 2.6141 0
M  V30 14 C -2.9155 0.173 2.0986 0
M  V30 15 C 2.6704 1.0184 -0.6839 0
M  V30 16 N 1.9767 0.7921 0.4531 0
M  V30 17 F -4.6465 0.8616 -1.0495 0
M  V30 18 C -3.7977 0.7407 1.175 0
M  V30 19 F -2.9162 0.6022 3.3855 0
M  V30 20 S 3.9003 2.2562 -0.8411 0
M  V30 21 F -4.654 1.7171 1.5664 0
M  V30 22 O 3.9298 3.0925 0.4071 0
M  V30 23 O 3.5774 3.1376 -2.0144 0
M  V30 24 N 5.4473 1.5198 -1.0705 0
M  V30 25 H 5.3827 0.9348 -1.9336 0
M  V30 26 H 5.5944 0.863 -0.2714 0
M  V30 END ATOM
M  V30 BEGIN BOND
M  V30 1 2 1 2
M  V30 2 2 1 3
M  V30 3 1 1 4
M  V30 4 1 1 5
M  V30 5 1 4 6
M  V30 6 2 5 7
M  V30 7 1 5 8
M  V30 8 1 6 9
M  V30 9 2 6 10
M  V30 10 1 7 11
M  V30 11 1 7 12
M  V30 12 1 8 13
M  V30 13 2 8 14
M  V30 14 1 9 15
M  V30 15 1 10 16
M  V30 16 1 12 17
M  V30 17 2 12 18
M  V30 18 1 14 19
M  V30 19 1 15 20
M  V30 20 1 18 21
M  V30 21 2 20 22
M  V30 22 2 20 23
M  V30 23 1 20 24
M  V30 24 1 14 18
M  V30 25 2 15 16
M  V30 26 1 24 25
M  V30 27 1 24 26
M  V30 END BOND
M  V30 END CTAB
M  END
>  <Structure No>
7469

>  <LogS>
-1.21

>  <MMFF94 Energy>
-12.6

$$$$
Compound 7470
Actelion Java MolfileCreator 2.0

  0  0  0  0  0  0              0 V3000
M  V30 BEGIN CTAB
M  V30 COUNTS 48 51 0 0 0
M  V30 BEGIN ATOM
M  V30 1 S 0.7507 2.5874 0.7507 0
M  V30 2 C -0.1377 1.1429 1.405 0 CFG=1
M  V30 3 C 1.9922 1.5421 -0.1155 0
M  V30 4 N 0.8138 0.3561 2.1418 0
M  V30 5 C -0.9569 1.3989 2.5647 0 CFG=2
M  V30 6 C 2.7747 0.6013 0.797 0
M  V30 7 C 2.171 0.0175 1.8675 0
M  V30 8 C -0.0282 0.5222 3.3489 0
M  V30 9 N -2.2934 0.8133 2.4547 0
M  V30 10 C 4.1944 0.2686 0.3896 0
M  V30 11 C 2.8518 -0.9065 2.7977 0
M  V30 12 O 0.0436 0.1395 4.544 0
M  V30 13 C -3.2798 1.3448 1.5594 0
M  V30 14 S 4.3477 -1.4835 -0.1066 0
M  V30 15 O 2.2099 -1.8655 3.2972 0
M  V30 16 O 4.178 -0.7183 3.1696 0 CHG=-1
M  V30 17 O -3.0332 2.3838 0.8807 0
M  V30 18 C -4.593 0.6325 1.3773 0 CFG=1
M  V30 19 C 3.7135 -1.234 -1.7708 0
M  V30 20 O -5.6478 1.5592 1.3278 0
M  V30 21 C -4.5377 -0.1966 0.1148 0
M  V30 22 N 2.4168 -1.3428 -2.1179 0
M  V30 23 N 4.4567 -0.9525 -2.8511 0
M  V30 24 C -5.1181 0.2484 -1.0882 0
M  V30 25 C -3.8299 -1.4147 0.1208 0
M  V30 26 N 2.3902 -1.1121 -3.4263 0
M  V30 27 N 3.6175 -0.8794 -3.8713 0
M  V30 28 C 5.9021 -0.778 -2.9322 0
M  V30 29 C -5.0141 -0.5237 -2.2502 0
M  V30 30 C -3.7277 -2.1774 -1.046 0
M  V30 31 C -4.3191 -1.7367 -2.2289 0
M  V30 32 H -0.6239 0.537 0.6064 0
M  V30 33 H 1.4666 0.9403 -0.8865 0
M  V30 34 H 2.6843 2.2294 -0.645 0
M  V30 35 H -0.9711 2.4513 2.9238 0
M  V30 36 H -2.5618 0.0261 3.0893 0
M  V30 37 H 4.892 0.4818 1.221 0
M  V30 38 H 4.5291 0.9141 -0.4524 0
M  V30 39 H -4.7673 -0.0568 2.2385 0
M  V30 40 H -5.7775 1.8981 2.2536 0
M  V30 41 H -5.6476 1.193 -1.1345 0
M  V30 42 H -3.3518 -1.7634 1.028 0
M  V30 43 H 6.2013 -0.5554 -3.9812 0
M  V30 44 H 6.4098 -1.7103 -2.5985 0
M  V30 45 H 6.2213 0.0682 -2.2839 0
M  V30 46 H -5.4694 -0.1817 -3.1694 0
M  V30 47 H -3.1806 -3.1167 -1.0324 0
M  V30 48 H -4.2385 -2.3297 -3.1301 0
M  V30 END ATOM
M  V30 BEGIN BOND
M  V30 1 1 1 2
M  V30 2 1 1 3
M  V30 3 1 2 4
M  V30 4 1 2 5
M  V30 5 1 3 6
M  V30 6 1 4 7
M  V30 7 1 4 8
M  V30 8 1 5 9
M  V30 9 1 6 10
M  V30 10 1 7 11
M  V30 11 2 8 12
M  V30 12 1 9 13
M  V30 13 1 10 14
M  V30 14 2 11 15
M  V30 15 1 11 16
M  V30 16 2 13 17
M  V30 17 1 13 18
M  V30 18 1 14 19
M  V30 19 1 18 20
M  V30 20 1 18 21
M  V30 21 2 19 22
M  V30 22 1 19 23
M  V30 23 2 21 24
M  V30 24 1 21 25
M  V30 25 1 22 26
M  V30 26 1 23 27
M  V30 27 1 23 28
M  V30 28 1 24 29
M  V30 29 2 25 30
M  V30 30 2 29 31
M  V30 31 1 5 8
M  V30 32 2 6 7
M  V30 33 2 26 27
M  V30 34 1 30 31
M  V30 35 1 2 32
M  V30 36 1 3 33
M  V30 37 1 3 34
M  V30 38 1 5 35
M  V30 39 1 9 36
M  V30 40 1 10 37
M  V30 41 1 10 38
M  V30 42 1 18 39
M  V30 43 1 20 40
M  V30 44 1 24 41
M  V30 45 1 25 42
M  V30 46 1 28 43
M  V30 47 1 28 44
M  V30 48 1 28 45
M  V30 49 1 29 46
M  V30 50 1 30 47
M  V30 51 1 31 48
M  V30 END BOND
M  V30 BEGIN COLLECTION
M  V30 MDLV30/STEABS ATOMS=(3 2 5 18)
M  V30 END COLLECTION
M  V30 END CTAB
M  END
>  <Structure No>
7470

>  <LogS>
-0.14

>  <MMFF94 Energy>
100.16

$$$$
Compound 7471
Actelion Java MolfileCreator 2.0

  0  0  0  0  0  0              0 V3000
M  V30 BEGIN CTAB
M  V30 COUNTS 42 45 0 0 0
M  V30 BEGIN ATOM
M  V30 1 F 4.4146 -0.4081 -2.369 0
M  V30 2 C 5.0546 -0.0615 -1.2232 0
M  V30 3 C 4.3312 0.1958 -0.0404 0
M  V30 4 C 6.4521 0.0012 -1.2209 0
M  V30 5 C 2.8491 0.1394 -0.023 0
M  V30 6 C 5.0369 0.5069 1.1368 0
M  V30 7 C 7.1401 0.3173 -0.0472 0
M  V30 8 C 2.176 -0.5409 1.0062 0
M  V30 9 C 2.0969 0.7839 -1.0201 0
M  V30 10 C 6.4332 0.5685 1.1305 0
M  V30 11 C 0.7794 -0.5905 1.0277 0
M  V30 12 C 0.7001 0.7347 -0.9971 0
M  V30 13 C 0.0317 0.0311 0.0151 0
M  V30 14 C -1.4471 0.0101 0.0446 0
M  V30 15 N -2.0907 1.2041 0.0014 0
M  V30 16 C -2.1969 -1.191 0.1113 0
M  V30 17 C -3.4385 1.3152 0.0692 0
M  V30 18 C -3.6111 -1.1113 0.226 0
M  V30 19 C -1.5051 -2.5369 0.0278 0
M  V30 20 C -4.2415 0.1601 0.2082 0
M  V30 21 C -4.0233 2.5864 0.0312 0
M  V30 22 C -4.4114 -2.3523 0.3535 0
M  V30 23 C -5.6386 0.3248 0.3483 0
M  V30 24 C -5.4064 2.7271 0.1464 0
M  V30 25 O -5.3427 -2.5966 -0.4584 0
M  V30 26 O -4.118 -3.2723 1.3526 0 CHG=-1
M  V30 27 C -6.2117 1.5998 0.3112 0
M  V30 28 F -7.5539 1.7422 0.4416 0
M  V30 29 H 7.0041 -0.2018 -2.1295 0
M  V30 30 H 4.5063 0.7175 2.0573 0
M  V30 31 H 8.2214 0.3644 -0.0497 0
M  V30 32 H 2.7315 -1.0413 1.7897 0
M  V30 33 H 2.5892 1.3421 -1.8067 0
M  V30 34 H 6.9676 0.8137 2.0393 0
M  V30 35 H 0.2817 -1.1064 1.8392 0
M  V30 36 H 0.1394 1.2411 -1.7735 0
M  V30 37 H -2.1231 -3.2709 -0.5297 0
M  V30 38 H -1.3126 -2.9229 1.0504 0
M  V30 39 H -0.5461 -2.472 -0.526 0
M  V30 40 H -3.4045 3.4687 -0.0784 0
M  V30 41 H -6.2976 -0.518 0.5001 0
M  V30 42 H -5.8529 3.713 0.1194 0
M  V30 END ATOM
M  V30 BEGIN BOND
M  V30 1 1 1 2
M  V30 2 2 2 3
M  V30 3 1 2 4
M  V30 4 1 3 5
M  V30 5 1 3 6
M  V30 6 2 4 7
M  V30 7 2 5 8
M  V30 8 1 5 9
M  V30 9 2 6 10
M  V30 10 1 8 11
M  V30 11 2 9 12
M  V30 12 2 11 13
M  V30 13 1 13 14
M  V30 14 2 14 15
M  V30 15 1 14 16
M  V30 16 1 15 17
M  V30 17 2 16 18
M  V30 18 1 16 19
M  V30 19 1 17 20
M  V30 20 2 17 21
M  V30 21 1 18 22
M  V30 22 2 20 23
M  V30 23 1 21 24
M  V30 24 2 22 25
M  V30 25 1 22 26
M  V30 26 1 23 27
M  V30 27 1 27 28
M  V30 28 1 7 10
M  V30 29 1 12 13
M  V30 30 1 18 20
M  V30 31 2 24 27
M  V30 32 1 4 29
M  V30 33 1 6 30
M  V30 34 1 7 31
M  V30 35 1 8 32
M  V30 36 1 9 33
M  V30 37 1 10 34
M  V30 38 1 11 35
M  V30 39 1 12 36
M  V30 40 1 19 37
M  V30 41 1 19 38
M  V30 42 1 19 39
M  V30 43 1 21 40
M  V30 44 1 23 41
M  V30 45 1 24 42
M  V30 END BOND
M  V30 END CTAB
M  END
>  <Structure No>
7471

>  <LogS>
-6.39

>  <MMFF94 Energy>
91.731

$$$$
Compound 7472
Actelion Java MolfileCreator 2.0

  0  0  0  0  0  0              0 V3000
M  V30 BEGIN CTAB
M  V30 COUNTS 38 40 0 0 0
M  V30 BEGIN ATOM
M  V30 1 S 0.5856 2.428 0.0 0
M  V30 2 C 0.5022 0.6457 -0.2754 0
M  V30 3 C -1.1564 2.3708 0.3888 0
M  V30 4 N 1.5492 -0.0972 -0.4955 0
M  V30 5 N -0.8144 0.0832 -0.2871 0
M  V30 6 N -1.7191 3.3291 1.0683 0
M  V30 7 C -1.7785 1.0994 0.0076 0
M  V30 8 C 2.9184 0.3275 -0.4517 0
M  V30 9 C -1.0059 -1.3094 0.0054 0
M  V30 10 C -3.1008 3.3792 1.5389 0
M  V30 11 N -3.045 1.0181 -0.2923 0
M  V30 12 C 3.7923 -0.0935 -1.4624 0
M  V30 13 C 3.4246 1.0656 0.6333 0
M  V30 14 C -1.3995 -1.7174 1.2903 0
M  V30 15 C -0.7279 -2.2759 -0.972 0
M  V30 16 F -3.9661 3.4862 0.4653 0
M  V30 17 F -3.2585 4.4901 2.3448 0
M  V30 18 F -3.3986 2.2481 2.2784 0
M  V30 19 C -3.7574 -0.1083 -0.8879 0
M  V30 20 C 5.143 0.2662 -1.4228 0
M  V30 21 C 4.7758 1.4236 0.6708 0
M  V30 22 C -1.5457 -3.077 1.581 0
M  V30 23 C -0.8757 -3.6349 -0.6783 0
M  V30 24 F -3.9071 -1.1258 0.0337 0
M  V30 25 F -5.0135 0.3167 -1.2744 0
M  V30 26 F -3.0856 -0.5687 -2.0058 0
M  V30 27 C 5.6333 1.0294 -0.3597 0
M  V30 28 C -1.287 -4.0351 0.5964 0
M  V30 29 H 3.4221 -0.6919 -2.2854 0
M  V30 30 H 2.7823 1.3431 1.4588 0
M  V30 31 H -1.5922 -0.9814 2.0609 0
M  V30 32 H -0.4028 -1.9727 -1.9591 0
M  V30 33 H 5.8103 -0.0505 -2.2138 0
M  V30 34 H 5.1604 1.9968 1.5045 0
M  V30 35 H -1.8562 -3.3882 2.5701 0
M  V30 36 H -0.6682 -4.3776 -1.4375 0
M  V30 37 H 6.6794 1.3048 -0.3283 0
M  V30 38 H -1.3997 -5.0873 0.8229 0
M  V30 END ATOM
M  V30 BEGIN BOND
M  V30 1 1 1 2
M  V30 2 1 1 3
M  V30 3 2 2 4
M  V30 4 1 2 5
M  V30 5 2 3 6
M  V30 6 1 3 7
M  V30 7 1 4 8
M  V30 8 1 5 9
M  V30 9 1 6 10
M  V30 10 2 7 11
M  V30 11 2 8 12
M  V30 12 1 8 13
M  V30 13 2 9 14
M  V30 14 1 9 15
M  V30 15 1 10 16
M  V30 16 1 10 17
M  V30 17 1 10 18
M  V30 18 1 11 19
M  V30 19 1 12 20
M  V30 20 2 13 21
M  V30 21 1 14 22
M  V30 22 2 15 23
M  V30 23 1 19 24
M  V30 24 1 19 25
M  V30 25 1 19 26
M  V30 26 2 20 27
M  V30 27 2 22 28
M  V30 28 1 5 7
M  V30 29 1 21 27
M  V30 30 1 23 28
M  V30 31 1 12 29
M  V30 32 1 13 30
M  V30 33 1 14 31
M  V30 34 1 15 32
M  V30 35 1 20 33
M  V30 36 1 21 34
M  V30 37 1 22 35
M  V30 38 1 23 36
M  V30 39 1 27 37
M  V30 40 1 28 38
M  V30 END BOND
M  V30 END CTAB
M  END
>  <Structure No>
7472

>  <LogS>
-5.42

>  <MMFF94 Energy>
-31.859

$$$$
Compound 7473
Actelion Java MolfileCreator 2.0

  0  0  0  0  0  0              0 V3000
M  V30 BEGIN CTAB
M  V30 COUNTS 73 75 0 0 0
M  V30 BEGIN ATOM
M  V30 1 S -2.4909 -1.3653 -2.7322 0
M  V30 2 C -3.8145 -0.9722 -1.5464 0
M  V30 3 C -1.2168 -1.036 -1.4748 0
M  V30 4 C -3.218 0.1001 -0.6022 0 CFG=2
M  V30 5 C -5.0307 -0.4233 -2.3093 0
M  V30 6 C -4.2043 -2.281 -0.8231 0
M  V30 7 N -1.7994 -0.2085 -0.4215 0
M  V30 8 C -3.9529 0.2016 0.7185 0
M  V30 9 C -0.9793 0.5608 0.4853 0
M  V30 10 O -3.6678 -0.5949 1.6525 0
M  V30 11 N -5.003 1.1736 0.8761 0
M  V30 12 O -1.3153 1.7458 0.7619 0
M  V30 13 C 0.2555 -0.0085 1.1535 0 CFG=1
M  V30 14 C -6.0316 1.1483 1.9363 0
M  V30 15 O 0.0096 -1.3297 1.5764 0
M  V30 16 C 1.5408 0.1166 0.2852 0 CFG=2
M  V30 17 C -7.0455 2.2829 1.6823 0
M  V30 18 C -6.7861 -0.1975 1.9055 0
M  V30 19 C -5.3873 1.3716 3.318 0
M  V30 20 N 2.6831 -0.4424 1.0179 0
M  V30 21 C 1.8378 1.5844 -0.0928 0
M  V30 22 C 3.3342 -1.6653 0.6256 0
M  V30 23 C 3.0931 1.6968 -0.9226 0
M  V30 24 O 2.8336 -2.3994 -0.2712 0
M  V30 25 C 4.6289 -2.0698 1.2607 0
M  V30 26 C 4.2929 2.1383 -0.3397 0
M  V30 27 C 3.0798 1.3262 -2.2785 0
M  V30 28 C 5.7763 -1.7733 0.331 0
M  V30 29 C 5.4575 2.2234 -1.1072 0
M  V30 30 C 4.2503 1.4013 -3.0391 0
M  V30 31 C 6.5478 -0.609 0.495 0
M  V30 32 C 6.0574 -2.6385 -0.7423 0
M  V30 33 C 5.4368 1.8516 -2.4544 0
M  V30 34 C 7.5982 -0.3289 -0.3893 0
M  V30 35 C 7.1036 -2.3478 -1.6284 0
M  V30 36 C 7.873 -1.1928 -1.4527 0
M  V30 37 H -0.8672 -2.0034 -1.0587 0
M  V30 38 H -0.3855 -0.4986 -1.9767 0
M  V30 39 H -3.2666 1.0917 -1.107 0
M  V30 40 H -5.8427 -0.1487 -1.6025 0
M  V30 41 H -5.4232 -1.1875 -3.0138 0
M  V30 42 H -4.752 0.4777 -2.8971 0
M  V30 43 H -5.0763 -2.1177 -0.1542 0
M  V30 44 H -3.3552 -2.6675 -0.2189 0
M  V30 45 H -4.4881 -3.0628 -1.5604 0
M  V30 46 H -5.0812 1.9004 0.1285 0
M  V30 47 H 0.4297 0.5867 2.0774 0
M  V30 48 H 0.3212 -1.9563 0.8698 0
M  V30 49 H 1.3957 -0.4456 -0.6584 0
M  V30 50 H -7.5225 2.1556 0.6873 0
M  V30 51 H -7.8436 2.2863 2.4593 0
M  V30 52 H -6.5339 3.2703 1.7012 0
M  V30 53 H -7.6462 -0.1828 2.6137 0
M  V30 54 H -7.1692 -0.3999 0.8805 0
M  V30 55 H -6.1229 -1.0368 2.2016 0
M  V30 56 H -4.8315 2.3325 3.34 0
M  V30 57 H -6.165 1.4022 4.1061 0
M  V30 58 H -4.686 0.5542 3.5785 0
M  V30 59 H 3.0362 0.0739 1.8556 0
M  V30 60 H 1.9265 2.2039 0.828 0
M  V30 61 H 0.9953 2.0014 -0.6852 0
M  V30 62 H 4.7636 -1.5429 2.2307 0
M  V30 63 H 4.603 -3.1598 1.4838 0
M  V30 64 H 4.3261 2.4178 0.7067 0
M  V30 65 H 2.1645 0.9779 -2.7416 0
M  V30 66 H 6.3795 2.5678 -0.6549 0
M  V30 67 H 4.2397 1.1143 -4.0826 0
M  V30 68 H 6.335 0.0849 1.3002 0
M  V30 69 H 5.463 -3.532 -0.8946 0
M  V30 70 H 6.3412 1.9086 -3.0458 0
M  V30 71 H 8.1901 0.5669 -0.2582 0
M  V30 72 H 7.3174 -3.0157 -2.4545 0
M  V30 73 H 8.6802 -0.9661 -2.1414 0
M  V30 END ATOM
M  V30 BEGIN BOND
M  V30 1 1 1 2
M  V30 2 1 1 3
M  V30 3 1 2 4
M  V30 4 1 2 5
M  V30 5 1 2 6
M  V30 6 1 3 7
M  V30 7 1 4 8
M  V30 8 1 7 9
M  V30 9 2 8 10
M  V30 10 1 8 11
M  V30 11 2 9 12
M  V30 12 1 9 13
M  V30 13 1 11 14
M  V30 14 1 13 15
M  V30 15 1 13 16
M  V30 16 1 14 17
M  V30 17 1 14 18
M  V30 18 1 14 19
M  V30 19 1 16 20
M  V30 20 1 16 21
M  V30 21 1 20 22
M  V30 22 1 21 23
M  V30 23 2 22 24
M  V30 24 1 22 25
M  V30 25 2 23 26
M  V30 26 1 23 27
M  V30 27 1 25 28
M  V30 28 1 26 29
M  V30 29 2 27 30
M  V30 30 2 28 31
M  V30 31 1 28 32
M  V30 32 2 29 33
M  V30 33 1 31 34
M  V30 34 2 32 35
M  V30 35 2 34 36
M  V30 36 1 4 7
M  V30 37 1 30 33
M  V30 38 1 35 36
M  V30 39 1 3 37
M  V30 40 1 3 38
M  V30 41 1 4 39
M  V30 42 1 5 40
M  V30 43 1 5 41
M  V30 44 1 5 42
M  V30 45 1 6 43
M  V30 46 1 6 44
M  V30 47 1 6 45
M  V30 48 1 11 46
M  V30 49 1 13 47
M  V30 50 1 15 48
M  V30 51 1 16 49
M  V30 52 1 17 50
M  V30 53 1 17 51
M  V30 54 1 17 52
M  V30 55 1 18 53
M  V30 56 1 18 54
M  V30 57 1 18 55
M  V30 58 1 19 56
M  V30 59 1 19 57
M  V30 60 1 19 58
M  V30 61 1 20 59
M  V30 62 1 21 60
M  V30 63 1 21 61
M  V30 64 1 25 62
M  V30 65 1 25 63
M  V30 66 1 26 64
M  V30 67 1 27 65
M  V30 68 1 29 66
M  V30 69 1 30 67
M  V30 70 1 31 68
M  V30 71 1 32 69
M  V30 72 1 33 70
M  V30 73 1 34 71
M  V30 74 1 35 72
M  V30 75 1 36 73
M  V30 END BOND
M  V30 BEGIN COLLECTION
M  V30 MDLV30/STEABS ATOMS=(3 4 13 16)
M  V30 END COLLECTION
M  V30 END CTAB
M  END
>  <Structure No>
7473

>  <LogS>
-3.72

>  <MMFF94 Energy>
100.71

$$$$
Compound 7474
Actelion Java MolfileCreator 2.0

  0  0  0  0  0  0              0 V3000
M  V30 BEGIN CTAB
M  V30 COUNTS 48 51 0 0 0
M  V30 BEGIN ATOM
M  V30 1 F 2.1978 -2.3608 1.4648 0
M  V30 2 C 0.9725 -1.9366 1.0646 0
M  V30 3 C 0.8175 -0.6814 0.4625 0
M  V30 4 C -0.1372 -2.7495 1.2924 0
M  V30 5 N 1.9604 0.1623 0.2373 0
M  V30 6 C -0.4633 -0.2457 0.0962 0
M  V30 7 C -1.4277 -2.3246 0.9228 0
M  V30 8 C 3.0829 -0.3027 -0.5824 0
M  V30 9 C 1.9662 1.5409 0.7397 0
M  V30 10 C -1.6003 -1.0584 0.3099 0
M  V30 11 C -2.553 -3.1363 1.1591 0
M  V30 12 C 4.4302 -0.0318 0.1358 0 CFG=2
M  V30 13 C 3.3771 2.139 0.6592 0
M  V30 14 N -2.8614 -0.644 -0.0537 0
M  V30 15 O -2.4087 -4.2657 1.7043 0
M  V30 16 C -3.8351 -2.6872 0.7898 0
M  V30 17 N 4.377 1.1361 1.056 0 CHG=1
M  V30 18 C 5.5607 0.1204 -0.8937 0
M  V30 19 C -3.0876 0.622 -0.6989 0
M  V30 20 C -3.9537 -1.4276 0.1825 0
M  V30 21 C -5.0554 -3.5074 1.0226 0
M  V30 22 C -2.8174 0.779 -2.0685 0
M  V30 23 C -3.5877 1.7059 0.0379 0
M  V30 24 O -6.1883 -3.076 0.6788 0
M  V30 25 O -4.9754 -4.7595 1.621 0 CHG=-1
M  V30 26 F -2.3409 -0.2626 -2.795 0
M  V30 27 C -3.0374 2.0133 -2.6885 0
M  V30 28 C -3.8065 2.9379 -0.5857 0
M  V30 29 C -3.5306 3.0923 -1.9478 0
M  V30 30 F -3.7427 4.2878 -2.551 0
M  V30 31 H 0.0172 -3.7107 1.7674 0
M  V30 32 H -0.5591 0.7265 -0.3659 0
M  V30 33 H 3.0448 0.2389 -1.5532 0
M  V30 34 H 2.9917 -1.3863 -0.815 0
M  V30 35 H 1.263 2.1671 0.151 0
M  V30 36 H 1.6386 1.5419 1.8025 0
M  V30 37 H 4.6682 -0.9376 0.7394 0
M  V30 38 H 3.5814 2.4924 -0.3762 0
M  V30 39 H 3.4392 3.0218 1.3332 0
M  V30 40 H 5.3115 1.6037 1.1209 0
M  V30 41 H 4.1438 0.7997 2.0207 0
M  V30 42 H 6.5415 0.188 -0.377 0
M  V30 43 H 5.412 1.0378 -1.5022 0
M  V30 44 H 5.5859 -0.7612 -1.569 0
M  V30 45 H -4.935 -1.0706 -0.1129 0
M  V30 46 H -3.8013 1.5931 1.0933 0
M  V30 47 H -2.826 2.1335 -3.7432 0
M  V30 48 H -4.1894 3.7724 -0.0124 0
M  V30 END ATOM
M  V30 BEGIN BOND
M  V30 1 1 1 2
M  V30 2 2 2 3
M  V30 3 1 2 4
M  V30 4 1 3 5
M  V30 5 1 3 6
M  V30 6 2 4 7
M  V30 7 1 5 8
M  V30 8 1 5 9
M  V30 9 2 6 10
M  V30 10 1 7 11
M  V30 11 1 8 12
M  V30 12 1 9 13
M  V30 13 1 10 14
M  V30 14 2 11 15
M  V30 15 1 11 16
M  V30 16 1 12 17
M  V30 17 1 12 18
M  V30 18 1 14 19
M  V30 19 1 14 20
M  V30 20 1 16 21
M  V30 21 2 19 22
M  V30 22 1 19 23
M  V30 23 2 21 24
M  V30 24 1 21 25
M  V30 25 1 22 26
M  V30 26 1 22 27
M  V30 27 2 23 28
M  V30 28 2 27 29
M  V30 29 1 29 30
M  V30 30 1 7 10
M  V30 31 1 13 17
M  V30 32 2 16 20
M  V30 33 1 28 29
M  V30 34 1 4 31
M  V30 35 1 6 32
M  V30 36 1 8 33
M  V30 37 1 8 34
M  V30 38 1 9 35
M  V30 39 1 9 36
M  V30 40 1 12 37
M  V30 41 1 13 38
M  V30 42 1 13 39
M  V30 43 1 17 40
M  V30 44 1 17 41
M  V30 45 1 18 42
M  V30 46 1 18 43
M  V30 47 1 18 44
M  V30 48 1 20 45
M  V30 49 1 23 46
M  V30 50 1 27 47
M  V30 51 1 28 48
M  V30 END BOND
M  V30 BEGIN COLLECTION
M  V30 MDLV30/STEABS ATOMS=(1 12)
M  V30 END COLLECTION
M  V30 END CTAB
M  END
>  <Structure No>
7474

>  <LogS>
-3.8

>  <MMFF94 Energy>
131.68

$$$$
Compound 7475
Actelion Java MolfileCreator 2.0

  0  0  0  0  0  0              0 V3000
M  V30 BEGIN CTAB
M  V30 COUNTS 73 75 0 0 0
M  V30 BEGIN ATOM
M  V30 1 S -3.054 0.0802 -3.5368 0
M  V30 2 C -3.3313 -1.1287 -2.1994 0
M  V30 3 C -1.3088 0.2594 -3.054 0
M  V30 4 C -2.3635 -0.737 -1.0533 0 CFG=1
M  V30 5 C -4.8166 -1.1188 -1.7843 0
M  V30 6 C -2.9753 -2.5327 -2.7337 0
M  V30 7 N -1.1523 -0.2112 -1.6795 0
M  V30 8 C -2.9328 0.3146 -0.1251 0
M  V30 9 C 0.0919 -0.1226 -0.9534 0
M  V30 10 O -3.0792 1.4945 -0.5457 0
M  V30 11 N -3.3379 -0.0447 1.2079 0
M  V30 12 O 0.1266 -0.4999 0.2479 0
M  V30 13 C 1.337 0.4899 -1.5774 0 CFG=1
M  V30 14 C -4.1155 0.821 2.1157 0
M  V30 15 O 1.3692 1.8756 -1.3395 0
M  V30 16 C 2.6718 -0.1769 -1.1376 0 CFG=1
M  V30 17 C -4.4051 0.0497 3.4214 0
M  V30 18 C -3.3097 2.0893 2.4635 0
M  V30 19 C -5.461 1.1971 1.4637 0
M  V30 20 N 2.9355 0.0554 0.288 0
M  V30 21 C 2.7187 -1.6942 -1.4312 0
M  V30 22 C 3.6852 1.1829 0.7675 0
M  V30 23 C 2.5848 -2.0001 -2.9021 0
M  V30 24 O 4.2889 1.9309 -0.0512 0
M  V30 25 C 3.7741 1.4659 2.2172 0
M  V30 26 C 1.3786 -2.5087 -3.4158 0
M  V30 27 C 3.6543 -1.7483 -3.7779 0
M  V30 28 C 2.7136 1.1433 3.0812 0
M  V30 29 C 4.9247 2.0778 2.7467 0
M  V30 30 C 1.2455 -2.7598 -4.7845 0
M  V30 31 C 3.5168 -1.9979 -5.1475 0
M  V30 32 C 2.8123 1.4152 4.4513 0
M  V30 33 C 5.0233 2.3419 4.1163 0
M  V30 34 C 2.3135 -2.5031 -5.6498 0
M  V30 35 C 3.9745 2.0 4.9795 0
M  V30 36 C 4.0705 2.3134 6.444 0
M  V30 37 H -1.0185 1.3264 -3.1254 0
M  V30 38 H -0.6857 -0.3507 -3.739 0
M  V30 39 H -2.1101 -1.6464 -0.4639 0
M  V30 40 H -5.1673 -0.0837 -1.5768 0
M  V30 41 H -5.4499 -1.5287 -2.5989 0
M  V30 42 H -4.9701 -1.738 -0.8729 0
M  V30 43 H -1.9034 -2.5919 -3.0232 0
M  V30 44 H -3.5858 -2.7764 -3.6275 0
M  V30 45 H -3.1709 -3.3034 -1.9611 0
M  V30 46 H -3.1007 -1.0099 1.5287 0
M  V30 47 H 1.2847 0.3615 -2.6777 0
M  V30 48 H 1.2634 2.0215 -0.363 0
M  V30 49 H 3.4905 0.2864 -1.7324 0
M  V30 50 H -5.0184 0.6643 4.1167 0
M  V30 51 H -3.4574 -0.2167 3.9382 0
M  V30 52 H -4.962 -0.8894 3.2035 0
M  V30 53 H -2.2926 1.8125 2.8149 0
M  V30 54 H -3.8143 2.6644 3.2681 0
M  V30 55 H -3.207 2.7607 1.5876 0
M  V30 56 H -6.0091 0.2784 1.1588 0
M  V30 57 H -5.3131 1.8326 0.5683 0
M  V30 58 H -6.0987 1.7641 2.1769 0
M  V30 59 H 2.597 -0.6514 0.9808 0
M  V30 60 H 1.9306 -2.224 -0.8525 0
M  V30 61 H 3.6918 -2.0974 -1.0746 0
M  V30 62 H 0.5451 -2.7081 -2.7569 0
M  V30 63 H 4.5905 -1.3565 -3.4005 0
M  V30 64 H 1.7985 0.7022 2.7039 0
M  V30 65 H 5.7566 2.3341 2.1061 0
M  V30 66 H 0.317 -3.1543 -5.1771 0
M  V30 67 H 4.3409 -1.7958 -5.821 0
M  V30 68 H 1.9819 1.1619 5.102 0
M  V30 69 H 5.9188 2.8106 4.503 0
M  V30 70 H 2.2113 -2.6993 -6.7092 0
M  V30 71 H 3.7391 3.3546 6.6215 0
M  V30 72 H 3.4266 1.6269 7.0404 0
M  V30 73 H 5.1185 2.2047 6.7969 0
M  V30 END ATOM
M  V30 BEGIN BOND
M  V30 1 1 1 2
M  V30 2 1 1 3
M  V30 3 1 2 4
M  V30 4 1 2 5
M  V30 5 1 2 6
M  V30 6 1 3 7
M  V30 7 1 4 8
M  V30 8 1 7 9
M  V30 9 2 8 10
M  V30 10 1 8 11
M  V30 11 2 9 12
M  V30 12 1 9 13
M  V30 13 1 11 14
M  V30 14 1 13 15
M  V30 15 1 13 16
M  V30 16 1 14 17
M  V30 17 1 14 18
M  V30 18 1 14 19
M  V30 19 1 16 20
M  V30 20 1 16 21
M  V30 21 1 20 22
M  V30 22 1 21 23
M  V30 23 2 22 24
M  V30 24 1 22 25
M  V30 25 2 23 26
M  V30 26 1 23 27
M  V30 27 2 25 28
M  V30 28 1 25 29
M  V30 29 1 26 30
M  V30 30 2 27 31
M  V30 31 1 28 32
M  V30 32 2 29 33
M  V30 33 2 30 34
M  V30 34 2 32 35
M  V30 35 1 35 36
M  V30 36 1 4 7
M  V30 37 1 31 34
M  V30 38 1 33 35
M  V30 39 1 3 37
M  V30 40 1 3 38
M  V30 41 1 4 39
M  V30 42 1 5 40
M  V30 43 1 5 41
M  V30 44 1 5 42
M  V30 45 1 6 43
M  V30 46 1 6 44
M  V30 47 1 6 45
M  V30 48 1 11 46
M  V30 49 1 13 47
M  V30 50 1 15 48
M  V30 51 1 16 49
M  V30 52 1 17 50
M  V30 53 1 17 51
M  V30 54 1 17 52
M  V30 55 1 18 53
M  V30 56 1 18 54
M  V30 57 1 18 55
M  V30 58 1 19 56
M  V30 59 1 19 57
M  V30 60 1 19 58
M  V30 61 1 20 59
M  V30 62 1 21 60
M  V30 63 1 21 61
M  V30 64 1 26 62
M  V30 65 1 27 63
M  V30 66 1 28 64
M  V30 67 1 29 65
M  V30 68 1 30 66
M  V30 69 1 31 67
M  V30 70 1 32 68
M  V30 71 1 33 69
M  V30 72 1 34 70
M  V30 73 1 36 71
M  V30 74 1 36 72
M  V30 75 1 36 73
M  V30 END BOND
M  V30 BEGIN COLLECTION
M  V30 MDLV30/STEABS ATOMS=(3 4 13 16)
M  V30 END COLLECTION
M  V30 END CTAB
M  END
>  <Structure No>
7475

>  <LogS>
-4.11

>  <MMFF94 Energy>
86.323

$$$$
Compound 7476
Actelion Java MolfileCreator 2.0

  0  0  0  0  0  0              0 V3000
M  V30 BEGIN CTAB
M  V30 COUNTS 49 51 0 0 0
M  V30 BEGIN ATOM
M  V30 1 O -6.247 3.0792 1.2956 0
M  V30 2 C -6.8691 2.111 0.7838 0
M  V30 3 N -8.2173 2.0242 0.9259 0
M  V30 4 C -6.1875 1.1231 0.0701 0
M  V30 5 C -8.922 0.9916 0.3865 0
M  V30 6 N -4.8391 1.162 -0.1006 0
M  V30 7 C -6.9264 0.063 -0.4799 0
M  V30 8 N -8.2756 0.0159 -0.313 0
M  V30 9 N -10.3383 0.9367 0.5582 0
M  V30 10 C -4.1919 0.1944 -0.8058 0
M  V30 11 N -6.278 -0.9103 -1.1726 0
M  V30 12 C -4.9297 -0.871 -1.344 0
M  V30 13 C -2.6985 0.2443 -0.9429 0
M  V30 14 N -2.0561 -0.5485 0.1072 0
M  V30 15 C -0.6275 -0.6733 0.24 0
M  V30 16 C 0.2586 -0.0423 -0.6525 0
M  V30 17 C -0.1002 -1.4474 1.2841 0
M  V30 18 C 1.6411 -0.1797 -0.4954 0
M  V30 19 C 1.2813 -1.5857 1.4411 0
M  V30 20 C 2.1684 -0.9448 0.5595 0
M  V30 21 C 3.6327 -1.1013 0.7354 0
M  V30 22 O 4.076 -2.0969 1.3713 0
M  V30 23 N 4.551 -0.128 0.2097 0
M  V30 24 C 6.0034 -0.3079 0.2814 0 CFG=2
M  V30 25 C 6.4923 0.1697 1.6196 0
M  V30 26 C 6.6817 0.4471 -0.8828 0
M  V30 27 O 6.3263 1.3686 1.9693 0
M  V30 28 O 7.1165 -0.7171 2.4875 0 CHG=-1
M  V30 29 C 8.1541 0.0561 -1.0977 0
M  V30 30 C 9.0595 0.6617 -0.0692 0
M  V30 31 O 9.6687 -0.0735 0.7517 0
M  V30 32 O 9.232 2.0394 -0.0178 0 CHG=-1
M  V30 33 H -8.8194 -0.7763 -0.7245 0
M  V30 34 H -10.8955 0.1538 0.1503 0
M  V30 35 H -10.8333 1.6833 1.0946 0
M  V30 36 H -4.4369 -1.6632 -1.8925 0
M  V30 37 H -2.3604 1.3006 -0.8679 0
M  V30 38 H -2.4032 -0.148 -1.9402 0
M  V30 39 H -2.6598 -1.0465 0.8021 0
M  V30 40 H -0.1082 0.5535 -1.4768 0
M  V30 41 H -0.7625 -1.9453 1.9815 0
M  V30 42 H 2.2911 0.297 -1.217 0
M  V30 43 H 1.6559 -2.1854 2.2613 0
M  V30 44 H 4.186 0.8105 -0.0697 0
M  V30 45 H 6.239 -1.3902 0.1729 0
M  V30 46 H 6.1348 0.1951 -1.8181 0
M  V30 47 H 6.5888 1.5473 -0.7449 0
M  V30 48 H 8.4775 0.4238 -2.0949 0
M  V30 49 H 8.2608 -1.0506 -1.1044 0
M  V30 END ATOM
M  V30 BEGIN BOND
M  V30 1 2 1 2
M  V30 2 1 2 3
M  V30 3 1 2 4
M  V30 4 2 3 5
M  V30 5 2 4 6
M  V30 6 1 4 7
M  V30 7 1 5 8
M  V30 8 1 5 9
M  V30 9 1 6 10
M  V30 10 2 7 11
M  V30 11 2 10 12
M  V30 12 1 10 13
M  V30 13 1 13 14
M  V30 14 1 14 15
M  V30 15 2 15 16
M  V30 16 1 15 17
M  V30 17 1 16 18
M  V30 18 2 17 19
M  V30 19 2 18 20
M  V30 20 1 20 21
M  V30 21 2 21 22
M  V30 22 1 21 23
M  V30 23 1 23 24
M  V30 24 1 24 25
M  V30 25 1 24 26
M  V30 26 2 25 27
M  V30 27 1 25 28
M  V30 28 1 26 29
M  V30 29 1 29 30
M  V30 30 2 30 31
M  V30 31 1 30 32
M  V30 32 1 7 8
M  V30 33 1 11 12
M  V30 34 1 19 20
M  V30 35 1 8 33
M  V30 36 1 9 34
M  V30 37 1 9 35
M  V30 38 1 12 36
M  V30 39 1 13 37
M  V30 40 1 13 38
M  V30 41 1 14 39
M  V30 42 1 16 40
M  V30 43 1 17 41
M  V30 44 1 18 42
M  V30 45 1 19 43
M  V30 46 1 23 44
M  V30 47 1 24 45
M  V30 48 1 26 46
M  V30 49 1 26 47
M  V30 50 1 29 48
M  V30 51 1 29 49
M  V30 END BOND
M  V30 BEGIN COLLECTION
M  V30 MDLV30/STEABS ATOMS=(1 24)
M  V30 END COLLECTION
M  V30 END CTAB
M  END
>  <Structure No>
7476

>  <LogS>
-5.44

>  <MMFF94 Energy>
118.66

$$$$
Compound 7477
Actelion Java MolfileCreator 2.0

  0  0  0  0  0  0              0 V3000
M  V30 BEGIN CTAB
M  V30 COUNTS 45 49 0 0 0
M  V30 BEGIN ATOM
M  V30 1 F 1.8901 2.8773 -1.8078 0
M  V30 2 C 0.7883 2.3015 -1.2671 0
M  V30 3 C 0.8185 1.0084 -0.7069 0
M  V30 4 C -0.4094 3.0189 -1.2749 0
M  V30 5 N -0.3287 0.4945 -0.1855 0
M  V30 6 N 2.0199 0.2087 -0.661 0
M  V30 7 C -1.5772 2.4616 -0.7282 0
M  V30 8 C -1.5119 1.1697 -0.1697 0
M  V30 9 C 2.0297 -1.13 -0.0887 0
M  V30 10 C 3.328 0.6188 -1.1521 0
M  V30 11 C -2.8027 3.1509 -0.729 0
M  V30 12 N -2.6305 0.5937 0.3722 0
M  V30 13 C 3.4591 -1.6371 -0.1996 0 CFG=1
M  V30 14 C 4.2757 -0.5373 -0.8685 0 CFG=2
M  V30 15 O -2.8714 4.3096 -1.2255 0
M  V30 16 C -3.9494 2.5418 -0.177 0
M  V30 17 C -2.5714 -0.725 0.9495 0
M  V30 18 C -3.8275 1.2521 0.3667 0
M  V30 19 C 4.5017 -0.8668 0.6031 0 CFG=2
M  V30 20 C -5.2736 3.2191 -0.1526 0
M  V30 21 C -1.7762 -0.9762 2.0831 0
M  V30 22 C -3.3132 -1.7743 0.3826 0
M  V30 23 N 5.7297 -1.6185 0.8673 0 CHG=1
M  V30 24 O -5.4208 4.376 -0.6285 0
M  V30 25 O -6.3785 2.5806 0.3999 0 CHG=-1
M  V30 26 F -1.0727 0.0276 2.6651 0
M  V30 27 C -1.7168 -2.2631 2.6277 0
M  V30 28 C -3.2512 -3.0585 0.9317 0
M  V30 29 C -2.4519 -3.3036 2.0521 0
M  V30 30 F -2.3924 -4.5498 2.5826 0
M  V30 31 H -0.4199 4.0101 -1.7122 0
M  V30 32 H 1.3506 -1.7927 -0.6664 0
M  V30 33 H 1.713 -1.0997 0.9764 0
M  V30 34 H 3.2834 0.7968 -2.2474 0
M  V30 35 H 3.6759 1.5305 -0.6207 0
M  V30 36 H 3.6888 -2.6592 -0.5704 0
M  V30 37 H 4.9904 -0.9073 -1.6348 0
M  V30 38 H -4.6977 0.7716 0.8005 0
M  V30 39 H 4.148 -0.1401 1.3679 0
M  V30 40 H -3.9299 -1.5955 -0.4892 0
M  V30 41 H 5.9776 -2.2745 0.0903 0
M  V30 42 H 6.5126 -0.9398 1.003 0
M  V30 43 H 5.6013 -2.1665 1.7478 0
M  V30 44 H -1.1028 -2.453 3.4987 0
M  V30 45 H -3.8218 -3.8636 0.4867 0
M  V30 END ATOM
M  V30 BEGIN BOND
M  V30 1 1 1 2
M  V30 2 2 2 3
M  V30 3 1 2 4
M  V30 4 1 3 5
M  V30 5 1 3 6
M  V30 6 2 4 7
M  V30 7 2 5 8
M  V30 8 1 6 9
M  V30 9 1 6 10
M  V30 10 1 7 11
M  V30 11 1 8 12
M  V30 12 1 9 13
M  V30 13 1 10 14
M  V30 14 2 11 15
M  V30 15 1 11 16
M  V30 16 1 12 17
M  V30 17 1 12 18
M  V30 18 1 13 19
M  V30 19 1 16 20
M  V30 20 2 17 21
M  V30 21 1 17 22
M  V30 22 1 19 23
M  V30 23 2 20 24
M  V30 24 1 20 25
M  V30 25 1 21 26
M  V30 26 1 21 27
M  V30 27 2 22 28
M  V30 28 2 27 29
M  V30 29 1 29 30
M  V30 30 1 7 8
M  V30 31 1 13 14
M  V30 32 1 14 19
M  V30 33 2 16 18
M  V30 34 1 28 29
M  V30 35 1 4 31
M  V30 36 1 9 32
M  V30 37 1 9 33
M  V30 38 1 10 34
M  V30 39 1 10 35
M  V30 40 1 13 36
M  V30 41 1 14 37
M  V30 42 1 18 38
M  V30 43 1 19 39
M  V30 44 1 22 40
M  V30 45 1 23 41
M  V30 46 1 23 42
M  V30 47 1 23 43
M  V30 48 1 27 44
M  V30 49 1 28 45
M  V30 END BOND
M  V30 BEGIN COLLECTION
M  V30 MDLV30/STEABS ATOMS=(3 13 14 19)
M  V30 END COLLECTION
M  V30 END CTAB
M  END
>  <Structure No>
7477

>  <LogS>
-4.53

>  <MMFF94 Energy>
5.9235

$$$$
Compound 7478
Actelion Java MolfileCreator 2.0

  0  0  0  0  0  0              0 V3000
M  V30 BEGIN CTAB
M  V30 COUNTS 32 33 0 0 0
M  V30 BEGIN ATOM
M  V30 1 Cl 6.4716 2.0083 0.349 0
M  V30 2 C 4.931 1.1605 0.428 0
M  V30 3 C 4.5152 0.2507 -0.5719 0
M  V30 4 C 4.0782 1.4595 1.4973 0
M  V30 5 N 5.3661 -0.0919 -1.6815 0 CHG=1
M  V30 6 C 3.2346 -0.3259 -0.4767 0
M  V30 7 C 2.8168 0.8695 1.585 0
M  V30 8 O 4.8668 -0.468 -2.7623 0
M  V30 9 O 6.7309 -0.1632 -1.5257 0 CHG=-1
M  V30 10 C 2.391 -0.028 0.6008 0
M  V30 11 S 0.791 -0.7558 0.695 0
M  V30 12 O 0.3395 -0.7995 2.1286 0
M  V30 13 O 0.8476 -2.1563 0.1513 0
M  V30 14 N -0.3116 0.1995 -0.2415 0
M  V30 15 C -1.575 -0.0709 -0.3844 0
M  V30 16 S -2.3897 -1.3846 0.2999 0
M  V30 17 N -2.4166 0.6924 -1.1232 0
M  V30 18 C -3.8333 -0.8855 -0.4134 0
M  V30 19 N -3.6704 0.2415 -1.1407 0
M  V30 20 C -2.0196 1.8986 -1.8432 0
M  V30 21 S -5.3639 -1.7189 -0.2441 0
M  V30 22 O -5.3199 -3.0093 -1.0123 0
M  V30 23 O -6.4672 -0.8543 -0.7868 0
M  V30 24 N -5.6635 -2.0429 1.4274 0
M  V30 25 H 4.389 2.1631 2.2595 0
M  V30 26 H 2.8976 -1.0192 -1.2373 0
M  V30 27 H 2.1702 1.1215 2.416 0
M  V30 28 H -1.6184 2.6479 -1.1283 0
M  V30 29 H -1.2391 1.6489 -2.5925 0
M  V30 30 H -2.8926 2.3397 -2.37 0
M  V30 31 H -5.7213 -1.1193 1.9122 0
M  V30 32 H -6.6118 -2.4765 1.4898 0
M  V30 END ATOM
M  V30 BEGIN BOND
M  V30 1 1 1 2
M  V30 2 2 2 3
M  V30 3 1 2 4
M  V30 4 1 3 5
M  V30 5 1 3 6
M  V30 6 2 4 7
M  V30 7 2 5 8
M  V30 8 1 5 9
M  V30 9 2 6 10
M  V30 10 1 10 11
M  V30 11 2 11 12
M  V30 12 2 11 13
M  V30 13 1 11 14
M  V30 14 2 14 15
M  V30 15 1 15 16
M  V30 16 1 15 17
M  V30 17 1 16 18
M  V30 18 1 17 19
M  V30 19 1 17 20
M  V30 20 1 18 21
M  V30 21 2 21 22
M  V30 22 2 21 23
M  V30 23 1 21 24
M  V30 24 1 7 10
M  V30 25 2 18 19
M  V30 26 1 4 25
M  V30 27 1 6 26
M  V30 28 1 7 27
M  V30 29 1 20 28
M  V30 30 1 20 29
M  V30 31 1 20 30
M  V30 32 1 24 31
M  V30 33 1 24 32
M  V30 END BOND
M  V30 END CTAB
M  END
>  <Structure No>
7478

>  <LogS>
-2.47

>  <MMFF94 Energy>
21.826

$$$$
Compound 7479
Actelion Java MolfileCreator 2.0

  0  0  0  0  0  0              0 V3000
M  V30 BEGIN CTAB
M  V30 COUNTS 41 43 0 0 0
M  V30 BEGIN ATOM
M  V30 1 S -4.3435 2.3371 1.0846 0
M  V30 2 O -5.483 2.6616 2.0086 0
M  V30 3 O -4.8004 2.5218 -0.3355 0
M  V30 4 N -3.0231 3.4139 1.3999 0 CHG=-1
M  V30 5 C -3.8374 0.6731 1.3653 0
M  V30 6 C -1.7142 3.2033 0.8683 0
M  V30 7 C -3.3564 0.297 2.6276 0
M  V30 8 C -3.8704 -0.2706 0.3271 0
M  V30 9 N -1.4528 2.1279 0.0777 0
M  V30 10 N -0.72 4.0799 1.1655 0
M  V30 11 C -2.9167 -1.0119 2.8509 0
M  V30 12 C -3.4288 -1.5783 0.5529 0
M  V30 13 C -0.2077 1.8925 -0.4126 0
M  V30 14 C 0.536 3.9014 0.68 0
M  V30 15 C -2.9532 -1.9492 1.8142 0
M  V30 16 N 0.0045 0.7523 -1.2589 0
M  V30 17 C 0.8208 2.8031 -0.1307 0
M  V30 18 C 1.2461 0.0354 -1.3695 0
M  V30 19 C 1.555 -0.625 -2.5678 0
M  V30 20 C 2.1251 -0.0802 -0.2776 0
M  V30 21 C 2.7428 -1.3521 -2.6909 0
M  V30 22 C 3.3135 -0.8057 -0.4024 0
M  V30 23 C 3.6329 -1.4353 -1.6121 0
M  V30 24 S 5.1257 -2.3577 -1.7541 0
M  V30 25 O 6.2383 -1.6211 -1.0621 0
M  V30 26 O 5.4892 -2.5321 -3.2025 0
M  V30 27 N 4.914 -3.9082 -1.0205 0
M  V30 28 H -3.3148 1.0187 3.4339 0
M  V30 29 H -4.2272 0.0034 -0.657 0
M  V30 30 H -2.5447 -1.2986 3.8262 0
M  V30 31 H -3.452 -2.3033 -0.2502 0
M  V30 32 H 1.3122 4.6164 0.9181 0
M  V30 33 H -2.6111 -2.9615 1.9873 0
M  V30 34 H -0.8113 0.408 -1.8153 0
M  V30 35 H 1.8143 2.678 -0.5406 0
M  V30 36 H 0.8766 -0.569 -3.4099 0
M  V30 37 H 1.8856 0.3735 0.6751 0
M  V30 38 H 2.9633 -1.8512 -3.6257 0
M  V30 39 H 3.9801 -0.8842 0.4468 0
M  V30 40 H 5.7959 -4.4449 -1.1798 0
M  V30 41 H 4.1617 -4.3979 -1.5551 0
M  V30 END ATOM
M  V30 BEGIN BOND
M  V30 1 2 1 2
M  V30 2 2 1 3
M  V30 3 1 1 4
M  V30 4 1 1 5
M  V30 5 1 4 6
M  V30 6 2 5 7
M  V30 7 1 5 8
M  V30 8 2 6 9
M  V30 9 1 6 10
M  V30 10 1 7 11
M  V30 11 2 8 12
M  V30 12 1 9 13
M  V30 13 2 10 14
M  V30 14 2 11 15
M  V30 15 1 13 16
M  V30 16 2 13 17
M  V30 17 1 16 18
M  V30 18 2 18 19
M  V30 19 1 18 20
M  V30 20 1 19 21
M  V30 21 2 20 22
M  V30 22 2 21 23
M  V30 23 1 23 24
M  V30 24 2 24 25
M  V30 25 2 24 26
M  V30 26 1 24 27
M  V30 27 1 12 15
M  V30 28 1 14 17
M  V30 29 1 22 23
M  V30 30 1 7 28
M  V30 31 1 8 29
M  V30 32 1 11 30
M  V30 33 1 12 31
M  V30 34 1 14 32
M  V30 35 1 15 33
M  V30 36 1 16 34
M  V30 37 1 17 35
M  V30 38 1 19 36
M  V30 39 1 20 37
M  V30 40 1 21 38
M  V30 41 1 22 39
M  V30 42 1 27 40
M  V30 43 1 27 41
M  V30 END BOND
M  V30 END CTAB
M  END
>  <Structure No>
7479

>  <LogS>
-2.55

>  <MMFF94 Energy>
-68.25

$$$$
Compound 7480
Actelion Java MolfileCreator 2.0

  0  0  0  0  0  0              0 V3000
M  V30 BEGIN CTAB
M  V30 COUNTS 147 154 0 0 0
M  V30 BEGIN ATOM
M  V30 1 O 3.7189 4.6908 -0.7267 0
M  V30 2 C 2.3199 4.9424 -0.7661 0 CFG=2
M  V30 3 C 4.1265 3.4787 -0.0983 0 CFG=2
M  V30 4 O 1.7775 5.0265 0.539 0
M  V30 5 C 1.5245 3.9522 -1.6533 0 CFG=2
M  V30 6 C 4.226 3.6405 1.4472 0 CFG=1
M  V30 7 C 5.4932 3.0508 -0.7289 0 CFG=2
M  V30 8 C 0.4336 5.5002 0.5465 0 CFG=2
M  V30 9 O 2.1007 3.8398 -2.9311 0
M  V30 10 C 0.0608 4.4268 -1.7426 0 CFG=2
M  V30 11 O 2.9936 3.2915 2.0278 0
M  V30 12 C 5.3263 2.7506 2.0684 0 CFG=2
M  V30 13 O 6.2002 1.9923 -0.0805 0
M  V30 14 C 6.453 4.2454 -0.9167 0
M  V30 15 C -0.511 4.6255 -0.3237 0 CFG=2
M  V30 16 C 0.3402 7.0168 0.2495 0
M  V30 17 O -0.7152 3.5121 -2.4797 0
M  V30 18 O 6.4971 3.495 2.2953 0
M  V30 19 C 5.6596 1.5635 1.1555 0 CFG=2
M  V30 20 O 7.6945 3.8128 -1.4101 0
M  V30 21 O -1.7908 5.2444 -0.4036 0
M  V30 22 O 1.3475 7.7163 0.9302 0
M  V30 23 O 4.5165 0.7438 0.956 0
M  V30 24 C -2.8466 4.3588 -0.0731 0 CFG=2
M  V30 25 C 4.8608 -0.5372 0.4316 0 CFG=2
M  V30 26 O -4.0284 4.8311 -0.7176 0
M  V30 27 C -3.0046 4.2641 1.4665 0 CFG=1
M  V30 28 C 4.6933 -0.5563 -1.1002 0 CFG=2
M  V30 29 C 3.9929 -1.6723 1.0792 0 CFG=2
M  V30 30 C -5.2542 4.4336 -0.0993 0 CFG=2
M  V30 31 O -3.3208 5.5304 1.9922 0
M  V30 32 C -4.108 3.233 1.8116 0 CFG=2
M  V30 33 O 3.3565 -0.2711 -1.4311 0
M  V30 34 C 5.1058 -1.9375 -1.6577 0 CFG=1
M  V30 35 O 3.6788 -2.725 0.1705 0
M  V30 36 C 2.661 -1.1539 1.6573 0
M  V30 37 C -5.1668 3.0945 0.6812 0 CFG=2
M  V30 38 C -6.3673 4.3965 -1.1585 0
M  V30 39 O -4.7076 3.5202 3.0533 0
M  V30 40 O 6.4812 -1.9309 -1.9382 0
M  V30 41 C 4.7905 -3.0662 -0.6429 0 CFG=1
M  V30 42 O 2.8772 -0.4078 2.8248 0
M  V30 43 O -4.7662 2.0777 -0.2239 0
M  V30 44 O -6.0679 3.4868 -2.1832 0
M  V30 45 O 4.6426 -4.3042 -1.3327 0
M  V30 46 C -5.4542 0.8571 -0.0233 0 CFG=2
M  V30 47 C 3.3203 -4.8033 -1.5412 0 CFG=2
M  V30 48 O -5.1603 0.375 1.2865 0
M  V30 49 C -5.002 -0.1019 -1.1589 0 CFG=2
M  V30 50 C 2.3389 -3.8176 -2.2372 0 CFG=1
M  V30 51 C 2.6867 -5.4962 -0.2951 0 CFG=2
M  V30 52 C -5.4205 -1.0049 1.4702 0 CFG=2
M  V30 53 O -6.0977 -0.7971 -1.6998 0
M  V30 54 C -3.9653 -1.0983 -0.6425 0 CFG=2
M  V30 55 O 2.6803 -3.6962 -3.5934 0
M  V30 56 C 0.8804 -4.3016 -2.0933 0 CFG=1
M  V30 57 O 1.6603 -4.6846 0.2453 0
M  V30 58 C 3.6889 -5.8654 0.8085 0
M  V30 59 C -4.5302 -1.9006 0.5571 0 CFG=1
M  V30 60 C -6.9259 -1.3422 1.4009 0
M  V30 61 O -2.8041 -0.3938 -0.2722 0
M  V30 62 O 0.6088 -5.3552 -2.9896 0
M  V30 63 C 0.5228 -4.6699 -0.6096 0 CFG=2
M  V30 64 O 4.6865 -6.7004 0.2895 0
M  V30 65 O -3.454 -2.4088 1.3374 0
M  V30 66 O -7.6536 -0.4664 2.2133 0
M  V30 67 O -0.1323 -5.9345 -0.5471 0
M  V30 68 C -3.0979 -3.7305 0.9699 0 CFG=1
M  V30 69 C -1.4464 -5.9008 -0.0045 0 CFG=1
M  V30 70 O -2.667 -3.7439 -0.3768 0
M  V30 71 C -1.9422 -4.1675 1.8793 0 CFG=2
M  V30 72 C -1.4428 -5.5892 1.5311 0 CFG=1
M  V30 73 C -2.4321 -5.0497 -0.8718 0 CFG=2
M  V30 74 O -2.2962 -4.0657 3.2398 0
M  V30 75 O -2.1587 -6.5691 2.245 0
M  V30 76 C -3.7405 -5.772 -1.2787 0
M  V30 77 O -4.3707 -6.368 -0.1774 0
M  V30 78 H 2.248 5.9387 -1.2487 0
M  V30 79 H 3.429 2.6451 -0.3145 0
M  V30 80 H 1.5136 2.9455 -1.1878 0
M  V30 81 H 4.4485 4.7106 1.6692 0
M  V30 82 H 5.2545 2.6892 -1.7527 0
M  V30 83 H 0.0762 5.3868 1.5927 0
M  V30 84 H 2.0878 4.7406 -3.3474 0
M  V30 85 H 0.026 5.3997 -2.2811 0
M  V30 86 H 2.9504 3.744 2.9114 0
M  V30 87 H 4.9771 2.34 3.0469 0
M  V30 88 H 6.6187 4.7541 0.056 0
M  V30 89 H 6.0194 4.9931 -1.6169 0
M  V30 90 H -0.5341 3.6229 0.1723 0
M  V30 91 H 0.4413 7.2188 -0.837 0
M  V30 92 H -0.6594 7.4024 0.5534 0
M  V30 93 H -0.7115 2.6476 -1.9903 0
M  V30 94 H 6.3086 4.1111 3.0517 0
M  V30 95 H 6.4529 0.9983 1.7012 0
M  V30 96 H 7.538 3.505 -2.3393 0
M  V30 97 H 1.0713 7.7566 1.8823 0
M  V30 98 H -2.6391 3.3439 -0.4872 0
M  V30 99 H 5.9252 -0.8065 0.642 0
M  V30 100 H -2.0545 3.9045 1.9257 0
M  V30 101 H 5.3535 0.216 -1.5581 0
M  V30 102 H 4.5649 -2.1086 1.9279 0
M  V30 103 H -5.5481 5.2304 0.62 0
M  V30 104 H -2.469 6.0342 2.0637 0
M  V30 105 H -3.6019 2.2505 1.9244 0
M  V30 106 H 3.3464 -0.0166 -2.3899 0
M  V30 107 H 4.5511 -2.1093 -2.6073 0
M  V30 108 H 2.1465 -0.5131 0.9097 0
M  V30 109 H 1.9782 -2.007 1.8677 0
M  V30 110 H -6.1687 2.8973 1.1368 0
M  V30 111 H -6.5183 5.4147 -1.5834 0
M  V30 112 H -7.3264 4.093 -0.6823 0
M  V30 113 H -5.3063 4.3027 2.9298 0
M  V30 114 H 6.6654 -2.7318 -2.4971 0
M  V30 115 H 5.6807 -3.2029 0.0159 0
M  V30 116 H 2.9382 -1.0568 3.5711 0
M  V30 117 H -5.4261 3.9407 -2.7918 0
M  V30 118 H -6.5522 1.0366 -0.114 0
M  V30 119 H 3.4606 -5.6318 -2.2708 0
M  V30 120 H -4.5224 0.481 -1.9811 0
M  V30 121 H 2.3773 -2.8176 -1.7649 0
M  V30 122 H 2.2624 -6.4744 -0.621 0
M  V30 123 H -5.138 -1.2289 2.5228 0
M  V30 124 H -6.6206 -0.1403 -2.2313 0
M  V30 125 H -3.729 -1.7955 -1.4818 0
M  V30 126 H 2.2334 -2.8773 -3.9317 0
M  V30 127 H 0.2228 -3.4574 -2.3984 0
M  V30 128 H 4.1443 -4.961 1.2592 0
M  V30 129 H 3.1379 -6.4023 1.6136 0
M  V30 130 H -5.1703 -2.7221 0.1471 0
M  V30 131 H -7.0797 -2.3853 1.7565 0
M  V30 132 H -7.3053 -1.2812 0.3606 0
M  V30 133 H -2.0394 -1.0189 -0.3605 0
M  V30 134 H 1.1167 -6.1538 -2.6906 0
M  V30 135 H -0.1157 -3.844 -0.2457 0
M  V30 136 H 5.2505 -6.9648 1.0607 0
M  V30 137 H -8.6038 -0.734 2.13 0
M  V30 138 H -3.9749 -4.3942 1.1386 0
M  V30 139 H -1.7881 -6.9547 -0.0984 0
M  V30 140 H -1.101 -3.462 1.7179 0
M  V30 141 H -0.3969 -5.6664 1.89 0
M  V30 142 H -1.9273 -4.8954 -1.8484 0
M  V30 143 H -3.1195 -4.6027 3.3853 0
M  V30 144 H -3.0911 -6.5802 1.9065 0
M  V30 145 H -4.4373 -5.0434 -1.745 0
M  V30 146 H -3.4922 -6.5444 -2.0467 0
M  V30 147 H -4.8163 -7.1931 -0.5068 0
M  V30 END ATOM
M  V30 BEGIN BOND
M  V30 1 1 1 2
M  V30 2 1 1 3
M  V30 3 1 2 4
M  V30 4 1 2 5
M  V30 5 1 3 6
M  V30 6 1 3 7
M  V30 7 1 4 8
M  V30 8 1 5 9
M  V30 9 1 5 10
M  V30 10 1 6 11
M  V30 11 1 6 12
M  V30 12 1 7 13
M  V30 13 1 7 14
M  V30 14 1 8 15
M  V30 15 1 8 16
M  V30 16 1 10 17
M  V30 17 1 12 18
M  V30 18 1 12 19
M  V30 19 1 14 20
M  V30 20 1 15 21
M  V30 21 1 16 22
M  V30 22 1 19 23
M  V30 23 1 21 24
M  V30 24 1 23 25
M  V30 25 1 24 26
M  V30 26 1 24 27
M  V30 27 1 25 28
M  V30 28 1 25 29
M  V30 29 1 26 30
M  V30 30 1 27 31
M  V30 31 1 27 32
M  V30 32 1 28 33
M  V30 33 1 28 34
M  V30 34 1 29 35
M  V30 35 1 29 36
M  V30 36 1 30 37
M  V30 37 1 30 38
M  V30 38 1 32 39
M  V30 39 1 34 40
M  V30 40 1 34 41
M  V30 41 1 36 42
M  V30 42 1 37 43
M  V30 43 1 38 44
M  V30 44 1 41 45
M  V30 45 1 43 46
M  V30 46 1 45 47
M  V30 47 1 46 48
M  V30 48 1 46 49
M  V30 49 1 47 50
M  V30 50 1 47 51
M  V30 51 1 48 52
M  V30 52 1 49 53
M  V30 53 1 49 54
M  V30 54 1 50 55
M  V30 55 1 50 56
M  V30 56 1 51 57
M  V30 57 1 51 58
M  V30 58 1 52 59
M  V30 59 1 52 60
M  V30 60 1 54 61
M  V30 61 1 56 62
M  V30 62 1 56 63
M  V30 63 1 58 64
M  V30 64 1 59 65
M  V30 65 1 60 66
M  V30 66 1 63 67
M  V30 67 1 65 68
M  V30 68 1 67 69
M  V30 69 1 68 70
M  V30 70 1 68 71
M  V30 71 1 69 72
M  V30 72 1 69 73
M  V30 73 1 71 74
M  V30 74 1 72 75
M  V30 75 1 73 76
M  V30 76 1 76 77
M  V30 77 1 10 15
M  V30 78 1 13 19
M  V30 79 1 32 37
M  V30 80 1 35 41
M  V30 81 1 54 59
M  V30 82 1 57 63
M  V30 83 1 70 73
M  V30 84 1 71 72
M  V30 85 1 2 78
M  V30 86 1 3 79
M  V30 87 1 5 80
M  V30 88 1 6 81
M  V30 89 1 7 82
M  V30 90 1 8 83
M  V30 91 1 9 84
M  V30 92 1 10 85
M  V30 93 1 11 86
M  V30 94 1 12 87
M  V30 95 1 14 88
M  V30 96 1 14 89
M  V30 97 1 15 90
M  V30 98 1 16 91
M  V30 99 1 16 92
M  V30 100 1 17 93
M  V30 101 1 18 94
M  V30 102 1 19 95
M  V30 103 1 20 96
M  V30 104 1 22 97
M  V30 105 1 24 98
M  V30 106 1 25 99
M  V30 107 1 27 100
M  V30 108 1 28 101
M  V30 109 1 29 102
M  V30 110 1 30 103
M  V30 111 1 31 104
M  V30 112 1 32 105
M  V30 113 1 33 106
M  V30 114 1 34 107
M  V30 115 1 36 108
M  V30 116 1 36 109
M  V30 117 1 37 110
M  V30 118 1 38 111
M  V30 119 1 38 112
M  V30 120 1 39 113
M  V30 121 1 40 114
M  V30 122 1 41 115
M  V30 123 1 42 116
M  V30 124 1 44 117
M  V30 125 1 46 118
M  V30 126 1 47 119
M  V30 127 1 49 120
M  V30 128 1 50 121
M  V30 129 1 51 122
M  V30 130 1 52 123
M  V30 131 1 53 124
M  V30 132 1 54 125
M  V30 133 1 55 126
M  V30 134 1 56 127
M  V30 135 1 58 128
M  V30 136 1 58 129
M  V30 137 1 59 130
M  V30 138 1 60 131
M  V30 139 1 60 132
M  V30 140 1 61 133
M  V30 141 1 62 134
M  V30 142 1 63 135
M  V30 143 1 64 136
M  V30 144 1 66 137
M  V30 145 1 68 138
M  V30 146 1 69 139
M  V30 147 1 71 140
M  V30 148 1 72 141
M  V30 149 1 73 142
M  V30 150 1 74 143
M  V30 151 1 75 144
M  V30 152 1 76 145
M  V30 153 1 76 146
M  V30 154 1 77 147
M  V30 END BOND
M  V30 BEGIN COLLECTION
M  V30 MDLV30/STEABS ATOMS=(35 2 3 5 6 7 8 10 12 15 19 24 25 27 28 29 30 32 34 37 41 46 47 49 50 51 52 54 56 59 63 68 69 71 72 73)
M  V30 END COLLECTION
M  V30 END CTAB
M  END
>  <Structure No>
7480

>  <LogS>
-1.84

>  <MMFF94 Energy>
682.48

$$$$
Compound 7481
Actelion Java MolfileCreator 2.0

  0  0  0  0  0  0              0 V3000
M  V30 BEGIN CTAB
M  V30 COUNTS 74 76 0 0 0
M  V30 BEGIN ATOM
M  V30 1 S -1.8476 -2.6517 1.5261 0
M  V30 2 C -2.5775 -1.0909 2.1219 0
M  V30 3 C -1.1098 -1.8077 0.0935 0
M  V30 4 C -2.8371 -0.2129 0.8695 0 CFG=1
M  V30 5 C -3.848 -1.3973 2.9386 0
M  V30 6 C -1.5469 -0.4027 3.0394 0
M  V30 7 N -1.7944 -0.5318 -0.1042 0
M  V30 8 C -4.204 -0.4117 0.2451 0
M  V30 9 C -1.5133 0.3541 -1.21 0
M  V30 10 O -5.0875 0.4648 0.4396 0
M  V30 11 N -4.4993 -1.5877 -0.5334 0
M  V30 12 O -2.3837 1.1948 -1.5634 0
M  V30 13 C -0.1797 0.3653 -1.9263 0 CFG=2
M  V30 14 C -5.7587 -1.8232 -1.2673 0
M  V30 15 O 0.1389 -0.924 -2.3803 0
M  V30 16 C 0.9516 0.9026 -1.0179 0 CFG=1
M  V30 17 C -5.9951 -0.6976 -2.2935 0
M  V30 18 C -5.6541 -3.1621 -2.0281 0
M  V30 19 C -6.9401 -1.9099 -0.2812 0
M  V30 20 N 2.2353 0.7888 -1.7189 0
M  V30 21 C 0.7091 2.3732 -0.6138 0
M  V30 22 C 3.0878 -0.3577 -1.5927 0
M  V30 23 C 1.7885 2.8663 0.3163 0
M  V30 24 O 2.781 -1.2972 -0.8107 0
M  V30 25 C 4.3202 -0.4726 -2.4394 0
M  V30 26 C 2.8727 3.61 -0.1808 0
M  V30 27 C 1.7468 2.5393 1.6822 0
M  V30 28 O 5.3865 -1.083 -1.7114 0
M  V30 29 C 3.8915 4.0304 0.6797 0
M  V30 30 C 2.7688 2.9612 2.5385 0
M  V30 31 C 6.11 -0.4742 -0.6722 0
M  V30 32 C 3.8399 3.7067 2.0381 0
M  V30 33 C 7.1421 -1.2045 -0.0684 0
M  V30 34 C 5.8404 0.8344 -0.2216 0
M  V30 35 C 7.8979 -0.6441 0.9654 0
M  V30 36 C 6.5999 1.3923 0.8129 0
M  V30 37 C 7.6276 0.654 1.4053 0
M  V30 38 H -1.2374 -2.4511 -0.802 0
M  V30 39 H -0.033 -1.6492 0.2961 0
M  V30 40 H -2.7448 0.8609 1.1536 0
M  V30 41 H -4.5599 -2.0169 2.3522 0
M  V30 42 H -3.5912 -1.968 3.8567 0
M  V30 43 H -4.3519 -0.4526 3.2384 0
M  V30 44 H -1.9611 0.5418 3.4548 0
M  V30 45 H -0.6185 -0.1612 2.4789 0
M  V30 46 H -1.273 -1.067 3.8864 0
M  V30 47 H -3.7586 -2.3183 -0.592 0
M  V30 48 H -0.2508 1.0439 -2.8104 0
M  V30 49 H -0.4696 -1.1205 -3.1398 0
M  V30 50 H 0.9888 0.3072 -0.0817 0
M  V30 51 H -6.1778 0.2768 -1.7957 0
M  V30 52 H -6.8837 -0.9242 -2.9235 0
M  V30 53 H -5.1091 -0.5894 -2.9565 0
M  V30 54 H -4.8008 -3.1354 -2.7402 0
M  V30 55 H -6.5836 -3.3709 -2.6009 0
M  V30 56 H -5.4843 -4.0004 -1.3194 0
M  V30 57 H -7.1382 -0.9321 0.2004 0
M  V30 58 H -7.869 -2.2155 -0.8087 0
M  V30 59 H -6.7241 -2.6559 0.512 0
M  V30 60 H 2.461 1.4962 -2.4557 0
M  V30 61 H 0.6605 3.0143 -1.5218 0
M  V30 62 H -0.2702 2.4698 -0.098 0
M  V30 63 H 4.641 0.5205 -2.8205 0
M  V30 64 H 4.0809 -1.1095 -3.316 0
M  V30 65 H 2.9309 3.858 -1.2337 0
M  V30 66 H 0.927 1.9554 2.0819 0
M  V30 67 H 4.7273 4.5981 0.2903 0
M  V30 68 H 2.7305 2.7076 3.5899 0
M  V30 69 H 4.6344 4.0276 2.7005 0
M  V30 70 H 7.3581 -2.2106 -0.4041 0
M  V30 71 H 5.0515 1.4276 -0.6624 0
M  V30 72 H 8.6941 -1.2159 1.4245 0
M  V30 73 H 6.3955 2.3996 1.1532 0
M  V30 74 H 8.2145 1.0874 2.2043 0
M  V30 END ATOM
M  V30 BEGIN BOND
M  V30 1 1 1 2
M  V30 2 1 1 3
M  V30 3 1 2 4
M  V30 4 1 2 5
M  V30 5 1 2 6
M  V30 6 1 3 7
M  V30 7 1 4 8
M  V30 8 1 7 9
M  V30 9 2 8 10
M  V30 10 1 8 11
M  V30 11 2 9 12
M  V30 12 1 9 13
M  V30 13 1 11 14
M  V30 14 1 13 15
M  V30 15 1 13 16
M  V30 16 1 14 17
M  V30 17 1 14 18
M  V30 18 1 14 19
M  V30 19 1 16 20
M  V30 20 1 16 21
M  V30 21 1 20 22
M  V30 22 1 21 23
M  V30 23 2 22 24
M  V30 24 1 22 25
M  V30 25 2 23 26
M  V30 26 1 23 27
M  V30 27 1 25 28
M  V30 28 1 26 29
M  V30 29 2 27 30
M  V30 30 1 28 31
M  V30 31 2 29 32
M  V30 32 2 31 33
M  V30 33 1 31 34
M  V30 34 1 33 35
M  V30 35 2 34 36
M  V30 36 2 35 37
M  V30 37 1 4 7
M  V30 38 1 30 32
M  V30 39 1 36 37
M  V30 40 1 3 38
M  V30 41 1 3 39
M  V30 42 1 4 40
M  V30 43 1 5 41
M  V30 44 1 5 42
M  V30 45 1 5 43
M  V30 46 1 6 44
M  V30 47 1 6 45
M  V30 48 1 6 46
M  V30 49 1 11 47
M  V30 50 1 13 48
M  V30 51 1 15 49
M  V30 52 1 16 50
M  V30 53 1 17 51
M  V30 54 1 17 52
M  V30 55 1 17 53
M  V30 56 1 18 54
M  V30 57 1 18 55
M  V30 58 1 18 56
M  V30 59 1 19 57
M  V30 60 1 19 58
M  V30 61 1 19 59
M  V30 62 1 20 60
M  V30 63 1 21 61
M  V30 64 1 21 62
M  V30 65 1 25 63
M  V30 66 1 25 64
M  V30 67 1 26 65
M  V30 68 1 27 66
M  V30 69 1 29 67
M  V30 70 1 30 68
M  V30 71 1 32 69
M  V30 72 1 33 70
M  V30 73 1 34 71
M  V30 74 1 35 72
M  V30 75 1 36 73
M  V30 76 1 37 74
M  V30 END BOND
M  V30 BEGIN COLLECTION
M  V30 MDLV30/STEABS ATOMS=(3 4 13 16)
M  V30 END COLLECTION
M  V30 END CTAB
M  END
>  <Structure No>
7481

>  <LogS>
-3.83

>  <MMFF94 Energy>
115.16

$$$$
Compound 7482
Actelion Java MolfileCreator 2.0

  0  0  0  0  0  0              0 V3000
M  V30 BEGIN CTAB
M  V30 COUNTS 44 46 0 0 0
M  V30 BEGIN ATOM
M  V30 1 S 4.5754 1.662 -5.0755 0
M  V30 2 O 4.4537 2.9584 -5.8268 0
M  V30 3 O 3.7511 0.6191 -5.7769 0
M  V30 4 N 6.2295 1.1622 -5.0413 0
M  V30 5 C 3.9938 1.8729 -3.4275 0
M  V30 6 C 3.3916 0.8057 -2.7489 0
M  V30 7 C 4.1625 3.1003 -2.7738 0
M  V30 8 C 2.9415 0.9702 -1.4355 0
M  V30 9 C 3.7135 3.2656 -1.4603 0
M  V30 10 C 3.0803 2.2105 -0.7869 0
M  V30 11 N 2.648 2.3982 0.5713 0
M  V30 12 C 1.473 1.79 1.1318 0
M  V30 13 N 0.5283 1.2313 0.3263 0
M  V30 14 C 1.2664 1.8119 2.5153 0
M  V30 15 C -0.5998 0.6756 0.8399 0
M  V30 16 C 0.1034 1.2379 3.0266 0
M  V30 17 N -0.8047 0.6819 2.1846 0
M  V30 18 N -1.5598 0.0919 -0.0416 0 CHG=-1
M  V30 19 S -3.0161 -0.6578 0.5193 0
M  V30 20 O -3.7603 0.294 1.4137 0
M  V30 21 O -3.8786 -0.9916 -0.6649 0
M  V30 22 C -2.6163 -2.1565 1.4025 0
M  V30 23 C -3.8669 -2.8096 1.9198 0
M  V30 24 C -4.5648 -3.7347 1.1255 0
M  V30 25 C -4.3776 -2.4621 3.1817 0
M  V30 26 C -5.7455 -4.3176 1.5965 0
M  V30 27 C -5.5587 -3.0472 3.6489 0
M  V30 28 C -6.241 -3.9756 2.8578 0
M  V30 29 H 6.5532 1.1085 -6.033 0
M  V30 30 H 6.7714 1.932 -4.5884 0
M  V30 31 H 3.28 -0.1569 -3.2308 0
M  V30 32 H 4.645 3.9278 -3.2782 0
M  V30 33 H 2.5108 0.1218 -0.9208 0
M  V30 34 H 3.8507 4.2203 -0.9682 0
M  V30 35 H 3.1752 3.0819 1.1612 0
M  V30 36 H 1.9924 2.2601 3.1817 0
M  V30 37 H -0.0787 1.2359 4.0929 0
M  V30 38 H -2.0738 -2.8447 0.72 0
M  V30 39 H -1.9336 -1.9138 2.2442 0
M  V30 40 H -4.196 -4.0017 0.1429 0
M  V30 41 H -3.8631 -1.7375 3.8008 0
M  V30 42 H -6.2779 -5.0321 0.9824 0
M  V30 43 H -5.9466 -2.7786 4.6229 0
M  V30 44 H -7.1556 -4.4267 3.2204 0
M  V30 END ATOM
M  V30 BEGIN BOND
M  V30 1 2 1 2
M  V30 2 2 1 3
M  V30 3 1 1 4
M  V30 4 1 1 5
M  V30 5 2 5 6
M  V30 6 1 5 7
M  V30 7 1 6 8
M  V30 8 2 7 9
M  V30 9 2 8 10
M  V30 10 1 10 11
M  V30 11 1 11 12
M  V30 12 2 12 13
M  V30 13 1 12 14
M  V30 14 1 13 15
M  V30 15 2 14 16
M  V30 16 2 15 17
M  V30 17 1 15 18
M  V30 18 1 18 19
M  V30 19 2 19 20
M  V30 20 2 19 21
M  V30 21 1 19 22
M  V30 22 1 22 23
M  V30 23 2 23 24
M  V30 24 1 23 25
M  V30 25 1 24 26
M  V30 26 2 25 27
M  V30 27 2 26 28
M  V30 28 1 9 10
M  V30 29 1 16 17
M  V30 30 1 27 28
M  V30 31 1 4 29
M  V30 32 1 4 30
M  V30 33 1 6 31
M  V30 34 1 7 32
M  V30 35 1 8 33
M  V30 36 1 9 34
M  V30 37 1 11 35
M  V30 38 1 14 36
M  V30 39 1 16 37
M  V30 40 1 22 38
M  V30 41 1 22 39
M  V30 42 1 24 40
M  V30 43 1 25 41
M  V30 44 1 26 42
M  V30 45 1 27 43
M  V30 46 1 28 44
M  V30 END BOND
M  V30 END CTAB
M  END
>  <Structure No>
7482

>  <LogS>
-2.7

>  <MMFF94 Energy>
-50.563

$$$$
Compound 7483
Actelion Java MolfileCreator 2.0

  0  0  0  0  0  0              0 V3000
M  V30 BEGIN CTAB
M  V30 COUNTS 70 72 0 0 0
M  V30 BEGIN ATOM
M  V30 1 Cl 4.7033 6.0851 0.8097 0
M  V30 2 C 4.1653 4.4514 0.4574 0
M  V30 3 C 3.1993 3.8402 1.2651 0
M  V30 4 C 4.6975 3.7604 -0.6348 0
M  V30 5 C 2.7742 2.5358 0.9894 0
M  V30 6 C 4.2752 2.4558 -0.9138 0
M  V30 7 C 3.3178 1.8256 -0.0967 0
M  V30 8 C 2.8904 0.4399 -0.3954 0
M  V30 9 O 2.9248 0.0416 -1.5897 0
M  V30 10 N 2.4877 -0.4504 0.6649 0
M  V30 11 C 1.9866 -1.8315 0.5224 0 CFG=1
M  V30 12 C 0.793 -1.9867 -0.459 0 CFG=2
M  V30 13 C 3.1245 -2.8662 0.3305 0
M  V30 14 O 1.2034 -1.8679 -1.795 0
M  V30 15 C -0.2887 -0.971 -0.154 0
M  V30 16 C 4.0613 -2.5925 -0.8194 0
M  V30 17 O -0.2403 0.153 -0.7249 0
M  V30 18 N -1.3374 -1.2352 0.8042 0
M  V30 19 C 5.1825 -1.7636 -0.6366 0
M  V30 20 C 3.8437 -3.1848 -2.0756 0
M  V30 21 C -2.2911 -0.1966 1.1955 0 CFG=1
M  V30 22 C -1.5639 -2.5541 1.3882 0
M  V30 23 C 6.0471 -1.5022 -1.703 0
M  V30 24 C 4.7154 -2.9257 -3.1372 0
M  V30 25 C -3.2754 0.0294 0.069 0
M  V30 26 C -2.9612 -0.6675 2.5129 0
M  V30 27 S -3.0581 -2.4859 2.4231 0
M  V30 28 C 5.8124 -2.0811 -2.9526 0
M  V30 29 O -3.692 -0.9564 -0.5981 0
M  V30 30 N -3.7648 1.3566 -0.1957 0
M  V30 31 C -4.3737 -0.0897 2.7352 0
M  V30 32 C -2.0756 -0.2917 3.7165 0
M  V30 33 C -4.7763 1.6976 -1.2153 0
M  V30 34 C -4.2538 1.3394 -2.6201 0
M  V30 35 C -5.0507 3.2156 -1.1636 0
M  V30 36 C -6.0969 0.9554 -0.9277 0
M  V30 37 H 2.7738 4.3765 2.1042 0
M  V30 38 H 5.4421 4.2304 -1.2664 0
M  V30 39 H 2.005 2.0967 1.6132 0
M  V30 40 H 4.7105 1.9332 -1.7569 0
M  V30 41 H 2.5888 -0.1074 1.6464 0
M  V30 42 H 1.5564 -2.1 1.5148 0
M  V30 43 H 0.3874 -3.014 -0.3207 0
M  V30 44 H 2.6797 -3.8794 0.2172 0
M  V30 45 H 3.7208 -2.9071 1.2694 0
M  V30 46 H 0.4605 -2.2118 -2.3588 0
M  V30 47 H 5.3757 -1.3072 0.3263 0
M  V30 48 H 2.9985 -3.8431 -2.2338 0
M  V30 49 H -1.7401 0.7534 1.3794 0
M  V30 50 H -0.698 -2.848 2.0169 0
M  V30 51 H -1.7276 -3.3055 0.5879 0
M  V30 52 H 6.8978 -0.8496 -1.5604 0
M  V30 53 H 4.5384 -3.3781 -4.1043 0
M  V30 54 H 6.4852 -1.8792 -3.7771 0
M  V30 55 H -3.3808 2.1264 0.3988 0
M  V30 56 H -4.7788 -0.4196 3.7138 0
M  V30 57 H -5.0777 -0.4416 1.9531 0
M  V30 58 H -4.3449 1.021 2.7166 0
M  V30 59 H -2.0137 0.8126 3.8256 0
M  V30 60 H -1.0451 -0.6861 3.5912 0
M  V30 61 H -2.4945 -0.7137 4.6543 0
M  V30 62 H -4.1721 0.2424 -2.7543 0
M  V30 63 H -3.2513 1.7892 -2.7809 0
M  V30 64 H -4.9416 1.721 -3.4042 0
M  V30 65 H -5.8101 3.5119 -1.9207 0
M  V30 66 H -4.1176 3.7874 -1.3613 0
M  V30 67 H -5.4315 3.5069 -0.1609 0
M  V30 68 H -6.8926 1.2855 -1.6317 0
M  V30 69 H -6.4349 1.1622 0.1092 0
M  V30 70 H -5.9844 -0.1415 -1.0458 0
M  V30 END ATOM
M  V30 BEGIN BOND
M  V30 1 1 1 2
M  V30 2 2 2 3
M  V30 3 1 2 4
M  V30 4 1 3 5
M  V30 5 2 4 6
M  V30 6 2 5 7
M  V30 7 1 7 8
M  V30 8 2 8 9
M  V30 9 1 8 10
M  V30 10 1 10 11
M  V30 11 1 11 12
M  V30 12 1 11 13
M  V30 13 1 12 14
M  V30 14 1 12 15
M  V30 15 1 13 16
M  V30 16 2 15 17
M  V30 17 1 15 18
M  V30 18 2 16 19
M  V30 19 1 16 20
M  V30 20 1 18 21
M  V30 21 1 18 22
M  V30 22 1 19 23
M  V30 23 2 20 24
M  V30 24 1 21 25
M  V30 25 1 21 26
M  V30 26 1 22 27
M  V30 27 2 23 28
M  V30 28 2 25 29
M  V30 29 1 25 30
M  V30 30 1 26 31
M  V30 31 1 26 32
M  V30 32 1 30 33
M  V30 33 1 33 34
M  V30 34 1 33 35
M  V30 35 1 33 36
M  V30 36 1 6 7
M  V30 37 1 24 28
M  V30 38 1 26 27
M  V30 39 1 3 37
M  V30 40 1 4 38
M  V30 41 1 5 39
M  V30 42 1 6 40
M  V30 43 1 10 41
M  V30 44 1 11 42
M  V30 45 1 12 43
M  V30 46 1 13 44
M  V30 47 1 13 45
M  V30 48 1 14 46
M  V30 49 1 19 47
M  V30 50 1 20 48
M  V30 51 1 21 49
M  V30 52 1 22 50
M  V30 53 1 22 51
M  V30 54 1 23 52
M  V30 55 1 24 53
M  V30 56 1 28 54
M  V30 57 1 30 55
M  V30 58 1 31 56
M  V30 59 1 31 57
M  V30 60 1 31 58
M  V30 61 1 32 59
M  V30 62 1 32 60
M  V30 63 1 32 61
M  V30 64 1 34 62
M  V30 65 1 34 63
M  V30 66 1 34 64
M  V30 67 1 35 65
M  V30 68 1 35 66
M  V30 69 1 35 67
M  V30 70 1 36 68
M  V30 71 1 36 69
M  V30 72 1 36 70
M  V30 END BOND
M  V30 BEGIN COLLECTION
M  V30 MDLV30/STEABS ATOMS=(3 11 12 21)
M  V30 END COLLECTION
M  V30 END CTAB
M  END
>  <Structure No>
7483

>  <LogS>
-4.28

>  <MMFF94 Energy>
92.295

$$$$
Compound 7484
Actelion Java MolfileCreator 2.0

  0  0  0  0  0  0              0 V3000
M  V30 BEGIN CTAB
M  V30 COUNTS 30 31 0 0 0
M  V30 BEGIN ATOM
M  V30 1 S -1.2343 -2.2049 0.5288 0
M  V30 2 O -2.2415 -3.2597 0.1666 0
M  V30 3 O -1.1916 -2.0978 2.0279 0
M  V30 4 N 0.3262 -2.6811 -0.053 0 CHG=-1
M  V30 5 C -1.7188 -0.6616 -0.1924 0
M  V30 6 C 1.5238 -1.9461 0.2033 0
M  V30 7 C -2.1976 -0.569 -1.5218 0
M  V30 8 C -1.6772 0.4926 0.6032 0
M  V30 9 S 1.638 -0.5358 1.1226 0
M  V30 10 N 2.7247 -2.3209 -0.2854 0
M  V30 11 N -2.247 -1.7137 -2.3888 0 CHG=1
M  V30 12 C -2.6425 0.6732 -2.0079 0
M  V30 13 C -2.1049 1.7219 0.1024 0
M  V30 14 C 3.2956 -0.4707 0.8378 0
M  V30 15 N 3.7114 -1.4988 0.067 0
M  V30 16 O -3.1935 -1.8477 -3.1918 0
M  V30 17 O -1.1576 -2.5442 -2.5058 0 CHG=-1
M  V30 18 C -2.5969 1.8254 -1.2071 0
M  V30 19 S 4.3605 0.7786 1.4469 0
M  V30 20 N -3.0461 3.0916 -1.7245 0 CHG=1
M  V30 21 O 4.2754 1.9873 0.5585 0
M  V30 22 O 5.7737 0.2673 1.4625 0
M  V30 23 N 3.8925 1.2039 3.0561 0
M  V30 24 O -3.0123 4.1181 -1.0143 0
M  V30 25 O -3.5219 3.1927 -3.0118 0 CHG=-1
M  V30 26 H -1.3176 0.4447 1.6229 0
M  V30 27 H -3.01 0.7402 -3.0238 0
M  V30 28 H -2.0571 2.592 0.7446 0
M  V30 29 H 4.0085 0.3486 3.6447 0
M  V30 30 H 4.5863 1.9047 3.401 0
M  V30 END ATOM
M  V30 BEGIN BOND
M  V30 1 2 1 2
M  V30 2 2 1 3
M  V30 3 1 1 4
M  V30 4 1 1 5
M  V30 5 1 4 6
M  V30 6 2 5 7
M  V30 7 1 5 8
M  V30 8 1 6 9
M  V30 9 2 6 10
M  V30 10 1 7 11
M  V30 11 1 7 12
M  V30 12 2 8 13
M  V30 13 1 9 14
M  V30 14 1 10 15
M  V30 15 2 11 16
M  V30 16 1 11 17
M  V30 17 2 12 18
M  V30 18 1 14 19
M  V30 19 1 18 20
M  V30 20 2 19 21
M  V30 21 2 19 22
M  V30 22 1 19 23
M  V30 23 2 20 24
M  V30 24 1 20 25
M  V30 25 1 13 18
M  V30 26 2 14 15
M  V30 27 1 8 26
M  V30 28 1 12 27
M  V30 29 1 13 28
M  V30 30 1 23 29
M  V30 31 1 23 30
M  V30 END BOND
M  V30 END CTAB
M  END
>  <Structure No>
7484

>  <LogS>
-2.91

>  <MMFF94 Energy>
41.774

$$$$
Compound 7485
Actelion Java MolfileCreator 2.0

  0  0  0  0  0  0              0 V3000
M  V30 BEGIN CTAB
M  V30 COUNTS 74 76 0 0 0
M  V30 BEGIN ATOM
M  V30 1 S 2.2506 -1.6876 2.9749 0
M  V30 2 C 2.0106 0.0941 2.6726 0
M  V30 3 C 1.2581 -2.1133 1.5081 0
M  V30 4 C 1.8393 0.2609 1.1418 0 CFG=2
M  V30 5 C 0.7234 0.5306 3.3992 0
M  V30 6 C 3.2009 0.885 3.2489 0
M  V30 7 N 1.1429 -0.9292 0.6611 0
M  V30 8 C 3.1512 0.3927 0.4 0
M  V30 9 C 0.4579 -0.9348 -0.6103 0
M  V30 10 O 3.8962 -0.6201 0.2836 0
M  V30 11 N 3.5415 1.6629 -0.1539 0
M  V30 12 O 0.5143 0.0856 -1.3515 0
M  V30 13 C -0.3883 -2.1066 -1.0536 0 CFG=2
M  V30 14 C 4.774 1.9015 -0.9304 0
M  V30 15 O -0.4429 -2.1541 -2.4584 0
M  V30 16 C -1.8181 -1.9893 -0.4722 0 CFG=1
M  V30 17 C 6.0115 1.6304 -0.0525 0
M  V30 18 C 4.8041 3.3766 -1.3822 0
M  V30 19 C 4.7965 1.008 -2.1868 0
M  V30 20 N -2.4445 -0.7357 -0.9124 0
M  V30 21 C -2.7169 -3.1726 -0.883 0
M  V30 22 C -2.7 0.3638 -0.0184 0
M  V30 23 C -2.2166 -4.4844 -0.3297 0
M  V30 24 O -2.2909 0.3027 1.1743 0
M  V30 25 C -3.4131 1.5851 -0.475 0
M  V30 26 C -1.5188 -5.3843 -1.1538 0
M  V30 27 C -2.4041 -4.7984 1.0276 0
M  V30 28 C -3.3241 2.7707 0.2796 0
M  V30 29 C -4.2011 1.5858 -1.6423 0
M  V30 30 C -1.0241 -6.5819 -0.6284 0
M  V30 31 C -1.9081 -5.9973 1.5484 0
M  V30 32 C -3.9914 3.929 -0.1297 0
M  V30 33 C -4.8586 2.7487 -2.0547 0
M  V30 34 C -1.2191 -6.8889 0.7214 0
M  V30 35 C -4.7649 3.9256 -1.305 0
M  V30 36 O -5.4563 5.0613 -1.754 0
M  V30 37 C -5.5096 6.2999 -1.05 0
M  V30 38 H 0.2534 -2.4513 1.8355 0
M  V30 39 H 1.7759 -2.926 0.9565 0
M  V30 40 H 1.2167 1.1593 0.9397 0
M  V30 41 H 0.8001 0.3215 4.4883 0
M  V30 42 H -0.159 -0.0166 3.0046 0
M  V30 43 H 0.5467 1.6181 3.2624 0
M  V30 44 H 4.1689 0.4867 2.8736 0
M  V30 45 H 3.1237 1.9573 2.9637 0
M  V30 46 H 3.2186 0.816 4.3597 0
M  V30 47 H 2.8946 2.4684 0.0103 0
M  V30 48 H 0.0725 -3.0482 -0.6815 0
M  V30 49 H 0.4317 -2.5113 -2.7678 0
M  V30 50 H -1.7454 -2.0038 0.6378 0
M  V30 51 H 5.9565 2.2281 0.8833 0
M  V30 52 H 6.0904 0.5577 0.2222 0
M  V30 53 H 6.9421 1.9074 -0.592 0
M  V30 54 H 3.9232 3.6048 -2.0213 0
M  V30 55 H 4.7808 4.0527 -0.5008 0
M  V30 56 H 5.7262 3.5949 -1.9645 0
M  V30 57 H 4.888 -0.0635 -1.9234 0
M  V30 58 H 3.8604 1.1443 -2.771 0
M  V30 59 H 5.6595 1.2674 -2.8363 0
M  V30 60 H -2.5886 -0.6126 -1.9393 0
M  V30 61 H -3.7455 -2.9943 -0.5 0
M  V30 62 H -2.7989 -3.2235 -1.9913 0
M  V30 63 H -1.3523 -5.1559 -2.1988 0
M  V30 64 H -2.9297 -4.1132 1.6818 0
M  V30 65 H -2.7287 2.8073 1.1857 0
M  V30 66 H -4.3389 0.688 -2.2301 0
M  V30 67 H -0.4867 -7.2705 -1.2679 0
M  V30 68 H -2.0544 -6.2324 2.5946 0
M  V30 69 H -3.8957 4.8232 0.4732 0
M  V30 70 H -5.4608 2.7311 -2.9555 0
M  V30 71 H -0.8341 -7.8156 1.1253 0
M  V30 72 H -6.1387 7.0137 -1.6216 0
M  V30 73 H -5.9652 6.1493 -0.0461 0
M  V30 74 H -4.4883 6.7284 -0.9504 0
M  V30 END ATOM
M  V30 BEGIN BOND
M  V30 1 1 1 2
M  V30 2 1 1 3
M  V30 3 1 2 4
M  V30 4 1 2 5
M  V30 5 1 2 6
M  V30 6 1 3 7
M  V30 7 1 4 8
M  V30 8 1 7 9
M  V30 9 2 8 10
M  V30 10 1 8 11
M  V30 11 2 9 12
M  V30 12 1 9 13
M  V30 13 1 11 14
M  V30 14 1 13 15
M  V30 15 1 13 16
M  V30 16 1 14 17
M  V30 17 1 14 18
M  V30 18 1 14 19
M  V30 19 1 16 20
M  V30 20 1 16 21
M  V30 21 1 20 22
M  V30 22 1 21 23
M  V30 23 2 22 24
M  V30 24 1 22 25
M  V30 25 2 23 26
M  V30 26 1 23 27
M  V30 27 2 25 28
M  V30 28 1 25 29
M  V30 29 1 26 30
M  V30 30 2 27 31
M  V30 31 1 28 32
M  V30 32 2 29 33
M  V30 33 2 30 34
M  V30 34 2 32 35
M  V30 35 1 35 36
M  V30 36 1 36 37
M  V30 37 1 4 7
M  V30 38 1 31 34
M  V30 39 1 33 35
M  V30 40 1 3 38
M  V30 41 1 3 39
M  V30 42 1 4 40
M  V30 43 1 5 41
M  V30 44 1 5 42
M  V30 45 1 5 43
M  V30 46 1 6 44
M  V30 47 1 6 45
M  V30 48 1 6 46
M  V30 49 1 11 47
M  V30 50 1 13 48
M  V30 51 1 15 49
M  V30 52 1 16 50
M  V30 53 1 17 51
M  V30 54 1 17 52
M  V30 55 1 17 53
M  V30 56 1 18 54
M  V30 57 1 18 55
M  V30 58 1 18 56
M  V30 59 1 19 57
M  V30 60 1 19 58
M  V30 61 1 19 59
M  V30 62 1 20 60
M  V30 63 1 21 61
M  V30 64 1 21 62
M  V30 65 1 26 63
M  V30 66 1 27 64
M  V30 67 1 28 65
M  V30 68 1 29 66
M  V30 69 1 30 67
M  V30 70 1 31 68
M  V30 71 1 32 69
M  V30 72 1 33 70
M  V30 73 1 34 71
M  V30 74 1 37 72
M  V30 75 1 37 73
M  V30 76 1 37 74
M  V30 END BOND
M  V30 BEGIN COLLECTION
M  V30 MDLV30/STEABS ATOMS=(3 4 13 16)
M  V30 END COLLECTION
M  V30 END CTAB
M  END
>  <Structure No>
7485

>  <LogS>
-4.11

>  <MMFF94 Energy>
88.057

$$$$
Compound 7486
Actelion Java MolfileCreator 2.0

  0  0  0  0  0  0              0 V3000
M  V30 BEGIN CTAB
M  V30 COUNTS 42 43 0 0 0
M  V30 BEGIN ATOM
M  V30 1 S 3.2932 -1.6878 -2.8705 0
M  V30 2 O 4.0373 -0.4752 -3.3562 0
M  V30 3 O 2.8758 -2.5049 -4.0601 0
M  V30 4 N 4.336 -2.6353 -1.8635 0 CHG=-1
M  V30 5 C 1.8576 -1.2228 -1.9631 0
M  V30 6 C 4.901 -2.146 -0.6457 0
M  V30 7 C 1.5861 0.1252 -1.6913 0
M  V30 8 C 0.997 -2.2133 -1.4744 0
M  V30 9 S 4.6897 -0.5941 -0.0162 0
M  V30 10 N 5.6856 -2.9038 0.1494 0
M  V30 11 C 0.4592 0.4783 -0.9433 0
M  V30 12 C -0.1331 -1.8608 -0.7313 0
M  V30 13 C 5.6556 -0.9864 1.3053 0
M  V30 14 N 6.1062 -2.258 1.2358 0
M  V30 15 C -0.4201 -0.5083 -0.4741 0
M  V30 16 S 6.0458 0.1139 2.6108 0
M  V30 17 N -1.5627 -0.1218 0.3069 0
M  V30 18 O 4.8217 0.3531 3.4489 0
M  V30 19 O 6.5326 1.4164 2.041 0
M  V30 20 N 7.2882 -0.5709 3.5979 0 CHG=-1
M  V30 21 C -2.8432 -0.7675 0.2234 0
M  V30 22 O -3.0708 -1.6322 -0.6656 0
M  V30 23 C -3.9418 -0.3762 1.1655 0
M  V30 24 N -4.2837 1.034 0.995 0
M  V30 25 C -4.9041 1.5392 -0.1959 0
M  V30 26 O -5.2094 0.7569 -1.1369 0
M  V30 27 C -5.2371 2.9976 -0.3121 0
M  V30 28 N -6.5905 3.2576 0.1745 0 CHG=1
M  V30 29 H 2.2485 0.9035 -2.0468 0
M  V30 30 H 1.2086 -3.2593 -1.6587 0
M  V30 31 H 0.2643 1.5235 -0.7371 0
M  V30 32 H -0.7647 -2.645 -0.3363 0
M  V30 33 H -1.4895 0.7441 0.8887 0
M  V30 34 H 8.113 -0.7383 2.979 0
M  V30 35 H -3.595 -0.5496 2.2064 0
M  V30 36 H -4.845 -1.0027 0.9986 0
M  V30 37 H -4.0806 1.6935 1.7804 0
M  V30 38 H -5.1559 3.3129 -1.3762 0
M  V30 39 H -4.5065 3.5969 0.2742 0
M  V30 40 H -6.7952 4.2793 0.0874 0
M  V30 41 H -7.2847 2.7229 -0.3969 0
M  V30 42 H -6.6711 2.9807 1.1802 0
M  V30 END ATOM
M  V30 BEGIN BOND
M  V30 1 2 1 2
M  V30 2 2 1 3
M  V30 3 1 1 4
M  V30 4 1 1 5
M  V30 5 1 4 6
M  V30 6 2 5 7
M  V30 7 1 5 8
M  V30 8 1 6 9
M  V30 9 2 6 10
M  V30 10 1 7 11
M  V30 11 2 8 12
M  V30 12 1 9 13
M  V30 13 1 10 14
M  V30 14 2 11 15
M  V30 15 1 13 16
M  V30 16 1 15 17
M  V30 17 2 16 18
M  V30 18 2 16 19
M  V30 19 1 16 20
M  V30 20 1 17 21
M  V30 21 2 21 22
M  V30 22 1 21 23
M  V30 23 1 23 24
M  V30 24 1 24 25
M  V30 25 2 25 26
M  V30 26 1 25 27
M  V30 27 1 27 28
M  V30 28 1 12 15
M  V30 29 2 13 14
M  V30 30 1 7 29
M  V30 31 1 8 30
M  V30 32 1 11 31
M  V30 33 1 12 32
M  V30 34 1 17 33
M  V30 35 1 20 34
M  V30 36 1 23 35
M  V30 37 1 23 36
M  V30 38 1 24 37
M  V30 39 1 27 38
M  V30 40 1 27 39
M  V30 41 1 28 40
M  V30 42 1 28 41
M  V30 43 1 28 42
M  V30 END BOND
M  V30 END CTAB
M  END
>  <Structure No>
7486

>  <LogS>
-1.29

>  <MMFF94 Energy>
37.755

$$$$
Compound 7487
Actelion Java MolfileCreator 2.0

  0  0  0  0  0  0              0 V3000
M  V30 BEGIN CTAB
M  V30 COUNTS 51 52 0 0 0
M  V30 BEGIN ATOM
M  V30 1 S 3.4611 1.647 1.7294 0
M  V30 2 O 3.9117 2.9866 1.2199 0
M  V30 3 O 4.253 1.3544 2.9737 0
M  V30 4 N 1.7798 1.7415 2.1505 0 CHG=-1
M  V30 5 C 3.7644 0.3361 0.5471 0
M  V30 6 C 0.705 1.4179 1.265 0
M  V30 7 C 3.8552 -1.0171 0.9899 0
M  V30 8 C 3.9729 0.6191 -0.8356 0
M  V30 9 O 0.9446 1.0224 0.0934 0
M  V30 10 N -0.6457 1.5594 1.727 0
M  V30 11 C 3.5344 -1.4447 2.3712 0
M  V30 12 C 4.2503 -2.0176 0.0877 0
M  V30 13 C 4.358 -0.4139 -1.7061 0
M  V30 14 C 3.8255 2.0008 -1.4192 0
M  V30 15 C -1.8011 1.12 0.9979 0
M  V30 16 O 2.5512 -0.9443 2.9825 0
M  V30 17 O 4.2927 -2.4553 2.9707 0
M  V30 18 C 4.5078 -1.7156 -1.2443 0
M  V30 19 N -3.0405 1.3892 1.4823 0
M  V30 20 N -1.6739 0.4168 -0.1579 0
M  V30 21 C 4.0144 -2.9534 4.2737 0
M  V30 22 C -4.1451 0.9643 0.8188 0
M  V30 23 C -2.7724 -0.0164 -0.8309 0
M  V30 24 O -5.4102 1.2503 1.3426 0
M  V30 25 N -4.0071 0.2594 -0.3349 0
M  V30 26 N -2.6291 -0.7576 -2.0575 0
M  V30 27 C -6.636 0.8735 0.7139 0
M  V30 28 C -1.2903 -1.1123 -2.5396 0
M  V30 29 C -3.8222 -1.1438 -2.8167 0
M  V30 30 C -7.0245 1.8749 -0.3731 0
M  V30 31 F -6.1207 1.8292 -1.4192 0
M  V30 32 F -7.047 3.1538 0.1529 0
M  V30 33 F -8.2836 1.5638 -0.8552 0
M  V30 34 H -0.7955 1.9955 2.6646 0
M  V30 35 H 4.3374 -3.0484 0.4109 0
M  V30 36 H 4.544 -0.213 -2.7542 0
M  V30 37 H 3.7405 1.9672 -2.5268 0
M  V30 38 H 4.7157 2.613 -1.1661 0
M  V30 39 H 2.901 2.4883 -1.046 0
M  V30 40 H 4.8044 -2.501 -1.9285 0
M  V30 41 H 4.1016 -2.1357 5.0207 0
M  V30 42 H 2.9907 -3.3839 4.3044 0
M  V30 43 H 4.7465 -3.7504 4.5244 0
M  V30 44 H -7.4339 0.8647 1.4859 0
M  V30 45 H -6.5633 -0.1533 0.2944 0
M  V30 46 H -0.7695 -1.7312 -1.7775 0
M  V30 47 H -0.7014 -0.1885 -2.7241 0
M  V30 48 H -1.3335 -1.6933 -3.4851 0
M  V30 49 H -4.3913 -0.2354 -3.1061 0
M  V30 50 H -3.5588 -1.6961 -3.7429 0
M  V30 51 H -4.4686 -1.7967 -2.1948 0
M  V30 END ATOM
M  V30 BEGIN BOND
M  V30 1 2 1 2
M  V30 2 2 1 3
M  V30 3 1 1 4
M  V30 4 1 1 5
M  V30 5 1 4 6
M  V30 6 2 5 7
M  V30 7 1 5 8
M  V30 8 2 6 9
M  V30 9 1 6 10
M  V30 10 1 7 11
M  V30 11 1 7 12
M  V30 12 2 8 13
M  V30 13 1 8 14
M  V30 14 1 10 15
M  V30 15 2 11 16
M  V30 16 1 11 17
M  V30 17 2 12 18
M  V30 18 2 15 19
M  V30 19 1 15 20
M  V30 20 1 17 21
M  V30 21 1 19 22
M  V30 22 2 20 23
M  V30 23 1 22 24
M  V30 24 2 22 25
M  V30 25 1 23 26
M  V30 26 1 24 27
M  V30 27 1 26 28
M  V30 28 1 26 29
M  V30 29 1 27 30
M  V30 30 1 30 31
M  V30 31 1 30 32
M  V30 32 1 30 33
M  V30 33 1 13 18
M  V30 34 1 23 25
M  V30 35 1 10 34
M  V30 36 1 12 35
M  V30 37 1 13 36
M  V30 38 1 14 37
M  V30 39 1 14 38
M  V30 40 1 14 39
M  V30 41 1 18 40
M  V30 42 1 21 41
M  V30 43 1 21 42
M  V30 44 1 21 43
M  V30 45 1 27 44
M  V30 46 1 27 45
M  V30 47 1 28 46
M  V30 48 1 28 47
M  V30 49 1 28 48
M  V30 50 1 29 49
M  V30 51 1 29 50
M  V30 52 1 29 51
M  V30 END BOND
M  V30 END CTAB
M  END
>  <Structure No>
7487

>  <LogS>
-5.69

>  <MMFF94 Energy>
-182.54

$$$$
Compound 7488
Actelion Java MolfileCreator 2.0

  0  0  0  0  0  0              0 V3000
M  V30 BEGIN CTAB
M  V30 COUNTS 80 82 0 0 0
M  V30 BEGIN ATOM
M  V30 1 S -0.6414 1.9253 2.648 0
M  V30 2 C -1.9359 1.9947 1.3597 0
M  V30 3 C -0.2087 0.1985 2.2266 0
M  V30 4 C -2.3498 0.523 1.1459 0 CFG=2
M  V30 5 C -3.0962 2.8657 1.8747 0
M  V30 6 C -1.3351 2.6224 0.0886 0
M  V30 7 N -1.1018 -0.2539 1.1601 0
M  V30 8 C -3.3157 0.287 -0.0075 0
M  V30 9 C -0.537 -0.9843 0.0562 0
M  V30 10 O -2.913 -0.1324 -1.1286 0
M  V30 11 N -4.7132 0.5918 0.1854 0
M  V30 12 O -0.3545 -0.4011 -1.0488 0
M  V30 13 C -0.1109 -2.4311 0.1973 0 CFG=2
M  V30 14 C -5.6903 0.7997 -0.8987 0
M  V30 15 O -0.3043 -2.8972 1.5121 0
M  V30 16 C 1.3449 -2.6657 -0.31 0 CFG=1
M  V30 17 C -7.0036 1.3416 -0.2932 0
M  V30 18 C -5.1605 1.837 -1.9135 0
M  V30 19 C -5.9828 -0.5348 -1.6076 0
M  V30 20 N 2.2853 -1.7395 0.3377 0
M  V30 21 C 1.8327 -4.1117 -0.0965 0
M  V30 22 C 2.8891 -0.6253 -0.3437 0
M  V30 23 C 0.9767 -5.1302 -0.808 0
M  V30 24 O 2.7187 -0.4644 -1.5822 0
M  V30 25 C 3.7927 0.3025 0.4062 0
M  V30 26 C 1.0119 -5.2313 -2.2077 0
M  V30 27 C 0.1426 -5.9935 -0.0777 0
M  V30 28 O 3.7989 1.5867 -0.2065 0
M  V30 29 C 0.2235 -6.1812 -2.8669 0
M  V30 30 C -0.6377 -6.947 -0.7405 0
M  V30 31 C 4.4909 2.6656 0.3508 0
M  V30 32 C -0.6019 -7.0355 -2.133 0
M  V30 33 C 3.7689 3.6682 1.0289 0
M  V30 34 C 5.8951 2.7719 0.23 0
M  V30 35 C 4.4556 4.731 1.6373 0
M  V30 36 C 2.2745 3.5736 1.1361 0
M  V30 37 C 6.562 3.8365 0.8539 0
M  V30 38 C 6.6953 1.7459 -0.5212 0
M  V30 39 C 5.8455 4.808 1.5542 0
M  V30 40 H -0.3422 -0.4411 3.1236 0
M  V30 41 H 0.8545 0.1683 1.9035 0
M  V30 42 H -2.9087 0.2083 2.0565 0
M  V30 43 H -3.8885 2.9637 1.106 0
M  V30 44 H -2.7345 3.8889 2.1163 0
M  V30 45 H -3.5394 2.4308 2.7956 0
M  V30 46 H -1.0175 3.6647 0.288 0
M  V30 47 H -2.0777 2.6434 -0.7335 0
M  V30 48 H -0.4419 2.0623 -0.2504 0
M  V30 49 H -5.0261 0.7653 1.1709 0
M  V30 50 H -0.7939 -3.0167 -0.4545 0
M  V30 51 H 0.414 -2.519 2.0821 0
M  V30 52 H 1.3464 -2.4833 -1.4078 0
M  V30 53 H -7.7535 1.5601 -1.0926 0
M  V30 54 H -6.8138 2.2901 0.2641 0
M  V30 55 H -7.4468 0.602 0.4128 0
M  V30 56 H -4.2793 1.4483 -2.4693 0
M  V30 57 H -4.8576 2.7729 -1.3848 0
M  V30 58 H -5.9393 2.0929 -2.6684 0
M  V30 59 H -6.2833 -1.3081 -0.8671 0
M  V30 60 H -6.8051 -0.4104 -2.3449 0
M  V30 61 H -5.0883 -0.9038 -2.1472 0
M  V30 62 H 2.5086 -1.8776 1.349 0
M  V30 63 H 2.8716 -4.1949 -0.4837 0
M  V30 64 H 1.8814 -4.339 0.9911 0
M  V30 65 H 4.8147 -0.126 0.4094 0
M  V30 66 H 3.4407 0.397 1.4557 0
M  V30 67 H 1.6489 -4.5772 -2.7905 0
M  V30 68 H 0.0986 -5.9356 1.0017 0
M  V30 69 H 0.2543 -6.2553 -3.9464 0
M  V30 70 H -1.275 -7.6117 -0.173 0
M  V30 71 H -1.2147 -7.7682 -2.6421 0
M  V30 72 H 3.915 5.4985 2.1786 0
M  V30 73 H 1.8418 4.4668 1.6392 0
M  V30 74 H 2.0093 2.6699 1.7242 0
M  V30 75 H 1.8256 3.5008 0.1226 0
M  V30 76 H 7.6406 3.9199 0.7964 0
M  V30 77 H 6.0993 1.2939 -1.3404 0
M  V30 78 H 7.5942 2.212 -0.9766 0
M  V30 79 H 7.0245 0.9501 0.1764 0
M  V30 80 H 6.371 5.6269 2.026 0
M  V30 END ATOM
M  V30 BEGIN BOND
M  V30 1 1 1 2
M  V30 2 1 1 3
M  V30 3 1 2 4
M  V30 4 1 2 5
M  V30 5 1 2 6
M  V30 6 1 3 7
M  V30 7 1 4 8
M  V30 8 1 7 9
M  V30 9 2 8 10
M  V30 10 1 8 11
M  V30 11 2 9 12
M  V30 12 1 9 13
M  V30 13 1 11 14
M  V30 14 1 13 15
M  V30 15 1 13 16
M  V30 16 1 14 17
M  V30 17 1 14 18
M  V30 18 1 14 19
M  V30 19 1 16 20
M  V30 20 1 16 21
M  V30 21 1 20 22
M  V30 22 1 21 23
M  V30 23 2 22 24
M  V30 24 1 22 25
M  V30 25 2 23 26
M  V30 26 1 23 27
M  V30 27 1 25 28
M  V30 28 1 26 29
M  V30 29 2 27 30
M  V30 30 1 28 31
M  V30 31 2 29 32
M  V30 32 2 31 33
M  V30 33 1 31 34
M  V30 34 1 33 35
M  V30 35 1 33 36
M  V30 36 2 34 37
M  V30 37 1 34 38
M  V30 38 2 35 39
M  V30 39 1 4 7
M  V30 40 1 30 32
M  V30 41 1 37 39
M  V30 42 1 3 40
M  V30 43 1 3 41
M  V30 44 1 4 42
M  V30 45 1 5 43
M  V30 46 1 5 44
M  V30 47 1 5 45
M  V30 48 1 6 46
M  V30 49 1 6 47
M  V30 50 1 6 48
M  V30 51 1 11 49
M  V30 52 1 13 50
M  V30 53 1 15 51
M  V30 54 1 16 52
M  V30 55 1 17 53
M  V30 56 1 17 54
M  V30 57 1 17 55
M  V30 58 1 18 56
M  V30 59 1 18 57
M  V30 60 1 18 58
M  V30 61 1 19 59
M  V30 62 1 19 60
M  V30 63 1 19 61
M  V30 64 1 20 62
M  V30 65 1 21 63
M  V30 66 1 21 64
M  V30 67 1 25 65
M  V30 68 1 25 66
M  V30 69 1 26 67
M  V30 70 1 27 68
M  V30 71 1 29 69
M  V30 72 1 30 70
M  V30 73 1 32 71
M  V30 74 1 35 72
M  V30 75 1 36 73
M  V30 76 1 36 74
M  V30 77 1 36 75
M  V30 78 1 37 76
M  V30 79 1 38 77
M  V30 80 1 38 78
M  V30 81 1 38 79
M  V30 82 1 39 80
M  V30 END BOND
M  V30 BEGIN COLLECTION
M  V30 MDLV30/STEABS ATOMS=(3 4 13 16)
M  V30 END COLLECTION
M  V30 END CTAB
M  END
>  <Structure No>
7488

>  <LogS>
-5.01

>  <MMFF94 Energy>
117.18

$$$$
Compound 7489
Actelion Java MolfileCreator 2.0

  0  0  0  0  0  0              0 V3000
M  V30 BEGIN CTAB
M  V30 COUNTS 34 35 0 0 0
M  V30 BEGIN ATOM
M  V30 1 S 0.4321 1.2102 0.0 0
M  V30 2 O 0.1833 2.2852 -1.0215 0
M  V30 3 O 0.0491 1.7313 1.3573 0
M  V30 4 N -0.5124 -0.1893 -0.3945 0
M  V30 5 C 2.1454 0.7673 -1.0E-4 0
M  V30 6 C -1.811 -0.2062 -0.4433 0
M  V30 7 C 2.7497 0.0908 1.0885 0
M  V30 8 C 2.9332 1.1389 -1.0993 0
M  V30 9 S -2.8303 1.1084 -0.1429 0
M  V30 10 N -2.5256 -1.3162 -0.7497 0
M  V30 11 N 1.9887 -0.3575 2.2223 0 CHG=1
M  V30 12 C 4.1338 -0.1519 1.064 0
M  V30 13 C 4.3025 0.8743 -1.1184 0
M  V30 14 C -4.1854 0.1481 -0.4321 0
M  V30 15 N -3.8436 -1.1212 -0.7441 0
M  V30 16 C -1.9382 -2.6161 -1.0583 0
M  V30 17 O 0.9012 -0.9476 2.0602 0
M  V30 18 O 2.5577 -0.3508 3.475 0 CHG=-1
M  V30 19 C 4.9197 0.2329 -0.034 0
M  V30 20 S -5.8398 0.7147 -0.3445 0
M  V30 21 N 6.3344 -0.0339 -0.0473 0 CHG=1
M  V30 22 O -6.7748 -0.4606 -0.4 0
M  V30 23 O -6.1195 1.6275 -1.5045 0
M  V30 24 N -6.0812 1.5656 1.1408 0
M  V30 25 O 7.0367 0.3017 -1.0235 0
M  V30 26 O 6.9382 -0.6622 1.0177 0 CHG=-1
M  V30 27 H 2.4902 1.6456 -1.9468 0
M  V30 28 H 4.594 -0.6642 1.899 0
M  V30 29 H 4.8805 1.1792 -1.9814 0
M  V30 30 H -1.282 -2.5296 -1.9498 0
M  V30 31 H -1.3402 -2.9728 -0.1933 0
M  V30 32 H -2.7354 -3.3597 -1.2723 0
M  V30 33 H -7.0921 1.8253 1.1838 0
M  V30 34 H -5.9116 0.8843 1.9143 0
M  V30 END ATOM
M  V30 BEGIN BOND
M  V30 1 2 1 2
M  V30 2 2 1 3
M  V30 3 1 1 4
M  V30 4 1 1 5
M  V30 5 2 4 6
M  V30 6 2 5 7
M  V30 7 1 5 8
M  V30 8 1 6 9
M  V30 9 1 6 10
M  V30 10 1 7 11
M  V30 11 1 7 12
M  V30 12 2 8 13
M  V30 13 1 9 14
M  V30 14 1 10 15
M  V30 15 1 10 16
M  V30 16 2 11 17
M  V30 17 1 11 18
M  V30 18 2 12 19
M  V30 19 1 14 20
M  V30 20 1 19 21
M  V30 21 2 20 22
M  V30 22 2 20 23
M  V30 23 1 20 24
M  V30 24 2 21 25
M  V30 25 1 21 26
M  V30 26 1 13 19
M  V30 27 2 14 15
M  V30 28 1 8 27
M  V30 29 1 12 28
M  V30 30 1 13 29
M  V30 31 1 16 30
M  V30 32 1 16 31
M  V30 33 1 16 32
M  V30 34 1 24 33
M  V30 35 1 24 34
M  V30 END BOND
M  V30 END CTAB
M  END
>  <Structure No>
7489

>  <LogS>
-2.74

>  <MMFF94 Energy>
11.057

$$$$
Compound 7490
Actelion Java MolfileCreator 2.0

  0  0  0  0  0  0              0 V3000
M  V30 BEGIN CTAB
M  V30 COUNTS 72 74 0 0 0
M  V30 BEGIN ATOM
M  V30 1 S -1.7771 0.5651 3.7994 0
M  V30 2 C -1.9948 1.7969 2.4724 0
M  V30 3 C -0.4618 -0.267 2.8578 0
M  V30 4 C -1.6326 1.0803 1.147 0 CFG=1
M  V30 5 C -3.4353 2.3448 2.5054 0
M  V30 6 C -1.0135 2.9586 2.7276 0
M  V30 7 N -0.5746 0.122 1.4552 0
M  V30 8 C -2.7929 0.3387 0.5215 0
M  V30 9 C 0.2449 -0.4529 0.4151 0
M  V30 10 O -3.2043 -0.7276 1.0551 0
M  V30 11 N -3.4262 0.8613 -0.6604 0
M  V30 12 O 0.06 -0.0947 -0.7804 0
M  V30 13 C 1.2892 -1.5148 0.7343 0 CFG=1
M  V30 14 C -4.4585 0.1566 -1.4445 0
M  V30 15 O 0.6919 -2.7442 1.0634 0
M  V30 16 C 2.3942 -1.6931 -0.3495 0 CFG=2
M  V30 17 C -4.8308 1.0165 -2.6701 0
M  V30 18 C -5.7253 -0.0541 -0.591 0
M  V30 19 C -3.9158 -1.1976 -1.9443 0
M  V30 20 N 2.9402 -0.3802 -0.7195 0
M  V30 21 C 1.9317 -2.4502 -1.6249 0
M  V30 22 C 3.7184 0.412 0.1921 0
M  V30 23 C 1.7717 -3.9393 -1.4211 0
M  V30 24 O 4.3066 -0.1474 1.1575 0
M  V30 25 C 3.8427 1.8775 0.0077 0
M  V30 26 C 0.5144 -4.549 -1.5807 0
M  V30 27 C 2.8878 -4.7412 -1.1229 0
M  V30 28 C 2.864 2.6014 -0.6948 0
M  V30 29 C 4.9304 2.571 0.564 0
M  V30 30 C 0.3719 -5.9293 -1.4071 0
M  V30 31 C 2.7408 -6.1216 -0.9525 0
M  V30 32 C 2.9798 3.9858 -0.8514 0
M  V30 33 C 5.0475 3.9554 0.4057 0
M  V30 34 C 1.4832 -6.7146 -1.0905 0
M  V30 35 C 4.075 4.6784 -0.3053 0
M  V30 36 N 4.1978 6.1041 -0.4659 0 CHG=1
M  V30 37 O 3.3404 6.7493 -1.1047 0
M  V30 38 O 5.266 6.7794 0.0774 0 CHG=-1
M  V30 39 H -0.5855 -1.3639 2.9651 0
M  V30 40 H 0.5245 0.0466 3.2594 0
M  V30 41 H -1.2475 1.8296 0.4186 0
M  V30 42 H -3.6131 2.9161 3.4417 0
M  V30 43 H -4.1779 1.5196 2.4746 0
M  V30 44 H -3.6126 3.0184 1.6398 0
M  V30 45 H -1.1932 3.407 3.7285 0
M  V30 46 H -1.1397 3.752 1.9593 0
M  V30 47 H 0.0388 2.6052 2.691 0
M  V30 48 H -3.0984 1.7969 -0.9943 0
M  V30 49 H 1.8184 -1.1686 1.6457 0
M  V30 50 H -0.0965 -2.8752 0.475 0
M  V30 51 H 3.2194 -2.2837 0.1051 0
M  V30 52 H -5.226 2.0033 -2.3452 0
M  V30 53 H -3.9368 1.1921 -3.306 0
M  V30 54 H -5.6071 0.5147 -3.2877 0
M  V30 55 H -6.5496 -0.4687 -1.2103 0
M  V30 56 H -5.5444 -0.7676 0.2399 0
M  V30 57 H -6.0615 0.9123 -0.1542 0
M  V30 58 H -4.6533 -1.6902 -2.6152 0
M  V30 59 H -2.9691 -1.0481 -2.5086 0
M  V30 60 H -3.7126 -1.89 -1.1025 0
M  V30 61 H 2.7535 -2.0E-4 -1.6752 0
M  V30 62 H 2.6986 -2.3125 -2.419 0
M  V30 63 H 0.9945 -2.0079 -2.0219 0
M  V30 64 H -0.3564 -3.9568 -1.8329 0
M  V30 65 H 3.8714 -4.2995 -1.0287 0
M  V30 66 H 1.9939 2.106 -1.1058 0
M  V30 67 H 5.6963 2.0403 1.1159 0
M  V30 68 H -0.6004 -6.3897 -1.5219 0
M  V30 69 H 3.6034 -6.7324 -0.7188 0
M  V30 70 H 2.2072 4.5151 -1.3947 0
M  V30 71 H 5.8997 4.4601 0.8426 0
M  V30 72 H 1.3715 -7.7838 -0.959 0
M  V30 END ATOM
M  V30 BEGIN BOND
M  V30 1 1 1 2
M  V30 2 1 1 3
M  V30 3 1 2 4
M  V30 4 1 2 5
M  V30 5 1 2 6
M  V30 6 1 3 7
M  V30 7 1 4 8
M  V30 8 1 7 9
M  V30 9 2 8 10
M  V30 10 1 8 11
M  V30 11 2 9 12
M  V30 12 1 9 13
M  V30 13 1 11 14
M  V30 14 1 13 15
M  V30 15 1 13 16
M  V30 16 1 14 17
M  V30 17 1 14 18
M  V30 18 1 14 19
M  V30 19 1 16 20
M  V30 20 1 16 21
M  V30 21 1 20 22
M  V30 22 1 21 23
M  V30 23 2 22 24
M  V30 24 1 22 25
M  V30 25 2 23 26
M  V30 26 1 23 27
M  V30 27 2 25 28
M  V30 28 1 25 29
M  V30 29 1 26 30
M  V30 30 2 27 31
M  V30 31 1 28 32
M  V30 32 2 29 33
M  V30 33 2 30 34
M  V30 34 2 32 35
M  V30 35 1 35 36
M  V30 36 2 36 37
M  V30 37 1 36 38
M  V30 38 1 4 7
M  V30 39 1 31 34
M  V30 40 1 33 35
M  V30 41 1 3 39
M  V30 42 1 3 40
M  V30 43 1 4 41
M  V30 44 1 5 42
M  V30 45 1 5 43
M  V30 46 1 5 44
M  V30 47 1 6 45
M  V30 48 1 6 46
M  V30 49 1 6 47
M  V30 50 1 11 48
M  V30 51 1 13 49
M  V30 52 1 15 50
M  V30 53 1 16 51
M  V30 54 1 17 52
M  V30 55 1 17 53
M  V30 56 1 17 54
M  V30 57 1 18 55
M  V30 58 1 18 56
M  V30 59 1 18 57
M  V30 60 1 19 58
M  V30 61 1 19 59
M  V30 62 1 19 60
M  V30 63 1 20 61
M  V30 64 1 21 62
M  V30 65 1 21 63
M  V30 66 1 26 64
M  V30 67 1 27 65
M  V30 68 1 28 66
M  V30 69 1 29 67
M  V30 70 1 30 68
M  V30 71 1 31 69
M  V30 72 1 32 70
M  V30 73 1 33 71
M  V30 74 1 34 72
M  V30 END BOND
M  V30 BEGIN COLLECTION
M  V30 MDLV30/STEABS ATOMS=(3 4 13 16)
M  V30 END COLLECTION
M  V30 END CTAB
M  END
>  <Structure No>
7490

>  <LogS>
-3.98

>  <MMFF94 Energy>
125.37

$$$$
Compound 7491
Actelion Java MolfileCreator 2.0

  0  0  0  0  0  0              0 V3000
M  V30 BEGIN CTAB
M  V30 COUNTS 44 47 0 0 0
M  V30 BEGIN ATOM
M  V30 1 S 3.399 3.9802 0.7454 0
M  V30 2 O 2.4309 4.9672 0.1553 0
M  V30 3 O 4.7857 4.5548 0.6858 0
M  V30 4 N 2.9676 3.6945 2.3992 0 CHG=-1
M  V30 5 C 3.3705 2.4693 -0.1618 0
M  V30 6 C 1.8875 2.8382 2.7704 0
M  V30 7 C 3.9877 1.3283 0.3674 0
M  V30 8 C 2.7045 2.3881 -1.393 0
M  V30 9 S 1.4338 2.5256 4.3525 0
M  V30 10 N 1.1409 2.1471 1.8854 0
M  V30 11 C 3.928 0.1126 -0.3202 0
M  V30 12 C 2.6476 1.1731 -2.0826 0
M  V30 13 C 0.215 1.4564 3.8965 0
M  V30 14 C 0.2051 1.3721 2.4994 0
M  V30 15 C 3.2547 0.0285 -1.5471 0
M  V30 16 C -0.701 0.495 1.7156 0
M  V30 17 N 3.184 -1.2171 -2.2455 0
M  V30 18 C -1.8586 -0.0658 2.2854 0
M  V30 19 C -0.4076 0.215 0.3693 0
M  V30 20 C -2.6942 -0.8926 1.5288 0
M  V30 21 C -1.2422 -0.6118 -0.386 0
M  V30 22 C -2.395 -1.1763 0.1852 0
M  V30 23 C -3.2829 -2.0561 -0.6173 0
M  V30 24 C -3.5734 -1.7468 -1.96 0
M  V30 25 C -3.8475 -3.2138 -0.0487 0
M  V30 26 C -4.4093 -2.5769 -2.7131 0
M  V30 27 C -4.682 -4.0407 -0.807 0
M  V30 28 C -4.9629 -3.7227 -2.1375 0
M  V30 29 H 4.5021 1.3775 1.3188 0
M  V30 30 H 2.2209 3.2588 -1.8162 0
M  V30 31 H 4.401 -0.7634 0.1047 0
M  V30 32 H 2.1237 1.1217 -3.0287 0
M  V30 33 H -0.4174 0.9131 4.5842 0
M  V30 34 H 2.6795 -1.2907 -3.1572 0
M  V30 35 H 3.6321 -2.0754 -1.8542 0
M  V30 36 H -2.1359 0.1438 3.309 0
M  V30 37 H 0.4775 0.6243 -0.0996 0
M  V30 38 H -3.5877 -1.2937 1.9905 0
M  V30 39 H -0.9739 -0.8247 -1.4132 0
M  V30 40 H -3.1694 -0.8546 -2.4215 0
M  V30 41 H -3.6299 -3.489 0.9756 0
M  V30 42 H -4.6308 -2.3294 -3.7433 0
M  V30 43 H -5.1084 -4.9311 -0.3631 0
M  V30 44 H -5.6092 -4.364 -2.7225 0
M  V30 END ATOM
M  V30 BEGIN BOND
M  V30 1 2 1 2
M  V30 2 2 1 3
M  V30 3 1 1 4
M  V30 4 1 1 5
M  V30 5 1 4 6
M  V30 6 2 5 7
M  V30 7 1 5 8
M  V30 8 1 6 9
M  V30 9 2 6 10
M  V30 10 1 7 11
M  V30 11 2 8 12
M  V30 12 1 9 13
M  V30 13 1 10 14
M  V30 14 2 11 15
M  V30 15 1 14 16
M  V30 16 1 15 17
M  V30 17 2 16 18
M  V30 18 1 16 19
M  V30 19 1 18 20
M  V30 20 2 19 21
M  V30 21 2 20 22
M  V30 22 1 22 23
M  V30 23 2 23 24
M  V30 24 1 23 25
M  V30 25 1 24 26
M  V30 26 2 25 27
M  V30 27 2 26 28
M  V30 28 1 12 15
M  V30 29 2 13 14
M  V30 30 1 21 22
M  V30 31 1 27 28
M  V30 32 1 7 29
M  V30 33 1 8 30
M  V30 34 1 11 31
M  V30 35 1 12 32
M  V30 36 1 13 33
M  V30 37 1 17 34
M  V30 38 1 17 35
M  V30 39 1 18 36
M  V30 40 1 19 37
M  V30 41 1 20 38
M  V30 42 1 21 39
M  V30 43 1 24 40
M  V30 44 1 25 41
M  V30 45 1 26 42
M  V30 46 1 27 43
M  V30 47 1 28 44
M  V30 END BOND
M  V30 END CTAB
M  END
>  <Structure No>
7491

>  <LogS>
-5.61

>  <MMFF94 Energy>
94.259

$$$$
Compound 7492
Actelion Java MolfileCreator 2.0

  0  0  0  0  0  0              0 V3000
M  V30 BEGIN CTAB
M  V30 COUNTS 48 50 0 0 0
M  V30 BEGIN ATOM
M  V30 1 S 3.6519 -1.5757 2.821 0
M  V30 2 O 3.6956 -0.7441 4.0727 0
M  V30 3 O 3.8399 -3.0182 3.1977 0
M  V30 4 N 2.1124 -1.381 2.0538 0 CHG=-1
M  V30 5 C 4.9312 -1.0989 1.7093 0
M  V30 6 C 1.6421 -0.1151 1.587 0
M  V30 7 C 5.6562 0.0825 1.9179 0
M  V30 8 C 5.2163 -1.898 0.5949 0
M  V30 9 O 2.3505 0.916 1.7424 0
M  V30 10 N 0.3611 -0.0376 0.9453 0
M  V30 11 C 6.6599 0.4593 1.0206 0
M  V30 12 C 6.2199 -1.5224 -0.3029 0
M  V30 13 C -0.2179 1.1666 0.4205 0
M  V30 14 C 6.9381 -0.3334 -0.1035 0
M  V30 15 N -1.4451 1.1174 -0.1634 0
M  V30 16 N 0.4417 2.3549 0.4946 0
M  V30 17 C 8.0404 0.0501 -1.0457 0
M  V30 18 C -2.0385 2.2335 -0.6687 0
M  V30 19 C -0.1043 3.4926 -0.0061 0
M  V30 20 N -3.3238 2.1556 -1.3066 0
M  V30 21 C -1.3615 3.4555 -0.6066 0
M  V30 22 C -4.204 1.0235 -1.2047 0
M  V30 23 C -5.01 0.6769 -2.2992 0
M  V30 24 C -4.3232 0.2933 -0.0086 0
M  V30 25 C -5.8893 -0.4067 -2.217 0
M  V30 26 C -5.2033 -0.7898 0.0728 0
M  V30 27 C -5.9814 -1.1515 -1.0343 0
M  V30 28 S -7.1028 -2.505 -0.9261 0
M  V30 29 O -6.587 -3.5167 0.0586 0
M  V30 30 O -7.2328 -3.1651 -2.2701 0
M  V30 31 N -8.6514 -1.9365 -0.4104 0
M  V30 32 H 5.4467 0.7135 2.7721 0
M  V30 33 H 4.6621 -2.8121 0.4223 0
M  V30 34 H -0.1877 -0.922 0.8525 0
M  V30 35 H 7.2174 1.3702 1.2007 0
M  V30 36 H 6.4348 -2.1564 -1.1542 0
M  V30 37 H 8.166 1.1535 -1.075 0
M  V30 38 H 7.8121 -0.2968 -2.0758 0
M  V30 39 H 8.9913 -0.4135 -0.7094 0
M  V30 40 H 0.439 4.4256 0.0606 0
M  V30 41 H -3.6004 2.9327 -1.9494 0
M  V30 42 H -1.8005 4.359 -1.0108 0
M  V30 43 H -4.9496 1.2432 -3.2202 0
M  V30 44 H -3.758 0.5743 0.8701 0
M  V30 45 H -6.5004 -0.661 -3.0736 0
M  V30 46 H -5.2853 -1.3379 1.0027 0
M  V30 47 H -8.507 -1.4373 0.4957 0
M  V30 48 H -8.9586 -1.218 -1.1038 0
M  V30 END ATOM
M  V30 BEGIN BOND
M  V30 1 2 1 2
M  V30 2 2 1 3
M  V30 3 1 1 4
M  V30 4 1 1 5
M  V30 5 1 4 6
M  V30 6 2 5 7
M  V30 7 1 5 8
M  V30 8 2 6 9
M  V30 9 1 6 10
M  V30 10 1 7 11
M  V30 11 2 8 12
M  V30 12 1 10 13
M  V30 13 2 11 14
M  V30 14 2 13 15
M  V30 15 1 13 16
M  V30 16 1 14 17
M  V30 17 1 15 18
M  V30 18 2 16 19
M  V30 19 1 18 20
M  V30 20 2 18 21
M  V30 21 1 20 22
M  V30 22 2 22 23
M  V30 23 1 22 24
M  V30 24 1 23 25
M  V30 25 2 24 26
M  V30 26 2 25 27
M  V30 27 1 27 28
M  V30 28 2 28 29
M  V30 29 2 28 30
M  V30 30 1 28 31
M  V30 31 1 12 14
M  V30 32 1 19 21
M  V30 33 1 26 27
M  V30 34 1 7 32
M  V30 35 1 8 33
M  V30 36 1 10 34
M  V30 37 1 11 35
M  V30 38 1 12 36
M  V30 39 1 17 37
M  V30 40 1 17 38
M  V30 41 1 17 39
M  V30 42 1 19 40
M  V30 43 1 20 41
M  V30 44 1 21 42
M  V30 45 1 23 43
M  V30 46 1 24 44
M  V30 47 1 25 45
M  V30 48 1 26 46
M  V30 49 1 31 47
M  V30 50 1 31 48
M  V30 END BOND
M  V30 END CTAB
M  END
>  <Structure No>
7492

>  <LogS>
-4.3

>  <MMFF94 Energy>
-137.73

$$$$
Compound 7493
Actelion Java MolfileCreator 2.0

  0  0  0  0  0  0              0 V3000
M  V30 BEGIN CTAB
M  V30 COUNTS 43 45 0 0 0
M  V30 BEGIN ATOM
M  V30 1 Cl 3.9045 0.0 -1.866 0
M  V30 2 C 5.1948 0.1159 -0.6752 0
M  V30 3 C 5.0998 0.9343 0.4704 0
M  V30 4 C 6.3856 -0.5739 -0.9201 0
M  V30 5 O 3.9378 1.6479 0.796 0
M  V30 6 N 6.1825 1.0702 1.2809 0
M  V30 7 C 7.4713 -0.4542 -0.0403 0
M  V30 8 C 2.6268 1.1583 0.6924 0
M  V30 9 C 7.3484 0.4115 1.0549 0
M  V30 10 C 8.7794 -1.1524 -0.3121 0
M  V30 11 C 2.2664 -0.1298 1.1463 0
M  V30 12 C 1.6423 1.9915 0.1399 0
M  V30 13 F 9.6542 -0.2635 -0.9089 0
M  V30 14 F 9.3332 -1.6053 0.8728 0
M  V30 15 F 8.6005 -2.2391 -1.1512 0
M  V30 16 Cl 3.4104 -1.1863 1.965 0
M  V30 17 C 0.9476 -0.5746 1.0036 0
M  V30 18 Cl 2.0578 3.6005 -0.4311 0
M  V30 19 C 0.3272 1.5378 0.001 0
M  V30 20 C -0.0325 0.2544 0.4421 0
M  V30 21 N -1.3715 -0.2451 0.2836 0
M  V30 22 C -2.552 0.5667 0.3798 0
M  V30 23 O -2.4859 1.7264 0.8711 0
M  V30 24 N -3.8156 0.0269 -0.0364 0
M  V30 25 C -5.0431 0.7758 -0.0446 0
M  V30 26 O -5.0202 2.0296 0.0908 0
M  V30 27 C -6.3413 0.0925 -0.2512 0
M  V30 28 C -7.3583 0.7131 -1.0059 0
M  V30 29 C -6.5864 -1.1772 0.3109 0
M  V30 30 F -7.1597 1.931 -1.5718 0
M  V30 31 C -8.5823 0.0674 -1.2055 0
M  V30 32 F -5.6611 -1.7833 1.097 0
M  V30 33 C -7.8144 -1.8137 0.1039 0
M  V30 34 C -8.8091 -1.1942 -0.6543 0
M  V30 35 H 6.4659 -1.1875 -1.8087 0
M  V30 36 H 8.1776 0.5583 1.7356 0
M  V30 37 H 0.6771 -1.5643 1.3509 0
M  V30 38 H -0.402 2.1792 -0.4751 0
M  V30 39 H -1.5003 -1.2755 0.1671 0
M  V30 40 H -3.8302 -0.9544 -0.3917 0
M  V30 41 H -9.3562 0.546 -1.7915 0
M  V30 42 H -7.9996 -2.7863 0.5417 0
M  V30 43 H -9.7584 -1.6903 -0.8097 0
M  V30 END ATOM
M  V30 BEGIN BOND
M  V30 1 1 1 2
M  V30 2 2 2 3
M  V30 3 1 2 4
M  V30 4 1 3 5
M  V30 5 1 3 6
M  V30 6 2 4 7
M  V30 7 1 5 8
M  V30 8 2 6 9
M  V30 9 1 7 10
M  V30 10 2 8 11
M  V30 11 1 8 12
M  V30 12 1 10 13
M  V30 13 1 10 14
M  V30 14 1 10 15
M  V30 15 1 11 16
M  V30 16 1 11 17
M  V30 17 1 12 18
M  V30 18 2 12 19
M  V30 19 2 17 20
M  V30 20 1 20 21
M  V30 21 1 21 22
M  V30 22 2 22 23
M  V30 23 1 22 24
M  V30 24 1 24 25
M  V30 25 2 25 26
M  V30 26 1 25 27
M  V30 27 2 27 28
M  V30 28 1 27 29
M  V30 29 1 28 30
M  V30 30 1 28 31
M  V30 31 1 29 32
M  V30 32 2 29 33
M  V30 33 2 31 34
M  V30 34 1 7 9
M  V30 35 1 19 20
M  V30 36 1 33 34
M  V30 37 1 4 35
M  V30 38 1 9 36
M  V30 39 1 17 37
M  V30 40 1 19 38
M  V30 41 1 21 39
M  V30 42 1 24 40
M  V30 43 1 31 41
M  V30 44 1 33 42
M  V30 45 1 34 43
M  V30 END BOND
M  V30 END CTAB
M  END
>  <Structure No>
7493

>  <LogS>
-8.65

>  <MMFF94 Energy>
-3.6482

$$$$
Compound 7494
Actelion Java MolfileCreator 2.0

  0  0  0  0  0  0              0 V3000
M  V30 BEGIN CTAB
M  V30 COUNTS 44 46 0 0 0
M  V30 BEGIN ATOM
M  V30 1 S -3.7935 -2.9496 -0.5894 0
M  V30 2 O -3.5198 -3.3144 -2.0216 0
M  V30 3 O -4.6198 -4.0309 0.0464 0
M  V30 4 N -2.2855 -2.814 0.2521 0 CHG=-1
M  V30 5 C -4.6734 -1.4267 -0.4984 0
M  V30 6 C -1.3196 -1.8074 -0.0539 0
M  V30 7 C -4.6071 -0.6479 0.6653 0
M  V30 8 C -5.4344 -0.9832 -1.5873 0
M  V30 9 N -0.1714 -1.7396 0.6688 0
M  V30 10 N -1.5446 -0.911 -1.0519 0
M  V30 11 C -5.3018 0.5717 0.7501 0
M  V30 12 C -6.1082 0.238 -1.5201 0
M  V30 13 C 0.7749 -0.7979 0.4095 0
M  V30 14 C -0.6395 0.0596 -1.3356 0
M  V30 15 C -6.0348 1.0185 -0.3634 0
M  V30 16 C -5.1772 1.4332 1.9815 0
M  V30 17 N 1.955 -0.7488 1.2265 0
M  V30 18 C 0.5424 0.1451 -0.6023 0
M  V30 19 F -4.0588 2.2369 1.8626 0
M  V30 20 F -5.0497 0.6474 3.1138 0
M  V30 21 F -6.2947 2.2355 2.1358 0
M  V30 22 C 3.2292 -0.2445 0.7915 0
M  V30 23 C 4.0849 0.3614 1.7229 0
M  V30 24 C 3.6643 -0.4047 -0.5358 0
M  V30 25 C 5.3396 0.8349 1.3284 0
M  V30 26 C 4.9192 0.0686 -0.9293 0
M  V30 27 C 5.7631 0.6885 0.0012 0
M  V30 28 S 7.3367 1.2998 -0.4993 0
M  V30 29 O 7.8766 0.4575 -1.621 0
M  V30 30 O 8.2979 1.2372 0.6545 0
M  V30 31 N 7.1809 2.9369 -1.0313 0
M  V30 32 H -4.0089 -0.9898 1.5009 0
M  V30 33 H -5.4993 -1.5761 -2.4905 0
M  V30 34 H -6.6833 0.5841 -2.3693 0
M  V30 35 H -0.8428 0.7709 -2.1249 0
M  V30 36 H -6.5497 1.9708 -0.3404 0
M  V30 37 H 1.8788 -1.1095 2.2045 0
M  V30 38 H 1.2477 0.9393 -0.8088 0
M  V30 39 H 3.7726 0.4772 2.7532 0
M  V30 40 H 3.041 -0.9081 -1.2633 0
M  V30 41 H 5.9788 1.3156 2.058 0
M  V30 42 H 5.2334 -0.0526 -1.9582 0
M  V30 43 H 6.7636 3.4762 -0.2398 0
M  V30 44 H 6.4766 2.9411 -1.8026 0
M  V30 END ATOM
M  V30 BEGIN BOND
M  V30 1 2 1 2
M  V30 2 2 1 3
M  V30 3 1 1 4
M  V30 4 1 1 5
M  V30 5 1 4 6
M  V30 6 2 5 7
M  V30 7 1 5 8
M  V30 8 2 6 9
M  V30 9 1 6 10
M  V30 10 1 7 11
M  V30 11 2 8 12
M  V30 12 1 9 13
M  V30 13 2 10 14
M  V30 14 2 11 15
M  V30 15 1 11 16
M  V30 16 1 13 17
M  V30 17 2 13 18
M  V30 18 1 16 19
M  V30 19 1 16 20
M  V30 20 1 16 21
M  V30 21 1 17 22
M  V30 22 2 22 23
M  V30 23 1 22 24
M  V30 24 1 23 25
M  V30 25 2 24 26
M  V30 26 2 25 27
M  V30 27 1 27 28
M  V30 28 2 28 29
M  V30 29 2 28 30
M  V30 30 1 28 31
M  V30 31 1 12 15
M  V30 32 1 14 18
M  V30 33 1 26 27
M  V30 34 1 7 32
M  V30 35 1 8 33
M  V30 36 1 12 34
M  V30 37 1 14 35
M  V30 38 1 15 36
M  V30 39 1 17 37
M  V30 40 1 18 38
M  V30 41 1 23 39
M  V30 42 1 24 40
M  V30 43 1 25 41
M  V30 44 1 26 42
M  V30 45 1 31 43
M  V30 46 1 31 44
M  V30 END BOND
M  V30 END CTAB
M  END
>  <Structure No>
7494

>  <LogS>
-1.82

>  <MMFF94 Energy>
-53.467

$$$$
Compound 7495
Actelion Java MolfileCreator 2.0

  0  0  0  0  0  0              0 V3000
M  V30 BEGIN CTAB
M  V30 COUNTS 45 47 0 0 0
M  V30 BEGIN ATOM
M  V30 1 Cl 5.0539 -3.873 -0.4204 0
M  V30 2 C 5.2066 -2.1261 -0.3773 0
M  V30 3 C 5.6872 -1.437 -1.4959 0
M  V30 4 C 4.8468 -1.4199 0.7755 0
M  V30 5 C 5.8041 -0.0438 -1.4644 0
M  V30 6 C 4.9646 -0.0271 0.8091 0
M  V30 7 C 5.4389 0.6675 -0.3122 0
M  V30 8 S 5.543 2.4259 -0.2741 0
M  V30 9 O 5.6628 2.9819 -1.6655 0
M  V30 10 O 6.7547 2.8221 0.5205 0
M  V30 11 N 4.1266 3.0845 0.4772 0 CHG=-1
M  V30 12 C 2.7929 2.6717 0.1634 0
M  V30 13 O 1.845 3.091 0.879 0
M  V30 14 N 2.5286 1.8091 -0.9549 0
M  V30 15 C 1.3649 0.9778 -1.0599 0
M  V30 16 N 0.4828 0.877 -0.0279 0
M  V30 17 N 1.1607 0.2516 -2.1908 0
M  V30 18 C -0.6181 0.083 -0.1082 0
M  V30 19 C 0.0866 -0.5695 -2.3119 0
M  V30 20 N -1.4974 -0.0096 1.0235 0
M  V30 21 C -0.8275 -0.6796 -1.2658 0
M  V30 22 C -2.9003 -0.3146 0.9452 0
M  V30 23 C -3.683 0.1191 -0.1394 0
M  V30 24 C -3.5178 -0.9954 2.0044 0
M  V30 25 C -5.0517 -0.1629 -0.18 0
M  V30 26 C -4.8864 -1.2776 1.9629 0
M  V30 27 C -5.657 -0.872 0.8656 0
M  V30 28 S -7.3843 -1.212 0.8235 0
M  V30 29 O -7.6637 -2.5098 1.5285 0
M  V30 30 O -7.846 -1.3299 -0.6018 0
M  V30 31 N -8.247 0.066 1.6045 0
M  V30 32 H 5.9675 -1.9789 -2.3901 0
M  V30 33 H 4.4738 -1.9479 1.6437 0
M  V30 34 H 6.173 0.4767 -2.3385 0
M  V30 35 H 4.6788 0.51 1.7046 0
M  V30 36 H 3.2239 1.7637 -1.7319 0
M  V30 37 H -0.0514 -1.1455 -3.217 0
M  V30 38 H -1.0852 0.1627 1.9686 0
M  V30 39 H -1.6649 -1.3596 -1.3517 0
M  V30 40 H -3.2407 0.6916 -0.9443 0
M  V30 41 H -2.9349 -1.3139 2.8595 0
M  V30 42 H -5.6395 0.1807 -1.0214 0
M  V30 43 H -5.3447 -1.8075 2.7883 0
M  V30 44 H -7.9921 0.9514 1.1122 0
M  V30 45 H -7.8679 0.1414 2.5751 0
M  V30 END ATOM
M  V30 BEGIN BOND
M  V30 1 1 1 2
M  V30 2 2 2 3
M  V30 3 1 2 4
M  V30 4 1 3 5
M  V30 5 2 4 6
M  V30 6 2 5 7
M  V30 7 1 7 8
M  V30 8 2 8 9
M  V30 9 2 8 10
M  V30 10 1 8 11
M  V30 11 1 11 12
M  V30 12 2 12 13
M  V30 13 1 12 14
M  V30 14 1 14 15
M  V30 15 2 15 16
M  V30 16 1 15 17
M  V30 17 1 16 18
M  V30 18 2 17 19
M  V30 19 1 18 20
M  V30 20 2 18 21
M  V30 21 1 20 22
M  V30 22 2 22 23
M  V30 23 1 22 24
M  V30 24 1 23 25
M  V30 25 2 24 26
M  V30 26 2 25 27
M  V30 27 1 27 28
M  V30 28 2 28 29
M  V30 29 2 28 30
M  V30 30 1 28 31
M  V30 31 1 6 7
M  V30 32 1 19 21
M  V30 33 1 26 27
M  V30 34 1 3 32
M  V30 35 1 4 33
M  V30 36 1 5 34
M  V30 37 1 6 35
M  V30 38 1 14 36
M  V30 39 1 19 37
M  V30 40 1 20 38
M  V30 41 1 21 39
M  V30 42 1 23 40
M  V30 43 1 24 41
M  V30 44 1 25 42
M  V30 45 1 26 43
M  V30 46 1 31 44
M  V30 47 1 31 45
M  V30 END BOND
M  V30 END CTAB
M  END
>  <Structure No>
7495

>  <LogS>
-4.0

>  <MMFF94 Energy>
-142.53

$$$$
Compound 7496
Actelion Java MolfileCreator 2.0

  0  0  0  0  0  0              0 V3000
M  V30 BEGIN CTAB
M  V30 COUNTS 168 176 0 0 0
M  V30 BEGIN ATOM
M  V30 1 O 4.2062 -5.1788 0.1615 0
M  V30 2 C 4.0313 -5.9939 -0.9891 0 CFG=2
M  V30 3 C 4.6273 -3.8373 -0.1147 0 CFG=2
M  V30 4 O 3.0769 -5.4527 -1.8933 0
M  V30 5 C 3.6574 -7.455 -0.596 0 CFG=1
M  V30 6 C 6.0267 -3.7538 -0.7921 0 CFG=1
M  V30 7 C 4.5839 -3.0266 1.232 0 CFG=2
M  V30 8 C 1.7883 -5.2729 -1.3085 0 CFG=2
M  V30 9 O 4.1564 -7.7845 0.6786 0
M  V30 10 C 2.1398 -7.7158 -0.7257 0 CFG=2
M  V30 11 O 5.8902 -4.0463 -2.1634 0
M  V30 12 C 6.6686 -2.3519 -0.6584 0 CFG=2
M  V30 13 O 5.3146 -1.8027 1.2697 0
M  V30 14 C 5.072 -3.868 2.4286 0
M  V30 15 C 1.3384 -6.4523 -0.3766 0 CFG=2
M  V30 16 C 0.7983 -4.9874 -2.4549 0
M  V30 17 O 1.7338 -8.8258 0.0383 0
M  V30 18 O 7.9035 -2.4292 0.0143 0
M  V30 19 C 5.7272 -1.332 0.0041 0 CFG=1
M  V30 20 O 4.0945 -4.7955 2.8165 0
M  V30 21 O -0.0524 -6.7223 -0.5199 0
M  V30 22 O 0.7764 -6.0598 -3.363 0
M  V30 23 O 6.4671 -0.1354 0.1987 0
M  V30 24 C -0.7587 -6.6104 0.7084 0 CFG=2
M  V30 25 C 5.7143 1.0354 -0.0786 0 CFG=2
M  V30 26 O -2.0231 -7.2458 0.5893 0
M  V30 27 C -0.8816 -5.1267 1.1713 0 CFG=2
M  V30 28 C 5.6611 1.3189 -1.5973 0 CFG=2
M  V30 29 C 6.3317 2.2237 0.702 0 CFG=2
M  V30 30 C -2.881 -6.5548 -0.3073 0 CFG=2
M  V30 31 O -0.128 -4.9245 2.3404 0
M  V30 32 C -2.342 -4.7054 1.3993 0 CFG=1
M  V30 33 O 6.7692 0.7432 -2.2422 0
M  V30 34 C 5.6184 2.8241 -1.9125 0 CFG=1
M  V30 35 O 5.73 3.4915 0.4459 0
M  V30 36 C 7.8586 2.3257 0.5325 0
M  V30 37 C -3.2197 -5.1105 0.1908 0 CFG=2
M  V30 38 C -4.1212 -7.4259 -0.5565 0
M  V30 39 O -2.8518 -5.2031 2.616 0
M  V30 40 O 4.9011 3.0112 -3.1048 0
M  V30 41 C 4.9723 3.6178 -0.7537 0 CFG=1
M  V30 42 O 8.3607 3.3972 1.2866 0
M  V30 43 O -4.6006 -4.9672 0.513 0
M  V30 44 O -4.7662 -7.7266 0.6504 0
M  V30 45 O 4.9713 5.0024 -1.0914 0
M  V30 46 C -5.0334 -3.6215 0.3598 0 CFG=1
M  V30 47 C 3.6965 5.6467 -1.1729 0 CFG=1
M  V30 48 O -5.6977 -3.4791 -0.8894 0
M  V30 49 C -5.9773 -3.2563 1.5204 0 CFG=1
M  V30 50 C 2.744 5.0668 -2.2573 0 CFG=2
M  V30 51 C 2.9546 5.9367 0.1873 0 CFG=1
M  V30 52 C -6.4239 -2.2535 -1.0514 0 CFG=1
M  V30 53 O -5.3317 -3.5016 2.7429 0
M  V30 54 C -6.3934 -1.7616 1.4306 0 CFG=1
M  V30 55 O 3.3302 5.0866 -3.5338 0
M  V30 56 C 1.381 5.7997 -2.2839 0 CFG=2
M  V30 57 O 1.6126 5.4808 0.134 0
M  V30 58 C 3.6014 5.392 1.4701 0
M  V30 59 C -6.0935 -1.1762 0.0272 0 CFG=2
M  V30 60 C -6.147 -1.7367 -2.4713 0
M  V30 61 O -7.7628 -1.6327 1.7128 0
M  V30 62 O 1.4507 6.9618 -3.0765 0
M  V30 63 C 0.8931 6.1926 -0.8643 0 CFG=2
M  V30 64 O 4.9145 5.8707 1.6089 0
M  V30 65 O -6.8121 0.0402 -0.1702 0
M  V30 66 O -7.0796 -0.7609 -2.8445 0
M  V30 67 O -0.4828 5.8588 -0.767 0
M  V30 68 C -6.0359 1.1488 0.2798 0 CFG=2
M  V30 69 C -1.202 6.7192 0.1106 0 CFG=2
M  V30 70 O -6.8812 2.1427 0.8322 0
M  V30 71 C -5.2757 1.7753 -0.8994 0 CFG=1
M  V30 72 C -1.338 6.0258 1.4921 0 CFG=1
M  V30 73 C -2.6077 6.9992 -0.4913 0 CFG=2
M  V30 74 C -6.0938 3.1056 1.5263 0 CFG=1
M  V30 75 O -6.1703 2.3907 -1.7925 0
M  V30 76 C -4.3201 2.828 -0.3247 0 CFG=2
M  V30 77 O -0.3007 6.4047 2.3581 0
M  V30 78 C -2.7216 6.2665 2.1259 0 CFG=1
M  V30 79 O -3.4652 5.9052 -0.2402 0
M  V30 80 C -2.5585 7.2566 -2.0047 0
M  V30 81 C -5.0556 3.8269 0.6046 0 CFG=2
M  V30 82 C -7.0314 4.1174 2.2044 0
M  V30 83 O -3.6999 3.5149 -1.3819 0
M  V30 84 O -2.8888 7.6287 2.4303 0
M  V30 85 C -3.8289 5.7865 1.1384 0 CFG=1
M  V30 86 O -1.6935 8.3258 -2.281 0
M  V30 87 O -4.0855 4.429 1.4464 0
M  V30 88 O -7.791 4.8218 1.258 0
M  V30 89 H 4.9986 -6.1004 -1.5147 0
M  V30 90 H 3.8923 -3.3481 -0.7941 0
M  V30 91 H 4.1557 -8.1385 -1.3202 0
M  V30 92 H 6.6856 -4.517 -0.3135 0
M  V30 93 H 3.5203 -2.7706 1.4236 0
M  V30 94 H 1.8022 -4.3501 -0.6869 0
M  V30 95 H 3.6513 -7.2476 1.3452 0
M  V30 96 H 1.9261 -7.9617 -1.79 0
M  V30 97 H 6.8005 -4.2611 -2.5089 0
M  V30 98 H 6.8901 -1.9527 -1.6752 0
M  V30 99 H 5.2815 -3.1988 3.294 0
M  V30 100 H 6.0222 -4.3882 2.1599 0
M  V30 101 H 1.6234 -6.167 0.6637 0
M  V30 102 H 1.1365 -4.0796 -2.9936 0
M  V30 103 H -0.2181 -4.7608 -2.0588 0
M  V30 104 H 1.7604 -8.5694 0.9978 0
M  V30 105 H 7.7223 -2.6676 0.9632 0
M  V30 106 H 4.8385 -1.1789 -0.6593 0
M  V30 107 H 4.5395 -5.3909 3.4827 0
M  V30 108 H -0.0809 -6.5399 -3.2327 0
M  V30 109 H -0.2197 -7.1849 1.4991 0
M  V30 110 H 4.6657 0.9296 0.3061 0
M  V30 111 H -0.4786 -4.475 0.3629 0
M  V30 112 H 4.7226 0.8439 -1.9806 0
M  V30 113 H 6.1558 2.0039 1.779 0
M  V30 114 H -2.3816 -6.4731 -1.3003 0
M  V30 115 H 0.0154 -3.9434 2.4228 0
M  V30 116 H -2.3468 -3.5979 1.4845 0
M  V30 117 H 6.4983 0.565 -3.1778 0
M  V30 118 H 6.6644 3.2017 -2.0304 0
M  V30 119 H 8.1546 2.4275 -0.5346 0
M  V30 120 H 8.3361 1.3942 0.9067 0
M  V30 121 H -2.9434 -4.4405 -0.6634 0
M  V30 122 H -4.8223 -6.8943 -1.2457 0
M  V30 123 H -3.8035 -8.3709 -1.0524 0
M  V30 124 H -2.8853 -6.1918 2.5695 0
M  V30 125 H 5.4574 3.5728 -3.7042 0
M  V30 126 H 3.9539 3.2202 -0.5615 0
M  V30 127 H 8.2736 4.2097 0.7241 0
M  V30 128 H -5.5464 -8.292 0.4094 0
M  V30 129 H -4.1756 -2.9147 0.3982 0
M  V30 130 H 3.9484 6.6634 -1.547 0
M  V30 131 H -6.8806 -3.9081 1.4322 0
M  V30 132 H 2.5232 4.0109 -2.0079 0
M  V30 133 H 2.9572 7.044 0.3444 0
M  V30 134 H -7.5088 -2.4968 -0.9838 0
M  V30 135 H -6.0435 -3.5786 3.4327 0
M  V30 136 H -5.8098 -1.1723 2.1733 0
M  V30 137 H 3.7262 5.9831 -3.687 0
M  V30 138 H 0.641 5.0946 -2.7312 0
M  V30 139 H 2.9899 5.7087 2.3457 0
M  V30 140 H 3.5877 4.2868 1.4823 0
M  V30 141 H -4.9958 -0.9989 -0.0679 0
M  V30 142 H -5.1234 -1.3066 -2.5251 0
M  V30 143 H -6.1869 -2.5838 -3.1954 0
M  V30 144 H -7.8661 -1.751 2.6946 0
M  V30 145 H 1.295 6.6876 -4.015 0
M  V30 146 H 1.0575 7.2943 -0.7554 0
M  V30 147 H 4.8464 6.7984 1.9515 0
M  V30 148 H -7.9326 -1.235 -3.0251 0
M  V30 149 H -5.2987 0.8296 1.0628 0
M  V30 150 H -0.731 7.7192 0.2422 0
M  V30 151 H -4.6718 1.0005 -1.4268 0
M  V30 152 H -1.2498 4.926 1.3382 0
M  V30 153 H -3.0364 7.9253 -0.0398 0
M  V30 154 H -5.5442 2.6051 2.3559 0
M  V30 155 H -6.5759 1.6691 -2.3368 0
M  V30 156 H -3.5431 2.3036 0.2824 0
M  V30 157 H -0.37 7.3825 2.509 0
M  V30 158 H -2.7715 5.6753 3.0711 0
M  V30 159 H -2.2192 6.3402 -2.5371 0
M  V30 160 H -3.5792 7.5056 -2.3612 0
M  V30 161 H -5.6088 4.5578 -0.0355 0
M  V30 162 H -7.7031 3.5936 2.9195 0
M  V30 163 H -6.4308 4.8457 2.7897 0
M  V30 164 H -2.9605 2.937 -1.7083 0
M  V30 165 H -3.6138 7.6843 3.1035 0
M  V30 166 H -4.7587 6.3753 1.3215 0
M  V30 167 H -1.6572 8.4027 -3.2688 0
M  V30 168 H -8.4954 4.1984 0.9345 0
M  V30 END ATOM
M  V30 BEGIN BOND
M  V30 1 1 1 2
M  V30 2 1 1 3
M  V30 3 1 2 4
M  V30 4 1 2 5
M  V30 5 1 3 6
M  V30 6 1 3 7
M  V30 7 1 4 8
M  V30 8 1 5 9
M  V30 9 1 5 10
M  V30 10 1 6 11
M  V30 11 1 6 12
M  V30 12 1 7 13
M  V30 13 1 7 14
M  V30 14 1 8 15
M  V30 15 1 8 16
M  V30 16 1 10 17
M  V30 17 1 12 18
M  V30 18 1 12 19
M  V30 19 1 14 20
M  V30 20 1 15 21
M  V30 21 1 16 22
M  V30 22 1 19 23
M  V30 23 1 21 24
M  V30 24 1 23 25
M  V30 25 1 24 26
M  V30 26 1 24 27
M  V30 27 1 25 28
M  V30 28 1 25 29
M  V30 29 1 26 30
M  V30 30 1 27 31
M  V30 31 1 27 32
M  V30 32 1 28 33
M  V30 33 1 28 34
M  V30 34 1 29 35
M  V30 35 1 29 36
M  V30 36 1 30 37
M  V30 37 1 30 38
M  V30 38 1 32 39
M  V30 39 1 34 40
M  V30 40 1 34 41
M  V30 41 1 36 42
M  V30 42 1 37 43
M  V30 43 1 38 44
M  V30 44 1 41 45
M  V30 45 1 43 46
M  V30 46 1 45 47
M  V30 47 1 46 48
M  V30 48 1 46 49
M  V30 49 1 47 50
M  V30 50 1 47 51
M  V30 51 1 48 52
M  V30 52 1 49 53
M  V30 53 1 49 54
M  V30 54 1 50 55
M  V30 55 1 50 56
M  V30 56 1 51 57
M  V30 57 1 51 58
M  V30 58 1 52 59
M  V30 59 1 52 60
M  V30 60 1 54 61
M  V30 61 1 56 62
M  V30 62 1 56 63
M  V30 63 1 58 64
M  V30 64 1 59 65
M  V30 65 1 60 66
M  V30 66 1 63 67
M  V30 67 1 65 68
M  V30 68 1 67 69
M  V30 69 1 68 70
M  V30 70 1 68 71
M  V30 71 1 69 72
M  V30 72 1 69 73
M  V30 73 1 70 74
M  V30 74 1 71 75
M  V30 75 1 71 76
M  V30 76 1 72 77
M  V30 77 1 72 78
M  V30 78 1 73 79
M  V30 79 1 73 80
M  V30 80 1 74 81
M  V30 81 1 74 82
M  V30 82 1 76 83
M  V30 83 1 78 84
M  V30 84 1 78 85
M  V30 85 1 80 86
M  V30 86 1 81 87
M  V30 87 1 82 88
M  V30 88 1 10 15
M  V30 89 1 13 19
M  V30 90 1 32 37
M  V30 91 1 35 41
M  V30 92 1 54 59
M  V30 93 1 57 63
M  V30 94 1 76 81
M  V30 95 1 79 85
M  V30 96 1 85 87
M  V30 97 1 2 89
M  V30 98 1 3 90
M  V30 99 1 5 91
M  V30 100 1 6 92
M  V30 101 1 7 93
M  V30 102 1 8 94
M  V30 103 1 9 95
M  V30 104 1 10 96
M  V30 105 1 11 97
M  V30 106 1 12 98
M  V30 107 1 14 99
M  V30 108 1 14 100
M  V30 109 1 15 101
M  V30 110 1 16 102
M  V30 111 1 16 103
M  V30 112 1 17 104
M  V30 113 1 18 105
M  V30 114 1 19 106
M  V30 115 1 20 107
M  V30 116 1 22 108
M  V30 117 1 24 109
M  V30 118 1 25 110
M  V30 119 1 27 111
M  V30 120 1 28 112
M  V30 121 1 29 113
M  V30 122 1 30 114
M  V30 123 1 31 115
M  V30 124 1 32 116
M  V30 125 1 33 117
M  V30 126 1 34 118
M  V30 127 1 36 119
M  V30 128 1 36 120
M  V30 129 1 37 121
M  V30 130 1 38 122
M  V30 131 1 38 123
M  V30 132 1 39 124
M  V30 133 1 40 125
M  V30 134 1 41 126
M  V30 135 1 42 127
M  V30 136 1 44 128
M  V30 137 1 46 129
M  V30 138 1 47 130
M  V30 139 1 49 131
M  V30 140 1 50 132
M  V30 141 1 51 133
M  V30 142 1 52 134
M  V30 143 1 53 135
M  V30 144 1 54 136
M  V30 145 1 55 137
M  V30 146 1 56 138
M  V30 147 1 58 139
M  V30 148 1 58 140
M  V30 149 1 59 141
M  V30 150 1 60 142
M  V30 151 1 60 143
M  V30 152 1 61 144
M  V30 153 1 62 145
M  V30 154 1 63 146
M  V30 155 1 64 147
M  V30 156 1 66 148
M  V30 157 1 68 149
M  V30 158 1 69 150
M  V30 159 1 71 151
M  V30 160 1 72 152
M  V30 161 1 73 153
M  V30 162 1 74 154
M  V30 163 1 75 155
M  V30 164 1 76 156
M  V30 165 1 77 157
M  V30 166 1 78 158
M  V30 167 1 80 159
M  V30 168 1 80 160
M  V30 169 1 81 161
M  V30 170 1 82 162
M  V30 171 1 82 163
M  V30 172 1 83 164
M  V30 173 1 84 165
M  V30 174 1 85 166
M  V30 175 1 86 167
M  V30 176 1 88 168
M  V30 END BOND
M  V30 BEGIN COLLECTION
M  V30 MDLV30/STEABS ATOMS=(40 2 3 5 6 7 8 10 12 15 19 24 25 27 28 29 30 32 34 37 41 46 47 49 50 51 52 54 56 59 63 68 69 71 72 73 74 76 78 81 85)
M  V30 END COLLECTION
M  V30 END CTAB
M  END
>  <Structure No>
7496

>  <LogS>
-0.75

>  <MMFF94 Energy>
789.5

$$$$
Compound 7497
Actelion Java MolfileCreator 2.0

  0  0  0  0  0  0              0 V3000
M  V30 BEGIN CTAB
M  V30 COUNTS 100 101 0 0 0
M  V30 BEGIN ATOM
M  V30 1 O -2.9297 0.2373 -1.5036 0
M  V30 2 C -3.828 -0.1621 -0.7141 0
M  V30 3 O -4.985 0.6001 -0.4923 0
M  V30 4 N -3.6788 -1.4049 -0.018 0
M  V30 5 C -5.2801 1.8846 -1.0632 0
M  V30 6 C -2.5192 -2.2921 -0.1813 0 CFG=1
M  V30 7 C -4.2177 2.9172 -0.6416 0
M  V30 8 C -5.3701 1.79 -2.5992 0
M  V30 9 C -6.6459 2.3244 -0.5117 0
M  V30 10 C -1.9922 -2.7441 1.2128 0 CFG=1
M  V30 11 C -2.8783 -3.4778 -1.1068 0
M  V30 12 O -0.8989 -3.6256 1.1157 0
M  V30 13 C -1.664 -1.5698 2.172 0
M  V30 14 C -4.0561 -4.2936 -0.6281 0
M  V30 15 C -0.6727 -0.5066 1.6341 0 CFG=2
M  V30 16 C -3.8638 -5.4095 0.2052 0
M  V30 17 C -5.3609 -3.9361 -1.0041 0
M  V30 18 C 0.6986 -1.0937 1.3985 0
M  V30 19 C -0.5805 0.6904 2.6064 0
M  V30 20 C -4.9592 -6.1567 0.6496 0
M  V30 21 C -6.4552 -4.6815 -0.5566 0
M  V30 22 O 1.3138 -1.648 2.3499 0
M  V30 23 N 1.307 -0.9881 0.1049 0
M  V30 24 C 0.3806 1.7458 2.1028 0
M  V30 25 C -6.2535 -5.7925 0.265 0
M  V30 26 C 2.7333 -1.2382 -0.1334 0 CFG=2
M  V30 27 C 1.6538 1.8639 2.6719 0
M  V30 28 C 0.0324 2.56 1.0165 0
M  V30 29 C 3.4643 0.0756 -0.2941 0
M  V30 30 C 2.9297 -2.1948 -1.3422 0
M  V30 31 C 2.5838 2.7855 2.1619 0
M  V30 32 C 0.9494 3.4937 0.4968 0
M  V30 33 O 2.9214 1.0202 -0.9326 0
M  V30 34 N 4.7748 0.2463 0.2639 0
M  V30 35 C 2.52 -1.5802 -2.6922 0
M  V30 36 C 4.3757 -2.7049 -1.4203 0
M  V30 37 O 3.8715 2.9186 2.7061 0
M  V30 38 C 2.241 3.5878 1.0647 0
M  V30 39 O 0.5994 4.3501 -0.5582 0
M  V30 40 C 5.5676 1.4564 0.068 0
M  V30 41 C 4.3961 2.1017 3.7459 0
M  V30 42 O 3.2219 4.4673 0.5773 0
M  V30 43 C -0.6757 4.3877 -1.192 0
M  V30 44 C 6.1057 1.5384 -1.3634 0
M  V30 45 C 3.4153 4.7805 -0.8023 0
M  V30 46 O 6.7523 0.335 -1.7266 0
M  V30 47 C 8.1376 0.4218 -1.4603 0
M  V30 48 H -4.4634 -1.71 0.6013 0
M  V30 49 H -1.7009 -1.7473 -0.6981 0
M  V30 50 H -4.1129 2.9314 0.4637 0
M  V30 51 H -3.2309 2.6759 -1.0793 0
M  V30 52 H -4.499 3.9361 -0.986 0
M  V30 53 H -4.381 1.5722 -3.0482 0
M  V30 54 H -5.7338 2.7481 -3.0311 0
M  V30 55 H -6.072 0.9781 -2.8884 0
M  V30 56 H -7.4296 1.5879 -0.793 0
M  V30 57 H -6.6095 2.3899 0.5975 0
M  V30 58 H -6.9414 3.3186 -0.9138 0
M  V30 59 H -2.8117 -3.3096 1.7076 0
M  V30 60 H -3.0989 -3.0761 -2.1217 0
M  V30 61 H -1.9933 -4.1389 -1.2263 0
M  V30 62 H -0.3061 -3.3177 0.3822 0
M  V30 63 H -1.2792 -1.9862 3.1293 0
M  V30 64 H -2.6204 -1.0608 2.419 0
M  V30 65 H -1.0726 -0.1006 0.6822 0
M  V30 66 H -2.8688 -5.6963 0.5192 0
M  V30 67 H -5.5293 -3.0812 -1.6429 0
M  V30 68 H -0.2664 0.3307 3.6134 0
M  V30 69 H -1.586 1.1568 2.7318 0
M  V30 70 H -4.8049 -7.015 1.2937 0
M  V30 71 H -7.4596 -4.3983 -0.8484 0
M  V30 72 H 0.7442 -0.559 -0.661 0
M  V30 73 H -7.0994 -6.3709 0.6063 0
M  V30 74 H 3.1571 -1.7494 0.7572 0
M  V30 75 H 1.9158 1.2234 3.5012 0
M  V30 76 H -0.9509 2.4534 0.5803 0
M  V30 77 H 2.2818 -3.0846 -1.1701 0
M  V30 78 H 5.1779 -0.5136 0.8575 0
M  V30 79 H 1.4562 -1.2707 -2.6802 0
M  V30 80 H 3.1563 -0.7073 -2.9446 0
M  V30 81 H 2.6302 -2.3342 -3.4995 0
M  V30 82 H 5.0759 -1.8724 -1.6309 0
M  V30 83 H 4.6698 -3.1853 -0.4649 0
M  V30 84 H 4.4735 -3.4637 -2.2255 0
M  V30 85 H 4.9471 2.3482 0.2835 0
M  V30 86 H 6.4141 1.4622 0.7896 0
M  V30 87 H 4.3906 1.0363 3.4329 0
M  V30 88 H 5.4448 2.4063 3.9503 0
M  V30 89 H 3.8021 2.2375 4.674 0
M  V30 90 H -0.8813 3.4216 -1.6998 0
M  V30 91 H -0.68 5.1959 -1.9544 0
M  V30 92 H -1.4679 4.6061 -0.4445 0
M  V30 93 H 5.2514 1.6895 -2.0551 0
M  V30 94 H 6.7497 2.4442 -1.4764 0
M  V30 95 H 3.4153 3.8459 -1.4063 0
M  V30 96 H 4.4019 5.2766 -0.9228 0
M  V30 97 H 2.6325 5.4808 -1.1614 0
M  V30 98 H 8.3377 0.6714 -0.3941 0
M  V30 99 H 8.5996 -0.5667 -1.6627 0
M  V30 100 H 8.6255 1.1675 -2.1264 0
M  V30 END ATOM
M  V30 BEGIN BOND
M  V30 1 2 1 2
M  V30 2 1 2 3
M  V30 3 1 2 4
M  V30 4 1 3 5
M  V30 5 1 4 6
M  V30 6 1 5 7
M  V30 7 1 5 8
M  V30 8 1 5 9
M  V30 9 1 6 10
M  V30 10 1 6 11
M  V30 11 1 10 12
M  V30 12 1 10 13
M  V30 13 1 11 14
M  V30 14 1 13 15
M  V30 15 2 14 16
M  V30 16 1 14 17
M  V30 17 1 15 18
M  V30 18 1 15 19
M  V30 19 1 16 20
M  V30 20 2 17 21
M  V30 21 2 18 22
M  V30 22 1 18 23
M  V30 23 1 19 24
M  V30 24 2 20 25
M  V30 25 1 23 26
M  V30 26 2 24 27
M  V30 27 1 24 28
M  V30 28 1 26 29
M  V30 29 1 26 30
M  V30 30 1 27 31
M  V30 31 2 28 32
M  V30 32 2 29 33
M  V30 33 1 29 34
M  V30 34 1 30 35
M  V30 35 1 30 36
M  V30 36 1 31 37
M  V30 37 2 31 38
M  V30 38 1 32 39
M  V30 39 1 34 40
M  V30 40 1 37 41
M  V30 41 1 38 42
M  V30 42 1 39 43
M  V30 43 1 40 44
M  V30 44 1 42 45
M  V30 45 1 44 46
M  V30 46 1 46 47
M  V30 47 1 21 25
M  V30 48 1 32 38
M  V30 49 1 4 48
M  V30 50 1 6 49
M  V30 51 1 7 50
M  V30 52 1 7 51
M  V30 53 1 7 52
M  V30 54 1 8 53
M  V30 55 1 8 54
M  V30 56 1 8 55
M  V30 57 1 9 56
M  V30 58 1 9 57
M  V30 59 1 9 58
M  V30 60 1 10 59
M  V30 61 1 11 60
M  V30 62 1 11 61
M  V30 63 1 12 62
M  V30 64 1 13 63
M  V30 65 1 13 64
M  V30 66 1 15 65
M  V30 67 1 16 66
M  V30 68 1 17 67
M  V30 69 1 19 68
M  V30 70 1 19 69
M  V30 71 1 20 70
M  V30 72 1 21 71
M  V30 73 1 23 72
M  V30 74 1 25 73
M  V30 75 1 26 74
M  V30 76 1 27 75
M  V30 77 1 28 76
M  V30 78 1 30 77
M  V30 79 1 34 78
M  V30 80 1 35 79
M  V30 81 1 35 80
M  V30 82 1 35 81
M  V30 83 1 36 82
M  V30 84 1 36 83
M  V30 85 1 36 84
M  V30 86 1 40 85
M  V30 87 1 40 86
M  V30 88 1 41 87
M  V30 89 1 41 88
M  V30 90 1 41 89
M  V30 91 1 43 90
M  V30 92 1 43 91
M  V30 93 1 43 92
M  V30 94 1 44 93
M  V30 95 1 44 94
M  V30 96 1 45 95
M  V30 97 1 45 96
M  V30 98 1 45 97
M  V30 99 1 47 98
M  V30 100 1 47 99
M  V30 101 1 47 100
M  V30 END BOND
M  V30 BEGIN COLLECTION
M  V30 MDLV30/STEABS ATOMS=(4 6 10 15 26)
M  V30 END COLLECTION
M  V30 END CTAB
M  END
>  <Structure No>
7497

>  <LogS>
-4.0

>  <MMFF94 Energy>
53.004

$$$$
Compound 7498
Actelion Java MolfileCreator 2.0

  0  0  0  0  0  0              0 V3000
M  V30 BEGIN CTAB
M  V30 COUNTS 41 43 0 0 0
M  V30 BEGIN ATOM
M  V30 1 S 3.9341 -2.5644 -1.4526 0
M  V30 2 O 5.2355 -3.266 -1.7203 0
M  V30 3 O 3.1158 -2.5835 -2.7129 0
M  V30 4 N 3.0789 -3.4079 -0.2045 0 CHG=-1
M  V30 5 C 4.2726 -0.9099 -0.9274 0
M  V30 6 C 1.891 -2.8931 0.3983 0
M  V30 7 C 5.2023 -0.6889 0.103 0
M  V30 8 C 3.5953 0.188 -1.492 0
M  V30 9 N 1.3783 -1.6963 0.0055 0
M  V30 10 N 1.2766 -3.5998 1.3819 0
M  V30 11 F 5.8516 -1.732 0.6796 0
M  V30 12 C 5.4599 0.6102 0.5535 0
M  V30 13 F 2.6719 0.0114 -2.4698 0
M  V30 14 C 3.8557 1.4843 -1.0343 0
M  V30 15 C 0.2518 -1.186 0.5682 0
M  V30 16 C 0.1565 -3.1258 1.9861 0
M  V30 17 F 6.3586 0.8164 1.548 0
M  V30 18 C 4.7879 1.6957 -0.0149 0
M  V30 19 F 3.1971 2.5386 -1.5769 0
M  V30 20 N -0.2164 0.1037 0.145 0
M  V30 21 C -0.3786 -1.8976 1.599 0
M  V30 22 F 5.0363 2.9538 0.4267 0
M  V30 23 C -1.5868 0.5345 0.1988 0
M  V30 24 C -2.6454 -0.367 -0.0095 0
M  V30 25 C -1.8745 1.8927 0.3963 0
M  V30 26 C -3.9695 0.0804 0.018 0
M  V30 27 C -3.1989 2.3394 0.4243 0
M  V30 28 C -4.252 1.4357 0.233 0
M  V30 29 S -5.9194 1.9982 0.2831 0
M  V30 30 O -6.783 1.1101 -0.568 0
M  V30 31 O -5.9983 3.4017 -0.2498 0
M  V30 32 N -6.4887 1.9627 1.9148 0
M  V30 33 H -0.3122 -3.6977 2.7756 0
M  V30 34 H 0.4928 0.7722 -0.2327 0
M  V30 35 H -1.2505 -1.5059 2.1063 0
M  V30 36 H -2.4483 -1.4122 -0.2088 0
M  V30 37 H -1.0705 2.6035 0.5406 0
M  V30 38 H -4.7723 -0.6297 -0.1333 0
M  V30 39 H -3.402 3.3889 0.595 0
M  V30 40 H -5.8913 2.6232 2.4607 0
M  V30 41 H -7.4538 2.3625 1.9105 0
M  V30 END ATOM
M  V30 BEGIN BOND
M  V30 1 2 1 2
M  V30 2 2 1 3
M  V30 3 1 1 4
M  V30 4 1 1 5
M  V30 5 1 4 6
M  V30 6 2 5 7
M  V30 7 1 5 8
M  V30 8 2 6 9
M  V30 9 1 6 10
M  V30 10 1 7 11
M  V30 11 1 7 12
M  V30 12 1 8 13
M  V30 13 2 8 14
M  V30 14 1 9 15
M  V30 15 2 10 16
M  V30 16 1 12 17
M  V30 17 2 12 18
M  V30 18 1 14 19
M  V30 19 1 15 20
M  V30 20 2 15 21
M  V30 21 1 18 22
M  V30 22 1 20 23
M  V30 23 2 23 24
M  V30 24 1 23 25
M  V30 25 1 24 26
M  V30 26 2 25 27
M  V30 27 2 26 28
M  V30 28 1 28 29
M  V30 29 2 29 30
M  V30 30 2 29 31
M  V30 31 1 29 32
M  V30 32 1 14 18
M  V30 33 1 16 21
M  V30 34 1 27 28
M  V30 35 1 16 33
M  V30 36 1 20 34
M  V30 37 1 21 35
M  V30 38 1 24 36
M  V30 39 1 25 37
M  V30 40 1 26 38
M  V30 41 1 27 39
M  V30 42 1 32 40
M  V30 43 1 32 41
M  V30 END BOND
M  V30 END CTAB
M  END
>  <Structure No>
7498

>  <LogS>
-1.57

>  <MMFF94 Energy>
-114.08

$$$$
Compound 7499
Actelion Java MolfileCreator 2.0

  0  0  0  0  0  0              0 V3000
M  V30 BEGIN CTAB
M  V30 COUNTS 64 68 0 0 0
M  V30 BEGIN ATOM
M  V30 1 O -3.4991 1.8704 -2.0332 0
M  V30 2 C -2.3394 1.5206 -2.3774 0
M  V30 3 O -2.0029 1.5014 -3.726 0 CHG=-1
M  V30 4 C -1.3235 1.1486 -1.3316 0 CFG=1
M  V30 5 C -0.7319 -0.2673 -1.5627 0 CFG=2
M  V30 6 C -0.1139 2.1213 -1.3246 0 CFG=1
M  V30 7 C -1.4614 -1.3464 -0.775 0
M  V30 8 C 0.7018 -0.1053 -1.1899 0
M  V30 9 C -0.2797 3.2258 -0.2987 0
M  V30 10 C 1.0462 1.2198 -1.0627 0
M  V30 11 C -1.3602 -1.459 0.6325 0
M  V30 12 C -2.3053 -2.2256 -1.4735 0
M  V30 13 C 1.6582 -1.1165 -1.0597 0
M  V30 14 C -0.7555 4.4896 -0.7161 0
M  V30 15 C -0.0503 2.9927 1.0852 0
M  V30 16 C 2.3666 1.5969 -0.8052 0
M  V30 17 O -0.5316 -0.5647 1.3339 0
M  V30 18 C -2.0882 -2.4664 1.2976 0
M  V30 19 C -3.0192 -3.2176 -0.802 0
M  V30 20 C 2.9933 -0.7622 -0.7647 0
M  V30 21 C -0.9601 5.4679 0.2523 0
M  V30 22 C -0.2676 4.01 2.0308 0
M  V30 23 C 3.3362 0.5977 -0.6421 0
M  V30 24 C -0.3609 -0.5258 2.7503 0
M  V30 25 C -2.913 -3.3459 0.5914 0
M  V30 26 O 4.0018 -1.7206 -0.5925 0
M  V30 27 O -1.4146 6.7616 0.0851 0
M  V30 28 C -0.7259 5.2383 1.5681 0
M  V30 29 C -1.5835 0.025 3.413 0
M  V30 30 O -3.6085 -4.3293 1.311 0
M  V30 31 C 3.7942 -3.1291 -0.6695 0
M  V30 32 C -1.4668 7.3836 1.3767 0
M  V30 33 O -1.0198 6.3759 2.2944 0
M  V30 34 O -1.9755 -0.4499 4.5108 0
M  V30 35 O -2.264 1.0944 2.8443 0 CHG=-1
M  V30 36 C -4.4813 -5.2889 0.7245 0
M  V30 37 C 5.1076 -3.8659 -0.411 0
M  V30 38 C 6.139 -3.5841 -1.5008 0
M  V30 39 H -1.8177 1.1758 -0.3326 0
M  V30 40 H -0.7396 -0.5151 -2.648 0
M  V30 41 H 0.0435 2.5614 -2.3352 0
M  V30 42 H -2.4143 -2.1441 -2.548 0
M  V30 43 H 1.3605 -2.1486 -1.1842 0
M  V30 44 H -0.9676 4.699 -1.7568 0
M  V30 45 H 0.2942 2.0283 1.4279 0
M  V30 46 H 2.6379 2.6419 -0.7291 0
M  V30 47 H -2.0264 -2.5791 2.3706 0
M  V30 48 H -3.6533 -3.8785 -1.377 0
M  V30 49 H -0.0936 3.84 3.0849 0
M  V30 50 H 4.3595 0.8782 -0.428 0
M  V30 51 H 0.4934 0.1409 2.9862 0
M  V30 52 H -0.1101 -1.5361 3.1384 0
M  V30 53 H 3.4021 -3.4019 -1.6737 0
M  V30 54 H 3.0549 -3.4361 0.1019 0
M  V30 55 H -2.5086 7.6846 1.6153 0
M  V30 56 H -0.7852 8.2595 1.4079 0
M  V30 57 H -5.3262 -4.7768 0.2179 0
M  V30 58 H -4.8889 -5.9431 1.522 0
M  V30 59 H -3.9247 -5.9182 -0.0012 0
M  V30 60 H 4.9091 -4.9587 -0.3768 0
M  V30 61 H 5.518 -3.5574 0.5748 0
M  V30 62 H 5.7499 -3.9009 -2.4917 0
M  V30 63 H 7.0687 -4.1521 -1.2871 0
M  V30 64 H 6.3858 -2.5017 -1.5325 0
M  V30 END ATOM
M  V30 BEGIN BOND
M  V30 1 2 1 2
M  V30 2 1 2 3
M  V30 3 1 2 4
M  V30 4 1 4 5
M  V30 5 1 4 6
M  V30 6 1 5 7
M  V30 7 1 5 8
M  V30 8 1 6 9
M  V30 9 1 6 10
M  V30 10 2 7 11
M  V30 11 1 7 12
M  V30 12 1 8 13
M  V30 13 2 9 14
M  V30 14 1 9 15
M  V30 15 1 10 16
M  V30 16 1 11 17
M  V30 17 1 11 18
M  V30 18 2 12 19
M  V30 19 2 13 20
M  V30 20 1 14 21
M  V30 21 2 15 22
M  V30 22 2 16 23
M  V30 23 1 17 24
M  V30 24 2 18 25
M  V30 25 1 20 26
M  V30 26 1 21 27
M  V30 27 2 21 28
M  V30 28 1 24 29
M  V30 29 1 25 30
M  V30 30 1 26 31
M  V30 31 1 27 32
M  V30 32 1 28 33
M  V30 33 2 29 34
M  V30 34 1 29 35
M  V30 35 1 30 36
M  V30 36 1 31 37
M  V30 37 1 37 38
M  V30 38 2 8 10
M  V30 39 1 19 25
M  V30 40 1 20 23
M  V30 41 1 22 28
M  V30 42 1 32 33
M  V30 43 1 4 39
M  V30 44 1 5 40
M  V30 45 1 6 41
M  V30 46 1 12 42
M  V30 47 1 13 43
M  V30 48 1 14 44
M  V30 49 1 15 45
M  V30 50 1 16 46
M  V30 51 1 18 47
M  V30 52 1 19 48
M  V30 53 1 22 49
M  V30 54 1 23 50
M  V30 55 1 24 51
M  V30 56 1 24 52
M  V30 57 1 31 53
M  V30 58 1 31 54
M  V30 59 1 32 55
M  V30 60 1 32 56
M  V30 61 1 36 57
M  V30 62 1 36 58
M  V30 63 1 36 59
M  V30 64 1 37 60
M  V30 65 1 37 61
M  V30 66 1 38 62
M  V30 67 1 38 63
M  V30 68 1 38 64
M  V30 END BOND
M  V30 BEGIN COLLECTION
M  V30 MDLV30/STEABS ATOMS=(3 4 5 6)
M  V30 END COLLECTION
M  V30 END CTAB
M  END
>  <Structure No>
7499

>  <LogS>
-6.77

>  <MMFF94 Energy>
160.04

$$$$
Compound 7500
Actelion Java MolfileCreator 2.0

  0  0  0  0  0  0              0 V3000
M  V30 BEGIN CTAB
M  V30 COUNTS 87 94 0 0 0
M  V30 BEGIN ATOM
M  V30 1 O -6.2405 1.0515 0.2425 0
M  V30 2 C -5.1151 0.6102 0.6049 0
M  V30 3 N -4.6365 0.8401 1.94 0
M  V30 4 C -4.2578 -0.1781 -0.3601 0 CFG=2
M  V30 5 C -3.4444 0.1787 2.438 0 CFG=2
M  V30 6 C -5.418 1.4731 2.9851 0
M  V30 7 N -3.4192 -1.1305 0.3979 0
M  V30 8 C -3.3764 0.7855 -1.1868 0
M  V30 9 C -3.3827 -1.2456 1.8494 0 CFG=1
M  V30 10 C -3.5409 0.257 3.9662 0
M  V30 11 C -4.5836 1.3388 4.2551 0
M  V30 12 C -2.3146 -1.8453 -0.0783 0
M  V30 13 C -4.1958 1.7732 -1.9818 0
M  V30 14 O -2.1681 -1.9019 2.2254 0
M  V30 15 O -4.4972 -2.0018 2.2632 0
M  V30 16 O -2.1593 -2.1668 -1.2854 0
M  V30 17 C -1.4519 -2.2705 1.05 0 CFG=2
M  V30 18 C -4.2199 3.1324 -1.6206 0
M  V30 19 C -4.9626 1.3334 -3.0801 0
M  V30 20 N -0.184 -1.5205 1.0357 0
M  V30 21 C -1.1913 -3.81 1.0507 0
M  V30 22 C -4.9989 4.0391 -2.3487 0
M  V30 23 C -5.7484 2.2426 -3.7956 0
M  V30 24 C 0.8066 -1.572 -0.0084 0
M  V30 25 C -0.2448 -4.2237 2.1898 0
M  V30 26 C -2.4948 -4.6212 1.1516 0
M  V30 27 C -5.7654 3.5945 -3.4312 0
M  V30 28 O 0.545 -2.1393 -1.1026 0
M  V30 29 C 2.1861 -0.9911 0.2357 0 CFG=2
M  V30 30 C 2.1009 0.4993 0.6627 0
M  V30 31 C 3.1176 -1.1344 -0.9787 0
M  V30 32 N 3.3908 1.2486 0.5634 0 CHG=1 CFG=1
M  V30 33 C 4.5601 -0.6854 -0.6429 0 CFG=2
M  V30 34 C 4.5836 0.3511 0.5554 0 CFG=1
M  V30 35 C 3.3661 2.213 -0.5571 0
M  V30 36 C 5.2977 -0.1904 -1.8825 0
M  V30 37 C 5.9355 1.1292 0.726 0
M  V30 38 C 6.2151 0.8295 -1.7341 0
M  V30 39 C 5.2059 -0.7716 -3.1715 0
M  V30 40 C 6.5277 1.4891 -0.5961 0
M  V30 41 C 6.99 1.317 -2.7372 0
M  V30 42 C 5.9956 -0.2683 -4.2393 0
M  V30 43 C 7.5367 2.3822 -0.9404 0
M  V30 44 N 7.8094 2.279 -2.2673 0
M  V30 45 C 6.9052 0.7929 -4.027 0
M  V30 46 H -4.9163 -0.7578 -1.0425 0
M  V30 47 H -2.5529 0.7512 2.0972 0
M  V30 48 H -5.596 2.5403 2.7374 0
M  V30 49 H -6.3879 0.9421 3.1006 0
M  V30 50 H -2.76 0.2089 -1.9031 0
M  V30 51 H -2.6715 1.3143 -0.5106 0
M  V30 52 H -2.559 0.5312 4.4131 0
M  V30 53 H -3.8775 -0.7005 4.414 0
M  V30 54 H -4.0677 2.3039 4.4629 0
M  V30 55 H -5.2189 1.0669 5.1284 0
M  V30 56 H -4.2489 -2.4968 3.0855 0
M  V30 57 H -3.6379 3.4896 -0.7768 0
M  V30 58 H -4.9582 0.2879 -3.3665 0
M  V30 59 H 0.0613 -1.0024 1.9086 0
M  V30 60 H -0.6987 -4.0942 0.0958 0
M  V30 61 H -5.0127 5.0864 -2.0713 0
M  V30 62 H -6.3464 1.8989 -4.6318 0
M  V30 63 H -0.67 -3.9414 3.176 0
M  V30 64 H 0.7446 -3.7325 2.0767 0
M  V30 65 H -0.0798 -5.3224 2.1751 0
M  V30 66 H -2.9971 -4.4365 2.122 0
M  V30 67 H -2.2763 -5.7073 1.0729 0
M  V30 68 H -3.1931 -4.3586 0.3311 0
M  V30 69 H -6.3719 4.296 -3.991 0
M  V30 70 H 2.6224 -1.5776 1.0726 0
M  V30 71 H 1.2998 0.9973 0.0677 0
M  V30 72 H 1.7488 0.5329 1.7195 0
M  V30 73 H 3.143 -2.1968 -1.3111 0
M  V30 74 H 2.7018 -0.5334 -1.818 0
M  V30 75 H 3.4607 1.8328 1.4319 0
M  V30 76 H 5.1154 -1.5857 -0.2947 0
M  V30 77 H 4.519 -0.2632 1.4836 0
M  V30 78 H 2.4813 2.8803 -0.4745 0
M  V30 79 H 3.3247 1.7038 -1.5419 0
M  V30 80 H 4.2506 2.8836 -0.526 0
M  V30 81 H 6.6648 0.4761 1.2542 0
M  V30 82 H 5.7975 2.0419 1.3423 0
M  V30 83 H 4.5359 -1.6029 -3.3537 0
M  V30 84 H 5.9095 -0.712 -5.2237 0
M  V30 85 H 8.0497 3.0522 -0.262 0
M  V30 86 H 8.5256 2.817 -2.8033 0
M  V30 87 H 7.5237 1.1699 -4.8323 0
M  V30 END ATOM
M  V30 BEGIN BOND
M  V30 1 2 1 2
M  V30 2 1 2 3
M  V30 3 1 2 4
M  V30 4 1 3 5
M  V30 5 1 3 6
M  V30 6 1 4 7
M  V30 7 1 4 8
M  V30 8 1 5 9
M  V30 9 1 5 10
M  V30 10 1 6 11
M  V30 11 1 7 12
M  V30 12 1 8 13
M  V30 13 1 9 14
M  V30 14 1 9 15
M  V30 15 2 12 16
M  V30 16 1 12 17
M  V30 17 2 13 18
M  V30 18 1 13 19
M  V30 19 1 17 20
M  V30 20 1 17 21
M  V30 21 1 18 22
M  V30 22 2 19 23
M  V30 23 1 20 24
M  V30 24 1 21 25
M  V30 25 1 21 26
M  V30 26 2 22 27
M  V30 27 2 24 28
M  V30 28 1 24 29
M  V30 29 1 29 30
M  V30 30 1 29 31
M  V30 31 1 30 32
M  V30 32 1 31 33
M  V30 33 1 32 34
M  V30 34 1 32 35
M  V30 35 1 33 36
M  V30 36 1 34 37
M  V30 37 2 36 38
M  V30 38 1 36 39
M  V30 39 1 37 40
M  V30 40 1 38 41
M  V30 41 2 39 42
M  V30 42 2 40 43
M  V30 43 1 41 44
M  V30 44 2 41 45
M  V30 45 1 7 9
M  V30 46 1 10 11
M  V30 47 1 14 17
M  V30 48 1 23 27
M  V30 49 1 33 34
M  V30 50 1 38 40
M  V30 51 1 42 45
M  V30 52 1 43 44
M  V30 53 1 4 46
M  V30 54 1 5 47
M  V30 55 1 6 48
M  V30 56 1 6 49
M  V30 57 1 8 50
M  V30 58 1 8 51
M  V30 59 1 10 52
M  V30 60 1 10 53
M  V30 61 1 11 54
M  V30 62 1 11 55
M  V30 63 1 15 56
M  V30 64 1 18 57
M  V30 65 1 19 58
M  V30 66 1 20 59
M  V30 67 1 21 60
M  V30 68 1 22 61
M  V30 69 1 23 62
M  V30 70 1 25 63
M  V30 71 1 25 64
M  V30 72 1 25 65
M  V30 73 1 26 66
M  V30 74 1 26 67
M  V30 75 1 26 68
M  V30 76 1 27 69
M  V30 77 1 29 70
M  V30 78 1 30 71
M  V30 79 1 30 72
M  V30 80 1 31 73
M  V30 81 1 31 74
M  V30 82 1 32 75
M  V30 83 1 33 76
M  V30 84 1 34 77
M  V30 85 1 35 78
M  V30 86 1 35 79
M  V30 87 1 35 80
M  V30 88 1 37 81
M  V30 89 1 37 82
M  V30 90 1 39 83
M  V30 91 1 42 84
M  V30 92 1 43 85
M  V30 93 1 44 86
M  V30 94 1 45 87
M  V30 END BOND
M  V30 BEGIN COLLECTION
M  V30 MDLV30/STEABS ATOMS=(8 4 5 9 17 29 32 33 34)
M  V30 END COLLECTION
M  V30 END CTAB
M  END
>  <Structure No>
7500

>  <LogS>
-5.27

>  <MMFF94 Energy>
85.047

$$$$
Compound 7501
Actelion Java MolfileCreator 2.0

  0  0  0  0  0  0              0 V3000
M  V30 BEGIN CTAB
M  V30 COUNTS 85 90 0 0 0
M  V30 BEGIN ATOM
M  V30 1 O -3.6266 2.5779 -0.7245 0
M  V30 2 C -3.9814 1.3931 -0.4751 0
M  V30 3 O -3.0452 0.3523 -0.5376 0
M  V30 4 C -5.3785 1.1067 -0.0829 0
M  V30 5 C -1.6337 0.5748 -0.5582 0 CFG=1
M  V30 6 C -5.7218 -0.1423 0.4446 0
M  V30 7 C -6.3667 2.0918 -0.1999 0
M  V30 8 C -1.1305 0.9841 0.8585 0 CFG=1
M  V30 9 C -0.9313 -0.6804 -1.0875 0
M  V30 10 C -7.0288 -0.3984 0.8959 0
M  V30 11 C -7.6861 1.8543 0.2323 0
M  V30 12 O -1.9709 0.3964 1.8436 0
M  V30 13 C 0.3778 0.6386 1.1103 0 CFG=1
M  V30 14 C 0.5968 -0.4632 -1.2392 0 CFG=1
M  V30 15 O -7.3928 -1.6354 1.4522 0
M  V30 16 C -8.0073 0.6026 0.8163 0
M  V30 17 O -8.6826 2.8351 0.0829 0
M  V30 18 C -2.0715 1.231 2.9774 0
M  V30 19 C 0.5809 -0.5929 1.9739 0
M  V30 20 C 1.1689 0.5769 -0.2247 0 CFG=2
M  V30 21 C 1.3598 -1.816 -1.2471 0
M  V30 22 C -6.4968 -2.7256 1.6584 0
M  V30 23 O -9.2757 0.2917 1.3418 0
M  V30 24 C -8.4959 4.1026 -0.5398 0
M  V30 25 O 1.4575 -0.5757 2.8801 0
M  V30 26 O -0.1944 -1.7374 1.7803 0
M  V30 27 C 2.7023 0.4779 -0.0316 0
M  V30 28 N 2.8491 -1.7022 -1.1827 0 CHG=1 CFG=2
M  V30 29 C -10.3207 1.2182 1.6278 0
M  V30 30 C -0.0285 -2.9212 2.5508 0
M  V30 31 C 3.3411 -0.2941 -1.1951 0 CFG=2
M  V30 32 C 3.4984 -2.5016 -2.2566 0
M  V30 33 C 4.8461 -0.2781 -1.1261 0
M  V30 34 C 5.0203 -2.6449 -2.0248 0
M  V30 35 N 5.6324 0.7901 -0.8509 0
M  V30 36 C 5.5998 -1.3376 -1.5883 0
M  V30 37 C 6.8915 0.3782 -1.0971 0
M  V30 38 C 6.9114 -0.9192 -1.5459 0
M  V30 39 C 8.0602 1.1281 -0.9778 0
M  V30 40 C 8.0962 -1.5599 -1.8977 0
M  V30 41 C 9.2874 0.5102 -1.3295 0
M  V30 42 C 9.2932 -0.8317 -1.7827 0
M  V30 43 O 10.5119 1.1883 -1.2524 0
M  V30 44 C 10.6492 2.5441 -0.8389 0
M  V30 45 H -1.4075 1.3961 -1.2779 0
M  V30 46 H -4.9629 -0.9064 0.5302 0
M  V30 47 H -6.1034 3.0459 -0.6292 0
M  V30 48 H -1.222 2.0993 0.8699 0
M  V30 49 H -1.3571 -0.9371 -2.0842 0
M  V30 50 H -1.1614 -1.5343 -0.4211 0
M  V30 51 H 0.7986 1.494 1.6861 0
M  V30 52 H 0.7414 -0.0234 -2.2531 0
M  V30 53 H -2.5569 2.1982 2.72 0
M  V30 54 H -1.0757 1.4021 3.4399 0
M  V30 55 H -2.7086 0.7259 3.7311 0
M  V30 56 H 1.0053 1.5727 -0.703 0
M  V30 57 H 1.0328 -2.3673 -2.1582 0
M  V30 58 H 1.0114 -2.4334 -0.3916 0
M  V30 59 H -7.0489 -3.5668 2.1267 0
M  V30 60 H -5.6733 -2.4174 2.3369 0
M  V30 61 H -6.081 -3.0698 0.6858 0
M  V30 62 H -8.1652 3.9653 -1.592 0
M  V30 63 H -7.748 4.7018 0.0225 0
M  V30 64 H -9.4624 4.6513 -0.5425 0
M  V30 65 H 2.9663 -0.0323 0.9185 0
M  V30 66 H 3.119 1.5064 0.0286 0
M  V30 67 H 3.144 -2.1317 -0.2706 0
M  V30 68 H -11.0986 0.7094 2.2273 0
M  V30 69 H -9.9318 2.073 2.2185 0
M  V30 70 H -10.7864 1.5686 0.6836 0
M  V30 71 H 0.9975 -3.3236 2.4126 0
M  V30 72 H -0.2116 -2.7062 3.624 0
M  V30 73 H -0.759 -3.6818 2.2109 0
M  V30 74 H 3.0672 0.2018 -2.1553 0
M  V30 75 H 3.0606 -3.5251 -2.2969 0
M  V30 76 H 3.3218 -2.0228 -3.2452 0
M  V30 77 H 5.2059 -3.3974 -1.2292 0
M  V30 78 H 5.5161 -2.9857 -2.9606 0
M  V30 79 H 5.3355 1.7422 -0.5476 0
M  V30 80 H 8.0075 2.1502 -0.6287 0
M  V30 81 H 8.0981 -2.5832 -2.2551 0
M  V30 82 H 10.2302 -1.3039 -2.053 0
M  V30 83 H 10.0566 3.2094 -1.5019 0
M  V30 84 H 11.714 2.8406 -0.9016 0
M  V30 85 H 10.3161 2.6574 0.2141 0
M  V30 END ATOM
M  V30 BEGIN BOND
M  V30 1 2 1 2
M  V30 2 1 2 3
M  V30 3 1 2 4
M  V30 4 1 3 5
M  V30 5 2 4 6
M  V30 6 1 4 7
M  V30 7 1 5 8
M  V30 8 1 5 9
M  V30 9 1 6 10
M  V30 10 2 7 11
M  V30 11 1 8 12
M  V30 12 1 8 13
M  V30 13 1 9 14
M  V30 14 1 10 15
M  V30 15 2 10 16
M  V30 16 1 11 17
M  V30 17 1 12 18
M  V30 18 1 13 19
M  V30 19 1 13 20
M  V30 20 1 14 21
M  V30 21 1 15 22
M  V30 22 1 16 23
M  V30 23 1 17 24
M  V30 24 2 19 25
M  V30 25 1 19 26
M  V30 26 1 20 27
M  V30 27 1 21 28
M  V30 28 1 23 29
M  V30 29 1 26 30
M  V30 30 1 27 31
M  V30 31 1 28 32
M  V30 32 1 31 33
M  V30 33 1 32 34
M  V30 34 1 33 35
M  V30 35 2 33 36
M  V30 36 1 35 37
M  V30 37 1 36 38
M  V30 38 1 37 39
M  V30 39 1 38 40
M  V30 40 2 39 41
M  V30 41 2 40 42
M  V30 42 1 41 43
M  V30 43 1 43 44
M  V30 44 1 11 16
M  V30 45 1 14 20
M  V30 46 1 28 31
M  V30 47 1 34 36
M  V30 48 2 37 38
M  V30 49 1 41 42
M  V30 50 1 5 45
M  V30 51 1 6 46
M  V30 52 1 7 47
M  V30 53 1 8 48
M  V30 54 1 9 49
M  V30 55 1 9 50
M  V30 56 1 13 51
M  V30 57 1 14 52
M  V30 58 1 18 53
M  V30 59 1 18 54
M  V30 60 1 18 55
M  V30 61 1 20 56
M  V30 62 1 21 57
M  V30 63 1 21 58
M  V30 64 1 22 59
M  V30 65 1 22 60
M  V30 66 1 22 61
M  V30 67 1 24 62
M  V30 68 1 24 63
M  V30 69 1 24 64
M  V30 70 1 27 65
M  V30 71 1 27 66
M  V30 72 1 28 67
M  V30 73 1 29 68
M  V30 74 1 29 69
M  V30 75 1 29 70
M  V30 76 1 30 71
M  V30 77 1 30 72
M  V30 78 1 30 73
M  V30 79 1 31 74
M  V30 80 1 32 75
M  V30 81 1 32 76
M  V30 82 1 34 77
M  V30 83 1 34 78
M  V30 84 1 35 79
M  V30 85 1 39 80
M  V30 86 1 40 81
M  V30 87 1 42 82
M  V30 88 1 44 83
M  V30 89 1 44 84
M  V30 90 1 44 85
M  V30 END BOND
M  V30 BEGIN COLLECTION
M  V30 MDLV30/STEABS ATOMS=(7 5 8 13 14 20 28 31)
M  V30 END COLLECTION
M  V30 END CTAB
M  END
>  <Structure No>
7501

>  <LogS>
-5.97

>  <MMFF94 Energy>
102.1

$$$$
Compound 7502
Actelion Java MolfileCreator 2.0

  0  0  0  0  0  0              0 V3000
M  V30 BEGIN CTAB
M  V30 COUNTS 114 119 0 0 0
M  V30 BEGIN ATOM
M  V30 1 Cl -10.2782 2.7656 -3.3358 0
M  V30 2 C -9.3061 2.9855 -1.8876 0
M  V30 3 C -9.5299 4.0877 -1.0499 0
M  V30 4 C -8.342 2.0314 -1.5588 0
M  V30 5 O -10.5774 4.9542 -1.3746 0
M  V30 6 C -8.728 4.265 0.1044 0
M  V30 7 C -7.5524 2.1799 -0.4119 0
M  V30 8 C -8.875 5.4256 1.009 0
M  V30 9 C -7.751 3.3003 0.4106 0
M  V30 10 C -6.6047 1.1103 -0.0165 0
M  V30 11 O -9.147 6.5713 0.5574 0
M  V30 12 O -8.7016 5.2632 2.3795 0 CHG=-1
M  V30 13 C -7.1049 -0.2808 -0.0301 0
M  V30 14 C -5.3867 1.4256 0.4708 0
M  V30 15 C -7.8259 -0.7601 1.0597 0
M  V30 16 C -6.9253 -1.0977 -1.1545 0
M  V30 17 C -4.426 0.4203 1.0495 0
M  V30 18 C -8.3488 -2.0559 1.0496 0
M  V30 19 C -7.4014 -2.4191 -1.1673 0
M  V30 20 C -3.5927 -0.2737 -0.0444 0
M  V30 21 Cl -9.2769 -2.62 2.4362 0
M  V30 22 C -8.1542 -2.8887 -0.0625 0
M  V30 23 C -7.0214 -3.302 -2.2913 0
M  V30 24 C -3.0018 -1.6781 0.3423 0 CFG=1
M  V30 25 O -8.7568 -4.1477 -0.0582 0
M  V30 26 O -6.7797 -2.8147 -3.4304 0
M  V30 27 O -6.7411 -4.6411 -2.0756 0 CHG=-1
M  V30 28 C -2.0762 -2.1744 -0.8127 0
M  V30 29 C -2.2319 -1.6458 1.6995 0
M  V30 30 C -4.1566 -2.7021 0.464 0
M  V30 31 C -0.6756 -1.5154 -0.8326 0 CFG=1
M  V30 32 C -0.8267 -1.0183 1.6113 0
M  V30 33 C 0.0743 -1.6724 0.5223 0 CFG=2
M  V30 34 C 0.1497 -2.0443 -2.0116 0
M  V30 35 C 1.5154 -1.0137 0.4642 0 CFG=1
M  V30 36 C 0.2892 -3.175 0.8889 0
M  V30 37 C 1.4815 -1.303 -2.1057 0
M  V30 38 C 2.3219 -1.4258 -0.8096 0 CFG=1
M  V30 39 C 1.6108 0.5115 0.6465 0
M  V30 40 C 3.7251 -0.7174 -0.9145 0 CFG=2
M  V30 41 C 3.0735 0.9984 0.8484 0
M  V30 42 C 4.2002 0.0077 0.3657 0 CFG=2
M  V30 43 C 3.8963 0.3413 -2.0136 0
M  V30 44 C 5.4704 0.7597 -0.16 0 CFG=1
M  V30 45 C 4.5939 -1.0207 1.4735 0
M  V30 46 C 5.1032 1.1827 -1.5984 0
M  V30 47 C 6.0682 1.9478 0.6884 0 CFG=2
M  V30 48 C 7.4168 2.4792 0.078 0
M  V30 49 C 6.2056 1.6559 2.2024 0
M  V30 50 C 8.7548 2.0266 0.726 0
M  V30 51 C 9.0682 0.5139 0.673 0
M  V30 52 C 9.9109 0.0354 -0.5345 0
M  V30 53 C 9.2912 0.3894 -1.8903 0
M  V30 54 C 11.3665 0.5193 -0.4603 0
M  V30 55 H -8.2213 1.1684 -2.1964 0
M  V30 56 H -10.9088 5.6903 -0.7666 0
M  V30 57 H -7.1422 3.4183 1.296 0
M  V30 58 H -5.0861 2.4669 0.502 0
M  V30 59 H -7.9941 -0.125 1.9202 0
M  V30 60 H -6.3858 -0.7113 -2.0049 0
M  V30 61 H -4.994 -0.2874 1.6821 0
M  V30 62 H -3.739 0.9657 1.7288 0
M  V30 63 H -2.7753 0.4276 -0.3072 0
M  V30 64 H -4.2041 -0.3873 -0.966 0
M  V30 65 H -8.821 -4.742 -0.8737 0
M  V30 66 H -2.5796 -1.9839 -1.7845 0
M  V30 67 H -1.9525 -3.2734 -0.7645 0
M  V30 68 H -2.1462 -2.6667 2.1197 0
M  V30 69 H -2.8156 -1.0977 2.4693 0
M  V30 70 H -4.8846 -2.4303 1.2476 0
M  V30 71 H -3.7623 -3.6995 0.7361 0
M  V30 72 H -4.6876 -2.8065 -0.5072 0
M  V30 73 H -0.8153 -0.427 -1.0129 0
M  V30 74 H -0.9731 0.0579 1.4049 0
M  V30 75 H -0.3378 -1.0932 2.6053 0
M  V30 76 H 0.3184 -3.1352 -1.9332 0
M  V30 77 H -0.4174 -1.8756 -2.9537 0
M  V30 78 H 2.0327 -1.4257 1.3503 0
M  V30 79 H -0.6461 -3.754 0.9751 0
M  V30 80 H 0.8024 -3.272 1.8603 0
M  V30 81 H 0.9093 -3.7082 0.1466 0
M  V30 82 H 1.2455 -0.2414 -2.3258 0
M  V30 83 H 2.0518 -1.7213 -2.9664 0
M  V30 84 H 2.5483 -2.5067 -0.7081 0
M  V30 85 H 1.167 1.016 -0.2354 0
M  V30 86 H 1.046 0.8362 1.5476 0
M  V30 87 H 4.4709 -1.5114 -1.1596 0
M  V30 88 H 3.2037 1.2234 1.9277 0
M  V30 89 H 3.17 1.9777 0.3236 0
M  V30 90 H 4.0517 -0.122 -3.0095 0
M  V30 91 H 3.018 1.017 -2.0668 0
M  V30 92 H 6.2716 -0.0017 -0.2879 0
M  V30 93 H 4.1944 -2.0303 1.2613 0
M  V30 94 H 4.2091 -0.7149 2.4667 0
M  V30 95 H 5.6938 -1.1447 1.5658 0
M  V30 96 H 5.9516 1.0045 -2.2967 0
M  V30 97 H 4.8407 2.2637 -1.6556 0
M  V30 98 H 5.3458 2.796 0.6148 0
M  V30 99 H 7.4012 3.5879 0.1714 0
M  V30 100 H 7.4597 2.2932 -1.0166 0
M  V30 101 H 5.2217 1.4746 2.6742 0
M  V30 102 H 6.8566 0.781 2.3985 0
M  V30 103 H 6.6303 2.5427 2.7192 0
M  V30 104 H 8.7727 2.3591 1.7867 0
M  V30 105 H 9.5741 2.5945 0.2417 0
M  V30 106 H 9.634 0.2559 1.5987 0
M  V30 107 H 8.1519 -0.0914 0.7311 0
M  V30 108 H 9.945 -1.0758 -0.4698 0
M  V30 109 H 8.222 0.0987 -1.9218 0
M  V30 110 H 9.3892 1.4714 -2.0991 0
M  V30 111 H 9.814 -0.1673 -2.6985 0
M  V30 112 H 11.4505 1.6191 -0.5884 0
M  V30 113 H 11.8294 0.2439 0.5107 0
M  V30 114 H 11.9694 0.0361 -1.2634 0
M  V30 END ATOM
M  V30 BEGIN BOND
M  V30 1 1 1 2
M  V30 2 2 2 3
M  V30 3 1 2 4
M  V30 4 1 3 5
M  V30 5 1 3 6
M  V30 6 2 4 7
M  V30 7 1 6 8
M  V30 8 2 6 9
M  V30 9 1 7 10
M  V30 10 2 8 11
M  V30 11 1 8 12
M  V30 12 1 10 13
M  V30 13 2 10 14
M  V30 14 2 13 15
M  V30 15 1 13 16
M  V30 16 1 14 17
M  V30 17 1 15 18
M  V30 18 2 16 19
M  V30 19 1 17 20
M  V30 20 1 18 21
M  V30 21 2 18 22
M  V30 22 1 19 23
M  V30 23 1 20 24
M  V30 24 1 22 25
M  V30 25 2 23 26
M  V30 26 1 23 27
M  V30 27 1 24 28
M  V30 28 1 24 29
M  V30 29 1 24 30
M  V30 30 1 28 31
M  V30 31 1 29 32
M  V30 32 1 31 33
M  V30 33 1 31 34
M  V30 34 1 33 35
M  V30 35 1 33 36
M  V30 36 1 34 37
M  V30 37 1 35 38
M  V30 38 1 35 39
M  V30 39 1 38 40
M  V30 40 1 39 41
M  V30 41 1 40 42
M  V30 42 1 40 43
M  V30 43 1 42 44
M  V30 44 1 42 45
M  V30 45 1 43 46
M  V30 46 1 44 47
M  V30 47 1 47 48
M  V30 48 1 47 49
M  V30 49 1 48 50
M  V30 50 1 50 51
M  V30 51 1 51 52
M  V30 52 1 52 53
M  V30 53 1 52 54
M  V30 54 1 7 9
M  V30 55 1 19 22
M  V30 56 1 32 33
M  V30 57 1 37 38
M  V30 58 1 41 42
M  V30 59 1 44 46
M  V30 60 1 4 55
M  V30 61 1 5 56
M  V30 62 1 9 57
M  V30 63 1 14 58
M  V30 64 1 15 59
M  V30 65 1 16 60
M  V30 66 1 17 61
M  V30 67 1 17 62
M  V30 68 1 20 63
M  V30 69 1 20 64
M  V30 70 1 25 65
M  V30 71 1 28 66
M  V30 72 1 28 67
M  V30 73 1 29 68
M  V30 74 1 29 69
M  V30 75 1 30 70
M  V30 76 1 30 71
M  V30 77 1 30 72
M  V30 78 1 31 73
M  V30 79 1 32 74
M  V30 80 1 32 75
M  V30 81 1 34 76
M  V30 82 1 34 77
M  V30 83 1 35 78
M  V30 84 1 36 79
M  V30 85 1 36 80
M  V30 86 1 36 81
M  V30 87 1 37 82
M  V30 88 1 37 83
M  V30 89 1 38 84
M  V30 90 1 39 85
M  V30 91 1 39 86
M  V30 92 1 40 87
M  V30 93 1 41 88
M  V30 94 1 41 89
M  V30 95 1 43 90
M  V30 96 1 43 91
M  V30 97 1 44 92
M  V30 98 1 45 93
M  V30 99 1 45 94
M  V30 100 1 45 95
M  V30 101 1 46 96
M  V30 102 1 46 97
M  V30 103 1 47 98
M  V30 104 1 48 99
M  V30 105 1 48 100
M  V30 106 1 49 101
M  V30 107 1 49 102
M  V30 108 1 49 103
M  V30 109 1 50 104
M  V30 110 1 50 105
M  V30 111 1 51 106
M  V30 112 1 51 107
M  V30 113 1 52 108
M  V30 114 1 53 109
M  V30 115 1 53 110
M  V30 116 1 53 111
M  V30 117 1 54 112
M  V30 118 1 54 113
M  V30 119 1 54 114
M  V30 END BOND
M  V30 BEGIN COLLECTION
M  V30 MDLV30/STEABS ATOMS=(9 24 31 33 35 38 40 42 44 47)
M  V30 END COLLECTION
M  V30 END CTAB
M  END
>  <Structure No>
7502

>  <LogS>
-8.46

>  <MMFF94 Energy>
225.03

$$$$
Compound 7503
Actelion Java MolfileCreator 2.0

  0  0  0  0  0  0              0 V3000
M  V30 BEGIN CTAB
M  V30 COUNTS 127 128 0 0 0
M  V30 BEGIN ATOM
M  V30 1 O -5.9283 2.6051 -2.5261 0
M  V30 2 C -7.1336 2.2868 -2.3361 0
M  V30 3 O -8.0986 2.4765 -3.3394 0
M  V30 4 N -7.5351 1.7116 -1.0875 0
M  V30 5 C -7.865 2.9897 -4.6601 0
M  V30 6 C -6.5968 1.4911 0.0213 0 CFG=2
M  V30 7 C -7.3076 4.4265 -4.5948 0
M  V30 8 C -9.2212 3.0194 -5.3806 0
M  V30 9 C -6.9077 2.0648 -5.438 0
M  V30 10 C -5.6652 0.3327 -0.2771 0
M  V30 11 C -7.3546 1.3555 1.3704 0
M  V30 12 O -5.6795 -0.1995 -1.4199 0
M  V30 13 N -4.7017 -0.0974 0.6976 0
M  V30 14 C -7.9427 -0.0141 1.6526 0
M  V30 15 C -3.7524 -1.199 0.4574 0 CFG=1
M  V30 16 C -7.2865 -0.8959 2.5325 0
M  V30 17 C -9.1847 -0.3943 1.1118 0
M  V30 18 C -2.5448 -1.0982 1.3706 0
M  V30 19 C -4.4514 -2.565 0.6538 0
M  V30 20 C -7.8457 -2.1397 2.8393 0
M  V30 21 C -9.7388 -1.6418 1.418 0
M  V30 22 O -2.455 -0.1668 2.2204 0
M  V30 23 N -1.4838 -2.0597 1.2541 0
M  V30 24 C -5.2562 -2.9663 -0.5471 0
M  V30 25 C -9.0702 -2.5113 2.2843 0
M  V30 26 C -0.4274 -2.2163 2.2629 0 CFG=2
M  V30 27 N -6.5959 -2.9317 -0.6215 0
M  V30 28 C -4.7584 -3.4007 -1.7561 0
M  V30 29 C 0.9335 -1.7634 1.6686 0 CFG=1
M  V30 30 C -0.3921 -3.6989 2.7382 0
M  V30 31 C -6.8864 -3.3388 -1.8714 0
M  V30 32 N -5.7861 -3.6354 -2.5973 0
M  V30 33 O 0.7689 -0.5464 0.9815 0
M  V30 34 C 1.9868 -1.5537 2.775 0
M  V30 35 C -1.2141 -4.0045 4.0152 0
M  V30 36 C 3.3132 -1.1551 2.1981 0
M  V30 37 C -0.6588 -3.2961 5.2596 0
M  V30 38 C -2.7113 -3.7138 3.8398 0
M  V30 39 O 4.0165 -2.0194 1.6085 0
M  V30 40 N 3.7687 0.2018 2.3043 0
M  V30 41 C 5.0899 0.6338 1.8425 0 CFG=1
M  V30 42 C 4.9587 1.1468 0.4344 0
M  V30 43 C 5.6537 1.6919 2.8228 0
M  V30 44 O 4.407 2.2602 0.2223 0
M  V30 45 N 5.3739 0.3275 -0.6675 0
M  V30 46 C 7.1185 2.1582 2.5987 0
M  V30 47 C 5.1005 0.6843 -2.0582 0
M  V30 48 C 8.0976 0.9958 2.387 0
M  V30 49 C 7.2484 3.1966 1.4795 0
M  V30 50 C 6.1031 1.7254 -2.5862 0
M  V30 51 C 7.4669 1.1191 -2.9962 0
M  V30 52 N 8.4134 0.9674 -1.8545 0 CHG=1
M  V30 53 C 9.3011 -0.2067 -2.0611 0
M  V30 54 C 9.1441 2.2362 -1.5687 0
M  V30 55 C 10.1492 -0.5437 -0.8259 0
M  V30 56 C 10.3016 2.5555 -2.5382 0
M  V30 57 O 10.8632 -1.7255 -1.0616 0
M  V30 58 O 10.7742 3.8538 -2.3066 0
M  V30 59 H -8.5448 1.481 -0.9767 0
M  V30 60 H -5.9654 2.4023 0.1082 0
M  V30 61 H -7.9614 5.0612 -3.9594 0
M  V30 62 H -7.2631 4.8724 -5.6109 0
M  V30 63 H -6.2799 4.4457 -4.1754 0
M  V30 64 H -9.1111 3.3997 -6.4194 0
M  V30 65 H -9.659 1.9984 -5.4262 0
M  V30 66 H -9.9326 3.6756 -4.8344 0
M  V30 67 H -6.8233 2.3936 -6.496 0
M  V30 68 H -7.2866 1.0201 -5.4192 0
M  V30 69 H -5.8886 2.0731 -4.9944 0
M  V30 70 H -6.6613 1.6342 2.1931 0
M  V30 71 H -8.1645 2.1161 1.4122 0
M  V30 72 H -4.7009 0.3969 1.6161 0
M  V30 73 H -3.3622 -1.1187 -0.5799 0
M  V30 74 H -6.3483 -0.6186 2.9935 0
M  V30 75 H -9.7425 0.277 0.4746 0
M  V30 76 H -5.1011 -2.5377 1.5558 0
M  V30 77 H -3.7042 -3.3689 0.8177 0
M  V30 78 H -7.3294 -2.813 3.5117 0
M  V30 79 H -10.6939 -1.9287 0.9998 0
M  V30 80 H -1.4461 -2.6612 0.3987 0
M  V30 81 H -9.5006 -3.474 2.5209 0
M  V30 82 H -0.6426 -1.5534 3.1231 0
M  V30 83 H -7.2691 -2.6316 0.115 0
M  V30 84 H -3.7148 -3.5248 -2.0139 0
M  V30 85 H 1.3057 -2.551 0.9687 0
M  V30 86 H 0.6464 -4.0367 2.9229 0
M  V30 87 H -0.7507 -4.3608 1.9217 0
M  V30 88 H -7.8936 -3.4152 -2.2556 0
M  V30 89 H 0.5519 -0.7697 0.0388 0
M  V30 90 H 1.6387 -0.7711 3.482 0
M  V30 91 H 2.141 -2.479 3.3639 0
M  V30 92 H -1.1187 -5.0983 4.2008 0
M  V30 93 H 0.4389 -3.4338 5.3277 0
M  V30 94 H -0.887 -2.2086 5.2469 0
M  V30 95 H -1.1186 -3.7293 6.1719 0
M  V30 96 H -3.1054 -4.2643 2.9604 0
M  V30 97 H -2.8969 -2.6285 3.7084 0
M  V30 98 H -3.2685 -4.0576 4.7366 0
M  V30 99 H 3.1003 0.9259 2.6509 0
M  V30 100 H 5.775 -0.2391 1.8549 0
M  V30 101 H 4.9824 2.5767 2.843 0
M  V30 102 H 5.6028 1.2521 3.8414 0
M  V30 103 H 5.773 -0.6192 -0.4748 0
M  V30 104 H 7.4294 2.6743 3.5359 0
M  V30 105 H 5.1295 -0.2303 -2.6899 0
M  V30 106 H 4.0677 1.0873 -2.1383 0
M  V30 107 H 7.9879 0.249 3.202 0
M  V30 108 H 7.9159 0.5001 1.4107 0
M  V30 109 H 9.1445 1.3708 2.3927 0
M  V30 110 H 6.5241 4.0263 1.6321 0
M  V30 111 H 8.2719 3.6281 1.4854 0
M  V30 112 H 7.0782 2.7423 0.4861 0
M  V30 113 H 6.2283 2.5469 -1.8525 0
M  V30 114 H 5.6511 2.1813 -3.494 0
M  V30 115 H 7.9017 1.761 -3.7887 0
M  V30 116 H 7.2753 0.1475 -3.5019 0
M  V30 117 H 7.8477 0.7561 -1.003 0
M  V30 118 H 9.9552 -0.0594 -2.9483 0
M  V30 119 H 8.6786 -1.1089 -2.2674 0
M  V30 120 H 9.5519 2.2104 -0.5354 0
M  V30 121 H 8.4354 3.094 -1.5788 0
M  V30 122 H 10.8673 0.2769 -0.6106 0
M  V30 123 H 9.4846 -0.6856 0.0542 0
M  V30 124 H 9.9952 2.4542 -3.6019 0
M  V30 125 H 11.1432 1.8577 -2.3668 0
M  V30 126 H 11.3659 -1.9162 -0.2286 0
M  V30 127 H 10.1219 4.4763 -2.725 0
M  V30 END ATOM
M  V30 BEGIN BOND
M  V30 1 2 1 2
M  V30 2 1 2 3
M  V30 3 1 2 4
M  V30 4 1 3 5
M  V30 5 1 4 6
M  V30 6 1 5 7
M  V30 7 1 5 8
M  V30 8 1 5 9
M  V30 9 1 6 10
M  V30 10 1 6 11
M  V30 11 2 10 12
M  V30 12 1 10 13
M  V30 13 1 11 14
M  V30 14 1 13 15
M  V30 15 2 14 16
M  V30 16 1 14 17
M  V30 17 1 15 18
M  V30 18 1 15 19
M  V30 19 1 16 20
M  V30 20 2 17 21
M  V30 21 2 18 22
M  V30 22 1 18 23
M  V30 23 1 19 24
M  V30 24 2 20 25
M  V30 25 1 23 26
M  V30 26 1 24 27
M  V30 27 2 24 28
M  V30 28 1 26 29
M  V30 29 1 26 30
M  V30 30 1 27 31
M  V30 31 1 28 32
M  V30 32 1 29 33
M  V30 33 1 29 34
M  V30 34 1 30 35
M  V30 35 1 34 36
M  V30 36 1 35 37
M  V30 37 1 35 38
M  V30 38 2 36 39
M  V30 39 1 36 40
M  V30 40 1 40 41
M  V30 41 1 41 42
M  V30 42 1 41 43
M  V30 43 2 42 44
M  V30 44 1 42 45
M  V30 45 1 43 46
M  V30 46 1 45 47
M  V30 47 1 46 48
M  V30 48 1 46 49
M  V30 49 1 47 50
M  V30 50 1 50 51
M  V30 51 1 51 52
M  V30 52 1 52 53
M  V30 53 1 52 54
M  V30 54 1 53 55
M  V30 55 1 54 56
M  V30 56 1 55 57
M  V30 57 1 56 58
M  V30 58 1 21 25
M  V30 59 2 31 32
M  V30 60 1 4 59
M  V30 61 1 6 60
M  V30 62 1 7 61
M  V30 63 1 7 62
M  V30 64 1 7 63
M  V30 65 1 8 64
M  V30 66 1 8 65
M  V30 67 1 8 66
M  V30 68 1 9 67
M  V30 69 1 9 68
M  V30 70 1 9 69
M  V30 71 1 11 70
M  V30 72 1 11 71
M  V30 73 1 13 72
M  V30 74 1 15 73
M  V30 75 1 16 74
M  V30 76 1 17 75
M  V30 77 1 19 76
M  V30 78 1 19 77
M  V30 79 1 20 78
M  V30 80 1 21 79
M  V30 81 1 23 80
M  V30 82 1 25 81
M  V30 83 1 26 82
M  V30 84 1 27 83
M  V30 85 1 28 84
M  V30 86 1 29 85
M  V30 87 1 30 86
M  V30 88 1 30 87
M  V30 89 1 31 88
M  V30 90 1 33 89
M  V30 91 1 34 90
M  V30 92 1 34 91
M  V30 93 1 35 92
M  V30 94 1 37 93
M  V30 95 1 37 94
M  V30 96 1 37 95
M  V30 97 1 38 96
M  V30 98 1 38 97
M  V30 99 1 38 98
M  V30 100 1 40 99
M  V30 101 1 41 100
M  V30 102 1 43 101
M  V30 103 1 43 102
M  V30 104 1 45 103
M  V30 105 1 46 104
M  V30 106 1 47 105
M  V30 107 1 47 106
M  V30 108 1 48 107
M  V30 109 1 48 108
M  V30 110 1 48 109
M  V30 111 1 49 110
M  V30 112 1 49 111
M  V30 113 1 49 112
M  V30 114 1 50 113
M  V30 115 1 50 114
M  V30 116 1 51 115
M  V30 117 1 51 116
M  V30 118 1 52 117
M  V30 119 1 53 118
M  V30 120 1 53 119
M  V30 121 1 54 120
M  V30 122 1 54 121
M  V30 123 1 55 122
M  V30 124 1 55 123
M  V30 125 1 56 124
M  V30 126 1 56 125
M  V30 127 1 57 126
M  V30 128 1 58 127
M  V30 END BOND
M  V30 BEGIN COLLECTION
M  V30 MDLV30/STEABS ATOMS=(5 6 15 26 29 41)
M  V30 END COLLECTION
M  V30 END CTAB
M  END
>  <Structure No>
7503

>  <LogS>
-2.37

>  <MMFF94 Energy>
27.698

$$$$
Compound 7504
Actelion Java MolfileCreator 2.0

  0  0  0  0  0  0              0 V3000
M  V30 BEGIN CTAB
M  V30 COUNTS 115 116 0 0 0
M  V30 BEGIN ATOM
M  V30 1 O -7.3799 -0.8707 1.2666 0
M  V30 2 C -6.8177 -1.6124 0.4188 0
M  V30 3 O -7.2465 -2.9314 0.2143 0
M  V30 4 N -5.733 -1.1121 -0.3697 0
M  V30 5 C -8.314 -3.5971 0.9054 0
M  V30 6 C -5.3132 0.2927 -0.336 0 CFG=1
M  V30 7 C -8.3929 -5.0247 0.3482 0
M  V30 8 C -8.0237 -3.672 2.4149 0
M  V30 9 C -9.659 -2.8878 0.6517 0
M  V30 10 C -3.8768 0.4287 -0.7777 0
M  V30 11 C -6.2433 1.136 -1.2259 0
M  V30 12 O -3.4561 -0.2427 -1.76 0
M  V30 13 N -3.0259 1.4058 -0.1589 0
M  V30 14 C -5.8826 2.6006 -1.1941 0
M  V30 15 C -1.723 1.7646 -0.724 0 CFG=2
M  V30 16 C -5.0972 3.1596 -2.215 0
M  V30 17 C -6.2681 3.4033 -0.1062 0
M  V30 18 C -0.7087 0.7057 -0.3695 0
M  V30 19 C -1.2832 3.1587 -0.2338 0
M  V30 20 C -4.7186 4.5032 -2.1592 0
M  V30 21 C -5.8921 4.7496 -0.059 0
M  V30 22 O -0.2992 0.6099 0.8187 0
M  V30 23 N -0.2198 -0.1824 -1.3865 0
M  V30 24 C 0.0517 3.5513 -0.8036 0
M  V30 25 C -5.123 5.3012 -1.0877 0
M  V30 26 C 0.9429 -1.0684 -1.208 0 CFG=1
M  V30 27 N 0.3314 3.6464 -2.1135 0
M  V30 28 C 1.1995 3.821 -0.0919 0
M  V30 29 C 0.6894 -2.2332 -0.1913 0 CFG=2
M  V30 30 C 1.4951 -1.5587 -2.5833 0
M  V30 31 C 1.6384 3.9659 -2.1741 0
M  V30 32 N 2.2019 4.0844 -0.953 0
M  V30 33 O -0.6838 -2.3669 0.077 0
M  V30 34 C 1.4623 -2.0611 1.1352 0
M  V30 35 C 0.704 -2.6061 -3.4375 0
M  V30 36 C 2.9537 -2.0015 0.932 0
M  V30 37 C 0.9745 -4.0686 -3.0507 0
M  V30 38 C -0.8037 -2.3497 -3.5455 0
M  V30 39 O 3.5223 -2.8404 0.1795 0
M  V30 40 N 3.7256 -1.012 1.6296 0
M  V30 41 C 5.0979 -0.6597 1.2505 0 CFG=1
M  V30 42 C 5.1188 0.7173 0.6366 0
M  V30 43 C 6.0307 -0.6908 2.4816 0
M  V30 44 O 4.2181 1.5521 0.9241 0
M  V30 45 N 6.1874 1.0914 -0.2451 0
M  V30 46 C 6.3388 -2.0895 3.0767 0
M  V30 47 C 6.2707 2.4084 -0.874 0
M  V30 48 C 5.1369 -2.7234 3.7876 0
M  V30 49 C 6.9428 -3.0571 2.0478 0
M  V30 50 C 6.6762 3.5059 0.1273 0
M  V30 51 C 8.1533 3.4147 0.5748 0 CFG=1
M  V30 52 N 8.5737 4.667 1.2144 0 CHG=1
M  V30 53 C 8.3657 2.2646 1.5213 0
M  V30 54 O 7.9026 2.3021 2.6921 0
M  V30 55 O 9.0588 1.1434 1.0988 0 CHG=-1
M  V30 56 H -5.3151 -1.7663 -1.0683 0
M  V30 57 H -5.3871 0.6601 0.7087 0
M  V30 58 H -7.4421 -5.5674 0.5355 0
M  V30 59 H -9.2193 -5.595 0.8219 0
M  V30 60 H -8.5656 -4.9977 -0.7484 0
M  V30 61 H -8.0382 -2.6689 2.8855 0
M  V30 62 H -8.7904 -4.2914 2.9273 0
M  V30 63 H -7.0258 -4.1207 2.5966 0
M  V30 64 H -9.8464 -2.797 -0.4366 0
M  V30 65 H -9.6701 -1.8669 1.0887 0
M  V30 66 H -10.493 -3.4638 1.1054 0
M  V30 67 H -7.292 1.0174 -0.881 0
M  V30 68 H -6.2091 0.7518 -2.268 0
M  V30 69 H -3.3791 1.9224 0.6778 0
M  V30 70 H -1.8252 1.8334 -1.8306 0
M  V30 71 H -4.7673 2.5512 -3.0462 0
M  V30 72 H -6.8498 2.9849 0.7079 0
M  V30 73 H -1.2355 3.1782 0.877 0
M  V30 74 H -2.0331 3.9153 -0.5523 0
M  V30 75 H -4.111 4.9224 -2.9491 0
M  V30 76 H -6.1901 5.3672 0.7776 0
M  V30 77 H -0.5783 -0.0096 -2.3514 0
M  V30 78 H -4.8306 6.3436 -1.0474 0
M  V30 79 H 1.7513 -0.4189 -0.8049 0
M  V30 80 H -0.3146 3.4885 -2.9156 0
M  V30 81 H 1.3107 3.8018 0.9851 0
M  V30 82 H 1.0643 -3.1826 -0.6179 0
M  V30 83 H 1.6318 -0.6511 -3.2143 0
M  V30 84 H 2.5214 -1.9502 -2.4122 0
M  V30 85 H 2.1812 4.1027 -3.1021 0
M  V30 86 H -0.8191 -3.2784 0.448 0
M  V30 87 H 1.244 -2.9251 1.7964 0
M  V30 88 H 1.1211 -1.1534 1.6682 0
M  V30 89 H 1.1048 -2.5064 -4.471 0
M  V30 90 H 2.0287 -4.2169 -2.7407 0
M  V30 91 H 0.7861 -4.7293 -3.9257 0
M  V30 92 H 0.3 -4.4147 -2.2423 0
M  V30 93 H -1.2783 -3.1379 -4.17 0
M  V30 94 H -1.001 -1.3773 -4.044 0
M  V30 95 H -1.2858 -2.3742 -2.5486 0
M  V30 96 H 3.2611 -0.4478 2.3799 0
M  V30 97 H 5.4813 -1.3591 0.4797 0
M  V30 98 H 7.0051 -0.2466 2.1918 0
M  V30 99 H 5.6112 -0.0363 3.2788 0
M  V30 100 H 6.8922 0.3682 -0.5128 0
M  V30 101 H 7.1162 -1.9254 3.8564 0
M  V30 102 H 7.014 2.3758 -1.6999 0
M  V30 103 H 5.2857 2.6609 -1.319 0
M  V30 104 H 4.6576 -1.9949 4.4749 0
M  V30 105 H 4.3844 -3.0911 3.06 0
M  V30 106 H 5.4778 -3.5884 4.3945 0
M  V30 107 H 7.7734 -2.5639 1.4984 0
M  V30 108 H 6.1773 -3.3949 1.3179 0
M  V30 109 H 7.349 -3.9549 2.563 0
M  V30 110 H 6.0052 3.4987 1.0127 0
M  V30 111 H 6.5212 4.4833 -0.3812 0
M  V30 112 H 8.7895 3.261 -0.3242 0
M  V30 113 H 8.5426 5.4452 0.5227 0
M  V30 114 H 7.9453 4.9008 2.0148 0
M  V30 115 H 9.5551 4.5817 1.5689 0
M  V30 END ATOM
M  V30 BEGIN BOND
M  V30 1 2 1 2
M  V30 2 1 2 3
M  V30 3 1 2 4
M  V30 4 1 3 5
M  V30 5 1 4 6
M  V30 6 1 5 7
M  V30 7 1 5 8
M  V30 8 1 5 9
M  V30 9 1 6 10
M  V30 10 1 6 11
M  V30 11 2 10 12
M  V30 12 1 10 13
M  V30 13 1 11 14
M  V30 14 1 13 15
M  V30 15 2 14 16
M  V30 16 1 14 17
M  V30 17 1 15 18
M  V30 18 1 15 19
M  V30 19 1 16 20
M  V30 20 2 17 21
M  V30 21 2 18 22
M  V30 22 1 18 23
M  V30 23 1 19 24
M  V30 24 2 20 25
M  V30 25 1 23 26
M  V30 26 1 24 27
M  V30 27 2 24 28
M  V30 28 1 26 29
M  V30 29 1 26 30
M  V30 30 1 27 31
M  V30 31 1 28 32
M  V30 32 1 29 33
M  V30 33 1 29 34
M  V30 34 1 30 35
M  V30 35 1 34 36
M  V30 36 1 35 37
M  V30 37 1 35 38
M  V30 38 2 36 39
M  V30 39 1 36 40
M  V30 40 1 40 41
M  V30 41 1 41 42
M  V30 42 1 41 43
M  V30 43 2 42 44
M  V30 44 1 42 45
M  V30 45 1 43 46
M  V30 46 1 45 47
M  V30 47 1 46 48
M  V30 48 1 46 49
M  V30 49 1 47 50
M  V30 50 1 50 51
M  V30 51 1 51 52
M  V30 52 1 51 53
M  V30 53 2 53 54
M  V30 54 1 53 55
M  V30 55 1 21 25
M  V30 56 2 31 32
M  V30 57 1 4 56
M  V30 58 1 6 57
M  V30 59 1 7 58
M  V30 60 1 7 59
M  V30 61 1 7 60
M  V30 62 1 8 61
M  V30 63 1 8 62
M  V30 64 1 8 63
M  V30 65 1 9 64
M  V30 66 1 9 65
M  V30 67 1 9 66
M  V30 68 1 11 67
M  V30 69 1 11 68
M  V30 70 1 13 69
M  V30 71 1 15 70
M  V30 72 1 16 71
M  V30 73 1 17 72
M  V30 74 1 19 73
M  V30 75 1 19 74
M  V30 76 1 20 75
M  V30 77 1 21 76
M  V30 78 1 23 77
M  V30 79 1 25 78
M  V30 80 1 26 79
M  V30 81 1 27 80
M  V30 82 1 28 81
M  V30 83 1 29 82
M  V30 84 1 30 83
M  V30 85 1 30 84
M  V30 86 1 31 85
M  V30 87 1 33 86
M  V30 88 1 34 87
M  V30 89 1 34 88
M  V30 90 1 35 89
M  V30 91 1 37 90
M  V30 92 1 37 91
M  V30 93 1 37 92
M  V30 94 1 38 93
M  V30 95 1 38 94
M  V30 96 1 38 95
M  V30 97 1 40 96
M  V30 98 1 41 97
M  V30 99 1 43 98
M  V30 100 1 43 99
M  V30 101 1 45 100
M  V30 102 1 46 101
M  V30 103 1 47 102
M  V30 104 1 47 103
M  V30 105 1 48 104
M  V30 106 1 48 105
M  V30 107 1 48 106
M  V30 108 1 49 107
M  V30 109 1 49 108
M  V30 110 1 49 109
M  V30 111 1 50 110
M  V30 112 1 50 111
M  V30 113 1 51 112
M  V30 114 1 52 113
M  V30 115 1 52 114
M  V30 116 1 52 115
M  V30 END BOND
M  V30 BEGIN COLLECTION
M  V30 MDLV30/STEABS ATOMS=(6 6 15 26 29 41 51)
M  V30 END COLLECTION
M  V30 END CTAB
M  END
>  <Structure No>
7504

>  <LogS>
-2.22

>  <MMFF94 Energy>
-24.699

$$$$
Compound 7505
Actelion Java MolfileCreator 2.0

  0  0  0  0  0  0              0 V3000
M  V30 BEGIN CTAB
M  V30 COUNTS 87 90 0 0 0
M  V30 BEGIN ATOM
M  V30 1 S -6.742 -1.8648 -1.4592 0
M  V30 2 C -5.0534 -1.3295 -1.8669 0
M  V30 3 C -6.5728 -1.2138 0.2263 0
M  V30 4 N -4.6135 -0.3532 -0.8726 0
M  V30 5 C -5.5906 -0.0507 0.1729 0 CFG=1
M  V30 6 C -3.3513 0.3563 -0.9312 0
M  V30 7 C -6.3102 1.2415 -0.1314 0
M  V30 8 O -3.2045 1.4008 -0.2359 0
M  V30 9 C -2.1461 -0.1335 -1.7149 0 CFG=2
M  V30 10 O -6.49 1.5832 -1.3326 0
M  V30 11 N -6.8312 2.0427 0.9464 0
M  V30 12 O -2.5094 -0.7799 -2.9066 0
M  V30 13 C -1.2327 -1.0406 -0.8576 0 CFG=2
M  V30 14 C -7.4682 3.3656 0.7842 0
M  V30 15 N 0.0231 -1.2847 -1.5791 0
M  V30 16 C -1.8945 -2.3836 -0.4881 0
M  V30 17 C -7.8143 3.9316 2.1765 0
M  V30 18 C -6.5015 4.3441 0.0872 0
M  V30 19 C -8.7719 3.23 -0.0249 0
M  V30 20 C 1.3117 -1.1953 -0.9548 0
M  V30 21 C -1.0007 -3.2141 0.3974 0
M  V30 22 O 1.4008 -0.9341 0.2754 0
M  V30 23 C 2.5642 -1.454 -1.7608 0 CFG=1
M  V30 24 C -0.8808 -2.9132 1.7656 0
M  V30 25 C -0.2468 -4.2689 -0.1437 0
M  V30 26 N 3.5684 -0.4113 -1.5195 0
M  V30 27 C 3.1308 -2.8599 -1.4844 0
M  V30 28 C -0.0239 -3.6616 2.5784 0
M  V30 29 C 0.6047 -5.0165 0.6741 0
M  V30 30 C 4.6635 -0.1775 -2.4192 0
M  V30 31 S 3.6525 -3.0989 0.2598 0
M  V30 32 C 0.7161 -4.7137 2.034 0
M  V30 33 O 4.805 -0.8881 -3.45 0
M  V30 34 C 5.6311 0.9314 -2.1517 0
M  V30 35 C 5.4353 -2.8188 -0.0037 0
M  V30 36 O 6.0199 0.8959 -0.7816 0
M  V30 37 C 6.9145 1.7933 -0.1763 0
M  V30 38 C 7.1548 1.6908 1.2103 0
M  V30 39 C 7.5792 2.7899 -0.9188 0
M  V30 40 C 8.0599 2.5818 1.8348 0
M  V30 41 C 6.5065 0.7203 1.994 0
M  V30 42 C 8.4701 3.665 -0.2938 0
M  V30 43 C 8.2867 2.4714 3.2141 0
M  V30 44 C 8.7126 3.5635 1.0762 0
M  V30 45 C 6.766 0.6527 3.3643 0
M  V30 46 N 7.6408 1.5186 3.9383 0
M  V30 47 H -5.0691 -0.8677 -2.8753 0
M  V30 48 H -4.3952 -2.2182 -1.8586 0
M  V30 49 H -6.1549 -2.021 0.8714 0
M  V30 50 H -7.5664 -0.9138 0.6337 0
M  V30 51 H -5.075 0.0304 1.1559 0
M  V30 52 H -1.5367 0.7655 -1.9738 0
M  V30 53 H -6.7246 1.6532 1.9131 0
M  V30 54 H -2.783 -0.0712 -3.5465 0
M  V30 55 H -1.0197 -0.487 0.0844 0
M  V30 56 H -0.0306 -1.6476 -2.5571 0
M  V30 57 H -2.843 -2.1975 0.0578 0
M  V30 58 H -2.142 -2.9482 -1.4137 0
M  V30 59 H -6.8938 4.049 2.7874 0
M  V30 60 H -8.5054 3.2474 2.7136 0
M  V30 61 H -8.3087 4.9242 2.0924 0
M  V30 62 H -6.3123 4.0513 -0.9658 0
M  V30 63 H -6.9253 5.3717 0.0755 0
M  V30 64 H -5.527 4.3704 0.6224 0
M  V30 65 H -8.5745 2.905 -1.0643 0
M  V30 66 H -9.4472 2.4895 0.4525 0
M  V30 67 H -9.3024 4.2057 -0.0773 0
M  V30 68 H 2.2821 -1.4151 -2.8363 0
M  V30 69 H -1.4449 -2.0961 2.1983 0
M  V30 70 H -0.3131 -4.5077 -1.1987 0
M  V30 71 H 3.4546 0.2385 -0.7106 0
M  V30 72 H 2.3424 -3.6124 -1.7037 0
M  V30 73 H 3.9692 -3.0747 -2.179 0
M  V30 74 H 0.0675 -3.425 3.6303 0
M  V30 75 H 1.1834 -5.827 0.2525 0
M  V30 76 H 1.3783 -5.2937 2.6637 0
M  V30 77 H 5.1376 1.9014 -2.3763 0
M  V30 78 H 6.5283 0.8107 -2.7971 0
M  V30 79 H 5.622 -1.7637 -0.2843 0
M  V30 80 H 5.9683 -3.0259 0.9488 0
M  V30 81 H 5.8304 -3.4952 -0.7941 0
M  V30 82 H 7.4152 2.8976 -1.9823 0
M  V30 83 H 5.8031 0.0215 1.5604 0
M  V30 84 H 8.9759 4.4249 -0.8756 0
M  V30 85 H 8.9727 3.1416 3.7172 0
M  V30 86 H 9.4082 4.2511 1.5422 0
M  V30 87 H 6.2692 -0.0907 3.9742 0
M  V30 END ATOM
M  V30 BEGIN BOND
M  V30 1 1 1 2
M  V30 2 1 1 3
M  V30 3 1 2 4
M  V30 4 1 3 5
M  V30 5 1 4 6
M  V30 6 1 5 7
M  V30 7 2 6 8
M  V30 8 1 6 9
M  V30 9 2 7 10
M  V30 10 1 7 11
M  V30 11 1 9 12
M  V30 12 1 9 13
M  V30 13 1 11 14
M  V30 14 1 13 15
M  V30 15 1 13 16
M  V30 16 1 14 17
M  V30 17 1 14 18
M  V30 18 1 14 19
M  V30 19 1 15 20
M  V30 20 1 16 21
M  V30 21 2 20 22
M  V30 22 1 20 23
M  V30 23 2 21 24
M  V30 24 1 21 25
M  V30 25 1 23 26
M  V30 26 1 23 27
M  V30 27 1 24 28
M  V30 28 2 25 29
M  V30 29 1 26 30
M  V30 30 1 27 31
M  V30 31 2 28 32
M  V30 32 2 30 33
M  V30 33 1 30 34
M  V30 34 1 31 35
M  V30 35 1 34 36
M  V30 36 1 36 37
M  V30 37 1 37 38
M  V30 38 2 37 39
M  V30 39 1 38 40
M  V30 40 2 38 41
M  V30 41 1 39 42
M  V30 42 2 40 43
M  V30 43 1 40 44
M  V30 44 1 41 45
M  V30 45 1 43 46
M  V30 46 1 4 5
M  V30 47 1 29 32
M  V30 48 2 42 44
M  V30 49 2 45 46
M  V30 50 1 2 47
M  V30 51 1 2 48
M  V30 52 1 3 49
M  V30 53 1 3 50
M  V30 54 1 5 51
M  V30 55 1 9 52
M  V30 56 1 11 53
M  V30 57 1 12 54
M  V30 58 1 13 55
M  V30 59 1 15 56
M  V30 60 1 16 57
M  V30 61 1 16 58
M  V30 62 1 17 59
M  V30 63 1 17 60
M  V30 64 1 17 61
M  V30 65 1 18 62
M  V30 66 1 18 63
M  V30 67 1 18 64
M  V30 68 1 19 65
M  V30 69 1 19 66
M  V30 70 1 19 67
M  V30 71 1 23 68
M  V30 72 1 24 69
M  V30 73 1 25 70
M  V30 74 1 26 71
M  V30 75 1 27 72
M  V30 76 1 27 73
M  V30 77 1 28 74
M  V30 78 1 29 75
M  V30 79 1 32 76
M  V30 80 1 34 77
M  V30 81 1 34 78
M  V30 82 1 35 79
M  V30 83 1 35 80
M  V30 84 1 35 81
M  V30 85 1 39 82
M  V30 86 1 41 83
M  V30 87 1 42 84
M  V30 88 1 43 85
M  V30 89 1 44 86
M  V30 90 1 45 87
M  V30 END BOND
M  V30 BEGIN COLLECTION
M  V30 MDLV30/STEABS ATOMS=(4 5 9 13 23)
M  V30 END COLLECTION
M  V30 END CTAB
M  END
>  <Structure No>
7505

>  <LogS>
-3.95

>  <MMFF94 Energy>
139.81

$$$$
Compound 7506
Actelion Java MolfileCreator 2.0

  0  0  0  0  0  0              0 V3000
M  V30 BEGIN CTAB
M  V30 COUNTS 113 115 0 0 0
M  V30 BEGIN ATOM
M  V30 1 O -7.1578 -1.5872 1.4284 0
M  V30 2 C -6.8115 -0.4245 1.0876 0
M  V30 3 O -7.0888 0.6835 1.904 0
M  V30 4 N -6.0965 -0.2162 -0.1348 0
M  V30 5 C -7.7605 0.6598 3.174 0
M  V30 6 C -5.4009 -1.2954 -0.8475 0 CFG=2
M  V30 7 C -7.7835 2.1033 3.7001 0
M  V30 8 C -6.998 -0.2289 4.1759 0
M  V30 9 C -9.208 0.1657 3.0128 0
M  V30 10 C -3.9482 -1.3726 -0.4205 0
M  V30 11 C -5.5054 -1.0638 -2.3684 0
M  V30 12 O -3.1856 -2.2127 -0.9822 0
M  V30 13 N -3.4299 -0.5383 0.6304 0
M  V30 14 C -6.9462 -1.0776 -2.8145 0
M  V30 15 C -2.0045 -0.5134 0.978 0 CFG=1
M  V30 16 C -7.692 0.1156 -2.8772 0
M  V30 17 C -7.5772 -2.2988 -3.1089 0
M  V30 18 C -1.1777 0.0279 -0.1575 0
M  V30 19 C -1.7486 0.2892 2.2753 0
M  V30 20 C -9.0506 0.0855 -3.2297 0
M  V30 21 C -8.9294 -2.3197 -3.4554 0
M  V30 22 O -1.6739 0.8705 -0.9581 0
M  V30 23 N 0.1947 -0.3861 -0.2773 0
M  V30 24 C -2.3773 1.6592 2.2761 0
M  V30 25 C -9.6673 -1.1328 -3.5197 0
M  V30 26 C 1.2172 0.3225 -1.0631 0 CFG=2
M  V30 27 N -3.4748 1.9924 2.9783 0
M  V30 28 C -1.9742 2.7609 1.5547 0
M  V30 29 C 1.3398 1.8036 -0.5884 0 CFG=1
M  V30 30 C 0.9307 0.2133 -2.5803 0
M  V30 31 C -3.7131 3.2814 2.6751 0
M  V30 32 N -2.8161 3.7865 1.8042 0
M  V30 33 O 1.28 1.9057 0.8146 0
M  V30 34 C 2.5989 2.5286 -1.1122 0
M  V30 35 C 0.682 -1.2296 -3.0695 0
M  V30 36 C 3.879 1.9509 -0.573 0
M  V30 37 C 0.2586 -1.2173 -4.5409 0
M  V30 38 C 1.9246 -2.1154 -2.9058 0
M  V30 39 O 4.184 2.1615 0.6302 0
M  V30 40 N 4.7408 1.1722 -1.4222 0
M  V30 41 C 5.9617 0.4731 -0.9894 0 CFG=1
M  V30 42 C 7.0423 1.4492 -0.5739 0
M  V30 43 C 5.6412 -0.5653 0.1103 0
M  V30 44 O 6.7712 2.4037 0.2028 0
M  V30 45 N 8.398 1.2549 -1.014 0
M  V30 46 C 6.8572 -1.4057 0.5867 0
M  V30 47 C 9.5341 1.8947 -0.3561 0
M  V30 48 C 6.4559 -2.2674 1.79 0
M  V30 49 C 7.426 -2.3024 -0.5263 0
M  V30 50 C 9.7791 1.2507 0.9827 0
M  V30 51 C 9.3728 1.8787 2.1678 0
M  V30 52 C 10.332 -0.0403 1.0432 0
M  V30 53 C 9.5207 1.2032 3.3876 0
M  V30 54 C 10.4453 -0.684 2.2797 0
M  V30 55 N 10.0354 -0.0538 3.4123 0
M  V30 56 H -5.8712 0.7731 -0.3946 0
M  V30 57 H -5.8644 -2.2745 -0.6031 0
M  V30 58 H -6.751 2.5028 3.7694 0
M  V30 59 H -8.2508 2.157 4.7074 0
M  V30 60 H -8.3532 2.7662 3.0105 0
M  V30 61 H -5.9257 0.0529 4.1977 0
M  V30 62 H -7.4144 -0.1253 5.1964 0
M  V30 63 H -7.075 -1.3048 3.9104 0
M  V30 64 H -9.7585 0.2432 3.9742 0
M  V30 65 H -9.7386 0.7763 2.2481 0
M  V30 66 H -9.233 -0.9004 2.6994 0
M  V30 67 H -5.027 -0.0889 -2.632 0
M  V30 68 H -4.9453 -1.8648 -2.9099 0
M  V30 69 H -4.0944 -0.0161 1.2434 0
M  V30 70 H -1.6793 -1.5581 1.1741 0
M  V30 71 H -7.2196 1.0591 -2.663 0
M  V30 72 H -7.0219 -3.2314 -3.054 0
M  V30 73 H -2.1576 -0.2844 3.134 0
M  V30 74 H -0.6562 0.3833 2.4593 0
M  V30 75 H -9.6239 1.0031 -3.2652 0
M  V30 76 H -9.4093 -3.2637 -3.6743 0
M  V30 77 H 0.5224 -1.1887 0.3122 0
M  V30 78 H -10.7248 -1.163 -3.7684 0
M  V30 79 H 2.1926 -0.1718 -0.8637 0
M  V30 80 H -4.0323 1.3864 3.6176 0
M  V30 81 H -1.13 2.8276 0.8913 0
M  V30 82 H 0.47 2.3619 -0.9948 0
M  V30 83 H 0.0444 0.8328 -2.8323 0
M  V30 84 H 1.7889 0.6265 -3.1474 0
M  V30 85 H -4.5479 3.8501 3.0747 0
M  V30 86 H 1.8478 1.187 1.2035 0
M  V30 87 H 2.6144 2.5398 -2.2193 0
M  V30 88 H 2.5409 3.5927 -0.809 0
M  V30 89 H -0.1471 -1.6801 -2.4867 0
M  V30 90 H 0.0756 -2.256 -4.9006 0
M  V30 91 H -0.6813 -0.6374 -4.666 0
M  V30 92 H 1.0552 -0.7616 -5.1685 0
M  V30 93 H 1.7435 -3.123 -3.3512 0
M  V30 94 H 2.8035 -1.6543 -3.4155 0
M  V30 95 H 2.1599 -2.275 -1.8297 0
M  V30 96 H 4.4525 1.0395 -2.4179 0
M  V30 97 H 6.3339 -0.0962 -1.8686 0
M  V30 98 H 5.2268 -0.0329 0.9903 0
M  V30 99 H 4.848 -1.2471 -0.2648 0
M  V30 100 H 8.614 0.562 -1.7726 0
M  V30 101 H 7.6606 -0.7231 0.9353 0
M  V30 102 H 10.4391 1.7809 -0.9943 0
M  V30 103 H 9.3433 2.9885 -0.2542 0
M  V30 104 H 6.0656 -1.6336 2.6128 0
M  V30 105 H 5.6631 -2.9884 1.4884 0
M  V30 106 H 7.3389 -2.8238 2.1759 0
M  V30 107 H 7.8625 -1.6865 -1.3424 0
M  V30 108 H 8.2432 -2.9345 -0.1168 0
M  V30 109 H 6.6297 -2.953 -0.9559 0
M  V30 110 H 8.9325 2.8733 2.155 0
M  V30 111 H 10.6289 -0.5481 0.132 0
M  V30 112 H 9.2035 1.6636 4.3116 0
M  V30 113 H 10.8474 -1.6887 2.332 0
M  V30 END ATOM
M  V30 BEGIN BOND
M  V30 1 2 1 2
M  V30 2 1 2 3
M  V30 3 1 2 4
M  V30 4 1 3 5
M  V30 5 1 4 6
M  V30 6 1 5 7
M  V30 7 1 5 8
M  V30 8 1 5 9
M  V30 9 1 6 10
M  V30 10 1 6 11
M  V30 11 2 10 12
M  V30 12 1 10 13
M  V30 13 1 11 14
M  V30 14 1 13 15
M  V30 15 2 14 16
M  V30 16 1 14 17
M  V30 17 1 15 18
M  V30 18 1 15 19
M  V30 19 1 16 20
M  V30 20 2 17 21
M  V30 21 2 18 22
M  V30 22 1 18 23
M  V30 23 1 19 24
M  V30 24 2 20 25
M  V30 25 1 23 26
M  V30 26 1 24 27
M  V30 27 2 24 28
M  V30 28 1 26 29
M  V30 29 1 26 30
M  V30 30 1 27 31
M  V30 31 1 28 32
M  V30 32 1 29 33
M  V30 33 1 29 34
M  V30 34 1 30 35
M  V30 35 1 34 36
M  V30 36 1 35 37
M  V30 37 1 35 38
M  V30 38 2 36 39
M  V30 39 1 36 40
M  V30 40 1 40 41
M  V30 41 1 41 42
M  V30 42 1 41 43
M  V30 43 2 42 44
M  V30 44 1 42 45
M  V30 45 1 43 46
M  V30 46 1 45 47
M  V30 47 1 46 48
M  V30 48 1 46 49
M  V30 49 1 47 50
M  V30 50 2 50 51
M  V30 51 1 50 52
M  V30 52 1 51 53
M  V30 53 2 52 54
M  V30 54 2 53 55
M  V30 55 1 21 25
M  V30 56 2 31 32
M  V30 57 1 54 55
M  V30 58 1 4 56
M  V30 59 1 6 57
M  V30 60 1 7 58
M  V30 61 1 7 59
M  V30 62 1 7 60
M  V30 63 1 8 61
M  V30 64 1 8 62
M  V30 65 1 8 63
M  V30 66 1 9 64
M  V30 67 1 9 65
M  V30 68 1 9 66
M  V30 69 1 11 67
M  V30 70 1 11 68
M  V30 71 1 13 69
M  V30 72 1 15 70
M  V30 73 1 16 71
M  V30 74 1 17 72
M  V30 75 1 19 73
M  V30 76 1 19 74
M  V30 77 1 20 75
M  V30 78 1 21 76
M  V30 79 1 23 77
M  V30 80 1 25 78
M  V30 81 1 26 79
M  V30 82 1 27 80
M  V30 83 1 28 81
M  V30 84 1 29 82
M  V30 85 1 30 83
M  V30 86 1 30 84
M  V30 87 1 31 85
M  V30 88 1 33 86
M  V30 89 1 34 87
M  V30 90 1 34 88
M  V30 91 1 35 89
M  V30 92 1 37 90
M  V30 93 1 37 91
M  V30 94 1 37 92
M  V30 95 1 38 93
M  V30 96 1 38 94
M  V30 97 1 38 95
M  V30 98 1 40 96
M  V30 99 1 41 97
M  V30 100 1 43 98
M  V30 101 1 43 99
M  V30 102 1 45 100
M  V30 103 1 46 101
M  V30 104 1 47 102
M  V30 105 1 47 103
M  V30 106 1 48 104
M  V30 107 1 48 105
M  V30 108 1 48 106
M  V30 109 1 49 107
M  V30 110 1 49 108
M  V30 111 1 49 109
M  V30 112 1 51 110
M  V30 113 1 52 111
M  V30 114 1 53 112
M  V30 115 1 54 113
M  V30 END BOND
M  V30 BEGIN COLLECTION
M  V30 MDLV30/STEABS ATOMS=(5 6 15 26 29 41)
M  V30 END COLLECTION
M  V30 END CTAB
M  END
>  <Structure No>
7506

>  <LogS>
-3.36

>  <MMFF94 Energy>
-4.8356

$$$$
Compound 7507
Actelion Java MolfileCreator 2.0

  0  0  0  0  0  0              0 V3000
M  V30 BEGIN CTAB
M  V30 COUNTS 113 115 0 0 0
M  V30 BEGIN ATOM
M  V30 1 O -6.9951 -1.5864 -1.9834 0
M  V30 2 C -7.1557 -0.9524 -0.9056 0
M  V30 3 O -7.7808 -1.5486 0.2008 0
M  V30 4 N -6.6844 0.3931 -0.7841 0
M  V30 5 C -8.2576 -2.8985 0.2813 0
M  V30 6 C -5.8943 1.0711 -1.816 0 CFG=2
M  V30 7 C -9.3589 -3.1479 -0.7673 0
M  V30 8 C -8.8538 -3.0847 1.6854 0
M  V30 9 C -7.0918 -3.8905 0.0999 0
M  V30 10 C -4.6421 1.6593 -1.2042 0
M  V30 11 C -6.7695 2.1009 -2.5661 0
M  V30 12 O -4.1271 2.701 -1.6939 0
M  V30 13 N -3.9733 0.9546 -0.1426 0
M  V30 14 C -7.4375 3.1027 -1.6505 0
M  V30 15 C -2.6823 1.3703 0.418 0 CFG=2
M  V30 16 C -8.6608 2.788 -1.0347 0
M  V30 17 C -6.8473 4.3541 -1.4014 0
M  V30 18 C -1.5636 0.5423 -0.1752 0
M  V30 19 C -2.7322 1.2876 1.9567 0
M  V30 20 C -9.2709 3.6982 -0.166 0
M  V30 21 C -7.4633 5.2625 -0.532 0
M  V30 22 O -1.8392 -0.3618 -1.0089 0
M  V30 23 N -0.1948 0.7921 0.1974 0
M  V30 24 C -2.913 -0.1154 2.4653 0
M  V30 25 C -8.673 4.9345 0.0855 0
M  V30 26 C 0.9757 0.1818 -0.4494 0 CFG=2
M  V30 27 N -4.1017 -0.7003 2.6753 0
M  V30 28 C -1.9172 -1.0258 2.7458 0
M  V30 29 C 1.1706 0.7951 -1.8652 0 CFG=2
M  V30 30 C 0.8872 -1.376 -0.4311 0
M  V30 31 C -3.8103 -1.9534 3.0728 0
M  V30 32 N -2.4803 -2.1899 3.1312 0
M  V30 33 O 0.1442 0.369 -2.727 0
M  V30 34 C 2.5359 0.4486 -2.4936 0
M  V30 35 C 2.1115 -2.0584 0.2198 0
M  V30 36 C 3.6878 1.0392 -1.7313 0
M  V30 37 C 2.0994 -1.9049 1.7487 0
M  V30 38 C 2.1501 -3.5467 -0.1574 0
M  V30 39 O 3.7226 2.284 -1.5224 0
M  V30 40 N 4.7582 0.194 -1.2766 0
M  V30 41 C 5.8316 0.6658 -0.3982 0 CFG=2
M  V30 42 C 7.0965 0.8288 -1.1993 0
M  V30 43 C 6.0317 -0.3465 0.7519 0
M  V30 44 O 7.428 -0.0629 -2.0305 0
M  V30 45 N 7.9509 1.9613 -0.9813 0
M  V30 46 C 7.05 0.1113 1.8261 0
M  V30 47 C 9.2581 2.092 -1.6189 0
M  V30 48 C 6.5147 1.2877 2.6583 0
M  V30 49 C 7.3973 -1.0618 2.7505 0
M  V30 50 C 10.2117 1.0659 -1.0821 0
M  V30 51 N 10.5983 0.0258 -1.8705 0
M  V30 52 C 10.6792 1.1453 0.2361 0
M  V30 53 C 11.4329 -0.9455 -1.4166 0
M  V30 54 C 11.5376 0.1567 0.7187 0
M  V30 55 C 11.9194 -0.8985 -0.1099 0
M  V30 56 H -6.8964 0.9037 0.104 0
M  V30 57 H -5.546 0.3331 -2.5701 0
M  V30 58 H -8.9434 -3.1543 -1.7981 0
M  V30 59 H -9.8495 -4.1333 -0.5926 0
M  V30 60 H -10.1318 -2.3506 -0.7052 0
M  V30 61 H -8.0741 -2.8959 2.4574 0
M  V30 62 H -9.6848 -2.3642 1.8456 0
M  V30 63 H -9.2427 -4.1176 1.8156 0
M  V30 64 H -7.4328 -4.9318 0.2891 0
M  V30 65 H -6.273 -3.6517 0.8136 0
M  V30 66 H -6.6803 -3.8505 -0.9284 0
M  V30 67 H -6.1598 2.6296 -3.3303 0
M  V30 68 H -7.5547 1.5507 -3.1319 0
M  V30 69 H -4.3342 0.009 0.1133 0
M  V30 70 H -2.4848 2.4325 0.1556 0
M  V30 71 H -9.1419 1.8338 -1.2189 0
M  V30 72 H -5.9146 4.6265 -1.8776 0
M  V30 73 H -1.8074 1.7214 2.392 0
M  V30 74 H -3.578 1.9122 2.3225 0
M  V30 75 H -10.2097 3.4466 0.3101 0
M  V30 76 H -7.0003 6.2216 -0.3423 0
M  V30 77 H -0.0105 1.4844 0.9548 0
M  V30 78 H -9.1436 5.639 0.7605 0
M  V30 79 H 1.8597 0.4965 0.1484 0
M  V30 80 H -5.0511 -0.2841 2.5439 0
M  V30 81 H -0.8502 -0.8568 2.6699 0
M  V30 82 H 1.115 1.9049 -1.7544 0
M  V30 83 H 0.7789 -1.7466 -1.4703 0
M  V30 84 H -0.0203 -1.7178 0.1102 0
M  V30 85 H -4.5608 -2.6909 3.3224 0
M  V30 86 H 0.0457 1.064 -3.4284 0
M  V30 87 H 2.6476 -0.6508 -2.5741 0
M  V30 88 H 2.5702 0.8486 -3.5281 0
M  V30 89 H 3.0406 -1.5924 -0.1716 0
M  V30 90 H 3.0089 -2.3723 2.1861 0
M  V30 91 H 1.202 -2.3993 2.1749 0
M  V30 92 H 2.0953 -0.8296 2.0413 0
M  V30 93 H 3.0321 -4.0423 0.3066 0
M  V30 94 H 2.2405 -3.6632 -1.2595 0
M  V30 95 H 1.2244 -4.0601 0.1869 0
M  V30 96 H 4.8027 -0.7901 -1.626 0
M  V30 97 H 5.543 1.6466 0.0369 0
M  V30 98 H 6.3727 -1.3131 0.316 0
M  V30 99 H 5.0474 -0.54 1.2396 0
M  V30 100 H 7.6461 2.7104 -0.3209 0
M  V30 101 H 7.9942 0.4307 1.3375 0
M  V30 102 H 9.1481 1.9939 -2.7191 0
M  V30 103 H 9.6717 3.1045 -1.4182 0
M  V30 104 H 5.534 1.0336 3.1118 0
M  V30 105 H 7.2248 1.5379 3.4738 0
M  V30 106 H 6.4042 2.1979 2.036 0
M  V30 107 H 6.4853 -1.4448 3.2588 0
M  V30 108 H 7.856 -1.8887 2.1676 0
M  V30 109 H 8.1299 -0.742 3.5207 0
M  V30 110 H 10.375 1.9605 0.8789 0
M  V30 111 H 11.7222 -1.7572 -2.0713 0
M  V30 112 H 11.8952 0.2025 1.7382 0
M  V30 113 H 12.5886 -1.668 0.2557 0
M  V30 END ATOM
M  V30 BEGIN BOND
M  V30 1 2 1 2
M  V30 2 1 2 3
M  V30 3 1 2 4
M  V30 4 1 3 5
M  V30 5 1 4 6
M  V30 6 1 5 7
M  V30 7 1 5 8
M  V30 8 1 5 9
M  V30 9 1 6 10
M  V30 10 1 6 11
M  V30 11 2 10 12
M  V30 12 1 10 13
M  V30 13 1 11 14
M  V30 14 1 13 15
M  V30 15 2 14 16
M  V30 16 1 14 17
M  V30 17 1 15 18
M  V30 18 1 15 19
M  V30 19 1 16 20
M  V30 20 2 17 21
M  V30 21 2 18 22
M  V30 22 1 18 23
M  V30 23 1 19 24
M  V30 24 2 20 25
M  V30 25 1 23 26
M  V30 26 1 24 27
M  V30 27 2 24 28
M  V30 28 1 26 29
M  V30 29 1 26 30
M  V30 30 1 27 31
M  V30 31 1 28 32
M  V30 32 1 29 33
M  V30 33 1 29 34
M  V30 34 1 30 35
M  V30 35 1 34 36
M  V30 36 1 35 37
M  V30 37 1 35 38
M  V30 38 2 36 39
M  V30 39 1 36 40
M  V30 40 1 40 41
M  V30 41 1 41 42
M  V30 42 1 41 43
M  V30 43 2 42 44
M  V30 44 1 42 45
M  V30 45 1 43 46
M  V30 46 1 45 47
M  V30 47 1 46 48
M  V30 48 1 46 49
M  V30 49 1 47 50
M  V30 50 2 50 51
M  V30 51 1 50 52
M  V30 52 1 51 53
M  V30 53 2 52 54
M  V30 54 2 53 55
M  V30 55 1 21 25
M  V30 56 2 31 32
M  V30 57 1 54 55
M  V30 58 1 4 56
M  V30 59 1 6 57
M  V30 60 1 7 58
M  V30 61 1 7 59
M  V30 62 1 7 60
M  V30 63 1 8 61
M  V30 64 1 8 62
M  V30 65 1 8 63
M  V30 66 1 9 64
M  V30 67 1 9 65
M  V30 68 1 9 66
M  V30 69 1 11 67
M  V30 70 1 11 68
M  V30 71 1 13 69
M  V30 72 1 15 70
M  V30 73 1 16 71
M  V30 74 1 17 72
M  V30 75 1 19 73
M  V30 76 1 19 74
M  V30 77 1 20 75
M  V30 78 1 21 76
M  V30 79 1 23 77
M  V30 80 1 25 78
M  V30 81 1 26 79
M  V30 82 1 27 80
M  V30 83 1 28 81
M  V30 84 1 29 82
M  V30 85 1 30 83
M  V30 86 1 30 84
M  V30 87 1 31 85
M  V30 88 1 33 86
M  V30 89 1 34 87
M  V30 90 1 34 88
M  V30 91 1 35 89
M  V30 92 1 37 90
M  V30 93 1 37 91
M  V30 94 1 37 92
M  V30 95 1 38 93
M  V30 96 1 38 94
M  V30 97 1 38 95
M  V30 98 1 40 96
M  V30 99 1 41 97
M  V30 100 1 43 98
M  V30 101 1 43 99
M  V30 102 1 45 100
M  V30 103 1 46 101
M  V30 104 1 47 102
M  V30 105 1 47 103
M  V30 106 1 48 104
M  V30 107 1 48 105
M  V30 108 1 48 106
M  V30 109 1 49 107
M  V30 110 1 49 108
M  V30 111 1 49 109
M  V30 112 1 52 110
M  V30 113 1 53 111
M  V30 114 1 54 112
M  V30 115 1 55 113
M  V30 END BOND
M  V30 BEGIN COLLECTION
M  V30 MDLV30/STEABS ATOMS=(5 6 15 26 29 41)
M  V30 END COLLECTION
M  V30 END CTAB
M  END
>  <Structure No>
7507

>  <LogS>
-3.42

>  <MMFF94 Energy>
17.188

$$$$
Compound 7508
Actelion Java MolfileCreator 2.0

  0  0  0  0  0  0              0 V3000
M  V30 BEGIN CTAB
M  V30 COUNTS 114 116 0 0 0
M  V30 BEGIN ATOM
M  V30 1 O -7.5566 0.3966 1.0314 0
M  V30 2 C -7.3229 -0.2715 -0.0093 0
M  V30 3 O -8.2688 -0.3447 -1.0418 0
M  V30 4 N -6.0817 -0.9784 -0.1555 0
M  V30 5 C -9.6197 0.1451 -1.0006 0
M  V30 6 C -5.0805 -1.1419 0.9086 0 CFG=1
M  V30 7 C -10.2728 -0.2096 -2.3442 0
M  V30 8 C -9.6451 1.6772 -0.8275 0
M  V30 9 C -10.4107 -0.5447 0.125 0
M  V30 10 C -4.4288 0.1856 1.2186 0
M  V30 11 C -5.6779 -1.8143 2.1664 0
M  V30 12 O -4.9254 0.954 2.0868 0
M  V30 13 N -3.2861 0.6101 0.4612 0
M  V30 14 C -6.3802 -3.1048 1.8245 0
M  V30 15 C -2.8867 2.0184 0.3467 0 CFG=1
M  V30 16 C -7.7846 -3.1804 1.817 0
M  V30 17 C -5.6307 -4.2434 1.4835 0
M  V30 18 C -1.5186 2.2353 0.9379 0
M  V30 19 C -2.9064 2.4592 -1.1241 0
M  V30 20 C -8.4262 -4.3766 1.4767 0
M  V30 21 C -6.2737 -5.4334 1.1308 0
M  V30 22 O -1.3624 3.1715 1.7717 0
M  V30 23 N -0.389 1.4399 0.5417 0
M  V30 24 C -4.3107 2.5118 -1.6464 0
M  V30 25 C -7.6711 -5.5006 1.1302 0
M  V30 26 C 0.9894 1.8434 0.8534 0 CFG=1
M  V30 27 N -5.1493 3.543 -1.4623 0
M  V30 28 C -4.9906 1.4985 -2.2883 0
M  V30 29 C 1.9357 0.6158 0.9866 0 CFG=1
M  V30 30 C 1.4594 2.9891 -0.0944 0
M  V30 31 C -6.3113 3.1509 -2.0129 0
M  V30 32 N -6.2512 1.9037 -2.5312 0
M  V30 33 O 2.0195 -0.1032 -0.2165 0
M  V30 34 C 3.3472 1.035 1.4433 0
M  V30 35 C 1.8769 2.6093 -1.5382 0
M  V30 36 C 4.2743 -0.1315 1.6548 0
M  V30 37 C 0.7048 2.0563 -2.3649 0
M  V30 38 C 2.4542 3.8413 -2.2531 0
M  V30 39 O 3.8213 -1.2406 2.0534 0
M  V30 40 N 5.6883 0.0482 1.4673 0
M  V30 41 C 6.639 -1.0628 1.5669 0 CFG=2
M  V30 42 C 8.0496 -0.5922 1.8388 0
M  V30 43 C 6.5556 -2.0118 0.3392 0
M  V30 44 O 8.3692 0.6107 1.6555 0
M  V30 45 N 9.034 -1.5245 2.3073 0
M  V30 46 C 6.6225 -1.3959 -1.0874 0
M  V30 47 C 10.4514 -1.182 2.4137 0
M  V30 48 C 5.3546 -0.6355 -1.4993 0
M  V30 49 C 7.8714 -0.5483 -1.3392 0
M  V30 50 C 11.0476 -0.9976 1.0456 0
M  V30 51 C 11.1395 -2.0838 0.1649 0
M  V30 52 C 11.4618 0.2655 0.6135 0
M  V30 53 C 11.6304 -1.8857 -1.1243 0
M  V30 54 C 11.956 0.4209 -0.6827 0
M  V30 55 N 12.0166 -0.6458 -1.5271 0 CHG=1
M  V30 56 O 12.469 -0.4674 -2.815 0 CHG=-1
M  V30 57 H -5.9031 -1.4568 -1.0675 0
M  V30 58 H -4.2808 -1.8206 0.529 0
M  V30 59 H -11.331 0.1243 -2.3743 0
M  V30 60 H -9.7243 0.2709 -3.1809 0
M  V30 61 H -10.2446 -1.3113 -2.5047 0
M  V30 62 H -10.6842 2.0637 -0.925 0
M  V30 63 H -9.0164 2.161 -1.6034 0
M  V30 64 H -9.2708 1.9837 0.1663 0
M  V30 65 H -10.3733 -1.6488 -0.0041 0
M  V30 66 H -9.9889 -0.3034 1.1234 0
M  V30 67 H -11.4737 -0.2177 0.1154 0
M  V30 68 H -6.3755 -1.1307 2.6922 0
M  V30 69 H -4.856 -2.0362 2.8818 0
M  V30 70 H -2.7969 -0.0947 -0.1364 0
M  V30 71 H -3.6038 2.6683 0.907 0
M  V30 72 H -8.3783 -2.3099 2.067 0
M  V30 73 H -4.5516 -4.2139 1.4889 0
M  V30 74 H -2.3019 1.7586 -1.7415 0
M  V30 75 H -2.4638 3.4721 -1.2209 0
M  V30 76 H -9.5096 -4.4271 1.4854 0
M  V30 77 H -5.6951 -6.303 0.8487 0
M  V30 78 H -0.5671 0.5475 0.0382 0
M  V30 79 H -8.1751 -6.4215 0.8623 0
M  V30 80 H 0.9724 2.2884 1.8733 0
M  V30 81 H -4.9513 4.4438 -0.9751 0
M  V30 82 H -4.6006 0.5237 -2.5503 0
M  V30 83 H 1.5087 -0.0405 1.7848 0
M  V30 84 H 0.6528 3.7529 -0.1492 0
M  V30 85 H 2.3163 3.4994 0.3976 0
M  V30 86 H -7.2005 3.7648 -2.0314 0
M  V30 87 H 1.3119 -0.7933 -0.2019 0
M  V30 88 H 3.7938 1.7008 0.6788 0
M  V30 89 H 3.2788 1.6005 2.4006 0
M  V30 90 H 2.6845 1.8515 -1.5137 0
M  V30 91 H -0.1493 2.7618 -2.3381 0
M  V30 92 H 0.3819 1.0685 -1.9869 0
M  V30 93 H 1.0071 1.9116 -3.422 0
M  V30 94 H 2.8248 3.5675 -3.2614 0
M  V30 95 H 3.3128 4.2476 -1.6818 0
M  V30 96 H 1.6886 4.6323 -2.3618 0
M  V30 97 H 6.0207 0.9974 1.192 0
M  V30 98 H 6.3575 -1.6611 2.4619 0
M  V30 99 H 7.3693 -2.7674 0.4265 0
M  V30 100 H 5.6075 -2.589 0.4177 0
M  V30 101 H 8.7394 -2.4944 2.5549 0
M  V30 102 H 6.6903 -2.2669 -1.7774 0
M  V30 103 H 10.9889 -2.0064 2.9268 0
M  V30 104 H 10.5725 -0.2694 3.0391 0
M  V30 105 H 5.3259 0.382 -1.0593 0
M  V30 106 H 5.3393 -0.515 -2.6017 0
M  V30 107 H 4.4453 -1.1917 -1.1962 0
M  V30 108 H 7.8037 0.4278 -0.8243 0
M  V30 109 H 7.9801 -0.355 -2.4282 0
M  V30 110 H 8.7762 -1.0889 -0.9958 0
M  V30 111 H 10.8053 -3.0678 0.4724 0
M  V30 112 H 11.3854 1.1295 1.2654 0
M  V30 113 H 11.6865 -2.7224 -1.808 0
M  V30 114 H 12.2659 1.3977 -1.0218 0
M  V30 END ATOM
M  V30 BEGIN BOND
M  V30 1 2 1 2
M  V30 2 1 2 3
M  V30 3 1 2 4
M  V30 4 1 3 5
M  V30 5 1 4 6
M  V30 6 1 5 7
M  V30 7 1 5 8
M  V30 8 1 5 9
M  V30 9 1 6 10
M  V30 10 1 6 11
M  V30 11 2 10 12
M  V30 12 1 10 13
M  V30 13 1 11 14
M  V30 14 1 13 15
M  V30 15 2 14 16
M  V30 16 1 14 17
M  V30 17 1 15 18
M  V30 18 1 15 19
M  V30 19 1 16 20
M  V30 20 2 17 21
M  V30 21 2 18 22
M  V30 22 1 18 23
M  V30 23 1 19 24
M  V30 24 2 20 25
M  V30 25 1 23 26
M  V30 26 1 24 27
M  V30 27 2 24 28
M  V30 28 1 26 29
M  V30 29 1 26 30
M  V30 30 1 27 31
M  V30 31 1 28 32
M  V30 32 1 29 33
M  V30 33 1 29 34
M  V30 34 1 30 35
M  V30 35 1 34 36
M  V30 36 1 35 37
M  V30 37 1 35 38
M  V30 38 2 36 39
M  V30 39 1 36 40
M  V30 40 1 40 41
M  V30 41 1 41 42
M  V30 42 1 41 43
M  V30 43 2 42 44
M  V30 44 1 42 45
M  V30 45 1 43 46
M  V30 46 1 45 47
M  V30 47 1 46 48
M  V30 48 1 46 49
M  V30 49 1 47 50
M  V30 50 2 50 51
M  V30 51 1 50 52
M  V30 52 1 51 53
M  V30 53 2 52 54
M  V30 54 2 53 55
M  V30 55 1 55 56
M  V30 56 1 21 25
M  V30 57 2 31 32
M  V30 58 1 54 55
M  V30 59 1 4 57
M  V30 60 1 6 58
M  V30 61 1 7 59
M  V30 62 1 7 60
M  V30 63 1 7 61
M  V30 64 1 8 62
M  V30 65 1 8 63
M  V30 66 1 8 64
M  V30 67 1 9 65
M  V30 68 1 9 66
M  V30 69 1 9 67
M  V30 70 1 11 68
M  V30 71 1 11 69
M  V30 72 1 13 70
M  V30 73 1 15 71
M  V30 74 1 16 72
M  V30 75 1 17 73
M  V30 76 1 19 74
M  V30 77 1 19 75
M  V30 78 1 20 76
M  V30 79 1 21 77
M  V30 80 1 23 78
M  V30 81 1 25 79
M  V30 82 1 26 80
M  V30 83 1 27 81
M  V30 84 1 28 82
M  V30 85 1 29 83
M  V30 86 1 30 84
M  V30 87 1 30 85
M  V30 88 1 31 86
M  V30 89 1 33 87
M  V30 90 1 34 88
M  V30 91 1 34 89
M  V30 92 1 35 90
M  V30 93 1 37 91
M  V30 94 1 37 92
M  V30 95 1 37 93
M  V30 96 1 38 94
M  V30 97 1 38 95
M  V30 98 1 38 96
M  V30 99 1 40 97
M  V30 100 1 41 98
M  V30 101 1 43 99
M  V30 102 1 43 100
M  V30 103 1 45 101
M  V30 104 1 46 102
M  V30 105 1 47 103
M  V30 106 1 47 104
M  V30 107 1 48 105
M  V30 108 1 48 106
M  V30 109 1 48 107
M  V30 110 1 49 108
M  V30 111 1 49 109
M  V30 112 1 49 110
M  V30 113 1 51 111
M  V30 114 1 52 112
M  V30 115 1 53 113
M  V30 116 1 54 114
M  V30 END BOND
M  V30 BEGIN COLLECTION
M  V30 MDLV30/STEABS ATOMS=(5 6 15 26 29 41)
M  V30 END COLLECTION
M  V30 END CTAB
M  END
>  <Structure No>
7508

>  <LogS>
-2.38

>  <MMFF94 Energy>
-4.7047

$$$$
Compound 7509
Actelion Java MolfileCreator 2.0

  0  0  0  0  0  0              0 V3000
M  V30 BEGIN CTAB
M  V30 COUNTS 120 122 0 0 0
M  V30 BEGIN ATOM
M  V30 1 O -7.0559 1.1865 1.2656 0
M  V30 2 C -7.9831 1.0604 0.4232 0
M  V30 3 O -9.3195 1.2804 0.7846 0
M  V30 4 N -7.6841 0.6987 -0.9297 0
M  V30 5 C -9.7969 1.7858 2.0401 0
M  V30 6 C -6.3415 0.7077 -1.5244 0 CFG=2
M  V30 7 C -9.2147 3.1882 2.3055 0
M  V30 8 C -9.4334 0.8218 3.1841 0
M  V30 9 C -11.3263 1.8925 1.9405 0
M  V30 10 C -5.4959 -0.3997 -0.9415 0
M  V30 11 C -5.6903 2.1055 -1.4536 0
M  V30 12 O -5.6317 -1.5559 -1.4119 0
M  V30 13 N -4.5634 -0.1718 0.1318 0
M  V30 14 C -6.4758 3.1071 -2.2645 0
M  V30 15 C -3.6598 -1.2162 0.6284 0 CFG=1
M  V30 16 C -6.2853 3.2018 -3.6546 0
M  V30 17 C -7.4458 3.9162 -1.6459 0
M  V30 18 C -2.228 -0.7481 0.5282 0
M  V30 19 C -3.9974 -1.5676 2.087 0
M  V30 20 C -7.0489 4.0978 -4.4092 0
M  V30 21 C -8.2003 4.8169 -2.4044 0
M  V30 22 O -1.9262 0.4241 0.883 0
M  V30 23 N -1.204 -1.6719 0.117 0
M  V30 24 C -5.3869 -2.1239 2.2181 0
M  V30 25 C -8.0036 4.9061 -3.7846 0
M  V30 26 C 0.2311 -1.3382 0.1253 0 CFG=2
M  V30 27 N -5.8123 -3.2614 1.644 0
M  V30 28 C -6.4222 -1.5839 2.948 0
M  V30 29 C 0.5738 -0.2994 -0.9872 0 CFG=2
M  V30 30 C 1.1048 -2.6311 0.1756 0
M  V30 31 C -7.0921 -3.3913 2.0376 0
M  V30 32 N -7.5022 -2.384 2.838 0
M  V30 33 O 0.4937 -0.8632 -2.2702 0
M  V30 34 C 1.9181 0.4412 -0.7692 0
M  V30 35 C 1.3072 -3.4562 -1.1275 0
M  V30 36 C 3.1435 -0.3769 -1.0698 0
M  V30 37 C 2.2588 -4.6281 -0.8482 0
M  V30 38 C -0.0032 -3.998 -1.719 0
M  V30 39 O 3.3416 -0.785 -2.2492 0
M  V30 40 N 4.1051 -0.644 -0.0328 0
M  V30 41 C 5.3619 -1.357 -0.2811 0 CFG=1
M  V30 42 C 6.4752 -0.3356 -0.4031 0
M  V30 43 C 5.5623 -2.4367 0.8139 0
M  V30 44 O 6.7791 0.0858 -1.5535 0
M  V30 45 N 7.1154 0.2432 0.7492 0
M  V30 46 C 6.5331 -3.5802 0.4212 0
M  V30 47 C 7.7436 1.5658 0.7128 0
M  V30 48 C 7.9845 -3.0943 0.3018 0
M  V30 49 C 6.4442 -4.716 1.4529 0
M  V30 50 C 9.1432 1.5616 0.1405 0
M  V30 51 C 9.8026 2.7932 -0.0174 0
M  V30 52 C 9.8225 0.3771 -0.2114 0
M  V30 53 C 11.1083 2.8502 -0.5359 0
M  V30 54 C 11.1188 0.4304 -0.7317 0
M  V30 55 C 11.7611 1.6599 -0.8906 0
M  V30 56 C 11.8303 4.1697 -0.6471 0
M  V30 57 N 12.7668 4.3397 0.465 0 CHG=1
M  V30 58 H -8.4908 0.4773 -1.5548 0
M  V30 59 H -6.4525 0.4665 -2.6072 0
M  V30 60 H -8.1146 3.1479 2.4472 0
M  V30 61 H -9.6588 3.6296 3.2239 0
M  V30 62 H -9.4284 3.8637 1.4496 0
M  V30 63 H -9.9384 1.1259 4.1235 0
M  V30 64 H -8.3416 0.8225 3.377 0
M  V30 65 H -9.7464 -0.2143 2.9273 0
M  V30 66 H -11.77 0.9003 1.7084 0
M  V30 67 H -11.6122 2.5959 1.1329 0
M  V30 68 H -11.7593 2.2607 2.8944 0
M  V30 69 H -5.6116 2.4613 -0.4053 0
M  V30 70 H -4.6538 2.0481 -1.8505 0
M  V30 71 H -4.5333 0.7571 0.6021 0
M  V30 72 H -3.7636 -2.1369 0.0175 0
M  V30 73 H -5.5587 2.5694 -4.1506 0
M  V30 74 H -7.619 3.8503 -0.5773 0
M  V30 75 H -3.8919 -0.6642 2.7311 0
M  V30 76 H -3.281 -2.3363 2.4577 0
M  V30 77 H -6.8982 4.161 -5.4784 0
M  V30 78 H -8.9514 5.4327 -1.9229 0
M  V30 79 H -1.4974 -2.6651 0.0048 0
M  V30 80 H -8.5902 5.5978 -4.3709 0
M  V30 81 H 0.4278 -0.8309 1.0958 0
M  V30 82 H -5.2703 -3.913 1.0343 0
M  V30 83 H -6.3885 -0.6708 3.5286 0
M  V30 84 H -0.1986 0.4962 -0.9228 0
M  V30 85 H 0.68 -3.3028 0.9546 0
M  V30 86 H 2.1046 -2.343 0.5574 0
M  V30 87 H -7.728 -4.2118 1.7471 0
M  V30 88 H 0.4375 -0.1132 -2.9191 0
M  V30 89 H 1.9382 1.3335 -1.4354 0
M  V30 90 H 1.9597 0.8282 0.2726 0
M  V30 91 H 1.8051 -2.8323 -1.8926 0
M  V30 92 H 3.226 -4.2556 -0.4532 0
M  V30 93 H 2.472 -5.1861 -1.7865 0
M  V30 94 H 1.8119 -5.3296 -0.1113 0
M  V30 95 H 0.2108 -4.6581 -2.586 0
M  V30 96 H -0.6405 -3.1719 -2.093 0
M  V30 97 H -0.5628 -4.5855 -0.9581 0
M  V30 98 H 3.9567 -0.2261 0.9153 0
M  V30 99 H 5.2891 -1.9016 -1.2502 0
M  V30 100 H 5.8494 -2.0 1.7887 0
M  V30 101 H 4.569 -2.9004 0.9943 0
M  V30 102 H 7.0147 -0.2021 1.6898 0
M  V30 103 H 6.2257 -3.9995 -0.5653 0
M  V30 104 H 7.8026 1.9603 1.7498 0
M  V30 105 H 7.104 2.2655 0.1319 0
M  V30 106 H 8.6751 -3.9524 0.1793 0
M  V30 107 H 8.282 -2.5165 1.2019 0
M  V30 108 H 8.0919 -2.4584 -0.6006 0
M  V30 109 H 6.7534 -4.3542 2.4582 0
M  V30 110 H 5.4027 -5.101 1.5108 0
M  V30 111 H 7.0985 -5.5619 1.1549 0
M  V30 112 H 9.3029 3.7078 0.2744 0
M  V30 113 H 9.362 -0.5888 -0.0857 0
M  V30 114 H 11.6333 -0.4873 -1.0042 0
M  V30 115 H 12.7734 1.6823 -1.2793 0
M  V30 116 H 12.3826 4.214 -1.6159 0
M  V30 117 H 11.0985 5.0064 -0.6474 0
M  V30 118 H 13.1517 5.309 0.4409 0
M  V30 119 H 13.5595 3.6624 0.3667 0
M  V30 120 H 12.2822 4.189 1.3804 0
M  V30 END ATOM
M  V30 BEGIN BOND
M  V30 1 2 1 2
M  V30 2 1 2 3
M  V30 3 1 2 4
M  V30 4 1 3 5
M  V30 5 1 4 6
M  V30 6 1 5 7
M  V30 7 1 5 8
M  V30 8 1 5 9
M  V30 9 1 6 10
M  V30 10 1 6 11
M  V30 11 2 10 12
M  V30 12 1 10 13
M  V30 13 1 11 14
M  V30 14 1 13 15
M  V30 15 2 14 16
M  V30 16 1 14 17
M  V30 17 1 15 18
M  V30 18 1 15 19
M  V30 19 1 16 20
M  V30 20 2 17 21
M  V30 21 2 18 22
M  V30 22 1 18 23
M  V30 23 1 19 24
M  V30 24 2 20 25
M  V30 25 1 23 26
M  V30 26 1 24 27
M  V30 27 2 24 28
M  V30 28 1 26 29
M  V30 29 1 26 30
M  V30 30 1 27 31
M  V30 31 1 28 32
M  V30 32 1 29 33
M  V30 33 1 29 34
M  V30 34 1 30 35
M  V30 35 1 34 36
M  V30 36 1 35 37
M  V30 37 1 35 38
M  V30 38 2 36 39
M  V30 39 1 36 40
M  V30 40 1 40 41
M  V30 41 1 41 42
M  V30 42 1 41 43
M  V30 43 2 42 44
M  V30 44 1 42 45
M  V30 45 1 43 46
M  V30 46 1 45 47
M  V30 47 1 46 48
M  V30 48 1 46 49
M  V30 49 1 47 50
M  V30 50 2 50 51
M  V30 51 1 50 52
M  V30 52 1 51 53
M  V30 53 2 52 54
M  V30 54 2 53 55
M  V30 55 1 53 56
M  V30 56 1 56 57
M  V30 57 1 21 25
M  V30 58 2 31 32
M  V30 59 1 54 55
M  V30 60 1 4 58
M  V30 61 1 6 59
M  V30 62 1 7 60
M  V30 63 1 7 61
M  V30 64 1 7 62
M  V30 65 1 8 63
M  V30 66 1 8 64
M  V30 67 1 8 65
M  V30 68 1 9 66
M  V30 69 1 9 67
M  V30 70 1 9 68
M  V30 71 1 11 69
M  V30 72 1 11 70
M  V30 73 1 13 71
M  V30 74 1 15 72
M  V30 75 1 16 73
M  V30 76 1 17 74
M  V30 77 1 19 75
M  V30 78 1 19 76
M  V30 79 1 20 77
M  V30 80 1 21 78
M  V30 81 1 23 79
M  V30 82 1 25 80
M  V30 83 1 26 81
M  V30 84 1 27 82
M  V30 85 1 28 83
M  V30 86 1 29 84
M  V30 87 1 30 85
M  V30 88 1 30 86
M  V30 89 1 31 87
M  V30 90 1 33 88
M  V30 91 1 34 89
M  V30 92 1 34 90
M  V30 93 1 35 91
M  V30 94 1 37 92
M  V30 95 1 37 93
M  V30 96 1 37 94
M  V30 97 1 38 95
M  V30 98 1 38 96
M  V30 99 1 38 97
M  V30 100 1 40 98
M  V30 101 1 41 99
M  V30 102 1 43 100
M  V30 103 1 43 101
M  V30 104 1 45 102
M  V30 105 1 46 103
M  V30 106 1 47 104
M  V30 107 1 47 105
M  V30 108 1 48 106
M  V30 109 1 48 107
M  V30 110 1 48 108
M  V30 111 1 49 109
M  V30 112 1 49 110
M  V30 113 1 49 111
M  V30 114 1 51 112
M  V30 115 1 52 113
M  V30 116 1 54 114
M  V30 117 1 55 115
M  V30 118 1 56 116
M  V30 119 1 56 117
M  V30 120 1 57 118
M  V30 121 1 57 119
M  V30 122 1 57 120
M  V30 END BOND
M  V30 BEGIN COLLECTION
M  V30 MDLV30/STEABS ATOMS=(5 6 15 26 29 41)
M  V30 END COLLECTION
M  V30 END CTAB
M  END
>  <Structure No>
7509

>  <LogS>
-2.85

>  <MMFF94 Energy>
-21.374

$$$$
Compound 7510
Actelion Java MolfileCreator 2.0

  0  0  0  0  0  0              0 V3000
M  V30 BEGIN CTAB
M  V30 COUNTS 119 121 0 0 0
M  V30 BEGIN ATOM
M  V30 1 O 6.6601 1.2659 -1.1076 0
M  V30 2 C 7.5402 1.0597 -0.2287 0
M  V30 3 O 8.9051 1.1675 -0.5328 0
M  V30 4 N 7.1612 0.7212 1.1101 0
M  V30 5 C 9.464 1.5945 -1.7844 0
M  V30 6 C 5.7875 0.7685 1.6224 0 CFG=2
M  V30 7 C 10.9905 1.5958 -1.6253 0
M  V30 8 C 9.0817 0.6133 -2.9086 0
M  V30 9 C 9.0018 3.0243 -2.1299 0
M  V30 10 C 4.9216 -0.242 0.9026 0
M  V30 11 C 5.2343 2.2091 1.6056 0
M  V30 12 O 5.1208 -1.4662 1.1368 0
M  V30 13 N 3.9119 0.1449 -0.0474 0
M  V30 14 C 6.0461 3.119 2.4929 0
M  V30 15 C 3.0397 -0.8229 -0.7155 0 CFG=1
M  V30 16 C 5.7831 3.1854 3.8719 0
M  V30 17 C 7.0984 3.8804 1.956 0
M  V30 18 C 1.6341 -0.2771 -0.7538 0
M  V30 19 C 3.5869 -1.124 -2.1241 0
M  V30 20 C 6.5502 4.0146 4.697 0
M  V30 21 C 7.8607 4.7115 2.782 0
M  V30 22 O 1.3155 0.575 -1.6283 0
M  V30 23 N 0.6825 -0.679 0.2422 0
M  V30 24 C 2.7871 -2.1854 -2.8233 0
M  V30 25 C 7.586 4.7772 4.1509 0
M  V30 26 C -0.7602 -0.462 0.0928 0 CFG=2
M  V30 27 N 2.9965 -3.5048 -2.6996 0
M  V30 28 C 1.6878 -1.9907 -3.6302 0
M  V30 29 C -1.3606 0.0463 1.4324 0 CFG=2
M  V30 30 C -1.4369 -1.7064 -0.538 0
M  V30 31 C 2.0349 -4.0835 -3.4409 0
M  V30 32 N 1.2104 -3.1872 -4.025 0
M  V30 33 O -1.2142 -0.9006 2.459 0
M  V30 34 C -2.8233 0.5488 1.3263 0
M  V30 35 C -1.1676 -3.069 0.1642 0
M  V30 36 C -3.8702 -0.5215 1.4916 0
M  V30 37 C -2.4325 -3.9382 0.1634 0
M  V30 38 C -0.0185 -3.8349 -0.5111 0
M  V30 39 O -3.9657 -1.1348 2.5888 0
M  V30 40 N -4.7927 -0.805 0.4266 0
M  V30 41 C -5.9213 -1.7274 0.5888 0 CFG=1
M  V30 42 C -7.1496 -0.9308 0.9394 0
M  V30 43 C -6.0964 -2.5676 -0.6992 0
M  V30 44 O -7.7083 -1.1224 2.0545 0
M  V30 45 N -7.6773 0.0415 0.0229 0
M  V30 46 C -7.004 -3.8126 -0.5265 0
M  V30 47 C -8.7774 0.9443 0.3624 0
M  V30 48 C -8.4992 -3.4514 -0.581 0
M  V30 49 C -6.6906 -4.8529 -1.6127 0
M  V30 50 C -8.3568 2.4106 0.1482 0 CFG=1
M  V30 51 N -9.4528 3.3239 0.4904 0 CHG=1
M  V30 52 C -7.1095 2.7585 0.9298 0
M  V30 53 N -6.0105 3.206 0.2616 0
M  V30 54 C -7.0679 2.6567 2.3305 0
M  V30 55 C -4.8675 3.5646 0.9076 0
M  V30 56 C -5.9024 3.0219 3.0106 0
M  V30 57 C -4.7956 3.486 2.299 0
M  V30 58 H 7.9256 0.4752 1.778 0
M  V30 59 H 5.8118 0.4507 2.6907 0
M  V30 60 H 11.2936 2.3082 -0.8331 0
M  V30 61 H 11.3493 0.5876 -1.3334 0
M  V30 62 H 11.4953 1.8848 -2.5705 0
M  V30 63 H 7.9975 0.6626 -3.1379 0
M  V30 64 H 9.6348 0.8489 -3.8438 0
M  V30 65 H 9.3259 -0.4295 -2.6094 0
M  V30 66 H 9.2071 3.7043 -1.2754 0
M  V30 67 H 9.5393 3.4034 -3.03 0
M  V30 68 H 7.9133 3.0536 -2.3491 0
M  V30 69 H 4.1794 2.2014 1.9586 0
M  V30 70 H 5.2295 2.6206 0.5739 0
M  V30 71 H 3.8526 1.1356 -0.3672 0
M  V30 72 H 3.0283 -1.7748 -0.1445 0
M  V30 73 H 4.9915 2.5894 4.3062 0
M  V30 74 H 7.3235 3.8376 0.8978 0
M  V30 75 H 3.5967 -0.2001 -2.7409 0
M  V30 76 H 4.6373 -1.4727 -2.0381 0
M  V30 77 H 6.337 4.0704 5.7574 0
M  V30 78 H 8.6698 5.2998 2.3636 0
M  V30 79 H 1.0134 -1.2878 1.0278 0
M  V30 80 H 8.1783 5.4146 4.7922 0
M  V30 81 H -0.9209 0.3674 -0.6316 0
M  V30 82 H 3.7388 -3.98 -2.1425 0
M  V30 83 H 1.2506 -1.0407 -3.9042 0
M  V30 84 H -0.7509 0.9439 1.7 0
M  V30 85 H -2.5209 -1.5118 -0.612 0
M  V30 86 H -1.1083 -1.7704 -1.5978 0
M  V30 87 H 1.9231 -5.1524 -3.5444 0
M  V30 88 H -1.3036 -0.4077 3.3185 0
M  V30 89 H -2.9716 1.096 0.3712 0
M  V30 90 H -2.9903 1.2879 2.1363 0
M  V30 91 H -0.8806 -2.9111 1.2204 0
M  V30 92 H -2.775 -4.1257 -0.8763 0
M  V30 93 H -3.2467 -3.4294 0.7235 0
M  V30 94 H -2.2371 -4.911 0.6592 0
M  V30 95 H -0.2693 -4.0727 -1.5641 0
M  V30 96 H 0.918 -3.244 -0.4917 0
M  V30 97 H 0.1743 -4.784 0.028 0
M  V30 98 H -4.7391 -0.234 -0.4485 0
M  V30 99 H -5.702 -2.4376 1.4187 0
M  V30 100 H -5.0807 -2.9121 -0.9943 0
M  V30 101 H -6.4587 -1.9414 -1.5436 0
M  V30 102 H -7.2588 0.1247 -0.9284 0
M  V30 103 H -6.7937 -4.2919 0.456 0
M  V30 104 H -9.1132 0.7921 1.4098 0
M  V30 105 H -9.639 0.7114 -0.2955 0
M  V30 106 H -8.727 -2.8512 -1.4876 0
M  V30 107 H -8.7989 -2.8786 0.3197 0
M  V30 108 H -9.1183 -4.3743 -0.5986 0
M  V30 109 H -5.625 -5.1671 -1.5476 0
M  V30 110 H -6.884 -4.4276 -2.6231 0
M  V30 111 H -7.3199 -5.7573 -1.4737 0
M  V30 112 H -8.1334 2.5346 -0.9358 0
M  V30 113 H -9.732 3.2071 1.4914 0
M  V30 114 H -9.1512 4.3133 0.3317 0
M  V30 115 H -10.2809 3.1298 -0.1198 0
M  V30 116 H -7.9253 2.3097 2.8907 0
M  V30 117 H -4.0161 3.9197 0.3456 0
M  V30 118 H -5.8592 2.9427 4.0867 0
M  V30 119 H -3.8885 3.7716 2.8221 0
M  V30 END ATOM
M  V30 BEGIN BOND
M  V30 1 2 1 2
M  V30 2 1 2 3
M  V30 3 1 2 4
M  V30 4 1 3 5
M  V30 5 1 4 6
M  V30 6 1 5 7
M  V30 7 1 5 8
M  V30 8 1 5 9
M  V30 9 1 6 10
M  V30 10 1 6 11
M  V30 11 2 10 12
M  V30 12 1 10 13
M  V30 13 1 11 14
M  V30 14 1 13 15
M  V30 15 2 14 16
M  V30 16 1 14 17
M  V30 17 1 15 18
M  V30 18 1 15 19
M  V30 19 1 16 20
M  V30 20 2 17 21
M  V30 21 2 18 22
M  V30 22 1 18 23
M  V30 23 1 19 24
M  V30 24 2 20 25
M  V30 25 1 23 26
M  V30 26 1 24 27
M  V30 27 2 24 28
M  V30 28 1 26 29
M  V30 29 1 26 30
M  V30 30 1 27 31
M  V30 31 1 28 32
M  V30 32 1 29 33
M  V30 33 1 29 34
M  V30 34 1 30 35
M  V30 35 1 34 36
M  V30 36 1 35 37
M  V30 37 1 35 38
M  V30 38 2 36 39
M  V30 39 1 36 40
M  V30 40 1 40 41
M  V30 41 1 41 42
M  V30 42 1 41 43
M  V30 43 2 42 44
M  V30 44 1 42 45
M  V30 45 1 43 46
M  V30 46 1 45 47
M  V30 47 1 46 48
M  V30 48 1 46 49
M  V30 49 1 47 50
M  V30 50 1 50 51
M  V30 51 1 50 52
M  V30 52 2 52 53
M  V30 53 1 52 54
M  V30 54 1 53 55
M  V30 55 2 54 56
M  V30 56 2 55 57
M  V30 57 1 21 25
M  V30 58 2 31 32
M  V30 59 1 56 57
M  V30 60 1 4 58
M  V30 61 1 6 59
M  V30 62 1 7 60
M  V30 63 1 7 61
M  V30 64 1 7 62
M  V30 65 1 8 63
M  V30 66 1 8 64
M  V30 67 1 8 65
M  V30 68 1 9 66
M  V30 69 1 9 67
M  V30 70 1 9 68
M  V30 71 1 11 69
M  V30 72 1 11 70
M  V30 73 1 13 71
M  V30 74 1 15 72
M  V30 75 1 16 73
M  V30 76 1 17 74
M  V30 77 1 19 75
M  V30 78 1 19 76
M  V30 79 1 20 77
M  V30 80 1 21 78
M  V30 81 1 23 79
M  V30 82 1 25 80
M  V30 83 1 26 81
M  V30 84 1 27 82
M  V30 85 1 28 83
M  V30 86 1 29 84
M  V30 87 1 30 85
M  V30 88 1 30 86
M  V30 89 1 31 87
M  V30 90 1 33 88
M  V30 91 1 34 89
M  V30 92 1 34 90
M  V30 93 1 35 91
M  V30 94 1 37 92
M  V30 95 1 37 93
M  V30 96 1 37 94
M  V30 97 1 38 95
M  V30 98 1 38 96
M  V30 99 1 38 97
M  V30 100 1 40 98
M  V30 101 1 41 99
M  V30 102 1 43 100
M  V30 103 1 43 101
M  V30 104 1 45 102
M  V30 105 1 46 103
M  V30 106 1 47 104
M  V30 107 1 47 105
M  V30 108 1 48 106
M  V30 109 1 48 107
M  V30 110 1 48 108
M  V30 111 1 49 109
M  V30 112 1 49 110
M  V30 113 1 49 111
M  V30 114 1 50 112
M  V30 115 1 51 113
M  V30 116 1 51 114
M  V30 117 1 51 115
M  V30 118 1 54 116
M  V30 119 1 55 117
M  V30 120 1 56 118
M  V30 121 1 57 119
M  V30 END BOND
M  V30 BEGIN COLLECTION
M  V30 MDLV30/STEABS ATOMS=(6 6 15 26 29 41 50)
M  V30 END COLLECTION
M  V30 END CTAB
M  END
>  <Structure No>
7510

>  <LogS>
-3.4

>  <MMFF94 Energy>
23.769

$$$$
Compound 7511
Actelion Java MolfileCreator 2.0

  0  0  0  0  0  0              0 V3000
M  V30 BEGIN CTAB
M  V30 COUNTS 127 130 0 0 0
M  V30 BEGIN ATOM
M  V30 1 O -7.157 -2.0635 -0.6345 0
M  V30 2 C -7.901 -1.8 0.3474 0
M  V30 3 O -8.9908 -2.6244 0.6645 0
M  V30 4 N -7.6634 -0.6385 1.1551 0
M  V30 5 C -9.4791 -3.7243 -0.1193 0
M  V30 6 C -6.761 0.4706 0.8184 0 CFG=1
M  V30 7 C -8.4205 -4.8416 -0.2034 0
M  V30 8 C -9.8824 -3.2448 -1.5274 0
M  V30 9 C -10.7267 -4.2723 0.5948 0
M  V30 10 C -5.3196 0.1002 1.0833 0
M  V30 11 C -6.9988 1.035 -0.6002 0
M  V30 12 O -4.8069 0.4765 2.1737 0
M  V30 13 N -4.5273 -0.6201 0.1184 0
M  V30 14 C -8.4207 1.5028 -0.7811 0
M  V30 15 C -3.0937 -0.9441 0.2372 0 CFG=1
M  V30 16 C -9.3408 0.7245 -1.5064 0
M  V30 17 C -8.8464 2.7167 -0.2144 0
M  V30 18 C -2.2158 0.2796 0.4119 0
M  V30 19 C -2.8221 -2.0738 1.2559 0
M  V30 20 C -10.661 1.159 -1.6668 0
M  V30 21 C -10.1662 3.1496 -0.3802 0
M  V30 22 O -2.7169 1.3859 0.75 0
M  V30 23 N -0.8031 0.1762 0.1721 0
M  V30 24 C -3.078 -1.7046 2.6866 0
M  V30 25 C -11.0736 2.368 -1.1014 0
M  V30 26 C 0.0523 1.3511 -0.0526 0 CFG=1
M  V30 27 N -2.3345 -0.8493 3.4072 0
M  V30 28 C -4.0924 -2.1872 3.4877 0
M  V30 29 C 1.3636 1.2534 0.7818 0 CFG=1
M  V30 30 C 0.3114 1.5225 -1.5746 0
M  V30 31 C -2.9184 -0.813 4.6202 0
M  V30 32 N -4.0002 -1.6214 4.7096 0
M  V30 33 O 1.0913 1.5586 2.1271 0
M  V30 34 C 2.0859 -0.1132 0.6669 0
M  V30 35 C 0.0842 2.9401 -2.1717 0
M  V30 36 C 3.4684 -0.0946 1.2603 0
M  V30 37 C -1.3947 3.4236 -2.1575 0
M  V30 38 C 1.1076 4.0044 -1.7064 0
M  V30 39 O 3.724 0.6507 2.2407 0
M  V30 40 N 4.4763 -0.9809 0.7518 0
M  V30 41 C -1.7752 4.3612 -0.9983 0
M  V30 42 C 0.6432 4.8337 -0.5062 0
M  V30 43 C 5.8526 -0.9598 1.2652 0 CFG=2
M  V30 44 C -0.7282 5.45 -0.774 0
M  V30 45 C 6.585 0.2605 0.7773 0
M  V30 46 C 6.6038 -2.267 0.9274 0
M  V30 47 O 6.2808 0.7773 -0.3345 0
M  V30 48 N 7.6627 0.8006 1.5545 0
M  V30 49 C 6.9202 -2.4791 -0.58 0
M  V30 50 C 8.4601 1.9391 1.1099 0
M  V30 51 C 8.3359 -1.9947 -0.9295 0
M  V30 52 C 6.7861 -3.9636 -0.9537 0
M  V30 53 C 9.609 1.4654 0.2631 0
M  V30 54 C 10.6534 0.7318 0.8503 0
M  V30 55 C 9.6333 1.7144 -1.1182 0
M  V30 56 C 11.7226 0.2654 0.0702 0
M  V30 57 C 10.6911 1.2408 -1.899 0
M  V30 58 C 11.7288 0.5138 -1.3106 0
M  V30 59 C 12.8211 -0.5512 0.7014 0
M  V30 60 N 12.4373 -1.96 0.7729 0 CHG=1
M  V30 61 H -8.2531 -0.5303 2.0093 0
M  V30 62 H -6.9966 1.3048 1.5188 0
M  V30 63 H -8.8478 -5.7432 -0.6943 0
M  V30 64 H -8.0786 -5.1198 0.817 0
M  V30 65 H -7.5391 -4.5213 -0.7961 0
M  V30 66 H -10.3834 -4.0631 -2.0917 0
M  V30 67 H -10.5843 -2.3856 -1.4527 0
M  V30 68 H -8.9977 -2.9255 -2.1165 0
M  V30 69 H -10.4643 -4.6085 1.6234 0
M  V30 70 H -11.502 -3.4782 0.6801 0
M  V30 71 H -11.1574 -5.1318 0.0398 0
M  V30 72 H -6.3164 1.8976 -0.7646 0
M  V30 73 H -6.7515 0.2943 -1.3855 0
M  V30 74 H -4.9714 -0.8914 -0.7841 0
M  V30 75 H -2.7872 -1.3688 -0.7452 0
M  V30 76 H -9.0396 -0.2135 -1.9488 0
M  V30 77 H -8.1548 3.3281 0.3524 0
M  V30 78 H -1.7655 -2.4041 1.1666 0
M  V30 79 H -3.4546 -2.9487 0.988 0
M  V30 80 H -11.3645 0.5585 -2.2287 0
M  V30 81 H -10.4885 4.0864 0.0609 0
M  V30 82 H -0.4336 -0.7581 -0.1097 0
M  V30 83 H -12.0947 2.706 -1.231 0
M  V30 84 H -0.4736 2.2431 0.3196 0
M  V30 85 H -1.494 -0.3132 3.0974 0
M  V30 86 H -4.8577 -2.8938 3.1965 0
M  V30 87 H 2.0586 2.036 0.4077 0
M  V30 88 H 1.3482 1.212 -1.824 0
M  V30 89 H -0.3403 0.8192 -2.141 0
M  V30 90 H -2.5628 -0.2027 5.4393 0
M  V30 91 H 0.5507 0.8131 2.5011 0
M  V30 92 H 1.5077 -0.9083 1.183 0
M  V30 93 H 2.1669 -0.4026 -0.4039 0
M  V30 94 H 0.3119 2.7889 -3.254 0
M  V30 95 H -1.5907 3.9767 -3.1056 0
M  V30 96 H -2.0877 2.5523 -2.1565 0
M  V30 97 H 2.0838 3.5283 -1.4739 0
M  V30 98 H 1.2946 4.7057 -2.553 0
M  V30 99 H 4.2023 -1.6766 0.0222 0
M  V30 100 H -2.7478 4.8485 -1.2358 0
M  V30 101 H -1.9397 3.796 -0.0618 0
M  V30 102 H 1.3762 5.6515 -0.3301 0
M  V30 103 H 0.6156 4.2176 0.4167 0
M  V30 104 H 5.8031 -0.9104 2.3758 0
M  V30 105 H -0.6769 6.1147 -1.6645 0
M  V30 106 H -1.0284 6.0723 0.0975 0
M  V30 107 H 7.5457 -2.3081 1.526 0
M  V30 108 H 5.9779 -3.1055 1.3077 0
M  V30 109 H 7.9483 0.3096 2.4327 0
M  V30 110 H 6.1953 -1.915 -1.2083 0
M  V30 111 H 7.8239 2.6682 0.564 0
M  V30 112 H 8.8603 2.4713 2.0 0
M  V30 113 H 9.1009 -2.529 -0.3226 0
M  V30 114 H 8.5511 -2.1745 -2.0039 0
M  V30 115 H 8.4342 -0.9086 -0.7504 0
M  V30 116 H 7.4944 -4.5807 -0.3565 0
M  V30 117 H 7.0007 -4.1122 -2.0329 0
M  V30 118 H 5.7509 -4.3192 -0.7587 0
M  V30 119 H 10.6298 0.5223 1.9129 0
M  V30 120 H 8.8307 2.2647 -1.5935 0
M  V30 121 H 10.7026 1.4287 -2.9651 0
M  V30 122 H 12.5387 0.1476 -1.93 0
M  V30 123 H 13.0338 -0.1709 1.7261 0
M  V30 124 H 13.7597 -0.4502 0.1127 0
M  V30 125 H 11.5931 -2.0741 1.3826 0
M  V30 126 H 13.2266 -2.5088 1.1862 0
M  V30 127 H 12.2373 -2.3288 -0.1848 0
M  V30 END ATOM
M  V30 BEGIN BOND
M  V30 1 2 1 2
M  V30 2 1 2 3
M  V30 3 1 2 4
M  V30 4 1 3 5
M  V30 5 1 4 6
M  V30 6 1 5 7
M  V30 7 1 5 8
M  V30 8 1 5 9
M  V30 9 1 6 10
M  V30 10 1 6 11
M  V30 11 2 10 12
M  V30 12 1 10 13
M  V30 13 1 11 14
M  V30 14 1 13 15
M  V30 15 2 14 16
M  V30 16 1 14 17
M  V30 17 1 15 18
M  V30 18 1 15 19
M  V30 19 1 16 20
M  V30 20 2 17 21
M  V30 21 2 18 22
M  V30 22 1 18 23
M  V30 23 1 19 24
M  V30 24 2 20 25
M  V30 25 1 23 26
M  V30 26 1 24 27
M  V30 27 2 24 28
M  V30 28 1 26 29
M  V30 29 1 26 30
M  V30 30 1 27 31
M  V30 31 1 28 32
M  V30 32 1 29 33
M  V30 33 1 29 34
M  V30 34 1 30 35
M  V30 35 1 34 36
M  V30 36 1 35 37
M  V30 37 1 35 38
M  V30 38 2 36 39
M  V30 39 1 36 40
M  V30 40 1 37 41
M  V30 41 1 38 42
M  V30 42 1 40 43
M  V30 43 1 41 44
M  V30 44 1 43 45
M  V30 45 1 43 46
M  V30 46 2 45 47
M  V30 47 1 45 48
M  V30 48 1 46 49
M  V30 49 1 48 50
M  V30 50 1 49 51
M  V30 51 1 49 52
M  V30 52 1 50 53
M  V30 53 2 53 54
M  V30 54 1 53 55
M  V30 55 1 54 56
M  V30 56 2 55 57
M  V30 57 2 56 58
M  V30 58 1 56 59
M  V30 59 1 59 60
M  V30 60 1 21 25
M  V30 61 2 31 32
M  V30 62 1 42 44
M  V30 63 1 57 58
M  V30 64 1 4 61
M  V30 65 1 6 62
M  V30 66 1 7 63
M  V30 67 1 7 64
M  V30 68 1 7 65
M  V30 69 1 8 66
M  V30 70 1 8 67
M  V30 71 1 8 68
M  V30 72 1 9 69
M  V30 73 1 9 70
M  V30 74 1 9 71
M  V30 75 1 11 72
M  V30 76 1 11 73
M  V30 77 1 13 74
M  V30 78 1 15 75
M  V30 79 1 16 76
M  V30 80 1 17 77
M  V30 81 1 19 78
M  V30 82 1 19 79
M  V30 83 1 20 80
M  V30 84 1 21 81
M  V30 85 1 23 82
M  V30 86 1 25 83
M  V30 87 1 26 84
M  V30 88 1 27 85
M  V30 89 1 28 86
M  V30 90 1 29 87
M  V30 91 1 30 88
M  V30 92 1 30 89
M  V30 93 1 31 90
M  V30 94 1 33 91
M  V30 95 1 34 92
M  V30 96 1 34 93
M  V30 97 1 35 94
M  V30 98 1 37 95
M  V30 99 1 37 96
M  V30 100 1 38 97
M  V30 101 1 38 98
M  V30 102 1 40 99
M  V30 103 1 41 100
M  V30 104 1 41 101
M  V30 105 1 42 102
M  V30 106 1 42 103
M  V30 107 1 43 104
M  V30 108 1 44 105
M  V30 109 1 44 106
M  V30 110 1 46 107
M  V30 111 1 46 108
M  V30 112 1 48 109
M  V30 113 1 49 110
M  V30 114 1 50 111
M  V30 115 1 50 112
M  V30 116 1 51 113
M  V30 117 1 51 114
M  V30 118 1 51 115
M  V30 119 1 52 116
M  V30 120 1 52 117
M  V30 121 1 52 118
M  V30 122 1 54 119
M  V30 123 1 55 120
M  V30 124 1 57 121
M  V30 125 1 58 122
M  V30 126 1 59 123
M  V30 127 1 59 124
M  V30 128 1 60 125
M  V30 129 1 60 126
M  V30 130 1 60 127
M  V30 END BOND
M  V30 BEGIN COLLECTION
M  V30 MDLV30/STEABS ATOMS=(5 6 15 26 29 43)
M  V30 END COLLECTION
M  V30 END CTAB
M  END
>  <Structure No>
7511

>  <LogS>
-4.7

>  <MMFF94 Energy>
-35.182

$$$$
Compound 7512
Actelion Java MolfileCreator 2.0

  0  0  0  0  0  0              0 V3000
M  V30 BEGIN CTAB
M  V30 COUNTS 116 118 0 0 0
M  V30 BEGIN ATOM
M  V30 1 O 7.5759 -1.2728 -0.6362 0
M  V30 2 C 7.9683 -0.0993 -0.8883 0
M  V30 3 O 8.9727 0.1439 -1.8359 0
M  V30 4 N 7.3731 1.0173 -0.2164 0
M  V30 5 C 9.5726 -0.8203 -2.7112 0
M  V30 6 C 6.3332 0.8773 0.8131 0 CFG=2
M  V30 7 C 8.5068 -1.4359 -3.6347 0
M  V30 8 C 10.2977 -1.9167 -1.9081 0
M  V30 9 C 10.6022 -0.0704 -3.57 0
M  V30 10 C 4.992 0.5954 0.1608 0
M  V30 11 C 6.3035 2.1709 1.6674 0
M  V30 12 O 4.9379 0.3531 -1.0786 0
M  V30 13 N 3.788 0.5531 0.9492 0
M  V30 14 C 5.7046 1.9754 3.042 0
M  V30 15 C 2.4177 0.5795 0.4052 0 CFG=2
M  V30 16 C 4.5202 2.6397 3.408 0
M  V30 17 C 6.3514 1.1583 3.9882 0
M  V30 18 C 1.9768 -0.8094 0.0053 0
M  V30 19 C 2.2443 1.5951 -0.7487 0
M  V30 20 C 3.9809 2.4688 4.6867 0
M  V30 21 C 5.808 0.9901 5.2658 0
M  V30 22 O 2.7624 -1.7868 0.1553 0
M  V30 23 N 0.6476 -1.0383 -0.4888 0
M  V30 24 C 2.8276 2.9372 -0.4217 0
M  V30 25 C 4.6232 1.6446 5.6138 0
M  V30 26 C -0.017 -2.3458 -0.4132 0 CFG=1
M  V30 27 N 3.8611 3.4983 -1.0708 0
M  V30 28 C 2.3791 3.8149 0.5391 0
M  V30 29 C -1.3725 -2.2383 0.3489 0 CFG=1
M  V30 30 C -0.1863 -2.9434 -1.8305 0
M  V30 31 C 4.0298 4.6992 -0.4866 0
M  V30 32 N 3.1357 4.9307 0.4986 0
M  V30 33 O -1.1686 -1.668 1.6189 0
M  V30 34 C -2.4873 -1.4885 -0.429 0
M  V30 35 C 1.15 -3.3466 -2.5013 0
M  V30 36 C -3.7561 -1.3711 0.3703 0
M  V30 37 C 1.724 -4.6369 -1.8932 0
M  V30 38 C 0.943 -3.5351 -4.0107 0
M  V30 39 O -4.2629 -2.4031 0.8904 0
M  V30 40 N -4.4056 -0.0975 0.5075 0
M  V30 41 C -5.7326 0.0399 1.1151 0 CFG=2
M  V30 42 C -6.7858 -0.3388 0.1049 0
M  V30 43 C -5.9287 1.4898 1.6092 0
M  V30 44 O -6.7208 0.1264 -1.0644 0
M  V30 45 N -7.8866 -1.1812 0.4865 0
M  V30 46 C -7.2776 1.7458 2.3287 0
M  V30 47 C -8.9243 -1.5729 -0.4689 0 CFG=2
M  V30 48 C -7.3687 1.0079 3.6712 0
M  V30 49 C -7.4702 3.249 2.5551 0
M  V30 50 C -9.8454 -0.4101 -0.7621 0
M  V30 51 C -9.7082 -2.7463 0.0488 0
M  V30 52 C -10.4182 0.3422 0.2788 0
M  V30 53 C -10.1551 -0.077 -2.0925 0
M  V30 54 O -10.371 -2.6537 1.1154 0
M  V30 55 O -9.6971 -3.9503 -0.6517 0 CHG=-1
M  V30 56 C -11.2668 1.4179 -0.0066 0
M  V30 57 C -10.9994 1.0033 -2.3756 0
M  V30 58 C -11.5532 1.7508 -1.3326 0
M  V30 59 H 7.6709 1.9728 -0.5252 0
M  V30 60 H 6.5962 0.0154 1.4624 0
M  V30 61 H 8.9828 -2.1048 -4.387 0
M  V30 62 H 7.7728 -2.0358 -3.0573 0
M  V30 63 H 7.9585 -0.6344 -4.1726 0
M  V30 64 H 10.8876 -2.5722 -2.5871 0
M  V30 65 H 10.9846 -1.4554 -1.1687 0
M  V30 66 H 9.5782 -2.5667 -1.3646 0
M  V30 67 H 11.3791 0.3907 -2.9229 0
M  V30 68 H 10.1066 0.7416 -4.1434 0
M  V30 69 H 11.0994 -0.7555 -4.2928 0
M  V30 70 H 5.7758 2.9776 1.1135 0
M  V30 71 H 7.3451 2.5283 1.8205 0
M  V30 72 H 3.879 0.3769 1.9762 0
M  V30 73 H 1.7345 0.8971 1.2275 0
M  V30 74 H 4.0139 3.2873 2.7068 0
M  V30 75 H 7.2784 0.6576 3.7357 0
M  V30 76 H 1.1644 1.7484 -0.9556 0
M  V30 77 H 2.7002 1.2024 -1.6826 0
M  V30 78 H 3.0663 2.9818 4.9598 0
M  V30 79 H 6.3094 0.3554 5.9856 0
M  V30 80 H 0.117 -0.2412 -0.8998 0
M  V30 81 H 4.2094 1.5135 6.6049 0
M  V30 82 H 0.6016 -3.04 0.1925 0
M  V30 83 H 4.4079 3.0972 -1.8672 0
M  V30 84 H 1.5522 3.6552 1.2202 0
M  V30 85 H -1.7305 -3.2781 0.5123 0
M  V30 86 H -0.8561 -3.8297 -1.7835 0
M  V30 87 H -0.69 -2.1832 -2.4681 0
M  V30 88 H 4.7891 5.4093 -0.7834 0
M  V30 89 H -1.0171 -0.6938 1.4944 0
M  V30 90 H -2.1357 -0.48 -0.7177 0
M  V30 91 H -2.7386 -2.0374 -1.3587 0
M  V30 92 H 1.8938 -2.531 -2.3707 0
M  V30 93 H 1.961 -4.5094 -0.8179 0
M  V30 94 H 1.003 -5.4759 -2.0058 0
M  V30 95 H 2.6682 -4.9114 -2.4068 0
M  V30 96 H 0.1993 -4.3401 -4.2065 0
M  V30 97 H 1.9024 -3.8129 -4.4999 0
M  V30 98 H 0.5806 -2.5931 -4.473 0
M  V30 99 H -4.0039 0.72 -0.0137 0
M  V30 100 H -5.7839 -0.6411 1.9886 0
M  V30 101 H -5.8524 2.171 0.7308 0
M  V30 102 H -5.0927 1.7441 2.2968 0
M  V30 103 H -7.96 -1.4889 1.4818 0
M  V30 104 H -8.1128 1.4015 1.6825 0
M  V30 105 H -8.4241 -1.9007 -1.4082 0
M  V30 106 H -6.5269 1.2953 4.3366 0
M  V30 107 H -8.3264 1.2513 4.1756 0
M  V30 108 H -7.3543 -0.0887 3.5197 0
M  V30 109 H -7.4737 3.7822 1.5815 0
M  V30 110 H -6.6535 3.6592 3.1892 0
M  V30 111 H -8.4439 3.4404 3.0524 0
M  V30 112 H -10.2066 0.1002 1.3121 0
M  V30 113 H -9.7423 -0.6484 -2.916 0
M  V30 114 H -11.7038 1.9938 0.8019 0
M  V30 115 H -11.2267 1.259 -3.4056 0
M  V30 116 H -12.2038 2.5866 -1.5502 0
M  V30 END ATOM
M  V30 BEGIN BOND
M  V30 1 2 1 2
M  V30 2 1 2 3
M  V30 3 1 2 4
M  V30 4 1 3 5
M  V30 5 1 4 6
M  V30 6 1 5 7
M  V30 7 1 5 8
M  V30 8 1 5 9
M  V30 9 1 6 10
M  V30 10 1 6 11
M  V30 11 2 10 12
M  V30 12 1 10 13
M  V30 13 1 11 14
M  V30 14 1 13 15
M  V30 15 2 14 16
M  V30 16 1 14 17
M  V30 17 1 15 18
M  V30 18 1 15 19
M  V30 19 1 16 20
M  V30 20 2 17 21
M  V30 21 2 18 22
M  V30 22 1 18 23
M  V30 23 1 19 24
M  V30 24 2 20 25
M  V30 25 1 23 26
M  V30 26 1 24 27
M  V30 27 2 24 28
M  V30 28 1 26 29
M  V30 29 1 26 30
M  V30 30 1 27 31
M  V30 31 1 28 32
M  V30 32 1 29 33
M  V30 33 1 29 34
M  V30 34 1 30 35
M  V30 35 1 34 36
M  V30 36 1 35 37
M  V30 37 1 35 38
M  V30 38 2 36 39
M  V30 39 1 36 40
M  V30 40 1 40 41
M  V30 41 1 41 42
M  V30 42 1 41 43
M  V30 43 2 42 44
M  V30 44 1 42 45
M  V30 45 1 43 46
M  V30 46 1 45 47
M  V30 47 1 46 48
M  V30 48 1 46 49
M  V30 49 1 47 50
M  V30 50 1 47 51
M  V30 51 2 50 52
M  V30 52 1 50 53
M  V30 53 2 51 54
M  V30 54 1 51 55
M  V30 55 1 52 56
M  V30 56 2 53 57
M  V30 57 2 56 58
M  V30 58 1 21 25
M  V30 59 2 31 32
M  V30 60 1 57 58
M  V30 61 1 4 59
M  V30 62 1 6 60
M  V30 63 1 7 61
M  V30 64 1 7 62
M  V30 65 1 7 63
M  V30 66 1 8 64
M  V30 67 1 8 65
M  V30 68 1 8 66
M  V30 69 1 9 67
M  V30 70 1 9 68
M  V30 71 1 9 69
M  V30 72 1 11 70
M  V30 73 1 11 71
M  V30 74 1 13 72
M  V30 75 1 15 73
M  V30 76 1 16 74
M  V30 77 1 17 75
M  V30 78 1 19 76
M  V30 79 1 19 77
M  V30 80 1 20 78
M  V30 81 1 21 79
M  V30 82 1 23 80
M  V30 83 1 25 81
M  V30 84 1 26 82
M  V30 85 1 27 83
M  V30 86 1 28 84
M  V30 87 1 29 85
M  V30 88 1 30 86
M  V30 89 1 30 87
M  V30 90 1 31 88
M  V30 91 1 33 89
M  V30 92 1 34 90
M  V30 93 1 34 91
M  V30 94 1 35 92
M  V30 95 1 37 93
M  V30 96 1 37 94
M  V30 97 1 37 95
M  V30 98 1 38 96
M  V30 99 1 38 97
M  V30 100 1 38 98
M  V30 101 1 40 99
M  V30 102 1 41 100
M  V30 103 1 43 101
M  V30 104 1 43 102
M  V30 105 1 45 103
M  V30 106 1 46 104
M  V30 107 1 47 105
M  V30 108 1 48 106
M  V30 109 1 48 107
M  V30 110 1 48 108
M  V30 111 1 49 109
M  V30 112 1 49 110
M  V30 113 1 49 111
M  V30 114 1 52 112
M  V30 115 1 53 113
M  V30 116 1 56 114
M  V30 117 1 57 115
M  V30 118 1 58 116
M  V30 END BOND
M  V30 BEGIN COLLECTION
M  V30 MDLV30/STEABS ATOMS=(6 6 15 26 29 41 47)
M  V30 END COLLECTION
M  V30 END CTAB
M  END
>  <Structure No>
7512

>  <LogS>
-3.13

>  <MMFF94 Energy>
88.702

$$$$
Compound 7513
Actelion Java MolfileCreator 2.0

  0  0  0  0  0  0              0 V3000
M  V30 BEGIN CTAB
M  V30 COUNTS 110 115 0 0 0
M  V30 BEGIN ATOM
M  V30 1 O -4.2639 3.0557 0.9642 0
M  V30 2 C -3.2366 2.3396 1.1191 0
M  V30 3 N -1.9475 2.9909 1.0709 0
M  V30 4 C -3.3945 0.8865 1.5622 0 CFG=2
M  V30 5 C -1.0086 2.732 -0.0416 0 CFG=2
M  V30 6 C -1.8287 4.3093 1.719 0
M  V30 7 N -2.3183 0.0542 1.0051 0
M  V30 8 C -4.8292 0.2709 1.342 0 CFG=2
M  V30 9 C 0.4184 2.615 0.499 0
M  V30 10 C -1.199 3.8139 -1.1489 0
M  V30 11 C -1.8792 5.4494 0.6802 0
M  V30 12 C -2.4019 -1.3577 0.7809 0
M  V30 13 C -5.249 -0.0444 -0.1198 0
M  V30 14 C -5.9477 1.0204 2.09 0
M  V30 15 O 0.5942 2.3035 1.7078 0
M  V30 16 N 1.5708 2.6894 -0.3579 0
M  V30 17 C -2.1606 4.9444 -0.7436 0
M  V30 18 O -2.6949 -2.1191 1.742 0
M  V30 19 C -2.0058 -1.9138 -0.5729 0 CFG=1
M  V30 20 C -5.1405 1.1073 -1.117 0
M  V30 21 C 2.3244 1.4642 -0.6795 0 CFG=2
M  V30 22 C 2.2138 3.9849 -0.6081 0
M  V30 23 N -0.5791 -1.6507 -0.7828 0
M  V30 24 C -2.3571 -3.4186 -0.7186 0
M  V30 25 C 3.4766 1.2661 0.2958 0
M  V30 26 C 2.7939 1.5323 -2.1502 0
M  V30 27 C 2.6209 4.0749 -2.0841 0
M  V30 28 C 0.2493 -2.3899 -1.6832 0
M  V30 29 C -3.8503 -3.635 -0.7889 0
M  V30 30 O 4.4657 2.0444 0.2593 0
M  V30 31 N 3.4224 0.2841 1.3502 0
M  V30 32 C 3.4733 2.8685 -2.505 0
M  V30 33 O -0.0586 -2.4498 -2.9012 0
M  V30 34 C 1.5106 -3.0592 -1.1969 0 CFG=1
M  V30 35 C -4.56 -4.1329 0.3185 0
M  V30 36 C -4.5508 -3.3021 -1.9616 0
M  V30 37 C 3.3919 -1.1716 1.0862 0 CFG=1
M  V30 38 C 3.6907 0.7546 2.7113 0
M  V30 39 N 1.6913 -2.8982 0.2422 0
M  V30 40 C 1.4586 -4.5757 -1.4347 0
M  V30 41 C -5.9495 -4.2754 0.2563 0
M  V30 42 C -5.9401 -3.4508 -2.0178 0
M  V30 43 C 1.9744 -1.6541 0.9012 0
M  V30 44 C 4.3374 -1.5757 -0.0661 0
M  V30 45 C 1.6769 -4.1495 0.9765 0
M  V30 46 C 1.6493 -5.2519 -0.073 0
M  V30 47 C -6.6392 -3.9373 -0.9104 0
M  V30 48 O 1.0532 -1.0734 1.533 0
M  V30 49 C 5.7649 -1.1441 0.1814 0
M  V30 50 C 6.4959 -1.6939 1.2488 0
M  V30 51 C 6.3894 -0.2063 -0.6626 0
M  V30 52 C 7.8155 -1.2932 1.482 0
M  V30 53 C 7.7103 0.1905 -0.4261 0
M  V30 54 C 8.4203 -0.3464 0.6512 0
M  V30 55 H -3.2377 0.8999 2.6628 0
M  V30 56 H -1.2367 1.7599 -0.5221 0
M  V30 57 H -0.8675 4.3673 2.2727 0
M  V30 58 H -2.6328 4.4495 2.4739 0
M  V30 59 H -1.3488 0.3746 1.2051 0
M  V30 60 H -4.8072 -0.7158 1.8487 0
M  V30 61 H -1.6066 3.3334 -2.0649 0
M  V30 62 H -0.2505 4.2756 -1.4597 0
M  V30 63 H -0.9121 5.9981 0.6803 0
M  V30 64 H -2.6753 6.1716 0.9613 0
M  V30 65 H -6.3014 -0.4074 -0.1298 0
M  V30 66 H -4.6517 -0.8851 -0.5108 0
M  V30 67 H -5.5963 1.3665 3.0829 0
M  V30 68 H -6.8104 0.3407 2.2503 0
M  V30 69 H -6.3225 1.8895 1.5151 0
M  V30 70 H -2.0661 5.7866 -1.4605 0
M  V30 71 H -3.2071 4.5798 -0.8084 0
M  V30 72 H -2.5582 -1.3442 -1.3526 0
M  V30 73 H -4.0881 1.4298 -1.2363 0
M  V30 74 H -5.4932 0.7579 -2.1081 0
M  V30 75 H -5.7798 1.9601 -0.817 0
M  V30 76 H 1.6499 0.5909 -0.5981 0
M  V30 77 H 3.1093 4.0973 0.039 0
M  V30 78 H 1.5439 4.8308 -0.3449 0
M  V30 79 H -0.2543 -0.678 -0.5965 0
M  V30 80 H -1.9037 -3.9992 0.1149 0
M  V30 81 H -1.9233 -3.8235 -1.6572 0
M  V30 82 H 1.9001 1.415 -2.8031 0
M  V30 83 H 3.4806 0.6916 -2.3807 0
M  V30 84 H 1.7089 4.1159 -2.7222 0
M  V30 85 H 3.1996 5.0102 -2.2501 0
M  V30 86 H 4.4759 2.9316 -2.0328 0
M  V30 87 H 3.6379 2.9119 -3.603 0
M  V30 88 H 2.3752 -2.632 -1.7415 0
M  V30 89 H -4.0372 -4.4043 1.228 0
M  V30 90 H -4.0229 -2.9151 -2.8275 0
M  V30 91 H 3.7537 -1.712 1.9879 0
M  V30 92 H 4.7682 1.0083 2.8154 0
M  V30 93 H 3.4283 -0.0183 3.4658 0
M  V30 94 H 3.0803 1.6587 2.926 0
M  V30 95 H 2.2706 -4.8867 -2.1268 0
M  V30 96 H 0.4899 -4.904 -1.8714 0
M  V30 97 H -6.4873 -4.6523 1.115 0
M  V30 98 H -6.4762 -3.1884 -2.919 0
M  V30 99 H 4.3336 -2.6823 -0.178 0
M  V30 100 H 3.9688 -1.1482 -1.0173 0
M  V30 101 H 0.7652 -4.1895 1.6164 0
M  V30 102 H 2.5879 -4.2318 1.6145 0
M  V30 103 H 0.8197 -5.9601 0.1354 0
M  V30 104 H 2.6115 -5.8099 -0.0516 0
M  V30 105 H -7.714 -4.0513 -0.9496 0
M  V30 106 H 6.0502 -2.4372 1.8993 0
M  V30 107 H 5.8569 0.2149 -1.505 0
M  V30 108 H 8.3715 -1.7178 2.3077 0
M  V30 109 H 8.1794 0.9181 -1.076 0
M  V30 110 H 9.442 -0.0398 0.8355 0
M  V30 END ATOM
M  V30 BEGIN BOND
M  V30 1 2 1 2
M  V30 2 1 2 3
M  V30 3 1 2 4
M  V30 4 1 3 5
M  V30 5 1 3 6
M  V30 6 1 4 7
M  V30 7 1 4 8
M  V30 8 1 5 9
M  V30 9 1 5 10
M  V30 10 1 6 11
M  V30 11 1 7 12
M  V30 12 1 8 13
M  V30 13 1 8 14
M  V30 14 2 9 15
M  V30 15 1 9 16
M  V30 16 1 10 17
M  V30 17 2 12 18
M  V30 18 1 12 19
M  V30 19 1 13 20
M  V30 20 1 16 21
M  V30 21 1 16 22
M  V30 22 1 19 23
M  V30 23 1 19 24
M  V30 24 1 21 25
M  V30 25 1 21 26
M  V30 26 1 22 27
M  V30 27 1 23 28
M  V30 28 1 24 29
M  V30 29 2 25 30
M  V30 30 1 25 31
M  V30 31 1 26 32
M  V30 32 2 28 33
M  V30 33 1 28 34
M  V30 34 2 29 35
M  V30 35 1 29 36
M  V30 36 1 31 37
M  V30 37 1 31 38
M  V30 38 1 34 39
M  V30 39 1 34 40
M  V30 40 1 35 41
M  V30 41 2 36 42
M  V30 42 1 37 43
M  V30 43 1 37 44
M  V30 44 1 39 45
M  V30 45 1 40 46
M  V30 46 2 41 47
M  V30 47 2 43 48
M  V30 48 1 44 49
M  V30 49 2 49 50
M  V30 50 1 49 51
M  V30 51 1 50 52
M  V30 52 2 51 53
M  V30 53 2 52 54
M  V30 54 1 11 17
M  V30 55 1 27 32
M  V30 56 1 39 43
M  V30 57 1 42 47
M  V30 58 1 45 46
M  V30 59 1 53 54
M  V30 60 1 4 55
M  V30 61 1 5 56
M  V30 62 1 6 57
M  V30 63 1 6 58
M  V30 64 1 7 59
M  V30 65 1 8 60
M  V30 66 1 10 61
M  V30 67 1 10 62
M  V30 68 1 11 63
M  V30 69 1 11 64
M  V30 70 1 13 65
M  V30 71 1 13 66
M  V30 72 1 14 67
M  V30 73 1 14 68
M  V30 74 1 14 69
M  V30 75 1 17 70
M  V30 76 1 17 71
M  V30 77 1 19 72
M  V30 78 1 20 73
M  V30 79 1 20 74
M  V30 80 1 20 75
M  V30 81 1 21 76
M  V30 82 1 22 77
M  V30 83 1 22 78
M  V30 84 1 23 79
M  V30 85 1 24 80
M  V30 86 1 24 81
M  V30 87 1 26 82
M  V30 88 1 26 83
M  V30 89 1 27 84
M  V30 90 1 27 85
M  V30 91 1 32 86
M  V30 92 1 32 87
M  V30 93 1 34 88
M  V30 94 1 35 89
M  V30 95 1 36 90
M  V30 96 1 37 91
M  V30 97 1 38 92
M  V30 98 1 38 93
M  V30 99 1 38 94
M  V30 100 1 40 95
M  V30 101 1 40 96
M  V30 102 1 41 97
M  V30 103 1 42 98
M  V30 104 1 44 99
M  V30 105 1 44 100
M  V30 106 1 45 101
M  V30 107 1 45 102
M  V30 108 1 46 103
M  V30 109 1 46 104
M  V30 110 1 47 105
M  V30 111 1 50 106
M  V30 112 1 51 107
M  V30 113 1 52 108
M  V30 114 1 53 109
M  V30 115 1 54 110
M  V30 END BOND
M  V30 BEGIN COLLECTION
M  V30 MDLV30/STEABS ATOMS=(7 4 5 8 19 21 34 37)
M  V30 END COLLECTION
M  V30 END CTAB
M  END
>  <Structure No>
7513

>  <LogS>
-5.57

>  <MMFF94 Energy>
214.86

$$$$
Compound 7514
Actelion Java MolfileCreator 2.0

  0  0  0  0  0  0              0 V3000
M  V30 BEGIN CTAB
M  V30 COUNTS 125 127 0 0 0
M  V30 BEGIN ATOM
M  V30 1 O -8.9104 1.9836 1.5866 0
M  V30 2 C -8.3982 2.3757 0.5026 0
M  V30 3 O -9.1603 3.0761 -0.4452 0
M  V30 4 N -7.0196 2.1046 0.2187 0
M  V30 5 C -10.5694 3.3402 -0.3783 0
M  V30 6 C -6.1202 1.4284 1.1597 0 CFG=1
M  V30 7 C -10.9526 4.0807 -1.6678 0
M  V30 8 C -10.9015 4.2399 0.8281 0
M  V30 9 C -11.3635 2.0217 -0.3076 0
M  V30 10 C -5.3249 0.372 0.4335 0
M  V30 11 C -5.2116 2.4632 1.8417 0
M  V30 12 O -5.4079 -0.8276 0.8132 0
M  V30 13 N -4.4357 0.7291 -0.6388 0
M  V30 14 C -4.2792 1.821 2.8405 0
M  V30 15 C -3.8379 -0.2686 -1.5267 0 CFG=2
M  V30 16 C -2.9629 1.4883 2.4708 0
M  V30 17 C -4.7344 1.4995 4.1303 0
M  V30 18 C -2.403 0.0972 -1.8033 0
M  V30 19 C -4.6609 -0.3568 -2.8235 0
M  V30 20 C -2.1154 0.8517 3.3838 0
M  V30 21 C -3.8827 0.8647 5.0393 0
M  V30 22 O -2.1352 1.1319 -2.4794 0
M  V30 23 N -1.3442 -0.711 -1.2698 0
M  V30 24 C -4.1337 -1.4138 -3.7483 0
M  V30 25 C -2.574 0.5418 4.6671 0
M  V30 26 C -0.1894 -1.1292 -2.0806 0 CFG=1
M  V30 27 N -4.3692 -2.7278 -3.6176 0
M  V30 28 C -3.2882 -1.2208 -4.8178 0
M  V30 29 C 0.9615 -0.0834 -2.0277 0 CFG=1
M  V30 30 C 0.2864 -2.5354 -1.6383 0
M  V30 31 C -3.6806 -3.3069 -4.6197 0
M  V30 32 N -3.0049 -2.4152 -5.3756 0
M  V30 33 O 0.5447 1.1173 -2.6237 0
M  V30 34 C 1.4599 0.2358 -0.5975 0
M  V30 35 C -0.7066 -3.6506 -2.058 0
M  V30 36 C 2.537 -0.694 -0.1115 0
M  V30 37 C -0.4387 -4.1177 -3.4963 0
M  V30 38 C -0.6248 -4.8478 -1.1029 0
M  V30 39 O 3.5126 -0.9536 -0.8602 0
M  V30 40 N 2.4961 -1.1997 1.2343 0
M  V30 41 C 3.6675 -1.6588 1.9963 0 CFG=2
M  V30 42 C 4.6696 -0.5333 2.1422 0
M  V30 43 C 4.2963 -2.9561 1.4238 0
M  V30 44 O 4.5542 0.2458 3.1247 0
M  V30 45 N 5.7117 -0.3189 1.1726 0
M  V30 46 C 3.5292 -4.2431 1.8074 0
M  V30 47 C 6.7214 0.7367 1.3054 0 CFG=2
M  V30 48 C 2.1443 -4.3063 1.1513 0
M  V30 49 C 4.3441 -5.4809 1.4059 0
M  V30 50 C 6.527 1.7672 0.2261 0
M  V30 51 C 8.1287 0.117 1.2295 0
M  V30 52 O 6.3281 1.4163 -0.9683 0
M  V30 53 O 6.629 3.1176 0.536 0 CHG=-1
M  V30 54 C 9.2035 1.1263 1.5514 0
M  V30 55 C 9.9659 1.7081 0.5246 0
M  V30 56 C 9.4243 1.5215 2.8813 0
M  V30 57 C 10.958 2.657 0.8236 0
M  V30 58 C 10.3924 2.4833 3.1798 0
M  V30 59 C 11.1541 3.053 2.1559 0
M  V30 60 C 11.7634 3.2893 -0.2809 0
M  V30 61 N 11.039 4.4151 -0.8731 0 CHG=1
M  V30 62 H -6.6218 2.5045 -0.6619 0
M  V30 63 H -6.7182 0.9211 1.9515 0
M  V30 64 H -10.7085 3.4585 -2.5584 0
M  V30 65 H -10.3841 5.0339 -1.7506 0
M  V30 66 H -12.04 4.3136 -1.6883 0
M  V30 67 H -10.6981 3.7226 1.7885 0
M  V30 68 H -10.2952 5.1698 0.7927 0
M  V30 69 H -11.9775 4.5202 0.8182 0
M  V30 70 H -11.0469 1.3397 -1.1261 0
M  V30 71 H -12.4523 2.2149 -0.4125 0
M  V30 72 H -11.203 1.504 0.6602 0
M  V30 73 H -5.8459 3.2096 2.368 0
M  V30 74 H -4.6291 3.0284 1.0825 0
M  V30 75 H -4.3733 1.7303 -0.9212 0
M  V30 76 H -3.8535 -1.2682 -1.0437 0
M  V30 77 H -2.5948 1.7089 1.4746 0
M  V30 78 H -5.7489 1.7325 4.4249 0
M  V30 79 H -5.7144 -0.6046 -2.5689 0
M  V30 80 H -4.6725 0.6267 -3.3407 0
M  V30 81 H -1.1026 0.5965 3.0949 0
M  V30 82 H -4.2387 0.6171 6.0304 0
M  V30 83 H -1.5496 -1.2279 -0.3838 0
M  V30 84 H -1.9143 0.0522 5.3748 0
M  V30 85 H -0.5135 -1.204 -3.1413 0
M  V30 86 H -4.9534 -3.2029 -2.8956 0
M  V30 87 H -2.8987 -0.2738 -5.1671 0
M  V30 88 H 1.8159 -0.4757 -2.6262 0
M  V30 89 H 0.4007 -2.5277 -0.5324 0
M  V30 90 H 1.2928 -2.7564 -2.0612 0
M  V30 91 H -3.664 -4.3747 -4.7987 0
M  V30 92 H 0.5282 0.9666 -3.6065 0
M  V30 93 H 1.9 1.2544 -0.5864 0
M  V30 94 H 0.6071 0.2553 0.1135 0
M  V30 95 H -1.7471 -3.262 -2.0062 0
M  V30 96 H -0.5014 -3.2693 -4.2035 0
M  V30 97 H -1.1871 -4.8815 -3.7994 0
M  V30 98 H 0.5769 -4.566 -3.5777 0
M  V30 99 H 0.3847 -5.3109 -1.1381 0
M  V30 100 H -0.8386 -4.5259 -0.0647 0
M  V30 101 H -1.3754 -5.6128 -1.3857 0
M  V30 102 H 1.605 -1.0759 1.7693 0
M  V30 103 H 3.3265 -1.8987 3.0286 0
M  V30 104 H 5.324 -3.0456 1.8417 0
M  V30 105 H 4.4031 -2.901 0.3222 0
M  V30 106 H 5.7631 -0.936 0.3326 0
M  V30 107 H 3.3964 -4.2755 2.913 0
M  V30 108 H 6.6157 1.2418 2.2912 0
M  V30 109 H 2.2285 -4.138 0.0574 0
M  V30 110 H 1.4706 -3.5451 1.5933 0
M  V30 111 H 1.6723 -5.2977 1.3274 0
M  V30 112 H 5.3429 -5.4593 1.8949 0
M  V30 113 H 3.8272 -6.4067 1.7353 0
M  V30 114 H 4.4873 -5.5153 0.3042 0
M  V30 115 H 8.1965 -0.7176 1.9597 0
M  V30 116 H 8.2956 -0.324 0.2221 0
M  V30 117 H 9.7948 1.4193 -0.5046 0
M  V30 118 H 8.8367 1.0918 3.684 0
M  V30 119 H 10.5543 2.7851 4.2071 0
M  V30 120 H 11.9001 3.7985 2.4049 0
M  V30 121 H 12.7418 3.6452 0.1122 0
M  V30 122 H 11.9852 2.5333 -1.0668 0
M  V30 123 H 11.6361 4.8559 -1.6124 0
M  V30 124 H 10.8281 5.1318 -0.1382 0
M  V30 125 H 10.153 4.0777 -1.3135 0
M  V30 END ATOM
M  V30 BEGIN BOND
M  V30 1 2 1 2
M  V30 2 1 2 3
M  V30 3 1 2 4
M  V30 4 1 3 5
M  V30 5 1 4 6
M  V30 6 1 5 7
M  V30 7 1 5 8
M  V30 8 1 5 9
M  V30 9 1 6 10
M  V30 10 1 6 11
M  V30 11 2 10 12
M  V30 12 1 10 13
M  V30 13 1 11 14
M  V30 14 1 13 15
M  V30 15 2 14 16
M  V30 16 1 14 17
M  V30 17 1 15 18
M  V30 18 1 15 19
M  V30 19 1 16 20
M  V30 20 2 17 21
M  V30 21 2 18 22
M  V30 22 1 18 23
M  V30 23 1 19 24
M  V30 24 2 20 25
M  V30 25 1 23 26
M  V30 26 1 24 27
M  V30 27 2 24 28
M  V30 28 1 26 29
M  V30 29 1 26 30
M  V30 30 1 27 31
M  V30 31 1 28 32
M  V30 32 1 29 33
M  V30 33 1 29 34
M  V30 34 1 30 35
M  V30 35 1 34 36
M  V30 36 1 35 37
M  V30 37 1 35 38
M  V30 38 2 36 39
M  V30 39 1 36 40
M  V30 40 1 40 41
M  V30 41 1 41 42
M  V30 42 1 41 43
M  V30 43 2 42 44
M  V30 44 1 42 45
M  V30 45 1 43 46
M  V30 46 1 45 47
M  V30 47 1 46 48
M  V30 48 1 46 49
M  V30 49 1 47 50
M  V30 50 1 47 51
M  V30 51 2 50 52
M  V30 52 1 50 53
M  V30 53 1 51 54
M  V30 54 2 54 55
M  V30 55 1 54 56
M  V30 56 1 55 57
M  V30 57 2 56 58
M  V30 58 2 57 59
M  V30 59 1 57 60
M  V30 60 1 60 61
M  V30 61 1 21 25
M  V30 62 2 31 32
M  V30 63 1 58 59
M  V30 64 1 4 62
M  V30 65 1 6 63
M  V30 66 1 7 64
M  V30 67 1 7 65
M  V30 68 1 7 66
M  V30 69 1 8 67
M  V30 70 1 8 68
M  V30 71 1 8 69
M  V30 72 1 9 70
M  V30 73 1 9 71
M  V30 74 1 9 72
M  V30 75 1 11 73
M  V30 76 1 11 74
M  V30 77 1 13 75
M  V30 78 1 15 76
M  V30 79 1 16 77
M  V30 80 1 17 78
M  V30 81 1 19 79
M  V30 82 1 19 80
M  V30 83 1 20 81
M  V30 84 1 21 82
M  V30 85 1 23 83
M  V30 86 1 25 84
M  V30 87 1 26 85
M  V30 88 1 27 86
M  V30 89 1 28 87
M  V30 90 1 29 88
M  V30 91 1 30 89
M  V30 92 1 30 90
M  V30 93 1 31 91
M  V30 94 1 33 92
M  V30 95 1 34 93
M  V30 96 1 34 94
M  V30 97 1 35 95
M  V30 98 1 37 96
M  V30 99 1 37 97
M  V30 100 1 37 98
M  V30 101 1 38 99
M  V30 102 1 38 100
M  V30 103 1 38 101
M  V30 104 1 40 102
M  V30 105 1 41 103
M  V30 106 1 43 104
M  V30 107 1 43 105
M  V30 108 1 45 106
M  V30 109 1 46 107
M  V30 110 1 47 108
M  V30 111 1 48 109
M  V30 112 1 48 110
M  V30 113 1 48 111
M  V30 114 1 49 112
M  V30 115 1 49 113
M  V30 116 1 49 114
M  V30 117 1 51 115
M  V30 118 1 51 116
M  V30 119 1 55 117
M  V30 120 1 56 118
M  V30 121 1 58 119
M  V30 122 1 59 120
M  V30 123 1 60 121
M  V30 124 1 60 122
M  V30 125 1 61 123
M  V30 126 1 61 124
M  V30 127 1 61 125
M  V30 END BOND
M  V30 BEGIN COLLECTION
M  V30 MDLV30/STEABS ATOMS=(6 6 15 26 29 41 47)
M  V30 END COLLECTION
M  V30 END CTAB
M  END
>  <Structure No>
7514

>  <LogS>
-2.82

>  <MMFF94 Energy>
-20.678

$$$$
Compound 7515
Actelion Java MolfileCreator 2.0

  0  0  0  0  0  0              0 V3000
M  V30 BEGIN CTAB
M  V30 COUNTS 108 114 0 0 0
M  V30 BEGIN ATOM
M  V30 1 O 0.7236 -5.1548 -1.6892 0
M  V30 2 C 0.764 -4.1709 -0.9046 0
M  V30 3 N -0.2493 -4.0279 0.1044 0
M  V30 4 C 1.8844 -3.1691 -1.031 0 CFG=2
M  V30 5 C -0.9177 -2.7314 0.3344 0 CFG=1
M  V30 6 C -0.5943 -5.2071 0.9049 0
M  V30 7 N 1.5839 -2.2885 -2.1668 0
M  V30 8 C 3.2686 -3.866 -1.2196 0 CFG=2
M  V30 9 C -2.2668 -2.701 -0.3557 0
M  V30 10 C -1.009 -2.5009 1.8542 0
M  V30 11 C -1.8037 -4.9641 1.8113 0
M  V30 12 C 1.4483 -0.8523 -2.1526 0
M  V30 13 C 3.6188 -4.7448 0.0112 0
M  V30 14 C 4.372 -2.8202 -1.4743 0
M  V30 15 O -2.4639 -3.4433 -1.3535 0
M  V30 16 N -3.3325 -1.8488 0.1016 0
M  V30 17 C -1.6807 -3.664 2.619 0
M  V30 18 O 1.0566 -0.2882 -3.2109 0
M  V30 19 C 1.807 0.0291 -0.9676 0 CFG=2
M  V30 20 C 4.8676 -5.6014 -0.1967 0
M  V30 21 C -3.1737 -0.3776 0.0753 0 CFG=1
M  V30 22 C -4.626 -2.4771 0.4213 0
M  V30 23 N 0.6905 0.9453 -0.701 0
M  V30 24 C 3.095 0.8126 -1.3147 0
M  V30 25 C -3.782 0.1994 -1.1988 0
M  V30 26 C -3.7862 0.2634 1.355 0
M  V30 27 C -5.5599 -1.5155 1.1602 0
M  V30 28 C 0.6939 1.8989 0.3721 0
M  V30 29 C 3.8328 1.3263 -0.1055 0
M  V30 30 O -4.5115 -0.5362 -1.9155 0
M  V30 31 N -3.5686 1.5586 -1.6282 0
M  V30 32 C -4.7496 -0.6516 2.1244 0
M  V30 33 O 1.2137 1.5882 1.4807 0
M  V30 34 C 0.0777 3.2733 0.2058 0 CFG=2
M  V30 35 C 4.4643 2.5489 0.0249 0
M  V30 36 C 4.1519 0.6219 1.0541 0
M  V30 37 C -2.7523 2.5707 -0.9407 0 CFG=1
M  V30 38 N -0.3634 3.4915 -1.1695 0
M  V30 39 C 1.1205 4.3733 0.4794 0
M  V30 40 C 5.0722 2.5565 1.2549 0
M  V30 41 C 4.5521 3.6405 -0.8419 0
M  V30 42 N 4.8887 1.3899 1.8913 0
M  V30 43 C -1.5367 2.9109 -1.7695 0
M  V30 44 C -3.5675 3.8629 -0.7392 0
M  V30 45 C 0.433 4.4855 -1.8631 0
M  V30 46 C 1.2055 5.2308 -0.7828 0
M  V30 47 C 5.7952 3.6553 1.7097 0
M  V30 48 C 5.2784 4.765 -0.4096 0
M  V30 49 O -1.5895 2.7948 -3.0248 0
M  V30 50 C -4.7397 3.653 0.1719 0
M  V30 51 C 5.8932 4.7758 0.8605 0
M  V30 52 N -5.9031 3.0973 -0.1983 0
M  V30 53 C -4.781 3.8896 1.5277 0
M  V30 54 C -6.6314 3.0216 0.9307 0
M  V30 55 N -5.9745 3.4904 2.011 0
M  V30 56 H 1.9291 -2.6172 -0.0813 0
M  V30 57 H -0.3224 -1.8984 -0.0945 0
M  V30 58 H -0.8257 -6.0566 0.2299 0
M  V30 59 H 0.28 -5.4895 1.5311 0
M  V30 60 H 1.4457 -2.7638 -3.0924 0
M  V30 61 H 3.2159 -4.5204 -2.118 0
M  V30 62 H -1.5268 -1.5473 2.0808 0
M  V30 63 H 0.0246 -2.3837 2.2397 0
M  V30 64 H -1.9247 -5.8227 2.5052 0
M  V30 65 H -2.7149 -4.9283 1.1811 0
M  V30 66 H 3.7661 -4.1038 0.9068 0
M  V30 67 H 2.7807 -5.4378 0.2297 0
M  V30 68 H 4.1331 -2.2132 -2.374 0
M  V30 69 H 5.3459 -3.3123 -1.6833 0
M  V30 70 H 4.4832 -2.1467 -0.5973 0
M  V30 71 H -1.1031 -3.8666 3.5448 0
M  V30 72 H -2.6952 -3.35 2.9439 0
M  V30 73 H 1.9796 -0.5676 -0.0596 0
M  V30 74 H 5.7752 -4.9735 -0.166 0
M  V30 75 H 4.8154 -6.1443 -1.1615 0
M  V30 76 H 4.9463 -6.3501 0.6169 0
M  V30 77 H -2.0892 -0.1325 0.0602 0
M  V30 78 H -4.4508 -3.3567 1.0741 0
M  V30 79 H -5.1133 -2.8407 -0.5064 0
M  V30 80 H -0.2331 0.7527 -1.1543 0
M  V30 81 H 3.8032 0.1629 -1.8717 0
M  V30 82 H 2.8266 1.6574 -1.9883 0
M  V30 83 H -2.9659 0.5702 2.0423 0
M  V30 84 H -4.3362 1.1827 1.0928 0
M  V30 85 H -6.0962 -0.8634 0.4361 0
M  V30 86 H -6.3201 -2.0974 1.7221 0
M  V30 87 H -4.0283 1.8446 -2.5234 0
M  V30 88 H -5.4367 -0.0305 2.7381 0
M  V30 89 H -4.1734 -1.3033 2.8167 0
M  V30 90 H -0.772 3.404 0.9144 0
M  V30 91 H 3.873 -0.4009 1.2747 0
M  V30 92 H -2.4278 2.2006 0.0491 0
M  V30 93 H 0.8086 4.9997 1.3458 0
M  V30 94 H 2.1228 3.9608 0.7138 0
M  V30 95 H 4.0723 3.634 -1.8152 0
M  V30 96 H 5.2543 1.1186 2.8318 0
M  V30 97 H -3.9371 4.2382 -1.7211 0
M  V30 98 H -2.9142 4.6545 -0.2997 0
M  V30 99 H 1.1223 3.9776 -2.5672 0
M  V30 100 H -0.2205 5.1902 -2.419 0
M  V30 101 H 0.7262 6.2186 -0.595 0
M  V30 102 H 2.262 5.3994 -1.0888 0
M  V30 103 H 6.2659 3.6487 2.6848 0
M  V30 104 H 5.369 5.6304 -1.0569 0
M  V30 105 H 6.4342 5.6509 1.1946 0
M  V30 106 H -6.1857 2.7763 -1.1499 0
M  V30 107 H -3.9813 4.2985 2.1339 0
M  V30 108 H -7.6331 2.6127 0.9746 0
M  V30 END ATOM
M  V30 BEGIN BOND
M  V30 1 2 1 2
M  V30 2 1 2 3
M  V30 3 1 2 4
M  V30 4 1 3 5
M  V30 5 1 3 6
M  V30 6 1 4 7
M  V30 7 1 4 8
M  V30 8 1 5 9
M  V30 9 1 5 10
M  V30 10 1 6 11
M  V30 11 1 7 12
M  V30 12 1 8 13
M  V30 13 1 8 14
M  V30 14 2 9 15
M  V30 15 1 9 16
M  V30 16 1 10 17
M  V30 17 2 12 18
M  V30 18 1 12 19
M  V30 19 1 13 20
M  V30 20 1 16 21
M  V30 21 1 16 22
M  V30 22 1 19 23
M  V30 23 1 19 24
M  V30 24 1 21 25
M  V30 25 1 21 26
M  V30 26 1 22 27
M  V30 27 1 23 28
M  V30 28 1 24 29
M  V30 29 2 25 30
M  V30 30 1 25 31
M  V30 31 1 26 32
M  V30 32 2 28 33
M  V30 33 1 28 34
M  V30 34 1 29 35
M  V30 35 2 29 36
M  V30 36 1 31 37
M  V30 37 1 34 38
M  V30 38 1 34 39
M  V30 39 2 35 40
M  V30 40 1 35 41
M  V30 41 1 36 42
M  V30 42 1 37 43
M  V30 43 1 37 44
M  V30 44 1 38 45
M  V30 45 1 39 46
M  V30 46 1 40 47
M  V30 47 2 41 48
M  V30 48 2 43 49
M  V30 49 1 44 50
M  V30 50 2 47 51
M  V30 51 1 50 52
M  V30 52 2 50 53
M  V30 53 1 52 54
M  V30 54 1 53 55
M  V30 55 1 11 17
M  V30 56 1 27 32
M  V30 57 1 38 43
M  V30 58 1 40 42
M  V30 59 1 45 46
M  V30 60 1 48 51
M  V30 61 2 54 55
M  V30 62 1 4 56
M  V30 63 1 5 57
M  V30 64 1 6 58
M  V30 65 1 6 59
M  V30 66 1 7 60
M  V30 67 1 8 61
M  V30 68 1 10 62
M  V30 69 1 10 63
M  V30 70 1 11 64
M  V30 71 1 11 65
M  V30 72 1 13 66
M  V30 73 1 13 67
M  V30 74 1 14 68
M  V30 75 1 14 69
M  V30 76 1 14 70
M  V30 77 1 17 71
M  V30 78 1 17 72
M  V30 79 1 19 73
M  V30 80 1 20 74
M  V30 81 1 20 75
M  V30 82 1 20 76
M  V30 83 1 21 77
M  V30 84 1 22 78
M  V30 85 1 22 79
M  V30 86 1 23 80
M  V30 87 1 24 81
M  V30 88 1 24 82
M  V30 89 1 26 83
M  V30 90 1 26 84
M  V30 91 1 27 85
M  V30 92 1 27 86
M  V30 93 1 31 87
M  V30 94 1 32 88
M  V30 95 1 32 89
M  V30 96 1 34 90
M  V30 97 1 36 91
M  V30 98 1 37 92
M  V30 99 1 39 93
M  V30 100 1 39 94
M  V30 101 1 41 95
M  V30 102 1 42 96
M  V30 103 1 44 97
M  V30 104 1 44 98
M  V30 105 1 45 99
M  V30 106 1 45 100
M  V30 107 1 46 101
M  V30 108 1 46 102
M  V30 109 1 47 103
M  V30 110 1 48 104
M  V30 111 1 51 105
M  V30 112 1 52 106
M  V30 113 1 53 107
M  V30 114 1 54 108
M  V30 END BOND
M  V30 BEGIN COLLECTION
M  V30 MDLV30/STEABS ATOMS=(7 4 5 8 19 21 34 37)
M  V30 END COLLECTION
M  V30 END CTAB
M  END
>  <Structure No>
7515

>  <LogS>
-2.58

>  <MMFF94 Energy>
154.24

$$$$
Compound 7516
Actelion Java MolfileCreator 2.0

  0  0  0  0  0  0              0 V3000
M  V30 BEGIN CTAB
M  V30 COUNTS 109 113 0 0 0
M  V30 BEGIN ATOM
M  V30 1 O 4.641 1.1986 0.8789 0
M  V30 2 C 3.4361 0.8613 0.7277 0
M  V30 3 N 2.9931 -0.403 1.2571 0
M  V30 4 C 2.4587 1.8521 0.1289 0 CFG=2
M  V30 5 C 3.4223 -1.6823 0.6592 0 CFG=1
M  V30 6 C 2.3776 -0.4229 2.58 0
M  V30 7 N 1.1184 1.2594 0.039 0
M  V30 8 C 2.9024 2.3128 -1.2808 0
M  V30 9 C 2.8426 -1.8527 -0.7237 0
M  V30 10 C 4.9613 -1.8153 0.6462 0
M  V30 11 C 0.0829 1.5225 0.9982 0
M  V30 12 C 3.9894 3.4057 -1.2878 0
M  V30 13 O 3.2392 -1.1193 -1.6728 0
M  V30 14 N 1.926 -2.9202 -0.9954 0
M  V30 15 C 5.4024 -3.1744 0.1556 0
M  V30 16 O -0.5017 0.5369 1.5173 0
M  V30 17 C -0.2247 2.9376 1.4766 0 CFG=2
M  V30 18 C 3.4483 4.7865 -0.8849 0
M  V30 19 C 0.6885 -3.1546 -0.2648 0 CFG=1
M  V30 20 C 2.2292 -3.9675 -1.9512 0
M  V30 21 C 5.2453 -4.3119 0.9668 0
M  V30 22 C 5.9295 -3.3228 -1.1396 0
M  V30 23 N -1.4977 3.1028 2.2083 0
M  V30 24 C -0.2388 3.9662 0.3403 0
M  V30 25 N 4.4762 5.8158 -1.0372 0 CHG=1
M  V30 26 C -0.4106 -2.2559 -0.7834 0
M  V30 27 C 0.3637 -4.6235 -0.536 0
M  V30 28 C 1.0705 -4.9574 -1.8467 0
M  V30 29 C 5.6028 -5.5762 0.4867 0
M  V30 30 C 6.2884 -4.5894 -1.612 0
M  V30 31 N -1.8448 4.3994 2.6264 0
M  V30 32 C -2.5668 2.1491 2.1789 0
M  V30 33 C -0.3585 5.3823 0.9301 0
M  V30 34 O -0.3142 -1.7398 -1.9301 0
M  V30 35 N -1.5776 -2.0174 0.0173 0
M  V30 36 C 6.1263 -5.7155 -0.8001 0
M  V30 37 C -1.3436 5.4637 2.0708 0
M  V30 38 O -2.967 1.6412 3.2615 0
M  V30 39 C -3.3014 1.867 0.8886 0 CFG=1
M  V30 40 C -2.6069 -1.0362 -0.3575 0 CFG=2
M  V30 41 N -4.0664 0.6166 0.9972 0
M  V30 42 C -4.209 3.0554 0.4693 0 CFG=2
M  V30 43 C -3.4833 -0.6855 0.8314 0
M  V30 44 C -3.465 -1.5347 -1.5444 0
M  V30 45 C -5.3161 3.3814 1.5079 0
M  V30 46 C -4.8104 2.7881 -0.9181 0
M  V30 47 O -3.828 -1.6021 1.627 0
M  V30 48 C -4.3703 -2.6957 -1.204 0
M  V30 49 C -5.8926 4.7861 1.321 0
M  V30 50 C -5.7273 -2.4692 -0.9247 0
M  V30 51 C -3.8673 -4.0043 -1.1376 0
M  V30 52 C -6.5678 -3.5352 -0.5882 0
M  V30 53 C -4.7084 -5.0664 -0.7942 0
M  V30 54 C -6.0583 -4.8325 -0.5238 0
M  V30 55 H 2.4266 2.7244 0.8119 0
M  V30 56 H 3.0449 -2.5183 1.2883 0
M  V30 57 H 1.9618 0.5762 2.8412 0
M  V30 58 H 1.5468 -1.1644 2.6047 0
M  V30 59 H 3.1412 -0.7023 3.3374 0
M  V30 60 H 0.9975 0.4219 -0.5745 0
M  V30 61 H 3.2793 1.4388 -1.8508 0
M  V30 62 H 2.0231 2.6878 -1.8469 0
M  V30 63 H 5.4093 -1.0257 0.0011 0
M  V30 64 H 5.351 -1.6595 1.6785 0
M  V30 65 H 4.8333 3.1264 -0.6242 0
M  V30 66 H 4.3952 3.4755 -2.3199 0
M  V30 67 H 0.593 3.2075 2.1796 0
M  V30 68 H 3.1131 4.7757 0.1733 0
M  V30 69 H 2.5709 5.0445 -1.5228 0
M  V30 70 H 0.824 -2.9839 0.8249 0
M  V30 71 H 2.2989 -3.5479 -2.978 0
M  V30 72 H 3.1902 -4.4554 -1.6731 0
M  V30 73 H 4.8237 -4.2176 1.9602 0
M  V30 74 H 6.0461 -2.4617 -1.7893 0
M  V30 75 H -1.1059 3.7652 -0.3308 0
M  V30 76 H 0.6804 3.9178 -0.2744 0
M  V30 77 H 5.3163 5.58 -0.4594 0
M  V30 78 H 4.0903 6.7288 -0.7085 0
M  V30 79 H 4.7413 5.9038 -2.0427 0
M  V30 80 H 0.7957 -5.2476 0.2769 0
M  V30 81 H -0.7275 -4.8304 -0.5982 0
M  V30 82 H 0.3654 -4.7993 -2.6925 0
M  V30 83 H 1.434 -6.0042 -1.8534 0
M  V30 84 H 5.4694 -6.446 1.116 0
M  V30 85 H 6.6942 -4.6994 -2.6073 0
M  V30 86 H 0.6328 5.7016 1.3089 0
M  V30 87 H -0.6666 6.0819 0.1245 0
M  V30 88 H -1.6096 -2.4752 0.9524 0
M  V30 89 H 6.3994 -6.6939 -1.1704 0
M  V30 90 H -1.6269 6.4389 2.4451 0
M  V30 91 H -2.5364 1.7733 0.0986 0
M  V30 92 H -2.0788 -0.1336 -0.7049 0
M  V30 93 H -4.945 0.6501 1.5626 0
M  V30 94 H -3.5517 3.9472 0.3664 0
M  V30 95 H -4.0718 -0.6801 -1.9214 0
M  V30 96 H -2.808 -1.8334 -2.3831 0
M  V30 97 H -4.9078 3.3277 2.5383 0
M  V30 98 H -6.1447 2.644 1.4427 0
M  V30 99 H -5.5402 1.9546 -0.8788 0
M  V30 100 H -5.3199 3.6928 -1.303 0
M  V30 101 H -4.0125 2.5253 -1.643 0
M  V30 102 H -6.44 4.8672 0.3599 0
M  V30 103 H -6.6063 5.0088 2.1421 0
M  V30 104 H -5.0812 5.5448 1.3518 0
M  V30 105 H -6.1364 -1.4674 -0.9623 0
M  V30 106 H -2.8275 -4.1992 -1.3631 0
M  V30 107 H -7.6145 -3.356 -0.3752 0
M  V30 108 H -4.3078 -6.0704 -0.7481 0
M  V30 109 H -6.7044 -5.662 -0.2614 0
M  V30 END ATOM
M  V30 BEGIN BOND
M  V30 1 2 1 2
M  V30 2 1 2 3
M  V30 3 1 2 4
M  V30 4 1 3 5
M  V30 5 1 3 6
M  V30 6 1 4 7
M  V30 7 1 4 8
M  V30 8 1 5 9
M  V30 9 1 5 10
M  V30 10 1 7 11
M  V30 11 1 8 12
M  V30 12 2 9 13
M  V30 13 1 9 14
M  V30 14 1 10 15
M  V30 15 2 11 16
M  V30 16 1 11 17
M  V30 17 1 12 18
M  V30 18 1 14 19
M  V30 19 1 14 20
M  V30 20 2 15 21
M  V30 21 1 15 22
M  V30 22 1 17 23
M  V30 23 1 17 24
M  V30 24 1 18 25
M  V30 25 1 19 26
M  V30 26 1 19 27
M  V30 27 1 20 28
M  V30 28 1 21 29
M  V30 29 2 22 30
M  V30 30 1 23 31
M  V30 31 1 23 32
M  V30 32 1 24 33
M  V30 33 2 26 34
M  V30 34 1 26 35
M  V30 35 2 29 36
M  V30 36 2 31 37
M  V30 37 2 32 38
M  V30 38 1 32 39
M  V30 39 1 35 40
M  V30 40 1 39 41
M  V30 41 1 39 42
M  V30 42 1 40 43
M  V30 43 1 40 44
M  V30 44 1 42 45
M  V30 45 1 42 46
M  V30 46 2 43 47
M  V30 47 1 44 48
M  V30 48 1 45 49
M  V30 49 2 48 50
M  V30 50 1 48 51
M  V30 51 1 50 52
M  V30 52 2 51 53
M  V30 53 2 52 54
M  V30 54 1 27 28
M  V30 55 1 30 36
M  V30 56 1 33 37
M  V30 57 1 41 43
M  V30 58 1 53 54
M  V30 59 1 4 55
M  V30 60 1 5 56
M  V30 61 1 6 57
M  V30 62 1 6 58
M  V30 63 1 6 59
M  V30 64 1 7 60
M  V30 65 1 8 61
M  V30 66 1 8 62
M  V30 67 1 10 63
M  V30 68 1 10 64
M  V30 69 1 12 65
M  V30 70 1 12 66
M  V30 71 1 17 67
M  V30 72 1 18 68
M  V30 73 1 18 69
M  V30 74 1 19 70
M  V30 75 1 20 71
M  V30 76 1 20 72
M  V30 77 1 21 73
M  V30 78 1 22 74
M  V30 79 1 24 75
M  V30 80 1 24 76
M  V30 81 1 25 77
M  V30 82 1 25 78
M  V30 83 1 25 79
M  V30 84 1 27 80
M  V30 85 1 27 81
M  V30 86 1 28 82
M  V30 87 1 28 83
M  V30 88 1 29 84
M  V30 89 1 30 85
M  V30 90 1 33 86
M  V30 91 1 33 87
M  V30 92 1 35 88
M  V30 93 1 36 89
M  V30 94 1 37 90
M  V30 95 1 39 91
M  V30 96 1 40 92
M  V30 97 1 41 93
M  V30 98 1 42 94
M  V30 99 1 44 95
M  V30 100 1 44 96
M  V30 101 1 45 97
M  V30 102 1 45 98
M  V30 103 1 46 99
M  V30 104 1 46 100
M  V30 105 1 46 101
M  V30 106 1 49 102
M  V30 107 1 49 103
M  V30 108 1 49 104
M  V30 109 1 50 105
M  V30 110 1 51 106
M  V30 111 1 52 107
M  V30 112 1 53 108
M  V30 113 1 54 109
M  V30 END BOND
M  V30 BEGIN COLLECTION
M  V30 MDLV30/STEABS ATOMS=(7 4 5 17 19 39 40 42)
M  V30 END COLLECTION
M  V30 END CTAB
M  END
>  <Structure No>
7516

>  <LogS>
-2.7

>  <MMFF94 Energy>
186.03

$$$$
Compound 7517
Actelion Java MolfileCreator 2.0

  0  0  0  0  0  0              0 V3000
M  V30 BEGIN CTAB
M  V30 COUNTS 110 116 0 0 0
M  V30 BEGIN ATOM
M  V30 1 O -0.3221 -4.3556 -1.3696 0
M  V30 2 C 0.2108 -3.3635 -0.8038 0
M  V30 3 N -0.1114 -3.1177 0.576 0
M  V30 4 C 1.2509 -2.509 -1.5234 0 CFG=1
M  V30 5 C -1.4662 -2.6574 0.9664 0 CFG=2
M  V30 6 C 0.6667 -3.9301 1.5328 0
M  V30 7 N 2.4669 -2.4721 -0.7027 0
M  V30 8 C 1.6218 -3.0375 -2.9538 0 CFG=1
M  V30 9 C -2.1229 -1.6974 -0.0273 0
M  V30 10 C -1.4447 -1.9896 2.3717 0
M  V30 11 C 0.0793 -3.9102 2.9464 0
M  V30 12 C 2.8151 -1.4673 0.2701 0
M  V30 13 C 0.4475 -3.1014 -3.9751 0
M  V30 14 C 2.7965 -2.2341 -3.5522 0
M  V30 15 O -1.4103 -1.0879 -0.8543 0
M  V30 16 N -3.5307 -1.3624 0.0767 0
M  V30 17 C -0.3316 -2.493 3.303 0
M  V30 18 O 3.7863 -1.7195 1.0372 0
M  V30 19 C 2.0458 -0.1577 0.4301 0 CFG=2
M  V30 20 C -0.2179 -1.7597 -4.2705 0
M  V30 21 C -4.1191 -0.086 -0.4234 0 CFG=2
M  V30 22 C -4.4534 -2.4478 0.471 0
M  V30 23 N 2.1978 0.6927 -0.7567 0
M  V30 24 C 2.4181 0.6212 1.7261 0
M  V30 25 C -3.146 1.0512 -0.7209 0
M  V30 26 C -5.1882 0.4408 0.5667 0
M  V30 27 C -5.9196 -1.9919 0.5093 0
M  V30 28 C 1.3917 1.8648 -0.9486 0
M  V30 29 C 3.8955 0.9393 1.8987 0
M  V30 30 O -3.2751 1.6919 -1.7955 0
M  V30 31 N -2.1787 1.4822 0.2516 0
M  V30 32 C -6.0114 -0.665 1.2544 0
M  V30 33 O 1.7246 2.9458 -0.3941 0
M  V30 34 C 0.1628 1.8093 -1.8175 0 CFG=1
M  V30 35 C 4.6006 0.3891 2.9846 0
M  V30 36 C 4.5728 1.7859 1.0012 0
M  V30 37 C -1.7747 2.8725 0.5133 0 CFG=1
M  V30 38 N -0.5623 3.0773 -1.8064 0
M  V30 39 C 0.5265 1.589 -3.2821 0
M  V30 40 C 5.9681 0.6527 3.1565 0
M  V30 41 C 5.9352 2.0468 1.1598 0
M  V30 42 C -1.2649 3.6608 -0.6893 0
M  V30 43 C -2.8889 3.6117 1.3016 0
M  V30 44 C -0.3773 3.8197 -3.0465 0
M  V30 45 C 0.5406 2.9731 -3.912 0
M  V30 46 C 6.6432 1.4848 2.232 0
M  V30 47 C 6.6761 0.0877 4.2271 0
M  V30 48 O -1.348 4.9213 -0.64 0
M  V30 49 C -4.2018 3.8042 0.5782 0
M  V30 50 C 8.0159 1.7303 2.3878 0
M  V30 51 C 8.0422 0.3518 4.3832 0
M  V30 52 N -5.4019 3.7032 1.1858 0
M  V30 53 C -4.419 4.3016 -0.6946 0
M  V30 54 C 8.7095 1.1679 3.4645 0
M  V30 55 C -6.307 4.0917 0.2675 0
M  V30 56 N -5.7442 4.4722 -0.8972 0
M  V30 57 H 0.8591 -1.4806 -1.6368 0
M  V30 58 H -2.0965 -3.5673 1.0297 0
M  V30 59 H 0.7111 -4.9878 1.1883 0
M  V30 60 H 1.705 -3.5513 1.5877 0
M  V30 61 H 3.0567 -3.3358 -0.7035 0
M  V30 62 H 1.9825 -4.084 -2.8379 0
M  V30 63 H -1.3243 -0.8896 2.2903 0
M  V30 64 H -2.4257 -2.164 2.8664 0
M  V30 65 H 0.8421 -4.2689 3.6735 0
M  V30 66 H -0.8019 -4.5854 3.0086 0
M  V30 67 H -0.3334 -3.8159 -3.6514 0
M  V30 68 H 0.8306 -3.5103 -4.9347 0
M  V30 69 H 2.5756 -1.1468 -3.5447 0
M  V30 70 H 3.7243 -2.4062 -2.9697 0
M  V30 71 H 2.9982 -2.552 -4.5981 0
M  V30 72 H 0.5563 -1.8248 3.2222 0
M  V30 73 H -0.6816 -2.4543 4.3588 0
M  V30 74 H 0.9708 -0.4242 0.5215 0
M  V30 75 H 0.521 -1.0359 -4.6686 0
M  V30 76 H -1.0038 -1.9033 -5.0414 0
M  V30 77 H -0.7053 -1.359 -3.3611 0
M  V30 78 H -4.6353 -0.3234 -1.3822 0
M  V30 79 H -4.1942 -2.8101 1.4878 0
M  V30 80 H -4.358 -3.2988 -0.2389 0
M  V30 81 H 2.8045 0.3825 -1.545 0
M  V30 82 H 2.0593 0.0206 2.5907 0
M  V30 83 H 1.8381 1.5635 1.7807 0
M  V30 84 H -4.7047 1.0414 1.3672 0
M  V30 85 H -5.8808 1.1109 0.0131 0
M  V30 86 H -6.3173 -1.8761 -0.5261 0
M  V30 87 H -6.5343 -2.7561 1.0329 0
M  V30 88 H -1.888 0.7911 0.9754 0
M  V30 89 H -7.0771 -0.352 1.3332 0
M  V30 90 H -5.6304 -0.8141 2.2958 0
M  V30 91 H -0.4773 0.9896 -1.4821 0
M  V30 92 H 4.0844 -0.2514 3.6944 0
M  V30 93 H 4.0597 2.2469 0.1694 0
M  V30 94 H -0.904 2.8275 1.2041 0
M  V30 95 H 1.4914 1.0604 -3.4364 0
M  V30 96 H -0.2851 1.0091 -3.7666 0
M  V30 97 H 6.4331 2.6966 0.452 0
M  V30 98 H -2.5221 4.6087 1.6278 0
M  V30 99 H -3.0875 3.033 2.2311 0
M  V30 100 H 0.0976 4.8012 -2.842 0
M  V30 101 H -1.3578 3.9746 -3.5412 0
M  V30 102 H 0.191 2.945 -4.9654 0
M  V30 103 H 1.5713 3.3846 -3.884 0
M  V30 104 H 6.1745 -0.5459 4.947 0
M  V30 105 H 8.5491 2.3695 1.6924 0
M  V30 106 H 8.583 -0.0806 5.2142 0
M  V30 107 H -5.5973 3.4069 2.1706 0
M  V30 108 H -3.6775 4.5556 -1.4334 0
M  V30 109 H 9.7657 1.3636 3.5838 0
M  V30 110 H -7.3749 4.1267 0.4528 0
M  V30 END ATOM
M  V30 BEGIN BOND
M  V30 1 2 1 2
M  V30 2 1 2 3
M  V30 3 1 2 4
M  V30 4 1 3 5
M  V30 5 1 3 6
M  V30 6 1 4 7
M  V30 7 1 4 8
M  V30 8 1 5 9
M  V30 9 1 5 10
M  V30 10 1 6 11
M  V30 11 1 7 12
M  V30 12 1 8 13
M  V30 13 1 8 14
M  V30 14 2 9 15
M  V30 15 1 9 16
M  V30 16 1 10 17
M  V30 17 2 12 18
M  V30 18 1 12 19
M  V30 19 1 13 20
M  V30 20 1 16 21
M  V30 21 1 16 22
M  V30 22 1 19 23
M  V30 23 1 19 24
M  V30 24 1 21 25
M  V30 25 1 21 26
M  V30 26 1 22 27
M  V30 27 1 23 28
M  V30 28 1 24 29
M  V30 29 2 25 30
M  V30 30 1 25 31
M  V30 31 1 26 32
M  V30 32 2 28 33
M  V30 33 1 28 34
M  V30 34 2 29 35
M  V30 35 1 29 36
M  V30 36 1 31 37
M  V30 37 1 34 38
M  V30 38 1 34 39
M  V30 39 1 35 40
M  V30 40 2 36 41
M  V30 41 1 37 42
M  V30 42 1 37 43
M  V30 43 1 38 44
M  V30 44 1 39 45
M  V30 45 1 40 46
M  V30 46 2 40 47
M  V30 47 2 42 48
M  V30 48 1 43 49
M  V30 49 2 46 50
M  V30 50 1 47 51
M  V30 51 1 49 52
M  V30 52 2 49 53
M  V30 53 1 50 54
M  V30 54 1 52 55
M  V30 55 1 53 56
M  V30 56 1 11 17
M  V30 57 1 27 32
M  V30 58 1 38 42
M  V30 59 1 41 46
M  V30 60 1 44 45
M  V30 61 2 51 54
M  V30 62 2 55 56
M  V30 63 1 4 57
M  V30 64 1 5 58
M  V30 65 1 6 59
M  V30 66 1 6 60
M  V30 67 1 7 61
M  V30 68 1 8 62
M  V30 69 1 10 63
M  V30 70 1 10 64
M  V30 71 1 11 65
M  V30 72 1 11 66
M  V30 73 1 13 67
M  V30 74 1 13 68
M  V30 75 1 14 69
M  V30 76 1 14 70
M  V30 77 1 14 71
M  V30 78 1 17 72
M  V30 79 1 17 73
M  V30 80 1 19 74
M  V30 81 1 20 75
M  V30 82 1 20 76
M  V30 83 1 20 77
M  V30 84 1 21 78
M  V30 85 1 22 79
M  V30 86 1 22 80
M  V30 87 1 23 81
M  V30 88 1 24 82
M  V30 89 1 24 83
M  V30 90 1 26 84
M  V30 91 1 26 85
M  V30 92 1 27 86
M  V30 93 1 27 87
M  V30 94 1 31 88
M  V30 95 1 32 89
M  V30 96 1 32 90
M  V30 97 1 34 91
M  V30 98 1 35 92
M  V30 99 1 36 93
M  V30 100 1 37 94
M  V30 101 1 39 95
M  V30 102 1 39 96
M  V30 103 1 41 97
M  V30 104 1 43 98
M  V30 105 1 43 99
M  V30 106 1 44 100
M  V30 107 1 44 101
M  V30 108 1 45 102
M  V30 109 1 45 103
M  V30 110 1 47 104
M  V30 111 1 50 105
M  V30 112 1 51 106
M  V30 113 1 52 107
M  V30 114 1 53 108
M  V30 115 1 54 109
M  V30 116 1 55 110
M  V30 END BOND
M  V30 BEGIN COLLECTION
M  V30 MDLV30/STEABS ATOMS=(7 4 5 8 19 21 34 37)
M  V30 END COLLECTION
M  V30 END CTAB
M  END
>  <Structure No>
7517

>  <LogS>
-3.98

>  <MMFF94 Energy>
160.46

$$$$
Compound 7518
Actelion Java MolfileCreator 2.0

  0  0  0  0  0  0              0 V3000
M  V30 BEGIN CTAB
M  V30 COUNTS 114 120 0 0 0
M  V30 BEGIN ATOM
M  V30 1 O -2.9718 1.5252 2.2483 0
M  V30 2 C -2.3839 2.0221 1.2462 0
M  V30 3 N -1.3133 2.9615 1.4687 0
M  V30 4 C -2.898 1.6537 -0.1333 0 CFG=2
M  V30 5 C 0.0809 2.5644 1.1844 0 CFG=1
M  V30 6 C -1.5588 4.0676 2.413 0
M  V30 7 N -1.8086 1.3984 -1.0845 0
M  V30 8 C -3.9683 2.6616 -0.6815 0 CFG=1
M  V30 9 C 0.7722 3.6257 0.3479 0
M  V30 10 C 0.8637 2.2927 2.5017 0
M  V30 11 C -0.6031 4.0126 3.6194 0
M  V30 12 C -1.3923 0.1113 -1.5936 0
M  V30 13 C -3.4454 3.8131 -1.5838 0
M  V30 14 C -5.0536 1.8947 -1.4575 0
M  V30 15 O 0.8547 4.8052 0.7892 0
M  V30 16 N 1.3682 3.3199 -0.9284 0
M  V30 17 C 0.0576 2.6384 3.7653 0
M  V30 18 O -0.5529 0.0925 -2.5336 0
M  V30 19 C -1.8838 -1.2273 -1.0709 0 CFG=1
M  V30 20 C -2.6136 4.8516 -0.8437 0
M  V30 21 C 2.1413 2.0823 -1.1507 0 CFG=2
M  V30 22 C 1.0743 4.1873 -2.0762 0
M  V30 23 N -1.8351 -1.2884 0.3966 0
M  V30 24 C -3.2823 -1.5805 -1.6136 0
M  V30 25 C 3.139 1.8494 -0.023 0
M  V30 26 C 2.8924 2.1629 -2.4968 0
M  V30 27 C 2.3633 4.5427 -2.8377 0
M  V30 28 C -0.6448 -1.5539 1.1538 0
M  V30 29 C -3.613 -3.0193 -1.3402 0
M  V30 30 O 3.6769 2.8614 0.5045 0
M  V30 31 N 3.5999 0.532 0.3756 0
M  V30 32 N 3.4209 3.517 -2.7244 0 CHG=1
M  V30 33 O -0.517 -1.026 2.2912 0
M  V30 34 C 0.3678 -2.5761 0.6868 0 CFG=1
M  V30 35 C -4.294 -3.5434 -0.2578 0
M  V30 36 C -3.1648 -4.1166 -2.067 0
M  V30 37 C 2.7893 -0.6952 0.1605 0 CFG=2
M  V30 38 C 4.9571 0.4609 0.939 0
M  V30 39 N 1.5728 -2.5315 1.509 0
M  V30 40 C -0.1788 -3.9873 0.8877 0
M  V30 41 C -4.2474 -4.9087 -0.3812 0
M  V30 42 C -4.9361 -2.9255 0.8161 0
M  V30 43 N -3.5602 -5.2679 -1.4786 0
M  V30 44 C 2.6103 -1.5334 1.4192 0
M  V30 45 C 3.3008 -1.5086 -1.0584 0
M  V30 46 C 1.6257 -3.6198 2.4725 0
M  V30 47 C 0.362 -4.4411 2.2389 0
M  V30 48 C -4.828 -5.749 0.5686 0
M  V30 49 C -5.5345 -3.749 1.7866 0
M  V30 50 O 3.372 -1.3657 2.4098 0
M  V30 51 C 4.6376 -2.176 -0.8573 0
M  V30 52 C -5.4811 -5.1544 1.6636 0
M  V30 53 C 5.8056 -1.6117 -1.4026 0
M  V30 54 C 4.7287 -3.3879 -0.1562 0
M  V30 55 C 7.0468 -2.2272 -1.2046 0
M  V30 56 C 5.9695 -3.9992 0.0449 0
M  V30 57 C 7.1286 -3.4162 -0.4745 0
M  V30 58 H -3.4446 0.716 0.035 0
M  V30 59 H 0.0796 1.613 0.6132 0
M  V30 60 H -1.4334 5.0387 1.8928 0
M  V30 61 H -2.6095 4.0458 2.7782 0
M  V30 62 H -1.2427 2.2175 -1.3956 0
M  V30 63 H -4.4949 3.1172 0.1873 0
M  V30 64 H 1.813 2.8768 2.5241 0
M  V30 65 H 1.1581 1.2179 2.5494 0
M  V30 66 H 0.1893 4.7846 3.5011 0
M  V30 67 H -1.1604 4.2517 4.5485 0
M  V30 68 H -4.3171 4.3595 -2.0072 0
M  V30 69 H -2.8739 3.4151 -2.449 0
M  V30 70 H -4.6115 1.3847 -2.3398 0
M  V30 71 H -5.5402 1.1381 -0.8032 0
M  V30 72 H -5.8516 2.5833 -1.8059 0
M  V30 73 H 0.7386 2.6432 4.6464 0
M  V30 74 H -0.7227 1.8653 3.9399 0
M  V30 75 H -1.2048 -2.003 -1.4852 0
M  V30 76 H -2.4656 5.7362 -1.4955 0
M  V30 77 H -3.1294 5.1765 0.0834 0
M  V30 78 H -1.6172 4.4435 -0.6092 0
M  V30 79 H 1.4196 1.2596 -1.2369 0
M  V30 80 H 0.3851 3.6467 -2.76 0
M  V30 81 H 0.5588 5.1235 -1.7651 0
M  V30 82 H -2.6939 -1.0793 0.9526 0
M  V30 83 H -4.0724 -0.9375 -1.1843 0
M  V30 84 H -3.2984 -1.422 -2.7128 0
M  V30 85 H 3.7305 1.4317 -2.5196 0
M  V30 86 H 2.2016 1.889 -3.3241 0
M  V30 87 H 2.1047 4.7058 -3.9096 0
M  V30 88 H 2.754 5.5091 -2.4479 0
M  V30 89 H 4.0735 3.7721 -1.9477 0
M  V30 90 H 3.9799 3.5123 -3.6091 0
M  V30 91 H 0.6157 -2.4262 -0.3791 0
M  V30 92 H -2.5627 -4.0733 -2.9651 0
M  V30 93 H 1.7579 -0.3974 -0.0802 0
M  V30 94 H 4.9962 1.0097 1.904 0
M  V30 95 H 5.679 0.9169 0.2308 0
M  V30 96 H 5.2858 -0.5794 1.127 0
M  V30 97 H 0.2328 -4.6495 0.0914 0
M  V30 98 H -1.2917 -4.0391 0.8489 0
M  V30 99 H -4.9834 -1.8476 0.9029 0
M  V30 100 H -3.357 -6.2391 -1.8058 0
M  V30 101 H 3.3513 -0.8322 -1.9384 0
M  V30 102 H 2.567 -2.2928 -1.3359 0
M  V30 103 H 1.651 -3.2168 3.5102 0
M  V30 104 H 2.5297 -4.2404 2.2916 0
M  V30 105 H 0.5767 -5.5297 2.2348 0
M  V30 106 H -0.3828 -4.2172 3.0318 0
M  V30 107 H -4.7807 -6.8251 0.4664 0
M  V30 108 H -6.041 -3.3016 2.6312 0
M  V30 109 H -5.9512 -5.7779 2.4148 0
M  V30 110 H 5.7592 -0.6861 -1.9615 0
M  V30 111 H 3.8392 -3.8565 0.2428 0
M  V30 112 H 7.9463 -1.7768 -1.6083 0
M  V30 113 H 6.0304 -4.927 0.5993 0
M  V30 114 H 8.0886 -3.8892 -0.3176 0
M  V30 END ATOM
M  V30 BEGIN BOND
M  V30 1 2 1 2
M  V30 2 1 2 3
M  V30 3 1 2 4
M  V30 4 1 3 5
M  V30 5 1 3 6
M  V30 6 1 4 7
M  V30 7 1 4 8
M  V30 8 1 5 9
M  V30 9 1 5 10
M  V30 10 1 6 11
M  V30 11 1 7 12
M  V30 12 1 8 13
M  V30 13 1 8 14
M  V30 14 2 9 15
M  V30 15 1 9 16
M  V30 16 1 10 17
M  V30 17 2 12 18
M  V30 18 1 12 19
M  V30 19 1 13 20
M  V30 20 1 16 21
M  V30 21 1 16 22
M  V30 22 1 19 23
M  V30 23 1 19 24
M  V30 24 1 21 25
M  V30 25 1 21 26
M  V30 26 1 22 27
M  V30 27 1 23 28
M  V30 28 1 24 29
M  V30 29 2 25 30
M  V30 30 1 25 31
M  V30 31 1 26 32
M  V30 32 2 28 33
M  V30 33 1 28 34
M  V30 34 1 29 35
M  V30 35 2 29 36
M  V30 36 1 31 37
M  V30 37 1 31 38
M  V30 38 1 34 39
M  V30 39 1 34 40
M  V30 40 2 35 41
M  V30 41 1 35 42
M  V30 42 1 36 43
M  V30 43 1 37 44
M  V30 44 1 37 45
M  V30 45 1 39 46
M  V30 46 1 40 47
M  V30 47 1 41 48
M  V30 48 2 42 49
M  V30 49 2 44 50
M  V30 50 1 45 51
M  V30 51 2 48 52
M  V30 52 2 51 53
M  V30 53 1 51 54
M  V30 54 1 53 55
M  V30 55 2 54 56
M  V30 56 2 55 57
M  V30 57 1 11 17
M  V30 58 1 27 32
M  V30 59 1 39 44
M  V30 60 1 41 43
M  V30 61 1 46 47
M  V30 62 1 49 52
M  V30 63 1 56 57
M  V30 64 1 4 58
M  V30 65 1 5 59
M  V30 66 1 6 60
M  V30 67 1 6 61
M  V30 68 1 7 62
M  V30 69 1 8 63
M  V30 70 1 10 64
M  V30 71 1 10 65
M  V30 72 1 11 66
M  V30 73 1 11 67
M  V30 74 1 13 68
M  V30 75 1 13 69
M  V30 76 1 14 70
M  V30 77 1 14 71
M  V30 78 1 14 72
M  V30 79 1 17 73
M  V30 80 1 17 74
M  V30 81 1 19 75
M  V30 82 1 20 76
M  V30 83 1 20 77
M  V30 84 1 20 78
M  V30 85 1 21 79
M  V30 86 1 22 80
M  V30 87 1 22 81
M  V30 88 1 23 82
M  V30 89 1 24 83
M  V30 90 1 24 84
M  V30 91 1 26 85
M  V30 92 1 26 86
M  V30 93 1 27 87
M  V30 94 1 27 88
M  V30 95 1 32 89
M  V30 96 1 32 90
M  V30 97 1 34 91
M  V30 98 1 36 92
M  V30 99 1 37 93
M  V30 100 1 38 94
M  V30 101 1 38 95
M  V30 102 1 38 96
M  V30 103 1 40 97
M  V30 104 1 40 98
M  V30 105 1 42 99
M  V30 106 1 43 100
M  V30 107 1 45 101
M  V30 108 1 45 102
M  V30 109 1 46 103
M  V30 110 1 46 104
M  V30 111 1 47 105
M  V30 112 1 47 106
M  V30 113 1 48 107
M  V30 114 1 49 108
M  V30 115 1 52 109
M  V30 116 1 53 110
M  V30 117 1 54 111
M  V30 118 1 55 112
M  V30 119 1 56 113
M  V30 120 1 57 114
M  V30 END BOND
M  V30 BEGIN COLLECTION
M  V30 MDLV30/STEABS ATOMS=(7 4 5 8 19 21 34 37)
M  V30 END COLLECTION
M  V30 END CTAB
M  END
>  <Structure No>
7518

>  <LogS>
-2.75

>  <MMFF94 Energy>
227.64

$$$$
Compound 7519
Actelion Java MolfileCreator 2.0

  0  0  0  0  0  0              0 V3000
M  V30 BEGIN CTAB
M  V30 COUNTS 105 111 0 0 0
M  V30 BEGIN ATOM
M  V30 1 O 0.2413 2.0934 1.6905 0
M  V30 2 C -0.3023 2.7462 0.7581 0
M  V30 3 N 0.3807 3.8767 0.2131 0
M  V30 4 C -1.585 2.2318 0.1497 0 CFG=2
M  V30 5 N -0.0693 5.1668 0.5593 0
M  V30 6 C 1.6562 3.6844 -0.4953 0 CFG=2
M  V30 7 N -1.2559 1.358 -0.986 0
M  V30 8 C -2.5808 3.3625 -0.2683 0 CFG=2
M  V30 9 C 0.5031 6.2511 0.1263 0
M  V30 10 C 2.7902 3.5301 0.4897 0
M  V30 11 C 1.9052 4.874 -1.4352 0
M  V30 12 C -1.9152 0.1172 -1.2993 0
M  V30 13 C -4.0425 2.8484 -0.2266 0
M  V30 14 C -2.2653 3.9691 -1.6543 0
M  V30 15 C 1.7575 6.2122 -0.7014 0
M  V30 16 O 2.7417 4.1472 1.5879 0
M  V30 17 N 3.9626 2.7629 0.1593 0
M  V30 18 O -1.7531 -0.369 -2.4511 0
M  V30 19 C -2.7957 -0.6075 -0.297 0 CFG=2
M  V30 20 C -5.0826 3.9641 -0.3367 0
M  V30 21 C 3.8514 1.3348 -0.2114 0 CFG=2
M  V30 22 C 5.2826 3.3271 0.4699 0
M  V30 23 N -2.0133 -1.123 0.8385 0
M  V30 24 C -3.7104 -1.6756 -0.9364 0
M  V30 25 C 3.2191 0.557 0.9181 0
M  V30 26 C 5.2375 0.7525 -0.5729 0
M  V30 27 C 6.2539 3.0919 -0.694 0
M  V30 28 C -1.0393 -2.1858 0.8361 0
M  V30 29 C -4.5832 -2.397 0.0625 0
M  V30 30 O 3.4291 0.9122 2.1111 0
M  V30 31 N 2.3317 -0.5448 0.6635 0
M  V30 32 C 6.0421 1.7472 -1.4093 0
M  V30 33 O -0.5135 -2.5098 1.934 0
M  V30 34 C -0.646 -2.9592 -0.3997 0 CFG=1
M  V30 35 C -5.1678 -3.6418 -0.0987 0
M  V30 36 C -5.0906 -1.911 1.2703 0
M  V30 37 C 2.8182 -1.8209 0.1292 0 CFG=2
M  V30 38 N 0.769 -3.308 -0.3412 0
M  V30 39 C -1.3952 -4.293 -0.4803 0
M  V30 40 C -5.9685 -3.8559 0.9969 0
M  V30 41 C -5.0831 -4.566 -1.1364 0
M  V30 42 N -5.9264 -2.8086 1.8413 0
M  V30 43 C 1.7817 -2.4015 -0.8051 0
M  V30 44 C 3.1833 -2.7845 1.2775 0
M  V30 45 C 0.9827 -4.7457 -0.3237 0
M  V30 46 C -0.3865 -5.3654 -0.089 0
M  V30 47 C -6.7294 -5.0178 1.1326 0
M  V30 48 C -5.8281 -5.7552 -1.017 0
M  V30 49 O 1.764 -2.0262 -2.0129 0
M  V30 50 C 4.2574 -2.2226 2.1624 0
M  V30 51 C -6.6572 -5.9733 0.1047 0
M  V30 52 N 4.0609 -1.7656 3.41 0
M  V30 53 C 5.5803 -2.0469 1.8321 0
M  V30 54 C 5.2636 -1.3142 3.8119 0
M  V30 55 N 6.2191 -1.4684 2.8715 0
M  V30 56 H -2.0548 1.6398 0.9577 0
M  V30 57 H 1.5809 2.7733 -1.1244 0
M  V30 58 H -0.6192 1.7386 -1.7098 0
M  V30 59 H -2.5078 4.1741 0.4892 0
M  V30 60 H 0.1233 7.2107 0.4523 0
M  V30 61 H 1.1701 4.8329 -2.265 0
M  V30 62 H 2.9185 4.8071 -1.8865 0
M  V30 63 H -4.2278 2.3345 0.7411 0
M  V30 64 H -4.2172 2.1136 -1.0418 0
M  V30 65 H -2.4734 3.2405 -2.4643 0
M  V30 66 H -2.8863 4.8675 -1.8296 0
M  V30 67 H -1.2139 4.2927 -1.7251 0
M  V30 68 H 1.7354 7.0418 -1.4393 0
M  V30 69 H 2.6331 6.3746 -0.0354 0
M  V30 70 H -3.4956 0.1483 0.0999 0
M  V30 71 H -4.8804 4.7613 0.4098 0
M  V30 72 H -6.0968 3.5473 -0.1417 0
M  V30 73 H -5.0851 4.3987 -1.3591 0
M  V30 74 H 3.2049 1.2412 -1.1108 0
M  V30 75 H 5.2117 4.4205 0.6627 0
M  V30 76 H 5.6749 2.844 1.395 0
M  V30 77 H -2.1549 -0.6345 1.7577 0
M  V30 78 H -3.1151 -2.4154 -1.5032 0
M  V30 79 H -4.38 -1.1764 -1.6693 0
M  V30 80 H 5.1228 -0.1714 -1.1706 0
M  V30 81 H 5.8153 0.51 0.3473 0
M  V30 82 H 7.2886 3.1458 -0.3012 0
M  V30 83 H 6.1333 3.9102 -1.4355 0
M  V30 84 H 1.4521 -0.5742 1.2299 0
M  V30 85 H 7.026 1.3009 -1.6597 0
M  V30 86 H 5.5014 1.9177 -2.3628 0
M  V30 87 H -0.8344 -2.3673 -1.3159 0
M  V30 88 H -4.8851 -0.934 1.6984 0
M  V30 89 H 3.7266 -1.6551 -0.4765 0
M  V30 90 H -1.7193 -4.4642 -1.5314 0
M  V30 91 H -2.2922 -4.328 0.1772 0
M  V30 92 H -4.4485 -4.3972 -1.9929 0
M  V30 93 H -6.4474 -2.697 2.7427 0
M  V30 94 H 3.5636 -3.7362 0.8416 0
M  V30 95 H 2.2778 -3.0068 1.8866 0
M  V30 96 H 1.3939 -5.0746 -1.3006 0
M  V30 97 H 1.675 -5.0304 0.4896 0
M  V30 98 H -0.507 -5.607 0.9917 0
M  V30 99 H -0.5246 -6.2903 -0.6917 0
M  V30 100 H -7.3566 -5.1795 2.0005 0
M  V30 101 H -5.7874 -6.4928 -1.8049 0
M  V30 102 H -7.2365 -6.8888 0.1775 0
M  V30 103 H 3.1702 -1.7502 3.9534 0
M  V30 104 H 6.0491 -2.3118 0.8953 0
M  V30 105 H 5.4434 -0.8625 4.7794 0
M  V30 END ATOM
M  V30 BEGIN BOND
M  V30 1 2 1 2
M  V30 2 1 2 3
M  V30 3 1 2 4
M  V30 4 1 3 5
M  V30 5 1 3 6
M  V30 6 1 4 7
M  V30 7 1 4 8
M  V30 8 2 5 9
M  V30 9 1 6 10
M  V30 10 1 6 11
M  V30 11 1 7 12
M  V30 12 1 8 13
M  V30 13 1 8 14
M  V30 14 1 9 15
M  V30 15 2 10 16
M  V30 16 1 10 17
M  V30 17 2 12 18
M  V30 18 1 12 19
M  V30 19 1 13 20
M  V30 20 1 17 21
M  V30 21 1 17 22
M  V30 22 1 19 23
M  V30 23 1 19 24
M  V30 24 1 21 25
M  V30 25 1 21 26
M  V30 26 1 22 27
M  V30 27 1 23 28
M  V30 28 1 24 29
M  V30 29 2 25 30
M  V30 30 1 25 31
M  V30 31 1 26 32
M  V30 32 2 28 33
M  V30 33 1 28 34
M  V30 34 1 29 35
M  V30 35 2 29 36
M  V30 36 1 31 37
M  V30 37 1 34 38
M  V30 38 1 34 39
M  V30 39 2 35 40
M  V30 40 1 35 41
M  V30 41 1 36 42
M  V30 42 1 37 43
M  V30 43 1 37 44
M  V30 44 1 38 45
M  V30 45 1 39 46
M  V30 46 1 40 47
M  V30 47 2 41 48
M  V30 48 2 43 49
M  V30 49 1 44 50
M  V30 50 2 47 51
M  V30 51 1 50 52
M  V30 52 2 50 53
M  V30 53 1 52 54
M  V30 54 1 53 55
M  V30 55 1 11 15
M  V30 56 1 27 32
M  V30 57 1 38 43
M  V30 58 1 40 42
M  V30 59 1 45 46
M  V30 60 1 48 51
M  V30 61 2 54 55
M  V30 62 1 4 56
M  V30 63 1 6 57
M  V30 64 1 7 58
M  V30 65 1 8 59
M  V30 66 1 9 60
M  V30 67 1 11 61
M  V30 68 1 11 62
M  V30 69 1 13 63
M  V30 70 1 13 64
M  V30 71 1 14 65
M  V30 72 1 14 66
M  V30 73 1 14 67
M  V30 74 1 15 68
M  V30 75 1 15 69
M  V30 76 1 19 70
M  V30 77 1 20 71
M  V30 78 1 20 72
M  V30 79 1 20 73
M  V30 80 1 21 74
M  V30 81 1 22 75
M  V30 82 1 22 76
M  V30 83 1 23 77
M  V30 84 1 24 78
M  V30 85 1 24 79
M  V30 86 1 26 80
M  V30 87 1 26 81
M  V30 88 1 27 82
M  V30 89 1 27 83
M  V30 90 1 31 84
M  V30 91 1 32 85
M  V30 92 1 32 86
M  V30 93 1 34 87
M  V30 94 1 36 88
M  V30 95 1 37 89
M  V30 96 1 39 90
M  V30 97 1 39 91
M  V30 98 1 41 92
M  V30 99 1 42 93
M  V30 100 1 44 94
M  V30 101 1 44 95
M  V30 102 1 45 96
M  V30 103 1 45 97
M  V30 104 1 46 98
M  V30 105 1 46 99
M  V30 106 1 47 100
M  V30 107 1 48 101
M  V30 108 1 51 102
M  V30 109 1 52 103
M  V30 110 1 53 104
M  V30 111 1 54 105
M  V30 END BOND
M  V30 BEGIN COLLECTION
M  V30 MDLV30/STEABS ATOMS=(7 4 6 8 19 21 34 37)
M  V30 END COLLECTION
M  V30 END CTAB
M  END
>  <Structure No>
7519

>  <LogS>
-2.6

>  <MMFF94 Energy>
192.89

$$$$
Compound 7520
Actelion Java MolfileCreator 2.0

  0  0  0  0  0  0              0 V3000
M  V30 BEGIN CTAB
M  V30 COUNTS 104 109 0 0 0
M  V30 BEGIN ATOM
M  V30 1 O -0.4828 -1.288 -0.6438 0
M  V30 2 C -1.5652 -1.839 -0.3229 0
M  V30 3 N -1.7077 -3.2489 -0.5492 0
M  V30 4 C -2.6851 -0.9601 0.1872 0 CFG=2
M  V30 5 N -2.5306 -3.658 -1.6177 0
M  V30 6 C -0.9162 -4.255 0.192 0 CFG=2
M  V30 7 N -2.1674 -0.125 1.2835 0
M  V30 8 C -3.9731 -1.7236 0.6335 0 CFG=2
M  V30 9 C -2.5181 -4.8675 -2.0944 0
M  V30 10 C 0.2064 -3.654 1.0191 0
M  V30 11 C -0.4286 -5.3269 -0.7909 0
M  V30 12 C -2.3881 1.2879 1.4227 0
M  V30 13 C -5.1955 -0.7784 0.7614 0
M  V30 14 C -3.7789 -2.4794 1.9608 0
M  V30 15 C -1.629 -5.9353 -1.5205 0
M  V30 16 O -0.0904 -2.9441 2.0145 0
M  V30 17 N 1.5848 -3.9608 0.7656 0
M  V30 18 O -2.5037 1.7668 2.5843 0
M  V30 19 C -2.378 2.2168 0.2299 0 CFG=2
M  V30 20 C -5.7233 -0.2844 -0.5879 0
M  V30 21 N 2.1574 -5.0378 1.4668 0
M  V30 22 C 2.3698 -3.1968 -0.2153 0 CFG=1
M  V30 23 N -1.028 2.325 -0.3467 0
M  V30 24 C -2.9939 3.5976 0.5406 0
M  V30 25 C 3.3061 -5.5545 1.1499 0
M  V30 26 C 3.1072 -2.0442 0.4546 0
M  V30 27 C 3.3133 -4.166 -0.9535 0
M  V30 28 C 0.0881 3.0362 0.2221 0
M  V30 29 C -3.0803 4.4602 -0.6938 0
M  V30 30 C 4.1387 -5.0165 0.0223 0
M  V30 31 O 4.3648 -1.9742 0.4186 0
M  V30 32 N 2.3852 -1.0407 1.1829 0
M  V30 33 O 0.7535 3.8079 -0.5203 0
M  V30 34 C 0.5422 2.834 1.6511 0 CFG=1
M  V30 35 C -2.1429 5.4823 -0.9193 0
M  V30 36 C -4.0829 4.2239 -1.6499 0
M  V30 37 C 1.9873 0.2648 0.6007 0 CFG=1
M  V30 38 C 2.2961 -1.216 2.6362 0
M  V30 39 N 1.988 2.6142 1.7062 0
M  V30 40 C 0.3018 4.0937 2.4907 0
M  V30 41 C -2.2117 6.2567 -2.0815 0
M  V30 42 C -4.1474 5.0012 -2.8105 0
M  V30 43 C 2.6786 1.4049 1.3233 0
M  V30 44 C 2.1492 0.3749 -0.9486 0
M  V30 45 C 2.6946 3.7113 2.3488 0
M  V30 46 C 1.6535 4.7865 2.6107 0
M  V30 47 C -3.2121 6.0161 -3.0266 0
M  V30 48 O 3.9128 1.3002 1.5659 0
M  V30 49 C 3.5367 0.7134 -1.4535 0
M  V30 50 C 4.3307 -0.2653 -2.0753 0
M  V30 51 C 4.0124 2.0367 -1.3933 0
M  V30 52 C 5.5983 0.0582 -2.5674 0
M  V30 53 C 5.2809 2.3565 -1.885 0
M  V30 54 C 6.0762 1.3668 -2.466 0
M  V30 55 H -2.9449 -0.3387 -0.6852 0
M  V30 56 H -1.5975 -4.7615 0.9099 0
M  V30 57 H -1.7566 -0.6158 2.1096 0
M  V30 58 H -4.2313 -2.4807 -0.136 0
M  V30 59 H -3.1953 -5.1248 -2.898 0
M  V30 60 H 0.2548 -4.8689 -1.5385 0
M  V30 61 H 0.1157 -6.1315 -0.2496 0
M  V30 62 H -4.9496 0.0957 1.4016 0
M  V30 63 H -6.0286 -1.3237 1.2582 0
M  V30 64 H -3.7316 -1.7728 2.8173 0
M  V30 65 H -2.85 -3.0791 1.9504 0
M  V30 66 H -4.6313 -3.1718 2.1304 0
M  V30 67 H -1.2656 -6.5917 -2.3399 0
M  V30 68 H -2.2234 -6.5548 -0.8143 0
M  V30 69 H -3.0433 1.7801 -0.5388 0
M  V30 70 H -6.6874 0.2439 -0.4337 0
M  V30 71 H -5.0208 0.4317 -1.0577 0
M  V30 72 H -5.8982 -1.1378 -1.2761 0
M  V30 73 H 1.6849 -2.7719 -0.9767 0
M  V30 74 H -0.9408 2.0696 -1.3573 0
M  V30 75 H -2.4233 4.112 1.3354 0
M  V30 76 H -4.0215 3.4534 0.9421 0
M  V30 77 H 3.7019 -6.3628 1.7499 0
M  V30 78 H 2.7016 -4.8479 -1.5829 0
M  V30 79 H 3.9906 -3.6138 -1.639 0
M  V30 80 H 4.5879 -5.8677 -0.5313 0
M  V30 81 H 4.9713 -4.4198 0.45 0
M  V30 82 H 0.0278 1.9757 2.1235 0
M  V30 83 H -1.3605 5.6809 -0.1979 0
M  V30 84 H -4.8119 3.4372 -1.4965 0
M  V30 85 H 0.9002 0.3521 0.7905 0
M  V30 86 H 1.3932 -0.7041 3.0335 0
M  V30 87 H 2.2397 -2.2911 2.9054 0
M  V30 88 H 3.1989 -0.7912 3.1222 0
M  V30 89 H -0.0507 3.7991 3.5045 0
M  V30 90 H -0.4387 4.79 2.0478 0
M  V30 91 H -1.4877 7.0426 -2.2506 0
M  V30 92 H -4.9222 4.8157 -3.5427 0
M  V30 93 H 1.7914 -0.5503 -1.4374 0
M  V30 94 H 1.462 1.1646 -1.317 0
M  V30 95 H 3.4967 4.097 1.6828 0
M  V30 96 H 3.1359 3.3616 3.3077 0
M  V30 97 H 1.7845 5.2436 3.615 0
M  V30 98 H 1.7349 5.5803 1.8354 0
M  V30 99 H -3.2631 6.6161 -3.9263 0
M  V30 100 H 3.9645 -1.2751 -2.1928 0
M  V30 101 H 3.4009 2.8213 -0.9675 0
M  V30 102 H 6.2054 -0.7037 -3.0367 0
M  V30 103 H 5.6438 3.3738 -1.8227 0
M  V30 104 H 7.0562 1.6169 -2.8512 0
M  V30 END ATOM
M  V30 BEGIN BOND
M  V30 1 2 1 2
M  V30 2 1 2 3
M  V30 3 1 2 4
M  V30 4 1 3 5
M  V30 5 1 3 6
M  V30 6 1 4 7
M  V30 7 1 4 8
M  V30 8 2 5 9
M  V30 9 1 6 10
M  V30 10 1 6 11
M  V30 11 1 7 12
M  V30 12 1 8 13
M  V30 13 1 8 14
M  V30 14 1 9 15
M  V30 15 2 10 16
M  V30 16 1 10 17
M  V30 17 2 12 18
M  V30 18 1 12 19
M  V30 19 1 13 20
M  V30 20 1 17 21
M  V30 21 1 17 22
M  V30 22 1 19 23
M  V30 23 1 19 24
M  V30 24 2 21 25
M  V30 25 1 22 26
M  V30 26 1 22 27
M  V30 27 1 23 28
M  V30 28 1 24 29
M  V30 29 1 25 30
M  V30 30 2 26 31
M  V30 31 1 26 32
M  V30 32 2 28 33
M  V30 33 1 28 34
M  V30 34 2 29 35
M  V30 35 1 29 36
M  V30 36 1 32 37
M  V30 37 1 32 38
M  V30 38 1 34 39
M  V30 39 1 34 40
M  V30 40 1 35 41
M  V30 41 2 36 42
M  V30 42 1 37 43
M  V30 43 1 37 44
M  V30 44 1 39 45
M  V30 45 1 40 46
M  V30 46 2 41 47
M  V30 47 2 43 48
M  V30 48 1 44 49
M  V30 49 2 49 50
M  V30 50 1 49 51
M  V30 51 1 50 52
M  V30 52 2 51 53
M  V30 53 2 52 54
M  V30 54 1 11 15
M  V30 55 1 27 30
M  V30 56 1 39 43
M  V30 57 1 42 47
M  V30 58 1 45 46
M  V30 59 1 53 54
M  V30 60 1 4 55
M  V30 61 1 6 56
M  V30 62 1 7 57
M  V30 63 1 8 58
M  V30 64 1 9 59
M  V30 65 1 11 60
M  V30 66 1 11 61
M  V30 67 1 13 62
M  V30 68 1 13 63
M  V30 69 1 14 64
M  V30 70 1 14 65
M  V30 71 1 14 66
M  V30 72 1 15 67
M  V30 73 1 15 68
M  V30 74 1 19 69
M  V30 75 1 20 70
M  V30 76 1 20 71
M  V30 77 1 20 72
M  V30 78 1 22 73
M  V30 79 1 23 74
M  V30 80 1 24 75
M  V30 81 1 24 76
M  V30 82 1 25 77
M  V30 83 1 27 78
M  V30 84 1 27 79
M  V30 85 1 30 80
M  V30 86 1 30 81
M  V30 87 1 34 82
M  V30 88 1 35 83
M  V30 89 1 36 84
M  V30 90 1 37 85
M  V30 91 1 38 86
M  V30 92 1 38 87
M  V30 93 1 38 88
M  V30 94 1 40 89
M  V30 95 1 40 90
M  V30 96 1 41 91
M  V30 97 1 42 92
M  V30 98 1 44 93
M  V30 99 1 44 94
M  V30 100 1 45 95
M  V30 101 1 45 96
M  V30 102 1 46 97
M  V30 103 1 46 98
M  V30 104 1 47 99
M  V30 105 1 50 100
M  V30 106 1 51 101
M  V30 107 1 52 102
M  V30 108 1 53 103
M  V30 109 1 54 104
M  V30 END BOND
M  V30 BEGIN COLLECTION
M  V30 MDLV30/STEABS ATOMS=(7 4 6 8 19 22 34 37)
M  V30 END COLLECTION
M  V30 END CTAB
M  END
>  <Structure No>
7520

>  <LogS>
-4.04

>  <MMFF94 Energy>
252.09

$$$$
Compound 7521
Actelion Java MolfileCreator 2.0

  0  0  0  0  0  0              0 V3000
M  V30 BEGIN CTAB
M  V30 COUNTS 38 37 0 0 0
M  V30 BEGIN ATOM
M  V30 1 C 0.6188 -0.7736 -1.3929 0
M  V30 2 C 0.1593 0.4247 -0.5435 0
M  V30 3 C 2.0672 -0.607 -1.9007 0
M  V30 4 C -1.1991 0.1876 0.1353 0
M  V30 5 C 3.0911 -1.4787 -1.1485 0
M  V30 6 C -2.3698 0.2002 -0.8626 0
M  V30 7 C 3.2753 -1.1204 0.3356 0
M  V30 8 C -3.7298 -0.0138 -0.1788 0
M  V30 9 C 3.9529 0.2429 0.5368 0
M  V30 10 C -4.2032 1.2226 0.5997 0
M  V30 11 C 4.1916 0.523 2.0175 0
M  V30 12 C -5.6109 1.0174 1.1521 0
M  V30 13 H -0.0486 -0.855 -2.2771 0
M  V30 14 H 0.5112 -1.7178 -0.8153 0
M  V30 15 H 0.1086 1.3366 -1.1779 0
M  V30 16 H 0.9045 0.6206 0.2543 0
M  V30 17 H 2.0954 -0.9238 -2.9664 0
M  V30 18 H 2.3805 0.4585 -1.8969 0
M  V30 19 H -1.3443 0.9977 0.8801 0
M  V30 20 H -1.1798 -0.7773 0.6874 0
M  V30 21 H 4.0732 -1.4015 -1.664 0
M  V30 22 H 2.776 -2.5427 -1.2204 0
M  V30 23 H -2.3788 1.1572 -1.429 0
M  V30 24 H -2.2323 -0.6233 -1.5941 0
M  V30 25 H 2.2998 -1.1513 0.8645 0
M  V30 26 H 3.9169 -1.9041 0.7948 0
M  V30 27 H -4.4776 -0.2445 -0.9692 0
M  V30 28 H -3.677 -0.893 0.5002 0
M  V30 29 H 3.3184 1.0552 0.1262 0
M  V30 30 H 4.9296 0.2582 0.0064 0
M  V30 31 H -3.5205 1.4244 1.4514 0
M  V30 32 H -4.2073 2.1108 -0.0686 0
M  V30 33 H 4.6793 1.5135 2.1348 0
M  V30 34 H 4.8544 -0.2529 2.456 0
M  V30 35 H 3.2263 0.5351 2.5674 0
M  V30 36 H -5.9242 1.9207 1.7169 0
M  V30 37 H -5.6325 0.1442 1.8383 0
M  V30 38 H -6.3311 0.8507 0.323 0
M  V30 END ATOM
M  V30 BEGIN BOND
M  V30 1 1 1 2
M  V30 2 1 1 3
M  V30 3 1 2 4
M  V30 4 1 3 5
M  V30 5 1 4 6
M  V30 6 1 5 7
M  V30 7 1 6 8
M  V30 8 1 7 9
M  V30 9 1 8 10
M  V30 10 1 9 11
M  V30 11 1 10 12
M  V30 12 1 1 13
M  V30 13 1 1 14
M  V30 14 1 2 15
M  V30 15 1 2 16
M  V30 16 1 3 17
M  V30 17 1 3 18
M  V30 18 1 4 19
M  V30 19 1 4 20
M  V30 20 1 5 21
M  V30 21 1 5 22
M  V30 22 1 6 23
M  V30 23 1 6 24
M  V30 24 1 7 25
M  V30 25 1 7 26
M  V30 26 1 8 27
M  V30 27 1 8 28
M  V30 28 1 9 29
M  V30 29 1 9 30
M  V30 30 1 10 31
M  V30 31 1 10 32
M  V30 32 1 11 33
M  V30 33 1 11 34
M  V30 34 1 11 35
M  V30 35 1 12 36
M  V30 36 1 12 37
M  V30 37 1 12 38
M  V30 END BOND
M  V30 END CTAB
M  END
>  <Structure No>
7521

>  <LogS>
-6.41

>  <MMFF94 Energy>
-5.8497

$$$$
Compound 7522
Actelion Java MolfileCreator 2.0

  0  0  0  0  0  0              0 V3000
M  V30 BEGIN CTAB
M  V30 COUNTS 44 43 0 0 0
M  V30 BEGIN ATOM
M  V30 1 C 0.8524 0.3873 -0.0774 0
M  V30 2 C -0.4859 0.3966 -0.8261 0
M  V30 3 C 2.0255 0.5979 -1.047 0
M  V30 4 C -1.6583 0.178 0.1378 0
M  V30 5 C 3.378 0.7172 -0.3256 0
M  V30 6 C -2.9964 0.1887 -0.6109 0
M  V30 7 C 3.9007 -0.6398 0.176 0
M  V30 8 C -4.1691 -0.0311 0.3524 0
M  V30 9 C 5.2091 -0.5172 0.9785 0
M  V30 10 C -5.5089 -0.0098 -0.3982 0
M  V30 11 C 6.4144 0.0113 0.1803 0
M  V30 12 C -6.7006 -0.3477 0.5108 0
M  V30 13 C 6.797 -0.8893 -0.9933 0
M  V30 14 C -7.0132 0.7626 1.5136 0
M  V30 15 H 0.964 -0.5867 0.4435 0
M  V30 16 H 0.8513 1.1986 0.6834 0
M  V30 17 H -0.4839 -0.4102 -1.592 0
M  V30 18 H -0.6126 1.3738 -1.3424 0
M  V30 19 H 2.0627 -0.2331 -1.7853 0
M  V30 20 H 1.8545 1.5408 -1.6118 0
M  V30 21 H -1.5335 -0.7997 0.6534 0
M  V30 22 H -1.6593 0.9844 0.9043 0
M  V30 23 H 3.2938 1.4329 0.5213 0
M  V30 24 H 4.1046 1.1366 -1.0528 0
M  V30 25 H -2.9942 -0.6168 -1.3782 0
M  V30 26 H -3.1224 1.1668 -1.1257 0
M  V30 27 H 4.0367 -1.3356 -0.6785 0
M  V30 28 H 3.1472 -1.0973 0.8502 0
M  V30 29 H -4.046 -1.0122 0.862 0
M  V30 30 H -4.1585 0.7718 1.1203 0
M  V30 31 H 5.0373 0.1547 1.8475 0
M  V30 32 H 5.4652 -1.5178 1.3905 0
M  V30 33 H -5.4757 -0.7653 -1.2137 0
M  V30 34 H -5.6645 0.9862 -0.8679 0
M  V30 35 H 6.2235 1.0423 -0.1836 0
M  V30 36 H 7.2842 0.0691 0.8702 0
M  V30 37 H -6.5101 -1.2984 1.0548 0
M  V30 38 H -7.597 -0.501 -0.1284 0
M  V30 39 H 6.0286 -0.838 -1.7925 0
M  V30 40 H 7.7618 -0.5459 -1.4225 0
M  V30 41 H 6.914 -1.9409 -0.6554 0
M  V30 42 H -6.1977 0.8605 2.2596 0
M  V30 43 H -7.9495 0.5157 2.0569 0
M  V30 44 H -7.1547 1.7318 0.9894 0
M  V30 END ATOM
M  V30 BEGIN BOND
M  V30 1 1 1 2
M  V30 2 1 1 3
M  V30 3 1 2 4
M  V30 4 1 3 5
M  V30 5 1 4 6
M  V30 6 1 5 7
M  V30 7 1 6 8
M  V30 8 1 7 9
M  V30 9 1 8 10
M  V30 10 1 9 11
M  V30 11 1 10 12
M  V30 12 1 11 13
M  V30 13 1 12 14
M  V30 14 1 1 15
M  V30 15 1 1 16
M  V30 16 1 2 17
M  V30 17 1 2 18
M  V30 18 1 3 19
M  V30 19 1 3 20
M  V30 20 1 4 21
M  V30 21 1 4 22
M  V30 22 1 5 23
M  V30 23 1 5 24
M  V30 24 1 6 25
M  V30 25 1 6 26
M  V30 26 1 7 27
M  V30 27 1 7 28
M  V30 28 1 8 29
M  V30 29 1 8 30
M  V30 30 1 9 31
M  V30 31 1 9 32
M  V30 32 1 10 33
M  V30 33 1 10 34
M  V30 34 1 11 35
M  V30 35 1 11 36
M  V30 36 1 12 37
M  V30 37 1 12 38
M  V30 38 1 13 39
M  V30 39 1 13 40
M  V30 40 1 13 41
M  V30 41 1 14 42
M  V30 42 1 14 43
M  V30 43 1 14 44
M  V30 END BOND
M  V30 END CTAB
M  END
>  <Structure No>
7522

>  <LogS>
-7.456

>  <MMFF94 Energy>
-5.2958

$$$$
Compound 7523
Actelion Java MolfileCreator 2.0

  0  0  0  0  0  0              0 V3000
M  V30 BEGIN CTAB
M  V30 COUNTS 13 12 0 0 0
M  V30 BEGIN ATOM
M  V30 1 O 0.0754 -0.83 0.2263 0
M  V30 2 C 1.4764 -0.8982 0.259 0
M  V30 3 C -0.6708 0.3509 -0.0601 0
M  V30 4 C 2.2682 0.1487 0.0223 0
M  V30 5 C -2.1577 0.0385 -0.0041 0
M  V30 6 H 1.9345 -1.8514 0.4886 0
M  V30 7 H -0.436 1.1365 0.6906 0
M  V30 8 H -0.4151 0.7211 -1.0765 0
M  V30 9 H 3.343 0.029 0.0632 0
M  V30 10 H 1.8702 1.1262 -0.2121 0
M  V30 11 H -2.7425 0.9559 -0.2267 0
M  V30 12 H -2.41 -0.741 -0.7538 0
M  V30 13 H -2.431 -0.3267 1.0084 0
M  V30 END ATOM
M  V30 BEGIN BOND
M  V30 1 1 1 2
M  V30 2 1 1 3
M  V30 3 2 2 4
M  V30 4 1 3 5
M  V30 5 1 2 6
M  V30 6 1 3 7
M  V30 7 1 3 8
M  V30 8 1 4 9
M  V30 9 1 4 10
M  V30 10 1 5 11
M  V30 11 1 5 12
M  V30 12 1 5 13
M  V30 END BOND
M  V30 END CTAB
M  END
>  <Structure No>
7523

>  <LogS>
-0.858

>  <MMFF94 Energy>
5.1603

$$$$
Compound 7524
Actelion Java MolfileCreator 2.0

  0  0  0  0  0  0              0 V3000
M  V30 BEGIN CTAB
M  V30 COUNTS 20 19 0 0 0
M  V30 BEGIN ATOM
M  V30 1 Cl 3.5955 0.6245 -0.5464 0
M  V30 2 C 2.1052 0.0338 0.232 0
M  V30 3 C 0.8845 0.417 -0.6265 0
M  V30 4 N -0.4375 -0.0215 -0.0832 0 CHG=1
M  V30 5 C -0.7065 0.5917 1.2399 0
M  V30 6 C -0.5105 -1.4985 0.0286 0
M  V30 7 C -1.491 0.4264 -1.0267 0
M  V30 8 H 2.0508 0.4969 1.2375 0
M  V30 9 H 2.1972 -1.066 0.3319 0
M  V30 10 H 0.8939 1.5247 -0.7499 0
M  V30 11 H 1.0382 -0.0152 -1.6421 0
M  V30 12 H -0.0369 0.1812 2.0256 0
M  V30 13 H -1.7489 0.3852 1.572 0
M  V30 14 H -0.57 1.6957 1.2038 0
M  V30 15 H 0.1564 -1.882 0.83 0
M  V30 16 H -1.5414 -1.8292 0.2888 0
M  V30 17 H -0.2249 -1.9864 -0.9297 0
M  V30 18 H -2.5048 0.1279 -0.6755 0
M  V30 19 H -1.3403 -0.0185 -2.0361 0
M  V30 20 H -1.4859 1.5345 -1.1362 0
M  V30 END ATOM
M  V30 BEGIN BOND
M  V30 1 1 1 2
M  V30 2 1 2 3
M  V30 3 1 3 4
M  V30 4 1 4 5
M  V30 5 1 4 6
M  V30 6 1 4 7
M  V30 7 1 2 8
M  V30 8 1 2 9
M  V30 9 1 3 10
M  V30 10 1 3 11
M  V30 11 1 5 12
M  V30 12 1 5 13
M  V30 13 1 5 14
M  V30 14 1 6 15
M  V30 15 1 6 16
M  V30 16 1 6 17
M  V30 17 1 7 18
M  V30 18 1 7 19
M  V30 19 1 7 20
M  V30 END BOND
M  V30 END CTAB
M  END
>  <Structure No>
7524

>  <LogS>
0.799

>  <MMFF94 Energy>
38.53

$$$$
Compound 7525
Actelion Java MolfileCreator 2.0

  0  0  0  0  0  0              0 V3000
M  V30 BEGIN CTAB
M  V30 COUNTS 28 28 0 0 0
M  V30 BEGIN ATOM
M  V30 1 S 3.9517 -0.3221 1.1278 0
M  V30 2 C 2.193 -0.178 0.7778 0
M  V30 3 C 4.4447 0.4463 -0.4455 0
M  V30 4 N 1.5576 0.9499 1.1757 0
M  V30 5 N 1.4911 -1.1619 0.1333 0
M  V30 6 N 0.2598 1.1283 0.9491 0
M  V30 7 N 2.1306 -2.3492 -0.2844 0
M  V30 8 C 0.1531 -0.9895 -0.1074 0
M  V30 9 C -0.4943 0.1948 0.311 0
M  V30 10 O -0.4957 -1.8918 -0.7026 0
M  V30 11 C -1.9904 0.4652 0.079 0
M  V30 12 C -2.8451 -0.6054 0.7903 0
M  V30 13 C -2.3055 0.4732 -1.4321 0
M  V30 14 C -2.3915 1.8466 0.652 0
M  V30 15 H 4.0455 1.4804 -0.5059 0
M  V30 16 H 5.552 0.4843 -0.499 0
M  V30 17 H 4.0634 -0.1526 -1.2987 0
M  V30 18 H 1.6083 -3.1029 -0.7841 0
M  V30 19 H 3.1436 -2.5262 -0.1115 0
M  V30 20 H -3.9266 -0.3611 0.7084 0
M  V30 21 H -2.5806 -0.6585 1.8686 0
M  V30 22 H -2.703 -1.6109 0.3457 0
M  V30 23 H -2.1605 -0.5256 -1.8904 0
M  V30 24 H -3.3635 0.7644 -1.61 0
M  V30 25 H -1.6505 1.1996 -1.9602 0
M  V30 26 H -3.4725 2.0472 0.4868 0
M  V30 27 H -1.8147 2.6597 0.1599 0
M  V30 28 H -2.2004 1.8896 1.7465 0
M  V30 END ATOM
M  V30 BEGIN BOND
M  V30 1 1 1 2
M  V30 2 1 1 3
M  V30 3 2 2 4
M  V30 4 1 2 5
M  V30 5 1 4 6
M  V30 6 1 5 7
M  V30 7 1 5 8
M  V30 8 2 6 9
M  V30 9 2 8 10
M  V30 10 1 9 11
M  V30 11 1 11 12
M  V30 12 1 11 13
M  V30 13 1 11 14
M  V30 14 1 8 9
M  V30 15 1 3 15
M  V30 16 1 3 16
M  V30 17 1 3 17
M  V30 18 1 7 18
M  V30 19 1 7 19
M  V30 20 1 12 20
M  V30 21 1 12 21
M  V30 22 1 12 22
M  V30 23 1 13 23
M  V30 24 1 13 24
M  V30 25 1 13 25
M  V30 26 1 14 26
M  V30 27 1 14 27
M  V30 28 1 14 28
M  V30 END BOND
M  V30 END CTAB
M  END
>  <Structure No>
7525

>  <LogS>
-2.245

>  <MMFF94 Energy>
112.61

$$$$
Compound 7526
Actelion Java MolfileCreator 2.0

  0  0  0  0  0  0              0 V3000
M  V30 BEGIN CTAB
M  V30 COUNTS 36 37 0 0 0
M  V30 BEGIN ATOM
M  V30 1 Cl -1.6369 -2.2103 -1.6369 0
M  V30 2 C -3.1524 -1.387 -1.2918 0
M  V30 3 C -3.5199 -1.0422 0.0257 0
M  V30 4 C -4.0309 -1.1237 -2.3501 0
M  V30 5 O -2.672 -1.2811 1.1145 0
M  V30 6 C -4.7775 -0.4751 0.2652 0
M  V30 7 C -5.2747 -0.5333 -2.1039 0
M  V30 8 C -1.3715 -0.7695 1.2379 0
M  V30 9 C -5.6493 -0.2147 -0.7953 0
M  V30 10 Cl -6.3709 -0.2081 -3.4342 0
M  V30 11 C -0.5093 -1.349 2.1742 0
M  V30 12 C -0.9203 0.3197 0.4706 0
M  V30 13 C 0.7942 -0.8695 2.3285 0
M  V30 14 C 0.3832 0.7998 0.6246 0
M  V30 15 C 1.2552 0.2014 1.5545 0
M  V30 16 O 2.5774 0.6362 1.7434 0
M  V30 17 C 3.224 1.6673 0.9942 0 CFG=2
M  V30 18 C 3.4489 1.2219 -0.4216 0
M  V30 19 C 4.5625 1.9918 1.65 0
M  V30 20 O 3.3525 2.0569 -1.3623 0
M  V30 21 O 3.7978 -0.1067 -0.6815 0
M  V30 22 C 4.0139 -0.5978 -1.9984 0
M  V30 23 H -3.7519 -1.3887 -3.3622 0
M  V30 24 H -5.0732 -0.223 1.2757 0
M  V30 25 H -6.6146 0.2342 -0.5987 0
M  V30 26 H -0.8487 -2.1803 2.7791 0
M  V30 27 H -1.5759 0.8033 -0.2416 0
M  V30 28 H 1.4521 -1.3351 3.0514 0
M  V30 29 H 0.6986 1.6365 0.0178 0
M  V30 30 H 2.6004 2.5886 1.0133 0
M  V30 31 H 4.3955 2.3298 2.6948 0
M  V30 32 H 5.0767 2.8054 1.0947 0
M  V30 33 H 5.2156 1.0927 1.667 0
M  V30 34 H 4.8509 -0.0467 -2.4771 0
M  V30 35 H 4.2745 -1.6747 -1.9473 0
M  V30 36 H 3.0904 -0.4791 -2.604 0
M  V30 END ATOM
M  V30 BEGIN BOND
M  V30 1 1 1 2
M  V30 2 2 2 3
M  V30 3 1 2 4
M  V30 4 1 3 5
M  V30 5 1 3 6
M  V30 6 2 4 7
M  V30 7 1 5 8
M  V30 8 2 6 9
M  V30 9 1 7 10
M  V30 10 2 8 11
M  V30 11 1 8 12
M  V30 12 1 11 13
M  V30 13 2 12 14
M  V30 14 2 13 15
M  V30 15 1 15 16
M  V30 16 1 16 17
M  V30 17 1 17 18
M  V30 18 1 17 19
M  V30 19 2 18 20
M  V30 20 1 18 21
M  V30 21 1 21 22
M  V30 22 1 7 9
M  V30 23 1 14 15
M  V30 24 1 4 23
M  V30 25 1 6 24
M  V30 26 1 9 25
M  V30 27 1 11 26
M  V30 28 1 12 27
M  V30 29 1 13 28
M  V30 30 1 14 29
M  V30 31 1 17 30
M  V30 32 1 19 31
M  V30 33 1 19 32
M  V30 34 1 19 33
M  V30 35 1 22 34
M  V30 36 1 22 35
M  V30 37 1 22 36
M  V30 END BOND
M  V30 BEGIN COLLECTION
M  V30 MDLV30/STEABS ATOMS=(1 17)
M  V30 END COLLECTION
M  V30 END CTAB
M  END
>  <Structure No>
7526

>  <LogS>
-3.834

>  <MMFF94 Energy>
64.93

$$$$
Compound 7527
Actelion Java MolfileCreator 2.0

  0  0  0  0  0  0              0 V3000
M  V30 BEGIN CTAB
M  V30 COUNTS 46 48 0 0 0
M  V30 BEGIN ATOM
M  V30 1 Cl -0.4082 2.0424 2.0424 0
M  V30 2 C -1.9882 1.4375 1.5702 0
M  V30 3 Cl -3.2996 2.5957 1.3701 0
M  V30 4 C -2.1631 0.1224 1.382 0
M  V30 5 C -3.5028 -0.4658 0.9924 0 CFG=1
M  V30 6 C -3.8969 -0.3588 -0.4899 0
M  V30 7 C -3.53 -1.7286 0.1027 0 CFG=1
M  V30 8 C -2.9299 0.325 -1.4746 0
M  V30 9 C -5.3912 -0.1405 -0.749 0
M  V30 10 C -2.2026 -2.3445 -0.2404 0
M  V30 11 O -1.5346 -2.9071 0.6693 0
M  V30 12 O -1.7597 -2.3774 -1.5676 0
M  V30 13 C -0.4094 -2.6625 -1.9277 0
M  V30 14 C 0.4562 -1.4673 -1.6332 0
M  V30 15 C 1.0772 -1.3316 -0.3812 0
M  V30 16 C 0.5511 -0.4218 -2.5647 0
M  V30 17 C 1.795 -0.1738 -0.061 0
M  V30 18 C 1.2609 0.7388 -2.2491 0
M  V30 19 O 2.3616 -0.0682 1.2177 0
M  V30 20 C 1.8746 0.8691 -1.0006 0
M  V30 21 C 3.5081 0.6691 1.5447 0
M  V30 22 C 4.5689 0.842 0.6358 0
M  V30 23 C 3.6169 1.2033 2.8347 0
M  V30 24 C 5.7068 1.5634 1.012 0
M  V30 25 C 4.7556 1.9243 3.2078 0
M  V30 26 C 5.7983 2.1069 2.2962 0
M  V30 27 H -1.326 -0.5395 1.5722 0
M  V30 28 H -4.3383 -0.3892 1.7214 0
M  V30 29 H -4.3723 -2.4174 0.3276 0
M  V30 30 H -3.1575 1.4101 -1.5231 0
M  V30 31 H -3.0709 -0.1064 -2.487 0
M  V30 32 H -1.8667 0.2144 -1.1903 0
M  V30 33 H -5.6251 0.9414 -0.6667 0
M  V30 34 H -5.6431 -0.484 -1.7733 0
M  V30 35 H -6.0294 -0.6941 -0.0271 0
M  V30 36 H -0.372 -2.8924 -3.0141 0
M  V30 37 H -0.0445 -3.5649 -1.3896 0
M  V30 38 H 0.9957 -2.1209 0.3551 0
M  V30 39 H 0.0548 -0.4955 -3.5243 0
M  V30 40 H 1.3186 1.5479 -2.9656 0
M  V30 41 H 2.3836 1.7932 -0.7579 0
M  V30 42 H 4.5264 0.4031 -0.3524 0
M  V30 43 H 2.8143 1.063 3.5477 0
M  V30 44 H 6.5209 1.6951 0.3117 0
M  V30 45 H 4.8291 2.3396 4.2045 0
M  V30 46 H 6.6796 2.6638 2.5868 0
M  V30 END ATOM
M  V30 BEGIN BOND
M  V30 1 1 1 2
M  V30 2 1 2 3
M  V30 3 2 2 4
M  V30 4 1 4 5
M  V30 5 1 5 6
M  V30 6 1 5 7
M  V30 7 1 6 8
M  V30 8 1 6 9
M  V30 9 1 7 10
M  V30 10 2 10 11
M  V30 11 1 10 12
M  V30 12 1 12 13
M  V30 13 1 13 14
M  V30 14 2 14 15
M  V30 15 1 14 16
M  V30 16 1 15 17
M  V30 17 2 16 18
M  V30 18 1 17 19
M  V30 19 2 17 20
M  V30 20 1 19 21
M  V30 21 2 21 22
M  V30 22 1 21 23
M  V30 23 1 22 24
M  V30 24 2 23 25
M  V30 25 2 24 26
M  V30 26 1 6 7
M  V30 27 1 18 20
M  V30 28 1 25 26
M  V30 29 1 4 27
M  V30 30 1 5 28
M  V30 31 1 7 29
M  V30 32 1 8 30
M  V30 33 1 8 31
M  V30 34 1 8 32
M  V30 35 1 9 33
M  V30 36 1 9 34
M  V30 37 1 9 35
M  V30 38 1 13 36
M  V30 39 1 13 37
M  V30 40 1 15 38
M  V30 41 1 16 39
M  V30 42 1 18 40
M  V30 43 1 20 41
M  V30 44 1 22 42
M  V30 45 1 23 43
M  V30 46 1 24 44
M  V30 47 1 25 45
M  V30 48 1 26 46
M  V30 END BOND
M  V30 BEGIN COLLECTION
M  V30 MDLV30/STEABS ATOMS=(2 5 7)
M  V30 END COLLECTION
M  V30 END CTAB
M  END
>  <Structure No>
7527

>  <LogS>
-6.99

>  <MMFF94 Energy>
62.561

$$$$
Compound 7528
Actelion Java MolfileCreator 2.0

  0  0  0  0  0  0              0 V3000
M  V30 BEGIN CTAB
M  V30 COUNTS 40 41 0 0 0
M  V30 BEGIN ATOM
M  V30 1 S -2.1371 1.3969 0.9037 0
M  V30 2 O -2.4252 0.3157 1.9077 0
M  V30 3 O -2.8231 2.6651 1.3262 0
M  V30 4 N -0.4267 1.674 0.8783 0 CHG=-1
M  V30 5 C -2.7156 0.9248 -0.7042 0
M  V30 6 C 0.5176 0.6274 0.6444 0
M  V30 7 C -3.9397 0.2311 -0.9049 0
M  V30 8 C -1.8984 1.208 -1.8119 0
M  V30 9 O 0.1149 -0.551 0.4475 0
M  V30 10 N 1.9181 0.9383 0.6323 0
M  V30 11 C -4.8995 -0.0372 0.1897 0
M  V30 12 C -4.2731 -0.2053 -2.2008 0
M  V30 13 C -2.2574 0.7829 -3.091 0
M  V30 14 C 2.9629 -0.0134 0.3805 0
M  V30 15 O -5.5671 -1.1084 0.1861 0
M  V30 16 O -5.1074 0.9129 1.1938 0
M  V30 17 C -3.4376 0.0693 -3.2838 0
M  V30 18 N 4.2577 0.3953 0.4008 0
M  V30 19 N 2.6781 -1.3171 0.1225 0
M  V30 20 C -6.0164 0.7093 2.2686 0
M  V30 21 C 5.2636 -0.4895 0.169 0
M  V30 22 C 3.6771 -2.2027 -0.1229 0
M  V30 23 O 6.5992 -0.0802 0.1928 0
M  V30 24 N 4.9694 -1.7886 -0.0875 0
M  V30 25 C 3.3582 -3.6396 -0.3673 0
M  V30 26 C 6.9877 1.2631 0.4548 0
M  V30 27 H -0.9716 1.7523 -1.6886 0
M  V30 28 H 2.1954 1.9292 0.8146 0
M  V30 29 H -5.1973 -0.7411 -2.3807 0
M  V30 30 H -1.6147 1.0021 -3.9338 0
M  V30 31 H -3.7117 -0.2633 -4.2766 0
M  V30 32 H -5.9999 1.5978 2.9324 0
M  V30 33 H -7.0459 0.5723 1.8753 0
M  V30 34 H -5.7157 -0.1839 2.8558 0
M  V30 35 H 4.1252 -4.0947 -1.0287 0
M  V30 36 H 2.3656 -3.7337 -0.8563 0
M  V30 37 H 3.3411 -4.1835 0.5998 0
M  V30 38 H 6.6393 1.57 1.4639 0
M  V30 39 H 6.5574 1.9403 -0.3131 0
M  V30 40 H 8.0939 1.3362 0.4191 0
M  V30 END ATOM
M  V30 BEGIN BOND
M  V30 1 2 1 2
M  V30 2 2 1 3
M  V30 3 1 1 4
M  V30 4 1 1 5
M  V30 5 1 4 6
M  V30 6 2 5 7
M  V30 7 1 5 8
M  V30 8 2 6 9
M  V30 9 1 6 10
M  V30 10 1 7 11
M  V30 11 1 7 12
M  V30 12 2 8 13
M  V30 13 1 10 14
M  V30 14 2 11 15
M  V30 15 1 11 16
M  V30 16 2 12 17
M  V30 17 2 14 18
M  V30 18 1 14 19
M  V30 19 1 16 20
M  V30 20 1 18 21
M  V30 21 2 19 22
M  V30 22 1 21 23
M  V30 23 2 21 24
M  V30 24 1 22 25
M  V30 25 1 23 26
M  V30 26 1 13 17
M  V30 27 1 22 24
M  V30 28 1 8 27
M  V30 29 1 10 28
M  V30 30 1 12 29
M  V30 31 1 13 30
M  V30 32 1 17 31
M  V30 33 1 20 32
M  V30 34 1 20 33
M  V30 35 1 20 34
M  V30 36 1 25 35
M  V30 37 1 25 36
M  V30 38 1 25 37
M  V30 39 1 26 38
M  V30 40 1 26 39
M  V30 41 1 26 40
M  V30 END BOND
M  V30 END CTAB
M  END
>  <Structure No>
7528

>  <LogS>
-1.604

>  <MMFF94 Energy>
-149.11

$$$$
Compound 7529
Actelion Java MolfileCreator 2.0

  0  0  0  0  0  0              0 V3000
M  V30 BEGIN CTAB
M  V30 COUNTS 15 15 0 0 0
M  V30 BEGIN ATOM
M  V30 1 F 2.7618 -1.1365 -0.5681 0
M  V30 2 C 2.245 0.006 0.0177 0
M  V30 3 F 2.6698 0.0703 1.3315 0
M  V30 4 F 2.7349 1.1034 -0.6688 0
M  V30 5 C 0.7376 -0.0134 -0.0159 0
M  V30 6 C 0.0385 -1.2315 0.0694 0
M  V30 7 C 0.0096 1.1903 -0.0395 0
M  V30 8 C -1.3596 -1.2447 0.0849 0
M  V30 9 C -1.3886 1.1717 -0.0238 0
M  V30 10 C -2.0726 -0.0447 0.0342 0
M  V30 11 H 0.5726 -2.1714 0.1264 0
M  V30 12 H 0.521 2.1442 -0.0678 0
M  V30 13 H -1.8906 -2.1861 0.1425 0
M  V30 14 H -1.9419 2.1016 -0.0505 0
M  V30 15 H -3.1547 -0.0569 0.0485 0
M  V30 END ATOM
M  V30 BEGIN BOND
M  V30 1 1 1 2
M  V30 2 1 2 3
M  V30 3 1 2 4
M  V30 4 1 2 5
M  V30 5 2 5 6
M  V30 6 1 5 7
M  V30 7 1 6 8
M  V30 8 2 7 9
M  V30 9 2 8 10
M  V30 10 1 9 10
M  V30 11 1 6 11
M  V30 12 1 7 12
M  V30 13 1 8 13
M  V30 14 1 9 14
M  V30 15 1 10 15
M  V30 END BOND
M  V30 END CTAB
M  END
>  <Structure No>
7529

>  <LogS>
-2.511

>  <MMFF94 Energy>
42.537

$$$$
Compound 7530
Actelion Java MolfileCreator 2.0

  0  0  0  0  0  0              0 V3000
M  V30 BEGIN CTAB
M  V30 COUNTS 11 10 0 0 0
M  V30 BEGIN ATOM
M  V30 1 N -0.073 0.5848 -0.2192 0 CHG=1
M  V30 2 C -1.0499 -0.5046 -0.2801 0
M  V30 3 C 1.1255 0.1714 0.5138 0
M  V30 4 H -0.5047 1.4072 0.2632 0
M  V30 5 H 0.1966 0.8597 -1.1924 0
M  V30 6 H -1.9496 -0.1688 -0.8398 0
M  V30 7 H -1.3681 -0.8031 0.7428 0
M  V30 8 H -0.6216 -1.3858 -0.8061 0
M  V30 9 H 1.8515 1.0123 0.5474 0
M  V30 10 H 0.8684 -0.1081 1.5591 0
M  V30 11 H 1.6147 -0.6908 0.01 0
M  V30 END ATOM
M  V30 BEGIN BOND
M  V30 1 1 1 2
M  V30 2 1 1 3
M  V30 3 1 1 4
M  V30 4 1 1 5
M  V30 5 1 2 6
M  V30 6 1 2 7
M  V30 7 1 2 8
M  V30 8 1 3 9
M  V30 9 1 3 10
M  V30 10 1 3 11
M  V30 END BOND
M  V30 END CTAB
M  END
>  <Structure No>
7530

>  <LogS>
1.558

>  <MMFF94 Energy>
2.6786

$$$$
Compound 7531
Actelion Java MolfileCreator 2.0

  0  0  0  0  0  0              0 V3000
M  V30 BEGIN CTAB
M  V30 COUNTS 17 17 0 0 0
M  V30 BEGIN ATOM
M  V30 1 F 2.7677 -1.1735 -1.0896 0
M  V30 2 C 2.3332 -0.8789 0.1891 0
M  V30 3 F 3.2961 -0.1166 0.8278 0
M  V30 4 F 2.1784 -2.0589 0.8961 0
M  V30 5 C 1.0245 -0.1326 0.1094 0
M  V30 6 C -0.1888 -0.836 0.0145 0
M  V30 7 C 1.0083 1.2683 0.0352 0
M  V30 8 C -1.4167 -0.1567 -0.1062 0
M  V30 9 C -0.2002 1.9543 -0.0836 0
M  V30 10 N -2.6447 -0.9114 -0.187 0 CHG=1
M  V30 11 C -1.4091 1.2563 -0.1502 0
M  V30 12 O -3.7463 -0.3418 -0.3288 0
M  V30 13 O -2.6228 -2.2855 -0.1123 0 CHG=-1
M  V30 14 O -2.5902 1.9815 -0.2636 0 CHG=-1
M  V30 15 H -0.1739 -1.9183 0.0315 0
M  V30 16 H 1.9306 1.8345 0.0679 0
M  V30 17 H -0.198 3.0361 -0.1293 0
M  V30 END ATOM
M  V30 BEGIN BOND
M  V30 1 1 1 2
M  V30 2 1 2 3
M  V30 3 1 2 4
M  V30 4 1 2 5
M  V30 5 2 5 6
M  V30 6 1 5 7
M  V30 7 1 6 8
M  V30 8 2 7 9
M  V30 9 1 8 10
M  V30 10 2 8 11
M  V30 11 2 10 12
M  V30 12 1 10 13
M  V30 13 1 11 14
M  V30 14 1 9 11
M  V30 15 1 6 15
M  V30 16 1 7 16
M  V30 17 1 9 17
M  V30 END BOND
M  V30 END CTAB
M  END
>  <Structure No>
7531

>  <LogS>
-2.503

>  <MMFF94 Energy>
87.817

$$$$
Compound 7532
Actelion Java MolfileCreator 2.0

  0  0  0  0  0  0              0 V3000
M  V30 BEGIN CTAB
M  V30 COUNTS 7 6 0 0 0
M  V30 BEGIN ATOM
M  V30 1 Cl -0.9897 1.782 -0.1979 0
M  V30 2 C -0.5991 0.0474 -0.0482 0
M  V30 3 Cl -1.559 -0.626 1.2955 0
M  V30 4 Cl -1.0586 -0.7804 -1.5549 0
M  V30 5 C 0.8689 -0.1502 0.1965 0
M  V30 6 O 1.7123 0.6186 -0.3372 0
M  V30 7 O 1.3173 -1.235 0.9415 0 CHG=-1
M  V30 END ATOM
M  V30 BEGIN BOND
M  V30 1 1 1 2
M  V30 2 1 2 3
M  V30 3 1 2 4
M  V30 4 1 2 5
M  V30 5 2 5 6
M  V30 6 1 5 7
M  V30 END BOND
M  V30 END CTAB
M  END
>  <Structure No>
7532

>  <LogS>
0.519

>  <MMFF94 Energy>
124.22

$$$$
Compound 7533
Actelion Java MolfileCreator 2.0

  0  0  0  0  0  0              0 V3000
M  V30 BEGIN CTAB
M  V30 COUNTS 21 21 0 0 0
M  V30 BEGIN ATOM
M  V30 1 O -1.5773 -0.9461 -2.1298 0
M  V30 2 C -1.2555 -0.1009 -1.2502 0
M  V30 3 C 0.1177 -0.1351 -0.6715 0
M  V30 4 C -2.3028 0.8862 -0.8083 0
M  V30 5 C 0.4868 0.6822 0.4169 0
M  V30 6 C 1.0824 -1.0072 -1.214 0
M  V30 7 C -3.0483 0.3772 0.4216 0
M  V30 8 C 1.782 0.6278 0.9406 0
M  V30 9 C 2.3762 -1.0574 -0.6871 0
M  V30 10 C 2.7292 -0.2392 0.3918 0
M  V30 11 O 4.0154 -0.2809 0.9251 0
M  V30 12 H -1.8496 1.8782 -0.602 0
M  V30 13 H -3.0361 1.0365 -1.6304 0
M  V30 14 H -0.2165 1.3608 0.8775 0
M  V30 15 H 0.8399 -1.6507 -2.0502 0
M  V30 16 H -2.3489 0.2227 1.2699 0
M  V30 17 H -3.5573 -0.5829 0.1914 0
M  V30 18 H -3.8146 1.1211 0.7255 0
M  V30 19 H 2.0495 1.2609 1.7773 0
M  V30 20 H 3.1036 -1.7329 -1.119 0
M  V30 21 H 4.7246 -0.8994 0.5492 0
M  V30 END ATOM
M  V30 BEGIN BOND
M  V30 1 2 1 2
M  V30 2 1 2 3
M  V30 3 1 2 4
M  V30 4 2 3 5
M  V30 5 1 3 6
M  V30 6 1 4 7
M  V30 7 1 5 8
M  V30 8 2 6 9
M  V30 9 2 8 10
M  V30 10 1 10 11
M  V30 11 1 9 10
M  V30 12 1 4 12
M  V30 13 1 4 13
M  V30 14 1 5 14
M  V30 15 1 6 15
M  V30 16 1 7 16
M  V30 17 1 7 17
M  V30 18 1 7 18
M  V30 19 1 8 19
M  V30 20 1 9 20
M  V30 21 1 11 21
M  V30 END BOND
M  V30 END CTAB
M  END
>  <Structure No>
7533

>  <LogS>
-2.639

>  <MMFF94 Energy>
22.567

$$$$
Compound 7534
Actelion Java MolfileCreator 2.0

  0  0  0  0  0  0              0 V3000
M  V30 BEGIN CTAB
M  V30 COUNTS 49 49 0 0 0
M  V30 BEGIN ATOM
M  V30 1 O 4.0855 -0.7061 2.6698 0
M  V30 2 C 4.7746 -0.776 1.6175 0
M  V30 3 N 4.9916 0.326 0.758 0
M  V30 4 C 5.4195 -2.0145 1.1413 0
M  V30 5 C 5.7738 -0.0961 -0.3904 0
M  V30 6 C 4.3933 1.6535 0.9131 0
M  V30 7 C 6.1794 -1.5575 -0.114 0
M  V30 8 C 3.1737 1.8331 -1.0E-4 0
M  V30 9 C 2.0444 0.85 0.337 0
M  V30 10 C 0.8048 1.1199 -0.5234 0
M  V30 11 C -0.3171 0.1263 -0.1993 0
M  V30 12 C -1.5627 0.4058 -1.0528 0
M  V30 13 C -2.6621 -0.6499 -0.8595 0
M  V30 14 C -3.3024 -0.5908 0.5387 0
M  V30 15 C -4.5595 -1.4779 0.6433 0
M  V30 16 C -5.8866 -0.6984 0.5644 0
M  V30 17 C -6.2449 -0.2032 -0.8504 0
M  V30 18 C -5.8549 1.2568 -1.0813 0
M  V30 19 H 4.6453 -2.7686 0.884 0
M  V30 20 H 6.1141 -2.4144 1.9106 0
M  V30 21 H 6.6706 0.5505 -0.5013 0
M  V30 22 H 5.1541 -0.04 -1.3108 0
M  V30 23 H 5.1518 2.4237 0.6559 0
M  V30 24 H 4.0999 1.8229 1.972 0
M  V30 25 H 7.2749 -1.6151 0.0684 0
M  V30 26 H 5.9281 -2.2054 -0.9816 0
M  V30 27 H 3.4796 1.7062 -1.0609 0
M  V30 28 H 2.8007 2.8738 0.1216 0
M  V30 29 H 1.7757 0.9505 1.4119 0
M  V30 30 H 2.392 -0.1897 0.1529 0
M  V30 31 H 1.0777 1.0298 -1.5981 0
M  V30 32 H 0.4441 2.1554 -0.3357 0
M  V30 33 H -0.5752 0.2156 0.8775 0
M  V30 34 H 0.0412 -0.9082 -0.395 0
M  V30 35 H -1.9655 1.415 -0.8157 0
M  V30 36 H -1.2714 0.4039 -2.1262 0
M  V30 37 H -2.2429 -1.6648 -1.0355 0
M  V30 38 H -3.4369 -0.4779 -1.6343 0
M  V30 39 H -3.5373 0.4581 0.8204 0
M  V30 40 H -2.5579 -0.9616 1.2759 0
M  V30 41 H -4.5452 -2.292 -0.1144 0
M  V30 42 H -4.5374 -1.9813 1.6351 0
M  V30 43 H -5.8879 0.1381 1.2973 0
M  V30 44 H -6.691 -1.3944 0.8896 0
M  V30 45 H -7.3465 -0.278 -0.9833 0
M  V30 46 H -5.7846 -0.8478 -1.6292 0
M  V30 47 H -4.7619 1.4034 -0.9826 0
M  V30 48 H -6.1561 1.5615 -2.1056 0
M  V30 49 H -6.3762 1.9136 -0.3526 0
M  V30 END ATOM
M  V30 BEGIN BOND
M  V30 1 2 1 2
M  V30 2 1 2 3
M  V30 3 1 2 4
M  V30 4 1 3 5
M  V30 5 1 3 6
M  V30 6 1 4 7
M  V30 7 1 6 8
M  V30 8 1 8 9
M  V30 9 1 9 10
M  V30 10 1 10 11
M  V30 11 1 11 12
M  V30 12 1 12 13
M  V30 13 1 13 14
M  V30 14 1 14 15
M  V30 15 1 15 16
M  V30 16 1 16 17
M  V30 17 1 17 18
M  V30 18 1 5 7
M  V30 19 1 4 19
M  V30 20 1 4 20
M  V30 21 1 5 21
M  V30 22 1 5 22
M  V30 23 1 6 23
M  V30 24 1 6 24
M  V30 25 1 7 25
M  V30 26 1 7 26
M  V30 27 1 8 27
M  V30 28 1 8 28
M  V30 29 1 9 29
M  V30 30 1 9 30
M  V30 31 1 10 31
M  V30 32 1 10 32
M  V30 33 1 11 33
M  V30 34 1 11 34
M  V30 35 1 12 35
M  V30 36 1 12 36
M  V30 37 1 13 37
M  V30 38 1 13 38
M  V30 39 1 14 39
M  V30 40 1 14 40
M  V30 41 1 15 41
M  V30 42 1 15 42
M  V30 43 1 16 43
M  V30 44 1 16 44
M  V30 45 1 17 45
M  V30 46 1 17 46
M  V30 47 1 18 47
M  V30 48 1 18 48
M  V30 49 1 18 49
M  V30 END BOND
M  V30 END CTAB
M  END
>  <Structure No>
7534

>  <LogS>
-4.67

>  <MMFF94 Energy>
-18.462

$$$$
Compound 7535
Actelion Java MolfileCreator 2.0

  0  0  0  0  0  0              0 V3000
M  V30 BEGIN CTAB
M  V30 COUNTS 51 51 0 0 0
M  V30 BEGIN ATOM
M  V30 1 O -2.7718 -1.1872 1.3455 0
M  V30 2 C -3.8446 -0.5877 1.0685 0
M  V30 3 N -4.2893 -0.3637 -0.2563 0
M  V30 4 C -4.7769 -0.0668 2.0877 0
M  V30 5 C -5.573 0.3162 -0.2373 0
M  V30 6 C -3.6033 -0.809 -1.4709 0
M  V30 7 C -5.8335 0.6798 1.2451 0 CFG=1
M  V30 8 C -3.0088 0.3762 -2.2472 0
M  V30 9 C -7.2386 0.356 1.674 0
M  V30 10 C -2.0138 1.2197 -1.4314 0
M  V30 11 O -7.6663 -0.8283 1.6272 0
M  V30 12 O -8.0755 1.3685 2.1261 0 CHG=-1
M  V30 13 C -0.7025 0.4741 -1.1436 0
M  V30 14 C 0.2939 1.3844 -0.4096 0
M  V30 15 C 1.5637 0.6401 0.0341 0
M  V30 16 C 2.4959 0.308 -1.1439 0
M  V30 17 C 3.766 -0.4345 -0.6988 0
M  V30 18 C 4.744 0.4708 0.0713 0
M  V30 19 C 6.1198 -0.1836 0.2726 0
M  V30 20 C 6.0728 -1.3661 1.2515 0
M  V30 21 C 7.4728 -1.9072 1.527 0
M  V30 22 H -4.2502 0.6274 2.7774 0
M  V30 23 H -5.2073 -0.9175 2.6596 0
M  V30 24 H -5.5311 1.2364 -0.8585 0
M  V30 25 H -6.3515 -0.3643 -0.6462 0
M  V30 26 H -4.3325 -1.3348 -2.1241 0
M  V30 27 H -2.8091 -1.5443 -1.2243 0
M  V30 28 H -5.6666 1.7738 1.3693 0
M  V30 29 H -3.8375 1.0348 -2.5853 0
M  V30 30 H -2.5077 -0.0059 -3.163 0
M  V30 31 H -1.7807 2.1347 -2.019 0
M  V30 32 H -2.4829 1.55 -0.4794 0
M  V30 33 H -0.9081 -0.4162 -0.5141 0
M  V30 34 H -0.2639 0.1359 -2.1057 0
M  V30 35 H 0.5684 2.2467 -1.0562 0
M  V30 36 H -0.1989 1.7908 0.5012 0
M  V30 37 H 2.1013 1.2972 0.7496 0
M  V30 38 H 1.2857 -0.2909 0.5748 0
M  V30 39 H 1.96 -0.3496 -1.8598 0
M  V30 40 H 2.7734 1.2392 -1.6848 0
M  V30 41 H 4.2729 -0.8198 -1.6106 0
M  V30 42 H 3.4803 -1.3089 -0.0755 0
M  V30 43 H 4.8945 1.4121 -0.5011 0
M  V30 44 H 4.3202 0.741 1.0619 0
M  V30 45 H 6.8111 0.5891 0.6755 0
M  V30 46 H 6.525 -0.5189 -0.7072 0
M  V30 47 H 5.457 -2.1873 0.8274 0
M  V30 48 H 5.6179 -1.0422 2.2129 0
M  V30 49 H 8.1075 -1.1202 1.9874 0
M  V30 50 H 7.4082 -2.7657 2.2283 0
M  V30 51 H 7.9447 -2.2539 0.583 0
M  V30 END ATOM
M  V30 BEGIN BOND
M  V30 1 2 1 2
M  V30 2 1 2 3
M  V30 3 1 2 4
M  V30 4 1 3 5
M  V30 5 1 3 6
M  V30 6 1 4 7
M  V30 7 1 6 8
M  V30 8 1 7 9
M  V30 9 1 8 10
M  V30 10 2 9 11
M  V30 11 1 9 12
M  V30 12 1 10 13
M  V30 13 1 13 14
M  V30 14 1 14 15
M  V30 15 1 15 16
M  V30 16 1 16 17
M  V30 17 1 17 18
M  V30 18 1 18 19
M  V30 19 1 19 20
M  V30 20 1 20 21
M  V30 21 1 5 7
M  V30 22 1 4 22
M  V30 23 1 4 23
M  V30 24 1 5 24
M  V30 25 1 5 25
M  V30 26 1 6 26
M  V30 27 1 6 27
M  V30 28 1 7 28
M  V30 29 1 8 29
M  V30 30 1 8 30
M  V30 31 1 10 31
M  V30 32 1 10 32
M  V30 33 1 13 33
M  V30 34 1 13 34
M  V30 35 1 14 35
M  V30 36 1 14 36
M  V30 37 1 15 37
M  V30 38 1 15 38
M  V30 39 1 16 39
M  V30 40 1 16 40
M  V30 41 1 17 41
M  V30 42 1 17 42
M  V30 43 1 18 43
M  V30 44 1 18 44
M  V30 45 1 19 45
M  V30 46 1 19 46
M  V30 47 1 20 47
M  V30 48 1 20 48
M  V30 49 1 21 49
M  V30 50 1 21 50
M  V30 51 1 21 51
M  V30 END BOND
M  V30 BEGIN COLLECTION
M  V30 MDLV30/STEABS ATOMS=(1 7)
M  V30 END COLLECTION
M  V30 END CTAB
M  END
>  <Structure No>
7535

>  <LogS>
-3.223

>  <MMFF94 Energy>
-38.05

$$$$
Compound 7536
Actelion Java MolfileCreator 2.0

  0  0  0  0  0  0              0 V3000
M  V30 BEGIN CTAB
M  V30 COUNTS 18 18 0 0 0
M  V30 BEGIN ATOM
M  V30 1 O -1.1281 -2.4186 0.1611 0
M  V30 2 C -0.4862 -1.3344 0.17 0
M  V30 3 N -1.0876 -0.079 -0.0725 0
M  V30 4 C 0.9677 -1.2411 0.4099 0
M  V30 5 C -0.0845 0.9689 -0.0361 0
M  V30 6 C -2.4894 0.122 -0.4195 0
M  V30 7 C 1.2162 0.2832 0.4509 0 CFG=2
M  V30 8 C 2.4147 0.6882 -0.3629 0
M  V30 9 O 2.4566 0.4572 -1.6008 0
M  V30 10 O 3.4867 1.3228 0.2515 0 CHG=-1
M  V30 11 H 1.5091 -1.7414 -0.4221 0
M  V30 12 H 1.234 -1.7172 1.3781 0
M  V30 13 H -0.3949 1.7686 0.6709 0
M  V30 14 H 0.0253 1.4028 -1.0542 0
M  V30 15 H -2.7349 -0.4562 -1.3348 0
M  V30 16 H -2.6902 1.1977 -0.6093 0
M  V30 17 H -3.1331 -0.2216 0.4169 0
M  V30 18 H 1.3889 0.5789 1.5104 0
M  V30 END ATOM
M  V30 BEGIN BOND
M  V30 1 2 1 2
M  V30 2 1 2 3
M  V30 3 1 2 4
M  V30 4 1 3 5
M  V30 5 1 3 6
M  V30 6 1 4 7
M  V30 7 1 7 8
M  V30 8 2 8 9
M  V30 9 1 8 10
M  V30 10 1 5 7
M  V30 11 1 4 11
M  V30 12 1 4 12
M  V30 13 1 5 13
M  V30 14 1 5 14
M  V30 15 1 6 15
M  V30 16 1 6 16
M  V30 17 1 6 17
M  V30 18 1 7 18
M  V30 END BOND
M  V30 BEGIN COLLECTION
M  V30 MDLV30/STEABS ATOMS=(1 7)
M  V30 END COLLECTION
M  V30 END CTAB
M  END
>  <Structure No>
7536

>  <LogS>
-0.954

>  <MMFF94 Energy>
-35.088

$$$$
Compound 7537
Actelion Java MolfileCreator 2.0

  0  0  0  0  0  0              0 V3000
M  V30 BEGIN CTAB
M  V30 COUNTS 22 22 0 0 0
M  V30 BEGIN ATOM
M  V30 1 O -2.7831 -1.9873 0.0 0
M  V30 2 C -1.8504 -1.1451 -0.0888 0
M  V30 3 N -2.0152 0.2247 0.2162 0
M  V30 4 C -0.4725 -1.4836 -0.4976 0
M  V30 5 C -0.7547 0.9257 0.0573 0
M  V30 6 C -3.2438 0.8252 0.7222 0
M  V30 7 C 0.2174 -0.1031 -0.5715 0 CFG=1
M  V30 8 C 1.5632 -0.1015 0.1001 0
M  V30 9 O 1.6589 -0.3744 1.3289 0
M  V30 10 O 2.7025 0.2051 -0.6495 0
M  V30 11 C 4.0077 0.227 -0.0848 0
M  V30 12 H -0.0169 -2.1506 0.2661 0
M  V30 13 H -0.473 -1.9854 -1.4891 0
M  V30 14 H -0.8883 1.8008 -0.6148 0
M  V30 15 H -0.4065 1.2788 1.0527 0
M  V30 16 H -3.0896 1.9056 0.9282 0
M  V30 17 H -3.5474 0.3199 1.6629 0
M  V30 18 H -4.0506 0.7147 -0.0321 0
M  V30 19 H 0.3546 0.1595 -1.6446 0
M  V30 20 H 4.7412 0.495 -0.8725 0
M  V30 21 H 4.0582 0.9838 0.7265 0
M  V30 22 H 4.2638 -0.7749 0.3196 0
M  V30 END ATOM
M  V30 BEGIN BOND
M  V30 1 2 1 2
M  V30 2 1 2 3
M  V30 3 1 2 4
M  V30 4 1 3 5
M  V30 5 1 3 6
M  V30 6 1 4 7
M  V30 7 1 7 8
M  V30 8 2 8 9
M  V30 9 1 8 10
M  V30 10 1 10 11
M  V30 11 1 5 7
M  V30 12 1 4 12
M  V30 13 1 4 13
M  V30 14 1 5 14
M  V30 15 1 5 15
M  V30 16 1 6 16
M  V30 17 1 6 17
M  V30 18 1 6 18
M  V30 19 1 7 19
M  V30 20 1 11 20
M  V30 21 1 11 21
M  V30 22 1 11 22
M  V30 END BOND
M  V30 BEGIN COLLECTION
M  V30 MDLV30/STEABS ATOMS=(1 7)
M  V30 END COLLECTION
M  V30 END CTAB
M  END
>  <Structure No>
7537

>  <LogS>
0.804

>  <MMFF94 Energy>
-38.629

$$$$
Compound 7538
Actelion Java MolfileCreator 2.0

  0  0  0  0  0  0              0 V3000
M  V30 BEGIN CTAB
M  V30 COUNTS 37 37 0 0 0
M  V30 BEGIN ATOM
M  V30 1 O 0.7902 -2.8471 0.0 0
M  V30 2 C -0.2244 -2.11 0.1178 0
M  V30 3 N -0.3813 -1.1626 1.157 0
M  V30 4 C -1.3685 -2.1321 -0.8136 0
M  V30 5 C -1.6728 -0.5094 1.0322 0
M  V30 6 C 0.6083 -0.8527 2.1906 0
M  V30 7 C -2.4293 -1.2864 -0.0744 0 CFG=1
M  V30 8 C 1.8731 -0.2231 1.591 0
M  V30 9 C -3.2171 -0.3876 -0.9944 0
M  V30 10 C 1.5859 1.1281 0.9157 0
M  V30 11 O -3.4821 -0.7662 -2.1689 0
M  V30 12 O -3.7325 0.8205 -0.5126 0
M  V30 13 C 2.8515 1.741 0.2808 0
M  V30 14 C -4.5062 1.7005 -1.319 0
M  V30 15 C 2.9217 1.5585 -1.2448 0
M  V30 16 C 3.0645 0.0979 -1.6678 0
M  V30 17 H -1.0542 -1.6668 -1.7733 0
M  V30 18 H -1.7245 -3.171 -0.9827 0
M  V30 19 H -2.2253 -0.5628 1.9952 0
M  V30 20 H -1.5133 0.5554 0.7572 0
M  V30 21 H 0.1701 -0.1566 2.939 0
M  V30 22 H 0.8811 -1.7886 2.7237 0
M  V30 23 H -3.1459 -1.9811 0.418 0
M  V30 24 H 2.605 -0.0657 2.4132 0
M  V30 25 H 2.3345 -0.9281 0.8708 0
M  V30 26 H 0.7897 1.0165 0.1491 0
M  V30 27 H 1.1993 1.8276 1.6893 0
M  V30 28 H 2.8452 2.8346 0.482 0
M  V30 29 H 3.7755 1.3402 0.7528 0
M  V30 30 H -5.4283 1.1873 -1.6651 0
M  V30 31 H -3.9111 2.0351 -2.1949 0
M  V30 32 H -4.7925 2.5881 -0.7185 0
M  V30 33 H 3.8026 2.1205 -1.6242 0
M  V30 34 H 2.0167 1.9947 -1.7212 0
M  V30 35 H 3.9143 -0.3803 -1.136 0
M  V30 36 H 3.2574 0.0473 -2.76 0
M  V30 37 H 2.1286 -0.4607 -1.4585 0
M  V30 END ATOM
M  V30 BEGIN BOND
M  V30 1 2 1 2
M  V30 2 1 2 3
M  V30 3 1 2 4
M  V30 4 1 3 5
M  V30 5 1 3 6
M  V30 6 1 4 7
M  V30 7 1 6 8
M  V30 8 1 7 9
M  V30 9 1 8 10
M  V30 10 2 9 11
M  V30 11 1 9 12
M  V30 12 1 10 13
M  V30 13 1 12 14
M  V30 14 1 13 15
M  V30 15 1 15 16
M  V30 16 1 5 7
M  V30 17 1 4 17
M  V30 18 1 4 18
M  V30 19 1 5 19
M  V30 20 1 5 20
M  V30 21 1 6 21
M  V30 22 1 6 22
M  V30 23 1 7 23
M  V30 24 1 8 24
M  V30 25 1 8 25
M  V30 26 1 10 26
M  V30 27 1 10 27
M  V30 28 1 13 28
M  V30 29 1 13 29
M  V30 30 1 14 30
M  V30 31 1 14 31
M  V30 32 1 14 32
M  V30 33 1 15 33
M  V30 34 1 15 34
M  V30 35 1 16 35
M  V30 36 1 16 36
M  V30 37 1 16 37
M  V30 END BOND
M  V30 BEGIN COLLECTION
M  V30 MDLV30/STEABS ATOMS=(1 7)
M  V30 END COLLECTION
M  V30 END CTAB
M  END
>  <Structure No>
7538

>  <LogS>
-1.246

>  <MMFF94 Energy>
-42.02

$$$$
Compound 7539
Actelion Java MolfileCreator 2.0

  0  0  0  0  0  0              0 V3000
M  V30 BEGIN CTAB
M  V30 COUNTS 17 17 0 0 0
M  V30 BEGIN ATOM
M  V30 1 N 0.3902 0.3121 1.171 0
M  V30 2 C -0.167 0.4024 -0.0687 0
M  V30 3 C 1.709 0.0293 1.3464 0
M  V30 4 C 0.6272 0.1796 -1.2036 0
M  V30 5 C -1.6349 0.6848 -0.2034 0
M  V30 6 C 2.5314 -0.1866 0.2384 0
M  V30 7 C 1.9834 -0.1119 -1.0432 0
M  V30 8 C -2.4307 -0.6144 -0.2642 0
M  V30 9 H 2.1181 -0.0306 2.3461 0
M  V30 10 H 0.2002 0.2297 -2.1976 0
M  V30 11 H -1.8274 1.2802 -1.1224 0
M  V30 12 H -1.9806 1.2848 0.6661 0
M  V30 13 H 3.5813 -0.4132 0.3723 0
M  V30 14 H 2.6078 -0.2824 -1.9106 0
M  V30 15 H -2.2695 -1.2087 0.6606 0
M  V30 16 H -2.1208 -1.2158 -1.1455 0
M  V30 17 H -3.5131 -0.3835 -0.3544 0
M  V30 END ATOM
M  V30 BEGIN BOND
M  V30 1 2 1 2
M  V30 2 1 1 3
M  V30 3 1 2 4
M  V30 4 1 2 5
M  V30 5 2 3 6
M  V30 6 2 4 7
M  V30 7 1 5 8
M  V30 8 1 6 7
M  V30 9 1 3 9
M  V30 10 1 4 10
M  V30 11 1 5 11
M  V30 12 1 5 12
M  V30 13 1 6 13
M  V30 14 1 7 14
M  V30 15 1 8 15
M  V30 16 1 8 16
M  V30 17 1 8 17
M  V30 END BOND
M  V30 END CTAB
M  END
>  <Structure No>
7539

>  <LogS>
0.501

>  <MMFF94 Energy>
15.969

$$$$
Compound 7540
Actelion Java MolfileCreator 2.0

  0  0  0  0  0  0              0 V3000
M  V30 BEGIN CTAB
M  V30 COUNTS 17 17 0 0 0
M  V30 BEGIN ATOM
M  V30 1 N 0.0 -0.8583 0.156 0
M  V30 2 C 1.1676 -0.1608 0.0908 0
M  V30 3 C -1.2115 -0.2501 0.0287 0
M  V30 4 C 1.1383 1.2248 -0.1126 0
M  V30 5 C 2.4725 -0.8761 0.2368 0
M  V30 6 C -1.2757 1.1343 -0.1757 0
M  V30 7 C -2.4652 -1.0613 0.1078 0
M  V30 8 C -0.092 1.8707 -0.246 0
M  V30 9 H 2.057 1.7958 -0.1671 0
M  V30 10 H 3.0258 -0.4724 1.1108 0
M  V30 11 H 3.0823 -0.7345 -0.68 0
M  V30 12 H 2.3067 -1.9633 0.3908 0
M  V30 13 H -2.2305 1.6349 -0.2791 0
M  V30 14 H -3.0919 -0.702 0.951 0
M  V30 15 H -2.2267 -2.1335 0.2723 0
M  V30 16 H -3.0354 -0.964 -0.8399 0
M  V30 17 H -0.128 2.9408 -0.4036 0
M  V30 END ATOM
M  V30 BEGIN BOND
M  V30 1 2 1 2
M  V30 2 1 1 3
M  V30 3 1 2 4
M  V30 4 1 2 5
M  V30 5 2 3 6
M  V30 6 1 3 7
M  V30 7 2 4 8
M  V30 8 1 6 8
M  V30 9 1 4 9
M  V30 10 1 5 10
M  V30 11 1 5 11
M  V30 12 1 5 12
M  V30 13 1 6 13
M  V30 14 1 7 14
M  V30 15 1 7 15
M  V30 16 1 7 16
M  V30 17 1 8 17
M  V30 END BOND
M  V30 END CTAB
M  END
>  <Structure No>
7540

>  <LogS>
0.447

>  <MMFF94 Energy>
18.028

$$$$
Compound 7541
Actelion Java MolfileCreator 2.0

  0  0  0  0  0  0              0 V3000
M  V30 BEGIN CTAB
M  V30 COUNTS 31 32 0 0 0
M  V30 BEGIN ATOM
M  V30 1 O 0.0 3.0405 -0.8794 0
M  V30 2 N 0.5489 1.9993 -1.2934 0 CHG=1
M  V30 3 O 0.2696 1.5655 -2.5669 0 CHG=-1
M  V30 4 C 1.5057 1.3262 -0.4609 0
M  V30 5 N 1.8949 1.8268 0.7316 0
M  V30 6 N 2.091 0.1358 -0.7464 0
M  V30 7 C 2.7562 0.909 1.2117 0
M  V30 8 C 2.8733 -0.1281 0.3152 0
M  V30 9 C 1.8509 -0.7803 -1.8641 0
M  V30 10 C 0.5079 -1.4259 -1.7148 0
M  V30 11 O -0.3516 -1.3062 -2.6291 0
M  V30 12 N 0.1938 -2.1516 -0.5202 0
M  V30 13 C -1.1688 -2.2168 -0.0026 0
M  V30 14 C -1.581 -0.8609 0.5026 0
M  V30 15 C -1.0221 -0.3547 1.6878 0
M  V30 16 C -2.4571 -0.0558 -0.2442 0
M  V30 17 C -1.3484 0.9317 2.1272 0
M  V30 18 C -2.7828 1.2294 0.2 0
M  V30 19 C -2.2296 1.7225 1.3851 0
M  V30 20 H 3.2576 0.9852 2.167 0
M  V30 21 H 3.469 -1.0229 0.4426 0
M  V30 22 H 2.6268 -1.5761 -1.8772 0
M  V30 23 H 1.9321 -0.2375 -2.8288 0
M  V30 24 H 0.974 -2.4631 0.1013 0
M  V30 25 H -1.8581 -2.5851 -0.7932 0
M  V30 26 H -1.2099 -2.9463 0.835 0
M  V30 27 H -0.3245 -0.9517 2.2623 0
M  V30 28 H -2.8801 -0.4182 -1.1728 0
M  V30 29 H -0.9122 1.3183 3.0392 0
M  V30 30 H -3.4579 1.8465 -0.3786 0
M  V30 31 H -2.4784 2.7197 1.7243 0
M  V30 END ATOM
M  V30 BEGIN BOND
M  V30 1 2 1 2
M  V30 2 1 2 3
M  V30 3 1 2 4
M  V30 4 2 4 5
M  V30 5 1 4 6
M  V30 6 1 5 7
M  V30 7 1 6 8
M  V30 8 1 6 9
M  V30 9 1 9 10
M  V30 10 2 10 11
M  V30 11 1 10 12
M  V30 12 1 12 13
M  V30 13 1 13 14
M  V30 14 2 14 15
M  V30 15 1 14 16
M  V30 16 1 15 17
M  V30 17 2 16 18
M  V30 18 2 17 19
M  V30 19 2 7 8
M  V30 20 1 18 19
M  V30 21 1 7 20
M  V30 22 1 8 21
M  V30 23 1 9 22
M  V30 24 1 9 23
M  V30 25 1 12 24
M  V30 26 1 13 25
M  V30 27 1 13 26
M  V30 28 1 15 27
M  V30 29 1 16 28
M  V30 30 1 17 29
M  V30 31 1 18 30
M  V30 32 1 19 31
M  V30 END BOND
M  V30 END CTAB
M  END
>  <Structure No>
7541

>  <LogS>
-2.813

>  <MMFF94 Energy>
51.269

$$$$
Compound 7542
Actelion Java MolfileCreator 2.0

  0  0  0  0  0  0              0 V3000
M  V30 BEGIN CTAB
M  V30 COUNTS 29 31 0 0 0
M  V30 BEGIN ATOM
M  V30 1 O 0.4858 -2.1065 0.3238 0
M  V30 2 C -0.1021 -1.0117 0.1106 0
M  V30 3 C 0.6731 0.2598 0.0095 0
M  V30 4 C -1.5816 -0.9933 0.036 0
M  V30 5 C 2.092 0.2799 -0.1092 0
M  V30 6 C -0.0303 1.4877 0.0902 0
M  V30 7 C -2.2718 0.2352 0.0531 0
M  V30 8 C -2.3107 -2.1955 -0.0319 0
M  V30 9 N 2.8409 -0.9245 -0.3521 0
M  V30 10 C 2.7703 1.5099 -0.0635 0
M  V30 11 C -1.5129 1.5017 0.1359 0
M  V30 12 C 0.68 2.6992 0.1203 0
M  V30 13 C -3.6781 0.2423 -3.0E-4 0
M  V30 14 C -3.706 -2.1743 -0.087 0
M  V30 15 C 4.1356 -1.1819 0.2691 0
M  V30 16 C 2.0695 2.7058 0.0586 0
M  V30 17 O -2.1309 2.5979 0.2349 0
M  V30 18 C -4.3883 -0.9578 -0.0711 0
M  V30 19 H -1.8028 -3.1517 -0.0457 0
M  V30 20 H 2.448 -1.6573 -0.984 0
M  V30 21 H 3.8468 1.5519 -0.1567 0
M  V30 22 H 0.1603 3.6467 0.1912 0
M  V30 23 H -4.2288 1.1746 0.0115 0
M  V30 24 H -4.2591 -3.1032 -0.1413 0
M  V30 25 H 4.9071 -0.5089 -0.1576 0
M  V30 26 H 4.0652 -1.0275 1.3664 0
M  V30 27 H 4.4425 -2.2314 0.0753 0
M  V30 28 H 2.6061 3.6457 0.0815 0
M  V30 29 H -5.4699 -0.9445 -0.1131 0
M  V30 END ATOM
M  V30 BEGIN BOND
M  V30 1 2 1 2
M  V30 2 1 2 3
M  V30 3 1 2 4
M  V30 4 2 3 5
M  V30 5 1 3 6
M  V30 6 2 4 7
M  V30 7 1 4 8
M  V30 8 1 5 9
M  V30 9 1 5 10
M  V30 10 1 6 11
M  V30 11 2 6 12
M  V30 12 1 7 13
M  V30 13 2 8 14
M  V30 14 1 9 15
M  V30 15 2 10 16
M  V30 16 2 11 17
M  V30 17 2 13 18
M  V30 18 1 7 11
M  V30 19 1 12 16
M  V30 20 1 14 18
M  V30 21 1 8 19
M  V30 22 1 9 20
M  V30 23 1 10 21
M  V30 24 1 12 22
M  V30 25 1 13 23
M  V30 26 1 14 24
M  V30 27 1 15 25
M  V30 28 1 15 26
M  V30 29 1 15 27
M  V30 30 1 16 28
M  V30 31 1 18 29
M  V30 END BOND
M  V30 END CTAB
M  END
>  <Structure No>
7542

>  <LogS>
-6.3

>  <MMFF94 Energy>
74.16

$$$$
Compound 7543
Actelion Java MolfileCreator 2.0

  0  0  0  0  0  0              0 V3000
M  V30 BEGIN CTAB
M  V30 COUNTS 28 30 0 0 0
M  V30 BEGIN ATOM
M  V30 1 O 0.4858 -2.6743 0.4048 0
M  V30 2 C 0.409 -1.4455 0.1339 0
M  V30 3 C -0.9084 -0.7429 0.1295 0
M  V30 4 C 1.6523 -0.6838 -0.1037 0
M  V30 5 C -0.9265 0.6766 0.2361 0
M  V30 6 C -2.1379 -1.4533 0.0625 0
M  V30 7 C 1.6344 0.7177 0.0014 0
M  V30 8 C 2.8591 -1.3437 -0.3973 0
M  V30 9 C 0.3725 1.4036 0.3479 0
M  V30 10 C -2.1737 1.3576 0.2736 0
M  V30 11 N -2.1965 -2.8619 -0.201 0
M  V30 12 C -3.3443 -0.7617 0.2021 0
M  V30 13 C 2.8236 1.4444 -0.188 0
M  V30 14 C 4.0328 -0.6117 -0.5921 0
M  V30 15 O 0.4187 2.5797 0.7994 0
M  V30 16 N -2.2685 2.7879 0.223 0
M  V30 17 C -3.3619 0.6228 0.306 0
M  V30 18 C 4.0151 0.7798 -0.4876 0
M  V30 19 H 2.8935 -2.4228 -0.48 0
M  V30 20 H -3.0799 -3.3927 -0.0315 0
M  V30 21 H -1.46 -3.3451 -0.7587 0
M  V30 22 H -4.2852 -1.2973 0.1743 0
M  V30 23 H 2.8306 2.5244 -0.1087 0
M  V30 24 H 4.958 -1.1246 -0.8216 0
M  V30 25 H -3.1648 3.2651 0.4683 0
M  V30 26 H -1.5454 3.3676 -0.2547 0
M  V30 27 H -4.3162 1.1326 0.3567 0
M  V30 28 H 4.9264 1.3444 -0.6364 0
M  V30 END ATOM
M  V30 BEGIN BOND
M  V30 1 2 1 2
M  V30 2 1 2 3
M  V30 3 1 2 4
M  V30 4 2 3 5
M  V30 5 1 3 6
M  V30 6 2 4 7
M  V30 7 1 4 8
M  V30 8 1 5 9
M  V30 9 1 5 10
M  V30 10 1 6 11
M  V30 11 2 6 12
M  V30 12 1 7 13
M  V30 13 2 8 14
M  V30 14 2 9 15
M  V30 15 1 10 16
M  V30 16 2 10 17
M  V30 17 2 13 18
M  V30 18 1 7 9
M  V30 19 1 12 17
M  V30 20 1 14 18
M  V30 21 1 8 19
M  V30 22 1 11 20
M  V30 23 1 11 21
M  V30 24 1 12 22
M  V30 25 1 13 23
M  V30 26 1 14 24
M  V30 27 1 16 25
M  V30 28 1 16 26
M  V30 29 1 17 27
M  V30 30 1 18 28
M  V30 END BOND
M  V30 END CTAB
M  END
>  <Structure No>
7543

>  <LogS>
-5.859

>  <MMFF94 Energy>
79.535

$$$$
Compound 7544
Actelion Java MolfileCreator 2.0

  0  0  0  0  0  0              0 V3000
M  V30 BEGIN CTAB
M  V30 COUNTS 32 34 0 0 0
M  V30 BEGIN ATOM
M  V30 1 O -1.0508 2.669 0.5657 0
M  V30 2 C -1.0864 1.4614 0.205 0
M  V30 3 C 0.1587 0.6374 0.1612 0
M  V30 4 C -2.3927 0.8426 -0.0996 0
M  V30 5 C 1.45 1.2327 0.1511 0
M  V30 6 C 0.038 -0.7787 0.1717 0
M  V30 7 C -2.511 -0.5577 -0.0911 0
M  V30 8 C -3.5253 1.6346 -0.3607 0
M  V30 9 N 1.6202 2.6488 -0.019 0
M  V30 10 C 2.5965 0.4268 0.2519 0
M  V30 11 C -1.3268 -1.3829 0.2224 0
M  V30 12 C 1.2107 -1.5768 0.1758 0
M  V30 13 C -3.7606 -1.1517 -0.344 0
M  V30 14 C -4.7602 1.0346 -0.6192 0
M  V30 15 O 3.8575 1.0464 0.2983 0
M  V30 16 C 2.4641 -0.9674 0.271 0
M  V30 17 O -1.4931 -2.5755 0.5961 0
M  V30 18 N 1.1655 -3.0035 0.0316 0
M  V30 19 C -4.8777 -0.3562 -0.6109 0
M  V30 20 C 5.0998 0.3564 0.3931 0
M  V30 21 H -3.4548 2.7153 -0.369 0
M  V30 22 H 2.5101 3.1217 0.254 0
M  V30 23 H 0.9519 3.2092 -0.5913 0
M  V30 24 H -3.8722 -2.2288 -0.3392 0
M  V30 25 H -5.6278 1.6489 -0.8235 0
M  V30 26 H 3.3437 -1.596 0.3039 0
M  V30 27 H 2.0035 -3.5837 0.2603 0
M  V30 28 H 0.4009 -3.4753 -0.4979 0
M  V30 29 H -5.8362 -0.8187 -0.8086 0
M  V30 30 H 5.2431 -0.2959 -0.4939 0
M  V30 31 H 5.9242 1.098 0.4241 0
M  V30 32 H 5.1311 -0.2481 1.3241 0
M  V30 END ATOM
M  V30 BEGIN BOND
M  V30 1 2 1 2
M  V30 2 1 2 3
M  V30 3 1 2 4
M  V30 4 2 3 5
M  V30 5 1 3 6
M  V30 6 2 4 7
M  V30 7 1 4 8
M  V30 8 1 5 9
M  V30 9 1 5 10
M  V30 10 1 6 11
M  V30 11 2 6 12
M  V30 12 1 7 13
M  V30 13 2 8 14
M  V30 14 1 10 15
M  V30 15 2 10 16
M  V30 16 2 11 17
M  V30 17 1 12 18
M  V30 18 2 13 19
M  V30 19 1 15 20
M  V30 20 1 7 11
M  V30 21 1 12 16
M  V30 22 1 14 19
M  V30 23 1 8 21
M  V30 24 1 9 22
M  V30 25 1 9 23
M  V30 26 1 13 24
M  V30 27 1 14 25
M  V30 28 1 16 26
M  V30 29 1 18 27
M  V30 30 1 18 28
M  V30 31 1 19 29
M  V30 32 1 20 30
M  V30 33 1 20 31
M  V30 34 1 20 32
M  V30 END BOND
M  V30 END CTAB
M  END
>  <Structure No>
7544

>  <LogS>
-5.746

>  <MMFF94 Energy>
97.537

$$$$
Compound 7545
Actelion Java MolfileCreator 2.0

  0  0  0  0  0  0              0 V3000
M  V30 BEGIN CTAB
M  V30 COUNTS 41 42 0 0 0
M  V30 BEGIN ATOM
M  V30 1 O 8.7904 0.2389 -1.5141 0
M  V30 2 N 8.2352 0.6216 -0.4632 0 CHG=1
M  V30 3 O 9.0106 1.1626 0.5368 0 CHG=-1
M  V30 4 C 6.8104 0.5 -0.299 0
M  V30 5 C 6.0142 -0.0523 -1.319 0
M  V30 6 C 6.1915 0.9328 0.8867 0
M  V30 7 C 4.6306 -0.1686 -1.1554 0
M  V30 8 C 4.8078 0.8157 1.0486 0
M  V30 9 C 4.0186 0.2662 0.0328 0
M  V30 10 N 2.604 0.1616 0.2331 0
M  V30 11 N 1.8289 -0.328 -0.6495 0
M  V30 12 C 0.4143 -0.4324 -0.4493 0
M  V30 13 C -0.3747 -0.9825 -1.4647 0
M  V30 14 C -0.1971 6.0E-4 0.7397 0
M  V30 15 C -1.7583 -1.0983 -1.303 0
M  V30 16 C -1.5804 -0.1155 0.9028 0
M  V30 17 C -2.3765 -0.6612 -0.1185 0
M  V30 18 N -3.8064 -0.7706 0.0511 0
M  V30 19 C -4.727 -0.3186 -1.006 0
M  V30 20 C -4.3537 -1.3709 1.2766 0
M  V30 21 C -4.6851 1.2026 -1.1627 0
M  V30 22 C -5.0459 -0.3202 2.1414 0
M  V30 23 O -3.4689 1.5988 -1.733 0
M  V30 24 H 6.461 -0.3945 -2.2436 0
M  V30 25 H 6.7761 1.3621 1.6899 0
M  V30 26 H 4.0416 -0.5973 -1.956 0
M  V30 27 H 4.3477 1.1543 1.9688 0
M  V30 28 H 0.0854 -1.3258 -2.3828 0
M  V30 29 H 0.3913 0.4295 1.5405 0
M  V30 30 H -2.3392 -1.5461 -2.0972 0
M  V30 31 H -2.0306 0.233 1.8222 0
M  V30 32 H -5.7703 -0.6119 -0.757 0
M  V30 33 H -4.4872 -0.8087 -1.9719 0
M  V30 34 H -3.5474 -1.8551 1.8701 0
M  V30 35 H -5.0821 -2.1665 1.0087 0
M  V30 36 H -4.8163 1.6855 -0.1686 0
M  V30 37 H -5.5221 1.5187 -1.8241 0
M  V30 38 H -5.3836 -0.785 3.0915 0
M  V30 39 H -5.9333 0.0912 1.6167 0
M  V30 40 H -4.3483 0.5095 2.3785 0
M  V30 41 H -3.4986 2.5894 -1.7841 0
M  V30 END ATOM
M  V30 BEGIN BOND
M  V30 1 2 1 2
M  V30 2 1 2 3
M  V30 3 1 2 4
M  V30 4 2 4 5
M  V30 5 1 4 6
M  V30 6 1 5 7
M  V30 7 2 6 8
M  V30 8 2 7 9
M  V30 9 1 9 10
M  V30 10 2 10 11
M  V30 11 1 11 12
M  V30 12 2 12 13
M  V30 13 1 12 14
M  V30 14 1 13 15
M  V30 15 2 14 16
M  V30 16 2 15 17
M  V30 17 1 17 18
M  V30 18 1 18 19
M  V30 19 1 18 20
M  V30 20 1 19 21
M  V30 21 1 20 22
M  V30 22 1 21 23
M  V30 23 1 8 9
M  V30 24 1 16 17
M  V30 25 1 5 24
M  V30 26 1 6 25
M  V30 27 1 7 26
M  V30 28 1 8 27
M  V30 29 1 13 28
M  V30 30 1 14 29
M  V30 31 1 15 30
M  V30 32 1 16 31
M  V30 33 1 19 32
M  V30 34 1 19 33
M  V30 35 1 20 34
M  V30 36 1 20 35
M  V30 37 1 21 36
M  V30 38 1 21 37
M  V30 39 1 22 38
M  V30 40 1 22 39
M  V30 41 1 22 40
M  V30 42 1 23 41
M  V30 END BOND
M  V30 END CTAB
M  END
>  <Structure No>
7545

>  <LogS>
-6.293

>  <MMFF94 Energy>
94.46

$$$$
Compound 7546
Actelion Java MolfileCreator 2.0

  0  0  0  0  0  0              0 V3000
M  V30 BEGIN CTAB
M  V30 COUNTS 45 46 0 0 0
M  V30 BEGIN ATOM
M  V30 1 Cl 4.8393 -1.9336 2.8208 0
M  V30 2 C 4.2798 -0.6272 1.7865 0
M  V30 3 C 3.5236 -0.8981 0.6362 0
M  V30 4 C 4.5806 0.6946 2.1353 0
M  V30 5 N 3.2418 -2.2611 0.2736 0
M  V30 6 C 3.1239 0.1656 -0.1893 0
M  V30 7 C 4.149 1.7639 1.3312 0
M  V30 8 N 2.1186 -2.7008 -0.1527 0
M  V30 9 C 3.4214 1.4842 0.1614 0
M  V30 10 N 4.4573 3.1211 1.6974 0 CHG=1
M  V30 11 C 0.8927 -1.9499 -0.1966 0
M  V30 12 O 4.0584 4.0758 0.9987 0
M  V30 13 O 5.1947 3.3906 2.8281 0 CHG=-1
M  V30 14 C 0.085 -1.99 -1.3495 0
M  V30 15 C 0.4618 -1.2239 0.9256 0
M  V30 16 C -1.1072 -1.2485 -1.3857 0
M  V30 17 C 0.5124 -2.7852 -2.5515 0
M  V30 18 C -0.7268 -0.4946 0.883 0
M  V30 19 C -1.5133 -0.4923 -0.2766 0
M  V30 20 N -2.7276 0.2784 -0.3334 0
M  V30 21 C -3.7864 0.0654 0.6635 0
M  V30 22 C -2.8653 1.3464 -1.3321 0
M  V30 23 C -4.4242 -1.3152 0.4921 0
M  V30 24 C -2.3072 2.6617 -0.7929 0
M  V30 25 O -4.9399 -1.4646 -0.8027 0
M  V30 26 O -0.9265 2.5493 -0.5861 0
M  V30 27 H 5.1515 0.8835 3.0352 0
M  V30 28 H 2.5897 -0.0249 -1.111 0
M  V30 29 H 3.0909 2.2847 -0.4882 0
M  V30 30 H 1.0488 -1.2217 1.8347 0
M  V30 31 H -1.7285 -1.2655 -2.2727 0
M  V30 32 H 0.664 -3.8471 -2.2654 0
M  V30 33 H 1.4644 -2.3759 -2.9487 0
M  V30 34 H -0.2487 -2.749 -3.359 0
M  V30 35 H -1.0224 0.0834 1.7482 0
M  V30 36 H -3.371 0.1575 1.6885 0
M  V30 37 H -4.5777 0.8408 0.5675 0
M  V30 38 H -2.3367 1.0778 -2.2719 0
M  V30 39 H -3.9369 1.4845 -1.5957 0
M  V30 40 H -3.6617 -2.1026 0.6692 0
M  V30 41 H -5.2308 -1.4519 1.2471 0
M  V30 42 H -2.5082 3.4685 -1.532 0
M  V30 43 H -2.8155 2.9187 0.1634 0
M  V30 44 H -5.7712 -0.9236 -0.8421 0
M  V30 45 H -0.6316 3.4217 -0.2163 0
M  V30 END ATOM
M  V30 BEGIN BOND
M  V30 1 1 1 2
M  V30 2 2 2 3
M  V30 3 1 2 4
M  V30 4 1 3 5
M  V30 5 1 3 6
M  V30 6 2 4 7
M  V30 7 2 5 8
M  V30 8 2 6 9
M  V30 9 1 7 10
M  V30 10 1 8 11
M  V30 11 2 10 12
M  V30 12 1 10 13
M  V30 13 2 11 14
M  V30 14 1 11 15
M  V30 15 1 14 16
M  V30 16 1 14 17
M  V30 17 2 15 18
M  V30 18 2 16 19
M  V30 19 1 19 20
M  V30 20 1 20 21
M  V30 21 1 20 22
M  V30 22 1 21 23
M  V30 23 1 22 24
M  V30 24 1 23 25
M  V30 25 1 24 26
M  V30 26 1 7 9
M  V30 27 1 18 19
M  V30 28 1 4 27
M  V30 29 1 6 28
M  V30 30 1 9 29
M  V30 31 1 15 30
M  V30 32 1 16 31
M  V30 33 1 17 32
M  V30 34 1 17 33
M  V30 35 1 17 34
M  V30 36 1 18 35
M  V30 37 1 21 36
M  V30 38 1 21 37
M  V30 39 1 22 38
M  V30 40 1 22 39
M  V30 41 1 23 40
M  V30 42 1 23 41
M  V30 43 1 24 42
M  V30 44 1 24 43
M  V30 45 1 25 44
M  V30 46 1 26 45
M  V30 END BOND
M  V30 END CTAB
M  END
>  <Structure No>
7546

>  <LogS>
-6.57

>  <MMFF94 Energy>
121.55

$$$$
Compound 7547
Actelion Java MolfileCreator 2.0

  0  0  0  0  0  0              0 V3000
M  V30 BEGIN CTAB
M  V30 COUNTS 41 43 0 0 0
M  V30 BEGIN ATOM
M  V30 1 S 2.9476 1.8824 1.473 0
M  V30 2 O 3.0015 3.2193 2.1558 0
M  V30 3 O 4.1382 1.7464 0.5655 0
M  V30 4 N 3.0042 0.6264 2.6705 0
M  V30 5 C 1.4504 1.7764 0.5519 0
M  V30 6 C 2.8798 -0.7756 2.3724 0
M  V30 7 C 1.4203 2.1654 -0.7921 0
M  V30 8 C 0.2861 1.3006 1.1623 0
M  V30 9 C 2.8574 -1.2585 1.0488 0
M  V30 10 C 2.7774 -1.6921 3.4322 0
M  V30 11 C 0.2359 2.0636 -1.5462 0
M  V30 12 C -0.8975 1.2021 0.4325 0
M  V30 13 C 2.7331 -2.6282 0.7986 0
M  V30 14 C 2.6481 -3.0605 3.1767 0
M  V30 15 N 0.2464 2.4281 -2.9399 0 CHG=1
M  V30 16 C -0.9359 1.572 -0.922 0
M  V30 17 C 2.6255 -3.528 1.8608 0
M  V30 18 O 1.1346 3.1856 -3.3853 0
M  V30 19 O -0.6055 1.8167 -3.8317 0 CHG=-1
M  V30 20 N -2.1875 1.5402 -1.626 0
M  V30 21 C -3.0713 0.4042 -1.6373 0
M  V30 22 C -2.6075 -0.8907 -1.336 0
M  V30 23 C -4.4156 0.58 -2.0033 0
M  V30 24 C -3.4823 -1.9803 -1.3794 0
M  V30 25 C -5.2869 -0.5133 -2.0455 0
M  V30 26 C -4.8214 -1.7915 -1.7309 0
M  V30 27 H 3.0824 0.9279 3.6671 0
M  V30 28 H 2.327 2.5308 -1.2575 0
M  V30 29 H 0.2912 1.0124 2.2065 0
M  V30 30 H 2.9428 -0.5911 0.204 0
M  V30 31 H 2.7939 -1.3451 4.4568 0
M  V30 32 H -1.7957 0.8549 0.9287 0
M  V30 33 H 2.7187 -2.9916 -0.2212 0
M  V30 34 H 2.5653 -3.7582 3.9995 0
M  V30 35 H 2.5241 -4.5877 1.6648 0
M  V30 36 H -2.4746 2.4016 -2.145 0
M  V30 37 H -1.5697 -1.0639 -1.0836 0
M  V30 38 H -4.7886 1.5664 -2.2524 0
M  V30 39 H -3.1204 -2.974 -1.1446 0
M  V30 40 H -6.3232 -0.3685 -2.3223 0
M  V30 41 H -5.4967 -2.6361 -1.7636 0
M  V30 END ATOM
M  V30 BEGIN BOND
M  V30 1 2 1 2
M  V30 2 2 1 3
M  V30 3 1 1 4
M  V30 4 1 1 5
M  V30 5 1 4 6
M  V30 6 2 5 7
M  V30 7 1 5 8
M  V30 8 2 6 9
M  V30 9 1 6 10
M  V30 10 1 7 11
M  V30 11 2 8 12
M  V30 12 1 9 13
M  V30 13 2 10 14
M  V30 14 1 11 15
M  V30 15 2 11 16
M  V30 16 2 13 17
M  V30 17 2 15 18
M  V30 18 1 15 19
M  V30 19 1 16 20
M  V30 20 1 20 21
M  V30 21 2 21 22
M  V30 22 1 21 23
M  V30 23 1 22 24
M  V30 24 2 23 25
M  V30 25 2 24 26
M  V30 26 1 12 16
M  V30 27 1 14 17
M  V30 28 1 25 26
M  V30 29 1 4 27
M  V30 30 1 7 28
M  V30 31 1 8 29
M  V30 32 1 9 30
M  V30 33 1 10 31
M  V30 34 1 12 32
M  V30 35 1 13 33
M  V30 36 1 14 34
M  V30 37 1 17 35
M  V30 38 1 20 36
M  V30 39 1 22 37
M  V30 40 1 23 38
M  V30 41 1 24 39
M  V30 42 1 25 40
M  V30 43 1 26 41
M  V30 END BOND
M  V30 END CTAB
M  END
>  <Structure No>
7547

>  <LogS>
-6.269

>  <MMFF94 Energy>
40.93

$$$$
Compound 7548
Actelion Java MolfileCreator 2.0

  0  0  0  0  0  0              0 V3000
M  V30 BEGIN CTAB
M  V30 COUNTS 42 43 0 0 0
M  V30 BEGIN ATOM
M  V30 1 Cl 4.3002 2.27 -2.1889 0
M  V30 2 C 4.9395 0.7462 -1.5873 0
M  V30 3 C 4.1176 -0.1474 -0.8829 0
M  V30 4 C 6.2837 0.433 -1.8199 0
M  V30 5 N 2.7429 0.1905 -0.654 0
M  V30 6 C 4.6598 -1.3572 -0.4154 0
M  V30 7 C 6.8289 -0.7767 -1.3535 0
M  V30 8 N 1.9495 -0.5786 -0.0226 0
M  V30 9 C 6.002 -1.6676 -0.649 0
M  V30 10 N 8.2112 -1.1003 -1.592 0 CHG=1
M  V30 11 C 0.5768 -0.2368 0.2036 0
M  V30 12 O 8.9513 -0.3127 -2.2173 0
M  V30 13 O 8.7411 -2.285 -1.1339 0 CHG=-1
M  V30 14 C -0.2373 -1.1311 0.906 0
M  V30 15 C 0.0316 0.9739 -0.2573 0
M  V30 16 C -1.581 -0.8285 1.1433 0
M  V30 17 C -1.3124 1.277 -0.0206 0
M  V30 18 C -2.1361 0.3736 0.675 0
M  V30 19 N -3.5277 0.6755 0.9169 0
M  V30 20 C -4.3864 1.157 -0.1797 0
M  V30 21 C -4.0329 0.6896 2.3009 0
M  V30 22 C -4.735 0.0207 -1.1462 0
M  V30 23 C -5.2487 -0.2293 2.4916 0
M  V30 24 O -3.5909 -0.4483 -1.8069 0
M  V30 25 C -4.9196 -1.6342 2.2258 0
M  V30 26 N -4.6662 -2.7436 2.016 0
M  V30 27 H 6.9004 1.136 -2.3653 0
M  V30 28 H 4.0472 -2.0634 0.1304 0
M  V30 29 H 6.3924 -2.6062 -0.2774 0
M  V30 30 H 0.1714 -2.0657 1.2696 0
M  V30 31 H 0.6436 1.6874 -0.7942 0
M  V30 32 H -2.1885 -1.5382 1.6853 0
M  V30 33 H -1.6974 2.2273 -0.3635 0
M  V30 34 H -5.3324 1.5779 0.2236 0
M  V30 35 H -3.8981 1.9853 -0.7319 0
M  V30 36 H -4.3243 1.7289 2.566 0
M  V30 37 H -3.2357 0.3904 3.0175 0
M  V30 38 H -5.4844 0.3784 -1.8881 0
M  V30 39 H -5.1946 -0.8186 -0.584 0
M  V30 40 H -5.6007 -0.1458 3.5415 0
M  V30 41 H -6.0852 0.0782 1.8314 0
M  V30 42 H -3.3444 0.2441 -2.4744 0
M  V30 END ATOM
M  V30 BEGIN BOND
M  V30 1 1 1 2
M  V30 2 2 2 3
M  V30 3 1 2 4
M  V30 4 1 3 5
M  V30 5 1 3 6
M  V30 6 2 4 7
M  V30 7 2 5 8
M  V30 8 2 6 9
M  V30 9 1 7 10
M  V30 10 1 8 11
M  V30 11 2 10 12
M  V30 12 1 10 13
M  V30 13 2 11 14
M  V30 14 1 11 15
M  V30 15 1 14 16
M  V30 16 2 15 17
M  V30 17 2 16 18
M  V30 18 1 18 19
M  V30 19 1 19 20
M  V30 20 1 19 21
M  V30 21 1 20 22
M  V30 22 1 21 23
M  V30 23 1 22 24
M  V30 24 1 23 25
M  V30 25 3 25 26
M  V30 26 1 7 9
M  V30 27 1 17 18
M  V30 28 1 4 27
M  V30 29 1 6 28
M  V30 30 1 9 29
M  V30 31 1 14 30
M  V30 32 1 15 31
M  V30 33 1 16 32
M  V30 34 1 17 33
M  V30 35 1 20 34
M  V30 36 1 20 35
M  V30 37 1 21 36
M  V30 38 1 21 37
M  V30 39 1 22 38
M  V30 40 1 22 39
M  V30 41 1 23 40
M  V30 42 1 23 41
M  V30 43 1 24 42
M  V30 END BOND
M  V30 END CTAB
M  END
>  <Structure No>
7548

>  <LogS>
-6.13

>  <MMFF94 Energy>
101.66

$$$$
Compound 7549
Actelion Java MolfileCreator 2.0

  0  0  0  0  0  0              0 V3000
M  V30 BEGIN CTAB
M  V30 COUNTS 20 21 0 0 0
M  V30 BEGIN ATOM
M  V30 1 O -3.9052 0.3183 -0.3183 0
M  V30 2 C -2.5196 0.4005 -0.2008 0
M  V30 3 C -1.73 -0.7571 -0.245 0
M  V30 4 C -1.9156 1.6513 -0.0372 0
M  V30 5 C -0.3345 -0.6648 -0.1257 0
M  V30 6 C -0.5269 1.7557 0.0825 0
M  V30 7 C 0.2727 0.6038 0.0397 0
M  V30 8 C 0.4652 -1.8166 -0.1687 0
M  V30 9 C 1.6682 0.6961 0.1589 0
M  V30 10 C 1.8538 -1.7123 -0.0488 0
M  V30 11 C 2.4578 -0.4614 0.1147 0
M  V30 12 O 3.8435 -0.3793 0.2323 0
M  V30 13 H -4.3751 -0.5714 -0.4378 0
M  V30 14 H -2.2052 -1.7228 -0.3719 0
M  V30 15 H -2.525 2.5457 -0.0029 0
M  V30 16 H -0.0794 2.7345 0.2086 0
M  V30 17 H 0.0176 -2.7954 -0.2945 0
M  V30 18 H 2.1433 1.6619 0.286 0
M  V30 19 H 2.4631 -2.6066 -0.083 0
M  V30 20 H 4.3132 0.5106 0.3519 0
M  V30 END ATOM
M  V30 BEGIN BOND
M  V30 1 1 1 2
M  V30 2 2 2 3
M  V30 3 1 2 4
M  V30 4 1 3 5
M  V30 5 2 4 6
M  V30 6 1 5 7
M  V30 7 2 5 8
M  V30 8 2 7 9
M  V30 9 1 8 10
M  V30 10 1 9 11
M  V30 11 1 11 12
M  V30 12 1 6 7
M  V30 13 2 10 11
M  V30 14 1 1 13
M  V30 15 1 3 14
M  V30 16 1 4 15
M  V30 17 1 6 16
M  V30 18 1 8 17
M  V30 19 1 9 18
M  V30 20 1 10 19
M  V30 21 1 12 20
M  V30 END BOND
M  V30 END CTAB
M  END
>  <Structure No>
7549

>  <LogS>
-2.205

>  <MMFF94 Energy>
7.5353

$$$$
Compound 7550
Actelion Java MolfileCreator 2.0

  0  0  0  0  0  0              0 V3000
M  V30 BEGIN CTAB
M  V30 COUNTS 15 15 0 0 0
M  V30 BEGIN ATOM
M  V30 1 O -1.7357 2.2095 0.0 0
M  V30 2 C -1.2364 1.0531 0.0339 0
M  V30 3 C 0.1531 0.8706 -0.021 0
M  V30 4 C -2.0711 -0.0605 0.1274 0
M  V30 5 O 1.0252 1.9574 -0.1148 0
M  V30 6 C 0.6586 -0.4403 0.0202 0
M  V30 7 C -1.4961 -1.3314 0.1635 0
M  V30 8 O -0.1753 -1.4752 0.1097 0
M  V30 9 C 2.1324 -0.6941 -0.0352 0
M  V30 10 H -3.1474 0.0532 0.1715 0
M  V30 11 H 0.6918 2.9136 -0.1465 0
M  V30 12 H -2.1272 -2.2071 0.2359 0
M  V30 13 H 2.6321 -0.2024 0.8258 0
M  V30 14 H 2.5485 -0.2915 -0.9826 0
M  V30 15 H 2.3374 -1.7846 0.009 0
M  V30 END ATOM
M  V30 BEGIN BOND
M  V30 1 2 1 2
M  V30 2 1 2 3
M  V30 3 1 2 4
M  V30 4 1 3 5
M  V30 5 2 3 6
M  V30 6 2 4 7
M  V30 7 1 6 8
M  V30 8 1 6 9
M  V30 9 1 7 8
M  V30 10 1 4 10
M  V30 11 1 5 11
M  V30 12 1 7 12
M  V30 13 1 9 13
M  V30 14 1 9 14
M  V30 15 1 9 15
M  V30 END BOND
M  V30 END CTAB
M  END
>  <Structure No>
7550

>  <LogS>
-1.063

>  <MMFF94 Energy>
33.554

$$$$
Compound 7551
Actelion Java MolfileCreator 2.0

  0  0  0  0  0  0              0 V3000
M  V30 BEGIN CTAB
M  V30 COUNTS 19 19 0 0 0
M  V30 BEGIN ATOM
M  V30 1 O -3.4652 1.6106 -0.4024 0
M  V30 2 C -2.4508 0.8668 -0.3622 0
M  V30 3 O -1.3114 1.0579 -1.1243 0
M  V30 4 C -2.2906 -0.2994 0.4651 0
M  V30 5 C -0.3636 0.0312 -0.8185 0 CFG=2
M  V30 6 O -3.2307 -0.8113 1.3554 0
M  V30 7 C -1.0919 -0.801 0.2147 0
M  V30 8 C 0.9408 0.6646 -0.2952 0 CFG=1
M  V30 9 O -0.5972 -1.96 0.8006 0 CHG=-1
M  V30 10 O 0.6944 1.3393 0.9133 0
M  V30 11 C 2.0495 -0.3806 -0.1027 0
M  V30 12 O 3.2663 0.2641 0.1546 0
M  V30 13 H -0.1736 -0.575 -1.7307 0
M  V30 14 H -3.0394 -1.6436 1.9005 0
M  V30 15 H 1.2819 1.3919 -1.0697 0
M  V30 16 H 1.4174 2.011 1.0227 0
M  V30 17 H 1.7994 -1.0485 0.7502 0
M  V30 18 H 2.1486 -0.9954 -1.0255 0
M  V30 19 H 3.9407 -0.4549 0.2695 0
M  V30 END ATOM
M  V30 BEGIN BOND
M  V30 1 2 1 2
M  V30 2 1 2 3
M  V30 3 1 2 4
M  V30 4 1 3 5
M  V30 5 1 4 6
M  V30 6 2 4 7
M  V30 7 1 5 8
M  V30 8 1 7 9
M  V30 9 1 8 10
M  V30 10 1 8 11
M  V30 11 1 11 12
M  V30 12 1 5 7
M  V30 13 1 5 13
M  V30 14 1 6 14
M  V30 15 1 8 15
M  V30 16 1 10 16
M  V30 17 1 11 17
M  V30 18 1 11 18
M  V30 19 1 12 19
M  V30 END BOND
M  V30 BEGIN COLLECTION
M  V30 MDLV30/STEABS ATOMS=(2 5 8)
M  V30 END COLLECTION
M  V30 END CTAB
M  END
>  <Structure No>
7551

>  <LogS>
0.277

>  <MMFF94 Energy>
63.224

$$$$
Compound 7552
Actelion Java MolfileCreator 2.0

  0  0  0  0  0  0              0 V3000
M  V30 BEGIN CTAB
M  V30 COUNTS 43 46 0 0 0
M  V30 BEGIN ATOM
M  V30 1 O 0.8901 -1.9428 -1.5378 0
M  V30 2 C 1.0755 -1.5984 -0.3374 0
M  V30 3 O -2.0E-4 -1.1885 0.4583 0
M  V30 4 C 2.4643 -1.5525 0.2405 0 CFG=2
M  V30 5 C -1.335 -1.0488 -0.0306 0 CFG=2
M  V30 6 C 3.0364 -0.1552 0.106 0
M  V30 7 C 3.3912 -2.605 -0.3905 0
M  V30 8 C -1.4152 0.1546 -1.0276 0
M  V30 9 C -2.3085 -0.9437 1.1853 0
M  V30 10 C 3.4386 0.5555 1.2515 0
M  V30 11 C 3.1799 0.451 -1.1574 0
M  V30 12 O 4.6309 -2.6006 0.2625 0
M  V30 13 C -2.764 0.9079 -0.9766 0 CFG=2
M  V30 14 C -3.5309 -0.0352 0.92 0 CFG=1
M  V30 15 C 3.9671 1.8447 1.1353 0
M  V30 16 C 3.7084 1.7403 -1.2676 0
M  V30 17 N -3.0115 1.2373 0.4249 0
M  V30 18 C -3.9471 0.0338 -1.4332 0 CFG=2
M  V30 19 C -4.4519 -0.5883 -0.1838 0 CFG=1
M  V30 20 C 4.1013 2.4367 -0.1224 0
M  V30 21 C -3.9873 2.333 0.5753 0
M  V30 22 O -3.849 -1.3516 -1.2019 0
M  V30 23 H 2.3688 -1.8131 1.3184 0
M  V30 24 H -1.5924 -1.9798 -0.5822 0
M  V30 25 H 3.5377 -2.3958 -1.4741 0
M  V30 26 H 2.9259 -3.6113 -0.2865 0
M  V30 27 H -1.2263 -0.2005 -2.0637 0
M  V30 28 H -0.6122 0.8837 -0.78 0
M  V30 29 H -1.7585 -0.52 2.0546 0
M  V30 30 H -2.6524 -1.9585 1.4815 0
M  V30 31 H 3.3432 0.1139 2.2356 0
M  V30 32 H 2.8801 -0.0722 -2.0562 0
M  V30 33 H 5.1819 -3.2924 -0.1875 0
M  V30 34 H -2.6965 1.822 -1.6083 0
M  V30 35 H -4.1026 0.094 1.8665 0
M  V30 36 H 4.2729 2.3851 2.0218 0
M  V30 37 H 3.8134 2.1999 -2.2418 0
M  V30 38 H -4.76 0.3861 -2.1029 0
M  V30 39 H -5.5607 -0.6 -0.1216 0
M  V30 40 H 4.5103 3.4349 -0.2098 0
M  V30 41 H -3.5697 3.2685 0.1462 0
M  V30 42 H -4.9535 2.1079 0.0728 0
M  V30 43 H -4.1789 2.5193 1.6534 0
M  V30 END ATOM
M  V30 BEGIN BOND
M  V30 1 2 1 2
M  V30 2 1 2 3
M  V30 3 1 2 4
M  V30 4 1 3 5
M  V30 5 1 4 6
M  V30 6 1 4 7
M  V30 7 1 5 8
M  V30 8 1 5 9
M  V30 9 2 6 10
M  V30 10 1 6 11
M  V30 11 1 7 12
M  V30 12 1 8 13
M  V30 13 1 9 14
M  V30 14 1 10 15
M  V30 15 2 11 16
M  V30 16 1 13 17
M  V30 17 1 13 18
M  V30 18 1 14 19
M  V30 19 2 15 20
M  V30 20 1 17 21
M  V30 21 1 18 22
M  V30 22 1 14 17
M  V30 23 1 16 20
M  V30 24 1 18 19
M  V30 25 1 19 22
M  V30 26 1 4 23
M  V30 27 1 5 24
M  V30 28 1 7 25
M  V30 29 1 7 26
M  V30 30 1 8 27
M  V30 31 1 8 28
M  V30 32 1 9 29
M  V30 33 1 9 30
M  V30 34 1 10 31
M  V30 35 1 11 32
M  V30 36 1 12 33
M  V30 37 1 13 34
M  V30 38 1 14 35
M  V30 39 1 15 36
M  V30 40 1 16 37
M  V30 41 1 18 38
M  V30 42 1 19 39
M  V30 43 1 20 40
M  V30 44 1 21 41
M  V30 45 1 21 42
M  V30 46 1 21 43
M  V30 END BOND
M  V30 BEGIN COLLECTION
M  V30 MDLV30/STEABS ATOMS=(6 4 5 13 14 18 19)
M  V30 END COLLECTION
M  V30 END CTAB
M  END
>  <Structure No>
7552

>  <LogS>
-0.504

>  <MMFF94 Energy>
72.216

$$$$
Compound 7553
Actelion Java MolfileCreator 2.0

  0  0  0  0  0  0              0 V3000
M  V30 BEGIN CTAB
M  V30 COUNTS 51 54 0 0 0
M  V30 BEGIN ATOM
M  V30 1 O -4.047 -1.6982 -0.9701 0
M  V30 2 C -3.5446 -0.5861 -1.0264 0
M  V30 3 C -3.0938 0.1894 0.1705 0 CFG=2
M  V30 4 C -3.4015 0.1771 -2.2991 0
M  V30 5 C -2.1197 1.214 -0.4722 0 CFG=2
M  V30 6 C -2.4809 -0.6658 1.3082 0
M  V30 7 C -4.3367 0.9115 0.7503 0
M  V30 8 C -2.7397 1.4915 -1.8626 0
M  V30 9 C -0.6123 0.7605 -0.5603 0 CFG=1
M  V30 10 C -1.037 -1.0994 1.0932 0
M  V30 11 C -0.1253 0.1148 0.7688 0 CFG=1
M  V30 12 C -0.2428 -0.1501 -1.7621 0
M  V30 13 C 1.425 -0.2319 0.7612 0 CFG=1
M  V30 14 C 1.2611 -0.4068 -1.8165 0
M  V30 15 C 1.7991 -1.0501 -0.5194 0 CFG=1
M  V30 16 C 2.2647 1.0887 0.8084 0
M  V30 17 C 1.7718 -1.0638 2.0341 0
M  V30 18 C 3.3263 -1.2839 -0.6298 0
M  V30 19 C 3.7835 0.873 0.6699 0
M  V30 20 C 4.141 0.0256 -0.5638 0 CFG=1
M  V30 21 O 5.5186 -0.2522 -0.5851 0
M  V30 22 H -2.7642 -0.3819 -3.0147 0
M  V30 23 H -4.3972 0.3654 -2.7547 0
M  V30 24 H -2.1351 2.1566 0.1218 0
M  V30 25 H -2.5021 -0.0815 2.2563 0
M  V30 26 H -3.1074 -1.5674 1.4854 0
M  V30 27 H -5.0491 0.1728 1.1784 0
M  V30 28 H -4.0397 1.6157 1.5572 0
M  V30 29 H -4.8814 1.4923 -0.0239 0
M  V30 30 H -2.0155 1.8802 -2.607 0
M  V30 31 H -3.5236 2.2738 -1.7613 0
M  V30 32 H -0.0584 1.7087 -0.7153 0
M  V30 33 H -0.9874 -1.8841 0.3129 0
M  V30 34 H -0.738 -1.5784 2.0457 0
M  V30 35 H -0.2853 0.8628 1.5793 0
M  V30 36 H -0.7877 -1.1145 -1.7333 0
M  V30 37 H -0.4961 0.3368 -2.7231 0
M  V30 38 H 1.7675 0.5568 -2.0279 0
M  V30 39 H 1.4702 -1.0826 -2.6745 0
M  V30 40 H 1.3256 -2.0547 -0.4456 0
M  V30 41 H 2.0697 1.6221 1.7648 0
M  V30 42 H 1.9681 1.7823 -9.0E-4 0
M  V30 43 H 2.8583 -1.173 2.2029 0
M  V30 44 H 1.3888 -2.1026 1.9562 0
M  V30 45 H 1.3449 -0.5844 2.9414 0
M  V30 46 H 3.654 -1.9699 0.1799 0
M  V30 47 H 3.5556 -1.8037 -1.5856 0
M  V30 48 H 4.2011 0.4184 1.5911 0
M  V30 49 H 4.273 1.8664 0.5708 0
M  V30 50 H 3.9228 0.6288 -1.4692 0
M  V30 51 H 5.7309 -0.7932 0.2201 0
M  V30 END ATOM
M  V30 BEGIN BOND
M  V30 1 2 1 2
M  V30 2 1 2 3
M  V30 3 1 2 4
M  V30 4 1 3 5
M  V30 5 1 3 6
M  V30 6 1 3 7
M  V30 7 1 4 8
M  V30 8 1 5 9
M  V30 9 1 6 10
M  V30 10 1 9 11
M  V30 11 1 9 12
M  V30 12 1 11 13
M  V30 13 1 12 14
M  V30 14 1 13 15
M  V30 15 1 13 16
M  V30 16 1 13 17
M  V30 17 1 15 18
M  V30 18 1 16 19
M  V30 19 1 18 20
M  V30 20 1 20 21
M  V30 21 1 5 8
M  V30 22 1 10 11
M  V30 23 1 14 15
M  V30 24 1 19 20
M  V30 25 1 4 22
M  V30 26 1 4 23
M  V30 27 1 5 24
M  V30 28 1 6 25
M  V30 29 1 6 26
M  V30 30 1 7 27
M  V30 31 1 7 28
M  V30 32 1 7 29
M  V30 33 1 8 30
M  V30 34 1 8 31
M  V30 35 1 9 32
M  V30 36 1 10 33
M  V30 37 1 10 34
M  V30 38 1 11 35
M  V30 39 1 12 36
M  V30 40 1 12 37
M  V30 41 1 14 38
M  V30 42 1 14 39
M  V30 43 1 15 40
M  V30 44 1 16 41
M  V30 45 1 16 42
M  V30 46 1 17 43
M  V30 47 1 17 44
M  V30 48 1 17 45
M  V30 49 1 18 46
M  V30 50 1 18 47
M  V30 51 1 19 48
M  V30 52 1 19 49
M  V30 53 1 20 50
M  V30 54 1 21 51
M  V30 END BOND
M  V30 BEGIN COLLECTION
M  V30 MDLV30/STEABS ATOMS=(7 3 5 9 11 13 15 20)
M  V30 END COLLECTION
M  V30 END CTAB
M  END
>  <Structure No>
7553

>  <LogS>
-4.402

>  <MMFF94 Energy>
69.049

$$$$
Compound 7554
Actelion Java MolfileCreator 2.0

  0  0  0  0  0  0              0 V3000
M  V30 BEGIN CTAB
M  V30 COUNTS 49 52 0 0 0
M  V30 BEGIN ATOM
M  V30 1 O -5.106 -1.2949 0.4045 0
M  V30 2 C -4.2906 -0.458 0.0483 0
M  V30 3 C -2.8269 -0.531 0.3591 0 CFG=2
M  V30 4 C -4.6635 0.7985 -0.6842 0
M  V30 5 C -2.3015 0.3865 -0.754 0 CFG=1
M  V30 6 C -2.1651 -1.9376 0.2048 0
M  V30 7 C -2.6721 0.0261 1.8017 0
M  V30 8 C -3.3195 1.5152 -0.9049 0
M  V30 9 C -0.7785 0.6617 -0.7267 0 CFG=2
M  V30 10 C -0.7258 -1.8875 -0.4077 0
M  V30 11 C -0.0027 -0.5399 -0.1139 0 CFG=1
M  V30 12 C -0.3268 1.9417 -0.0282 0
M  V30 13 C 1.5243 -0.4534 -0.462 0 CFG=1
M  V30 14 C 1.1836 2.0452 -0.0423 0
M  V30 15 C 2.0253 0.9817 -0.1667 0
M  V30 16 C 2.3168 -1.5075 0.4007 0
M  V30 17 C 1.77 -0.7499 -1.9671 0
M  V30 18 C 3.5141 1.2586 -0.0536 0
M  V30 19 C 3.6085 -0.9905 1.0598 0
M  V30 20 C 4.3571 -0.0111 0.1573 0 CFG=2
M  V30 21 O 5.5799 0.3233 0.7603 0
M  V30 22 H -5.1319 0.5383 -1.6578 0
M  V30 23 H -5.3546 1.421 -0.0768 0
M  V30 24 H -2.4339 -0.1927 -1.7054 0
M  V30 25 H -2.1224 -2.4448 1.1936 0
M  V30 26 H -2.7932 -2.5807 -0.4499 0
M  V30 27 H -3.2888 -0.5779 2.5024 0
M  V30 28 H -1.6454 -0.0097 2.196 0
M  V30 29 H -3.0229 1.0769 1.8726 0
M  V30 30 H -3.1655 2.2962 -0.1299 0
M  V30 31 H -3.2673 1.9791 -1.9139 0
M  V30 32 H -0.4937 0.7861 -1.792 0
M  V30 33 H -0.8075 -2.0246 -1.5072 0
M  V30 34 H -0.1395 -2.7438 -0.0143 0
M  V30 35 H -0.0211 -0.4347 0.9855 0
M  V30 36 H -0.7491 2.8245 -0.5542 0
M  V30 37 H -0.6794 1.961 1.0237 0
M  V30 38 H 1.6006 3.0294 0.1554 0
M  V30 39 H 2.5729 -2.3962 -0.218 0
M  V30 40 H 1.69 -1.9072 1.2273 0
M  V30 41 H 1.3458 -1.7322 -2.2586 0
M  V30 42 H 2.8516 -0.7898 -2.1975 0
M  V30 43 H 1.3457 0.0317 -2.6269 0
M  V30 44 H 3.6817 1.9326 0.8166 0
M  V30 45 H 3.8615 1.7891 -0.9662 0
M  V30 46 H 3.3574 -0.4869 2.0204 0
M  V30 47 H 4.2659 -1.8552 1.2985 0
M  V30 48 H 4.5623 -0.5075 -0.8166 0
M  V30 49 H 6.1262 0.7769 0.066 0
M  V30 END ATOM
M  V30 BEGIN BOND
M  V30 1 2 1 2
M  V30 2 1 2 3
M  V30 3 1 2 4
M  V30 4 1 3 5
M  V30 5 1 3 6
M  V30 6 1 3 7
M  V30 7 1 4 8
M  V30 8 1 5 9
M  V30 9 1 6 10
M  V30 10 1 9 11
M  V30 11 1 9 12
M  V30 12 1 11 13
M  V30 13 1 12 14
M  V30 14 1 13 15
M  V30 15 1 13 16
M  V30 16 1 13 17
M  V30 17 1 15 18
M  V30 18 1 16 19
M  V30 19 1 18 20
M  V30 20 1 20 21
M  V30 21 1 5 8
M  V30 22 1 10 11
M  V30 23 2 14 15
M  V30 24 1 19 20
M  V30 25 1 4 22
M  V30 26 1 4 23
M  V30 27 1 5 24
M  V30 28 1 6 25
M  V30 29 1 6 26
M  V30 30 1 7 27
M  V30 31 1 7 28
M  V30 32 1 7 29
M  V30 33 1 8 30
M  V30 34 1 8 31
M  V30 35 1 9 32
M  V30 36 1 10 33
M  V30 37 1 10 34
M  V30 38 1 11 35
M  V30 39 1 12 36
M  V30 40 1 12 37
M  V30 41 1 14 38
M  V30 42 1 16 39
M  V30 43 1 16 40
M  V30 44 1 17 41
M  V30 45 1 17 42
M  V30 46 1 17 43
M  V30 47 1 18 44
M  V30 48 1 18 45
M  V30 49 1 19 46
M  V30 50 1 19 47
M  V30 51 1 20 48
M  V30 52 1 21 49
M  V30 END BOND
M  V30 BEGIN COLLECTION
M  V30 MDLV30/STEABS ATOMS=(6 3 5 9 11 13 20)
M  V30 END COLLECTION
M  V30 END CTAB
M  END
>  <Structure No>
7554

>  <LogS>
-4.122

>  <MMFF94 Energy>
81.825

$$$$
Compound 7555
Actelion Java MolfileCreator 2.0

  0  0  0  0  0  0              0 V3000
M  V30 BEGIN CTAB
M  V30 COUNTS 28 29 0 0 0
M  V30 BEGIN ATOM
M  V30 1 O 1.269 1.9834 1.7452 0
M  V30 2 C 1.7519 0.9153 1.2843 0
M  V30 3 O 1.7905 -0.2196 2.0844 0 CHG=-1
M  V30 4 C 2.2498 0.8504 -0.1368 0 CFG=2
M  V30 5 N 3.1783 1.9555 -0.4039 0 CHG=1
M  V30 6 C 1.0756 0.8783 -1.1361 0
M  V30 7 C 0.2143 -0.347 -1.0134 0
M  V30 8 C -0.9419 -0.5002 -0.2721 0
M  V30 9 C 0.4824 -1.5999 -1.556 0
M  V30 10 C -1.3263 -1.8098 -0.4045 0
M  V30 11 C -1.6655 0.4016 0.5088 0
M  V30 12 N -0.4674 -2.4882 -1.185 0
M  V30 13 C -2.4617 -2.3078 0.2317 0
M  V30 14 C -2.8206 -0.0719 1.1652 0
M  V30 15 C -3.2144 -1.422 1.0238 0
M  V30 16 O -3.5822 0.7833 1.9578 0
M  V30 17 H 2.803 -0.1071 -0.2704 0
M  V30 18 H 3.5854 1.8514 -1.3617 0
M  V30 19 H 3.9629 1.9358 0.2879 0
M  V30 20 H 2.6859 2.8769 -0.341 0
M  V30 21 H 1.4759 0.9183 -2.1721 0
M  V30 22 H 0.4623 1.793 -0.9864 0
M  V30 23 H 1.333 -1.8493 -2.1766 0
M  V30 24 H -1.3518 1.4322 0.6098 0
M  V30 25 H -0.5124 -3.4991 -1.4428 0
M  V30 26 H -2.7547 -3.344 0.1233 0
M  V30 27 H -4.1011 -1.7809 1.5303 0
M  V30 28 H -3.328 1.7564 2.0813 0
M  V30 END ATOM
M  V30 BEGIN BOND
M  V30 1 2 1 2
M  V30 2 1 2 3
M  V30 3 1 2 4
M  V30 4 1 4 5
M  V30 5 1 4 6
M  V30 6 1 6 7
M  V30 7 1 7 8
M  V30 8 2 7 9
M  V30 9 2 8 10
M  V30 10 1 8 11
M  V30 11 1 9 12
M  V30 12 1 10 13
M  V30 13 2 11 14
M  V30 14 2 13 15
M  V30 15 1 14 16
M  V30 16 1 10 12
M  V30 17 1 14 15
M  V30 18 1 4 17
M  V30 19 1 5 18
M  V30 20 1 5 19
M  V30 21 1 5 20
M  V30 22 1 6 21
M  V30 23 1 6 22
M  V30 24 1 9 23
M  V30 25 1 11 24
M  V30 26 1 12 25
M  V30 27 1 13 26
M  V30 28 1 15 27
M  V30 29 1 16 28
M  V30 END BOND
M  V30 BEGIN COLLECTION
M  V30 MDLV30/STEABS ATOMS=(1 4)
M  V30 END COLLECTION
M  V30 END CTAB
M  END
>  <Structure No>
7555

>  <LogS>
-1.343

>  <MMFF94 Energy>
-6.5404

$$$$
Compound 7556
Actelion Java MolfileCreator 2.0

  0  0  0  0  0  0              0 V3000
M  V30 BEGIN CTAB
M  V30 COUNTS 12 11 0 0 0
M  V30 BEGIN ATOM
M  V30 1 O 1.9162 1.0727 0.0765 0
M  V30 2 C 1.4447 0.0868 -0.4675 0
M  V30 3 C 0.21 -0.5712 0.0817 0 CFG=2
M  V30 4 O 0.0315 -1.8047 -0.5632 0
M  V30 5 C -1.0296 0.3089 -0.139 0
M  V30 6 O -0.9572 1.4744 0.6393 0
M  V30 7 H 1.9407 -0.3248 -1.3411 0
M  V30 8 H 0.3584 -0.7384 1.1744 0
M  V30 9 H -0.5792 -2.342 0.0065 0
M  V30 10 H -1.1483 0.5507 -1.2216 0
M  V30 11 H -1.9334 -0.256 0.1735 0
M  V30 12 H -0.5606 2.1814 0.0664 0
M  V30 END ATOM
M  V30 BEGIN BOND
M  V30 1 2 1 2
M  V30 2 1 2 3
M  V30 3 1 3 4
M  V30 4 1 3 5
M  V30 5 1 5 6
M  V30 6 1 2 7
M  V30 7 1 3 8
M  V30 8 1 4 9
M  V30 9 1 5 10
M  V30 10 1 5 11
M  V30 11 1 6 12
M  V30 END BOND
M  V30 BEGIN COLLECTION
M  V30 MDLV30/STEABS ATOMS=(1 3)
M  V30 END COLLECTION
M  V30 END CTAB
M  END
>  <Structure No>
7556

>  <LogS>
-0.489

>  <MMFF94 Energy>
39.476

$$$$
Compound 7557
Actelion Java MolfileCreator 2.0

  0  0  0  0  0  0              0 V3000
M  V30 BEGIN CTAB
M  V30 COUNTS 31 32 0 0 0
M  V30 BEGIN ATOM
M  V30 1 S -0.987 -1.6455 -2.2219 0
M  V30 2 C -0.4439 -0.3289 -1.0285 0 CFG=1
M  V30 3 C -2.7839 -1.4357 -1.8363 0
M  V30 4 C -1.6854 -0.1205 -0.1808 0 CFG=2
M  V30 5 C 0.7746 -0.8288 -0.2338 0
M  V30 6 C -2.8161 -0.0889 -1.1709 0 CFG=2
M  V30 7 N -1.8983 1.0923 0.5877 0
M  V30 8 C 1.3194 0.2296 0.7381 0
M  V30 9 N -3.9532 0.3342 -0.3757 0
M  V30 10 C -3.3203 1.2293 0.5434 0
M  V30 11 C 2.5915 -0.2343 1.472 0
M  V30 12 O -3.9457 2.1173 1.1799 0
M  V30 13 C 3.8458 -0.3014 0.5856 0
M  V30 14 C 4.2248 1.044 0.0476 0
M  V30 15 O 3.978 1.34 -1.1511 0
M  V30 16 O 4.8229 1.9824 0.8791 0 CHG=-1
M  V30 17 H -0.1876 0.5962 -1.5913 0
M  V30 18 H -3.1288 -2.2375 -1.1481 0
M  V30 19 H -3.3898 -1.4373 -2.7667 0
M  V30 20 H -1.8034 -0.988 0.5151 0
M  V30 21 H 0.5094 -1.751 0.3288 0
M  V30 22 H 1.5625 -1.0948 -0.968 0
M  V30 23 H -2.639 0.69 -1.9549 0
M  V30 24 H -1.219 1.8679 0.7514 0
M  V30 25 H 0.5498 0.4284 1.5131 0
M  V30 26 H 1.509 1.1837 0.2013 0
M  V30 27 H -4.9264 0.4492 -0.7363 0
M  V30 28 H 2.4123 -1.2363 1.9196 0
M  V30 29 H 2.789 0.4644 2.3147 0
M  V30 30 H 4.6908 -0.6808 1.1992 0
M  V30 31 H 3.705 -1.023 -0.2454 0
M  V30 END ATOM
M  V30 BEGIN BOND
M  V30 1 1 1 2
M  V30 2 1 1 3
M  V30 3 1 2 4
M  V30 4 1 2 5
M  V30 5 1 3 6
M  V30 6 1 4 7
M  V30 7 1 5 8
M  V30 8 1 6 9
M  V30 9 1 7 10
M  V30 10 1 8 11
M  V30 11 2 10 12
M  V30 12 1 11 13
M  V30 13 1 13 14
M  V30 14 2 14 15
M  V30 15 1 14 16
M  V30 16 1 4 6
M  V30 17 1 9 10
M  V30 18 1 2 17
M  V30 19 1 3 18
M  V30 20 1 3 19
M  V30 21 1 4 20
M  V30 22 1 5 21
M  V30 23 1 5 22
M  V30 24 1 6 23
M  V30 25 1 7 24
M  V30 26 1 8 25
M  V30 27 1 8 26
M  V30 28 1 9 27
M  V30 29 1 11 28
M  V30 30 1 11 29
M  V30 31 1 13 30
M  V30 32 1 13 31
M  V30 END BOND
M  V30 BEGIN COLLECTION
M  V30 MDLV30/STEABS ATOMS=(3 2 4 6)
M  V30 END COLLECTION
M  V30 END CTAB
M  END
>  <Structure No>
7557

>  <LogS>
-3.046

>  <MMFF94 Energy>
-19.427

$$$$
Compound 7558
Actelion Java MolfileCreator 2.0

  0  0  0  0  0  0              0 V3000
M  V30 BEGIN CTAB
M  V30 COUNTS 15 14 0 0 0
M  V30 BEGIN ATOM
M  V30 1 S 1.1438 -0.49 -0.1633 0
M  V30 2 O 0.9405 -1.9796 -0.191 0
M  V30 3 O 1.3049 0.0269 -1.566 0
M  V30 4 O -0.1638 0.2706 0.6002 0
M  V30 5 C 2.6227 -0.1295 0.7548 0
M  V30 6 C -1.3331 -0.0158 -0.1277 0
M  V30 7 C -2.5178 0.6602 0.5449 0
M  V30 8 H 3.4913 -0.62 0.2693 0
M  V30 9 H 2.5167 -0.5092 1.7919 0
M  V30 10 H 2.785 0.9677 0.7798 0
M  V30 11 H -1.5258 -1.1116 -0.1502 0
M  V30 12 H -1.2561 0.373 -1.1675 0
M  V30 13 H -2.6316 0.2829 1.5833 0
M  V30 14 H -3.4472 0.4408 -0.0216 0
M  V30 15 H -2.3634 1.7598 0.5714 0
M  V30 END ATOM
M  V30 BEGIN BOND
M  V30 1 2 1 2
M  V30 2 2 1 3
M  V30 3 1 1 4
M  V30 4 1 1 5
M  V30 5 1 4 6
M  V30 6 1 6 7
M  V30 7 1 5 8
M  V30 8 1 5 9
M  V30 9 1 5 10
M  V30 10 1 6 11
M  V30 11 1 6 12
M  V30 12 1 7 13
M  V30 13 1 7 14
M  V30 14 1 7 15
M  V30 END BOND
M  V30 END CTAB
M  END
>  <Structure No>
7558

>  <LogS>
0.402

>  <MMFF94 Energy>
-25.075

$$$$
Compound 7559
Actelion Java MolfileCreator 2.0

  0  0  0  0  0  0              0 V3000
M  V30 BEGIN CTAB
M  V30 COUNTS 13 12 0 0 0
M  V30 BEGIN ATOM
M  V30 1 S -2.223 -0.94 0.0854 0
M  V30 2 C -0.6005 -0.1728 0.4076 0 CFG=2
M  V30 3 C -0.7757 1.3131 0.5394 0
M  V30 4 C 0.3842 -0.5293 -0.7175 0
M  V30 5 O -1.244 1.9896 -0.4148 0
M  V30 6 O -0.4133 1.952 1.7187 0 CHG=-1
M  V30 7 C 1.7655 -0.0317 -0.4172 0
M  V30 8 O 2.5243 -0.6891 0.3427 0
M  V30 9 O 2.1992 1.1787 -0.9431 0 CHG=-1
M  V30 10 H -1.7378 -2.247 0.2839 0
M  V30 11 H -0.2197 -0.5803 1.3701 0
M  V30 12 H 0.0365 -0.1008 -1.6829 0
M  V30 13 H 0.4256 -1.6338 -0.838 0
M  V30 END ATOM
M  V30 BEGIN BOND
M  V30 1 1 1 2
M  V30 2 1 2 3
M  V30 3 1 2 4
M  V30 4 2 3 5
M  V30 5 1 3 6
M  V30 6 1 4 7
M  V30 7 2 7 8
M  V30 8 1 7 9
M  V30 9 1 1 10
M  V30 10 1 2 11
M  V30 11 1 4 12
M  V30 12 1 4 13
M  V30 END BOND
M  V30 BEGIN COLLECTION
M  V30 MDLV30/STEABS ATOMS=(1 2)
M  V30 END COLLECTION
M  V30 END CTAB
M  END
>  <Structure No>
7559

>  <LogS>
0.522

>  <MMFF94 Energy>
101.31

$$$$
Compound 7560
Actelion Java MolfileCreator 2.0

  0  0  0  0  0  0              0 V3000
M  V30 BEGIN CTAB
M  V30 COUNTS 22 22 0 0 0
M  V30 BEGIN ATOM
M  V30 1 O -1.8046 0.0 -2.4329 0
M  V30 2 C -1.5168 -0.2726 -1.2352 0
M  V30 3 C -0.1035 -0.1495 -0.777 0
M  V30 4 C -2.6391 -0.6816 -0.3186 0
M  V30 5 C 0.2536 -0.2932 0.5794 0
M  V30 6 C 0.9129 0.1225 -1.7137 0
M  V30 7 C -3.1965 0.5233 0.4331 0
M  V30 8 C 1.5871 -0.1711 0.9816 0
M  V30 9 C 2.2449 0.2434 -1.3078 0
M  V30 10 C 2.5884 0.0969 0.041 0
M  V30 11 N 3.9515 0.2213 0.4552 0
M  V30 12 H -3.4577 -1.1343 -0.9198 0
M  V30 13 H -2.3021 -1.4608 0.3962 0
M  V30 14 H -0.4873 -0.4916 1.3403 0
M  V30 15 H 0.6806 0.2393 -2.7649 0
M  V30 16 H -4.0222 0.1957 1.0992 0
M  V30 17 H -2.4084 0.9991 1.0537 0
M  V30 18 H -3.5949 1.2723 -0.2842 0
M  V30 19 H 1.8394 -0.2837 2.0287 0
M  V30 20 H 3.0095 0.4513 -2.0459 0
M  V30 21 H 4.7053 0.4216 -0.2394 0
M  V30 22 H 4.217 0.1139 1.4596 0
M  V30 END ATOM
M  V30 BEGIN BOND
M  V30 1 2 1 2
M  V30 2 1 2 3
M  V30 3 1 2 4
M  V30 4 2 3 5
M  V30 5 1 3 6
M  V30 6 1 4 7
M  V30 7 1 5 8
M  V30 8 2 6 9
M  V30 9 2 8 10
M  V30 10 1 10 11
M  V30 11 1 9 10
M  V30 12 1 4 12
M  V30 13 1 4 13
M  V30 14 1 5 14
M  V30 15 1 6 15
M  V30 16 1 7 16
M  V30 17 1 7 17
M  V30 18 1 7 18
M  V30 19 1 8 19
M  V30 20 1 9 20
M  V30 21 1 11 21
M  V30 22 1 11 22
M  V30 END BOND
M  V30 END CTAB
M  END
>  <Structure No>
7560

>  <LogS>
-2.627

>  <MMFF94 Energy>
24.657

$$$$
Compound 7561
Actelion Java MolfileCreator 2.0

  0  0  0  0  0  0              0 V3000
M  V30 BEGIN CTAB
M  V30 COUNTS 6 5 0 0 0
M  V30 BEGIN ATOM
M  V30 1 Cl 0.9518 -1.7456 0.5551 0
M  V30 2 C 0.4018 -0.0796 0.4785 0
M  V30 3 C -0.502 0.294 -0.4255 0
M  V30 4 H 0.8055 0.6468 1.1762 0
M  V30 5 H -0.8367 1.3254 -0.4664 0
M  V30 6 H -0.912 -0.4245 -1.1278 0
M  V30 END ATOM
M  V30 BEGIN BOND
M  V30 1 1 1 2
M  V30 2 2 2 3
M  V30 3 1 2 4
M  V30 4 1 3 5
M  V30 5 1 3 6
M  V30 END BOND
M  V30 END CTAB
M  END
>  <Structure No>
7561

>  <LogS>
-1.36

>  <MMFF94 Energy>
1.6254

$$$$
Compound 7562
Actelion Java MolfileCreator 2.0

  0  0  0  0  0  0              0 V3000
M  V30 BEGIN CTAB
M  V30 COUNTS 6 5 0 0 0
M  V30 BEGIN ATOM
M  V30 1 F -1.4872 -0.8921 0.2229 0
M  V30 2 C -0.6491 0.1613 0.0406 0
M  V30 3 C 0.6649 -0.0345 -0.0442 0
M  V30 4 H -1.0569 1.164 -0.0352 0
M  V30 5 H 1.3339 0.8072 -0.1899 0
M  V30 6 H 1.0763 -1.0359 0.0313 0
M  V30 END ATOM
M  V30 BEGIN BOND
M  V30 1 1 1 2
M  V30 2 2 2 3
M  V30 3 1 2 4
M  V30 4 1 3 5
M  V30 5 1 3 6
M  V30 END BOND
M  V30 END CTAB
M  END
>  <Structure No>
7562

>  <LogS>
-0.276

>  <MMFF94 Energy>
0.8866

$$$$
Compound 7563
Actelion Java MolfileCreator 2.0

  0  0  0  0  0  0              0 V3000
M  V30 BEGIN CTAB
M  V30 COUNTS 8 7 0 0 0
M  V30 BEGIN ATOM
M  V30 1 Cl 1.1875 1.8274 0.0913 0
M  V30 2 C 0.7696 0.0956 0.0062 0
M  V30 3 F 1.2491 -0.4231 -1.1828 0
M  V30 4 F 1.3742 -0.5636 1.0612 0
M  V30 5 C -0.7435 -0.0963 0.0786 0
M  V30 6 F -1.2304 0.4135 1.2692 0
M  V30 7 F -1.3556 0.5541 -0.978 0
M  V30 8 F -1.0454 -1.4445 0.011 0
M  V30 END ATOM
M  V30 BEGIN BOND
M  V30 1 1 1 2
M  V30 2 1 2 3
M  V30 3 1 2 4
M  V30 4 1 2 5
M  V30 5 1 5 6
M  V30 6 1 5 7
M  V30 7 1 5 8
M  V30 END BOND
M  V30 END CTAB
M  END
>  <Structure No>
7563

>  <LogS>
-3.411

>  <MMFF94 Energy>
77.098

$$$$
Compound 7564
Actelion Java MolfileCreator 2.0

  0  0  0  0  0  0              0 V3000
M  V30 BEGIN CTAB
M  V30 COUNTS 11 10 0 0 0
M  V30 BEGIN ATOM
M  V30 1 F -1.4152 1.4152 -0.4421 0
M  V30 2 C -1.2739 0.0648 -0.1749 0
M  V30 3 F -2.31 -0.3309 0.6519 0
M  V30 4 F -1.361 -0.6442 -1.3599 0
M  V30 5 C 0.0673 -0.2106 0.5224 0
M  V30 6 F 0.1019 0.4868 1.7185 0
M  V30 7 F 0.1558 -1.5637 0.8045 0
M  V30 8 C 1.2794 0.2003 -0.3278 0
M  V30 9 F 2.4424 -0.0789 0.3673 0
M  V30 10 F 1.2991 -0.5031 -1.5193 0
M  V30 11 F 1.2448 1.5563 -0.6012 0
M  V30 END ATOM
M  V30 BEGIN BOND
M  V30 1 1 1 2
M  V30 2 1 2 3
M  V30 3 1 2 4
M  V30 4 1 2 5
M  V30 5 1 5 6
M  V30 6 1 5 7
M  V30 7 1 5 8
M  V30 8 1 8 9
M  V30 9 1 8 10
M  V30 10 1 8 11
M  V30 END BOND
M  V30 END CTAB
M  END
>  <Structure No>
7564

>  <LogS>
-4.518

>  <MMFF94 Energy>
45.743

$$$$
Compound 7565
Actelion Java MolfileCreator 2.0

  0  0  0  0  0  0              0 V3000
M  V30 BEGIN CTAB
M  V30 COUNTS 24 24 0 0 0
M  V30 BEGIN ATOM
M  V30 1 O -2.4911 -1.4459 1.8478 0
M  V30 2 C -2.4887 -1.0576 0.6488 0
M  V30 3 O -3.6793 -1.0709 -0.0688 0 CHG=-1
M  V30 4 C -1.2238 -0.5136 0.0167 0 CFG=1
M  V30 5 O -1.3943 -0.4499 -1.3808 0
M  V30 6 C -0.9833 0.9157 0.5525 0
M  V30 7 C -0.0107 -1.4182 0.3694 0
M  V30 8 C 0.3487 1.5199 0.0627 0 CFG=2
M  V30 9 C 1.3245 -0.8387 -0.1292 0 CFG=2
M  V30 10 O 0.309 1.759 -1.3213 0
M  V30 11 C 1.5332 0.5931 0.4095 0 CFG=1
M  V30 12 O 1.359 -0.8609 -1.5343 0
M  V30 13 O 2.7302 1.1201 -0.1024 0
M  V30 14 H -1.5257 -1.376 -1.716 0
M  V30 15 H -0.9715 0.9004 1.6659 0
M  V30 16 H -1.8217 1.5787 0.2437 0
M  V30 17 H -0.1539 -2.433 -0.0627 0
M  V30 18 H 0.0584 -1.5418 1.4734 0
M  V30 19 H 0.5073 2.4869 0.5954 0
M  V30 20 H 2.1387 -1.4881 0.2707 0
M  V30 21 H -0.2787 2.5473 -1.4599 0
M  V30 22 H 1.6132 0.5254 1.5209 0
M  V30 23 H 2.3147 -0.843 -1.802 0
M  V30 24 H 2.9648 1.9023 0.4624 0
M  V30 END ATOM
M  V30 BEGIN BOND
M  V30 1 2 1 2
M  V30 2 1 2 3
M  V30 3 1 2 4
M  V30 4 1 4 5
M  V30 5 1 4 6
M  V30 6 1 4 7
M  V30 7 1 6 8
M  V30 8 1 7 9
M  V30 9 1 8 10
M  V30 10 1 8 11
M  V30 11 1 9 12
M  V30 12 1 11 13
M  V30 13 1 9 11
M  V30 14 1 5 14
M  V30 15 1 6 15
M  V30 16 1 6 16
M  V30 17 1 7 17
M  V30 18 1 7 18
M  V30 19 1 8 19
M  V30 20 1 9 20
M  V30 21 1 10 21
M  V30 22 1 11 22
M  V30 23 1 12 23
M  V30 24 1 13 24
M  V30 END BOND
M  V30 BEGIN COLLECTION
M  V30 MDLV30/STEABS ATOMS=(4 4 8 9 11)
M  V30 END COLLECTION
M  V30 END CTAB
M  END
>  <Structure No>
7565

>  <LogS>
0.179

>  <MMFF94 Energy>
89.961

$$$$
Compound 7566
Actelion Java MolfileCreator 2.0

  0  0  0  0  0  0              0 V3000
M  V30 BEGIN CTAB
M  V30 COUNTS 17 16 0 0 0
M  V30 BEGIN ATOM
M  V30 1 C 0.5326 0.2282 -0.5326 0
M  V30 2 C -0.9299 -0.2018 -0.7933 0
M  V30 3 C 0.6263 1.4816 0.3479 0
M  V30 4 C 1.384 -0.9107 0.0441 0
M  V30 5 C -1.709 -0.6078 0.4608 0
M  V30 6 H 0.9682 0.4918 -1.522 0
M  V30 7 H -1.4701 0.6337 -1.2895 0
M  V30 8 H -0.9347 -1.0567 -1.5042 0
M  V30 9 H -0.0193 2.2884 -0.0594 0
M  V30 10 H 1.6732 1.8528 0.3651 0
M  V30 11 H 0.3185 1.2625 1.3919 0
M  V30 12 H 1.0824 -1.1494 1.0856 0
M  V30 13 H 1.2828 -1.8228 -0.5814 0
M  V30 14 H 2.4546 -0.6143 0.0519 0
M  V30 15 H -1.7804 0.2374 1.1755 0
M  V30 16 H -1.2365 -1.4798 0.9574 0
M  V30 17 H -2.7408 -0.8976 0.1705 0
M  V30 END ATOM
M  V30 BEGIN BOND
M  V30 1 1 1 2
M  V30 2 1 1 3
M  V30 3 1 1 4
M  V30 4 1 2 5
M  V30 5 1 1 6
M  V30 6 1 2 7
M  V30 7 1 2 8
M  V30 8 1 3 9
M  V30 9 1 3 10
M  V30 10 1 3 11
M  V30 11 1 4 12
M  V30 12 1 4 13
M  V30 13 1 4 14
M  V30 14 1 5 15
M  V30 15 1 5 16
M  V30 16 1 5 17
M  V30 END BOND
M  V30 END CTAB
M  END
>  <Structure No>
7566

>  <LogS>
-3.163

>  <MMFF94 Energy>
0.3305

$$$$
Compound 7567
Actelion Java MolfileCreator 2.0

  0  0  0  0  0  0              0 V3000
M  V30 BEGIN CTAB
M  V30 COUNTS 13 12 0 0 0
M  V30 BEGIN ATOM
M  V30 1 O 1.3223 -1.1667 -1.3223 0
M  V30 2 N 1.4168 -0.4134 -0.3306 0 CHG=1
M  V30 3 O 2.6578 0.0372 0.0544 0 CHG=-1
M  V30 4 C 0.2185 0.1395 0.3003 0
M  V30 5 C -0.4517 1.1482 -0.6352 0
M  V30 6 C -0.7505 -0.981 0.6892 0
M  V30 7 H 0.5138 0.6727 1.2312 0
M  V30 8 H -0.784 0.6528 -1.5725 0
M  V30 9 H -1.3332 1.6056 -0.1373 0
M  V30 10 H 0.2643 1.9574 -0.8924 0
M  V30 11 H -1.1115 -1.5212 -0.212 0
M  V30 12 H -1.6255 -0.5594 1.2284 0
M  V30 13 H -0.2406 -1.704 1.3606 0
M  V30 END ATOM
M  V30 BEGIN BOND
M  V30 1 2 1 2
M  V30 2 1 2 3
M  V30 3 1 2 4
M  V30 4 1 4 5
M  V30 5 1 4 6
M  V30 6 1 4 7
M  V30 7 1 5 8
M  V30 8 1 5 9
M  V30 9 1 5 10
M  V30 10 1 6 11
M  V30 11 1 6 12
M  V30 12 1 6 13
M  V30 END BOND
M  V30 END CTAB
M  END
>  <Structure No>
7567

>  <LogS>
-0.615

>  <MMFF94 Energy>
4.9196

$$$$
Compound 7568
Actelion Java MolfileCreator 2.0

  0  0  0  0  0  0              0 V3000
M  V30 BEGIN CTAB
M  V30 COUNTS 36 37 0 0 0
M  V30 BEGIN ATOM
M  V30 1 S -1.4553 1.9408 -1.0509 0
M  V30 2 O -1.7214 3.314 -0.499 0
M  V30 3 O -1.2901 2.0608 -2.5406 0
M  V30 4 C 0.0103 1.2804 -0.3364 0
M  V30 5 C -2.8045 0.8741 -0.6809 0
M  V30 6 C 0.3772 1.6301 0.9682 0
M  V30 7 C 0.7964 0.3724 -1.0555 0
M  V30 8 C -3.1189 -0.1879 -1.5395 0
M  V30 9 C -3.5485 1.0599 0.4922 0
M  V30 10 C 1.5307 1.0896 1.5432 0
M  V30 11 C 1.9507 -0.1698 -0.4825 0
M  V30 12 C -4.1784 -1.0482 -1.2353 0
M  V30 13 C -4.608 0.1998 0.7966 0
M  V30 14 C 2.3344 0.1896 0.8248 0
M  V30 15 C -4.9292 -0.8575 -0.0664 0
M  V30 16 N 3.5142 -0.351 1.4527 0
M  V30 17 N -6.0121 -1.7378 0.2453 0
M  V30 18 C 4.5137 -1.18 0.7775 0
M  V30 19 C 5.3771 -0.3309 -0.1582 0
M  V30 20 O 6.3249 -1.1352 -0.8057 0
M  V30 21 H -0.2308 2.3173 1.5429 0
M  V30 22 H 0.5132 0.0787 -2.0583 0
M  V30 23 H -2.5426 -0.3527 -2.441 0
M  V30 24 H -3.3066 1.8666 1.1725 0
M  V30 25 H 1.7993 1.3742 2.5529 0
M  V30 26 H 2.529 -0.8711 -1.0662 0
M  V30 27 H -4.4124 -1.8638 -1.9078 0
M  V30 28 H -5.1763 0.3554 1.7052 0
M  V30 29 H 3.6713 -0.1519 2.467 0
M  V30 30 H -6.258 -2.529 -0.3905 0
M  V30 31 H -6.5762 -1.6046 1.1144 0
M  V30 32 H 5.1736 -1.6433 1.5432 0
M  V30 33 H 4.0222 -2.0082 0.2249 0
M  V30 34 H 4.7421 0.1521 -0.929 0
M  V30 35 H 5.8832 0.4765 0.4188 0
M  V30 36 H 7.0392 -1.3232 -0.142 0
M  V30 END ATOM
M  V30 BEGIN BOND
M  V30 1 2 1 2
M  V30 2 2 1 3
M  V30 3 1 1 4
M  V30 4 1 1 5
M  V30 5 2 4 6
M  V30 6 1 4 7
M  V30 7 2 5 8
M  V30 8 1 5 9
M  V30 9 1 6 10
M  V30 10 2 7 11
M  V30 11 1 8 12
M  V30 12 2 9 13
M  V30 13 2 10 14
M  V30 14 2 12 15
M  V30 15 1 14 16
M  V30 16 1 15 17
M  V30 17 1 16 18
M  V30 18 1 18 19
M  V30 19 1 19 20
M  V30 20 1 11 14
M  V30 21 1 13 15
M  V30 22 1 6 21
M  V30 23 1 7 22
M  V30 24 1 8 23
M  V30 25 1 9 24
M  V30 26 1 10 25
M  V30 27 1 11 26
M  V30 28 1 12 27
M  V30 29 1 13 28
M  V30 30 1 16 29
M  V30 31 1 17 30
M  V30 32 1 17 31
M  V30 33 1 18 32
M  V30 34 1 18 33
M  V30 35 1 19 34
M  V30 36 1 19 35
M  V30 37 1 20 36
M  V30 END BOND
M  V30 END CTAB
M  END
>  <Structure No>
7568

>  <LogS>
-2.597

>  <MMFF94 Energy>
92.51

$$$$
Compound 7569
Actelion Java MolfileCreator 2.0

  0  0  0  0  0  0              0 V3000
M  V30 BEGIN CTAB
M  V30 COUNTS 32 32 0 0 0
M  V30 BEGIN ATOM
M  V30 1 O 2.4428 -1.6543 0.4724 0
M  V30 2 C 2.2638 -0.3205 0.0522 0 CFG=1
M  V30 3 C 1.5913 -0.2795 -1.3612 0
M  V30 4 C 1.4334 0.4529 1.1092 0
M  V30 5 C 3.663 0.3125 -0.0284 0
M  V30 6 C 0.1444 0.2441 -1.3492 0
M  V30 7 C -0.0361 -0.0069 1.1898 0
M  V30 8 C -0.6631 -0.3754 -0.1884 0 CFG=1
M  V30 9 C -2.2013 -0.0903 -0.3006 0
M  V30 10 O -2.6534 -0.6702 -1.5044 0
M  V30 11 C -2.5191 1.4247 -0.3248 0
M  V30 12 C -2.9555 -0.7574 0.8722 0
M  V30 13 H 1.5618 -2.1082 0.4666 0
M  V30 14 H 2.1674 0.3616 -2.0647 0
M  V30 15 H 1.5974 -1.2984 -1.8075 0
M  V30 16 H 1.9007 0.343 2.1127 0
M  V30 17 H 1.4458 1.5385 0.8625 0
M  V30 18 H 4.1678 0.2656 0.9606 0
M  V30 19 H 4.2909 -0.2361 -0.7631 0
M  V30 20 H 3.5991 1.3771 -0.342 0
M  V30 21 H -0.3263 9.0E-4 -2.326 0
M  V30 22 H 0.165 1.351 -1.2508 0
M  V30 23 H -0.0987 -0.8934 1.8585 0
M  V30 24 H -0.6029 0.8002 1.6942 0
M  V30 25 H -0.5566 -1.4787 -0.3007 0
M  V30 26 H -3.6252 -0.4855 -1.5974 0
M  V30 27 H -2.1184 1.9502 0.5642 0
M  V30 28 H -3.6183 1.5863 -0.3418 0
M  V30 29 H -2.105 1.8992 -1.2384 0
M  V30 30 H -2.695 -0.2878 1.8437 0
M  V30 31 H -4.0539 -0.658 0.7368 0
M  V30 32 H -2.7122 -1.8403 0.9218 0
M  V30 END ATOM
M  V30 BEGIN BOND
M  V30 1 1 1 2
M  V30 2 1 2 3
M  V30 3 1 2 4
M  V30 4 1 2 5
M  V30 5 1 3 6
M  V30 6 1 4 7
M  V30 7 1 6 8
M  V30 8 1 8 9
M  V30 9 1 9 10
M  V30 10 1 9 11
M  V30 11 1 9 12
M  V30 12 1 7 8
M  V30 13 1 1 13
M  V30 14 1 3 14
M  V30 15 1 3 15
M  V30 16 1 4 16
M  V30 17 1 4 17
M  V30 18 1 5 18
M  V30 19 1 5 19
M  V30 20 1 5 20
M  V30 21 1 6 21
M  V30 22 1 6 22
M  V30 23 1 7 23
M  V30 24 1 7 24
M  V30 25 1 8 25
M  V30 26 1 10 26
M  V30 27 1 11 27
M  V30 28 1 11 28
M  V30 29 1 11 29
M  V30 30 1 12 30
M  V30 31 1 12 31
M  V30 32 1 12 32
M  V30 END BOND
M  V30 BEGIN COLLECTION
M  V30 MDLV30/STEABS ATOMS=(2 2 8)
M  V30 END COLLECTION
M  V30 END CTAB
M  END
>  <Structure No>
7569

>  <LogS>
-1.634

>  <MMFF94 Energy>
30.852

$$$$
Compound 7570
Actelion Java MolfileCreator 2.0

  0  0  0  0  0  0              0 V3000
M  V30 BEGIN CTAB
M  V30 COUNTS 42 43 0 0 0
M  V30 BEGIN ATOM
M  V30 1 O 3.0076 4.1174 0.0 0
M  V30 2 C 2.4712 2.8401 -0.1446 0
M  V30 3 C 1.597 2.5741 -1.2012 0
M  V30 4 C 2.7983 1.8214 0.7581 0
M  V30 5 C 1.0505 1.2978 -1.3583 0
M  V30 6 C 2.2529 0.5438 0.6054 0
M  V30 7 C 1.3694 0.2651 -0.4563 0
M  V30 8 C 0.7402 -1.1125 -0.6391 0 CFG=2
M  V30 9 C -0.4677 -1.3728 0.3158 0 CFG=2
M  V30 10 C 1.7853 -2.2567 -0.5991 0
M  V30 11 C -1.6254 -0.4336 -0.0082 0
M  V30 12 C -0.1065 -1.3782 1.8246 0
M  V30 13 C 2.8148 -2.1404 -1.7243 0
M  V30 14 C -2.6712 -0.8823 -0.8361 0
M  V30 15 C -1.6527 0.898 0.4538 0
M  V30 16 C -1.2753 -1.8401 2.6967 0
M  V30 17 C -3.7268 -0.0308 -1.1738 0
M  V30 18 C -2.709 1.7467 0.1123 0
M  V30 19 C -3.75 1.2836 -0.701 0
M  V30 20 O -4.808 2.1211 -1.047 0
M  V30 21 H 3.6438 4.3418 0.756 0
M  V30 22 H 1.3384 3.3586 -1.9009 0
M  V30 23 H 3.4738 2.019 1.5806 0
M  V30 24 H 0.3681 1.119 -2.1799 0
M  V30 25 H 2.5205 -0.2196 1.3221 0
M  V30 26 H 0.3137 -1.1567 -1.6681 0
M  V30 27 H -0.8124 -2.4087 0.094 0
M  V30 28 H 2.322 -2.2857 0.3703 0
M  V30 29 H 1.2651 -3.2322 -0.7159 0
M  V30 30 H 0.2156 -0.3756 2.1692 0
M  V30 31 H 0.7352 -2.0776 2.0056 0
M  V30 32 H 3.5049 -3.0094 -1.6863 0
M  V30 33 H 3.4143 -1.2127 -1.6123 0
M  V30 34 H 2.3093 -2.1337 -2.7132 0
M  V30 35 H -2.67 -1.8931 -1.2242 0
M  V30 36 H -0.855 1.2911 1.0683 0
M  V30 37 H -1.6137 -2.8516 2.3872 0
M  V30 38 H -2.1256 -1.1301 2.6224 0
M  V30 39 H -0.9508 -1.8855 3.7577 0
M  V30 40 H -4.5261 -0.3921 -1.8083 0
M  V30 41 H -2.7143 2.7662 0.4762 0
M  V30 42 H -4.8529 3.0796 -0.7212 0
M  V30 END ATOM
M  V30 BEGIN BOND
M  V30 1 1 1 2
M  V30 2 2 2 3
M  V30 3 1 2 4
M  V30 4 1 3 5
M  V30 5 2 4 6
M  V30 6 2 5 7
M  V30 7 1 7 8
M  V30 8 1 8 9
M  V30 9 1 8 10
M  V30 10 1 9 11
M  V30 11 1 9 12
M  V30 12 1 10 13
M  V30 13 2 11 14
M  V30 14 1 11 15
M  V30 15 1 12 16
M  V30 16 1 14 17
M  V30 17 2 15 18
M  V30 18 2 17 19
M  V30 19 1 19 20
M  V30 20 1 6 7
M  V30 21 1 18 19
M  V30 22 1 1 21
M  V30 23 1 3 22
M  V30 24 1 4 23
M  V30 25 1 5 24
M  V30 26 1 6 25
M  V30 27 1 8 26
M  V30 28 1 9 27
M  V30 29 1 10 28
M  V30 30 1 10 29
M  V30 31 1 12 30
M  V30 32 1 12 31
M  V30 33 1 13 32
M  V30 34 1 13 33
M  V30 35 1 13 34
M  V30 36 1 14 35
M  V30 37 1 15 36
M  V30 38 1 16 37
M  V30 39 1 16 38
M  V30 40 1 16 39
M  V30 41 1 17 40
M  V30 42 1 18 41
M  V30 43 1 20 42
M  V30 END BOND
M  V30 BEGIN COLLECTION
M  V30 MDLV30/STEABS ATOMS=(2 8 9)
M  V30 END COLLECTION
M  V30 END CTAB
M  END
>  <Structure No>
7570

>  <LogS>
-4.353

>  <MMFF94 Energy>
34.45

$$$$
Compound 7571
Actelion Java MolfileCreator 2.0

  0  0  0  0  0  0              0 V3000
M  V30 BEGIN CTAB
M  V30 COUNTS 38 39 0 0 0
M  V30 BEGIN ATOM
M  V30 1 O 5.3813 1.8967 -0.3159 0
M  V30 2 C 4.1496 1.2477 -0.356 0
M  V30 3 C 3.0281 1.8034 0.2737 0
M  V30 4 C 4.0311 0.0322 -1.0366 0
M  V30 5 C 1.797 1.1431 0.2267 0
M  V30 6 C 2.8014 -0.6304 -1.0843 0
M  V30 7 C 1.6768 -0.088 -0.4383 0
M  V30 8 C 0.3577 -0.7667 -0.508 0
M  V30 9 C -0.8282 -0.0059 -0.9994 0
M  V30 10 C 0.1756 -2.0148 -0.0322 0
M  V30 11 C -2.0433 0.0651 -0.1374 0
M  V30 12 C -0.8264 0.6119 -2.1997 0
M  V30 13 C 1.2434 -2.8172 0.6501 0
M  V30 14 C -1.9138 0.2087 1.2566 0
M  V30 15 C -3.3345 -0.0383 -0.6912 0
M  V30 16 C 0.3007 0.5329 -3.1855 0
M  V30 17 C -3.0467 0.2642 2.0735 0
M  V30 18 C -4.465 0.0172 0.1292 0
M  V30 19 C -4.3257 0.17 1.5112 0
M  V30 20 O -5.4615 0.2243 2.3158 0
M  V30 21 H 5.499 2.7795 0.1674 0
M  V30 22 H 3.1084 2.7479 0.7965 0
M  V30 23 H 4.8908 -0.3943 -1.5372 0
M  V30 24 H 0.9393 1.5907 0.7126 0
M  V30 25 H 2.7207 -1.5507 -1.6482 0
M  V30 26 H -0.8129 -2.4581 -0.0775 0
M  V30 27 H -1.696 1.1783 -2.5104 0
M  V30 28 H 1.7143 -2.2216 1.4607 0
M  V30 29 H 2.0128 -3.1406 -0.0788 0
M  V30 30 H 0.7927 -3.7264 1.1 0
M  V30 31 H -0.9362 0.2848 1.7149 0
M  V30 32 H -3.4706 -0.1826 -1.7554 0
M  V30 33 H 0.5904 -0.525 -3.3579 0
M  V30 34 H -0.0216 0.9707 -4.1532 0
M  V30 35 H 1.172 1.114 -2.8209 0
M  V30 36 H -2.9291 0.3798 3.1433 0
M  V30 37 H -5.4514 -0.0648 -0.3094 0
M  V30 38 H -5.3936 0.3335 3.321 0
M  V30 END ATOM
M  V30 BEGIN BOND
M  V30 1 1 1 2
M  V30 2 2 2 3
M  V30 3 1 2 4
M  V30 4 1 3 5
M  V30 5 2 4 6
M  V30 6 2 5 7
M  V30 7 1 7 8
M  V30 8 1 8 9
M  V30 9 2 8 10
M  V30 10 1 9 11
M  V30 11 2 9 12
M  V30 12 1 10 13
M  V30 13 2 11 14
M  V30 14 1 11 15
M  V30 15 1 12 16
M  V30 16 1 14 17
M  V30 17 2 15 18
M  V30 18 2 17 19
M  V30 19 1 19 20
M  V30 20 1 6 7
M  V30 21 1 18 19
M  V30 22 1 1 21
M  V30 23 1 3 22
M  V30 24 1 4 23
M  V30 25 1 5 24
M  V30 26 1 6 25
M  V30 27 1 10 26
M  V30 28 1 12 27
M  V30 29 1 13 28
M  V30 30 1 13 29
M  V30 31 1 13 30
M  V30 32 1 14 31
M  V30 33 1 15 32
M  V30 34 1 16 33
M  V30 35 1 16 34
M  V30 36 1 16 35
M  V30 37 1 17 36
M  V30 38 1 18 37
M  V30 39 1 20 38
M  V30 END BOND
M  V30 END CTAB
M  END
>  <Structure No>
7571

>  <LogS>
-4.948

>  <MMFF94 Energy>
33.895

$$$$
Compound 7572
Actelion Java MolfileCreator 2.0

  0  0  0  0  0  0              0 V3000
M  V30 BEGIN CTAB
M  V30 COUNTS 17 17 0 0 0
M  V30 BEGIN ATOM
M  V30 1 O -2.4601 2.2139 -0.3277 0
M  V30 2 N -2.4796 1.0165 0.0245 0 CHG=1
M  V30 3 O -3.6911 0.4456 0.3425 0 CHG=-1
M  V30 4 C -1.2761 0.2204 0.0293 0
M  V30 5 C 0.0085 0.8174 -0.0214 0
M  V30 6 C -1.3784 -1.1785 0.1124 0
M  V30 7 O 0.1086 2.2115 0.0136 0
M  V30 8 C 1.1667 -0.0017 -0.0568 0
M  V30 9 C -0.237 -1.9761 0.1302 0
M  V30 10 C 2.5256 0.5564 -0.2331 0
M  V30 11 C 1.0252 -1.3952 0.0429 0
M  V30 12 O 3.5132 0.0048 0.3211 0
M  V30 13 O 2.742 1.6492 -1.0641 0 CHG=-1
M  V30 14 H -2.3468 -1.6595 0.1621 0
M  V30 15 H 0.9762 2.7058 0.1714 0
M  V30 16 H -0.332 -3.0525 0.1952 0
M  V30 17 H 1.8954 -2.0404 0.0262 0
M  V30 END ATOM
M  V30 BEGIN BOND
M  V30 1 2 1 2
M  V30 2 1 2 3
M  V30 3 1 2 4
M  V30 4 2 4 5
M  V30 5 1 4 6
M  V30 6 1 5 7
M  V30 7 1 5 8
M  V30 8 2 6 9
M  V30 9 1 8 10
M  V30 10 2 8 11
M  V30 11 2 10 12
M  V30 12 1 10 13
M  V30 13 1 9 11
M  V30 14 1 6 14
M  V30 15 1 7 15
M  V30 16 1 9 16
M  V30 17 1 11 17
M  V30 END BOND
M  V30 END CTAB
M  END
>  <Structure No>
7572

>  <LogS>
-2.149

>  <MMFF94 Energy>
48.827

$$$$
Compound 7573
Actelion Java MolfileCreator 2.0

  0  0  0  0  0  0              0 V3000
M  V30 BEGIN CTAB
M  V30 COUNTS 32 34 0 0 0
M  V30 BEGIN ATOM
M  V30 1 N 0.8784 -0.3992 2.2371 0
M  V30 2 N 1.871 0.264 1.7769 0
M  V30 3 C -0.2387 -0.8608 1.4567 0
M  V30 4 C 2.101 0.5674 0.3905 0
M  V30 5 C -0.4841 -2.2469 1.3667 0
M  V30 6 C -1.1019 0.0493 0.7946 0
M  V30 7 C 2.5454 1.8494 0.0411 0
M  V30 8 C 1.9572 -0.4087 -0.612 0
M  V30 9 N 0.3509 -3.1878 2.0534 0
M  V30 10 C -1.5354 -2.7191 0.5713 0
M  V30 11 C -2.1532 -0.4511 -0.0166 0
M  V30 12 C -0.9606 1.4454 0.9363 0
M  V30 13 C 2.7881 2.172 -1.2976 0
M  V30 14 C 2.2005 -0.0834 -1.9498 0
M  V30 15 C -2.3541 -1.8322 -0.125 0
M  V30 16 C -2.9983 0.4385 -0.6985 0
M  V30 17 C -1.8104 2.318 0.2525 0
M  V30 18 C 2.6098 1.2078 -2.2933 0
M  V30 19 C -2.8213 1.8166 -0.5674 0
M  V30 20 H 2.6853 2.6026 0.8063 0
M  V30 21 H 1.677 -1.4225 -0.3607 0
M  V30 22 H 0.1729 -4.2139 1.9734 0
M  V30 23 H 1.1523 -2.8797 2.647 0
M  V30 24 H -1.7165 -3.7831 0.4849 0
M  V30 25 H -0.2036 1.8722 1.5801 0
M  V30 26 H 3.1159 3.1688 -1.5627 0
M  V30 27 H 2.0809 -0.8352 -2.7191 0
M  V30 28 H -3.1556 -2.2272 -0.7383 0
M  V30 29 H -3.7992 0.0681 -1.3274 0
M  V30 30 H -1.6872 3.3877 0.3628 0
M  V30 31 H 2.7992 1.458 -3.329 0
M  V30 32 H -3.4771 2.4982 -1.0939 0
M  V30 END ATOM
M  V30 BEGIN BOND
M  V30 1 2 1 2
M  V30 2 1 1 3
M  V30 3 1 2 4
M  V30 4 2 3 5
M  V30 5 1 3 6
M  V30 6 2 4 7
M  V30 7 1 4 8
M  V30 8 1 5 9
M  V30 9 1 5 10
M  V30 10 1 6 11
M  V30 11 2 6 12
M  V30 12 1 7 13
M  V30 13 2 8 14
M  V30 14 2 10 15
M  V30 15 2 11 16
M  V30 16 1 12 17
M  V30 17 2 13 18
M  V30 18 1 16 19
M  V30 19 1 11 15
M  V30 20 1 14 18
M  V30 21 2 17 19
M  V30 22 1 7 20
M  V30 23 1 8 21
M  V30 24 1 9 22
M  V30 25 1 9 23
M  V30 26 1 10 24
M  V30 27 1 12 25
M  V30 28 1 13 26
M  V30 29 1 14 27
M  V30 30 1 15 28
M  V30 31 1 16 29
M  V30 32 1 17 30
M  V30 33 1 18 31
M  V30 34 1 19 32
M  V30 END BOND
M  V30 END CTAB
M  END
>  <Structure No>
7573

>  <LogS>
-5.916

>  <MMFF94 Energy>
93.501

$$$$
Compound 7574
Actelion Java MolfileCreator 2.0

  0  0  0  0  0  0              0 V3000
M  V30 BEGIN CTAB
M  V30 COUNTS 42 44 0 0 0
M  V30 BEGIN ATOM
M  V30 1 O -1.9204 -2.7214 0.7198 0
M  V30 2 C -1.3748 -2.2256 -0.3042 0
M  V30 3 O -0.0598 -1.75 -0.2533 0
M  V30 4 C -2.1381 -2.1044 -1.5924 0 CFG=1
M  V30 5 C 0.7108 -1.6665 0.9464 0 CFG=2
M  V30 6 O -3.4002 -2.7143 -1.4914 0
M  V30 7 C -2.3063 -0.6438 -1.9319 0
M  V30 8 C 0.1728 -0.5214 1.8605 0
M  V30 9 C 2.2089 -1.4899 0.568 0
M  V30 10 C -3.1858 0.1652 -1.1882 0
M  V30 11 C -1.5267 -0.056 -2.944 0
M  V30 12 C 0.8368 0.8496 1.5596 0 CFG=1
M  V30 13 C 2.6179 5.0E-4 0.4202 0 CFG=2
M  V30 14 C -3.2891 1.5322 -1.4618 0
M  V30 15 C -1.6376 1.3111 -3.2159 0
M  V30 16 N 2.293 0.6896 1.6772 0 CHG=1 CFG=1
M  V30 17 C 0.578 1.263 0.1007 0
M  V30 18 C 1.7707 0.6895 -0.6656 0
M  V30 19 C -2.5171 2.1045 -2.4756 0
M  V30 20 C 2.9968 1.9804 1.8142 0
M  V30 21 H -1.5496 -2.6104 -2.393 0
M  V30 22 H 0.6131 -2.633 1.4899 0
M  V30 23 H -3.2496 -3.6955 -1.5341 0
M  V30 24 H 0.3779 -0.7859 2.9208 0
M  V30 25 H -0.9305 -0.4285 1.7674 0
M  V30 26 H 2.433 -2.0385 -0.3729 0
M  V30 27 H 2.837 -1.951 1.3614 0
M  V30 28 H -3.778 -0.2604 -0.3872 0
M  V30 29 H -0.8276 -0.6523 -3.5161 0
M  V30 30 H 0.4443 1.6134 2.2689 0
M  V30 31 H 3.7041 0.0627 0.1817 0
M  V30 32 H -3.9645 2.1492 -0.8838 0
M  V30 33 H -1.0344 1.7576 -3.9956 0
M  V30 34 H 2.5499 0.1098 2.5136 0
M  V30 35 H -0.3879 0.877 -0.2857 0
M  V30 36 H 0.566 2.3716 0.0156 0
M  V30 37 H 1.4498 -0.009 -1.4682 0
M  V30 38 H 2.3527 1.5119 -1.1354 0
M  V30 39 H -2.5983 3.1632 -2.6849 0
M  V30 40 H 4.0941 1.8112 1.8646 0
M  V30 41 H 2.7869 2.6674 0.9675 0
M  V30 42 H 2.691 2.4826 2.7576 0
M  V30 END ATOM
M  V30 BEGIN BOND
M  V30 1 2 1 2
M  V30 2 1 2 3
M  V30 3 1 2 4
M  V30 4 1 3 5
M  V30 5 1 4 6
M  V30 6 1 4 7
M  V30 7 1 5 8
M  V30 8 1 5 9
M  V30 9 2 7 10
M  V30 10 1 7 11
M  V30 11 1 8 12
M  V30 12 1 9 13
M  V30 13 1 10 14
M  V30 14 2 11 15
M  V30 15 1 12 16
M  V30 16 1 12 17
M  V30 17 1 13 18
M  V30 18 2 14 19
M  V30 19 1 16 20
M  V30 20 1 13 16
M  V30 21 1 15 19
M  V30 22 1 17 18
M  V30 23 1 4 21
M  V30 24 1 5 22
M  V30 25 1 6 23
M  V30 26 1 8 24
M  V30 27 1 8 25
M  V30 28 1 9 26
M  V30 29 1 9 27
M  V30 30 1 10 28
M  V30 31 1 11 29
M  V30 32 1 12 30
M  V30 33 1 13 31
M  V30 34 1 14 32
M  V30 35 1 15 33
M  V30 36 1 16 34
M  V30 37 1 17 35
M  V30 38 1 17 36
M  V30 39 1 18 37
M  V30 40 1 18 38
M  V30 41 1 19 39
M  V30 42 1 20 40
M  V30 43 1 20 41
M  V30 44 1 20 42
M  V30 END BOND
M  V30 BEGIN COLLECTION
M  V30 MDLV30/STEABS ATOMS=(5 4 5 12 13 16)
M  V30 END COLLECTION
M  V30 END CTAB
M  END
>  <Structure No>
7574

>  <LogS>
-1.44

>  <MMFF94 Energy>
80.923

$$$$
Compound 7575
Actelion Java MolfileCreator 2.0

  0  0  0  0  0  0              0 V3000
M  V30 BEGIN CTAB
M  V30 COUNTS 24 24 0 0 0
M  V30 BEGIN ATOM
M  V30 1 O 2.5322 -1.2655 0.079 0
M  V30 2 C 1.3252 -0.6374 0.4279 0 CFG=1
M  V30 3 C 1.2022 0.6969 -0.3406 0 CFG=2
M  V30 4 C 0.1346 -1.5932 0.1528 0 CFG=2
M  V30 5 O 2.2315 1.5666 0.0573 0
M  V30 6 C -0.1547 1.3719 -0.0527 0 CFG=1
M  V30 7 O 0.2212 -2.1918 -1.1187 0
M  V30 8 C -1.2354 -0.9089 0.3658 0 CFG=2
M  V30 9 O -0.2639 2.5832 -0.7591 0
M  V30 10 C -1.3333 0.4308 -0.402 0 CFG=1
M  V30 11 O -1.4271 -0.6972 1.7436 0
M  V30 12 O -2.5715 1.0547 -0.1616 0
M  V30 13 H 2.7114 -1.9501 0.7754 0
M  V30 14 H 1.3385 -0.3991 1.5184 0
M  V30 15 H 1.2814 0.5066 -1.4366 0
M  V30 16 H 0.204 -2.4212 0.8925 0
M  V30 17 H 3.0492 1.2934 -0.4351 0
M  V30 18 H -0.1995 1.6125 1.0329 0
M  V30 19 H 0.2031 -1.478 -1.8041 0
M  V30 20 H -2.0232 -1.5984 -0.0219 0
M  V30 21 H -0.2254 2.3713 -1.7285 0
M  V30 22 H -1.2935 0.2108 -1.4903 0
M  V30 23 H -2.4029 -0.756 1.9168 0
M  V30 24 H -2.5676 1.3984 0.7696 0
M  V30 END ATOM
M  V30 BEGIN BOND
M  V30 1 1 1 2
M  V30 2 1 2 3
M  V30 3 1 2 4
M  V30 4 1 3 5
M  V30 5 1 3 6
M  V30 6 1 4 7
M  V30 7 1 4 8
M  V30 8 1 6 9
M  V30 9 1 6 10
M  V30 10 1 8 11
M  V30 11 1 10 12
M  V30 12 1 8 10
M  V30 13 1 1 13
M  V30 14 1 2 14
M  V30 15 1 3 15
M  V30 16 1 4 16
M  V30 17 1 5 17
M  V30 18 1 6 18
M  V30 19 1 7 19
M  V30 20 1 8 20
M  V30 21 1 9 21
M  V30 22 1 10 22
M  V30 23 1 11 23
M  V30 24 1 12 24
M  V30 END BOND
M  V30 BEGIN COLLECTION
M  V30 MDLV30/STEABS ATOMS=(6 2 3 4 6 8 10)
M  V30 END COLLECTION
M  V30 END CTAB
M  END
>  <Structure No>
7575

>  <LogS>
-0.1

>  <MMFF94 Energy>
118.09

$$$$
Compound 7576
Actelion Java MolfileCreator 2.0

  0  0  0  0  0  0              0 V3000
M  V30 BEGIN CTAB
M  V30 COUNTS 18 18 0 0 0
M  V30 BEGIN ATOM
M  V30 1 Cl 2.7321 1.6215 0.5118 0
M  V30 2 C 1.2221 0.7433 0.2443 0
M  V30 3 C -0.0112 1.438 0.2135 0
M  V30 4 C 1.243 -0.6591 0.0633 0
M  V30 5 N -0.084 2.8622 0.4078 0 CHG=1
M  V30 6 C -1.1983 0.725 -0.0145 0
M  V30 7 N 2.4775 -1.3981 0.0676 0 CHG=1
M  V30 8 C 0.0353 -1.3487 -0.1287 0
M  V30 9 O 0.6363 3.4279 1.2555 0
M  V30 10 O -1.0826 3.5883 -0.1999 0 CHG=-1
M  V30 11 C -1.1884 -0.6679 -0.1778 0
M  V30 12 O 2.5051 -2.5673 0.5045 0
M  V30 13 O 3.5884 -0.9077 -0.5785 0 CHG=-1
M  V30 14 N -2.4153 -1.3908 -0.3934 0 CHG=1
M  V30 15 O -3.509 -0.7902 -0.4439 0
M  V30 16 O -2.4042 -2.7584 -0.5475 0 CHG=-1
M  V30 17 H -2.1393 1.2595 -0.0394 0
M  V30 18 H 0.0565 -2.4223 -0.2653 0
M  V30 END ATOM
M  V30 BEGIN BOND
M  V30 1 1 1 2
M  V30 2 2 2 3
M  V30 3 1 2 4
M  V30 4 1 3 5
M  V30 5 1 3 6
M  V30 6 1 4 7
M  V30 7 2 4 8
M  V30 8 2 5 9
M  V30 9 1 5 10
M  V30 10 2 6 11
M  V30 11 2 7 12
M  V30 12 1 7 13
M  V30 13 1 11 14
M  V30 14 2 14 15
M  V30 15 1 14 16
M  V30 16 1 8 11
M  V30 17 1 6 17
M  V30 18 1 8 18
M  V30 END BOND
M  V30 END CTAB
M  END
>  <Structure No>
7576

>  <LogS>
-2.669

>  <MMFF94 Energy>
56.571

$$$$
Compound 7577
Actelion Java MolfileCreator 2.0

  0  0  0  0  0  0              0 V3000
M  V30 BEGIN CTAB
M  V30 COUNTS 20 20 0 0 0
M  V30 BEGIN ATOM
M  V30 1 O -2.0372 -3.0569 0.5938 0
M  V30 2 C -2.1361 -1.989 -0.067 0
M  V30 3 O -3.2297 -1.8143 -0.9068 0 CHG=-1
M  V30 4 C -1.0656 -0.9668 0.0018 0
M  V30 5 C -1.3258 0.4204 -0.1216 0
M  V30 6 C 0.2615 -1.4041 0.141 0
M  V30 7 C -2.6964 0.9838 -0.1254 0
M  V30 8 C -0.2465 1.3151 -0.192 0
M  V30 9 C 1.3387 -0.5035 0.1162 0
M  V30 10 O -3.615 0.4479 0.549 0
M  V30 11 O -2.9684 2.1533 -0.8259 0 CHG=-1
M  V30 12 C 1.0828 0.8725 -0.0979 0
M  V30 13 C 2.6991 -1.0296 0.3763 0
M  V30 14 C 2.1674 1.8641 -0.2878 0
M  V30 15 O 3.0147 -2.1885 -0.0033 0
M  V30 16 O 3.6228 -0.2802 1.0952 0 CHG=-1
M  V30 17 O 2.0142 3.054 0.0967 0
M  V30 18 O 3.3398 1.5137 -0.9467 0 CHG=-1
M  V30 19 H 0.4591 -2.4622 0.2707 0
M  V30 20 H -0.4435 2.3733 -0.3219 0
M  V30 END ATOM
M  V30 BEGIN BOND
M  V30 1 2 1 2
M  V30 2 1 2 3
M  V30 3 1 2 4
M  V30 4 2 4 5
M  V30 5 1 4 6
M  V30 6 1 5 7
M  V30 7 1 5 8
M  V30 8 2 6 9
M  V30 9 2 7 10
M  V30 10 1 7 11
M  V30 11 2 8 12
M  V30 12 1 9 13
M  V30 13 1 12 14
M  V30 14 2 13 15
M  V30 15 1 13 16
M  V30 16 2 14 17
M  V30 17 1 14 18
M  V30 18 1 9 12
M  V30 19 1 6 19
M  V30 20 1 8 20
M  V30 END BOND
M  V30 END CTAB
M  END
>  <Structure No>
7577

>  <LogS>
-1.259

>  <MMFF94 Energy>
412.63

$$$$
Compound 7578
Actelion Java MolfileCreator 2.0

  0  0  0  0  0  0              0 V3000
M  V30 BEGIN CTAB
M  V30 COUNTS 40 42 0 0 0
M  V30 BEGIN ATOM
M  V30 1 O -1.9246 -2.326 -0.0801 0
M  V30 2 C -2.0848 -1.122 0.2599 0
M  V30 3 N -3.3691 -0.4841 0.0656 0
M  V30 4 C -0.9663 -0.4052 0.9161 0
M  V30 5 C -4.48 -1.2146 -0.5674 0
M  V30 6 C -3.5931 0.8943 0.5372 0
M  V30 7 C 0.3257 -0.5002 0.5683 0
M  V30 8 C -5.1212 -0.3699 -1.6794 0
M  V30 9 C -4.989 1.4089 0.1641 0
M  V30 10 C 0.828 -1.2541 -0.6062 0
M  V30 11 C -5.2888 1.1204 -1.3099 0
M  V30 12 C 2.1186 -1.3052 -0.9679 0
M  V30 13 C 3.2093 -0.537 -0.3341 0
M  V30 14 C 4.3922 -1.2075 0.0439 0
M  V30 15 C 3.1257 0.8735 -0.1891 0
M  V30 16 C 5.4247 -0.4533 0.5946 0
M  V30 17 C 4.1927 1.5981 0.3725 0
M  V30 18 O 6.6567 -0.8832 1.0483 0
M  V30 19 C 5.3279 0.8905 0.7546 0
M  V30 20 C 7.3779 0.2619 1.5245 0
M  V30 21 O 6.4937 1.3726 1.3178 0
M  V30 22 H -1.2079 0.2492 1.7438 0
M  V30 23 H -5.2427 -1.4512 0.2058 0
M  V30 24 H -4.1468 -2.1785 -1.0071 0
M  V30 25 H -2.8337 1.5657 0.0794 0
M  V30 26 H -3.4839 0.9348 1.6423 0
M  V30 27 H 1.031 0.0402 1.1848 0
M  V30 28 H -6.1134 -0.8057 -1.9282 0
M  V30 29 H -4.4917 -0.445 -2.5932 0
M  V30 30 H -5.0435 2.5036 0.349 0
M  V30 31 H -5.7547 0.9173 0.8037 0
M  V30 32 H 0.1392 -1.8333 -1.2034 0
M  V30 33 H -6.3261 1.4477 -1.5398 0
M  V30 34 H -4.6043 1.7329 -1.9376 0
M  V30 35 H 2.3925 -1.9806 -1.7697 0
M  V30 36 H 4.4992 -2.278 -0.0792 0
M  V30 37 H 2.2435 1.4073 -0.5203 0
M  V30 38 H 4.1375 2.672 0.4939 0
M  V30 39 H 7.6049 0.1492 2.6054 0
M  V30 40 H 8.3096 0.3994 0.9367 0
M  V30 END ATOM
M  V30 BEGIN BOND
M  V30 1 2 1 2
M  V30 2 1 2 3
M  V30 3 1 2 4
M  V30 4 1 3 5
M  V30 5 1 3 6
M  V30 6 2 4 7
M  V30 7 1 5 8
M  V30 8 1 6 9
M  V30 9 1 7 10
M  V30 10 1 8 11
M  V30 11 2 10 12
M  V30 12 1 12 13
M  V30 13 2 13 14
M  V30 14 1 13 15
M  V30 15 1 14 16
M  V30 16 2 15 17
M  V30 17 1 16 18
M  V30 18 2 16 19
M  V30 19 1 18 20
M  V30 20 1 19 21
M  V30 21 1 9 11
M  V30 22 1 17 19
M  V30 23 1 20 21
M  V30 24 1 4 22
M  V30 25 1 5 23
M  V30 26 1 5 24
M  V30 27 1 6 25
M  V30 28 1 6 26
M  V30 29 1 7 27
M  V30 30 1 8 28
M  V30 31 1 8 29
M  V30 32 1 9 30
M  V30 33 1 9 31
M  V30 34 1 10 32
M  V30 35 1 11 33
M  V30 36 1 11 34
M  V30 37 1 12 35
M  V30 38 1 14 36
M  V30 39 1 15 37
M  V30 40 1 17 38
M  V30 41 1 20 39
M  V30 42 1 20 40
M  V30 END BOND
M  V30 END CTAB
M  END
>  <Structure No>
7578

>  <LogS>
-3.853

>  <MMFF94 Energy>
8.7801

$$$$
Compound 7579
Actelion Java MolfileCreator 2.0

  0  0  0  0  0  0              0 V3000
M  V30 BEGIN CTAB
M  V30 COUNTS 12 11 0 0 0
M  V30 BEGIN ATOM
M  V30 1 Cl -1.4934 0.5806 1.9086 0
M  V30 2 C -1.2337 -0.1768 0.3131 0
M  V30 3 C 0.0706 0.3111 -0.3353 0
M  V30 4 O 0.1215 -0.1298 -1.6677 0
M  V30 5 C 1.2975 -0.2231 0.4136 0
M  V30 6 Cl 2.7988 0.4105 -0.311 0
M  V30 7 H -2.0951 0.0958 -0.3331 0
M  V30 8 H -1.2223 -1.2819 0.4277 0
M  V30 9 H 0.0961 1.426 -0.3052 0
M  V30 10 H -0.4718 0.469 -2.1924 0
M  V30 11 H 1.3212 -1.3332 0.3716 0
M  V30 12 H 1.2723 0.0927 1.4778 0
M  V30 END ATOM
M  V30 BEGIN BOND
M  V30 1 1 1 2
M  V30 2 1 2 3
M  V30 3 1 3 4
M  V30 4 1 3 5
M  V30 5 1 5 6
M  V30 6 1 2 7
M  V30 7 1 2 8
M  V30 8 1 3 9
M  V30 9 1 4 10
M  V30 10 1 5 11
M  V30 11 1 5 12
M  V30 END BOND
M  V30 END CTAB
M  END
>  <Structure No>
7579

>  <LogS>
-0.115

>  <MMFF94 Energy>
24.283

$$$$
Compound 7580
Actelion Java MolfileCreator 2.0

  0  0  0  0  0  0              0 V3000
M  V30 BEGIN CTAB
M  V30 COUNTS 15 15 0 0 0
M  V30 BEGIN ATOM
M  V30 1 Cl -3.022 -1.1217 -0.8627 0
M  V30 2 C -2.1879 0.2402 -0.0573 0
M  V30 3 Cl -2.7657 1.725 -0.8701 0
M  V30 4 Cl -2.7079 0.2915 1.6447 0
M  V30 5 C -0.6719 0.1035 -0.1065 0
M  V30 6 C 0.1577 1.2448 -0.0623 0
M  V30 7 C -0.0594 -1.1673 -0.0561 0
M  V30 8 C 1.5497 1.1161 -0.0477 0
M  V30 9 C 1.333 -1.2892 -0.0414 0
M  V30 10 C 2.137 -0.1492 -0.0456 0
M  V30 11 H -0.2632 2.2406 -0.0279 0
M  V30 12 H -0.6516 -2.0715 -0.0166 0
M  V30 13 H 2.1738 2.0002 -0.0266 0
M  V30 14 H 1.7891 -2.2704 -0.0153 0
M  V30 15 H 3.2147 -0.2461 -0.0302 0
M  V30 END ATOM
M  V30 BEGIN BOND
M  V30 1 1 1 2
M  V30 2 1 2 3
M  V30 3 1 2 4
M  V30 4 1 2 5
M  V30 5 2 5 6
M  V30 6 1 5 7
M  V30 7 1 6 8
M  V30 8 2 7 9
M  V30 9 2 8 10
M  V30 10 1 9 10
M  V30 11 1 6 11
M  V30 12 1 7 12
M  V30 13 1 8 13
M  V30 14 1 9 14
M  V30 15 1 10 15
M  V30 END BOND
M  V30 END CTAB
M  END
>  <Structure No>
7580

>  <LogS>
-3.567

>  <MMFF94 Energy>
45.733

$$$$
Compound 7581
Actelion Java MolfileCreator 2.0

  0  0  0  0  0  0              0 V3000
M  V30 BEGIN CTAB
M  V30 COUNTS 17 16 0 0 0
M  V30 BEGIN ATOM
M  V30 1 O 0.2473 -1.2371 1.8148 0
M  V30 2 C 0.5245 -0.0338 1.5633 0
M  V30 3 O 1.0375 0.7729 2.5712 0 CHG=-1
M  V30 4 C 0.2602 0.551 0.1978 0
M  V30 5 C 0.6903 -0.4011 -0.9398 0
M  V30 6 C -1.2121 0.9934 0.059 0
M  V30 7 C 2.1739 -0.6135 -0.945 0
M  V30 8 C -2.1866 -0.1455 0.1406 0
M  V30 9 O 2.6711 -1.6318 -0.3959 0
M  V30 10 O 3.0096 0.3345 -1.5213 0 CHG=-1
M  V30 11 O -2.5236 -0.7678 -0.9007 0
M  V30 12 O -2.705 -0.532 1.3701 0 CHG=-1
M  V30 13 H 0.8741 1.4755 0.107 0
M  V30 14 H 0.4006 0.0371 -1.9194 0
M  V30 15 H 0.1743 -1.3816 -0.8478 0
M  V30 16 H -1.4518 1.7278 0.8588 0
M  V30 17 H -1.3488 1.5204 -0.9105 0
M  V30 END ATOM
M  V30 BEGIN BOND
M  V30 1 2 1 2
M  V30 2 1 2 3
M  V30 3 1 2 4
M  V30 4 1 4 5
M  V30 5 1 4 6
M  V30 6 1 5 7
M  V30 7 1 6 8
M  V30 8 2 7 9
M  V30 9 1 7 10
M  V30 10 2 8 11
M  V30 11 1 8 12
M  V30 12 1 4 13
M  V30 13 1 5 14
M  V30 14 1 5 15
M  V30 15 1 6 16
M  V30 16 1 6 17
M  V30 END BOND
M  V30 END CTAB
M  END
>  <Structure No>
7581

>  <LogS>
0.275

>  <MMFF94 Energy>
187.56

$$$$
Compound 7582
Actelion Java MolfileCreator 2.0

  0  0  0  0  0  0              0 V3000
M  V30 BEGIN CTAB
M  V30 COUNTS 29 30 0 0 0
M  V30 BEGIN ATOM
M  V30 1 O -0.0789 -0.395 -0.316 0
M  V30 2 C -1.3559 -0.929 -0.5914 0
M  V30 3 C 0.8908 -1.058 -1.0979 0
M  V30 4 C -2.3716 -0.211 0.2493 0
M  V30 5 C 2.2399 -0.4759 -0.7902 0
M  V30 6 C -2.977 0.9661 -0.2217 0
M  V30 7 C -2.6733 -0.6702 1.5425 0
M  V30 8 C 3.0135 -0.9969 0.2604 0
M  V30 9 C 2.7098 0.6394 -1.5038 0
M  V30 10 C -3.8939 1.6554 0.5785 0
M  V30 11 C -3.5907 0.0219 2.3395 0
M  V30 12 C 4.253 -0.4285 0.5713 0
M  V30 13 C 3.9498 1.2049 -1.1898 0
M  V30 14 C -4.2025 1.1824 1.857 0
M  V30 15 C 4.722 0.6697 -0.1548 0
M  V30 16 H -1.3903 -2.0176 -0.3545 0
M  V30 17 H -1.6163 -0.7997 -1.6674 0
M  V30 18 H 0.6781 -0.9315 -2.1848 0
M  V30 19 H 0.9041 -2.1494 -0.8717 0
M  V30 20 H -2.739 1.3494 -1.2063 0
M  V30 21 H -2.1985 -1.5621 1.9327 0
M  V30 22 H 2.6571 -1.8411 0.8379 0
M  V30 23 H 2.1167 1.0705 -2.301 0
M  V30 24 H -4.3622 2.5587 0.209 0
M  V30 25 H -3.8243 -0.3388 3.333 0
M  V30 26 H 4.8481 -0.8371 1.3778 0
M  V30 27 H 4.3103 2.0605 -1.746 0
M  V30 28 H -4.9112 1.7179 2.4757 0
M  V30 29 H 5.6807 1.1095 0.0879 0
M  V30 END ATOM
M  V30 BEGIN BOND
M  V30 1 1 1 2
M  V30 2 1 1 3
M  V30 3 1 2 4
M  V30 4 1 3 5
M  V30 5 2 4 6
M  V30 6 1 4 7
M  V30 7 2 5 8
M  V30 8 1 5 9
M  V30 9 1 6 10
M  V30 10 2 7 11
M  V30 11 1 8 12
M  V30 12 2 9 13
M  V30 13 2 10 14
M  V30 14 2 12 15
M  V30 15 1 11 14
M  V30 16 1 13 15
M  V30 17 1 2 16
M  V30 18 1 2 17
M  V30 19 1 3 18
M  V30 20 1 3 19
M  V30 21 1 6 20
M  V30 22 1 7 21
M  V30 23 1 8 22
M  V30 24 1 9 23
M  V30 25 1 10 24
M  V30 26 1 11 25
M  V30 27 1 12 26
M  V30 28 1 13 27
M  V30 29 1 14 28
M  V30 30 1 15 29
M  V30 END BOND
M  V30 END CTAB
M  END
>  <Structure No>
7582

>  <LogS>
-3.695

>  <MMFF94 Energy>
47.522

$$$$
Compound 7583
Actelion Java MolfileCreator 2.0

  0  0  0  0  0  0              0 V3000
M  V30 BEGIN CTAB
M  V30 COUNTS 15 15 0 0 0
M  V30 BEGIN ATOM
M  V30 1 O -3.5025 1.193 0.0 0
M  V30 2 C -2.2763 1.0251 -0.228 0
M  V30 3 O -1.3743 2.0101 0.1561 0 CHG=-1
M  V30 4 C -1.838 -0.1653 -0.9781 0
M  V30 5 C -0.5968 -0.6737 -0.9749 0
M  V30 6 C 0.4887 -0.2839 -0.0551 0
M  V30 7 N 1.7903 -0.3335 -0.3774 0
M  V30 8 C 0.3849 0.0241 1.2864 0
M  V30 9 C 2.448 -0.0226 0.7548 0
M  V30 10 N 1.6198 0.1988 1.7976 0
M  V30 11 H -2.5693 -0.6312 -1.6278 0
M  V30 12 H -0.3736 -1.4608 -1.6846 0
M  V30 13 H 2.2082 -0.5732 -1.3038 0
M  V30 14 H -0.5252 0.0831 1.8685 0
M  V30 15 H 3.5265 0.0274 0.8272 0
M  V30 END ATOM
M  V30 BEGIN BOND
M  V30 1 2 1 2
M  V30 2 1 2 3
M  V30 3 1 2 4
M  V30 4 2 4 5
M  V30 5 1 5 6
M  V30 6 1 6 7
M  V30 7 2 6 8
M  V30 8 1 7 9
M  V30 9 1 8 10
M  V30 10 2 9 10
M  V30 11 1 4 11
M  V30 12 1 5 12
M  V30 13 1 7 13
M  V30 14 1 8 14
M  V30 15 1 9 15
M  V30 END BOND
M  V30 END CTAB
M  END
>  <Structure No>
7583

>  <LogS>
-1.964

>  <MMFF94 Energy>
1.026

$$$$
Compound 7584
Actelion Java MolfileCreator 2.0

  0  0  0  0  0  0              0 V3000
M  V30 BEGIN CTAB
M  V30 COUNTS 23 22 0 0 0
M  V30 BEGIN ATOM
M  V30 1 O 0.0 -0.2323 -2.0923 0
M  V30 2 C 0.2327 0.5662 -1.144 0
M  V30 3 O -0.8115 1.2313 -0.491 0
M  V30 4 C 1.6374 0.771 -0.6752 0
M  V30 5 C -2.1932 1.004 -0.7687 0
M  V30 6 C 1.959 -0.1907 0.4714 0
M  V30 7 C -2.7815 -0.0403 0.1855 0
M  V30 8 C 3.3869 0.006 0.9715 0
M  V30 9 C -2.2103 -1.4368 -0.0467 0
M  V30 10 H 2.3397 0.602 -1.5207 0
M  V30 11 H 1.7538 1.8215 -0.3308 0
M  V30 12 H -2.3514 0.7103 -1.8296 0
M  V30 13 H -2.7361 1.9594 -0.6089 0
M  V30 14 H 1.2549 -0.0176 1.315 0
M  V30 15 H 1.8403 -1.2406 0.1243 0
M  V30 16 H -2.5885 0.2662 1.2363 0
M  V30 17 H -3.8824 -0.0782 0.0362 0
M  V30 18 H 4.1124 -0.1861 0.1527 0
M  V30 19 H 3.5912 -0.7032 1.801 0
M  V30 20 H 3.5243 1.0421 1.3483 0
M  V30 21 H -1.1334 -1.4666 0.2203 0
M  V30 22 H -2.34 -1.7383 -1.1079 0
M  V30 23 H -2.7463 -2.1665 0.5959 0
M  V30 END ATOM
M  V30 BEGIN BOND
M  V30 1 2 1 2
M  V30 2 1 2 3
M  V30 3 1 2 4
M  V30 4 1 3 5
M  V30 5 1 4 6
M  V30 6 1 5 7
M  V30 7 1 6 8
M  V30 8 1 7 9
M  V30 9 1 4 10
M  V30 10 1 4 11
M  V30 11 1 5 12
M  V30 12 1 5 13
M  V30 13 1 6 14
M  V30 14 1 6 15
M  V30 15 1 7 16
M  V30 16 1 7 17
M  V30 17 1 8 18
M  V30 18 1 8 19
M  V30 19 1 8 20
M  V30 20 1 9 21
M  V30 21 1 9 22
M  V30 22 1 9 23
M  V30 END BOND
M  V30 END CTAB
M  END
>  <Structure No>
7584

>  <LogS>
-1.905

>  <MMFF94 Energy>
-13.007

$$$$
Compound 7585
Actelion Java MolfileCreator 2.0

  0  0  0  0  0  0              0 V3000
M  V30 BEGIN CTAB
M  V30 COUNTS 20 19 0 0 0
M  V30 BEGIN ATOM
M  V30 1 C 0.8415 0.0 0.1529 0
M  V30 2 C -0.248 -0.7344 -0.6769 0
M  V30 3 C 2.211 -0.6695 -0.0271 0
M  V30 4 C 0.9397 1.4825 -0.2391 0
M  V30 5 C -1.569 -0.9376 0.0856 0
M  V30 6 C -2.3037 0.3692 0.3762 0
M  V30 7 H 0.593 -0.0543 1.2363 0
M  V30 8 H -0.4464 -0.2043 -1.6348 0
M  V30 9 H 0.1103 -1.7487 -0.9609 0
M  V30 10 H 2.982 -0.1394 0.5722 0
M  V30 11 H 2.1704 -1.7229 0.3237 0
M  V30 12 H 2.515 -0.6574 -1.096 0
M  V30 13 H -0.036 1.9927 -0.1126 0
M  V30 14 H 1.6812 2.0002 0.4063 0
M  V30 15 H 1.2568 1.5866 -1.2991 0
M  V30 16 H -1.3781 -1.4764 1.0392 0
M  V30 17 H -2.234 -1.5796 -0.5322 0
M  V30 18 H -3.3129 0.143 0.7806 0
M  V30 19 H -1.7555 0.9625 1.1372 0
M  V30 20 H -2.4212 0.9659 -0.5532 0
M  V30 END ATOM
M  V30 BEGIN BOND
M  V30 1 1 1 2
M  V30 2 1 1 3
M  V30 3 1 1 4
M  V30 4 1 2 5
M  V30 5 1 5 6
M  V30 6 1 1 7
M  V30 7 1 2 8
M  V30 8 1 2 9
M  V30 9 1 3 10
M  V30 10 1 3 11
M  V30 11 1 3 12
M  V30 12 1 4 13
M  V30 13 1 4 14
M  V30 14 1 4 15
M  V30 15 1 5 16
M  V30 16 1 5 17
M  V30 17 1 6 18
M  V30 18 1 6 19
M  V30 19 1 6 20
M  V30 END BOND
M  V30 END CTAB
M  END
>  <Structure No>
7585

>  <LogS>
-3.74

>  <MMFF94 Energy>
3.1459

$$$$
Compound 7586
Actelion Java MolfileCreator 2.0

  0  0  0  0  0  0              0 V3000
M  V30 BEGIN CTAB
M  V30 COUNTS 30 29 0 0 0
M  V30 BEGIN ATOM
M  V30 1 O -0.0772 1.5463 0.0 0
M  V30 2 C 0.0087 0.1448 -0.0664 0
M  V30 3 C 1.3086 -0.3528 0.6143 0
M  V30 4 C -1.2419 -0.5076 0.5748 0
M  V30 5 C 2.5925 -0.0593 -0.2003 0
M  V30 6 C -2.5262 -0.3698 -0.2797 0
M  V30 7 C 2.9167 1.441 -0.2648 0
M  V30 8 C 3.7808 -0.8179 0.4072 0
M  V30 9 C -3.6324 -1.2677 0.2923 0
M  V30 10 C -3.0273 1.0804 -0.3571 0
M  V30 11 H -0.1077 1.8031 0.9587 0
M  V30 12 H 0.0434 -0.1532 -1.1368 0
M  V30 13 H 1.2365 -1.4558 0.739 0
M  V30 14 H 1.3948 0.0809 1.6353 0
M  V30 15 H -1.0411 -1.5941 0.7036 0
M  V30 16 H -1.4115 -0.0892 1.5917 0
M  V30 17 H 2.4547 -0.4327 -1.2391 0
M  V30 18 H -2.3123 -0.722 -1.3131 0
M  V30 19 H 2.1837 1.9722 -0.905 0
M  V30 20 H 3.9169 1.6021 -0.7209 0
M  V30 21 H 2.9138 1.8893 0.7518 0
M  V30 22 H 3.5795 -1.9104 0.4126 0
M  V30 23 H 4.6982 -0.6456 -0.195 0
M  V30 24 H 3.9672 -0.4818 1.4502 0
M  V30 25 H -4.5449 -1.2064 -0.3384 0
M  V30 26 H -3.3009 -2.3279 0.3059 0
M  V30 27 H -3.8902 -0.9586 1.3282 0
M  V30 28 H -4.0251 1.1201 -0.8441 0
M  V30 29 H -3.1101 1.5237 0.6583 0
M  V30 30 H -2.3445 1.6975 -0.9752 0
M  V30 END ATOM
M  V30 BEGIN BOND
M  V30 1 1 1 2
M  V30 2 1 2 3
M  V30 3 1 2 4
M  V30 4 1 3 5
M  V30 5 1 4 6
M  V30 6 1 5 7
M  V30 7 1 5 8
M  V30 8 1 6 9
M  V30 9 1 6 10
M  V30 10 1 1 11
M  V30 11 1 2 12
M  V30 12 1 3 13
M  V30 13 1 3 14
M  V30 14 1 4 15
M  V30 15 1 4 16
M  V30 16 1 5 17
M  V30 17 1 6 18
M  V30 18 1 7 19
M  V30 19 1 7 20
M  V30 20 1 7 21
M  V30 21 1 8 22
M  V30 22 1 8 23
M  V30 23 1 8 24
M  V30 24 1 9 25
M  V30 25 1 9 26
M  V30 26 1 9 27
M  V30 27 1 10 28
M  V30 28 1 10 29
M  V30 29 1 10 30
M  V30 END BOND
M  V30 END CTAB
M  END
>  <Structure No>
7586

>  <LogS>
-2.159

>  <MMFF94 Energy>
12.91

$$$$
Compound 7587
Actelion Java MolfileCreator 2.0

  0  0  0  0  0  0              0 V3000
M  V30 BEGIN CTAB
M  V30 COUNTS 15 14 0 0 0
M  V30 BEGIN ATOM
M  V30 1 S 2.5691 0.3111 -1.8679 0
M  V30 2 C 1.7977 0.0603 -0.445 0
M  V30 3 N 0.3839 0.2967 -0.3597 0
M  V30 4 N 2.5492 -0.3882 0.6875 0
M  V30 5 C -0.3771 0.0841 0.8719 0
M  V30 6 C -1.8347 0.39 0.6662 0
M  V30 7 C -2.6068 -0.3794 -0.1061 0
M  V30 8 H -0.1109 0.6381 -1.2159 0
M  V30 9 H 3.5766 -0.5567 0.6055 0
M  V30 10 H 2.1005 -0.5538 1.6144 0
M  V30 11 H 0.0183 0.7541 1.6651 0
M  V30 12 H -0.2671 -0.97 1.2071 0
M  V30 13 H -2.2722 1.2483 1.1676 0
M  V30 14 H -2.1979 -1.2475 -0.6143 0
M  V30 15 H -3.6576 -0.1406 -0.2334 0
M  V30 END ATOM
M  V30 BEGIN BOND
M  V30 1 2 1 2
M  V30 2 1 2 3
M  V30 3 1 2 4
M  V30 4 1 3 5
M  V30 5 1 5 6
M  V30 6 2 6 7
M  V30 7 1 3 8
M  V30 8 1 4 9
M  V30 9 1 4 10
M  V30 10 1 5 11
M  V30 11 1 5 12
M  V30 12 1 6 13
M  V30 13 1 7 14
M  V30 14 1 7 15
M  V30 END BOND
M  V30 END CTAB
M  END
>  <Structure No>
7587

>  <LogS>
-0.294

>  <MMFF94 Energy>
-82.108

$$$$
Compound 7588
Actelion Java MolfileCreator 2.0

  0  0  0  0  0  0              0 V3000
M  V30 BEGIN CTAB
M  V30 COUNTS 11 10 0 0 0
M  V30 BEGIN ATOM
M  V30 1 O 0.0747 -0.8221 -0.2241 0
M  V30 2 C -1.3091 -0.7886 0.0082 0
M  V30 3 C 0.9585 0.2399 -0.0042 0
M  V30 4 C -2.0055 0.3326 0.2027 0
M  V30 5 C 2.2299 0.1204 -0.3631 0
M  V30 6 H -1.8438 -1.7297 0.008 0
M  V30 7 H 0.635 1.1581 0.4668 0
M  V30 8 H -3.0735 0.2762 0.3701 0
M  V30 9 H -1.5499 1.3109 0.1729 0
M  V30 10 H 2.9232 0.9336 -0.191 0
M  V30 11 H 2.5859 -0.7886 -0.8306 0
M  V30 END ATOM
M  V30 BEGIN BOND
M  V30 1 1 1 2
M  V30 2 1 1 3
M  V30 3 2 2 4
M  V30 4 2 3 5
M  V30 5 1 2 6
M  V30 6 1 3 7
M  V30 7 1 4 8
M  V30 8 1 4 9
M  V30 9 1 5 10
M  V30 10 1 5 11
M  V30 END BOND
M  V30 END CTAB
M  END
>  <Structure No>
7588

>  <LogS>
-1.261

>  <MMFF94 Energy>
9.74

$$$$
Compound 7589
Actelion Java MolfileCreator 2.0

  0  0  0  0  0  0              0 V3000
M  V30 BEGIN CTAB
M  V30 COUNTS 30 29 0 0 0
M  V30 BEGIN ATOM
M  V30 1 N -1.9702 -0.5301 -0.3786 0
M  V30 2 C -0.5817 -0.9161 -0.0805 0
M  V30 3 C -2.5386 0.3539 0.6484 0
M  V30 4 C 0.4105 0.2398 -0.2888 0
M  V30 5 C -4.0603 0.4498 0.485 0
M  V30 6 N 1.7842 -0.237 -0.0869 0
M  V30 7 N -4.7096 -0.8394 0.727 0 CHG=1
M  V30 8 C 2.7367 0.8728 -0.2258 0
M  V30 9 C 4.1381 0.4515 0.239 0
M  V30 10 N 4.7421 -0.5351 -0.6583 0 CHG=1
M  V30 11 H -2.0057 -0.0456 -1.3065 0
M  V30 12 H -0.3059 -1.7511 -0.76 0
M  V30 13 H -0.499 -1.3061 0.9581 0
M  V30 14 H -2.3118 -0.0261 1.6695 0
M  V30 15 H -2.1125 1.3766 0.5518 0
M  V30 16 H 0.1853 1.0429 0.4458 0
M  V30 17 H 0.2956 0.6497 -1.318 0
M  V30 18 H -4.4519 1.199 1.2085 0
M  V30 19 H -4.3052 0.8068 -0.5399 0
M  V30 20 H 1.9887 -0.9293 -0.8455 0
M  V30 21 H -4.4846 -1.1814 1.6896 0
M  V30 22 H -4.3964 -1.5418 0.0188 0
M  V30 23 H -5.7453 -0.7198 0.6454 0
M  V30 24 H 2.775 1.2252 -1.2815 0
M  V30 25 H 2.4201 1.7289 0.4115 0
M  V30 26 H 4.7857 1.3558 0.2733 0
M  V30 27 H 4.081 0.0368 1.27 0
M  V30 28 H 5.7372 -0.6864 -0.3753 0
M  V30 29 H 4.7227 -0.1903 -1.6455 0
M  V30 30 H 4.2375 -1.4478 -0.5878 0
M  V30 END ATOM
M  V30 BEGIN BOND
M  V30 1 1 1 2
M  V30 2 1 1 3
M  V30 3 1 2 4
M  V30 4 1 3 5
M  V30 5 1 4 6
M  V30 6 1 5 7
M  V30 7 1 6 8
M  V30 8 1 8 9
M  V30 9 1 9 10
M  V30 10 1 1 11
M  V30 11 1 2 12
M  V30 12 1 2 13
M  V30 13 1 3 14
M  V30 14 1 3 15
M  V30 15 1 4 16
M  V30 16 1 4 17
M  V30 17 1 5 18
M  V30 18 1 5 19
M  V30 19 1 6 20
M  V30 20 1 7 21
M  V30 21 1 7 22
M  V30 22 1 7 23
M  V30 23 1 8 24
M  V30 24 1 8 25
M  V30 25 1 9 26
M  V30 26 1 9 27
M  V30 27 1 10 28
M  V30 28 1 10 29
M  V30 29 1 10 30
M  V30 END BOND
M  V30 END CTAB
M  END
>  <Structure No>
7589

>  <LogS>
0.835

>  <MMFF94 Energy>
100.99

$$$$
Compound 7590
Actelion Java MolfileCreator 2.0

  0  0  0  0  0  0              0 V3000
M  V30 BEGIN CTAB
M  V30 COUNTS 39 38 0 0 0
M  V30 BEGIN ATOM
M  V30 1 N -0.4557 -0.5316 -0.2278 0 CHG=1
M  V30 2 C 0.8457 -1.174 -0.4913 0
M  V30 3 C -0.9624 0.1941 -1.4058 0
M  V30 4 C 2.0215 -0.1934 -0.3542 0
M  V30 5 C -2.2572 0.9695 -1.0899 0
M  V30 6 N 3.2905 -0.9138 -0.525 0
M  V30 7 N -3.4064 0.0879 -0.8055 0
M  V30 8 C 4.4442 -0.0484 -0.2382 0
M  V30 9 C -3.7592 0.087 0.6208 0
M  V30 10 C 4.8161 -0.1275 1.2479 0
M  V30 11 C -4.9821 -0.803 0.8799 0
M  V30 12 N 6.0105 0.6675 1.5321 0 CHG=1
M  V30 13 N -6.1732 -0.2934 0.1987 0 CHG=1
M  V30 14 H -1.1355 -1.2888 0.0149 0
M  V30 15 H -0.3797 0.1153 0.592 0
M  V30 16 H 0.8574 -1.6423 -1.5015 0
M  V30 17 H 0.9976 -1.9939 0.2467 0
M  V30 18 H -0.2107 0.9338 -1.7544 0
M  V30 19 H -1.1509 -0.5141 -2.2437 0
M  V30 20 H 1.9793 0.2724 0.654 0
M  V30 21 H 1.9402 0.6096 -1.1186 0
M  V30 22 H -2.0658 1.6955 -0.2672 0
M  V30 23 H -2.5135 1.5774 -1.9835 0
M  V30 24 H 3.3533 -1.2053 -1.5292 0
M  V30 25 H -3.2132 -0.8929 -1.1167 0
M  V30 26 H 4.2488 1.008 -0.5332 0
M  V30 27 H 5.3168 -0.3992 -0.8336 0
M  V30 28 H -2.9092 -0.2904 1.2293 0
M  V30 29 H -3.994 1.1218 0.956 0
M  V30 30 H 3.974 0.2448 1.8706 0
M  V30 31 H 5.0056 -1.1888 1.5232 0
M  V30 32 H -4.7704 -1.841 0.5401 0
M  V30 33 H -5.1732 -0.8379 1.9752 0
M  V30 34 H 5.8392 1.671 1.2917 0
M  V30 35 H 6.2337 0.5972 2.5511 0
M  V30 36 H 6.8232 0.3052 0.9824 0
M  V30 37 H -6.0341 -0.3116 -0.8374 0
M  V30 38 H -6.989 -0.9021 0.438 0
M  V30 39 H -6.3779 0.6832 0.5123 0
M  V30 END ATOM
M  V30 BEGIN BOND
M  V30 1 1 1 2
M  V30 2 1 1 3
M  V30 3 1 2 4
M  V30 4 1 3 5
M  V30 5 1 4 6
M  V30 6 1 5 7
M  V30 7 1 6 8
M  V30 8 1 7 9
M  V30 9 1 8 10
M  V30 10 1 9 11
M  V30 11 1 10 12
M  V30 12 1 11 13
M  V30 13 1 1 14
M  V30 14 1 1 15
M  V30 15 1 2 16
M  V30 16 1 2 17
M  V30 17 1 3 18
M  V30 18 1 3 19
M  V30 19 1 4 20
M  V30 20 1 4 21
M  V30 21 1 5 22
M  V30 22 1 5 23
M  V30 23 1 6 24
M  V30 24 1 7 25
M  V30 25 1 8 26
M  V30 26 1 8 27
M  V30 27 1 9 28
M  V30 28 1 9 29
M  V30 29 1 10 30
M  V30 30 1 10 31
M  V30 31 1 11 32
M  V30 32 1 11 33
M  V30 33 1 12 34
M  V30 34 1 12 35
M  V30 35 1 12 36
M  V30 36 1 13 37
M  V30 37 1 13 38
M  V30 38 1 13 39
M  V30 END BOND
M  V30 END CTAB
M  END
>  <Structure No>
7590

>  <LogS>
0.723

>  <MMFF94 Energy>
235.63

$$$$
Compound 7591
Actelion Java MolfileCreator 2.0

  0  0  0  0  0  0              0 V3000
M  V30 BEGIN CTAB
M  V30 COUNTS 29 28 0 0 0
M  V30 BEGIN ATOM
M  V30 1 S 1.4088 -1.3259 -0.0828 0
M  V30 2 O 1.082 -2.7725 0.1654 0
M  V30 3 O 2.7352 -1.265 -0.7889 0
M  V30 4 C 0.1305 -0.6361 -1.1713 0
M  V30 5 C 1.5765 -0.5544 1.5296 0
M  V30 6 S -1.428 -0.3999 -0.2776 0
M  V30 7 C -0.1042 -1.6339 -2.3204 0
M  V30 8 C 0.5998 0.6961 -1.7781 0
M  V30 9 C 2.3885 0.7356 1.4877 0
M  V30 10 O -2.5747 -0.4933 -1.2461 0
M  V30 11 O -1.5872 -1.4836 0.7526 0
M  V30 12 C -1.5295 1.2014 0.5214 0
M  V30 13 C -2.753 1.2837 1.4252 0
M  V30 14 H 2.1031 -1.2708 2.1952 0
M  V30 15 H 0.5798 -0.3689 1.9746 0
M  V30 16 H -0.8207 -1.2231 -3.0639 0
M  V30 17 H 0.848 -1.8546 -2.8487 0
M  V30 18 H -0.5195 -2.5884 -1.9325 0
M  V30 19 H 0.788 1.4534 -0.9964 0
M  V30 20 H -0.1748 1.103 -2.4631 0
M  V30 21 H 1.5369 0.5566 -2.358 0
M  V30 22 H 2.568 1.0881 2.5252 0
M  V30 23 H 1.8426 1.5328 0.9507 0
M  V30 24 H 3.3722 0.5649 1.0027 0
M  V30 25 H -0.6196 1.3899 1.1224 0
M  V30 26 H -1.6014 1.9891 -0.2578 0
M  V30 27 H -2.8094 2.294 1.8822 0
M  V30 28 H -2.6824 0.5309 2.2384 0
M  V30 29 H -3.6789 1.1067 0.8381 0
M  V30 END ATOM
M  V30 BEGIN BOND
M  V30 1 2 1 2
M  V30 2 2 1 3
M  V30 3 1 1 4
M  V30 4 1 1 5
M  V30 5 1 4 6
M  V30 6 1 4 7
M  V30 7 1 4 8
M  V30 8 1 5 9
M  V30 9 2 6 10
M  V30 10 2 6 11
M  V30 11 1 6 12
M  V30 12 1 12 13
M  V30 13 1 5 14
M  V30 14 1 5 15
M  V30 15 1 7 16
M  V30 16 1 7 17
M  V30 17 1 7 18
M  V30 18 1 8 19
M  V30 19 1 8 20
M  V30 20 1 8 21
M  V30 21 1 9 22
M  V30 22 1 9 23
M  V30 23 1 9 24
M  V30 24 1 12 25
M  V30 25 1 12 26
M  V30 26 1 13 27
M  V30 27 1 13 28
M  V30 28 1 13 29
M  V30 END BOND
M  V30 END CTAB
M  END
>  <Structure No>
7591

>  <LogS>
-1.927

>  <MMFF94 Energy>
-40.206

$$$$
Compound 7592
Actelion Java MolfileCreator 2.0

  0  0  0  0  0  0              0 V3000
M  V30 BEGIN CTAB
M  V30 COUNTS 12 12 0 0 0
M  V30 BEGIN ATOM
M  V30 1 F -1.9712 -0.5373 -0.6269 0
M  V30 2 C -0.9547 -0.3267 0.2907 0
M  V30 3 F -1.3575 -0.579 1.5922 0
M  V30 4 C 0.347 -1.0319 -0.0825 0
M  V30 5 C -0.2683 1.0273 0.1264 0
M  V30 6 F 0.2597 -1.746 -1.2667 0
M  V30 7 F 0.8735 -1.7879 0.9524 0
M  V30 8 C 1.0335 0.3221 -0.2468 0
M  V30 9 F -0.181 1.7415 1.3105 0
M  V30 10 F -0.7948 1.7834 -0.9084 0
M  V30 11 F 1.4362 0.5745 -1.5482 0
M  V30 12 F 2.0499 0.5327 0.6707 0
M  V30 END ATOM
M  V30 BEGIN BOND
M  V30 1 1 1 2
M  V30 2 1 2 3
M  V30 3 1 2 4
M  V30 4 1 2 5
M  V30 5 1 4 6
M  V30 6 1 4 7
M  V30 7 1 4 8
M  V30 8 1 5 9
M  V30 9 1 5 10
M  V30 10 1 8 11
M  V30 11 1 8 12
M  V30 12 1 5 8
M  V30 END BOND
M  V30 END CTAB
M  END
>  <Structure No>
7592

>  <LogS>
-3.638

>  <MMFF94 Energy>
66.062

$$$$
Compound 7593
Actelion Java MolfileCreator 2.0

  0  0  0  0  0  0              0 V3000
M  V30 BEGIN CTAB
M  V30 COUNTS 45 49 0 0 0
M  V30 BEGIN ATOM
M  V30 1 O -2.1092 0.8919 0.3242 0
M  V30 2 C -1.8916 -0.4828 0.1104 0
M  V30 3 C -0.9846 1.5078 -0.3202 0 CFG=1
M  V30 4 C -2.8065 -1.5344 0.0574 0
M  V30 5 C -0.5878 -0.6982 -0.2402 0
M  V30 6 C -0.4689 2.8931 -0.0979 0
M  V30 7 C 0.1516 0.5292 -0.0809 0 CFG=1
M  V30 8 O -4.1343 -1.314 0.4464 0
M  V30 9 C -2.3321 -2.787 -0.436 0
M  V30 10 C -0.0974 -1.8485 -0.8073 0
M  V30 11 O -1.2392 3.8458 0.5817 0
M  V30 12 C 0.7447 3.1512 -0.6803 0
M  V30 13 C 1.2067 0.7329 -1.0804 0
M  V30 14 C 0.8335 0.5167 1.3162 0
M  V30 15 C -5.1482 -2.3122 0.4167 0
M  V30 16 C -0.9944 -2.9297 -0.9007 0
M  V30 17 C 1.2885 -1.7916 -1.4519 0
M  V30 18 C -0.821 5.186 0.817 0
M  V30 19 C 1.5664 2.0268 -1.2953 0
M  V30 20 C 2.1262 -0.471 -1.1329 0 CFG=2
M  V30 21 C 1.9418 -0.5748 1.3613 0
M  V30 22 N 2.8484 -0.5232 0.1777 0 CHG=1 CFG=1
M  V30 23 C 3.8447 -1.6088 0.2363 0
M  V30 24 H -1.2442 1.5085 -1.4118 0
M  V30 25 H -2.9979 -3.6353 -0.5147 0
M  V30 26 H 1.1708 4.1444 -0.6583 0
M  V30 27 H 0.089 0.3238 2.1201 0
M  V30 28 H 1.2987 1.5026 1.5331 0
M  V30 29 H -4.8699 -3.1586 1.0795 0
M  V30 30 H -5.2969 -2.6742 -0.6223 0
M  V30 31 H -6.1001 -1.8736 0.7802 0
M  V30 32 H -0.675 -3.8625 -1.347 0
M  V30 33 H 1.8518 -2.7098 -1.1993 0
M  V30 34 H 1.1306 -1.824 -2.5513 0
M  V30 35 H 0.1223 5.1937 1.403 0
M  V30 36 H -0.6745 5.7149 -0.1482 0
M  V30 37 H -1.6054 5.7145 1.3966 0
M  V30 38 H 2.5004 2.2561 -1.7908 0
M  V30 39 H 2.8619 -0.3198 -1.9552 0
M  V30 40 H 1.4638 -1.576 1.4418 0
M  V30 41 H 2.5328 -0.4293 2.2932 0
M  V30 42 H 3.3979 0.3672 0.258 0
M  V30 43 H 3.3695 -2.5961 0.4173 0
M  V30 44 H 4.5574 -1.4262 1.0706 0
M  V30 45 H 4.4359 -1.6553 -0.7041 0
M  V30 END ATOM
M  V30 BEGIN BOND
M  V30 1 1 1 2
M  V30 2 1 1 3
M  V30 3 2 2 4
M  V30 4 1 2 5
M  V30 5 1 3 6
M  V30 6 1 3 7
M  V30 7 1 4 8
M  V30 8 1 4 9
M  V30 9 2 5 10
M  V30 10 1 6 11
M  V30 11 2 6 12
M  V30 12 1 7 13
M  V30 13 1 7 14
M  V30 14 1 8 15
M  V30 15 2 9 16
M  V30 16 1 10 17
M  V30 17 1 11 18
M  V30 18 1 12 19
M  V30 19 1 13 20
M  V30 20 1 14 21
M  V30 21 1 20 22
M  V30 22 1 22 23
M  V30 23 1 5 7
M  V30 24 1 10 16
M  V30 25 2 13 19
M  V30 26 1 17 20
M  V30 27 1 21 22
M  V30 28 1 3 24
M  V30 29 1 9 25
M  V30 30 1 12 26
M  V30 31 1 14 27
M  V30 32 1 14 28
M  V30 33 1 15 29
M  V30 34 1 15 30
M  V30 35 1 15 31
M  V30 36 1 16 32
M  V30 37 1 17 33
M  V30 38 1 17 34
M  V30 39 1 18 35
M  V30 40 1 18 36
M  V30 41 1 18 37
M  V30 42 1 19 38
M  V30 43 1 20 39
M  V30 44 1 21 40
M  V30 45 1 21 41
M  V30 46 1 22 42
M  V30 47 1 23 43
M  V30 48 1 23 44
M  V30 49 1 23 45
M  V30 END BOND
M  V30 BEGIN COLLECTION
M  V30 MDLV30/STEABS ATOMS=(4 3 7 20 22)
M  V30 END COLLECTION
M  V30 END CTAB
M  END
>  <Structure No>
7593

>  <LogS>
-2.661

>  <MMFF94 Energy>
108.67

$$$$
Compound 7594
Actelion Java MolfileCreator 2.0

  0  0  0  0  0  0              0 V3000
M  V30 BEGIN CTAB
M  V30 COUNTS 20 20 0 0 0
M  V30 BEGIN ATOM
M  V30 1 O 1.7868 2.5998 0.6494 0
M  V30 2 N 0.5767 2.3527 0.8299 0 CHG=1
M  V30 3 O -0.2124 3.3272 1.3977 0 CHG=-1
M  V30 4 C -0.0013 1.0949 0.4177 0
M  V30 5 C 0.8064 0.0037 0.0143 0
M  V30 6 C -1.4018 0.9471 0.4206 0
M  V30 7 O 2.2054 0.1351 0.0273 0
M  V30 8 C 0.1912 -1.1981 -0.3848 0
M  V30 9 C -2.0091 -0.2548 0.0239 0
M  V30 10 C 3.1219 -0.8868 -0.352 0
M  V30 11 C -1.1973 -1.3244 -0.3798 0
M  V30 12 N -3.4434 -0.3845 0.0308 0 CHG=1
M  V30 13 O -3.9884 -1.451 -0.3227 0
M  V30 14 O -4.2399 0.6652 0.4283 0 CHG=-1
M  V30 15 H -2.0244 1.7772 0.7269 0
M  V30 16 H 0.7799 -2.0485 -0.6999 0
M  V30 17 H 3.0007 -1.7724 0.3069 0
M  V30 18 H 2.9588 -1.1719 -1.4128 0
M  V30 19 H 4.157 -0.5031 -0.2431 0
M  V30 20 H -1.6366 -2.2634 -0.6917 0
M  V30 END ATOM
M  V30 BEGIN BOND
M  V30 1 2 1 2
M  V30 2 1 2 3
M  V30 3 1 2 4
M  V30 4 2 4 5
M  V30 5 1 4 6
M  V30 6 1 5 7
M  V30 7 1 5 8
M  V30 8 2 6 9
M  V30 9 1 7 10
M  V30 10 2 8 11
M  V30 11 1 9 12
M  V30 12 2 12 13
M  V30 13 1 12 14
M  V30 14 1 9 11
M  V30 15 1 6 15
M  V30 16 1 8 16
M  V30 17 1 10 17
M  V30 18 1 10 18
M  V30 19 1 10 19
M  V30 20 1 11 20
M  V30 END BOND
M  V30 END CTAB
M  END
>  <Structure No>
7594

>  <LogS>
-3.107

>  <MMFF94 Energy>
78.645

$$$$
Compound 7595
Actelion Java MolfileCreator 2.0

  0  0  0  0  0  0              0 V3000
M  V30 BEGIN CTAB
M  V30 COUNTS 40 42 0 0 0
M  V30 BEGIN ATOM
M  V30 1 O -4.0843 2.6942 -0.8158 0
M  V30 2 C -3.0964 1.9557 -0.5587 0
M  V30 3 C -3.2586 0.6967 0.2301 0
M  V30 4 C -1.7449 2.3766 -0.9644 0
M  V30 5 C -2.2153 -0.1717 0.2905 0
M  V30 6 C -4.5156 0.4757 0.992 0
M  V30 7 C -0.7676 1.4819 -0.8524 0
M  V30 8 O -2.2509 -1.2672 1.1468 0 CHG=-1
M  V30 9 C -1.0241 0.0119 -0.6386 0 CFG=1
M  V30 10 O -5.1293 1.4663 1.4727 0
M  V30 11 C -5.0857 -0.8928 1.2119 0
M  V30 12 O 0.5736 1.8079 -0.7265 0
M  V30 13 C 0.3278 -0.383 -0.0947 0
M  V30 14 C -1.2864 -0.6814 -1.9857 0
M  V30 15 C 1.2032 0.6786 -0.2286 0
M  V30 16 C 0.7869 -1.6445 0.3008 0
M  V30 17 C 2.5566 0.5711 0.0942 0
M  V30 18 O -0.0984 -2.7249 0.3008 0
M  V30 19 C 2.1485 -1.7871 0.6758 0
M  V30 20 C 3.0278 -0.6713 0.5917 0
M  V30 21 C 3.4401 1.7371 -0.1141 0
M  V30 22 C 2.6568 -3.1242 1.1554 0
M  V30 23 O 4.3481 -0.8138 1.0294 0
M  V30 24 O 3.1106 2.8573 0.3601 0
M  V30 25 C 4.6828 1.6377 -0.9436 0
M  V30 26 H -1.5252 3.4205 -1.1483 0
M  V30 27 H -4.8144 -1.567 0.3722 0
M  V30 28 H -4.703 -1.3098 2.1665 0
M  V30 29 H -6.1936 -0.8378 1.2663 0
M  V30 30 H -2.2009 -0.2699 -2.465 0
M  V30 31 H -1.4331 -1.7722 -1.8378 0
M  V30 32 H -0.4315 -0.5316 -2.681 0
M  V30 33 H 0.1712 -3.6649 0.5592 0
M  V30 34 H 3.7189 -3.093 1.4724 0
M  V30 35 H 2.5702 -3.8705 0.338 0
M  V30 36 H 2.0588 -3.4612 2.0282 0
M  V30 37 H 4.9875 -0.0361 1.1235 0
M  V30 38 H 4.8109 0.6129 -1.3515 0
M  V30 39 H 5.5674 1.8994 -0.3264 0
M  V30 40 H 4.6153 2.3472 -1.7948 0
M  V30 END ATOM
M  V30 BEGIN BOND
M  V30 1 2 1 2
M  V30 2 1 2 3
M  V30 3 1 2 4
M  V30 4 2 3 5
M  V30 5 1 3 6
M  V30 6 2 4 7
M  V30 7 1 5 8
M  V30 8 1 5 9
M  V30 9 2 6 10
M  V30 10 1 6 11
M  V30 11 1 7 12
M  V30 12 1 9 13
M  V30 13 1 9 14
M  V30 14 1 12 15
M  V30 15 1 13 16
M  V30 16 1 15 17
M  V30 17 1 16 18
M  V30 18 2 16 19
M  V30 19 2 17 20
M  V30 20 1 17 21
M  V30 21 1 19 22
M  V30 22 1 20 23
M  V30 23 2 21 24
M  V30 24 1 21 25
M  V30 25 1 7 9
M  V30 26 2 13 15
M  V30 27 1 19 20
M  V30 28 1 4 26
M  V30 29 1 11 27
M  V30 30 1 11 28
M  V30 31 1 11 29
M  V30 32 1 14 30
M  V30 33 1 14 31
M  V30 34 1 14 32
M  V30 35 1 18 33
M  V30 36 1 22 34
M  V30 37 1 22 35
M  V30 38 1 22 36
M  V30 39 1 23 37
M  V30 40 1 25 38
M  V30 41 1 25 39
M  V30 42 1 25 40
M  V30 END BOND
M  V30 BEGIN COLLECTION
M  V30 MDLV30/STEABS ATOMS=(1 9)
M  V30 END COLLECTION
M  V30 END CTAB
M  END
>  <Structure No>
7595

>  <LogS>
-3.537

>  <MMFF94 Energy>
82.273

$$$$
Compound 7596
Actelion Java MolfileCreator 2.0

  0  0  0  0  0  0              0 V3000
M  V30 BEGIN CTAB
M  V30 COUNTS 19 18 0 0 0
M  V30 BEGIN ATOM
M  V30 1 O -0.8644 0.3928 2.2803 0
M  V30 2 N -0.0035 -0.1981 1.5944 0 CHG=1
M  V30 3 O 0.7272 -1.1991 2.1932 0 CHG=-1
M  V30 4 C 0.0178 -0.0442 0.1266 0
M  V30 5 C -0.8639 -1.1444 -0.5174 0
M  V30 6 C -0.525 1.3536 -0.2788 0
M  V30 7 C 1.4743 -0.1702 -0.3973 0
M  V30 8 O -2.2026 -1.0319 -0.1093 0
M  V30 9 O 0.2343 2.3685 0.3214 0
M  V30 10 O 1.9801 -1.4626 -0.1948 0
M  V30 11 H -0.8289 -1.0506 -1.6243 0
M  V30 12 H -0.475 -2.1581 -0.2651 0
M  V30 13 H -1.5881 1.4612 0.0336 0
M  V30 14 H -0.4881 1.4682 -1.3862 0
M  V30 15 H 1.504 0.0623 -1.4864 0
M  V30 16 H 2.125 0.5636 0.1297 0
M  V30 17 H -2.2776 -1.4968 0.7643 0
M  V30 18 H -0.1576 3.2266 0.0127 0
M  V30 19 H 2.9073 -1.4556 -0.5487 0
M  V30 END ATOM
M  V30 BEGIN BOND
M  V30 1 2 1 2
M  V30 2 1 2 3
M  V30 3 1 2 4
M  V30 4 1 4 5
M  V30 5 1 4 6
M  V30 6 1 4 7
M  V30 7 1 5 8
M  V30 8 1 6 9
M  V30 9 1 7 10
M  V30 10 1 5 11
M  V30 11 1 5 12
M  V30 12 1 6 13
M  V30 13 1 6 14
M  V30 14 1 7 15
M  V30 15 1 7 16
M  V30 16 1 8 17
M  V30 17 1 9 18
M  V30 18 1 10 19
M  V30 END BOND
M  V30 END CTAB
M  END
>  <Structure No>
7596

>  <LogS>
0.821

>  <MMFF94 Energy>
20.726

$$$$
Compound 7597
Actelion Java MolfileCreator 2.0

  0  0  0  0  0  0              0 V3000
M  V30 BEGIN CTAB
M  V30 COUNTS 59 61 0 0 0
M  V30 BEGIN ATOM
M  V30 1 O -1.5234 -2.2457 -0.7214 0
M  V30 2 C -2.4703 -1.7308 -0.0732 0
M  V30 3 O -3.0935 -2.4859 0.9125 0 CHG=-1
M  V30 4 C -2.9292 -0.3445 -0.3623 0
M  V30 5 C -4.2995 -0.0157 -0.2086 0
M  V30 6 C -2.0273 0.6505 -0.8176 0
M  V30 7 O -5.1939 -1.0164 0.2075 0
M  V30 8 C -4.7459 1.3012 -0.4607 0
M  V30 9 C -0.5914 0.3854 -1.0088 0
M  V30 10 C -2.4894 1.9409 -1.09 0
M  V30 11 C -6.4315 -1.301 -0.4447 0
M  V30 12 O -6.0939 1.6238 -0.235 0
M  V30 13 C -3.8286 2.2672 -0.9079 0
M  V30 14 O -0.1873 0.0217 -2.145 0
M  V30 15 C 0.3908 0.6411 0.1017 0
M  V30 16 C -6.6777 2.8995 -0.4845 0
M  V30 17 C 1.3721 -0.5067 0.2393 0
M  V30 18 C 1.1024 -1.5164 1.2068 0
M  V30 19 C 2.5245 -0.6302 -0.6174 0
M  V30 20 O -0.0267 -1.4032 2.038 0
M  V30 21 C 1.9952 -2.5936 1.2912 0
M  V30 22 C 3.3633 -1.7601 -0.49 0
M  V30 23 C 2.8936 0.4007 -1.6751 0
M  V30 24 C -0.4232 -2.3563 3.0154 0
M  V30 25 O 1.9729 -3.6774 2.1485 0
M  V30 26 C 3.0731 -2.7027 0.4788 0
M  V30 27 C 4.2765 1.0476 -1.4371 0
M  V30 28 C 3.1066 -4.5067 1.8637 0
M  V30 29 O 3.7801 -3.8507 0.7852 0
M  V30 30 N 4.3827 1.7519 -0.1335 0 CHG=1
M  V30 31 C 5.7992 1.8646 0.2628 0
M  V30 32 C 3.785 3.1004 -0.2024 0
M  V30 33 H -1.8026 2.7024 -1.439 0
M  V30 34 H -6.2683 -1.4058 -1.5411 0
M  V30 35 H -7.1891 -0.5141 -0.2439 0
M  V30 36 H -6.8293 -2.2605 -0.0489 0
M  V30 37 H -4.1394 3.2823 -1.111 0
M  V30 38 H -0.1609 0.7968 1.0519 0
M  V30 39 H 0.9111 1.6009 -0.0638 0
M  V30 40 H -6.1944 3.6723 0.1486 0
M  V30 41 H -6.5755 3.1636 -1.559 0
M  V30 42 H -7.7564 2.8594 -0.2323 0
M  V30 43 H 4.2281 -1.9005 -1.1264 0
M  V30 44 H 2.1379 1.194 -1.8031 0
M  V30 45 H 2.9257 -0.1222 -2.6563 0
M  V30 46 H -0.5994 -3.3431 2.5368 0
M  V30 47 H -1.3697 -2.0175 3.4836 0
M  V30 48 H 0.355 -2.4445 3.802 0
M  V30 49 H 4.493 1.7466 -2.2783 0
M  V30 50 H 5.0446 0.2469 -1.5175 0
M  V30 51 H 3.77 -4.5619 2.7518 0
M  V30 52 H 2.7745 -5.5184 1.5498 0
M  V30 53 H 3.8918 1.2103 0.6198 0
M  V30 54 H 6.3831 2.4332 -0.4963 0
M  V30 55 H 5.8888 2.3791 1.2436 0
M  V30 56 H 6.2515 0.8556 0.3782 0
M  V30 57 H 3.8407 3.6005 0.7889 0
M  V30 58 H 2.7111 3.0448 -0.4778 0
M  V30 59 H 4.3077 3.7343 -0.9548 0
M  V30 END ATOM
M  V30 BEGIN BOND
M  V30 1 2 1 2
M  V30 2 1 2 3
M  V30 3 1 2 4
M  V30 4 2 4 5
M  V30 5 1 4 6
M  V30 6 1 5 7
M  V30 7 1 5 8
M  V30 8 1 6 9
M  V30 9 2 6 10
M  V30 10 1 7 11
M  V30 11 1 8 12
M  V30 12 2 8 13
M  V30 13 2 9 14
M  V30 14 1 9 15
M  V30 15 1 12 16
M  V30 16 1 15 17
M  V30 17 2 17 18
M  V30 18 1 17 19
M  V30 19 1 18 20
M  V30 20 1 18 21
M  V30 21 2 19 22
M  V30 22 1 19 23
M  V30 23 1 20 24
M  V30 24 1 21 25
M  V30 25 2 21 26
M  V30 26 1 23 27
M  V30 27 1 25 28
M  V30 28 1 26 29
M  V30 29 1 27 30
M  V30 30 1 30 31
M  V30 31 1 30 32
M  V30 32 1 10 13
M  V30 33 1 22 26
M  V30 34 1 28 29
M  V30 35 1 10 33
M  V30 36 1 11 34
M  V30 37 1 11 35
M  V30 38 1 11 36
M  V30 39 1 13 37
M  V30 40 1 15 38
M  V30 41 1 15 39
M  V30 42 1 16 40
M  V30 43 1 16 41
M  V30 44 1 16 42
M  V30 45 1 22 43
M  V30 46 1 23 44
M  V30 47 1 23 45
M  V30 48 1 24 46
M  V30 49 1 24 47
M  V30 50 1 24 48
M  V30 51 1 27 49
M  V30 52 1 27 50
M  V30 53 1 28 51
M  V30 54 1 28 52
M  V30 55 1 30 53
M  V30 56 1 31 54
M  V30 57 1 31 55
M  V30 58 1 31 56
M  V30 59 1 32 57
M  V30 60 1 32 58
M  V30 61 1 32 59
M  V30 END BOND
M  V30 END CTAB
M  END
>  <Structure No>
7597

>  <LogS>
-2.535

>  <MMFF94 Energy>
39.387

$$$$
Compound 7598
Actelion Java MolfileCreator 2.0

  0  0  0  0  0  0              0 V3000
M  V30 BEGIN CTAB
M  V30 COUNTS 55 58 0 0 0
M  V30 BEGIN ATOM
M  V30 1 O -5.1746 -1.1302 0.8072 0
M  V30 2 C -4.3913 -0.8412 -0.0854 0
M  V30 3 C -3.7526 0.545 -0.0663 0 CFG=1
M  V30 4 C -4.082 -1.8969 -1.1137 0
M  V30 5 C -2.3049 0.6123 0.5219 0 CFG=2
M  V30 6 C -3.6356 1.1744 -1.4807 0
M  V30 7 C -1.4603 0.406 -0.7425 0 CFG=1
M  V30 8 C -1.9102 -0.4669 1.5985 0
M  V30 9 C -2.1426 2.0431 1.1306 0
M  V30 10 C -2.1402 1.2086 -1.8455 0
M  V30 11 C 0.082 0.47 -0.5585 0 CFG=2
M  V30 12 C -0.4638 -1.0279 1.439 0
M  V30 13 C 0.5143 0.0311 0.8668 0 CFG=1
M  V30 14 C 0.7738 1.7987 -0.8697 0
M  V30 15 C 2.0464 -0.3228 0.9031 0 CFG=2
M  V30 16 C 2.2693 1.6166 -0.7512 0
M  V30 17 C 2.8504 0.6586 0.0208 0
M  V30 18 C 2.3119 -1.7699 0.3868 0
M  V30 19 C 2.5445 -0.1928 2.3691 0
M  V30 20 C 4.3265 0.3767 -0.1597 0
M  V30 21 C 3.8093 -2.0843 0.1813 0
M  V30 22 C 4.5138 -1.0468 -0.7112 0 CFG=1
M  V30 23 O 4.0069 -1.1336 -2.0189 0
M  V30 24 H -4.4401 1.1875 0.532 0
M  V30 25 H -3.5485 -2.7394 -0.626 0
M  V30 26 H -5.0312 -2.2764 -1.5467 0
M  V30 27 H -3.4604 -1.5199 -1.9476 0
M  V30 28 H -4.2236 0.6251 -2.2467 0
M  V30 29 H -4.0291 2.215 -1.4604 0
M  V30 30 H -1.6257 -0.6553 -1.036 0
M  V30 31 H -2.5929 -1.338 1.5848 0
M  V30 32 H -2.0115 -0.0359 2.6187 0
M  V30 33 H -2.8674 2.1806 1.9618 0
M  V30 34 H -1.151 2.2495 1.5578 0
M  V30 35 H -2.3459 2.8371 0.3825 0
M  V30 36 H -1.9574 0.7515 -2.8424 0
M  V30 37 H -1.7823 2.2598 -1.8558 0
M  V30 38 H 0.4896 -0.2582 -1.2962 0
M  V30 39 H -0.4914 -1.9062 0.7576 0
M  V30 40 H -0.1182 -1.3913 2.4282 0
M  V30 41 H 0.4192 0.9026 1.5391 0
M  V30 42 H 0.4413 2.6001 -0.178 0
M  V30 43 H 0.5455 2.1126 -1.9099 0
M  V30 44 H 2.8882 2.2437 -1.3868 0
M  V30 45 H 1.8972 -2.5118 1.1032 0
M  V30 46 H 1.7938 -1.935 -0.5807 0
M  V30 47 H 2.4009 0.8449 2.7405 0
M  V30 48 H 1.9971 -0.883 3.0426 0
M  V30 49 H 3.6202 -0.4309 2.4755 0
M  V30 50 H 4.854 0.4765 0.8111 0
M  V30 51 H 4.8072 1.1036 -0.8509 0
M  V30 52 H 4.3258 -2.1439 1.1625 0
M  V30 53 H 3.9034 -3.088 -0.2873 0
M  V30 54 H 5.6025 -1.2863 -0.7193 0
M  V30 55 H 4.6521 -0.6628 -2.6087 0
M  V30 END ATOM
M  V30 BEGIN BOND
M  V30 1 2 1 2
M  V30 2 1 2 3
M  V30 3 1 2 4
M  V30 4 1 3 5
M  V30 5 1 3 6
M  V30 6 1 5 7
M  V30 7 1 5 8
M  V30 8 1 5 9
M  V30 9 1 6 10
M  V30 10 1 7 11
M  V30 11 1 8 12
M  V30 12 1 11 13
M  V30 13 1 11 14
M  V30 14 1 13 15
M  V30 15 1 14 16
M  V30 16 1 15 17
M  V30 17 1 15 18
M  V30 18 1 15 19
M  V30 19 1 17 20
M  V30 20 1 18 21
M  V30 21 1 20 22
M  V30 22 1 22 23
M  V30 23 1 7 10
M  V30 24 1 12 13
M  V30 25 2 16 17
M  V30 26 1 21 22
M  V30 27 1 3 24
M  V30 28 1 4 25
M  V30 29 1 4 26
M  V30 30 1 4 27
M  V30 31 1 6 28
M  V30 32 1 6 29
M  V30 33 1 7 30
M  V30 34 1 8 31
M  V30 35 1 8 32
M  V30 36 1 9 33
M  V30 37 1 9 34
M  V30 38 1 9 35
M  V30 39 1 10 36
M  V30 40 1 10 37
M  V30 41 1 11 38
M  V30 42 1 12 39
M  V30 43 1 12 40
M  V30 44 1 13 41
M  V30 45 1 14 42
M  V30 46 1 14 43
M  V30 47 1 16 44
M  V30 48 1 18 45
M  V30 49 1 18 46
M  V30 50 1 19 47
M  V30 51 1 19 48
M  V30 52 1 19 49
M  V30 53 1 20 50
M  V30 54 1 20 51
M  V30 55 1 21 52
M  V30 56 1 21 53
M  V30 57 1 22 54
M  V30 58 1 23 55
M  V30 END BOND
M  V30 BEGIN COLLECTION
M  V30 MDLV30/STEABS ATOMS=(7 3 5 7 11 13 15 22)
M  V30 END COLLECTION
M  V30 END CTAB
M  END
>  <Structure No>
7598

>  <LogS>
-4.652

>  <MMFF94 Energy>
98.633

$$$$
Compound 7599
Actelion Java MolfileCreator 2.0

  0  0  0  0  0  0              0 V3000
M  V30 BEGIN CTAB
M  V30 COUNTS 12 12 0 0 0
M  V30 BEGIN ATOM
M  V30 1 F 0.8846 2.5752 0.0 0
M  V30 2 C 0.4635 1.2863 0.0139 0
M  V30 3 C -0.9055 0.9949 0.046 0
M  V30 4 C 1.3993 0.2461 -0.0037 0
M  V30 5 F -1.8151 2.0005 0.0632 0
M  V30 6 C -1.3365 -0.3362 0.0604 0
M  V30 7 C 0.9674 -1.0841 0.0107 0
M  V30 8 C -0.4003 -1.3752 0.0427 0
M  V30 9 H 2.4581 0.4697 -0.0284 0
M  V30 10 H -2.3945 -0.5633 0.0851 0
M  V30 11 H 1.6915 -1.8882 -0.0029 0
M  V30 12 H -0.7342 -2.4046 0.0538 0
M  V30 END ATOM
M  V30 BEGIN BOND
M  V30 1 1 1 2
M  V30 2 2 2 3
M  V30 3 1 2 4
M  V30 4 1 3 5
M  V30 5 1 3 6
M  V30 6 2 4 7
M  V30 7 2 6 8
M  V30 8 1 7 8
M  V30 9 1 4 9
M  V30 10 1 6 10
M  V30 11 1 7 11
M  V30 12 1 8 12
M  V30 END BOND
M  V30 END CTAB
M  END
>  <Structure No>
7599

>  <LogS>
-2.0

>  <MMFF94 Energy>
22.73

$$$$
Compound 7600
Actelion Java MolfileCreator 2.0

  0  0  0  0  0  0              0 V3000
M  V30 BEGIN CTAB
M  V30 COUNTS 13 12 0 0 0
M  V30 BEGIN ATOM
M  V30 1 F 3.0307 0.0 -0.6374 0
M  V30 2 C 1.735 0.4216 -0.4015 0
M  V30 3 F 1.7676 1.6789 0.1744 0
M  V30 4 F 1.0596 0.4894 -1.6064 0
M  V30 5 C 1.043 -0.5626 0.54 0
M  V30 6 O -0.2561 -0.0993 0.8991 0
M  V30 7 C -1.3536 -0.2193 0.0453 0
M  V30 8 C -2.5362 0.2534 0.4154 0
M  V30 9 H 1.6492 -0.6573 1.4658 0
M  V30 10 H 0.978 -1.5679 0.0686 0
M  V30 11 H -1.2487 -0.6993 -0.9204 0
M  V30 12 H -2.659 0.735 1.3771 0
M  V30 13 H -3.3897 0.1612 -0.2435 0
M  V30 END ATOM
M  V30 BEGIN BOND
M  V30 1 1 1 2
M  V30 2 1 2 3
M  V30 3 1 2 4
M  V30 4 1 2 5
M  V30 5 1 5 6
M  V30 6 1 6 7
M  V30 7 2 7 8
M  V30 8 1 5 9
M  V30 9 1 5 10
M  V30 10 1 7 11
M  V30 11 1 8 12
M  V30 12 1 8 13
M  V30 END BOND
M  V30 END CTAB
M  END
>  <Structure No>
7600

>  <LogS>
-1.478

>  <MMFF94 Energy>
43.352

$$$$
Compound 7601
Actelion Java MolfileCreator 2.0

  0  0  0  0  0  0              0 V3000
M  V30 BEGIN CTAB
M  V30 COUNTS 80 85 0 0 0
M  V30 BEGIN ATOM
M  V30 1 O -5.7605 3.5669 -3.4857 0
M  V30 2 C -6.4175 2.9346 -2.6207 0
M  V30 3 O -6.4871 3.4074 -1.3789 0
M  V30 4 C -6.6886 1.5858 -2.867 0
M  V30 5 C -6.5632 2.5942 -0.324 0
M  V30 6 C -6.7426 0.6941 -1.789 0
M  V30 7 C -6.528 1.1934 -0.4863 0
M  V30 8 C -5.7325 0.4207 0.5655 0 CFG=2
M  V30 9 C -4.186 0.5166 0.333 0 CFG=2
M  V30 10 C -5.9752 -1.1027 0.7004 0
M  V30 11 C -3.5934 -0.5957 1.2447 0 CFG=2
M  V30 12 C -3.5641 1.8619 0.7525 0
M  V30 13 C -3.887 0.2349 -1.1781 0
M  V30 14 C -4.5778 -1.7543 0.9549 0
M  V30 15 O -3.7711 -0.2163 2.6044 0
M  V30 16 C -2.0472 -0.7901 1.0399 0 CFG=2
M  V30 17 C -2.0474 1.8595 0.4662 0
M  V30 18 C -1.2429 0.5794 0.8984 0 CFG=2
M  V30 19 C -1.5795 -1.909 0.1081 0
M  V30 20 C 0.154 0.4553 0.1433 0 CFG=2
M  V30 21 C -0.0843 -2.195 0.3645 0
M  V30 22 C 0.7618 -0.9499 0.2488 0
M  V30 23 C 1.161 1.4422 0.8069 0
M  V30 24 C 0.0336 0.782 -1.3718 0
M  V30 25 C 2.0852 -1.1111 0.1164 0
M  V30 26 C 2.5108 1.4265 0.0875 0
M  V30 27 C 2.9986 0.0158 -0.2902 0 CFG=1
M  V30 28 O 4.2768 -0.1923 0.2977 0
M  V30 29 C 5.3023 -0.4116 -0.6725 0 CFG=2
M  V30 30 O 5.5139 -1.7987 -0.8656 0
M  V30 31 C 6.552 0.4084 -0.33 0 CFG=1
M  V30 32 C 6.1983 -2.4239 0.2097 0 CFG=1
M  V30 33 O 6.1775 1.7306 -0.0195 0
M  V30 34 C 7.3362 -0.2254 0.8203 0 CFG=1
M  V30 35 C 7.5464 -1.7299 0.5479 0 CFG=2
M  V30 36 C 5.3096 -2.639 1.4438 0
M  V30 37 O 8.5575 0.431 1.0429 0
M  V30 38 O 8.5037 -1.9266 -0.4793 0
M  V30 39 H -6.7197 1.2033 -3.8877 0
M  V30 40 H -6.5213 3.0204 0.666 0
M  V30 41 H -6.7758 -0.3597 -2.0155 0
M  V30 42 H -6.0343 0.8766 1.5419 0
M  V30 43 H -6.4114 -1.525 -0.219 0
M  V30 44 H -6.6485 -1.3009 1.5652 0
M  V30 45 H -3.727 2.0907 1.8321 0
M  V30 46 H -4.0067 2.7065 0.1634 0
M  V30 47 H -2.8364 0.0376 -1.3898 0
M  V30 48 H -4.4188 -0.6495 -1.5891 0
M  V30 49 H -4.156 1.105 -1.8139 0
M  V30 50 H -4.268 -2.3063 0.0431 0
M  V30 51 H -4.614 -2.4689 1.8029 0
M  V30 52 H -3.4266 -0.935 3.184 0
M  V30 53 H -1.6865 -1.193 2.0246 0
M  V30 54 H -1.9457 2.0769 -0.607 0
M  V30 55 H -1.6252 2.7369 0.9928 0
M  V30 56 H -0.967 0.8224 1.9609 0
M  V30 57 H -1.7285 -1.6827 -0.9653 0
M  V30 58 H -2.1267 -2.8468 0.3409 0
M  V30 59 H 0.0341 -2.6337 1.3779 0
M  V30 60 H 0.2441 -2.9484 -0.3796 0
M  V30 61 H 0.7548 2.4823 0.8093 0
M  V30 62 H 1.3247 1.1296 1.8726 0
M  V30 63 H -0.0296 1.8703 -1.5455 0
M  V30 64 H 0.9116 0.441 -1.9459 0
M  V30 65 H -0.8081 0.2999 -1.8483 0
M  V30 66 H 2.4877 -2.1292 0.1075 0
M  V30 67 H 2.4385 2.0462 -0.8408 0
M  V30 68 H 3.2616 1.9484 0.722 0
M  V30 69 H 2.9541 -0.0362 -1.412 0
M  V30 70 H 5.0583 0.0076 -1.6803 0
M  V30 71 H 7.2051 0.4225 -1.2473 0
M  V30 72 H 6.4629 -3.4458 -0.1342 0
M  V30 73 H 7.0146 2.2541 0.1032 0
M  V30 74 H 6.7363 -0.1088 1.7514 0
M  V30 75 H 7.968 -2.1923 1.4729 0
M  V30 76 H 5.1284 -1.7 1.995 0
M  V30 77 H 5.82 -3.3326 2.1424 0
M  V30 78 H 4.3581 -3.111 1.1519 0
M  V30 79 H 9.0753 0.4023 0.1966 0
M  V30 80 H 8.046 -1.9036 -1.3639 0
M  V30 END ATOM
M  V30 BEGIN BOND
M  V30 1 2 1 2
M  V30 2 1 2 3
M  V30 3 1 2 4
M  V30 4 1 3 5
M  V30 5 2 4 6
M  V30 6 2 5 7
M  V30 7 1 7 8
M  V30 8 1 8 9
M  V30 9 1 8 10
M  V30 10 1 9 11
M  V30 11 1 9 12
M  V30 12 1 9 13
M  V30 13 1 10 14
M  V30 14 1 11 15
M  V30 15 1 11 16
M  V30 16 1 12 17
M  V30 17 1 16 18
M  V30 18 1 16 19
M  V30 19 1 18 20
M  V30 20 1 19 21
M  V30 21 1 20 22
M  V30 22 1 20 23
M  V30 23 1 20 24
M  V30 24 2 22 25
M  V30 25 1 23 26
M  V30 26 1 25 27
M  V30 27 1 27 28
M  V30 28 1 28 29
M  V30 29 1 29 30
M  V30 30 1 29 31
M  V30 31 1 30 32
M  V30 32 1 31 33
M  V30 33 1 31 34
M  V30 34 1 32 35
M  V30 35 1 32 36
M  V30 36 1 34 37
M  V30 37 1 35 38
M  V30 38 1 6 7
M  V30 39 1 11 14
M  V30 40 1 17 18
M  V30 41 1 21 22
M  V30 42 1 26 27
M  V30 43 1 34 35
M  V30 44 1 4 39
M  V30 45 1 5 40
M  V30 46 1 6 41
M  V30 47 1 8 42
M  V30 48 1 10 43
M  V30 49 1 10 44
M  V30 50 1 12 45
M  V30 51 1 12 46
M  V30 52 1 13 47
M  V30 53 1 13 48
M  V30 54 1 13 49
M  V30 55 1 14 50
M  V30 56 1 14 51
M  V30 57 1 15 52
M  V30 58 1 16 53
M  V30 59 1 17 54
M  V30 60 1 17 55
M  V30 61 1 18 56
M  V30 62 1 19 57
M  V30 63 1 19 58
M  V30 64 1 21 59
M  V30 65 1 21 60
M  V30 66 1 23 61
M  V30 67 1 23 62
M  V30 68 1 24 63
M  V30 69 1 24 64
M  V30 70 1 24 65
M  V30 71 1 25 66
M  V30 72 1 26 67
M  V30 73 1 26 68
M  V30 74 1 27 69
M  V30 75 1 29 70
M  V30 76 1 31 71
M  V30 77 1 32 72
M  V30 78 1 33 73
M  V30 79 1 34 74
M  V30 80 1 35 75
M  V30 81 1 36 76
M  V30 82 1 36 77
M  V30 83 1 36 78
M  V30 84 1 37 79
M  V30 85 1 38 80
M  V30 END BOND
M  V30 BEGIN COLLECTION
M  V30 MDLV30/STEABS ATOMS=(12 8 9 11 16 18 20 27 29 31 32 34 35)
M  V30 END COLLECTION
M  V30 END CTAB
M  END
>  <Structure No>
7601

>  <LogS>
-3.955

>  <MMFF94 Energy>
190.44

$$$$
Compound 7602
Actelion Java MolfileCreator 2.0

  0  0  0  0  0  0              0 V3000
M  V30 BEGIN CTAB
M  V30 COUNTS 29 31 0 0 0
M  V30 BEGIN ATOM
M  V30 1 O -1.9244 3.0483 0.0801 0
M  V30 2 C -1.965 1.8187 -0.2011 0
M  V30 3 N -0.9733 0.9676 0.228 0
M  V30 4 C -3.0404 1.3388 -0.9534 0
M  V30 5 C -1.0558 -0.3845 -0.053 0
M  V30 6 C 0.1095 1.5177 1.0792 0
M  V30 7 C -3.1185 -0.0141 -1.2587 0
M  V30 8 C -2.1277 -0.8799 -0.8115 0
M  V30 9 C 0.0423 -1.3537 0.358 0 CFG=1
M  V30 10 C 1.312 0.5639 1.2057 0 CFG=1
M  V30 11 C 1.0438 -1.5682 -0.8138 0
M  V30 12 C 0.7699 -0.8152 1.586 0
M  V30 13 C 2.1279 0.5222 -0.1246 0
M  V30 14 N 2.3211 -0.8479 -0.6293 0 CHG=1
M  V30 15 H -3.8163 2.013 -1.2957 0
M  V30 16 H -0.3013 1.7151 2.0941 0
M  V30 17 H 0.4664 2.4919 0.6758 0
M  V30 18 H -3.9475 -0.3923 -1.843 0
M  V30 19 H -2.1885 -1.9322 -1.0607 0
M  V30 20 H -0.4166 -2.3308 0.6301 0
M  V30 21 H 1.9697 0.9262 2.0269 0
M  V30 22 H 1.2607 -2.6563 -0.8988 0
M  V30 23 H 0.5863 -1.2711 -1.7851 0
M  V30 24 H 0.0718 -0.7433 2.4505 0
M  V30 25 H 1.5933 -1.4975 1.8902 0
M  V30 26 H 3.1232 0.9881 0.0494 0
M  V30 27 H 1.6365 1.1292 -0.9193 0
M  V30 28 H 2.8138 -0.7979 -1.5517 0
M  V30 29 H 2.9421 -1.3797 0.0246 0
M  V30 END ATOM
M  V30 BEGIN BOND
M  V30 1 2 1 2
M  V30 2 1 2 3
M  V30 3 1 2 4
M  V30 4 1 3 5
M  V30 5 1 3 6
M  V30 6 2 4 7
M  V30 7 2 5 8
M  V30 8 1 5 9
M  V30 9 1 6 10
M  V30 10 1 9 11
M  V30 11 1 9 12
M  V30 12 1 10 13
M  V30 13 1 11 14
M  V30 14 1 7 8
M  V30 15 1 10 12
M  V30 16 1 13 14
M  V30 17 1 4 15
M  V30 18 1 6 16
M  V30 19 1 6 17
M  V30 20 1 7 18
M  V30 21 1 8 19
M  V30 22 1 9 20
M  V30 23 1 10 21
M  V30 24 1 11 22
M  V30 25 1 11 23
M  V30 26 1 12 24
M  V30 27 1 12 25
M  V30 28 1 13 26
M  V30 29 1 13 27
M  V30 30 1 14 28
M  V30 31 1 14 29
M  V30 END BOND
M  V30 BEGIN COLLECTION
M  V30 MDLV30/STEABS ATOMS=(2 9 10)
M  V30 END COLLECTION
M  V30 END CTAB
M  END
>  <Structure No>
7602

>  <LogS>
0.363

>  <MMFF94 Energy>
21.541

$$$$
Compound 7603
Actelion Java MolfileCreator 2.0

  0  0  0  0  0  0              0 V3000
M  V30 BEGIN CTAB
M  V30 COUNTS 13 12 0 0 0
M  V30 BEGIN ATOM
M  V30 1 O 2.7551 0.0809 0.8907 0
M  V30 2 C 1.7222 -0.6332 0.7911 0
M  V30 3 O 1.7757 -1.948 1.2421 0 CHG=-1
M  V30 4 C 0.473 -0.0802 0.2037 0
M  V30 5 C -0.6182 -0.8741 0.1114 0
M  V30 6 C 0.4594 1.3533 -0.2732 0
M  V30 7 C -1.9384 -0.4956 -0.4415 0
M  V30 8 O -2.1716 0.6545 -0.8962 0
M  V30 9 O -2.9537 -1.443 -0.4585 0 CHG=-1
M  V30 10 H -0.5543 -1.8945 0.4686 0
M  V30 11 H 1.4365 1.856 -0.122 0
M  V30 12 H -0.2996 1.9342 0.2917 0
M  V30 13 H 0.2362 1.3895 -1.3603 0
M  V30 END ATOM
M  V30 BEGIN BOND
M  V30 1 2 1 2
M  V30 2 1 2 3
M  V30 3 1 2 4
M  V30 4 2 4 5
M  V30 5 1 4 6
M  V30 6 1 5 7
M  V30 7 2 7 8
M  V30 8 1 7 9
M  V30 9 1 5 10
M  V30 10 1 6 11
M  V30 11 1 6 12
M  V30 12 1 6 13
M  V30 END BOND
M  V30 END CTAB
M  END
>  <Structure No>
7603

>  <LogS>
-0.694

>  <MMFF94 Energy>
59.366

$$$$
Compound 7604
Actelion Java MolfileCreator 2.0

  0  0  0  0  0  0              0 V3000
M  V30 BEGIN CTAB
M  V30 COUNTS 11 10 0 0 0
M  V30 BEGIN ATOM
M  V30 1 S 1.4216 0.2842 0.2842 0
M  V30 2 O 2.6809 -0.5351 0.2885 0
M  V30 3 O 1.2476 0.9296 1.6302 0
M  V30 4 O 1.5428 1.4745 -0.895 0 CHG=-1
M  V30 5 C 0.0326 -0.7792 -0.065 0
M  V30 6 S -1.4908 0.1486 -0.0926 0
M  V30 7 O -1.7243 0.7912 1.2455 0
M  V30 8 O -2.6295 -0.7824 -0.3988 0
M  V30 9 O -1.4167 1.3367 -1.278 0 CHG=-1
M  V30 10 H 0.1829 -1.2623 -1.0525 0
M  V30 11 H -0.0317 -1.566 0.7151 0
M  V30 END ATOM
M  V30 BEGIN BOND
M  V30 1 2 1 2
M  V30 2 2 1 3
M  V30 3 1 1 4
M  V30 4 1 1 5
M  V30 5 1 5 6
M  V30 6 2 6 7
M  V30 7 2 6 8
M  V30 8 1 6 9
M  V30 9 1 5 10
M  V30 10 1 5 11
M  V30 END BOND
M  V30 END CTAB
M  END
>  <Structure No>
7604

>  <LogS>
0.754

>  <MMFF94 Energy>
55.903

$$$$
Compound 7605
Actelion Java MolfileCreator 2.0

  0  0  0  0  0  0              0 V3000
M  V30 BEGIN CTAB
M  V30 COUNTS 14 13 0 0 0
M  V30 BEGIN ATOM
M  V30 1 Cl -0.0788 0.1576 2.1298 0
M  V30 2 C -0.0044 0.0563 0.3455 0
M  V30 3 C -0.3721 1.425 -0.2432 0
M  V30 4 C 1.4214 -0.3313 -0.0685 0
M  V30 5 C -1.0011 -1.0087 -0.1311 0
M  V30 6 H -0.3354 1.3963 -1.3536 0
M  V30 7 H 0.3362 2.2033 0.1135 0
M  V30 8 H -1.3975 1.7184 0.0688 0
M  V30 9 H 1.6987 -1.3137 0.3703 0
M  V30 10 H 2.149 0.4281 0.29 0
M  V30 11 H 1.502 -0.403 -1.1746 0
M  V30 12 H -0.7498 -1.9985 0.3072 0
M  V30 13 H -0.98 -1.0972 -1.2387 0
M  V30 14 H -2.0333 -0.7415 0.1822 0
M  V30 END ATOM
M  V30 BEGIN BOND
M  V30 1 1 1 2
M  V30 2 1 2 3
M  V30 3 1 2 4
M  V30 4 1 2 5
M  V30 5 1 3 6
M  V30 6 1 3 7
M  V30 7 1 3 8
M  V30 8 1 4 9
M  V30 9 1 4 10
M  V30 10 1 4 11
M  V30 11 1 5 12
M  V30 12 1 5 13
M  V30 13 1 5 14
M  V30 END BOND
M  V30 END CTAB
M  END
>  <Structure No>
7605

>  <LogS>
-1.507

>  <MMFF94 Energy>
7.1762

$$$$
Compound 7606
Actelion Java MolfileCreator 2.0

  0  0  0  0  0  0              0 V3000
M  V30 BEGIN CTAB
M  V30 COUNTS 35 36 0 0 0
M  V30 BEGIN ATOM
M  V30 1 Cl -3.4423 4.3453 2.7859 0
M  V30 2 C -2.4156 3.2472 1.8823 0
M  V30 3 C -1.0615 3.1322 2.2025 0
M  V30 4 C -2.9459 2.5023 0.8273 0
M  V30 5 C -0.2397 2.2607 1.4819 0
M  V30 6 C -2.1287 1.63 0.1036 0
M  V30 7 C -0.7698 1.4598 0.4458 0
M  V30 8 C 0.1256 0.5467 -0.4091 0
M  V30 9 O 0.4573 1.2547 -1.5826 0
M  V30 10 C -0.596 -0.7507 -0.7831 0
M  V30 11 C 1.3996 0.1335 0.3043 0
M  V30 12 C -0.5026 -1.2899 -2.084 0
M  V30 13 C -1.2977 -1.485 0.1973 0
M  V30 14 O 1.3399 -0.3785 1.4572 0
M  V30 15 O 2.6346 0.2785 -0.3402 0
M  V30 16 C -1.1301 -2.4982 -2.401 0
M  V30 17 C -1.9234 -2.6918 -0.1255 0
M  V30 18 C 3.8667 -0.1794 0.2118 0
M  V30 19 C -1.8441 -3.197 -1.4249 0
M  V30 20 C 3.9804 -1.6943 0.0858 0
M  V30 21 Cl -2.6278 -4.7139 -1.8269 0
M  V30 22 H -0.6403 3.7269 3.0031 0
M  V30 23 H -3.9899 2.6055 0.5596 0
M  V30 24 H 0.8113 2.2265 1.7347 0
M  V30 25 H -2.5598 1.0872 -0.7279 0
M  V30 26 H 0.933 2.0863 -1.3169 0
M  V30 27 H 0.0585 -0.7848 -2.8589 0
M  V30 28 H -1.3612 -1.1214 1.2154 0
M  V30 29 H -1.0549 -2.8933 -3.4061 0
M  V30 30 H -2.4653 -3.2359 0.6376 0
M  V30 31 H 4.7017 0.2888 -0.3504 0
M  V30 32 H 3.9527 0.1278 1.2769 0
M  V30 33 H 4.9678 -2.0276 0.4684 0
M  V30 34 H 3.1828 -2.1933 0.6747 0
M  V30 35 H 3.8868 -1.9934 -0.9795 0
M  V30 END ATOM
M  V30 BEGIN BOND
M  V30 1 1 1 2
M  V30 2 2 2 3
M  V30 3 1 2 4
M  V30 4 1 3 5
M  V30 5 2 4 6
M  V30 6 2 5 7
M  V30 7 1 7 8
M  V30 8 1 8 9
M  V30 9 1 8 10
M  V30 10 1 8 11
M  V30 11 2 10 12
M  V30 12 1 10 13
M  V30 13 2 11 14
M  V30 14 1 11 15
M  V30 15 1 12 16
M  V30 16 2 13 17
M  V30 17 1 15 18
M  V30 18 2 16 19
M  V30 19 1 18 20
M  V30 20 1 19 21
M  V30 21 1 6 7
M  V30 22 1 17 19
M  V30 23 1 3 22
M  V30 24 1 4 23
M  V30 25 1 5 24
M  V30 26 1 6 25
M  V30 27 1 9 26
M  V30 28 1 12 27
M  V30 29 1 13 28
M  V30 30 1 16 29
M  V30 31 1 17 30
M  V30 32 1 18 31
M  V30 33 1 18 32
M  V30 34 1 20 33
M  V30 35 1 20 34
M  V30 36 1 20 35
M  V30 END BOND
M  V30 END CTAB
M  END
>  <Structure No>
7606

>  <LogS>
-4.512

>  <MMFF94 Energy>
111.9

$$$$
Compound 7607
Actelion Java MolfileCreator 2.0

  0  0  0  0  0  0              0 V3000
M  V30 BEGIN CTAB
M  V30 COUNTS 14 13 0 0 0
M  V30 BEGIN ATOM
M  V30 1 Cl 1.7353 -0.8673 1.4985 0
M  V30 2 C 1.4067 -0.2891 -0.1614 0
M  V30 3 C -0.0641 0.1129 -0.3784 0
M  V30 4 C -1.0125 -1.0784 -0.1919 0
M  V30 5 C -0.4723 1.2846 0.524 0
M  V30 6 H 2.066 0.5808 -0.3671 0
M  V30 7 H 1.683 -1.0945 -0.8748 0
M  V30 8 H -0.1609 0.4546 -1.4327 0
M  V30 9 H -1.0054 -1.4334 0.8604 0
M  V30 10 H -0.7115 -1.9159 -0.8567 0
M  V30 11 H -2.05 -0.7827 -0.4573 0
M  V30 12 H -0.4514 0.9899 1.5947 0
M  V30 13 H 0.2164 2.143 0.3733 0
M  V30 14 H -1.5009 1.6188 0.2703 0
M  V30 END ATOM
M  V30 BEGIN BOND
M  V30 1 1 1 2
M  V30 2 1 2 3
M  V30 3 1 3 4
M  V30 4 1 3 5
M  V30 5 1 2 6
M  V30 6 1 2 7
M  V30 7 1 3 8
M  V30 8 1 4 9
M  V30 9 1 4 10
M  V30 10 1 4 11
M  V30 11 1 5 12
M  V30 12 1 5 13
M  V30 13 1 5 14
M  V30 END BOND
M  V30 END CTAB
M  END
>  <Structure No>
7607

>  <LogS>
-2.0

>  <MMFF94 Energy>
2.1631

$$$$
Compound 7608
Actelion Java MolfileCreator 2.0

  0  0  0  0  0  0              0 V3000
M  V30 BEGIN CTAB
M  V30 COUNTS 28 29 0 0 0
M  V30 BEGIN ATOM
M  V30 1 O -0.1616 -2.2645 -1.2126 0
M  V30 2 C -0.1819 -1.1394 -0.643 0
M  V30 3 C -1.4921 -0.5033 -0.3841 0
M  V30 4 C 1.0954 -0.4968 -0.239 0
M  V30 5 C -2.377 -0.1997 -1.4448 0
M  V30 6 C -1.8832 -0.2232 0.9406 0
M  V30 7 C 2.2778 -1.2542 -0.1746 0
M  V30 8 C 1.1525 0.874 0.0641 0
M  V30 9 O -2.0391 -0.4303 -2.7799 0
M  V30 10 C -3.6258 0.3678 -1.1668 0
M  V30 11 O -1.0439 -0.5295 2.0072 0 CHG=-1
M  V30 12 C -3.129 0.3547 1.2 0
M  V30 13 C 3.4935 -0.6669 0.1978 0
M  V30 14 C 2.3599 1.467 0.4363 0
M  V30 15 C -4.0034 0.6486 0.1482 0
M  V30 16 O 4.6246 -1.4843 0.245 0
M  V30 17 C 3.5347 0.7121 0.5089 0
M  V30 18 O -5.2491 1.2196 0.3988 0
M  V30 19 O 4.7084 1.3661 0.8889 0
M  V30 20 H 2.2604 -2.3122 -0.4065 0
M  V30 21 H 0.2673 1.4942 0.0051 0
M  V30 22 H -1.1346 -0.7811 -3.0672 0
M  V30 23 H -4.3027 0.6005 -1.9794 0
M  V30 24 H -3.4195 0.5672 2.2213 0
M  V30 25 H 2.384 2.5245 0.6674 0
M  V30 26 H 5.5459 -1.1593 0.4998 0
M  V30 27 H -5.5529 1.4357 1.3411 0
M  V30 28 H 5.6062 0.9119 0.9724 0
M  V30 END ATOM
M  V30 BEGIN BOND
M  V30 1 2 1 2
M  V30 2 1 2 3
M  V30 3 1 2 4
M  V30 4 2 3 5
M  V30 5 1 3 6
M  V30 6 2 4 7
M  V30 7 1 4 8
M  V30 8 1 5 9
M  V30 9 1 5 10
M  V30 10 1 6 11
M  V30 11 2 6 12
M  V30 12 1 7 13
M  V30 13 2 8 14
M  V30 14 2 10 15
M  V30 15 1 13 16
M  V30 16 2 13 17
M  V30 17 1 15 18
M  V30 18 1 17 19
M  V30 19 1 12 15
M  V30 20 1 14 17
M  V30 21 1 7 20
M  V30 22 1 8 21
M  V30 23 1 9 22
M  V30 24 1 10 23
M  V30 25 1 12 24
M  V30 26 1 14 25
M  V30 27 1 16 26
M  V30 28 1 18 27
M  V30 29 1 19 28
M  V30 END BOND
M  V30 END CTAB
M  END
>  <Structure No>
7608

>  <LogS>
-1.72

>  <MMFF94 Energy>
56.291

$$$$
Compound 7609
Actelion Java MolfileCreator 2.0

  0  0  0  0  0  0              0 V3000
M  V30 BEGIN CTAB
M  V30 COUNTS 20 20 0 0 0
M  V30 BEGIN ATOM
M  V30 1 O -0.3974 -2.7844 -0.1589 0
M  V30 2 C 0.0544 -1.608 -0.1679 0
M  V30 3 O 1.3705 -1.4287 -0.2235 0
M  V30 4 C -0.8194 -0.5002 -0.1029 0
M  V30 5 C 1.9374 -0.2268 -0.2228 0
M  V30 6 C -0.2458 0.7875 -0.1139 0
M  V30 7 C -2.2927 -0.6999 -0.0396 0
M  V30 8 C 1.144 0.9213 -0.1664 0
M  V30 9 C 3.4263 -0.1118 -0.2864 0
M  V30 10 O -1.0464 1.9292 -0.0969 0
M  V30 11 O -2.82 -1.6515 -0.6767 0
M  V30 12 C -3.1839 0.2082 0.7518 0
M  V30 13 H 1.5999 1.9041 -0.1742 0
M  V30 14 H 3.8898 -1.1206 -0.3117 0
M  V30 15 H 3.8002 0.431 0.6071 0
M  V30 16 H 3.7215 0.4409 -1.2028 0
M  V30 17 H -0.647 2.8604 -0.1112 0
M  V30 18 H -4.0658 -0.3551 1.1236 0
M  V30 19 H -3.5387 1.0398 0.1081 0
M  V30 20 H -2.6409 0.6179 1.6295 0
M  V30 END ATOM
M  V30 BEGIN BOND
M  V30 1 2 1 2
M  V30 2 1 2 3
M  V30 3 1 2 4
M  V30 4 1 3 5
M  V30 5 2 4 6
M  V30 6 1 4 7
M  V30 7 2 5 8
M  V30 8 1 5 9
M  V30 9 1 6 10
M  V30 10 2 7 11
M  V30 11 1 7 12
M  V30 12 1 6 8
M  V30 13 1 8 13
M  V30 14 1 9 14
M  V30 15 1 9 15
M  V30 16 1 9 16
M  V30 17 1 10 17
M  V30 18 1 12 18
M  V30 19 1 12 19
M  V30 20 1 12 20
M  V30 END BOND
M  V30 END CTAB
M  END
>  <Structure No>
7609

>  <LogS>
-1.226

>  <MMFF94 Energy>
4.5709

$$$$
Compound 7610
Actelion Java MolfileCreator 2.0

  0  0  0  0  0  0              0 V3000
M  V30 BEGIN CTAB
M  V30 COUNTS 20 20 0 0 0
M  V30 BEGIN ATOM
M  V30 1 O 1.9808 1.9808 0.7127 0
M  V30 2 C 1.2081 1.0572 0.3303 0
M  V30 3 N 1.726 -0.1225 -0.1393 0
M  V30 4 C -0.1845 1.2473 0.3895 0
M  V30 5 C 0.8973 -1.1266 -0.5549 0
M  V30 6 C 3.1808 -0.3133 -0.1979 0
M  V30 7 C -0.7329 2.4894 0.8839 0
M  V30 8 C -1.0433 0.2231 -0.0345 0
M  V30 9 C -0.4879 -0.9736 -0.5106 0
M  V30 10 N -1.1724 3.484 1.2798 0
M  V30 11 O -2.4325 0.4256 0.0297 0
M  V30 12 C -3.4069 -0.5328 -0.3694 0
M  V30 13 H 1.3024 -2.0603 -0.9267 0
M  V30 14 H 3.6349 0.4558 -0.8585 0
M  V30 15 H 3.452 -1.3141 -0.5985 0
M  V30 16 H 3.6138 -0.2219 0.821 0
M  V30 17 H -1.1132 -1.7891 -0.8474 0
M  V30 18 H -3.3083 -1.4547 0.2419 0
M  V30 19 H -4.4192 -0.1082 -0.2106 0
M  V30 20 H -3.2871 -0.7731 -1.4468 0
M  V30 END ATOM
M  V30 BEGIN BOND
M  V30 1 2 1 2
M  V30 2 1 2 3
M  V30 3 1 2 4
M  V30 4 1 3 5
M  V30 5 1 3 6
M  V30 6 1 4 7
M  V30 7 2 4 8
M  V30 8 2 5 9
M  V30 9 3 7 10
M  V30 10 1 8 11
M  V30 11 1 11 12
M  V30 12 1 8 9
M  V30 13 1 5 13
M  V30 14 1 6 14
M  V30 15 1 6 15
M  V30 16 1 6 16
M  V30 17 1 9 17
M  V30 18 1 12 18
M  V30 19 1 12 19
M  V30 20 1 12 20
M  V30 END BOND
M  V30 END CTAB
M  END
>  <Structure No>
7610

>  <LogS>
-1.784

>  <MMFF94 Energy>
7.927

$$$$
Compound 7611
Actelion Java MolfileCreator 2.0

  0  0  0  0  0  0              0 V3000
M  V30 BEGIN CTAB
M  V30 COUNTS 30 29 0 0 0
M  V30 BEGIN ATOM
M  V30 1 O 0.3113 1.4794 -0.8562 0
M  V30 2 C -0.0234 1.0013 0.4228 0 CFG=1
M  V30 3 C -0.9142 -0.2651 0.2976 0 CFG=1
M  V30 4 C 1.2607 0.7927 1.2798 0 CFG=2
M  V30 5 O -1.1129 -0.8532 1.561 0
M  V30 6 C -2.2851 0.0451 -0.3688 0 CFG=1
M  V30 7 O 1.9584 2.0121 1.3428 0
M  V30 8 C 2.2312 -0.3371 0.8183 0 CFG=1
M  V30 9 O -2.114 0.5719 -1.6618 0
M  V30 10 C -3.1861 -1.204 -0.4259 0
M  V30 11 O 1.6553 -1.6049 0.9993 0
M  V30 12 C 2.7014 -0.1948 -0.6347 0
M  V30 13 O -4.3926 -0.9097 -1.077 0
M  V30 14 O 3.7606 -1.0802 -0.8727 0
M  V30 15 H 0.4839 2.4534 -0.7712 0
M  V30 16 H -0.6357 1.7739 0.948 0
M  V30 17 H -0.3895 -1.0051 -0.3432 0
M  V30 18 H 0.9215 0.537 2.3116 0
M  V30 19 H -1.5906 -0.1914 2.1271 0
M  V30 20 H -2.8083 0.8123 0.2432 0
M  V30 21 H 2.5381 1.9777 2.1485 0
M  V30 22 H 3.1436 -0.2708 1.4579 0
M  V30 23 H -1.6517 -0.117 -2.2074 0
M  V30 24 H -3.3939 -1.584 0.6 0
M  V30 25 H -2.6705 -2.0126 -0.9868 0
M  V30 26 H 1.6496 -1.7836 1.9761 0
M  V30 27 H 3.0457 0.8475 -0.8187 0
M  V30 28 H 1.8667 -0.4331 -1.3297 0
M  V30 29 H -4.9391 -0.3822 -0.4373 0
M  V30 30 H 4.0269 -0.9438 -1.819 0
M  V30 END ATOM
M  V30 BEGIN BOND
M  V30 1 1 1 2
M  V30 2 1 2 3
M  V30 3 1 2 4
M  V30 4 1 3 5
M  V30 5 1 3 6
M  V30 6 1 4 7
M  V30 7 1 4 8
M  V30 8 1 6 9
M  V30 9 1 6 10
M  V30 10 1 8 11
M  V30 11 1 8 12
M  V30 12 1 10 13
M  V30 13 1 12 14
M  V30 14 1 1 15
M  V30 15 1 2 16
M  V30 16 1 3 17
M  V30 17 1 4 18
M  V30 18 1 5 19
M  V30 19 1 6 20
M  V30 20 1 7 21
M  V30 21 1 8 22
M  V30 22 1 9 23
M  V30 23 1 10 24
M  V30 24 1 10 25
M  V30 25 1 11 26
M  V30 26 1 12 27
M  V30 27 1 12 28
M  V30 28 1 13 29
M  V30 29 1 14 30
M  V30 END BOND
M  V30 BEGIN COLLECTION
M  V30 MDLV30/STEABS ATOMS=(5 2 3 4 6 8)
M  V30 END COLLECTION
M  V30 END CTAB
M  END
>  <Structure No>
7611

>  <LogS>
-0.517

>  <MMFF94 Energy>
118.74

$$$$
Compound 7612
Actelion Java MolfileCreator 2.0

  0  0  0  0  0  0              0 V3000
M  V30 BEGIN CTAB
M  V30 COUNTS 39 40 0 0 0
M  V30 BEGIN ATOM
M  V30 1 O 6.4027 -0.6388 0.3992 0
M  V30 2 C 5.4914 -0.1009 -0.287 0
M  V30 3 C 4.0721 -0.2272 0.1416 0
M  V30 4 C 5.8821 0.6531 -1.5227 0
M  V30 5 C 3.0279 0.3605 -0.5972 0
M  V30 6 C 3.7495 -0.9448 1.3075 0
M  V30 7 C 1.6991 0.2327 -0.1813 0
M  V30 8 C 2.4207 -1.0718 1.7209 0
M  V30 9 C 1.3837 -0.491 0.9845 0
M  V30 10 O 0.0702 -0.6545 1.4596 0
M  V30 11 C -1.132 -0.2351 0.8084 0 CFG=2
M  V30 12 O -2.1297 -0.0978 1.8076 0
M  V30 13 C -1.5583 -1.2979 -0.2245 0 CFG=2
M  V30 14 C -3.3664 0.3774 1.2904 0 CFG=2
M  V30 15 O -0.556 -1.472 -1.1913 0
M  V30 16 C -2.8779 -0.8795 -0.8957 0 CFG=1
M  V30 17 C -3.9266 -0.5548 0.1789 0 CFG=2
M  V30 18 C -3.301 1.8775 0.9247 0
M  V30 19 O -2.6799 0.2308 -1.7351 0
M  V30 20 O -5.0715 -0.0069 -0.4227 0
M  V30 21 O -4.5921 2.4206 0.8777 0
M  V30 22 H 6.9836 0.6262 -1.6638 0
M  V30 23 H 5.4033 0.1932 -2.4123 0
M  V30 24 H 5.5659 1.7135 -1.433 0
M  V30 25 H 3.2289 0.9222 -1.4993 0
M  V30 26 H 4.5241 -1.4103 1.9038 0
M  V30 27 H 0.9336 0.7009 -0.7818 0
M  V30 28 H 2.1946 -1.6283 2.6217 0
M  V30 29 H -0.9566 0.7471 0.3238 0
M  V30 30 H -1.7177 -2.2591 0.3195 0
M  V30 31 H -4.0886 0.3092 2.1341 0
M  V30 32 H -0.7562 -2.3234 -1.6612 0
M  V30 33 H -3.2623 -1.7371 -1.4979 0
M  V30 34 H -4.2017 -1.5231 0.6619 0
M  V30 35 H -2.7137 2.4096 1.7064 0
M  V30 36 H -2.7978 2.0371 -0.0508 0
M  V30 37 H -2.317 -0.1132 -2.5925 0
M  V30 38 H -5.807 -0.0818 0.2403 0
M  V30 39 H -4.4808 3.3804 0.6509 0
M  V30 END ATOM
M  V30 BEGIN BOND
M  V30 1 2 1 2
M  V30 2 1 2 3
M  V30 3 1 2 4
M  V30 4 2 3 5
M  V30 5 1 3 6
M  V30 6 1 5 7
M  V30 7 2 6 8
M  V30 8 2 7 9
M  V30 9 1 9 10
M  V30 10 1 10 11
M  V30 11 1 11 12
M  V30 12 1 11 13
M  V30 13 1 12 14
M  V30 14 1 13 15
M  V30 15 1 13 16
M  V30 16 1 14 17
M  V30 17 1 14 18
M  V30 18 1 16 19
M  V30 19 1 17 20
M  V30 20 1 18 21
M  V30 21 1 8 9
M  V30 22 1 16 17
M  V30 23 1 4 22
M  V30 24 1 4 23
M  V30 25 1 4 24
M  V30 26 1 5 25
M  V30 27 1 6 26
M  V30 28 1 7 27
M  V30 29 1 8 28
M  V30 30 1 11 29
M  V30 31 1 13 30
M  V30 32 1 14 31
M  V30 33 1 15 32
M  V30 34 1 16 33
M  V30 35 1 17 34
M  V30 36 1 18 35
M  V30 37 1 18 36
M  V30 38 1 19 37
M  V30 39 1 20 38
M  V30 40 1 21 39
M  V30 END BOND
M  V30 BEGIN COLLECTION
M  V30 MDLV30/STEABS ATOMS=(5 11 13 14 16 17)
M  V30 END COLLECTION
M  V30 END CTAB
M  END
>  <Structure No>
7612

>  <LogS>
-1.174

>  <MMFF94 Energy>
132.6

$$$$
Compound 7613
Actelion Java MolfileCreator 2.0

  0  0  0  0  0  0              0 V3000
M  V30 BEGIN CTAB
M  V30 COUNTS 35 36 0 0 0
M  V30 BEGIN ATOM
M  V30 1 S 1.6585 0.1657 -0.7461 0
M  V30 2 O 1.3702 -1.0122 -1.6331 0
M  V30 3 O 1.3076 1.4413 -1.4599 0
M  V30 4 N 0.718 0.0547 0.7043 0 CHG=-1
M  V30 5 C 3.3691 0.1706 -0.3328 0
M  V30 6 C -0.7093 0.008 0.706 0
M  V30 7 C 3.8288 -0.5721 0.7631 0
M  V30 8 C 4.2828 0.8982 -1.1078 0
M  V30 9 S -1.6971 0.0465 -0.658 0
M  V30 10 N -1.4345 -0.085 1.839 0
M  V30 11 C 5.1886 -0.5777 1.0889 0
M  V30 12 C 5.6427 0.8927 -0.7822 0
M  V30 13 C -3.0835 -0.0432 0.3071 0
M  V30 14 N -2.7478 -0.1204 1.6181 0
M  V30 15 C 6.1019 0.1557 0.3186 0
M  V30 16 C -4.5067 -0.13 -0.2129 0
M  V30 17 N 7.4925 0.1497 0.6514 0
M  V30 18 C -4.746 0.9709 -1.2646 0
M  V30 19 C -5.5164 0.0568 0.9389 0
M  V30 20 C -4.7222 -1.5124 -0.8541 0
M  V30 21 H 3.1367 -1.1483 1.3639 0
M  V30 22 H 3.9449 1.4677 -1.9642 0
M  V30 23 H 5.5302 -1.1542 1.9394 0
M  V30 24 H 6.3377 1.4606 -1.3877 0
M  V30 25 H 7.8442 -0.3968 1.469 0
M  V30 26 H 8.1805 0.6923 0.083 0
M  V30 27 H -4.5513 1.9747 -0.828 0
M  V30 28 H -4.0792 0.8354 -2.143 0
M  V30 29 H -5.7962 0.9448 -1.6277 0
M  V30 30 H -5.3682 1.0422 1.4319 0
M  V30 31 H -6.5598 0.0113 0.5584 0
M  V30 32 H -5.3953 -0.741 1.7034 0
M  V30 33 H -5.7617 -1.6098 -1.2355 0
M  V30 34 H -4.5447 -2.3191 -0.1101 0
M  V30 35 H -4.0248 -1.6646 -1.7062 0
M  V30 END ATOM
M  V30 BEGIN BOND
M  V30 1 2 1 2
M  V30 2 2 1 3
M  V30 3 1 1 4
M  V30 4 1 1 5
M  V30 5 1 4 6
M  V30 6 2 5 7
M  V30 7 1 5 8
M  V30 8 1 6 9
M  V30 9 2 6 10
M  V30 10 1 7 11
M  V30 11 2 8 12
M  V30 12 1 9 13
M  V30 13 1 10 14
M  V30 14 2 11 15
M  V30 15 1 13 16
M  V30 16 1 15 17
M  V30 17 1 16 18
M  V30 18 1 16 19
M  V30 19 1 16 20
M  V30 20 1 12 15
M  V30 21 2 13 14
M  V30 22 1 7 21
M  V30 23 1 8 22
M  V30 24 1 11 23
M  V30 25 1 12 24
M  V30 26 1 17 25
M  V30 27 1 17 26
M  V30 28 1 18 27
M  V30 29 1 18 28
M  V30 30 1 18 29
M  V30 31 1 19 30
M  V30 32 1 19 31
M  V30 33 1 19 32
M  V30 34 1 20 33
M  V30 35 1 20 34
M  V30 36 1 20 35
M  V30 END BOND
M  V30 END CTAB
M  END
>  <Structure No>
7613

>  <LogS>
-3.74

>  <MMFF94 Energy>
60.251

$$$$
Compound 7614
Actelion Java MolfileCreator 2.0

  0  0  0  0  0  0              0 V3000
M  V30 BEGIN CTAB
M  V30 COUNTS 17 17 0 0 0
M  V30 BEGIN ATOM
M  V30 1 N 1.7185 0.937 1.4059 0
M  V30 2 C 0.3978 0.626 1.3109 0
M  V30 3 C 2.6339 0.4428 0.5307 0
M  V30 4 C -0.0541 -0.2314 0.2961 0
M  V30 5 C 2.2275 -0.4033 -0.5028 0
M  V30 6 C 0.8771 -0.737 -0.6224 0
M  V30 7 C -1.5175 -0.555 0.161 0
M  V30 8 C -2.2156 0.4632 -0.7342 0
M  V30 9 H -0.2988 1.0474 2.0243 0
M  V30 10 H 3.6768 0.7103 0.6347 0
M  V30 11 H 2.9516 -0.7939 -1.2058 0
M  V30 12 H 0.5577 -1.3861 -1.4283 0
M  V30 13 H -1.6453 -1.5715 -0.2707 0
M  V30 14 H -2.0023 -0.5568 1.1617 0
M  V30 15 H -3.2925 0.2063 -0.8202 0
M  V30 16 H -1.7658 0.4558 -1.7499 0
M  V30 17 H -2.1267 1.4825 -0.3009 0
M  V30 END ATOM
M  V30 BEGIN BOND
M  V30 1 2 1 2
M  V30 2 1 1 3
M  V30 3 1 2 4
M  V30 4 2 3 5
M  V30 5 2 4 6
M  V30 6 1 4 7
M  V30 7 1 7 8
M  V30 8 1 5 6
M  V30 9 1 2 9
M  V30 10 1 3 10
M  V30 11 1 5 11
M  V30 12 1 6 12
M  V30 13 1 7 13
M  V30 14 1 7 14
M  V30 15 1 8 15
M  V30 16 1 8 16
M  V30 17 1 8 17
M  V30 END BOND
M  V30 END CTAB
M  END
>  <Structure No>
7614

>  <LogS>
0.538

>  <MMFF94 Energy>
18.777

$$$$
Compound 7615
Actelion Java MolfileCreator 2.0

  0  0  0  0  0  0              0 V3000
M  V30 BEGIN CTAB
M  V30 COUNTS 38 40 0 0 0
M  V30 BEGIN ATOM
M  V30 1 O 1.8429 1.7627 0.6407 0
M  V30 2 C 1.9311 0.5426 0.3307 0
M  V30 3 O 0.7947 -0.2755 0.3639 0
M  V30 4 C 3.2366 -0.0304 -0.0628 0
M  V30 5 C -0.5146 0.2003 0.6765 0 CFG=1
M  V30 6 C 3.3384 -1.3892 -0.4126 0
M  V30 7 C 4.3936 0.771 -0.0953 0
M  V30 8 C -1.0603 1.0786 -0.4844 0
M  V30 9 C -1.4247 -1.0103 1.0107 0
M  V30 10 C 4.5714 -1.9329 -0.7862 0
M  V30 11 C 5.6238 0.2218 -0.4696 0
M  V30 12 C -2.6134 1.1474 -0.4978 0 CFG=1
M  V30 13 C -2.9344 -0.6914 0.8195 0 CFG=2
M  V30 14 C 5.7128 -1.1285 -0.8145 0
M  V30 15 N -3.2032 -0.1974 -0.5378 0 CHG=1 CFG=2
M  V30 16 C -3.1211 1.7267 0.8359 0
M  V30 17 C -3.3371 0.4897 1.7219 0
M  V30 18 C -2.7726 -1.0687 -1.6497 0
M  V30 19 H -0.4561 0.8306 1.5924 0
M  V30 20 H 2.4674 -2.0322 -0.3987 0
M  V30 21 H 4.3485 1.8205 0.1678 0
M  V30 22 H -0.6545 2.1085 -0.3842 0
M  V30 23 H -0.688 0.7057 -1.461 0
M  V30 24 H -1.1432 -1.89 0.3953 0
M  V30 25 H -1.2461 -1.3165 2.0647 0
M  V30 26 H 4.6416 -2.9793 -1.054 0
M  V30 27 H 6.509 0.8442 -0.4922 0
M  V30 28 H -2.9624 1.7638 -1.3565 0
M  V30 29 H -3.548 -1.5919 1.0471 0
M  V30 30 H 6.666 -1.5515 -1.104 0
M  V30 31 H -4.2432 -0.0929 -0.6453 0
M  V30 32 H -2.4053 2.4426 1.2962 0
M  V30 33 H -4.0899 2.2481 0.6738 0
M  V30 34 H -2.7374 0.5431 2.657 0
M  V30 35 H -4.412 0.4043 1.9941 0
M  V30 36 H -1.6838 -1.265 -1.6618 0
M  V30 37 H -3.295 -2.0475 -1.5832 0
M  V30 38 H -3.0454 -0.6006 -2.6201 0
M  V30 END ATOM
M  V30 BEGIN BOND
M  V30 1 2 1 2
M  V30 2 1 2 3
M  V30 3 1 2 4
M  V30 4 1 3 5
M  V30 5 2 4 6
M  V30 6 1 4 7
M  V30 7 1 5 8
M  V30 8 1 5 9
M  V30 9 1 6 10
M  V30 10 2 7 11
M  V30 11 1 8 12
M  V30 12 1 9 13
M  V30 13 2 10 14
M  V30 14 1 12 15
M  V30 15 1 12 16
M  V30 16 1 13 17
M  V30 17 1 15 18
M  V30 18 1 11 14
M  V30 19 1 13 15
M  V30 20 1 16 17
M  V30 21 1 5 19
M  V30 22 1 6 20
M  V30 23 1 7 21
M  V30 24 1 8 22
M  V30 25 1 8 23
M  V30 26 1 9 24
M  V30 27 1 9 25
M  V30 28 1 10 26
M  V30 29 1 11 27
M  V30 30 1 12 28
M  V30 31 1 13 29
M  V30 32 1 14 30
M  V30 33 1 15 31
M  V30 34 1 16 32
M  V30 35 1 16 33
M  V30 36 1 17 34
M  V30 37 1 17 35
M  V30 38 1 18 36
M  V30 39 1 18 37
M  V30 40 1 18 38
M  V30 END BOND
M  V30 BEGIN COLLECTION
M  V30 MDLV30/STEABS ATOMS=(4 5 12 13 15)
M  V30 END COLLECTION
M  V30 END CTAB
M  END
>  <Structure No>
7615

>  <LogS>
-2.369

>  <MMFF94 Energy>
44.58

$$$$
Compound 7616
Actelion Java MolfileCreator 2.0

  0  0  0  0  0  0              0 V3000
M  V30 BEGIN CTAB
M  V30 COUNTS 25 24 0 0 0
M  V30 BEGIN ATOM
M  V30 1 O 1.3938 0.5418 1.4713 0
M  V30 2 C 1.298 0.3885 0.2222 0
M  V30 3 O 2.4024 0.6088 -0.6082 0
M  V30 4 N 0.0528 -0.0065 -0.361 0
M  V30 5 C 3.6957 0.9597 -0.1193 0
M  V30 6 C -1.1314 -0.263 0.4604 0
M  V30 7 C 4.3944 -0.2568 0.4767 0
M  V30 8 C -2.3623 -0.6005 -0.4056 0
M  V30 9 C -3.503 -1.1276 0.4736 0
M  V30 10 C -2.8364 0.6245 -1.2011 0
M  V30 11 H 0.0171 -0.1345 -1.3976 0
M  V30 12 H 3.6175 1.7701 0.6378 0
M  V30 13 H 4.3031 1.339 -0.9679 0
M  V30 14 H -0.9088 -1.1155 1.1389 0
M  V30 15 H -1.3483 0.6292 1.0887 0
M  V30 16 H 4.464 -1.0636 -0.283 0
M  V30 17 H 5.4192 0.0225 0.8 0
M  V30 18 H 3.8335 -0.6333 1.3574 0
M  V30 19 H -2.0872 -1.4049 -1.1235 0
M  V30 20 H -4.382 -1.3895 -0.1533 0
M  V30 21 H -3.8089 -0.3626 1.2197 0
M  V30 22 H -3.1808 -2.0447 1.0117 0
M  V30 23 H -2.0351 0.9886 -1.8772 0
M  V30 24 H -3.1264 1.4494 -0.5151 0
M  V30 25 H -3.7137 0.3569 -1.8279 0
M  V30 END ATOM
M  V30 BEGIN BOND
M  V30 1 2 1 2
M  V30 2 1 2 3
M  V30 3 1 2 4
M  V30 4 1 3 5
M  V30 5 1 4 6
M  V30 6 1 5 7
M  V30 7 1 6 8
M  V30 8 1 8 9
M  V30 9 1 8 10
M  V30 10 1 4 11
M  V30 11 1 5 12
M  V30 12 1 5 13
M  V30 13 1 6 14
M  V30 14 1 6 15
M  V30 15 1 7 16
M  V30 16 1 7 17
M  V30 17 1 7 18
M  V30 18 1 8 19
M  V30 19 1 9 20
M  V30 20 1 9 21
M  V30 21 1 9 22
M  V30 22 1 10 23
M  V30 23 1 10 24
M  V30 24 1 10 25
M  V30 END BOND
M  V30 END CTAB
M  END
>  <Structure No>
7616

>  <LogS>
-0.768

>  <MMFF94 Energy>
-66.138

$$$$
Compound 7617
Actelion Java MolfileCreator 2.0

  0  0  0  0  0  0              0 V3000
M  V30 BEGIN CTAB
M  V30 COUNTS 29 28 0 0 0
M  V30 BEGIN ATOM
M  V30 1 O 1.8642 -0.4658 -1.8642 0
M  V30 2 C 1.9583 -0.7691 -0.6434 0
M  V30 3 O 0.872 -0.6 0.2197 0
M  V30 4 C 3.2551 -1.2862 -0.1017 0
M  V30 5 C -0.382 -0.086 -0.2162 0
M  V30 6 C 3.9877 -0.2209 0.7232 0
M  V30 7 C -1.3428 -0.02 0.9723 0
M  V30 8 C 4.4923 0.936 -0.1387 0
M  V30 9 C -2.6738 0.6642 0.624 0
M  V30 10 C -3.5548 -0.1926 -0.2967 0
M  V30 11 C -4.9171 0.4592 -0.5158 0
M  V30 12 H 3.9055 -1.6403 -0.9313 0
M  V30 13 H 3.0399 -2.1595 0.5503 0
M  V30 14 H -0.2352 0.9323 -0.6383 0
M  V30 15 H -0.7938 -0.7532 -1.0028 0
M  V30 16 H 4.8604 -0.6959 1.2214 0
M  V30 17 H 3.3174 0.1729 1.5184 0
M  V30 18 H -1.5311 -1.0453 1.359 0
M  V30 19 H -0.8555 0.5613 1.7854 0
M  V30 20 H 5.1635 0.5578 -0.9388 0
M  V30 21 H 5.0619 1.6484 0.4945 0
M  V30 22 H 3.6407 1.4798 -0.5991 0
M  V30 23 H -2.4776 1.6511 0.15 0
M  V30 24 H -3.2219 0.85 1.5738 0
M  V30 25 H -3.7066 -1.1972 0.1543 0
M  V30 26 H -3.0643 -0.3186 -1.2847 0
M  V30 27 H -5.5286 -0.1754 -1.1912 0
M  V30 28 H -5.4538 0.5677 0.4507 0
M  V30 29 H -4.7952 1.46 -0.9823 0
M  V30 END ATOM
M  V30 BEGIN BOND
M  V30 1 2 1 2
M  V30 2 1 2 3
M  V30 3 1 2 4
M  V30 4 1 3 5
M  V30 5 1 4 6
M  V30 6 1 5 7
M  V30 7 1 6 8
M  V30 8 1 7 9
M  V30 9 1 9 10
M  V30 10 1 10 11
M  V30 11 1 4 12
M  V30 12 1 4 13
M  V30 13 1 5 14
M  V30 14 1 5 15
M  V30 15 1 6 16
M  V30 16 1 6 17
M  V30 17 1 7 18
M  V30 18 1 7 19
M  V30 19 1 8 20
M  V30 20 1 8 21
M  V30 21 1 8 22
M  V30 22 1 9 23
M  V30 23 1 9 24
M  V30 24 1 10 25
M  V30 25 1 10 26
M  V30 26 1 11 27
M  V30 27 1 11 28
M  V30 28 1 11 29
M  V30 END BOND
M  V30 END CTAB
M  END
>  <Structure No>
7617

>  <LogS>
-2.467

>  <MMFF94 Energy>
-13.403

$$$$
Compound 7618
Actelion Java MolfileCreator 2.0

  0  0  0  0  0  0              0 V3000
M  V30 BEGIN CTAB
M  V30 COUNTS 14 13 0 0 0
M  V30 BEGIN ATOM
M  V30 1 O 2.2082 1.8925 -0.0788 0
M  V30 2 C 2.1142 0.6998 0.313 0
M  V30 3 O 2.6884 0.3246 1.5208 0 CHG=-1
M  V30 4 C 1.3578 -0.3 -0.5012 0
M  V30 5 N -0.079 -0.0664 -0.3813 0
M  V30 6 C -0.8139 -0.3816 0.8089 0
M  V30 7 O -0.2341 -0.9086 1.7967 0
M  V30 8 C -2.2829 -0.1175 0.8696 0
M  V30 9 H 1.6611 -0.2004 -1.5657 0
M  V30 10 H 1.6036 -1.3329 -0.1734 0
M  V30 11 H -0.5911 0.3259 -1.2034 0
M  V30 12 H -2.6551 -0.2195 1.9112 0
M  V30 13 H -2.8159 -0.8436 0.2212 0
M  V30 14 H -2.4935 0.9128 0.5146 0
M  V30 END ATOM
M  V30 BEGIN BOND
M  V30 1 2 1 2
M  V30 2 1 2 3
M  V30 3 1 2 4
M  V30 4 1 4 5
M  V30 5 1 5 6
M  V30 6 2 6 7
M  V30 7 1 6 8
M  V30 8 1 4 9
M  V30 9 1 4 10
M  V30 10 1 5 11
M  V30 11 1 8 12
M  V30 12 1 8 13
M  V30 13 1 8 14
M  V30 END BOND
M  V30 END CTAB
M  END
>  <Structure No>
7618

>  <LogS>
-0.649

>  <MMFF94 Energy>
24.598

$$$$
Compound 7619
Actelion Java MolfileCreator 2.0

  0  0  0  0  0  0              0 V3000
M  V30 BEGIN CTAB
M  V30 COUNTS 51 53 0 0 0
M  V30 BEGIN ATOM
M  V30 1 O 4.2009 -1.6141 0.484 0
M  V30 2 C 3.2985 -1.3249 -0.2866 0
M  V30 3 C 2.9405 0.0753 -0.6579 0 CFG=2
M  V30 4 C 2.4897 -2.3506 -0.9949 0
M  V30 5 C 2.941 1.0395 0.5208 0
M  V30 6 C 1.5807 -0.0945 -1.3708 0 CFG=1
M  V30 7 C 1.6037 -1.5335 -1.9496 0 CFG=1
M  V30 8 C 4.2285 1.4457 1.1336 0
M  V30 9 C 1.7959 1.5931 0.9485 0
M  V30 10 C 0.4031 0.0621 -0.3854 0 CFG=1
M  V30 11 C 2.166 -1.5448 -3.3789 0
M  V30 12 O 5.3166 1.0676 0.6186 0
M  V30 13 O 4.2402 2.2505 2.2789 0
M  V30 14 O 0.5703 1.2522 0.3763 0
M  V30 15 O -0.8054 0.1432 -1.1211 0
M  V30 16 C 5.4437 2.6716 2.9093 0
M  V30 17 C -1.9022 -0.3348 -0.364 0 CFG=1
M  V30 18 O -2.1066 0.4997 0.7638 0
M  V30 19 C -3.1491 -0.3259 -1.2607 0 CFG=2
M  V30 20 C -3.2626 0.1858 1.5414 0 CFG=2
M  V30 21 O -3.475 0.9967 -1.6118 0
M  V30 22 C -4.3269 -0.9993 -0.5209 0 CFG=1
M  V30 23 C -4.1645 -0.986 1.0247 0 CFG=1
M  V30 24 C -4.0766 1.4749 1.7423 0
M  V30 25 O -5.5657 -0.4663 -0.9253 0
M  V30 26 O -3.6053 -2.2116 1.4323 0
M  V30 27 O -3.2921 2.4567 2.3654 0
M  V30 28 H 3.6856 0.4326 -1.4026 0
M  V30 29 H 3.1466 -3.0706 -1.5303 0
M  V30 30 H 1.8648 -2.8983 -0.2569 0
M  V30 31 H 1.4772 0.673 -2.1713 0
M  V30 32 H 0.5821 -1.9749 -1.9872 0
M  V30 33 H 1.7986 2.3394 1.7327 0
M  V30 34 H 0.4216 -0.8044 0.3195 0
M  V30 35 H 3.1977 -1.1331 -3.4029 0
M  V30 36 H 2.1845 -2.5837 -3.7715 0
M  V30 37 H 1.5196 -0.9355 -4.0459 0
M  V30 38 H 6.0525 3.2742 2.2025 0
M  V30 39 H 5.194 3.2961 3.7915 0
M  V30 40 H 6.0252 1.7877 3.247 0
M  V30 41 H -1.6999 -1.3853 -0.0463 0
M  V30 42 H -2.9376 -0.9145 -2.1856 0
M  V30 43 H -2.9011 -0.1067 2.5519 0
M  V30 44 H -2.8652 1.2605 -2.3494 0
M  V30 45 H -4.3379 -2.0659 -0.8399 0
M  V30 46 H -5.1802 -0.9063 1.4809 0
M  V30 47 H -4.4045 1.8706 0.7605 0
M  V30 48 H -4.9876 1.2755 2.3522 0
M  V30 49 H -5.6697 0.4252 -0.5054 0
M  V30 50 H -3.8172 -2.324 2.3961 0
M  V30 51 H -3.2436 2.215 3.3272 0
M  V30 END ATOM
M  V30 BEGIN BOND
M  V30 1 2 1 2
M  V30 2 1 2 3
M  V30 3 1 2 4
M  V30 4 1 3 5
M  V30 5 1 3 6
M  V30 6 1 4 7
M  V30 7 1 5 8
M  V30 8 2 5 9
M  V30 9 1 6 10
M  V30 10 1 7 11
M  V30 11 2 8 12
M  V30 12 1 8 13
M  V30 13 1 9 14
M  V30 14 1 10 15
M  V30 15 1 13 16
M  V30 16 1 15 17
M  V30 17 1 17 18
M  V30 18 1 17 19
M  V30 19 1 18 20
M  V30 20 1 19 21
M  V30 21 1 19 22
M  V30 22 1 20 23
M  V30 23 1 20 24
M  V30 24 1 22 25
M  V30 25 1 23 26
M  V30 26 1 24 27
M  V30 27 1 6 7
M  V30 28 1 10 14
M  V30 29 1 22 23
M  V30 30 1 3 28
M  V30 31 1 4 29
M  V30 32 1 4 30
M  V30 33 1 6 31
M  V30 34 1 7 32
M  V30 35 1 9 33
M  V30 36 1 10 34
M  V30 37 1 11 35
M  V30 38 1 11 36
M  V30 39 1 11 37
M  V30 40 1 16 38
M  V30 41 1 16 39
M  V30 42 1 16 40
M  V30 43 1 17 41
M  V30 44 1 19 42
M  V30 45 1 20 43
M  V30 46 1 21 44
M  V30 47 1 22 45
M  V30 48 1 23 46
M  V30 49 1 24 47
M  V30 50 1 24 48
M  V30 51 1 25 49
M  V30 52 1 26 50
M  V30 53 1 27 51
M  V30 END BOND
M  V30 BEGIN COLLECTION
M  V30 MDLV30/STEABS ATOMS=(9 3 6 7 10 17 19 20 22 23)
M  V30 END COLLECTION
M  V30 END CTAB
M  END
>  <Structure No>
7619

>  <LogS>
-0.265

>  <MMFF94 Energy>
84.948

$$$$
Compound 7620
Actelion Java MolfileCreator 2.0

  0  0  0  0  0  0              0 V3000
M  V30 BEGIN CTAB
M  V30 COUNTS 18 18 0 0 0
M  V30 BEGIN ATOM
M  V30 1 O 1.255 -2.595 0.5855 0
M  V30 2 C 0.61 -1.9699 -0.2973 0
M  V30 3 O 0.2773 -2.6107 -1.4847 0 CHG=-1
M  V30 4 C 0.2077 -0.5646 -0.0725 0
M  V30 5 C 1.1832 0.4174 0.2624 0
M  V30 6 C -1.1594 -0.1811 -0.189 0
M  V30 7 C 2.636 0.1165 0.3298 0
M  V30 8 C 0.775 1.7417 0.4924 0
M  V30 9 C -2.252 -1.1488 -0.4648 0
M  V30 10 C -1.5156 1.1624 0.01 0
M  V30 11 O 3.3853 0.782 1.0934 0
M  V30 12 O 3.2026 -0.8602 -0.4801 0 CHG=-1
M  V30 13 C -0.5589 2.11 0.3572 0
M  V30 14 O -2.161 -2.3518 -0.1043 0
M  V30 15 O -3.4213 -0.7208 -1.0829 0 CHG=-1
M  V30 16 H 1.4989 2.5067 0.7461 0
M  V30 17 H -2.5487 1.4781 -0.0702 0
M  V30 18 H -0.8538 3.1385 0.5226 0
M  V30 END ATOM
M  V30 BEGIN BOND
M  V30 1 2 1 2
M  V30 2 1 2 3
M  V30 3 1 2 4
M  V30 4 2 4 5
M  V30 5 1 4 6
M  V30 6 1 5 7
M  V30 7 1 5 8
M  V30 8 1 6 9
M  V30 9 2 6 10
M  V30 10 2 7 11
M  V30 11 1 7 12
M  V30 12 2 8 13
M  V30 13 2 9 14
M  V30 14 1 9 15
M  V30 15 1 10 13
M  V30 16 1 8 16
M  V30 17 1 10 17
M  V30 18 1 13 18
M  V30 END BOND
M  V30 END CTAB
M  END
>  <Structure No>
7620

>  <LogS>
-0.837

>  <MMFF94 Energy>
257.38

$$$$
Compound 7621
Actelion Java MolfileCreator 2.0

  0  0  0  0  0  0              0 V3000
M  V30 BEGIN CTAB
M  V30 COUNTS 13 13 0 0 0
M  V30 BEGIN ATOM
M  V30 1 O -2.4561 1.4256 1.1086 0
M  V30 2 C -1.5035 0.7683 0.6144 0
M  V30 3 O -0.1731 1.0605 0.8471 0
M  V30 4 C -1.6556 -0.4071 -0.2832 0
M  V30 5 C 0.5652 0.1263 0.1401 0
M  V30 6 C -0.2129 -0.7288 -0.5179 0
M  V30 7 C 2.057 0.0948 0.127 0
M  V30 8 H -2.16 -0.1254 -1.2313 0
M  V30 9 H -2.1709 -1.2433 0.2343 0
M  V30 10 H 0.1502 -1.541 -1.1347 0
M  V30 11 H 2.4158 -0.8758 0.529 0
M  V30 12 H 2.4265 0.2231 -0.9118 0
M  V30 13 H 2.4571 0.9167 0.7567 0
M  V30 END ATOM
M  V30 BEGIN BOND
M  V30 1 2 1 2
M  V30 2 1 2 3
M  V30 3 1 2 4
M  V30 4 1 3 5
M  V30 5 1 4 6
M  V30 6 1 5 7
M  V30 7 2 5 6
M  V30 8 1 4 8
M  V30 9 1 4 9
M  V30 10 1 6 10
M  V30 11 1 7 11
M  V30 12 1 7 12
M  V30 13 1 7 13
M  V30 END BOND
M  V30 END CTAB
M  END
>  <Structure No>
7621

>  <LogS>
-0.293

>  <MMFF94 Energy>
16.505

$$$$
Compound 7622
Actelion Java MolfileCreator 2.0

  0  0  0  0  0  0              0 V3000
M  V30 BEGIN CTAB
M  V30 COUNTS 21 20 0 0 0
M  V30 BEGIN ATOM
M  V30 1 O -0.6147 1.7681 0.8453 0
M  V30 2 C -0.632 0.4317 0.3926 0
M  V30 3 C 0.846 -0.0764 0.216 0
M  V30 4 C -1.3487 -0.3846 1.486 0
M  V30 5 C -1.4645 0.3272 -0.9105 0
M  V30 6 C 0.9498 -1.516 -0.3233 0
M  V30 7 C 1.7074 0.855 -0.6569 0
M  V30 8 H -0.4732 2.3696 0.0683 0
M  V30 9 H 1.3207 -0.0773 1.2229 0
M  V30 10 H -2.3342 0.0737 1.7192 0
M  V30 11 H -1.5353 -1.4304 1.1654 0
M  V30 12 H -0.7502 -0.3966 2.422 0
M  V30 13 H -1.6092 -0.7305 -1.215 0
M  V30 14 H -0.9811 0.8741 -1.7451 0
M  V30 15 H -2.4697 0.7746 -0.7537 0
M  V30 16 H 0.562 -1.5845 -1.3611 0
M  V30 17 H 0.4022 -2.2305 0.3226 0
M  V30 18 H 2.0127 -1.8392 -0.3342 0
M  V30 19 H 1.7645 1.8717 -0.2163 0
M  V30 20 H 2.748 0.4693 -0.7129 0
M  V30 21 H 1.3103 0.9228 -1.6903 0
M  V30 END ATOM
M  V30 BEGIN BOND
M  V30 1 1 1 2
M  V30 2 1 2 3
M  V30 3 1 2 4
M  V30 4 1 2 5
M  V30 5 1 3 6
M  V30 6 1 3 7
M  V30 7 1 1 8
M  V30 8 1 3 9
M  V30 9 1 4 10
M  V30 10 1 4 11
M  V30 11 1 4 12
M  V30 12 1 5 13
M  V30 13 1 5 14
M  V30 14 1 5 15
M  V30 15 1 6 16
M  V30 16 1 6 17
M  V30 17 1 6 18
M  V30 18 1 7 19
M  V30 19 1 7 20
M  V30 20 1 7 21
M  V30 END BOND
M  V30 END CTAB
M  END
>  <Structure No>
7622

>  <LogS>
-0.411

>  <MMFF94 Energy>
15.187

$$$$
Compound 7623
Actelion Java MolfileCreator 2.0

  0  0  0  0  0  0              0 V3000
M  V30 BEGIN CTAB
M  V30 COUNTS 24 23 0 0 0
M  V30 BEGIN ATOM
M  V30 1 O -1.3127 -0.1543 1.4672 0
M  V30 2 C -0.8644 -0.0647 0.1313 0
M  V30 3 C 0.7251 0.0208 0.1526 0
M  V30 4 C -1.376 -1.3109 -0.6381 0
M  V30 5 C -1.5119 1.1878 -0.516 0
M  V30 6 C 1.3292 -1.231 0.8403 0
M  V30 7 C 1.3434 0.1237 -1.2643 0
M  V30 8 C 1.1937 1.258 0.9618 0
M  V30 9 H -2.3049 -0.2083 1.4677 0
M  V30 10 H -1.034 -2.2514 -0.1617 0
M  V30 11 H -2.4871 -1.3392 -0.6303 0
M  V30 12 H -1.0604 -1.2966 -1.7007 0
M  V30 13 H -1.2713 2.1091 0.0513 0
M  V30 14 H -2.6196 1.0949 -0.5114 0
M  V30 15 H -1.2023 1.3112 -1.5732 0
M  V30 16 H 1.1721 -2.1456 0.2321 0
M  V30 17 H 0.8862 -1.3898 1.8464 0
M  V30 18 H 2.4281 -1.1206 0.9685 0
M  V30 19 H 1.1042 -0.7645 -1.883 0
M  V30 20 H 1.0061 1.0368 -1.795 0
M  V30 21 H 2.4519 0.1808 -1.1971 0
M  V30 22 H 2.2988 1.2554 1.0845 0
M  V30 23 H 0.9355 2.2051 0.4445 0
M  V30 24 H 0.7415 1.2695 1.9762 0
M  V30 END ATOM
M  V30 BEGIN BOND
M  V30 1 1 1 2
M  V30 2 1 2 3
M  V30 3 1 2 4
M  V30 4 1 2 5
M  V30 5 1 3 6
M  V30 6 1 3 7
M  V30 7 1 3 8
M  V30 8 1 1 9
M  V30 9 1 4 10
M  V30 10 1 4 11
M  V30 11 1 4 12
M  V30 12 1 5 13
M  V30 13 1 5 14
M  V30 14 1 5 15
M  V30 15 1 6 16
M  V30 16 1 6 17
M  V30 17 1 6 18
M  V30 18 1 7 19
M  V30 19 1 7 20
M  V30 20 1 7 21
M  V30 21 1 8 22
M  V30 22 1 8 23
M  V30 23 1 8 24
M  V30 END BOND
M  V30 END CTAB
M  END
>  <Structure No>
7623

>  <LogS>
-0.723

>  <MMFF94 Energy>
26.325

$$$$
Compound 7624
Actelion Java MolfileCreator 2.0

  0  0  0  0  0  0              0 V3000
M  V30 BEGIN CTAB
M  V30 COUNTS 60 63 0 0 0
M  V30 BEGIN ATOM
M  V30 1 O -6.4089 -0.4047 -2.0248 0
M  V30 2 C -5.2769 -0.4406 -1.4736 0
M  V30 3 C -4.4254 0.7565 -1.4828 0
M  V30 4 C -4.8394 -1.6769 -0.7602 0
M  V30 5 C -3.1929 0.7685 -0.9325 0
M  V30 6 C -3.3133 -1.7754 -0.7662 0
M  V30 7 C -2.4173 2.0402 -0.8464 0
M  V30 8 C -2.6027 -0.474 -0.2661 0 CFG=1
M  V30 9 C -1.0997 2.0208 -0.5848 0
M  V30 10 C -3.0973 3.375 -1.0408 0
M  V30 11 C -1.0831 -0.5529 -0.6672 0 CFG=1
M  V30 12 C -2.8175 -0.3208 1.2622 0
M  V30 13 C -0.2674 0.7616 -0.4346 0 CFG=2
M  V30 14 C -0.3616 -1.8247 -0.1377 0
M  V30 15 C 0.5512 0.755 0.8934 0 CFG=1
M  V30 16 C 1.1459 -1.6198 0.0131 0
M  V30 17 C 1.4754 -0.5022 1.0535 0 CFG=1
M  V30 18 C 1.4802 1.9837 1.0163 0
M  V30 19 C 2.9303 0.0607 0.8745 0 CFG=2
M  V30 20 C 1.2731 -1.087 2.4864 0
M  V30 21 C 2.83 1.4678 1.4788 0
M  V30 22 O 3.2243 0.1968 -0.528 0
M  V30 23 C 3.9989 -0.8062 1.5443 0
M  V30 24 C 4.4307 0.6654 -1.0693 0
M  V30 25 O 4.4568 -0.4928 2.6337 0
M  V30 26 C 4.4822 -2.0768 0.9062 0
M  V30 27 O 5.3953 0.9938 -0.3267 0
M  V30 28 C 4.5576 0.8104 -2.5468 0
M  V30 29 H -4.8296 1.6414 -1.9567 0
M  V30 30 H -5.2626 -2.5712 -1.2672 0
M  V30 31 H -5.2274 -1.6611 0.2794 0
M  V30 32 H -2.9965 -2.0004 -1.8094 0
M  V30 33 H -3.0171 -2.6457 -0.1412 0
M  V30 34 H -0.5706 2.9647 -0.5386 0
M  V30 35 H -2.4855 4.2168 -0.6504 0
M  V30 36 H -3.2799 3.5453 -2.1224 0
M  V30 37 H -4.0639 3.393 -0.4944 0
M  V30 38 H -1.0817 -0.6688 -1.7776 0
M  V30 39 H -2.4362 -1.1887 1.8341 0
M  V30 40 H -3.8982 -0.2249 1.4958 0
M  V30 41 H -2.345 0.6019 1.6482 0
M  V30 42 H 0.4823 0.8129 -1.2573 0
M  V30 43 H -0.5294 -2.6611 -0.8517 0
M  V30 44 H -0.7733 -2.1685 0.8272 0
M  V30 45 H -0.1673 0.81 1.7364 0
M  V30 46 H 1.6111 -2.5819 0.3185 0
M  V30 47 H 1.5457 -1.3852 -0.9952 0
M  V30 48 H 1.6271 2.4856 0.0346 0
M  V30 49 H 1.0748 2.7284 1.736 0
M  V30 50 H 0.2083 -1.3341 2.676 0
M  V30 51 H 1.862 -2.0176 2.6299 0
M  V30 52 H 1.5778 -0.3609 3.2679 0
M  V30 53 H 2.8431 1.4394 2.5901 0
M  V30 54 H 3.6474 2.1413 1.1456 0
M  V30 55 H 5.5827 -2.0268 0.7695 0
M  V30 56 H 4.0132 -2.2377 -0.0858 0
M  V30 57 H 4.2355 -2.9384 1.5612 0
M  V30 58 H 5.5764 0.5121 -2.8725 0
M  V30 59 H 4.375 1.8675 -2.8312 0
M  V30 60 H 3.8137 0.1624 -3.0563 0
M  V30 END ATOM
M  V30 BEGIN BOND
M  V30 1 2 1 2
M  V30 2 1 2 3
M  V30 3 1 2 4
M  V30 4 2 3 5
M  V30 5 1 4 6
M  V30 6 1 5 7
M  V30 7 1 5 8
M  V30 8 2 7 9
M  V30 9 1 7 10
M  V30 10 1 8 11
M  V30 11 1 8 12
M  V30 12 1 9 13
M  V30 13 1 11 14
M  V30 14 1 13 15
M  V30 15 1 14 16
M  V30 16 1 15 17
M  V30 17 1 15 18
M  V30 18 1 17 19
M  V30 19 1 17 20
M  V30 20 1 18 21
M  V30 21 1 19 22
M  V30 22 1 19 23
M  V30 23 1 22 24
M  V30 24 2 23 25
M  V30 25 1 23 26
M  V30 26 2 24 27
M  V30 27 1 24 28
M  V30 28 1 6 8
M  V30 29 1 11 13
M  V30 30 1 16 17
M  V30 31 1 19 21
M  V30 32 1 3 29
M  V30 33 1 4 30
M  V30 34 1 4 31
M  V30 35 1 6 32
M  V30 36 1 6 33
M  V30 37 1 9 34
M  V30 38 1 10 35
M  V30 39 1 10 36
M  V30 40 1 10 37
M  V30 41 1 11 38
M  V30 42 1 12 39
M  V30 43 1 12 40
M  V30 44 1 12 41
M  V30 45 1 13 42
M  V30 46 1 14 43
M  V30 47 1 14 44
M  V30 48 1 15 45
M  V30 49 1 16 46
M  V30 50 1 16 47
M  V30 51 1 18 48
M  V30 52 1 18 49
M  V30 53 1 20 50
M  V30 54 1 20 51
M  V30 55 1 20 52
M  V30 56 1 21 53
M  V30 57 1 21 54
M  V30 58 1 26 55
M  V30 59 1 26 56
M  V30 60 1 26 57
M  V30 61 1 28 58
M  V30 62 1 28 59
M  V30 63 1 28 60
M  V30 END BOND
M  V30 BEGIN COLLECTION
M  V30 MDLV30/STEABS ATOMS=(6 8 11 13 15 17 19)
M  V30 END COLLECTION
M  V30 END CTAB
M  END
>  <Structure No>
7624

>  <LogS>
-5.284

>  <MMFF94 Energy>
88.989

$$$$
Compound 7625
Actelion Java MolfileCreator 2.0

  0  0  0  0  0  0              0 V3000
M  V30 BEGIN CTAB
M  V30 COUNTS 15 14 0 0 0
M  V30 BEGIN ATOM
M  V30 1 O 0.323 -1.4543 -1.9394 0
M  V30 2 C -0.5297 -0.9567 -1.1556 0
M  V30 3 O -1.8815 -1.1304 -1.4328 0 CHG=-1
M  V30 4 C -0.101 -0.104 0.0224 0
M  V30 5 C -1.01 -0.3803 1.204 0
M  V30 6 C -0.1882 1.375 -0.3984 0
M  V30 7 C 1.3475 -0.4278 0.4402 0
M  V30 8 O -1.2351 -1.5673 1.5634 0
M  V30 9 O -1.564 0.6621 1.94 0 CHG=-1
M  V30 10 H 0.459 1.5686 -1.2814 0
M  V30 11 H 0.1462 2.0411 0.4262 0
M  V30 12 H -1.2328 1.6451 -0.6672 0
M  V30 13 H 1.4502 -1.5047 0.6964 0
M  V30 14 H 1.6403 0.1721 1.3294 0
M  V30 15 H 2.0585 -0.1943 -0.3816 0
M  V30 END ATOM
M  V30 BEGIN BOND
M  V30 1 2 1 2
M  V30 2 1 2 3
M  V30 3 1 2 4
M  V30 4 1 4 5
M  V30 5 1 4 6
M  V30 6 1 4 7
M  V30 7 2 5 8
M  V30 8 1 5 9
M  V30 9 1 6 10
M  V30 10 1 6 11
M  V30 11 1 6 12
M  V30 12 1 7 13
M  V30 13 1 7 14
M  V30 14 1 7 15
M  V30 END BOND
M  V30 END CTAB
M  END
>  <Structure No>
7625

>  <LogS>
-0.167

>  <MMFF94 Energy>
55.936

$$$$
Compound 7626
Actelion Java MolfileCreator 2.0

  0  0  0  0  0  0              0 V3000
M  V30 BEGIN CTAB
M  V30 COUNTS 18 17 0 0 0
M  V30 BEGIN ATOM
M  V30 1 O -1.2863 1.2863 1.7691 0
M  V30 2 C -0.7584 0.1871 1.4491 0
M  V30 3 O -0.5991 -0.7917 2.4239 0 CHG=-1
M  V30 4 C -0.3413 -0.0962 0.0164 0
M  V30 5 C 1.1047 -0.6644 -0.0211 0
M  V30 6 C -1.3035 -1.1519 -0.5612 0
M  V30 7 C -0.4343 1.1787 -0.855 0
M  V30 8 C 2.1295 0.2793 0.5411 0
M  V30 9 O 2.3516 0.3113 1.7802 0
M  V30 10 O 2.8213 1.1392 -0.3028 0 CHG=-1
M  V30 11 H 1.1543 -1.6202 0.5462 0
M  V30 12 H 1.3863 -0.904 -1.0701 0
M  V30 13 H -1.043 -1.3851 -1.6164 0
M  V30 14 H -1.2529 -2.0956 0.0244 0
M  V30 15 H -2.3523 -0.7834 -0.5344 0
M  V30 16 H -0.0838 0.9727 -1.8894 0
M  V30 17 H -1.4841 1.5407 -0.9121 0
M  V30 18 H 0.1865 1.9969 -0.4315 0
M  V30 END ATOM
M  V30 BEGIN BOND
M  V30 1 2 1 2
M  V30 2 1 2 3
M  V30 3 1 2 4
M  V30 4 1 4 5
M  V30 5 1 4 6
M  V30 6 1 4 7
M  V30 7 1 5 8
M  V30 8 2 8 9
M  V30 9 1 8 10
M  V30 10 1 5 11
M  V30 11 1 5 12
M  V30 12 1 6 13
M  V30 13 1 6 14
M  V30 14 1 6 15
M  V30 15 1 7 16
M  V30 16 1 7 17
M  V30 17 1 7 18
M  V30 END BOND
M  V30 END CTAB
M  END
>  <Structure No>
7626

>  <LogS>
-0.32

>  <MMFF94 Energy>
77.102

$$$$
Compound 7627
Actelion Java MolfileCreator 2.0

  0  0  0  0  0  0              0 V3000
M  V30 BEGIN CTAB
M  V30 COUNTS 24 23 0 0 0
M  V30 BEGIN ATOM
M  V30 1 O -0.6159 -0.4619 1.6175 0
M  V30 2 C -0.4732 -0.5392 0.2169 0 CFG=2
M  V30 3 C 1.0381 -0.4059 -0.1188 0
M  V30 4 C -1.2749 0.608 -0.471 0
M  V30 5 C -0.9412 -1.9274 -0.2837 0
M  V30 6 C 1.6841 0.896 0.3903 0
M  V30 7 C -2.7996 0.484 -0.3764 0
M  V30 8 C 3.1964 0.8761 0.1837 0
M  V30 9 H -1.5417 -0.7247 1.8569 0
M  V30 10 H 1.1852 -0.4733 -1.22 0
M  V30 11 H 1.5804 -1.263 0.34 0
M  V30 12 H -0.9993 1.5783 -0.0064 0
M  V30 13 H -1.001 0.6616 -1.5476 0
M  V30 14 H -1.9858 -2.1391 0.0261 0
M  V30 15 H -0.8804 -1.9837 -1.392 0
M  V30 16 H -0.3058 -2.7307 0.1472 0
M  V30 17 H 1.274 1.7676 -0.1618 0
M  V30 18 H 1.4763 1.031 1.4735 0
M  V30 19 H -3.1327 0.4088 0.6787 0
M  V30 20 H -3.266 1.3903 -0.8174 0
M  V30 21 H -3.1635 -0.3925 -0.9508 0
M  V30 22 H 3.4368 0.757 -0.8942 0
M  V30 23 H 3.654 0.0414 0.7563 0
M  V30 24 H 3.6335 1.8322 0.5416 0
M  V30 END ATOM
M  V30 BEGIN BOND
M  V30 1 1 1 2
M  V30 2 1 2 3
M  V30 3 1 2 4
M  V30 4 1 2 5
M  V30 5 1 3 6
M  V30 6 1 4 7
M  V30 7 1 6 8
M  V30 8 1 1 9
M  V30 9 1 3 10
M  V30 10 1 3 11
M  V30 11 1 4 12
M  V30 12 1 4 13
M  V30 13 1 5 14
M  V30 14 1 5 15
M  V30 15 1 5 16
M  V30 16 1 6 17
M  V30 17 1 6 18
M  V30 18 1 7 19
M  V30 19 1 7 20
M  V30 20 1 7 21
M  V30 21 1 8 22
M  V30 22 1 8 23
M  V30 23 1 8 24
M  V30 END BOND
M  V30 BEGIN COLLECTION
M  V30 MDLV30/STEABS ATOMS=(1 2)
M  V30 END COLLECTION
M  V30 END CTAB
M  END
>  <Structure No>
7627

>  <LogS>
-1.001

>  <MMFF94 Energy>
9.9663

$$$$
Compound 7628
Actelion Java MolfileCreator 2.0

  0  0  0  0  0  0              0 V3000
M  V30 BEGIN CTAB
M  V30 COUNTS 22 22 0 0 0
M  V30 BEGIN ATOM
M  V30 1 O 0.4113 -3.4591 0.4936 0
M  V30 2 N 0.934 -2.41 0.0631 0 CHG=1
M  V30 3 O 2.2518 -2.4433 -0.3311 0 CHG=-1
M  V30 4 C 0.1389 -1.2233 -0.1254 0
M  V30 5 C 0.7387 0.0545 -0.1819 0
M  V30 6 C -1.254 -1.335 -0.2671 0
M  V30 7 O 2.11 0.1926 0.0446 0
M  V30 8 C -0.0496 1.1997 -0.44 0
M  V30 9 C -2.0521 -0.2045 -0.4919 0
M  V30 10 C 2.6419 0.2168 1.3636 0
M  V30 11 N 0.5395 2.5129 -0.541 0 CHG=1
M  V30 12 C -1.4396 1.0549 -0.583 0
M  V30 13 N -3.4787 -0.3395 -0.6394 0 CHG=1
M  V30 14 O 1.7648 2.6567 -0.7311 0
M  V30 15 O -0.2547 3.6361 -0.4997 0 CHG=-1
M  V30 16 O -4.1962 0.6617 -0.8446 0
M  V30 17 O -4.0779 -1.5753 -0.552 0 CHG=-1
M  V30 18 H -1.7156 -2.3127 -0.219 0
M  V30 19 H 2.226 1.0815 1.9228 0
M  V30 20 H 2.392 -0.7237 1.8979 0
M  V30 21 H 3.745 0.3192 1.31 0
M  V30 22 H -2.049 1.9286 -0.7737 0
M  V30 END ATOM
M  V30 BEGIN BOND
M  V30 1 2 1 2
M  V30 2 1 2 3
M  V30 3 1 2 4
M  V30 4 2 4 5
M  V30 5 1 4 6
M  V30 6 1 5 7
M  V30 7 1 5 8
M  V30 8 2 6 9
M  V30 9 1 7 10
M  V30 10 1 8 11
M  V30 11 2 8 12
M  V30 12 1 9 13
M  V30 13 2 11 14
M  V30 14 1 11 15
M  V30 15 2 13 16
M  V30 16 1 13 17
M  V30 17 1 9 12
M  V30 18 1 6 18
M  V30 19 1 10 19
M  V30 20 1 10 20
M  V30 21 1 10 21
M  V30 22 1 12 22
M  V30 END BOND
M  V30 END CTAB
M  END
>  <Structure No>
7628

>  <LogS>
-3.085

>  <MMFF94 Energy>
91.949

$$$$
Compound 7629
Actelion Java MolfileCreator 2.0

  0  0  0  0  0  0              0 V3000
M  V30 BEGIN CTAB
M  V30 COUNTS 18 19 0 0 0
M  V30 BEGIN ATOM
M  V30 1 O 1.351 2.6239 0.1588 0
M  V30 2 C 1.2843 1.3647 0.1333 0
M  V30 3 C 0.0455 0.7074 0.0136 0
M  V30 4 C 2.4587 0.6148 0.2253 0
M  V30 5 C 0.0252 -0.7093 -0.0102 0
M  V30 6 C -1.1656 1.418 -0.0821 0
M  V30 7 C 2.393 -0.7786 0.1978 0
M  V30 8 N 1.1933 -1.4093 0.0819 0
M  V30 9 C -1.1997 -1.3848 -0.1291 0
M  V30 10 C -2.3768 0.7305 -0.1999 0
M  V30 11 C -2.3938 -0.6657 -0.2232 0
M  V30 12 H 3.4191 1.1069 0.318 0
M  V30 13 H -1.1793 2.5009 -0.0664 0
M  V30 14 H 3.3039 -1.3593 0.2692 0
M  V30 15 H 1.1821 -2.4545 0.0646 0
M  V30 16 H -1.23 -2.4671 -0.1486 0
M  V30 17 H -3.3052 1.282 -0.2732 0
M  V30 18 H -3.335 -1.1921 -0.3146 0
M  V30 END ATOM
M  V30 BEGIN BOND
M  V30 1 2 1 2
M  V30 2 1 2 3
M  V30 3 1 2 4
M  V30 4 2 3 5
M  V30 5 1 3 6
M  V30 6 2 4 7
M  V30 7 1 5 8
M  V30 8 1 5 9
M  V30 9 2 6 10
M  V30 10 2 9 11
M  V30 11 1 7 8
M  V30 12 1 10 11
M  V30 13 1 4 12
M  V30 14 1 6 13
M  V30 15 1 7 14
M  V30 16 1 8 15
M  V30 17 1 9 16
M  V30 18 1 10 17
M  V30 19 1 11 18
M  V30 END BOND
M  V30 END CTAB
M  END
>  <Structure No>
7629

>  <LogS>
-1.481

>  <MMFF94 Energy>
39.7

$$$$
Compound 7630
Actelion Java MolfileCreator 2.0

  0  0  0  0  0  0              0 V3000
M  V30 BEGIN CTAB
M  V30 COUNTS 28 29 0 0 0
M  V30 BEGIN ATOM
M  V30 1 O 1.278 2.3173 -1.1182 0
M  V30 2 C 1.261 1.1478 -0.6456 0
M  V30 3 N 0.0072 0.4672 -0.4513 0
M  V30 4 C 2.546 0.4852 -0.3152 0
M  V30 5 C -1.277 1.1089 -0.5606 0
M  V30 6 C 3.7335 0.8945 -0.9505 0
M  V30 7 C 2.6094 -0.538 0.6501 0
M  V30 8 O -1.3615 2.2769 -1.0296 0
M  V30 9 C -2.516 0.4074 -0.1456 0
M  V30 10 C 4.9509 0.2803 -0.6416 0
M  V30 11 C 3.8301 -1.1479 0.9556 0
M  V30 12 C -2.4833 -0.6162 0.8207 0
M  V30 13 C -3.7554 0.7794 -0.6996 0
M  V30 14 C 4.9988 -0.7414 0.3087 0
M  V30 15 C -3.6617 -1.2631 1.2066 0
M  V30 16 C -4.9301 0.1283 -0.3107 0
M  V30 17 C -4.883 -0.8934 0.6396 0
M  V30 18 H 0.0284 -0.5633 -0.291 0
M  V30 19 H 3.7188 1.6819 -1.6938 0
M  V30 20 H 1.7257 -0.8533 1.1887 0
M  V30 21 H 5.8579 0.5972 -1.1398 0
M  V30 22 H 3.8705 -1.9323 1.7003 0
M  V30 23 H -1.5565 -0.9038 1.2988 0
M  V30 24 H -3.8149 1.5661 -1.4415 0
M  V30 25 H 5.9423 -1.2146 0.5476 0
M  V30 26 H -3.6282 -2.0476 1.9514 0
M  V30 27 H -5.8778 0.4168 -0.7468 0
M  V30 28 H -5.7936 -1.3951 0.9407 0
M  V30 END ATOM
M  V30 BEGIN BOND
M  V30 1 2 1 2
M  V30 2 1 2 3
M  V30 3 1 2 4
M  V30 4 1 3 5
M  V30 5 2 4 6
M  V30 6 1 4 7
M  V30 7 2 5 8
M  V30 8 1 5 9
M  V30 9 1 6 10
M  V30 10 2 7 11
M  V30 11 2 9 12
M  V30 12 1 9 13
M  V30 13 2 10 14
M  V30 14 1 12 15
M  V30 15 2 13 16
M  V30 16 2 15 17
M  V30 17 1 11 14
M  V30 18 1 16 17
M  V30 19 1 3 18
M  V30 20 1 6 19
M  V30 21 1 7 20
M  V30 22 1 10 21
M  V30 23 1 11 22
M  V30 24 1 12 23
M  V30 25 1 13 24
M  V30 26 1 14 25
M  V30 27 1 15 26
M  V30 28 1 16 27
M  V30 29 1 17 28
M  V30 END BOND
M  V30 END CTAB
M  END
>  <Structure No>
7630

>  <LogS>
-2.273

>  <MMFF94 Energy>
35.534

$$$$
Compound 7631
Actelion Java MolfileCreator 2.0

  0  0  0  0  0  0              0 V3000
M  V30 BEGIN CTAB
M  V30 COUNTS 20 19 0 0 0
M  V30 BEGIN ATOM
M  V30 1 N 0.0 0.4542 0.0 0 CHG=1
M  V30 2 C -1.4085 0.1393 -0.3538 0
M  V30 3 C 0.8959 -0.6854 -0.3284 0
M  V30 4 C 0.4254 1.6716 -0.72 0
M  V30 5 C -2.1047 -0.7107 0.7163 0
M  V30 6 C 2.2502 -0.5937 0.3842 0
M  V30 7 H 0.0539 0.6607 1.0261 0
M  V30 8 H -1.4638 -0.3832 -1.3358 0
M  V30 9 H -2.0091 1.0724 -0.451 0
M  V30 10 H 0.4387 -1.6471 -0.0142 0
M  V30 11 H 1.0631 -0.7559 -1.4271 0
M  V30 12 H 1.4561 1.9665 -0.4338 0
M  V30 13 H -0.2284 2.5314 -0.4543 0
M  V30 14 H 0.3838 1.521 -1.8218 0
M  V30 15 H -2.0684 -0.1983 1.7011 0
M  V30 16 H -3.17 -0.8536 0.4368 0
M  V30 17 H -1.6388 -1.7119 0.8079 0
M  V30 18 H 2.819 -1.5324 0.2149 0
M  V30 19 H 2.8566 0.245 -0.013 0
M  V30 20 H 2.1072 -0.4639 1.4778 0
M  V30 END ATOM
M  V30 BEGIN BOND
M  V30 1 1 1 2
M  V30 2 1 1 3
M  V30 3 1 1 4
M  V30 4 1 2 5
M  V30 5 1 3 6
M  V30 6 1 1 7
M  V30 7 1 2 8
M  V30 8 1 2 9
M  V30 9 1 3 10
M  V30 10 1 3 11
M  V30 11 1 4 12
M  V30 12 1 4 13
M  V30 13 1 4 14
M  V30 14 1 5 15
M  V30 15 1 5 16
M  V30 16 1 5 17
M  V30 17 1 6 18
M  V30 18 1 6 19
M  V30 19 1 6 20
M  V30 END BOND
M  V30 END CTAB
M  END
>  <Structure No>
7631

>  <LogS>
0.713

>  <MMFF94 Energy>
7.5901

$$$$
Compound 7632
Actelion Java MolfileCreator 2.0

  0  0  0  0  0  0              0 V3000
M  V30 BEGIN CTAB
M  V30 COUNTS 30 29 0 0 0
M  V30 BEGIN ATOM
M  V30 1 O -1.0809 -1.1582 -1.39 0
M  V30 2 C -0.2381 -0.3258 -0.6352 0
M  V30 3 C 0.9701 0.0832 -1.5102 0
M  V30 4 C -1.0419 0.9103 -0.1723 0
M  V30 5 C 2.1896 0.5629 -0.6996 0
M  V30 6 C -1.9172 0.6464 1.0686 0
M  V30 7 C 2.9863 -0.6032 -0.0947 0
M  V30 8 C -3.0446 -0.3805 0.8672 0
M  V30 9 C 4.2216 -0.0986 0.6456 0
M  V30 10 C -4.0769 0.0615 -0.1693 0
M  V30 11 H -0.6766 -2.0651 -1.3798 0
M  V30 12 H 0.12 -0.8781 0.2629 0
M  V30 13 H 0.6585 0.8923 -2.2073 0
M  V30 14 H 1.2797 -0.7741 -2.1477 0
M  V30 15 H -1.6606 1.2993 -1.0089 0
M  V30 16 H -0.3455 1.7308 0.0996 0
M  V30 17 H 1.8777 1.2611 0.1052 0
M  V30 18 H 2.8577 1.1266 -1.3871 0
M  V30 19 H -2.367 1.6098 1.3945 0
M  V30 20 H -1.2666 0.3 1.9009 0
M  V30 21 H 3.312 -1.2944 -0.9021 0
M  V30 22 H 2.3563 -1.1722 0.6201 0
M  V30 23 H -3.5671 -0.5116 1.8396 0
M  V30 24 H -2.629 -1.3711 0.5902 0
M  V30 25 H 4.7775 -0.9602 1.0718 0
M  V30 26 H 3.9245 0.5777 1.4752 0
M  V30 27 H 4.8932 0.4473 -0.0506 0
M  V30 28 H -4.4557 1.0783 0.0679 0
M  V30 29 H -3.6382 0.0577 -1.1882 0
M  V30 30 H -4.9333 -0.6452 -0.1613 0
M  V30 END ATOM
M  V30 BEGIN BOND
M  V30 1 1 1 2
M  V30 2 1 2 3
M  V30 3 1 2 4
M  V30 4 1 3 5
M  V30 5 1 4 6
M  V30 6 1 5 7
M  V30 7 1 6 8
M  V30 8 1 7 9
M  V30 9 1 8 10
M  V30 10 1 1 11
M  V30 11 1 2 12
M  V30 12 1 3 13
M  V30 13 1 3 14
M  V30 14 1 4 15
M  V30 15 1 4 16
M  V30 16 1 5 17
M  V30 17 1 5 18
M  V30 18 1 6 19
M  V30 19 1 6 20
M  V30 20 1 7 21
M  V30 21 1 7 22
M  V30 22 1 8 23
M  V30 23 1 8 24
M  V30 24 1 9 25
M  V30 25 1 9 26
M  V30 26 1 9 27
M  V30 27 1 10 28
M  V30 28 1 10 29
M  V30 29 1 10 30
M  V30 END BOND
M  V30 END CTAB
M  END
>  <Structure No>
7632

>  <LogS>
-2.49

>  <MMFF94 Energy>
2.2451

$$$$
Compound 7633
Actelion Java MolfileCreator 2.0

  0  0  0  0  0  0              0 V3000
M  V30 BEGIN CTAB
M  V30 COUNTS 17 16 0 0 0
M  V30 BEGIN ATOM
M  V30 1 Cl 0.7871 -2.5205 0.3147 0
M  V30 2 C 1.2789 -0.9039 -0.2691 0 CFG=1
M  V30 3 C 0.0993 -0.1638 -0.9302 0
M  V30 4 C 1.9226 -0.107 0.8672 0
M  V30 5 C -1.0582 0.1549 0.0315 0
M  V30 6 C -2.2301 0.7881 -0.7132 0
M  V30 7 H 2.0534 -1.0645 -1.05 0
M  V30 8 H 0.4737 0.7841 -1.3756 0
M  V30 9 H -0.2814 -0.793 -1.7644 0
M  V30 10 H 2.8585 -0.6094 1.1914 0
M  V30 11 H 1.2428 -0.0436 1.7426 0
M  V30 12 H 2.1769 0.9184 0.5244 0
M  V30 13 H -0.7183 0.8662 0.8137 0
M  V30 14 H -1.4143 -0.7729 0.5273 0
M  V30 15 H -1.9109 1.7327 -1.2029 0
M  V30 16 H -2.6213 0.0893 -1.483 0
M  V30 17 H -3.0461 1.0181 0.0038 0
M  V30 END ATOM
M  V30 BEGIN BOND
M  V30 1 1 1 2
M  V30 2 1 2 3
M  V30 3 1 2 4
M  V30 4 1 3 5
M  V30 5 1 5 6
M  V30 6 1 2 7
M  V30 7 1 3 8
M  V30 8 1 3 9
M  V30 9 1 4 10
M  V30 10 1 4 11
M  V30 11 1 4 12
M  V30 12 1 5 13
M  V30 13 1 5 14
M  V30 14 1 6 15
M  V30 15 1 6 16
M  V30 16 1 6 17
M  V30 END BOND
M  V30 BEGIN COLLECTION
M  V30 MDLV30/STEABS ATOMS=(1 2)
M  V30 END COLLECTION
M  V30 END CTAB
M  END
>  <Structure No>
7633

>  <LogS>
-2.63

>  <MMFF94 Energy>
0.57567

$$$$
Compound 7634
Actelion Java MolfileCreator 2.0

  0  0  0  0  0  0              0 V3000
M  V30 BEGIN CTAB
M  V30 COUNTS 30 29 0 0 0
M  V30 BEGIN ATOM
M  V30 1 O 3.0899 1.4667 0.3858 0
M  V30 2 C 3.0543 0.1901 -0.2019 0 CFG=2
M  V30 3 C 2.379 -0.8382 0.7313 0
M  V30 4 C 4.4701 -0.2586 -0.5783 0
M  V30 5 C 0.962 -0.4309 1.1708 0
M  V30 6 C -0.0512 -0.4663 0.017 0
M  V30 7 C -1.4742 -0.208 0.5275 0
M  V30 8 C -2.4843 -0.2193 -0.6294 0
M  V30 9 C -3.9367 -0.0866 -0.1465 0
M  V30 10 C -4.257 1.3089 0.388 0
M  V30 11 H 3.6083 1.3939 1.2299 0
M  V30 12 H 2.473 0.2598 -1.145 0
M  V30 13 H 2.3361 -1.8282 0.2262 0
M  V30 14 H 3.0018 -0.9623 1.6444 0
M  V30 15 H 4.4349 -1.2346 -1.1073 0
M  V30 16 H 4.9348 0.4908 -1.2536 0
M  V30 17 H 5.1028 -0.3625 0.329 0
M  V30 18 H 0.9806 0.5825 1.6273 0
M  V30 19 H 0.6332 -1.1441 1.9582 0
M  V30 20 H 0.2065 0.3135 -0.7307 0
M  V30 21 H -0.0138 -1.4614 -0.478 0
M  V30 22 H -1.7484 -0.9944 1.2646 0
M  V30 23 H -1.4992 0.7795 1.0357 0
M  V30 24 H -2.3924 -1.1829 -1.1768 0
M  V30 25 H -2.2498 0.5985 -1.3456 0
M  V30 26 H -4.1505 -0.8445 0.638 0
M  V30 27 H -4.612 -0.293 -1.0051 0
M  V30 28 H -3.9995 2.083 -0.3656 0
M  V30 29 H -5.343 1.3788 0.6086 0
M  V30 30 H -3.7014 1.5074 1.3277 0
M  V30 END ATOM
M  V30 BEGIN BOND
M  V30 1 1 1 2
M  V30 2 1 2 3
M  V30 3 1 2 4
M  V30 4 1 3 5
M  V30 5 1 5 6
M  V30 6 1 6 7
M  V30 7 1 7 8
M  V30 8 1 8 9
M  V30 9 1 9 10
M  V30 10 1 1 11
M  V30 11 1 2 12
M  V30 12 1 3 13
M  V30 13 1 3 14
M  V30 14 1 4 15
M  V30 15 1 4 16
M  V30 16 1 4 17
M  V30 17 1 5 18
M  V30 18 1 5 19
M  V30 19 1 6 20
M  V30 20 1 6 21
M  V30 21 1 7 22
M  V30 22 1 7 23
M  V30 23 1 8 24
M  V30 24 1 8 25
M  V30 25 1 9 26
M  V30 26 1 9 27
M  V30 27 1 10 28
M  V30 28 1 10 29
M  V30 29 1 10 30
M  V30 END BOND
M  V30 BEGIN COLLECTION
M  V30 MDLV30/STEABS ATOMS=(1 2)
M  V30 END COLLECTION
M  V30 END CTAB
M  END
>  <Structure No>
7634

>  <LogS>
-2.744

>  <MMFF94 Energy>
1.4625

$$$$
Compound 7635
Actelion Java MolfileCreator 2.0

  0  0  0  0  0  0              0 V3000
M  V30 BEGIN CTAB
M  V30 COUNTS 17 17 0 0 0
M  V30 BEGIN ATOM
M  V30 1 O 3.1198 1.7698 1.0953 0
M  V30 2 C 2.5283 0.7023 0.7843 0
M  V30 3 O 3.2632 -0.475 0.7158 0 CHG=-1
M  V30 4 C 1.0629 0.7146 0.5696 0
M  V30 5 N 0.3602 1.7252 1.1493 0
M  V30 6 C 0.368 -0.2883 -0.1614 0
M  V30 7 C -0.9899 1.8078 1.0842 0
M  V30 8 C -1.0493 -0.2138 -0.2437 0
M  V30 9 C 1.0999 -1.3884 -0.8226 0
M  V30 10 C -1.7157 0.8376 0.4038 0
M  V30 11 C -1.8619 -1.174 -1.0338 0
M  V30 12 O 2.0 -1.135 -1.6661 0
M  V30 13 O 0.7905 -2.7101 -0.5255 0 CHG=-1
M  V30 14 O -3.0585 -1.4039 -0.713 0
M  V30 15 O -1.3409 -1.7942 -2.1632 0 CHG=-1
M  V30 16 H -1.5018 2.6305 1.5657 0
M  V30 17 H -2.794 0.9294 0.3547 0
M  V30 END ATOM
M  V30 BEGIN BOND
M  V30 1 2 1 2
M  V30 2 1 2 3
M  V30 3 1 2 4
M  V30 4 2 4 5
M  V30 5 1 4 6
M  V30 6 1 5 7
M  V30 7 2 6 8
M  V30 8 1 6 9
M  V30 9 2 7 10
M  V30 10 1 8 11
M  V30 11 2 9 12
M  V30 12 1 9 13
M  V30 13 2 11 14
M  V30 14 1 11 15
M  V30 15 1 8 10
M  V30 16 1 7 16
M  V30 17 1 10 17
M  V30 END BOND
M  V30 END CTAB
M  END
>  <Structure No>
7635

>  <LogS>
-1.245

>  <MMFF94 Energy>
285.58

$$$$
Compound 7636
Actelion Java MolfileCreator 2.0

  0  0  0  0  0  0              0 V3000
M  V30 BEGIN CTAB
M  V30 COUNTS 28 29 0 0 0
M  V30 BEGIN ATOM
M  V30 1 O -0.6474 2.2674 2.1864 0
M  V30 2 N -1.7149 2.0668 1.5709 0 CHG=1
M  V30 3 O -2.8252 2.8031 1.9162 0 CHG=-1
M  V30 4 C -1.8295 0.9829 0.6298 0
M  V30 5 C -0.7125 0.5201 -0.1055 0
M  V30 6 C -3.0746 0.3518 0.4569 0
M  V30 7 N 0.5488 1.2069 -0.0394 0
M  V30 8 C -0.8679 -0.5596 -0.9891 0
M  V30 9 C -3.2225 -0.7359 -0.4216 0
M  V30 10 C 1.823 0.5418 0.0259 0
M  V30 11 C -2.1052 -1.1855 -1.1397 0
M  V30 12 N -4.4992 -1.3816 -0.5845 0 CHG=1
M  V30 13 C 2.9794 1.223 -0.3865 0
M  V30 14 C 1.944 -0.7623 0.5427 0
M  V30 15 O -5.5 -0.9847 0.0479 0
M  V30 16 O -4.6385 -2.4491 -1.4419 0 CHG=-1
M  V30 17 C 4.2304 0.6026 -0.3129 0
M  V30 18 C 3.197 -1.3789 0.6147 0
M  V30 19 C 4.3387 -0.6984 0.1843 0
M  V30 20 H -3.9283 0.6987 1.0248 0
M  V30 21 H 0.5374 2.2512 -0.0879 0
M  V30 22 H -0.0301 -0.9038 -1.5824 0
M  V30 23 H -2.1891 -2.0152 -1.8295 0
M  V30 24 H 2.9093 2.2323 -0.7723 0
M  V30 25 H 1.0756 -1.2977 0.9036 0
M  V30 26 H 5.1163 1.1317 -0.64 0
M  V30 27 H 3.2834 -2.3826 1.0105 0
M  V30 28 H 5.3078 -1.1767 0.2421 0
M  V30 END ATOM
M  V30 BEGIN BOND
M  V30 1 2 1 2
M  V30 2 1 2 3
M  V30 3 1 2 4
M  V30 4 2 4 5
M  V30 5 1 4 6
M  V30 6 1 5 7
M  V30 7 1 5 8
M  V30 8 2 6 9
M  V30 9 1 7 10
M  V30 10 2 8 11
M  V30 11 1 9 12
M  V30 12 2 10 13
M  V30 13 1 10 14
M  V30 14 2 12 15
M  V30 15 1 12 16
M  V30 16 1 13 17
M  V30 17 2 14 18
M  V30 18 2 17 19
M  V30 19 1 9 11
M  V30 20 1 18 19
M  V30 21 1 6 20
M  V30 22 1 7 21
M  V30 23 1 8 22
M  V30 24 1 11 23
M  V30 25 1 13 24
M  V30 26 1 14 25
M  V30 27 1 17 26
M  V30 28 1 18 27
M  V30 29 1 19 28
M  V30 END BOND
M  V30 END CTAB
M  END
>  <Structure No>
7636

>  <LogS>
-3.834

>  <MMFF94 Energy>
91.195

$$$$
Compound 7637
Actelion Java MolfileCreator 2.0

  0  0  0  0  0  0              0 V3000
M  V30 BEGIN CTAB
M  V30 COUNTS 33 34 0 0 0
M  V30 BEGIN ATOM
M  V30 1 S 1.5548 1.9643 2.5378 0
M  V30 2 O 2.6961 2.7619 3.1029 0
M  V30 3 O 0.5109 1.7832 3.6049 0
M  V30 4 N 0.8581 2.8243 1.2058 0 CHG=-1
M  V30 5 C 2.1624 0.4063 1.9866 0
M  V30 6 C -0.1794 2.2745 0.3907 0
M  V30 7 C 3.0367 0.3505 0.8931 0
M  V30 8 C 1.7682 -0.7809 2.6205 0
M  V30 9 N -0.6718 1.0294 0.6345 0
M  V30 10 C -0.6963 3.0164 -0.6715 0
M  V30 11 C 3.5139 -0.8814 0.4357 0
M  V30 12 C 2.2444 -2.0132 2.1624 0
M  V30 13 N -1.637 0.5005 -0.1206 0
M  V30 14 C -1.7042 2.4641 -1.4606 0
M  V30 15 C 3.1192 -2.0693 1.0675 0
M  V30 16 C -2.1737 1.183 -1.1698 0
M  V30 17 N 3.6029 -3.3297 0.5965 0
M  V30 18 O -3.1851 0.6202 -1.9544 0
M  V30 19 C -3.7192 -0.6772 -1.7087 0
M  V30 20 C -4.7936 -0.9901 -2.7386 0
M  V30 21 H 3.3438 1.2602 0.3925 0
M  V30 22 H 1.0916 -0.7572 3.4656 0
M  V30 23 H -0.3213 4.0099 -0.8843 0
M  V30 24 H 4.1866 -0.9105 -0.4128 0
M  V30 25 H 1.9309 -2.9233 2.659 0
M  V30 26 H -2.1171 3.0253 -2.2893 0
M  V30 27 H 4.2631 -3.3807 -0.2122 0
M  V30 28 H 3.3002 -4.2219 1.0487 0
M  V30 29 H -4.1652 -0.7126 -0.6903 0
M  V30 30 H -2.9103 -1.4362 -1.7809 0
M  V30 31 H -5.2149 -1.9997 -2.5459 0
M  V30 32 H -5.6107 -0.2404 -2.6742 0
M  V30 33 H -4.3578 -0.9699 -3.7605 0
M  V30 END ATOM
M  V30 BEGIN BOND
M  V30 1 2 1 2
M  V30 2 2 1 3
M  V30 3 1 1 4
M  V30 4 1 1 5
M  V30 5 1 4 6
M  V30 6 2 5 7
M  V30 7 1 5 8
M  V30 8 2 6 9
M  V30 9 1 6 10
M  V30 10 1 7 11
M  V30 11 2 8 12
M  V30 12 1 9 13
M  V30 13 2 10 14
M  V30 14 2 11 15
M  V30 15 2 13 16
M  V30 16 1 15 17
M  V30 17 1 16 18
M  V30 18 1 18 19
M  V30 19 1 19 20
M  V30 20 1 12 15
M  V30 21 1 14 16
M  V30 22 1 7 21
M  V30 23 1 8 22
M  V30 24 1 10 23
M  V30 25 1 11 24
M  V30 26 1 12 25
M  V30 27 1 14 26
M  V30 28 1 17 27
M  V30 29 1 17 28
M  V30 30 1 19 29
M  V30 31 1 19 30
M  V30 32 1 20 31
M  V30 33 1 20 32
M  V30 34 1 20 33
M  V30 END BOND
M  V30 END CTAB
M  END
>  <Structure No>
7637

>  <LogS>
-2.427

>  <MMFF94 Energy>
49.614

$$$$
Compound 7638
Actelion Java MolfileCreator 2.0

  0  0  0  0  0  0              0 V3000
M  V30 BEGIN CTAB
M  V30 COUNTS 27 28 0 0 0
M  V30 BEGIN ATOM
M  V30 1 C 1.264 -0.0789 0.5528 0
M  V30 2 C 1.8471 -0.5835 -0.6338 0
M  V30 3 C -0.1053 0.2256 0.5806 0
M  V30 4 C 2.0627 0.1119 1.6916 0
M  V30 5 C 1.0503 -0.7741 -1.7704 0
M  V30 6 C 3.2172 -0.8878 -0.6603 0
M  V30 7 C -0.9048 0.0334 -0.5626 0
M  V30 8 C 3.4258 -0.1948 1.6525 0
M  V30 9 C -0.3123 -0.4684 -1.7345 0
M  V30 10 C 4.001 -0.693 0.4805 0
M  V30 11 C -2.3869 0.3594 -0.5442 0
M  V30 12 C -3.1317 -0.509 0.4767 0
M  V30 13 C -2.6221 1.8508 -0.2762 0
M  V30 14 H -0.5487 0.6117 1.4905 0
M  V30 15 H 1.634 0.4973 2.6093 0
M  V30 16 H 1.4808 -1.1596 -2.6871 0
M  V30 17 H 3.6799 -1.2749 -1.5602 0
M  V30 18 H 4.0379 -0.0461 2.5327 0
M  V30 19 H -0.906 -0.6247 -2.6265 0
M  V30 20 H 5.0571 -0.9288 0.4562 0
M  V30 21 H -2.8276 0.1362 -1.5417 0
M  V30 22 H -2.8023 -0.2825 1.5128 0
M  V30 23 H -2.9473 -1.5845 0.2677 0
M  V30 24 H -4.2251 -0.3246 0.4065 0
M  V30 25 H -2.0734 2.4628 -1.0236 0
M  V30 26 H -3.7045 2.0863 -0.3627 0
M  V30 27 H -2.2803 2.1348 0.7415 0
M  V30 END ATOM
M  V30 BEGIN BOND
M  V30 1 1 1 2
M  V30 2 1 1 3
M  V30 3 2 1 4
M  V30 4 1 2 5
M  V30 5 2 2 6
M  V30 6 2 3 7
M  V30 7 1 4 8
M  V30 8 2 5 9
M  V30 9 1 6 10
M  V30 10 1 7 11
M  V30 11 1 11 12
M  V30 12 1 11 13
M  V30 13 1 7 9
M  V30 14 2 8 10
M  V30 15 1 3 14
M  V30 16 1 4 15
M  V30 17 1 5 16
M  V30 18 1 6 17
M  V30 19 1 8 18
M  V30 20 1 9 19
M  V30 21 1 10 20
M  V30 22 1 11 21
M  V30 23 1 12 22
M  V30 24 1 12 23
M  V30 25 1 12 24
M  V30 26 1 13 25
M  V30 27 1 13 26
M  V30 28 1 13 27
M  V30 END BOND
M  V30 END CTAB
M  END
>  <Structure No>
7638

>  <LogS>
-5.298

>  <MMFF94 Energy>
37.725

$$$$
Compound 7639
Actelion Java MolfileCreator 2.0

  0  0  0  0  0  0              0 V3000
M  V30 BEGIN CTAB
M  V30 COUNTS 51 55 0 0 0
M  V30 BEGIN ATOM
M  V30 1 S 5.1077 1.8101 -0.1644 0
M  V30 2 C 3.7089 1.4964 0.9926 0 CFG=2
M  V30 3 C 4.5396 0.3039 0.7464 0 CFG=1
M  V30 4 C 2.3039 1.6225 0.3593 0
M  V30 5 C 4.0047 -0.7945 -0.1815 0
M  V30 6 C 1.8276 0.4877 -0.6166 0 CFG=1
M  V30 7 C 2.4662 -0.8687 -0.2014 0 CFG=2
M  V30 8 C 0.2379 0.4048 -0.5687 0 CFG=2
M  V30 9 C 2.2855 0.8725 -2.053 0
M  V30 10 C 1.9438 -1.3423 1.168 0
M  V30 11 C -0.3448 -0.3052 0.7205 0 CFG=2
M  V30 12 C -0.4887 -0.13 -1.8419 0
M  V30 13 C 0.4466 -1.5757 1.1088 0
M  V30 14 C -1.8313 -0.7273 0.5072 0 CFG=2
M  V30 15 C -2.0173 0.1841 -1.821 0
M  V30 16 C -2.64 0.2113 -0.387 0 CFG=1
M  V30 17 C -2.7036 -0.9583 1.7334 0
M  V30 18 C -4.0355 -0.4475 -0.2888 0 CFG=1
M  V30 19 C -2.7283 1.6697 0.1781 0
M  V30 20 C -4.1393 -0.9262 1.1786 0
M  V30 21 O -5.0686 0.4454 -0.6198 0
M  V30 22 H 3.8649 1.9899 1.9755 0
M  V30 23 H 5.2173 0.01 1.5758 0
M  V30 24 H 2.2256 2.6168 -0.1326 0
M  V30 25 H 1.6072 1.6794 1.2211 0
M  V30 26 H 4.4032 -0.6668 -1.2097 0
M  V30 27 H 4.4108 -1.7688 0.1664 0
M  V30 28 H 2.187 -1.6389 -0.9563 0
M  V30 29 H -0.0634 1.4688 -0.5414 0
M  V30 30 H 3.3505 1.1582 -2.1019 0
M  V30 31 H 2.1517 0.0233 -2.7565 0
M  V30 32 H 1.7115 1.7494 -2.4236 0
M  V30 33 H 2.4332 -2.3028 1.4416 0
M  V30 34 H 2.1725 -0.613 1.9739 0
M  V30 35 H -0.2952 0.4089 1.571 0
M  V30 36 H -0.096 0.321 -2.7735 0
M  V30 37 H -0.3279 -1.2273 -1.9175 0
M  V30 38 H 0.1043 -1.931 2.1053 0
M  V30 39 H 0.2601 -2.3958 0.3801 0
M  V30 40 H -1.817 -1.7133 -0.0219 0
M  V30 41 H -2.1936 1.1574 -2.3288 0
M  V30 42 H -2.522 -0.5798 -2.4506 0
M  V30 43 H -2.5555 -0.1453 2.4775 0
M  V30 44 H -2.4776 -1.9373 2.2092 0
M  V30 45 H -4.0838 -1.3397 -0.9579 0
M  V30 46 H -3.159 2.3556 -0.5818 0
M  V30 47 H -1.7635 2.0862 0.5101 0
M  V30 48 H -3.3888 1.722 1.069 0
M  V30 49 H -4.7627 -0.2315 1.7836 0
M  V30 50 H -4.5962 -1.939 1.2187 0
M  V30 51 H -5.9032 -0.0908 -0.6557 0
M  V30 END ATOM
M  V30 BEGIN BOND
M  V30 1 1 1 2
M  V30 2 1 1 3
M  V30 3 1 2 4
M  V30 4 1 3 5
M  V30 5 1 4 6
M  V30 6 1 5 7
M  V30 7 1 6 8
M  V30 8 1 6 9
M  V30 9 1 7 10
M  V30 10 1 8 11
M  V30 11 1 8 12
M  V30 12 1 10 13
M  V30 13 1 11 14
M  V30 14 1 12 15
M  V30 15 1 14 16
M  V30 16 1 14 17
M  V30 17 1 16 18
M  V30 18 1 16 19
M  V30 19 1 17 20
M  V30 20 1 18 21
M  V30 21 1 2 3
M  V30 22 1 6 7
M  V30 23 1 11 13
M  V30 24 1 15 16
M  V30 25 1 18 20
M  V30 26 1 2 22
M  V30 27 1 3 23
M  V30 28 1 4 24
M  V30 29 1 4 25
M  V30 30 1 5 26
M  V30 31 1 5 27
M  V30 32 1 7 28
M  V30 33 1 8 29
M  V30 34 1 9 30
M  V30 35 1 9 31
M  V30 36 1 9 32
M  V30 37 1 10 33
M  V30 38 1 10 34
M  V30 39 1 11 35
M  V30 40 1 12 36
M  V30 41 1 12 37
M  V30 42 1 13 38
M  V30 43 1 13 39
M  V30 44 1 14 40
M  V30 45 1 15 41
M  V30 46 1 15 42
M  V30 47 1 17 43
M  V30 48 1 17 44
M  V30 49 1 18 45
M  V30 50 1 19 46
M  V30 51 1 19 47
M  V30 52 1 19 48
M  V30 53 1 20 49
M  V30 54 1 20 50
M  V30 55 1 21 51
M  V30 END BOND
M  V30 BEGIN COLLECTION
M  V30 MDLV30/STEABS ATOMS=(9 2 3 6 7 8 11 14 16 18)
M  V30 END COLLECTION
M  V30 END CTAB
M  END
>  <Structure No>
7639

>  <LogS>
-5.407

>  <MMFF94 Energy>
97.359

$$$$
Compound 7640
Actelion Java MolfileCreator 2.0

  0  0  0  0  0  0              0 V3000
M  V30 BEGIN CTAB
M  V30 COUNTS 15 14 0 0 0
M  V30 BEGIN ATOM
M  V30 1 C -1.998 0.7681 0.1535 0
M  V30 2 C -2.4803 1.5845 0.8981 0
M  V30 3 C -1.4105 -0.2271 -0.7532 0
M  V30 4 C 0.119 -0.1221 -0.7883 0
M  V30 5 C 0.7592 -0.5652 0.5332 0
M  V30 6 C 2.2217 -0.4911 0.443 0
M  V30 7 C 3.4236 -0.4303 0.3696 0
M  V30 8 H -2.9032 2.3014 1.5519 0
M  V30 9 H -1.81 -0.0482 -1.7738 0
M  V30 10 H -1.7206 -1.245 -0.4339 0
M  V30 11 H 0.4928 -0.7746 -1.6082 0
M  V30 12 H 0.4171 0.9243 -1.0243 0
M  V30 13 H 0.4234 0.0913 1.3635 0
M  V30 14 H 0.4697 -1.6126 0.7639 0
M  V30 15 H 4.4786 -0.3768 0.3048 0
M  V30 END ATOM
M  V30 BEGIN BOND
M  V30 1 3 1 2
M  V30 2 1 1 3
M  V30 3 1 3 4
M  V30 4 1 4 5
M  V30 5 1 5 6
M  V30 6 3 6 7
M  V30 7 1 2 8
M  V30 8 1 3 9
M  V30 9 1 3 10
M  V30 10 1 4 11
M  V30 11 1 4 12
M  V30 12 1 5 13
M  V30 13 1 5 14
M  V30 14 1 7 15
M  V30 END BOND
M  V30 END CTAB
M  END
>  <Structure No>
7640

>  <LogS>
-1.747

>  <MMFF94 Energy>
2.9093

$$$$
Compound 7641
Actelion Java MolfileCreator 2.0

  0  0  0  0  0  0              0 V3000
M  V30 BEGIN CTAB
M  V30 COUNTS 30 29 0 0 0
M  V30 BEGIN ATOM
M  V30 1 O 4.3305 -0.1544 -0.7722 0
M  V30 2 C 3.5865 0.173 0.371 0
M  V30 3 C 2.3841 1.0529 0.0067 0
M  V30 4 C 1.394 0.3886 -0.9688 0
M  V30 5 C 0.7453 -0.9109 -0.4519 0
M  V30 6 C -0.0271 -0.7713 0.8746 0
M  V30 7 C -1.1466 0.2901 0.8725 0
M  V30 8 C -2.2347 0.0937 -0.2104 0
M  V30 9 C -2.9785 -1.2398 -0.046 0
M  V30 10 C -3.2339 1.2567 -0.1594 0
M  V30 11 H 3.9666 -1.0111 -1.1165 0
M  V30 12 H 3.2629 -0.7392 0.9211 0
M  V30 13 H 4.2427 0.7456 1.0598 0
M  V30 14 H 1.858 1.3574 0.9355 0
M  V30 15 H 2.763 1.9857 -0.4645 0
M  V30 16 H 1.9194 0.1645 -1.9219 0
M  V30 17 H 0.5989 1.1213 -1.2222 0
M  V30 18 H 0.0628 -1.3028 -1.2349 0
M  V30 19 H 1.5286 -1.6873 -0.3246 0
M  V30 20 H 0.6878 -0.5288 1.689 0
M  V30 21 H -0.4571 -1.7597 1.1405 0
M  V30 22 H -0.687 1.2949 0.7564 0
M  V30 23 H -1.6284 0.281 1.8751 0
M  V30 24 H -1.7646 0.1136 -1.2164 0
M  V30 25 H -3.3957 -1.3328 0.9795 0
M  V30 26 H -2.2977 -2.0935 -0.2416 0
M  V30 27 H -3.8115 -1.3087 -0.7777 0
M  V30 28 H -2.7077 2.2225 -0.3162 0
M  V30 29 H -3.9937 1.1476 -0.9626 0
M  V30 30 H -3.7525 1.2859 0.8231 0
M  V30 END ATOM
M  V30 BEGIN BOND
M  V30 1 1 1 2
M  V30 2 1 2 3
M  V30 3 1 3 4
M  V30 4 1 4 5
M  V30 5 1 5 6
M  V30 6 1 6 7
M  V30 7 1 7 8
M  V30 8 1 8 9
M  V30 9 1 8 10
M  V30 10 1 1 11
M  V30 11 1 2 12
M  V30 12 1 2 13
M  V30 13 1 3 14
M  V30 14 1 3 15
M  V30 15 1 4 16
M  V30 16 1 4 17
M  V30 17 1 5 18
M  V30 18 1 5 19
M  V30 19 1 6 20
M  V30 20 1 6 21
M  V30 21 1 7 22
M  V30 22 1 7 23
M  V30 23 1 8 24
M  V30 24 1 9 25
M  V30 25 1 9 26
M  V30 26 1 9 27
M  V30 27 1 10 28
M  V30 28 1 10 29
M  V30 29 1 10 30
M  V30 END BOND
M  V30 END CTAB
M  END
>  <Structure No>
7641

>  <LogS>
-2.487

>  <MMFF94 Energy>
2.6124

$$$$
Compound 7642
Actelion Java MolfileCreator 2.0

  0  0  0  0  0  0              0 V3000
M  V30 BEGIN CTAB
M  V30 COUNTS 26 28 0 0 0
M  V30 BEGIN ATOM
M  V30 1 Cl -5.0673 -0.4146 0.9123 0
M  V30 2 C -3.3441 -0.5846 0.6347 0
M  V30 3 C -2.5518 0.5596 0.4364 0
M  V30 4 C -2.7595 -1.8676 0.6124 0
M  V30 5 C -1.1821 0.3958 0.2147 0
M  V30 6 C -1.3807 -2.0162 0.3933 0
M  V30 7 C -0.6157 -0.8664 0.1975 0
M  V30 8 C -0.1419 1.4674 -0.0146 0 CFG=1
M  V30 9 C 0.8073 -0.7266 -0.0354 0
M  V30 10 O -0.0476 2.3355 1.0901 0
M  V30 11 C 1.1003 0.6205 -0.1591 0
M  V30 12 C -0.421 2.2316 -1.2804 0
M  V30 13 C 1.7988 -1.704 -0.1267 0
M  V30 14 C 2.413 1.0473 -0.3759 0
M  V30 15 O -0.4319 3.4912 -1.2778 0
M  V30 16 O -0.6493 1.5508 -2.471 0 CHG=-1
M  V30 17 C 3.1215 -1.2891 -0.3493 0
M  V30 18 C 3.4276 0.0806 -0.4728 0
M  V30 19 H -2.9909 1.5489 0.4535 0
M  V30 20 H -3.3733 -2.7457 0.7666 0
M  V30 21 H -0.9276 -2.9986 0.3789 0
M  V30 22 H 0.1396 1.7865 1.8973 0
M  V30 23 H 1.5594 -2.7545 -0.0274 0
M  V30 24 H 2.644 2.1006 -0.4679 0
M  V30 25 H 3.9106 -2.0258 -0.4246 0
M  V30 26 H 4.4506 0.3902 -0.6423 0
M  V30 END ATOM
M  V30 BEGIN BOND
M  V30 1 1 1 2
M  V30 2 2 2 3
M  V30 3 1 2 4
M  V30 4 1 3 5
M  V30 5 2 4 6
M  V30 6 2 5 7
M  V30 7 1 5 8
M  V30 8 1 7 9
M  V30 9 1 8 10
M  V30 10 1 8 11
M  V30 11 1 8 12
M  V30 12 1 9 13
M  V30 13 1 11 14
M  V30 14 2 12 15
M  V30 15 1 12 16
M  V30 16 2 13 17
M  V30 17 2 14 18
M  V30 18 1 6 7
M  V30 19 2 9 11
M  V30 20 1 17 18
M  V30 21 1 3 19
M  V30 22 1 4 20
M  V30 23 1 6 21
M  V30 24 1 10 22
M  V30 25 1 13 23
M  V30 26 1 14 24
M  V30 27 1 17 25
M  V30 28 1 18 26
M  V30 END BOND
M  V30 BEGIN COLLECTION
M  V30 MDLV30/STEABS ATOMS=(1 8)
M  V30 END COLLECTION
M  V30 END CTAB
M  END
>  <Structure No>
7642

>  <LogS>
-4.161

>  <MMFF94 Energy>
147.36

$$$$
Compound 7643
Actelion Java MolfileCreator 2.0

  0  0  0  0  0  0              0 V3000
M  V30 BEGIN CTAB
M  V30 COUNTS 39 43 0 0 0
M  V30 BEGIN ATOM
M  V30 1 O 0.3291 -2.4704 1.5641 0
M  V30 2 C 0.5764 -1.5443 0.7482 0
M  V30 3 O 0.6512 -1.7265 -0.6143 0
M  V30 4 C 0.7962 -0.1128 1.1031 0 CFG=2
M  V30 5 C 0.9557 -0.4756 -1.2153 0 CFG=2
M  V30 6 C -0.5535 0.6739 1.072 0 CFG=1
M  V30 7 C 1.6532 0.3241 -0.0942 0 CFG=2
M  V30 8 C -0.3524 0.263 -1.574 0 CFG=2
M  V30 9 O -0.2617 2.0174 1.3952 0
M  V30 10 C -1.3144 0.5458 -0.331 0 CFG=1
M  V30 11 C -1.4705 0.0419 2.1575 0 CFG=1
M  V30 12 C 3.1299 -0.0137 0.12 0
M  V30 13 O -1.002 -0.4336 -2.6061 0
M  V30 14 C -2.3545 -0.5493 0.0123 0 CFG=2
M  V30 15 C -2.1155 1.836 -0.6515 0
M  V30 16 O -2.8065 0.4931 2.1499 0
M  V30 17 C -2.5381 -0.7274 1.4989 0 CFG=2
M  V30 18 C 3.8386 0.7231 0.9919 0
M  V30 19 C 3.834 -1.0865 -0.6784 0
M  V30 20 O -2.2217 -1.77 -0.6737 0
M  V30 21 C -3.4084 -1.0346 -0.9057 0
M  V30 22 H 1.3182 -8.0E-4 2.0797 0
M  V30 23 H 1.5844 -0.6053 -2.1217 0
M  V30 24 H 1.5871 1.4205 -0.2841 0
M  V30 25 H -0.0121 1.2457 -1.9839 0
M  V30 26 H -1.0791 2.447 1.7589 0
M  V30 27 H -1.1163 -0.3106 3.1494 0
M  V30 28 H -1.4999 0.2358 -3.1443 0
M  V30 29 H -1.4332 2.7028 -0.7842 0
M  V30 30 H -2.6927 1.7167 -1.5924 0
M  V30 31 H -2.8378 2.0858 0.1535 0
M  V30 32 H -2.9105 -1.6382 2.0132 0
M  V30 33 H 4.8969 0.5432 1.1547 0
M  V30 34 H 3.3672 1.5228 1.5559 0
M  V30 35 H 3.9389 -0.7581 -1.7332 0
M  V30 36 H 3.2588 -2.0338 -0.6403 0
M  V30 37 H 4.8491 -1.2993 -0.2798 0
M  V30 38 H -3.4372 -0.6144 -1.93 0
M  V30 39 H -4.2849 -1.534 -0.442 0
M  V30 END ATOM
M  V30 BEGIN BOND
M  V30 1 2 1 2
M  V30 2 1 2 3
M  V30 3 1 2 4
M  V30 4 1 3 5
M  V30 5 1 4 6
M  V30 6 1 4 7
M  V30 7 1 5 8
M  V30 8 1 6 9
M  V30 9 1 6 10
M  V30 10 1 6 11
M  V30 11 1 7 12
M  V30 12 1 8 13
M  V30 13 1 10 14
M  V30 14 1 10 15
M  V30 15 1 11 16
M  V30 16 1 11 17
M  V30 17 2 12 18
M  V30 18 1 12 19
M  V30 19 1 14 20
M  V30 20 1 14 21
M  V30 21 1 5 7
M  V30 22 1 8 10
M  V30 23 1 14 17
M  V30 24 1 16 17
M  V30 25 1 20 21
M  V30 26 1 4 22
M  V30 27 1 5 23
M  V30 28 1 7 24
M  V30 29 1 8 25
M  V30 30 1 9 26
M  V30 31 1 11 27
M  V30 32 1 13 28
M  V30 33 1 15 29
M  V30 34 1 15 30
M  V30 35 1 15 31
M  V30 36 1 17 32
M  V30 37 1 18 33
M  V30 38 1 18 34
M  V30 39 1 19 35
M  V30 40 1 19 36
M  V30 41 1 19 37
M  V30 42 1 21 38
M  V30 43 1 21 39
M  V30 END BOND
M  V30 BEGIN COLLECTION
M  V30 MDLV30/STEABS ATOMS=(9 4 5 6 7 8 10 11 14 17)
M  V30 END COLLECTION
M  V30 END CTAB
M  END
>  <Structure No>
7643

>  <LogS>
-1.19

>  <MMFF94 Energy>
73.473

$$$$
Compound 7644
Actelion Java MolfileCreator 2.0

  0  0  0  0  0  0              0 V3000
M  V30 BEGIN CTAB
M  V30 COUNTS 35 36 0 0 0
M  V30 BEGIN ATOM
M  V30 1 O 5.6565 -0.6361 -1.5909 0
M  V30 2 C 5.908 0.2202 -0.7005 0
M  V30 3 N 4.8444 0.8985 -0.0144 0
M  V30 4 C 7.3273 0.6 -0.4307 0
M  V30 5 C 3.4654 0.4928 -0.0608 0
M  V30 6 C 2.459 1.466 0.0276 0
M  V30 7 C 3.1002 -0.8634 -0.1331 0
M  V30 8 C 1.1107 1.0974 0.0066 0
M  V30 9 C 1.7517 -1.2317 -0.153 0
M  V30 10 C 0.7492 -0.2577 -0.0881 0
M  V30 11 N -0.6219 -0.6712 -0.1115 0
M  V30 12 N -1.5817 0.1619 -0.0609 0
M  V30 13 C -2.958 -0.24 -0.0856 0
M  V30 14 C -3.4165 -1.4012 -0.7595 0
M  V30 15 C -3.8794 0.5571 0.6076 0
M  V30 16 O -2.5922 -2.1803 -1.5739 0
M  V30 17 C -4.7614 -1.7738 -0.6503 0
M  V30 18 C -5.2266 0.1811 0.7054 0
M  V30 19 C -5.6624 -0.988 0.07 0
M  V30 20 C -6.2046 1.0551 1.4338 0
M  V30 21 H 5.0781 1.7886 0.4816 0
M  V30 22 H 8.011 -0.2221 -0.7308 0
M  V30 23 H 7.4661 0.8 0.6524 0
M  V30 24 H 7.581 1.5141 -1.0066 0
M  V30 25 H 2.7212 2.514 0.1031 0
M  V30 26 H 3.8526 -1.6403 -0.1477 0
M  V30 27 H 0.3541 1.8695 0.0664 0
M  V30 28 H 1.4857 -2.2799 -0.2109 0
M  V30 29 H -3.5363 1.4609 1.0978 0
M  V30 30 H -1.6794 -1.8854 -1.8905 0
M  V30 31 H -5.1172 -2.6632 -1.155 0
M  V30 32 H -6.7027 -1.2854 0.121 0
M  V30 33 H -7.0365 0.4497 1.853 0
M  V30 34 H -5.7072 1.5828 2.2755 0
M  V30 35 H -6.6221 1.8065 0.7316 0
M  V30 END ATOM
M  V30 BEGIN BOND
M  V30 1 2 1 2
M  V30 2 1 2 3
M  V30 3 1 2 4
M  V30 4 1 3 5
M  V30 5 2 5 6
M  V30 6 1 5 7
M  V30 7 1 6 8
M  V30 8 2 7 9
M  V30 9 2 8 10
M  V30 10 1 10 11
M  V30 11 2 11 12
M  V30 12 1 12 13
M  V30 13 2 13 14
M  V30 14 1 13 15
M  V30 15 1 14 16
M  V30 16 1 14 17
M  V30 17 2 15 18
M  V30 18 2 17 19
M  V30 19 1 18 20
M  V30 20 1 9 10
M  V30 21 1 18 19
M  V30 22 1 3 21
M  V30 23 1 4 22
M  V30 24 1 4 23
M  V30 25 1 4 24
M  V30 26 1 6 25
M  V30 27 1 7 26
M  V30 28 1 8 27
M  V30 29 1 9 28
M  V30 30 1 15 29
M  V30 31 1 16 30
M  V30 32 1 17 31
M  V30 33 1 19 32
M  V30 34 1 20 33
M  V30 35 1 20 34
M  V30 36 1 20 35
M  V30 END BOND
M  V30 END CTAB
M  END
>  <Structure No>
7644

>  <LogS>
-5.358

>  <MMFF94 Energy>
34.455

$$$$
Compound 7645
Actelion Java MolfileCreator 2.0

  0  0  0  0  0  0              0 V3000
M  V30 BEGIN CTAB
M  V30 COUNTS 25 24 0 0 0
M  V30 BEGIN ATOM
M  V30 1 C 2.3932 2.3932 -0.8486 0
M  V30 2 C 3.146 3.1706 -0.3176 0
M  V30 3 C 1.4747 1.4465 -1.4947 0
M  V30 4 C 1.5236 0.0629 -0.8295 0
M  V30 5 C 1.1039 0.0537 0.6547 0
M  V30 6 C -0.3207 0.5723 0.9364 0
M  V30 7 C -1.4414 -0.1551 0.1726 0
M  V30 8 C -1.5314 -1.6466 0.5256 0
M  V30 9 C -2.7481 -2.2938 -0.1295 0
M  V30 10 H 3.8068 3.8528 0.149 0
M  V30 11 H 1.7747 1.3426 -2.5587 0
M  V30 12 H 0.4447 1.8578 -1.4776 0
M  V30 13 H 2.5609 -0.3315 -0.9019 0
M  V30 14 H 0.8831 -0.6386 -1.4042 0
M  V30 15 H 1.8213 0.6699 1.2383 0
M  V30 16 H 1.2015 -0.9813 1.0449 0
M  V30 17 H -0.5158 0.4817 2.0273 0
M  V30 18 H -0.3712 1.6565 0.701 0
M  V30 19 H -1.3069 -0.0291 -0.9223 0
M  V30 20 H -2.4033 0.335 0.4397 0
M  V30 21 H -0.6217 -2.1764 0.1723 0
M  V30 22 H -1.6088 -1.7694 1.6279 0
M  V30 23 H -2.7818 -3.3724 0.1325 0
M  V30 24 H -2.687 -2.1982 -1.2346 0
M  V30 25 H -3.6826 -1.8125 0.2296 0
M  V30 END ATOM
M  V30 BEGIN BOND
M  V30 1 3 1 2
M  V30 2 1 1 3
M  V30 3 1 3 4
M  V30 4 1 4 5
M  V30 5 1 5 6
M  V30 6 1 6 7
M  V30 7 1 7 8
M  V30 8 1 8 9
M  V30 9 1 2 10
M  V30 10 1 3 11
M  V30 11 1 3 12
M  V30 12 1 4 13
M  V30 13 1 4 14
M  V30 14 1 5 15
M  V30 15 1 5 16
M  V30 16 1 6 17
M  V30 17 1 6 18
M  V30 18 1 7 19
M  V30 19 1 7 20
M  V30 20 1 8 21
M  V30 21 1 8 22
M  V30 22 1 9 23
M  V30 23 1 9 24
M  V30 24 1 9 25
M  V30 END BOND
M  V30 END CTAB
M  END
>  <Structure No>
7645

>  <LogS>
-4.094

>  <MMFF94 Energy>
1.2308

$$$$
Compound 7646
Actelion Java MolfileCreator 2.0

  0  0  0  0  0  0              0 V3000
M  V30 BEGIN CTAB
M  V30 COUNTS 40 44 0 0 0
M  V30 BEGIN ATOM
M  V30 1 O -0.9081 -2.5609 2.4782 0
M  V30 2 C -0.304 -2.0597 1.4939 0
M  V30 3 O -0.2904 -2.6215 0.2183 0
M  V30 4 C 0.4927 -0.801 1.5133 0 CFG=1
M  V30 5 C 0.5184 -1.8098 -0.6372 0 CFG=2
M  V30 6 C 1.53 -1.2391 0.408 0 CFG=2
M  V30 7 C -0.3663 0.4194 0.9888 0 CFG=1
M  V30 8 C -0.3627 -0.6637 -1.3142 0 CFG=2
M  V30 9 O 2.3018 -2.3025 0.9327 0
M  V30 10 C 2.5452 -0.1952 -0.0874 0
M  V30 11 O 0.5942 1.4153 0.658 0
M  V30 12 C -1.2893 0.0164 -0.2402 0 CFG=2
M  V30 13 C -1.2777 1.2225 1.9553 0 CFG=2
M  V30 14 O -1.1376 -1.2002 -2.3561 0
M  V30 15 C 2.9335 -0.1382 -1.3738 0
M  V30 16 C 3.3493 0.595 0.9172 0
M  V30 17 C -1.9021 1.4101 -0.405 0 CFG=2
M  V30 18 C -2.5181 -0.9431 0.0758 0
M  V30 19 O -2.6895 1.1243 1.8915 0
M  V30 20 C -2.1108 2.0303 0.9872 0 CFG=1
M  V30 21 O -2.9847 1.5438 -1.2944 0
M  V30 22 C -1.7955 2.2336 -1.6271 0
M  V30 23 H 0.9602 -0.6102 2.5027 0
M  V30 24 H 1.0157 -2.4409 -1.4044 0
M  V30 25 H 0.3043 0.1012 -1.759 0
M  V30 26 H 2.7982 -2.7199 0.1799 0
M  V30 27 H 0.5655 1.6763 -0.2952 0
M  V30 28 H -0.8625 1.8588 2.766 0
M  V30 29 H -0.5103 -1.4394 -3.0875 0
M  V30 30 H 2.4998 -0.7751 -2.1353 0
M  V30 31 H 3.7181 0.5452 -1.6853 0
M  V30 32 H 3.2493 1.6821 0.7135 0
M  V30 33 H 4.4217 0.3144 0.8469 0
M  V30 34 H 3.0128 0.3966 1.9546 0
M  V30 35 H -3.4895 -0.5448 -0.2823 0
M  V30 36 H -2.6558 -1.1344 1.157 0
M  V30 37 H -2.4531 -1.931 -0.4207 0
M  V30 38 H -2.2798 3.1045 1.2113 0
M  V30 39 H -1.9208 3.3292 -1.5014 0
M  V30 40 H -1.3098 1.7778 -2.5136 0
M  V30 END ATOM
M  V30 BEGIN BOND
M  V30 1 2 1 2
M  V30 2 1 2 3
M  V30 3 1 2 4
M  V30 4 1 3 5
M  V30 5 1 4 6
M  V30 6 1 4 7
M  V30 7 1 5 8
M  V30 8 1 6 9
M  V30 9 1 6 10
M  V30 10 1 7 11
M  V30 11 1 7 12
M  V30 12 1 7 13
M  V30 13 1 8 14
M  V30 14 2 10 15
M  V30 15 1 10 16
M  V30 16 1 12 17
M  V30 17 1 12 18
M  V30 18 1 13 19
M  V30 19 1 13 20
M  V30 20 1 17 21
M  V30 21 1 17 22
M  V30 22 1 5 6
M  V30 23 1 8 12
M  V30 24 1 17 20
M  V30 25 1 19 20
M  V30 26 1 21 22
M  V30 27 1 4 23
M  V30 28 1 5 24
M  V30 29 1 8 25
M  V30 30 1 9 26
M  V30 31 1 11 27
M  V30 32 1 13 28
M  V30 33 1 14 29
M  V30 34 1 15 30
M  V30 35 1 15 31
M  V30 36 1 16 32
M  V30 37 1 16 33
M  V30 38 1 16 34
M  V30 39 1 18 35
M  V30 40 1 18 36
M  V30 41 1 18 37
M  V30 42 1 20 38
M  V30 43 1 22 39
M  V30 44 1 22 40
M  V30 END BOND
M  V30 BEGIN COLLECTION
M  V30 MDLV30/STEABS ATOMS=(9 4 5 6 7 8 12 13 17 20)
M  V30 END COLLECTION
M  V30 END CTAB
M  END
>  <Structure No>
7646

>  <LogS>
-1.42

>  <MMFF94 Energy>
118.18

$$$$
Compound 7647
Actelion Java MolfileCreator 2.0

  0  0  0  0  0  0              0 V3000
M  V30 BEGIN CTAB
M  V30 COUNTS 30 29 0 0 0
M  V30 BEGIN ATOM
M  V30 1 O -1.2352 1.3124 1.3124 0
M  V30 2 C -1.2263 -0.0254 0.8832 0 CFG=2
M  V30 3 C 0.2207 -0.5016 0.6286 0
M  V30 4 C -2.1179 -0.1759 -0.3634 0
M  V30 5 C 0.9892 0.3784 -0.3755 0
M  V30 6 C -3.5996 0.0363 -0.0232 0
M  V30 7 C 2.4278 -0.1119 -0.6072 0
M  V30 8 C -4.4772 -0.1156 -1.2625 0
M  V30 9 C 3.356 0.1933 0.5779 0
M  V30 10 C 4.7984 -0.1888 0.2578 0
M  V30 11 H -0.8947 1.3171 2.2452 0
M  V30 12 H -1.6509 -0.6746 1.6854 0
M  V30 13 H 0.2027 -1.5524 0.2647 0
M  V30 14 H 0.7519 -0.4996 1.6033 0
M  V30 15 H -1.8167 0.5666 -1.1336 0
M  V30 16 H -1.9894 -1.1957 -0.7889 0
M  V30 17 H 0.4679 0.3514 -1.3554 0
M  V30 18 H 1.0053 1.4351 -0.0301 0
M  V30 19 H -3.9214 -0.7089 0.7366 0
M  V30 20 H -3.7484 1.0545 0.3975 0
M  V30 21 H 2.8232 0.4025 -1.5108 0
M  V30 22 H 2.4258 -1.2042 -0.8168 0
M  V30 23 H -4.1946 0.636 -2.0301 0
M  V30 24 H -4.3686 -1.1353 -1.6897 0
M  V30 25 H -5.5412 0.0418 -0.9863 0
M  V30 26 H 3.0346 -0.3774 1.4742 0
M  V30 27 H 3.3182 1.2784 0.8173 0
M  V30 28 H 5.1684 0.3932 -0.613 0
M  V30 29 H 4.8684 -1.274 0.0308 0
M  V30 30 H 5.445 0.0334 1.1329 0
M  V30 END ATOM
M  V30 BEGIN BOND
M  V30 1 1 1 2
M  V30 2 1 2 3
M  V30 3 1 2 4
M  V30 4 1 3 5
M  V30 5 1 4 6
M  V30 6 1 5 7
M  V30 7 1 6 8
M  V30 8 1 7 9
M  V30 9 1 9 10
M  V30 10 1 1 11
M  V30 11 1 2 12
M  V30 12 1 3 13
M  V30 13 1 3 14
M  V30 14 1 4 15
M  V30 15 1 4 16
M  V30 16 1 5 17
M  V30 17 1 5 18
M  V30 18 1 6 19
M  V30 19 1 6 20
M  V30 20 1 7 21
M  V30 21 1 7 22
M  V30 22 1 8 23
M  V30 23 1 8 24
M  V30 24 1 8 25
M  V30 25 1 9 26
M  V30 26 1 9 27
M  V30 27 1 10 28
M  V30 28 1 10 29
M  V30 29 1 10 30
M  V30 END BOND
M  V30 BEGIN COLLECTION
M  V30 MDLV30/STEABS ATOMS=(1 2)
M  V30 END COLLECTION
M  V30 END CTAB
M  END
>  <Structure No>
7647

>  <LogS>
-2.591

>  <MMFF94 Energy>
3.6921

$$$$
Compound 7648
Actelion Java MolfileCreator 2.0

  0  0  0  0  0  0              0 V3000
M  V30 BEGIN CTAB
M  V30 COUNTS 11 10 0 0 0
M  V30 BEGIN ATOM
M  V30 1 Cl -0.0821 0.9865 1.8914 0
M  V30 2 C -0.3337 0.1932 0.337 0
M  V30 3 C 0.6714 -0.2593 -0.4327 0
M  V30 4 C -1.7473 0.0244 -0.132 0
M  V30 5 C 2.1108 -0.169 -0.1125 0
M  V30 6 O 2.9474 -0.6366 -0.9284 0
M  V30 7 O 2.5727 0.4151 1.0601 0 CHG=-1
M  V30 8 H 0.4195 -0.7347 -1.3746 0
M  V30 9 H -1.9755 -1.0545 -0.2652 0
M  V30 10 H -1.8907 0.5521 -1.0989 0
M  V30 11 H -2.4591 0.4462 0.6085 0
M  V30 END ATOM
M  V30 BEGIN BOND
M  V30 1 1 1 2
M  V30 2 2 2 3
M  V30 3 1 2 4
M  V30 4 1 3 5
M  V30 5 2 5 6
M  V30 6 1 5 7
M  V30 7 1 3 8
M  V30 8 1 4 9
M  V30 9 1 4 10
M  V30 10 1 4 11
M  V30 END BOND
M  V30 END CTAB
M  END
>  <Structure No>
7648

>  <LogS>
-0.605

>  <MMFF94 Energy>
-10.465

$$$$
Compound 7649
Actelion Java MolfileCreator 2.0

  0  0  0  0  0  0              0 V3000
M  V30 BEGIN CTAB
M  V30 COUNTS 49 51 0 0 0
M  V30 BEGIN ATOM
M  V30 1 O 3.0582 -1.0454 -2.0112 0
M  V30 2 C 2.3968 -1.4122 -1.0034 0
M  V30 3 N 1.2946 -2.3146 -1.0528 0
M  V30 4 C 2.6465 -0.9922 0.3741 0
M  V30 5 C 0.8854 -2.4091 0.3084 0
M  V30 6 C 0.5169 -2.7 -2.227 0
M  V30 7 C 1.7676 -1.6125 1.1586 0
M  V30 8 C 3.7732 -0.1405 0.8827 0
M  V30 9 O -0.1074 -3.0762 0.705 0
M  V30 10 O -0.6423 -1.8787 -2.344 0
M  V30 11 C 1.67 -1.4046 2.642 0
M  V30 12 C 3.5026 0.3323 2.3238 0
M  V30 13 C -0.5931 -0.5227 -2.6799 0
M  V30 14 C 2.9778 -0.8184 3.204 0
M  V30 15 O 0.4878 0.0043 -3.0559 0
M  V30 16 C -1.8569 0.2895 -2.7228 0 CFG=1
M  V30 17 C -2.8357 0.2002 -1.5393 0
M  V30 18 C -1.9825 1.4654 -1.7306 0 CFG=1
M  V30 19 C -4.3148 0.3577 -1.9035 0
M  V30 20 C -2.5187 -0.7552 -0.3724 0
M  V30 21 C -0.8835 1.6946 -0.7128 0
M  V30 22 C -1.1041 2.3193 0.4608 0
M  V30 23 C 0.0439 2.4782 1.4224 0
M  V30 24 C -2.4696 2.8473 0.8293 0
M  V30 25 H 0.1932 -3.7562 -2.115 0
M  V30 26 H 1.1369 -2.6286 -3.1461 0
M  V30 27 H 3.9052 0.7411 0.2183 0
M  V30 28 H 4.7071 -0.7426 0.8618 0
M  V30 29 H 1.4549 -2.3732 3.1408 0
M  V30 30 H 0.8294 -0.7094 2.8502 0
M  V30 31 H 2.7575 1.157 2.3107 0
M  V30 32 H 4.4411 0.7331 2.7619 0
M  V30 33 H 3.7474 -1.6196 3.2559 0
M  V30 34 H 2.8015 -0.4474 4.237 0
M  V30 35 H -2.3074 0.4821 -3.7199 0
M  V30 36 H -2.5042 2.3547 -2.1446 0
M  V30 37 H -4.463 1.0183 -2.7845 0
M  V30 38 H -4.7483 -0.6379 -2.1322 0
M  V30 39 H -4.8605 0.7958 -1.0426 0
M  V30 40 H -3.1413 -0.4851 0.507 0
M  V30 41 H -1.4546 -0.7322 -0.0626 0
M  V30 42 H -2.7731 -1.7929 -0.6734 0
M  V30 43 H 0.1234 1.3584 -0.9374 0
M  V30 44 H 0.8671 3.046 0.9383 0
M  V30 45 H -0.2585 3.018 2.3432 0
M  V30 46 H 0.4154 1.4752 1.7149 0
M  V30 47 H -3.1878 2.0094 0.9116 0
M  V30 48 H -2.8253 3.5593 0.0579 0
M  V30 49 H -2.4514 3.3804 1.7998 0
M  V30 END ATOM
M  V30 BEGIN BOND
M  V30 1 2 1 2
M  V30 2 1 2 3
M  V30 3 1 2 4
M  V30 4 1 3 5
M  V30 5 1 3 6
M  V30 6 2 4 7
M  V30 7 1 4 8
M  V30 8 2 5 9
M  V30 9 1 6 10
M  V30 10 1 7 11
M  V30 11 1 8 12
M  V30 12 1 10 13
M  V30 13 1 11 14
M  V30 14 2 13 15
M  V30 15 1 13 16
M  V30 16 1 16 17
M  V30 17 1 16 18
M  V30 18 1 17 19
M  V30 19 1 17 20
M  V30 20 1 18 21
M  V30 21 2 21 22
M  V30 22 1 22 23
M  V30 23 1 22 24
M  V30 24 1 5 7
M  V30 25 1 12 14
M  V30 26 1 17 18
M  V30 27 1 6 25
M  V30 28 1 6 26
M  V30 29 1 8 27
M  V30 30 1 8 28
M  V30 31 1 11 29
M  V30 32 1 11 30
M  V30 33 1 12 31
M  V30 34 1 12 32
M  V30 35 1 14 33
M  V30 36 1 14 34
M  V30 37 1 16 35
M  V30 38 1 18 36
M  V30 39 1 19 37
M  V30 40 1 19 38
M  V30 41 1 19 39
M  V30 42 1 20 40
M  V30 43 1 20 41
M  V30 44 1 20 42
M  V30 45 1 21 43
M  V30 46 1 23 44
M  V30 47 1 23 45
M  V30 48 1 23 46
M  V30 49 1 24 47
M  V30 50 1 24 48
M  V30 51 1 24 49
M  V30 END BOND
M  V30 BEGIN COLLECTION
M  V30 MDLV30/STEABS ATOMS=(2 16 18)
M  V30 END COLLECTION
M  V30 END CTAB
M  END
>  <Structure No>
7649

>  <LogS>
-4.858

>  <MMFF94 Energy>
-70.847

$$$$
Compound 7650
Actelion Java MolfileCreator 2.0

  0  0  0  0  0  0              0 V3000
M  V30 BEGIN CTAB
M  V30 COUNTS 18 17 0 0 0
M  V30 BEGIN ATOM
M  V30 1 O -1.044 2.4104 -0.6423 0
M  V30 2 C -1.0967 1.732 0.4183 0
M  V30 3 O -1.4032 2.3634 1.6173 0 CHG=-1
M  V30 4 C -0.7825 0.2579 0.4073 0 CFG=2
M  V30 5 C 0.7544 0.0207 0.4344 0 CFG=2
M  V30 6 C -1.5049 -0.4417 -0.7573 0
M  V30 7 C 1.44 0.4779 -0.8295 0
M  V30 8 C 1.1114 -1.44 0.7468 0
M  V30 9 O 1.9546 1.626 -0.886 0
M  V30 10 O 1.4863 -0.3448 -1.9494 0 CHG=-1
M  V30 11 H -1.2052 -0.166 1.3455 0
M  V30 12 H 1.167 0.6208 1.2777 0
M  V30 13 H -1.1452 -0.0687 -1.739 0
M  V30 14 H -1.3571 -1.5398 -0.7098 0
M  V30 15 H -2.5973 -0.2489 -0.6918 0
M  V30 16 H 0.6226 -1.7623 1.6908 0
M  V30 17 H 0.7954 -2.1205 -0.0707 0
M  V30 18 H 2.2103 -1.5399 0.878 0
M  V30 END ATOM
M  V30 BEGIN BOND
M  V30 1 2 1 2
M  V30 2 1 2 3
M  V30 3 1 2 4
M  V30 4 1 4 5
M  V30 5 1 4 6
M  V30 6 1 5 7
M  V30 7 1 5 8
M  V30 8 2 7 9
M  V30 9 1 7 10
M  V30 10 1 4 11
M  V30 11 1 5 12
M  V30 12 1 6 13
M  V30 13 1 6 14
M  V30 14 1 6 15
M  V30 15 1 8 16
M  V30 16 1 8 17
M  V30 17 1 8 18
M  V30 END BOND
M  V30 BEGIN COLLECTION
M  V30 MDLV30/STEABS ATOMS=(2 4 5)
M  V30 END COLLECTION
M  V30 END CTAB
M  END
>  <Structure No>
7650

>  <LogS>
-0.688

>  <MMFF94 Energy>
71.789

$$$$
Compound 7651
Actelion Java MolfileCreator 2.0

  0  0  0  0  0  0              0 V3000
M  V30 BEGIN CTAB
M  V30 COUNTS 38 39 0 0 0
M  V30 BEGIN ATOM
M  V30 1 O -0.7954 -1.0342 -0.159 0
M  V30 2 C -1.2004 -0.0935 -0.8956 0
M  V30 3 O -0.3831 0.4217 -1.91 0
M  V30 4 N -2.5125 0.4567 -0.7171 0
M  V30 5 C 0.9989 0.21 -2.0258 0
M  V30 6 C -3.5143 -0.0997 0.1515 0
M  V30 7 C 1.8285 0.0268 -0.903 0
M  V30 8 C 1.5697 0.2235 -3.303 0
M  V30 9 C -4.406 0.7602 0.8117 0
M  V30 10 C -3.6632 -1.4898 0.3037 0
M  V30 11 C 3.2114 -0.1582 -1.0582 0
M  V30 12 C 2.9406 0.0151 -3.4672 0
M  V30 13 C -5.403 0.2461 1.6559 0
M  V30 14 C -4.6668 -2.005 1.1282 0
M  V30 15 N 4.0285 -0.3678 0.1065 0
M  V30 16 C 3.7585 -0.1864 -2.3531 0
M  V30 17 C -5.5352 -1.1424 1.8012 0
M  V30 18 C -6.367 1.1718 2.3372 0
M  V30 19 C 5.384 0.0812 0.2356 0
M  V30 20 O 5.8821 0.8731 -0.6113 0
M  V30 21 O 6.136 -0.3357 1.3374 0
M  V30 22 C 7.4813 0.0761 1.5481 0
M  V30 23 H -2.712 1.3725 -1.1793 0
M  V30 24 H 1.4145 0.0675 0.0953 0
M  V30 25 H 0.9444 0.3786 -4.173 0
M  V30 26 H -4.3149 1.8313 0.6754 0
M  V30 27 H -3.0281 -2.1786 -0.2365 0
M  V30 28 H 3.369 0.0018 -4.4611 0
M  V30 29 H -4.7799 -3.076 1.2358 0
M  V30 30 H 3.5865 -0.7991 0.9498 0
M  V30 31 H 4.8111 -0.382 -2.5073 0
M  V30 32 H -6.3149 -1.5572 2.4284 0
M  V30 33 H -6.7282 0.7301 3.2904 0
M  V30 34 H -7.2357 1.3555 1.6711 0
M  V30 35 H -5.8788 2.1416 2.5722 0
M  V30 36 H 8.117 -0.2524 0.6989 0
M  V30 37 H 7.8619 -0.3857 2.4822 0
M  V30 38 H 7.5294 1.1812 1.6477 0
M  V30 END ATOM
M  V30 BEGIN BOND
M  V30 1 2 1 2
M  V30 2 1 2 3
M  V30 3 1 2 4
M  V30 4 1 3 5
M  V30 5 1 4 6
M  V30 6 2 5 7
M  V30 7 1 5 8
M  V30 8 2 6 9
M  V30 9 1 6 10
M  V30 10 1 7 11
M  V30 11 2 8 12
M  V30 12 1 9 13
M  V30 13 2 10 14
M  V30 14 1 11 15
M  V30 15 2 11 16
M  V30 16 2 13 17
M  V30 17 1 13 18
M  V30 18 1 15 19
M  V30 19 2 19 20
M  V30 20 1 19 21
M  V30 21 1 21 22
M  V30 22 1 12 16
M  V30 23 1 14 17
M  V30 24 1 4 23
M  V30 25 1 7 24
M  V30 26 1 8 25
M  V30 27 1 9 26
M  V30 28 1 10 27
M  V30 29 1 12 28
M  V30 30 1 14 29
M  V30 31 1 15 30
M  V30 32 1 16 31
M  V30 33 1 17 32
M  V30 34 1 18 33
M  V30 35 1 18 34
M  V30 36 1 18 35
M  V30 37 1 22 36
M  V30 38 1 22 37
M  V30 39 1 22 38
M  V30 END BOND
M  V30 END CTAB
M  END
>  <Structure No>
7651

>  <LogS>
-4.779

>  <MMFF94 Energy>
-40.38

$$$$
Compound 7652
Actelion Java MolfileCreator 2.0

  0  0  0  0  0  0              0 V3000
M  V30 BEGIN CTAB
M  V30 COUNTS 30 29 0 0 0
M  V30 BEGIN ATOM
M  V30 1 O -1.4715 -0.5419 2.2467 0
M  V30 2 C -1.5534 0.344 1.1594 0
M  V30 3 C -0.3157 0.2171 0.2134 0
M  V30 4 C 0.9517 0.53 1.0849 0
M  V30 5 C -0.1873 -1.2427 -0.3385 0
M  V30 6 C -0.3881 1.265 -0.9607 0
M  V30 7 C 2.3141 0.4884 0.3461 0
M  V30 8 C -1.3563 -1.7448 -1.1897 0
M  V30 9 C -1.7877 1.6637 -1.4503 0
M  V30 10 C 3.1403 -0.7437 0.7158 0
M  V30 11 H -1.9187 -1.3838 1.9708 0
M  V30 12 H -2.5125 0.1878 0.619 0
M  V30 13 H -1.5983 1.3777 1.5653 0
M  V30 14 H 0.8363 1.5486 1.5193 0
M  V30 15 H 0.9875 -0.1541 1.9615 0
M  V30 16 H -0.0489 -1.9499 0.5078 0
M  V30 17 H 0.7213 -1.3278 -0.9701 0
M  V30 18 H 0.1796 0.888 -1.8386 0
M  V30 19 H 0.1108 2.2112 -0.6556 0
M  V30 20 H 2.1947 0.5244 -0.755 0
M  V30 21 H 2.904 1.3874 0.6294 0
M  V30 22 H -1.4022 -1.1972 -2.1525 0
M  V30 23 H -2.3221 -1.6652 -0.6532 0
M  V30 24 H -1.1935 -2.817 -1.4288 0
M  V30 25 H -1.6914 2.2936 -2.3597 0
M  V30 26 H -2.4056 0.7828 -1.7079 0
M  V30 27 H -2.3124 2.2658 -0.6792 0
M  V30 28 H 2.5927 -1.6764 0.4699 0
M  V30 29 H 3.375 -0.7364 1.8015 0
M  V30 30 H 4.0951 -0.7343 0.1493 0
M  V30 END ATOM
M  V30 BEGIN BOND
M  V30 1 1 1 2
M  V30 2 1 2 3
M  V30 3 1 3 4
M  V30 4 1 3 5
M  V30 5 1 3 6
M  V30 6 1 4 7
M  V30 7 1 5 8
M  V30 8 1 6 9
M  V30 9 1 7 10
M  V30 10 1 1 11
M  V30 11 1 2 12
M  V30 12 1 2 13
M  V30 13 1 4 14
M  V30 14 1 4 15
M  V30 15 1 5 16
M  V30 16 1 5 17
M  V30 17 1 6 18
M  V30 18 1 6 19
M  V30 19 1 7 20
M  V30 20 1 7 21
M  V30 21 1 8 22
M  V30 22 1 8 23
M  V30 23 1 8 24
M  V30 24 1 9 25
M  V30 25 1 9 26
M  V30 26 1 9 27
M  V30 27 1 10 28
M  V30 28 1 10 29
M  V30 29 1 10 30
M  V30 END BOND
M  V30 END CTAB
M  END
>  <Structure No>
7652

>  <LogS>
-2.419

>  <MMFF94 Energy>
18.811

$$$$
Compound 7653
Actelion Java MolfileCreator 2.0

  0  0  0  0  0  0              0 V3000
M  V30 BEGIN CTAB
M  V30 COUNTS 54 59 0 0 0
M  V30 BEGIN ATOM
M  V30 1 O 0.3243 -0.8922 -2.1912 0
M  V30 2 C 0.5176 0.2509 -1.432 0
M  V30 3 C -1.012 -1.3851 -2.025 0 CFG=2
M  V30 4 C 1.7209 0.9249 -1.2221 0
M  V30 5 C -0.6141 0.5934 -0.7533 0
M  V30 6 C -1.6969 -0.367 -1.0449 0 CFG=2
M  V30 7 C -1.0331 -2.8376 -1.4803 0 CFG=2
M  V30 8 O 2.8429 0.5722 -1.9871 0
M  V30 9 C 1.7483 1.9165 -0.2088 0
M  V30 10 C -0.5664 1.4056 0.3829 0
M  V30 11 C -2.0848 -0.9726 0.3188 0 CFG=2
M  V30 12 C -2.9028 0.3255 -1.7368 0
M  V30 13 O -0.8283 -3.7395 -2.5352 0
M  V30 14 C -2.3614 -3.1268 -0.7873 0
M  V30 15 C 4.1661 1.0642 -1.7744 0
M  V30 16 C 0.6215 2.1224 0.6175 0
M  V30 17 C -1.6521 1.2809 1.4503 0
M  V30 18 C -2.8691 -2.2353 0.0858 0
M  V30 19 C -2.734 0.1569 1.1673 0 CFG=1
M  V30 20 C -3.6463 1.302 -0.8131 0
M  V30 21 C 4.7391 0.5173 -0.4936 0
M  V30 22 N -3.9564 0.6747 0.4883 0 CHG=1 CFG=2
M  V30 23 C 4.7256 -0.8662 -0.2504 0
M  V30 24 C 5.3154 1.3775 0.4564 0
M  V30 25 C -4.733 1.5957 1.3414 0
M  V30 26 C 5.2619 -1.3786 0.9349 0
M  V30 27 C 5.8506 0.8609 1.6406 0
M  V30 28 C 5.8224 -0.5155 1.8806 0
M  V30 29 H -1.512 -1.3718 -3.0198 0
M  V30 30 H -0.2144 -2.9441 -0.7306 0
M  V30 31 H 2.6491 2.4747 1.0E-4 0
M  V30 32 H -1.1664 -1.2997 0.8645 0
M  V30 33 H -2.5606 0.8752 -2.6416 0
M  V30 34 H -3.6229 -0.4523 -2.0743 0
M  V30 35 H -0.5896 -4.611 -2.1233 0
M  V30 36 H -2.9163 -4.0311 -1.0179 0
M  V30 37 H 4.1638 2.1758 -1.7892 0
M  V30 38 H 4.8064 0.7269 -2.616 0
M  V30 39 H 0.6989 2.782 1.4726 0
M  V30 40 H -1.1433 1.0147 2.4023 0
M  V30 41 H -2.1063 2.2755 1.6174 0
M  V30 42 H -3.8233 -2.4131 0.5716 0
M  V30 43 H -3.0266 -0.2918 2.1445 0
M  V30 44 H -3.0408 2.2254 -0.6799 0
M  V30 45 H -4.5895 1.6069 -1.3204 0
M  V30 46 H -4.5915 -0.138 0.3028 0
M  V30 47 H 4.2966 -1.5458 -0.9765 0
M  V30 48 H 5.3466 2.4462 0.2841 0
M  V30 49 H -4.85 1.1832 2.3674 0
M  V30 50 H -5.7541 1.7322 0.9213 0
M  V30 51 H -4.2665 2.6009 1.4055 0
M  V30 52 H 5.244 -2.4449 1.1198 0
M  V30 53 H 6.2884 1.528 2.372 0
M  V30 54 H 6.2372 -0.9136 2.7977 0
M  V30 END ATOM
M  V30 BEGIN BOND
M  V30 1 1 1 2
M  V30 2 1 1 3
M  V30 3 2 2 4
M  V30 4 1 2 5
M  V30 5 1 3 6
M  V30 6 1 3 7
M  V30 7 1 4 8
M  V30 8 1 4 9
M  V30 9 2 5 10
M  V30 10 1 6 11
M  V30 11 1 6 12
M  V30 12 1 7 13
M  V30 13 1 7 14
M  V30 14 1 8 15
M  V30 15 2 9 16
M  V30 16 1 10 17
M  V30 17 1 11 18
M  V30 18 1 11 19
M  V30 19 1 12 20
M  V30 20 1 15 21
M  V30 21 1 19 22
M  V30 22 2 21 23
M  V30 23 1 21 24
M  V30 24 1 22 25
M  V30 25 1 23 26
M  V30 26 2 24 27
M  V30 27 2 26 28
M  V30 28 1 5 6
M  V30 29 1 10 16
M  V30 30 2 14 18
M  V30 31 1 17 19
M  V30 32 1 20 22
M  V30 33 1 27 28
M  V30 34 1 3 29
M  V30 35 1 7 30
M  V30 36 1 9 31
M  V30 37 1 11 32
M  V30 38 1 12 33
M  V30 39 1 12 34
M  V30 40 1 13 35
M  V30 41 1 14 36
M  V30 42 1 15 37
M  V30 43 1 15 38
M  V30 44 1 16 39
M  V30 45 1 17 40
M  V30 46 1 17 41
M  V30 47 1 18 42
M  V30 48 1 19 43
M  V30 49 1 20 44
M  V30 50 1 20 45
M  V30 51 1 22 46
M  V30 52 1 23 47
M  V30 53 1 24 48
M  V30 54 1 25 49
M  V30 55 1 25 50
M  V30 56 1 25 51
M  V30 57 1 26 52
M  V30 58 1 27 53
M  V30 59 1 28 54
M  V30 END BOND
M  V30 BEGIN COLLECTION
M  V30 MDLV30/STEABS ATOMS=(6 3 6 7 11 19 22)
M  V30 END COLLECTION
M  V30 END CTAB
M  END
>  <Structure No>
7653

>  <LogS>
-2.973

>  <MMFF94 Energy>
146.44

$$$$
Compound 7654
Actelion Java MolfileCreator 2.0

  0  0  0  0  0  0              0 V3000
M  V30 BEGIN CTAB
M  V30 COUNTS 28 29 0 0 0
M  V30 BEGIN ATOM
M  V30 1 Cl 4.803 -0.6731 -1.8518 0
M  V30 2 C 4.149 0.1182 -0.3933 0
M  V30 3 Cl 4.8142 -0.6974 1.048 0
M  V30 4 Cl 4.69 1.8176 -0.3898 0
M  V30 5 C 2.6163 0.0511 -0.3969 0 CFG=1
M  V30 6 O 2.1921 -1.2915 -0.4352 0
M  V30 7 O 2.1021 0.7087 0.7383 0
M  V30 8 C 1.0783 -1.3574 0.3985 0 CFG=1
M  V30 9 C 1.044 -0.0828 1.1845 0 CFG=2
M  V30 10 O -0.0911 -1.472 -0.3791 0
M  V30 11 C -0.2915 0.542 0.8479 0 CFG=1
M  V30 12 C -1.0472 -0.6086 0.1889 0 CFG=1
M  V30 13 O -0.9559 0.9714 2.0075 0
M  V30 14 C -2.0312 -0.1381 -0.908 0 CFG=1
M  V30 15 O -2.5631 -1.2465 -1.5909 0
M  V30 16 C -3.1694 0.731 -0.339 0
M  V30 17 O -4.0833 1.0645 -1.3485 0
M  V30 18 H 2.2383 0.5686 -1.3074 0
M  V30 19 H 1.1692 -2.2391 1.0699 0
M  V30 20 H 1.1526 -0.2844 2.2738 0
M  V30 21 H -0.1614 1.3889 0.1321 0
M  V30 22 H -1.6115 -1.1801 0.9625 0
M  V30 23 H -0.5138 1.8147 2.2877 0
M  V30 24 H -1.4677 0.47 -1.6493 0
M  V30 25 H -3.0674 -1.7915 -0.9311 0
M  V30 26 H -2.7613 1.6594 0.1198 0
M  V30 27 H -3.7091 0.1707 0.4541 0
M  V30 28 H -3.6475 1.7597 -1.9075 0
M  V30 END ATOM
M  V30 BEGIN BOND
M  V30 1 1 1 2
M  V30 2 1 2 3
M  V30 3 1 2 4
M  V30 4 1 2 5
M  V30 5 1 5 6
M  V30 6 1 5 7
M  V30 7 1 6 8
M  V30 8 1 7 9
M  V30 9 1 8 10
M  V30 10 1 9 11
M  V30 11 1 10 12
M  V30 12 1 11 13
M  V30 13 1 12 14
M  V30 14 1 14 15
M  V30 15 1 14 16
M  V30 16 1 16 17
M  V30 17 1 8 9
M  V30 18 1 11 12
M  V30 19 1 5 18
M  V30 20 1 8 19
M  V30 21 1 9 20
M  V30 22 1 11 21
M  V30 23 1 12 22
M  V30 24 1 13 23
M  V30 25 1 14 24
M  V30 26 1 15 25
M  V30 27 1 16 26
M  V30 28 1 16 27
M  V30 29 1 17 28
M  V30 END BOND
M  V30 BEGIN COLLECTION
M  V30 MDLV30/STEABS ATOMS=(6 5 8 9 11 12 14)
M  V30 END COLLECTION
M  V30 END CTAB
M  END
>  <Structure No>
7654

>  <LogS>
-1.843

>  <MMFF94 Energy>
140.69

$$$$
Compound 7655
Actelion Java MolfileCreator 2.0

  0  0  0  0  0  0              0 V3000
M  V30 BEGIN CTAB
M  V30 COUNTS 47 47 0 0 0
M  V30 BEGIN ATOM
M  V30 1 Cl -0.3171 3.8112 0.2378 0
M  V30 2 C -0.9559 2.8024 1.558 0
M  V30 3 C -1.6184 1.5834 0.9851 0
M  V30 4 O -2.854 1.6405 0.738 0
M  V30 5 N -0.8784 0.3875 0.6529 0
M  V30 6 C -1.5184 -0.6443 -0.1209 0
M  V30 7 C 0.5115 0.1827 1.0793 0
M  V30 8 C -1.5236 -0.575 -1.5372 0
M  V30 9 C -2.1206 -1.7508 0.5295 0
M  V30 10 O 1.3531 1.0907 0.3995 0
M  V30 11 C -2.1478 -1.5934 -2.2746 0
M  V30 12 C -0.8975 0.5774 -2.2896 0
M  V30 13 C -2.7378 -2.7501 -0.2388 0
M  V30 14 C -2.1602 -1.8725 2.0362 0
M  V30 15 C 2.7142 0.7708 0.6123 0
M  V30 16 C -2.7494 -2.671 -1.6292 0
M  V30 17 C -1.9546 1.5797 -2.7432 0
M  V30 18 C -3.4957 -1.3873 2.5912 0
M  V30 19 C 3.2515 -0.0304 -0.5802 0
M  V30 20 C 4.7042 -0.4887 -0.3818 0
M  V30 21 C 5.7018 0.6676 -0.439 0
M  V30 22 H -0.1365 2.5354 2.254 0
M  V30 23 H -1.6982 3.3989 2.1297 0
M  V30 24 H 0.5837 0.3387 2.1783 0
M  V30 25 H 0.8116 -0.8718 0.8726 0
M  V30 26 H -2.1688 -1.5509 -3.3567 0
M  V30 27 H -0.1415 1.1043 -1.6758 0
M  V30 28 H -0.3621 0.189 -3.183 0
M  V30 29 H -3.215 -3.5947 0.2433 0
M  V30 30 H -2.0144 -2.9355 2.3274 0
M  V30 31 H -1.3397 -1.3009 2.5146 0
M  V30 32 H 2.8985 0.2243 1.5686 0
M  V30 33 H 3.2711 1.7276 0.6838 0
M  V30 34 H -3.2286 -3.4486 -2.2099 0
M  V30 35 H -2.6892 1.0906 -3.4175 0
M  V30 36 H -2.4889 2.0045 -1.8689 0
M  V30 37 H -1.4656 2.4099 -3.295 0
M  V30 38 H -3.5032 -1.5039 3.6955 0
M  V30 39 H -3.6507 -0.316 2.3489 0
M  V30 40 H -4.3316 -1.983 2.1666 0
M  V30 41 H 3.1679 0.5782 -1.507 0
M  V30 42 H 2.6209 -0.9346 -0.7192 0
M  V30 43 H 4.8078 -1.0231 0.5874 0
M  V30 44 H 4.9582 -1.2076 -1.1904 0
M  V30 45 H 5.5702 1.3439 0.4309 0
M  V30 46 H 6.7357 0.2641 -0.4088 0
M  V30 47 H 5.5752 1.2445 -1.3796 0
M  V30 END ATOM
M  V30 BEGIN BOND
M  V30 1 1 1 2
M  V30 2 1 2 3
M  V30 3 2 3 4
M  V30 4 1 3 5
M  V30 5 1 5 6
M  V30 6 1 5 7
M  V30 7 2 6 8
M  V30 8 1 6 9
M  V30 9 1 7 10
M  V30 10 1 8 11
M  V30 11 1 8 12
M  V30 12 2 9 13
M  V30 13 1 9 14
M  V30 14 1 10 15
M  V30 15 2 11 16
M  V30 16 1 12 17
M  V30 17 1 14 18
M  V30 18 1 15 19
M  V30 19 1 19 20
M  V30 20 1 20 21
M  V30 21 1 13 16
M  V30 22 1 2 22
M  V30 23 1 2 23
M  V30 24 1 7 24
M  V30 25 1 7 25
M  V30 26 1 11 26
M  V30 27 1 12 27
M  V30 28 1 12 28
M  V30 29 1 13 29
M  V30 30 1 14 30
M  V30 31 1 14 31
M  V30 32 1 15 32
M  V30 33 1 15 33
M  V30 34 1 16 34
M  V30 35 1 17 35
M  V30 36 1 17 36
M  V30 37 1 17 37
M  V30 38 1 18 38
M  V30 39 1 18 39
M  V30 40 1 18 40
M  V30 41 1 19 41
M  V30 42 1 19 42
M  V30 43 1 20 43
M  V30 44 1 20 44
M  V30 45 1 21 45
M  V30 46 1 21 46
M  V30 47 1 21 47
M  V30 END BOND
M  V30 END CTAB
M  END
>  <Structure No>
7655

>  <LogS>
-4.193

>  <MMFF94 Energy>
30.394

$$$$
Compound 7656
Actelion Java MolfileCreator 2.0

  0  0  0  0  0  0              0 V3000
M  V30 BEGIN CTAB
M  V30 COUNTS 34 34 0 0 0
M  V30 BEGIN ATOM
M  V30 1 O -0.391 -1.8779 -0.9386 0
M  V30 2 C 0.1799 -1.0846 -0.141 0
M  V30 3 N 1.5329 -1.1343 -0.0065 0
M  V30 4 C -0.575 -0.1575 0.6028 0
M  V30 5 C 2.1875 -0.284 0.8353 0
M  V30 6 C 0.1262 0.721 1.4577 0
M  V30 7 C -2.0794 -0.0828 0.4295 0
M  V30 8 N 1.4773 0.6227 1.5532 0
M  V30 9 N 3.6166 -0.3259 0.9931 0
M  V30 10 C -0.571 1.7542 2.2945 0
M  V30 11 C -2.4424 0.818 -0.7601 0
M  V30 12 C 4.522 -1.1397 0.1826 0
M  V30 13 C -3.9557 1.0499 -0.8858 0
M  V30 14 C 4.6598 -0.5584 -1.221 0
M  V30 15 C -4.7105 -0.2029 -1.3285 0
M  V30 16 H 2.0569 -1.8453 -0.5614 0
M  V30 17 H -2.5655 0.2937 1.3536 0
M  V30 18 H -2.4824 -1.1046 0.2657 0
M  V30 19 H 4.0408 0.2649 1.7438 0
M  V30 20 H -1.1808 1.256 3.0769 0
M  V30 21 H -1.2222 2.3912 1.6607 0
M  V30 22 H 0.1696 2.4126 2.7962 0
M  V30 23 H -2.0505 0.3767 -1.7027 0
M  V30 24 H -1.954 1.8079 -0.6278 0
M  V30 25 H 4.1721 -2.1925 0.1439 0
M  V30 26 H 5.5272 -1.1456 0.6572 0
M  V30 27 H -4.1268 1.8451 -1.6435 0
M  V30 28 H -4.369 1.4128 0.0802 0
M  V30 29 H 5.37 -1.1751 -1.8107 0
M  V30 30 H 5.0497 0.4799 -1.1644 0
M  V30 31 H 3.6812 -0.5477 -1.7435 0
M  V30 32 H -4.2744 -0.6089 -2.2659 0
M  V30 33 H -4.679 -0.9808 -0.5379 0
M  V30 34 H -5.7741 0.0547 -1.5167 0
M  V30 END ATOM
M  V30 BEGIN BOND
M  V30 1 2 1 2
M  V30 2 1 2 3
M  V30 3 1 2 4
M  V30 4 1 3 5
M  V30 5 2 4 6
M  V30 6 1 4 7
M  V30 7 2 5 8
M  V30 8 1 5 9
M  V30 9 1 6 10
M  V30 10 1 7 11
M  V30 11 1 9 12
M  V30 12 1 11 13
M  V30 13 1 12 14
M  V30 14 1 13 15
M  V30 15 1 6 8
M  V30 16 1 3 16
M  V30 17 1 7 17
M  V30 18 1 7 18
M  V30 19 1 9 19
M  V30 20 1 10 20
M  V30 21 1 10 21
M  V30 22 1 10 22
M  V30 23 1 11 23
M  V30 24 1 11 24
M  V30 25 1 12 25
M  V30 26 1 12 26
M  V30 27 1 13 27
M  V30 28 1 13 28
M  V30 29 1 14 29
M  V30 30 1 14 30
M  V30 31 1 14 31
M  V30 32 1 15 32
M  V30 33 1 15 33
M  V30 34 1 15 34
M  V30 END BOND
M  V30 END CTAB
M  END
>  <Structure No>
7656

>  <LogS>
-3.02

>  <MMFF94 Energy>
-119.31

$$$$
Compound 7657
Actelion Java MolfileCreator 2.0

  0  0  0  0  0  0              0 V3000
M  V30 BEGIN CTAB
M  V30 COUNTS 35 35 0 0 0
M  V30 BEGIN ATOM
M  V30 1 O -1.7247 3.3732 0.862 0
M  V30 2 C -1.0656 2.1573 0.665 0
M  V30 3 C -3.1275 3.5257 0.6792 0
M  V30 4 N 0.2754 2.0866 0.8581 0
M  V30 5 N -1.7499 1.0468 0.2829 0
M  V30 6 C 0.937 0.9152 0.6723 0
M  V30 7 C -1.0965 -0.1291 0.0948 0
M  V30 8 N 0.2449 -0.1895 0.2908 0
M  V30 9 N 2.3576 0.8656 0.8811 0
M  V30 10 N -1.8096 -1.3033 -0.308 0
M  V30 11 C 3.2035 -0.3232 0.7003 0 CFG=2
M  V30 12 C -3.2551 -1.2842 -0.5311 0
M  V30 13 C 3.1937 -0.8249 -0.7578 0
M  V30 14 C 2.8087 -1.4335 1.6808 0
M  V30 15 C -3.7616 -2.6598 -0.9517 0
M  V30 16 C 3.6542 0.2525 -1.7384 0
M  V30 17 H -3.4113 4.5765 0.8945 0
M  V30 18 H -3.4027 3.2865 -0.3698 0
M  V30 19 H -3.6769 2.8551 1.3737 0
M  V30 20 H 2.8305 1.7486 1.1804 0
M  V30 21 H -1.2699 -2.1891 -0.4422 0
M  V30 22 H 4.2514 -0.0391 0.9479 0
M  V30 23 H -3.7703 -0.9784 0.4051 0
M  V30 24 H -3.4967 -0.549 -1.329 0
M  V30 25 H 2.183 -1.1765 -1.0518 0
M  V30 26 H 3.8838 -1.6923 -0.846 0
M  V30 27 H 2.7669 -1.0286 2.7144 0
M  V30 28 H 3.5659 -2.2462 1.6553 0
M  V30 29 H 1.8219 -1.8707 1.4254 0
M  V30 30 H -3.5444 -3.4058 -0.1578 0
M  V30 31 H -3.2702 -2.9753 -1.8966 0
M  V30 32 H -4.8592 -2.6198 -1.1149 0
M  V30 33 H 2.9459 1.1079 -1.7383 0
M  V30 34 H 4.6685 0.6146 -1.4669 0
M  V30 35 H 3.6915 -0.1711 -2.7641 0
M  V30 END ATOM
M  V30 BEGIN BOND
M  V30 1 1 1 2
M  V30 2 1 1 3
M  V30 3 2 2 4
M  V30 4 1 2 5
M  V30 5 1 4 6
M  V30 6 2 5 7
M  V30 7 2 6 8
M  V30 8 1 6 9
M  V30 9 1 7 10
M  V30 10 1 9 11
M  V30 11 1 10 12
M  V30 12 1 11 13
M  V30 13 1 11 14
M  V30 14 1 12 15
M  V30 15 1 13 16
M  V30 16 1 7 8
M  V30 17 1 3 17
M  V30 18 1 3 18
M  V30 19 1 3 19
M  V30 20 1 9 20
M  V30 21 1 10 21
M  V30 22 1 11 22
M  V30 23 1 12 23
M  V30 24 1 12 24
M  V30 25 1 13 25
M  V30 26 1 13 26
M  V30 27 1 14 27
M  V30 28 1 14 28
M  V30 29 1 14 29
M  V30 30 1 15 30
M  V30 31 1 15 31
M  V30 32 1 15 32
M  V30 33 1 16 33
M  V30 34 1 16 34
M  V30 35 1 16 35
M  V30 END BOND
M  V30 BEGIN COLLECTION
M  V30 MDLV30/STEABS ATOMS=(1 11)
M  V30 END COLLECTION
M  V30 END CTAB
M  END
>  <Structure No>
7657

>  <LogS>
-2.575

>  <MMFF94 Energy>
-241.45

$$$$
Compound 7658
Actelion Java MolfileCreator 2.0

  0  0  0  0  0  0              0 V3000
M  V30 BEGIN CTAB
M  V30 COUNTS 9 8 0 0 0
M  V30 BEGIN ATOM
M  V30 1 Cl -0.3369 2.2761 0.0 0
M  V30 2 C 0.0859 0.568 -0.0131 0
M  V30 3 C 1.3406 0.2113 -0.3253 0
M  V30 4 C -0.9698 -0.4452 0.3258 0
M  V30 5 Cl 1.8679 -1.4694 -0.3676 0
M  V30 6 H 2.0733 0.9759 -0.5639 0
M  V30 7 H -1.932 0.0603 0.5518 0
M  V30 8 H -1.126 -1.1319 -0.5327 0
M  V30 9 H -0.6615 -1.0303 1.2179 0
M  V30 END ATOM
M  V30 BEGIN BOND
M  V30 1 1 1 2
M  V30 2 2 2 3
M  V30 3 1 2 4
M  V30 4 1 3 5
M  V30 5 1 3 6
M  V30 6 1 4 7
M  V30 7 1 4 8
M  V30 8 1 4 9
M  V30 END BOND
M  V30 END CTAB
M  END
>  <Structure No>
7658

>  <LogS>
-1.614

>  <MMFF94 Energy>
2.2932

$$$$
Compound 7659
Actelion Java MolfileCreator 2.0

  0  0  0  0  0  0              0 V3000
M  V30 BEGIN CTAB
M  V30 COUNTS 16 16 0 0 0
M  V30 BEGIN ATOM
M  V30 1 Cl -0.2543 3.2251 -0.2543 0
M  V30 2 C 0.2736 1.5456 -0.166 0
M  V30 3 C -0.641 0.4744 -0.024 0
M  V30 4 C 1.6489 1.2985 -0.1858 0
M  V30 5 C -0.1415 -0.8549 0.0777 0
M  V30 6 C -2.0894 0.7591 0.085 0
M  V30 7 C 2.1335 2.0E-4 -0.0581 0
M  V30 8 C -1.0247 -2.0463 0.1347 0
M  V30 9 C 1.2482 -1.0673 0.0751 0
M  V30 10 O -2.656 1.5159 -0.7469 0
M  V30 11 O -2.8357 0.2016 1.1164 0 CHG=-1
M  V30 12 O -2.1634 -2.0349 -0.4031 0
M  V30 13 O -0.5795 -3.2158 0.7401 0 CHG=-1
M  V30 14 H 2.3479 2.1194 -0.2851 0
M  V30 15 H 3.2006 -0.1807 -0.0688 0
M  V30 16 H 1.6541 -2.0687 0.1491 0
M  V30 END ATOM
M  V30 BEGIN BOND
M  V30 1 1 1 2
M  V30 2 2 2 3
M  V30 3 1 2 4
M  V30 4 1 3 5
M  V30 5 1 3 6
M  V30 6 2 4 7
M  V30 7 1 5 8
M  V30 8 2 5 9
M  V30 9 2 6 10
M  V30 10 1 6 11
M  V30 11 2 8 12
M  V30 12 1 8 13
M  V30 13 1 7 9
M  V30 14 1 4 14
M  V30 15 1 7 15
M  V30 16 1 9 16
M  V30 END BOND
M  V30 END CTAB
M  END
>  <Structure No>
7659

>  <LogS>
-0.976

>  <MMFF94 Energy>
107.82

$$$$
Compound 7660
Actelion Java MolfileCreator 2.0

  0  0  0  0  0  0              0 V3000
M  V30 BEGIN CTAB
M  V30 COUNTS 31 31 0 0 0
M  V30 BEGIN ATOM
M  V30 1 S -0.5614 0.0 -1.1231 0
M  V30 2 C 0.7372 -0.2761 -0.0813 0
M  V30 3 C -1.6557 -0.0264 0.1646 0
M  V30 4 N 0.3154 -0.3541 1.2011 0
M  V30 5 N 2.1224 -0.3655 -0.4754 0
M  V30 6 N -1.0022 -0.2117 1.3367 0
M  V30 7 C -3.146 0.2382 0.0543 0
M  V30 8 C 3.1507 -0.5521 0.5181 0
M  V30 9 C 2.4963 -0.1599 -1.8778 0
M  V30 10 C -3.8615 -0.1485 1.3655 0
M  V30 11 C -3.7413 -0.5936 -1.0984 0
M  V30 12 C -3.369 1.7358 -0.2208 0
M  V30 13 O 2.9162 -1.2557 1.539 0
M  V30 14 N 4.4413 0.0554 0.358 0
M  V30 15 C 5.5276 -0.1958 1.2969 0
M  V30 16 H 1.7691 -0.6575 -2.5529 0
M  V30 17 H 2.5251 0.927 -2.1019 0
M  V30 18 H 3.4903 -0.6074 -2.0919 0
M  V30 19 H -3.4822 0.4578 2.2166 0
M  V30 20 H -3.6966 -1.2232 1.5974 0
M  V30 21 H -4.9562 0.0254 1.282 0
M  V30 22 H -3.5485 -1.6764 -0.9366 0
M  V30 23 H -3.297 -0.2999 -2.0736 0
M  V30 24 H -4.8403 -0.4401 -1.1659 0
M  V30 25 H -2.9393 2.3514 0.5992 0
M  V30 26 H -2.8833 2.0379 -1.1739 0
M  V30 27 H -4.4545 1.9629 -0.2975 0
M  V30 28 H 4.6091 0.7226 -0.4277 0
M  V30 29 H 5.7785 -1.2773 1.3004 0
M  V30 30 H 5.2247 0.1194 2.3177 0
M  V30 31 H 6.4276 0.3806 0.9962 0
M  V30 END ATOM
M  V30 BEGIN BOND
M  V30 1 1 1 2
M  V30 2 1 1 3
M  V30 3 2 2 4
M  V30 4 1 2 5
M  V30 5 2 3 6
M  V30 6 1 3 7
M  V30 7 1 5 8
M  V30 8 1 5 9
M  V30 9 1 7 10
M  V30 10 1 7 11
M  V30 11 1 7 12
M  V30 12 2 8 13
M  V30 13 1 8 14
M  V30 14 1 14 15
M  V30 15 1 4 6
M  V30 16 1 9 16
M  V30 17 1 9 17
M  V30 18 1 9 18
M  V30 19 1 10 19
M  V30 20 1 10 20
M  V30 21 1 10 21
M  V30 22 1 11 22
M  V30 23 1 11 23
M  V30 24 1 11 24
M  V30 25 1 12 25
M  V30 26 1 12 26
M  V30 27 1 12 27
M  V30 28 1 14 28
M  V30 29 1 15 29
M  V30 30 1 15 30
M  V30 31 1 15 31
M  V30 END BOND
M  V30 END CTAB
M  END
>  <Structure No>
7660

>  <LogS>
-1.997

>  <MMFF94 Energy>
-67.498

$$$$
Compound 7661
Actelion Java MolfileCreator 2.0

  0  0  0  0  0  0              0 V3000
M  V30 BEGIN CTAB
M  V30 COUNTS 41 43 0 0 0
M  V30 BEGIN ATOM
M  V30 1 S 5.8446 0.4929 0.4929 0 CFG=2
M  V30 2 O 6.4198 1.1005 -0.7794 0
M  V30 3 C 4.211 -0.0388 0.0285 0
M  V30 4 C 5.5854 1.8938 1.5965 0
M  V30 5 C 3.3445 0.8255 -0.6538 0
M  V30 6 C 3.791 -1.3361 0.3437 0
M  V30 7 C 2.0615 0.398 -1.0068 0
M  V30 8 C 2.5076 -1.7646 -0.0082 0
M  V30 9 C 1.6263 -0.8907 -0.6597 0
M  V30 10 C 0.2925 -1.3655 -1.0591 0
M  V30 11 C -0.8654 -0.7701 -0.7223 0
M  V30 12 C -2.1723 -1.114 -1.2794 0
M  V30 13 C -1.1297 0.3442 0.2285 0
M  V30 14 C -3.1011 -0.241 -0.7638 0
M  V30 15 C -2.538 -2.1044 -2.1968 0
M  V30 16 C -2.4327 0.6745 0.1616 0
M  V30 17 C -0.1433 0.9631 1.1816 0
M  V30 18 C -4.4489 -0.3174 -1.1244 0
M  V30 19 C -3.8874 -2.1975 -2.5748 0
M  V30 20 C -3.134 1.7271 0.9779 0
M  V30 21 C -4.8402 -1.308 -2.04 0
M  V30 22 C -3.69 1.1309 2.2317 0
M  V30 23 F -6.1403 -1.4082 -2.4108 0
M  V30 24 O -4.7696 0.4835 2.2003 0
M  V30 25 O -3.0022 1.2608 3.4313 0 CHG=-1
M  V30 26 H 5.0159 2.69 1.0744 0
M  V30 27 H 5.0177 1.5602 2.4895 0
M  V30 28 H 6.5678 2.297 1.9168 0
M  V30 29 H 3.6633 1.8258 -0.917 0
M  V30 30 H 4.4576 -2.0142 0.8611 0
M  V30 31 H 1.4067 1.0702 -1.5477 0
M  V30 32 H 2.1964 -2.7724 0.2382 0
M  V30 33 H 0.2674 -2.2387 -1.6971 0
M  V30 34 H -1.8091 -2.787 -2.6113 0
M  V30 35 H -0.6446 1.3132 2.1059 0
M  V30 36 H 0.6108 0.2179 1.5023 0
M  V30 37 H 0.3546 1.8282 0.6985 0
M  V30 38 H -5.1788 0.3658 -0.7112 0
M  V30 39 H -4.1958 -2.9569 -3.2814 0
M  V30 40 H -2.441 2.5583 1.2267 0
M  V30 41 H -3.96 2.1707 0.383 0
M  V30 END ATOM
M  V30 BEGIN BOND
M  V30 1 2 1 2
M  V30 2 1 1 3
M  V30 3 1 1 4
M  V30 4 2 3 5
M  V30 5 1 3 6
M  V30 6 1 5 7
M  V30 7 2 6 8
M  V30 8 2 7 9
M  V30 9 1 9 10
M  V30 10 2 10 11
M  V30 11 1 11 12
M  V30 12 1 11 13
M  V30 13 2 12 14
M  V30 14 1 12 15
M  V30 15 2 13 16
M  V30 16 1 13 17
M  V30 17 1 14 18
M  V30 18 2 15 19
M  V30 19 1 16 20
M  V30 20 2 18 21
M  V30 21 1 20 22
M  V30 22 1 21 23
M  V30 23 2 22 24
M  V30 24 1 22 25
M  V30 25 1 8 9
M  V30 26 1 14 16
M  V30 27 1 19 21
M  V30 28 1 4 26
M  V30 29 1 4 27
M  V30 30 1 4 28
M  V30 31 1 5 29
M  V30 32 1 6 30
M  V30 33 1 7 31
M  V30 34 1 8 32
M  V30 35 1 10 33
M  V30 36 1 15 34
M  V30 37 1 17 35
M  V30 38 1 17 36
M  V30 39 1 17 37
M  V30 40 1 18 38
M  V30 41 1 19 39
M  V30 42 1 20 40
M  V30 43 1 20 41
M  V30 END BOND
M  V30 BEGIN COLLECTION
M  V30 MDLV30/STEABS ATOMS=(1 1)
M  V30 END COLLECTION
M  V30 END CTAB
M  END
>  <Structure No>
7661

>  <LogS>
-4.552

>  <MMFF94 Energy>
94.064

$$$$
Compound 7662
Actelion Java MolfileCreator 2.0

  0  0  0  0  0  0              0 V3000
M  V30 BEGIN CTAB
M  V30 COUNTS 29 30 0 0 0
M  V30 BEGIN ATOM
M  V30 1 O -2.0196 -1.373 -1.6154 0
M  V30 2 C -1.5515 -0.7372 -0.6315 0
M  V30 3 O -2.1422 -0.8557 0.6314 0
M  V30 4 C -0.3775 0.1865 -0.8397 0 CFG=2
M  V30 5 C -3.2662 -1.6914 0.8772 0
M  V30 6 C 0.6541 0.175 0.3325 0 CFG=1
M  V30 7 C -0.7855 1.6811 -0.9079 0 CFG=1
M  V30 8 C 1.9679 -0.4366 -0.0855 0
M  V30 9 C 0.7496 1.6852 0.6882 0 CFG=1
M  V30 10 C -1.4818 2.0618 0.3762 0
M  V30 11 C 0.5544 2.3494 -0.6655 0
M  V30 12 O 2.9861 0.2836 -0.2814 0
M  V30 13 O 2.0349 -1.8201 -0.2731 0
M  V30 14 C -0.5563 2.0643 1.336 0
M  V30 15 C 3.2251 -2.481 -0.685 0
M  V30 16 H 0.1171 -0.0838 -1.8021 0
M  V30 17 H -4.1263 -1.3639 0.2554 0
M  V30 18 H -3.0132 -2.7471 0.6434 0
M  V30 19 H -3.5478 -1.6173 1.9477 0
M  V30 20 H 0.2868 -0.3954 1.2153 0
M  V30 21 H -1.3108 1.9907 -1.8364 0
M  V30 22 H 1.6496 1.9994 1.259 0
M  V30 23 H -2.5171 2.3632 0.4949 0
M  V30 24 H 0.4835 3.4615 -0.6006 0
M  V30 25 H 1.3293 2.0733 -1.4169 0
M  V30 26 H -0.7129 2.3695 2.3651 0
M  V30 27 H 3.5466 -2.1006 -1.6777 0
M  V30 28 H 3.0286 -3.5699 -0.7635 0
M  V30 29 H 4.0308 -2.313 0.0607 0
M  V30 END ATOM
M  V30 BEGIN BOND
M  V30 1 2 1 2
M  V30 2 1 2 3
M  V30 3 1 2 4
M  V30 4 1 3 5
M  V30 5 1 4 6
M  V30 6 1 4 7
M  V30 7 1 6 8
M  V30 8 1 6 9
M  V30 9 1 7 10
M  V30 10 1 7 11
M  V30 11 2 8 12
M  V30 12 1 8 13
M  V30 13 1 9 14
M  V30 14 1 13 15
M  V30 15 1 9 11
M  V30 16 2 10 14
M  V30 17 1 4 16
M  V30 18 1 5 17
M  V30 19 1 5 18
M  V30 20 1 5 19
M  V30 21 1 6 20
M  V30 22 1 7 21
M  V30 23 1 9 22
M  V30 24 1 10 23
M  V30 25 1 11 24
M  V30 26 1 11 25
M  V30 27 1 14 26
M  V30 28 1 15 27
M  V30 29 1 15 28
M  V30 30 1 15 29
M  V30 END BOND
M  V30 BEGIN COLLECTION
M  V30 MDLV30/STEABS ATOMS=(4 4 6 7 9)
M  V30 END COLLECTION
M  V30 END CTAB
M  END
>  <Structure No>
7662

>  <LogS>
-1.202

>  <MMFF94 Energy>
-1.5309

$$$$
Compound 7663
Actelion Java MolfileCreator 2.0

  0  0  0  0  0  0              0 V3000
M  V30 BEGIN CTAB
M  V30 COUNTS 49 48 0 0 0
M  V30 BEGIN ATOM
M  V30 1 O 6.0138 2.4958 0.3896 0
M  V30 2 C 5.116 1.6113 0.3517 0
M  V30 3 O 5.3774 0.3771 -0.2504 0
M  V30 4 C 3.7884 1.9258 0.9202 0
M  V30 5 C 6.6405 0.0455 -0.8158 0
M  V30 6 C 2.7822 1.0498 1.1061 0
M  V30 7 C 6.5902 -1.3677 -1.373 0
M  V30 8 C 1.5108 1.5583 1.6611 0
M  V30 9 C 2.9219 -0.4283 0.8537 0
M  V30 10 C 0.3355 1.5165 1.0173 0
M  V30 11 C 0.1378 0.9959 -0.385 0
M  V30 12 C -0.595 -0.3652 -0.4151 0 CFG=1
M  V30 13 C -1.9702 -0.3682 0.3028 0
M  V30 14 C -0.7111 -0.8736 -1.8594 0
M  V30 15 C -3.0098 0.5987 -0.2948 0
M  V30 16 C -4.3089 0.6599 0.5285 0
M  V30 17 C -5.129 -0.6602 0.4953 0
M  V30 18 C -4.9725 -1.4476 1.8052 0
M  V30 19 C -6.616 -0.3771 0.2404 0
M  V30 20 H 3.6226 2.9624 1.1949 0
M  V30 21 H 7.429 0.1045 -0.0345 0
M  V30 22 H 6.883 0.7557 -1.6355 0
M  V30 23 H 7.5737 -1.632 -1.815 0
M  V30 24 H 5.8096 -1.4371 -2.1599 0
M  V30 25 H 6.3537 -2.087 -0.5606 0
M  V30 26 H 1.5456 2.0474 2.6272 0
M  V30 27 H 3.8325 -0.8202 1.3538 0
M  V30 28 H 2.9681 -0.63 -0.2367 0
M  V30 29 H 2.061 -0.9818 1.2815 0
M  V30 30 H -0.5304 1.9283 1.521 0
M  V30 31 H -0.432 1.7527 -0.9625 0
M  V30 32 H 1.1115 0.901 -0.9099 0
M  V30 33 H 0.0406 -1.0994 0.1241 0
M  V30 34 H -1.8223 -0.1316 1.3784 0
M  V30 35 H -2.3726 -1.4024 0.2582 0
M  V30 36 H -1.2531 -1.8428 -1.8879 0
M  V30 37 H -1.246 -0.1402 -2.4988 0
M  V30 38 H 0.3017 -1.035 -2.2864 0
M  V30 39 H -2.5908 1.6253 -0.32 0
M  V30 40 H -3.2538 0.3056 -1.3381 0
M  V30 41 H -4.9127 1.4939 0.1066 0
M  V30 42 H -4.073 0.9596 1.5737 0
M  V30 43 H -4.7753 -1.3064 -0.3383 0
M  V30 44 H -5.3863 -0.8705 2.6601 0
M  V30 45 H -5.5114 -2.4166 1.7355 0
M  V30 46 H -3.9053 -1.6642 2.0126 0
M  V30 47 H -7.1907 -1.3275 0.2127 0
M  V30 48 H -6.7454 0.1297 -0.7396 0
M  V30 49 H -7.0334 0.2726 1.0398 0
M  V30 END ATOM
M  V30 BEGIN BOND
M  V30 1 2 1 2
M  V30 2 1 2 3
M  V30 3 1 2 4
M  V30 4 1 3 5
M  V30 5 2 4 6
M  V30 6 1 5 7
M  V30 7 1 6 8
M  V30 8 1 6 9
M  V30 9 2 8 10
M  V30 10 1 10 11
M  V30 11 1 11 12
M  V30 12 1 12 13
M  V30 13 1 12 14
M  V30 14 1 13 15
M  V30 15 1 15 16
M  V30 16 1 16 17
M  V30 17 1 17 18
M  V30 18 1 17 19
M  V30 19 1 4 20
M  V30 20 1 5 21
M  V30 21 1 5 22
M  V30 22 1 7 23
M  V30 23 1 7 24
M  V30 24 1 7 25
M  V30 25 1 8 26
M  V30 26 1 9 27
M  V30 27 1 9 28
M  V30 28 1 9 29
M  V30 29 1 10 30
M  V30 30 1 11 31
M  V30 31 1 11 32
M  V30 32 1 12 33
M  V30 33 1 13 34
M  V30 34 1 13 35
M  V30 35 1 14 36
M  V30 36 1 14 37
M  V30 37 1 14 38
M  V30 38 1 15 39
M  V30 39 1 15 40
M  V30 40 1 16 41
M  V30 41 1 16 42
M  V30 42 1 17 43
M  V30 43 1 18 44
M  V30 44 1 18 45
M  V30 45 1 18 46
M  V30 46 1 19 47
M  V30 47 1 19 48
M  V30 48 1 19 49
M  V30 END BOND
M  V30 BEGIN COLLECTION
M  V30 MDLV30/STEABS ATOMS=(1 12)
M  V30 END COLLECTION
M  V30 END CTAB
M  END
>  <Structure No>
7663

>  <LogS>
-5.693

>  <MMFF94 Energy>
13.773

$$$$
Compound 7664
Actelion Java MolfileCreator 2.0

  0  0  0  0  0  0              0 V3000
M  V30 BEGIN CTAB
M  V30 COUNTS 44 45 0 0 0
M  V30 BEGIN ATOM
M  V30 1 Cl 0.6455 5.2538 -1.1298 0
M  V30 2 C -0.3264 3.8657 -1.588 0
M  V30 3 C -1.2784 3.9732 -2.6106 0
M  V30 4 C -0.1494 2.6463 -0.9247 0
M  V30 5 F -1.4582 5.1508 -3.2596 0
M  V30 6 C -2.0521 2.863 -2.9643 0
M  V30 7 C -0.9175 1.5289 -1.2859 0
M  V30 8 C -1.875 1.6448 -2.3021 0
M  V30 9 N -0.7452 0.2735 -0.6084 0
M  V30 10 C -1.4614 0.065 0.6234 0
M  V30 11 C 0.3652 -0.6251 -0.9772 0 CFG=2
M  V30 12 O -1.6175 1.031 1.4202 0
M  V30 13 C -2.0338 -1.2562 0.9677 0
M  V30 14 C 1.6682 -0.0659 -0.4754 0
M  V30 15 C 0.3885 -0.899 -2.4884 0
M  V30 16 C -2.2151 -1.6214 2.3137 0
M  V30 17 C -2.4328 -2.1496 -0.0426 0
M  V30 18 O 2.432 0.5796 -1.2459 0
M  V30 19 O 1.9815 -0.2084 0.8807 0
M  V30 20 C -2.7635 -2.8655 2.6405 0
M  V30 21 C -2.9814 -3.392 0.289 0
M  V30 22 C 3.1722 0.3077 1.4746 0
M  V30 23 C -3.1443 -3.7509 1.6293 0
M  V30 24 C 2.9842 0.3603 2.9893 0
M  V30 25 C 4.3693 -0.5752 1.1123 0
M  V30 26 H 0.5792 2.5684 -0.1276 0
M  V30 27 H -2.7901 2.9459 -3.7517 0
M  V30 28 H -2.4777 0.7894 -2.5803 0
M  V30 29 H 0.231 -1.6115 -0.4835 0
M  V30 30 H 0.5805 0.032 -3.0632 0
M  V30 31 H -0.5865 -1.3208 -2.8111 0
M  V30 32 H 1.1848 -1.6358 -2.7283 0
M  V30 33 H -1.9214 -0.9502 3.1114 0
M  V30 34 H -2.3331 -1.8822 -1.0866 0
M  V30 35 H -2.8926 -3.1435 3.6785 0
M  V30 36 H -3.2846 -4.0752 -0.4937 0
M  V30 37 H 3.3547 1.3443 1.113 0
M  V30 38 H -3.5696 -4.7131 1.8841 0
M  V30 39 H 2.1171 1.0095 3.2361 0
M  V30 40 H 3.8892 0.782 3.4765 0
M  V30 41 H 2.7929 -0.6571 3.3928 0
M  V30 42 H 5.2924 -0.1877 1.5937 0
M  V30 43 H 4.1949 -1.6198 1.4485 0
M  V30 44 H 4.5257 -0.577 0.0135 0
M  V30 END ATOM
M  V30 BEGIN BOND
M  V30 1 1 1 2
M  V30 2 2 2 3
M  V30 3 1 2 4
M  V30 4 1 3 5
M  V30 5 1 3 6
M  V30 6 2 4 7
M  V30 7 2 6 8
M  V30 8 1 7 9
M  V30 9 1 9 10
M  V30 10 1 9 11
M  V30 11 2 10 12
M  V30 12 1 10 13
M  V30 13 1 11 14
M  V30 14 1 11 15
M  V30 15 2 13 16
M  V30 16 1 13 17
M  V30 17 2 14 18
M  V30 18 1 14 19
M  V30 19 1 16 20
M  V30 20 2 17 21
M  V30 21 1 19 22
M  V30 22 2 20 23
M  V30 23 1 22 24
M  V30 24 1 22 25
M  V30 25 1 7 8
M  V30 26 1 21 23
M  V30 27 1 4 26
M  V30 28 1 6 27
M  V30 29 1 8 28
M  V30 30 1 11 29
M  V30 31 1 15 30
M  V30 32 1 15 31
M  V30 33 1 15 32
M  V30 34 1 16 33
M  V30 35 1 17 34
M  V30 36 1 20 35
M  V30 37 1 21 36
M  V30 38 1 22 37
M  V30 39 1 23 38
M  V30 40 1 24 39
M  V30 41 1 24 40
M  V30 42 1 24 41
M  V30 43 1 25 42
M  V30 44 1 25 43
M  V30 45 1 25 44
M  V30 END BOND
M  V30 BEGIN COLLECTION
M  V30 MDLV30/STEABS ATOMS=(1 11)
M  V30 END COLLECTION
M  V30 END CTAB
M  END
>  <Structure No>
7664

>  <LogS>
-4.561

>  <MMFF94 Energy>
71.367

$$$$
Compound 7665
Actelion Java MolfileCreator 2.0

  0  0  0  0  0  0              0 V3000
M  V30 BEGIN CTAB
M  V30 COUNTS 40 41 0 0 0
M  V30 BEGIN ATOM
M  V30 1 Cl 4.0689 -1.1613 -0.5805 0
M  V30 2 C 3.3058 0.3099 0.0136 0
M  V30 3 C 2.1775 0.2796 0.8657 0
M  V30 4 C 3.8484 1.5377 -0.3841 0
M  V30 5 C 1.6149 1.4985 1.2982 0
M  V30 6 C 1.5304 -1.0263 1.2697 0
M  V30 7 C 3.2807 2.7356 0.0519 0
M  V30 8 F 0.5234 1.5116 2.1055 0
M  V30 9 C 2.167 2.7158 0.8911 0
M  V30 10 N 0.5317 -1.4509 0.2768 0
M  V30 11 C -0.6535 -0.645 0.1011 0
M  V30 12 C 0.7019 -2.7615 -0.3845 0
M  V30 13 C -0.7084 0.327 -0.9334 0
M  V30 14 C -1.7231 -0.7382 1.0315 0
M  V30 15 C -0.4895 -3.1769 -1.254 0
M  V30 16 N 0.3833 0.5226 -1.8542 0 CHG=1
M  V30 17 C -1.8321 1.1624 -1.0351 0
M  V30 18 N -1.6923 -1.6632 2.1381 0 CHG=1
M  V30 19 C -2.8307 0.1148 0.8946 0
M  V30 20 O 0.5845 1.6478 -2.3567 0
M  V30 21 O 1.1616 -0.5293 -2.2724 0 CHG=-1
M  V30 22 C -2.8867 1.0767 -0.1198 0
M  V30 23 O -2.3508 -1.4256 3.1722 0
M  V30 24 O -1.022 -2.8598 2.0513 0 CHG=-1
M  V30 25 C -4.108 1.9496 -0.2781 0
M  V30 26 F -3.7704 3.1677 -0.8427 0
M  V30 27 F -4.6991 2.1937 0.9496 0
M  V30 28 F -5.0198 1.311 -1.0976 0
M  V30 29 H 4.7118 1.5646 -1.0368 0
M  V30 30 H 2.3068 -1.809 1.4074 0
M  V30 31 H 1.0429 -0.9219 2.2627 0
M  V30 32 H 3.7042 3.6809 -0.2623 0
M  V30 33 H 1.7277 3.6474 1.2242 0
M  V30 34 H 1.6145 -2.7406 -1.0152 0
M  V30 35 H 0.8577 -3.5459 0.3869 0
M  V30 36 H -0.285 -4.1684 -1.7097 0
M  V30 37 H -1.4106 -3.2585 -0.6397 0
M  V30 38 H -0.6557 -2.4455 -2.0715 0
M  V30 39 H -1.8839 1.886 -1.8391 0
M  V30 40 H -3.6596 0.0243 1.5857 0
M  V30 END ATOM
M  V30 BEGIN BOND
M  V30 1 1 1 2
M  V30 2 2 2 3
M  V30 3 1 2 4
M  V30 4 1 3 5
M  V30 5 1 3 6
M  V30 6 2 4 7
M  V30 7 1 5 8
M  V30 8 2 5 9
M  V30 9 1 6 10
M  V30 10 1 10 11
M  V30 11 1 10 12
M  V30 12 2 11 13
M  V30 13 1 11 14
M  V30 14 1 12 15
M  V30 15 1 13 16
M  V30 16 1 13 17
M  V30 17 1 14 18
M  V30 18 2 14 19
M  V30 19 2 16 20
M  V30 20 1 16 21
M  V30 21 2 17 22
M  V30 22 2 18 23
M  V30 23 1 18 24
M  V30 24 1 22 25
M  V30 25 1 25 26
M  V30 26 1 25 27
M  V30 27 1 25 28
M  V30 28 1 7 9
M  V30 29 1 19 22
M  V30 30 1 4 29
M  V30 31 1 6 30
M  V30 32 1 6 31
M  V30 33 1 7 32
M  V30 34 1 9 33
M  V30 35 1 12 34
M  V30 36 1 12 35
M  V30 37 1 15 36
M  V30 38 1 15 37
M  V30 39 1 15 38
M  V30 40 1 17 39
M  V30 41 1 19 40
M  V30 END BOND
M  V30 END CTAB
M  END
>  <Structure No>
7665

>  <LogS>
-6.625

>  <MMFF94 Energy>
145.64

$$$$
Compound 7666
Actelion Java MolfileCreator 2.0

  0  0  0  0  0  0              0 V3000
M  V30 BEGIN CTAB
M  V30 COUNTS 23 24 0 0 0
M  V30 BEGIN ATOM
M  V30 1 N 1.2621 0.9464 -0.7886 0 CHG=1
M  V30 2 C 0.21 0.4666 -0.0709 0
M  V30 3 C 2.4551 0.2926 -0.7709 0
M  V30 4 N 0.3586 -0.6683 0.6619 0
M  V30 5 N -1.0477 1.154 -0.0913 0
M  V30 6 N 2.5937 -0.8399 -0.0358 0
M  V30 7 N 3.5626 0.7905 -1.5214 0
M  V30 8 C 1.5472 -1.3216 0.6807 0
M  V30 9 C -2.1833 0.6979 0.705 0
M  V30 10 N 1.6959 -2.5117 1.4511 0
M  V30 11 C -3.5279 0.8792 0.0223 0
M  V30 12 C -2.8951 -0.5011 0.1018 0
M  V30 13 H 1.1538 1.8181 -1.3549 0
M  V30 14 H -1.1277 2.0569 -0.6113 0
M  V30 15 H 4.4775 0.2878 -1.507 0
M  V30 16 H 3.4728 1.6603 -2.092 0
M  V30 17 H -2.1301 0.7519 1.813 0
M  V30 18 H 0.8936 -2.887 2.004 0
M  V30 19 H 2.6083 -3.0191 1.4695 0
M  V30 20 H -4.3793 1.0267 0.7197 0
M  V30 21 H -3.4989 1.3305 -0.9924 0
M  V30 22 H -3.3698 -1.1743 0.8463 0
M  V30 23 H -2.4856 -0.8678 -0.8637 0
M  V30 END ATOM
M  V30 BEGIN BOND
M  V30 1 2 1 2
M  V30 2 1 1 3
M  V30 3 1 2 4
M  V30 4 1 2 5
M  V30 5 2 3 6
M  V30 6 1 3 7
M  V30 7 2 4 8
M  V30 8 1 5 9
M  V30 9 1 8 10
M  V30 10 1 9 11
M  V30 11 1 9 12
M  V30 12 1 6 8
M  V30 13 1 11 12
M  V30 14 1 1 13
M  V30 15 1 5 14
M  V30 16 1 7 15
M  V30 17 1 7 16
M  V30 18 1 9 17
M  V30 19 1 10 18
M  V30 20 1 10 19
M  V30 21 1 11 20
M  V30 22 1 11 21
M  V30 23 1 12 22
M  V30 24 1 12 23
M  V30 END BOND
M  V30 END CTAB
M  END
>  <Structure No>
7666

>  <LogS>
-1.179

>  <MMFF94 Energy>
-224.52

$$$$
Compound 7667
Actelion Java MolfileCreator 2.0

  0  0  0  0  0  0              0 V3000
M  V30 BEGIN CTAB
M  V30 COUNTS 41 43 0 0 0
M  V30 BEGIN ATOM
M  V30 1 Cl 9.1443 -0.2463 -0.5748 0
M  V30 2 C 7.4977 -0.5399 -0.0473 0
M  V30 3 C 6.4279 0.0747 -0.7194 0
M  V30 4 C 7.252 -1.3927 1.0491 0
M  V30 5 C 5.1355 -0.1833 -0.2699 0
M  V30 6 C 5.9369 -1.637 1.4814 0
M  V30 7 S 3.681 0.3973 -0.8714 0
M  V30 8 C 4.8829 -1.0193 0.8064 0
M  V30 9 C 2.7827 -0.4497 0.2969 0
M  V30 10 N 3.5722 -1.1764 1.1236 0
M  V30 11 O 1.3866 -0.4739 0.3951 0
M  V30 12 C 0.5245 0.4837 -0.1554 0
M  V30 13 C -0.7194 0.0659 -0.644 0
M  V30 14 C 0.854 1.8495 -0.1842 0
M  V30 15 C -1.6243 0.9971 -1.1919 0
M  V30 16 C -0.0382 2.7754 -0.7288 0
M  V30 17 O -2.8799 0.6258 -1.7009 0
M  V30 18 C -1.2684 2.3498 -1.2347 0
M  V30 19 C -3.4243 -0.6954 -1.6788 0 CFG=1
M  V30 20 C -3.7451 -1.1055 -0.2709 0
M  V30 21 C -4.6943 -0.7219 -2.5236 0
M  V30 22 O -3.6243 -2.3135 0.0713 0
M  V30 23 O -4.2086 -0.1503 0.6384 0
M  V30 24 C -4.5186 -0.4653 1.9913 0
M  V30 25 C -4.9711 0.7924 2.7151 0
M  V30 26 H 6.6003 0.7304 -1.5631 0
M  V30 27 H 8.0788 -1.8648 1.5639 0
M  V30 28 H 5.7477 -2.292 2.3223 0
M  V30 29 H -0.9635 -0.9861 -0.5988 0
M  V30 30 H 1.7856 2.2024 0.2369 0
M  V30 31 H 0.2199 3.8264 -0.7503 0
M  V30 32 H -1.9543 3.076 -1.6525 0
M  V30 33 H -2.6965 -1.4057 -2.1296 0
M  V30 34 H -4.4563 -0.4255 -3.567 0
M  V30 35 H -5.4478 -0.014 -2.1154 0
M  V30 36 H -5.1265 -1.7455 -2.5381 0
M  V30 37 H -5.3323 -1.2218 2.0239 0
M  V30 38 H -3.6173 -0.8752 2.4969 0
M  V30 39 H -4.1625 1.5534 2.6943 0
M  V30 40 H -5.2128 0.5508 3.7716 0
M  V30 41 H -5.8762 1.208 2.2236 0
M  V30 END ATOM
M  V30 BEGIN BOND
M  V30 1 1 1 2
M  V30 2 2 2 3
M  V30 3 1 2 4
M  V30 4 1 3 5
M  V30 5 2 4 6
M  V30 6 1 5 7
M  V30 7 2 5 8
M  V30 8 1 7 9
M  V30 9 1 8 10
M  V30 10 1 9 11
M  V30 11 1 11 12
M  V30 12 2 12 13
M  V30 13 1 12 14
M  V30 14 1 13 15
M  V30 15 2 14 16
M  V30 16 1 15 17
M  V30 17 2 15 18
M  V30 18 1 17 19
M  V30 19 1 19 20
M  V30 20 1 19 21
M  V30 21 2 20 22
M  V30 22 1 20 23
M  V30 23 1 23 24
M  V30 24 1 24 25
M  V30 25 1 6 8
M  V30 26 2 9 10
M  V30 27 1 16 18
M  V30 28 1 3 26
M  V30 29 1 4 27
M  V30 30 1 6 28
M  V30 31 1 13 29
M  V30 32 1 14 30
M  V30 33 1 16 31
M  V30 34 1 18 32
M  V30 35 1 19 33
M  V30 36 1 21 34
M  V30 37 1 21 35
M  V30 38 1 21 36
M  V30 39 1 24 37
M  V30 40 1 24 38
M  V30 41 1 25 39
M  V30 42 1 25 40
M  V30 43 1 25 41
M  V30 END BOND
M  V30 BEGIN COLLECTION
M  V30 MDLV30/STEABS ATOMS=(1 19)
M  V30 END COLLECTION
M  V30 END CTAB
M  END
>  <Structure No>
7667

>  <LogS>
-5.674

>  <MMFF94 Energy>
53.168

$$$$
Compound 7668
Actelion Java MolfileCreator 2.0

  0  0  0  0  0  0              0 V3000
M  V30 BEGIN CTAB
M  V30 COUNTS 15 15 0 0 0
M  V30 BEGIN ATOM
M  V30 1 C 1.2493 -0.078 0.0 0
M  V30 2 C 0.2859 -1.264 -0.0021 0
M  V30 3 C 0.3977 1.1806 -0.1002 0
M  V30 4 C -1.1231 -0.6885 -0.0746 0
M  V30 5 C -0.9983 0.7691 0.3276 0
M  V30 6 H 1.9589 -0.1392 -0.8538 0
M  V30 7 H 1.8304 -0.0651 0.9484 0
M  V30 8 H 0.4796 -1.9308 -0.8706 0
M  V30 9 H 0.4071 -1.8521 0.9342 0
M  V30 10 H 0.3728 1.5322 -1.1555 0
M  V30 11 H 0.7941 1.9934 0.5463 0
M  V30 12 H -1.8206 -1.233 0.5983 0
M  V30 13 H -1.5 -0.753 -1.1195 0
M  V30 14 H -1.7753 1.3949 -0.1622 0
M  V30 15 H -1.0924 0.861 1.4325 0
M  V30 END ATOM
M  V30 BEGIN BOND
M  V30 1 1 1 2
M  V30 2 1 1 3
M  V30 3 1 2 4
M  V30 4 1 3 5
M  V30 5 1 4 5
M  V30 6 1 1 6
M  V30 7 1 1 7
M  V30 8 1 2 8
M  V30 9 1 2 9
M  V30 10 1 3 10
M  V30 11 1 3 11
M  V30 12 1 4 12
M  V30 13 1 4 13
M  V30 14 1 5 14
M  V30 15 1 5 15
M  V30 END BOND
M  V30 END CTAB
M  END
>  <Structure No>
7668

>  <LogS>
-2.64

>  <MMFF94 Energy>
1.5475

$$$$
Compound 7669
Actelion Java MolfileCreator 2.0

  0  0  0  0  0  0              0 V3000
M  V30 BEGIN CTAB
M  V30 COUNTS 20 19 0 0 0
M  V30 BEGIN ATOM
M  V30 1 C -0.3828 0.1531 -0.0765 0
M  V30 2 C 1.1211 0.5584 -0.0837 0
M  V30 3 C -1.1948 1.3073 -0.7014 0
M  V30 4 C -0.6185 -1.1209 -0.9154 0
M  V30 5 C -0.8889 -0.0772 1.3634 0
M  V30 6 C 2.0817 -0.4802 0.506 0
M  V30 7 H 1.2506 1.5049 0.4867 0
M  V30 8 H 1.4422 0.765 -1.1287 0
M  V30 9 H -0.8665 1.4976 -1.7463 0
M  V30 10 H -2.2798 1.0652 -0.7192 0
M  V30 11 H -1.0597 2.2436 -0.1175 0
M  V30 12 H -1.7062 -1.3308 -1.0094 0
M  V30 13 H -0.1972 -1.0007 -1.9367 0
M  V30 14 H -0.1503 -2.0083 -0.4406 0
M  V30 15 H -0.6646 0.8035 2.0029 0
M  V30 16 H -0.4182 -0.9742 1.8172 0
M  V30 17 H -1.9884 -0.2413 1.3694 0
M  V30 18 H 2.0486 -1.4283 -0.0681 0
M  V30 19 H 1.8539 -0.6765 1.5734 0
M  V30 20 H 3.1189 -0.0876 0.4493 0
M  V30 END ATOM
M  V30 BEGIN BOND
M  V30 1 1 1 2
M  V30 2 1 1 3
M  V30 3 1 1 4
M  V30 4 1 1 5
M  V30 5 1 2 6
M  V30 6 1 2 7
M  V30 7 1 2 8
M  V30 8 1 3 9
M  V30 9 1 3 10
M  V30 10 1 3 11
M  V30 11 1 4 12
M  V30 12 1 4 13
M  V30 13 1 4 14
M  V30 14 1 5 15
M  V30 15 1 5 16
M  V30 16 1 5 17
M  V30 17 1 6 18
M  V30 18 1 6 19
M  V30 19 1 6 20
M  V30 END BOND
M  V30 END CTAB
M  END
>  <Structure No>
7669

>  <LogS>
-3.55

>  <MMFF94 Energy>
10.235

$$$$
Compound 7670
Actelion Java MolfileCreator 2.0

  0  0  0  0  0  0              0 V3000
M  V30 BEGIN CTAB
M  V30 COUNTS 18 18 0 0 0
M  V30 BEGIN ATOM
M  V30 1 C 0.2348 -1.4098 0.3914 0
M  V30 2 C 1.3673 -0.4681 -0.0367 0
M  V30 3 C -1.0986 -0.9899 -0.2398 0
M  V30 4 C 1.0308 0.9888 0.3053 0
M  V30 5 C -1.4352 0.4671 0.1022 0
M  V30 6 C -0.3027 1.4088 -0.3259 0
M  V30 7 H 0.4802 -2.4463 0.0754 0
M  V30 8 H 0.1419 -1.4024 1.4999 0
M  V30 9 H 1.5394 -0.5645 -1.1313 0
M  V30 10 H 2.3043 -0.7602 0.4842 0
M  V30 11 H -1.0436 -1.1111 -1.3441 0
M  V30 12 H -1.9077 -1.6516 0.1374 0
M  V30 13 H 1.8398 1.6506 -0.0718 0
M  V30 14 H 0.9756 1.1102 1.4096 0
M  V30 15 H -2.3722 0.7593 -0.4186 0
M  V30 16 H -1.6073 0.5636 1.1969 0
M  V30 17 H -0.2098 1.4014 -1.4343 0
M  V30 18 H -0.5481 2.4454 -0.0098 0
M  V30 END ATOM
M  V30 BEGIN BOND
M  V30 1 1 1 2
M  V30 2 1 1 3
M  V30 3 1 2 4
M  V30 4 1 3 5
M  V30 5 1 4 6
M  V30 6 1 5 6
M  V30 7 1 1 7
M  V30 8 1 1 8
M  V30 9 1 2 9
M  V30 10 1 2 10
M  V30 11 1 3 11
M  V30 12 1 3 12
M  V30 13 1 4 13
M  V30 14 1 4 14
M  V30 15 1 5 15
M  V30 16 1 5 16
M  V30 17 1 6 17
M  V30 18 1 6 18
M  V30 END BOND
M  V30 END CTAB
M  END
>  <Structure No>
7670

>  <LogS>
-3.1

>  <MMFF94 Energy>
-3.5609

$$$$
Compound 7671
Actelion Java MolfileCreator 2.0

  0  0  0  0  0  0              0 V3000
M  V30 BEGIN CTAB
M  V30 COUNTS 15 14 0 0 0
M  V30 BEGIN ATOM
M  V30 1 C -0.2267 0.4534 0.1511 0
M  V30 2 C -0.9752 -0.5291 -0.3692 0
M  V30 3 C 1.2303 0.2529 0.4643 0
M  V30 4 C -2.4286 -0.3187 -0.6604 0
M  V30 5 C 2.0643 0.1538 -0.8098 0
M  V30 6 H -0.6813 1.413 0.3838 0
M  V30 7 H -0.5316 -1.4974 -0.5847 0
M  V30 8 H 1.3632 -0.6661 1.0753 0
M  V30 9 H 1.5927 1.1175 1.0612 0
M  V30 10 H -2.5522 0.5037 -1.3964 0
M  V30 11 H -2.9694 -0.0622 0.275 0
M  V30 12 H -2.8643 -1.2477 -1.0837 0
M  V30 13 H 1.9376 1.0705 -1.4249 0
M  V30 14 H 1.7616 -0.7328 -1.4062 0
M  V30 15 H 3.1372 0.05 -0.5435 0
M  V30 END ATOM
M  V30 BEGIN BOND
M  V30 1 2 1 2
M  V30 2 1 1 3
M  V30 3 1 2 4
M  V30 4 1 3 5
M  V30 5 1 1 6
M  V30 6 1 2 7
M  V30 7 1 3 8
M  V30 8 1 3 9
M  V30 9 1 4 10
M  V30 10 1 4 11
M  V30 11 1 4 12
M  V30 12 1 5 13
M  V30 13 1 5 14
M  V30 14 1 5 15
M  V30 END BOND
M  V30 END CTAB
M  END
>  <Structure No>
7671

>  <LogS>
-2.54

>  <MMFF94 Energy>
3.7629

$$$$
Compound 7672
Actelion Java MolfileCreator 2.0

  0  0  0  0  0  0              0 V3000
M  V30 BEGIN CTAB
M  V30 COUNTS 21 20 0 0 0
M  V30 BEGIN ATOM
M  V30 1 C -1.5286 -0.6876 -0.6112 0
M  V30 2 C -2.283 0.2695 -0.0528 0
M  V30 3 C -0.1231 -0.4151 -1.0721 0
M  V30 4 C -3.6858 -0.0135 0.387 0
M  V30 5 C 0.8243 -0.2243 0.1183 0
M  V30 6 C 2.2627 0.0097 -0.3569 0
M  V30 7 C 3.2095 0.202 0.8241 0
M  V30 8 H -1.9436 -1.6803 -0.7657 0
M  V30 9 H -1.8816 1.2699 0.0854 0
M  V30 10 H 0.2223 -1.2794 -1.6796 0
M  V30 11 H -0.1133 0.488 -1.7211 0
M  V30 12 H -4.2973 -0.3377 -0.4815 0
M  V30 13 H -4.1355 0.9045 0.8198 0
M  V30 14 H -3.6869 -0.8119 1.1589 0
M  V30 15 H 0.4926 0.6489 0.7221 0
M  V30 16 H 0.7917 -1.1314 0.762 0
M  V30 17 H 2.3019 0.9158 -1.0004 0
M  V30 18 H 2.6069 -0.8621 -0.955 0
M  V30 19 H 4.2415 0.3686 0.45 0
M  V30 20 H 3.2076 -0.7009 1.4712 0
M  V30 21 H 2.9027 1.0847 1.425 0
M  V30 END ATOM
M  V30 BEGIN BOND
M  V30 1 2 1 2
M  V30 2 1 1 3
M  V30 3 1 2 4
M  V30 4 1 3 5
M  V30 5 1 5 6
M  V30 6 1 6 7
M  V30 7 1 1 8
M  V30 8 1 2 9
M  V30 9 1 3 10
M  V30 10 1 3 11
M  V30 11 1 4 12
M  V30 12 1 4 13
M  V30 13 1 4 14
M  V30 14 1 5 15
M  V30 15 1 5 16
M  V30 16 1 6 17
M  V30 17 1 6 18
M  V30 18 1 7 19
M  V30 19 1 7 20
M  V30 20 1 7 21
M  V30 END BOND
M  V30 END CTAB
M  END
>  <Structure No>
7672

>  <LogS>
-3.82

>  <MMFF94 Energy>
3.3575

$$$$
Compound 7673
Actelion Java MolfileCreator 2.0

  0  0  0  0  0  0              0 V3000
M  V30 BEGIN CTAB
M  V30 COUNTS 16 15 0 0 0
M  V30 BEGIN ATOM
M  V30 1 C 2.1402 -0.6111 -0.9932 0
M  V30 2 C 3.3192 -0.5373 -1.2333 0
M  V30 3 C 0.705 -0.7012 -0.7013 0
M  V30 4 C 0.3337 0.244 0.4476 0
M  V30 5 C -1.1353 0.1024 0.8744 0
M  V30 6 C -2.109 0.6552 -0.1659 0
M  V30 7 H 4.3542 -0.4723 -1.4439 0
M  V30 8 H 0.1459 -0.4313 -1.6209 0
M  V30 9 H 0.4639 -1.7501 -0.4265 0
M  V30 10 H 0.5406 1.2974 0.1551 0
M  V30 11 H 0.9706 0.0072 1.3287 0
M  V30 12 H -1.2816 0.6661 1.8213 0
M  V30 13 H -1.3737 -0.9639 1.0785 0
M  V30 14 H -3.1404 0.63 0.2444 0
M  V30 15 H -2.0899 0.0395 -1.0887 0
M  V30 16 H -1.8546 1.707 -0.4166 0
M  V30 END ATOM
M  V30 BEGIN BOND
M  V30 1 3 1 2
M  V30 2 1 1 3
M  V30 3 1 3 4
M  V30 4 1 4 5
M  V30 5 1 5 6
M  V30 6 1 2 7
M  V30 7 1 3 8
M  V30 8 1 3 9
M  V30 9 1 4 10
M  V30 10 1 4 11
M  V30 11 1 5 12
M  V30 12 1 5 13
M  V30 13 1 6 14
M  V30 14 1 6 15
M  V30 15 1 6 16
M  V30 END BOND
M  V30 END CTAB
M  END
>  <Structure No>
7673

>  <LogS>
-2.36

>  <MMFF94 Energy>
0.17344

$$$$
Compound 7674
Actelion Java MolfileCreator 2.0

  0  0  0  0  0  0              0 V3000
M  V30 BEGIN CTAB
M  V30 COUNTS 21 21 0 0 0
M  V30 BEGIN ATOM
M  V30 1 C -0.7014 0.6234 0.2337 0
M  V30 2 C -1.0454 -0.6522 -0.2742 0
M  V30 3 C 0.6537 0.9841 0.3357 0
M  V30 4 C -1.7611 1.6081 0.6546 0
M  V30 5 C -0.0249 -1.5441 -0.6437 0
M  V30 6 C -2.4833 -1.0825 -0.4009 0
M  V30 7 C 1.6634 0.0957 -0.0594 0
M  V30 8 C 1.3165 -1.1754 -0.5323 0
M  V30 9 C 3.1066 0.4765 0.0935 0
M  V30 10 H 0.926 1.9585 0.7241 0
M  V30 11 H -2.43 1.1466 1.4108 0
M  V30 12 H -2.3595 1.9148 -0.2284 0
M  V30 13 H -1.3173 2.5211 1.106 0
M  V30 14 H -0.266 -2.5313 -1.0183 0
M  V30 15 H -3.0496 -0.3441 -1.0061 0
M  V30 16 H -2.5729 -2.0705 -0.9005 0
M  V30 17 H -2.941 -1.161 0.6073 0
M  V30 18 H 2.0855 -1.8828 -0.8171 0
M  V30 19 H 3.7328 -0.0457 -0.6608 0
M  V30 20 H 3.2399 1.5701 -0.0486 0
M  V30 21 H 3.4559 0.1979 1.1096 0
M  V30 END ATOM
M  V30 BEGIN BOND
M  V30 1 2 1 2
M  V30 2 1 1 3
M  V30 3 1 1 4
M  V30 4 1 2 5
M  V30 5 1 2 6
M  V30 6 2 3 7
M  V30 7 2 5 8
M  V30 8 1 7 9
M  V30 9 1 7 8
M  V30 10 1 3 10
M  V30 11 1 4 11
M  V30 12 1 4 12
M  V30 13 1 4 13
M  V30 14 1 5 14
M  V30 15 1 6 15
M  V30 16 1 6 16
M  V30 17 1 6 17
M  V30 18 1 8 18
M  V30 19 1 9 19
M  V30 20 1 9 20
M  V30 21 1 9 21
M  V30 END BOND
M  V30 END CTAB
M  END
>  <Structure No>
7674

>  <LogS>
-3.31

>  <MMFF94 Energy>
24.213

$$$$
Compound 7675
Actelion Java MolfileCreator 2.0

  0  0  0  0  0  0              0 V3000
M  V30 BEGIN CTAB
M  V30 COUNTS 24 24 0 0 0
M  V30 BEGIN ATOM
M  V30 1 C 1.4031 -0.4675 0.3116 0
M  V30 2 C 0.6454 -1.2591 -0.5657 0
M  V30 3 C 0.7459 0.4121 1.1863 0
M  V30 4 C 2.907 -0.5148 0.2705 0
M  V30 5 C -0.7508 -1.1914 -0.55 0
M  V30 6 C -0.6503 0.4797 1.202 0
M  V30 7 C 3.4521 0.5001 -0.7288 0
M  V30 8 C -1.4088 -0.3312 0.3432 0
M  V30 9 C -2.9108 -0.2331 0.3358 0
M  V30 10 C -3.3777 0.8307 -0.6521 0
M  V30 11 H 1.1362 -1.9248 -1.2647 0
M  V30 12 H 1.315 1.0486 1.8527 0
M  V30 13 H 3.2498 -1.5327 -0.0166 0
M  V30 14 H 3.324 -0.2976 1.2782 0
M  V30 15 H -1.3192 -1.806 -1.2371 0
M  V30 16 H -1.1404 1.1675 1.8803 0
M  V30 17 H 3.1473 1.5286 -0.4388 0
M  V30 18 H 4.5612 0.4489 -0.7433 0
M  V30 19 H 3.0722 0.2789 -1.7491 0
M  V30 20 H -3.3566 -1.2129 0.0574 0
M  V30 21 H -3.2824 0.0221 1.3523 0
M  V30 22 H -4.4867 0.8868 -0.6419 0
M  V30 23 H -3.0438 0.575 -1.6804 0
M  V30 24 H -2.9687 1.8247 -0.3702 0
M  V30 END ATOM
M  V30 BEGIN BOND
M  V30 1 2 1 2
M  V30 2 1 1 3
M  V30 3 1 1 4
M  V30 4 1 2 5
M  V30 5 2 3 6
M  V30 6 1 4 7
M  V30 7 2 5 8
M  V30 8 1 8 9
M  V30 9 1 9 10
M  V30 10 1 6 8
M  V30 11 1 2 11
M  V30 12 1 3 12
M  V30 13 1 4 13
M  V30 14 1 4 14
M  V30 15 1 5 15
M  V30 16 1 6 16
M  V30 17 1 7 17
M  V30 18 1 7 18
M  V30 19 1 7 19
M  V30 20 1 9 20
M  V30 21 1 9 21
M  V30 22 1 10 22
M  V30 23 1 10 23
M  V30 24 1 10 24
M  V30 END BOND
M  V30 END CTAB
M  END
>  <Structure No>
7675

>  <LogS>
-3.75

>  <MMFF94 Energy>
19.878

$$$$
Compound 7676
Actelion Java MolfileCreator 2.0

  0  0  0  0  0  0              0 V3000
M  V30 BEGIN CTAB
M  V30 COUNTS 24 24 0 0 0
M  V30 BEGIN ATOM
M  V30 1 C -0.4678 0.1559 0.2339 0
M  V30 2 C 0.2902 1.0234 1.0396 0
M  V30 3 C 0.1942 -0.6364 -0.7225 0
M  V30 4 C -1.973 0.0792 0.409 0
M  V30 5 C 1.6776 1.1019 0.8884 0
M  V30 6 C 1.5816 -0.5567 -0.8722 0
M  V30 7 C -2.7011 0.5009 -0.8727 0
M  V30 8 C -2.4066 -1.3222 0.8543 0
M  V30 9 C 2.3299 0.3241 -0.0786 0
M  V30 10 C 3.8227 0.3799 -0.2127 0
M  V30 11 H -0.1903 1.6391 1.7896 0
M  V30 12 H -0.3606 -1.3201 -1.3518 0
M  V30 13 H -2.2891 0.7863 1.2087 0
M  V30 14 H 2.243 1.7703 1.5261 0
M  V30 15 H 2.0719 -1.1822 -1.608 0
M  V30 16 H -3.7974 0.5302 -0.6948 0
M  V30 17 H -2.3725 1.5167 -1.1803 0
M  V30 18 H -2.4977 -0.2093 -1.7018 0
M  V30 19 H -1.8687 -1.6098 1.7831 0
M  V30 20 H -3.4968 -1.333 1.0675 0
M  V30 21 H -2.1938 -2.0767 0.0675 0
M  V30 22 H 4.2022 1.3902 0.0504 0
M  V30 23 H 4.2823 -0.3678 0.4665 0
M  V30 24 H 4.1308 0.1591 -1.2568 0
M  V30 END ATOM
M  V30 BEGIN BOND
M  V30 1 2 1 2
M  V30 2 1 1 3
M  V30 3 1 1 4
M  V30 4 1 2 5
M  V30 5 2 3 6
M  V30 6 1 4 7
M  V30 7 1 4 8
M  V30 8 2 5 9
M  V30 9 1 9 10
M  V30 10 1 6 9
M  V30 11 1 2 11
M  V30 12 1 3 12
M  V30 13 1 4 13
M  V30 14 1 5 14
M  V30 15 1 6 15
M  V30 16 1 7 16
M  V30 17 1 7 17
M  V30 18 1 7 18
M  V30 19 1 8 19
M  V30 20 1 8 20
M  V30 21 1 8 21
M  V30 22 1 10 22
M  V30 23 1 10 23
M  V30 24 1 10 24
M  V30 END BOND
M  V30 END CTAB
M  END
>  <Structure No>
7676

>  <LogS>
-3.77

>  <MMFF94 Energy>
25.133

$$$$
Compound 7677
Actelion Java MolfileCreator 2.0

  0  0  0  0  0  0              0 V3000
M  V30 BEGIN CTAB
M  V30 COUNTS 25 26 0 0 0
M  V30 BEGIN ATOM
M  V30 1 C 1.2646 0.0 -0.7112 0
M  V30 2 C 1.7894 1.2676 -0.4074 0
M  V30 3 C 1.8601 -1.1434 -0.1526 0
M  V30 4 C 0.0403 -0.1272 -1.5764 0
M  V30 5 C 2.9061 1.3861 0.4257 0
M  V30 6 C 2.9768 -1.0203 0.68 0
M  V30 7 C -1.2025 -0.0744 -0.7303 0
M  V30 8 C 3.5004 0.2432 0.9677 0
M  V30 9 C -1.7368 -1.252 -0.1805 0
M  V30 10 C -1.8074 1.1591 -0.4351 0
M  V30 11 C -2.8716 -1.1969 0.6346 0
M  V30 12 C -2.9422 1.2095 0.3806 0
M  V30 13 C -3.4749 0.0325 0.9136 0
M  V30 14 H 1.3332 2.1618 -0.8137 0
M  V30 15 H 1.4591 -2.1277 -0.3605 0
M  V30 16 H 0.0216 0.6868 -2.3341 0
M  V30 17 H 0.0736 -1.0812 -2.1474 0
M  V30 18 H 3.3089 2.3645 0.6541 0
M  V30 19 H 3.4342 -1.9044 1.1051 0
M  V30 20 H 4.3638 0.3367 1.6134 0
M  V30 21 H -1.274 -2.2102 -0.3819 0
M  V30 22 H -1.3998 2.0794 -0.8346 0
M  V30 23 H -3.2814 -2.1072 1.0528 0
M  V30 24 H -3.4067 2.1618 0.6022 0
M  V30 25 H -4.3524 0.0735 1.5459 0
M  V30 END ATOM
M  V30 BEGIN BOND
M  V30 1 2 1 2
M  V30 2 1 1 3
M  V30 3 1 1 4
M  V30 4 1 2 5
M  V30 5 2 3 6
M  V30 6 1 4 7
M  V30 7 2 5 8
M  V30 8 2 7 9
M  V30 9 1 7 10
M  V30 10 1 9 11
M  V30 11 2 10 12
M  V30 12 2 11 13
M  V30 13 1 6 8
M  V30 14 1 12 13
M  V30 15 1 2 14
M  V30 16 1 3 15
M  V30 17 1 4 16
M  V30 18 1 4 17
M  V30 19 1 5 18
M  V30 20 1 6 19
M  V30 21 1 8 20
M  V30 22 1 9 21
M  V30 23 1 10 22
M  V30 24 1 11 23
M  V30 25 1 12 24
M  V30 26 1 13 25
M  V30 END BOND
M  V30 END CTAB
M  END
>  <Structure No>
7677

>  <LogS>
-4.17

>  <MMFF94 Energy>
46.145

$$$$
Compound 7678
Actelion Java MolfileCreator 2.0

  0  0  0  0  0  0              0 V3000
M  V30 BEGIN CTAB
M  V30 COUNTS 23 25 0 0 0
M  V30 BEGIN ATOM
M  V30 1 C -0.6424 0.5621 0.0 0
M  V30 2 C 0.7975 0.4231 0.0229 0
M  V30 3 C -1.1967 -0.7029 -0.0686 0
M  V30 4 C -1.4346 1.71 0.0362 0
M  V30 5 C 1.1013 -0.9248 -0.0321 0
M  V30 6 C 1.793 1.3984 0.0875 0
M  V30 7 C -2.5815 -0.8737 -0.1045 0
M  V30 8 C -0.1392 -1.7685 -0.0957 0
M  V30 9 C -2.8299 1.5537 8.0E-4 0
M  V30 10 C 2.4281 -1.3575 -0.0247 0
M  V30 11 C 3.1329 0.9779 0.0957 0
M  V30 12 C -3.401 0.2673 -0.069 0
M  V30 13 C 3.4492 -0.3942 0.0397 0
M  V30 14 H -0.9904 2.6952 0.09 0
M  V30 15 H 1.544 2.4505 0.1304 0
M  V30 16 H -3.0157 -1.8636 -0.1581 0
M  V30 17 H -0.1798 -2.3447 -1.044 0
M  V30 18 H -0.217 -2.4283 0.7942 0
M  V30 19 H -3.4697 2.4261 0.0277 0
M  V30 20 H 2.6663 -2.4123 -0.0679 0
M  V30 21 H 3.9266 1.712 0.1452 0
M  V30 22 H -4.4774 0.1573 -0.0958 0
M  V30 23 H 4.4848 -0.7082 0.0466 0
M  V30 END ATOM
M  V30 BEGIN BOND
M  V30 1 1 1 2
M  V30 2 2 1 3
M  V30 3 1 1 4
M  V30 4 2 2 5
M  V30 5 1 2 6
M  V30 6 1 3 7
M  V30 7 1 3 8
M  V30 8 2 4 9
M  V30 9 1 5 10
M  V30 10 2 6 11
M  V30 11 2 7 12
M  V30 12 2 10 13
M  V30 13 1 5 8
M  V30 14 1 9 12
M  V30 15 1 11 13
M  V30 16 1 4 14
M  V30 17 1 6 15
M  V30 18 1 7 16
M  V30 19 1 8 17
M  V30 20 1 8 18
M  V30 21 1 9 19
M  V30 22 1 10 20
M  V30 23 1 11 21
M  V30 24 1 12 22
M  V30 25 1 13 23
M  V30 END BOND
M  V30 END CTAB
M  END
>  <Structure No>
7678

>  <LogS>
-4.91

>  <MMFF94 Energy>
52.353

$$$$
Compound 7679
Actelion Java MolfileCreator 2.0

  0  0  0  0  0  0              0 V3000
M  V30 BEGIN CTAB
M  V30 COUNTS 24 25 0 0 0
M  V30 BEGIN ATOM
M  V30 1 C 0.6328 -0.3164 0.0 0
M  V30 2 C -0.6109 0.3818 -0.0023 0
M  V30 3 C 1.8513 0.415 -0.0135 0
M  V30 4 C 0.6244 -1.726 0.0158 0
M  V30 5 C -1.8295 -0.3495 0.0112 0
M  V30 6 C -0.6026 1.7916 -0.0181 0
M  V30 7 C 1.8131 1.8175 -0.0289 0
M  V30 8 C 3.1951 -0.2704 -0.0117 0
M  V30 9 C -0.5765 -2.4303 0.0289 0
M  V30 10 C -1.7914 -1.7519 0.0268 0
M  V30 11 C -3.1734 0.336 0.0095 0
M  V30 12 C 0.5982 2.4959 -0.0311 0
M  V30 13 H 1.5417 -2.2988 0.0181 0
M  V30 14 H -1.52 2.3644 -0.0203 0
M  V30 15 H 2.7299 2.3942 -0.0393 0
M  V30 16 H 3.2997 -0.8917 0.9025 0
M  V30 17 H 4.0321 0.4599 -0.0234 0
M  V30 18 H 3.2917 -0.9121 -0.9125 0
M  V30 19 H -0.5655 -3.5127 0.041 0
M  V30 20 H -2.7082 -2.3285 0.0372 0
M  V30 21 H -3.27 0.9778 0.9104 0
M  V30 22 H -3.278 0.9574 -0.9046 0
M  V30 23 H -4.0106 -0.3942 0.0214 0
M  V30 24 H 0.5872 3.5784 -0.0431 0
M  V30 END ATOM
M  V30 BEGIN BOND
M  V30 1 1 1 2
M  V30 2 1 1 3
M  V30 3 2 1 4
M  V30 4 2 2 5
M  V30 5 1 2 6
M  V30 6 2 3 7
M  V30 7 1 3 8
M  V30 8 1 4 9
M  V30 9 1 5 10
M  V30 10 1 5 11
M  V30 11 2 6 12
M  V30 12 1 7 12
M  V30 13 2 9 10
M  V30 14 1 4 13
M  V30 15 1 6 14
M  V30 16 1 7 15
M  V30 17 1 8 16
M  V30 18 1 8 17
M  V30 19 1 8 18
M  V30 20 1 9 19
M  V30 21 1 10 20
M  V30 22 1 11 21
M  V30 23 1 11 22
M  V30 24 1 11 23
M  V30 25 1 12 24
M  V30 END BOND
M  V30 END CTAB
M  END
>  <Structure No>
7679

>  <LogS>
-4.74

>  <MMFF94 Energy>
40.995

$$$$
Compound 7680
Actelion Java MolfileCreator 2.0

  0  0  0  0  0  0              0 V3000
M  V30 BEGIN CTAB
M  V30 COUNTS 24 25 0 0 0
M  V30 BEGIN ATOM
M  V30 1 C -1.028 -0.7116 0.2371 0
M  V30 2 C -1.0488 0.6233 -0.2271 0
M  V30 3 C 0.1987 -1.3493 0.4631 0
M  V30 4 C -2.238 -1.3856 0.4685 0
M  V30 5 C 0.1573 1.2967 -0.4601 0
M  V30 6 C -2.2794 1.2618 -0.4511 0
M  V30 7 C 1.4105 -0.6752 0.2354 0
M  V30 8 C -3.4564 -0.7393 0.2413 0
M  V30 9 C 1.3896 0.6583 -0.2395 0
M  V30 10 C -3.477 0.5804 -0.2169 0
M  V30 11 C 2.711 -1.3938 0.4852 0
M  V30 12 C 2.6671 1.4145 -0.4967 0
M  V30 13 H 0.2109 -2.3735 0.8189 0
M  V30 14 H -2.2414 -2.409 0.8243 0
M  V30 15 H 0.1376 2.3208 -0.8159 0
M  V30 16 H -2.3148 2.2848 -0.8068 0
M  V30 17 H -4.3867 -1.2625 0.4211 0
M  V30 18 H -4.4233 1.0762 -0.391 0
M  V30 19 H 3.3385 -0.8099 1.1906 0
M  V30 20 H 3.2569 -1.5244 -0.4723 0
M  V30 21 H 2.5468 -2.3985 0.9296 0
M  V30 22 H 3.2145 1.5613 0.4576 0
M  V30 23 H 3.3073 0.8493 -1.2057 0
M  V30 24 H 2.471 2.4141 -0.9401 0
M  V30 END ATOM
M  V30 BEGIN BOND
M  V30 1 1 1 2
M  V30 2 1 1 3
M  V30 3 2 1 4
M  V30 4 1 2 5
M  V30 5 2 2 6
M  V30 6 2 3 7
M  V30 7 1 4 8
M  V30 8 2 5 9
M  V30 9 1 6 10
M  V30 10 1 7 11
M  V30 11 1 9 12
M  V30 12 1 7 9
M  V30 13 2 8 10
M  V30 14 1 3 13
M  V30 15 1 4 14
M  V30 16 1 5 15
M  V30 17 1 6 16
M  V30 18 1 8 17
M  V30 19 1 10 18
M  V30 20 1 11 19
M  V30 21 1 11 20
M  V30 22 1 11 21
M  V30 23 1 12 22
M  V30 24 1 12 23
M  V30 25 1 12 24
M  V30 END BOND
M  V30 END CTAB
M  END
>  <Structure No>
7680

>  <LogS>
-4.72

>  <MMFF94 Energy>
36.726

$$$$
Compound 7681
Actelion Java MolfileCreator 2.0

  0  0  0  0  0  0              0 V3000
M  V30 BEGIN CTAB
M  V30 COUNTS 22 24 0 0 0
M  V30 BEGIN ATOM
M  V30 1 C 1.2865 0.6431 0.0 0
M  V30 2 C 0.046 0.0155 -0.0188 0
M  V30 3 C 1.3072 2.0486 0.0536 0
M  V30 4 C 2.4322 -0.1722 -0.0357 0
M  V30 5 C -1.1364 0.6824 0.0113 0
M  V30 6 C -0.1161 -1.3317 -0.0696 0
M  V30 7 C 0.0862 2.764 0.086 0
M  V30 8 C 2.2862 -1.579 -0.0887 0
M  V30 9 C -1.1495 2.0794 0.0648 0
M  V30 10 C -2.2763 -0.287 -0.0209 0
M  V30 11 C 1.0026 -2.169 -0.106 0
M  V30 12 C -1.5729 -1.6757 -0.0767 0
M  V30 13 H 2.2473 2.5856 0.0704 0
M  V30 14 H 3.4218 0.2672 -0.0228 0
M  V30 15 H 0.099 3.8453 0.1272 0
M  V30 16 H 3.1658 -2.2087 -0.1163 0
M  V30 17 H -2.0844 2.6238 0.0894 0
M  V30 18 H -2.899 -0.1191 -0.9257 0
M  V30 19 H -2.8916 -0.1887 0.899 0
M  V30 20 H 0.888 -3.2441 -0.1466 0
M  V30 21 H -1.8356 -2.2181 -1.01 0
M  V30 22 H -1.8282 -2.2878 0.8145 0
M  V30 END ATOM
M  V30 BEGIN BOND
M  V30 1 1 1 2
M  V30 2 1 1 3
M  V30 3 2 1 4
M  V30 4 1 2 5
M  V30 5 2 2 6
M  V30 6 2 3 7
M  V30 7 1 4 8
M  V30 8 2 5 9
M  V30 9 1 5 10
M  V30 10 1 6 11
M  V30 11 1 6 12
M  V30 12 1 7 9
M  V30 13 2 8 11
M  V30 14 1 10 12
M  V30 15 1 3 13
M  V30 16 1 4 14
M  V30 17 1 7 15
M  V30 18 1 8 16
M  V30 19 1 9 17
M  V30 20 1 10 18
M  V30 21 1 10 19
M  V30 22 1 11 20
M  V30 23 1 12 21
M  V30 24 1 12 22
M  V30 END BOND
M  V30 END CTAB
M  END
>  <Structure No>
7681

>  <LogS>
-4.63

>  <MMFF94 Energy>
45.981

$$$$
Compound 7682
Actelion Java MolfileCreator 2.0

  0  0  0  0  0  0              0 V3000
M  V30 BEGIN CTAB
M  V30 COUNTS 27 29 0 0 0
M  V30 BEGIN ATOM
M  V30 1 C -1.2792 0.1598 -0.0799 0
M  V30 2 C -1.0844 -1.1279 0.4853 0
M  V30 3 C -0.1558 1.0107 -0.2978 0
M  V30 4 C -2.5981 0.5449 -0.4219 0
M  V30 5 C 0.2036 -1.5823 0.7745 0
M  V30 6 C -2.1857 -1.9606 0.7464 0
M  V30 7 C 1.1565 0.4883 -0.1022 0
M  V30 8 C -0.3543 2.4531 -0.7302 0
M  V30 9 C -3.6807 -0.2989 -0.163 0
M  V30 10 C 1.32 -0.8036 0.4633 0
M  V30 11 C -3.4766 -1.5431 0.4281 0
M  V30 12 C 2.3199 1.2081 -0.4671 0
M  V30 13 C 2.6069 -1.3143 0.7025 0
M  V30 14 C 3.5917 0.6817 -0.2297 0
M  V30 15 C 3.7351 -0.5705 0.362 0
M  V30 16 H -2.8131 1.4793 -0.919 0
M  V30 17 H 0.3404 -2.5673 1.2093 0
M  V30 18 H -2.0467 -2.9406 1.1879 0
M  V30 19 H -1.285 2.884 -0.3108 0
M  V30 20 H 0.4363 3.1161 -0.3268 0
M  V30 21 H -0.3733 2.5172 -1.8381 0
M  V30 22 H -4.683 0.0118 -0.4295 0
M  V30 23 H -4.3198 -2.1924 0.6265 0
M  V30 24 H 2.2706 2.1648 -0.9658 0
M  V30 25 H 2.7403 -2.295 1.144 0
M  V30 26 H 4.4708 1.2462 -0.5135 0
M  V30 27 H 4.7235 -0.9728 0.5435 0
M  V30 END ATOM
M  V30 BEGIN BOND
M  V30 1 1 1 2
M  V30 2 1 1 3
M  V30 3 2 1 4
M  V30 4 1 2 5
M  V30 5 2 2 6
M  V30 6 2 3 7
M  V30 7 1 3 8
M  V30 8 1 4 9
M  V30 9 2 5 10
M  V30 10 1 6 11
M  V30 11 1 7 12
M  V30 12 1 10 13
M  V30 13 2 12 14
M  V30 14 2 13 15
M  V30 15 1 7 10
M  V30 16 2 9 11
M  V30 17 1 14 15
M  V30 18 1 4 16
M  V30 19 1 5 17
M  V30 20 1 6 18
M  V30 21 1 8 19
M  V30 22 1 8 20
M  V30 23 1 8 21
M  V30 24 1 9 22
M  V30 25 1 11 23
M  V30 26 1 12 24
M  V30 27 1 13 25
M  V30 28 1 14 26
M  V30 29 1 15 27
M  V30 END BOND
M  V30 END CTAB
M  END
>  <Structure No>
7682

>  <LogS>
-5.89

>  <MMFF94 Energy>
53.142

$$$$
Compound 7683
Actelion Java MolfileCreator 2.0

  0  0  0  0  0  0              0 V3000
M  V30 BEGIN CTAB
M  V30 COUNTS 5 4 0 0 0
M  V30 BEGIN ATOM
M  V30 1 Cl -1.4444 0.9025 0.0 0
M  V30 2 C 0.0073 -0.1227 0.046 0
M  V30 3 Cl 1.4581 0.9048 0.0706 0
M  V30 4 H 0.0296 -0.7726 -0.8527 0
M  V30 5 H -0.0144 -0.7537 0.9583 0
M  V30 END ATOM
M  V30 BEGIN BOND
M  V30 1 1 1 2
M  V30 2 1 2 3
M  V30 3 1 2 4
M  V30 4 1 2 5
M  V30 END BOND
M  V30 END CTAB
M  END
>  <Structure No>
7683

>  <LogS>
-0.63

>  <MMFF94 Energy>
0.048507

$$$$
Compound 7684
Actelion Java MolfileCreator 2.0

  0  0  0  0  0  0              0 V3000
M  V30 BEGIN CTAB
M  V30 COUNTS 14 13 0 0 0
M  V30 BEGIN ATOM
M  V30 1 Cl -1.1821 0.0 -2.2075 0
M  V30 2 C -1.542 0.3587 -0.4966 0
M  V30 3 C -0.7435 -0.5469 0.4516 0
M  V30 4 C 0.6454 0.0077 0.8099 0
M  V30 5 C 1.6185 -0.0015 -0.3671 0
M  V30 6 H -2.627 0.1775 -0.3425 0
M  V30 7 H -1.3426 1.4316 -0.2888 0
M  V30 8 H -1.3182 -0.6401 1.399 0
M  V30 9 H -0.6541 -1.5707 0.0273 0
M  V30 10 H 1.0735 -0.6234 1.6185 0
M  V30 11 H 0.5532 1.0416 1.2079 0
M  V30 12 H 1.652 -1.0068 -0.8383 0
M  V30 13 H 1.323 0.7563 -1.1217 0
M  V30 14 H 2.6369 0.2538 -0.0057 0
M  V30 END ATOM
M  V30 BEGIN BOND
M  V30 1 1 1 2
M  V30 2 1 2 3
M  V30 3 1 3 4
M  V30 4 1 4 5
M  V30 5 1 2 6
M  V30 6 1 2 7
M  V30 7 1 3 8
M  V30 8 1 3 9
M  V30 9 1 4 10
M  V30 10 1 4 11
M  V30 11 1 5 12
M  V30 12 1 5 13
M  V30 13 1 5 14
M  V30 END BOND
M  V30 END CTAB
M  END
>  <Structure No>
7684

>  <LogS>
-2.03

>  <MMFF94 Energy>
-2.5523

$$$$
Compound 7685
Actelion Java MolfileCreator 2.0

  0  0  0  0  0  0              0 V3000
M  V30 BEGIN CTAB
M  V30 COUNTS 17 16 0 0 0
M  V30 BEGIN ATOM
M  V30 1 Cl -0.4077 -0.3262 2.1217 0
M  V30 2 C -0.5101 -0.0572 0.3503 0
M  V30 3 C 0.6926 -0.7329 -0.3826 0 CFG=2
M  V30 4 C -1.8394 -0.6567 -0.1466 0
M  V30 5 C -0.5377 1.4621 0.0963 0
M  V30 6 Cl 0.7542 -2.4975 -0.0662 0
M  V30 7 C 2.0579 -0.1336 -0.018 0
M  V30 8 H 0.5576 -0.6093 -1.4797 0
M  V30 9 H -2.7019 -0.1576 0.3458 0
M  V30 10 H -1.9037 -1.7392 0.0901 0
M  V30 11 H -1.9405 -0.5273 -1.2457 0
M  V30 12 H -1.4597 1.9137 0.5223 0
M  V30 13 H -0.5121 1.6774 -0.9935 0
M  V30 14 H 0.3241 1.9636 0.5835 0
M  V30 15 H 2.1411 0.911 -0.3822 0
M  V30 16 H 2.867 -0.7159 -0.508 0
M  V30 17 H 2.2245 -0.1576 1.079 0
M  V30 END ATOM
M  V30 BEGIN BOND
M  V30 1 1 1 2
M  V30 2 1 2 3
M  V30 3 1 2 4
M  V30 4 1 2 5
M  V30 5 1 3 6
M  V30 6 1 3 7
M  V30 7 1 3 8
M  V30 8 1 4 9
M  V30 9 1 4 10
M  V30 10 1 4 11
M  V30 11 1 5 12
M  V30 12 1 5 13
M  V30 13 1 5 14
M  V30 14 1 7 15
M  V30 15 1 7 16
M  V30 16 1 7 17
M  V30 END BOND
M  V30 BEGIN COLLECTION
M  V30 MDLV30/STEABS ATOMS=(1 3)
M  V30 END COLLECTION
M  V30 END CTAB
M  END
>  <Structure No>
7685

>  <LogS>
-2.69

>  <MMFF94 Energy>
18.014

$$$$
Compound 7686
Actelion Java MolfileCreator 2.0

  0  0  0  0  0  0              0 V3000
M  V30 BEGIN CTAB
M  V30 COUNTS 6 5 0 0 0
M  V30 BEGIN ATOM
M  V30 1 Cl -1.9305 0.7017 0.5262 0
M  V30 2 C -0.5747 -0.0655 -0.2837 0
M  V30 3 C 0.6526 0.0153 0.2296 0
M  V30 4 Cl 2.0084 -0.7519 -0.5803 0
M  V30 5 H -0.7496 -0.6064 -1.2083 0
M  V30 6 H 0.8275 0.5563 1.1542 0
M  V30 END ATOM
M  V30 BEGIN BOND
M  V30 1 1 1 2
M  V30 2 2 2 3
M  V30 3 1 3 4
M  V30 4 1 2 5
M  V30 5 1 3 6
M  V30 END BOND
M  V30 END CTAB
M  END
>  <Structure No>
7686

>  <LogS>
-1.3

>  <MMFF94 Energy>
0.52443

$$$$
Compound 7687
Actelion Java MolfileCreator 2.0

  0  0  0  0  0  0              0 V3000
M  V30 BEGIN CTAB
M  V30 COUNTS 6 5 0 0 0
M  V30 BEGIN ATOM
M  V30 1 Cl -1.8298 -1.1554 0.2887 0
M  V30 2 C -0.58 0.0281 -0.06 0
M  V30 3 Cl -1.0666 1.6059 -0.6702 0
M  V30 4 C 0.7047 -0.2863 0.1417 0
M  V30 5 Cl 2.0123 0.8459 -0.1843 0
M  V30 6 H 0.966 -1.2698 0.5194 0
M  V30 END ATOM
M  V30 BEGIN BOND
M  V30 1 1 1 2
M  V30 2 1 2 3
M  V30 3 2 2 4
M  V30 4 1 4 5
M  V30 5 1 4 6
M  V30 END BOND
M  V30 END CTAB
M  END
>  <Structure No>
7687

>  <LogS>
-1.96

>  <MMFF94 Energy>
2.1824

$$$$
Compound 7688
Actelion Java MolfileCreator 2.0

  0  0  0  0  0  0              0 V3000
M  V30 BEGIN CTAB
M  V30 COUNTS 10 9 0 0 0
M  V30 BEGIN ATOM
M  V30 1 Cl -2.0547 1.9568 -0.0977 0
M  V30 2 C -1.7983 0.2287 -0.3308 0
M  V30 3 Cl -3.2355 -0.6918 -0.7672 0
M  V30 4 C -0.593 -0.3648 -0.1891 0
M  V30 5 Cl -0.5024 -2.11 -0.4578 0
M  V30 6 C 0.6141 0.4396 0.1826 0
M  V30 7 C 1.8747 0.0051 0.3612 0
M  V30 8 Cl 3.1056 1.1786 0.7985 0
M  V30 9 Cl 2.4273 -1.655 0.1979 0
M  V30 10 H 0.4747 1.5018 0.3297 0
M  V30 END ATOM
M  V30 BEGIN BOND
M  V30 1 1 1 2
M  V30 2 1 2 3
M  V30 3 2 2 4
M  V30 4 1 4 5
M  V30 5 1 4 6
M  V30 6 2 6 7
M  V30 7 1 7 8
M  V30 8 1 7 9
M  V30 9 1 6 10
M  V30 END BOND
M  V30 END CTAB
M  END
>  <Structure No>
7688

>  <LogS>
-4.23

>  <MMFF94 Energy>
11.352

$$$$
Compound 7689
Actelion Java MolfileCreator 2.0

  0  0  0  0  0  0              0 V3000
M  V30 BEGIN CTAB
M  V30 COUNTS 22 23 0 0 0
M  V30 BEGIN ATOM
M  V30 1 Cl -3.6485 -2.3501 -1.4582 0
M  V30 2 C -2.7898 -1.0067 -0.7264 0
M  V30 3 C -1.3933 -1.0335 -0.6386 0
M  V30 4 C -3.5006 0.0918 -0.2351 0
M  V30 5 C -0.6941 0.0415 -0.0575 0
M  V30 6 C -2.8177 1.1637 0.3434 0
M  V30 7 C 0.788 0.0153 0.0368 0
M  V30 8 C -1.4228 1.1418 0.4327 0
M  V30 9 C 1.4627 -1.1721 0.3792 0
M  V30 10 C 1.542 1.1776 -0.2142 0
M  V30 11 C 2.858 -1.1937 0.4679 0
M  V30 12 C 2.9372 1.1498 -0.125 0
M  V30 13 C 3.5945 -0.0342 0.2157 0
M  V30 14 H -0.8565 -1.8841 -1.0396 0
M  V30 15 H -4.581 0.116 -0.3008 0
M  V30 16 H -3.37 2.0119 0.7268 0
M  V30 17 H -0.9158 1.9762 0.9007 0
M  V30 18 H 0.9111 -2.0783 0.5957 0
M  V30 19 H 1.0546 2.1024 -0.4966 0
M  V30 20 H 3.3683 -2.1099 0.7357 0
M  V30 21 H 3.5093 2.0469 -0.3239 0
M  V30 22 H 4.6745 -0.0533 0.2845 0
M  V30 END ATOM
M  V30 BEGIN BOND
M  V30 1 1 1 2
M  V30 2 2 2 3
M  V30 3 1 2 4
M  V30 4 1 3 5
M  V30 5 2 4 6
M  V30 6 1 5 7
M  V30 7 2 5 8
M  V30 8 2 7 9
M  V30 9 1 7 10
M  V30 10 1 9 11
M  V30 11 2 10 12
M  V30 12 2 11 13
M  V30 13 1 6 8
M  V30 14 1 12 13
M  V30 15 1 3 14
M  V30 16 1 4 15
M  V30 17 1 6 16
M  V30 18 1 8 17
M  V30 19 1 9 18
M  V30 20 1 10 19
M  V30 21 1 11 20
M  V30 22 1 12 21
M  V30 23 1 13 22
M  V30 END BOND
M  V30 END CTAB
M  END
>  <Structure No>
7689

>  <LogS>
-4.88

>  <MMFF94 Energy>
34.726

$$$$
Compound 7690
Actelion Java MolfileCreator 2.0

  0  0  0  0  0  0              0 V3000
M  V30 BEGIN CTAB
M  V30 COUNTS 22 23 0 0 0
M  V30 BEGIN ATOM
M  V30 1 Cl 0.497 -0.4141 2.8188 0
M  V30 2 C 1.4226 -0.2785 1.3263 0
M  V30 3 C 0.7944 -0.0438 0.0834 0
M  V30 4 C 2.8164 -0.3797 1.3977 0
M  V30 5 C 1.5885 0.0857 -1.0773 0
M  V30 6 C -0.6775 0.0648 -0.0017 0
M  V30 7 C 3.5923 -0.2503 0.2453 0
M  V30 8 Cl 0.87 0.3428 -2.6648 0
M  V30 9 C 2.981 -0.0184 -0.9872 0
M  V30 10 C -1.4844 -1.0621 0.223 0
M  V30 11 C -1.2796 1.296 -0.308 0
M  V30 12 C -2.8766 -0.9572 0.1423 0
M  V30 13 C -2.6721 1.3966 -0.3882 0
M  V30 14 C -3.47 0.271 -0.1631 0
M  V30 15 H 3.3011 -0.5548 2.3499 0
M  V30 16 H 4.6699 -0.3298 0.3077 0
M  V30 17 H 3.592 0.0757 -1.876 0
M  V30 18 H -1.0347 -2.0193 0.4572 0
M  V30 19 H -0.6708 2.1752 -0.4807 0
M  V30 20 H -3.4954 -1.8282 0.3158 0
M  V30 21 H -3.1328 2.3473 -0.6241 0
M  V30 22 H -4.5477 0.3507 -0.2255 0
M  V30 END ATOM
M  V30 BEGIN BOND
M  V30 1 1 1 2
M  V30 2 2 2 3
M  V30 3 1 2 4
M  V30 4 1 3 5
M  V30 5 1 3 6
M  V30 6 2 4 7
M  V30 7 1 5 8
M  V30 8 2 5 9
M  V30 9 2 6 10
M  V30 10 1 6 11
M  V30 11 1 10 12
M  V30 12 2 11 13
M  V30 13 2 12 14
M  V30 14 1 7 9
M  V30 15 1 13 14
M  V30 16 1 4 15
M  V30 17 1 7 16
M  V30 18 1 9 17
M  V30 19 1 10 18
M  V30 20 1 11 19
M  V30 21 1 12 20
M  V30 22 1 13 21
M  V30 23 1 14 22
M  V30 END BOND
M  V30 END CTAB
M  END
>  <Structure No>
7690

>  <LogS>
-5.21

>  <MMFF94 Energy>
47.322

$$$$
Compound 7691
Actelion Java MolfileCreator 2.0

  0  0  0  0  0  0              0 V3000
M  V30 BEGIN CTAB
M  V30 COUNTS 22 23 0 0 0
M  V30 BEGIN ATOM
M  V30 1 Cl -5.2591 0.3387 -0.3387 0
M  V30 2 C -3.5089 0.2216 -0.2145 0
M  V30 3 C -2.8157 -0.8864 -0.7247 0
M  V30 4 C -2.8042 1.2533 0.4128 0
M  V30 5 Cl -3.6647 -2.2076 -1.5158 0
M  V30 6 C -1.4232 -0.9494 -0.6088 0
M  V30 7 C -1.4109 1.1954 0.5313 0
M  V30 8 C -0.7066 0.0889 0.0093 0
M  V30 9 Cl -0.5952 2.4948 1.3964 0
M  V30 10 C 0.7676 -0.0081 0.0991 0
M  V30 11 C 1.366 -1.1274 0.7026 0
M  V30 12 C 1.5847 0.9947 -0.4505 0
M  V30 13 C 2.7587 -1.2299 0.7732 0
M  V30 14 C 2.977 0.888 -0.3778 0
M  V30 15 C 3.5634 -0.2222 0.2353 0
M  V30 16 H -3.3429 2.1008 0.8185 0
M  V30 17 H -0.896 -1.8052 -1.0135 0
M  V30 18 H 0.7542 -1.9149 1.1257 0
M  V30 19 H 1.1442 1.8527 -0.9433 0
M  V30 20 H 3.2141 -2.0913 1.2446 0
M  V30 21 H 3.6014 1.6643 -0.801 0
M  V30 22 H 4.6413 -0.3035 0.2898 0
M  V30 END ATOM
M  V30 BEGIN BOND
M  V30 1 1 1 2
M  V30 2 2 2 3
M  V30 3 1 2 4
M  V30 4 1 3 5
M  V30 5 1 3 6
M  V30 6 2 4 7
M  V30 7 2 6 8
M  V30 8 1 7 9
M  V30 9 1 8 10
M  V30 10 2 10 11
M  V30 11 1 10 12
M  V30 12 1 11 13
M  V30 13 2 12 14
M  V30 14 2 13 15
M  V30 15 1 7 8
M  V30 16 1 14 15
M  V30 17 1 4 16
M  V30 18 1 6 17
M  V30 19 1 11 18
M  V30 20 1 12 19
M  V30 21 1 13 20
M  V30 22 1 14 21
M  V30 23 1 15 22
M  V30 END BOND
M  V30 END CTAB
M  END
>  <Structure No>
7691

>  <LogS>
-6.27

>  <MMFF94 Energy>
43.032

$$$$
Compound 7692
Actelion Java MolfileCreator 2.0

  0  0  0  0  0  0              0 V3000
M  V30 BEGIN CTAB
M  V30 COUNTS 22 23 0 0 0
M  V30 BEGIN ATOM
M  V30 1 Cl 5.3314 0.0 -0.2706 0
M  V30 2 C 3.5762 0.0053 -0.1641 0
M  V30 3 C 2.8588 1.2043 -0.0268 0
M  V30 4 C 2.8908 -1.2126 -0.2159 0
M  V30 5 Cl 3.6818 2.7567 0.0423 0
M  V30 6 C 1.4628 1.1741 0.0557 0
M  V30 7 C 1.4943 -1.2468 -0.1331 0
M  V30 8 C 0.7703 -0.0456 0.0051 0
M  V30 9 Cl 0.6869 -2.8111 -0.1686 0
M  V30 10 C -0.7062 -0.043 0.0805 0
M  V30 11 C -1.3786 0.3396 1.2585 0
M  V30 12 C -1.4524 -0.4136 -1.0491 0
M  V30 13 Cl -0.5006 0.7823 2.7189 0
M  V30 14 C -2.7776 0.3445 1.2916 0
M  V30 15 C -2.8507 -0.408 -1.0121 0
M  V30 16 C -3.5164 -0.0262 0.1634 0
M  V30 17 Cl -3.7419 -0.8811 -2.4521 0
M  V30 18 Cl -5.2726 -0.0063 0.2515 0
M  V30 19 H 3.4458 -2.1368 -0.3165 0
M  V30 20 H 0.9142 2.1034 0.1549 0
M  V30 21 H -0.9444 -0.7026 -1.9614 0
M  V30 22 H -3.2926 0.6337 2.1992 0
M  V30 END ATOM
M  V30 BEGIN BOND
M  V30 1 1 1 2
M  V30 2 2 2 3
M  V30 3 1 2 4
M  V30 4 1 3 5
M  V30 5 1 3 6
M  V30 6 2 4 7
M  V30 7 2 6 8
M  V30 8 1 7 9
M  V30 9 1 8 10
M  V30 10 2 10 11
M  V30 11 1 10 12
M  V30 12 1 11 13
M  V30 13 1 11 14
M  V30 14 2 12 15
M  V30 15 2 14 16
M  V30 16 1 15 17
M  V30 17 1 16 18
M  V30 18 1 7 8
M  V30 19 1 15 16
M  V30 20 1 4 19
M  V30 21 1 6 20
M  V30 22 1 12 21
M  V30 23 1 14 22
M  V30 END BOND
M  V30 END CTAB
M  END
>  <Structure No>
7692

>  <LogS>
-8.56

>  <MMFF94 Energy>
44.42

$$$$
Compound 7693
Actelion Java MolfileCreator 2.0

  0  0  0  0  0  0              0 V3000
M  V30 BEGIN CTAB
M  V30 COUNTS 22 23 0 0 0
M  V30 BEGIN ATOM
M  V30 1 Cl 0.5411 -2.6175 0.902 0
M  V30 2 C 1.4297 -1.2262 0.2774 0
M  V30 3 C 2.8276 -1.2889 0.1314 0
M  V30 4 C 0.7451 -0.0459 -0.0778 0
M  V30 5 Cl 3.7266 -2.7384 0.5609 0
M  V30 6 C 3.5295 -0.1846 -0.3637 0
M  V30 7 C -0.7215 0.0569 0.0616 0
M  V30 8 C 1.4613 1.0532 -0.5728 0
M  V30 9 C 2.849 0.9837 -0.715 0
M  V30 10 C -1.5645 -0.3166 -1.0044 0
M  V30 11 C -1.2895 0.5302 1.2619 0
M  V30 12 Cl 3.7369 2.3635 -1.335 0
M  V30 13 Cl -0.9089 -0.9141 -2.5251 0
M  V30 14 C -2.9532 -0.2181 -0.8646 0
M  V30 15 Cl -0.2839 1.01 2.6252 0
M  V30 16 C -2.6799 0.6234 1.3877 0
M  V30 17 C -3.5103 0.2502 0.328 0
M  V30 18 Cl -5.2523 0.3699 0.4947 0
M  V30 19 H 4.6053 -0.2345 -0.4754 0
M  V30 20 H 0.9392 1.9622 -0.847 0
M  V30 21 H -3.6001 -0.5064 -1.6837 0
M  V30 22 H -3.1154 0.986 2.3105 0
M  V30 END ATOM
M  V30 BEGIN BOND
M  V30 1 1 1 2
M  V30 2 2 2 3
M  V30 3 1 2 4
M  V30 4 1 3 5
M  V30 5 1 3 6
M  V30 6 1 4 7
M  V30 7 2 4 8
M  V30 8 2 6 9
M  V30 9 2 7 10
M  V30 10 1 7 11
M  V30 11 1 9 12
M  V30 12 1 10 13
M  V30 13 1 10 14
M  V30 14 1 11 15
M  V30 15 2 11 16
M  V30 16 2 14 17
M  V30 17 1 17 18
M  V30 18 1 8 9
M  V30 19 1 16 17
M  V30 20 1 6 19
M  V30 21 1 8 20
M  V30 22 1 14 21
M  V30 23 1 16 22
M  V30 END BOND
M  V30 END CTAB
M  END
>  <Structure No>
7693

>  <LogS>
-8.71

>  <MMFF94 Energy>
27.033

$$$$
Compound 7694
Actelion Java MolfileCreator 2.0

  0  0  0  0  0  0              0 V3000
M  V30 BEGIN CTAB
M  V30 COUNTS 15 14 0 0 0
M  V30 BEGIN ATOM
M  V30 1 O 1.7471 -0.1518 0.8353 0
M  V30 2 C 1.2165 0.1674 -0.4223 0
M  V30 3 C -0.3204 0.1312 -0.3908 0
M  V30 4 C -0.8371 -1.272 -0.0498 0
M  V30 5 C -0.8815 1.1698 0.5885 0
M  V30 6 H 2.7335 -0.1082 0.7371 0
M  V30 7 H 1.5556 1.1835 -0.7255 0
M  V30 8 H 1.5873 -0.5582 -1.1808 0
M  V30 9 H -0.6867 0.3907 -1.4087 0
M  V30 10 H -0.4443 -2.0123 -0.7787 0
M  V30 11 H -1.9466 -1.2925 -0.1009 0
M  V30 12 H -0.5223 -1.5722 0.9725 0
M  V30 13 H -0.5681 0.9419 1.6298 0
M  V30 14 H -0.5206 2.1851 0.3186 0
M  V30 15 H -1.9916 1.175 0.5442 0
M  V30 END ATOM
M  V30 BEGIN BOND
M  V30 1 1 1 2
M  V30 2 1 2 3
M  V30 3 1 3 4
M  V30 4 1 3 5
M  V30 5 1 1 6
M  V30 6 1 2 7
M  V30 7 1 2 8
M  V30 8 1 3 9
M  V30 9 1 4 10
M  V30 10 1 4 11
M  V30 11 1 4 12
M  V30 12 1 5 13
M  V30 13 1 5 14
M  V30 14 1 5 15
M  V30 END BOND
M  V30 END CTAB
M  END
>  <Structure No>
7694

>  <LogS>
0.04

>  <MMFF94 Energy>
2.8559

$$$$
Compound 7695
Actelion Java MolfileCreator 2.0

  0  0  0  0  0  0              0 V3000
M  V30 BEGIN CTAB
M  V30 COUNTS 21 20 0 0 0
M  V30 BEGIN ATOM
M  V30 1 O -2.686 -0.1533 1.5342 0
M  V30 2 C -1.3969 0.2898 1.2084 0
M  V30 3 C -0.9658 -0.285 -0.1551 0 CFG=2
M  V30 4 C 0.4717 0.1458 -0.5304 0
M  V30 5 C -1.9427 0.16 -1.2551 0
M  V30 6 C 1.5457 -0.5319 0.3355 0
M  V30 7 C 2.9476 -0.2115 -0.176 0
M  V30 8 H -2.914 0.2725 2.4013 0
M  V30 9 H -0.6977 -0.0481 2.0024 0
M  V30 10 H -1.3794 1.4029 1.1717 0
M  V30 11 H -1.0045 -1.3958 -0.0998 0
M  V30 12 H 0.5689 1.2512 -0.4486 0
M  V30 13 H 0.6628 -0.1297 -1.5916 0
M  V30 14 H -2.9727 -0.1876 -1.0279 0
M  V30 15 H -1.649 -0.2793 -2.2323 0
M  V30 16 H -1.9492 1.2674 -1.3481 0
M  V30 17 H 1.4033 -1.6342 0.3203 0
M  V30 18 H 1.4728 -0.1794 1.3853 0
M  V30 19 H 3.1221 0.8854 -0.1604 0
M  V30 20 H 3.0769 -0.5892 -1.2125 0
M  V30 21 H 3.702 -0.7005 0.4756 0
M  V30 END ATOM
M  V30 BEGIN BOND
M  V30 1 1 1 2
M  V30 2 1 2 3
M  V30 3 1 3 4
M  V30 4 1 3 5
M  V30 5 1 4 6
M  V30 6 1 6 7
M  V30 7 1 1 8
M  V30 8 1 2 9
M  V30 9 1 2 10
M  V30 10 1 3 11
M  V30 11 1 4 12
M  V30 12 1 4 13
M  V30 13 1 5 14
M  V30 14 1 5 15
M  V30 15 1 5 16
M  V30 16 1 6 17
M  V30 17 1 6 18
M  V30 18 1 7 19
M  V30 19 1 7 20
M  V30 20 1 7 21
M  V30 END BOND
M  V30 BEGIN COLLECTION
M  V30 MDLV30/STEABS ATOMS=(1 3)
M  V30 END COLLECTION
M  V30 END CTAB
M  END
>  <Structure No>
7695

>  <LogS>
-1.11

>  <MMFF94 Energy>
3.7129

$$$$
Compound 7696
Actelion Java MolfileCreator 2.0

  0  0  0  0  0  0              0 V3000
M  V30 BEGIN CTAB
M  V30 COUNTS 21 20 0 0 0
M  V30 BEGIN ATOM
M  V30 1 O -2.306 -0.384 0.9218 0
M  V30 2 C -1.0725 -0.8841 0.4789 0
M  V30 3 C -0.2275 0.2357 -0.1819 0
M  V30 4 C 1.0794 -0.3501 -0.7983 0
M  V30 5 C -1.0405 0.8771 -1.3295 0
M  V30 6 C 0.1014 1.3302 0.8577 0
M  V30 7 C 2.0328 -1.0244 0.195 0
M  V30 8 H -2.7938 -1.1553 1.3119 0
M  V30 9 H -0.53 -1.3114 1.3505 0
M  V30 10 H -1.2488 -1.7029 -0.2551 0
M  V30 11 H 0.8163 -1.0979 -1.5788 0
M  V30 12 H 1.6427 0.4623 -1.3087 0
M  V30 13 H -0.4459 1.6669 -1.8376 0
M  V30 14 H -1.3221 0.1124 -2.0853 0
M  V30 15 H -1.9726 1.3476 -0.9491 0
M  V30 16 H 0.7909 2.0868 0.4253 0
M  V30 17 H -0.8231 1.8531 1.1847 0
M  V30 18 H 0.5736 0.8956 1.7633 0
M  V30 19 H 1.5601 -1.9087 0.6681 0
M  V30 20 H 2.3702 -0.3126 0.9753 0
M  V30 21 H 2.933 -1.3775 -0.3507 0
M  V30 END ATOM
M  V30 BEGIN BOND
M  V30 1 1 1 2
M  V30 2 1 2 3
M  V30 3 1 3 4
M  V30 4 1 3 5
M  V30 5 1 3 6
M  V30 6 1 4 7
M  V30 7 1 1 8
M  V30 8 1 2 9
M  V30 9 1 2 10
M  V30 10 1 4 11
M  V30 11 1 4 12
M  V30 12 1 5 13
M  V30 13 1 5 14
M  V30 14 1 5 15
M  V30 15 1 6 16
M  V30 16 1 6 17
M  V30 17 1 6 18
M  V30 18 1 7 19
M  V30 19 1 7 20
M  V30 20 1 7 21
M  V30 END BOND
M  V30 END CTAB
M  END
>  <Structure No>
7696

>  <LogS>
-1.04

>  <MMFF94 Energy>
13.624

$$$$
Compound 7697
Actelion Java MolfileCreator 2.0

  0  0  0  0  0  0              0 V3000
M  V30 BEGIN CTAB
M  V30 COUNTS 21 20 0 0 0
M  V30 BEGIN ATOM
M  V30 1 O -1.6889 -1.6889 0.9977 0
M  V30 2 C -0.706 -1.5728 0.0041 0
M  V30 3 C 0.1112 -0.2679 0.1717 0
M  V30 4 C 1.4351 -0.3894 -0.624 0
M  V30 5 C -0.6936 0.9777 -0.2848 0
M  V30 6 C 2.4426 0.7159 -0.2994 0
M  V30 7 C -1.955 1.2294 0.5423 0
M  V30 8 H -1.2179 -1.9253 1.8391 0
M  V30 9 H -1.1974 -1.5875 -0.9921 0
M  V30 10 H -0.0424 -2.4665 0.0503 0
M  V30 11 H 0.3701 -0.1552 1.2485 0
M  V30 12 H 1.227 -0.3893 -1.7164 0
M  V30 13 H 1.9259 -1.3563 -0.3773 0
M  V30 14 H -0.974 0.8812 -1.3564 0
M  V30 15 H -0.0624 1.8843 -0.1842 0
M  V30 16 H 2.1201 1.6872 -0.7266 0
M  V30 17 H 3.4256 0.4609 -0.7487 0
M  V30 18 H 2.5746 0.8158 0.7987 0
M  V30 19 H -2.3561 2.2379 0.3068 0
M  V30 20 H -1.726 1.1864 1.6283 0
M  V30 21 H -2.742 0.4882 0.2931 0
M  V30 END ATOM
M  V30 BEGIN BOND
M  V30 1 1 1 2
M  V30 2 1 2 3
M  V30 3 1 3 4
M  V30 4 1 3 5
M  V30 5 1 4 6
M  V30 6 1 5 7
M  V30 7 1 1 8
M  V30 8 1 2 9
M  V30 9 1 2 10
M  V30 10 1 3 11
M  V30 11 1 4 12
M  V30 12 1 4 13
M  V30 13 1 5 14
M  V30 14 1 5 15
M  V30 15 1 6 16
M  V30 16 1 6 17
M  V30 17 1 6 18
M  V30 18 1 7 19
M  V30 19 1 7 20
M  V30 20 1 7 21
M  V30 END BOND
M  V30 END CTAB
M  END
>  <Structure No>
7697

>  <LogS>
-1.17

>  <MMFF94 Energy>
4.7025

$$$$
Compound 7698
Actelion Java MolfileCreator 2.0

  0  0  0  0  0  0              0 V3000
M  V30 BEGIN CTAB
M  V30 COUNTS 24 23 0 0 0
M  V30 BEGIN ATOM
M  V30 1 O -0.6169 -1.0798 1.3113 0
M  V30 2 C -0.8719 -0.4116 0.0986 0
M  V30 3 C 0.2721 0.6464 -0.2111 0 CFG=2
M  V30 4 C -0.9362 -1.4728 -1.022 0
M  V30 5 C -2.2857 0.2215 0.1718 0
M  V30 6 C 1.6735 0.2639 0.3513 0
M  V30 7 C -0.0561 2.0664 0.3 0
M  V30 8 C 2.2704 -1.0183 -0.2225 0
M  V30 9 H -0.6403 -0.4039 2.0385 0
M  V30 10 H 0.3741 0.746 -1.3153 0
M  V30 11 H -1.7422 -2.2095 -0.8136 0
M  V30 12 H 1.0E-4 -2.049 -1.1148 0
M  V30 13 H -1.1485 -0.9956 -2.0032 0
M  V30 14 H -2.5264 0.7585 -0.7708 0
M  V30 15 H -2.3709 0.9271 1.0247 0
M  V30 16 H -3.0564 -0.5633 0.3315 0
M  V30 17 H 2.3897 1.0805 0.1103 0
M  V30 18 H 1.6416 0.1866 1.4595 0
M  V30 19 H -0.2365 2.0571 1.3961 0
M  V30 20 H -0.9431 2.4833 -0.2205 0
M  V30 21 H 0.7825 2.7642 0.0892 0
M  V30 22 H 3.3503 -1.0666 0.0322 0
M  V30 23 H 2.1735 -1.0367 -1.3285 0
M  V30 24 H 1.7861 -1.9082 0.2287 0
M  V30 END ATOM
M  V30 BEGIN BOND
M  V30 1 1 1 2
M  V30 2 1 2 3
M  V30 3 1 2 4
M  V30 4 1 2 5
M  V30 5 1 3 6
M  V30 6 1 3 7
M  V30 7 1 6 8
M  V30 8 1 1 9
M  V30 9 1 3 10
M  V30 10 1 4 11
M  V30 11 1 4 12
M  V30 12 1 4 13
M  V30 13 1 5 14
M  V30 14 1 5 15
M  V30 15 1 5 16
M  V30 16 1 6 17
M  V30 17 1 6 18
M  V30 18 1 7 19
M  V30 19 1 7 20
M  V30 20 1 7 21
M  V30 21 1 8 22
M  V30 22 1 8 23
M  V30 23 1 8 24
M  V30 END BOND
M  V30 BEGIN COLLECTION
M  V30 MDLV30/STEABS ATOMS=(1 3)
M  V30 END COLLECTION
M  V30 END CTAB
M  END
>  <Structure No>
7698

>  <LogS>
-0.89

>  <MMFF94 Energy>
17.239

$$$$
Compound 7699
Actelion Java MolfileCreator 2.0

  0  0  0  0  0  0              0 V3000
M  V30 BEGIN CTAB
M  V30 COUNTS 24 23 0 0 0
M  V30 BEGIN ATOM
M  V30 1 O -0.5394 0.3082 -1.4647 0
M  V30 2 C -0.0878 -0.2256 -0.2375 0
M  V30 3 C 0.9394 0.7365 0.4477 0
M  V30 4 C -1.3201 -0.4709 0.6994 0
M  V30 5 C 0.5812 -1.6095 -0.504 0
M  V30 6 C 0.3824 2.1181 0.794 0
M  V30 7 C -2.5296 0.4305 0.419 0
M  V30 8 C 1.8031 -1.5852 -1.4293 0
M  V30 9 H 0.2344 0.6939 -1.9509 0
M  V30 10 H 1.8076 0.9033 -0.2233 0
M  V30 11 H 1.331 0.2695 1.3782 0
M  V30 12 H -1.0247 -0.3582 1.7655 0
M  V30 13 H -1.6894 -1.5157 0.6004 0
M  V30 14 H -0.1667 -2.289 -0.9698 0
M  V30 15 H 0.8857 -2.0679 0.463 0
M  V30 16 H 1.2143 2.779 1.1178 0
M  V30 17 H -0.3379 2.0509 1.6352 0
M  V30 18 H -0.104 2.5799 -0.0906 0
M  V30 19 H -2.2602 1.5038 0.4422 0
M  V30 20 H -2.965 0.1905 -0.574 0
M  V30 21 H -3.3095 0.2509 1.189 0
M  V30 22 H 2.1332 -2.6283 -1.6197 0
M  V30 23 H 1.5577 -1.1243 -2.4079 0
M  V30 24 H 2.6527 -1.0498 -0.9593 0
M  V30 END ATOM
M  V30 BEGIN BOND
M  V30 1 1 1 2
M  V30 2 1 2 3
M  V30 3 1 2 4
M  V30 4 1 2 5
M  V30 5 1 3 6
M  V30 6 1 4 7
M  V30 7 1 5 8
M  V30 8 1 1 9
M  V30 9 1 3 10
M  V30 10 1 3 11
M  V30 11 1 4 12
M  V30 12 1 4 13
M  V30 13 1 5 14
M  V30 14 1 5 15
M  V30 15 1 6 16
M  V30 16 1 6 17
M  V30 17 1 6 18
M  V30 18 1 7 19
M  V30 19 1 7 20
M  V30 20 1 7 21
M  V30 21 1 8 22
M  V30 22 1 8 23
M  V30 23 1 8 24
M  V30 END BOND
M  V30 END CTAB
M  END
>  <Structure No>
7699

>  <LogS>
-0.85

>  <MMFF94 Energy>
14.62

$$$$
Compound 7700
Actelion Java MolfileCreator 2.0

  0  0  0  0  0  0              0 V3000
M  V30 BEGIN CTAB
M  V30 COUNTS 10 9 0 0 0
M  V30 BEGIN ATOM
M  V30 1 O -2.1939 0.1511 0.756 0
M  V30 2 C -1.3751 -0.1389 -0.1015 0
M  V30 3 C -0.0827 0.6129 -0.2039 0
M  V30 4 C 1.0917 -0.2918 0.1483 0
M  V30 5 H -1.5802 -0.958 -0.7833 0
M  V30 6 H -0.091 1.4881 0.4821 0
M  V30 7 H 0.0368 0.9854 -1.2435 0
M  V30 8 H 2.0397 0.2803 0.0644 0
M  V30 9 H 1.1357 -1.1566 -0.5479 0
M  V30 10 H 0.9919 -0.6641 1.1907 0
M  V30 END ATOM
M  V30 BEGIN BOND
M  V30 1 2 1 2
M  V30 2 1 2 3
M  V30 3 1 3 4
M  V30 4 1 2 5
M  V30 5 1 3 6
M  V30 6 1 3 7
M  V30 7 1 4 8
M  V30 8 1 4 9
M  V30 9 1 4 10
M  V30 END BOND
M  V30 END CTAB
M  END
>  <Structure No>
7700

>  <LogS>
0.58

>  <MMFF94 Energy>
-0.93544

$$$$
Compound 7701
Actelion Java MolfileCreator 2.0

  0  0  0  0  0  0              0 V3000
M  V30 BEGIN CTAB
M  V30 COUNTS 16 15 0 0 0
M  V30 BEGIN ATOM
M  V30 1 O 2.8413 0.3068 -0.3835 0
M  V30 2 C 1.9075 0.8465 0.1883 0
M  V30 3 C 0.9591 0.0397 1.0259 0
M  V30 4 C 0.1721 -0.9839 0.1916 0
M  V30 5 C -0.7277 -0.3541 -0.8867 0
M  V30 6 C -1.8958 0.436 -0.2977 0
M  V30 7 H 1.7709 1.9191 0.0976 0
M  V30 8 H 0.262 0.72 1.5581 0
M  V30 9 H 1.5436 -0.5009 1.801 0
M  V30 10 H -0.4512 -1.6013 0.8746 0
M  V30 11 H 0.89 -1.6744 -0.3028 0
M  V30 12 H -0.1323 0.3041 -1.555 0
M  V30 13 H -1.1435 -1.1725 -1.5135 0
M  V30 14 H -2.58 0.7468 -1.1151 0
M  V30 15 H -1.5328 1.3516 0.2131 0
M  V30 16 H -2.4663 -0.1895 0.4214 0
M  V30 END ATOM
M  V30 BEGIN BOND
M  V30 1 2 1 2
M  V30 2 1 2 3
M  V30 3 1 3 4
M  V30 4 1 4 5
M  V30 5 1 5 6
M  V30 6 1 2 7
M  V30 7 1 3 8
M  V30 8 1 3 9
M  V30 9 1 4 10
M  V30 10 1 4 11
M  V30 11 1 5 12
M  V30 12 1 5 13
M  V30 13 1 6 14
M  V30 14 1 6 15
M  V30 15 1 6 16
M  V30 END BOND
M  V30 END CTAB
M  END
>  <Structure No>
7701

>  <LogS>
-0.85

>  <MMFF94 Energy>
-1.9062

$$$$
Compound 7702
Actelion Java MolfileCreator 2.0

  0  0  0  0  0  0              0 V3000
M  V30 BEGIN CTAB
M  V30 COUNTS 19 18 0 0 0
M  V30 BEGIN ATOM
M  V30 1 O 3.3906 0.3848 1.3859 0
M  V30 2 C 2.9781 0.8981 0.3579 0
M  V30 3 C 1.9756 0.1851 -0.4987 0
M  V30 4 C 0.6391 0.0286 0.235 0
M  V30 5 C -0.3976 -0.6708 -0.6563 0
M  V30 6 C -1.7133 -0.9594 0.0827 0
M  V30 7 C -2.518 0.3068 0.3743 0
M  V30 8 H 3.3524 1.8714 0.058 0
M  V30 9 H 2.3796 -0.8129 -0.7747 0
M  V30 10 H 1.8209 0.7706 -1.4309 0
M  V30 11 H 0.2675 1.0359 0.5218 0
M  V30 12 H 0.7945 -0.57 1.1596 0
M  V30 13 H 0.0216 -1.6416 -1.0006 0
M  V30 14 H -0.6006 -0.0527 -1.5584 0
M  V30 15 H -1.5085 -1.4981 1.0334 0
M  V30 16 H -2.3339 -1.6267 -0.5537 0
M  V30 17 H -3.5049 0.0266 0.799 0
M  V30 18 H -2.6868 0.8841 -0.5594 0
M  V30 19 H -1.993 0.945 1.1146 0
M  V30 END ATOM
M  V30 BEGIN BOND
M  V30 1 2 1 2
M  V30 2 1 2 3
M  V30 3 1 3 4
M  V30 4 1 4 5
M  V30 5 1 5 6
M  V30 6 1 6 7
M  V30 7 1 2 8
M  V30 8 1 3 9
M  V30 9 1 3 10
M  V30 10 1 4 11
M  V30 11 1 4 12
M  V30 12 1 5 13
M  V30 13 1 5 14
M  V30 14 1 6 15
M  V30 15 1 6 16
M  V30 16 1 7 17
M  V30 17 1 7 18
M  V30 18 1 7 19
M  V30 END BOND
M  V30 END CTAB
M  END
>  <Structure No>
7702

>  <LogS>
-1.3

>  <MMFF94 Energy>
-1.0125

$$$$
Compound 7703
Actelion Java MolfileCreator 2.0

  0  0  0  0  0  0              0 V3000
M  V30 BEGIN CTAB
M  V30 COUNTS 11 10 0 0 0
M  V30 BEGIN ATOM
M  V30 1 O 2.9616 0.9105 -0.2275 0
M  V30 2 C 2.0363 0.0638 -0.3313 0
M  V30 3 C 0.6472 0.463 -0.0823 0
M  V30 4 C -0.352 -0.4145 -0.1856 0
M  V30 5 C -1.7662 -0.0028 0.0691 0
M  V30 6 H 2.2781 -0.9554 -0.6048 0
M  V30 7 H 0.4384 1.4914 0.1897 0
M  V30 8 H -0.1498 -1.4442 -0.4573 0
M  V30 9 H -2.4407 -0.8737 -0.0681 0
M  V30 10 H -1.8709 0.3714 1.1094 0
M  V30 11 H -2.0628 0.7961 -0.6429 0
M  V30 END ATOM
M  V30 BEGIN BOND
M  V30 1 2 1 2
M  V30 2 1 2 3
M  V30 3 2 3 4
M  V30 4 1 4 5
M  V30 5 1 2 6
M  V30 6 1 3 7
M  V30 7 1 4 8
M  V30 8 1 5 9
M  V30 9 1 5 10
M  V30 10 1 5 11
M  V30 END BOND
M  V30 END CTAB
M  END
>  <Structure No>
7703

>  <LogS>
0.32

>  <MMFF94 Energy>
7.4615

$$$$
Compound 7704
Actelion Java MolfileCreator 2.0

  0  0  0  0  0  0              0 V3000
M  V30 BEGIN CTAB
M  V30 COUNTS 13 12 0 0 0
M  V30 BEGIN ATOM
M  V30 1 O 0.5337 0.6099 -1.7544 0
M  V30 2 C 0.6066 0.3662 -0.5593 0
M  V30 3 C -0.6236 0.4653 0.2998 0
M  V30 4 C 1.9269 -0.0056 0.0447 0
M  V30 5 C -1.6443 -0.6008 -0.0839 0
M  V30 6 H -1.0755 1.4732 0.179 0
M  V30 7 H -0.3546 0.3361 1.3707 0
M  V30 8 H 2.7144 -0.062 -0.7367 0
M  V30 9 H 1.8437 -0.995 0.5409 0
M  V30 10 H 2.2207 0.7568 0.796 0
M  V30 11 H -2.5345 -0.517 0.5745 0
M  V30 12 H -1.2056 -1.6143 0.0377 0
M  V30 13 H -1.9692 -0.4651 -1.1376 0
M  V30 END ATOM
M  V30 BEGIN BOND
M  V30 1 2 1 2
M  V30 2 1 2 3
M  V30 3 1 2 4
M  V30 4 1 3 5
M  V30 5 1 3 6
M  V30 6 1 3 7
M  V30 7 1 4 8
M  V30 8 1 4 9
M  V30 9 1 4 10
M  V30 10 1 5 11
M  V30 11 1 5 12
M  V30 12 1 5 13
M  V30 END BOND
M  V30 END CTAB
M  END
>  <Structure No>
7704

>  <LogS>
0.52

>  <MMFF94 Energy>
0.45496

$$$$
Compound 7705
Actelion Java MolfileCreator 2.0

  0  0  0  0  0  0              0 V3000
M  V30 BEGIN CTAB
M  V30 COUNTS 16 15 0 0 0
M  V30 BEGIN ATOM
M  V30 1 O 0.8435 -1.1504 1.7644 0
M  V30 2 C 1.0306 -0.3612 0.8511 0
M  V30 3 C 0.1522 0.856 0.7259 0
M  V30 4 C 2.1136 -0.6379 -0.1479 0
M  V30 5 C -0.8992 0.6927 -0.3799 0
M  V30 6 C -1.9407 -0.3724 -0.0386 0
M  V30 7 H 0.7892 1.7359 0.4914 0
M  V30 8 H -0.3507 1.0659 1.6956 0
M  V30 9 H 1.9139 -1.6056 -0.6538 0
M  V30 10 H 3.0935 -0.6923 0.3708 0
M  V30 11 H 2.1605 0.1632 -0.9154 0
M  V30 12 H -1.4212 1.664 -0.5187 0
M  V30 13 H -0.4058 0.4345 -1.342 0
M  V30 14 H -2.7088 -0.409 -0.8397 0
M  V30 15 H -2.4421 -0.1294 0.9223 0
M  V30 16 H -1.4651 -1.3728 0.0367 0
M  V30 END ATOM
M  V30 BEGIN BOND
M  V30 1 2 1 2
M  V30 2 1 2 3
M  V30 3 1 2 4
M  V30 4 1 3 5
M  V30 5 1 5 6
M  V30 6 1 3 7
M  V30 7 1 3 8
M  V30 8 1 4 9
M  V30 9 1 4 10
M  V30 10 1 4 11
M  V30 11 1 5 12
M  V30 12 1 5 13
M  V30 13 1 6 14
M  V30 14 1 6 15
M  V30 15 1 6 16
M  V30 END BOND
M  V30 END CTAB
M  END
>  <Structure No>
7705

>  <LogS>
-0.19

>  <MMFF94 Energy>
0.21434

$$$$
Compound 7706
Actelion Java MolfileCreator 2.0

  0  0  0  0  0  0              0 V3000
M  V30 BEGIN CTAB
M  V30 COUNTS 19 18 0 0 0
M  V30 BEGIN ATOM
M  V30 1 O -1.4628 -1.0777 1.694 0
M  V30 2 C -1.7981 -0.4278 0.7142 0
M  V30 3 C -0.7668 0.1421 -0.2304 0
M  V30 4 C -3.2564 -0.1998 0.4569 0
M  V30 5 C 0.6754 -0.1861 0.1827 0
M  V30 6 C 1.6808 0.4138 -0.8066 0
M  V30 7 C 3.1152 0.0899 -0.3996 0
M  V30 8 H -0.8953 1.2458 -0.2669 0
M  V30 9 H -0.9585 -0.2644 -1.2471 0
M  V30 10 H -3.4068 0.4036 -0.4631 0
M  V30 11 H -3.706 0.3408 1.3159 0
M  V30 12 H -3.7695 -1.1761 0.3314 0
M  V30 13 H 0.8697 0.2254 1.198 0
M  V30 14 H 0.8063 -1.2906 0.2142 0
M  V30 15 H 1.4949 0.0058 -1.8239 0
M  V30 16 H 1.5581 1.5184 -0.8423 0
M  V30 17 H 3.3354 0.5094 0.6051 0
M  V30 18 H 3.2719 -1.0097 -0.3807 0
M  V30 19 H 3.8194 0.5363 -1.1329 0
M  V30 END ATOM
M  V30 BEGIN BOND
M  V30 1 2 1 2
M  V30 2 1 2 3
M  V30 3 1 2 4
M  V30 4 1 3 5
M  V30 5 1 5 6
M  V30 6 1 6 7
M  V30 7 1 3 8
M  V30 8 1 3 9
M  V30 9 1 4 10
M  V30 10 1 4 11
M  V30 11 1 4 12
M  V30 12 1 5 13
M  V30 13 1 5 14
M  V30 14 1 6 15
M  V30 15 1 6 16
M  V30 16 1 7 17
M  V30 17 1 7 18
M  V30 18 1 7 19
M  V30 END BOND
M  V30 END CTAB
M  END
>  <Structure No>
7706

>  <LogS>
-0.8

>  <MMFF94 Energy>
0.79141

$$$$
Compound 7707
Actelion Java MolfileCreator 2.0

  0  0  0  0  0  0              0 V3000
M  V30 BEGIN CTAB
M  V30 COUNTS 17 16 0 0 0
M  V30 BEGIN ATOM
M  V30 1 O 0.1537 -0.1537 2.2306 0
M  V30 2 C 0.6769 0.036 1.0992 0
M  V30 3 C 1.9123 0.8439 1.0339 0
M  V30 4 C 0.0699 -0.6066 -0.1281 0
M  V30 5 C 2.6781 0.9366 -0.0529 0
M  V30 6 C -1.4041 -1.0079 0.0481 0
M  V30 7 C -2.3271 0.2063 0.1511 0
M  V30 8 H 2.2257 1.3702 1.9275 0
M  V30 9 H 0.144 0.0855 -0.9944 0
M  V30 10 H 0.6588 -1.5172 -0.3684 0
M  V30 11 H 2.4443 0.4114 -0.9685 0
M  V30 12 H 3.576 1.5403 -0.0258 0
M  V30 13 H -1.7143 -1.608 -0.8344 0
M  V30 14 H -1.526 -1.6514 0.9464 0
M  V30 15 H -2.0784 0.8153 1.0452 0
M  V30 16 H -2.2366 0.838 -0.758 0
M  V30 17 H -3.3797 -0.1353 0.2406 0
M  V30 END ATOM
M  V30 BEGIN BOND
M  V30 1 2 1 2
M  V30 2 1 2 3
M  V30 3 1 2 4
M  V30 4 2 3 5
M  V30 5 1 4 6
M  V30 6 1 6 7
M  V30 7 1 3 8
M  V30 8 1 4 9
M  V30 9 1 4 10
M  V30 10 1 5 11
M  V30 11 1 5 12
M  V30 12 1 6 13
M  V30 13 1 6 14
M  V30 14 1 7 15
M  V30 15 1 7 16
M  V30 16 1 7 17
M  V30 END BOND
M  V30 END CTAB
M  END
>  <Structure No>
7707

>  <LogS>
-0.83

>  <MMFF94 Energy>
11.42

$$$$
Compound 7708
Actelion Java MolfileCreator 2.0

  0  0  0  0  0  0              0 V3000
M  V30 BEGIN CTAB
M  V30 COUNTS 25 24 0 0 0
M  V30 BEGIN ATOM
M  V30 1 O -3.7577 1.8774 0.0781 0
M  V30 2 C -3.8303 0.8221 -0.6047 0
M  V30 3 O -4.2589 0.8848 -1.9245 0 CHG=-1
M  V30 4 C -3.4241 -0.4912 -0.01 0
M  V30 5 C -2.0331 -0.9257 -0.4891 0
M  V30 6 C -0.9188 -0.0307 0.0728 0
M  V30 7 C 0.4616 -0.5264 -0.3731 0
M  V30 8 C 1.5748 0.3688 0.1834 0
M  V30 9 C 2.9547 -0.1276 -0.2626 0
M  V30 10 C 4.0653 0.761 0.2893 0
M  V30 11 H -4.1655 -1.2596 -0.3168 0
M  V30 12 H -3.4447 -0.4327 1.1003 0
M  V30 13 H -1.8615 -1.9713 -0.1518 0
M  V30 14 H -2.0011 -0.9186 -1.6011 0
M  V30 15 H -1.0635 1.012 -0.2846 0
M  V30 16 H -0.969 -0.0339 1.184 0
M  V30 17 H 0.6128 -1.5678 -0.0126 0
M  V30 18 H 0.5107 -0.5264 -1.4844 0
M  V30 19 H 1.4244 1.4104 -0.1773 0
M  V30 20 H 1.5256 0.3691 1.2948 0
M  V30 21 H 3.0123 -0.1272 -1.3729 0
M  V30 22 H 3.1136 -1.1673 0.0979 0
M  V30 23 H 5.0508 0.3779 -0.0493 0
M  V30 24 H 4.0458 0.7581 1.4 0
M  V30 25 H 3.9442 1.8026 -0.0772 0
M  V30 END ATOM
M  V30 BEGIN BOND
M  V30 1 2 1 2
M  V30 2 1 2 3
M  V30 3 1 2 4
M  V30 4 1 4 5
M  V30 5 1 5 6
M  V30 6 1 6 7
M  V30 7 1 7 8
M  V30 8 1 8 9
M  V30 9 1 9 10
M  V30 10 1 4 11
M  V30 11 1 4 12
M  V30 12 1 5 13
M  V30 13 1 5 14
M  V30 14 1 6 15
M  V30 15 1 6 16
M  V30 16 1 7 17
M  V30 17 1 7 18
M  V30 18 1 8 19
M  V30 19 1 8 20
M  V30 20 1 9 21
M  V30 21 1 9 22
M  V30 22 1 10 23
M  V30 23 1 10 24
M  V30 24 1 10 25
M  V30 END BOND
M  V30 END CTAB
M  END
>  <Structure No>
7708

>  <LogS>
-2.3

>  <MMFF94 Energy>
0.85729

$$$$
Compound 7709
Actelion Java MolfileCreator 2.0

  0  0  0  0  0  0              0 V3000
M  V30 BEGIN CTAB
M  V30 COUNTS 15 14 0 0 0
M  V30 BEGIN ATOM
M  V30 1 O 4.2857 0.7781 -0.3112 0
M  V30 2 C 3.2915 0.0412 -0.5402 0
M  V30 3 O 3.4681 -1.1421 -1.2484 0 CHG=-1
M  V30 4 C 1.9624 0.4436 -0.0558 0
M  V30 5 C 0.8738 -0.3002 -0.2707 0
M  V30 6 C -0.4443 0.1275 0.226 0
M  V30 7 C -1.5333 -0.6132 0.0129 0
M  V30 8 C -2.8709 -0.1774 0.5181 0
M  V30 9 H 1.878 1.3758 0.4914 0
M  V30 10 H 0.9527 -1.2332 -0.8174 0
M  V30 11 H -0.5309 1.0599 0.7738 0
M  V30 12 H -1.4618 -1.5471 -0.5326 0
M  V30 13 H -3.6399 -0.9274 0.2383 0
M  V30 14 H -3.1449 0.8012 0.0703 0
M  V30 15 H -2.8466 -0.084 1.6244 0
M  V30 END ATOM
M  V30 BEGIN BOND
M  V30 1 2 1 2
M  V30 2 1 2 3
M  V30 3 1 2 4
M  V30 4 2 4 5
M  V30 5 1 5 6
M  V30 6 2 6 7
M  V30 7 1 7 8
M  V30 8 1 4 9
M  V30 9 1 5 10
M  V30 10 1 6 11
M  V30 11 1 7 12
M  V30 12 1 8 13
M  V30 13 1 8 14
M  V30 14 1 8 15
M  V30 END BOND
M  V30 END CTAB
M  END
>  <Structure No>
7709

>  <LogS>
-1.77

>  <MMFF94 Energy>
-7.4393

$$$$
Compound 7710
Actelion Java MolfileCreator 2.0

  0  0  0  0  0  0              0 V3000
M  V30 BEGIN CTAB
M  V30 COUNTS 17 17 0 0 0
M  V30 BEGIN ATOM
M  V30 1 O -2.4739 -1.5157 1.5157 0
M  V30 2 C -2.4553 -0.6921 0.5634 0
M  V30 3 O -3.2601 0.4388 0.6154 0 CHG=-1
M  V30 4 C -1.5328 -0.9014 -0.5942 0
M  V30 5 C -0.2101 -0.238 -0.3277 0
M  V30 6 C 0.8158 -0.9398 0.3275 0
M  V30 7 C -0.006 1.1058 -0.6844 0
M  V30 8 C 2.035 -0.3117 0.6011 0
M  V30 9 C 1.2147 1.7298 -0.4088 0
M  V30 10 C 2.2349 1.0213 0.2316 0
M  V30 11 H -1.3902 -1.9903 -0.7685 0
M  V30 12 H -1.9949 -0.4819 -1.514 0
M  V30 13 H 0.6705 -1.9704 0.6267 0
M  V30 14 H -0.7914 1.6686 -1.1736 0
M  V30 15 H 2.8237 -0.8576 1.1026 0
M  V30 16 H 1.3685 2.764 -0.689 0
M  V30 17 H 3.1787 1.5061 0.4452 0
M  V30 END ATOM
M  V30 BEGIN BOND
M  V30 1 2 1 2
M  V30 2 1 2 3
M  V30 3 1 2 4
M  V30 4 1 4 5
M  V30 5 2 5 6
M  V30 6 1 5 7
M  V30 7 1 6 8
M  V30 8 2 7 9
M  V30 9 2 8 10
M  V30 10 1 9 10
M  V30 11 1 4 11
M  V30 12 1 4 12
M  V30 13 1 6 13
M  V30 14 1 7 14
M  V30 15 1 8 15
M  V30 16 1 9 16
M  V30 17 1 10 17
M  V30 END BOND
M  V30 END CTAB
M  END
>  <Structure No>
7710

>  <LogS>
-0.89

>  <MMFF94 Energy>
47.411

$$$$
Compound 7711
Actelion Java MolfileCreator 2.0

  0  0  0  0  0  0              0 V3000
M  V30 BEGIN CTAB
M  V30 COUNTS 46 50 0 0 0
M  V30 BEGIN ATOM
M  V30 1 O -2.724 -2.5588 -0.3299 0
M  V30 2 C -2.2378 -1.4411 -0.0126 0
M  V30 3 O -1.1604 -1.288 0.8374 0
M  V30 4 C -2.7666 -0.1073 -0.4226 0 CFG=1
M  V30 5 C -0.9108 0.1057 1.0018 0 CFG=1
M  V30 6 C -3.7628 0.4068 0.6842 0 CFG=1
M  V30 7 C -1.4806 0.7436 -0.2751 0 CFG=1
M  V30 8 C -3.39 -0.0833 -1.8275 0
M  V30 9 C -1.7254 0.6051 2.1759 0
M  V30 10 C 0.5597 0.4683 0.9439 0 CFG=2
M  V30 11 O -4.8556 -0.4646 0.8409 0
M  V30 12 C -3.0721 0.6711 2.0397 0
M  V30 13 C -0.3424 0.6271 -1.3417 0 CFG=2
M  V30 14 C 0.9471 0.2443 -0.5443 0 CFG=2
M  V30 15 C 1.5423 -0.196 1.9285 0
M  V30 16 C -0.1963 1.8974 -2.1409 0
M  V30 17 C 1.3953 -1.2171 -0.8694 0
M  V30 18 C 2.2569 1.0236 -0.7518 0
M  V30 19 C 3.0029 0.1905 1.5444 0
M  V30 20 O -0.0083 3.0028 -1.5658 0
M  V30 21 O -0.2537 1.8509 -3.5281 0 CHG=-1
M  V30 22 C 2.8371 -1.2319 -0.4837 0
M  V30 23 C 3.2508 0.1191 0.0027 0 CFG=1
M  V30 24 C 3.6035 -2.3287 -0.4754 0
M  V30 25 O 4.5823 0.4086 -0.3389 0
M  V30 26 H -4.1688 1.3851 0.3461 0
M  V30 27 H -1.7325 1.8194 -0.1101 0
M  V30 28 H -2.737 -0.5805 -2.5733 0
M  V30 29 H -3.5653 0.9658 -2.1473 0
M  V30 30 H -4.3628 -0.619 -1.8228 0
M  V30 31 H -1.2519 0.846 3.1224 0
M  V30 32 H 0.6032 1.5629 1.1645 0
M  V30 33 H -4.5402 -1.2607 1.3429 0
M  V30 34 H -3.6741 1.0018 2.8803 0
M  V30 35 H -0.5914 -0.1842 -2.0559 0
M  V30 36 H 1.4228 -1.3003 1.9144 0
M  V30 37 H 1.3279 0.1476 2.9632 0
M  V30 38 H 1.3257 -1.4273 -1.9592 0
M  V30 39 H 0.8315 -1.9911 -0.3133 0
M  V30 40 H 2.5166 1.0754 -1.8341 0
M  V30 41 H 2.2385 2.0576 -0.3411 0
M  V30 42 H 3.7097 -0.4866 2.0712 0
M  V30 43 H 3.2057 1.2255 1.8974 0
M  V30 44 H 4.6323 -2.2824 -0.1332 0
M  V30 45 H 3.2026 -3.2812 -0.8072 0
M  V30 46 H 4.7583 1.3419 -0.0497 0
M  V30 END ATOM
M  V30 BEGIN BOND
M  V30 1 2 1 2
M  V30 2 1 2 3
M  V30 3 1 2 4
M  V30 4 1 3 5
M  V30 5 1 4 6
M  V30 6 1 4 7
M  V30 7 1 4 8
M  V30 8 1 5 9
M  V30 9 1 5 10
M  V30 10 1 6 11
M  V30 11 1 6 12
M  V30 12 1 7 13
M  V30 13 1 10 14
M  V30 14 1 10 15
M  V30 15 1 13 16
M  V30 16 1 14 17
M  V30 17 1 14 18
M  V30 18 1 15 19
M  V30 19 2 16 20
M  V30 20 1 16 21
M  V30 21 1 17 22
M  V30 22 1 18 23
M  V30 23 2 22 24
M  V30 24 1 23 25
M  V30 25 1 5 7
M  V30 26 2 9 12
M  V30 27 1 13 14
M  V30 28 1 19 23
M  V30 29 1 22 23
M  V30 30 1 6 26
M  V30 31 1 7 27
M  V30 32 1 8 28
M  V30 33 1 8 29
M  V30 34 1 8 30
M  V30 35 1 9 31
M  V30 36 1 10 32
M  V30 37 1 11 33
M  V30 38 1 12 34
M  V30 39 1 13 35
M  V30 40 1 15 36
M  V30 41 1 15 37
M  V30 42 1 17 38
M  V30 43 1 17 39
M  V30 44 1 18 40
M  V30 45 1 18 41
M  V30 46 1 19 42
M  V30 47 1 19 43
M  V30 48 1 24 44
M  V30 49 1 24 45
M  V30 50 1 25 46
M  V30 END BOND
M  V30 BEGIN COLLECTION
M  V30 MDLV30/STEABS ATOMS=(8 4 5 6 7 10 13 14 23)
M  V30 END COLLECTION
M  V30 END CTAB
M  END
>  <Structure No>
7711

>  <LogS>
-1.84

>  <MMFF94 Energy>
51.806

$$$$
Compound 7712
Actelion Java MolfileCreator 2.0

  0  0  0  0  0  0              0 V3000
M  V30 BEGIN CTAB
M  V30 COUNTS 14 13 0 0 0
M  V30 BEGIN ATOM
M  V30 1 O 3.0028 1.0001 0.6923 0
M  V30 2 C 2.8078 -0.0369 0.0034 0
M  V30 3 O 1.5143 -0.4797 -0.2825 0
M  V30 4 C 0.3513 0.2009 0.1782 0
M  V30 5 C -0.895 -0.5375 -0.3048 0
M  V30 6 C -2.1689 0.1576 0.1665 0
M  V30 7 H 3.6549 -0.5936 -0.3728 0
M  V30 8 H 0.3487 1.2398 -0.2191 0
M  V30 9 H 0.3589 0.2352 1.2901 0
M  V30 10 H -0.8924 -0.5789 -1.4157 0
M  V30 11 H -0.8822 -1.5782 0.0857 0
M  V30 12 H -3.055 -0.4019 -0.1999 0
M  V30 13 H -2.2031 0.1896 1.2765 0
M  V30 14 H -2.2133 1.1937 -0.232 0
M  V30 END ATOM
M  V30 BEGIN BOND
M  V30 1 2 1 2
M  V30 2 1 2 3
M  V30 3 1 3 4
M  V30 4 1 4 5
M  V30 5 1 5 6
M  V30 6 1 2 7
M  V30 7 1 4 8
M  V30 8 1 4 9
M  V30 9 1 5 10
M  V30 10 1 5 11
M  V30 11 1 6 12
M  V30 12 1 6 13
M  V30 13 1 6 14
M  V30 END BOND
M  V30 END CTAB
M  END
>  <Structure No>
7712

>  <LogS>
-0.49

>  <MMFF94 Energy>
-10.834

$$$$
Compound 7713
Actelion Java MolfileCreator 2.0

  0  0  0  0  0  0              0 V3000
M  V30 BEGIN CTAB
M  V30 COUNTS 17 16 0 0 0
M  V30 BEGIN ATOM
M  V30 1 O 2.0834 -0.2313 -1.7745 0
M  V30 2 C 2.0341 -0.0559 -0.5265 0
M  V30 3 O 0.8058 0.0448 0.1328 0
M  V30 4 C 3.2989 0.0948 0.2482 0
M  V30 5 C -0.4411 -0.0692 -0.5453 0
M  V30 6 C -1.5813 0.0837 0.4588 0
M  V30 7 C -2.9407 -0.0318 -0.2243 0
M  V30 8 H 4.0758 -0.5894 -0.1531 0
M  V30 9 H 3.1213 -0.1518 1.3161 0
M  V30 10 H 3.6571 1.1424 0.1712 0
M  V30 11 H -0.5149 0.7254 -1.32 0
M  V30 12 H -0.5052 -1.0653 -1.036 0
M  V30 13 H -1.5059 1.0759 0.9547 0
M  V30 14 H -1.4963 -0.7053 1.2372 0
M  V30 15 H -3.7469 0.0835 0.5305 0
M  V30 16 H -3.0463 -1.0265 -0.7076 0
M  V30 17 H -3.056 0.7633 -0.9914 0
M  V30 END ATOM
M  V30 BEGIN BOND
M  V30 1 2 1 2
M  V30 2 1 2 3
M  V30 3 1 2 4
M  V30 4 1 3 5
M  V30 5 1 5 6
M  V30 6 1 6 7
M  V30 7 1 4 8
M  V30 8 1 4 9
M  V30 9 1 4 10
M  V30 10 1 5 11
M  V30 11 1 5 12
M  V30 12 1 6 13
M  V30 13 1 6 14
M  V30 14 1 7 15
M  V30 15 1 7 16
M  V30 16 1 7 17
M  V30 END BOND
M  V30 END CTAB
M  END
>  <Structure No>
7713

>  <LogS>
-0.72

>  <MMFF94 Energy>
-10.222

$$$$
Compound 7714
Actelion Java MolfileCreator 2.0

  0  0  0  0  0  0              0 V3000
M  V30 BEGIN CTAB
M  V30 COUNTS 23 22 0 0 0
M  V30 BEGIN ATOM
M  V30 1 O -0.8604 -1.2517 1.6432 0
M  V30 2 C -0.9625 -1.1496 0.3899 0
M  V30 3 O -2.0831 -0.5465 -0.188 0
M  V30 4 C 0.1449 -1.6339 -0.487 0
M  V30 5 C -3.1641 -0.0359 0.5852 0
M  V30 6 C 1.0872 -0.5123 -0.7778 0
M  V30 7 C -4.2174 0.554 -0.3387 0
M  V30 8 O 0.923 0.1927 -1.8108 0
M  V30 9 O 2.1163 -0.2282 0.1241 0
M  V30 10 C 3.0346 0.8419 -0.072 0
M  V30 11 C 4.0228 0.8833 1.0824 0
M  V30 12 H 0.6938 -2.4596 0.0149 0
M  V30 13 H -0.2782 -2.0304 -1.4348 0
M  V30 14 H -2.7934 0.7558 1.2719 0
M  V30 15 H -3.6179 -0.8556 1.1836 0
M  V30 16 H -5.0618 0.9535 0.2617 0
M  V30 17 H -3.7774 1.3798 -0.937 0
M  V30 18 H -4.6016 -0.2296 -1.0253 0
M  V30 19 H 3.588 0.6919 -1.0243 0
M  V30 20 H 2.4831 1.8061 -0.1177 0
M  V30 21 H 4.7403 1.7174 0.9322 0
M  V30 22 H 4.5861 -0.0724 1.1341 0
M  V30 23 H 3.4817 1.0403 2.0395 0
M  V30 END ATOM
M  V30 BEGIN BOND
M  V30 1 2 1 2
M  V30 2 1 2 3
M  V30 3 1 2 4
M  V30 4 1 3 5
M  V30 5 1 4 6
M  V30 6 1 5 7
M  V30 7 2 6 8
M  V30 8 1 6 9
M  V30 9 1 9 10
M  V30 10 1 10 11
M  V30 11 1 4 12
M  V30 12 1 4 13
M  V30 13 1 5 14
M  V30 14 1 5 15
M  V30 15 1 7 16
M  V30 16 1 7 17
M  V30 17 1 7 18
M  V30 18 1 10 19
M  V30 19 1 10 20
M  V30 20 1 11 21
M  V30 21 1 11 22
M  V30 22 1 11 23
M  V30 END BOND
M  V30 END CTAB
M  END
>  <Structure No>
7714

>  <LogS>
-0.82

>  <MMFF94 Energy>
-37.251

$$$$
Compound 7715
Actelion Java MolfileCreator 2.0

  0  0  0  0  0  0              0 V3000
M  V30 BEGIN CTAB
M  V30 COUNTS 12 11 0 0 0
M  V30 BEGIN ATOM
M  V30 1 O 0.6886 -1.684 -0.6886 0
M  V30 2 C 0.013 -0.6655 -0.3779 0
M  V30 3 O 0.6522 0.5155 0.0154 0
M  V30 4 C -1.4545 -0.7354 -0.4341 0
M  V30 5 C 2.0679 0.6342 0.0862 0
M  V30 6 C -2.2267 0.302 -0.1194 0
M  V30 7 H -1.9227 -1.6623 -0.742 0
M  V30 8 H 2.4748 -0.0983 0.8151 0
M  V30 9 H 2.3315 1.6586 0.4206 0
M  V30 10 H 2.5148 0.456 -0.9146 0
M  V30 11 H -3.3036 0.2086 -0.1743 0
M  V30 12 H -1.8043 1.2485 0.1935 0
M  V30 END ATOM
M  V30 BEGIN BOND
M  V30 1 2 1 2
M  V30 2 1 2 3
M  V30 3 1 2 4
M  V30 4 1 3 5
M  V30 5 2 4 6
M  V30 6 1 4 7
M  V30 7 1 5 8
M  V30 8 1 5 9
M  V30 9 1 5 10
M  V30 10 1 6 11
M  V30 11 1 6 12
M  V30 END BOND
M  V30 END CTAB
M  END
>  <Structure No>
7715

>  <LogS>
-0.22

>  <MMFF94 Energy>
0.24517

$$$$
Compound 7716
Actelion Java MolfileCreator 2.0

  0  0  0  0  0  0              0 V3000
M  V30 BEGIN CTAB
M  V30 COUNTS 15 14 0 0 0
M  V30 BEGIN ATOM
M  V30 1 O -0.5378 2.2298 -0.2304 0
M  V30 2 C -0.8707 1.0166 -0.147 0
M  V30 3 O 0.1059 0.0184 -0.061 0
M  V30 4 C -2.298 0.6641 -0.1412 0
M  V30 5 C 1.5003 0.3056 -0.0622 0
M  V30 6 C -2.7168 -0.5963 -0.0556 0
M  V30 7 C 2.2872 -0.9908 0.0427 0
M  V30 8 H -3.0332 1.4569 -0.209 0
M  V30 9 H 1.7503 0.9579 0.8025 0
M  V30 10 H 1.7754 0.8268 -1.0048 0
M  V30 11 H -2.0194 -1.4215 0.0139 0
M  V30 12 H -3.7772 -0.813 -0.0546 0
M  V30 13 H 2.0261 -1.5176 0.985 0
M  V30 14 H 3.3754 -0.7701 0.042 0
M  V30 15 H 2.0513 -1.6486 -0.8204 0
M  V30 END ATOM
M  V30 BEGIN BOND
M  V30 1 2 1 2
M  V30 2 1 2 3
M  V30 3 1 2 4
M  V30 4 1 3 5
M  V30 5 2 4 6
M  V30 6 1 5 7
M  V30 7 1 4 8
M  V30 8 1 5 9
M  V30 9 1 5 10
M  V30 10 1 6 11
M  V30 11 1 6 12
M  V30 12 1 7 13
M  V30 13 1 7 14
M  V30 14 1 7 15
M  V30 END BOND
M  V30 END CTAB
M  END
>  <Structure No>
7716

>  <LogS>
-0.74

>  <MMFF94 Energy>
-2.0582

$$$$
Compound 7717
Actelion Java MolfileCreator 2.0

  0  0  0  0  0  0              0 V3000
M  V30 BEGIN CTAB
M  V30 COUNTS 15 14 0 0 0
M  V30 BEGIN ATOM
M  V30 1 O 0.8466 0.5386 -1.3856 0
M  V30 2 C 0.4456 0.0826 -0.2794 0
M  V30 3 O 1.3649 -0.4435 0.6357 0
M  V30 4 C -0.998 0.1049 0.0451 0
M  V30 5 C 2.7629 -0.4919 0.3777 0
M  V30 6 C -1.4483 -0.4449 1.1782 0
M  V30 7 C -1.9746 0.6824 -0.9435 0
M  V30 8 H 2.962 -1.1088 -0.524 0
M  V30 9 H 3.1572 0.535 0.2249 0
M  V30 10 H 3.2783 -0.9492 1.2471 0
M  V30 11 H -2.5065 -0.4605 1.408 0
M  V30 12 H -0.7739 -0.892 1.8972 0
M  V30 13 H -2.1641 -0.0567 -1.7496 0
M  V30 14 H -1.5626 1.6106 -1.3925 0
M  V30 15 H -2.9409 0.9427 -0.4599 0
M  V30 END ATOM
M  V30 BEGIN BOND
M  V30 1 2 1 2
M  V30 2 1 2 3
M  V30 3 1 2 4
M  V30 4 1 3 5
M  V30 5 2 4 6
M  V30 6 1 4 7
M  V30 7 1 5 8
M  V30 8 1 5 9
M  V30 9 1 5 10
M  V30 10 1 6 11
M  V30 11 1 6 12
M  V30 12 1 7 13
M  V30 13 1 7 14
M  V30 14 1 7 15
M  V30 END BOND
M  V30 END CTAB
M  END
>  <Structure No>
7717

>  <LogS>
-0.8

>  <MMFF94 Energy>
2.6176

$$$$
Compound 7718
Actelion Java MolfileCreator 2.0

  0  0  0  0  0  0              0 V3000
M  V30 BEGIN CTAB
M  V30 COUNTS 30 30 0 0 0
M  V30 BEGIN ATOM
M  V30 1 O -1.11 1.11 0.5549 0
M  V30 2 C -1.4541 -0.0809 0.32 0
M  V30 3 O -2.7503 -0.3648 -0.1279 0
M  V30 4 C -0.5126 -1.1937 0.5775 0
M  V30 5 C -3.7108 0.6415 -0.4422 0
M  V30 6 C 0.8944 -1.0712 0.4047 0
M  V30 7 C -1.039 -2.4005 1.0726 0
M  V30 8 C -3.3805 1.3026 -1.7755 0
M  V30 9 C 1.5268 0.1058 -0.2323 0
M  V30 10 C 1.7273 -2.1348 0.7967 0
M  V30 11 C -0.1955 -3.4517 1.4338 0
M  V30 12 O 0.9399 0.7132 -1.1696 0
M  V30 13 O 2.8076 0.5028 0.1717 0
M  V30 14 C 1.1849 -3.3148 1.3073 0
M  V30 15 C 3.4778 1.6467 -0.3539 0
M  V30 16 C 2.8851 2.9284 0.2205 0
M  V30 17 H -4.7105 0.1643 -0.5187 0
M  V30 18 H -3.7534 1.403 0.3667 0
M  V30 19 H -2.1067 -2.5202 1.2114 0
M  V30 20 H -4.1678 2.043 -2.0303 0
M  V30 21 H -3.3343 0.5356 -2.5771 0
M  V30 22 H -2.4039 1.827 -1.7168 0
M  V30 23 H 2.8018 -2.0658 0.678 0
M  V30 24 H -0.6134 -4.3704 1.825 0
M  V30 25 H 1.837 -4.1299 1.5935 0
M  V30 26 H 3.4161 1.6561 -1.4638 0
M  V30 27 H 4.5494 1.5904 -0.0688 0
M  V30 28 H 1.8231 3.0355 -0.0846 0
M  V30 29 H 3.454 3.8044 -0.156 0
M  V30 30 H 2.9449 2.9096 1.3294 0
M  V30 END ATOM
M  V30 BEGIN BOND
M  V30 1 2 1 2
M  V30 2 1 2 3
M  V30 3 1 2 4
M  V30 4 1 3 5
M  V30 5 2 4 6
M  V30 6 1 4 7
M  V30 7 1 5 8
M  V30 8 1 6 9
M  V30 9 1 6 10
M  V30 10 2 7 11
M  V30 11 2 9 12
M  V30 12 1 9 13
M  V30 13 2 10 14
M  V30 14 1 13 15
M  V30 15 1 15 16
M  V30 16 1 11 14
M  V30 17 1 5 17
M  V30 18 1 5 18
M  V30 19 1 7 19
M  V30 20 1 8 20
M  V30 21 1 8 21
M  V30 22 1 8 22
M  V30 23 1 10 23
M  V30 24 1 11 24
M  V30 25 1 14 25
M  V30 26 1 15 26
M  V30 27 1 15 27
M  V30 28 1 16 28
M  V30 29 1 16 29
M  V30 30 1 16 30
M  V30 END BOND
M  V30 END CTAB
M  END
>  <Structure No>
7718

>  <LogS>
-2.35

>  <MMFF94 Energy>
17.653

$$$$
Compound 7719
Actelion Java MolfileCreator 2.0

  0  0  0  0  0  0              0 V3000
M  V30 BEGIN CTAB
M  V30 COUNTS 43 44 0 0 0
M  V30 BEGIN ATOM
M  V30 1 O -2.7879 0.0 2.1501 0
M  V30 2 C -1.7576 0.1915 1.447 0
M  V30 3 O -1.5196 -0.5992 0.3161 0
M  V30 4 C -0.8286 1.2923 1.7895 0
M  V30 5 C -2.4002 -1.6324 -0.1189 0
M  V30 6 C 0.5692 1.2211 1.5374 0
M  V30 7 C -1.3694 2.4801 2.3166 0
M  V30 8 C -3.6489 -1.0401 -0.7129 0
M  V30 9 C 1.2461 -0.0232 1.1089 0
M  V30 10 C 1.3645 2.3596 1.7608 0
M  V30 11 C -0.5577 3.5904 2.5524 0
M  V30 12 C -3.5772 -0.3138 -1.9127 0
M  V30 13 C -4.8879 -1.181 -0.0652 0
M  V30 14 O 0.8444 -1.1436 1.5279 0
M  V30 15 O 2.3694 0.0546 0.2794 0
M  V30 16 C 0.8039 3.5341 2.2643 0
M  V30 17 C -4.7306 0.2564 -2.4607 0
M  V30 18 C -6.039 -0.6089 -0.6166 0
M  V30 19 C 3.0796 -1.0971 -0.1631 0
M  V30 20 C -5.9606 0.1085 -1.8135 0
M  V30 21 C 4.2413 -0.665 -1.055 0
M  V30 22 C 5.0345 -1.8774 -1.5555 0
M  V30 23 C 6.1953 -1.4461 -2.447 0
M  V30 24 H -1.8834 -2.2347 -0.8955 0
M  V30 25 H -2.6316 -2.3154 0.7279 0
M  V30 26 H -2.4311 2.5611 2.5168 0
M  V30 27 H 2.4314 2.3314 1.5746 0
M  V30 28 H -0.989 4.5015 2.9472 0
M  V30 29 H -2.6287 -0.1885 -2.4203 0
M  V30 30 H -4.9632 -1.7297 0.8654 0
M  V30 31 H 1.43 4.3989 2.4427 0
M  V30 32 H -4.6704 0.8146 -3.3861 0
M  V30 33 H -6.9916 -0.7204 -0.1148 0
M  V30 34 H 3.4698 -1.6521 0.7182 0
M  V30 35 H 2.392 -1.7575 -0.7362 0
M  V30 36 H -6.8523 0.5512 -2.2384 0
M  V30 37 H 4.9125 0.0062 -0.4754 0
M  V30 38 H 3.8395 -0.0981 -1.9235 0
M  V30 39 H 5.4383 -2.4452 -0.6888 0
M  V30 40 H 4.3655 -2.5496 -2.1362 0
M  V30 41 H 6.8935 -0.7924 -1.8819 0
M  V30 42 H 6.7506 -2.3428 -2.7938 0
M  V30 43 H 5.8163 -0.8973 -3.3354 0
M  V30 END ATOM
M  V30 BEGIN BOND
M  V30 1 2 1 2
M  V30 2 1 2 3
M  V30 3 1 2 4
M  V30 4 1 3 5
M  V30 5 2 4 6
M  V30 6 1 4 7
M  V30 7 1 5 8
M  V30 8 1 6 9
M  V30 9 1 6 10
M  V30 10 2 7 11
M  V30 11 2 8 12
M  V30 12 1 8 13
M  V30 13 2 9 14
M  V30 14 1 9 15
M  V30 15 2 10 16
M  V30 16 1 12 17
M  V30 17 2 13 18
M  V30 18 1 15 19
M  V30 19 2 17 20
M  V30 20 1 19 21
M  V30 21 1 21 22
M  V30 22 1 22 23
M  V30 23 1 11 16
M  V30 24 1 18 20
M  V30 25 1 5 24
M  V30 26 1 5 25
M  V30 27 1 7 26
M  V30 28 1 10 27
M  V30 29 1 11 28
M  V30 30 1 12 29
M  V30 31 1 13 30
M  V30 32 1 16 31
M  V30 33 1 17 32
M  V30 34 1 18 33
M  V30 35 1 19 34
M  V30 36 1 19 35
M  V30 37 1 20 36
M  V30 38 1 21 37
M  V30 39 1 21 38
M  V30 40 1 22 39
M  V30 41 1 22 40
M  V30 42 1 23 41
M  V30 43 1 23 42
M  V30 44 1 23 43
M  V30 END BOND
M  V30 END CTAB
M  END
>  <Structure No>
7719

>  <LogS>
-5.64

>  <MMFF94 Energy>
34.907

$$$$
Compound 7720
Actelion Java MolfileCreator 2.0

  0  0  0  0  0  0              0 V3000
M  V30 BEGIN CTAB
M  V30 COUNTS 22 21 0 0 0
M  V30 BEGIN ATOM
M  V30 1 O -1.3827 -0.8448 0.1535 0
M  V30 2 C -0.7746 -1.5347 -0.9235 0
M  V30 3 C -2.1332 0.2546 -0.3167 0
M  V30 4 C 0.734 -1.3112 -0.8976 0
M  V30 5 C -2.6734 1.0356 0.8709 0
M  V30 6 O 1.0132 0.0473 -1.1652 0
M  V30 7 C 2.3847 0.3238 -0.956 0
M  V30 8 C 2.5957 0.9185 0.4317 0
M  V30 9 H -0.967 -2.6199 -0.786 0
M  V30 10 H -1.1753 -1.2687 -1.9317 0
M  V30 11 H -2.9946 -0.0985 -0.9275 0
M  V30 12 H -1.5007 0.9401 -0.9254 0
M  V30 13 H 1.1171 -1.618 0.1028 0
M  V30 14 H 1.1979 -1.9543 -1.6788 0
M  V30 15 H -3.2694 1.9011 0.5117 0
M  V30 16 H -1.8327 1.4102 1.4926 0
M  V30 17 H -3.3235 0.383 1.4914 0
M  V30 18 H 3.0495 -0.5613 -1.098 0
M  V30 19 H 2.7005 1.0784 -1.707 0
M  V30 20 H 3.6615 1.2023 0.5592 0
M  V30 21 H 1.9648 1.8241 0.5566 0
M  V30 22 H 2.3274 0.1785 1.2141 0
M  V30 END ATOM
M  V30 BEGIN BOND
M  V30 1 1 1 2
M  V30 2 1 1 3
M  V30 3 1 2 4
M  V30 4 1 3 5
M  V30 5 1 4 6
M  V30 6 1 6 7
M  V30 7 1 7 8
M  V30 8 1 2 9
M  V30 9 1 2 10
M  V30 10 1 3 11
M  V30 11 1 3 12
M  V30 12 1 4 13
M  V30 13 1 4 14
M  V30 14 1 5 15
M  V30 15 1 5 16
M  V30 16 1 5 17
M  V30 17 1 7 18
M  V30 18 1 7 19
M  V30 19 1 8 20
M  V30 20 1 8 21
M  V30 21 1 8 22
M  V30 END BOND
M  V30 END CTAB
M  END
>  <Structure No>
7720

>  <LogS>
-0.77

>  <MMFF94 Energy>
24.463

$$$$
Compound 7721
Actelion Java MolfileCreator 2.0

  0  0  0  0  0  0              0 V3000
M  V30 BEGIN CTAB
M  V30 COUNTS 23 24 0 0 0
M  V30 BEGIN ATOM
M  V30 1 O -0.0792 -0.8719 -1.0305 0
M  V30 2 C -1.2646 -0.4616 -0.4029 0
M  V30 3 C 1.2111 -0.4347 -0.6971 0
M  V30 4 C -2.3456 -1.351 -0.3595 0
M  V30 5 C -1.4131 0.8293 0.1383 0
M  V30 6 C 2.1871 -0.3919 -1.7005 0
M  V30 7 C 1.5626 -0.0862 0.6206 0
M  V30 8 C -3.5492 -0.9727 0.2438 0
M  V30 9 C -2.6178 1.2051 0.7408 0
M  V30 10 C 3.489 0.0235 -1.4037 0
M  V30 11 C 2.8652 0.3286 0.9147 0
M  V30 12 C -3.684 0.3034 0.7969 0
M  V30 13 C 3.8269 0.3872 -0.0973 0
M  V30 14 H -2.2494 -2.3404 -0.788 0
M  V30 15 H -0.6081 1.5496 0.0775 0
M  V30 16 H 1.9332 -0.6745 -2.7142 0
M  V30 17 H 0.8385 -0.1536 1.4216 0
M  V30 18 H -4.3777 -1.6682 0.2808 0
M  V30 19 H -2.7274 2.198 1.1575 0
M  V30 20 H 4.2359 0.0617 -2.1859 0
M  V30 21 H 3.1311 0.5976 1.9288 0
M  V30 22 H -4.6164 0.596 1.2623 0
M  V30 23 H 4.8351 0.707 0.1317 0
M  V30 END ATOM
M  V30 BEGIN BOND
M  V30 1 1 1 2
M  V30 2 1 1 3
M  V30 3 2 2 4
M  V30 4 1 2 5
M  V30 5 2 3 6
M  V30 6 1 3 7
M  V30 7 1 4 8
M  V30 8 2 5 9
M  V30 9 1 6 10
M  V30 10 2 7 11
M  V30 11 2 8 12
M  V30 12 2 10 13
M  V30 13 1 9 12
M  V30 14 1 11 13
M  V30 15 1 4 14
M  V30 16 1 5 15
M  V30 17 1 6 16
M  V30 18 1 7 17
M  V30 19 1 8 18
M  V30 20 1 9 19
M  V30 21 1 10 20
M  V30 22 1 11 21
M  V30 23 1 12 22
M  V30 24 1 13 23
M  V30 END BOND
M  V30 END CTAB
M  END
>  <Structure No>
7721

>  <LogS>
-3.96

>  <MMFF94 Energy>
42.238

$$$$
Compound 7722
Actelion Java MolfileCreator 2.0

  0  0  0  0  0  0              0 V3000
M  V30 BEGIN CTAB
M  V30 COUNTS 29 30 0 0 0
M  V30 BEGIN ATOM
M  V30 1 O -0.079 1.4237 -0.5535 0
M  V30 2 C 1.2678 1.0526 -0.4292 0
M  V30 3 C -1.1744 0.6762 -0.0957 0
M  V30 4 C 1.6734 -0.2947 -0.4508 0
M  V30 5 C 2.2353 2.0589 -0.3315 0
M  V30 6 C -2.3949 0.7887 -0.7729 0
M  V30 7 C -1.0927 -0.1389 1.0474 0
M  V30 8 C 3.0311 -0.6302 -0.3282 0
M  V30 9 C 3.5893 1.73 -0.2283 0
M  V30 10 C -3.5182 0.0622 -0.3465 0
M  V30 11 C -2.213 -0.8491 1.4859 0
M  V30 12 C 3.9881 0.391 -0.2288 0
M  V30 13 C 3.4616 -2.066 -0.3845 0
M  V30 14 C -3.4229 -0.7484 0.7945 0
M  V30 15 C -4.829 0.2099 -1.0608 0
M  V30 16 H 0.9389 -1.0795 -0.5808 0
M  V30 17 H 1.9357 3.0993 -0.3327 0
M  V30 18 H -2.4638 1.4375 -1.6378 0
M  V30 19 H -0.1727 -0.2064 1.613 0
M  V30 20 H 4.3313 2.5145 -0.1526 0
M  V30 21 H -2.1465 -1.4707 2.3695 0
M  V30 22 H 5.0417 0.1511 -0.158 0
M  V30 23 H 2.6823 -2.725 0.0543 0
M  V30 24 H 4.4009 -2.2169 0.1889 0
M  V30 25 H 3.6311 -2.3593 -1.4414 0
M  V30 26 H -4.2859 -1.2967 1.1521 0
M  V30 27 H -5.4303 -0.72 -0.9731 0
M  V30 28 H -4.6657 0.412 -2.1409 0
M  V30 29 H -5.3985 1.0528 -0.6166 0
M  V30 END ATOM
M  V30 BEGIN BOND
M  V30 1 1 1 2
M  V30 2 1 1 3
M  V30 3 2 2 4
M  V30 4 1 2 5
M  V30 5 2 3 6
M  V30 6 1 3 7
M  V30 7 1 4 8
M  V30 8 2 5 9
M  V30 9 1 6 10
M  V30 10 2 7 11
M  V30 11 2 8 12
M  V30 12 1 8 13
M  V30 13 2 10 14
M  V30 14 1 10 15
M  V30 15 1 9 12
M  V30 16 1 11 14
M  V30 17 1 4 16
M  V30 18 1 5 17
M  V30 19 1 6 18
M  V30 20 1 7 19
M  V30 21 1 9 20
M  V30 22 1 11 21
M  V30 23 1 12 22
M  V30 24 1 13 23
M  V30 25 1 13 24
M  V30 26 1 13 25
M  V30 27 1 14 26
M  V30 28 1 15 27
M  V30 29 1 15 28
M  V30 30 1 15 29
M  V30 END BOND
M  V30 END CTAB
M  END
>  <Structure No>
7722

>  <LogS>
-4.85

>  <MMFF94 Energy>
46.239

$$$$
Compound 7723
Actelion Java MolfileCreator 2.0

  0  0  0  0  0  0              0 V3000
M  V30 BEGIN CTAB
M  V30 COUNTS 13 13 0 0 0
M  V30 BEGIN ATOM
M  V30 1 O 0.2342 1.484 0.1561 0
M  V30 2 C -0.9752 0.7961 0.3819 0
M  V30 3 C 1.2042 0.5342 -0.2228 0
M  V30 4 C -0.8315 -0.6398 -0.0765 0
M  V30 5 C 0.6466 -0.8602 -0.0288 0
M  V30 6 H -1.8003 1.2979 -0.1672 0
M  V30 7 H -1.2056 0.8241 1.4692 0
M  V30 8 H 1.4616 0.6926 -1.2926 0
M  V30 9 H 2.1226 0.6729 0.3863 0
M  V30 10 H -1.1979 -0.7439 -1.122 0
M  V30 11 H -1.3767 -1.3445 0.5884 0
M  V30 12 H 0.9406 -1.2521 0.9702 0
M  V30 13 H 0.9869 -1.5577 -0.8249 0
M  V30 END ATOM
M  V30 BEGIN BOND
M  V30 1 1 1 2
M  V30 2 1 1 3
M  V30 3 1 2 4
M  V30 4 1 3 5
M  V30 5 1 4 5
M  V30 6 1 2 6
M  V30 7 1 2 7
M  V30 8 1 3 8
M  V30 9 1 3 9
M  V30 10 1 4 10
M  V30 11 1 4 11
M  V30 12 1 5 12
M  V30 13 1 5 13
M  V30 END BOND
M  V30 END CTAB
M  END
>  <Structure No>
7723

>  <LogS>
0.56

>  <MMFF94 Energy>
4.873

$$$$
Compound 7724
Actelion Java MolfileCreator 2.0

  0  0  0  0  0  0              0 V3000
M  V30 BEGIN CTAB
M  V30 COUNTS 9 9 0 0 0
M  V30 BEGIN ATOM
M  V30 1 O 0.0 -1.3869 0.3851 0
M  V30 2 C -1.0543 -0.6053 0.4277 0
M  V30 3 C 1.0567 -0.6587 0.1071 0
M  V30 4 C -0.6775 0.6953 0.1666 0
M  V30 5 C 0.6841 0.6608 -0.0402 0
M  V30 6 H -2.0598 -0.9453 0.6374 0
M  V30 7 H 2.0608 -1.0494 0.0115 0
M  V30 8 H -1.32 1.565 0.1314 0
M  V30 9 H 1.3291 1.4981 -0.2709 0
M  V30 END ATOM
M  V30 BEGIN BOND
M  V30 1 1 1 2
M  V30 2 1 1 3
M  V30 3 2 2 4
M  V30 4 2 3 5
M  V30 5 1 4 5
M  V30 6 1 2 6
M  V30 7 1 3 7
M  V30 8 1 4 8
M  V30 9 1 5 9
M  V30 END BOND
M  V30 END CTAB
M  END
>  <Structure No>
7724

>  <LogS>
-0.82

>  <MMFF94 Energy>
1.5577

$$$$
Compound 7725
Actelion Java MolfileCreator 2.0

  0  0  0  0  0  0              0 V3000
M  V30 BEGIN CTAB
M  V30 COUNTS 24 24 0 0 0
M  V30 BEGIN ATOM
M  V30 1 O 0.4744 -1.2655 0.7117 0
M  V30 2 C 0.9796 -0.2619 -0.1616 0 CFG=1
M  V30 3 C -0.7876 -1.7513 0.2857 0
M  V30 4 O 1.1164 -0.7872 -1.4667 0
M  V30 5 C 0.0339 0.9767 -0.1523 0 CFG=1
M  V30 6 C 2.3716 0.1469 0.37 0
M  V30 7 C -1.8589 -0.6481 0.3111 0 CFG=2
M  V30 8 O 0.4978 1.9469 -1.0588 0
M  V30 9 C -1.4037 0.5611 -0.5242 0 CFG=1
M  V30 10 O 3.2602 -0.9375 0.3155 0
M  V30 11 O -2.1814 -0.2776 1.6311 0
M  V30 12 O -2.2913 1.631 -0.3184 0
M  V30 13 H -1.0994 -2.5634 0.976 0
M  V30 14 H -0.7241 -2.2105 -0.7258 0
M  V30 15 H 1.549 -0.0994 -2.037 0
M  V30 16 H 0.0289 1.4032 0.8794 0
M  V30 17 H 2.7913 0.969 -0.2482 0
M  V30 18 H 2.2909 0.5278 1.4149 0
M  V30 19 H -2.7822 -1.0584 -0.1529 0
M  V30 20 H 0.1596 2.8258 -0.7441 0
M  V30 21 H -1.4228 0.2564 -1.5985 0
M  V30 22 H 3.0789 -1.4978 1.1147 0
M  V30 23 H -1.3427 -0.0291 2.0986 0
M  V30 24 H -2.2371 2.2119 -1.1216 0
M  V30 END ATOM
M  V30 BEGIN BOND
M  V30 1 1 1 2
M  V30 2 1 1 3
M  V30 3 1 2 4
M  V30 4 1 2 5
M  V30 5 1 2 6
M  V30 6 1 3 7
M  V30 7 1 5 8
M  V30 8 1 5 9
M  V30 9 1 6 10
M  V30 10 1 7 11
M  V30 11 1 9 12
M  V30 12 1 7 9
M  V30 13 1 3 13
M  V30 14 1 3 14
M  V30 15 1 4 15
M  V30 16 1 5 16
M  V30 17 1 6 17
M  V30 18 1 6 18
M  V30 19 1 7 19
M  V30 20 1 8 20
M  V30 21 1 9 21
M  V30 22 1 10 22
M  V30 23 1 11 23
M  V30 24 1 12 24
M  V30 END BOND
M  V30 BEGIN COLLECTION
M  V30 MDLV30/STEABS ATOMS=(4 2 5 7 9)
M  V30 END COLLECTION
M  V30 END CTAB
M  END
>  <Structure No>
7725

>  <LogS>
0.64

>  <MMFF94 Energy>
101.65

$$$$
Compound 7726
Actelion Java MolfileCreator 2.0

  0  0  0  0  0  0              0 V3000
M  V30 BEGIN CTAB
M  V30 COUNTS 61 65 0 0 0
M  V30 BEGIN ATOM
M  V30 1 S -2.0577 2.6344 -0.2467 0
M  V30 2 C -2.1147 3.7346 1.1749 0
M  V30 3 C -1.4001 1.1815 0.6715 0 CFG=2
M  V30 4 O -3.137 3.8131 1.8374 0
M  V30 5 C -0.9208 4.5608 1.5354 0
M  V30 6 C -0.6678 0.2235 -0.318 0 CFG=2
M  V30 7 C -2.5665 0.4644 1.4108 0
M  V30 8 C -0.6979 -1.248 0.2137 0 CFG=1
M  V30 9 C 0.7688 0.6268 -0.7732 0 CFG=2
M  V30 10 C -3.1206 -0.6874 0.5937 0
M  V30 11 C -2.1654 -1.8175 0.1893 0 CFG=1
M  V30 12 C 0.3801 -2.121 -0.4755 0
M  V30 13 C 1.9273 -0.0547 -0.0236 0 CFG=1
M  V30 14 C 1.1691 2.0948 -0.8994 0
M  V30 15 C -4.398 -0.667 0.18 0
M  V30 16 C -2.5506 -2.3558 -1.223 0
M  V30 17 C -2.2975 -2.953 1.2346 0
M  V30 18 C 1.8178 -1.6134 -0.1715 0
M  V30 19 C 3.1394 0.5945 -0.7596 0 CFG=2
M  V30 20 C 1.9646 0.3449 1.4895 0
M  V30 21 C 2.7064 2.0696 -0.9797 0
M  V30 22 C -4.923 -1.6778 -0.7522 0
M  V30 23 C -4.0342 -2.7435 -1.3237 0
M  V30 24 O 3.3458 0.0049 -2.0392 0
M  V30 25 C 4.5201 0.4586 -0.0528 0
M  V30 26 O -6.1442 -1.6598 -1.0593 0
M  V30 27 C 4.6883 -0.1559 -2.3014 0
M  V30 28 C 5.5447 0.2536 -1.1735 0
M  V30 29 O 5.1242 -0.5897 -3.3998 0
M  V30 30 H -0.6769 1.5342 1.4355 0
M  V30 31 H -0.1134 3.9046 1.9208 0
M  V30 32 H -0.5597 5.1033 0.6355 0
M  V30 33 H -1.1823 5.3026 2.3207 0
M  V30 34 H -1.2754 0.2381 -1.2498 0
M  V30 35 H -3.3622 1.1854 1.6956 0
M  V30 36 H -2.1824 0.0473 2.3671 0
M  V30 37 H -0.4067 -1.2273 1.2812 0
M  V30 38 H 0.8212 0.246 -1.8245 0
M  V30 39 H 0.2982 -3.1762 -0.1399 0
M  V30 40 H 0.2204 -2.1071 -1.5756 0
M  V30 41 H 0.8575 2.6751 -0.0079 0
M  V30 42 H 0.7248 2.5527 -1.8101 0
M  V30 43 H -5.0555 0.1382 0.4854 0
M  V30 44 H -1.9411 -3.2493 -1.4797 0
M  V30 45 H -2.3444 -1.5868 -1.9972 0
M  V30 46 H -1.9677 -2.6102 2.2393 0
M  V30 47 H -3.3515 -3.2856 1.3386 0
M  V30 48 H -1.684 -3.8315 0.9456 0
M  V30 49 H 2.1773 -2.1098 0.7569 0
M  V30 50 H 2.4818 -1.9894 -0.977 0
M  V30 51 H 2.1434 1.4311 1.6285 0
M  V30 52 H 2.7784 -0.191 2.0199 0
M  V30 53 H 1.0378 0.1038 2.0324 0
M  V30 54 H 3.0512 2.445 -1.968 0
M  V30 55 H 3.1232 2.7393 -0.1966 0
M  V30 56 H -4.2929 -2.9044 -2.3926 0
M  V30 57 H -4.2188 -3.6983 -0.7877 0
M  V30 58 H 4.7777 1.3375 0.5761 0
M  V30 59 H 4.5361 -0.4514 0.5849 0
M  V30 60 H 6.0568 1.2073 -1.4192 0
M  V30 61 H 6.2789 -0.5385 -0.9172 0
M  V30 END ATOM
M  V30 BEGIN BOND
M  V30 1 1 1 2
M  V30 2 1 1 3
M  V30 3 2 2 4
M  V30 4 1 2 5
M  V30 5 1 3 6
M  V30 6 1 3 7
M  V30 7 1 6 8
M  V30 8 1 6 9
M  V30 9 1 7 10
M  V30 10 1 8 11
M  V30 11 1 8 12
M  V30 12 1 9 13
M  V30 13 1 9 14
M  V30 14 2 10 15
M  V30 15 1 11 16
M  V30 16 1 11 17
M  V30 17 1 12 18
M  V30 18 1 13 19
M  V30 19 1 13 20
M  V30 20 1 14 21
M  V30 21 1 15 22
M  V30 22 1 16 23
M  V30 23 1 19 24
M  V30 24 1 19 25
M  V30 25 2 22 26
M  V30 26 1 24 27
M  V30 27 1 25 28
M  V30 28 2 27 29
M  V30 29 1 10 11
M  V30 30 1 13 18
M  V30 31 1 19 21
M  V30 32 1 22 23
M  V30 33 1 27 28
M  V30 34 1 3 30
M  V30 35 1 5 31
M  V30 36 1 5 32
M  V30 37 1 5 33
M  V30 38 1 6 34
M  V30 39 1 7 35
M  V30 40 1 7 36
M  V30 41 1 8 37
M  V30 42 1 9 38
M  V30 43 1 12 39
M  V30 44 1 12 40
M  V30 45 1 14 41
M  V30 46 1 14 42
M  V30 47 1 15 43
M  V30 48 1 16 44
M  V30 49 1 16 45
M  V30 50 1 17 46
M  V30 51 1 17 47
M  V30 52 1 17 48
M  V30 53 1 18 49
M  V30 54 1 18 50
M  V30 55 1 20 51
M  V30 56 1 20 52
M  V30 57 1 20 53
M  V30 58 1 21 54
M  V30 59 1 21 55
M  V30 60 1 23 56
M  V30 61 1 23 57
M  V30 62 1 25 58
M  V30 63 1 25 59
M  V30 64 1 28 60
M  V30 65 1 28 61
M  V30 END BOND
M  V30 BEGIN COLLECTION
M  V30 MDLV30/STEABS ATOMS=(7 3 6 8 9 11 13 19)
M  V30 END COLLECTION
M  V30 END CTAB
M  END
>  <Structure No>
7726

>  <LogS>
-4.28

>  <MMFF94 Energy>
92.401

$$$$
Compound 7727
Actelion Java MolfileCreator 2.0

  0  0  0  0  0  0              0 V3000
M  V30 BEGIN CTAB
M  V30 COUNTS 54 57 0 0 0
M  V30 BEGIN ATOM
M  V30 1 O 6.4104 -0.1619 0.4857 0
M  V30 2 C 5.183 -0.0597 0.2227 0
M  V30 3 C 4.3138 0.7185 1.1178 0
M  V30 4 C 4.6323 -0.728 -1.002 0
M  V30 5 C 3.0219 0.9426 0.8224 0
M  V30 6 C 3.0976 -0.8239 -0.9594 0
M  V30 7 C 2.4175 0.5079 -0.5124 0 CFG=1
M  V30 8 C 2.1039 1.5011 1.8703 0
M  V30 9 C 0.8466 0.3544 -0.3618 0 CFG=2
M  V30 10 C 2.7149 1.6202 -1.5495 0
M  V30 11 C 1.0782 0.4286 2.2404 0
M  V30 12 C 0.4248 -0.2677 1.0034 0 CFG=1
M  V30 13 C 0.1933 -0.4377 -1.515 0
M  V30 14 C -1.1251 -0.3723 1.1585 0 CFG=2
M  V30 15 C -1.3315 -0.4218 -1.4001 0
M  V30 16 C -1.862 -1.0064 -0.0488 0 CFG=2
M  V30 17 C -1.8527 0.957 1.4334 0
M  V30 18 C -3.3437 -0.5686 0.1987 0 CFG=2
M  V30 19 C -1.7001 -2.5505 -0.0422 0
M  V30 20 C -3.2051 0.879 0.7248 0
M  V30 21 O -3.8968 -1.3593 1.2295 0
M  V30 22 C -4.2298 -0.7104 -1.0453 0
M  V30 23 O -4.4132 -1.8238 -1.5139 0
M  V30 24 C -4.91 0.4576 -1.7043 0
M  V30 25 H 4.721 1.0433 2.0681 0
M  V30 26 H 5.0552 -1.7526 -1.0835 0
M  V30 27 H 4.9547 -0.1608 -1.9007 0
M  V30 28 H 2.7578 -1.1195 -1.9746 0
M  V30 29 H 2.8159 -1.6382 -0.2567 0
M  V30 30 H 1.585 2.3973 1.4668 0
M  V30 31 H 2.6526 1.8198 2.784 0
M  V30 32 H 0.4102 1.3768 -0.3952 0
M  V30 33 H 2.3955 1.3141 -2.567 0
M  V30 34 H 3.7978 1.8617 -1.5893 0
M  V30 35 H 2.1857 2.5603 -1.283 0
M  V30 36 H 1.5891 -0.3447 2.8565 0
M  V30 37 H 0.3265 0.8935 2.9101 0
M  V30 38 H 0.808 -1.3118 1.0014 0
M  V30 39 H 0.4693 0.0156 -2.4898 0
M  V30 40 H 0.5423 -1.4902 -1.5243 0
M  V30 41 H -1.3092 -1.0171 2.0501 0
M  V30 42 H -1.7524 -0.9972 -2.2535 0
M  V30 43 H -1.6655 0.6286 -1.5348 0
M  V30 44 H -1.2799 1.8309 1.0571 0
M  V30 45 H -2.009 1.0921 2.5263 0
M  V30 46 H -0.6343 -2.8437 -0.1186 0
M  V30 47 H -2.2384 -3.0094 -0.8964 0
M  V30 48 H -2.0889 -2.9986 0.8961 0
M  V30 49 H -4.0331 1.1491 1.4163 0
M  V30 50 H -3.202 1.623 -0.0983 0
M  V30 51 H -4.831 -1.0562 1.3823 0
M  V30 52 H -5.4935 1.0307 -0.9535 0
M  V30 53 H -4.1545 1.1168 -2.1796 0
M  V30 54 H -5.6094 0.1072 -2.4932 0
M  V30 END ATOM
M  V30 BEGIN BOND
M  V30 1 2 1 2
M  V30 2 1 2 3
M  V30 3 1 2 4
M  V30 4 2 3 5
M  V30 5 1 4 6
M  V30 6 1 5 7
M  V30 7 1 5 8
M  V30 8 1 7 9
M  V30 9 1 7 10
M  V30 10 1 8 11
M  V30 11 1 9 12
M  V30 12 1 9 13
M  V30 13 1 12 14
M  V30 14 1 13 15
M  V30 15 1 14 16
M  V30 16 1 14 17
M  V30 17 1 16 18
M  V30 18 1 16 19
M  V30 19 1 17 20
M  V30 20 1 18 21
M  V30 21 1 18 22
M  V30 22 2 22 23
M  V30 23 1 22 24
M  V30 24 1 6 7
M  V30 25 1 11 12
M  V30 26 1 15 16
M  V30 27 1 18 20
M  V30 28 1 3 25
M  V30 29 1 4 26
M  V30 30 1 4 27
M  V30 31 1 6 28
M  V30 32 1 6 29
M  V30 33 1 8 30
M  V30 34 1 8 31
M  V30 35 1 9 32
M  V30 36 1 10 33
M  V30 37 1 10 34
M  V30 38 1 10 35
M  V30 39 1 11 36
M  V30 40 1 11 37
M  V30 41 1 12 38
M  V30 42 1 13 39
M  V30 43 1 13 40
M  V30 44 1 14 41
M  V30 45 1 15 42
M  V30 46 1 15 43
M  V30 47 1 17 44
M  V30 48 1 17 45
M  V30 49 1 19 46
M  V30 50 1 19 47
M  V30 51 1 19 48
M  V30 52 1 20 49
M  V30 53 1 20 50
M  V30 54 1 21 51
M  V30 55 1 24 52
M  V30 56 1 24 53
M  V30 57 1 24 54
M  V30 END BOND
M  V30 BEGIN COLLECTION
M  V30 MDLV30/STEABS ATOMS=(6 7 9 12 14 16 18)
M  V30 END COLLECTION
M  V30 END CTAB
M  END
>  <Structure No>
7727

>  <LogS>
-4.71

>  <MMFF94 Energy>
107.48

$$$$
Compound 7728
Actelion Java MolfileCreator 2.0

  0  0  0  0  0  0              0 V3000
M  V30 BEGIN CTAB
M  V30 COUNTS 57 60 0 0 0
M  V30 BEGIN ATOM
M  V30 1 F 1.0566 1.0566 -1.7887 0
M  V30 2 C 1.2915 0.0723 -0.8375 0 CFG=2
M  V30 3 C 2.8628 -0.2311 -0.906 0 CFG=2
M  V30 4 C 0.3916 -1.1646 -1.2449 0 CFG=2
M  V30 5 C 0.8085 0.681 0.5583 0 CFG=1
M  V30 6 C 3.6393 0.7836 -0.0378 0
M  V30 7 C 3.3417 -0.1757 -2.3679 0
M  V30 8 C 3.2295 -1.6528 -0.4088 0
M  V30 9 O 0.7505 -1.7013 -2.4919 0
M  V30 10 C -1.1438 -0.8783 -1.2348 0
M  V30 11 C -0.5491 0.0863 1.0195 0 CFG=2
M  V30 12 C 1.8294 0.5287 1.6994 0
M  V30 13 C 4.8065 1.3183 -0.4363 0
M  V30 14 C 3.1674 1.1526 1.3419 0
M  V30 15 C 4.5002 0.3666 -2.744 0
M  V30 16 C -1.6164 0.0665 -0.0844 0 CFG=2
M  V30 17 C -1.2329 0.7176 2.2324 0
M  V30 18 C 5.3237 1.0851 -1.781 0
M  V30 19 C -2.8619 -0.4271 0.7264 0 CFG=2
M  V30 20 C -1.8822 1.4966 -0.6677 0
M  V30 21 C -2.7324 0.3788 2.0689 0 CFG=1
M  V30 22 O 6.4496 1.5368 -2.1183 0
M  V30 23 O -2.7153 -1.8097 0.9926 0
M  V30 24 C -4.1914 -0.1797 -0.0038 0
M  V30 25 C -3.3005 -0.3414 3.3009 0
M  V30 26 O -4.8724 0.7994 0.2651 0
M  V30 27 C -4.6839 -1.1142 -1.0788 0
M  V30 28 O -4.8556 -0.421 -2.2844 0
M  V30 29 H 0.5643 -1.9673 -0.4968 0
M  V30 30 H 0.6689 1.7778 0.4281 0
M  V30 31 H 2.8024 -0.7064 -3.1342 0
M  V30 32 H 2.8761 -2.4326 -1.1162 0
M  V30 33 H 4.3331 -1.7623 -0.3332 0
M  V30 34 H 2.7992 -1.8888 0.579 0
M  V30 35 H 0.5225 -1.0286 -3.1859 0
M  V30 36 H -1.6547 -1.8605 -1.1816 0
M  V30 37 H -1.4483 -0.4531 -2.2161 0
M  V30 38 H -0.3443 -0.968 1.3242 0
M  V30 39 H 1.4568 1.0541 2.6055 0
M  V30 40 H 1.9515 -0.531 1.9942 0
M  V30 41 H 5.3646 1.9735 0.224 0
M  V30 42 H 3.0668 2.2594 1.3996 0
M  V30 43 H 3.9239 0.8364 2.0932 0
M  V30 44 H 4.8219 0.2926 -3.7755 0
M  V30 45 H -1.0836 1.82 2.2337 0
M  V30 46 H -0.8069 0.3071 3.1749 0
M  V30 47 H -2.6919 1.4674 -1.4258 0
M  V30 48 H -2.181 2.224 0.113 0
M  V30 49 H -1.003 1.9182 -1.1813 0
M  V30 50 H -3.2748 1.3466 1.9912 0
M  V30 51 H -3.5728 -2.1554 1.3551 0
M  V30 52 H -3.2358 0.3244 4.1875 0
M  V30 53 H -4.3693 -0.5949 3.134 0
M  V30 54 H -2.7317 -1.2705 3.5188 0
M  V30 55 H -5.6651 -1.528 -0.7649 0
M  V30 56 H -3.9974 -1.9756 -1.2257 0
M  V30 57 H -3.9516 -0.3056 -2.6779 0
M  V30 END ATOM
M  V30 BEGIN BOND
M  V30 1 1 1 2
M  V30 2 1 2 3
M  V30 3 1 2 4
M  V30 4 1 2 5
M  V30 5 1 3 6
M  V30 6 1 3 7
M  V30 7 1 3 8
M  V30 8 1 4 9
M  V30 9 1 4 10
M  V30 10 1 5 11
M  V30 11 1 5 12
M  V30 12 2 6 13
M  V30 13 1 6 14
M  V30 14 2 7 15
M  V30 15 1 10 16
M  V30 16 1 11 17
M  V30 17 1 13 18
M  V30 18 1 16 19
M  V30 19 1 16 20
M  V30 20 1 17 21
M  V30 21 2 18 22
M  V30 22 1 19 23
M  V30 23 1 19 24
M  V30 24 1 21 25
M  V30 25 2 24 26
M  V30 26 1 24 27
M  V30 27 1 27 28
M  V30 28 1 11 16
M  V30 29 1 12 14
M  V30 30 1 15 18
M  V30 31 1 19 21
M  V30 32 1 4 29
M  V30 33 1 5 30
M  V30 34 1 7 31
M  V30 35 1 8 32
M  V30 36 1 8 33
M  V30 37 1 8 34
M  V30 38 1 9 35
M  V30 39 1 10 36
M  V30 40 1 10 37
M  V30 41 1 11 38
M  V30 42 1 12 39
M  V30 43 1 12 40
M  V30 44 1 13 41
M  V30 45 1 14 42
M  V30 46 1 14 43
M  V30 47 1 15 44
M  V30 48 1 17 45
M  V30 49 1 17 46
M  V30 50 1 20 47
M  V30 51 1 20 48
M  V30 52 1 20 49
M  V30 53 1 21 50
M  V30 54 1 23 51
M  V30 55 1 25 52
M  V30 56 1 25 53
M  V30 57 1 25 54
M  V30 58 1 27 55
M  V30 59 1 27 56
M  V30 60 1 28 57
M  V30 END BOND
M  V30 BEGIN COLLECTION
M  V30 MDLV30/STEABS ATOMS=(8 2 3 4 5 11 16 19 21)
M  V30 END COLLECTION
M  V30 END CTAB
M  END
>  <Structure No>
7728

>  <LogS>
-3.77

>  <MMFF94 Energy>
176.47

$$$$
Compound 7729
Actelion Java MolfileCreator 2.0

  0  0  0  0  0  0              0 V3000
M  V30 BEGIN CTAB
M  V30 COUNTS 15 15 0 0 0
M  V30 BEGIN ATOM
M  V30 1 O 3.2164 -1.0444 0.4819 0
M  V30 2 C 2.6189 0.024 0.1844 0
M  V30 3 O 3.3662 1.1762 -0.0309 0 CHG=-1
M  V30 4 C 1.1445 0.0537 0.0656 0
M  V30 5 C 0.3831 -1.1095 0.2827 0
M  V30 6 C 0.4826 1.2492 -0.2667 0
M  V30 7 C -1.0101 -1.0753 0.169 0
M  V30 8 C -0.9108 1.2795 -0.3795 0
M  V30 9 C -1.6605 0.1199 -0.1624 0
M  V30 10 O -3.0479 0.1657 -0.2784 0
M  V30 11 H 0.8631 -2.0454 0.5401 0
M  V30 12 H 1.04 2.1612 -0.4398 0
M  V30 13 H -1.5827 -1.9781 0.3389 0
M  V30 14 H -1.4087 2.206 -0.636 0
M  V30 15 H -3.6193 -0.6573 -0.1273 0
M  V30 END ATOM
M  V30 BEGIN BOND
M  V30 1 2 1 2
M  V30 2 1 2 3
M  V30 3 1 2 4
M  V30 4 2 4 5
M  V30 5 1 4 6
M  V30 6 1 5 7
M  V30 7 2 6 8
M  V30 8 2 7 9
M  V30 9 1 9 10
M  V30 10 1 8 9
M  V30 11 1 5 11
M  V30 12 1 6 12
M  V30 13 1 7 13
M  V30 14 1 8 14
M  V30 15 1 10 15
M  V30 END BOND
M  V30 END CTAB
M  END
>  <Structure No>
7729

>  <LogS>
-1.41

>  <MMFF94 Energy>
25.469

$$$$
Compound 7730
Actelion Java MolfileCreator 2.0

  0  0  0  0  0  0              0 V3000
M  V30 BEGIN CTAB
M  V30 COUNTS 14 14 0 0 0
M  V30 BEGIN ATOM
M  V30 1 Cl 0.9992 2.7498 -0.0832 0
M  V30 2 C 0.1988 1.181 -0.0196 0
M  V30 3 C 0.9013 -0.0527 0.0487 0
M  V30 4 C -1.2026 1.1863 -0.039 0
M  V30 5 C 2.3869 -0.1439 0.0736 0
M  V30 6 C 0.1555 -1.2481 0.0953 0
M  V30 7 C -1.9184 -0.0093 0.008 0
M  V30 8 O 3.1099 0.8849 0.0346 0
M  V30 9 O 3.0085 -1.3859 0.1412 0 CHG=-1
M  V30 10 C -1.2405 -1.2243 0.075 0
M  V30 11 H -1.742 2.1239 -0.091 0
M  V30 12 H 0.6498 -2.2098 0.1479 0
M  V30 13 H -3.0006 0.0064 -0.0076 0
M  V30 14 H -1.7975 -2.1516 0.1114 0
M  V30 END ATOM
M  V30 BEGIN BOND
M  V30 1 1 1 2
M  V30 2 2 2 3
M  V30 3 1 2 4
M  V30 4 1 3 5
M  V30 5 1 3 6
M  V30 6 2 4 7
M  V30 7 2 5 8
M  V30 8 1 5 9
M  V30 9 2 6 10
M  V30 10 1 7 10
M  V30 11 1 4 11
M  V30 12 1 6 12
M  V30 13 1 7 13
M  V30 14 1 10 14
M  V30 END BOND
M  V30 END CTAB
M  END
>  <Structure No>
7730

>  <LogS>
-1.89

>  <MMFF94 Energy>
31.237

$$$$
Compound 7731
Actelion Java MolfileCreator 2.0

  0  0  0  0  0  0              0 V3000
M  V30 BEGIN CTAB
M  V30 COUNTS 15 14 0 0 0
M  V30 BEGIN ATOM
M  V30 1 Cl 2.7862 1.3104 -0.7369 0
M  V30 2 C 2.3758 -0.3293 -0.1693 0
M  V30 3 C 1.0445 -0.325 0.572 0
M  V30 4 O 0.0127 0.0487 -0.3166 0
M  V30 5 C -1.2186 0.072 0.3742 0
M  V30 6 C -2.3343 0.4549 -0.5906 0
M  V30 7 Cl -2.5113 -0.7752 -1.8692 0
M  V30 8 H 2.3214 -1.0149 -1.0416 0
M  V30 9 H 3.1792 -0.6822 0.5111 0
M  V30 10 H 1.1164 0.3881 1.4254 0
M  V30 11 H 0.8672 -1.3514 0.9667 0
M  V30 12 H -1.4536 -0.9267 0.8089 0
M  V30 13 H -1.1946 0.83 1.1901 0
M  V30 14 H -3.2938 0.5341 -0.0369 0
M  V30 15 H -2.1106 1.4376 -1.0574 0
M  V30 END ATOM
M  V30 BEGIN BOND
M  V30 1 1 1 2
M  V30 2 1 2 3
M  V30 3 1 3 4
M  V30 4 1 4 5
M  V30 5 1 5 6
M  V30 6 1 6 7
M  V30 7 1 2 8
M  V30 8 1 2 9
M  V30 9 1 3 10
M  V30 10 1 3 11
M  V30 11 1 5 12
M  V30 12 1 5 13
M  V30 13 1 6 14
M  V30 14 1 6 15
M  V30 END BOND
M  V30 END CTAB
M  END
>  <Structure No>
7731

>  <LogS>
-1.12

>  <MMFF94 Energy>
29.793

$$$$
Compound 7732
Actelion Java MolfileCreator 2.0

  0  0  0  0  0  0              0 V3000
M  V30 BEGIN CTAB
M  V30 COUNTS 26 25 0 0 0
M  V30 BEGIN ATOM
M  V30 1 N 3.5106 1.1436 0.4573 0 CHG=1
M  V30 2 C 2.673 0.4421 -0.515 0
M  V30 3 C 1.4382 -0.1672 0.1627 0
M  V30 4 C 0.5479 -0.8878 -0.8602 0
M  V30 5 C -0.6042 -1.6724 -0.2065 0
M  V30 6 C -1.6043 -0.8153 0.5907 0
M  V30 7 C -2.3304 0.2212 -0.2787 0
M  V30 8 C -3.4379 0.9185 0.5064 0
M  V30 9 H 3.84 0.4782 1.1942 0
M  V30 10 H 4.3425 1.5438 -0.0335 0
M  V30 11 H 2.9715 1.9233 0.8998 0
M  V30 12 H 3.2692 -0.3636 -0.9983 0
M  V30 13 H 2.3494 1.1568 -1.3044 0
M  V30 14 H 1.7672 -0.888 0.9429 0
M  V30 15 H 0.8622 0.6481 0.6496 0
M  V30 16 H 0.1489 -0.1595 -1.5977 0
M  V30 17 H 1.1692 -1.6157 -1.4268 0
M  V30 18 H -1.1555 -2.2193 -1.0024 0
M  V30 19 H -0.175 -2.4396 0.4742 0
M  V30 20 H -1.0915 -0.3106 1.4367 0
M  V30 21 H -2.3577 -1.5038 1.0326 0
M  V30 22 H -2.7779 -0.2767 -1.1662 0
M  V30 23 H -1.6127 0.9936 -0.6276 0
M  V30 24 H -3.9355 1.6712 -0.1407 0
M  V30 25 H -4.1983 0.1807 0.8407 0
M  V30 26 H -3.0143 1.4367 1.3932 0
M  V30 END ATOM
M  V30 BEGIN BOND
M  V30 1 1 1 2
M  V30 2 1 2 3
M  V30 3 1 3 4
M  V30 4 1 4 5
M  V30 5 1 5 6
M  V30 6 1 6 7
M  V30 7 1 7 8
M  V30 8 1 1 9
M  V30 9 1 1 10
M  V30 10 1 1 11
M  V30 11 1 2 12
M  V30 12 1 2 13
M  V30 13 1 3 14
M  V30 14 1 3 15
M  V30 15 1 4 16
M  V30 16 1 4 17
M  V30 17 1 5 18
M  V30 18 1 5 19
M  V30 19 1 6 20
M  V30 20 1 6 21
M  V30 21 1 7 22
M  V30 22 1 7 23
M  V30 23 1 8 24
M  V30 24 1 8 25
M  V30 25 1 8 26
M  V30 END BOND
M  V30 END CTAB
M  END
>  <Structure No>
7732

>  <LogS>
-1.85

>  <MMFF94 Energy>
-1.8104

$$$$
Compound 7733
Actelion Java MolfileCreator 2.0

  0  0  0  0  0  0              0 V3000
M  V30 BEGIN CTAB
M  V30 COUNTS 18 18 0 0 0
M  V30 BEGIN ATOM
M  V30 1 N 2.3862 -0.3845 0.6153 0 CHG=1
M  V30 2 C 1.6634 -0.2543 -0.6489 0
M  V30 3 C 0.1949 -0.0257 -0.4012 0
M  V30 4 C -0.6799 -1.1172 -0.2708 0
M  V30 5 C -0.302 1.2784 -0.2402 0
M  V30 6 C -2.037 -0.9041 -0.0078 0
M  V30 7 C -1.6597 1.4871 0.0226 0
M  V30 8 C -2.527 0.3969 0.1365 0
M  V30 9 H 2.017 -1.1995 1.1574 0
M  V30 10 H 3.4003 -0.5419 0.4154 0
M  V30 11 H 2.2836 0.4908 1.179 0
M  V30 12 H 1.8075 -1.1753 -1.2567 0
M  V30 13 H 2.0863 0.5924 -1.2341 0
M  V30 14 H -0.3112 -2.1305 -0.3715 0
M  V30 15 H 0.3611 2.1312 -0.3171 0
M  V30 16 H -2.7082 -1.748 0.0872 0
M  V30 17 H -2.0389 2.4939 0.1414 0
M  V30 18 H -3.5772 0.5599 0.3413 0
M  V30 END ATOM
M  V30 BEGIN BOND
M  V30 1 1 1 2
M  V30 2 1 2 3
M  V30 3 2 3 4
M  V30 4 1 3 5
M  V30 5 1 4 6
M  V30 6 2 5 7
M  V30 7 2 6 8
M  V30 8 1 7 8
M  V30 9 1 1 9
M  V30 10 1 1 10
M  V30 11 1 1 11
M  V30 12 1 2 12
M  V30 13 1 2 13
M  V30 14 1 4 14
M  V30 15 1 5 15
M  V30 16 1 6 16
M  V30 17 1 7 17
M  V30 18 1 8 18
M  V30 END BOND
M  V30 END CTAB
M  END
>  <Structure No>
7733

>  <LogS>
-1.53

>  <MMFF94 Energy>
8.5427

$$$$
Compound 7734
Actelion Java MolfileCreator 2.0

  0  0  0  0  0  0              0 V3000
M  V30 BEGIN CTAB
M  V30 COUNTS 26 27 0 0 0
M  V30 BEGIN ATOM
M  V30 1 N 4.9693 -0.5512 -0.2362 0
M  V30 2 C 3.5498 -0.3924 -0.1637 0
M  V30 3 C 2.8497 0.1886 -1.2287 0
M  V30 4 C 2.8496 -0.817 0.9728 0
M  V30 5 C 1.4621 0.3449 -1.1589 0
M  V30 6 C 1.4619 -0.6629 1.0447 0
M  V30 7 C 0.7519 -0.0795 -0.0208 0
M  V30 8 C -0.7225 0.0853 0.0544 0
M  V30 9 C -1.5286 -0.9285 0.6039 0
M  V30 10 C -1.3365 1.2581 -0.4223 0
M  V30 11 C -2.9162 -0.7723 0.6737 0
M  V30 12 C -2.7243 1.4123 -0.3504 0
M  V30 13 C -3.5205 0.3982 0.1974 0
M  V30 14 N -4.9398 0.5569 0.2698 0
M  V30 15 H 5.4998 -0.9834 0.5527 0
M  V30 16 H 5.4999 -0.2375 -1.0793 0
M  V30 17 H 3.3784 0.5177 -2.1145 0
M  V30 18 H 3.3792 -1.2643 1.8046 0
M  V30 19 H 0.9427 0.7814 -2.0027 0
M  V30 20 H 0.9467 -0.9837 1.9415 0
M  V30 21 H -1.0883 -1.8499 0.9635 0
M  V30 22 H -0.7425 2.064 -0.8346 0
M  V30 23 H -3.5206 -1.5653 1.0961 0
M  V30 24 H -3.1784 2.3236 -0.7187 0
M  V30 25 H -5.3994 1.4261 -0.0827 0
M  V30 26 H -5.5418 -0.1933 0.6768 0
M  V30 END ATOM
M  V30 BEGIN BOND
M  V30 1 1 1 2
M  V30 2 2 2 3
M  V30 3 1 2 4
M  V30 4 1 3 5
M  V30 5 2 4 6
M  V30 6 2 5 7
M  V30 7 1 7 8
M  V30 8 2 8 9
M  V30 9 1 8 10
M  V30 10 1 9 11
M  V30 11 2 10 12
M  V30 12 2 11 13
M  V30 13 1 13 14
M  V30 14 1 6 7
M  V30 15 1 12 13
M  V30 16 1 1 15
M  V30 17 1 1 16
M  V30 18 1 3 17
M  V30 19 1 4 18
M  V30 20 1 5 19
M  V30 21 1 6 20
M  V30 22 1 9 21
M  V30 23 1 10 22
M  V30 24 1 11 23
M  V30 25 1 12 24
M  V30 26 1 14 25
M  V30 27 1 14 26
M  V30 END BOND
M  V30 END CTAB
M  END
>  <Structure No>
7734

>  <LogS>
-2.7

>  <MMFF94 Energy>
21.109

$$$$
Compound 7735
Actelion Java MolfileCreator 2.0

  0  0  0  0  0  0              0 V3000
M  V30 BEGIN CTAB
M  V30 COUNTS 16 16 0 0 0
M  V30 BEGIN ATOM
M  V30 1 N 1.7792 0.4639 0.3865 0
M  V30 2 N 2.7444 -0.5225 0.134 0
M  V30 3 C 0.3861 0.2309 0.1302 0
M  V30 4 C -0.0637 -0.9986 -0.3852 0
M  V30 5 C -0.5483 1.2448 0.3967 0
M  V30 6 C -1.4257 -1.205 -0.6279 0
M  V30 7 C -1.9093 1.034 0.1526 0
M  V30 8 C -2.3476 -0.1897 -0.3593 0
M  V30 9 H 2.0871 1.3872 0.77 0
M  V30 10 H 3.4375 -0.1112 -0.5309 0
M  V30 11 H 3.2476 -0.6974 1.0331 0
M  V30 12 H 0.6331 -1.7981 -0.6003 0
M  V30 13 H -0.2222 2.1979 0.7936 0
M  V30 14 H -1.7666 -2.1526 -1.0244 0
M  V30 15 H -2.6239 1.8199 0.3604 0
M  V30 16 H -3.4012 -0.3514 -0.5478 0
M  V30 END ATOM
M  V30 BEGIN BOND
M  V30 1 1 1 2
M  V30 2 1 1 3
M  V30 3 2 3 4
M  V30 4 1 3 5
M  V30 5 1 4 6
M  V30 6 2 5 7
M  V30 7 2 6 8
M  V30 8 1 7 8
M  V30 9 1 1 9
M  V30 10 1 2 10
M  V30 11 1 2 11
M  V30 12 1 4 12
M  V30 13 1 5 13
M  V30 14 1 6 14
M  V30 15 1 7 15
M  V30 16 1 8 16
M  V30 END BOND
M  V30 END CTAB
M  END
>  <Structure No>
7735

>  <LogS>
0.07

>  <MMFF94 Energy>
46.226

$$$$
Compound 7736
Actelion Java MolfileCreator 2.0

  0  0  0  0  0  0              0 V3000
M  V30 BEGIN CTAB
M  V30 COUNTS 11 11 0 0 0
M  V30 BEGIN ATOM
M  V30 1 N 0.3118 -1.56 0.1559 0
M  V30 2 C -0.9777 -1.1316 0.088 0
M  V30 3 C 1.3559 -0.6895 0.1012 0
M  V30 4 C -1.2563 0.2316 -0.0411 0
M  V30 5 C 1.1179 0.6815 -0.0276 0
M  V30 6 C -0.1987 1.1421 -0.099 0
M  V30 7 H -1.7862 -1.8488 0.1343 0
M  V30 8 H 2.3701 -1.0614 0.1579 0
M  V30 9 H -2.2802 0.5782 -0.0955 0
M  V30 10 H 1.9445 1.3786 -0.0716 0
M  V30 11 H -0.3988 2.2011 -0.199 0
M  V30 END ATOM
M  V30 BEGIN BOND
M  V30 1 2 1 2
M  V30 2 1 1 3
M  V30 3 1 2 4
M  V30 4 2 3 5
M  V30 5 2 4 6
M  V30 6 1 5 6
M  V30 7 1 2 7
M  V30 8 1 3 8
M  V30 9 1 4 9
M  V30 10 1 5 10
M  V30 11 1 6 11
M  V30 END BOND
M  V30 END CTAB
M  END
>  <Structure No>
7736

>  <LogS>
0.76

>  <MMFF94 Energy>
15.523

$$$$
Compound 7737
Actelion Java MolfileCreator 2.0

  0  0  0  0  0  0              0 V3000
M  V30 BEGIN CTAB
M  V30 COUNTS 27 28 0 0 0
M  V30 BEGIN ATOM
M  V30 1 N 3.3176 1.1049 -0.7102 0
M  V30 2 C 2.0495 0.846 -1.1278 0
M  V30 3 C 3.7742 0.6802 0.497 0
M  V30 4 C 1.1669 0.1195 -0.3107 0
M  V30 5 C 2.935 -0.0404 1.3469 0
M  V30 6 C 1.6285 -0.3192 0.9432 0
M  V30 7 C -0.256 -0.1544 -0.7737 0 CFG=2
M  V30 8 N -1.2578 0.4917 0.0973 0 CHG=1 CFG=2
M  V30 9 C -0.5914 -1.6525 -0.8093 0
M  V30 10 C -2.4599 -0.3422 -0.0105 0
M  V30 11 C -1.5244 1.8867 -0.2923 0
M  V30 12 C -1.9781 -1.7719 -0.1949 0
M  V30 13 H 1.7309 1.2093 -2.0962 0
M  V30 14 H 4.7891 0.9037 0.7976 0
M  V30 15 H 3.2932 -0.3788 2.3106 0
M  V30 16 H 0.9793 -0.8768 1.6068 0
M  V30 17 H -0.3765 0.2162 -1.8202 0
M  V30 18 H -0.9458 0.4815 1.098 0
M  V30 19 H -0.6011 -2.0213 -1.8589 0
M  V30 20 H 0.1309 -2.2714 -0.2338 0
M  V30 21 H -3.0923 -0.2521 0.9012 0
M  V30 22 H -3.0715 -0.0554 -0.8978 0
M  V30 23 H -0.598 2.4936 -0.1953 0
M  V30 24 H -1.8849 1.9545 -1.3428 0
M  V30 25 H -2.2947 2.3295 0.3762 0
M  V30 26 H -1.9102 -2.2736 0.7955 0
M  V30 27 H -2.6672 -2.3472 -0.8511 0
M  V30 END ATOM
M  V30 BEGIN BOND
M  V30 1 2 1 2
M  V30 2 1 1 3
M  V30 3 1 2 4
M  V30 4 2 3 5
M  V30 5 2 4 6
M  V30 6 1 4 7
M  V30 7 1 7 8
M  V30 8 1 7 9
M  V30 9 1 8 10
M  V30 10 1 8 11
M  V30 11 1 9 12
M  V30 12 1 5 6
M  V30 13 1 10 12
M  V30 14 1 2 13
M  V30 15 1 3 14
M  V30 16 1 5 15
M  V30 17 1 6 16
M  V30 18 1 7 17
M  V30 19 1 8 18
M  V30 20 1 9 19
M  V30 21 1 9 20
M  V30 22 1 10 21
M  V30 23 1 10 22
M  V30 24 1 11 23
M  V30 25 1 11 24
M  V30 26 1 11 25
M  V30 27 1 12 26
M  V30 28 1 12 27
M  V30 END BOND
M  V30 BEGIN COLLECTION
M  V30 MDLV30/STEABS ATOMS=(2 7 8)
M  V30 END COLLECTION
M  V30 END CTAB
M  END
>  <Structure No>
7737

>  <LogS>
0.79

>  <MMFF94 Energy>
21.42

$$$$
Compound 7738
Actelion Java MolfileCreator 2.0

  0  0  0  0  0  0              0 V3000
M  V30 BEGIN CTAB
M  V30 COUNTS 44 46 0 0 0
M  V30 BEGIN ATOM
M  V30 1 O 1.9284 0.9638 2.411 0
M  V30 2 C 2.1182 0.5327 1.2403 0
M  V30 3 O 1.0429 0.4169 0.3499 0
M  V30 4 C 3.4789 0.1555 0.8004 0
M  V30 5 C -0.3131 0.7068 0.6959 0 CFG=1
M  V30 6 C 3.6985 -0.3075 -0.5097 0
M  V30 7 C 4.5722 0.2523 1.6818 0
M  V30 8 C -1.1996 0.9072 -0.5806 0 CFG=1
M  V30 9 C -0.8761 -0.3572 1.6768 0
M  V30 10 C 4.984 -0.6656 -0.9272 0
M  V30 11 C 5.8556 -0.1071 1.2586 0
M  V30 12 C -0.8065 0.1018 -1.8018 0
M  V30 13 C -2.7245 0.752 -0.2497 0 CFG=1
M  V30 14 C -2.4319 -0.337 1.7432 0 CFG=2
M  V30 15 C 6.0613 -0.5656 -0.0441 0
M  V30 16 O 0.084 -0.7905 -1.744 0
M  V30 17 O -1.4509 0.3672 -3.014 0
M  V30 18 N -3.0272 -0.526 0.4147 0 CHG=1 CFG=2
M  V30 19 C -3.1267 1.7957 0.8145 0
M  V30 20 C -2.9203 1.0656 2.1539 0
M  V30 21 C -1.1699 -0.356 -4.2058 0
M  V30 22 C -2.6757 -1.7685 -0.2976 0
M  V30 23 H -0.3174 1.6818 1.2341 0
M  V30 24 H 2.8797 -0.3925 -1.2126 0
M  V30 25 H 4.4367 0.6047 2.6967 0
M  V30 26 H -1.0442 1.9617 -0.9013 0
M  V30 27 H -0.4777 -0.1581 2.6951 0
M  V30 28 H -0.5043 -1.3669 1.4113 0
M  V30 29 H 5.1446 -1.0208 -1.9368 0
M  V30 30 H 6.6913 -0.0302 1.9421 0
M  V30 31 H -3.344 0.8827 -1.1659 0
M  V30 32 H -2.7949 -1.109 2.4582 0
M  V30 33 H 7.0554 -0.8435 -0.3696 0
M  V30 34 H -4.0702 -0.576 0.5371 0
M  V30 35 H -2.5282 2.7309 0.7595 0
M  V30 36 H -4.2004 2.0593 0.6929 0
M  V30 37 H -2.1989 1.6003 2.8098 0
M  V30 38 H -3.8909 0.9824 2.6906 0
M  V30 39 H -1.3944 -1.4335 -4.0574 0
M  V30 40 H -0.1024 -0.2293 -4.4847 0
M  V30 41 H -1.8053 0.0339 -5.027 0
M  V30 42 H -3.1265 -2.6397 0.2256 0
M  V30 43 H -1.5916 -1.9533 -0.3553 0
M  V30 44 H -3.0863 -1.7432 -1.3302 0
M  V30 END ATOM
M  V30 BEGIN BOND
M  V30 1 2 1 2
M  V30 2 1 2 3
M  V30 3 1 2 4
M  V30 4 1 3 5
M  V30 5 2 4 6
M  V30 6 1 4 7
M  V30 7 1 5 8
M  V30 8 1 5 9
M  V30 9 1 6 10
M  V30 10 2 7 11
M  V30 11 1 8 12
M  V30 12 1 8 13
M  V30 13 1 9 14
M  V30 14 2 10 15
M  V30 15 2 12 16
M  V30 16 1 12 17
M  V30 17 1 13 18
M  V30 18 1 13 19
M  V30 19 1 14 20
M  V30 20 1 17 21
M  V30 21 1 18 22
M  V30 22 1 11 15
M  V30 23 1 14 18
M  V30 24 1 19 20
M  V30 25 1 5 23
M  V30 26 1 6 24
M  V30 27 1 7 25
M  V30 28 1 8 26
M  V30 29 1 9 27
M  V30 30 1 9 28
M  V30 31 1 10 29
M  V30 32 1 11 30
M  V30 33 1 13 31
M  V30 34 1 14 32
M  V30 35 1 15 33
M  V30 36 1 18 34
M  V30 37 1 19 35
M  V30 38 1 19 36
M  V30 39 1 20 37
M  V30 40 1 20 38
M  V30 41 1 21 39
M  V30 42 1 21 40
M  V30 43 1 21 41
M  V30 44 1 22 42
M  V30 45 1 22 43
M  V30 46 1 22 44
M  V30 END BOND
M  V30 BEGIN COLLECTION
M  V30 MDLV30/STEABS ATOMS=(5 5 8 13 14 18)
M  V30 END COLLECTION
M  V30 END CTAB
M  END
>  <Structure No>
7738

>  <LogS>
-2.23

>  <MMFF94 Energy>
28.7

$$$$
Compound 7739
Actelion Java MolfileCreator 2.0

  0  0  0  0  0  0              0 V3000
M  V30 BEGIN CTAB
M  V30 COUNTS 40 41 0 0 0
M  V30 BEGIN ATOM
M  V30 1 O -3.3207 3.7166 -1.4221 0
M  V30 2 C -2.6858 2.5323 -1.0557 0
M  V30 3 C -1.7525 1.9285 -1.909 0
M  V30 4 C -2.9843 1.941 0.1761 0
M  V30 5 C -1.1207 0.7409 -1.5297 0
M  V30 6 C -2.3533 0.7535 0.558 0
M  V30 7 C -1.4119 0.149 -0.2893 0
M  V30 8 C -0.7362 -1.1071 0.1214 0
M  V30 9 C 0.6185 -1.1528 0.2695 0
M  V30 10 C -1.6172 -2.3342 0.2455 0
M  V30 11 C 1.4306 0.088 0.2021 0
M  V30 12 C 1.3628 -2.4245 0.6239 0
M  V30 13 C -1.7831 -3.022 -1.1067 0
M  V30 14 C 1.2283 1.1223 1.131 0
M  V30 15 C 2.4129 0.2353 -0.7893 0
M  V30 16 C 1.4826 -2.579 2.1377 0
M  V30 17 C 1.9888 2.2927 1.0588 0
M  V30 18 C 3.1729 1.4067 -0.8592 0
M  V30 19 C 2.963 2.4382 0.062 0
M  V30 20 O 3.726 3.6005 -0.021 0
M  V30 21 H -3.1261 4.1698 -2.3073 0
M  V30 22 H -1.5172 2.3775 -2.8654 0
M  V30 23 H -3.7042 2.4038 0.8392 0
M  V30 24 H -0.4055 0.2815 -2.2007 0
M  V30 25 H -2.5869 0.3136 1.5196 0
M  V30 26 H -2.624 -2.04 0.6121 0
M  V30 27 H -1.2255 -3.0543 0.9916 0
M  V30 28 H 2.3873 -2.3935 0.1951 0
M  V30 29 H 0.8827 -3.3234 0.188 0
M  V30 30 H -2.4194 -3.9243 -0.9894 0
M  V30 31 H -2.2726 -2.3343 -1.829 0
M  V30 32 H -0.7983 -3.3321 -1.5141 0
M  V30 33 H 0.4822 1.0205 1.9097 0
M  V30 34 H 2.5796 -0.5498 -1.5162 0
M  V30 35 H 2.0181 -3.5225 2.374 0
M  V30 36 H 2.056 -1.7291 2.5656 0
M  V30 37 H 0.479 -2.6119 2.6109 0
M  V30 38 H 1.8211 3.0845 1.7776 0
M  V30 39 H 3.9238 1.5142 -1.6314 0
M  V30 40 H 3.598 4.3656 0.6309 0
M  V30 END ATOM
M  V30 BEGIN BOND
M  V30 1 1 1 2
M  V30 2 2 2 3
M  V30 3 1 2 4
M  V30 4 1 3 5
M  V30 5 2 4 6
M  V30 6 2 5 7
M  V30 7 1 7 8
M  V30 8 2 8 9
M  V30 9 1 8 10
M  V30 10 1 9 11
M  V30 11 1 9 12
M  V30 12 1 10 13
M  V30 13 2 11 14
M  V30 14 1 11 15
M  V30 15 1 12 16
M  V30 16 1 14 17
M  V30 17 2 15 18
M  V30 18 2 17 19
M  V30 19 1 19 20
M  V30 20 1 6 7
M  V30 21 1 18 19
M  V30 22 1 1 21
M  V30 23 1 3 22
M  V30 24 1 4 23
M  V30 25 1 5 24
M  V30 26 1 6 25
M  V30 27 1 10 26
M  V30 28 1 10 27
M  V30 29 1 12 28
M  V30 30 1 12 29
M  V30 31 1 13 30
M  V30 32 1 13 31
M  V30 33 1 13 32
M  V30 34 1 14 33
M  V30 35 1 15 34
M  V30 36 1 16 35
M  V30 37 1 16 36
M  V30 38 1 16 37
M  V30 39 1 17 38
M  V30 40 1 18 39
M  V30 41 1 20 40
M  V30 END BOND
M  V30 END CTAB
M  END
>  <Structure No>
7739

>  <LogS>
-4.35

>  <MMFF94 Energy>
28.072

$$$$
Compound 7740
Actelion Java MolfileCreator 2.0

  0  0  0  0  0  0              0 V3000
M  V30 BEGIN CTAB
M  V30 COUNTS 48 54 0 0 0
M  V30 BEGIN ATOM
M  V30 1 O 1.0714 4.1257 0.3295 0
M  V30 2 C 0.3591 3.0875 0.3252 0
M  V30 3 N 0.9449 1.7889 0.5456 0
M  V30 4 C -1.1535 3.2008 0.1465 0
M  V30 5 C 2.2534 1.334 0.1902 0
M  V30 6 C 0.0601 0.6384 0.5035 0 CFG=2
M  V30 7 C -1.8251 1.9891 -0.6009 0 CFG=1
M  V30 8 C 2.3151 -0.0462 0.1 0
M  V30 9 C 3.3728 2.1213 -0.1021 0
M  V30 10 C 1.0055 -0.6387 0.5103 0 CFG=2
M  V30 11 C -0.818 0.8335 -0.7991 0 CFG=2
M  V30 12 O -2.9653 1.5571 0.1304 0
M  V30 13 C 3.4951 -0.6998 -0.2583 0
M  V30 14 C 4.5653 1.4801 -0.4749 0
M  V30 15 C 0.3636 -1.7274 -0.3269 0 CFG=1
M  V30 16 C 1.0727 -1.4079 1.8931 0
M  V30 17 C -1.3536 -0.4455 -1.5275 0 CFG=1
M  V30 18 C -3.853 0.7783 -0.6624 0
M  V30 19 C 4.6263 0.076 -0.5527 0
M  V30 20 N -0.7286 -2.1338 0.5924 0 CHG=1 CFG=2
M  V30 21 C -0.1254 -1.3134 -1.7237 0
M  V30 22 C -0.0048 -2.555 1.7794 0
M  V30 23 C -2.4405 -1.273 -0.8031 0
M  V30 24 C -3.5946 -0.6883 -0.4332 0
M  V30 25 C -1.9608 -2.563 -0.0743 0
M  V30 26 H -1.386 4.1409 -0.3999 0
M  V30 27 H -1.5967 3.3027 1.1605 0
M  V30 28 H -0.5859 0.6747 1.4091 0
M  V30 29 H -2.1223 2.3728 -1.606 0
M  V30 30 H 3.3394 3.1992 -0.0441 0
M  V30 31 H -0.1182 1.2533 -1.5636 0
M  V30 32 H 3.5397 -1.7799 -0.3045 0
M  V30 33 H 5.4438 2.0697 -0.7028 0
M  V30 34 H 1.0842 -2.5672 -0.4872 0
M  V30 35 H 0.8418 -0.7272 2.7405 0
M  V30 36 H 2.0756 -1.8595 2.0557 0
M  V30 37 H -1.7404 -0.1611 -2.5311 0
M  V30 38 H -4.8872 1.0002 -0.326 0
M  V30 39 H -3.8277 1.0146 -1.7506 0
M  V30 40 H 5.5517 -0.408 -0.8362 0
M  V30 41 H -1.1828 -1.3235 1.0838 0
M  V30 42 H 0.6798 -0.7807 -2.2769 0
M  V30 43 H -0.3836 -2.2117 -2.3265 0
M  V30 44 H 0.4731 -3.5467 1.6145 0
M  V30 45 H -0.6547 -2.6087 2.6857 0
M  V30 46 H -4.3088 -1.2428 0.1688 0
M  V30 47 H -2.704 -2.9293 0.6704 0
M  V30 48 H -1.7542 -3.3805 -0.7978 0
M  V30 END ATOM
M  V30 BEGIN BOND
M  V30 1 2 1 2
M  V30 2 1 2 3
M  V30 3 1 2 4
M  V30 4 1 3 5
M  V30 5 1 3 6
M  V30 6 1 4 7
M  V30 7 2 5 8
M  V30 8 1 5 9
M  V30 9 1 6 10
M  V30 10 1 6 11
M  V30 11 1 7 12
M  V30 12 1 8 13
M  V30 13 2 9 14
M  V30 14 1 10 15
M  V30 15 1 10 16
M  V30 16 1 11 17
M  V30 17 1 12 18
M  V30 18 2 13 19
M  V30 19 1 15 20
M  V30 20 1 15 21
M  V30 21 1 16 22
M  V30 22 1 17 23
M  V30 23 1 18 24
M  V30 24 1 20 25
M  V30 25 1 7 11
M  V30 26 1 8 10
M  V30 27 1 14 19
M  V30 28 1 17 21
M  V30 29 1 20 22
M  V30 30 2 23 24
M  V30 31 1 23 25
M  V30 32 1 4 26
M  V30 33 1 4 27
M  V30 34 1 6 28
M  V30 35 1 7 29
M  V30 36 1 9 30
M  V30 37 1 11 31
M  V30 38 1 13 32
M  V30 39 1 14 33
M  V30 40 1 15 34
M  V30 41 1 16 35
M  V30 42 1 16 36
M  V30 43 1 17 37
M  V30 44 1 18 38
M  V30 45 1 18 39
M  V30 46 1 19 40
M  V30 47 1 20 41
M  V30 48 1 21 42
M  V30 49 1 21 43
M  V30 50 1 22 44
M  V30 51 1 22 45
M  V30 52 1 24 46
M  V30 53 1 25 47
M  V30 54 1 25 48
M  V30 END BOND
M  V30 BEGIN COLLECTION
M  V30 MDLV30/STEABS ATOMS=(7 6 7 10 11 15 17 20)
M  V30 END COLLECTION
M  V30 END CTAB
M  END
>  <Structure No>
7740

>  <LogS>
-3.32

>  <MMFF94 Energy>
87.749

$$$$
Compound 7741
Actelion Java MolfileCreator 2.0

  0  0  0  0  0  0              0 V3000
M  V30 BEGIN CTAB
M  V30 COUNTS 30 31 0 0 0
M  V30 BEGIN ATOM
M  V30 1 O -1.6896 3.9458 -0.402 0
M  V30 2 C -1.2301 2.7836 -0.2463 0
M  V30 3 N -0.4549 2.4734 0.9073 0
M  V30 4 N -1.4769 1.7833 -1.2293 0
M  V30 5 C 0.0648 1.1589 1.1226 0
M  V30 6 C -0.9869 0.449 -1.0728 0
M  V30 7 O 0.7872 0.9501 2.1356 0
M  V30 8 C -0.264 -0.0025 0.1901 0
M  V30 9 O -1.1915 -0.3849 -1.9971 0
M  V30 10 C 1.0672 -0.6397 -0.2486 0
M  V30 11 C -1.1939 -0.988 0.9632 0
M  V30 12 C 2.0249 0.1675 -0.903 0
M  V30 13 C 1.3745 -2.0074 -0.0539 0
M  V30 14 C -2.4575 -0.3399 1.4809 0
M  V30 15 C 3.2432 -0.3653 -1.3314 0
M  V30 16 C 2.5965 -2.5325 -0.4858 0
M  V30 17 C -3.5565 -0.2254 0.7296 0
M  V30 18 C 3.5293 -1.7136 -1.1218 0
M  V30 19 H -0.2514 3.2255 1.6038 0
M  V30 20 H -2.0185 2.0327 -2.0875 0
M  V30 21 H -1.4691 -1.8548 0.3216 0
M  V30 22 H -0.6494 -1.3916 1.845 0
M  V30 23 H 1.8243 1.2166 -1.0831 0
M  V30 24 H 0.6862 -2.6858 0.427 0
M  V30 25 H -2.4754 0.0324 2.5011 0
M  V30 26 H 3.9654 0.2689 -1.8288 0
M  V30 27 H 2.8193 -3.5799 -0.328 0
M  V30 28 H -3.5807 -0.5991 -0.2891 0
M  V30 29 H -4.4459 0.2434 1.1376 0
M  V30 30 H 4.4733 -2.1251 -1.4548 0
M  V30 END ATOM
M  V30 BEGIN BOND
M  V30 1 2 1 2
M  V30 2 1 2 3
M  V30 3 1 2 4
M  V30 4 1 3 5
M  V30 5 1 4 6
M  V30 6 2 5 7
M  V30 7 1 5 8
M  V30 8 2 6 9
M  V30 9 1 8 10
M  V30 10 1 8 11
M  V30 11 2 10 12
M  V30 12 1 10 13
M  V30 13 1 11 14
M  V30 14 1 12 15
M  V30 15 2 13 16
M  V30 16 2 14 17
M  V30 17 2 15 18
M  V30 18 1 6 8
M  V30 19 1 16 18
M  V30 20 1 3 19
M  V30 21 1 4 20
M  V30 22 1 11 21
M  V30 23 1 11 22
M  V30 24 1 12 23
M  V30 25 1 13 24
M  V30 26 1 14 25
M  V30 27 1 15 26
M  V30 28 1 16 27
M  V30 29 1 17 28
M  V30 30 1 17 29
M  V30 31 1 18 30
M  V30 END BOND
M  V30 END CTAB
M  END
>  <Structure No>
7741

>  <LogS>
-2.18

>  <MMFF94 Energy>
-63.392

$$$$
Compound 7742
Actelion Java MolfileCreator 2.0

  0  0  0  0  0  0              0 V3000
M  V30 BEGIN CTAB
M  V30 COUNTS 28 28 0 0 0
M  V30 BEGIN ATOM
M  V30 1 O -0.1552 -1.4758 -1.6312 0
M  V30 2 C -0.1564 -0.2521 -0.9361 0 CFG=2
M  V30 3 C 1.2433 0.0415 -0.4232 0
M  V30 4 C -1.2355 -0.2291 0.1919 0 CFG=2
M  V30 5 C 1.8673 -0.8116 0.5072 0
M  V30 6 C 1.9344 1.1825 -0.871 0
M  V30 7 N -2.5708 -0.5418 -0.373 0 CHG=1
M  V30 8 C -1.2442 1.1443 0.8996 0
M  V30 9 C 3.1528 -0.5262 0.9773 0
M  V30 10 C 3.2197 1.463 -0.3973 0
M  V30 11 C -3.5846 -0.7886 0.6607 0
M  V30 12 C 3.8283 0.6097 0.5256 0
M  V30 13 H -0.0658 -2.2066 -0.9655 0
M  V30 14 H -0.4418 0.5303 -1.6737 0
M  V30 15 H -0.9655 -1.0016 0.9469 0
M  V30 16 H 1.3612 -1.6953 0.8733 0
M  V30 17 H 1.4789 1.8585 -1.5838 0
M  V30 18 H -2.5136 -1.41 -0.9538 0
M  V30 19 H -2.8951 0.2392 -0.9906 0
M  V30 20 H -0.2396 1.3905 1.3017 0
M  V30 21 H -1.9348 1.1391 1.7669 0
M  V30 22 H -1.5524 1.9453 0.1942 0
M  V30 23 H 3.6251 -1.1862 1.6935 0
M  V30 24 H 3.7439 2.3436 -0.7459 0
M  V30 25 H -3.2137 -1.5095 1.4217 0
M  V30 26 H -4.4959 -1.222 0.1939 0
M  V30 27 H -3.8874 0.1584 1.1548 0
M  V30 28 H 4.8232 0.829 0.8913 0
M  V30 END ATOM
M  V30 BEGIN BOND
M  V30 1 1 1 2
M  V30 2 1 2 3
M  V30 3 1 2 4
M  V30 4 2 3 5
M  V30 5 1 3 6
M  V30 6 1 4 7
M  V30 7 1 4 8
M  V30 8 1 5 9
M  V30 9 2 6 10
M  V30 10 1 7 11
M  V30 11 2 9 12
M  V30 12 1 10 12
M  V30 13 1 1 13
M  V30 14 1 2 14
M  V30 15 1 4 15
M  V30 16 1 5 16
M  V30 17 1 6 17
M  V30 18 1 7 18
M  V30 19 1 7 19
M  V30 20 1 8 20
M  V30 21 1 8 21
M  V30 22 1 8 22
M  V30 23 1 9 23
M  V30 24 1 10 24
M  V30 25 1 11 25
M  V30 26 1 11 26
M  V30 27 1 11 27
M  V30 28 1 12 28
M  V30 END BOND
M  V30 BEGIN COLLECTION
M  V30 MDLV30/STEABS ATOMS=(2 2 4)
M  V30 END COLLECTION
M  V30 END CTAB
M  END
>  <Structure No>
7742

>  <LogS>
-0.42

>  <MMFF94 Energy>
51.464

$$$$
Compound 7743
Actelion Java MolfileCreator 2.0

  0  0  0  0  0  0              0 V3000
M  V30 BEGIN CTAB
M  V30 COUNTS 14 14 0 0 0
M  V30 BEGIN ATOM
M  V30 1 O -3.0103 -0.8942 1.8704 0
M  V30 2 N -2.3696 -1.0544 0.8114 0 CHG=1
M  V30 3 O -2.8738 -1.877 -0.168 0 CHG=-1
M  V30 4 C -1.1196 -0.3911 0.6105 0
M  V30 5 O -0.3968 -0.5163 -0.4778 0
M  V30 6 C -0.5035 0.4585 1.5102 0
M  V30 7 C 0.6804 0.2217 -0.3332 0
M  V30 8 C 0.666 0.8558 0.8952 0
M  V30 9 C 1.7378 0.3452 -1.3394 0
M  V30 10 N 1.6484 -0.2955 -2.4589 0
M  V30 11 O 2.6371 -0.1845 -3.4083 0 CHG=-1
M  V30 12 H -0.8584 0.7526 2.4891 0
M  V30 13 H 1.4153 1.526 1.2956 0
M  V30 14 H 2.5958 0.9767 -1.1408 0
M  V30 END ATOM
M  V30 BEGIN BOND
M  V30 1 2 1 2
M  V30 2 1 2 3
M  V30 3 1 2 4
M  V30 4 1 4 5
M  V30 5 2 4 6
M  V30 6 1 5 7
M  V30 7 1 6 8
M  V30 8 1 7 9
M  V30 9 2 9 10
M  V30 10 1 10 11
M  V30 11 2 7 8
M  V30 12 1 6 12
M  V30 13 1 8 13
M  V30 14 1 9 14
M  V30 END BOND
M  V30 END CTAB
M  END
>  <Structure No>
7743

>  <LogS>
-2.19

>  <MMFF94 Energy>
57.182

$$$$
Compound 7744
Actelion Java MolfileCreator 2.0

  0  0  0  0  0  0              0 V3000
M  V30 BEGIN CTAB
M  V30 COUNTS 12 12 0 0 0
M  V30 BEGIN ATOM
M  V30 1 O 2.5825 0.0 0.0 0
M  V30 2 C 1.3221 -0.0052 -0.0052 0
M  V30 3 N 0.6464 -1.1873 0.0301 0
M  V30 4 N 0.6373 1.171 -0.0463 0
M  V30 5 C -0.7146 -1.2112 0.025 0
M  V30 6 C -0.722 1.1843 -0.0526 0
M  V30 7 O -1.3278 -2.3113 0.0581 0
M  V30 8 C -1.4312 -0.0147 -0.0167 0
M  V30 9 H 1.1791 -2.0867 0.0616 0
M  V30 10 H 1.1567 2.0774 -0.0733 0
M  V30 11 H -1.2554 2.1261 -0.0854 0
M  V30 12 H -2.5144 -0.0122 -0.0215 0
M  V30 END ATOM
M  V30 BEGIN BOND
M  V30 1 2 1 2
M  V30 2 1 2 3
M  V30 3 1 2 4
M  V30 4 1 3 5
M  V30 5 1 4 6
M  V30 6 2 5 7
M  V30 7 1 5 8
M  V30 8 2 6 8
M  V30 9 1 3 9
M  V30 10 1 4 10
M  V30 11 1 6 11
M  V30 12 1 8 12
M  V30 END BOND
M  V30 END CTAB
M  END
>  <Structure No>
7744

>  <LogS>
-1.48

>  <MMFF94 Energy>
-97.065

$$$$
Compound 7745
Actelion Java MolfileCreator 2.0

  0  0  0  0  0  0              0 V3000
M  V30 BEGIN CTAB
M  V30 COUNTS 15 15 0 0 0
M  V30 BEGIN ATOM
M  V30 1 N 0.693 -1.0011 -0.2309 0 CHG=1
M  V30 2 C -0.7349 -0.9784 0.1072 0
M  V30 3 C 1.1607 0.3889 -0.2807 0
M  V30 4 C -1.2044 0.4635 0.0426 0
M  V30 5 C 0.0502 1.2721 0.2583 0
M  V30 6 H 0.8348 -1.4604 -1.1613 0
M  V30 7 H 1.225 -1.5337 0.4971 0
M  V30 8 H -0.8887 -1.3689 1.139 0
M  V30 9 H -1.3223 -1.6107 -0.5955 0
M  V30 10 H 1.3828 0.6791 -1.3329 0
M  V30 11 H 2.0886 0.5202 0.3198 0
M  V30 12 H -1.6201 0.6788 -0.9666 0
M  V30 13 H -1.9715 0.6828 0.8168 0
M  V30 14 H 0.0051 2.2481 -0.2718 0
M  V30 15 H 0.2021 1.445 1.3469 0
M  V30 END ATOM
M  V30 BEGIN BOND
M  V30 1 1 1 2
M  V30 2 1 1 3
M  V30 3 1 2 4
M  V30 4 1 3 5
M  V30 5 1 4 5
M  V30 6 1 1 6
M  V30 7 1 1 7
M  V30 8 1 2 8
M  V30 9 1 2 9
M  V30 10 1 3 10
M  V30 11 1 3 11
M  V30 12 1 4 12
M  V30 13 1 4 13
M  V30 14 1 5 14
M  V30 15 1 5 15
M  V30 END BOND
M  V30 END CTAB
M  END
>  <Structure No>
7745

>  <LogS>
1.15

>  <MMFF94 Energy>
4.9917

$$$$
Compound 7746
Actelion Java MolfileCreator 2.0

  0  0  0  0  0  0              0 V3000
M  V30 BEGIN CTAB
M  V30 COUNTS 21 21 0 0 0
M  V30 BEGIN ATOM
M  V30 1 N 0.9315 -0.3104 0.3104 0 CHG=1
M  V30 2 C 0.6102 1.0833 -0.0679 0
M  V30 3 C -0.0137 -1.2607 -0.3158 0
M  V30 4 C 2.3115 -0.6356 -0.087 0
M  V30 5 C -0.8148 1.4579 0.3627 0
M  V30 6 C -1.4588 -0.9614 0.1068 0
M  V30 7 C -1.8314 0.4828 -0.2354 0
M  V30 8 H 0.8702 -0.4042 1.3529 0
M  V30 9 H 0.7088 1.2236 -1.1691 0
M  V30 10 H 1.3172 1.7859 0.4279 0
M  V30 11 H 0.0602 -1.2129 -1.4268 0
M  V30 12 H 0.2292 -2.3014 -0.0042 0
M  V30 13 H 2.572 -1.6704 0.2266 0
M  V30 14 H 3.0307 0.0527 0.4089 0
M  V30 15 H 2.4415 -0.5537 -1.1893 0
M  V30 16 H -0.8863 1.438 1.4724 0
M  V30 17 H -1.0468 2.4894 0.0203 0
M  V30 18 H -2.1501 -1.6554 -0.4179 0
M  V30 19 H -1.5689 -1.1264 1.2012 0
M  V30 20 H -2.8427 0.7097 0.1652 0
M  V30 21 H -1.8625 0.608 -1.3403 0
M  V30 END ATOM
M  V30 BEGIN BOND
M  V30 1 1 1 2
M  V30 2 1 1 3
M  V30 3 1 1 4
M  V30 4 1 2 5
M  V30 5 1 3 6
M  V30 6 1 5 7
M  V30 7 1 6 7
M  V30 8 1 1 8
M  V30 9 1 2 9
M  V30 10 1 2 10
M  V30 11 1 3 11
M  V30 12 1 3 12
M  V30 13 1 4 13
M  V30 14 1 4 14
M  V30 15 1 4 15
M  V30 16 1 5 16
M  V30 17 1 5 17
M  V30 18 1 6 18
M  V30 19 1 6 19
M  V30 20 1 7 20
M  V30 21 1 7 21
M  V30 END BOND
M  V30 END CTAB
M  END
>  <Structure No>
7746

>  <LogS>
0.23

>  <MMFF94 Energy>
4.4897

$$$$
Compound 7747
Actelion Java MolfileCreator 2.0

  0  0  0  0  0  0              0 V3000
M  V30 BEGIN CTAB
M  V30 COUNTS 15 15 0 0 0
M  V30 BEGIN ATOM
M  V30 1 O -2.9578 -0.311 0.4665 0
M  V30 2 C -1.5899 -0.1798 0.2385 0
M  V30 3 C -0.8498 -1.2902 -0.1815 0
M  V30 4 C -0.9488 1.0527 0.426 0
M  V30 5 C 0.5241 -1.1725 -0.414 0
M  V30 6 C 0.4252 1.1716 0.1938 0
M  V30 7 C 1.1683 0.0593 -0.2273 0
M  V30 8 N 2.5732 0.1804 -0.4649 0
M  V30 9 H -3.5213 0.4742 0.7713 0
M  V30 10 H -1.3398 -2.2444 -0.3279 0
M  V30 11 H -1.5133 1.9175 0.751 0
M  V30 12 H 1.0858 -2.0393 -0.7389 0
M  V30 13 H 0.9098 2.1286 0.3419 0
M  V30 14 H 3.135 -0.6422 -0.7787 0
M  V30 15 H 3.0617 1.0934 -0.3286 0
M  V30 END ATOM
M  V30 BEGIN BOND
M  V30 1 1 1 2
M  V30 2 2 2 3
M  V30 3 1 2 4
M  V30 4 1 3 5
M  V30 5 2 4 6
M  V30 6 2 5 7
M  V30 7 1 7 8
M  V30 8 1 6 7
M  V30 9 1 1 9
M  V30 10 1 3 10
M  V30 11 1 4 11
M  V30 12 1 5 12
M  V30 13 1 6 13
M  V30 14 1 8 14
M  V30 15 1 8 15
M  V30 END BOND
M  V30 END CTAB
M  END
>  <Structure No>
7747

>  <LogS>
-0.8

>  <MMFF94 Energy>
-3.8974

$$$$
Compound 7748
Actelion Java MolfileCreator 2.0

  0  0  0  0  0  0              0 V3000
M  V30 BEGIN CTAB
M  V30 COUNTS 19 19 0 0 0
M  V30 BEGIN ATOM
M  V30 1 O 1.9603 0.235 -1.568 0
M  V30 2 C 2.1299 -0.2078 -0.3999 0
M  V30 3 N 1.0054 -0.5019 0.4431 0
M  V30 4 C 3.513 -0.5208 0.0699 0
M  V30 5 C -0.3414 -0.0779 0.1701 0
M  V30 6 C -0.6127 1.155 -0.4529 0
M  V30 7 C -1.4139 -0.8825 0.5872 0
M  V30 8 C -1.9335 1.5527 -0.6843 0
M  V30 9 C -2.7329 -0.4817 0.3531 0
M  V30 10 C -2.9926 0.7331 -0.2857 0
M  V30 11 H 1.1656 -1.132 1.2618 0
M  V30 12 H 3.72 -1.6 -0.084 0
M  V30 13 H 3.6091 -0.2801 1.1494 0
M  V30 14 H 4.258 0.0782 -0.4954 0
M  V30 15 H 0.1897 1.8222 -0.737 0
M  V30 16 H -1.2259 -1.8253 1.0853 0
M  V30 17 H -2.1362 2.5012 -1.1646 0
M  V30 18 H -3.5539 -1.1122 0.6693 0
M  V30 19 H -4.0141 1.0434 -0.4643 0
M  V30 END ATOM
M  V30 BEGIN BOND
M  V30 1 2 1 2
M  V30 2 1 2 3
M  V30 3 1 2 4
M  V30 4 1 3 5
M  V30 5 2 5 6
M  V30 6 1 5 7
M  V30 7 1 6 8
M  V30 8 2 7 9
M  V30 9 2 8 10
M  V30 10 1 9 10
M  V30 11 1 3 11
M  V30 12 1 4 12
M  V30 13 1 4 13
M  V30 14 1 4 14
M  V30 15 1 6 15
M  V30 16 1 7 16
M  V30 17 1 8 17
M  V30 18 1 9 18
M  V30 19 1 10 19
M  V30 END BOND
M  V30 END CTAB
M  END
>  <Structure No>
7748

>  <LogS>
-1.33

>  <MMFF94 Energy>
-0.0119

$$$$
Compound 7749
Actelion Java MolfileCreator 2.0

  0  0  0  0  0  0              0 V3000
M  V30 BEGIN CTAB
M  V30 COUNTS 44 48 0 0 0
M  V30 BEGIN ATOM
M  V30 1 O 1.8681 1.4617 0.8119 0
M  V30 2 C 1.9656 0.3664 -0.0312 0
M  V30 3 C 0.4933 1.8087 1.0268 0 CFG=1
M  V30 4 C 3.1232 -0.3396 -0.3607 0
M  V30 5 C 0.7345 -0.0687 -0.4241 0
M  V30 6 C -0.3218 0.7718 0.1743 0 CFG=1
M  V30 7 C 0.1077 1.7668 2.533 0 CFG=1
M  V30 8 O 4.3719 0.1803 0.0064 0
M  V30 9 C 2.9666 -1.5802 -1.029 0
M  V30 10 C 0.5358 -1.3712 -0.8903 0
M  V30 11 C -1.185 -0.1929 1.0122 0 CFG=1
M  V30 12 C -1.1565 1.5012 -0.9139 0
M  V30 13 O 0.5272 2.9332 3.1941 0
M  V30 14 C -1.3934 1.5487 2.706 0
M  V30 15 C 5.6137 -0.4605 -0.2641 0
M  V30 16 C 1.6768 -2.1112 -1.2525 0
M  V30 17 C -0.8313 -2.0331 -0.7304 0
M  V30 18 C -2.0199 0.6059 1.9765 0
M  V30 19 C -1.9104 -1.1518 0.0261 0 CFG=2
M  V30 20 C -2.0142 0.5448 -1.7559 0
M  V30 21 N -2.7875 -0.3756 -0.8966 0 CHG=1 CFG=1
M  V30 22 C -3.6621 -1.2416 -1.7114 0
M  V30 23 H 0.3354 2.8411 0.642 0
M  V30 24 H 0.6276 0.9041 3.0035 0
M  V30 25 H 3.8269 -2.1753 -1.3025 0
M  V30 26 H -0.529 -0.8273 1.6563 0
M  V30 27 H -0.4848 2.0735 -1.5914 0
M  V30 28 H -1.8327 2.2341 -0.421 0
M  V30 29 H 0.0157 3.694 2.8116 0
M  V30 30 H -1.9648 2.1711 3.3881 0
M  V30 31 H 6.4392 0.167 0.13 0
M  V30 32 H 5.7498 -0.5814 -1.3596 0
M  V30 33 H 5.6489 -1.451 0.2368 0
M  V30 34 H 1.5725 -3.1175 -1.6379 0
M  V30 35 H -0.6784 -2.9542 -0.1268 0
M  V30 36 H -1.1819 -2.3753 -1.722 0
M  V30 37 H -3.0905 0.4524 2.0673 0
M  V30 38 H -2.5442 -1.8347 0.6372 0
M  V30 39 H -1.3644 -0.0159 -2.4629 0
M  V30 40 H -2.7082 1.1576 -2.3744 0
M  V30 41 H -3.4348 0.2068 -0.3134 0
M  V30 42 H -4.4783 -0.637 -2.1654 0
M  V30 43 H -4.1408 -2.0251 -1.0843 0
M  V30 44 H -3.1117 -1.7286 -2.5431 0
M  V30 END ATOM
M  V30 BEGIN BOND
M  V30 1 1 1 2
M  V30 2 1 1 3
M  V30 3 2 2 4
M  V30 4 1 2 5
M  V30 5 1 3 6
M  V30 6 1 3 7
M  V30 7 1 4 8
M  V30 8 1 4 9
M  V30 9 2 5 10
M  V30 10 1 6 11
M  V30 11 1 6 12
M  V30 12 1 7 13
M  V30 13 1 7 14
M  V30 14 1 8 15
M  V30 15 2 9 16
M  V30 16 1 10 17
M  V30 17 1 11 18
M  V30 18 1 11 19
M  V30 19 1 12 20
M  V30 20 1 19 21
M  V30 21 1 21 22
M  V30 22 1 5 6
M  V30 23 1 10 16
M  V30 24 2 14 18
M  V30 25 1 17 19
M  V30 26 1 20 21
M  V30 27 1 3 23
M  V30 28 1 7 24
M  V30 29 1 9 25
M  V30 30 1 11 26
M  V30 31 1 12 27
M  V30 32 1 12 28
M  V30 33 1 13 29
M  V30 34 1 14 30
M  V30 35 1 15 31
M  V30 36 1 15 32
M  V30 37 1 15 33
M  V30 38 1 16 34
M  V30 39 1 17 35
M  V30 40 1 17 36
M  V30 41 1 18 37
M  V30 42 1 19 38
M  V30 43 1 20 39
M  V30 44 1 20 40
M  V30 45 1 21 41
M  V30 46 1 22 42
M  V30 47 1 22 43
M  V30 48 1 22 44
M  V30 END BOND
M  V30 BEGIN COLLECTION
M  V30 MDLV30/STEABS ATOMS=(6 3 6 7 11 19 21)
M  V30 END COLLECTION
M  V30 END CTAB
M  END
>  <Structure No>
7749

>  <LogS>
-1.52

>  <MMFF94 Energy>
121.41

$$$$
Compound 7750
Actelion Java MolfileCreator 2.0

  0  0  0  0  0  0              0 V3000
M  V30 BEGIN CTAB
M  V30 COUNTS 13 12 0 0 0
M  V30 BEGIN ATOM
M  V30 1 O 1.9442 0.6218 1.4773 0
M  V30 2 N 1.6304 0.074 0.4008 0 CHG=1
M  V30 3 O 2.1027 -1.1862 0.1184 0 CHG=-1
M  V30 4 C 0.6652 0.709 -0.49 0
M  V30 5 C -0.765 0.5372 0.0338 0
M  V30 6 C -1.2164 -0.9217 0.0133 0
M  V30 7 H 0.7524 0.2773 -1.5109 0
M  V30 8 H 0.8957 1.794 -0.5645 0
M  V30 9 H -0.8368 0.9328 1.0702 0
M  V30 10 H -1.453 1.1308 -0.6062 0
M  V30 11 H -2.2751 -0.9863 0.342 0
M  V30 12 H -1.1382 -1.3368 -1.0138 0
M  V30 13 H -0.5973 -1.5305 0.7054 0
M  V30 END ATOM
M  V30 BEGIN BOND
M  V30 1 2 1 2
M  V30 2 1 2 3
M  V30 3 1 2 4
M  V30 4 1 4 5
M  V30 5 1 5 6
M  V30 6 1 4 7
M  V30 7 1 4 8
M  V30 8 1 5 9
M  V30 9 1 5 10
M  V30 10 1 6 11
M  V30 11 1 6 12
M  V30 12 1 6 13
M  V30 END BOND
M  V30 END CTAB
M  END
>  <Structure No>
7750

>  <LogS>
-0.8

>  <MMFF94 Energy>
1.0532

$$$$
Compound 7751
Actelion Java MolfileCreator 2.0

  0  0  0  0  0  0              0 V3000
M  V30 BEGIN CTAB
M  V30 COUNTS 14 14 0 0 0
M  V30 BEGIN ATOM
M  V30 1 O 2.957 1.0382 0.2395 0
M  V30 2 N 2.3155 -0.0311 0.1772 0 CHG=1
M  V30 3 O 3.0072 -1.2207 0.1936 0 CHG=-1
M  V30 4 C 0.8789 -0.0217 0.0897 0
M  V30 5 C 0.1618 -1.2305 0.0199 0
M  V30 6 C 0.1674 1.1937 0.0728 0
M  V30 7 C -1.2339 -1.2223 -0.065 0
M  V30 8 C -1.2284 1.1959 -0.0123 0
M  V30 9 C -1.9285 -0.0106 -0.081 0
M  V30 10 H 0.6789 -2.1812 0.0309 0
M  V30 11 H 0.6893 2.1405 0.1251 0
M  V30 12 H -1.7777 -2.1566 -0.1183 0
M  V30 13 H -1.7677 2.1344 -0.0247 0
M  V30 14 H -3.0088 -0.0066 -0.1469 0
M  V30 END ATOM
M  V30 BEGIN BOND
M  V30 1 2 1 2
M  V30 2 1 2 3
M  V30 3 1 2 4
M  V30 4 2 4 5
M  V30 5 1 4 6
M  V30 6 1 5 7
M  V30 7 2 6 8
M  V30 8 2 7 9
M  V30 9 1 8 9
M  V30 10 1 5 10
M  V30 11 1 6 11
M  V30 12 1 7 12
M  V30 13 1 8 13
M  V30 14 1 9 14
M  V30 END BOND
M  V30 END CTAB
M  END
>  <Structure No>
7751

>  <LogS>
-1.8

>  <MMFF94 Energy>
49.472

$$$$
Compound 7752
Actelion Java MolfileCreator 2.0

  0  0  0  0  0  0              0 V3000
M  V30 BEGIN CTAB
M  V30 COUNTS 15 14 0 0 0
M  V30 BEGIN ATOM
M  V30 1 O 3.0795 -1.3078 -0.3845 0
M  V30 2 C 2.55 -0.4112 0.3235 0
M  V30 3 O 3.0717 -0.1276 1.5793 0 CHG=-1
M  V30 4 C 1.329 0.3062 -0.1597 0
M  V30 5 N 0.1167 -0.4099 0.2403 0
M  V30 6 C -1.2129 0.0409 -0.0774 0
M  V30 7 N -1.4153 1.1346 -0.7523 0 CHG=1
M  V30 8 N -2.3325 -0.7344 0.3611 0
M  V30 9 H 1.3663 0.387 -1.2676 0
M  V30 10 H 1.3174 1.3289 0.2745 0
M  V30 11 H 0.2079 -1.2976 0.7859 0
M  V30 12 H -2.3863 1.4488 -0.9752 0
M  V30 13 H -0.6324 1.7334 -1.0935 0
M  V30 14 H -3.3104 -0.4359 0.1477 0
M  V30 15 H -2.1871 -1.6143 0.9038 0
M  V30 END ATOM
M  V30 BEGIN BOND
M  V30 1 2 1 2
M  V30 2 1 2 3
M  V30 3 1 2 4
M  V30 4 1 4 5
M  V30 5 1 5 6
M  V30 6 2 6 7
M  V30 7 1 6 8
M  V30 8 1 4 9
M  V30 9 1 4 10
M  V30 10 1 5 11
M  V30 11 1 7 12
M  V30 12 1 7 13
M  V30 13 1 8 14
M  V30 14 1 8 15
M  V30 END BOND
M  V30 END CTAB
M  END
>  <Structure No>
7752

>  <LogS>
-1.51

>  <MMFF94 Energy>
-199.65

$$$$
Compound 7753
Actelion Java MolfileCreator 2.0

  0  0  0  0  0  0              0 V3000
M  V30 BEGIN CTAB
M  V30 COUNTS 67 70 0 0 0
M  V30 BEGIN ATOM
M  V30 1 O -7.9383 0.9694 -1.0503 0
M  V30 2 C -7.1364 0.8374 -0.0883 0
M  V30 3 O -6.8024 1.9429 0.6869 0 CHG=-1
M  V30 4 C -6.5198 -0.4987 0.2002 0
M  V30 5 C -5.3722 -0.8213 -0.7695 0
M  V30 6 C -4.1324 0.1153 -0.5853 0 CFG=1
M  V30 7 C -2.816 -0.7161 -0.3988 0 CFG=1
M  V30 8 C -4.054 1.0768 -1.7867 0
M  V30 9 C -1.4576 0.0454 -0.2022 0 CFG=2
M  V30 10 C -2.8938 -1.6578 0.8395 0
M  V30 11 C -0.7535 0.5341 -1.5058 0 CFG=2
M  V30 12 C -0.6051 -1.0945 0.3807 0 CFG=2
M  V30 13 C -1.6514 1.2284 0.7972 0
M  V30 14 C -1.4776 -1.7777 1.4199 0
M  V30 15 O -0.7542 -0.4753 -2.4855 0
M  V30 16 C 0.703 0.9825 -1.2194 0
M  V30 17 C 0.8812 -0.7985 0.7034 0 CFG=1
M  V30 18 C 1.5892 -0.0826 -0.4974 0 CFG=2
M  V30 19 C 1.2154 -0.1598 2.0628 0
M  V30 20 C 3.0629 0.4365 -0.1572 0 CFG=1
M  V30 21 C 2.7349 -0.1996 2.3438 0
M  V30 22 C 3.6124 -0.3702 1.0724 0 CFG=2
M  V30 23 C 3.9985 0.2227 -1.4139 0
M  V30 24 C 3.0824 1.9576 0.1979 0
M  V30 25 C 5.1029 -0.086 1.3972 0
M  V30 26 C 5.3412 -0.4623 -1.1076 0
M  V30 27 C 5.9876 0.1276 0.1464 0 CFG=2
M  V30 28 O 7.2459 -0.4642 0.3348 0
M  V30 29 H -6.1475 -0.5267 1.2482 0
M  V30 30 H -7.3032 -1.2812 0.1042 0
M  V30 31 H -5.1019 -1.8865 -0.6146 0
M  V30 32 H -5.7603 -0.7862 -1.8138 0
M  V30 33 H -4.2825 0.7335 0.3258 0
M  V30 34 H -2.7246 -1.3725 -1.2941 0
M  V30 35 H -5.0564 1.4946 -2.0172 0
M  V30 36 H -3.4107 1.949 -1.5691 0
M  V30 37 H -3.6758 0.5491 -2.6879 0
M  V30 38 H -3.578 -1.2503 1.6168 0
M  V30 39 H -3.2591 -2.6645 0.5406 0
M  V30 40 H -1.2939 1.42 -1.9021 0
M  V30 41 H -0.5256 -1.865 -0.4285 0
M  V30 42 H -2.0981 0.8904 1.7563 0
M  V30 43 H -0.7174 1.7586 1.0299 0
M  V30 44 H -2.3187 2.0044 0.3753 0
M  V30 45 H -1.1823 -2.8422 1.5552 0
M  V30 46 H -1.4286 -1.2593 2.4009 0
M  V30 47 H -0.5687 -0.0354 -3.3559 0
M  V30 48 H 1.1869 1.2457 -2.1846 0
M  V30 49 H 0.6561 1.9222 -0.6422 0
M  V30 50 H 1.3304 -1.8183 0.775 0
M  V30 51 H 1.6827 -0.9065 -1.24 0
M  V30 52 H 0.7023 -0.7071 2.8811 0
M  V30 53 H 0.874 0.8865 2.1127 0
M  V30 54 H 3.0143 0.7322 2.8841 0
M  V30 55 H 2.9554 -1.0442 3.0351 0
M  V30 56 H 3.5698 -1.4492 0.7979 0
M  V30 57 H 4.2166 1.1928 -1.9157 0
M  V30 58 H 3.5113 -0.3855 -2.2054 0
M  V30 59 H 2.8399 2.5834 -0.6871 0
M  V30 60 H 2.3598 2.2073 0.9972 0
M  V30 61 H 4.0829 2.2856 0.5395 0
M  V30 62 H 5.2 0.8091 2.0492 0
M  V30 63 H 5.4917 -0.947 1.9847 0
M  V30 64 H 5.1848 -1.5561 -0.9716 0
M  V30 65 H 6.0244 -0.3309 -1.976 0
M  V30 66 H 6.1254 1.221 -0.0278 0
M  V30 67 H 7.7263 0.0945 1.0022 0
M  V30 END ATOM
M  V30 BEGIN BOND
M  V30 1 2 1 2
M  V30 2 1 2 3
M  V30 3 1 2 4
M  V30 4 1 4 5
M  V30 5 1 5 6
M  V30 6 1 6 7
M  V30 7 1 6 8
M  V30 8 1 7 9
M  V30 9 1 7 10
M  V30 10 1 9 11
M  V30 11 1 9 12
M  V30 12 1 9 13
M  V30 13 1 10 14
M  V30 14 1 11 15
M  V30 15 1 11 16
M  V30 16 1 12 17
M  V30 17 1 16 18
M  V30 18 1 17 19
M  V30 19 1 18 20
M  V30 20 1 19 21
M  V30 21 1 20 22
M  V30 22 1 20 23
M  V30 23 1 20 24
M  V30 24 1 22 25
M  V30 25 1 23 26
M  V30 26 1 25 27
M  V30 27 1 27 28
M  V30 28 1 12 14
M  V30 29 1 17 18
M  V30 30 1 21 22
M  V30 31 1 26 27
M  V30 32 1 4 29
M  V30 33 1 4 30
M  V30 34 1 5 31
M  V30 35 1 5 32
M  V30 36 1 6 33
M  V30 37 1 7 34
M  V30 38 1 8 35
M  V30 39 1 8 36
M  V30 40 1 8 37
M  V30 41 1 10 38
M  V30 42 1 10 39
M  V30 43 1 11 40
M  V30 44 1 12 41
M  V30 45 1 13 42
M  V30 46 1 13 43
M  V30 47 1 13 44
M  V30 48 1 14 45
M  V30 49 1 14 46
M  V30 50 1 15 47
M  V30 51 1 16 48
M  V30 52 1 16 49
M  V30 53 1 17 50
M  V30 54 1 18 51
M  V30 55 1 19 52
M  V30 56 1 19 53
M  V30 57 1 21 54
M  V30 58 1 21 55
M  V30 59 1 22 56
M  V30 60 1 23 57
M  V30 61 1 23 58
M  V30 62 1 24 59
M  V30 63 1 24 60
M  V30 64 1 24 61
M  V30 65 1 25 62
M  V30 66 1 25 63
M  V30 67 1 26 64
M  V30 68 1 26 65
M  V30 69 1 27 66
M  V30 70 1 28 67
M  V30 END BOND
M  V30 BEGIN COLLECTION
M  V30 MDLV30/STEABS ATOMS=(10 6 7 9 11 12 17 18 20 22 27)
M  V30 END COLLECTION
M  V30 END CTAB
M  END
>  <Structure No>
7753

>  <LogS>
-3.95

>  <MMFF94 Energy>
107.47

$$$$
Compound 7754
Actelion Java MolfileCreator 2.0

  0  0  0  0  0  0              0 V3000
M  V30 BEGIN CTAB
M  V30 COUNTS 10 10 0 0 0
M  V30 BEGIN ATOM
M  V30 1 S -0.1642 1.1501 -0.9036 0
M  V30 2 C 0.716 0.0225 -0.0235 0
M  V30 3 C -1.6437 0.4946 -0.4388 0
M  V30 4 N -0.0801 -0.8527 0.6247 0
M  V30 5 N 2.1387 -0.0188 0.0414 0
M  V30 6 C -1.3946 -0.591 0.3945 0
M  V30 7 H -2.6201 0.8534 -0.7351 0
M  V30 8 H 2.6186 -0.7507 0.6105 0
M  V30 9 H 2.711 0.682 -0.479 0
M  V30 10 H -2.1828 -1.1889 0.8316 0
M  V30 END ATOM
M  V30 BEGIN BOND
M  V30 1 1 1 2
M  V30 2 1 1 3
M  V30 3 2 2 4
M  V30 4 1 2 5
M  V30 5 2 3 6
M  V30 6 1 4 6
M  V30 7 1 3 7
M  V30 8 1 5 8
M  V30 9 1 5 9
M  V30 10 1 6 10
M  V30 END BOND
M  V30 END CTAB
M  END
>  <Structure No>
7754

>  <LogS>
-0.36

>  <MMFF94 Energy>
-37.066

$$$$
Compound 7755
Actelion Java MolfileCreator 2.0

  0  0  0  0  0  0              0 V3000
M  V30 BEGIN CTAB
M  V30 COUNTS 9 8 0 0 0
M  V30 BEGIN ATOM
M  V30 1 Cl 1.0547 -1.2982 -1.4605 0
M  V30 2 C 0.1015 -1.0012 0.0192 0
M  V30 3 C -0.4991 0.4032 0.017 0
M  V30 4 C 0.5474 1.4275 0.1223 0
M  V30 5 N 1.3721 2.235 0.2053 0
M  V30 6 H -0.7189 -1.7482 0.06 0
M  V30 7 H 0.7487 -1.1455 0.911 0
M  V30 8 H -1.186 0.5089 0.8831 0
M  V30 9 H -1.081 0.5662 -0.9145 0
M  V30 END ATOM
M  V30 BEGIN BOND
M  V30 1 1 1 2
M  V30 2 1 2 3
M  V30 3 1 3 4
M  V30 4 3 4 5
M  V30 5 1 2 6
M  V30 6 1 2 7
M  V30 7 1 3 8
M  V30 8 1 3 9
M  V30 END BOND
M  V30 END CTAB
M  END
>  <Structure No>
7755

>  <LogS>
-0.29

>  <MMFF94 Energy>
-6.7532

$$$$
Compound 7756
Actelion Java MolfileCreator 2.0

  0  0  0  0  0  0              0 V3000
M  V30 BEGIN CTAB
M  V30 COUNTS 13 12 0 0 0
M  V30 BEGIN ATOM
M  V30 1 N 0.4594 -1.992 -2.0687 0
M  V30 2 C 0.7648 -1.0082 -1.5412 0
M  V30 3 C 1.1517 0.2388 -0.8731 0
M  V30 4 C 0.9625 0.1236 0.616 0
M  V30 5 C -0.2359 0.1408 1.2267 0
M  V30 6 C -1.5394 0.276 0.4938 0
M  V30 7 H 2.2236 0.4311 -1.0887 0
M  V30 8 H 0.5619 1.0864 -1.2806 0
M  V30 9 H 1.8524 0.0523 1.235 0
M  V30 10 H -0.2652 0.0646 2.3099 0
M  V30 11 H -2.3764 0.281 1.2228 0
M  V30 12 H -1.5629 1.229 -0.0749 0
M  V30 13 H -1.6825 -0.579 -0.1986 0
M  V30 END ATOM
M  V30 BEGIN BOND
M  V30 1 3 1 2
M  V30 2 1 2 3
M  V30 3 1 3 4
M  V30 4 2 4 5
M  V30 5 1 5 6
M  V30 6 1 3 7
M  V30 7 1 3 8
M  V30 8 1 4 9
M  V30 9 1 5 10
M  V30 10 1 6 11
M  V30 11 1 6 12
M  V30 12 1 6 13
M  V30 END BOND
M  V30 END CTAB
M  END
>  <Structure No>
7756

>  <LogS>
-0.96

>  <MMFF94 Energy>
22.589

$$$$
Compound 7757
Actelion Java MolfileCreator 2.0

  0  0  0  0  0  0              0 V3000
M  V30 BEGIN CTAB
M  V30 COUNTS 21 21 0 0 0
M  V30 BEGIN ATOM
M  V30 1 O -2.2687 1.3294 -1.0947 0
M  V30 2 C -2.5694 0.3083 -0.4193 0
M  V30 3 N -1.5475 -0.5719 0.073 0
M  V30 4 C -4.0087 -0.0369 -0.2164 0
M  V30 5 C -0.146 -0.25 0.0944 0
M  V30 6 C 0.3034 1.0626 0.3274 0
M  V30 7 C 0.7976 -1.2768 -0.0607 0
M  V30 8 C 1.6725 1.3439 0.3667 0
M  V30 9 C 2.1663 -0.9942 -0.0221 0
M  V30 10 C 2.6102 0.3181 0.1879 0
M  V30 11 N 4.01 0.6068 0.2288 0
M  V30 12 H -1.8345 -1.5363 0.3565 0
M  V30 13 H -4.1547 -0.4714 0.7946 0
M  V30 14 H -4.6408 0.8718 -0.3074 0
M  V30 15 H -4.3223 -0.7772 -0.9814 0
M  V30 16 H -0.3986 1.8661 0.5049 0
M  V30 17 H 0.4705 -2.2963 -0.2218 0
M  V30 18 H 2.0024 2.3597 0.5457 0
M  V30 19 H 2.8798 -1.7978 -0.1537 0
M  V30 20 H 4.7163 -0.1515 0.0998 0
M  V30 21 H 4.3505 1.5815 0.3878 0
M  V30 END ATOM
M  V30 BEGIN BOND
M  V30 1 2 1 2
M  V30 2 1 2 3
M  V30 3 1 2 4
M  V30 4 1 3 5
M  V30 5 2 5 6
M  V30 6 1 5 7
M  V30 7 1 6 8
M  V30 8 2 7 9
M  V30 9 2 8 10
M  V30 10 1 10 11
M  V30 11 1 9 10
M  V30 12 1 3 12
M  V30 13 1 4 13
M  V30 14 1 4 14
M  V30 15 1 4 15
M  V30 16 1 6 16
M  V30 17 1 7 17
M  V30 18 1 8 18
M  V30 19 1 9 19
M  V30 20 1 11 20
M  V30 21 1 11 21
M  V30 END BOND
M  V30 END CTAB
M  END
>  <Structure No>
7757

>  <LogS>
-0.98

>  <MMFF94 Energy>
-9.8755

$$$$
Compound 7758
Actelion Java MolfileCreator 2.0

  0  0  0  0  0  0              0 V3000
M  V30 BEGIN CTAB
M  V30 COUNTS 19 19 0 0 0
M  V30 BEGIN ATOM
M  V30 1 F -4.446 0.6342 -0.1585 0
M  V30 2 C -3.1202 0.3543 -0.1132 0
M  V30 3 C -2.6716 -0.8032 0.5281 0
M  V30 4 C -2.2022 1.2176 -0.7174 0
M  V30 5 C -1.3047 -1.0946 0.573 0
M  V30 6 C -0.8341 0.93 -0.6737 0
M  V30 7 C -0.3718 -0.2223 -0.0103 0
M  V30 8 N 1.0263 -0.5564 0.0297 0
M  V30 9 C 2.0851 0.4114 0.0945 0
M  V30 10 O 1.8394 1.6168 0.3702 0
M  V30 11 C 3.504 -0.0272 -0.0678 0
M  V30 12 H -3.3824 -1.477 0.9892 0
M  V30 13 H -2.5505 2.1062 -1.2283 0
M  V30 14 H -0.9699 -1.9958 1.0714 0
M  V30 15 H -0.1458 1.5935 -1.1797 0
M  V30 16 H 1.2884 -1.5662 0.0985 0
M  V30 17 H 3.8726 -0.4479 0.8907 0
M  V30 18 H 4.1436 0.8329 -0.3589 0
M  V30 19 H 3.5716 -0.8039 -0.8582 0
M  V30 END ATOM
M  V30 BEGIN BOND
M  V30 1 1 1 2
M  V30 2 2 2 3
M  V30 3 1 2 4
M  V30 4 1 3 5
M  V30 5 2 4 6
M  V30 6 2 5 7
M  V30 7 1 7 8
M  V30 8 1 8 9
M  V30 9 2 9 10
M  V30 10 1 9 11
M  V30 11 1 6 7
M  V30 12 1 3 12
M  V30 13 1 4 13
M  V30 14 1 5 14
M  V30 15 1 6 15
M  V30 16 1 8 16
M  V30 17 1 11 17
M  V30 18 1 11 18
M  V30 19 1 11 19
M  V30 END BOND
M  V30 END CTAB
M  END
>  <Structure No>
7758

>  <LogS>
-1.78

>  <MMFF94 Energy>
-3.7675

$$$$
Compound 7759
Actelion Java MolfileCreator 2.0

  0  0  0  0  0  0              0 V3000
M  V30 BEGIN CTAB
M  V30 COUNTS 23 23 0 0 0
M  V30 BEGIN ATOM
M  V30 1 O -2.9878 -0.157 1.493 0
M  V30 2 C -3.1405 -0.356 0.2576 0
M  V30 3 N -2.0037 -0.4805 -0.6106 0
M  V30 4 C -4.5168 -0.5616 -0.2856 0
M  V30 5 C -0.6603 -0.1269 -0.2382 0
M  V30 6 C 0.4154 -0.837 -0.7901 0
M  V30 7 C -0.3963 0.9539 0.6213 0
M  V30 8 C 1.7322 -0.5007 -0.4622 0
M  V30 9 C 0.9205 1.2907 0.9481 0
M  V30 10 C 1.9936 0.5682 0.4154 0
M  V30 11 O 3.2959 0.9446 0.7765 0
M  V30 12 C 4.477 0.3007 0.3102 0
M  V30 13 H -2.1527 -0.9327 -1.5414 0
M  V30 14 H -4.7282 -1.6488 -0.3543 0
M  V30 15 H -5.2694 -0.0846 0.3775 0
M  V30 16 H -4.5961 -0.1088 -1.2961 0
M  V30 17 H 0.2317 -1.6607 -1.4686 0
M  V30 18 H -1.202 1.5552 1.0204 0
M  V30 19 H 2.5378 -1.0757 -0.8976 0
M  V30 20 H 1.1088 2.1244 1.6128 0
M  V30 21 H 4.478 -0.7657 0.6199 0
M  V30 22 H 4.5428 0.378 -0.7955 0
M  V30 23 H 5.3619 0.8005 0.7545 0
M  V30 END ATOM
M  V30 BEGIN BOND
M  V30 1 2 1 2
M  V30 2 1 2 3
M  V30 3 1 2 4
M  V30 4 1 3 5
M  V30 5 2 5 6
M  V30 6 1 5 7
M  V30 7 1 6 8
M  V30 8 2 7 9
M  V30 9 2 8 10
M  V30 10 1 10 11
M  V30 11 1 11 12
M  V30 12 1 9 10
M  V30 13 1 3 13
M  V30 14 1 4 14
M  V30 15 1 4 15
M  V30 16 1 4 16
M  V30 17 1 6 17
M  V30 18 1 7 18
M  V30 19 1 8 19
M  V30 20 1 9 20
M  V30 21 1 12 21
M  V30 22 1 12 22
M  V30 23 1 12 23
M  V30 END BOND
M  V30 END CTAB
M  END
>  <Structure No>
7759

>  <LogS>
-1.3

>  <MMFF94 Energy>
3.1669

$$$$
Compound 7760
Actelion Java MolfileCreator 2.0

  0  0  0  0  0  0              0 V3000
M  V30 BEGIN CTAB
M  V30 COUNTS 55 56 0 0 0
M  V30 BEGIN ATOM
M  V30 1 O 0.7876 -1.1029 -1.1817 0
M  V30 2 C 0.2537 -0.5864 -0.1621 0
M  V30 3 N 0.8569 0.5556 0.465 0
M  V30 4 C -1.0182 -1.1367 0.3572 0
M  V30 5 C 2.1012 1.1507 -0.0173 0
M  V30 6 C -1.2125 -2.5204 0.5902 0
M  V30 7 C -2.0765 -0.2474 0.6006 0
M  V30 8 C 3.3044 0.2779 0.3954 0
M  V30 9 C -2.4841 -2.9591 1.0345 0
M  V30 10 C -0.1839 -3.4746 0.4332 0
M  V30 11 C -3.3205 -0.7298 1.0414 0
M  V30 12 N 4.6104 0.7275 -0.1605 0 CHG=1
M  V30 13 N -3.4821 -2.0622 1.2429 0
M  V30 14 C -2.719 -4.3179 1.2737 0
M  V30 15 C -0.4316 -4.8285 0.6773 0
M  V30 16 O -4.4156 0.113 1.2903 0
M  V30 17 C 4.6389 0.5767 -1.6408 0
M  V30 18 C 4.9814 2.1111 0.24 0
M  V30 19 C -1.6964 -5.2497 1.0905 0
M  V30 20 C -4.4781 1.5107 1.0008 0
M  V30 21 C 6.0583 0.3765 -2.1857 0
M  V30 22 C 5.087 2.2906 1.7592 0
M  V30 23 C -4.6341 1.7689 -0.5057 0
M  V30 24 C -5.8319 1.0353 -1.1321 0
M  V30 25 C -7.1773 1.5665 -0.6387 0
M  V30 26 H 0.3845 0.9958 1.2869 0
M  V30 27 H 2.2001 2.1601 0.4331 0
M  V30 28 H 2.0465 1.2711 -1.1192 0
M  V30 29 H -1.9272 0.8085 0.4253 0
M  V30 30 H 3.1158 -0.7733 0.0825 0
M  V30 31 H 3.3533 0.234 1.505 0
M  V30 32 H 0.8164 -3.188 0.1418 0
M  V30 33 H 5.3302 0.0807 0.2424 0
M  V30 34 H -3.6935 -4.6528 1.6077 0
M  V30 35 H 0.3626 -5.5531 0.5518 0
M  V30 36 H 4.1853 1.4617 -2.1407 0
M  V30 37 H 4.0484 -0.3123 -1.9583 0
M  V30 38 H 5.9796 2.3663 -0.1749 0
M  V30 39 H 4.2701 2.8577 -0.1744 0
M  V30 40 H -1.8814 -6.2992 1.2789 0
M  V30 41 H -3.5786 2.0304 1.3933 0
M  V30 42 H -5.3461 1.9436 1.5397 0
M  V30 43 H 6.6839 1.2765 -2.0199 0
M  V30 44 H 6.0092 0.1917 -3.2793 0
M  V30 45 H 6.539 -0.5013 -1.7049 0
M  V30 46 H 5.7072 1.4849 2.2049 0
M  V30 47 H 5.5653 3.2676 1.9828 0
M  V30 48 H 4.0818 2.2932 2.2286 0
M  V30 49 H -3.7121 1.4421 -1.0296 0
M  V30 50 H -4.7355 2.8623 -0.6779 0
M  V30 51 H -5.7871 1.1727 -2.2341 0
M  V30 52 H -5.7659 -0.0553 -0.9307 0
M  V30 53 H -7.2397 2.6654 -0.7883 0
M  V30 54 H -7.9968 1.0854 -1.2125 0
M  V30 55 H -7.3233 1.3289 0.4356 0
M  V30 END ATOM
M  V30 BEGIN BOND
M  V30 1 2 1 2
M  V30 2 1 2 3
M  V30 3 1 2 4
M  V30 4 1 3 5
M  V30 5 1 4 6
M  V30 6 2 4 7
M  V30 7 1 5 8
M  V30 8 1 6 9
M  V30 9 2 6 10
M  V30 10 1 7 11
M  V30 11 1 8 12
M  V30 12 1 9 13
M  V30 13 2 9 14
M  V30 14 1 10 15
M  V30 15 1 11 16
M  V30 16 1 12 17
M  V30 17 1 12 18
M  V30 18 1 14 19
M  V30 19 1 16 20
M  V30 20 1 17 21
M  V30 21 1 18 22
M  V30 22 1 20 23
M  V30 23 1 23 24
M  V30 24 1 24 25
M  V30 25 2 11 13
M  V30 26 2 15 19
M  V30 27 1 3 26
M  V30 28 1 5 27
M  V30 29 1 5 28
M  V30 30 1 7 29
M  V30 31 1 8 30
M  V30 32 1 8 31
M  V30 33 1 10 32
M  V30 34 1 12 33
M  V30 35 1 14 34
M  V30 36 1 15 35
M  V30 37 1 17 36
M  V30 38 1 17 37
M  V30 39 1 18 38
M  V30 40 1 18 39
M  V30 41 1 19 40
M  V30 42 1 20 41
M  V30 43 1 20 42
M  V30 44 1 21 43
M  V30 45 1 21 44
M  V30 46 1 21 45
M  V30 47 1 22 46
M  V30 48 1 22 47
M  V30 49 1 22 48
M  V30 50 1 23 49
M  V30 51 1 23 50
M  V30 52 1 24 51
M  V30 53 1 24 52
M  V30 54 1 25 53
M  V30 55 1 25 54
M  V30 56 1 25 55
M  V30 END BOND
M  V30 END CTAB
M  END
>  <Structure No>
7760

>  <LogS>
-3.7

>  <MMFF94 Energy>
0.53759

$$$$
Compound 7761
Actelion Java MolfileCreator 2.0

  0  0  0  0  0  0              0 V3000
M  V30 BEGIN CTAB
M  V30 COUNTS 43 45 0 0 0
M  V30 BEGIN ATOM
M  V30 1 O -3.0954 -0.6343 -0.793 0
M  V30 2 C -2.1788 -1.3414 -0.0235 0
M  V30 3 C -3.8851 0.4085 -0.2318 0
M  V30 4 C -1.0145 -0.7041 0.3999 0
M  V30 5 C -2.4153 -2.6786 0.3135 0
M  V30 6 C -3.1153 1.6242 0.2675 0
M  V30 7 C -0.757 0.6688 -0.0705 0
M  V30 8 C -0.103 -1.3896 1.2192 0
M  V30 9 C -1.4974 -3.3683 1.1124 0
M  V30 10 C -1.6934 1.7469 0.3392 0
M  V30 11 C -3.9084 2.704 0.7018 0
M  V30 12 C 0.2634 0.955 -0.9083 0
M  V30 13 C -0.3457 -2.721 1.5721 0
M  V30 14 C -1.1359 2.9403 0.8431 0
M  V30 15 C -3.3313 3.8759 1.1886 0
M  V30 16 C 1.2391 -0.0558 -1.4538 0
M  V30 17 C -1.9477 3.9936 1.2598 0
M  V30 18 C 2.6121 0.1042 -0.7781 0
M  V30 19 N 3.5681 -0.9513 -1.1938 0 CHG=1
M  V30 20 C 4.9521 -0.5013 -0.9608 0
M  V30 21 C 3.3325 -2.2099 -0.4592 0
M  V30 22 H -4.6034 0.7411 -1.0112 0
M  V30 23 H -4.4819 -0.008 0.609 0
M  V30 24 H -3.3134 -3.1756 -0.0301 0
M  V30 25 H 0.7907 -0.8986 1.5786 0
M  V30 26 H -1.6821 -4.4002 1.3812 0
M  V30 27 H -4.9894 2.6376 0.6627 0
M  V30 28 H 0.4044 1.9779 -1.2387 0
M  V30 29 H 0.3609 -3.2522 2.1965 0
M  V30 30 H -0.0616 3.0523 0.9293 0
M  V30 31 H -3.9606 4.6937 1.5158 0
M  V30 32 H 0.8517 -1.0875 -1.3521 0
M  V30 33 H 1.3526 0.1285 -2.5436 0
M  V30 34 H -1.5014 4.9014 1.6449 0
M  V30 35 H 2.9975 1.11 -1.0652 0
M  V30 36 H 2.4999 0.1157 0.329 0
M  V30 37 H 3.4635 -1.1385 -2.2197 0
M  V30 38 H 5.175 0.4026 -1.5696 0
M  V30 39 H 5.677 -1.2874 -1.2677 0
M  V30 40 H 5.1179 -0.2599 0.1131 0
M  V30 41 H 3.4276 -2.0587 0.6393 0
M  V30 42 H 2.324 -2.6177 -0.6757 0
M  V30 43 H 4.0645 -2.9863 -0.773 0
M  V30 END ATOM
M  V30 BEGIN BOND
M  V30 1 1 1 2
M  V30 2 1 1 3
M  V30 3 2 2 4
M  V30 4 1 2 5
M  V30 5 1 3 6
M  V30 6 1 4 7
M  V30 7 1 4 8
M  V30 8 2 5 9
M  V30 9 2 6 10
M  V30 10 1 6 11
M  V30 11 2 7 12
M  V30 12 2 8 13
M  V30 13 1 10 14
M  V30 14 2 11 15
M  V30 15 1 12 16
M  V30 16 2 14 17
M  V30 17 1 16 18
M  V30 18 1 18 19
M  V30 19 1 19 20
M  V30 20 1 19 21
M  V30 21 1 7 10
M  V30 22 1 9 13
M  V30 23 1 15 17
M  V30 24 1 3 22
M  V30 25 1 3 23
M  V30 26 1 5 24
M  V30 27 1 8 25
M  V30 28 1 9 26
M  V30 29 1 11 27
M  V30 30 1 12 28
M  V30 31 1 13 29
M  V30 32 1 14 30
M  V30 33 1 15 31
M  V30 34 1 16 32
M  V30 35 1 16 33
M  V30 36 1 17 34
M  V30 37 1 18 35
M  V30 38 1 18 36
M  V30 39 1 19 37
M  V30 40 1 20 38
M  V30 41 1 20 39
M  V30 42 1 20 40
M  V30 43 1 21 41
M  V30 44 1 21 42
M  V30 45 1 21 43
M  V30 END BOND
M  V30 END CTAB
M  END
>  <Structure No>
7761

>  <LogS>
-3.4

>  <MMFF94 Energy>
88.617

$$$$
Compound 7762
Actelion Java MolfileCreator 2.0

  0  0  0  0  0  0              0 V3000
M  V30 BEGIN CTAB
M  V30 COUNTS 38 40 0 0 0
M  V30 BEGIN ATOM
M  V30 1 O 2.7306 -0.1604 1.5252 0
M  V30 2 C 2.5403 -0.3137 0.2869 0
M  V30 3 N 3.496 0.2267 -0.6507 0
M  V30 4 N 1.3719 -1.0217 -0.1636 0
M  V30 5 C 3.2482 0.1673 -2.0946 0
M  V30 6 C 4.7096 0.8723 -0.1397 0
M  V30 7 C 0.308 -1.4179 0.7676 0 CFG=1
M  V30 8 C -0.4807 -0.2057 1.3227 0 CFG=1
M  V30 9 C -0.8036 -2.2603 0.0941 0
M  V30 10 C -0.9727 0.6789 0.1448 0 CFG=1
M  V30 11 C -1.7572 -0.8886 1.768 0
M  V30 12 C -2.0779 -1.4481 0.3976 0 CFG=1
M  V30 13 C -2.0674 -0.184 -0.4965 0 CFG=1
M  V30 14 C -1.6345 1.991 0.5806 0
M  V30 15 C -3.3658 0.6291 -0.4459 0
M  V30 16 C -2.9448 2.0676 -0.1875 0
M  V30 17 H 1.2832 -1.2762 -1.1712 0
M  V30 18 H 2.2715 0.6415 -2.3286 0
M  V30 19 H 3.2419 -0.8903 -2.4315 0
M  V30 20 H 4.0319 0.7042 -2.669 0
M  V30 21 H 5.365 1.2302 -0.9609 0
M  V30 22 H 4.4332 1.7444 0.4899 0
M  V30 23 H 5.2885 0.1487 0.472 0
M  V30 24 H 0.753 -1.9985 1.6076 0
M  V30 25 H 0.0488 0.3481 2.1274 0
M  V30 26 H -0.6596 -2.4048 -0.9983 0
M  V30 27 H -0.8696 -3.2616 0.574 0
M  V30 28 H -0.1659 0.9059 -0.586 0
M  V30 29 H -1.5861 -1.682 2.5328 0
M  V30 30 H -2.5293 -0.1863 2.1513 0
M  V30 31 H -3.0137 -2.045 0.344 0
M  V30 32 H -1.8174 -0.4258 -1.5543 0
M  V30 33 H -0.9869 2.8619 0.3402 0
M  V30 34 H -1.8429 2.0048 1.6727 0
M  V30 35 H -3.9223 0.549 -1.4047 0
M  V30 36 H -4.0335 0.2858 0.3744 0
M  V30 37 H -3.7197 2.6198 0.3872 0
M  V30 38 H -2.7744 2.5832 -1.1585 0
M  V30 END ATOM
M  V30 BEGIN BOND
M  V30 1 2 1 2
M  V30 2 1 2 3
M  V30 3 1 2 4
M  V30 4 1 3 5
M  V30 5 1 3 6
M  V30 6 1 4 7
M  V30 7 1 7 8
M  V30 8 1 7 9
M  V30 9 1 8 10
M  V30 10 1 8 11
M  V30 11 1 9 12
M  V30 12 1 10 13
M  V30 13 1 10 14
M  V30 14 1 13 15
M  V30 15 1 14 16
M  V30 16 1 11 12
M  V30 17 1 12 13
M  V30 18 1 15 16
M  V30 19 1 4 17
M  V30 20 1 5 18
M  V30 21 1 5 19
M  V30 22 1 5 20
M  V30 23 1 6 21
M  V30 24 1 6 22
M  V30 25 1 6 23
M  V30 26 1 7 24
M  V30 27 1 8 25
M  V30 28 1 9 26
M  V30 29 1 9 27
M  V30 30 1 10 28
M  V30 31 1 11 29
M  V30 32 1 11 30
M  V30 33 1 12 31
M  V30 34 1 13 32
M  V30 35 1 14 33
M  V30 36 1 14 34
M  V30 37 1 15 35
M  V30 38 1 15 36
M  V30 39 1 16 37
M  V30 40 1 16 38
M  V30 END BOND
M  V30 BEGIN COLLECTION
M  V30 MDLV30/STEABS ATOMS=(5 7 8 10 12 13)
M  V30 END COLLECTION
M  V30 END CTAB
M  END
>  <Structure No>
7762

>  <LogS>
-3.01

>  <MMFF94 Energy>
-39.15

$$$$
Compound 7763
Actelion Java MolfileCreator 2.0

  0  0  0  0  0  0              0 V3000
M  V30 BEGIN CTAB
M  V30 COUNTS 53 56 0 0 0
M  V30 BEGIN ATOM
M  V30 1 O -5.2862 2.1932 2.3558 0
M  V30 2 C -4.125 2.2671 1.8739 0
M  V30 3 C -3.943 2.3345 0.4151 0
M  V30 4 C -2.9342 2.1998 2.7814 0
M  V30 5 C -2.7238 2.4751 -0.1343 0
M  V30 6 C -1.7717 2.9823 2.1714 0
M  V30 7 C -1.4609 2.5387 0.7208 0 CFG=1
M  V30 8 C -2.5293 2.2008 -1.6084 0
M  V30 9 C -0.7719 1.155 0.5631 0 CFG=1
M  V30 10 C -1.7062 0.9078 -1.8019 0
M  V30 11 C -0.4185 0.9676 -0.9502 0 CFG=2
M  V30 12 C 0.475 0.8921 1.4371 0
M  V30 13 C 0.6356 -0.156 -1.1692 0 CFG=1
M  V30 14 C 0.976 -0.5785 1.3086 0
M  V30 15 C 0.6974 -1.2437 -0.0881 0 CFG=2
M  V30 16 C 0.7143 -0.9007 -2.4959 0
M  V30 17 C 1.864 -2.1212 -0.6543 0 CFG=1
M  V30 18 C -0.6213 -2.093 -0.0323 0
M  V30 19 C 1.6077 -2.1188 -2.1908 0
M  V30 20 O 3.1255 -1.4891 -0.3764 0
M  V30 21 C 1.8726 -3.493 -0.0933 0
M  V30 22 C 4.3843 -1.9864 -0.7452 0
M  V30 23 C 1.8816 -4.6087 0.3635 0
M  V30 24 O 4.4987 -3.0911 -1.3424 0
M  V30 25 C 5.6075 -1.2175 -0.3803 0
M  V30 26 H -4.8149 2.2128 -0.2164 0
M  V30 27 H -3.1888 2.6352 3.7719 0
M  V30 28 H -2.6437 1.1384 2.9305 0
M  V30 29 H -0.8784 2.9178 2.823 0
M  V30 30 H -2.0537 4.0589 2.1516 0
M  V30 31 H -0.7895 3.3186 0.2966 0
M  V30 32 H -1.9824 3.0565 -2.06 0
M  V30 33 H -3.4986 2.1062 -2.1452 0
M  V30 34 H -1.5291 0.4158 0.8852 0
M  V30 35 H -1.4477 0.8229 -2.8786 0
M  V30 36 H -2.3203 0.027 -1.52 0
M  V30 37 H 0.0983 1.8983 -1.2866 0
M  V30 38 H 0.2519 1.0709 2.508 0
M  V30 39 H 1.2849 1.593 1.1383 0
M  V30 40 H 1.6113 0.3893 -1.1057 0
M  V30 41 H 0.5035 -1.1841 2.1124 0
M  V30 42 H 2.0583 -0.5785 1.5505 0
M  V30 43 H 1.1574 -0.2592 -3.2887 0
M  V30 44 H -0.2905 -1.245 -2.8215 0
M  V30 45 H -1.5399 -1.4978 0.0656 0
M  V30 46 H -0.7556 -2.7074 -0.9461 0
M  V30 47 H -0.595 -2.7948 0.8279 0
M  V30 48 H 2.5545 -2.044 -2.7661 0
M  V30 49 H 1.0883 -3.0473 -2.5174 0
M  V30 50 H 1.8892 -5.5877 0.7645 0
M  V30 51 H 5.3509 -0.1484 -0.2262 0
M  V30 52 H 6.3608 -1.292 -1.1926 0
M  V30 53 H 6.036 -1.6279 0.5573 0
M  V30 END ATOM
M  V30 BEGIN BOND
M  V30 1 2 1 2
M  V30 2 1 2 3
M  V30 3 1 2 4
M  V30 4 2 3 5
M  V30 5 1 4 6
M  V30 6 1 5 7
M  V30 7 1 5 8
M  V30 8 1 7 9
M  V30 9 1 8 10
M  V30 10 1 9 11
M  V30 11 1 9 12
M  V30 12 1 11 13
M  V30 13 1 12 14
M  V30 14 1 13 15
M  V30 15 1 13 16
M  V30 16 1 15 17
M  V30 17 1 15 18
M  V30 18 1 16 19
M  V30 19 1 17 20
M  V30 20 1 17 21
M  V30 21 1 20 22
M  V30 22 3 21 23
M  V30 23 2 22 24
M  V30 24 1 22 25
M  V30 25 1 6 7
M  V30 26 1 10 11
M  V30 27 1 14 15
M  V30 28 1 17 19
M  V30 29 1 3 26
M  V30 30 1 4 27
M  V30 31 1 4 28
M  V30 32 1 6 29
M  V30 33 1 6 30
M  V30 34 1 7 31
M  V30 35 1 8 32
M  V30 36 1 8 33
M  V30 37 1 9 34
M  V30 38 1 10 35
M  V30 39 1 10 36
M  V30 40 1 11 37
M  V30 41 1 12 38
M  V30 42 1 12 39
M  V30 43 1 13 40
M  V30 44 1 14 41
M  V30 45 1 14 42
M  V30 46 1 16 43
M  V30 47 1 16 44
M  V30 48 1 18 45
M  V30 49 1 18 46
M  V30 50 1 18 47
M  V30 51 1 19 48
M  V30 52 1 19 49
M  V30 53 1 23 50
M  V30 54 1 25 51
M  V30 55 1 25 52
M  V30 56 1 25 53
M  V30 END BOND
M  V30 BEGIN COLLECTION
M  V30 MDLV30/STEABS ATOMS=(6 7 9 11 13 15 17)
M  V30 END COLLECTION
M  V30 END CTAB
M  END
>  <Structure No>
7763

>  <LogS>
-4.79

>  <MMFF94 Energy>
74.026

$$$$
Compound 7764
Actelion Java MolfileCreator 2.0

  0  0  0  0  0  0              0 V3000
M  V30 BEGIN CTAB
M  V30 COUNTS 56 59 0 0 0
M  V30 BEGIN ATOM
M  V30 1 O 2.6007 2.9261 0.1623 0
M  V30 2 C 2.5866 1.6879 -0.0791 0
M  V30 3 C 3.8273 0.8833 0.0085 0
M  V30 4 C 1.3113 1.0155 -0.3782 0
M  V30 5 C 5.0911 1.5133 0.1292 0
M  V30 6 C 3.7544 -0.5336 -0.0946 0
M  V30 7 C 0.3077 1.6451 -1.0373 0
M  V30 8 C 1.1796 -0.3729 0.2024 0 CFG=2
M  V30 9 O 5.1908 2.8986 0.2663 0
M  V30 10 C 6.2615 0.7492 0.0961 0
M  V30 11 C 4.9618 -1.2587 -0.2073 0
M  V30 12 C 2.4033 -1.274 -0.2165 0 CFG=1
M  V30 13 O 0.5586 2.8144 -1.7678 0
M  V30 14 C -1.108 1.0759 -1.1096 0 CFG=2
M  V30 15 C -0.1838 -1.0378 -0.1132 0
M  V30 16 C 6.1965 -0.6254 -0.0924 0
M  V30 17 O 2.254 -1.71 -1.5474 0
M  V30 18 C 2.4153 -2.5276 0.6951 0
M  V30 19 O -1.3011 0.5255 -2.3928 0
M  V30 20 C -2.1557 2.1513 -0.8587 0
M  V30 21 C -1.3431 -0.0326 -0.0415 0 CFG=2
M  V30 22 O -1.8489 3.3749 -0.8287 0
M  V30 23 C -3.5541 1.7389 -0.6431 0 CHG=-1 CFG=2
M  V30 24 C -2.759 -0.7254 -0.2282 0 CFG=2
M  V30 25 C -3.8381 0.2918 -0.5869 0
M  V30 26 C -4.6461 2.7376 -0.5528 0
M  V30 27 N -3.2357 -1.5846 0.9167 0 CHG=1
M  V30 28 O -4.9837 -0.1225 -0.9145 0
M  V30 29 O -4.5242 3.8562 -1.1203 0
M  V30 30 N -5.8384 2.4587 0.1844 0
M  V30 31 C -2.9423 -3.0203 0.7308 0
M  V30 32 C -2.816 -1.1305 2.2553 0
M  V30 33 H 1.218 -0.2351 1.308 0
M  V30 34 H 6.0871 3.3643 0.3486 0
M  V30 35 H 7.2286 1.228 0.1846 0
M  V30 36 H 4.9644 -2.321 -0.4003 0
M  V30 37 H 1.4869 3.1591 -1.9765 0
M  V30 38 H -0.3413 -1.8148 0.6469 0
M  V30 39 H -0.177 -1.5225 -1.1129 0
M  V30 40 H 7.1091 -1.2038 -0.1603 0
M  V30 41 H 2.2474 -0.906 -2.1307 0
M  V30 42 H 2.6021 -2.2404 1.7524 0
M  V30 43 H 1.4583 -3.0822 0.6396 0
M  V30 44 H 3.1829 -3.2627 0.3852 0
M  V30 45 H -1.2422 1.2635 -3.056 0
M  V30 46 H -1.2976 0.4693 0.9496 0
M  V30 47 H -2.6712 -1.3551 -1.1431 0
M  V30 48 H -4.2832 -1.5519 0.9439 0
M  V30 49 H -5.9254 1.5987 0.7697 0
M  V30 50 H -6.6166 3.1546 0.2035 0
M  V30 51 H -3.2907 -3.3682 -0.266 0
M  V30 52 H -3.4864 -3.6249 1.4906 0
M  V30 53 H -1.8689 -3.2548 0.8365 0
M  V30 54 H -1.7315 -1.2955 2.424 0
M  V30 55 H -3.0589 -0.0541 2.393 0
M  V30 56 H -3.366 -1.6923 3.043 0
M  V30 END ATOM
M  V30 BEGIN BOND
M  V30 1 2 1 2
M  V30 2 1 2 3
M  V30 3 1 2 4
M  V30 4 2 3 5
M  V30 5 1 3 6
M  V30 6 2 4 7
M  V30 7 1 4 8
M  V30 8 1 5 9
M  V30 9 1 5 10
M  V30 10 2 6 11
M  V30 11 1 6 12
M  V30 12 1 7 13
M  V30 13 1 7 14
M  V30 14 1 8 15
M  V30 15 2 10 16
M  V30 16 1 12 17
M  V30 17 1 12 18
M  V30 18 1 14 19
M  V30 19 1 14 20
M  V30 20 1 14 21
M  V30 21 2 20 22
M  V30 22 1 20 23
M  V30 23 1 21 24
M  V30 24 1 23 25
M  V30 25 1 23 26
M  V30 26 1 24 27
M  V30 27 2 25 28
M  V30 28 2 26 29
M  V30 29 1 26 30
M  V30 30 1 27 31
M  V30 31 1 27 32
M  V30 32 1 8 12
M  V30 33 1 11 16
M  V30 34 1 15 21
M  V30 35 1 24 25
M  V30 36 1 8 33
M  V30 37 1 9 34
M  V30 38 1 10 35
M  V30 39 1 11 36
M  V30 40 1 13 37
M  V30 41 1 15 38
M  V30 42 1 15 39
M  V30 43 1 16 40
M  V30 44 1 17 41
M  V30 45 1 18 42
M  V30 46 1 18 43
M  V30 47 1 18 44
M  V30 48 1 19 45
M  V30 49 1 21 46
M  V30 50 1 24 47
M  V30 51 1 27 48
M  V30 52 1 30 49
M  V30 53 1 30 50
M  V30 54 1 31 51
M  V30 55 1 31 52
M  V30 56 1 31 53
M  V30 57 1 32 54
M  V30 58 1 32 55
M  V30 59 1 32 56
M  V30 END BOND
M  V30 BEGIN COLLECTION
M  V30 MDLV30/STEABS ATOMS=(6 8 12 14 21 23 24)
M  V30 END COLLECTION
M  V30 END CTAB
M  END
>  <Structure No>
7764

>  <LogS>
-3.12

>  <MMFF94 Energy>
66.402

$$$$
Compound 7765
Actelion Java MolfileCreator 2.0

  0  0  0  0  0  0              0 V3000
M  V30 BEGIN CTAB
M  V30 COUNTS 35 36 0 0 0
M  V30 BEGIN ATOM
M  V30 1 O -1.744 1.6647 1.9027 0
M  V30 2 C -1.3348 1.0126 0.902 0
M  V30 3 N -2.0795 1.1002 -0.3401 0
M  V30 4 C -0.0441 0.2201 1.0702 0
M  V30 5 C -3.1914 2.0553 -0.4173 0
M  V30 6 C -1.7669 0.2711 -1.5098 0
M  V30 7 C -0.1815 -1.2315 0.6311 0
M  V30 8 C 1.1982 0.9299 0.5385 0
M  V30 9 C 0.5378 -1.7692 -0.4588 0
M  V30 10 C -1.0635 -2.0719 1.3365 0
M  V30 11 C 2.4631 0.4953 0.9819 0
M  V30 12 C 1.1383 2.0017 -0.3784 0
M  V30 13 C 0.3722 -3.1078 -0.826 0
M  V30 14 C -1.2242 -3.4094 0.9643 0
M  V30 15 C 3.6313 1.1039 0.5155 0
M  V30 16 C 2.311 2.6066 -0.8406 0
M  V30 17 C -0.507 -3.927 -0.1154 0
M  V30 18 C 3.5556 2.1578 -0.3959 0
M  V30 19 H 0.1238 0.1634 2.1709 0
M  V30 20 H -3.693 2.0337 -1.4075 0
M  V30 21 H -2.8125 3.0847 -0.2438 0
M  V30 22 H -3.951 1.8099 0.3549 0
M  V30 23 H -2.3533 0.5794 -2.4003 0
M  V30 24 H -2.0189 -0.7877 -1.2981 0
M  V30 25 H -0.6969 0.3675 -1.779 0
M  V30 26 H 1.2164 -1.1583 -1.0388 0
M  V30 27 H -1.6299 -1.6876 2.1761 0
M  V30 28 H 2.5424 -0.3238 1.686 0
M  V30 29 H 0.1951 2.3855 -0.7382 0
M  V30 30 H 0.9246 -3.5096 -1.6653 0
M  V30 31 H -1.9066 -4.0449 1.5139 0
M  V30 32 H 4.5965 0.7569 0.8613 0
M  V30 33 H 2.2541 3.4273 -1.5441 0
M  V30 34 H -0.6337 -4.9626 -0.4028 0
M  V30 35 H 4.4612 2.6284 -0.7561 0
M  V30 END ATOM
M  V30 BEGIN BOND
M  V30 1 2 1 2
M  V30 2 1 2 3
M  V30 3 1 2 4
M  V30 4 1 3 5
M  V30 5 1 3 6
M  V30 6 1 4 7
M  V30 7 1 4 8
M  V30 8 2 7 9
M  V30 9 1 7 10
M  V30 10 2 8 11
M  V30 11 1 8 12
M  V30 12 1 9 13
M  V30 13 2 10 14
M  V30 14 1 11 15
M  V30 15 2 12 16
M  V30 16 2 13 17
M  V30 17 2 15 18
M  V30 18 1 14 17
M  V30 19 1 16 18
M  V30 20 1 4 19
M  V30 21 1 5 20
M  V30 22 1 5 21
M  V30 23 1 5 22
M  V30 24 1 6 23
M  V30 25 1 6 24
M  V30 26 1 6 25
M  V30 27 1 9 26
M  V30 28 1 10 27
M  V30 29 1 11 28
M  V30 30 1 12 29
M  V30 31 1 13 30
M  V30 32 1 14 31
M  V30 33 1 15 32
M  V30 34 1 16 33
M  V30 35 1 17 34
M  V30 36 1 18 35
M  V30 END BOND
M  V30 END CTAB
M  END
>  <Structure No>
7765

>  <LogS>
-2.98

>  <MMFF94 Energy>
77.942

$$$$
Compound 7766
Actelion Java MolfileCreator 2.0

  0  0  0  0  0  0              0 V3000
M  V30 BEGIN CTAB
M  V30 COUNTS 25 25 0 0 0
M  V30 BEGIN ATOM
M  V30 1 O -2.2029 -1.1009 -0.5503 0
M  V30 2 C -1.6893 0.0247 -0.8003 0
M  V30 3 O -2.4437 1.0277 -1.4188 0
M  V30 4 C -0.2853 0.304 -0.4563 0
M  V30 5 C -3.8228 0.8814 -1.7523 0
M  V30 6 C 0.4946 -0.5965 0.1583 0
M  V30 7 C -4.6937 1.0021 -0.5072 0
M  V30 8 C 1.9088 -0.345 0.5307 0
M  V30 9 C 2.4965 -1.1492 1.5228 0
M  V30 10 C 2.6949 0.6443 -0.0961 0
M  V30 11 C 3.8289 -0.9542 1.8991 0
M  V30 12 C 4.0274 0.834 0.2841 0
M  V30 13 C 4.5927 0.0384 1.2825 0
M  V30 14 H 0.0912 1.2879 -0.6973 0
M  V30 15 H -4.1021 1.6885 -2.4619 0
M  V30 16 H -3.9992 -0.0947 -2.2541 0
M  V30 17 H 0.0686 -1.5521 0.4421 0
M  V30 18 H -5.7648 0.9423 -0.7936 0
M  V30 19 H -4.5085 1.9771 -0.0084 0
M  V30 20 H -4.4691 0.1806 0.2042 0
M  V30 21 H 1.9206 -1.9245 2.0135 0
M  V30 22 H 2.2994 1.2575 -0.8935 0
M  V30 23 H 4.2694 -1.5746 2.6689 0
M  V30 24 H 4.6247 1.5947 -0.2017 0
M  V30 25 H 5.6244 0.1868 1.5738 0
M  V30 END ATOM
M  V30 BEGIN BOND
M  V30 1 2 1 2
M  V30 2 1 2 3
M  V30 3 1 2 4
M  V30 4 1 3 5
M  V30 5 2 4 6
M  V30 6 1 5 7
M  V30 7 1 6 8
M  V30 8 2 8 9
M  V30 9 1 8 10
M  V30 10 1 9 11
M  V30 11 2 10 12
M  V30 12 2 11 13
M  V30 13 1 12 13
M  V30 14 1 4 14
M  V30 15 1 5 15
M  V30 16 1 5 16
M  V30 17 1 6 17
M  V30 18 1 7 18
M  V30 19 1 7 19
M  V30 20 1 7 20
M  V30 21 1 9 21
M  V30 22 1 10 22
M  V30 23 1 11 23
M  V30 24 1 12 24
M  V30 25 1 13 25
M  V30 END BOND
M  V30 END CTAB
M  END
>  <Structure No>
7766

>  <LogS>
-3.0

>  <MMFF94 Energy>
7.6717

$$$$
Compound 7767
Actelion Java MolfileCreator 2.0

  0  0  0  0  0  0              0 V3000
M  V30 BEGIN CTAB
M  V30 COUNTS 35 35 0 0 0
M  V30 BEGIN ATOM
M  V30 1 O -0.5494 -1.6491 1.0206 0
M  V30 2 C -1.021 -0.4784 1.0404 0
M  V30 3 O -0.2445 0.5864 1.5166 0
M  V30 4 C -2.3978 -0.226 0.5616 0
M  V30 5 C 1.1151 0.4576 1.9329 0
M  V30 6 C -2.9253 1.0771 0.573 0
M  V30 7 C -3.1978 -1.2809 0.0855 0
M  V30 8 C 2.0776 0.8451 0.8053 0
M  V30 9 C -4.2253 1.3196 0.1188 0
M  V30 10 C -4.4975 -1.0356 -0.3679 0
M  V30 11 C 2.0533 -0.1598 -0.3566 0
M  V30 12 C -5.0173 0.2651 -0.3533 0
M  V30 13 C 2.9884 0.2382 -1.5131 0
M  V30 14 N -6.3466 0.5147 -0.8176 0
M  V30 15 C 4.4877 0.2465 -1.1643 0
M  V30 16 C 5.0104 -1.1231 -0.7328 0
M  V30 17 H 1.2795 1.1567 2.7801 0
M  V30 18 H 1.3323 -0.5665 2.308 0
M  V30 19 H -2.3348 1.9108 0.9318 0
M  V30 20 H -2.8204 -2.2955 0.063 0
M  V30 21 H 3.0986 0.8881 1.2383 0
M  V30 22 H 1.8145 1.859 0.4324 0
M  V30 23 H -4.6151 2.3299 0.135 0
M  V30 24 H -5.099 -1.8595 -0.7308 0
M  V30 25 H 2.303 -1.1774 0.0107 0
M  V30 26 H 1.0243 -0.2034 -0.7716 0
M  V30 27 H 2.8232 -0.4658 -2.3577 0
M  V30 28 H 2.703 1.2496 -1.8762 0
M  V30 29 H -6.9446 -0.2649 -1.1717 0
M  V30 30 H -6.7428 1.4812 -0.8107 0
M  V30 31 H 4.7048 0.9968 -0.3761 0
M  V30 32 H 5.0487 0.5608 -2.071 0
M  V30 33 H 4.7279 -1.8995 -1.4751 0
M  V30 34 H 4.6098 -1.3979 0.2649 0
M  V30 35 H 6.1178 -1.089 -0.6603 0
M  V30 END ATOM
M  V30 BEGIN BOND
M  V30 1 2 1 2
M  V30 2 1 2 3
M  V30 3 1 2 4
M  V30 4 1 3 5
M  V30 5 2 4 6
M  V30 6 1 4 7
M  V30 7 1 5 8
M  V30 8 1 6 9
M  V30 9 2 7 10
M  V30 10 1 8 11
M  V30 11 2 9 12
M  V30 12 1 11 13
M  V30 13 1 12 14
M  V30 14 1 13 15
M  V30 15 1 15 16
M  V30 16 1 10 12
M  V30 17 1 5 17
M  V30 18 1 5 18
M  V30 19 1 6 19
M  V30 20 1 7 20
M  V30 21 1 8 21
M  V30 22 1 8 22
M  V30 23 1 9 23
M  V30 24 1 10 24
M  V30 25 1 11 25
M  V30 26 1 11 26
M  V30 27 1 13 27
M  V30 28 1 13 28
M  V30 29 1 14 29
M  V30 30 1 14 30
M  V30 31 1 15 31
M  V30 32 1 15 32
M  V30 33 1 16 33
M  V30 34 1 16 34
M  V30 35 1 16 35
M  V30 END BOND
M  V30 END CTAB
M  END
>  <Structure No>
7767

>  <LogS>
-3.95

>  <MMFF94 Energy>
17.306

$$$$
Compound 7768
Actelion Java MolfileCreator 2.0

  0  0  0  0  0  0              0 V3000
M  V30 BEGIN CTAB
M  V30 COUNTS 41 41 0 0 0
M  V30 BEGIN ATOM
M  V30 1 O -2.8919 0.0 2.9701 0
M  V30 2 C -2.89 0.0399 1.7085 0
M  V30 3 O -1.694 -0.1373 1.0047 0
M  V30 4 C -4.1507 0.2741 0.9703 0
M  V30 5 C -0.4462 -0.3657 1.6515 0
M  V30 6 C -5.3641 0.4546 1.6593 0
M  V30 7 C -4.1519 0.3197 -0.4348 0
M  V30 8 C 0.6526 -0.5144 0.5989 0
M  V30 9 C -6.5521 0.6756 0.9558 0
M  V30 10 C -5.3414 0.5409 -1.1357 0
M  V30 11 N 1.9593 -0.7509 1.2357 0 CHG=1
M  V30 12 C -6.5465 0.7199 -0.4441 0
M  V30 13 C 3.036 -0.9334 0.2437 0
M  V30 14 N -7.7622 0.9461 -1.1623 0
M  V30 15 C 3.5935 0.4117 -0.2614 0
M  V30 16 C 4.5991 0.248 -1.4157 0
M  V30 17 C 5.8781 -0.5288 -1.0562 0
M  V30 18 C 6.7044 0.1513 0.0347 0
M  V30 19 H -0.5092 -1.2938 2.2605 0
M  V30 20 H -0.2114 0.4932 2.3175 0
M  V30 21 H -5.3964 0.4251 2.7412 0
M  V30 22 H -3.2348 0.1847 -0.9941 0
M  V30 23 H 0.6779 0.4131 -0.0117 0
M  V30 24 H 0.3909 -1.3677 -0.0665 0
M  V30 25 H -7.4769 0.8125 1.5025 0
M  V30 26 H -5.3234 0.5729 -2.2178 0
M  V30 27 H 1.8949 -1.6255 1.8083 0
M  V30 28 H 2.1936 0.0413 1.8796 0
M  V30 29 H 3.8644 -1.4954 0.7275 0
M  V30 30 H 2.6826 -1.5494 -0.6138 0
M  V30 31 H -7.768 0.9807 -2.2062 0
M  V30 32 H -8.6655 1.0806 -0.6555 0
M  V30 33 H 4.0604 0.9675 0.5788 0
M  V30 34 H 2.7606 1.0401 -0.6383 0
M  V30 35 H 4.885 1.2584 -1.7813 0
M  V30 36 H 4.0955 -0.2701 -2.2606 0
M  V30 37 H 5.6338 -1.5674 -0.7501 0
M  V30 38 H 6.5051 -0.6006 -1.9711 0
M  V30 39 H 6.1847 0.0922 1.0135 0
M  V30 40 H 7.682 -0.3657 0.1333 0
M  V30 41 H 6.8912 1.2151 -0.2243 0
M  V30 END ATOM
M  V30 BEGIN BOND
M  V30 1 2 1 2
M  V30 2 1 2 3
M  V30 3 1 2 4
M  V30 4 1 3 5
M  V30 5 2 4 6
M  V30 6 1 4 7
M  V30 7 1 5 8
M  V30 8 1 6 9
M  V30 9 2 7 10
M  V30 10 1 8 11
M  V30 11 2 9 12
M  V30 12 1 11 13
M  V30 13 1 12 14
M  V30 14 1 13 15
M  V30 15 1 15 16
M  V30 16 1 16 17
M  V30 17 1 17 18
M  V30 18 1 10 12
M  V30 19 1 5 19
M  V30 20 1 5 20
M  V30 21 1 6 21
M  V30 22 1 7 22
M  V30 23 1 8 23
M  V30 24 1 8 24
M  V30 25 1 9 25
M  V30 26 1 10 26
M  V30 27 1 11 27
M  V30 28 1 11 28
M  V30 29 1 13 29
M  V30 30 1 13 30
M  V30 31 1 14 31
M  V30 32 1 14 32
M  V30 33 1 15 33
M  V30 34 1 15 34
M  V30 35 1 16 35
M  V30 36 1 16 36
M  V30 37 1 17 37
M  V30 38 1 17 38
M  V30 39 1 18 39
M  V30 40 1 18 40
M  V30 41 1 18 41
M  V30 END BOND
M  V30 END CTAB
M  END
>  <Structure No>
7768

>  <LogS>
-3.27

>  <MMFF94 Energy>
30.851

$$$$
Compound 7769
Actelion Java MolfileCreator 2.0

  0  0  0  0  0  0              0 V3000
M  V30 BEGIN CTAB
M  V30 COUNTS 35 37 0 0 0
M  V30 BEGIN ATOM
M  V30 1 O 0.243 4.3012 -1.2159 0
M  V30 2 N -0.8809 3.9764 -0.7797 0 CHG=1
M  V30 3 O -1.826 4.9585 -0.5882 0 CHG=-1
M  V30 4 C -1.1838 2.6013 -0.4794 0
M  V30 5 C -0.2241 1.595 -0.6786 0
M  V30 6 C -2.4458 2.246 0.0159 0
M  V30 7 C -0.5079 0.2486 -0.3838 0
M  V30 8 C -2.7449 0.9147 0.304 0
M  V30 9 C 0.5597 -0.7721 -0.5973 0
M  V30 10 C -1.7908 -0.098 0.1086 0
M  V30 11 N 0.3068 -1.8934 -1.2117 0
M  V30 12 C 1.9509 -0.5133 -0.141 0
M  V30 13 N -2.1359 -1.4662 0.419 0
M  V30 14 C -1.0024 -2.2975 -1.7091 0
M  V30 15 C 3.042 -1.0956 -0.8143 0
M  V30 16 C 2.2011 0.2943 0.9856 0
M  V30 17 C -1.9241 -2.5106 -0.5505 0
M  V30 18 C -2.8815 -1.7676 1.6449 0
M  V30 19 C 4.3503 -0.8598 -0.3806 0
M  V30 20 C 3.5113 0.5263 1.4146 0
M  V30 21 O -2.5055 -3.623 -0.4241 0
M  V30 22 C 4.5848 -0.0483 0.7313 0
M  V30 23 H 0.7507 1.8574 -1.0711 0
M  V30 24 H -3.2074 2.998 0.1771 0
M  V30 25 H -3.7339 0.6707 0.6705 0
M  V30 26 H -1.4139 -1.5221 -2.3911 0
M  V30 27 H -0.8896 -3.2401 -2.2857 0
M  V30 28 H 2.8844 -1.7231 -1.6827 0
M  V30 29 H 1.3843 0.7356 1.543 0
M  V30 30 H -2.6834 -0.9988 2.4225 0
M  V30 31 H -2.5654 -2.7496 2.0566 0
M  V30 32 H -3.9696 -1.795 1.425 0
M  V30 33 H 5.1831 -1.3066 -0.9081 0
M  V30 34 H 3.6938 1.1489 2.281 0
M  V30 35 H 5.5983 0.1321 1.0657 0
M  V30 END ATOM
M  V30 BEGIN BOND
M  V30 1 2 1 2
M  V30 2 1 2 3
M  V30 3 1 2 4
M  V30 4 2 4 5
M  V30 5 1 4 6
M  V30 6 1 5 7
M  V30 7 2 6 8
M  V30 8 1 7 9
M  V30 9 2 7 10
M  V30 10 2 9 11
M  V30 11 1 9 12
M  V30 12 1 10 13
M  V30 13 1 11 14
M  V30 14 2 12 15
M  V30 15 1 12 16
M  V30 16 1 13 17
M  V30 17 1 13 18
M  V30 18 1 15 19
M  V30 19 2 16 20
M  V30 20 2 17 21
M  V30 21 2 19 22
M  V30 22 1 8 10
M  V30 23 1 14 17
M  V30 24 1 20 22
M  V30 25 1 5 23
M  V30 26 1 6 24
M  V30 27 1 8 25
M  V30 28 1 14 26
M  V30 29 1 14 27
M  V30 30 1 15 28
M  V30 31 1 16 29
M  V30 32 1 18 30
M  V30 33 1 18 31
M  V30 34 1 18 32
M  V30 35 1 19 33
M  V30 36 1 20 34
M  V30 37 1 22 35
M  V30 END BOND
M  V30 END CTAB
M  END
>  <Structure No>
7769

>  <LogS>
-3.8

>  <MMFF94 Energy>
139.59

$$$$
Compound 7770
Actelion Java MolfileCreator 2.0

  0  0  0  0  0  0              0 V3000
M  V30 BEGIN CTAB
M  V30 COUNTS 49 49 0 0 0
M  V30 BEGIN ATOM
M  V30 1 O -1.2538 1.4106 -0.7834 0
M  V30 2 C -0.7904 0.239 -0.8604 0
M  V30 3 O -1.6458 -0.8391 -1.1224 0
M  V30 4 C 0.6587 0.0014 -0.6811 0
M  V30 5 C -3.0604 -0.7075 -1.2505 0
M  V30 6 C 1.5357 1.0701 -0.4241 0
M  V30 7 C 1.1795 -1.3009 -0.7635 0
M  V30 8 C -3.7067 -0.4961 0.1302 0
M  V30 9 C 2.9044 0.8404 -0.254 0
M  V30 10 C 2.5481 -1.5287 -0.5933 0
M  V30 11 N -5.1822 -0.6789 0.1242 0 CHG=1
M  V30 12 C 3.4209 -0.4658 -0.338 0
M  V30 13 C -5.69 -0.6073 1.5197 0
M  V30 14 C -5.8902 0.2417 -0.8107 0
M  V30 15 O 4.7851 -0.7482 -0.1747 0
M  V30 16 C -7.1787 -0.9532 1.6438 0
M  V30 17 C -5.7182 1.736 -0.5008 0
M  V30 18 C 5.7851 0.2325 0.0892 0
M  V30 19 C 7.1478 -0.4533 0.2018 0
M  V30 20 C 8.3048 0.5467 0.3476 0
M  V30 21 C 8.3114 1.2485 1.7055 0
M  V30 22 H -3.4548 -1.6418 -1.7028 0
M  V30 23 H -3.2911 0.137 -1.9341 0
M  V30 24 H 1.165 2.0853 -0.3541 0
M  V30 25 H 0.531 -2.1457 -0.9592 0
M  V30 26 H -3.4309 0.5032 0.5295 0
M  V30 27 H -3.2476 -1.2445 0.8162 0
M  V30 28 H 3.5508 1.6848 -0.0579 0
M  V30 29 H 2.9333 -2.5384 -0.66 0
M  V30 30 H -5.3649 -1.6542 -0.2144 0
M  V30 31 H -5.501 0.3915 1.9681 0
M  V30 32 H -5.1415 -1.3436 2.1504 0
M  V30 33 H -5.5584 0.0572 -1.8542 0
M  V30 34 H -6.9755 0.0084 -0.8323 0
M  V30 35 H -7.4152 -1.8771 1.0749 0
M  V30 36 H -7.8098 -0.1155 1.281 0
M  V30 37 H -7.4303 -1.1233 2.7121 0
M  V30 38 H -4.6569 2.0463 -0.5802 0
M  V30 39 H -6.2931 2.3257 -1.2456 0
M  V30 40 H -6.1147 1.9907 0.5022 0
M  V30 41 H 5.8069 0.9707 -0.7421 0
M  V30 42 H 5.5445 0.7508 1.0419 0
M  V30 43 H 7.3181 -1.0505 -0.7202 0
M  V30 44 H 7.1424 -1.1575 1.0624 0
M  V30 45 H 9.2625 -0.0066 0.2371 0
M  V30 46 H 8.2598 1.3054 -0.4637 0
M  V30 47 H 7.4323 1.9182 1.8061 0
M  V30 48 H 8.3058 0.5029 2.5288 0
M  V30 49 H 9.2289 1.8674 1.7961 0
M  V30 END ATOM
M  V30 BEGIN BOND
M  V30 1 2 1 2
M  V30 2 1 2 3
M  V30 3 1 2 4
M  V30 4 1 3 5
M  V30 5 2 4 6
M  V30 6 1 4 7
M  V30 7 1 5 8
M  V30 8 1 6 9
M  V30 9 2 7 10
M  V30 10 1 8 11
M  V30 11 2 9 12
M  V30 12 1 11 13
M  V30 13 1 11 14
M  V30 14 1 12 15
M  V30 15 1 13 16
M  V30 16 1 14 17
M  V30 17 1 15 18
M  V30 18 1 18 19
M  V30 19 1 19 20
M  V30 20 1 20 21
M  V30 21 1 10 12
M  V30 22 1 5 22
M  V30 23 1 5 23
M  V30 24 1 6 24
M  V30 25 1 7 25
M  V30 26 1 8 26
M  V30 27 1 8 27
M  V30 28 1 9 28
M  V30 29 1 10 29
M  V30 30 1 11 30
M  V30 31 1 13 31
M  V30 32 1 13 32
M  V30 33 1 14 33
M  V30 34 1 14 34
M  V30 35 1 16 35
M  V30 36 1 16 36
M  V30 37 1 16 37
M  V30 38 1 17 38
M  V30 39 1 17 39
M  V30 40 1 17 40
M  V30 41 1 18 41
M  V30 42 1 18 42
M  V30 43 1 19 43
M  V30 44 1 19 44
M  V30 45 1 20 45
M  V30 46 1 20 46
M  V30 47 1 21 47
M  V30 48 1 21 48
M  V30 49 1 21 49
M  V30 END BOND
M  V30 END CTAB
M  END
>  <Structure No>
7770

>  <LogS>
-3.84

>  <MMFF94 Energy>
50.873

$$$$
Compound 7771
Actelion Java MolfileCreator 2.0

  0  0  0  0  0  0              0 V3000
M  V30 BEGIN CTAB
M  V30 COUNTS 41 42 0 0 0
M  V30 BEGIN ATOM
M  V30 1 N 1.0204 2.4346 -0.2354 0
M  V30 2 C 0.1244 1.4275 -0.4526 0
M  V30 3 C 1.1226 3.5133 -1.0546 0
M  V30 4 N 0.0799 0.3034 0.4653 0
M  V30 5 C -0.7268 1.5147 -1.5745 0
M  V30 6 C 0.2929 3.6236 -2.1689 0
M  V30 7 C 1.1405 0.1541 1.4756 0
M  V30 8 C -0.9976 -0.7001 0.4208 0
M  V30 9 C -0.6367 2.6172 -2.4263 0
M  V30 10 C 2.3972 -0.3802 0.8402 0
M  V30 11 C -2.3052 -0.1061 0.9875 0
M  V30 12 C 2.476 -1.7321 0.4651 0
M  V30 13 C 3.4887 0.469 0.5858 0
M  V30 14 N -3.4854 -0.999 0.8817 0 CHG=1
M  V30 15 C 3.6339 -2.2286 -0.1429 0
M  V30 16 C 4.6449 -0.032 -0.0215 0
M  V30 17 C -3.9044 -1.2142 -0.5145 0
M  V30 18 C -3.2935 -2.2843 1.5774 0
M  V30 19 C 4.7178 -1.3798 -0.3847 0
M  V30 20 H 1.8486 4.284 -0.8398 0
M  V30 21 H -1.4572 0.7529 -1.8035 0
M  V30 22 H 0.3682 4.4811 -2.825 0
M  V30 23 H 0.8236 -0.5404 2.285 0
M  V30 24 H 1.3258 1.1274 1.9821 0
M  V30 25 H -0.7148 -1.5862 1.0261 0
M  V30 26 H -1.1165 -1.074 -0.6134 0
M  V30 27 H -1.2896 2.6905 -3.2869 0
M  V30 28 H -2.1335 0.1504 2.0574 0
M  V30 29 H -2.5278 0.8574 0.4788 0
M  V30 30 H 1.643 -2.4008 0.6442 0
M  V30 31 H 3.4484 1.5155 0.8619 0
M  V30 32 H -4.2755 -0.5067 1.3628 0
M  V30 33 H 3.691 -3.2719 -0.4253 0
M  V30 34 H 5.4846 0.6234 -0.2059 0
M  V30 35 H -4.8972 -1.7145 -0.5418 0
M  V30 36 H -4.0055 -0.244 -1.0477 0
M  V30 37 H -3.1857 -1.8573 -1.0655 0
M  V30 38 H -4.2669 -2.8145 1.6756 0
M  V30 39 H -2.5968 -2.9481 1.0206 0
M  V30 40 H -2.8951 -2.1199 2.6031 0
M  V30 41 H 5.6141 -1.7665 -0.8531 0
M  V30 END ATOM
M  V30 BEGIN BOND
M  V30 1 2 1 2
M  V30 2 1 1 3
M  V30 3 1 2 4
M  V30 4 1 2 5
M  V30 5 2 3 6
M  V30 6 1 4 7
M  V30 7 1 4 8
M  V30 8 2 5 9
M  V30 9 1 7 10
M  V30 10 1 8 11
M  V30 11 2 10 12
M  V30 12 1 10 13
M  V30 13 1 11 14
M  V30 14 1 12 15
M  V30 15 2 13 16
M  V30 16 1 14 17
M  V30 17 1 14 18
M  V30 18 2 15 19
M  V30 19 1 6 9
M  V30 20 1 16 19
M  V30 21 1 3 20
M  V30 22 1 5 21
M  V30 23 1 6 22
M  V30 24 1 7 23
M  V30 25 1 7 24
M  V30 26 1 8 25
M  V30 27 1 8 26
M  V30 28 1 9 27
M  V30 29 1 11 28
M  V30 30 1 11 29
M  V30 31 1 12 30
M  V30 32 1 13 31
M  V30 33 1 14 32
M  V30 34 1 15 33
M  V30 35 1 16 34
M  V30 36 1 17 35
M  V30 37 1 17 36
M  V30 38 1 17 37
M  V30 39 1 18 38
M  V30 40 1 18 39
M  V30 41 1 18 40
M  V30 42 1 19 41
M  V30 END BOND
M  V30 END CTAB
M  END
>  <Structure No>
7771

>  <LogS>
-2.64

>  <MMFF94 Energy>
18.041

$$$$
Compound 7772
Actelion Java MolfileCreator 2.0

  0  0  0  0  0  0              0 V3000
M  V30 BEGIN CTAB
M  V30 COUNTS 60 63 0 0 0
M  V30 BEGIN ATOM
M  V30 1 O -6.1678 2.1068 -1.3771 0
M  V30 2 C -5.1162 1.7989 -0.7559 0
M  V30 3 C -4.4117 0.5504 -1.1016 0
M  V30 4 C -4.624 2.6911 0.3422 0
M  V30 5 C -3.3143 0.1257 -0.4348 0
M  V30 6 C -3.1409 2.4283 0.6209 0
M  V30 7 C -2.667 -1.1814 -0.7862 0
M  V30 8 C -2.806 0.9082 0.7776 0 CFG=2
M  V30 9 C -1.562 -1.6009 -0.1428 0
M  V30 10 C -3.2347 -2.0558 -1.8805 0
M  V30 11 C -1.2517 0.6936 0.9441 0 CFG=1
M  V30 12 C -3.5384 0.3686 2.0376 0
M  V30 13 C -0.9014 -0.8287 0.9757 0 CFG=2
M  V30 14 C -0.3903 1.467 -0.1111 0
M  V30 15 C 0.6342 -0.9999 1.066 0 CFG=2
M  V30 16 C 1.131 1.1881 -0.0294 0
M  V30 17 C 1.4537 -0.3287 -0.0461 0 CFG=1
M  V30 18 C 1.2311 -2.3922 1.2381 0
M  V30 19 C 2.9217 -0.7785 0.335 0 CFG=1
M  V30 20 C 1.1138 -0.8893 -1.4686 0
M  V30 21 C 2.7099 -2.2361 0.8394 0
M  V30 22 O 3.775 -0.8213 -0.823 0
M  V30 23 C 3.6257 -8.0E-4 1.464 0
M  V30 24 C 4.2941 0.2965 -1.4934 0
M  V30 25 O 2.9897 0.5859 2.325 0
M  V30 26 C 5.1188 -0.0716 1.635 0
M  V30 27 O 4.1347 1.4616 -1.0401 0
M  V30 28 C 5.1053 0.0932 -2.7265 0
M  V30 29 H -4.8149 -0.0144 -1.9303 0
M  V30 30 H -4.7509 3.753 0.0374 0
M  V30 31 H -5.2353 2.5384 1.2553 0
M  V30 32 H -2.8273 2.9906 1.5276 0
M  V30 33 H -2.6036 2.8566 -0.2495 0
M  V30 34 H -1.1531 -2.5693 -0.394 0
M  V30 35 H -2.6698 -3.0044 -2.0062 0
M  V30 36 H -4.2855 -2.3218 -1.6406 0
M  V30 37 H -3.1987 -1.5127 -2.8482 0
M  V30 38 H -0.9637 1.1163 1.9341 0
M  V30 39 H -3.178 0.8847 2.953 0
M  V30 40 H -4.6357 0.5078 1.9669 0
M  V30 41 H -3.3969 -0.7227 2.1654 0
M  V30 42 H -1.2939 -1.2608 1.9198 0
M  V30 43 H -0.4921 2.5584 0.0614 0
M  V30 44 H -0.7671 1.2679 -1.1353 0
M  V30 45 H 0.882 -0.4847 2.0213 0
M  V30 46 H 1.6235 1.692 -0.8869 0
M  V30 47 H 1.5036 1.6812 0.8866 0
M  V30 48 H 1.1355 -2.7353 2.2919 0
M  V30 49 H 0.7445 -3.1396 0.5801 0
M  V30 50 H 0.0857 -0.6635 -1.7979 0
M  V30 51 H 1.2515 -1.9887 -1.525 0
M  V30 52 H 1.765 -0.426 -2.2377 0
M  V30 53 H 3.3693 -2.4927 1.6989 0
M  V30 54 H 2.9433 -2.9618 0.0287 0
M  V30 55 H 5.5825 -0.7761 0.9143 0
M  V30 56 H 5.5572 0.9374 1.4886 0
M  V30 57 H 5.3589 -0.4247 2.6599 0
M  V30 58 H 4.9495 0.9381 -3.4302 0
M  V30 59 H 4.8014 -0.8499 -3.2267 0
M  V30 60 H 6.1798 0.0334 -2.4557 0
M  V30 END ATOM
M  V30 BEGIN BOND
M  V30 1 2 1 2
M  V30 2 1 2 3
M  V30 3 1 2 4
M  V30 4 2 3 5
M  V30 5 1 4 6
M  V30 6 1 5 7
M  V30 7 1 5 8
M  V30 8 2 7 9
M  V30 9 1 7 10
M  V30 10 1 8 11
M  V30 11 1 8 12
M  V30 12 1 9 13
M  V30 13 1 11 14
M  V30 14 1 13 15
M  V30 15 1 14 16
M  V30 16 1 15 17
M  V30 17 1 15 18
M  V30 18 1 17 19
M  V30 19 1 17 20
M  V30 20 1 18 21
M  V30 21 1 19 22
M  V30 22 1 19 23
M  V30 23 1 22 24
M  V30 24 2 23 25
M  V30 25 1 23 26
M  V30 26 2 24 27
M  V30 27 1 24 28
M  V30 28 1 6 8
M  V30 29 1 11 13
M  V30 30 1 16 17
M  V30 31 1 19 21
M  V30 32 1 3 29
M  V30 33 1 4 30
M  V30 34 1 4 31
M  V30 35 1 6 32
M  V30 36 1 6 33
M  V30 37 1 9 34
M  V30 38 1 10 35
M  V30 39 1 10 36
M  V30 40 1 10 37
M  V30 41 1 11 38
M  V30 42 1 12 39
M  V30 43 1 12 40
M  V30 44 1 12 41
M  V30 45 1 13 42
M  V30 46 1 14 43
M  V30 47 1 14 44
M  V30 48 1 15 45
M  V30 49 1 16 46
M  V30 50 1 16 47
M  V30 51 1 18 48
M  V30 52 1 18 49
M  V30 53 1 20 50
M  V30 54 1 20 51
M  V30 55 1 20 52
M  V30 56 1 21 53
M  V30 57 1 21 54
M  V30 58 1 26 55
M  V30 59 1 26 56
M  V30 60 1 26 57
M  V30 61 1 28 58
M  V30 62 1 28 59
M  V30 63 1 28 60
M  V30 END BOND
M  V30 BEGIN COLLECTION
M  V30 MDLV30/STEABS ATOMS=(6 8 11 13 15 17 19)
M  V30 END COLLECTION
M  V30 END CTAB
M  END
>  <Structure No>
7772

>  <LogS>
-5.35

>  <MMFF94 Energy>
82.011

$$$$
Compound 7773
Actelion Java MolfileCreator 2.0

  0  0  0  0  0  0              0 V3000
M  V30 BEGIN CTAB
M  V30 COUNTS 17 17 0 0 0
M  V30 BEGIN ATOM
M  V30 1 Cl 2.2512 -2.8355 0.0 0
M  V30 2 C 1.5495 -1.2229 -0.0249 0
M  V30 3 C 2.3607 -0.0779 -0.0658 0
M  V30 4 C 0.1564 -1.0897 -0.0032 0
M  V30 5 Cl 4.1145 -0.2026 -0.094 0
M  V30 6 C 1.7714 1.19 -0.0848 0
M  V30 7 C -0.4402 0.1861 -0.0222 0
M  V30 8 C 0.3765 1.3248 -0.0631 0
M  V30 9 O -1.8328 0.3616 -0.0016 0
M  V30 10 O -0.2069 2.5905 -0.0821 0
M  V30 11 C -2.7784 -0.7021 0.0399 0
M  V30 12 H -0.4516 -1.9835 0.0283 0
M  V30 13 H 2.3975 2.0729 -0.1163 0
M  V30 14 H 0.3548 3.4334 -0.1116 0
M  V30 15 H -2.6684 -1.346 -0.858 0
M  V30 16 H -3.8026 -0.2764 0.0482 0
M  V30 17 H -2.6361 -1.3037 0.9624 0
M  V30 END ATOM
M  V30 BEGIN BOND
M  V30 1 1 1 2
M  V30 2 2 2 3
M  V30 3 1 2 4
M  V30 4 1 3 5
M  V30 5 1 3 6
M  V30 6 2 4 7
M  V30 7 2 6 8
M  V30 8 1 7 9
M  V30 9 1 8 10
M  V30 10 1 9 11
M  V30 11 1 7 8
M  V30 12 1 4 12
M  V30 13 1 6 13
M  V30 14 1 10 14
M  V30 15 1 11 15
M  V30 16 1 11 16
M  V30 17 1 11 17
M  V30 END BOND
M  V30 END CTAB
M  END
>  <Structure No>
7773

>  <LogS>
-2.53

>  <MMFF94 Energy>
27.358

$$$$
Compound 7774
Actelion Java MolfileCreator 2.0

  0  0  0  0  0  0              0 V3000
M  V30 BEGIN CTAB
M  V30 COUNTS 9 9 0 0 0
M  V30 BEGIN ATOM
M  V30 1 O 2.3287 -0.9143 0.1662 0
M  V30 2 C 1.1173 -0.5755 0.1315 0
M  V30 3 N 0.6961 0.7864 0.0606 0
M  V30 4 N 0.0464 -1.5253 0.16 0 CHG=-1
M  V30 5 C -0.7169 0.7003 0.0431 0
M  V30 6 C -1.1069 -0.6926 0.103 0
M  V30 7 O -1.4906 1.6914 -0.0156 0
M  V30 8 O -2.2882 -1.1269 0.1054 0
M  V30 9 H 1.2901 1.6444 0.0292 0
M  V30 END ATOM
M  V30 BEGIN BOND
M  V30 1 2 1 2
M  V30 2 1 2 3
M  V30 3 1 2 4
M  V30 4 1 3 5
M  V30 5 1 4 6
M  V30 6 2 5 7
M  V30 7 2 6 8
M  V30 8 1 5 6
M  V30 9 1 3 9
M  V30 END BOND
M  V30 END CTAB
M  END
>  <Structure No>
7774

>  <LogS>
-0.4

>  <MMFF94 Energy>
-8.9857

$$$$
Compound 7775
Actelion Java MolfileCreator 2.0

  0  0  0  0  0  0              0 V3000
M  V30 BEGIN CTAB
M  V30 COUNTS 13 12 0 0 0
M  V30 BEGIN ATOM
M  V30 1 O 1.5404 -1.5404 0.924 0
M  V30 2 C 1.4607 -0.4498 0.2972 0
M  V30 3 N 0.185 0.1511 0.0255 0
M  V30 4 N 2.6562 0.1907 -0.1464 0
M  V30 5 C -1.0724 -0.4109 0.4329 0
M  V30 6 O -1.1179 -1.4862 1.0896 0
M  V30 7 C -2.3444 0.2969 0.095 0
M  V30 8 H 0.1708 1.0531 -0.5018 0
M  V30 9 H 2.6133 1.0944 -0.6674 0
M  V30 10 H 3.588 -0.2392 0.0464 0
M  V30 11 H -2.377 0.5062 -0.9945 0
M  V30 12 H -3.2234 -0.3257 0.3665 0
M  V30 13 H -2.394 1.2551 0.6529 0
M  V30 END ATOM
M  V30 BEGIN BOND
M  V30 1 2 1 2
M  V30 2 1 2 3
M  V30 3 1 2 4
M  V30 4 1 3 5
M  V30 5 2 5 6
M  V30 6 1 5 7
M  V30 7 1 3 8
M  V30 8 1 4 9
M  V30 9 1 4 10
M  V30 10 1 7 11
M  V30 11 1 7 12
M  V30 12 1 7 13
M  V30 END BOND
M  V30 END CTAB
M  END
>  <Structure No>
7775

>  <LogS>
-0.9

>  <MMFF94 Energy>
-110.3

$$$$
Compound 7776
Actelion Java MolfileCreator 2.0

  0  0  0  0  0  0              0 V3000
M  V30 BEGIN CTAB
M  V30 COUNTS 11 11 0 0 0
M  V30 BEGIN ATOM
M  V30 1 O -2.0964 -1.6769 -0.8382 0
M  V30 2 C -1.1087 -0.9702 -0.5078 0
M  V30 3 N -1.3086 0.2438 0.2266 0
M  V30 4 N 0.2122 -1.3843 -0.8685 0 CHG=-1
M  V30 5 C -0.1943 1.0582 0.6095 0
M  V30 6 C 1.3523 -0.6015 -0.5065 0
M  V30 7 O -0.3863 2.1231 1.2551 0
M  V30 8 C 1.1693 0.6467 0.2465 0
M  V30 9 O 2.5051 -0.9865 -0.8353 0
M  V30 10 O 2.162 1.3506 0.5749 0
M  V30 11 H -2.2774 0.538 0.4856 0
M  V30 END ATOM
M  V30 BEGIN BOND
M  V30 1 2 1 2
M  V30 2 1 2 3
M  V30 3 1 2 4
M  V30 4 1 3 5
M  V30 5 1 4 6
M  V30 6 2 5 7
M  V30 7 1 5 8
M  V30 8 2 6 9
M  V30 9 2 8 10
M  V30 10 1 6 8
M  V30 11 1 3 11
M  V30 END BOND
M  V30 END CTAB
M  END
>  <Structure No>
7776

>  <LogS>
-1.25

>  <MMFF94 Energy>
23.82

$$$$
Compound 7777
Actelion Java MolfileCreator 2.0

  0  0  0  0  0  0              0 V3000
M  V30 BEGIN CTAB
M  V30 COUNTS 14 13 0 0 0
M  V30 BEGIN ATOM
M  V30 1 Cl 3.5291 -0.5288 -0.4406 0
M  V30 2 C 2.1224 0.4854 -0.0409 0
M  V30 3 S 0.6582 -0.5213 0.0741 0
M  V30 4 O 0.4176 -1.2029 -1.2437 0
M  V30 5 O 0.8516 -1.5572 1.1456 0
M  V30 6 C -0.7343 0.5272 0.4778 0
M  V30 7 C -2.0579 -0.2378 0.4562 0
M  V30 8 Cl -2.2008 -1.3355 1.8551 0
M  V30 9 H 1.9844 1.2499 -0.833 0
M  V30 10 H 2.2994 0.9925 0.9298 0
M  V30 11 H -0.7808 1.345 -0.272 0
M  V30 12 H -0.575 0.9848 1.4771 0
M  V30 13 H -2.1592 -0.8185 -0.4845 0
M  V30 14 H -2.8964 0.4883 0.5053 0
M  V30 END ATOM
M  V30 BEGIN BOND
M  V30 1 1 1 2
M  V30 2 1 2 3
M  V30 3 2 3 4
M  V30 4 2 3 5
M  V30 5 1 3 6
M  V30 6 1 6 7
M  V30 7 1 7 8
M  V30 8 1 2 9
M  V30 9 1 2 10
M  V30 10 1 6 11
M  V30 11 1 6 12
M  V30 12 1 7 13
M  V30 13 1 7 14
M  V30 END BOND
M  V30 END CTAB
M  END
>  <Structure No>
7777

>  <LogS>
-1.5

>  <MMFF94 Energy>
11.705

$$$$
Compound 7778
Actelion Java MolfileCreator 2.0

  0  0  0  0  0  0              0 V3000
M  V30 BEGIN CTAB
M  V30 COUNTS 14 14 0 0 0
M  V30 BEGIN ATOM
M  V30 1 O 1.3719 2.5835 -0.2419 0
M  V30 2 C 0.9407 1.4063 -0.1119 0
M  V30 3 N -0.3956 1.1587 -0.1973 0
M  V30 4 N 1.8122 0.386 0.1135 0
M  V30 5 C -0.8877 -0.1076 -0.0599 0
M  V30 6 C 1.3661 -0.8903 0.2565 0
M  V30 7 C -2.3414 -0.363 -0.1549 0
M  V30 8 C 0.0013 -1.1652 0.1724 0
M  V30 9 O 2.1843 -1.8255 0.4649 0
M  V30 10 O -3.1432 0.5855 -0.3636 0
M  V30 11 O -2.8427 -1.6522 -0.0151 0 CHG=-1
M  V30 12 H -1.045 1.9595 -0.3711 0
M  V30 13 H 2.8367 0.5857 0.1777 0
M  V30 14 H -0.3534 -2.1826 0.2865 0
M  V30 END ATOM
M  V30 BEGIN BOND
M  V30 1 2 1 2
M  V30 2 1 2 3
M  V30 3 1 2 4
M  V30 4 1 3 5
M  V30 5 1 4 6
M  V30 6 1 5 7
M  V30 7 2 5 8
M  V30 8 2 6 9
M  V30 9 2 7 10
M  V30 10 1 7 11
M  V30 11 1 6 8
M  V30 12 1 3 12
M  V30 13 1 4 13
M  V30 14 1 8 14
M  V30 END BOND
M  V30 END CTAB
M  END
>  <Structure No>
7778

>  <LogS>
-1.93

>  <MMFF94 Energy>
-81.07

$$$$
Compound 7779
Actelion Java MolfileCreator 2.0

  0  0  0  0  0  0              0 V3000
M  V30 BEGIN CTAB
M  V30 COUNTS 17 17 0 0 0
M  V30 BEGIN ATOM
M  V30 1 O -3.4924 0.3171 0.3963 0
M  V30 2 C -2.3127 0.1666 -0.0158 0
M  V30 3 N -1.9233 -0.8627 -0.9019 0
M  V30 4 N -1.2394 1.0199 0.3542 0
M  V30 5 C -0.5374 -0.6298 -1.106 0
M  V30 6 C -0.0284 0.5472 -0.3148 0 CFG=2
M  V30 7 O 0.1564 -1.31 -1.9066 0
M  V30 8 C 1.0249 0.147 0.7314 0
M  V30 9 C 2.3854 -0.1526 0.1037 0
M  V30 10 H -2.5257 -1.5901 -1.3469 0
M  V30 11 H -1.3111 1.8548 0.9778 0
M  V30 12 H 0.3539 1.3394 -0.9947 0
M  V30 13 H 1.1551 0.9875 1.4477 0
M  V30 14 H 0.6782 -0.7387 1.3081 0
M  V30 15 H 2.7323 0.7117 -0.5015 0
M  V30 16 H 3.1285 -0.3416 0.9069 0
M  V30 17 H 2.3328 -1.0556 -0.5381 0
M  V30 END ATOM
M  V30 BEGIN BOND
M  V30 1 2 1 2
M  V30 2 1 2 3
M  V30 3 1 2 4
M  V30 4 1 3 5
M  V30 5 1 4 6
M  V30 6 2 5 7
M  V30 7 1 6 8
M  V30 8 1 8 9
M  V30 9 1 5 6
M  V30 10 1 3 10
M  V30 11 1 4 11
M  V30 12 1 6 12
M  V30 13 1 8 13
M  V30 14 1 8 14
M  V30 15 1 9 15
M  V30 16 1 9 16
M  V30 17 1 9 17
M  V30 END BOND
M  V30 BEGIN COLLECTION
M  V30 MDLV30/STEABS ATOMS=(1 6)
M  V30 END COLLECTION
M  V30 END CTAB
M  END
>  <Structure No>
7779

>  <LogS>
-0.06

>  <MMFF94 Energy>
-73.813

$$$$
Compound 7780
Actelion Java MolfileCreator 2.0

  0  0  0  0  0  0              0 V3000
M  V30 BEGIN CTAB
M  V30 COUNTS 13 14 0 0 0
M  V30 BEGIN ATOM
M  V30 1 Cl 1.3018 -2.8842 0.0929 0
M  V30 2 C 0.7175 -1.2228 0.0414 0
M  V30 3 C 1.6151 -0.1365 0.0547 0
M  V30 4 C -0.6574 -0.9652 -0.0138 0
M  V30 5 Cl 3.3527 -0.3986 0.1235 0
M  V30 6 C 1.1337 1.1834 0.0132 0
M  V30 7 N -1.5939 -1.9483 -0.0304 0
M  V30 8 C -1.1389 0.3745 -0.0556 0
M  V30 9 C -0.2417 1.4461 -0.042 0
M  V30 10 S -2.9747 -1.0414 -0.0975 0
M  V30 11 N -2.4857 0.5377 -0.1081 0
M  V30 12 Cl -0.8132 3.107 -0.0931 0
M  V30 13 H 1.8341 2.0092 0.0242 0
M  V30 END ATOM
M  V30 BEGIN BOND
M  V30 1 1 1 2
M  V30 2 2 2 3
M  V30 3 1 2 4
M  V30 4 1 3 5
M  V30 5 1 3 6
M  V30 6 2 4 7
M  V30 7 1 4 8
M  V30 8 2 6 9
M  V30 9 1 7 10
M  V30 10 2 8 11
M  V30 11 1 9 12
M  V30 12 1 8 9
M  V30 13 1 10 11
M  V30 14 1 6 13
M  V30 END BOND
M  V30 END CTAB
M  END
>  <Structure No>
7780

>  <LogS>
-4.98

>  <MMFF94 Energy>
35.623

$$$$
Compound 7781
Actelion Java MolfileCreator 2.0

  0  0  0  0  0  0              0 V3000
M  V30 BEGIN CTAB
M  V30 COUNTS 14 15 0 0 0
M  V30 BEGIN ATOM
M  V30 1 Cl -3.8524 0.9202 0.0836 0
M  V30 2 C -2.2275 0.2678 0.0303 0
M  V30 3 N -1.1616 1.0854 0.2427 0
M  V30 4 C -2.0158 -1.0919 -0.2295 0
M  V30 5 C 0.1059 0.5977 0.2054 0
M  V30 6 N -0.7465 -1.5795 -0.2668 0
M  V30 7 C 0.3198 -0.7652 -0.055 0
M  V30 8 C 1.2124 1.4176 0.4202 0
M  V30 9 N 1.5848 -1.2569 -0.0932 0
M  V30 10 N 2.4617 0.8836 0.3727 0
M  V30 11 C 2.6514 -0.4399 0.119 0
M  V30 12 H -2.8528 -1.7559 -0.4006 0
M  V30 13 H 1.0854 2.473 0.6238 0
M  V30 14 H 3.6538 -0.8437 0.0859 0
M  V30 END ATOM
M  V30 BEGIN BOND
M  V30 1 1 1 2
M  V30 2 2 2 3
M  V30 3 1 2 4
M  V30 4 1 3 5
M  V30 5 2 4 6
M  V30 6 1 5 7
M  V30 7 2 5 8
M  V30 8 2 7 9
M  V30 9 1 8 10
M  V30 10 1 9 11
M  V30 11 1 6 7
M  V30 12 2 10 11
M  V30 13 1 4 12
M  V30 14 1 8 13
M  V30 15 1 11 14
M  V30 END BOND
M  V30 END CTAB
M  END
>  <Structure No>
7781

>  <LogS>
-0.87

>  <MMFF94 Energy>
67.422

$$$$
Compound 7782
Actelion Java MolfileCreator 2.0

  0  0  0  0  0  0              0 V3000
M  V30 BEGIN CTAB
M  V30 COUNTS 15 16 0 0 0
M  V30 BEGIN ATOM
M  V30 1 S -3.5346 1.1497 0.5747 0
M  V30 2 C -2.1148 0.3735 0.3192 0
M  V30 3 N -0.9529 1.0802 0.2127 0
M  V30 4 C -2.0881 -1.0235 0.2085 0
M  V30 5 C 0.2308 0.4393 0.0 0
M  V30 6 N -0.9054 -1.6589 -0.0036 0
M  V30 7 C 0.2539 -0.9611 -0.1103 0
M  V30 8 C 1.4392 1.1328 -0.1138 0
M  V30 9 N 1.4294 -1.6065 -0.3222 0
M  V30 10 N 2.5921 0.4451 -0.3258 0
M  V30 11 C 2.5928 -0.9111 -0.4297 0
M  V30 12 H -0.9713 2.1231 0.2951 0
M  V30 13 H -2.9982 -1.6045 0.2898 0
M  V30 14 H 1.4668 2.212 -0.035 0
M  V30 15 H 3.5217 -1.4381 -0.5984 0
M  V30 END ATOM
M  V30 BEGIN BOND
M  V30 1 2 1 2
M  V30 2 1 2 3
M  V30 3 1 2 4
M  V30 4 1 3 5
M  V30 5 2 4 6
M  V30 6 2 5 7
M  V30 7 1 5 8
M  V30 8 1 7 9
M  V30 9 2 8 10
M  V30 10 2 9 11
M  V30 11 1 6 7
M  V30 12 1 10 11
M  V30 13 1 3 12
M  V30 14 1 4 13
M  V30 15 1 8 14
M  V30 16 1 11 15
M  V30 END BOND
M  V30 END CTAB
M  END
>  <Structure No>
7782

>  <LogS>
-2.71

>  <MMFF94 Energy>
33.157

$$$$
Compound 7783
Actelion Java MolfileCreator 2.0

  0  0  0  0  0  0              0 V3000
M  V30 BEGIN CTAB
M  V30 COUNTS 15 15 0 0 0
M  V30 BEGIN ATOM
M  V30 1 O 3.4228 0.8747 0.5566 0
M  V30 2 C 2.3166 0.6571 -0.0026 0
M  V30 3 O 1.5677 1.7328 -0.465 0 CHG=-1
M  V30 4 C 1.8868 -0.7329 -0.2366 0
M  V30 5 C 0.6256 -1.1306 -0.4595 0
M  V30 6 C -0.5808 -0.2994 -0.2849 0
M  V30 7 N -1.7039 -0.4585 -1.0018 0
M  V30 8 C -0.8262 0.6299 0.7056 0
M  V30 9 C -2.5933 0.395 -0.4618 0
M  V30 10 N -2.0926 1.0768 0.5902 0
M  V30 11 H 2.666 -1.4841 -0.2869 0
M  V30 12 H 0.468 -2.158 -0.7637 0
M  V30 13 H -1.8622 -1.1121 -1.8006 0
M  V30 14 H -0.1439 0.9392 1.4864 0
M  V30 15 H -3.6075 0.5107 -0.8208 0
M  V30 END ATOM
M  V30 BEGIN BOND
M  V30 1 2 1 2
M  V30 2 1 2 3
M  V30 3 1 2 4
M  V30 4 2 4 5
M  V30 5 1 5 6
M  V30 6 1 6 7
M  V30 7 2 6 8
M  V30 8 1 7 9
M  V30 9 1 8 10
M  V30 10 2 9 10
M  V30 11 1 4 11
M  V30 12 1 5 12
M  V30 13 1 7 13
M  V30 14 1 8 14
M  V30 15 1 9 15
M  V30 END BOND
M  V30 END CTAB
M  END
>  <Structure No>
7783

>  <LogS>
-1.96

>  <MMFF94 Energy>
1.026

$$$$
Compound 7784
Actelion Java MolfileCreator 2.0

  0  0  0  0  0  0              0 V3000
M  V30 BEGIN CTAB
M  V30 COUNTS 19 18 0 0 0
M  V30 BEGIN ATOM
M  V30 1 S 0.6643 -1.4121 -0.166 0 CFG=1
M  V30 2 S -1.1791 -1.234 0.8796 0
M  V30 3 O 0.3106 -1.1675 -1.6271 0
M  V30 4 C 1.6769 0.0026 0.3255 0
M  V30 5 C -1.5995 0.4308 0.2592 0
M  V30 6 C 3.1238 -0.264 0.0326 0
M  V30 7 C -2.9895 0.7997 0.6848 0
M  V30 8 C 3.5923 -0.2989 -1.218 0
M  V30 9 C -4.0625 0.1832 0.1812 0
M  V30 10 H 1.5531 0.1639 1.417 0
M  V30 11 H 1.3451 0.9191 -0.2071 0
M  V30 12 H -1.5313 0.4682 -0.8481 0
M  V30 13 H -0.8908 1.1678 0.6892 0
M  V30 14 H 3.8133 -0.4013 0.8604 0
M  V30 15 H -3.1278 1.6065 1.3987 0
M  V30 16 H 2.9329 -0.1448 -2.0667 0
M  V30 17 H 4.647 -0.4798 -1.3978 0
M  V30 18 H -3.957 -0.6161 -0.5461 0
M  V30 19 H -5.0575 0.4796 0.4971 0
M  V30 END ATOM
M  V30 BEGIN BOND
M  V30 1 1 1 2
M  V30 2 2 1 3
M  V30 3 1 1 4
M  V30 4 1 2 5
M  V30 5 1 4 6
M  V30 6 1 5 7
M  V30 7 2 6 8
M  V30 8 2 7 9
M  V30 9 1 4 10
M  V30 10 1 4 11
M  V30 11 1 5 12
M  V30 12 1 5 13
M  V30 13 1 6 14
M  V30 14 1 7 15
M  V30 15 1 8 16
M  V30 16 1 8 17
M  V30 17 1 9 18
M  V30 18 1 9 19
M  V30 END BOND
M  V30 BEGIN COLLECTION
M  V30 MDLV30/STEABS ATOMS=(1 1)
M  V30 END COLLECTION
M  V30 END CTAB
M  END
>  <Structure No>
7784

>  <LogS>
-0.83

>  <MMFF94 Energy>
30.359

$$$$
Compound 7785
Actelion Java MolfileCreator 2.0

  0  0  0  0  0  0              0 V3000
M  V30 BEGIN CTAB
M  V30 COUNTS 22 21 0 0 0
M  V30 BEGIN ATOM
M  V30 1 O 2.8612 -1.5458 0.0 0
M  V30 2 C 2.81 -0.2988 0.1801 0
M  V30 3 O 1.8709 0.2615 1.0529 0
M  V30 4 N 3.7237 0.5514 -0.507 0
M  V30 5 C 0.8823 -0.5036 1.7417 0
M  V30 6 C -0.2456 -0.9352 0.7973 0
M  V30 7 C -0.9773 0.2727 0.1976 0
M  V30 8 C -2.1218 -0.1775 -0.7171 0
M  V30 9 C -2.851 1.0205 -1.3183 0
M  V30 10 H 4.4326 0.15 -1.1601 0
M  V30 11 H 3.6886 1.5848 -0.3627 0
M  V30 12 H 1.3499 -1.3985 2.2074 0
M  V30 13 H 0.4583 0.1159 2.5606 0
M  V30 14 H 0.1714 -1.5647 -0.0179 0
M  V30 15 H -0.9679 -1.5549 1.3725 0
M  V30 16 H -0.2595 0.8861 -0.3901 0
M  V30 17 H -1.3883 0.8996 1.0197 0
M  V30 18 H -1.7178 -0.8035 -1.5424 0
M  V30 19 H -2.849 -0.7864 -0.1366 0
M  V30 20 H -2.1514 1.6329 -1.9262 0
M  V30 21 H -3.2867 1.6507 -0.5138 0
M  V30 22 H -3.673 0.6643 -1.9745 0
M  V30 END ATOM
M  V30 BEGIN BOND
M  V30 1 2 1 2
M  V30 2 1 2 3
M  V30 3 1 2 4
M  V30 4 1 3 5
M  V30 5 1 5 6
M  V30 6 1 6 7
M  V30 7 1 7 8
M  V30 8 1 8 9
M  V30 9 1 4 10
M  V30 10 1 4 11
M  V30 11 1 5 12
M  V30 12 1 5 13
M  V30 13 1 6 14
M  V30 14 1 6 15
M  V30 15 1 7 16
M  V30 16 1 7 17
M  V30 17 1 8 18
M  V30 18 1 8 19
M  V30 19 1 9 20
M  V30 20 1 9 21
M  V30 21 1 9 22
M  V30 END BOND
M  V30 END CTAB
M  END
>  <Structure No>
7785

>  <LogS>
-1.47

>  <MMFF94 Energy>
-75.192

$$$$
Compound 7786
Actelion Java MolfileCreator 2.0

  0  0  0  0  0  0              0 V3000
M  V30 BEGIN CTAB
M  V30 COUNTS 22 21 0 0 0
M  V30 BEGIN ATOM
M  V30 1 O 1.8588 1.1614 1.6263 0
M  V30 2 C 2.2532 0.6166 0.5599 0
M  V30 3 O 1.5267 -0.4261 -0.026 0
M  V30 4 N 3.4569 1.0645 -0.0565 0
M  V30 5 C 0.285 -0.9189 0.4833 0
M  V30 6 C -0.9299 -0.2716 -0.2292 0
M  V30 7 C -0.9734 1.2461 0.0368 0
M  V30 8 C -2.2236 -0.9096 0.3153 0
M  V30 9 C -0.8466 -0.5238 -1.748 0
M  V30 10 H 4.0125 1.8407 0.3668 0
M  V30 11 H 3.7905 0.6195 -0.9399 0
M  V30 12 H 0.2633 -2.0167 0.3111 0
M  V30 13 H 0.224 -0.7709 1.5846 0
M  V30 14 H -0.9819 1.4521 1.1289 0
M  V30 15 H -0.0953 1.7549 -0.4136 0
M  V30 16 H -1.8874 1.695 -0.4088 0
M  V30 17 H -2.2287 -2.0058 0.1317 0
M  V30 18 H -2.3133 -0.7389 1.4102 0
M  V30 19 H -3.1177 -0.4716 -0.1792 0
M  V30 20 H 0.0631 -0.0524 -2.1779 0
M  V30 21 H -0.8099 -1.6138 -1.9625 0
M  V30 22 H -1.7328 -0.0961 -2.2651 0
M  V30 END ATOM
M  V30 BEGIN BOND
M  V30 1 2 1 2
M  V30 2 1 2 3
M  V30 3 1 2 4
M  V30 4 1 3 5
M  V30 5 1 5 6
M  V30 6 1 6 7
M  V30 7 1 6 8
M  V30 8 1 6 9
M  V30 9 1 4 10
M  V30 10 1 4 11
M  V30 11 1 5 12
M  V30 12 1 5 13
M  V30 13 1 7 14
M  V30 14 1 7 15
M  V30 15 1 7 16
M  V30 16 1 8 17
M  V30 17 1 8 18
M  V30 18 1 8 19
M  V30 19 1 9 20
M  V30 20 1 9 21
M  V30 21 1 9 22
M  V30 END BOND
M  V30 END CTAB
M  END
>  <Structure No>
7786

>  <LogS>
-0.8

>  <MMFF94 Energy>
-61.341

$$$$
Compound 7787
Actelion Java MolfileCreator 2.0

  0  0  0  0  0  0              0 V3000
M  V30 BEGIN CTAB
M  V30 COUNTS 26 25 0 0 0
M  V30 BEGIN ATOM
M  V30 1 O 0.3106 1.7093 0.3882 0
M  V30 2 C -0.3168 0.4561 0.277 0 CFG=2
M  V30 3 C 0.3676 -0.3995 -0.8398 0 CFG=2
M  V30 4 C -1.8438 0.6706 0.0518 0 CFG=2
M  V30 5 O -0.1036 -1.7245 -0.8326 0
M  V30 6 C 1.9268 -0.4117 -0.8326 0 CFG=1
M  V30 7 O -2.3158 1.6128 0.9842 0
M  V30 8 C -2.6656 -0.6205 0.2116 0
M  V30 9 O 2.4547 0.8126 -1.2865 0
M  V30 10 C 2.5893 -0.894 0.4818 0
M  V30 11 O -4.0388 -0.3309 0.2033 0
M  V30 12 O 2.3393 -0.019 1.5506 0
M  V30 13 H 0.1719 2.1884 -0.471 0
M  V30 14 H -0.19 -0.0608 1.2524 0
M  V30 15 H 0.0667 0.0391 -1.8166 0
M  V30 16 H -2.0114 1.0495 -0.985 0
M  V30 17 H 0.0149 -2.0863 0.0833 0
M  V30 18 H 2.2214 -1.1628 -1.5986 0
M  V30 19 H -2.2043 2.5119 0.5775 0
M  V30 20 H -2.3838 -1.1528 1.1499 0
M  V30 21 H -2.4707 -1.2992 -0.6417 0
M  V30 22 H 2.5825 1.4167 -0.5124 0
M  V30 23 H 2.2067 -1.8997 0.7514 0
M  V30 24 H 3.6859 -1.0105 0.315 0
M  V30 25 H -4.2939 -0.113 1.1378 0
M  V30 26 H 3.1272 0.579 1.6324 0
M  V30 END ATOM
M  V30 BEGIN BOND
M  V30 1 1 1 2
M  V30 2 1 2 3
M  V30 3 1 2 4
M  V30 4 1 3 5
M  V30 5 1 3 6
M  V30 6 1 4 7
M  V30 7 1 4 8
M  V30 8 1 6 9
M  V30 9 1 6 10
M  V30 10 1 8 11
M  V30 11 1 10 12
M  V30 12 1 1 13
M  V30 13 1 2 14
M  V30 14 1 3 15
M  V30 15 1 4 16
M  V30 16 1 5 17
M  V30 17 1 6 18
M  V30 18 1 7 19
M  V30 19 1 8 20
M  V30 20 1 8 21
M  V30 21 1 9 22
M  V30 22 1 10 23
M  V30 23 1 10 24
M  V30 24 1 11 25
M  V30 25 1 12 26
M  V30 END BOND
M  V30 BEGIN COLLECTION
M  V30 MDLV30/STEABS ATOMS=(4 2 3 4 6)
M  V30 END COLLECTION
M  V30 END CTAB
M  END
>  <Structure No>
7787

>  <LogS>
1.09

>  <MMFF94 Energy>
99.021

$$$$
Compound 7788
Actelion Java MolfileCreator 2.0

  0  0  0  0  0  0              0 V3000
M  V30 BEGIN CTAB
M  V30 COUNTS 17 18 0 0 0
M  V30 BEGIN ATOM
M  V30 1 N 0.5628 -0.8845 -0.0803 0
M  V30 2 C -0.7414 -0.5408 -0.243 0
M  V30 3 C 1.5316 0.0686 0.0037 0
M  V30 4 C -1.0991 0.8139 -0.326 0
M  V30 5 C -1.7465 -1.5026 -0.331 0
M  V30 6 C 1.173 1.4231 -0.0794 0
M  V30 7 C 2.9615 -0.3299 0.1828 0
M  V30 8 N -2.4015 1.1621 -0.4886 0
M  V30 9 N -0.1334 1.7652 -0.2422 0
M  V30 10 N -3.038 -1.11 -0.4936 0
M  V30 11 C -3.3675 0.2081 -0.5722 0
M  V30 12 H -1.5076 -2.5566 -0.2709 0
M  V30 13 H 1.9257 2.1983 -0.0151 0
M  V30 14 H 3.3552 0.1004 1.1276 0
M  V30 15 H 3.565 0.0454 -0.6701 0
M  V30 16 H 3.0557 -1.4357 0.2276 0
M  V30 17 H -4.4012 0.4983 -0.7017 0
M  V30 END ATOM
M  V30 BEGIN BOND
M  V30 1 1 1 2
M  V30 2 2 1 3
M  V30 3 1 2 4
M  V30 4 2 2 5
M  V30 5 1 3 6
M  V30 6 1 3 7
M  V30 7 2 4 8
M  V30 8 1 4 9
M  V30 9 1 5 10
M  V30 10 1 8 11
M  V30 11 2 6 9
M  V30 12 2 10 11
M  V30 13 1 5 12
M  V30 14 1 6 13
M  V30 15 1 7 14
M  V30 16 1 7 15
M  V30 17 1 7 16
M  V30 18 1 11 17
M  V30 END BOND
M  V30 END CTAB
M  END
>  <Structure No>
7788

>  <LogS>
0.06

>  <MMFF94 Energy>
67.573

$$$$
Compound 7789
Actelion Java MolfileCreator 2.0

  0  0  0  0  0  0              0 V3000
M  V30 BEGIN CTAB
M  V30 COUNTS 18 19 0 0 0
M  V30 BEGIN ATOM
M  V30 1 S 2.1627 0.1662 -1.4969 0
M  V30 2 C 0.7943 0.8097 -0.5296 0
M  V30 3 C 3.0097 -0.5377 -0.0486 0
M  V30 4 N 0.8749 2.0657 -0.0146 0
M  V30 5 C -0.3559 0.0467 -0.301 0
M  V30 6 C -0.1391 2.5932 0.7228 0
M  V30 7 N -0.4954 -1.2137 -0.7923 0
M  V30 8 C -1.3918 0.6095 0.4637 0
M  V30 9 N -1.2639 1.8668 0.9589 0
M  V30 10 C -1.6228 -1.9354 -0.5532 0
M  V30 11 N -2.5168 -0.1144 0.7006 0
M  V30 12 C -2.6537 -1.3747 0.2083 0
M  V30 13 H 3.2556 0.2657 0.6769 0
M  V30 14 H 3.9502 -1.0239 -0.3795 0
M  V30 15 H 2.3638 -1.2979 0.4387 0
M  V30 16 H -0.0505 3.594 1.1224 0
M  V30 17 H -1.7188 -2.9368 -0.9507 0
M  V30 18 H -3.5558 -1.938 0.4061 0
M  V30 END ATOM
M  V30 BEGIN BOND
M  V30 1 1 1 2
M  V30 2 1 1 3
M  V30 3 2 2 4
M  V30 4 1 2 5
M  V30 5 1 4 6
M  V30 6 2 5 7
M  V30 7 1 5 8
M  V30 8 2 6 9
M  V30 9 1 7 10
M  V30 10 2 8 11
M  V30 11 2 10 12
M  V30 12 1 8 9
M  V30 13 1 11 12
M  V30 14 1 3 13
M  V30 15 1 3 14
M  V30 16 1 3 15
M  V30 17 1 6 16
M  V30 18 1 10 17
M  V30 19 1 12 18
M  V30 END BOND
M  V30 END CTAB
M  END
>  <Structure No>
7789

>  <LogS>
-1.76

>  <MMFF94 Energy>
61.133

$$$$
Compound 7790
Actelion Java MolfileCreator 2.0

  0  0  0  0  0  0              0 V3000
M  V30 BEGIN CTAB
M  V30 COUNTS 15 15 0 0 0
M  V30 BEGIN ATOM
M  V30 1 O -1.9774 -2.6108 -0.3952 0
M  V30 2 C -1.9435 -1.3621 -0.2306 0
M  V30 3 C -0.6579 -0.6454 -0.0973 0
M  V30 4 C -0.6364 0.7525 0.0861 0
M  V30 5 C 0.5594 -1.3496 -0.152 0
M  V30 6 O -1.8292 1.4739 0.1439 0
M  V30 7 C 0.5899 1.4223 0.2116 0
M  V30 8 C 1.7752 -0.6722 -0.0259 0
M  V30 9 C 1.7905 0.7114 0.1555 0
M  V30 10 H -2.879 -0.8197 -0.1885 0
M  V30 11 H 0.5724 -2.4233 -0.292 0
M  V30 12 H -1.837 2.4787 0.2751 0
M  V30 13 H 0.6129 2.4954 0.3527 0
M  V30 14 H 2.7069 -1.2215 -0.0691 0
M  V30 15 H 2.7336 1.2337 0.2529 0
M  V30 END ATOM
M  V30 BEGIN BOND
M  V30 1 2 1 2
M  V30 2 1 2 3
M  V30 3 2 3 4
M  V30 4 1 3 5
M  V30 5 1 4 6
M  V30 6 1 4 7
M  V30 7 2 5 8
M  V30 8 2 7 9
M  V30 9 1 8 9
M  V30 10 1 2 10
M  V30 11 1 5 11
M  V30 12 1 6 12
M  V30 13 1 7 13
M  V30 14 1 8 14
M  V30 15 1 9 15
M  V30 END BOND
M  V30 END CTAB
M  END
>  <Structure No>
7790

>  <LogS>
-0.86

>  <MMFF94 Energy>
29.067

$$$$
Compound 7791
Actelion Java MolfileCreator 2.0

  0  0  0  0  0  0              0 V3000
M  V30 BEGIN CTAB
M  V30 COUNTS 17 17 0 0 0
M  V30 BEGIN ATOM
M  V30 1 O 2.2062 1.2602 1.1026 0
M  V30 2 C 1.817 0.1948 0.553 0
M  V30 3 N 2.7798 -0.8188 0.2525 0
M  V30 4 C 0.3803 0.0097 0.2283 0
M  V30 5 C -0.4503 1.1163 -0.0604 0
M  V30 6 C -0.1801 -1.282 0.2233 0
M  V30 7 O 0.0723 2.4098 -0.0747 0
M  V30 8 C -1.8086 0.9157 -0.3498 0
M  V30 9 C -1.5337 -1.4688 -0.0687 0
M  V30 10 C -2.3465 -0.372 -0.3555 0
M  V30 11 H 2.5301 -1.6575 -0.3159 0
M  V30 12 H 3.7765 -0.6923 0.5367 0
M  V30 13 H 0.4186 -2.1491 0.4694 0
M  V30 14 H -0.5058 3.2154 -0.2839 0
M  V30 15 H -2.4484 1.7599 -0.5741 0
M  V30 16 H -1.9546 -2.466 -0.0657 0
M  V30 17 H -3.3951 -0.5197 -0.5799 0
M  V30 END ATOM
M  V30 BEGIN BOND
M  V30 1 2 1 2
M  V30 2 1 2 3
M  V30 3 1 2 4
M  V30 4 2 4 5
M  V30 5 1 4 6
M  V30 6 1 5 7
M  V30 7 1 5 8
M  V30 8 2 6 9
M  V30 9 2 8 10
M  V30 10 1 9 10
M  V30 11 1 3 11
M  V30 12 1 3 12
M  V30 13 1 6 13
M  V30 14 1 7 14
M  V30 15 1 8 15
M  V30 16 1 9 16
M  V30 17 1 10 17
M  V30 END BOND
M  V30 END CTAB
M  END
>  <Structure No>
7791

>  <LogS>
-1.76

>  <MMFF94 Energy>
7.2721

$$$$
Compound 7792
Actelion Java MolfileCreator 2.0

  0  0  0  0  0  0              0 V3000
M  V30 BEGIN CTAB
M  V30 COUNTS 20 20 0 0 0
M  V30 BEGIN ATOM
M  V30 1 O -1.6394 0.3121 -1.1708 0
M  V30 2 C -1.7706 -0.3296 -0.0931 0
M  V30 3 N -3.0737 -0.7351 0.3363 0
M  V30 4 N -0.6197 -0.6941 0.6839 0
M  V30 5 N -4.2105 -0.4226 -0.4263 0
M  V30 6 C 0.7034 -0.1774 0.4599 0
M  V30 7 C 0.9136 1.1489 0.0379 0
M  V30 8 C 1.8146 -0.9934 0.7258 0
M  V30 9 C 2.2128 1.6321 -0.1483 0
M  V30 10 C 3.1119 -0.5067 0.5375 0
M  V30 11 C 3.3108 0.8038 0.0968 0
M  V30 12 H -3.1727 -1.2987 1.2116 0
M  V30 13 H -0.7386 -1.4457 1.4003 0
M  V30 14 H -4.3501 0.6114 -0.363 0
M  V30 15 H -5.0364 -0.8637 0.039 0
M  V30 16 H 0.0802 1.8195 -0.1222 0
M  V30 17 H 1.6735 -2.0103 1.07 0
M  V30 18 H 2.3684 2.6525 -0.4739 0
M  V30 19 H 3.9629 -1.1454 0.7356 0
M  V30 20 H 4.3154 1.1801 -0.0464 0
M  V30 END ATOM
M  V30 BEGIN BOND
M  V30 1 2 1 2
M  V30 2 1 2 3
M  V30 3 1 2 4
M  V30 4 1 3 5
M  V30 5 1 4 6
M  V30 6 2 6 7
M  V30 7 1 6 8
M  V30 8 1 7 9
M  V30 9 2 8 10
M  V30 10 2 9 11
M  V30 11 1 10 11
M  V30 12 1 3 12
M  V30 13 1 4 13
M  V30 14 1 5 14
M  V30 15 1 5 15
M  V30 16 1 7 16
M  V30 17 1 8 17
M  V30 18 1 9 18
M  V30 19 1 10 19
M  V30 20 1 11 20
M  V30 END BOND
M  V30 END CTAB
M  END
>  <Structure No>
7792

>  <LogS>
-2.33

>  <MMFF94 Energy>
17.282

$$$$
Compound 7793
Actelion Java MolfileCreator 2.0

  0  0  0  0  0  0              0 V3000
M  V30 BEGIN CTAB
M  V30 COUNTS 20 20 0 0 0
M  V30 BEGIN ATOM
M  V30 1 O -0.4737 -2.2914 0.7897 0
M  V30 2 C -0.0548 -1.2987 0.2118 0
M  V30 3 C -1.0031 -0.2748 -0.3799 0 CFG=2
M  V30 4 C 1.4232 -1.1371 -0.0161 0
M  V30 5 C -0.4978 1.1478 -0.0694 0
M  V30 6 C -2.4425 -0.4509 0.1231 0
M  V30 7 C 1.8584 0.3017 0.2828 0
M  V30 8 C 0.9777 1.3171 -0.4584 0
M  V30 9 H -1.0073 -0.4134 -1.4836 0
M  V30 10 H 1.9936 -1.8352 0.6344 0
M  V30 11 H 1.6523 -1.3832 -1.0752 0
M  V30 12 H -0.6147 1.3652 1.0159 0
M  V30 13 H -1.1052 1.8893 -0.6329 0
M  V30 14 H -2.8297 -1.4515 -0.1648 0
M  V30 15 H -3.1034 0.3167 -0.3328 0
M  V30 16 H -2.4864 -0.3507 1.2291 0
M  V30 17 H 2.9165 0.4364 -0.0286 0
M  V30 18 H 1.7988 0.4881 1.378 0
M  V30 19 H 1.095 1.186 -1.5566 0
M  V30 20 H 1.3085 2.3457 -0.1985 0
M  V30 END ATOM
M  V30 BEGIN BOND
M  V30 1 2 1 2
M  V30 2 1 2 3
M  V30 3 1 2 4
M  V30 4 1 3 5
M  V30 5 1 3 6
M  V30 6 1 4 7
M  V30 7 1 5 8
M  V30 8 1 7 8
M  V30 9 1 3 9
M  V30 10 1 4 10
M  V30 11 1 4 11
M  V30 12 1 5 12
M  V30 13 1 5 13
M  V30 14 1 6 14
M  V30 15 1 6 15
M  V30 16 1 6 16
M  V30 17 1 7 17
M  V30 18 1 7 18
M  V30 19 1 8 19
M  V30 20 1 8 20
M  V30 END BOND
M  V30 BEGIN COLLECTION
M  V30 MDLV30/STEABS ATOMS=(1 3)
M  V30 END COLLECTION
M  V30 END CTAB
M  END
>  <Structure No>
7793

>  <LogS>
-0.94

>  <MMFF94 Energy>
5.6876

$$$$
Compound 7794
Actelion Java MolfileCreator 2.0

  0  0  0  0  0  0              0 V3000
M  V30 BEGIN CTAB
M  V30 COUNTS 25 24 0 0 0
M  V30 BEGIN ATOM
M  V30 1 O 4.2624 -1.3159 1.3159 0
M  V30 2 C 3.904 -0.2852 0.6841 0
M  V30 3 O 2.6092 -0.1774 0.1701 0
M  V30 4 N 4.8276 0.7824 0.4916 0
M  V30 5 C 1.6324 -1.2027 0.3264 0
M  V30 6 C 0.3217 -0.7876 -0.3425 0
M  V30 7 C -0.316 0.4201 0.3627 0
M  V30 8 C -1.5759 0.9271 -0.3567 0
M  V30 9 C -2.768 -0.0292 -0.2066 0
M  V30 10 C -4.032 0.5685 -0.8181 0
M  V30 11 H 4.5377 1.6391 -0.0297 0
M  V30 12 H 5.7988 0.7178 0.8694 0
M  V30 13 H 1.4596 -1.4009 1.4073 0
M  V30 14 H 2.0006 -2.1367 -0.1508 0
M  V30 15 H 0.5203 -0.5436 -1.4089 0
M  V30 16 H -0.3728 -1.653 -0.306 0
M  V30 17 H 0.4191 1.2539 0.3884 0
M  V30 18 H -0.563 0.1579 1.4149 0
M  V30 19 H -1.3544 1.0909 -1.4343 0
M  V30 20 H -1.8488 1.9113 0.0837 0
M  V30 21 H -2.5532 -0.9906 -0.7187 0
M  V30 22 H -2.9537 -0.2348 0.8699 0
M  V30 23 H -3.8793 0.769 -1.9 0
M  V30 24 H -4.2997 1.516 -0.3034 0
M  V30 25 H -4.8741 -0.1462 -0.7045 0
M  V30 END ATOM
M  V30 BEGIN BOND
M  V30 1 2 1 2
M  V30 2 1 2 3
M  V30 3 1 2 4
M  V30 4 1 3 5
M  V30 5 1 5 6
M  V30 6 1 6 7
M  V30 7 1 7 8
M  V30 8 1 8 9
M  V30 9 1 9 10
M  V30 10 1 4 11
M  V30 11 1 4 12
M  V30 12 1 5 13
M  V30 13 1 5 14
M  V30 14 1 6 15
M  V30 15 1 6 16
M  V30 16 1 7 17
M  V30 17 1 7 18
M  V30 18 1 8 19
M  V30 19 1 8 20
M  V30 20 1 9 21
M  V30 21 1 9 22
M  V30 22 1 10 23
M  V30 23 1 10 24
M  V30 24 1 10 25
M  V30 END BOND
M  V30 END CTAB
M  END
>  <Structure No>
7794

>  <LogS>
-1.92

>  <MMFF94 Energy>
-75.642

$$$$
Compound 7795
Actelion Java MolfileCreator 2.0

  0  0  0  0  0  0              0 V3000
M  V30 BEGIN CTAB
M  V30 COUNTS 24 24 0 0 0
M  V30 BEGIN ATOM
M  V30 1 O 2.4524 -0.7115 1.6608 0
M  V30 2 C 2.6061 -0.038 0.6059 0
M  V30 3 O 1.5047 0.5008 -0.0683 0
M  V30 4 C 3.9813 0.2385 0.1019 0
M  V30 5 C 0.1508 0.2692 0.3218 0
M  V30 6 C -0.7476 1.3076 -0.3667 0
M  V30 7 C -0.278 -1.1565 -0.0716 0
M  V30 8 C -2.2261 1.0665 -0.0372 0
M  V30 9 C -1.7567 -1.3987 0.2562 0
M  V30 10 C -2.6502 -0.3549 -0.4241 0
M  V30 11 H 4.4031 1.1128 0.6396 0
M  V30 12 H 4.6334 -0.6445 0.2682 0
M  V30 13 H 3.9485 0.4602 -0.9853 0
M  V30 14 H 0.0562 0.3976 1.4242 0
M  V30 15 H -0.4607 2.326 -0.0259 0
M  V30 16 H -0.6007 1.2617 -1.4685 0
M  V30 17 H 0.3367 -1.8995 0.4791 0
M  V30 18 H -0.1082 -1.3127 -1.1598 0
M  V30 19 H -2.8501 1.7993 -0.5926 0
M  V30 20 H -2.3977 1.2252 1.0502 0
M  V30 21 H -1.9065 -1.3578 1.3576 0
M  V30 22 H -2.0482 -2.4131 -0.0912 0
M  V30 23 H -2.591 -0.4751 -1.5282 0
M  V30 24 H -3.7056 -0.5194 -0.1177 0
M  V30 END ATOM
M  V30 BEGIN BOND
M  V30 1 2 1 2
M  V30 2 1 2 3
M  V30 3 1 2 4
M  V30 4 1 3 5
M  V30 5 1 5 6
M  V30 6 1 5 7
M  V30 7 1 6 8
M  V30 8 1 7 9
M  V30 9 1 8 10
M  V30 10 1 9 10
M  V30 11 1 4 11
M  V30 12 1 4 12
M  V30 13 1 4 13
M  V30 14 1 5 14
M  V30 15 1 6 15
M  V30 16 1 6 16
M  V30 17 1 7 17
M  V30 18 1 7 18
M  V30 19 1 8 19
M  V30 20 1 8 20
M  V30 21 1 9 21
M  V30 22 1 9 22
M  V30 23 1 10 23
M  V30 24 1 10 24
M  V30 END BOND
M  V30 END CTAB
M  END
>  <Structure No>
7795

>  <LogS>
-1.67

>  <MMFF94 Energy>
-7.2293

$$$$
Compound 7796
Actelion Java MolfileCreator 2.0

  0  0  0  0  0  0              0 V3000
M  V30 BEGIN CTAB
M  V30 COUNTS 19 19 0 0 0
M  V30 BEGIN ATOM
M  V30 1 O 2.9053 1.2555 0.4706 0
M  V30 2 C 2.1444 0.2743 0.2492 0
M  V30 3 C 0.6734 0.4848 0.1662 0
M  V30 4 C 2.7628 -1.0807 0.0766 0
M  V30 5 C -0.2086 -0.5873 -0.0797 0
M  V30 6 C 0.1367 1.7759 0.335 0
M  V30 7 C -1.5932 -0.3726 -0.155 0
M  V30 8 C -1.2421 1.9884 0.2597 0
M  V30 9 N -2.4785 -1.4679 -0.4051 0
M  V30 10 C -2.1052 0.9194 0.0157 0
M  V30 11 H 2.5218 -1.4796 -0.9307 0
M  V30 12 H 3.8679 -1.0202 0.1749 0
M  V30 13 H 2.3792 -1.7724 0.8557 0
M  V30 14 H 0.1676 -1.5926 -0.2143 0
M  V30 15 H 0.7819 2.6242 0.5255 0
M  V30 16 H -1.6426 2.9855 0.3911 0
M  V30 17 H -3.5107 -1.3187 -0.463 0
M  V30 18 H -2.1089 -2.4362 -0.5342 0
M  V30 19 H -3.1719 1.0973 -0.0402 0
M  V30 END ATOM
M  V30 BEGIN BOND
M  V30 1 2 1 2
M  V30 2 1 2 3
M  V30 3 1 2 4
M  V30 4 2 3 5
M  V30 5 1 3 6
M  V30 6 1 5 7
M  V30 7 2 6 8
M  V30 8 1 7 9
M  V30 9 2 7 10
M  V30 10 1 8 10
M  V30 11 1 4 11
M  V30 12 1 4 12
M  V30 13 1 4 13
M  V30 14 1 5 14
M  V30 15 1 6 15
M  V30 16 1 8 16
M  V30 17 1 9 17
M  V30 18 1 9 18
M  V30 19 1 10 19
M  V30 END BOND
M  V30 END CTAB
M  END
>  <Structure No>
7796

>  <LogS>
-1.28

>  <MMFF94 Energy>
23.854

$$$$
Compound 7797
Actelion Java MolfileCreator 2.0

  0  0  0  0  0  0              0 V3000
M  V30 BEGIN CTAB
M  V30 COUNTS 28 29 0 0 0
M  V30 BEGIN ATOM
M  V30 1 Cl 4.2986 -1.0944 2.5269 0
M  V30 2 C 3.8458 -1.1875 0.8043 0
M  V30 3 Cl 4.8019 0.0148 -0.1046 0
M  V30 4 Cl 4.258 -2.8166 0.2063 0
M  V30 5 C 2.3426 -0.9268 0.6372 0 CFG=2
M  V30 6 O 1.9808 -1.0412 -0.7198 0
M  V30 7 O 2.0124 0.3443 1.1516 0
M  V30 8 C 1.1141 0.0187 -0.9733 0 CFG=2
M  V30 9 C 1.2339 0.9715 0.1776 0 CFG=1
M  V30 10 O -0.2123 -0.4578 -1.0771 0
M  V30 11 C -0.1888 1.1555 0.6557 0 CFG=2
M  V30 12 C -0.8806 -0.0954 0.1093 0 CFG=1
M  V30 13 O -0.7414 2.3473 0.1436 0
M  V30 14 C -2.3954 0.0829 -0.1428 0 CFG=2
M  V30 15 O -2.9963 0.6011 1.0169 0
M  V30 16 C -3.0727 -1.251 -0.5027 0
M  V30 17 O -2.6363 -1.7108 -1.7548 0
M  V30 18 H 1.7827 -1.6948 1.2158 0
M  V30 19 H 1.4024 0.5145 -1.9252 0
M  V30 20 H 1.7109 1.9323 -0.1191 0
M  V30 21 H -0.2443 1.1849 1.7664 0
M  V30 22 H -0.7445 -0.9164 0.8512 0
M  V30 23 H -0.6554 2.3294 -0.8461 0
M  V30 24 H -2.5395 0.7917 -0.9922 0
M  V30 25 H -3.8536 1.0171 0.7373 0
M  V30 26 H -2.8933 -2.0077 0.2972 0
M  V30 27 H -4.1707 -1.0926 -0.5614 0
M  V30 28 H -1.9496 -2.4074 -1.5859 0
M  V30 END ATOM
M  V30 BEGIN BOND
M  V30 1 1 1 2
M  V30 2 1 2 3
M  V30 3 1 2 4
M  V30 4 1 2 5
M  V30 5 1 5 6
M  V30 6 1 5 7
M  V30 7 1 6 8
M  V30 8 1 7 9
M  V30 9 1 8 10
M  V30 10 1 9 11
M  V30 11 1 10 12
M  V30 12 1 11 13
M  V30 13 1 12 14
M  V30 14 1 14 15
M  V30 15 1 14 16
M  V30 16 1 16 17
M  V30 17 1 8 9
M  V30 18 1 11 12
M  V30 19 1 5 18
M  V30 20 1 8 19
M  V30 21 1 9 20
M  V30 22 1 11 21
M  V30 23 1 12 22
M  V30 24 1 13 23
M  V30 25 1 14 24
M  V30 26 1 15 25
M  V30 27 1 16 26
M  V30 28 1 16 27
M  V30 29 1 17 28
M  V30 END BOND
M  V30 BEGIN COLLECTION
M  V30 MDLV30/STEABS ATOMS=(6 5 8 9 11 12 14)
M  V30 END COLLECTION
M  V30 END CTAB
M  END
>  <Structure No>
7797

>  <LogS>
-1.84

>  <MMFF94 Energy>
142.09

$$$$
Compound 7798
Actelion Java MolfileCreator 2.0

  0  0  0  0  0  0              0 V3000
M  V30 BEGIN CTAB
M  V30 COUNTS 26 25 0 0 0
M  V30 BEGIN ATOM
M  V30 1 Cl 1.8879 2.9561 0.164 0
M  V30 2 C 2.6947 1.3992 0.3022 0
M  V30 3 C 3.7726 1.2871 1.0858 0
M  V30 4 C 2.1893 0.2298 -0.4968 0
M  V30 5 S 1.614 -1.1201 0.593 0
M  V30 6 C 0.0588 -0.3203 1.0211 0
M  V30 7 S 0.0071 0.5187 2.4308 0
M  V30 8 N -1.118 -0.4715 0.1879 0
M  V30 9 C -2.2558 0.456 0.3062 0
M  V30 10 C -1.1861 -1.5487 -0.8121 0
M  V30 11 C -1.9112 1.808 -0.309 0
M  V30 12 C -1.4417 -2.8914 -0.1358 0
M  V30 13 H 4.301 0.3428 1.1742 0
M  V30 14 H 4.1368 2.1418 1.6468 0
M  V30 15 H 3.0101 -0.1566 -1.1366 0
M  V30 16 H 1.3644 0.5489 -1.1692 0
M  V30 17 H -3.1515 0.0512 -0.213 0
M  V30 18 H -2.5473 0.5818 1.3702 0
M  V30 19 H -0.2488 -1.5898 -1.4052 0
M  V30 20 H -2.0036 -1.3608 -1.5415 0
M  V30 21 H -1.0793 2.2867 0.2468 0
M  V30 22 H -2.7972 2.4756 -0.2639 0
M  V30 23 H -1.6128 1.6776 -1.3708 0
M  V30 24 H -1.5129 -3.6888 -0.9049 0
M  V30 25 H -0.6142 -3.1415 0.5602 0
M  V30 26 H -2.3955 -2.854 0.4319 0
M  V30 END ATOM
M  V30 BEGIN BOND
M  V30 1 1 1 2
M  V30 2 2 2 3
M  V30 3 1 2 4
M  V30 4 1 4 5
M  V30 5 1 5 6
M  V30 6 2 6 7
M  V30 7 1 6 8
M  V30 8 1 8 9
M  V30 9 1 8 10
M  V30 10 1 9 11
M  V30 11 1 10 12
M  V30 12 1 3 13
M  V30 13 1 3 14
M  V30 14 1 4 15
M  V30 15 1 4 16
M  V30 16 1 9 17
M  V30 17 1 9 18
M  V30 18 1 10 19
M  V30 19 1 10 20
M  V30 20 1 11 21
M  V30 21 1 11 22
M  V30 22 1 11 23
M  V30 23 1 12 24
M  V30 24 1 12 25
M  V30 25 1 12 26
M  V30 END BOND
M  V30 END CTAB
M  END
>  <Structure No>
7798

>  <LogS>
-3.39

>  <MMFF94 Energy>
-15.763

$$$$
Compound 7799
Actelion Java MolfileCreator 2.0

  0  0  0  0  0  0              0 V3000
M  V30 BEGIN CTAB
M  V30 COUNTS 24 23 0 0 0
M  V30 BEGIN ATOM
M  V30 1 O 1.4727 1.1625 0.6198 0
M  V30 2 C 2.3431 0.5502 -0.0535 0
M  V30 3 C 2.0037 -0.6315 -0.8813 0
M  V30 4 C 3.7399 1.0821 -0.0814 0
M  V30 5 C 0.8644 -1.3472 -0.8404 0
M  V30 6 O 0.7314 -2.3989 -1.7467 0
M  V30 7 C -0.2787 -1.075 0.108 0
M  V30 8 C -1.2606 -0.0644 -0.4965 0
M  V30 9 C -2.4 0.2464 0.4802 0
M  V30 10 C -3.3846 1.2451 -0.1209 0
M  V30 11 H 2.7605 -0.9514 -1.5882 0
M  V30 12 H 4.4666 0.2473 0.0077 0
M  V30 13 H 3.9133 1.6177 -1.038 0
M  V30 14 H 3.905 1.7857 0.7621 0
M  V30 15 H -0.1075 -2.9655 -1.7827 0
M  V30 16 H 0.0901 -0.7403 1.0995 0
M  V30 17 H -0.819 -2.0281 0.2953 0
M  V30 18 H -0.7267 0.8769 -0.7495 0
M  V30 19 H -1.6842 -0.4856 -1.435 0
M  V30 20 H -2.9453 -0.6895 0.731 0
M  V30 21 H -1.983 0.6735 1.4182 0
M  V30 22 H -4.197 1.4506 0.6075 0
M  V30 23 H -3.8354 0.8321 -1.0483 0
M  V30 24 H -2.8693 2.2005 -0.3571 0
M  V30 END ATOM
M  V30 BEGIN BOND
M  V30 1 2 1 2
M  V30 2 1 2 3
M  V30 3 1 2 4
M  V30 4 2 3 5
M  V30 5 1 5 6
M  V30 6 1 5 7
M  V30 7 1 7 8
M  V30 8 1 8 9
M  V30 9 1 9 10
M  V30 10 1 3 11
M  V30 11 1 4 12
M  V30 12 1 4 13
M  V30 13 1 4 14
M  V30 14 1 6 15
M  V30 15 1 7 16
M  V30 16 1 7 17
M  V30 17 1 8 18
M  V30 18 1 8 19
M  V30 19 1 9 20
M  V30 20 1 9 21
M  V30 21 1 10 22
M  V30 22 1 10 23
M  V30 23 1 10 24
M  V30 END BOND
M  V30 END CTAB
M  END
>  <Structure No>
7799

>  <LogS>
-1.56

>  <MMFF94 Energy>
10.786

$$$$
Compound 7800
Actelion Java MolfileCreator 2.0

  0  0  0  0  0  0              0 V3000
M  V30 BEGIN CTAB
M  V30 COUNTS 24 23 0 0 0
M  V30 BEGIN ATOM
M  V30 1 O -0.6978 0.853 -2.4054 0
M  V30 2 C -0.0394 0.8403 -1.3313 0
M  V30 3 C 0.1058 -0.4341 -0.5845 0
M  V30 4 C 0.5412 2.1257 -0.8264 0
M  V30 5 C 1.307 -0.9038 -0.1717 0
M  V30 6 C -1.1564 -1.2237 -0.3 0
M  V30 7 O 1.3578 -2.0744 0.5878 0
M  V30 8 C 2.6054 -0.2162 -0.5018 0
M  V30 9 C -1.6686 -1.0087 1.1323 0
M  V30 10 C -2.2026 0.4052 1.3562 0
M  V30 11 H 0.7838 2.0514 0.2542 0
M  V30 12 H 1.4592 2.3745 -1.3977 0
M  V30 13 H -0.1957 2.9455 -0.959 0
M  V30 14 H -0.9624 -2.3075 -0.4548 0
M  V30 15 H -1.9589 -0.9535 -1.0205 0
M  V30 16 H 2.2345 -2.4526 0.9261 0
M  V30 17 H 3.4534 -0.9235 -0.3906 0
M  V30 18 H 2.6086 0.1409 -1.553 0
M  V30 19 H 2.7714 0.634 0.1912 0
M  V30 20 H -2.4935 -1.7287 1.3231 0
M  V30 21 H -0.8622 -1.2197 1.8672 0
M  V30 22 H -2.9883 0.6468 0.609 0
M  V30 23 H -1.382 1.1478 1.2819 0
M  V30 24 H -2.6456 0.4768 2.3718 0
M  V30 END ATOM
M  V30 BEGIN BOND
M  V30 1 2 1 2
M  V30 2 1 2 3
M  V30 3 1 2 4
M  V30 4 2 3 5
M  V30 5 1 3 6
M  V30 6 1 5 7
M  V30 7 1 5 8
M  V30 8 1 6 9
M  V30 9 1 9 10
M  V30 10 1 4 11
M  V30 11 1 4 12
M  V30 12 1 4 13
M  V30 13 1 6 14
M  V30 14 1 6 15
M  V30 15 1 7 16
M  V30 16 1 8 17
M  V30 17 1 8 18
M  V30 18 1 8 19
M  V30 19 1 9 20
M  V30 20 1 9 21
M  V30 21 1 10 22
M  V30 22 1 10 23
M  V30 23 1 10 24
M  V30 END BOND
M  V30 END CTAB
M  END
>  <Structure No>
7800

>  <LogS>
-0.88

>  <MMFF94 Energy>
16.375

$$$$
Compound 7801
Actelion Java MolfileCreator 2.0

  0  0  0  0  0  0              0 V3000
M  V30 BEGIN CTAB
M  V30 COUNTS 24 23 0 0 0
M  V30 BEGIN ATOM
M  V30 1 O 3.11 -0.8545 0.0776 0
M  V30 2 C 2.4809 -0.02 -0.6266 0
M  V30 3 C 1.0533 0.2662 -0.3763 0
M  V30 4 C 3.2294 0.7937 -1.6322 0
M  V30 5 C 0.1615 -0.607 0.1431 0
M  V30 6 O 0.4941 -1.9534 0.3418 0
M  V30 7 C -1.2603 -0.1537 0.4901 0
M  V30 8 C -1.22 1.0174 1.4959 0
M  V30 9 C -2.0512 -1.3136 1.1361 0
M  V30 10 C -2.0025 0.2837 -0.7901 0
M  V30 11 H 0.7264 1.2678 -0.6237 0
M  V30 12 H 3.5277 1.7614 -1.1776 0
M  V30 13 H 4.1403 0.2521 -1.9648 0
M  V30 14 H 2.5903 0.9878 -2.5195 0
M  V30 15 H 1.318 -2.3949 -0.0424 0
M  V30 16 H -0.6468 0.7294 2.4038 0
M  V30 17 H -2.2485 1.3023 1.8077 0
M  V30 18 H -0.7449 1.9181 1.0536 0
M  V30 19 H -2.1317 -2.1739 0.4364 0
M  V30 20 H -1.5502 -1.6599 2.0663 0
M  V30 21 H -3.082 -0.9911 1.4003 0
M  V30 22 H -2.0089 -0.5405 -1.5358 0
M  V30 23 H -1.5216 1.1703 -1.2542 0
M  V30 24 H -3.0557 0.5548 -0.5592 0
M  V30 END ATOM
M  V30 BEGIN BOND
M  V30 1 2 1 2
M  V30 2 1 2 3
M  V30 3 1 2 4
M  V30 4 2 3 5
M  V30 5 1 5 6
M  V30 6 1 5 7
M  V30 7 1 7 8
M  V30 8 1 7 9
M  V30 9 1 7 10
M  V30 10 1 3 11
M  V30 11 1 4 12
M  V30 12 1 4 13
M  V30 13 1 4 14
M  V30 14 1 6 15
M  V30 15 1 8 16
M  V30 16 1 8 17
M  V30 17 1 8 18
M  V30 18 1 9 19
M  V30 19 1 9 20
M  V30 20 1 9 21
M  V30 21 1 10 22
M  V30 22 1 10 23
M  V30 23 1 10 24
M  V30 END BOND
M  V30 END CTAB
M  END
>  <Structure No>
7801

>  <LogS>
-1.63

>  <MMFF94 Energy>
16.644

$$$$
Compound 7802
Actelion Java MolfileCreator 2.0

  0  0  0  0  0  0              0 V3000
M  V30 BEGIN CTAB
M  V30 COUNTS 28 27 0 0 0
M  V30 BEGIN ATOM
M  V30 1 O 4.5021 -1.7058 0.0 0
M  V30 2 C 4.261 -0.5723 0.497 0
M  V30 3 O 3.0175 0.0381 0.3123 0
M  V30 4 N 5.2657 0.095 1.2555 0
M  V30 5 C 1.9671 -0.5692 -0.4329 0
M  V30 6 C 0.7497 0.3531 -0.4405 0
M  V30 7 C -0.4142 -0.274 -1.2211 0
M  V30 8 C -1.6049 0.6859 -1.3934 0
M  V30 9 C -2.2591 1.1583 -0.0791 0
M  V30 10 C -2.7658 0.0303 0.8364 0
M  V30 11 C -3.8471 -0.8281 0.1815 0
M  V30 12 H 6.1999 -0.3474 1.4028 0
M  V30 13 H 5.0733 1.0335 1.67 0
M  V30 14 H 1.6965 -1.5417 0.0341 0
M  V30 15 H 2.3096 -0.7474 -1.4759 0
M  V30 16 H 0.4426 0.5381 0.6109 0
M  V30 17 H 1.0331 1.3231 -0.9047 0
M  V30 18 H -0.0567 -0.5511 -2.2371 0
M  V30 19 H -0.7439 -1.2123 -0.7273 0
M  V30 20 H -2.3714 0.1942 -2.0294 0
M  V30 21 H -1.2616 1.5825 -1.9541 0
M  V30 22 H -1.5384 1.7842 0.4884 0
M  V30 23 H -3.1144 1.8215 -0.3339 0
M  V30 24 H -3.1975 0.4948 1.7495 0
M  V30 25 H -1.9243 -0.6126 1.1689 0
M  V30 26 H -4.669 -0.1891 -0.2058 0
M  V30 27 H -3.4208 -1.4284 -0.6486 0
M  V30 28 H -4.2676 -1.5287 0.9332 0
M  V30 END ATOM
M  V30 BEGIN BOND
M  V30 1 2 1 2
M  V30 2 1 2 3
M  V30 3 1 2 4
M  V30 4 1 3 5
M  V30 5 1 5 6
M  V30 6 1 6 7
M  V30 7 1 7 8
M  V30 8 1 8 9
M  V30 9 1 9 10
M  V30 10 1 10 11
M  V30 11 1 4 12
M  V30 12 1 4 13
M  V30 13 1 5 14
M  V30 14 1 5 15
M  V30 15 1 6 16
M  V30 16 1 6 17
M  V30 17 1 7 18
M  V30 18 1 7 19
M  V30 19 1 8 20
M  V30 20 1 8 21
M  V30 21 1 9 22
M  V30 22 1 9 23
M  V30 23 1 10 24
M  V30 24 1 10 25
M  V30 25 1 11 26
M  V30 26 1 11 27
M  V30 27 1 11 28
M  V30 END BOND
M  V30 END CTAB
M  END
>  <Structure No>
7802

>  <LogS>
-2.62

>  <MMFF94 Energy>
-75.848

$$$$
Compound 7803
Actelion Java MolfileCreator 2.0

  0  0  0  0  0  0              0 V3000
M  V30 BEGIN CTAB
M  V30 COUNTS 22 23 0 0 0
M  V30 BEGIN ATOM
M  V30 1 Cl -4.0788 1.5801 1.5801 0
M  V30 2 C -3.1255 0.6497 0.4318 0
M  V30 3 C -3.7253 0.0282 -0.6754 0
M  V30 4 C -1.7462 0.5252 0.6398 0
M  V30 5 Cl -5.4536 0.1606 -0.9719 0
M  V30 6 C -2.9412 -0.7183 -1.5601 0
M  V30 7 C -0.9513 -0.2114 -0.2572 0
M  V30 8 C -1.5656 -0.8423 -1.3503 0
M  V30 9 N 0.4663 -0.3611 -0.0572 0
M  V30 10 O 1.1765 -1.3416 -0.5387 0
M  V30 11 C 1.3394 0.4555 0.5762 0
M  V30 12 C 2.4335 -1.1571 -0.2052 0
M  V30 13 O 1.0384 1.5614 1.1005 0
M  V30 14 N 2.5929 -0.0348 0.5243 0
M  V30 15 O 3.3728 -1.9249 -0.5431 0
M  V30 16 C 3.8334 0.5912 0.969 0
M  V30 17 H -1.3097 0.9824 1.5165 0
M  V30 18 H -3.3975 -1.2049 -2.4128 0
M  V30 19 H -0.9761 -1.4227 -2.0485 0
M  V30 20 H 3.6496 1.1954 1.8825 0
M  V30 21 H 4.2252 1.2505 0.1665 0
M  V30 22 H 4.5897 -0.1863 1.2064 0
M  V30 END ATOM
M  V30 BEGIN BOND
M  V30 1 1 1 2
M  V30 2 2 2 3
M  V30 3 1 2 4
M  V30 4 1 3 5
M  V30 5 1 3 6
M  V30 6 2 4 7
M  V30 7 2 6 8
M  V30 8 1 7 9
M  V30 9 1 9 10
M  V30 10 1 9 11
M  V30 11 1 10 12
M  V30 12 2 11 13
M  V30 13 1 11 14
M  V30 14 2 12 15
M  V30 15 1 14 16
M  V30 16 1 7 8
M  V30 17 1 12 14
M  V30 18 1 4 17
M  V30 19 1 6 18
M  V30 20 1 8 19
M  V30 21 1 16 20
M  V30 22 1 16 21
M  V30 23 1 16 22
M  V30 END BOND
M  V30 END CTAB
M  END
>  <Structure No>
7803

>  <LogS>
-2.82

>  <MMFF94 Energy>
-28.529

$$$$
Compound 7804
Actelion Java MolfileCreator 2.0

  0  0  0  0  0  0              0 V3000
M  V30 BEGIN CTAB
M  V30 COUNTS 26 25 0 0 0
M  V30 BEGIN ATOM
M  V30 1 O 1.3036 -1.2221 2.119 0
M  V30 2 C 0.6635 -1.5806 1.0968 0
M  V30 3 O 0.0584 -2.8338 1.106 0 CHG=-1
M  V30 4 C 0.4946 -0.6466 -0.104 0 CFG=1
M  V30 5 C -0.8741 0.1836 0.0201 0
M  V30 6 C 1.7859 0.2367 -0.3026 0
M  V30 7 C 0.4582 -1.565 -1.3651 0
M  V30 8 C -2.0746 -0.7601 -0.0584 0
M  V30 9 C -1.0119 1.2445 -1.1057 0
M  V30 10 C -1.0038 0.9424 1.3706 0
M  V30 11 C 2.0659 1.3248 0.6977 0
M  V30 12 O -2.6668 -0.9661 -1.1527 0
M  V30 13 O -2.5056 -1.4472 1.0721 0 CHG=-1
M  V30 14 O 2.581 1.0571 1.8143 0
M  V30 15 O 1.8352 2.6532 0.3604 0 CHG=-1
M  V30 16 H 1.7583 0.7145 -1.3063 0
M  V30 17 H 2.6788 -0.4274 -0.322 0
M  V30 18 H 0.3933 -0.9776 -2.3036 0
M  V30 19 H -0.3912 -2.2783 -1.3495 0
M  V30 20 H 1.3856 -2.1761 -1.4282 0
M  V30 21 H -1.9883 1.7707 -1.0242 0
M  V30 22 H -0.968 0.788 -2.1147 0
M  V30 23 H -0.2211 2.017 -1.0407 0
M  V30 24 H -0.3156 1.8025 1.4458 0
M  V30 25 H -2.0274 1.3654 1.4765 0
M  V30 26 H -0.8361 0.277 2.2417 0
M  V30 END ATOM
M  V30 BEGIN BOND
M  V30 1 2 1 2
M  V30 2 1 2 3
M  V30 3 1 2 4
M  V30 4 1 4 5
M  V30 5 1 4 6
M  V30 6 1 4 7
M  V30 7 1 5 8
M  V30 8 1 5 9
M  V30 9 1 5 10
M  V30 10 1 6 11
M  V30 11 2 8 12
M  V30 12 1 8 13
M  V30 13 2 11 14
M  V30 14 1 11 15
M  V30 15 1 6 16
M  V30 16 1 6 17
M  V30 17 1 7 18
M  V30 18 1 7 19
M  V30 19 1 7 20
M  V30 20 1 9 21
M  V30 21 1 9 22
M  V30 22 1 9 23
M  V30 23 1 10 24
M  V30 24 1 10 25
M  V30 25 1 10 26
M  V30 END BOND
M  V30 BEGIN COLLECTION
M  V30 MDLV30/STEABS ATOMS=(1 4)
M  V30 END COLLECTION
M  V30 END CTAB
M  END
>  <Structure No>
7804

>  <LogS>
-0.29

>  <MMFF94 Energy>
222.12

$$$$
Compound 7805
Actelion Java MolfileCreator 2.0

  0  0  0  0  0  0              0 V3000
M  V30 BEGIN CTAB
M  V30 COUNTS 28 29 0 0 0
M  V30 BEGIN ATOM
M  V30 1 O -2.9005 2.2553 -0.4024 0
M  V30 2 C -1.8354 2.0476 0.2372 0
M  V30 3 O -1.6369 2.7018 1.4483 0 CHG=-1
M  V30 4 C -0.762 1.16 -0.3542 0 CFG=2
M  V30 5 C -1.3515 -0.166 -0.938 0 CFG=2
M  V30 6 C 0.4143 0.8871 0.6439 0 CFG=2
M  V30 7 O -2.37 -0.6553 -0.0991 0
M  V30 8 C -0.2757 -1.2718 -1.1482 0
M  V30 9 N 1.4722 0.0913 0.004 0 CHG=1 CFG=1
M  V30 10 C -0.0487 -0.0143 1.809 0
M  V30 11 C 0.853 -1.2376 -0.0773 0 CFG=1
M  V30 12 C 2.0455 0.6268 -1.2474 0
M  V30 13 C 0.2528 -1.4409 1.3243 0
M  V30 14 H -0.3602 1.756 -1.1989 0
M  V30 15 H -1.7961 0.0759 -1.9327 0
M  V30 16 H 0.8299 1.8469 1.027 0
M  V30 17 H -2.9288 -1.2671 -0.6463 0
M  V30 18 H -0.7587 -2.2734 -1.1344 0
M  V30 19 H 0.1636 -1.1822 -2.1629 0
M  V30 20 H 2.2791 0.0311 0.6747 0
M  V30 21 H 0.5552 0.2093 2.7156 0
M  V30 22 H -1.1218 0.1116 2.0655 0
M  V30 23 H 1.6131 -2.02 -0.299 0
M  V30 24 H 1.321 0.6832 -2.081 0
M  V30 25 H 2.447 1.648 -1.0704 0
M  V30 26 H 2.8878 -0.0181 -1.5789 0
M  V30 27 H -0.6566 -2.08 1.3185 0
M  V30 28 H 1.0091 -1.9118 1.99 0
M  V30 END ATOM
M  V30 BEGIN BOND
M  V30 1 2 1 2
M  V30 2 1 2 3
M  V30 3 1 2 4
M  V30 4 1 4 5
M  V30 5 1 4 6
M  V30 6 1 5 7
M  V30 7 1 5 8
M  V30 8 1 6 9
M  V30 9 1 6 10
M  V30 10 1 8 11
M  V30 11 1 9 12
M  V30 12 1 10 13
M  V30 13 1 9 11
M  V30 14 1 11 13
M  V30 15 1 4 14
M  V30 16 1 5 15
M  V30 17 1 6 16
M  V30 18 1 7 17
M  V30 19 1 8 18
M  V30 20 1 8 19
M  V30 21 1 9 20
M  V30 22 1 10 21
M  V30 23 1 10 22
M  V30 24 1 11 23
M  V30 25 1 12 24
M  V30 26 1 12 25
M  V30 27 1 12 26
M  V30 28 1 13 27
M  V30 29 1 13 28
M  V30 END BOND
M  V30 BEGIN COLLECTION
M  V30 MDLV30/STEABS ATOMS=(5 4 5 6 9 11)
M  V30 END COLLECTION
M  V30 END CTAB
M  END
>  <Structure No>
7805

>  <LogS>
-0.02

>  <MMFF94 Energy>
-70.052

$$$$
Compound 7806
Actelion Java MolfileCreator 2.0

  0  0  0  0  0  0              0 V3000
M  V30 BEGIN CTAB
M  V30 COUNTS 32 31 0 0 0
M  V30 BEGIN ATOM
M  V30 1 S -1.1148 2.8687 -1.1945 0
M  V30 2 C -1.1752 1.9785 0.3967 0
M  V30 3 C -1.9321 4.3659 -0.559 0
M  V30 4 C -0.5777 0.6031 0.2317 0
M  V30 5 N 0.6912 0.5012 0.5119 0
M  V30 6 C -1.3956 -0.592 -0.313 0
M  V30 7 O 1.419 -0.6608 0.3896 0
M  V30 8 C -1.3758 -1.7586 0.6999 0
M  V30 9 C -2.8808 -0.2247 -0.5575 0
M  V30 10 C -0.8083 -1.0588 -1.6631 0
M  V30 11 C 2.7752 -0.6953 0.7051 0
M  V30 12 O 3.3597 0.3465 1.1104 0
M  V30 13 N 3.4973 -1.9218 0.5648 0
M  V30 14 C 4.917 -2.0208 0.8786 0
M  V30 15 H -2.2126 1.9319 0.7817 0
M  V30 16 H -0.5877 2.5521 1.1468 0
M  V30 17 H -2.012 5.1098 -1.3779 0
M  V30 18 H -1.3363 4.8049 0.2681 0
M  V30 19 H -2.9523 4.1192 -0.1977 0
M  V30 20 H -0.3694 -2.2089 0.8052 0
M  V30 21 H -2.0573 -2.5741 0.3731 0
M  V30 22 H -1.7098 -1.4072 1.7002 0
M  V30 23 H -3.3893 0.0407 0.3939 0
M  V30 24 H -3.434 -1.0861 -0.9913 0
M  V30 25 H -2.9749 0.6201 -1.2716 0
M  V30 26 H -1.4299 -1.8684 -2.1033 0
M  V30 27 H -0.7777 -0.2132 -2.3836 0
M  V30 28 H 0.218 -1.462 -1.5563 0
M  V30 29 H 2.9902 -2.7704 0.2273 0
M  V30 30 H 5.2713 -3.0577 0.6988 0
M  V30 31 H 5.0858 -1.7635 1.9455 0
M  V30 32 H 5.4948 -1.3267 0.2327 0
M  V30 END ATOM
M  V30 BEGIN BOND
M  V30 1 1 1 2
M  V30 2 1 1 3
M  V30 3 1 2 4
M  V30 4 2 4 5
M  V30 5 1 4 6
M  V30 6 1 5 7
M  V30 7 1 6 8
M  V30 8 1 6 9
M  V30 9 1 6 10
M  V30 10 1 7 11
M  V30 11 2 11 12
M  V30 12 1 11 13
M  V30 13 1 13 14
M  V30 14 1 2 15
M  V30 15 1 2 16
M  V30 16 1 3 17
M  V30 17 1 3 18
M  V30 18 1 3 19
M  V30 19 1 8 20
M  V30 20 1 8 21
M  V30 21 1 8 22
M  V30 22 1 9 23
M  V30 23 1 9 24
M  V30 24 1 9 25
M  V30 25 1 10 26
M  V30 26 1 10 27
M  V30 27 1 10 28
M  V30 28 1 13 29
M  V30 29 1 14 30
M  V30 30 1 14 31
M  V30 31 1 14 32
M  V30 END BOND
M  V30 END CTAB
M  END
>  <Structure No>
7806

>  <LogS>
-1.62

>  <MMFF94 Energy>
32.602

$$$$
Compound 7807
Actelion Java MolfileCreator 2.0

  0  0  0  0  0  0              0 V3000
M  V30 BEGIN CTAB
M  V30 COUNTS 31 30 0 0 0
M  V30 BEGIN ATOM
M  V30 1 O 4.4295 -0.6207 0.3103 0
M  V30 2 C 3.6994 0.1877 -0.3244 0
M  V30 3 O 2.847 1.0669 0.3516 0
M  V30 4 N 3.7448 0.2116 -1.7481 0
M  V30 5 C 2.6772 1.0666 1.7681 0
M  V30 6 C 1.8403 -0.1334 2.2371 0
M  V30 7 C 0.3413 3.0E-4 1.9184 0
M  V30 8 C 0.0282 -0.1686 0.4241 0
M  V30 9 C -1.4843 -0.2486 0.1841 0
M  V30 10 C -1.7963 -0.3846 -1.3134 0
M  V30 11 C -3.2936 -0.5914 -1.5882 0
M  V30 12 C -4.1228 0.6646 -1.3218 0
M  V30 13 H 4.3767 -0.4358 -2.2692 0
M  V30 14 H 3.1406 0.8756 -2.2806 0
M  V30 15 H 3.6728 1.0451 2.2626 0
M  V30 16 H 2.1792 2.0119 2.0711 0
M  V30 17 H 2.2405 -1.0781 1.8111 0
M  V30 18 H 1.9461 -0.2074 3.3413 0
M  V30 19 H -0.1957 -0.7896 2.4881 0
M  V30 20 H -0.0359 0.9837 2.2748 0
M  V30 21 H 0.4301 0.6987 -0.1402 0
M  V30 22 H 0.5094 -1.097 0.0455 0
M  V30 23 H -1.9601 0.6725 0.5832 0
M  V30 24 H -1.8967 -1.1266 0.7282 0
M  V30 25 H -1.4344 0.5142 -1.8594 0
M  V30 26 H -1.2496 -1.2656 -1.7156 0
M  V30 27 H -3.6833 -1.4323 -0.9743 0
M  V30 28 H -3.4188 -0.8702 -2.6569 0
M  V30 29 H -4.1362 0.9049 -0.2387 0
M  V30 30 H -5.1694 0.4915 -1.6493 0
M  V30 31 H -3.714 1.5281 -1.8882 0
M  V30 END ATOM
M  V30 BEGIN BOND
M  V30 1 2 1 2
M  V30 2 1 2 3
M  V30 3 1 2 4
M  V30 4 1 3 5
M  V30 5 1 5 6
M  V30 6 1 6 7
M  V30 7 1 7 8
M  V30 8 1 8 9
M  V30 9 1 9 10
M  V30 10 1 10 11
M  V30 11 1 11 12
M  V30 12 1 4 13
M  V30 13 1 4 14
M  V30 14 1 5 15
M  V30 15 1 5 16
M  V30 16 1 6 17
M  V30 17 1 6 18
M  V30 18 1 7 19
M  V30 19 1 7 20
M  V30 20 1 8 21
M  V30 21 1 8 22
M  V30 22 1 9 23
M  V30 23 1 9 24
M  V30 24 1 10 25
M  V30 25 1 10 26
M  V30 26 1 11 27
M  V30 27 1 11 28
M  V30 28 1 12 29
M  V30 29 1 12 30
M  V30 30 1 12 31
M  V30 END BOND
M  V30 END CTAB
M  END
>  <Structure No>
7807

>  <LogS>
-3.3

>  <MMFF94 Energy>
-74.961

$$$$
Compound 7808
Actelion Java MolfileCreator 2.0

  0  0  0  0  0  0              0 V3000
M  V30 BEGIN CTAB
M  V30 COUNTS 22 24 0 0 0
M  V30 BEGIN ATOM
M  V30 1 Cl -3.312 -2.1151 -0.4595 0
M  V30 2 C -2.058 -0.9212 -0.1497 0
M  V30 3 C -2.1172 0.3813 -0.4608 0
M  V30 4 C -0.7609 -1.129 0.6065 0 CFG=2
M  V30 5 Cl -3.4622 1.1928 -1.2528 0
M  V30 6 C -0.8569 1.0204 0.0918 0 CFG=2
M  V30 7 Cl -0.6969 -2.6157 1.5988 0
M  V30 8 C -0.717 0.1961 1.3823 0
M  V30 9 C 0.353 -0.9949 -0.477 0 CFG=1
M  V30 10 Cl -0.9549 2.7942 0.3041 0
M  V30 11 C 0.2885 0.5076 -0.8416 0 CFG=2
M  V30 12 Cl -2.1032 0.4082 2.5271 0
M  V30 13 Cl 0.7518 0.4873 2.3731 0
M  V30 14 C 1.7561 -1.2089 -0.0181 0
M  V30 15 C 1.705 1.0653 -0.6025 0
M  V30 16 C 2.4926 -0.113 -0.1354 0
M  V30 17 H 0.1515 -1.6425 -1.36 0
M  V30 18 H 0.016 0.6446 -1.9139 0
M  V30 19 H 2.1475 -2.1591 0.3299 0
M  V30 20 H 2.1399 1.4457 -1.5512 0
M  V30 21 H 1.7272 1.8741 0.1563 0
M  V30 22 H 3.5446 -0.0721 0.1261 0
M  V30 END ATOM
M  V30 BEGIN BOND
M  V30 1 1 1 2
M  V30 2 2 2 3
M  V30 3 1 2 4
M  V30 4 1 3 5
M  V30 5 1 3 6
M  V30 6 1 4 7
M  V30 7 1 4 8
M  V30 8 1 4 9
M  V30 9 1 6 10
M  V30 10 1 6 11
M  V30 11 1 8 12
M  V30 12 1 8 13
M  V30 13 1 9 14
M  V30 14 1 11 15
M  V30 15 2 14 16
M  V30 16 1 6 8
M  V30 17 1 9 11
M  V30 18 1 15 16
M  V30 19 1 9 17
M  V30 20 1 11 18
M  V30 21 1 14 19
M  V30 22 1 15 20
M  V30 23 1 15 21
M  V30 24 1 16 22
M  V30 END BOND
M  V30 BEGIN COLLECTION
M  V30 MDLV30/STEABS ATOMS=(4 4 6 9 11)
M  V30 END COLLECTION
M  V30 END CTAB
M  END
>  <Structure No>
7808

>  <LogS>
-5.64

>  <MMFF94 Energy>
94.093

$$$$
Compound 7809
Actelion Java MolfileCreator 2.0

  0  0  0  0  0  0              0 V3000
M  V30 BEGIN CTAB
M  V30 COUNTS 23 25 0 0 0
M  V30 BEGIN ATOM
M  V30 1 Cl -3.6643 0.2745 1.831 0
M  V30 2 C -2.2816 0.236 0.7446 0
M  V30 3 C -2.0212 1.1172 -0.2298 0
M  V30 4 C -1.2134 -0.8328 0.6584 0 CFG=1
M  V30 5 Cl -3.0025 2.5198 -0.6368 0
M  V30 6 C -0.7791 0.6235 -0.9515 0 CFG=1
M  V30 7 Cl -1.6317 -2.3792 1.4543 0
M  V30 8 C -1.0453 -0.8892 -0.8669 0
M  V30 9 C 0.0827 -0.1379 1.177 0 CFG=2
M  V30 10 Cl -0.5998 1.301 -2.5992 0
M  V30 11 C 0.3927 0.8905 0.0591 0 CFG=1
M  V30 12 Cl 0.2441 -1.9797 -1.4738 0
M  V30 13 Cl -2.5447 -1.4075 -1.7385 0
M  V30 14 C 1.3013 -0.9948 1.254 0
M  V30 15 C 1.8642 0.6261 -0.3529 0 CFG=1
M  V30 16 C 2.266 -0.5668 0.453 0
M  V30 17 O 2.0128 0.3766 -1.7239 0
M  V30 18 H -0.0792 0.3583 2.1606 0
M  V30 19 H 0.321 1.9296 0.4576 0
M  V30 20 H 1.4083 -1.8472 1.9166 0
M  V30 21 H 2.4954 1.4938 -0.0513 0
M  V30 22 H 3.2405 -1.0398 0.3916 0
M  V30 23 H 2.9867 0.4036 -1.9144 0
M  V30 END ATOM
M  V30 BEGIN BOND
M  V30 1 1 1 2
M  V30 2 2 2 3
M  V30 3 1 2 4
M  V30 4 1 3 5
M  V30 5 1 3 6
M  V30 6 1 4 7
M  V30 7 1 4 8
M  V30 8 1 4 9
M  V30 9 1 6 10
M  V30 10 1 6 11
M  V30 11 1 8 12
M  V30 12 1 8 13
M  V30 13 1 9 14
M  V30 14 1 11 15
M  V30 15 2 14 16
M  V30 16 1 15 17
M  V30 17 1 6 8
M  V30 18 1 9 11
M  V30 19 1 15 16
M  V30 20 1 9 18
M  V30 21 1 11 19
M  V30 22 1 14 20
M  V30 23 1 15 21
M  V30 24 1 16 22
M  V30 25 1 17 23
M  V30 END BOND
M  V30 BEGIN COLLECTION
M  V30 MDLV30/STEABS ATOMS=(5 4 6 9 11 15)
M  V30 END COLLECTION
M  V30 END CTAB
M  END
>  <Structure No>
7809

>  <LogS>
-5.46

>  <MMFF94 Energy>
80.628

$$$$
Compound 7810
Actelion Java MolfileCreator 2.0

  0  0  0  0  0  0              0 V3000
M  V30 BEGIN CTAB
M  V30 COUNTS 26 27 0 0 0
M  V30 BEGIN ATOM
M  V30 1 S 0.4954 -2.0655 0.9084 0
M  V30 2 O 0.0873 -3.5107 0.8731 0
M  V30 3 O 0.9573 -1.7205 2.2969 0
M  V30 4 N 1.8055 -1.8189 -0.2008 0 CHG=-1
M  V30 5 C -0.8839 -1.0726 0.4482 0
M  V30 6 C 2.45 -0.5637 -0.4501 0
M  V30 7 C -1.7116 -0.5106 1.4299 0
M  V30 8 C -1.1612 -0.8425 -0.9058 0
M  V30 9 N 3.4398 -0.5081 -1.3807 0
M  V30 10 C 2.0949 0.6134 0.2314 0
M  V30 11 C -2.8022 0.2824 1.0602 0
M  V30 12 C -2.2513 -0.049 -1.2757 0
M  V30 13 C 4.086 0.6527 -1.6648 0
M  V30 14 N 2.7428 1.7732 -0.0551 0
M  V30 15 C -3.0768 0.5181 -0.2944 0
M  V30 16 C 3.729 1.8189 -0.9877 0
M  V30 17 N -4.1915 1.33 -0.6724 0
M  V30 18 H -1.5138 -0.6844 2.4799 0
M  V30 19 H -0.5334 -1.2748 -1.6743 0
M  V30 20 H 1.3185 0.621 0.982 0
M  V30 21 H -3.4328 0.7126 1.8282 0
M  V30 22 H -2.4529 0.1233 -2.3255 0
M  V30 23 H 4.8696 0.6691 -2.4102 0
M  V30 24 H 4.2318 2.7529 -1.2004 0
M  V30 25 H -4.4042 1.5108 -1.6789 0
M  V30 26 H -4.8124 1.7563 0.0512 0
M  V30 END ATOM
M  V30 BEGIN BOND
M  V30 1 2 1 2
M  V30 2 2 1 3
M  V30 3 1 1 4
M  V30 4 1 1 5
M  V30 5 1 4 6
M  V30 6 2 5 7
M  V30 7 1 5 8
M  V30 8 2 6 9
M  V30 9 1 6 10
M  V30 10 1 7 11
M  V30 11 2 8 12
M  V30 12 1 9 13
M  V30 13 2 10 14
M  V30 14 2 11 15
M  V30 15 2 13 16
M  V30 16 1 15 17
M  V30 17 1 12 15
M  V30 18 1 14 16
M  V30 19 1 7 18
M  V30 20 1 8 19
M  V30 21 1 10 20
M  V30 22 1 11 21
M  V30 23 1 12 22
M  V30 24 1 13 23
M  V30 25 1 16 24
M  V30 26 1 17 25
M  V30 27 1 17 26
M  V30 END BOND
M  V30 END CTAB
M  END
>  <Structure No>
7810

>  <LogS>
-3.7

>  <MMFF94 Energy>
84.854

$$$$
Compound 7811
Actelion Java MolfileCreator 2.0

  0  0  0  0  0  0              0 V3000
M  V30 BEGIN CTAB
M  V30 COUNTS 28 29 0 0 0
M  V30 BEGIN ATOM
M  V30 1 Cl -1.3155 -0.4109 -2.5499 0
M  V30 2 C -1.118 0.5342 -1.0465 0 CFG=2
M  V30 3 C -0.5692 -0.3171 0.0549 0
M  V30 4 C -2.4858 0.9083 -0.4246 0 CFG=2
M  V30 5 N 0.6397 -0.7751 0.1314 0
M  V30 6 C -1.5719 -0.3764 1.1633 0 CFG=2
M  V30 7 C -2.249 1.9039 0.7341 0
M  V30 8 C -2.8498 -0.3508 0.3479 0
M  V30 9 O 1.5387 -0.5881 -0.8952 0
M  V30 10 C -1.5824 1.0198 1.8217 0 CFG=1
M  V30 11 C 2.8384 -1.0824 -0.8098 0
M  V30 12 C -2.3538 1.0149 3.0773 0
M  V30 13 O 3.2122 -1.7113 0.2179 0
M  V30 14 N 3.7436 -0.8705 -1.8967 0
M  V30 15 N -2.9597 1.0108 4.0634 0
M  V30 16 C 5.1147 -1.3631 -1.8656 0
M  V30 17 H -0.4813 1.4255 -1.2353 0
M  V30 18 H -3.2509 1.2431 -1.1576 0
M  V30 19 H -1.4614 -1.2467 1.8465 0
M  V30 20 H -3.2226 2.327 1.0711 0
M  V30 21 H -1.5852 2.7417 0.4277 0
M  V30 22 H -2.9683 -1.2468 -0.3043 0
M  V30 23 H -3.7658 -0.2298 0.9713 0
M  V30 24 H -0.5491 1.3693 2.0426 0
M  V30 25 H 3.41 -0.3468 -2.737 0
M  V30 26 H 5.658 -0.9112 -1.0092 0
M  V30 27 H 5.1153 -2.4689 -1.7646 0
M  V30 28 H 5.6356 -1.0881 -2.8068 0
M  V30 END ATOM
M  V30 BEGIN BOND
M  V30 1 1 1 2
M  V30 2 1 2 3
M  V30 3 1 2 4
M  V30 4 2 3 5
M  V30 5 1 3 6
M  V30 6 1 4 7
M  V30 7 1 4 8
M  V30 8 1 5 9
M  V30 9 1 6 10
M  V30 10 1 9 11
M  V30 11 1 10 12
M  V30 12 2 11 13
M  V30 13 1 11 14
M  V30 14 3 12 15
M  V30 15 1 14 16
M  V30 16 1 6 8
M  V30 17 1 7 10
M  V30 18 1 2 17
M  V30 19 1 4 18
M  V30 20 1 6 19
M  V30 21 1 7 20
M  V30 22 1 7 21
M  V30 23 1 8 22
M  V30 24 1 8 23
M  V30 25 1 10 24
M  V30 26 1 14 25
M  V30 27 1 16 26
M  V30 28 1 16 27
M  V30 29 1 16 28
M  V30 END BOND
M  V30 BEGIN COLLECTION
M  V30 MDLV30/STEABS ATOMS=(4 2 4 6 10)
M  V30 END COLLECTION
M  V30 END CTAB
M  END
>  <Structure No>
7811

>  <LogS>
-2.08

>  <MMFF94 Energy>
27.155

$$$$
Compound 7812
Actelion Java MolfileCreator 2.0

  0  0  0  0  0  0              0 V3000
M  V30 BEGIN CTAB
M  V30 COUNTS 23 23 0 0 0
M  V30 BEGIN ATOM
M  V30 1 O 3.0459 1.0145 -0.078 0
M  V30 2 C 1.7609 0.4621 -0.1846 0
M  V30 3 C 4.2042 0.285 0.3136 0
M  V30 4 C 1.4964 -0.8936 0.0867 0
M  V30 5 C 0.7094 1.2954 -0.5827 0
M  V30 6 C 0.1969 -1.3956 -0.0325 0
M  V30 7 C -0.5898 0.7937 -0.701 0
M  V30 8 C -0.8591 -0.5516 -0.4028 0
M  V30 9 C -2.2164 -1.1168 -0.5478 0
M  V30 10 C -3.3129 -0.6208 0.0422 0
M  V30 11 C -3.3071 0.5527 0.9753 0
M  V30 12 H 4.3974 -0.539 -0.4049 0
M  V30 13 H 5.0788 0.9672 0.3152 0
M  V30 14 H 4.07 -0.1236 1.3374 0
M  V30 15 H 2.2868 -1.5675 0.3873 0
M  V30 16 H 0.9026 2.3358 -0.8117 0
M  V30 17 H 0.0121 -2.4424 0.1764 0
M  V30 18 H -1.3748 1.4494 -1.0528 0
M  V30 19 H -2.3148 -2.0438 -1.0997 0
M  V30 20 H -4.25 -1.146 -0.0978 0
M  V30 21 H -4.29 0.6225 1.4865 0
M  V30 22 H -3.1466 1.4947 0.4142 0
M  V30 23 H -2.518 0.4299 1.7471 0
M  V30 END ATOM
M  V30 BEGIN BOND
M  V30 1 1 1 2
M  V30 2 1 1 3
M  V30 3 2 2 4
M  V30 4 1 2 5
M  V30 5 1 4 6
M  V30 6 2 5 7
M  V30 7 2 6 8
M  V30 8 1 8 9
M  V30 9 2 9 10
M  V30 10 1 10 11
M  V30 11 1 7 8
M  V30 12 1 3 12
M  V30 13 1 3 13
M  V30 14 1 3 14
M  V30 15 1 4 15
M  V30 16 1 5 16
M  V30 17 1 6 17
M  V30 18 1 7 18
M  V30 19 1 9 19
M  V30 20 1 10 20
M  V30 21 1 11 21
M  V30 22 1 11 22
M  V30 23 1 11 23
M  V30 END BOND
M  V30 END CTAB
M  END
>  <Structure No>
7812

>  <LogS>
-3.13

>  <MMFF94 Energy>
26.325

$$$$
Compound 7813
Actelion Java MolfileCreator 2.0

  0  0  0  0  0  0              0 V3000
M  V30 BEGIN CTAB
M  V30 COUNTS 32 33 0 0 0
M  V30 BEGIN ATOM
M  V30 1 O -3.9611 1.187 0.0791 0
M  V30 2 C -2.8086 0.6824 0.1976 0
M  V30 3 N -1.7789 1.4378 0.7328 0
M  V30 4 N -2.5921 -0.615 -0.2108 0
M  V30 5 C -0.5125 0.909 0.8398 0
M  V30 6 C -2.0231 2.8374 1.1216 0
M  V30 7 C -1.3444 -1.1346 -0.0542 0
M  V30 8 C -3.6895 -1.4356 -0.7409 0
M  V30 9 O 0.4441 1.6023 1.2796 0
M  V30 10 C -0.3137 -0.4121 0.4471 0
M  V30 11 N -0.9446 -2.3788 -0.3821 0
M  V30 12 N 0.7907 -1.1853 0.4569 0
M  V30 13 C 0.3721 -2.3696 -0.0549 0
M  V30 14 C 2.1636 -0.8691 0.8623 0
M  V30 15 C 3.0475 -0.5476 -0.3586 0 CFG=2
M  V30 16 O 4.3969 -0.4761 0.0295 0
M  V30 17 C 2.6201 0.7516 -1.0645 0
M  V30 18 O 3.4244 0.9829 -2.1897 0
M  V30 19 H -1.336 3.159 1.9331 0
M  V30 20 H -3.0534 2.9706 1.5152 0
M  V30 21 H -1.8803 3.4982 0.2409 0
M  V30 22 H -4.3392 -0.8328 -1.4109 0
M  V30 23 H -4.2977 -1.8306 0.0999 0
M  V30 24 H -3.3073 -2.2883 -1.3411 0
M  V30 25 H 1.0217 -3.2236 -0.1969 0
M  V30 26 H 2.1846 -0.0368 1.5938 0
M  V30 27 H 2.5907 -1.7526 1.3855 0
M  V30 28 H 2.9516 -1.3829 -1.086 0
M  V30 29 H 4.4824 0.2709 0.6787 0
M  V30 30 H 2.6736 1.6153 -0.3625 0
M  V30 31 H 1.5691 0.6599 -1.4092 0
M  V30 32 H 4.2586 1.4101 -1.8628 0
M  V30 END ATOM
M  V30 BEGIN BOND
M  V30 1 2 1 2
M  V30 2 1 2 3
M  V30 3 1 2 4
M  V30 4 1 3 5
M  V30 5 1 3 6
M  V30 6 1 4 7
M  V30 7 1 4 8
M  V30 8 2 5 9
M  V30 9 1 5 10
M  V30 10 1 7 11
M  V30 11 1 10 12
M  V30 12 2 11 13
M  V30 13 1 12 14
M  V30 14 1 14 15
M  V30 15 1 15 16
M  V30 16 1 15 17
M  V30 17 1 17 18
M  V30 18 2 7 10
M  V30 19 1 12 13
M  V30 20 1 6 19
M  V30 21 1 6 20
M  V30 22 1 6 21
M  V30 23 1 8 22
M  V30 24 1 8 23
M  V30 25 1 8 24
M  V30 26 1 13 25
M  V30 27 1 14 26
M  V30 28 1 14 27
M  V30 29 1 15 28
M  V30 30 1 16 29
M  V30 31 1 17 30
M  V30 32 1 17 31
M  V30 33 1 18 32
M  V30 END BOND
M  V30 BEGIN COLLECTION
M  V30 MDLV30/STEABS ATOMS=(1 15)
M  V30 END COLLECTION
M  V30 END CTAB
M  END
>  <Structure No>
7813

>  <LogS>
-0.17

>  <MMFF94 Energy>
-101.84

$$$$
Compound 7814
Actelion Java MolfileCreator 2.0

  0  0  0  0  0  0              0 V3000
M  V30 BEGIN CTAB
M  V30 COUNTS 27 26 0 0 0
M  V30 BEGIN ATOM
M  V30 1 O 0.8519 1.937 -0.8519 0
M  V30 2 C 1.7378 1.7369 0.0172 0
M  V30 3 C 2.3315 0.4086 0.2774 0
M  V30 4 C 1.9368 -0.7881 -0.2127 0
M  V30 5 C 0.7325 -1.0017 -1.1109 0
M  V30 6 C 2.7103 -2.0057 0.221 0
M  V30 7 C -0.5257 -1.362 -0.3073 0
M  V30 8 C -1.0083 -0.216 0.548 0
M  V30 9 C -1.8687 0.7394 0.1328 0
M  V30 10 C -2.2279 1.847 1.0891 0
M  V30 11 C -2.4732 0.7245 -1.2511 0
M  V30 12 H 2.1022 2.5811 0.5873 0
M  V30 13 H 3.1793 0.422 0.9533 0
M  V30 14 H 0.9497 -1.8552 -1.789 0
M  V30 15 H 0.5488 -0.1582 -1.7995 0
M  V30 16 H 3.7632 -1.9249 -0.1232 0
M  V30 17 H 2.6942 -2.0887 1.3288 0
M  V30 18 H 2.2763 -2.9378 -0.1985 0
M  V30 19 H -1.3247 -1.7046 -0.9976 0
M  V30 20 H -0.2983 -2.2243 0.3562 0
M  V30 21 H -0.6076 -0.1587 1.5573 0
M  V30 22 H -2.9417 2.5665 0.6367 0
M  V30 23 H -1.3112 2.403 1.3797 0
M  V30 24 H -2.6969 1.4191 2.0004 0
M  V30 25 H -3.1184 1.611 -1.4224 0
M  V30 26 H -1.6738 0.735 -2.02 0
M  V30 27 H -3.1008 -0.1817 -1.3802 0
M  V30 END ATOM
M  V30 BEGIN BOND
M  V30 1 2 1 2
M  V30 2 1 2 3
M  V30 3 2 3 4
M  V30 4 1 4 5
M  V30 5 1 4 6
M  V30 6 1 5 7
M  V30 7 1 7 8
M  V30 8 2 8 9
M  V30 9 1 9 10
M  V30 10 1 9 11
M  V30 11 1 2 12
M  V30 12 1 3 13
M  V30 13 1 5 14
M  V30 14 1 5 15
M  V30 15 1 6 16
M  V30 16 1 6 17
M  V30 17 1 6 18
M  V30 18 1 7 19
M  V30 19 1 7 20
M  V30 20 1 8 21
M  V30 21 1 10 22
M  V30 22 1 10 23
M  V30 23 1 10 24
M  V30 24 1 11 25
M  V30 25 1 11 26
M  V30 26 1 11 27
M  V30 END BOND
M  V30 END CTAB
M  END
>  <Structure No>
7814

>  <LogS>
-2.06

>  <MMFF94 Energy>
25.981

$$$$
Compound 7815
Actelion Java MolfileCreator 2.0

  0  0  0  0  0  0              0 V3000
M  V30 BEGIN CTAB
M  V30 COUNTS 27 27 0 0 0
M  V30 BEGIN ATOM
M  V30 1 O 2.1305 -1.8147 1.6568 0
M  V30 2 C 1.4997 -1.1884 0.8184 0
M  V30 3 C 2.2309 -0.3704 -0.2195 0 CFG=1
M  V30 4 C -0.0022 -1.2726 0.7944 0
M  V30 5 C 1.2809 0.0162 -1.3714 0
M  V30 6 C 2.8767 0.8641 0.421 0
M  V30 7 C -0.5954 0.1032 0.4317 0 CFG=1
M  V30 8 C -0.0264 0.6846 -0.8959 0
M  V30 9 C -2.118 0.0587 0.4218 0
M  V30 10 C -2.782 -0.7255 -0.4442 0
M  V30 11 C -2.9099 0.8948 1.394 0
M  V30 12 H 3.0424 -0.9981 -0.6499 0
M  V30 13 H -0.3015 -2.0414 0.0508 0
M  V30 14 H -0.378 -1.5864 1.7935 0
M  V30 15 H 1.0176 -0.9088 -1.931 0
M  V30 16 H 1.8015 0.6861 -2.09 0
M  V30 17 H 3.6075 0.5522 1.1975 0
M  V30 18 H 3.4211 1.4529 -0.3476 0
M  V30 19 H 2.1117 1.5146 0.8952 0
M  V30 20 H -0.2729 0.7942 1.2427 0
M  V30 21 H 0.1579 1.7726 -0.757 0
M  V30 22 H -0.7656 0.6017 -1.722 0
M  V30 23 H -3.8677 -0.7569 -0.446 0
M  V30 24 H -2.2528 -1.3406 -1.1649 0
M  V30 25 H -2.2505 1.498 2.0517 0
M  V30 26 H -3.5734 1.5899 0.8368 0
M  V30 27 H -3.5318 0.2354 2.0358 0
M  V30 END ATOM
M  V30 BEGIN BOND
M  V30 1 2 1 2
M  V30 2 1 2 3
M  V30 3 1 2 4
M  V30 4 1 3 5
M  V30 5 1 3 6
M  V30 6 1 4 7
M  V30 7 1 5 8
M  V30 8 1 7 9
M  V30 9 2 9 10
M  V30 10 1 9 11
M  V30 11 1 7 8
M  V30 12 1 3 12
M  V30 13 1 4 13
M  V30 14 1 4 14
M  V30 15 1 5 15
M  V30 16 1 5 16
M  V30 17 1 6 17
M  V30 18 1 6 18
M  V30 19 1 6 19
M  V30 20 1 7 20
M  V30 21 1 8 21
M  V30 22 1 8 22
M  V30 23 1 10 23
M  V30 24 1 10 24
M  V30 25 1 11 25
M  V30 26 1 11 26
M  V30 27 1 11 27
M  V30 END BOND
M  V30 BEGIN COLLECTION
M  V30 MDLV30/STEABS ATOMS=(2 3 7)
M  V30 END COLLECTION
M  V30 END CTAB
M  END
>  <Structure No>
7815

>  <LogS>
-2.18

>  <MMFF94 Energy>
18.463

$$$$
Compound 7816
Actelion Java MolfileCreator 2.0

  0  0  0  0  0  0              0 V3000
M  V30 BEGIN CTAB
M  V30 COUNTS 28 28 0 0 0
M  V30 BEGIN ATOM
M  V30 1 O -2.5138 -0.5672 -2.108 0
M  V30 2 C -2.0992 0.1433 -1.153 0
M  V30 3 O -2.6962 1.3784 -0.9291 0 CHG=-1
M  V30 4 C -1.0305 -0.3711 -0.198 0 CFG=2
M  V30 5 C 0.1666 0.6306 0.0131 0
M  V30 6 C -0.3307 -1.6394 -0.7438 0
M  V30 7 C -1.7537 -0.7415 1.1236 0
M  V30 8 C 1.3031 -0.3008 0.5212 0 CFG=1
M  V30 9 C 0.5674 1.3168 -1.3277 0
M  V30 10 C -0.1215 1.7446 1.0504 0
M  V30 11 C 1.086 -1.6577 -0.1654 0
M  V30 12 C 2.7053 0.2426 0.3684 0
M  V30 13 O 3.3417 0.1089 -0.7109 0
M  V30 14 O 3.2855 0.9461 1.4165 0 CHG=-1
M  V30 15 H -0.2486 -1.5978 -1.8528 0
M  V30 16 H -0.8777 -2.5741 -0.4881 0
M  V30 17 H -1.0475 -1.1333 1.8845 0
M  V30 18 H -2.518 -1.5277 0.9385 0
M  V30 19 H -2.2852 0.1356 1.5502 0
M  V30 20 H 1.1587 -0.4739 1.6116 0
M  V30 21 H -0.253 1.9557 -1.7147 0
M  V30 22 H 1.442 1.987 -1.1894 0
M  V30 23 H 0.8249 0.5673 -2.1051 0
M  V30 24 H -0.3021 1.3301 2.0641 0
M  V30 25 H 0.7485 2.4309 1.1307 0
M  V30 26 H -1.0047 2.3452 0.751 0
M  V30 27 H 1.1885 -2.4818 0.5748 0
M  V30 28 H 1.8156 -1.8399 -0.9843 0
M  V30 END ATOM
M  V30 BEGIN BOND
M  V30 1 2 1 2
M  V30 2 1 2 3
M  V30 3 1 2 4
M  V30 4 1 4 5
M  V30 5 1 4 6
M  V30 6 1 4 7
M  V30 7 1 5 8
M  V30 8 1 5 9
M  V30 9 1 5 10
M  V30 10 1 6 11
M  V30 11 1 8 12
M  V30 12 2 12 13
M  V30 13 1 12 14
M  V30 14 1 8 11
M  V30 15 1 6 15
M  V30 16 1 6 16
M  V30 17 1 7 17
M  V30 18 1 7 18
M  V30 19 1 7 19
M  V30 20 1 8 20
M  V30 21 1 9 21
M  V30 22 1 9 22
M  V30 23 1 9 23
M  V30 24 1 10 24
M  V30 25 1 10 25
M  V30 26 1 10 26
M  V30 27 1 11 27
M  V30 28 1 11 28
M  V30 END BOND
M  V30 BEGIN COLLECTION
M  V30 MDLV30/STEABS ATOMS=(2 4 8)
M  V30 END COLLECTION
M  V30 END CTAB
M  END
>  <Structure No>
7816

>  <LogS>
-1.42

>  <MMFF94 Energy>
102.88

$$$$
Compound 7817
Actelion Java MolfileCreator 2.0

  0  0  0  0  0  0              0 V3000
M  V30 BEGIN CTAB
M  V30 COUNTS 28 30 0 0 0
M  V30 BEGIN ATOM
M  V30 1 O 0.24 -2.4822 0.8002 0
M  V30 2 C 0.2347 -1.5612 -0.2596 0 CFG=1
M  V30 3 N -0.975 -0.7357 -0.2018 0
M  V30 4 C 1.4838 -0.7044 -0.2106 0
M  V30 5 C -0.9758 0.6268 0.1635 0
M  V30 6 C -2.3345 -1.2361 -0.2709 0
M  V30 7 C 1.4011 0.672 0.1071 0
M  V30 8 C 2.7396 -1.2884 -0.4381 0
M  V30 9 N 0.1243 1.2966 0.3276 0 CHG=1
M  V30 10 C -2.3378 1.1776 0.3384 0 CFG=2
M  V30 11 C -3.2461 -0.0119 -0.0436 0
M  V30 12 C 2.5753 1.4349 0.1902 0
M  V30 13 C 3.901 -0.5161 -0.3558 0
M  V30 14 O -2.532 2.263 -0.5275 0
M  V30 15 C 3.8192 0.842 -0.0411 0
M  V30 16 H 0.1744 -1.9599 1.6428 0
M  V30 17 H 0.2286 -2.126 -1.2163 0
M  V30 18 H -2.4981 -1.9909 0.5282 0
M  V30 19 H -2.5214 -1.6945 -1.2656 0
M  V30 20 H 2.8173 -2.3425 -0.6738 0
M  V30 21 H 0.0788 2.305 0.6 0
M  V30 22 H -2.4868 1.4771 1.4011 0
M  V30 23 H -3.9754 -0.217 0.7699 0
M  V30 24 H -3.8125 0.2079 -0.9754 0
M  V30 25 H 2.5255 2.4895 0.4299 0
M  V30 26 H 4.8665 -0.9722 -0.5327 0
M  V30 27 H -3.3862 2.6878 -0.2534 0
M  V30 28 H 4.7213 1.4366 0.0231 0
M  V30 END ATOM
M  V30 BEGIN BOND
M  V30 1 1 1 2
M  V30 2 1 2 3
M  V30 3 1 2 4
M  V30 4 1 3 5
M  V30 5 1 3 6
M  V30 6 2 4 7
M  V30 7 1 4 8
M  V30 8 2 5 9
M  V30 9 1 5 10
M  V30 10 1 6 11
M  V30 11 1 7 12
M  V30 12 2 8 13
M  V30 13 1 10 14
M  V30 14 2 12 15
M  V30 15 1 7 9
M  V30 16 1 10 11
M  V30 17 1 13 15
M  V30 18 1 1 16
M  V30 19 1 2 17
M  V30 20 1 6 18
M  V30 21 1 6 19
M  V30 22 1 8 20
M  V30 23 1 9 21
M  V30 24 1 10 22
M  V30 25 1 11 23
M  V30 26 1 11 24
M  V30 27 1 12 25
M  V30 28 1 13 26
M  V30 29 1 14 27
M  V30 30 1 15 28
M  V30 END BOND
M  V30 BEGIN COLLECTION
M  V30 MDLV30/STEABS ATOMS=(2 2 10)
M  V30 END COLLECTION
M  V30 END CTAB
M  END
>  <Structure No>
7817

>  <LogS>
-2.07

>  <MMFF94 Energy>
-52.053

$$$$
Compound 7818
Actelion Java MolfileCreator 2.0

  0  0  0  0  0  0              0 V3000
M  V30 BEGIN CTAB
M  V30 COUNTS 27 28 0 0 0
M  V30 BEGIN ATOM
M  V30 1 S -0.2465 -2.1385 -1.2333 0
M  V30 2 O 0.0146 -1.8533 -2.6859 0
M  V30 3 O -0.9102 -3.4802 -1.1061 0
M  V30 4 N 1.2639 -2.1655 -0.3864 0 CHG=-1
M  V30 5 C -1.2999 -0.9088 -0.5415 0
M  V30 6 C 2.0986 -1.0122 -0.2626 0
M  V30 7 C -1.3226 -0.7075 0.8449 0
M  V30 8 C -2.1189 -0.1275 -1.3681 0
M  V30 9 N 1.7361 0.171 -0.8331 0
M  V30 10 C 3.2952 -1.0979 0.4563 0
M  V30 11 C -2.1505 0.2727 1.4004 0
M  V30 12 C -2.9475 0.8525 -0.8129 0
M  V30 13 C 2.5081 1.2851 -0.7246 0
M  V30 14 C 4.1028 0.0349 0.5793 0
M  V30 15 C -2.9664 1.0583 0.5739 0
M  V30 16 C 3.7093 1.2363 -0.0135 0
M  V30 17 N -3.8129 2.0613 1.1415 0
M  V30 18 H -0.6984 -1.3071 1.4952 0
M  V30 19 H -2.1174 -0.2746 -2.4404 0
M  V30 20 H 3.5955 -2.031 0.916 0
M  V30 21 H -2.1564 0.4199 2.4731 0
M  V30 22 H -3.5742 1.4508 -1.4624 0
M  V30 23 H 2.189 2.2081 -1.1897 0
M  V30 24 H 5.0309 -0.0178 1.1335 0
M  V30 25 H 4.3282 2.1197 0.0765 0
M  V30 26 H -4.4245 2.6512 0.5342 0
M  V30 27 H -3.8341 2.2217 2.1735 0
M  V30 END ATOM
M  V30 BEGIN BOND
M  V30 1 2 1 2
M  V30 2 2 1 3
M  V30 3 1 1 4
M  V30 4 1 1 5
M  V30 5 1 4 6
M  V30 6 2 5 7
M  V30 7 1 5 8
M  V30 8 2 6 9
M  V30 9 1 6 10
M  V30 10 1 7 11
M  V30 11 2 8 12
M  V30 12 1 9 13
M  V30 13 2 10 14
M  V30 14 2 11 15
M  V30 15 2 13 16
M  V30 16 1 15 17
M  V30 17 1 12 15
M  V30 18 1 14 16
M  V30 19 1 7 18
M  V30 20 1 8 19
M  V30 21 1 10 20
M  V30 22 1 11 21
M  V30 23 1 12 22
M  V30 24 1 13 23
M  V30 25 1 14 24
M  V30 26 1 16 25
M  V30 27 1 17 26
M  V30 28 1 17 27
M  V30 END BOND
M  V30 END CTAB
M  END
>  <Structure No>
7818

>  <LogS>
-2.7

>  <MMFF94 Energy>
49.637

$$$$
Compound 7819
Actelion Java MolfileCreator 2.0

  0  0  0  0  0  0              0 V3000
M  V30 BEGIN CTAB
M  V30 COUNTS 30 31 0 0 0
M  V30 BEGIN ATOM
M  V30 1 S 0.4905 -1.7178 -2.0453 0
M  V30 2 O 0.7759 -3.1852 -2.1968 0
M  V30 3 O 0.4744 -1.0873 -3.4098 0
M  V30 4 N -1.0546 -1.5095 -1.2977 0 CHG=-1
M  V30 5 C 1.7358 -0.9897 -1.0358 0
M  V30 6 C -1.5566 -0.2146 -0.9701 0
M  V30 7 C 2.3725 0.1959 -1.4292 0
M  V30 8 C 2.0744 -1.5842 0.1867 0
M  V30 9 O -0.9294 0.9134 -1.2076 0
M  V30 10 C -2.7558 0.053 -0.352 0
M  V30 11 C 3.3455 0.7765 -0.6097 0
M  V30 12 C 3.0476 -1.0041 1.0061 0
M  V30 13 N -1.6226 1.928 -0.7739 0
M  V30 14 C -2.752 1.4297 -0.2282 0
M  V30 15 C -3.7533 -0.9233 0.1843 0
M  V30 16 C 3.6884 0.179 0.6114 0
M  V30 17 C -3.8157 2.2682 0.4015 0
M  V30 18 N 4.6825 0.7734 1.4499 0
M  V30 19 H 2.1148 0.6749 -2.3649 0
M  V30 20 H 1.5824 -2.4943 0.5062 0
M  V30 21 H 3.8301 1.6921 -0.9249 0
M  V30 22 H 3.3002 -1.4743 1.9481 0
M  V30 23 H -3.5214 -1.1419 1.2473 0
M  V30 24 H -3.7177 -1.8671 -0.3991 0
M  V30 25 H -4.7773 -0.5007 0.1124 0
M  V30 26 H -4.7499 2.1929 -0.1931 0
M  V30 27 H -4.0087 1.9143 1.4357 0
M  V30 28 H -3.4951 3.3306 0.4385 0
M  V30 29 H 5.1644 1.6552 1.1651 0
M  V30 30 H 4.9437 0.3363 2.3619 0
M  V30 END ATOM
M  V30 BEGIN BOND
M  V30 1 2 1 2
M  V30 2 2 1 3
M  V30 3 1 1 4
M  V30 4 1 1 5
M  V30 5 1 4 6
M  V30 6 2 5 7
M  V30 7 1 5 8
M  V30 8 1 6 9
M  V30 9 2 6 10
M  V30 10 1 7 11
M  V30 11 2 8 12
M  V30 12 1 9 13
M  V30 13 1 10 14
M  V30 14 1 10 15
M  V30 15 2 11 16
M  V30 16 1 14 17
M  V30 17 1 16 18
M  V30 18 1 12 16
M  V30 19 2 13 14
M  V30 20 1 7 19
M  V30 21 1 8 20
M  V30 22 1 11 21
M  V30 23 1 12 22
M  V30 24 1 15 23
M  V30 25 1 15 24
M  V30 26 1 15 25
M  V30 27 1 17 26
M  V30 28 1 17 27
M  V30 29 1 17 28
M  V30 30 1 18 29
M  V30 31 1 18 30
M  V30 END BOND
M  V30 END CTAB
M  END
>  <Structure No>
7819

>  <LogS>
-2.91

>  <MMFF94 Energy>
59.316

$$$$
Compound 7820
Actelion Java MolfileCreator 2.0

  0  0  0  0  0  0              0 V3000
M  V30 BEGIN CTAB
M  V30 COUNTS 29 31 0 0 0
M  V30 BEGIN ATOM
M  V30 1 O 2.2454 2.4862 -1.1222 0
M  V30 2 C 2.1197 1.2576 -0.8621 0
M  V30 3 N 1.0834 0.809 -0.0766 0
M  V30 4 C 3.0576 0.3632 -1.3843 0
M  V30 5 C 0.9853 -0.5356 0.2334 0
M  V30 6 C 0.1553 1.8084 0.5061 0
M  V30 7 C 2.9528 -0.9916 -1.0956 0
M  V30 8 C 1.9174 -1.4461 -0.2879 0
M  V30 9 C -0.1712 -1.0829 1.0563 0 CFG=2
M  V30 10 C -1.1297 1.1728 1.0685 0 CFG=2
M  V30 11 C -1.2974 -1.6153 0.1231 0
M  V30 12 C -0.7135 0.0103 1.9717 0
M  V30 13 C -2.0678 0.7044 -0.0882 0
M  V30 14 N -2.4619 -0.709 0.0374 0 CHG=1
M  V30 15 H 3.8685 0.719 -2.0082 0
M  V30 16 H 0.6803 2.345 1.3272 0
M  V30 17 H -0.126 2.5705 -0.2548 0
M  V30 18 H 3.6744 -1.6904 -1.4988 0
M  V30 19 H 1.8349 -2.5048 -0.0739 0
M  V30 20 H 0.1979 -1.916 1.6956 0
M  V30 21 H -1.6614 1.9303 1.6863 0
M  V30 22 H -0.9036 -1.8124 -0.9002 0
M  V30 23 H -1.6431 -2.5991 0.5118 0
M  V30 24 H -1.5762 -0.3617 2.5663 0
M  V30 25 H 0.067 0.3312 2.6981 0
M  V30 26 H -2.9832 1.337 -0.0872 0
M  V30 27 H -1.5889 0.8541 -1.0828 0
M  V30 28 H -3.0312 -0.9733 -0.8004 0
M  V30 29 H -3.0741 -0.8306 0.8781 0
M  V30 END ATOM
M  V30 BEGIN BOND
M  V30 1 2 1 2
M  V30 2 1 2 3
M  V30 3 1 2 4
M  V30 4 1 3 5
M  V30 5 1 3 6
M  V30 6 2 4 7
M  V30 7 2 5 8
M  V30 8 1 5 9
M  V30 9 1 6 10
M  V30 10 1 9 11
M  V30 11 1 9 12
M  V30 12 1 10 13
M  V30 13 1 11 14
M  V30 14 1 7 8
M  V30 15 1 10 12
M  V30 16 1 13 14
M  V30 17 1 4 15
M  V30 18 1 6 16
M  V30 19 1 6 17
M  V30 20 1 7 18
M  V30 21 1 8 19
M  V30 22 1 9 20
M  V30 23 1 10 21
M  V30 24 1 11 22
M  V30 25 1 11 23
M  V30 26 1 12 24
M  V30 27 1 12 25
M  V30 28 1 13 26
M  V30 29 1 13 27
M  V30 30 1 14 28
M  V30 31 1 14 29
M  V30 END BOND
M  V30 BEGIN COLLECTION
M  V30 MDLV30/STEABS ATOMS=(2 9 10)
M  V30 END COLLECTION
M  V30 END CTAB
M  END
>  <Structure No>
7820

>  <LogS>
0.36

>  <MMFF94 Energy>
21.541

$$$$
Compound 7821
Actelion Java MolfileCreator 2.0

  0  0  0  0  0  0              0 V3000
M  V30 BEGIN CTAB
M  V30 COUNTS 32 32 0 0 0
M  V30 BEGIN ATOM
M  V30 1 O 3.1274 0.8592 0.5467 0
M  V30 2 C 3.6909 -0.0508 -0.121 0
M  V30 3 O 3.0815 -1.3012 -0.2869 0
M  V30 4 N 4.9933 0.1662 -0.671 0
M  V30 5 C 1.726 -1.5806 -0.0568 0
M  V30 6 C 5.6929 1.4357 -0.5197 0
M  V30 7 C 0.7174 -0.6151 -0.2384 0
M  V30 8 C 1.3695 -2.878 0.3248 0
M  V30 9 C -0.6301 -0.9297 0.0036 0
M  V30 10 C 0.0316 -3.2074 0.5486 0
M  V30 11 N -1.6354 0.0811 -0.2093 0 CHG=1
M  V30 12 C -0.9659 -2.2428 0.3889 0
M  V30 13 C -2.7575 0.1257 0.4568 0
M  V30 14 N -3.7449 1.1542 0.2359 0
M  V30 15 C -4.9455 1.1364 1.0743 0
M  V30 16 C -3.5807 2.1799 -0.8001 0
M  V30 17 H 5.4532 -0.6076 -1.2011 0
M  V30 18 H 6.6797 1.3852 -1.0264 0
M  V30 19 H 5.0954 2.252 -0.9777 0
M  V30 20 H 5.853 1.6516 0.5575 0
M  V30 21 H 0.9695 0.3773 -0.5872 0
M  V30 22 H 2.1344 -3.6341 0.4497 0
M  V30 23 H -0.2343 -4.2161 0.8376 0
M  V30 24 H -1.4058 0.8321 -0.8965 0
M  V30 25 H -1.9965 -2.5364 0.5351 0
M  V30 26 H -2.958 -0.6105 1.2263 0
M  V30 27 H -5.4876 0.1779 0.9305 0
M  V30 28 H -5.6368 1.9686 0.8248 0
M  V30 29 H -4.6566 1.234 2.1423 0
M  V30 30 H -3.4665 1.6965 -1.7933 0
M  V30 31 H -2.6858 2.7986 -0.5783 0
M  V30 32 H -4.459 2.857 -0.8506 0
M  V30 END ATOM
M  V30 BEGIN BOND
M  V30 1 2 1 2
M  V30 2 1 2 3
M  V30 3 1 2 4
M  V30 4 1 3 5
M  V30 5 1 4 6
M  V30 6 2 5 7
M  V30 7 1 5 8
M  V30 8 1 7 9
M  V30 9 2 8 10
M  V30 10 1 9 11
M  V30 11 2 9 12
M  V30 12 2 11 13
M  V30 13 1 13 14
M  V30 14 1 14 15
M  V30 15 1 14 16
M  V30 16 1 10 12
M  V30 17 1 4 17
M  V30 18 1 6 18
M  V30 19 1 6 19
M  V30 20 1 6 20
M  V30 21 1 7 21
M  V30 22 1 8 22
M  V30 23 1 10 23
M  V30 24 1 11 24
M  V30 25 1 12 25
M  V30 26 1 13 26
M  V30 27 1 15 27
M  V30 28 1 15 28
M  V30 29 1 15 29
M  V30 30 1 16 30
M  V30 31 1 16 31
M  V30 32 1 16 32
M  V30 END BOND
M  V30 END CTAB
M  END
>  <Structure No>
7821

>  <LogS>
-2.34

>  <MMFF94 Energy>
-29.863

$$$$
Compound 7822
Actelion Java MolfileCreator 2.0

  0  0  0  0  0  0              0 V3000
M  V30 BEGIN CTAB
M  V30 COUNTS 33 33 0 0 0
M  V30 BEGIN ATOM
M  V30 1 O -1.1818 -1.4971 1.2606 0
M  V30 2 C -0.7519 -0.5574 0.5367 0
M  V30 3 O 0.6154 -0.4439 0.262 0
M  V30 4 N -1.6586 0.3885 -0.0453 0
M  V30 5 C 1.5971 -1.3671 0.7347 0 CFG=2
M  V30 6 C -3.0518 0.4934 0.2959 0
M  V30 7 C 2.9586 -0.7462 0.6077 0
M  V30 8 C 1.5391 -2.668 -0.0693 0
M  V30 9 C -3.9739 0.8803 -0.6896 0
M  V30 10 C -3.5057 0.2764 1.6108 0
M  V30 11 O 3.775 -0.8443 1.5641 0
M  V30 12 N 3.3432 -0.0814 -0.6055 0
M  V30 13 C -5.3308 1.011 -0.3777 0
M  V30 14 C -4.8637 0.4093 1.9189 0
M  V30 15 C 4.6494 0.5514 -0.7757 0
M  V30 16 C -5.7761 0.7716 0.9248 0
M  V30 17 C 4.7133 1.8657 -0.0051 0
M  V30 18 H -1.2955 0.977 -0.8289 0
M  V30 19 H 1.4063 -1.5933 1.8082 0
M  V30 20 H 0.5547 -3.1613 0.0695 0
M  V30 21 H 1.6832 -2.4636 -1.1518 0
M  V30 22 H 2.3297 -3.368 0.2764 0
M  V30 23 H -3.641 1.0707 -1.7022 0
M  V30 24 H -2.8127 0.032 2.4045 0
M  V30 25 H 2.6882 -0.0914 -1.4198 0
M  V30 26 H -6.0368 1.3003 -1.1455 0
M  V30 27 H -5.2073 0.2403 2.9314 0
M  V30 28 H 5.4533 -0.1346 -0.4316 0
M  V30 29 H 4.8167 0.7624 -1.8541 0
M  V30 30 H -6.8263 0.8755 1.1656 0
M  V30 31 H 4.5989 1.6848 1.0841 0
M  V30 32 H 3.9064 2.5476 -0.3484 0
M  V30 33 H 5.6946 2.3538 -0.1826 0
M  V30 END ATOM
M  V30 BEGIN BOND
M  V30 1 2 1 2
M  V30 2 1 2 3
M  V30 3 1 2 4
M  V30 4 1 3 5
M  V30 5 1 4 6
M  V30 6 1 5 7
M  V30 7 1 5 8
M  V30 8 2 6 9
M  V30 9 1 6 10
M  V30 10 2 7 11
M  V30 11 1 7 12
M  V30 12 1 9 13
M  V30 13 2 10 14
M  V30 14 1 12 15
M  V30 15 2 13 16
M  V30 16 1 15 17
M  V30 17 1 14 16
M  V30 18 1 4 18
M  V30 19 1 5 19
M  V30 20 1 8 20
M  V30 21 1 8 21
M  V30 22 1 8 22
M  V30 23 1 9 23
M  V30 24 1 10 24
M  V30 25 1 12 25
M  V30 26 1 13 26
M  V30 27 1 14 27
M  V30 28 1 15 28
M  V30 29 1 15 29
M  V30 30 1 16 30
M  V30 31 1 17 31
M  V30 32 1 17 32
M  V30 33 1 17 33
M  V30 END BOND
M  V30 BEGIN COLLECTION
M  V30 MDLV30/STEABS ATOMS=(1 5)
M  V30 END COLLECTION
M  V30 END CTAB
M  END
>  <Structure No>
7822

>  <LogS>
-1.83

>  <MMFF94 Energy>
-38.87

$$$$
Compound 7823
Actelion Java MolfileCreator 2.0

  0  0  0  0  0  0              0 V3000
M  V30 BEGIN CTAB
M  V30 COUNTS 36 37 0 0 0
M  V30 BEGIN ATOM
M  V30 1 S -0.6502 -1.0567 -1.1381 0
M  V30 2 O -0.8881 -0.9068 -2.6146 0
M  V30 3 O -0.342 -2.4993 -0.848 0
M  V30 4 N 0.6896 -0.0471 -0.6692 0
M  V30 5 C -2.086 -0.5934 -0.2315 0
M  V30 6 C 1.7896 -0.6491 0.0304 0
M  V30 7 C 0.6077 1.3864 -0.8004 0
M  V30 8 C -1.9756 -0.2487 1.1221 0
M  V30 9 C -3.3422 -0.568 -0.8523 0
M  V30 10 O 1.6569 -1.5808 0.9457 0
M  V30 11 C 3.134 -0.3773 -0.141 0
M  V30 12 O 1.2836 2.1266 -0.0351 0
M  V30 13 C -0.2886 2.0297 -1.8136 0
M  V30 14 C -3.1102 0.1268 1.8474 0
M  V30 15 C -4.4773 -0.1928 -0.1271 0
M  V30 16 N 2.8165 -1.9428 1.4154 0
M  V30 17 C 3.7495 -1.2079 0.7763 0
M  V30 18 C 3.7824 0.5781 -1.0939 0
M  V30 19 C -4.3668 0.1572 1.2261 0
M  V30 20 C 5.2195 -1.3568 0.9957 0
M  V30 21 N -5.5275 0.542 1.9674 0
M  V30 22 H -1.0118 -0.2682 1.6148 0
M  V30 23 H -3.4449 -0.836 -1.8959 0
M  V30 24 H -0.1048 3.1244 -1.8541 0
M  V30 25 H -1.351 1.8617 -1.5427 0
M  V30 26 H -0.085 1.6061 -2.8182 0
M  V30 27 H -3.0106 0.3939 2.8919 0
M  V30 28 H -5.4418 -0.1751 -0.6188 0
M  V30 29 H 3.1357 0.7357 -1.9818 0
M  V30 30 H 4.7549 0.1703 -1.44 0
M  V30 31 H 3.9572 1.5489 -0.5859 0
M  V30 32 H 5.6649 -1.9223 0.1512 0
M  V30 33 H 5.6956 -0.356 1.0609 0
M  V30 34 H 5.4104 -1.9055 1.9416 0
M  V30 35 H -6.4673 0.5694 1.5125 0
M  V30 36 H -5.4555 0.8027 2.9764 0
M  V30 END ATOM
M  V30 BEGIN BOND
M  V30 1 2 1 2
M  V30 2 2 1 3
M  V30 3 1 1 4
M  V30 4 1 1 5
M  V30 5 1 4 6
M  V30 6 1 4 7
M  V30 7 2 5 8
M  V30 8 1 5 9
M  V30 9 1 6 10
M  V30 10 2 6 11
M  V30 11 2 7 12
M  V30 12 1 7 13
M  V30 13 1 8 14
M  V30 14 2 9 15
M  V30 15 1 10 16
M  V30 16 1 11 17
M  V30 17 1 11 18
M  V30 18 2 14 19
M  V30 19 1 17 20
M  V30 20 1 19 21
M  V30 21 1 15 19
M  V30 22 2 16 17
M  V30 23 1 8 22
M  V30 24 1 9 23
M  V30 25 1 13 24
M  V30 26 1 13 25
M  V30 27 1 13 26
M  V30 28 1 14 27
M  V30 29 1 15 28
M  V30 30 1 18 29
M  V30 31 1 18 30
M  V30 32 1 18 31
M  V30 33 1 20 32
M  V30 34 1 20 33
M  V30 35 1 20 34
M  V30 36 1 21 35
M  V30 37 1 21 36
M  V30 END BOND
M  V30 END CTAB
M  END
>  <Structure No>
7823

>  <LogS>
-3.59

>  <MMFF94 Energy>
-52.992

$$$$
Compound 7824
Actelion Java MolfileCreator 2.0

  0  0  0  0  0  0              0 V3000
M  V30 BEGIN CTAB
M  V30 COUNTS 37 37 0 0 0
M  V30 BEGIN ATOM
M  V30 1 O 2.4141 1.8504 -1.7699 0
M  V30 2 N 2.6421 1.1259 -0.7791 0 CHG=1
M  V30 3 O 3.7762 1.3444 -0.0313 0 CHG=-1
M  V30 4 C 1.7044 0.1074 -0.3941 0
M  V30 5 C 0.3318 0.4304 -0.2717 0
M  V30 6 C 2.1442 -1.2176 -0.181 0
M  V30 7 O -0.0798 1.7611 -0.422 0
M  V30 8 C -0.6312 -0.5811 -0.0086 0
M  V30 9 C 1.2129 -2.1972 0.2244 0
M  V30 10 C 3.5903 -1.5889 -0.4189 0
M  V30 11 C 0.4221 2.8228 0.3406 0
M  V30 12 C -0.1495 -1.8796 0.2731 0
M  V30 13 C -2.1534 -0.2611 0.0292 0
M  V30 14 N 1.6274 -3.5287 0.5802 0 CHG=1
M  V30 15 O 1.1513 2.6074 1.3467 0
M  V30 16 C 0.0124 4.217 0.011 0
M  V30 17 C -2.4662 0.6912 1.2042 0
M  V30 18 C -2.5992 0.3853 -1.3047 0
M  V30 19 C -3.0335 -1.5245 0.2218 0
M  V30 20 O 2.6391 -3.7066 1.2896 0
M  V30 21 O 0.807 -4.6011 0.3144 0 CHG=-1
M  V30 22 H 4.1686 -1.4645 0.5203 0
M  V30 23 H 3.6818 -2.6362 -0.7746 0
M  V30 24 H 4.0438 -0.9631 -1.2151 0
M  V30 25 H -0.8208 -2.6727 0.5601 0
M  V30 26 H -0.2231 4.2951 -1.0708 0
M  V30 27 H 0.8345 4.924 0.2511 0
M  V30 28 H -0.8883 4.4862 0.6008 0
M  V30 29 H -3.5631 0.8381 1.3108 0
M  V30 30 H -2.0771 0.2699 2.1563 0
M  V30 31 H -2.0234 1.6949 1.0603 0
M  V30 32 H -2.186 1.4019 -1.447 0
M  V30 33 H -3.7049 0.4943 -1.3426 0
M  V30 34 H -2.2839 -0.2464 -2.1629 0
M  V30 35 H -2.8543 -1.9909 1.2146 0
M  V30 36 H -2.8385 -2.2687 -0.5805 0
M  V30 37 H -4.1147 -1.2673 0.1821 0
M  V30 END ATOM
M  V30 BEGIN BOND
M  V30 1 2 1 2
M  V30 2 1 2 3
M  V30 3 1 2 4
M  V30 4 2 4 5
M  V30 5 1 4 6
M  V30 6 1 5 7
M  V30 7 1 5 8
M  V30 8 2 6 9
M  V30 9 1 6 10
M  V30 10 1 7 11
M  V30 11 2 8 12
M  V30 12 1 8 13
M  V30 13 1 9 14
M  V30 14 2 11 15
M  V30 15 1 11 16
M  V30 16 1 13 17
M  V30 17 1 13 18
M  V30 18 1 13 19
M  V30 19 2 14 20
M  V30 20 1 14 21
M  V30 21 1 9 12
M  V30 22 1 10 22
M  V30 23 1 10 23
M  V30 24 1 10 24
M  V30 25 1 12 25
M  V30 26 1 16 26
M  V30 27 1 16 27
M  V30 28 1 16 28
M  V30 29 1 17 29
M  V30 30 1 17 30
M  V30 31 1 17 31
M  V30 32 1 18 32
M  V30 33 1 18 33
M  V30 34 1 18 34
M  V30 35 1 19 35
M  V30 36 1 19 36
M  V30 37 1 19 37
M  V30 END BOND
M  V30 END CTAB
M  END
>  <Structure No>
7824

>  <LogS>
-4.47

>  <MMFF94 Energy>
103.01

$$$$
Compound 7825
Actelion Java MolfileCreator 2.0

  0  0  0  0  0  0              0 V3000
M  V30 BEGIN CTAB
M  V30 COUNTS 41 40 0 0 0
M  V30 BEGIN ATOM
M  V30 1 O 5.6967 -1.3243 -1.7141 0
M  V30 2 C 5.2929 -0.1433 -1.5305 0
M  V30 3 O 6.2031 0.9045 -1.3662 0
M  V30 4 C 3.826 0.1346 -1.4385 0
M  V30 5 C 7.6112 0.71 -1.4149 0
M  V30 6 C 3.3507 0.0158 0.0154 0
M  V30 7 C 1.8812 0.4295 0.1956 0
M  V30 8 C 0.9011 -0.6082 -0.3789 0
M  V30 9 C -0.5693 -0.2095 -0.1702 0
M  V30 10 C -1.0506 -0.4605 1.2696 0
M  V30 11 C -2.5083 -0.0239 1.4873 0
M  V30 12 C -3.5155 -0.9344 0.7634 0
M  V30 13 C -4.9678 -0.6937 1.2135 0
M  V30 14 C -5.5012 0.7231 0.9363 0
M  V30 15 C -5.537 1.0677 -0.552 0
M  V30 16 H 3.6296 1.1603 -1.8188 0
M  V30 17 H 3.2821 -0.5862 -2.0842 0
M  V30 18 H 8.1192 1.6839 -1.26 0
M  V30 19 H 7.905 0.3042 -2.4059 0
M  V30 20 H 7.9259 0.0086 -0.6133 0
M  V30 21 H 3.9746 0.6837 0.6502 0
M  V30 22 H 3.4972 -1.0252 0.3786 0
M  V30 23 H 1.7083 1.4198 -0.2797 0
M  V30 24 H 1.6988 0.5444 1.2843 0
M  V30 25 H 1.0707 -0.6981 -1.4724 0
M  V30 26 H 1.0902 -1.606 0.0742 0
M  V30 27 H -1.183 -0.8196 -0.8661 0
M  V30 28 H -0.7139 0.859 -0.4422 0
M  V30 29 H -0.9381 -1.5367 1.5256 0
M  V30 30 H -0.4207 0.1189 1.976 0
M  V30 31 H -2.7153 -0.0533 2.5796 0
M  V30 32 H -2.6291 1.0269 1.1471 0
M  V30 33 H -3.4381 -0.8004 -0.3349 0
M  V30 34 H -3.2673 -1.9957 0.983 0
M  V30 35 H -5.6242 -1.4313 0.7024 0
M  V30 36 H -5.0454 -0.8944 2.3043 0
M  V30 37 H -6.5383 0.7843 1.3316 0
M  V30 38 H -4.9009 1.4809 1.4822 0
M  V30 39 H -6.0696 0.2771 -1.122 0
M  V30 40 H -4.5084 1.1859 -0.9512 0
M  V30 41 H -6.0735 2.0292 -0.695 0
M  V30 END ATOM
M  V30 BEGIN BOND
M  V30 1 2 1 2
M  V30 2 1 2 3
M  V30 3 1 2 4
M  V30 4 1 3 5
M  V30 5 1 4 6
M  V30 6 1 6 7
M  V30 7 1 7 8
M  V30 8 1 8 9
M  V30 9 1 9 10
M  V30 10 1 10 11
M  V30 11 1 11 12
M  V30 12 1 12 13
M  V30 13 1 13 14
M  V30 14 1 14 15
M  V30 15 1 4 16
M  V30 16 1 4 17
M  V30 17 1 5 18
M  V30 18 1 5 19
M  V30 19 1 5 20
M  V30 20 1 6 21
M  V30 21 1 6 22
M  V30 22 1 7 23
M  V30 23 1 7 24
M  V30 24 1 8 25
M  V30 25 1 8 26
M  V30 26 1 9 27
M  V30 27 1 9 28
M  V30 28 1 10 29
M  V30 29 1 10 30
M  V30 30 1 11 31
M  V30 31 1 11 32
M  V30 32 1 12 33
M  V30 33 1 12 34
M  V30 34 1 13 35
M  V30 35 1 13 36
M  V30 36 1 14 37
M  V30 37 1 14 38
M  V30 38 1 15 39
M  V30 39 1 15 40
M  V30 40 1 15 41
M  V30 END BOND
M  V30 END CTAB
M  END
>  <Structure No>
7825

>  <LogS>
-4.69

>  <MMFF94 Energy>
-10.728

$$$$
Compound 7826
Actelion Java MolfileCreator 2.0

  0  0  0  0  0  0              0 V3000
M  V30 BEGIN CTAB
M  V30 COUNTS 26 28 0 0 0
M  V30 BEGIN ATOM
M  V30 1 O -1.773 3.1446 0.0805 0
M  V30 2 C -1.3789 1.9486 0.032 0
M  V30 3 N -0.0507 1.6801 0.0959 0
M  V30 4 C -2.2892 0.8906 -0.0864 0
M  V30 5 C 0.4121 0.4004 0.0465 0
M  V30 6 C -1.7614 -0.4159 -0.1335 0
M  V30 7 C -3.6799 1.0848 -0.1584 0
M  V30 8 O -0.4491 -0.6082 -0.066 0
M  V30 9 C 1.8663 0.1261 0.1176 0
M  V30 10 C -2.6229 -1.5122 -0.2514 0
M  V30 11 C -4.5321 -0.018 -0.2761 0
M  V30 12 C 2.3419 -1.1977 0.0664 0
M  V30 13 C 2.795 1.1784 0.237 0
M  V30 14 C -4.0052 -1.3127 -0.3225 0
M  V30 15 C 3.7136 -1.4609 0.1332 0
M  V30 16 C 4.1656 0.9089 0.3034 0
M  V30 17 C 4.6245 -0.4089 0.2515 0
M  V30 18 H -4.1065 2.0798 -0.1239 0
M  V30 19 H -2.222 -2.5174 -0.2879 0
M  V30 20 H -5.6028 0.1307 -0.3316 0
M  V30 21 H 1.6554 -2.0302 -0.025 0
M  V30 22 H 2.4653 2.2089 0.2794 0
M  V30 23 H -4.6691 -2.1627 -0.4137 0
M  V30 24 H 4.0704 -2.482 0.093 0
M  V30 25 H 4.8726 1.7234 0.3951 0
M  V30 26 H 5.6858 -0.615 0.303 0
M  V30 END ATOM
M  V30 BEGIN BOND
M  V30 1 2 1 2
M  V30 2 1 2 3
M  V30 3 1 2 4
M  V30 4 2 3 5
M  V30 5 2 4 6
M  V30 6 1 4 7
M  V30 7 1 5 8
M  V30 8 1 5 9
M  V30 9 1 6 10
M  V30 10 2 7 11
M  V30 11 2 9 12
M  V30 12 1 9 13
M  V30 13 2 10 14
M  V30 14 1 12 15
M  V30 15 2 13 16
M  V30 16 2 15 17
M  V30 17 1 6 8
M  V30 18 1 11 14
M  V30 19 1 16 17
M  V30 20 1 7 18
M  V30 21 1 10 19
M  V30 22 1 11 20
M  V30 23 1 12 21
M  V30 24 1 13 22
M  V30 25 1 14 23
M  V30 26 1 15 24
M  V30 27 1 16 25
M  V30 28 1 17 26
M  V30 END BOND
M  V30 END CTAB
M  END
>  <Structure No>
7826

>  <LogS>
-4.61

>  <MMFF94 Energy>
54.591

$$$$
Compound 7827
Actelion Java MolfileCreator 2.0

  0  0  0  0  0  0              0 V3000
M  V30 BEGIN CTAB
M  V30 COUNTS 29 31 0 0 0
M  V30 BEGIN ATOM
M  V30 1 O 1.4514 -1.9356 -1.5321 0
M  V30 2 C 1.0756 -1.0272 -0.7402 0
M  V30 3 C -0.2971 -0.8125 -0.4866 0
M  V30 4 C 2.0306 -0.2169 -0.1005 0
M  V30 5 C -0.6529 0.2226 0.4121 0
M  V30 6 C -1.3218 -1.5815 -1.0876 0
M  V30 7 C 1.5799 0.791 0.78 0
M  V30 8 C 3.4134 -0.3806 -0.3113 0
M  V30 9 O 0.2818 0.9652 0.9954 0
M  V30 10 C -1.9973 0.4777 0.6987 0
M  V30 11 O -1.0181 -2.6113 -1.979 0
M  V30 12 C -2.6642 -1.3097 -0.7869 0
M  V30 13 C 2.5032 1.6145 1.4325 0
M  V30 14 C 4.3313 0.4498 0.3474 0
M  V30 15 C -3.012 -0.2877 0.1002 0
M  V30 16 C 3.8729 1.4442 1.2169 0
M  V30 17 O 5.7008 0.2946 0.1445 0
M  V30 18 O -4.3732 -0.0662 0.3589 0
M  V30 19 C -4.8727 0.9366 1.2376 0
M  V30 20 H 3.7827 -1.1468 -0.982 0
M  V30 21 H -2.2398 1.2748 1.389 0
M  V30 22 H -1.7423 -3.1692 -2.4161 0
M  V30 23 H -3.4473 -1.8991 -1.2476 0
M  V30 24 H 2.159 2.3878 2.1079 0
M  V30 25 H 4.58 2.0863 1.7264 0
M  V30 26 H 6.0671 -0.4155 -0.4783 0
M  V30 27 H -4.5671 1.9431 0.8816 0
M  V30 28 H -4.4954 0.7642 2.2677 0
M  V30 29 H -5.9807 0.8865 1.2524 0
M  V30 END ATOM
M  V30 BEGIN BOND
M  V30 1 2 1 2
M  V30 2 1 2 3
M  V30 3 1 2 4
M  V30 4 2 3 5
M  V30 5 1 3 6
M  V30 6 2 4 7
M  V30 7 1 4 8
M  V30 8 1 5 9
M  V30 9 1 5 10
M  V30 10 1 6 11
M  V30 11 2 6 12
M  V30 12 1 7 13
M  V30 13 2 8 14
M  V30 14 2 10 15
M  V30 15 2 13 16
M  V30 16 1 14 17
M  V30 17 1 15 18
M  V30 18 1 18 19
M  V30 19 1 7 9
M  V30 20 1 12 15
M  V30 21 1 14 16
M  V30 22 1 8 20
M  V30 23 1 10 21
M  V30 24 1 11 22
M  V30 25 1 12 23
M  V30 26 1 13 24
M  V30 27 1 16 25
M  V30 28 1 17 26
M  V30 29 1 19 27
M  V30 30 1 19 28
M  V30 31 1 19 29
M  V30 END BOND
M  V30 END CTAB
M  END
>  <Structure No>
7827

>  <LogS>
-2.93

>  <MMFF94 Energy>
51.905

$$$$
Compound 7828
Actelion Java MolfileCreator 2.0

  0  0  0  0  0  0              0 V3000
M  V30 BEGIN CTAB
M  V30 COUNTS 29 31 0 0 0
M  V30 BEGIN ATOM
M  V30 1 S 0.569 1.3824 -0.2438 0
M  V30 2 C -0.418 0.1238 0.3307 0
M  V30 3 C 1.9676 0.4739 -0.0749 0
M  V30 4 N 0.313 -0.9755 0.6488 0
M  V30 5 C -1.8907 0.1879 0.4788 0
M  V30 6 C 1.6362 -0.7747 0.4212 0
M  V30 7 C 3.2818 0.836 -0.3566 0
M  V30 8 C -2.6038 1.3514 0.1357 0
M  V30 9 C -2.6003 -0.9236 0.9684 0
M  V30 10 C 2.6297 -1.7238 0.6606 0
M  V30 11 C 4.2978 -0.1153 -0.1362 0
M  V30 12 C -3.9938 1.4001 0.2797 0
M  V30 13 C -3.9902 -0.8723 1.1114 0
M  V30 14 C 3.9666 -1.3879 0.3858 0
M  V30 15 C 5.7316 0.2445 -0.3876 0
M  V30 16 C -4.6934 0.2892 0.7679 0
M  V30 17 N -6.115 0.3405 0.9147 0
M  V30 18 H 3.5092 1.8249 -0.735 0
M  V30 19 H -2.0928 2.2263 -0.244 0
M  V30 20 H -2.0822 -1.8343 1.2416 0
M  V30 21 H 2.3786 -2.7001 1.0552 0
M  V30 22 H -4.5255 2.3042 0.0105 0
M  V30 23 H -4.5188 -1.7382 1.49 0
M  V30 24 H 4.7436 -2.1171 0.5789 0
M  V30 25 H 5.8108 0.9893 -1.2081 0
M  V30 26 H 6.3143 -0.654 -0.6821 0
M  V30 27 H 6.1714 0.6751 0.536 0
M  V30 28 H -6.6452 -0.4827 1.2778 0
M  V30 29 H -6.6479 1.2024 0.6611 0
M  V30 END ATOM
M  V30 BEGIN BOND
M  V30 1 1 1 2
M  V30 2 1 1 3
M  V30 3 2 2 4
M  V30 4 1 2 5
M  V30 5 2 3 6
M  V30 6 1 3 7
M  V30 7 2 5 8
M  V30 8 1 5 9
M  V30 9 1 6 10
M  V30 10 2 7 11
M  V30 11 1 8 12
M  V30 12 2 9 13
M  V30 13 2 10 14
M  V30 14 1 11 15
M  V30 15 2 12 16
M  V30 16 1 16 17
M  V30 17 1 4 6
M  V30 18 1 11 14
M  V30 19 1 13 16
M  V30 20 1 7 18
M  V30 21 1 8 19
M  V30 22 1 9 20
M  V30 23 1 10 21
M  V30 24 1 12 22
M  V30 25 1 13 23
M  V30 26 1 14 24
M  V30 27 1 15 25
M  V30 28 1 15 26
M  V30 29 1 15 27
M  V30 30 1 17 28
M  V30 31 1 17 29
M  V30 END BOND
M  V30 END CTAB
M  END
>  <Structure No>
7828

>  <LogS>
-3.68

>  <MMFF94 Energy>
41.258

$$$$
Compound 7829
Actelion Java MolfileCreator 2.0

  0  0  0  0  0  0              0 V3000
M  V30 BEGIN CTAB
M  V30 COUNTS 29 30 0 0 0
M  V30 BEGIN ATOM
M  V30 1 O 0.158 -1.5024 1.1068 0
M  V30 2 C 0.3997 -0.5863 0.0663 0 CFG=2
M  V30 3 C 1.8795 -0.2713 -0.0329 0
M  V30 4 C -0.4367 0.6996 0.2298 0
M  V30 5 C 2.5733 0.2991 1.0517 0
M  V30 6 C 2.579 -0.5357 -1.2248 0
M  V30 7 C -1.9123 0.3965 0.202 0
M  V30 8 C 3.9363 0.5913 0.9447 0
M  V30 9 C 3.942 -0.2415 -1.326 0
M  V30 10 C -2.5866 0.2762 -1.0246 0
M  V30 11 C -2.6173 0.1832 1.3987 0
M  V30 12 C 4.6201 0.3206 -0.2422 0
M  V30 13 C -3.9498 -0.034 -1.0514 0
M  V30 14 C -3.9805 -0.1269 1.3673 0
M  V30 15 C -4.6466 -0.2339 0.1433 0
M  V30 16 H 0.2855 -1.0304 1.9704 0
M  V30 17 H 0.0723 -1.0754 -0.8777 0
M  V30 18 H -0.1747 1.2148 1.1798 0
M  V30 19 H -0.1924 1.4046 -0.5953 0
M  V30 20 H 2.0624 0.5228 1.9792 0
M  V30 21 H 2.0713 -0.9688 -2.0776 0
M  V30 22 H 4.4624 1.0297 1.783 0
M  V30 23 H 4.4726 -0.449 -2.2462 0
M  V30 24 H -2.0563 0.421 -1.9576 0
M  V30 25 H -2.112 0.2558 2.3538 0
M  V30 26 H 5.6751 0.548 -0.3229 0
M  V30 27 H -4.4655 -0.1225 -1.9989 0
M  V30 28 H -4.5199 -0.287 2.2919 0
M  V30 29 H -5.7015 -0.4751 0.1208 0
M  V30 END ATOM
M  V30 BEGIN BOND
M  V30 1 1 1 2
M  V30 2 1 2 3
M  V30 3 1 2 4
M  V30 4 2 3 5
M  V30 5 1 3 6
M  V30 6 1 4 7
M  V30 7 1 5 8
M  V30 8 2 6 9
M  V30 9 2 7 10
M  V30 10 1 7 11
M  V30 11 2 8 12
M  V30 12 1 10 13
M  V30 13 2 11 14
M  V30 14 2 13 15
M  V30 15 1 9 12
M  V30 16 1 14 15
M  V30 17 1 1 16
M  V30 18 1 2 17
M  V30 19 1 4 18
M  V30 20 1 4 19
M  V30 21 1 5 20
M  V30 22 1 6 21
M  V30 23 1 8 22
M  V30 24 1 9 23
M  V30 25 1 10 24
M  V30 26 1 11 25
M  V30 27 1 12 26
M  V30 28 1 13 27
M  V30 29 1 14 28
M  V30 30 1 15 29
M  V30 END BOND
M  V30 BEGIN COLLECTION
M  V30 MDLV30/STEABS ATOMS=(1 2)
M  V30 END COLLECTION
M  V30 END CTAB
M  END
>  <Structure No>
7829

>  <LogS>
-2.52

>  <MMFF94 Energy>
53.759

$$$$
Compound 7830
Actelion Java MolfileCreator 2.0

  0  0  0  0  0  0              0 V3000
M  V30 BEGIN CTAB
M  V30 COUNTS 39 40 0 0 0
M  V30 BEGIN ATOM
M  V30 1 O -2.2185 1.9806 -1.6635 0
M  V30 2 C -2.2654 1.8704 -0.4082 0
M  V30 3 O -1.9538 0.6587 0.2164 0
M  V30 4 C -2.6968 3.0318 0.4199 0
M  V30 5 C -1.5365 -0.5068 -0.4981 0 CFG=2
M  V30 6 C -2.7451 -1.2153 -1.0948 0 CFG=1
M  V30 7 C -0.9661 -1.5477 0.4631 0 CFG=2
M  V30 8 O -2.373 -1.851 -2.2905 0
M  V30 9 C -3.1516 -2.2524 -0.0398 0
M  V30 10 N -2.116 -2.2803 1.0009 0 CHG=1
M  V30 11 C -0.0795 -0.9644 1.5868 0
M  V30 12 C 1.139 -0.2719 1.0305 0
M  V30 13 C 1.1907 1.1287 0.9536 0
M  V30 14 C 2.2198 -1.0256 0.5482 0
M  V30 15 C 2.3086 1.7643 0.407 0
M  V30 16 C 3.3383 -0.3892 0.0023 0
M  V30 17 C 3.3895 1.0158 -0.0723 0
M  V30 18 O 4.4877 1.7013 -0.6123 0
M  V30 19 C 5.651 1.0693 -1.136 0
M  V30 20 H -3.8052 3.0771 0.444 0
M  V30 21 H -2.3134 2.9208 1.4558 0
M  V30 22 H -2.299 3.9751 -0.0099 0
M  V30 23 H -0.7806 -0.2335 -1.2694 0
M  V30 24 H -3.575 -0.4958 -1.2878 0
M  V30 25 H -0.344 -2.2575 -0.1327 0
M  V30 26 H -3.2155 -2.1176 -2.7432 0
M  V30 27 H -4.134 -1.9726 0.4033 0
M  V30 28 H -3.2657 -3.2609 -0.4985 0
M  V30 29 H -2.4829 -1.8126 1.864 0
M  V30 30 H -1.847 -3.2665 1.2283 0
M  V30 31 H 0.2507 -1.7937 2.2496 0
M  V30 32 H -0.6661 -0.2666 2.2239 0
M  V30 33 H 0.3663 1.7302 1.3154 0
M  V30 34 H 2.194 -2.1074 0.5924 0
M  V30 35 H 2.3348 2.8453 0.3538 0
M  V30 36 H 4.1551 -0.998 -0.3605 0
M  V30 37 H 6.3557 1.847 -1.4946 0
M  V30 38 H 6.1515 0.4738 -0.3434 0
M  V30 39 H 5.3778 0.4152 -1.9909 0
M  V30 END ATOM
M  V30 BEGIN BOND
M  V30 1 2 1 2
M  V30 2 1 2 3
M  V30 3 1 2 4
M  V30 4 1 3 5
M  V30 5 1 5 6
M  V30 6 1 5 7
M  V30 7 1 6 8
M  V30 8 1 6 9
M  V30 9 1 7 10
M  V30 10 1 7 11
M  V30 11 1 11 12
M  V30 12 2 12 13
M  V30 13 1 12 14
M  V30 14 1 13 15
M  V30 15 2 14 16
M  V30 16 2 15 17
M  V30 17 1 17 18
M  V30 18 1 18 19
M  V30 19 1 9 10
M  V30 20 1 16 17
M  V30 21 1 4 20
M  V30 22 1 4 21
M  V30 23 1 4 22
M  V30 24 1 5 23
M  V30 25 1 6 24
M  V30 26 1 7 25
M  V30 27 1 8 26
M  V30 28 1 9 27
M  V30 29 1 9 28
M  V30 30 1 10 29
M  V30 31 1 10 30
M  V30 32 1 11 31
M  V30 33 1 11 32
M  V30 34 1 13 33
M  V30 35 1 14 34
M  V30 36 1 15 35
M  V30 37 1 16 36
M  V30 38 1 19 37
M  V30 39 1 19 38
M  V30 40 1 19 39
M  V30 END BOND
M  V30 BEGIN COLLECTION
M  V30 MDLV30/STEABS ATOMS=(3 5 6 7)
M  V30 END COLLECTION
M  V30 END CTAB
M  END
>  <Structure No>
7830

>  <LogS>
-1.61

>  <MMFF94 Energy>
68.813

$$$$
Compound 7831
Actelion Java MolfileCreator 2.0

  0  0  0  0  0  0              0 V3000
M  V30 BEGIN CTAB
M  V30 COUNTS 36 38 0 0 0
M  V30 BEGIN ATOM
M  V30 1 O -3.7345 2.4343 0.8109 0
M  V30 2 C -2.9583 1.4538 0.6543 0
M  V30 3 C -1.5469 1.6551 0.2453 0
M  V30 4 C -3.4581 0.1056 0.9252 0
M  V30 5 C -0.7564 0.5637 0.0523 0
M  V30 6 C -1.0278 3.0678 0.1197 0
M  V30 7 C -2.7078 -0.9592 0.6565 0
M  V30 8 C -1.3771 -0.8541 -0.0668 0 CFG=2
M  V30 9 C 0.719 0.6315 -0.3057 0 CFG=1
M  V30 10 C -0.4345 -1.9623 0.523 0
M  V30 11 C -1.6489 -1.1506 -1.5568 0
M  V30 12 O 1.4319 1.8329 -0.0685 0
M  V30 13 C 1.4811 -0.3843 0.5399 0 CFG=1
M  V30 14 C 1.0582 -1.801 0.1612 0
M  V30 15 C 2.7457 1.519 0.2465 0
M  V30 16 C 2.9532 0.0512 0.4263 0 CFG=2
M  V30 17 O 3.6452 2.3888 0.3851 0
M  V30 18 C 3.6926 -0.5489 -0.7747 0
M  V30 19 H -4.4415 -0.0261 1.3599 0
M  V30 20 H -0.3516 3.2991 0.9692 0
M  V30 21 H -0.498 3.1983 -0.8472 0
M  V30 22 H -1.8476 3.8149 0.1299 0
M  V30 23 H -3.1199 -1.9416 0.8581 0
M  V30 24 H 0.8272 0.392 -1.3868 0
M  V30 25 H -0.513 -1.952 1.6342 0
M  V30 26 H -0.7736 -2.9702 0.1962 0
M  V30 27 H -2.15 -2.1358 -1.678 0
M  V30 28 H -0.7091 -1.1763 -2.1452 0
M  V30 29 H -2.3098 -0.3706 -1.9942 0
M  V30 30 H 1.2046 -0.2277 1.612 0
M  V30 31 H 1.6595 -2.5365 0.7377 0
M  V30 32 H 1.2158 -1.9915 -0.922 0
M  V30 33 H 3.5072 -0.1602 1.3673 0
M  V30 34 H 3.8061 -1.6451 -0.6398 0
M  V30 35 H 4.7076 -0.1044 -0.8516 0
M  V30 36 H 3.1465 -0.3557 -1.7228 0
M  V30 END ATOM
M  V30 BEGIN BOND
M  V30 1 2 1 2
M  V30 2 1 2 3
M  V30 3 1 2 4
M  V30 4 2 3 5
M  V30 5 1 3 6
M  V30 6 2 4 7
M  V30 7 1 5 8
M  V30 8 1 5 9
M  V30 9 1 8 10
M  V30 10 1 8 11
M  V30 11 1 9 12
M  V30 12 1 9 13
M  V30 13 1 10 14
M  V30 14 1 12 15
M  V30 15 1 13 16
M  V30 16 2 15 17
M  V30 17 1 16 18
M  V30 18 1 7 8
M  V30 19 1 13 14
M  V30 20 1 15 16
M  V30 21 1 4 19
M  V30 22 1 6 20
M  V30 23 1 6 21
M  V30 24 1 6 22
M  V30 25 1 7 23
M  V30 26 1 9 24
M  V30 27 1 10 25
M  V30 28 1 10 26
M  V30 29 1 11 27
M  V30 30 1 11 28
M  V30 31 1 11 29
M  V30 32 1 13 30
M  V30 33 1 14 31
M  V30 34 1 14 32
M  V30 35 1 16 33
M  V30 36 1 18 34
M  V30 37 1 18 35
M  V30 38 1 18 36
M  V30 END BOND
M  V30 BEGIN COLLECTION
M  V30 MDLV30/STEABS ATOMS=(4 8 9 13 16)
M  V30 END COLLECTION
M  V30 END CTAB
M  END
>  <Structure No>
7831

>  <LogS>
-3.09

>  <MMFF94 Energy>
29.455

$$$$
Compound 7832
Actelion Java MolfileCreator 2.0

  0  0  0  0  0  0              0 V3000
M  V30 BEGIN CTAB
M  V30 COUNTS 41 42 0 0 0
M  V30 BEGIN ATOM
M  V30 1 S 1.4724 2.0455 -2.1274 0
M  V30 2 O 2.0837 2.1128 -3.4983 0
M  V30 3 O 1.0331 3.4252 -1.7224 0
M  V30 4 N 0.0936 0.9997 -2.1645 0 CHG=-1
M  V30 5 C 2.6639 1.4092 -0.9981 0
M  V30 6 C -0.6677 0.6967 -0.9941 0
M  V30 7 C 3.1239 0.0961 -1.145 0
M  V30 8 C 3.1477 2.1967 0.053 0
M  V30 9 O -0.3583 1.2123 0.1147 0
M  V30 10 N -1.7831 -0.1974 -1.0911 0
M  V30 11 C 4.0588 -0.4296 -0.2488 0
M  V30 12 C 4.0839 1.6748 0.9506 0
M  V30 13 C -2.6001 -0.5609 0.0736 0
M  V30 14 C 4.5514 0.3533 0.8137 0
M  V30 15 C -3.5322 0.6153 0.4722 0
M  V30 16 C -3.376 -1.874 -0.2008 0
M  V30 17 C 5.5431 -0.189 1.7809 0
M  V30 18 C -4.9575 0.432 -0.0601 0
M  V30 19 C -4.594 -1.9997 0.7194 0
M  V30 20 O 5.9298 0.5241 2.7475 0
M  V30 21 C 6.1062 -1.5726 1.6457 0
M  V30 22 C -5.6048 -0.8577 0.4828 0
M  V30 23 H 2.7542 -0.5225 -1.9525 0
M  V30 24 H 2.8011 3.214 0.1832 0
M  V30 25 H -1.9841 -0.6218 -2.0248 0
M  V30 26 H 4.3868 -1.4498 -0.3916 0
M  V30 27 H 4.4397 2.3078 1.7538 0
M  V30 28 H -1.9182 -0.7605 0.9312 0
M  V30 29 H -3.578 0.6852 1.5818 0
M  V30 30 H -3.1286 1.5835 0.1051 0
M  V30 31 H -3.7307 -1.9099 -1.2548 0
M  V30 32 H -2.7005 -2.743 -0.0448 0
M  V30 33 H -5.5782 1.3083 0.2275 0
M  V30 34 H -4.9252 0.3939 -1.1716 0
M  V30 35 H -5.0918 -2.9784 0.5473 0
M  V30 36 H -4.2508 -1.9798 1.7778 0
M  V30 37 H 6.6202 -1.6765 0.6671 0
M  V30 38 H 5.2908 -2.3224 1.7214 0
M  V30 39 H 6.8436 -1.7741 2.4518 0
M  V30 40 H -6.1217 -0.6346 1.4419 0
M  V30 41 H -6.3801 -1.1943 -0.2396 0
M  V30 END ATOM
M  V30 BEGIN BOND
M  V30 1 2 1 2
M  V30 2 2 1 3
M  V30 3 1 1 4
M  V30 4 1 1 5
M  V30 5 1 4 6
M  V30 6 2 5 7
M  V30 7 1 5 8
M  V30 8 2 6 9
M  V30 9 1 6 10
M  V30 10 1 7 11
M  V30 11 2 8 12
M  V30 12 1 10 13
M  V30 13 2 11 14
M  V30 14 1 13 15
M  V30 15 1 13 16
M  V30 16 1 14 17
M  V30 17 1 15 18
M  V30 18 1 16 19
M  V30 19 2 17 20
M  V30 20 1 17 21
M  V30 21 1 18 22
M  V30 22 1 12 14
M  V30 23 1 19 22
M  V30 24 1 7 23
M  V30 25 1 8 24
M  V30 26 1 10 25
M  V30 27 1 11 26
M  V30 28 1 12 27
M  V30 29 1 13 28
M  V30 30 1 15 29
M  V30 31 1 15 30
M  V30 32 1 16 31
M  V30 33 1 16 32
M  V30 34 1 18 33
M  V30 35 1 18 34
M  V30 36 1 19 35
M  V30 37 1 19 36
M  V30 38 1 21 37
M  V30 39 1 21 38
M  V30 40 1 21 39
M  V30 41 1 22 40
M  V30 42 1 22 41
M  V30 END BOND
M  V30 END CTAB
M  END
>  <Structure No>
7832

>  <LogS>
-2.06

>  <MMFF94 Energy>
11.394

$$$$
Compound 7833
Actelion Java MolfileCreator 2.0

  0  0  0  0  0  0              0 V3000
M  V30 BEGIN CTAB
M  V30 COUNTS 45 48 0 0 0
M  V30 BEGIN ATOM
M  V30 1 N -1.6862 -0.9633 -0.321 0 CHG=1 CFG=2
M  V30 2 C -1.7895 0.4271 0.2101 0 CFG=2
M  V30 3 C -0.2843 -1.2916 -0.6609 0
M  V30 4 C -2.5983 -1.1269 -1.4707 0
M  V30 5 C -0.6286 0.7639 1.2158 0 CFG=2
M  V30 6 C -3.1898 0.6266 0.8156 0
M  V30 7 C 0.6408 -1.2381 0.6137 0 CFG=2
M  V30 8 C -4.0587 -0.9285 -1.0153 0
M  V30 9 C 0.5196 1.5678 0.4949 0
M  V30 10 C -0.0783 -0.5479 1.7847 0
M  V30 11 C -4.253 0.4079 -0.2757 0
M  V30 12 C 1.9859 -0.4688 0.4117 0 CFG=2
M  V30 13 N 1.8805 1.0052 0.7087 0 CHG=1 CFG=1
M  V30 14 C 2.705 -0.769 -0.9242 0
M  V30 15 C 2.8843 1.8259 -0.0211 0
M  V30 16 C 4.1364 -0.206 -0.9007 0
M  V30 17 C 4.2417 1.1142 -0.1122 0
M  V30 18 H -2.0022 -1.6576 0.3985 0
M  V30 19 H -1.7399 1.1523 -0.6352 0
M  V30 20 H 0.054 -0.5912 -1.45 0
M  V30 21 H -0.2268 -2.3151 -1.0946 0
M  V30 22 H -2.3522 -0.4022 -2.2797 0
M  V30 23 H -2.5017 -2.1514 -1.895 0
M  V30 24 H -1.0147 1.3768 2.0606 0
M  V30 25 H -3.2894 1.6598 1.2141 0
M  V30 26 H -3.3524 -0.0877 1.6522 0
M  V30 27 H 0.8697 -2.2839 0.9194 0
M  V30 28 H -4.3474 -1.7627 -0.3391 0
M  V30 29 H -4.7296 -0.9615 -1.9005 0
M  V30 30 H 0.3373 1.6376 -0.5992 0
M  V30 31 H 0.4901 2.6162 0.8699 0
M  V30 32 H 0.6132 -0.3565 2.6346 0
M  V30 33 H -0.8874 -1.1806 2.2083 0
M  V30 34 H -5.264 0.4308 0.1848 0
M  V30 35 H -4.199 1.2403 -1.0115 0
M  V30 36 H 2.6602 -0.9048 1.1888 0
M  V30 37 H 2.097 1.1371 1.7267 0
M  V30 38 H 2.1695 -0.295 -1.7721 0
M  V30 39 H 2.7406 -1.8653 -1.105 0
M  V30 40 H 2.5418 2.0561 -1.0558 0
M  V30 41 H 3.0269 2.7996 0.5 0
M  V30 42 H 4.4743 -0.0431 -1.9475 0
M  V30 43 H 4.8204 -0.954 -0.4439 0
M  V30 44 H 4.6055 0.905 0.9177 0
M  V30 45 H 4.982 1.7835 -0.6016 0
M  V30 END ATOM
M  V30 BEGIN BOND
M  V30 1 1 1 2
M  V30 2 1 1 3
M  V30 3 1 1 4
M  V30 4 1 2 5
M  V30 5 1 2 6
M  V30 6 1 3 7
M  V30 7 1 4 8
M  V30 8 1 5 9
M  V30 9 1 5 10
M  V30 10 1 6 11
M  V30 11 1 7 12
M  V30 12 1 9 13
M  V30 13 1 12 14
M  V30 14 1 13 15
M  V30 15 1 14 16
M  V30 16 1 15 17
M  V30 17 1 7 10
M  V30 18 1 8 11
M  V30 19 1 12 13
M  V30 20 1 16 17
M  V30 21 1 1 18
M  V30 22 1 2 19
M  V30 23 1 3 20
M  V30 24 1 3 21
M  V30 25 1 4 22
M  V30 26 1 4 23
M  V30 27 1 5 24
M  V30 28 1 6 25
M  V30 29 1 6 26
M  V30 30 1 7 27
M  V30 31 1 8 28
M  V30 32 1 8 29
M  V30 33 1 9 30
M  V30 34 1 9 31
M  V30 35 1 10 32
M  V30 36 1 10 33
M  V30 37 1 11 34
M  V30 38 1 11 35
M  V30 39 1 12 36
M  V30 40 1 13 37
M  V30 41 1 14 38
M  V30 42 1 14 39
M  V30 43 1 15 40
M  V30 44 1 15 41
M  V30 45 1 16 42
M  V30 46 1 16 43
M  V30 47 1 17 44
M  V30 48 1 17 45
M  V30 END BOND
M  V30 BEGIN COLLECTION
M  V30 MDLV30/STEABS ATOMS=(6 1 2 5 7 12 13)
M  V30 END COLLECTION
M  V30 END CTAB
M  END
>  <Structure No>
7833

>  <LogS>
-1.89

>  <MMFF94 Energy>
112.45

$$$$
Compound 7834
Actelion Java MolfileCreator 2.0

  0  0  0  0  0  0              0 V3000
M  V30 BEGIN CTAB
M  V30 COUNTS 44 46 0 0 0
M  V30 BEGIN ATOM
M  V30 1 S -2.3629 1.2217 2.3629 0
M  V30 2 C -2.5778 -0.251 1.3576 0
M  V30 3 C -2.0807 2.2803 0.9408 0
M  V30 4 C -1.6551 -0.527 0.3332 0
M  V30 5 C -3.6183 -1.1417 1.6298 0
M  V30 6 C -1.1886 1.8609 -0.064 0
M  V30 7 C -2.7017 3.531 0.8591 0
M  V30 8 N -0.7126 0.4971 -0.0591 0
M  V30 9 C -1.7639 -1.732 -0.3828 0
M  V30 10 C -3.722 -2.3363 0.9138 0
M  V30 11 C -0.9171 2.7219 -1.1423 0
M  V30 12 C -2.417 4.3828 -0.2113 0
M  V30 13 C 0.6501 0.167 -0.5097 0
M  V30 14 C -2.777 -2.6583 -0.0758 0
M  V30 15 C -1.5213 3.9817 -1.2066 0
M  V30 16 C 1.4066 -0.6292 0.5657 0
M  V30 17 C -2.917 -3.9258 -0.881 0
M  V30 18 C 2.769 -1.1691 0.0793 0
M  V30 19 F -3.5185 -4.9204 -0.1292 0
M  V30 20 F -3.6927 -3.673 -1.9969 0
M  V30 21 F -1.6755 -4.3831 -1.2882 0
M  V30 22 N 3.7283 -0.1218 -0.3525 0 CHG=1
M  V30 23 C 4.0811 0.7942 0.7491 0
M  V30 24 C 4.9509 -0.7608 -0.8718 0
M  V30 25 H -4.3348 -0.9202 2.4106 0
M  V30 26 H -3.3867 3.8522 1.6335 0
M  V30 27 H -1.0855 -1.9365 -1.1997 0
M  V30 28 H -4.5385 -3.0114 1.1379 0
M  V30 29 H -0.275 2.4063 -1.9541 0
M  V30 30 H -2.8903 5.3545 -0.2697 0
M  V30 31 H 1.2156 1.1016 -0.704 0
M  V30 32 H 0.6051 -0.4025 -1.4616 0
M  V30 33 H -1.3123 4.6389 -2.0409 0
M  V30 34 H 0.7986 -1.5092 0.8649 0
M  V30 35 H 1.5294 -0.009 1.4782 0
M  V30 36 H 2.5698 -1.8671 -0.7656 0
M  V30 37 H 3.2123 -1.7775 0.9005 0
M  V30 38 H 3.3171 0.4346 -1.1371 0
M  V30 39 H 4.903 1.4793 0.4447 0
M  V30 40 H 3.2189 1.4426 1.0118 0
M  V30 41 H 4.4058 0.2309 1.652 0
M  V30 42 H 5.4604 -1.3542 -0.0797 0
M  V30 43 H 5.6603 0.0058 -1.2549 0
M  V30 44 H 4.7082 -1.4349 -1.7229 0
M  V30 END ATOM
M  V30 BEGIN BOND
M  V30 1 1 1 2
M  V30 2 1 1 3
M  V30 3 2 2 4
M  V30 4 1 2 5
M  V30 5 2 3 6
M  V30 6 1 3 7
M  V30 7 1 4 8
M  V30 8 1 4 9
M  V30 9 2 5 10
M  V30 10 1 6 11
M  V30 11 2 7 12
M  V30 12 1 8 13
M  V30 13 2 9 14
M  V30 14 2 11 15
M  V30 15 1 13 16
M  V30 16 1 14 17
M  V30 17 1 16 18
M  V30 18 1 17 19
M  V30 19 1 17 20
M  V30 20 1 17 21
M  V30 21 1 18 22
M  V30 22 1 22 23
M  V30 23 1 22 24
M  V30 24 1 6 8
M  V30 25 1 10 14
M  V30 26 1 12 15
M  V30 27 1 5 25
M  V30 28 1 7 26
M  V30 29 1 9 27
M  V30 30 1 10 28
M  V30 31 1 11 29
M  V30 32 1 12 30
M  V30 33 1 13 31
M  V30 34 1 13 32
M  V30 35 1 15 33
M  V30 36 1 16 34
M  V30 37 1 16 35
M  V30 38 1 18 36
M  V30 39 1 18 37
M  V30 40 1 22 38
M  V30 41 1 23 39
M  V30 42 1 23 40
M  V30 43 1 23 41
M  V30 44 1 24 42
M  V30 45 1 24 43
M  V30 46 1 24 44
M  V30 END BOND
M  V30 END CTAB
M  END
>  <Structure No>
7834

>  <LogS>
-5.3

>  <MMFF94 Energy>
96.876

$$$$
Compound 7835
Actelion Java MolfileCreator 2.0

  0  0  0  0  0  0              0 V3000
M  V30 BEGIN CTAB
M  V30 COUNTS 40 42 0 0 0
M  V30 BEGIN ATOM
M  V30 1 O -1.0418 0.2403 -1.5229 0
M  V30 2 C -1.6657 -0.1644 -0.5032 0
M  V30 3 N -3.0834 -0.402 -0.5914 0
M  V30 4 C -0.9449 -0.3347 0.777 0
M  V30 5 C -3.7255 -1.5019 0.1426 0
M  V30 6 C -3.8826 0.402 -1.5288 0
M  V30 7 C 0.388 -0.2753 0.8582 0
M  V30 8 C -4.968 -0.9954 0.8911 0
M  V30 9 C -5.3848 0.1211 -1.3795 0
M  V30 10 C 1.0735 -0.4513 2.1547 0
M  V30 11 C -5.772 0.0633 0.103 0
M  V30 12 C 2.3907 -0.2828 2.3391 0
M  V30 13 C 3.3313 0.232 1.322 0
M  V30 14 C 4.569 -0.4218 1.1402 0
M  V30 15 C 3.0529 1.4196 0.5931 0
M  V30 16 C 5.4578 0.1057 0.2079 0
M  V30 17 C 3.9794 1.9188 -0.34 0
M  V30 18 O 6.7072 -0.3625 -0.1499 0
M  V30 19 C 5.174 1.2255 -0.5032 0
M  V30 20 C 7.2405 0.5172 -1.1495 0
M  V30 21 O 6.2303 1.5169 -1.3446 0
M  V30 22 H -1.5229 -0.488 1.6802 0
M  V30 23 H -3.0323 -1.9909 0.8576 0
M  V30 24 H -4.0311 -2.284 -0.5859 0
M  V30 25 H -3.5688 0.1861 -2.5727 0
M  V30 26 H -3.7023 1.4805 -1.3248 0
M  V30 27 H 0.971 -0.1298 -0.0416 0
M  V30 28 H -5.6223 -1.8646 1.1206 0
M  V30 29 H -4.6501 -0.5568 1.8621 0
M  V30 30 H -5.6376 -0.8453 -1.8679 0
M  V30 31 H -5.9651 0.9215 -1.8872 0
M  V30 32 H 0.4894 -0.7975 3.0 0
M  V30 33 H -5.5986 1.0654 0.554 0
M  V30 34 H -6.8587 -0.1537 0.1891 0
M  V30 35 H 2.806 -0.5684 3.2982 0
M  V30 36 H 4.8245 -1.3135 1.6987 0
M  V30 37 H 2.1303 1.9618 0.7583 0
M  V30 38 H 3.7751 2.8188 -0.9046 0
M  V30 39 H 8.1784 0.9866 -0.7857 0
M  V30 40 H 7.4168 -0.0384 -2.0942 0
M  V30 END ATOM
M  V30 BEGIN BOND
M  V30 1 2 1 2
M  V30 2 1 2 3
M  V30 3 1 2 4
M  V30 4 1 3 5
M  V30 5 1 3 6
M  V30 6 2 4 7
M  V30 7 1 5 8
M  V30 8 1 6 9
M  V30 9 1 7 10
M  V30 10 1 8 11
M  V30 11 2 10 12
M  V30 12 1 12 13
M  V30 13 2 13 14
M  V30 14 1 13 15
M  V30 15 1 14 16
M  V30 16 2 15 17
M  V30 17 1 16 18
M  V30 18 2 16 19
M  V30 19 1 18 20
M  V30 20 1 19 21
M  V30 21 1 9 11
M  V30 22 1 17 19
M  V30 23 1 20 21
M  V30 24 1 4 22
M  V30 25 1 5 23
M  V30 26 1 5 24
M  V30 27 1 6 25
M  V30 28 1 6 26
M  V30 29 1 7 27
M  V30 30 1 8 28
M  V30 31 1 8 29
M  V30 32 1 9 30
M  V30 33 1 9 31
M  V30 34 1 10 32
M  V30 35 1 11 33
M  V30 36 1 11 34
M  V30 37 1 12 35
M  V30 38 1 14 36
M  V30 39 1 15 37
M  V30 40 1 17 38
M  V30 41 1 20 39
M  V30 42 1 20 40
M  V30 END BOND
M  V30 END CTAB
M  END
>  <Structure No>
7835

>  <LogS>
-3.46

>  <MMFF94 Energy>
5.8522

$$$$
Compound 7836
Actelion Java MolfileCreator 2.0

  0  0  0  0  0  0              0 V3000
M  V30 BEGIN CTAB
M  V30 COUNTS 45 48 0 0 0
M  V30 BEGIN ATOM
M  V30 1 O 0.9629 -0.1604 2.9714 0
M  V30 2 C 0.8422 -0.2357 1.5727 0 CFG=2
M  V30 3 C 2.0036 0.5278 0.9334 0
M  V30 4 C -0.5366 0.3592 1.1562 0 CFG=1
M  V30 5 C 2.8938 -0.0231 -0.0373 0
M  V30 6 C 2.1799 1.8715 1.3167 0
M  V30 7 N -0.7376 0.422 -0.3265 0 CHG=1 CFG=2
M  V30 8 C -1.7226 -0.4014 1.8277 0
M  V30 9 C 3.8848 0.8267 -0.6036 0
M  V30 10 C 2.8561 -1.3719 -0.464 0
M  V30 11 C 3.175 2.6502 0.735 0
M  V30 12 C -1.9478 1.2346 -0.6144 0
M  V30 13 C -0.9319 -0.9301 -0.9126 0
M  V30 14 C -2.7966 -0.7102 0.7669 0 CFG=1
M  V30 15 N 3.9916 2.1201 -0.2051 0
M  V30 16 C 4.7688 0.3424 -1.574 0
M  V30 17 C 3.7473 -1.8392 -1.434 0
M  V30 18 C -3.2038 0.6252 0.0866 0 CFG=2
M  V30 19 C -2.1534 -1.6405 -0.2809 0
M  V30 20 C 4.6968 -0.985 -1.9906 0
M  V30 21 C -4.3609 0.4341 -0.8722 0
M  V30 22 C -5.593 0.1643 -0.4306 0
M  V30 23 H 1.731 -0.7367 3.2259 0
M  V30 24 H 0.833 -1.3058 1.3045 0
M  V30 25 H -0.5622 1.3997 1.5554 0
M  V30 26 H 1.5409 2.3234 2.0651 0
M  V30 27 H 0.0788 0.8832 -0.791 0
M  V30 28 H -1.3882 -1.3535 2.2966 0
M  V30 29 H -2.1639 0.22 2.6382 0
M  V30 30 H 2.1693 -2.0958 -0.0628 0
M  V30 31 H 3.296 3.684 1.0299 0
M  V30 32 H -2.0858 1.3178 -1.7162 0
M  V30 33 H -1.796 2.2787 -0.2576 0
M  V30 34 H -1.0812 -0.8477 -2.013 0
M  V30 35 H -0.0239 -1.5503 -0.7806 0
M  V30 36 H -3.6696 -1.2058 1.2452 0
M  V30 37 H 5.5176 0.9959 -2.0049 0
M  V30 38 H 3.7044 -2.8731 -1.7519 0
M  V30 39 H -3.5379 1.3382 0.8749 0
M  V30 40 H -1.8332 -2.59 0.2014 0
M  V30 41 H -2.8939 -1.9027 -1.0675 0
M  V30 42 H 5.3841 -1.355 -2.7405 0
M  V30 43 H -4.2075 0.5293 -1.9432 0
M  V30 44 H -5.7988 0.0717 0.6314 0
M  V30 45 H -6.4075 0.0373 -1.1364 0
M  V30 END ATOM
M  V30 BEGIN BOND
M  V30 1 1 1 2
M  V30 2 1 2 3
M  V30 3 1 2 4
M  V30 4 1 3 5
M  V30 5 2 3 6
M  V30 6 1 4 7
M  V30 7 1 4 8
M  V30 8 1 5 9
M  V30 9 2 5 10
M  V30 10 1 6 11
M  V30 11 1 7 12
M  V30 12 1 7 13
M  V30 13 1 8 14
M  V30 14 1 9 15
M  V30 15 2 9 16
M  V30 16 1 10 17
M  V30 17 1 12 18
M  V30 18 1 13 19
M  V30 19 1 16 20
M  V30 20 1 18 21
M  V30 21 2 21 22
M  V30 22 2 11 15
M  V30 23 1 14 18
M  V30 24 1 14 19
M  V30 25 2 17 20
M  V30 26 1 1 23
M  V30 27 1 2 24
M  V30 28 1 4 25
M  V30 29 1 6 26
M  V30 30 1 7 27
M  V30 31 1 8 28
M  V30 32 1 8 29
M  V30 33 1 10 30
M  V30 34 1 11 31
M  V30 35 1 12 32
M  V30 36 1 12 33
M  V30 37 1 13 34
M  V30 38 1 13 35
M  V30 39 1 14 36
M  V30 40 1 16 37
M  V30 41 1 17 38
M  V30 42 1 18 39
M  V30 43 1 19 40
M  V30 44 1 19 41
M  V30 45 1 20 42
M  V30 46 1 21 43
M  V30 47 1 22 44
M  V30 48 1 22 45
M  V30 END BOND
M  V30 BEGIN COLLECTION
M  V30 MDLV30/STEABS ATOMS=(5 2 4 7 14 18)
M  V30 END COLLECTION
M  V30 END CTAB
M  END
>  <Structure No>
7836

>  <LogS>
-3.07

>  <MMFF94 Energy>
124.05

$$$$
Compound 7837
Actelion Java MolfileCreator 2.0

  0  0  0  0  0  0              0 V3000
M  V30 BEGIN CTAB
M  V30 COUNTS 45 48 0 0 0
M  V30 BEGIN ATOM
M  V30 1 S 4.4638 -0.081 -0.6483 0
M  V30 2 C 3.5278 1.0043 0.405 0
M  V30 3 C 3.2625 -1.3896 -0.5583 0
M  V30 4 C 2.1543 1.2217 0.1582 0
M  V30 5 C 4.2278 1.7883 1.3292 0
M  V30 6 C 1.8994 -1.1113 -0.7953 0
M  V30 7 C 3.727 -2.7075 -0.4854 0
M  V30 8 N 1.3765 0.2454 -0.6102 0
M  V30 9 C 1.5653 2.3693 0.7414 0
M  V30 10 C 3.5968 2.8571 1.9607 0
M  V30 11 C 1.0672 -2.2005 -1.1539 0
M  V30 12 C 2.8616 -3.7693 -0.7385 0
M  V30 13 C 0.0332 0.5902 -1.132 0
M  V30 14 C 2.2771 3.1663 1.6422 0
M  V30 15 C 1.5432 -3.5137 -1.1077 0
M  V30 16 C -1.1384 0.0729 -0.2377 0 CFG=2
M  V30 17 C -2.4591 0.0339 -1.062 0
M  V30 18 C -1.3371 0.8691 1.0609 0
M  V30 19 N -3.6819 0.2309 -0.2408 0 CHG=1 CFG=2
M  V30 20 C -2.4588 0.2627 1.9236 0
M  V30 21 C -3.559 -0.4112 1.0823 0
M  V30 22 C -4.8635 -0.286 -0.9519 0
M  V30 23 H 5.2795 1.608 1.5132 0
M  V30 24 H 4.7742 -2.9082 -0.2971 0
M  V30 25 H 0.5546 2.6663 0.5294 0
M  V30 26 H 4.145 3.475 2.6601 0
M  V30 27 H 0.049 -2.0642 -1.4791 0
M  V30 28 H 3.2273 -4.7873 -0.7032 0
M  V30 29 H -0.0643 1.6804 -1.3105 0
M  V30 30 H -0.063 0.1512 -2.1492 0
M  V30 31 H 1.7999 4.0243 2.0984 0
M  V30 32 H 0.8856 -4.3359 -1.3597 0
M  V30 33 H -0.9207 -0.9616 0.0933 0
M  V30 34 H -2.4929 -0.9441 -1.5954 0
M  V30 35 H -2.4362 0.8236 -1.8478 0
M  V30 36 H -1.5977 1.9217 0.8146 0
M  V30 37 H -0.4061 0.8544 1.6639 0
M  V30 38 H -3.8324 1.2593 -0.1005 0
M  V30 39 H -2.0292 -0.4913 2.6188 0
M  V30 40 H -2.9067 1.0694 2.544 0
M  V30 41 H -3.3197 -1.4927 0.96 0
M  V30 42 H -4.5193 -0.3439 1.6421 0
M  V30 43 H -4.9497 0.1868 -1.955 0
M  V30 44 H -4.8027 -1.3897 -1.0807 0
M  V30 45 H -5.7918 -0.045 -0.3884 0
M  V30 END ATOM
M  V30 BEGIN BOND
M  V30 1 1 1 2
M  V30 2 1 1 3
M  V30 3 2 2 4
M  V30 4 1 2 5
M  V30 5 2 3 6
M  V30 6 1 3 7
M  V30 7 1 4 8
M  V30 8 1 4 9
M  V30 9 2 5 10
M  V30 10 1 6 11
M  V30 11 2 7 12
M  V30 12 1 8 13
M  V30 13 2 9 14
M  V30 14 2 11 15
M  V30 15 1 13 16
M  V30 16 1 16 17
M  V30 17 1 16 18
M  V30 18 1 17 19
M  V30 19 1 18 20
M  V30 20 1 19 21
M  V30 21 1 19 22
M  V30 22 1 6 8
M  V30 23 1 10 14
M  V30 24 1 12 15
M  V30 25 1 20 21
M  V30 26 1 5 23
M  V30 27 1 7 24
M  V30 28 1 9 25
M  V30 29 1 10 26
M  V30 30 1 11 27
M  V30 31 1 12 28
M  V30 32 1 13 29
M  V30 33 1 13 30
M  V30 34 1 14 31
M  V30 35 1 15 32
M  V30 36 1 16 33
M  V30 37 1 17 34
M  V30 38 1 17 35
M  V30 39 1 18 36
M  V30 40 1 18 37
M  V30 41 1 19 38
M  V30 42 1 20 39
M  V30 43 1 20 40
M  V30 44 1 21 41
M  V30 45 1 21 42
M  V30 46 1 22 43
M  V30 47 1 22 44
M  V30 48 1 22 45
M  V30 END BOND
M  V30 BEGIN COLLECTION
M  V30 MDLV30/STEABS ATOMS=(2 16 19)
M  V30 END COLLECTION
M  V30 END CTAB
M  END
>  <Structure No>
7837

>  <LogS>
-4.74

>  <MMFF94 Energy>
78.391

$$$$
Compound 7838
Actelion Java MolfileCreator 2.0

  0  0  0  0  0  0              0 V3000
M  V30 BEGIN CTAB
M  V30 COUNTS 50 53 0 0 0
M  V30 BEGIN ATOM
M  V30 1 O 3.5595 1.8594 1.8594 0
M  V30 2 C 3.2652 0.8032 1.3199 0
M  V30 3 C 2.895 0.6905 -0.1268 0 CFG=1
M  V30 4 C 3.2741 -0.4886 2.0422 0
M  V30 5 C 2.3876 -0.7745 -0.2579 0 CFG=1
M  V30 6 C 1.8366 1.7374 -0.526 0
M  V30 7 C 4.1655 0.9007 -0.9762 0
M  V30 8 C 3.0126 -1.5203 0.9508 0
M  V30 9 C 0.8293 -0.9334 -0.2886 0 CFG=1
M  V30 10 C 0.4855 1.5828 0.1919 0
M  V30 11 C 0.0908 0.1244 0.5845 0 CFG=1
M  V30 12 C 0.2559 -0.9804 -1.7238 0
M  V30 13 C -1.4704 -0.1364 0.6089 0 CFG=2
M  V30 14 C -1.2582 -1.2455 -1.7178 0
M  V30 15 C -2.003 -0.2007 -0.8632 0 CFG=1
M  V30 16 C -2.2281 1.008 1.3606 0
M  V30 17 C -1.7408 -1.4648 1.3894 0
M  V30 18 C -3.5298 -0.3981 -0.9176 0
M  V30 19 C -3.7629 0.886 1.2712 0
M  V30 20 C -4.2453 0.7415 -0.1788 0
M  V30 21 H 2.4692 -0.502 2.8073 0
M  V30 22 H 4.2598 -0.6625 2.5249 0
M  V30 23 H 2.792 -1.2454 -1.1829 0
M  V30 24 H 2.2263 2.7608 -0.3279 0
M  V30 25 H 1.6751 1.691 -1.6233 0
M  V30 26 H 3.9371 0.768 -2.0555 0
M  V30 27 H 4.5714 1.925 -0.8283 0
M  V30 28 H 4.9545 0.1693 -0.6954 0
M  V30 29 H 2.3907 -2.3545 1.3399 0
M  V30 30 H 3.9866 -1.9566 0.6354 0
M  V30 31 H 0.62 -1.9391 0.1225 0
M  V30 32 H -0.2675 2.0473 -0.4732 0
M  V30 33 H 0.5073 2.1989 1.1182 0
M  V30 34 H 0.4553 -0.0149 1.6253 0
M  V30 35 H 0.4532 -0.0365 -2.2678 0
M  V30 36 H 0.7492 -1.7978 -2.2932 0
M  V30 37 H -1.6253 -1.1907 -2.7661 0
M  V30 38 H -1.4642 -2.275 -1.3578 0
M  V30 39 H -1.8162 0.7786 -1.3542 0
M  V30 40 H -1.9725 2.0025 0.9445 0
M  V30 41 H -1.9268 1.0235 2.4309 0
M  V30 42 H -2.8174 -1.6743 1.5237 0
M  V30 43 H -1.3333 -2.3601 0.8881 0
M  V30 44 H -1.2922 -1.4133 2.4045 0
M  V30 45 H -3.8655 -0.3905 -1.9776 0
M  V30 46 H -3.8241 -1.3792 -0.4898 0
M  V30 47 H -4.1327 0.0373 1.8815 0
M  V30 48 H -4.2184 1.802 1.706 0
M  V30 49 H -4.0699 1.6978 -0.7194 0
M  V30 50 H -5.3397 0.549 -0.182 0
M  V30 END ATOM
M  V30 BEGIN BOND
M  V30 1 2 1 2
M  V30 2 1 2 3
M  V30 3 1 2 4
M  V30 4 1 3 5
M  V30 5 1 3 6
M  V30 6 1 3 7
M  V30 7 1 4 8
M  V30 8 1 5 9
M  V30 9 1 6 10
M  V30 10 1 9 11
M  V30 11 1 9 12
M  V30 12 1 11 13
M  V30 13 1 12 14
M  V30 14 1 13 15
M  V30 15 1 13 16
M  V30 16 1 13 17
M  V30 17 1 15 18
M  V30 18 1 16 19
M  V30 19 1 18 20
M  V30 20 1 5 8
M  V30 21 1 10 11
M  V30 22 1 14 15
M  V30 23 1 19 20
M  V30 24 1 4 21
M  V30 25 1 4 22
M  V30 26 1 5 23
M  V30 27 1 6 24
M  V30 28 1 6 25
M  V30 29 1 7 26
M  V30 30 1 7 27
M  V30 31 1 7 28
M  V30 32 1 8 29
M  V30 33 1 8 30
M  V30 34 1 9 31
M  V30 35 1 10 32
M  V30 36 1 10 33
M  V30 37 1 11 34
M  V30 38 1 12 35
M  V30 39 1 12 36
M  V30 40 1 14 37
M  V30 41 1 14 38
M  V30 42 1 15 39
M  V30 43 1 16 40
M  V30 44 1 16 41
M  V30 45 1 17 42
M  V30 46 1 17 43
M  V30 47 1 17 44
M  V30 48 1 18 45
M  V30 49 1 18 46
M  V30 50 1 19 47
M  V30 51 1 19 48
M  V30 52 1 20 49
M  V30 53 1 20 50
M  V30 END BOND
M  V30 BEGIN COLLECTION
M  V30 MDLV30/STEABS ATOMS=(6 3 5 9 11 13 15)
M  V30 END COLLECTION
M  V30 END CTAB
M  END
>  <Structure No>
7838

>  <LogS>
-6.7

>  <MMFF94 Energy>
59.565

$$$$
Compound 7839
Actelion Java MolfileCreator 2.0

  0  0  0  0  0  0              0 V3000
M  V30 BEGIN CTAB
M  V30 COUNTS 51 54 0 0 0
M  V30 BEGIN ATOM
M  V30 1 O -5.1782 0.0807 -1.5351 0
M  V30 2 C -4.2291 0.454 -0.8617 0
M  V30 3 C -3.1093 -0.4458 -0.4381 0 CFG=2
M  V30 4 C -4.0556 1.8657 -0.43 0
M  V30 5 C -2.4073 0.418 0.6394 0 CFG=2
M  V30 6 C -2.2086 -0.7072 -1.6736 0
M  V30 7 C -3.6537 -1.7597 0.1592 0
M  V30 8 C -2.6776 1.8773 0.2277 0
M  V30 9 C -0.9195 0.0409 0.9073 0 CFG=1
M  V30 10 C -0.8073 -1.1884 -1.2976 0
M  V30 11 C -0.093 -0.1502 -0.4008 0 CFG=2
M  V30 12 C -0.2567 1.0459 1.8744 0
M  V30 13 C 1.4238 -0.497 -0.1153 0 CFG=2
M  V30 14 C 1.2023 0.6861 2.1607 0
M  V30 15 C 1.9892 0.6063 0.843 0 CFG=1
M  V30 16 C 2.2482 -0.4286 -1.4398 0
M  V30 17 C 1.5626 -1.9302 0.4866 0
M  V30 18 C 3.5045 0.4765 1.0933 0
M  V30 19 C 3.7687 -0.5294 -1.2161 0
M  V30 20 C 4.2779 0.5332 -0.2343 0 CFG=2
M  V30 21 O 5.6453 0.322 3.0E-4 0
M  V30 22 H -4.087 2.5545 -1.3014 0
M  V30 23 H -4.8466 2.1322 0.3035 0
M  V30 24 H -2.9475 0.2772 1.6061 0
M  V30 25 H -2.6853 -1.46 -2.3394 0
M  V30 26 H -2.0986 0.2239 -2.2754 0
M  V30 27 H -4.3812 -1.5498 0.9732 0
M  V30 28 H -4.172 -2.3586 -0.6199 0
M  V30 29 H -2.8293 -2.371 0.5814 0
M  V30 30 H -1.9214 2.2233 -0.5092 0
M  V30 31 H -2.6686 2.5575 1.1072 0
M  V30 32 H -0.9553 -0.9342 1.4374 0
M  V30 33 H -0.2481 -1.341 -2.242 0
M  V30 34 H -0.8854 -2.1701 -0.7856 0
M  V30 35 H -0.1053 0.8202 -0.9461 0
M  V30 36 H -0.8171 1.0634 2.8347 0
M  V30 37 H -0.2853 2.0711 1.4459 0
M  V30 38 H 1.2634 -0.2677 2.7255 0
M  V30 39 H 1.6358 1.4808 2.8067 0
M  V30 40 H 1.8531 1.5928 0.339 0
M  V30 41 H 1.9609 -1.252 -2.1262 0
M  V30 42 H 2.0353 0.5275 -1.9678 0
M  V30 43 H 1.299 -2.7005 -0.2673 0
M  V30 44 H 0.9139 -2.0876 1.3682 0
M  V30 45 H 2.5962 -2.1543 0.8089 0
M  V30 46 H 3.7447 -0.4554 1.646 0
M  V30 47 H 3.8416 1.3246 1.7293 0
M  V30 48 H 4.2812 -0.3901 -2.1928 0
M  V30 49 H 4.0379 -1.544 -0.8531 0
M  V30 50 H 4.1307 1.5362 -0.701 0
M  V30 51 H 5.9995 1.1582 0.4022 0
M  V30 END ATOM
M  V30 BEGIN BOND
M  V30 1 2 1 2
M  V30 2 1 2 3
M  V30 3 1 2 4
M  V30 4 1 3 5
M  V30 5 1 3 6
M  V30 6 1 3 7
M  V30 7 1 4 8
M  V30 8 1 5 9
M  V30 9 1 6 10
M  V30 10 1 9 11
M  V30 11 1 9 12
M  V30 12 1 11 13
M  V30 13 1 12 14
M  V30 14 1 13 15
M  V30 15 1 13 16
M  V30 16 1 13 17
M  V30 17 1 15 18
M  V30 18 1 16 19
M  V30 19 1 18 20
M  V30 20 1 20 21
M  V30 21 1 5 8
M  V30 22 1 10 11
M  V30 23 1 14 15
M  V30 24 1 19 20
M  V30 25 1 4 22
M  V30 26 1 4 23
M  V30 27 1 5 24
M  V30 28 1 6 25
M  V30 29 1 6 26
M  V30 30 1 7 27
M  V30 31 1 7 28
M  V30 32 1 7 29
M  V30 33 1 8 30
M  V30 34 1 8 31
M  V30 35 1 9 32
M  V30 36 1 10 33
M  V30 37 1 10 34
M  V30 38 1 11 35
M  V30 39 1 12 36
M  V30 40 1 12 37
M  V30 41 1 14 38
M  V30 42 1 14 39
M  V30 43 1 15 40
M  V30 44 1 16 41
M  V30 45 1 16 42
M  V30 46 1 17 43
M  V30 47 1 17 44
M  V30 48 1 17 45
M  V30 49 1 18 46
M  V30 50 1 18 47
M  V30 51 1 19 48
M  V30 52 1 19 49
M  V30 53 1 20 50
M  V30 54 1 21 51
M  V30 END BOND
M  V30 BEGIN COLLECTION
M  V30 MDLV30/STEABS ATOMS=(7 3 5 9 11 13 15 20)
M  V30 END COLLECTION
M  V30 END CTAB
M  END
>  <Structure No>
7839

>  <LogS>
-4.4

>  <MMFF94 Energy>
61.643

$$$$
Compound 7840
Actelion Java MolfileCreator 2.0

  0  0  0  0  0  0              0 V3000
M  V30 BEGIN CTAB
M  V30 COUNTS 56 55 0 0 0
M  V30 BEGIN ATOM
M  V30 1 O 2.5022 1.0941 -1.2504 0
M  V30 2 C 3.4123 0.7015 -0.4691 0
M  V30 3 O 4.3326 -0.2666 -0.8905 0
M  V30 4 C 3.5342 1.237 0.9037 0
M  V30 5 C 4.2578 -0.921 -2.1567 0
M  V30 6 C 2.7575 2.1952 1.4484 0
M  V30 7 C 5.6158 -1.5465 -2.4733 0
M  V30 8 C 3.1634 -1.9947 -2.1303 0
M  V30 9 C 1.7209 2.9052 0.6697 0
M  V30 10 C 3.0083 2.6077 2.8718 0
M  V30 11 C 0.408 2.8399 0.9292 0
M  V30 12 C -0.2124 2.0186 2.0324 0
M  V30 13 C -0.1158 0.4925 1.7871 0 CFG=2
M  V30 14 C -0.674 0.0412 0.4133 0
M  V30 15 C -0.7712 -0.2747 2.9452 0
M  V30 16 C -2.1376 0.4498 0.1502 0
M  V30 17 C -2.6809 -0.1605 -1.1652 0
M  V30 18 C -3.6938 -1.3336 -0.9619 0
M  V30 19 O -4.7249 -1.0181 -0.0214 0
M  V30 20 C -2.9436 -2.5498 -0.3841 0
M  V30 21 C -4.2729 -1.7624 -2.3332 0
M  V30 22 C -5.59 0.0237 -0.4342 0
M  V30 23 H 4.3049 0.7891 1.5208 0
M  V30 24 H 4.0277 -0.1773 -2.9526 0
M  V30 25 H 5.5831 -2.0581 -3.4572 0
M  V30 26 H 6.3927 -0.7525 -2.5155 0
M  V30 27 H 5.8977 -2.2827 -1.689 0
M  V30 28 H 3.1129 -2.5151 -3.1111 0
M  V30 29 H 2.1722 -1.5341 -1.9295 0
M  V30 30 H 3.3745 -2.7402 -1.3348 0
M  V30 31 H 2.0443 3.4768 -0.1921 0
M  V30 32 H 2.3983 3.4962 3.1435 0
M  V30 33 H 2.7544 1.7723 3.5569 0
M  V30 34 H 4.0771 2.8782 3.0019 0
M  V30 35 H -0.2626 3.4018 0.2878 0
M  V30 36 H 0.2625 2.2779 3.0013 0
M  V30 37 H -1.281 2.3102 2.1269 0
M  V30 38 H 0.9572 0.2073 1.8014 0
M  V30 39 H -0.5738 -1.0636 0.3371 0
M  V30 40 H -0.0366 0.4655 -0.3919 0
M  V30 41 H -1.8191 0.0589 3.1054 0
M  V30 42 H -0.7684 -1.3689 2.7472 0
M  V30 43 H -0.2052 -0.0947 3.8844 0
M  V30 44 H -2.184 1.558 0.0627 0
M  V30 45 H -2.7796 0.1668 1.0092 0
M  V30 46 H -3.1619 0.6504 -1.7552 0
M  V30 47 H -1.84 -0.5063 -1.8109 0
M  V30 48 H -2.583 -2.3348 0.6446 0
M  V30 49 H -2.0715 -2.8248 -1.0189 0
M  V30 50 H -3.6243 -3.4283 -0.3195 0
M  V30 51 H -3.4813 -2.2176 -2.9695 0
M  V30 52 H -4.6781 -0.8911 -2.8916 0
M  V30 53 H -5.0875 -2.5068 -2.1935 0
M  V30 54 H -6.2149 -0.2831 -1.2989 0
M  V30 55 H -6.2917 0.2378 0.4004 0
M  V30 56 H -5.0495 0.9717 -0.6389 0
M  V30 END ATOM
M  V30 BEGIN BOND
M  V30 1 2 1 2
M  V30 2 1 2 3
M  V30 3 1 2 4
M  V30 4 1 3 5
M  V30 5 2 4 6
M  V30 6 1 5 7
M  V30 7 1 5 8
M  V30 8 1 6 9
M  V30 9 1 6 10
M  V30 10 2 9 11
M  V30 11 1 11 12
M  V30 12 1 12 13
M  V30 13 1 13 14
M  V30 14 1 13 15
M  V30 15 1 14 16
M  V30 16 1 16 17
M  V30 17 1 17 18
M  V30 18 1 18 19
M  V30 19 1 18 20
M  V30 20 1 18 21
M  V30 21 1 19 22
M  V30 22 1 4 23
M  V30 23 1 5 24
M  V30 24 1 7 25
M  V30 25 1 7 26
M  V30 26 1 7 27
M  V30 27 1 8 28
M  V30 28 1 8 29
M  V30 29 1 8 30
M  V30 30 1 9 31
M  V30 31 1 10 32
M  V30 32 1 10 33
M  V30 33 1 10 34
M  V30 34 1 11 35
M  V30 35 1 12 36
M  V30 36 1 12 37
M  V30 37 1 13 38
M  V30 38 1 14 39
M  V30 39 1 14 40
M  V30 40 1 15 41
M  V30 41 1 15 42
M  V30 42 1 15 43
M  V30 43 1 16 44
M  V30 44 1 16 45
M  V30 45 1 17 46
M  V30 46 1 17 47
M  V30 47 1 20 48
M  V30 48 1 20 49
M  V30 49 1 20 50
M  V30 50 1 21 51
M  V30 51 1 21 52
M  V30 52 1 21 53
M  V30 53 1 22 54
M  V30 54 1 22 55
M  V30 55 1 22 56
M  V30 END BOND
M  V30 BEGIN COLLECTION
M  V30 MDLV30/STEABS ATOMS=(1 13)
M  V30 END COLLECTION
M  V30 END CTAB
M  END
>  <Structure No>
7840

>  <LogS>
-5.19

>  <MMFF94 Energy>
35.916

$$$$
Compound 7841
Actelion Java MolfileCreator 2.0

  0  0  0  0  0  0              0 V3000
M  V30 BEGIN CTAB
M  V30 COUNTS 50 55 0 0 0
M  V30 BEGIN ATOM
M  V30 1 O -2.9408 2.4502 0.3264 0
M  V30 2 C -2.5426 1.5698 -0.6955 0 CFG=1
M  V30 3 N -1.0564 1.5854 -0.8327 0 CFG=1
M  V30 4 C -3.0477 0.1063 -0.4237 0 CFG=1
M  V30 5 C -0.3933 1.2534 0.4845 0 CFG=2
M  V30 6 C -0.6787 0.564 -1.8621 0 CFG=2
M  V30 7 C -1.8166 -0.7431 0.0159 0 CFG=2
M  V30 8 C -4.2627 0.0421 0.5374 0
M  V30 9 C 1.1179 1.0009 0.2228 0 CFG=1
M  V30 10 C -1.0872 0.0377 1.1391 0
M  V30 11 C -0.8803 -0.8599 -1.2412 0 CFG=2
M  V30 12 C 0.8259 0.6762 -2.1857 0
M  V30 13 C -4.8995 -1.3467 0.5999 0
M  V30 14 N 1.9866 0.541 1.306 0
M  V30 15 C 1.373 0.0066 -0.9465 0 CFG=2
M  V30 16 C 0.5576 -1.3131 -0.9278 0 CFG=1
M  V30 17 C 3.0985 -0.0405 0.6065 0
M  V30 18 C 2.1 1.2266 2.5894 0
M  V30 19 C 2.8195 -0.2644 -0.7328 0
M  V30 20 O 0.6739 -2.0479 0.2644 0
M  V30 21 C 4.3649 -0.3238 1.1277 0
M  V30 22 C 3.7591 -0.8314 -1.5924 0
M  V30 23 C 5.3365 -0.8664 0.2697 0
M  V30 24 C 5.0346 -1.1209 -1.0829 0
M  V30 25 H -2.6969 3.3633 0.0227 0
M  V30 26 H -3.0005 1.9229 -1.6496 0
M  V30 27 H -3.4087 -0.3006 -1.3967 0
M  V30 28 H -0.4784 2.1275 1.1676 0
M  V30 29 H -1.2712 0.6956 -2.7957 0
M  V30 30 H -2.1073 -1.7549 0.3654 0
M  V30 31 H -3.9928 0.3606 1.5646 0
M  V30 32 H -5.0377 0.7491 0.1683 0
M  V30 33 H 1.5181 2.0018 -0.0763 0
M  V30 34 H -0.3851 -0.5879 1.7213 0
M  V30 35 H -1.8088 0.3965 1.9003 0
M  V30 36 H -1.339 -1.5449 -1.9889 0
M  V30 37 H 1.0804 0.1017 -3.1046 0
M  V30 38 H 1.1537 1.7314 -2.3146 0
M  V30 39 H -5.122 -1.7225 -0.4212 0
M  V30 40 H -4.2343 -2.0634 1.1231 0
M  V30 41 H -5.8521 -1.2895 1.1678 0
M  V30 42 H 0.8986 -1.956 -1.777 0
M  V30 43 H 1.0899 1.4454 2.9929 0
M  V30 44 H 2.6293 0.5812 3.3201 0
M  V30 45 H 2.6572 2.1779 2.4596 0
M  V30 46 H 1.5346 -2.5399 0.2193 0
M  V30 47 H 4.6014 -0.1324 2.1655 0
M  V30 48 H 3.5089 -1.0524 -2.6217 0
M  V30 49 H 6.3227 -1.0955 0.6523 0
M  V30 50 H 5.7867 -1.553 -1.73 0
M  V30 END ATOM
M  V30 BEGIN BOND
M  V30 1 1 1 2
M  V30 2 1 2 3
M  V30 3 1 2 4
M  V30 4 1 3 5
M  V30 5 1 3 6
M  V30 6 1 4 7
M  V30 7 1 4 8
M  V30 8 1 5 9
M  V30 9 1 5 10
M  V30 10 1 6 11
M  V30 11 1 6 12
M  V30 12 1 8 13
M  V30 13 1 9 14
M  V30 14 1 9 15
M  V30 15 1 11 16
M  V30 16 1 14 17
M  V30 17 1 14 18
M  V30 18 1 15 19
M  V30 19 1 16 20
M  V30 20 1 17 21
M  V30 21 1 19 22
M  V30 22 2 21 23
M  V30 23 2 22 24
M  V30 24 1 7 10
M  V30 25 1 7 11
M  V30 26 1 12 15
M  V30 27 1 15 16
M  V30 28 2 17 19
M  V30 29 1 23 24
M  V30 30 1 1 25
M  V30 31 1 2 26
M  V30 32 1 4 27
M  V30 33 1 5 28
M  V30 34 1 6 29
M  V30 35 1 7 30
M  V30 36 1 8 31
M  V30 37 1 8 32
M  V30 38 1 9 33
M  V30 39 1 10 34
M  V30 40 1 10 35
M  V30 41 1 11 36
M  V30 42 1 12 37
M  V30 43 1 12 38
M  V30 44 1 13 39
M  V30 45 1 13 40
M  V30 46 1 13 41
M  V30 47 1 16 42
M  V30 48 1 18 43
M  V30 49 1 18 44
M  V30 50 1 18 45
M  V30 51 1 20 46
M  V30 52 1 21 47
M  V30 53 1 22 48
M  V30 54 1 23 49
M  V30 55 1 24 50
M  V30 END BOND
M  V30 BEGIN COLLECTION
M  V30 MDLV30/STEABS ATOMS=(10 2 3 4 5 6 7 9 11 15 16)
M  V30 END COLLECTION
M  V30 END CTAB
M  END
>  <Structure No>
7841

>  <LogS>
-2.82

>  <MMFF94 Energy>
91.49

$$$$
Compound 7842
Actelion Java MolfileCreator 2.0

  0  0  0  0  0  0              0 V3000
M  V30 BEGIN CTAB
M  V30 COUNTS 44 46 0 0 0
M  V30 BEGIN ATOM
M  V30 1 O 1.8442 0.6411 0.2404 0
M  V30 2 C 1.1447 -0.3803 0.4799 0
M  V30 3 N -0.2765 -0.3341 0.2636 0
M  V30 4 C 1.7669 -1.5901 1.0593 0
M  V30 5 C -1.1077 0.6882 0.5668 0
M  V30 6 C -1.0544 -1.2951 -0.3068 0
M  V30 7 C 3.0582 -1.934 0.9374 0
M  V30 8 C -2.3997 0.383 0.2185 0
M  V30 9 C -0.7933 1.9057 1.179 0
M  V30 10 C -2.3915 -0.8879 -0.3248 0
M  V30 11 C -0.5409 -2.6032 -0.8393 0
M  V30 12 C 4.0399 -1.2699 0.0539 0
M  V30 13 C -3.4513 1.2753 0.4306 0
M  V30 14 C -1.8328 2.8241 1.4067 0
M  V30 15 C -3.57 -1.6306 -0.8875 0
M  V30 16 C 5.3332 -1.0143 0.5356 0
M  V30 17 C 3.7366 -0.9774 -1.2888 0
M  V30 18 C -3.1681 2.516 1.0308 0
M  V30 19 C -3.7799 -1.2569 -2.3193 0
M  V30 20 C 6.2929 -0.4276 -0.2955 0
M  V30 21 C 4.6992 -0.3924 -2.117 0
M  V30 22 O -4.2298 3.4086 1.2392 0
M  V30 23 O -4.4236 -0.2151 -2.6136 0
M  V30 24 O -3.2296 -2.0343 -3.3306 0 CHG=-1
M  V30 25 C 5.9746 -0.1125 -1.6193 0
M  V30 26 C -4.093 4.695 1.834 0
M  V30 27 H 1.1337 -2.2222 1.6697 0
M  V30 28 H 3.412 -2.7722 1.5255 0
M  V30 29 H 0.2164 2.1457 1.4818 0
M  V30 30 H -0.5164 -3.3529 -0.0219 0
M  V30 31 H -1.1896 -2.9784 -1.6564 0
M  V30 32 H 0.4784 -2.4768 -1.2581 0
M  V30 33 H -4.4638 1.0228 0.1434 0
M  V30 34 H -1.5919 3.7677 1.8766 0
M  V30 35 H -3.4094 -2.7261 -0.8036 0
M  V30 36 H -4.4826 -1.391 -0.301 0
M  V30 37 H 5.5957 -1.2606 1.5575 0
M  V30 38 H 2.7621 -1.2131 -1.698 0
M  V30 39 H 7.285 -0.222 0.0855 0
M  V30 40 H 4.4587 -0.1641 -3.1472 0
M  V30 41 H 6.7196 0.3374 -2.2625 0
M  V30 42 H -3.7041 4.5975 2.8696 0
M  V30 43 H -5.0879 5.1842 1.873 0
M  V30 44 H -3.4102 5.3259 1.2264 0
M  V30 END ATOM
M  V30 BEGIN BOND
M  V30 1 2 1 2
M  V30 2 1 2 3
M  V30 3 1 2 4
M  V30 4 1 3 5
M  V30 5 1 3 6
M  V30 6 2 4 7
M  V30 7 2 5 8
M  V30 8 1 5 9
M  V30 9 2 6 10
M  V30 10 1 6 11
M  V30 11 1 7 12
M  V30 12 1 8 13
M  V30 13 2 9 14
M  V30 14 1 10 15
M  V30 15 2 12 16
M  V30 16 1 12 17
M  V30 17 2 13 18
M  V30 18 1 15 19
M  V30 19 1 16 20
M  V30 20 2 17 21
M  V30 21 1 18 22
M  V30 22 2 19 23
M  V30 23 1 19 24
M  V30 24 2 20 25
M  V30 25 1 22 26
M  V30 26 1 8 10
M  V30 27 1 14 18
M  V30 28 1 21 25
M  V30 29 1 4 27
M  V30 30 1 7 28
M  V30 31 1 9 29
M  V30 32 1 11 30
M  V30 33 1 11 31
M  V30 34 1 11 32
M  V30 35 1 13 33
M  V30 36 1 14 34
M  V30 37 1 15 35
M  V30 38 1 15 36
M  V30 39 1 16 37
M  V30 40 1 17 38
M  V30 41 1 20 39
M  V30 42 1 21 40
M  V30 43 1 25 41
M  V30 44 1 26 42
M  V30 45 1 26 43
M  V30 46 1 26 44
M  V30 END BOND
M  V30 END CTAB
M  END
>  <Structure No>
7842

>  <LogS>
-5.54

>  <MMFF94 Energy>
130.96

$$$$
Compound 7843
Actelion Java MolfileCreator 2.0

  0  0  0  0  0  0              0 V3000
M  V30 BEGIN CTAB
M  V30 COUNTS 46 48 0 0 0
M  V30 BEGIN ATOM
M  V30 1 Cl 5.8894 4.169 0.9797 0
M  V30 2 C 4.9219 2.8589 0.3222 0
M  V30 3 Cl 3.386 3.2596 -0.4429 0
M  V30 4 C 5.371 1.5983 0.4082 0
M  V30 5 C 4.6124 0.4301 -0.1687 0 CFG=1
M  V30 6 C 4.6129 -0.8825 0.628 0
M  V30 7 C 3.3749 0.0234 0.6463 0 CFG=2
M  V30 8 C 5.3882 -0.9524 1.952 0
M  V30 9 C 4.5816 -2.1616 -0.2213 0
M  V30 10 C 2.2008 -0.3935 -0.1856 0
M  V30 11 O 1.5076 -1.3838 0.1714 0
M  V30 12 O 1.8527 0.3527 -1.3168 0
M  V30 13 C 0.6876 0.0957 -2.0965 0
M  V30 14 C -0.5484 0.4916 -1.3358 0
M  V30 15 C -1.5487 -0.4524 -1.0513 0
M  V30 16 C -0.7036 1.8142 -0.8948 0
M  V30 17 C -2.6967 -0.0819 -0.3403 0
M  V30 18 C -1.8353 2.184 -0.1649 0
M  V30 19 O -3.6634 -1.0612 -0.0663 0
M  V30 20 C -2.8254 1.2408 0.1198 0
M  V30 21 C -5.0377 -0.8303 0.0949 0
M  V30 22 C -5.7712 -1.6915 0.9211 0
M  V30 23 C -5.7063 0.2044 -0.5865 0
M  V30 24 C -7.1462 -1.5046 1.0951 0
M  V30 25 C -7.0807 0.3914 -0.408 0
M  V30 26 C -7.7991 -0.4589 0.4366 0
M  V30 27 H 6.3452 1.4176 0.8522 0
M  V30 28 H 4.5184 0.3537 -1.2741 0
M  V30 29 H 3.1861 0.6167 1.5675 0
M  V30 30 H 5.2462 -0.0454 2.5772 0
M  V30 31 H 6.4709 -1.0752 1.7394 0
M  V30 32 H 5.0385 -1.8281 2.5377 0
M  V30 33 H 4.0262 -2.9537 0.3232 0
M  V30 34 H 4.1015 -2.0041 -1.2106 0
M  V30 35 H 5.6201 -2.5121 -0.397 0
M  V30 36 H 0.6636 -0.9761 -2.3934 0
M  V30 37 H 0.7427 0.6991 -3.0266 0
M  V30 38 H -1.4406 -1.4771 -1.3841 0
M  V30 39 H 0.0586 2.5541 -1.1053 0
M  V30 40 H -1.9406 3.2017 0.1881 0
M  V30 41 H -3.6792 1.5391 0.7135 0
M  V30 42 H -5.2725 -2.5041 1.4337 0
M  V30 43 H -5.1721 0.8528 -1.2683 0
M  V30 44 H -7.7068 -2.1749 1.7346 0
M  V30 45 H -7.5903 1.1904 -0.9309 0
M  V30 46 H -8.8635 -0.3161 0.5704 0
M  V30 END ATOM
M  V30 BEGIN BOND
M  V30 1 1 1 2
M  V30 2 1 2 3
M  V30 3 2 2 4
M  V30 4 1 4 5
M  V30 5 1 5 6
M  V30 6 1 5 7
M  V30 7 1 6 8
M  V30 8 1 6 9
M  V30 9 1 7 10
M  V30 10 2 10 11
M  V30 11 1 10 12
M  V30 12 1 12 13
M  V30 13 1 13 14
M  V30 14 2 14 15
M  V30 15 1 14 16
M  V30 16 1 15 17
M  V30 17 2 16 18
M  V30 18 1 17 19
M  V30 19 2 17 20
M  V30 20 1 19 21
M  V30 21 2 21 22
M  V30 22 1 21 23
M  V30 23 1 22 24
M  V30 24 2 23 25
M  V30 25 2 24 26
M  V30 26 1 6 7
M  V30 27 1 18 20
M  V30 28 1 25 26
M  V30 29 1 4 27
M  V30 30 1 5 28
M  V30 31 1 7 29
M  V30 32 1 8 30
M  V30 33 1 8 31
M  V30 34 1 8 32
M  V30 35 1 9 33
M  V30 36 1 9 34
M  V30 37 1 9 35
M  V30 38 1 13 36
M  V30 39 1 13 37
M  V30 40 1 15 38
M  V30 41 1 16 39
M  V30 42 1 18 40
M  V30 43 1 20 41
M  V30 44 1 22 42
M  V30 45 1 23 43
M  V30 46 1 24 44
M  V30 47 1 25 45
M  V30 48 1 26 46
M  V30 END BOND
M  V30 BEGIN COLLECTION
M  V30 MDLV30/STEABS ATOMS=(2 5 7)
M  V30 END COLLECTION
M  V30 END CTAB
M  END
>  <Structure No>
7843

>  <LogS>
-6.29

>  <MMFF94 Energy>
60.162

$$$$
Compound 7844
Actelion Java MolfileCreator 2.0

  0  0  0  0  0  0              0 V3000
M  V30 BEGIN CTAB
M  V30 COUNTS 52 55 0 0 0
M  V30 BEGIN ATOM
M  V30 1 Cl 4.7087 1.8154 2.8893 0
M  V30 2 C 4.8647 1.0811 1.2937 0
M  V30 3 C 3.7504 0.6161 0.5444 0
M  V30 4 C 6.1499 1.0242 0.7529 0
M  V30 5 C 3.9509 0.2364 -0.8108 0
M  V30 6 C 2.3453 0.6428 1.1415 0 CFG=2
M  V30 7 C 6.3515 0.5555 -0.5388 0
M  V30 8 C 2.7779 -0.0447 -1.6811 0
M  V30 9 C 5.2671 0.1804 -1.3287 0
M  V30 10 O 2.3961 0.2239 2.4837 0
M  V30 11 C 1.3483 -0.28 0.3956 0 CFG=2
M  V30 12 O 2.9452 -0.2818 -2.9087 0
M  V30 13 C 1.4134 -0.0611 -1.0997 0
M  V30 14 O 5.5169 -0.2439 -2.6297 0 CHG=-1
M  V30 15 C -0.0691 -0.1027 0.9694 0
M  V30 16 C 0.3042 -0.0072 -1.8828 0
M  V30 17 C -1.1122 -0.7983 0.0825 0 CFG=2
M  V30 18 O 0.4535 0.2426 -3.2507 0
M  V30 19 C -1.1166 -0.1467 -1.3266 0 CFG=2
M  V30 20 C -2.5259 -0.8162 0.7867 0 CFG=2
M  V30 21 O -1.8464 -1.0009 -2.18 0
M  V30 22 C -1.7969 1.2166 -1.2406 0
M  V30 23 N -3.0852 -2.1824 0.9804 0
M  V30 24 C -3.5554 0.0893 0.1308 0
M  V30 25 O -1.2892 2.2001 -1.763 0
M  V30 26 C -3.1555 1.3458 -0.6004 0 CFG=1
M  V30 27 C -2.3456 -2.9625 1.9867 0
M  V30 28 C -3.2696 -2.9554 -0.2606 0
M  V30 29 O -4.746 -0.1371 0.2958 0
M  V30 30 C -3.1979 2.5186 0.3447 0
M  V30 31 O -2.4248 2.5581 1.3397 0
M  V30 32 N -4.1161 3.5906 0.1271 0
M  V30 33 H 7.0002 1.3607 1.333 0
M  V30 34 H 1.9894 1.699 1.0715 0
M  V30 35 H 7.3555 0.5145 -0.9422 0
M  V30 36 H 1.7478 0.7792 2.9915 0
M  V30 37 H 1.6542 -1.3355 0.5772 0
M  V30 38 H -0.0974 -0.5508 1.9873 0
M  V30 39 H -0.3136 0.9769 1.0654 0
M  V30 40 H -0.7509 -1.8394 -0.0456 0
M  V30 41 H -0.3345 0.37 -3.8721 0
M  V30 42 H -2.4194 -0.367 1.8 0
M  V30 43 H -2.1974 -0.4791 -2.9484 0
M  V30 44 H -3.8834 1.5124 -1.4246 0
M  V30 45 H -1.3296 -3.2347 1.6313 0
M  V30 46 H -2.257 -2.3899 2.9345 0
M  V30 47 H -2.8997 -3.8966 2.2206 0
M  V30 48 H -3.8021 -2.3541 -1.0261 0
M  V30 49 H -2.304 -3.3115 -0.6763 0
M  V30 50 H -3.9033 -3.8435 -0.0523 0
M  V30 51 H -4.7721 3.5795 -0.685 0
M  V30 52 H -4.1432 4.4012 0.785 0
M  V30 END ATOM
M  V30 BEGIN BOND
M  V30 1 1 1 2
M  V30 2 2 2 3
M  V30 3 1 2 4
M  V30 4 1 3 5
M  V30 5 1 3 6
M  V30 6 2 4 7
M  V30 7 1 5 8
M  V30 8 2 5 9
M  V30 9 1 6 10
M  V30 10 1 6 11
M  V30 11 2 8 12
M  V30 12 1 8 13
M  V30 13 1 9 14
M  V30 14 1 11 15
M  V30 15 2 13 16
M  V30 16 1 15 17
M  V30 17 1 16 18
M  V30 18 1 16 19
M  V30 19 1 17 20
M  V30 20 1 19 21
M  V30 21 1 19 22
M  V30 22 1 20 23
M  V30 23 1 20 24
M  V30 24 2 22 25
M  V30 25 1 22 26
M  V30 26 1 23 27
M  V30 27 1 23 28
M  V30 28 2 24 29
M  V30 29 1 26 30
M  V30 30 2 30 31
M  V30 31 1 30 32
M  V30 32 1 7 9
M  V30 33 1 11 13
M  V30 34 1 17 19
M  V30 35 1 24 26
M  V30 36 1 4 33
M  V30 37 1 6 34
M  V30 38 1 7 35
M  V30 39 1 10 36
M  V30 40 1 11 37
M  V30 41 1 15 38
M  V30 42 1 15 39
M  V30 43 1 17 40
M  V30 44 1 18 41
M  V30 45 1 20 42
M  V30 46 1 21 43
M  V30 47 1 26 44
M  V30 48 1 27 45
M  V30 49 1 27 46
M  V30 50 1 27 47
M  V30 51 1 28 48
M  V30 52 1 28 49
M  V30 53 1 28 50
M  V30 54 1 32 51
M  V30 55 1 32 52
M  V30 END BOND
M  V30 BEGIN COLLECTION
M  V30 MDLV30/STEABS ATOMS=(6 6 11 17 19 20 26)
M  V30 END COLLECTION
M  V30 END CTAB
M  END
>  <Structure No>
7844

>  <LogS>
-2.52

>  <MMFF94 Energy>
81.906

$$$$
Compound 7845
Actelion Java MolfileCreator 2.0

  0  0  0  0  0  0              0 V3000
M  V30 BEGIN CTAB
M  V30 COUNTS 50 53 0 0 0
M  V30 BEGIN ATOM
M  V30 1 S -1.3789 -0.892 2.3531 0
M  V30 2 C -1.6563 -1.93 0.9152 0
M  V30 3 C -2.5558 0.3551 1.8187 0
M  V30 4 C -1.6834 -1.3463 -0.3652 0
M  V30 5 C -1.7848 -3.3141 1.0642 0
M  V30 6 C -2.5225 0.8115 0.4869 0
M  V30 7 C -3.4456 0.9204 2.7379 0
M  V30 8 N -1.7298 0.0924 -0.4844 0
M  V30 9 C -1.8244 -2.1732 -1.4937 0
M  V30 10 C -1.9143 -4.1299 -0.0623 0
M  V30 11 C -3.3686 1.8669 0.1024 0
M  V30 12 C -4.2844 1.9665 2.3444 0
M  V30 13 C -1.0433 0.7845 -1.5889 0
M  V30 14 C -1.9277 -3.5625 -1.3426 0
M  V30 15 C -4.2389 2.445 1.032 0
M  V30 16 C -0.0953 1.8837 -1.0781 0
M  V30 17 C -2.074 -4.4043 -2.5011 0
M  V30 18 C 0.9002 1.427 0.0146 0
M  V30 19 N -2.1916 -5.0809 -3.4326 0
M  V30 20 N 1.7137 0.2324 -0.3435 0 CHG=1 CFG=1
M  V30 21 C 2.6216 0.4433 -1.4981 0
M  V30 22 C 2.4631 -0.2831 0.828 0
M  V30 23 C 3.8024 1.3735 -1.1699 0
M  V30 24 C 3.6399 0.6232 1.2308 0
M  V30 25 C 4.5861 0.8693 0.0468 0 CFG=1
M  V30 26 O 5.2663 -0.3132 -0.2896 0
M  V30 27 H -1.7608 -3.7608 2.0502 0
M  V30 28 H -3.4687 0.5698 3.7618 0
M  V30 29 H -1.896 -1.7378 -2.4829 0
M  V30 30 H -2.0024 -5.2023 0.0641 0
M  V30 31 H -3.3844 2.222 -0.9185 0
M  V30 32 H -4.9652 2.4114 3.0587 0
M  V30 33 H -0.452 0.0712 -2.2003 0
M  V30 34 H -1.7936 1.2302 -2.2749 0
M  V30 35 H -4.8925 3.2532 0.7298 0
M  V30 36 H -0.7057 2.7127 -0.6597 0
M  V30 37 H 0.4536 2.321 -1.9376 0
M  V30 38 H 1.5492 2.2919 0.261 0
M  V30 39 H 0.3133 1.218 0.9354 0
M  V30 40 H 1.0557 -0.5359 -0.6076 0
M  V30 41 H 2.0708 0.8411 -2.3746 0
M  V30 42 H 3.029 -0.5393 -1.8278 0
M  V30 43 H 2.8588 -1.2989 0.5987 0
M  V30 44 H 1.7846 -0.4082 1.7013 0
M  V30 45 H 4.4812 1.423 -2.0489 0
M  V30 46 H 3.439 2.4063 -0.9849 0
M  V30 47 H 4.2014 0.1432 2.0615 0
M  V30 48 H 3.2616 1.5933 1.6169 0
M  V30 49 H 5.3249 1.6544 0.3316 0
M  V30 50 H 5.9628 -0.4511 0.4045 0
M  V30 END ATOM
M  V30 BEGIN BOND
M  V30 1 1 1 2
M  V30 2 1 1 3
M  V30 3 2 2 4
M  V30 4 1 2 5
M  V30 5 2 3 6
M  V30 6 1 3 7
M  V30 7 1 4 8
M  V30 8 1 4 9
M  V30 9 2 5 10
M  V30 10 1 6 11
M  V30 11 2 7 12
M  V30 12 1 8 13
M  V30 13 2 9 14
M  V30 14 2 11 15
M  V30 15 1 13 16
M  V30 16 1 14 17
M  V30 17 1 16 18
M  V30 18 3 17 19
M  V30 19 1 18 20
M  V30 20 1 20 21
M  V30 21 1 20 22
M  V30 22 1 21 23
M  V30 23 1 22 24
M  V30 24 1 23 25
M  V30 25 1 25 26
M  V30 26 1 6 8
M  V30 27 1 10 14
M  V30 28 1 12 15
M  V30 29 1 24 25
M  V30 30 1 5 27
M  V30 31 1 7 28
M  V30 32 1 9 29
M  V30 33 1 10 30
M  V30 34 1 11 31
M  V30 35 1 12 32
M  V30 36 1 13 33
M  V30 37 1 13 34
M  V30 38 1 15 35
M  V30 39 1 16 36
M  V30 40 1 16 37
M  V30 41 1 18 38
M  V30 42 1 18 39
M  V30 43 1 20 40
M  V30 44 1 21 41
M  V30 45 1 21 42
M  V30 46 1 22 43
M  V30 47 1 22 44
M  V30 48 1 23 45
M  V30 49 1 23 46
M  V30 50 1 24 47
M  V30 51 1 24 48
M  V30 52 1 25 49
M  V30 53 1 26 50
M  V30 END BOND
M  V30 BEGIN COLLECTION
M  V30 MDLV30/STEABS ATOMS=(2 20 25)
M  V30 END COLLECTION
M  V30 END CTAB
M  END
>  <Structure No>
7845

>  <LogS>
-3.98

>  <MMFF94 Energy>
72.433

$$$$
Compound 7846
Actelion Java MolfileCreator 2.0

  0  0  0  0  0  0              0 V3000
M  V30 BEGIN CTAB
M  V30 COUNTS 54 58 0 0 0
M  V30 BEGIN ATOM
M  V30 1 O -5.8034 1.9589 -1.1423 0
M  V30 2 C -4.7586 1.462 -0.6448 0
M  V30 3 C -4.407 0.066 -0.9491 0
M  V30 4 C -3.9022 2.2986 0.2595 0
M  V30 5 C -3.3425 -0.531 -0.3867 0
M  V30 6 C -2.4923 1.7056 0.4106 0
M  V30 7 C -2.5131 0.1707 0.6997 0 CFG=2
M  V30 8 C -2.9105 -1.9034 -0.8637 0
M  V30 9 C -1.0631 -0.4493 0.7046 0 CFG=1
M  V30 10 C -3.1799 -0.0997 2.0704 0
M  V30 11 C -1.4426 -1.9075 -1.3541 0
M  V30 12 C -0.5979 -0.7583 -0.7494 0 CFG=2
M  V30 13 C 0.0213 0.3382 1.5142 0 CFG=1
M  V30 14 C 0.9411 -1.0193 -0.8323 0 CFG=2
M  V30 15 O 0.8018 -0.6089 2.221 0
M  V30 16 C 0.9742 1.0791 0.5783 0
M  V30 17 C 1.7993 -0.1042 0.1141 0 CFG=1
M  V30 18 C 1.4812 -0.7741 -2.2405 0
M  V30 19 C 2.0007 -0.7851 1.4919 0 CFG=1
M  V30 20 C 3.0532 0.3052 -0.7285 0 CFG=2
M  V30 21 C 2.9499 -0.459 -2.0542 0
M  V30 22 O 3.0373 -0.1815 2.2223 0
M  V30 23 C 4.4085 0.0725 -0.0898 0
M  V30 24 O 4.7936 -1.0671 0.1333 0
M  V30 25 C 5.3101 1.2403 0.213 0
M  V30 26 O 6.3129 0.8808 1.1251 0
M  V30 27 H -4.9949 -0.4569 -1.6942 0
M  V30 28 H -3.8183 3.3251 -0.159 0
M  V30 29 H -4.3925 2.3828 1.2521 0
M  V30 30 H -1.938 1.9087 -0.5296 0
M  V30 31 H -1.9779 2.2618 1.2211 0
M  V30 32 H -3.0103 -2.6072 -0.0094 0
M  V30 33 H -3.5671 -2.2879 -1.6754 0
M  V30 34 H -1.1446 -1.4444 1.203 0
M  V30 35 H -3.159 -1.1839 2.3131 0
M  V30 36 H -4.2458 0.2095 2.0726 0
M  V30 37 H -2.6561 0.4489 2.8809 0
M  V30 38 H -0.9938 -2.892 -1.0995 0
M  V30 39 H -1.4264 -1.8165 -2.4624 0
M  V30 40 H -0.8204 0.139 -1.3658 0
M  V30 41 H -0.4266 1.0367 2.2487 0
M  V30 42 H 1.1401 -2.0868 -0.5863 0
M  V30 43 H 1.5954 1.8032 1.1538 0
M  V30 44 H 0.4711 1.6311 -0.2433 0
M  V30 45 H 1.339 -1.6647 -2.8908 0
M  V30 46 H 0.9897 0.1039 -2.7152 0
M  V30 47 H 2.217 -1.8712 1.375 0
M  V30 48 H 2.9696 1.3876 -0.9798 0
M  V30 49 H 3.5093 -1.4206 -2.0157 0
M  V30 50 H 3.3408 0.1449 -2.9027 0
M  V30 51 H 3.1657 -0.7326 3.0382 0
M  V30 52 H 4.7132 2.0896 0.6167 0
M  V30 53 H 5.7882 1.5747 -0.7312 0
M  V30 54 H 5.8781 0.8225 2.0166 0
M  V30 END ATOM
M  V30 BEGIN BOND
M  V30 1 2 1 2
M  V30 2 1 2 3
M  V30 3 1 2 4
M  V30 4 2 3 5
M  V30 5 1 4 6
M  V30 6 1 5 7
M  V30 7 1 5 8
M  V30 8 1 7 9
M  V30 9 1 7 10
M  V30 10 1 8 11
M  V30 11 1 9 12
M  V30 12 1 9 13
M  V30 13 1 12 14
M  V30 14 1 13 15
M  V30 15 1 13 16
M  V30 16 1 14 17
M  V30 17 1 14 18
M  V30 18 1 15 19
M  V30 19 1 17 20
M  V30 20 1 18 21
M  V30 21 1 19 22
M  V30 22 1 20 23
M  V30 23 2 23 24
M  V30 24 1 23 25
M  V30 25 1 25 26
M  V30 26 1 6 7
M  V30 27 1 11 12
M  V30 28 1 16 17
M  V30 29 1 17 19
M  V30 30 1 20 21
M  V30 31 1 3 27
M  V30 32 1 4 28
M  V30 33 1 4 29
M  V30 34 1 6 30
M  V30 35 1 6 31
M  V30 36 1 8 32
M  V30 37 1 8 33
M  V30 38 1 9 34
M  V30 39 1 10 35
M  V30 40 1 10 36
M  V30 41 1 10 37
M  V30 42 1 11 38
M  V30 43 1 11 39
M  V30 44 1 12 40
M  V30 45 1 13 41
M  V30 46 1 14 42
M  V30 47 1 16 43
M  V30 48 1 16 44
M  V30 49 1 18 45
M  V30 50 1 18 46
M  V30 51 1 19 47
M  V30 52 1 20 48
M  V30 53 1 21 49
M  V30 54 1 21 50
M  V30 55 1 22 51
M  V30 56 1 25 52
M  V30 57 1 25 53
M  V30 58 1 26 54
M  V30 END BOND
M  V30 BEGIN COLLECTION
M  V30 MDLV30/STEABS ATOMS=(8 7 9 12 13 14 17 19 20)
M  V30 END COLLECTION
M  V30 END CTAB
M  END
>  <Structure No>
7846

>  <LogS>
-3.85

>  <MMFF94 Energy>
72.974

$$$$
Compound 7847
Actelion Java MolfileCreator 2.0

  0  0  0  0  0  0              0 V3000
M  V30 BEGIN CTAB
M  V30 COUNTS 55 58 0 0 0
M  V30 BEGIN ATOM
M  V30 1 O -4.8613 1.0517 -0.9708 0
M  V30 2 C -4.7994 0.3943 0.0587 0
M  V30 3 C -3.4734 0.3155 0.8092 0 CFG=2
M  V30 4 C -6.0614 -0.2491 0.5677 0
M  V30 5 C -2.2128 0.1156 -0.0785 0 CFG=2
M  V30 6 C -3.3706 -0.8177 1.8708 0
M  V30 7 C -1.1878 -0.2303 1.0154 0 CFG=1
M  V30 8 C -1.7487 1.4052 -0.8441 0
M  V30 9 C -2.4652 -1.0632 -1.0788 0
M  V30 10 C -1.8843 -1.2208 1.9411 0
M  V30 11 C 0.2706 -0.479 0.5405 0 CFG=2
M  V30 12 C -0.2101 1.6461 -0.8107 0
M  V30 13 C 0.5933 0.3121 -0.7526 0 CFG=1
M  V30 14 C 0.6936 -1.9347 0.3241 0
M  V30 15 C 2.1506 0.4028 -0.9686 0 CFG=2
M  V30 16 C 2.1533 -1.9866 -0.0602 0
M  V30 17 C 2.8348 -0.9278 -0.5782 0
M  V30 18 C 2.7878 1.5815 -0.1468 0
M  V30 19 C 2.3994 0.6249 -2.487 0
M  V30 20 C 4.3553 -1.0123 -0.6423 0
M  V30 21 C 4.1551 1.2644 0.499 0
M  V30 22 C 5.0307 0.3611 -0.3965 0 CFG=1
M  V30 23 O 6.3076 0.178 0.1674 0
M  V30 24 H -3.3716 1.2834 1.356 0
M  V30 25 H -6.0105 -0.4421 1.6568 0
M  V30 26 H -6.2332 -1.2069 0.0325 0
M  V30 27 H -6.9274 0.4227 0.3857 0
M  V30 28 H -3.9711 -1.709 1.5713 0
M  V30 29 H -3.7286 -0.4586 2.863 0
M  V30 30 H -1.0931 0.6974 1.6406 0
M  V30 31 H -2.2368 2.3119 -0.4209 0
M  V30 32 H -2.0815 1.3563 -1.9069 0
M  V30 33 H -2.8227 -1.9843 -0.5662 0
M  V30 34 H -1.5749 -1.3391 -1.6637 0
M  V30 35 H -3.2272 -0.7661 -1.8364 0
M  V30 36 H -1.4889 -1.1392 2.9762 0
M  V30 37 H -1.761 -2.26 1.5803 0
M  V30 38 H 0.9227 -0.0912 1.3581 0
M  V30 39 H 0.0177 2.2706 0.0806 0
M  V30 40 H 0.0693 2.2378 -1.7078 0
M  V30 41 H 0.222 -0.2767 -1.6151 0
M  V30 42 H 0.5728 -2.5 1.2724 0
M  V30 43 H 0.0824 -2.4256 -0.4616 0
M  V30 44 H 2.6806 -2.903 0.1751 0
M  V30 45 H 2.1183 1.8899 0.6922 0
M  V30 46 H 2.8962 2.4854 -0.7977 0
M  V30 47 H 1.8631 1.5422 -2.8533 0
M  V30 48 H 2.0279 -0.2573 -3.0806 0
M  V30 49 H 3.4852 0.7579 -2.7226 0
M  V30 50 H 4.7149 -1.7251 0.1403 0
M  V30 51 H 4.6694 -1.4274 -1.6318 0
M  V30 52 H 4.6908 2.2163 0.7169 0
M  V30 53 H 3.9854 0.7608 1.4835 0
M  V30 54 H 5.1903 0.881 -1.3674 0
M  V30 55 H 6.1862 -0.1039 1.1123 0
M  V30 END ATOM
M  V30 BEGIN BOND
M  V30 1 2 1 2
M  V30 2 1 2 3
M  V30 3 1 2 4
M  V30 4 1 3 5
M  V30 5 1 3 6
M  V30 6 1 5 7
M  V30 7 1 5 8
M  V30 8 1 5 9
M  V30 9 1 6 10
M  V30 10 1 7 11
M  V30 11 1 8 12
M  V30 12 1 11 13
M  V30 13 1 11 14
M  V30 14 1 13 15
M  V30 15 1 14 16
M  V30 16 1 15 17
M  V30 17 1 15 18
M  V30 18 1 15 19
M  V30 19 1 17 20
M  V30 20 1 18 21
M  V30 21 1 20 22
M  V30 22 1 22 23
M  V30 23 1 7 10
M  V30 24 1 12 13
M  V30 25 2 16 17
M  V30 26 1 21 22
M  V30 27 1 3 24
M  V30 28 1 4 25
M  V30 29 1 4 26
M  V30 30 1 4 27
M  V30 31 1 6 28
M  V30 32 1 6 29
M  V30 33 1 7 30
M  V30 34 1 8 31
M  V30 35 1 8 32
M  V30 36 1 9 33
M  V30 37 1 9 34
M  V30 38 1 9 35
M  V30 39 1 10 36
M  V30 40 1 10 37
M  V30 41 1 11 38
M  V30 42 1 12 39
M  V30 43 1 12 40
M  V30 44 1 13 41
M  V30 45 1 14 42
M  V30 46 1 14 43
M  V30 47 1 16 44
M  V30 48 1 18 45
M  V30 49 1 18 46
M  V30 50 1 19 47
M  V30 51 1 19 48
M  V30 52 1 19 49
M  V30 53 1 20 50
M  V30 54 1 20 51
M  V30 55 1 21 52
M  V30 56 1 21 53
M  V30 57 1 22 54
M  V30 58 1 23 55
M  V30 END BOND
M  V30 BEGIN COLLECTION
M  V30 MDLV30/STEABS ATOMS=(7 3 5 7 11 13 15 22)
M  V30 END COLLECTION
M  V30 END CTAB
M  END
>  <Structure No>
7847

>  <LogS>
-4.65

>  <MMFF94 Energy>
97.045

$$$$
Compound 7848
Actelion Java MolfileCreator 2.0

  0  0  0  0  0  0              0 V3000
M  V30 BEGIN CTAB
M  V30 COUNTS 55 58 0 0 0
M  V30 BEGIN ATOM
M  V30 1 Cl -4.612 -2.8806 -1.9746 0
M  V30 2 C -4.4199 -1.6939 -0.688 0
M  V30 3 C -3.3928 -0.6985 -0.6196 0
M  V30 4 C -5.4311 -1.7298 0.2763 0
M  V30 5 C -3.5451 0.3305 0.3568 0
M  V30 6 C -2.2324 -0.5493 -1.6468 0 CFG=1
M  V30 7 C -5.4852 -0.7869 1.291 0
M  V30 8 C -2.6414 1.496 0.3084 0
M  V30 9 C -4.553 0.2414 1.3465 0
M  V30 10 O -2.6705 0.2959 -2.6884 0
M  V30 11 C -0.9443 0.085 -0.977 0 CFG=1
M  V30 12 C -1.8101 -1.8706 -2.3308 0
M  V30 13 O -3.0632 2.656 0.5676 0
M  V30 14 C -1.2512 1.2767 -0.105 0
M  V30 15 O -4.6405 1.1371 2.4152 0
M  V30 16 C -0.0713 -0.8865 -0.1438 0
M  V30 17 C -0.2371 1.9203 0.5043 0
M  V30 18 C 1.1443 -0.1874 0.5821 0 CFG=2
M  V30 19 O -0.5117 3.0361 1.3028 0
M  V30 20 C 1.1867 1.3727 0.3744 0 CFG=2
M  V30 21 C 2.5138 -0.9256 0.2807 0 CFG=2
M  V30 22 O 1.9908 1.9313 1.3868 0
M  V30 23 C 1.7863 1.7126 -0.9751 0
M  V30 24 N 3.2935 -1.3199 1.486 0
M  V30 25 C 3.41 -0.2253 -0.7166 0
M  V30 26 O 1.3347 2.6847 -1.642 0
M  V30 27 C 2.9835 0.9927 -1.4386 0 CHG=-1 CFG=1
M  V30 28 C 2.6637 -2.4095 2.2519 0
M  V30 29 C 3.6917 -0.213 2.3675 0
M  V30 30 O 4.5147 -0.7626 -0.9999 0
M  V30 31 C 3.7301 1.4804 -2.6212 0
M  V30 32 O 3.0995 1.9065 -3.6253 0
M  V30 33 N 5.1586 1.4996 -2.6363 0
M  V30 34 H -6.1975 -2.4941 0.2337 0
M  V30 35 H -6.2666 -0.8501 2.038 0
M  V30 36 H -2.906 1.1814 -2.3097 0
M  V30 37 H -0.316 0.4391 -1.8228 0
M  V30 38 H -1.7749 -2.7103 -1.6041 0
M  V30 39 H -0.8113 -1.7676 -2.8071 0
M  V30 40 H -2.4784 -2.1189 -3.179 0
M  V30 41 H -3.9169 1.805 2.6444 0
M  V30 42 H 0.2796 -1.6989 -0.8055 0
M  V30 43 H -0.7186 -1.374 0.6192 0
M  V30 44 H 0.9243 -0.317 1.6623 0
M  V30 45 H 0.2003 3.5538 1.7997 0
M  V30 46 H 2.2896 -1.877 -0.2449 0
M  V30 47 H 2.2435 2.8569 1.127 0
M  V30 48 H 3.379 -2.7994 3.0072 0
M  V30 49 H 1.7489 -2.0678 2.7798 0
M  V30 50 H 2.4024 -3.2577 1.5841 0
M  V30 51 H 2.8331 0.1616 2.9638 0
M  V30 52 H 4.1446 0.6127 1.7802 0
M  V30 53 H 4.4715 -0.5664 3.0751 0
M  V30 54 H 5.7112 1.3113 -1.7713 0
M  V30 55 H 5.6684 1.7953 -3.4981 0
M  V30 END ATOM
M  V30 BEGIN BOND
M  V30 1 1 1 2
M  V30 2 2 2 3
M  V30 3 1 2 4
M  V30 4 1 3 5
M  V30 5 1 3 6
M  V30 6 2 4 7
M  V30 7 1 5 8
M  V30 8 2 5 9
M  V30 9 1 6 10
M  V30 10 1 6 11
M  V30 11 1 6 12
M  V30 12 2 8 13
M  V30 13 1 8 14
M  V30 14 1 9 15
M  V30 15 1 11 16
M  V30 16 2 14 17
M  V30 17 1 16 18
M  V30 18 1 17 19
M  V30 19 1 17 20
M  V30 20 1 18 21
M  V30 21 1 20 22
M  V30 22 1 20 23
M  V30 23 1 21 24
M  V30 24 1 21 25
M  V30 25 2 23 26
M  V30 26 1 23 27
M  V30 27 1 24 28
M  V30 28 1 24 29
M  V30 29 2 25 30
M  V30 30 1 27 31
M  V30 31 2 31 32
M  V30 32 1 31 33
M  V30 33 1 7 9
M  V30 34 1 11 14
M  V30 35 1 18 20
M  V30 36 1 25 27
M  V30 37 1 4 34
M  V30 38 1 7 35
M  V30 39 1 10 36
M  V30 40 1 11 37
M  V30 41 1 12 38
M  V30 42 1 12 39
M  V30 43 1 12 40
M  V30 44 1 15 41
M  V30 45 1 16 42
M  V30 46 1 16 43
M  V30 47 1 18 44
M  V30 48 1 19 45
M  V30 49 1 21 46
M  V30 50 1 22 47
M  V30 51 1 28 48
M  V30 52 1 28 49
M  V30 53 1 28 50
M  V30 54 1 29 51
M  V30 55 1 29 52
M  V30 56 1 29 53
M  V30 57 1 33 54
M  V30 58 1 33 55
M  V30 END BOND
M  V30 BEGIN COLLECTION
M  V30 MDLV30/STEABS ATOMS=(6 6 11 18 20 21 27)
M  V30 END COLLECTION
M  V30 END CTAB
M  END
>  <Structure No>
7848

>  <LogS>
-2.88

>  <MMFF94 Energy>
73.023

$$$$
Compound 7849
Actelion Java MolfileCreator 2.0

  0  0  0  0  0  0              0 V3000
M  V30 BEGIN CTAB
M  V30 COUNTS 54 58 0 0 0
M  V30 BEGIN ATOM
M  V30 1 O 1.2944 -3.5628 0.2426 0
M  V30 2 C 1.0823 -2.3223 0.2733 0
M  V30 3 O -0.1791 -1.7504 0.369 0
M  V30 4 C 2.0857 -1.2857 0.2035 0
M  V30 5 C -0.0682 -0.3256 0.4024 0 CFG=1
M  V30 6 C 3.4767 -1.3672 0.1023 0
M  V30 7 C 1.4122 -0.0892 0.2522 0
M  V30 8 C -0.9805 0.4026 -0.646 0 CFG=1
M  V30 9 O 4.0584 -2.6462 0.0405 0
M  V30 10 C 4.2076 -0.1441 0.0721 0
M  V30 11 C 2.1049 1.1173 0.2552 0
M  V30 12 N -0.9162 -0.074 -2.0629 0 CHG=1 CFG=2
M  V30 13 C -2.4165 0.3936 -0.1398 0
M  V30 14 C 5.4472 -2.9321 -0.0771 0
M  V30 15 O 5.6073 -0.1683 -0.0312 0
M  V30 16 C 3.5033 1.0886 0.1538 0
M  V30 17 C -1.5882 -1.3714 -2.2841 0
M  V30 18 C 0.4433 -0.0879 -2.6309 0
M  V30 19 C -2.7856 1.2269 0.9532 0
M  V30 20 C -3.376 -0.4982 -0.7058 0
M  V30 21 C 6.4412 0.9844 -0.072 0
M  V30 22 C -3.0803 -1.2958 -1.9481 0
M  V30 23 O -1.841 2.111 1.5016 0
M  V30 24 C -4.0972 1.1201 1.4383 0
M  V30 25 C -4.6824 -0.5541 -0.1797 0
M  V30 26 C -2.0625 2.9452 2.6334 0
M  V30 27 O -4.7025 1.8025 2.4789 0
M  V30 28 C -4.9972 0.2647 0.8937 0
M  V30 29 C -6.0564 1.3476 2.5928 0
M  V30 30 O -6.2041 0.3681 1.5585 0
M  V30 31 H -0.3338 0.0105 1.4275 0
M  V30 32 H -0.6598 1.4696 -0.6502 0
M  V30 33 H 1.5773 2.0593 0.3318 0
M  V30 34 H -1.4414 0.6338 -2.6331 0
M  V30 35 H 5.5833 -4.0316 -0.1123 0
M  V30 36 H 5.8504 -2.5016 -1.0175 0
M  V30 37 H 5.9961 -2.5411 0.8052 0
M  V30 38 H 4.0308 2.0324 0.1458 0
M  V30 39 H -1.1119 -2.1891 -1.7124 0
M  V30 40 H -1.5023 -1.6649 -3.355 0
M  V30 41 H 0.9878 0.8474 -2.3786 0
M  V30 42 H 1.0196 -0.97 -2.2852 0
M  V30 43 H 0.3924 -0.144 -3.7409 0
M  V30 44 H 7.4993 0.6623 -0.1576 0
M  V30 45 H 6.3249 1.5734 0.862 0
M  V30 46 H 6.1875 1.6094 -0.9544 0
M  V30 47 H -3.4755 -2.3295 -1.8357 0
M  V30 48 H -3.615 -0.8186 -2.798 0
M  V30 49 H -5.4346 -1.206 -0.6062 0
M  V30 50 H -2.3256 2.3284 3.518 0
M  V30 51 H -1.1299 3.5017 2.8586 0
M  V30 52 H -2.8671 3.6792 2.4175 0
M  V30 53 H -6.7594 2.1905 2.4269 0
M  V30 54 H -6.2217 0.8827 3.587 0
M  V30 END ATOM
M  V30 BEGIN BOND
M  V30 1 2 1 2
M  V30 2 1 2 3
M  V30 3 1 2 4
M  V30 4 1 3 5
M  V30 5 2 4 6
M  V30 6 1 4 7
M  V30 7 1 5 8
M  V30 8 1 6 9
M  V30 9 1 6 10
M  V30 10 2 7 11
M  V30 11 1 8 12
M  V30 12 1 8 13
M  V30 13 1 9 14
M  V30 14 1 10 15
M  V30 15 2 10 16
M  V30 16 1 12 17
M  V30 17 1 12 18
M  V30 18 2 13 19
M  V30 19 1 13 20
M  V30 20 1 15 21
M  V30 21 1 17 22
M  V30 22 1 19 23
M  V30 23 1 19 24
M  V30 24 2 20 25
M  V30 25 1 23 26
M  V30 26 1 24 27
M  V30 27 2 24 28
M  V30 28 1 27 29
M  V30 29 1 28 30
M  V30 30 1 5 7
M  V30 31 1 11 16
M  V30 32 1 20 22
M  V30 33 1 25 28
M  V30 34 1 29 30
M  V30 35 1 5 31
M  V30 36 1 8 32
M  V30 37 1 11 33
M  V30 38 1 12 34
M  V30 39 1 14 35
M  V30 40 1 14 36
M  V30 41 1 14 37
M  V30 42 1 16 38
M  V30 43 1 17 39
M  V30 44 1 17 40
M  V30 45 1 18 41
M  V30 46 1 18 42
M  V30 47 1 18 43
M  V30 48 1 21 44
M  V30 49 1 21 45
M  V30 50 1 21 46
M  V30 51 1 22 47
M  V30 52 1 22 48
M  V30 53 1 25 49
M  V30 54 1 26 50
M  V30 55 1 26 51
M  V30 56 1 26 52
M  V30 57 1 29 53
M  V30 58 1 29 54
M  V30 END BOND
M  V30 BEGIN COLLECTION
M  V30 MDLV30/STEABS ATOMS=(3 5 8 12)
M  V30 END COLLECTION
M  V30 END CTAB
M  END
>  <Structure No>
7849

>  <LogS>
-3.14

>  <MMFF94 Energy>
132.41

$$$$
Compound 7850
Actelion Java MolfileCreator 2.0

  0  0  0  0  0  0              0 V3000
M  V30 BEGIN CTAB
M  V30 COUNTS 56 59 0 0 0
M  V30 BEGIN ATOM
M  V30 1 O -3.4971 2.7644 0.3249 0
M  V30 2 C -2.9805 1.6167 0.2788 0
M  V30 3 C -3.7663 0.3812 0.4913 0
M  V30 4 C -1.5719 1.4599 -0.0756 0
M  V30 5 C -4.9612 0.3608 1.2653 0
M  V30 6 C -3.2575 -0.84 -0.0408 0
M  V30 7 C -0.6062 2.1128 0.6052 0
M  V30 8 C -1.3258 0.4808 -1.1971 0 CFG=2
M  V30 9 O -5.4817 1.4874 1.9075 0
M  V30 10 C -5.6493 -0.8406 1.447 0
M  V30 11 C -3.9368 -2.0402 0.2488 0
M  V30 12 C -1.9685 -0.9105 -0.8833 0 CFG=2
M  V30 13 O -0.9843 3.139 1.4778 0
M  V30 14 C 0.8832 1.8113 0.4076 0 CFG=1
M  V30 15 C 0.1696 0.3915 -1.6167 0 CFG=2
M  V30 16 C -5.1338 -2.0344 0.9579 0
M  V30 17 C -2.2597 -1.6537 -2.2097 0
M  V30 18 O 1.5057 2.9021 -0.2351 0
M  V30 19 C 1.6005 1.6034 1.7375 0
M  V30 20 C 1.0969 0.4929 -0.39 0 CFG=1
M  V30 21 O 0.4732 1.4036 -2.5434 0
M  V30 22 O 1.0862 1.9475 2.7915 0
M  V30 23 C 2.991 0.9944 1.7792 0 CFG=2
M  V30 24 C 2.5934 0.2995 -0.7643 0 CFG=1
M  V30 25 C 3.5158 0.6175 0.4086 0
M  V30 26 C 3.0385 -0.2103 2.6838 0
M  V30 27 N 2.812 -1.0566 -1.3427 0
M  V30 28 O 4.7259 0.599 0.2335 0
M  V30 29 O 2.0385 -0.9696 2.7912 0
M  V30 30 N 4.2381 -0.5308 3.3863 0
M  V30 31 C 3.9084 -1.0776 -2.3243 0
M  V30 32 C 2.9921 -2.1294 -0.3473 0
M  V30 33 H -1.8823 0.896 -2.0693 0
M  V30 34 H -4.9774 2.3505 2.0442 0
M  V30 35 H -6.5668 -0.8556 2.0219 0
M  V30 36 H -3.5461 -2.9929 -0.0806 0
M  V30 37 H -1.2333 -1.5116 -0.3045 0
M  V30 38 H -0.3086 3.7706 1.8904 0
M  V30 39 H 0.3682 -0.5932 -2.094 0
M  V30 40 H -5.654 -2.9648 1.1477 0
M  V30 41 H -2.4584 -2.7298 -2.0294 0
M  V30 42 H -1.4039 -1.6084 -2.9118 0
M  V30 43 H -3.1413 -1.2054 -2.7182 0
M  V30 44 H 0.9227 3.2182 -0.9721 0
M  V30 45 H 0.8034 -0.3457 0.2803 0
M  V30 46 H 0.1124 1.1102 -3.4211 0
M  V30 47 H 3.662 1.7763 2.1992 0
M  V30 48 H 2.8201 1.0675 -1.5381 0
M  V30 49 H 4.2779 -1.371 4.0046 0
M  V30 50 H 5.0872 0.0672 3.2887 0
M  V30 51 H 3.725 -0.3287 -3.1246 0
M  V30 52 H 3.9569 -2.0725 -2.8188 0
M  V30 53 H 4.8881 -0.8701 -1.843 0
M  V30 54 H 2.1675 -2.1277 0.3919 0
M  V30 55 H 3.9644 -2.0346 0.1823 0
M  V30 56 H 2.9639 -3.1174 -0.8524 0
M  V30 END ATOM
M  V30 BEGIN BOND
M  V30 1 2 1 2
M  V30 2 1 2 3
M  V30 3 1 2 4
M  V30 4 2 3 5
M  V30 5 1 3 6
M  V30 6 2 4 7
M  V30 7 1 4 8
M  V30 8 1 5 9
M  V30 9 1 5 10
M  V30 10 2 6 11
M  V30 11 1 6 12
M  V30 12 1 7 13
M  V30 13 1 7 14
M  V30 14 1 8 15
M  V30 15 2 10 16
M  V30 16 1 12 17
M  V30 17 1 14 18
M  V30 18 1 14 19
M  V30 19 1 14 20
M  V30 20 1 15 21
M  V30 21 2 19 22
M  V30 22 1 19 23
M  V30 23 1 20 24
M  V30 24 1 23 25
M  V30 25 1 23 26
M  V30 26 1 24 27
M  V30 27 2 25 28
M  V30 28 2 26 29
M  V30 29 1 26 30
M  V30 30 1 27 31
M  V30 31 1 27 32
M  V30 32 1 8 12
M  V30 33 1 11 16
M  V30 34 1 15 20
M  V30 35 1 24 25
M  V30 36 1 8 33
M  V30 37 1 9 34
M  V30 38 1 10 35
M  V30 39 1 11 36
M  V30 40 1 12 37
M  V30 41 1 13 38
M  V30 42 1 15 39
M  V30 43 1 16 40
M  V30 44 1 17 41
M  V30 45 1 17 42
M  V30 46 1 17 43
M  V30 47 1 18 44
M  V30 48 1 20 45
M  V30 49 1 21 46
M  V30 50 1 23 47
M  V30 51 1 24 48
M  V30 52 1 30 49
M  V30 53 1 30 50
M  V30 54 1 31 51
M  V30 55 1 31 52
M  V30 56 1 31 53
M  V30 57 1 32 54
M  V30 58 1 32 55
M  V30 59 1 32 56
M  V30 END BOND
M  V30 BEGIN COLLECTION
M  V30 MDLV30/STEABS ATOMS=(7 8 12 14 15 20 23 24)
M  V30 END COLLECTION
M  V30 END CTAB
M  END
>  <Structure No>
7850

>  <LogS>
-2.87

>  <MMFF94 Energy>
86.668

$$$$
Compound 7851
Actelion Java MolfileCreator 2.0

  0  0  0  0  0  0              0 V3000
M  V30 BEGIN CTAB
M  V30 COUNTS 52 54 0 0 0
M  V30 BEGIN ATOM
M  V30 1 O -0.3985 0.5579 -1.3554 0
M  V30 2 C -1.1115 -0.4812 -1.4036 0
M  V30 3 O -0.6296 -1.6532 -1.9955 0
M  V30 4 C -2.5112 -0.4535 -0.8697 0 CFG=1
M  V30 5 C 0.7363 -1.8404 -2.3563 0
M  V30 6 C -2.8071 -1.3474 0.3429 0
M  V30 7 C -2.6535 0.1696 0.5274 0 CFG=2
M  V30 8 C 1.5675 -2.0597 -1.1224 0
M  V30 9 C -4.2121 -1.9672 0.3654 0
M  V30 10 C -1.6718 -2.192 0.9425 0
M  V30 11 C -3.912 0.9817 0.7161 0
M  V30 12 C 2.3323 -1.0139 -0.5813 0
M  V30 13 C 1.5192 -3.2941 -0.457 0
M  V30 14 C -4.0659 2.2253 0.2166 0
M  V30 15 C 3.067 -1.2072 0.603 0
M  V30 16 C 2.2325 -3.4822 0.7288 0
M  V30 17 C -5.3459 2.9667 0.5013 0
M  V30 18 C -2.9836 2.8849 -0.6044 0
M  V30 19 O 3.8289 -0.1801 1.1795 0
M  V30 20 C 2.9992 -2.4415 1.2587 0
M  V30 21 C 4.4712 0.8492 0.4759 0
M  V30 22 C 4.6394 2.0901 1.1034 0
M  V30 23 C 4.9909 0.6555 -0.8178 0
M  V30 24 C 5.2878 3.1363 0.4394 0
M  V30 25 C 5.6392 1.7033 -1.4793 0
M  V30 26 C 5.7844 2.9441 -0.8526 0
M  V30 27 H -3.3469 -0.2654 -1.5784 0
M  V30 28 H 1.1025 -0.9713 -2.9458 0
M  V30 29 H 0.8111 -2.7342 -3.0112 0
M  V30 30 H -1.7136 0.5305 0.9998 0
M  V30 31 H -4.5598 -2.058 1.4155 0
M  V30 32 H -4.9517 -1.3679 -0.2068 0
M  V30 33 H -4.1733 -2.9814 -0.0844 0
M  V30 34 H -1.5169 -3.0988 0.3215 0
M  V30 35 H -1.9512 -2.5086 1.969 0
M  V30 36 H -0.7132 -1.6342 1.0058 0
M  V30 37 H -4.6964 0.5665 1.3434 0
M  V30 38 H 2.3345 -0.0463 -1.0665 0
M  V30 39 H 0.9165 -4.104 -0.849 0
M  V30 40 H 2.1856 -4.4339 1.2419 0
M  V30 41 H -6.2088 2.3905 0.1046 0
M  V30 42 H -5.3524 3.9709 0.0288 0
M  V30 43 H -5.469 3.0961 1.5975 0
M  V30 44 H -2.8206 2.3166 -1.5432 0
M  V30 45 H -2.0367 2.921 -0.0257 0
M  V30 46 H -3.2568 3.9252 -0.8771 0
M  V30 47 H 3.545 -2.5946 2.1809 0
M  V30 48 H 4.2589 2.2458 2.105 0
M  V30 49 H 4.9119 -0.3066 -1.3063 0
M  V30 50 H 5.4066 4.0951 0.9272 0
M  V30 51 H 6.0354 1.5511 -2.4749 0
M  V30 52 H 6.2873 3.7539 -1.3651 0
M  V30 END ATOM
M  V30 BEGIN BOND
M  V30 1 2 1 2
M  V30 2 1 2 3
M  V30 3 1 2 4
M  V30 4 1 3 5
M  V30 5 1 4 6
M  V30 6 1 4 7
M  V30 7 1 5 8
M  V30 8 1 6 9
M  V30 9 1 6 10
M  V30 10 1 7 11
M  V30 11 2 8 12
M  V30 12 1 8 13
M  V30 13 2 11 14
M  V30 14 1 12 15
M  V30 15 2 13 16
M  V30 16 1 14 17
M  V30 17 1 14 18
M  V30 18 1 15 19
M  V30 19 2 15 20
M  V30 20 1 19 21
M  V30 21 2 21 22
M  V30 22 1 21 23
M  V30 23 1 22 24
M  V30 24 2 23 25
M  V30 25 2 24 26
M  V30 26 1 6 7
M  V30 27 1 16 20
M  V30 28 1 25 26
M  V30 29 1 4 27
M  V30 30 1 5 28
M  V30 31 1 5 29
M  V30 32 1 7 30
M  V30 33 1 9 31
M  V30 34 1 9 32
M  V30 35 1 9 33
M  V30 36 1 10 34
M  V30 37 1 10 35
M  V30 38 1 10 36
M  V30 39 1 11 37
M  V30 40 1 12 38
M  V30 41 1 13 39
M  V30 42 1 16 40
M  V30 43 1 17 41
M  V30 44 1 17 42
M  V30 45 1 17 43
M  V30 46 1 18 44
M  V30 47 1 18 45
M  V30 48 1 18 46
M  V30 49 1 20 47
M  V30 50 1 22 48
M  V30 51 1 23 49
M  V30 52 1 24 50
M  V30 53 1 25 51
M  V30 54 1 26 52
M  V30 END BOND
M  V30 BEGIN COLLECTION
M  V30 MDLV30/STEABS ATOMS=(2 4 7)
M  V30 END COLLECTION
M  V30 END CTAB
M  END
>  <Structure No>
7851

>  <LogS>
-5.24

>  <MMFF94 Energy>
60.906

$$$$
Compound 7852
Actelion Java MolfileCreator 2.0

  0  0  0  0  0  0              0 V3000
M  V30 BEGIN CTAB
M  V30 COUNTS 59 62 0 0 0
M  V30 BEGIN ATOM
M  V30 1 Cl -3.6642 -3.7457 3.4196 0
M  V30 2 C -4.4287 -2.5855 2.3488 0
M  V30 3 C -3.645 -1.7971 1.4985 0
M  V30 4 C -5.819 -2.4386 2.3579 0
M  V30 5 C -4.2483 -0.8532 0.6454 0
M  V30 6 C -6.4313 -1.5284 1.494 0
M  V30 7 N -3.4564 0.0893 -0.1193 0
M  V30 8 C -5.6535 -0.7572 0.6244 0
M  V30 9 C -3.9693 1.4348 -0.2831 0
M  V30 10 C -2.2158 -0.3455 -0.783 0
M  V30 11 S -6.4507 0.2443 -0.6289 0
M  V30 12 C -5.3616 1.6412 -0.3625 0
M  V30 13 C -3.1223 2.5573 -0.2217 0
M  V30 14 C -0.9703 -0.1119 0.0984 0
M  V30 15 C -5.8924 2.9353 -0.3307 0
M  V30 16 C -3.6569 3.8495 -0.2156 0
M  V30 17 C 0.1132 -1.1955 -0.0854 0
M  V30 18 C -5.0398 4.0381 -0.2577 0
M  V30 19 N 0.6198 -1.3318 -1.4808 0 CHG=1
M  V30 20 C 1.2199 -0.0936 -2.0273 0
M  V30 21 C 1.5815 -2.4621 -1.5924 0
M  V30 22 C 2.4936 0.3265 -1.2628 0
M  V30 23 C 3.0575 -2.0351 -1.4197 0
M  V30 24 N 3.1537 -0.8196 -0.5927 0
M  V30 25 C 4.5657 -0.522 -0.2715 0
M  V30 26 C 4.6709 0.5166 0.8517 0
M  V30 27 O 6.0161 0.6187 1.3154 0
M  V30 28 C 7.0298 1.2643 0.6001 0
M  V30 29 O 6.7777 1.8604 -0.4822 0
M  V30 30 C 8.4115 1.3003 1.1586 0
M  V30 31 H -2.5724 -1.913 1.5287 0
M  V30 32 H -6.4268 -3.0434 3.019 0
M  V30 33 H -7.5111 -1.4514 1.4743 0
M  V30 34 H -2.3127 -1.4231 -1.0404 0
M  V30 35 H -2.0931 0.1973 -1.7454 0
M  V30 36 H -2.0548 2.4496 -0.1413 0
M  V30 37 H -0.5286 0.8831 -0.0974 0
M  V30 38 H -1.2611 -0.096 1.17 0
M  V30 39 H -6.9623 3.0883 -0.3938 0
M  V30 40 H -2.9978 4.7064 -0.1583 0
M  V30 41 H -0.3307 -2.1617 0.2449 0
M  V30 42 H 0.9427 -0.9794 0.6206 0
M  V30 43 H -5.4502 5.0393 -0.2448 0
M  V30 44 H -0.1961 -1.5731 -2.0909 0
M  V30 45 H 1.4939 -0.2681 -3.0935 0
M  V30 46 H 0.4879 0.7404 -2.0546 0
M  V30 47 H 1.48 -2.9389 -2.5937 0
M  V30 48 H 1.3453 -3.2639 -0.8568 0
M  V30 49 H 2.1989 1.0678 -0.4895 0
M  V30 50 H 3.1821 0.8342 -1.9755 0
M  V30 51 H 3.5165 -1.8552 -2.419 0
M  V30 52 H 3.6074 -2.8768 -0.9428 0
M  V30 53 H 5.0725 -1.4437 0.0915 0
M  V30 54 H 5.1152 -0.1737 -1.1742 0
M  V30 55 H 4.3154 1.5124 0.5098 0
M  V30 56 H 4.032 0.1948 1.7018 0
M  V30 57 H 9.1568 1.3433 0.3373 0
M  V30 58 H 8.5973 0.3885 1.7634 0
M  V30 59 H 8.5252 2.1951 1.8043 0
M  V30 END ATOM
M  V30 BEGIN BOND
M  V30 1 1 1 2
M  V30 2 2 2 3
M  V30 3 1 2 4
M  V30 4 1 3 5
M  V30 5 2 4 6
M  V30 6 1 5 7
M  V30 7 2 5 8
M  V30 8 1 7 9
M  V30 9 1 7 10
M  V30 10 1 8 11
M  V30 11 2 9 12
M  V30 12 1 9 13
M  V30 13 1 10 14
M  V30 14 1 12 15
M  V30 15 2 13 16
M  V30 16 1 14 17
M  V30 17 2 15 18
M  V30 18 1 17 19
M  V30 19 1 19 20
M  V30 20 1 19 21
M  V30 21 1 20 22
M  V30 22 1 21 23
M  V30 23 1 22 24
M  V30 24 1 24 25
M  V30 25 1 25 26
M  V30 26 1 26 27
M  V30 27 1 27 28
M  V30 28 2 28 29
M  V30 29 1 28 30
M  V30 30 1 6 8
M  V30 31 1 11 12
M  V30 32 1 16 18
M  V30 33 1 23 24
M  V30 34 1 3 31
M  V30 35 1 4 32
M  V30 36 1 6 33
M  V30 37 1 10 34
M  V30 38 1 10 35
M  V30 39 1 13 36
M  V30 40 1 14 37
M  V30 41 1 14 38
M  V30 42 1 15 39
M  V30 43 1 16 40
M  V30 44 1 17 41
M  V30 45 1 17 42
M  V30 46 1 18 43
M  V30 47 1 19 44
M  V30 48 1 20 45
M  V30 49 1 20 46
M  V30 50 1 21 47
M  V30 51 1 21 48
M  V30 52 1 22 49
M  V30 53 1 22 50
M  V30 54 1 23 51
M  V30 55 1 23 52
M  V30 56 1 25 53
M  V30 57 1 25 54
M  V30 58 1 26 55
M  V30 59 1 26 56
M  V30 60 1 30 57
M  V30 61 1 30 58
M  V30 62 1 30 59
M  V30 END BOND
M  V30 END CTAB
M  END
>  <Structure No>
7852

>  <LogS>
-4.7

>  <MMFF94 Energy>
149.94

$$$$
Compound 7853
Actelion Java MolfileCreator 2.0

  0  0  0  0  0  0              0 V3000
M  V30 BEGIN CTAB
M  V30 COUNTS 75 78 0 0 0
M  V30 BEGIN ATOM
M  V30 1 O 9.4708 -2.2603 0.2419 0
M  V30 2 C 8.693 -1.809 -0.6403 0
M  V30 3 O 8.2894 -2.6267 -1.6878 0 CHG=-1
M  V30 4 C 8.1768 -0.4089 -0.5385 0
M  V30 5 N 7.1771 -0.3017 0.5227 0
M  V30 6 C 6.5071 0.9364 0.7921 0
M  V30 7 O 6.8279 1.9792 0.1576 0
M  V30 8 C 5.435 1.0098 1.8452 0
M  V30 9 C 4.0991 1.5574 1.2983 0
M  V30 10 C 3.1497 0.4826 0.6959 0 CFG=1
M  V30 11 C 1.8166 1.0775 0.0913 0 CFG=1
M  V30 12 C 3.879 -0.3508 -0.38 0
M  V30 13 C 0.4925 0.3171 0.4061 0 CFG=2
M  V30 14 C 1.4627 2.5535 0.4209 0
M  V30 15 C 0.3186 -1.0463 -0.3171 0 CFG=1
M  V30 16 C -0.5164 1.3037 -0.2153 0 CFG=2
M  V30 17 C 0.2972 0.1537 1.9541 0
M  V30 18 C -0.0638 2.6792 0.2647 0
M  V30 19 O 1.194 -2.0002 0.2276 0
M  V30 20 C -1.1396 -1.5546 -0.181 0
M  V30 21 C -1.9998 0.8978 -0.0255 0 CFG=2
M  V30 22 C -2.2086 -0.5212 -0.6516 0 CFG=2
M  V30 23 C -2.9511 1.9384 -0.7002 0 CFG=2
M  V30 24 C -3.7122 -1.0473 -0.5576 0 CFG=2
M  V30 25 O -3.0316 3.0765 0.1199 0
M  V30 26 C -4.383 1.3958 -0.9654 0
M  V30 27 C -4.6604 0.1295 -0.1465 0 CFG=1
M  V30 28 C -3.9229 -2.1591 0.5186 0
M  V30 29 C -4.0726 -1.6393 -1.9559 0
M  V30 30 C -6.1438 -0.2788 -0.1229 0
M  V30 31 C -5.3991 -2.5942 0.6665 0
M  V30 32 C -6.3555 -1.4102 0.9036 0 CFG=2
M  V30 33 O -7.6794 -1.8714 0.8382 0
M  V30 34 H 9.0237 0.2781 -0.3231 0
M  V30 35 H 7.7192 -0.1139 -1.5076 0
M  V30 36 H 6.9307 -1.1427 1.0938 0
M  V30 37 H 5.2756 0.0189 2.3212 0
M  V30 38 H 5.8016 1.6928 2.643 0
M  V30 39 H 3.5886 2.0132 2.1718 0
M  V30 40 H 4.2839 2.3671 0.5598 0
M  V30 41 H 2.9091 -0.216 1.5187 0
M  V30 42 H 1.944 1.0727 -1.0181 0
M  V30 43 H 4.6064 -1.0447 0.0894 0
M  V30 44 H 4.4063 0.3142 -1.0971 0
M  V30 45 H 3.169 -0.9761 -0.959 0
M  V30 46 H 1.99 3.2465 -0.271 0
M  V30 47 H 1.7172 2.8297 1.463 0
M  V30 48 H 0.5478 -0.9143 -1.4015 0
M  V30 49 H -0.3502 1.3144 -1.3211 0
M  V30 50 H 0.5183 1.089 2.5065 0
M  V30 51 H 0.9533 -0.6372 2.3666 0
M  V30 52 H -0.7292 -0.1482 2.2293 0
M  V30 53 H -0.5362 2.9266 1.24 0
M  V30 54 H -0.3232 3.466 -0.4767 0
M  V30 55 H 1.2392 -2.7524 -0.4188 0
M  V30 56 H -1.2409 -2.4756 -0.7959 0
M  V30 57 H -1.317 -1.848 0.8735 0
M  V30 58 H -2.2379 0.865 1.0564 0
M  V30 59 H -1.9741 -0.3685 -1.7315 0
M  V30 60 H -2.5166 2.225 -1.6882 0
M  V30 61 H -3.3008 3.8336 -0.4622 0
M  V30 62 H -5.1343 2.1755 -0.7085 0
M  V30 63 H -4.5144 1.1874 -2.0474 0
M  V30 64 H -4.4375 0.4077 0.9098 0
M  V30 65 H -3.5697 -1.7912 1.5072 0
M  V30 66 H -3.3313 -3.0654 0.2654 0
M  V30 67 H -3.9608 -0.8846 -2.7608 0
M  V30 68 H -5.1034 -2.0316 -2.0233 0
M  V30 69 H -3.3897 -2.4823 -2.1954 0
M  V30 70 H -6.5023 -0.5781 -1.1284 0
M  V30 71 H -6.7579 0.5939 0.1893 0
M  V30 72 H -5.7224 -3.1699 -0.2258 0
M  V30 73 H -5.4752 -3.2903 1.5304 0
M  V30 74 H -6.1531 -1.0096 1.9257 0
M  V30 75 H -8.246 -1.1775 1.2673 0
M  V30 END ATOM
M  V30 BEGIN BOND
M  V30 1 2 1 2
M  V30 2 1 2 3
M  V30 3 1 2 4
M  V30 4 1 4 5
M  V30 5 1 5 6
M  V30 6 2 6 7
M  V30 7 1 6 8
M  V30 8 1 8 9
M  V30 9 1 9 10
M  V30 10 1 10 11
M  V30 11 1 10 12
M  V30 12 1 11 13
M  V30 13 1 11 14
M  V30 14 1 13 15
M  V30 15 1 13 16
M  V30 16 1 13 17
M  V30 17 1 14 18
M  V30 18 1 15 19
M  V30 19 1 15 20
M  V30 20 1 16 21
M  V30 21 1 20 22
M  V30 22 1 21 23
M  V30 23 1 22 24
M  V30 24 1 23 25
M  V30 25 1 23 26
M  V30 26 1 24 27
M  V30 27 1 24 28
M  V30 28 1 24 29
M  V30 29 1 27 30
M  V30 30 1 28 31
M  V30 31 1 30 32
M  V30 32 1 32 33
M  V30 33 1 16 18
M  V30 34 1 21 22
M  V30 35 1 26 27
M  V30 36 1 31 32
M  V30 37 1 4 34
M  V30 38 1 4 35
M  V30 39 1 5 36
M  V30 40 1 8 37
M  V30 41 1 8 38
M  V30 42 1 9 39
M  V30 43 1 9 40
M  V30 44 1 10 41
M  V30 45 1 11 42
M  V30 46 1 12 43
M  V30 47 1 12 44
M  V30 48 1 12 45
M  V30 49 1 14 46
M  V30 50 1 14 47
M  V30 51 1 15 48
M  V30 52 1 16 49
M  V30 53 1 17 50
M  V30 54 1 17 51
M  V30 55 1 17 52
M  V30 56 1 18 53
M  V30 57 1 18 54
M  V30 58 1 19 55
M  V30 59 1 20 56
M  V30 60 1 20 57
M  V30 61 1 21 58
M  V30 62 1 22 59
M  V30 63 1 23 60
M  V30 64 1 25 61
M  V30 65 1 26 62
M  V30 66 1 26 63
M  V30 67 1 27 64
M  V30 68 1 28 65
M  V30 69 1 28 66
M  V30 70 1 29 67
M  V30 71 1 29 68
M  V30 72 1 29 69
M  V30 73 1 30 70
M  V30 74 1 30 71
M  V30 75 1 31 72
M  V30 76 1 31 73
M  V30 77 1 32 74
M  V30 78 1 33 75
M  V30 END BOND
M  V30 BEGIN COLLECTION
M  V30 MDLV30/STEABS ATOMS=(11 10 11 13 15 16 21 22 23 24 27 32)
M  V30 END COLLECTION
M  V30 END CTAB
M  END
>  <Structure No>
7853

>  <LogS>
-5.15

>  <MMFF94 Energy>
132.99

$$$$
Compound 7854
Actelion Java MolfileCreator 2.0

  0  0  0  0  0  0              0 V3000
M  V30 BEGIN CTAB
M  V30 COUNTS 51 54 0 0 0
M  V30 BEGIN ATOM
M  V30 1 O 2.6022 -2.2766 -1.2191 0
M  V30 2 C 2.3195 -1.1463 -0.734 0
M  V30 3 C 3.2248 6.0E-4 -0.9864 0
M  V30 4 C 1.0739 -0.9464 0.0588 0
M  V30 5 C 3.02 1.2314 -0.3166 0
M  V30 6 C 4.2956 -0.1264 -1.8905 0
M  V30 7 C 0.3069 -1.9919 0.4584 0
M  V30 8 C 0.6749 0.5017 0.3002 0 CFG=2
M  V30 9 C 3.9251 2.2895 -0.5371 0
M  V30 10 C 1.9097 1.3677 0.7258 0 CFG=2
M  V30 11 C 5.1624 0.9433 -2.1178 0
M  V30 12 O 0.7782 -3.295 0.2705 0
M  V30 13 C -1.0245 -1.8031 1.1894 0 CFG=2
M  V30 14 C -0.5337 0.6805 1.2494 0
M  V30 15 C 4.9801 2.1469 -1.4392 0
M  V30 16 O 1.5123 2.7159 0.8435 0
M  V30 17 C 2.4913 0.9291 2.0866 0
M  V30 18 O -0.835 -2.0463 2.5679 0
M  V30 19 C -2.0274 -2.8211 0.6702 0
M  V30 20 C -1.6251 -0.3711 0.992 0 CFG=1
M  V30 21 O -2.3357 -3.7885 1.3513 0
M  V30 22 C -2.6163 -2.6836 -0.7017 0
M  V30 23 C -2.3738 -0.107 -0.3786 0 CFG=1
M  V30 24 C -2.2844 -1.337 -1.2639 0
M  V30 25 N -3.7942 0.2972 -0.1425 0
M  V30 26 O -1.9892 -1.2253 -2.4448 0
M  V30 27 C -3.8636 1.6488 0.4531 0
M  V30 28 C -4.5876 0.3117 -1.3905 0
M  V30 29 H 4.465 -1.0543 -2.4221 0
M  V30 30 H 0.3549 0.8834 -0.6941 0
M  V30 31 H 3.8222 3.2258 -0.0039 0
M  V30 32 H 5.984 0.8349 -2.8143 0
M  V30 33 H 0.2887 -4.1058 0.6282 0
M  V30 34 H -0.2253 0.6116 2.3096 0
M  V30 35 H -0.9554 1.7005 1.1189 0
M  V30 36 H 5.6639 2.9693 -1.6058 0
M  V30 37 H 1.1731 3.0128 -0.0422 0
M  V30 38 H 3.4464 1.4617 2.2852 0
M  V30 39 H 1.8085 1.1847 2.9215 0
M  V30 40 H 2.6945 -0.1621 2.1079 0
M  V30 41 H -0.0202 -1.5671 2.8705 0
M  V30 42 H -2.3718 -0.263 1.8095 0
M  V30 43 H -3.7207 -2.785 -0.6416 0
M  V30 44 H -2.2156 -3.4883 -1.3548 0
M  V30 45 H -1.8693 0.7147 -0.9354 0
M  V30 46 H -4.9214 1.9411 0.6309 0
M  V30 47 H -3.3887 2.4069 -0.2089 0
M  V30 48 H -3.3739 1.6808 1.446 0
M  V30 49 H -5.6002 0.7354 -1.2142 0
M  V30 50 H -4.081 0.9074 -2.1819 0
M  V30 51 H -4.7564 -0.7221 -1.7556 0
M  V30 END ATOM
M  V30 BEGIN BOND
M  V30 1 2 1 2
M  V30 2 1 2 3
M  V30 3 1 2 4
M  V30 4 2 3 5
M  V30 5 1 3 6
M  V30 6 2 4 7
M  V30 7 1 4 8
M  V30 8 1 5 9
M  V30 9 1 5 10
M  V30 10 2 6 11
M  V30 11 1 7 12
M  V30 12 1 7 13
M  V30 13 1 8 14
M  V30 14 2 9 15
M  V30 15 1 10 16
M  V30 16 1 10 17
M  V30 17 1 13 18
M  V30 18 1 13 19
M  V30 19 1 13 20
M  V30 20 2 19 21
M  V30 21 1 19 22
M  V30 22 1 20 23
M  V30 23 1 22 24
M  V30 24 1 23 25
M  V30 25 2 24 26
M  V30 26 1 25 27
M  V30 27 1 25 28
M  V30 28 1 8 10
M  V30 29 1 11 15
M  V30 30 1 14 20
M  V30 31 1 23 24
M  V30 32 1 6 29
M  V30 33 1 8 30
M  V30 34 1 9 31
M  V30 35 1 11 32
M  V30 36 1 12 33
M  V30 37 1 14 34
M  V30 38 1 14 35
M  V30 39 1 15 36
M  V30 40 1 16 37
M  V30 41 1 17 38
M  V30 42 1 17 39
M  V30 43 1 17 40
M  V30 44 1 18 41
M  V30 45 1 20 42
M  V30 46 1 22 43
M  V30 47 1 22 44
M  V30 48 1 23 45
M  V30 49 1 27 46
M  V30 50 1 27 47
M  V30 51 1 27 48
M  V30 52 1 28 49
M  V30 53 1 28 50
M  V30 54 1 28 51
M  V30 END BOND
M  V30 BEGIN COLLECTION
M  V30 MDLV30/STEABS ATOMS=(5 8 10 13 20 23)
M  V30 END COLLECTION
M  V30 END CTAB
M  END
>  <Structure No>
7854

>  <LogS>
-1.42

>  <MMFF94 Energy>
126.05

$$$$
Compound 7855
Actelion Java MolfileCreator 2.0

  0  0  0  0  0  0              0 V3000
M  V30 BEGIN CTAB
M  V30 COUNTS 94 97 0 0 0
M  V30 BEGIN ATOM
M  V30 1 O 6.9034 -0.961 3.2866 0
M  V30 2 C 6.6003 -0.5538 2.1363 0
M  V30 3 O 5.4981 0.2936 1.9823 0
M  V30 4 C 7.4107 -0.9798 0.9846 0
M  V30 5 C 5.3835 1.2704 0.9437 0 CFG=1
M  V30 6 C 6.9344 -1.7885 0.0311 0
M  V30 7 C 3.9003 1.6539 0.833 0
M  V30 8 C 6.2779 2.4753 1.2911 0
M  V30 9 C 5.5735 -2.4284 0.1125 0 CFG=1
M  V30 10 C 3.6445 2.7648 -0.1553 0
M  V30 11 O 4.5564 -1.5922 -0.4037 0
M  V30 12 C 4.9172 -2.7063 -1.1917 0 CFG=2
M  V30 13 C 2.8495 2.662 -1.227 0
M  V30 14 C 3.8613 -3.816 -1.179 0
M  V30 15 C 2.2907 1.3811 -1.7086 0
M  V30 16 C 2.5316 -3.4399 -1.864 0 CFG=2
M  V30 17 C 1.0103 1.2431 -2.0702 0
M  V30 18 O 2.7939 -2.7282 -3.0504 0
M  V30 19 C 1.6124 -2.6067 -0.9272 0
M  V30 20 C -0.0354 2.2436 -1.7695 0
M  V30 21 C 0.1126 -2.5943 -1.3324 0 CFG=1
M  V30 22 C -0.4111 2.5519 -0.521 0
M  V30 23 O -0.5432 -1.6201 -0.5091 0
M  V30 24 O 0.032 -2.1585 -2.6652 0
M  V30 25 C -0.4843 -4.0427 -1.2408 0
M  V30 26 C 0.2006 1.9312 0.6657 0
M  V30 27 C -1.3498 -2.182 0.5139 0 CFG=2
M  V30 28 C -2.0156 -4.0676 -1.0941 0 CFG=1
M  V30 29 C -0.3398 0.8913 1.3166 0
M  V30 30 C -2.529 -2.9718 -0.1122 0 CFG=2
M  V30 31 C -1.8361 -1.1027 1.5317 0
M  V30 32 O -2.606 -3.9629 -2.367 0
M  V30 33 C -1.7277 0.3638 1.057 0 CFG=1
M  V30 34 C -3.5488 -2.0529 -0.7571 0
M  V30 35 O -2.6226 1.152 1.8236 0
M  V30 36 O -4.7676 -2.1509 -0.4478 0
M  V30 37 O -3.1687 -1.1338 -1.7291 0 CHG=-1
M  V30 38 C -3.6563 1.715 1.0341 0 CFG=1
M  V30 39 O -4.58 0.6948 0.6893 0
M  V30 40 C -4.3373 2.8257 1.8469 0 CFG=1
M  V30 41 C -5.8202 1.1533 0.1408 0 CFG=2
M  V30 42 O -3.3742 3.7384 2.3164 0
M  V30 43 C -5.3587 3.577 0.9583 0 CFG=1
M  V30 44 C -5.9207 2.6774 -0.1873 0 CFG=1
M  V30 45 C -6.9534 0.6884 1.0552 0
M  V30 46 N -6.443 4.14 1.7762 0 CHG=1
M  V30 47 O -5.2131 2.9221 -1.3781 0
M  V30 48 H 8.4474 -0.6565 0.9338 0
M  V30 49 H 5.7137 0.8528 -0.035 0
M  V30 50 H 7.6028 -2.0965 -0.7669 0
M  V30 51 H 3.5428 1.9991 1.8252 0
M  V30 52 H 3.3165 0.7426 0.5831 0
M  V30 53 H 5.8999 2.9856 2.2058 0
M  V30 54 H 6.3139 3.1983 0.4489 0
M  V30 55 H 7.3213 2.1331 1.4788 0
M  V30 56 H 5.2277 -2.9382 1.0462 0
M  V30 57 H 4.0296 3.7433 0.0911 0
M  V30 58 H 5.4207 -2.4013 -2.1387 0
M  V30 59 H 2.61 3.5632 -1.7779 0
M  V30 60 H 4.3048 -4.671 -1.736 0
M  V30 61 H 3.6677 -4.2031 -0.1557 0
M  V30 62 H 2.9676 0.543 -1.8456 0
M  V30 63 H 2.0411 -4.411 -2.0984 0
M  V30 64 H 0.706 0.3284 -2.5586 0
M  V30 65 H 2.1984 -3.0915 -3.7614 0
M  V30 66 H 1.9812 -1.562 -0.8931 0
M  V30 67 H 1.6829 -2.9892 0.1132 0
M  V30 68 H -0.5988 2.653 -2.5957 0
M  V30 69 H -1.22 3.258 -0.3724 0
M  V30 70 H -0.9199 -1.9658 -2.866 0
M  V30 71 H -0.0455 -4.5756 -0.3633 0
M  V30 72 H -0.2014 -4.6347 -2.1405 0
M  V30 73 H 1.1568 2.3021 1.0039 0
M  V30 74 H -0.7332 -2.8884 1.1178 0
M  V30 75 H -2.2642 -5.0667 -0.6632 0
M  V30 76 H 0.216 0.494 2.1608 0
M  V30 77 H -3.0382 -3.4958 0.726 0
M  V30 78 H -2.8906 -1.3038 1.8172 0
M  V30 79 H -1.2754 -1.2269 2.4803 0
M  V30 80 H -3.4994 -4.3917 -2.3076 0
M  V30 81 H -1.9338 0.3978 -0.0367 0
M  V30 82 H -3.2402 2.1706 0.108 0
M  V30 83 H -4.8615 2.3527 2.7134 0
M  V30 84 H -5.9632 0.6148 -0.8216 0
M  V30 85 H -2.9998 3.3663 3.1588 0
M  V30 86 H -4.8243 4.4355 0.4839 0
M  V30 87 H -6.9927 2.9284 -0.3755 0
M  V30 88 H -7.9432 0.9883 0.6521 0
M  V30 89 H -6.937 -0.4187 1.1287 0
M  V30 90 H -6.8428 1.1073 2.0733 0
M  V30 91 H -7.0078 3.3886 2.2349 0
M  V30 92 H -6.0394 4.7591 2.5196 0
M  V30 93 H -7.0724 4.722 1.1728 0
M  V30 94 H -5.503 3.8067 -1.7114 0
M  V30 END ATOM
M  V30 BEGIN BOND
M  V30 1 2 1 2
M  V30 2 1 2 3
M  V30 3 1 2 4
M  V30 4 1 3 5
M  V30 5 2 4 6
M  V30 6 1 5 7
M  V30 7 1 5 8
M  V30 8 1 6 9
M  V30 9 1 7 10
M  V30 10 1 9 11
M  V30 11 1 9 12
M  V30 12 2 10 13
M  V30 13 1 12 14
M  V30 14 1 13 15
M  V30 15 1 14 16
M  V30 16 2 15 17
M  V30 17 1 16 18
M  V30 18 1 16 19
M  V30 19 1 17 20
M  V30 20 1 19 21
M  V30 21 2 20 22
M  V30 22 1 21 23
M  V30 23 1 21 24
M  V30 24 1 21 25
M  V30 25 1 22 26
M  V30 26 1 23 27
M  V30 27 1 25 28
M  V30 28 2 26 29
M  V30 29 1 27 30
M  V30 30 1 27 31
M  V30 31 1 28 32
M  V30 32 1 29 33
M  V30 33 1 30 34
M  V30 34 1 33 35
M  V30 35 2 34 36
M  V30 36 1 34 37
M  V30 37 1 35 38
M  V30 38 1 38 39
M  V30 39 1 38 40
M  V30 40 1 39 41
M  V30 41 1 40 42
M  V30 42 1 40 43
M  V30 43 1 41 44
M  V30 44 1 41 45
M  V30 45 1 43 46
M  V30 46 1 44 47
M  V30 47 1 11 12
M  V30 48 1 28 30
M  V30 49 1 31 33
M  V30 50 1 43 44
M  V30 51 1 4 48
M  V30 52 1 5 49
M  V30 53 1 6 50
M  V30 54 1 7 51
M  V30 55 1 7 52
M  V30 56 1 8 53
M  V30 57 1 8 54
M  V30 58 1 8 55
M  V30 59 1 9 56
M  V30 60 1 10 57
M  V30 61 1 12 58
M  V30 62 1 13 59
M  V30 63 1 14 60
M  V30 64 1 14 61
M  V30 65 1 15 62
M  V30 66 1 16 63
M  V30 67 1 17 64
M  V30 68 1 18 65
M  V30 69 1 19 66
M  V30 70 1 19 67
M  V30 71 1 20 68
M  V30 72 1 22 69
M  V30 73 1 24 70
M  V30 74 1 25 71
M  V30 75 1 25 72
M  V30 76 1 26 73
M  V30 77 1 27 74
M  V30 78 1 28 75
M  V30 79 1 29 76
M  V30 80 1 30 77
M  V30 81 1 31 78
M  V30 82 1 31 79
M  V30 83 1 32 80
M  V30 84 1 33 81
M  V30 85 1 38 82
M  V30 86 1 40 83
M  V30 87 1 41 84
M  V30 88 1 42 85
M  V30 89 1 43 86
M  V30 90 1 44 87
M  V30 91 1 45 88
M  V30 92 1 45 89
M  V30 93 1 45 90
M  V30 94 1 46 91
M  V30 95 1 46 92
M  V30 96 1 46 93
M  V30 97 1 47 94
M  V30 END BOND
M  V30 BEGIN COLLECTION
M  V30 MDLV30/STEABS ATOMS=(14 5 9 12 16 21 27 28 30 33 38 40 41 43 44)
M  V30 END COLLECTION
M  V30 END CTAB
M  END
>  <Structure No>
7855

>  <LogS>
-3.21

>  <MMFF94 Energy>
15.332

$$$$
Compound 7856
Actelion Java MolfileCreator 2.0

  0  0  0  0  0  0              0 V3000
M  V30 BEGIN CTAB
M  V30 COUNTS 18 18 0 0 0
M  V30 BEGIN ATOM
M  V30 1 C -0.1555 -0.0777 0.3889 0
M  V30 2 C 0.5491 1.1374 0.3629 0
M  V30 3 C 0.4896 -1.2568 -0.0203 0
M  V30 4 C -1.6043 -0.1069 0.7962 0
M  V30 5 C 1.8863 1.1673 -0.0452 0
M  V30 6 C 1.827 -1.2224 -0.4278 0
M  V30 7 C -2.5094 0.109 -0.4119 0
M  V30 8 C 2.5252 -0.0118 -0.4382 0
M  V30 9 H 0.063 2.0595 0.6568 0
M  V30 10 H -0.0427 -2.1998 -0.025 0
M  V30 11 H -1.8492 -1.0834 1.2679 0
M  V30 12 H -1.8053 0.6843 1.551 0
M  V30 13 H 2.4262 2.1053 -0.0597 0
M  V30 14 H 2.3209 -2.1339 -0.7383 0
M  V30 15 H -2.3464 -0.6925 -1.1637 0
M  V30 16 H -2.3021 1.0963 -0.8774 0
M  V30 17 H -3.5719 0.0838 -0.0899 0
M  V30 18 H 3.5598 0.0133 -0.755 0
M  V30 END ATOM
M  V30 BEGIN BOND
M  V30 1 2 1 2
M  V30 2 1 1 3
M  V30 3 1 1 4
M  V30 4 1 2 5
M  V30 5 2 3 6
M  V30 6 1 4 7
M  V30 7 2 5 8
M  V30 8 1 6 8
M  V30 9 1 2 9
M  V30 10 1 3 10
M  V30 11 1 4 11
M  V30 12 1 4 12
M  V30 13 1 5 13
M  V30 14 1 6 14
M  V30 15 1 7 15
M  V30 16 1 7 16
M  V30 17 1 7 17
M  V30 18 1 8 18
M  V30 END BOND
M  V30 END CTAB
M  END
>  <Structure No>
7856

>  <LogS>
-2.77

>  <MMFF94 Energy>
18.057

$$$$
Compound 7857
Actelion Java MolfileCreator 2.0

  0  0  0  0  0  0              0 V3000
M  V30 BEGIN CTAB
M  V30 COUNTS 30 33 0 0 0
M  V30 BEGIN ATOM
M  V30 1 C 0.0 -0.5632 -0.4827 0
M  V30 2 C -0.008 0.6124 0.3057 0
M  V30 3 C -1.2021 -1.241 -0.7368 0
M  V30 4 C 1.2097 -1.0441 -1.0061 0
M  V30 5 C -1.2178 1.0934 0.8292 0
M  V30 6 C 1.194 1.2903 0.5598 0
M  V30 7 C -2.4111 -0.7601 -0.2135 0
M  V30 8 C 2.4109 -0.3664 -0.752 0
M  V30 9 C -2.419 0.4156 0.5752 0
M  V30 10 C 2.4029 0.8094 0.0366 0
M  V30 11 C -3.6163 -1.435 -0.465 0
M  V30 12 C 3.6238 -0.8439 -1.2736 0
M  V30 13 C -3.6321 0.8932 1.0969 0
M  V30 14 C 3.6081 1.4844 0.2883 0
M  V30 15 C -4.8168 -0.9486 0.0603 0
M  V30 16 C 4.8163 -0.162 -1.0155 0
M  V30 17 C -4.8246 0.2114 0.8387 0
M  V30 18 C 4.8084 0.9981 -0.2371 0
M  V30 19 H -1.1969 -2.142 -1.3409 0
M  V30 20 H 1.2166 -1.9449 -1.6105 0
M  V30 21 H -1.2247 1.9942 1.4336 0
M  V30 22 H 1.1888 2.1913 1.164 0
M  V30 23 H -3.6301 -2.3363 -1.0663 0
M  V30 24 H 3.6496 -1.7419 -1.8794 0
M  V30 25 H -3.6579 1.7914 1.7026 0
M  V30 26 H 3.6217 2.3858 0.8895 0
M  V30 27 H -5.7434 -1.4724 -0.136 0
M  V30 28 H 5.7488 -0.534 -1.4196 0
M  V30 29 H -5.7572 0.5835 1.2429 0
M  V30 30 H 5.735 1.5219 -0.0404 0
M  V30 END ATOM
M  V30 BEGIN BOND
M  V30 1 1 1 2
M  V30 2 1 1 3
M  V30 3 2 1 4
M  V30 4 1 2 5
M  V30 5 2 2 6
M  V30 6 2 3 7
M  V30 7 1 4 8
M  V30 8 2 5 9
M  V30 9 1 6 10
M  V30 10 1 7 11
M  V30 11 2 8 12
M  V30 12 1 9 13
M  V30 13 2 10 14
M  V30 14 2 11 15
M  V30 15 1 12 16
M  V30 16 2 13 17
M  V30 17 1 14 18
M  V30 18 1 7 9
M  V30 19 1 8 10
M  V30 20 1 15 17
M  V30 21 2 16 18
M  V30 22 1 3 19
M  V30 23 1 4 20
M  V30 24 1 5 21
M  V30 25 1 6 22
M  V30 26 1 11 23
M  V30 27 1 12 24
M  V30 28 1 13 25
M  V30 29 1 14 26
M  V30 30 1 15 27
M  V30 31 1 16 28
M  V30 32 1 17 29
M  V30 33 1 18 30
M  V30 END BOND
M  V30 END CTAB
M  END
>  <Structure No>
7857

>  <LogS>
-8.6

>  <MMFF94 Energy>
55.474

$$$$
Compound 7858
Actelion Java MolfileCreator 2.0

  0  0  0  0  0  0              0 V3000
M  V30 BEGIN CTAB
M  V30 COUNTS 22 24 0 0 0
M  V30 BEGIN ATOM
M  V30 1 N 1.7738 1.2091 -0.5641 0
M  V30 2 C 0.9213 0.213 -0.1932 0
M  V30 3 C 3.1074 0.9876 -0.6999 0
M  V30 4 C 1.447 -1.0745 0.0529 0
M  V30 5 C -0.4633 0.4459 -0.0526 0
M  V30 6 C 3.6221 -0.2867 -0.4556 0
M  V30 7 N 2.7826 -1.2885 -0.0851 0
M  V30 8 C 0.6023 -2.1193 0.4349 0
M  V30 9 C -1.3111 -0.6246 0.3362 0
M  V30 10 C -1.0262 1.7154 -0.2888 0
M  V30 11 C -0.769 -1.8971 0.5761 0
M  V30 12 C -2.6904 -0.4056 0.4793 0
M  V30 13 C -2.4013 1.9165 -0.1417 0
M  V30 14 C -3.2301 0.8603 0.2407 0
M  V30 15 H 3.7632 1.7956 -0.9956 0
M  V30 16 H 4.6816 -0.4784 -0.5596 0
M  V30 17 H 1.0067 -3.1062 0.6233 0
M  V30 18 H -0.4089 2.5539 -0.5866 0
M  V30 19 H -1.4072 -2.7208 0.8733 0
M  V30 20 H -3.3503 -1.2125 0.7755 0
M  V30 21 H -2.8259 2.8952 -0.3251 0
M  V30 22 H -4.2944 1.0233 0.3528 0
M  V30 END ATOM
M  V30 BEGIN BOND
M  V30 1 1 1 2
M  V30 2 2 1 3
M  V30 3 1 2 4
M  V30 4 2 2 5
M  V30 5 1 3 6
M  V30 6 1 4 7
M  V30 7 2 4 8
M  V30 8 1 5 9
M  V30 9 1 5 10
M  V30 10 1 8 11
M  V30 11 1 9 12
M  V30 12 2 10 13
M  V30 13 2 12 14
M  V30 14 2 6 7
M  V30 15 2 9 11
M  V30 16 1 13 14
M  V30 17 1 3 15
M  V30 18 1 6 16
M  V30 19 1 8 17
M  V30 20 1 10 18
M  V30 21 1 11 19
M  V30 22 1 12 20
M  V30 23 1 13 21
M  V30 24 1 14 22
M  V30 END BOND
M  V30 END CTAB
M  END
>  <Structure No>
7858

>  <LogS>
-2.68

>  <MMFF94 Energy>
97.351

$$$$
Compound 7859
Actelion Java MolfileCreator 2.0

  0  0  0  0  0  0              0 V3000
M  V30 BEGIN CTAB
M  V30 COUNTS 5 4 0 0 0
M  V30 BEGIN ATOM
M  V30 1 Cl 1.4452 -1.1116 0.0 0
M  V30 2 C 0.0518 -0.0081 0.0486 0
M  V30 3 Cl 0.6146 1.6664 -0.1531 0
M  V30 4 Cl -1.0742 -0.4172 -1.2649 0
M  V30 5 Cl -0.778 -0.1699 1.6128 0
M  V30 END ATOM
M  V30 BEGIN BOND
M  V30 1 1 1 2
M  V30 2 1 2 3
M  V30 3 1 2 4
M  V30 4 1 2 5
M  V30 END BOND
M  V30 END CTAB
M  END
>  <Structure No>
7859

>  <LogS>
-2.31

>  <MMFF94 Energy>
0.068194

$$$$
Compound 7860
Actelion Java MolfileCreator 2.0

  0  0  0  0  0  0              0 V3000
M  V30 BEGIN CTAB
M  V30 COUNTS 12 12 0 0 0
M  V30 BEGIN ATOM
M  V30 1 Cl -0.6679 3.0556 0.0954 0
M  V30 2 C -0.2855 1.3333 0.0513 0
M  V30 3 C -1.3231 0.3816 0.0208 0
M  V30 4 C 1.0574 0.9095 0.0466 0
M  V30 5 Cl -3.009 0.9023 0.0264 0
M  V30 6 C -1.0125 -0.9884 -0.0142 0
M  V30 7 Cl 2.3645 2.0939 0.0848 0
M  V30 8 C 1.3556 -0.4632 0.0114 0
M  V30 9 Cl -2.2758 -2.2124 -0.0531 0
M  V30 10 C 0.3216 -1.402 -0.0187 0
M  V30 11 Cl 3.0183 -1.0383 0.0043 0
M  V30 12 H 0.5562 -2.4589 -0.0457 0
M  V30 END ATOM
M  V30 BEGIN BOND
M  V30 1 1 1 2
M  V30 2 2 2 3
M  V30 3 1 2 4
M  V30 4 1 3 5
M  V30 5 1 3 6
M  V30 6 1 4 7
M  V30 7 2 4 8
M  V30 8 1 6 9
M  V30 9 2 6 10
M  V30 10 1 8 11
M  V30 11 1 8 10
M  V30 12 1 10 12
M  V30 END BOND
M  V30 END CTAB
M  END
>  <Structure No>
7860

>  <LogS>
-5.65

>  <MMFF94 Energy>
25.714

$$$$
Compound 7861
Actelion Java MolfileCreator 2.0

  0  0  0  0  0  0              0 V3000
M  V30 BEGIN CTAB
M  V30 COUNTS 22 23 0 0 0
M  V30 BEGIN ATOM
M  V30 1 Cl -5.192 -0.7289 0.0 0
M  V30 2 C -3.4555 -0.4841 0.0428 0
M  V30 3 C -2.8875 0.6152 -0.6068 0
M  V30 4 C -2.638 -1.388 0.727 0
M  V30 5 C -1.5037 0.8125 -0.5735 0
M  V30 6 C -1.2537 -1.195 0.762 0
M  V30 7 C -0.6701 -0.0913 0.1118 0
M  V30 8 C 0.8002 0.1159 0.1481 0
M  V30 9 C 1.6805 -0.9753 0.0195 0
M  V30 10 C 1.3375 1.4072 0.3119 0
M  V30 11 C 3.0643 -0.7771 0.0535 0
M  V30 12 C 2.7221 1.5993 0.3462 0
M  V30 13 C 3.5845 0.5086 0.217 0
M  V30 14 H -3.5164 1.316 -1.1411 0
M  V30 15 H -3.074 -2.2388 1.2351 0
M  V30 16 H -1.0843 1.6617 -1.0985 0
M  V30 17 H -0.642 -1.8987 1.3126 0
M  V30 18 H 1.2996 -1.9784 -0.1252 0
M  V30 19 H 0.6877 2.2651 0.4313 0
M  V30 20 H 3.7336 -1.6212 -0.0502 0
M  V30 21 H 3.1264 2.5949 0.4767 0
M  V30 22 H 4.6559 0.6597 0.2434 0
M  V30 END ATOM
M  V30 BEGIN BOND
M  V30 1 1 1 2
M  V30 2 2 2 3
M  V30 3 1 2 4
M  V30 4 1 3 5
M  V30 5 2 4 6
M  V30 6 2 5 7
M  V30 7 1 7 8
M  V30 8 2 8 9
M  V30 9 1 8 10
M  V30 10 1 9 11
M  V30 11 2 10 12
M  V30 12 2 11 13
M  V30 13 1 6 7
M  V30 14 1 12 13
M  V30 15 1 3 14
M  V30 16 1 4 15
M  V30 17 1 5 16
M  V30 18 1 6 17
M  V30 19 1 9 18
M  V30 20 1 10 19
M  V30 21 1 11 20
M  V30 22 1 12 21
M  V30 23 1 13 22
M  V30 END BOND
M  V30 END CTAB
M  END
>  <Structure No>
7861

>  <LogS>
-5.2

>  <MMFF94 Energy>
37.47

$$$$
Compound 7862
Actelion Java MolfileCreator 2.0

  0  0  0  0  0  0              0 V3000
M  V30 BEGIN CTAB
M  V30 COUNTS 22 23 0 0 0
M  V30 BEGIN ATOM
M  V30 1 Cl -0.7619 -2.7957 -0.2539 0
M  V30 2 C -1.5179 -1.206 -0.2169 0
M  V30 3 C -0.7548 -0.0302 -0.0604 0
M  V30 4 C -2.9116 -1.1219 -0.3206 0
M  V30 5 C 0.7165 -0.0797 0.0499 0
M  V30 6 C -1.4053 1.212 0.007 0
M  V30 7 C -3.5494 0.1199 -0.2636 0
M  V30 8 C 1.5276 -0.3438 -1.0734 0
M  V30 9 C 1.3183 0.1569 1.2961 0
M  V30 10 C -2.798 1.2867 -0.0974 0
M  V30 11 Cl 0.8325 -0.5939 -2.6716 0
M  V30 12 C 2.9201 -0.3846 -0.9317 0
M  V30 13 C 2.709 0.1138 1.4272 0
M  V30 14 Cl -3.6015 2.8442 -0.0201 0
M  V30 15 C 3.5086 -0.1591 0.3154 0
M  V30 16 H -3.5031 -2.0207 -0.44 0
M  V30 17 H -0.8287 2.1207 0.1338 0
M  V30 18 H -4.6278 0.1736 -0.344 0
M  V30 19 H 0.7091 0.3678 2.1667 0
M  V30 20 H 3.5485 -0.5861 -1.79 0
M  V30 21 H 3.1668 0.2923 2.3917 0
M  V30 22 H 4.5855 -0.191 0.4188 0
M  V30 END ATOM
M  V30 BEGIN BOND
M  V30 1 1 1 2
M  V30 2 2 2 3
M  V30 3 1 2 4
M  V30 4 1 3 5
M  V30 5 1 3 6
M  V30 6 2 4 7
M  V30 7 2 5 8
M  V30 8 1 5 9
M  V30 9 2 6 10
M  V30 10 1 8 11
M  V30 11 1 8 12
M  V30 12 2 9 13
M  V30 13 1 10 14
M  V30 14 2 12 15
M  V30 15 1 7 10
M  V30 16 1 13 15
M  V30 17 1 4 16
M  V30 18 1 6 17
M  V30 19 1 7 18
M  V30 20 1 9 19
M  V30 21 1 12 20
M  V30 22 1 13 21
M  V30 23 1 15 22
M  V30 END BOND
M  V30 END CTAB
M  END
>  <Structure No>
7862

>  <LogS>
-6.02

>  <MMFF94 Energy>
45.433

$$$$
Compound 7863
Actelion Java MolfileCreator 2.0

  0  0  0  0  0  0              0 V3000
M  V30 BEGIN CTAB
M  V30 COUNTS 22 23 0 0 0
M  V30 BEGIN ATOM
M  V30 1 Cl -0.4324 2.1636 1.8172 0
M  V30 2 C -1.3834 0.9637 0.9479 0
M  V30 3 C -0.7752 0.0308 0.0831 0
M  V30 4 C -2.7712 0.9483 1.1269 0
M  V30 5 C -1.5758 -0.9126 -0.593 0
M  V30 6 C 0.6882 0.0414 -0.1123 0
M  V30 7 C -3.5576 0.012 0.4531 0
M  V30 8 Cl -0.8695 -2.1001 -1.6844 0
M  V30 9 C -2.9623 -0.9152 -0.4037 0
M  V30 10 C 1.2803 0.8153 -1.1298 0
M  V30 11 C 1.4992 -0.733 0.731 0
M  V30 12 Cl 0.3061 1.8033 -2.2127 0
M  V30 13 C 2.6709 0.8051 -1.2906 0
M  V30 14 C 2.8878 -0.7377 0.5636 0
M  V30 15 C 3.4722 0.0313 -0.4469 0
M  V30 16 Cl 3.8955 -1.7084 1.6216 0
M  V30 17 H -3.2424 1.6633 1.7894 0
M  V30 18 H -4.6306 0.0052 0.5955 0
M  V30 19 H -3.5807 -1.6373 -0.9217 0
M  V30 20 H 1.0513 -1.3307 1.5158 0
M  V30 21 H 3.1323 1.3975 -2.0705 0
M  V30 22 H 4.5465 0.0303 -0.5796 0
M  V30 END ATOM
M  V30 BEGIN BOND
M  V30 1 1 1 2
M  V30 2 2 2 3
M  V30 3 1 2 4
M  V30 4 1 3 5
M  V30 5 1 3 6
M  V30 6 2 4 7
M  V30 7 1 5 8
M  V30 8 2 5 9
M  V30 9 2 6 10
M  V30 10 1 6 11
M  V30 11 1 10 12
M  V30 12 1 10 13
M  V30 13 2 11 14
M  V30 14 2 13 15
M  V30 15 1 14 16
M  V30 16 1 7 9
M  V30 17 1 14 15
M  V30 18 1 4 17
M  V30 19 1 7 18
M  V30 20 1 9 19
M  V30 21 1 11 20
M  V30 22 1 13 21
M  V30 23 1 15 22
M  V30 END BOND
M  V30 END CTAB
M  END
>  <Structure No>
7863

>  <LogS>
-6.8

>  <MMFF94 Energy>
42.858

$$$$
Compound 7864
Actelion Java MolfileCreator 2.0

  0  0  0  0  0  0              0 V3000
M  V30 BEGIN CTAB
M  V30 COUNTS 21 20 0 0 0
M  V30 BEGIN ATOM
M  V30 1 O 2.8423 -0.4604 -0.614 0
M  V30 2 C 1.4927 -0.8369 -0.6511 0
M  V30 3 C 0.6087 0.3198 -0.1441 0 CFG=1
M  V30 4 C -0.8999 0.0703 -0.4578 0
M  V30 5 C 0.8874 0.597 1.3451 0
M  V30 6 C -1.5218 -1.0742 0.36 0
M  V30 7 C -1.7373 1.3488 -0.2968 0
M  V30 8 H 3.3568 -1.2431 -0.9424 0
M  V30 9 H 1.3438 -1.7417 -0.0211 0
M  V30 10 H 1.2174 -1.0874 -1.7002 0
M  V30 11 H 0.9183 1.2269 -0.7108 0
M  V30 12 H -0.9775 -0.2151 -1.5309 0
M  V30 13 H 0.2717 1.4415 1.7151 0
M  V30 14 H 1.9522 0.8796 1.4861 0
M  V30 15 H 0.685 -0.3014 1.9647 0
M  V30 16 H -2.5614 -1.2608 0.0155 0
M  V30 17 H -0.9515 -2.0151 0.2228 0
M  V30 18 H -1.5576 -0.8218 1.4404 0
M  V30 19 H -1.2866 2.1843 -0.8734 0
M  V30 20 H -1.8188 1.6466 0.7691 0
M  V30 21 H -2.7637 1.1802 -0.6873 0
M  V30 END ATOM
M  V30 BEGIN BOND
M  V30 1 1 1 2
M  V30 2 1 2 3
M  V30 3 1 3 4
M  V30 4 1 3 5
M  V30 5 1 4 6
M  V30 6 1 4 7
M  V30 7 1 1 8
M  V30 8 1 2 9
M  V30 9 1 2 10
M  V30 10 1 3 11
M  V30 11 1 4 12
M  V30 12 1 5 13
M  V30 13 1 5 14
M  V30 14 1 5 15
M  V30 15 1 6 16
M  V30 16 1 6 17
M  V30 17 1 6 18
M  V30 18 1 7 19
M  V30 19 1 7 20
M  V30 20 1 7 21
M  V30 END BOND
M  V30 BEGIN COLLECTION
M  V30 MDLV30/STEABS ATOMS=(1 3)
M  V30 END COLLECTION
M  V30 END CTAB
M  END
>  <Structure No>
7864

>  <LogS>
-0.39

>  <MMFF94 Energy>
11.63

$$$$
Compound 7865
Actelion Java MolfileCreator 2.0

  0  0  0  0  0  0              0 V3000
M  V30 BEGIN CTAB
M  V30 COUNTS 18 18 0 0 0
M  V30 BEGIN ATOM
M  V30 1 O 2.5499 -3.1084 -1.1946 0
M  V30 2 C 2.457 -2.0095 -1.8042 0
M  V30 3 O 3.2204 -1.7962 -2.9443 0 CHG=-1
M  V30 4 C 1.5553 -0.9474 -1.3283 0
M  V30 5 C 0.7762 -1.1009 -0.248 0
M  V30 6 C -0.1525 -0.0583 0.2542 0
M  V30 7 C -1.2074 -0.4473 1.0983 0
M  V30 8 C 0.0028 1.3095 -0.053 0
M  V30 9 C -2.1014 0.5018 1.6029 0
M  V30 10 C -0.8942 2.2544 0.4555 0
M  V30 11 C -1.9468 1.8511 1.2793 0
M  V30 12 H 1.5249 -0.0346 -1.9061 0
M  V30 13 H 0.7857 -2.0511 0.2736 0
M  V30 14 H -1.3447 -1.4891 1.3609 0
M  V30 15 H 0.8234 1.6612 -0.6621 0
M  V30 16 H -2.9141 0.1906 2.2464 0
M  V30 17 H -0.7682 3.3025 0.2159 0
M  V30 18 H -2.6387 2.5848 1.6723 0
M  V30 END ATOM
M  V30 BEGIN BOND
M  V30 1 2 1 2
M  V30 2 1 2 3
M  V30 3 1 2 4
M  V30 4 2 4 5
M  V30 5 1 5 6
M  V30 6 2 6 7
M  V30 7 1 6 8
M  V30 8 1 7 9
M  V30 9 2 8 10
M  V30 10 2 9 11
M  V30 11 1 10 11
M  V30 12 1 4 12
M  V30 13 1 5 13
M  V30 14 1 7 14
M  V30 15 1 8 15
M  V30 16 1 9 16
M  V30 17 1 10 17
M  V30 18 1 11 18
M  V30 END BOND
M  V30 END CTAB
M  END
>  <Structure No>
7865

>  <LogS>
-2.48

>  <MMFF94 Energy>
10.938

$$$$
Compound 7866
Actelion Java MolfileCreator 2.0

  0  0  0  0  0  0              0 V3000
M  V30 BEGIN CTAB
M  V30 COUNTS 17 16 0 0 0
M  V30 BEGIN ATOM
M  V30 1 O 0.1542 0.0771 -1.7747 0
M  V30 2 C 0.4216 -0.1499 -0.5629 0
M  V30 3 O -0.4544 0.2516 0.4519 0
M  V30 4 C 1.7147 -0.8067 -0.1992 0
M  V30 5 C -1.7171 0.8657 0.2015 0
M  V30 6 C 2.7936 0.239 0.0558 0
M  V30 7 C -2.7349 -0.1675 -0.2676 0
M  V30 8 H 2.0393 -1.4813 -1.021 0
M  V30 9 H 1.5713 -1.4199 0.7161 0
M  V30 10 H -2.0819 1.3218 1.146 0
M  V30 11 H -1.6119 1.675 -0.5536 0
M  V30 12 H 3.744 -0.2665 0.328 0
M  V30 13 H 2.9638 0.8485 -0.8575 0
M  V30 14 H 2.4939 0.9065 0.8921 0
M  V30 15 H -2.8308 -0.9752 0.4885 0
M  V30 16 H -3.7244 0.3178 -0.4031 0
M  V30 17 H -2.4198 -0.6101 -1.2355 0
M  V30 END ATOM
M  V30 BEGIN BOND
M  V30 1 2 1 2
M  V30 2 1 2 3
M  V30 3 1 2 4
M  V30 4 1 3 5
M  V30 5 1 4 6
M  V30 6 1 5 7
M  V30 7 1 4 8
M  V30 8 1 4 9
M  V30 9 1 5 10
M  V30 10 1 5 11
M  V30 11 1 6 12
M  V30 12 1 6 13
M  V30 13 1 6 14
M  V30 14 1 7 15
M  V30 15 1 7 16
M  V30 16 1 7 17
M  V30 END BOND
M  V30 END CTAB
M  END
>  <Structure No>
7866

>  <LogS>
-0.66

>  <MMFF94 Energy>
-12.438

$$$$
Compound 7867
Actelion Java MolfileCreator 2.0

  0  0  0  0  0  0              0 V3000
M  V30 BEGIN CTAB
M  V30 COUNTS 16 16 0 0 0
M  V30 BEGIN ATOM
M  V30 1 O 1.7173 0.234 0.7022 0
M  V30 2 C 0.3506 0.183 0.3897 0
M  V30 3 C 2.7514 -0.2829 -0.1288 0
M  V30 4 C -0.1315 -0.3969 -0.8009 0
M  V30 5 C -0.5618 0.7316 1.3005 0
M  V30 6 C -1.5049 -0.422 -1.0649 0
M  V30 7 C -1.934 0.7046 1.0331 0
M  V30 8 C -2.4055 0.128 -0.1489 0
M  V30 9 H 3.7312 -0.1081 0.3607 0
M  V30 10 H 2.6152 -1.3755 -0.2725 0
M  V30 11 H 2.7469 0.2356 -1.1108 0
M  V30 12 H 0.5442 -0.8293 -1.5258 0
M  V30 13 H -0.2052 1.1803 2.2191 0
M  V30 14 H -1.8713 -0.8682 -1.9803 0
M  V30 15 H -2.6319 1.1307 1.7424 0
M  V30 16 H -3.4678 0.1076 -0.3551 0
M  V30 END ATOM
M  V30 BEGIN BOND
M  V30 1 1 1 2
M  V30 2 1 1 3
M  V30 3 2 2 4
M  V30 4 1 2 5
M  V30 5 1 4 6
M  V30 6 2 5 7
M  V30 7 2 6 8
M  V30 8 1 7 8
M  V30 9 1 3 9
M  V30 10 1 3 10
M  V30 11 1 3 11
M  V30 12 1 4 12
M  V30 13 1 5 13
M  V30 14 1 6 14
M  V30 15 1 7 15
M  V30 16 1 8 16
M  V30 END BOND
M  V30 END CTAB
M  END
>  <Structure No>
7867

>  <LogS>
-1.85

>  <MMFF94 Energy>
20.501

$$$$
Compound 7868
Actelion Java MolfileCreator 2.0

  0  0  0  0  0  0              0 V3000
M  V30 BEGIN CTAB
M  V30 COUNTS 22 21 0 0 0
M  V30 BEGIN ATOM
M  V30 1 O 1.3059 -0.6912 0.6143 0
M  V30 2 C 2.0377 -0.4155 -0.5626 0
M  V30 3 C -0.006 -1.1167 0.2961 0
M  V30 4 C 3.385 0.1898 -0.1902 0
M  V30 5 C -0.9795 0.0621 0.3926 0
M  V30 6 O 3.1903 1.4049 0.4787 0
M  V30 7 C -2.4216 -0.3877 0.1315 0
M  V30 8 C -3.3914 0.7863 0.2287 0
M  V30 9 H 1.4967 0.3047 -1.2183 0
M  V30 10 H 2.2227 -1.3573 -1.127 0
M  V30 11 H -0.3021 -1.8824 1.0449 0
M  V30 12 H -0.0859 -1.6069 -0.704 0
M  V30 13 H 3.9751 0.362 -1.1178 0
M  V30 14 H 3.9408 -0.519 0.4637 0
M  V30 15 H -0.6951 0.8372 -0.3515 0
M  V30 16 H -0.9078 0.5088 1.4088 0
M  V30 17 H 4.0963 1.7469 0.6958 0
M  V30 18 H -2.7151 -1.1587 0.8771 0
M  V30 19 H -2.4972 -0.8332 -0.8844 0
M  V30 20 H -3.1358 1.5615 -0.5248 0
M  V30 21 H -4.4257 0.4312 0.0358 0
M  V30 22 H -3.3537 1.2351 1.2444 0
M  V30 END ATOM
M  V30 BEGIN BOND
M  V30 1 1 1 2
M  V30 2 1 1 3
M  V30 3 1 2 4
M  V30 4 1 3 5
M  V30 5 1 4 6
M  V30 6 1 5 7
M  V30 7 1 7 8
M  V30 8 1 2 9
M  V30 9 1 2 10
M  V30 10 1 3 11
M  V30 11 1 3 12
M  V30 12 1 4 13
M  V30 13 1 4 14
M  V30 14 1 5 15
M  V30 15 1 5 16
M  V30 16 1 6 17
M  V30 17 1 7 18
M  V30 18 1 7 19
M  V30 19 1 8 20
M  V30 20 1 8 21
M  V30 21 1 8 22
M  V30 END BOND
M  V30 END CTAB
M  END
>  <Structure No>
7868

>  <LogS>
-0.42

>  <MMFF94 Energy>
23.174

$$$$
Compound 7869
Actelion Java MolfileCreator 2.0

  0  0  0  0  0  0              0 V3000
M  V30 BEGIN CTAB
M  V30 COUNTS 54 57 0 0 0
M  V30 BEGIN ATOM
M  V30 1 O -6.1628 0.3236 -1.7 0
M  V30 2 C -5.0192 0.3882 -1.1763 0
M  V30 3 C -4.1399 -0.7948 -1.2103 0
M  V30 4 C -4.5797 1.6653 -0.5192 0
M  V30 5 C -2.9562 -0.8228 -0.57 0
M  V30 6 C -3.0568 1.6823 -0.3165 0
M  V30 7 C -2.5072 0.3511 0.2926 0 CFG=2
M  V30 8 C -2.0627 -2.0253 -0.755 0
M  V30 9 C -0.9313 0.3814 0.3925 0 CFG=1
M  V30 10 C -3.1138 0.1729 1.713 0
M  V30 11 C -1.0592 -2.2388 0.3896 0
M  V30 12 C -0.3702 -0.9592 0.9618 0 CFG=1
M  V30 13 C -0.2229 0.7651 -0.9341 0
M  V30 14 C 1.1879 -1.0625 0.9504 0 CFG=1
M  V30 15 C 1.2992 0.786 -0.789 0
M  V30 16 C 1.8961 -0.5702 -0.328 0 CFG=1
M  V30 17 C 1.8553 -0.285 2.0979 0
M  V30 18 C 3.3573 -0.411 0.1677 0 CFG=2
M  V30 19 C 1.834 -1.6136 -1.4672 0
M  V30 20 C 3.2687 0.0655 1.6254 0
M  V30 21 C 4.2837 0.3869 -0.7423 0
M  V30 22 O 4.9414 -0.2222 -1.573 0
M  V30 23 C 4.4178 1.8899 -0.705 0
M  V30 24 O 5.706 2.2457 -0.2853 0
M  V30 25 H -4.4544 -1.6454 -1.8042 0
M  V30 26 H -5.1092 1.7922 0.4476 0
M  V30 27 H -4.8669 2.5249 -1.1631 0
M  V30 28 H -2.7762 2.5477 0.3229 0
M  V30 29 H -2.6306 1.851 -1.3259 0
M  V30 30 H -2.6844 -2.9457 -0.8265 0
M  V30 31 H -1.5307 -1.9337 -1.7228 0
M  V30 32 H -0.671 1.1842 1.1191 0
M  V30 33 H -4.2217 0.1557 1.6915 0
M  V30 34 H -2.8238 -0.7921 2.1725 0
M  V30 35 H -2.7888 0.9975 2.3832 0
M  V30 36 H -0.3106 -2.9822 0.0427 0
M  V30 37 H -1.6039 -2.7431 1.2192 0
M  V30 38 H -0.626 -0.9591 2.0447 0
M  V30 39 H -0.5226 0.1035 -1.7686 0
M  V30 40 H -0.4983 1.7994 -1.2225 0
M  V30 41 H 1.4693 -2.1281 1.1216 0
M  V30 42 H 1.7459 1.0869 -1.762 0
M  V30 43 H 1.5443 1.5812 -0.0537 0
M  V30 44 H 1.887 -0.9001 3.0241 0
M  V30 45 H 1.2997 0.6518 2.3204 0
M  V30 46 H 3.7991 -1.4344 0.2313 0
M  V30 47 H 0.7963 -1.7845 -1.8067 0
M  V30 48 H 2.2462 -2.5907 -1.1359 0
M  V30 49 H 2.4247 -1.266 -2.3409 0
M  V30 50 H 4.0277 -0.4567 2.249 0
M  V30 51 H 3.4321 1.1549 1.7401 0
M  V30 52 H 4.2577 2.2843 -1.7305 0
M  V30 53 H 3.6604 2.3792 -0.0607 0
M  V30 54 H 5.7366 2.0894 0.6948 0
M  V30 END ATOM
M  V30 BEGIN BOND
M  V30 1 2 1 2
M  V30 2 1 2 3
M  V30 3 1 2 4
M  V30 4 2 3 5
M  V30 5 1 4 6
M  V30 6 1 5 7
M  V30 7 1 5 8
M  V30 8 1 7 9
M  V30 9 1 7 10
M  V30 10 1 8 11
M  V30 11 1 9 12
M  V30 12 1 9 13
M  V30 13 1 12 14
M  V30 14 1 13 15
M  V30 15 1 14 16
M  V30 16 1 14 17
M  V30 17 1 16 18
M  V30 18 1 16 19
M  V30 19 1 17 20
M  V30 20 1 18 21
M  V30 21 2 21 22
M  V30 22 1 21 23
M  V30 23 1 23 24
M  V30 24 1 6 7
M  V30 25 1 11 12
M  V30 26 1 15 16
M  V30 27 1 18 20
M  V30 28 1 3 25
M  V30 29 1 4 26
M  V30 30 1 4 27
M  V30 31 1 6 28
M  V30 32 1 6 29
M  V30 33 1 8 30
M  V30 34 1 8 31
M  V30 35 1 9 32
M  V30 36 1 10 33
M  V30 37 1 10 34
M  V30 38 1 10 35
M  V30 39 1 11 36
M  V30 40 1 11 37
M  V30 41 1 12 38
M  V30 42 1 13 39
M  V30 43 1 13 40
M  V30 44 1 14 41
M  V30 45 1 15 42
M  V30 46 1 15 43
M  V30 47 1 17 44
M  V30 48 1 17 45
M  V30 49 1 18 46
M  V30 50 1 19 47
M  V30 51 1 19 48
M  V30 52 1 19 49
M  V30 53 1 20 50
M  V30 54 1 20 51
M  V30 55 1 23 52
M  V30 56 1 23 53
M  V30 57 1 24 54
M  V30 END BOND
M  V30 BEGIN COLLECTION
M  V30 MDLV30/STEABS ATOMS=(6 7 9 12 14 16 18)
M  V30 END COLLECTION
M  V30 END CTAB
M  END
>  <Structure No>
7869

>  <LogS>
-3.75

>  <MMFF94 Energy>
95.802

$$$$
Compound 7870
Actelion Java MolfileCreator 2.0

  0  0  0  0  0  0              0 V3000
M  V30 BEGIN CTAB
M  V30 COUNTS 56 59 0 0 0
M  V30 BEGIN ATOM
M  V30 1 F -1.1398 -1.0583 1.5471 0
M  V30 2 C -1.1541 -0.4531 0.2907 0 CFG=2
M  V30 3 C -2.6972 -0.356 -0.1849 0 CFG=1
M  V30 4 C -0.2283 -1.3828 -0.5841 0 CFG=1
M  V30 5 C -0.4929 0.9499 0.4956 0 CFG=2
M  V30 6 C -3.325 1.0357 0.0602 0
M  V30 7 C -2.8876 -0.6736 -1.7055 0
M  V30 8 C -3.5355 -1.3821 0.6332 0
M  V30 9 O -0.1806 -0.9715 -1.9247 0
M  V30 10 C 1.2237 -1.4669 -0.0303 0
M  V30 11 C 0.9461 0.7594 1.0561 0 CFG=1
M  V30 12 C -1.3368 1.748 1.5019 0
M  V30 13 C -4.4741 1.3834 -0.5531 0
M  V30 14 C -2.7046 2.098 0.9375 0
M  V30 15 C -4.3493 -0.6159 -2.1856 0
M  V30 16 C 1.8744 -0.0624 0.1489 0 CFG=1
M  V30 17 C 1.763 1.988 1.4332 0
M  V30 18 C -5.0799 0.5569 -1.6073 0
M  V30 19 C 3.2117 0.0039 0.971 0 CFG=1
M  V30 20 C 2.1093 0.6088 -1.2485 0
M  V30 21 C 3.2176 1.4838 1.4764 0
M  V30 22 O -6.2263 0.8461 -2.0383 0
M  V30 23 O 3.1486 -0.8058 2.1276 0
M  V30 24 C 4.4793 -0.3424 0.1644 0
M  V30 25 O 5.2383 0.5482 -0.2025 0
M  V30 26 C 4.82 -1.7622 -0.2318 0
M  V30 27 O 5.8561 -2.2581 0.582 0
M  V30 28 H -0.6602 -2.4104 -0.5384 0
M  V30 29 H -0.4712 1.5106 -0.4611 0
M  V30 30 H -2.5153 -1.6883 -1.95 0
M  V30 31 H -2.3213 0.0786 -2.2976 0
M  V30 32 H -3.5015 -1.1416 1.7186 0
M  V30 33 H -4.6106 -1.3747 0.3614 0
M  V30 34 H -3.1442 -2.4111 0.4783 0
M  V30 35 H 0.1269 -1.7508 -2.4592 0
M  V30 36 H 1.8323 -2.0871 -0.7203 0
M  V30 37 H 1.1804 -2.0057 0.9386 0
M  V30 38 H 0.8267 0.2021 2.0166 0
M  V30 39 H -1.462 1.1799 2.4498 0
M  V30 40 H -0.83 2.702 1.7609 0
M  V30 41 H -4.9421 2.337 -0.332 0
M  V30 42 H -2.5949 3.0277 0.3359 0
M  V30 43 H -3.3935 2.3258 1.7795 0
M  V30 44 H -4.8825 -1.5531 -1.9178 0
M  V30 45 H -4.3592 -0.5376 -3.2947 0
M  V30 46 H 1.4572 2.3859 2.4254 0
M  V30 47 H 1.6418 2.7844 0.6665 0
M  V30 48 H 1.184 0.9425 -1.7468 0
M  V30 49 H 2.7422 1.5161 -1.1773 0
M  V30 50 H 2.6268 -0.0984 -1.9306 0
M  V30 51 H 3.6215 1.5505 2.5109 0
M  V30 52 H 3.8312 2.1578 0.8421 0
M  V30 53 H 3.1861 -1.7596 1.867 0
M  V30 54 H 5.1153 -1.8015 -1.3101 0
M  V30 55 H 3.9451 -2.427 -0.1143 0
M  V30 56 H 6.6872 -1.7771 0.3183 0
M  V30 END ATOM
M  V30 BEGIN BOND
M  V30 1 1 1 2
M  V30 2 1 2 3
M  V30 3 1 2 4
M  V30 4 1 2 5
M  V30 5 1 3 6
M  V30 6 1 3 7
M  V30 7 1 3 8
M  V30 8 1 4 9
M  V30 9 1 4 10
M  V30 10 1 5 11
M  V30 11 1 5 12
M  V30 12 2 6 13
M  V30 13 1 6 14
M  V30 14 1 7 15
M  V30 15 1 10 16
M  V30 16 1 11 17
M  V30 17 1 13 18
M  V30 18 1 16 19
M  V30 19 1 16 20
M  V30 20 1 17 21
M  V30 21 2 18 22
M  V30 22 1 19 23
M  V30 23 1 19 24
M  V30 24 2 24 25
M  V30 25 1 24 26
M  V30 26 1 26 27
M  V30 27 1 11 16
M  V30 28 1 12 14
M  V30 29 1 15 18
M  V30 30 1 19 21
M  V30 31 1 4 28
M  V30 32 1 5 29
M  V30 33 1 7 30
M  V30 34 1 7 31
M  V30 35 1 8 32
M  V30 36 1 8 33
M  V30 37 1 8 34
M  V30 38 1 9 35
M  V30 39 1 10 36
M  V30 40 1 10 37
M  V30 41 1 11 38
M  V30 42 1 12 39
M  V30 43 1 12 40
M  V30 44 1 13 41
M  V30 45 1 14 42
M  V30 46 1 14 43
M  V30 47 1 15 44
M  V30 48 1 15 45
M  V30 49 1 17 46
M  V30 50 1 17 47
M  V30 51 1 20 48
M  V30 52 1 20 49
M  V30 53 1 20 50
M  V30 54 1 21 51
M  V30 55 1 21 52
M  V30 56 1 23 53
M  V30 57 1 26 54
M  V30 58 1 26 55
M  V30 59 1 27 56
M  V30 END BOND
M  V30 BEGIN COLLECTION
M  V30 MDLV30/STEABS ATOMS=(7 2 3 4 5 11 16 19)
M  V30 END COLLECTION
M  V30 END CTAB
M  END
>  <Structure No>
7870

>  <LogS>
-3.43

>  <MMFF94 Energy>
166.08

$$$$
Compound 7871
Actelion Java MolfileCreator 2.0

  0  0  0  0  0  0              0 V3000
M  V30 BEGIN CTAB
M  V30 COUNTS 15 15 0 0 0
M  V30 BEGIN ATOM
M  V30 1 O -2.6536 -1.6076 0.0803 0
M  V30 2 C -2.1712 -0.4537 -0.0714 0
M  V30 3 O -3.0291 0.6041 -0.3465 0 CHG=-1
M  V30 4 C -0.7066 -0.2499 -0.0284 0
M  V30 5 C -0.1189 0.947 0.4546 0
M  V30 6 C 0.1307 -1.2692 -0.5194 0
M  V30 7 O -0.8674 1.9663 1.0468 0
M  V30 8 C 1.2692 1.1179 0.3767 0
M  V30 9 C 1.5149 -1.0912 -0.5703 0
M  V30 10 C 2.0825 0.1044 -0.1321 0
M  V30 11 H -0.2891 -2.1964 -0.8902 0
M  V30 12 H -1.8395 1.865 1.3043 0
M  V30 13 H 1.7213 2.034 0.7353 0
M  V30 14 H 2.1473 -1.8782 -0.9604 0
M  V30 15 H 3.155 0.2431 -0.178 0
M  V30 END ATOM
M  V30 BEGIN BOND
M  V30 1 2 1 2
M  V30 2 1 2 3
M  V30 3 1 2 4
M  V30 4 2 4 5
M  V30 5 1 4 6
M  V30 6 1 5 7
M  V30 7 1 5 8
M  V30 8 2 6 9
M  V30 9 2 8 10
M  V30 10 1 9 10
M  V30 11 1 6 11
M  V30 12 1 7 12
M  V30 13 1 8 13
M  V30 14 1 9 14
M  V30 15 1 10 15
M  V30 END BOND
M  V30 END CTAB
M  END
>  <Structure No>
7871

>  <LogS>
-1.82

>  <MMFF94 Energy>
12.803

$$$$
Compound 7872
Actelion Java MolfileCreator 2.0

  0  0  0  0  0  0              0 V3000
M  V30 BEGIN CTAB
M  V30 COUNTS 14 14 0 0 0
M  V30 BEGIN ATOM
M  V30 1 Cl -3.6625 0.1662 0.0 0
M  V30 2 C -1.9102 0.0843 -2.0E-4 0
M  V30 3 C -1.2623 -1.0408 -0.5178 0
M  V30 4 C -1.1598 1.1441 0.5171 0
M  V30 5 C 0.1343 -1.1081 -0.5189 0
M  V30 6 C 0.237 1.0809 0.518 0
M  V30 7 C 0.899 -0.0465 -2.0E-4 0
M  V30 8 C 2.377 -0.1113 0.0014 0
M  V30 9 O 2.9746 -1.119 -0.4617 0
M  V30 10 O 3.1277 0.94 0.515 0 CHG=-1
M  V30 11 H -1.8394 -1.8639 -0.9195 0
M  V30 12 H -1.6575 2.0176 0.9192 0
M  V30 13 H 0.6142 -1.9896 -0.9252 0
M  V30 14 H 0.7968 1.914 0.9241 0
M  V30 END ATOM
M  V30 BEGIN BOND
M  V30 1 1 1 2
M  V30 2 2 2 3
M  V30 3 1 2 4
M  V30 4 1 3 5
M  V30 5 2 4 6
M  V30 6 2 5 7
M  V30 7 1 7 8
M  V30 8 2 8 9
M  V30 9 1 8 10
M  V30 10 1 6 7
M  V30 11 1 3 11
M  V30 12 1 4 12
M  V30 13 1 5 13
M  V30 14 1 6 14
M  V30 END BOND
M  V30 END CTAB
M  END
>  <Structure No>
7872

>  <LogS>
-3.31

>  <MMFF94 Energy>
32.586

$$$$
Compound 7873
Actelion Java MolfileCreator 2.0

  0  0  0  0  0  0              0 V3000
M  V30 BEGIN CTAB
M  V30 COUNTS 23 22 0 0 0
M  V30 BEGIN ATOM
M  V30 1 N 3.4968 0.3036 0.1518 0 CHG=1
M  V30 2 C 2.0978 0.221 -0.2669 0
M  V30 3 C 1.3374 -0.8224 0.5673 0
M  V30 4 C -0.099 -1.0475 0.0698 0
M  V30 5 C -1.0216 0.1443 0.3654 0
M  V30 6 C -2.4697 -0.1733 -0.0252 0
M  V30 7 C -3.3899 1.0109 0.2563 0
M  V30 8 H 3.9833 1.0301 -0.4216 0
M  V30 9 H 3.5542 0.5742 1.1605 0
M  V30 10 H 3.9714 -0.6165 0.0043 0
M  V30 11 H 2.0541 -0.0561 -1.3435 0
M  V30 12 H 1.626 1.2198 -0.1445 0
M  V30 13 H 1.8783 -1.7918 0.5043 0
M  V30 14 H 1.3236 -0.5144 1.6358 0
M  V30 15 H -0.5014 -1.9481 0.5836 0
M  V30 16 H -0.091 -1.2588 -1.022 0
M  V30 17 H -0.682 1.0322 -0.2091 0
M  V30 18 H -0.9795 0.3853 1.4506 0
M  V30 19 H -2.5202 -0.4183 -1.1086 0
M  V30 20 H -2.8302 -1.0527 0.5517 0
M  V30 21 H -4.4295 0.7513 -0.0346 0
M  V30 22 H -3.3762 1.2615 1.3385 0
M  V30 23 H -3.068 1.8979 -0.3298 0
M  V30 END ATOM
M  V30 BEGIN BOND
M  V30 1 1 1 2
M  V30 2 1 2 3
M  V30 3 1 3 4
M  V30 4 1 4 5
M  V30 5 1 5 6
M  V30 6 1 6 7
M  V30 7 1 1 8
M  V30 8 1 1 9
M  V30 9 1 1 10
M  V30 10 1 2 11
M  V30 11 1 2 12
M  V30 12 1 3 13
M  V30 13 1 3 14
M  V30 14 1 4 15
M  V30 15 1 4 16
M  V30 16 1 5 17
M  V30 17 1 5 18
M  V30 18 1 6 19
M  V30 19 1 6 20
M  V30 20 1 7 21
M  V30 21 1 7 22
M  V30 22 1 7 23
M  V30 END BOND
M  V30 END CTAB
M  END
>  <Structure No>
7873

>  <LogS>
-1.1

>  <MMFF94 Energy>
-2.4802

$$$$
Compound 7874
Actelion Java MolfileCreator 2.0

  0  0  0  0  0  0              0 V3000
M  V30 BEGIN CTAB
M  V30 COUNTS 29 28 0 0 0
M  V30 BEGIN ATOM
M  V30 1 N 4.6716 -0.6881 0.0 0 CHG=1
M  V30 2 C 3.3247 -0.2651 -0.3825 0
M  V30 3 C 2.4507 -0.0313 0.8605 0
M  V30 4 C 1.0719 0.5552 0.5174 0
M  V30 5 C 0.1386 -0.4762 -0.1405 0
M  V30 6 C -1.2501 0.1025 -0.4587 0
M  V30 7 C -2.1416 0.2199 0.79 0
M  V30 8 C -3.5222 0.8162 0.4731 0
M  V30 9 C -4.4249 -0.1509 -0.2925 0
M  V30 10 H 5.2366 -0.8537 -0.864 0
M  V30 11 H 5.135 0.0573 0.5686 0
M  V30 12 H 4.6261 -1.5765 0.5503 0
M  V30 13 H 3.3914 0.674 -0.9754 0
M  V30 14 H 2.8702 -1.0503 -1.0238 0
M  V30 15 H 2.972 0.6869 1.5306 0
M  V30 16 H 2.328 -0.9838 1.4209 0
M  V30 17 H 1.1935 1.4375 -0.1485 0
M  V30 18 H 0.6165 0.9109 1.4649 0
M  V30 19 H 0.0348 -1.3703 0.5125 0
M  V30 20 H 0.5882 -0.8105 -1.099 0
M  V30 21 H -1.1429 1.0958 -0.9472 0
M  V30 22 H -1.7377 -0.5794 -1.1868 0
M  V30 23 H -1.6531 0.887 1.5302 0
M  V30 24 H -2.2637 -0.7778 1.2655 0
M  V30 25 H -3.4091 1.7588 -0.1053 0
M  V30 26 H -4.0229 1.0702 1.4326 0
M  V30 27 H -5.4417 0.2863 -0.3809 0
M  V30 28 H -4.5033 -1.1192 0.2456 0
M  V30 29 H -4.0364 -0.3263 -1.3167 0
M  V30 END ATOM
M  V30 BEGIN BOND
M  V30 1 1 1 2
M  V30 2 1 2 3
M  V30 3 1 3 4
M  V30 4 1 4 5
M  V30 5 1 5 6
M  V30 6 1 6 7
M  V30 7 1 7 8
M  V30 8 1 8 9
M  V30 9 1 1 10
M  V30 10 1 1 11
M  V30 11 1 1 12
M  V30 12 1 2 13
M  V30 13 1 2 14
M  V30 14 1 3 15
M  V30 15 1 3 16
M  V30 16 1 4 17
M  V30 17 1 4 18
M  V30 18 1 5 19
M  V30 19 1 5 20
M  V30 20 1 6 21
M  V30 21 1 6 22
M  V30 22 1 7 23
M  V30 23 1 7 24
M  V30 24 1 8 25
M  V30 25 1 8 26
M  V30 26 1 9 27
M  V30 27 1 9 28
M  V30 28 1 9 29
M  V30 END BOND
M  V30 END CTAB
M  END
>  <Structure No>
7874

>  <LogS>
-2.75

>  <MMFF94 Energy>
-2.1133

$$$$
Compound 7875
Actelion Java MolfileCreator 2.0

  0  0  0  0  0  0              0 V3000
M  V30 BEGIN CTAB
M  V30 COUNTS 43 44 0 0 0
M  V30 BEGIN ATOM
M  V30 1 O -1.0426 -2.4074 0.4811 0
M  V30 2 C -1.4991 -1.3254 0.1377 0
M  V30 3 C -1.0842 -0.0637 0.8689 0 CFG=1
M  V30 4 C -2.5116 -1.2298 -0.9828 0 CFG=2
M  V30 5 C 0.4589 0.0474 1.0479 0 CFG=1
M  V30 6 C -1.6739 1.1922 0.1836 0
M  V30 7 C -3.6688 -0.3345 -0.506 0
M  V30 8 C -3.037 -2.6038 -1.4239 0
M  V30 9 O 0.8762 -0.8716 2.0261 0
M  V30 10 C 1.249 -0.2156 -0.2598 0
M  V30 11 C -3.2009 1.0869 -0.0771 0 CFG=1
M  V30 12 C 2.6667 0.4067 -0.2651 0
M  V30 13 C -4.003 1.5791 1.1362 0
M  V30 14 C 3.5901 -0.2515 0.7857 0
M  V30 15 C 3.2795 0.2855 -1.6764 0
M  V30 16 C 5.0007 0.2575 0.6825 0
M  V30 17 C 4.6675 0.8516 -1.7121 0
M  V30 18 O 5.7659 0.1712 1.6795 0
M  V30 19 N 5.4998 0.7855 -0.5516 0
M  V30 20 O 5.1198 1.3426 -2.7805 0
M  V30 21 H -1.5361 -0.1154 1.8839 0
M  V30 22 H -2.023 -0.7543 -1.8609 0
M  V30 23 H 0.6925 1.0809 1.3977 0
M  V30 24 H -1.1754 1.3545 -0.7937 0
M  V30 25 H -1.4504 2.0921 0.7963 0
M  V30 26 H -4.1771 -0.8466 0.344 0
M  V30 27 H -4.4237 -0.2374 -1.3188 0
M  V30 28 H -2.2007 -3.2288 -1.8038 0
M  V30 29 H -3.5278 -3.1303 -0.5766 0
M  V30 30 H -3.7746 -2.483 -2.2452 0
M  V30 31 H 0.6312 -0.4883 2.9092 0
M  V30 32 H 1.3239 -1.3101 -0.4375 0
M  V30 33 H 0.6904 0.2042 -1.12 0
M  V30 34 H -3.4324 1.7825 -0.9154 0
M  V30 35 H 2.5748 1.4919 -0.027 0
M  V30 36 H -3.7872 0.9542 2.0293 0
M  V30 37 H -3.7455 2.6348 1.3666 0
M  V30 38 H -5.0916 1.5309 0.9188 0
M  V30 39 H 3.5994 -1.3557 0.6511 0
M  V30 40 H 3.2175 -0.0215 1.8068 0
M  V30 41 H 3.3238 -0.7812 -1.983 0
M  V30 42 H 2.6458 0.8338 -2.4057 0
M  V30 43 H 6.482 1.138 -0.6008 0
M  V30 END ATOM
M  V30 BEGIN BOND
M  V30 1 2 1 2
M  V30 2 1 2 3
M  V30 3 1 2 4
M  V30 4 1 3 5
M  V30 5 1 3 6
M  V30 6 1 4 7
M  V30 7 1 4 8
M  V30 8 1 5 9
M  V30 9 1 5 10
M  V30 10 1 6 11
M  V30 11 1 10 12
M  V30 12 1 11 13
M  V30 13 1 12 14
M  V30 14 1 12 15
M  V30 15 1 14 16
M  V30 16 1 15 17
M  V30 17 2 16 18
M  V30 18 1 16 19
M  V30 19 2 17 20
M  V30 20 1 7 11
M  V30 21 1 17 19
M  V30 22 1 3 21
M  V30 23 1 4 22
M  V30 24 1 5 23
M  V30 25 1 6 24
M  V30 26 1 6 25
M  V30 27 1 7 26
M  V30 28 1 7 27
M  V30 29 1 8 28
M  V30 30 1 8 29
M  V30 31 1 8 30
M  V30 32 1 9 31
M  V30 33 1 10 32
M  V30 34 1 10 33
M  V30 35 1 11 34
M  V30 36 1 12 35
M  V30 37 1 13 36
M  V30 38 1 13 37
M  V30 39 1 13 38
M  V30 40 1 14 39
M  V30 41 1 14 40
M  V30 42 1 15 41
M  V30 43 1 15 42
M  V30 44 1 19 43
M  V30 END BOND
M  V30 BEGIN COLLECTION
M  V30 MDLV30/STEABS ATOMS=(4 3 4 5 11)
M  V30 END COLLECTION
M  V30 END CTAB
M  END
>  <Structure No>
7875

>  <LogS>
-1.13

>  <MMFF94 Energy>
-24.036

$$$$
Compound 7876
Actelion Java MolfileCreator 2.0

  0  0  0  0  0  0              0 V3000
M  V30 BEGIN CTAB
M  V30 COUNTS 16 16 0 0 0
M  V30 BEGIN ATOM
M  V30 1 O -3.6043 0.4091 0.5727 0
M  V30 2 N -2.8501 -0.4175 0.0187 0 CHG=1
M  V30 3 O -3.4052 -1.5326 -0.5666 0 CHG=-1
M  V30 4 C -1.426 -0.2093 -0.008 0
M  V30 5 C -0.5825 -1.1431 -0.6331 0
M  V30 6 C -0.855 0.9287 0.5888 0
M  V30 7 C 0.8009 -0.9443 -0.6611 0
M  V30 8 C 0.5285 1.1276 0.5608 0
M  V30 9 C 1.3708 0.1935 -0.0642 0
M  V30 10 C 2.8346 0.4077 -0.0917 0
M  V30 11 O 3.5941 -0.4273 -0.6512 0
M  V30 12 O 3.3929 1.5351 0.5003 0 CHG=-1
M  V30 13 H -0.9917 -2.0289 -1.1013 0
M  V30 14 H -1.4782 1.6663 1.0782 0
M  V30 15 H 1.4239 -1.6825 -1.1507 0
M  V30 16 H 0.9371 2.0142 1.0295 0
M  V30 END ATOM
M  V30 BEGIN BOND
M  V30 1 2 1 2
M  V30 2 1 2 3
M  V30 3 1 2 4
M  V30 4 2 4 5
M  V30 5 1 4 6
M  V30 6 1 5 7
M  V30 7 2 6 8
M  V30 8 2 7 9
M  V30 9 1 9 10
M  V30 10 2 10 11
M  V30 11 1 10 12
M  V30 12 1 8 9
M  V30 13 1 5 13
M  V30 14 1 6 14
M  V30 15 1 7 15
M  V30 16 1 8 16
M  V30 END BOND
M  V30 END CTAB
M  END
>  <Structure No>
7876

>  <LogS>
-2.8

>  <MMFF94 Energy>
63.482

$$$$
Compound 7877
Actelion Java MolfileCreator 2.0

  0  0  0  0  0  0              0 V3000
M  V30 BEGIN CTAB
M  V30 COUNTS 19 19 0 0 0
M  V30 BEGIN ATOM
M  V30 1 Cl -4.681 0.9671 0.7252 0
M  V30 2 C -3.0191 0.512 0.3974 0
M  V30 3 C -2.6775 -0.836 0.2541 0
M  V30 4 C -2.0357 1.4975 0.2683 0
M  V30 5 C -1.3536 -1.1995 -0.0097 0
M  V30 6 C -0.7103 1.1369 0.0054 0
M  V30 7 C -0.3546 -0.2192 -0.1178 0
M  V30 8 N 0.9951 -0.6183 -0.4121 0
M  V30 9 C 2.1614 0.0744 0.0586 0
M  V30 10 O 2.0715 0.9407 0.97 0
M  V30 11 C 3.5099 -0.3011 -0.463 0
M  V30 12 H -3.4367 -1.6025 0.3448 0
M  V30 13 H -2.2982 2.5436 0.3626 0
M  V30 14 H -1.1027 -2.2469 -0.1204 0
M  V30 15 H 0.0257 1.9182 -0.1264 0
M  V30 16 H 1.1404 -1.5134 -0.932 0
M  V30 17 H 3.4485 -0.5142 -1.5507 0
M  V30 18 H 4.2308 0.5286 -0.3035 0
M  V30 19 H 3.8721 -1.2061 0.067 0
M  V30 END ATOM
M  V30 BEGIN BOND
M  V30 1 1 1 2
M  V30 2 2 2 3
M  V30 3 1 2 4
M  V30 4 1 3 5
M  V30 5 2 4 6
M  V30 6 2 5 7
M  V30 7 1 7 8
M  V30 8 1 8 9
M  V30 9 2 9 10
M  V30 10 1 9 11
M  V30 11 1 6 7
M  V30 12 1 3 12
M  V30 13 1 4 13
M  V30 14 1 5 14
M  V30 15 1 6 15
M  V30 16 1 8 16
M  V30 17 1 11 17
M  V30 18 1 11 18
M  V30 19 1 11 19
M  V30 END BOND
M  V30 END CTAB
M  END
>  <Structure No>
7877

>  <LogS>
-2.84

>  <MMFF94 Energy>
-2.4489

$$$$
Compound 7878
Actelion Java MolfileCreator 2.0

  0  0  0  0  0  0              0 V3000
M  V30 BEGIN CTAB
M  V30 COUNTS 21 21 0 0 0
M  V30 BEGIN ATOM
M  V30 1 O -4.877 0.399 -0.1596 0
M  V30 2 N -4.0432 -0.426 0.2684 0 CHG=1
M  V30 3 O -4.4977 -1.6013 0.8215 0 CHG=-1
M  V30 4 C -2.632 -0.1553 0.183 0
M  V30 5 C -1.6986 -1.0859 0.6706 0
M  V30 6 C -2.1635 1.0452 -0.38 0
M  V30 7 C -0.3271 -0.8268 0.5887 0
M  V30 8 C -0.7921 1.3034 -0.4603 0
M  V30 9 C 0.1382 0.3638 0.0047 0
M  V30 10 N 1.5424 0.6657 -0.0702 0
M  V30 11 C 2.5692 -0.3188 -0.2657 0
M  V30 12 O 2.2773 -1.4893 -0.6313 0
M  V30 13 C 4.0057 0.069 -0.1318 0
M  V30 14 H -2.0282 -2.0118 1.1241 0
M  V30 15 H -2.8572 1.7859 -0.7569 0
M  V30 16 H 0.3642 -1.5465 1.0058 0
M  V30 17 H -0.4526 2.2349 -0.8958 0
M  V30 18 H 1.83 1.6707 -0.0642 0
M  V30 19 H 4.3439 0.562 -1.0668 0
M  V30 20 H 4.6326 -0.8285 0.055 0
M  V30 21 H 4.13 0.7725 0.718 0
M  V30 END ATOM
M  V30 BEGIN BOND
M  V30 1 2 1 2
M  V30 2 1 2 3
M  V30 3 1 2 4
M  V30 4 2 4 5
M  V30 5 1 4 6
M  V30 6 1 5 7
M  V30 7 2 6 8
M  V30 8 2 7 9
M  V30 9 1 9 10
M  V30 10 1 10 11
M  V30 11 2 11 12
M  V30 12 1 11 13
M  V30 13 1 8 9
M  V30 14 1 5 14
M  V30 15 1 6 15
M  V30 16 1 7 16
M  V30 17 1 8 17
M  V30 18 1 10 18
M  V30 19 1 13 19
M  V30 20 1 13 20
M  V30 21 1 13 21
M  V30 END BOND
M  V30 END CTAB
M  END
>  <Structure No>
7878

>  <LogS>
-2.69

>  <MMFF94 Energy>
32.7

$$$$
Compound 7879
Actelion Java MolfileCreator 2.0

  0  0  0  0  0  0              0 V3000
M  V30 BEGIN CTAB
M  V30 COUNTS 32 31 0 0 0
M  V30 BEGIN ATOM
M  V30 1 Cl 2.7905 -0.3279 1.7228 0
M  V30 2 C 2.9818 -0.3641 -0.0301 0
M  V30 3 C 3.3945 0.7208 -0.7049 0
M  V30 4 C 2.7304 -1.6599 -0.751 0
M  V30 5 Cl 3.7407 2.2517 0.0921 0
M  V30 6 S 1.2977 -1.5378 -1.8799 0
M  V30 7 C 0.0624 -1.5131 -0.5672 0
M  V30 8 O -0.2271 -2.6187 -0.0387 0
M  V30 9 N -0.6064 -0.2929 -0.1388 0
M  V30 10 C -0.3153 0.9989 -0.808 0
M  V30 11 C -1.6766 -0.346 0.89 0
M  V30 12 C -1.4799 1.4153 -1.712 0
M  V30 13 C 0.032 2.1032 0.2023 0
M  V30 14 C -2.8467 -1.2402 0.4548 0
M  V30 15 C -1.1177 -0.7601 2.2564 0
M  V30 16 H 3.526 0.6739 -1.7817 0
M  V30 17 H 2.5596 -2.4805 -0.0223 0
M  V30 18 H 3.6291 -1.9287 -1.3455 0
M  V30 19 H 0.5731 0.9133 -1.4611 0
M  V30 20 H -2.117 0.6621 1.0312 0
M  V30 21 H -1.2129 2.3325 -2.2791 0
M  V30 22 H -2.3961 1.6202 -1.1197 0
M  V30 23 H -1.6981 0.6049 -2.4393 0
M  V30 24 H -0.8638 2.4728 0.7416 0
M  V30 25 H 0.4865 2.9673 -0.3278 0
M  V30 26 H 0.7667 1.7256 0.9423 0
M  V30 27 H -3.7187 -1.0675 1.1216 0
M  V30 28 H -3.1495 -0.9904 -0.5839 0
M  V30 29 H -2.5907 -2.3173 0.5079 0
M  V30 30 H -0.7628 -1.8103 2.2546 0
M  V30 31 H -1.906 -0.6609 3.0327 0
M  V30 32 H -0.2718 -0.0967 2.5337 0
M  V30 END ATOM
M  V30 BEGIN BOND
M  V30 1 1 1 2
M  V30 2 2 2 3
M  V30 3 1 2 4
M  V30 4 1 3 5
M  V30 5 1 4 6
M  V30 6 1 6 7
M  V30 7 2 7 8
M  V30 8 1 7 9
M  V30 9 1 9 10
M  V30 10 1 9 11
M  V30 11 1 10 12
M  V30 12 1 10 13
M  V30 13 1 11 14
M  V30 14 1 11 15
M  V30 15 1 3 16
M  V30 16 1 4 17
M  V30 17 1 4 18
M  V30 18 1 10 19
M  V30 19 1 11 20
M  V30 20 1 12 21
M  V30 21 1 12 22
M  V30 22 1 12 23
M  V30 23 1 13 24
M  V30 24 1 13 25
M  V30 25 1 13 26
M  V30 26 1 14 27
M  V30 27 1 14 28
M  V30 28 1 14 29
M  V30 29 1 15 30
M  V30 30 1 15 31
M  V30 31 1 15 32
M  V30 END BOND
M  V30 END CTAB
M  END
>  <Structure No>
7879

>  <LogS>
-4.08

>  <MMFF94 Energy>
-31.285

$$$$
Compound 7880
Actelion Java MolfileCreator 2.0

  0  0  0  0  0  0              0 V3000
M  V30 BEGIN CTAB
M  V30 COUNTS 24 24 0 0 0
M  V30 BEGIN ATOM
M  V30 1 N -0.4661 1.2434 0.5438 0 CHG=1
M  V30 2 C 0.4696 0.3135 -0.1241 0 CFG=2
M  V30 3 C -1.8128 1.1798 -0.0462 0
M  V30 4 C -0.0526 -1.1391 -0.0215 0
M  V30 5 C 1.8775 0.4503 0.5023 0
M  V30 6 C -2.3998 -0.231 0.0704 0
M  V30 7 C -1.4702 -1.2492 -0.5897 0
M  V30 8 C 2.961 -0.2777 -0.2944 0
M  V30 9 H -0.5243 1.0252 1.5672 0
M  V30 10 H -0.1157 2.2244 0.437 0
M  V30 11 H 0.5435 0.5901 -1.2018 0
M  V30 12 H -1.7779 1.4867 -1.1161 0
M  V30 13 H -2.483 1.892 0.484 0
M  V30 14 H 0.6025 -1.8272 -0.5953 0
M  V30 15 H -0.0563 -1.4672 1.0413 0
M  V30 16 H 1.8708 0.0703 1.5473 0
M  V30 17 H 2.1542 1.5265 0.5398 0
M  V30 18 H -3.3942 -0.2614 -0.425 0
M  V30 19 H -2.5389 -0.4905 1.143 0
M  V30 20 H -1.861 -2.2747 -0.4146 0
M  V30 21 H -1.4457 -1.0735 -1.688 0
M  V30 22 H 3.9584 -0.0212 0.1211 0
M  V30 23 H 2.9345 0.0304 -1.3611 0
M  V30 24 H 2.8337 -1.3773 -0.2215 0
M  V30 END ATOM
M  V30 BEGIN BOND
M  V30 1 1 1 2
M  V30 2 1 1 3
M  V30 3 1 2 4
M  V30 4 1 2 5
M  V30 5 1 3 6
M  V30 6 1 4 7
M  V30 7 1 5 8
M  V30 8 1 6 7
M  V30 9 1 1 9
M  V30 10 1 1 10
M  V30 11 1 2 11
M  V30 12 1 3 12
M  V30 13 1 3 13
M  V30 14 1 4 14
M  V30 15 1 4 15
M  V30 16 1 5 16
M  V30 17 1 5 17
M  V30 18 1 6 18
M  V30 19 1 6 19
M  V30 20 1 7 20
M  V30 21 1 7 21
M  V30 22 1 8 22
M  V30 23 1 8 23
M  V30 24 1 8 24
M  V30 END BOND
M  V30 BEGIN COLLECTION
M  V30 MDLV30/STEABS ATOMS=(1 2)
M  V30 END COLLECTION
M  V30 END CTAB
M  END
>  <Structure No>
7880

>  <LogS>
-1.5

>  <MMFF94 Energy>
2.6675

$$$$
Compound 7881
Actelion Java MolfileCreator 2.0

  0  0  0  0  0  0              0 V3000
M  V30 BEGIN CTAB
M  V30 COUNTS 16 16 0 0 0
M  V30 BEGIN ATOM
M  V30 1 Cl -3.2443 -1.3509 1.8015 0
M  V30 2 C -1.992 -0.5626 0.8392 0
M  V30 3 C -2.3347 0.4624 -0.0572 0
M  V30 4 C -0.6504 -0.9607 0.9694 0
M  V30 5 Cl -4.0179 0.9671 -0.2255 0
M  V30 6 C -1.335 1.0862 -0.8203 0
M  V30 7 Cl -0.2103 -2.2474 2.093 0
M  V30 8 C 0.3572 -0.3424 0.2101 0
M  V30 9 Cl -1.7457 2.3754 -1.9513 0
M  V30 10 C 0.0041 0.69 -0.6913 0
M  V30 11 O 1.6773 -0.7959 0.396 0
M  V30 12 O 0.9645 1.3323 -1.4647 0 CHG=-1
M  V30 13 C 2.8391 -0.3103 -0.267 0
M  V30 14 H 2.9926 0.7647 -0.0362 0
M  V30 15 H 3.722 -0.8726 0.0994 0
M  V30 16 H 2.7537 -0.4742 -1.3617 0
M  V30 END ATOM
M  V30 BEGIN BOND
M  V30 1 1 1 2
M  V30 2 2 2 3
M  V30 3 1 2 4
M  V30 4 1 3 5
M  V30 5 1 3 6
M  V30 6 1 4 7
M  V30 7 2 4 8
M  V30 8 1 6 9
M  V30 9 2 6 10
M  V30 10 1 8 11
M  V30 11 1 10 12
M  V30 12 1 11 13
M  V30 13 1 8 10
M  V30 14 1 13 14
M  V30 15 1 13 15
M  V30 16 1 13 16
M  V30 END BOND
M  V30 END CTAB
M  END
>  <Structure No>
7881

>  <LogS>
-4.02

>  <MMFF94 Energy>
66.922

$$$$
Compound 7882
Actelion Java MolfileCreator 2.0

  0  0  0  0  0  0              0 V3000
M  V30 BEGIN CTAB
M  V30 COUNTS 17 16 0 0 0
M  V30 BEGIN ATOM
M  V30 1 O -2.6482 1.8688 -0.6226 0
M  V30 2 C -2.0076 1.1065 0.1481 0
M  V30 3 O -2.3611 1.0352 1.4905 0 CHG=-1
M  V30 4 C -0.8555 0.293 -0.3776 0 CFG=2
M  V30 5 N -1.0682 -1.1306 -0.0836 0 CHG=1
M  V30 6 C 0.4628 0.8049 0.2366 0
M  V30 7 C 1.6592 0.1585 -0.3987 0
M  V30 8 O 2.0877 0.5862 -1.5036 0
M  V30 9 N 2.2949 -0.9589 0.2217 0
M  V30 10 H -0.8074 0.4264 -1.4832 0
M  V30 11 H -0.3347 -1.7076 -0.5546 0
M  V30 12 H -1.0345 -1.3058 0.9474 0
M  V30 13 H -1.9993 -1.4337 -0.4521 0
M  V30 14 H 0.473 0.62 1.3331 0
M  V30 15 H 0.5393 1.9046 0.0864 0
M  V30 16 H 1.9388 -1.3414 1.1256 0
M  V30 17 H 3.1203 -1.4122 -0.2289 0
M  V30 END ATOM
M  V30 BEGIN BOND
M  V30 1 2 1 2
M  V30 2 1 2 3
M  V30 3 1 2 4
M  V30 4 1 4 5
M  V30 5 1 4 6
M  V30 6 1 6 7
M  V30 7 2 7 8
M  V30 8 1 7 9
M  V30 9 1 4 10
M  V30 10 1 5 11
M  V30 11 1 5 12
M  V30 12 1 5 13
M  V30 13 1 6 14
M  V30 14 1 6 15
M  V30 15 1 9 16
M  V30 16 1 9 17
M  V30 END BOND
M  V30 BEGIN COLLECTION
M  V30 MDLV30/STEABS ATOMS=(1 4)
M  V30 END COLLECTION
M  V30 END CTAB
M  END
>  <Structure No>
7882

>  <LogS>
-0.74

>  <MMFF94 Energy>
-61.518

$$$$
Compound 7883
Actelion Java MolfileCreator 2.0

  0  0  0  0  0  0              0 V3000
M  V30 BEGIN CTAB
M  V30 COUNTS 18 19 0 0 0
M  V30 BEGIN ATOM
M  V30 1 S 2.745 -1.3302 0.6649 0
M  V30 2 C 1.1609 -0.4948 0.6309 0
M  V30 3 C 3.3522 -0.492 -0.8314 0
M  V30 4 N 0.1211 -1.0413 -0.0551 0
M  V30 5 C 0.9798 0.7164 1.3119 0
M  V30 6 C -1.0885 -0.4238 -0.0914 0
M  V30 7 N -0.2316 1.3339 1.275 0
M  V30 8 C -1.2705 0.7914 0.5881 0
M  V30 9 C -2.1661 -0.9653 -0.7899 0
M  V30 10 N -2.4777 1.4121 0.5543 0
M  V30 11 N -3.3576 -0.3102 -0.7975 0
M  V30 12 C -3.5171 0.8671 -0.1334 0
M  V30 13 H 3.3818 0.6057 -0.668 0
M  V30 14 H 4.3776 -0.8499 -1.0566 0
M  V30 15 H 2.692 -0.7249 -1.6931 0
M  V30 16 H 1.7952 1.1646 1.8641 0
M  V30 17 H -2.0624 -1.9003 -1.3252 0
M  V30 18 H -4.4736 1.3713 -0.1527 0
M  V30 END ATOM
M  V30 BEGIN BOND
M  V30 1 1 1 2
M  V30 2 1 1 3
M  V30 3 2 2 4
M  V30 4 1 2 5
M  V30 5 1 4 6
M  V30 6 2 5 7
M  V30 7 1 6 8
M  V30 8 2 6 9
M  V30 9 2 8 10
M  V30 10 1 9 11
M  V30 11 1 10 12
M  V30 12 1 7 8
M  V30 13 2 11 12
M  V30 14 1 3 13
M  V30 15 1 3 14
M  V30 16 1 3 15
M  V30 17 1 5 16
M  V30 18 1 9 17
M  V30 19 1 12 18
M  V30 END BOND
M  V30 END CTAB
M  END
>  <Structure No>
7883

>  <LogS>
-1.55

>  <MMFF94 Energy>
59.085

$$$$
Compound 7884
Actelion Java MolfileCreator 2.0

  0  0  0  0  0  0              0 V3000
M  V30 BEGIN CTAB
M  V30 COUNTS 24 23 0 0 0
M  V30 BEGIN ATOM
M  V30 1 O 1.4742 1.6295 -0.3102 0
M  V30 2 C 2.1605 0.6317 0.0349 0
M  V30 3 C 1.6885 -0.7591 -0.1721 0
M  V30 4 C 3.5006 0.8575 0.6589 0
M  V30 5 C 0.5008 -1.1483 -0.6831 0
M  V30 6 O 0.2299 -2.5136 -0.7964 0
M  V30 7 C -0.5858 -0.2011 -1.1304 0
M  V30 8 C -1.4005 0.3578 0.0577 0
M  V30 9 C -2.3199 1.4892 -0.4172 0
M  V30 10 C -2.2288 -0.7424 0.7379 0
M  V30 11 H 2.3799 -1.5384 0.1263 0
M  V30 12 H 4.2927 0.4418 0.0015 0
M  V30 13 H 3.5434 0.3538 1.6476 0
M  V30 14 H 3.6878 1.943 0.8038 0
M  V30 15 H 0.8957 -3.2238 -0.5134 0
M  V30 16 H -1.2726 -0.746 -1.8151 0
M  V30 17 H -0.1528 0.615 -1.7451 0
M  V30 18 H -0.7077 0.7828 0.8162 0
M  V30 19 H -2.8894 1.908 0.4399 0
M  V30 20 H -3.0387 1.1168 -1.1788 0
M  V30 21 H -1.7181 2.3103 -0.8623 0
M  V30 22 H -2.9316 -1.2094 0.0148 0
M  V30 23 H -1.5633 -1.5285 1.1526 0
M  V30 24 H -2.8142 -0.316 1.5806 0
M  V30 END ATOM
M  V30 BEGIN BOND
M  V30 1 2 1 2
M  V30 2 1 2 3
M  V30 3 1 2 4
M  V30 4 2 3 5
M  V30 5 1 5 6
M  V30 6 1 5 7
M  V30 7 1 7 8
M  V30 8 1 8 9
M  V30 9 1 8 10
M  V30 10 1 3 11
M  V30 11 1 4 12
M  V30 12 1 4 13
M  V30 13 1 4 14
M  V30 14 1 6 15
M  V30 15 1 7 16
M  V30 16 1 7 17
M  V30 17 1 8 18
M  V30 18 1 9 19
M  V30 19 1 9 20
M  V30 20 1 9 21
M  V30 21 1 10 22
M  V30 22 1 10 23
M  V30 23 1 10 24
M  V30 END BOND
M  V30 END CTAB
M  END
>  <Structure No>
7884

>  <LogS>
-1.6

>  <MMFF94 Energy>
16.098

$$$$
Compound 7885
Actelion Java MolfileCreator 2.0

  0  0  0  0  0  0              0 V3000
M  V30 BEGIN CTAB
M  V30 COUNTS 27 28 0 0 0
M  V30 BEGIN ATOM
M  V30 1 O -0.08 2.3243 0.2402 0
M  V30 2 C -0.0347 1.1037 0.1979 0
M  V30 3 C 1.2003 0.2673 0.3891 0 CFG=1
M  V30 4 C -1.1853 0.2027 -0.1465 0
M  V30 5 C 0.5889 -0.9776 0.9994 0
M  V30 6 C 1.6338 -0.2477 -0.9969 0
M  V30 7 C 2.3067 0.914 1.2246 0
M  V30 8 C -0.4285 -1.1739 -0.1233 0 CFG=2
M  V30 9 C -2.2867 0.2646 0.9329 0
M  V30 10 C -1.7988 0.5669 -1.5163 0
M  V30 11 C 0.5461 -1.2963 -1.3224 0
M  V30 12 H 1.3126 -1.8224 1.0875 0
M  V30 13 H 0.1364 -0.8003 1.9992 0
M  V30 14 H 1.6532 0.569 -1.7522 0
M  V30 15 H 2.6345 -0.7315 -0.9506 0
M  V30 16 H 3.1348 0.1923 1.3884 0
M  V30 17 H 1.9078 1.2292 2.2124 0
M  V30 18 H 2.708 1.8051 0.6972 0
M  V30 19 H -1.0859 -2.0605 0.0058 0
M  V30 20 H -3.0732 -0.4893 0.7157 0
M  V30 21 H -2.7591 1.2704 0.9477 0
M  V30 22 H -1.8938 0.0711 1.951 0
M  V30 23 H -2.4458 1.466 -1.4283 0
M  V30 24 H -2.4173 -0.2749 -1.8938 0
M  V30 25 H -1.0193 0.8144 -2.267 0
M  V30 26 H 0.0692 -1.1293 -2.3087 0
M  V30 27 H 0.9932 -2.3152 -1.3379 0
M  V30 END ATOM
M  V30 BEGIN BOND
M  V30 1 2 1 2
M  V30 2 1 2 3
M  V30 3 1 2 4
M  V30 4 1 3 5
M  V30 5 1 3 6
M  V30 6 1 3 7
M  V30 7 1 4 8
M  V30 8 1 4 9
M  V30 9 1 4 10
M  V30 10 1 6 11
M  V30 11 1 5 8
M  V30 12 1 8 11
M  V30 13 1 5 12
M  V30 14 1 5 13
M  V30 15 1 6 14
M  V30 16 1 6 15
M  V30 17 1 7 16
M  V30 18 1 7 17
M  V30 19 1 7 18
M  V30 20 1 8 19
M  V30 21 1 9 20
M  V30 22 1 9 21
M  V30 23 1 9 22
M  V30 24 1 10 23
M  V30 25 1 10 24
M  V30 26 1 10 25
M  V30 27 1 11 26
M  V30 28 1 11 27
M  V30 END BOND
M  V30 BEGIN COLLECTION
M  V30 MDLV30/STEABS ATOMS=(2 3 8)
M  V30 END COLLECTION
M  V30 END CTAB
M  END
>  <Structure No>
7885

>  <LogS>
-1.85

>  <MMFF94 Energy>
40.822

$$$$
Compound 7886
Actelion Java MolfileCreator 2.0

  0  0  0  0  0  0              0 V3000
M  V30 BEGIN CTAB
M  V30 COUNTS 29 29 0 0 0
M  V30 BEGIN ATOM
M  V30 1 O 0.5521 2.5261 -0.3943 0
M  V30 2 C 0.4953 1.3065 -0.344 0
M  V30 3 C -0.5384 0.6256 0.5253 0 CFG=1
M  V30 4 C 1.4245 0.471 -1.1832 0
M  V30 5 C -1.7197 0.0695 -0.3337 0
M  V30 6 C 0.1851 -0.4487 1.373 0
M  V30 7 C 2.0938 -0.6282 -0.3347 0 CFG=2
M  V30 8 C -2.7842 -0.633 0.5274 0
M  V30 9 C -2.3945 1.1946 -1.1399 0
M  V30 10 C 1.0543 -1.3916 0.5199 0
M  V30 11 C 3.2329 -0.0549 0.5234 0
M  V30 12 H -0.9548 1.3771 1.234 0
M  V30 13 H 0.8364 -0.0024 -1.9981 0
M  V30 14 H 2.1967 1.1112 -1.6641 0
M  V30 15 H -1.3332 -0.6742 -1.0632 0
M  V30 16 H -0.5317 -1.0433 1.9728 0
M  V30 17 H 0.8328 0.0619 2.1178 0
M  V30 18 H 2.5543 -1.3611 -1.0338 0
M  V30 19 H -3.6865 -0.8662 -0.0776 0
M  V30 20 H -3.087 0.01 1.3813 0
M  V30 21 H -2.4048 -1.6025 0.9095 0
M  V30 22 H -1.6823 1.6435 -1.8631 0
M  V30 23 H -3.2472 0.7936 -1.7284 0
M  V30 24 H -2.771 1.9899 -0.4612 0
M  V30 25 H 1.5734 -2.1126 1.1881 0
M  V30 26 H 0.3997 -1.9909 -0.1483 0
M  V30 27 H 4.0255 0.364 -0.1322 0
M  V30 28 H 2.8694 0.7542 1.1905 0
M  V30 29 H 3.6889 -0.8558 1.1431 0
M  V30 END ATOM
M  V30 BEGIN BOND
M  V30 1 2 1 2
M  V30 2 1 2 3
M  V30 3 1 2 4
M  V30 4 1 3 5
M  V30 5 1 3 6
M  V30 6 1 4 7
M  V30 7 1 5 8
M  V30 8 1 5 9
M  V30 9 1 6 10
M  V30 10 1 7 11
M  V30 11 1 7 10
M  V30 12 1 3 12
M  V30 13 1 4 13
M  V30 14 1 4 14
M  V30 15 1 5 15
M  V30 16 1 6 16
M  V30 17 1 6 17
M  V30 18 1 7 18
M  V30 19 1 8 19
M  V30 20 1 8 20
M  V30 21 1 8 21
M  V30 22 1 9 22
M  V30 23 1 9 23
M  V30 24 1 9 24
M  V30 25 1 10 25
M  V30 26 1 10 26
M  V30 27 1 11 27
M  V30 28 1 11 28
M  V30 29 1 11 29
M  V30 END BOND
M  V30 BEGIN COLLECTION
M  V30 MDLV30/STEABS ATOMS=(2 3 7)
M  V30 END COLLECTION
M  V30 END CTAB
M  END
>  <Structure No>
7886

>  <LogS>
-2.49

>  <MMFF94 Energy>
15.243

$$$$
Compound 7887
Actelion Java MolfileCreator 2.0

  0  0  0  0  0  0              0 V3000
M  V30 BEGIN CTAB
M  V30 COUNTS 29 30 0 0 0
M  V30 BEGIN ATOM
M  V30 1 O -2.6665 0.3229 -1.2114 0
M  V30 2 C -1.6505 -0.2409 -0.7184 0
M  V30 3 O -1.7271 -1.5622 -0.2666 0
M  V30 4 C -0.3223 0.4747 -0.7029 0 CFG=2
M  V30 5 C -2.9385 -2.3072 -0.2765 0
M  V30 6 C 0.5437 0.1481 0.5556 0 CFG=1
M  V30 7 C -0.4409 2.0212 -0.6223 0 CFG=1
M  V30 8 C 1.7618 -0.6671 0.2013 0
M  V30 9 C 0.8718 1.5654 1.1006 0 CFG=1
M  V30 10 C -1.2051 2.3887 0.627 0
M  V30 11 C 0.9592 2.3904 -0.1727 0
M  V30 12 O 2.9028 -0.1315 0.1306 0
M  V30 13 O 1.6015 -2.0275 -0.0764 0
M  V30 14 C -0.4111 2.1192 1.6632 0
M  V30 15 C 2.6887 -2.8687 -0.4413 0
M  V30 16 H 0.2155 0.2088 -1.6416 0
M  V30 17 H -3.7003 -1.802 0.3544 0
M  V30 18 H -3.3164 -2.4047 -1.3163 0
M  V30 19 H -2.7465 -3.3202 0.1328 0
M  V30 20 H -0.0301 -0.4184 1.3244 0
M  V30 21 H -0.7887 2.5227 -1.5504 0
M  V30 22 H 1.7412 1.6378 1.7885 0
M  V30 23 H -2.1757 2.8699 0.6825 0
M  V30 24 H 1.0821 3.4826 0.0218 0
M  V30 25 H 1.7532 2.0495 -0.8758 0
M  V30 26 H -0.6284 2.3426 2.7022 0
M  V30 27 H 3.1573 -2.4989 -1.3779 0
M  V30 28 H 3.4431 -2.8898 0.3734 0
M  V30 29 H 2.3121 -3.8984 -0.6098 0
M  V30 END ATOM
M  V30 BEGIN BOND
M  V30 1 2 1 2
M  V30 2 1 2 3
M  V30 3 1 2 4
M  V30 4 1 3 5
M  V30 5 1 4 6
M  V30 6 1 4 7
M  V30 7 1 6 8
M  V30 8 1 6 9
M  V30 9 1 7 10
M  V30 10 1 7 11
M  V30 11 2 8 12
M  V30 12 1 8 13
M  V30 13 1 9 14
M  V30 14 1 13 15
M  V30 15 1 9 11
M  V30 16 2 10 14
M  V30 17 1 4 16
M  V30 18 1 5 17
M  V30 19 1 5 18
M  V30 20 1 5 19
M  V30 21 1 6 20
M  V30 22 1 7 21
M  V30 23 1 9 22
M  V30 24 1 10 23
M  V30 25 1 11 24
M  V30 26 1 11 25
M  V30 27 1 14 26
M  V30 28 1 15 27
M  V30 29 1 15 28
M  V30 30 1 15 29
M  V30 END BOND
M  V30 BEGIN COLLECTION
M  V30 MDLV30/STEABS ATOMS=(4 4 6 7 9)
M  V30 END COLLECTION
M  V30 END CTAB
M  END
>  <Structure No>
7887

>  <LogS>
-1.2

>  <MMFF94 Energy>
-1.5309

$$$$
Compound 7888
Actelion Java MolfileCreator 2.0

  0  0  0  0  0  0              0 V3000
M  V30 BEGIN CTAB
M  V30 COUNTS 32 32 0 0 0
M  V30 BEGIN ATOM
M  V30 1 S -2.2735 -0.2434 2.1109 0
M  V30 2 O -1.9612 -1.6884 2.3841 0
M  V30 3 O -3.1278 0.2939 3.2238 0
M  V30 4 N -0.7909 0.649 2.0471 0 CHG=-1
M  V30 5 C -3.1407 -0.0747 0.5882 0
M  V30 6 C 0.2204 0.3854 1.0733 0
M  V30 7 C -3.1584 1.1618 -0.073 0
M  V30 8 C -3.8238 -1.1671 0.0333 0
M  V30 9 O 0.0576 -0.5312 0.2225 0
M  V30 10 N 1.4132 1.178 1.0648 0
M  V30 11 C -3.8453 1.3015 -1.2831 0
M  V30 12 C -4.5106 -1.024 -1.1767 0
M  V30 13 C 2.4876 0.9759 0.0946 0
M  V30 14 C -4.5204 0.2089 -1.8353 0
M  V30 15 C 3.2956 -0.2812 0.4446 0
M  V30 16 C 4.5273 -0.4594 -0.456 0
M  V30 17 C 4.1597 -0.8699 -1.8817 0
M  V30 18 H -2.6417 2.0153 0.3475 0
M  V30 19 H -3.8264 -2.1265 0.5346 0
M  V30 20 H 1.4905 1.972 1.7395 0
M  V30 21 H -3.856 2.2571 -1.7917 0
M  V30 22 H -5.0351 -1.8691 -1.6038 0
M  V30 23 H 2.0537 0.8971 -0.9245 0
M  V30 24 H 3.1607 1.8609 0.114 0
M  V30 25 H -5.0526 0.3187 -2.7714 0
M  V30 26 H 2.6497 -1.1835 0.3794 0
M  V30 27 H 3.6449 -0.1938 1.4968 0
M  V30 28 H 5.1246 0.478 -0.4796 0
M  V30 29 H 5.1696 -1.2546 -0.0194 0
M  V30 30 H 3.5372 -1.7897 -1.872 0
M  V30 31 H 5.087 -1.078 -2.4563 0
M  V30 32 H 3.6096 -0.0556 -2.3969 0
M  V30 END ATOM
M  V30 BEGIN BOND
M  V30 1 2 1 2
M  V30 2 2 1 3
M  V30 3 1 1 4
M  V30 4 1 1 5
M  V30 5 1 4 6
M  V30 6 2 5 7
M  V30 7 1 5 8
M  V30 8 2 6 9
M  V30 9 1 6 10
M  V30 10 1 7 11
M  V30 11 2 8 12
M  V30 12 1 10 13
M  V30 13 2 11 14
M  V30 14 1 13 15
M  V30 15 1 15 16
M  V30 16 1 16 17
M  V30 17 1 12 14
M  V30 18 1 7 18
M  V30 19 1 8 19
M  V30 20 1 10 20
M  V30 21 1 11 21
M  V30 22 1 12 22
M  V30 23 1 13 23
M  V30 24 1 13 24
M  V30 25 1 14 25
M  V30 26 1 15 26
M  V30 27 1 15 27
M  V30 28 1 16 28
M  V30 29 1 16 29
M  V30 30 1 17 30
M  V30 31 1 17 31
M  V30 32 1 17 32
M  V30 END BOND
M  V30 END CTAB
M  END
>  <Structure No>
7888

>  <LogS>
-3.05

>  <MMFF94 Energy>
-5.8985

$$$$
Compound 7889
Actelion Java MolfileCreator 2.0

  0  0  0  0  0  0              0 V3000
M  V30 BEGIN CTAB
M  V30 COUNTS 26 27 0 0 0
M  V30 BEGIN ATOM
M  V30 1 O -4.5005 0.7222 -0.2407 0
M  V30 2 C -3.3183 0.4447 0.091 0
M  V30 3 C -2.775 -0.8927 -0.1667 0
M  V30 4 C -2.4724 1.4613 0.7245 0
M  V30 5 C -1.5272 -1.1987 0.1974 0
M  V30 6 C -1.2227 1.1687 1.0936 0
M  V30 7 C -0.621 -0.2225 0.9377 0
M  V30 8 O -0.3829 -0.7407 2.2254 0
M  V30 9 C 0.693 -0.0987 0.1643 0
M  V30 10 C 0.7067 0.4016 -1.1617 0
M  V30 11 C 1.9214 -0.4785 0.7507 0
M  V30 12 O -0.481 0.7893 -1.7822 0
M  V30 13 C 1.9159 0.5113 -1.8619 0
M  V30 14 C 3.1233 -0.364 0.0398 0
M  V30 15 C 3.1161 0.1305 -1.2639 0
M  V30 16 O 4.3315 -0.74 0.6229 0
M  V30 17 H -3.3864 -1.6341 -0.6658 0
M  V30 18 H -2.8599 2.4598 0.8841 0
M  V30 19 H -1.1563 -2.1962 -0.006 0
M  V30 20 H -0.6241 1.9417 1.5606 0
M  V30 21 H -1.2563 -0.8065 2.6963 0
M  V30 22 H 1.9601 -0.8657 1.7601 0
M  V30 23 H -0.4951 1.1496 -2.729 0
M  V30 24 H 1.9254 0.8936 -2.8747 0
M  V30 25 H 4.0434 0.2202 -1.8153 0
M  V30 26 H 4.3743 -1.1033 1.568 0
M  V30 END ATOM
M  V30 BEGIN BOND
M  V30 1 2 1 2
M  V30 2 1 2 3
M  V30 3 1 2 4
M  V30 4 2 3 5
M  V30 5 2 4 6
M  V30 6 1 5 7
M  V30 7 1 7 8
M  V30 8 1 7 9
M  V30 9 2 9 10
M  V30 10 1 9 11
M  V30 11 1 10 12
M  V30 12 1 10 13
M  V30 13 2 11 14
M  V30 14 2 13 15
M  V30 15 1 14 16
M  V30 16 1 6 7
M  V30 17 1 14 15
M  V30 18 1 3 17
M  V30 19 1 4 18
M  V30 20 1 5 19
M  V30 21 1 6 20
M  V30 22 1 8 21
M  V30 23 1 11 22
M  V30 24 1 12 23
M  V30 25 1 13 24
M  V30 26 1 15 25
M  V30 27 1 16 26
M  V30 END BOND
M  V30 END CTAB
M  END
>  <Structure No>
7889

>  <LogS>
-1.73

>  <MMFF94 Energy>
-6.3563

$$$$
Compound 7890
Actelion Java MolfileCreator 2.0

  0  0  0  0  0  0              0 V3000
M  V30 BEGIN CTAB
M  V30 COUNTS 39 39 0 0 0
M  V30 BEGIN ATOM
M  V30 1 F -4.779 3.4813 0.0808 0
M  V30 2 C -4.2865 2.857 -1.0521 0
M  V30 3 F -3.8444 3.8193 -1.9403 0
M  V30 4 F -5.3204 2.1456 -1.6356 0
M  V30 5 C -3.1405 1.9396 -0.7026 0
M  V30 6 C -2.2955 2.2376 0.3734 0
M  V30 7 C -2.8459 0.8374 -1.514 0
M  V30 8 C -1.1895 1.4286 0.6727 0
M  V30 9 C -1.7707 -0.0133 -1.2191 0
M  V30 10 N -0.3192 1.8201 1.7472 0 CHG=1
M  V30 11 C -0.9364 0.2724 -0.1065 0
M  V30 12 N -1.5363 -1.1473 -2.0724 0 CHG=1
M  V30 13 O 0.9162 1.6911 1.64 0
M  V30 14 O -0.8224 2.5099 2.8263 0 CHG=-1
M  V30 15 N 0.1703 -0.5949 0.2163 0
M  V30 16 O -1.2319 -2.2562 -1.59 0
M  V30 17 O -1.8344 -1.0699 -3.4132 0 CHG=-1
M  V30 18 C 1.3392 -0.5985 -0.6801 0
M  V30 19 C -0.0733 -1.7269 1.126 0
M  V30 20 C 2.6614 -0.7181 0.0981 0
M  V30 21 C 0.1454 -1.3254 2.5793 0
M  V30 22 C 3.8917 -0.4893 -0.7925 0
M  V30 23 C 4.0905 -1.5994 -1.8244 0
M  V30 24 H -2.4778 3.1262 0.9649 0
M  V30 25 H -3.4712 0.6241 -2.3722 0
M  V30 26 H 1.3578 0.3441 -1.2719 0
M  V30 27 H 1.2491 -1.4456 -1.3912 0
M  V30 28 H 0.5987 -2.577 0.8808 0
M  V30 29 H -1.1153 -2.0973 1.0106 0
M  V30 30 H 2.6819 0.0427 0.9038 0
M  V30 31 H 2.7396 -1.7163 0.5787 0
M  V30 32 H 1.1593 -0.8955 2.715 0
M  V30 33 H 0.0507 -2.2213 3.2285 0
M  V30 34 H -0.6193 -0.586 2.8936 0
M  V30 35 H 3.8107 0.4907 -1.3112 0
M  V30 36 H 4.7927 -0.4515 -0.1425 0
M  V30 37 H 5.0563 -1.4443 -2.3501 0
M  V30 38 H 4.1138 -2.5939 -1.3287 0
M  V30 39 H 3.2795 -1.5812 -2.5818 0
M  V30 END ATOM
M  V30 BEGIN BOND
M  V30 1 1 1 2
M  V30 2 1 2 3
M  V30 3 1 2 4
M  V30 4 1 2 5
M  V30 5 2 5 6
M  V30 6 1 5 7
M  V30 7 1 6 8
M  V30 8 2 7 9
M  V30 9 1 8 10
M  V30 10 2 8 11
M  V30 11 1 9 12
M  V30 12 2 10 13
M  V30 13 1 10 14
M  V30 14 1 11 15
M  V30 15 2 12 16
M  V30 16 1 12 17
M  V30 17 1 15 18
M  V30 18 1 15 19
M  V30 19 1 18 20
M  V30 20 1 19 21
M  V30 21 1 20 22
M  V30 22 1 22 23
M  V30 23 1 9 11
M  V30 24 1 6 24
M  V30 25 1 7 25
M  V30 26 1 18 26
M  V30 27 1 18 27
M  V30 28 1 19 28
M  V30 29 1 19 29
M  V30 30 1 20 30
M  V30 31 1 20 31
M  V30 32 1 21 32
M  V30 33 1 21 33
M  V30 34 1 21 34
M  V30 35 1 22 35
M  V30 36 1 22 36
M  V30 37 1 23 37
M  V30 38 1 23 38
M  V30 39 1 23 39
M  V30 END BOND
M  V30 END CTAB
M  END
>  <Structure No>
7890

>  <LogS>
-5.53

>  <MMFF94 Energy>
139.32

$$$$
Compound 7891
Actelion Java MolfileCreator 2.0

  0  0  0  0  0  0              0 V3000
M  V30 BEGIN CTAB
M  V30 COUNTS 25 26 0 0 0
M  V30 BEGIN ATOM
M  V30 1 O 0.1595 0.8776 1.7558 0
M  V30 2 C 0.4713 0.2066 0.7336 0
M  V30 3 O -0.5017 -0.5351 0.0482 0
M  V30 4 C 1.8814 0.1521 0.2879 0
M  V30 5 C -1.8889 -0.363 0.1673 0
M  V30 6 C 2.242 -0.6153 -0.8347 0
M  V30 7 C 2.8811 0.8669 0.9752 0
M  V30 8 C -2.7205 -1.4658 -0.0676 0
M  V30 9 C -2.4704 0.8834 0.4715 0
M  V30 10 C 3.5739 -0.6668 -1.2583 0
M  V30 11 C 4.2112 0.8116 0.547 0
M  V30 12 C -4.1099 -1.3394 0.0295 0
M  V30 13 C -3.8605 1.0067 0.567 0
M  V30 14 C 4.5573 0.0456 -0.5682 0
M  V30 15 C -4.6795 -0.1044 0.3506 0
M  V30 16 H 1.4975 -1.1754 -1.3861 0
M  V30 17 H 2.6364 1.4682 1.8421 0
M  V30 18 H -2.2871 -2.4257 -0.3186 0
M  V30 19 H -1.8595 1.7656 0.6052 0
M  V30 20 H 3.8433 -1.2596 -2.1228 0
M  V30 21 H 4.9742 1.3638 1.0806 0
M  V30 22 H -4.7448 -2.1984 -0.1457 0
M  V30 23 H -4.3034 1.9666 0.7998 0
M  V30 24 H 5.5873 0.0043 -0.898 0
M  V30 25 H -5.7551 -0.0068 0.4234 0
M  V30 END ATOM
M  V30 BEGIN BOND
M  V30 1 2 1 2
M  V30 2 1 2 3
M  V30 3 1 2 4
M  V30 4 1 3 5
M  V30 5 2 4 6
M  V30 6 1 4 7
M  V30 7 2 5 8
M  V30 8 1 5 9
M  V30 9 1 6 10
M  V30 10 2 7 11
M  V30 11 1 8 12
M  V30 12 2 9 13
M  V30 13 2 10 14
M  V30 14 2 12 15
M  V30 15 1 11 14
M  V30 16 1 13 15
M  V30 17 1 6 16
M  V30 18 1 7 17
M  V30 19 1 8 18
M  V30 20 1 9 19
M  V30 21 1 10 20
M  V30 22 1 11 21
M  V30 23 1 12 22
M  V30 24 1 13 23
M  V30 25 1 14 24
M  V30 26 1 15 25
M  V30 END BOND
M  V30 END CTAB
M  END
>  <Structure No>
7891

>  <LogS>
-2.85

>  <MMFF94 Energy>


$$$$
Compound 7892
Actelion Java MolfileCreator 2.0

  0  0  0  0  0  0              0 V3000
M  V30 BEGIN CTAB
M  V30 COUNTS 38 39 0 0 0
M  V30 BEGIN ATOM
M  V30 1 O -3.0875 3.8804 0.2372 0
M  V30 2 C -2.5407 2.6038 0.1315 0
M  V30 3 C -1.8108 2.2578 -1.0087 0
M  V30 4 C -2.7148 1.6649 1.1558 0
M  V30 5 C -1.2553 0.9811 -1.1283 0
M  V30 6 C -2.1593 0.3877 1.0405 0
M  V30 7 C -1.4208 0.0303 -0.1046 0
M  V30 8 C -0.7778 -1.3438 -0.2425 0 CFG=2
M  V30 9 C -1.7107 -2.4466 0.2181 0
M  V30 10 C 0.612 -1.4454 0.4503 0 CFG=1
M  V30 11 C -2.8614 -2.6968 -0.4146 0
M  V30 12 C 1.6168 -0.4855 -0.1696 0
M  V30 13 C 0.544 -1.2805 1.9587 0
M  V30 14 C 2.4322 -0.926 -1.2282 0
M  V30 15 C 1.7056 0.8618 0.2373 0
M  V30 16 C 1.0911 -2.17 2.7935 0
M  V30 17 C 3.3311 -0.0515 -1.8454 0
M  V30 18 C 2.6042 1.7334 -0.3836 0
M  V30 19 C 3.4199 1.2805 -1.4235 0
M  V30 20 O 4.3108 2.1612 -2.0326 0
M  V30 21 H -3.6216 4.1619 1.0511 0
M  V30 22 H -1.6708 2.9806 -1.8023 0
M  V30 23 H -3.2791 1.9242 2.0426 0
M  V30 24 H -0.6845 0.738 -2.0158 0
M  V30 25 H -2.3066 -0.3208 1.8455 0
M  V30 26 H -0.5996 -1.5368 -1.3256 0
M  V30 27 H -1.4416 -3.0669 1.0684 0
M  V30 28 H 0.977 -2.4786 0.245 0
M  V30 29 H -3.5081 -3.4971 -0.0704 0
M  V30 30 H -3.1647 -2.1072 -1.2746 0
M  V30 31 H 0.0849 -0.3961 2.3859 0
M  V30 32 H 2.3698 -1.9479 -1.5808 0
M  V30 33 H 1.071 1.2478 1.0237 0
M  V30 34 H 1.588 -3.0608 2.4226 0
M  V30 35 H 1.0437 -2.0069 3.8653 0
M  V30 36 H 3.9538 -0.409 -2.6555 0
M  V30 37 H 2.6614 2.765 -0.0604 0
M  V30 38 H 4.9146 1.8637 -2.7901 0
M  V30 END ATOM
M  V30 BEGIN BOND
M  V30 1 1 1 2
M  V30 2 2 2 3
M  V30 3 1 2 4
M  V30 4 1 3 5
M  V30 5 2 4 6
M  V30 6 2 5 7
M  V30 7 1 7 8
M  V30 8 1 8 9
M  V30 9 1 8 10
M  V30 10 2 9 11
M  V30 11 1 10 12
M  V30 12 1 10 13
M  V30 13 2 12 14
M  V30 14 1 12 15
M  V30 15 2 13 16
M  V30 16 1 14 17
M  V30 17 2 15 18
M  V30 18 2 17 19
M  V30 19 1 19 20
M  V30 20 1 6 7
M  V30 21 1 18 19
M  V30 22 1 1 21
M  V30 23 1 3 22
M  V30 24 1 4 23
M  V30 25 1 5 24
M  V30 26 1 6 25
M  V30 27 1 8 26
M  V30 28 1 9 27
M  V30 29 1 10 28
M  V30 30 1 11 29
M  V30 31 1 11 30
M  V30 32 1 13 31
M  V30 33 1 14 32
M  V30 34 1 15 33
M  V30 35 1 16 34
M  V30 36 1 16 35
M  V30 37 1 17 36
M  V30 38 1 18 37
M  V30 39 1 20 38
M  V30 END BOND
M  V30 BEGIN COLLECTION
M  V30 MDLV30/STEABS ATOMS=(2 8 10)
M  V30 END COLLECTION
M  V30 END CTAB
M  END
>  <Structure No>
7892

>  <LogS>
-4.95

>  <MMFF94 Energy>
74.537

$$$$
Compound 7893
Actelion Java MolfileCreator 2.0

  0  0  0  0  0  0              0 V3000
M  V30 BEGIN CTAB
M  V30 COUNTS 47 50 0 0 0
M  V30 BEGIN ATOM
M  V30 1 O 0.8021 -2.8097 -1.0429 0
M  V30 2 C 1.1202 -1.4361 -1.0463 0 CFG=2
M  V30 3 C 2.2121 -1.1103 -0.0267 0
M  V30 4 C -0.1277 -0.4789 -0.9578 0 CFG=2
M  V30 5 C 3.0855 0.0078 -0.1689 0
M  V30 6 C 2.3291 -1.9045 1.1319 0
M  V30 7 N -0.5423 -0.0708 0.4267 0 CHG=1 CFG=1
M  V30 8 C -1.361 -0.9752 -1.7762 0
M  V30 9 C 4.0304 0.2696 0.8596 0
M  V30 10 C 3.0599 0.8729 -1.2872 0
M  V30 11 C 3.2779 -1.6015 2.1047 0
M  V30 12 C -1.4662 1.0904 0.3225 0
M  V30 13 C -1.2606 -1.1522 1.1486 0
M  V30 14 C -2.6354 -0.7765 -0.9314 0 CFG=2
M  V30 15 N 4.0967 -0.5341 1.9512 0
M  V30 16 C 4.9027 1.3598 0.7624 0
M  V30 17 C 3.9371 1.9581 -1.3687 0
M  V30 18 C -2.7191 0.7262 -0.538 0 CFG=1
M  V30 19 C -2.4832 -1.6439 0.3362 0
M  V30 20 C 4.8545 2.2016 -0.3476 0
M  V30 21 C -4.0483 1.0669 0.1735 0
M  V30 22 C -4.2898 2.5749 0.2446 0
M  V30 23 H 0.0958 -2.9796 -0.376 0
M  V30 24 H 1.5589 -1.2805 -2.0532 0
M  V30 25 H 0.2091 0.448 -1.4752 0
M  V30 26 H 1.6912 -2.7614 1.2965 0
M  V30 27 H 0.2834 0.2331 0.9919 0
M  V30 28 H -1.4474 -0.3972 -2.7231 0
M  V30 29 H -1.2794 -2.0417 -2.0726 0
M  V30 30 H 2.3801 0.7313 -2.1118 0
M  V30 31 H 3.3607 -2.2174 2.9903 0
M  V30 32 H -0.9401 1.958 -0.1363 0
M  V30 33 H -1.7586 1.4286 1.3427 0
M  V30 34 H -1.6113 -0.7775 2.1373 0
M  V30 35 H -0.5805 -1.9878 1.3975 0
M  V30 36 H -3.529 -1.0899 -1.5145 0
M  V30 37 H 5.6202 1.5563 1.5498 0
M  V30 38 H 3.9063 2.6126 -2.2304 0
M  V30 39 H -2.6846 1.3178 -1.4816 0
M  V30 40 H -2.3458 -2.7096 0.051 0
M  V30 41 H -3.4045 -1.5931 0.9545 0
M  V30 42 H 5.5311 3.0436 -0.4179 0
M  V30 43 H -4.0571 0.653 1.2047 0
M  V30 44 H -4.8949 0.6103 -0.3839 0
M  V30 45 H -4.3291 3.0084 -0.7772 0
M  V30 46 H -5.2598 2.7713 0.7482 0
M  V30 47 H -3.486 3.0759 0.8233 0
M  V30 END ATOM
M  V30 BEGIN BOND
M  V30 1 1 1 2
M  V30 2 1 2 3
M  V30 3 1 2 4
M  V30 4 1 3 5
M  V30 5 2 3 6
M  V30 6 1 4 7
M  V30 7 1 4 8
M  V30 8 1 5 9
M  V30 9 2 5 10
M  V30 10 1 6 11
M  V30 11 1 7 12
M  V30 12 1 7 13
M  V30 13 1 8 14
M  V30 14 1 9 15
M  V30 15 2 9 16
M  V30 16 1 10 17
M  V30 17 1 12 18
M  V30 18 1 13 19
M  V30 19 1 16 20
M  V30 20 1 18 21
M  V30 21 1 21 22
M  V30 22 2 11 15
M  V30 23 1 14 18
M  V30 24 1 14 19
M  V30 25 2 17 20
M  V30 26 1 1 23
M  V30 27 1 2 24
M  V30 28 1 4 25
M  V30 29 1 6 26
M  V30 30 1 7 27
M  V30 31 1 8 28
M  V30 32 1 8 29
M  V30 33 1 10 30
M  V30 34 1 11 31
M  V30 35 1 12 32
M  V30 36 1 12 33
M  V30 37 1 13 34
M  V30 38 1 13 35
M  V30 39 1 14 36
M  V30 40 1 16 37
M  V30 41 1 17 38
M  V30 42 1 18 39
M  V30 43 1 19 40
M  V30 44 1 19 41
M  V30 45 1 20 42
M  V30 46 1 21 43
M  V30 47 1 21 44
M  V30 48 1 22 45
M  V30 49 1 22 46
M  V30 50 1 22 47
M  V30 END BOND
M  V30 BEGIN COLLECTION
M  V30 MDLV30/STEABS ATOMS=(5 2 4 7 14 18)
M  V30 END COLLECTION
M  V30 END CTAB
M  END
>  <Structure No>
7893

>  <LogS>
-2.63

>  <MMFF94 Energy>
108.17

$$$$
Compound 7894
Actelion Java MolfileCreator 2.0

  0  0  0  0  0  0              0 V3000
M  V30 BEGIN CTAB
M  V30 COUNTS 51 54 0 0 0
M  V30 BEGIN ATOM
M  V30 1 O -5.7685 -1.1354 -0.4054 0
M  V30 2 C -4.6331 -0.6282 -0.2057 0
M  V30 3 C -3.7805 -1.1464 0.8695 0
M  V30 4 C -4.118 0.4334 -1.1202 0
M  V30 5 C -2.5991 -0.5781 1.1738 0
M  V30 6 C -3.1857 1.3716 -0.3519 0
M  V30 7 C -2.0474 0.6335 0.4327 0 CFG=2
M  V30 8 C -1.6225 -1.336 2.0188 0
M  V30 9 C -0.8934 0.1394 -0.5421 0 CFG=2
M  V30 10 C -1.534 1.6441 1.5 0
M  V30 11 C -0.6343 -2.008 1.0809 0
M  V30 12 C -0.0117 -1.0773 -0.0085 0 CFG=2
M  V30 13 C -0.0212 1.3483 -1.0675 0
M  V30 14 C 1.4085 -0.5654 0.3053 0 CFG=2
M  V30 15 C 1.3086 0.9659 -1.7508 0
M  V30 16 C 2.1418 -0.1175 -0.983 0 CFG=1
M  V30 17 C 2.4311 -1.4116 1.0538 0
M  V30 18 C 3.5081 0.3305 -0.3727 0 CFG=1
M  V30 19 C 2.4035 -1.2992 -1.9834 0
M  V30 20 C 3.7823 -0.7443 0.7178 0
M  V30 21 O 4.5539 0.3341 -1.315 0
M  V30 22 C 3.4291 1.6692 0.2663 0
M  V30 23 C 3.3609 2.7555 0.7853 0
M  V30 24 H -4.099 -2.0473 1.3808 0
M  V30 25 H -3.589 -0.0393 -1.973 0
M  V30 26 H -4.9683 1.021 -1.5299 0
M  V30 27 H -2.7648 2.1188 -1.0556 0
M  V30 28 H -3.8206 1.943 0.3639 0
M  V30 29 H -1.0852 -0.6733 2.7259 0
M  V30 30 H -2.1306 -2.1082 2.6383 0
M  V30 31 H -1.3983 -0.2663 -1.4448 0
M  V30 32 H -0.5545 1.3463 1.9228 0
M  V30 33 H -2.2596 1.7307 2.3387 0
M  V30 34 H -1.4232 2.6649 1.0744 0
M  V30 35 H 0.1444 -2.5136 1.686 0
M  V30 36 H -1.1845 -2.8297 0.567 0
M  V30 37 H 0.0891 -1.7736 -0.8618 0
M  V30 38 H 0.2624 2.0312 -0.2448 0
M  V30 39 H -0.6155 1.9523 -1.7852 0
M  V30 40 H 1.2622 0.3132 0.9735 0
M  V30 41 H 1.9122 1.8859 -1.9037 0
M  V30 42 H 1.0506 0.6236 -2.7774 0
M  V30 43 H 2.4097 -2.4664 0.7045 0
M  V30 44 H 2.2437 -1.3899 2.1501 0
M  V30 45 H 1.4756 -1.6653 -2.4662 0
M  V30 46 H 3.0477 -0.9577 -2.8209 0
M  V30 47 H 2.9101 -2.1636 -1.5099 0
M  V30 48 H 4.4832 -1.5178 0.3334 0
M  V30 49 H 4.2404 -0.3068 1.6334 0
M  V30 50 H 4.3153 0.99 -2.0224 0
M  V30 51 H 3.2994 3.7087 1.2406 0
M  V30 END ATOM
M  V30 BEGIN BOND
M  V30 1 2 1 2
M  V30 2 1 2 3
M  V30 3 1 2 4
M  V30 4 2 3 5
M  V30 5 1 4 6
M  V30 6 1 5 7
M  V30 7 1 5 8
M  V30 8 1 7 9
M  V30 9 1 7 10
M  V30 10 1 8 11
M  V30 11 1 9 12
M  V30 12 1 9 13
M  V30 13 1 12 14
M  V30 14 1 13 15
M  V30 15 1 14 16
M  V30 16 1 14 17
M  V30 17 1 16 18
M  V30 18 1 16 19
M  V30 19 1 17 20
M  V30 20 1 18 21
M  V30 21 1 18 22
M  V30 22 3 22 23
M  V30 23 1 6 7
M  V30 24 1 11 12
M  V30 25 1 15 16
M  V30 26 1 18 20
M  V30 27 1 3 24
M  V30 28 1 4 25
M  V30 29 1 4 26
M  V30 30 1 6 27
M  V30 31 1 6 28
M  V30 32 1 8 29
M  V30 33 1 8 30
M  V30 34 1 9 31
M  V30 35 1 10 32
M  V30 36 1 10 33
M  V30 37 1 10 34
M  V30 38 1 11 35
M  V30 39 1 11 36
M  V30 40 1 12 37
M  V30 41 1 13 38
M  V30 42 1 13 39
M  V30 43 1 14 40
M  V30 44 1 15 41
M  V30 45 1 15 42
M  V30 46 1 17 43
M  V30 47 1 17 44
M  V30 48 1 19 45
M  V30 49 1 19 46
M  V30 50 1 19 47
M  V30 51 1 20 48
M  V30 52 1 20 49
M  V30 53 1 21 50
M  V30 54 1 23 51
M  V30 END BOND
M  V30 BEGIN COLLECTION
M  V30 MDLV30/STEABS ATOMS=(6 7 9 12 14 16 18)
M  V30 END COLLECTION
M  V30 END CTAB
M  END
>  <Structure No>
7894

>  <LogS>
-5.66

>  <MMFF94 Energy>
84.593

$$$$
Compound 7895
Actelion Java MolfileCreator 2.0

  0  0  0  0  0  0              0 V3000
M  V30 BEGIN CTAB
M  V30 COUNTS 44 47 0 0 0
M  V30 BEGIN ATOM
M  V30 1 O 0.3266 -1.7976 -2.6155 0
M  V30 2 C 1.2758 -1.3072 -1.947 0
M  V30 3 O 2.4376 -1.9498 -1.9275 0
M  V30 4 C 1.1003 -0.099 -1.2323 0
M  V30 5 C 3.4897 -1.52 -1.2444 0
M  V30 6 C 2.1997 0.3767 -0.4757 0
M  V30 7 C -0.2672 0.5913 -1.2709 0
M  V30 8 C 3.4098 -0.3339 -0.486 0
M  V30 9 C 4.6816 -2.2525 -1.2757 0
M  V30 10 O 2.0993 1.5366 0.2876 0 CHG=-1
M  V30 11 C -1.2796 -0.1223 -0.3741 0
M  V30 12 C -0.2346 2.0795 -1.0217 0
M  V30 13 C 4.5355 0.1003 0.238 0
M  V30 14 C 5.795 -1.8122 -0.555 0
M  V30 15 C -1.0566 -0.295 1.0125 0
M  V30 16 C -2.4882 -0.618 -0.9089 0
M  V30 17 O 0.3563 2.8288 -1.8474 0
M  V30 18 O -0.8623 2.6258 0.1057 0
M  V30 19 C 5.7218 -0.6388 0.2002 0
M  V30 20 O -0.01 0.1452 1.5553 0
M  V30 21 O -1.9504 -0.9188 1.7718 0
M  V30 22 O -2.7788 -0.4627 -2.2626 0 CHG=-1
M  V30 23 C -3.4046 -1.2713 -0.0715 0
M  V30 24 C -0.8482 4.0169 0.4193 0
M  V30 25 C -3.089 -1.4058 1.2963 0
M  V30 26 C -4.619 -1.7904 -0.5559 0
M  V30 27 C 0.5061 4.4287 0.9838 0
M  V30 28 C -3.9802 -2.0529 2.1599 0
M  V30 29 C -5.5026 -2.4353 0.3153 0
M  V30 30 C -5.184 -2.5665 1.6697 0
M  V30 31 H -0.6078 0.5161 -2.3254 0
M  V30 32 H 4.7449 -3.1635 -1.8574 0
M  V30 33 H 4.5037 1.0064 0.8304 0
M  V30 34 H 6.7151 -2.3813 -0.5813 0
M  V30 35 H 6.586 -0.3015 0.7577 0
M  V30 36 H -1.0912 4.6201 -0.4823 0
M  V30 37 H -1.6276 4.2131 1.1853 0
M  V30 38 H -4.8874 -1.7012 -1.6011 0
M  V30 39 H 0.4733 5.4949 1.292 0
M  V30 40 H 1.299 4.3051 0.2173 0
M  V30 41 H 0.7531 3.8052 1.8689 0
M  V30 42 H -3.7403 -2.1573 3.2106 0
M  V30 43 H -6.4361 -2.8341 -0.0601 0
M  V30 44 H -5.8709 -3.0662 2.3403 0
M  V30 END ATOM
M  V30 BEGIN BOND
M  V30 1 2 1 2
M  V30 2 1 2 3
M  V30 3 1 2 4
M  V30 4 1 3 5
M  V30 5 2 4 6
M  V30 6 1 4 7
M  V30 7 2 5 8
M  V30 8 1 5 9
M  V30 9 1 6 10
M  V30 10 1 7 11
M  V30 11 1 7 12
M  V30 12 1 8 13
M  V30 13 2 9 14
M  V30 14 1 11 15
M  V30 15 2 11 16
M  V30 16 2 12 17
M  V30 17 1 12 18
M  V30 18 2 13 19
M  V30 19 2 15 20
M  V30 20 1 15 21
M  V30 21 1 16 22
M  V30 22 1 16 23
M  V30 23 1 18 24
M  V30 24 1 21 25
M  V30 25 1 23 26
M  V30 26 1 24 27
M  V30 27 1 25 28
M  V30 28 2 26 29
M  V30 29 2 28 30
M  V30 30 1 6 8
M  V30 31 1 14 19
M  V30 32 2 23 25
M  V30 33 1 29 30
M  V30 34 1 7 31
M  V30 35 1 9 32
M  V30 36 1 13 33
M  V30 37 1 14 34
M  V30 38 1 19 35
M  V30 39 1 24 36
M  V30 40 1 24 37
M  V30 41 1 26 38
M  V30 42 1 27 39
M  V30 43 1 27 40
M  V30 44 1 27 41
M  V30 45 1 28 42
M  V30 46 1 29 43
M  V30 47 1 30 44
M  V30 END BOND
M  V30 END CTAB
M  END
>  <Structure No>
7895

>  <LogS>
-3.66

>  <MMFF94 Energy>
143.78

$$$$
Compound 7896
Actelion Java MolfileCreator 2.0

  0  0  0  0  0  0              0 V3000
M  V30 BEGIN CTAB
M  V30 COUNTS 87 89 0 0 0
M  V30 BEGIN ATOM
M  V30 1 O -2.6932 4.0418 0.3165 0
M  V30 2 C -3.2469 3.0185 -0.1892 0
M  V30 3 N -2.474 1.8248 -0.4461 0
M  V30 4 C -4.7197 3.0484 -0.4841 0 CFG=2
M  V30 5 C -1.0038 1.8304 -0.4397 0 CFG=1
M  V30 6 O -5.0201 4.2421 -1.167 0
M  V30 7 C -5.5217 2.9726 0.8278 0
M  V30 8 C -0.4515 0.6359 0.3424 0 CFG=1
M  V30 9 C -0.4787 1.7953 -1.8756 0
M  V30 10 C -7.0455 2.9399 0.5798 0
M  V30 11 O -0.91 -0.5799 -0.2443 0
M  V30 12 C 1.1067 0.6816 0.3812 0 CFG=1
M  V30 13 C 1.0207 2.1168 -1.9063 0 CFG=1
M  V30 14 N -7.7813 2.8428 1.8388 0 CHG=1
M  V30 15 C -1.3615 -1.504 0.7308 0 CFG=1
M  V30 16 O 1.6306 -0.5861 0.7059 0
M  V30 17 C 1.8748 1.3347 -0.8429 0 CFG=2
M  V30 18 N 1.5464 1.9542 -3.2764 0 CHG=1
M  V30 19 O -2.6759 -1.1584 1.1264 0
M  V30 20 C -1.3787 -2.9194 0.0972 0 CFG=1
M  V30 21 O 2.7372 0.3853 -1.4738 0
M  V30 22 C -3.0422 -1.8654 2.3034 0 CFG=2
M  V30 23 O -0.0996 -3.5043 0.164 0
M  V30 24 C -2.4509 -3.8434 0.7511 0 CFG=1
M  V30 25 C 4.0011 0.2969 -0.8172 0 CFG=1
M  V30 26 C -2.7626 -3.405 2.2095 0 CFG=1
M  V30 27 C -4.5273 -1.5915 2.6082 0
M  V30 28 N -3.6741 -3.8757 -0.0646 0 CHG=1
M  V30 29 O 4.4165 -1.0591 -0.8036 0
M  V30 30 C 5.0378 1.1532 -1.5701 0 CFG=2
M  V30 31 O -1.6712 -3.7127 3.0357 0
M  V30 32 O -4.7697 -0.2108 2.6864 0
M  V30 33 C 5.735 -1.2783 -0.2838 0 CFG=2
M  V30 34 O 5.2411 0.6261 -2.8589 0
M  V30 35 C 6.3788 1.1768 -0.7883 0 CFG=1
M  V30 36 C 6.4746 0.0131 0.2254 0 CFG=2
M  V30 37 C 6.5333 -2.0838 -1.3353 0
M  V30 38 O 7.4836 1.1578 -1.6624 0
M  V30 39 O 7.8172 -0.231 0.57 0
M  V30 40 N 7.6261 -2.8764 -0.7509 0 CHG=1
M  V30 41 H -2.9727 0.9861 -0.8153 0
M  V30 42 H -4.9736 2.1631 -1.113 0
M  V30 43 H -0.636 2.7565 0.0645 0
M  V30 44 H -5.5848 4.0116 -1.9526 0
M  V30 45 H -5.2848 3.8526 1.4633 0
M  V30 46 H -5.2226 2.0541 1.3811 0
M  V30 47 H -0.8148 0.7678 1.3928 0
M  V30 48 H -1.0189 2.5563 -2.4797 0
M  V30 49 H -0.6678 0.8038 -2.3391 0
M  V30 50 H -7.3621 3.8707 0.0557 0
M  V30 51 H -7.3029 2.0676 -0.0621 0
M  V30 52 H 1.3455 1.3265 1.2587 0
M  V30 53 H 1.1006 3.2049 -1.6502 0
M  V30 54 H -7.5427 1.9456 2.3234 0
M  V30 55 H -7.5458 3.6533 2.4522 0
M  V30 56 H -8.8092 2.8632 1.6399 0
M  V30 57 H -0.6667 -1.5116 1.6153 0
M  V30 58 H 1.4983 -1.1825 -0.0781 0
M  V30 59 H 2.4877 2.16 -0.3974 0
M  V30 60 H 0.9856 2.533 -3.9423 0
M  V30 61 H 1.4961 0.9526 -3.5811 0
M  V30 62 H 2.537 2.2883 -3.3084 0
M  V30 63 H -1.6227 -2.8097 -0.9852 0
M  V30 64 H -2.4773 -1.444 3.1648 0
M  V30 65 H 0.1198 -3.6576 1.1186 0
M  V30 66 H -2.0506 -4.8849 0.7891 0
M  V30 67 H 3.9237 0.6359 0.2439 0
M  V30 68 H -3.649 -3.9774 2.58 0
M  V30 69 H -4.8247 -2.0721 3.5703 0
M  V30 70 H -5.1639 -2.0218 1.8038 0
M  V30 71 H -4.0471 -2.9122 -0.2347 0
M  V30 72 H -3.4659 -4.3213 -0.9922 0
M  V30 73 H -4.4185 -4.4433 0.3989 0
M  V30 74 H 4.6639 2.1996 -1.6544 0
M  V30 75 H -1.7148 -4.6893 3.2147 0
M  V30 76 H -4.3442 0.1014 3.5221 0
M  V30 77 H 5.5965 -1.932 0.6068 0
M  V30 78 H 4.4454 0.8697 -3.4044 0
M  V30 79 H 6.4142 2.1223 -0.1981 0
M  V30 80 H 5.9476 0.3477 1.1573 0
M  V30 81 H 6.9384 -1.4109 -2.1211 0
M  V30 82 H 5.8316 -2.7851 -1.8412 0
M  V30 83 H 7.4916 2.029 -2.1332 0
M  V30 84 H 7.803 -0.8104 1.3788 0
M  V30 85 H 7.3289 -3.3302 0.1421 0
M  V30 86 H 8.4624 -2.2768 -0.5817 0
M  V30 87 H 7.9 -3.6306 -1.4234 0
M  V30 END ATOM
M  V30 BEGIN BOND
M  V30 1 2 1 2
M  V30 2 1 2 3
M  V30 3 1 2 4
M  V30 4 1 3 5
M  V30 5 1 4 6
M  V30 6 1 4 7
M  V30 7 1 5 8
M  V30 8 1 5 9
M  V30 9 1 7 10
M  V30 10 1 8 11
M  V30 11 1 8 12
M  V30 12 1 9 13
M  V30 13 1 10 14
M  V30 14 1 11 15
M  V30 15 1 12 16
M  V30 16 1 12 17
M  V30 17 1 13 18
M  V30 18 1 15 19
M  V30 19 1 15 20
M  V30 20 1 17 21
M  V30 21 1 19 22
M  V30 22 1 20 23
M  V30 23 1 20 24
M  V30 24 1 21 25
M  V30 25 1 22 26
M  V30 26 1 22 27
M  V30 27 1 24 28
M  V30 28 1 25 29
M  V30 29 1 25 30
M  V30 30 1 26 31
M  V30 31 1 27 32
M  V30 32 1 29 33
M  V30 33 1 30 34
M  V30 34 1 30 35
M  V30 35 1 33 36
M  V30 36 1 33 37
M  V30 37 1 35 38
M  V30 38 1 36 39
M  V30 39 1 37 40
M  V30 40 1 13 17
M  V30 41 1 24 26
M  V30 42 1 35 36
M  V30 43 1 3 41
M  V30 44 1 4 42
M  V30 45 1 5 43
M  V30 46 1 6 44
M  V30 47 1 7 45
M  V30 48 1 7 46
M  V30 49 1 8 47
M  V30 50 1 9 48
M  V30 51 1 9 49
M  V30 52 1 10 50
M  V30 53 1 10 51
M  V30 54 1 12 52
M  V30 55 1 13 53
M  V30 56 1 14 54
M  V30 57 1 14 55
M  V30 58 1 14 56
M  V30 59 1 15 57
M  V30 60 1 16 58
M  V30 61 1 17 59
M  V30 62 1 18 60
M  V30 63 1 18 61
M  V30 64 1 18 62
M  V30 65 1 20 63
M  V30 66 1 22 64
M  V30 67 1 23 65
M  V30 68 1 24 66
M  V30 69 1 25 67
M  V30 70 1 26 68
M  V30 71 1 27 69
M  V30 72 1 27 70
M  V30 73 1 28 71
M  V30 74 1 28 72
M  V30 75 1 28 73
M  V30 76 1 30 74
M  V30 77 1 31 75
M  V30 78 1 32 76
M  V30 79 1 33 77
M  V30 80 1 34 78
M  V30 81 1 35 79
M  V30 82 1 36 80
M  V30 83 1 37 81
M  V30 84 1 37 82
M  V30 85 1 38 83
M  V30 86 1 39 84
M  V30 87 1 40 85
M  V30 88 1 40 86
M  V30 89 1 40 87
M  V30 END BOND
M  V30 BEGIN COLLECTION
M  V30 MDLV30/STEABS ATOMS=(16 4 5 8 12 13 15 17 20 22 24 25 26 30 33 35 36)
M  V30 END COLLECTION
M  V30 END CTAB
M  END
>  <Structure No>
7896

>  <LogS>
-0.5

>  <MMFF94 Energy>
427.22

$$$$
Compound 7897
Actelion Java MolfileCreator 2.0

  0  0  0  0  0  0              0 V3000
M  V30 BEGIN CTAB
M  V30 COUNTS 23 23 0 0 0
M  V30 BEGIN ATOM
M  V30 1 O -1.2571 -1.1785 -1.8862 0
M  V30 2 C -0.9615 -0.5618 -0.8251 0
M  V30 3 O -1.9677 -0.1999 0.0771 0
M  V30 4 C 0.4478 -0.2199 -0.5324 0
M  V30 5 C -3.3425 -0.4976 -0.1426 0
M  V30 6 C 1.474 -0.5748 -1.4268 0
M  V30 7 C 0.7807 0.4668 0.6484 0
M  V30 8 C -4.1694 0.0289 1.0193 0
M  V30 9 C 2.8041 -0.2488 -1.1445 0
M  V30 10 C 2.1115 0.7915 0.9283 0
M  V30 11 C 3.129 0.4355 0.0337 0
M  V30 12 N 4.4897 0.7683 0.3213 0
M  V30 13 H -3.6849 -0.0167 -1.0845 0
M  V30 14 H -3.4804 -1.5976 -0.2226 0
M  V30 15 H 1.2503 -1.1041 -2.3446 0
M  V30 16 H 0.0141 0.7541 1.3572 0
M  V30 17 H -3.8412 -0.45 1.9661 0
M  V30 18 H -5.2425 -0.2015 0.851 0
M  V30 19 H -4.0454 1.1293 1.1051 0
M  V30 20 H 3.581 -0.5298 -1.8443 0
M  V30 21 H 2.3494 1.3207 1.8426 0
M  V30 22 H 5.2551 0.5071 -0.3393 0
M  V30 23 H 4.7416 1.2785 1.1973 0
M  V30 END ATOM
M  V30 BEGIN BOND
M  V30 1 2 1 2
M  V30 2 1 2 3
M  V30 3 1 2 4
M  V30 4 1 3 5
M  V30 5 2 4 6
M  V30 6 1 4 7
M  V30 7 1 5 8
M  V30 8 1 6 9
M  V30 9 2 7 10
M  V30 10 2 9 11
M  V30 11 1 11 12
M  V30 12 1 10 11
M  V30 13 1 5 13
M  V30 14 1 5 14
M  V30 15 1 6 15
M  V30 16 1 7 16
M  V30 17 1 8 17
M  V30 18 1 8 18
M  V30 19 1 8 19
M  V30 20 1 9 20
M  V30 21 1 10 21
M  V30 22 1 12 22
M  V30 23 1 12 23
M  V30 END BOND
M  V30 END CTAB
M  END
>  <Structure No>
7897

>  <LogS>
-2.32

>  <MMFF94 Energy>
18.63

$$$$
Compound 7898
Actelion Java MolfileCreator 2.0

  0  0  0  0  0  0              0 V3000
M  V30 BEGIN CTAB
M  V30 COUNTS 20 20 0 0 0
M  V30 BEGIN ATOM
M  V30 1 O 0.5638 2.6603 -0.725 0
M  V30 2 C -0.6516 2.3354 -0.7802 0
M  V30 3 O -1.5735 3.2787 -1.2207 0 CHG=-1
M  V30 4 C -1.1021 0.9748 -0.3865 0
M  V30 5 C -0.196 -0.0101 0.0805 0
M  V30 6 C -2.469 0.652 -0.4908 0
M  V30 7 O 1.1685 0.2997 0.2034 0
M  V30 8 C -0.6858 -1.276 0.4584 0
M  V30 9 C -2.933 -0.614 -0.1301 0
M  V30 10 C 2.2227 -0.6117 0.0609 0
M  V30 11 C -2.0442 -1.5742 0.3475 0
M  V30 12 O 2.048 -1.725 -0.5045 0
M  V30 13 C 3.5954 -0.2086 0.4795 0
M  V30 14 H -3.1852 1.3794 -0.8517 0
M  V30 15 H -0.0241 -2.0266 0.8685 0
M  V30 16 H -3.9867 -0.8477 -0.2138 0
M  V30 17 H -2.4095 -2.5498 0.6415 0
M  V30 18 H 4.126 0.2467 -0.3822 0
M  V30 19 H 3.5364 0.5322 1.3043 0
M  V30 20 H 4.1629 -1.0948 0.8341 0
M  V30 END ATOM
M  V30 BEGIN BOND
M  V30 1 2 1 2
M  V30 2 1 2 3
M  V30 3 1 2 4
M  V30 4 2 4 5
M  V30 5 1 4 6
M  V30 6 1 5 7
M  V30 7 1 5 8
M  V30 8 2 6 9
M  V30 9 1 7 10
M  V30 10 2 8 11
M  V30 11 2 10 12
M  V30 12 1 10 13
M  V30 13 1 9 11
M  V30 14 1 6 14
M  V30 15 1 8 15
M  V30 16 1 9 16
M  V30 17 1 11 17
M  V30 18 1 13 18
M  V30 19 1 13 19
M  V30 20 1 13 20
M  V30 END BOND
M  V30 END CTAB
M  END
>  <Structure No>
7898

>  <LogS>
-1.72

>  <MMFF94 Energy>
40.292

$$$$
Compound 7899
Actelion Java MolfileCreator 2.0

  0  0  0  0  0  0              0 V3000
M  V30 BEGIN CTAB
M  V30 COUNTS 31 33 0 0 0
M  V30 BEGIN ATOM
M  V30 1 O -0.8059 4.0348 -1.2898 0
M  V30 2 C -0.6087 3.0125 -0.5827 0
M  V30 3 N -0.6732 3.018 0.8278 0
M  V30 4 N -0.3 1.7356 -1.1225 0
M  V30 5 C -0.3916 1.674 1.1884 0
M  V30 6 C -0.1296 0.7908 -0.0134 0
M  V30 7 O -0.384 1.278 2.3848 0
M  V30 8 C -1.1841 -0.3167 -0.0436 0
M  V30 9 C 1.294 0.2316 -0.0777 0
M  V30 10 C -2.3392 -0.2234 -0.8501 0
M  V30 11 C -1.0492 -1.433 0.808 0
M  V30 12 C 2.3317 0.7003 0.7589 0
M  V30 13 C 1.6123 -0.7236 -1.0653 0
M  V30 14 C -3.3027 -1.2364 -0.8316 0
M  V30 15 C -2.0159 -2.442 0.8211 0
M  V30 16 C 3.6275 0.189 0.6398 0
M  V30 17 C 2.9094 -1.2305 -1.1786 0
M  V30 18 C -3.1396 -2.3459 -8.0E-4 0
M  V30 19 C 3.915 -0.7785 -0.3235 0
M  V30 20 H -0.8929 3.8205 1.4586 0
M  V30 21 H -0.1896 1.519 -2.1386 0
M  V30 22 H -2.5074 0.6299 -1.493 0
M  V30 23 H -0.1921 -1.522 1.4641 0
M  V30 24 H 2.1549 1.4648 1.5028 0
M  V30 25 H 0.8521 -1.0776 -1.7506 0
M  V30 26 H -4.181 -1.1577 -1.4594 0
M  V30 27 H -1.8956 -3.2972 1.4734 0
M  V30 28 H 4.4123 0.5496 1.2922 0
M  V30 29 H 3.1361 -1.9709 -1.9349 0
M  V30 30 H -3.8882 -3.1275 0.012 0
M  V30 31 H 4.9197 -1.1705 -0.4143 0
M  V30 END ATOM
M  V30 BEGIN BOND
M  V30 1 2 1 2
M  V30 2 1 2 3
M  V30 3 1 2 4
M  V30 4 1 3 5
M  V30 5 1 4 6
M  V30 6 2 5 7
M  V30 7 1 6 8
M  V30 8 1 6 9
M  V30 9 2 8 10
M  V30 10 1 8 11
M  V30 11 2 9 12
M  V30 12 1 9 13
M  V30 13 1 10 14
M  V30 14 2 11 15
M  V30 15 1 12 16
M  V30 16 2 13 17
M  V30 17 2 14 18
M  V30 18 2 16 19
M  V30 19 1 5 6
M  V30 20 1 15 18
M  V30 21 1 17 19
M  V30 22 1 3 20
M  V30 23 1 4 21
M  V30 24 1 10 22
M  V30 25 1 11 23
M  V30 26 1 12 24
M  V30 27 1 13 25
M  V30 28 1 14 26
M  V30 29 1 15 27
M  V30 30 1 16 28
M  V30 31 1 17 29
M  V30 32 1 18 30
M  V30 33 1 19 31
M  V30 END BOND
M  V30 END CTAB
M  END
>  <Structure No>
7899

>  <LogS>
-3.99

>  <MMFF94 Energy>
-1.2041

$$$$
Compound 7900
Actelion Java MolfileCreator 2.0

  0  0  0  0  0  0              0 V3000
M  V30 BEGIN CTAB
M  V30 COUNTS 56 56 0 0 0
M  V30 BEGIN ATOM
M  V30 1 O 3.0132 2.8544 -1.1093 0
M  V30 2 C 1.8777 2.441 -0.9288 0
M  V30 3 C 1.3781 1.1414 -1.4682 0 CFG=2
M  V30 4 C 0.8496 3.2235 -0.2 0
M  V30 5 C -0.0254 1.0159 -0.8355 0 CFG=1
M  V30 6 C 2.2835 -0.0469 -1.0916 0
M  V30 7 C -0.4497 2.4599 -0.4727 0 CFG=2
M  V30 8 C -1.0042 0.3093 -1.7585 0
M  V30 9 C 3.5558 -0.0399 -1.907 0
M  V30 10 O -1.1823 3.0734 -1.5076 0
M  V30 11 C -2.0794 -0.3909 -1.3524 0
M  V30 12 C 4.7954 0.074 -1.3972 0
M  V30 13 C -2.4615 -0.6183 0.1011 0 CFG=1
M  V30 14 C 5.0897 0.1921 0.0771 0
M  V30 15 O -2.7528 0.5866 0.7639 0
M  V30 16 C -3.626 -1.6209 0.2548 0
M  V30 17 C 6.5952 0.3395 0.3261 0
M  V30 18 C -4.9825 -1.0894 -0.2529 0
M  V30 19 C 6.929 0.4131 1.8229 0
M  V30 20 C -6.1035 -2.1439 -0.1236 0
M  V30 21 C 6.8403 -0.9352 2.4729 0
M  V30 22 C -7.0403 -1.9066 1.0735 0
M  V30 23 O 5.8167 -1.2561 3.1382 0
M  V30 24 O 7.8748 -1.8517 2.313 0 CHG=-1
M  V30 25 C -6.3446 -2.0834 2.4219 0
M  V30 26 H 1.3098 1.2344 -2.5752 0
M  V30 27 H 0.8002 4.2704 -0.5719 0
M  V30 28 H 1.0879 3.218 0.8852 0
M  V30 29 H 0.0683 0.4487 0.1173 0
M  V30 30 H 2.4765 -0.0455 0.0014 0
M  V30 31 H 1.7481 -0.9922 -1.3238 0
M  V30 32 H -1.0735 2.4649 0.4451 0
M  V30 33 H -0.8363 0.3775 -2.8299 0
M  V30 34 H 3.4561 -0.1252 -2.9848 0
M  V30 35 H -0.6111 3.091 -2.32 0
M  V30 36 H -2.6835 -0.8578 -2.1247 0
M  V30 37 H 5.6264 0.0794 -2.0984 0
M  V30 38 H -1.5876 -1.0811 0.6074 0
M  V30 39 H 4.7163 -0.7196 0.5917 0
M  V30 40 H 4.5658 1.0833 0.485 0
M  V30 41 H -3.337 1.1313 0.1738 0
M  V30 42 H -3.7154 -1.8861 1.329 0
M  V30 43 H -3.3667 -2.5558 -0.2907 0
M  V30 44 H 7.1444 -0.5094 -0.1383 0
M  V30 45 H 6.9489 1.2739 -0.1601 0
M  V30 46 H -4.8834 -0.8161 -1.3259 0
M  V30 47 H -5.2654 -0.1634 0.2938 0
M  V30 48 H 6.2555 1.1331 2.3371 0
M  V30 49 H 7.9679 0.7872 1.9388 0
M  V30 50 H -6.728 -2.1 -1.0437 0
M  V30 51 H -5.688 -3.1753 -0.0781 0
M  V30 52 H -7.4829 -0.8877 1.015 0
M  V30 53 H -7.8755 -2.6385 1.0144 0
M  V30 54 H -7.101 -2.0533 3.2333 0
M  V30 55 H -5.621 -1.2599 2.5973 0
M  V30 56 H -5.8203 -3.0605 2.4656 0
M  V30 END ATOM
M  V30 BEGIN BOND
M  V30 1 2 1 2
M  V30 2 1 2 3
M  V30 3 1 2 4
M  V30 4 1 3 5
M  V30 5 1 3 6
M  V30 6 1 4 7
M  V30 7 1 5 8
M  V30 8 1 6 9
M  V30 9 1 7 10
M  V30 10 2 8 11
M  V30 11 2 9 12
M  V30 12 1 11 13
M  V30 13 1 12 14
M  V30 14 1 13 15
M  V30 15 1 13 16
M  V30 16 1 14 17
M  V30 17 1 16 18
M  V30 18 1 17 19
M  V30 19 1 18 20
M  V30 20 1 19 21
M  V30 21 1 20 22
M  V30 22 2 21 23
M  V30 23 1 21 24
M  V30 24 1 22 25
M  V30 25 1 5 7
M  V30 26 1 3 26
M  V30 27 1 4 27
M  V30 28 1 4 28
M  V30 29 1 5 29
M  V30 30 1 6 30
M  V30 31 1 6 31
M  V30 32 1 7 32
M  V30 33 1 8 33
M  V30 34 1 9 34
M  V30 35 1 10 35
M  V30 36 1 11 36
M  V30 37 1 12 37
M  V30 38 1 13 38
M  V30 39 1 14 39
M  V30 40 1 14 40
M  V30 41 1 15 41
M  V30 42 1 16 42
M  V30 43 1 16 43
M  V30 44 1 17 44
M  V30 45 1 17 45
M  V30 46 1 18 46
M  V30 47 1 18 47
M  V30 48 1 19 48
M  V30 49 1 19 49
M  V30 50 1 20 50
M  V30 51 1 20 51
M  V30 52 1 22 52
M  V30 53 1 22 53
M  V30 54 1 25 54
M  V30 55 1 25 55
M  V30 56 1 25 56
M  V30 END BOND
M  V30 BEGIN COLLECTION
M  V30 MDLV30/STEABS ATOMS=(4 3 5 7 13)
M  V30 END COLLECTION
M  V30 END CTAB
M  END
>  <Structure No>
7900

>  <LogS>
-2.47

>  <MMFF94 Energy>
2.4569

$$$$
Compound 7901
Actelion Java MolfileCreator 2.0

  0  0  0  0  0  0              0 V3000
M  V30 BEGIN CTAB
M  V30 COUNTS 43 46 0 0 0
M  V30 BEGIN ATOM
M  V30 1 O 4.742 1.9269 -1.4449 0
M  V30 2 C 3.9961 1.7955 -0.4383 0
M  V30 3 N 4.5658 1.8677 0.8692 0
M  V30 4 C 2.5409 1.6437 -0.6318 0
M  V30 5 N 1.7089 0.8258 0.0569 0
M  V30 6 C 1.8082 2.3565 -1.5483 0
M  V30 7 C 0.4703 1.1232 -0.4195 0
M  V30 8 C 2.0985 -0.0663 1.1616 0
M  V30 9 N 0.5113 2.0349 -1.4202 0
M  V30 10 C -0.8112 0.4081 -0.0253 0
M  V30 11 C 1.3666 -1.4288 1.2507 0
M  V30 12 C -0.5921 -1.0751 -0.4379 0
M  V30 13 C -2.0194 1.1046 -0.7511 0
M  V30 14 C -1.0995 0.6271 1.492 0
M  V30 15 C 0.4907 -1.8567 0.0891 0
M  V30 16 C -1.3262 -1.6429 -1.5169 0
M  V30 17 C -3.3977 0.5988 -0.2673 0
M  V30 18 C -2.4651 0.0615 1.9008 0
M  V30 19 C 0.7135 -3.1603 -0.4043 0
M  V30 20 C -1.0766 -2.9308 -1.9828 0
M  V30 21 N -3.545 0.7524 1.1852 0 CHG=1
M  V30 22 C -0.0638 -3.6902 -1.4244 0
M  V30 23 H 3.961 1.9421 1.7164 0
M  V30 24 H 5.6009 1.9364 0.9866 0
M  V30 25 H 2.1881 3.086 -2.2513 0
M  V30 26 H 1.9784 0.4786 2.122 0
M  V30 27 H 3.1815 -0.2961 1.0711 0
M  V30 28 H 2.1633 -2.189 1.4131 0
M  V30 29 H 0.7865 -1.5194 2.1899 0
M  V30 30 H -1.9433 1.0283 -1.8561 0
M  V30 31 H -1.9887 2.198 -0.5398 0
M  V30 32 H -0.3445 0.2317 2.1744 0
M  V30 33 H -1.1021 1.7202 1.7046 0
M  V30 34 H -2.092 -1.1089 -2.05 0
M  V30 35 H -4.1898 1.1893 -0.7782 0
M  V30 36 H -3.5657 -0.4624 -0.5418 0
M  V30 37 H -2.6017 0.2057 2.9954 0
M  V30 38 H -2.5027 -1.0327 1.7003 0
M  V30 39 H 1.4988 -3.7839 0.0049 0
M  V30 40 H -1.6646 -3.3352 -2.7971 0
M  V30 41 H -3.5477 1.7691 1.4367 0
M  V30 42 H -4.4614 0.3398 1.4778 0
M  V30 43 H 0.128 -4.6908 -1.7899 0
M  V30 END ATOM
M  V30 BEGIN BOND
M  V30 1 2 1 2
M  V30 2 1 2 3
M  V30 3 1 2 4
M  V30 4 1 4 5
M  V30 5 2 4 6
M  V30 6 1 5 7
M  V30 7 1 5 8
M  V30 8 1 6 9
M  V30 9 1 7 10
M  V30 10 1 8 11
M  V30 11 1 10 12
M  V30 12 1 10 13
M  V30 13 1 10 14
M  V30 14 1 11 15
M  V30 15 1 12 16
M  V30 16 1 13 17
M  V30 17 1 14 18
M  V30 18 1 15 19
M  V30 19 2 16 20
M  V30 20 1 17 21
M  V30 21 2 19 22
M  V30 22 2 7 9
M  V30 23 2 12 15
M  V30 24 1 18 21
M  V30 25 1 20 22
M  V30 26 1 3 23
M  V30 27 1 3 24
M  V30 28 1 6 25
M  V30 29 1 8 26
M  V30 30 1 8 27
M  V30 31 1 11 28
M  V30 32 1 11 29
M  V30 33 1 13 30
M  V30 34 1 13 31
M  V30 35 1 14 32
M  V30 36 1 14 33
M  V30 37 1 16 34
M  V30 38 1 17 35
M  V30 39 1 17 36
M  V30 40 1 18 37
M  V30 41 1 18 38
M  V30 42 1 19 39
M  V30 43 1 20 40
M  V30 44 1 21 41
M  V30 45 1 21 42
M  V30 46 1 22 43
M  V30 END BOND
M  V30 END CTAB
M  END
>  <Structure No>
7901

>  <LogS>
-2.43

>  <MMFF94 Energy>
-16.789

$$$$
Compound 7902
Actelion Java MolfileCreator 2.0

  0  0  0  0  0  0              0 V3000
M  V30 BEGIN CTAB
M  V30 COUNTS 44 47 0 0 0
M  V30 BEGIN ATOM
M  V30 1 O 4.3239 0.0 0.9596 0
M  V30 2 C 3.5706 -1.1898 1.1078 0
M  V30 3 C 4.6473 0.1908 -0.4017 0
M  V30 4 C 2.343 -1.2343 0.1675 0
M  V30 5 C 3.3781 0.441 -1.2433 0
M  V30 6 N 2.1482 0.0645 -0.5087 0 CHG=1
M  V30 7 C 0.9877 0.0369 -1.4371 0
M  V30 8 C -0.3582 0.0935 -0.6991 0
M  V30 9 C -0.8387 1.343 -0.2019 0
M  V30 10 C -1.1343 -1.0855 -0.4782 0
M  V30 11 C -2.1214 1.4236 0.412 0
M  V30 12 C -0.0668 2.5315 -0.3005 0
M  V30 13 C -2.4194 -0.9881 0.1327 0
M  V30 14 C -0.6655 -2.3754 -0.8435 0
M  V30 15 C -2.9565 0.2804 0.4672 0
M  V30 16 C -2.5383 2.6577 0.9703 0
M  V30 17 C -0.5221 3.7372 0.2255 0
M  V30 18 C -3.1399 -2.1764 0.4108 0
M  V30 19 C -1.4153 -3.5201 -0.5882 0
M  V30 20 C -4.4174 0.4151 0.8714 0
M  V30 21 C -1.7472 3.7974 0.8706 0
M  V30 22 C -2.6428 -3.4224 0.0463 0
M  V30 23 H 4.2197 -2.0788 0.9422 0
M  V30 24 H 3.2201 -1.2416 2.1607 0
M  V30 25 H 5.212 -0.6846 -0.7977 0
M  V30 26 H 5.322 1.0691 -0.4852 0
M  V30 27 H 2.5001 -2.0394 -0.5852 0
M  V30 28 H 1.4457 -1.4932 0.771 0
M  V30 29 H 3.3303 1.5204 -1.5136 0
M  V30 30 H 3.4632 -0.137 -2.192 0
M  V30 31 H 1.9801 0.7874 0.2305 0
M  V30 32 H 1.0303 0.8962 -2.1413 0
M  V30 33 H 1.0653 -0.8109 -2.1441 0
M  V30 34 H 0.9061 2.5588 -0.7646 0
M  V30 35 H 0.2913 -2.5456 -1.3026 0
M  V30 36 H -3.4623 2.7565 1.5216 0
M  V30 37 H 0.0895 4.6272 0.1474 0
M  V30 38 H -4.0791 -2.1682 0.945 0
M  V30 39 H -1.03 -4.4928 -0.8667 0
M  V30 40 H -4.5208 0.2959 1.9701 0
M  V30 41 H -4.8439 1.3878 0.5536 0
M  V30 42 H -5.0575 -0.3232 0.3476 0
M  V30 43 H -2.0851 4.7313 1.3017 0
M  V30 44 H -3.2096 -4.318 0.2668 0
M  V30 END ATOM
M  V30 BEGIN BOND
M  V30 1 1 1 2
M  V30 2 1 1 3
M  V30 3 1 2 4
M  V30 4 1 3 5
M  V30 5 1 4 6
M  V30 6 1 6 7
M  V30 7 1 7 8
M  V30 8 1 8 9
M  V30 9 2 8 10
M  V30 10 1 9 11
M  V30 11 2 9 12
M  V30 12 1 10 13
M  V30 13 1 10 14
M  V30 14 1 11 15
M  V30 15 2 11 16
M  V30 16 1 12 17
M  V30 17 1 13 18
M  V30 18 2 14 19
M  V30 19 1 15 20
M  V30 20 1 16 21
M  V30 21 2 18 22
M  V30 22 1 5 6
M  V30 23 2 13 15
M  V30 24 2 17 21
M  V30 25 1 19 22
M  V30 26 1 2 23
M  V30 27 1 2 24
M  V30 28 1 3 25
M  V30 29 1 3 26
M  V30 30 1 4 27
M  V30 31 1 4 28
M  V30 32 1 5 29
M  V30 33 1 5 30
M  V30 34 1 6 31
M  V30 35 1 7 32
M  V30 36 1 7 33
M  V30 37 1 12 34
M  V30 38 1 14 35
M  V30 39 1 16 36
M  V30 40 1 17 37
M  V30 41 1 18 38
M  V30 42 1 19 39
M  V30 43 1 20 40
M  V30 44 1 20 41
M  V30 45 1 20 42
M  V30 46 1 21 43
M  V30 47 1 22 44
M  V30 END BOND
M  V30 END CTAB
M  END
>  <Structure No>
7902

>  <LogS>
-4.4

>  <MMFF94 Energy>
122.16

$$$$
Compound 7903
Actelion Java MolfileCreator 2.0

  0  0  0  0  0  0              0 V3000
M  V30 BEGIN CTAB
M  V30 COUNTS 48 54 0 0 0
M  V30 BEGIN ATOM
M  V30 1 O -2.1497 3.5572 -0.4958 0
M  V30 2 C -1.2708 2.7719 -0.0534 0
M  V30 3 N -1.4595 1.3439 -0.0832 0
M  V30 4 C 0.0255 3.3048 0.5587 0
M  V30 5 C -2.5046 0.5053 -0.5559 0
M  V30 6 C -0.5348 0.5194 0.6492 0 CFG=1
M  V30 7 C 1.2086 2.4162 0.0953 0 CFG=2
M  V30 8 C -2.2418 -0.8309 -0.284 0
M  V30 9 C -3.6706 0.898 -1.2169 0
M  V30 10 C -0.8927 -0.9875 0.3828 0 CFG=1
M  V30 11 C 0.8885 0.9286 0.3032 0 CFG=2
M  V30 12 O 2.4462 2.6768 0.7679 0
M  V30 13 C -3.1387 -1.8287 -0.6756 0
M  V30 14 C -4.5833 -0.0954 -1.6054 0
M  V30 15 C 0.1462 -1.7713 -0.4663 0 CFG=2
M  V30 16 C -0.8691 -1.7943 1.6749 0
M  V30 17 C 1.5921 0.153 -0.8381 0 CFG=2
M  V30 18 C 3.5667 2.001 0.1462 0
M  V30 19 C -4.3189 -1.4519 -1.3361 0
M  V30 20 N 1.1707 -2.3545 0.4657 0 CHG=1 CFG=1
M  V30 21 C 0.7478 -0.8921 -1.5289 0
M  V30 22 C 0.6137 -2.1552 1.8273 0
M  V30 23 C 2.7568 -0.4291 -0.1476 0
M  V30 24 C 3.6618 0.4591 0.3732 0
M  V30 25 O 1.1976 -3.6974 0.2469 0 CHG=-1
M  V30 26 C 2.6044 -1.8716 0.3377 0
M  V30 27 H -0.0558 3.278 1.6664 0
M  V30 28 H 0.1973 4.3567 0.2429 0
M  V30 29 H -0.7224 0.7541 1.7262 0
M  V30 30 H 1.3136 2.6803 -0.9829 0
M  V30 31 H -3.8755 1.9373 -1.431 0
M  V30 32 H 1.3415 0.7063 1.3039 0
M  V30 33 H -2.9282 -2.8722 -0.4818 0
M  V30 34 H -5.4946 0.1831 -2.1187 0
M  V30 35 H -0.3969 -2.5888 -0.999 0
M  V30 36 H -1.2568 -1.2434 2.559 0
M  V30 37 H -1.4604 -2.729 1.5563 0
M  V30 38 H 1.9654 0.7861 -1.6732 0
M  V30 39 H 3.6185 2.2327 -0.9401 0
M  V30 40 H 4.4889 2.4445 0.5756 0
M  V30 41 H -5.0269 -2.2096 -1.6455 0
M  V30 42 H -0.05 -0.4048 -2.1322 0
M  V30 43 H 1.372 -1.5008 -2.2208 0
M  V30 44 H 0.7252 -3.0624 2.4643 0
M  V30 45 H 1.1279 -1.3231 2.3565 0
M  V30 46 H 4.4579 0.0853 1.01 0
M  V30 47 H 3.1518 -2.503 -0.3972 0
M  V30 48 H 3.1395 -2.003 1.3052 0
M  V30 END ATOM
M  V30 BEGIN BOND
M  V30 1 2 1 2
M  V30 2 1 2 3
M  V30 3 1 2 4
M  V30 4 1 3 5
M  V30 5 1 3 6
M  V30 6 1 4 7
M  V30 7 2 5 8
M  V30 8 1 5 9
M  V30 9 1 6 10
M  V30 10 1 6 11
M  V30 11 1 7 12
M  V30 12 1 8 13
M  V30 13 2 9 14
M  V30 14 1 10 15
M  V30 15 1 10 16
M  V30 16 1 11 17
M  V30 17 1 12 18
M  V30 18 2 13 19
M  V30 19 1 15 20
M  V30 20 1 15 21
M  V30 21 1 16 22
M  V30 22 1 17 23
M  V30 23 1 18 24
M  V30 24 1 20 25
M  V30 25 1 20 26
M  V30 26 1 7 11
M  V30 27 1 8 10
M  V30 28 1 14 19
M  V30 29 1 17 21
M  V30 30 1 20 22
M  V30 31 2 23 24
M  V30 32 1 23 26
M  V30 33 1 4 27
M  V30 34 1 4 28
M  V30 35 1 6 29
M  V30 36 1 7 30
M  V30 37 1 9 31
M  V30 38 1 11 32
M  V30 39 1 13 33
M  V30 40 1 14 34
M  V30 41 1 15 35
M  V30 42 1 16 36
M  V30 43 1 16 37
M  V30 44 1 17 38
M  V30 45 1 18 39
M  V30 46 1 18 40
M  V30 47 1 19 41
M  V30 48 1 21 42
M  V30 49 1 21 43
M  V30 50 1 22 44
M  V30 51 1 22 45
M  V30 52 1 24 46
M  V30 53 1 26 47
M  V30 54 1 26 48
M  V30 END BOND
M  V30 BEGIN COLLECTION
M  V30 MDLV30/STEABS ATOMS=(7 6 7 10 11 15 17 20)
M  V30 END COLLECTION
M  V30 END CTAB
M  END
>  <Structure No>
7903

>  <LogS>
-1.28

>  <MMFF94 Energy>
98.092

$$$$
Compound 7904
Actelion Java MolfileCreator 2.0

  0  0  0  0  0  0              0 V3000
M  V30 BEGIN CTAB
M  V30 COUNTS 23 25 0 0 0
M  V30 BEGIN ATOM
M  V30 1 N 3.2958 -1.2048 1.1244 0
M  V30 2 C 2.1866 -0.6154 0.6167 0
M  V30 3 C 4.5146 -0.6941 0.7705 0
M  V30 4 N 0.9122 -0.9693 0.8451 0
M  V30 5 C 2.2518 0.4451 -0.2158 0
M  V30 6 N 4.5991 0.3838 -0.075 0
M  V30 7 C 0.2147 -0.0611 0.1026 0
M  V30 8 N 1.0156 0.8208 -0.5603 0
M  V30 9 C 3.4784 0.9755 -0.5849 0
M  V30 10 C -1.2697 -0.0547 0.0391 0
M  V30 11 C -2.0057 -1.0122 0.7642 0
M  V30 12 C -1.9699 0.8925 -0.7344 0
M  V30 13 C -3.403 -1.021 0.7161 0
M  V30 14 C -3.3679 0.8782 -0.7781 0
M  V30 15 C -4.0836 -0.0768 -0.0541 0
M  V30 16 H 5.4181 -1.143 1.1596 0
M  V30 17 H 0.7556 1.6095 -1.1916 0
M  V30 18 H 3.5521 1.8248 -1.2509 0
M  V30 19 H -1.5031 -1.7558 1.3696 0
M  V30 20 H -1.4515 1.6466 -1.3076 0
M  V30 21 H -3.9585 -1.7614 1.2773 0
M  V30 22 H -3.8971 1.6099 -1.3751 0
M  V30 23 H -5.1654 -0.0851 -0.0901 0
M  V30 END ATOM
M  V30 BEGIN BOND
M  V30 1 2 1 2
M  V30 2 1 1 3
M  V30 3 1 2 4
M  V30 4 1 2 5
M  V30 5 2 3 6
M  V30 6 2 4 7
M  V30 7 1 5 8
M  V30 8 2 5 9
M  V30 9 1 7 10
M  V30 10 2 10 11
M  V30 11 1 10 12
M  V30 12 1 11 13
M  V30 13 2 12 14
M  V30 14 2 13 15
M  V30 15 1 6 9
M  V30 16 1 7 8
M  V30 17 1 14 15
M  V30 18 1 3 16
M  V30 19 1 8 17
M  V30 20 1 9 18
M  V30 21 1 11 19
M  V30 22 1 12 20
M  V30 23 1 13 21
M  V30 24 1 14 22
M  V30 25 1 15 23
M  V30 END BOND
M  V30 END CTAB
M  END
>  <Structure No>
7904

>  <LogS>
-3.07

>  <MMFF94 Energy>
-7.9053

$$$$
Compound 7905
Actelion Java MolfileCreator 2.0

  0  0  0  0  0  0              0 V3000
M  V30 BEGIN CTAB
M  V30 COUNTS 24 26 0 0 0
M  V30 BEGIN ATOM
M  V30 1 Cl -5.7808 -0.4121 1.4016 0
M  V30 2 C -4.1955 0.1027 0.857 0
M  V30 3 C -3.0915 -0.761 0.9988 0
M  V30 4 C -4.0304 1.3836 0.2773 0
M  V30 5 C -1.8549 -0.3034 0.5501 0
M  V30 6 C -2.7627 1.809 -0.164 0
M  V30 7 N -0.6749 -0.9341 0.5771 0
M  V30 8 C -1.6945 0.9292 -0.008 0
M  V30 9 C 0.1823 -0.0408 0.0204 0
M  V30 10 N -0.4099 1.1242 -0.3546 0
M  V30 11 C 1.6175 -0.2927 -0.1663 0
M  V30 12 O 2.4435 0.5747 -0.7055 0
M  V30 13 C 2.3006 -1.445 0.1847 0
M  V30 14 C 3.6409 0.0378 -0.7221 0
M  V30 15 C 3.6145 -1.23 -0.1763 0
M  V30 16 N 4.7997 0.6942 -1.2396 0 CHG=1
M  V30 17 O 4.7067 1.8456 -1.7112 0
M  V30 18 O 6.0228 0.0653 -1.2224 0 CHG=-1
M  V30 19 H -3.1976 -1.7439 1.4395 0
M  V30 20 H -4.8816 2.0437 0.1705 0
M  V30 21 H -2.6243 2.786 -0.6087 0
M  V30 22 H -0.4716 -1.8907 0.9431 0
M  V30 23 H 1.8973 -2.3358 0.6472 0
M  V30 24 H 4.4444 -1.9135 -0.0551 0
M  V30 END ATOM
M  V30 BEGIN BOND
M  V30 1 1 1 2
M  V30 2 2 2 3
M  V30 3 1 2 4
M  V30 4 1 3 5
M  V30 5 2 4 6
M  V30 6 1 5 7
M  V30 7 2 5 8
M  V30 8 1 7 9
M  V30 9 1 8 10
M  V30 10 1 9 11
M  V30 11 1 11 12
M  V30 12 2 11 13
M  V30 13 1 12 14
M  V30 14 1 13 15
M  V30 15 1 14 16
M  V30 16 2 16 17
M  V30 17 1 16 18
M  V30 18 1 6 8
M  V30 19 2 9 10
M  V30 20 2 14 15
M  V30 21 1 3 19
M  V30 22 1 4 20
M  V30 23 1 6 21
M  V30 24 1 7 22
M  V30 25 1 13 23
M  V30 26 1 15 24
M  V30 END BOND
M  V30 END CTAB
M  END
>  <Structure No>
7905

>  <LogS>
-4.82

>  <MMFF94 Energy>
47.239

$$$$
Compound 7906
Actelion Java MolfileCreator 2.0

  0  0  0  0  0  0              0 V3000
M  V30 BEGIN CTAB
M  V30 COUNTS 28 29 0 0 0
M  V30 BEGIN ATOM
M  V30 1 S 0.3299 -1.981 1.5681 0
M  V30 2 O 1.5571 -2.8436 1.6588 0
M  V30 3 O -0.5178 -2.2076 2.7883 0
M  V30 4 C 0.8124 -0.288 1.4943 0
M  V30 5 C -0.5848 -2.4125 0.1307 0
M  V30 6 C 2.0048 0.077 0.8523 0
M  V30 7 C -0.0261 0.7083 2.016 0
M  V30 8 N -1.0592 -3.6302 -0.1594 0 CHG=1
M  V30 9 C -0.9643 -1.6089 -0.9181 0
M  V30 10 C 2.3586 1.4253 0.7418 0
M  V30 11 C 0.3303 2.0559 1.9038 0
M  V30 12 O -1.6782 -3.5589 -1.3005 0
M  V30 13 O -0.9271 -4.7705 0.5972 0 CHG=-1
M  V30 14 O -0.6891 -0.2479 -1.0527 0
M  V30 15 N -1.6535 -2.3563 -1.8088 0
M  V30 16 C 1.522 2.4144 1.2673 0
M  V30 17 C -1.1141 0.5138 -2.1746 0
M  V30 18 C -0.6517 1.9527 -2.0088 0
M  V30 19 H 2.6522 -0.6788 0.4266 0
M  V30 20 H -0.9601 0.4443 2.4955 0
M  V30 21 H 3.2777 1.7039 0.2429 0
M  V30 22 H -0.3204 2.8226 2.3039 0
M  V30 23 H 1.7946 3.4578 1.1771 0
M  V30 24 H -0.6757 0.0902 -3.104 0
M  V30 25 H -2.223 0.4886 -2.2475 0
M  V30 26 H -1.0879 2.3869 -1.0841 0
M  V30 27 H -0.9793 2.5557 -2.8815 0
M  V30 28 H 0.4561 1.9887 -1.9386 0
M  V30 END ATOM
M  V30 BEGIN BOND
M  V30 1 2 1 2
M  V30 2 2 1 3
M  V30 3 1 1 4
M  V30 4 1 1 5
M  V30 5 2 4 6
M  V30 6 1 4 7
M  V30 7 2 5 8
M  V30 8 1 5 9
M  V30 9 1 6 10
M  V30 10 2 7 11
M  V30 11 1 8 12
M  V30 12 1 8 13
M  V30 13 1 9 14
M  V30 14 2 9 15
M  V30 15 2 10 16
M  V30 16 1 14 17
M  V30 17 1 17 18
M  V30 18 1 11 16
M  V30 19 1 12 15
M  V30 20 1 6 19
M  V30 21 1 7 20
M  V30 22 1 10 21
M  V30 23 1 11 22
M  V30 24 1 16 23
M  V30 25 1 17 24
M  V30 26 1 17 25
M  V30 27 1 18 26
M  V30 28 1 18 27
M  V30 29 1 18 28
M  V30 END BOND
M  V30 END CTAB
M  END
>  <Structure No>
7906

>  <LogS>
-4.24

>  <MMFF94 Energy>
-58.574

$$$$
Compound 7907
Actelion Java MolfileCreator 2.0

  0  0  0  0  0  0              0 V3000
M  V30 BEGIN CTAB
M  V30 COUNTS 26 27 0 0 0
M  V30 BEGIN ATOM
M  V30 1 O -3.2138 1.3649 -1.6862 0
M  V30 2 C -2.6217 0.6388 -0.9025 0
M  V30 3 C -3.3937 -0.0937 0.1635 0
M  V30 4 C -1.1457 0.3971 -1.0778 0
M  V30 5 C -2.5495 -0.3254 1.3895 0
M  V30 6 C -0.4338 0.4222 0.2875 0
M  V30 7 O -3.0827 -0.3906 2.4867 0
M  V30 8 C -1.0721 -0.5866 1.2603 0
M  V30 9 C 1.0554 0.1717 0.1352 0
M  V30 10 C 1.9782 1.161 0.5224 0
M  V30 11 C 1.5405 -1.0422 -0.3907 0
M  V30 12 C 3.3521 0.9408 0.3865 0
M  V30 13 C 2.9154 -1.2568 -0.5242 0
M  V30 14 C 3.8204 -0.2664 -0.136 0
M  V30 15 H -3.7314 -1.0724 -0.2375 0
M  V30 16 H -4.2909 0.5013 0.4422 0
M  V30 17 H -1.0108 -0.5878 -1.5736 0
M  V30 18 H -0.7099 1.1809 -1.7361 0
M  V30 19 H -0.5862 1.4384 0.7198 0
M  V30 20 H -0.9331 -1.6265 0.8955 0
M  V30 21 H -0.5842 -0.4987 2.2563 0
M  V30 22 H 1.6368 2.1043 0.9301 0
M  V30 23 H 0.8581 -1.8237 -0.698 0
M  V30 24 H 4.0546 1.7076 0.6871 0
M  V30 25 H 3.2796 -2.192 -0.9292 0
M  V30 26 H 4.8844 -0.4346 -0.2403 0
M  V30 END ATOM
M  V30 BEGIN BOND
M  V30 1 2 1 2
M  V30 2 1 2 3
M  V30 3 1 2 4
M  V30 4 1 3 5
M  V30 5 1 4 6
M  V30 6 2 5 7
M  V30 7 1 5 8
M  V30 8 1 6 9
M  V30 9 2 9 10
M  V30 10 1 9 11
M  V30 11 1 10 12
M  V30 12 2 11 13
M  V30 13 2 12 14
M  V30 14 1 6 8
M  V30 15 1 13 14
M  V30 16 1 3 15
M  V30 17 1 3 16
M  V30 18 1 4 17
M  V30 19 1 4 18
M  V30 20 1 6 19
M  V30 21 1 8 20
M  V30 22 1 8 21
M  V30 23 1 10 22
M  V30 24 1 11 23
M  V30 25 1 12 24
M  V30 26 1 13 25
M  V30 27 1 14 26
M  V30 END BOND
M  V30 END CTAB
M  END
>  <Structure No>
7907

>  <LogS>
-2.51

>  <MMFF94 Energy>
14.22

$$$$
Compound 7908
Actelion Java MolfileCreator 2.0

  0  0  0  0  0  0              0 V3000
M  V30 BEGIN CTAB
M  V30 COUNTS 20 20 0 0 0
M  V30 BEGIN ATOM
M  V30 1 Cl 3.1897 1.5508 1.206 0
M  V30 2 N 3.474 0.7382 -0.308 0
M  V30 3 Cl 5.1688 0.3406 -0.3532 0
M  V30 4 S 2.5841 -0.7499 -0.2868 0
M  V30 5 O 2.8799 -1.5327 -1.5356 0
M  V30 6 O 2.987 -1.5755 0.9046 0
M  V30 7 C 0.858 -0.4037 -0.2232 0
M  V30 8 C 0.1509 -0.5198 0.9816 0
M  V30 9 C 0.1896 0.0206 -1.379 0
M  V30 10 C -1.2158 -0.2287 1.0263 0
M  V30 11 C -1.1771 0.3117 -1.3354 0
M  V30 12 C -1.8921 0.173 -0.1358 0
M  V30 13 C -3.3492 0.5243 -0.0792 0
M  V30 14 H 0.6561 -0.8274 1.8881 0
M  V30 15 H 0.7278 0.1315 -2.3117 0
M  V30 16 H -1.7461 -0.315 1.9669 0
M  V30 17 H -1.6771 0.6462 -2.236 0
M  V30 18 H -3.8678 -0.0788 0.6961 0
M  V30 19 H -3.46 1.6014 0.1656 0
M  V30 20 H -3.8391 0.3224 -1.0555 0
M  V30 END ATOM
M  V30 BEGIN BOND
M  V30 1 1 1 2
M  V30 2 1 2 3
M  V30 3 1 2 4
M  V30 4 2 4 5
M  V30 5 2 4 6
M  V30 6 1 4 7
M  V30 7 2 7 8
M  V30 8 1 7 9
M  V30 9 1 8 10
M  V30 10 2 9 11
M  V30 11 2 10 12
M  V30 12 1 12 13
M  V30 13 1 11 12
M  V30 14 1 8 14
M  V30 15 1 9 15
M  V30 16 1 10 16
M  V30 17 1 11 17
M  V30 18 1 13 18
M  V30 19 1 13 19
M  V30 20 1 13 20
M  V30 END BOND
M  V30 END CTAB
M  END
>  <Structure No>
7908

>  <LogS>
-3.51

>  <MMFF94 Energy>
44.161

$$$$
Compound 7909
Actelion Java MolfileCreator 2.0

  0  0  0  0  0  0              0 V3000
M  V30 BEGIN CTAB
M  V30 COUNTS 18 18 0 0 0
M  V30 BEGIN ATOM
M  V30 1 Cl -0.2606 -0.9559 -2.5215 0
M  V30 2 C -0.9102 -0.1632 -1.0942 0
M  V30 3 C -0.0516 0.38 -0.1246 0
M  V30 4 C -2.297 -0.0741 -0.9292 0
M  V30 5 O 1.3315 0.2915 -0.2879 0
M  V30 6 C -0.5909 1.0237 1.0018 0
M  V30 7 C -2.8313 0.5595 0.1973 0
M  V30 8 C 2.0729 -0.7893 0.2634 0
M  V30 9 Cl 0.4597 1.7376 2.2158 0
M  V30 10 C -1.9789 1.1092 1.1602 0
M  V30 11 Cl -4.5704 0.6698 0.3998 0
M  V30 12 C 3.5158 -0.6168 -0.0704 0
M  V30 13 O 4.2604 0.0702 0.677 0
M  V30 14 O 4.0301 -1.1676 -1.2371 0 CHG=-1
M  V30 15 H -2.9585 -0.4952 -1.6758 0
M  V30 16 H 1.9436 -0.8146 1.3672 0
M  V30 17 H 1.7077 -1.7502 -0.1588 0
M  V30 18 H -2.3943 1.6044 2.0291 0
M  V30 END ATOM
M  V30 BEGIN BOND
M  V30 1 1 1 2
M  V30 2 2 2 3
M  V30 3 1 2 4
M  V30 4 1 3 5
M  V30 5 1 3 6
M  V30 6 2 4 7
M  V30 7 1 5 8
M  V30 8 1 6 9
M  V30 9 2 6 10
M  V30 10 1 7 11
M  V30 11 1 8 12
M  V30 12 2 12 13
M  V30 13 1 12 14
M  V30 14 1 7 10
M  V30 15 1 4 15
M  V30 16 1 8 16
M  V30 17 1 8 17
M  V30 18 1 10 18
M  V30 END BOND
M  V30 END CTAB
M  END
>  <Structure No>
7909

>  <LogS>
-3.23

>  <MMFF94 Energy>
71.848

$$$$
Compound 7910
Actelion Java MolfileCreator 2.0

  0  0  0  0  0  0              0 V3000
M  V30 BEGIN CTAB
M  V30 COUNTS 23 24 0 0 0
M  V30 BEGIN ATOM
M  V30 1 O -1.2923 -0.7267 2.9905 0
M  V30 2 C -0.7784 -0.8574 1.849 0
M  V30 3 O -1.0579 -1.9045 0.9798 0
M  V30 4 C 0.1727 0.0368 1.2405 0
M  V30 5 C -0.3053 -1.7532 -0.232 0 CFG=2
M  V30 6 C 0.4659 -0.4784 3.0E-4 0
M  V30 7 C 0.7558 1.2102 1.7147 0
M  V30 8 C -1.2348 -1.6822 -1.4556 0
M  V30 9 C 1.3839 0.1567 -0.838 0
M  V30 10 C 1.6769 1.8726 0.8814 0
M  V30 11 C -2.286 -0.5741 -1.3568 0
M  V30 12 C 1.9898 1.3444 -0.3914 0
M  V30 13 C 2.3037 3.0884 1.3291 0
M  V30 14 N 2.8077 4.0661 1.6891 0
M  V30 15 H 0.4019 -2.6036 -0.3391 0
M  V30 16 H 0.5049 1.5941 2.6962 0
M  V30 17 H -0.626 -1.5252 -2.3721 0
M  V30 18 H -1.7563 -2.6578 -1.5621 0
M  V30 19 H 1.6231 -0.2536 -1.8103 0
M  V30 20 H -2.9302 -0.5953 -2.261 0
M  V30 21 H -2.9293 -0.7243 -0.4642 0
M  V30 22 H -1.8005 0.4227 -1.2973 0
M  V30 23 H 2.701 1.8502 -1.0331 0
M  V30 END ATOM
M  V30 BEGIN BOND
M  V30 1 2 1 2
M  V30 2 1 2 3
M  V30 3 1 2 4
M  V30 4 1 3 5
M  V30 5 2 4 6
M  V30 6 1 4 7
M  V30 7 1 5 8
M  V30 8 1 6 9
M  V30 9 2 7 10
M  V30 10 1 8 11
M  V30 11 2 9 12
M  V30 12 1 10 13
M  V30 13 3 13 14
M  V30 14 1 5 6
M  V30 15 1 10 12
M  V30 16 1 5 15
M  V30 17 1 7 16
M  V30 18 1 8 17
M  V30 19 1 8 18
M  V30 20 1 9 19
M  V30 21 1 11 20
M  V30 22 1 11 21
M  V30 23 1 11 22
M  V30 24 1 12 23
M  V30 END BOND
M  V30 BEGIN COLLECTION
M  V30 MDLV30/STEABS ATOMS=(1 5)
M  V30 END COLLECTION
M  V30 END CTAB
M  END
>  <Structure No>
7910

>  <LogS>
-2.31

>  <MMFF94 Energy>
36.202

$$$$
Compound 7911
Actelion Java MolfileCreator 2.0

  0  0  0  0  0  0              0 V3000
M  V30 BEGIN CTAB
M  V30 COUNTS 25 26 0 0 0
M  V30 BEGIN ATOM
M  V30 1 N 0.1591 1.4327 0.6365 0
M  V30 2 C -1.0549 1.3687 0.1777 0
M  V30 3 C 1.2466 0.5417 0.3361 0
M  V30 4 C -1.4476 0.3506 -0.8466 0
M  V30 5 C -2.0532 2.3943 0.6167 0
M  V30 6 C 1.0755 -0.8501 0.0924 0
M  V30 7 C 2.5437 1.0722 0.3859 0
M  V30 8 C -1.3479 -1.018 -0.2431 0
M  V30 9 N -0.2023 -1.5086 0.1248 0
M  V30 10 C 2.2083 -1.6558 -0.091 0
M  V30 11 C 3.6576 0.2584 0.1745 0
M  V30 12 C -2.5682 -1.8753 -0.0958 0
M  V30 13 C 3.49 -1.1042 -0.0636 0
M  V30 14 H -0.7752 0.4235 -1.7284 0
M  V30 15 H -2.4796 0.5501 -1.2076 0
M  V30 16 H -2.9719 1.8891 0.9823 0
M  V30 17 H -1.6435 3.0212 1.4377 0
M  V30 18 H -2.3134 3.0507 -0.2398 0
M  V30 19 H 2.6895 2.1257 0.5903 0
M  V30 20 H 2.0939 -2.7199 -0.2565 0
M  V30 21 H 4.6524 0.6835 0.2076 0
M  V30 22 H -3.4833 -1.3526 -0.4441 0
M  V30 23 H -2.4436 -2.8047 -0.6902 0
M  V30 24 H -2.7043 -2.1446 0.9726 0
M  V30 25 H 4.3548 -1.737 -0.2154 0
M  V30 END ATOM
M  V30 BEGIN BOND
M  V30 1 2 1 2
M  V30 2 1 1 3
M  V30 3 1 2 4
M  V30 4 1 2 5
M  V30 5 2 3 6
M  V30 6 1 3 7
M  V30 7 1 4 8
M  V30 8 1 6 9
M  V30 9 1 6 10
M  V30 10 2 7 11
M  V30 11 1 8 12
M  V30 12 2 10 13
M  V30 13 2 8 9
M  V30 14 1 11 13
M  V30 15 1 4 14
M  V30 16 1 4 15
M  V30 17 1 5 16
M  V30 18 1 5 17
M  V30 19 1 5 18
M  V30 20 1 7 19
M  V30 21 1 10 20
M  V30 22 1 11 21
M  V30 23 1 12 22
M  V30 24 1 12 23
M  V30 25 1 12 24
M  V30 26 1 13 25
M  V30 END BOND
M  V30 END CTAB
M  END
>  <Structure No>
7911

>  <LogS>
-1.37

>  <MMFF94 Energy>
48.815

$$$$
Compound 7912
Actelion Java MolfileCreator 2.0

  0  0  0  0  0  0              0 V3000
M  V30 BEGIN CTAB
M  V30 COUNTS 20 21 0 0 0
M  V30 BEGIN ATOM
M  V30 1 S 2.4961 -0.9147 0.6651 0
M  V30 2 O 2.9246 -0.7159 2.0913 0
M  V30 3 O 2.9233 -2.2441 0.1114 0
M  V30 4 C 0.8075 -0.602 0.425 0
M  V30 5 C 2.9527 0.4244 -0.3683 0
M  V30 6 C 0.6237 0.4811 -0.4109 0
M  V30 7 C -0.2708 -1.2921 0.9734 0
M  V30 8 C 1.892 1.0649 -0.8616 0
M  V30 9 C -0.6601 0.9192 -0.74 0
M  V30 10 C -1.5695 -0.8671 0.654 0
M  V30 11 C -1.7718 0.2294 -0.2144 0
M  V30 12 C -3.1622 0.7016 -0.5185 0
M  V30 13 H 3.9752 0.704 -0.584 0
M  V30 14 H -0.1112 -2.1337 1.6347 0
M  V30 15 H 1.9669 1.9202 -1.5205 0
M  V30 16 H -0.793 1.7761 -1.3891 0
M  V30 17 H -2.4165 -1.3895 1.0813 0
M  V30 18 H -3.2052 1.1715 -1.5242 0
M  V30 19 H -3.8759 -0.1494 -0.5063 0
M  V30 20 H -3.4738 1.4466 0.243 0
M  V30 END ATOM
M  V30 BEGIN BOND
M  V30 1 2 1 2
M  V30 2 2 1 3
M  V30 3 1 1 4
M  V30 4 1 1 5
M  V30 5 2 4 6
M  V30 6 1 4 7
M  V30 7 2 5 8
M  V30 8 1 6 9
M  V30 9 2 7 10
M  V30 10 2 9 11
M  V30 11 1 11 12
M  V30 12 1 6 8
M  V30 13 1 10 11
M  V30 14 1 5 13
M  V30 15 1 7 14
M  V30 16 1 8 15
M  V30 17 1 9 16
M  V30 18 1 10 17
M  V30 19 1 12 18
M  V30 20 1 12 19
M  V30 21 1 12 20
M  V30 END BOND
M  V30 END CTAB
M  END
>  <Structure No>
7912

>  <LogS>
-2.65

>  <MMFF94 Energy>
37.552

$$$$
Compound 7913
Actelion Java MolfileCreator 2.0

  0  0  0  0  0  0              0 V3000
M  V30 BEGIN CTAB
M  V30 COUNTS 29 29 0 0 0
M  V30 BEGIN ATOM
M  V30 1 O -0.157 -0.9423 -1.5709 0
M  V30 2 C 0.2761 -0.7184 -0.4065 0
M  V30 3 O -0.5853 -0.8132 0.6941 0
M  V30 4 C 1.6971 -0.3623 -0.1996 0
M  V30 5 C -1.9793 -1.0934 0.5812 0
M  V30 6 C 2.1843 -0.1104 1.095 0
M  V30 7 C 2.5806 -0.2684 -1.2904 0
M  V30 8 C -2.7392 0.1476 0.1047 0
M  V30 9 C 3.5263 0.2272 1.2942 0
M  V30 10 C 3.9222 0.0694 -1.0885 0
M  V30 11 C -4.2456 -0.1239 0.0282 0
M  V30 12 C 4.4014 0.3188 0.204 0
M  V30 13 C -5.0049 1.1113 -0.4469 0
M  V30 14 N 5.7738 0.6644 0.4092 0
M  V30 15 H -2.1432 -1.9462 -0.1138 0
M  V30 16 H -2.3561 -1.3894 1.5836 0
M  V30 17 H 1.5298 -0.1736 1.9554 0
M  V30 18 H 2.2362 -0.4559 -2.2997 0
M  V30 19 H -2.547 0.9829 0.8136 0
M  V30 20 H -2.3674 0.4467 -0.899 0
M  V30 21 H 3.884 0.4179 2.2983 0
M  V30 22 H 4.5881 0.1369 -1.9396 0
M  V30 23 H -4.44 -0.9597 -0.679 0
M  V30 24 H -4.6261 -0.4157 1.0314 0
M  V30 25 H -6.0913 0.8854 -0.492 0
M  V30 26 H -4.8468 1.956 0.2571 0
M  V30 27 H -4.6618 1.4092 -1.4605 0
M  V30 28 H 6.4335 0.7352 -0.3973 0
M  V30 29 H 6.14 0.8522 1.3692 0
M  V30 END ATOM
M  V30 BEGIN BOND
M  V30 1 2 1 2
M  V30 2 1 2 3
M  V30 3 1 2 4
M  V30 4 1 3 5
M  V30 5 2 4 6
M  V30 6 1 4 7
M  V30 7 1 5 8
M  V30 8 1 6 9
M  V30 9 2 7 10
M  V30 10 1 8 11
M  V30 11 2 9 12
M  V30 12 1 11 13
M  V30 13 1 12 14
M  V30 14 1 10 12
M  V30 15 1 5 15
M  V30 16 1 5 16
M  V30 17 1 6 17
M  V30 18 1 7 18
M  V30 19 1 8 19
M  V30 20 1 8 20
M  V30 21 1 9 21
M  V30 22 1 10 22
M  V30 23 1 11 23
M  V30 24 1 11 24
M  V30 25 1 13 25
M  V30 26 1 13 26
M  V30 27 1 13 27
M  V30 28 1 14 28
M  V30 29 1 14 29
M  V30 END BOND
M  V30 END CTAB
M  END
>  <Structure No>
7913

>  <LogS>
-3.06

>  <MMFF94 Energy>
17.751

$$$$
Compound 7914
Actelion Java MolfileCreator 2.0

  0  0  0  0  0  0              0 V3000
M  V30 BEGIN CTAB
M  V30 COUNTS 36 39 0 0 0
M  V30 BEGIN ATOM
M  V30 1 O 3.8862 3.3188 -0.4851 0
M  V30 2 C 3.2873 2.2243 -0.3185 0
M  V30 3 O 1.9638 2.2091 -0.222 0
M  V30 4 C 4.0153 1.0378 -0.2353 0
M  V30 5 C 1.2619 1.0915 -0.0455 0
M  V30 6 C 3.3375 -0.174 -0.0523 0
M  V30 7 C 1.9258 -0.1561 0.0418 0
M  V30 8 C -0.1407 1.1592 0.0549 0
M  V30 9 C 4.1305 -1.4531 0.0332 0
M  V30 10 C 1.1663 -1.327 0.2143 0
M  V30 11 C -0.8912 -0.0276 0.2036 0
M  V30 12 C -0.8439 2.4935 -0.077 0
M  V30 13 C -0.2316 -1.2717 0.2765 0
M  V30 14 N -2.3342 0.0293 0.2786 0
M  V30 15 C -2.2524 2.4678 0.5232 0
M  V30 16 C -1.0122 -2.5449 0.4994 0
M  V30 17 C -3.0384 1.2795 -0.0247 0
M  V30 18 C -3.1007 -1.1631 0.6571 0
M  V30 19 C -2.468 -2.4109 0.0439 0
M  V30 20 H 5.0961 1.0636 -0.3141 0
M  V30 21 H 3.9488 -1.9436 1.0126 0
M  V30 22 H 5.2219 -1.2674 -0.0587 0
M  V30 23 H 3.8295 -2.1377 -0.7874 0
M  V30 24 H 1.6485 -2.2925 0.2963 0
M  V30 25 H -0.2624 3.2878 0.4394 0
M  V30 26 H -0.9068 2.7579 -1.155 0
M  V30 27 H -2.1858 2.3887 1.6308 0
M  V30 28 H -2.7809 3.4127 0.2719 0
M  V30 29 H -0.9855 -2.7944 1.5824 0
M  V30 30 H -0.5425 -3.3836 -0.059 0
M  V30 31 H -4.0538 1.2791 0.4288 0
M  V30 32 H -3.1487 1.3789 -1.1264 0
M  V30 33 H -3.1107 -1.2543 1.765 0
M  V30 34 H -4.1524 -1.0826 0.3047 0
M  V30 35 H -2.5079 -2.3396 -1.0653 0
M  V30 36 H -3.0395 -3.3114 0.3565 0
M  V30 END ATOM
M  V30 BEGIN BOND
M  V30 1 2 1 2
M  V30 2 1 2 3
M  V30 3 1 2 4
M  V30 4 1 3 5
M  V30 5 2 4 6
M  V30 6 2 5 7
M  V30 7 1 5 8
M  V30 8 1 6 9
M  V30 9 1 7 10
M  V30 10 2 8 11
M  V30 11 1 8 12
M  V30 12 2 10 13
M  V30 13 1 11 14
M  V30 14 1 12 15
M  V30 15 1 13 16
M  V30 16 1 14 17
M  V30 17 1 14 18
M  V30 18 1 16 19
M  V30 19 1 6 7
M  V30 20 1 11 13
M  V30 21 1 15 17
M  V30 22 1 18 19
M  V30 23 1 4 20
M  V30 24 1 9 21
M  V30 25 1 9 22
M  V30 26 1 9 23
M  V30 27 1 10 24
M  V30 28 1 12 25
M  V30 29 1 12 26
M  V30 30 1 15 27
M  V30 31 1 15 28
M  V30 32 1 16 29
M  V30 33 1 16 30
M  V30 34 1 17 31
M  V30 35 1 17 32
M  V30 36 1 18 33
M  V30 37 1 18 34
M  V30 38 1 19 35
M  V30 39 1 19 36
M  V30 END BOND
M  V30 END CTAB
M  END
>  <Structure No>
7914

>  <LogS>
-3.89

>  <MMFF94 Energy>
24.175

$$$$
Compound 7915
Actelion Java MolfileCreator 2.0

  0  0  0  0  0  0              0 V3000
M  V30 BEGIN CTAB
M  V30 COUNTS 20 21 0 0 0
M  V30 BEGIN ATOM
M  V30 1 S 0.1662 2.2463 -0.3325 0
M  V30 2 O -0.255 2.8998 -1.6179 0
M  V30 3 O 0.2216 3.2118 0.8171 0
M  V30 4 C -0.7623 0.8278 0.031 0
M  V30 5 C 1.6407 1.3169 -0.502 0
M  V30 6 C 0.0353 -0.3016 0.0196 0
M  V30 7 C -2.1271 0.7576 0.3072 0
M  V30 8 C 1.4399 0.011 -0.2953 0
M  V30 9 C -0.5139 -1.56 0.2884 0
M  V30 10 C -2.6906 -0.4982 0.5785 0
M  V30 11 C 2.5269 -1.0162 -0.3764 0
M  V30 12 C -1.8867 -1.6533 0.5692 0
M  V30 13 H 2.6008 1.7527 -0.7457 0
M  V30 14 H -2.7382 1.6509 0.3123 0
M  V30 15 H 0.1022 -2.4495 0.2817 0
M  V30 16 H -3.7479 -0.5787 0.7958 0
M  V30 17 H 2.6203 -1.5344 0.6007 0
M  V30 18 H 2.2755 -1.7601 -1.1607 0
M  V30 19 H 3.5036 -0.5501 -0.6273 0
M  V30 20 H -2.3287 -2.6186 0.7794 0
M  V30 END ATOM
M  V30 BEGIN BOND
M  V30 1 2 1 2
M  V30 2 2 1 3
M  V30 3 1 1 4
M  V30 4 1 1 5
M  V30 5 2 4 6
M  V30 6 1 4 7
M  V30 7 2 5 8
M  V30 8 1 6 9
M  V30 9 2 7 10
M  V30 10 1 8 11
M  V30 11 2 9 12
M  V30 12 1 6 8
M  V30 13 1 10 12
M  V30 14 1 5 13
M  V30 15 1 7 14
M  V30 16 1 9 15
M  V30 17 1 10 16
M  V30 18 1 11 17
M  V30 19 1 11 18
M  V30 20 1 11 19
M  V30 21 1 12 20
M  V30 END BOND
M  V30 END CTAB
M  END
>  <Structure No>
7915

>  <LogS>
-2.67

>  <MMFF94 Energy>
35.647

$$$$
Compound 7916
Actelion Java MolfileCreator 2.0

  0  0  0  0  0  0              0 V3000
M  V30 BEGIN CTAB
M  V30 COUNTS 25 25 0 0 0
M  V30 BEGIN ATOM
M  V30 1 S -0.4155 -0.6648 0.8311 0
M  V30 2 C -1.9967 0.1557 0.389 0
M  V30 3 C 0.3629 -0.4988 -0.8064 0 CFG=1
M  V30 4 S -1.9596 0.8047 -1.3205 0
M  V30 5 C -3.1354 -0.861 0.5149 0
M  V30 6 C -2.2273 1.3242 1.3503 0
M  V30 7 C -0.7276 -0.404 -1.8612 0
M  V30 8 C 1.2985 0.7222 -0.8323 0
M  V30 9 O 2.3426 0.5834 0.1303 0
M  V30 10 C 3.4463 -0.2581 -0.0448 0
M  V30 11 O 3.598 -0.9102 -1.1131 0
M  V30 12 N 4.4133 -0.3725 0.9951 0
M  V30 13 H 0.9605 -1.414 -1.0024 0
M  V30 14 H -2.9679 -1.716 -0.1733 0
M  V30 15 H -3.1936 -1.2538 1.5528 0
M  V30 16 H -4.1088 -0.3895 0.2595 0
M  V30 17 H -2.2645 0.9639 2.4009 0
M  V30 18 H -3.1847 1.8383 1.1176 0
M  V30 19 H -1.4008 2.0615 1.2608 0
M  V30 20 H -0.3091 -0.1025 -2.8447 0
M  V30 21 H -1.2208 -1.3921 -1.9814 0
M  V30 22 H 1.7368 0.8558 -1.8456 0
M  V30 23 H 0.7243 1.6416 -0.5909 0
M  V30 24 H 4.2955 0.1651 1.8822 0
M  V30 25 H 5.2442 -0.994 0.8803 0
M  V30 END ATOM
M  V30 BEGIN BOND
M  V30 1 1 1 2
M  V30 2 1 1 3
M  V30 3 1 2 4
M  V30 4 1 2 5
M  V30 5 1 2 6
M  V30 6 1 3 7
M  V30 7 1 3 8
M  V30 8 1 8 9
M  V30 9 1 9 10
M  V30 10 2 10 11
M  V30 11 1 10 12
M  V30 12 1 4 7
M  V30 13 1 3 13
M  V30 14 1 5 14
M  V30 15 1 5 15
M  V30 16 1 5 16
M  V30 17 1 6 17
M  V30 18 1 6 18
M  V30 19 1 6 19
M  V30 20 1 7 20
M  V30 21 1 7 21
M  V30 22 1 8 22
M  V30 23 1 8 23
M  V30 24 1 12 24
M  V30 25 1 12 25
M  V30 END BOND
M  V30 BEGIN COLLECTION
M  V30 MDLV30/STEABS ATOMS=(1 3)
M  V30 END COLLECTION
M  V30 END CTAB
M  END
>  <Structure No>
7916

>  <LogS>
-2.22

>  <MMFF94 Energy>
-50.41

$$$$
Compound 7917
Actelion Java MolfileCreator 2.0

  0  0  0  0  0  0              0 V3000
M  V30 BEGIN CTAB
M  V30 COUNTS 32 33 0 0 0
M  V30 BEGIN ATOM
M  V30 1 O 4.5577 0.5588 -0.5588 0
M  V30 2 C 3.9451 0.2539 0.5003 0
M  V30 3 O 2.7244 -0.4238 0.449 0
M  V30 4 N 4.5018 0.604 1.7644 0
M  V30 5 C 2.1065 -0.8014 -0.7774 0
M  V30 6 C 0.7789 -1.5093 -0.4875 0 CFG=1
M  V30 7 O -0.0629 -0.6564 0.226 0
M  V30 8 C 0.039 -1.8735 -1.7478 0
M  V30 9 C -1.118 -0.3071 -0.6487 0
M  V30 10 O -0.9424 -0.9023 -1.9165 0
M  V30 11 C -2.4574 -0.7894 -0.0527 0
M  V30 12 C -1.1423 1.2239 -0.8276 0
M  V30 13 C -2.7884 -0.0671 1.2609 0
M  V30 14 C -1.4718 1.9453 0.4865 0
M  V30 15 C -2.8032 1.4528 1.0647 0
M  V30 16 H 5.413 1.1108 1.8202 0
M  V30 17 H 3.9998 0.3557 2.6454 0
M  V30 18 H 1.9265 0.1046 -1.3969 0
M  V30 19 H 2.781 -1.4902 -1.3319 0
M  V30 20 H 0.976 -2.4223 0.1162 0
M  V30 21 H 0.6995 -1.9039 -2.6413 0
M  V30 22 H -0.4498 -2.866 -1.6344 0
M  V30 23 H -2.407 -1.8836 0.1376 0
M  V30 24 H -3.2771 -0.6123 -0.7838 0
M  V30 25 H -1.9001 1.4986 -1.5948 0
M  V30 26 H -0.1526 1.5719 -1.1944 0
M  V30 27 H -2.0407 -0.3373 2.0384 0
M  V30 28 H -3.7865 -0.3991 1.6194 0
M  V30 29 H -0.657 1.7763 1.2243 0
M  V30 30 H -1.5376 3.0383 0.2973 0
M  V30 31 H -3.6341 1.7332 0.3804 0
M  V30 32 H -2.9838 1.9475 2.0433 0
M  V30 END ATOM
M  V30 BEGIN BOND
M  V30 1 2 1 2
M  V30 2 1 2 3
M  V30 3 1 2 4
M  V30 4 1 3 5
M  V30 5 1 5 6
M  V30 6 1 6 7
M  V30 7 1 6 8
M  V30 8 1 7 9
M  V30 9 1 8 10
M  V30 10 1 9 11
M  V30 11 1 9 12
M  V30 12 1 11 13
M  V30 13 1 12 14
M  V30 14 1 13 15
M  V30 15 1 9 10
M  V30 16 1 14 15
M  V30 17 1 4 16
M  V30 18 1 4 17
M  V30 19 1 5 18
M  V30 20 1 5 19
M  V30 21 1 6 20
M  V30 22 1 8 21
M  V30 23 1 8 22
M  V30 24 1 11 23
M  V30 25 1 11 24
M  V30 26 1 12 25
M  V30 27 1 12 26
M  V30 28 1 13 27
M  V30 29 1 13 28
M  V30 30 1 14 29
M  V30 31 1 14 30
M  V30 32 1 15 31
M  V30 33 1 15 32
M  V30 END BOND
M  V30 BEGIN COLLECTION
M  V30 MDLV30/STEABS ATOMS=(1 6)
M  V30 END COLLECTION
M  V30 END CTAB
M  END
>  <Structure No>
7917

>  <LogS>
-1.89

>  <MMFF94 Energy>
-46.778

$$$$
Compound 7918
Actelion Java MolfileCreator 2.0

  0  0  0  0  0  0              0 V3000
M  V30 BEGIN CTAB
M  V30 COUNTS 32 33 0 0 0
M  V30 BEGIN ATOM
M  V30 1 S -0.1662 -1.4971 -0.7483 0
M  V30 2 C -1.0193 -0.2921 0.3535 0
M  V30 3 C 1.5198 -1.1907 -0.1377 0 CFG=2
M  V30 4 S 0.2031 0.6717 1.324 0
M  V30 5 C -1.825 0.7017 -0.5278 0
M  V30 6 C -1.9367 -1.0835 1.3293 0
M  V30 7 C 1.4359 -0.6497 1.2809 0
M  V30 8 C 2.2522 -0.2392 -1.0931 0
M  V30 9 C -3.2443 0.1958 -0.8084 0
M  V30 10 C -3.1823 -0.2819 1.7235 0
M  V30 11 O 3.6066 -0.0791 -0.6807 0
M  V30 12 C -4.0556 0.0428 0.4945 0
M  V30 13 C 4.5113 0.7367 -1.3649 0
M  V30 14 O 4.1548 1.3716 -2.3945 0
M  V30 15 N 5.8504 0.8517 -0.892 0
M  V30 16 H 2.0637 -2.16 -0.1223 0
M  V30 17 H -1.2975 0.8863 -1.4889 0
M  V30 18 H -1.913 1.6884 -0.0204 0
M  V30 19 H -2.2809 -2.0296 0.8556 0
M  V30 20 H -1.3797 -1.3738 2.246 0
M  V30 21 H 2.4169 -0.2613 1.6265 0
M  V30 22 H 1.1216 -1.4602 1.9727 0
M  V30 23 H 2.2342 -0.6688 -2.1186 0
M  V30 24 H 1.7474 0.7511 -1.1191 0
M  V30 25 H -3.7654 0.9039 -1.4885 0
M  V30 26 H -3.1839 -0.7855 -1.3282 0
M  V30 27 H -3.7806 -0.86 2.4608 0
M  V30 28 H -2.8647 0.6631 2.2166 0
M  V30 29 H -4.8073 -0.7639 0.3522 0
M  V30 30 H -4.6139 0.9834 0.6946 0
M  V30 31 H 6.1522 0.3297 -0.0398 0
M  V30 32 H 6.5389 1.4572 -1.3916 0
M  V30 END ATOM
M  V30 BEGIN BOND
M  V30 1 1 1 2
M  V30 2 1 1 3
M  V30 3 1 2 4
M  V30 4 1 2 5
M  V30 5 1 2 6
M  V30 6 1 3 7
M  V30 7 1 3 8
M  V30 8 1 5 9
M  V30 9 1 6 10
M  V30 10 1 8 11
M  V30 11 1 9 12
M  V30 12 1 11 13
M  V30 13 2 13 14
M  V30 14 1 13 15
M  V30 15 1 4 7
M  V30 16 1 10 12
M  V30 17 1 3 16
M  V30 18 1 5 17
M  V30 19 1 5 18
M  V30 20 1 6 19
M  V30 21 1 6 20
M  V30 22 1 7 21
M  V30 23 1 7 22
M  V30 24 1 8 23
M  V30 25 1 8 24
M  V30 26 1 9 25
M  V30 27 1 9 26
M  V30 28 1 10 27
M  V30 29 1 10 28
M  V30 30 1 12 29
M  V30 31 1 12 30
M  V30 32 1 15 31
M  V30 33 1 15 32
M  V30 END BOND
M  V30 BEGIN COLLECTION
M  V30 MDLV30/STEABS ATOMS=(1 3)
M  V30 END COLLECTION
M  V30 END CTAB
M  END
>  <Structure No>
7918

>  <LogS>
-3.52

>  <MMFF94 Energy>
-50.196

$$$$
Compound 7919
Actelion Java MolfileCreator 2.0

  0  0  0  0  0  0              0 V3000
M  V30 BEGIN CTAB
M  V30 COUNTS 26 28 0 0 0
M  V30 BEGIN ATOM
M  V30 1 O -3.8544 -3.0504 -0.8823 0
M  V30 2 C -3.0328 -2.1336 -0.6194 0
M  V30 3 O -1.7305 -2.3847 -0.6784 0
M  V30 4 C -3.4967 -0.8634 -0.2687 0
M  V30 5 C -0.809 -1.4649 -0.4139 0
M  V30 6 C -2.5781 0.1542 0.0229 0
M  V30 7 C -1.198 -0.1377 -0.0467 0
M  V30 8 C 0.5521 -1.8126 -0.4993 0
M  V30 9 C -3.0861 1.5215 0.4004 0
M  V30 10 C -0.1997 0.8297 0.2318 0
M  V30 11 C 1.4962 -0.8315 -0.2176 0
M  V30 12 C 1.1327 0.4398 0.1337 0
M  V30 13 O 2.8014 -0.9478 -0.2375 0
M  V30 14 C 2.2931 1.1489 0.3429 0
M  V30 15 C 3.3053 0.2276 0.0926 0
M  V30 16 C 4.7666 0.5059 0.1984 0
M  V30 17 H -4.5632 -0.6752 -0.2253 0
M  V30 18 H 0.8586 -2.8133 -0.7754 0
M  V30 19 H -2.717 2.2738 -0.3279 0
M  V30 20 H -2.732 1.7861 1.4189 0
M  V30 21 H -4.1963 1.5616 0.402 0
M  V30 22 H -0.4399 1.8465 0.514 0
M  V30 23 H 2.3949 2.1855 0.6369 0
M  V30 24 H 5.346 -0.3453 -0.2161 0
M  V30 25 H 5.0167 1.4249 -0.3718 0
M  V30 26 H 5.0413 0.6482 1.2643 0
M  V30 END ATOM
M  V30 BEGIN BOND
M  V30 1 2 1 2
M  V30 2 1 2 3
M  V30 3 1 2 4
M  V30 4 1 3 5
M  V30 5 2 4 6
M  V30 6 2 5 7
M  V30 7 1 5 8
M  V30 8 1 6 9
M  V30 9 1 7 10
M  V30 10 2 8 11
M  V30 11 2 10 12
M  V30 12 1 11 13
M  V30 13 1 12 14
M  V30 14 1 13 15
M  V30 15 1 15 16
M  V30 16 1 6 7
M  V30 17 1 11 12
M  V30 18 2 14 15
M  V30 19 1 4 17
M  V30 20 1 8 18
M  V30 21 1 9 19
M  V30 22 1 9 20
M  V30 23 1 9 21
M  V30 24 1 10 22
M  V30 25 1 14 23
M  V30 26 1 16 24
M  V30 27 1 16 25
M  V30 28 1 16 26
M  V30 END BOND
M  V30 END CTAB
M  END
>  <Structure No>
7919

>  <LogS>
-5.23

>  <MMFF94 Energy>
31.248

$$$$
Compound 7920
Actelion Java MolfileCreator 2.0

  0  0  0  0  0  0              0 V3000
M  V30 BEGIN CTAB
M  V30 COUNTS 24 25 0 0 0
M  V30 BEGIN ATOM
M  V30 1 O 2.5431 2.3045 0.0 0
M  V30 2 C 2.2982 0.9338 0.0704 0
M  V30 3 C 0.9794 0.456 0.0559 0
M  V30 4 C 3.3647 0.0272 0.156 0
M  V30 5 N -0.0628 1.3245 -0.0265 0
M  V30 6 C 0.7309 -0.9309 0.1273 0
M  V30 7 C 3.1178 -1.3469 0.2267 0
M  V30 8 C -1.3592 0.9095 -0.0439 0
M  V30 9 C -0.5925 -1.3852 0.1113 0
M  V30 10 C 1.8057 -1.8281 0.2125 0
M  V30 11 C -1.654 -0.4708 0.0254 0
M  V30 12 C -2.4427 1.9434 -0.1372 0
M  V30 13 C -3.0736 -0.9722 0.0092 0
M  V30 14 H 3.4859 2.6757 0.0087 0
M  V30 15 H 4.3856 0.3869 0.1679 0
M  V30 16 H 3.9459 -2.0407 0.2925 0
M  V30 17 H -0.7967 -2.4484 0.1656 0
M  V30 18 H 1.6317 -2.8959 0.2681 0
M  V30 19 H -2.0055 2.9635 -0.1816 0
M  V30 20 H -3.1015 1.8843 0.7542 0
M  V30 21 H -3.0441 1.7811 -1.0559 0
M  V30 22 H -3.6297 -0.5571 0.8755 0
M  V30 23 H -3.5724 -0.6602 -0.9319 0
M  V30 24 H -3.1174 -2.0803 0.071 0
M  V30 END ATOM
M  V30 BEGIN BOND
M  V30 1 1 1 2
M  V30 2 1 2 3
M  V30 3 2 2 4
M  V30 4 2 3 5
M  V30 5 1 3 6
M  V30 6 1 4 7
M  V30 7 1 5 8
M  V30 8 2 6 9
M  V30 9 1 6 10
M  V30 10 2 8 11
M  V30 11 1 8 12
M  V30 12 1 11 13
M  V30 13 2 7 10
M  V30 14 1 9 11
M  V30 15 1 1 14
M  V30 16 1 4 15
M  V30 17 1 7 16
M  V30 18 1 9 17
M  V30 19 1 10 18
M  V30 20 1 12 19
M  V30 21 1 12 20
M  V30 22 1 12 21
M  V30 23 1 13 22
M  V30 24 1 13 23
M  V30 25 1 13 24
M  V30 END BOND
M  V30 END CTAB
M  END
>  <Structure No>
7920

>  <LogS>
-3.32

>  <MMFF94 Energy>
58.943

$$$$
Compound 7921
Actelion Java MolfileCreator 2.0

  0  0  0  0  0  0              0 V3000
M  V30 BEGIN CTAB
M  V30 COUNTS 21 23 0 0 0
M  V30 BEGIN ATOM
M  V30 1 N 3.5196 0.4794 0.0798 0
M  V30 2 C 2.525 1.3957 0.2761 0
M  V30 3 C 3.255 -0.8375 -0.1954 0
M  V30 4 C 1.2059 0.9621 0.1903 0
M  V30 5 C 1.9282 -1.2958 -0.2863 0
M  V30 6 N 0.0825 1.6956 0.3487 0
M  V30 7 C 0.9219 -0.356 -0.085 0
M  V30 8 C -0.9264 0.8147 0.1678 0
M  V30 9 C -0.4505 -0.4538 -0.1 0
M  V30 10 C -2.2943 1.0769 0.2284 0
M  V30 11 C -1.3043 -1.532 -0.3229 0
M  V30 12 C -3.1811 0.0064 0.0072 0
M  V30 13 C -2.6891 -1.2899 -0.2667 0
M  V30 14 H 2.7632 2.4286 0.4919 0
M  V30 15 H 4.074 -1.5283 -0.3435 0
M  V30 16 H 1.7035 -2.332 -0.5027 0
M  V30 17 H 0.0101 2.7155 0.563 0
M  V30 18 H -2.6644 2.0721 0.4387 0
M  V30 19 H -0.9193 -2.5216 -0.5321 0
M  V30 20 H -4.2489 0.1778 0.0475 0
M  V30 21 H -3.383 -2.1032 -0.4345 0
M  V30 END ATOM
M  V30 BEGIN BOND
M  V30 1 2 1 2
M  V30 2 1 1 3
M  V30 3 1 2 4
M  V30 4 2 3 5
M  V30 5 1 4 6
M  V30 6 2 4 7
M  V30 7 1 6 8
M  V30 8 1 7 9
M  V30 9 1 8 10
M  V30 10 1 9 11
M  V30 11 2 10 12
M  V30 12 2 11 13
M  V30 13 1 5 7
M  V30 14 2 8 9
M  V30 15 1 12 13
M  V30 16 1 2 14
M  V30 17 1 3 15
M  V30 18 1 5 16
M  V30 19 1 6 17
M  V30 20 1 10 18
M  V30 21 1 11 19
M  V30 22 1 12 20
M  V30 23 1 13 21
M  V30 END BOND
M  V30 END CTAB
M  END
>  <Structure No>
7921

>  <LogS>
-3.73

>  <MMFF94 Energy>
22.731

$$$$
Compound 7922
Actelion Java MolfileCreator 2.0

  0  0  0  0  0  0              0 V3000
M  V30 BEGIN CTAB
M  V30 COUNTS 32 33 0 0 0
M  V30 BEGIN ATOM
M  V30 1 S -1.3863 -1.7126 1.3047 0
M  V30 2 C -0.9427 -0.4735 0.0278 0
M  V30 3 C 0.1866 -2.5094 1.026 0
M  V30 4 O 0.4365 -0.5302 -0.3004 0
M  V30 5 C -1.7546 -0.7948 -1.2556 0
M  V30 6 C -1.2535 0.9496 0.5725 0
M  V30 7 C 1.1213 -1.413 0.5576 0 CFG=1
M  V30 8 C -1.9946 0.4592 -2.1026 0
M  V30 9 C -2.6601 1.4251 0.1913 0
M  V30 10 C 1.7456 -0.639 1.7333 0
M  V30 11 C -2.8335 1.5038 -1.3385 0
M  V30 12 O 2.54 0.4471 1.2588 0
M  V30 13 C 3.8057 0.2842 0.6856 0
M  V30 14 O 4.3389 -0.8557 0.6103 0
M  V30 15 N 4.5023 1.4235 0.1887 0
M  V30 16 H 0.0631 -3.2706 0.2259 0
M  V30 17 H 0.5478 -3.0051 1.9524 0
M  V30 18 H -1.2171 -1.5555 -1.8631 0
M  V30 19 H -2.7461 -1.2284 -0.9952 0
M  V30 20 H -1.1412 0.9818 1.6778 0
M  V30 21 H -0.5205 1.6786 0.1598 0
M  V30 22 H 1.9436 -1.8883 -0.0183 0
M  V30 23 H -2.5166 0.18 -3.0433 0
M  V30 24 H -1.0126 0.901 -2.3816 0
M  V30 25 H -3.4083 0.7205 0.6166 0
M  V30 26 H -2.8499 2.4253 0.6377 0
M  V30 27 H 2.3654 -1.3177 2.3596 0
M  V30 28 H 0.9445 -0.2251 2.3807 0
M  V30 29 H -2.5455 2.5183 -1.6908 0
M  V30 30 H -3.9095 1.3626 -1.5808 0
M  V30 31 H 5.4489 1.3207 -0.2396 0
M  V30 32 H 4.0683 2.3712 0.2487 0
M  V30 END ATOM
M  V30 BEGIN BOND
M  V30 1 1 1 2
M  V30 2 1 1 3
M  V30 3 1 2 4
M  V30 4 1 2 5
M  V30 5 1 2 6
M  V30 6 1 3 7
M  V30 7 1 5 8
M  V30 8 1 6 9
M  V30 9 1 7 10
M  V30 10 1 8 11
M  V30 11 1 10 12
M  V30 12 1 12 13
M  V30 13 2 13 14
M  V30 14 1 13 15
M  V30 15 1 4 7
M  V30 16 1 9 11
M  V30 17 1 3 16
M  V30 18 1 3 17
M  V30 19 1 5 18
M  V30 20 1 5 19
M  V30 21 1 6 20
M  V30 22 1 6 21
M  V30 23 1 7 22
M  V30 24 1 8 23
M  V30 25 1 8 24
M  V30 26 1 9 25
M  V30 27 1 9 26
M  V30 28 1 10 27
M  V30 29 1 10 28
M  V30 30 1 11 29
M  V30 31 1 11 30
M  V30 32 1 15 31
M  V30 33 1 15 32
M  V30 END BOND
M  V30 BEGIN COLLECTION
M  V30 MDLV30/STEABS ATOMS=(1 7)
M  V30 END COLLECTION
M  V30 END CTAB
M  END
>  <Structure No>
7922

>  <LogS>
-2.82

>  <MMFF94 Energy>
-46.407

$$$$
Compound 7923
Actelion Java MolfileCreator 2.0

  0  0  0  0  0  0              0 V3000
M  V30 BEGIN CTAB
M  V30 COUNTS 41 42 0 0 0
M  V30 BEGIN ATOM
M  V30 1 O 2.1494 -1.3529 0.159 0
M  V30 2 C 2.6899 -0.1227 -0.3298 0 CFG=1
M  V30 3 C 1.1392 -1.1245 1.1188 0
M  V30 4 O 1.7823 0.975 -0.2507 0
M  V30 5 C 3.9926 0.2248 0.4268 0
M  V30 6 C -0.0675 -0.4179 0.4595 0
M  V30 7 C 0.487 0.5523 -0.6154 0
M  V30 8 C 4.9985 -0.9338 0.3611 0
M  V30 9 C 4.6331 1.5025 -0.1357 0
M  V30 10 C -1.0251 -1.4443 -0.1821 0
M  V30 11 C -0.8822 0.3472 1.5243 0
M  V30 12 O -2.1948 -0.8054 -0.6495 0
M  V30 13 O -2.073 0.8717 0.971 0
M  V30 14 C -2.862 -0.1795 0.4366 0 CFG=1
M  V30 15 C -4.2035 0.404 -0.0525 0
M  V30 16 C -4.003 1.4341 -1.1748 0
M  V30 17 C -5.1546 -0.709 -0.513 0
M  V30 18 H 2.9516 -0.2767 -1.4013 0
M  V30 19 H 1.5477 -0.5206 1.962 0
M  V30 20 H 0.8354 -2.0981 1.5591 0
M  V30 21 H 3.7477 0.4079 1.4961 0
M  V30 22 H -0.163 1.4474 -0.7181 0
M  V30 23 H 0.5117 0.0812 -1.6261 0
M  V30 24 H 4.5789 -1.8411 0.8447 0
M  V30 25 H 5.9309 -0.6645 0.9021 0
M  V30 26 H 5.253 -1.1723 -0.6939 0
M  V30 27 H 4.8801 1.3763 -1.2118 0
M  V30 28 H 5.5653 1.7415 0.4195 0
M  V30 29 H 3.9431 2.3656 -0.0238 0
M  V30 30 H -1.2932 -2.25 0.5401 0
M  V30 31 H -0.5271 -1.9479 -1.0383 0
M  V30 32 H -0.2783 1.1917 1.9214 0
M  V30 33 H -1.1196 -0.3121 2.3912 0
M  V30 34 H -3.1061 -0.9229 1.2359 0
M  V30 35 H -4.6852 0.9243 0.8055 0
M  V30 36 H -3.3483 2.2622 -0.8297 0
M  V30 37 H -3.5428 0.9617 -2.069 0
M  V30 38 H -4.9807 1.8723 -1.4688 0
M  V30 39 H -5.3279 -1.4324 0.312 0
M  V30 40 H -6.1365 -0.2772 -0.8026 0
M  V30 41 H -4.7334 -1.2531 -1.3853 0
M  V30 END ATOM
M  V30 BEGIN BOND
M  V30 1 1 1 2
M  V30 2 1 1 3
M  V30 3 1 2 4
M  V30 4 1 2 5
M  V30 5 1 3 6
M  V30 6 1 4 7
M  V30 7 1 5 8
M  V30 8 1 5 9
M  V30 9 1 6 10
M  V30 10 1 6 11
M  V30 11 1 10 12
M  V30 12 1 11 13
M  V30 13 1 12 14
M  V30 14 1 14 15
M  V30 15 1 15 16
M  V30 16 1 15 17
M  V30 17 1 6 7
M  V30 18 1 13 14
M  V30 19 1 2 18
M  V30 20 1 3 19
M  V30 21 1 3 20
M  V30 22 1 5 21
M  V30 23 1 7 22
M  V30 24 1 7 23
M  V30 25 1 8 24
M  V30 26 1 8 25
M  V30 27 1 8 26
M  V30 28 1 9 27
M  V30 29 1 9 28
M  V30 30 1 9 29
M  V30 31 1 10 30
M  V30 32 1 10 31
M  V30 33 1 11 32
M  V30 34 1 11 33
M  V30 35 1 14 34
M  V30 36 1 15 35
M  V30 37 1 16 36
M  V30 38 1 16 37
M  V30 39 1 16 38
M  V30 40 1 17 39
M  V30 41 1 17 40
M  V30 42 1 17 41
M  V30 END BOND
M  V30 BEGIN COLLECTION
M  V30 MDLV30/STEABS ATOMS=(2 2 14)
M  V30 END COLLECTION
M  V30 END CTAB
M  END
>  <Structure No>
7923

>  <LogS>
-3.11

>  <MMFF94 Energy>
-14.138

$$$$
Compound 7924
Actelion Java MolfileCreator 2.0

  0  0  0  0  0  0              0 V3000
M  V30 BEGIN CTAB
M  V30 COUNTS 24 24 0 0 0
M  V30 BEGIN ATOM
M  V30 1 O -2.1207 -1.9635 0.0 0
M  V30 2 C -0.9748 -1.1545 0.0387 0
M  V30 3 C -3.4528 -1.4698 -0.1002 0
M  V30 4 C 0.2725 -1.7789 0.1391 0
M  V30 5 C -1.0397 0.2505 -0.0195 0
M  V30 6 C 1.4518 -1.0285 0.182 0
M  V30 7 C 0.1385 1.0199 0.0225 0
M  V30 8 O 2.6724 -1.7127 0.283 0
M  V30 9 C 1.3762 0.3753 0.1231 0
M  V30 10 O 0.1235 2.4221 -0.0325 0
M  V30 11 C 3.9472 -1.0805 0.3365 0
M  V30 12 C -1.0565 3.2125 -0.135 0
M  V30 13 H -4.1571 -2.3267 -0.11 0
M  V30 14 H -3.5777 -0.8964 -1.0431 0
M  V30 15 H -3.6885 -0.826 0.7735 0
M  V30 16 H 0.326 -2.8598 0.1842 0
M  V30 17 H -1.9987 0.7409 -0.097 0
M  V30 18 H 2.2733 0.9788 0.1545 0
M  V30 19 H 4.0093 -0.4208 1.2277 0
M  V30 20 H 4.1202 -0.4911 -0.5886 0
M  V30 21 H 4.7344 -1.8581 0.4146 0
M  V30 22 H -1.7111 3.0376 0.7448 0
M  V30 23 H -0.7736 4.2848 -0.1593 0
M  V30 24 H -1.6003 2.9673 -1.0718 0
M  V30 END ATOM
M  V30 BEGIN BOND
M  V30 1 1 1 2
M  V30 2 1 1 3
M  V30 3 2 2 4
M  V30 4 1 2 5
M  V30 5 1 4 6
M  V30 6 2 5 7
M  V30 7 1 6 8
M  V30 8 2 6 9
M  V30 9 1 7 10
M  V30 10 1 8 11
M  V30 11 1 10 12
M  V30 12 1 7 9
M  V30 13 1 3 13
M  V30 14 1 3 14
M  V30 15 1 3 15
M  V30 16 1 4 16
M  V30 17 1 5 17
M  V30 18 1 9 18
M  V30 19 1 11 19
M  V30 20 1 11 20
M  V30 21 1 11 21
M  V30 22 1 12 22
M  V30 23 1 12 23
M  V30 24 1 12 24
M  V30 END BOND
M  V30 END CTAB
M  END
>  <Structure No>
7924

>  <LogS>
-2.68

>  <MMFF94 Energy>
25.252

$$$$
Compound 7925
Actelion Java MolfileCreator 2.0

  0  0  0  0  0  0              0 V3000
M  V30 BEGIN CTAB
M  V30 COUNTS 20 20 0 0 0
M  V30 BEGIN ATOM
M  V30 1 O -0.2392 -1.5955 1.6753 0
M  V30 2 C -0.8896 -0.9097 0.8397 0
M  V30 3 N -0.3418 0.2196 0.2799 0
M  V30 4 C -2.1807 -1.3173 0.4865 0
M  V30 5 C -1.0461 0.9396 -0.6479 0
M  V30 6 C 1.0248 0.6457 0.6224 0
M  V30 7 C -2.905 -0.5778 -0.4455 0
M  V30 8 C -2.3359 0.5558 -1.0195 0
M  V30 9 C 2.0407 -0.0511 -0.2853 0
M  V30 10 C 3.4325 0.3753 0.0579 0
M  V30 11 O 3.9437 1.3803 -0.5024 0
M  V30 12 O 4.1483 -0.3074 1.0331 0 CHG=-1
M  V30 13 H -2.6183 -2.2039 0.9289 0
M  V30 14 H -0.6115 1.8186 -1.1094 0
M  V30 15 H 1.2473 0.4161 1.6882 0
M  V30 16 H 1.1231 1.7495 0.5131 0
M  V30 17 H -3.9038 -0.886 -0.7263 0
M  V30 18 H -2.888 1.1326 -1.7503 0
M  V30 19 H 1.8268 0.198 -1.3474 0
M  V30 20 H 1.9576 -1.1527 -0.1652 0
M  V30 END ATOM
M  V30 BEGIN BOND
M  V30 1 2 1 2
M  V30 2 1 2 3
M  V30 3 1 2 4
M  V30 4 1 3 5
M  V30 5 1 3 6
M  V30 6 2 4 7
M  V30 7 2 5 8
M  V30 8 1 6 9
M  V30 9 1 9 10
M  V30 10 2 10 11
M  V30 11 1 10 12
M  V30 12 1 7 8
M  V30 13 1 4 13
M  V30 14 1 5 14
M  V30 15 1 6 15
M  V30 16 1 6 16
M  V30 17 1 7 17
M  V30 18 1 8 18
M  V30 19 1 9 19
M  V30 20 1 9 20
M  V30 END BOND
M  V30 END CTAB
M  END
>  <Structure No>
7925

>  <LogS>
-0.6

>  <MMFF94 Energy>
-7.3626

$$$$
Compound 7926
Actelion Java MolfileCreator 2.0

  0  0  0  0  0  0              0 V3000
M  V30 BEGIN CTAB
M  V30 COUNTS 26 27 0 0 0
M  V30 BEGIN ATOM
M  V30 1 O -2.4727 -0.8768 -2.5526 0
M  V30 2 C -1.7572 -0.5537 -1.5673 0
M  V30 3 N -0.3504 -0.4451 -1.6239 0
M  V30 4 C -2.2527 -0.227 -0.1996 0
M  V30 5 C 0.0108 -0.0485 -0.3039 0
M  V30 6 N -1.0037 0.0805 0.4986 0
M  V30 7 C -2.9375 -1.4346 0.4492 0
M  V30 8 C -3.1657 1.0036 -0.2153 0
M  V30 9 C 1.4055 0.2053 0.1344 0
M  V30 10 C 1.6591 0.738 1.4138 0
M  V30 11 C 2.4969 -0.0828 -0.7074 0
M  V30 12 C 2.9699 0.9803 1.8353 0
M  V30 13 C 3.8058 0.1615 -0.2798 0
M  V30 14 C 4.0422 0.6931 0.9892 0
M  V30 15 H 0.2521 -0.5666 -2.4666 0
M  V30 16 H -3.8566 -1.7078 -0.1126 0
M  V30 17 H -3.218 -1.1978 1.4978 0
M  V30 18 H -2.2532 -2.3105 0.4591 0
M  V30 19 H -2.6446 1.8683 -0.6805 0
M  V30 20 H -3.4496 1.2829 0.8218 0
M  V30 21 H -4.091 0.7931 -0.7936 0
M  V30 22 H 0.8449 0.9717 2.0884 0
M  V30 23 H 2.351 -0.5045 -1.6912 0
M  V30 24 H 3.154 1.3917 2.8194 0
M  V30 25 H 4.6385 -0.0642 -0.9333 0
M  V30 26 H 5.0563 0.8809 1.3173 0
M  V30 END ATOM
M  V30 BEGIN BOND
M  V30 1 2 1 2
M  V30 2 1 2 3
M  V30 3 1 2 4
M  V30 4 1 3 5
M  V30 5 1 4 6
M  V30 6 1 4 7
M  V30 7 1 4 8
M  V30 8 1 5 9
M  V30 9 2 9 10
M  V30 10 1 9 11
M  V30 11 1 10 12
M  V30 12 2 11 13
M  V30 13 2 12 14
M  V30 14 2 5 6
M  V30 15 1 13 14
M  V30 16 1 3 15
M  V30 17 1 7 16
M  V30 18 1 7 17
M  V30 19 1 7 18
M  V30 20 1 8 19
M  V30 21 1 8 20
M  V30 22 1 8 21
M  V30 23 1 10 22
M  V30 24 1 11 23
M  V30 25 1 12 24
M  V30 26 1 13 25
M  V30 27 1 14 26
M  V30 END BOND
M  V30 END CTAB
M  END
>  <Structure No>
7926

>  <LogS>
-0.85

>  <MMFF94 Energy>
30.446

$$$$
Compound 7927
Actelion Java MolfileCreator 2.0

  0  0  0  0  0  0              0 V3000
M  V30 BEGIN CTAB
M  V30 COUNTS 21 22 0 0 0
M  V30 BEGIN ATOM
M  V30 1 O -2.6851 2.278 0.0812 0
M  V30 2 N -1.5833 2.254 -0.5047 0 CHG=1
M  V30 3 O -1.1932 3.3599 -1.2246 0 CHG=-1
M  V30 4 C -0.6436 1.1944 -0.2523 0
M  V30 5 C -1.0643 -0.1694 -0.0943 0
M  V30 6 C 0.7291 1.5174 -0.1507 0
M  V30 7 C -0.1014 -1.1557 0.2384 0
M  V30 8 C -2.5182 -0.5633 -0.2538 0
M  V30 9 C 1.6283 0.5035 0.1498 0
M  V30 10 C 1.2299 -0.7745 0.3424 0
M  V30 11 O -2.6547 -1.9143 -0.6115 0
M  V30 12 O 2.9976 0.5901 0.3129 0
M  V30 13 O 2.3273 -1.5604 0.6376 0
M  V30 14 C 3.4893 -0.7196 0.628 0
M  V30 15 H 1.0812 2.5334 -0.2734 0
M  V30 16 H -0.3712 -2.1907 0.4009 0
M  V30 17 H -2.9783 0.0358 -1.0672 0
M  V30 18 H -3.0682 -0.3414 0.6898 0
M  V30 19 H -2.7976 -2.4241 0.2285 0
M  V30 20 H 4.2017 -1.0594 -0.1525 0
M  V30 21 H 3.9694 -0.718 1.629 0
M  V30 END ATOM
M  V30 BEGIN BOND
M  V30 1 2 1 2
M  V30 2 1 2 3
M  V30 3 1 2 4
M  V30 4 2 4 5
M  V30 5 1 4 6
M  V30 6 1 5 7
M  V30 7 1 5 8
M  V30 8 2 6 9
M  V30 9 2 7 10
M  V30 10 1 8 11
M  V30 11 1 9 12
M  V30 12 1 10 13
M  V30 13 1 12 14
M  V30 14 1 9 10
M  V30 15 1 13 14
M  V30 16 1 6 15
M  V30 17 1 7 16
M  V30 18 1 8 17
M  V30 19 1 8 18
M  V30 20 1 11 19
M  V30 21 1 14 20
M  V30 22 1 14 21
M  V30 END BOND
M  V30 END CTAB
M  END
>  <Structure No>
7927

>  <LogS>
-3.06

>  <MMFF94 Energy>
37.881

$$$$
Compound 7928
Actelion Java MolfileCreator 2.0

  0  0  0  0  0  0              0 V3000
M  V30 BEGIN CTAB
M  V30 COUNTS 40 46 0 0 0
M  V30 BEGIN ATOM
M  V30 1 O -0.9057 0.741 1.6472 0
M  V30 2 C -0.6605 0.4574 0.298 0 CFG=1
M  V30 3 C -2.3029 0.6954 1.5863 0 CFG=2
M  V30 4 N 0.7728 0.4545 -0.0556 0 CHG=1
M  V30 5 C -1.4134 -0.8539 0.0199 0 CFG=1
M  V30 6 C -1.4744 1.5101 -0.468 0 CFG=2
M  V30 7 C -2.621 -0.6744 0.9745 0 CFG=2
M  V30 8 C -2.6663 1.6803 0.4719 0 CFG=1
M  V30 9 C 1.5898 -0.3411 0.8769 0
M  V30 10 C -2.0543 -0.7194 -1.3704 0 CFG=2
M  V30 11 C -2.3623 0.7823 -1.4695 0 CFG=1
M  V30 12 C -3.7965 -0.4684 0.0062 0 CFG=1
M  V30 13 C -3.5627 0.9546 -0.5225 0 CFG=1
M  V30 14 C 3.0327 -0.3398 0.442 0
M  V30 15 C -3.4207 -1.3321 -1.1741 0
M  V30 16 C 3.9066 0.6661 0.887 0
M  V30 17 C 3.4999 -1.3073 -0.463 0
M  V30 18 C 5.2358 0.6864 0.4529 0
M  V30 19 C 4.8297 -1.2833 -0.8947 0
M  V30 20 C 5.6977 -0.2887 -0.4354 0
M  V30 21 H -2.7976 0.8962 2.56 0
M  V30 22 H 0.8816 0.0786 -1.0273 0
M  V30 23 H 1.1244 1.4412 -0.0413 0
M  V30 24 H -0.8588 -1.8006 0.1865 0
M  V30 25 H -0.9843 2.4527 -0.7943 0
M  V30 26 H -2.7455 -1.5007 1.7074 0
M  V30 27 H -2.9253 2.726 0.7436 0
M  V30 28 H 1.2281 -1.3901 0.9242 0
M  V30 29 H 1.5186 0.0772 1.9058 0
M  V30 30 H -1.4513 -1.1303 -2.2075 0
M  V30 31 H -2.4735 1.2353 -2.478 0
M  V30 32 H -4.8025 -0.6477 0.4415 0
M  V30 33 H -4.4279 1.516 -0.936 0
M  V30 34 H -3.3712 -2.4141 -0.9139 0
M  V30 35 H -4.09 -1.1735 -2.0502 0
M  V30 36 H 3.5584 1.4335 1.5675 0
M  V30 37 H 2.8344 -2.0771 -0.8343 0
M  V30 38 H 5.9068 1.4606 0.8022 0
M  V30 39 H 5.1864 -2.0336 -1.5885 0
M  V30 40 H 6.7263 -0.2707 -0.7716 0
M  V30 END ATOM
M  V30 BEGIN BOND
M  V30 1 1 1 2
M  V30 2 1 1 3
M  V30 3 1 2 4
M  V30 4 1 2 5
M  V30 5 1 2 6
M  V30 6 1 3 7
M  V30 7 1 3 8
M  V30 8 1 4 9
M  V30 9 1 5 10
M  V30 10 1 6 11
M  V30 11 1 7 12
M  V30 12 1 8 13
M  V30 13 1 9 14
M  V30 14 1 10 15
M  V30 15 2 14 16
M  V30 16 1 14 17
M  V30 17 1 16 18
M  V30 18 2 17 19
M  V30 19 2 18 20
M  V30 20 1 5 7
M  V30 21 1 6 8
M  V30 22 1 10 11
M  V30 23 1 11 13
M  V30 24 1 12 13
M  V30 25 1 12 15
M  V30 26 1 19 20
M  V30 27 1 3 21
M  V30 28 1 4 22
M  V30 29 1 4 23
M  V30 30 1 5 24
M  V30 31 1 6 25
M  V30 32 1 7 26
M  V30 33 1 8 27
M  V30 34 1 9 28
M  V30 35 1 9 29
M  V30 36 1 10 30
M  V30 37 1 11 31
M  V30 38 1 12 32
M  V30 39 1 13 33
M  V30 40 1 15 34
M  V30 41 1 15 35
M  V30 42 1 16 36
M  V30 43 1 17 37
M  V30 44 1 18 38
M  V30 45 1 19 39
M  V30 46 1 20 40
M  V30 END BOND
M  V30 BEGIN COLLECTION
M  V30 MDLV30/STEABS ATOMS=(10 2 3 5 6 7 8 10 11 12 13)
M  V30 END COLLECTION
M  V30 END CTAB
M  END
>  <Structure No>
7928

>  <LogS>
-3.4

>  <MMFF94 Energy>
25.951

$$$$
Compound 7929
Actelion Java MolfileCreator 2.0

  0  0  0  0  0  0              0 V3000
M  V30 BEGIN CTAB
M  V30 COUNTS 23 24 0 0 0
M  V30 BEGIN ATOM
M  V30 1 O 0.3229 2.1007 2.5859 0
M  V30 2 C 0.3092 1.5386 1.46 0
M  V30 3 O 0.7827 2.1183 0.29 0
M  V30 4 C -0.189 0.2178 1.1787 0
M  V30 5 C 0.6218 1.2157 -0.8138 0
M  V30 6 C -0.0131 0.0042 -0.1683 0
M  V30 7 C -0.7557 -0.7401 2.0168 0
M  V30 8 C -0.3071 1.8373 -1.8618 0
M  V30 9 C 1.9917 0.8736 -1.4087 0
M  V30 10 C -0.4039 -1.203 -0.7539 0
M  V30 11 C -1.1558 -1.9626 1.4463 0
M  V30 12 C -0.9793 -2.1914 0.0634 0
M  V30 13 C -1.7459 -2.9815 2.2738 0
M  V30 14 N -2.2205 -3.8006 2.9392 0
M  V30 15 H -0.8816 -0.5432 3.0746 0
M  V30 16 H -1.2909 2.0822 -1.4068 0
M  V30 17 H 0.1377 2.7746 -2.2583 0
M  V30 18 H -0.4698 1.1336 -2.706 0
M  V30 19 H 2.4794 1.7931 -1.7968 0
M  V30 20 H 2.6493 0.4306 -0.6302 0
M  V30 21 H 1.885 0.1465 -2.2419 0
M  V30 22 H -0.2673 -1.3752 -1.8135 0
M  V30 23 H -1.2863 -3.1316 -0.3784 0
M  V30 END ATOM
M  V30 BEGIN BOND
M  V30 1 2 1 2
M  V30 2 1 2 3
M  V30 3 1 2 4
M  V30 4 1 3 5
M  V30 5 2 4 6
M  V30 6 1 4 7
M  V30 7 1 5 8
M  V30 8 1 5 9
M  V30 9 1 6 10
M  V30 10 2 7 11
M  V30 11 2 10 12
M  V30 12 1 11 13
M  V30 13 3 13 14
M  V30 14 1 5 6
M  V30 15 1 11 12
M  V30 16 1 7 15
M  V30 17 1 8 16
M  V30 18 1 8 17
M  V30 19 1 8 18
M  V30 20 1 9 19
M  V30 21 1 9 20
M  V30 22 1 9 21
M  V30 23 1 10 22
M  V30 24 1 12 23
M  V30 END BOND
M  V30 END CTAB
M  END
>  <Structure No>
7929

>  <LogS>
-2.91

>  <MMFF94 Energy>
42.965

$$$$
Compound 7930
Actelion Java MolfileCreator 2.0

  0  0  0  0  0  0              0 V3000
M  V30 BEGIN CTAB
M  V30 COUNTS 24 25 0 0 0
M  V30 BEGIN ATOM
M  V30 1 O 0.7164 1.6722 -1.4332 0
M  V30 2 C 0.0648 0.6031 -0.8126 0
M  V30 3 C -1.2626 0.7359 -0.3612 0
M  V30 4 C 0.7435 -0.6218 -0.6363 0
M  V30 5 N -1.9377 1.9056 -0.5247 0
M  V30 6 C -1.9043 -0.3497 0.2688 0
M  V30 7 C 0.0915 -1.6909 0.0016 0
M  V30 8 C 2.1756 -0.7941 -1.0803 0
M  V30 9 C -3.2181 2.0453 -0.0928 0
M  V30 10 C -3.2228 -0.1806 0.7047 0
M  V30 11 C -1.2241 -1.5586 0.4484 0
M  V30 12 C 3.1164 -0.6495 0.0832 0
M  V30 13 N -3.8504 1.0086 0.5156 0
M  V30 14 C 3.3605 0.5362 0.6487 0
M  V30 15 H 0.2713 2.5701 -1.5791 0
M  V30 16 H 0.6075 -2.6309 0.1546 0
M  V30 17 H 2.4485 -0.0724 -1.8798 0
M  V30 18 H 2.3009 -1.8087 -1.5166 0
M  V30 19 H -3.7351 2.9844 -0.2337 0
M  V30 20 H -3.7528 -0.9885 1.1936 0
M  V30 21 H -1.7071 -2.3974 0.9352 0
M  V30 22 H 3.6184 -1.5324 0.4675 0
M  V30 23 H 4.0482 0.6071 1.485 0
M  V30 24 H 2.8819 1.4396 0.2843 0
M  V30 END ATOM
M  V30 BEGIN BOND
M  V30 1 1 1 2
M  V30 2 1 2 3
M  V30 3 2 2 4
M  V30 4 2 3 5
M  V30 5 1 3 6
M  V30 6 1 4 7
M  V30 7 1 4 8
M  V30 8 1 5 9
M  V30 9 2 6 10
M  V30 10 1 6 11
M  V30 11 1 8 12
M  V30 12 2 9 13
M  V30 13 2 12 14
M  V30 14 2 7 11
M  V30 15 1 10 13
M  V30 16 1 1 15
M  V30 17 1 7 16
M  V30 18 1 8 17
M  V30 19 1 8 18
M  V30 20 1 9 19
M  V30 21 1 10 20
M  V30 22 1 11 21
M  V30 23 1 12 22
M  V30 24 1 14 23
M  V30 25 1 14 24
M  V30 END BOND
M  V30 END CTAB
M  END
>  <Structure No>
7930

>  <LogS>
-3.62

>  <MMFF94 Energy>
35.287

$$$$
Compound 7931
Actelion Java MolfileCreator 2.0

  0  0  0  0  0  0              0 V3000
M  V30 BEGIN CTAB
M  V30 COUNTS 23 25 0 0 0
M  V30 BEGIN ATOM
M  V30 1 S -0.0824 -1.5673 -1.4023 0
M  V30 2 C 1.2944 -0.7777 -0.5638 0
M  V30 3 C -1.3409 -0.7003 -0.4604 0
M  V30 4 C 1.2687 0.6095 -0.3298 0
M  V30 5 C 2.4372 -1.5217 -0.2485 0
M  V30 6 C -1.2156 0.6825 -0.2323 0
M  V30 7 C -2.4971 -1.3766 -0.0548 0
M  V30 8 N 0.0396 1.3411 -0.4666 0
M  V30 9 C 2.4151 1.2475 0.1669 0
M  V30 10 C 3.5689 -0.8811 0.2642 0
M  V30 11 C -2.2803 1.3855 0.3512 0
M  V30 12 C -3.5459 -0.6719 0.5434 0
M  V30 13 C 3.5624 0.5032 0.4593 0
M  V30 14 C -3.443 0.7092 0.7342 0
M  V30 15 H 2.4614 -2.5883 -0.4315 0
M  V30 16 H -2.5983 -2.4396 -0.2329 0
M  V30 17 H 0.0714 2.3859 -0.4391 0
M  V30 18 H 2.407 2.3127 0.361 0
M  V30 19 H 4.4562 -1.4556 0.497 0
M  V30 20 H -2.1948 2.448 0.5416 0
M  V30 21 H -4.4444 -1.1938 0.8464 0
M  V30 22 H 4.4413 0.9974 0.8529 0
M  V30 23 H -4.2579 1.2531 1.1943 0
M  V30 END ATOM
M  V30 BEGIN BOND
M  V30 1 1 1 2
M  V30 2 1 1 3
M  V30 3 2 2 4
M  V30 4 1 2 5
M  V30 5 2 3 6
M  V30 6 1 3 7
M  V30 7 1 4 8
M  V30 8 1 4 9
M  V30 9 2 5 10
M  V30 10 1 6 11
M  V30 11 2 7 12
M  V30 12 2 9 13
M  V30 13 2 11 14
M  V30 14 1 6 8
M  V30 15 1 10 13
M  V30 16 1 12 14
M  V30 17 1 5 15
M  V30 18 1 7 16
M  V30 19 1 8 17
M  V30 20 1 9 18
M  V30 21 1 10 19
M  V30 22 1 11 20
M  V30 23 1 12 21
M  V30 24 1 13 22
M  V30 25 1 14 23
M  V30 END BOND
M  V30 END CTAB
M  END
>  <Structure No>
7931

>  <LogS>
-5.59

>  <MMFF94 Energy>
50.767

$$$$
Compound 7932
Actelion Java MolfileCreator 2.0

  0  0  0  0  0  0              0 V3000
M  V30 BEGIN CTAB
M  V30 COUNTS 24 26 0 0 0
M  V30 BEGIN ATOM
M  V30 1 N 2.7123 1.5948 -0.3985 0
M  V30 2 C 2.3866 0.2877 -0.16 0
M  V30 3 C 1.7631 2.5737 -0.5371 0
M  V30 4 C 1.0324 -0.0415 -0.0575 0
M  V30 5 C 3.4608 -0.7433 -0.0164 0
M  V30 6 C 0.3961 2.2623 -0.4372 0
M  V30 7 N 0.4834 -1.2564 0.1723 0
M  V30 8 C 0.068 0.9326 -0.1947 0
M  V30 9 C -0.8494 -1.0341 0.1781 0
M  V30 10 C -1.1427 0.2965 -0.0436 0
M  V30 11 C -1.8591 -1.9748 0.3757 0
M  V30 12 C -2.4532 0.7686 -0.082 0
M  V30 13 C -3.1932 -1.527 0.3423 0
M  V30 14 C -3.4884 -0.1635 0.1148 0
M  V30 15 H 2.0699 3.5939 -0.7248 0
M  V30 16 H 3.3386 -1.5237 -0.7966 0
M  V30 17 H 4.4632 -0.2789 -0.1306 0
M  V30 18 H 3.3982 -1.2132 0.9875 0
M  V30 19 H -0.3642 3.025 -0.5446 0
M  V30 20 H 0.9756 -2.1667 0.3143 0
M  V30 21 H -1.626 -3.0174 0.5493 0
M  V30 22 H -2.6705 1.8144 -0.2567 0
M  V30 23 H -3.9998 -2.2329 0.4921 0
M  V30 24 H -4.519 0.1663 0.0919 0
M  V30 END ATOM
M  V30 BEGIN BOND
M  V30 1 2 1 2
M  V30 2 1 1 3
M  V30 3 1 2 4
M  V30 4 1 2 5
M  V30 5 2 3 6
M  V30 6 1 4 7
M  V30 7 2 4 8
M  V30 8 1 7 9
M  V30 9 1 8 10
M  V30 10 1 9 11
M  V30 11 1 10 12
M  V30 12 2 11 13
M  V30 13 2 12 14
M  V30 14 1 6 8
M  V30 15 2 9 10
M  V30 16 1 13 14
M  V30 17 1 3 15
M  V30 18 1 5 16
M  V30 19 1 5 17
M  V30 20 1 5 18
M  V30 21 1 6 19
M  V30 22 1 7 20
M  V30 23 1 11 21
M  V30 24 1 12 22
M  V30 25 1 13 23
M  V30 26 1 14 24
M  V30 END BOND
M  V30 END CTAB
M  END
>  <Structure No>
7932

>  <LogS>
-3.79

>  <MMFF94 Energy>
23.998

$$$$
Compound 7933
Actelion Java MolfileCreator 2.0

  0  0  0  0  0  0              0 V3000
M  V30 BEGIN CTAB
M  V30 COUNTS 27 27 0 0 0
M  V30 BEGIN ATOM
M  V30 1 O 0.8733 0.8733 -2.3832 0
M  V30 2 C 1.0434 0.3039 -1.2702 0
M  V30 3 N 2.3797 0.0304 -0.8368 0
M  V30 4 C -0.172 -0.0736 -0.4253 0
M  V30 5 C 2.6604 -0.3961 0.4941 0
M  V30 6 C 0.2451 -0.8731 0.8574 0
M  V30 7 C -0.979 1.2171 -0.0684 0
M  V30 8 C -1.0635 -0.9944 -1.3239 0
M  V30 9 O 3.8435 -0.668 0.8305 0
M  V30 10 C 1.5672 -0.4445 1.5068 0
M  V30 11 C -0.2054 2.295 0.6975 0
M  V30 12 C -2.3438 -1.5235 -0.6633 0
M  V30 13 H 3.1725 0.182 -1.5004 0
M  V30 14 H 0.3564 -1.9512 0.6029 0
M  V30 15 H -0.5575 -0.8124 1.6242 0
M  V30 16 H -1.8691 0.958 0.5425 0
M  V30 17 H -1.3581 1.6779 -1.0075 0
M  V30 18 H -1.3651 -0.449 -2.2457 0
M  V30 19 H -0.4654 -1.8718 -1.6574 0
M  V30 20 H 1.4812 0.545 1.9913 0
M  V30 21 H 1.8294 -1.1774 2.3008 0
M  V30 22 H -0.147 2.036 1.7738 0
M  V30 23 H 0.8127 2.4468 0.2841 0
M  V30 24 H -0.7527 3.2586 0.6243 0
M  V30 25 H -3.054 -0.6992 -0.4499 0
M  V30 26 H -2.8475 -2.2255 -1.3609 0
M  V30 27 H -2.1206 -2.0773 0.2711 0
M  V30 END ATOM
M  V30 BEGIN BOND
M  V30 1 2 1 2
M  V30 2 1 2 3
M  V30 3 1 2 4
M  V30 4 1 3 5
M  V30 5 1 4 6
M  V30 6 1 4 7
M  V30 7 1 4 8
M  V30 8 2 5 9
M  V30 9 1 5 10
M  V30 10 1 7 11
M  V30 11 1 8 12
M  V30 12 1 6 10
M  V30 13 1 3 13
M  V30 14 1 6 14
M  V30 15 1 6 15
M  V30 16 1 7 16
M  V30 17 1 7 17
M  V30 18 1 8 18
M  V30 19 1 8 19
M  V30 20 1 10 20
M  V30 21 1 10 21
M  V30 22 1 11 22
M  V30 23 1 11 23
M  V30 24 1 11 24
M  V30 25 1 12 25
M  V30 26 1 12 26
M  V30 27 1 12 27
M  V30 END BOND
M  V30 END CTAB
M  END
>  <Structure No>
7933

>  <LogS>
-4.53

>  <MMFF94 Energy>
-33.488

$$$$
Compound 7934
Actelion Java MolfileCreator 2.0

  0  0  0  0  0  0              0 V3000
M  V30 BEGIN CTAB
M  V30 COUNTS 20 20 0 0 0
M  V30 BEGIN ATOM
M  V30 1 S 5.3175 0.2412 0.7238 0
M  V30 2 C 3.7139 0.2858 0.405 0
M  V30 3 N 3.1335 1.462 0.0551 0
M  V30 4 N 2.962 -0.8456 0.4886 0
M  V30 5 C 1.8055 1.536 -0.2162 0
M  V30 6 C 1.6284 -0.8158 0.2251 0
M  V30 7 C 1.0065 0.3867 -0.1384 0
M  V30 8 C -0.4424 0.4367 -0.4275 0
M  V30 9 O -0.9847 1.5289 -0.7528 0
M  V30 10 O -1.209 -0.7327 -0.3459 0
M  V30 11 C -2.6191 -0.7659 -0.5563 0
M  V30 12 C -3.357 -0.2057 0.6541 0
M  V30 13 H 3.4041 -1.7537 0.7579 0
M  V30 14 H 1.3784 2.4914 -0.4915 0
M  V30 15 H 1.0547 -1.7314 0.2998 0
M  V30 16 H -2.9292 -1.8215 -0.7052 0
M  V30 17 H -2.8886 -0.1952 -1.4715 0
M  V30 18 H -3.0789 -0.7771 1.5648 0
M  V30 19 H -4.4527 -0.2916 0.496 0
M  V30 20 H -3.1016 0.8639 0.8032 0
M  V30 END ATOM
M  V30 BEGIN BOND
M  V30 1 2 1 2
M  V30 2 1 2 3
M  V30 3 1 2 4
M  V30 4 2 3 5
M  V30 5 1 4 6
M  V30 6 1 5 7
M  V30 7 1 7 8
M  V30 8 2 8 9
M  V30 9 1 8 10
M  V30 10 1 10 11
M  V30 11 1 11 12
M  V30 12 2 6 7
M  V30 13 1 4 13
M  V30 14 1 5 14
M  V30 15 1 6 15
M  V30 16 1 11 16
M  V30 17 1 11 17
M  V30 18 1 12 18
M  V30 19 1 12 19
M  V30 20 1 12 20
M  V30 END BOND
M  V30 END CTAB
M  END
>  <Structure No>
7934

>  <LogS>
-1.74

>  <MMFF94 Energy>
-35.227

$$$$
Compound 7935
Actelion Java MolfileCreator 2.0

  0  0  0  0  0  0              0 V3000
M  V30 BEGIN CTAB
M  V30 COUNTS 23 25 0 0 0
M  V30 BEGIN ATOM
M  V30 1 S -0.0835 2.0901 -0.167 0
M  V30 2 O -0.0665 3.0107 1.02 0
M  V30 3 O -0.1572 2.8288 -1.4731 0
M  V30 4 C 1.21 0.9187 -0.1286 0
M  V30 5 C -1.2948 0.8404 -0.0317 0
M  V30 6 C 0.7356 -0.3835 -0.0163 0
M  V30 7 C 2.5762 1.1889 -0.1981 0
M  V30 8 C -0.7329 -0.4295 0.0404 0
M  V30 9 C -2.6766 1.0245 0.0051 0
M  V30 10 C 1.6256 -1.4618 0.03 0
M  V30 11 C 3.4773 0.1149 -0.1524 0
M  V30 12 C -1.5477 -1.5611 0.1526 0
M  V30 13 C -3.5028 -0.1034 0.1175 0
M  V30 14 C 3.0039 -1.2049 -0.0389 0
M  V30 15 C -2.9406 -1.3908 0.191 0
M  V30 16 H 2.9347 2.2062 -0.2853 0
M  V30 17 H -3.1037 2.0173 -0.0517 0
M  V30 18 H 1.2681 -2.479 0.1172 0
M  V30 19 H 4.5418 0.3029 -0.2049 0
M  V30 20 H -1.1219 -2.5536 0.2097 0
M  V30 21 H -4.5778 0.0175 0.1478 0
M  V30 22 H 3.7066 -2.0272 -0.0045 0
M  V30 23 H -3.5859 -2.2553 0.2776 0
M  V30 END ATOM
M  V30 BEGIN BOND
M  V30 1 2 1 2
M  V30 2 2 1 3
M  V30 3 1 1 4
M  V30 4 1 1 5
M  V30 5 2 4 6
M  V30 6 1 4 7
M  V30 7 2 5 8
M  V30 8 1 5 9
M  V30 9 1 6 10
M  V30 10 2 7 11
M  V30 11 1 8 12
M  V30 12 2 9 13
M  V30 13 2 10 14
M  V30 14 2 12 15
M  V30 15 1 6 8
M  V30 16 1 11 14
M  V30 17 1 13 15
M  V30 18 1 7 16
M  V30 19 1 9 17
M  V30 20 1 10 18
M  V30 21 1 11 19
M  V30 22 1 12 20
M  V30 23 1 13 21
M  V30 24 1 14 22
M  V30 25 1 15 23
M  V30 END BOND
M  V30 END CTAB
M  END
>  <Structure No>
7935

>  <LogS>
-4.57

>  <MMFF94 Energy>
73.819

$$$$
Compound 7936
Actelion Java MolfileCreator 2.0

  0  0  0  0  0  0              0 V3000
M  V30 BEGIN CTAB
M  V30 COUNTS 32 32 0 0 0
M  V30 BEGIN ATOM
M  V30 1 O -1.4236 -0.079 2.5319 0
M  V30 2 C -0.8422 -0.0788 1.4123 0
M  V30 3 N 0.3145 -0.9025 1.2328 0
M  V30 4 C -1.3838 0.784 0.2896 0 CFG=1
M  V30 5 C 1.2735 -0.7156 0.1394 0 CFG=1
M  V30 6 N -0.6701 0.5445 -0.9713 0
M  V30 7 C -2.8935 0.4905 0.0762 0
M  V30 8 C -1.2086 2.2635 0.6713 0
M  V30 9 C 0.5552 -0.1872 -1.0863 0
M  V30 10 C 2.3546 0.2896 0.6228 0
M  V30 11 C 1.8997 -2.0922 -0.1739 0
M  V30 12 C -3.1755 -0.9531 -0.3528 0
M  V30 13 O 1.056 -0.3541 -2.2321 0
M  V30 14 C 3.4478 0.6187 -0.3996 0
M  V30 15 H 0.5964 -1.507 2.0388 0
M  V30 16 H -1.0508 0.9837 -1.8411 0
M  V30 17 H -3.4608 0.7001 1.0102 0
M  V30 18 H -3.2968 1.1685 -0.7083 0
M  V30 19 H -1.5956 2.9213 -0.1365 0
M  V30 20 H -0.1359 2.5036 0.8242 0
M  V30 21 H -1.7592 2.4998 1.6077 0
M  V30 22 H 2.8447 -0.113 1.5365 0
M  V30 23 H 1.8645 1.2414 0.9178 0
M  V30 24 H 2.5878 -2.047 -1.0434 0
M  V30 25 H 1.1006 -2.828 -0.41 0
M  V30 26 H 2.47 -2.4695 0.7021 0
M  V30 27 H -4.2677 -1.0863 -0.5023 0
M  V30 28 H -2.6613 -1.186 -1.3089 0
M  V30 29 H -2.841 -1.6685 0.4273 0
M  V30 30 H 4.1561 1.3474 0.0483 0
M  V30 31 H 3.0153 1.0825 -1.3096 0
M  V30 32 H 4.0244 -0.2872 -0.6753 0
M  V30 END ATOM
M  V30 BEGIN BOND
M  V30 1 2 1 2
M  V30 2 1 2 3
M  V30 3 1 2 4
M  V30 4 1 3 5
M  V30 5 1 4 6
M  V30 6 1 4 7
M  V30 7 1 4 8
M  V30 8 1 5 9
M  V30 9 1 5 10
M  V30 10 1 5 11
M  V30 11 1 7 12
M  V30 12 2 9 13
M  V30 13 1 10 14
M  V30 14 1 6 9
M  V30 15 1 3 15
M  V30 16 1 6 16
M  V30 17 1 7 17
M  V30 18 1 7 18
M  V30 19 1 8 19
M  V30 20 1 8 20
M  V30 21 1 8 21
M  V30 22 1 10 22
M  V30 23 1 10 23
M  V30 24 1 11 24
M  V30 25 1 11 25
M  V30 26 1 11 26
M  V30 27 1 12 27
M  V30 28 1 12 28
M  V30 29 1 12 29
M  V30 30 1 14 30
M  V30 31 1 14 31
M  V30 32 1 14 32
M  V30 END BOND
M  V30 BEGIN COLLECTION
M  V30 MDLV30/STEABS ATOMS=(2 4 5)
M  V30 END COLLECTION
M  V30 END CTAB
M  END
>  <Structure No>
7936

>  <LogS>
-1.92

>  <MMFF94 Energy>
76.202

$$$$
Compound 7937
Actelion Java MolfileCreator 2.0

  0  0  0  0  0  0              0 V3000
M  V30 BEGIN CTAB
M  V30 COUNTS 22 24 0 0 0
M  V30 BEGIN ATOM
M  V30 1 S 0.1657 1.4927 -0.995 0
M  V30 2 C 1.4872 0.688 -0.3371 0
M  V30 3 C -1.2851 0.718 -0.6068 0
M  V30 4 C 1.2046 -0.5289 0.4522 0
M  V30 5 C 2.799 1.1252 -0.5117 0
M  V30 6 C -1.2369 -0.4552 0.1831 0
M  V30 7 C -2.5091 1.2251 -1.0564 0
M  V30 8 N -0.0657 -0.9906 0.6471 0
M  V30 9 C 2.2856 -1.216 1.0097 0
M  V30 10 C 3.8501 0.4032 0.0664 0
M  V30 11 C -2.4401 -1.099 0.5059 0
M  V30 12 C -3.697 0.5693 -0.7242 0
M  V30 13 C 3.5937 -0.7539 0.8181 0
M  V30 14 O 5.0365 0.7959 -0.0897 0
M  V30 15 C -3.6627 -0.5899 0.0551 0
M  V30 16 H 3.0041 2.0178 -1.0907 0
M  V30 17 H -2.5438 2.1231 -1.6607 0
M  V30 18 H 2.1171 -2.112 1.5944 0
M  V30 19 H -2.4304 -1.9985 1.1092 0
M  V30 20 H -4.6452 0.9597 -1.0709 0
M  V30 21 H 4.4168 -1.3025 1.2596 0
M  V30 22 H -4.5849 -1.0956 0.3106 0
M  V30 END ATOM
M  V30 BEGIN BOND
M  V30 1 1 1 2
M  V30 2 1 1 3
M  V30 3 1 2 4
M  V30 4 2 2 5
M  V30 5 2 3 6
M  V30 6 1 3 7
M  V30 7 2 4 8
M  V30 8 1 4 9
M  V30 9 1 5 10
M  V30 10 1 6 11
M  V30 11 2 7 12
M  V30 12 2 9 13
M  V30 13 2 10 14
M  V30 14 2 11 15
M  V30 15 1 6 8
M  V30 16 1 10 13
M  V30 17 1 12 15
M  V30 18 1 5 16
M  V30 19 1 7 17
M  V30 20 1 9 18
M  V30 21 1 11 19
M  V30 22 1 12 20
M  V30 23 1 13 21
M  V30 24 1 15 22
M  V30 END BOND
M  V30 END CTAB
M  END
>  <Structure No>
7937

>  <LogS>
-3.72

>  <MMFF94 Energy>
32.324

$$$$
Compound 7938
Actelion Java MolfileCreator 2.0

  0  0  0  0  0  0              0 V3000
M  V30 BEGIN CTAB
M  V30 COUNTS 27 29 0 0 0
M  V30 BEGIN ATOM
M  V30 1 S -1.2248 1.0614 -1.3882 0
M  V30 2 C -0.4377 0.1836 -0.1638 0
M  V30 3 C -2.7461 0.61 -0.8483 0
M  V30 4 N -1.3271 -0.4464 0.6467 0
M  V30 5 C 1.0294 0.0966 0.0213 0
M  V30 6 C -2.6065 -0.2059 0.2619 0
M  V30 7 C -3.9933 0.9499 -1.3661 0
M  V30 8 C 1.564 -0.6636 1.0768 0
M  V30 9 C 1.9101 0.7711 -0.8436 0
M  V30 10 C -3.7338 -0.7203 0.905 0
M  V30 11 C -5.1347 0.4386 -0.7277 0
M  V30 12 C 2.947 -0.7516 1.2597 0
M  V30 13 C 3.2931 0.6818 -0.6592 0
M  V30 14 C -5.0057 -0.3928 0.403 0
M  V30 15 C 3.8204 -0.0923 0.3836 0
M  V30 16 C 5.3027 -0.155 0.6042 0
M  V30 17 H -4.0816 1.5892 -2.2348 0
M  V30 18 H 0.9135 -1.1887 1.7652 0
M  V30 19 H 1.5358 1.3717 -1.662 0
M  V30 20 H -3.6333 -1.3588 1.7733 0
M  V30 21 H -6.1183 0.6845 -1.106 0
M  V30 22 H 3.3363 -1.3352 2.0849 0
M  V30 23 H 3.9527 1.2168 -1.3313 0
M  V30 24 H -5.8914 -0.782 0.8882 0
M  V30 25 H 5.8465 -0.0601 -0.3597 0
M  V30 26 H 5.6109 0.6722 1.277 0
M  V30 27 H 5.5895 -1.1238 1.0659 0
M  V30 END ATOM
M  V30 BEGIN BOND
M  V30 1 1 1 2
M  V30 2 1 1 3
M  V30 3 2 2 4
M  V30 4 1 2 5
M  V30 5 2 3 6
M  V30 6 1 3 7
M  V30 7 2 5 8
M  V30 8 1 5 9
M  V30 9 1 6 10
M  V30 10 2 7 11
M  V30 11 1 8 12
M  V30 12 2 9 13
M  V30 13 2 10 14
M  V30 14 2 12 15
M  V30 15 1 15 16
M  V30 16 1 4 6
M  V30 17 1 11 14
M  V30 18 1 13 15
M  V30 19 1 7 17
M  V30 20 1 8 18
M  V30 21 1 9 19
M  V30 22 1 10 20
M  V30 23 1 11 21
M  V30 24 1 12 22
M  V30 25 1 13 23
M  V30 26 1 14 24
M  V30 27 1 16 25
M  V30 28 1 16 26
M  V30 29 1 16 27
M  V30 END BOND
M  V30 END CTAB
M  END
>  <Structure No>
7938

>  <LogS>
-4.35

>  <MMFF94 Energy>
50.781

$$$$
Compound 7939
Actelion Java MolfileCreator 2.0

  0  0  0  0  0  0              0 V3000
M  V30 BEGIN CTAB
M  V30 COUNTS 20 22 0 0 0
M  V30 BEGIN ATOM
M  V30 1 O -4.2838 -1.2109 0.5649 0
M  V30 2 C -3.1863 -0.6525 0.304 0
M  V30 3 O -2.0468 -1.2835 0.5756 0
M  V30 4 C -3.1728 0.6245 -0.2684 0
M  V30 5 C -0.8547 -0.749 0.3244 0
M  V30 6 C -1.9487 1.2295 -0.5515 0
M  V30 7 C -0.7633 0.5502 -0.2586 0
M  V30 8 C 0.3146 -1.4685 0.6355 0
M  V30 9 C 0.497 1.1234 -0.5278 0
M  V30 10 C 1.5409 -0.8703 0.3554 0
M  V30 11 C 1.6269 0.376 -0.2039 0
M  V30 12 O 2.7377 -1.3614 0.5638 0
M  V30 13 C 2.9649 0.6606 -0.3444 0
M  V30 14 C 3.6157 -0.4635 0.153 0
M  V30 15 H -4.0985 1.1409 -0.4907 0
M  V30 16 H -1.9285 2.2179 -0.9946 0
M  V30 17 H 0.2656 -2.4551 1.0782 0
M  V30 18 H 0.5918 2.108 -0.97 0
M  V30 19 H 3.4132 1.5576 -0.7508 0
M  V30 20 H 4.6879 -0.5975 0.2025 0
M  V30 END ATOM
M  V30 BEGIN BOND
M  V30 1 2 1 2
M  V30 2 1 2 3
M  V30 3 1 2 4
M  V30 4 1 3 5
M  V30 5 2 4 6
M  V30 6 2 5 7
M  V30 7 1 5 8
M  V30 8 1 7 9
M  V30 9 2 8 10
M  V30 10 2 9 11
M  V30 11 1 10 12
M  V30 12 1 11 13
M  V30 13 1 12 14
M  V30 14 1 6 7
M  V30 15 1 10 11
M  V30 16 2 13 14
M  V30 17 1 4 15
M  V30 18 1 6 16
M  V30 19 1 8 17
M  V30 20 1 9 18
M  V30 21 1 13 19
M  V30 22 1 14 20
M  V30 END BOND
M  V30 END CTAB
M  END
>  <Structure No>
7939

>  <LogS>
-3.74

>  <MMFF94 Energy>
28.122

$$$$
Compound 7940
Actelion Java MolfileCreator 2.0

  0  0  0  0  0  0              0 V3000
M  V30 BEGIN CTAB
M  V30 COUNTS 27 28 0 0 0
M  V30 BEGIN ATOM
M  V30 1 O 3.2544 2.3804 -0.0792 0
M  V30 2 C 2.4003 1.544 0.3171 0
M  V30 3 C 2.3236 0.2022 -0.2735 0
M  V30 4 C 1.4886 1.8839 1.4038 0
M  V30 5 O 3.2639 -0.2039 -1.2227 0
M  V30 6 C 1.3482 -0.64 0.1227 0
M  V30 7 C 0.5444 1.0146 1.7676 0
M  V30 8 N 0.3014 -0.2257 1.0531 0 CHG=1 CFG=1
M  V30 9 C 1.306 -2.0354 -0.4463 0
M  V30 10 C -0.9669 -0.1243 0.3566 0
M  V30 11 C -2.0527 -0.9391 0.7344 0
M  V30 12 C -1.1428 0.7888 -0.7058 0
M  V30 13 C -3.2768 -0.8457 0.0654 0
M  V30 14 C -2.3693 0.8769 -1.3701 0
M  V30 15 C -3.4348 0.0604 -0.9852 0
M  V30 16 H 1.5929 2.8256 1.9286 0
M  V30 17 H 4.0107 0.4074 -1.5298 0
M  V30 18 H -0.1112 1.2825 2.5887 0
M  V30 19 H 0.2448 -0.9681 1.7895 0
M  V30 20 H 1.1859 -1.9911 -1.5494 0
M  V30 21 H 2.2446 -2.5744 -0.1975 0
M  V30 22 H 0.4536 -2.6082 -0.0246 0
M  V30 23 H -1.951 -1.6483 1.546 0
M  V30 24 H -0.3287 1.4302 -1.0176 0
M  V30 25 H -4.1041 -1.4772 0.3625 0
M  V30 26 H -2.4937 1.5793 -2.184 0
M  V30 27 H -4.3836 0.1304 -1.5012 0
M  V30 END ATOM
M  V30 BEGIN BOND
M  V30 1 2 1 2
M  V30 2 1 2 3
M  V30 3 1 2 4
M  V30 4 1 3 5
M  V30 5 2 3 6
M  V30 6 2 4 7
M  V30 7 1 6 8
M  V30 8 1 6 9
M  V30 9 1 8 10
M  V30 10 2 10 11
M  V30 11 1 10 12
M  V30 12 1 11 13
M  V30 13 2 12 14
M  V30 14 2 13 15
M  V30 15 1 7 8
M  V30 16 1 14 15
M  V30 17 1 4 16
M  V30 18 1 5 17
M  V30 19 1 7 18
M  V30 20 1 8 19
M  V30 21 1 9 20
M  V30 22 1 9 21
M  V30 23 1 9 22
M  V30 24 1 11 23
M  V30 25 1 12 24
M  V30 26 1 13 25
M  V30 27 1 14 26
M  V30 28 1 15 27
M  V30 END BOND
M  V30 BEGIN COLLECTION
M  V30 MDLV30/STEABS ATOMS=(1 8)
M  V30 END COLLECTION
M  V30 END CTAB
M  END
>  <Structure No>
7940

>  <LogS>
-2.03

>  <MMFF94 Energy>
75.543

$$$$
Compound 7941
Actelion Java MolfileCreator 2.0

  0  0  0  0  0  0              0 V3000
M  V30 BEGIN CTAB
M  V30 COUNTS 30 31 0 0 0
M  V30 BEGIN ATOM
M  V30 1 O -3.33 2.8537 -0.8713 0
M  V30 2 C -2.6575 1.7916 -0.9486 0
M  V30 3 C -2.7843 0.7392 0.0672 0
M  V30 4 C -1.7602 1.5713 -2.0773 0
M  V30 5 O -3.7285 0.8573 1.0893 0
M  V30 6 C -1.9937 -0.3502 -0.007 0
M  V30 7 C -1.003 0.4735 -2.112 0
M  V30 8 N -0.9424 -0.4738 -1.0134 0 CHG=1 CFG=1
M  V30 9 C -2.1645 -1.453 1.0068 0
M  V30 10 C 0.3599 -0.3763 -0.3821 0
M  V30 11 C 0.7484 0.7921 0.3067 0
M  V30 12 C 1.2676 -1.4499 -0.4558 0
M  V30 13 C 2.005 0.8764 0.9119 0
M  V30 14 C 2.5238 -1.3626 0.1506 0
M  V30 15 C 2.8937 -0.206 0.8515 0
M  V30 16 C 4.2571 -0.0995 1.4679 0
M  V30 17 H -1.7266 2.2818 -2.8939 0
M  V30 18 H -4.3397 1.6618 1.1613 0
M  V30 19 H -0.3559 0.3231 -2.969 0
M  V30 20 H -1.0567 -1.4188 -1.4499 0
M  V30 21 H -3.1946 -1.864 0.9494 0
M  V30 22 H -1.4487 -2.2797 0.8152 0
M  V30 23 H -1.9793 -1.0599 2.0289 0
M  V30 24 H 0.0765 1.6383 0.3714 0
M  V30 25 H 1.0028 -2.3564 -0.9852 0
M  V30 26 H 2.2843 1.7865 1.4284 0
M  V30 27 H 3.208 -2.1986 0.0739 0
M  V30 28 H 4.6189 -1.098 1.7937 0
M  V30 29 H 4.2338 0.564 2.3586 0
M  V30 30 H 4.967 0.3179 0.7237 0
M  V30 END ATOM
M  V30 BEGIN BOND
M  V30 1 2 1 2
M  V30 2 1 2 3
M  V30 3 1 2 4
M  V30 4 1 3 5
M  V30 5 2 3 6
M  V30 6 2 4 7
M  V30 7 1 6 8
M  V30 8 1 6 9
M  V30 9 1 8 10
M  V30 10 2 10 11
M  V30 11 1 10 12
M  V30 12 1 11 13
M  V30 13 2 12 14
M  V30 14 2 13 15
M  V30 15 1 15 16
M  V30 16 1 7 8
M  V30 17 1 14 15
M  V30 18 1 4 17
M  V30 19 1 5 18
M  V30 20 1 7 19
M  V30 21 1 8 20
M  V30 22 1 9 21
M  V30 23 1 9 22
M  V30 24 1 9 23
M  V30 25 1 11 24
M  V30 26 1 12 25
M  V30 27 1 13 26
M  V30 28 1 14 27
M  V30 29 1 16 28
M  V30 30 1 16 29
M  V30 31 1 16 30
M  V30 END BOND
M  V30 BEGIN COLLECTION
M  V30 MDLV30/STEABS ATOMS=(1 8)
M  V30 END COLLECTION
M  V30 END CTAB
M  END
>  <Structure No>
7941

>  <LogS>
-3.22

>  <MMFF94 Energy>
77.007

$$$$
Compound 7942
Actelion Java MolfileCreator 2.0

  0  0  0  0  0  0              0 V3000
M  V30 BEGIN CTAB
M  V30 COUNTS 36 36 0 0 0
M  V30 BEGIN ATOM
M  V30 1 O 3.1441 -0.7067 -2.672 0
M  V30 2 C 2.7966 -0.5291 -1.4721 0
M  V30 3 N 1.4233 -0.7199 -1.0981 0
M  V30 4 C 3.8183 -0.1425 -0.4694 0
M  V30 5 C 0.3843 -0.9273 -2.1084 0
M  V30 6 C 3.4677 0.5312 0.7147 0
M  V30 7 C 5.1764 -0.422 -0.698 0
M  V30 8 C -1.0091 -1.0305 -1.4739 0
M  V30 9 N 4.4256 0.8821 1.6142 0
M  V30 10 C 6.1383 -0.0533 0.2436 0
M  V30 11 C -1.4721 0.3152 -0.8889 0
M  V30 12 C 5.739 0.6025 1.408 0
M  V30 13 C -2.9162 0.2672 -0.3641 0
M  V30 14 C -3.0355 -0.502 0.9628 0
M  V30 15 C -4.4791 -0.5493 1.4876 0
M  V30 16 C -4.9557 0.796 2.0352 0
M  V30 17 H 1.1719 -0.7704 -0.0856 0
M  V30 18 H 0.4016 -0.0906 -2.8405 0
M  V30 19 H 0.598 -1.8699 -2.6571 0
M  V30 20 H 2.4417 0.8036 0.9196 0
M  V30 21 H 5.4922 -0.9344 -1.5982 0
M  V30 22 H -1.7272 -1.3519 -2.2596 0
M  V30 23 H -0.9896 -1.8137 -0.6872 0
M  V30 24 H 7.1839 -0.2743 0.0725 0
M  V30 25 H -0.7895 0.6397 -0.074 0
M  V30 26 H -1.4248 1.0854 -1.6898 0
M  V30 27 H 6.4739 0.8947 2.1462 0
M  V30 28 H -3.5817 -0.1872 -1.1302 0
M  V30 29 H -3.2494 1.3148 -0.2079 0
M  V30 30 H -2.7024 -1.5497 0.8098 0
M  V30 31 H -2.3713 -0.0456 1.7292 0
M  V30 32 H -5.1682 -0.8908 0.685 0
M  V30 33 H -4.5285 -1.2945 2.3111 0
M  V30 34 H -4.2476 1.1777 2.8011 0
M  V30 35 H -5.0564 1.5412 1.2195 0
M  V30 36 H -5.9518 0.6686 2.5091 0
M  V30 END ATOM
M  V30 BEGIN BOND
M  V30 1 2 1 2
M  V30 2 1 2 3
M  V30 3 1 2 4
M  V30 4 1 3 5
M  V30 5 2 4 6
M  V30 6 1 4 7
M  V30 7 1 5 8
M  V30 8 1 6 9
M  V30 9 2 7 10
M  V30 10 1 8 11
M  V30 11 2 9 12
M  V30 12 1 11 13
M  V30 13 1 13 14
M  V30 14 1 14 15
M  V30 15 1 15 16
M  V30 16 1 10 12
M  V30 17 1 3 17
M  V30 18 1 5 18
M  V30 19 1 5 19
M  V30 20 1 6 20
M  V30 21 1 7 21
M  V30 22 1 8 22
M  V30 23 1 8 23
M  V30 24 1 10 24
M  V30 25 1 11 25
M  V30 26 1 11 26
M  V30 27 1 12 27
M  V30 28 1 13 28
M  V30 29 1 13 29
M  V30 30 1 14 30
M  V30 31 1 14 31
M  V30 32 1 15 32
M  V30 33 1 15 33
M  V30 34 1 16 34
M  V30 35 1 16 35
M  V30 36 1 16 36
M  V30 END BOND
M  V30 END CTAB
M  END
>  <Structure No>
7942

>  <LogS>
-3.2

>  <MMFF94 Energy>
7.447

$$$$
Compound 7943
Actelion Java MolfileCreator 2.0

  0  0  0  0  0  0              0 V3000
M  V30 BEGIN CTAB
M  V30 COUNTS 18 18 0 0 0
M  V30 BEGIN ATOM
M  V30 1 O 0.8809 0.4003 -2.1634 0
M  V30 2 C 0.2389 0.2208 -1.0942 0
M  V30 3 N -1.1693 0.4751 -1.0729 0
M  V30 4 C 0.9197 -0.2844 0.1173 0 CHG=-1
M  V30 5 C -1.9573 0.1832 0.0897 0
M  V30 6 C 0.0827 -0.5979 1.2952 0
M  V30 7 C 2.3845 -0.5079 0.1473 0
M  V30 8 N -1.329 -0.3656 1.2565 0
M  V30 9 C -3.2705 0.4166 0.084 0
M  V30 10 O 0.6047 -1.0532 2.3479 0
M  V30 11 O 2.8575 -1.466 0.8149 0
M  V30 12 N 3.2786 0.3592 -0.5528 0
M  V30 13 H -1.6251 0.8572 -1.9329 0
M  V30 14 H -1.9 -0.5915 2.1029 0
M  V30 15 H -3.8761 0.1988 0.9546 0
M  V30 16 H -3.7565 0.8289 -0.7909 0
M  V30 17 H 2.9448 1.2494 -0.9831 0
M  V30 18 H 4.3024 0.1548 -0.5652 0
M  V30 END ATOM
M  V30 BEGIN BOND
M  V30 1 2 1 2
M  V30 2 1 2 3
M  V30 3 1 2 4
M  V30 4 1 3 5
M  V30 5 1 4 6
M  V30 6 1 4 7
M  V30 7 1 5 8
M  V30 8 2 5 9
M  V30 9 2 6 10
M  V30 10 2 7 11
M  V30 11 1 7 12
M  V30 12 1 6 8
M  V30 13 1 3 13
M  V30 14 1 8 14
M  V30 15 1 9 15
M  V30 16 1 9 16
M  V30 17 1 12 17
M  V30 18 1 12 18
M  V30 END BOND
M  V30 END CTAB
M  END
>  <Structure No>
7943

>  <LogS>
-2.41

>  <MMFF94 Energy>
-140.39

$$$$
Compound 7944
Actelion Java MolfileCreator 2.0

  0  0  0  0  0  0              0 V3000
M  V30 BEGIN CTAB
M  V30 COUNTS 15 16 0 0 0
M  V30 BEGIN ATOM
M  V30 1 O -2.889 -1.3634 0.1603 0
M  V30 2 C -1.8449 -0.6618 0.0867 0
M  V30 3 N -1.9413 0.71 0.0795 0
M  V30 4 N -0.6199 -1.2702 0.0145 0
M  V30 5 C -0.8245 1.4965 4.0E-4 0
M  V30 6 C 0.4803 -0.4834 -0.0634 0
M  V30 7 O -0.9177 2.753 -0.0058 0
M  V30 8 C 0.4097 0.8677 -0.0721 0
M  V30 9 N 1.7561 -0.8759 -0.1409 0
M  V30 10 N 1.6398 1.4076 -0.156 0 CHG=-1
M  V30 11 C 2.4293 0.3 -0.1956 0
M  V30 12 O 3.6839 0.3636 -0.2763 0
M  V30 13 H -2.8834 1.1601 0.1353 0
M  V30 14 H -0.5323 -2.3115 0.0191 0
M  V30 15 H 2.1384 -1.8475 -0.1557 0
M  V30 END ATOM
M  V30 BEGIN BOND
M  V30 1 2 1 2
M  V30 2 1 2 3
M  V30 3 1 2 4
M  V30 4 1 3 5
M  V30 5 1 4 6
M  V30 6 2 5 7
M  V30 7 1 5 8
M  V30 8 1 6 9
M  V30 9 1 8 10
M  V30 10 1 9 11
M  V30 11 2 11 12
M  V30 12 2 6 8
M  V30 13 1 10 11
M  V30 14 1 3 13
M  V30 15 1 4 14
M  V30 16 1 9 15
M  V30 END BOND
M  V30 END CTAB
M  END
>  <Structure No>
7944

>  <LogS>
-3.62

>  <MMFF94 Energy>
-120.92

$$$$
Compound 7945
Actelion Java MolfileCreator 2.0

  0  0  0  0  0  0              0 V3000
M  V30 BEGIN CTAB
M  V30 COUNTS 16 17 0 0 0
M  V30 BEGIN ATOM
M  V30 1 S 0.6458 3.0707 0.1614 0
M  V30 2 C 0.7495 1.4395 0.0386 0
M  V30 3 N 1.967 0.8185 -0.052 0
M  V30 4 C -0.386 0.6368 0.0227 0
M  V30 5 C 2.0648 -0.5494 -0.1553 0
M  V30 6 N -1.6878 0.9675 0.0955 0
M  V30 7 C -0.2655 -0.7102 -0.0798 0
M  V30 8 O 3.1993 -1.0919 -0.2371 0
M  V30 9 N 0.9372 -1.3263 -0.1695 0
M  V30 10 C -2.3193 -0.2316 0.0319 0
M  V30 11 N -1.4766 -1.2886 -0.0766 0
M  V30 12 O -3.5723 -0.352 0.07 0
M  V30 13 H 2.8417 1.3917 -0.0431 0
M  V30 14 H -2.1152 1.9168 0.1808 0
M  V30 15 H 0.9989 -2.3666 -0.2475 0
M  V30 16 H -1.7118 -2.3039 -0.1417 0
M  V30 END ATOM
M  V30 BEGIN BOND
M  V30 1 2 1 2
M  V30 2 1 2 3
M  V30 3 1 2 4
M  V30 4 1 3 5
M  V30 5 1 4 6
M  V30 6 2 4 7
M  V30 7 2 5 8
M  V30 8 1 5 9
M  V30 9 1 6 10
M  V30 10 1 7 11
M  V30 11 2 10 12
M  V30 12 1 7 9
M  V30 13 1 10 11
M  V30 14 1 3 13
M  V30 15 1 6 14
M  V30 16 1 9 15
M  V30 17 1 11 16
M  V30 END BOND
M  V30 END CTAB
M  END
>  <Structure No>
7945

>  <LogS>
-4.04

>  <MMFF94 Energy>
-122.35

$$$$
Compound 7946
Actelion Java MolfileCreator 2.0

  0  0  0  0  0  0              0 V3000
M  V30 BEGIN CTAB
M  V30 COUNTS 21 22 0 0 0
M  V30 BEGIN ATOM
M  V30 1 O 0.7241 2.6573 -1.1266 0
M  V30 2 C 0.8531 1.5377 -0.5614 0
M  V30 3 N 2.1741 1.0432 -0.3118 0
M  V30 4 C -0.3629 0.8027 -0.1303 0
M  V30 5 C 2.4225 -0.2015 0.3963 0
M  V30 6 C -0.494 -0.61 -0.2324 0
M  V30 7 C -1.4538 1.5552 0.3458 0
M  V30 8 C 1.9276 -1.3356 -0.4344 0
M  V30 9 N 0.541 -1.4523 -0.7708 0
M  V30 10 C -1.7097 -1.2137 0.1301 0
M  V30 11 C -2.6444 0.9321 0.7209 0
M  V30 12 O 2.7437 -2.1979 -0.8567 0
M  V30 13 C -2.7728 -0.45 0.6118 0
M  V30 14 H 2.9926 1.6132 -0.6242 0
M  V30 15 H 1.9041 -0.1917 1.379 0
M  V30 16 H 3.5132 -0.3116 0.583 0
M  V30 17 H -1.3824 2.6329 0.4327 0
M  V30 18 H 0.25 -2.3146 -1.2857 0
M  V30 19 H -1.8304 -2.2863 0.0426 0
M  V30 20 H -3.4719 1.5241 1.0902 0
M  V30 21 H -3.7002 -0.9311 0.8951 0
M  V30 END ATOM
M  V30 BEGIN BOND
M  V30 1 2 1 2
M  V30 2 1 2 3
M  V30 3 1 2 4
M  V30 4 1 3 5
M  V30 5 2 4 6
M  V30 6 1 4 7
M  V30 7 1 5 8
M  V30 8 1 6 9
M  V30 9 1 6 10
M  V30 10 2 7 11
M  V30 11 2 8 12
M  V30 12 2 10 13
M  V30 13 1 8 9
M  V30 14 1 11 13
M  V30 15 1 3 14
M  V30 16 1 5 15
M  V30 17 1 5 16
M  V30 18 1 7 17
M  V30 19 1 9 18
M  V30 20 1 10 19
M  V30 21 1 11 20
M  V30 22 1 13 21
M  V30 END BOND
M  V30 END CTAB
M  END
>  <Structure No>
7946

>  <LogS>
-2.85

>  <MMFF94 Energy>
37.032

$$$$
Compound 7947
Actelion Java MolfileCreator 2.0

  0  0  0  0  0  0              0 V3000
M  V30 BEGIN CTAB
M  V30 COUNTS 23 24 0 0 0
M  V30 BEGIN ATOM
M  V30 1 O 3.1406 2.7376 0.0 0
M  V30 2 C 3.0345 1.4858 0.0773 0
M  V30 3 O 4.1096 0.6136 0.1883 0
M  V30 4 C 1.8052 0.7368 0.0666 0
M  V30 5 C 3.6412 -0.7384 0.2565 0
M  V30 6 C 2.15 -0.5874 0.1717 0
M  V30 7 C 0.4794 1.1551 -0.0189 0
M  V30 8 C 1.1715 -1.579 0.2046 0
M  V30 9 C -0.5336 0.1743 -0.0116 0
M  V30 10 C -0.1779 -1.1938 0.1185 0
M  V30 11 N -1.9092 0.5875 -0.0761 0
M  V30 12 C -2.9515 -0.1757 -0.703 0
M  V30 13 O -2.6733 -1.1473 -1.4564 0
M  V30 14 C -4.377 0.242 -0.5438 0
M  V30 15 H 3.9358 -1.1993 1.2226 0
M  V30 16 H 4.0271 -1.3233 -0.6046 0
M  V30 17 H 0.2385 2.2078 -0.0974 0
M  V30 18 H 1.4436 -2.6216 0.3053 0
M  V30 19 H -0.9398 -1.9589 0.1808 0
M  V30 20 H -2.1537 1.539 0.2814 0
M  V30 21 H -5.0556 -0.6119 -0.753 0
M  V30 22 H -4.6011 1.0678 -1.2504 0
M  V30 23 H -4.5552 0.591 0.4949 0
M  V30 END ATOM
M  V30 BEGIN BOND
M  V30 1 2 1 2
M  V30 2 1 2 3
M  V30 3 1 2 4
M  V30 4 1 3 5
M  V30 5 2 4 6
M  V30 6 1 4 7
M  V30 7 1 6 8
M  V30 8 2 7 9
M  V30 9 2 8 10
M  V30 10 1 9 11
M  V30 11 1 11 12
M  V30 12 2 12 13
M  V30 13 1 12 14
M  V30 14 1 5 6
M  V30 15 1 9 10
M  V30 16 1 5 15
M  V30 17 1 5 16
M  V30 18 1 7 17
M  V30 19 1 8 18
M  V30 20 1 10 19
M  V30 21 1 11 20
M  V30 22 1 14 21
M  V30 23 1 14 22
M  V30 24 1 14 23
M  V30 END BOND
M  V30 END CTAB
M  END
>  <Structure No>
7947

>  <LogS>
-2.6

>  <MMFF94 Energy>
5.4591

$$$$
Compound 7948
Actelion Java MolfileCreator 2.0

  0  0  0  0  0  0              0 V3000
M  V30 BEGIN CTAB
M  V30 COUNTS 27 29 0 0 0
M  V30 BEGIN ATOM
M  V30 1 O 0.08 -2.7255 1.2819 0
M  V30 2 C 0.0505 -1.5872 0.7335 0
M  V30 3 C -1.0187 -0.7159 0.9808 0
M  V30 4 C 1.1036 -1.1798 -0.0961 0
M  V30 5 C -1.0578 0.5455 0.3292 0
M  V30 6 C -2.0428 -1.0752 1.8814 0
M  V30 7 C 1.0401 0.0869 -0.7355 0
M  V30 8 C 2.2285 -2.0088 -0.2861 0
M  V30 9 N -0.0894 0.8755 -0.6026 0
M  V30 10 C -2.1005 1.4426 0.678 0
M  V30 11 C -3.0761 -0.1873 2.1709 0
M  V30 12 C 2.1666 0.5099 -1.4874 0
M  V30 13 C 3.3008 -1.5812 -1.0651 0
M  V30 14 C -0.2756 2.0547 -1.4775 0
M  V30 15 C -3.097 1.0719 1.5816 0
M  V30 16 C 3.2755 -0.3208 -1.6521 0
M  V30 17 H -2.0403 -2.0386 2.3768 0
M  V30 18 H 2.2897 -2.985 0.1795 0
M  V30 19 H -2.1443 2.4502 0.2907 0
M  V30 20 H -3.8526 -0.4698 2.8703 0
M  V30 21 H 2.2261 1.4948 -1.9271 0
M  V30 22 H 4.1632 -2.2218 -1.1974 0
M  V30 23 H 0.1683 1.8941 -2.4812 0
M  V30 24 H -1.3463 2.2252 -1.7125 0
M  V30 25 H 0.163 2.9568 -1.0014 0
M  V30 26 H -3.886 1.7699 1.8318 0
M  V30 27 H 4.1235 0.0192 -2.2328 0
M  V30 END ATOM
M  V30 BEGIN BOND
M  V30 1 2 1 2
M  V30 2 1 2 3
M  V30 3 1 2 4
M  V30 4 2 3 5
M  V30 5 1 3 6
M  V30 6 2 4 7
M  V30 7 1 4 8
M  V30 8 1 5 9
M  V30 9 1 5 10
M  V30 10 2 6 11
M  V30 11 1 7 12
M  V30 12 2 8 13
M  V30 13 1 9 14
M  V30 14 2 10 15
M  V30 15 2 12 16
M  V30 16 1 7 9
M  V30 17 1 11 15
M  V30 18 1 13 16
M  V30 19 1 6 17
M  V30 20 1 8 18
M  V30 21 1 10 19
M  V30 22 1 11 20
M  V30 23 1 12 21
M  V30 24 1 13 22
M  V30 25 1 14 23
M  V30 26 1 14 24
M  V30 27 1 14 25
M  V30 28 1 15 26
M  V30 29 1 16 27
M  V30 END BOND
M  V30 END CTAB
M  END
>  <Structure No>
7948

>  <LogS>
-4.46

>  <MMFF94 Energy>
74.47

$$$$
Compound 7949
Actelion Java MolfileCreator 2.0

  0  0  0  0  0  0              0 V3000
M  V30 BEGIN CTAB
M  V30 COUNTS 21 22 0 0 0
M  V30 BEGIN ATOM
M  V30 1 O -3.7158 -1.5798 -1.7379 0
M  V30 2 C -2.8905 -0.9674 -1.0111 0
M  V30 3 N -3.2494 -0.2221 0.0559 0
M  V30 4 N -1.5631 -0.986 -1.217 0
M  V30 5 C -2.0469 0.2102 0.4973 0
M  V30 6 N -1.0263 -0.2483 -0.2623 0
M  V30 7 N -1.9058 1.1305 1.581 0
M  V30 8 C 0.3852 -0.0328 -0.1 0
M  V30 9 C 1.1851 0.2494 -1.2192 0
M  V30 10 C 0.9894 -0.1541 1.163 0
M  V30 11 C 2.5631 0.4373 -1.0724 0
M  V30 12 C 2.3677 0.0336 1.3062 0
M  V30 13 C 3.1536 0.3324 0.1899 0
M  V30 14 H -1.0421 -1.497 -1.9648 0
M  V30 15 H -2.7462 1.4213 2.1277 0
M  V30 16 H -0.9917 1.5856 1.7936 0
M  V30 17 H 0.7387 0.3359 -2.2017 0
M  V30 18 H 0.3974 -0.4123 2.0318 0
M  V30 19 H 3.1732 0.6632 -1.9374 0
M  V30 20 H 2.8276 -0.0593 2.2817 0
M  V30 21 H 4.2205 0.4765 0.302 0
M  V30 END ATOM
M  V30 BEGIN BOND
M  V30 1 2 1 2
M  V30 2 1 2 3
M  V30 3 1 2 4
M  V30 4 2 3 5
M  V30 5 1 4 6
M  V30 6 1 5 7
M  V30 7 1 6 8
M  V30 8 2 8 9
M  V30 9 1 8 10
M  V30 10 1 9 11
M  V30 11 2 10 12
M  V30 12 2 11 13
M  V30 13 1 5 6
M  V30 14 1 12 13
M  V30 15 1 4 14
M  V30 16 1 7 15
M  V30 17 1 7 16
M  V30 18 1 9 17
M  V30 19 1 10 18
M  V30 20 1 11 19
M  V30 21 1 12 20
M  V30 22 1 13 21
M  V30 END BOND
M  V30 END CTAB
M  END
>  <Structure No>
7949

>  <LogS>
-1.7

>  <MMFF94 Energy>
-37.937

$$$$
Compound 7950
Actelion Java MolfileCreator 2.0

  0  0  0  0  0  0              0 V3000
M  V30 BEGIN CTAB
M  V30 COUNTS 33 33 0 0 0
M  V30 BEGIN ATOM
M  V30 1 O -0.4763 4.4527 1.4295 0
M  V30 2 C -0.3272 3.2401 1.1242 0
M  V30 3 N -0.182 2.2598 2.1469 0
M  V30 4 N -0.3289 2.844 -0.2433 0
M  V30 5 C 0.0413 0.8837 1.8267 0
M  V30 6 C -0.1466 1.4752 -0.6141 0
M  V30 7 O 0.085 0.0441 2.7672 0
M  V30 8 C 0.3276 0.4312 0.3965 0
M  V30 9 O -0.3244 1.1474 -1.8191 0
M  V30 10 C 1.8697 0.2651 0.2802 0
M  V30 11 C -0.3847 -0.9304 0.1318 0
M  V30 12 C 2.3398 -0.1631 -1.0954 0
M  V30 13 C -1.8836 -0.8421 0.2978 0
M  V30 14 C 2.8354 -1.3774 -1.3935 0
M  V30 15 C -2.7132 -0.8344 -0.7546 0
M  V30 16 C 3.0216 -2.4787 -0.3913 0
M  V30 17 C -4.193 -0.7099 -0.5663 0
M  V30 18 H -0.2588 2.5487 3.1483 0
M  V30 19 H -0.5173 3.557 -0.9836 0
M  V30 20 H 2.357 1.2397 0.5046 0
M  V30 21 H 2.2285 -0.4389 1.0606 0
M  V30 22 H -0.0107 -1.6973 0.8435 0
M  V30 23 H -0.1367 -1.3074 -0.8846 0
M  V30 24 H 2.2589 0.5599 -1.9012 0
M  V30 25 H -2.2893 -0.7428 1.3012 0
M  V30 26 H 3.1276 -1.5742 -2.4209 0
M  V30 27 H -2.3197 -0.9147 -1.7641 0
M  V30 28 H 2.0496 -2.7516 0.0675 0
M  V30 29 H 3.4336 -3.376 -0.8986 0
M  V30 30 H 3.737 -2.1623 0.3962 0
M  V30 31 H -4.6988 -0.7216 -1.5543 0
M  V30 32 H -4.43 0.2459 -0.053 0
M  V30 33 H -4.5707 -1.5594 0.0407 0
M  V30 END ATOM
M  V30 BEGIN BOND
M  V30 1 2 1 2
M  V30 2 1 2 3
M  V30 3 1 2 4
M  V30 4 1 3 5
M  V30 5 1 4 6
M  V30 6 2 5 7
M  V30 7 1 5 8
M  V30 8 2 6 9
M  V30 9 1 8 10
M  V30 10 1 8 11
M  V30 11 1 10 12
M  V30 12 1 11 13
M  V30 13 2 12 14
M  V30 14 2 13 15
M  V30 15 1 14 16
M  V30 16 1 15 17
M  V30 17 1 6 8
M  V30 18 1 3 18
M  V30 19 1 4 19
M  V30 20 1 10 20
M  V30 21 1 10 21
M  V30 22 1 11 22
M  V30 23 1 11 23
M  V30 24 1 12 24
M  V30 25 1 13 25
M  V30 26 1 14 26
M  V30 27 1 15 27
M  V30 28 1 16 28
M  V30 29 1 16 29
M  V30 30 1 16 30
M  V30 31 1 17 31
M  V30 32 1 17 32
M  V30 33 1 17 33
M  V30 END BOND
M  V30 END CTAB
M  END
>  <Structure No>
7950

>  <LogS>
-2.2

>  <MMFF94 Energy>
-115.77

$$$$
Compound 7951
Actelion Java MolfileCreator 2.0

  0  0  0  0  0  0              0 V3000
M  V30 BEGIN CTAB
M  V30 COUNTS 21 22 0 0 0
M  V30 BEGIN ATOM
M  V30 1 O 0.5527 2.6078 -0.0789 0
M  V30 2 C 1.1973 1.5259 -0.0437 0
M  V30 3 N 0.6383 0.2985 0.0335 0
M  V30 4 N 2.5359 1.4586 -0.1254 0
M  V30 5 N 1.6224 -0.5881 -0.014 0
M  V30 6 C -0.756 -0.0547 0.116 0
M  V30 7 C 2.7606 0.1304 -0.105 0
M  V30 8 C -1.1963 -1.2861 -0.4015 0
M  V30 9 C -1.6905 0.7954 0.738 0
M  V30 10 N 4.058 -0.4544 -0.184 0
M  V30 11 C -2.5445 -1.6481 -0.3213 0
M  V30 12 C -3.0378 0.4283 0.8166 0
M  V30 13 C -3.465 -0.7903 0.2846 0
M  V30 14 H 3.2266 2.2377 -0.2059 0
M  V30 15 H -0.4971 -1.9614 -0.878 0
M  V30 16 H -1.3817 1.7285 1.1878 0
M  V30 17 H 4.9055 0.1504 -0.2576 0
M  V30 18 H 4.1689 -1.4922 -0.1683 0
M  V30 19 H -2.8753 -2.5945 -0.7291 0
M  V30 20 H -3.75 1.0862 1.2979 0
M  V30 21 H -4.5081 -1.0726 0.3477 0
M  V30 END ATOM
M  V30 BEGIN BOND
M  V30 1 2 1 2
M  V30 2 1 2 3
M  V30 3 1 2 4
M  V30 4 1 3 5
M  V30 5 1 3 6
M  V30 6 1 4 7
M  V30 7 2 6 8
M  V30 8 1 6 9
M  V30 9 1 7 10
M  V30 10 1 8 11
M  V30 11 2 9 12
M  V30 12 2 11 13
M  V30 13 2 5 7
M  V30 14 1 12 13
M  V30 15 1 4 14
M  V30 16 1 8 15
M  V30 17 1 9 16
M  V30 18 1 10 17
M  V30 19 1 10 18
M  V30 20 1 11 19
M  V30 21 1 12 20
M  V30 22 1 13 21
M  V30 END BOND
M  V30 END CTAB
M  END
>  <Structure No>
7951

>  <LogS>
-2.47

>  <MMFF94 Energy>
-57.646

$$$$
Compound 7952
Actelion Java MolfileCreator 2.0

  0  0  0  0  0  0              0 V3000
M  V30 BEGIN CTAB
M  V30 COUNTS 25 25 0 0 0
M  V30 BEGIN ATOM
M  V30 1 S 4.1252 -0.4846 0.0 0
M  V30 2 C 2.501 -0.2787 0.0043 0
M  V30 3 N 1.7434 -0.5647 -1.168 0
M  V30 4 N 1.8449 0.1865 1.1804 0
M  V30 5 C 0.324 -0.3962 -1.1996 0
M  V30 6 C 0.4284 0.3776 1.2195 0
M  V30 7 O -0.2935 -0.6655 -2.2661 0
M  V30 8 C -0.4606 0.0968 0.0121 0
M  V30 9 O -0.0968 0.7919 2.2892 0
M  V30 10 C -1.5142 -0.9809 0.4026 0
M  V30 11 C -1.214 1.4037 -0.3732 0
M  V30 12 C -0.9036 -2.3286 0.8075 0
M  V30 13 C -0.2886 2.5568 -0.7821 0
M  V30 14 H 2.2322 -0.9057 -2.0267 0
M  V30 15 H 2.4077 0.3942 2.0363 0
M  V30 16 H -2.2088 -1.1568 -0.4485 0
M  V30 17 H -2.1355 -0.6135 1.2495 0
M  V30 18 H -1.9115 1.2035 -1.2166 0
M  V30 19 H -1.8383 1.7468 0.4814 0
M  V30 20 H -0.2452 -2.2136 1.6938 0
M  V30 21 H -1.7176 -3.037 1.0693 0
M  V30 22 H -0.3197 -2.765 -0.0294 0
M  V30 23 H -0.9014 3.4461 -1.0401 0
M  V30 24 H 0.3156 2.2818 -1.6716 0
M  V30 25 H 0.39 2.8331 0.0515 0
M  V30 END ATOM
M  V30 BEGIN BOND
M  V30 1 2 1 2
M  V30 2 1 2 3
M  V30 3 1 2 4
M  V30 4 1 3 5
M  V30 5 1 4 6
M  V30 6 2 5 7
M  V30 7 1 5 8
M  V30 8 2 6 9
M  V30 9 1 8 10
M  V30 10 1 8 11
M  V30 11 1 10 12
M  V30 12 1 11 13
M  V30 13 1 6 8
M  V30 14 1 3 14
M  V30 15 1 4 15
M  V30 16 1 10 16
M  V30 17 1 10 17
M  V30 18 1 11 18
M  V30 19 1 11 19
M  V30 20 1 12 20
M  V30 21 1 12 21
M  V30 22 1 12 22
M  V30 23 1 13 23
M  V30 24 1 13 24
M  V30 25 1 13 25
M  V30 END BOND
M  V30 END CTAB
M  END
>  <Structure No>
7952

>  <LogS>
-2.32

>  <MMFF94 Energy>
-99.354

$$$$
Compound 7953
Actelion Java MolfileCreator 2.0

  0  0  0  0  0  0              0 V3000
M  V30 BEGIN CTAB
M  V30 COUNTS 25 26 0 0 0
M  V30 BEGIN ATOM
M  V30 1 O 0.95 -1.346 0.0 0
M  V30 2 C 2.1065 -0.5629 -0.1094 0
M  V30 3 C -0.3578 -0.8483 0.0386 0
M  V30 4 N 2.0406 0.7968 -0.1885 0
M  V30 5 C 3.3541 -1.195 -0.1375 0
M  V30 6 N -0.6952 0.4562 -0.0252 0
M  V30 7 C -1.4871 -1.6351 0.1475 0
M  V30 8 C 3.1572 1.5656 -0.2949 0
M  V30 9 C 4.5135 -0.4241 -0.2463 0
M  V30 10 N -2.0157 0.5193 0.0382 0
M  V30 11 C -2.5254 -0.7254 0.1498 0
M  V30 12 C 4.4179 0.9661 -0.3258 0
M  V30 13 C -2.7677 1.7682 0.0068 0
M  V30 14 C -3.9826 -1.0562 0.2302 0
M  V30 15 H 3.4232 -2.2736 -0.0755 0
M  V30 16 H -1.5424 -2.7135 0.2144 0
M  V30 17 H 3.0659 2.6418 -0.3555 0
M  V30 18 H 5.4835 -0.9034 -0.2689 0
M  V30 19 H 5.3105 1.5723 -0.4102 0
M  V30 20 H -3.2926 1.9135 0.9742 0
M  V30 21 H -2.0818 2.6254 -0.1619 0
M  V30 22 H -3.5118 1.7391 -0.8165 0
M  V30 23 H -4.1254 -2.1422 0.4133 0
M  V30 24 H -4.4781 -0.7832 -0.7244 0
M  V30 25 H -4.4498 -0.4892 1.0619 0
M  V30 END ATOM
M  V30 BEGIN BOND
M  V30 1 1 1 2
M  V30 2 1 1 3
M  V30 3 2 2 4
M  V30 4 1 2 5
M  V30 5 2 3 6
M  V30 6 1 3 7
M  V30 7 1 4 8
M  V30 8 2 5 9
M  V30 9 1 6 10
M  V30 10 2 7 11
M  V30 11 2 8 12
M  V30 12 1 10 13
M  V30 13 1 11 14
M  V30 14 1 9 12
M  V30 15 1 10 11
M  V30 16 1 5 15
M  V30 17 1 7 16
M  V30 18 1 8 17
M  V30 19 1 9 18
M  V30 20 1 12 19
M  V30 21 1 13 20
M  V30 22 1 13 21
M  V30 23 1 13 22
M  V30 24 1 14 23
M  V30 25 1 14 24
M  V30 26 1 14 25
M  V30 END BOND
M  V30 END CTAB
M  END
>  <Structure No>
7953

>  <LogS>
-0.98

>  <MMFF94 Energy>
18.855

$$$$
Compound 7954
Actelion Java MolfileCreator 2.0

  0  0  0  0  0  0              0 V3000
M  V30 BEGIN CTAB
M  V30 COUNTS 20 21 0 0 0
M  V30 BEGIN ATOM
M  V30 1 O -2.1531 0.239 -0.0796 0
M  V30 2 C -3.2523 -0.411 0.2103 0
M  V30 3 C -1.1869 -0.5372 0.3535 0
M  V30 4 N -2.9988 -1.583 0.8184 0
M  V30 5 N -4.5627 0.065 -0.0824 0
M  V30 6 N -1.6802 -1.6635 0.9098 0
M  V30 7 C 0.2503 -0.2188 0.2459 0
M  V30 8 C 1.2203 -1.1092 0.7375 0
M  V30 9 C 0.6638 0.9834 -0.352 0
M  V30 10 C 2.5801 -0.8006 0.6318 0
M  V30 11 C 2.0243 1.2891 -0.4562 0
M  V30 12 C 2.9861 0.3971 0.0359 0
M  V30 13 O 4.3442 0.6912 -0.0624 0
M  V30 14 H -4.6921 0.9855 -0.5573 0
M  V30 15 H -5.3999 -0.5026 0.1754 0
M  V30 16 H 0.9289 -2.0426 1.2029 0
M  V30 17 H -0.0639 1.6862 -0.7384 0
M  V30 18 H 3.3192 -1.4933 1.0138 0
M  V30 19 H 2.3295 2.2189 -0.9191 0
M  V30 20 H 4.6702 1.5507 -0.4886 0
M  V30 END ATOM
M  V30 BEGIN BOND
M  V30 1 1 1 2
M  V30 2 1 1 3
M  V30 3 2 2 4
M  V30 4 1 2 5
M  V30 5 2 3 6
M  V30 6 1 3 7
M  V30 7 2 7 8
M  V30 8 1 7 9
M  V30 9 1 8 10
M  V30 10 2 9 11
M  V30 11 2 10 12
M  V30 12 1 12 13
M  V30 13 1 4 6
M  V30 14 1 11 12
M  V30 15 1 5 14
M  V30 16 1 5 15
M  V30 17 1 8 16
M  V30 18 1 9 17
M  V30 19 1 10 18
M  V30 20 1 11 19
M  V30 21 1 13 20
M  V30 END BOND
M  V30 END CTAB
M  END
>  <Structure No>
7954

>  <LogS>
-0.77

>  <MMFF94 Energy>
-20.345

$$$$
Compound 7955
Actelion Java MolfileCreator 2.0

  0  0  0  0  0  0              0 V3000
M  V30 BEGIN CTAB
M  V30 COUNTS 32 34 0 0 0
M  V30 BEGIN ATOM
M  V30 1 O -4.9139 1.6896 2.1727 0
M  V30 2 C -4.0176 1.1205 1.4965 0
M  V30 3 O -2.7424 1.4041 1.7298 0
M  V30 4 C -4.3711 0.1991 0.5096 0
M  V30 5 C -1.7416 0.8433 1.0562 0
M  V30 6 C -3.3695 -0.432 -0.239 0
M  V30 7 C -2.0192 -0.1148 0.0294 0
M  V30 8 C -0.4072 1.2018 1.3638 0
M  V30 9 C -3.7603 -1.4272 -1.3009 0
M  V30 10 C -0.9468 -0.7139 -0.6756 0
M  V30 11 C 0.6131 0.5722 0.6469 0
M  V30 12 C -0.0964 2.1841 2.4573 0
M  V30 13 C 0.3487 -0.3442 -0.3339 0
M  V30 14 O 1.908 0.7366 0.7777 0
M  V30 15 C 1.5587 -0.7656 -0.8352 0
M  V30 16 C 2.5002 -0.0533 -0.099 0
M  V30 17 C 3.9542 -0.1502 -0.2568 0
M  V30 18 O 4.7074 0.5496 0.4732 0
M  V30 19 O 4.4929 -1.0158 -1.2131 0
M  V30 20 C 5.8936 -1.1566 -1.4164 0
M  V30 21 H -5.4175 -0.0207 0.3315 0
M  V30 22 H -4.8631 -1.5418 -1.3714 0
M  V30 23 H -3.3877 -1.0873 -2.29 0
M  V30 24 H -3.327 -2.4212 -1.0622 0
M  V30 25 H -1.1036 -1.4446 -1.458 0
M  V30 26 H -0.2692 1.7057 3.4438 0
M  V30 27 H 0.9583 2.5275 2.4054 0
M  V30 28 H -0.7514 3.0762 2.3655 0
M  V30 29 H 1.7348 -1.4885 -1.6211 0
M  V30 30 H 6.3788 -1.5162 -0.4844 0
M  V30 31 H 6.0722 -1.8964 -2.2233 0
M  V30 32 H 6.3339 -0.1822 -1.7172 0
M  V30 END ATOM
M  V30 BEGIN BOND
M  V30 1 2 1 2
M  V30 2 1 2 3
M  V30 3 1 2 4
M  V30 4 1 3 5
M  V30 5 2 4 6
M  V30 6 2 5 7
M  V30 7 1 5 8
M  V30 8 1 6 9
M  V30 9 1 7 10
M  V30 10 2 8 11
M  V30 11 1 8 12
M  V30 12 2 10 13
M  V30 13 1 11 14
M  V30 14 1 13 15
M  V30 15 1 14 16
M  V30 16 1 16 17
M  V30 17 2 17 18
M  V30 18 1 17 19
M  V30 19 1 19 20
M  V30 20 1 6 7
M  V30 21 1 11 13
M  V30 22 2 15 16
M  V30 23 1 4 21
M  V30 24 1 9 22
M  V30 25 1 9 23
M  V30 26 1 9 24
M  V30 27 1 10 25
M  V30 28 1 12 26
M  V30 29 1 12 27
M  V30 30 1 12 28
M  V30 31 1 15 29
M  V30 32 1 20 30
M  V30 33 1 20 31
M  V30 34 1 20 32
M  V30 END BOND
M  V30 END CTAB
M  END
>  <Structure No>
7955

>  <LogS>
-5.16

>  <MMFF94 Energy>
46.667

$$$$
Compound 7956
Actelion Java MolfileCreator 2.0

  0  0  0  0  0  0              0 V3000
M  V30 BEGIN CTAB
M  V30 COUNTS 25 26 0 0 0
M  V30 BEGIN ATOM
M  V30 1 O -0.722 -2.4082 2.1672 0
M  V30 2 C -0.4482 -1.5564 1.2808 0
M  V30 3 N -1.4995 -0.8249 0.6375 0
M  V30 4 N 0.9145 -1.325 0.9025 0
M  V30 5 C -1.1868 0.2627 -0.2974 0 CFG=1
M  V30 6 C 1.2562 -0.2434 -0.0292 0 CFG=1
M  V30 7 N -0.9983 1.503 0.465 0
M  V30 8 C 0.1156 -0.0742 -1.0593 0
M  V30 9 C -2.3411 0.4373 -1.2953 0
M  V30 10 N 1.4157 1.0029 0.73 0
M  V30 11 C 2.5663 -0.5794 -0.7565 0
M  V30 12 C 0.2791 1.8227 1.0305 0
M  V30 13 O 0.405 2.8275 1.7793 0
M  V30 14 H -2.4828 -0.9641 0.9642 0
M  V30 15 H 1.6727 -1.825 1.4205 0
M  V30 16 H -1.8281 2.0772 0.7388 0
M  V30 17 H 0.3635 0.7453 -1.7711 0
M  V30 18 H -0.0154 -1.0146 -1.6406 0
M  V30 19 H -3.2832 0.6799 -0.7586 0
M  V30 20 H -2.1184 1.2636 -2.0041 0
M  V30 21 H -2.4979 -0.4985 -1.8734 0
M  V30 22 H 2.3274 1.2163 1.1951 0
M  V30 23 H 2.839 0.2366 -1.4598 0
M  V30 24 H 2.4594 -1.5257 -1.3292 0
M  V30 25 H 3.3939 -0.7033 -0.0255 0
M  V30 END ATOM
M  V30 BEGIN BOND
M  V30 1 2 1 2
M  V30 2 1 2 3
M  V30 3 1 2 4
M  V30 4 1 3 5
M  V30 5 1 4 6
M  V30 6 1 5 7
M  V30 7 1 5 8
M  V30 8 1 5 9
M  V30 9 1 6 10
M  V30 10 1 6 11
M  V30 11 1 7 12
M  V30 12 2 12 13
M  V30 13 1 6 8
M  V30 14 1 10 12
M  V30 15 1 3 14
M  V30 16 1 4 15
M  V30 17 1 7 16
M  V30 18 1 8 17
M  V30 19 1 8 18
M  V30 20 1 9 19
M  V30 21 1 9 20
M  V30 22 1 9 21
M  V30 23 1 10 22
M  V30 24 1 11 23
M  V30 25 1 11 24
M  V30 26 1 11 25
M  V30 END BOND
M  V30 BEGIN COLLECTION
M  V30 MDLV30/STEABS ATOMS=(2 5 6)
M  V30 END COLLECTION
M  V30 END CTAB
M  END
>  <Structure No>
7956

>  <LogS>
-2.09

>  <MMFF94 Energy>
-294.17

$$$$
Compound 7957
Actelion Java MolfileCreator 2.0

  0  0  0  0  0  0              0 V3000
M  V30 BEGIN CTAB
M  V30 COUNTS 38 38 0 0 0
M  V30 BEGIN ATOM
M  V30 1 O 1.4223 0.0789 2.0549 0
M  V30 2 C 0.7832 0.0299 0.9683 0
M  V30 3 N -0.6469 0.0666 1.0113 0
M  V30 4 C 1.5357 -0.0646 -0.3463 0
M  V30 5 C -1.5179 0.1191 -0.1712 0
M  V30 6 N 0.6417 -0.5415 -1.4083 0
M  V30 7 C 2.718 -1.0707 -0.2167 0
M  V30 8 C 2.0552 1.3365 -0.7769 0
M  V30 9 C -0.7734 -0.328 -1.4149 0
M  V30 10 C -2.7373 -0.8203 0.0628 0
M  V30 11 C -1.9896 1.582 -0.4077 0
M  V30 12 C 2.2632 -2.5118 0.043 0
M  V30 13 C 3.0123 2.0223 0.2045 0
M  V30 14 O -1.4105 -0.5055 -2.4894 0
M  V30 15 C -2.3451 -2.292 0.2403 0
M  V30 16 C -2.6658 2.2486 0.7951 0
M  V30 17 H -1.0923 0.114 1.9564 0
M  V30 18 H 1.0754 -0.8677 -2.3028 0
M  V30 19 H 3.3964 -0.7759 0.6116 0
M  V30 20 H 3.3194 -1.0611 -1.1522 0
M  V30 21 H 2.5742 1.2464 -1.7567 0
M  V30 22 H 1.1913 2.0146 -0.9385 0
M  V30 23 H -3.2831 -0.5141 0.9798 0
M  V30 24 H -3.4513 -0.7417 -0.7864 0
M  V30 25 H -2.6984 1.613 -1.2647 0
M  V30 26 H -1.1173 2.2097 -0.6879 0
M  V30 27 H 1.6497 -2.8911 -0.8008 0
M  V30 28 H 1.6734 -2.5764 0.9813 0
M  V30 29 H 3.1541 -3.1665 0.1453 0
M  V30 30 H 2.5187 2.2092 1.1796 0
M  V30 31 H 3.9333 1.4238 0.3541 0
M  V30 32 H 3.3146 3.006 -0.2129 0
M  V30 33 H -3.2544 -2.8926 0.4532 0
M  V30 34 H -1.6405 -2.4108 1.0903 0
M  V30 35 H -1.8754 -2.6913 -0.6825 0
M  V30 36 H -3.6039 1.7259 1.0702 0
M  V30 37 H -2.929 3.2943 0.5297 0
M  V30 38 H -1.9825 2.283 1.6685 0
M  V30 END ATOM
M  V30 BEGIN BOND
M  V30 1 2 1 2
M  V30 2 1 2 3
M  V30 3 1 2 4
M  V30 4 1 3 5
M  V30 5 1 4 6
M  V30 6 1 4 7
M  V30 7 1 4 8
M  V30 8 1 5 9
M  V30 9 1 5 10
M  V30 10 1 5 11
M  V30 11 1 7 12
M  V30 12 1 8 13
M  V30 13 2 9 14
M  V30 14 1 10 15
M  V30 15 1 11 16
M  V30 16 1 6 9
M  V30 17 1 3 17
M  V30 18 1 6 18
M  V30 19 1 7 19
M  V30 20 1 7 20
M  V30 21 1 8 21
M  V30 22 1 8 22
M  V30 23 1 10 23
M  V30 24 1 10 24
M  V30 25 1 11 25
M  V30 26 1 11 26
M  V30 27 1 12 27
M  V30 28 1 12 28
M  V30 29 1 12 29
M  V30 30 1 13 30
M  V30 31 1 13 31
M  V30 32 1 13 32
M  V30 33 1 15 33
M  V30 34 1 15 34
M  V30 35 1 15 35
M  V30 36 1 16 36
M  V30 37 1 16 37
M  V30 38 1 16 38
M  V30 END BOND
M  V30 END CTAB
M  END
>  <Structure No>
7957

>  <LogS>
-2.31

>  <MMFF94 Energy>
77.78

$$$$
Compound 7958
Actelion Java MolfileCreator 2.0

  0  0  0  0  0  0              0 V3000
M  V30 BEGIN CTAB
M  V30 COUNTS 20 20 0 0 0
M  V30 BEGIN ATOM
M  V30 1 O 3.7648 0.0799 0.3999 0
M  V30 2 C 2.5318 -0.1035 0.2124 0
M  V30 3 N 2.0319 -1.3656 0.1847 0
M  V30 4 N 1.7062 0.962 0.0398 0
M  V30 5 C 0.7074 -1.5909 -0.0202 0
M  V30 6 C 0.3668 0.7976 -0.1612 0
M  V30 7 O 0.2779 -2.7769 -0.0334 0
M  V30 8 C -0.1738 -0.5094 -0.2148 0
M  V30 9 C -0.4977 2.0166 -0.3517 0
M  V30 10 C -1.6542 -0.7631 -0.4215 0
M  V30 11 C -2.3618 -0.8477 0.8946 0
M  V30 12 O -2.2562 -1.8821 1.6051 0
M  V30 13 O -3.122 0.2223 1.3491 0 CHG=-1
M  V30 14 H 2.677 -2.1771 0.3239 0
M  V30 15 H 2.1167 1.9234 0.0657 0
M  V30 16 H -1.3569 1.9927 0.349 0
M  V30 17 H -0.8681 2.0546 -1.3974 0
M  V30 18 H 0.071 2.9491 -0.1525 0
M  V30 19 H -2.1166 0.03 -1.0444 0
M  V30 20 H -1.8105 -1.7109 -0.9801 0
M  V30 END ATOM
M  V30 BEGIN BOND
M  V30 1 2 1 2
M  V30 2 1 2 3
M  V30 3 1 2 4
M  V30 4 1 3 5
M  V30 5 1 4 6
M  V30 6 2 5 7
M  V30 7 1 5 8
M  V30 8 1 6 9
M  V30 9 1 8 10
M  V30 10 1 10 11
M  V30 11 2 11 12
M  V30 12 1 11 13
M  V30 13 2 6 8
M  V30 14 1 3 14
M  V30 15 1 4 15
M  V30 16 1 9 16
M  V30 17 1 9 17
M  V30 18 1 9 18
M  V30 19 1 10 19
M  V30 20 1 10 20
M  V30 END BOND
M  V30 END CTAB
M  END
>  <Structure No>
7958

>  <LogS>
-2.31

>  <MMFF94 Energy>
-83.848

$$$$
Compound 7959
Actelion Java MolfileCreator 2.0

  0  0  0  0  0  0              0 V3000
M  V30 BEGIN CTAB
M  V30 COUNTS 32 31 0 0 0
M  V30 BEGIN ATOM
M  V30 1 S 0.0792 0.9513 -0.7927 0
M  V30 2 O 0.1988 0.9345 -2.3116 0
M  V30 3 N -1.5516 0.3065 -0.5307 0
M  V30 4 N 1.2295 -0.2781 -0.2228 0
M  V30 5 C -1.5552 -1.167 -0.4769 0
M  V30 6 C -2.1468 0.925 0.6689 0
M  V30 7 C 2.5127 -0.1514 -0.9473 0
M  V30 8 C 1.366 -0.2132 1.2511 0
M  V30 9 C -2.9004 -1.7142 -0.9474 0
M  V30 10 C -2.749 2.2797 0.3135 0
M  V30 11 C 3.4936 -1.2705 -0.5932 0
M  V30 12 C 2.0076 1.0797 1.7756 0
M  V30 13 H -0.788 -1.5821 -1.1665 0
M  V30 14 H -1.3349 -1.5376 0.5485 0
M  V30 15 H -1.3958 1.0612 1.4752 0
M  V30 16 H -2.9633 0.2958 1.0843 0
M  V30 17 H 2.9806 0.8417 -0.7766 0
M  V30 18 H 2.3255 -0.2416 -2.0381 0
M  V30 19 H 1.9496 -1.0836 1.6163 0
M  V30 20 H 0.3698 -0.3292 1.7205 0
M  V30 21 H -2.8598 -2.8233 -0.9799 0
M  V30 22 H -3.1289 -1.3358 -1.9665 0
M  V30 23 H -3.7164 -1.4152 -0.258 0
M  V30 24 H -1.9591 2.9745 -0.041 0
M  V30 25 H -3.2327 2.7209 1.2106 0
M  V30 26 H -3.5136 2.1585 -0.4829 0
M  V30 27 H 2.9829 -2.2561 -0.6316 0
M  V30 28 H 4.3306 -1.2749 -1.3231 0
M  V30 29 H 3.9261 -1.1119 0.4161 0
M  V30 30 H 1.4848 1.9776 1.3876 0
M  V30 31 H 1.9401 1.095 2.8838 0
M  V30 32 H 3.0822 1.1274 1.5049 0
M  V30 END ATOM
M  V30 BEGIN BOND
M  V30 1 2 1 2
M  V30 2 1 1 3
M  V30 3 1 1 4
M  V30 4 1 3 5
M  V30 5 1 3 6
M  V30 6 1 4 7
M  V30 7 1 4 8
M  V30 8 1 5 9
M  V30 9 1 6 10
M  V30 10 1 7 11
M  V30 11 1 8 12
M  V30 12 1 5 13
M  V30 13 1 5 14
M  V30 14 1 6 15
M  V30 15 1 6 16
M  V30 16 1 7 17
M  V30 17 1 7 18
M  V30 18 1 8 19
M  V30 19 1 8 20
M  V30 20 1 9 21
M  V30 21 1 9 22
M  V30 22 1 9 23
M  V30 23 1 10 24
M  V30 24 1 10 25
M  V30 25 1 10 26
M  V30 26 1 11 27
M  V30 27 1 11 28
M  V30 28 1 11 29
M  V30 29 1 12 30
M  V30 30 1 12 31
M  V30 31 1 12 32
M  V30 END BOND
M  V30 END CTAB
M  END
>  <Structure No>
7959

>  <LogS>
-1.28

>  <MMFF94 Energy>
-58.376

$$$$
Compound 7960
Actelion Java MolfileCreator 2.0

  0  0  0  0  0  0              0 V3000
M  V30 BEGIN CTAB
M  V30 COUNTS 26 25 0 0 0
M  V30 BEGIN ATOM
M  V30 1 O 0.0 2.6683 0.7842 0
M  V30 2 C 0.1344 1.4999 1.2355 0
M  V30 3 O 0.6249 1.3142 2.522 0 CHG=-1
M  V30 4 C -0.234 0.303 0.3875 0 CFG=2
M  V30 5 N 0.5744 0.2694 -0.8585 0 CHG=1
M  V30 6 C -1.7671 0.322 0.0793 0
M  V30 7 C 2.0376 0.3107 -0.6486 0
M  V30 8 C -2.2006 -0.861 -0.8045 0
M  V30 9 C -2.5982 0.3043 1.3766 0
M  V30 10 C 2.5665 -0.9361 0.0777 0
M  V30 11 C 4.0338 -0.9446 0.076 0
M  V30 12 N 5.1909 -0.9513 0.0747 0
M  V30 13 H -0.0322 -0.6188 0.9764 0
M  V30 14 H 0.3665 -0.6048 -1.3925 0
M  V30 15 H 0.3088 1.0822 -1.4633 0
M  V30 16 H -2.0144 1.2586 -0.469 0
M  V30 17 H 2.3364 1.2289 -0.097 0
M  V30 18 H 2.5291 0.3721 -1.6466 0
M  V30 19 H -3.3082 -0.9094 -0.8785 0
M  V30 20 H -1.8306 -1.8209 -0.3847 0
M  V30 21 H -1.8208 -0.7379 -1.8398 0
M  V30 22 H -2.3653 -0.6013 1.977 0
M  V30 23 H -3.6842 0.3077 1.1421 0
M  V30 24 H -2.3944 1.206 1.9912 0
M  V30 25 H 2.2259 -0.9436 1.1334 0
M  V30 26 H 2.2053 -1.8567 -0.4274 0
M  V30 END ATOM
M  V30 BEGIN BOND
M  V30 1 2 1 2
M  V30 2 1 2 3
M  V30 3 1 2 4
M  V30 4 1 4 5
M  V30 5 1 4 6
M  V30 6 1 5 7
M  V30 7 1 6 8
M  V30 8 1 6 9
M  V30 9 1 7 10
M  V30 10 1 10 11
M  V30 11 3 11 12
M  V30 12 1 4 13
M  V30 13 1 5 14
M  V30 14 1 5 15
M  V30 15 1 6 16
M  V30 16 1 7 17
M  V30 17 1 7 18
M  V30 18 1 8 19
M  V30 19 1 8 20
M  V30 20 1 8 21
M  V30 21 1 9 22
M  V30 22 1 9 23
M  V30 23 1 9 24
M  V30 24 1 10 25
M  V30 25 1 10 26
M  V30 END BOND
M  V30 BEGIN COLLECTION
M  V30 MDLV30/STEABS ATOMS=(1 4)
M  V30 END COLLECTION
M  V30 END CTAB
M  END
>  <Structure No>
7960

>  <LogS>
-1.12

>  <MMFF94 Energy>
7.9653

$$$$
Compound 7961
Actelion Java MolfileCreator 2.0

  0  0  0  0  0  0              0 V3000
M  V30 BEGIN CTAB
M  V30 COUNTS 29 28 0 0 0
M  V30 BEGIN ATOM
M  V30 1 O 0.0 -1.6474 -2.0399 0
M  V30 2 C -0.0034 -0.3985 -2.2077 0
M  V30 3 O 0.1189 0.1167 -3.4918 0 CHG=-1
M  V30 4 C -0.0854 0.5446 -1.0262 0 CFG=2
M  V30 5 N 1.2773 0.8914 -0.5491 0 CHG=1
M  V30 6 C -1.0541 0.0215 0.0927 0 CFG=2
M  V30 7 C 2.0191 -0.2332 0.0539 0
M  V30 8 C -2.5001 -0.117 -0.4612 0
M  V30 9 C -1.0541 0.9526 1.323 0
M  V30 10 C 3.4146 0.2183 0.4998 0
M  V30 11 C -3.409 -0.9663 0.4308 0
M  V30 12 C 4.1515 -0.9009 1.0973 0
M  V30 13 N 4.7328 -1.7835 1.5686 0
M  V30 14 H -0.5409 1.4848 -1.4146 0
M  V30 15 H 1.2215 1.6845 0.1304 0
M  V30 16 H 1.8266 1.2492 -1.3667 0
M  V30 17 H -0.7132 -0.984 0.4217 0
M  V30 18 H 1.4805 -0.6261 0.942 0
M  V30 19 H 2.1348 -1.0572 -0.6835 0
M  V30 20 H -2.9558 0.8881 -0.5992 0
M  V30 21 H -2.486 -0.606 -1.4575 0
M  V30 22 H -0.0674 0.9505 1.8276 0
M  V30 23 H -1.7829 0.6122 2.0849 0
M  V30 24 H -1.3085 1.9924 1.0258 0
M  V30 25 H 3.3274 1.0303 1.2527 0
M  V30 26 H 3.9878 0.5975 -0.3725 0
M  V30 27 H -3.6415 -0.444 1.3806 0
M  V30 28 H -2.9344 -1.946 0.651 0
M  V30 29 H -4.3692 -1.1533 -0.0948 0
M  V30 END ATOM
M  V30 BEGIN BOND
M  V30 1 2 1 2
M  V30 2 1 2 3
M  V30 3 1 2 4
M  V30 4 1 4 5
M  V30 5 1 4 6
M  V30 6 1 5 7
M  V30 7 1 6 8
M  V30 8 1 6 9
M  V30 9 1 7 10
M  V30 10 1 8 11
M  V30 11 1 10 12
M  V30 12 3 12 13
M  V30 13 1 4 14
M  V30 14 1 5 15
M  V30 15 1 5 16
M  V30 16 1 6 17
M  V30 17 1 7 18
M  V30 18 1 7 19
M  V30 19 1 8 20
M  V30 20 1 8 21
M  V30 21 1 9 22
M  V30 22 1 9 23
M  V30 23 1 9 24
M  V30 24 1 10 25
M  V30 25 1 10 26
M  V30 26 1 11 27
M  V30 27 1 11 28
M  V30 28 1 11 29
M  V30 END BOND
M  V30 BEGIN COLLECTION
M  V30 MDLV30/STEABS ATOMS=(2 4 6)
M  V30 END COLLECTION
M  V30 END CTAB
M  END
>  <Structure No>
7961

>  <LogS>
-0.98

>  <MMFF94 Energy>
8.6853

$$$$
Compound 7962
Actelion Java MolfileCreator 2.0

  0  0  0  0  0  0              0 V3000
M  V30 BEGIN CTAB
M  V30 COUNTS 26 25 0 0 0
M  V30 BEGIN ATOM
M  V30 1 O -1.9093 -1.6705 1.9093 0
M  V30 2 C -1.855 -0.4669 1.5398 0
M  V30 3 O -2.0884 0.5397 2.4684 0 CHG=-1
M  V30 4 C -1.5142 -0.1061 0.11 0 CFG=1
M  V30 5 N -0.0495 0.0079 -0.1328 0
M  V30 6 C -2.1566 -1.0712 -0.8954 0
M  V30 7 C 0.49 1.314 0.3164 0
M  V30 8 C 0.7454 -1.1331 0.3799 0
M  V30 9 C 0.4339 2.3203 -0.8345 0
M  V30 10 C 1.9668 -1.3678 -0.5138 0
M  V30 11 C 0.9841 3.6146 -0.4158 0
M  V30 12 C 2.7448 -2.5143 -0.0313 0
M  V30 13 N 1.418 4.6354 -0.0858 0
M  V30 14 N 3.3585 -3.4187 0.3491 0
M  V30 15 H -1.9955 0.8768 -0.0931 0
M  V30 16 H -1.8122 -2.1149 -0.7466 0
M  V30 17 H -1.901 -0.7587 -1.9302 0
M  V30 18 H -3.2625 -1.0493 -0.7881 0
M  V30 19 H -0.0731 1.7063 1.1927 0
M  V30 20 H 1.5517 1.2276 0.6407 0
M  V30 21 H 0.1496 -2.0702 0.3729 0
M  V30 22 H 1.0618 -0.9541 1.4334 0
M  V30 23 H -0.6142 2.4714 -1.1666 0
M  V30 24 H 1.0273 1.9389 -1.6925 0
M  V30 25 H 1.6336 -1.5726 -1.5534 0
M  V30 26 H 2.6247 -0.4745 -0.5233 0
M  V30 END ATOM
M  V30 BEGIN BOND
M  V30 1 2 1 2
M  V30 2 1 2 3
M  V30 3 1 2 4
M  V30 4 1 4 5
M  V30 5 1 4 6
M  V30 6 1 5 7
M  V30 7 1 5 8
M  V30 8 1 7 9
M  V30 9 1 8 10
M  V30 10 1 9 11
M  V30 11 1 10 12
M  V30 12 3 11 13
M  V30 13 3 12 14
M  V30 14 1 4 15
M  V30 15 1 6 16
M  V30 16 1 6 17
M  V30 17 1 6 18
M  V30 18 1 7 19
M  V30 19 1 7 20
M  V30 20 1 8 21
M  V30 21 1 8 22
M  V30 22 1 9 23
M  V30 23 1 9 24
M  V30 24 1 10 25
M  V30 25 1 10 26
M  V30 END BOND
M  V30 BEGIN COLLECTION
M  V30 MDLV30/STEABS ATOMS=(1 4)
M  V30 END COLLECTION
M  V30 END CTAB
M  END
>  <Structure No>
7962

>  <LogS>
-0.17

>  <MMFF94 Energy>
85.782

$$$$
Compound 7963
Actelion Java MolfileCreator 2.0

  0  0  0  0  0  0              0 V3000
M  V30 BEGIN CTAB
M  V30 COUNTS 20 19 0 0 0
M  V30 BEGIN ATOM
M  V30 1 O 4.011 0.8813 -0.0801 0
M  V30 2 N 2.9898 1.2897 -0.6716 0 CHG=1
M  V30 3 O 1.8473 0.5171 -0.7351 0
M  V30 4 O 3.0014 2.5281 -1.2667 0 CHG=-1
M  V30 5 C 1.7726 -0.7718 -0.1344 0
M  V30 6 C 0.3883 -1.3871 -0.3638 0
M  V30 7 C -0.6934 -0.8276 0.5751 0
M  V30 8 C -1.0557 0.6305 0.2708 0
M  V30 9 O -2.1867 1.0304 1.0396 0
M  V30 10 N -3.4723 0.6423 0.7179 0 CHG=1
M  V30 11 O -4.4197 0.9942 1.4481 0
M  V30 12 O -3.7302 -0.0892 -0.4191 0 CHG=-1
M  V30 13 H 1.9895 -0.698 0.9533 0
M  V30 14 H 2.5386 -1.4282 -0.6008 0
M  V30 15 H 0.084 -1.2533 -1.4249 0
M  V30 16 H 0.4642 -2.4809 -0.1796 0
M  V30 17 H -1.6023 -1.4562 0.4603 0
M  V30 18 H -0.3621 -0.9155 1.6327 0
M  V30 19 H -1.2668 0.7702 -0.8116 0
M  V30 20 H -0.2059 1.2873 0.5485 0
M  V30 END ATOM
M  V30 BEGIN BOND
M  V30 1 2 1 2
M  V30 2 1 2 3
M  V30 3 1 2 4
M  V30 4 1 3 5
M  V30 5 1 5 6
M  V30 6 1 6 7
M  V30 7 1 7 8
M  V30 8 1 8 9
M  V30 9 1 9 10
M  V30 10 2 10 11
M  V30 11 1 10 12
M  V30 12 1 5 13
M  V30 13 1 5 14
M  V30 14 1 6 15
M  V30 15 1 6 16
M  V30 16 1 7 17
M  V30 17 1 7 18
M  V30 18 1 8 19
M  V30 19 1 8 20
M  V30 END BOND
M  V30 END CTAB
M  END
>  <Structure No>
7963

>  <LogS>
-1.68

>  <MMFF94 Energy>
-28.306

$$$$
Compound 7964
Actelion Java MolfileCreator 2.0

  0  0  0  0  0  0              0 V3000
M  V30 BEGIN CTAB
M  V30 COUNTS 20 19 0 0 0
M  V30 BEGIN ATOM
M  V30 1 O -2.4857 1.0418 -1.7635 0
M  V30 2 N -2.3801 1.3505 -0.5581 0 CHG=1
M  V30 3 O -1.828 0.4764 0.3588 0
M  V30 4 O -2.8662 2.5611 -0.1259 0 CHG=-1
M  V30 5 C -1.257 -0.7779 -0.0164 0 CFG=1
M  V30 6 C 0.0943 -0.5783 -0.7352 0
M  V30 7 C -1.1232 -1.661 1.2258 0
M  V30 8 C 1.0982 0.2543 0.0679 0
M  V30 9 O 2.2697 0.4616 -0.7118 0
M  V30 10 N 3.3416 1.1852 -0.2317 0 CHG=1
M  V30 11 O 4.3486 1.3419 -0.9499 0
M  V30 12 O 3.3149 1.7367 1.0291 0 CHG=-1
M  V30 13 H -1.9498 -1.2978 -0.7147 0
M  V30 14 H -0.0872 -0.071 -1.7069 0
M  V30 15 H 0.5426 -1.5696 -0.9646 0
M  V30 16 H -0.6278 -2.6214 0.9691 0
M  V30 17 H -2.1326 -1.8856 1.6314 0
M  V30 18 H -0.5407 -1.1462 2.0181 0
M  V30 19 H 0.6556 1.2403 0.327 0
M  V30 20 H 1.3772 -0.2784 1.0012 0
M  V30 END ATOM
M  V30 BEGIN BOND
M  V30 1 2 1 2
M  V30 2 1 2 3
M  V30 3 1 2 4
M  V30 4 1 3 5
M  V30 5 1 5 6
M  V30 6 1 5 7
M  V30 7 1 6 8
M  V30 8 1 8 9
M  V30 9 1 9 10
M  V30 10 2 10 11
M  V30 11 1 10 12
M  V30 12 1 5 13
M  V30 13 1 6 14
M  V30 14 1 6 15
M  V30 15 1 7 16
M  V30 16 1 7 17
M  V30 17 1 7 18
M  V30 18 1 8 19
M  V30 19 1 8 20
M  V30 END BOND
M  V30 BEGIN COLLECTION
M  V30 MDLV30/STEABS ATOMS=(1 5)
M  V30 END COLLECTION
M  V30 END CTAB
M  END
>  <Structure No>
7964

>  <LogS>
-1.66

>  <MMFF94 Energy>
-26.022

$$$$
Compound 7965
Actelion Java MolfileCreator 2.0

  0  0  0  0  0  0              0 V3000
M  V30 BEGIN CTAB
M  V30 COUNTS 24 23 0 0 0
M  V30 BEGIN ATOM
M  V30 1 O 3.3712 2.9003 0.6265 0
M  V30 2 C 3.8206 1.7267 0.7012 0
M  V30 3 O 4.7592 1.4091 1.6744 0 CHG=-1
M  V30 4 C 3.3038 0.6638 -0.2155 0
M  V30 5 N 2.1263 0.0158 0.359 0
M  V30 6 C 1.4408 -1.0362 -0.3312 0
M  V30 7 O 1.8494 -1.4317 -1.4566 0
M  V30 8 C 0.2205 -1.6595 0.274 0
M  V30 9 N -0.8698 -0.6892 0.3232 0
M  V30 10 C -1.5633 -0.251 -0.8533 0
M  V30 11 O -1.272 -0.7326 -1.9814 0
M  V30 12 C -2.6756 0.7496 -0.7421 0
M  V30 13 N -3.9307 0.0882 -0.3908 0 CHG=1
M  V30 14 H 4.0997 -0.0933 -0.3816 0
M  V30 15 H 3.038 1.1166 -1.1953 0
M  V30 16 H 1.7616 0.322 1.2905 0
M  V30 17 H -0.0956 -2.5543 -0.305 0
M  V30 18 H 0.4654 -1.993 1.3051 0
M  V30 19 H -1.1624 -0.3145 1.2539 0
M  V30 20 H -2.7944 1.2864 -1.7093 0
M  V30 21 H -2.4192 1.5035 0.0343 0
M  V30 22 H -3.8369 -0.3931 0.5333 0
M  V30 23 H -4.1875 -0.6082 -1.128 0
M  V30 24 H -4.6884 0.8056 -0.3235 0
M  V30 END ATOM
M  V30 BEGIN BOND
M  V30 1 2 1 2
M  V30 2 1 2 3
M  V30 3 1 2 4
M  V30 4 1 4 5
M  V30 5 1 5 6
M  V30 6 2 6 7
M  V30 7 1 6 8
M  V30 8 1 8 9
M  V30 9 1 9 10
M  V30 10 2 10 11
M  V30 11 1 10 12
M  V30 12 1 12 13
M  V30 13 1 4 14
M  V30 14 1 4 15
M  V30 15 1 5 16
M  V30 16 1 8 17
M  V30 17 1 8 18
M  V30 18 1 9 19
M  V30 19 1 12 20
M  V30 20 1 12 21
M  V30 21 1 13 22
M  V30 22 1 13 23
M  V30 23 1 13 24
M  V30 END BOND
M  V30 END CTAB
M  END
>  <Structure No>
7965

>  <LogS>
-0.53

>  <MMFF94 Energy>
-34.249

$$$$
Compound 7966
Actelion Java MolfileCreator 2.0

  0  0  0  0  0  0              0 V3000
M  V30 BEGIN CTAB
M  V30 COUNTS 23 22 0 0 0
M  V30 BEGIN ATOM
M  V30 1 O 4.0814 -2.4793 -0.5594 0
M  V30 2 N 3.2125 -1.7868 0.0059 0 CHG=1
M  V30 3 O 2.0936 -1.392 -0.7011 0
M  V30 4 O 3.3627 -1.467 1.3363 0 CHG=-1
M  V30 5 C 1.0779 -0.5667 -0.1316 0 CFG=2
M  V30 6 C -0.1939 -0.7072 -0.9968 0
M  V30 7 C 1.5817 0.8799 -0.0612 0
M  V30 8 C -1.4524 0.0337 -0.4932 0 CFG=2
M  V30 9 O -1.2888 1.4421 -0.6506 0
M  V30 10 C -1.8012 -0.3091 0.9598 0
M  V30 11 N -2.3539 2.3207 -0.6284 0 CHG=1
M  V30 12 O -2.1396 3.5448 -0.7281 0
M  V30 13 O -3.6504 1.8657 -0.5512 0 CHG=-1
M  V30 14 H 0.8619 -0.9324 0.8948 0
M  V30 15 H -0.4404 -1.7897 -1.067 0
M  V30 16 H 0.0289 -0.3669 -2.0319 0
M  V30 17 H 0.9043 1.4995 0.5611 0
M  V30 18 H 2.5854 0.9154 0.4102 0
M  V30 19 H 1.6576 1.3178 -1.0791 0
M  V30 20 H -2.2965 -0.2977 -1.1378 0
M  V30 21 H -2.8149 0.0684 1.2075 0
M  V30 22 H -1.0791 0.1612 1.6595 0
M  V30 23 H -1.7968 -1.4097 1.1092 0
M  V30 END ATOM
M  V30 BEGIN BOND
M  V30 1 2 1 2
M  V30 2 1 2 3
M  V30 3 1 2 4
M  V30 4 1 3 5
M  V30 5 1 5 6
M  V30 6 1 5 7
M  V30 7 1 6 8
M  V30 8 1 8 9
M  V30 9 1 8 10
M  V30 10 1 9 11
M  V30 11 2 11 12
M  V30 12 1 11 13
M  V30 13 1 5 14
M  V30 14 1 6 15
M  V30 15 1 6 16
M  V30 16 1 7 17
M  V30 17 1 7 18
M  V30 18 1 7 19
M  V30 19 1 8 20
M  V30 20 1 10 21
M  V30 21 1 10 22
M  V30 22 1 10 23
M  V30 END BOND
M  V30 BEGIN COLLECTION
M  V30 MDLV30/STEABS ATOMS=(2 5 8)
M  V30 END COLLECTION
M  V30 END CTAB
M  END
>  <Structure No>
7966

>  <LogS>
-2.22

>  <MMFF94 Energy>
-21.419

$$$$
Compound 7967
Actelion Java MolfileCreator 2.0

  0  0  0  0  0  0              0 V3000
M  V30 BEGIN CTAB
M  V30 COUNTS 23 22 0 0 0
M  V30 BEGIN ATOM
M  V30 1 O -4.7991 0.3193 -0.8785 0
M  V30 2 N -4.0165 1.2643 -1.1114 0 CHG=1
M  V30 3 O -2.6712 1.1629 -0.8177 0
M  V30 4 O -4.501 2.4231 -1.6688 0 CHG=-1
M  V30 5 C -2.1113 -0.0114 -0.2397 0
M  V30 6 C -0.61 0.1854 -0.0384 0
M  V30 7 C 0.0365 -1.0703 0.5636 0
M  V30 8 C 1.5063 -0.8562 0.963 0
M  V30 9 C 2.4461 -0.689 -0.2356 0
M  V30 10 O 2.3535 0.6317 -0.7566 0
M  V30 11 N 3.0985 1.0362 -1.8448 0 CHG=1
M  V30 12 O 2.9818 2.2024 -2.2701 0
M  V30 13 O 3.9668 0.1699 -2.4688 0 CHG=-1
M  V30 14 H -2.2894 -0.8751 -0.9169 0
M  V30 15 H -2.6003 -0.2075 0.7392 0
M  V30 16 H -0.4469 1.0538 0.6368 0
M  V30 17 H -0.1514 0.4084 -1.0248 0
M  V30 18 H -0.5242 -1.3593 1.4797 0
M  V30 19 H -0.0394 -1.9152 -0.1555 0
M  V30 20 H 1.5976 0.0191 1.6427 0
M  V30 21 H 1.8356 -1.751 1.5348 0
M  V30 22 H 2.2008 -1.4288 -1.0281 0
M  V30 23 H 3.4905 -0.868 0.0996 0
M  V30 END ATOM
M  V30 BEGIN BOND
M  V30 1 2 1 2
M  V30 2 1 2 3
M  V30 3 1 2 4
M  V30 4 1 3 5
M  V30 5 1 5 6
M  V30 6 1 6 7
M  V30 7 1 7 8
M  V30 8 1 8 9
M  V30 9 1 9 10
M  V30 10 1 10 11
M  V30 11 2 11 12
M  V30 12 1 11 13
M  V30 13 1 5 14
M  V30 14 1 5 15
M  V30 15 1 6 16
M  V30 16 1 6 17
M  V30 17 1 7 18
M  V30 18 1 7 19
M  V30 19 1 8 20
M  V30 20 1 8 21
M  V30 21 1 9 22
M  V30 22 1 9 23
M  V30 END BOND
M  V30 END CTAB
M  END
>  <Structure No>
7967

>  <LogS>
-2.19

>  <MMFF94 Energy>
-26.564

$$$$
Compound 7968
Actelion Java MolfileCreator 2.0

  0  0  0  0  0  0              0 V3000
M  V30 BEGIN CTAB
M  V30 COUNTS 35 34 0 0 0
M  V30 BEGIN ATOM
M  V30 1 O 2.5384 1.2686 -1.1099 0
M  V30 2 C 1.6516 0.3835 -1.2367 0
M  V30 3 O 1.6187 -0.3804 -2.3979 0 CHG=-1
M  V30 4 C 0.6233 0.1813 -0.1409 0 CFG=1
M  V30 5 N -0.6441 0.9126 -0.4173 0
M  V30 6 C 0.3301 -1.3187 0.1281 0
M  V30 7 C -1.2319 0.6316 -1.7492 0
M  V30 8 C -0.5345 2.3646 -0.1381 0
M  V30 9 C 1.3343 -1.9996 1.0911 0
M  V30 10 C -2.7612 0.7278 -1.7026 0
M  V30 11 C -0.9739 2.6454 1.2997 0
M  V30 12 C 0.8319 -3.401 1.4642 0
M  V30 13 C 2.744 -2.0969 0.4906 0
M  V30 14 C -3.3228 -0.2674 -0.7804 0
M  V30 15 C -0.8941 4.0809 1.593 0
M  V30 16 N -3.7641 -1.0517 -0.053 0
M  V30 17 N -0.8312 5.2131 1.8247 0
M  V30 18 H 1.0597 0.5872 0.7998 0
M  V30 19 H -0.6778 -1.3856 0.5951 0
M  V30 20 H 0.2742 -1.8932 -0.8217 0
M  V30 21 H -0.8353 1.338 -2.5129 0
M  V30 22 H -0.9768 -0.3922 -2.097 0
M  V30 23 H 0.5035 2.7328 -0.2952 0
M  V30 24 H -1.1839 2.9616 -0.8175 0
M  V30 25 H 1.3939 -1.4066 2.0307 0
M  V30 26 H -3.0841 1.74 -1.3826 0
M  V30 27 H -3.1701 0.5409 -2.718 0
M  V30 28 H -2.0226 2.3077 1.4421 0
M  V30 29 H -0.3243 2.0999 2.0155 0
M  V30 30 H -0.1688 -3.3372 1.9426 0
M  V30 31 H 0.7576 -4.0436 0.5606 0
M  V30 32 H 1.5251 -3.8793 2.189 0
M  V30 33 H 2.7129 -2.5772 -0.5108 0
M  V30 34 H 3.199 -1.0895 0.4022 0
M  V30 35 H 3.4057 -2.6956 1.1525 0
M  V30 END ATOM
M  V30 BEGIN BOND
M  V30 1 2 1 2
M  V30 2 1 2 3
M  V30 3 1 2 4
M  V30 4 1 4 5
M  V30 5 1 4 6
M  V30 6 1 5 7
M  V30 7 1 5 8
M  V30 8 1 6 9
M  V30 9 1 7 10
M  V30 10 1 8 11
M  V30 11 1 9 12
M  V30 12 1 9 13
M  V30 13 1 10 14
M  V30 14 1 11 15
M  V30 15 3 14 16
M  V30 16 3 15 17
M  V30 17 1 4 18
M  V30 18 1 6 19
M  V30 19 1 6 20
M  V30 20 1 7 21
M  V30 21 1 7 22
M  V30 22 1 8 23
M  V30 23 1 8 24
M  V30 24 1 9 25
M  V30 25 1 10 26
M  V30 26 1 10 27
M  V30 27 1 11 28
M  V30 28 1 11 29
M  V30 29 1 12 30
M  V30 30 1 12 31
M  V30 31 1 12 32
M  V30 32 1 13 33
M  V30 33 1 13 34
M  V30 34 1 13 35
M  V30 END BOND
M  V30 BEGIN COLLECTION
M  V30 MDLV30/STEABS ATOMS=(1 4)
M  V30 END COLLECTION
M  V30 END CTAB
M  END
>  <Structure No>
7968

>  <LogS>
-1.14

>  <MMFF94 Energy>
95.532

$$$$
Compound 7969
Actelion Java MolfileCreator 2.0

  0  0  0  0  0  0              0 V3000
M  V30 BEGIN CTAB
M  V30 COUNTS 26 25 0 0 0
M  V30 BEGIN ATOM
M  V30 1 O 3.5922 -3.0328 -0.3986 0
M  V30 2 N 3.1264 -1.9463 -0.0021 0 CHG=1
M  V30 3 O 2.1437 -1.3191 -0.7423 0
M  V30 4 O 3.5658 -1.4168 1.1898 0 CHG=-1
M  V30 5 C 1.5924 -0.0566 -0.3685 0 CFG=2
M  V30 6 C 0.2697 0.1648 -1.1243 0
M  V30 7 C 2.5879 1.0583 -0.6998 0
M  V30 8 C -0.8261 -0.849 -0.72 0
M  V30 9 C -1.8803 -0.2914 0.2567 0 CFG=2
M  V30 10 O -2.5386 0.8287 -0.3345 0
M  V30 11 C -1.2744 0.0992 1.6085 0
M  V30 12 N -3.7466 1.3097 0.1309 0 CHG=1
M  V30 13 O -4.2506 2.3177 -0.4023 0
M  V30 14 O -4.4286 0.6654 1.1379 0 CHG=-1
M  V30 15 H 1.3971 -0.0453 0.7243 0
M  V30 16 H 0.4687 0.0571 -2.2137 0
M  V30 17 H -0.0866 1.2062 -0.9679 0
M  V30 18 H 3.5365 0.9042 -0.1447 0
M  V30 19 H 2.811 1.0671 -1.7881 0
M  V30 20 H 2.1716 2.0454 -0.4059 0
M  V30 21 H -1.3629 -1.1646 -1.6417 0
M  V30 22 H -0.3787 -1.7733 -0.2933 0
M  V30 23 H -2.6258 -1.0992 0.4289 0
M  V30 24 H -0.678 -0.7413 2.0223 0
M  V30 25 H -0.6287 0.9961 1.5042 0
M  V30 26 H -2.0807 0.3375 2.3326 0
M  V30 END ATOM
M  V30 BEGIN BOND
M  V30 1 2 1 2
M  V30 2 1 2 3
M  V30 3 1 2 4
M  V30 4 1 3 5
M  V30 5 1 5 6
M  V30 6 1 5 7
M  V30 7 1 6 8
M  V30 8 1 8 9
M  V30 9 1 9 10
M  V30 10 1 9 11
M  V30 11 1 10 12
M  V30 12 2 12 13
M  V30 13 1 12 14
M  V30 14 1 5 15
M  V30 15 1 6 16
M  V30 16 1 6 17
M  V30 17 1 7 18
M  V30 18 1 7 19
M  V30 19 1 7 20
M  V30 20 1 8 21
M  V30 21 1 8 22
M  V30 22 1 9 23
M  V30 23 1 11 24
M  V30 24 1 11 25
M  V30 25 1 11 26
M  V30 END BOND
M  V30 BEGIN COLLECTION
M  V30 MDLV30/STEABS ATOMS=(2 5 9)
M  V30 END COLLECTION
M  V30 END CTAB
M  END
>  <Structure No>
7969

>  <LogS>
-2.68

>  <MMFF94 Energy>
-20.939

$$$$
Compound 7970
Actelion Java MolfileCreator 2.0

  0  0  0  0  0  0              0 V3000
M  V30 BEGIN CTAB
M  V30 COUNTS 30 29 0 0 0
M  V30 BEGIN ATOM
M  V30 1 O 3.5867 -0.4672 1.3243 0
M  V30 2 C 4.1351 0.4174 0.6143 0
M  V30 3 N 3.3939 1.0984 -0.4101 0
M  V30 4 N 5.4944 0.7726 0.8623 0
M  V30 5 N 2.1042 0.7145 -0.8235 0
M  V30 6 C 1.7156 -0.5213 -0.9079 0
M  V30 7 C 0.3111 -0.8415 -1.3476 0 CFG=1
M  V30 8 O 0.1597 -2.2225 -1.5736 0
M  V30 9 C -0.7388 -0.3072 -0.3363 0 CFG=2
M  V30 10 O -0.4776 -0.7883 0.9607 0
M  V30 11 C -2.2001 -0.6238 -0.7821 0 CFG=2
M  V30 12 O -2.4585 -0.1254 -2.0729 0
M  V30 13 C -3.2959 -0.1441 0.2077 0 CFG=1
M  V30 14 O -3.2402 -0.9117 1.3826 0
M  V30 15 C -3.2035 1.3478 0.5606 0
M  V30 16 H 3.7691 2.0058 -0.7646 0
M  V30 17 H 6.0359 0.2946 1.6165 0
M  V30 18 H 5.9633 1.5091 0.2901 0
M  V30 19 H 2.4093 -1.3303 -0.7153 0
M  V30 20 H 0.1508 -0.3288 -2.3208 0
M  V30 21 H 0.4271 -2.703 -0.7474 0
M  V30 22 H -0.6213 0.7974 -0.3075 0
M  V30 23 H -0.7051 -1.7535 0.9805 0
M  V30 24 H -2.2998 -1.7296 -0.8458 0
M  V30 25 H -2.2184 0.8367 -2.0839 0
M  V30 26 H -4.2808 -0.3155 -0.2878 0
M  V30 27 H -4.1155 -0.8063 1.84 0
M  V30 28 H -3.2116 1.9764 -0.3529 0
M  V30 29 H -4.0802 1.6369 1.1781 0
M  V30 30 H -2.2875 1.5599 1.1503 0
M  V30 END ATOM
M  V30 BEGIN BOND
M  V30 1 2 1 2
M  V30 2 1 2 3
M  V30 3 1 2 4
M  V30 4 1 3 5
M  V30 5 2 5 6
M  V30 6 1 6 7
M  V30 7 1 7 8
M  V30 8 1 7 9
M  V30 9 1 9 10
M  V30 10 1 9 11
M  V30 11 1 11 12
M  V30 12 1 11 13
M  V30 13 1 13 14
M  V30 14 1 13 15
M  V30 15 1 3 16
M  V30 16 1 4 17
M  V30 17 1 4 18
M  V30 18 1 6 19
M  V30 19 1 7 20
M  V30 20 1 8 21
M  V30 21 1 9 22
M  V30 22 1 10 23
M  V30 23 1 11 24
M  V30 24 1 12 25
M  V30 25 1 13 26
M  V30 26 1 14 27
M  V30 27 1 15 28
M  V30 28 1 15 29
M  V30 29 1 15 30
M  V30 END BOND
M  V30 BEGIN COLLECTION
M  V30 MDLV30/STEABS ATOMS=(4 7 9 11 13)
M  V30 END COLLECTION
M  V30 END CTAB
M  END
>  <Structure No>
7970

>  <LogS>
-0.7

>  <MMFF94 Energy>
38.011

$$$$
Compound 7971
Actelion Java MolfileCreator 2.0

  0  0  0  0  0  0              0 V3000
M  V30 BEGIN CTAB
M  V30 COUNTS 32 31 0 0 0
M  V30 BEGIN ATOM
M  V30 1 S -1.3909 -0.6543 0.2453 0
M  V30 2 C -2.8276 0.169 -0.5328 0
M  V30 3 C -0.2051 -0.3015 -1.1045 0
M  V30 4 C -4.059 0.1136 0.3883 0 CFG=2
M  V30 5 C 0.481 1.0527 -0.9123 0
M  V30 6 N -4.562 -1.2592 0.5277 0 CHG=1
M  V30 7 C -5.1423 1.0064 -0.1552 0
M  V30 8 S 1.5316 1.0677 0.5869 0
M  V30 9 O -5.5209 2.0132 0.4996 0
M  V30 10 O -5.7262 0.7304 -1.386 0 CHG=-1
M  V30 11 C 3.0427 0.4343 -0.2266 0
M  V30 12 C 4.1609 0.1938 0.8022 0 CFG=1
M  V30 13 N 3.8339 -0.9263 1.6942 0 CHG=1
M  V30 14 C 5.4588 -0.0763 0.0895 0
M  V30 15 O 6.4218 0.7271 0.2012 0
M  V30 16 O 5.6002 -1.2092 -0.703 0 CHG=-1
M  V30 17 H -2.5654 1.2306 -0.7281 0
M  V30 18 H -3.057 -0.3216 -1.5034 0
M  V30 19 H 0.5559 -1.1081 -1.1183 0
M  V30 20 H -0.7191 -0.321 -2.0886 0
M  V30 21 H -3.7623 0.491 1.3937 0
M  V30 22 H 1.0858 1.2941 -1.812 0
M  V30 23 H -0.2838 1.8493 -0.8102 0
M  V30 24 H -3.8459 -1.8601 0.9951 0
M  V30 25 H -5.4218 -1.262 1.124 0
M  V30 26 H -4.7941 -1.6665 -0.4075 0
M  V30 27 H 2.819 -0.5086 -0.7685 0
M  V30 28 H 3.3791 1.1932 -0.9662 0
M  V30 29 H 4.2801 1.1173 1.4143 0
M  V30 30 H 4.6273 -1.0955 2.3549 0
M  V30 31 H 3.6548 -1.7985 1.1447 0
M  V30 32 H 2.9863 -0.6997 2.2623 0
M  V30 END ATOM
M  V30 BEGIN BOND
M  V30 1 1 1 2
M  V30 2 1 1 3
M  V30 3 1 2 4
M  V30 4 1 3 5
M  V30 5 1 4 6
M  V30 6 1 4 7
M  V30 7 1 5 8
M  V30 8 2 7 9
M  V30 9 1 7 10
M  V30 10 1 8 11
M  V30 11 1 11 12
M  V30 12 1 12 13
M  V30 13 1 12 14
M  V30 14 2 14 15
M  V30 15 1 14 16
M  V30 16 1 2 17
M  V30 17 1 2 18
M  V30 18 1 3 19
M  V30 19 1 3 20
M  V30 20 1 4 21
M  V30 21 1 5 22
M  V30 22 1 5 23
M  V30 23 1 6 24
M  V30 24 1 6 25
M  V30 25 1 6 26
M  V30 26 1 11 27
M  V30 27 1 11 28
M  V30 28 1 12 29
M  V30 29 1 13 30
M  V30 30 1 13 31
M  V30 31 1 13 32
M  V30 END BOND
M  V30 BEGIN COLLECTION
M  V30 MDLV30/STEABS ATOMS=(2 4 12)
M  V30 END COLLECTION
M  V30 END CTAB
M  END
>  <Structure No>
7971

>  <LogS>
-2.85

>  <MMFF94 Energy>
6.801

$$$$
Compound 7972
Actelion Java MolfileCreator 2.0

  0  0  0  0  0  0              0 V3000
M  V30 BEGIN CTAB
M  V30 COUNTS 35 34 0 0 0
M  V30 BEGIN ATOM
M  V30 1 S -1.9573 1.6309 0.5705 0
M  V30 2 C -3.409 0.7618 -0.1352 0
M  V30 3 C -0.7929 0.2176 0.5028 0
M  V30 4 C -4.2334 0.0584 0.9596 0 CFG=2
M  V30 5 C -0.0672 0.1428 -0.8484 0
M  V30 6 N -5.2998 -0.7506 0.3585 0 CHG=1
M  V30 7 C -4.8231 1.0646 1.9137 0
M  V30 8 C 0.9117 1.3034 -1.0797 0
M  V30 9 O -4.4633 1.0785 3.1205 0
M  V30 10 O -5.761 1.9886 1.4681 0 CHG=-1
M  V30 11 S 2.3387 1.2322 0.0656 0
M  V30 12 C 3.3767 0.1477 -0.9802 0
M  V30 13 C 4.6745 -0.2407 -0.2499 0 CFG=1
M  V30 14 N 4.4025 -1.1271 0.89 0 CHG=1
M  V30 15 C 5.6249 -0.9046 -1.2103 0
M  V30 16 O 5.3419 -2.0215 -1.7199 0
M  V30 17 O 6.8174 -0.2786 -1.5508 0 CHG=-1
M  V30 18 H -3.0807 0.0243 -0.8973 0
M  V30 19 H -4.0413 1.5109 -0.6583 0
M  V30 20 H -1.3316 -0.7362 0.6816 0
M  V30 21 H -0.057 0.3278 1.3259 0
M  V30 22 H -3.56 -0.6212 1.5284 0
M  V30 23 H -0.8162 0.1389 -1.6684 0
M  V30 24 H 0.4812 -0.8205 -0.9066 0
M  V30 25 H -5.858 -1.2175 1.1103 0
M  V30 26 H -4.8813 -1.4943 -0.2465 0
M  V30 27 H -5.9345 -0.1544 -0.2219 0
M  V30 28 H 1.2646 1.2831 -2.1328 0
M  V30 29 H 0.3926 2.2734 -0.9345 0
M  V30 30 H 3.6289 0.7042 -1.9093 0
M  V30 31 H 2.8135 -0.7673 -1.2608 0
M  V30 32 H 5.1584 0.6891 0.1258 0
M  V30 33 H 3.8288 -0.627 1.6067 0
M  V30 34 H 3.8905 -1.9851 0.5794 0
M  V30 35 H 5.3033 -1.4105 1.3406 0
M  V30 END ATOM
M  V30 BEGIN BOND
M  V30 1 1 1 2
M  V30 2 1 1 3
M  V30 3 1 2 4
M  V30 4 1 3 5
M  V30 5 1 4 6
M  V30 6 1 4 7
M  V30 7 1 5 8
M  V30 8 2 7 9
M  V30 9 1 7 10
M  V30 10 1 8 11
M  V30 11 1 11 12
M  V30 12 1 12 13
M  V30 13 1 13 14
M  V30 14 1 13 15
M  V30 15 2 15 16
M  V30 16 1 15 17
M  V30 17 1 2 18
M  V30 18 1 2 19
M  V30 19 1 3 20
M  V30 20 1 3 21
M  V30 21 1 4 22
M  V30 22 1 5 23
M  V30 23 1 5 24
M  V30 24 1 6 25
M  V30 25 1 6 26
M  V30 26 1 6 27
M  V30 27 1 8 28
M  V30 28 1 8 29
M  V30 29 1 12 30
M  V30 30 1 12 31
M  V30 31 1 13 32
M  V30 32 1 14 33
M  V30 33 1 14 34
M  V30 34 1 14 35
M  V30 END BOND
M  V30 BEGIN COLLECTION
M  V30 MDLV30/STEABS ATOMS=(2 4 13)
M  V30 END COLLECTION
M  V30 END CTAB
M  END
>  <Structure No>
7972

>  <LogS>
-2.49

>  <MMFF94 Energy>
-31.231

$$$$
Compound 7973
Actelion Java MolfileCreator 2.0

  0  0  0  0  0  0              0 V3000
M  V30 BEGIN CTAB
M  V30 COUNTS 38 37 0 0 0
M  V30 BEGIN ATOM
M  V30 1 S -3.0086 -0.975 -0.3249 0
M  V30 2 C -3.5139 0.7518 0.028 0
M  V30 3 C -1.2099 -0.6508 -0.3404 0
M  V30 4 C -5.0352 0.8927 0.2268 0 CFG=2
M  V30 5 C -0.6236 -0.8268 1.0648 0
M  V30 6 N -5.5007 0.1335 1.3952 0 CHG=1
M  V30 7 C -5.7875 0.4967 -1.0181 0
M  V30 8 C 0.8626 -0.4451 1.1357 0
M  V30 9 O -6.0065 1.3506 -1.9172 0
M  V30 10 O -6.2004 -0.8167 -1.2097 0 CHG=-1
M  V30 11 C 1.7653 -1.4528 0.4151 0
M  V30 12 S 3.5255 -1.0476 0.6955 0
M  V30 13 C 3.6874 0.102 -0.7186 0
M  V30 14 C 5.0841 0.7476 -0.7454 0 CFG=2
M  V30 15 N 5.2705 1.6675 0.3851 0 CHG=1
M  V30 16 C 5.2884 1.4755 -2.0472 0
M  V30 17 O 4.5928 2.4871 -2.3298 0
M  V30 18 O 6.2407 1.0244 -2.9524 0 CHG=-1
M  V30 19 H -3.1971 1.3995 -0.8179 0
M  V30 20 H -2.9967 1.1119 0.942 0
M  V30 21 H -0.7491 -1.3863 -1.031 0
M  V30 22 H -0.9965 0.3671 -0.731 0
M  V30 23 H -5.2417 1.971 0.4158 0
M  V30 24 H -1.1776 -0.175 1.7735 0
M  V30 25 H -0.7619 -1.8777 1.4004 0
M  V30 26 H -6.5228 0.3042 1.5401 0
M  V30 27 H -5.3428 -0.8921 1.2699 0
M  V30 28 H -4.9922 0.4545 2.251 0
M  V30 29 H 1.0073 0.5721 0.7139 0
M  V30 30 H 1.1589 -0.4084 2.2068 0
M  V30 31 H 1.5454 -1.4784 -0.6721 0
M  V30 32 H 1.5834 -2.4684 0.8262 0
M  V30 33 H 2.908 0.891 -0.6612 0
M  V30 34 H 3.5323 -0.478 -1.6544 0
M  V30 35 H 5.8466 -0.061 -0.6795 0
M  V30 36 H 4.5298 2.4067 0.3886 0
M  V30 37 H 6.2093 2.1245 0.3184 0
M  V30 38 H 5.2332 1.1417 1.2877 0
M  V30 END ATOM
M  V30 BEGIN BOND
M  V30 1 1 1 2
M  V30 2 1 1 3
M  V30 3 1 2 4
M  V30 4 1 3 5
M  V30 5 1 4 6
M  V30 6 1 4 7
M  V30 7 1 5 8
M  V30 8 2 7 9
M  V30 9 1 7 10
M  V30 10 1 8 11
M  V30 11 1 11 12
M  V30 12 1 12 13
M  V30 13 1 13 14
M  V30 14 1 14 15
M  V30 15 1 14 16
M  V30 16 2 16 17
M  V30 17 1 16 18
M  V30 18 1 2 19
M  V30 19 1 2 20
M  V30 20 1 3 21
M  V30 21 1 3 22
M  V30 22 1 4 23
M  V30 23 1 5 24
M  V30 24 1 5 25
M  V30 25 1 6 26
M  V30 26 1 6 27
M  V30 27 1 6 28
M  V30 28 1 8 29
M  V30 29 1 8 30
M  V30 30 1 11 31
M  V30 31 1 11 32
M  V30 32 1 13 33
M  V30 33 1 13 34
M  V30 34 1 14 35
M  V30 35 1 15 36
M  V30 36 1 15 37
M  V30 37 1 15 38
M  V30 END BOND
M  V30 BEGIN COLLECTION
M  V30 MDLV30/STEABS ATOMS=(2 4 14)
M  V30 END COLLECTION
M  V30 END CTAB
M  END
>  <Structure No>
7973

>  <LogS>
-3.62

>  <MMFF94 Energy>
-33.648

$$$$
Compound 7974
Actelion Java MolfileCreator 2.0

  0  0  0  0  0  0              0 V3000
M  V30 BEGIN CTAB
M  V30 COUNTS 41 40 0 0 0
M  V30 BEGIN ATOM
M  V30 1 S 3.3257 0.8103 2.0269 0
M  V30 2 C 3.7237 0.8148 0.2396 0
M  V30 3 C 1.5489 0.4281 1.829 0
M  V30 4 C 5.2011 1.1751 0.0076 0 CFG=2
M  V30 5 C 0.738 1.7194 1.6716 0
M  V30 6 N 5.4731 1.3321 -1.4257 0 CHG=1
M  V30 7 C 6.1089 0.124 0.592 0
M  V30 8 C -0.7766 1.4634 1.6348 0
M  V30 9 O 6.9441 0.4335 1.4827 0
M  V30 10 O 6.0359 -1.1914 0.1485 0 CHG=-1
M  V30 11 C -1.2367 0.846 0.3061 0
M  V30 12 C -2.7597 0.7023 0.2681 0
M  V30 13 S -3.2961 -0.0102 -1.3284 0
M  V30 14 C -3.0957 -1.7791 -0.8746 0
M  V30 15 C -4.4373 -2.4778 -0.5726 0 CFG=2
M  V30 16 N -5.3297 -2.4713 -1.7403 0 CHG=1
M  V30 17 C -5.1109 -1.8817 0.6364 0
M  V30 18 O -5.876 -0.887 0.5243 0
M  V30 19 O -4.8505 -2.4031 1.8975 0 CHG=-1
M  V30 20 H 3.503 -0.1842 -0.1946 0
M  V30 21 H 3.0827 1.5658 -0.2683 0
M  V30 22 H 1.3944 -0.2496 0.9642 0
M  V30 23 H 1.2153 -0.1047 2.7447 0
M  V30 24 H 5.4033 2.1482 0.5114 0
M  V30 25 H 1.0495 2.2612 0.7533 0
M  V30 26 H 0.956 2.3794 2.5396 0
M  V30 27 H 5.2611 0.4463 -1.9408 0
M  V30 28 H 4.8851 2.1041 -1.8162 0
M  V30 29 H 6.4789 1.5818 -1.5704 0
M  V30 30 H -1.0699 0.8046 2.4819 0
M  V30 31 H -1.2932 2.4384 1.7737 0
M  V30 32 H -0.9131 1.4949 -0.537 0
M  V30 33 H -0.7741 -0.1538 0.1764 0
M  V30 34 H -3.1142 0.0808 1.1175 0
M  V30 35 H -3.2257 1.706 0.364 0
M  V30 36 H -2.612 -2.2916 -1.7329 0
M  V30 37 H -2.4099 -1.9022 -0.0096 0
M  V30 38 H -4.2024 -3.5385 -0.3287 0
M  V30 39 H -4.8543 -2.9293 -2.5515 0
M  V30 40 H -6.1974 -3.0138 -1.5214 0
M  V30 41 H -5.5988 -1.4969 -2.0076 0
M  V30 END ATOM
M  V30 BEGIN BOND
M  V30 1 1 1 2
M  V30 2 1 1 3
M  V30 3 1 2 4
M  V30 4 1 3 5
M  V30 5 1 4 6
M  V30 6 1 4 7
M  V30 7 1 5 8
M  V30 8 2 7 9
M  V30 9 1 7 10
M  V30 10 1 8 11
M  V30 11 1 11 12
M  V30 12 1 12 13
M  V30 13 1 13 14
M  V30 14 1 14 15
M  V30 15 1 15 16
M  V30 16 1 15 17
M  V30 17 2 17 18
M  V30 18 1 17 19
M  V30 19 1 2 20
M  V30 20 1 2 21
M  V30 21 1 3 22
M  V30 22 1 3 23
M  V30 23 1 4 24
M  V30 24 1 5 25
M  V30 25 1 5 26
M  V30 26 1 6 27
M  V30 27 1 6 28
M  V30 28 1 6 29
M  V30 29 1 8 30
M  V30 30 1 8 31
M  V30 31 1 11 32
M  V30 32 1 11 33
M  V30 33 1 12 34
M  V30 34 1 12 35
M  V30 35 1 14 36
M  V30 36 1 14 37
M  V30 37 1 15 38
M  V30 38 1 16 39
M  V30 39 1 16 40
M  V30 40 1 16 41
M  V30 END BOND
M  V30 BEGIN COLLECTION
M  V30 MDLV30/STEABS ATOMS=(2 4 15)
M  V30 END COLLECTION
M  V30 END CTAB
M  END
>  <Structure No>
7974

>  <LogS>
-2.91

>  <MMFF94 Energy>
-7.9649

$$$$
Compound 7975
Actelion Java MolfileCreator 2.0

  0  0  0  0  0  0              0 V3000
M  V30 BEGIN CTAB
M  V30 COUNTS 44 43 0 0 0
M  V30 BEGIN ATOM
M  V30 1 S 3.8038 -1.5364 0.4041 0
M  V30 2 C 5.3827 -0.9867 -0.3431 0
M  V30 3 C 2.7173 -0.5601 -0.6926 0
M  V30 4 C 5.9007 0.3121 0.305 0 CFG=1
M  V30 5 C 1.2588 -0.7516 -0.2782 0
M  V30 6 N 6.2837 0.0959 1.7069 0 CHG=1
M  V30 7 C 7.0712 0.8424 -0.4787 0
M  V30 8 C 0.3175 0.0477 -1.1915 0
M  V30 9 O 8.1588 0.2074 -0.5116 0
M  V30 10 O 6.9505 2.031 -1.1877 0 CHG=-1
M  V30 11 C -1.1471 -0.0097 -0.7294 0
M  V30 12 C -1.7992 -1.3751 -1.0013 0
M  V30 13 C -3.2645 -1.4194 -0.5556 0
M  V30 14 S -4.3327 -0.4154 -1.6566 0
M  V30 15 C -4.5524 1.0244 -0.5429 0
M  V30 16 C -5.9201 0.9861 0.1635 0 CFG=1
M  V30 17 N -5.9929 -0.1075 1.1404 0 CHG=1
M  V30 18 C -6.1756 2.3036 0.8452 0
M  V30 19 O -7.1051 3.0536 0.4461 0
M  V30 20 O -5.3796 2.7071 1.9107 0 CHG=-1
M  V30 21 H 5.2526 -0.8454 -1.4381 0
M  V30 22 H 6.1298 -1.7971 -0.2041 0
M  V30 23 H 2.9846 0.5152 -0.6232 0
M  V30 24 H 2.8537 -0.9029 -1.7408 0
M  V30 25 H 5.0941 1.0768 0.2712 0
M  V30 26 H 1.0133 -1.8329 -0.3357 0
M  V30 27 H 1.1335 -0.4132 0.7736 0
M  V30 28 H 5.4447 -0.1657 2.2727 0
M  V30 29 H 6.9999 -0.6627 1.7839 0
M  V30 30 H 6.6772 0.9793 2.1066 0
M  V30 31 H 0.3983 -0.322 -2.2372 0
M  V30 32 H 0.6355 1.1136 -1.1866 0
M  V30 33 H -1.7044 0.7735 -1.286 0
M  V30 34 H -1.2111 0.2343 0.3535 0
M  V30 35 H -1.7352 -1.6176 -2.0845 0
M  V30 36 H -1.2537 -2.1635 -0.4419 0
M  V30 37 H -3.3559 -1.1251 0.5107 0
M  V30 38 H -3.6173 -2.4696 -0.6289 0
M  V30 39 H -3.729 1.1086 0.1972 0
M  V30 40 H -4.5042 1.931 -1.1837 0
M  V30 41 H -6.7087 0.8297 -0.6077 0
M  V30 42 H -6.9096 -0.0722 1.6435 0
M  V30 43 H -5.2178 -0.0333 1.8392 0
M  V30 44 H -5.9328 -1.0299 0.6526 0
M  V30 END ATOM
M  V30 BEGIN BOND
M  V30 1 1 1 2
M  V30 2 1 1 3
M  V30 3 1 2 4
M  V30 4 1 3 5
M  V30 5 1 4 6
M  V30 6 1 4 7
M  V30 7 1 5 8
M  V30 8 2 7 9
M  V30 9 1 7 10
M  V30 10 1 8 11
M  V30 11 1 11 12
M  V30 12 1 12 13
M  V30 13 1 13 14
M  V30 14 1 14 15
M  V30 15 1 15 16
M  V30 16 1 16 17
M  V30 17 1 16 18
M  V30 18 2 18 19
M  V30 19 1 18 20
M  V30 20 1 2 21
M  V30 21 1 2 22
M  V30 22 1 3 23
M  V30 23 1 3 24
M  V30 24 1 4 25
M  V30 25 1 5 26
M  V30 26 1 5 27
M  V30 27 1 6 28
M  V30 28 1 6 29
M  V30 29 1 6 30
M  V30 30 1 8 31
M  V30 31 1 8 32
M  V30 32 1 11 33
M  V30 33 1 11 34
M  V30 34 1 12 35
M  V30 35 1 12 36
M  V30 36 1 13 37
M  V30 37 1 13 38
M  V30 38 1 15 39
M  V30 39 1 15 40
M  V30 40 1 16 41
M  V30 41 1 17 42
M  V30 42 1 17 43
M  V30 43 1 17 44
M  V30 END BOND
M  V30 BEGIN COLLECTION
M  V30 MDLV30/STEABS ATOMS=(2 4 16)
M  V30 END COLLECTION
M  V30 END CTAB
M  END
>  <Structure No>
7975

>  <LogS>
-2.77

>  <MMFF94 Energy>
-29.041

$$$$
Compound 7976
Actelion Java MolfileCreator 2.0

  0  0  0  0  0  0              0 V3000
M  V30 BEGIN CTAB
M  V30 COUNTS 17 18 0 0 0
M  V30 BEGIN ATOM
M  V30 1 O 0.2373 3.4847 -0.7911 0
M  V30 2 C 0.2088 2.2549 -0.5235 0
M  V30 3 N 1.3858 1.5642 -0.3804 0
M  V30 4 N -0.9922 1.6139 -0.3766 0
M  V30 5 C 1.4025 0.2288 -0.0901 0
M  V30 6 C -0.978 0.2899 -0.0887 0
M  V30 7 N 2.6428 -0.4641 0.053 0
M  V30 8 C 0.1752 -0.4109 0.0567 0
M  V30 9 N -2.0375 -0.5134 0.0925 0
M  V30 10 N -0.1108 -1.6942 0.3375 0
M  V30 11 C -1.4675 -1.7165 0.3506 0
M  V30 12 O -2.1358 -2.7584 0.5813 0
M  V30 13 H -1.896 2.1277 -0.4827 0
M  V30 14 H 3.5443 0.0492 -0.0641 0
M  V30 15 H 2.6741 -1.4834 0.2745 0
M  V30 16 H -3.0522 -0.2709 0.046 0
M  V30 17 H 0.5449 -2.4887 0.5064 0
M  V30 END ATOM
M  V30 BEGIN BOND
M  V30 1 2 1 2
M  V30 2 1 2 3
M  V30 3 1 2 4
M  V30 4 2 3 5
M  V30 5 1 4 6
M  V30 6 1 5 7
M  V30 7 1 5 8
M  V30 8 1 6 9
M  V30 9 1 8 10
M  V30 10 1 9 11
M  V30 11 2 11 12
M  V30 12 2 6 8
M  V30 13 1 10 11
M  V30 14 1 4 13
M  V30 15 1 7 14
M  V30 16 1 7 15
M  V30 17 1 9 16
M  V30 18 1 10 17
M  V30 END BOND
M  V30 END CTAB
M  END
>  <Structure No>
7976

>  <LogS>
-3.46

>  <MMFF94 Energy>
-123.7

$$$$
Compound 7977
Actelion Java MolfileCreator 2.0

  0  0  0  0  0  0              0 V3000
M  V30 BEGIN CTAB
M  V30 COUNTS 55 54 0 0 0
M  V30 BEGIN ATOM
M  V30 1 O -5.0384 -0.3929 -1.3364 0
M  V30 2 C -4.4027 0.5551 -1.8686 0
M  V30 3 O -5.0401 1.7699 -2.0885 0 CHG=-1
M  V30 4 C -2.9695 0.371 -2.286 0 CFG=1
M  V30 5 N -2.205 -0.1282 -1.1381 0
M  V30 6 C -2.8444 -0.6005 -3.4906 0
M  V30 7 C -1.5658 0.7475 -0.1973 0
M  V30 8 C -3.6344 -0.0928 -4.7097 0
M  V30 9 C -1.3715 -0.7993 -3.8849 0
M  V30 10 O -1.6082 1.9973 -0.3634 0
M  V30 11 C -0.8895 0.1804 1.0218 0 CFG=1
M  V30 12 N 0.3924 0.8604 1.2343 0
M  V30 13 C -1.7996 0.3504 2.2543 0
M  V30 14 C 1.6603 0.1995 1.1111 0
M  V30 15 C -1.1849 -0.202 3.5639 0
M  V30 16 O 1.7164 -1.0225 0.8026 0
M  V30 17 C 2.9306 0.9499 1.4081 0 CFG=2
M  V30 18 C -2.0475 0.2154 4.762 0
M  V30 19 C -1.044 -1.7313 3.5324 0
M  V30 20 N 3.994 0.5301 0.4903 0
M  V30 21 C 3.3458 0.7073 2.861 0
M  V30 22 C 3.9967 0.9114 -0.8928 0
M  V30 23 O 3.1062 1.6821 -1.3434 0
M  V30 24 C 5.0301 0.3527 -1.8254 0
M  V30 25 N 4.6371 -0.9758 -2.2897 0 CHG=1
M  V30 26 H -2.5644 1.3588 -2.6013 0
M  V30 27 H -2.261 -1.1481 -0.9112 0
M  V30 28 H -3.2578 -1.5927 -3.2012 0
M  V30 29 H -3.2832 0.9169 -5.012 0
M  V30 30 H -4.7194 -0.0416 -4.4786 0
M  V30 31 H -3.5087 -0.7879 -5.5674 0
M  V30 32 H -1.2956 -1.49 -4.7515 0
M  V30 33 H -0.9055 0.1716 -4.1597 0
M  V30 34 H -0.7971 -1.2484 -3.0473 0
M  V30 35 H -0.7275 -0.9032 0.8466 0
M  V30 36 H 0.3802 1.8753 1.484 0
M  V30 37 H -2.773 -0.1541 2.0629 0
M  V30 38 H -2.0116 1.435 2.3857 0
M  V30 39 H -0.1749 0.2393 3.7137 0
M  V30 40 H 2.7595 2.042 1.2835 0
M  V30 41 H -2.1183 1.3232 4.8196 0
M  V30 42 H -1.5918 -0.146 5.7089 0
M  V30 43 H -3.0727 -0.2055 4.6716 0
M  V30 44 H -2.0208 -2.2103 3.3032 0
M  V30 45 H -0.6857 -2.105 4.5159 0
M  V30 46 H -0.2993 -2.0442 2.7733 0
M  V30 47 H 4.7588 -0.0937 0.8345 0
M  V30 48 H 2.5517 1.0669 3.5505 0
M  V30 49 H 3.5192 -0.3751 3.0443 0
M  V30 50 H 4.282 1.2628 3.0838 0
M  V30 51 H 5.1551 1.0324 -2.6973 0
M  V30 52 H 6.0081 0.2909 -1.3009 0
M  V30 53 H 5.3664 -1.3397 -2.9443 0
M  V30 54 H 4.558 -1.6279 -1.4746 0
M  V30 55 H 3.7202 -0.9286 -2.7924 0
M  V30 END ATOM
M  V30 BEGIN BOND
M  V30 1 2 1 2
M  V30 2 1 2 3
M  V30 3 1 2 4
M  V30 4 1 4 5
M  V30 5 1 4 6
M  V30 6 1 5 7
M  V30 7 1 6 8
M  V30 8 1 6 9
M  V30 9 2 7 10
M  V30 10 1 7 11
M  V30 11 1 11 12
M  V30 12 1 11 13
M  V30 13 1 12 14
M  V30 14 1 13 15
M  V30 15 2 14 16
M  V30 16 1 14 17
M  V30 17 1 15 18
M  V30 18 1 15 19
M  V30 19 1 17 20
M  V30 20 1 17 21
M  V30 21 1 20 22
M  V30 22 2 22 23
M  V30 23 1 22 24
M  V30 24 1 24 25
M  V30 25 1 4 26
M  V30 26 1 5 27
M  V30 27 1 6 28
M  V30 28 1 8 29
M  V30 29 1 8 30
M  V30 30 1 8 31
M  V30 31 1 9 32
M  V30 32 1 9 33
M  V30 33 1 9 34
M  V30 34 1 11 35
M  V30 35 1 12 36
M  V30 36 1 13 37
M  V30 37 1 13 38
M  V30 38 1 15 39
M  V30 39 1 17 40
M  V30 40 1 18 41
M  V30 41 1 18 42
M  V30 42 1 18 43
M  V30 43 1 19 44
M  V30 44 1 19 45
M  V30 45 1 19 46
M  V30 46 1 20 47
M  V30 47 1 21 48
M  V30 48 1 21 49
M  V30 49 1 21 50
M  V30 50 1 24 51
M  V30 51 1 24 52
M  V30 52 1 25 53
M  V30 53 1 25 54
M  V30 54 1 25 55
M  V30 END BOND
M  V30 BEGIN COLLECTION
M  V30 MDLV30/STEABS ATOMS=(3 4 11 17)
M  V30 END COLLECTION
M  V30 END CTAB
M  END
>  <Structure No>
7977

>  <LogS>
-2.13

>  <MMFF94 Energy>
26.801

$$$$
Compound 7978
Actelion Java MolfileCreator 2.0

  0  0  0  0  0  0              0 V3000
M  V30 BEGIN CTAB
M  V30 COUNTS 30 29 0 0 0
M  V30 BEGIN ATOM
M  V30 1 O -2.1792 -2.0234 -1.4783 0
M  V30 2 C -2.3129 -1.2227 -0.5126 0
M  V30 3 O -1.3986 -0.183 -0.3196 0
M  V30 4 C -3.4601 -1.3899 0.4434 0 CFG=1
M  V30 5 C -0.275 0.0223 -1.17 0
M  V30 6 O -2.9849 -1.6628 1.7374 0
M  V30 7 C -4.3587 -0.1499 0.4426 0
M  V30 8 C 0.5409 1.2244 -0.6868 0
M  V30 9 C 0.9916 1.1167 0.7826 0
M  V30 10 C 1.8626 -0.1126 1.1098 0
M  V30 11 C 3.1509 -0.2335 0.2771 0
M  V30 12 C 4.1063 0.9407 0.485 0
M  V30 13 H -4.0769 -2.2558 0.1179 0
M  V30 14 H 0.3585 -0.8896 -1.1913 0
M  V30 15 H -0.628 0.2212 -2.2052 0
M  V30 16 H -2.4657 -0.873 2.0439 0
M  V30 17 H -5.2069 -0.3012 1.1435 0
M  V30 18 H -3.79 0.7501 0.7607 0
M  V30 19 H -4.7688 0.0238 -0.5751 0
M  V30 20 H 1.4212 1.3642 -1.3486 0
M  V30 21 H -0.0857 2.1367 -0.7907 0
M  V30 22 H 0.0915 1.0898 1.4345 0
M  V30 23 H 1.5427 2.0417 1.055 0
M  V30 24 H 2.1364 -0.0702 2.1866 0
M  V30 25 H 1.2612 -1.0369 0.9774 0
M  V30 26 H 2.912 -0.3374 -0.8017 0
M  V30 27 H 3.6738 -1.1648 0.5842 0
M  V30 28 H 3.6831 1.8712 0.0529 0
M  V30 29 H 4.3076 1.0915 1.5669 0
M  V30 30 H 5.068 0.729 -0.0277 0
M  V30 END ATOM
M  V30 BEGIN BOND
M  V30 1 2 1 2
M  V30 2 1 2 3
M  V30 3 1 2 4
M  V30 4 1 3 5
M  V30 5 1 4 6
M  V30 6 1 4 7
M  V30 7 1 5 8
M  V30 8 1 8 9
M  V30 9 1 9 10
M  V30 10 1 10 11
M  V30 11 1 11 12
M  V30 12 1 4 13
M  V30 13 1 5 14
M  V30 14 1 5 15
M  V30 15 1 6 16
M  V30 16 1 7 17
M  V30 17 1 7 18
M  V30 18 1 7 19
M  V30 19 1 8 20
M  V30 20 1 8 21
M  V30 21 1 9 22
M  V30 22 1 9 23
M  V30 23 1 10 24
M  V30 24 1 10 25
M  V30 25 1 11 26
M  V30 26 1 11 27
M  V30 27 1 12 28
M  V30 28 1 12 29
M  V30 29 1 12 30
M  V30 END BOND
M  V30 BEGIN COLLECTION
M  V30 MDLV30/STEABS ATOMS=(1 4)
M  V30 END COLLECTION
M  V30 END CTAB
M  END
>  <Structure No>
7978

>  <LogS>
-1.14

>  <MMFF94 Energy>
24.506

$$$$
Compound 7979
Actelion Java MolfileCreator 2.0

  0  0  0  0  0  0              0 V3000
M  V30 BEGIN CTAB
M  V30 COUNTS 26 25 0 0 0
M  V30 BEGIN ATOM
M  V30 1 O 1.8109 -2.4414 0.7083 0
M  V30 2 C 1.1803 -1.709 1.5166 0
M  V30 3 O 1.2007 -2.0126 2.8721 0 CHG=-1
M  V30 4 C 0.3659 -0.5426 1.0245 0 CFG=1
M  V30 5 N 1.0124 0.0562 -0.1511 0
M  V30 6 C -1.108 -0.9641 0.7468 0 CFG=1
M  V30 7 C 1.8983 1.1815 -0.0571 0
M  V30 8 C -2.0926 0.2323 0.7208 0
M  V30 9 C -1.2828 -1.883 -0.4771 0
M  V30 10 O 2.1137 1.7388 1.053 0
M  V30 11 C 2.5923 1.6845 -1.2805 0
M  V30 12 C -1.8248 1.2759 -0.3664 0
M  V30 13 H 0.3409 0.2013 1.8512 0
M  V30 14 H 0.9795 -0.4498 -1.0637 0
M  V30 15 H -1.429 -1.5733 1.6228 0
M  V30 16 H -2.0695 0.743 1.7082 0
M  V30 17 H -3.1265 -0.1549 0.5875 0
M  V30 18 H -0.6258 -2.773 -0.3914 0
M  V30 19 H -2.3319 -2.2444 -0.5291 0
M  V30 20 H -1.0533 -1.3626 -1.4274 0
M  V30 21 H 1.8532 1.828 -2.0962 0
M  V30 22 H 3.0917 2.6553 -1.0755 0
M  V30 23 H 3.3544 0.9453 -1.6032 0
M  V30 24 H -1.7654 0.8109 -1.3706 0
M  V30 25 H -0.8918 1.8346 -0.1529 0
M  V30 26 H -2.6577 2.0101 -0.3778 0
M  V30 END ATOM
M  V30 BEGIN BOND
M  V30 1 2 1 2
M  V30 2 1 2 3
M  V30 3 1 2 4
M  V30 4 1 4 5
M  V30 5 1 4 6
M  V30 6 1 5 7
M  V30 7 1 6 8
M  V30 8 1 6 9
M  V30 9 2 7 10
M  V30 10 1 7 11
M  V30 11 1 8 12
M  V30 12 1 4 13
M  V30 13 1 5 14
M  V30 14 1 6 15
M  V30 15 1 8 16
M  V30 16 1 8 17
M  V30 17 1 9 18
M  V30 18 1 9 19
M  V30 19 1 9 20
M  V30 20 1 11 21
M  V30 21 1 11 22
M  V30 22 1 11 23
M  V30 23 1 12 24
M  V30 24 1 12 25
M  V30 25 1 12 26
M  V30 END BOND
M  V30 BEGIN COLLECTION
M  V30 MDLV30/STEABS ATOMS=(2 4 6)
M  V30 END COLLECTION
M  V30 END CTAB
M  END
>  <Structure No>
7979

>  <LogS>
-0.69

>  <MMFF94 Energy>
35.21

$$$$
Compound 7980
Actelion Java MolfileCreator 2.0

  0  0  0  0  0  0              0 V3000
M  V30 BEGIN CTAB
M  V30 COUNTS 20 19 0 0 0
M  V30 BEGIN ATOM
M  V30 1 O 2.4068 0.6413 2.6477 0
M  V30 2 N 1.9018 0.8175 1.5214 0 CHG=1
M  V30 3 O 1.6128 -0.2774 0.7307 0
M  V30 4 O 1.7157 2.1003 1.0587 0 CHG=-1
M  V30 5 C 0.9643 -0.1648 -0.537 0 CFG=2
M  V30 6 C -0.5673 -0.0184 -0.3696 0 CFG=2
M  V30 7 C 1.3363 -1.3773 -1.3944 0
M  V30 8 O -0.8533 1.2568 0.2057 0
M  V30 9 C -1.1736 -1.1245 0.5066 0
M  V30 10 N -2.104 1.8428 0.1467 0 CHG=1
M  V30 11 O -3.0362 1.3148 -0.4949 0
M  V30 12 O -2.3097 3.0535 0.7633 0 CHG=-1
M  V30 13 H 1.3487 0.7326 -1.0709 0
M  V30 14 H -1.0332 -0.065 -1.3792 0
M  V30 15 H 0.8025 -1.3456 -2.3681 0
M  V30 16 H 2.4284 -1.3673 -1.5957 0
M  V30 17 H 1.0926 -2.3253 -0.8716 0
M  V30 18 H -2.2662 -0.9662 0.6189 0
M  V30 19 H -1.0275 -2.1211 0.0425 0
M  V30 20 H -0.7167 -1.1192 1.5188 0
M  V30 END ATOM
M  V30 BEGIN BOND
M  V30 1 2 1 2
M  V30 2 1 2 3
M  V30 3 1 2 4
M  V30 4 1 3 5
M  V30 5 1 5 6
M  V30 6 1 5 7
M  V30 7 1 6 8
M  V30 8 1 6 9
M  V30 9 1 8 10
M  V30 10 2 10 11
M  V30 11 1 10 12
M  V30 12 1 5 13
M  V30 13 1 6 14
M  V30 14 1 7 15
M  V30 15 1 7 16
M  V30 16 1 7 17
M  V30 17 1 9 18
M  V30 18 1 9 19
M  V30 19 1 9 20
M  V30 END BOND
M  V30 BEGIN COLLECTION
M  V30 MDLV30/STEABS ATOMS=(2 5 6)
M  V30 END COLLECTION
M  V30 END CTAB
M  END
>  <Structure No>
7980

>  <LogS>
-1.89

>  <MMFF94 Energy>
-23.764

$$$$
Compound 7981
Actelion Java MolfileCreator 2.0

  0  0  0  0  0  0              0 V3000
M  V30 BEGIN CTAB
M  V30 COUNTS 25 24 0 0 0
M  V30 BEGIN ATOM
M  V30 1 O 3.5364 -0.8635 -1.0206 0
M  V30 2 C 3.2646 0.2223 -0.4409 0
M  V30 3 N 1.9478 0.4603 0.0756 0
M  V30 4 N 4.277 1.2179 -0.3008 0
M  V30 5 C 0.876 -0.5353 -0.0276 0 CFG=1
M  V30 6 C 1.1357 -1.6557 0.9413 0
M  V30 7 C -0.4924 0.1237 0.2399 0
M  V30 8 O 1.3246 -1.4119 2.1628 0
M  V30 9 O 1.1523 -2.9706 0.4938 0 CHG=-1
M  V30 10 C -1.6655 -0.8232 -0.0707 0
M  V30 11 C -3.0303 -0.1995 0.2602 0
M  V30 12 C -3.4241 0.914 -0.7101 0
M  V30 13 H 1.7615 1.3722 0.5525 0
M  V30 14 H 4.0698 2.123 0.1764 0
M  V30 15 H 5.2373 1.0502 -0.6748 0
M  V30 16 H 0.8667 -0.9401 -1.0644 0
M  V30 17 H -0.5741 1.0225 -0.4077 0
M  V30 18 H -0.5483 0.4596 1.2992 0
M  V30 19 H -1.6382 -1.1224 -1.1414 0
M  V30 20 H -1.5602 -1.7465 0.5388 0
M  V30 21 H -3.0296 0.1946 1.2997 0
M  V30 22 H -3.8029 -0.997 0.2046 0
M  V30 23 H -2.7593 1.7944 -0.5905 0
M  V30 24 H -4.4648 1.2373 -0.4971 0
M  V30 25 H -3.3751 0.5518 -1.759 0
M  V30 END ATOM
M  V30 BEGIN BOND
M  V30 1 2 1 2
M  V30 2 1 2 3
M  V30 3 1 2 4
M  V30 4 1 3 5
M  V30 5 1 5 6
M  V30 6 1 5 7
M  V30 7 2 6 8
M  V30 8 1 6 9
M  V30 9 1 7 10
M  V30 10 1 10 11
M  V30 11 1 11 12
M  V30 12 1 3 13
M  V30 13 1 4 14
M  V30 14 1 4 15
M  V30 15 1 5 16
M  V30 16 1 7 17
M  V30 17 1 7 18
M  V30 18 1 10 19
M  V30 19 1 10 20
M  V30 20 1 11 21
M  V30 21 1 11 22
M  V30 22 1 12 23
M  V30 23 1 12 24
M  V30 24 1 12 25
M  V30 END BOND
M  V30 BEGIN COLLECTION
M  V30 MDLV30/STEABS ATOMS=(1 5)
M  V30 END COLLECTION
M  V30 END CTAB
M  END
>  <Structure No>
7981

>  <LogS>
-2.16

>  <MMFF94 Energy>
-53.146

$$$$
Compound 7982
Actelion Java MolfileCreator 2.0

  0  0  0  0  0  0              0 V3000
M  V30 BEGIN CTAB
M  V30 COUNTS 24 23 0 0 0
M  V30 BEGIN ATOM
M  V30 1 S -2.3504 0.891 0.891 0
M  V30 2 C -1.8901 -0.5722 -0.1027 0
M  V30 3 C -4.1054 0.8515 0.4091 0
M  V30 4 C -0.393 -0.8812 0.0303 0
M  V30 5 C 0.5121 0.1713 -0.6421 0 CFG=1
M  V30 6 N 1.9154 -0.118 -0.334 0
M  V30 7 C 0.3167 0.1888 -2.1344 0
M  V30 8 C 2.5396 0.3166 0.8824 0
M  V30 9 O -0.0419 1.2483 -2.713 0
M  V30 10 O 0.5354 -0.9605 -2.8849 0 CHG=-1
M  V30 11 O 1.898 1.008 1.7196 0
M  V30 12 C 3.9493 -0.0789 1.1788 0
M  V30 13 H -2.1593 -0.4102 -1.168 0
M  V30 14 H -2.465 -1.4474 0.2687 0
M  V30 15 H -4.638 1.684 0.9132 0
M  V30 16 H -4.2024 0.9766 -0.6894 0
M  V30 17 H -4.5655 -0.1095 0.7201 0
M  V30 18 H -0.1914 -1.8801 -0.415 0
M  V30 19 H -0.1407 -0.9511 1.1111 0
M  V30 20 H 0.2591 1.1803 -0.2472 0
M  V30 21 H 2.4566 -0.752 -0.9656 0
M  V30 22 H 4.3422 0.4954 2.0447 0
M  V30 23 H 3.9868 -1.1625 1.4151 0
M  V30 24 H 4.5892 0.1249 0.2949 0
M  V30 END ATOM
M  V30 BEGIN BOND
M  V30 1 1 1 2
M  V30 2 1 1 3
M  V30 3 1 2 4
M  V30 4 1 4 5
M  V30 5 1 5 6
M  V30 6 1 5 7
M  V30 7 1 6 8
M  V30 8 2 7 9
M  V30 9 1 7 10
M  V30 10 2 8 11
M  V30 11 1 8 12
M  V30 12 1 2 13
M  V30 13 1 2 14
M  V30 14 1 3 15
M  V30 15 1 3 16
M  V30 16 1 3 17
M  V30 17 1 4 18
M  V30 18 1 4 19
M  V30 19 1 5 20
M  V30 20 1 6 21
M  V30 21 1 12 22
M  V30 22 1 12 23
M  V30 23 1 12 24
M  V30 END BOND
M  V30 BEGIN COLLECTION
M  V30 MDLV30/STEABS ATOMS=(1 5)
M  V30 END COLLECTION
M  V30 END CTAB
M  END
>  <Structure No>
7982

>  <LogS>
0.03

>  <MMFF94 Energy>
34.788

$$$$
Compound 7983
Actelion Java MolfileCreator 2.0

  0  0  0  0  0  0              0 V3000
M  V30 BEGIN CTAB
M  V30 COUNTS 24 23 0 0 0
M  V30 BEGIN ATOM
M  V30 1 Cl 4.6668 -1.9858 0.9494 0
M  V30 2 C 4.642 -0.4304 0.0757 0
M  V30 3 C 3.3264 -0.2431 -0.6752 0
M  V30 4 S 1.9421 -0.0393 0.4711 0 CFG=1
M  V30 5 O 2.1428 1.3615 1.035 0
M  V30 6 C 0.5058 0.1352 -0.6095 0
M  V30 7 C -0.7638 0.295 0.2199 0
M  V30 8 S -2.2061 0.4276 -0.8617 0 CFG=2
M  V30 9 O -2.0567 1.806 -1.4918 0
M  V30 10 C -3.6124 0.6309 0.2591 0
M  V30 11 C -4.0539 -0.7071 0.8466 0
M  V30 12 Cl -4.7273 -1.7728 -0.4157 0
M  V30 13 H 4.7975 0.4008 0.7955 0
M  V30 14 H 5.4813 -0.4253 -0.6509 0
M  V30 15 H 3.3966 0.6593 -1.3191 0
M  V30 16 H 3.1378 -1.1226 -1.3266 0
M  V30 17 H 0.6476 1.0211 -1.2649 0
M  V30 18 H 0.4249 -0.7723 -1.2444 0
M  V30 19 H -0.8875 -0.5887 0.8802 0
M  V30 20 H -0.6945 1.2074 0.8499 0
M  V30 21 H -3.3242 1.3182 1.0825 0
M  V30 22 H -4.4584 1.0901 -0.2951 0
M  V30 23 H -3.201 -1.2152 1.3422 0
M  V30 24 H -4.8421 -0.5285 1.608 0
M  V30 END ATOM
M  V30 BEGIN BOND
M  V30 1 1 1 2
M  V30 2 1 2 3
M  V30 3 1 3 4
M  V30 4 2 4 5
M  V30 5 1 4 6
M  V30 6 1 6 7
M  V30 7 1 7 8
M  V30 8 2 8 9
M  V30 9 1 8 10
M  V30 10 1 10 11
M  V30 11 1 11 12
M  V30 12 1 2 13
M  V30 13 1 2 14
M  V30 14 1 3 15
M  V30 15 1 3 16
M  V30 16 1 6 17
M  V30 17 1 6 18
M  V30 18 1 7 19
M  V30 19 1 7 20
M  V30 20 1 10 21
M  V30 21 1 10 22
M  V30 22 1 11 23
M  V30 23 1 11 24
M  V30 END BOND
M  V30 BEGIN COLLECTION
M  V30 MDLV30/STEABS ATOMS=(2 4 8)
M  V30 END COLLECTION
M  V30 END CTAB
M  END
>  <Structure No>
7983

>  <LogS>
-2.04

>  <MMFF94 Energy>
-3.0918

$$$$
Compound 7984
Actelion Java MolfileCreator 2.0

  0  0  0  0  0  0              0 V3000
M  V30 BEGIN CTAB
M  V30 COUNTS 20 19 0 0 0
M  V30 BEGIN ATOM
M  V30 1 S 0.6853 1.0282 1.0282 0
M  V30 2 S -0.8731 -0.4277 1.1968 0
M  V30 3 C 1.8113 -0.0753 0.1024 0 CFG=2
M  V30 4 C -1.774 0.1562 -0.282 0 CFG=2
M  V30 5 C 2.3881 -1.1165 1.0166 0
M  V30 6 C 2.9254 0.7494 -0.5377 0
M  V30 7 C -2.4699 1.4518 0.0169 0
M  V30 8 C -2.7874 -0.9007 -0.7132 0
M  V30 9 O 3.0155 -0.7792 2.0557 0
M  V30 10 O 2.2411 -2.4639 0.7121 0 CHG=-1
M  V30 11 O -2.2595 2.463 -0.7032 0
M  V30 12 O -3.3604 1.5413 1.0805 0 CHG=-1
M  V30 13 H 1.2448 -0.5752 -0.7125 0
M  V30 14 H -1.0535 0.3007 -1.1166 0
M  V30 15 H 3.5093 1.291 0.2374 0
M  V30 16 H 3.6105 0.0883 -1.1106 0
M  V30 17 H 2.489 1.4919 -1.2394 0
M  V30 18 H -2.2621 -1.8475 -0.9607 0
M  V30 19 H -3.336 -0.5591 -1.6171 0
M  V30 20 H -3.5187 -1.0998 0.0997 0
M  V30 END ATOM
M  V30 BEGIN BOND
M  V30 1 1 1 2
M  V30 2 1 1 3
M  V30 3 1 2 4
M  V30 4 1 3 5
M  V30 5 1 3 6
M  V30 6 1 4 7
M  V30 7 1 4 8
M  V30 8 2 5 9
M  V30 9 1 5 10
M  V30 10 2 7 11
M  V30 11 1 7 12
M  V30 12 1 3 13
M  V30 13 1 4 14
M  V30 14 1 6 15
M  V30 15 1 6 16
M  V30 16 1 6 17
M  V30 17 1 8 18
M  V30 18 1 8 19
M  V30 19 1 8 20
M  V30 END BOND
M  V30 BEGIN COLLECTION
M  V30 MDLV30/STEABS ATOMS=(2 3 4)
M  V30 END COLLECTION
M  V30 END CTAB
M  END
>  <Structure No>
7984

>  <LogS>
-0.62

>  <MMFF94 Energy>
127.28

$$$$
Compound 7985
Actelion Java MolfileCreator 2.0

  0  0  0  0  0  0              0 V3000
M  V30 BEGIN CTAB
M  V30 COUNTS 29 28 0 0 0
M  V30 BEGIN ATOM
M  V30 1 O -0.2341 -1.4838 -2.9694 0
M  V30 2 C 0.1612 -1.9741 -1.878 0
M  V30 3 O 0.9507 -3.1168 -1.8924 0 CHG=-1
M  V30 4 C -0.161 -1.3123 -0.5638 0 CFG=1
M  V30 5 N 0.9739 -0.4992 -0.1119 0
M  V30 6 C -1.4717 -0.4904 -0.6176 0
M  V30 7 C 1.493 0.6362 -0.8237 0
M  V30 8 C -1.8205 0.2228 0.7117 0
M  V30 9 O 1.0222 0.9624 -1.9462 0
M  V30 10 C 2.6414 1.4156 -0.2542 0
M  V30 11 C -3.0305 1.1438 0.5082 0
M  V30 12 C -2.1099 -0.7741 1.8439 0
M  V30 13 N 3.9119 0.768 -0.5744 0 CHG=1
M  V30 14 H -0.3106 -2.1377 0.1645 0
M  V30 15 H 1.4304 -0.7657 0.7897 0
M  V30 16 H -2.3087 -1.1673 -0.8998 0
M  V30 17 H -1.3909 0.2743 -1.4196 0
M  V30 18 H -0.9654 0.8635 1.0198 0
M  V30 19 H 2.5265 1.4911 0.8493 0
M  V30 20 H 2.6343 2.4488 -0.6669 0
M  V30 21 H -3.2627 1.689 1.448 0
M  V30 22 H -3.9235 0.5563 0.204 0
M  V30 23 H -2.8121 1.898 -0.2776 0
M  V30 24 H -1.1902 -1.3283 2.122 0
M  V30 25 H -2.8956 -1.4982 1.5389 0
M  V30 26 H -2.4549 -0.2358 2.7525 0
M  V30 27 H 4.034 0.7116 -1.6118 0
M  V30 28 H 4.6944 1.3319 -0.1708 0
M  V30 29 H 3.9392 -0.1929 -0.1621 0
M  V30 END ATOM
M  V30 BEGIN BOND
M  V30 1 2 1 2
M  V30 2 1 2 3
M  V30 3 1 2 4
M  V30 4 1 4 5
M  V30 5 1 4 6
M  V30 6 1 5 7
M  V30 7 1 6 8
M  V30 8 2 7 9
M  V30 9 1 7 10
M  V30 10 1 8 11
M  V30 11 1 8 12
M  V30 12 1 10 13
M  V30 13 1 4 14
M  V30 14 1 5 15
M  V30 15 1 6 16
M  V30 16 1 6 17
M  V30 17 1 8 18
M  V30 18 1 10 19
M  V30 19 1 10 20
M  V30 20 1 11 21
M  V30 21 1 11 22
M  V30 22 1 11 23
M  V30 23 1 12 24
M  V30 24 1 12 25
M  V30 25 1 12 26
M  V30 26 1 13 27
M  V30 27 1 13 28
M  V30 28 1 13 29
M  V30 END BOND
M  V30 BEGIN COLLECTION
M  V30 MDLV30/STEABS ATOMS=(1 4)
M  V30 END COLLECTION
M  V30 END CTAB
M  END
>  <Structure No>
7985

>  <LogS>
-0.43

>  <MMFF94 Energy>
-13.4

$$$$
Compound 7986
Actelion Java MolfileCreator 2.0

  0  0  0  0  0  0              0 V3000
M  V30 BEGIN CTAB
M  V30 COUNTS 25 24 0 0 0
M  V30 BEGIN ATOM
M  V30 1 S -0.2457 0.9011 -0.6553 0
M  V30 2 C -1.2801 -0.3003 0.2759 0 CFG=2
M  V30 3 C 1.3523 0.0233 -0.468 0 CFG=1
M  V30 4 C -1.5488 -1.5394 -0.534 0
M  V30 5 C -2.5876 0.3563 0.758 0
M  V30 6 C 2.1821 0.2868 -1.6913 0
M  V30 7 C 2.0686 0.5104 0.8042 0
M  V30 8 O -1.7044 -1.4731 -1.7824 0
M  V30 9 O -1.6742 -2.766 0.1056 0 CHG=-1
M  V30 10 C -3.5174 0.8082 -0.3721 0
M  V30 11 O 2.5423 -0.6682 -2.4285 0
M  V30 12 O 2.5554 1.5847 -2.021 0 CHG=-1
M  V30 13 C 3.3266 -0.3033 1.1075 0
M  V30 14 H -0.7216 -0.6041 1.1868 0
M  V30 15 H 1.1713 -1.071 -0.389 0
M  V30 16 H -3.1383 -0.3602 1.4061 0
M  V30 17 H -2.3352 1.2392 1.3849 0
M  V30 18 H 2.3396 1.5844 0.706 0
M  V30 19 H 1.3827 0.4181 1.6733 0
M  V30 20 H -4.408 1.3081 0.0639 0
M  V30 21 H -3.0071 1.5309 -1.0417 0
M  V30 22 H -3.8674 -0.0622 -0.9649 0
M  V30 23 H 3.7801 0.0552 2.0556 0
M  V30 24 H 4.0739 -0.1856 0.2948 0
M  V30 25 H 3.0727 -1.3786 1.2209 0
M  V30 END ATOM
M  V30 BEGIN BOND
M  V30 1 1 1 2
M  V30 2 1 1 3
M  V30 3 1 2 4
M  V30 4 1 2 5
M  V30 5 1 3 6
M  V30 6 1 3 7
M  V30 7 2 4 8
M  V30 8 1 4 9
M  V30 9 1 5 10
M  V30 10 2 6 11
M  V30 11 1 6 12
M  V30 12 1 7 13
M  V30 13 1 2 14
M  V30 14 1 3 15
M  V30 15 1 5 16
M  V30 16 1 5 17
M  V30 17 1 7 18
M  V30 18 1 7 19
M  V30 19 1 10 20
M  V30 20 1 10 21
M  V30 21 1 10 22
M  V30 22 1 13 23
M  V30 23 1 13 24
M  V30 24 1 13 25
M  V30 END BOND
M  V30 BEGIN COLLECTION
M  V30 MDLV30/STEABS ATOMS=(2 2 3)
M  V30 END COLLECTION
M  V30 END CTAB
M  END
>  <Structure No>
7986

>  <LogS>
-0.71

>  <MMFF94 Energy>
162.67

$$$$
Compound 7987
Actelion Java MolfileCreator 2.0

  0  0  0  0  0  0              0 V3000
M  V30 BEGIN CTAB
M  V30 COUNTS 23 22 0 0 0
M  V30 BEGIN ATOM
M  V30 1 S 0.8464 1.1851 -0.1692 0
M  V30 2 C 2.1366 -0.1145 -0.1455 0 CFG=1
M  V30 3 C -0.1285 0.4968 -1.5548 0
M  V30 4 C 3.1223 0.1179 -1.2526 0
M  V30 5 C 2.8477 -0.0979 1.205 0
M  V30 6 S -1.1106 -0.9474 -1.0144 0
M  V30 7 O 3.3759 -0.8003 -2.0759 0
M  V30 8 O 3.7737 1.3405 -1.3674 0 CHG=-1
M  V30 9 C -2.2883 -0.0458 0.0652 0 CFG=1
M  V30 10 C -3.6916 -0.3653 -0.3567 0
M  V30 11 C -2.0621 -0.4474 1.5223 0
M  V30 12 O -4.1076 -1.5546 -0.3494 0
M  V30 13 O -4.5438 0.6551 -0.7601 0 CHG=-1
M  V30 14 H 1.6644 -1.1133 -0.2673 0
M  V30 15 H -0.8053 1.2818 -1.9515 0
M  V30 16 H 0.5445 0.1891 -2.3809 0
M  V30 17 H 2.117 -0.2982 2.0177 0
M  V30 18 H 3.3231 0.8898 1.3878 0
M  V30 19 H 3.6295 -0.887 1.2362 0
M  V30 20 H -2.1432 1.0528 -0.0141 0
M  V30 21 H -2.7783 0.0871 2.1826 0
M  V30 22 H -2.1967 -1.5426 1.6543 0
M  V30 23 H -1.0314 -0.1772 1.8348 0
M  V30 END ATOM
M  V30 BEGIN BOND
M  V30 1 1 1 2
M  V30 2 1 1 3
M  V30 3 1 2 4
M  V30 4 1 2 5
M  V30 5 1 3 6
M  V30 6 2 4 7
M  V30 7 1 4 8
M  V30 8 1 6 9
M  V30 9 1 9 10
M  V30 10 1 9 11
M  V30 11 2 10 12
M  V30 12 1 10 13
M  V30 13 1 2 14
M  V30 14 1 3 15
M  V30 15 1 3 16
M  V30 16 1 5 17
M  V30 17 1 5 18
M  V30 18 1 5 19
M  V30 19 1 9 20
M  V30 20 1 11 21
M  V30 21 1 11 22
M  V30 22 1 11 23
M  V30 END BOND
M  V30 BEGIN COLLECTION
M  V30 MDLV30/STEABS ATOMS=(2 2 9)
M  V30 END COLLECTION
M  V30 END CTAB
M  END
>  <Structure No>
7987

>  <LogS>
-1.82

>  <MMFF94 Energy>
127.17

$$$$
Compound 7988
Actelion Java MolfileCreator 2.0

  0  0  0  0  0  0              0 V3000
M  V30 BEGIN CTAB
M  V30 COUNTS 26 25 0 0 0
M  V30 BEGIN ATOM
M  V30 1 S -2.1854 1.5967 -0.336 0
M  V30 2 C -2.2104 -0.2439 -0.4521 0 CFG=2
M  V30 3 C -1.8186 1.7956 1.4432 0
M  V30 4 C -2.7722 -0.9184 0.7746 0
M  V30 5 C -0.8686 -0.8285 -0.9542 0
M  V30 6 O -2.0482 -1.6223 1.527 0
M  V30 7 O -4.1155 -0.7518 1.0885 0 CHG=-1
M  V30 8 C 0.365 -0.4406 -0.1157 0
M  V30 9 C 1.6513 -1.1115 -0.6432 0 CFG=2
M  V30 10 S 3.0191 -1.0461 0.583 0
M  V30 11 C 2.1085 -0.5773 -1.9748 0
M  V30 12 C 3.1504 0.7649 0.7684 0
M  V30 13 O 1.8639 0.6098 -2.3195 0
M  V30 14 O 2.8508 -1.3918 -2.8204 0 CHG=-1
M  V30 15 H -2.9418 -0.4625 -1.2599 0
M  V30 16 H -1.5587 2.8563 1.6366 0
M  V30 17 H -2.7143 1.5405 2.0457 0
M  V30 18 H -0.9661 1.1628 1.7557 0
M  V30 19 H -0.7119 -0.4769 -1.9972 0
M  V30 20 H -0.9555 -1.9366 -0.9963 0
M  V30 21 H 0.487 0.6616 -0.1281 0
M  V30 22 H 0.2141 -0.7609 0.935 0
M  V30 23 H 1.4345 -2.1932 -0.7799 0
M  V30 24 H 4.0458 0.9931 1.3819 0
M  V30 25 H 2.2609 1.165 1.296 0
M  V30 26 H 3.269 1.2595 -0.2156 0
M  V30 END ATOM
M  V30 BEGIN BOND
M  V30 1 1 1 2
M  V30 2 1 1 3
M  V30 3 1 2 4
M  V30 4 1 2 5
M  V30 5 2 4 6
M  V30 6 1 4 7
M  V30 7 1 5 8
M  V30 8 1 8 9
M  V30 9 1 9 10
M  V30 10 1 9 11
M  V30 11 1 10 12
M  V30 12 2 11 13
M  V30 13 1 11 14
M  V30 14 1 2 15
M  V30 15 1 3 16
M  V30 16 1 3 17
M  V30 17 1 3 18
M  V30 18 1 5 19
M  V30 19 1 5 20
M  V30 20 1 8 21
M  V30 21 1 8 22
M  V30 22 1 9 23
M  V30 23 1 12 24
M  V30 24 1 12 25
M  V30 25 1 12 26
M  V30 END BOND
M  V30 BEGIN COLLECTION
M  V30 MDLV30/STEABS ATOMS=(2 2 9)
M  V30 END COLLECTION
M  V30 END CTAB
M  END
>  <Structure No>
7988

>  <LogS>
-2.89

>  <MMFF94 Energy>
161.98

$$$$
Compound 7989
Actelion Java MolfileCreator 2.0

  0  0  0  0  0  0              0 V3000
M  V30 BEGIN CTAB
M  V30 COUNTS 35 34 0 0 0
M  V30 BEGIN ATOM
M  V30 1 O 1.3296 2.034 1.6426 0
M  V30 2 C 1.5511 1.8625 0.4145 0
M  V30 3 O 1.6329 2.9639 -0.4279 0 CHG=-1
M  V30 4 C 1.7272 0.4763 -0.1409 0 CFG=2
M  V30 5 N 0.5147 -0.2987 0.1398 0
M  V30 6 C 2.9777 -0.2255 0.4553 0
M  V30 7 C -0.625 -0.2871 -0.7329 0
M  V30 8 C 3.1226 -1.6527 -0.097 0
M  V30 9 C 4.2629 0.5666 0.1612 0
M  V30 10 O -0.5737 0.3304 -1.832 0
M  V30 11 C -1.9028 -0.9856 -0.3184 0 CFG=2
M  V30 12 N -2.5234 -1.6641 -1.4659 0 CHG=1
M  V30 13 C -2.9047 -0.0289 0.3966 0
M  V30 14 C -2.3485 0.4597 1.7431 0
M  V30 15 C -3.3306 1.1739 -0.4622 0
M  V30 16 H 1.8715 0.5515 -1.242 0
M  V30 17 H 0.4168 -0.7473 1.0793 0
M  V30 18 H 2.8626 -0.2971 1.5602 0
M  V30 19 H 4.0255 -2.1406 0.3286 0
M  V30 20 H 2.2451 -2.2731 0.1815 0
M  V30 21 H 3.2134 -1.6363 -1.2044 0
M  V30 22 H 4.4021 0.6944 -0.9337 0
M  V30 23 H 5.1463 0.0345 0.5743 0
M  V30 24 H 4.2243 1.5684 0.6382 0
M  V30 25 H -1.6276 -1.7789 0.4136 0
M  V30 26 H -2.7535 -0.9912 -2.2314 0
M  V30 27 H -3.3979 -2.1518 -1.1633 0
M  V30 28 H -1.8649 -2.3844 -1.8427 0
M  V30 29 H -3.8238 -0.6129 0.6255 0
M  V30 30 H -3.1265 1.032 2.2923 0
M  V30 31 H -1.4681 1.1194 1.5923 0
M  V30 32 H -2.0492 -0.4034 2.3748 0
M  V30 33 H -4.0746 1.7871 0.0897 0
M  V30 34 H -2.4617 1.8209 -0.7045 0
M  V30 35 H -3.8131 0.8399 -1.4028 0
M  V30 END ATOM
M  V30 BEGIN BOND
M  V30 1 2 1 2
M  V30 2 1 2 3
M  V30 3 1 2 4
M  V30 4 1 4 5
M  V30 5 1 4 6
M  V30 6 1 5 7
M  V30 7 1 6 8
M  V30 8 1 6 9
M  V30 9 2 7 10
M  V30 10 1 7 11
M  V30 11 1 11 12
M  V30 12 1 11 13
M  V30 13 1 13 14
M  V30 14 1 13 15
M  V30 15 1 4 16
M  V30 16 1 5 17
M  V30 17 1 6 18
M  V30 18 1 8 19
M  V30 19 1 8 20
M  V30 20 1 8 21
M  V30 21 1 9 22
M  V30 22 1 9 23
M  V30 23 1 9 24
M  V30 24 1 11 25
M  V30 25 1 12 26
M  V30 26 1 12 27
M  V30 27 1 12 28
M  V30 28 1 13 29
M  V30 29 1 14 30
M  V30 30 1 14 31
M  V30 31 1 14 32
M  V30 32 1 15 33
M  V30 33 1 15 34
M  V30 34 1 15 35
M  V30 END BOND
M  V30 BEGIN COLLECTION
M  V30 MDLV30/STEABS ATOMS=(2 4 11)
M  V30 END COLLECTION
M  V30 END CTAB
M  END
>  <Structure No>
7989

>  <LogS>
-0.4

>  <MMFF94 Energy>
21.252

$$$$
Compound 7990
Actelion Java MolfileCreator 2.0

  0  0  0  0  0  0              0 V3000
M  V30 BEGIN CTAB
M  V30 COUNTS 25 24 0 0 0
M  V30 BEGIN ATOM
M  V30 1 S -0.3224 0.9674 0.8868 0
M  V30 2 C -1.0599 0.671 -0.7696 0
M  V30 3 C 0.9148 -0.3824 0.837 0
M  V30 4 C -2.4392 -0.0145 -0.6973 0 CFG=2
M  V30 5 C 2.1988 0.0495 0.1025 0 CFG=1
M  V30 6 N -3.4203 0.8109 0.0211 0 CHG=1
M  V30 7 C -2.3376 -1.3944 -0.1 0
M  V30 8 N 2.9255 1.0789 0.8578 0 CHG=1
M  V30 9 C 3.0825 -1.1484 -0.1193 0
M  V30 10 O -2.4317 -1.5677 1.1444 0
M  V30 11 O -2.0831 -2.4839 -0.9235 0 CHG=-1
M  V30 12 O 3.2964 -1.5695 -1.2866 0
M  V30 13 O 3.6543 -1.8076 0.9625 0 CHG=-1
M  V30 14 H -1.1769 1.6578 -1.2658 0
M  V30 15 H -0.3831 0.0732 -1.4159 0
M  V30 16 H 0.4738 -1.2785 0.3503 0
M  V30 17 H 1.1587 -0.6659 1.8832 0
M  V30 18 H -2.7972 -0.1351 -1.7449 0
M  V30 19 H 1.9206 0.4684 -0.8905 0
M  V30 20 H -3.1451 0.9452 1.0209 0
M  V30 21 H -4.3587 0.3496 -0.0127 0
M  V30 22 H -3.5005 1.7468 -0.4392 0
M  V30 23 H 3.1562 0.7405 1.8207 0
M  V30 24 H 3.8127 1.3228 0.3596 0
M  V30 25 H 2.3483 1.9476 0.929 0
M  V30 END ATOM
M  V30 BEGIN BOND
M  V30 1 1 1 2
M  V30 2 1 1 3
M  V30 3 1 2 4
M  V30 4 1 3 5
M  V30 5 1 4 6
M  V30 6 1 4 7
M  V30 7 1 5 8
M  V30 8 1 5 9
M  V30 9 2 7 10
M  V30 10 1 7 11
M  V30 11 2 9 12
M  V30 12 1 9 13
M  V30 13 1 2 14
M  V30 14 1 2 15
M  V30 15 1 3 16
M  V30 16 1 3 17
M  V30 17 1 4 18
M  V30 18 1 5 19
M  V30 19 1 6 20
M  V30 20 1 6 21
M  V30 21 1 6 22
M  V30 22 1 8 23
M  V30 23 1 8 24
M  V30 24 1 8 25
M  V30 END BOND
M  V30 BEGIN COLLECTION
M  V30 MDLV30/STEABS ATOMS=(2 4 5)
M  V30 END COLLECTION
M  V30 END CTAB
M  END
>  <Structure No>
7990

>  <LogS>
-2.56

>  <MMFF94 Energy>
-27.418

$$$$
Compound 7991
Actelion Java MolfileCreator 2.0

  0  0  0  0  0  0              0 V3000
M  V30 BEGIN CTAB
M  V30 COUNTS 38 37 0 0 0
M  V30 BEGIN ATOM
M  V30 1 O 2.1911 -1.4081 3.5233 0
M  V30 2 C 2.6628 -1.6533 2.3812 0
M  V30 3 O 3.4742 -2.7662 2.2001 0 CHG=-1
M  V30 4 C 2.3538 -0.7506 1.218 0 CFG=1
M  V30 5 N 0.9018 -0.735 1.0081 0
M  V30 6 C 2.8822 0.6895 1.4551 0
M  V30 7 C 0.285 -1.0563 -0.2484 0
M  V30 8 C 4.4075 0.704 1.6513 0
M  V30 9 C 2.5106 1.6146 0.2851 0
M  V30 10 O 0.9937 -1.3669 -1.2449 0
M  V30 11 C -1.214 -0.9542 -0.4006 0 CFG=2
M  V30 12 N -1.7229 -2.0611 -1.2221 0 CHG=1
M  V30 13 C -1.5741 0.4263 -0.9989 0
M  V30 14 C -3.1021 0.708 -1.039 0
M  V30 15 C -3.4039 2.1521 -0.6135 0
M  V30 16 C -3.6833 0.4555 -2.439 0
M  V30 17 H 2.866 -1.1675 0.3228 0
M  V30 18 H 0.2927 -0.4091 1.7932 0
M  V30 19 H 2.4117 1.1017 2.3759 0
M  V30 20 H 4.7667 1.7445 1.8021 0
M  V30 21 H 4.9202 0.2737 0.7642 0
M  V30 22 H 4.6932 0.1193 2.5507 0
M  V30 23 H 1.4083 1.7118 0.1986 0
M  V30 24 H 2.9139 1.2177 -0.6711 0
M  V30 25 H 2.9218 2.6331 0.4521 0
M  V30 26 H -1.6706 -1.0297 0.6121 0
M  V30 27 H -1.3465 -2.9705 -0.8668 0
M  V30 28 H -2.7646 -2.1072 -1.1538 0
M  V30 29 H -1.4412 -1.9427 -2.2226 0
M  V30 30 H -1.073 1.1962 -0.3699 0
M  V30 31 H -1.1291 0.5262 -2.0141 0
M  V30 32 H -3.6291 0.0426 -0.3198 0
M  V30 33 H -3.0563 2.3246 0.4274 0
M  V30 34 H -4.498 2.3434 -0.6439 0
M  V30 35 H -2.8936 2.8735 -1.2877 0
M  V30 36 H -3.4867 -0.583 -2.7714 0
M  V30 37 H -3.2358 1.1526 -3.1797 0
M  V30 38 H -4.7838 0.6069 -2.4286 0
M  V30 END ATOM
M  V30 BEGIN BOND
M  V30 1 2 1 2
M  V30 2 1 2 3
M  V30 3 1 2 4
M  V30 4 1 4 5
M  V30 5 1 4 6
M  V30 6 1 5 7
M  V30 7 1 6 8
M  V30 8 1 6 9
M  V30 9 2 7 10
M  V30 10 1 7 11
M  V30 11 1 11 12
M  V30 12 1 11 13
M  V30 13 1 13 14
M  V30 14 1 14 15
M  V30 15 1 14 16
M  V30 16 1 4 17
M  V30 17 1 5 18
M  V30 18 1 6 19
M  V30 19 1 8 20
M  V30 20 1 8 21
M  V30 21 1 8 22
M  V30 22 1 9 23
M  V30 23 1 9 24
M  V30 24 1 9 25
M  V30 25 1 11 26
M  V30 26 1 12 27
M  V30 27 1 12 28
M  V30 28 1 12 29
M  V30 29 1 13 30
M  V30 30 1 13 31
M  V30 31 1 14 32
M  V30 32 1 15 33
M  V30 33 1 15 34
M  V30 34 1 15 35
M  V30 35 1 16 36
M  V30 36 1 16 37
M  V30 37 1 16 38
M  V30 END BOND
M  V30 BEGIN COLLECTION
M  V30 MDLV30/STEABS ATOMS=(2 4 11)
M  V30 END COLLECTION
M  V30 END CTAB
M  END
>  <Structure No>
7991

>  <LogS>
-0.17

>  <MMFF94 Energy>
-9.7534

$$$$
Compound 7992
Actelion Java MolfileCreator 2.0

  0  0  0  0  0  0              0 V3000
M  V30 BEGIN CTAB
M  V30 COUNTS 22 21 0 0 0
M  V30 BEGIN ATOM
M  V30 1 O -0.0802 -2.4909 0.4817 0
M  V30 2 C -0.5314 -1.3708 0.841 0
M  V30 3 O -1.341 -1.2862 1.9667 0 CHG=-1
M  V30 4 C -0.2154 -0.1329 0.0482 0 CFG=1
M  V30 5 N 1.2363 -0.0151 -0.12 0
M  V30 6 C -0.9106 -0.1646 -1.3305 0
M  V30 7 C 2.1029 0.3588 0.9602 0
M  V30 8 C -2.4461 -0.1494 -1.2484 0
M  V30 9 O 1.6298 0.6062 2.1026 0
M  V30 10 C 3.5776 0.4423 0.7371 0
M  V30 11 C -2.9621 1.1448 -0.6986 0
M  V30 12 O -3.368 1.2119 0.4915 0
M  V30 13 O -2.9662 2.285 -1.4921 0 CHG=-1
M  V30 14 H -0.5772 0.7604 0.6031 0
M  V30 15 H 1.6668 -0.2178 -1.0513 0
M  V30 16 H -0.5943 -1.0773 -1.8821 0
M  V30 17 H -0.5744 0.7108 -1.9293 0
M  V30 18 H -2.8113 -1.0004 -0.6339 0
M  V30 19 H -2.8585 -0.2833 -2.2712 0
M  V30 20 H 3.9737 -0.5674 0.502 0
M  V30 21 H 4.0896 0.8298 1.6435 0
M  V30 22 H 3.7876 1.1244 -0.1129 0
M  V30 END ATOM
M  V30 BEGIN BOND
M  V30 1 2 1 2
M  V30 2 1 2 3
M  V30 3 1 2 4
M  V30 4 1 4 5
M  V30 5 1 4 6
M  V30 6 1 5 7
M  V30 7 1 6 8
M  V30 8 2 7 9
M  V30 9 1 7 10
M  V30 10 1 8 11
M  V30 11 2 11 12
M  V30 12 1 11 13
M  V30 13 1 4 14
M  V30 14 1 5 15
M  V30 15 1 6 16
M  V30 16 1 6 17
M  V30 17 1 8 18
M  V30 18 1 8 19
M  V30 19 1 10 20
M  V30 20 1 10 21
M  V30 21 1 10 22
M  V30 END BOND
M  V30 BEGIN COLLECTION
M  V30 MDLV30/STEABS ATOMS=(1 4)
M  V30 END COLLECTION
M  V30 END CTAB
M  END
>  <Structure No>
7992

>  <LogS>
-0.71

>  <MMFF94 Energy>
88.912

$$$$
Compound 7993
Actelion Java MolfileCreator 2.0

  0  0  0  0  0  0              0 V3000
M  V30 BEGIN CTAB
M  V30 COUNTS 27 26 0 0 0
M  V30 BEGIN ATOM
M  V30 1 O 3.7386 0.4667 1.4785 0
M  V30 2 C 4.0345 0.3751 0.2573 0
M  V30 3 N 3.0252 0.5186 -0.7542 0
M  V30 4 N 5.3947 0.1695 -0.1208 0
M  V30 5 N 1.6453 0.5642 -0.4787 0
M  V30 6 C 1.0742 -0.1379 0.4522 0
M  V30 7 C -0.405 -0.0041 0.6987 0 CFG=2
M  V30 8 O -0.7722 -0.7196 1.8526 0
M  V30 9 C -1.2275 -0.4503 -0.5391 0 CFG=1
M  V30 10 O -0.8868 -1.7729 -0.8749 0
M  V30 11 C -2.7678 -0.3402 -0.3545 0 CFG=1
M  V30 12 O -3.2203 -1.172 0.684 0
M  V30 13 C -3.2514 1.0992 -0.1139 0
M  V30 14 O -3.0414 1.4803 1.2182 0
M  V30 15 H 3.3349 0.7392 -1.7265 0
M  V30 16 H 6.1377 0.0815 0.6075 0
M  V30 17 H 5.6606 0.0998 -1.1278 0
M  V30 18 H 1.6492 -0.8354 1.0484 0
M  V30 19 H -0.5964 1.0719 0.8909 0
M  V30 20 H -0.5829 -1.6804 1.6869 0
M  V30 21 H -0.9414 0.2193 -1.3851 0
M  V30 22 H -1.1554 -1.9106 -1.8208 0
M  V30 23 H -3.2378 -0.6677 -1.3123 0
M  V30 24 H -3.2127 -2.1017 0.3359 0
M  V30 25 H -2.7262 1.7997 -0.8016 0
M  V30 26 H -4.341 1.1504 -0.3361 0
M  V30 27 H -3.3562 2.4188 1.2895 0
M  V30 END ATOM
M  V30 BEGIN BOND
M  V30 1 2 1 2
M  V30 2 1 2 3
M  V30 3 1 2 4
M  V30 4 1 3 5
M  V30 5 2 5 6
M  V30 6 1 6 7
M  V30 7 1 7 8
M  V30 8 1 7 9
M  V30 9 1 9 10
M  V30 10 1 9 11
M  V30 11 1 11 12
M  V30 12 1 11 13
M  V30 13 1 13 14
M  V30 14 1 3 15
M  V30 15 1 4 16
M  V30 16 1 4 17
M  V30 17 1 6 18
M  V30 18 1 7 19
M  V30 19 1 8 20
M  V30 20 1 9 21
M  V30 21 1 10 22
M  V30 22 1 11 23
M  V30 23 1 12 24
M  V30 24 1 13 25
M  V30 25 1 13 26
M  V30 26 1 14 27
M  V30 END BOND
M  V30 BEGIN COLLECTION
M  V30 MDLV30/STEABS ATOMS=(3 7 9 11)
M  V30 END COLLECTION
M  V30 END CTAB
M  END
>  <Structure No>
7993

>  <LogS>
0.02

>  <MMFF94 Energy>
37.429

$$$$
Compound 7994
Actelion Java MolfileCreator 2.0

  0  0  0  0  0  0              0 V3000
M  V30 BEGIN CTAB
M  V30 COUNTS 22 21 0 0 0
M  V30 BEGIN ATOM
M  V30 1 S 1.1812 2.448 1.5189 0
M  V30 2 C 0.4677 0.9977 1.2878 0
M  V30 3 S 1.4353 -0.5002 1.5414 0
M  V30 4 O -0.8898 0.9661 0.9445 0
M  V30 5 C 2.2087 -0.5013 -0.1157 0
M  V30 6 C -1.672 -0.2238 0.816 0 CFG=1
M  V30 7 C 3.6191 0.0663 -0.0425 0
M  V30 8 C -3.1162 0.1084 1.058 0
M  V30 9 C -1.4897 -0.8638 -0.5719 0
M  V30 10 O -3.8918 -0.7595 1.5391 0
M  V30 11 O -3.6181 1.3564 0.7076 0 CHG=-1
M  V30 12 C -1.75 0.1064 -1.6856 0
M  V30 13 O -2.8881 0.1664 -2.221 0
M  V30 14 O -0.746 0.9692 -2.107 0 CHG=-1
M  V30 15 H 1.6107 0.0801 -0.8489 0
M  V30 16 H 2.2621 -1.551 -0.4735 0
M  V30 17 H -1.3641 -0.957 1.5942 0
M  V30 18 H 4.0901 0.0235 -1.0471 0
M  V30 19 H 3.5929 1.1238 0.2929 0
M  V30 20 H 4.2342 -0.5276 0.6662 0
M  V30 21 H -2.1695 -1.7386 -0.6728 0
M  V30 22 H -0.4573 -1.2533 -0.6705 0
M  V30 END ATOM
M  V30 BEGIN BOND
M  V30 1 2 1 2
M  V30 2 1 2 3
M  V30 3 1 2 4
M  V30 4 1 3 5
M  V30 5 1 4 6
M  V30 6 1 5 7
M  V30 7 1 6 8
M  V30 8 1 6 9
M  V30 9 2 8 10
M  V30 10 1 8 11
M  V30 11 1 9 12
M  V30 12 2 12 13
M  V30 13 1 12 14
M  V30 14 1 5 15
M  V30 15 1 5 16
M  V30 16 1 6 17
M  V30 17 1 7 18
M  V30 18 1 7 19
M  V30 19 1 7 20
M  V30 20 1 9 21
M  V30 21 1 9 22
M  V30 END BOND
M  V30 BEGIN COLLECTION
M  V30 MDLV30/STEABS ATOMS=(1 6)
M  V30 END COLLECTION
M  V30 END CTAB
M  END
>  <Structure No>
7994

>  <LogS>
-1.29

>  <MMFF94 Energy>
78.725

$$$$
Compound 7995
Actelion Java MolfileCreator 2.0

  0  0  0  0  0  0              0 V3000
M  V30 BEGIN CTAB
M  V30 COUNTS 24 23 0 0 0
M  V30 BEGIN ATOM
M  V30 1 S 0.6625 -3.399 0.0 0
M  V30 2 C 1.1449 -1.842 0.0992 0
M  V30 3 S 0.6344 -0.6886 -1.1874 0
M  V30 4 O 1.9516 -1.454 1.1755 0
M  V30 5 C -1.0063 -0.3283 -0.4565 0 CFG=1
M  V30 6 C 2.6499 -0.2126 1.2493 0
M  V30 7 C -0.8519 0.6037 0.7124 0
M  V30 8 C -1.922 0.2679 -1.5373 0
M  V30 9 C 3.8779 -0.2335 0.3471 0
M  V30 10 O -0.4511 1.7859 0.5406 0
M  V30 11 O -1.1342 0.1564 1.9968 0 CHG=-1
M  V30 12 C -3.3288 0.437 -1.0387 0
M  V30 13 O -4.115 -0.5475 -1.04 0
M  V30 14 N -3.7715 1.6945 -0.5278 0
M  V30 15 H -1.4612 -1.2817 -0.1074 0
M  V30 16 H 1.9863 0.6333 0.9772 0
M  V30 17 H 2.9826 -0.0584 2.2973 0
M  V30 18 H -1.5229 1.2451 -1.8872 0
M  V30 19 H -1.9404 -0.4128 -2.4162 0
M  V30 20 H 4.5436 -1.075 0.6335 0
M  V30 21 H 3.5774 -0.3533 -0.7143 0
M  V30 22 H 4.4363 0.7201 0.4543 0
M  V30 23 H -3.1295 2.5176 -0.5048 0
M  V30 24 H -4.7455 1.8031 -0.1676 0
M  V30 END ATOM
M  V30 BEGIN BOND
M  V30 1 2 1 2
M  V30 2 1 2 3
M  V30 3 1 2 4
M  V30 4 1 3 5
M  V30 5 1 4 6
M  V30 6 1 5 7
M  V30 7 1 5 8
M  V30 8 1 6 9
M  V30 9 2 7 10
M  V30 10 1 7 11
M  V30 11 1 8 12
M  V30 12 2 12 13
M  V30 13 1 12 14
M  V30 14 1 5 15
M  V30 15 1 6 16
M  V30 16 1 6 17
M  V30 17 1 8 18
M  V30 18 1 8 19
M  V30 19 1 9 20
M  V30 20 1 9 21
M  V30 21 1 9 22
M  V30 22 1 14 23
M  V30 23 1 14 24
M  V30 END BOND
M  V30 BEGIN COLLECTION
M  V30 MDLV30/STEABS ATOMS=(1 5)
M  V30 END COLLECTION
M  V30 END CTAB
M  END
>  <Structure No>
7995

>  <LogS>
-1.7

>  <MMFF94 Energy>
-19.531

$$$$
Compound 7996
Actelion Java MolfileCreator 2.0

  0  0  0  0  0  0              0 V3000
M  V30 BEGIN CTAB
M  V30 COUNTS 22 21 0 0 0
M  V30 BEGIN ATOM
M  V30 1 S -1.5191 2.1948 0.4218 0
M  V30 2 C -0.9585 0.6784 0.7043 0
M  V30 3 S 0.4476 0.4693 1.7951 0
M  V30 4 O -1.5403 -0.4596 0.1273 0
M  V30 5 C 1.7128 0.6223 0.4804 0 CFG=1
M  V30 6 C -2.7022 -0.4529 -0.7019 0
M  V30 7 C 2.9982 1.0764 1.1113 0
M  V30 8 C 1.8971 -0.724 -0.2401 0
M  V30 9 C -3.966 -0.3423 0.143 0
M  V30 10 O 3.5232 2.1667 0.7626 0
M  V30 11 O 3.6173 0.2981 2.0826 0 CHG=-1
M  V30 12 C 2.8434 -0.6043 -1.3959 0
M  V30 13 O 2.4398 -0.1539 -2.5003 0
M  V30 14 O 4.1795 -0.9508 -1.2406 0 CHG=-1
M  V30 15 H 1.3844 1.3904 -0.2555 0
M  V30 16 H -2.7369 -1.4104 -1.263 0
M  V30 17 H -2.6528 0.372 -1.4447 0
M  V30 18 H 0.919 -1.0804 -0.6262 0
M  V30 19 H 2.2731 -1.4921 0.4702 0
M  V30 20 H -4.8596 -0.3921 -0.5141 0
M  V30 21 H -4.0083 -1.1792 0.8716 0
M  V30 22 H -3.9839 0.6199 0.6949 0
M  V30 END ATOM
M  V30 BEGIN BOND
M  V30 1 2 1 2
M  V30 2 1 2 3
M  V30 3 1 2 4
M  V30 4 1 3 5
M  V30 5 1 4 6
M  V30 6 1 5 7
M  V30 7 1 5 8
M  V30 8 1 6 9
M  V30 9 2 7 10
M  V30 10 1 7 11
M  V30 11 1 8 12
M  V30 12 2 12 13
M  V30 13 1 12 14
M  V30 14 1 5 15
M  V30 15 1 6 16
M  V30 16 1 6 17
M  V30 17 1 8 18
M  V30 18 1 8 19
M  V30 19 1 9 20
M  V30 20 1 9 21
M  V30 21 1 9 22
M  V30 END BOND
M  V30 BEGIN COLLECTION
M  V30 MDLV30/STEABS ATOMS=(1 5)
M  V30 END COLLECTION
M  V30 END CTAB
M  END
>  <Structure No>
7996

>  <LogS>
-1.19

>  <MMFF94 Energy>
75.305

$$$$
Compound 7997
Actelion Java MolfileCreator 2.0

  0  0  0  0  0  0              0 V3000
M  V30 BEGIN CTAB
M  V30 COUNTS 32 31 0 0 0
M  V30 BEGIN ATOM
M  V30 1 S -2.9011 0.7454 0.0828 0
M  V30 2 C -1.777 -0.2944 -0.9307 0 CFG=1
M  V30 3 C -4.2428 -0.4876 0.2035 0
M  V30 4 C -2.2535 -0.3016 -2.3564 0
M  V30 5 C -0.3383 0.2472 -0.8629 0
M  V30 6 C -5.3871 0.0727 1.0328 0
M  V30 7 O -2.5178 -1.3899 -2.9309 0
M  V30 8 O -2.3955 0.8913 -3.0553 0 CHG=-1
M  V30 9 C 0.2895 0.0361 0.5291 0
M  V30 10 C 1.7549 0.5013 0.6389 0 CFG=1
M  V30 11 S 2.8475 -0.4804 -0.4651 0
M  V30 12 C 1.8911 1.975 0.3679 0
M  V30 13 C 4.3758 -0.2103 0.4984 0
M  V30 14 O 2.0877 2.3957 -0.8008 0
M  V30 15 O 1.7508 2.8875 1.4053 0 CHG=-1
M  V30 16 C 5.5709 -0.7693 -0.2563 0
M  V30 17 H -1.7805 -1.338 -0.5394 0
M  V30 18 H -3.8615 -1.4095 0.6892 0
M  V30 19 H -4.6169 -0.7384 -0.81 0
M  V30 20 H 0.2775 -0.2812 -1.6208 0
M  V30 21 H -0.3431 1.3278 -1.1176 0
M  V30 22 H -5.0364 0.3084 2.0616 0
M  V30 23 H -6.2059 -0.6769 1.095 0
M  V30 24 H -5.782 0.9987 0.5613 0
M  V30 25 H -0.3085 0.5805 1.2902 0
M  V30 26 H 0.2456 -1.0428 0.7886 0
M  V30 27 H 2.0679 0.3161 1.6892 0
M  V30 28 H 4.5299 0.8755 0.6722 0
M  V30 29 H 4.2909 -0.7275 1.4798 0
M  V30 30 H 6.4862 -0.665 0.3652 0
M  V30 31 H 5.4158 -1.8429 -0.4895 0
M  V30 32 H 5.7147 -0.2119 -1.2064 0
M  V30 END ATOM
M  V30 BEGIN BOND
M  V30 1 1 1 2
M  V30 2 1 1 3
M  V30 3 1 2 4
M  V30 4 1 2 5
M  V30 5 1 3 6
M  V30 6 2 4 7
M  V30 7 1 4 8
M  V30 8 1 5 9
M  V30 9 1 9 10
M  V30 10 1 10 11
M  V30 11 1 10 12
M  V30 12 1 11 13
M  V30 13 2 12 14
M  V30 14 1 12 15
M  V30 15 1 13 16
M  V30 16 1 2 17
M  V30 17 1 3 18
M  V30 18 1 3 19
M  V30 19 1 5 20
M  V30 20 1 5 21
M  V30 21 1 6 22
M  V30 22 1 6 23
M  V30 23 1 6 24
M  V30 24 1 9 25
M  V30 25 1 9 26
M  V30 26 1 10 27
M  V30 27 1 13 28
M  V30 28 1 13 29
M  V30 29 1 16 30
M  V30 30 1 16 31
M  V30 31 1 16 32
M  V30 END BOND
M  V30 BEGIN COLLECTION
M  V30 MDLV30/STEABS ATOMS=(2 2 10)
M  V30 END COLLECTION
M  V30 END CTAB
M  END
>  <Structure No>
7997

>  <LogS>
-1.36

>  <MMFF94 Energy>
151.59

$$$$
Compound 7998
Actelion Java MolfileCreator 2.0

  0  0  0  0  0  0              0 V3000
M  V30 BEGIN CTAB
M  V30 COUNTS 41 40 0 0 0
M  V30 BEGIN ATOM
M  V30 1 O 2.5831 0.7039 -2.2697 0
M  V30 2 C 2.536 1.2355 -1.1285 0
M  V30 3 O 2.9736 2.5438 -0.9645 0 CHG=-1
M  V30 4 C 1.9611 0.4851 0.0402 0 CFG=1
M  V30 5 N 0.5255 0.2955 -0.1852 0
M  V30 6 C 2.6493 -0.8861 0.2485 0
M  V30 7 C -0.4341 1.3342 0.0677 0
M  V30 8 C 4.0001 -0.8135 1.0038 0
M  V30 9 O -0.0615 2.4335 0.561 0
M  V30 10 C -1.8984 1.1209 -0.2404 0 CFG=1
M  V30 11 C 4.4433 -2.2244 1.4157 0
M  V30 12 C 5.1044 -0.1498 0.1683 0
M  V30 13 N -2.0719 0.765 -1.6562 0 CHG=1
M  V30 14 C -2.4717 0.0445 0.7204 0
M  V30 15 C -4.005 -0.1992 0.686 0
M  V30 16 C -4.8305 1.0937 0.6768 0
M  V30 17 C -4.4428 -1.1493 -0.4383 0
M  V30 18 H 2.1011 1.0862 0.966 0
M  V30 19 H 0.199 -0.5898 -0.6348 0
M  V30 20 H 2.7776 -1.4129 -0.7229 0
M  V30 21 H 1.9597 -1.5129 0.8575 0
M  V30 22 H 3.8629 -0.2225 1.9364 0
M  V30 23 H -2.4189 2.0859 -0.0499 0
M  V30 24 H 5.3913 -2.1785 1.993 0
M  V30 25 H 3.6748 -2.6968 2.0641 0
M  V30 26 H 4.5988 -2.8626 0.5193 0
M  V30 27 H 5.1739 -0.6181 -0.8367 0
M  V30 28 H 4.9095 0.9352 0.0579 0
M  V30 29 H 6.0875 -0.2497 0.6759 0
M  V30 30 H -1.8857 -0.2512 -1.8172 0
M  V30 31 H -1.4234 1.3262 -2.2557 0
M  V30 32 H -3.0419 0.9992 -1.9626 0
M  V30 33 H -1.9449 -0.9215 0.5602 0
M  V30 34 H -2.2186 0.3588 1.7581 0
M  V30 35 H -4.2518 -0.7233 1.6369 0
M  V30 36 H -5.9021 0.8587 0.8514 0
M  V30 37 H -4.7457 1.6166 -0.2985 0
M  V30 38 H -4.4889 1.7726 1.4869 0
M  V30 39 H -5.4897 -1.4768 -0.2622 0
M  V30 40 H -3.8016 -2.0557 -0.4544 0
M  V30 41 H -4.4075 -0.6635 -1.4315 0
M  V30 END ATOM
M  V30 BEGIN BOND
M  V30 1 2 1 2
M  V30 2 1 2 3
M  V30 3 1 2 4
M  V30 4 1 4 5
M  V30 5 1 4 6
M  V30 6 1 5 7
M  V30 7 1 6 8
M  V30 8 2 7 9
M  V30 9 1 7 10
M  V30 10 1 8 11
M  V30 11 1 8 12
M  V30 12 1 10 13
M  V30 13 1 10 14
M  V30 14 1 14 15
M  V30 15 1 15 16
M  V30 16 1 15 17
M  V30 17 1 4 18
M  V30 18 1 5 19
M  V30 19 1 6 20
M  V30 20 1 6 21
M  V30 21 1 8 22
M  V30 22 1 10 23
M  V30 23 1 11 24
M  V30 24 1 11 25
M  V30 25 1 11 26
M  V30 26 1 12 27
M  V30 27 1 12 28
M  V30 28 1 12 29
M  V30 29 1 13 30
M  V30 30 1 13 31
M  V30 31 1 13 32
M  V30 32 1 14 33
M  V30 33 1 14 34
M  V30 34 1 15 35
M  V30 35 1 16 36
M  V30 36 1 16 37
M  V30 37 1 16 38
M  V30 38 1 17 39
M  V30 39 1 17 40
M  V30 40 1 17 41
M  V30 END BOND
M  V30 BEGIN COLLECTION
M  V30 MDLV30/STEABS ATOMS=(2 4 10)
M  V30 END COLLECTION
M  V30 END CTAB
M  END
>  <Structure No>
7998

>  <LogS>
-0.69

>  <MMFF94 Energy>
-4.5046

$$$$
Compound 7999
Actelion Java MolfileCreator 2.0

  0  0  0  0  0  0              0 V3000
M  V30 BEGIN CTAB
M  V30 COUNTS 32 31 0 0 0
M  V30 BEGIN ATOM
M  V30 1 S -0.2455 -1.0644 1.2282 0
M  V30 2 S 0.6117 0.7879 0.5866 0
M  V30 3 C -1.8191 -0.8111 0.3394 0
M  V30 4 C 1.4715 0.0638 -0.8551 0
M  V30 5 C -2.747 0.1117 1.1428 0
M  V30 6 C 2.765 -0.6612 -0.4518 0
M  V30 7 C -4.067 0.4657 0.4204 0 CFG=2
M  V30 8 C 3.8583 0.2845 0.0971 0 CFG=1
M  V30 9 N -4.8763 -0.7268 0.1346 0 CHG=1
M  V30 10 C -3.8129 1.2702 -0.8297 0
M  V30 11 N 4.9993 -0.49 0.5993 0 CHG=1
M  V30 12 C 4.3174 1.2585 -0.9569 0
M  V30 13 O -3.6447 2.5156 -0.75 0
M  V30 14 O -3.7123 0.647 -2.0682 0 CHG=-1
M  V30 15 O 4.9007 0.849 -1.9955 0
M  V30 16 O 4.0883 2.6187 -0.7913 0 CHG=-1
M  V30 17 H -2.2938 -1.8064 0.2195 0
M  V30 18 H -1.6191 -0.3974 -0.6703 0
M  V30 19 H 1.6977 0.8758 -1.5769 0
M  V30 20 H 0.7962 -0.6496 -1.3728 0
M  V30 21 H -2.2118 1.0566 1.3804 0
M  V30 22 H -2.9868 -0.3779 2.1118 0
M  V30 23 H 2.5231 -1.4287 0.3139 0
M  V30 24 H 3.1585 -1.2031 -1.3395 0
M  V30 25 H -4.6501 1.1119 1.1159 0
M  V30 26 H 3.4362 0.8637 0.9483 0
M  V30 27 H -5.8107 -0.4336 -0.2336 0
M  V30 28 H -4.4149 -1.3406 -0.5742 0
M  V30 29 H -5.0289 -1.272 1.014 0
M  V30 30 H 4.6899 -1.1064 1.3857 0
M  V30 31 H 5.4068 -1.0836 -0.1598 0
M  V30 32 H 5.7362 0.1573 0.9634 0
M  V30 END ATOM
M  V30 BEGIN BOND
M  V30 1 1 1 2
M  V30 2 1 1 3
M  V30 3 1 2 4
M  V30 4 1 3 5
M  V30 5 1 4 6
M  V30 6 1 5 7
M  V30 7 1 6 8
M  V30 8 1 7 9
M  V30 9 1 7 10
M  V30 10 1 8 11
M  V30 11 1 8 12
M  V30 12 2 10 13
M  V30 13 1 10 14
M  V30 14 2 12 15
M  V30 15 1 12 16
M  V30 16 1 3 17
M  V30 17 1 3 18
M  V30 18 1 4 19
M  V30 19 1 4 20
M  V30 20 1 5 21
M  V30 21 1 5 22
M  V30 22 1 6 23
M  V30 23 1 6 24
M  V30 24 1 7 25
M  V30 25 1 8 26
M  V30 26 1 9 27
M  V30 27 1 9 28
M  V30 28 1 9 29
M  V30 29 1 11 30
M  V30 30 1 11 31
M  V30 31 1 11 32
M  V30 END BOND
M  V30 BEGIN COLLECTION
M  V30 MDLV30/STEABS ATOMS=(2 7 8)
M  V30 END COLLECTION
M  V30 END CTAB
M  END
>  <Structure No>
7999

>  <LogS>
-3.12

>  <MMFF94 Energy>
-54.504

$$$$
Compound 8000
Actelion Java MolfileCreator 2.0

  0  0  0  0  0  0              0 V3000
M  V30 BEGIN CTAB
M  V30 COUNTS 34 33 0 0 0
M  V30 BEGIN ATOM
M  V30 1 S 2.1457 -1.8154 0.5773 0
M  V30 2 C 1.8522 -0.7499 -0.889 0 CFG=1
M  V30 3 C 3.9054 -1.3835 0.8029 0
M  V30 4 C 2.3743 -1.4363 -2.1178 0
M  V30 5 C 0.3513 -0.4505 -1.0464 0
M  V30 6 C 4.0234 -0.0571 1.4971 0
M  V30 7 O 1.9412 -2.5722 -2.4484 0
M  V30 8 O 3.3365 -0.8145 -2.9035 0 CHG=-1
M  V30 9 C -0.1669 0.4891 0.0577 0
M  V30 10 C 4.638 0.9849 0.9308 0
M  V30 11 C -1.672 0.7723 -0.0789 0 CFG=1
M  V30 12 S -2.2429 1.7051 1.3921 0
M  V30 13 C -1.9638 1.5669 -1.3205 0
M  V30 14 C -4.0245 1.3516 1.1964 0
M  V30 15 O -2.6633 1.067 -2.2404 0
M  V30 16 O -1.456 2.8524 -1.4671 0 CHG=-1
M  V30 17 C -4.3337 -0.0323 1.69 0
M  V30 18 C -4.8451 -0.9706 0.8884 0
M  V30 19 H 2.3887 0.2156 -0.7686 0
M  V30 20 H 4.4368 -1.3935 -0.1729 0
M  V30 21 H 4.372 -2.1571 1.4469 0
M  V30 22 H 0.1844 0.0331 -2.0342 0
M  V30 23 H -0.224 -1.4025 -1.0294 0
M  V30 24 H 3.5916 0.0566 2.4871 0
M  V30 25 H 0.4006 1.4458 0.0346 0
M  V30 26 H 0.01 0.0156 1.0474 0
M  V30 27 H 5.0761 0.9089 -0.0595 0
M  V30 28 H 4.7017 1.9297 1.4606 0
M  V30 29 H -2.2069 -0.2012 -0.1196 0
M  V30 30 H -4.5908 2.077 1.8163 0
M  V30 31 H -4.3383 1.4982 0.1407 0
M  V30 32 H -4.131 -0.2759 2.7287 0
M  V30 33 H -5.055 -0.7638 -0.1565 0
M  V30 34 H -5.0536 -1.9614 1.2784 0
M  V30 END ATOM
M  V30 BEGIN BOND
M  V30 1 1 1 2
M  V30 2 1 1 3
M  V30 3 1 2 4
M  V30 4 1 2 5
M  V30 5 1 3 6
M  V30 6 2 4 7
M  V30 7 1 4 8
M  V30 8 1 5 9
M  V30 9 2 6 10
M  V30 10 1 9 11
M  V30 11 1 11 12
M  V30 12 1 11 13
M  V30 13 1 12 14
M  V30 14 2 13 15
M  V30 15 1 13 16
M  V30 16 1 14 17
M  V30 17 2 17 18
M  V30 18 1 2 19
M  V30 19 1 3 20
M  V30 20 1 3 21
M  V30 21 1 5 22
M  V30 22 1 5 23
M  V30 23 1 6 24
M  V30 24 1 9 25
M  V30 25 1 9 26
M  V30 26 1 10 27
M  V30 27 1 10 28
M  V30 28 1 11 29
M  V30 29 1 14 30
M  V30 30 1 14 31
M  V30 31 1 17 32
M  V30 32 1 18 33
M  V30 33 1 18 34
M  V30 END BOND
M  V30 BEGIN COLLECTION
M  V30 MDLV30/STEABS ATOMS=(2 2 11)
M  V30 END COLLECTION
M  V30 END CTAB
M  END
>  <Structure No>
8000

>  <LogS>
-2.2

>  <MMFF94 Energy>
157

$$$$
Compound 8001
Actelion Java MolfileCreator 2.0

  0  0  0  0  0  0              0 V3000
M  V30 BEGIN CTAB
M  V30 COUNTS 36 35 0 0 0
M  V30 BEGIN ATOM
M  V30 1 O 1.1765 -0.4704 0.9411 0
M  V30 2 C 0.2675 -0.1598 0.123 0
M  V30 3 N 0.4556 -0.3926 -1.2819 0
M  V30 4 C -1.0249 0.4268 0.6436 0 CFG=1
M  V30 5 C 1.6811 -0.9765 -1.8205 0
M  V30 6 N -1.3205 1.6997 -0.0314 0 CHG=1
M  V30 7 C -2.1692 -0.6018 0.4687 0
M  V30 8 C 2.8068 0.0095 -1.7434 0
M  V30 9 C -3.5444 -0.1491 1.0181 0
M  V30 10 O 2.7366 1.0803 -2.4064 0
M  V30 11 N 3.9549 -0.2622 -0.926 0
M  V30 12 C -4.6026 -1.2181 0.7117 0
M  V30 13 C -3.5054 0.121 2.5301 0
M  V30 14 C 5.1004 0.6423 -0.8565 0
M  V30 15 C 5.8386 0.6505 -2.1585 0
M  V30 16 O 6.3688 -0.407 -2.5934 0
M  V30 17 O 5.9413 1.8251 -2.8935 0 CHG=-1
M  V30 18 H -0.3216 -0.1813 -1.947 0
M  V30 19 H -0.8844 0.6263 1.7295 0
M  V30 20 H 1.5217 -1.2488 -2.8856 0
M  V30 21 H 1.9268 -1.9091 -1.2694 0
M  V30 22 H -1.6427 1.538 -1.0133 0
M  V30 23 H -2.0619 2.2188 0.4919 0
M  V30 24 H -0.4658 2.3033 -0.045 0
M  V30 25 H -1.8765 -1.5493 0.9748 0
M  V30 26 H -2.28 -0.8338 -0.6137 0
M  V30 27 H -3.8608 0.7808 0.4992 0
M  V30 28 H 3.9712 -1.1275 -0.3413 0
M  V30 29 H -4.6622 -1.4006 -0.3832 0
M  V30 30 H -4.3516 -2.1757 1.2195 0
M  V30 31 H -5.603 -0.8808 1.0587 0
M  V30 32 H -2.8936 1.0188 2.754 0
M  V30 33 H -3.0857 -0.7525 3.0744 0
M  V30 34 H -4.5292 0.3209 2.914 0
M  V30 35 H 4.7558 1.6674 -0.597 0
M  V30 36 H 5.7938 0.3015 -0.0574 0
M  V30 END ATOM
M  V30 BEGIN BOND
M  V30 1 2 1 2
M  V30 2 1 2 3
M  V30 3 1 2 4
M  V30 4 1 3 5
M  V30 5 1 4 6
M  V30 6 1 4 7
M  V30 7 1 5 8
M  V30 8 1 7 9
M  V30 9 2 8 10
M  V30 10 1 8 11
M  V30 11 1 9 12
M  V30 12 1 9 13
M  V30 13 1 11 14
M  V30 14 1 14 15
M  V30 15 2 15 16
M  V30 16 1 15 17
M  V30 17 1 3 18
M  V30 18 1 4 19
M  V30 19 1 5 20
M  V30 20 1 5 21
M  V30 21 1 6 22
M  V30 22 1 6 23
M  V30 23 1 6 24
M  V30 24 1 7 25
M  V30 25 1 7 26
M  V30 26 1 9 27
M  V30 27 1 11 28
M  V30 28 1 12 29
M  V30 29 1 12 30
M  V30 30 1 12 31
M  V30 31 1 13 32
M  V30 32 1 13 33
M  V30 33 1 13 34
M  V30 34 1 14 35
M  V30 35 1 14 36
M  V30 END BOND
M  V30 BEGIN COLLECTION
M  V30 MDLV30/STEABS ATOMS=(1 4)
M  V30 END COLLECTION
M  V30 END CTAB
M  END
>  <Structure No>
8001

>  <LogS>
0.31

>  <MMFF94 Energy>
-27.47

$$$$
Compound 8002
Actelion Java MolfileCreator 2.0

  0  0  0  0  0  0              0 V3000
M  V30 BEGIN CTAB
M  V30 COUNTS 36 35 0 0 0
M  V30 BEGIN ATOM
M  V30 1 O -1.8038 -1.5683 -1.4114 0
M  V30 2 C -1.3379 -1.0729 -0.3514 0
M  V30 3 O -0.7094 -1.8992 0.5725 0 CHG=-1
M  V30 4 C -1.4198 0.4082 -0.1113 0 CFG=2
M  V30 5 N -0.0619 0.9593 -0.1313 0
M  V30 6 C -2.0978 0.7361 1.2428 0
M  V30 7 C 0.6695 1.1477 -1.3513 0
M  V30 8 C -3.6334 0.5282 1.3192 0
M  V30 9 O 0.1154 0.9459 -2.4658 0
M  V30 10 C 2.1064 1.5679 -1.3051 0
M  V30 11 C -4.4023 1.3687 0.2903 0
M  V30 12 C -4.0512 -0.9459 1.2463 0
M  V30 13 N 2.9102 0.5424 -0.645 0
M  V30 14 C 3.1681 -0.7356 -1.2427 0
M  V30 15 O 2.7481 -0.9929 -2.4034 0
M  V30 16 C 3.9806 -1.7598 -0.5067 0
M  V30 17 N 5.4095 -1.5138 -0.6916 0 CHG=1
M  V30 18 H -2.0004 0.889 -0.9265 0
M  V30 19 H 0.4302 1.144 0.773 0
M  V30 20 H -1.9009 1.807 1.473 0
M  V30 21 H -1.6096 0.1558 2.0568 0
M  V30 22 H -3.9427 0.8936 2.3243 0
M  V30 23 H 2.1805 2.5196 -0.7363 0
M  V30 24 H 2.498 1.7519 -2.3293 0
M  V30 25 H -4.052 2.4226 0.3118 0
M  V30 26 H -4.2774 0.9634 -0.7355 0
M  V30 27 H -5.4866 1.3601 0.533 0
M  V30 28 H -5.1134 -1.0497 1.5554 0
M  V30 29 H -3.4311 -1.5603 1.9331 0
M  V30 30 H -3.9584 -1.3402 0.214 0
M  V30 31 H 3.3144 0.7542 0.2952 0
M  V30 32 H 3.7255 -2.7772 -0.8778 0
M  V30 33 H 3.7307 -1.7218 0.5763 0
M  V30 34 H 5.6634 -0.5708 -0.3162 0
M  V30 35 H 5.9518 -2.2419 -0.1729 0
M  V30 36 H 5.6541 -1.568 -1.7074 0
M  V30 END ATOM
M  V30 BEGIN BOND
M  V30 1 2 1 2
M  V30 2 1 2 3
M  V30 3 1 2 4
M  V30 4 1 4 5
M  V30 5 1 4 6
M  V30 6 1 5 7
M  V30 7 1 6 8
M  V30 8 2 7 9
M  V30 9 1 7 10
M  V30 10 1 8 11
M  V30 11 1 8 12
M  V30 12 1 10 13
M  V30 13 1 13 14
M  V30 14 2 14 15
M  V30 15 1 14 16
M  V30 16 1 16 17
M  V30 17 1 4 18
M  V30 18 1 5 19
M  V30 19 1 6 20
M  V30 20 1 6 21
M  V30 21 1 8 22
M  V30 22 1 10 23
M  V30 23 1 10 24
M  V30 24 1 11 25
M  V30 25 1 11 26
M  V30 26 1 11 27
M  V30 27 1 12 28
M  V30 28 1 12 29
M  V30 29 1 12 30
M  V30 30 1 13 31
M  V30 31 1 16 32
M  V30 32 1 16 33
M  V30 33 1 17 34
M  V30 34 1 17 35
M  V30 35 1 17 36
M  V30 END BOND
M  V30 BEGIN COLLECTION
M  V30 MDLV30/STEABS ATOMS=(1 4)
M  V30 END COLLECTION
M  V30 END CTAB
M  END
>  <Structure No>
8002

>  <LogS>
-0.11

>  <MMFF94 Energy>
-24.489

$$$$
Compound 8003
Actelion Java MolfileCreator 2.0

  0  0  0  0  0  0              0 V3000
M  V30 BEGIN CTAB
M  V30 COUNTS 51 50 0 0 0
M  V30 BEGIN ATOM
M  V30 1 O -2.5458 -2.4661 1.8293 0
M  V30 2 C -3.1093 -1.3471 1.973 0
M  V30 3 O -2.9379 -0.3299 1.0272 0
M  V30 4 C -4.0119 -1.1198 3.1371 0
M  V30 5 C -2.0741 -0.4424 -0.1061 0 CFG=1
M  V30 6 O -2.4133 0.5622 -1.0445 0
M  V30 7 C -0.5994 -0.2556 0.3268 0 CFG=2
M  V30 8 C -3.549 0.1729 -1.7843 0
M  V30 9 O -0.3391 1.1178 0.6302 0
M  V30 10 C 0.3715 -0.7305 -0.7808 0 CFG=1
M  V30 11 C -0.6405 1.7194 1.8568 0
M  V30 12 O 0.1001 0.0076 -1.9762 0
M  V30 13 C 1.8664 -0.557 -0.3898 0 CFG=2
M  V30 14 O -1.1515 1.0548 2.7982 0
M  V30 15 C -0.3776 3.1748 2.0387 0
M  V30 16 C 0.0882 -0.553 -3.2589 0
M  V30 17 O 2.6966 -0.8999 -1.5029 0
M  V30 18 C 2.2777 -1.4559 0.7938 0
M  V30 19 O 0.3088 -1.7821 -3.4328 0
M  V30 20 C -0.235 0.3105 -4.4291 0
M  V30 21 C 3.1395 0.0201 -2.4615 0
M  V30 22 O 1.909 -0.8801 2.0469 0
M  V30 23 O 2.8763 1.2484 -2.3522 0
M  V30 24 C 3.9604 -0.4562 -3.6102 0
M  V30 25 C 2.591 0.1919 2.6335 0
M  V30 26 O 3.6065 0.6931 2.0792 0
M  V30 27 C 2.1226 0.7376 3.9391 0
M  V30 28 H -3.6199 -1.646 4.0327 0
M  V30 29 H -5.0255 -1.5036 2.8995 0
M  V30 30 H -4.076 -0.0341 3.3596 0
M  V30 31 H -2.1791 -1.4638 -0.5479 0
M  V30 32 H -0.4221 -0.8824 1.2256 0
M  V30 33 H -3.8479 1.0148 -2.4417 0
M  V30 34 H -4.4111 -0.059 -1.1199 0
M  V30 35 H -3.3155 -0.6964 -2.4375 0
M  V30 36 H 0.1764 -1.8132 -0.953 0
M  V30 37 H 2.0559 0.5013 -0.1064 0
M  V30 38 H -1.2448 3.756 1.6629 0
M  V30 39 H -0.2179 3.4068 3.113 0
M  V30 40 H 0.531 3.4651 1.471 0
M  V30 41 H 3.3773 -1.6242 0.7814 0
M  V30 42 H 1.7983 -2.4534 0.7005 0
M  V30 43 H 0.0314 1.3646 -4.2052 0
M  V30 44 H -1.3216 0.2471 -4.6454 0
M  V30 45 H 0.3387 -0.0222 -5.3197 0
M  V30 46 H 3.8452 -1.5538 -3.7303 0
M  V30 47 H 5.0287 -0.2193 -3.4261 0
M  V30 48 H 3.6278 0.0427 -4.5448 0
M  V30 49 H 2.9037 0.5787 4.7112 0
M  V30 50 H 1.1908 0.2247 4.2568 0
M  V30 51 H 1.9204 1.8244 3.8393 0
M  V30 END ATOM
M  V30 BEGIN BOND
M  V30 1 2 1 2
M  V30 2 1 2 3
M  V30 3 1 2 4
M  V30 4 1 3 5
M  V30 5 1 5 6
M  V30 6 1 5 7
M  V30 7 1 6 8
M  V30 8 1 7 9
M  V30 9 1 7 10
M  V30 10 1 9 11
M  V30 11 1 10 12
M  V30 12 1 10 13
M  V30 13 2 11 14
M  V30 14 1 11 15
M  V30 15 1 12 16
M  V30 16 1 13 17
M  V30 17 1 13 18
M  V30 18 2 16 19
M  V30 19 1 16 20
M  V30 20 1 17 21
M  V30 21 1 18 22
M  V30 22 2 21 23
M  V30 23 1 21 24
M  V30 24 1 22 25
M  V30 25 2 25 26
M  V30 26 1 25 27
M  V30 27 1 4 28
M  V30 28 1 4 29
M  V30 29 1 4 30
M  V30 30 1 5 31
M  V30 31 1 7 32
M  V30 32 1 8 33
M  V30 33 1 8 34
M  V30 34 1 8 35
M  V30 35 1 10 36
M  V30 36 1 13 37
M  V30 37 1 15 38
M  V30 38 1 15 39
M  V30 39 1 15 40
M  V30 40 1 18 41
M  V30 41 1 18 42
M  V30 42 1 20 43
M  V30 43 1 20 44
M  V30 44 1 20 45
M  V30 45 1 24 46
M  V30 46 1 24 47
M  V30 47 1 24 48
M  V30 48 1 27 49
M  V30 49 1 27 50
M  V30 50 1 27 51
M  V30 END BOND
M  V30 BEGIN COLLECTION
M  V30 MDLV30/STEABS ATOMS=(4 5 7 10 13)
M  V30 END COLLECTION
M  V30 END CTAB
M  END
>  <Structure No>
8003

>  <LogS>
-1.82

>  <MMFF94 Energy>
-23.012

$$$$
Compound 8004
Actelion Java MolfileCreator 2.0

  0  0  0  0  0  0              0 V3000
M  V30 BEGIN CTAB
M  V30 COUNTS 17 17 0 0 0
M  V30 BEGIN ATOM
M  V30 1 S -1.1575 -1.4057 0.2479 0
M  V30 2 C -2.3749 -0.2909 -0.074 0
M  V30 3 C 0.1212 -0.3366 -0.0122 0
M  V30 4 N -3.7779 -0.5656 -0.0289 0 CHG=1
M  V30 5 C -1.8046 0.9341 -0.3918 0
M  V30 6 C 1.5465 -0.6992 0.108 0
M  V30 7 C -0.4046 0.9096 -0.3581 0
M  V30 8 O -4.186 -1.7066 0.2687 0
M  V30 9 O -4.6893 0.4249 -0.3127 0 CHG=-1
M  V30 10 O 1.8531 -1.8905 0.3841 0
M  V30 11 N 2.5859 0.2704 -0.0789 0
M  V30 12 N 3.9349 -0.1059 0.0245 0
M  V30 13 H -2.3763 1.8181 -0.6421 0
M  V30 14 H 0.19 1.7822 -0.5867 0
M  V30 15 H 2.3493 1.2735 -0.2474 0
M  V30 16 H 4.1517 -0.7079 -0.802 0
M  V30 17 H 4.5156 0.7579 -0.0752 0
M  V30 END ATOM
M  V30 BEGIN BOND
M  V30 1 1 1 2
M  V30 2 1 1 3
M  V30 3 1 2 4
M  V30 4 2 2 5
M  V30 5 1 3 6
M  V30 6 2 3 7
M  V30 7 2 4 8
M  V30 8 1 4 9
M  V30 9 2 6 10
M  V30 10 1 6 11
M  V30 11 1 11 12
M  V30 12 1 5 7
M  V30 13 1 5 13
M  V30 14 1 7 14
M  V30 15 1 11 15
M  V30 16 1 12 16
M  V30 17 1 12 17
M  V30 END BOND
M  V30 END CTAB
M  END
>  <Structure No>
8004

>  <LogS>
-1.97

>  <MMFF94 Energy>
86.728

$$$$
Compound 8005
Actelion Java MolfileCreator 2.0

  0  0  0  0  0  0              0 V3000
M  V30 BEGIN CTAB
M  V30 COUNTS 19 20 0 0 0
M  V30 BEGIN ATOM
M  V30 1 S 3.0836 0.599 0.3422 0
M  V30 2 O 3.689 0.3917 1.702 0
M  V30 3 O 3.2647 2.0346 -0.063 0
M  V30 4 N 3.8638 -0.4226 -0.813 0
M  V30 5 C 1.3744 0.2222 0.3997 0
M  V30 6 S 0.7473 -1.2529 0.9433 0
M  V30 7 N 0.4086 1.0861 0.0043 0
M  V30 8 C -0.8312 -0.7581 0.6597 0
M  V30 9 C -0.8214 0.5322 0.1527 0
M  V30 10 C -2.0146 -1.4613 0.8688 0
M  V30 11 C -2.0193 1.1732 -0.1675 0
M  V30 12 C -3.2258 -0.8265 0.5503 0
M  V30 13 C -3.2283 0.4849 0.0343 0
M  V30 14 H 3.764 -1.4041 -0.4697 0
M  V30 15 H 4.8828 -0.1953 -0.7827 0
M  V30 16 H -2.0026 -2.4682 1.2654 0
M  V30 17 H -2.02 2.1806 -0.5638 0
M  V30 18 H -4.1624 -1.3472 0.7018 0
M  V30 19 H -4.1671 0.9655 -0.208 0
M  V30 END ATOM
M  V30 BEGIN BOND
M  V30 1 2 1 2
M  V30 2 2 1 3
M  V30 3 1 1 4
M  V30 4 1 1 5
M  V30 5 1 5 6
M  V30 6 2 5 7
M  V30 7 1 6 8
M  V30 8 1 7 9
M  V30 9 1 8 10
M  V30 10 1 9 11
M  V30 11 2 10 12
M  V30 12 2 11 13
M  V30 13 2 8 9
M  V30 14 1 12 13
M  V30 15 1 4 14
M  V30 16 1 4 15
M  V30 17 1 10 16
M  V30 18 1 11 17
M  V30 19 1 12 18
M  V30 20 1 13 19
M  V30 END BOND
M  V30 END CTAB
M  END
>  <Structure No>
8005

>  <LogS>
-2.63

>  <MMFF94 Energy>
0.3799

$$$$
Compound 8006
Actelion Java MolfileCreator 2.0

  0  0  0  0  0  0              0 V3000
M  V30 BEGIN CTAB
M  V30 COUNTS 24 23 0 0 0
M  V30 BEGIN ATOM
M  V30 1 S 4.6652 -2.0441 0.4085 0
M  V30 2 C 4.0733 -0.5994 -0.0799 0
M  V30 3 O 4.5611 -0.0193 -1.244 0 CHG=-1
M  V30 4 C 2.9771 0.0744 0.6864 0
M  V30 5 C 1.6055 -0.3652 0.1644 0
M  V30 6 C 0.4751 0.3391 0.9295 0
M  V30 7 C -0.9186 -0.173 0.5333 0
M  V30 8 C -1.3449 0.2955 -0.8686 0
M  V30 9 C -2.7614 -0.172 -1.2299 0
M  V30 10 C -3.8075 0.5347 -0.4193 0
M  V30 11 S -4.6461 -0.26 0.739 0
M  V30 12 O -4.0616 1.8821 -0.6423 0 CHG=-1
M  V30 13 H 3.0687 -0.1698 1.7675 0
M  V30 14 H 3.0845 1.1752 0.5741 0
M  V30 15 H 1.5382 -0.1179 -0.9165 0
M  V30 16 H 1.5036 -1.4664 0.2845 0
M  V30 17 H 0.6104 0.1535 2.0178 0
M  V30 18 H 0.5336 1.4377 0.7662 0
M  V30 19 H -0.942 -1.2834 0.5862 0
M  V30 20 H -1.6443 0.2141 1.2804 0
M  V30 21 H -0.6492 -0.1247 -1.6247 0
M  V30 22 H -1.2884 1.4045 -0.9337 0
M  V30 23 H -2.9471 0.0503 -2.3024 0
M  V30 24 H -2.8402 -1.2743 -1.104 0
M  V30 END ATOM
M  V30 BEGIN BOND
M  V30 1 2 1 2
M  V30 2 1 2 3
M  V30 3 1 2 4
M  V30 4 1 4 5
M  V30 5 1 5 6
M  V30 6 1 6 7
M  V30 7 1 7 8
M  V30 8 1 8 9
M  V30 9 1 9 10
M  V30 10 2 10 11
M  V30 11 1 10 12
M  V30 12 1 4 13
M  V30 13 1 4 14
M  V30 14 1 5 15
M  V30 15 1 5 16
M  V30 16 1 6 17
M  V30 17 1 6 18
M  V30 18 1 7 19
M  V30 19 1 7 20
M  V30 20 1 8 21
M  V30 21 1 8 22
M  V30 22 1 9 23
M  V30 23 1 9 24
M  V30 END BOND
M  V30 END CTAB
M  END
>  <Structure No>
8006

>  <LogS>
-2.24

>  <MMFF94 Energy>
49.349

$$$$
Compound 8007
Actelion Java MolfileCreator 2.0

  0  0  0  0  0  0              0 V3000
M  V30 BEGIN CTAB
M  V30 COUNTS 28 27 0 0 0
M  V30 BEGIN ATOM
M  V30 1 O -1.0105 2.0218 1.0105 0
M  V30 2 C -1.3398 1.3446 -3.0E-4 0
M  V30 3 N -0.574 0.1945 -0.3811 0
M  V30 4 C -2.5638 1.7307 -0.7793 0
M  V30 5 N 0.5622 -0.2034 0.3463 0
M  V30 6 C -3.8448 1.1951 -0.1271 0
M  V30 7 C 1.328 -1.3535 -0.0342 0
M  V30 8 C -3.9471 -0.3277 -0.2065 0
M  V30 9 O 0.9987 -2.0307 -1.0451 0
M  V30 10 C 2.5519 -1.7395 0.7447 0
M  V30 11 C 3.8328 -1.2038 0.0926 0
M  V30 12 C 3.935 0.3191 0.172 0
M  V30 13 H -0.879 -0.358 -1.2137 0
M  V30 14 H -2.6228 2.8397 -0.8251 0
M  V30 15 H -2.4858 1.3633 -1.8254 0
M  V30 16 H 0.8671 0.3491 1.1792 0
M  V30 17 H -4.72 1.6342 -0.6531 0
M  V30 18 H -3.8937 1.516 0.9364 0
M  V30 19 H -3.8814 -0.6657 -1.2624 0
M  V30 20 H -3.137 -0.8045 0.3842 0
M  V30 21 H -4.9227 -0.6552 0.2105 0
M  V30 22 H 2.6109 -2.8485 0.7907 0
M  V30 23 H 2.4738 -1.3721 1.7909 0
M  V30 24 H 3.8816 -1.5247 -0.9708 0
M  V30 25 H 4.708 -1.6429 0.6186 0
M  V30 26 H 4.9105 0.6467 -0.2448 0
M  V30 27 H 3.1249 0.796 -0.4185 0
M  V30 28 H 3.8692 0.6572 1.228 0
M  V30 END ATOM
M  V30 BEGIN BOND
M  V30 1 2 1 2
M  V30 2 1 2 3
M  V30 3 1 2 4
M  V30 4 1 3 5
M  V30 5 1 4 6
M  V30 6 1 5 7
M  V30 7 1 6 8
M  V30 8 2 7 9
M  V30 9 1 7 10
M  V30 10 1 10 11
M  V30 11 1 11 12
M  V30 12 1 3 13
M  V30 13 1 4 14
M  V30 14 1 4 15
M  V30 15 1 5 16
M  V30 16 1 6 17
M  V30 17 1 6 18
M  V30 18 1 8 19
M  V30 19 1 8 20
M  V30 20 1 8 21
M  V30 21 1 10 22
M  V30 22 1 10 23
M  V30 23 1 11 24
M  V30 24 1 11 25
M  V30 25 1 12 26
M  V30 26 1 12 27
M  V30 27 1 12 28
M  V30 END BOND
M  V30 END CTAB
M  END
>  <Structure No>
8007

>  <LogS>
-1.0

>  <MMFF94 Energy>
18.791

$$$$
Compound 8008
Actelion Java MolfileCreator 2.0

  0  0  0  0  0  0              0 V3000
M  V30 BEGIN CTAB
M  V30 COUNTS 33 32 0 0 0
M  V30 BEGIN ATOM
M  V30 1 S 0.2388 -0.4776 -1.2742 0
M  V30 2 O 0.4382 -1.9565 -1.4626 0
M  V30 3 O 0.8348 0.2178 -2.4665 0
M  V30 4 N 1.0165 0.0647 0.2101 0
M  V30 5 N -1.4797 -0.1401 -1.2597 0
M  V30 6 C 1.5954 1.422 0.0661 0
M  V30 7 C 1.9842 -0.9197 0.7412 0
M  V30 8 C -2.3541 -1.1445 -0.6259 0
M  V30 9 C -1.8749 1.2795 -1.211 0
M  V30 10 C 2.9741 1.4637 -0.6176 0
M  V30 11 C 1.2846 -1.9864 1.5793 0
M  V30 12 C -2.2172 -1.2193 0.8985 0
M  V30 13 C -1.9776 1.8511 0.2039 0
M  V30 14 H 1.6899 1.8775 1.0754 0
M  V30 15 H 0.8992 2.076 -0.4993 0
M  V30 16 H 2.7102 -0.4246 1.4237 0
M  V30 17 H 2.5649 -1.3951 -0.0794 0
M  V30 18 H -3.4139 -0.9347 -0.888 0
M  V30 19 H -2.1231 -2.142 -1.0571 0
M  V30 20 H -2.858 1.3987 -1.715 0
M  V30 21 H -1.1519 1.8873 -1.7954 0
M  V30 22 H 3.7709 1.1412 0.0839 0
M  V30 23 H 3.012 0.818 -1.5162 0
M  V30 24 H 3.2 2.5066 -0.9244 0
M  V30 25 H 0.764 -1.5128 2.4383 0
M  V30 26 H 2.0389 -2.6982 1.9759 0
M  V30 27 H 0.5515 -2.5585 0.9768 0
M  V30 28 H -3.0165 -0.6279 1.3897 0
M  V30 29 H -1.238 -0.8453 1.2441 0
M  V30 30 H -2.3296 -2.272 1.2336 0
M  V30 31 H -1.1284 1.5322 0.8378 0
M  V30 32 H -2.9323 1.5428 0.6753 0
M  V30 33 H -1.9759 2.9602 0.152 0
M  V30 END ATOM
M  V30 BEGIN BOND
M  V30 1 2 1 2
M  V30 2 2 1 3
M  V30 3 1 1 4
M  V30 4 1 1 5
M  V30 5 1 4 6
M  V30 6 1 4 7
M  V30 7 1 5 8
M  V30 8 1 5 9
M  V30 9 1 6 10
M  V30 10 1 7 11
M  V30 11 1 8 12
M  V30 12 1 9 13
M  V30 13 1 6 14
M  V30 14 1 6 15
M  V30 15 1 7 16
M  V30 16 1 7 17
M  V30 17 1 8 18
M  V30 18 1 8 19
M  V30 19 1 9 20
M  V30 20 1 9 21
M  V30 21 1 10 22
M  V30 22 1 10 23
M  V30 23 1 10 24
M  V30 24 1 11 25
M  V30 25 1 11 26
M  V30 26 1 11 27
M  V30 27 1 12 28
M  V30 28 1 12 29
M  V30 29 1 12 30
M  V30 30 1 13 31
M  V30 31 1 13 32
M  V30 32 1 13 33
M  V30 END BOND
M  V30 END CTAB
M  END
>  <Structure No>
8008

>  <LogS>
-1.14

>  <MMFF94 Energy>
-168.09

$$$$
Compound 8009
Actelion Java MolfileCreator 2.0

  0  0  0  0  0  0              0 V3000
M  V30 BEGIN CTAB
M  V30 COUNTS 42 41 0 0 0
M  V30 BEGIN ATOM
M  V30 1 O 4.2932 -0.4676 0.3896 0
M  V30 2 C 3.4888 -0.6492 -0.5655 0
M  V30 3 O 2.6308 -1.7546 -0.5754 0
M  V30 4 C 3.4562 0.3175 -1.7152 0 CFG=1
M  V30 5 C 2.529 -2.6817 0.5047 0
M  V30 6 O 3.1718 1.6175 -1.2628 0
M  V30 7 C 4.7694 0.2843 -2.5025 0
M  V30 8 C 1.7802 -2.0704 1.6948 0
M  V30 9 C 0.3569 -1.6434 1.3119 0
M  V30 10 C -0.3831 -1.0529 2.5213 0
M  V30 11 C -1.8479 -0.708 2.2083 0
M  V30 12 C -1.9847 0.5258 1.3034 0
M  V30 13 C -3.4609 0.8981 1.1014 0
M  V30 14 C -3.6467 2.2251 0.3432 0
M  V30 15 C -3.0893 2.2353 -1.0913 0
M  V30 16 C -3.7558 1.2031 -1.9996 0
M  V30 17 H 2.6396 0.0132 -2.4049 0
M  V30 18 H 3.5429 -3.0087 0.8221 0
M  V30 19 H 1.9818 -3.5812 0.1508 0
M  V30 20 H 3.9296 1.9144 -0.6935 0
M  V30 21 H 4.7127 0.9926 -3.3561 0
M  V30 22 H 5.6249 0.5734 -1.8551 0
M  V30 23 H 4.9489 -0.7364 -2.9025 0
M  V30 24 H 1.7331 -2.828 2.5072 0
M  V30 25 H 2.3439 -1.1929 2.0784 0
M  V30 26 H -0.2014 -2.5264 0.9308 0
M  V30 27 H 0.4148 -0.8837 0.5044 0
M  V30 28 H 0.1478 -0.146 2.8853 0
M  V30 29 H -0.3755 -1.8002 3.3448 0
M  V30 30 H -2.3492 -1.5816 1.7366 0
M  V30 31 H -2.3639 -0.5045 3.1723 0
M  V30 32 H -1.5303 0.3048 0.3165 0
M  V30 33 H -1.4469 1.3835 1.7636 0
M  V30 34 H -3.9432 1.0117 2.0971 0
M  V30 35 H -3.9915 0.0765 0.5752 0
M  V30 36 H -3.1571 3.0405 0.919 0
M  V30 37 H -4.7325 2.4623 0.3073 0
M  V30 38 H -3.2687 3.2439 -1.5228 0
M  V30 39 H -1.9906 2.0776 -1.0863 0
M  V30 40 H -3.4606 0.1747 -1.7053 0
M  V30 41 H -4.8612 1.3009 -1.9547 0
M  V30 42 H -3.4281 1.3678 -3.0475 0
M  V30 END ATOM
M  V30 BEGIN BOND
M  V30 1 2 1 2
M  V30 2 1 2 3
M  V30 3 1 2 4
M  V30 4 1 3 5
M  V30 5 1 4 6
M  V30 6 1 4 7
M  V30 7 1 5 8
M  V30 8 1 8 9
M  V30 9 1 9 10
M  V30 10 1 10 11
M  V30 11 1 11 12
M  V30 12 1 12 13
M  V30 13 1 13 14
M  V30 14 1 14 15
M  V30 15 1 15 16
M  V30 16 1 4 17
M  V30 17 1 5 18
M  V30 18 1 5 19
M  V30 19 1 6 20
M  V30 20 1 7 21
M  V30 21 1 7 22
M  V30 22 1 7 23
M  V30 23 1 8 24
M  V30 24 1 8 25
M  V30 25 1 9 26
M  V30 26 1 9 27
M  V30 27 1 10 28
M  V30 28 1 10 29
M  V30 29 1 11 30
M  V30 30 1 11 31
M  V30 31 1 12 32
M  V30 32 1 12 33
M  V30 33 1 13 34
M  V30 34 1 13 35
M  V30 35 1 14 36
M  V30 36 1 14 37
M  V30 37 1 15 38
M  V30 38 1 15 39
M  V30 39 1 16 40
M  V30 40 1 16 41
M  V30 41 1 16 42
M  V30 END BOND
M  V30 BEGIN COLLECTION
M  V30 MDLV30/STEABS ATOMS=(1 4)
M  V30 END COLLECTION
M  V30 END CTAB
M  END
>  <Structure No>
8009

>  <LogS>
-3.06

>  <MMFF94 Energy>
24.121

$$$$
Compound 8010
Actelion Java MolfileCreator 2.0

  0  0  0  0  0  0              0 V3000
M  V30 BEGIN CTAB
M  V30 COUNTS 25 24 0 0 0
M  V30 BEGIN ATOM
M  V30 1 O -3.3779 -0.0784 1.7271 0
M  V30 2 C -3.4469 0.16 0.4913 0
M  V30 3 N -2.2941 -0.0031 -0.3432 0
M  V30 4 N -4.6825 0.595 -0.0742 0
M  V30 5 C -1.0115 -0.4442 0.2045 0
M  V30 6 C 0.0479 -0.5455 -0.901 0
M  V30 7 C 1.3673 -1.1715 -0.4143 0
M  V30 8 C 2.0872 -0.39 0.7037 0
M  V30 9 C 2.4722 1.0499 0.3298 0
M  V30 10 C 3.4117 1.095 -0.8357 0
M  V30 11 O 4.631 0.8244 -0.6769 0
M  V30 12 O 2.9342 1.4021 -2.1034 0 CHG=-1
M  V30 13 H -2.3845 0.2057 -1.3636 0
M  V30 14 H -5.5257 0.7157 0.5297 0
M  V30 15 H -4.7575 0.7969 -1.0956 0
M  V30 16 H -1.1434 -1.4381 0.6847 0
M  V30 17 H -0.6828 0.2871 0.9729 0
M  V30 18 H -0.3507 -1.19 -1.7148 0
M  V30 19 H 0.2324 0.4565 -1.3417 0
M  V30 20 H 1.16 -2.1996 -0.0456 0
M  V30 21 H 2.0508 -1.2784 -1.2839 0
M  V30 22 H 1.4535 -0.3705 1.6152 0
M  V30 23 H 3.0107 -0.9456 0.9779 0
M  V30 24 H 1.5662 1.6527 0.112 0
M  V30 25 H 2.9688 1.5228 1.2044 0
M  V30 END ATOM
M  V30 BEGIN BOND
M  V30 1 2 1 2
M  V30 2 1 2 3
M  V30 3 1 2 4
M  V30 4 1 3 5
M  V30 5 1 5 6
M  V30 6 1 6 7
M  V30 7 1 7 8
M  V30 8 1 8 9
M  V30 9 1 9 10
M  V30 10 2 10 11
M  V30 11 1 10 12
M  V30 12 1 3 13
M  V30 13 1 4 14
M  V30 14 1 4 15
M  V30 15 1 5 16
M  V30 16 1 5 17
M  V30 17 1 6 18
M  V30 18 1 6 19
M  V30 19 1 7 20
M  V30 20 1 7 21
M  V30 21 1 8 22
M  V30 22 1 8 23
M  V30 23 1 9 24
M  V30 24 1 9 25
M  V30 END BOND
M  V30 END CTAB
M  END
>  <Structure No>
8010

>  <LogS>
-2.16

>  <MMFF94 Energy>
-105.13

$$$$
Compound 8011
Actelion Java MolfileCreator 2.0

  0  0  0  0  0  0              0 V3000
M  V30 BEGIN CTAB
M  V30 COUNTS 27 26 0 0 0
M  V30 BEGIN ATOM
M  V30 1 S -4.8867 0.8132 2.1154 0
M  V30 2 C -4.5688 0.9885 0.5203 0
M  V30 3 O -5.6221 1.1088 -0.3773 0 CHG=-1
M  V30 4 C -3.1583 0.9678 0.0169 0
M  V30 5 C -2.7218 -0.4692 -0.2981 0
M  V30 6 C -1.3316 -0.5359 -0.9496 0
M  V30 7 C -0.2002 -0.2061 0.0355 0
M  V30 8 C 1.1723 -0.4124 -0.6161 0
M  V30 9 C 2.3032 -0.0733 0.3619 0
M  V30 10 C 3.674 -0.2814 -0.2891 0
M  V30 11 C 4.7705 0.0637 0.6709 0
M  V30 12 S 5.3922 -1.0731 1.6694 0
M  V30 13 O 5.2329 1.3711 0.7517 0 CHG=-1
M  V30 14 H -3.0972 1.5897 -0.902 0
M  V30 15 H -2.4895 1.4171 0.7812 0
M  V30 16 H -2.7324 -1.0813 0.6306 0
M  V30 17 H -3.4537 -0.9185 -1.0053 0
M  V30 18 H -1.1833 -1.5692 -1.3329 0
M  V30 19 H -1.2897 0.155 -1.8202 0
M  V30 20 H -0.2841 -0.8632 0.9291 0
M  V30 21 H -0.2859 0.8517 0.3633 0
M  V30 22 H 1.2544 0.2393 -1.5139 0
M  V30 23 H 1.2713 -1.4725 -0.9385 0
M  V30 24 H 2.2199 -0.7244 1.2603 0
M  V30 25 H 2.2064 0.9873 0.684 0
M  V30 26 H 3.7807 -1.338 -0.6193 0
M  V30 27 H 3.7649 0.3684 -1.1862 0
M  V30 END ATOM
M  V30 BEGIN BOND
M  V30 1 2 1 2
M  V30 2 1 2 3
M  V30 3 1 2 4
M  V30 4 1 4 5
M  V30 5 1 5 6
M  V30 6 1 6 7
M  V30 7 1 7 8
M  V30 8 1 8 9
M  V30 9 1 9 10
M  V30 10 1 10 11
M  V30 11 2 11 12
M  V30 12 1 11 13
M  V30 13 1 4 14
M  V30 14 1 4 15
M  V30 15 1 5 16
M  V30 16 1 5 17
M  V30 17 1 6 18
M  V30 18 1 6 19
M  V30 19 1 7 20
M  V30 20 1 7 21
M  V30 21 1 8 22
M  V30 22 1 8 23
M  V30 23 1 9 24
M  V30 24 1 9 25
M  V30 25 1 10 26
M  V30 26 1 10 27
M  V30 END BOND
M  V30 END CTAB
M  END
>  <Structure No>
8011

>  <LogS>
-2.39

>  <MMFF94 Energy>
44.455

$$$$
Compound 8012
Actelion Java MolfileCreator 2.0

  0  0  0  0  0  0              0 V3000
M  V30 BEGIN CTAB
M  V30 COUNTS 30 29 0 0 0
M  V30 BEGIN ATOM
M  V30 1 S -5.9259 0.0 -0.8912 0
M  V30 2 C -5.157 0.7636 0.3342 0
M  V30 3 O -5.8998 1.3005 1.3782 0 CHG=-1
M  V30 4 C -3.6617 0.8418 0.3655 0
M  V30 5 C -3.0746 -0.3835 1.0787 0
M  V30 6 C -1.552 -0.2878 1.263 0
M  V30 7 C -0.7849 -0.4515 -0.0575 0
M  V30 8 C 0.7286 -0.4828 0.1868 0
M  V30 9 C 1.4964 -0.6244 -1.1358 0
M  V30 10 C 3.0097 -0.7918 -0.9265 0
M  V30 11 C 3.6872 0.5004 -0.4516 0
M  V30 12 C 5.1733 0.3234 -0.3962 0
M  V30 13 S 5.8942 -0.2498 0.9558 0
M  V30 14 O 5.9454 0.6009 -1.5171 0 CHG=-1
M  V30 15 H -3.276 0.9069 -0.6737 0
M  V30 16 H -3.3628 1.7683 0.9019 0
M  V30 17 H -3.3286 -1.3083 0.5153 0
M  V30 18 H -3.5374 -0.4665 2.0871 0
M  V30 19 H -1.29 0.684 1.7359 0
M  V30 20 H -1.2407 -1.0959 1.9609 0
M  V30 21 H -1.0205 0.3966 -0.735 0
M  V30 22 H -1.0966 -1.3983 -0.551 0
M  V30 23 H 0.9754 -1.34 0.8512 0
M  V30 24 H 1.0285 0.4582 0.6952 0
M  V30 25 H 1.301 0.2579 -1.7841 0
M  V30 26 H 1.1236 -1.5246 -1.6718 0
M  V30 27 H 3.4584 -1.095 -1.8983 0
M  V30 28 H 3.2008 -1.6104 -0.1981 0
M  V30 29 H 3.314 0.7864 0.5544 0
M  V30 30 H 3.4514 1.329 -1.1539 0
M  V30 END ATOM
M  V30 BEGIN BOND
M  V30 1 2 1 2
M  V30 2 1 2 3
M  V30 3 1 2 4
M  V30 4 1 4 5
M  V30 5 1 5 6
M  V30 6 1 6 7
M  V30 7 1 7 8
M  V30 8 1 8 9
M  V30 9 1 9 10
M  V30 10 1 10 11
M  V30 11 1 11 12
M  V30 12 2 12 13
M  V30 13 1 12 14
M  V30 14 1 4 15
M  V30 15 1 4 16
M  V30 16 1 5 17
M  V30 17 1 5 18
M  V30 18 1 6 19
M  V30 19 1 6 20
M  V30 20 1 7 21
M  V30 21 1 7 22
M  V30 22 1 8 23
M  V30 23 1 8 24
M  V30 24 1 9 25
M  V30 25 1 9 26
M  V30 26 1 10 27
M  V30 27 1 10 28
M  V30 28 1 11 29
M  V30 29 1 11 30
M  V30 END BOND
M  V30 END CTAB
M  END
>  <Structure No>
8012

>  <LogS>
-3.07

>  <MMFF94 Energy>
43.356

$$$$
Compound 8013
Actelion Java MolfileCreator 2.0

  0  0  0  0  0  0              0 V3000
M  V30 BEGIN CTAB
M  V30 COUNTS 26 25 0 0 0
M  V30 BEGIN ATOM
M  V30 1 O 2.2864 1.3398 -1.7341 0
M  V30 2 C 2.0667 0.4352 -0.8808 0
M  V30 3 O 2.4399 0.6145 0.4545 0
M  V30 4 C 1.3654 -0.8289 -1.2819 0 CFG=2
M  V30 5 C 3.0633 1.8039 0.9226 0
M  V30 6 C 2.031 -1.4406 -2.4409 0
M  V30 7 C -0.0853 -0.551 -1.5975 0
M  V30 8 N 2.555 -1.9227 -3.3533 0
M  V30 9 O -0.3739 0.1764 -2.5378 0
M  V30 10 C -1.193 -1.1671 -0.7781 0
M  V30 11 C -2.0373 -0.1012 -0.0481 0
M  V30 12 C -3.2509 -0.7575 0.6215 0
M  V30 13 C -1.2069 0.6577 0.9976 0
M  V30 14 H 1.4406 -1.5503 -0.4407 0
M  V30 15 H 4.0267 1.9621 0.3935 0
M  V30 16 H 3.2612 1.708 2.0098 0
M  V30 17 H 2.3944 2.6744 0.7541 0
M  V30 18 H -0.7816 -1.8863 -0.0369 0
M  V30 19 H -1.8435 -1.7469 -1.4686 0
M  V30 20 H -2.4189 0.6322 -0.7929 0
M  V30 21 H -3.88 0.0126 1.1171 0
M  V30 22 H -2.9255 -1.4992 1.3827 0
M  V30 23 H -3.8763 -1.2735 -0.1379 0
M  V30 24 H -0.7574 -0.0469 1.7298 0
M  V30 25 H -0.3955 1.2321 0.5047 0
M  V30 26 H -1.8463 1.3831 1.5443 0
M  V30 END ATOM
M  V30 BEGIN BOND
M  V30 1 2 1 2
M  V30 2 1 2 3
M  V30 3 1 2 4
M  V30 4 1 3 5
M  V30 5 1 4 6
M  V30 6 1 4 7
M  V30 7 3 6 8
M  V30 8 2 7 9
M  V30 9 1 7 10
M  V30 10 1 10 11
M  V30 11 1 11 12
M  V30 12 1 11 13
M  V30 13 1 4 14
M  V30 14 1 5 15
M  V30 15 1 5 16
M  V30 16 1 5 17
M  V30 17 1 10 18
M  V30 18 1 10 19
M  V30 19 1 11 20
M  V30 20 1 12 21
M  V30 21 1 12 22
M  V30 22 1 12 23
M  V30 23 1 13 24
M  V30 24 1 13 25
M  V30 25 1 13 26
M  V30 END BOND
M  V30 BEGIN COLLECTION
M  V30 MDLV30/STEABS ATOMS=(1 4)
M  V30 END COLLECTION
M  V30 END CTAB
M  END
>  <Structure No>
8013

>  <LogS>
-2.73

>  <MMFF94 Energy>
-26.276

$$$$
Compound 8014
Actelion Java MolfileCreator 2.0

  0  0  0  0  0  0              0 V3000
M  V30 BEGIN CTAB
M  V30 COUNTS 34 33 0 0 0
M  V30 BEGIN ATOM
M  V30 1 O -1.2458 -1.09 1.8692 0
M  V30 2 C -1.4996 -1.1958 0.6389 0
M  V30 3 N -0.714 -0.4834 -0.3255 0
M  V30 4 C -2.6498 -2.0503 0.1954 0
M  V30 5 N 0.3439 0.3561 0.0674 0
M  V30 6 C -4.0073 -1.3701 0.4326 0
M  V30 7 C 1.1194 1.0815 -0.8952 0
M  V30 8 C -4.2617 -0.1608 -0.4899 0
M  V30 9 O 0.8705 0.9708 -2.126 0
M  V30 10 C 2.2597 1.9504 -0.449 0
M  V30 11 C -3.8506 1.166 0.1484 0
M  V30 12 C 3.6063 1.2237 -0.5606 0
M  V30 13 C 3.7334 0.0741 0.4496 0
M  V30 14 C 5.1119 -0.5753 0.3729 0
M  V30 15 H -0.9527 -0.5801 -1.3381 0
M  V30 16 H -2.5414 -2.3199 -0.8772 0
M  V30 17 H -2.6232 -3.0005 0.7715 0
M  V30 18 H 0.5805 0.4563 1.0804 0
M  V30 19 H -4.1147 -1.0867 1.5032 0
M  V30 20 H -4.7944 -2.1282 0.2261 0
M  V30 21 H -3.7371 -0.2862 -1.4619 0
M  V30 22 H -5.3504 -0.1056 -0.7095 0
M  V30 23 H 2.2885 2.858 -1.0903 0
M  V30 24 H 2.0964 2.2931 0.5958 0
M  V30 25 H -4.4 1.3229 1.1011 0
M  V30 26 H -4.0996 1.9996 -0.5415 0
M  V30 27 H -2.7612 1.1951 0.347 0
M  V30 28 H 3.7371 0.8352 -1.5948 0
M  V30 29 H 4.4152 1.9629 -0.371 0
M  V30 30 H 3.5745 0.4598 1.4802 0
M  V30 31 H 2.9651 -0.701 0.2406 0
M  V30 32 H 5.2875 -0.9879 -0.6434 0
M  V30 33 H 5.9028 0.1678 0.6092 0
M  V30 34 H 5.1734 -1.4049 1.1085 0
M  V30 END ATOM
M  V30 BEGIN BOND
M  V30 1 2 1 2
M  V30 2 1 2 3
M  V30 3 1 2 4
M  V30 4 1 3 5
M  V30 5 1 4 6
M  V30 6 1 5 7
M  V30 7 1 6 8
M  V30 8 2 7 9
M  V30 9 1 7 10
M  V30 10 1 8 11
M  V30 11 1 10 12
M  V30 12 1 12 13
M  V30 13 1 13 14
M  V30 14 1 3 15
M  V30 15 1 4 16
M  V30 16 1 4 17
M  V30 17 1 5 18
M  V30 18 1 6 19
M  V30 19 1 6 20
M  V30 20 1 8 21
M  V30 21 1 8 22
M  V30 22 1 10 23
M  V30 23 1 10 24
M  V30 24 1 11 25
M  V30 25 1 11 26
M  V30 26 1 11 27
M  V30 27 1 12 28
M  V30 28 1 12 29
M  V30 29 1 13 30
M  V30 30 1 13 31
M  V30 31 1 14 32
M  V30 32 1 14 33
M  V30 33 1 14 34
M  V30 END BOND
M  V30 END CTAB
M  END
>  <Structure No>
8014

>  <LogS>
-2.16

>  <MMFF94 Energy>
11.845

$$$$
Compound 8015
Actelion Java MolfileCreator 2.0

  0  0  0  0  0  0              0 V3000
M  V30 BEGIN CTAB
M  V30 COUNTS 28 27 0 0 0
M  V30 BEGIN ATOM
M  V30 1 O 2.6519 1.0133 1.7153 0
M  V30 2 C 2.0338 0.0728 1.1459 0
M  V30 3 O 2.4684 -0.43 -0.0852 0
M  V30 4 C 0.7943 -0.4847 1.7656 0
M  V30 5 C 3.562 0.1209 -0.8156 0
M  V30 6 N -0.3816 0.06 1.0909 0
M  V30 7 C 3.1508 1.4223 -1.4947 0
M  V30 8 C -1.6046 -0.6839 0.9467 0
M  V30 9 C -2.4345 -0.4742 -0.0933 0
M  V30 10 C -1.9644 -1.7318 1.9664 0
M  V30 11 C -2.1578 0.4261 -1.2347 0
M  V30 12 O -0.9859 0.8096 -1.4966 0
M  V30 13 C -3.2694 0.8024 -2.1605 0
M  V30 14 H 0.7541 -0.225 2.8455 0
M  V30 15 H 0.8188 -1.5912 1.6668 0
M  V30 16 H 3.8686 -0.607 -1.5959 0
M  V30 17 H 4.4307 0.2929 -0.1434 0
M  V30 18 H -0.3901 1.0825 0.8724 0
M  V30 19 H 3.9947 1.8084 -2.1042 0
M  V30 20 H 2.8797 2.186 -0.7362 0
M  V30 21 H 2.2785 1.2436 -2.1587 0
M  V30 22 H -3.3719 -1.0183 -0.1263 0
M  V30 23 H -1.5735 -2.7175 1.6385 0
M  V30 24 H -3.0657 -1.803 2.0982 0
M  V30 25 H -1.526 -1.4769 2.9538 0
M  V30 26 H -3.4743 -0.0392 -2.8544 0
M  V30 27 H -2.9928 1.7011 -2.7518 0
M  V30 28 H -4.1886 1.0308 -1.5803 0
M  V30 END ATOM
M  V30 BEGIN BOND
M  V30 1 2 1 2
M  V30 2 1 2 3
M  V30 3 1 2 4
M  V30 4 1 3 5
M  V30 5 1 4 6
M  V30 6 1 5 7
M  V30 7 1 6 8
M  V30 8 2 8 9
M  V30 9 1 8 10
M  V30 10 1 9 11
M  V30 11 2 11 12
M  V30 12 1 11 13
M  V30 13 1 4 14
M  V30 14 1 4 15
M  V30 15 1 5 16
M  V30 16 1 5 17
M  V30 17 1 6 18
M  V30 18 1 7 19
M  V30 19 1 7 20
M  V30 20 1 7 21
M  V30 21 1 9 22
M  V30 22 1 10 23
M  V30 23 1 10 24
M  V30 24 1 10 25
M  V30 25 1 13 26
M  V30 26 1 13 27
M  V30 27 1 13 28
M  V30 END BOND
M  V30 END CTAB
M  END
>  <Structure No>
8015

>  <LogS>
-0.59

>  <MMFF94 Energy>
60.444

$$$$
Compound 8016
Actelion Java MolfileCreator 2.0

  0  0  0  0  0  0              0 V3000
M  V30 BEGIN CTAB
M  V30 COUNTS 30 31 0 0 0
M  V30 BEGIN ATOM
M  V30 1 O -0.558 -1.9942 1.9144 0
M  V30 2 C -1.0279 -1.3097 0.9674 0
M  V30 3 N -0.5065 -1.3293 -0.351 0
M  V30 4 N -2.1267 -0.4219 1.1189 0
M  V30 5 C -1.2963 -0.3666 -1.0429 0
M  V30 6 C 0.8161 -1.8051 -0.749 0
M  V30 7 C -2.3583 0.2422 -0.164 0
M  V30 8 O -1.1069 -0.0585 -2.2504 0
M  V30 9 C 1.8614 -0.7761 -0.4121 0
M  V30 10 C -3.7617 -0.0874 -0.6846 0
M  V30 11 C -2.1493 1.7542 -0.0195 0
M  V30 12 C 2.4838 -0.7836 0.8474 0
M  V30 13 C 2.1785 0.239 -1.3302 0
M  V30 14 C 3.4228 0.1992 1.1749 0
M  V30 15 C 3.1179 1.2204 -0.9985 0
M  V30 16 C 3.7405 1.2 0.2525 0
M  V30 17 H -2.6547 -0.2526 2.0044 0
M  V30 18 H 1.038 -2.7641 -0.2323 0
M  V30 19 H 0.8225 -2.0173 -1.8401 0
M  V30 20 H -3.8934 -1.1875 -0.7728 0
M  V30 21 H -4.5318 0.3028 0.015 0
M  V30 22 H -3.9231 0.3713 -1.6838 0
M  V30 23 H -2.888 2.1771 0.6945 0
M  V30 24 H -1.128 1.9687 0.3637 0
M  V30 25 H -2.2736 2.2595 -1.0014 0
M  V30 26 H 2.2416 -1.5484 1.5746 0
M  V30 27 H 1.6987 0.2714 -2.3004 0
M  V30 28 H 3.9018 0.1873 2.1457 0
M  V30 29 H 3.3607 1.9988 -1.7104 0
M  V30 30 H 4.4664 1.961 0.5082 0
M  V30 END ATOM
M  V30 BEGIN BOND
M  V30 1 2 1 2
M  V30 2 1 2 3
M  V30 3 1 2 4
M  V30 4 1 3 5
M  V30 5 1 3 6
M  V30 6 1 4 7
M  V30 7 2 5 8
M  V30 8 1 6 9
M  V30 9 1 7 10
M  V30 10 1 7 11
M  V30 11 2 9 12
M  V30 12 1 9 13
M  V30 13 1 12 14
M  V30 14 2 13 15
M  V30 15 2 14 16
M  V30 16 1 5 7
M  V30 17 1 15 16
M  V30 18 1 4 17
M  V30 19 1 6 18
M  V30 20 1 6 19
M  V30 21 1 10 20
M  V30 22 1 10 21
M  V30 23 1 10 22
M  V30 24 1 11 23
M  V30 25 1 11 24
M  V30 26 1 11 25
M  V30 27 1 12 26
M  V30 28 1 13 27
M  V30 29 1 14 28
M  V30 30 1 15 29
M  V30 31 1 16 30
M  V30 END BOND
M  V30 END CTAB
M  END
>  <Structure No>
8016

>  <LogS>
-1.8

>  <MMFF94 Energy>
-42.604

$$$$
Compound 8017
Actelion Java MolfileCreator 2.0

  0  0  0  0  0  0              0 V3000
M  V30 BEGIN CTAB
M  V30 COUNTS 20 19 0 0 0
M  V30 BEGIN ATOM
M  V30 1 O -1.5234 2.0049 -2.1654 0
M  V30 2 N -1.2563 2.6386 -1.1228 0 CHG=1
M  V30 3 O -0.8331 1.9884 0.0214 0
M  V30 4 O -1.4257 4.002 -1.0989 0 CHG=-1
M  V30 5 C -0.5979 0.5802 0.0682 0 CFG=1
M  V30 6 C 0.7345 0.2614 -0.6323 0
M  V30 7 C -0.6025 0.1444 1.5462 0
M  V30 8 O 0.8013 -1.1225 -0.9624 0
M  V30 9 C -0.5815 -1.3728 1.7319 0
M  V30 10 N 1.9004 -1.6736 -1.5907 0 CHG=1
M  V30 11 O 2.8864 -0.971 -1.8971 0
M  V30 12 O 1.9092 -3.0167 -1.8808 0 CHG=-1
M  V30 13 H -1.4303 0.0614 -0.4581 0
M  V30 14 H 1.5908 0.5364 0.0214 0
M  V30 15 H 0.8157 0.8502 -1.5706 0
M  V30 16 H -1.5288 0.5336 2.0231 0
M  V30 17 H 0.2613 0.5947 2.0822 0
M  V30 18 H 0.4098 -1.7875 1.4563 0
M  V30 19 H -0.7672 -1.6157 2.7995 0
M  V30 20 H -1.3729 -1.8536 1.1184 0
M  V30 END ATOM
M  V30 BEGIN BOND
M  V30 1 2 1 2
M  V30 2 1 2 3
M  V30 3 1 2 4
M  V30 4 1 3 5
M  V30 5 1 5 6
M  V30 6 1 5 7
M  V30 7 1 6 8
M  V30 8 1 7 9
M  V30 9 1 8 10
M  V30 10 2 10 11
M  V30 11 1 10 12
M  V30 12 1 5 13
M  V30 13 1 6 14
M  V30 14 1 6 15
M  V30 15 1 7 16
M  V30 16 1 7 17
M  V30 17 1 9 18
M  V30 18 1 9 19
M  V30 19 1 9 20
M  V30 END BOND
M  V30 BEGIN COLLECTION
M  V30 MDLV30/STEABS ATOMS=(1 5)
M  V30 END COLLECTION
M  V30 END CTAB
M  END
>  <Structure No>
8017

>  <LogS>
-1.89

>  <MMFF94 Energy>
-28.574

$$$$
Compound 8018
Actelion Java MolfileCreator 2.0

  0  0  0  0  0  0              0 V3000
M  V30 BEGIN CTAB
M  V30 COUNTS 41 40 0 0 0
M  V30 BEGIN ATOM
M  V30 1 O 2.2729 0.2349 1.5671 0
M  V30 2 C 2.5539 -0.7631 0.8478 0
M  V30 3 O 1.5492 -1.4583 0.1657 0
M  V30 4 C 3.9763 -1.2283 0.7368 0 CFG=1
M  V30 5 C 0.1852 -1.0429 0.1425 0
M  V30 6 O 4.8393 -0.1247 0.4618 0
M  V30 7 C 4.4138 -1.8998 2.0353 0
M  V30 8 C 0.0045 0.1425 -0.815 0
M  V30 9 C 4.8377 0.5662 -0.7553 0
M  V30 10 C -1.4235 0.7091 -0.7908 0
M  V30 11 O 4.0832 0.2077 -1.7002 0
M  V30 12 C 5.775 1.7084 -0.9525 0
M  V30 13 C -2.4347 -0.2033 -1.5063 0
M  V30 14 C -3.8556 0.4009 -1.5244 0
M  V30 15 C -4.8222 -0.2593 -0.5226 0
M  V30 16 C -4.4547 -0.054 0.9561 0
M  V30 17 C -4.583 1.402 1.403 0
M  V30 18 H 4.0598 -1.9743 -0.0845 0
M  V30 19 H -0.4255 -1.9001 -0.2064 0
M  V30 20 H -0.1493 -0.7767 1.1694 0
M  V30 21 H 5.4588 -2.2623 1.9355 0
M  V30 22 H 4.3664 -1.1807 2.8815 0
M  V30 23 H 3.7586 -2.7691 2.2587 0
M  V30 24 H 0.2776 -0.1653 -1.8477 0
M  V30 25 H 0.701 0.955 -0.5153 0
M  V30 26 H -1.4094 1.6939 -1.3076 0
M  V30 27 H -1.7315 0.8918 0.2593 0
M  V30 28 H 5.2884 2.4999 -1.5609 0
M  V30 29 H 6.687 1.3524 -1.4747 0
M  V30 30 H 6.0615 2.1378 0.0303 0
M  V30 31 H -2.0956 -0.3387 -2.557 0
M  V30 32 H -2.4509 -1.2102 -1.0391 0
M  V30 33 H -4.2823 0.2406 -2.5389 0
M  V30 34 H -3.8345 1.5019 -1.3777 0
M  V30 35 H -5.8455 0.1389 -0.6989 0
M  V30 36 H -4.8645 -1.3509 -0.73 0
M  V30 37 H -5.1497 -0.6647 1.5721 0
M  V30 38 H -3.43 -0.4271 1.1613 0
M  V30 39 H -5.6014 1.7868 1.1825 0
M  V30 40 H -4.4106 1.4678 2.498 0
M  V30 41 H -3.8309 2.0408 0.897 0
M  V30 END ATOM
M  V30 BEGIN BOND
M  V30 1 2 1 2
M  V30 2 1 2 3
M  V30 3 1 2 4
M  V30 4 1 3 5
M  V30 5 1 4 6
M  V30 6 1 4 7
M  V30 7 1 5 8
M  V30 8 1 6 9
M  V30 9 1 8 10
M  V30 10 2 9 11
M  V30 11 1 9 12
M  V30 12 1 10 13
M  V30 13 1 13 14
M  V30 14 1 14 15
M  V30 15 1 15 16
M  V30 16 1 16 17
M  V30 17 1 4 18
M  V30 18 1 5 19
M  V30 19 1 5 20
M  V30 20 1 7 21
M  V30 21 1 7 22
M  V30 22 1 7 23
M  V30 23 1 8 24
M  V30 24 1 8 25
M  V30 25 1 10 26
M  V30 26 1 10 27
M  V30 27 1 12 28
M  V30 28 1 12 29
M  V30 29 1 12 30
M  V30 30 1 13 31
M  V30 31 1 13 32
M  V30 32 1 14 33
M  V30 33 1 14 34
M  V30 34 1 15 35
M  V30 35 1 15 36
M  V30 36 1 16 37
M  V30 37 1 16 38
M  V30 38 1 17 39
M  V30 39 1 17 40
M  V30 40 1 17 41
M  V30 END BOND
M  V30 BEGIN COLLECTION
M  V30 MDLV30/STEABS ATOMS=(1 4)
M  V30 END COLLECTION
M  V30 END CTAB
M  END
>  <Structure No>
8018

>  <LogS>
-3.39

>  <MMFF94 Energy>
-2.9779

$$$$
Compound 8019
Actelion Java MolfileCreator 2.0

  0  0  0  0  0  0              0 V3000
M  V30 BEGIN CTAB
M  V30 COUNTS 28 30 0 0 0
M  V30 BEGIN ATOM
M  V30 1 O 3.9084 0.4779 -1.0357 0
M  V30 2 C 2.6561 0.1877 -0.4748 0
M  V30 3 C 5.1537 0.0925 -0.4634 0
M  V30 4 C 1.5049 0.634 -1.1544 0
M  V30 5 C 2.5197 -0.5349 0.7444 0
M  V30 6 C 0.257 0.3498 -0.6038 0
M  V30 7 C 1.2482 -0.8089 1.2793 0
M  V30 8 N -0.9513 0.6906 -1.1034 0
M  V30 9 C 0.1375 -0.3507 0.5774 0
M  V30 10 C -1.842 0.1924 -0.2154 0
M  V30 11 C -1.2119 -0.4513 0.8262 0
M  V30 12 C -3.2367 0.2671 -0.2577 0
M  V30 13 C -1.9252 -1.0444 1.8625 0
M  V30 14 N -3.941 -0.3152 0.76 0
M  V30 15 C -3.9547 0.9581 -1.3733 0
M  V30 16 C -3.3268 -0.9588 1.8025 0
M  V30 17 H 5.2694 0.5493 0.542 0
M  V30 18 H 5.2141 -1.0137 -0.3905 0
M  V30 19 H 5.9777 0.4512 -1.1134 0
M  V30 20 H 1.5867 1.185 -2.0827 0
M  V30 21 H 3.3896 -0.8862 1.2818 0
M  V30 22 H 1.1404 -1.3578 2.2058 0
M  V30 23 H -1.1485 1.2213 -1.9811 0
M  V30 24 H -1.4269 -1.5495 2.6796 0
M  V30 25 H -3.6508 2.0253 -1.411 0
M  V30 26 H -3.7059 0.4701 -2.3389 0
M  V30 27 H -5.0534 0.9056 -1.22 0
M  V30 28 H -3.9269 -1.4042 2.5845 0
M  V30 END ATOM
M  V30 BEGIN BOND
M  V30 1 1 1 2
M  V30 2 1 1 3
M  V30 3 2 2 4
M  V30 4 1 2 5
M  V30 5 1 4 6
M  V30 6 2 5 7
M  V30 7 1 6 8
M  V30 8 2 6 9
M  V30 9 1 8 10
M  V30 10 1 9 11
M  V30 11 1 10 12
M  V30 12 1 11 13
M  V30 13 2 12 14
M  V30 14 1 12 15
M  V30 15 2 13 16
M  V30 16 1 7 9
M  V30 17 2 10 11
M  V30 18 1 14 16
M  V30 19 1 3 17
M  V30 20 1 3 18
M  V30 21 1 3 19
M  V30 22 1 4 20
M  V30 23 1 5 21
M  V30 24 1 7 22
M  V30 25 1 8 23
M  V30 26 1 13 24
M  V30 27 1 15 25
M  V30 28 1 15 26
M  V30 29 1 15 27
M  V30 30 1 16 28
M  V30 END BOND
M  V30 END CTAB
M  END
>  <Structure No>
8019

>  <LogS>
-4.48

>  <MMFF94 Energy>
28.218

$$$$
Compound 8020
Actelion Java MolfileCreator 2.0

  0  0  0  0  0  0              0 V3000
M  V30 BEGIN CTAB
M  V30 COUNTS 33 32 0 0 0
M  V30 BEGIN ATOM
M  V30 1 O -2.9753 -2.6618 -1.1736 0
M  V30 2 C -2.2721 -2.6362 -0.1272 0
M  V30 3 O -1.2606 -1.6854 0.0297 0
M  V30 4 N -2.5099 -3.5863 0.9076 0
M  V30 5 C -0.9649 -0.7035 -0.9617 0
M  V30 6 C 0.2046 0.2081 -0.5041 0
M  V30 7 C -0.1564 0.8892 0.8481 0
M  V30 8 C 1.4802 -0.6797 -0.345 0
M  V30 9 C 0.4338 1.278 -1.5962 0
M  V30 10 O -1.4512 1.4946 0.8129 0
M  V30 11 C 2.7609 0.075 0.0611 0
M  V30 12 C -1.6795 2.8358 0.4848 0
M  V30 13 C 3.9426 -0.8832 0.1855 0
M  V30 14 O -0.7184 3.6219 0.2655 0
M  V30 15 N -3.0174 3.3196 0.4066 0
M  V30 16 H -3.262 -4.3034 0.8064 0
M  V30 17 H -1.9315 -3.5707 1.7765 0
M  V30 18 H -1.8775 -0.0965 -1.1543 0
M  V30 19 H -0.697 -1.2142 -1.9135 0
M  V30 20 H 0.6074 1.6409 1.1411 0
M  V30 21 H -0.1672 0.1214 1.651 0
M  V30 22 H 1.2856 -1.4657 0.4182 0
M  V30 23 H 1.677 -1.2061 -1.3059 0
M  V30 24 H -0.5174 1.7858 -1.8623 0
M  V30 25 H 1.1451 2.0583 -1.2535 0
M  V30 26 H 0.8377 0.8128 -2.5212 0
M  V30 27 H 2.621 0.5769 1.0408 0
M  V30 28 H 3.0179 0.8404 -0.7002 0
M  V30 29 H 4.136 -1.3864 -0.7857 0
M  V30 30 H 3.7377 -1.6508 0.9622 0
M  V30 31 H 4.8519 -0.317 0.4785 0
M  V30 32 H -3.819 2.6758 0.5871 0
M  V30 33 H -3.207 4.3178 0.1658 0
M  V30 END ATOM
M  V30 BEGIN BOND
M  V30 1 2 1 2
M  V30 2 1 2 3
M  V30 3 1 2 4
M  V30 4 1 3 5
M  V30 5 1 5 6
M  V30 6 1 6 7
M  V30 7 1 6 8
M  V30 8 1 6 9
M  V30 9 1 7 10
M  V30 10 1 8 11
M  V30 11 1 10 12
M  V30 12 1 11 13
M  V30 13 2 12 14
M  V30 14 1 12 15
M  V30 15 1 4 16
M  V30 16 1 4 17
M  V30 17 1 5 18
M  V30 18 1 5 19
M  V30 19 1 7 20
M  V30 20 1 7 21
M  V30 21 1 8 22
M  V30 22 1 8 23
M  V30 23 1 9 24
M  V30 24 1 9 25
M  V30 25 1 9 26
M  V30 26 1 11 27
M  V30 27 1 11 28
M  V30 28 1 13 29
M  V30 29 1 13 30
M  V30 30 1 13 31
M  V30 31 1 15 32
M  V30 32 1 15 33
M  V30 END BOND
M  V30 END CTAB
M  END
>  <Structure No>
8020

>  <LogS>
-1.74

>  <MMFF94 Energy>
-130.35

$$$$
Compound 8021
Actelion Java MolfileCreator 2.0

  0  0  0  0  0  0              0 V3000
M  V30 BEGIN CTAB
M  V30 COUNTS 23 22 0 0 0
M  V30 BEGIN ATOM
M  V30 1 O 4.4305 0.0 -0.6985 0
M  V30 2 C 3.5806 0.8503 -0.3207 0
M  V30 3 N 2.264 0.4342 0.0486 0
M  V30 4 N 3.9383 2.2305 -0.2654 0
M  V30 5 N 1.9361 -0.9338 0.0471 0
M  V30 6 C 0.7413 -1.4266 0.2205 0
M  V30 7 C -0.4666 -0.5781 0.3538 0
M  V30 8 C 0.5917 -2.919 0.2484 0
M  V30 9 N -1.5958 -1.1059 0.7192 0
M  V30 10 N -2.7963 -0.3793 0.8329 0
M  V30 11 C -3.1769 0.6725 -0.0676 0
M  V30 12 O -2.5249 0.8806 -1.1255 0
M  V30 13 N -4.3296 1.4651 0.2128 0
M  V30 14 H 1.5984 1.1581 0.3951 0
M  V30 15 H 3.2449 2.9473 0.0433 0
M  V30 16 H 4.8991 2.5376 -0.5349 0
M  V30 17 H -0.4177 0.4808 0.1536 0
M  V30 18 H 1.5692 -3.4212 0.0834 0
M  V30 19 H 0.1941 -3.2373 1.235 0
M  V30 20 H -0.1089 -3.2409 -0.5503 0
M  V30 21 H -3.508 -0.7188 1.5171 0
M  V30 22 H -4.6236 2.2209 -0.4448 0
M  V30 23 H -4.8875 1.3021 1.08 0
M  V30 END ATOM
M  V30 BEGIN BOND
M  V30 1 2 1 2
M  V30 2 1 2 3
M  V30 3 1 2 4
M  V30 4 1 3 5
M  V30 5 2 5 6
M  V30 6 1 6 7
M  V30 7 1 6 8
M  V30 8 2 7 9
M  V30 9 1 9 10
M  V30 10 1 10 11
M  V30 11 2 11 12
M  V30 12 1 11 13
M  V30 13 1 3 14
M  V30 14 1 4 15
M  V30 15 1 4 16
M  V30 16 1 7 17
M  V30 17 1 8 18
M  V30 18 1 8 19
M  V30 19 1 8 20
M  V30 20 1 10 21
M  V30 21 1 13 22
M  V30 22 1 13 23
M  V30 END BOND
M  V30 END CTAB
M  END
>  <Structure No>
8021

>  <LogS>
-1.95

>  <MMFF94 Energy>
-38.343

$$$$
Compound 8022
Actelion Java MolfileCreator 2.0

  0  0  0  0  0  0              0 V3000
M  V30 BEGIN CTAB
M  V30 COUNTS 33 32 0 0 0
M  V30 BEGIN ATOM
M  V30 1 S 1.1558 -0.9906 1.0732 0
M  V30 2 O 0.8675 0.4623 1.3274 0
M  V30 3 O 0.4376 -1.8237 2.098 0
M  V30 4 N 0.6439 -1.424 -0.5298 0 CHG=-1
M  V30 5 C 2.9143 -1.2797 1.2409 0
M  V30 6 S -1.0862 -1.5619 -0.5997 0
M  V30 7 C 3.7131 -0.8441 0.0047 0
M  V30 8 O -1.4786 -1.8556 -2.0202 0
M  V30 9 O -1.5424 -2.6976 0.2728 0
M  V30 10 C -1.8792 -0.0457 -0.0763 0
M  V30 11 C 3.7231 0.6786 -0.189 0
M  V30 12 C -3.3794 -0.0804 -0.3784 0
M  V30 13 C 4.6503 1.0809 -1.332 0
M  V30 14 C -4.0649 1.2042 0.1 0
M  V30 15 C -5.5605 1.1759 -0.2011 0
M  V30 16 H 3.2887 -0.7537 2.1449 0
M  V30 17 H 3.07 -2.3686 1.3944 0
M  V30 18 H 4.7596 -1.1964 0.1359 0
M  V30 19 H 3.306 -1.3397 -0.9027 0
M  V30 20 H -1.4054 0.8067 -0.6081 0
M  V30 21 H -1.7267 0.0802 1.0162 0
M  V30 22 H 2.7 1.0377 -0.4276 0
M  V30 23 H 4.0662 1.1764 0.7441 0
M  V30 24 H -3.8367 -0.955 0.1343 0
M  V30 25 H -3.5322 -0.191 -1.474 0
M  V30 26 H 4.6286 2.184 -1.4577 0
M  V30 27 H 4.3192 0.6084 -2.2812 0
M  V30 28 H 5.6935 0.7699 -1.1112 0
M  V30 29 H -3.9214 1.3203 1.1965 0
M  V30 30 H -3.6121 2.0829 -0.4093 0
M  V30 31 H -5.7322 1.0865 -1.2949 0
M  V30 32 H -6.0423 0.3199 0.3174 0
M  V30 33 H -6.0294 2.1169 0.156 0
M  V30 END ATOM
M  V30 BEGIN BOND
M  V30 1 2 1 2
M  V30 2 2 1 3
M  V30 3 1 1 4
M  V30 4 1 1 5
M  V30 5 1 4 6
M  V30 6 1 5 7
M  V30 7 2 6 8
M  V30 8 2 6 9
M  V30 9 1 6 10
M  V30 10 1 7 11
M  V30 11 1 10 12
M  V30 12 1 11 13
M  V30 13 1 12 14
M  V30 14 1 14 15
M  V30 15 1 5 16
M  V30 16 1 5 17
M  V30 17 1 7 18
M  V30 18 1 7 19
M  V30 19 1 10 20
M  V30 20 1 10 21
M  V30 21 1 11 22
M  V30 22 1 11 23
M  V30 23 1 12 24
M  V30 24 1 12 25
M  V30 25 1 13 26
M  V30 26 1 13 27
M  V30 27 1 13 28
M  V30 28 1 14 29
M  V30 29 1 14 30
M  V30 30 1 15 31
M  V30 31 1 15 32
M  V30 32 1 15 33
M  V30 END BOND
M  V30 END CTAB
M  END
>  <Structure No>
8022

>  <LogS>
-0.76

>  <MMFF94 Energy>
11.096

$$$$
Compound 8023
Actelion Java MolfileCreator 2.0

  0  0  0  0  0  0              0 V3000
M  V30 BEGIN CTAB
M  V30 COUNTS 42 41 0 0 0
M  V30 BEGIN ATOM
M  V30 1 O 4.4557 -0.3121 1.4835 0
M  V30 2 C 4.9329 0.5669 0.7151 0
M  V30 3 N 4.0987 1.6297 0.2307 0
M  V30 4 C 6.3789 0.4878 0.2991 0 CFG=1
M  V30 5 C 2.6825 1.7372 0.5759 0
M  V30 6 O 7.2132 0.3825 1.4266 0
M  V30 7 C 6.6074 -0.6799 -0.6661 0
M  V30 8 C 1.8571 0.7338 -0.2356 0
M  V30 9 C 0.3666 0.8422 0.1076 0
M  V30 10 C -0.4645 -0.1362 -0.7357 0
M  V30 11 C -1.9752 0.0128 -0.4962 0
M  V30 12 C -2.4161 -0.5487 0.8625 0
M  V30 13 N -3.8693 -0.4697 0.9977 0
M  V30 14 C -4.758 -1.3865 0.3428 0
M  V30 15 O -4.2951 -2.3044 -0.3891 0
M  V30 16 C -6.2487 -1.2133 0.4785 0 CFG=2
M  V30 17 O -6.9104 -2.4534 0.4245 0
M  V30 18 C -6.7812 -0.2569 -0.5932 0
M  V30 19 H 4.5224 2.3862 -0.3522 0
M  V30 20 H 6.6545 1.4227 -0.234 0
M  V30 21 H 2.331 2.7677 0.3447 0
M  V30 22 H 2.5467 1.5665 1.667 0
M  V30 23 H 7.0429 -0.5002 1.8497 0
M  V30 24 H 5.987 -0.5462 -1.5784 0
M  V30 25 H 6.3401 -1.646 -0.1872 0
M  V30 26 H 7.6757 -0.7138 -0.9678 0
M  V30 27 H 2.2086 -0.299 -0.0212 0
M  V30 28 H 2.0058 0.9375 -1.3189 0
M  V30 29 H 0.2316 0.6176 1.1873 0
M  V30 30 H 0.0192 1.8814 -0.0857 0
M  V30 31 H -0.2673 0.0643 -1.8115 0
M  V30 32 H -0.1503 -1.1822 -0.5256 0
M  V30 33 H -2.506 -0.5364 -1.3033 0
M  V30 34 H -2.2693 1.0825 -0.5732 0
M  V30 35 H -1.9518 0.0441 1.679 0
M  V30 36 H -2.0862 -1.6048 0.9757 0
M  V30 37 H -4.2696 0.2625 1.6262 0
M  V30 38 H -6.4626 -0.7646 1.4734 0
M  V30 39 H -6.8159 -2.8116 -0.4969 0
M  V30 40 H -6.3013 0.7398 -0.486 0
M  V30 41 H -6.5708 -0.6514 -1.6104 0
M  V30 42 H -7.8793 -0.1334 -0.4761 0
M  V30 END ATOM
M  V30 BEGIN BOND
M  V30 1 2 1 2
M  V30 2 1 2 3
M  V30 3 1 2 4
M  V30 4 1 3 5
M  V30 5 1 4 6
M  V30 6 1 4 7
M  V30 7 1 5 8
M  V30 8 1 8 9
M  V30 9 1 9 10
M  V30 10 1 10 11
M  V30 11 1 11 12
M  V30 12 1 12 13
M  V30 13 1 13 14
M  V30 14 2 14 15
M  V30 15 1 14 16
M  V30 16 1 16 17
M  V30 17 1 16 18
M  V30 18 1 3 19
M  V30 19 1 4 20
M  V30 20 1 5 21
M  V30 21 1 5 22
M  V30 22 1 6 23
M  V30 23 1 7 24
M  V30 24 1 7 25
M  V30 25 1 7 26
M  V30 26 1 8 27
M  V30 27 1 8 28
M  V30 28 1 9 29
M  V30 29 1 9 30
M  V30 30 1 10 31
M  V30 31 1 10 32
M  V30 32 1 11 33
M  V30 33 1 11 34
M  V30 34 1 12 35
M  V30 35 1 12 36
M  V30 36 1 13 37
M  V30 37 1 16 38
M  V30 38 1 17 39
M  V30 39 1 18 40
M  V30 40 1 18 41
M  V30 41 1 18 42
M  V30 END BOND
M  V30 BEGIN COLLECTION
M  V30 MDLV30/STEABS ATOMS=(2 4 16)
M  V30 END COLLECTION
M  V30 END CTAB
M  END
>  <Structure No>
8023

>  <LogS>
-0.7

>  <MMFF94 Energy>
14.985

$$$$
Compound 8024
Actelion Java MolfileCreator 2.0

  0  0  0  0  0  0              0 V3000
M  V30 BEGIN CTAB
M  V30 COUNTS 45 44 0 0 0
M  V30 BEGIN ATOM
M  V30 1 S 1.3028 2.2809 0.4884 0
M  V30 2 O 1.9019 3.2007 -0.5379 0
M  V30 3 O 1.576 2.8394 1.857 0
M  V30 4 N -0.4112 2.2031 0.2166 0 CHG=-1
M  V30 5 C 2.057 0.6656 0.3365 0
M  V30 6 S -1.1488 1.0721 1.3098 0
M  V30 7 C 3.5839 0.7733 0.3339 0
M  V30 8 O -0.8709 -0.3334 0.8557 0
M  V30 9 O -0.6209 1.2616 2.7047 0
M  V30 10 C -2.9126 1.3433 1.3256 0
M  V30 11 C 4.2323 -0.6125 0.2359 0
M  V30 12 C -3.504 1.1614 -0.0777 0
M  V30 13 C 5.7643 -0.5041 0.2403 0
M  V30 14 C -5.026 1.3888 -0.1001 0
M  V30 15 C 6.4524 -1.8603 0.0225 0
M  V30 16 C -5.8302 0.1854 0.4411 0
M  V30 17 C 6.3135 -2.7938 1.2248 0
M  V30 18 C -6.4469 -0.6866 -0.665 0
M  V30 19 C -5.3985 -1.4308 -1.4892 0
M  V30 20 H 1.7086 0.1966 -0.6082 0
M  V30 21 H 1.7336 0.0368 1.1927 0
M  V30 22 H 3.9185 1.2709 1.2707 0
M  V30 23 H 3.9073 1.3919 -0.5316 0
M  V30 24 H -3.3709 0.6271 2.0383 0
M  V30 25 H -3.1078 2.3758 1.6866 0
M  V30 26 H 3.8988 -1.1074 -0.7027 0
M  V30 27 H 3.8987 -1.2271 1.0995 0
M  V30 28 H -3.2596 0.1487 -0.4607 0
M  V30 29 H -3.032 1.9019 -0.7595 0
M  V30 30 H 6.1098 -0.056 1.198 0
M  V30 31 H 6.0785 0.1751 -0.582 0
M  V30 32 H -5.2667 2.2926 0.502 0
M  V30 33 H -5.3395 1.6225 -1.141 0
M  V30 34 H 7.535 -1.6796 -0.1538 0
M  V30 35 H 6.0429 -2.3564 -0.8839 0
M  V30 36 H -6.6679 0.5792 1.0576 0
M  V30 37 H -5.2161 -0.4491 1.115 0
M  V30 38 H 5.2583 -3.1095 1.3582 0
M  V30 39 H 6.6706 -2.293 2.1497 0
M  V30 40 H 6.9271 -3.704 1.0572 0
M  V30 41 H -7.1138 -1.4376 -0.1885 0
M  V30 42 H -7.0742 -0.0621 -1.3376 0
M  V30 43 H -4.804 -0.718 -2.0976 0
M  V30 44 H -4.7222 -2.011 -0.826 0
M  V30 45 H -5.9056 -2.1358 -2.1812 0
M  V30 END ATOM
M  V30 BEGIN BOND
M  V30 1 2 1 2
M  V30 2 2 1 3
M  V30 3 1 1 4
M  V30 4 1 1 5
M  V30 5 1 4 6
M  V30 6 1 5 7
M  V30 7 2 6 8
M  V30 8 2 6 9
M  V30 9 1 6 10
M  V30 10 1 7 11
M  V30 11 1 10 12
M  V30 12 1 11 13
M  V30 13 1 12 14
M  V30 14 1 13 15
M  V30 15 1 14 16
M  V30 16 1 15 17
M  V30 17 1 16 18
M  V30 18 1 18 19
M  V30 19 1 5 20
M  V30 20 1 5 21
M  V30 21 1 7 22
M  V30 22 1 7 23
M  V30 23 1 10 24
M  V30 24 1 10 25
M  V30 25 1 11 26
M  V30 26 1 11 27
M  V30 27 1 12 28
M  V30 28 1 12 29
M  V30 29 1 13 30
M  V30 30 1 13 31
M  V30 31 1 14 32
M  V30 32 1 14 33
M  V30 33 1 15 34
M  V30 34 1 15 35
M  V30 35 1 16 36
M  V30 36 1 16 37
M  V30 37 1 17 38
M  V30 38 1 17 39
M  V30 39 1 17 40
M  V30 40 1 18 41
M  V30 41 1 18 42
M  V30 42 1 19 43
M  V30 43 1 19 44
M  V30 44 1 19 45
M  V30 END BOND
M  V30 END CTAB
M  END
>  <Structure No>
8024

>  <LogS>
-2.2

>  <MMFF94 Energy>
6.176

$$$$
Compound 8025
Actelion Java MolfileCreator 2.0

  0  0  0  0  0  0              0 V3000
M  V30 BEGIN CTAB
M  V30 COUNTS 32 31 0 0 0
M  V30 BEGIN ATOM
M  V30 1 O 2.862 -2.1459 -1.1122 0
M  V30 2 C 2.0046 -1.5549 -1.8235 0
M  V30 3 O 0.9379 -0.8681 -1.2356 0
M  V30 4 C 2.154 -1.5482 -3.3066 0
M  V30 5 C 0.7419 -0.8001 0.1753 0
M  V30 6 O 1.8234 -0.0765 0.7656 0
M  V30 7 C -0.5871 -0.0988 0.4672 0
M  V30 8 C 2.1208 -0.1096 2.1325 0
M  V30 9 O -0.5363 1.2272 -0.0599 0
M  V30 10 O -1.6399 -0.8283 -0.1654 0
M  V30 11 O 1.4488 -0.8251 2.924 0
M  V30 12 C 3.2213 0.7437 2.6637 0
M  V30 13 C -1.3744 2.2662 0.3562 0
M  V30 14 C -2.9432 -0.9199 0.3347 0
M  V30 15 O -2.1524 2.1192 1.3367 0
M  V30 16 C -1.2903 3.5897 -0.3241 0
M  V30 17 O -3.2314 -0.4828 1.4813 0
M  V30 18 C -3.9872 -1.615 -0.4706 0
M  V30 19 H 2.5322 -2.5318 -3.656 0
M  V30 20 H 1.1721 -1.3509 -3.7856 0
M  V30 21 H 2.8697 -0.7533 -3.6022 0
M  V30 22 H 0.7072 -1.8353 0.5847 0
M  V30 23 H -0.7302 -0.0742 1.5704 0
M  V30 24 H 3.9408 0.9828 1.853 0
M  V30 25 H 3.7598 0.2104 3.4754 0
M  V30 26 H 2.7964 1.6878 3.0636 0
M  V30 27 H -2.2918 4.0684 -0.3537 0
M  V30 28 H -0.9255 3.4578 -1.3642 0
M  V30 29 H -0.5862 4.2455 0.2286 0
M  V30 30 H -4.0412 -2.6804 -0.1652 0
M  V30 31 H -3.7332 -1.5573 -1.5497 0
M  V30 32 H -4.9761 -1.1361 -0.3093 0
M  V30 END ATOM
M  V30 BEGIN BOND
M  V30 1 2 1 2
M  V30 2 1 2 3
M  V30 3 1 2 4
M  V30 4 1 3 5
M  V30 5 1 5 6
M  V30 6 1 5 7
M  V30 7 1 6 8
M  V30 8 1 7 9
M  V30 9 1 7 10
M  V30 10 2 8 11
M  V30 11 1 8 12
M  V30 12 1 9 13
M  V30 13 1 10 14
M  V30 14 2 13 15
M  V30 15 1 13 16
M  V30 16 2 14 17
M  V30 17 1 14 18
M  V30 18 1 4 19
M  V30 19 1 4 20
M  V30 20 1 4 21
M  V30 21 1 5 22
M  V30 22 1 7 23
M  V30 23 1 12 24
M  V30 24 1 12 25
M  V30 25 1 12 26
M  V30 26 1 16 27
M  V30 27 1 16 28
M  V30 28 1 16 29
M  V30 29 1 18 30
M  V30 30 1 18 31
M  V30 31 1 18 32
M  V30 END BOND
M  V30 END CTAB
M  END
>  <Structure No>
8025

>  <LogS>
-2.1

>  <MMFF94 Energy>
-57.453

$$$$
Compound 8026
Actelion Java MolfileCreator 2.0

  0  0  0  0  0  0              0 V3000
M  V30 BEGIN CTAB
M  V30 COUNTS 44 43 0 0 0
M  V30 BEGIN ATOM
M  V30 1 O 4.701 -1.7217 1.3302 0
M  V30 2 C 4.4199 -0.6757 0.6822 0
M  V30 3 O 5.4207 0.2415 0.3429 0
M  V30 4 N 3.0713 -0.4188 0.2797 0
M  V30 5 C 6.7839 0.1009 0.7403 0
M  V30 6 C 1.983 -1.3383 0.6153 0
M  V30 7 C 6.9624 0.4617 2.2132 0
M  V30 8 C 0.6442 -0.867 0.0319 0
M  V30 9 O 6.5462 1.7811 2.432 0
M  V30 10 C 0.6101 -0.9945 -1.5007 0
M  V30 11 C -0.7697 -0.6612 -2.089 0
M  V30 12 C -1.0925 0.8408 -2.0227 0
M  V30 13 C -2.403 1.1745 -2.7474 0
M  V30 14 N -3.5422 0.5064 -2.1186 0
M  V30 15 C -4.0886 0.9212 -0.8615 0
M  V30 16 O -3.6159 1.9254 -0.2607 0
M  V30 17 O -5.1547 0.2047 -0.3111 0
M  V30 18 C -5.7494 0.5494 0.9359 0
M  V30 19 C -6.8774 -0.4275 1.25 0
M  V30 20 O -7.4977 -0.0828 2.4588 0
M  V30 21 H 2.8767 0.462 -0.2478 0
M  V30 22 H 7.405 0.7852 0.1241 0
M  V30 23 H 7.1343 -0.9376 0.5542 0
M  V30 24 H 2.2213 -2.3563 0.2368 0
M  V30 25 H 1.8892 -1.3956 1.7215 0
M  V30 26 H 8.037 0.3577 2.4825 0
M  V30 27 H 6.3685 -0.2333 2.8467 0
M  V30 28 H 0.4668 0.1852 0.3401 0
M  V30 29 H -0.1654 -1.4927 0.467 0
M  V30 30 H 6.684 1.9558 3.3991 0
M  V30 31 H 1.3803 -0.3389 -1.9614 0
M  V30 32 H 0.855 -2.0434 -1.7776 0
M  V30 33 H -0.7756 -0.9819 -3.1539 0
M  V30 34 H -1.5531 -1.2449 -1.5579 0
M  V30 35 H -0.2716 1.4153 -2.5043 0
M  V30 36 H -1.1652 1.1716 -0.966 0
M  V30 37 H -2.3278 0.855 -3.8098 0
M  V30 38 H -2.5656 2.2742 -2.7419 0
M  V30 39 H -4.0051 -0.2798 -2.6273 0
M  V30 40 H -6.1588 1.582 0.8816 0
M  V30 41 H -4.9826 0.5023 1.7398 0
M  V30 42 H -6.4805 -1.4671 1.2987 0
M  V30 43 H -7.634 -0.3856 0.4379 0
M  V30 44 H -6.8911 -0.3832 3.1852 0
M  V30 END ATOM
M  V30 BEGIN BOND
M  V30 1 2 1 2
M  V30 2 1 2 3
M  V30 3 1 2 4
M  V30 4 1 3 5
M  V30 5 1 4 6
M  V30 6 1 5 7
M  V30 7 1 6 8
M  V30 8 1 7 9
M  V30 9 1 8 10
M  V30 10 1 10 11
M  V30 11 1 11 12
M  V30 12 1 12 13
M  V30 13 1 13 14
M  V30 14 1 14 15
M  V30 15 2 15 16
M  V30 16 1 15 17
M  V30 17 1 17 18
M  V30 18 1 18 19
M  V30 19 1 19 20
M  V30 20 1 4 21
M  V30 21 1 5 22
M  V30 22 1 5 23
M  V30 23 1 6 24
M  V30 24 1 6 25
M  V30 25 1 7 26
M  V30 26 1 7 27
M  V30 27 1 8 28
M  V30 28 1 8 29
M  V30 29 1 9 30
M  V30 30 1 10 31
M  V30 31 1 10 32
M  V30 32 1 11 33
M  V30 33 1 11 34
M  V30 34 1 12 35
M  V30 35 1 12 36
M  V30 36 1 13 37
M  V30 37 1 13 38
M  V30 38 1 14 39
M  V30 39 1 18 40
M  V30 40 1 18 41
M  V30 41 1 19 42
M  V30 42 1 19 43
M  V30 43 1 20 44
M  V30 END BOND
M  V30 END CTAB
M  END
>  <Structure No>
8026

>  <LogS>
-0.92

>  <MMFF94 Energy>
-105.89

$$$$
Compound 8027
Actelion Java MolfileCreator 2.0

  0  0  0  0  0  0              0 V3000
M  V30 BEGIN CTAB
M  V30 COUNTS 68 67 0 0 0
M  V30 BEGIN ATOM
M  V30 1 O 4.6295 1.6459 0.6267 0
M  V30 2 C 4.2603 0.5768 0.0691 0
M  V30 3 O 4.3601 0.4217 -1.3182 0
M  V30 4 C 3.6927 -0.5371 0.8948 0
M  V30 5 C 4.9549 1.3934 -2.1777 0
M  V30 6 C 2.2196 -0.8015 0.5574 0
M  V30 7 C 6.4832 1.3706 -2.0603 0
M  V30 8 C 1.2961 0.3321 1.0371 0
M  V30 9 C 7.0604 0.0118 -2.4862 0
M  V30 10 C -0.1443 0.1993 0.5028 0
M  V30 11 C 8.5995 -0.0016 -2.5154 0
M  V30 12 C -0.8753 -1.0929 0.9123 0
M  V30 13 C 9.2737 0.239 -1.1522 0
M  V30 14 C -1.1532 -1.1695 2.4226 0
M  V30 15 C 8.8928 -0.806 -0.1025 0
M  V30 16 C -1.8941 -2.4602 2.8246 0
M  V30 17 C -3.4249 -2.3331 2.7859 0
M  V30 18 C -3.9644 -2.2879 1.3908 0
M  V30 19 O -3.8372 -3.2883 0.6341 0
M  V30 20 O -4.6298 -1.1399 0.9493 0
M  V30 21 C -5.1799 -1.0213 -0.3605 0
M  V30 22 C -5.9866 0.2736 -0.4774 0
M  V30 23 C -7.2263 0.2467 0.432 0
M  V30 24 C -8.0151 1.569 0.4143 0
M  V30 25 C -8.6667 1.9133 -0.9381 0
M  V30 26 C -9.7044 0.8823 -1.3835 0
M  V30 27 H 3.8012 -0.3096 1.979 0
M  V30 28 H 4.2757 -1.4592 0.6813 0
M  V30 29 H 4.6616 1.1697 -3.2267 0
M  V30 30 H 4.5698 2.4074 -1.9311 0
M  V30 31 H 2.1102 -0.9532 -0.5394 0
M  V30 32 H 1.9267 -1.7445 1.0636 0
M  V30 33 H 6.7662 1.5954 -1.0113 0
M  V30 34 H 6.9025 2.1701 -2.7099 0
M  V30 35 H 1.2972 0.3766 2.1457 0
M  V30 36 H 1.6929 1.3053 0.6763 0
M  V30 37 H 6.6991 -0.2225 -3.5103 0
M  V30 38 H 6.6848 -0.7918 -1.8186 0
M  V30 39 H -0.1131 0.2511 -0.6074 0
M  V30 40 H -0.737 1.074 0.8488 0
M  V30 41 H 8.937 -0.9845 -2.9108 0
M  V30 42 H 8.9532 0.7734 -3.2301 0
M  V30 43 H -0.297 -1.9829 0.588 0
M  V30 44 H -1.832 -1.1215 0.3565 0
M  V30 45 H 10.3751 0.1992 -1.2996 0
M  V30 46 H 9.0356 1.2545 -0.7724 0
M  V30 47 H -1.7209 -0.2736 2.7555 0
M  V30 48 H -0.1825 -1.1659 2.9595 0
M  V30 49 H 7.8319 -0.685 0.2031 0
M  V30 50 H 9.5236 -0.6718 0.8016 0
M  V30 51 H 9.0533 -1.8321 -0.4966 0
M  V30 52 H -1.5592 -3.3214 2.2058 0
M  V30 53 H -1.614 -2.6972 3.8751 0
M  V30 54 H -3.8687 -3.2124 3.3008 0
M  V30 55 H -3.7445 -1.4278 3.3449 0
M  V30 56 H -4.3534 -1.0057 -1.1049 0
M  V30 57 H -5.8392 -1.8905 -0.578 0
M  V30 58 H -5.3382 1.1343 -0.2055 0
M  V30 59 H -6.2968 0.3867 -1.5376 0
M  V30 60 H -7.8878 -0.6004 0.1486 0
M  V30 61 H -6.8994 0.064 1.479 0
M  V30 62 H -8.8112 1.51 1.1895 0
M  V30 63 H -7.3388 2.401 0.708 0
M  V30 64 H -7.8953 2.0342 -1.7285 0
M  V30 65 H -9.1793 2.8953 -0.8319 0
M  V30 66 H -9.2105 -0.0663 -1.6806 0
M  V30 67 H -10.4358 0.6867 -0.5705 0
M  V30 68 H -10.2545 1.2714 -2.2666 0
M  V30 END ATOM
M  V30 BEGIN BOND
M  V30 1 2 1 2
M  V30 2 1 2 3
M  V30 3 1 2 4
M  V30 4 1 3 5
M  V30 5 1 4 6
M  V30 6 1 5 7
M  V30 7 1 6 8
M  V30 8 1 7 9
M  V30 9 1 8 10
M  V30 10 1 9 11
M  V30 11 1 10 12
M  V30 12 1 11 13
M  V30 13 1 12 14
M  V30 14 1 13 15
M  V30 15 1 14 16
M  V30 16 1 16 17
M  V30 17 1 17 18
M  V30 18 2 18 19
M  V30 19 1 18 20
M  V30 20 1 20 21
M  V30 21 1 21 22
M  V30 22 1 22 23
M  V30 23 1 23 24
M  V30 24 1 24 25
M  V30 25 1 25 26
M  V30 26 1 4 27
M  V30 27 1 4 28
M  V30 28 1 5 29
M  V30 29 1 5 30
M  V30 30 1 6 31
M  V30 31 1 6 32
M  V30 32 1 7 33
M  V30 33 1 7 34
M  V30 34 1 8 35
M  V30 35 1 8 36
M  V30 36 1 9 37
M  V30 37 1 9 38
M  V30 38 1 10 39
M  V30 39 1 10 40
M  V30 40 1 11 41
M  V30 41 1 11 42
M  V30 42 1 12 43
M  V30 43 1 12 44
M  V30 44 1 13 45
M  V30 45 1 13 46
M  V30 46 1 14 47
M  V30 47 1 14 48
M  V30 48 1 15 49
M  V30 49 1 15 50
M  V30 50 1 15 51
M  V30 51 1 16 52
M  V30 52 1 16 53
M  V30 53 1 17 54
M  V30 54 1 17 55
M  V30 55 1 21 56
M  V30 56 1 21 57
M  V30 57 1 22 58
M  V30 58 1 22 59
M  V30 59 1 23 60
M  V30 60 1 23 61
M  V30 61 1 24 62
M  V30 62 1 24 63
M  V30 63 1 25 64
M  V30 64 1 25 65
M  V30 65 1 26 66
M  V30 66 1 26 67
M  V30 67 1 26 68
M  V30 END BOND
M  V30 END CTAB
M  END
>  <Structure No>
8027

>  <LogS>
-4.57

>  <MMFF94 Energy>
-21.551

$$$$
Compound 8028
Actelion Java MolfileCreator 2.0

  0  0  0  0  0  0              0 V3000
M  V30 BEGIN CTAB
M  V30 COUNTS 41 40 0 0 0
M  V30 BEGIN ATOM
M  V30 1 S 1.7535 0.6677 -0.2503 0
M  V30 2 O 2.043 1.3615 -1.5522 0
M  V30 3 O 2.1615 1.5667 0.8835 0
M  V30 4 C -0.0107 0.3446 -0.118 0
M  V30 5 C 2.7206 -0.8327 -0.1672 0
M  V30 6 S -0.5375 -0.9405 -1.2728 0
M  V30 7 S -0.9346 1.8635 -0.3929 0
M  V30 8 C 4.2055 -0.5175 0.0264 0
M  V30 9 O -2.0108 -0.8127 -1.5412 0
M  V30 10 O 0.1903 -0.7614 -2.5756 0
M  V30 11 C -0.2352 -2.6135 -0.6881 0
M  V30 12 O -0.1934 3.026 0.2062 0
M  V30 13 O -1.099 2.0981 -1.8693 0
M  V30 14 C -2.5393 1.7497 0.4009 0
M  V30 15 C 5.0385 -1.7954 0.0534 0
M  V30 16 C -0.562 -2.8304 0.7956 0
M  V30 17 C -3.5538 2.7535 -0.1622 0
M  V30 18 C -2.0407 -2.6232 1.1179 0
M  V30 19 C -3.2111 4.2011 0.1867 0
M  V30 20 H -0.2231 0.0169 0.9175 0
M  V30 21 H 2.3545 -1.451 0.6794 0
M  V30 22 H 2.5884 -1.3911 -1.1169 0
M  V30 23 H 4.5626 0.1283 -0.8048 0
M  V30 24 H 4.3528 0.0253 0.9849 0
M  V30 25 H 0.8283 -2.8717 -0.8585 0
M  V30 26 H -0.8371 -3.3154 -1.3039 0
M  V30 27 H -2.4163 1.902 1.4944 0
M  V30 28 H -2.9419 0.7281 0.2539 0
M  V30 29 H 4.9323 -2.3456 -0.9057 0
M  V30 30 H 4.7134 -2.4501 0.89 0
M  V30 31 H 6.1089 -1.5383 0.1986 0
M  V30 32 H 0.0614 -2.1718 1.4338 0
M  V30 33 H -0.2954 -3.8773 1.0565 0
M  V30 34 H -3.6314 2.6424 -1.265 0
M  V30 35 H -4.5517 2.5193 0.2675 0
M  V30 36 H -2.2371 -2.933 2.1659 0
M  V30 37 H -2.6758 -3.2349 0.4426 0
M  V30 38 H -2.3169 -1.554 1.0187 0
M  V30 39 H -2.2912 4.5242 -0.3421 0
M  V30 40 H -3.0691 4.3144 1.2826 0
M  V30 41 H -4.0429 4.864 -0.132 0
M  V30 END ATOM
M  V30 BEGIN BOND
M  V30 1 2 1 2
M  V30 2 2 1 3
M  V30 3 1 1 4
M  V30 4 1 1 5
M  V30 5 1 4 6
M  V30 6 1 4 7
M  V30 7 1 5 8
M  V30 8 2 6 9
M  V30 9 2 6 10
M  V30 10 1 6 11
M  V30 11 2 7 12
M  V30 12 2 7 13
M  V30 13 1 7 14
M  V30 14 1 8 15
M  V30 15 1 11 16
M  V30 16 1 14 17
M  V30 17 1 16 18
M  V30 18 1 17 19
M  V30 19 1 4 20
M  V30 20 1 5 21
M  V30 21 1 5 22
M  V30 22 1 8 23
M  V30 23 1 8 24
M  V30 24 1 11 25
M  V30 25 1 11 26
M  V30 26 1 14 27
M  V30 27 1 14 28
M  V30 28 1 15 29
M  V30 29 1 15 30
M  V30 30 1 15 31
M  V30 31 1 16 32
M  V30 32 1 16 33
M  V30 33 1 17 34
M  V30 34 1 17 35
M  V30 35 1 18 36
M  V30 36 1 18 37
M  V30 37 1 18 38
M  V30 38 1 19 39
M  V30 39 1 19 40
M  V30 40 1 19 41
M  V30 END BOND
M  V30 END CTAB
M  END
>  <Structure No>
8028

>  <LogS>
-1.95

>  <MMFF94 Energy>
-188.38

$$$$
Compound 8029
Actelion Java MolfileCreator 2.0

  0  0  0  0  0  0              0 V3000
M  V30 BEGIN CTAB
M  V30 COUNTS 56 55 0 0 0
M  V30 BEGIN ATOM
M  V30 1 O -3.212 1.0175 -0.6261 0
M  V30 2 C -3.9161 -0.0269 -0.55 0
M  V30 3 O -4.7578 -0.2381 0.5472 0
M  V30 4 N -3.8619 -1.0119 -1.5878 0
M  V30 5 C -4.9309 0.7101 1.5997 0
M  V30 6 C -2.9869 -0.8867 -2.7516 0
M  V30 7 C -5.7982 1.8953 1.1509 0
M  V30 8 C -1.536 -1.1898 -2.3646 0
M  V30 9 C -7.1605 1.4775 0.5677 0
M  V30 10 C -0.6053 -1.0765 -3.579 0
M  V30 11 C -8.0914 0.8198 1.5912 0
M  V30 12 C 0.831 -1.5359 -3.2759 0
M  V30 13 O -8.3273 1.6896 2.6638 0
M  V30 14 C 1.5733 -0.6251 -2.2751 0
M  V30 15 C 1.642 -1.2404 -0.8705 0
M  V30 16 N 2.2679 -0.3092 0.0658 0
M  V30 17 C 3.6794 -0.0714 0.0958 0
M  V30 18 O 4.4444 -0.677 -0.7046 0
M  V30 19 O 4.1984 0.8394 1.0226 0
M  V30 20 C 5.5921 1.1068 1.1663 0
M  V30 21 C 6.2798 -0.03 1.9331 0
M  V30 22 C 7.8029 0.1521 2.0211 0
M  V30 23 C 8.2106 1.2959 2.9578 0
M  V30 24 O 9.602 1.308 3.1272 0
M  V30 25 H -4.5124 -1.8276 -1.5341 0
M  V30 26 H -5.406 0.2039 2.4648 0
M  V30 27 H -3.9407 1.0794 1.9442 0
M  V30 28 H -3.0713 0.1369 -3.1773 0
M  V30 29 H -3.3164 -1.6098 -3.5294 0
M  V30 30 H -5.9505 2.5812 2.0118 0
M  V30 31 H -5.2473 2.4688 0.3753 0
M  V30 32 H -1.4806 -2.2181 -1.9452 0
M  V30 33 H -1.213 -0.4682 -1.5857 0
M  V30 34 H -7.6639 2.3844 0.1674 0
M  V30 35 H -7.0087 0.7843 -0.2873 0
M  V30 36 H -0.5926 -0.0267 -3.9462 0
M  V30 37 H -1.0012 -1.7143 -4.3994 0
M  V30 38 H -9.056 0.5812 1.0905 0
M  V30 39 H -7.6514 -0.1331 1.9572 0
M  V30 40 H 1.3905 -1.5228 -4.2369 0
M  V30 41 H 0.8251 -2.5938 -2.9321 0
M  V30 42 H -8.924 1.2009 3.2882 0
M  V30 43 H 1.0961 0.378 -2.2225 0
M  V30 44 H 2.6112 -0.4704 -2.6412 0
M  V30 45 H 0.6192 -1.4763 -0.5105 0
M  V30 46 H 2.2166 -2.1919 -0.8936 0
M  V30 47 H 1.669 0.16 0.7821 0
M  V30 48 H 6.058 1.2481 0.1664 0
M  V30 49 H 5.7002 2.0542 1.7335 0
M  V30 50 H 5.8457 -0.1085 2.9535 0
M  V30 51 H 6.0793 -0.9898 1.4109 0
M  V30 52 H 8.2224 0.329 1.0068 0
M  V30 53 H 8.244 -0.7925 2.4071 0
M  V30 54 H 7.8703 2.2757 2.5552 0
M  V30 55 H 7.7388 1.149 3.9528 0
M  V30 56 H 9.9866 1.6826 2.292 0
M  V30 END ATOM
M  V30 BEGIN BOND
M  V30 1 2 1 2
M  V30 2 1 2 3
M  V30 3 1 2 4
M  V30 4 1 3 5
M  V30 5 1 4 6
M  V30 6 1 5 7
M  V30 7 1 6 8
M  V30 8 1 7 9
M  V30 9 1 8 10
M  V30 10 1 9 11
M  V30 11 1 10 12
M  V30 12 1 11 13
M  V30 13 1 12 14
M  V30 14 1 14 15
M  V30 15 1 15 16
M  V30 16 1 16 17
M  V30 17 2 17 18
M  V30 18 1 17 19
M  V30 19 1 19 20
M  V30 20 1 20 21
M  V30 21 1 21 22
M  V30 22 1 22 23
M  V30 23 1 23 24
M  V30 24 1 4 25
M  V30 25 1 5 26
M  V30 26 1 5 27
M  V30 27 1 6 28
M  V30 28 1 6 29
M  V30 29 1 7 30
M  V30 30 1 7 31
M  V30 31 1 8 32
M  V30 32 1 8 33
M  V30 33 1 9 34
M  V30 34 1 9 35
M  V30 35 1 10 36
M  V30 36 1 10 37
M  V30 37 1 11 38
M  V30 38 1 11 39
M  V30 39 1 12 40
M  V30 40 1 12 41
M  V30 41 1 13 42
M  V30 42 1 14 43
M  V30 43 1 14 44
M  V30 44 1 15 45
M  V30 45 1 15 46
M  V30 46 1 16 47
M  V30 47 1 20 48
M  V30 48 1 20 49
M  V30 49 1 21 50
M  V30 50 1 21 51
M  V30 51 1 22 52
M  V30 52 1 22 53
M  V30 53 1 23 54
M  V30 54 1 23 55
M  V30 55 1 24 56
M  V30 END BOND
M  V30 END CTAB
M  END
>  <Structure No>
8029

>  <LogS>
-1.93

>  <MMFF94 Energy>
-135.57

$$$$
Compound 8030
Actelion Java MolfileCreator 2.0

  0  0  0  0  0  0              0 V3000
M  V30 BEGIN CTAB
M  V30 COUNTS 50 49 0 0 0
M  V30 BEGIN ATOM
M  V30 1 S 0.7429 -1.1558 -0.2475 0
M  V30 2 O 1.1211 -2.3297 0.611 0
M  V30 3 O 0.1895 -1.66 -1.5513 0
M  V30 4 C -0.507 -0.1774 0.6032 0
M  V30 5 C 2.2234 -0.2044 -0.5666 0
M  V30 6 S -2.0357 -1.1088 0.767 0
M  V30 7 S -0.8084 1.3812 -0.2496 0
M  V30 8 C 3.2956 -1.0713 -1.2366 0
M  V30 9 O -3.0036 -0.3153 1.6004 0
M  V30 10 O -2.6279 -1.3343 -0.5963 0
M  V30 11 C -1.7459 -2.6896 1.562 0
M  V30 12 O -0.629 1.199 -1.7317 0
M  V30 13 O -2.2119 1.8537 0.0102 0
M  V30 14 C 0.3175 2.6334 0.3693 0
M  V30 15 C 4.5306 -0.2592 -1.6547 0
M  V30 16 C -3.0156 -3.2942 2.1838 0
M  V30 17 C 0.6253 3.7284 -0.6641 0
M  V30 18 C 5.347 0.2329 -0.46 0
M  V30 19 C -4.1251 -3.6402 1.1755 0
M  V30 20 C -0.5913 4.5737 -1.0805 0
M  V30 21 C -3.7049 -4.7094 0.1676 0
M  V30 22 C -1.1634 5.4022 0.0692 0
M  V30 23 H -0.1345 0.0504 1.6235 0
M  V30 24 H 2.6008 0.1805 0.4027 0
M  V30 25 H 1.9712 0.6503 -1.228 0
M  V30 26 H 3.6002 -1.8934 -0.5526 0
M  V30 27 H 2.8645 -1.5339 -2.151 0
M  V30 28 H -1.2972 -3.3961 0.8346 0
M  V30 29 H -1.0055 -2.5326 2.3748 0
M  V30 30 H -0.0999 3.0756 1.297 0
M  V30 31 H 1.2708 2.1477 0.6555 0
M  V30 32 H 5.1824 -0.9084 -2.2787 0
M  V30 33 H 4.2242 0.6083 -2.2789 0
M  V30 34 H -2.7326 -4.217 2.7356 0
M  V30 35 H -3.4247 -2.585 2.9355 0
M  V30 36 H 1.4055 4.4013 -0.246 0
M  V30 37 H 1.062 3.257 -1.5708 0
M  V30 38 H 6.2846 0.7039 -0.8233 0
M  V30 39 H 5.6127 -0.6154 0.2058 0
M  V30 40 H 4.7806 0.9934 0.1166 0
M  V30 41 H -4.464 -2.7303 0.638 0
M  V30 42 H -4.9993 -4.0249 1.7441 0
M  V30 43 H -1.388 3.931 -1.5097 0
M  V30 44 H -0.2678 5.2718 -1.8827 0
M  V30 45 H -2.9467 -4.3083 -0.5364 0
M  V30 46 H -4.5894 -5.0256 -0.4245 0
M  V30 47 H -3.2935 -5.5982 0.6913 0
M  V30 48 H -1.9329 6.0986 -0.3254 0
M  V30 49 H -1.6481 4.7468 0.8221 0
M  V30 50 H -0.3629 5.9992 0.5557 0
M  V30 END ATOM
M  V30 BEGIN BOND
M  V30 1 2 1 2
M  V30 2 2 1 3
M  V30 3 1 1 4
M  V30 4 1 1 5
M  V30 5 1 4 6
M  V30 6 1 4 7
M  V30 7 1 5 8
M  V30 8 2 6 9
M  V30 9 2 6 10
M  V30 10 1 6 11
M  V30 11 2 7 12
M  V30 12 2 7 13
M  V30 13 1 7 14
M  V30 14 1 8 15
M  V30 15 1 11 16
M  V30 16 1 14 17
M  V30 17 1 15 18
M  V30 18 1 16 19
M  V30 19 1 17 20
M  V30 20 1 19 21
M  V30 21 1 20 22
M  V30 22 1 4 23
M  V30 23 1 5 24
M  V30 24 1 5 25
M  V30 25 1 8 26
M  V30 26 1 8 27
M  V30 27 1 11 28
M  V30 28 1 11 29
M  V30 29 1 14 30
M  V30 30 1 14 31
M  V30 31 1 15 32
M  V30 32 1 15 33
M  V30 33 1 16 34
M  V30 34 1 16 35
M  V30 35 1 17 36
M  V30 36 1 17 37
M  V30 37 1 18 38
M  V30 38 1 18 39
M  V30 39 1 18 40
M  V30 40 1 19 41
M  V30 41 1 19 42
M  V30 42 1 20 43
M  V30 43 1 20 44
M  V30 44 1 21 45
M  V30 45 1 21 46
M  V30 46 1 21 47
M  V30 47 1 22 48
M  V30 48 1 22 49
M  V30 49 1 22 50
M  V30 END BOND
M  V30 END CTAB
M  END
>  <Structure No>
8030

>  <LogS>
-2.97

>  <MMFF94 Energy>
-190.32

$$$$
Compound 8031
Actelion Java MolfileCreator 2.0

  0  0  0  0  0  0              0 V3000
M  V30 BEGIN CTAB
M  V30 COUNTS 17 18 0 0 0
M  V30 BEGIN ATOM
M  V30 1 O 0.0 2.9092 -0.4844 0
M  V30 2 C -0.2966 1.725 -0.1739 0
M  V30 3 N -1.5997 1.3762 -0.0121 0
M  V30 4 C 0.7003 0.7639 0.0063 0
M  V30 5 C -1.9574 0.1059 0.3231 0
M  V30 6 N 2.0196 1.0603 -0.1434 0
M  V30 7 C 0.3171 -0.543 0.3521 0
M  V30 8 N -0.9998 -0.8479 0.5039 0
M  V30 9 N -3.3381 -0.2203 0.4838 0
M  V30 10 C 2.9739 0.1086 0.0369 0
M  V30 11 N 1.2752 -1.4915 0.5316 0 CHG=-1
M  V30 12 C 2.5935 -1.1937 0.3815 0
M  V30 13 O 3.4638 -2.0868 0.5524 0
M  V30 14 H -1.2777 -1.8223 0.7613 0
M  V30 15 H -4.0717 0.5098 0.3456 0
M  V30 16 H -3.6313 -1.1889 0.7408 0
M  V30 17 H 4.0185 0.3642 -0.0867 0
M  V30 END ATOM
M  V30 BEGIN BOND
M  V30 1 2 1 2
M  V30 2 1 2 3
M  V30 3 1 2 4
M  V30 4 2 3 5
M  V30 5 1 4 6
M  V30 6 2 4 7
M  V30 7 1 5 8
M  V30 8 1 5 9
M  V30 9 2 6 10
M  V30 10 1 7 11
M  V30 11 1 10 12
M  V30 12 2 12 13
M  V30 13 1 7 8
M  V30 14 1 11 12
M  V30 15 1 8 14
M  V30 16 1 9 15
M  V30 17 1 9 16
M  V30 18 1 10 17
M  V30 END BOND
M  V30 END CTAB
M  END
>  <Structure No>
8031

>  <LogS>
-4.55

>  <MMFF94 Energy>
16.304

$$$$
Compound 8032
Actelion Java MolfileCreator 2.0

  0  0  0  0  0  0              0 V3000
M  V30 BEGIN CTAB
M  V30 COUNTS 18 19 0 0 0
M  V30 BEGIN ATOM
M  V30 1 O 1.4553 2.7503 0.0808 0
M  V30 2 C 1.6727 1.511 0.0209 0
M  V30 3 N 2.9495 1.0528 -0.0586 0
M  V30 4 C 0.6136 0.5997 0.0354 0
M  V30 5 C 3.2173 -0.2791 -0.1246 0
M  V30 6 N -0.6816 1.0051 0.1139 0
M  V30 7 C 0.9083 -0.7715 -0.0334 0
M  V30 8 N 2.2016 -1.1851 -0.112 0
M  V30 9 C -1.7029 0.1049 0.1269 0
M  V30 10 N -0.1095 -1.6721 -0.0204 0 CHG=-1
M  V30 11 C -1.4059 -1.2691 0.0579 0
M  V30 12 C -3.1169 0.5925 0.2144 0
M  V30 13 O -2.3259 -2.1299 0.0677 0
M  V30 14 H 4.2436 -0.6164 -0.1873 0
M  V30 15 H 2.4234 -2.2049 -0.1633 0
M  V30 16 H -3.6854 0.2594 -0.6791 0
M  V30 17 H -3.1452 1.7021 0.2601 0
M  V30 18 H -3.5986 0.1872 1.129 0
M  V30 END ATOM
M  V30 BEGIN BOND
M  V30 1 2 1 2
M  V30 2 1 2 3
M  V30 3 1 2 4
M  V30 4 2 3 5
M  V30 5 1 4 6
M  V30 6 2 4 7
M  V30 7 1 5 8
M  V30 8 2 6 9
M  V30 9 1 7 10
M  V30 10 1 9 11
M  V30 11 1 9 12
M  V30 12 2 11 13
M  V30 13 1 7 8
M  V30 14 1 10 11
M  V30 15 1 5 14
M  V30 16 1 8 15
M  V30 17 1 12 16
M  V30 18 1 12 17
M  V30 19 1 12 18
M  V30 END BOND
M  V30 END CTAB
M  END
>  <Structure No>
8032

>  <LogS>
-2.15

>  <MMFF94 Energy>
90.751

$$$$
Compound 8033
Actelion Java MolfileCreator 2.0

  0  0  0  0  0  0              0 V3000
M  V30 BEGIN CTAB
M  V30 COUNTS 27 28 0 0 0
M  V30 BEGIN ATOM
M  V30 1 Cl -1.0696 -2.14 -2.2224 0
M  V30 2 C -2.1309 -1.1041 -1.2712 0
M  V30 3 C -1.6616 -0.154 -0.3274 0
M  V30 4 C -3.5072 -1.2479 -1.4789 0
M  V30 5 N -0.2712 0.0699 -0.0414 0
M  V30 6 C -2.5923 0.622 0.3784 0
M  V30 7 C -4.421 -0.4685 -0.7691 0
M  V30 8 N 0.6781 -0.5604 -0.6051 0
M  V30 9 C -3.973 0.475 0.1673 0
M  V30 10 C 2.0529 -0.3083 -0.2927 0
M  V30 11 C -4.9379 1.3045 0.923 0
M  V30 12 C 2.4297 0.6559 0.6603 0
M  V30 13 C 3.0438 -1.043 -0.9555 0
M  V30 14 O -6.1773 1.1757 0.7369 0
M  V30 15 O -4.49 2.2385 1.8502 0 CHG=-1
M  V30 16 C 3.7819 0.876 0.9407 0
M  V30 17 C 4.3954 -0.8215 -0.6736 0
M  V30 18 C 4.7686 0.1372 0.2738 0
M  V30 19 O 6.1186 0.3477 0.5448 0
M  V30 20 H -3.8747 -1.9702 -2.197 0
M  V30 21 H -2.2282 1.3458 1.0977 0
M  V30 22 H -5.4791 -0.6058 -0.9545 0
M  V30 23 H 1.6827 1.2367 1.1861 0
M  V30 24 H 2.7666 -1.7878 -1.6909 0
M  V30 25 H 4.0615 1.6201 1.6756 0
M  V30 26 H 5.1531 -1.3951 -1.1919 0
M  V30 27 H 6.4209 1.0348 1.2255 0
M  V30 END ATOM
M  V30 BEGIN BOND
M  V30 1 1 1 2
M  V30 2 2 2 3
M  V30 3 1 2 4
M  V30 4 1 3 5
M  V30 5 1 3 6
M  V30 6 2 4 7
M  V30 7 2 5 8
M  V30 8 2 6 9
M  V30 9 1 8 10
M  V30 10 1 9 11
M  V30 11 2 10 12
M  V30 12 1 10 13
M  V30 13 2 11 14
M  V30 14 1 11 15
M  V30 15 1 12 16
M  V30 16 2 13 17
M  V30 17 2 16 18
M  V30 18 1 18 19
M  V30 19 1 7 9
M  V30 20 1 17 18
M  V30 21 1 4 20
M  V30 22 1 6 21
M  V30 23 1 7 22
M  V30 24 1 12 23
M  V30 25 1 13 24
M  V30 26 1 16 25
M  V30 27 1 17 26
M  V30 28 1 19 27
M  V30 END BOND
M  V30 END CTAB
M  END
>  <Structure No>
8033

>  <LogS>
-4.08

>  <MMFF94 Energy>
49.518

$$$$
Compound 8034
Actelion Java MolfileCreator 2.0

  0  0  0  0  0  0              0 V3000
M  V30 BEGIN CTAB
M  V30 COUNTS 20 20 0 0 0
M  V30 BEGIN ATOM
M  V30 1 S -3.3998 1.077 1.5744 0
M  V30 2 C -2.1702 0.4938 0.5849 0
M  V30 3 C -4.6249 0.4193 0.6292 0
M  V30 4 N -2.6717 -0.1989 -0.4612 0
M  V30 5 C -0.7327 0.7005 0.816 0
M  V30 6 C -4.0308 -0.2414 -0.439 0
M  V30 7 O -0.3533 1.3541 1.8249 0
M  V30 8 N 0.2365 0.1643 -0.0898 0
M  V30 9 N 1.6024 0.4319 0.1098 0
M  V30 10 C 2.5847 -0.1636 -0.5076 0
M  V30 11 C 2.3939 -1.3039 -1.4327 0
M  V30 12 C 3.9757 0.3423 -0.2802 0
M  V30 13 O 1.4412 -2.1129 -1.2816 0
M  V30 14 O 3.3244 -1.5376 -2.4379 0 CHG=-1
M  V30 15 H -5.6874 0.4952 0.8169 0
M  V30 16 H -4.6001 -0.7548 -1.2018 0
M  V30 17 H -0.0944 -0.3178 -0.9538 0
M  V30 18 H 4.6642 -0.5089 -0.0949 0
M  V30 19 H 4.3185 0.9012 -1.1761 0
M  V30 20 H 4.0122 1.0197 0.6 0
M  V30 END ATOM
M  V30 BEGIN BOND
M  V30 1 1 1 2
M  V30 2 1 1 3
M  V30 3 2 2 4
M  V30 4 1 2 5
M  V30 5 2 3 6
M  V30 6 2 5 7
M  V30 7 1 5 8
M  V30 8 1 8 9
M  V30 9 2 9 10
M  V30 10 1 10 11
M  V30 11 1 10 12
M  V30 12 2 11 13
M  V30 13 1 11 14
M  V30 14 1 4 6
M  V30 15 1 3 15
M  V30 16 1 6 16
M  V30 17 1 8 17
M  V30 18 1 12 18
M  V30 19 1 12 19
M  V30 20 1 12 20
M  V30 END BOND
M  V30 END CTAB
M  END
>  <Structure No>
8034

>  <LogS>
-1.93

>  <MMFF94 Energy>
141.57

$$$$
Compound 8035
Actelion Java MolfileCreator 2.0

  0  0  0  0  0  0              0 V3000
M  V30 BEGIN CTAB
M  V30 COUNTS 17 18 0 0 0
M  V30 BEGIN ATOM
M  V30 1 O 3.3719 1.2032 0.3207 0
M  V30 2 C 2.2905 0.5688 0.1919 0
M  V30 3 N 1.1092 1.2453 0.1378 0
M  V30 4 N 2.3077 -0.7912 0.1071 0
M  V30 5 C -0.0687 0.5763 -0.0012 0
M  V30 6 C 1.1542 -1.5004 -0.0324 0
M  V30 7 N -1.2548 1.2467 -0.056 0 CHG=1
M  V30 8 C -0.0678 -0.8263 -0.0899 0
M  V30 9 O 1.1934 -2.7582 -0.1087 0
M  V30 10 C -2.4308 0.5758 -0.195 0
M  V30 11 N -1.2455 -1.4921 -0.2287 0 CHG=-1
M  V30 12 C -2.4254 -0.8205 -0.2829 0
M  V30 13 O -3.505 -1.4545 -0.4116 0
M  V30 14 H 1.1114 2.2888 0.204 0
M  V30 15 H 3.2214 -1.2981 0.15 0
M  V30 16 H -1.2725 2.2895 0.0085 0
M  V30 17 H -3.3648 1.1232 -0.2369 0
M  V30 END ATOM
M  V30 BEGIN BOND
M  V30 1 2 1 2
M  V30 2 1 2 3
M  V30 3 1 2 4
M  V30 4 1 3 5
M  V30 5 1 4 6
M  V30 6 1 5 7
M  V30 7 2 5 8
M  V30 8 2 6 9
M  V30 9 2 7 10
M  V30 10 1 8 11
M  V30 11 1 10 12
M  V30 12 2 12 13
M  V30 13 1 6 8
M  V30 14 1 11 12
M  V30 15 1 3 14
M  V30 16 1 4 15
M  V30 17 1 7 16
M  V30 18 1 10 17
M  V30 END BOND
M  V30 END CTAB
M  END
>  <Structure No>
8035

>  <LogS>
-3.13

>  <MMFF94 Energy>
-121.07

$$$$
Compound 8036
Actelion Java MolfileCreator 2.0

  0  0  0  0  0  0              0 V3000
M  V30 BEGIN CTAB
M  V30 COUNTS 27 28 0 0 0
M  V30 BEGIN ATOM
M  V30 1 O -6.2282 -0.9687 1.0494 0
M  V30 2 C -5.0032 -1.2522 1.1261 0
M  V30 3 O -4.6228 -2.4292 1.7606 0 CHG=-1
M  V30 4 C -3.9839 -0.3475 0.5502 0
M  V30 5 C -2.6175 -0.6691 0.6389 0
M  V30 6 C -4.3645 0.8441 -0.0922 0
M  V30 7 C -1.6453 0.1812 0.0967 0
M  V30 8 C -3.3978 1.6946 -0.634 0
M  V30 9 N -0.2648 -0.1846 0.2092 0
M  V30 10 C -2.0435 1.3682 -0.542 0
M  V30 11 N 0.6691 0.541 -0.2604 0
M  V30 12 C 2.0493 0.1746 -0.1476 0
M  V30 13 C 2.4486 -1.0135 0.4919 0
M  V30 14 C 3.0226 1.0236 -0.6891 0
M  V30 15 C 3.8052 -1.3405 0.5841 0
M  V30 16 C 4.3785 0.6948 -0.5958 0
M  V30 17 C 4.7731 -0.4891 0.0416 0
M  V30 18 O 6.1206 -0.8274 0.1409 0
M  V30 19 H -2.3007 -1.5815 1.1293 0
M  V30 20 H -5.4084 1.1194 -0.1763 0
M  V30 21 H -3.6998 2.6098 -1.1268 0
M  V30 22 H -1.3107 2.0413 -0.9686 0
M  V30 23 H 1.7158 -1.6864 0.9185 0
M  V30 24 H 2.7283 1.9409 -1.1837 0
M  V30 25 H 4.1045 -2.2563 1.0776 0
M  V30 26 H 5.1205 1.3602 -1.0187 0
M  V30 27 H 6.8455 -0.2317 -0.2418 0
M  V30 END ATOM
M  V30 BEGIN BOND
M  V30 1 2 1 2
M  V30 2 1 2 3
M  V30 3 1 2 4
M  V30 4 2 4 5
M  V30 5 1 4 6
M  V30 6 1 5 7
M  V30 7 2 6 8
M  V30 8 1 7 9
M  V30 9 2 7 10
M  V30 10 2 9 11
M  V30 11 1 11 12
M  V30 12 2 12 13
M  V30 13 1 12 14
M  V30 14 1 13 15
M  V30 15 2 14 16
M  V30 16 2 15 17
M  V30 17 1 17 18
M  V30 18 1 8 10
M  V30 19 1 16 17
M  V30 20 1 5 19
M  V30 21 1 6 20
M  V30 22 1 8 21
M  V30 23 1 10 22
M  V30 24 1 13 23
M  V30 25 1 14 24
M  V30 26 1 15 25
M  V30 27 1 16 26
M  V30 28 1 18 27
M  V30 END BOND
M  V30 END CTAB
M  END
>  <Structure No>
8036

>  <LogS>
-3.85

>  <MMFF94 Energy>
42.42

$$$$
Compound 8037
Actelion Java MolfileCreator 2.0

  0  0  0  0  0  0              0 V3000
M  V30 BEGIN CTAB
M  V30 COUNTS 27 28 0 0 0
M  V30 BEGIN ATOM
M  V30 1 O -1.535 0.0 2.5862 0
M  V30 2 C -2.705 0.1148 2.1351 0
M  V30 3 O -3.7635 0.1501 3.0365 0 CHG=-1
M  V30 4 C -2.9634 0.2116 0.6726 0
M  V30 5 C -1.9194 0.1807 -0.2891 0
M  V30 6 C -4.2942 0.3388 0.2281 0
M  V30 7 N -0.5522 0.0522 0.1291 0
M  V30 8 C -2.2369 0.2772 -1.6586 0
M  V30 9 C -4.5885 0.4331 -1.1328 0
M  V30 10 N 0.4155 0.0201 -0.6969 0
M  V30 11 C -3.5625 0.4024 -2.0738 0
M  V30 12 C 1.7771 -0.1083 -0.2709 0
M  V30 13 C 2.1195 -0.2062 1.0906 0
M  V30 14 C 2.7902 -0.1365 -1.2376 0
M  V30 15 C 3.4594 -0.3307 1.4715 0
M  V30 16 C 4.1294 -0.261 -0.8547 0
M  V30 17 C 4.4672 -0.3585 0.502 0
M  V30 18 O 5.7977 -0.4827 0.8959 0
M  V30 19 H -5.1152 0.3658 0.9338 0
M  V30 20 H -1.4584 0.256 -2.4105 0
M  V30 21 H -5.6165 0.5303 -1.4581 0
M  V30 22 H -3.7945 0.4758 -3.1286 0
M  V30 23 H 1.3555 -0.1868 1.8572 0
M  V30 24 H 2.5398 -0.0619 -2.2885 0
M  V30 25 H 3.7148 -0.4056 2.521 0
M  V30 26 H 4.9026 -0.2816 -1.6122 0
M  V30 27 H 6.5504 -0.5059 0.2179 0
M  V30 END ATOM
M  V30 BEGIN BOND
M  V30 1 2 1 2
M  V30 2 1 2 3
M  V30 3 1 2 4
M  V30 4 2 4 5
M  V30 5 1 4 6
M  V30 6 1 5 7
M  V30 7 1 5 8
M  V30 8 2 6 9
M  V30 9 2 7 10
M  V30 10 2 8 11
M  V30 11 1 10 12
M  V30 12 2 12 13
M  V30 13 1 12 14
M  V30 14 1 13 15
M  V30 15 2 14 16
M  V30 16 2 15 17
M  V30 17 1 17 18
M  V30 18 1 9 11
M  V30 19 1 16 17
M  V30 20 1 6 19
M  V30 21 1 8 20
M  V30 22 1 9 21
M  V30 23 1 11 22
M  V30 24 1 13 23
M  V30 25 1 14 24
M  V30 26 1 15 25
M  V30 27 1 16 26
M  V30 28 1 18 27
M  V30 END BOND
M  V30 END CTAB
M  END
>  <Structure No>
8037

>  <LogS>
-3.33

>  <MMFF94 Energy>
42.464

$$$$
Compound 8038
Actelion Java MolfileCreator 2.0

  0  0  0  0  0  0              0 V3000
M  V30 BEGIN CTAB
M  V30 COUNTS 45 45 0 0 0
M  V30 BEGIN ATOM
M  V30 1 O -7.7662 2.5308 -0.4741 0
M  V30 2 C -6.8336 2.4318 0.367 0
M  V30 3 O -6.8312 3.275 1.4724 0 CHG=-1
M  V30 4 C -5.7571 1.4338 0.1831 0
M  V30 5 C -4.714 1.334 1.1198 0
M  V30 6 C -5.7602 0.5714 -0.9279 0
M  V30 7 C -3.6945 0.3924 0.9487 0
M  V30 8 C -4.7412 -0.3704 -1.0964 0
M  V30 9 C -3.7036 -0.4672 -0.163 0
M  V30 10 N -2.6738 -1.4411 -0.3692 0
M  V30 11 N -1.703 -1.5809 0.4415 0
M  V30 12 N -0.6955 -2.5375 0.2241 0
M  V30 13 C 0.4201 -2.6083 1.1685 0
M  V30 14 C -0.7219 -3.3964 -0.9621 0
M  V30 15 C 1.6554 -1.8812 0.6225 0
M  V30 16 C 1.4165 -0.3725 0.4689 0
M  V30 17 C 2.6859 0.338 -0.0151 0
M  V30 18 C 2.4546 1.8494 -0.1486 0
M  V30 19 C 3.6323 2.5793 -0.8163 0
M  V30 20 C 4.9228 2.5757 0.0288 0
M  V30 21 C 5.9396 1.5469 -0.4657 0
M  V30 22 H -4.6831 1.9843 1.985 0
M  V30 23 H -6.5493 0.6245 -1.6674 0
M  V30 24 H -2.9011 0.339 1.6833 0
M  V30 25 H -4.7584 -1.0264 -1.9577 0
M  V30 26 H 0.6767 -3.6727 1.3614 0
M  V30 27 H 0.1221 -2.1634 2.1435 0
M  V30 28 H -0.7008 -2.7684 -1.8776 0
M  V30 29 H 0.1536 -4.0798 -0.9812 0
M  V30 30 H -1.6473 -4.0094 -0.9576 0
M  V30 31 H 1.9409 -2.3187 -0.3588 0
M  V30 32 H 2.4981 -2.0481 1.3284 0
M  V30 33 H 0.6017 -0.1997 -0.2671 0
M  V30 34 H 1.1065 0.0541 1.4485 0
M  V30 35 H 2.9867 -0.0806 -1.0006 0
M  V30 36 H 3.4999 0.1545 0.7182 0
M  V30 37 H 2.2608 2.29 0.8539 0
M  V30 38 H 1.5498 2.0236 -0.7713 0
M  V30 39 H 3.3214 3.6366 -0.9663 0
M  V30 40 H 3.812 2.1594 -1.8305 0
M  V30 41 H 5.3982 3.5789 -0.0359 0
M  V30 42 H 4.6986 2.3911 1.102 0
M  V30 43 H 6.2447 1.7805 -1.5077 0
M  V30 44 H 5.519 0.5216 -0.433 0
M  V30 45 H 6.8424 1.5779 0.1799 0
M  V30 END ATOM
M  V30 BEGIN BOND
M  V30 1 2 1 2
M  V30 2 1 2 3
M  V30 3 1 2 4
M  V30 4 2 4 5
M  V30 5 1 4 6
M  V30 6 1 5 7
M  V30 7 2 6 8
M  V30 8 2 7 9
M  V30 9 1 9 10
M  V30 10 2 10 11
M  V30 11 1 11 12
M  V30 12 1 12 13
M  V30 13 1 12 14
M  V30 14 1 13 15
M  V30 15 1 15 16
M  V30 16 1 16 17
M  V30 17 1 17 18
M  V30 18 1 18 19
M  V30 19 1 19 20
M  V30 20 1 20 21
M  V30 21 1 8 9
M  V30 22 1 5 22
M  V30 23 1 6 23
M  V30 24 1 7 24
M  V30 25 1 8 25
M  V30 26 1 13 26
M  V30 27 1 13 27
M  V30 28 1 14 28
M  V30 29 1 14 29
M  V30 30 1 14 30
M  V30 31 1 15 31
M  V30 32 1 15 32
M  V30 33 1 16 33
M  V30 34 1 16 34
M  V30 35 1 17 35
M  V30 36 1 17 36
M  V30 37 1 18 37
M  V30 38 1 18 38
M  V30 39 1 19 39
M  V30 40 1 19 40
M  V30 41 1 20 41
M  V30 42 1 20 42
M  V30 43 1 21 43
M  V30 44 1 21 44
M  V30 45 1 21 45
M  V30 END BOND
M  V30 END CTAB
M  END
>  <Structure No>
8038

>  <LogS>
-3.77

>  <MMFF94 Energy>
39.869

$$$$
Compound 8039
Actelion Java MolfileCreator 2.0

  0  0  0  0  0  0              0 V3000
M  V30 BEGIN CTAB
M  V30 COUNTS 27 28 0 0 0
M  V30 BEGIN ATOM
M  V30 1 Cl -6.4304 -0.5758 0.2467 0
M  V30 2 C -4.6957 -0.3404 0.1312 0
M  V30 3 C -4.1831 0.895 -0.2713 0
M  V30 4 C -3.8296 -1.387 0.4417 0
M  V30 5 C -2.7923 1.1045 -0.3705 0
M  V30 6 C -2.4504 -1.2033 0.3511 0
M  V30 7 C -1.9147 0.0355 -0.0532 0
M  V30 8 C -2.2941 2.4393 -0.8042 0
M  V30 9 N -0.4932 0.2124 -0.1426 0
M  V30 10 O -3.1073 3.3626 -1.0767 0
M  V30 11 O -0.9345 2.7016 -0.9194 0 CHG=-1
M  V30 12 N 0.3299 -0.7186 0.1322 0
M  V30 13 C 1.7476 -0.5357 0.0409 0
M  V30 14 C 2.591 -1.6073 0.3598 0
M  V30 15 C 2.3108 0.6901 -0.3599 0
M  V30 16 C 3.9796 -1.4619 0.281 0
M  V30 17 C 3.6997 0.8335 -0.438 0
M  V30 18 C 4.5375 -0.2398 -0.1184 0
M  V30 19 O 5.919 -0.0826 -0.2007 0
M  V30 20 H -4.8782 1.6915 -0.5066 0
M  V30 21 H -4.2241 -2.3455 0.7542 0
M  V30 22 H -1.8009 -2.0333 0.5981 0
M  V30 23 H 2.1701 -2.5556 0.6697 0
M  V30 24 H 1.6812 1.5334 -0.6115 0
M  V30 25 H 4.6199 -2.2982 0.5303 0
M  V30 26 H 4.1254 1.7797 -0.7472 0
M  V30 27 H 6.5524 -0.8409 0.024 0
M  V30 END ATOM
M  V30 BEGIN BOND
M  V30 1 1 1 2
M  V30 2 2 2 3
M  V30 3 1 2 4
M  V30 4 1 3 5
M  V30 5 2 4 6
M  V30 6 2 5 7
M  V30 7 1 5 8
M  V30 8 1 7 9
M  V30 9 2 8 10
M  V30 10 1 8 11
M  V30 11 2 9 12
M  V30 12 1 12 13
M  V30 13 2 13 14
M  V30 14 1 13 15
M  V30 15 1 14 16
M  V30 16 2 15 17
M  V30 17 2 16 18
M  V30 18 1 18 19
M  V30 19 1 6 7
M  V30 20 1 17 18
M  V30 21 1 3 20
M  V30 22 1 4 21
M  V30 23 1 6 22
M  V30 24 1 14 23
M  V30 25 1 15 24
M  V30 26 1 16 25
M  V30 27 1 17 26
M  V30 28 1 19 27
M  V30 END BOND
M  V30 END CTAB
M  END
>  <Structure No>
8039

>  <LogS>
-3.86

>  <MMFF94 Energy>
31.748

$$$$
Compound 8040
Actelion Java MolfileCreator 2.0

  0  0  0  0  0  0              0 V3000
M  V30 BEGIN CTAB
M  V30 COUNTS 23 23 0 0 0
M  V30 BEGIN ATOM
M  V30 1 O 0.6423 -2.1692 0.0802 0
M  V30 2 C 0.6743 -0.9148 -0.0497 0
M  V30 3 N -0.5431 -0.1687 0.0733 0
M  V30 4 C 1.972 -0.2422 -0.3019 0
M  V30 5 N -1.7747 -0.8475 0.0999 0
M  V30 6 C 2.0368 1.0059 -0.946 0
M  V30 7 C 3.172 -0.8648 0.0824 0
M  V30 8 C -2.9192 -0.3223 0.4402 0
M  V30 9 C 3.2791 1.6045 -1.1716 0
M  V30 10 C 4.392 -0.2299 -0.1618 0
M  V30 11 C -3.0609 1.0547 0.9655 0
M  V30 12 C -4.1565 -1.149 0.2719 0
M  V30 13 N 4.4199 0.9808 -0.7773 0
M  V30 14 O -2.1467 1.5891 1.6465 0
M  V30 15 O -4.2532 1.7436 0.7783 0 CHG=-1
M  V30 16 H -0.5086 0.8727 0.0775 0
M  V30 17 H 1.1457 1.5079 -1.2976 0
M  V30 18 H 3.1666 -1.8282 0.5772 0
M  V30 19 H 3.336 2.5642 -1.668 0
M  V30 20 H 5.3182 -0.7014 0.1385 0
M  V30 21 H -4.7963 -1.0648 1.1758 0
M  V30 22 H -3.8998 -2.2201 0.1239 0
M  V30 23 H -4.7244 -0.7913 -0.6123 0
M  V30 END ATOM
M  V30 BEGIN BOND
M  V30 1 2 1 2
M  V30 2 1 2 3
M  V30 3 1 2 4
M  V30 4 1 3 5
M  V30 5 2 4 6
M  V30 6 1 4 7
M  V30 7 2 5 8
M  V30 8 1 6 9
M  V30 9 2 7 10
M  V30 10 1 8 11
M  V30 11 1 8 12
M  V30 12 2 9 13
M  V30 13 2 11 14
M  V30 14 1 11 15
M  V30 15 1 10 13
M  V30 16 1 3 16
M  V30 17 1 6 17
M  V30 18 1 7 18
M  V30 19 1 9 19
M  V30 20 1 10 20
M  V30 21 1 12 21
M  V30 22 1 12 22
M  V30 23 1 12 23
M  V30 END BOND
M  V30 END CTAB
M  END
>  <Structure No>
8040

>  <LogS>
-3.31

>  <MMFF94 Energy>
101.64

$$$$
Compound 8041
Actelion Java MolfileCreator 2.0

  0  0  0  0  0  0              0 V3000
M  V30 BEGIN CTAB
M  V30 COUNTS 18 19 0 0 0
M  V30 BEGIN ATOM
M  V30 1 O 2.2381 -2.6382 0.1597 0
M  V30 2 C 1.7596 -1.4769 0.0575 0
M  V30 3 N 2.6034 -0.3961 -0.0458 0
M  V30 4 N 0.4015 -1.2987 0.0513 0
M  V30 5 C 2.1127 0.8764 -0.1537 0
M  V30 6 C -0.0772 -0.0345 -0.0639 0
M  V30 7 O 2.8905 1.8638 -0.2408 0
M  V30 8 C 0.7358 1.0448 -0.1614 0
M  V30 9 N -1.3567 0.3642 -0.0831 0
M  V30 10 N 0.0165 2.1819 -0.235 0 CHG=-1
M  V30 11 C -1.2603 1.716 -0.1769 0
M  V30 12 C -2.5578 -0.4519 0.067 0
M  V30 13 O -2.262 2.4796 -0.2018 0
M  V30 14 H 3.6378 -0.5484 -0.0385 0
M  V30 15 H -0.2458 -2.1147 0.1337 0
M  V30 16 H -2.4996 -1.3358 -0.6021 0
M  V30 17 H -3.4624 0.1327 -0.2028 0
M  V30 18 H -2.6464 -0.7925 1.1198 0
M  V30 END ATOM
M  V30 BEGIN BOND
M  V30 1 2 1 2
M  V30 2 1 2 3
M  V30 3 1 2 4
M  V30 4 1 3 5
M  V30 5 1 4 6
M  V30 6 2 5 7
M  V30 7 1 5 8
M  V30 8 1 6 9
M  V30 9 1 8 10
M  V30 10 1 9 11
M  V30 11 1 9 12
M  V30 12 2 11 13
M  V30 13 2 6 8
M  V30 14 1 10 11
M  V30 15 1 3 14
M  V30 16 1 4 15
M  V30 17 1 12 16
M  V30 18 1 12 17
M  V30 19 1 12 18
M  V30 END BOND
M  V30 END CTAB
M  END
>  <Structure No>
8041

>  <LogS>
-3.94

>  <MMFF94 Energy>
-107.68

$$$$
Compound 8042
Actelion Java MolfileCreator 2.0

  0  0  0  0  0  0              0 V3000
M  V30 BEGIN CTAB
M  V30 COUNTS 26 27 0 0 0
M  V30 BEGIN ATOM
M  V30 1 O -2.0028 3.0455 -1.2013 0
M  V30 2 C -2.1496 1.7995 -1.099 0
M  V30 3 O -3.3108 1.122 -1.441 0
M  V30 4 C -1.1621 0.8631 -0.6184 0
M  V30 5 C -3.1479 -0.2793 -1.2053 0
M  V30 6 C 0.1426 1.0704 -0.1645 0
M  V30 7 C -1.7434 -0.3803 -0.6761 0
M  V30 8 O 0.633 2.3888 -0.1494 0
M  V30 9 C 0.8847 -0.0718 0.2516 0
M  V30 10 C -1.04 -1.5177 -0.2747 0
M  V30 11 C 1.9277 2.799 0.2751 0
M  V30 12 O 2.2003 0.0813 0.7162 0
M  V30 13 C 0.2779 -1.3561 0.1895 0
M  V30 14 N -1.6369 -2.8169 -0.3313 0
M  V30 15 C 3.0384 -0.9818 1.1577 0
M  V30 16 H -3.8806 -0.628 -0.4472 0
M  V30 17 H -3.2521 -0.8424 -2.1567 0
M  V30 18 H 2.0083 3.9 0.1668 0
M  V30 19 H 2.7074 2.3296 -0.3605 0
M  V30 20 H 2.0803 2.5435 1.3449 0
M  V30 21 H 0.8237 -2.2362 0.5007 0
M  V30 22 H -2.6143 -2.9481 -0.6742 0
M  V30 23 H -1.1028 -3.6618 -0.0288 0
M  V30 24 H 3.2048 -1.7055 0.3321 0
M  V30 25 H 4.0189 -0.5647 1.4661 0
M  V30 26 H 2.58 -1.4925 2.0309 0
M  V30 END ATOM
M  V30 BEGIN BOND
M  V30 1 2 1 2
M  V30 2 1 2 3
M  V30 3 1 2 4
M  V30 4 1 3 5
M  V30 5 2 4 6
M  V30 6 1 4 7
M  V30 7 1 6 8
M  V30 8 1 6 9
M  V30 9 2 7 10
M  V30 10 1 8 11
M  V30 11 1 9 12
M  V30 12 2 9 13
M  V30 13 1 10 14
M  V30 14 1 12 15
M  V30 15 1 5 7
M  V30 16 1 10 13
M  V30 17 1 5 16
M  V30 18 1 5 17
M  V30 19 1 11 18
M  V30 20 1 11 19
M  V30 21 1 11 20
M  V30 22 1 13 21
M  V30 23 1 14 22
M  V30 24 1 14 23
M  V30 25 1 15 24
M  V30 26 1 15 25
M  V30 27 1 15 26
M  V30 END BOND
M  V30 END CTAB
M  END
>  <Structure No>
8042

>  <LogS>
-2.08

>  <MMFF94 Energy>
40.748

$$$$
Compound 8043
Actelion Java MolfileCreator 2.0

  0  0  0  0  0  0              0 V3000
M  V30 BEGIN CTAB
M  V30 COUNTS 17 17 0 0 0
M  V30 BEGIN ATOM
M  V30 1 F 2.6995 0.3269 1.4718 0
M  V30 2 C 2.7236 0.5495 0.1071 0
M  V30 3 F 3.9946 0.2659 -0.3623 0
M  V30 4 F 2.4462 1.8795 -0.1518 0
M  V30 5 C 1.7059 -0.3274 -0.5728 0
M  V30 6 O 2.1111 -1.1589 -1.431 0
M  V30 7 C 0.2484 -0.2465 -0.2683 0
M  V30 8 C -0.262 0.6635 0.6814 0
M  V30 9 C -0.6558 -1.0953 -0.939 0
M  V30 10 C -1.6337 0.7187 0.9479 0
M  V30 11 C -2.026 -1.0348 -0.6675 0
M  V30 12 C -2.5146 -0.1289 0.2747 0
M  V30 13 H 0.3873 1.3362 1.2232 0
M  V30 14 H -0.3059 -1.8082 -1.675 0
M  V30 15 H -2.0142 1.4208 1.6787 0
M  V30 16 H -2.7098 -1.692 -1.1893 0
M  V30 17 H -3.5758 -0.0837 0.4834 0
M  V30 END ATOM
M  V30 BEGIN BOND
M  V30 1 1 1 2
M  V30 2 1 2 3
M  V30 3 1 2 4
M  V30 4 1 2 5
M  V30 5 2 5 6
M  V30 6 1 5 7
M  V30 7 2 7 8
M  V30 8 1 7 9
M  V30 9 1 8 10
M  V30 10 2 9 11
M  V30 11 2 10 12
M  V30 12 1 11 12
M  V30 13 1 8 13
M  V30 14 1 9 14
M  V30 15 1 10 15
M  V30 16 1 11 16
M  V30 17 1 12 17
M  V30 END BOND
M  V30 END CTAB
M  END
>  <Structure No>
8043

>  <LogS>
-1.16

>  <MMFF94 Energy>
83.04

$$$$
Compound 8044
Actelion Java MolfileCreator 2.0

  0  0  0  0  0  0              0 V3000
M  V30 BEGIN CTAB
M  V30 COUNTS 20 21 0 0 0
M  V30 BEGIN ATOM
M  V30 1 O -0.9673 3.3888 -1.2093 0
M  V30 2 N -0.4063 2.6632 -0.3623 0 CHG=1
M  V30 3 O 0.3306 3.2568 0.6362 0 CHG=-1
M  V30 4 C -0.748 1.2707 -0.2716 0
M  V30 5 C 0.2286 0.278 8.0E-4 0
M  V30 6 C -2.0907 0.8885 -0.4312 0
M  V30 7 C -0.1786 -1.0753 0.1546 0
M  V30 8 C 1.6025 0.5851 0.0875 0
M  V30 9 C -2.4763 -0.4439 -0.2877 0
M  V30 10 C -1.5295 -1.421 0.0133 0
M  V30 11 C 0.7739 -2.0679 0.4343 0
M  V30 12 C 2.5378 -0.4157 0.363 0
M  V30 13 C 2.1246 -1.7355 0.5429 0
M  V30 14 H -2.8478 1.6332 -0.6427 0
M  V30 15 H 1.9701 1.5877 -0.0779 0
M  V30 16 H -3.5171 -0.7189 -0.4019 0
M  V30 17 H -1.8519 -2.4495 0.1254 0
M  V30 18 H 0.4743 -3.1015 0.5612 0
M  V30 19 H 3.5893 -0.1673 0.4299 0
M  V30 20 H 2.855 -2.5057 0.7548 0
M  V30 END ATOM
M  V30 BEGIN BOND
M  V30 1 2 1 2
M  V30 2 1 2 3
M  V30 3 1 2 4
M  V30 4 1 4 5
M  V30 5 2 4 6
M  V30 6 1 5 7
M  V30 7 2 5 8
M  V30 8 1 6 9
M  V30 9 1 7 10
M  V30 10 2 7 11
M  V30 11 1 8 12
M  V30 12 1 11 13
M  V30 13 2 9 10
M  V30 14 2 12 13
M  V30 15 1 6 14
M  V30 16 1 8 15
M  V30 17 1 9 16
M  V30 18 1 10 17
M  V30 19 1 11 18
M  V30 20 1 12 19
M  V30 21 1 13 20
M  V30 END BOND
M  V30 END CTAB
M  END
>  <Structure No>
8044

>  <LogS>
-3.71

>  <MMFF94 Energy>
63.364

$$$$
Compound 8045
Actelion Java MolfileCreator 2.0

  0  0  0  0  0  0              0 V3000
M  V30 BEGIN CTAB
M  V30 COUNTS 30 30 0 0 0
M  V30 BEGIN ATOM
M  V30 1 Cl 2.4068 2.8084 -0.5612 0
M  V30 2 C 2.8414 1.8063 0.8478 0
M  V30 3 C 2.6729 0.3467 0.5332 0
M  V30 4 O 3.6367 -0.4316 0.7655 0
M  V30 5 C 1.3944 -0.1988 -7.0E-4 0
M  V30 6 C 1.3686 -1.2357 -0.9668 0
M  V30 7 C 0.1762 0.3264 0.4672 0
M  V30 8 C 0.1343 -1.7388 -1.4051 0
M  V30 9 C 2.632 -1.8199 -1.5452 0
M  V30 10 C -1.0607 -0.1638 0.0102 0
M  V30 11 C -1.0715 -1.2124 -0.9294 0
M  V30 12 C -2.3601 0.4283 0.5384 0
M  V30 13 O -2.2793 -1.7338 -1.3944 0
M  V30 14 C -2.5023 0.1911 2.0469 0
M  V30 15 C -2.4656 1.9214 0.2027 0
M  V30 16 H 2.2146 2.0888 1.7182 0
M  V30 17 H 3.9002 2.02 1.1079 0
M  V30 18 H 0.1853 1.1131 1.2086 0
M  V30 19 H 0.1054 -2.542 -2.1315 0
M  V30 20 H 2.4251 -2.4076 -2.4649 0
M  V30 21 H 3.107 -2.4933 -0.8018 0
M  V30 22 H 3.3389 -1.0103 -1.8239 0
M  V30 23 H -3.231 -0.0649 0.0562 0
M  V30 24 H -2.3097 -2.4879 -2.0706 0
M  V30 25 H -2.4209 -0.8941 2.2703 0
M  V30 26 H -1.7188 0.7348 2.616 0
M  V30 27 H -3.497 0.5429 2.3949 0
M  V30 28 H -1.6863 2.5104 0.731 0
M  V30 29 H -2.3507 2.074 -0.8917 0
M  V30 30 H -3.4622 2.3091 0.504 0
M  V30 END ATOM
M  V30 BEGIN BOND
M  V30 1 1 1 2
M  V30 2 1 2 3
M  V30 3 2 3 4
M  V30 4 1 3 5
M  V30 5 2 5 6
M  V30 6 1 5 7
M  V30 7 1 6 8
M  V30 8 1 6 9
M  V30 9 2 7 10
M  V30 10 2 8 11
M  V30 11 1 10 12
M  V30 12 1 11 13
M  V30 13 1 12 14
M  V30 14 1 12 15
M  V30 15 1 10 11
M  V30 16 1 2 16
M  V30 17 1 2 17
M  V30 18 1 7 18
M  V30 19 1 8 19
M  V30 20 1 9 20
M  V30 21 1 9 21
M  V30 22 1 9 22
M  V30 23 1 12 23
M  V30 24 1 13 24
M  V30 25 1 14 25
M  V30 26 1 14 26
M  V30 27 1 14 27
M  V30 28 1 15 28
M  V30 29 1 15 29
M  V30 30 1 15 30
M  V30 END BOND
M  V30 END CTAB
M  END
>  <Structure No>
8045

>  <LogS>
-2.58

>  <MMFF94 Energy>
54.718

$$$$
Compound 8046
Actelion Java MolfileCreator 2.0

  0  0  0  0  0  0              0 V3000
M  V30 BEGIN CTAB
M  V30 COUNTS 13 13 0 0 0
M  V30 BEGIN ATOM
M  V30 1 Cl 0.2781 3.1559 0.1854 0
M  V30 2 C 0.2407 1.3924 0.113 0
M  V30 3 C 1.4395 0.6603 0.1968 0
M  V30 4 C -0.9875 0.7186 -0.0284 0
M  V30 5 Cl 2.9815 1.5004 0.3743 0
M  V30 6 C 1.4079 -0.7432 0.139 0
M  V30 7 Cl -2.4888 1.6403 -0.133 0
M  V30 8 C -1.0118 -0.6889 -0.0857 0
M  V30 9 Cl 2.8947 -1.684 0.2415 0
M  V30 10 C 0.1844 -1.4101 -0.0017 0
M  V30 11 O -2.2085 -1.3958 -0.2255 0
M  V30 12 O 0.1527 -2.7998 -0.0591 0 CHG=-1
M  V30 13 H -3.1117 -0.9444 -0.2926 0
M  V30 END ATOM
M  V30 BEGIN BOND
M  V30 1 1 1 2
M  V30 2 2 2 3
M  V30 3 1 2 4
M  V30 4 1 3 5
M  V30 5 1 3 6
M  V30 6 1 4 7
M  V30 7 2 4 8
M  V30 8 1 6 9
M  V30 9 2 6 10
M  V30 10 1 8 11
M  V30 11 1 10 12
M  V30 12 1 8 10
M  V30 13 1 11 13
M  V30 END BOND
M  V30 END CTAB
M  END
>  <Structure No>
8046

>  <LogS>
-3.55

>  <MMFF94 Energy>
32.7

$$$$
Compound 8047
Actelion Java MolfileCreator 2.0

  0  0  0  0  0  0              0 V3000
M  V30 BEGIN CTAB
M  V30 COUNTS 24 25 0 0 0
M  V30 BEGIN ATOM
M  V30 1 O -2.9787 -1.9313 -2.2535 0
M  V30 2 N -2.7834 -1.3576 -1.162 0 CHG=1
M  V30 3 O -3.8022 -1.3242 -0.2379 0 CHG=-1
M  V30 4 C -1.4502 -0.9892 -0.7734 0
M  V30 5 C -1.1784 0.2271 -0.0998 0
M  V30 6 C -0.3977 -1.8729 -1.0461 0
M  V30 7 C 0.1486 0.5081 0.333 0
M  V30 8 C -2.1859 1.1895 0.1225 0
M  V30 9 C 0.9011 -1.5905 -0.6307 0
M  V30 10 C 1.189 -0.407 0.0691 0
M  V30 11 C 0.4138 1.7122 1.0144 0
M  V30 12 C -1.8986 2.3779 0.7957 0
M  V30 13 O 2.4923 -0.112 0.5069 0
M  V30 14 C -0.6061 2.6348 1.2467 0
M  V30 15 C 3.6256 -0.9495 0.3026 0
M  V30 16 H -0.5909 -2.8045 -1.5634 0
M  V30 17 H -3.1945 1.0474 -0.2382 0
M  V30 18 H 1.6771 -2.3097 -0.8533 0
M  V30 19 H 1.4107 1.95 1.3639 0
M  V30 20 H -2.6816 3.1065 0.9625 0
M  V30 21 H -0.3904 3.5587 1.7677 0
M  V30 22 H 3.8078 -1.0871 -0.7839 0
M  V30 23 H 3.4668 -1.9332 0.7928 0
M  V30 24 H 4.5173 -0.4683 0.7537 0
M  V30 END ATOM
M  V30 BEGIN BOND
M  V30 1 2 1 2
M  V30 2 1 2 3
M  V30 3 1 2 4
M  V30 4 1 4 5
M  V30 5 2 4 6
M  V30 6 1 5 7
M  V30 7 2 5 8
M  V30 8 1 6 9
M  V30 9 1 7 10
M  V30 10 2 7 11
M  V30 11 1 8 12
M  V30 12 1 10 13
M  V30 13 1 11 14
M  V30 14 1 13 15
M  V30 15 2 9 10
M  V30 16 2 12 14
M  V30 17 1 6 16
M  V30 18 1 8 17
M  V30 19 1 9 18
M  V30 20 1 11 19
M  V30 21 1 12 20
M  V30 22 1 14 21
M  V30 23 1 15 22
M  V30 24 1 15 23
M  V30 25 1 15 24
M  V30 END BOND
M  V30 END CTAB
M  END
>  <Structure No>
8047

>  <LogS>
-4.36

>  <MMFF94 Energy>
75.979

$$$$
Compound 8048
Actelion Java MolfileCreator 2.0

  0  0  0  0  0  0              0 V3000
M  V30 BEGIN CTAB
M  V30 COUNTS 29 28 0 0 0
M  V30 BEGIN ATOM
M  V30 1 O -3.424 1.91 3.424 0
M  V30 2 N -3.4614 0.9614 2.6159 0 CHG=1
M  V30 3 O -3.9322 1.1803 1.3359 0
M  V30 4 O -3.0781 -0.2937 3.0303 0 CHG=-1
M  V30 5 C -3.9573 0.16 0.3394 0
M  V30 6 C -2.6869 0.194 -0.516 0
M  V30 7 C -1.4365 -0.2117 0.2742 0
M  V30 8 C -0.2042 -0.2675 -0.6364 0
M  V30 9 C 1.0511 -0.6522 0.1607 0
M  V30 10 C 2.2842 -0.8488 -0.7345 0
M  V30 11 C 2.8118 0.4695 -1.3131 0
M  V30 12 O 4.0231 0.2454 -2.0313 0
M  V30 13 N 5.2344 0.0324 -1.4006 0 CHG=1
M  V30 14 O 5.3375 0.1053 -0.1582 0
M  V30 15 O 6.3531 -0.2181 -2.1579 0 CHG=-1
M  V30 16 H -4.8254 0.3525 -0.3258 0
M  V30 17 H -4.1079 -0.8428 0.7937 0
M  V30 18 H -2.5534 1.2175 -0.9298 0
M  V30 19 H -2.8232 -0.5065 -1.3688 0
M  V30 20 H -1.5989 -1.2114 0.7338 0
M  V30 21 H -1.2534 0.5289 1.0822 0
M  V30 22 H -0.0591 0.7295 -1.1045 0
M  V30 23 H -0.3757 -1.0166 -1.4404 0
M  V30 24 H 1.2641 0.1228 0.9296 0
M  V30 25 H 0.8584 -1.6096 0.6927 0
M  V30 26 H 3.0825 -1.3179 -0.1206 0
M  V30 27 H 2.0453 -1.5509 -1.5628 0
M  V30 28 H 2.983 1.2154 -0.5068 0
M  V30 29 H 2.0678 0.889 -2.021 0
M  V30 END ATOM
M  V30 BEGIN BOND
M  V30 1 2 1 2
M  V30 2 1 2 3
M  V30 3 1 2 4
M  V30 4 1 3 5
M  V30 5 1 5 6
M  V30 6 1 6 7
M  V30 7 1 7 8
M  V30 8 1 8 9
M  V30 9 1 9 10
M  V30 10 1 10 11
M  V30 11 1 11 12
M  V30 12 1 12 13
M  V30 13 2 13 14
M  V30 14 1 13 15
M  V30 15 1 5 16
M  V30 16 1 5 17
M  V30 17 1 6 18
M  V30 18 1 6 19
M  V30 19 1 7 20
M  V30 20 1 7 21
M  V30 21 1 8 22
M  V30 22 1 8 23
M  V30 23 1 9 24
M  V30 24 1 9 25
M  V30 25 1 10 26
M  V30 26 1 10 27
M  V30 27 1 11 28
M  V30 28 1 11 29
M  V30 END BOND
M  V30 END CTAB
M  END
>  <Structure No>
8048

>  <LogS>
-3.4

>  <MMFF94 Energy>
-27.156

$$$$
Compound 8049
Actelion Java MolfileCreator 2.0

  0  0  0  0  0  0              0 V3000
M  V30 BEGIN CTAB
M  V30 COUNTS 25 27 0 0 0
M  V30 BEGIN ATOM
M  V30 1 O -5.2929 0.3251 -0.0812 0
M  V30 2 N -4.392 -0.4699 -0.4203 0 CHG=1
M  V30 3 O -4.7474 -1.6666 -0.9996 0 CHG=-1
M  V30 4 C -3.0065 -0.1426 -0.2099 0
M  V30 5 C -1.9954 -1.0505 -0.5978 0
M  V30 6 C -2.64 1.0909 0.3871 0
M  V30 7 C -0.6599 -0.7094 -0.3829 0
M  V30 8 C -1.2903 1.4157 0.5949 0
M  V30 9 C -0.3221 0.496 0.1996 0
M  V30 10 C 0.5583 -1.5217 -0.7173 0
M  V30 11 C 1.1202 0.5659 0.2909 0
M  V30 12 C 1.6422 -0.5998 -0.2384 0
M  V30 13 C 1.9406 1.5734 0.7996 0
M  V30 14 C 3.0217 -0.8087 -0.2814 0
M  V30 15 C 3.3308 1.3774 0.7632 0
M  V30 16 C 3.8692 0.1913 0.2249 0
M  V30 17 H -2.2381 -2.0004 -1.056 0
M  V30 18 H -3.3979 1.8011 0.692 0
M  V30 19 H -1.0133 2.3573 1.0505 0
M  V30 20 H 0.5681 -2.4757 -0.149 0
M  V30 21 H 0.6351 -1.6905 -1.8123 0
M  V30 22 H 1.5215 2.482 1.2117 0
M  V30 23 H 3.4303 -1.7212 -0.6957 0
M  V30 24 H 3.9921 2.1416 1.1505 0
M  V30 25 H 4.9419 0.0497 0.2012 0
M  V30 END ATOM
M  V30 BEGIN BOND
M  V30 1 2 1 2
M  V30 2 1 2 3
M  V30 3 1 2 4
M  V30 4 2 4 5
M  V30 5 1 4 6
M  V30 6 1 5 7
M  V30 7 2 6 8
M  V30 8 2 7 9
M  V30 9 1 7 10
M  V30 10 1 9 11
M  V30 11 1 10 12
M  V30 12 1 11 13
M  V30 13 1 12 14
M  V30 14 2 13 15
M  V30 15 2 14 16
M  V30 16 1 8 9
M  V30 17 2 11 12
M  V30 18 1 15 16
M  V30 19 1 5 17
M  V30 20 1 6 18
M  V30 21 1 8 19
M  V30 22 1 10 20
M  V30 23 1 10 21
M  V30 24 1 13 22
M  V30 25 1 14 23
M  V30 26 1 15 24
M  V30 27 1 16 25
M  V30 END BOND
M  V30 END CTAB
M  END
>  <Structure No>
8049

>  <LogS>
-4.72

>  <MMFF94 Energy>
83.867

$$$$
Compound 8050
Actelion Java MolfileCreator 2.0

  0  0  0  0  0  0              0 V3000
M  V30 BEGIN CTAB
M  V30 COUNTS 32 31 0 0 0
M  V30 BEGIN ATOM
M  V30 1 O -5.4905 2.7025 -1.43 0
M  V30 2 N -4.6895 2.0575 -0.7254 0 CHG=1
M  V30 3 O -4.0296 0.9728 -1.2651 0
M  V30 4 O -4.4753 2.4376 0.5799 0 CHG=-1
M  V30 5 C -3.1063 0.2047 -0.5029 0
M  V30 6 C -2.5408 -0.9198 -1.372 0
M  V30 7 C -1.6892 -1.9257 -0.5767 0
M  V30 8 C -0.438 -1.3269 0.0907 0
M  V30 9 C 0.5521 -0.73 -0.9243 0
M  V30 10 C 1.913 -0.3955 -0.2942 0
M  V30 11 C 1.8343 0.7869 0.685 0
M  V30 12 C 3.2196 1.1986 1.1833 0
M  V30 13 O 3.8028 0.142 1.9403 0
M  V30 14 N 5.0556 0.2544 2.5097 0 CHG=1
M  V30 15 O 5.7301 1.2974 2.3806 0
M  V30 16 O 5.5677 -0.7987 3.2285 0 CHG=-1
M  V30 17 H -2.2854 0.8686 -0.1582 0
M  V30 18 H -3.6283 -0.2248 0.3795 0
M  V30 19 H -3.3911 -1.4754 -1.8243 0
M  V30 20 H -1.9527 -0.4886 -2.2094 0
M  V30 21 H -1.3754 -2.7432 -1.2617 0
M  V30 22 H -2.3226 -2.3897 0.2105 0
M  V30 23 H 0.0669 -2.1435 0.6515 0
M  V30 24 H -0.7402 -0.5596 0.8329 0
M  V30 25 H 0.1256 0.1891 -1.3799 0
M  V30 26 H 0.7227 -1.4665 -1.7395 0
M  V30 27 H 2.616 -0.1359 -1.1158 0
M  V30 28 H 2.3174 -1.2929 0.223 0
M  V30 29 H 1.208 0.5174 1.5618 0
M  V30 30 H 1.3677 1.6591 0.1773 0
M  V30 31 H 3.8751 1.4513 0.3217 0
M  V30 32 H 3.1196 2.0984 1.8278 0
M  V30 END ATOM
M  V30 BEGIN BOND
M  V30 1 2 1 2
M  V30 2 1 2 3
M  V30 3 1 2 4
M  V30 4 1 3 5
M  V30 5 1 5 6
M  V30 6 1 6 7
M  V30 7 1 7 8
M  V30 8 1 8 9
M  V30 9 1 9 10
M  V30 10 1 10 11
M  V30 11 1 11 12
M  V30 12 1 12 13
M  V30 13 1 13 14
M  V30 14 2 14 15
M  V30 15 1 14 16
M  V30 16 1 5 17
M  V30 17 1 5 18
M  V30 18 1 6 19
M  V30 19 1 6 20
M  V30 20 1 7 21
M  V30 21 1 7 22
M  V30 22 1 8 23
M  V30 23 1 8 24
M  V30 24 1 9 25
M  V30 25 1 9 26
M  V30 26 1 10 27
M  V30 27 1 10 28
M  V30 28 1 11 29
M  V30 29 1 11 30
M  V30 30 1 12 31
M  V30 31 1 12 32
M  V30 END BOND
M  V30 END CTAB
M  END
>  <Structure No>
8050

>  <LogS>
-4.14

>  <MMFF94 Energy>
-28.7

$$$$
Compound 8051
Actelion Java MolfileCreator 2.0

  0  0  0  0  0  0              0 V3000
M  V30 BEGIN CTAB
M  V30 COUNTS 35 35 0 0 0
M  V30 BEGIN ATOM
M  V30 1 O -2.2121 -0.7896 -1.7377 0
M  V30 2 C -1.8764 -0.4039 -0.5848 0
M  V30 3 O -2.8507 -0.201 0.401 0
M  V30 4 N -0.4851 -0.2263 -0.2565 0
M  V30 5 C -4.2515 -0.3088 0.1556 0
M  V30 6 C 0.4123 0.6561 -1.0297 0 CFG=1
M  V30 7 C -0.0671 -0.5305 1.1152 0
M  V30 8 C -4.7581 0.9076 -0.6106 0
M  V30 9 C 1.8204 0.0493 -1.0521 0
M  V30 10 C -0.0589 0.9261 -2.4682 0
M  V30 11 C 1.359 -1.1133 1.1435 0 CFG=1
M  V30 12 N 2.2648 -0.2998 0.3032 0
M  V30 13 C 1.8306 -1.1892 2.6081 0
M  V30 14 C 3.6874 -0.3145 0.5188 0
M  V30 15 O 4.2808 -1.3967 0.7733 0
M  V30 16 N 4.4404 0.8929 0.4109 0
M  V30 17 H -4.4759 -1.241 -0.4069 0
M  V30 18 H -4.7783 -0.3603 1.1316 0
M  V30 19 H 0.4668 1.6393 -0.5107 0
M  V30 20 H -0.7589 -1.2714 1.5759 0
M  V30 21 H -0.1131 0.4037 1.718 0
M  V30 22 H -4.5262 1.8349 -0.045 0
M  V30 23 H -5.8578 0.8332 -0.7445 0
M  V30 24 H -4.2801 0.9625 -1.6108 0
M  V30 25 H 1.8236 -0.8712 -1.6768 0
M  V30 26 H 2.5194 0.7801 -1.5164 0
M  V30 27 H -0.1325 -0.0205 -3.0448 0
M  V30 28 H -1.042 1.4428 -2.4636 0
M  V30 29 H 0.6632 1.5938 -2.9846 0
M  V30 30 H 1.3243 -2.1463 0.7314 0
M  V30 31 H 2.7497 -1.8022 2.6993 0
M  V30 32 H 1.0554 -1.6739 3.2399 0
M  V30 33 H 2.0292 -0.1707 3.0054 0
M  V30 34 H 3.9602 1.8023 0.2309 0
M  V30 35 H 5.4765 0.8821 0.5386 0
M  V30 END ATOM
M  V30 BEGIN BOND
M  V30 1 2 1 2
M  V30 2 1 2 3
M  V30 3 1 2 4
M  V30 4 1 3 5
M  V30 5 1 4 6
M  V30 6 1 4 7
M  V30 7 1 5 8
M  V30 8 1 6 9
M  V30 9 1 6 10
M  V30 10 1 7 11
M  V30 11 1 9 12
M  V30 12 1 11 13
M  V30 13 1 12 14
M  V30 14 2 14 15
M  V30 15 1 14 16
M  V30 16 1 11 12
M  V30 17 1 5 17
M  V30 18 1 5 18
M  V30 19 1 6 19
M  V30 20 1 7 20
M  V30 21 1 7 21
M  V30 22 1 8 22
M  V30 23 1 8 23
M  V30 24 1 8 24
M  V30 25 1 9 25
M  V30 26 1 9 26
M  V30 27 1 10 27
M  V30 28 1 10 28
M  V30 29 1 10 29
M  V30 30 1 11 30
M  V30 31 1 13 31
M  V30 32 1 13 32
M  V30 33 1 13 33
M  V30 34 1 16 34
M  V30 35 1 16 35
M  V30 END BOND
M  V30 BEGIN COLLECTION
M  V30 MDLV30/STEABS ATOMS=(2 6 11)
M  V30 END COLLECTION
M  V30 END CTAB
M  END
>  <Structure No>
8051

>  <LogS>
-0.55

>  <MMFF94 Energy>
-102.03

$$$$
Compound 8052
Actelion Java MolfileCreator 2.0

  0  0  0  0  0  0              0 V3000
M  V30 BEGIN CTAB
M  V30 COUNTS 21 23 0 0 0
M  V30 BEGIN ATOM
M  V30 1 O -4.2082 -1.4551 0.0 0
M  V30 2 C -3.1518 -0.7725 0.0527 0
M  V30 3 O -1.973 -1.3744 -0.0827 0
M  V30 4 C -3.2249 0.6103 0.253 0
M  V30 5 C -0.8196 -0.7119 -0.0369 0
M  V30 6 C -2.0455 1.3517 0.309 0
M  V30 7 C 0.3972 -1.4067 -0.1873 0
M  V30 8 C -0.8175 0.701 0.1645 0
M  V30 9 O 0.4093 -2.7861 -0.3844 0
M  V30 10 C 1.5811 -0.6678 -0.1318 0
M  V30 11 C 0.3989 1.4127 0.2146 0
M  V30 12 O 2.8104 -1.1081 -0.2465 0
M  V30 13 C 1.5777 0.6875 0.0615 0
M  V30 14 C 3.6206 -0.0708 -0.1327 0
M  V30 15 C 2.8906 1.0961 0.0644 0
M  V30 16 H -4.1827 1.1036 0.3639 0
M  V30 17 H -2.0925 2.4231 0.4637 0
M  V30 18 H 1.2771 -3.2974 -0.4939 0
M  V30 19 H 0.4246 2.4852 0.3666 0
M  V30 20 H 4.699 -0.135 -0.1874 0
M  V30 21 H 3.2725 2.1005 0.1914 0
M  V30 END ATOM
M  V30 BEGIN BOND
M  V30 1 2 1 2
M  V30 2 1 2 3
M  V30 3 1 2 4
M  V30 4 1 3 5
M  V30 5 2 4 6
M  V30 6 2 5 7
M  V30 7 1 5 8
M  V30 8 1 7 9
M  V30 9 1 7 10
M  V30 10 2 8 11
M  V30 11 1 10 12
M  V30 12 2 10 13
M  V30 13 1 12 14
M  V30 14 1 13 15
M  V30 15 1 6 8
M  V30 16 1 11 13
M  V30 17 2 14 15
M  V30 18 1 4 16
M  V30 19 1 6 17
M  V30 20 1 9 18
M  V30 21 1 11 19
M  V30 22 1 14 20
M  V30 23 1 15 21
M  V30 END BOND
M  V30 END CTAB
M  END
>  <Structure No>
8052

>  <LogS>
-3.22

>  <MMFF94 Energy>
41.936

$$$$
Compound 8053
Actelion Java MolfileCreator 2.0

  0  0  0  0  0  0              0 V3000
M  V30 BEGIN CTAB
M  V30 COUNTS 22 23 0 0 0
M  V30 BEGIN ATOM
M  V30 1 S -5.176 0.6777 -1.4405 0
M  V30 2 C -4.0374 -0.1125 -0.5789 0
M  V30 3 S -2.2971 0.3159 -0.7006 0
M  V30 4 N -4.3939 -1.0045 0.4685 0 CHG=-1
M  V30 5 C -2.0006 -0.7619 0.7124 0
M  V30 6 C -3.2355 -1.3814 1.1889 0
M  V30 7 C -0.7889 -1.0671 1.2029 0
M  V30 8 O -3.2891 -2.1836 2.1589 0
M  V30 9 C 0.4748 -0.4732 0.7193 0
M  V30 10 C 0.6201 0.9156 0.5563 0
M  V30 11 C 1.5793 -1.3075 0.4971 0
M  V30 12 C 1.8411 1.4578 0.1292 0
M  V30 13 C 2.7965 -0.77 0.0701 0
M  V30 14 O 1.9742 2.8349 -0.0421 0
M  V30 15 C 2.9326 0.6086 -0.1199 0
M  V30 16 O 4.1582 1.1162 -0.5499 0
M  V30 17 H -0.7118 -1.8366 1.9623 0
M  V30 18 H -0.2045 1.5801 0.7814 0
M  V30 19 H 1.4951 -2.3777 0.643 0
M  V30 20 H 3.6377 -1.4269 -0.1112 0
M  V30 21 H 1.2026 3.4687 0.1315 0
M  V30 22 H 4.3072 2.1068 -0.7009 0
M  V30 END ATOM
M  V30 BEGIN BOND
M  V30 1 2 1 2
M  V30 2 1 2 3
M  V30 3 1 2 4
M  V30 4 1 3 5
M  V30 5 1 4 6
M  V30 6 2 5 7
M  V30 7 2 6 8
M  V30 8 1 7 9
M  V30 9 2 9 10
M  V30 10 1 9 11
M  V30 11 1 10 12
M  V30 12 2 11 13
M  V30 13 1 12 14
M  V30 14 2 12 15
M  V30 15 1 15 16
M  V30 16 1 5 6
M  V30 17 1 13 15
M  V30 18 1 7 17
M  V30 19 1 10 18
M  V30 20 1 11 19
M  V30 21 1 13 20
M  V30 22 1 14 21
M  V30 23 1 16 22
M  V30 END BOND
M  V30 END CTAB
M  END
>  <Structure No>
8053

>  <LogS>
-3.34

>  <MMFF94 Energy>
18.068

$$$$
Compound 8054
Actelion Java MolfileCreator 2.0

  0  0  0  0  0  0              0 V3000
M  V30 BEGIN CTAB
M  V30 COUNTS 20 20 0 0 0
M  V30 BEGIN ATOM
M  V30 1 O 2.2569 1.0473 1.2892 0
M  V30 2 C 1.7504 0.4135 0.3222 0
M  V30 3 O 2.5744 -0.1019 -0.6842 0
M  V30 4 C 0.2858 0.214 0.2503 0
M  V30 5 C 3.9882 0.0546 -0.6746 0
M  V30 6 C -0.2823 -0.4906 -0.8237 0
M  V30 7 C -0.5585 0.7244 1.2517 0
M  V30 8 C -1.6654 -0.6814 -0.8956 0
M  V30 9 C -1.9416 0.5335 1.1797 0
M  V30 10 C -2.5095 -0.171 0.1056 0
M  V30 11 C -3.9737 -0.3706 0.0332 0
M  V30 12 O -4.4876 -1.002 -0.9282 0
M  V30 13 O -4.8039 0.1363 1.0265 0 CHG=-1
M  V30 14 H 4.2513 1.1334 -0.6963 0
M  V30 15 H 4.4154 -0.4376 -1.5719 0
M  V30 16 H 4.4169 -0.4182 0.234 0
M  V30 17 H 0.3408 -0.8961 -1.6108 0
M  V30 18 H -0.1513 1.272 2.0925 0
M  V30 19 H -2.0731 -1.2288 -1.7362 0
M  V30 20 H -2.5653 0.9389 1.9666 0
M  V30 END ATOM
M  V30 BEGIN BOND
M  V30 1 2 1 2
M  V30 2 1 2 3
M  V30 3 1 2 4
M  V30 4 1 3 5
M  V30 5 2 4 6
M  V30 6 1 4 7
M  V30 7 1 6 8
M  V30 8 2 7 9
M  V30 9 2 8 10
M  V30 10 1 10 11
M  V30 11 2 11 12
M  V30 12 1 11 13
M  V30 13 1 9 10
M  V30 14 1 5 14
M  V30 15 1 5 15
M  V30 16 1 5 16
M  V30 17 1 6 17
M  V30 18 1 7 18
M  V30 19 1 8 19
M  V30 20 1 9 20
M  V30 END BOND
M  V30 END CTAB
M  END
>  <Structure No>
8054

>  <LogS>
-2.97

>  <MMFF94 Energy>
47.552

$$$$
Compound 8055
Actelion Java MolfileCreator 2.0

  0  0  0  0  0  0              0 V3000
M  V30 BEGIN CTAB
M  V30 COUNTS 26 25 0 0 0
M  V30 BEGIN ATOM
M  V30 1 O 4.5482 -0.478 -1.3548 0
M  V30 2 N 4.2933 -1.0445 -0.2714 0 CHG=1
M  V30 3 O 3.7034 -0.3583 0.7731 0
M  V30 4 O 4.6479 -2.3606 -0.0976 0 CHG=-1
M  V30 5 C 3.2644 0.9941 0.6545 0
M  V30 6 C 1.9791 1.0879 -0.1746 0
M  V30 7 C 0.8214 0.3264 0.4845 0
M  V30 8 C -0.4638 0.4578 -0.341 0
M  V30 9 C -1.6203 -0.3049 0.3157 0
M  V30 10 C -2.9021 -0.1759 -0.5045 0
M  V30 11 O -3.9496 -0.8952 0.1351 0
M  V30 12 N -5.2225 -0.9464 -0.3947 0 CHG=1
M  V30 13 O -6.1105 -1.5889 0.1998 0
M  V30 14 O -5.5259 -0.2979 -1.5702 0 CHG=-1
M  V30 15 H 4.0626 1.6106 0.1875 0
M  V30 16 H 3.0777 1.4004 1.6715 0
M  V30 17 H 1.7036 2.1604 -0.276 0
M  V30 18 H 2.1624 0.6841 -1.1935 0
M  V30 19 H 0.6464 0.7337 1.5047 0
M  V30 20 H 1.0895 -0.7492 0.5743 0
M  V30 21 H -0.7358 1.533 -0.4298 0
M  V30 22 H -0.2881 0.0521 -1.3618 0
M  V30 23 H -1.354 -1.3811 0.4044 0
M  V30 24 H -1.8012 0.0989 1.3361 0
M  V30 25 H -2.7405 -0.5909 -1.5232 0
M  V30 26 H -3.1896 0.8949 -0.5876 0
M  V30 END ATOM
M  V30 BEGIN BOND
M  V30 1 2 1 2
M  V30 2 1 2 3
M  V30 3 1 2 4
M  V30 4 1 3 5
M  V30 5 1 5 6
M  V30 6 1 6 7
M  V30 7 1 7 8
M  V30 8 1 8 9
M  V30 9 1 9 10
M  V30 10 1 10 11
M  V30 11 1 11 12
M  V30 12 2 12 13
M  V30 13 1 12 14
M  V30 14 1 5 15
M  V30 15 1 5 16
M  V30 16 1 6 17
M  V30 17 1 6 18
M  V30 18 1 7 19
M  V30 19 1 7 20
M  V30 20 1 8 21
M  V30 21 1 8 22
M  V30 22 1 9 23
M  V30 23 1 9 24
M  V30 24 1 10 25
M  V30 25 1 10 26
M  V30 END BOND
M  V30 END CTAB
M  END
>  <Structure No>
8055

>  <LogS>
-2.77

>  <MMFF94 Energy>
-29.722

$$$$
Compound 8056
Actelion Java MolfileCreator 2.0

  0  0  0  0  0  0              0 V3000
M  V30 BEGIN CTAB
M  V30 COUNTS 20 20 0 0 0
M  V30 BEGIN ATOM
M  V30 1 O -4.1838 1.9293 -0.1606 0
M  V30 2 N -3.8479 0.7294 -0.0829 0 CHG=1
M  V30 3 O -4.8299 -0.2347 -0.0791 0 CHG=-1
M  V30 4 C -2.4593 0.3595 0.0012 0
M  V30 5 C -2.0878 -0.9925 0.0885 0
M  V30 6 C -1.453 1.3415 -0.0022 0
M  V30 7 C -0.7402 -1.3555 0.1704 0
M  V30 8 C -0.1055 0.9786 0.0796 0
M  V30 9 C 0.2652 -0.3733 0.1669 0
M  V30 10 C 1.6929 -0.7526 0.2533 0
M  V30 11 O 2.0217 -1.9688 0.3317 0
M  V30 12 O 2.6794 0.2397 0.2484 0
M  V30 13 C 4.0682 -0.0575 0.3288 0
M  V30 14 H -2.8389 -1.7716 0.0936 0
M  V30 15 H -1.7074 2.3916 -0.0683 0
M  V30 16 H -0.487 -2.4062 0.2367 0
M  V30 17 H 0.6448 1.7592 0.0745 0
M  V30 18 H 4.3732 -0.685 -0.5351 0
M  V30 19 H 4.6453 0.8895 0.3069 0
M  V30 20 H 4.2883 -0.5914 1.2775 0
M  V30 END ATOM
M  V30 BEGIN BOND
M  V30 1 2 1 2
M  V30 2 1 2 3
M  V30 3 1 2 4
M  V30 4 2 4 5
M  V30 5 1 4 6
M  V30 6 1 5 7
M  V30 7 2 6 8
M  V30 8 2 7 9
M  V30 9 1 9 10
M  V30 10 2 10 11
M  V30 11 1 10 12
M  V30 12 1 12 13
M  V30 13 1 8 9
M  V30 14 1 5 14
M  V30 15 1 6 15
M  V30 16 1 7 16
M  V30 17 1 8 17
M  V30 18 1 13 18
M  V30 19 1 13 19
M  V30 20 1 13 20
M  V30 END BOND
M  V30 END CTAB
M  END
>  <Structure No>
8056

>  <LogS>
-3.04

>  <MMFF94 Energy>
64.512

$$$$
Compound 8057
Actelion Java MolfileCreator 2.0

  0  0  0  0  0  0              0 V3000
M  V30 BEGIN CTAB
M  V30 COUNTS 42 45 0 0 0
M  V30 BEGIN ATOM
M  V30 1 O -4.4643 1.0538 -0.8916 0
M  V30 2 C -3.6204 0.3735 -0.3273 0
M  V30 3 C -2.3453 0.9307 0.2229 0 CFG=1
M  V30 4 C -3.7832 -1.0816 -0.1094 0
M  V30 5 C -1.5406 -0.3483 0.6161 0 CFG=1
M  V30 6 C -1.6227 1.7978 -0.838 0
M  V30 7 C -2.6764 1.7706 1.4769 0
M  V30 8 C -2.6224 -1.4397 0.81 0
M  V30 9 C -0.4716 -0.7567 -0.4538 0 CFG=1
M  V30 10 C -0.1203 1.819 -0.5733 0
M  V30 11 C 0.5074 0.4275 -0.824 0 CFG=1
M  V30 12 C 0.2635 -2.0663 -0.0377 0
M  V30 13 C 1.9094 0.2783 -0.2271 0
M  V30 14 C 1.6649 -2.1807 -0.6283 0
M  V30 15 C 2.4798 -1.0086 -0.1751 0
M  V30 16 C 2.7115 1.3849 0.1302 0
M  V30 17 C 3.7986 -1.1861 0.2703 0
M  V30 18 C 4.0193 1.1993 0.5859 0
M  V30 19 C 4.5649 -0.086 0.6591 0
M  V30 20 O 5.8695 -0.2796 1.1074 0
M  V30 21 H -4.758 -1.3057 0.375 0
M  V30 22 H -3.6998 -1.6168 -1.0795 0
M  V30 23 H -1.0036 -0.1886 1.5791 0
M  V30 24 H -2.016 2.8383 -0.829 0
M  V30 25 H -1.797 1.3982 -1.8628 0
M  V30 26 H -3.3181 2.6382 1.2104 0
M  V30 27 H -1.7504 2.1549 1.9532 0
M  V30 28 H -3.2198 1.1586 2.2291 0
M  V30 29 H -2.2751 -2.4731 0.6161 0
M  V30 30 H -2.9769 -1.4041 1.8643 0
M  V30 31 H -1.032 -0.9985 -1.3865 0
M  V30 32 H 0.0581 2.1436 0.4742 0
M  V30 33 H 0.3501 2.5666 -1.249 0
M  V30 34 H 0.6619 0.3622 -1.9252 0
M  V30 35 H -0.3185 -2.9496 -0.3778 0
M  V30 36 H 0.3476 -2.1267 1.0706 0
M  V30 37 H 1.6113 -2.189 -1.7386 0
M  V30 38 H 2.121 -3.1382 -0.2936 0
M  V30 39 H 2.3468 2.399 0.0518 0
M  V30 40 H 4.2336 -2.1772 0.3119 0
M  V30 41 H 4.6138 2.0591 0.8675 0
M  V30 42 H 6.452 0.4984 1.3939 0
M  V30 END ATOM
M  V30 BEGIN BOND
M  V30 1 2 1 2
M  V30 2 1 2 3
M  V30 3 1 2 4
M  V30 4 1 3 5
M  V30 5 1 3 6
M  V30 6 1 3 7
M  V30 7 1 4 8
M  V30 8 1 5 9
M  V30 9 1 6 10
M  V30 10 1 9 11
M  V30 11 1 9 12
M  V30 12 1 11 13
M  V30 13 1 12 14
M  V30 14 2 13 15
M  V30 15 1 13 16
M  V30 16 1 15 17
M  V30 17 2 16 18
M  V30 18 2 17 19
M  V30 19 1 19 20
M  V30 20 1 5 8
M  V30 21 1 10 11
M  V30 22 1 14 15
M  V30 23 1 18 19
M  V30 24 1 4 21
M  V30 25 1 4 22
M  V30 26 1 5 23
M  V30 27 1 6 24
M  V30 28 1 6 25
M  V30 29 1 7 26
M  V30 30 1 7 27
M  V30 31 1 7 28
M  V30 32 1 8 29
M  V30 33 1 8 30
M  V30 34 1 9 31
M  V30 35 1 10 32
M  V30 36 1 10 33
M  V30 37 1 11 34
M  V30 38 1 12 35
M  V30 39 1 12 36
M  V30 40 1 14 37
M  V30 41 1 14 38
M  V30 42 1 16 39
M  V30 43 1 17 40
M  V30 44 1 18 41
M  V30 45 1 20 42
M  V30 END BOND
M  V30 BEGIN COLLECTION
M  V30 MDLV30/STEABS ATOMS=(4 3 5 9 11)
M  V30 END COLLECTION
M  V30 END CTAB
M  END
>  <Structure No>
8057

>  <LogS>
-5.11

>  <MMFF94 Energy>
45.952

$$$$
Compound 8058
Actelion Java MolfileCreator 2.0

  0  0  0  0  0  0              0 V3000
M  V30 BEGIN CTAB
M  V30 COUNTS 21 22 0 0 0
M  V30 BEGIN ATOM
M  V30 1 O -2.4054 0.8814 -1.3625 0
M  V30 2 C -2.075 0.2047 -0.3507 0
M  V30 3 N -3.0903 -0.4807 0.3948 0
M  V30 4 C -0.6455 0.1187 0.033 0
M  V30 5 N -4.4471 -0.2907 0.0872 0
M  V30 6 C 0.3575 0.3695 -0.9341 0
M  V30 7 C -0.2599 -0.1887 1.3671 0
M  V30 8 C 1.6892 0.2859 -0.5392 0
M  V30 9 C 1.0992 -0.262 1.7225 0
M  V30 10 O 2.8255 0.4804 -1.3004 0
M  V30 11 C 2.0445 -0.0179 0.7332 0
M  V30 12 C 3.9657 0.2863 -0.4519 0
M  V30 13 O 3.4219 -0.0294 0.8372 0
M  V30 14 H -2.8245 -1.1947 1.1099 0
M  V30 15 H -5.0039 -0.9446 0.6837 0
M  V30 16 H -4.6991 0.6774 0.3905 0
M  V30 17 H 0.1114 0.6113 -1.9602 0
M  V30 18 H -1.0006 -0.3478 2.1386 0
M  V30 19 H 1.4006 -0.493 2.7357 0
M  V30 20 H 4.5653 1.219 -0.3966 0
M  V30 21 H 4.5817 -0.5583 -0.8252 0
M  V30 END ATOM
M  V30 BEGIN BOND
M  V30 1 2 1 2
M  V30 2 1 2 3
M  V30 3 1 2 4
M  V30 4 1 3 5
M  V30 5 2 4 6
M  V30 6 1 4 7
M  V30 7 1 6 8
M  V30 8 2 7 9
M  V30 9 1 8 10
M  V30 10 2 8 11
M  V30 11 1 10 12
M  V30 12 1 11 13
M  V30 13 1 9 11
M  V30 14 1 12 13
M  V30 15 1 3 14
M  V30 16 1 5 15
M  V30 17 1 5 16
M  V30 18 1 6 17
M  V30 19 1 7 18
M  V30 20 1 9 19
M  V30 21 1 12 20
M  V30 22 1 12 21
M  V30 END BOND
M  V30 END CTAB
M  END
>  <Structure No>
8058

>  <LogS>
-0.6

>  <MMFF94 Energy>
70.436

$$$$
Compound 8059
Actelion Java MolfileCreator 2.0

  0  0  0  0  0  0              0 V3000
M  V30 BEGIN CTAB
M  V30 COUNTS 34 35 0 0 0
M  V30 BEGIN ATOM
M  V30 1 O 3.5611 -1.265 -3.4026 0
M  V30 2 C 3.091 -0.8973 -2.2944 0
M  V30 3 O 1.7765 -0.7859 -2.1438 0
M  V30 4 C 3.9521 -0.6096 -1.2333 0
M  V30 5 C 1.2145 -0.4029 -1.0018 0
M  V30 6 C 3.4185 -0.2015 -0.0031 0
M  V30 7 C 2.0149 -0.0934 0.124 0
M  V30 8 C -0.1784 -0.3092 -0.921 0
M  V30 9 C 4.3507 0.1073 1.1394 0
M  V30 10 C 1.3862 0.3065 1.3191 0
M  V30 11 C -0.7978 0.089 0.2725 0
M  V30 12 C -0.0064 0.395 1.389 0
M  V30 13 N -2.2334 0.1833 0.3508 0
M  V30 14 C -2.9629 -0.5937 1.3632 0
M  V30 15 C -2.9609 1.056 -0.582 0
M  V30 16 C -2.9051 -2.0819 1.0369 0
M  V30 17 C -2.6732 2.5218 -0.2761 0
M  V30 18 H 5.0231 -0.7043 -1.3694 0
M  V30 19 H -0.7778 -0.5655 -1.7852 0
M  V30 20 H 4.2191 1.163 1.4573 0
M  V30 21 H 4.1342 -0.5674 1.9941 0
M  V30 22 H 5.4142 -0.0341 0.8517 0
M  V30 23 H 1.9592 0.5559 2.2021 0
M  V30 24 H -0.467 0.7213 2.3124 0
M  V30 25 H -2.53 -0.4164 2.3699 0
M  V30 26 H -4.0285 -0.2819 1.4117 0
M  V30 27 H -4.0569 0.887 -0.5114 0
M  V30 28 H -2.6676 0.8298 -1.6284 0
M  V30 29 H -1.8547 -2.4415 1.061 0
M  V30 30 H -3.4935 -2.652 1.7863 0
M  V30 31 H -3.3319 -2.2664 0.0284 0
M  V30 32 H -2.9593 2.7544 0.7715 0
M  V30 33 H -1.5938 2.7409 -0.4179 0
M  V30 34 H -3.2604 3.1687 -0.9612 0
M  V30 END ATOM
M  V30 BEGIN BOND
M  V30 1 2 1 2
M  V30 2 1 2 3
M  V30 3 1 2 4
M  V30 4 1 3 5
M  V30 5 2 4 6
M  V30 6 2 5 7
M  V30 7 1 5 8
M  V30 8 1 6 9
M  V30 9 1 7 10
M  V30 10 2 8 11
M  V30 11 2 10 12
M  V30 12 1 11 13
M  V30 13 1 13 14
M  V30 14 1 13 15
M  V30 15 1 14 16
M  V30 16 1 15 17
M  V30 17 1 6 7
M  V30 18 1 11 12
M  V30 19 1 4 18
M  V30 20 1 8 19
M  V30 21 1 9 20
M  V30 22 1 9 21
M  V30 23 1 9 22
M  V30 24 1 10 23
M  V30 25 1 12 24
M  V30 26 1 14 25
M  V30 27 1 14 26
M  V30 28 1 15 27
M  V30 29 1 15 28
M  V30 30 1 16 29
M  V30 31 1 16 30
M  V30 32 1 16 31
M  V30 33 1 17 32
M  V30 34 1 17 33
M  V30 35 1 17 34
M  V30 END BOND
M  V30 END CTAB
M  END
>  <Structure No>
8059

>  <LogS>
-4.0

>  <MMFF94 Energy>
36.629

$$$$
Compound 8060
Actelion Java MolfileCreator 2.0

  0  0  0  0  0  0              0 V3000
M  V30 BEGIN CTAB
M  V30 COUNTS 22 23 0 0 0
M  V30 BEGIN ATOM
M  V30 1 S 3.1779 0.0835 0.4177 0
M  V30 2 O 3.3037 0.7511 1.7579 0
M  V30 3 O 3.573 1.047 -0.6653 0
M  V30 4 O 4.2129 -1.2395 0.3708 0 CHG=-1
M  V30 5 C 1.506 -0.4299 0.1693 0
M  V30 6 C 0.4574 0.5078 0.1592 0
M  V30 7 C 1.2205 -1.7853 -0.0152 0
M  V30 8 N 0.7295 1.8295 0.3464 0
M  V30 9 C -0.8848 0.0829 -0.0408 0
M  V30 10 C -0.0906 -2.2119 -0.2156 0
M  V30 11 C -0.2423 2.7757 0.3544 0
M  V30 12 C -1.1539 -1.2981 -0.2388 0
M  V30 13 C -1.8963 1.0664 -0.0228 0
M  V30 14 C -1.5722 2.409 0.1724 0
M  V30 15 N -2.4775 -1.8063 -0.471 0
M  V30 16 H 2.0138 -2.5209 -0.0074 0
M  V30 17 H -0.2792 -3.2684 -0.3615 0
M  V30 18 H 0.0189 3.8143 0.5069 0
M  V30 19 H -2.9398 0.8271 -0.1478 0
M  V30 20 H -2.3502 3.1619 0.1849 0
M  V30 21 H -2.6365 -2.8354 -0.5535 0
M  V30 22 H -3.3104 -1.1999 -0.6189 0
M  V30 END ATOM
M  V30 BEGIN BOND
M  V30 1 2 1 2
M  V30 2 2 1 3
M  V30 3 1 1 4
M  V30 4 1 1 5
M  V30 5 1 5 6
M  V30 6 2 5 7
M  V30 7 2 6 8
M  V30 8 1 6 9
M  V30 9 1 7 10
M  V30 10 1 8 11
M  V30 11 1 9 12
M  V30 12 2 9 13
M  V30 13 2 11 14
M  V30 14 1 12 15
M  V30 15 2 10 12
M  V30 16 1 13 14
M  V30 17 1 7 16
M  V30 18 1 10 17
M  V30 19 1 11 18
M  V30 20 1 13 19
M  V30 21 1 14 20
M  V30 22 1 15 21
M  V30 23 1 15 22
M  V30 END BOND
M  V30 END CTAB
M  END
>  <Structure No>
8060

>  <LogS>
-2.71

>  <MMFF94 Energy>
68.077

$$$$
Compound 8061
Actelion Java MolfileCreator 2.0

  0  0  0  0  0  0              0 V3000
M  V30 BEGIN CTAB
M  V30 COUNTS 22 23 0 0 0
M  V30 BEGIN ATOM
M  V30 1 S 3.2628 0.5014 -0.1671 0
M  V30 2 O 3.8895 1.8678 -0.1643 0
M  V30 3 O 3.7027 -0.2337 -1.4014 0
M  V30 4 O 3.7819 -0.3231 1.2017 0 CHG=-1
M  V30 5 C 1.497 0.6301 -0.1508 0
M  V30 6 C 0.6704 -0.505 0.0505 0
M  V30 7 C 0.9162 1.8964 -0.3099 0
M  V30 8 N 1.2624 -1.8017 0.2383 0
M  V30 9 C -0.7412 -0.3395 0.0768 0
M  V30 10 C -0.4651 2.0583 -0.2634 0
M  V30 11 C -1.296 0.956 -0.0728 0
M  V30 12 C -1.6341 -1.4224 0.2181 0
M  V30 13 N -2.6447 1.1342 -0.0454 0
M  V30 14 C -3.0122 -1.2017 0.2422 0
M  V30 15 C -3.5035 0.0954 0.1138 0
M  V30 16 H 1.5343 2.7713 -0.4634 0
M  V30 17 H 2.2097 -2.0302 -0.1322 0
M  V30 18 H 0.8014 -2.5394 0.8126 0
M  V30 19 H -0.8905 3.0474 -0.3831 0
M  V30 20 H -1.292 -2.4435 0.2927 0
M  V30 21 H -3.696 -2.0335 0.3535 0
M  V30 22 H -4.57 0.2765 0.1303 0
M  V30 END ATOM
M  V30 BEGIN BOND
M  V30 1 2 1 2
M  V30 2 2 1 3
M  V30 3 1 1 4
M  V30 4 1 1 5
M  V30 5 2 5 6
M  V30 6 1 5 7
M  V30 7 1 6 8
M  V30 8 1 6 9
M  V30 9 2 7 10
M  V30 10 1 9 11
M  V30 11 2 9 12
M  V30 12 2 11 13
M  V30 13 1 12 14
M  V30 14 1 13 15
M  V30 15 1 10 11
M  V30 16 2 14 15
M  V30 17 1 7 16
M  V30 18 1 8 17
M  V30 19 1 8 18
M  V30 20 1 10 19
M  V30 21 1 12 20
M  V30 22 1 14 21
M  V30 23 1 15 22
M  V30 END BOND
M  V30 END CTAB
M  END
>  <Structure No>
8061

>  <LogS>
-2.5

>  <MMFF94 Energy>
84.869

$$$$
Compound 8062
Actelion Java MolfileCreator 2.0

  0  0  0  0  0  0              0 V3000
M  V30 BEGIN CTAB
M  V30 COUNTS 21 21 0 0 0
M  V30 BEGIN ATOM
M  V30 1 Cl -2.5814 -2.743 -1.1287 0
M  V30 2 C -1.2119 -1.6989 -0.7741 0
M  V30 3 C -1.4158 -0.3879 -0.3134 0
M  V30 4 C 0.0787 -2.1949 -0.958 0
M  V30 5 O -2.7486 0.0378 -0.1537 0
M  V30 6 C -0.2884 0.4294 -0.0363 0
M  V30 7 C 1.1851 -1.3942 -0.6865 0
M  V30 8 C -3.1802 1.3168 0.2975 0
M  V30 9 O -0.4558 1.7366 0.4227 0
M  V30 10 C 1.0142 -0.0774 -0.224 0
M  V30 11 O 2.1115 0.7529 0.0578 0
M  V30 12 C 3.4754 0.3696 -0.0871 0
M  V30 13 H 0.2262 -3.2069 -1.3135 0
M  V30 14 H 2.1714 -1.81 -0.8398 0
M  V30 15 H -2.8163 1.5036 1.3297 0
M  V30 16 H -4.2892 1.3357 0.3129 0
M  V30 17 H -2.8301 2.1084 -0.3977 0
M  V30 18 H 0.3241 2.3482 0.6306 0
M  V30 19 H 3.702 -0.4934 0.5739 0
M  V30 20 H 4.1238 1.2206 0.2056 0
M  V30 21 H 3.6883 0.1085 -1.1452 0
M  V30 END ATOM
M  V30 BEGIN BOND
M  V30 1 1 1 2
M  V30 2 2 2 3
M  V30 3 1 2 4
M  V30 4 1 3 5
M  V30 5 1 3 6
M  V30 6 2 4 7
M  V30 7 1 5 8
M  V30 8 1 6 9
M  V30 9 2 6 10
M  V30 10 1 10 11
M  V30 11 1 11 12
M  V30 12 1 7 10
M  V30 13 1 4 13
M  V30 14 1 7 14
M  V30 15 1 8 15
M  V30 16 1 8 16
M  V30 17 1 8 17
M  V30 18 1 9 18
M  V30 19 1 12 19
M  V30 20 1 12 20
M  V30 21 1 12 21
M  V30 END BOND
M  V30 END CTAB
M  END
>  <Structure No>
8062

>  <LogS>
-1.56

>  <MMFF94 Energy>
51.444

$$$$
Compound 8063
Actelion Java MolfileCreator 2.0

  0  0  0  0  0  0              0 V3000
M  V30 BEGIN CTAB
M  V30 COUNTS 23 24 0 0 0
M  V30 BEGIN ATOM
M  V30 1 O -1.9289 -1.2856 -2.3311 0
M  V30 2 N -1.2929 -1.5472 -1.2898 0 CHG=1
M  V30 3 O -1.114 -2.8593 -0.9178 0 CHG=-1
M  V30 4 C -0.822 -0.4886 -0.4422 0
M  V30 5 C 0.5592 -0.363 -0.1498 0
M  V30 6 C -1.7426 0.4249 0.1246 0
M  V30 7 C 1.0011 0.6744 0.7117 0
M  V30 8 C 1.518 -1.2289 -0.7157 0
M  V30 9 C -1.2789 1.4543 0.9565 0
M  V30 10 C -3.2178 0.3203 -0.1577 0
M  V30 11 C 0.0762 1.573 1.2546 0
M  V30 12 C 2.3668 0.8065 1.0096 0
M  V30 13 C 2.8737 -1.0835 -0.4106 0
M  V30 14 C 3.2962 -0.0723 0.4522 0
M  V30 15 H 1.2335 -2.0131 -1.4037 0
M  V30 16 H -1.9723 2.1665 1.3869 0
M  V30 17 H -3.4278 0.6926 -1.182 0
M  V30 18 H -3.8129 0.9202 0.5636 0
M  V30 19 H -3.553 -0.7346 -0.072 0
M  V30 20 H 0.4026 2.3738 1.9079 0
M  V30 21 H 2.7154 1.5923 1.6693 0
M  V30 22 H 3.6001 -1.7554 -0.849 0
M  V30 23 H 4.3479 0.0353 0.6836 0
M  V30 END ATOM
M  V30 BEGIN BOND
M  V30 1 2 1 2
M  V30 2 1 2 3
M  V30 3 1 2 4
M  V30 4 1 4 5
M  V30 5 2 4 6
M  V30 6 1 5 7
M  V30 7 2 5 8
M  V30 8 1 6 9
M  V30 9 1 6 10
M  V30 10 1 7 11
M  V30 11 2 7 12
M  V30 12 1 8 13
M  V30 13 1 12 14
M  V30 14 2 9 11
M  V30 15 2 13 14
M  V30 16 1 8 15
M  V30 17 1 9 16
M  V30 18 1 10 17
M  V30 19 1 10 18
M  V30 20 1 10 19
M  V30 21 1 11 20
M  V30 22 1 12 21
M  V30 23 1 13 22
M  V30 24 1 14 23
M  V30 END BOND
M  V30 END CTAB
M  END
>  <Structure No>
8063

>  <LogS>
-4.27

>  <MMFF94 Energy>
66.913

$$$$
Compound 8064
Actelion Java MolfileCreator 2.0

  0  0  0  0  0  0              0 V3000
M  V30 BEGIN CTAB
M  V30 COUNTS 26 26 0 0 0
M  V30 BEGIN ATOM
M  V30 1 S 3.3975 -2.7496 -0.1615 0
M  V30 2 C 2.2244 -1.6084 -0.1301 0
M  V30 3 N 1.3979 -1.4645 1.0221 0
M  V30 4 N 2.0761 -0.7051 -1.2232 0
M  V30 5 C 0.3777 -0.464 1.071 0
M  V30 6 C 1.0254 0.266 -1.2409 0
M  V30 7 O -0.186 -0.2275 2.1747 0
M  V30 8 C -0.0829 0.2599 -0.1908 0
M  V30 9 O 0.9676 1.0768 -2.2058 0
M  V30 10 C -1.2823 -0.5037 -0.833 0
M  V30 11 C -0.4857 1.7324 0.1467 0
M  V30 12 C -2.5049 -0.7561 0.0715 0
M  V30 13 C 0.6744 2.5886 0.6719 0
M  V30 14 O -2.2486 -1.7715 1.0041 0
M  V30 15 H 1.5769 -2.0537 1.8665 0
M  V30 16 H 2.7477 -0.7447 -2.0229 0
M  V30 17 H -0.9318 -1.4879 -1.2183 0
M  V30 18 H -1.635 0.0678 -1.7203 0
M  V30 19 H -0.904 2.228 -0.7567 0
M  V30 20 H -1.2838 1.7527 0.9172 0
M  V30 21 H -3.3713 -1.048 -0.5648 0
M  V30 22 H -2.8072 0.1634 0.6084 0
M  V30 23 H 1.1081 2.1457 1.5924 0
M  V30 24 H 1.4712 2.6934 -0.0927 0
M  V30 25 H 0.2992 3.6041 0.9189 0
M  V30 26 H -2.2598 -2.629 0.504 0
M  V30 END ATOM
M  V30 BEGIN BOND
M  V30 1 2 1 2
M  V30 2 1 2 3
M  V30 3 1 2 4
M  V30 4 1 3 5
M  V30 5 1 4 6
M  V30 6 2 5 7
M  V30 7 1 5 8
M  V30 8 2 6 9
M  V30 9 1 8 10
M  V30 10 1 8 11
M  V30 11 1 10 12
M  V30 12 1 11 13
M  V30 13 1 12 14
M  V30 14 1 6 8
M  V30 15 1 3 15
M  V30 16 1 4 16
M  V30 17 1 10 17
M  V30 18 1 10 18
M  V30 19 1 11 19
M  V30 20 1 11 20
M  V30 21 1 12 21
M  V30 22 1 12 22
M  V30 23 1 13 23
M  V30 24 1 13 24
M  V30 25 1 13 25
M  V30 26 1 14 26
M  V30 END BOND
M  V30 END CTAB
M  END
>  <Structure No>
8064

>  <LogS>
-1.47

>  <MMFF94 Energy>
-109.93

$$$$
Compound 8065
Actelion Java MolfileCreator 2.0

  0  0  0  0  0  0              0 V3000
M  V30 BEGIN CTAB
M  V30 COUNTS 24 26 0 0 0
M  V30 BEGIN ATOM
M  V30 1 O 4.8377 -0.805 -0.4024 0
M  V30 2 C 3.6206 -0.4847 -0.3759 0
M  V30 3 O 2.7003 -1.4179 -0.1506 0
M  V30 4 C 3.2456 0.8463 -0.5825 0
M  V30 5 C 1.3985 -1.1468 -0.1098 0
M  V30 6 C 1.8937 1.1841 -0.5494 0
M  V30 7 C 0.9376 0.1887 -0.3129 0
M  V30 8 C 0.481 -2.184 0.1325 0
M  V30 9 C -0.4461 0.4817 -0.2592 0
M  V30 10 C -0.8733 -1.8667 0.1554 0
M  V30 11 O -0.9088 1.7885 -0.4442 0
M  V30 12 C -1.3233 -0.5858 -0.0316 0
M  V30 13 O -1.8786 -2.6889 0.3273 0
M  V30 14 C -1.5506 2.5184 0.5945 0
M  V30 15 C -2.6999 -0.6453 0.0116 0
M  V30 16 C -2.9911 -1.9837 0.2458 0
M  V30 17 H 3.9921 1.6093 -0.7651 0
M  V30 18 H 1.6022 2.2153 -0.7067 0
M  V30 19 H 0.8143 -3.203 0.282 0
M  V30 20 H -1.803 3.5326 0.2231 0
M  V30 21 H -0.8661 2.6156 1.4635 0
M  V30 22 H -2.4836 2.0155 0.9163 0
M  V30 23 H -3.4089 0.1583 -0.1302 0
M  V30 24 H -3.9835 -2.403 0.3428 0
M  V30 END ATOM
M  V30 BEGIN BOND
M  V30 1 2 1 2
M  V30 2 1 2 3
M  V30 3 1 2 4
M  V30 4 1 3 5
M  V30 5 2 4 6
M  V30 6 2 5 7
M  V30 7 1 5 8
M  V30 8 1 7 9
M  V30 9 2 8 10
M  V30 10 1 9 11
M  V30 11 2 9 12
M  V30 12 1 10 13
M  V30 13 1 11 14
M  V30 14 1 12 15
M  V30 15 1 13 16
M  V30 16 1 6 7
M  V30 17 1 10 12
M  V30 18 2 15 16
M  V30 19 1 4 17
M  V30 20 1 6 18
M  V30 21 1 8 19
M  V30 22 1 14 20
M  V30 23 1 14 21
M  V30 24 1 14 22
M  V30 25 1 15 23
M  V30 26 1 16 24
M  V30 END BOND
M  V30 END CTAB
M  END
>  <Structure No>
8065

>  <LogS>
-3.6

>  <MMFF94 Energy>
45.121

$$$$
Compound 8066
Actelion Java MolfileCreator 2.0

  0  0  0  0  0  0              0 V3000
M  V30 BEGIN CTAB
M  V30 COUNTS 27 28 0 0 0
M  V30 BEGIN ATOM
M  V30 1 S -0.4869 -1.3802 -1.6239 0
M  V30 2 O 0.027 -2.6592 -2.2214 0
M  V30 3 O -1.1184 -0.5511 -2.7072 0
M  V30 4 N -1.6847 -1.7474 -0.426 0
M  V30 5 C 0.8556 -0.5139 -0.8848 0
M  V30 6 C -2.3467 -0.7339 0.3398 0
M  V30 7 C 1.5153 0.5041 -1.5866 0
M  V30 8 C 1.2705 -0.8418 0.4126 0
M  V30 9 N -3.2437 -1.0093 1.3029 0
M  V30 10 C -2.1668 0.6317 0.2152 0
M  V30 11 C 2.5761 1.1942 -0.9918 0
M  V30 12 C 2.3307 -0.1515 1.0077 0
M  V30 13 C -3.6452 0.1728 1.8036 0
M  V30 14 C -2.9996 1.208 1.1543 0
M  V30 15 C 2.988 0.8704 0.3087 0
M  V30 16 N 4.0722 1.577 0.9172 0
M  V30 17 H -1.9116 -2.7501 -0.2434 0
M  V30 18 H 1.21 0.765 -2.5917 0
M  V30 19 H 0.7725 -1.6293 0.9639 0
M  V30 20 H -3.5663 -1.9545 1.6072 0
M  V30 21 H -1.5136 1.1542 -0.4699 0
M  V30 22 H 3.0763 1.98 -1.5436 0
M  V30 23 H 2.6395 -0.4129 2.012 0
M  V30 24 H -4.3695 0.2807 2.6002 0
M  V30 25 H -3.1225 2.2657 1.345 0
M  V30 26 H 4.5681 2.3397 0.4044 0
M  V30 27 H 4.3864 1.3427 1.8853 0
M  V30 END ATOM
M  V30 BEGIN BOND
M  V30 1 2 1 2
M  V30 2 2 1 3
M  V30 3 1 1 4
M  V30 4 1 1 5
M  V30 5 1 4 6
M  V30 6 2 5 7
M  V30 7 1 5 8
M  V30 8 1 6 9
M  V30 9 2 6 10
M  V30 10 1 7 11
M  V30 11 2 8 12
M  V30 12 1 9 13
M  V30 13 1 10 14
M  V30 14 2 11 15
M  V30 15 1 15 16
M  V30 16 1 12 15
M  V30 17 2 13 14
M  V30 18 1 4 17
M  V30 19 1 7 18
M  V30 20 1 8 19
M  V30 21 1 9 20
M  V30 22 1 10 21
M  V30 23 1 11 22
M  V30 24 1 12 23
M  V30 25 1 13 24
M  V30 26 1 14 25
M  V30 27 1 16 26
M  V30 28 1 16 27
M  V30 END BOND
M  V30 END CTAB
M  END
>  <Structure No>
8066

>  <LogS>
-1.69

>  <MMFF94 Energy>
-11.957

$$$$
Compound 8067
Actelion Java MolfileCreator 2.0

  0  0  0  0  0  0              0 V3000
M  V30 BEGIN CTAB
M  V30 COUNTS 24 26 0 0 0
M  V30 BEGIN ATOM
M  V30 1 O 3.305 0.8053 3.0628 0
M  V30 2 C 2.6917 0.2532 2.1123 0
M  V30 3 O 1.5221 0.7446 1.7111 0
M  V30 4 C 3.2424 -0.8697 1.4863 0
M  V30 5 C 0.8213 0.2104 0.7132 0
M  V30 6 C 2.5497 -1.4685 0.4353 0
M  V30 7 C -0.4129 0.7837 0.3399 0
M  V30 8 C 1.3227 -0.9368 0.0293 0
M  V30 9 O -0.8788 1.9126 1.0327 0
M  V30 10 C -1.1103 0.1791 -0.7199 0
M  V30 11 C 0.5923 -1.5125 -1.0279 0
M  V30 12 C -2.1022 2.5866 0.7593 0
M  V30 13 O -2.2634 0.527 -1.2402 0
M  V30 14 C -0.6199 -0.9232 -1.3708 0
M  V30 15 C -2.5431 -0.3176 -2.2156 0
M  V30 16 C -1.5319 -1.2611 -2.3427 0
M  V30 17 H 4.1942 -1.2728 1.81 0
M  V30 18 H 2.9687 -2.3389 -0.0553 0
M  V30 19 H 0.9543 -2.3838 -1.5609 0
M  V30 20 H -2.2097 3.4394 1.4606 0
M  V30 21 H -2.0977 2.9818 -0.2783 0
M  V30 22 H -2.9602 1.8975 0.9078 0
M  V30 23 H -3.4377 -0.2693 -2.8219 0
M  V30 24 H -1.4764 -2.0785 -3.0494 0
M  V30 END ATOM
M  V30 BEGIN BOND
M  V30 1 2 1 2
M  V30 2 1 2 3
M  V30 3 1 2 4
M  V30 4 1 3 5
M  V30 5 2 4 6
M  V30 6 2 5 7
M  V30 7 1 5 8
M  V30 8 1 7 9
M  V30 9 1 7 10
M  V30 10 2 8 11
M  V30 11 1 9 12
M  V30 12 1 10 13
M  V30 13 2 10 14
M  V30 14 1 13 15
M  V30 15 1 14 16
M  V30 16 1 6 8
M  V30 17 1 11 14
M  V30 18 2 15 16
M  V30 19 1 4 17
M  V30 20 1 6 18
M  V30 21 1 11 19
M  V30 22 1 12 20
M  V30 23 1 12 21
M  V30 24 1 12 22
M  V30 25 1 15 23
M  V30 26 1 16 24
M  V30 END BOND
M  V30 END CTAB
M  END
>  <Structure No>
8067

>  <LogS>
-3.52

>  <MMFF94 Energy>
52.337

$$$$
Compound 8068
Actelion Java MolfileCreator 2.0

  0  0  0  0  0  0              0 V3000
M  V30 BEGIN CTAB
M  V30 COUNTS 28 30 0 0 0
M  V30 BEGIN ATOM
M  V30 1 O 4.419 -0.8826 0.4813 0
M  V30 2 C 3.1922 -0.6622 0.2913 0
M  V30 3 N 2.7324 0.6136 0.1423 0
M  V30 4 C 2.32 -1.7385 0.1978 0
M  V30 5 O 3.6262 1.6706 0.1653 0
M  V30 6 C 1.3937 0.8669 -0.0235 0
M  V30 7 C 0.9535 -1.5293 -0.0123 0
M  V30 8 C 0.4402 -0.1962 0.0176 0
M  V30 9 C 0.9583 2.1822 -0.2598 0
M  V30 10 C 0.1501 -2.7433 -0.4122 0
M  V30 11 C -0.954 0.1426 0.047 0
M  V30 12 C -0.3882 2.4709 -0.4266 0
M  V30 13 C -1.3501 1.4771 -0.2472 0
M  V30 14 C -1.9652 -0.7567 0.4611 0
M  V30 15 C -2.711 1.8211 -0.3036 0
M  V30 16 C -3.3142 -0.3976 0.4162 0
M  V30 17 C -3.6879 0.8789 0.0072 0
M  V30 18 H 2.7195 -2.7462 0.2351 0
M  V30 19 H 4.6237 1.5366 0.283 0
M  V30 20 H 1.6647 2.9981 -0.3417 0
M  V30 21 H -0.2016 -3.2857 0.4898 0
M  V30 22 H -0.6961 -2.4711 -1.0758 0
M  V30 23 H 0.7773 -3.4469 -1.001 0
M  V30 24 H -0.6824 3.4934 -0.6341 0
M  V30 25 H -1.7367 -1.7154 0.891 0
M  V30 26 H -3.0178 2.829 -0.5581 0
M  V30 27 H -4.0723 -1.1069 0.7229 0
M  V30 28 H -4.7344 1.1531 -0.0232 0
M  V30 END ATOM
M  V30 BEGIN BOND
M  V30 1 2 1 2
M  V30 2 1 2 3
M  V30 3 1 2 4
M  V30 4 1 3 5
M  V30 5 1 3 6
M  V30 6 2 4 7
M  V30 7 2 6 8
M  V30 8 1 6 9
M  V30 9 1 7 10
M  V30 10 1 8 11
M  V30 11 2 9 12
M  V30 12 1 11 13
M  V30 13 2 11 14
M  V30 14 2 13 15
M  V30 15 1 14 16
M  V30 16 1 15 17
M  V30 17 1 7 8
M  V30 18 1 12 13
M  V30 19 2 16 17
M  V30 20 1 4 18
M  V30 21 1 5 19
M  V30 22 1 9 20
M  V30 23 1 10 21
M  V30 24 1 10 22
M  V30 25 1 10 23
M  V30 26 1 12 24
M  V30 27 1 14 25
M  V30 28 1 15 26
M  V30 29 1 16 27
M  V30 30 1 17 28
M  V30 END BOND
M  V30 END CTAB
M  END
>  <Structure No>
8068

>  <LogS>
-4.0

>  <MMFF94 Energy>
80.961

$$$$
Compound 8069
Actelion Java MolfileCreator 2.0

  0  0  0  0  0  0              0 V3000
M  V30 BEGIN CTAB
M  V30 COUNTS 24 24 0 0 0
M  V30 BEGIN ATOM
M  V30 1 S 2.2502 -2.8342 -0.6663 0
M  V30 2 C 1.7825 -1.6482 0.367 0
M  V30 3 S 2.8761 -1.1828 1.704 0
M  V30 4 O 0.5529 -0.99 0.2417 0
M  V30 5 C 3.6719 0.1461 0.7468 0
M  V30 6 C -0.3912 -1.2587 -0.7902 0
M  V30 7 C 4.6958 0.8219 1.5953 0
M  V30 8 C -1.5765 -0.3545 -0.621 0
M  V30 9 O 5.8788 0.3923 1.6233 0
M  V30 10 O 4.3346 1.8976 2.3965 0 CHG=-1
M  V30 11 C -2.6693 -0.7575 0.1642 0
M  V30 12 C -1.5729 0.9297 -1.1897 0
M  V30 13 C -3.7561 0.1024 0.3519 0
M  V30 14 C -2.6617 1.7867 -0.9995 0
M  V30 15 C -3.7534 1.3726 -0.2313 0
M  V30 16 H 4.1566 -0.279 -0.1581 0
M  V30 17 H 2.9086 0.8883 0.4294 0
M  V30 18 H -0.7113 -2.3224 -0.7394 0
M  V30 19 H 0.0781 -1.0858 -1.7835 0
M  V30 20 H -2.6795 -1.735 0.6302 0
M  V30 21 H -0.7286 1.2665 -1.7784 0
M  V30 22 H -4.5986 -0.2141 0.953 0
M  V30 23 H -2.6571 2.7735 -1.4442 0
M  V30 24 H -4.5946 2.0376 -0.0839 0
M  V30 END ATOM
M  V30 BEGIN BOND
M  V30 1 2 1 2
M  V30 2 1 2 3
M  V30 3 1 2 4
M  V30 4 1 3 5
M  V30 5 1 4 6
M  V30 6 1 5 7
M  V30 7 1 6 8
M  V30 8 2 7 9
M  V30 9 1 7 10
M  V30 10 2 8 11
M  V30 11 1 8 12
M  V30 12 1 11 13
M  V30 13 2 12 14
M  V30 14 2 13 15
M  V30 15 1 14 15
M  V30 16 1 5 16
M  V30 17 1 5 17
M  V30 18 1 6 18
M  V30 19 1 6 19
M  V30 20 1 11 20
M  V30 21 1 12 21
M  V30 22 1 13 22
M  V30 23 1 14 23
M  V30 24 1 15 24
M  V30 END BOND
M  V30 END CTAB
M  END
>  <Structure No>
8069

>  <LogS>
-2.68

>  <MMFF94 Energy>
33.961

$$$$
Compound 8070
Actelion Java MolfileCreator 2.0

  0  0  0  0  0  0              0 V3000
M  V30 BEGIN CTAB
M  V30 COUNTS 38 37 0 0 0
M  V30 BEGIN ATOM
M  V30 1 O -2.5387 -2.0623 2.6975 0
M  V30 2 N -3.1877 -2.5212 1.7344 0 CHG=1
M  V30 3 O -3.5277 -1.7282 0.6537 0
M  V30 4 O -3.6039 -3.8303 1.7646 0 CHG=-1
M  V30 5 C -3.1048 -0.369 0.5168 0 CFG=2
M  V30 6 C -4.2411 0.4226 -0.1377 0
M  V30 7 C -1.8243 -0.2913 -0.3388 0
M  V30 8 O -3.9275 1.8113 -0.1575 0
M  V30 9 C -0.6261 -0.9741 0.3405 0
M  V30 10 N -4.7913 2.7422 -0.6965 0 CHG=1
M  V30 11 C 0.6658 -0.857 -0.4851 0
M  V30 12 O -4.4749 3.9482 -0.6939 0
M  V30 13 O -5.997 2.3581 -1.2379 0 CHG=-1
M  V30 14 C 1.3357 0.5203 -0.3383 0
M  V30 15 C 2.5729 0.6815 -1.2401 0
M  V30 16 C 3.7233 -0.3067 -0.9594 0
M  V30 17 C 4.253 -0.2943 0.485 0
M  V30 18 C 4.8279 1.0601 0.8971 0
M  V30 19 H -2.9175 0.0814 1.517 0
M  V30 20 H -5.1748 0.2714 0.4464 0
M  V30 21 H -4.4107 0.0612 -1.1756 0
M  V30 22 H -1.5813 0.7762 -0.5198 0
M  V30 23 H -2.0106 -0.7725 -1.3242 0
M  V30 24 H -0.8534 -2.0552 0.4572 0
M  V30 25 H -0.4663 -0.5487 1.3557 0
M  V30 26 H 1.3672 -1.6364 -0.1187 0
M  V30 27 H 0.4533 -1.0692 -1.5559 0
M  V30 28 H 0.616 1.3144 -0.6257 0
M  V30 29 H 1.6071 0.7017 0.7228 0
M  V30 30 H 2.9517 1.7214 -1.1435 0
M  V30 31 H 2.2593 0.5604 -2.3 0
M  V30 32 H 4.5627 -0.0684 -1.6484 0
M  V30 33 H 3.3963 -1.3371 -1.2132 0
M  V30 34 H 5.0621 -1.0525 0.5622 0
M  V30 35 H 3.4574 -0.5983 1.1971 0
M  V30 36 H 5.3151 0.9676 1.8906 0
M  V30 37 H 4.0223 1.8194 0.9777 0
M  V30 38 H 5.5866 1.4005 0.1608 0
M  V30 END ATOM
M  V30 BEGIN BOND
M  V30 1 2 1 2
M  V30 2 1 2 3
M  V30 3 1 2 4
M  V30 4 1 3 5
M  V30 5 1 5 6
M  V30 6 1 5 7
M  V30 7 1 6 8
M  V30 8 1 7 9
M  V30 9 1 8 10
M  V30 10 1 9 11
M  V30 11 2 10 12
M  V30 12 1 10 13
M  V30 13 1 11 14
M  V30 14 1 14 15
M  V30 15 1 15 16
M  V30 16 1 16 17
M  V30 17 1 17 18
M  V30 18 1 5 19
M  V30 19 1 6 20
M  V30 20 1 6 21
M  V30 21 1 7 22
M  V30 22 1 7 23
M  V30 23 1 9 24
M  V30 24 1 9 25
M  V30 25 1 11 26
M  V30 26 1 11 27
M  V30 27 1 14 28
M  V30 28 1 14 29
M  V30 29 1 15 30
M  V30 30 1 15 31
M  V30 31 1 16 32
M  V30 32 1 16 33
M  V30 33 1 17 34
M  V30 34 1 17 35
M  V30 35 1 18 36
M  V30 36 1 18 37
M  V30 37 1 18 38
M  V30 END BOND
M  V30 BEGIN COLLECTION
M  V30 MDLV30/STEABS ATOMS=(1 5)
M  V30 END COLLECTION
M  V30 END CTAB
M  END
>  <Structure No>
8070

>  <LogS>
-5.72

>  <MMFF94 Energy>
-27.634

$$$$
Compound 8071
Actelion Java MolfileCreator 2.0

  0  0  0  0  0  0              0 V3000
M  V30 BEGIN CTAB
M  V30 COUNTS 31 31 0 0 0
M  V30 BEGIN ATOM
M  V30 1 O -3.4256 3.3458 -0.2387 0
M  V30 2 C -2.3934 2.6482 -0.0545 0
M  V30 3 N -1.3193 2.6984 -0.9882 0
M  V30 4 N -2.2778 1.8339 1.1079 0
M  V30 5 C -0.1607 1.8769 -0.8117 0
M  V30 6 C -1.1305 1.0011 1.3017 0
M  V30 7 O 0.8531 2.1147 -1.5203 0
M  V30 8 C -0.1883 0.6768 0.1387 0
M  V30 9 O -0.9628 0.4628 2.4303 0
M  V30 10 C -0.7755 -0.5302 -0.6516 0
M  V30 11 C 1.2517 0.3922 0.7012 0
M  V30 12 C -0.9519 -1.8177 0.1775 0
M  V30 13 C 2.2436 -0.2846 -0.2717 0
M  V30 14 C -1.4248 -2.973 -0.6999 0
M  V30 15 C 3.6391 -0.3666 0.3414 0
M  V30 16 H -1.3519 3.3861 -1.7745 0
M  V30 17 H -3.0101 1.8887 1.8513 0
M  V30 18 H -0.1358 -0.7445 -1.5353 0
M  V30 19 H -1.7738 -0.2461 -1.0554 0
M  V30 20 H 1.1899 -0.268 1.5931 0
M  V30 21 H 1.6872 1.3531 1.0563 0
M  V30 22 H -1.708 -1.6548 0.9745 0
M  V30 23 H 0.0026 -2.1123 0.6589 0
M  V30 24 H 2.3206 0.2644 -1.2292 0
M  V30 25 H 1.9114 -1.3184 -0.4998 0
M  V30 26 H -2.3959 -2.7225 -1.1778 0
M  V30 27 H -0.673 -3.1912 -1.488 0
M  V30 28 H -1.5596 -3.8823 -0.0772 0
M  V30 29 H 4.328 -0.8739 -0.3664 0
M  V30 30 H 3.6119 -0.9479 1.2877 0
M  V30 31 H 4.0304 0.6523 0.5475 0
M  V30 END ATOM
M  V30 BEGIN BOND
M  V30 1 2 1 2
M  V30 2 1 2 3
M  V30 3 1 2 4
M  V30 4 1 3 5
M  V30 5 1 4 6
M  V30 6 2 5 7
M  V30 7 1 5 8
M  V30 8 2 6 9
M  V30 9 1 8 10
M  V30 10 1 8 11
M  V30 11 1 10 12
M  V30 12 1 11 13
M  V30 13 1 12 14
M  V30 14 1 13 15
M  V30 15 1 6 8
M  V30 16 1 3 16
M  V30 17 1 4 17
M  V30 18 1 10 18
M  V30 19 1 10 19
M  V30 20 1 11 20
M  V30 21 1 11 21
M  V30 22 1 12 22
M  V30 23 1 12 23
M  V30 24 1 13 24
M  V30 25 1 13 25
M  V30 26 1 14 26
M  V30 27 1 14 27
M  V30 28 1 14 28
M  V30 29 1 15 29
M  V30 30 1 15 30
M  V30 31 1 15 31
M  V30 END BOND
M  V30 END CTAB
M  END
>  <Structure No>
8071

>  <LogS>
-2.53

>  <MMFF94 Energy>
-127.44

$$$$
Compound 8072
Actelion Java MolfileCreator 2.0

  0  0  0  0  0  0              0 V3000
M  V30 BEGIN CTAB
M  V30 COUNTS 22 23 0 0 0
M  V30 BEGIN ATOM
M  V30 1 O 4.3688 0.5655 1.3738 0
M  V30 2 N 3.9487 0.1905 0.2593 0 CHG=1
M  V30 3 O 4.8619 -0.1087 -0.7257 0 CHG=-1
M  V30 4 C 2.5358 0.0728 0.0076 0
M  V30 5 C 1.5994 0.3782 1.0134 0
M  V30 6 C 2.0732 -0.3501 -1.2503 0
M  V30 7 C 0.2196 0.2622 0.7642 0
M  V30 8 C 0.7044 -0.4671 -1.5037 0
M  V30 9 C -0.7459 0.5562 1.7415 0
M  V30 10 C -0.2297 -0.1632 -0.5039 0
M  V30 11 O -0.408 0.9392 2.8938 0
M  V30 12 N -2.0642 0.4268 1.4455 0
M  V30 13 N -1.5662 -0.2766 -0.7481 0
M  V30 14 C -2.4803 0.0194 0.2175 0
M  V30 15 C -3.9431 -0.1191 -0.0618 0
M  V30 16 H 1.9457 0.7048 1.9864 0
M  V30 17 H 2.771 -0.5913 -2.0416 0
M  V30 18 H 0.3734 -0.7951 -2.4814 0
M  V30 19 H -1.9007 -0.5943 -1.6871 0
M  V30 20 H -4.5429 0.2446 0.7994 0
M  V30 21 H -4.2103 0.4764 -0.9598 0
M  V30 22 H -4.1863 -1.1865 -0.2448 0
M  V30 END ATOM
M  V30 BEGIN BOND
M  V30 1 2 1 2
M  V30 2 1 2 3
M  V30 3 1 2 4
M  V30 4 2 4 5
M  V30 5 1 4 6
M  V30 6 1 5 7
M  V30 7 2 6 8
M  V30 8 1 7 9
M  V30 9 2 7 10
M  V30 10 2 9 11
M  V30 11 1 9 12
M  V30 12 1 10 13
M  V30 13 2 12 14
M  V30 14 1 14 15
M  V30 15 1 8 10
M  V30 16 1 13 14
M  V30 17 1 5 16
M  V30 18 1 6 17
M  V30 19 1 8 18
M  V30 20 1 13 19
M  V30 21 1 15 20
M  V30 22 1 15 21
M  V30 23 1 15 22
M  V30 END BOND
M  V30 END CTAB
M  END
>  <Structure No>
8072

>  <LogS>
-2.22

>  <MMFF94 Energy>
31.16

$$$$
Compound 8073
Actelion Java MolfileCreator 2.0

  0  0  0  0  0  0              0 V3000
M  V30 BEGIN CTAB
M  V30 COUNTS 48 48 0 0 0
M  V30 BEGIN ATOM
M  V30 1 O -0.2367 -1.1841 1.6581 0
M  V30 2 C 0.7744 -1.7719 1.1854 0
M  V30 3 O 2.0102 -1.117 1.1285 0
M  V30 4 C 0.666 -3.1714 0.7275 0
M  V30 5 C 2.1762 0.2636 1.4464 0
M  V30 6 C -0.4716 -3.6561 0.0291 0
M  V30 7 C 1.7035 -4.0604 1.0552 0
M  V30 8 C 1.6288 1.1438 0.3144 0
M  V30 9 C -1.5254 -2.7512 -0.4823 0
M  V30 10 C -0.5655 -5.0302 -0.2565 0
M  V30 11 C 1.6015 -5.417 0.7432 0
M  V30 12 C 1.5793 2.6367 0.6846 0
M  V30 13 O -2.7211 -3.1495 -0.544 0
M  V30 14 O -1.1794 -1.4768 -0.9492 0
M  V30 15 C 0.464 -5.9028 0.1001 0
M  V30 16 C 2.9477 3.2705 0.9899 0
M  V30 17 C -2.1297 -0.5135 -1.398 0
M  V30 18 C 3.8939 3.2524 -0.2097 0
M  V30 19 C -2.8247 0.1485 -0.202 0
M  V30 20 C -3.7726 1.2873 -0.6314 0
M  V30 21 C -3.1821 2.6913 -0.4163 0
M  V30 22 C -2.0013 2.9904 -1.3368 0
M  V30 23 H 1.6687 0.4955 2.4086 0
M  V30 24 H 3.2615 0.4568 1.5718 0
M  V30 25 H 2.5816 -3.7094 1.5838 0
M  V30 26 H 2.2315 0.9901 -0.605 0
M  V30 27 H 0.5925 0.823 0.076 0
M  V30 28 H -1.4231 -5.425 -0.7876 0
M  V30 29 H 2.401 -6.095 1.0121 0
M  V30 30 H 0.9219 2.7652 1.5721 0
M  V30 31 H 1.1049 3.1946 -0.1517 0
M  V30 32 H 0.3858 -6.9562 -0.1359 0
M  V30 33 H 2.7792 4.3296 1.2824 0
M  V30 34 H 3.4283 2.7678 1.8551 0
M  V30 35 H -2.8768 -0.9939 -2.0672 0
M  V30 36 H -1.589 0.2508 -1.9909 0
M  V30 37 H 4.2211 2.2163 -0.4346 0
M  V30 38 H 3.3986 3.6887 -1.103 0
M  V30 39 H 4.797 3.8549 0.0236 0
M  V30 40 H -2.0612 0.5212 0.5145 0
M  V30 41 H -3.417 -0.6277 0.3288 0
M  V30 42 H -4.695 1.2206 -0.0136 0
M  V30 43 H -4.0946 1.1683 -1.6895 0
M  V30 44 H -2.8667 2.8136 0.6428 0
M  V30 45 H -3.9785 3.4406 -0.6162 0
M  V30 46 H -1.1282 2.3645 -1.0632 0
M  V30 47 H -2.277 2.8056 -2.3966 0
M  V30 48 H -1.7078 4.0556 -1.2273 0
M  V30 END ATOM
M  V30 BEGIN BOND
M  V30 1 2 1 2
M  V30 2 1 2 3
M  V30 3 1 2 4
M  V30 4 1 3 5
M  V30 5 2 4 6
M  V30 6 1 4 7
M  V30 7 1 5 8
M  V30 8 1 6 9
M  V30 9 1 6 10
M  V30 10 2 7 11
M  V30 11 1 8 12
M  V30 12 2 9 13
M  V30 13 1 9 14
M  V30 14 2 10 15
M  V30 15 1 12 16
M  V30 16 1 14 17
M  V30 17 1 16 18
M  V30 18 1 17 19
M  V30 19 1 19 20
M  V30 20 1 20 21
M  V30 21 1 21 22
M  V30 22 1 11 15
M  V30 23 1 5 23
M  V30 24 1 5 24
M  V30 25 1 7 25
M  V30 26 1 8 26
M  V30 27 1 8 27
M  V30 28 1 10 28
M  V30 29 1 11 29
M  V30 30 1 12 30
M  V30 31 1 12 31
M  V30 32 1 15 32
M  V30 33 1 16 33
M  V30 34 1 16 34
M  V30 35 1 17 35
M  V30 36 1 17 36
M  V30 37 1 18 37
M  V30 38 1 18 38
M  V30 39 1 18 39
M  V30 40 1 19 40
M  V30 41 1 19 41
M  V30 42 1 20 42
M  V30 43 1 20 43
M  V30 44 1 21 44
M  V30 45 1 21 45
M  V30 46 1 22 46
M  V30 47 1 22 47
M  V30 48 1 22 48
M  V30 END BOND
M  V30 END CTAB
M  END
>  <Structure No>
8073

>  <LogS>
-3.49

>  <MMFF94 Energy>
16.706

$$$$
Compound 8074
Actelion Java MolfileCreator 2.0

  0  0  0  0  0  0              0 V3000
M  V30 BEGIN CTAB
M  V30 COUNTS 34 34 0 0 0
M  V30 BEGIN ATOM
M  V30 1 O 0.7903 0.7112 -1.0275 0
M  V30 2 C -0.1482 -0.1316 -1.0582 0
M  V30 3 O -1.3603 0.1355 -0.4161 0
M  V30 4 N 0.0159 -1.3723 -1.7538 0
M  V30 5 C -1.6006 1.342 0.3001 0
M  V30 6 C 1.2599 -1.7435 -2.4229 0
M  V30 7 C -2.9889 1.3118 0.869 0
M  V30 8 C 2.3034 -2.1039 -1.4093 0
M  V30 9 C -4.0748 1.7822 0.1121 0
M  V30 10 C -3.2231 0.7517 2.1358 0
M  V30 11 O 2.2387 -3.2203 -0.8265 0
M  V30 12 N 3.3417 -1.1735 -1.0752 0
M  V30 13 C -5.3729 1.719 0.6288 0
M  V30 14 C -4.5228 0.6903 2.649 0
M  V30 15 C 4.3219 -1.4689 -0.0318 0
M  V30 16 C -5.5965 1.1758 1.8972 0
M  V30 17 C 5.2459 -0.3062 0.1685 0
M  V30 18 O 6.4097 -0.3378 -0.3126 0
M  V30 19 N 4.8 0.8539 0.8702 0
M  V30 20 H -0.7919 -2.0338 -1.7915 0
M  V30 21 H -1.486 2.2126 -0.3824 0
M  V30 22 H -0.8546 1.4475 1.1184 0
M  V30 23 H 1.6054 -0.9105 -3.0722 0
M  V30 24 H 1.0772 -2.6229 -3.0774 0
M  V30 25 H -3.9164 2.1962 -0.876 0
M  V30 26 H -2.401 0.3634 2.7246 0
M  V30 27 H 3.3836 -0.2618 -1.5862 0
M  V30 28 H -6.2062 2.0873 0.0442 0
M  V30 29 H -4.6979 0.2631 3.628 0
M  V30 30 H 4.9061 -2.3705 -0.3173 0
M  V30 31 H 3.7953 -1.6809 0.9234 0
M  V30 32 H -6.602 1.1259 2.2951 0
M  V30 33 H 3.8289 0.9036 1.2506 0
M  V30 34 H 5.4394 1.6686 1.0028 0
M  V30 END ATOM
M  V30 BEGIN BOND
M  V30 1 2 1 2
M  V30 2 1 2 3
M  V30 3 1 2 4
M  V30 4 1 3 5
M  V30 5 1 4 6
M  V30 6 1 5 7
M  V30 7 1 6 8
M  V30 8 2 7 9
M  V30 9 1 7 10
M  V30 10 2 8 11
M  V30 11 1 8 12
M  V30 12 1 9 13
M  V30 13 2 10 14
M  V30 14 1 12 15
M  V30 15 2 13 16
M  V30 16 1 15 17
M  V30 17 2 17 18
M  V30 18 1 17 19
M  V30 19 1 14 16
M  V30 20 1 4 20
M  V30 21 1 5 21
M  V30 22 1 5 22
M  V30 23 1 6 23
M  V30 24 1 6 24
M  V30 25 1 9 25
M  V30 26 1 10 26
M  V30 27 1 12 27
M  V30 28 1 13 28
M  V30 29 1 14 29
M  V30 30 1 15 30
M  V30 31 1 15 31
M  V30 32 1 16 32
M  V30 33 1 19 33
M  V30 34 1 19 34
M  V30 END BOND
M  V30 END CTAB
M  END
>  <Structure No>
8074

>  <LogS>
-2.35

>  <MMFF94 Energy>
-41.304

$$$$
Compound 8075
Actelion Java MolfileCreator 2.0

  0  0  0  0  0  0              0 V3000
M  V30 BEGIN CTAB
M  V30 COUNTS 54 54 0 0 0
M  V30 BEGIN ATOM
M  V30 1 Cl 3.18 3.1005 0.0 0
M  V30 2 C 4.3681 1.8061 0.0313 0
M  V30 3 C 3.959 0.4656 -0.0397 0
M  V30 4 C 5.7273 2.1275 0.125 0
M  V30 5 O 2.5877 0.1826 -0.1382 0
M  V30 6 C 4.933 -0.5504 -0.0116 0
M  V30 7 C 6.6988 1.1096 0.1505 0
M  V30 8 C 2.0376 -1.1283 -0.237 0
M  V30 9 C 6.2887 -0.2258 0.0831 0
M  V30 10 O 8.072 1.3815 0.2408 0
M  V30 11 C 0.5181 -1.0297 -0.3478 0
M  V30 12 C 8.6302 2.69 0.3071 0
M  V30 13 C -0.1186 -2.4213 -0.4816 0
M  V30 14 C -1.6542 -2.3654 -0.4866 0
M  V30 15 C -2.2182 -1.8459 -1.8192 0
M  V30 16 C -3.7539 -1.7861 -1.8346 0
M  V30 17 C -4.3039 -0.7699 -0.8522 0
M  V30 18 C -4.7913 -1.1078 0.3732 0
M  V30 19 C -4.2797 0.6382 -1.3003 0
M  V30 20 O -4.7756 -2.4246 0.8471 0
M  V30 21 C -5.3584 -0.0841 1.3272 0
M  V30 22 O -5.2283 1.0741 -2.0073 0
M  V30 23 C -3.0913 1.5141 -1.0183 0
M  V30 24 C -4.3243 0.2983 2.3814 0
M  V30 25 C -3.5097 2.8606 -0.4338 0
M  V30 26 H 6.0152 3.1687 0.1764 0
M  V30 27 H 4.6538 -1.5939 -0.063 0
M  V30 28 H 2.3078 -1.7134 0.6691 0
M  V30 29 H 2.4428 -1.6333 -1.1411 0
M  V30 30 H 7.0267 -1.0178 0.1024 0
M  V30 31 H 0.1229 -0.522 0.5592 0
M  V30 32 H 0.2702 -0.4089 -1.2339 0
M  V30 33 H 9.7348 2.6104 0.3693 0
M  V30 34 H 8.2603 3.2178 1.2116 0
M  V30 35 H 8.3661 3.2642 -0.606 0
M  V30 36 H 0.1995 -3.0437 0.3832 0
M  V30 37 H 0.2455 -2.9197 -1.4066 0
M  V30 38 H -2.0007 -1.7313 0.3576 0
M  V30 39 H -2.0371 -3.3952 -0.3191 0
M  V30 40 H -1.888 -2.523 -2.6369 0
M  V30 41 H -1.8168 -0.837 -2.0443 0
M  V30 42 H -4.188 -2.7965 -1.705 0
M  V30 43 H -4.0662 -1.4814 -2.8575 0
M  V30 44 H -4.3511 -3.2066 0.3705 0
M  V30 45 H -6.2387 -0.5273 1.8405 0
M  V30 46 H -5.7237 0.8261 0.8077 0
M  V30 47 H -2.5377 1.6839 -1.9664 0
M  V30 48 H -2.4021 1.0094 -0.3071 0
M  V30 49 H -3.416 0.7195 1.904 0
M  V30 50 H -4.0368 -0.5925 2.9799 0
M  V30 51 H -4.7535 1.0615 3.0642 0
M  V30 52 H -4.1462 3.4159 -1.155 0
M  V30 53 H -2.6052 3.4688 -0.2209 0
M  V30 54 H -4.0712 2.718 0.5128 0
M  V30 END ATOM
M  V30 BEGIN BOND
M  V30 1 1 1 2
M  V30 2 2 2 3
M  V30 3 1 2 4
M  V30 4 1 3 5
M  V30 5 1 3 6
M  V30 6 2 4 7
M  V30 7 1 5 8
M  V30 8 2 6 9
M  V30 9 1 7 10
M  V30 10 1 8 11
M  V30 11 1 10 12
M  V30 12 1 11 13
M  V30 13 1 13 14
M  V30 14 1 14 15
M  V30 15 1 15 16
M  V30 16 1 16 17
M  V30 17 2 17 18
M  V30 18 1 17 19
M  V30 19 1 18 20
M  V30 20 1 18 21
M  V30 21 2 19 22
M  V30 22 1 19 23
M  V30 23 1 21 24
M  V30 24 1 23 25
M  V30 25 1 7 9
M  V30 26 1 4 26
M  V30 27 1 6 27
M  V30 28 1 8 28
M  V30 29 1 8 29
M  V30 30 1 9 30
M  V30 31 1 11 31
M  V30 32 1 11 32
M  V30 33 1 12 33
M  V30 34 1 12 34
M  V30 35 1 12 35
M  V30 36 1 13 36
M  V30 37 1 13 37
M  V30 38 1 14 38
M  V30 39 1 14 39
M  V30 40 1 15 40
M  V30 41 1 15 41
M  V30 42 1 16 42
M  V30 43 1 16 43
M  V30 44 1 20 44
M  V30 45 1 21 45
M  V30 46 1 21 46
M  V30 47 1 23 47
M  V30 48 1 23 48
M  V30 49 1 24 49
M  V30 50 1 24 50
M  V30 51 1 24 51
M  V30 52 1 25 52
M  V30 53 1 25 53
M  V30 54 1 25 54
M  V30 END BOND
M  V30 END CTAB
M  END
>  <Structure No>
8075

>  <LogS>
-5.27

>  <MMFF94 Energy>
50.386

$$$$
Compound 8076
Actelion Java MolfileCreator 2.0

  0  0  0  0  0  0              0 V3000
M  V30 BEGIN CTAB
M  V30 COUNTS 31 31 0 0 0
M  V30 BEGIN ATOM
M  V30 1 O -3.2665 3.426 0.6367 0
M  V30 2 C -2.7196 2.3421 0.3017 0
M  V30 3 N -2.7926 1.2081 1.1604 0
M  V30 4 N -2.0574 2.2327 -0.954 0
M  V30 5 C -2.1346 -0.0145 0.8129 0
M  V30 6 C -1.395 1.0196 -1.3239 0
M  V30 7 O -2.3976 -1.046 1.4865 0
M  V30 8 C -1.0584 -0.045 -0.2757 0
M  V30 9 O -1.0115 0.8849 -2.5182 0
M  V30 10 C 0.295 0.3304 0.3981 0
M  V30 11 C -1.0208 -1.4568 -0.9654 0
M  V30 12 C 1.4943 0.4184 -0.5708 0
M  V30 13 C -0.37 -2.5931 -0.1596 0
M  V30 14 C 2.8145 0.7142 0.158 0
M  V30 15 C 3.3664 -0.5051 0.897 0
M  V30 16 H -3.3789 1.2532 2.0244 0
M  V30 17 H -2.1063 3.0248 -1.6338 0
M  V30 18 H 0.5132 -0.3988 1.2055 0
M  V30 19 H 0.1875 1.3197 0.8978 0
M  V30 20 H -0.4645 -1.4055 -1.9257 0
M  V30 21 H -2.059 -1.7599 -1.2262 0
M  V30 22 H 1.3167 1.2479 -1.2877 0
M  V30 23 H 1.6024 -0.5135 -1.1629 0
M  V30 24 H -0.8356 -2.7302 0.834 0
M  V30 25 H -0.4865 -3.545 -0.7194 0
M  V30 26 H 0.7168 -2.4171 -0.0274 0
M  V30 27 H 2.6807 1.5559 0.8721 0
M  V30 28 H 3.5683 1.031 -0.5953 0
M  V30 29 H 3.4686 -1.3668 0.2035 0
M  V30 30 H 4.3692 -0.2635 1.308 0
M  V30 31 H 2.7074 -0.789 1.7428 0
M  V30 END ATOM
M  V30 BEGIN BOND
M  V30 1 2 1 2
M  V30 2 1 2 3
M  V30 3 1 2 4
M  V30 4 1 3 5
M  V30 5 1 4 6
M  V30 6 2 5 7
M  V30 7 1 5 8
M  V30 8 2 6 9
M  V30 9 1 8 10
M  V30 10 1 8 11
M  V30 11 1 10 12
M  V30 12 1 11 13
M  V30 13 1 12 14
M  V30 14 1 14 15
M  V30 15 1 6 8
M  V30 16 1 3 16
M  V30 17 1 4 17
M  V30 18 1 10 18
M  V30 19 1 10 19
M  V30 20 1 11 20
M  V30 21 1 11 21
M  V30 22 1 12 22
M  V30 23 1 12 23
M  V30 24 1 13 24
M  V30 25 1 13 25
M  V30 26 1 13 26
M  V30 27 1 14 27
M  V30 28 1 14 28
M  V30 29 1 15 29
M  V30 30 1 15 30
M  V30 31 1 15 31
M  V30 END BOND
M  V30 END CTAB
M  END
>  <Structure No>
8076

>  <LogS>
-1.67

>  <MMFF94 Energy>
-128.58

$$$$
Compound 8077
Actelion Java MolfileCreator 2.0

  0  0  0  0  0  0              0 V3000
M  V30 BEGIN CTAB
M  V30 COUNTS 23 23 0 0 0
M  V30 BEGIN ATOM
M  V30 1 O 0.2455 -2.7853 -0.9005 0
M  V30 2 C 0.899 -2.2246 0.0186 0
M  V30 3 O 1.618 -3.0044 0.9165 0 CHG=-1
M  V30 4 C 0.8894 -0.748 0.154 0
M  V30 5 C -0.3428 -0.0417 0.157 0
M  V30 6 C 2.1029 -0.0287 0.3159 0
M  V30 7 C -0.3298 1.3575 0.3588 0
M  V30 8 C -1.6294 -0.7658 0.0201 0
M  V30 9 C 3.4426 -0.6613 0.2269 0
M  V30 10 C 2.0423 1.3562 0.5158 0
M  V30 11 N 0.8522 2.0018 0.5277 0
M  V30 12 C -1.5907 2.1722 0.4104 0
M  V30 13 O -1.9591 -1.6165 0.8891 0
M  V30 14 C -2.5466 -0.5056 -1.1327 0
M  V30 15 O 3.6309 -1.6839 -0.4832 0
M  V30 16 O 4.526 -0.0937 0.8879 0 CHG=-1
M  V30 17 H 2.9479 1.9366 0.638 0
M  V30 18 H -2.3378 1.6909 1.0759 0
M  V30 19 H -1.3805 3.187 0.8105 0
M  V30 20 H -2.0107 2.2809 -0.6107 0
M  V30 21 H -2.8885 -1.4704 -1.5623 0
M  V30 22 H -2.0248 0.0681 -1.9276 0
M  V30 23 H -3.4304 0.0683 -0.785 0
M  V30 END ATOM
M  V30 BEGIN BOND
M  V30 1 2 1 2
M  V30 2 1 2 3
M  V30 3 1 2 4
M  V30 4 2 4 5
M  V30 5 1 4 6
M  V30 6 1 5 7
M  V30 7 1 5 8
M  V30 8 1 6 9
M  V30 9 2 6 10
M  V30 10 2 7 11
M  V30 11 1 7 12
M  V30 12 2 8 13
M  V30 13 1 8 14
M  V30 14 2 9 15
M  V30 15 1 9 16
M  V30 16 1 10 11
M  V30 17 1 10 17
M  V30 18 1 12 18
M  V30 19 1 12 19
M  V30 20 1 12 20
M  V30 21 1 14 21
M  V30 22 1 14 22
M  V30 23 1 14 23
M  V30 END BOND
M  V30 END CTAB
M  END
>  <Structure No>
8077

>  <LogS>
-1.35

>  <MMFF94 Energy>
88.308

$$$$
Compound 8078
Actelion Java MolfileCreator 2.0

  0  0  0  0  0  0              0 V3000
M  V30 BEGIN CTAB
M  V30 COUNTS 26 26 0 0 0
M  V30 BEGIN ATOM
M  V30 1 S 4.4218 2.0453 -0.1635 0
M  V30 2 C 3.2311 0.8563 -0.1719 0
M  V30 3 C 5.675 0.9463 0.0567 0
M  V30 4 N 3.7669 -0.3733 -0.0095 0
M  V30 5 C 1.7911 1.1067 -0.3338 0
M  V30 6 C 5.1201 -0.3261 0.1173 0
M  V30 7 O 1.3783 2.2887 -0.4799 0
M  V30 8 N 0.8566 0.023 -0.3267 0
M  V30 9 N -0.5169 0.2831 -0.4832 0
M  V30 10 C -1.4459 -0.6306 -0.4845 0
M  V30 11 C -2.8747 -0.1954 -0.67 0
M  V30 12 C -1.1207 -2.092 -0.32 0
M  V30 13 C -3.3757 0.561 0.5632 0
M  V30 14 C -4.8005 0.9787 0.3794 0
M  V30 15 O -5.0722 2.0852 -0.1568 0
M  V30 16 O -5.8295 0.1247 0.7552 0 CHG=-1
M  V30 17 H 6.7269 1.1845 0.1372 0
M  V30 18 H 5.7136 -1.2196 0.2552 0
M  V30 19 H 1.2116 -0.9511 -0.2047 0
M  V30 20 H -3.5314 -1.0739 -0.8522 0
M  V30 21 H -2.9383 0.4598 -1.5665 0
M  V30 22 H -2.0372 -2.7176 -0.3369 0
M  V30 23 H -0.4593 -2.4259 -1.1468 0
M  V30 24 H -0.6145 -2.2568 0.654 0
M  V30 25 H -2.7486 1.4626 0.7389 0
M  V30 26 H -3.3022 -0.0926 1.4595 0
M  V30 END ATOM
M  V30 BEGIN BOND
M  V30 1 1 1 2
M  V30 2 1 1 3
M  V30 3 2 2 4
M  V30 4 1 2 5
M  V30 5 2 3 6
M  V30 6 2 5 7
M  V30 7 1 5 8
M  V30 8 1 8 9
M  V30 9 2 9 10
M  V30 10 1 10 11
M  V30 11 1 10 12
M  V30 12 1 11 13
M  V30 13 1 13 14
M  V30 14 2 14 15
M  V30 15 1 14 16
M  V30 16 1 4 6
M  V30 17 1 3 17
M  V30 18 1 6 18
M  V30 19 1 8 19
M  V30 20 1 11 20
M  V30 21 1 11 21
M  V30 22 1 12 22
M  V30 23 1 12 23
M  V30 24 1 12 24
M  V30 25 1 13 25
M  V30 26 1 13 26
M  V30 END BOND
M  V30 END CTAB
M  END
>  <Structure No>
8078

>  <LogS>
-1.73

>  <MMFF94 Energy>
80.57

$$$$
Compound 8079
Actelion Java MolfileCreator 2.0

  0  0  0  0  0  0              0 V3000
M  V30 BEGIN CTAB
M  V30 COUNTS 35 36 0 0 0
M  V30 BEGIN ATOM
M  V30 1 O -0.2359 -1.1802 -1.6525 0
M  V30 2 C -0.3408 -0.5023 -0.5949 0
M  V30 3 N 0.6986 0.0666 0.046 0
M  V30 4 C -1.5235 -0.2042 0.0605 0
M  V30 5 N 0.2274 0.7216 1.1038 0
M  V30 6 C 2.0755 0.0047 -0.367 0
M  V30 7 C -1.1247 0.6066 1.1204 0
M  V30 8 C -2.9275 -0.6217 -0.3161 0
M  V30 9 C 1.0428 1.4347 2.0913 0
M  V30 10 C 2.8119 1.1842 -0.5634 0
M  V30 11 C 2.6858 -1.2364 -0.6085 0
M  V30 12 C -2.0293 1.2124 2.1551 0
M  V30 13 C -3.361 0.0624 -1.6155 0
M  V30 14 C -3.0399 -2.1459 -0.4304 0
M  V30 15 C 4.1456 1.1207 -0.9783 0
M  V30 16 C 4.0198 -1.2964 -1.0232 0
M  V30 17 C 4.7497 -0.1186 -1.2064 0
M  V30 18 H -3.6308 -0.3057 0.4829 0
M  V30 19 H 0.6202 1.302 3.1091 0
M  V30 20 H 1.0721 2.5154 1.841 0
M  V30 21 H 2.0757 1.031 2.1158 0
M  V30 22 H 2.349 2.1498 -0.4057 0
M  V30 23 H 2.1306 -2.1546 -0.4645 0
M  V30 24 H -2.2584 0.4573 2.9351 0
M  V30 25 H -1.5559 2.0971 2.6272 0
M  V30 26 H -2.9735 1.5582 1.6865 0
M  V30 27 H -2.716 -0.2518 -2.4635 0
M  V30 28 H -3.2954 1.1659 -1.5041 0
M  V30 29 H -4.4141 -0.2007 -1.852 0
M  V30 30 H -2.4324 -2.5321 -1.2755 0
M  V30 31 H -2.6947 -2.6252 0.5105 0
M  V30 32 H -4.099 -2.4358 -0.5987 0
M  V30 33 H 4.7093 2.0325 -1.1272 0
M  V30 34 H 4.4875 -2.2557 -1.2024 0
M  V30 35 H 5.7818 -0.1662 -1.5283 0
M  V30 END ATOM
M  V30 BEGIN BOND
M  V30 1 2 1 2
M  V30 2 1 2 3
M  V30 3 1 2 4
M  V30 4 1 3 5
M  V30 5 1 3 6
M  V30 6 2 4 7
M  V30 7 1 4 8
M  V30 8 1 5 9
M  V30 9 2 6 10
M  V30 10 1 6 11
M  V30 11 1 7 12
M  V30 12 1 8 13
M  V30 13 1 8 14
M  V30 14 1 10 15
M  V30 15 2 11 16
M  V30 16 2 15 17
M  V30 17 1 5 7
M  V30 18 1 16 17
M  V30 19 1 8 18
M  V30 20 1 9 19
M  V30 21 1 9 20
M  V30 22 1 9 21
M  V30 23 1 10 22
M  V30 24 1 11 23
M  V30 25 1 12 24
M  V30 26 1 12 25
M  V30 27 1 12 26
M  V30 28 1 13 27
M  V30 29 1 13 28
M  V30 30 1 13 29
M  V30 31 1 14 30
M  V30 32 1 14 31
M  V30 33 1 14 32
M  V30 34 1 15 33
M  V30 35 1 16 34
M  V30 36 1 17 35
M  V30 END BOND
M  V30 END CTAB
M  END
>  <Structure No>
8079

>  <LogS>
-1.91

>  <MMFF94 Energy>
65.82

$$$$
Compound 8080
Actelion Java MolfileCreator 2.0

  0  0  0  0  0  0              0 V3000
M  V30 BEGIN CTAB
M  V30 COUNTS 20 21 0 0 0
M  V30 BEGIN ATOM
M  V30 1 O 3.7928 -1.6933 -0.0805 0
M  V30 2 N 3.4827 -0.4837 -0.0733 0 CHG=1
M  V30 3 O 4.4869 0.4571 -0.0821 0 CHG=-1
M  V30 4 C 2.1011 -0.0792 -0.0558 0
M  V30 5 C 1.0723 -1.0398 -0.0467 0
M  V30 6 C 1.7623 1.2851 -0.0478 0
M  V30 7 C -0.2738 -0.6438 -0.0297 0
M  V30 8 C 0.4246 1.6879 -0.031 0
M  V30 9 C -0.6005 0.7331 -0.0218 0
M  V30 10 C -1.3014 -1.6004 -0.0206 0
M  V30 11 C -1.9473 1.1282 -0.0049 0
M  V30 12 C -2.6388 -1.1941 -0.0038 0
M  V30 13 C -2.9607 0.1656 0.004 0
M  V30 14 H 1.3184 -2.0949 -0.0528 0
M  V30 15 H 2.5334 2.0442 -0.0545 0
M  V30 16 H 0.1919 2.7463 -0.025 0
M  V30 17 H -1.0711 -2.6591 -0.0264 0
M  V30 18 H -2.2153 2.178 0.0014 0
M  V30 19 H -3.4277 -1.9349 0.0032 0
M  V30 20 H -3.998 0.4742 0.0171 0
M  V30 END ATOM
M  V30 BEGIN BOND
M  V30 1 2 1 2
M  V30 2 1 2 3
M  V30 3 1 2 4
M  V30 4 2 4 5
M  V30 5 1 4 6
M  V30 6 1 5 7
M  V30 7 2 6 8
M  V30 8 1 7 9
M  V30 9 2 7 10
M  V30 10 2 9 11
M  V30 11 1 10 12
M  V30 12 1 11 13
M  V30 13 1 8 9
M  V30 14 2 12 13
M  V30 15 1 5 14
M  V30 16 1 6 15
M  V30 17 1 8 16
M  V30 18 1 10 17
M  V30 19 1 11 18
M  V30 20 1 12 19
M  V30 21 1 13 20
M  V30 END BOND
M  V30 END CTAB
M  END
>  <Structure No>
8080

>  <LogS>
-3.82

>  <MMFF94 Energy>
58.292

$$$$
Compound 8081
Actelion Java MolfileCreator 2.0

  0  0  0  0  0  0              0 V3000
M  V30 BEGIN CTAB
M  V30 COUNTS 23 23 0 0 0
M  V30 BEGIN ATOM
M  V30 1 O -2.0508 -2.2877 -1.1039 0
M  V30 2 N -0.7799 -1.8234 -0.8506 0
M  V30 3 C -0.5474 -0.6592 -0.3181 0
M  V30 4 C 0.863 -0.2187 -0.1417 0
M  V30 5 C -1.6665 0.2346 0.0712 0
M  V30 6 C 1.2046 0.7443 0.829 0
M  V30 7 C 1.8883 -0.7757 -0.9317 0
M  V30 8 N -1.633 1.4784 -0.3011 0
M  V30 9 C -2.8297 -0.2944 0.8656 0
M  V30 10 C 2.5336 1.1467 0.9928 0
M  V30 11 C 3.2154 -0.3686 -0.7633 0
M  V30 12 O -2.6416 2.3622 0.0097 0
M  V30 13 C 3.5374 0.5924 0.1965 0
M  V30 14 H -2.1827 -3.2011 -1.5187 0
M  V30 15 H 0.4495 1.176 1.4734 0
M  V30 16 H 1.6636 -1.5182 -1.6872 0
M  V30 17 H -3.7132 -0.4098 0.2035 0
M  V30 18 H -3.0799 0.4054 1.6905 0
M  V30 19 H -2.5823 -1.2769 1.3204 0
M  V30 20 H 2.7856 1.8863 1.7419 0
M  V30 21 H 3.9947 -0.7988 -1.379 0
M  V30 22 H -2.5826 3.3252 -0.2959 0
M  V30 23 H 4.5655 0.9054 0.3257 0
M  V30 END ATOM
M  V30 BEGIN BOND
M  V30 1 1 1 2
M  V30 2 2 2 3
M  V30 3 1 3 4
M  V30 4 1 3 5
M  V30 5 2 4 6
M  V30 6 1 4 7
M  V30 7 2 5 8
M  V30 8 1 5 9
M  V30 9 1 6 10
M  V30 10 2 7 11
M  V30 11 1 8 12
M  V30 12 2 10 13
M  V30 13 1 11 13
M  V30 14 1 1 14
M  V30 15 1 6 15
M  V30 16 1 7 16
M  V30 17 1 9 17
M  V30 18 1 9 18
M  V30 19 1 9 19
M  V30 20 1 10 20
M  V30 21 1 11 21
M  V30 22 1 12 22
M  V30 23 1 13 23
M  V30 END BOND
M  V30 END CTAB
M  END
>  <Structure No>
8081

>  <LogS>
-2.3

>  <MMFF94 Energy>
95.204

$$$$
Compound 8082
Actelion Java MolfileCreator 2.0

  0  0  0  0  0  0              0 V3000
M  V30 BEGIN CTAB
M  V30 COUNTS 28 28 0 0 0
M  V30 BEGIN ATOM
M  V30 1 O 0.1569 -0.9421 -0.4709 0
M  V30 2 C -0.7002 0.1675 -0.3679 0
M  V30 3 C 1.5689 -0.9049 -0.6883 0
M  V30 4 C -2.0062 -0.0506 0.1044 0
M  V30 5 C -0.305 1.4705 -0.7335 0
M  V30 6 C 2.3193 -0.6549 0.6318 0 CFG=2
M  V30 7 O -2.3792 -1.3587 0.4519 0
M  V30 8 C -2.8967 1.0353 0.2195 0
M  V30 9 C -1.1968 2.5385 -0.6137 0
M  V30 10 O 2.0195 0.6172 1.1486 0
M  V30 11 C 3.8375 -0.8292 0.4488 0
M  V30 12 C -3.6629 -1.7271 0.9457 0
M  V30 13 C -2.4889 2.3218 -0.1366 0
M  V30 14 O 4.4994 -0.6731 1.6752 0
M  V30 15 H 1.8684 -1.9009 -1.0785 0
M  V30 16 H 1.845 -0.1655 -1.4679 0
M  V30 17 H 0.6811 1.6751 -1.1207 0
M  V30 18 H 1.9759 -1.4134 1.3687 0
M  V30 19 H -3.9054 0.8953 0.5832 0
M  V30 20 H -0.8861 3.5364 -0.8953 0
M  V30 21 H 2.4093 1.2907 0.5319 0
M  V30 22 H 4.2288 -0.1051 -0.3028 0
M  V30 23 H 4.0479 -1.852 0.0698 0
M  V30 24 H -3.872 -1.1973 1.899 0
M  V30 25 H -4.4446 -1.4865 0.1945 0
M  V30 26 H -3.6781 -2.8197 1.1361 0
M  V30 27 H -3.1777 3.152 -0.0462 0
M  V30 28 H 4.6014 0.3032 1.8231 0
M  V30 END ATOM
M  V30 BEGIN BOND
M  V30 1 1 1 2
M  V30 2 1 1 3
M  V30 3 2 2 4
M  V30 4 1 2 5
M  V30 5 1 3 6
M  V30 6 1 4 7
M  V30 7 1 4 8
M  V30 8 2 5 9
M  V30 9 1 6 10
M  V30 10 1 6 11
M  V30 11 1 7 12
M  V30 12 2 8 13
M  V30 13 1 11 14
M  V30 14 1 9 13
M  V30 15 1 3 15
M  V30 16 1 3 16
M  V30 17 1 5 17
M  V30 18 1 6 18
M  V30 19 1 8 19
M  V30 20 1 9 20
M  V30 21 1 10 21
M  V30 22 1 11 22
M  V30 23 1 11 23
M  V30 24 1 12 24
M  V30 25 1 12 25
M  V30 26 1 12 26
M  V30 27 1 13 27
M  V30 28 1 14 28
M  V30 END BOND
M  V30 BEGIN COLLECTION
M  V30 MDLV30/STEABS ATOMS=(1 6)
M  V30 END COLLECTION
M  V30 END CTAB
M  END
>  <Structure No>
8082

>  <LogS>
-0.73

>  <MMFF94 Energy>
69.971

$$$$
Compound 8083
Actelion Java MolfileCreator 2.0

  0  0  0  0  0  0              0 V3000
M  V30 BEGIN CTAB
M  V30 COUNTS 28 28 0 0 0
M  V30 BEGIN ATOM
M  V30 1 O -2.4335 -1.0199 -0.0784 0
M  V30 2 C -1.2622 -0.3678 0.3414 0
M  V30 3 C -3.7433 -0.7969 0.4458 0
M  V30 4 C -0.0784 -0.6211 -0.3629 0
M  V30 5 C -1.2315 0.5153 1.4379 0
M  V30 6 C -4.3232 0.5221 -0.0698 0
M  V30 7 C 1.1248 -0.0057 0.0027 0
M  V30 8 C -0.0348 1.1333 1.8087 0
M  V30 9 O -4.3578 0.529 -1.4711 0
M  V30 10 O 2.2759 -0.298 -0.7438 0
M  V30 11 C 1.1396 0.8781 1.0976 0
M  V30 12 C 3.5647 0.2533 -0.4864 0
M  V30 13 C 4.5626 -0.2939 -1.501 0
M  V30 14 O 5.8305 0.2637 -1.2867 0
M  V30 15 H -4.3995 -1.6279 0.111 0
M  V30 16 H -3.733 -0.8177 1.556 0
M  V30 17 H -0.0946 -1.3019 -1.205 0
M  V30 18 H -2.1202 0.7308 2.0133 0
M  V30 19 H -5.3466 0.6688 0.3439 0
M  V30 20 H -3.6986 1.3718 0.2742 0
M  V30 21 H -0.0175 1.812 2.6519 0
M  V30 22 H -5.121 -0.0464 -1.7394 0
M  V30 23 H 2.0512 1.3705 1.4074 0
M  V30 24 H 3.8921 -0.0251 0.5388 0
M  V30 25 H 3.5225 1.361 -0.575 0
M  V30 26 H 4.2257 -0.0274 -2.5253 0
M  V30 27 H 4.6089 -1.4047 -1.431 0
M  V30 28 H 6.2153 -0.2001 -0.4977 0
M  V30 END ATOM
M  V30 BEGIN BOND
M  V30 1 1 1 2
M  V30 2 1 1 3
M  V30 3 2 2 4
M  V30 4 1 2 5
M  V30 5 1 3 6
M  V30 6 1 4 7
M  V30 7 2 5 8
M  V30 8 1 6 9
M  V30 9 1 7 10
M  V30 10 2 7 11
M  V30 11 1 10 12
M  V30 12 1 12 13
M  V30 13 1 13 14
M  V30 14 1 8 11
M  V30 15 1 3 15
M  V30 16 1 3 16
M  V30 17 1 4 17
M  V30 18 1 5 18
M  V30 19 1 6 19
M  V30 20 1 6 20
M  V30 21 1 8 21
M  V30 22 1 9 22
M  V30 23 1 11 23
M  V30 24 1 12 24
M  V30 25 1 12 25
M  V30 26 1 13 26
M  V30 27 1 13 27
M  V30 28 1 14 28
M  V30 END BOND
M  V30 END CTAB
M  END
>  <Structure No>
8083

>  <LogS>
-1.02

>  <MMFF94 Energy>
57.127

$$$$
Compound 8084
Actelion Java MolfileCreator 2.0

  0  0  0  0  0  0              0 V3000
M  V30 BEGIN CTAB
M  V30 COUNTS 36 35 0 0 0
M  V30 BEGIN ATOM
M  V30 1 O -3.583 1.946 2.7253 0
M  V30 2 C -3.8538 1.2066 1.7422 0
M  V30 3 C -2.7382 0.6568 0.9426 0
M  V30 4 C -5.2872 0.8615 1.4737 0
M  V30 5 C -2.7096 0.5587 -0.4062 0
M  V30 6 N -1.5944 -0.0621 -1.0818 0
M  V30 7 C -3.8239 1.1054 -1.2608 0
M  V30 8 C -0.4344 -0.6377 -0.3945 0
M  V30 9 C 0.5422 -1.2633 -1.3962 0
M  V30 10 N 1.6876 -1.8556 -0.701 0
M  V30 11 C 2.7404 -1.1209 -0.0386 0
M  V30 12 C 2.9014 0.2065 -0.241 0
M  V30 13 C 3.6537 -1.8967 0.8737 0
M  V30 14 C 3.9827 1.0385 0.3291 0
M  V30 15 O 3.693 2.1802 0.7751 0
M  V30 16 C 5.4177 0.6071 0.3309 0
M  V30 17 H -1.8729 0.3577 1.517 0
M  V30 18 H -5.363 -0.1223 0.9654 0
M  V30 19 H -5.8429 0.793 2.4327 0
M  V30 20 H -5.7587 1.6485 0.8501 0
M  V30 21 H -1.6285 -0.1185 -2.1255 0
M  V30 22 H -4.6763 0.3957 -1.2755 0
M  V30 23 H -4.154 2.0985 -0.8899 0
M  V30 24 H -3.4803 1.2498 -2.3062 0
M  V30 25 H 0.0797 0.1595 0.1817 0
M  V30 26 H -0.7779 -1.4272 0.3089 0
M  V30 27 H 0.0083 -2.0635 -1.9545 0
M  V30 28 H 0.8843 -0.5181 -2.1448 0
M  V30 29 H 1.7304 -2.8999 -0.6784 0
M  V30 30 H 2.1793 0.7495 -0.8321 0
M  V30 31 H 3.8523 -1.3301 1.8073 0
M  V30 32 H 4.6044 -2.1316 0.3531 0
M  V30 33 H 3.1794 -2.855 1.1725 0
M  V30 34 H 5.6083 -0.1181 -0.4872 0
M  V30 35 H 6.0743 1.4873 0.166 0
M  V30 36 H 5.6783 0.1531 1.3088 0
M  V30 END ATOM
M  V30 BEGIN BOND
M  V30 1 2 1 2
M  V30 2 1 2 3
M  V30 3 1 2 4
M  V30 4 2 3 5
M  V30 5 1 5 6
M  V30 6 1 5 7
M  V30 7 1 6 8
M  V30 8 1 8 9
M  V30 9 1 9 10
M  V30 10 1 10 11
M  V30 11 2 11 12
M  V30 12 1 11 13
M  V30 13 1 12 14
M  V30 14 2 14 15
M  V30 15 1 14 16
M  V30 16 1 3 17
M  V30 17 1 4 18
M  V30 18 1 4 19
M  V30 19 1 4 20
M  V30 20 1 6 21
M  V30 21 1 7 22
M  V30 22 1 7 23
M  V30 23 1 7 24
M  V30 24 1 8 25
M  V30 25 1 8 26
M  V30 26 1 9 27
M  V30 27 1 9 28
M  V30 28 1 10 29
M  V30 29 1 12 30
M  V30 30 1 13 31
M  V30 31 1 13 32
M  V30 32 1 13 33
M  V30 33 1 16 34
M  V30 34 1 16 35
M  V30 35 1 16 36
M  V30 END BOND
M  V30 END CTAB
M  END
>  <Structure No>
8084

>  <LogS>
-2.83

>  <MMFF94 Energy>
74.376

$$$$
Compound 8085
Actelion Java MolfileCreator 2.0

  0  0  0  0  0  0              0 V3000
M  V30 BEGIN CTAB
M  V30 COUNTS 19 19 0 0 0
M  V30 BEGIN ATOM
M  V30 1 O -4.0961 1.0429 0.8824 0
M  V30 2 N -3.5914 0.1298 0.1965 0 CHG=1
M  V30 3 O -4.4268 -0.7369 -0.4704 0 CHG=-1
M  V30 4 C -2.1623 -0.0139 0.1029 0
M  V30 5 C -1.3055 0.867 0.7854 0
M  V30 6 C -1.6005 -1.0432 -0.67 0
M  V30 7 C 0.0821 0.7254 0.6919 0
M  V30 8 C -0.2132 -1.1859 -0.7625 0
M  V30 9 C 0.6446 -0.2977 -0.0912 0
M  V30 10 C 2.1147 -0.4662 -0.1968 0
M  V30 11 O 2.5899 -1.5936 -0.503 0
M  V30 12 N 3.0108 0.6301 0.0235 0
M  V30 13 O 4.3499 0.4263 0.04 0
M  V30 14 H -1.7082 1.6635 1.398 0
M  V30 15 H -2.2333 -1.7397 -1.2046 0
M  V30 16 H 0.7067 1.4047 1.2559 0
M  V30 17 H 0.1889 -1.987 -1.3704 0
M  V30 18 H 2.6526 1.6032 0.1429 0
M  V30 19 H 4.638 0.5509 -0.9001 0
M  V30 END ATOM
M  V30 BEGIN BOND
M  V30 1 2 1 2
M  V30 2 1 2 3
M  V30 3 1 2 4
M  V30 4 2 4 5
M  V30 5 1 4 6
M  V30 6 1 5 7
M  V30 7 2 6 8
M  V30 8 2 7 9
M  V30 9 1 9 10
M  V30 10 2 10 11
M  V30 11 1 10 12
M  V30 12 1 12 13
M  V30 13 1 8 9
M  V30 14 1 5 14
M  V30 15 1 6 15
M  V30 16 1 7 16
M  V30 17 1 8 17
M  V30 18 1 12 18
M  V30 19 1 13 19
M  V30 END BOND
M  V30 END CTAB
M  END
>  <Structure No>
8085

>  <LogS>
-1.94

>  <MMFF94 Energy>
87.832

$$$$
Compound 8086
Actelion Java MolfileCreator 2.0

  0  0  0  0  0  0              0 V3000
M  V30 BEGIN CTAB
M  V30 COUNTS 22 22 0 0 0
M  V30 BEGIN ATOM
M  V30 1 O -4.8843 -0.6395 0.7195 0
M  V30 2 N -4.1328 0.0817 0.031 0 CHG=1
M  V30 3 O -4.6925 1.0682 -0.7484 0 CHG=-1
M  V30 4 C -2.7067 -0.1123 0.0527 0
M  V30 5 C -2.1309 -1.1196 0.8473 0
M  V30 6 C -1.8665 0.7 -0.7272 0
M  V30 7 C -0.7455 -1.3047 0.8651 0
M  V30 8 C -0.4809 0.5151 -0.708 0
M  V30 9 C 0.0942 -0.4802 0.0992 0
M  V30 10 C 1.5594 -0.6962 0.1164 0
M  V30 11 O 2.0032 -1.8682 0.2631 0
M  V30 12 N 2.4834 0.3997 -0.0125 0
M  V30 13 O 2.0714 1.6741 0.2028 0
M  V30 14 C 3.8888 0.1539 -0.3231 0
M  V30 15 H -2.7516 -1.7652 1.4554 0
M  V30 16 H -2.2803 1.4751 -1.3593 0
M  V30 17 H -0.3284 -2.0862 1.4885 0
M  V30 18 H 0.1357 1.1357 -1.3451 0
M  V30 19 H 2.1969 1.8232 1.1751 0
M  V30 20 H 4.4421 1.1148 -0.3885 0
M  V30 21 H 4.3487 -0.4673 0.4741 0
M  V30 22 H 3.9712 -0.3719 -1.2975 0
M  V30 END ATOM
M  V30 BEGIN BOND
M  V30 1 2 1 2
M  V30 2 1 2 3
M  V30 3 1 2 4
M  V30 4 2 4 5
M  V30 5 1 4 6
M  V30 6 1 5 7
M  V30 7 2 6 8
M  V30 8 2 7 9
M  V30 9 1 9 10
M  V30 10 2 10 11
M  V30 11 1 10 12
M  V30 12 1 12 13
M  V30 13 1 12 14
M  V30 14 1 8 9
M  V30 15 1 5 15
M  V30 16 1 6 16
M  V30 17 1 7 17
M  V30 18 1 8 18
M  V30 19 1 13 19
M  V30 20 1 14 20
M  V30 21 1 14 21
M  V30 22 1 14 22
M  V30 END BOND
M  V30 END CTAB
M  END
>  <Structure No>
8086

>  <LogS>
-2.87

>  <MMFF94 Energy>
96.004

$$$$
Compound 8087
Actelion Java MolfileCreator 2.0

  0  0  0  0  0  0              0 V3000
M  V30 BEGIN CTAB
M  V30 COUNTS 33 34 0 0 0
M  V30 BEGIN ATOM
M  V30 1 O -2.3882 -2.3085 -0.5568 0
M  V30 2 C -2.1746 -1.1402 -0.1303 0
M  V30 3 C -3.3241 -0.2902 0.2714 0
M  V30 4 C -0.7862 -0.6326 -0.0462 0
M  V30 5 C -4.574 -0.4063 -0.3777 0
M  V30 6 C -3.1883 0.6331 1.3267 0
M  V30 7 C 0.2752 -1.4135 -0.2946 0
M  V30 8 O -4.7423 -1.3027 -1.4333 0
M  V30 9 C -5.652 0.3943 0.0294 0
M  V30 10 C -4.2685 1.4267 1.7208 0
M  V30 11 C 1.6788 -0.9363 -0.2383 0
M  V30 12 C -5.498 1.3081 1.073 0
M  V30 13 C 2.0664 0.1915 0.5116 0
M  V30 14 C 2.6634 -1.6596 -0.9297 0
M  V30 15 C 3.4045 0.5963 0.5436 0
M  V30 16 C 4.0 -1.2528 -0.897 0
M  V30 17 C 4.3827 -0.1242 -0.1655 0
M  V30 18 O 5.7364 0.2434 -0.1657 0
M  V30 19 C 6.2646 1.3656 0.5334 0
M  V30 20 H -0.6446 0.4135 0.1838 0
M  V30 21 H -2.2543 0.7276 1.8653 0
M  V30 22 H 0.1125 -2.4433 -0.5909 0
M  V30 23 H -5.6289 -1.3977 -1.9145 0
M  V30 24 H -6.6106 0.3107 -0.4667 0
M  V30 25 H -4.1533 2.1304 2.5352 0
M  V30 26 H -6.3336 1.9232 1.3816 0
M  V30 27 H 1.3496 0.752 1.0956 0
M  V30 28 H 2.3963 -2.538 -1.5048 0
M  V30 29 H 3.6683 1.4664 1.1293 0
M  V30 30 H 4.7436 -1.8192 -1.4434 0
M  V30 31 H 7.3583 1.4207 0.357 0
M  V30 32 H 6.0855 1.2549 1.6238 0
M  V30 33 H 5.7968 2.3018 0.162 0
M  V30 END ATOM
M  V30 BEGIN BOND
M  V30 1 2 1 2
M  V30 2 1 2 3
M  V30 3 1 2 4
M  V30 4 2 3 5
M  V30 5 1 3 6
M  V30 6 2 4 7
M  V30 7 1 5 8
M  V30 8 1 5 9
M  V30 9 2 6 10
M  V30 10 1 7 11
M  V30 11 2 9 12
M  V30 12 2 11 13
M  V30 13 1 11 14
M  V30 14 1 13 15
M  V30 15 2 14 16
M  V30 16 2 15 17
M  V30 17 1 17 18
M  V30 18 1 18 19
M  V30 19 1 10 12
M  V30 20 1 16 17
M  V30 21 1 4 20
M  V30 22 1 6 21
M  V30 23 1 7 22
M  V30 24 1 8 23
M  V30 25 1 9 24
M  V30 26 1 10 25
M  V30 27 1 12 26
M  V30 28 1 13 27
M  V30 29 1 14 28
M  V30 30 1 15 29
M  V30 31 1 16 30
M  V30 32 1 19 31
M  V30 33 1 19 32
M  V30 34 1 19 33
M  V30 END BOND
M  V30 END CTAB
M  END
>  <Structure No>
8087

>  <LogS>
-5.7

>  <MMFF94 Energy>
59.139

$$$$
Compound 8088
Actelion Java MolfileCreator 2.0

  0  0  0  0  0  0              0 V3000
M  V30 BEGIN CTAB
M  V30 COUNTS 22 22 0 0 0
M  V30 BEGIN ATOM
M  V30 1 O 4.9651 0.7195 0.8795 0
M  V30 2 N 4.2961 0.3135 -0.0934 0 CHG=1
M  V30 3 O 4.9413 0.0639 -1.2831 0 CHG=-1
M  V30 4 C 2.8757 0.1112 0.025 0
M  V30 5 C 2.2129 0.3647 1.2383 0
M  V30 6 C 2.1291 -0.349 -1.072 0
M  V30 7 C 0.8337 0.1665 1.3491 0
M  V30 8 C 0.7493 -0.5462 -0.9619 0
M  V30 9 C 0.0838 -0.2811 0.248 0
M  V30 10 C -1.3784 -0.4895 0.3851 0
M  V30 11 O -1.8688 -0.7091 1.5262 0
M  V30 12 N -2.2537 -0.4275 -0.75 0
M  V30 13 O -3.5705 -0.7438 -0.6253 0
M  V30 14 C -4.2597 0.4686 -0.4494 0
M  V30 15 H 2.7606 0.717 2.1032 0
M  V30 16 H 2.6125 -0.5642 -2.0162 0
M  V30 17 H 0.3509 0.3754 2.2961 0
M  V30 18 H 0.2159 -0.9313 -1.8202 0
M  V30 19 H -1.8886 -0.1716 -1.6942 0
M  V30 20 H -5.3435 0.2524 -0.3519 0
M  V30 21 H -4.1198 1.1346 -1.3297 0
M  V30 22 H -3.9279 0.9845 0.4788 0
M  V30 END ATOM
M  V30 BEGIN BOND
M  V30 1 2 1 2
M  V30 2 1 2 3
M  V30 3 1 2 4
M  V30 4 2 4 5
M  V30 5 1 4 6
M  V30 6 1 5 7
M  V30 7 2 6 8
M  V30 8 2 7 9
M  V30 9 1 9 10
M  V30 10 2 10 11
M  V30 11 1 10 12
M  V30 12 1 12 13
M  V30 13 1 13 14
M  V30 14 1 8 9
M  V30 15 1 5 15
M  V30 16 1 6 16
M  V30 17 1 7 17
M  V30 18 1 8 18
M  V30 19 1 12 19
M  V30 20 1 14 20
M  V30 21 1 14 21
M  V30 22 1 14 22
M  V30 END BOND
M  V30 END CTAB
M  END
>  <Structure No>
8088

>  <LogS>
-2.28

>  <MMFF94 Energy>
86.97

$$$$
Compound 8089
Actelion Java MolfileCreator 2.0

  0  0  0  0  0  0              0 V3000
M  V30 BEGIN CTAB
M  V30 COUNTS 30 31 0 0 0
M  V30 BEGIN ATOM
M  V30 1 O 0.0791 -1.5839 -0.3958 0
M  V30 2 C -1.1736 -0.9625 -0.326 0
M  V30 3 C 1.3152 -0.947 -0.2224 0
M  V30 4 N -2.2892 -1.7341 -0.2455 0
M  V30 5 N -1.2955 0.3919 -0.3711 0
M  V30 6 N 2.4762 -1.5055 -0.6154 0
M  V30 7 C 1.555 0.2765 0.3881 0
M  V30 8 C -3.5297 -1.1795 -0.1929 0
M  V30 9 C -2.5128 0.9942 -0.3186 0
M  V30 10 N 3.4477 -0.6703 -0.2838 0
M  V30 11 C 2.9258 0.419 0.3167 0
M  V30 12 C -3.6675 0.2111 -0.2328 0
M  V30 13 C -4.7372 -2.0578 -0.1125 0
M  V30 14 C -2.6101 2.485 -0.3801 0
M  V30 15 C 4.8595 -0.9301 -0.5405 0
M  V30 16 C 3.7191 1.5526 0.8871 0
M  V30 17 H 0.8524 0.9521 0.8559 0
M  V30 18 H -4.6479 0.6718 -0.1998 0
M  V30 19 H -5.348 -1.7787 0.7716 0
M  V30 20 H -4.4393 -3.1233 -0.0163 0
M  V30 21 H -5.3478 -1.9386 -1.0317 0
M  V30 22 H -3.0907 2.7883 -1.3338 0
M  V30 23 H -3.2162 2.8601 0.4715 0
M  V30 24 H -1.5998 2.9438 -0.3255 0
M  V30 25 H 5.4278 -0.8948 0.4126 0
M  V30 26 H 5.2602 -0.1653 -1.2382 0
M  V30 27 H 4.9885 -1.9344 -0.9967 0
M  V30 28 H 3.0492 2.3934 1.1656 0
M  V30 29 H 4.4512 1.9153 0.136 0
M  V30 30 H 4.2613 1.2067 1.7914 0
M  V30 END ATOM
M  V30 BEGIN BOND
M  V30 1 1 1 2
M  V30 2 1 1 3
M  V30 3 2 2 4
M  V30 4 1 2 5
M  V30 5 2 3 6
M  V30 6 1 3 7
M  V30 7 1 4 8
M  V30 8 2 5 9
M  V30 9 1 6 10
M  V30 10 2 7 11
M  V30 11 2 8 12
M  V30 12 1 8 13
M  V30 13 1 9 14
M  V30 14 1 10 15
M  V30 15 1 11 16
M  V30 16 1 9 12
M  V30 17 1 10 11
M  V30 18 1 7 17
M  V30 19 1 12 18
M  V30 20 1 13 19
M  V30 21 1 13 20
M  V30 22 1 13 21
M  V30 23 1 14 22
M  V30 24 1 14 23
M  V30 25 1 14 24
M  V30 26 1 15 25
M  V30 27 1 15 26
M  V30 28 1 15 27
M  V30 29 1 16 28
M  V30 30 1 16 29
M  V30 31 1 16 30
M  V30 END BOND
M  V30 END CTAB
M  END
>  <Structure No>
8089

>  <LogS>
-1.52

>  <MMFF94 Energy>
-8.3701

$$$$
Compound 8090
Actelion Java MolfileCreator 2.0

  0  0  0  0  0  0              0 V3000
M  V30 BEGIN CTAB
M  V30 COUNTS 27 27 0 0 0
M  V30 BEGIN ATOM
M  V30 1 O 0.3943 1.4201 0.8676 0
M  V30 2 C 1.0032 0.8935 -0.1042 0
M  V30 3 O 0.442 0.9065 -1.3859 0
M  V30 4 N 2.2792 0.278 0.0938 0
M  V30 5 C -0.8423 1.4561 -1.6736 0
M  V30 6 C 2.9093 0.2284 1.412 0
M  V30 7 C -1.9276 0.5703 -1.1248 0
M  V30 8 C 4.2233 -0.4883 1.3419 0
M  V30 9 C -2.1378 -0.7039 -1.6763 0
M  V30 10 C -2.7202 0.9931 -0.0442 0
M  V30 11 O 5.2935 0.1703 1.2521 0
M  V30 12 N 4.2661 -1.9148 1.3312 0
M  V30 13 C -3.1327 -1.5398 -1.1592 0
M  V30 14 C -3.7139 0.1539 0.4699 0
M  V30 15 C -3.9206 -1.1109 -0.0873 0
M  V30 16 H 2.756 -0.1446 -0.7351 0
M  V30 17 H -0.9124 2.4895 -1.2685 0
M  V30 18 H -0.9591 1.5268 -2.7756 0
M  V30 19 H 2.2407 -0.3018 2.1238 0
M  V30 20 H 3.0671 1.2634 1.7863 0
M  V30 21 H -1.5304 -1.0485 -2.5041 0
M  V30 22 H -2.5687 1.9685 0.4011 0
M  V30 23 H 5.1807 -2.4144 1.2688 0
M  V30 24 H 3.3852 -2.4735 1.3799 0
M  V30 25 H -3.2917 -2.5206 -1.5884 0
M  V30 26 H -4.3229 0.4838 1.3019 0
M  V30 27 H -4.6897 -1.7593 0.3123 0
M  V30 END ATOM
M  V30 BEGIN BOND
M  V30 1 2 1 2
M  V30 2 1 2 3
M  V30 3 1 2 4
M  V30 4 1 3 5
M  V30 5 1 4 6
M  V30 6 1 5 7
M  V30 7 1 6 8
M  V30 8 2 7 9
M  V30 9 1 7 10
M  V30 10 2 8 11
M  V30 11 1 8 12
M  V30 12 1 9 13
M  V30 13 2 10 14
M  V30 14 2 13 15
M  V30 15 1 14 15
M  V30 16 1 4 16
M  V30 17 1 5 17
M  V30 18 1 5 18
M  V30 19 1 6 19
M  V30 20 1 6 20
M  V30 21 1 9 21
M  V30 22 1 10 22
M  V30 23 1 12 23
M  V30 24 1 12 24
M  V30 25 1 13 25
M  V30 26 1 14 26
M  V30 27 1 15 27
M  V30 END BOND
M  V30 END CTAB
M  END
>  <Structure No>
8090

>  <LogS>
-1.88

>  <MMFF94 Energy>
-48.153

$$$$
Compound 8091
Actelion Java MolfileCreator 2.0

  0  0  0  0  0  0              0 V3000
M  V30 BEGIN CTAB
M  V30 COUNTS 33 34 0 0 0
M  V30 BEGIN ATOM
M  V30 1 O -4.6608 -0.3943 0.3943 0
M  V30 2 C -4.4145 0.4365 -0.5215 0
M  V30 3 N -3.0967 0.5349 -1.0786 0
M  V30 4 C -5.5164 1.2903 -1.0588 0
M  V30 5 C -1.9755 -0.2678 -0.5949 0
M  V30 6 C -1.4726 0.2691 0.747 0
M  V30 7 C -0.3032 -0.5346 1.231 0
M  V30 8 C 1.02 -0.4056 0.8568 0
M  V30 9 C -0.3493 -1.6364 2.0796 0
M  V30 10 C 1.7109 -1.402 1.4942 0
M  V30 11 C 1.6514 0.4961 0.0011 0
M  V30 12 N 0.8881 -2.1575 2.2427 0
M  V30 13 C 3.0836 -1.5627 1.3252 0
M  V30 14 C 3.0406 0.3688 -0.1955 0
M  V30 15 C 3.7532 -0.6658 0.4732 0
M  V30 16 O 3.6733 1.2789 -1.0548 0
M  V30 17 C 5.0664 1.271 -1.348 0
M  V30 18 H -2.9407 1.1656 -1.8973 0
M  V30 19 H -6.3879 1.2801 -0.3701 0
M  V30 20 H -5.1613 2.3364 -1.1691 0
M  V30 21 H -5.8322 0.9048 -2.0504 0
M  V30 22 H -2.288 -1.3306 -0.4966 0
M  V30 23 H -1.1503 -0.2212 -1.3392 0
M  V30 24 H -1.1706 1.3327 0.6353 0
M  V30 25 H -2.2847 0.2231 1.5038 0
M  V30 26 H -1.2407 -2.0403 2.542 0
M  V30 27 H 1.0904 1.2738 -0.5012 0
M  V30 28 H 1.1453 -2.9878 2.8213 0
M  V30 29 H 3.6199 -2.3553 1.8312 0
M  V30 30 H 4.8193 -0.7839 0.337 0
M  V30 31 H 5.3509 0.3089 -1.8241 0
M  V30 32 H 5.2932 2.0969 -2.053 0
M  V30 33 H 5.6532 1.426 -0.4181 0
M  V30 END ATOM
M  V30 BEGIN BOND
M  V30 1 2 1 2
M  V30 2 1 2 3
M  V30 3 1 2 4
M  V30 4 1 3 5
M  V30 5 1 5 6
M  V30 6 1 6 7
M  V30 7 1 7 8
M  V30 8 2 7 9
M  V30 9 2 8 10
M  V30 10 1 8 11
M  V30 11 1 9 12
M  V30 12 1 10 13
M  V30 13 2 11 14
M  V30 14 2 13 15
M  V30 15 1 14 16
M  V30 16 1 16 17
M  V30 17 1 10 12
M  V30 18 1 14 15
M  V30 19 1 3 18
M  V30 20 1 4 19
M  V30 21 1 4 20
M  V30 22 1 4 21
M  V30 23 1 5 22
M  V30 24 1 5 23
M  V30 25 1 6 24
M  V30 26 1 6 25
M  V30 27 1 9 26
M  V30 28 1 11 27
M  V30 29 1 12 28
M  V30 30 1 13 29
M  V30 31 1 15 30
M  V30 32 1 17 31
M  V30 33 1 17 32
M  V30 34 1 17 33
M  V30 END BOND
M  V30 END CTAB
M  END
>  <Structure No>
8091

>  <LogS>
-5.09

>  <MMFF94 Energy>
2.9163

$$$$
Compound 8092
Actelion Java MolfileCreator 2.0

  0  0  0  0  0  0              0 V3000
M  V30 BEGIN CTAB
M  V30 COUNTS 48 51 0 0 0
M  V30 BEGIN ATOM
M  V30 1 O 5.8608 -0.0812 -0.4874 0
M  V30 2 C 4.6085 -0.1658 -0.3812 0
M  V30 3 C 3.7441 0.8346 -0.9974 0
M  V30 4 C 3.978 -1.3506 0.2566 0
M  V30 5 C 2.4273 0.8832 -0.7303 0
M  V30 6 C 2.809 -0.8879 1.1253 0
M  V30 7 C 1.7803 0.1006 0.428 0 CFG=2
M  V30 8 C 1.5709 1.6299 -1.7203 0
M  V30 9 C 0.5115 -0.6521 -0.1777 0 CFG=2
M  V30 10 C 1.3897 1.1237 1.5349 0
M  V30 11 C 0.086 1.6834 -1.364 0
M  V30 12 O 0.9643 -1.4856 -1.2288 0
M  V30 13 C -0.5326 0.3459 -0.8546 0 CFG=2
M  V30 14 C -0.2114 -1.553 0.8835 0
M  V30 15 C -1.8239 0.6157 0.0042 0 CFG=2
M  V30 16 C -1.6197 -1.9267 0.43 0
M  V30 17 C -2.5435 -0.6889 0.4654 0 CFG=2
M  V30 18 C -2.9116 1.3891 -0.7852 0
M  V30 19 C -3.6586 -0.8326 -0.5221 0
M  V30 20 C -3.154 -0.5061 1.8737 0
M  V30 21 C -3.8434 0.3492 -1.3932 0
M  V30 22 O -4.3681 -1.8247 -0.5978 0
M  V30 23 H 4.1654 1.4515 -1.7836 0
M  V30 24 H 4.7208 -1.8846 0.8893 0
M  V30 25 H 3.638 -2.0497 -0.533 0
M  V30 26 H 2.3178 -1.7803 1.5524 0
M  V30 27 H 3.2814 -0.3937 2.0057 0
M  V30 28 H 1.9451 2.6728 -1.821 0
M  V30 29 H 1.6751 1.1363 -2.712 0
M  V30 30 H 2.2702 1.7497 1.7993 0
M  V30 31 H 0.59 1.8199 1.2534 0
M  V30 32 H 1.0672 0.6129 2.4656 0
M  V30 33 H -0.0856 2.5116 -0.6469 0
M  V30 34 H -0.4423 1.9954 -2.2908 0
M  V30 35 H 1.4289 -2.274 -0.85 0
M  V30 36 H -0.905 -0.1684 -1.7715 0
M  V30 37 H -0.2719 -1.0514 1.8681 0
M  V30 38 H 0.334 -2.5048 1.0515 0
M  V30 39 H -1.5321 1.2219 0.8879 0
M  V30 40 H -2.0206 -2.732 1.0848 0
M  V30 41 H -1.5632 -2.3517 -0.5977 0
M  V30 42 H -2.5258 2.0715 -1.5659 0
M  V30 43 H -3.4931 2.012 -0.0692 0
M  V30 44 H -3.7345 -1.4064 2.1703 0
M  V30 45 H -3.84 0.3681 1.8957 0
M  V30 46 H -2.3607 -0.3374 2.6315 0
M  V30 47 H -3.5362 0.1006 -2.4318 0
M  V30 48 H -4.898 0.6992 -1.373 0
M  V30 END ATOM
M  V30 BEGIN BOND
M  V30 1 2 1 2
M  V30 2 1 2 3
M  V30 3 1 2 4
M  V30 4 2 3 5
M  V30 5 1 4 6
M  V30 6 1 5 7
M  V30 7 1 5 8
M  V30 8 1 7 9
M  V30 9 1 7 10
M  V30 10 1 8 11
M  V30 11 1 9 12
M  V30 12 1 9 13
M  V30 13 1 9 14
M  V30 14 1 13 15
M  V30 15 1 14 16
M  V30 16 1 15 17
M  V30 17 1 15 18
M  V30 18 1 17 19
M  V30 19 1 17 20
M  V30 20 1 18 21
M  V30 21 2 19 22
M  V30 22 1 6 7
M  V30 23 1 11 13
M  V30 24 1 16 17
M  V30 25 1 19 21
M  V30 26 1 3 23
M  V30 27 1 4 24
M  V30 28 1 4 25
M  V30 29 1 6 26
M  V30 30 1 6 27
M  V30 31 1 8 28
M  V30 32 1 8 29
M  V30 33 1 10 30
M  V30 34 1 10 31
M  V30 35 1 10 32
M  V30 36 1 11 33
M  V30 37 1 11 34
M  V30 38 1 12 35
M  V30 39 1 13 36
M  V30 40 1 14 37
M  V30 41 1 14 38
M  V30 42 1 15 39
M  V30 43 1 16 40
M  V30 44 1 16 41
M  V30 45 1 18 42
M  V30 46 1 18 43
M  V30 47 1 20 44
M  V30 48 1 20 45
M  V30 49 1 20 46
M  V30 50 1 21 47
M  V30 51 1 21 48
M  V30 END BOND
M  V30 BEGIN COLLECTION
M  V30 MDLV30/STEABS ATOMS=(5 7 9 13 15 17)
M  V30 END COLLECTION
M  V30 END CTAB
M  END
>  <Structure No>
8092

>  <LogS>
-2.68

>  <MMFF94 Energy>
86.001

$$$$
Compound 8093
Actelion Java MolfileCreator 2.0

  0  0  0  0  0  0              0 V3000
M  V30 BEGIN CTAB
M  V30 COUNTS 29 29 0 0 0
M  V30 BEGIN ATOM
M  V30 1 O 0.7188 1.6778 -1.5979 0
M  V30 2 C 1.2181 0.9346 -0.7094 0
M  V30 3 N 0.4587 -0.1777 -0.2209 0
M  V30 4 C 2.5834 1.219 -0.2043 0
M  V30 5 N -0.8835 -0.3301 -0.6129 0
M  V30 6 C 2.9976 0.7839 1.0668 0
M  V30 7 C 3.4841 1.9584 -0.9898 0
M  V30 8 C -1.6595 -1.3031 -0.2268 0
M  V30 9 C 4.2894 1.0768 1.5114 0
M  V30 10 C 4.7666 2.2276 -0.5062 0
M  V30 11 C -3.0776 -1.3321 -0.7355 0
M  V30 12 C -1.1736 -2.385 0.7012 0
M  V30 13 N 5.1395 1.7846 0.7227 0
M  V30 14 C -3.9119 -0.1804 -0.1621 0
M  V30 15 C -4.1008 -0.3246 1.317 0
M  V30 16 O -3.3468 0.2915 2.1154 0
M  V30 17 O -5.0809 -1.1746 1.813 0 CHG=-1
M  V30 18 H 0.9251 -0.8924 0.3787 0
M  V30 19 H 2.3294 0.2455 1.7253 0
M  V30 20 H 3.2035 2.3157 -1.9728 0
M  V30 21 H 4.6138 0.7463 2.4891 0
M  V30 22 H 5.4663 2.7903 -1.1095 0
M  V30 23 H -3.571 -2.2989 -0.4948 0
M  V30 24 H -3.0592 -1.2477 -1.8435 0
M  V30 25 H -1.9795 -3.1111 0.9357 0
M  V30 26 H -0.8331 -1.9347 1.6572 0
M  V30 27 H -0.3358 -2.9389 0.2285 0
M  V30 28 H -4.9103 -0.1821 -0.6495 0
M  V30 29 H -3.4304 0.7952 -0.3922 0
M  V30 END ATOM
M  V30 BEGIN BOND
M  V30 1 2 1 2
M  V30 2 1 2 3
M  V30 3 1 2 4
M  V30 4 1 3 5
M  V30 5 2 4 6
M  V30 6 1 4 7
M  V30 7 2 5 8
M  V30 8 1 6 9
M  V30 9 2 7 10
M  V30 10 1 8 11
M  V30 11 1 8 12
M  V30 12 2 9 13
M  V30 13 1 11 14
M  V30 14 1 14 15
M  V30 15 2 15 16
M  V30 16 1 15 17
M  V30 17 1 10 13
M  V30 18 1 3 18
M  V30 19 1 6 19
M  V30 20 1 7 20
M  V30 21 1 9 21
M  V30 22 1 10 22
M  V30 23 1 11 23
M  V30 24 1 11 24
M  V30 25 1 12 25
M  V30 26 1 12 26
M  V30 27 1 12 27
M  V30 28 1 14 28
M  V30 29 1 14 29
M  V30 END BOND
M  V30 END CTAB
M  END
>  <Structure No>
8093

>  <LogS>
-1.59

>  <MMFF94 Energy>
42.653

$$$$
Compound 8094
Actelion Java MolfileCreator 2.0

  0  0  0  0  0  0              0 V3000
M  V30 BEGIN CTAB
M  V30 COUNTS 32 32 0 0 0
M  V30 BEGIN ATOM
M  V30 1 O -4.1409 -1.5115 1.6707 0
M  V30 2 C -3.0954 -1.0379 1.1519 0
M  V30 3 N -2.8467 -1.2178 -0.2385 0
M  V30 4 N -2.1582 -0.3311 1.9582 0
M  V30 5 C -1.6775 -0.6791 -0.8614 0
M  V30 6 C -0.9692 0.2319 1.3973 0
M  V30 7 O -1.4847 -0.904 -2.0876 0
M  V30 8 C -0.68 0.1838 -0.0979 0
M  V30 9 O -0.151 0.8099 2.1642 0
M  V30 10 C 0.7124 -0.4663 -0.2707 0
M  V30 11 C -0.7765 1.6404 -0.6548 0
M  V30 12 C 1.7592 0.1768 -0.8568 0
M  V30 13 C 0.8894 -1.8884 0.2322 0
M  V30 14 C -2.1577 2.2878 -0.4822 0
M  V30 15 C 3.1483 -0.3986 -0.9965 0
M  V30 16 C 4.0014 -0.0576 0.2211 0
M  V30 17 H -3.5277 -1.7639 -0.813 0
M  V30 18 H -2.3379 -0.2317 2.983 0
M  V30 19 H -0.0359 2.2919 -0.1398 0
M  V30 20 H -0.5387 1.6463 -1.7416 0
M  V30 21 H 1.6533 1.185 -1.2352 0
M  V30 22 H 1.1258 -2.5648 -0.6155 0
M  V30 23 H -0.036 -2.2696 0.7122 0
M  V30 24 H 1.6992 -1.936 0.9881 0
M  V30 25 H -2.937 1.7098 -1.0214 0
M  V30 26 H -2.1368 3.3152 -0.9033 0
M  V30 27 H -2.4306 2.3607 0.5913 0
M  V30 28 H 3.6259 0.0493 -1.8943 0
M  V30 29 H 3.1296 -1.4962 -1.1574 0
M  V30 30 H 4.081 1.0446 0.3369 0
M  V30 31 H 3.5613 -0.4873 1.1447 0
M  V30 32 H 5.0218 -0.4747 0.0879 0
M  V30 END ATOM
M  V30 BEGIN BOND
M  V30 1 2 1 2
M  V30 2 1 2 3
M  V30 3 1 2 4
M  V30 4 1 3 5
M  V30 5 1 4 6
M  V30 6 2 5 7
M  V30 7 1 5 8
M  V30 8 2 6 9
M  V30 9 1 8 10
M  V30 10 1 8 11
M  V30 11 2 10 12
M  V30 12 1 10 13
M  V30 13 1 11 14
M  V30 14 1 12 15
M  V30 15 1 15 16
M  V30 16 1 6 8
M  V30 17 1 3 17
M  V30 18 1 4 18
M  V30 19 1 11 19
M  V30 20 1 11 20
M  V30 21 1 12 21
M  V30 22 1 13 22
M  V30 23 1 13 23
M  V30 24 1 13 24
M  V30 25 1 14 25
M  V30 26 1 14 26
M  V30 27 1 14 27
M  V30 28 1 15 28
M  V30 29 1 15 29
M  V30 30 1 16 30
M  V30 31 1 16 31
M  V30 32 1 16 32
M  V30 END BOND
M  V30 END CTAB
M  END
>  <Structure No>
8094

>  <LogS>
-2.31

>  <MMFF94 Energy>
-80.687

$$$$
Compound 8095
Actelion Java MolfileCreator 2.0

  0  0  0  0  0  0              0 V3000
M  V30 BEGIN CTAB
M  V30 COUNTS 32 32 0 0 0
M  V30 BEGIN ATOM
M  V30 1 S -2.7366 -3.9458 0.7238 0
M  V30 2 C -2.0738 -2.4771 0.4358 0
M  V30 3 N -1.3607 -2.2386 -0.7749 0
M  V30 4 N -2.2852 -1.4033 1.3508 0
M  V30 5 C -0.8262 -0.9418 -1.0517 0
M  V30 6 C -1.6407 -0.1383 1.1629 0
M  V30 7 O -0.5403 -0.6506 -2.2443 0
M  V30 8 C -0.5815 0.0586 0.0782 0
M  V30 9 O -1.8585 0.7794 2.0007 0
M  V30 10 C 0.7914 -0.248 0.77 0
M  V30 11 C -0.6335 1.5284 -0.4581 0
M  V30 12 C 2.1059 0.2212 0.0831 0
M  V30 13 C -1.9841 1.9538 -1.0745 0
M  V30 14 C 3.2905 -0.0258 1.0311 0
M  V30 15 C 2.3733 -0.4798 -1.2567 0
M  V30 16 O -2.9399 2.2258 -0.0861 0
M  V30 17 H -1.3219 -2.9788 -1.5116 0
M  V30 18 H -2.9075 -1.5418 2.179 0
M  V30 19 H 0.861 -1.3416 0.97 0
M  V30 20 H 0.7792 0.2387 1.7724 0
M  V30 21 H 0.1309 1.6561 -1.2531 0
M  V30 22 H -0.3628 2.2396 0.3532 0
M  V30 23 H 2.0675 1.3178 -0.0896 0
M  V30 24 H -2.3795 1.1645 -1.7454 0
M  V30 25 H -1.8299 2.861 -1.7025 0
M  V30 26 H 4.2323 0.3583 0.5837 0
M  V30 27 H 3.4076 -1.1119 1.2365 0
M  V30 28 H 3.1354 0.5067 1.9938 0
M  V30 29 H 3.4378 -0.37 -1.5557 0
M  V30 30 H 2.1366 -1.5635 -1.1942 0
M  V30 31 H 1.7808 -0.0065 -2.062 0
M  V30 32 H -2.6944 3.1004 0.3144 0
M  V30 END ATOM
M  V30 BEGIN BOND
M  V30 1 2 1 2
M  V30 2 1 2 3
M  V30 3 1 2 4
M  V30 4 1 3 5
M  V30 5 1 4 6
M  V30 6 2 5 7
M  V30 7 1 5 8
M  V30 8 2 6 9
M  V30 9 1 8 10
M  V30 10 1 8 11
M  V30 11 1 10 12
M  V30 12 1 11 13
M  V30 13 1 12 14
M  V30 14 1 12 15
M  V30 15 1 13 16
M  V30 16 1 6 8
M  V30 17 1 3 17
M  V30 18 1 4 18
M  V30 19 1 10 19
M  V30 20 1 10 20
M  V30 21 1 11 21
M  V30 22 1 11 22
M  V30 23 1 12 23
M  V30 24 1 13 24
M  V30 25 1 13 25
M  V30 26 1 14 26
M  V30 27 1 14 27
M  V30 28 1 14 28
M  V30 29 1 15 29
M  V30 30 1 15 30
M  V30 31 1 15 31
M  V30 32 1 16 32
M  V30 END BOND
M  V30 END CTAB
M  END
>  <Structure No>
8095

>  <LogS>
-2.62

>  <MMFF94 Energy>
-99.755

$$$$
Compound 8096
Actelion Java MolfileCreator 2.0

  0  0  0  0  0  0              0 V3000
M  V30 BEGIN CTAB
M  V30 COUNTS 37 38 0 0 0
M  V30 BEGIN ATOM
M  V30 1 S -0.2444 0.0814 1.1411 0
M  V30 2 O -0.4422 -0.898 2.265 0
M  V30 3 O -0.7374 1.4267 1.5943 0
M  V30 4 C -1.1382 -0.471 -0.3365 0
M  V30 5 C 1.5184 0.2122 0.8203 0
M  V30 6 C -2.1745 -1.5694 -0.0247 0
M  V30 7 C -1.7775 0.697 -1.1223 0
M  V30 8 C 2.1575 -1.1847 0.6213 0
M  V30 9 C 1.8015 1.1395 -0.3731 0
M  V30 10 C -3.4299 -1.0053 0.6493 0
M  V30 11 C -3.0865 1.2122 -0.4984 0
M  V30 12 C 3.4261 -1.1565 -0.2549 0
M  V30 13 C 3.3148 1.3678 -0.5645 0
M  V30 14 C -4.072 0.0723 -0.2271 0
M  V30 15 C 4.1794 0.1705 -0.1186 0
M  V30 16 H -0.3839 -0.9338 -1.007 0
M  V30 17 H 1.9753 0.6765 1.7228 0
M  V30 18 H -2.4721 -2.0639 -0.976 0
M  V30 19 H -1.7246 -2.3574 0.616 0
M  V30 20 H -1.9976 0.3485 -2.1555 0
M  V30 21 H -1.0572 1.5377 -1.2114 0
M  V30 22 H 1.4352 -1.8898 0.1576 0
M  V30 23 H 2.4154 -1.5991 1.6204 0
M  V30 24 H 1.3858 0.6882 -1.2998 0
M  V30 25 H 1.3028 2.1214 -0.2209 0
M  V30 26 H -3.1728 -0.5805 1.644 0
M  V30 27 H -4.1594 -1.8283 0.8085 0
M  V30 28 H -3.5573 1.9375 -1.1965 0
M  V30 29 H -2.8838 1.7557 0.4464 0
M  V30 30 H 3.1437 -1.3023 -1.3211 0
M  V30 31 H 4.0948 -1.9961 0.033 0
M  V30 32 H 3.5081 1.5827 -1.6381 0
M  V30 33 H 3.6277 2.2654 0.0124 0
M  V30 34 H -4.4031 -0.3739 -1.1906 0
M  V30 35 H -4.9691 0.4782 0.2884 0
M  V30 36 H 5.1079 0.1358 -0.7285 0
M  V30 37 H 4.4809 0.3053 0.9437 0
M  V30 END ATOM
M  V30 BEGIN BOND
M  V30 1 2 1 2
M  V30 2 2 1 3
M  V30 3 1 1 4
M  V30 4 1 1 5
M  V30 5 1 4 6
M  V30 6 1 4 7
M  V30 7 1 5 8
M  V30 8 1 5 9
M  V30 9 1 6 10
M  V30 10 1 7 11
M  V30 11 1 8 12
M  V30 12 1 9 13
M  V30 13 1 10 14
M  V30 14 1 12 15
M  V30 15 1 11 14
M  V30 16 1 13 15
M  V30 17 1 4 16
M  V30 18 1 5 17
M  V30 19 1 6 18
M  V30 20 1 6 19
M  V30 21 1 7 20
M  V30 22 1 7 21
M  V30 23 1 8 22
M  V30 24 1 8 23
M  V30 25 1 9 24
M  V30 26 1 9 25
M  V30 27 1 10 26
M  V30 28 1 10 27
M  V30 29 1 11 28
M  V30 30 1 11 29
M  V30 31 1 12 30
M  V30 32 1 12 31
M  V30 33 1 13 32
M  V30 34 1 13 33
M  V30 35 1 14 34
M  V30 36 1 14 35
M  V30 37 1 15 36
M  V30 38 1 15 37
M  V30 END BOND
M  V30 END CTAB
M  END
>  <Structure No>
8096

>  <LogS>
-2.06

>  <MMFF94 Energy>
5.6583

$$$$
Compound 8097
Actelion Java MolfileCreator 2.0

  0  0  0  0  0  0              0 V3000
M  V30 BEGIN CTAB
M  V30 COUNTS 29 29 0 0 0
M  V30 BEGIN ATOM
M  V30 1 S -0.9667 4.5177 0.8056 0
M  V30 2 C -0.6172 2.9549 0.4669 0
M  V30 3 N -0.0949 2.5998 -0.8113 0
M  V30 4 N -0.7615 1.9559 1.4734 0
M  V30 5 C 0.1688 1.2343 -1.1476 0
M  V30 6 C -0.4471 0.5885 1.1983 0
M  V30 7 O 0.6788 0.9764 -2.2725 0
M  V30 8 C -0.2614 0.0906 -0.2321 0
M  V30 9 O -0.3838 -0.2235 2.1618 0
M  V30 10 C -1.6225 -0.4239 -0.7958 0
M  V30 11 C 0.8162 -1.0419 -0.275 0
M  V30 12 C -2.344 -1.5126 0.0237 0
M  V30 13 C 2.2225 -0.5771 0.1557 0
M  V30 14 O -2.9281 -0.9775 1.1808 0
M  V30 15 C 3.2171 -1.7342 0.1236 0
M  V30 16 H 0.1063 3.3466 -1.5143 0
M  V30 17 H -1.0408 2.2315 2.4422 0
M  V30 18 H -1.4544 -0.8308 -1.8179 0
M  V30 19 H -2.3224 0.434 -0.9159 0
M  V30 20 H 0.8774 -1.4584 -1.3049 0
M  V30 21 H 0.518 -1.8793 0.3897 0
M  V30 22 H -3.1345 -1.9769 -0.6092 0
M  V30 23 H -1.6528 -2.3288 0.3088 0
M  V30 24 H 2.5919 0.2197 -0.5234 0
M  V30 25 H 2.1917 -0.167 1.1875 0
M  V30 26 H -3.7261 -0.4645 0.8878 0
M  V30 27 H 3.2915 -2.1503 -0.9035 0
M  V30 28 H 4.2199 -1.3713 0.4332 0
M  V30 29 H 2.8989 -2.5366 0.823 0
M  V30 END ATOM
M  V30 BEGIN BOND
M  V30 1 2 1 2
M  V30 2 1 2 3
M  V30 3 1 2 4
M  V30 4 1 3 5
M  V30 5 1 4 6
M  V30 6 2 5 7
M  V30 7 1 5 8
M  V30 8 2 6 9
M  V30 9 1 8 10
M  V30 10 1 8 11
M  V30 11 1 10 12
M  V30 12 1 11 13
M  V30 13 1 12 14
M  V30 14 1 13 15
M  V30 15 1 6 8
M  V30 16 1 3 16
M  V30 17 1 4 17
M  V30 18 1 10 18
M  V30 19 1 10 19
M  V30 20 1 11 20
M  V30 21 1 11 21
M  V30 22 1 12 22
M  V30 23 1 12 23
M  V30 24 1 13 24
M  V30 25 1 13 25
M  V30 26 1 14 26
M  V30 27 1 15 27
M  V30 28 1 15 28
M  V30 29 1 15 29
M  V30 END BOND
M  V30 END CTAB
M  END
>  <Structure No>
8097

>  <LogS>
-1.61

>  <MMFF94 Energy>
-104.15

$$$$
Compound 8098
Actelion Java MolfileCreator 2.0

  0  0  0  0  0  0              0 V3000
M  V30 BEGIN CTAB
M  V30 COUNTS 33 34 0 0 0
M  V30 BEGIN ATOM
M  V30 1 O -5.2452 -1.1902 0.6346 0
M  V30 2 C -4.8234 -0.1111 0.2441 0
M  V30 3 C -3.3685 0.0698 -0.1181 0
M  V30 4 C -5.7731 1.0418 0.1269 0
M  V30 5 C -2.539 -1.2093 0.0616 0
M  V30 6 C -1.1016 -0.9641 -0.3141 0
M  V30 7 C -0.1908 -0.4933 0.6452 0
M  V30 8 C -0.6768 -1.15 -1.639 0
M  V30 9 C 1.1415 -0.232 0.2903 0
M  V30 10 C 0.6479 -0.8926 -2.0009 0
M  V30 11 C 1.5651 -0.4351 -1.0437 0
M  V30 12 C 2.0578 0.2313 1.2451 0
M  V30 13 C 2.8974 -0.1728 -1.3978 0
M  V30 14 C 3.3827 0.4895 0.883 0
M  V30 15 C 3.8116 0.2886 -0.443 0
M  V30 16 O 5.1312 0.5346 -0.8509 0
M  V30 17 C 6.1645 1.0047 0.0087 0
M  V30 18 H -2.9439 0.8744 0.5211 0
M  V30 19 H -3.3079 0.3995 -1.1783 0
M  V30 20 H -6.2176 1.2608 1.1204 0
M  V30 21 H -5.2496 1.9509 -0.2382 0
M  V30 22 H -6.5837 0.7856 -0.5871 0
M  V30 23 H -2.9595 -2.0211 -0.5723 0
M  V30 24 H -2.5971 -1.5484 1.1196 0
M  V30 25 H -0.5225 -0.3302 1.6646 0
M  V30 26 H -1.3739 -1.4936 -2.3933 0
M  V30 27 H 0.9539 -1.0477 -3.0288 0
M  V30 28 H 1.7501 0.3934 2.2715 0
M  V30 29 H 3.2312 -0.3251 -2.4177 0
M  V30 30 H 4.0658 0.8455 1.6421 0
M  V30 31 H 7.1017 1.1101 -0.575 0
M  V30 32 H 6.3374 0.2782 0.8307 0
M  V30 33 H 5.892 1.9971 0.4262 0
M  V30 END ATOM
M  V30 BEGIN BOND
M  V30 1 2 1 2
M  V30 2 1 2 3
M  V30 3 1 2 4
M  V30 4 1 3 5
M  V30 5 1 5 6
M  V30 6 2 6 7
M  V30 7 1 6 8
M  V30 8 1 7 9
M  V30 9 2 8 10
M  V30 10 1 9 11
M  V30 11 2 9 12
M  V30 12 2 11 13
M  V30 13 1 12 14
M  V30 14 1 13 15
M  V30 15 1 15 16
M  V30 16 1 16 17
M  V30 17 1 10 11
M  V30 18 2 14 15
M  V30 19 1 3 18
M  V30 20 1 3 19
M  V30 21 1 4 20
M  V30 22 1 4 21
M  V30 23 1 4 22
M  V30 24 1 5 23
M  V30 25 1 5 24
M  V30 26 1 7 25
M  V30 27 1 8 26
M  V30 28 1 10 27
M  V30 29 1 12 28
M  V30 30 1 13 29
M  V30 31 1 14 30
M  V30 32 1 17 31
M  V30 33 1 17 32
M  V30 34 1 17 33
M  V30 END BOND
M  V30 END CTAB
M  END
>  <Structure No>
8098

>  <LogS>
-1.46

>  <MMFF94 Energy>
34.972

$$$$
Compound 8099
Actelion Java MolfileCreator 2.0

  0  0  0  0  0  0              0 V3000
M  V30 BEGIN CTAB
M  V30 COUNTS 27 27 0 0 0
M  V30 BEGIN ATOM
M  V30 1 O -0.2391 -0.7176 -1.6751 0
M  V30 2 C 0.1496 -0.2823 -0.5569 0
M  V30 3 N -0.8172 0.1191 0.4344 0
M  V30 4 C 1.6041 -0.2017 -0.2819 0
M  V30 5 C -2.2708 0.1858 0.1891 0
M  V30 6 C 2.4961 -1.0521 -0.9616 0
M  V30 7 C 2.1214 0.7351 0.6332 0
M  V30 8 C -2.5599 1.0359 -1.0303 0
M  V30 9 C -2.8256 -1.242 0.0119 0
M  V30 10 C -2.9637 0.8385 1.3998 0
M  V30 11 C 3.8705 -0.9808 -0.7151 0
M  V30 12 C 3.4971 0.8026 0.8748 0
M  V30 13 O -1.8749 2.0689 -1.2575 0
M  V30 14 O -3.6285 0.7357 -1.8683 0 CHG=-1
M  V30 15 C 4.3704 -0.056 0.204 0
M  V30 16 H -0.4728 0.3095 1.4026 0
M  V30 17 H 2.1293 -1.7796 -1.6751 0
M  V30 18 H 1.4727 1.4338 1.1443 0
M  V30 19 H -3.9353 -1.2304 -0.053 0
M  V30 20 H -2.4345 -1.7147 -0.9123 0
M  V30 21 H -2.5346 -1.8763 0.877 0
M  V30 22 H -2.7949 0.2352 2.318 0
M  V30 23 H -2.5576 1.8584 1.5753 0
M  V30 24 H -4.0597 0.9212 1.2311 0
M  V30 25 H 4.5484 -1.6433 -1.2375 0
M  V30 26 H 3.8872 1.5271 1.5782 0
M  V30 27 H 5.4348 -0.001 0.3923 0
M  V30 END ATOM
M  V30 BEGIN BOND
M  V30 1 2 1 2
M  V30 2 1 2 3
M  V30 3 1 2 4
M  V30 4 1 3 5
M  V30 5 2 4 6
M  V30 6 1 4 7
M  V30 7 1 5 8
M  V30 8 1 5 9
M  V30 9 1 5 10
M  V30 10 1 6 11
M  V30 11 2 7 12
M  V30 12 2 8 13
M  V30 13 1 8 14
M  V30 14 2 11 15
M  V30 15 1 12 15
M  V30 16 1 3 16
M  V30 17 1 6 17
M  V30 18 1 7 18
M  V30 19 1 9 19
M  V30 20 1 9 20
M  V30 21 1 9 21
M  V30 22 1 10 22
M  V30 23 1 10 23
M  V30 24 1 10 24
M  V30 25 1 11 25
M  V30 26 1 12 26
M  V30 27 1 15 27
M  V30 END BOND
M  V30 END CTAB
M  END
>  <Structure No>
8099

>  <LogS>
-0.76

>  <MMFF94 Energy>
73.481

$$$$
Compound 8100
Actelion Java MolfileCreator 2.0

  0  0  0  0  0  0              0 V3000
M  V30 BEGIN CTAB
M  V30 COUNTS 25 26 0 0 0
M  V30 BEGIN ATOM
M  V30 1 O -2.1864 2.9971 -0.4046 0
M  V30 2 C -2.2375 1.7792 -0.7185 0
M  V30 3 O -3.3005 1.1924 -1.3898 0
M  V30 4 C -1.2249 0.7874 -0.4462 0
M  V30 5 C -3.0443 -0.2003 -1.5913 0
M  V30 6 C 0.0095 0.8995 0.1987 0
M  V30 7 C -1.6924 -0.3971 -0.9606 0
M  V30 8 O 0.3852 2.1643 0.6864 0
M  V30 9 C 0.801 -0.2793 0.3161 0
M  V30 10 C -0.9379 -1.5652 -0.8593 0
M  V30 11 C 1.5953 2.4769 1.3665 0
M  V30 12 O 2.0493 -0.2211 0.9552 0
M  V30 13 C 0.3113 -1.5025 -0.2186 0
M  V30 14 C -1.4222 -2.8107 -1.3967 0
M  V30 15 C 2.9269 -1.3283 1.1326 0
M  V30 16 N -1.8117 -3.8112 -1.8286 0
M  V30 17 H -3.01 -0.4314 -2.6768 0
M  V30 18 H -3.8133 -0.8111 -1.0729 0
M  V30 19 H 2.468 2.2761 0.7103 0
M  V30 20 H 1.6665 1.8972 2.3108 0
M  V30 21 H 1.5944 3.5564 1.6217 0
M  V30 22 H 0.8967 -2.409 -0.14 0
M  V30 23 H 2.4318 -2.1151 1.7402 0
M  V30 24 H 3.8358 -0.9866 1.6687 0
M  V30 25 H 3.2302 -1.7377 0.146 0
M  V30 END ATOM
M  V30 BEGIN BOND
M  V30 1 2 1 2
M  V30 2 1 2 3
M  V30 3 1 2 4
M  V30 4 1 3 5
M  V30 5 2 4 6
M  V30 6 1 4 7
M  V30 7 1 6 8
M  V30 8 1 6 9
M  V30 9 2 7 10
M  V30 10 1 8 11
M  V30 11 1 9 12
M  V30 12 2 9 13
M  V30 13 1 10 14
M  V30 14 1 12 15
M  V30 15 3 14 16
M  V30 16 1 5 7
M  V30 17 1 10 13
M  V30 18 1 5 17
M  V30 19 1 5 18
M  V30 20 1 11 19
M  V30 21 1 11 20
M  V30 22 1 11 21
M  V30 23 1 13 22
M  V30 24 1 15 23
M  V30 25 1 15 24
M  V30 26 1 15 25
M  V30 END BOND
M  V30 END CTAB
M  END
>  <Structure No>
8100

>  <LogS>
-3.48

>  <MMFF94 Energy>
46.84

$$$$
Compound 8101
Actelion Java MolfileCreator 2.0

  0  0  0  0  0  0              0 V3000
M  V30 BEGIN CTAB
M  V30 COUNTS 27 28 0 0 0
M  V30 BEGIN ATOM
M  V30 1 O -1.7816 -2.5112 -1.0525 0
M  V30 2 C -1.4855 -1.7884 -0.064 0
M  V30 3 O -0.6694 -2.3145 0.9302 0 CHG=-1
M  V30 4 C -2.0411 -0.4169 0.0517 0
M  V30 5 C -1.4089 0.602 0.8153 0
M  V30 6 C -3.2632 -0.1289 -0.5858 0
M  V30 7 C -0.0767 0.4264 1.4351 0
M  V30 8 C -2.0421 1.8473 0.9645 0
M  V30 9 C -3.8661 1.1218 -0.443 0
M  V30 10 O 0.0365 0.6136 2.6771 0
M  V30 11 C 1.1257 0.0795 0.6334 0
M  V30 12 C -3.2617 2.1045 0.3382 0
M  V30 13 C 1.1408 0.2465 -0.7648 0
M  V30 14 C 2.2806 -0.4108 1.2703 0
M  V30 15 C 2.2787 -0.0841 -1.5063 0
M  V30 16 C 3.4165 -0.7402 0.5252 0
M  V30 17 C 3.4176 -0.5788 -0.8655 0
M  V30 18 O 4.5436 -0.9048 -1.618 0
M  V30 19 H -3.7685 -0.8827 -1.1771 0
M  V30 20 H -1.576 2.6322 1.5482 0
M  V30 21 H -4.8104 1.3256 -0.9313 0
M  V30 22 H -3.7345 3.0717 0.4514 0
M  V30 23 H 0.2787 0.6407 -1.2872 0
M  V30 24 H 2.3024 -0.5497 2.3441 0
M  V30 25 H 2.2761 0.0476 -2.5808 0
M  V30 26 H 4.2948 -1.1217 1.0301 0
M  V30 27 H 5.3848 -1.2651 -1.1829 0
M  V30 END ATOM
M  V30 BEGIN BOND
M  V30 1 2 1 2
M  V30 2 1 2 3
M  V30 3 1 2 4
M  V30 4 2 4 5
M  V30 5 1 4 6
M  V30 6 1 5 7
M  V30 7 1 5 8
M  V30 8 2 6 9
M  V30 9 2 7 10
M  V30 10 1 7 11
M  V30 11 2 8 12
M  V30 12 2 11 13
M  V30 13 1 11 14
M  V30 14 1 13 15
M  V30 15 2 14 16
M  V30 16 2 15 17
M  V30 17 1 17 18
M  V30 18 1 9 12
M  V30 19 1 16 17
M  V30 20 1 6 19
M  V30 21 1 8 20
M  V30 22 1 9 21
M  V30 23 1 12 22
M  V30 24 1 13 23
M  V30 25 1 14 24
M  V30 26 1 15 25
M  V30 27 1 16 26
M  V30 28 1 18 27
M  V30 END BOND
M  V30 END CTAB
M  END
>  <Structure No>
8101

>  <LogS>
-2.73

>  <MMFF94 Energy>
63.934

$$$$
Compound 8102
Actelion Java MolfileCreator 2.0

  0  0  0  0  0  0              0 V3000
M  V30 BEGIN CTAB
M  V30 COUNTS 22 22 0 0 0
M  V30 BEGIN ATOM
M  V30 1 S 1.4815 -1.3992 -1.1521 0
M  V30 2 O 2.0215 -0.6069 -2.3099 0
M  V30 3 O 1.1392 -2.7834 -1.6243 0
M  V30 4 N 2.6986 -1.5046 0.0767 0 CHG=-1
M  V30 5 C 0.0292 -0.6428 -0.505 0
M  V30 6 C 3.269 -0.3787 0.7518 0
M  V30 7 C -0.7482 0.2021 -1.3087 0
M  V30 8 C -0.3592 -0.8895 0.8183 0
M  V30 9 O 4.1343 -0.5769 1.6439 0
M  V30 10 N 2.8803 0.9609 0.4388 0
M  V30 11 C -1.8995 0.8025 -0.7899 0
M  V30 12 C -1.5101 -0.289 1.3374 0
M  V30 13 C -2.2854 0.5607 0.536 0
M  V30 14 N -3.4626 1.1751 1.0668 0
M  V30 15 H -0.4651 0.397 -2.335 0
M  V30 16 H 0.2284 -1.5452 1.448 0
M  V30 17 H 3.3085 1.7604 0.956 0
M  V30 18 H 2.1797 1.1751 -0.3024 0
M  V30 19 H -2.4904 1.455 -1.4205 0
M  V30 20 H -1.7978 -0.4861 2.3625 0
M  V30 21 H -3.7583 1.0007 2.0532 0
M  V30 22 H -4.0468 1.8092 0.4775 0
M  V30 END ATOM
M  V30 BEGIN BOND
M  V30 1 2 1 2
M  V30 2 2 1 3
M  V30 3 1 1 4
M  V30 4 1 1 5
M  V30 5 1 4 6
M  V30 6 2 5 7
M  V30 7 1 5 8
M  V30 8 2 6 9
M  V30 9 1 6 10
M  V30 10 1 7 11
M  V30 11 2 8 12
M  V30 12 2 11 13
M  V30 13 1 13 14
M  V30 14 1 12 13
M  V30 15 1 7 15
M  V30 16 1 8 16
M  V30 17 1 10 17
M  V30 18 1 10 18
M  V30 19 1 11 19
M  V30 20 1 12 20
M  V30 21 1 14 21
M  V30 22 1 14 22
M  V30 END BOND
M  V30 END CTAB
M  END
>  <Structure No>
8102

>  <LogS>
-1.97

>  <MMFF94 Energy>
-18.797

$$$$
Compound 8103
Actelion Java MolfileCreator 2.0

  0  0  0  0  0  0              0 V3000
M  V30 BEGIN CTAB
M  V30 COUNTS 34 34 0 0 0
M  V30 BEGIN ATOM
M  V30 1 O -1.7381 -0.2368 2.0544 0
M  V30 2 C -1.687 -0.1572 0.7974 0
M  V30 3 N -0.4151 -0.0322 0.1307 0
M  V30 4 C -2.9482 -0.2199 0.0201 0
M  V30 5 C 0.8569 0.3219 0.7927 0
M  V30 6 C -4.0889 -0.8308 0.574 0
M  V30 7 C -3.0377 0.3491 -1.2647 0
M  V30 8 C 1.9087 0.585 -0.2704 0
M  V30 9 C 0.6969 1.613 1.6196 0
M  V30 10 C 1.3066 -0.8371 1.7054 0
M  V30 11 C -5.2841 -0.8883 -0.1492 0
M  V30 12 C -4.2361 0.2894 -1.983 0
M  V30 13 O 1.6497 1.3806 -1.2161 0
M  V30 14 O 3.17 -0.0173 -0.1898 0
M  V30 15 C -5.3571 -0.3307 -1.4274 0
M  V30 16 C 4.1937 0.2092 -1.1523 0
M  V30 17 C 5.4302 -0.5914 -0.7773 0
M  V30 18 H -0.3883 -0.2725 -0.8864 0
M  V30 19 H -4.0537 -1.2734 1.5618 0
M  V30 20 H -2.194 0.8608 -1.7083 0
M  V30 21 H 0.2606 2.4213 0.9941 0
M  V30 22 H 1.6836 1.9556 2.0007 0
M  V30 23 H 0.0377 1.4574 2.4979 0
M  V30 24 H 1.414 -1.7716 1.1139 0
M  V30 25 H 0.575 -1.0232 2.5172 0
M  V30 26 H 2.2819 -0.6045 2.1854 0
M  V30 27 H -6.1546 -1.3656 0.282 0
M  V30 28 H -4.2972 0.7308 -2.9693 0
M  V30 29 H -6.2837 -0.3748 -1.9851 0
M  V30 30 H 4.4504 1.2904 -1.1799 0
M  V30 31 H 3.841 -0.1086 -2.1574 0
M  V30 32 H 6.2313 -0.4171 -1.5261 0
M  V30 33 H 5.1875 -1.6748 -0.7533 0
M  V30 34 H 5.7963 -0.2772 0.223 0
M  V30 END ATOM
M  V30 BEGIN BOND
M  V30 1 2 1 2
M  V30 2 1 2 3
M  V30 3 1 2 4
M  V30 4 1 3 5
M  V30 5 2 4 6
M  V30 6 1 4 7
M  V30 7 1 5 8
M  V30 8 1 5 9
M  V30 9 1 5 10
M  V30 10 1 6 11
M  V30 11 2 7 12
M  V30 12 2 8 13
M  V30 13 1 8 14
M  V30 14 2 11 15
M  V30 15 1 14 16
M  V30 16 1 16 17
M  V30 17 1 12 15
M  V30 18 1 3 18
M  V30 19 1 6 19
M  V30 20 1 7 20
M  V30 21 1 9 21
M  V30 22 1 9 22
M  V30 23 1 9 23
M  V30 24 1 10 24
M  V30 25 1 10 25
M  V30 26 1 10 26
M  V30 27 1 11 27
M  V30 28 1 12 28
M  V30 29 1 15 29
M  V30 30 1 16 30
M  V30 31 1 16 31
M  V30 32 1 17 32
M  V30 33 1 17 33
M  V30 34 1 17 34
M  V30 END BOND
M  V30 END CTAB
M  END
>  <Structure No>
8103

>  <LogS>
-1.19

>  <MMFF94 Energy>
43.657

$$$$
Compound 8104
Actelion Java MolfileCreator 2.0

  0  0  0  0  0  0              0 V3000
M  V30 BEGIN CTAB
M  V30 COUNTS 29 29 0 0 0
M  V30 BEGIN ATOM
M  V30 1 O -2.5343 -0.8706 0.7122 0
M  V30 2 C -2.8448 -0.3224 -0.3814 0
M  V30 3 O -1.9318 0.4941 -1.0592 0
M  V30 4 O -4.1283 -0.481 -0.9138 0
M  V30 5 C -0.5495 0.539 -0.8221 0
M  V30 6 C -5.1572 -1.2352 -0.2753 0
M  V30 7 C 0.1332 1.7316 -1.0847 0
M  V30 8 C 0.1732 -0.5788 -0.3671 0
M  V30 9 C -5.755 -0.4531 0.8887 0
M  V30 10 C 1.512 1.8219 -0.8739 0
M  V30 11 C 1.553 -0.4901 -0.1583 0
M  V30 12 C 2.2371 0.7094 -0.4235 0
M  V30 13 N 3.6512 0.8356 -0.1942 0
M  V30 14 C 4.5967 -0.2285 -0.3821 0
M  V30 15 O 4.2712 -1.2764 -1.0027 0
M  V30 16 C 6.0092 -0.0566 0.0729 0
M  V30 17 H -4.7601 -2.2116 0.0782 0
M  V30 18 H -5.9585 -1.4378 -1.0166 0
M  V30 19 H -0.4097 2.5967 -1.4442 0
M  V30 20 H -0.3182 -1.5261 -0.1932 0
M  V30 21 H -6.5907 -1.0312 1.3365 0
M  V30 22 H -6.1447 0.5227 0.5291 0
M  V30 23 H -4.9877 -0.2731 1.6703 0
M  V30 24 H 2.0192 2.7577 -1.0729 0
M  V30 25 H 2.0776 -1.3541 0.2267 0
M  V30 26 H 4.0276 1.7811 0.0451 0
M  V30 27 H 6.571 0.5326 -0.6811 0
M  V30 28 H 6.4972 -1.046 0.2006 0
M  V30 29 H 6.0308 0.4785 1.0454 0
M  V30 END ATOM
M  V30 BEGIN BOND
M  V30 1 2 1 2
M  V30 2 1 2 3
M  V30 3 1 2 4
M  V30 4 1 3 5
M  V30 5 1 4 6
M  V30 6 2 5 7
M  V30 7 1 5 8
M  V30 8 1 6 9
M  V30 9 1 7 10
M  V30 10 2 8 11
M  V30 11 2 10 12
M  V30 12 1 12 13
M  V30 13 1 13 14
M  V30 14 2 14 15
M  V30 15 1 14 16
M  V30 16 1 11 12
M  V30 17 1 6 17
M  V30 18 1 6 18
M  V30 19 1 7 19
M  V30 20 1 8 20
M  V30 21 1 9 21
M  V30 22 1 9 22
M  V30 23 1 9 23
M  V30 24 1 10 24
M  V30 25 1 11 25
M  V30 26 1 13 26
M  V30 27 1 16 27
M  V30 28 1 16 28
M  V30 29 1 16 29
M  V30 END BOND
M  V30 END CTAB
M  END
>  <Structure No>
8104

>  <LogS>
-2.67

>  <MMFF94 Energy>
-8.6903

$$$$
Compound 8105
Actelion Java MolfileCreator 2.0

  0  0  0  0  0  0              0 V3000
M  V30 BEGIN CTAB
M  V30 COUNTS 29 30 0 0 0
M  V30 BEGIN ATOM
M  V30 1 O -2.652 -1.9282 -1.687 0
M  V30 2 C -1.5293 -1.481 -1.3293 0
M  V30 3 O -0.3792 -2.0164 -1.9007 0 CHG=-1
M  V30 4 C -1.4431 -0.3226 -0.3456 0 CFG=2
M  V30 5 N -1.8385 0.9395 -1.0262 0 CHG=1
M  V30 6 C -0.0134 -0.2311 0.2179 0
M  V30 7 C -2.4434 -0.5727 0.8121 0
M  V30 8 C -0.8061 1.4388 -1.9435 0
M  V30 9 C 0.8735 0.788 -0.2067 0
M  V30 10 C 0.4766 -1.2295 1.0871 0
M  V30 11 C 0.4326 1.8641 -1.1604 0
M  V30 12 C 2.1784 0.8398 0.3062 0
M  V30 13 C 1.7833 -1.1809 1.5802 0
M  V30 14 C 2.636 -0.1373 1.1964 0
M  V30 15 O 2.2167 -2.1825 2.4488 0
M  V30 16 O 3.9365 -0.0777 1.695 0
M  V30 17 H -2.0374 1.6857 -0.3166 0
M  V30 18 H -2.7215 0.7934 -1.5713 0
M  V30 19 H -2.3489 -1.5974 1.2284 0
M  V30 20 H -3.4891 -0.4576 0.4534 0
M  V30 21 H -2.2807 0.1608 1.6313 0
M  V30 22 H -1.1971 2.3185 -2.5015 0
M  V30 23 H -0.5364 0.663 -2.6938 0
M  V30 24 H -0.1486 -2.0622 1.3781 0
M  V30 25 H 0.2067 2.7853 -0.5806 0
M  V30 26 H 1.2479 2.0968 -1.8798 0
M  V30 27 H 2.845 1.6396 0.0062 0
M  V30 28 H 3.1541 -2.1944 2.8324 0
M  V30 29 H 4.573 0.6654 1.4312 0
M  V30 END ATOM
M  V30 BEGIN BOND
M  V30 1 2 1 2
M  V30 2 1 2 3
M  V30 3 1 2 4
M  V30 4 1 4 5
M  V30 5 1 4 6
M  V30 6 1 4 7
M  V30 7 1 5 8
M  V30 8 2 6 9
M  V30 9 1 6 10
M  V30 10 1 8 11
M  V30 11 1 9 12
M  V30 12 2 10 13
M  V30 13 2 12 14
M  V30 14 1 13 15
M  V30 15 1 14 16
M  V30 16 1 9 11
M  V30 17 1 13 14
M  V30 18 1 5 17
M  V30 19 1 5 18
M  V30 20 1 7 19
M  V30 21 1 7 20
M  V30 22 1 7 21
M  V30 23 1 8 22
M  V30 24 1 8 23
M  V30 25 1 10 24
M  V30 26 1 11 25
M  V30 27 1 11 26
M  V30 28 1 12 27
M  V30 29 1 15 28
M  V30 30 1 16 29
M  V30 END BOND
M  V30 BEGIN COLLECTION
M  V30 MDLV30/STEABS ATOMS=(1 4)
M  V30 END COLLECTION
M  V30 END CTAB
M  END
>  <Structure No>
8105

>  <LogS>
-0.75

>  <MMFF94 Energy>
52.363

$$$$
Compound 8106
Actelion Java MolfileCreator 2.0

  0  0  0  0  0  0              0 V3000
M  V30 BEGIN CTAB
M  V30 COUNTS 30 31 0 0 0
M  V30 BEGIN ATOM
M  V30 1 O 0.0 0.3242 2.3526 0
M  V30 2 C 0.4038 0.4112 1.1626 0
M  V30 3 N -0.4552 0.5593 0.0143 0
M  V30 4 C 1.7975 0.3059 0.7548 0
M  V30 5 C 0.4623 0.4714 -1.0917 0
M  V30 6 C -1.9288 0.3895 -0.0351 0 CFG=2
M  V30 7 C 1.8332 0.3421 -0.6174 0
M  V30 8 C 2.9583 0.1575 1.5127 0
M  V30 9 O 0.1234 0.4633 -2.304 0
M  V30 10 C -2.5692 0.8878 1.2504 0
M  V30 11 C -2.2793 -1.1008 -0.3119 0
M  V30 12 C -2.5244 1.2541 -1.1682 0
M  V30 13 C 3.0323 0.2333 -1.3202 0
M  V30 14 C 4.1832 0.0527 0.8298 0
M  V30 15 O -2.2203 1.9965 1.738 0
M  V30 16 O -3.6142 0.1911 1.848 0 CHG=-1
M  V30 17 C -1.673 -2.0868 0.6915 0
M  V30 18 C 4.2201 0.0907 -0.5808 0
M  V30 19 H 2.919 0.1218 2.5936 0
M  V30 20 H -1.9148 -1.3857 -1.3231 0
M  V30 21 H -3.3838 -1.2337 -0.3203 0
M  V30 22 H -2.1436 2.2964 -1.1021 0
M  V30 23 H -3.6343 1.2813 -1.0994 0
M  V30 24 H -2.2784 0.8515 -2.1714 0
M  V30 25 H 3.0498 0.2557 -2.402 0
M  V30 26 H 5.1025 -0.0614 1.3894 0
M  V30 27 H -1.9317 -1.8117 1.7344 0
M  V30 28 H -0.5692 -2.1235 0.5825 0
M  V30 29 H -2.0691 -3.1045 0.4908 0
M  V30 30 H 5.1675 0.0054 -1.0967 0
M  V30 END ATOM
M  V30 BEGIN BOND
M  V30 1 2 1 2
M  V30 2 1 2 3
M  V30 3 1 2 4
M  V30 4 1 3 5
M  V30 5 1 3 6
M  V30 6 2 4 7
M  V30 7 1 4 8
M  V30 8 2 5 9
M  V30 9 1 6 10
M  V30 10 1 6 11
M  V30 11 1 6 12
M  V30 12 1 7 13
M  V30 13 2 8 14
M  V30 14 2 10 15
M  V30 15 1 10 16
M  V30 16 1 11 17
M  V30 17 2 13 18
M  V30 18 1 5 7
M  V30 19 1 14 18
M  V30 20 1 8 19
M  V30 21 1 11 20
M  V30 22 1 11 21
M  V30 23 1 12 22
M  V30 24 1 12 23
M  V30 25 1 12 24
M  V30 26 1 13 25
M  V30 27 1 14 26
M  V30 28 1 17 27
M  V30 29 1 17 28
M  V30 30 1 17 29
M  V30 31 1 18 30
M  V30 END BOND
M  V30 BEGIN COLLECTION
M  V30 MDLV30/STEABS ATOMS=(1 6)
M  V30 END COLLECTION
M  V30 END CTAB
M  END
>  <Structure No>
8106

>  <LogS>
-1.91

>  <MMFF94 Energy>
56.221

$$$$
Compound 8107
Actelion Java MolfileCreator 2.0

  0  0  0  0  0  0              0 V3000
M  V30 BEGIN CTAB
M  V30 COUNTS 34 35 0 0 0
M  V30 BEGIN ATOM
M  V30 1 O 5.1554 -0.475 0.3166 0
M  V30 2 C 3.7745 -0.446 0.0711 0
M  V30 3 C 6.0981 0.4027 -0.2902 0
M  V30 4 C 3.1839 0.474 -0.8143 0
M  V30 5 C 2.961 -1.3677 0.7381 0
M  V30 6 C 1.8021 0.4621 -1.0256 0
M  V30 7 C 1.5793 -1.3812 0.5281 0
M  V30 8 C 0.9848 -0.4735 -0.3678 0
M  V30 9 C -0.517 -0.4472 -0.5877 0 CFG=1
M  V30 10 O -1.0234 -1.7449 -0.7981 0
M  V30 11 C -1.2461 0.2999 0.5559 0 CFG=2
M  V30 12 O -1.0688 -0.3715 1.7783 0
M  V30 13 C -2.7199 0.4555 0.2376 0
M  V30 14 C -3.1719 1.6016 -0.4403 0
M  V30 15 C -3.6428 -0.5588 0.5552 0
M  V30 16 C -4.5235 1.7411 -0.7705 0
M  V30 17 C -4.9934 -0.4145 0.2228 0
M  V30 18 C -5.4337 0.7351 -0.4372 0
M  V30 19 H 5.8664 1.4555 -0.0234 0
M  V30 20 H 7.1137 0.1573 0.082 0
M  V30 21 H 6.0832 0.2754 -1.3933 0
M  V30 22 H 3.7823 1.2045 -1.3413 0
M  V30 23 H 3.4025 -2.0758 1.4281 0
M  V30 24 H 1.3699 1.1873 -1.7041 0
M  V30 25 H 0.9804 -2.0983 1.0727 0
M  V30 26 H -0.7175 0.1194 -1.5244 0
M  V30 27 H -1.0673 -2.2128 0.0745 0
M  V30 28 H -0.7867 1.3139 0.6394 0
M  V30 29 H -1.3377 0.2616 2.4948 0
M  V30 30 H -2.4776 2.3859 -0.7152 0
M  V30 31 H -3.3194 -1.461 1.0587 0
M  V30 32 H -4.8645 2.6282 -1.2885 0
M  V30 33 H -5.6983 -1.1963 0.4743 0
M  V30 34 H -6.4794 0.8443 -0.6949 0
M  V30 END ATOM
M  V30 BEGIN BOND
M  V30 1 1 1 2
M  V30 2 1 1 3
M  V30 3 2 2 4
M  V30 4 1 2 5
M  V30 5 1 4 6
M  V30 6 2 5 7
M  V30 7 2 6 8
M  V30 8 1 8 9
M  V30 9 1 9 10
M  V30 10 1 9 11
M  V30 11 1 11 12
M  V30 12 1 11 13
M  V30 13 2 13 14
M  V30 14 1 13 15
M  V30 15 1 14 16
M  V30 16 2 15 17
M  V30 17 2 16 18
M  V30 18 1 7 8
M  V30 19 1 17 18
M  V30 20 1 3 19
M  V30 21 1 3 20
M  V30 22 1 3 21
M  V30 23 1 4 22
M  V30 24 1 5 23
M  V30 25 1 6 24
M  V30 26 1 7 25
M  V30 27 1 9 26
M  V30 28 1 10 27
M  V30 29 1 11 28
M  V30 30 1 12 29
M  V30 31 1 14 30
M  V30 32 1 15 31
M  V30 33 1 16 32
M  V30 34 1 17 33
M  V30 35 1 18 34
M  V30 END BOND
M  V30 BEGIN COLLECTION
M  V30 MDLV30/STEABS ATOMS=(2 9 11)
M  V30 END COLLECTION
M  V30 END CTAB
M  END
>  <Structure No>
8107

>  <LogS>
-1.39

>  <MMFF94 Energy>
84.413

$$$$
Compound 8108
Actelion Java MolfileCreator 2.0

  0  0  0  0  0  0              0 V3000
M  V30 BEGIN CTAB
M  V30 COUNTS 30 30 0 0 0
M  V30 BEGIN ATOM
M  V30 1 O 0.4806 1.3622 1.0415 0
M  V30 2 C 1.0862 0.6743 0.1739 0
M  V30 3 O 0.3899 0.1623 -0.9282 0
M  V30 4 C 2.5348 0.4108 0.3147 0
M  V30 5 C -1.0206 0.2959 -1.1001 0
M  V30 6 C 3.2576 0.9304 1.4054 0
M  V30 7 C 3.2105 -0.3687 -0.6415 0
M  V30 8 C -1.7827 -0.6579 -0.1666 0 CFG=1
M  V30 9 C 4.6265 0.675 1.5327 0
M  V30 10 C 4.5796 -0.6211 -0.5089 0
M  V30 11 N -3.2271 -0.5021 -0.3624 0
M  V30 12 C -1.3762 -2.0854 -0.4112 0
M  V30 13 C 5.2868 -0.0998 0.5767 0
M  V30 14 C -3.9721 0.5617 0.2464 0
M  V30 15 O -1.564 -2.6208 -1.5361 0
M  V30 16 O -0.7818 -2.8211 0.6061 0 CHG=-1
M  V30 17 O -3.4018 1.386 1.0114 0
M  V30 18 C -5.4297 0.7115 -0.0444 0
M  V30 19 H -1.2721 0.0603 -2.1564 0
M  V30 20 H -1.3254 1.3487 -0.9125 0
M  V30 21 H 2.7667 1.5336 2.1591 0
M  V30 22 H 2.6833 -0.7846 -1.4908 0
M  V30 23 H -1.5325 -0.4106 0.8881 0
M  V30 24 H 5.1755 1.0781 2.3739 0
M  V30 25 H 5.0924 -1.2218 -1.2489 0
M  V30 26 H -3.7282 -1.1381 -1.0244 0
M  V30 27 H 6.3463 -0.2964 0.6773 0
M  V30 28 H -5.8835 1.4806 0.6162 0
M  V30 29 H -5.9462 -0.256 0.1257 0
M  V30 30 H -5.5657 1.0174 -1.1026 0
M  V30 END ATOM
M  V30 BEGIN BOND
M  V30 1 2 1 2
M  V30 2 1 2 3
M  V30 3 1 2 4
M  V30 4 1 3 5
M  V30 5 2 4 6
M  V30 6 1 4 7
M  V30 7 1 5 8
M  V30 8 1 6 9
M  V30 9 2 7 10
M  V30 10 1 8 11
M  V30 11 1 8 12
M  V30 12 2 9 13
M  V30 13 1 11 14
M  V30 14 2 12 15
M  V30 15 1 12 16
M  V30 16 2 14 17
M  V30 17 1 14 18
M  V30 18 1 10 13
M  V30 19 1 5 19
M  V30 20 1 5 20
M  V30 21 1 6 21
M  V30 22 1 7 22
M  V30 23 1 8 23
M  V30 24 1 9 24
M  V30 25 1 10 25
M  V30 26 1 11 26
M  V30 27 1 13 27
M  V30 28 1 18 28
M  V30 29 1 18 29
M  V30 30 1 18 30
M  V30 END BOND
M  V30 BEGIN COLLECTION
M  V30 MDLV30/STEABS ATOMS=(1 8)
M  V30 END COLLECTION
M  V30 END CTAB
M  END
>  <Structure No>
8108

>  <LogS>
-3.22

>  <MMFF94 Energy>
57.238

$$$$
Compound 8109
Actelion Java MolfileCreator 2.0

  0  0  0  0  0  0              0 V3000
M  V30 BEGIN CTAB
M  V30 COUNTS 31 31 0 0 0
M  V30 BEGIN ATOM
M  V30 1 O -2.5325 0.7908 1.6614 0
M  V30 2 C -2.0818 -0.0826 0.8705 0
M  V30 3 N -2.9801 -0.8365 0.0434 0
M  V30 4 C -0.5915 -0.29 0.7538 0 CFG=2
M  V30 5 C -4.4261 -0.6354 0.0728 0
M  V30 6 N 0.035 -0.2905 2.0836 0 CHG=1
M  V30 7 C 0.0086 0.8039 -0.1532 0
M  V30 8 C -4.781 0.6491 -0.6047 0
M  V30 9 C 1.4617 0.5456 -0.459 0
M  V30 10 O -5.1464 1.6451 0.0732 0
M  V30 11 O -4.6787 0.7563 -1.9856 0 CHG=-1
M  V30 12 C 1.8207 -0.3978 -1.4352 0
M  V30 13 C 2.4698 1.2172 0.2523 0
M  V30 14 C 3.168 -0.6564 -1.7042 0
M  V30 15 C 3.8164 0.9565 -0.0182 0
M  V30 16 C 4.1688 0.0189 -0.9983 0
M  V30 17 O 5.5071 -0.2489 -1.2763 0
M  V30 18 H -2.5932 -1.5597 -0.604 0
M  V30 19 H -0.4127 -1.2822 0.2812 0
M  V30 20 H -4.7902 -0.6427 1.1233 0
M  V30 21 H -4.9255 -1.4693 -0.4651 0
M  V30 22 H -0.0129 0.6599 2.5185 0
M  V30 23 H -0.4509 -0.9776 2.7051 0
M  V30 24 H 1.0359 -0.5821 2.007 0
M  V30 25 H -0.5543 0.8376 -1.1126 0
M  V30 26 H -0.1144 1.8016 0.3238 0
M  V30 27 H 1.0568 -0.9329 -1.9858 0
M  V30 28 H 2.2133 1.9384 1.0184 0
M  V30 29 H 3.4346 -1.3841 -2.46 0
M  V30 30 H 4.5844 1.4811 0.5357 0
M  V30 31 H 6.2552 0.2231 -0.7821 0
M  V30 END ATOM
M  V30 BEGIN BOND
M  V30 1 2 1 2
M  V30 2 1 2 3
M  V30 3 1 2 4
M  V30 4 1 3 5
M  V30 5 1 4 6
M  V30 6 1 4 7
M  V30 7 1 5 8
M  V30 8 1 7 9
M  V30 9 2 8 10
M  V30 10 1 8 11
M  V30 11 2 9 12
M  V30 12 1 9 13
M  V30 13 1 12 14
M  V30 14 2 13 15
M  V30 15 2 14 16
M  V30 16 1 16 17
M  V30 17 1 15 16
M  V30 18 1 3 18
M  V30 19 1 4 19
M  V30 20 1 5 20
M  V30 21 1 5 21
M  V30 22 1 6 22
M  V30 23 1 6 23
M  V30 24 1 6 24
M  V30 25 1 7 25
M  V30 26 1 7 26
M  V30 27 1 12 27
M  V30 28 1 13 28
M  V30 29 1 14 29
M  V30 30 1 15 30
M  V30 31 1 17 31
M  V30 END BOND
M  V30 BEGIN COLLECTION
M  V30 MDLV30/STEABS ATOMS=(1 4)
M  V30 END COLLECTION
M  V30 END CTAB
M  END
>  <Structure No>
8109

>  <LogS>
-1.1

>  <MMFF94 Energy>
-6.6253

$$$$
Compound 8110
Actelion Java MolfileCreator 2.0

  0  0  0  0  0  0              0 V3000
M  V30 BEGIN CTAB
M  V30 COUNTS 31 32 0 0 0
M  V30 BEGIN ATOM
M  V30 1 O -5.1974 1.1975 -0.1596 0
M  V30 2 C -3.9899 0.952 0.1008 0
M  V30 3 N -3.5602 -0.1766 0.841 0
M  V30 4 N -2.9161 1.7696 -0.3411 0
M  V30 5 C -2.1404 -0.0876 0.799 0
M  V30 6 C -4.3307 -1.393 1.066 0
M  V30 7 C -1.6624 1.1404 0.0692 0 CFG=1
M  V30 8 O -1.3828 -0.9357 1.3415 0
M  V30 9 C -0.8191 0.7986 -1.1697 0
M  V30 10 C 0.5355 0.2533 -0.7952 0
M  V30 11 C 0.8043 -1.1204 -0.8975 0
M  V30 12 C 1.5359 1.1146 -0.3188 0
M  V30 13 C 2.0562 -1.6232 -0.5324 0
M  V30 14 C 2.7881 0.6113 0.0457 0
M  V30 15 C 3.057 -0.7667 -0.0592 0
M  V30 16 O 4.2962 -1.3208 0.2944 0
M  V30 17 C 5.4003 -0.5701 0.7896 0
M  V30 18 H -3.0093 2.6591 -0.8805 0
M  V30 19 H -4.3281 -2.012 0.1445 0
M  V30 20 H -5.3771 -1.1348 1.3329 0
M  V30 21 H -3.8855 -1.9743 1.9006 0
M  V30 22 H -1.1144 1.8164 0.7607 0
M  V30 23 H -1.3691 0.0766 -1.8138 0
M  V30 24 H -0.6749 1.7211 -1.7738 0
M  V30 25 H 0.0435 -1.8034 -1.2549 0
M  V30 26 H 1.3443 2.1769 -0.2288 0
M  V30 27 H 2.2497 -2.6852 -0.6158 0
M  V30 28 H 3.5381 1.3006 0.4088 0
M  V30 29 H 6.2475 -1.2584 0.9865 0
M  V30 30 H 5.7198 0.1808 0.0365 0
M  V30 31 H 5.1237 -0.0656 1.7394 0
M  V30 END ATOM
M  V30 BEGIN BOND
M  V30 1 2 1 2
M  V30 2 1 2 3
M  V30 3 1 2 4
M  V30 4 1 3 5
M  V30 5 1 3 6
M  V30 6 1 4 7
M  V30 7 2 5 8
M  V30 8 1 7 9
M  V30 9 1 9 10
M  V30 10 2 10 11
M  V30 11 1 10 12
M  V30 12 1 11 13
M  V30 13 2 12 14
M  V30 14 2 13 15
M  V30 15 1 15 16
M  V30 16 1 16 17
M  V30 17 1 5 7
M  V30 18 1 14 15
M  V30 19 1 4 18
M  V30 20 1 6 19
M  V30 21 1 6 20
M  V30 22 1 6 21
M  V30 23 1 7 22
M  V30 24 1 9 23
M  V30 25 1 9 24
M  V30 26 1 11 25
M  V30 27 1 12 26
M  V30 28 1 13 27
M  V30 29 1 14 28
M  V30 30 1 17 29
M  V30 31 1 17 30
M  V30 32 1 17 31
M  V30 END BOND
M  V30 BEGIN COLLECTION
M  V30 MDLV30/STEABS ATOMS=(1 7)
M  V30 END COLLECTION
M  V30 END CTAB
M  END
>  <Structure No>
8110

>  <LogS>
-0.89

>  <MMFF94 Energy>
-34.204

$$$$
Compound 8111
Actelion Java MolfileCreator 2.0

  0  0  0  0  0  0              0 V3000
M  V30 BEGIN CTAB
M  V30 COUNTS 29 30 0 0 0
M  V30 BEGIN ATOM
M  V30 1 Cl 2.6623 1.9962 3.0788 0
M  V30 2 C 3.2325 0.8469 1.8783 0
M  V30 3 C 2.3457 0.3073 0.9311 0
M  V30 4 C 4.582 0.4751 1.8749 0
M  V30 5 O 0.9979 0.7059 0.9687 0
M  V30 6 C 2.8351 -0.6133 -0.0182 0
M  V30 7 C 5.0566 -0.4362 0.9294 0
M  V30 8 C -0.0178 0.2863 0.0578 0
M  V30 9 C 4.1842 -0.9795 -0.0154 0
M  V30 10 O -1.282 0.7062 0.5656 0
M  V30 11 C 0.2087 0.9107 -1.2872 0
M  V30 12 C -2.4902 0.2312 0.0478 0
M  V30 13 O 0.0722 0.2253 -2.3344 0
M  V30 14 O 0.5229 2.2604 -1.3848 0 CHG=-1
M  V30 15 C -2.958 -1.0586 0.3603 0
M  V30 16 C -3.253 1.0639 -0.7808 0
M  V30 17 Cl -2.0701 -2.1042 1.459 0
M  V30 18 C -4.1699 -1.5086 -0.1783 0
M  V30 19 C -4.4613 0.6087 -1.3164 0
M  V30 20 C -4.9176 -0.6778 -1.018 0
M  V30 21 H 5.2637 0.8925 2.6052 0
M  V30 22 H 2.1859 -1.0525 -0.7619 0
M  V30 23 H 6.1006 -0.7216 0.9294 0
M  V30 24 H -0.0044 -0.8225 -0.0215 0
M  V30 25 H 4.5538 -1.6863 -0.7471 0
M  V30 26 H -2.9025 2.0606 -1.0171 0
M  V30 27 H -4.5368 -2.499 0.0592 0
M  V30 28 H -5.0437 1.2531 -1.9622 0
M  V30 29 H -5.8542 -1.0289 -1.4318 0
M  V30 END ATOM
M  V30 BEGIN BOND
M  V30 1 1 1 2
M  V30 2 2 2 3
M  V30 3 1 2 4
M  V30 4 1 3 5
M  V30 5 1 3 6
M  V30 6 2 4 7
M  V30 7 1 5 8
M  V30 8 2 6 9
M  V30 9 1 8 10
M  V30 10 1 8 11
M  V30 11 1 10 12
M  V30 12 2 11 13
M  V30 13 1 11 14
M  V30 14 2 12 15
M  V30 15 1 12 16
M  V30 16 1 15 17
M  V30 17 1 15 18
M  V30 18 2 16 19
M  V30 19 2 18 20
M  V30 20 1 7 9
M  V30 21 1 19 20
M  V30 22 1 4 21
M  V30 23 1 6 22
M  V30 24 1 7 23
M  V30 25 1 8 24
M  V30 26 1 9 25
M  V30 27 1 16 26
M  V30 28 1 18 27
M  V30 29 1 19 28
M  V30 30 1 20 29
M  V30 END BOND
M  V30 END CTAB
M  END
>  <Structure No>
8111

>  <LogS>
-2.83

>  <MMFF94 Energy>
161.26

$$$$
Compound 8112
Actelion Java MolfileCreator 2.0

  0  0  0  0  0  0              0 V3000
M  V30 BEGIN CTAB
M  V30 COUNTS 29 30 0 0 0
M  V30 BEGIN ATOM
M  V30 1 Cl 3.1599 -2.6605 -1.3296 0
M  V30 2 C 3.364 -1.0693 -0.6133 0
M  V30 3 C 2.2633 -0.3855 -0.0727 0
M  V30 4 C 4.6348 -0.4827 -0.5962 0
M  V30 5 O 1.0021 -1.0012 -0.0871 0
M  V30 6 C 2.4593 0.8786 0.5137 0
M  V30 7 C 4.8176 0.7823 -0.0293 0
M  V30 8 C -0.2288 -0.3336 -0.1714 0
M  V30 9 C 3.73 1.4601 0.5286 0
M  V30 10 Cl 6.4119 1.5131 -0.0082 0
M  V30 11 C -1.351 -0.9196 0.418 0
M  V30 12 C -0.3704 0.873 -0.8694 0
M  V30 13 C -2.6153 -0.2985 0.3502 0
M  V30 14 C -1.6133 1.501 -0.9446 0
M  V30 15 O -3.7458 -0.886 0.9428 0
M  V30 16 C -2.7474 0.9354 -0.3342 0
M  V30 17 C -3.7431 -2.1194 1.6546 0
M  V30 18 N -4.0156 1.6196 -0.4293 0 CHG=1
M  V30 19 O -5.0104 1.2355 0.219 0
M  V30 20 O -4.1423 2.7404 -1.2181 0 CHG=-1
M  V30 21 H 5.4791 -1.0101 -1.0218 0
M  V30 22 H 1.635 1.4058 0.9758 0
M  V30 23 H 3.8691 2.4341 0.9804 0
M  V30 24 H -1.2237 -1.8615 0.9336 0
M  V30 25 H 0.4763 1.3216 -1.3719 0
M  V30 26 H -1.6861 2.4356 -1.4854 0
M  V30 27 H -4.7715 -2.3337 2.0108 0
M  V30 28 H -3.07 -2.051 2.5351 0
M  V30 29 H -3.4198 -2.9453 0.9867 0
M  V30 END ATOM
M  V30 BEGIN BOND
M  V30 1 1 1 2
M  V30 2 2 2 3
M  V30 3 1 2 4
M  V30 4 1 3 5
M  V30 5 1 3 6
M  V30 6 2 4 7
M  V30 7 1 5 8
M  V30 8 2 6 9
M  V30 9 1 7 10
M  V30 10 2 8 11
M  V30 11 1 8 12
M  V30 12 1 11 13
M  V30 13 2 12 14
M  V30 14 1 13 15
M  V30 15 2 13 16
M  V30 16 1 15 17
M  V30 17 1 16 18
M  V30 18 2 18 19
M  V30 19 1 18 20
M  V30 20 1 7 9
M  V30 21 1 14 16
M  V30 22 1 4 21
M  V30 23 1 6 22
M  V30 24 1 9 23
M  V30 25 1 11 24
M  V30 26 1 12 25
M  V30 27 1 14 26
M  V30 28 1 17 27
M  V30 29 1 17 28
M  V30 30 1 17 29
M  V30 END BOND
M  V30 END CTAB
M  END
>  <Structure No>
8112

>  <LogS>
-5.91

>  <MMFF94 Energy>
82.645

$$$$
Compound 8113
Actelion Java MolfileCreator 2.0

  0  0  0  0  0  0              0 V3000
M  V30 BEGIN CTAB
M  V30 COUNTS 35 35 0 0 0
M  V30 BEGIN ATOM
M  V30 1 S -2.8677 -1.5923 -1.8314 0
M  V30 2 C -2.5494 -0.2535 -0.9264 0
M  V30 3 N -1.1897 0.2086 -0.7815 0
M  V30 4 N -3.6257 0.4856 -0.3174 0
M  V30 5 C -0.7996 0.9708 0.4123 0
M  V30 6 C -0.2273 0.0151 -1.8785 0
M  V30 7 C -4.9825 -0.0334 -0.1413 0
M  V30 8 C 0.6311 0.6186 0.8349 0
M  V30 9 C 1.0492 0.835 -1.6675 0
M  V30 10 C -5.0166 -1.0812 0.9659 0
M  V30 11 N 1.5594 0.6378 -0.304 0
M  V30 12 C 2.9734 0.545 -0.0508 0
M  V30 13 O 3.7993 0.6913 -0.9938 0
M  V30 14 O 3.4303 0.3009 1.2509 0
M  V30 15 C 4.8075 0.1406 1.5848 0
M  V30 16 C 5.3076 -1.2342 1.1579 0
M  V30 17 H -3.4425 1.4644 -0.0015 0
M  V30 18 H -0.8677 2.0578 0.1899 0
M  V30 19 H -1.4782 0.7439 1.2637 0
M  V30 20 H 0.0411 -1.0614 -1.9424 0
M  V30 21 H -0.6897 0.3226 -2.8417 0
M  V30 22 H -5.659 0.8015 0.1428 0
M  V30 23 H -5.361 -0.4618 -1.0935 0
M  V30 24 H 0.6386 -0.3952 1.2903 0
M  V30 25 H 0.962 1.3517 1.6025 0
M  V30 26 H 1.7958 0.5194 -2.4276 0
M  V30 27 H 0.8319 1.9138 -1.8227 0
M  V30 28 H -4.3847 -1.9533 0.6987 0
M  V30 29 H -4.6464 -0.6415 1.9163 0
M  V30 30 H -6.0596 -1.4311 1.1153 0
M  V30 31 H 4.917 0.2334 2.6858 0
M  V30 32 H 5.4176 0.9391 1.1093 0
M  V30 33 H 4.69 -2.0258 1.6323 0
M  V30 34 H 6.3636 -1.3624 1.4758 0
M  V30 35 H 5.2523 -1.3414 0.0546 0
M  V30 END ATOM
M  V30 BEGIN BOND
M  V30 1 2 1 2
M  V30 2 1 2 3
M  V30 3 1 2 4
M  V30 4 1 3 5
M  V30 5 1 3 6
M  V30 6 1 4 7
M  V30 7 1 5 8
M  V30 8 1 6 9
M  V30 9 1 7 10
M  V30 10 1 8 11
M  V30 11 1 11 12
M  V30 12 2 12 13
M  V30 13 1 12 14
M  V30 14 1 14 15
M  V30 15 1 15 16
M  V30 16 1 9 11
M  V30 17 1 4 17
M  V30 18 1 5 18
M  V30 19 1 5 19
M  V30 20 1 6 20
M  V30 21 1 6 21
M  V30 22 1 7 22
M  V30 23 1 7 23
M  V30 24 1 8 24
M  V30 25 1 8 25
M  V30 26 1 9 26
M  V30 27 1 9 27
M  V30 28 1 10 28
M  V30 29 1 10 29
M  V30 30 1 10 30
M  V30 31 1 15 31
M  V30 32 1 15 32
M  V30 33 1 16 33
M  V30 34 1 16 34
M  V30 35 1 16 35
M  V30 END BOND
M  V30 END CTAB
M  END
>  <Structure No>
8113

>  <LogS>
-1.79

>  <MMFF94 Energy>
-63.058

$$$$
Compound 8114
Actelion Java MolfileCreator 2.0

  0  0  0  0  0  0              0 V3000
M  V30 BEGIN CTAB
M  V30 COUNTS 30 31 0 0 0
M  V30 BEGIN ATOM
M  V30 1 Cl -7.4886 0.9851 -0.2462 0
M  V30 2 C -5.7353 0.9614 -0.296 0
M  V30 3 C -5.0444 1.8929 -1.0773 0
M  V30 4 C -5.0261 0.0183 0.4541 0
M  V30 5 C -3.6468 1.8763 -1.1155 0
M  V30 6 C -3.6282 -0.001 0.4169 0
M  V30 7 C -2.9263 0.9184 -0.3848 0
M  V30 8 N -1.4888 0.9378 -0.4228 0
M  V30 9 C -0.6634 -0.2341 -0.3369 0
M  V30 10 O -1.1762 -1.3813 -0.4459 0
M  V30 11 N 0.7535 -0.087 -0.1548 0
M  V30 12 C 1.6811 -1.1861 -0.1639 0
M  V30 13 O 1.3152 -2.3196 -0.5793 0
M  V30 14 C 3.0822 -0.9934 0.278 0
M  V30 15 C 4.1327 -1.6677 -0.3776 0
M  V30 16 C 3.386 -0.1525 1.3691 0
M  V30 17 F 3.8836 -2.48 -1.4364 0
M  V30 18 C 5.4555 -1.487 0.0387 0
M  V30 19 F 2.4021 0.4662 2.0702 0
M  V30 20 C 4.7128 0.0197 1.7775 0
M  V30 21 C 5.7453 -0.6431 1.1123 0
M  V30 22 H -5.5884 2.6309 -1.6531 0
M  V30 23 H -5.5563 -0.694 1.0733 0
M  V30 24 H -3.1235 2.6044 -1.7227 0
M  V30 25 H -3.1003 -0.7155 1.034 0
M  V30 26 H -1.0152 1.8505 -0.6106 0
M  V30 27 H 1.1294 0.8803 -0.036 0
M  V30 28 H 6.2589 -2.0006 -0.4736 0
M  V30 29 H 4.9406 0.6625 2.6184 0
M  V30 30 H 6.7703 -0.5072 1.4325 0
M  V30 END ATOM
M  V30 BEGIN BOND
M  V30 1 1 1 2
M  V30 2 2 2 3
M  V30 3 1 2 4
M  V30 4 1 3 5
M  V30 5 2 4 6
M  V30 6 2 5 7
M  V30 7 1 7 8
M  V30 8 1 8 9
M  V30 9 2 9 10
M  V30 10 1 9 11
M  V30 11 1 11 12
M  V30 12 2 12 13
M  V30 13 1 12 14
M  V30 14 2 14 15
M  V30 15 1 14 16
M  V30 16 1 15 17
M  V30 17 1 15 18
M  V30 18 1 16 19
M  V30 19 2 16 20
M  V30 20 2 18 21
M  V30 21 1 6 7
M  V30 22 1 20 21
M  V30 23 1 3 22
M  V30 24 1 4 23
M  V30 25 1 5 24
M  V30 26 1 6 25
M  V30 27 1 8 26
M  V30 28 1 11 27
M  V30 29 1 18 28
M  V30 30 1 20 29
M  V30 31 1 21 30
M  V30 END BOND
M  V30 END CTAB
M  END
>  <Structure No>
8114

>  <LogS>
-6.54

>  <MMFF94 Energy>
-45.607

$$$$
Compound 8115
Actelion Java MolfileCreator 2.0

  0  0  0  0  0  0              0 V3000
M  V30 BEGIN CTAB
M  V30 COUNTS 22 22 0 0 0
M  V30 BEGIN ATOM
M  V30 1 S 1.198 -0.5589 -2.3171 0
M  V30 2 C 1.6451 -0.1974 -0.7784 0
M  V30 3 N 0.7399 0.4974 0.0988 0
M  V30 4 N 2.9944 -0.4666 -0.3708 0
M  V30 5 C -0.6915 0.4431 -0.0268 0
M  V30 6 C 3.4705 -0.2184 0.9844 0
M  V30 7 C -1.3718 -0.7797 -0.1428 0
M  V30 8 C -1.4529 1.619 0.0247 0
M  V30 9 O -0.6637 -1.9803 -0.1271 0
M  V30 10 N -2.7292 -0.7923 -0.2487 0
M  V30 11 O -0.8862 2.7377 0.1539 0
M  V30 12 N -2.8081 1.5574 -0.0767 0
M  V30 13 C -3.445 0.3639 -0.2179 0
M  V30 14 O -4.7011 0.3289 -0.3152 0
M  V30 15 H 1.1387 1.153 0.8067 0
M  V30 16 H 3.6511 -0.9141 -1.05 0
M  V30 17 H 2.814 -0.7339 1.7167 0
M  V30 18 H 4.5047 -0.6065 1.0969 0
M  V30 19 H 3.4792 0.8725 1.1882 0
M  V30 20 H -1.1372 -2.8723 -0.2041 0
M  V30 21 H -3.2305 -1.7046 -0.3434 0
M  V30 22 H -3.3683 2.4401 -0.0467 0
M  V30 END ATOM
M  V30 BEGIN BOND
M  V30 1 2 1 2
M  V30 2 1 2 3
M  V30 3 1 2 4
M  V30 4 1 3 5
M  V30 5 1 4 6
M  V30 6 2 5 7
M  V30 7 1 5 8
M  V30 8 1 7 9
M  V30 9 1 7 10
M  V30 10 2 8 11
M  V30 11 1 8 12
M  V30 12 1 10 13
M  V30 13 2 13 14
M  V30 14 1 12 13
M  V30 15 1 3 15
M  V30 16 1 4 16
M  V30 17 1 6 17
M  V30 18 1 6 18
M  V30 19 1 6 19
M  V30 20 1 9 20
M  V30 21 1 10 21
M  V30 22 1 12 22
M  V30 END BOND
M  V30 END CTAB
M  END
>  <Structure No>
8115

>  <LogS>
-0.46

>  <MMFF94 Energy>
-126.54

$$$$
Compound 8116
Actelion Java MolfileCreator 2.0

  0  0  0  0  0  0              0 V3000
M  V30 BEGIN CTAB
M  V30 COUNTS 48 50 0 0 0
M  V30 BEGIN ATOM
M  V30 1 O -0.9641 0.9641 -0.1606 0
M  V30 2 C -0.8395 -0.0791 0.5386 0
M  V30 3 O 0.2784 -0.2533 1.3611 0
M  V30 4 N -1.8455 -1.0981 0.504 0
M  V30 5 C 1.3704 0.6632 1.4074 0
M  V30 6 C -3.0716 -0.9703 -0.2889 0 CFG=1
M  V30 7 C 2.2384 0.5539 0.1427 0
M  V30 8 C -3.5398 -2.3439 -0.6882 0
M  V30 9 C -4.1418 -0.2055 0.5261 0
M  V30 10 C 3.417 1.4911 0.2138 0
M  V30 11 C 2.9528 -0.7733 0.0584 0
M  V30 12 O -3.3994 -2.7375 -1.8762 0
M  V30 13 O -4.0788 -3.2079 0.258 0 CHG=-1
M  V30 14 C -5.2195 0.4907 -0.3414 0
M  V30 15 C 4.616 0.8015 0.2074 0
M  V30 16 C 3.4002 2.8878 0.259 0
M  V30 17 C 4.3264 -0.6124 0.1102 0
M  V30 18 C 2.3931 -2.0446 -0.1018 0
M  V30 19 C -6.1376 -0.5137 -1.053 0
M  V30 20 C -6.062 1.4332 0.5296 0
M  V30 21 C 5.8441 1.4623 0.2545 0
M  V30 22 C 4.6243 3.5751 0.3122 0
M  V30 23 C 5.198 -1.6988 0.0279 0
M  V30 24 C 3.2509 -3.1543 -0.1803 0
M  V30 25 C 5.8413 2.8652 0.3115 0
M  V30 26 C 4.6472 -2.9824 -0.1125 0
M  V30 27 H -1.7397 -1.9073 1.1577 0
M  V30 28 H 0.9831 1.6992 1.5215 0
M  V30 29 H 1.9853 0.4336 2.3049 0
M  V30 30 H -2.8423 -0.3986 -1.2163 0
M  V30 31 H 1.651 0.7437 -0.7807 0
M  V30 32 H -3.6198 0.5859 1.1089 0
M  V30 33 H -4.621 -0.8757 1.2736 0
M  V30 34 H -4.7152 1.113 -1.1138 0
M  V30 35 H 2.464 3.4309 0.2531 0
M  V30 36 H 1.3215 -2.1764 -0.1701 0
M  V30 37 H -6.5547 -1.2473 -0.3301 0
M  V30 38 H -6.9796 0.015 -1.5491 0
M  V30 39 H -5.5829 -1.052 -1.8472 0
M  V30 40 H -6.8114 1.968 -0.0926 0
M  V30 41 H -5.4141 2.1969 1.0106 0
M  V30 42 H -6.594 0.8629 1.3215 0
M  V30 43 H 6.7761 0.9127 0.243 0
M  V30 44 H 4.6324 4.6567 0.3511 0
M  V30 45 H 6.2703 -1.5598 0.0639 0
M  V30 46 H 2.8361 -4.1468 -0.2996 0
M  V30 47 H 6.779 3.404 0.3496 0
M  V30 48 H 5.2996 -3.8434 -0.1786 0
M  V30 END ATOM
M  V30 BEGIN BOND
M  V30 1 2 1 2
M  V30 2 1 2 3
M  V30 3 1 2 4
M  V30 4 1 3 5
M  V30 5 1 4 6
M  V30 6 1 5 7
M  V30 7 1 6 8
M  V30 8 1 6 9
M  V30 9 1 7 10
M  V30 10 1 7 11
M  V30 11 2 8 12
M  V30 12 1 8 13
M  V30 13 1 9 14
M  V30 14 2 10 15
M  V30 15 1 10 16
M  V30 16 2 11 17
M  V30 17 1 11 18
M  V30 18 1 14 19
M  V30 19 1 14 20
M  V30 20 1 15 21
M  V30 21 2 16 22
M  V30 22 1 17 23
M  V30 23 2 18 24
M  V30 24 2 21 25
M  V30 25 2 23 26
M  V30 26 1 15 17
M  V30 27 1 22 25
M  V30 28 1 24 26
M  V30 29 1 4 27
M  V30 30 1 5 28
M  V30 31 1 5 29
M  V30 32 1 6 30
M  V30 33 1 7 31
M  V30 34 1 9 32
M  V30 35 1 9 33
M  V30 36 1 14 34
M  V30 37 1 16 35
M  V30 38 1 18 36
M  V30 39 1 19 37
M  V30 40 1 19 38
M  V30 41 1 19 39
M  V30 42 1 20 40
M  V30 43 1 20 41
M  V30 44 1 20 42
M  V30 45 1 21 43
M  V30 46 1 22 44
M  V30 47 1 23 45
M  V30 48 1 24 46
M  V30 49 1 25 47
M  V30 50 1 26 48
M  V30 END BOND
M  V30 BEGIN COLLECTION
M  V30 MDLV30/STEABS ATOMS=(1 6)
M  V30 END COLLECTION
M  V30 END CTAB
M  END
>  <Structure No>
8116

>  <LogS>
-3.74

>  <MMFF94 Energy>
53.573

$$$$
Compound 8117
Actelion Java MolfileCreator 2.0

  0  0  0  0  0  0              0 V3000
M  V30 BEGIN CTAB
M  V30 COUNTS 37 38 0 0 0
M  V30 BEGIN ATOM
M  V30 1 S 4.4749 -0.5792 -0.3309 0
M  V30 2 O 4.8713 -0.1043 -1.7003 0
M  V30 3 O 5.0436 -1.9477 -0.0784 0
M  V30 4 N 5.0723 0.5154 0.8738 0 CHG=-1
M  V30 5 C 2.7186 -0.644 -0.2347 0
M  V30 6 C 6.4548 0.837 1.0554 0
M  V30 7 C 2.0373 -1.8371 -0.5091 0
M  V30 8 C 1.9918 0.5037 0.107 0
M  V30 9 O 6.7779 1.649 1.9619 0
M  V30 10 C 7.5229 0.2368 0.1945 0
M  V30 11 C 0.6418 -1.8825 -0.4387 0
M  V30 12 C 0.596 0.4596 0.1767 0
M  V30 13 C -0.0923 -0.7321 -0.1137 0
M  V30 14 N -1.5252 -0.8125 -0.025 0
M  V30 15 C -2.4141 0.2604 -0.3809 0
M  V30 16 O -1.9764 1.2766 -0.9862 0
M  V30 17 C -3.8628 0.1557 -0.0999 0
M  V30 18 C -4.6028 1.2199 0.4871 0
M  V30 19 C -4.5361 -1.0129 -0.4983 0
M  V30 20 C -3.9629 2.4509 1.0144 0
M  V30 21 C -5.9977 1.0872 0.6206 0
M  V30 22 C -5.9174 -1.1285 -0.3398 0
M  V30 23 O -2.7666 2.4424 1.4077 0
M  V30 24 O -4.6985 3.6253 1.1286 0 CHG=-1
M  V30 25 C -6.6474 -0.0782 0.2118 0
M  V30 26 H 2.5837 -2.7321 -0.7776 0
M  V30 27 H 2.5047 1.4316 0.3264 0
M  V30 28 H 7.5019 -0.8686 0.2817 0
M  V30 29 H 8.525 0.5954 0.5127 0
M  V30 30 H 7.3637 0.5312 -0.8631 0
M  V30 31 H 0.1293 -2.8128 -0.6494 0
M  V30 32 H 0.0611 1.349 0.4819 0
M  V30 33 H -1.9411 -1.7259 0.266 0
M  V30 34 H -3.9966 -1.8282 -0.9645 0
M  V30 35 H -6.5878 1.8788 1.0662 0
M  V30 36 H -6.4245 -2.0303 -0.6579 0
M  V30 37 H -7.7197 -0.169 0.3292 0
M  V30 END ATOM
M  V30 BEGIN BOND
M  V30 1 2 1 2
M  V30 2 2 1 3
M  V30 3 1 1 4
M  V30 4 1 1 5
M  V30 5 1 4 6
M  V30 6 2 5 7
M  V30 7 1 5 8
M  V30 8 2 6 9
M  V30 9 1 6 10
M  V30 10 1 7 11
M  V30 11 2 8 12
M  V30 12 2 11 13
M  V30 13 1 13 14
M  V30 14 1 14 15
M  V30 15 2 15 16
M  V30 16 1 15 17
M  V30 17 2 17 18
M  V30 18 1 17 19
M  V30 19 1 18 20
M  V30 20 1 18 21
M  V30 21 2 19 22
M  V30 22 2 20 23
M  V30 23 1 20 24
M  V30 24 2 21 25
M  V30 25 1 12 13
M  V30 26 1 22 25
M  V30 27 1 7 26
M  V30 28 1 8 27
M  V30 29 1 10 28
M  V30 30 1 10 29
M  V30 31 1 10 30
M  V30 32 1 11 31
M  V30 33 1 12 32
M  V30 34 1 14 33
M  V30 35 1 19 34
M  V30 36 1 21 35
M  V30 37 1 22 36
M  V30 38 1 25 37
M  V30 END BOND
M  V30 END CTAB
M  END
>  <Structure No>
8117

>  <LogS>
-2.52

>  <MMFF94 Energy>
84.092

$$$$
Compound 8118
Actelion Java MolfileCreator 2.0

  0  0  0  0  0  0              0 V3000
M  V30 BEGIN CTAB
M  V30 COUNTS 30 31 0 0 0
M  V30 BEGIN ATOM
M  V30 1 O 5.0924 1.2107 0.6455 0
M  V30 2 N 4.2543 1.6198 -0.1845 0 CHG=1
M  V30 3 O 4.632 2.5888 -1.0856 0 CHG=-1
M  V30 4 C 2.9172 1.0883 -0.2 0
M  V30 5 C 2.5297 0.0933 0.7263 0
M  V30 6 C 1.9718 1.559 -1.1465 0
M  V30 7 C 1.2247 -0.3898 0.672 0
M  V30 8 C 0.6627 1.049 -1.1715 0
M  V30 9 C 0.5535 -1.3777 1.4753 0
M  V30 10 C 0.3088 0.0677 -0.2438 0
M  V30 11 O 1.06 -2.0263 2.4276 0
M  V30 12 O -0.7608 -1.5134 1.0479 0
M  V30 13 C -1.0216 -0.6355 -0.0594 0
M  V30 14 C -1.3469 -1.4646 -1.3247 0
M  V30 15 C -2.1522 0.3634 0.2957 0
M  V30 16 C -2.5417 -2.4048 -1.151 0
M  V30 17 C -1.8442 1.2229 1.5256 0
M  V30 18 H 3.2198 -0.2917 1.4659 0
M  V30 19 H 2.2457 2.3205 -1.8648 0
M  V30 20 H -0.056 1.4122 -1.8942 0
M  V30 21 H -0.4625 -2.0854 -1.5905 0
M  V30 22 H -1.5464 -0.7845 -2.1816 0
M  V30 23 H -3.088 -0.1941 0.5081 0
M  V30 24 H -2.3454 1.0343 -0.5695 0
M  V30 25 H -2.6292 -3.0555 -2.0465 0
M  V30 26 H -3.486 -1.8306 -1.0553 0
M  V30 27 H -2.4075 -3.0534 -0.26 0
M  V30 28 H -2.7153 1.8746 1.7474 0
M  V30 29 H -0.9634 1.8733 1.3423 0
M  V30 30 H -1.6514 0.5821 2.4115 0
M  V30 END ATOM
M  V30 BEGIN BOND
M  V30 1 2 1 2
M  V30 2 1 2 3
M  V30 3 1 2 4
M  V30 4 2 4 5
M  V30 5 1 4 6
M  V30 6 1 5 7
M  V30 7 2 6 8
M  V30 8 1 7 9
M  V30 9 2 7 10
M  V30 10 2 9 11
M  V30 11 1 9 12
M  V30 12 1 10 13
M  V30 13 1 13 14
M  V30 14 1 13 15
M  V30 15 1 14 16
M  V30 16 1 15 17
M  V30 17 1 8 10
M  V30 18 1 12 13
M  V30 19 1 5 18
M  V30 20 1 6 19
M  V30 21 1 8 20
M  V30 22 1 14 21
M  V30 23 1 14 22
M  V30 24 1 15 23
M  V30 25 1 15 24
M  V30 26 1 16 25
M  V30 27 1 16 26
M  V30 28 1 16 27
M  V30 29 1 17 28
M  V30 30 1 17 29
M  V30 31 1 17 30
M  V30 END BOND
M  V30 END CTAB
M  END
>  <Structure No>
8118

>  <LogS>
-3.66

>  <MMFF94 Energy>
63.774

$$$$
Compound 8119
Actelion Java MolfileCreator 2.0

  0  0  0  0  0  0              0 V3000
M  V30 BEGIN CTAB
M  V30 COUNTS 46 45 0 0 0
M  V30 BEGIN ATOM
M  V30 1 O 0.0 1.4049 -2.2642 0
M  V30 2 C 0.0147 0.2149 -1.845 0
M  V30 3 N 0.1403 -0.8359 -2.8149 0
M  V30 4 C -0.0652 -0.0363 -0.3294 0
M  V30 5 O 0.0242 -0.5526 -4.1344 0
M  V30 6 C -1.4954 0.3291 0.232 0
M  V30 7 C 0.2701 -1.5276 0.0564 0
M  V30 8 C 0.9997 0.869 0.3824 0
M  V30 9 C -2.2597 1.5602 -0.3255 0
M  V30 10 C -0.7637 -2.6159 -0.3393 0
M  V30 11 C 2.4675 0.5771 0.0027 0
M  V30 12 C -1.7549 2.9568 0.0762 0
M  V30 13 C -1.5471 -3.1477 0.8722 0
M  V30 14 C 3.4035 1.6622 0.5505 0
M  V30 15 C -1.634 3.149 1.5878 0
M  V30 16 C -2.6182 -4.1456 0.4421 0
M  V30 17 C 4.8594 1.3614 0.2065 0
M  V30 18 H 0.4033 -1.8079 -2.5522 0
M  V30 19 H -0.9312 -0.7117 -4.3444 0
M  V30 20 H -2.1889 -0.5024 0.0143 0
M  V30 21 H -1.4641 0.3782 1.3413 0
M  V30 22 H 1.2363 -1.813 -0.4111 0
M  V30 23 H 0.4545 -1.5863 1.1528 0
M  V30 24 H 0.9029 0.7628 1.4858 0
M  V30 25 H 0.8086 1.9303 0.1531 0
M  V30 26 H -2.3382 1.4988 -1.4304 0
M  V30 27 H -3.3087 1.4844 0.039 0
M  V30 28 H -1.4622 -2.2486 -1.1206 0
M  V30 29 H -0.2182 -3.4752 -0.789 0
M  V30 30 H 2.5762 0.5321 -1.1021 0
M  V30 31 H 2.779 -0.3986 0.4322 0
M  V30 32 H -0.8039 3.2054 -0.4302 0
M  V30 33 H -2.4927 3.6992 -0.2991 0
M  V30 34 H -2.0338 -2.3144 1.4211 0
M  V30 35 H -0.8461 -3.6542 1.5711 0
M  V30 36 H 3.1301 2.6487 0.1162 0
M  V30 37 H 3.2999 1.7233 1.656 0
M  V30 38 H -1.4232 4.2166 1.8081 0
M  V30 39 H -2.5823 2.8645 2.0916 0
M  V30 40 H -0.8017 2.544 1.9998 0
M  V30 41 H -3.3536 -3.6549 -0.2305 0
M  V30 42 H -3.1544 -4.5247 1.3376 0
M  V30 43 H -2.1545 -5.0061 -0.0855 0
M  V30 44 H 4.9942 1.3168 -0.8952 0
M  V30 45 H 5.1697 0.3931 0.6539 0
M  V30 46 H 5.5107 2.1643 0.6118 0
M  V30 END ATOM
M  V30 BEGIN BOND
M  V30 1 2 1 2
M  V30 2 1 2 3
M  V30 3 1 2 4
M  V30 4 1 3 5
M  V30 5 1 4 6
M  V30 6 1 4 7
M  V30 7 1 4 8
M  V30 8 1 6 9
M  V30 9 1 7 10
M  V30 10 1 8 11
M  V30 11 1 9 12
M  V30 12 1 10 13
M  V30 13 1 11 14
M  V30 14 1 12 15
M  V30 15 1 13 16
M  V30 16 1 14 17
M  V30 17 1 3 18
M  V30 18 1 5 19
M  V30 19 1 6 20
M  V30 20 1 6 21
M  V30 21 1 7 22
M  V30 22 1 7 23
M  V30 23 1 8 24
M  V30 24 1 8 25
M  V30 25 1 9 26
M  V30 26 1 9 27
M  V30 27 1 10 28
M  V30 28 1 10 29
M  V30 29 1 11 30
M  V30 30 1 11 31
M  V30 31 1 12 32
M  V30 32 1 12 33
M  V30 33 1 13 34
M  V30 34 1 13 35
M  V30 35 1 14 36
M  V30 36 1 14 37
M  V30 37 1 15 38
M  V30 38 1 15 39
M  V30 39 1 15 40
M  V30 40 1 16 41
M  V30 41 1 16 42
M  V30 42 1 16 43
M  V30 43 1 17 44
M  V30 44 1 17 45
M  V30 45 1 17 46
M  V30 END BOND
M  V30 END CTAB
M  END
>  <Structure No>
8119

>  <LogS>
-4.16

>  <MMFF94 Energy>
33.702

$$$$
Compound 8120
Actelion Java MolfileCreator 2.0

  0  0  0  0  0  0              0 V3000
M  V30 BEGIN CTAB
M  V30 COUNTS 26 26 0 0 0
M  V30 BEGIN ATOM
M  V30 1 O 3.3842 -1.809 0.1572 0
M  V30 2 C 2.8553 -0.7768 -0.3412 0
M  V30 3 O 3.6133 0.0755 -1.1519 0
M  V30 4 C 1.434 -0.4655 -0.0702 0
M  V30 5 C 4.9828 -0.1661 -1.451 0
M  V30 6 C 0.6566 -1.3075 0.741 0
M  V30 7 C 0.8409 0.68 -0.6222 0
M  V30 8 C -0.6853 -1.0104 0.9947 0
M  V30 9 C -0.5007 0.9789 -0.3693 0
M  V30 10 C -1.2885 0.1387 0.4439 0
M  V30 11 N -2.6827 0.4484 0.7071 0
M  V30 12 C -3.6089 -0.5995 1.154 0
M  V30 13 C -3.1902 1.815 0.5307 0
M  V30 14 H 5.3608 0.6442 -2.1074 0
M  V30 15 H 5.0908 -1.1371 -1.9792 0
M  V30 16 H 5.58 -0.1791 -0.5147 0
M  V30 17 H 1.0855 -2.1979 1.1839 0
M  V30 18 H 1.4126 1.3484 -1.2539 0
M  V30 19 H -1.242 -1.6817 1.6336 0
M  V30 20 H -0.9177 1.8665 -0.8244 0
M  V30 21 H -3.3826 -0.8806 2.2038 0
M  V30 22 H -3.5155 -1.491 0.4983 0
M  V30 23 H -4.6653 -0.26 1.1062 0
M  V30 24 H -4.2035 1.9354 0.9692 0
M  V30 25 H -2.5181 2.5366 1.042 0
M  V30 26 H -3.2493 2.059 -0.5505 0
M  V30 END ATOM
M  V30 BEGIN BOND
M  V30 1 2 1 2
M  V30 2 1 2 3
M  V30 3 1 2 4
M  V30 4 1 3 5
M  V30 5 2 4 6
M  V30 6 1 4 7
M  V30 7 1 6 8
M  V30 8 2 7 9
M  V30 9 2 8 10
M  V30 10 1 10 11
M  V30 11 1 11 12
M  V30 12 1 11 13
M  V30 13 1 9 10
M  V30 14 1 5 14
M  V30 15 1 5 15
M  V30 16 1 5 16
M  V30 17 1 6 17
M  V30 18 1 7 18
M  V30 19 1 8 19
M  V30 20 1 9 20
M  V30 21 1 12 21
M  V30 22 1 12 22
M  V30 23 1 12 23
M  V30 24 1 13 24
M  V30 25 1 13 25
M  V30 26 1 13 26
M  V30 END BOND
M  V30 END CTAB
M  END
>  <Structure No>
8120

>  <LogS>
-3.05

>  <MMFF94 Energy>
31.795

$$$$
Compound 8121
Actelion Java MolfileCreator 2.0

  0  0  0  0  0  0              0 V3000
M  V30 BEGIN CTAB
M  V30 COUNTS 22 22 0 0 0
M  V30 BEGIN ATOM
M  V30 1 O -2.9615 1.5199 1.5999 0
M  V30 2 C -2.909 0.276 1.4117 0
M  V30 3 O -3.9921 -0.5005 1.8089 0 CHG=-1
M  V30 4 C -1.7212 -0.3612 0.7796 0
M  V30 5 C -0.5931 0.3932 0.3588 0
M  V30 6 C -1.7271 -1.7545 0.5987 0
M  V30 7 O -0.6228 1.7888 0.5566 0
M  V30 8 C 0.511 -0.2766 -0.2389 0
M  V30 9 C -0.6447 -2.4013 0.0139 0
M  V30 10 C 0.3911 2.7268 0.2126 0
M  V30 11 O 1.6335 0.4538 -0.6603 0
M  V30 12 C 0.4643 -1.674 -0.4017 0
M  V30 13 C 2.7932 -0.1052 -1.2692 0
M  V30 14 H -2.5741 -2.3525 0.9105 0
M  V30 15 H -0.6656 -3.4755 -0.1179 0
M  V30 16 H 0.0517 3.7421 0.503 0
M  V30 17 H 1.3263 2.5042 0.7678 0
M  V30 18 H 0.5643 2.7221 -0.8839 0
M  V30 19 H 1.286 -2.2134 -0.8519 0
M  V30 20 H 3.5119 0.7094 -1.4932 0
M  V30 21 H 2.5206 -0.6087 -2.2205 0
M  V30 22 H 3.2786 -0.8254 -0.5774 0
M  V30 END ATOM
M  V30 BEGIN BOND
M  V30 1 2 1 2
M  V30 2 1 2 3
M  V30 3 1 2 4
M  V30 4 2 4 5
M  V30 5 1 4 6
M  V30 6 1 5 7
M  V30 7 1 5 8
M  V30 8 2 6 9
M  V30 9 1 7 10
M  V30 10 1 8 11
M  V30 11 2 8 12
M  V30 12 1 11 13
M  V30 13 1 9 12
M  V30 14 1 6 14
M  V30 15 1 9 15
M  V30 16 1 10 16
M  V30 17 1 10 17
M  V30 18 1 10 18
M  V30 19 1 12 19
M  V30 20 1 13 20
M  V30 21 1 13 21
M  V30 22 1 13 22
M  V30 END BOND
M  V30 END CTAB
M  END
>  <Structure No>
8121

>  <LogS>
-2.14

>  <MMFF94 Energy>
60.291

$$$$
Compound 8122
Actelion Java MolfileCreator 2.0

  0  0  0  0  0  0              0 V3000
M  V30 BEGIN CTAB
M  V30 COUNTS 20 20 0 0 0
M  V30 BEGIN ATOM
M  V30 1 S -2.5355 0.2451 -0.9809 0
M  V30 2 O -2.7837 -0.8506 -1.9797 0
M  V30 3 O -2.792 1.5693 -1.6443 0
M  V30 4 N -3.6037 0.0588 0.3652 0
M  V30 5 C -0.8684 0.1715 -0.4195 0
M  V30 6 C -0.2194 -1.0645 -0.3041 0
M  V30 7 C -0.1909 1.3445 -0.0614 0
M  V30 8 C 1.1003 -1.1273 0.1531 0
M  V30 9 C 1.1288 1.2831 0.3957 0
M  V30 10 C 1.785 0.0479 0.5054 0
M  V30 11 N 3.1394 -7.0E-4 0.9759 0
M  V30 12 O 3.8 -1.1771 1.1025 0
M  V30 13 H -4.5763 0.0441 -0.0158 0
M  V30 14 H -3.4237 -0.8879 0.7687 0
M  V30 15 H -0.735 -1.98 -0.5652 0
M  V30 16 H -0.683 2.3062 -0.1333 0
M  V30 17 H 1.5834 -2.0926 0.2329 0
M  V30 18 H 1.64 2.1986 0.6665 0
M  V30 19 H 3.6295 0.8809 1.249 0
M  V30 20 H 4.2619 -1.3033 0.2345 0
M  V30 END ATOM
M  V30 BEGIN BOND
M  V30 1 2 1 2
M  V30 2 2 1 3
M  V30 3 1 1 4
M  V30 4 1 1 5
M  V30 5 2 5 6
M  V30 6 1 5 7
M  V30 7 1 6 8
M  V30 8 2 7 9
M  V30 9 2 8 10
M  V30 10 1 10 11
M  V30 11 1 11 12
M  V30 12 1 9 10
M  V30 13 1 4 13
M  V30 14 1 4 14
M  V30 15 1 6 15
M  V30 16 1 7 16
M  V30 17 1 8 17
M  V30 18 1 9 18
M  V30 19 1 11 19
M  V30 20 1 12 20
M  V30 END BOND
M  V30 END CTAB
M  END
>  <Structure No>
8122

>  <LogS>
-0.84

>  <MMFF94 Energy>
-43.867

$$$$
Compound 8123
Actelion Java MolfileCreator 2.0

  0  0  0  0  0  0              0 V3000
M  V30 BEGIN CTAB
M  V30 COUNTS 24 26 0 0 0
M  V30 BEGIN ATOM
M  V30 1 S 3.8559 -1.4237 0.0 0
M  V30 2 O 3.623 -2.3779 1.1374 0
M  V30 3 O 5.072 -0.5955 0.3058 0
M  V30 4 O 4.1099 -2.2914 -1.4149 0 CHG=-1
M  V30 5 C 2.456 -0.3765 -0.1987 0
M  V30 6 C 1.1735 -0.8389 0.1631 0
M  V30 7 C 2.6157 0.9227 -0.7422 0
M  V30 8 C 0.0973 0.0246 -0.0239 0
M  V30 9 C 1.5058 1.7701 -0.9181 0
M  V30 10 C 0.2531 1.2904 -0.5473 0
M  V30 11 C -1.2472 -0.1102 0.2203 0
M  V30 12 O -0.9038 1.9179 -0.6309 0
M  V30 13 C -1.816 1.0839 -0.171 0
M  V30 14 C -2.0046 -1.1563 0.7418 0
M  V30 15 C -3.1873 1.3024 -0.0623 0
M  V30 16 C -3.3925 -0.9582 0.8607 0
M  V30 17 C -3.9806 0.2637 0.4611 0
M  V30 18 H 1.0242 -1.8305 0.5705 0
M  V30 19 H 3.5977 1.2751 -1.0302 0
M  V30 20 H 1.6223 2.7634 -1.3314 0
M  V30 21 H -1.5454 -2.0881 1.0451 0
M  V30 22 H -3.6291 2.2409 -0.3707 0
M  V30 23 H -4.0147 -1.7477 1.2614 0
M  V30 24 H -5.0494 0.4023 0.5584 0
M  V30 END ATOM
M  V30 BEGIN BOND
M  V30 1 2 1 2
M  V30 2 2 1 3
M  V30 3 1 1 4
M  V30 4 1 1 5
M  V30 5 2 5 6
M  V30 6 1 5 7
M  V30 7 1 6 8
M  V30 8 2 7 9
M  V30 9 2 8 10
M  V30 10 1 8 11
M  V30 11 1 10 12
M  V30 12 2 11 13
M  V30 13 1 11 14
M  V30 14 1 13 15
M  V30 15 2 14 16
M  V30 16 2 15 17
M  V30 17 1 9 10
M  V30 18 1 12 13
M  V30 19 1 16 17
M  V30 20 1 6 18
M  V30 21 1 7 19
M  V30 22 1 9 20
M  V30 23 1 14 21
M  V30 24 1 15 22
M  V30 25 1 16 23
M  V30 26 1 17 24
M  V30 END BOND
M  V30 END CTAB
M  END
>  <Structure No>
8123

>  <LogS>
-0.47

>  <MMFF94 Energy>
55.562

$$$$
Compound 8124
Actelion Java MolfileCreator 2.0

  0  0  0  0  0  0              0 V3000
M  V30 BEGIN CTAB
M  V30 COUNTS 27 28 0 0 0
M  V30 BEGIN ATOM
M  V30 1 O 0.0 0.7155 -1.8295 0
M  V30 2 C 0.4702 0.1393 -0.8103 0
M  V30 3 N -0.3672 -0.7534 -0.0522 0
M  V30 4 C 1.8869 0.3642 -0.4378 0
M  V30 5 O 0.1888 -1.8638 0.496 0
M  V30 6 C -1.7871 -0.5342 0.085 0
M  V30 7 C 2.3162 0.2084 0.8933 0
M  V30 8 C 2.8184 0.7716 -1.4107 0
M  V30 9 C -2.6557 -1.6252 0.2721 0
M  V30 10 C -2.3241 0.7683 0.078 0
M  V30 11 C 3.6527 0.4349 1.2368 0
M  V30 12 C 4.1539 0.9958 -1.0621 0
M  V30 13 C -4.0307 -1.4196 0.4226 0
M  V30 14 C -3.6998 0.9682 0.2298 0
M  V30 15 C 4.5713 0.8253 0.2598 0
M  V30 16 C -4.5526 -0.1244 0.399 0
M  V30 17 H 0.1589 -2.5488 -0.2205 0
M  V30 18 H 1.6177 -0.067 1.6731 0
M  V30 19 H 2.5162 0.9063 -2.4419 0
M  V30 20 H -2.273 -2.6372 0.2912 0
M  V30 21 H -1.6804 1.6319 -0.0253 0
M  V30 22 H 3.9749 0.3136 2.263 0
M  V30 23 H 4.8655 1.3025 -1.8176 0
M  V30 24 H -4.6919 -2.2657 0.5587 0
M  V30 25 H -4.104 1.9724 0.2227 0
M  V30 26 H 5.6051 1.0009 0.528 0
M  V30 27 H -5.617 0.0325 0.5173 0
M  V30 END ATOM
M  V30 BEGIN BOND
M  V30 1 2 1 2
M  V30 2 1 2 3
M  V30 3 1 2 4
M  V30 4 1 3 5
M  V30 5 1 3 6
M  V30 6 2 4 7
M  V30 7 1 4 8
M  V30 8 2 6 9
M  V30 9 1 6 10
M  V30 10 1 7 11
M  V30 11 2 8 12
M  V30 12 1 9 13
M  V30 13 2 10 14
M  V30 14 2 11 15
M  V30 15 2 13 16
M  V30 16 1 12 15
M  V30 17 1 14 16
M  V30 18 1 5 17
M  V30 19 1 7 18
M  V30 20 1 8 19
M  V30 21 1 9 20
M  V30 22 1 10 21
M  V30 23 1 11 22
M  V30 24 1 12 23
M  V30 25 1 13 24
M  V30 26 1 14 25
M  V30 27 1 15 26
M  V30 28 1 16 27
M  V30 END BOND
M  V30 END CTAB
M  END
>  <Structure No>
8124

>  <LogS>
-2.73

>  <MMFF94 Energy>
88.453

$$$$
Compound 8125
Actelion Java MolfileCreator 2.0

  0  0  0  0  0  0              0 V3000
M  V30 BEGIN CTAB
M  V30 COUNTS 27 27 0 0 0
M  V30 BEGIN ATOM
M  V30 1 O 2.1506 -3.4268 -1.1943 0
M  V30 2 C 1.8037 -2.7795 -0.1712 0
M  V30 3 O 2.1797 -3.235 1.0869 0 CHG=-1
M  V30 4 C 0.9847 -1.528 -0.311 0 CFG=2
M  V30 5 N 1.7043 -0.4035 0.2958 0
M  V30 6 C -0.3848 -1.7131 0.3642 0
M  V30 7 C 1.7764 0.8945 -0.3121 0
M  V30 8 C -1.2687 -0.5111 0.1502 0
M  V30 9 O 1.3015 1.0917 -1.4632 0
M  V30 10 C 2.3733 2.0368 0.4423 0
M  V30 11 C -1.3362 0.5038 1.12 0
M  V30 12 C -1.9849 -0.365 -1.0495 0
M  V30 13 C -2.1196 1.6401 0.8967 0
M  V30 14 C -2.7687 0.7723 -1.2678 0
M  V30 15 C -2.8366 1.7736 -0.2952 0
M  V30 16 H 0.8238 -1.3419 -1.3966 0
M  V30 17 H 2.0562 -0.5077 1.275 0
M  V30 18 H -0.2495 -1.8968 1.4534 0
M  V30 19 H -0.8875 -2.6123 -0.0561 0
M  V30 20 H 2.5802 2.8887 -0.2397 0
M  V30 21 H 1.6652 2.3666 1.2308 0
M  V30 22 H 3.3258 1.7187 0.9153 0
M  V30 23 H -0.7752 0.4196 2.0424 0
M  V30 24 H -1.9311 -1.1284 -1.8157 0
M  V30 25 H -2.1674 2.4195 1.6464 0
M  V30 26 H -3.3196 0.8796 -2.1932 0
M  V30 27 H -3.4414 2.6545 -0.467 0
M  V30 END ATOM
M  V30 BEGIN BOND
M  V30 1 2 1 2
M  V30 2 1 2 3
M  V30 3 1 2 4
M  V30 4 1 4 5
M  V30 5 1 4 6
M  V30 6 1 5 7
M  V30 7 1 6 8
M  V30 8 2 7 9
M  V30 9 1 7 10
M  V30 10 2 8 11
M  V30 11 1 8 12
M  V30 12 1 11 13
M  V30 13 2 12 14
M  V30 14 2 13 15
M  V30 15 1 14 15
M  V30 16 1 4 16
M  V30 17 1 5 17
M  V30 18 1 6 18
M  V30 19 1 6 19
M  V30 20 1 10 20
M  V30 21 1 10 21
M  V30 22 1 10 22
M  V30 23 1 11 23
M  V30 24 1 12 24
M  V30 25 1 13 25
M  V30 26 1 14 26
M  V30 27 1 15 27
M  V30 END BOND
M  V30 BEGIN COLLECTION
M  V30 MDLV30/STEABS ATOMS=(1 4)
M  V30 END COLLECTION
M  V30 END CTAB
M  END
>  <Structure No>
8125

>  <LogS>
-1.41

>  <MMFF94 Energy>
53.652

$$$$
Compound 8126
Actelion Java MolfileCreator 2.0

  0  0  0  0  0  0              0 V3000
M  V30 BEGIN CTAB
M  V30 COUNTS 33 33 0 0 0
M  V30 BEGIN ATOM
M  V30 1 O -2.5071 -1.5663 -0.9396 0
M  V30 2 C -2.8743 -0.4893 -0.3937 0
M  V30 3 N -4.2667 -0.2971 -0.0659 0
M  V30 4 N -1.9049 0.543 -0.1375 0
M  V30 5 C -5.2368 -1.3363 -0.4255 0
M  V30 6 C -4.7057 0.9014 0.6553 0
M  V30 7 C -0.4862 0.3112 -0.0896 0
M  V30 8 C 0.043 -0.8972 0.3946 0
M  V30 9 C 0.3919 1.3322 -0.4785 0
M  V30 10 C 1.4259 -1.0908 0.4538 0
M  V30 11 C 1.7747 1.1399 -0.4208 0
M  V30 12 C 2.3077 -0.077 0.0422 0
M  V30 13 C 3.8067 -0.3002 0.1125 0
M  V30 14 C 4.4448 -0.2127 -1.2788 0
M  V30 15 C 4.4665 0.6845 1.085 0
M  V30 16 H -2.2331 1.5325 -0.081 0
M  V30 17 H -6.2701 -1.0563 -0.1313 0
M  V30 18 H -4.9742 -2.2869 0.0849 0
M  V30 19 H -5.2236 -1.4957 -1.5243 0
M  V30 20 H -4.5771 1.7959 0.0108 0
M  V30 21 H -4.1094 1.0219 1.5845 0
M  V30 22 H -5.7757 0.8381 0.9446 0
M  V30 23 H -0.609 -1.6838 0.7501 0
M  V30 24 H 0.0028 2.2772 -0.8365 0
M  V30 25 H 1.8071 -2.032 0.8299 0
M  V30 26 H 2.4274 1.9433 -0.7364 0
M  V30 27 H 4.0106 -1.3239 0.4988 0
M  V30 28 H 4.3526 0.8112 -1.699 0
M  V30 29 H 5.523 -0.4733 -1.2191 0
M  V30 30 H 3.9521 -0.9304 -1.969 0
M  V30 31 H 3.9913 0.6066 2.0864 0
M  V30 32 H 5.5459 0.4455 1.1939 0
M  V30 33 H 4.3717 1.7301 0.7228 0
M  V30 END ATOM
M  V30 BEGIN BOND
M  V30 1 2 1 2
M  V30 2 1 2 3
M  V30 3 1 2 4
M  V30 4 1 3 5
M  V30 5 1 3 6
M  V30 6 1 4 7
M  V30 7 2 7 8
M  V30 8 1 7 9
M  V30 9 1 8 10
M  V30 10 2 9 11
M  V30 11 2 10 12
M  V30 12 1 12 13
M  V30 13 1 13 14
M  V30 14 1 13 15
M  V30 15 1 11 12
M  V30 16 1 4 16
M  V30 17 1 5 17
M  V30 18 1 5 18
M  V30 19 1 5 19
M  V30 20 1 6 20
M  V30 21 1 6 21
M  V30 22 1 6 22
M  V30 23 1 8 23
M  V30 24 1 9 24
M  V30 25 1 10 25
M  V30 26 1 11 26
M  V30 27 1 13 27
M  V30 28 1 14 28
M  V30 29 1 14 29
M  V30 30 1 14 30
M  V30 31 1 15 31
M  V30 32 1 15 32
M  V30 33 1 15 33
M  V30 END BOND
M  V30 END CTAB
M  END
>  <Structure No>
8126

>  <LogS>
-3.5

>  <MMFF94 Energy>
-38.778

$$$$
Compound 8127
Actelion Java MolfileCreator 2.0

  0  0  0  0  0  0              0 V3000
M  V30 BEGIN CTAB
M  V30 COUNTS 34 34 0 0 0
M  V30 BEGIN ATOM
M  V30 1 O -0.8677 0.2366 2.447 0
M  V30 2 C -0.6758 0.2962 1.2018 0
M  V30 3 O -1.4574 -0.4672 0.3292 0
M  V30 4 C 0.3729 1.232 0.6603 0 CFG=2
M  V30 5 C -2.4526 -1.3771 0.783 0
M  V30 6 N -0.1895 2.5735 0.4671 0
M  V30 7 C 1.0289 0.7187 -0.6387 0
M  V30 8 C -3.0957 -2.0614 -0.4118 0
M  V30 9 C -1.2723 2.8831 -0.4257 0
M  V30 10 C 1.8075 -0.5531 -0.4078 0
M  V30 11 O -1.8419 1.9755 -1.0888 0
M  V30 12 C -1.753 4.2923 -0.5471 0
M  V30 13 C 1.269 -1.7978 -0.7775 0
M  V30 14 C 3.069 -0.5064 0.2096 0
M  V30 15 C 1.9842 -2.9747 -0.536 0
M  V30 16 C 3.7811 -1.6858 0.4483 0
M  V30 17 C 3.2391 -2.9189 0.0761 0
M  V30 18 H 1.1763 1.3122 1.4274 0
M  V30 19 H -3.2307 -0.8273 1.3558 0
M  V30 20 H -1.9878 -2.1447 1.4392 0
M  V30 21 H 0.2243 3.3562 1.023 0
M  V30 22 H 0.2649 0.5607 -1.4295 0
M  V30 23 H 1.7243 1.4969 -1.023 0
M  V30 24 H -3.5659 -1.3042 -1.0744 0
M  V30 25 H -3.8756 -2.7708 -0.0631 0
M  V30 26 H -2.3279 -2.6221 -0.9858 0
M  V30 27 H -2.4638 4.3913 -1.395 0
M  V30 28 H -2.2649 4.5903 0.3914 0
M  V30 29 H -0.8902 4.9681 -0.7236 0
M  V30 30 H 0.2981 -1.8581 -1.2524 0
M  V30 31 H 3.4979 0.4424 0.5075 0
M  V30 32 H 1.5646 -3.9302 -0.8228 0
M  V30 33 H 4.7523 -1.6438 0.9241 0
M  V30 34 H 3.7911 -3.8309 0.2627 0
M  V30 END ATOM
M  V30 BEGIN BOND
M  V30 1 2 1 2
M  V30 2 1 2 3
M  V30 3 1 2 4
M  V30 4 1 3 5
M  V30 5 1 4 6
M  V30 6 1 4 7
M  V30 7 1 5 8
M  V30 8 1 6 9
M  V30 9 1 7 10
M  V30 10 2 9 11
M  V30 11 1 9 12
M  V30 12 2 10 13
M  V30 13 1 10 14
M  V30 14 1 13 15
M  V30 15 2 14 16
M  V30 16 2 15 17
M  V30 17 1 16 17
M  V30 18 1 4 18
M  V30 19 1 5 19
M  V30 20 1 5 20
M  V30 21 1 6 21
M  V30 22 1 7 22
M  V30 23 1 7 23
M  V30 24 1 8 24
M  V30 25 1 8 25
M  V30 26 1 8 26
M  V30 27 1 12 27
M  V30 28 1 12 28
M  V30 29 1 12 29
M  V30 30 1 13 30
M  V30 31 1 14 31
M  V30 32 1 15 32
M  V30 33 1 16 33
M  V30 34 1 17 34
M  V30 END BOND
M  V30 BEGIN COLLECTION
M  V30 MDLV30/STEABS ATOMS=(1 4)
M  V30 END COLLECTION
M  V30 END CTAB
M  END
>  <Structure No>
8127

>  <LogS>
-1.86

>  <MMFF94 Energy>
23.481

$$$$
Compound 8128
Actelion Java MolfileCreator 2.0

  0  0  0  0  0  0              0 V3000
M  V30 BEGIN CTAB
M  V30 COUNTS 40 40 0 0 0
M  V30 BEGIN ATOM
M  V30 1 O -0.078 1.0148 1.6398 0
M  V30 2 C -0.1309 1.0328 0.38 0
M  V30 3 N 0.9809 0.5613 -0.3933 0
M  V30 4 C -1.3747 1.5421 -0.3086 0
M  V30 5 C 2.2142 0.1515 0.2157 0
M  V30 6 N -2.4322 0.5102 -0.4687 0 CHG=1
M  V30 7 C 3.0672 1.1062 0.8186 0
M  V30 8 C 2.5921 -1.2095 0.1904 0
M  V30 9 C -1.9427 -0.6168 -1.3047 0
M  V30 10 C -2.9643 0.0587 0.8518 0
M  V30 11 C 4.2507 0.6795 1.4404 0
M  V30 12 C 2.7177 2.5701 0.8347 0
M  V30 13 C 3.7854 -1.6082 0.8127 0
M  V30 14 C 1.6966 -2.247 -0.43 0
M  V30 15 C -3.069 -1.5387 -1.7794 0
M  V30 16 C -4.4968 0.0575 0.8923 0
M  V30 17 C 4.6063 -0.6685 1.4348 0
M  V30 18 H 0.8716 0.4409 -1.4248 0
M  V30 19 H -1.093 1.9532 -1.304 0
M  V30 20 H -1.7758 2.4081 0.2652 0
M  V30 21 H -3.1961 0.9862 -1.0069 0
M  V30 22 H -1.1958 -1.2259 -0.751 0
M  V30 23 H -1.441 -0.2214 -2.2166 0
M  V30 24 H -2.6378 0.7289 1.6777 0
M  V30 25 H -2.5942 -0.9567 1.1169 0
M  V30 26 H 4.904 1.3935 1.9268 0
M  V30 27 H 2.2285 2.8681 -0.1164 0
M  V30 28 H 2.0335 2.781 1.6823 0
M  V30 29 H 3.6287 3.1952 0.9503 0
M  V30 30 H 4.0794 -2.6505 0.8235 0
M  V30 31 H 1.3993 -1.9371 -1.4534 0
M  V30 32 H 2.2071 -3.2302 -0.5098 0
M  V30 33 H 0.7885 -2.3723 0.1956 0
M  V30 34 H -3.4749 -2.1284 -0.9319 0
M  V30 35 H -3.8825 -0.9509 -2.2546 0
M  V30 36 H -2.6685 -2.2537 -2.5285 0
M  V30 37 H -4.8819 1.0892 0.7469 0
M  V30 38 H -4.8424 -0.3105 1.8814 0
M  V30 39 H -4.9205 -0.5983 0.1064 0
M  V30 40 H 5.5227 -0.9865 1.915 0
M  V30 END ATOM
M  V30 BEGIN BOND
M  V30 1 2 1 2
M  V30 2 1 2 3
M  V30 3 1 2 4
M  V30 4 1 3 5
M  V30 5 1 4 6
M  V30 6 2 5 7
M  V30 7 1 5 8
M  V30 8 1 6 9
M  V30 9 1 6 10
M  V30 10 1 7 11
M  V30 11 1 7 12
M  V30 12 2 8 13
M  V30 13 1 8 14
M  V30 14 1 9 15
M  V30 15 1 10 16
M  V30 16 2 11 17
M  V30 17 1 13 17
M  V30 18 1 3 18
M  V30 19 1 4 19
M  V30 20 1 4 20
M  V30 21 1 6 21
M  V30 22 1 9 22
M  V30 23 1 9 23
M  V30 24 1 10 24
M  V30 25 1 10 25
M  V30 26 1 11 26
M  V30 27 1 12 27
M  V30 28 1 12 28
M  V30 29 1 12 29
M  V30 30 1 13 30
M  V30 31 1 14 31
M  V30 32 1 14 32
M  V30 33 1 14 33
M  V30 34 1 15 34
M  V30 35 1 15 35
M  V30 36 1 15 36
M  V30 37 1 16 37
M  V30 38 1 16 38
M  V30 39 1 16 39
M  V30 40 1 17 40
M  V30 END BOND
M  V30 END CTAB
M  END
>  <Structure No>
8128

>  <LogS>
-1.78

>  <MMFF94 Energy>
54.322

$$$$
Compound 8129
Actelion Java MolfileCreator 2.0

  0  0  0  0  0  0              0 V3000
M  V30 BEGIN CTAB
M  V30 COUNTS 32 33 0 0 0
M  V30 BEGIN ATOM
M  V30 1 O 1.3672 -2.0917 -1.0454 0
M  V30 2 C 1.4071 -1.0349 -0.3572 0
M  V30 3 C 0.1334 -0.449 0.1272 0
M  V30 4 C 2.7257 -0.4231 -0.062 0
M  V30 5 C -1.037 -0.5801 -0.6405 0
M  V30 6 C 0.0656 0.2011 1.3714 0
M  V30 7 C 2.8686 0.973 0.0491 0
M  V30 8 C 3.8655 -1.2371 0.0661 0
M  V30 9 C -2.2583 -0.0454 -0.191 0
M  V30 10 C -1.1424 0.7329 1.8252 0
M  V30 11 C 4.1212 1.537 0.3101 0
M  V30 12 C 5.1159 -0.668 0.3274 0
M  V30 13 C -2.2976 0.6145 1.0509 0
M  V30 14 C -3.5076 -0.1898 -1.0376 0 CFG=2
M  V30 15 C 5.2432 0.7173 0.452 0
M  V30 16 C -4.0415 1.1611 -1.4324 0
M  V30 17 C -4.5692 -1.0378 -0.325 0
M  V30 18 O -4.794 1.8112 -0.6581 0
M  V30 19 O -3.6588 1.7248 -2.6429 0 CHG=-1
M  V30 20 H -0.9942 -1.0892 -1.596 0
M  V30 21 H 0.943 0.2851 2.0002 0
M  V30 22 H 2.0168 1.6285 -0.0805 0
M  V30 23 H 3.7865 -2.3135 -0.0245 0
M  V30 24 H -1.1848 1.2337 2.784 0
M  V30 25 H 4.2226 2.6112 0.3963 0
M  V30 26 H 5.9868 -1.3019 0.4326 0
M  V30 27 H -3.223 1.0343 1.4238 0
M  V30 28 H -3.2568 -0.7272 -1.9793 0
M  V30 29 H 6.2119 1.156 0.653 0
M  V30 30 H -5.4521 -1.1744 -0.9856 0
M  V30 31 H -4.1548 -2.0408 -0.0868 0
M  V30 32 H -4.9038 -0.5582 0.6192 0
M  V30 END ATOM
M  V30 BEGIN BOND
M  V30 1 2 1 2
M  V30 2 1 2 3
M  V30 3 1 2 4
M  V30 4 2 3 5
M  V30 5 1 3 6
M  V30 6 2 4 7
M  V30 7 1 4 8
M  V30 8 1 5 9
M  V30 9 2 6 10
M  V30 10 1 7 11
M  V30 11 2 8 12
M  V30 12 2 9 13
M  V30 13 1 9 14
M  V30 14 2 11 15
M  V30 15 1 14 16
M  V30 16 1 14 17
M  V30 17 2 16 18
M  V30 18 1 16 19
M  V30 19 1 10 13
M  V30 20 1 12 15
M  V30 21 1 5 20
M  V30 22 1 6 21
M  V30 23 1 7 22
M  V30 24 1 8 23
M  V30 25 1 10 24
M  V30 26 1 11 25
M  V30 27 1 12 26
M  V30 28 1 13 27
M  V30 29 1 14 28
M  V30 30 1 15 29
M  V30 31 1 17 30
M  V30 32 1 17 31
M  V30 33 1 17 32
M  V30 END BOND
M  V30 BEGIN COLLECTION
M  V30 MDLV30/STEABS ATOMS=(1 14)
M  V30 END COLLECTION
M  V30 END CTAB
M  END
>  <Structure No>
8129

>  <LogS>
-3.47

>  <MMFF94 Energy>
108.1

$$$$
Compound 8130
Actelion Java MolfileCreator 2.0

  0  0  0  0  0  0              0 V3000
M  V30 BEGIN CTAB
M  V30 COUNTS 29 31 0 0 0
M  V30 BEGIN ATOM
M  V30 1 O -4.1669 2.3222 -0.8803 0
M  V30 2 C -3.2847 1.4603 -0.6289 0
M  V30 3 O -2.0118 1.8285 -0.5566 0
M  V30 4 C -3.6511 0.1285 -0.4283 0
M  V30 5 C -1.0254 0.9749 -0.2953 0
M  V30 6 C -2.6649 -0.8264 -0.1499 0
M  V30 7 C -1.3167 -0.41 -0.0803 0
M  V30 8 C 0.3072 1.4478 -0.2329 0
M  V30 9 C -3.0694 -2.2622 0.0629 0
M  V30 10 C -0.259 -1.3133 0.1876 0
M  V30 11 C 1.3136 0.5134 0.0225 0
M  V30 12 C 0.634 2.8925 -0.4845 0
M  V30 13 C 1.0362 -0.8108 0.2277 0
M  V30 14 O 2.606 0.7245 0.1036 0
M  V30 15 C 2.2348 -1.4489 0.4494 0
M  V30 16 C 3.1818 -0.4349 0.362 0
M  V30 17 C 4.654 -0.6171 0.5134 0
M  V30 18 H -4.6953 -0.1552 -0.4902 0
M  V30 19 H -2.5836 -2.9066 -0.6994 0
M  V30 20 H -4.1686 -2.397 -0.024 0
M  V30 21 H -2.7636 -2.5924 1.0778 0
M  V30 22 H -0.4263 -2.3691 0.3543 0
M  V30 23 H 1.6691 3.1352 -0.1636 0
M  V30 24 H 0.5348 3.1102 -1.5683 0
M  V30 25 H -0.0619 3.5453 0.0833 0
M  V30 26 H 2.4021 -2.5005 0.6428 0
M  V30 27 H 5.0517 -1.1692 -0.3631 0
M  V30 28 H 4.8689 -1.1914 1.4388 0
M  V30 29 H 5.1539 0.3719 0.5781 0
M  V30 END ATOM
M  V30 BEGIN BOND
M  V30 1 2 1 2
M  V30 2 1 2 3
M  V30 3 1 2 4
M  V30 4 1 3 5
M  V30 5 2 4 6
M  V30 6 2 5 7
M  V30 7 1 5 8
M  V30 8 1 6 9
M  V30 9 1 7 10
M  V30 10 2 8 11
M  V30 11 1 8 12
M  V30 12 2 10 13
M  V30 13 1 11 14
M  V30 14 1 13 15
M  V30 15 1 14 16
M  V30 16 1 16 17
M  V30 17 1 6 7
M  V30 18 1 11 13
M  V30 19 2 15 16
M  V30 20 1 4 18
M  V30 21 1 9 19
M  V30 22 1 9 20
M  V30 23 1 9 21
M  V30 24 1 10 22
M  V30 25 1 12 23
M  V30 26 1 12 24
M  V30 27 1 12 25
M  V30 28 1 15 26
M  V30 29 1 17 27
M  V30 30 1 17 28
M  V30 31 1 17 29
M  V30 END BOND
M  V30 END CTAB
M  END
>  <Structure No>
8130

>  <LogS>
-5.28

>  <MMFF94 Energy>
34.549

$$$$
Compound 8131
Actelion Java MolfileCreator 2.0

  0  0  0  0  0  0              0 V3000
M  V30 BEGIN CTAB
M  V30 COUNTS 42 43 0 0 0
M  V30 BEGIN ATOM
M  V30 1 O -1.5914 0.159 2.7066 0
M  V30 2 C -1.7351 -0.0496 1.4705 0
M  V30 3 N -0.8586 0.5999 0.5346 0
M  V30 4 C -2.8135 -0.9556 1.0065 0
M  V30 5 C 0.3947 1.2404 0.9574 0 CFG=2
M  V30 6 C -3.9282 -1.2036 1.8297 0
M  V30 7 C -2.7313 -1.6053 -0.2403 0
M  V30 8 C 0.924 2.1716 -0.1031 0
M  V30 9 C 1.4518 0.189 1.3549 0
M  V30 10 C -4.9444 -2.0657 1.4063 0
M  V30 11 C -3.7498 -2.4679 -0.6574 0
M  V30 12 O 0.8579 1.857 -1.324 0
M  V30 13 O 1.5432 3.3627 0.2863 0
M  V30 14 C 1.7449 -0.7994 0.2514 0
M  V30 15 C -4.8564 -2.6956 0.1633 0
M  V30 16 C 2.1103 4.274 -0.6487 0
M  V30 17 C 0.9817 -1.9725 0.1282 0
M  V30 18 C 2.7658 -0.5439 -0.6792 0
M  V30 19 C 2.7068 5.4593 0.0929 0
M  V30 20 C 1.2307 -2.8709 -0.913 0
M  V30 21 C 3.0146 -1.4452 -1.7187 0
M  V30 22 C 2.2482 -2.6087 -1.8401 0
M  V30 23 O 2.505 -3.496 -2.8828 0
M  V30 24 H -1.139 0.632 -0.4709 0
M  V30 25 H 0.1839 1.8659 1.8529 0
M  V30 26 H -4.0188 -0.7236 2.7964 0
M  V30 27 H -1.8738 -1.4713 -0.8858 0
M  V30 28 H 1.1001 -0.3591 2.256 0
M  V30 29 H 2.3898 0.7053 1.6574 0
M  V30 30 H -5.8008 -2.2457 2.0435 0
M  V30 31 H -3.6773 -2.9654 -1.6159 0
M  V30 32 H -5.6431 -3.3641 -0.1617 0
M  V30 33 H 2.9091 3.7655 -1.2309 0
M  V30 34 H 1.3232 4.6349 -1.346 0
M  V30 35 H 0.1927 -2.1906 0.8369 0
M  V30 36 H 3.3637 0.356 -0.6033 0
M  V30 37 H 3.5014 5.1114 0.7866 0
M  V30 38 H 1.9166 5.98 0.6744 0
M  V30 39 H 3.1492 6.1727 -0.634 0
M  V30 40 H 0.6321 -3.7687 -0.9988 0
M  V30 41 H 3.8016 -1.2375 -2.4325 0
M  V30 42 H 1.9669 -4.3469 -2.9982 0
M  V30 END ATOM
M  V30 BEGIN BOND
M  V30 1 2 1 2
M  V30 2 1 2 3
M  V30 3 1 2 4
M  V30 4 1 3 5
M  V30 5 2 4 6
M  V30 6 1 4 7
M  V30 7 1 5 8
M  V30 8 1 5 9
M  V30 9 1 6 10
M  V30 10 2 7 11
M  V30 11 2 8 12
M  V30 12 1 8 13
M  V30 13 1 9 14
M  V30 14 2 10 15
M  V30 15 1 13 16
M  V30 16 2 14 17
M  V30 17 1 14 18
M  V30 18 1 16 19
M  V30 19 1 17 20
M  V30 20 2 18 21
M  V30 21 2 20 22
M  V30 22 1 22 23
M  V30 23 1 11 15
M  V30 24 1 21 22
M  V30 25 1 3 24
M  V30 26 1 5 25
M  V30 27 1 6 26
M  V30 28 1 7 27
M  V30 29 1 9 28
M  V30 30 1 9 29
M  V30 31 1 10 30
M  V30 32 1 11 31
M  V30 33 1 15 32
M  V30 34 1 16 33
M  V30 35 1 16 34
M  V30 36 1 17 35
M  V30 37 1 18 36
M  V30 38 1 19 37
M  V30 39 1 19 38
M  V30 40 1 19 39
M  V30 41 1 20 40
M  V30 42 1 21 41
M  V30 43 1 23 42
M  V30 END BOND
M  V30 BEGIN COLLECTION
M  V30 MDLV30/STEABS ATOMS=(1 5)
M  V30 END COLLECTION
M  V30 END CTAB
M  END
>  <Structure No>
8131

>  <LogS>
-3.33

>  <MMFF94 Energy>
43.691

$$$$
Compound 8132
Actelion Java MolfileCreator 2.0

  0  0  0  0  0  0              0 V3000
M  V30 BEGIN CTAB
M  V30 COUNTS 33 33 0 0 0
M  V30 BEGIN ATOM
M  V30 1 S 0.0824 -2.4759 0.4123 0
M  V30 2 O 0.8004 -3.2711 1.4663 0
M  V30 3 O -0.2598 -3.3945 -0.728 0
M  V30 4 N -1.3746 -1.8086 1.0886 0
M  V30 5 C 1.131 -1.1743 -0.1457 0
M  V30 6 C -2.1891 -1.1376 0.0541 0 CFG=1
M  V30 7 C 1.205 -0.8518 -1.5078 0
M  V30 8 C 1.8666 -0.4267 0.7829 0
M  V30 9 C -3.4031 -1.9783 -0.2127 0
M  V30 10 C -2.6253 0.2825 0.483 0
M  V30 11 C 2.0045 0.2118 -1.9363 0
M  V30 12 C 2.666 0.6372 0.3556 0
M  V30 13 O -4.1611 -2.3215 0.7333 0
M  V30 14 O -3.707 -2.3694 -1.5107 0 CHG=-1
M  V30 15 C -1.4625 1.2843 0.4311 0
M  V30 16 C 2.7272 0.9735 -1.0053 0
M  V30 17 C -1.9406 2.6596 0.7738 0
M  V30 18 C 3.6109 2.0936 -1.4682 0
M  V30 19 O -1.9653 3.0412 1.9735 0
M  V30 20 O -2.4049 3.5039 -0.2268 0 CHG=-1
M  V30 21 H -1.0864 -1.1497 1.8468 0
M  V30 22 H -1.6384 -1.0398 -0.9082 0
M  V30 23 H 0.6396 -1.4163 -2.2379 0
M  V30 24 H 1.8133 -0.6618 1.8385 0
M  V30 25 H -3.4224 0.6408 -0.2074 0
M  V30 26 H -3.0539 0.2532 1.5099 0
M  V30 27 H 2.0552 0.4449 -2.9928 0
M  V30 28 H 3.2321 1.202 1.0861 0
M  V30 29 H -1.022 1.3006 -0.5892 0
M  V30 30 H -0.6639 0.9937 1.1448 0
M  V30 31 H 3.6891 2.8794 -0.6867 0
M  V30 32 H 4.6246 1.6977 -1.6866 0
M  V30 33 H 3.1992 2.5633 -2.3869 0
M  V30 END ATOM
M  V30 BEGIN BOND
M  V30 1 2 1 2
M  V30 2 2 1 3
M  V30 3 1 1 4
M  V30 4 1 1 5
M  V30 5 1 4 6
M  V30 6 2 5 7
M  V30 7 1 5 8
M  V30 8 1 6 9
M  V30 9 1 6 10
M  V30 10 1 7 11
M  V30 11 2 8 12
M  V30 12 2 9 13
M  V30 13 1 9 14
M  V30 14 1 10 15
M  V30 15 2 11 16
M  V30 16 1 15 17
M  V30 17 1 16 18
M  V30 18 2 17 19
M  V30 19 1 17 20
M  V30 20 1 12 16
M  V30 21 1 4 21
M  V30 22 1 6 22
M  V30 23 1 7 23
M  V30 24 1 8 24
M  V30 25 1 10 25
M  V30 26 1 10 26
M  V30 27 1 11 27
M  V30 28 1 12 28
M  V30 29 1 15 29
M  V30 30 1 15 30
M  V30 31 1 18 31
M  V30 32 1 18 32
M  V30 33 1 18 33
M  V30 END BOND
M  V30 BEGIN COLLECTION
M  V30 MDLV30/STEABS ATOMS=(1 6)
M  V30 END COLLECTION
M  V30 END CTAB
M  END
>  <Structure No>
8132

>  <LogS>
-0.93

>  <MMFF94 Energy>
72.538

$$$$
Compound 8133
Actelion Java MolfileCreator 2.0

  0  0  0  0  0  0              0 V3000
M  V30 BEGIN CTAB
M  V30 COUNTS 35 35 0 0 0
M  V30 BEGIN ATOM
M  V30 1 O -2.3072 -3.9804 1.1928 0
M  V30 2 C -1.7503 -2.9134 0.8218 0
M  V30 3 N -1.4444 -2.7078 -0.5528 0
M  V30 4 N -1.3952 -1.9227 1.7792 0
M  V30 5 C -0.8834 -1.4723 -1.0079 0
M  V30 6 C -0.7687 -0.7032 1.3727 0
M  V30 7 O -0.5573 -1.3767 -2.223 0
M  V30 8 C -0.7997 -0.2433 -0.0915 0
M  V30 9 O -0.2523 0.0262 2.2609 0
M  V30 10 C 0.5055 0.5755 -0.4798 0 CFG=2
M  V30 11 C -2.1114 0.5615 -0.3673 0
M  V30 12 C 1.8055 -0.1946 -0.1036 0
M  V30 13 C 0.5567 2.0199 0.0668 0
M  V30 14 C -2.4513 1.6241 0.6549 0
M  V30 15 C 2.9814 0.135 -1.0375 0
M  V30 16 C -2.8984 2.8299 0.2914 0
M  V30 17 C 4.2284 -0.6561 -0.6525 0
M  V30 18 H -1.6184 -3.4778 -1.2376 0
M  V30 19 H -1.5257 -2.1215 2.7968 0
M  V30 20 H 0.4984 0.7051 -1.5853 0
M  V30 21 H -2.0533 1.008 -1.3856 0
M  V30 22 H -2.9779 -0.1368 -0.38 0
M  V30 23 H 2.0911 0.0346 0.9466 0
M  V30 24 H 1.6297 -1.2907 -0.1597 0
M  V30 25 H 0.4071 2.0649 1.1621 0
M  V30 26 H -0.2058 2.6488 -0.4346 0
M  V30 27 H 1.5339 2.4929 -0.1566 0
M  V30 28 H -2.4408 1.3788 1.7118 0
M  V30 29 H 3.2239 1.2169 -0.991 0
M  V30 30 H 2.7087 -0.1182 -2.0851 0
M  V30 31 H -2.9808 3.1076 -0.7548 0
M  V30 32 H -3.184 3.5532 1.0485 0
M  V30 33 H 4.0318 -1.7471 -0.7254 0
M  V30 34 H 4.5379 -0.4073 0.3849 0
M  V30 35 H 5.0597 -0.399 -1.3424 0
M  V30 END ATOM
M  V30 BEGIN BOND
M  V30 1 2 1 2
M  V30 2 1 2 3
M  V30 3 1 2 4
M  V30 4 1 3 5
M  V30 5 1 4 6
M  V30 6 2 5 7
M  V30 7 1 5 8
M  V30 8 2 6 9
M  V30 9 1 8 10
M  V30 10 1 8 11
M  V30 11 1 10 12
M  V30 12 1 10 13
M  V30 13 1 11 14
M  V30 14 1 12 15
M  V30 15 2 14 16
M  V30 16 1 15 17
M  V30 17 1 6 8
M  V30 18 1 3 18
M  V30 19 1 4 19
M  V30 20 1 10 20
M  V30 21 1 11 21
M  V30 22 1 11 22
M  V30 23 1 12 23
M  V30 24 1 12 24
M  V30 25 1 13 25
M  V30 26 1 13 26
M  V30 27 1 13 27
M  V30 28 1 14 28
M  V30 29 1 15 29
M  V30 30 1 15 30
M  V30 31 1 16 31
M  V30 32 1 16 32
M  V30 33 1 17 33
M  V30 34 1 17 34
M  V30 35 1 17 35
M  V30 END BOND
M  V30 BEGIN COLLECTION
M  V30 MDLV30/STEABS ATOMS=(1 10)
M  V30 END COLLECTION
M  V30 END CTAB
M  END
>  <Structure No>
8133

>  <LogS>
-2.36

>  <MMFF94 Energy>
-112.08

$$$$
Compound 8134
Actelion Java MolfileCreator 2.0

  0  0  0  0  0  0              0 V3000
M  V30 BEGIN CTAB
M  V30 COUNTS 46 45 0 0 0
M  V30 BEGIN ATOM
M  V30 1 O -3.7512 1.0929 -0.7805 0
M  V30 2 C -2.9397 1.0467 0.1844 0
M  V30 3 N -3.1873 1.8728 1.3298 0
M  V30 4 C -1.6444 0.2313 0.0763 0
M  V30 5 O -4.3292 2.5954 1.4217 0
M  V30 6 C -0.5035 1.314 -0.0823 0
M  V30 7 C -1.4146 -0.6174 1.382 0
M  V30 8 C -1.6777 -0.7012 -1.1815 0
M  V30 9 C 0.9519 0.9497 -0.5403 0 CFG=1
M  V30 10 C -2.6739 -1.1613 2.0808 0
M  V30 11 C -2.7701 -1.7772 -1.2071 0
M  V30 12 C 1.5856 -0.1928 0.2904 0
M  V30 13 C 1.1486 0.7497 -2.0721 0
M  V30 14 C 3.1209 -0.233 0.198 0
M  V30 15 C 0.5832 1.8845 -2.9288 0
M  V30 16 C 3.7024 -1.2561 1.1817 0
M  V30 17 C 5.2239 -1.3155 1.0816 0
M  V30 18 H -2.4953 1.923 2.1101 0
M  V30 19 H -4.1068 3.474 1.0201 0
M  V30 20 H -0.397 1.8353 0.8951 0
M  V30 21 H -0.8691 2.1222 -0.7499 0
M  V30 22 H -0.7627 -1.4864 1.1554 0
M  V30 23 H -0.8771 -0.0155 2.1455 0
M  V30 24 H -1.7792 -0.0822 -2.099 0
M  V30 25 H -0.7268 -1.2583 -1.253 0
M  V30 26 H 1.5447 1.8617 -0.2979 0
M  V30 27 H -3.4168 -1.5652 1.37 0
M  V30 28 H -2.3841 -1.9742 2.7796 0
M  V30 29 H -3.163 -0.3687 2.6827 0
M  V30 30 H -2.5376 -2.5824 -0.4795 0
M  V30 31 H -3.7762 -1.3631 -1.0005 0
M  V30 32 H -2.7958 -2.243 -2.2149 0
M  V30 33 H 1.3218 -0.0419 1.3585 0
M  V30 34 H 1.1894 -1.1745 -0.0386 0
M  V30 35 H 0.7438 -0.2144 -2.4292 0
M  V30 36 H 2.2371 0.7182 -2.2855 0
M  V30 37 H 3.4287 -0.5186 -0.8297 0
M  V30 38 H 3.5367 0.772 0.4304 0
M  V30 39 H 0.8972 2.8714 -2.5269 0
M  V30 40 H 0.9664 1.79 -3.9668 0
M  V30 41 H -0.5238 1.8324 -2.9747 0
M  V30 42 H 3.4226 -0.9792 2.2217 0
M  V30 43 H 3.2877 -2.2642 0.9624 0
M  V30 44 H 5.5318 -1.6185 0.0581 0
M  V30 45 H 5.6151 -2.0613 1.8052 0
M  V30 46 H 5.6651 -0.3242 1.3194 0
M  V30 END ATOM
M  V30 BEGIN BOND
M  V30 1 2 1 2
M  V30 2 1 2 3
M  V30 3 1 2 4
M  V30 4 1 3 5
M  V30 5 1 4 6
M  V30 6 1 4 7
M  V30 7 1 4 8
M  V30 8 1 6 9
M  V30 9 1 7 10
M  V30 10 1 8 11
M  V30 11 1 9 12
M  V30 12 1 9 13
M  V30 13 1 12 14
M  V30 14 1 13 15
M  V30 15 1 14 16
M  V30 16 1 16 17
M  V30 17 1 3 18
M  V30 18 1 5 19
M  V30 19 1 6 20
M  V30 20 1 6 21
M  V30 21 1 7 22
M  V30 22 1 7 23
M  V30 23 1 8 24
M  V30 24 1 8 25
M  V30 25 1 9 26
M  V30 26 1 10 27
M  V30 27 1 10 28
M  V30 28 1 10 29
M  V30 29 1 11 30
M  V30 30 1 11 31
M  V30 31 1 11 32
M  V30 32 1 12 33
M  V30 33 1 12 34
M  V30 34 1 13 35
M  V30 35 1 13 36
M  V30 36 1 14 37
M  V30 37 1 14 38
M  V30 38 1 15 39
M  V30 39 1 15 40
M  V30 40 1 15 41
M  V30 41 1 16 42
M  V30 42 1 16 43
M  V30 43 1 17 44
M  V30 44 1 17 45
M  V30 45 1 17 46
M  V30 END BOND
M  V30 BEGIN COLLECTION
M  V30 MDLV30/STEABS ATOMS=(1 9)
M  V30 END COLLECTION
M  V30 END CTAB
M  END
>  <Structure No>
8134

>  <LogS>
-3.35

>  <MMFF94 Energy>
45.99

$$$$
Compound 8135
Actelion Java MolfileCreator 2.0

  0  0  0  0  0  0              0 V3000
M  V30 BEGIN CTAB
M  V30 COUNTS 46 45 0 0 0
M  V30 BEGIN ATOM
M  V30 1 O -4.5309 1.8729 0.624 0
M  V30 2 C -3.7425 1.4729 -0.2775 0
M  V30 3 N -3.7233 2.172 -1.5299 0
M  V30 4 C -2.8193 0.2704 -0.0315 0
M  V30 5 O -4.5677 3.2083 -1.749 0
M  V30 6 C -1.342 0.8129 -0.0681 0
M  V30 7 C -3.1389 -0.3186 1.3905 0
M  V30 8 C -3.0801 -0.7901 -1.1568 0
M  V30 9 C -0.2584 -0.1761 -0.55 0
M  V30 10 C -2.2912 -1.5097 1.8445 0
M  V30 11 C -4.5264 -1.2932 -1.2468 0
M  V30 12 C 1.148 0.3938 -0.3245 0
M  V30 13 C 2.2241 -0.5806 -0.8276 0
M  V30 14 C 3.6432 0.0037 -0.7382 0
M  V30 15 C 4.1665 0.0658 0.7072 0
M  V30 16 C 5.5892 0.6404 0.7935 0
M  V30 17 C 6.6531 -0.33 0.2803 0
M  V30 18 H -3.0675 1.8919 -2.292 0
M  V30 19 H -4.064 4.0118 -1.4603 0
M  V30 20 H -1.0679 1.1924 0.9412 0
M  V30 21 H -1.2683 1.6963 -0.7395 0
M  V30 22 H -3.0092 0.4793 2.1556 0
M  V30 23 H -4.2071 -0.6183 1.4458 0
M  V30 24 H -2.4311 -1.6786 -1.0246 0
M  V30 25 H -2.8068 -0.3645 -2.1452 0
M  V30 26 H -0.395 -0.3634 -1.6373 0
M  V30 27 H -0.3377 -1.1462 -0.0225 0
M  V30 28 H -1.2451 -1.1955 2.0357 0
M  V30 29 H -2.3211 -2.3403 1.1125 0
M  V30 30 H -2.6966 -1.8952 2.8039 0
M  V30 31 H -5.2414 -0.4517 -1.3553 0
M  V30 32 H -4.6298 -1.948 -2.1378 0
M  V30 33 H -4.7919 -1.8964 -0.3546 0
M  V30 34 H 1.2883 0.5781 0.7615 0
M  V30 35 H 1.2426 1.3615 -0.8649 0
M  V30 36 H 2.019 -0.8183 -1.8946 0
M  V30 37 H 2.1713 -1.5328 -0.2553 0
M  V30 38 H 4.3106 -0.6491 -1.3389 0
M  V30 39 H 3.6631 1.0176 -1.1947 0
M  V30 40 H 3.505 0.7247 1.3078 0
M  V30 41 H 4.1411 -0.9467 1.1662 0
M  V30 42 H 5.652 1.5961 0.2289 0
M  V30 43 H 5.8123 0.8658 1.8592 0
M  V30 44 H 6.5688 -1.3092 0.7978 0
M  V30 45 H 6.5561 -0.4797 -0.8144 0
M  V30 46 H 7.6614 0.0891 0.482 0
M  V30 END ATOM
M  V30 BEGIN BOND
M  V30 1 2 1 2
M  V30 2 1 2 3
M  V30 3 1 2 4
M  V30 4 1 3 5
M  V30 5 1 4 6
M  V30 6 1 4 7
M  V30 7 1 4 8
M  V30 8 1 6 9
M  V30 9 1 7 10
M  V30 10 1 8 11
M  V30 11 1 9 12
M  V30 12 1 12 13
M  V30 13 1 13 14
M  V30 14 1 14 15
M  V30 15 1 15 16
M  V30 16 1 16 17
M  V30 17 1 3 18
M  V30 18 1 5 19
M  V30 19 1 6 20
M  V30 20 1 6 21
M  V30 21 1 7 22
M  V30 22 1 7 23
M  V30 23 1 8 24
M  V30 24 1 8 25
M  V30 25 1 9 26
M  V30 26 1 9 27
M  V30 27 1 10 28
M  V30 28 1 10 29
M  V30 29 1 10 30
M  V30 30 1 11 31
M  V30 31 1 11 32
M  V30 32 1 11 33
M  V30 33 1 12 34
M  V30 34 1 12 35
M  V30 35 1 13 36
M  V30 36 1 13 37
M  V30 37 1 14 38
M  V30 38 1 14 39
M  V30 39 1 15 40
M  V30 40 1 15 41
M  V30 41 1 16 42
M  V30 42 1 16 43
M  V30 43 1 17 44
M  V30 44 1 17 45
M  V30 45 1 17 46
M  V30 END BOND
M  V30 END CTAB
M  END
>  <Structure No>
8135

>  <LogS>
-5.22

>  <MMFF94 Energy>
37.053

$$$$
Compound 8136
Actelion Java MolfileCreator 2.0

  0  0  0  0  0  0              0 V3000
M  V30 BEGIN CTAB
M  V30 COUNTS 46 45 0 0 0
M  V30 BEGIN ATOM
M  V30 1 O 1.0156 -1.172 1.9539 0
M  V30 2 C 0.1399 -0.3704 1.5286 0
M  V30 3 N -0.7224 0.2538 2.4921 0
M  V30 4 C 0.046 -0.0729 0.0237 0
M  V30 5 O -0.6184 -0.0691 3.8035 0
M  V30 6 C 0.8362 1.2432 -0.3138 0
M  V30 7 C 0.6649 -1.2676 -0.8018 0
M  V30 8 C -1.4515 0.1024 -0.4502 0
M  V30 9 C 0.3794 2.5582 0.3905 0
M  V30 10 C 2.2156 -1.4662 -0.746 0
M  V30 11 C -2.3601 -1.1614 -0.5215 0
M  V30 12 C 1.2448 2.8689 1.6235 0
M  V30 13 C 0.4444 3.7435 -0.5833 0
M  V30 14 C 2.5705 -2.9529 -0.5886 0
M  V30 15 C 2.903 -0.9161 -2.0072 0
M  V30 16 C -2.5843 -1.8238 0.8451 0
M  V30 17 C -3.7189 -0.7836 -1.1306 0
M  V30 18 H -1.422 0.9764 2.2251 0
M  V30 19 H -1.2622 -0.8119 3.9334 0
M  V30 20 H 1.9155 1.1127 -0.0994 0
M  V30 21 H 0.7778 1.3824 -1.4163 0
M  V30 22 H 0.1828 -2.2028 -0.4436 0
M  V30 23 H 0.3571 -1.1733 -1.8676 0
M  V30 24 H -1.4208 0.5242 -1.48 0
M  V30 25 H -1.9859 0.8655 0.1439 0
M  V30 26 H -0.6708 2.4924 0.7243 0
M  V30 27 H 2.6523 -0.9484 0.1317 0
M  V30 28 H -1.9134 -1.9116 -1.2066 0
M  V30 29 H 2.2958 3.0713 1.3239 0
M  V30 30 H 0.849 3.7619 2.1529 0
M  V30 31 H 1.2444 2.0215 2.3368 0
M  V30 32 H -0.2409 3.5709 -1.4407 0
M  V30 33 H 0.1266 4.6798 -0.0758 0
M  V30 34 H 1.4778 3.8769 -0.97 0
M  V30 35 H 2.1683 -3.5435 -1.4398 0
M  V30 36 H 2.1446 -3.3503 0.3574 0
M  V30 37 H 3.673 -3.0857 -0.5477 0
M  V30 38 H 4.005 -1.0275 -1.9212 0
M  V30 39 H 2.6835 0.1606 -2.1471 0
M  V30 40 H 2.5607 -1.4652 -2.9107 0
M  V30 41 H -2.9658 -1.0857 1.5822 0
M  V30 42 H -1.6473 -2.2795 1.2213 0
M  V30 43 H -3.3259 -2.6463 0.7566 0
M  V30 44 H -4.3588 -1.6855 -1.239 0
M  V30 45 H -3.5802 -0.3434 -2.1413 0
M  V30 46 H -4.2464 -0.0459 -0.4879 0
M  V30 END ATOM
M  V30 BEGIN BOND
M  V30 1 2 1 2
M  V30 2 1 2 3
M  V30 3 1 2 4
M  V30 4 1 3 5
M  V30 5 1 4 6
M  V30 6 1 4 7
M  V30 7 1 4 8
M  V30 8 1 6 9
M  V30 9 1 7 10
M  V30 10 1 8 11
M  V30 11 1 9 12
M  V30 12 1 9 13
M  V30 13 1 10 14
M  V30 14 1 10 15
M  V30 15 1 11 16
M  V30 16 1 11 17
M  V30 17 1 3 18
M  V30 18 1 5 19
M  V30 19 1 6 20
M  V30 20 1 6 21
M  V30 21 1 7 22
M  V30 22 1 7 23
M  V30 23 1 8 24
M  V30 24 1 8 25
M  V30 25 1 9 26
M  V30 26 1 10 27
M  V30 27 1 11 28
M  V30 28 1 12 29
M  V30 29 1 12 30
M  V30 30 1 12 31
M  V30 31 1 13 32
M  V30 32 1 13 33
M  V30 33 1 13 34
M  V30 34 1 14 35
M  V30 35 1 14 36
M  V30 36 1 14 37
M  V30 37 1 15 38
M  V30 38 1 15 39
M  V30 39 1 15 40
M  V30 40 1 16 41
M  V30 41 1 16 42
M  V30 42 1 16 43
M  V30 43 1 17 44
M  V30 44 1 17 45
M  V30 45 1 17 46
M  V30 END BOND
M  V30 END CTAB
M  END
>  <Structure No>
8136

>  <LogS>
-4.0

>  <MMFF94 Energy>
60.888

$$$$
Compound 8137
Actelion Java MolfileCreator 2.0

  0  0  0  0  0  0              0 V3000
M  V30 BEGIN CTAB
M  V30 COUNTS 46 45 0 0 0
M  V30 BEGIN ATOM
M  V30 1 O -0.39 1.0923 -2.1074 0
M  V30 2 C -1.138 0.3338 -1.431 0
M  V30 3 N -2.1646 -0.3975 -2.1175 0
M  V30 4 C -0.9674 0.3036 0.0932 0
M  V30 5 O -2.2252 -0.3698 -3.4703 0
M  V30 6 C 0.554 0.1691 0.4767 0
M  V30 7 C -1.4501 1.6858 0.648 0
M  V30 8 C -1.7952 -0.8251 0.8063 0
M  V30 9 C 1.4193 -0.7239 -0.4474 0
M  V30 10 C -2.9383 2.0126 0.4046 0
M  V30 11 C -1.3651 -2.2711 0.5008 0
M  V30 12 C 2.6842 -1.2532 0.2508 0
M  V30 13 C -3.2523 3.4568 0.787 0
M  V30 14 C -2.3525 -3.2749 1.0905 0
M  V30 15 C 3.6415 -0.1599 0.7673 0
M  V30 16 C 4.1699 0.8023 -0.311 0
M  V30 17 C 4.9772 0.0946 -1.3983 0
M  V30 18 H -2.906 -0.9227 -1.6085 0
M  V30 19 H -1.6932 -1.153 -3.7637 0
M  V30 20 H 0.6313 -0.1916 1.5265 0
M  V30 21 H 1.0351 1.1722 0.4727 0
M  V30 22 H -0.8408 2.4942 0.1835 0
M  V30 23 H -1.2573 1.7322 1.7435 0
M  V30 24 H -1.7206 -0.6812 1.9075 0
M  V30 25 H -2.8726 -0.7223 0.5675 0
M  V30 26 H 0.8464 -1.5968 -0.8105 0
M  V30 27 H 1.7112 -0.159 -1.3564 0
M  V30 28 H -3.5823 1.352 1.0217 0
M  V30 29 H -3.201 1.8683 -0.6644 0
M  V30 30 H -1.308 -2.4413 -0.5938 0
M  V30 31 H -0.37 -2.47 0.9518 0
M  V30 32 H 3.2285 -1.923 -0.4481 0
M  V30 33 H 2.3766 -1.8851 1.1123 0
M  V30 34 H -2.6642 4.1597 0.159 0
M  V30 35 H -3.0136 3.6332 1.8575 0
M  V30 36 H -4.3324 3.6582 0.6259 0
M  V30 37 H -3.3571 -3.1414 0.6354 0
M  V30 38 H -2.427 -3.1427 2.191 0
M  V30 39 H -2.0035 -4.3077 0.8796 0
M  V30 40 H 3.132 0.4341 1.5559 0
M  V30 41 H 4.5071 -0.6565 1.2574 0
M  V30 42 H 4.832 1.5449 0.1846 0
M  V30 43 H 3.336 1.3714 -0.7721 0
M  V30 44 H 5.7758 -0.5302 -0.9452 0
M  V30 45 H 5.4513 0.852 -2.0575 0
M  V30 46 H 4.3173 -0.5412 -2.0241 0
M  V30 END ATOM
M  V30 BEGIN BOND
M  V30 1 2 1 2
M  V30 2 1 2 3
M  V30 3 1 2 4
M  V30 4 1 3 5
M  V30 5 1 4 6
M  V30 6 1 4 7
M  V30 7 1 4 8
M  V30 8 1 6 9
M  V30 9 1 7 10
M  V30 10 1 8 11
M  V30 11 1 9 12
M  V30 12 1 10 13
M  V30 13 1 11 14
M  V30 14 1 12 15
M  V30 15 1 15 16
M  V30 16 1 16 17
M  V30 17 1 3 18
M  V30 18 1 5 19
M  V30 19 1 6 20
M  V30 20 1 6 21
M  V30 21 1 7 22
M  V30 22 1 7 23
M  V30 23 1 8 24
M  V30 24 1 8 25
M  V30 25 1 9 26
M  V30 26 1 9 27
M  V30 27 1 10 28
M  V30 28 1 10 29
M  V30 29 1 11 30
M  V30 30 1 11 31
M  V30 31 1 12 32
M  V30 32 1 12 33
M  V30 33 1 13 34
M  V30 34 1 13 35
M  V30 35 1 13 36
M  V30 36 1 14 37
M  V30 37 1 14 38
M  V30 38 1 14 39
M  V30 39 1 15 40
M  V30 40 1 15 41
M  V30 41 1 16 42
M  V30 42 1 16 43
M  V30 43 1 17 44
M  V30 44 1 17 45
M  V30 45 1 17 46
M  V30 END BOND
M  V30 END CTAB
M  END
>  <Structure No>
8137

>  <LogS>
-2.82

>  <MMFF94 Energy>
36.502

$$$$
Compound 8138
Actelion Java MolfileCreator 2.0

  0  0  0  0  0  0              0 V3000
M  V30 BEGIN CTAB
M  V30 COUNTS 46 45 0 0 0
M  V30 BEGIN ATOM
M  V30 1 O -4.0581 1.7933 -0.7014 0
M  V30 2 C -4.6501 0.7433 -0.3277 0
M  V30 3 N -6.0672 0.7896 -0.1173 0
M  V30 4 C -3.8774 -0.5665 -0.1968 0
M  V30 5 O -6.7341 1.9652 -0.2079 0
M  V30 6 C -2.3364 -0.3208 -0.1446 0
M  V30 7 C -4.3257 -1.3399 1.0659 0
M  V30 8 C -4.1866 -1.4242 -1.4396 0
M  V30 9 C -1.8542 0.4272 1.1181 0
M  V30 10 C -0.4081 0.9307 0.988 0
M  V30 11 C 0.6123 -0.2194 0.921 0
M  V30 12 C 2.0643 0.2671 1.0568 0
M  V30 13 C 2.5626 0.9943 -0.2036 0
M  V30 14 C 3.9869 1.5579 -0.0473 0
M  V30 15 C 5.085 0.5046 0.1875 0
M  V30 16 C 5.2115 -0.4973 -0.9688 0
M  V30 17 C 6.4294 -1.3982 -0.7849 0
M  V30 18 H -6.6131 -0.0816 0.0591 0
M  V30 19 H -6.7498 2.3199 0.7175 0
M  V30 20 H -1.8136 -1.3016 -0.186 0
M  V30 21 H -2.0248 0.2448 -1.051 0
M  V30 22 H -5.3519 -1.7481 0.9535 0
M  V30 23 H -4.3165 -0.6787 1.9587 0
M  V30 24 H -3.6494 -2.2009 1.2569 0
M  V30 25 H -5.2766 -1.6255 -1.5227 0
M  V30 26 H -3.8599 -0.9026 -2.3655 0
M  V30 27 H -3.6595 -2.4012 -1.3842 0
M  V30 28 H -1.93 -0.238 2.0051 0
M  V30 29 H -2.5031 1.3076 1.309 0
M  V30 30 H -0.1854 1.5637 1.8746 0
M  V30 31 H -0.3267 1.5726 0.0855 0
M  V30 32 H 0.4103 -0.9279 1.754 0
M  V30 33 H 0.499 -0.778 -0.0328 0
M  V30 34 H 2.697 -0.6283 1.2317 0
M  V30 35 H 2.1604 0.9296 1.9446 0
M  V30 36 H 2.5101 0.3167 -1.0816 0
M  V30 37 H 1.8946 1.8545 -0.4182 0
M  V30 38 H 3.9977 2.2754 0.8021 0
M  V30 39 H 4.2387 2.1378 -0.9621 0
M  V30 40 H 4.9061 -0.0346 1.1415 0
M  V30 41 H 6.0495 1.0469 0.2994 0
M  V30 42 H 4.3073 -1.1406 -1.0139 0
M  V30 43 H 5.3099 0.048 -1.9325 0
M  V30 44 H 7.3603 -0.7922 -0.7736 0
M  V30 45 H 6.4874 -2.121 -1.6256 0
M  V30 46 H 6.3489 -1.9654 0.1668 0
M  V30 END ATOM
M  V30 BEGIN BOND
M  V30 1 2 1 2
M  V30 2 1 2 3
M  V30 3 1 2 4
M  V30 4 1 3 5
M  V30 5 1 4 6
M  V30 6 1 4 7
M  V30 7 1 4 8
M  V30 8 1 6 9
M  V30 9 1 9 10
M  V30 10 1 10 11
M  V30 11 1 11 12
M  V30 12 1 12 13
M  V30 13 1 13 14
M  V30 14 1 14 15
M  V30 15 1 15 16
M  V30 16 1 16 17
M  V30 17 1 3 18
M  V30 18 1 5 19
M  V30 19 1 6 20
M  V30 20 1 6 21
M  V30 21 1 7 22
M  V30 22 1 7 23
M  V30 23 1 7 24
M  V30 24 1 8 25
M  V30 25 1 8 26
M  V30 26 1 8 27
M  V30 27 1 9 28
M  V30 28 1 9 29
M  V30 29 1 10 30
M  V30 30 1 10 31
M  V30 31 1 11 32
M  V30 32 1 11 33
M  V30 33 1 12 34
M  V30 34 1 12 35
M  V30 35 1 13 36
M  V30 36 1 13 37
M  V30 37 1 14 38
M  V30 38 1 14 39
M  V30 39 1 15 40
M  V30 40 1 15 41
M  V30 41 1 16 42
M  V30 42 1 16 43
M  V30 43 1 17 44
M  V30 44 1 17 45
M  V30 45 1 17 46
M  V30 END BOND
M  V30 END CTAB
M  END
>  <Structure No>
8138

>  <LogS>
-4.8

>  <MMFF94 Energy>
31.896

$$$$
Compound 8139
Actelion Java MolfileCreator 2.0

  0  0  0  0  0  0              0 V3000
M  V30 BEGIN CTAB
M  V30 COUNTS 23 23 0 0 0
M  V30 BEGIN ATOM
M  V30 1 O 1.5036 -2.4542 0.4746 0
M  V30 2 C 1.8425 -1.2462 0.3439 0
M  V30 3 C 0.7934 -0.2011 0.1784 0
M  V30 4 C 3.306 -0.9138 0.3861 0
M  V30 5 C -0.5574 -0.5761 0.0421 0
M  V30 6 C 1.1189 1.1678 0.1579 0
M  V30 7 O 3.6139 -0.3108 1.6115 0
M  V30 8 C -1.5677 0.3944 -0.115 0
M  V30 9 C 0.122 2.1321 0.003 0
M  V30 10 O -2.9207 0.0445 -0.2541 0
M  V30 11 C -1.2155 1.755 -0.1336 0
M  V30 12 C -3.4158 -1.2904 -0.2525 0
M  V30 13 O -2.1828 2.7483 -0.2868 0
M  V30 14 H 3.563 -0.2351 -0.4569 0
M  V30 15 H 3.9058 -1.8444 0.2693 0
M  V30 16 H -0.8197 -1.6251 0.0554 0
M  V30 17 H 2.1405 1.5045 0.2673 0
M  V30 18 H 4.5803 -0.0883 1.5734 0
M  V30 19 H 0.3904 3.1811 -0.0096 0
M  V30 20 H -4.5177 -1.2682 -0.3785 0
M  V30 21 H -2.9737 -1.8629 -1.095 0
M  V30 22 H -3.1791 -1.7846 0.7134 0
M  V30 23 H -3.1672 2.5328 -0.3898 0
M  V30 END ATOM
M  V30 BEGIN BOND
M  V30 1 2 1 2
M  V30 2 1 2 3
M  V30 3 1 2 4
M  V30 4 2 3 5
M  V30 5 1 3 6
M  V30 6 1 4 7
M  V30 7 1 5 8
M  V30 8 2 6 9
M  V30 9 1 8 10
M  V30 10 2 8 11
M  V30 11 1 10 12
M  V30 12 1 11 13
M  V30 13 1 9 11
M  V30 14 1 4 14
M  V30 15 1 4 15
M  V30 16 1 5 16
M  V30 17 1 6 17
M  V30 18 1 7 18
M  V30 19 1 9 19
M  V30 20 1 12 20
M  V30 21 1 12 21
M  V30 22 1 12 22
M  V30 23 1 13 23
M  V30 END BOND
M  V30 END CTAB
M  END
>  <Structure No>
8139

>  <LogS>
-1.78

>  <MMFF94 Energy>
59.713

$$$$
Compound 8140
Actelion Java MolfileCreator 2.0

  0  0  0  0  0  0              0 V3000
M  V30 BEGIN CTAB
M  V30 COUNTS 32 32 0 0 0
M  V30 BEGIN ATOM
M  V30 1 S -3.0557 -3.0557 1.6074 0
M  V30 2 C -2.1656 -1.8422 0.9631 0
M  V30 3 N -1.4987 -0.9169 1.8171 0
M  V30 4 N -2.0555 -1.7129 -0.4515 0
M  V30 5 C -0.7143 0.1552 1.2886 0
M  V30 6 C -1.2877 -0.6646 -1.0478 0
M  V30 7 O -0.1415 0.9396 2.0938 0
M  V30 8 C -0.5512 0.3767 -0.2111 0
M  V30 9 O -1.2238 -0.6023 -2.3061 0
M  V30 10 C -1.088 1.794 -0.5802 0
M  V30 11 C 0.9662 0.3208 -0.5615 0
M  V30 12 C -2.5997 1.9976 -0.3524 0
M  V30 13 C 1.635 -1.0284 -0.2177 0
M  V30 14 O -2.9188 1.992 1.0127 0
M  V30 15 C 3.0939 -1.1008 -0.6945 0
M  V30 16 C 4.0267 -0.2003 0.1151 0
M  V30 17 H -1.5815 -1.0207 2.8539 0
M  V30 18 H -2.5448 -2.3979 -1.071 0
M  V30 19 H -0.5345 2.5726 -0.0094 0
M  V30 20 H -0.8819 1.9937 -1.6552 0
M  V30 21 H 1.1035 0.5221 -1.6475 0
M  V30 22 H 1.4932 1.1332 -0.0158 0
M  V30 23 H -3.1819 1.2024 -0.8622 0
M  V30 24 H -2.9105 2.9662 -0.8061 0
M  V30 25 H 1.0788 -1.8525 -0.7134 0
M  V30 26 H 1.5955 -1.2109 0.8779 0
M  V30 27 H -2.5932 2.853 1.3845 0
M  V30 28 H 3.4456 -2.1499 -0.5877 0
M  V30 29 H 3.1591 -0.8334 -1.7714 0
M  V30 30 H 3.9294 -0.4144 1.2007 0
M  V30 31 H 5.0776 -0.3903 -0.189 0
M  V30 32 H 3.8024 0.8699 -0.0731 0
M  V30 END ATOM
M  V30 BEGIN BOND
M  V30 1 2 1 2
M  V30 2 1 2 3
M  V30 3 1 2 4
M  V30 4 1 3 5
M  V30 5 1 4 6
M  V30 6 2 5 7
M  V30 7 1 5 8
M  V30 8 2 6 9
M  V30 9 1 8 10
M  V30 10 1 8 11
M  V30 11 1 10 12
M  V30 12 1 11 13
M  V30 13 1 12 14
M  V30 14 1 13 15
M  V30 15 1 15 16
M  V30 16 1 6 8
M  V30 17 1 3 17
M  V30 18 1 4 18
M  V30 19 1 10 19
M  V30 20 1 10 20
M  V30 21 1 11 21
M  V30 22 1 11 22
M  V30 23 1 12 23
M  V30 24 1 12 24
M  V30 25 1 13 25
M  V30 26 1 13 26
M  V30 27 1 14 27
M  V30 28 1 15 28
M  V30 29 1 15 29
M  V30 30 1 16 30
M  V30 31 1 16 31
M  V30 32 1 16 32
M  V30 END BOND
M  V30 END CTAB
M  END
>  <Structure No>
8140

>  <LogS>
-2.17

>  <MMFF94 Energy>
-104.4

$$$$
Compound 8141
Actelion Java MolfileCreator 2.0

  0  0  0  0  0  0              0 V3000
M  V30 BEGIN CTAB
M  V30 COUNTS 28 29 0 0 0
M  V30 BEGIN ATOM
M  V30 1 O -0.6503 0.4064 1.7891 0
M  V30 2 C -0.7201 0.4875 0.5329 0
M  V30 3 N 0.381 0.2118 -0.3184 0
M  V30 4 C -1.9407 0.9623 -0.2054 0 CFG=1
M  V30 5 C 1.6675 -0.301 0.0712 0
M  V30 6 C -0.0471 0.5399 -1.6294 0
M  V30 7 O -2.3139 2.229 0.28 0
M  V30 8 C -1.4422 1.0643 -1.6789 0
M  V30 9 C -3.1027 -0.0543 -0.0755 0
M  V30 10 C 1.7665 -1.3014 1.0539 0
M  V30 11 C 2.8417 0.1911 -0.5247 0
M  V30 12 O 0.6682 0.3719 -2.6526 0
M  V30 13 C -3.6304 -0.1511 1.3252 0
M  V30 14 C 3.0173 -1.7997 1.4314 0
M  V30 15 C 4.0906 -0.309 -0.1433 0
M  V30 16 O -4.4306 0.717 1.7631 0
M  V30 17 O -3.22 -1.1877 2.154 0 CHG=-1
M  V30 18 C 4.1784 -1.3039 0.8335 0
M  V30 19 H -3.0836 2.5392 -0.2656 0
M  V30 20 H -1.4239 2.1179 -2.0323 0
M  V30 21 H -2.0506 0.4524 -2.3799 0
M  V30 22 H -2.7625 -1.0606 -0.4056 0
M  V30 23 H -3.9364 0.2476 -0.7464 0
M  V30 24 H 0.8761 -1.7097 1.5139 0
M  V30 25 H 2.7937 0.9755 -1.2685 0
M  V30 26 H 3.0857 -2.5733 2.1854 0
M  V30 27 H 4.991 0.0778 -0.6028 0
M  V30 28 H 5.1458 -1.6903 1.1272 0
M  V30 END ATOM
M  V30 BEGIN BOND
M  V30 1 2 1 2
M  V30 2 1 2 3
M  V30 3 1 2 4
M  V30 4 1 3 5
M  V30 5 1 3 6
M  V30 6 1 4 7
M  V30 7 1 4 8
M  V30 8 1 4 9
M  V30 9 2 5 10
M  V30 10 1 5 11
M  V30 11 2 6 12
M  V30 12 1 9 13
M  V30 13 1 10 14
M  V30 14 2 11 15
M  V30 15 2 13 16
M  V30 16 1 13 17
M  V30 17 2 14 18
M  V30 18 1 6 8
M  V30 19 1 15 18
M  V30 20 1 7 19
M  V30 21 1 8 20
M  V30 22 1 8 21
M  V30 23 1 9 22
M  V30 24 1 9 23
M  V30 25 1 10 24
M  V30 26 1 11 25
M  V30 27 1 14 26
M  V30 28 1 15 27
M  V30 29 1 18 28
M  V30 END BOND
M  V30 BEGIN COLLECTION
M  V30 MDLV30/STEABS ATOMS=(1 4)
M  V30 END COLLECTION
M  V30 END CTAB
M  END
>  <Structure No>
8141

>  <LogS>
-0.68

>  <MMFF94 Energy>
6.5837

$$$$
Compound 8142
Actelion Java MolfileCreator 2.0

  0  0  0  0  0  0              0 V3000
M  V30 BEGIN CTAB
M  V30 COUNTS 38 38 0 0 0
M  V30 BEGIN ATOM
M  V30 1 O -0.2359 1.5738 1.2589 0
M  V30 2 C -1.3109 0.9621 1.0204 0
M  V30 3 N -2.5315 1.5254 1.5258 0
M  V30 4 C -1.2851 -0.2797 0.1168 0
M  V30 5 O -2.4908 2.5883 2.3645 0
M  V30 6 C -0.0295 -1.1727 0.4497 0
M  V30 7 C -2.5546 -1.1817 0.3117 0
M  V30 8 C -1.2192 0.1897 -1.3718 0
M  V30 9 C 1.3271 -0.6432 0.0215 0
M  V30 10 C -2.7257 -1.7599 1.7236 0
M  V30 11 C -2.4241 1.003 -1.863 0
M  V30 12 C 2.1652 0.0072 0.944 0
M  V30 13 C 1.7988 -0.8668 -1.284 0
M  V30 14 C 3.4255 0.47 0.5549 0
M  V30 15 C 3.0589 -0.4038 -1.6729 0
M  V30 16 C 3.8839 0.2593 -0.7532 0
M  V30 17 C 5.2198 0.7906 -1.1814 0
M  V30 18 H -3.4665 1.1761 1.2281 0
M  V30 19 H -2.4877 2.1937 3.2739 0
M  V30 20 H -0.1545 -2.1734 -0.0211 0
M  V30 21 H 0.0024 -1.363 1.5449 0
M  V30 22 H -3.4844 -0.6393 0.0541 0
M  V30 23 H -2.5107 -2.0358 -0.3998 0
M  V30 24 H -1.113 -0.6946 -2.037 0
M  V30 25 H -0.3228 0.8302 -1.5193 0
M  V30 26 H -1.9694 -2.5474 1.9213 0
M  V30 27 H -2.6448 -0.9708 2.4987 0
M  V30 28 H -3.7285 -2.2293 1.8088 0
M  V30 29 H -2.2048 1.3998 -2.8768 0
M  V30 30 H -3.3295 0.3682 -1.9464 0
M  V30 31 H -2.6272 1.8659 -1.1966 0
M  V30 32 H 1.8448 0.156 1.9677 0
M  V30 33 H 1.1914 -1.4009 -2.0032 0
M  V30 34 H 4.0464 0.9864 1.2767 0
M  V30 35 H 3.3935 -0.5689 -2.6896 0
M  V30 36 H 5.9291 0.8034 -0.3264 0
M  V30 37 H 5.099 1.8245 -1.5672 0
M  V30 38 H 5.657 0.1544 -1.9803 0
M  V30 END ATOM
M  V30 BEGIN BOND
M  V30 1 2 1 2
M  V30 2 1 2 3
M  V30 3 1 2 4
M  V30 4 1 3 5
M  V30 5 1 4 6
M  V30 6 1 4 7
M  V30 7 1 4 8
M  V30 8 1 6 9
M  V30 9 1 7 10
M  V30 10 1 8 11
M  V30 11 2 9 12
M  V30 12 1 9 13
M  V30 13 1 12 14
M  V30 14 2 13 15
M  V30 15 2 14 16
M  V30 16 1 16 17
M  V30 17 1 15 16
M  V30 18 1 3 18
M  V30 19 1 5 19
M  V30 20 1 6 20
M  V30 21 1 6 21
M  V30 22 1 7 22
M  V30 23 1 7 23
M  V30 24 1 8 24
M  V30 25 1 8 25
M  V30 26 1 10 26
M  V30 27 1 10 27
M  V30 28 1 10 28
M  V30 29 1 11 29
M  V30 30 1 11 30
M  V30 31 1 11 31
M  V30 32 1 12 32
M  V30 33 1 13 33
M  V30 34 1 14 34
M  V30 35 1 15 35
M  V30 36 1 17 36
M  V30 37 1 17 37
M  V30 38 1 17 38
M  V30 END BOND
M  V30 END CTAB
M  END
>  <Structure No>
8142

>  <LogS>
-3.35

>  <MMFF94 Energy>
56.655

$$$$
Compound 8143
Actelion Java MolfileCreator 2.0

  0  0  0  0  0  0              0 V3000
M  V30 BEGIN CTAB
M  V30 COUNTS 25 25 0 0 0
M  V30 BEGIN ATOM
M  V30 1 O -0.3992 1.5977 -1.5178 0
M  V30 2 C -0.0243 0.7375 -0.6741 0
M  V30 3 N -1.0066 -0.0512 0.0189 0
M  V30 4 C 1.4237 0.5701 -0.4031 0
M  V30 5 C -2.4218 -0.0392 -0.3663 0 CFG=1
M  V30 6 C 2.3157 1.6269 -0.666 0
M  V30 7 C 1.9358 -0.6445 0.092 0
M  V30 8 C -2.5939 -0.7393 -1.6846 0
M  V30 9 C -3.2797 -0.7193 0.7134 0
M  V30 10 C 3.6841 1.4777 -0.4198 0
M  V30 11 C 3.3055 -0.7883 0.3353 0
M  V30 12 O -3.2758 -0.2069 -2.5995 0
M  V30 13 O -2.0264 -1.9909 -1.8911 0 CHG=-1
M  V30 14 O -4.6411 -0.6606 0.3796 0
M  V30 15 C 4.1782 0.2722 0.0825 0
M  V30 16 H -0.7131 -0.6074 0.8534 0
M  V30 17 H -2.7595 1.0177 -0.4568 0
M  V30 18 H 1.9538 2.572 -1.0517 0
M  V30 19 H 1.2885 -1.493 0.2691 0
M  V30 20 H -2.9837 -1.7857 0.8162 0
M  V30 21 H -3.1085 -0.2271 1.6981 0
M  V30 22 H 4.3617 2.2979 -0.6191 0
M  V30 23 H 3.6915 -1.7259 0.7139 0
M  V30 24 H -4.9358 0.272 0.5509 0
M  V30 25 H 5.2378 0.158 0.2709 0
M  V30 END ATOM
M  V30 BEGIN BOND
M  V30 1 2 1 2
M  V30 2 1 2 3
M  V30 3 1 2 4
M  V30 4 1 3 5
M  V30 5 2 4 6
M  V30 6 1 4 7
M  V30 7 1 5 8
M  V30 8 1 5 9
M  V30 9 1 6 10
M  V30 10 2 7 11
M  V30 11 2 8 12
M  V30 12 1 8 13
M  V30 13 1 9 14
M  V30 14 2 10 15
M  V30 15 1 11 15
M  V30 16 1 3 16
M  V30 17 1 5 17
M  V30 18 1 6 18
M  V30 19 1 7 19
M  V30 20 1 9 20
M  V30 21 1 9 21
M  V30 22 1 10 22
M  V30 23 1 11 23
M  V30 24 1 14 24
M  V30 25 1 15 25
M  V30 END BOND
M  V30 BEGIN COLLECTION
M  V30 MDLV30/STEABS ATOMS=(1 5)
M  V30 END COLLECTION
M  V30 END CTAB
M  END
>  <Structure No>
8143

>  <LogS>
-0.91

>  <MMFF94 Energy>
74.965

$$$$
Compound 8144
Actelion Java MolfileCreator 2.0

  0  0  0  0  0  0              0 V3000
M  V30 BEGIN CTAB
M  V30 COUNTS 17 17 0 0 0
M  V30 BEGIN ATOM
M  V30 1 S 2.6064 -1.1765 -0.168 0
M  V30 2 O 2.7836 -1.044 1.3183 0
M  V30 3 O 3.9484 -1.0636 -0.834 0
M  V30 4 O 1.9393 -2.6738 -0.5366 0 CHG=-1
M  V30 5 N 1.5723 0.0883 -0.7518 0
M  V30 6 C 0.1927 0.244 -0.3629 0
M  V30 7 C -0.5906 1.2736 -0.9132 0
M  V30 8 C -0.4186 -0.6097 0.5695 0
M  V30 9 O -0.0958 2.0715 -1.7546 0
M  V30 10 N -1.8918 1.4153 -0.5407 0
M  V30 11 N -1.7212 -0.4308 0.9119 0
M  V30 12 C -2.4568 0.5723 0.364 0
M  V30 13 O -3.6639 0.721 0.6953 0
M  V30 14 H 1.9946 0.7583 -1.4324 0
M  V30 15 H 0.1312 -1.4175 1.0304 0
M  V30 16 H -2.4662 2.1843 -0.9563 0
M  V30 17 H -2.1584 -1.0767 1.6078 0
M  V30 END ATOM
M  V30 BEGIN BOND
M  V30 1 2 1 2
M  V30 2 2 1 3
M  V30 3 1 1 4
M  V30 4 1 1 5
M  V30 5 1 5 6
M  V30 6 1 6 7
M  V30 7 2 6 8
M  V30 8 2 7 9
M  V30 9 1 7 10
M  V30 10 1 8 11
M  V30 11 1 10 12
M  V30 12 2 12 13
M  V30 13 1 11 12
M  V30 14 1 5 14
M  V30 15 1 8 15
M  V30 16 1 10 16
M  V30 17 1 11 17
M  V30 END BOND
M  V30 END CTAB
M  END
>  <Structure No>
8144

>  <LogS>
-1.77

>  <MMFF94 Energy>
-182.53

$$$$
Compound 8145
Actelion Java MolfileCreator 2.0

  0  0  0  0  0  0              0 V3000
M  V30 BEGIN CTAB
M  V30 COUNTS 38 38 0 0 0
M  V30 BEGIN ATOM
M  V30 1 O 0.3932 -0.944 2.5978 0
M  V30 2 C 0.6174 0.1142 1.9468 0
M  V30 3 N 1.3617 1.1627 2.5822 0
M  V30 4 C 0.2011 0.2129 0.4725 0
M  V30 5 O 1.6759 1.0771 3.8971 0
M  V30 6 C -0.8743 -0.8576 0.1545 0
M  V30 7 C 1.5061 0.0771 -0.3828 0
M  V30 8 C -0.4305 1.6241 0.2221 0
M  V30 9 C -0.8334 -1.6745 -1.0018 0
M  V30 10 C -2.019 -0.9505 0.9812 0
M  V30 11 C 2.3334 -1.1918 -0.0845 0
M  V30 12 C -1.077 1.8088 -1.1668 0
M  V30 13 C -1.861 -2.5822 -1.2757 0
M  V30 14 C -3.042 -1.8593 0.7 0
M  V30 15 C 3.4532 -1.3718 -1.1053 0
M  V30 16 C -1.648 3.216 -1.3223 0
M  V30 17 C -2.9603 -2.6787 -0.424 0
M  V30 18 H 1.6937 1.9927 2.0452 0
M  V30 19 H 2.5558 0.621 3.919 0
M  V30 20 H 1.271 0.1246 -1.4653 0
M  V30 21 H 2.1634 0.9536 -0.1879 0
M  V30 22 H 0.3407 2.4149 0.3365 0
M  V30 23 H -1.2061 1.8209 0.9958 0
M  V30 24 H -0.0217 -1.6258 -1.7101 0
M  V30 25 H -2.1239 -0.3117 1.8491 0
M  V30 26 H 1.6937 -2.0979 -0.0949 0
M  V30 27 H 2.7921 -1.1122 0.9246 0
M  V30 28 H -0.3274 1.648 -1.9683 0
M  V30 29 H -1.9064 1.0842 -1.3089 0
M  V30 30 H -1.8079 -3.2068 -2.1582 0
M  V30 31 H -3.904 -1.9216 1.3517 0
M  V30 32 H 3.0285 -1.5049 -2.1231 0
M  V30 33 H 4.1256 -0.4875 -1.1001 0
M  V30 34 H 4.0488 -2.2733 -0.8494 0
M  V30 35 H -0.8418 3.9737 -1.2225 0
M  V30 36 H -2.4262 3.4042 -0.5519 0
M  V30 37 H -2.1107 3.3209 -2.3264 0
M  V30 38 H -3.7549 -3.3805 -0.6422 0
M  V30 END ATOM
M  V30 BEGIN BOND
M  V30 1 2 1 2
M  V30 2 1 2 3
M  V30 3 1 2 4
M  V30 4 1 3 5
M  V30 5 1 4 6
M  V30 6 1 4 7
M  V30 7 1 4 8
M  V30 8 2 6 9
M  V30 9 1 6 10
M  V30 10 1 7 11
M  V30 11 1 8 12
M  V30 12 1 9 13
M  V30 13 2 10 14
M  V30 14 1 11 15
M  V30 15 1 12 16
M  V30 16 2 13 17
M  V30 17 1 14 17
M  V30 18 1 3 18
M  V30 19 1 5 19
M  V30 20 1 7 20
M  V30 21 1 7 21
M  V30 22 1 8 22
M  V30 23 1 8 23
M  V30 24 1 9 24
M  V30 25 1 10 25
M  V30 26 1 11 26
M  V30 27 1 11 27
M  V30 28 1 12 28
M  V30 29 1 12 29
M  V30 30 1 13 30
M  V30 31 1 14 31
M  V30 32 1 15 32
M  V30 33 1 15 33
M  V30 34 1 15 34
M  V30 35 1 16 35
M  V30 36 1 16 36
M  V30 37 1 16 37
M  V30 38 1 17 38
M  V30 END BOND
M  V30 END CTAB
M  END
>  <Structure No>
8145

>  <LogS>
-2.89

>  <MMFF94 Energy>
71.193

$$$$
Compound 8146
Actelion Java MolfileCreator 2.0

  0  0  0  0  0  0              0 V3000
M  V30 BEGIN CTAB
M  V30 COUNTS 38 38 0 0 0
M  V30 BEGIN ATOM
M  V30 1 O -3.228 -0.0786 1.4162 0
M  V30 2 C -2.3395 0.2291 0.574 0
M  V30 3 N -1.6696 1.4897 0.7154 0
M  V30 4 C -1.9672 -0.7537 -0.5356 0
M  V30 5 O -2.0253 2.3439 1.7044 0
M  V30 6 C -0.6471 -1.5211 -0.1935 0
M  V30 7 C -3.0929 -1.8073 -0.6898 0
M  V30 8 C -1.8702 -0.0068 -1.8828 0
M  V30 9 C 0.5951 -0.6512 0.0254 0
M  V30 10 C 1.4237 -0.2336 -1.0633 0
M  V30 11 C 0.9564 -0.2422 1.3457 0
M  V30 12 C 2.4653 0.678 -0.8319 0
M  V30 13 C 1.263 -0.7052 -2.4913 0
M  V30 14 C 2.0222 0.6513 1.5342 0
M  V30 15 C 0.2849 -0.7989 2.58 0
M  V30 16 C 2.7481 1.1441 0.4512 0
M  V30 17 C 3.8979 2.0819 0.677 0
M  V30 18 H -0.8681 1.7502 0.1014 0
M  V30 19 H -2.7038 2.9387 1.2941 0
M  V30 20 H -0.8308 -2.1425 0.7062 0
M  V30 21 H -0.4515 -2.2923 -0.9612 0
M  V30 22 H -4.0658 -1.3166 -0.9117 0
M  V30 23 H -2.8647 -2.5117 -1.5191 0
M  V30 24 H -3.2097 -2.4053 0.24 0
M  V30 25 H -1.6533 -0.7159 -2.71 0
M  V30 26 H -2.8316 0.502 -2.1126 0
M  V30 27 H -1.0815 0.7682 -1.8749 0
M  V30 28 H 3.0736 1.0198 -1.6622 0
M  V30 29 H 0.7964 0.094 -3.1026 0
M  V30 30 H 2.262 -0.9212 -2.9272 0
M  V30 31 H 0.6807 -1.6349 -2.6012 0
M  V30 32 H 2.2964 0.9648 2.5351 0
M  V30 33 H -0.8075 -0.6321 2.5528 0
M  V30 34 H 0.6612 -0.3199 3.5088 0
M  V30 35 H 0.4912 -1.8869 2.6563 0
M  V30 36 H 3.7103 2.7262 1.5625 0
M  V30 37 H 4.8252 1.4958 0.8452 0
M  V30 38 H 4.0422 2.7446 -0.2026 0
M  V30 END ATOM
M  V30 BEGIN BOND
M  V30 1 2 1 2
M  V30 2 1 2 3
M  V30 3 1 2 4
M  V30 4 1 3 5
M  V30 5 1 4 6
M  V30 6 1 4 7
M  V30 7 1 4 8
M  V30 8 1 6 9
M  V30 9 2 9 10
M  V30 10 1 9 11
M  V30 11 1 10 12
M  V30 12 1 10 13
M  V30 13 2 11 14
M  V30 14 1 11 15
M  V30 15 2 12 16
M  V30 16 1 16 17
M  V30 17 1 14 16
M  V30 18 1 3 18
M  V30 19 1 5 19
M  V30 20 1 6 20
M  V30 21 1 6 21
M  V30 22 1 7 22
M  V30 23 1 7 23
M  V30 24 1 7 24
M  V30 25 1 8 25
M  V30 26 1 8 26
M  V30 27 1 8 27
M  V30 28 1 12 28
M  V30 29 1 13 29
M  V30 30 1 13 30
M  V30 31 1 13 31
M  V30 32 1 14 32
M  V30 33 1 15 33
M  V30 34 1 15 34
M  V30 35 1 15 35
M  V30 36 1 17 36
M  V30 37 1 17 37
M  V30 38 1 17 38
M  V30 END BOND
M  V30 END CTAB
M  END
>  <Structure No>
8146

>  <LogS>
-3.52

>  <MMFF94 Energy>
64.843

$$$$
Compound 8147
Actelion Java MolfileCreator 2.0

  0  0  0  0  0  0              0 V3000
M  V30 BEGIN CTAB
M  V30 COUNTS 28 28 0 0 0
M  V30 BEGIN ATOM
M  V30 1 S -2.5546 -1.1531 1.8125 0
M  V30 2 C -1.8537 -0.7845 0.3748 0
M  V30 3 S -0.1636 -1.3403 0.1122 0
M  V30 4 N -2.5708 -0.0698 -0.6605 0
M  V30 5 C 0.5708 0.1933 0.7676 0
M  V30 6 C -3.8901 0.5303 -0.4093 0
M  V30 7 C -1.991 0.0255 -2.0045 0
M  V30 8 C 2.061 0.1444 0.5986 0
M  V30 9 C -4.9678 -0.4943 -0.5711 0
M  V30 10 C 2.8722 -0.3998 1.6082 0
M  V30 11 C 2.652 0.5883 -0.5959 0
M  V30 12 O -5.1984 -0.996 -1.7025 0
M  V30 13 O -5.7151 -0.9011 0.5269 0 CHG=-1
M  V30 14 C 4.2577 -0.4748 1.4336 0
M  V30 15 C 4.0378 0.5113 -0.7665 0
M  V30 16 C 4.8402 -0.0176 0.2482 0
M  V30 17 H 0.3087 0.3002 1.8426 0
M  V30 18 H 0.1572 1.0725 0.2279 0
M  V30 19 H -4.0819 1.3656 -1.117 0
M  V30 20 H -3.9265 0.9758 0.6077 0
M  V30 21 H -1.7773 -0.9918 -2.3948 0
M  V30 22 H -2.6857 0.522 -2.7149 0
M  V30 23 H -1.0503 0.6137 -1.9695 0
M  V30 24 H 2.4323 -0.766 2.5277 0
M  V30 25 H 2.04 0.9914 -1.3935 0
M  V30 26 H 4.8794 -0.8906 2.2159 0
M  V30 27 H 4.4892 0.8585 -1.6868 0
M  V30 28 H 5.9125 -0.0776 0.1141 0
M  V30 END ATOM
M  V30 BEGIN BOND
M  V30 1 2 1 2
M  V30 2 1 2 3
M  V30 3 1 2 4
M  V30 4 1 3 5
M  V30 5 1 4 6
M  V30 6 1 4 7
M  V30 7 1 5 8
M  V30 8 1 6 9
M  V30 9 2 8 10
M  V30 10 1 8 11
M  V30 11 2 9 12
M  V30 12 1 9 13
M  V30 13 1 10 14
M  V30 14 2 11 15
M  V30 15 2 14 16
M  V30 16 1 15 16
M  V30 17 1 5 17
M  V30 18 1 5 18
M  V30 19 1 6 19
M  V30 20 1 6 20
M  V30 21 1 7 21
M  V30 22 1 7 22
M  V30 23 1 7 23
M  V30 24 1 10 24
M  V30 25 1 11 25
M  V30 26 1 14 26
M  V30 27 1 15 27
M  V30 28 1 16 28
M  V30 END BOND
M  V30 END CTAB
M  END
>  <Structure No>
8147

>  <LogS>
-3.23

>  <MMFF94 Energy>
50.545

$$$$
Compound 8148
Actelion Java MolfileCreator 2.0

  0  0  0  0  0  0              0 V3000
M  V30 BEGIN CTAB
M  V30 COUNTS 36 37 0 0 0
M  V30 BEGIN ATOM
M  V30 1 O -0.3183 1.3534 1.433 0
M  V30 2 C -0.468 0.497 0.5204 0
M  V30 3 N 0.6206 -0.0805 -0.1947 0
M  V30 4 C -1.7965 -0.0575 0.0708 0
M  V30 5 N 0.1174 -0.998 -1.1245 0
M  V30 6 C 1.9969 0.3109 -0.0772 0
M  V30 7 C -1.3003 -1.0296 -0.9723 0
M  V30 8 C -2.5432 -0.7863 1.2217 0
M  V30 9 C -2.669 1.0196 -0.6275 0
M  V30 10 C 0.8841 -2.1308 -1.6384 0
M  V30 11 C 2.7368 0.6514 -1.2203 0
M  V30 12 C 2.6061 0.3839 1.1854 0
M  V30 13 O -2.0452 -1.8086 -1.6266 0
M  V30 14 C -1.7622 -1.9526 1.8412 0
M  V30 15 C -3.2193 2.1054 0.3021 0
M  V30 16 C 4.0733 1.0453 -1.1025 0
M  V30 17 C 3.943 0.7779 1.3002 0
M  V30 18 C 4.6766 1.1072 0.1569 0
M  V30 19 H -2.7652 -0.0648 2.0366 0
M  V30 20 H -3.5136 -1.1754 0.8429 0
M  V30 21 H -2.0755 1.5166 -1.4275 0
M  V30 22 H -3.5336 0.5245 -1.1225 0
M  V30 23 H 0.9679 -2.9091 -0.8514 0
M  V30 24 H 1.9001 -1.8134 -1.9436 0
M  V30 25 H 0.3765 -2.5621 -2.5268 0
M  V30 26 H 2.2738 0.6231 -2.1987 0
M  V30 27 H 2.0494 0.1231 2.0767 0
M  V30 28 H -0.7891 -1.604 2.2467 0
M  V30 29 H -1.584 -2.7521 1.0921 0
M  V30 30 H -2.3515 -2.3871 2.6761 0
M  V30 31 H -2.4017 2.6372 0.8281 0
M  V30 32 H -3.7783 2.8513 -0.3013 0
M  V30 33 H -3.9244 1.6744 1.0421 0
M  V30 34 H 4.64 1.3067 -1.9867 0
M  V30 35 H 4.4104 0.8269 2.2752 0
M  V30 36 H 5.711 1.4127 0.247 0
M  V30 END ATOM
M  V30 BEGIN BOND
M  V30 1 2 1 2
M  V30 2 1 2 3
M  V30 3 1 2 4
M  V30 4 1 3 5
M  V30 5 1 3 6
M  V30 6 1 4 7
M  V30 7 1 4 8
M  V30 8 1 4 9
M  V30 9 1 5 10
M  V30 10 2 6 11
M  V30 11 1 6 12
M  V30 12 2 7 13
M  V30 13 1 8 14
M  V30 14 1 9 15
M  V30 15 1 11 16
M  V30 16 2 12 17
M  V30 17 2 16 18
M  V30 18 1 5 7
M  V30 19 1 17 18
M  V30 20 1 8 19
M  V30 21 1 8 20
M  V30 22 1 9 21
M  V30 23 1 9 22
M  V30 24 1 10 23
M  V30 25 1 10 24
M  V30 26 1 10 25
M  V30 27 1 11 26
M  V30 28 1 12 27
M  V30 29 1 14 28
M  V30 30 1 14 29
M  V30 31 1 14 30
M  V30 32 1 15 31
M  V30 33 1 15 32
M  V30 34 1 15 33
M  V30 35 1 16 34
M  V30 36 1 17 35
M  V30 37 1 18 36
M  V30 END BOND
M  V30 END CTAB
M  END
>  <Structure No>
8148

>  <LogS>
-2.69

>  <MMFF94 Energy>
46.878

$$$$
Compound 8149
Actelion Java MolfileCreator 2.0

  0  0  0  0  0  0              0 V3000
M  V30 BEGIN CTAB
M  V30 COUNTS 36 36 0 0 0
M  V30 BEGIN ATOM
M  V30 1 O -0.8702 -1.3451 -0.9493 0
M  V30 2 C -1.4374 -0.4025 -0.3312 0
M  V30 3 O -2.7862 -0.5073 0.0234 0
M  V30 4 C -0.702 0.8473 -0.0328 0
M  V30 5 C -3.5718 -1.6601 -0.2644 0
M  V30 6 C 0.6941 0.8793 0.2416 0
M  V30 7 C -1.4164 2.0581 -0.088 0
M  V30 8 C -4.9997 -1.4601 0.2421 0
M  V30 9 C 1.5032 -0.3423 0.4527 0
M  V30 10 C 1.3349 2.1237 0.3838 0
M  V30 11 C -0.764 3.2801 0.0786 0
M  V30 12 C -5.7052 -0.3185 -0.4871 0
M  V30 13 O 0.9944 -1.3581 1.0016 0
M  V30 14 O 2.855 -0.3412 0.0945 0
M  V30 15 C 0.6104 3.3134 0.3022 0
M  V30 16 C 3.7084 -1.4626 0.3021 0
M  V30 17 C 5.1207 -1.1427 -0.1859 0
M  V30 18 C 5.7583 -0.0154 0.6234 0
M  V30 19 H -3.5822 -1.8477 -1.3606 0
M  V30 20 H -3.1288 -2.5441 0.2434 0
M  V30 21 H -2.4803 2.0618 -0.2932 0
M  V30 22 H -5.5746 -2.3982 0.0848 0
M  V30 23 H -4.9796 -1.2447 1.3325 0
M  V30 24 H 2.3971 2.1762 0.5909 0
M  V30 25 H -1.3243 4.2046 0.0214 0
M  V30 26 H -5.1746 0.6415 -0.312 0
M  V30 27 H -6.7441 -0.2218 -0.1071 0
M  V30 28 H -5.7439 -0.523 -1.5783 0
M  V30 29 H 1.1147 4.2631 0.4256 0
M  V30 30 H 3.3178 -2.3335 -0.2676 0
M  V30 31 H 3.7322 -1.7261 1.3825 0
M  V30 32 H 5.0854 -0.8525 -1.2584 0
M  V30 33 H 5.7507 -2.0537 -0.0939 0
M  V30 34 H 5.8115 -0.2936 1.6976 0
M  V30 35 H 5.171 0.9213 0.5155 0
M  V30 36 H 6.7888 0.1694 0.2536 0
M  V30 END ATOM
M  V30 BEGIN BOND
M  V30 1 2 1 2
M  V30 2 1 2 3
M  V30 3 1 2 4
M  V30 4 1 3 5
M  V30 5 2 4 6
M  V30 6 1 4 7
M  V30 7 1 5 8
M  V30 8 1 6 9
M  V30 9 1 6 10
M  V30 10 2 7 11
M  V30 11 1 8 12
M  V30 12 2 9 13
M  V30 13 1 9 14
M  V30 14 2 10 15
M  V30 15 1 14 16
M  V30 16 1 16 17
M  V30 17 1 17 18
M  V30 18 1 11 15
M  V30 19 1 5 19
M  V30 20 1 5 20
M  V30 21 1 7 21
M  V30 22 1 8 22
M  V30 23 1 8 23
M  V30 24 1 10 24
M  V30 25 1 11 25
M  V30 26 1 12 26
M  V30 27 1 12 27
M  V30 28 1 12 28
M  V30 29 1 15 29
M  V30 30 1 16 30
M  V30 31 1 16 31
M  V30 32 1 17 32
M  V30 33 1 17 33
M  V30 34 1 18 34
M  V30 35 1 18 35
M  V30 36 1 18 36
M  V30 END BOND
M  V30 END CTAB
M  END
>  <Structure No>
8149

>  <LogS>
-3.82

>  <MMFF94 Energy>
18.24

$$$$
Compound 8150
Actelion Java MolfileCreator 2.0

  0  0  0  0  0  0              0 V3000
M  V30 BEGIN CTAB
M  V30 COUNTS 60 60 0 0 0
M  V30 BEGIN ATOM
M  V30 1 O 0.1575 -0.1575 0.394 0
M  V30 2 C -0.6733 0.6747 -0.0633 0
M  V30 3 O -2.0227 0.5851 0.2918 0
M  V30 4 C -0.2417 1.7135 -1.0268 0
M  V30 5 C -2.5216 -0.4093 1.181 0
M  V30 6 C 1.0634 2.2795 -1.0212 0
M  V30 7 C -1.1508 2.1028 -2.0274 0
M  V30 8 C -4.033 -0.2522 1.3484 0
M  V30 9 C 2.0405 2.0304 0.0598 0
M  V30 10 C 1.4341 3.159 -2.0535 0
M  V30 11 C -0.77 2.9966 -3.0289 0
M  V30 12 C -4.7785 -0.5258 0.0319 0
M  V30 13 O 1.6526 1.9335 1.2565 0
M  V30 14 O 3.4035 1.9561 -0.2493 0
M  V30 15 C 0.5231 3.514 -3.0488 0
M  V30 16 C -6.2899 -0.2678 0.1413 0
M  V30 17 C 4.4103 1.6314 0.708 0
M  V30 18 C -7.0178 -1.3549 0.9506 0
M  V30 19 C 4.351 0.1488 1.1046 0
M  V30 20 C -8.5313 -1.1046 1.0436 0
M  V30 21 C 4.3563 -0.8153 -0.0964 0
M  V30 22 C -9.2597 -1.3766 -0.2723 0
M  V30 23 C 5.5863 -0.6992 -1.0185 0
M  V30 24 C 6.943 -0.9042 -0.3215 0
M  V30 25 C 7.0908 -2.3022 0.2953 0
M  V30 26 C 8.5032 -2.5204 0.83 0
M  V30 27 H -2.2886 -1.4226 0.7864 0
M  V30 28 H -2.0336 -0.2934 2.1732 0
M  V30 29 H -2.1518 1.6893 -2.0542 0
M  V30 30 H -4.2531 0.7787 1.702 0
M  V30 31 H -4.3689 -0.9675 2.128 0
M  V30 32 H 2.4239 3.5987 -2.0729 0
M  V30 33 H -1.4762 3.278 -3.7994 0
M  V30 34 H -4.5973 -1.5729 -0.2963 0
M  V30 35 H -4.3756 0.1467 -0.7564 0
M  V30 36 H 0.8175 4.2021 -3.8307 0
M  V30 37 H -6.6998 -0.2461 -0.8902 0
M  V30 38 H -6.4699 0.7308 0.5964 0
M  V30 39 H 4.2931 2.2672 1.6122 0
M  V30 40 H 5.4048 1.8624 0.2736 0
M  V30 41 H -6.6188 -1.3682 1.9864 0
M  V30 42 H -6.8288 -2.3551 0.5029 0
M  V30 43 H 5.1959 -0.084 1.786 0
M  V30 44 H 3.4213 -0.0291 1.6863 0
M  V30 45 H -8.9518 -1.7827 1.8177 0
M  V30 46 H -8.7282 -0.0604 1.3706 0
M  V30 47 H 3.4442 -0.6364 -0.7062 0
M  V30 48 H 4.2738 -1.8565 0.2808 0
M  V30 49 H -10.3552 -1.2978 -0.1097 0
M  V30 50 H -8.9728 -0.6332 -1.0438 0
M  V30 51 H -9.031 -2.3995 -0.6395 0
M  V30 52 H 5.4855 -1.4506 -1.8317 0
M  V30 53 H 5.5835 0.2963 -1.5111 0
M  V30 54 H 7.0994 -0.1261 0.4551 0
M  V30 55 H 7.738 -0.7635 -1.0862 0
M  V30 56 H 6.3769 -2.4234 1.1373 0
M  V30 57 H 6.8723 -3.0776 -0.4705 0
M  V30 58 H 8.7403 -1.7663 1.6107 0
M  V30 59 H 9.2446 -2.4421 0.0066 0
M  V30 60 H 8.5783 -3.5329 1.2796 0
M  V30 END ATOM
M  V30 BEGIN BOND
M  V30 1 2 1 2
M  V30 2 1 2 3
M  V30 3 1 2 4
M  V30 4 1 3 5
M  V30 5 2 4 6
M  V30 6 1 4 7
M  V30 7 1 5 8
M  V30 8 1 6 9
M  V30 9 1 6 10
M  V30 10 2 7 11
M  V30 11 1 8 12
M  V30 12 2 9 13
M  V30 13 1 9 14
M  V30 14 2 10 15
M  V30 15 1 12 16
M  V30 16 1 14 17
M  V30 17 1 16 18
M  V30 18 1 17 19
M  V30 19 1 18 20
M  V30 20 1 19 21
M  V30 21 1 20 22
M  V30 22 1 21 23
M  V30 23 1 23 24
M  V30 24 1 24 25
M  V30 25 1 25 26
M  V30 26 1 11 15
M  V30 27 1 5 27
M  V30 28 1 5 28
M  V30 29 1 7 29
M  V30 30 1 8 30
M  V30 31 1 8 31
M  V30 32 1 10 32
M  V30 33 1 11 33
M  V30 34 1 12 34
M  V30 35 1 12 35
M  V30 36 1 15 36
M  V30 37 1 16 37
M  V30 38 1 16 38
M  V30 39 1 17 39
M  V30 40 1 17 40
M  V30 41 1 18 41
M  V30 42 1 18 42
M  V30 43 1 19 43
M  V30 44 1 19 44
M  V30 45 1 20 45
M  V30 46 1 20 46
M  V30 47 1 21 47
M  V30 48 1 21 48
M  V30 49 1 22 49
M  V30 50 1 22 50
M  V30 51 1 22 51
M  V30 52 1 23 52
M  V30 53 1 23 53
M  V30 54 1 24 54
M  V30 55 1 24 55
M  V30 56 1 25 56
M  V30 57 1 25 57
M  V30 58 1 26 58
M  V30 59 1 26 59
M  V30 60 1 26 60
M  V30 END BOND
M  V30 END CTAB
M  END
>  <Structure No>
8150

>  <LogS>
-8.56

>  <MMFF94 Energy>
18.219

$$$$
Compound 8151
Actelion Java MolfileCreator 2.0

  0  0  0  0  0  0              0 V3000
M  V30 BEGIN CTAB
M  V30 COUNTS 40 39 0 0 0
M  V30 BEGIN ATOM
M  V30 1 O 4.8689 -0.8487 2.3162 0
M  V30 2 C 4.6364 -0.3724 1.0153 0 CFG=2
M  V30 3 C 5.5737 0.8166 0.738 0
M  V30 4 C 3.1447 0.0079 0.9026 0
M  V30 5 O 5.6749 1.0465 -0.6401 0
M  V30 6 N 2.7595 0.3752 -0.4728 0 CHG=1
M  V30 7 C 1.2987 0.5248 -0.6168 0
M  V30 8 C 0.5892 -0.8315 -0.8079 0
M  V30 9 C -0.8973 -0.6754 -1.1666 0
M  V30 10 C -1.7407 -0.1702 0.0137 0
M  V30 11 C -3.2324 -0.1568 -0.3426 0
M  V30 12 C -4.0756 0.3495 0.8371 0
M  V30 13 C -5.5634 0.4927 0.4812 0
M  V30 14 C -6.2606 -0.8551 0.2996 0
M  V30 15 H 5.695 -1.3989 2.2808 0
M  V30 16 H 4.8501 -1.1873 0.2834 0
M  V30 17 H 5.2009 1.7297 1.2552 0
M  V30 18 H 6.5874 0.5843 1.1352 0
M  V30 19 H 2.9223 0.8496 1.5973 0
M  V30 20 H 2.5528 -0.8684 1.2436 0
M  V30 21 H 6.264 1.8381 -0.7453 0
M  V30 22 H 3.19 1.301 -0.7011 0
M  V30 23 H 3.1193 -0.3314 -1.1563 0
M  V30 24 H 1.0923 1.155 -1.5112 0
M  V30 25 H 0.8783 1.0616 0.2619 0
M  V30 26 H 1.0823 -1.3812 -1.6389 0
M  V30 27 H 0.6814 -1.454 0.1064 0
M  V30 28 H -1.2795 -1.6717 -1.4801 0
M  V30 29 H -1.0067 0.0135 -2.0328 0
M  V30 30 H -1.427 0.8608 0.2826 0
M  V30 31 H -1.5806 -0.8317 0.8936 0
M  V30 32 H -3.3927 0.5042 -1.2228 0
M  V30 33 H -3.5476 -1.1878 -0.6105 0
M  V30 34 H -3.9608 -0.3347 1.7065 0
M  V30 35 H -3.6996 1.3501 1.1444 0
M  V30 36 H -5.6795 1.1001 -0.4426 0
M  V30 37 H -6.0706 1.0378 1.3068 0
M  V30 38 H -5.8764 -1.3789 -0.5998 0
M  V30 39 H -7.3504 -0.6909 0.1637 0
M  V30 40 H -6.1092 -1.4952 1.1947 0
M  V30 END ATOM
M  V30 BEGIN BOND
M  V30 1 1 1 2
M  V30 2 1 2 3
M  V30 3 1 2 4
M  V30 4 1 3 5
M  V30 5 1 4 6
M  V30 6 1 6 7
M  V30 7 1 7 8
M  V30 8 1 8 9
M  V30 9 1 9 10
M  V30 10 1 10 11
M  V30 11 1 11 12
M  V30 12 1 12 13
M  V30 13 1 13 14
M  V30 14 1 1 15
M  V30 15 1 2 16
M  V30 16 1 3 17
M  V30 17 1 3 18
M  V30 18 1 4 19
M  V30 19 1 4 20
M  V30 20 1 5 21
M  V30 21 1 6 22
M  V30 22 1 6 23
M  V30 23 1 7 24
M  V30 24 1 7 25
M  V30 25 1 8 26
M  V30 26 1 8 27
M  V30 27 1 9 28
M  V30 28 1 9 29
M  V30 29 1 10 30
M  V30 30 1 10 31
M  V30 31 1 11 32
M  V30 32 1 11 33
M  V30 33 1 12 34
M  V30 34 1 12 35
M  V30 35 1 13 36
M  V30 36 1 13 37
M  V30 37 1 14 38
M  V30 38 1 14 39
M  V30 39 1 14 40
M  V30 END BOND
M  V30 BEGIN COLLECTION
M  V30 MDLV30/STEABS ATOMS=(1 2)
M  V30 END COLLECTION
M  V30 END CTAB
M  END
>  <Structure No>
8151

>  <LogS>
-2.22

>  <MMFF94 Energy>
32.387

$$$$
Compound 8152
Actelion Java MolfileCreator 2.0

  0  0  0  0  0  0              0 V3000
M  V30 BEGIN CTAB
M  V30 COUNTS 43 42 0 0 0
M  V30 BEGIN ATOM
M  V30 1 O 6.6573 0.6178 -0.386 0
M  V30 2 C 5.3833 0.6853 0.2009 0 CFG=2
M  V30 3 C 5.4107 -0.0032 1.5794 0
M  V30 4 C 4.3606 0.0536 -0.7664 0
M  V30 5 O 5.6439 -1.3811 1.457 0
M  V30 6 N 2.974 0.2209 -0.298 0 CHG=1
M  V30 7 C 2.0229 -0.2276 -1.3265 0
M  V30 8 C 0.5765 -0.0825 -0.8323 0
M  V30 9 C -0.4211 -0.5576 -1.899 0
M  V30 10 C -1.8824 -0.3089 -1.4936 0
M  V30 11 C -2.3355 -1.2113 -0.3321 0
M  V30 12 C -3.8546 -1.1626 -0.1045 0
M  V30 13 C -4.3254 0.1887 0.4536 0
M  V30 14 C -5.8209 0.1522 0.789 0
M  V30 15 C -6.297 1.4956 1.3343 0
M  V30 16 H 7.2284 1.279 0.0858 0
M  V30 17 H 5.1049 1.7554 0.3476 0
M  V30 18 H 6.1947 0.4642 2.218 0
M  V30 19 H 4.4454 0.1534 2.1033 0
M  V30 20 H 4.483 0.5492 -1.7564 0
M  V30 21 H 4.5899 -1.0271 -0.9036 0
M  V30 22 H 6.6144 -1.4913 1.2808 0
M  V30 23 H 2.8276 -0.3523 0.5647 0
M  V30 24 H 2.7957 1.2304 -0.0834 0
M  V30 25 H 2.1504 0.3807 -2.2507 0
M  V30 26 H 2.2135 -1.2958 -1.578 0
M  V30 27 H 0.3793 0.9842 -0.5882 0
M  V30 28 H 0.4521 -0.6865 0.0913 0
M  V30 29 H -0.2289 -0.0027 -2.8435 0
M  V30 30 H -0.2665 -1.639 -2.1073 0
M  V30 31 H -2.522 -0.5111 -2.3804 0
M  V30 32 H -2.0098 0.7605 -1.221 0
M  V30 33 H -1.8155 -0.9202 0.6054 0
M  V30 34 H -2.0582 -2.2634 -0.5611 0
M  V30 35 H -4.3858 -1.3849 -1.056 0
M  V30 36 H -4.1177 -1.9627 0.6218 0
M  V30 37 H -3.7491 0.4304 1.3739 0
M  V30 38 H -4.1456 0.9865 -0.2982 0
M  V30 39 H -6.016 -0.6334 1.5511 0
M  V30 40 H -6.4042 -0.0916 -0.1256 0
M  V30 41 H -5.7454 1.7522 2.2638 0
M  V30 42 H -7.3808 1.4387 1.5688 0
M  V30 43 H -6.1384 2.2962 0.5807 0
M  V30 END ATOM
M  V30 BEGIN BOND
M  V30 1 1 1 2
M  V30 2 1 2 3
M  V30 3 1 2 4
M  V30 4 1 3 5
M  V30 5 1 4 6
M  V30 6 1 6 7
M  V30 7 1 7 8
M  V30 8 1 8 9
M  V30 9 1 9 10
M  V30 10 1 10 11
M  V30 11 1 11 12
M  V30 12 1 12 13
M  V30 13 1 13 14
M  V30 14 1 14 15
M  V30 15 1 1 16
M  V30 16 1 2 17
M  V30 17 1 3 18
M  V30 18 1 3 19
M  V30 19 1 4 20
M  V30 20 1 4 21
M  V30 21 1 5 22
M  V30 22 1 6 23
M  V30 23 1 6 24
M  V30 24 1 7 25
M  V30 25 1 7 26
M  V30 26 1 8 27
M  V30 27 1 8 28
M  V30 28 1 9 29
M  V30 29 1 9 30
M  V30 30 1 10 31
M  V30 31 1 10 32
M  V30 32 1 11 33
M  V30 33 1 11 34
M  V30 34 1 12 35
M  V30 35 1 12 36
M  V30 36 1 13 37
M  V30 37 1 13 38
M  V30 38 1 14 39
M  V30 39 1 14 40
M  V30 40 1 15 41
M  V30 41 1 15 42
M  V30 42 1 15 43
M  V30 END BOND
M  V30 BEGIN COLLECTION
M  V30 MDLV30/STEABS ATOMS=(1 2)
M  V30 END COLLECTION
M  V30 END CTAB
M  END
>  <Structure No>
8152

>  <LogS>
-2.64

>  <MMFF94 Energy>
32.854

$$$$
Compound 8153
Actelion Java MolfileCreator 2.0

  0  0  0  0  0  0              0 V3000
M  V30 BEGIN CTAB
M  V30 COUNTS 46 45 0 0 0
M  V30 BEGIN ATOM
M  V30 1 O -6.4327 -1.8567 1.3148 0
M  V30 2 C -5.8981 -0.644 0.8492 0 CFG=2
M  V30 3 C -5.9502 -0.6555 -0.6855 0
M  V30 4 C -4.4562 -0.4876 1.393 0
M  V30 5 O -5.7669 0.6366 -1.1939 0
M  V30 6 N -3.8883 0.863 1.1678 0 CHG=1
M  V30 7 C -2.8586 0.884 0.1106 0
M  V30 8 C -1.4912 0.4059 0.6305 0
M  V30 9 C -0.4447 0.4113 -0.4898 0
M  V30 10 C 0.92 -0.0587 0.0275 0
M  V30 11 C 1.9679 -0.0443 -1.0957 0
M  V30 12 C 3.3213 -0.6237 -0.6527 0
M  V30 13 C 4.114 0.3458 0.2407 0
M  V30 14 C 5.429 -0.2612 0.7629 0
M  V30 15 C 6.4623 -0.607 -0.3241 0
M  V30 16 C 6.9225 0.6119 -1.1224 0
M  V30 17 H -6.7013 -1.7114 2.2599 0
M  V30 18 H -6.5312 0.1978 1.2175 0
M  V30 19 H -6.9479 -1.0284 -1.0099 0
M  V30 20 H -5.1748 -1.344 -1.0909 0
M  V30 21 H -4.4868 -0.6807 2.4894 0
M  V30 22 H -3.8142 -1.2902 0.9661 0
M  V30 23 H -5.7728 0.5478 -2.1822 0
M  V30 24 H -4.6401 1.5461 0.9175 0
M  V30 25 H -3.4704 1.2145 2.0616 0
M  V30 26 H -2.7453 1.927 -0.2622 0
M  V30 27 H -3.1716 0.2617 -0.7563 0
M  V30 28 H -1.5809 -0.6224 1.0408 0
M  V30 29 H -1.1553 1.0802 1.4487 0
M  V30 30 H -0.7805 -0.263 -1.3082 0
M  V30 31 H -0.3478 1.4416 -0.8982 0
M  V30 32 H 1.241 0.6133 0.8512 0
M  V30 33 H 0.8229 -1.0912 0.4295 0
M  V30 34 H 2.106 0.9924 -1.474 0
M  V30 35 H 1.5912 -0.6622 -1.9405 0
M  V30 36 H 3.9095 -0.8292 -1.5717 0
M  V30 37 H 3.1654 -1.5905 -0.1261 0
M  V30 38 H 4.3165 1.2902 -0.3069 0
M  V30 39 H 3.5027 0.6104 1.1283 0
M  V30 40 H 5.8894 0.4557 1.4774 0
M  V30 41 H 5.1966 -1.1842 1.3374 0
M  V30 42 H 7.3512 -1.0491 0.1755 0
M  V30 43 H 6.0636 -1.3794 -1.0141 0
M  V30 44 H 6.1059 0.9826 -1.7762 0
M  V30 45 H 7.7781 0.3271 -1.7701 0
M  V30 46 H 7.2507 1.4238 -0.4392 0
M  V30 END ATOM
M  V30 BEGIN BOND
M  V30 1 1 1 2
M  V30 2 1 2 3
M  V30 3 1 2 4
M  V30 4 1 3 5
M  V30 5 1 4 6
M  V30 6 1 6 7
M  V30 7 1 7 8
M  V30 8 1 8 9
M  V30 9 1 9 10
M  V30 10 1 10 11
M  V30 11 1 11 12
M  V30 12 1 12 13
M  V30 13 1 13 14
M  V30 14 1 14 15
M  V30 15 1 15 16
M  V30 16 1 1 17
M  V30 17 1 2 18
M  V30 18 1 3 19
M  V30 19 1 3 20
M  V30 20 1 4 21
M  V30 21 1 4 22
M  V30 22 1 5 23
M  V30 23 1 6 24
M  V30 24 1 6 25
M  V30 25 1 7 26
M  V30 26 1 7 27
M  V30 27 1 8 28
M  V30 28 1 8 29
M  V30 29 1 9 30
M  V30 30 1 9 31
M  V30 31 1 10 32
M  V30 32 1 10 33
M  V30 33 1 11 34
M  V30 34 1 11 35
M  V30 35 1 12 36
M  V30 36 1 12 37
M  V30 37 1 13 38
M  V30 38 1 13 39
M  V30 39 1 14 40
M  V30 40 1 14 41
M  V30 41 1 15 42
M  V30 42 1 15 43
M  V30 43 1 16 44
M  V30 44 1 16 45
M  V30 45 1 16 46
M  V30 END BOND
M  V30 BEGIN COLLECTION
M  V30 MDLV30/STEABS ATOMS=(1 2)
M  V30 END COLLECTION
M  V30 END CTAB
M  END
>  <Structure No>
8153

>  <LogS>
-3.11

>  <MMFF94 Energy>
23.758

$$$$
Compound 8154
Actelion Java MolfileCreator 2.0

  0  0  0  0  0  0              0 V3000
M  V30 BEGIN CTAB
M  V30 COUNTS 27 27 0 0 0
M  V30 BEGIN ATOM
M  V30 1 O -3.9 1.4026 -1.0908 0
M  V30 2 C -2.9896 0.6198 -0.3825 0
M  V30 3 C -3.3821 -0.0098 0.81 0
M  V30 4 C -1.6796 0.459 -0.8575 0
M  V30 5 O -4.6771 0.1304 1.308 0
M  V30 6 C -2.4635 -0.7918 1.5162 0
M  V30 7 C -0.7533 -0.3296 -0.1522 0
M  V30 8 C -1.159 -0.9514 1.0424 0
M  V30 9 C 0.6624 -0.4892 -0.6725 0 CFG=2
M  V30 10 O 0.9506 -1.8456 -0.9114 0
M  V30 11 C 1.6891 0.1555 0.2851 0
M  V30 12 N 3.0459 0.109 -0.2817 0 CHG=1
M  V30 13 C 4.0075 0.7486 0.6199 0
M  V30 14 H -3.6424 1.8679 -1.9533 0
M  V30 15 H -1.3867 0.9511 -1.7768 0
M  V30 16 H -5.3788 0.6862 0.8336 0
M  V30 17 H -2.7617 -1.2768 2.4372 0
M  V30 18 H -0.4675 -1.5577 1.6128 0
M  V30 19 H 0.7486 0.0365 -1.6487 0
M  V30 20 H 1.0511 -2.2997 -0.0347 0
M  V30 21 H 1.6709 -0.371 1.2658 0
M  V30 22 H 1.3925 1.2154 0.4593 0
M  V30 23 H 3.3369 -0.8859 -0.4264 0
M  V30 24 H 3.0639 0.6117 -1.1999 0
M  V30 25 H 3.7461 1.8183 0.7771 0
M  V30 26 H 5.0252 0.7016 0.1759 0
M  V30 27 H 4.032 0.2261 1.6014 0
M  V30 END ATOM
M  V30 BEGIN BOND
M  V30 1 1 1 2
M  V30 2 2 2 3
M  V30 3 1 2 4
M  V30 4 1 3 5
M  V30 5 1 3 6
M  V30 6 2 4 7
M  V30 7 2 6 8
M  V30 8 1 7 9
M  V30 9 1 9 10
M  V30 10 1 9 11
M  V30 11 1 11 12
M  V30 12 1 12 13
M  V30 13 1 7 8
M  V30 14 1 1 14
M  V30 15 1 4 15
M  V30 16 1 5 16
M  V30 17 1 6 17
M  V30 18 1 8 18
M  V30 19 1 9 19
M  V30 20 1 10 20
M  V30 21 1 11 21
M  V30 22 1 11 22
M  V30 23 1 12 23
M  V30 24 1 12 24
M  V30 25 1 13 25
M  V30 26 1 13 26
M  V30 27 1 13 27
M  V30 END BOND
M  V30 BEGIN COLLECTION
M  V30 MDLV30/STEABS ATOMS=(1 9)
M  V30 END COLLECTION
M  V30 END CTAB
M  END
>  <Structure No>
8154

>  <LogS>
-0.96

>  <MMFF94 Energy>
39.864

$$$$
Compound 8155
Actelion Java MolfileCreator 2.0

  0  0  0  0  0  0              0 V3000
M  V30 BEGIN CTAB
M  V30 COUNTS 35 35 0 0 0
M  V30 BEGIN ATOM
M  V30 1 S -3.1312 1.5245 -3.2919 0
M  V30 2 C -2.2961 0.931 -2.0151 0
M  V30 3 N -1.531 -0.2623 -2.1547 0
M  V30 4 N -2.2894 1.6351 -0.777 0
M  V30 5 C -0.8383 -0.8364 -1.0427 0
M  V30 6 C -1.5331 1.1585 0.3381 0
M  V30 7 O -0.2042 -1.9128 -1.2195 0
M  V30 8 C -0.9303 -0.245 0.3593 0
M  V30 9 O -1.397 1.913 1.3401 0
M  V30 10 C -1.8731 -1.2025 1.1554 0
M  V30 11 C 0.4966 -0.2115 1.0057 0
M  V30 12 C -2.2129 -0.789 2.5995 0
M  V30 13 C 1.5184 0.7691 0.3672 0
M  V30 14 O -3.0759 -1.7324 3.1745 0
M  V30 15 C 2.2316 0.2826 -0.9187 0
M  V30 16 C 3.1129 1.4093 -1.4758 0
M  V30 17 C 3.0913 -0.9669 -0.6708 0
M  V30 18 H -1.4847 -0.7398 -3.0832 0
M  V30 19 H -2.7908 2.5488 -0.6991 0
M  V30 20 H -1.4168 -2.2172 1.1897 0
M  V30 21 H -2.8354 -1.3016 0.6032 0
M  V30 22 H 0.9188 -1.2351 1.0644 0
M  V30 23 H 0.3966 0.1142 2.0612 0
M  V30 24 H -2.7357 0.1882 2.6028 0
M  V30 25 H -1.2977 -0.6967 3.2223 0
M  V30 26 H 1.0217 1.7405 0.1623 0
M  V30 27 H 2.2998 0.9845 1.1298 0
M  V30 28 H -2.5206 -2.521 3.4106 0
M  V30 29 H 1.4856 0.0517 -1.7033 0
M  V30 30 H 3.5984 1.0877 -2.422 0
M  V30 31 H 2.4962 2.3063 -1.6983 0
M  V30 32 H 3.9022 1.6888 -0.745 0
M  V30 33 H 2.4567 -1.8481 -0.4496 0
M  V30 34 H 3.7925 -0.8004 0.1746 0
M  V30 35 H 3.6822 -1.2138 -1.5785 0
M  V30 END ATOM
M  V30 BEGIN BOND
M  V30 1 2 1 2
M  V30 2 1 2 3
M  V30 3 1 2 4
M  V30 4 1 3 5
M  V30 5 1 4 6
M  V30 6 2 5 7
M  V30 7 1 5 8
M  V30 8 2 6 9
M  V30 9 1 8 10
M  V30 10 1 8 11
M  V30 11 1 10 12
M  V30 12 1 11 13
M  V30 13 1 12 14
M  V30 14 1 13 15
M  V30 15 1 15 16
M  V30 16 1 15 17
M  V30 17 1 6 8
M  V30 18 1 3 18
M  V30 19 1 4 19
M  V30 20 1 10 20
M  V30 21 1 10 21
M  V30 22 1 11 22
M  V30 23 1 11 23
M  V30 24 1 12 24
M  V30 25 1 12 25
M  V30 26 1 13 26
M  V30 27 1 13 27
M  V30 28 1 14 28
M  V30 29 1 15 29
M  V30 30 1 16 30
M  V30 31 1 16 31
M  V30 32 1 16 32
M  V30 33 1 17 33
M  V30 34 1 17 34
M  V30 35 1 17 35
M  V30 END BOND
M  V30 END CTAB
M  END
>  <Structure No>
8155

>  <LogS>
-2.56

>  <MMFF94 Energy>
-98.547

$$$$
Compound 8156
Actelion Java MolfileCreator 2.0

  0  0  0  0  0  0              0 V3000
M  V30 BEGIN CTAB
M  V30 COUNTS 35 35 0 0 0
M  V30 BEGIN ATOM
M  V30 1 S -4.4974 3.6931 0.5613 0
M  V30 2 C -3.2657 2.6201 0.4548 0
M  V30 3 N -2.4536 2.5767 -0.7138 0
M  V30 4 N -2.9503 1.7816 1.5605 0
M  V30 5 C -1.4095 1.608 -0.857 0
M  V30 6 C -1.8664 0.8522 1.4884 0
M  V30 7 O -0.7099 1.644 -1.9035 0
M  V30 8 C -1.23 0.4671 0.1484 0
M  V30 9 O -1.4897 0.2913 2.5539 0
M  V30 10 C -1.9964 -0.7663 -0.4185 0
M  V30 11 C 0.2974 0.1895 0.3951 0
M  V30 12 C -1.8391 -2.0654 0.3908 0
M  V30 13 C 1.1119 -0.3664 -0.7982 0
M  V30 14 O -2.5771 -3.0955 -0.2084 0
M  V30 15 C 2.4522 -0.9796 -0.3593 0
M  V30 16 C 3.4275 0.0681 0.1969 0
M  V30 17 C 4.7865 -0.5541 0.5031 0
M  V30 18 H -2.6198 3.264 -1.4834 0
M  V30 19 H -3.4729 1.8898 2.4592 0
M  V30 20 H -3.0813 -0.5201 -0.468 0
M  V30 21 H -1.6846 -0.9649 -1.4665 0
M  V30 22 H 0.407 -0.5268 1.2376 0
M  V30 23 H 0.7716 1.1381 0.7306 0
M  V30 24 H -0.7754 -2.3773 0.411 0
M  V30 25 H -2.1765 -1.9232 1.4409 0
M  V30 26 H 0.5453 -1.1637 -1.3176 0
M  V30 27 H 1.3246 0.4343 -1.5351 0
M  V30 28 H -3.5296 -2.9351 0.0217 0
M  V30 29 H 2.9143 -1.4661 -1.2464 0
M  V30 30 H 2.273 -1.7715 0.4008 0
M  V30 31 H 3.5655 0.8857 -0.5435 0
M  V30 32 H 3.0225 0.5044 1.1348 0
M  V30 33 H 5.2384 -0.97 -0.4225 0
M  V30 34 H 4.6788 -1.3645 1.2553 0
M  V30 35 H 5.4673 0.2219 0.9121 0
M  V30 END ATOM
M  V30 BEGIN BOND
M  V30 1 2 1 2
M  V30 2 1 2 3
M  V30 3 1 2 4
M  V30 4 1 3 5
M  V30 5 1 4 6
M  V30 6 2 5 7
M  V30 7 1 5 8
M  V30 8 2 6 9
M  V30 9 1 8 10
M  V30 10 1 8 11
M  V30 11 1 10 12
M  V30 12 1 11 13
M  V30 13 1 12 14
M  V30 14 1 13 15
M  V30 15 1 15 16
M  V30 16 1 16 17
M  V30 17 1 6 8
M  V30 18 1 3 18
M  V30 19 1 4 19
M  V30 20 1 10 20
M  V30 21 1 10 21
M  V30 22 1 11 22
M  V30 23 1 11 23
M  V30 24 1 12 24
M  V30 25 1 12 25
M  V30 26 1 13 26
M  V30 27 1 13 27
M  V30 28 1 14 28
M  V30 29 1 15 29
M  V30 30 1 15 30
M  V30 31 1 16 31
M  V30 32 1 16 32
M  V30 33 1 17 33
M  V30 34 1 17 34
M  V30 35 1 17 35
M  V30 END BOND
M  V30 END CTAB
M  END
>  <Structure No>
8156

>  <LogS>
-2.38

>  <MMFF94 Energy>
-106.23

$$$$
Compound 8157
Actelion Java MolfileCreator 2.0

  0  0  0  0  0  0              0 V3000
M  V30 BEGIN CTAB
M  V30 COUNTS 29 30 0 0 0
M  V30 BEGIN ATOM
M  V30 1 O 1.9423 -0.1617 2.3474 0
M  V30 2 C 1.4175 -0.714 1.3446 0
M  V30 3 N 1.4487 -0.1611 0.0308 0
M  V30 4 N 0.7548 -1.9614 1.4064 0
M  V30 5 C 0.7765 -1.1053 -0.8682 0 CFG=1
M  V30 6 C 2.3219 0.9297 -0.397 0
M  V30 7 C 0.378 -2.2176 0.0621 0
M  V30 8 C -0.4355 -0.4614 -1.5706 0
M  V30 9 C 3.7259 0.4386 -0.5436 0
M  V30 10 O -0.1992 -3.2772 -0.2975 0
M  V30 11 C -1.4151 0.1637 -0.6048 0
M  V30 12 O 4.1011 -0.093 -1.6213 0
M  V30 13 O 4.6075 0.5224 0.5263 0 CHG=-1
M  V30 14 C -1.2618 1.5022 -0.2043 0
M  V30 15 C -2.4671 -0.5974 -0.0672 0
M  V30 16 C -2.1486 2.0688 0.7161 0
M  V30 17 C -3.3519 -0.0267 0.8527 0
M  V30 18 C -3.1928 1.3051 1.2444 0
M  V30 19 H 0.6231 -2.5779 2.2385 0
M  V30 20 H 1.497 -1.494 -1.6201 0
M  V30 21 H 2.2859 1.7519 0.349 0
M  V30 22 H 1.9688 1.3394 -1.3671 0
M  V30 23 H -0.9522 -1.2314 -2.1843 0
M  V30 24 H -0.073 0.3097 -2.2839 0
M  V30 25 H -0.4559 2.1054 -0.6024 0
M  V30 26 H -2.5999 -1.6319 -0.3579 0
M  V30 27 H -2.0253 3.0998 1.0212 0
M  V30 28 H -4.1599 -0.6179 1.2639 0
M  V30 29 H -3.8778 1.745 1.9577 0
M  V30 END ATOM
M  V30 BEGIN BOND
M  V30 1 2 1 2
M  V30 2 1 2 3
M  V30 3 1 2 4
M  V30 4 1 3 5
M  V30 5 1 3 6
M  V30 6 1 4 7
M  V30 7 1 5 8
M  V30 8 1 6 9
M  V30 9 2 7 10
M  V30 10 1 8 11
M  V30 11 2 9 12
M  V30 12 1 9 13
M  V30 13 2 11 14
M  V30 14 1 11 15
M  V30 15 1 14 16
M  V30 16 2 15 17
M  V30 17 2 16 18
M  V30 18 1 5 7
M  V30 19 1 17 18
M  V30 20 1 4 19
M  V30 21 1 5 20
M  V30 22 1 6 21
M  V30 23 1 6 22
M  V30 24 1 8 23
M  V30 25 1 8 24
M  V30 26 1 14 25
M  V30 27 1 15 26
M  V30 28 1 16 27
M  V30 29 1 17 28
M  V30 30 1 18 29
M  V30 END BOND
M  V30 BEGIN COLLECTION
M  V30 MDLV30/STEABS ATOMS=(1 5)
M  V30 END COLLECTION
M  V30 END CTAB
M  END
>  <Structure No>
8157

>  <LogS>
-1.79

>  <MMFF94 Energy>
4.6446

$$$$
Compound 8158
Actelion Java MolfileCreator 2.0

  0  0  0  0  0  0              0 V3000
M  V30 BEGIN CTAB
M  V30 COUNTS 32 33 0 0 0
M  V30 BEGIN ATOM
M  V30 1 S -2.0672 -1.9845 0.6611 0
M  V30 2 O -1.6058 -3.2475 1.3307 0
M  V30 3 O -3.3944 -1.5835 1.241 0
M  V30 4 N -0.8919 -0.7431 0.9461 0 CHG=-1
M  V30 5 C -2.2144 -2.2889 -1.0861 0
M  V30 6 C -0.9615 0.6075 0.4655 0
M  V30 7 C 0.1786 1.4317 0.562 0
M  V30 8 C -2.1523 1.1434 -0.0532 0
M  V30 9 O 1.4 0.9467 1.052 0
M  V30 10 C 0.0997 2.7786 0.1904 0
M  V30 11 C -2.2139 2.4811 -0.4495 0
M  V30 12 C 2.016 -0.2439 0.637 0
M  V30 13 C -1.091 3.3158 -0.3252 0
M  V30 14 C 1.7377 -0.8333 -0.6117 0
M  V30 15 C 2.9578 -0.8435 1.4824 0
M  V30 16 N -1.1557 4.6986 -0.7201 0 CHG=1
M  V30 17 C 2.3727 -2.0211 -0.9859 0
M  V30 18 C 3.5933 -2.0304 1.1041 0
M  V30 19 O -2.2113 5.181 -1.1806 0
M  V30 20 O -0.0537 5.5137 -0.5964 0 CHG=-1
M  V30 21 C 3.2979 -2.6209 -0.1275 0
M  V30 22 H -1.2188 -2.5528 -1.499 0
M  V30 23 H -2.919 -3.1281 -1.2584 0
M  V30 24 H -2.5932 -1.382 -1.599 0
M  V30 25 H -3.0458 0.5436 -0.1385 0
M  V30 26 H 0.9807 3.3995 0.2906 0
M  V30 27 H -3.1463 2.8664 -0.8419 0
M  V30 28 H 1.0371 -0.374 -1.2967 0
M  V30 29 H 3.1905 -0.3928 2.4388 0
M  V30 30 H 2.1506 -2.4742 -1.9434 0
M  V30 31 H 4.3142 -2.4923 1.7661 0
M  V30 32 H 3.7897 -3.5398 -0.4188 0
M  V30 END ATOM
M  V30 BEGIN BOND
M  V30 1 2 1 2
M  V30 2 2 1 3
M  V30 3 1 1 4
M  V30 4 1 1 5
M  V30 5 1 4 6
M  V30 6 2 6 7
M  V30 7 1 6 8
M  V30 8 1 7 9
M  V30 9 1 7 10
M  V30 10 2 8 11
M  V30 11 1 9 12
M  V30 12 2 10 13
M  V30 13 2 12 14
M  V30 14 1 12 15
M  V30 15 1 13 16
M  V30 16 1 14 17
M  V30 17 2 15 18
M  V30 18 2 16 19
M  V30 19 1 16 20
M  V30 20 2 17 21
M  V30 21 1 11 13
M  V30 22 1 18 21
M  V30 23 1 5 22
M  V30 24 1 5 23
M  V30 25 1 5 24
M  V30 26 1 8 25
M  V30 27 1 10 26
M  V30 28 1 11 27
M  V30 29 1 14 28
M  V30 30 1 15 29
M  V30 31 1 17 30
M  V30 32 1 18 31
M  V30 33 1 21 32
M  V30 END BOND
M  V30 END CTAB
M  END
>  <Structure No>
8158

>  <LogS>
-4.49

>  <MMFF94 Energy>
95.994

$$$$
Compound 8159
Actelion Java MolfileCreator 2.0

  0  0  0  0  0  0              0 V3000
M  V30 BEGIN CTAB
M  V30 COUNTS 22 22 0 0 0
M  V30 BEGIN ATOM
M  V30 1 O -1.4519 -0.4031 3.0671 0
M  V30 2 C -1.1824 -0.2994 1.842 0
M  V30 3 N -0.3532 -1.202 1.1499 0
M  V30 4 N -1.669 0.7384 1.0242 0
M  V30 5 C -0.2432 -0.7514 -0.2376 0 CFG=2
M  V30 6 C -1.1992 0.515 -0.341 0 CFG=2
M  V30 7 O -0.6791 -1.7798 -1.0952 0
M  V30 8 N 1.1592 -0.4184 -0.5475 0
M  V30 9 O -0.5141 1.668 -0.7696 0
M  V30 10 C -2.4022 0.2694 -1.2304 0
M  V30 11 C 2.0014 0.4036 0.2777 0
M  V30 12 O -3.3845 -0.3935 -0.8015 0
M  V30 13 O -2.4096 0.716 -2.5468 0 CHG=-1
M  V30 14 O 1.5536 0.9315 1.3305 0
M  V30 15 N 3.358 0.6348 -0.0988 0
M  V30 16 H 0.1408 -2.0197 1.5717 0
M  V30 17 H -2.3046 1.507 1.3353 0
M  V30 18 H -0.1048 -2.5711 -0.9205 0
M  V30 19 H 1.5753 -0.8082 -1.4234 0
M  V30 20 H -0.1529 1.4858 -1.6765 0
M  V30 21 H 3.9752 1.2335 0.4934 0
M  V30 22 H 3.7482 0.2094 -0.9686 0
M  V30 END ATOM
M  V30 BEGIN BOND
M  V30 1 2 1 2
M  V30 2 1 2 3
M  V30 3 1 2 4
M  V30 4 1 3 5
M  V30 5 1 4 6
M  V30 6 1 5 7
M  V30 7 1 5 8
M  V30 8 1 6 9
M  V30 9 1 6 10
M  V30 10 1 8 11
M  V30 11 2 10 12
M  V30 12 1 10 13
M  V30 13 2 11 14
M  V30 14 1 11 15
M  V30 15 1 5 6
M  V30 16 1 3 16
M  V30 17 1 4 17
M  V30 18 1 7 18
M  V30 19 1 8 19
M  V30 20 1 9 20
M  V30 21 1 15 21
M  V30 22 1 15 22
M  V30 END BOND
M  V30 BEGIN COLLECTION
M  V30 MDLV30/STEABS ATOMS=(2 5 6)
M  V30 END COLLECTION
M  V30 END CTAB
M  END
>  <Structure No>
8159

>  <LogS>
-0.37

>  <MMFF94 Energy>
-158.52

$$$$
Compound 8160
Actelion Java MolfileCreator 2.0

  0  0  0  0  0  0              0 V3000
M  V30 BEGIN CTAB
M  V30 COUNTS 38 38 0 0 0
M  V30 BEGIN ATOM
M  V30 1 S -3.1272 3.2075 -2.7258 0
M  V30 2 C -2.557 2.0274 -1.7451 0
M  V30 3 N -1.6538 2.3475 -0.6905 0
M  V30 4 N -3.03 0.6893 -1.8842 0
M  V30 5 C -1.1964 1.3285 0.2013 0
M  V30 6 C -2.4782 -0.3728 -1.0986 0
M  V30 7 O -0.7083 1.6754 1.3109 0
M  V30 8 C -1.2664 -0.1477 -0.1935 0
M  V30 9 O -2.9229 -1.5412 -1.269 0
M  V30 10 C -0.0208 -0.5239 -1.0742 0
M  V30 11 C -1.3883 -1.0485 1.0777 0
M  V30 12 C 1.3958 -0.7374 -0.4564 0 CFG=1
M  V30 13 C -2.6545 -0.8142 1.9268 0
M  V30 14 C 1.8994 0.4498 0.3962 0
M  V30 15 C 1.5542 -2.0929 0.2613 0
M  V30 16 O -3.7641 -1.4645 1.3656 0
M  V30 17 C 3.4216 0.457 0.6333 0
M  V30 18 C 4.2224 0.8125 -0.6198 0
M  V30 19 H -1.4083 3.3454 -0.4997 0
M  V30 20 H -3.7789 0.4738 -2.5808 0
M  V30 21 H 0.082 0.2595 -1.8597 0
M  V30 22 H -0.2535 -1.4525 -1.6436 0
M  V30 23 H -1.3364 -2.1227 0.7945 0
M  V30 24 H -0.5304 -0.8462 1.7472 0
M  V30 25 H 2.0585 -0.803 -1.3458 0
M  V30 26 H -2.4842 -1.2487 2.9349 0
M  V30 27 H -2.843 0.274 2.0764 0
M  V30 28 H 1.4149 0.4138 1.3925 0
M  V30 29 H 1.6141 1.4085 -0.0888 0
M  V30 30 H 0.9454 -2.8806 -0.2301 0
M  V30 31 H 1.2775 -2.0363 1.3318 0
M  V30 32 H 2.6136 -2.4221 0.2133 0
M  V30 33 H -4.4111 -0.7625 1.0936 0
M  V30 34 H 3.645 1.222 1.4085 0
M  V30 35 H 3.764 -0.5202 1.0328 0
M  V30 36 H 4.1768 -0.0063 -1.3662 0
M  V30 37 H 5.2875 0.9629 -0.3444 0
M  V30 38 H 3.8411 1.7515 -1.074 0
M  V30 END ATOM
M  V30 BEGIN BOND
M  V30 1 2 1 2
M  V30 2 1 2 3
M  V30 3 1 2 4
M  V30 4 1 3 5
M  V30 5 1 4 6
M  V30 6 2 5 7
M  V30 7 1 5 8
M  V30 8 2 6 9
M  V30 9 1 8 10
M  V30 10 1 8 11
M  V30 11 1 10 12
M  V30 12 1 11 13
M  V30 13 1 12 14
M  V30 14 1 12 15
M  V30 15 1 13 16
M  V30 16 1 14 17
M  V30 17 1 17 18
M  V30 18 1 6 8
M  V30 19 1 3 19
M  V30 20 1 4 20
M  V30 21 1 10 21
M  V30 22 1 10 22
M  V30 23 1 11 23
M  V30 24 1 11 24
M  V30 25 1 12 25
M  V30 26 1 13 26
M  V30 27 1 13 27
M  V30 28 1 14 28
M  V30 29 1 14 29
M  V30 30 1 15 30
M  V30 31 1 15 31
M  V30 32 1 15 32
M  V30 33 1 16 33
M  V30 34 1 17 34
M  V30 35 1 17 35
M  V30 36 1 18 36
M  V30 37 1 18 37
M  V30 38 1 18 38
M  V30 END BOND
M  V30 BEGIN COLLECTION
M  V30 MDLV30/STEABS ATOMS=(1 12)
M  V30 END COLLECTION
M  V30 END CTAB
M  END
>  <Structure No>
8160

>  <LogS>
-3.09

>  <MMFF94 Energy>
-97.958

$$$$
Compound 8161
Actelion Java MolfileCreator 2.0

  0  0  0  0  0  0              0 V3000
M  V30 BEGIN CTAB
M  V30 COUNTS 38 38 0 0 0
M  V30 BEGIN ATOM
M  V30 1 S 2.326 -4.7365 -0.561 0
M  V30 2 C 1.9119 -3.1696 -0.7514 0
M  V30 3 N 2.8487 -2.142 -0.4442 0
M  V30 4 N 0.6393 -2.8278 -1.2938 0
M  V30 5 C 2.4879 -0.7585 -0.5717 0
M  V30 6 C 0.271 -1.458 -1.4772 0
M  V30 7 O 3.3831 0.1104 -0.384 0
M  V30 8 C 1.0279 -0.3338 -0.7675 0
M  V30 9 O -0.7634 -1.1969 -2.1591 0
M  V30 10 C 0.407 -0.1341 0.6578 0
M  V30 11 C 0.9454 0.9544 -1.6672 0
M  V30 12 C -1.1251 0.1746 0.7112 0
M  V30 13 C 1.6727 2.2176 -1.1624 0
M  V30 14 C -1.9351 -1.123 0.9795 0
M  V30 15 C -1.4489 1.227 1.8053 0
M  V30 16 O 0.947 3.3637 -1.5252 0
M  V30 17 C -3.3652 -1.0477 0.438 0
M  V30 18 C -1.0079 2.6494 1.4237 0
M  V30 19 H 3.8132 -2.3864 -0.1394 0
M  V30 20 H -0.015 -3.5824 -1.606 0
M  V30 21 H 0.6053 -1.0466 1.2635 0
M  V30 22 H 0.9792 0.6443 1.1976 0
M  V30 23 H 1.3591 0.7101 -2.6705 0
M  V30 24 H -0.1166 1.2186 -1.8506 0
M  V30 25 H -1.4577 0.5904 -0.2557 0
M  V30 26 H 1.801 2.2107 -0.0615 0
M  V30 27 H 2.6879 2.2624 -1.6166 0
M  V30 28 H -1.9673 -1.3385 2.0719 0
M  V30 29 H -1.4482 -1.9939 0.4954 0
M  V30 30 H -0.9708 0.9386 2.7656 0
M  V30 31 H -2.5406 1.2622 1.9862 0
M  V30 32 H 1.5007 4.1402 -1.2478 0
M  V30 33 H -3.8826 -2.0129 0.6148 0
M  V30 34 H -3.9444 -0.2451 0.9432 0
M  V30 35 H -3.3461 -0.8493 -0.6566 0
M  V30 36 H -1.4388 3.3783 2.1464 0
M  V30 37 H 0.0964 2.7455 1.4779 0
M  V30 38 H -1.3636 2.9107 0.3997 0
M  V30 END ATOM
M  V30 BEGIN BOND
M  V30 1 2 1 2
M  V30 2 1 2 3
M  V30 3 1 2 4
M  V30 4 1 3 5
M  V30 5 1 4 6
M  V30 6 2 5 7
M  V30 7 1 5 8
M  V30 8 2 6 9
M  V30 9 1 8 10
M  V30 10 1 8 11
M  V30 11 1 10 12
M  V30 12 1 11 13
M  V30 13 1 12 14
M  V30 14 1 12 15
M  V30 15 1 13 16
M  V30 16 1 14 17
M  V30 17 1 15 18
M  V30 18 1 6 8
M  V30 19 1 3 19
M  V30 20 1 4 20
M  V30 21 1 10 21
M  V30 22 1 10 22
M  V30 23 1 11 23
M  V30 24 1 11 24
M  V30 25 1 12 25
M  V30 26 1 13 26
M  V30 27 1 13 27
M  V30 28 1 14 28
M  V30 29 1 14 29
M  V30 30 1 15 30
M  V30 31 1 15 31
M  V30 32 1 16 32
M  V30 33 1 17 33
M  V30 34 1 17 34
M  V30 35 1 17 35
M  V30 36 1 18 36
M  V30 37 1 18 37
M  V30 38 1 18 38
M  V30 END BOND
M  V30 END CTAB
M  END
>  <Structure No>
8161

>  <LogS>
-3.14

>  <MMFF94 Energy>
-96.174

$$$$
Compound 8162
Actelion Java MolfileCreator 2.0

  0  0  0  0  0  0              0 V3000
M  V30 BEGIN CTAB
M  V30 COUNTS 32 33 0 0 0
M  V30 BEGIN ATOM
M  V30 1 O -0.2365 2.1305 0.0788 0
M  V30 2 C -0.4548 0.8903 0.0262 0
M  V30 3 N 0.5099 -0.0515 0.0183 0
M  V30 4 C -1.69 0.2856 -0.1035 0
M  V30 5 N -0.0703 -1.2433 -0.1133 0
M  V30 6 C 1.9251 0.196 0.0969 0
M  V30 7 N -2.9759 0.9174 -0.2046 0
M  V30 8 C -1.411 -1.0684 -0.2294 0
M  V30 9 C 0.6306 -2.5301 -0.1289 0
M  V30 10 C 2.4492 0.9704 1.1446 0
M  V30 11 C 2.7911 -0.3063 -0.8877 0
M  V30 12 C -3.3296 2.1135 0.5032 0
M  V30 13 C -2.4132 -2.1782 -0.3557 0
M  V30 14 C 3.8229 1.2222 1.2155 0
M  V30 15 C 4.1642 -0.0524 -0.814 0
M  V30 16 O -2.595 2.5545 1.4272 0
M  V30 17 N -4.5454 2.7915 0.1903 0
M  V30 18 C 4.68 0.7097 0.2378 0
M  V30 19 H -3.7143 0.4568 -0.7807 0
M  V30 20 H 1.5734 -2.4688 0.4528 0
M  V30 21 H 0.8568 -2.819 -1.176 0
M  V30 22 H 0.0059 -3.3183 0.3406 0
M  V30 23 H 1.7943 1.368 1.9097 0
M  V30 24 H 2.4008 -0.8813 -1.7172 0
M  V30 25 H -3.3771 -1.8064 -0.7563 0
M  V30 26 H -2.5874 -2.6326 0.6415 0
M  V30 27 H -2.0327 -2.9549 -1.051 0
M  V30 28 H 4.2226 1.8146 2.0284 0
M  V30 29 H 4.8276 -0.4423 -1.5749 0
M  V30 30 H -5.1718 2.4367 -0.5655 0
M  V30 31 H -4.8184 3.6538 0.7123 0
M  V30 32 H 5.7428 0.9061 0.2934 0
M  V30 END ATOM
M  V30 BEGIN BOND
M  V30 1 2 1 2
M  V30 2 1 2 3
M  V30 3 1 2 4
M  V30 4 1 3 5
M  V30 5 1 3 6
M  V30 6 1 4 7
M  V30 7 2 4 8
M  V30 8 1 5 9
M  V30 9 2 6 10
M  V30 10 1 6 11
M  V30 11 1 7 12
M  V30 12 1 8 13
M  V30 13 1 10 14
M  V30 14 2 11 15
M  V30 15 2 12 16
M  V30 16 1 12 17
M  V30 17 2 14 18
M  V30 18 1 5 8
M  V30 19 1 15 18
M  V30 20 1 7 19
M  V30 21 1 9 20
M  V30 22 1 9 21
M  V30 23 1 9 22
M  V30 24 1 10 23
M  V30 25 1 11 24
M  V30 26 1 13 25
M  V30 27 1 13 26
M  V30 28 1 13 27
M  V30 29 1 14 28
M  V30 30 1 15 29
M  V30 31 1 17 30
M  V30 32 1 17 31
M  V30 33 1 18 32
M  V30 END BOND
M  V30 END CTAB
M  END
>  <Structure No>
8162

>  <LogS>
-1.52

>  <MMFF94 Energy>
15.256

$$$$
Compound 8163
Actelion Java MolfileCreator 2.0

  0  0  0  0  0  0              0 V3000
M  V30 BEGIN CTAB
M  V30 COUNTS 45 48 0 0 0
M  V30 BEGIN ATOM
M  V30 1 O 6.3911 -0.4843 -0.0807 0
M  V30 2 C 4.9997 -0.4651 -0.0116 0
M  V30 3 C 4.242 0.1072 -1.0372 0
M  V30 4 C 4.3575 -1.0329 1.0867 0
M  V30 5 C 2.8391 0.1216 -0.9702 0
M  V30 6 C 2.9648 -1.0132 1.1776 0
M  V30 7 C 2.1806 -0.3889 0.1836 0
M  V30 8 C 2.0825 0.7453 -2.1209 0
M  V30 9 C 0.6514 -0.4324 0.2628 0 CFG=2
M  V30 10 C 0.6041 0.3564 -2.1359 0
M  V30 11 C 0.0079 0.5566 -0.738 0 CFG=1
M  V30 12 C 0.0977 -0.1212 1.67 0
M  V30 13 C -1.5432 0.497 -0.7433 0 CFG=2
M  V30 14 C -1.4294 -0.2785 1.6999 0
M  V30 15 C -2.1729 0.6183 0.6612 0 CFG=2
M  V30 16 C -2.1579 -0.7655 -1.3656 0
M  V30 17 C -3.6108 0.1025 0.4192 0 CFG=1
M  V30 18 C -2.2024 2.0871 1.1437 0
M  V30 19 C -3.4835 -1.0086 -0.6337 0 CFG=1
M  V30 20 O -4.2125 -0.3931 1.5887 0
M  V30 21 O -4.5559 -0.9661 -1.5388 0
M  V30 22 H 6.8881 -0.083 -0.8673 0
M  V30 23 H 4.7471 0.533 -1.8961 0
M  V30 24 H 4.9397 -1.5023 1.8698 0
M  V30 25 H 2.5132 -1.5082 2.0238 0
M  V30 26 H 2.1706 1.8511 -2.0438 0
M  V30 27 H 2.5383 0.4344 -3.0864 0
M  V30 28 H 0.3607 -1.4715 -9.0E-4 0
M  V30 29 H 0.0734 0.9948 -2.8756 0
M  V30 30 H 0.5008 -0.7041 -2.4548 0
M  V30 31 H 0.2774 1.5895 -0.4164 0
M  V30 32 H 0.391 0.9033 1.9847 0
M  V30 33 H 0.5006 -0.8277 2.422 0
M  V30 34 H -1.9013 1.3555 -1.3594 0
M  V30 35 H -1.7914 -0.0496 2.7264 0
M  V30 36 H -1.6617 -1.3506 1.5144 0
M  V30 37 H -2.3127 -0.6189 -2.4577 0
M  V30 38 H -1.502 -1.6505 -1.2333 0
M  V30 39 H -4.2411 0.9194 -0.0099 0
M  V30 40 H -2.7134 2.1627 2.127 0
M  V30 41 H -2.7468 2.7329 0.4217 0
M  V30 42 H -1.1768 2.4943 1.2548 0
M  V30 43 H -3.4434 -2.009 -0.1406 0
M  V30 44 H -4.4833 0.3967 2.1252 0
M  V30 45 H -5.3498 -1.309 -1.0513 0
M  V30 END ATOM
M  V30 BEGIN BOND
M  V30 1 1 1 2
M  V30 2 2 2 3
M  V30 3 1 2 4
M  V30 4 1 3 5
M  V30 5 2 4 6
M  V30 6 2 5 7
M  V30 7 1 5 8
M  V30 8 1 7 9
M  V30 9 1 8 10
M  V30 10 1 9 11
M  V30 11 1 9 12
M  V30 12 1 11 13
M  V30 13 1 12 14
M  V30 14 1 13 15
M  V30 15 1 13 16
M  V30 16 1 15 17
M  V30 17 1 15 18
M  V30 18 1 16 19
M  V30 19 1 17 20
M  V30 20 1 19 21
M  V30 21 1 6 7
M  V30 22 1 10 11
M  V30 23 1 14 15
M  V30 24 1 17 19
M  V30 25 1 1 22
M  V30 26 1 3 23
M  V30 27 1 4 24
M  V30 28 1 6 25
M  V30 29 1 8 26
M  V30 30 1 8 27
M  V30 31 1 9 28
M  V30 32 1 10 29
M  V30 33 1 10 30
M  V30 34 1 11 31
M  V30 35 1 12 32
M  V30 36 1 12 33
M  V30 37 1 13 34
M  V30 38 1 14 35
M  V30 39 1 14 36
M  V30 40 1 16 37
M  V30 41 1 16 38
M  V30 42 1 17 39
M  V30 43 1 18 40
M  V30 44 1 18 41
M  V30 45 1 18 42
M  V30 46 1 19 43
M  V30 47 1 20 44
M  V30 48 1 21 45
M  V30 END BOND
M  V30 BEGIN COLLECTION
M  V30 MDLV30/STEABS ATOMS=(6 9 11 13 15 17 19)
M  V30 END COLLECTION
M  V30 END CTAB
M  END
>  <Structure No>
8163

>  <LogS>
-4.0

>  <MMFF94 Energy>
80.222

$$$$
Compound 8164
Actelion Java MolfileCreator 2.0

  0  0  0  0  0  0              0 V3000
M  V30 BEGIN CTAB
M  V30 COUNTS 17 17 0 0 0
M  V30 BEGIN ATOM
M  V30 1 Cl -3.2672 -2.0626 -0.0858 0
M  V30 2 C -2.0201 -0.8171 -0.0861 0
M  V30 3 C -2.3623 0.5382 -0.2374 0
M  V30 4 C -0.6762 -1.1926 0.0669 0
M  V30 5 Cl -4.0504 1.0127 -0.4299 0
M  V30 6 C -1.3527 1.5142 -0.2348 0
M  V30 7 O -0.3593 -2.5441 0.2159 0
M  V30 8 C 0.3355 -0.2156 0.0698 0
M  V30 9 Cl -1.7335 3.222 -0.421 0
M  V30 10 C -0.0155 1.1382 -0.0821 0
M  V30 11 O 1.6703 -0.6229 0.2249 0
M  V30 12 C 2.7877 0.2594 0.2456 0
M  V30 13 H 0.5934 -2.8681 0.3297 0
M  V30 14 H 0.7434 1.9087 -0.0834 0
M  V30 15 H 2.8562 0.8114 -0.7153 0
M  V30 16 H 3.715 -0.3337 0.381 0
M  V30 17 H 2.6956 0.9727 1.0917 0
M  V30 END ATOM
M  V30 BEGIN BOND
M  V30 1 1 1 2
M  V30 2 2 2 3
M  V30 3 1 2 4
M  V30 4 1 3 5
M  V30 5 1 3 6
M  V30 6 1 4 7
M  V30 7 2 4 8
M  V30 8 1 6 9
M  V30 9 2 6 10
M  V30 10 1 8 11
M  V30 11 1 11 12
M  V30 12 1 8 10
M  V30 13 1 7 13
M  V30 14 1 10 14
M  V30 15 1 12 15
M  V30 16 1 12 16
M  V30 17 1 12 17
M  V30 END BOND
M  V30 END CTAB
M  END
>  <Structure No>
8164

>  <LogS>
-3.66

>  <MMFF94 Energy>
38.075

$$$$
Compound 8165
Actelion Java MolfileCreator 2.0

  0  0  0  0  0  0              0 V3000
M  V30 BEGIN CTAB
M  V30 COUNTS 33 34 0 0 0
M  V30 BEGIN ATOM
M  V30 1 O -4.0297 -1.127 1.7715 0
M  V30 2 C -3.0012 -0.9134 1.0739 0
M  V30 3 N -2.7107 0.4053 0.5887 0
M  V30 4 N -2.1213 -1.9947 0.7817 0
M  V30 5 C -1.4729 0.6532 -0.1051 0
M  V30 6 C -3.5865 1.5265 0.9469 0
M  V30 7 C -0.9573 -1.8161 -0.0256 0
M  V30 8 O -1.1112 1.8441 -0.3218 0
M  V30 9 C -0.6179 -0.4779 -0.6564 0 CFG=2
M  V30 10 O -0.217 -2.812 -0.2531 0
M  V30 11 C 0.8614 -0.1606 -0.345 0
M  V30 12 C -0.9444 -0.5909 -2.1623 0
M  V30 13 C 1.8003 -0.0059 -1.3168 0
M  V30 14 C 1.2763 -0.1257 1.1232 0
M  V30 15 C 3.2262 0.4079 -1.0389 0
M  V30 16 C 2.57 0.6537 1.3633 0
M  V30 17 C 3.6521 0.1601 0.4089 0
M  V30 18 H -2.3342 -2.9428 1.1663 0
M  V30 19 H -4.6443 1.1956 1.0168 0
M  V30 20 H -3.2692 1.9494 1.923 0
M  V30 21 H -3.5454 2.3213 0.1721 0
M  V30 22 H -0.7346 0.3652 -2.6894 0
M  V30 23 H -0.356 -1.4045 -2.6393 0
M  V30 24 H -2.0221 -0.8251 -2.3073 0
M  V30 25 H 1.5351 -0.0546 -2.3648 0
M  V30 26 H 0.4734 0.3282 1.7421 0
M  V30 27 H 1.4167 -1.1705 1.4754 0
M  V30 28 H 3.9063 -0.1482 -1.7186 0
M  V30 29 H 3.3252 1.4907 -1.2689 0
M  V30 30 H 2.3912 1.7405 1.2064 0
M  V30 31 H 2.903 0.5041 2.4129 0
M  V30 32 H 4.6031 0.6979 0.6125 0
M  V30 33 H 3.8287 -0.9265 0.5686 0
M  V30 END ATOM
M  V30 BEGIN BOND
M  V30 1 2 1 2
M  V30 2 1 2 3
M  V30 3 1 2 4
M  V30 4 1 3 5
M  V30 5 1 3 6
M  V30 6 1 4 7
M  V30 7 2 5 8
M  V30 8 1 5 9
M  V30 9 2 7 10
M  V30 10 1 9 11
M  V30 11 1 9 12
M  V30 12 2 11 13
M  V30 13 1 11 14
M  V30 14 1 13 15
M  V30 15 1 14 16
M  V30 16 1 15 17
M  V30 17 1 7 9
M  V30 18 1 16 17
M  V30 19 1 4 18
M  V30 20 1 6 19
M  V30 21 1 6 20
M  V30 22 1 6 21
M  V30 23 1 12 22
M  V30 24 1 12 23
M  V30 25 1 12 24
M  V30 26 1 13 25
M  V30 27 1 14 26
M  V30 28 1 14 27
M  V30 29 1 15 28
M  V30 30 1 15 29
M  V30 31 1 16 30
M  V30 32 1 16 31
M  V30 33 1 17 32
M  V30 34 1 17 33
M  V30 END BOND
M  V30 BEGIN COLLECTION
M  V30 MDLV30/STEABS ATOMS=(1 9)
M  V30 END COLLECTION
M  V30 END CTAB
M  END
>  <Structure No>
8165

>  <LogS>
-2.91

>  <MMFF94 Energy>
-74.357

$$$$
Compound 8166
Actelion Java MolfileCreator 2.0

  0  0  0  0  0  0              0 V3000
M  V30 BEGIN CTAB
M  V30 COUNTS 23 23 0 0 0
M  V30 BEGIN ATOM
M  V30 1 Cl 1.3929 -2.8693 -0.3276 0
M  V30 2 C 1.7807 -1.1574 -0.2356 0
M  V30 3 C 0.8971 -0.24 0.3644 0
M  V30 4 C 3.0158 -0.7147 -0.7256 0
M  V30 5 O -0.3468 -0.6464 0.8565 0
M  V30 6 C 1.2756 1.1024 0.4943 0
M  V30 7 C 3.3765 0.6307 -0.6116 0
M  V30 8 C -1.4417 -0.9715 -0.0017 0 CFG=1
M  V30 9 C 2.509 1.5378 0.0021 0
M  V30 10 C -2.518 -1.6547 0.7848 0
M  V30 11 C -1.9941 0.2736 -0.6511 0
M  V30 12 O -2.7393 -1.3312 1.9821 0
M  V30 13 O -3.3136 -2.6178 0.1773 0 CHG=-1
M  V30 14 O -2.1685 0.294 -1.86 0
M  V30 15 C -2.3571 1.4848 0.158 0
M  V30 16 H 3.7012 -1.4148 -1.186 0
M  V30 17 H 0.6085 1.81 0.9696 0
M  V30 18 H 4.3324 0.9686 -0.9904 0
M  V30 19 H -1.0978 -1.6747 -0.7909 0
M  V30 20 H 2.7926 2.5781 0.0975 0
M  V30 21 H -1.7699 2.3576 -0.1961 0
M  V30 22 H -3.4393 1.7011 0.0381 0
M  V30 23 H -2.1428 1.3257 1.2355 0
M  V30 END ATOM
M  V30 BEGIN BOND
M  V30 1 1 1 2
M  V30 2 2 2 3
M  V30 3 1 2 4
M  V30 4 1 3 5
M  V30 5 1 3 6
M  V30 6 2 4 7
M  V30 7 1 5 8
M  V30 8 2 6 9
M  V30 9 1 8 10
M  V30 10 1 8 11
M  V30 11 2 10 12
M  V30 12 1 10 13
M  V30 13 2 11 14
M  V30 14 1 11 15
M  V30 15 1 7 9
M  V30 16 1 4 16
M  V30 17 1 6 17
M  V30 18 1 7 18
M  V30 19 1 8 19
M  V30 20 1 9 20
M  V30 21 1 15 21
M  V30 22 1 15 22
M  V30 23 1 15 23
M  V30 END BOND
M  V30 BEGIN COLLECTION
M  V30 MDLV30/STEABS ATOMS=(1 8)
M  V30 END COLLECTION
M  V30 END CTAB
M  END
>  <Structure No>
8166

>  <LogS>
-2.1

>  <MMFF94 Energy>
82.667

$$$$
Compound 8167
Actelion Java MolfileCreator 2.0

  0  0  0  0  0  0              0 V3000
M  V30 BEGIN CTAB
M  V30 COUNTS 20 21 0 0 0
M  V30 BEGIN ATOM
M  V30 1 O 2.9089 2.1002 -0.6458 0
M  V30 2 C 1.7719 1.6359 -0.3628 0
M  V30 3 C 1.5827 0.1873 -0.1614 0
M  V30 4 C 0.6379 2.5515 -0.1789 0
M  V30 5 N 2.6463 -0.5427 0.022 0
M  V30 6 C 0.1755 -0.3175 -0.0395 0
M  V30 7 C -0.5825 2.0847 0.0919 0
M  V30 8 O 2.6319 -1.871 0.3748 0
M  V30 9 C -0.8649 0.6311 0.1362 0
M  V30 10 C -0.1733 -1.68 -0.1643 0
M  V30 11 C -2.1906 0.2005 0.2952 0
M  V30 12 C -1.4997 -2.092 -0.0112 0
M  V30 13 C -2.5027 -1.1568 0.2357 0
M  V30 14 H 0.7986 3.6206 -0.2452 0
M  V30 15 H -1.3911 2.7917 0.2347 0
M  V30 16 H 3.5027 -2.3711 0.4985 0
M  V30 17 H 0.5483 -2.4367 -0.4231 0
M  V30 18 H -2.9881 0.9185 0.4439 0
M  V30 19 H -1.7526 -3.1408 -0.0998 0
M  V30 20 H -3.5288 -1.4816 0.3502 0
M  V30 END ATOM
M  V30 BEGIN BOND
M  V30 1 2 1 2
M  V30 2 1 2 3
M  V30 3 1 2 4
M  V30 4 2 3 5
M  V30 5 1 3 6
M  V30 6 2 4 7
M  V30 7 1 5 8
M  V30 8 2 6 9
M  V30 9 1 6 10
M  V30 10 1 9 11
M  V30 11 2 10 12
M  V30 12 2 11 13
M  V30 13 1 7 9
M  V30 14 1 12 13
M  V30 15 1 4 14
M  V30 16 1 7 15
M  V30 17 1 8 16
M  V30 18 1 10 17
M  V30 19 1 11 18
M  V30 20 1 12 19
M  V30 21 1 13 20
M  V30 END BOND
M  V30 END CTAB
M  END
>  <Structure No>
8167

>  <LogS>
-2.94

>  <MMFF94 Energy>
92.641

$$$$
Compound 8168
Actelion Java MolfileCreator 2.0

  0  0  0  0  0  0              0 V3000
M  V30 BEGIN CTAB
M  V30 COUNTS 26 27 0 0 0
M  V30 BEGIN ATOM
M  V30 1 S 4.9684 -0.1681 0.5885 0
M  V30 2 O 5.3556 -1.1433 1.664 0
M  V30 3 O 5.4702 1.1982 0.9619 0
M  V30 4 N 5.6753 -0.6441 -0.9153 0
M  V30 5 C 3.2234 -0.1265 0.4378 0
M  V30 6 S 2.2598 -1.4972 0.1987 0
M  V30 7 N 2.4996 1.0174 0.4881 0
M  V30 8 C 0.8543 -0.5798 0.1631 0
M  V30 9 C 1.1764 0.7558 0.3356 0
M  V30 10 C -0.4583 -1.0081 -0.0106 0
M  V30 11 C 0.1762 1.7269 0.3341 0
M  V30 12 C -1.488 -0.0465 0.0058 0
M  V30 13 C -1.1589 1.324 0.1618 0
M  V30 14 N -2.8469 -0.4718 -0.1951 0
M  V30 15 C -3.9874 0.1651 0.4009 0
M  V30 16 O -3.8442 0.9924 1.3414 0
M  V30 17 C -5.3647 -0.2261 -0.0256 0
M  V30 18 H 5.2889 -1.5856 -1.1505 0
M  V30 19 H 5.3208 0.0172 -1.642 0
M  V30 20 H -0.6786 -2.0596 -0.1459 0
M  V30 21 H 0.4226 2.7745 0.4529 0
M  V30 22 H -1.9277 2.0839 0.1239 0
M  V30 23 H -3.0116 -1.3478 -0.7414 0
M  V30 24 H -6.0906 0.5746 0.23 0
M  V30 25 H -5.3883 -0.3898 -1.1234 0
M  V30 26 H -5.6589 -1.1635 0.4902 0
M  V30 END ATOM
M  V30 BEGIN BOND
M  V30 1 2 1 2
M  V30 2 2 1 3
M  V30 3 1 1 4
M  V30 4 1 1 5
M  V30 5 1 5 6
M  V30 6 2 5 7
M  V30 7 1 6 8
M  V30 8 1 7 9
M  V30 9 1 8 10
M  V30 10 1 9 11
M  V30 11 2 10 12
M  V30 12 2 11 13
M  V30 13 1 12 14
M  V30 14 1 14 15
M  V30 15 2 15 16
M  V30 16 1 15 17
M  V30 17 2 8 9
M  V30 18 1 12 13
M  V30 19 1 4 18
M  V30 20 1 4 19
M  V30 21 1 10 20
M  V30 22 1 11 21
M  V30 23 1 13 22
M  V30 24 1 14 23
M  V30 25 1 17 24
M  V30 26 1 17 25
M  V30 27 1 17 26
M  V30 END BOND
M  V30 END CTAB
M  END
>  <Structure No>
8168

>  <LogS>
-3.16

>  <MMFF94 Energy>
-19.209

$$$$
Compound 8169
Actelion Java MolfileCreator 2.0

  0  0  0  0  0  0              0 V3000
M  V30 BEGIN CTAB
M  V30 COUNTS 26 26 0 0 0
M  V30 BEGIN ATOM
M  V30 1 S 1.5726 0.7447 -1.7383 0
M  V30 2 C -0.0783 1.0374 -0.9424 0 CFG=1
M  V30 3 C 2.785 1.0196 -0.393 0
M  V30 4 C -0.8719 -0.2316 -0.676 0
M  V30 5 C -0.1423 2.0674 0.2132 0
M  V30 6 C 3.0153 -0.2292 0.3929 0
M  V30 7 C -2.279 -0.1758 -0.707 0
M  V30 8 C -0.2526 -1.4543 -0.3512 0
M  V30 9 C 0.1833 1.5302 1.5804 0
M  V30 10 O 2.6973 -0.2866 1.6093 0
M  V30 11 O 3.5923 -1.3353 -0.2183 0 CHG=-1
M  V30 12 C -3.0436 -1.3139 -0.4348 0
M  V30 13 C -1.0217 -2.59 -0.0799 0
M  V30 14 O 1.0327 2.1184 2.3004 0
M  V30 15 O -0.5225 0.4561 2.1078 0 CHG=-1
M  V30 16 C -2.4155 -2.5204 -0.1221 0
M  V30 17 H -0.6201 1.5408 -1.7739 0
M  V30 18 H 2.5252 1.8746 0.2543 0
M  V30 19 H 3.7473 1.2904 -0.8748 0
M  V30 20 H 0.5086 2.9347 -0.0284 0
M  V30 21 H -1.1765 2.472 0.266 0
M  V30 22 H -2.7853 0.7531 -0.9396 0
M  V30 23 H 0.8196 -1.5425 -0.3071 0
M  V30 24 H -4.1243 -1.2588 -0.4633 0
M  V30 25 H -0.5357 -3.5253 0.1658 0
M  V30 26 H -3.0084 -3.4008 0.0894 0
M  V30 END ATOM
M  V30 BEGIN BOND
M  V30 1 1 1 2
M  V30 2 1 1 3
M  V30 3 1 2 4
M  V30 4 1 2 5
M  V30 5 1 3 6
M  V30 6 2 4 7
M  V30 7 1 4 8
M  V30 8 1 5 9
M  V30 9 2 6 10
M  V30 10 1 6 11
M  V30 11 1 7 12
M  V30 12 2 8 13
M  V30 13 2 9 14
M  V30 14 1 9 15
M  V30 15 2 12 16
M  V30 16 1 13 16
M  V30 17 1 2 17
M  V30 18 1 3 18
M  V30 19 1 3 19
M  V30 20 1 5 20
M  V30 21 1 5 21
M  V30 22 1 7 22
M  V30 23 1 8 23
M  V30 24 1 12 24
M  V30 25 1 13 25
M  V30 26 1 16 26
M  V30 END BOND
M  V30 BEGIN COLLECTION
M  V30 MDLV30/STEABS ATOMS=(1 2)
M  V30 END COLLECTION
M  V30 END CTAB
M  END
>  <Structure No>
8169

>  <LogS>
-1.55

>  <MMFF94 Energy>
107.43

$$$$
Compound 8170
Actelion Java MolfileCreator 2.0

  0  0  0  0  0  0              0 V3000
M  V30 BEGIN CTAB
M  V30 COUNTS 33 34 0 0 0
M  V30 BEGIN ATOM
M  V30 1 O 0.159 -2.7069 0.8751 0
M  V30 2 C 0.3107 -1.547 0.402 0
M  V30 3 C 1.6804 -1.0527 0.1112 0
M  V30 4 C -0.8759 -0.7026 0.1351 0
M  V30 5 C 2.6954 -1.9384 -0.3092 0
M  V30 6 C 1.9901 0.3113 0.2741 0
M  V30 7 C -2.1132 -1.0775 0.4914 0
M  V30 8 O 2.4209 -3.2942 -0.4902 0
M  V30 9 C 3.9854 -1.4534 -0.5626 0
M  V30 10 C 3.278 0.7953 0.0189 0
M  V30 11 C -3.3272 -0.2672 0.2251 0
M  V30 12 C 4.277 -0.0982 -0.4035 0
M  V30 13 O 3.5224 2.1648 0.2007 0
M  V30 14 C -4.5776 -0.9096 0.219 0
M  V30 15 C -3.278 1.1268 0.0158 0
M  V30 16 C 4.781 2.7935 -0.0195 0
M  V30 17 C -5.7488 -0.1835 -0.0173 0
M  V30 18 C -4.4531 1.848 -0.2193 0
M  V30 19 C -5.6864 1.1934 -0.2395 0
M  V30 20 H -0.7258 0.2234 -0.4008 0
M  V30 21 H 1.2375 1.0068 0.6238 0
M  V30 22 H -2.2543 -2.0408 0.9678 0
M  V30 23 H 3.1343 -3.9454 -0.796 0
M  V30 24 H 4.7655 -2.1296 -0.8886 0
M  V30 25 H 5.2822 0.2433 -0.6089 0
M  V30 26 H -4.6471 -1.9772 0.3891 0
M  V30 27 H -2.3445 1.6705 0.0563 0
M  V30 28 H 5.0891 2.6699 -1.0791 0
M  V30 29 H 4.6882 3.8769 0.1994 0
M  V30 30 H 5.5482 2.3586 0.6553 0
M  V30 31 H -6.7057 -0.6891 -0.0269 0
M  V30 32 H -4.4078 2.9177 -0.3787 0
M  V30 33 H -6.5942 1.7543 -0.4206 0
M  V30 END ATOM
M  V30 BEGIN BOND
M  V30 1 2 1 2
M  V30 2 1 2 3
M  V30 3 1 2 4
M  V30 4 2 3 5
M  V30 5 1 3 6
M  V30 6 2 4 7
M  V30 7 1 5 8
M  V30 8 1 5 9
M  V30 9 2 6 10
M  V30 10 1 7 11
M  V30 11 2 9 12
M  V30 12 1 10 13
M  V30 13 2 11 14
M  V30 14 1 11 15
M  V30 15 1 13 16
M  V30 16 1 14 17
M  V30 17 2 15 18
M  V30 18 2 17 19
M  V30 19 1 10 12
M  V30 20 1 18 19
M  V30 21 1 4 20
M  V30 22 1 6 21
M  V30 23 1 7 22
M  V30 24 1 8 23
M  V30 25 1 9 24
M  V30 26 1 12 25
M  V30 27 1 14 26
M  V30 28 1 15 27
M  V30 29 1 16 28
M  V30 30 1 16 29
M  V30 31 1 16 30
M  V30 32 1 17 31
M  V30 33 1 18 32
M  V30 34 1 19 33
M  V30 END BOND
M  V30 END CTAB
M  END
>  <Structure No>
8170

>  <LogS>
-6.0

>  <MMFF94 Energy>
59.402

$$$$
Compound 8171
Actelion Java MolfileCreator 2.0

  0  0  0  0  0  0              0 V3000
M  V30 BEGIN CTAB
M  V30 COUNTS 29 30 0 0 0
M  V30 BEGIN ATOM
M  V30 1 S 1.2553 2.7632 -0.3346 0
M  V30 2 O 2.0834 3.6172 -1.2518 0
M  V30 3 O 1.0984 3.465 0.9854 0
M  V30 4 N -0.3107 2.5272 -1.0331 0 CHG=-1
M  V30 5 C 2.055 1.21 -0.1167 0
M  V30 6 C -1.3001 1.7051 -0.4158 0
M  V30 7 C 2.8578 0.9764 1.0082 0
M  V30 8 C 1.8939 0.1996 -1.074 0
M  V30 9 S -2.8195 1.406 -1.0695 0
M  V30 10 N -1.1174 1.0561 0.7546 0
M  V30 11 C 3.4866 -0.2606 1.1784 0
M  V30 12 C 2.5218 -1.0376 -0.9036 0
M  V30 13 C -3.2064 0.4233 0.2463 0
M  V30 14 N -2.1776 0.3379 1.1197 0
M  V30 15 C 3.3207 -1.2741 0.224 0
M  V30 16 C -4.4832 -0.3391 0.3975 0
M  V30 17 N 3.9629 -2.5396 0.3986 0
M  V30 18 C -4.3655 -1.7158 -0.2453 0
M  V30 19 H 2.9977 1.7492 1.7532 0
M  V30 20 H 1.2812 0.3687 -1.9504 0
M  V30 21 H 4.1026 -0.4292 2.0528 0
M  V30 22 H 2.3867 -1.8107 -1.6494 0
M  V30 23 H -4.7205 -0.4541 1.477 0
M  V30 24 H -5.3119 0.2241 -0.0823 0
M  V30 25 H 3.8456 -3.3005 -0.307 0
M  V30 26 H 4.5602 -2.725 1.2351 0
M  V30 27 H -4.1501 -1.6173 -1.3308 0
M  V30 28 H -3.5531 -2.2992 0.2384 0
M  V30 29 H -5.3215 -2.2666 -0.1211 0
M  V30 END ATOM
M  V30 BEGIN BOND
M  V30 1 2 1 2
M  V30 2 2 1 3
M  V30 3 1 1 4
M  V30 4 1 1 5
M  V30 5 1 4 6
M  V30 6 2 5 7
M  V30 7 1 5 8
M  V30 8 1 6 9
M  V30 9 2 6 10
M  V30 10 1 7 11
M  V30 11 2 8 12
M  V30 12 1 9 13
M  V30 13 1 10 14
M  V30 14 2 11 15
M  V30 15 1 13 16
M  V30 16 1 15 17
M  V30 17 1 16 18
M  V30 18 1 12 15
M  V30 19 2 13 14
M  V30 20 1 7 19
M  V30 21 1 8 20
M  V30 22 1 11 21
M  V30 23 1 12 22
M  V30 24 1 16 23
M  V30 25 1 16 24
M  V30 26 1 17 25
M  V30 27 1 17 26
M  V30 28 1 18 27
M  V30 29 1 18 28
M  V30 30 1 18 29
M  V30 END BOND
M  V30 END CTAB
M  END
>  <Structure No>
8171

>  <LogS>
-3.12

>  <MMFF94 Energy>
47.118

$$$$
Compound 8172
Actelion Java MolfileCreator 2.0

  0  0  0  0  0  0              0 V3000
M  V30 BEGIN CTAB
M  V30 COUNTS 38 39 0 0 0
M  V30 BEGIN ATOM
M  V30 1 O 2.0396 -1.713 -0.163 0
M  V30 2 C 2.5654 -0.6204 0.1855 0
M  V30 3 O 1.7957 0.3616 0.8219 0
M  V30 4 C 3.9859 -0.3428 -0.1242 0
M  V30 5 C 0.4008 0.2211 1.0831 0
M  V30 6 C 4.9882 -1.3534 -0.1419 0
M  V30 7 C 4.3343 0.9734 -0.4773 0
M  V30 8 C -0.408 0.4336 -0.1924 0
M  V30 9 C 4.7511 -2.7339 0.341 0
M  V30 10 C 6.2851 -1.0217 -0.5751 0
M  V30 11 C 5.6327 1.2839 -0.8825 0
M  V30 12 O -1.7968 0.3569 0.11 0
M  V30 13 O 3.9461 -2.9585 1.2832 0
M  V30 14 O 5.4688 -3.7942 -0.2002 0 CHG=-1
M  V30 15 C 6.6028 0.2863 -0.9425 0
M  V30 16 C -2.7927 0.5385 -0.8546 0
M  V30 17 O -2.4775 0.7332 -2.0612 0
M  V30 18 C -4.22 0.4459 -0.472 0
M  V30 19 C -4.6993 0.8617 0.8004 0
M  V30 20 C -5.1167 -0.1444 -1.3823 0
M  V30 21 C -3.8607 1.6126 1.7632 0
M  V30 22 C -6.0431 0.6156 1.1397 0
M  V30 23 C -6.4503 -0.3589 -1.0328 0
M  V30 24 O -4.0396 1.4738 3.0024 0
M  V30 25 O -2.9121 2.5249 1.3162 0 CHG=-1
M  V30 26 C -6.9097 0.0096 0.2294 0
M  V30 27 H 0.1034 0.9893 1.8282 0
M  V30 28 H 0.1874 -0.7804 1.5166 0
M  V30 29 H 3.5903 1.761 -0.4709 0
M  V30 30 H -0.1478 -0.3462 -0.9398 0
M  V30 31 H -0.173 1.4352 -0.614 0
M  V30 32 H 7.0667 -1.7712 -0.5998 0
M  V30 33 H 5.8835 2.2988 -1.1632 0
M  V30 34 H 7.6078 0.5291 -1.2625 0
M  V30 35 H -4.7765 -0.4707 -2.3578 0
M  V30 36 H -6.4333 0.9222 2.1029 0
M  V30 37 H -7.1262 -0.8242 -1.7388 0
M  V30 38 H -7.9436 -0.1627 0.4997 0
M  V30 END ATOM
M  V30 BEGIN BOND
M  V30 1 2 1 2
M  V30 2 1 2 3
M  V30 3 1 2 4
M  V30 4 1 3 5
M  V30 5 2 4 6
M  V30 6 1 4 7
M  V30 7 1 5 8
M  V30 8 1 6 9
M  V30 9 1 6 10
M  V30 10 2 7 11
M  V30 11 1 8 12
M  V30 12 2 9 13
M  V30 13 1 9 14
M  V30 14 2 10 15
M  V30 15 1 12 16
M  V30 16 2 16 17
M  V30 17 1 16 18
M  V30 18 2 18 19
M  V30 19 1 18 20
M  V30 20 1 19 21
M  V30 21 1 19 22
M  V30 22 2 20 23
M  V30 23 2 21 24
M  V30 24 1 21 25
M  V30 25 2 22 26
M  V30 26 1 11 15
M  V30 27 1 23 26
M  V30 28 1 5 27
M  V30 29 1 5 28
M  V30 30 1 7 29
M  V30 31 1 8 30
M  V30 32 1 8 31
M  V30 33 1 10 32
M  V30 34 1 11 33
M  V30 35 1 15 34
M  V30 36 1 20 35
M  V30 37 1 22 36
M  V30 38 1 23 37
M  V30 39 1 26 38
M  V30 END BOND
M  V30 END CTAB
M  END
>  <Structure No>
8172

>  <LogS>
-2.83

>  <MMFF94 Energy>
104.99

$$$$
Compound 8173
Actelion Java MolfileCreator 2.0

  0  0  0  0  0  0              0 V3000
M  V30 BEGIN CTAB
M  V30 COUNTS 26 27 0 0 0
M  V30 BEGIN ATOM
M  V30 1 O -2.9316 -2.85 -0.8136 0
M  V30 2 N -1.7816 -2.7559 -0.3385 0 CHG=1
M  V30 3 O -1.1633 -3.899 0.1138 0 CHG=-1
M  V30 4 C -1.107 -1.4833 -0.2603 0
M  V30 5 C -1.7 -0.2906 -0.71 0
M  V30 6 C 0.1938 -1.401 0.2811 0
M  V30 7 C -1.0286 0.9075 -0.6209 0
M  V30 8 C -3.0591 -0.0701 -1.3261 0
M  V30 9 C 0.8866 -0.1643 0.3728 0
M  V30 10 C 0.2572 1.0227 -0.0913 0
M  V30 11 C -1.9046 1.9187 -1.1614 0
M  V30 12 O -3.0928 1.3374 -1.5725 0
M  V30 13 O 2.1802 -0.1012 0.9144 0
M  V30 14 O 0.8412 2.3022 -0.053 0
M  V30 15 O -1.6506 3.148 -1.2556 0
M  V30 16 C 2.9138 -1.2159 1.4113 0
M  V30 17 C 2.1347 2.622 0.4461 0
M  V30 18 H 0.6672 -2.3062 0.6323 0
M  V30 19 H -3.1532 -0.6236 -2.284 0
M  V30 20 H -3.8653 -0.3485 -0.615 0
M  V30 21 H 3.9012 -0.8654 1.7748 0
M  V30 22 H 3.0773 -1.9577 0.6012 0
M  V30 23 H 2.3701 -1.6844 2.2587 0
M  V30 24 H 2.3011 3.7133 0.3372 0
M  V30 25 H 2.2048 2.3664 1.5243 0
M  V30 26 H 2.9148 2.0921 -0.1396 0
M  V30 END ATOM
M  V30 BEGIN BOND
M  V30 1 2 1 2
M  V30 2 1 2 3
M  V30 3 1 2 4
M  V30 4 2 4 5
M  V30 5 1 4 6
M  V30 6 1 5 7
M  V30 7 1 5 8
M  V30 8 2 6 9
M  V30 9 2 7 10
M  V30 10 1 7 11
M  V30 11 1 8 12
M  V30 12 1 9 13
M  V30 13 1 10 14
M  V30 14 2 11 15
M  V30 15 1 13 16
M  V30 16 1 14 17
M  V30 17 1 9 10
M  V30 18 1 11 12
M  V30 19 1 6 18
M  V30 20 1 8 19
M  V30 21 1 8 20
M  V30 22 1 16 21
M  V30 23 1 16 22
M  V30 24 1 16 23
M  V30 25 1 17 24
M  V30 26 1 17 25
M  V30 27 1 17 26
M  V30 END BOND
M  V30 END CTAB
M  END
>  <Structure No>
8173

>  <LogS>
-3.21

>  <MMFF94 Energy>
56.816

$$$$
Compound 8174
Actelion Java MolfileCreator 2.0

  0  0  0  0  0  0              0 V3000
M  V30 BEGIN CTAB
M  V30 COUNTS 27 27 0 0 0
M  V30 BEGIN ATOM
M  V30 1 O -4.5588 -0.2354 -0.7848 0
M  V30 2 C -3.3047 -0.1276 -0.7373 0
M  V30 3 C -2.5134 -1.2985 -0.3001 0
M  V30 4 C -2.6789 1.1639 -1.1719 0
M  V30 5 C -1.3075 -1.2438 0.2925 0
M  V30 6 N -0.7476 0.0028 0.7357 0
M  V30 7 C -0.6045 -2.5294 0.6284 0
M  V30 8 C 0.6193 0.3879 0.5079 0
M  V30 9 C 1.1963 1.3889 1.3047 0
M  V30 10 C 1.379 -0.1841 -0.5293 0
M  V30 11 C 2.5172 1.7931 1.0884 0
M  V30 12 C 2.6996 0.2219 -0.7438 0
M  V30 13 C 3.2728 1.2105 0.0665 0
M  V30 14 O 4.5879 1.6224 -0.1373 0
M  V30 15 H -2.9559 -2.2717 -0.4813 0
M  V30 16 H -1.6658 0.9879 -1.5908 0
M  V30 17 H -3.2981 1.6347 -1.9646 0
M  V30 18 H -2.6172 1.8632 -0.3129 0
M  V30 19 H -1.3569 0.6351 1.303 0
M  V30 20 H -1.2515 -3.1558 1.2788 0
M  V30 21 H -0.3731 -3.0873 -0.3033 0
M  V30 22 H 0.3434 -2.3331 1.1714 0
M  V30 23 H 0.6235 1.8516 2.0987 0
M  V30 24 H 0.9498 -0.9325 -1.1823 0
M  V30 25 H 2.9533 2.5611 1.7146 0
M  V30 26 H 3.274 -0.2278 -1.5437 0
M  V30 27 H 5.1609 1.2203 -0.8701 0
M  V30 END ATOM
M  V30 BEGIN BOND
M  V30 1 2 1 2
M  V30 2 1 2 3
M  V30 3 1 2 4
M  V30 4 2 3 5
M  V30 5 1 5 6
M  V30 6 1 5 7
M  V30 7 1 6 8
M  V30 8 2 8 9
M  V30 9 1 8 10
M  V30 10 1 9 11
M  V30 11 2 10 12
M  V30 12 2 11 13
M  V30 13 1 13 14
M  V30 14 1 12 13
M  V30 15 1 3 15
M  V30 16 1 4 16
M  V30 17 1 4 17
M  V30 18 1 4 18
M  V30 19 1 6 19
M  V30 20 1 7 20
M  V30 21 1 7 21
M  V30 22 1 7 22
M  V30 23 1 9 23
M  V30 24 1 10 24
M  V30 25 1 11 25
M  V30 26 1 12 26
M  V30 27 1 14 27
M  V30 END BOND
M  V30 END CTAB
M  END
>  <Structure No>
8174

>  <LogS>
-3.59

>  <MMFF94 Energy>
17.554

$$$$
Compound 8175
Actelion Java MolfileCreator 2.0

  0  0  0  0  0  0              0 V3000
M  V30 BEGIN CTAB
M  V30 COUNTS 38 39 0 0 0
M  V30 BEGIN ATOM
M  V30 1 O 0.0 -2.3965 0.7185 0
M  V30 2 C -0.0909 -1.1604 0.4904 0
M  V30 3 N 1.0186 -0.3076 0.2483 0
M  V30 4 C -1.3709 -0.4045 0.2931 0
M  V30 5 N 0.5197 0.9363 -0.1413 0
M  V30 6 C 2.4195 -0.6322 0.2806 0
M  V30 7 C -0.7779 0.9232 -0.1288 0
M  V30 8 C -2.1391 -0.2092 1.6261 0
M  V30 9 C -2.2551 -1.0164 -0.8277 0
M  V30 10 C 2.9097 -1.6595 1.1081 0
M  V30 11 C 3.3264 0.1049 -0.5007 0
M  V30 12 O -1.5647 2.0302 -0.476 0
M  V30 13 C -2.7209 -1.4946 2.2212 0
M  V30 14 C -1.5776 -1.0817 -2.2023 0
M  V30 15 C 4.2765 -1.9547 1.1333 0
M  V30 16 C 4.6918 -0.1944 -0.473 0
M  V30 17 C -1.0669 3.2749 -0.8832 0
M  V30 18 C 5.1663 -1.2253 0.3412 0
M  V30 19 O 0.1724 3.5007 -0.9342 0
M  V30 20 C -2.0248 4.3681 -1.2151 0
M  V30 21 H -1.4614 0.2462 2.3831 0
M  V30 22 H -2.9757 0.506 1.465 0
M  V30 23 H -2.5455 -2.0518 -0.5489 0
M  V30 24 H -3.1887 -0.4203 -0.9259 0
M  V30 25 H 2.2471 -2.2172 1.7547 0
M  V30 26 H 2.9757 0.9046 -1.1405 0
M  V30 27 H -3.4994 -1.9226 1.557 0
M  V30 28 H -3.1991 -1.2604 3.1959 0
M  V30 29 H -1.9267 -2.2467 2.402 0
M  V30 30 H -2.2621 -1.5712 -2.9266 0
M  V30 31 H -1.3489 -0.0627 -2.5788 0
M  V30 32 H -0.6409 -1.6755 -2.1521 0
M  V30 33 H 4.6469 -2.7449 1.7734 0
M  V30 34 H 5.3823 0.3733 -1.0832 0
M  V30 35 H 6.2238 -1.455 0.363 0
M  V30 36 H -3.0061 3.9374 -1.5053 0
M  V30 37 H -1.635 4.9732 -2.0608 0
M  V30 38 H -2.1617 5.0217 -0.3286 0
M  V30 END ATOM
M  V30 BEGIN BOND
M  V30 1 2 1 2
M  V30 2 1 2 3
M  V30 3 1 2 4
M  V30 4 1 3 5
M  V30 5 1 3 6
M  V30 6 1 4 7
M  V30 7 1 4 8
M  V30 8 1 4 9
M  V30 9 2 6 10
M  V30 10 1 6 11
M  V30 11 1 7 12
M  V30 12 1 8 13
M  V30 13 1 9 14
M  V30 14 1 10 15
M  V30 15 2 11 16
M  V30 16 1 12 17
M  V30 17 2 15 18
M  V30 18 2 17 19
M  V30 19 1 17 20
M  V30 20 2 5 7
M  V30 21 1 16 18
M  V30 22 1 8 21
M  V30 23 1 8 22
M  V30 24 1 9 23
M  V30 25 1 9 24
M  V30 26 1 10 25
M  V30 27 1 11 26
M  V30 28 1 13 27
M  V30 29 1 13 28
M  V30 30 1 13 29
M  V30 31 1 14 30
M  V30 32 1 14 31
M  V30 33 1 14 32
M  V30 34 1 15 33
M  V30 35 1 16 34
M  V30 36 1 18 35
M  V30 37 1 20 36
M  V30 38 1 20 37
M  V30 39 1 20 38
M  V30 END BOND
M  V30 END CTAB
M  END
>  <Structure No>
8175

>  <LogS>
-3.54

>  <MMFF94 Energy>
30.173

$$$$
Compound 8176
Actelion Java MolfileCreator 2.0

  0  0  0  0  0  0              0 V3000
M  V30 BEGIN CTAB
M  V30 COUNTS 24 24 0 0 0
M  V30 BEGIN ATOM
M  V30 1 O 2.7799 1.1112 -1.5083 0
M  V30 2 C 2.3191 0.4686 -0.5242 0
M  V30 3 O 3.1926 -0.1214 0.3961 0
M  V30 4 C 0.8557 0.3376 -0.3412 0
M  V30 5 C 4.6074 -0.0326 0.2779 0
M  V30 6 C -0.0354 0.9223 -1.2535 0
M  V30 7 C 0.3391 -0.3754 0.7508 0
M  V30 8 C -1.4194 0.7975 -1.0788 0
M  V30 9 C -1.0452 -0.5077 0.9367 0
M  V30 10 O -2.2935 1.3839 -1.9935 0
M  V30 11 C -1.9398 0.0851 0.012 0
M  V30 12 O -1.5126 -1.2254 2.0364 0
M  V30 13 O -3.3412 0.0054 0.1165 0
M  V30 14 C -4.0728 -0.6633 1.1378 0
M  V30 15 H 4.926 1.0308 0.3125 0
M  V30 16 H 5.0785 -0.5767 1.1222 0
M  V30 17 H 4.9388 -0.4933 -0.6767 0
M  V30 18 H 0.3393 1.4779 -2.1044 0
M  V30 19 H 1.0104 -0.8342 1.4663 0
M  V30 20 H -1.9546 1.906 -2.7933 0
M  V30 21 H -0.8813 -1.6533 2.7039 0
M  V30 22 H -5.1575 -0.5434 0.939 0
M  V30 23 H -3.8369 -1.7483 1.132 0
M  V30 24 H -3.8497 -0.2136 2.1281 0
M  V30 END ATOM
M  V30 BEGIN BOND
M  V30 1 2 1 2
M  V30 2 1 2 3
M  V30 3 1 2 4
M  V30 4 1 3 5
M  V30 5 2 4 6
M  V30 6 1 4 7
M  V30 7 1 6 8
M  V30 8 2 7 9
M  V30 9 1 8 10
M  V30 10 2 8 11
M  V30 11 1 9 12
M  V30 12 1 11 13
M  V30 13 1 13 14
M  V30 14 1 9 11
M  V30 15 1 5 15
M  V30 16 1 5 16
M  V30 17 1 5 17
M  V30 18 1 6 18
M  V30 19 1 7 19
M  V30 20 1 10 20
M  V30 21 1 12 21
M  V30 22 1 14 22
M  V30 23 1 14 23
M  V30 24 1 14 24
M  V30 END BOND
M  V30 END CTAB
M  END
>  <Structure No>
8176

>  <LogS>
-1.6

>  <MMFF94 Energy>
25.542

$$$$
Compound 8177
Actelion Java MolfileCreator 2.0

  0  0  0  0  0  0              0 V3000
M  V30 BEGIN CTAB
M  V30 COUNTS 24 25 0 0 0
M  V30 BEGIN ATOM
M  V30 1 S -2.5814 -1.1652 0.1664 0
M  V30 2 O -3.7916 -0.4347 0.6768 0
M  V30 3 O -2.229 -2.2076 1.1903 0
M  V30 4 O -2.9559 -1.9114 -1.2907 0 CHG=-1
M  V30 5 C -1.2093 -0.0463 -0.0736 0
M  V30 6 C -1.4501 1.3377 -0.2498 0
M  V30 7 C 0.138 -0.5078 -0.0071 0
M  V30 8 N -2.7535 1.8461 -0.5619 0
M  V30 9 C -0.39 2.2426 -0.174 0
M  V30 10 C 1.2099 0.4317 0.0809 0
M  V30 11 C 0.4499 -1.8834 -0.0613 0
M  V30 12 C 0.9149 1.8045 0.0141 0
M  V30 13 C 2.5463 -0.0385 0.2096 0
M  V30 14 C 1.7661 -2.3241 0.0388 0
M  V30 15 O 3.6491 0.8081 0.3627 0
M  V30 16 C 2.8021 -1.4106 0.1873 0
M  V30 17 H -2.9504 2.8702 -0.5027 0
M  V30 18 H -3.4665 1.2538 -1.0401 0
M  V30 19 H -0.5753 3.3041 -0.285 0
M  V30 20 H -0.307 -2.6347 -0.2264 0
M  V30 21 H 1.6794 2.5631 0.0511 0
M  V30 22 H 1.985 -3.3833 -0.0037 0
M  V30 23 H 3.5963 1.8105 0.4669 0
M  V30 24 H 3.8193 -1.7713 0.2748 0
M  V30 END ATOM
M  V30 BEGIN BOND
M  V30 1 2 1 2
M  V30 2 2 1 3
M  V30 3 1 1 4
M  V30 4 1 1 5
M  V30 5 2 5 6
M  V30 6 1 5 7
M  V30 7 1 6 8
M  V30 8 1 6 9
M  V30 9 1 7 10
M  V30 10 2 7 11
M  V30 11 2 9 12
M  V30 12 2 10 13
M  V30 13 1 11 14
M  V30 14 1 13 15
M  V30 15 1 13 16
M  V30 16 1 10 12
M  V30 17 2 14 16
M  V30 18 1 8 17
M  V30 19 1 8 18
M  V30 20 1 9 19
M  V30 21 1 11 20
M  V30 22 1 12 21
M  V30 23 1 14 22
M  V30 24 1 15 23
M  V30 25 1 16 24
M  V30 END BOND
M  V30 END CTAB
M  END
>  <Structure No>
8177

>  <LogS>
-2.06

>  <MMFF94 Energy>
72.111

$$$$
Compound 8178
Actelion Java MolfileCreator 2.0

  0  0  0  0  0  0              0 V3000
M  V30 BEGIN CTAB
M  V30 COUNTS 23 24 0 0 0
M  V30 BEGIN ATOM
M  V30 1 S -1.0809 2.6623 0.4988 0
M  V30 2 O -2.4264 3.3284 0.5762 0
M  V30 3 O -0.264 3.3462 -0.561 0
M  V30 4 O -0.3222 2.816 1.99 0 CHG=-1
M  V30 5 C -1.2593 0.9449 0.097 0
M  V30 6 C -0.1445 0.0699 -0.0092 0
M  V30 7 C -2.552 0.4407 -0.1211 0
M  V30 8 C -0.3641 -1.2969 -0.3317 0
M  V30 9 C 1.1812 0.5104 0.1939 0
M  V30 10 C -2.7519 -0.9019 -0.4372 0
M  V30 11 C 0.7223 -2.1774 -0.4407 0
M  V30 12 C -1.6668 -1.7683 -0.5422 0
M  V30 13 C 2.2589 -0.3788 0.0821 0
M  V30 14 C 2.0235 -1.7203 -0.2348 0
M  V30 15 N 3.5965 0.0832 0.2913 0
M  V30 16 H -3.4164 1.0873 -0.047 0
M  V30 17 H 1.3981 1.54 0.4386 0
M  V30 18 H -3.7554 -1.2732 -0.6017 0
M  V30 19 H 0.565 -3.2212 -0.6859 0
M  V30 20 H -1.846 -2.8082 -0.7888 0
M  V30 21 H 2.8506 -2.4136 -0.3228 0
M  V30 22 H 4.407 -0.5704 0.2105 0
M  V30 23 H 3.787 1.0824 0.5286 0
M  V30 END ATOM
M  V30 BEGIN BOND
M  V30 1 2 1 2
M  V30 2 2 1 3
M  V30 3 1 1 4
M  V30 4 1 1 5
M  V30 5 1 5 6
M  V30 6 2 5 7
M  V30 7 1 6 8
M  V30 8 2 6 9
M  V30 9 1 7 10
M  V30 10 2 8 11
M  V30 11 1 8 12
M  V30 12 1 9 13
M  V30 13 1 11 14
M  V30 14 1 13 15
M  V30 15 2 10 12
M  V30 16 2 13 14
M  V30 17 1 7 16
M  V30 18 1 9 17
M  V30 19 1 10 18
M  V30 20 1 11 19
M  V30 21 1 12 20
M  V30 22 1 14 21
M  V30 23 1 15 22
M  V30 24 1 15 23
M  V30 END BOND
M  V30 END CTAB
M  END
>  <Structure No>
8178

>  <LogS>
-2.54

>  <MMFF94 Energy>
50.413

$$$$
Compound 8179
Actelion Java MolfileCreator 2.0

  0  0  0  0  0  0              0 V3000
M  V30 BEGIN CTAB
M  V30 COUNTS 28 28 0 0 0
M  V30 BEGIN ATOM
M  V30 1 O -2.5532 -3.3521 -0.1594 0
M  V30 2 C -2.3424 -2.5218 0.7645 0
M  V30 3 O -2.9693 -2.6912 1.9927 0 CHG=-1
M  V30 4 C -1.4139 -1.3606 0.5498 0 CFG=2
M  V30 5 N -1.882 -0.5584 -0.5853 0
M  V30 6 C 0.019 -1.8611 0.2982 0
M  V30 7 C -1.9006 0.8766 -0.5699 0
M  V30 8 C 0.9892 -0.7128 0.1898 0
M  V30 9 O -1.6088 1.5113 0.4795 0
M  V30 10 C -2.2187 1.6295 -1.8198 0
M  V30 11 C 1.5031 -0.1101 1.3494 0
M  V30 12 C 1.3386 -0.1938 -1.0678 0
M  V30 13 C 2.3658 0.9857 1.2513 0
M  V30 14 C 2.1999 0.903 -1.1633 0
M  V30 15 C 2.7166 1.4952 -0.0029 0
M  V30 16 O 3.5749 2.5891 -0.0856 0
M  V30 17 H -1.4195 -0.751 1.4805 0
M  V30 18 H -2.0719 -1.0426 -1.4926 0
M  V30 19 H 0.0492 -2.4741 -0.6299 0
M  V30 20 H 0.3329 -2.5237 1.135 0
M  V30 21 H -2.4368 2.6938 -1.5886 0
M  V30 22 H -3.1067 1.1822 -2.313 0
M  V30 23 H -1.3515 1.578 -2.5104 0
M  V30 24 H 1.2306 -0.4854 2.3281 0
M  V30 25 H 0.9362 -0.6318 -1.9729 0
M  V30 26 H 2.758 1.4427 2.1509 0
M  V30 27 H 2.4609 1.2946 -2.1381 0
M  V30 28 H 3.8471 2.9821 -0.979 0
M  V30 END ATOM
M  V30 BEGIN BOND
M  V30 1 2 1 2
M  V30 2 1 2 3
M  V30 3 1 2 4
M  V30 4 1 4 5
M  V30 5 1 4 6
M  V30 6 1 5 7
M  V30 7 1 6 8
M  V30 8 2 7 9
M  V30 9 1 7 10
M  V30 10 2 8 11
M  V30 11 1 8 12
M  V30 12 1 11 13
M  V30 13 2 12 14
M  V30 14 2 13 15
M  V30 15 1 15 16
M  V30 16 1 14 15
M  V30 17 1 4 17
M  V30 18 1 5 18
M  V30 19 1 6 19
M  V30 20 1 6 20
M  V30 21 1 10 21
M  V30 22 1 10 22
M  V30 23 1 10 23
M  V30 24 1 11 24
M  V30 25 1 12 25
M  V30 26 1 13 26
M  V30 27 1 14 27
M  V30 28 1 16 28
M  V30 END BOND
M  V30 BEGIN COLLECTION
M  V30 MDLV30/STEABS ATOMS=(1 4)
M  V30 END COLLECTION
M  V30 END CTAB
M  END
>  <Structure No>
8179

>  <LogS>
0.01

>  <MMFF94 Energy>
42.561

$$$$
Compound 8180
Actelion Java MolfileCreator 2.0

  0  0  0  0  0  0              0 V3000
M  V30 BEGIN CTAB
M  V30 COUNTS 31 31 0 0 0
M  V30 BEGIN ATOM
M  V30 1 O 0.4744 -2.4533 -1.8989 0
M  V30 2 C -0.1239 -1.3461 -1.8554 0
M  V30 3 O -0.3969 -0.6686 -3.038 0 CHG=-1
M  V30 4 C -0.5344 -0.7599 -0.5311 0 CFG=2
M  V30 5 N -1.99 -0.5958 -0.4935 0
M  V30 6 C 0.1463 0.599 -0.2886 0
M  V30 7 C -2.7312 -0.604 0.7352 0
M  V30 8 C 1.6414 0.4579 -0.1513 0
M  V30 9 O -2.1485 -0.8233 1.8318 0
M  V30 10 C -4.2002 -0.2988 0.729 0
M  V30 11 C 2.202 0.0429 1.0676 0
M  V30 12 C 2.4833 0.6964 -1.2501 0
M  V30 13 N -4.4253 1.1454 0.7307 0 CHG=1
M  V30 14 C 3.5858 -0.1163 1.1894 0
M  V30 15 C 3.8667 0.5361 -1.1259 0
M  V30 16 C 4.4218 0.1307 0.0922 0
M  V30 17 O 5.8018 -0.025 0.2012 0
M  V30 18 H -0.2278 -1.4665 0.2734 0
M  V30 19 H -2.4948 -0.3337 -1.3712 0
M  V30 20 H -0.2571 1.0499 0.6445 0
M  V30 21 H -0.1041 1.3029 -1.1133 0
M  V30 22 H -4.6687 -0.75 -0.173 0
M  V30 23 H -4.6812 -0.7526 1.6239 0
M  V30 24 H 1.5668 -0.1587 1.9215 0
M  V30 25 H 2.0688 1.0033 -2.2023 0
M  V30 26 H -5.4543 1.3314 0.7296 0
M  V30 27 H -4.0022 1.5761 -0.1236 0
M  V30 28 H -4.0039 1.5729 1.5876 0
M  V30 29 H 4.0063 -0.4344 2.1349 0
M  V30 30 H 4.5076 0.7242 -1.9778 0
M  V30 31 H 6.2344 -0.318 1.0696 0
M  V30 END ATOM
M  V30 BEGIN BOND
M  V30 1 2 1 2
M  V30 2 1 2 3
M  V30 3 1 2 4
M  V30 4 1 4 5
M  V30 5 1 4 6
M  V30 6 1 5 7
M  V30 7 1 6 8
M  V30 8 2 7 9
M  V30 9 1 7 10
M  V30 10 2 8 11
M  V30 11 1 8 12
M  V30 12 1 10 13
M  V30 13 1 11 14
M  V30 14 2 12 15
M  V30 15 2 14 16
M  V30 16 1 16 17
M  V30 17 1 15 16
M  V30 18 1 4 18
M  V30 19 1 5 19
M  V30 20 1 6 20
M  V30 21 1 6 21
M  V30 22 1 10 22
M  V30 23 1 10 23
M  V30 24 1 11 24
M  V30 25 1 12 25
M  V30 26 1 13 26
M  V30 27 1 13 27
M  V30 28 1 13 28
M  V30 29 1 14 29
M  V30 30 1 15 30
M  V30 31 1 17 31
M  V30 END BOND
M  V30 BEGIN COLLECTION
M  V30 MDLV30/STEABS ATOMS=(1 4)
M  V30 END COLLECTION
M  V30 END CTAB
M  END
>  <Structure No>
8180

>  <LogS>
-0.73

>  <MMFF94 Energy>
-7.945

$$$$
Compound 8181
Actelion Java MolfileCreator 2.0

  0  0  0  0  0  0              0 V3000
M  V30 BEGIN CTAB
M  V30 COUNTS 27 27 0 0 0
M  V30 BEGIN ATOM
M  V30 1 O 1.9632 -1.0205 1.7275 0
M  V30 2 C 2.6325 -1.2992 0.6966 0
M  V30 3 C 2.1039 -1.0303 -0.659 0
M  V30 4 C 3.9452 -1.9976 0.8484 0
M  V30 5 C 1.0413 -0.2515 -0.932 0
M  V30 6 N 0.3889 0.5162 0.0943 0
M  V30 7 C 0.5845 -0.1217 -2.3589 0
M  V30 8 C -1.0415 0.6281 0.2128 0
M  V30 9 C -1.6107 1.7537 0.8401 0
M  V30 10 C -1.8861 -0.3978 -0.2523 0
M  V30 11 O -0.7918 2.775 1.3202 0
M  V30 12 C -3.0038 1.8515 0.9746 0
M  V30 13 C -3.2725 -0.2904 -0.1152 0
M  V30 14 C -3.8308 0.8336 0.4953 0
M  V30 15 H 2.6078 -1.5226 -1.4836 0
M  V30 16 H 4.6865 -1.5732 0.1389 0
M  V30 17 H 4.3333 -1.8729 1.8816 0
M  V30 18 H 3.8155 -3.0797 0.6383 0
M  V30 19 H 0.9911 1.0768 0.7386 0
M  V30 20 H 1.4381 0.1692 -3.0075 0
M  V30 21 H -0.1994 0.6583 -2.4538 0
M  V30 22 H 0.1722 -1.0904 -2.7116 0
M  V30 23 H -1.4739 -1.2889 -0.7067 0
M  V30 24 H -1.1766 3.596 1.7728 0
M  V30 25 H -3.4459 2.7172 1.4511 0
M  V30 26 H -3.9144 -1.0833 -0.4768 0
M  V30 27 H -4.9049 0.9137 0.602 0
M  V30 END ATOM
M  V30 BEGIN BOND
M  V30 1 2 1 2
M  V30 2 1 2 3
M  V30 3 1 2 4
M  V30 4 2 3 5
M  V30 5 1 5 6
M  V30 6 1 5 7
M  V30 7 1 6 8
M  V30 8 2 8 9
M  V30 9 1 8 10
M  V30 10 1 9 11
M  V30 11 1 9 12
M  V30 12 2 10 13
M  V30 13 2 12 14
M  V30 14 1 13 14
M  V30 15 1 3 15
M  V30 16 1 4 16
M  V30 17 1 4 17
M  V30 18 1 4 18
M  V30 19 1 6 19
M  V30 20 1 7 20
M  V30 21 1 7 21
M  V30 22 1 7 22
M  V30 23 1 10 23
M  V30 24 1 11 24
M  V30 25 1 12 25
M  V30 26 1 13 26
M  V30 27 1 14 27
M  V30 END BOND
M  V30 END CTAB
M  END
>  <Structure No>
8181

>  <LogS>
-3.55

>  <MMFF94 Energy>
35.712

$$$$
Compound 8182
Actelion Java MolfileCreator 2.0

  0  0  0  0  0  0              0 V3000
M  V30 BEGIN CTAB
M  V30 COUNTS 28 29 0 0 0
M  V30 BEGIN ATOM
M  V30 1 O -1.9002 0.6331 -1.9795 0
M  V30 2 C -2.5984 0.2995 -0.8194 0
M  V30 3 C -1.9133 -0.1563 0.3308 0
M  V30 4 C -3.999 0.387 -0.8044 0
M  V30 5 N -0.4824 -0.2708 0.3837 0
M  V30 6 C -2.6515 -0.5747 1.4466 0
M  V30 7 C -4.7186 -0.003 0.3272 0
M  V30 8 C 0.3545 0.5536 -0.1685 0
M  V30 9 C -4.0461 -0.4908 1.4486 0
M  V30 10 C 1.8141 0.3693 -0.0221 0
M  V30 11 C 2.4335 -0.9058 0.0651 0
M  V30 12 C 2.6117 1.5237 0.0612 0
M  V30 13 N 1.7022 -2.1225 -0.1385 0
M  V30 14 C 3.8164 -0.9844 0.2976 0
M  V30 15 C 3.9878 1.4256 0.2748 0
M  V30 16 C 4.5873 0.174 0.4038 0
M  V30 17 H -2.3773 0.9522 -2.8145 0
M  V30 18 H -4.5321 0.7432 -1.6767 0
M  V30 19 H -2.1404 -0.9527 2.3233 0
M  V30 20 H -5.7991 0.0616 0.3303 0
M  V30 21 H -0.0053 1.4677 -0.6256 0
M  V30 22 H -4.6055 -0.8039 2.3206 0
M  V30 23 H 2.1633 2.5073 -0.0139 0
M  V30 24 H 2.1496 -3.0457 0.0574 0
M  V30 25 H 0.7767 -2.1373 -0.6183 0
M  V30 26 H 4.3025 -1.9491 0.372 0
M  V30 27 H 4.5887 2.3228 0.3495 0
M  V30 28 H 5.6537 0.1005 0.5736 0
M  V30 END ATOM
M  V30 BEGIN BOND
M  V30 1 1 1 2
M  V30 2 2 2 3
M  V30 3 1 2 4
M  V30 4 1 3 5
M  V30 5 1 3 6
M  V30 6 2 4 7
M  V30 7 2 5 8
M  V30 8 2 6 9
M  V30 9 1 8 10
M  V30 10 2 10 11
M  V30 11 1 10 12
M  V30 12 1 11 13
M  V30 13 1 11 14
M  V30 14 2 12 15
M  V30 15 2 14 16
M  V30 16 1 7 9
M  V30 17 1 15 16
M  V30 18 1 1 17
M  V30 19 1 4 18
M  V30 20 1 6 19
M  V30 21 1 7 20
M  V30 22 1 8 21
M  V30 23 1 9 22
M  V30 24 1 12 23
M  V30 25 1 13 24
M  V30 26 1 13 25
M  V30 27 1 14 26
M  V30 28 1 15 27
M  V30 29 1 16 28
M  V30 END BOND
M  V30 END CTAB
M  END
>  <Structure No>
8182

>  <LogS>
-3.64

>  <MMFF94 Energy>
54.239

$$$$
Compound 8183
Actelion Java MolfileCreator 2.0

  0  0  0  0  0  0              0 V3000
M  V30 BEGIN CTAB
M  V30 COUNTS 21 21 0 0 0
M  V30 BEGIN ATOM
M  V30 1 S 1.9228 -1.3373 -0.5013 0
M  V30 2 O 1.7943 -2.5406 -1.3918 0
M  V30 3 O 2.6199 -1.7616 0.7623 0
M  V30 4 O 2.8392 -0.1592 -1.3046 0
M  V30 5 C 0.3068 -0.7325 -0.1393 0
M  V30 6 C 2.9972 0.9438 -0.4484 0
M  V30 7 C -0.052 -0.3947 1.1719 0
M  V30 8 C -0.6207 -0.565 -1.1739 0
M  V30 9 C -1.3309 0.0978 1.4473 0
M  V30 10 C -1.9005 -0.0729 -0.9014 0
M  V30 11 C -2.2695 0.2629 0.4127 0
M  V30 12 C -3.6243 0.7841 0.6985 0
M  V30 13 O -3.9593 1.0876 1.8745 0
M  V30 14 O -4.5474 0.9466 -0.3279 0 CHG=-1
M  V30 15 H 3.5237 0.6576 0.4878 0
M  V30 16 H 2.0183 1.4173 -0.2193 0
M  V30 17 H 3.6213 1.7026 -0.9628 0
M  V30 18 H 0.6569 -0.5071 1.9818 0
M  V30 19 H -0.352 -0.8135 -2.1928 0
M  V30 20 H -1.5838 0.351 2.4694 0
M  V30 21 H -2.5989 0.0457 -1.72 0
M  V30 END ATOM
M  V30 BEGIN BOND
M  V30 1 2 1 2
M  V30 2 2 1 3
M  V30 3 1 1 4
M  V30 4 1 1 5
M  V30 5 1 4 6
M  V30 6 2 5 7
M  V30 7 1 5 8
M  V30 8 1 7 9
M  V30 9 2 8 10
M  V30 10 2 9 11
M  V30 11 1 11 12
M  V30 12 2 12 13
M  V30 13 1 12 14
M  V30 14 1 10 11
M  V30 15 1 6 15
M  V30 16 1 6 16
M  V30 17 1 6 17
M  V30 18 1 7 18
M  V30 19 1 8 19
M  V30 20 1 9 20
M  V30 21 1 10 21
M  V30 END BOND
M  V30 END CTAB
M  END
>  <Structure No>
8183

>  <LogS>
-3.05

>  <MMFF94 Energy>
34.871

$$$$
Compound 8184
Actelion Java MolfileCreator 2.0

  0  0  0  0  0  0              0 V3000
M  V30 BEGIN CTAB
M  V30 COUNTS 34 35 0 0 0
M  V30 BEGIN ATOM
M  V30 1 O -2.1402 2.3782 0.9507 0
M  V30 2 C -1.8859 1.3068 0.3346 0
M  V30 3 O -0.6498 1.1323 -0.3005 0
M  V30 4 C -2.9218 0.2593 0.2311 0
M  V30 5 C 0.4202 2.0691 -0.2 0
M  V30 6 C -2.6039 -1.1199 0.2938 0
M  V30 7 C -4.2575 0.6467 0.022 0
M  V30 8 C 1.0803 1.9585 1.1459 0
M  V30 9 N -1.2857 -1.5734 0.627 0
M  V30 10 C -3.6162 -2.0713 0.0904 0
M  V30 11 C -5.2552 -0.3126 -0.162 0
M  V30 12 C 2.202 1.2686 1.4035 0
M  V30 13 C -4.9334 -1.6691 -0.1378 0
M  V30 14 C 2.9771 0.4862 0.4149 0
M  V30 15 C 4.3751 0.6152 0.3943 0
M  V30 16 C 2.3637 -0.4455 -0.4422 0
M  V30 17 C 5.1422 -0.1371 -0.5004 0
M  V30 18 C 3.1339 -1.1965 -1.3354 0
M  V30 19 C 4.5215 -1.0389 -1.3681 0
M  V30 20 H 1.1443 1.8938 -1.0215 0
M  V30 21 H 0.0341 3.1021 -0.3373 0
M  V30 22 H -4.5249 1.6954 -0.026 0
M  V30 23 H 0.6171 2.4947 1.9652 0
M  V30 24 H -0.588 -0.9414 1.0759 0
M  V30 25 H -1.0396 -2.5858 0.5552 0
M  V30 26 H -3.3872 -3.1287 0.133 0
M  V30 27 H -6.2781 -0.003 -0.3334 0
M  V30 28 H 2.6181 1.3513 2.4005 0
M  V30 29 H -5.7077 -2.411 -0.2847 0
M  V30 30 H 4.8712 1.3066 1.0648 0
M  V30 31 H 1.2967 -0.6077 -0.4119 0
M  V30 32 H 6.2183 -0.0234 -0.5184 0
M  V30 33 H 2.6552 -1.9076 -1.9961 0
M  V30 34 H 5.1164 -1.6225 -2.0585 0
M  V30 END ATOM
M  V30 BEGIN BOND
M  V30 1 2 1 2
M  V30 2 1 2 3
M  V30 3 1 2 4
M  V30 4 1 3 5
M  V30 5 2 4 6
M  V30 6 1 4 7
M  V30 7 1 5 8
M  V30 8 1 6 9
M  V30 9 1 6 10
M  V30 10 2 7 11
M  V30 11 2 8 12
M  V30 12 2 10 13
M  V30 13 1 12 14
M  V30 14 2 14 15
M  V30 15 1 14 16
M  V30 16 1 15 17
M  V30 17 2 16 18
M  V30 18 2 17 19
M  V30 19 1 11 13
M  V30 20 1 18 19
M  V30 21 1 5 20
M  V30 22 1 5 21
M  V30 23 1 7 22
M  V30 24 1 8 23
M  V30 25 1 9 24
M  V30 26 1 9 25
M  V30 27 1 10 26
M  V30 28 1 11 27
M  V30 29 1 12 28
M  V30 30 1 13 29
M  V30 31 1 15 30
M  V30 32 1 16 31
M  V30 33 1 17 32
M  V30 34 1 18 33
M  V30 35 1 19 34
M  V30 END BOND
M  V30 END CTAB
M  END
>  <Structure No>
8184

>  <LogS>
-6.04

>  <MMFF94 Energy>
58.57

$$$$
Compound 8185
Actelion Java MolfileCreator 2.0

  0  0  0  0  0  0              0 V3000
M  V30 BEGIN CTAB
M  V30 COUNTS 27 27 0 0 0
M  V30 BEGIN ATOM
M  V30 1 O 1.8978 0.158 1.5813 0
M  V30 2 C 1.3006 0.6685 0.5946 0
M  V30 3 N 1.9335 0.6708 -0.6963 0
M  V30 4 C -0.0983 1.2099 0.7967 0 CFG=1
M  V30 5 C 3.2121 0.0071 -0.9355 0
M  V30 6 N -0.3648 2.3981 -0.0253 0 CHG=1
M  V30 7 C -1.134 0.1294 0.5462 0
M  V30 8 C 3.0308 -1.4767 -0.9288 0
M  V30 9 C -2.0408 -0.2257 1.562 0
M  V30 10 C -1.2179 -0.5235 -0.6991 0
M  V30 11 O 2.4351 -2.0445 -1.8816 0
M  V30 12 O 3.4904 -2.2308 0.1432 0 CHG=-1
M  V30 13 C -3.0018 -1.2165 1.3394 0
M  V30 14 C -2.1803 -1.5139 -0.9159 0
M  V30 15 C -3.071 -1.8607 0.1022 0
M  V30 16 H 1.4763 1.1439 -1.5058 0
M  V30 17 H -0.1606 1.5285 1.8631 0
M  V30 18 H 3.6102 0.3157 -1.9261 0
M  V30 19 H 3.9502 0.3128 -0.1631 0
M  V30 20 H 0.41 3.092 0.0858 0
M  V30 21 H -1.253 2.8469 0.2971 0
M  V30 22 H -0.4717 2.1542 -1.0356 0
M  V30 23 H -2.0058 0.2624 2.5279 0
M  V30 24 H -0.5409 -0.2697 -1.5032 0
M  V30 25 H -3.6941 -1.4847 2.127 0
M  V30 26 H -2.2361 -2.0122 -1.875 0
M  V30 27 H -3.8156 -2.6274 -0.0679 0
M  V30 END ATOM
M  V30 BEGIN BOND
M  V30 1 2 1 2
M  V30 2 1 2 3
M  V30 3 1 2 4
M  V30 4 1 3 5
M  V30 5 1 4 6
M  V30 6 1 4 7
M  V30 7 1 5 8
M  V30 8 2 7 9
M  V30 9 1 7 10
M  V30 10 2 8 11
M  V30 11 1 8 12
M  V30 12 1 9 13
M  V30 13 2 10 14
M  V30 14 2 13 15
M  V30 15 1 14 15
M  V30 16 1 3 16
M  V30 17 1 4 17
M  V30 18 1 5 18
M  V30 19 1 5 19
M  V30 20 1 6 20
M  V30 21 1 6 21
M  V30 22 1 6 22
M  V30 23 1 9 23
M  V30 24 1 10 24
M  V30 25 1 13 25
M  V30 26 1 14 26
M  V30 27 1 15 27
M  V30 END BOND
M  V30 BEGIN COLLECTION
M  V30 MDLV30/STEABS ATOMS=(1 4)
M  V30 END COLLECTION
M  V30 END CTAB
M  END
>  <Structure No>
8185

>  <LogS>
-1.41

>  <MMFF94 Energy>
5.2877

$$$$
Compound 8186
Actelion Java MolfileCreator 2.0

  0  0  0  0  0  0              0 V3000
M  V30 BEGIN CTAB
M  V30 COUNTS 40 40 0 0 0
M  V30 BEGIN ATOM
M  V30 1 O -4.4044 1.4926 -1.5713 0
M  V30 2 C -5.2958 0.8875 -0.9171 0
M  V30 3 C -4.9462 -0.1007 0.127 0
M  V30 4 C -6.7321 1.1102 -1.2665 0
M  V30 5 C -3.7194 -0.2633 0.6544 0
M  V30 6 N -2.6389 0.6286 0.3306 0
M  V30 7 C -3.5053 -1.3482 1.6733 0
M  V30 8 C -1.3019 0.1863 0.0389 0
M  V30 9 C -0.23 1.0762 0.1981 0
M  V30 10 C -1.0498 -1.1058 -0.4546 0
M  V30 11 C 1.076 0.6738 -0.0944 0
M  V30 12 C 0.2561 -1.5078 -0.7479 0
M  V30 13 C 1.332 -0.6309 -0.5515 0
M  V30 14 N 2.6651 -1.0621 -0.8816 0
M  V30 15 C 3.8645 -0.524 -0.2943 0
M  V30 16 C 3.8939 -0.2393 1.0245 0
M  V30 17 C 5.0865 -0.4191 -1.1656 0
M  V30 18 C 5.0381 0.3358 1.7635 0
M  V30 19 O 5.2625 -0.0704 2.9344 0
M  V30 20 C 5.8988 1.4267 1.2034 0
M  V30 21 H -5.7444 -0.751 0.4683 0
M  V30 22 H -7.1 0.2615 -1.8799 0
M  V30 23 H -7.3418 1.1848 -0.3414 0
M  V30 24 H -6.8493 2.052 -1.8437 0
M  V30 25 H -2.8202 1.6567 0.3892 0
M  V30 26 H -4.2449 -1.2487 2.4963 0
M  V30 27 H -3.624 -2.3432 1.195 0
M  V30 28 H -2.4894 -1.281 2.1155 0
M  V30 29 H -0.4071 2.0843 0.5516 0
M  V30 30 H -1.8619 -1.7988 -0.6296 0
M  V30 31 H 1.8812 1.3875 0.0202 0
M  V30 32 H 0.4312 -2.5071 -1.1262 0
M  V30 33 H 2.7701 -1.8005 -1.6139 0
M  V30 34 H 3.0295 -0.4992 1.6237 0
M  V30 35 H 4.934 -0.9699 -2.1172 0
M  V30 36 H 5.9676 -0.866 -0.6589 0
M  V30 37 H 5.2839 0.6417 -1.4206 0
M  V30 38 H 6.7786 0.9914 0.687 0
M  V30 39 H 6.2622 2.0797 2.025 0
M  V30 40 H 5.3165 2.058 0.5 0
M  V30 END ATOM
M  V30 BEGIN BOND
M  V30 1 2 1 2
M  V30 2 1 2 3
M  V30 3 1 2 4
M  V30 4 2 3 5
M  V30 5 1 5 6
M  V30 6 1 5 7
M  V30 7 1 6 8
M  V30 8 2 8 9
M  V30 9 1 8 10
M  V30 10 1 9 11
M  V30 11 2 10 12
M  V30 12 2 11 13
M  V30 13 1 13 14
M  V30 14 1 14 15
M  V30 15 2 15 16
M  V30 16 1 15 17
M  V30 17 1 16 18
M  V30 18 2 18 19
M  V30 19 1 18 20
M  V30 20 1 12 13
M  V30 21 1 3 21
M  V30 22 1 4 22
M  V30 23 1 4 23
M  V30 24 1 4 24
M  V30 25 1 6 25
M  V30 26 1 7 26
M  V30 27 1 7 27
M  V30 28 1 7 28
M  V30 29 1 9 29
M  V30 30 1 10 30
M  V30 31 1 11 31
M  V30 32 1 12 32
M  V30 33 1 14 33
M  V30 34 1 16 34
M  V30 35 1 17 35
M  V30 36 1 17 36
M  V30 37 1 17 37
M  V30 38 1 20 38
M  V30 39 1 20 39
M  V30 40 1 20 40
M  V30 END BOND
M  V30 END CTAB
M  END
>  <Structure No>
8186

>  <LogS>
-1.89

>  <MMFF94 Energy>
45.494

$$$$
Compound 8187
Actelion Java MolfileCreator 2.0

  0  0  0  0  0  0              0 V3000
M  V30 BEGIN CTAB
M  V30 COUNTS 35 36 0 0 0
M  V30 BEGIN ATOM
M  V30 1 S -1.5621 -3.126 -1.6443 0
M  V30 2 C -1.1155 -1.927 -0.6177 0
M  V30 3 S 0.632 -1.7839 -0.2181 0
M  V30 4 N -2.0767 -0.9897 -0.0751 0
M  V30 5 C 0.9541 -0.5317 -1.5027 0
M  V30 6 C -1.6775 -0.085 0.9682 0
M  V30 7 C -3.4788 -0.9681 -0.5158 0
M  V30 8 C 2.2742 0.1267 -1.2305 0
M  V30 9 C -1.6604 1.2984 0.7342 0
M  V30 10 C -1.2902 -0.5785 2.2238 0
M  V30 11 C -4.2786 -1.9704 0.254 0
M  V30 12 C 3.4478 -0.3531 -1.8345 0
M  V30 13 C 2.3541 1.1924 -0.3182 0
M  V30 14 C -1.2511 2.1768 1.7421 0
M  V30 15 C -0.882 0.3025 3.2299 0
M  V30 16 O -4.5569 -1.7616 1.4639 0
M  V30 17 O -4.6989 -3.1453 -0.3554 0 CHG=-1
M  V30 18 C 4.6802 0.242 -1.5472 0
M  V30 19 C 3.5882 1.7844 -0.0339 0
M  V30 20 C -0.8611 1.6792 2.9887 0
M  V30 21 C 4.7502 1.3108 -0.6492 0
M  V30 22 H 0.1524 0.238 -1.5045 0
M  V30 23 H 0.9568 -1.0221 -2.4995 0
M  V30 24 H -3.5495 -1.1738 -1.6049 0
M  V30 25 H -3.9217 0.0393 -0.3589 0
M  V30 26 H -1.949 1.6909 -0.2323 0
M  V30 27 H -1.3038 -1.6436 2.4175 0
M  V30 28 H 3.4086 -1.1866 -2.5246 0
M  V30 29 H 1.4623 1.561 0.1737 0
M  V30 30 H -1.2322 3.2427 1.5555 0
M  V30 31 H -0.5808 -0.0818 4.1955 0
M  V30 32 H 5.5816 -0.1281 -2.0176 0
M  V30 33 H 3.6443 2.6076 0.6664 0
M  V30 34 H -0.5427 2.3599 3.7674 0
M  V30 35 H 5.7051 1.7692 -0.4271 0
M  V30 END ATOM
M  V30 BEGIN BOND
M  V30 1 2 1 2
M  V30 2 1 2 3
M  V30 3 1 2 4
M  V30 4 1 3 5
M  V30 5 1 4 6
M  V30 6 1 4 7
M  V30 7 1 5 8
M  V30 8 2 6 9
M  V30 9 1 6 10
M  V30 10 1 7 11
M  V30 11 2 8 12
M  V30 12 1 8 13
M  V30 13 1 9 14
M  V30 14 2 10 15
M  V30 15 2 11 16
M  V30 16 1 11 17
M  V30 17 1 12 18
M  V30 18 2 13 19
M  V30 19 2 14 20
M  V30 20 2 18 21
M  V30 21 1 15 20
M  V30 22 1 19 21
M  V30 23 1 5 22
M  V30 24 1 5 23
M  V30 25 1 7 24
M  V30 26 1 7 25
M  V30 27 1 9 26
M  V30 28 1 10 27
M  V30 29 1 12 28
M  V30 30 1 13 29
M  V30 31 1 14 30
M  V30 32 1 15 31
M  V30 33 1 18 32
M  V30 34 1 19 33
M  V30 35 1 20 34
M  V30 36 1 21 35
M  V30 END BOND
M  V30 END CTAB
M  END
>  <Structure No>
8187

>  <LogS>
-3.92

>  <MMFF94 Energy>
68.4

$$$$
Compound 8188
Actelion Java MolfileCreator 2.0

  0  0  0  0  0  0              0 V3000
M  V30 BEGIN CTAB
M  V30 COUNTS 43 43 0 0 0
M  V30 BEGIN ATOM
M  V30 1 F -1.3774 3.5682 -3.5682 0
M  V30 2 C -1.8479 2.2758 -3.4127 0
M  V30 3 F -1.0256 1.4103 -4.1094 0
M  V30 4 F -3.1296 2.1986 -3.9245 0
M  V30 5 C -1.863 1.8914 -1.9653 0
M  V30 6 O -1.4466 2.7053 -1.0965 0
M  V30 7 N -2.3447 0.5971 -1.5743 0
M  V30 8 C -2.2102 0.096 -0.202 0 CFG=2
M  V30 9 C -0.8647 -0.5547 -0.0121 0
M  V30 10 C -3.3622 -0.8616 0.1623 0
M  V30 11 O -0.3626 -1.2319 -0.95 0
M  V30 12 N -0.183 -0.4361 1.2475 0
M  V30 13 C -3.3801 -2.1182 -0.6591 0
M  V30 14 C 1.1184 -1.0453 1.5461 0 CFG=1
M  V30 15 O -2.6749 -3.1057 -0.3232 0
M  V30 16 O -4.1644 -2.1924 -1.8031 0 CHG=-1
M  V30 17 C 1.0206 -2.5448 1.4709 0
M  V30 18 C 2.2355 -0.4869 0.6401 0
M  V30 19 O 0.5937 -3.1862 2.4696 0
M  V30 20 O 1.3473 -3.2163 0.2882 0
M  V30 21 C 2.3137 1.0165 0.7205 0
M  V30 22 C 1.2148 -4.6248 0.1441 0
M  V30 23 C 2.9189 1.6358 1.8267 0
M  V30 24 C 1.7454 1.8133 -0.2881 0
M  V30 25 C 2.9643 3.0307 1.9158 0
M  V30 26 C 1.7938 3.2075 -0.1955 0
M  V30 27 C 2.4027 3.8159 0.9053 0
M  V30 28 H -2.6369 -0.0622 -2.33 0
M  V30 29 H -2.2856 0.9555 0.4999 0
M  V30 30 H -4.3296 -0.3308 0.0297 0
M  V30 31 H -3.2848 -1.1341 1.2379 0
M  V30 32 H -0.6459 0.1084 2.0099 0
M  V30 33 H 1.3881 -0.7872 2.5953 0
M  V30 34 H 2.0844 -0.8019 -0.4143 0
M  V30 35 H 3.2106 -0.9165 0.9592 0
M  V30 36 H 1.835 -5.1454 0.904 0
M  V30 37 H 1.5616 -4.922 -0.8667 0
M  V30 38 H 0.1501 -4.9191 0.2607 0
M  V30 39 H 3.3517 1.0386 2.6194 0
M  V30 40 H 1.264 1.3564 -1.144 0
M  V30 41 H 3.4329 3.5033 2.7693 0
M  V30 42 H 1.3565 3.8164 -0.9763 0
M  V30 43 H 2.4377 4.8954 0.9762 0
M  V30 END ATOM
M  V30 BEGIN BOND
M  V30 1 1 1 2
M  V30 2 1 2 3
M  V30 3 1 2 4
M  V30 4 1 2 5
M  V30 5 2 5 6
M  V30 6 1 5 7
M  V30 7 1 7 8
M  V30 8 1 8 9
M  V30 9 1 8 10
M  V30 10 2 9 11
M  V30 11 1 9 12
M  V30 12 1 10 13
M  V30 13 1 12 14
M  V30 14 2 13 15
M  V30 15 1 13 16
M  V30 16 1 14 17
M  V30 17 1 14 18
M  V30 18 2 17 19
M  V30 19 1 17 20
M  V30 20 1 18 21
M  V30 21 1 20 22
M  V30 22 2 21 23
M  V30 23 1 21 24
M  V30 24 1 23 25
M  V30 25 2 24 26
M  V30 26 2 25 27
M  V30 27 1 26 27
M  V30 28 1 7 28
M  V30 29 1 8 29
M  V30 30 1 10 30
M  V30 31 1 10 31
M  V30 32 1 12 32
M  V30 33 1 14 33
M  V30 34 1 18 34
M  V30 35 1 18 35
M  V30 36 1 22 36
M  V30 37 1 22 37
M  V30 38 1 22 38
M  V30 39 1 23 39
M  V30 40 1 24 40
M  V30 41 1 25 41
M  V30 42 1 26 42
M  V30 43 1 27 43
M  V30 END BOND
M  V30 BEGIN COLLECTION
M  V30 MDLV30/STEABS ATOMS=(2 8 14)
M  V30 END COLLECTION
M  V30 END CTAB
M  END
>  <Structure No>
8188

>  <LogS>
-2.66

>  <MMFF94 Energy>
97.552

$$$$
Compound 8189
Actelion Java MolfileCreator 2.0

  0  0  0  0  0  0              0 V3000
M  V30 BEGIN CTAB
M  V30 COUNTS 20 21 0 0 0
M  V30 BEGIN ATOM
M  V30 1 O 1.372 2.5838 -0.0806 0
M  V30 2 C 1.1752 1.3384 -0.0867 0
M  V30 3 C 2.3229 0.418 -0.2229 0
M  V30 4 C -0.1979 0.7962 0.0418 0
M  V30 5 O 3.6202 0.9149 -0.3447 0
M  V30 6 C 2.1338 -0.9039 -0.2314 0
M  V30 7 C -0.402 -0.6045 0.0333 0
M  V30 8 C -1.2966 1.6644 0.1722 0
M  V30 9 C 0.7894 -1.5003 -0.1069 0
M  V30 10 C -1.7188 -1.0997 0.1571 0
M  V30 11 C -2.5888 1.1541 0.2931 0
M  V30 12 N 0.7006 -2.7952 -0.125 0
M  V30 13 C -2.7987 -0.2231 0.2857 0
M  V30 14 H 3.8139 1.909 -0.3435 0
M  V30 15 H 2.9916 -1.5587 -0.3327 0
M  V30 16 H -1.1572 2.7382 0.1805 0
M  V30 17 H -1.9376 -2.1556 0.1573 0
M  V30 18 H -3.4296 1.8284 0.3931 0
M  V30 19 H -0.1842 -3.3375 -0.0462 0
M  V30 20 H -3.8036 -0.6145 0.3799 0
M  V30 END ATOM
M  V30 BEGIN BOND
M  V30 1 2 1 2
M  V30 2 1 2 3
M  V30 3 1 2 4
M  V30 4 1 3 5
M  V30 5 2 3 6
M  V30 6 2 4 7
M  V30 7 1 4 8
M  V30 8 1 6 9
M  V30 9 1 7 10
M  V30 10 2 8 11
M  V30 11 2 9 12
M  V30 12 2 10 13
M  V30 13 1 7 9
M  V30 14 1 11 13
M  V30 15 1 5 14
M  V30 16 1 6 15
M  V30 17 1 8 16
M  V30 18 1 10 17
M  V30 19 1 11 18
M  V30 20 1 12 19
M  V30 21 1 13 20
M  V30 END BOND
M  V30 END CTAB
M  END
>  <Structure No>
8189

>  <LogS>
-3.84

>  <MMFF94 Energy>
56.285

$$$$
Compound 8190
Actelion Java MolfileCreator 2.0

  0  0  0  0  0  0              0 V3000
M  V30 BEGIN CTAB
M  V30 COUNTS 30 32 0 0 0
M  V30 BEGIN ATOM
M  V30 1 O 3.6927 0.6414 -1.6845 0
M  V30 2 C 4.1735 0.2615 -0.5828 0
M  V30 3 N 3.3501 -0.408 0.3845 0
M  V30 4 C 5.6366 0.4236 -0.3283 0
M  V30 5 C 1.9141 -0.455 0.3282 0
M  V30 6 C 1.1622 0.6316 -0.1748 0
M  V30 7 C 1.241 -1.5883 0.841 0
M  V30 8 C -0.2298 0.5415 -0.1843 0
M  V30 9 C -0.1605 -1.6607 0.8242 0
M  V30 10 C -0.8698 -0.5817 0.3015 0
M  V30 11 C -1.2113 1.5709 -0.667 0
M  V30 12 C -2.2969 -0.3801 0.1733 0
M  V30 13 C -2.5071 0.8656 -0.3882 0
M  V30 14 C -3.3574 -1.2176 0.5205 0
M  V30 15 C -3.8011 1.3304 -0.629 0
M  V30 16 C -4.6652 -0.7636 0.2839 0
M  V30 17 C -4.8862 0.505 -0.2886 0
M  V30 18 H 3.8308 -0.9616 1.1295 0
M  V30 19 H 6.1622 -0.5202 -0.5811 0
M  V30 20 H 5.8099 0.6637 0.7416 0
M  V30 21 H 6.0476 1.248 -0.9486 0
M  V30 22 H 1.6409 1.536 -0.5253 0
M  V30 23 H 1.8074 -2.4175 1.2457 0
M  V30 24 H -0.6728 -2.5314 1.2119 0
M  V30 25 H -1.087 1.7593 -1.7541 0
M  V30 26 H -1.1319 2.5053 -0.0722 0
M  V30 27 H -3.1816 -2.1905 0.9601 0
M  V30 28 H -3.966 2.3057 -1.0681 0
M  V30 29 H -5.5077 -1.3916 0.5428 0
M  V30 30 H -5.8977 0.8459 -0.4667 0
M  V30 END ATOM
M  V30 BEGIN BOND
M  V30 1 2 1 2
M  V30 2 1 2 3
M  V30 3 1 2 4
M  V30 4 1 3 5
M  V30 5 2 5 6
M  V30 6 1 5 7
M  V30 7 1 6 8
M  V30 8 2 7 9
M  V30 9 2 8 10
M  V30 10 1 8 11
M  V30 11 1 10 12
M  V30 12 1 11 13
M  V30 13 1 12 14
M  V30 14 1 13 15
M  V30 15 2 14 16
M  V30 16 2 15 17
M  V30 17 1 9 10
M  V30 18 2 12 13
M  V30 19 1 16 17
M  V30 20 1 3 18
M  V30 21 1 4 19
M  V30 22 1 4 20
M  V30 23 1 4 21
M  V30 24 1 6 22
M  V30 25 1 7 23
M  V30 26 1 9 24
M  V30 27 1 11 25
M  V30 28 1 11 26
M  V30 29 1 14 27
M  V30 30 1 15 28
M  V30 31 1 16 29
M  V30 32 1 17 30
M  V30 END BOND
M  V30 END CTAB
M  END
>  <Structure No>
8190

>  <LogS>
-4.24

>  <MMFF94 Energy>
34.2

$$$$
Compound 8191
Actelion Java MolfileCreator 2.0

  0  0  0  0  0  0              0 V3000
M  V30 BEGIN CTAB
M  V30 COUNTS 21 21 0 0 0
M  V30 BEGIN ATOM
M  V30 1 Cl -2.5384 -3.4403 -0.2454 0
M  V30 2 C -2.0412 -1.7615 -0.1331 0
M  V30 3 C -0.6863 -1.4283 -0.194 0
M  V30 4 C -3.0005 -0.7575 -6.0E-4 0
M  V30 5 C -0.2735 -0.0862 -0.1083 0
M  V30 6 C -2.6084 0.5797 0.0778 0
M  V30 7 N 1.1167 0.2424 -0.2682 0
M  V30 8 C -1.2481 0.9335 0.0347 0
M  V30 9 C 2.1761 -0.479 0.3774 0
M  V30 10 N -0.8781 2.3185 0.1662 0 CHG=1
M  V30 11 O 1.9197 -1.3304 1.2714 0
M  V30 12 C 3.5989 -0.1644 0.0491 0
M  V30 13 O 0.1899 2.6424 0.7252 0
M  V30 14 O -1.7734 3.3073 -0.1722 0 CHG=-1
M  V30 15 H 0.0435 -2.2143 -0.3403 0
M  V30 16 H -4.0521 -1.0116 0.0422 0
M  V30 17 H -3.3698 1.3406 0.1934 0
M  V30 18 H 1.3703 1.063 -0.8636 0
M  V30 19 H 3.7103 -0.0193 -1.0457 0
M  V30 20 H 4.263 -0.9958 0.3674 0
M  V30 21 H 3.9019 0.7653 0.5739 0
M  V30 END ATOM
M  V30 BEGIN BOND
M  V30 1 1 1 2
M  V30 2 2 2 3
M  V30 3 1 2 4
M  V30 4 1 3 5
M  V30 5 2 4 6
M  V30 6 1 5 7
M  V30 7 2 5 8
M  V30 8 1 7 9
M  V30 9 1 8 10
M  V30 10 2 9 11
M  V30 11 1 9 12
M  V30 12 2 10 13
M  V30 13 1 10 14
M  V30 14 1 6 8
M  V30 15 1 3 15
M  V30 16 1 4 16
M  V30 17 1 6 17
M  V30 18 1 7 18
M  V30 19 1 12 19
M  V30 20 1 12 20
M  V30 21 1 12 21
M  V30 END BOND
M  V30 END CTAB
M  END
>  <Structure No>
8191

>  <LogS>
-0.99

>  <MMFF94 Energy>
34.441

$$$$
Compound 8192
Actelion Java MolfileCreator 2.0

  0  0  0  0  0  0              0 V3000
M  V30 BEGIN CTAB
M  V30 COUNTS 30 30 0 0 0
M  V30 BEGIN ATOM
M  V30 1 O 0.3169 -1.0304 2.2203 0
M  V30 2 C 0.3655 -1.5536 1.0753 0
M  V30 3 O 0.371 -2.9378 0.9596 0 CHG=-1
M  V30 4 C 0.4711 -0.6998 -0.1676 0 CFG=2
M  V30 5 N 1.8833 -0.4534 -0.5411 0 CHG=1
M  V30 6 C -0.3518 0.6096 -0.0658 0
M  V30 7 C 2.6315 0.3799 0.4226 0
M  V30 8 C -1.8356 0.3354 -0.0647 0
M  V30 9 C 4.1143 0.4904 0.0399 0
M  V30 10 C -2.5066 0.0788 -1.2725 0
M  V30 11 C -2.5547 0.298 1.1422 0
M  V30 12 C 4.2939 1.2576 -1.1992 0
M  V30 13 C -3.8768 -0.2001 -1.2724 0
M  V30 14 C -3.9249 0.0186 1.1376 0
M  V30 15 N 4.4351 1.862 -2.1759 0
M  V30 16 C -4.5856 -0.2295 -0.0684 0
M  V30 17 H 0.0204 -1.2965 -0.9939 0
M  V30 18 H 2.3646 -1.3785 -0.6415 0
M  V30 19 H 1.8987 0.0099 -1.4798 0
M  V30 20 H -0.074 1.1786 0.8476 0
M  V30 21 H -0.1132 1.2633 -0.933 0
M  V30 22 H 2.2007 1.4037 0.4751 0
M  V30 23 H 2.5835 -0.0679 1.4378 0
M  V30 24 H 4.5563 -0.5204 -0.0858 0
M  V30 25 H 4.6629 1.0088 0.8546 0
M  V30 26 H -1.9675 0.0929 -2.2116 0
M  V30 27 H -2.0566 0.4853 2.085 0
M  V30 28 H -4.3886 -0.3955 -2.2057 0
M  V30 29 H -4.4745 -0.0071 2.0698 0
M  V30 30 H -5.6459 -0.4464 -0.0699 0
M  V30 END ATOM
M  V30 BEGIN BOND
M  V30 1 2 1 2
M  V30 2 1 2 3
M  V30 3 1 2 4
M  V30 4 1 4 5
M  V30 5 1 4 6
M  V30 6 1 5 7
M  V30 7 1 6 8
M  V30 8 1 7 9
M  V30 9 2 8 10
M  V30 10 1 8 11
M  V30 11 1 9 12
M  V30 12 1 10 13
M  V30 13 2 11 14
M  V30 14 3 12 15
M  V30 15 2 13 16
M  V30 16 1 14 16
M  V30 17 1 4 17
M  V30 18 1 5 18
M  V30 19 1 5 19
M  V30 20 1 6 20
M  V30 21 1 6 21
M  V30 22 1 7 22
M  V30 23 1 7 23
M  V30 24 1 9 24
M  V30 25 1 9 25
M  V30 26 1 10 26
M  V30 27 1 11 27
M  V30 28 1 13 28
M  V30 29 1 14 29
M  V30 30 1 16 30
M  V30 END BOND
M  V30 BEGIN COLLECTION
M  V30 MDLV30/STEABS ATOMS=(1 4)
M  V30 END COLLECTION
M  V30 END CTAB
M  END
>  <Structure No>
8192

>  <LogS>
-1.49

>  <MMFF94 Energy>
19.592

$$$$
Compound 8193
Actelion Java MolfileCreator 2.0

  0  0  0  0  0  0              0 V3000
M  V30 BEGIN CTAB
M  V30 COUNTS 37 37 0 0 0
M  V30 BEGIN ATOM
M  V30 1 S -0.0811 -0.2434 -1.7862 0
M  V30 2 O 0.1422 -1.5683 -2.4615 0
M  V30 3 O -0.3493 0.7703 -2.863 0
M  V30 4 N -1.474 -0.3349 -0.7147 0
M  V30 5 C 1.3981 0.1945 -0.9239 0
M  V30 6 C -1.4927 0.7819 0.2549 0
M  V30 7 C -1.5195 -1.648 -0.0334 0
M  V30 8 C 1.8328 1.5266 -0.8906 0
M  V30 9 C 2.1455 -0.7891 -0.2637 0
M  V30 10 C -1.8888 2.103 -0.4192 0
M  V30 11 C -2.4252 -2.6053 -0.8148 0
M  V30 12 C 2.994 1.8735 -0.1942 0
M  V30 13 C 3.3076 -0.4448 0.4325 0
M  V30 14 C -2.0618 3.2179 0.6088 0
M  V30 15 C -2.4718 -3.9836 -0.1612 0
M  V30 16 C 3.7428 0.8915 0.4763 0
M  V30 17 C 4.9709 1.2619 1.2133 0
M  V30 18 O 5.6461 0.3848 1.8151 0
M  V30 19 O 5.3971 2.5846 1.2524 0 CHG=-1
M  V30 20 H -0.516 0.8812 0.775 0
M  V30 21 H -2.2614 0.5889 1.0366 0
M  V30 22 H -0.5049 -2.0858 0.0803 0
M  V30 23 H -1.9357 -1.5684 0.9958 0
M  V30 24 H 1.2753 2.3 -1.4012 0
M  V30 25 H 1.8337 -1.8246 -0.289 0
M  V30 26 H -1.1108 2.4213 -1.1395 0
M  V30 27 H -2.8443 1.9663 -0.9704 0
M  V30 28 H -2.061 -2.7162 -1.8572 0
M  V30 29 H -3.4547 -2.1872 -0.8522 0
M  V30 30 H 3.3043 2.9107 -0.1821 0
M  V30 31 H 3.8649 -1.2252 0.9353 0
M  V30 32 H -2.3339 4.162 0.0913 0
M  V30 33 H -2.8705 2.9621 1.3262 0
M  V30 34 H -1.1138 3.3783 1.1654 0
M  V30 35 H -1.4558 -4.4316 -0.1345 0
M  V30 36 H -2.8671 -3.9075 0.874 0
M  V30 37 H -3.1387 -4.6504 -0.7474 0
M  V30 END ATOM
M  V30 BEGIN BOND
M  V30 1 2 1 2
M  V30 2 2 1 3
M  V30 3 1 1 4
M  V30 4 1 1 5
M  V30 5 1 4 6
M  V30 6 1 4 7
M  V30 7 2 5 8
M  V30 8 1 5 9
M  V30 9 1 6 10
M  V30 10 1 7 11
M  V30 11 1 8 12
M  V30 12 2 9 13
M  V30 13 1 10 14
M  V30 14 1 11 15
M  V30 15 2 12 16
M  V30 16 1 16 17
M  V30 17 2 17 18
M  V30 18 1 17 19
M  V30 19 1 13 16
M  V30 20 1 6 20
M  V30 21 1 6 21
M  V30 22 1 7 22
M  V30 23 1 7 23
M  V30 24 1 8 24
M  V30 25 1 9 25
M  V30 26 1 10 26
M  V30 27 1 10 27
M  V30 28 1 11 28
M  V30 29 1 11 29
M  V30 30 1 12 30
M  V30 31 1 13 31
M  V30 32 1 14 32
M  V30 33 1 14 33
M  V30 34 1 14 34
M  V30 35 1 15 35
M  V30 36 1 15 36
M  V30 37 1 15 37
M  V30 END BOND
M  V30 END CTAB
M  END
>  <Structure No>
8193

>  <LogS>
-4.02

>  <MMFF94 Energy>
-6.9786

$$$$
Compound 8194
Actelion Java MolfileCreator 2.0

  0  0  0  0  0  0              0 V3000
M  V30 BEGIN CTAB
M  V30 COUNTS 38 39 0 0 0
M  V30 BEGIN ATOM
M  V30 1 O 0.2362 1.3393 -0.4725 0
M  V30 2 C -0.1407 0.17 -0.1912 0
M  V30 3 N -1.4301 -0.2204 -0.1348 0
M  V30 4 C 0.6799 -0.9179 0.0343 0
M  V30 5 N -1.4605 -1.5276 0.1195 0
M  V30 6 C -2.5734 0.6255 -0.3539 0
M  V30 7 N 2.115 -0.9621 8.0E-4 0
M  V30 8 C -0.1869 -1.9908 0.1901 0
M  V30 9 C -2.6751 -2.3289 0.2944 0
M  V30 10 C -2.7216 1.8156 0.3766 0
M  V30 11 C -3.5345 0.2869 -1.3204 0
M  V30 12 C 2.9508 0.115 0.4457 0
M  V30 13 C 0.1941 -3.4087 0.5006 0
M  V30 14 C -3.8256 2.645 0.156 0
M  V30 15 C -4.6372 1.1187 -1.5388 0
M  V30 16 O 2.4628 1.0629 1.1197 0
M  V30 17 N 4.3559 0.0864 0.1601 0
M  V30 18 C -4.7839 2.2959 -0.7997 0
M  V30 19 C 5.2668 1.151 0.5759 0
M  V30 20 C 5.0843 2.3865 -0.299 0
M  V30 21 H 2.5796 -1.8396 -0.3203 0
M  V30 22 H -3.5053 -1.7018 0.6801 0
M  V30 23 H -2.9679 -2.7793 -0.6764 0
M  V30 24 H -2.5034 -3.1378 1.035 0
M  V30 25 H -1.9875 2.0927 1.1227 0
M  V30 26 H -3.4216 -0.6121 -1.912 0
M  V30 27 H 1.2367 -3.6219 0.1914 0
M  V30 28 H -0.4725 -4.1083 -0.0449 0
M  V30 29 H 0.0975 -3.5856 1.5917 0
M  V30 30 H -3.9384 3.5582 0.726 0
M  V30 31 H -5.3755 0.853 -2.2842 0
M  V30 32 H 4.7552 -0.7485 -0.3244 0
M  V30 33 H -5.6375 2.9391 -0.9701 0
M  V30 34 H 5.0917 1.4077 1.643 0
M  V30 35 H 6.3153 0.7959 0.4762 0
M  V30 36 H 4.0594 2.7973 -0.1848 0
M  V30 37 H 5.8146 3.1668 0.0018 0
M  V30 38 H 5.2565 2.1265 -1.365 0
M  V30 END ATOM
M  V30 BEGIN BOND
M  V30 1 2 1 2
M  V30 2 1 2 3
M  V30 3 1 2 4
M  V30 4 1 3 5
M  V30 5 1 3 6
M  V30 6 1 4 7
M  V30 7 2 4 8
M  V30 8 1 5 9
M  V30 9 2 6 10
M  V30 10 1 6 11
M  V30 11 1 7 12
M  V30 12 1 8 13
M  V30 13 1 10 14
M  V30 14 2 11 15
M  V30 15 2 12 16
M  V30 16 1 12 17
M  V30 17 2 14 18
M  V30 18 1 17 19
M  V30 19 1 19 20
M  V30 20 1 5 8
M  V30 21 1 15 18
M  V30 22 1 7 21
M  V30 23 1 9 22
M  V30 24 1 9 23
M  V30 25 1 9 24
M  V30 26 1 10 25
M  V30 27 1 11 26
M  V30 28 1 13 27
M  V30 29 1 13 28
M  V30 30 1 13 29
M  V30 31 1 14 30
M  V30 32 1 15 31
M  V30 33 1 17 32
M  V30 34 1 18 33
M  V30 35 1 19 34
M  V30 36 1 19 35
M  V30 37 1 20 36
M  V30 38 1 20 37
M  V30 39 1 20 38
M  V30 END BOND
M  V30 END CTAB
M  END
>  <Structure No>
8194

>  <LogS>
-1.83

>  <MMFF94 Energy>
15.795

$$$$
Compound 8195
Actelion Java MolfileCreator 2.0

  0  0  0  0  0  0              0 V3000
M  V30 BEGIN CTAB
M  V30 COUNTS 30 31 0 0 0
M  V30 BEGIN ATOM
M  V30 1 Cl 6.8785 -0.4843 0.9689 0
M  V30 2 C 5.1903 -0.4745 0.4927 0
M  V30 3 C 4.7642 -1.2477 -0.5909 0
M  V30 4 C 4.2678 0.3017 1.2003 0
M  V30 5 C 3.4186 -1.2423 -0.9709 0
M  V30 6 C 2.9217 0.31 0.8226 0
M  V30 7 C 2.4845 -0.454 -0.2757 0
M  V30 8 N 1.0951 -0.4681 -0.6619 0
M  V30 9 O 0.6065 -1.5446 -1.3294 0
M  V30 10 C 0.2651 0.7013 -0.5328 0
M  V30 11 O 0.7839 1.8471 -0.6322 0
M  V30 12 C -1.196 0.5866 -0.3346 0
M  V30 13 C -2.0605 1.5425 -0.8941 0
M  V30 14 C -1.7367 -0.4526 0.4403 0
M  V30 15 C -3.442 1.4466 -0.7025 0
M  V30 16 C -3.1183 -0.5473 0.6326 0
M  V30 17 C -3.9785 0.4079 0.0721 0
M  V30 18 C -5.4632 0.2834 0.246 0
M  V30 19 H 5.474 -1.8535 -1.1394 0
M  V30 20 H 4.5911 0.8943 2.0466 0
M  V30 21 H 3.1088 -1.8451 -1.8149 0
M  V30 22 H 2.22 0.8993 1.3989 0
M  V30 23 H 0.314 -2.1777 -0.626 0
M  V30 24 H -1.6681 2.3549 -1.4934 0
M  V30 25 H -1.0924 -1.1775 0.9196 0
M  V30 26 H -4.0927 2.1832 -1.1575 0
M  V30 27 H -3.5162 -1.3609 1.2265 0
M  V30 28 H -5.7052 -0.1946 1.2191 0
M  V30 29 H -5.8802 -0.3357 -0.5752 0
M  V30 30 H -5.9456 1.2839 0.2263 0
M  V30 END ATOM
M  V30 BEGIN BOND
M  V30 1 1 1 2
M  V30 2 2 2 3
M  V30 3 1 2 4
M  V30 4 1 3 5
M  V30 5 2 4 6
M  V30 6 2 5 7
M  V30 7 1 7 8
M  V30 8 1 8 9
M  V30 9 1 8 10
M  V30 10 2 10 11
M  V30 11 1 10 12
M  V30 12 2 12 13
M  V30 13 1 12 14
M  V30 14 1 13 15
M  V30 15 2 14 16
M  V30 16 2 15 17
M  V30 17 1 17 18
M  V30 18 1 6 7
M  V30 19 1 16 17
M  V30 20 1 3 19
M  V30 21 1 4 20
M  V30 22 1 5 21
M  V30 23 1 6 22
M  V30 24 1 9 23
M  V30 25 1 13 24
M  V30 26 1 14 25
M  V30 27 1 15 26
M  V30 28 1 16 27
M  V30 29 1 18 28
M  V30 30 1 18 29
M  V30 31 1 18 30
M  V30 END BOND
M  V30 END CTAB
M  END
>  <Structure No>
8195

>  <LogS>
-4.42

>  <MMFF94 Energy>
87.646

$$$$
Compound 8196
Actelion Java MolfileCreator 2.0

  0  0  0  0  0  0              0 V3000
M  V30 BEGIN CTAB
M  V30 COUNTS 32 34 0 0 0
M  V30 BEGIN ATOM
M  V30 1 S -2.3858 -0.4932 1.3158 0
M  V30 2 O -3.7913 -0.903 1.6595 0
M  V30 3 O -1.7171 0.0387 2.5514 0
M  V30 4 N -1.5361 -1.8896 0.7492 0
M  V30 5 C -2.4187 0.7635 0.0657 0
M  V30 6 C -1.3205 1.004 -0.7987 0
M  V30 7 C -3.5947 1.5146 -0.0968 0
M  V30 8 C -0.0376 0.2894 -0.6629 0
M  V30 9 C -1.4464 1.9515 -1.8279 0
M  V30 10 C -3.6962 2.4677 -1.1121 0
M  V30 11 N 0.4322 -0.441 -1.7086 0
M  V30 12 N 0.6894 0.3782 0.4863 0
M  V30 13 C -2.6269 2.6804 -1.9808 0
M  V30 14 C 1.6059 -1.1176 -1.6326 0
M  V30 15 C 1.8712 -0.287 0.6191 0
M  V30 16 O 1.9978 -1.7862 -2.6265 0
M  V30 17 C 2.364 -1.065 -0.4522 0
M  V30 18 C 2.606 -0.2036 1.8124 0
M  V30 19 C 3.5845 -1.7501 -0.3117 0
M  V30 20 C 3.8171 -0.8891 1.9414 0
M  V30 21 C 4.3045 -1.6599 0.883 0
M  V30 22 H -1.6115 -2.6182 1.4938 0
M  V30 23 H -2.0574 -2.2491 -0.0815 0
M  V30 24 H -4.4423 1.3577 0.5578 0
M  V30 25 H -0.6206 2.1391 -2.5038 0
M  V30 26 H -4.6093 3.037 -1.2298 0
M  V30 27 H 0.341 0.9786 1.2682 0
M  V30 28 H -2.7103 3.4153 -2.771 0
M  V30 29 H 2.2409 0.3891 2.6419 0
M  V30 30 H 3.9819 -2.3521 -1.1195 0
M  V30 31 H 4.3792 -0.8224 2.8641 0
M  V30 32 H 5.2432 -2.1883 0.9885 0
M  V30 END ATOM
M  V30 BEGIN BOND
M  V30 1 2 1 2
M  V30 2 2 1 3
M  V30 3 1 1 4
M  V30 4 1 1 5
M  V30 5 2 5 6
M  V30 6 1 5 7
M  V30 7 1 6 8
M  V30 8 1 6 9
M  V30 9 2 7 10
M  V30 10 2 8 11
M  V30 11 1 8 12
M  V30 12 2 9 13
M  V30 13 1 11 14
M  V30 14 1 12 15
M  V30 15 2 14 16
M  V30 16 1 14 17
M  V30 17 1 15 18
M  V30 18 1 17 19
M  V30 19 2 18 20
M  V30 20 2 19 21
M  V30 21 1 10 13
M  V30 22 2 15 17
M  V30 23 1 20 21
M  V30 24 1 4 22
M  V30 25 1 4 23
M  V30 26 1 7 24
M  V30 27 1 9 25
M  V30 28 1 10 26
M  V30 29 1 12 27
M  V30 30 1 13 28
M  V30 31 1 18 29
M  V30 32 1 19 30
M  V30 33 1 20 31
M  V30 34 1 21 32
M  V30 END BOND
M  V30 END CTAB
M  END
>  <Structure No>
8196

>  <LogS>
-3.08

>  <MMFF94 Energy>
-67.418

$$$$
Compound 8197
Actelion Java MolfileCreator 2.0

  0  0  0  0  0  0              0 V3000
M  V30 BEGIN CTAB
M  V30 COUNTS 39 41 0 0 0
M  V30 BEGIN ATOM
M  V30 1 O 1.4402 0.6399 -1.6804 0
M  V30 2 C 1.2572 0.0231 -0.5957 0
M  V30 3 N 2.3731 -0.5421 0.0957 0
M  V30 4 N -0.0632 -0.1145 -0.0512 0
M  V30 5 N 3.6697 -0.4072 -0.433 0
M  V30 6 C -1.2544 0.4704 -0.6732 0
M  V30 7 C 4.7455 -0.8855 0.1236 0
M  V30 8 C -2.297 -0.6118 -0.8522 0
M  V30 9 C -1.7324 1.631 0.1726 0
M  V30 10 C 6.0564 -0.6572 -0.566 0
M  V30 11 C 4.6972 -1.6483 1.4214 0
M  V30 12 C -3.4764 -0.6188 -0.0816 0
M  V30 13 C -2.062 -1.6595 -1.7586 0
M  V30 14 C -2.9311 1.5472 0.9088 0
M  V30 15 C -0.9454 2.7911 0.2717 0
M  V30 16 O -3.7501 0.4213 0.8082 0
M  V30 17 C -4.3949 -1.6662 -0.2153 0
M  V30 18 C -2.988 -2.6979 -1.8929 0
M  V30 19 C -3.3201 2.6056 1.7377 0
M  V30 20 C -1.345 3.8477 1.095 0
M  V30 21 C -4.1517 -2.7028 -1.12 0
M  V30 22 C -2.5292 3.7537 1.8298 0
M  V30 23 H 2.2002 -1.05 0.9916 0
M  V30 24 H -0.1752 -0.6064 0.8645 0
M  V30 25 H -1.0141 0.8671 -1.6843 0
M  V30 26 H 6.0266 -1.1106 -1.5791 0
M  V30 27 H 6.2393 0.4336 -0.6635 0
M  V30 28 H 6.9019 -1.1065 -0.0046 0
M  V30 29 H 5.7087 -1.976 1.7394 0
M  V30 30 H 4.0651 -2.5532 1.3026 0
M  V30 31 H 4.2785 -1.0026 2.2219 0
M  V30 32 H -1.1568 -1.6748 -2.3532 0
M  V30 33 H -0.0185 2.8724 -0.2824 0
M  V30 34 H -5.3008 -1.6715 0.3773 0
M  V30 35 H -2.8002 -3.5025 -2.5921 0
M  V30 36 H -4.2406 2.5405 2.304 0
M  V30 37 H -0.7331 4.7376 1.1679 0
M  V30 38 H -4.8662 -3.5094 -1.2231 0
M  V30 39 H -2.8355 4.5717 2.4692 0
M  V30 END ATOM
M  V30 BEGIN BOND
M  V30 1 2 1 2
M  V30 2 1 2 3
M  V30 3 1 2 4
M  V30 4 1 3 5
M  V30 5 1 4 6
M  V30 6 2 5 7
M  V30 7 1 6 8
M  V30 8 1 6 9
M  V30 9 1 7 10
M  V30 10 1 7 11
M  V30 11 2 8 12
M  V30 12 1 8 13
M  V30 13 2 9 14
M  V30 14 1 9 15
M  V30 15 1 12 16
M  V30 16 1 12 17
M  V30 17 2 13 18
M  V30 18 1 14 19
M  V30 19 2 15 20
M  V30 20 2 17 21
M  V30 21 2 19 22
M  V30 22 1 14 16
M  V30 23 1 18 21
M  V30 24 1 20 22
M  V30 25 1 3 23
M  V30 26 1 4 24
M  V30 27 1 6 25
M  V30 28 1 10 26
M  V30 29 1 10 27
M  V30 30 1 10 28
M  V30 31 1 11 29
M  V30 32 1 11 30
M  V30 33 1 11 31
M  V30 34 1 13 32
M  V30 35 1 15 33
M  V30 36 1 17 34
M  V30 37 1 18 35
M  V30 38 1 19 36
M  V30 39 1 20 37
M  V30 40 1 21 38
M  V30 41 1 22 39
M  V30 END BOND
M  V30 END CTAB
M  END
>  <Structure No>
8197

>  <LogS>
-4.17

>  <MMFF94 Energy>
1.4849

$$$$
Compound 8198
Actelion Java MolfileCreator 2.0

  0  0  0  0  0  0              0 V3000
M  V30 BEGIN CTAB
M  V30 COUNTS 26 26 0 0 0
M  V30 BEGIN ATOM
M  V30 1 O 2.4329 0.1568 -1.1766 0
M  V30 2 C 1.7013 0.2841 0.0174 0 CFG=1
M  V30 3 C 1.1131 -1.0935 0.4241 0 CFG=2
M  V30 4 C 0.6181 1.3841 -0.1598 0 CFG=2
M  V30 5 O 1.9952 -2.1175 0.0348 0
M  V30 6 C -0.2777 -1.3104 -0.207 0 CFG=1
M  V30 7 O 1.1697 2.6281 0.1922 0
M  V30 8 C -0.6289 1.0923 0.7067 0 CFG=2
M  V30 9 O -0.7502 -2.6001 0.0931 0
M  V30 10 C -1.3043 -0.263 0.3162 0 CFG=2
M  V30 11 O -1.5449 2.1615 0.6864 0
M  V30 12 N -2.3814 -0.0849 -0.6697 0 CHG=1
M  V30 13 H 3.0154 0.9583 -1.2434 0
M  V30 14 H 2.3969 0.5854 0.8369 0
M  V30 15 H 0.9993 -1.1061 1.5357 0
M  V30 16 H 0.3033 1.3999 -1.2314 0
M  V30 17 H 1.8481 -2.8814 0.6518 0
M  V30 18 H -0.1746 -1.1941 -1.3135 0
M  V30 19 H 0.6721 3.3229 -0.3129 0
M  V30 20 H -0.2766 1.0003 1.7585 0
M  V30 21 H -0.3789 -3.2148 -0.5923 0
M  V30 22 H -1.7619 -0.6671 1.2491 0
M  V30 23 H -1.684 2.4302 -0.2588 0
M  V30 24 H -2.7746 -1.016 -0.9387 0
M  V30 25 H -3.1606 0.4769 -0.2566 0
M  V30 26 H -2.0203 0.3907 -1.5285 0
M  V30 END ATOM
M  V30 BEGIN BOND
M  V30 1 1 1 2
M  V30 2 1 2 3
M  V30 3 1 2 4
M  V30 4 1 3 5
M  V30 5 1 3 6
M  V30 6 1 4 7
M  V30 7 1 4 8
M  V30 8 1 6 9
M  V30 9 1 6 10
M  V30 10 1 8 11
M  V30 11 1 10 12
M  V30 12 1 8 10
M  V30 13 1 1 13
M  V30 14 1 2 14
M  V30 15 1 3 15
M  V30 16 1 4 16
M  V30 17 1 5 17
M  V30 18 1 6 18
M  V30 19 1 7 19
M  V30 20 1 8 20
M  V30 21 1 9 21
M  V30 22 1 10 22
M  V30 23 1 11 23
M  V30 24 1 12 24
M  V30 25 1 12 25
M  V30 26 1 12 26
M  V30 END BOND
M  V30 BEGIN COLLECTION
M  V30 MDLV30/STEABS ATOMS=(6 2 3 4 6 8 10)
M  V30 END COLLECTION
M  V30 END CTAB
M  END
>  <Structure No>
8198

>  <LogS>
-1.41

>  <MMFF94 Energy>
107.21

$$$$
Compound 8199
Actelion Java MolfileCreator 2.0

  0  0  0  0  0  0              0 V3000
M  V30 BEGIN CTAB
M  V30 COUNTS 22 22 0 0 0
M  V30 BEGIN ATOM
M  V30 1 O 5.2788 -0.9582 0.3193 0
M  V30 2 C 4.9875 0.2409 0.0642 0
M  V30 3 O 6.0032 1.1817 -0.0409 0 CHG=-1
M  V30 4 C 3.5896 0.6614 -0.1239 0
M  V30 5 C 2.5654 -0.1962 -0.035 0
M  V30 6 C 1.1638 0.2258 -0.2219 0
M  V30 7 O 0.8935 1.4278 -0.4945 0
M  V30 8 N 0.1147 -0.7508 -0.1319 0
M  V30 9 C -1.2857 -0.4278 -0.0798 0
M  V30 10 C -2.2165 -1.3067 -0.6561 0
M  V30 11 C -1.7512 0.7197 0.5894 0
M  V30 12 C -3.5852 -1.0259 -0.5986 0
M  V30 13 C -3.121 0.9963 0.6454 0
M  V30 14 C -4.0368 0.1269 0.0481 0
M  V30 15 H 3.4054 1.7066 -0.3409 0
M  V30 16 H 2.7548 -1.24 0.1842 0
M  V30 17 H 0.3814 -1.7597 -0.1935 0
M  V30 18 H -1.8792 -2.2045 -1.1583 0
M  V30 19 H -1.0636 1.3875 1.0905 0
M  V30 20 H -4.2957 -1.7037 -1.0538 0
M  V30 21 H -3.4732 1.8808 1.1604 0
M  V30 22 H -5.0966 0.342 0.0939 0
M  V30 END ATOM
M  V30 BEGIN BOND
M  V30 1 2 1 2
M  V30 2 1 2 3
M  V30 3 1 2 4
M  V30 4 2 4 5
M  V30 5 1 5 6
M  V30 6 2 6 7
M  V30 7 1 6 8
M  V30 8 1 8 9
M  V30 9 2 9 10
M  V30 10 1 9 11
M  V30 11 1 10 12
M  V30 12 2 11 13
M  V30 13 2 12 14
M  V30 14 1 13 14
M  V30 15 1 4 15
M  V30 16 1 5 16
M  V30 17 1 8 17
M  V30 18 1 10 18
M  V30 19 1 11 19
M  V30 20 1 12 20
M  V30 21 1 13 21
M  V30 22 1 14 22
M  V30 END BOND
M  V30 END CTAB
M  END
>  <Structure No>
8199

>  <LogS>
-2.72

>  <MMFF94 Energy>
-22.283

$$$$
Compound 8200
Actelion Java MolfileCreator 2.0

  0  0  0  0  0  0              0 V3000
M  V30 BEGIN CTAB
M  V30 COUNTS 32 33 0 0 0
M  V30 BEGIN ATOM
M  V30 1 S 1.1683 -2.9227 0.6675 0
M  V30 2 O 0.6745 -4.2882 0.2828 0
M  V30 3 O 1.8123 -2.9972 2.0238 0
M  V30 4 N 2.3477 -2.3968 -0.4869 0 CHG=-1
M  V30 5 C -0.1925 -1.8056 0.6882 0
M  V30 6 C 2.9987 -1.1269 -0.4158 0
M  V30 7 C -0.8186 -1.4708 1.8958 0
M  V30 8 C -0.6481 -1.2371 -0.5075 0
M  V30 9 S 2.7501 0.0377 0.7752 0
M  V30 10 N 3.8967 -0.719 -1.3358 0
M  V30 11 C -1.8913 -0.5745 1.9066 0
M  V30 12 C -1.7209 -0.3407 -0.498 0
M  V30 13 C 3.8419 1.1183 0.0895 0
M  V30 14 C 4.3743 0.5233 -1.0522 0
M  V30 15 C -2.3638 -0.0147 0.71 0
M  V30 16 C 5.3507 1.2147 -1.9455 0
M  V30 17 N -3.4532 0.9232 0.7525 0
M  V30 18 C -4.4297 1.0726 -0.2895 0
M  V30 19 O -4.5335 0.2099 -1.2028 0
M  V30 20 C -5.4004 2.2074 -0.2412 0
M  V30 21 H -0.4768 -1.8994 2.8292 0
M  V30 22 H -0.1654 -1.4783 -1.4461 0
M  V30 23 H -2.3624 -0.3221 2.8484 0
M  V30 24 H -2.0273 0.1145 -1.4301 0
M  V30 25 H 4.0834 2.1032 0.4671 0
M  V30 26 H 4.8127 1.94 -2.5909 0
M  V30 27 H 6.107 1.7553 -1.3381 0
M  V30 28 H 5.873 0.4748 -2.5879 0
M  V30 29 H -3.5928 1.4746 1.6298 0
M  V30 30 H -4.8898 3.127 0.1138 0
M  V30 31 H -6.2278 1.9566 0.4547 0
M  V30 32 H -5.8193 2.4009 -1.2515 0
M  V30 END ATOM
M  V30 BEGIN BOND
M  V30 1 2 1 2
M  V30 2 2 1 3
M  V30 3 1 1 4
M  V30 4 1 1 5
M  V30 5 1 4 6
M  V30 6 2 5 7
M  V30 7 1 5 8
M  V30 8 1 6 9
M  V30 9 2 6 10
M  V30 10 1 7 11
M  V30 11 2 8 12
M  V30 12 1 9 13
M  V30 13 1 10 14
M  V30 14 2 11 15
M  V30 15 1 14 16
M  V30 16 1 15 17
M  V30 17 1 17 18
M  V30 18 2 18 19
M  V30 19 1 18 20
M  V30 20 1 12 15
M  V30 21 2 13 14
M  V30 22 1 7 21
M  V30 23 1 8 22
M  V30 24 1 11 23
M  V30 25 1 12 24
M  V30 26 1 13 25
M  V30 27 1 16 26
M  V30 28 1 16 27
M  V30 29 1 16 28
M  V30 30 1 17 29
M  V30 31 1 20 30
M  V30 32 1 20 31
M  V30 33 1 20 32
M  V30 END BOND
M  V30 END CTAB
M  END
>  <Structure No>
8200

>  <LogS>
-4.15

>  <MMFF94 Energy>
41

$$$$
Compound 8201
Actelion Java MolfileCreator 2.0

  0  0  0  0  0  0              0 V3000
M  V30 BEGIN CTAB
M  V30 COUNTS 37 39 0 0 0
M  V30 BEGIN ATOM
M  V30 1 S 2.0472 1.8014 2.0472 0
M  V30 2 O 1.6804 3.1946 1.6176 0
M  V30 3 O 2.9152 1.8769 3.2711 0
M  V30 4 N 0.597 0.9295 2.4221 0
M  V30 5 C 2.9288 0.9712 0.7696 0
M  V30 6 C -0.3923 0.6422 1.4297 0
M  V30 7 C 3.0095 -0.4276 0.7735 0
M  V30 8 C 3.5519 1.6986 -0.2541 0
M  V30 9 N -1.4947 -0.0768 1.7668 0
M  V30 10 N -0.2357 1.0768 0.1511 0
M  V30 11 C 3.7009 -1.0951 -0.2415 0
M  V30 12 C 4.246 1.0312 -1.2678 0
M  V30 13 C -2.4583 -0.369 0.8531 0
M  V30 14 C -1.1604 0.8006 -0.8027 0
M  V30 15 C 4.3225 -0.369 -1.2672 0
M  V30 16 C -2.2971 0.0504 -0.4832 0
M  V30 17 C -3.6222 -1.2267 1.2762 0
M  V30 18 N 5.0312 -1.0515 -2.3046 0
M  V30 19 C -3.3592 -0.188 -1.5292 0
M  V30 20 C -4.8027 -1.1327 0.3034 0
M  V30 21 C -4.323 -1.3138 -1.1378 0
M  V30 22 H 0.4562 0.5916 3.4001 0
M  V30 23 H 2.5357 -1.0006 1.5608 0
M  V30 24 H 3.5015 2.7801 -0.2697 0
M  V30 25 H 3.7534 -2.1765 -0.228 0
M  V30 26 H 4.7232 1.6045 -2.0531 0
M  V30 27 H -1.0111 1.1699 -1.8093 0
M  V30 28 H -3.962 -0.9193 2.2888 0
M  V30 29 H -3.2788 -2.2822 1.3344 0
M  V30 30 H 5.4988 -0.5189 -3.0721 0
M  V30 31 H 5.0933 -2.0942 -2.3129 0
M  V30 32 H -3.9347 0.7529 -1.6681 0
M  V30 33 H -2.8828 -0.4459 -2.5001 0
M  V30 34 H -5.5448 -1.9227 0.5491 0
M  V30 35 H -5.3024 -0.1447 0.4122 0
M  V30 36 H -5.1973 -1.3042 -1.8238 0
M  V30 37 H -3.8143 -2.2977 -1.2436 0
M  V30 END ATOM
M  V30 BEGIN BOND
M  V30 1 2 1 2
M  V30 2 2 1 3
M  V30 3 1 1 4
M  V30 4 1 1 5
M  V30 5 1 4 6
M  V30 6 2 5 7
M  V30 7 1 5 8
M  V30 8 2 6 9
M  V30 9 1 6 10
M  V30 10 1 7 11
M  V30 11 2 8 12
M  V30 12 1 9 13
M  V30 13 2 10 14
M  V30 14 2 11 15
M  V30 15 2 13 16
M  V30 16 1 13 17
M  V30 17 1 15 18
M  V30 18 1 16 19
M  V30 19 1 17 20
M  V30 20 1 19 21
M  V30 21 1 12 15
M  V30 22 1 14 16
M  V30 23 1 20 21
M  V30 24 1 4 22
M  V30 25 1 7 23
M  V30 26 1 8 24
M  V30 27 1 11 25
M  V30 28 1 12 26
M  V30 29 1 14 27
M  V30 30 1 17 28
M  V30 31 1 17 29
M  V30 32 1 18 30
M  V30 33 1 18 31
M  V30 34 1 19 32
M  V30 35 1 19 33
M  V30 36 1 20 34
M  V30 37 1 20 35
M  V30 38 1 21 36
M  V30 39 1 21 37
M  V30 END BOND
M  V30 END CTAB
M  END
>  <Structure No>
8201

>  <LogS>
-3.65

>  <MMFF94 Energy>
-132.12

$$$$
Compound 8202
Actelion Java MolfileCreator 2.0

  0  0  0  0  0  0              0 V3000
M  V30 BEGIN CTAB
M  V30 COUNTS 33 34 0 0 0
M  V30 BEGIN ATOM
M  V30 1 O -3.96 1.1302 -0.8879 0
M  V30 2 C -2.8308 0.6307 -0.6353 0
M  V30 3 N -1.7463 1.3761 -0.0866 0
M  V30 4 N -2.5265 -0.7408 -0.8191 0
M  V30 5 C -0.6431 0.4449 0.1712 0 CFG=1
M  V30 6 C -1.8756 2.7005 0.5194 0
M  V30 7 C -1.2223 -0.8739 -0.266 0
M  V30 8 C -3.5034 -1.8143 -0.953 0
M  V30 9 C 0.5913 0.8369 -0.6589 0
M  V30 10 C -2.4671 2.5865 1.888 0
M  V30 11 O -0.6567 -1.9877 -0.1009 0
M  V30 12 C 1.7758 -0.0422 -0.3492 0
M  V30 13 O -1.7207 2.4262 2.8892 0
M  V30 14 O -3.846 2.6072 2.0538 0 CHG=-1
M  V30 15 C 2.1528 -1.0684 -1.2314 0
M  V30 16 C 2.4982 0.1412 0.8413 0
M  V30 17 C 3.2402 -1.8937 -0.9291 0
M  V30 18 C 3.5854 -0.6851 1.141 0
M  V30 19 C 3.9592 -1.7051 0.2557 0
M  V30 20 O 5.0402 -2.5352 0.5439 0
M  V30 21 H -0.4121 0.4184 1.2587 0
M  V30 22 H -0.8798 3.1881 0.5821 0
M  V30 23 H -2.524 3.3418 -0.1151 0
M  V30 24 H -3.9452 -2.043 0.0394 0
M  V30 25 H -3.012 -2.7248 -1.3556 0
M  V30 26 H -4.3092 -1.508 -1.6526 0
M  V30 27 H 0.3454 0.7966 -1.7435 0
M  V30 28 H 0.8674 1.8893 -0.4339 0
M  V30 29 H 1.6025 -1.2327 -2.1497 0
M  V30 30 H 2.2174 0.9228 1.5364 0
M  V30 31 H 3.523 -2.682 -1.6151 0
M  V30 32 H 4.1348 -0.5333 2.0614 0
M  V30 33 H 5.5806 -2.4244 1.3939 0
M  V30 END ATOM
M  V30 BEGIN BOND
M  V30 1 2 1 2
M  V30 2 1 2 3
M  V30 3 1 2 4
M  V30 4 1 3 5
M  V30 5 1 3 6
M  V30 6 1 4 7
M  V30 7 1 4 8
M  V30 8 1 5 9
M  V30 9 1 6 10
M  V30 10 2 7 11
M  V30 11 1 9 12
M  V30 12 2 10 13
M  V30 13 1 10 14
M  V30 14 2 12 15
M  V30 15 1 12 16
M  V30 16 1 15 17
M  V30 17 2 16 18
M  V30 18 2 17 19
M  V30 19 1 19 20
M  V30 20 1 5 7
M  V30 21 1 18 19
M  V30 22 1 5 21
M  V30 23 1 6 22
M  V30 24 1 6 23
M  V30 25 1 8 24
M  V30 26 1 8 25
M  V30 27 1 8 26
M  V30 28 1 9 27
M  V30 29 1 9 28
M  V30 30 1 15 29
M  V30 31 1 16 30
M  V30 32 1 17 31
M  V30 33 1 18 32
M  V30 34 1 20 33
M  V30 END BOND
M  V30 BEGIN COLLECTION
M  V30 MDLV30/STEABS ATOMS=(1 5)
M  V30 END COLLECTION
M  V30 END CTAB
M  END
>  <Structure No>
8202

>  <LogS>
-0.05

>  <MMFF94 Energy>
4.492

$$$$
Compound 8203
Actelion Java MolfileCreator 2.0

  0  0  0  0  0  0              0 V3000
M  V30 BEGIN CTAB
M  V30 COUNTS 43 43 0 0 0
M  V30 BEGIN ATOM
M  V30 1 O 1.5795 0.0789 2.8445 0
M  V30 2 C 1.9414 -0.5569 1.8191 0
M  V30 3 O 2.8907 -1.5642 1.936 0 CHG=-1
M  V30 4 C 1.3779 -0.2089 0.4689 0 CFG=1
M  V30 5 N -0.0852 -0.1531 0.5445 0
M  V30 6 C 1.9387 1.1367 -0.0301 0
M  V30 7 C -0.8879 -1.3387 0.664 0
M  V30 8 C 3.4237 1.0644 -0.2846 0
M  V30 9 O -0.3393 -2.4744 0.6736 0
M  V30 10 C -2.392 -1.2452 0.7729 0 CFG=1
M  V30 11 C 4.335 1.506 0.689 0
M  V30 12 C 3.9093 0.5118 -1.4808 0
M  V30 13 N -2.7692 -0.4452 1.946 0 CHG=1
M  V30 14 C -2.9834 -0.6738 -0.5389 0
M  V30 15 C 5.7112 1.4093 0.4619 0
M  V30 16 C 5.2859 0.4166 -1.7058 0
M  V30 17 C -4.536 -0.7269 -0.5944 0
M  V30 18 C 6.1906 0.8662 -0.7344 0
M  V30 19 C -5.1583 0.6329 -0.2395 0
M  V30 20 C -5.019 -1.1616 -1.9854 0
M  V30 21 O 7.5643 0.776 -0.947 0
M  V30 22 H 1.6654 -0.9967 -0.2628 0
M  V30 23 H -0.562 0.7767 0.525 0
M  V30 24 H 1.7109 1.9411 0.7044 0
M  V30 25 H 1.4258 1.4151 -0.9771 0
M  V30 26 H -2.7884 -2.2779 0.9087 0
M  V30 27 H 3.9802 1.9211 1.6243 0
M  V30 28 H 3.2215 0.1533 -2.2367 0
M  V30 29 H -2.2282 -0.7616 2.7839 0
M  V30 30 H -3.7831 -0.5829 2.1589 0
M  V30 31 H -2.5822 0.5709 1.7842 0
M  V30 32 H -2.5614 -1.2752 -1.3757 0
M  V30 33 H -2.6245 0.3663 -0.7014 0
M  V30 34 H 6.4057 1.754 1.2175 0
M  V30 35 H 5.648 -0.0089 -2.633 0
M  V30 36 H -4.9159 -1.4807 0.1303 0
M  V30 37 H -4.8351 0.9702 0.7653 0
M  V30 38 H -4.8613 1.4048 -0.9819 0
M  V30 39 H -6.2666 0.5555 -0.2317 0
M  V30 40 H -4.6382 -2.1782 -2.2217 0
M  V30 41 H -6.1292 -1.1978 -2.0153 0
M  V30 42 H -4.6609 -0.453 -2.7631 0
M  V30 43 H 7.943 0.387 -1.8026 0
M  V30 END ATOM
M  V30 BEGIN BOND
M  V30 1 2 1 2
M  V30 2 1 2 3
M  V30 3 1 2 4
M  V30 4 1 4 5
M  V30 5 1 4 6
M  V30 6 1 5 7
M  V30 7 1 6 8
M  V30 8 2 7 9
M  V30 9 1 7 10
M  V30 10 2 8 11
M  V30 11 1 8 12
M  V30 12 1 10 13
M  V30 13 1 10 14
M  V30 14 1 11 15
M  V30 15 2 12 16
M  V30 16 1 14 17
M  V30 17 2 15 18
M  V30 18 1 17 19
M  V30 19 1 17 20
M  V30 20 1 18 21
M  V30 21 1 16 18
M  V30 22 1 4 22
M  V30 23 1 5 23
M  V30 24 1 6 24
M  V30 25 1 6 25
M  V30 26 1 10 26
M  V30 27 1 11 27
M  V30 28 1 12 28
M  V30 29 1 13 29
M  V30 30 1 13 30
M  V30 31 1 13 31
M  V30 32 1 14 32
M  V30 33 1 14 33
M  V30 34 1 15 34
M  V30 35 1 16 35
M  V30 36 1 17 36
M  V30 37 1 19 37
M  V30 38 1 19 38
M  V30 39 1 19 39
M  V30 40 1 20 40
M  V30 41 1 20 41
M  V30 42 1 20 42
M  V30 43 1 21 43
M  V30 END BOND
M  V30 BEGIN COLLECTION
M  V30 MDLV30/STEABS ATOMS=(2 4 10)
M  V30 END COLLECTION
M  V30 END CTAB
M  END
>  <Structure No>
8203

>  <LogS>
-1.58

>  <MMFF94 Energy>
31.963

$$$$
Compound 8204
Actelion Java MolfileCreator 2.0

  0  0  0  0  0  0              0 V3000
M  V30 BEGIN CTAB
M  V30 COUNTS 39 39 0 0 0
M  V30 BEGIN ATOM
M  V30 1 O 0.3125 -1.4068 1.1722 0
M  V30 2 C 0.0623 -0.2727 0.6797 0
M  V30 3 N -1.0712 -0.0937 -0.1804 0
M  V30 4 N 0.912 0.8438 0.9761 0
M  V30 5 C -1.9995 -1.1876 -0.4965 0
M  V30 6 C 2.108 0.7282 1.8101 0
M  V30 7 C -2.8988 -1.5123 0.7132 0
M  V30 8 C -2.8561 -0.8519 -1.7366 0
M  V30 9 C 3.2376 -0.0371 1.0885 0
M  V30 10 C -3.9062 -0.3896 0.9897 0
M  V30 11 C -3.8975 0.2428 -1.4546 0
M  V30 12 N 4.0658 0.8282 0.2132 0 CHG=1
M  V30 13 C -4.7687 -0.1148 -0.2461 0
M  V30 14 C 5.2689 0.0928 -0.2163 0
M  V30 15 C 3.3189 1.2859 -0.9734 0
M  V30 16 H -1.184 0.8347 -0.6454 0
M  V30 17 H 0.6139 1.7949 0.663 0
M  V30 18 H -1.4037 -2.0939 -0.7444 0
M  V30 19 H 2.4592 1.7412 2.1026 0
M  V30 20 H 1.8409 0.1951 2.7485 0
M  V30 21 H -3.4514 -2.4569 0.5142 0
M  V30 22 H -2.28 -1.6793 1.6201 0
M  V30 23 H -3.384 -1.7719 -2.0717 0
M  V30 24 H -2.1963 -0.527 -2.5701 0
M  V30 25 H 2.8253 -0.8975 0.5158 0
M  V30 26 H 3.8808 -0.4723 1.887 0
M  V30 27 H -3.3675 0.5368 1.287 0
M  V30 28 H -4.5634 -0.6879 1.8346 0
M  V30 29 H -3.3938 1.2164 -1.2748 0
M  V30 30 H -4.5475 0.3643 -2.3476 0
M  V30 31 H 4.3844 1.6675 0.7533 0
M  V30 32 H -5.3834 -1.0116 -0.4805 0
M  V30 33 H -5.4606 0.7275 -0.0305 0
M  V30 34 H 5.9231 0.7419 -0.8393 0
M  V30 35 H 4.9955 -0.8109 -0.8056 0
M  V30 36 H 5.87 -0.2226 0.6647 0
M  V30 37 H 2.5485 2.0298 -0.686 0
M  V30 38 H 3.9938 1.803 -1.6907 0
M  V30 39 H 2.8323 0.4338 -1.4978 0
M  V30 END ATOM
M  V30 BEGIN BOND
M  V30 1 2 1 2
M  V30 2 1 2 3
M  V30 3 1 2 4
M  V30 4 1 3 5
M  V30 5 1 4 6
M  V30 6 1 5 7
M  V30 7 1 5 8
M  V30 8 1 6 9
M  V30 9 1 7 10
M  V30 10 1 8 11
M  V30 11 1 9 12
M  V30 12 1 10 13
M  V30 13 1 12 14
M  V30 14 1 12 15
M  V30 15 1 11 13
M  V30 16 1 3 16
M  V30 17 1 4 17
M  V30 18 1 5 18
M  V30 19 1 6 19
M  V30 20 1 6 20
M  V30 21 1 7 21
M  V30 22 1 7 22
M  V30 23 1 8 23
M  V30 24 1 8 24
M  V30 25 1 9 25
M  V30 26 1 9 26
M  V30 27 1 10 27
M  V30 28 1 10 28
M  V30 29 1 11 29
M  V30 30 1 11 30
M  V30 31 1 12 31
M  V30 32 1 13 32
M  V30 33 1 13 33
M  V30 34 1 14 34
M  V30 35 1 14 35
M  V30 36 1 14 36
M  V30 37 1 15 37
M  V30 38 1 15 38
M  V30 39 1 15 39
M  V30 END BOND
M  V30 END CTAB
M  END
>  <Structure No>
8204

>  <LogS>
-0.66

>  <MMFF94 Energy>
-85.656

$$$$
Compound 8205
Actelion Java MolfileCreator 2.0

  0  0  0  0  0  0              0 V3000
M  V30 BEGIN CTAB
M  V30 COUNTS 41 41 0 0 0
M  V30 BEGIN ATOM
M  V30 1 O 1.0165 -1.1729 1.3294 0
M  V30 2 C 1.5601 -0.6058 0.3415 0
M  V30 3 O 0.8108 -0.3266 -0.8088 0
M  V30 4 C 2.992 -0.238 0.3927 0
M  V30 5 C -0.585 -0.6033 -0.9304 0 CFG=1
M  V30 6 C 3.7639 -0.5114 1.5367 0
M  V30 7 C 3.6018 0.3932 -0.7055 0
M  V30 8 C -1.4028 0.4606 -0.1539 0
M  V30 9 C -0.9436 -0.6036 -2.419 0
M  V30 10 C 5.1165 -0.1604 1.5792 0
M  V30 11 C 4.9546 0.7432 -0.6604 0
M  V30 12 N -2.7838 8.0E-4 0.1668 0 CHG=1
M  V30 13 C 5.7182 0.4682 0.4814 0
M  V30 14 C -2.7772 -0.7996 1.4219 0
M  V30 15 C -3.6989 1.1664 0.3011 0
M  V30 16 N 7.1019 0.8267 0.5261 0
M  V30 17 C -3.9468 -1.7893 1.4875 0
M  V30 18 C -4.2129 1.6575 -1.0577 0
M  V30 19 H -0.7894 -1.6218 -0.5342 0
M  V30 20 H 3.3234 -0.996 2.3992 0
M  V30 21 H 3.0349 0.6179 -1.6003 0
M  V30 22 H -0.8677 0.7365 0.7833 0
M  V30 23 H -1.4095 1.395 -0.7571 0
M  V30 24 H -0.7388 0.3911 -2.8691 0
M  V30 25 H -2.0121 -0.858 -2.5745 0
M  V30 26 H -0.3288 -1.3616 -2.9491 0
M  V30 27 H 5.6955 -0.3785 2.4679 0
M  V30 28 H 5.4076 1.2288 -1.5157 0
M  V30 29 H -3.133 -0.6077 -0.6101 0
M  V30 30 H -2.804 -0.1363 2.3166 0
M  V30 31 H -1.8469 -1.4031 1.5074 0
M  V30 32 H -4.5955 0.9071 0.9046 0
M  V30 33 H -3.1963 2.0069 0.8321 0
M  V30 34 H 7.5591 1.2957 -0.2873 0
M  V30 35 H 7.6792 0.6258 1.373 0
M  V30 36 H -3.8902 -2.3654 2.435 0
M  V30 37 H -4.9229 -1.2645 1.4579 0
M  V30 38 H -3.8921 -2.504 0.6392 0
M  V30 39 H -3.379 1.9786 -1.7139 0
M  V30 40 H -4.8905 2.524 -0.9055 0
M  V30 41 H -4.7834 0.8511 -1.5654 0
M  V30 END ATOM
M  V30 BEGIN BOND
M  V30 1 2 1 2
M  V30 2 1 2 3
M  V30 3 1 2 4
M  V30 4 1 3 5
M  V30 5 2 4 6
M  V30 6 1 4 7
M  V30 7 1 5 8
M  V30 8 1 5 9
M  V30 9 1 6 10
M  V30 10 2 7 11
M  V30 11 1 8 12
M  V30 12 2 10 13
M  V30 13 1 12 14
M  V30 14 1 12 15
M  V30 15 1 13 16
M  V30 16 1 14 17
M  V30 17 1 15 18
M  V30 18 1 11 13
M  V30 19 1 5 19
M  V30 20 1 6 20
M  V30 21 1 7 21
M  V30 22 1 8 22
M  V30 23 1 8 23
M  V30 24 1 9 24
M  V30 25 1 9 25
M  V30 26 1 9 26
M  V30 27 1 10 27
M  V30 28 1 11 28
M  V30 29 1 12 29
M  V30 30 1 14 30
M  V30 31 1 14 31
M  V30 32 1 15 32
M  V30 33 1 15 33
M  V30 34 1 16 34
M  V30 35 1 16 35
M  V30 36 1 17 36
M  V30 37 1 17 37
M  V30 38 1 17 38
M  V30 39 1 18 39
M  V30 40 1 18 40
M  V30 41 1 18 41
M  V30 END BOND
M  V30 BEGIN COLLECTION
M  V30 MDLV30/STEABS ATOMS=(1 5)
M  V30 END COLLECTION
M  V30 END CTAB
M  END
>  <Structure No>
8205

>  <LogS>
-2.35

>  <MMFF94 Energy>
40.719

$$$$
Compound 8206
Actelion Java MolfileCreator 2.0

  0  0  0  0  0  0              0 V3000
M  V30 BEGIN CTAB
M  V30 COUNTS 41 41 0 0 0
M  V30 BEGIN ATOM
M  V30 1 O 0.939 -1.2522 1.4088 0
M  V30 2 C 1.5246 -0.2892 0.8406 0
M  V30 3 O 0.8375 0.9073 0.5984 0
M  V30 4 C 2.9401 -0.4189 0.4317 0
M  V30 5 C -0.5513 1.0885 0.8758 0
M  V30 6 C 3.589 0.6425 -0.2233 0
M  V30 7 C 3.6563 -1.6026 0.6863 0
M  V30 8 C -1.4442 0.347 -0.1604 0 CFG=1
M  V30 9 C 4.9261 0.5227 -0.6141 0
M  V30 10 C 4.9934 -1.7198 0.2946 0
M  V30 11 N -2.9082 0.6008 0.0662 0 CHG=1
M  V30 12 C -1.0091 0.7863 -1.5794 0
M  V30 13 C 5.6345 -0.6581 -0.3569 0
M  V30 14 C -3.7756 -0.1339 -0.91 0
M  V30 15 C -3.3581 0.3167 1.4595 0
M  V30 16 N 7.002 -0.7793 -0.7572 0
M  V30 17 C -4.3668 0.7914 -1.9811 0
M  V30 18 C -3.0725 -1.1181 1.933 0
M  V30 19 H -0.7419 0.7409 1.911 0
M  V30 20 H -0.7762 2.1757 0.8399 0
M  V30 21 H 3.0646 1.5658 -0.436 0
M  V30 22 H 3.1845 -2.4382 1.1881 0
M  V30 23 H -1.2377 -0.7426 -0.081 0
M  V30 24 H 5.4097 1.3505 -1.1176 0
M  V30 25 H 5.5295 -2.6381 0.4991 0
M  V30 26 H -3.0577 1.6312 -0.06 0
M  V30 27 H -1.5048 0.1794 -2.3627 0
M  V30 28 H -1.2429 1.8597 -1.7437 0
M  V30 29 H 0.0804 0.6359 -1.7286 0
M  V30 30 H -4.6468 -0.6213 -0.4166 0
M  V30 31 H -3.2281 -0.9675 -1.402 0
M  V30 32 H -4.4534 0.5005 1.5444 0
M  V30 33 H -2.9108 1.0389 2.1751 0
M  V30 34 H 7.5381 -1.6559 -0.5699 0
M  V30 35 H 7.4882 0.0066 -1.2437 0
M  V30 36 H -4.9696 0.194 -2.6974 0
M  V30 37 H -5.0298 1.5454 -1.506 0
M  V30 38 H -3.5717 1.318 -2.5449 0
M  V30 39 H -3.5741 -1.2866 2.9092 0
M  V30 40 H -1.9863 -1.2831 2.081 0
M  V30 41 H -3.4586 -1.8666 1.2114 0
M  V30 END ATOM
M  V30 BEGIN BOND
M  V30 1 2 1 2
M  V30 2 1 2 3
M  V30 3 1 2 4
M  V30 4 1 3 5
M  V30 5 2 4 6
M  V30 6 1 4 7
M  V30 7 1 5 8
M  V30 8 1 6 9
M  V30 9 2 7 10
M  V30 10 1 8 11
M  V30 11 1 8 12
M  V30 12 2 9 13
M  V30 13 1 11 14
M  V30 14 1 11 15
M  V30 15 1 13 16
M  V30 16 1 14 17
M  V30 17 1 15 18
M  V30 18 1 10 13
M  V30 19 1 5 19
M  V30 20 1 5 20
M  V30 21 1 6 21
M  V30 22 1 7 22
M  V30 23 1 8 23
M  V30 24 1 9 24
M  V30 25 1 10 25
M  V30 26 1 11 26
M  V30 27 1 12 27
M  V30 28 1 12 28
M  V30 29 1 12 29
M  V30 30 1 14 30
M  V30 31 1 14 31
M  V30 32 1 15 32
M  V30 33 1 15 33
M  V30 34 1 16 34
M  V30 35 1 16 35
M  V30 36 1 17 36
M  V30 37 1 17 37
M  V30 38 1 17 38
M  V30 39 1 18 39
M  V30 40 1 18 40
M  V30 41 1 18 41
M  V30 END BOND
M  V30 BEGIN COLLECTION
M  V30 MDLV30/STEABS ATOMS=(1 8)
M  V30 END COLLECTION
M  V30 END CTAB
M  END
>  <Structure No>
8206

>  <LogS>
-2.38

>  <MMFF94 Energy>
40.021

$$$$
Compound 8207
Actelion Java MolfileCreator 2.0

  0  0  0  0  0  0              0 V3000
M  V30 BEGIN CTAB
M  V30 COUNTS 43 43 0 0 0
M  V30 BEGIN ATOM
M  V30 1 O -3.002 1.4211 -2.3694 0
M  V30 2 C -2.5413 0.4612 -1.6974 0
M  V30 3 O -2.186 -0.7186 -2.34 0 CHG=-1
M  V30 4 C -2.3941 0.5843 -0.2065 0 CFG=2
M  V30 5 N -1.0229 0.2323 0.1743 0
M  V30 6 C -3.3993 -0.3323 0.5262 0
M  V30 7 C 0.0902 1.0981 -0.0952 0
M  V30 8 C -4.8879 -0.0101 0.2419 0
M  V30 9 O -0.0942 2.2056 -0.6711 0
M  V30 10 C 1.4916 0.6563 0.249 0 CFG=2
M  V30 11 C -5.7822 -1.0916 0.8624 0
M  V30 12 C -5.2935 1.3706 0.78 0
M  V30 13 N 2.2747 1.7833 0.7762 0 CHG=1
M  V30 14 C 2.1557 0.0421 -1.0004 0
M  V30 15 C 3.4859 -0.5884 -0.677 0
M  V30 16 C 4.6827 0.1002 -0.9354 0
M  V30 17 C 3.5383 -1.8585 -0.0798 0
M  V30 18 C 5.9132 -0.479 -0.6113 0
M  V30 19 C 4.77 -2.4357 0.2428 0
M  V30 20 C 5.9612 -1.7469 -0.023 0
M  V30 21 O 7.1944 -2.3116 0.2945 0
M  V30 22 H -2.5789 1.6348 0.1047 0
M  V30 23 H -0.8369 -0.6896 0.6314 0
M  V30 24 H -3.194 -1.3857 0.2306 0
M  V30 25 H -3.2154 -0.2605 1.6214 0
M  V30 26 H -5.0661 -0.0243 -0.8553 0
M  V30 27 H 1.4265 -0.1256 1.0393 0
M  V30 28 H -5.6544 -1.12 1.9661 0
M  V30 29 H -5.5255 -2.0888 0.4456 0
M  V30 30 H -6.8497 -0.8898 0.6299 0
M  V30 31 H -5.0387 1.4635 1.8575 0
M  V30 32 H -4.7853 2.1774 0.2133 0
M  V30 33 H -6.3869 1.5256 0.6584 0
M  V30 34 H 2.4552 2.4936 0.0294 0
M  V30 35 H 3.1885 1.4395 1.1502 0
M  V30 36 H 1.7578 2.2372 1.5647 0
M  V30 37 H 2.2776 0.8206 -1.786 0
M  V30 38 H 1.4879 -0.7393 -1.4269 0
M  V30 39 H 4.6626 1.0862 -1.3827 0
M  V30 40 H 2.6252 -2.3993 0.1365 0
M  V30 41 H 6.8301 0.059 -0.8152 0
M  V30 42 H 4.7976 -3.4161 0.701 0
M  V30 43 H 7.2626 -3.2278 0.7218 0
M  V30 END ATOM
M  V30 BEGIN BOND
M  V30 1 2 1 2
M  V30 2 1 2 3
M  V30 3 1 2 4
M  V30 4 1 4 5
M  V30 5 1 4 6
M  V30 6 1 5 7
M  V30 7 1 6 8
M  V30 8 2 7 9
M  V30 9 1 7 10
M  V30 10 1 8 11
M  V30 11 1 8 12
M  V30 12 1 10 13
M  V30 13 1 10 14
M  V30 14 1 14 15
M  V30 15 2 15 16
M  V30 16 1 15 17
M  V30 17 1 16 18
M  V30 18 2 17 19
M  V30 19 2 18 20
M  V30 20 1 20 21
M  V30 21 1 19 20
M  V30 22 1 4 22
M  V30 23 1 5 23
M  V30 24 1 6 24
M  V30 25 1 6 25
M  V30 26 1 8 26
M  V30 27 1 10 27
M  V30 28 1 11 28
M  V30 29 1 11 29
M  V30 30 1 11 30
M  V30 31 1 12 31
M  V30 32 1 12 32
M  V30 33 1 12 33
M  V30 34 1 13 34
M  V30 35 1 13 35
M  V30 36 1 13 36
M  V30 37 1 14 37
M  V30 38 1 14 38
M  V30 39 1 16 39
M  V30 40 1 17 40
M  V30 41 1 18 41
M  V30 42 1 19 42
M  V30 43 1 21 43
M  V30 END BOND
M  V30 BEGIN COLLECTION
M  V30 MDLV30/STEABS ATOMS=(2 4 10)
M  V30 END COLLECTION
M  V30 END CTAB
M  END
>  <Structure No>
8207

>  <LogS>
-2.07

>  <MMFF94 Energy>
4.0981

$$$$
Compound 8208
Actelion Java MolfileCreator 2.0

  0  0  0  0  0  0              0 V3000
M  V30 BEGIN CTAB
M  V30 COUNTS 44 45 0 0 0
M  V30 BEGIN ATOM
M  V30 1 O -0.9446 -1.3384 0.0 0
M  V30 2 C -1.3952 -0.1637 0.0761 0
M  V30 3 N -2.6968 0.1616 -0.0593 0
M  V30 4 C -0.6663 0.9701 0.3773 0
M  V30 5 N -2.8243 1.4714 0.147 0
M  V30 6 C -3.7673 -0.7587 -0.3378 0
M  V30 7 N 0.7374 1.066 0.6646 0
M  V30 8 C -1.6074 1.9878 0.4541 0
M  V30 9 C -4.0772 2.2261 0.0548 0
M  V30 10 C -4.8848 -0.8283 0.5099 0
M  V30 11 C -3.6886 -1.6188 -1.4449 0
M  V30 12 C 1.7346 0.2607 0.0212 0
M  V30 13 C -1.3329 3.4398 0.7155 0
M  V30 14 C -5.9166 -1.7332 0.2423 0
M  V30 15 C -4.7223 -2.5224 -1.7098 0
M  V30 16 O 1.4442 -0.4156 -1.0029 0
M  V30 17 N 3.0767 0.2591 0.5228 0
M  V30 18 C -5.8365 -2.5783 -0.8678 0
M  V30 19 C 4.1297 -0.5304 -0.1149 0
M  V30 20 C 5.4617 -0.3657 0.6295 0
M  V30 21 C 6.5693 -1.2697 0.0675 0
M  V30 22 C 7.0544 -0.8225 -1.311 0
M  V30 23 H 1.0597 1.7943 1.339 0
M  V30 24 H -4.7762 1.7382 -0.6553 0
M  V30 25 H -3.886 3.2514 -0.3248 0
M  V30 26 H -4.5487 2.2902 1.0572 0
M  V30 27 H -4.9489 -0.1924 1.3833 0
M  V30 28 H -2.8322 -1.5799 -2.106 0
M  V30 29 H -1.2909 3.9862 -0.2491 0
M  V30 30 H -0.3725 3.5778 1.2505 0
M  V30 31 H -2.1385 3.8703 1.346 0
M  V30 32 H -6.7761 -1.7825 0.8984 0
M  V30 33 H -4.6597 -3.1792 -2.5677 0
M  V30 34 H 3.2943 0.8374 1.3663 0
M  V30 35 H -6.6355 -3.2787 -1.0734 0
M  V30 36 H 3.8328 -1.6019 -0.1113 0
M  V30 37 H 4.2419 -0.1926 -1.1667 0
M  V30 38 H 5.7849 0.6976 0.5919 0
M  V30 39 H 5.3065 -0.6342 1.6974 0
M  V30 40 H 7.4334 -1.241 0.7662 0
M  V30 41 H 6.2151 -2.3221 0.0148 0
M  V30 42 H 6.2585 -0.9596 -2.0718 0
M  V30 43 H 7.365 0.2436 -1.2872 0
M  V30 44 H 7.9284 -1.4379 -1.6115 0
M  V30 END ATOM
M  V30 BEGIN BOND
M  V30 1 2 1 2
M  V30 2 1 2 3
M  V30 3 1 2 4
M  V30 4 1 3 5
M  V30 5 1 3 6
M  V30 6 1 4 7
M  V30 7 2 4 8
M  V30 8 1 5 9
M  V30 9 2 6 10
M  V30 10 1 6 11
M  V30 11 1 7 12
M  V30 12 1 8 13
M  V30 13 1 10 14
M  V30 14 2 11 15
M  V30 15 2 12 16
M  V30 16 1 12 17
M  V30 17 2 14 18
M  V30 18 1 17 19
M  V30 19 1 19 20
M  V30 20 1 20 21
M  V30 21 1 21 22
M  V30 22 1 5 8
M  V30 23 1 15 18
M  V30 24 1 7 23
M  V30 25 1 9 24
M  V30 26 1 9 25
M  V30 27 1 9 26
M  V30 28 1 10 27
M  V30 29 1 11 28
M  V30 30 1 13 29
M  V30 31 1 13 30
M  V30 32 1 13 31
M  V30 33 1 14 32
M  V30 34 1 15 33
M  V30 35 1 17 34
M  V30 36 1 18 35
M  V30 37 1 19 36
M  V30 38 1 19 37
M  V30 39 1 20 38
M  V30 40 1 20 39
M  V30 41 1 21 40
M  V30 42 1 21 41
M  V30 43 1 22 42
M  V30 44 1 22 43
M  V30 45 1 22 44
M  V30 END BOND
M  V30 END CTAB
M  END
>  <Structure No>
8208

>  <LogS>
-1.63

>  <MMFF94 Energy>
25.344

$$$$
Compound 8209
Actelion Java MolfileCreator 2.0

  0  0  0  0  0  0              0 V3000
M  V30 BEGIN CTAB
M  V30 COUNTS 26 28 0 0 0
M  V30 BEGIN ATOM
M  V30 1 O -1.1412 -0.652 1.8754 0
M  V30 2 C -1.5269 -0.0777 0.8227 0
M  V30 3 C -0.5651 0.7311 0.049 0
M  V30 4 C -2.9293 -0.2314 0.4019 0
M  V30 5 N -0.8044 1.948 -0.465 0 CHG=1
M  V30 6 C 0.7773 0.479 -0.1915 0
M  V30 7 O -3.8681 -0.7263 1.1761 0
M  V30 8 C -3.4593 0.0783 -0.8374 0
M  V30 9 O 0.3025 2.3929 -0.9758 0
M  V30 10 O -1.9593 2.6857 -0.3466 0 CHG=-1
M  V30 11 N 1.2842 1.5444 -0.8525 0
M  V30 12 C 1.5361 -0.7519 0.1151 0
M  V30 13 C -4.9976 -0.75 0.5065 0
M  V30 14 C -4.7946 -0.2546 -0.7651 0
M  V30 15 O 0.9106 -1.8274 0.3126 0
M  V30 16 C 3.0099 -0.7792 0.1695 0
M  V30 17 O 3.7057 -1.8934 0.2 0
M  V30 18 C 3.8679 0.3061 0.2202 0
M  V30 19 C 4.9827 -1.5946 0.2615 0
M  V30 20 C 5.1383 -0.2245 0.2769 0
M  V30 21 H -2.9391 0.4793 -1.6971 0
M  V30 22 H -5.9369 -1.1094 0.9051 0
M  V30 23 H -5.5326 -0.1557 -1.5499 0
M  V30 24 H 3.6141 1.3567 0.2401 0
M  V30 25 H 5.7802 -2.3246 0.297 0
M  V30 26 H 6.0695 0.3231 0.3328 0
M  V30 END ATOM
M  V30 BEGIN BOND
M  V30 1 2 1 2
M  V30 2 1 2 3
M  V30 3 1 2 4
M  V30 4 2 3 5
M  V30 5 1 3 6
M  V30 6 1 4 7
M  V30 7 2 4 8
M  V30 8 1 5 9
M  V30 9 1 5 10
M  V30 10 2 6 11
M  V30 11 1 6 12
M  V30 12 1 7 13
M  V30 13 1 8 14
M  V30 14 2 12 15
M  V30 15 1 12 16
M  V30 16 1 16 17
M  V30 17 2 16 18
M  V30 18 1 17 19
M  V30 19 1 18 20
M  V30 20 1 9 11
M  V30 21 2 13 14
M  V30 22 2 19 20
M  V30 23 1 8 21
M  V30 24 1 13 22
M  V30 25 1 14 23
M  V30 26 1 18 24
M  V30 27 1 19 25
M  V30 28 1 20 26
M  V30 END BOND
M  V30 END CTAB
M  END
>  <Structure No>
8209

>  <LogS>
-3.85

>  <MMFF94 Energy>
32.549

$$$$
Compound 8210
Actelion Java MolfileCreator 2.0

  0  0  0  0  0  0              0 V3000
M  V30 BEGIN CTAB
M  V30 COUNTS 32 33 0 0 0
M  V30 BEGIN ATOM
M  V30 1 O -3.6106 0.561 0.561 0
M  V30 2 C -2.5036 0.6491 0.0486 0
M  V30 3 C -1.6994 -0.5805 -0.3213 0 CFG=1
M  V30 4 C -1.9453 1.9976 -0.2852 0
M  V30 5 C -0.2269 -0.4339 0.1783 0 CFG=1
M  V30 6 C -2.3604 -1.8653 0.2127 0
M  V30 7 C -0.5308 2.1139 0.2762 0
M  V30 8 C 0.6682 -1.6011 -0.3562 0 CFG=2
M  V30 9 C 0.3698 0.9546 -0.2064 0 CFG=1
M  V30 10 O 0.6488 -2.6541 0.5754 0
M  V30 11 C 2.1305 -1.1817 -0.621 0
M  V30 12 C 1.8064 1.1402 0.3618 0 CFG=1
M  V30 13 C 2.6117 -0.1774 0.4229 0
M  V30 14 O 2.4882 2.0787 -0.4318 0
M  V30 15 H -1.6957 -0.6385 -1.4323 0
M  V30 16 H -1.9254 2.1222 -1.3894 0
M  V30 17 H -2.5812 2.8011 0.1464 0
M  V30 18 H -0.2374 -0.4796 1.2924 0
M  V30 19 H -2.3435 -1.8812 1.3235 0
M  V30 20 H -3.4141 -1.9297 -0.1333 0
M  V30 21 H -1.8398 -2.7659 -0.1715 0
M  V30 22 H -0.5828 2.1179 1.388 0
M  V30 23 H -0.0981 3.085 -0.049 0
M  V30 24 H 0.2589 -1.9613 -1.3299 0
M  V30 25 H 0.4209 1.004 -1.3187 0
M  V30 26 H 0.8956 -3.4816 0.085 0
M  V30 27 H 2.7932 -2.0743 -0.6114 0
M  V30 28 H 2.2138 -0.7245 -1.6319 0
M  V30 29 H 1.7344 1.5265 1.4071 0
M  V30 30 H 3.6948 0.0225 0.2713 0
M  V30 31 H 2.5037 -0.632 1.4328 0
M  V30 32 H 3.2329 2.4377 0.1182 0
M  V30 END ATOM
M  V30 BEGIN BOND
M  V30 1 2 1 2
M  V30 2 1 2 3
M  V30 3 1 2 4
M  V30 4 1 3 5
M  V30 5 1 3 6
M  V30 6 1 4 7
M  V30 7 1 5 8
M  V30 8 1 5 9
M  V30 9 1 8 10
M  V30 10 1 8 11
M  V30 11 1 9 12
M  V30 12 1 11 13
M  V30 13 1 12 14
M  V30 14 1 7 9
M  V30 15 1 12 13
M  V30 16 1 3 15
M  V30 17 1 4 16
M  V30 18 1 4 17
M  V30 19 1 5 18
M  V30 20 1 6 19
M  V30 21 1 6 20
M  V30 22 1 6 21
M  V30 23 1 7 22
M  V30 24 1 7 23
M  V30 25 1 8 24
M  V30 26 1 9 25
M  V30 27 1 10 26
M  V30 28 1 11 27
M  V30 29 1 11 28
M  V30 30 1 12 29
M  V30 31 1 13 30
M  V30 32 1 13 31
M  V30 33 1 14 32
M  V30 END BOND
M  V30 BEGIN COLLECTION
M  V30 MDLV30/STEABS ATOMS=(5 3 5 8 9 12)
M  V30 END COLLECTION
M  V30 END CTAB
M  END
>  <Structure No>
8210

>  <LogS>
-0.3

>  <MMFF94 Energy>
23.868

$$$$
Compound 8211
Actelion Java MolfileCreator 2.0

  0  0  0  0  0  0              0 V3000
M  V30 BEGIN CTAB
M  V30 COUNTS 44 44 0 0 0
M  V30 BEGIN ATOM
M  V30 1 O 4.0372 1.8982 2.1357 0
M  V30 2 N 4.1005 0.7011 1.459 0
M  V30 3 C 3.1328 0.2783 0.7003 0
M  V30 4 C 3.3139 -0.983 -0.0522 0
M  V30 5 C 1.8999 1.1284 0.4854 0
M  V30 6 N 4.4392 -1.6247 0.0537 0
M  V30 7 C 2.168 -1.5781 -0.8332 0
M  V30 8 C 0.6752 0.3013 0.0063 0 CFG=2
M  V30 9 O 4.6562 -2.8338 -0.5675 0
M  V30 10 C 1.1081 -0.5405 -1.2197 0
M  V30 11 C -0.6393 1.1725 -0.219 0
M  V30 12 C -1.8913 0.3443 -0.7266 0
M  V30 13 C -1.0074 1.9236 1.0819 0
M  V30 14 C -0.3756 2.2549 -1.3045 0
M  V30 15 C -2.6783 -0.6929 0.1657 0
M  V30 16 C -1.7742 -1.6683 0.9407 0
M  V30 17 C -3.5606 -1.5365 -0.7871 0
M  V30 18 C -3.6318 0.0112 1.1615 0
M  V30 19 H 4.8115 2.1926 2.7168 0
M  V30 20 H 2.1725 1.9013 -0.26 0
M  V30 21 H 1.6503 1.6311 1.4418 0
M  V30 22 H 1.6958 -2.3724 -0.215 0
M  V30 23 H 2.5476 -2.0498 -1.7654 0
M  V30 24 H 0.4805 -0.401 0.8334 0
M  V30 25 H 5.546 -3.3043 -0.4619 0
M  V30 26 H 1.5176 0.1185 -2.0155 0
M  V30 27 H 0.2643 -1.1101 -1.6491 0
M  V30 28 H -1.6168 -0.1424 -1.6826 0
M  V30 29 H -2.6578 1.0803 -1.0595 0
M  V30 30 H -0.9716 1.2438 1.9572 0
M  V30 31 H -0.3036 2.7581 1.2844 0
M  V30 32 H -2.0173 2.3804 1.0039 0
M  V30 33 H 0.4169 2.9693 -1.006 0
M  V30 34 H -0.0938 1.7927 -2.273 0
M  V30 35 H -1.2861 2.8683 -1.4801 0
M  V30 36 H -2.3746 -2.5004 1.3685 0
M  V30 37 H -1.0107 -2.1166 0.2715 0
M  V30 38 H -1.2916 -1.1676 1.804 0
M  V30 39 H -4.1849 -2.2636 -0.2233 0
M  V30 40 H -4.2422 -0.8823 -1.3735 0
M  V30 41 H -2.9314 -2.1125 -1.5002 0
M  V30 42 H -4.3283 -0.7232 1.6215 0
M  V30 43 H -4.2438 0.7845 0.6497 0
M  V30 44 H -3.0878 0.4847 1.9996 0
M  V30 END ATOM
M  V30 BEGIN BOND
M  V30 1 1 1 2
M  V30 2 2 2 3
M  V30 3 1 3 4
M  V30 4 1 3 5
M  V30 5 2 4 6
M  V30 6 1 4 7
M  V30 7 1 5 8
M  V30 8 1 6 9
M  V30 9 1 7 10
M  V30 10 1 8 11
M  V30 11 1 11 12
M  V30 12 1 11 13
M  V30 13 1 11 14
M  V30 14 1 12 15
M  V30 15 1 15 16
M  V30 16 1 15 17
M  V30 17 1 15 18
M  V30 18 1 8 10
M  V30 19 1 1 19
M  V30 20 1 5 20
M  V30 21 1 5 21
M  V30 22 1 7 22
M  V30 23 1 7 23
M  V30 24 1 8 24
M  V30 25 1 9 25
M  V30 26 1 10 26
M  V30 27 1 10 27
M  V30 28 1 12 28
M  V30 29 1 12 29
M  V30 30 1 13 30
M  V30 31 1 13 31
M  V30 32 1 13 32
M  V30 33 1 14 33
M  V30 34 1 14 34
M  V30 35 1 14 35
M  V30 36 1 16 36
M  V30 37 1 16 37
M  V30 38 1 16 38
M  V30 39 1 17 39
M  V30 40 1 17 40
M  V30 41 1 17 41
M  V30 42 1 18 42
M  V30 43 1 18 43
M  V30 44 1 18 44
M  V30 END BOND
M  V30 BEGIN COLLECTION
M  V30 MDLV30/STEABS ATOMS=(1 8)
M  V30 END COLLECTION
M  V30 END CTAB
M  END
>  <Structure No>
8211

>  <LogS>
-6.41

>  <MMFF94 Energy>
111.74

$$$$
Compound 8212
Actelion Java MolfileCreator 2.0

  0  0  0  0  0  0              0 V3000
M  V30 BEGIN CTAB
M  V30 COUNTS 28 28 0 0 0
M  V30 BEGIN ATOM
M  V30 1 O -0.7114 -1.265 2.373 0
M  V30 2 C -1.2004 -0.1965 1.9201 0
M  V30 3 O -1.2877 0.9201 2.7433 0 CHG=-1
M  V30 4 C -1.6669 -0.122 0.4868 0 CFG=1
M  V30 5 N -3.0699 0.3501 0.4472 0 CHG=1
M  V30 6 C -0.7279 0.805 -0.3238 0
M  V30 7 C -3.7229 0.0774 -0.8395 0
M  V30 8 C 0.6864 0.2794 -0.3582 0
M  V30 9 C 1.659 0.7929 0.5153 0
M  V30 10 C 1.0307 -0.7594 -1.2369 0
M  V30 11 C 2.9651 0.2826 0.502 0
M  V30 12 C 2.3321 -1.2679 -1.2518 0
M  V30 13 O 3.931 0.7936 1.367 0
M  V30 14 C 3.3026 -0.7486 -0.3841 0
M  V30 15 O 4.6018 -1.253 -0.3953 0
M  V30 16 H -1.61 -1.1489 0.0561 0
M  V30 17 H -3.1163 1.3778 0.6435 0
M  V30 18 H -3.6242 -0.1465 1.185 0
M  V30 19 H -1.0841 0.8916 -1.3707 0
M  V30 20 H -0.7476 1.8322 0.1033 0
M  V30 21 H -3.3048 0.7171 -1.644 0
M  V30 22 H -3.621 -0.9936 -1.1198 0
M  V30 23 H -4.8076 0.3085 -0.7624 0
M  V30 24 H 1.4018 1.5851 1.2081 0
M  V30 25 H 0.29 -1.176 -1.9083 0
M  V30 26 H 2.585 -2.0676 -1.9363 0
M  V30 27 H 3.7171 1.5387 2.0199 0
M  V30 28 H 4.8752 -1.9989 -1.0244 0
M  V30 END ATOM
M  V30 BEGIN BOND
M  V30 1 2 1 2
M  V30 2 1 2 3
M  V30 3 1 2 4
M  V30 4 1 4 5
M  V30 5 1 4 6
M  V30 6 1 5 7
M  V30 7 1 6 8
M  V30 8 2 8 9
M  V30 9 1 8 10
M  V30 10 1 9 11
M  V30 11 2 10 12
M  V30 12 1 11 13
M  V30 13 2 11 14
M  V30 14 1 14 15
M  V30 15 1 12 14
M  V30 16 1 4 16
M  V30 17 1 5 17
M  V30 18 1 5 18
M  V30 19 1 6 19
M  V30 20 1 6 20
M  V30 21 1 7 21
M  V30 22 1 7 22
M  V30 23 1 7 23
M  V30 24 1 9 24
M  V30 25 1 10 25
M  V30 26 1 12 26
M  V30 27 1 13 27
M  V30 28 1 15 28
M  V30 END BOND
M  V30 BEGIN COLLECTION
M  V30 MDLV30/STEABS ATOMS=(1 4)
M  V30 END COLLECTION
M  V30 END CTAB
M  END
>  <Structure No>
8212

>  <LogS>
-1.02

>  <MMFF94 Energy>
6.5333

$$$$
Compound 8213
Actelion Java MolfileCreator 2.0

  0  0  0  0  0  0              0 V3000
M  V30 BEGIN CTAB
M  V30 COUNTS 28 28 0 0 0
M  V30 BEGIN ATOM
M  V30 1 Cl 4.0604 1.8595 2.8749 0
M  V30 2 C 3.7108 1.0124 1.3742 0
M  V30 3 C 4.6763 0.2006 0.753 0
M  V30 4 C 2.4442 1.1545 0.7945 0
M  V30 5 Cl 6.2786 -0.0052 1.4475 0
M  V30 6 C 4.3646 -0.4594 -0.4416 0
M  V30 7 C 2.136 0.4892 -0.3976 0
M  V30 8 C 3.0988 -0.3149 -1.0162 0
M  V30 9 S 0.5119 0.6753 -1.1352 0
M  V30 10 C -0.1954 -0.7459 -0.2322 0
M  V30 11 C -1.6803 -0.9174 -0.5798 0 CFG=2
M  V30 12 N -2.4591 0.2419 -0.1322 0
M  V30 13 C -2.2115 -2.1629 0.0684 0
M  V30 14 C -3.7827 0.5049 -0.6178 0
M  V30 15 O -2.4297 -3.1924 -0.6228 0
M  V30 16 O -2.434 -2.1974 1.44 0 CHG=-1
M  V30 17 O -4.3206 -0.2672 -1.4569 0
M  V30 18 C -4.5403 1.6886 -0.1112 0
M  V30 19 H 1.6987 1.7783 1.2718 0
M  V30 20 H 5.1031 -1.0856 -0.9258 0
M  V30 21 H 2.8669 -0.8303 -1.9396 0
M  V30 22 H -0.0759 -0.5894 0.8624 0
M  V30 23 H 0.3621 -1.663 -0.5231 0
M  V30 24 H -1.7661 -1.0116 -1.6859 0
M  V30 25 H -2.0547 0.8934 0.579 0
M  V30 26 H -3.9209 2.6033 -0.2218 0
M  V30 27 H -5.4835 1.8234 -0.6822 0
M  V30 28 H -4.7843 1.54 0.9612 0
M  V30 END ATOM
M  V30 BEGIN BOND
M  V30 1 1 1 2
M  V30 2 2 2 3
M  V30 3 1 2 4
M  V30 4 1 3 5
M  V30 5 1 3 6
M  V30 6 2 4 7
M  V30 7 2 6 8
M  V30 8 1 7 9
M  V30 9 1 9 10
M  V30 10 1 10 11
M  V30 11 1 11 12
M  V30 12 1 11 13
M  V30 13 1 12 14
M  V30 14 2 13 15
M  V30 15 1 13 16
M  V30 16 2 14 17
M  V30 17 1 14 18
M  V30 18 1 7 8
M  V30 19 1 4 19
M  V30 20 1 6 20
M  V30 21 1 8 21
M  V30 22 1 10 22
M  V30 23 1 10 23
M  V30 24 1 11 24
M  V30 25 1 12 25
M  V30 26 1 18 26
M  V30 27 1 18 27
M  V30 28 1 18 28
M  V30 END BOND
M  V30 BEGIN COLLECTION
M  V30 MDLV30/STEABS ATOMS=(1 11)
M  V30 END COLLECTION
M  V30 END CTAB
M  END
>  <Structure No>
8213

>  <LogS>
-2.89

>  <MMFF94 Energy>
46.051

$$$$
Compound 8214
Actelion Java MolfileCreator 2.0

  0  0  0  0  0  0              0 V3000
M  V30 BEGIN CTAB
M  V30 COUNTS 28 28 0 0 0
M  V30 BEGIN ATOM
M  V30 1 O 5.5642 -2.0939 0.6439 0
M  V30 2 N 5.3221 -0.8829 0.8288 0 CHG=1
M  V30 3 O 6.3307 -0.0684 1.2904 0 CHG=-1
M  V30 4 C 4.0117 -0.3476 0.5671 0
M  V30 5 C 3.7459 1.0164 0.7758 0
M  V30 6 C 2.9793 -1.1757 0.0908 0
M  V30 7 C 2.4743 1.5386 0.522 0
M  V30 8 C 1.7077 -0.6521 -0.1613 0
M  V30 9 C 1.4396 0.7079 0.0705 0
M  V30 10 N 0.1476 1.2765 -0.204 0
M  V30 11 C -1.0947 0.5799 -0.0229 0
M  V30 12 O -1.1296 -0.5059 0.6178 0
M  V30 13 N -2.3072 1.1502 -0.5342 0
M  V30 14 C -3.6069 0.4964 -0.3932 0
M  V30 15 C -3.7213 -0.6815 -1.3629 0
M  V30 16 C -5.0629 -1.3319 -1.2416 0
M  V30 17 O -6.024 -0.9399 -1.9545 0
M  V30 18 O -5.2653 -2.3386 -0.3061 0 CHG=-1
M  V30 19 H 4.521 1.6815 1.1337 0
M  V30 20 H 3.157 -2.227 -0.095 0
M  V30 21 H 2.2913 2.5931 0.6876 0
M  V30 22 H 0.9453 -1.3066 -0.5619 0
M  V30 23 H 0.1019 2.2848 -0.4751 0
M  V30 24 H -2.2705 2.0912 -0.9868 0
M  V30 25 H -3.7434 0.1532 0.6559 0
M  V30 26 H -4.4086 1.2338 -0.6192 0
M  V30 27 H -2.9346 -1.4342 -1.1437 0
M  V30 28 H -3.5747 -0.3225 -2.405 0
M  V30 END ATOM
M  V30 BEGIN BOND
M  V30 1 2 1 2
M  V30 2 1 2 3
M  V30 3 1 2 4
M  V30 4 2 4 5
M  V30 5 1 4 6
M  V30 6 1 5 7
M  V30 7 2 6 8
M  V30 8 2 7 9
M  V30 9 1 9 10
M  V30 10 1 10 11
M  V30 11 2 11 12
M  V30 12 1 11 13
M  V30 13 1 13 14
M  V30 14 1 14 15
M  V30 15 1 15 16
M  V30 16 2 16 17
M  V30 17 1 16 18
M  V30 18 1 8 9
M  V30 19 1 5 19
M  V30 20 1 6 20
M  V30 21 1 7 21
M  V30 22 1 8 22
M  V30 23 1 10 23
M  V30 24 1 13 24
M  V30 25 1 14 25
M  V30 26 1 14 26
M  V30 27 1 15 27
M  V30 28 1 15 28
M  V30 END BOND
M  V30 END CTAB
M  END
>  <Structure No>
8214

>  <LogS>
-2.7

>  <MMFF94 Energy>
-53.868

$$$$
Compound 8215
Actelion Java MolfileCreator 2.0

  0  0  0  0  0  0              0 V3000
M  V30 BEGIN CTAB
M  V30 COUNTS 28 28 0 0 0
M  V30 BEGIN ATOM
M  V30 1 Cl -3.0456 -1.6911 2.1143 0
M  V30 2 C -3.2484 -0.4592 0.8739 0
M  V30 3 C -2.208 0.432 0.5435 0
M  V30 4 C -4.4772 -0.3755 0.2093 0
M  V30 5 S -0.6213 0.3336 1.3936 0
M  V30 6 C -2.4207 1.4079 -0.4508 0
M  V30 7 C -4.679 0.5898 -0.7782 0
M  V30 8 C 0.0948 -0.8328 0.1841 0
M  V30 9 Cl -1.1618 2.5531 -0.8998 0
M  V30 10 C -3.6548 1.4793 -1.1067 0
M  V30 11 C 1.5646 -1.1169 0.5206 0 CFG=2
M  V30 12 N 2.3737 0.1006 0.3985 0
M  V30 13 C 2.1015 -2.1798 -0.3936 0
M  V30 14 C 3.6826 0.2076 0.9745 0
M  V30 15 O 2.334 -1.9218 -1.6046 0
M  V30 16 O 2.3152 -3.4654 0.0869 0 CHG=-1
M  V30 17 O 4.1822 -0.7602 1.6095 0
M  V30 18 C 4.4709 1.4649 0.803 0
M  V30 19 H -5.2785 -1.0594 0.4587 0
M  V30 20 H -5.6315 0.6499 -1.2888 0
M  V30 21 H -0.4854 -1.7805 0.2201 0
M  V30 22 H 0.0152 -0.4075 -0.8402 0
M  V30 23 H -3.8215 2.2259 -1.8728 0
M  V30 24 H 1.6119 -1.4849 1.5699 0
M  V30 25 H 2.0014 0.9169 -0.1391 0
M  V30 26 H 4.7562 1.5794 -0.2633 0
M  V30 27 H 5.3915 1.4371 1.4237 0
M  V30 28 H 3.8564 2.336 1.1125 0
M  V30 END ATOM
M  V30 BEGIN BOND
M  V30 1 1 1 2
M  V30 2 2 2 3
M  V30 3 1 2 4
M  V30 4 1 3 5
M  V30 5 1 3 6
M  V30 6 2 4 7
M  V30 7 1 5 8
M  V30 8 1 6 9
M  V30 9 2 6 10
M  V30 10 1 8 11
M  V30 11 1 11 12
M  V30 12 1 11 13
M  V30 13 1 12 14
M  V30 14 2 13 15
M  V30 15 1 13 16
M  V30 16 2 14 17
M  V30 17 1 14 18
M  V30 18 1 7 10
M  V30 19 1 4 19
M  V30 20 1 7 20
M  V30 21 1 8 21
M  V30 22 1 8 22
M  V30 23 1 10 23
M  V30 24 1 11 24
M  V30 25 1 12 25
M  V30 26 1 18 26
M  V30 27 1 18 27
M  V30 28 1 18 28
M  V30 END BOND
M  V30 BEGIN COLLECTION
M  V30 MDLV30/STEABS ATOMS=(1 11)
M  V30 END COLLECTION
M  V30 END CTAB
M  END
>  <Structure No>
8215

>  <LogS>
-2.31

>  <MMFF94 Energy>
67.375

$$$$
Compound 8216
Actelion Java MolfileCreator 2.0

  0  0  0  0  0  0              0 V3000
M  V30 BEGIN CTAB
M  V30 COUNTS 37 37 0 0 0
M  V30 BEGIN ATOM
M  V30 1 O -2.3216 0.0799 2.8025 0
M  V30 2 C -1.6562 1.0194 2.2903 0
M  V30 3 O -1.9898 2.3328 2.5983 0 CHG=-1
M  V30 4 C -0.4784 0.7351 1.3846 0 CFG=2
M  V30 5 N -0.8674 0.2133 0.0429 0
M  V30 6 C 0.523 -0.214 2.0745 0
M  V30 7 C -1.0503 1.2628 -0.991 0
M  V30 8 C -1.8751 -0.8745 0.0407 0
M  V30 9 C 1.7233 -0.4742 1.2002 0
M  V30 10 C -2.4046 1.9864 -0.9156 0
M  V30 11 C -1.8393 -1.6749 -1.2669 0
M  V30 12 C 2.7631 0.4668 1.1278 0
M  V30 13 C 1.7854 -1.631 0.4055 0
M  V30 14 C -2.4457 3.0864 -1.8855 0
M  V30 15 C -2.6595 -2.8863 -1.1519 0
M  V30 16 C 3.856 0.2464 0.2842 0
M  V30 17 C 2.8787 -1.8486 -0.438 0
M  V30 18 N -2.4784 3.9542 -2.6505 0
M  V30 19 N -3.3062 -3.8418 -1.0613 0
M  V30 20 C 3.9164 -0.913 -0.501 0
M  V30 21 O 4.9994 -1.1426 -1.3463 0
M  V30 22 H 0.0645 1.7001 1.2659 0
M  V30 23 H 0.8639 0.2443 3.0296 0
M  V30 24 H 0.0362 -1.1748 2.347 0
M  V30 25 H -0.2273 2.0085 -0.918 0
M  V30 26 H -0.9322 0.8112 -1.9986 0
M  V30 27 H -1.6552 -1.5829 0.868 0
M  V30 28 H -2.8967 -0.4755 0.2168 0
M  V30 29 H -2.5677 2.4097 0.093 0
M  V30 30 H -3.2333 1.2906 -1.158 0
M  V30 31 H -0.7949 -1.9707 -1.5014 0
M  V30 32 H -2.2421 -1.0676 -2.1035 0
M  V30 33 H 2.7242 1.3721 1.7213 0
M  V30 34 H 0.9864 -2.3612 0.436 0
M  V30 35 H 4.6524 0.9782 0.2385 0
M  V30 36 H 2.9179 -2.7436 -1.0459 0
M  V30 37 H 5.7663 -0.4838 -1.4151 0
M  V30 END ATOM
M  V30 BEGIN BOND
M  V30 1 2 1 2
M  V30 2 1 2 3
M  V30 3 1 2 4
M  V30 4 1 4 5
M  V30 5 1 4 6
M  V30 6 1 5 7
M  V30 7 1 5 8
M  V30 8 1 6 9
M  V30 9 1 7 10
M  V30 10 1 8 11
M  V30 11 2 9 12
M  V30 12 1 9 13
M  V30 13 1 10 14
M  V30 14 1 11 15
M  V30 15 1 12 16
M  V30 16 2 13 17
M  V30 17 3 14 18
M  V30 18 3 15 19
M  V30 19 2 16 20
M  V30 20 1 20 21
M  V30 21 1 17 20
M  V30 22 1 4 22
M  V30 23 1 6 23
M  V30 24 1 6 24
M  V30 25 1 7 25
M  V30 26 1 7 26
M  V30 27 1 8 27
M  V30 28 1 8 28
M  V30 29 1 10 29
M  V30 30 1 10 30
M  V30 31 1 11 31
M  V30 32 1 11 32
M  V30 33 1 12 33
M  V30 34 1 13 34
M  V30 35 1 16 35
M  V30 36 1 17 36
M  V30 37 1 21 37
M  V30 END BOND
M  V30 BEGIN COLLECTION
M  V30 MDLV30/STEABS ATOMS=(1 4)
M  V30 END COLLECTION
M  V30 END CTAB
M  END
>  <Structure No>
8216

>  <LogS>
-1.68

>  <MMFF94 Energy>
95.222

$$$$
Compound 8217
Actelion Java MolfileCreator 2.0

  0  0  0  0  0  0              0 V3000
M  V30 BEGIN CTAB
M  V30 COUNTS 59 62 0 0 0
M  V30 BEGIN ATOM
M  V30 1 O -7.175 -0.8134 -0.3253 0
M  V30 2 C -5.9778 -0.4252 -0.3248 0
M  V30 3 C -5.1657 -0.5869 0.8926 0
M  V30 4 C -5.4106 0.2119 -1.5581 0
M  V30 5 C -3.9052 -0.131 0.9653 0
M  V30 6 C -3.8742 0.2085 -1.544 0
M  V30 7 C -3.2829 0.6831 -0.1807 0 CFG=2
M  V30 8 C -3.0424 -0.4802 2.1666 0
M  V30 9 C -1.7211 0.4887 -0.1321 0 CFG=1
M  V30 10 C -3.627 2.1766 0.0445 0
M  V30 11 C -1.7422 -1.2185 1.7562 0
M  V30 12 C -1.3732 -0.9773 0.2734 0 CFG=2
M  V30 13 C -0.9339 0.9328 -1.3911 0
M  V30 14 C 0.0664 -1.3631 -0.1573 0 CFG=1
M  V30 15 C 0.6096 0.8844 -1.1778 0
M  V30 16 C 1.0851 -0.2158 -0.1706 0 CFG=2
M  V30 17 C 0.7732 -2.5445 0.4906 0
M  V30 18 C 2.3549 -0.9872 -0.6125 0 CFG=2
M  V30 19 C 1.339 0.3996 1.2411 0
M  V30 20 C 2.2456 -2.3618 0.0828 0
M  V30 21 O 3.5708 -0.3346 -0.2374 0
M  V30 22 C 4.1624 0.6913 -0.9812 0
M  V30 23 O 3.6928 1.0325 -2.1025 0
M  V30 24 C 5.391 1.3639 -0.455 0
M  V30 25 C 6.5546 0.3712 -0.3701 0
M  V30 26 C 7.7948 1.0478 0.1235 0
M  V30 27 O 7.8684 1.4407 1.3204 0
M  V30 28 O 8.8656 1.26 -0.7432 0 CHG=-1
M  V30 29 H -5.5902 -1.1429 1.718 0
M  V30 30 H -5.7923 1.25 -1.6388 0
M  V30 31 H -5.7619 -0.3428 -2.4541 0
M  V30 32 H -3.5307 -0.8241 -1.7699 0
M  V30 33 H -3.5176 0.8611 -2.3713 0
M  V30 34 H -2.7714 0.4685 2.6766 0
M  V30 35 H -3.5957 -1.095 2.9092 0
M  V30 36 H -1.3645 1.158 0.6738 0
M  V30 37 H -4.7222 2.3283 0.1447 0
M  V30 38 H -3.267 2.7981 -0.8013 0
M  V30 39 H -3.162 2.5543 0.9812 0
M  V30 40 H -1.8787 -2.3109 1.9165 0
M  V30 41 H -0.9208 -0.8878 2.424 0
M  V30 42 H -2.0367 -1.6606 -0.3035 0
M  V30 43 H -1.1947 0.2664 -2.2402 0
M  V30 44 H -1.2227 1.9645 -1.6781 0
M  V30 45 H -0.0523 -1.6754 -1.2257 0
M  V30 46 H 0.957 1.8846 -0.8389 0
M  V30 47 H 1.0738 0.7237 -2.1727 0
M  V30 48 H 0.6777 -2.5193 1.5958 0
M  V30 49 H 0.3668 -3.5074 0.1135 0
M  V30 50 H 2.3457 -1.165 -1.7125 0
M  V30 51 H 1.7084 -0.3604 1.9594 0
M  V30 52 H 0.448 0.8631 1.6901 0
M  V30 53 H 2.1095 1.1964 1.1799 0
M  V30 54 H 2.8936 -2.4022 0.9859 0
M  V30 55 H 2.562 -3.1682 -0.6136 0
M  V30 56 H 5.1682 1.7742 0.5545 0
M  V30 57 H 5.6705 2.2053 -1.1253 0
M  V30 58 H 6.2966 -0.459 0.3243 0
M  V30 59 H 6.7491 -0.0641 -1.3758 0
M  V30 END ATOM
M  V30 BEGIN BOND
M  V30 1 2 1 2
M  V30 2 1 2 3
M  V30 3 1 2 4
M  V30 4 2 3 5
M  V30 5 1 4 6
M  V30 6 1 5 7
M  V30 7 1 5 8
M  V30 8 1 7 9
M  V30 9 1 7 10
M  V30 10 1 8 11
M  V30 11 1 9 12
M  V30 12 1 9 13
M  V30 13 1 12 14
M  V30 14 1 13 15
M  V30 15 1 14 16
M  V30 16 1 14 17
M  V30 17 1 16 18
M  V30 18 1 16 19
M  V30 19 1 17 20
M  V30 20 1 18 21
M  V30 21 1 21 22
M  V30 22 2 22 23
M  V30 23 1 22 24
M  V30 24 1 24 25
M  V30 25 1 25 26
M  V30 26 2 26 27
M  V30 27 1 26 28
M  V30 28 1 6 7
M  V30 29 1 11 12
M  V30 30 1 15 16
M  V30 31 1 18 20
M  V30 32 1 3 29
M  V30 33 1 4 30
M  V30 34 1 4 31
M  V30 35 1 6 32
M  V30 36 1 6 33
M  V30 37 1 8 34
M  V30 38 1 8 35
M  V30 39 1 9 36
M  V30 40 1 10 37
M  V30 41 1 10 38
M  V30 42 1 10 39
M  V30 43 1 11 40
M  V30 44 1 11 41
M  V30 45 1 12 42
M  V30 46 1 13 43
M  V30 47 1 13 44
M  V30 48 1 14 45
M  V30 49 1 15 46
M  V30 50 1 15 47
M  V30 51 1 17 48
M  V30 52 1 17 49
M  V30 53 1 18 50
M  V30 54 1 19 51
M  V30 55 1 19 52
M  V30 56 1 19 53
M  V30 57 1 20 54
M  V30 58 1 20 55
M  V30 59 1 24 56
M  V30 60 1 24 57
M  V30 61 1 25 58
M  V30 62 1 25 59
M  V30 END BOND
M  V30 BEGIN COLLECTION
M  V30 MDLV30/STEABS ATOMS=(6 7 9 12 14 16 18)
M  V30 END COLLECTION
M  V30 END CTAB
M  END
>  <Structure No>
8217

>  <LogS>
-5.08

>  <MMFF94 Energy>
63.102

$$$$
Compound 8218
Actelion Java MolfileCreator 2.0

  0  0  0  0  0  0              0 V3000
M  V30 BEGIN CTAB
M  V30 COUNTS 39 41 0 0 0
M  V30 BEGIN ATOM
M  V30 1 O 2.5085 0.6469 2.1846 0
M  V30 2 C 1.5326 0.1948 1.5281 0
M  V30 3 N 1.5498 -0.0049 0.1236 0
M  V30 4 N 0.2789 -0.1405 2.1158 0
M  V30 5 C 2.6308 0.2337 -0.7944 0
M  V30 6 C 0.2492 -0.509 -0.1709 0
M  V30 7 C -0.6239 -0.5933 1.0534 0 CFG=2
M  V30 8 C 0.0116 -0.2235 3.5503 0
M  V30 9 C 2.3711 0.7344 -2.0819 0
M  V30 10 C 3.9593 -0.0308 -0.4184 0
M  V30 11 O -0.0894 -0.9236 -1.3115 0
M  V30 12 C -1.8465 0.3361 0.9575 0
M  V30 13 C -0.0475 1.1475 4.1425 0
M  V30 14 C 3.4216 0.9675 -2.9748 0
M  V30 15 C 5.0068 0.2023 -1.3149 0
M  V30 16 C -2.8261 -0.1302 -0.0884 0
M  V30 17 O -1.0834 1.8503 4.0088 0
M  V30 18 O 1.0549 1.6669 4.8086 0 CHG=-1
M  V30 19 C 4.7384 0.7015 -2.5917 0
M  V30 20 C -2.8939 0.5094 -1.3379 0
M  V30 21 C -3.6629 -1.2292 0.1681 0
M  V30 22 C -3.7905 0.0589 -2.3117 0
M  V30 23 C -4.5583 -1.6759 -0.8084 0
M  V30 24 C -4.6225 -1.0321 -2.047 0
M  V30 25 H -0.9261 -1.6473 1.238 0
M  V30 26 H 0.8113 -0.8157 4.0441 0
M  V30 27 H -0.9546 -0.7425 3.7294 0
M  V30 28 H 1.3591 0.9641 -2.3888 0
M  V30 29 H 4.1851 -0.4378 0.558 0
M  V30 30 H -1.5131 1.3767 0.7464 0
M  V30 31 H -2.3664 0.3595 1.9393 0
M  V30 32 H 3.2146 1.3579 -3.9627 0
M  V30 33 H 6.0269 -0.0081 -1.0208 0
M  V30 34 H 5.5504 0.8818 -3.2841 0
M  V30 35 H -2.25 1.3515 -1.5596 0
M  V30 36 H -3.6194 -1.7389 1.1227 0
M  V30 37 H -3.8386 0.5545 -3.2727 0
M  V30 38 H -5.2013 -2.5225 -0.6053 0
M  V30 39 H -5.3153 -1.38 -2.8022 0
M  V30 END ATOM
M  V30 BEGIN BOND
M  V30 1 2 1 2
M  V30 2 1 2 3
M  V30 3 1 2 4
M  V30 4 1 3 5
M  V30 5 1 3 6
M  V30 6 1 4 7
M  V30 7 1 4 8
M  V30 8 2 5 9
M  V30 9 1 5 10
M  V30 10 2 6 11
M  V30 11 1 7 12
M  V30 12 1 8 13
M  V30 13 1 9 14
M  V30 14 2 10 15
M  V30 15 1 12 16
M  V30 16 2 13 17
M  V30 17 1 13 18
M  V30 18 2 14 19
M  V30 19 2 16 20
M  V30 20 1 16 21
M  V30 21 1 20 22
M  V30 22 2 21 23
M  V30 23 2 22 24
M  V30 24 1 6 7
M  V30 25 1 15 19
M  V30 26 1 23 24
M  V30 27 1 7 25
M  V30 28 1 8 26
M  V30 29 1 8 27
M  V30 30 1 9 28
M  V30 31 1 10 29
M  V30 32 1 12 30
M  V30 33 1 12 31
M  V30 34 1 14 32
M  V30 35 1 15 33
M  V30 36 1 19 34
M  V30 37 1 20 35
M  V30 38 1 21 36
M  V30 39 1 22 37
M  V30 40 1 23 38
M  V30 41 1 24 39
M  V30 END BOND
M  V30 BEGIN COLLECTION
M  V30 MDLV30/STEABS ATOMS=(1 7)
M  V30 END COLLECTION
M  V30 END CTAB
M  END
>  <Structure No>
8218

>  <LogS>
-2.91

>  <MMFF94 Energy>
71.053

$$$$
Compound 8219
Actelion Java MolfileCreator 2.0

  0  0  0  0  0  0              0 V3000
M  V30 BEGIN CTAB
M  V30 COUNTS 26 27 0 0 0
M  V30 BEGIN ATOM
M  V30 1 O 1.3755 -0.5662 2.3474 0
M  V30 2 C 0.5945 -0.4984 1.359 0
M  V30 3 C -0.7749 -1.0503 1.4729 0
M  V30 4 C 1.0782 0.1014 0.0387 0
M  V30 5 O -1.1495 -1.6239 2.5304 0
M  V30 6 C -1.74 -0.8592 0.3278 0 CFG=2
M  V30 7 C -0.1176 0.2404 -0.9905 0 CFG=1
M  V30 8 C 1.7507 1.4695 0.3086 0
M  V30 9 C 2.1582 -0.8337 -0.5561 0
M  V30 10 C -0.975 -1.0283 -0.975 0
M  V30 11 C -2.1886 0.6032 0.2842 0
M  V30 12 C -1.1592 1.3141 -0.603 0
M  V30 13 H -2.5998 -1.561 0.3972 0
M  V30 14 H 0.2703 0.4404 -2.0141 0
M  V30 15 H 1.1432 2.0967 0.9938 0
M  V30 16 H 1.9133 2.0195 -0.6431 0
M  V30 17 H 2.7371 1.3399 0.8045 0
M  V30 18 H 2.5061 -0.4517 -1.5399 0
M  V30 19 H 3.04 -0.8999 0.1176 0
M  V30 20 H 1.783 -1.8674 -0.6943 0
M  V30 21 H -0.3978 -1.975 -1.0036 0
M  V30 22 H -1.6792 -1.0315 -1.838 0
M  V30 23 H -2.2336 1.0605 1.2979 0
M  V30 24 H -3.1986 0.6725 -0.177 0
M  V30 25 H -0.7415 2.2057 -0.1001 0
M  V30 26 H -1.6646 1.6738 -1.5269 0
M  V30 END ATOM
M  V30 BEGIN BOND
M  V30 1 2 1 2
M  V30 2 1 2 3
M  V30 3 1 2 4
M  V30 4 2 3 5
M  V30 5 1 3 6
M  V30 6 1 4 7
M  V30 7 1 4 8
M  V30 8 1 4 9
M  V30 9 1 6 10
M  V30 10 1 6 11
M  V30 11 1 7 12
M  V30 12 1 7 10
M  V30 13 1 11 12
M  V30 14 1 6 13
M  V30 15 1 7 14
M  V30 16 1 8 15
M  V30 17 1 8 16
M  V30 18 1 8 17
M  V30 19 1 9 18
M  V30 20 1 9 19
M  V30 21 1 9 20
M  V30 22 1 10 21
M  V30 23 1 10 22
M  V30 24 1 11 23
M  V30 25 1 11 24
M  V30 26 1 12 25
M  V30 27 1 12 26
M  V30 END BOND
M  V30 BEGIN COLLECTION
M  V30 MDLV30/STEABS ATOMS=(2 6 7)
M  V30 END COLLECTION
M  V30 END CTAB
M  END
>  <Structure No>
8219

>  <LogS>
-1.52

>  <MMFF94 Energy>
57.102

$$$$
Compound 8220
Actelion Java MolfileCreator 2.0

  0  0  0  0  0  0              0 V3000
M  V30 BEGIN CTAB
M  V30 COUNTS 25 25 0 0 0
M  V30 BEGIN ATOM
M  V30 1 O -0.7093 -2.208 0.2363 0
M  V30 2 C -0.8357 -1.0246 -0.184 0
M  V30 3 O -1.7534 -0.1519 0.4118 0
M  V30 4 C 0.0362 -0.515 -1.3 0 CFG=2
M  V30 5 C -2.6369 -0.5387 1.4625 0
M  V30 6 O 0.5386 -1.5666 -2.0883 0
M  V30 7 C 1.1601 0.3517 -0.7673 0
M  V30 8 C -3.7895 -1.3735 0.9167 0
M  V30 9 C 2.0444 -0.134 0.2155 0
M  V30 10 C 1.3507 1.6503 -1.2731 0
M  V30 11 C 3.0858 0.6695 0.6895 0
M  V30 12 C 2.3937 2.4499 -0.7954 0
M  V30 13 C 3.2595 1.9606 0.1856 0
M  V30 14 H -0.6197 0.097 -1.9563 0
M  V30 15 H -3.0517 0.3784 1.9312 0
M  V30 16 H -2.0852 -1.1054 2.2438 0
M  V30 17 H 1.1555 -2.1067 -1.5282 0
M  V30 18 H -4.4951 -1.618 1.7385 0
M  V30 19 H -3.4094 -2.3207 0.4804 0
M  V30 20 H -4.3325 -0.8034 0.1334 0
M  V30 21 H 1.9265 -1.1325 0.617 0
M  V30 22 H 0.6922 2.0468 -2.036 0
M  V30 23 H 3.7588 0.2904 1.4477 0
M  V30 24 H 2.5314 3.4496 -1.187 0
M  V30 25 H 4.0658 2.5814 0.5541 0
M  V30 END ATOM
M  V30 BEGIN BOND
M  V30 1 2 1 2
M  V30 2 1 2 3
M  V30 3 1 2 4
M  V30 4 1 3 5
M  V30 5 1 4 6
M  V30 6 1 4 7
M  V30 7 1 5 8
M  V30 8 2 7 9
M  V30 9 1 7 10
M  V30 10 1 9 11
M  V30 11 2 10 12
M  V30 12 2 11 13
M  V30 13 1 12 13
M  V30 14 1 4 14
M  V30 15 1 5 15
M  V30 16 1 5 16
M  V30 17 1 6 17
M  V30 18 1 8 18
M  V30 19 1 8 19
M  V30 20 1 8 20
M  V30 21 1 9 21
M  V30 22 1 10 22
M  V30 23 1 11 23
M  V30 24 1 12 24
M  V30 25 1 13 25
M  V30 END BOND
M  V30 BEGIN COLLECTION
M  V30 MDLV30/STEABS ATOMS=(1 4)
M  V30 END COLLECTION
M  V30 END CTAB
M  END
>  <Structure No>
8220

>  <LogS>
-1.26

>  <MMFF94 Energy>
60.366

$$$$
Compound 8221
Actelion Java MolfileCreator 2.0

  0  0  0  0  0  0              0 V3000
M  V30 BEGIN CTAB
M  V30 COUNTS 26 27 0 0 0
M  V30 BEGIN ATOM
M  V30 1 O 1.3869 0.4893 -2.5302 0
M  V30 2 C 0.9654 0.0146 -1.4868 0
M  V30 3 C 0.1406 0.7377 -0.4534 0 CFG=1
M  V30 4 C 1.2769 -1.3561 -0.9734 0
M  V30 5 C -0.7016 -0.4369 0.1025 0 CFG=2
M  V30 6 C 1.1264 1.0481 0.6999 0
M  V30 7 C -0.6071 1.9764 -0.9684 0
M  V30 8 C 0.5578 -1.2859 0.4056 0 CFG=2
M  V30 9 C -1.6279 -1.1126 -0.9068 0
M  V30 10 C -1.571 -0.1104 1.3473 0
M  V30 11 C 1.4027 -0.3471 1.3037 0
M  V30 12 O -1.7566 -2.3662 -0.9076 0
M  V30 13 O -2.4251 -0.3563 -1.7559 0 CHG=-1
M  V30 14 H 2.3722 -1.5199 -0.8805 0
M  V30 15 H 0.8334 -2.1328 -1.6318 0
M  V30 16 H 0.6778 1.7299 1.4544 0
M  V30 17 H 2.0641 1.5168 0.3248 0
M  V30 18 H -1.1631 1.7537 -1.9007 0
M  V30 19 H -1.3156 2.3491 -0.1997 0
M  V30 20 H 0.1197 2.7851 -1.1952 0
M  V30 21 H 0.3615 -2.2803 0.8616 0
M  V30 22 H -1.0397 0.4413 2.1448 0
M  V30 23 H -2.4439 0.5092 1.0499 0
M  V30 24 H -1.9535 -1.0533 1.794 0
M  V30 25 H 1.0697 -0.4029 2.3621 0
M  V30 26 H 2.4853 -0.5984 1.2695 0
M  V30 END ATOM
M  V30 BEGIN BOND
M  V30 1 2 1 2
M  V30 2 1 2 3
M  V30 3 1 2 4
M  V30 4 1 3 5
M  V30 5 1 3 6
M  V30 6 1 3 7
M  V30 7 1 4 8
M  V30 8 1 5 9
M  V30 9 1 5 10
M  V30 10 1 6 11
M  V30 11 2 9 12
M  V30 12 1 9 13
M  V30 13 1 5 8
M  V30 14 1 8 11
M  V30 15 1 4 14
M  V30 16 1 4 15
M  V30 17 1 6 16
M  V30 18 1 6 17
M  V30 19 1 7 18
M  V30 20 1 7 19
M  V30 21 1 7 20
M  V30 22 1 8 21
M  V30 23 1 10 22
M  V30 24 1 10 23
M  V30 25 1 10 24
M  V30 26 1 11 25
M  V30 27 1 11 26
M  V30 END BOND
M  V30 BEGIN COLLECTION
M  V30 MDLV30/STEABS ATOMS=(3 3 5 8)
M  V30 END COLLECTION
M  V30 END CTAB
M  END
>  <Structure No>
8221

>  <LogS>
-1.78

>  <MMFF94 Energy>
36.257

$$$$
Compound 8222
Actelion Java MolfileCreator 2.0

  0  0  0  0  0  0              0 V3000
M  V30 BEGIN CTAB
M  V30 COUNTS 30 31 0 0 0
M  V30 BEGIN ATOM
M  V30 1 O 3.2946 -0.4013 1.6061 0
M  V30 2 N 2.5894 -0.4746 0.4273 0
M  V30 3 C 1.3234 -0.1982 0.3743 0
M  V30 4 C 0.4797 0.3389 1.4402 0
M  V30 5 C 0.4707 -0.1258 -0.8706 0 CFG=1
M  V30 6 N 0.8509 0.6283 2.6465 0
M  V30 7 C -0.8279 0.7002 0.7768 0 CFG=2
M  V30 8 C -0.9392 -0.4187 -0.2862 0
M  V30 9 C 0.3891 1.3848 -1.2175 0
M  V30 10 C 0.9318 -1.0247 -2.0233 0
M  V30 11 O -0.012 1.237 3.5277 0
M  V30 12 C -0.5068 1.9523 -0.0798 0
M  V30 13 C -2.1267 -0.2325 -1.2767 0
M  V30 14 C -1.1014 -1.84 0.3376 0
M  V30 15 H 4.2821 -0.622 1.6194 0
M  V30 16 H -1.6976 0.7988 1.4612 0
M  V30 17 H -0.0689 1.5562 -2.2151 0
M  V30 18 H 1.3947 1.862 -1.2129 0
M  V30 19 H 0.9895 -2.0825 -1.6914 0
M  V30 20 H 0.2251 -0.9525 -2.876 0
M  V30 21 H 1.937 -0.7069 -2.3722 0
M  V30 22 H 0.295 1.4565 4.4667 0
M  V30 23 H 0.0322 2.7263 0.5109 0
M  V30 24 H -1.435 2.4105 -0.4828 0
M  V30 25 H -2.1183 0.7218 -1.8345 0
M  V30 26 H -3.0878 -0.2785 -0.7211 0
M  V30 27 H -2.1259 -1.0464 -2.0323 0
M  V30 28 H -1.1248 -2.611 -0.4615 0
M  V30 29 H -2.0564 -1.8966 0.9025 0
M  V30 30 H -0.2863 -2.1188 1.0361 0
M  V30 END ATOM
M  V30 BEGIN BOND
M  V30 1 1 1 2
M  V30 2 2 2 3
M  V30 3 1 3 4
M  V30 4 1 3 5
M  V30 5 2 4 6
M  V30 6 1 4 7
M  V30 7 1 5 8
M  V30 8 1 5 9
M  V30 9 1 5 10
M  V30 10 1 6 11
M  V30 11 1 7 12
M  V30 12 1 8 13
M  V30 13 1 8 14
M  V30 14 1 7 8
M  V30 15 1 9 12
M  V30 16 1 1 15
M  V30 17 1 7 16
M  V30 18 1 9 17
M  V30 19 1 9 18
M  V30 20 1 10 19
M  V30 21 1 10 20
M  V30 22 1 10 21
M  V30 23 1 11 22
M  V30 24 1 12 23
M  V30 25 1 12 24
M  V30 26 1 13 25
M  V30 27 1 13 26
M  V30 28 1 13 27
M  V30 29 1 14 28
M  V30 30 1 14 29
M  V30 31 1 14 30
M  V30 END BOND
M  V30 BEGIN COLLECTION
M  V30 MDLV30/STEABS ATOMS=(2 5 7)
M  V30 END COLLECTION
M  V30 END CTAB
M  END
>  <Structure No>
8222

>  <LogS>
-2.52

>  <MMFF94 Energy>
112.82

$$$$
Compound 8223
Actelion Java MolfileCreator 2.0

  0  0  0  0  0  0              0 V3000
M  V30 BEGIN CTAB
M  V30 COUNTS 23 23 0 0 0
M  V30 BEGIN ATOM
M  V30 1 S -0.5801 0.2486 1.2435 0
M  V30 2 O -0.8368 -0.9546 2.1084 0
M  V30 3 O -0.4475 1.4556 2.13 0
M  V30 4 C 0.9167 0.028 0.3422 0
M  V30 5 C -1.9422 0.4853 0.1042 0 CFG=2
M  V30 6 C 1.5858 1.1418 -0.1851 0
M  V30 7 C 1.4321 -1.258 0.122 0
M  V30 8 C -3.2019 0.7945 0.8604 0
M  V30 9 C -2.1281 -0.7446 -0.7869 0
M  V30 10 C 2.7656 0.9714 -0.9163 0
M  V30 11 C 2.612 -1.4255 -0.6098 0
M  V30 12 O -3.7311 -0.0717 1.607 0
M  V30 13 O -3.784 2.0512 0.7515 0 CHG=-1
M  V30 14 C 3.2792 -0.3114 -1.1275 0
M  V30 15 H -1.6952 1.3516 -0.5469 0
M  V30 16 H 1.1926 2.1391 -0.0331 0
M  V30 17 H 0.9205 -2.1294 0.5097 0
M  V30 18 H -2.3257 -1.6506 -0.1748 0
M  V30 19 H -1.2153 -0.9161 -1.3955 0
M  V30 20 H -2.9808 -0.5865 -1.4815 0
M  V30 21 H 3.2803 1.8332 -1.3209 0
M  V30 22 H 3.0076 -2.4187 -0.7777 0
M  V30 23 H 4.1918 -0.4423 -1.6944 0
M  V30 END ATOM
M  V30 BEGIN BOND
M  V30 1 2 1 2
M  V30 2 2 1 3
M  V30 3 1 1 4
M  V30 4 1 1 5
M  V30 5 2 4 6
M  V30 6 1 4 7
M  V30 7 1 5 8
M  V30 8 1 5 9
M  V30 9 1 6 10
M  V30 10 2 7 11
M  V30 11 2 8 12
M  V30 12 1 8 13
M  V30 13 2 10 14
M  V30 14 1 11 14
M  V30 15 1 5 15
M  V30 16 1 6 16
M  V30 17 1 7 17
M  V30 18 1 9 18
M  V30 19 1 9 19
M  V30 20 1 9 20
M  V30 21 1 10 21
M  V30 22 1 11 22
M  V30 23 1 14 23
M  V30 END BOND
M  V30 BEGIN COLLECTION
M  V30 MDLV30/STEABS ATOMS=(1 5)
M  V30 END COLLECTION
M  V30 END CTAB
M  END
>  <Structure No>
8223

>  <LogS>
-0.89

>  <MMFF94 Energy>
1.0838

$$$$
Compound 8224
Actelion Java MolfileCreator 2.0

  0  0  0  0  0  0              0 V3000
M  V30 BEGIN CTAB
M  V30 COUNTS 28 28 0 0 0
M  V30 BEGIN ATOM
M  V30 1 O 0.4784 -1.9947 -0.7177 0
M  V30 2 C 0.5594 -0.7514 -0.5184 0
M  V30 3 N -0.5563 0.0948 -0.8444 0
M  V30 4 C 1.8133 -0.1859 0.0339 0
M  V30 5 C -1.8971 -0.446 -1.1057 0 CFG=2
M  V30 6 C 3.031 -0.8694 -0.1422 0
M  V30 7 C 1.8087 1.0184 0.7637 0
M  V30 8 C -2.6951 0.4983 -1.979 0
M  V30 9 C -2.5975 -0.782 0.2376 0 CFG=2
M  V30 10 C 4.2185 -0.3485 0.381 0
M  V30 11 C 2.9993 1.534 1.2856 0
M  V30 12 O -2.1069 1.2605 -2.7917 0
M  V30 13 O -4.0849 0.4639 -1.9759 0 CHG=-1
M  V30 14 O -3.8262 -1.4236 0.0115 0
M  V30 15 C -2.8295 0.4579 1.1085 0
M  V30 16 C 4.2031 0.8532 1.092 0
M  V30 17 H -0.4252 1.1314 -0.8377 0
M  V30 18 H -1.7951 -1.3875 -1.6884 0
M  V30 19 H 3.0662 -1.8007 -0.6939 0
M  V30 20 H 0.8873 1.5517 0.9562 0
M  V30 21 H -1.936 -1.4677 0.8174 0
M  V30 22 H 5.1514 -0.8776 0.2349 0
M  V30 23 H 2.987 2.4594 1.8473 0
M  V30 24 H -3.6173 -2.3438 -0.2977 0
M  V30 25 H -3.3037 0.1565 2.0666 0
M  V30 26 H -1.8654 0.9566 1.3428 0
M  V30 27 H -3.4995 1.1824 0.5999 0
M  V30 28 H 5.123 1.254 1.4979 0
M  V30 END ATOM
M  V30 BEGIN BOND
M  V30 1 2 1 2
M  V30 2 1 2 3
M  V30 3 1 2 4
M  V30 4 1 3 5
M  V30 5 2 4 6
M  V30 6 1 4 7
M  V30 7 1 5 8
M  V30 8 1 5 9
M  V30 9 1 6 10
M  V30 10 2 7 11
M  V30 11 2 8 12
M  V30 12 1 8 13
M  V30 13 1 9 14
M  V30 14 1 9 15
M  V30 15 2 10 16
M  V30 16 1 11 16
M  V30 17 1 3 17
M  V30 18 1 5 18
M  V30 19 1 6 19
M  V30 20 1 7 20
M  V30 21 1 9 21
M  V30 22 1 10 22
M  V30 23 1 11 23
M  V30 24 1 14 24
M  V30 25 1 15 25
M  V30 26 1 15 26
M  V30 27 1 15 27
M  V30 28 1 16 28
M  V30 END BOND
M  V30 BEGIN COLLECTION
M  V30 MDLV30/STEABS ATOMS=(2 5 9)
M  V30 END COLLECTION
M  V30 END CTAB
M  END
>  <Structure No>
8224

>  <LogS>
-1.23

>  <MMFF94 Energy>
71.914

$$$$
Compound 8225
Actelion Java MolfileCreator 2.0

  0  0  0  0  0  0              0 V3000
M  V30 BEGIN CTAB
M  V30 COUNTS 23 23 0 0 0
M  V30 BEGIN ATOM
M  V30 1 S 1.5818 -0.9155 -0.8323 0
M  V30 2 C 0.6025 0.482 -0.1527 0 CFG=2
M  V30 3 C 3.2348 -0.2088 -0.5018 0
M  V30 4 C -0.8221 0.0454 0.1044 0
M  V30 5 C 0.6237 1.6644 -1.0792 0
M  V30 6 C 3.6075 -0.4012 0.932 0
M  V30 7 C -1.3872 0.1972 1.384 0
M  V30 8 C -1.6107 -0.4982 -0.9283 0
M  V30 9 O 0.4932 1.5106 -2.3227 0
M  V30 10 O 0.7433 2.9465 -0.5582 0 CHG=-1
M  V30 11 O 3.8725 -1.5523 1.3676 0
M  V30 12 O 3.6468 0.6868 1.7947 0 CHG=-1
M  V30 13 C -2.7077 -0.1943 1.6259 0
M  V30 14 C -2.9303 -0.8881 -0.6808 0
M  V30 15 C -3.4781 -0.737 0.595 0
M  V30 16 H 1.0686 0.7893 0.8078 0
M  V30 17 H 3.9751 -0.7351 -1.1398 0
M  V30 18 H 3.2651 0.8685 -0.768 0
M  V30 19 H -0.808 0.6188 2.1961 0
M  V30 20 H -1.2042 -0.6215 -1.924 0
M  V30 21 H -3.1342 -0.0756 2.6136 0
M  V30 22 H -3.5289 -1.307 -1.4793 0
M  V30 23 H -4.5 -1.039 0.7845 0
M  V30 END ATOM
M  V30 BEGIN BOND
M  V30 1 1 1 2
M  V30 2 1 1 3
M  V30 3 1 2 4
M  V30 4 1 2 5
M  V30 5 1 3 6
M  V30 6 2 4 7
M  V30 7 1 4 8
M  V30 8 2 5 9
M  V30 9 1 5 10
M  V30 10 2 6 11
M  V30 11 1 6 12
M  V30 12 1 7 13
M  V30 13 2 8 14
M  V30 14 2 13 15
M  V30 15 1 14 15
M  V30 16 1 2 16
M  V30 17 1 3 17
M  V30 18 1 3 18
M  V30 19 1 7 19
M  V30 20 1 8 20
M  V30 21 1 13 21
M  V30 22 1 14 22
M  V30 23 1 15 23
M  V30 END BOND
M  V30 BEGIN COLLECTION
M  V30 MDLV30/STEABS ATOMS=(1 2)
M  V30 END COLLECTION
M  V30 END CTAB
M  END
>  <Structure No>
8225

>  <LogS>
-1.23

>  <MMFF94 Energy>
202.87

$$$$
Compound 8226
Actelion Java MolfileCreator 2.0

  0  0  0  0  0  0              0 V3000
M  V30 BEGIN CTAB
M  V30 COUNTS 27 27 0 0 0
M  V30 BEGIN ATOM
M  V30 1 O -1.8324 2.1514 -0.3185 0
M  V30 2 C -2.2212 1.2745 0.4973 0
M  V30 3 O -2.1326 1.5218 1.8623 0 CHG=-1
M  V30 4 C -2.7641 -0.0369 -0.0051 0 CFG=1
M  V30 5 C -1.8782 -1.2138 0.4447 0
M  V30 6 C -4.2032 -0.2267 0.4845 0
M  V30 7 C -0.5058 -1.1254 -0.1586 0
M  V30 8 O -0.2967 -1.633 -1.2936 0
M  V30 9 N 0.5512 -0.4609 0.5514 0
M  V30 10 C 1.7897 -0.0488 -0.0507 0
M  V30 11 C 2.96 -0.0318 0.7243 0
M  V30 12 C 1.8445 0.3997 -1.3838 0
M  V30 13 C 4.1717 0.3888 0.1677 0
M  V30 14 C 3.0581 0.8209 -1.9365 0
M  V30 15 C 4.2216 0.811 -1.163 0
M  V30 16 H -2.7893 -0.0177 -1.1183 0
M  V30 17 H -1.8032 -1.2392 1.5539 0
M  V30 18 H -2.3437 -2.1722 0.1252 0
M  V30 19 H -4.6302 -1.1615 0.0627 0
M  V30 20 H -4.8364 0.6232 0.1502 0
M  V30 21 H -4.2387 -0.287 1.5938 0
M  V30 22 H 0.4356 -0.3206 1.5807 0
M  V30 23 H 2.9333 -0.3542 1.7578 0
M  V30 24 H 0.9495 0.451 -1.9894 0
M  V30 25 H 5.0716 0.3899 0.7691 0
M  V30 26 H 3.0947 1.1639 -2.9623 0
M  V30 27 H 5.1595 1.1389 -1.592 0
M  V30 END ATOM
M  V30 BEGIN BOND
M  V30 1 2 1 2
M  V30 2 1 2 3
M  V30 3 1 2 4
M  V30 4 1 4 5
M  V30 5 1 4 6
M  V30 6 1 5 7
M  V30 7 2 7 8
M  V30 8 1 7 9
M  V30 9 1 9 10
M  V30 10 2 10 11
M  V30 11 1 10 12
M  V30 12 1 11 13
M  V30 13 2 12 14
M  V30 14 2 13 15
M  V30 15 1 14 15
M  V30 16 1 4 16
M  V30 17 1 5 17
M  V30 18 1 5 18
M  V30 19 1 6 19
M  V30 20 1 6 20
M  V30 21 1 6 21
M  V30 22 1 9 22
M  V30 23 1 11 23
M  V30 24 1 12 24
M  V30 25 1 13 25
M  V30 26 1 14 26
M  V30 27 1 15 27
M  V30 END BOND
M  V30 BEGIN COLLECTION
M  V30 MDLV30/STEABS ATOMS=(1 4)
M  V30 END COLLECTION
M  V30 END CTAB
M  END
>  <Structure No>
8226

>  <LogS>
0.39

>  <MMFF94 Energy>
-20.501

$$$$
Compound 8227
Actelion Java MolfileCreator 2.0

  0  0  0  0  0  0              0 V3000
M  V30 BEGIN CTAB
M  V30 COUNTS 31 31 0 0 0
M  V30 BEGIN ATOM
M  V30 1 S -0.5668 -0.4858 -1.215 0
M  V30 2 O -0.2218 -1.9358 -1.4106 0
M  V30 3 O -0.6334 0.1774 -2.5631 0
M  V30 4 C -2.1316 -0.3689 -0.4154 0
M  V30 5 C 0.6856 0.3006 -0.199 0 CFG=1
M  V30 6 C -2.4504 -1.2491 0.6283 0
M  V30 7 C -3.0532 0.6184 -0.7945 0
M  V30 8 C 2.0695 0.0543 -0.7624 0
M  V30 9 C 0.4225 1.8028 -0.0866 0
M  V30 10 C -3.6843 -1.15 1.279 0
M  V30 11 C -4.2863 0.7153 -0.1419 0
M  V30 12 O 2.2514 0.2119 -2.0017 0
M  V30 13 N 3.1944 -0.2933 0.0778 0
M  V30 14 C -4.6025 -0.1691 0.8933 0
M  V30 15 C 4.4955 -0.5443 -0.5513 0
M  V30 16 C 3.0624 -0.3783 1.5366 0
M  V30 17 H 0.5865 -0.1431 0.8109 0
M  V30 18 H -1.7435 -2.0076 0.9397 0
M  V30 19 H -2.8174 1.3152 -1.5883 0
M  V30 20 H 0.4515 2.2836 -1.0877 0
M  V30 21 H -0.5731 1.9844 0.3703 0
M  V30 22 H 1.1906 2.2771 0.5606 0
M  V30 23 H -3.9277 -1.8318 2.0835 0
M  V30 24 H -4.9957 1.4778 -0.4368 0
M  V30 25 H -5.5567 -0.0924 1.3982 0
M  V30 26 H 5.2694 -0.8244 0.1935 0
M  V30 27 H 4.4036 -1.3769 -1.2803 0
M  V30 28 H 4.8378 0.3695 -1.0811 0
M  V30 29 H 4.0416 -0.5539 2.029 0
M  V30 30 H 2.3912 -1.2208 1.8051 0
M  V30 31 H 2.6519 0.5729 1.9356 0
M  V30 END ATOM
M  V30 BEGIN BOND
M  V30 1 2 1 2
M  V30 2 2 1 3
M  V30 3 1 1 4
M  V30 4 1 1 5
M  V30 5 2 4 6
M  V30 6 1 4 7
M  V30 7 1 5 8
M  V30 8 1 5 9
M  V30 9 1 6 10
M  V30 10 2 7 11
M  V30 11 2 8 12
M  V30 12 1 8 13
M  V30 13 2 10 14
M  V30 14 1 13 15
M  V30 15 1 13 16
M  V30 16 1 11 14
M  V30 17 1 5 17
M  V30 18 1 6 18
M  V30 19 1 7 19
M  V30 20 1 9 20
M  V30 21 1 9 21
M  V30 22 1 9 22
M  V30 23 1 10 23
M  V30 24 1 11 24
M  V30 25 1 14 25
M  V30 26 1 15 26
M  V30 27 1 15 27
M  V30 28 1 15 28
M  V30 29 1 16 29
M  V30 30 1 16 30
M  V30 31 1 16 31
M  V30 END BOND
M  V30 BEGIN COLLECTION
M  V30 MDLV30/STEABS ATOMS=(1 5)
M  V30 END COLLECTION
M  V30 END CTAB
M  END
>  <Structure No>
8227

>  <LogS>
-0.87

>  <MMFF94 Energy>
12.12

$$$$
Compound 8228
Actelion Java MolfileCreator 2.0

  0  0  0  0  0  0              0 V3000
M  V30 BEGIN CTAB
M  V30 COUNTS 31 31 0 0 0
M  V30 BEGIN ATOM
M  V30 1 O 0.7961 -1.4334 1.513 0
M  V30 2 C 0.8555 -0.3311 0.9021 0
M  V30 3 N -0.2549 0.5791 0.9693 0
M  V30 4 C 2.0768 0.0098 0.135 0
M  V30 5 C -1.5857 0.1534 1.4183 0 CFG=1
M  V30 6 C 3.3038 -0.6009 0.4544 0
M  V30 7 C 2.0285 0.9196 -0.9384 0
M  V30 8 C -2.417 1.358 1.7846 0
M  V30 9 C -2.2601 -0.7059 0.3231 0 CFG=2
M  V30 10 C 4.4588 -0.2923 -0.2706 0
M  V30 11 C 3.1866 1.2233 -1.6608 0
M  V30 12 O -2.9378 1.4418 2.9281 0
M  V30 13 O -2.6276 2.3765 0.8623 0 CHG=-1
M  V30 14 O -2.4435 0.0734 -0.8497 0
M  V30 15 C -3.6185 -1.2457 0.7833 0
M  V30 16 C 4.4008 0.6205 -1.3257 0
M  V30 17 C -1.8538 -0.5519 -1.9674 0
M  V30 18 H -0.1051 1.5747 0.6891 0
M  V30 19 H -1.4664 -0.4676 2.335 0
M  V30 20 H 3.3721 -1.309 1.2709 0
M  V30 21 H 1.0964 1.3795 -1.2391 0
M  V30 22 H -1.6071 -1.6006 0.1675 0
M  V30 23 H 5.3996 -0.762 -0.0141 0
M  V30 24 H 3.1408 1.9221 -2.4861 0
M  V30 25 H -4.0284 -1.9295 0.0103 0
M  V30 26 H -4.3426 -0.4177 0.9363 0
M  V30 27 H -3.5084 -1.8141 1.7314 0
M  V30 28 H 5.2955 0.8567 -1.8869 0
M  V30 29 H -2.0392 0.0745 -2.8636 0
M  V30 30 H -0.7525 -0.6403 -1.8369 0
M  V30 31 H -2.3073 -1.5514 -2.1501 0
M  V30 END ATOM
M  V30 BEGIN BOND
M  V30 1 2 1 2
M  V30 2 1 2 3
M  V30 3 1 2 4
M  V30 4 1 3 5
M  V30 5 2 4 6
M  V30 6 1 4 7
M  V30 7 1 5 8
M  V30 8 1 5 9
M  V30 9 1 6 10
M  V30 10 2 7 11
M  V30 11 2 8 12
M  V30 12 1 8 13
M  V30 13 1 9 14
M  V30 14 1 9 15
M  V30 15 2 10 16
M  V30 16 1 14 17
M  V30 17 1 11 16
M  V30 18 1 3 18
M  V30 19 1 5 19
M  V30 20 1 6 20
M  V30 21 1 7 21
M  V30 22 1 9 22
M  V30 23 1 10 23
M  V30 24 1 11 24
M  V30 25 1 15 25
M  V30 26 1 15 26
M  V30 27 1 15 27
M  V30 28 1 16 28
M  V30 29 1 17 29
M  V30 30 1 17 30
M  V30 31 1 17 31
M  V30 END BOND
M  V30 BEGIN COLLECTION
M  V30 MDLV30/STEABS ATOMS=(2 5 9)
M  V30 END COLLECTION
M  V30 END CTAB
M  END
>  <Structure No>
8228

>  <LogS>
-1.74

>  <MMFF94 Energy>
77.733

$$$$
Compound 8229
Actelion Java MolfileCreator 2.0

  0  0  0  0  0  0              0 V3000
M  V30 BEGIN CTAB
M  V30 COUNTS 28 28 0 0 0
M  V30 BEGIN ATOM
M  V30 1 O 2.3987 3.1192 0.7191 0
M  V30 2 C 1.598 2.2571 1.1675 0
M  V30 3 O 1.4788 2.0879 2.5427 0 CHG=-1
M  V30 4 C 0.8229 1.3822 0.2114 0 CFG=1
M  V30 5 N 1.6313 0.2259 -0.2456 0 CHG=1
M  V30 6 C -0.5539 0.9839 0.8016 0
M  V30 7 C 2.0589 -0.6848 0.8324 0
M  V30 8 C -1.4097 0.2417 -0.1944 0
M  V30 9 C 2.8746 -1.8089 0.2708 0
M  V30 10 C -2.0274 0.9351 -1.2491 0
M  V30 11 C -1.5758 -1.1506 -0.0969 0
M  V30 12 O 2.3095 -2.852 -0.1506 0
M  V30 13 O 4.2536 -1.6816 0.1639 0 CHG=-1
M  V30 14 C -2.8013 0.2464 -2.1882 0
M  V30 15 C -2.35 -1.8353 -1.0387 0
M  V30 16 C -2.9624 -1.1376 -2.0831 0
M  V30 17 H 0.6092 2.0141 -0.6813 0
M  V30 18 H 2.4849 0.5959 -0.728 0
M  V30 19 H 1.0884 -0.3135 -0.9598 0
M  V30 20 H -0.434 0.3903 1.7323 0
M  V30 21 H -1.0954 1.9086 1.1011 0
M  V30 22 H 1.1837 -1.1199 1.3566 0
M  V30 23 H 2.6797 -0.1448 1.5789 0
M  V30 24 H -1.9077 2.0072 -1.3439 0
M  V30 25 H -1.1078 -1.7064 0.705 0
M  V30 26 H -3.2749 0.7856 -2.9983 0
M  V30 27 H -2.4746 -2.9074 -0.959 0
M  V30 28 H -3.5609 -1.6694 -2.8114 0
M  V30 END ATOM
M  V30 BEGIN BOND
M  V30 1 2 1 2
M  V30 2 1 2 3
M  V30 3 1 2 4
M  V30 4 1 4 5
M  V30 5 1 4 6
M  V30 6 1 5 7
M  V30 7 1 6 8
M  V30 8 1 7 9
M  V30 9 2 8 10
M  V30 10 1 8 11
M  V30 11 2 9 12
M  V30 12 1 9 13
M  V30 13 1 10 14
M  V30 14 2 11 15
M  V30 15 2 14 16
M  V30 16 1 15 16
M  V30 17 1 4 17
M  V30 18 1 5 18
M  V30 19 1 5 19
M  V30 20 1 6 20
M  V30 21 1 6 21
M  V30 22 1 7 22
M  V30 23 1 7 23
M  V30 24 1 10 24
M  V30 25 1 11 25
M  V30 26 1 14 26
M  V30 27 1 15 27
M  V30 28 1 16 28
M  V30 END BOND
M  V30 BEGIN COLLECTION
M  V30 MDLV30/STEABS ATOMS=(1 4)
M  V30 END COLLECTION
M  V30 END CTAB
M  END
>  <Structure No>
8229

>  <LogS>
-2.16

>  <MMFF94 Energy>
72.741

$$$$
Compound 8230
Actelion Java MolfileCreator 2.0

  0  0  0  0  0  0              0 V3000
M  V30 BEGIN CTAB
M  V30 COUNTS 21 21 0 0 0
M  V30 BEGIN ATOM
M  V30 1 Cl -4.9812 0.5144 -0.686 0
M  V30 2 C -3.2814 0.2728 -0.3063 0
M  V30 3 C -2.3256 0.1013 -1.3201 0
M  V30 4 C -2.8829 0.2521 1.0334 0
M  V30 5 Cl -2.7856 0.1204 -3.0174 0
M  V30 6 C -0.9802 -0.0889 -0.9849 0
M  V30 7 C -1.5386 0.0625 1.3691 0
M  V30 8 C -0.5743 -0.1084 0.3642 0
M  V30 9 Cl -1.072 0.0435 3.0631 0
M  V30 10 O 0.7661 -0.2957 0.7444 0
M  V30 11 C 1.8716 -0.4392 -0.1499 0 CFG=1
M  V30 12 C 2.1623 0.8615 -0.8419 0
M  V30 13 C 3.0957 -0.8895 0.6414 0
M  V30 14 O 2.1211 1.9464 -0.2032 0
M  V30 15 O 2.5209 0.8679 -2.1837 0 CHG=-1
M  V30 16 H -3.6195 0.3841 1.8163 0
M  V30 17 H -0.2629 -0.22 -1.7824 0
M  V30 18 H 1.6444 -1.2263 -0.9017 0
M  V30 19 H 3.9655 -1.0233 -0.0368 0
M  V30 20 H 3.3529 -0.1402 1.421 0
M  V30 21 H 2.884 -1.86 1.1382 0
M  V30 END ATOM
M  V30 BEGIN BOND
M  V30 1 1 1 2
M  V30 2 2 2 3
M  V30 3 1 2 4
M  V30 4 1 3 5
M  V30 5 1 3 6
M  V30 6 2 4 7
M  V30 7 2 6 8
M  V30 8 1 7 9
M  V30 9 1 8 10
M  V30 10 1 10 11
M  V30 11 1 11 12
M  V30 12 1 11 13
M  V30 13 2 12 14
M  V30 14 1 12 15
M  V30 15 1 7 8
M  V30 16 1 4 16
M  V30 17 1 6 17
M  V30 18 1 11 18
M  V30 19 1 13 19
M  V30 20 1 13 20
M  V30 21 1 13 21
M  V30 END BOND
M  V30 BEGIN COLLECTION
M  V30 MDLV30/STEABS ATOMS=(1 11)
M  V30 END COLLECTION
M  V30 END CTAB
M  END
>  <Structure No>
8230

>  <LogS>
-3.55

>  <MMFF94 Energy>
76.568

$$$$
Compound 8231
Actelion Java MolfileCreator 2.0

  0  0  0  0  0  0              0 V3000
M  V30 BEGIN CTAB
M  V30 COUNTS 26 26 0 0 0
M  V30 BEGIN ATOM
M  V30 1 O 5.5095 0.6469 -0.8897 0
M  V30 2 N 4.3217 0.9785 -1.0853 0 CHG=1
M  V30 3 O 4.0537 1.9736 -1.9973 0 CHG=-1
M  V30 4 C 3.2517 0.3327 -0.3704 0
M  V30 5 C 1.9152 0.7098 -0.5964 0
M  V30 6 C 3.5244 -0.6825 0.5628 0
M  V30 7 C 0.8602 0.0801 0.0904 0
M  V30 8 C 2.4843 -1.3022 1.257 0
M  V30 9 C -0.5409 0.4978 -0.158 0
M  V30 10 C 1.1604 -0.9239 1.0272 0
M  V30 11 O -0.7707 1.6561 -0.6026 0
M  V30 12 N -1.6372 -0.4012 0.0812 0
M  V30 13 C -3.0332 0.0493 0.0553 0 CFG=1
M  V30 14 C -3.9632 -1.1255 -0.0731 0
M  V30 15 C -3.3555 0.8491 1.3202 0
M  V30 16 O -3.9962 -2.0157 0.8179 0
M  V30 17 O -4.7919 -1.2367 -1.1825 0 CHG=-1
M  V30 18 H 1.6934 1.4872 -1.3166 0
M  V30 19 H 4.5423 -0.9936 0.7598 0
M  V30 20 H 2.7057 -2.0752 1.9817 0
M  V30 21 H 0.3795 -1.4027 1.6027 0
M  V30 22 H -1.4332 -1.4146 0.2344 0
M  V30 23 H -3.189 0.706 -0.8288 0
M  V30 24 H -2.7173 1.7561 1.3729 0
M  V30 25 H -3.173 0.234 2.2277 0
M  V30 26 H -4.4183 1.173 1.3091 0
M  V30 END ATOM
M  V30 BEGIN BOND
M  V30 1 2 1 2
M  V30 2 1 2 3
M  V30 3 1 2 4
M  V30 4 2 4 5
M  V30 5 1 4 6
M  V30 6 1 5 7
M  V30 7 2 6 8
M  V30 8 1 7 9
M  V30 9 2 7 10
M  V30 10 2 9 11
M  V30 11 1 9 12
M  V30 12 1 12 13
M  V30 13 1 13 14
M  V30 14 1 13 15
M  V30 15 2 14 16
M  V30 16 1 14 17
M  V30 17 1 8 10
M  V30 18 1 5 18
M  V30 19 1 6 19
M  V30 20 1 8 20
M  V30 21 1 10 21
M  V30 22 1 12 22
M  V30 23 1 13 23
M  V30 24 1 15 24
M  V30 25 1 15 25
M  V30 26 1 15 26
M  V30 END BOND
M  V30 BEGIN COLLECTION
M  V30 MDLV30/STEABS ATOMS=(1 13)
M  V30 END COLLECTION
M  V30 END CTAB
M  END
>  <Structure No>
8231

>  <LogS>
-1.8

>  <MMFF94 Energy>
82.062

$$$$
Compound 8232
Actelion Java MolfileCreator 2.0

  0  0  0  0  0  0              0 V3000
M  V30 BEGIN CTAB
M  V30 COUNTS 29 29 0 0 0
M  V30 BEGIN ATOM
M  V30 1 O 0.5601 -2.8833 -0.4801 0
M  V30 2 C 0.7031 -1.664 -0.7608 0
M  V30 3 O 0.6785 -1.2653 -2.0925 0 CHG=-1
M  V30 4 C 0.9528 -0.6631 0.3442 0 CFG=1
M  V30 5 N 2.3974 -0.5363 0.6475 0 CHG=1
M  V30 6 C 0.2854 0.7061 0.0611 0
M  V30 7 C 3.2031 0.0255 -0.4523 0
M  V30 8 C -1.2193 0.6172 0.1334 0
M  V30 9 C 4.6518 0.0602 -0.0711 0
M  V30 10 C -1.8669 0.6226 1.3802 0
M  V30 11 C -1.9851 0.4927 -1.0377 0
M  V30 12 O 5.3937 -0.9285 -0.3102 0
M  V30 13 O 5.169 1.1637 0.5955 0 CHG=-1
M  V30 14 C -3.2591 0.5154 1.453 0
M  V30 15 C -3.3772 0.3854 -0.9623 0
M  V30 16 C -4.0178 0.397 0.2842 0
M  V30 17 O -5.4041 0.2905 0.3715 0
M  V30 18 H 0.4671 -1.0711 1.2612 0
M  V30 19 H 2.7685 -1.4855 0.8923 0
M  V30 20 H 2.5091 0.0704 1.4945 0
M  V30 21 H 0.5916 1.0954 -0.9338 0
M  V30 22 H 0.6323 1.4481 0.8133 0
M  V30 23 H 2.8845 1.0647 -0.6802 0
M  V30 24 H 3.0954 -0.5861 -1.3734 0
M  V30 25 H -1.2927 0.7078 2.2946 0
M  V30 26 H -1.5062 0.4798 -2.0087 0
M  V30 27 H -3.7486 0.522 2.4186 0
M  V30 28 H -3.9564 0.2921 -1.872 0
M  V30 29 H -5.9816 0.203 -0.4565 0
M  V30 END ATOM
M  V30 BEGIN BOND
M  V30 1 2 1 2
M  V30 2 1 2 3
M  V30 3 1 2 4
M  V30 4 1 4 5
M  V30 5 1 4 6
M  V30 6 1 5 7
M  V30 7 1 6 8
M  V30 8 1 7 9
M  V30 9 2 8 10
M  V30 10 1 8 11
M  V30 11 2 9 12
M  V30 12 1 9 13
M  V30 13 1 10 14
M  V30 14 2 11 15
M  V30 15 2 14 16
M  V30 16 1 16 17
M  V30 17 1 15 16
M  V30 18 1 4 18
M  V30 19 1 5 19
M  V30 20 1 5 20
M  V30 21 1 6 21
M  V30 22 1 6 22
M  V30 23 1 7 23
M  V30 24 1 7 24
M  V30 25 1 10 25
M  V30 26 1 11 26
M  V30 27 1 14 27
M  V30 28 1 15 28
M  V30 29 1 17 29
M  V30 END BOND
M  V30 BEGIN COLLECTION
M  V30 MDLV30/STEABS ATOMS=(1 4)
M  V30 END COLLECTION
M  V30 END CTAB
M  END
>  <Structure No>
8232

>  <LogS>
-2.59

>  <MMFF94 Energy>
62.355

$$$$
Compound 8233
Actelion Java MolfileCreator 2.0

  0  0  0  0  0  0              0 V3000
M  V30 BEGIN CTAB
M  V30 COUNTS 46 46 0 0 0
M  V30 BEGIN ATOM
M  V30 1 O -3.3897 0.4724 -1.4966 0
M  V30 2 C -4.014 1.1853 -0.6658 0
M  V30 3 C -3.5577 1.3134 0.7367 0
M  V30 4 C -5.1741 2.0005 -1.1398 0
M  V30 5 C -2.7017 0.478 1.3591 0
M  V30 6 N -2.2147 -0.7159 0.7164 0
M  V30 7 C -2.2608 0.7948 2.7651 0
M  V30 8 C -0.8694 -1.2616 0.9594 0 CFG=2
M  V30 9 C 0.2201 -0.3043 0.3983 0 CFG=1
M  V30 10 C -0.742 -2.6848 0.365 0
M  V30 11 N 1.5442 -0.6348 0.9499 0
M  V30 12 C 0.25 -0.3379 -1.1437 0
M  V30 13 C -0.685 -2.678 -1.1686 0
M  V30 14 C 2.7144 0.1769 0.7325 0
M  V30 15 C 0.432 -1.7629 -1.6752 0
M  V30 16 C 3.9059 -0.4414 0.6179 0
M  V30 17 C 2.5796 1.6787 0.6811 0
M  V30 18 C 5.1938 0.2069 0.2896 0
M  V30 19 O 6.2389 -0.2073 0.8584 0
M  V30 20 C 5.3165 1.2804 -0.75 0
M  V30 21 H -3.943 2.1655 1.2861 0
M  V30 22 H -5.9347 2.0922 -0.3358 0
M  V30 23 H -4.8218 3.013 -1.4277 0
M  V30 24 H -5.6497 1.5174 -2.0197 0
M  V30 25 H -2.8837 -1.2613 0.1279 0
M  V30 26 H -2.263 -0.1306 3.3782 0
M  V30 27 H -1.2364 1.2219 2.7517 0
M  V30 28 H -2.9404 1.522 3.2602 0
M  V30 29 H -0.7243 -1.3586 2.0571 0
M  V30 30 H -0.0432 0.7262 0.7089 0
M  V30 31 H 0.1752 -3.1751 0.7565 0
M  V30 32 H -1.6028 -3.3055 0.6965 0
M  V30 33 H 1.6698 -1.5409 1.4557 0
M  V30 34 H -0.6982 0.0837 -1.5411 0
M  V30 35 H 1.0737 0.3011 -1.5261 0
M  V30 36 H -1.6593 -2.3448 -1.5876 0
M  V30 37 H -0.5005 -3.7124 -1.5301 0
M  V30 38 H 0.4124 -1.7435 -2.7862 0
M  V30 39 H 1.4206 -2.162 -1.3582 0
M  V30 40 H 3.9446 -1.5114 0.7835 0
M  V30 41 H 1.703 2.0108 1.2734 0
M  V30 42 H 3.4582 2.1736 1.1435 0
M  V30 43 H 2.4567 2.02 -0.3672 0
M  V30 44 H 4.4724 1.2284 -1.4686 0
M  V30 45 H 5.3435 2.2789 -0.267 0
M  V30 46 H 6.2586 1.142 -1.3214 0
M  V30 END ATOM
M  V30 BEGIN BOND
M  V30 1 2 1 2
M  V30 2 1 2 3
M  V30 3 1 2 4
M  V30 4 2 3 5
M  V30 5 1 5 6
M  V30 6 1 5 7
M  V30 7 1 6 8
M  V30 8 1 8 9
M  V30 9 1 8 10
M  V30 10 1 9 11
M  V30 11 1 9 12
M  V30 12 1 10 13
M  V30 13 1 11 14
M  V30 14 1 12 15
M  V30 15 2 14 16
M  V30 16 1 14 17
M  V30 17 1 16 18
M  V30 18 2 18 19
M  V30 19 1 18 20
M  V30 20 1 13 15
M  V30 21 1 3 21
M  V30 22 1 4 22
M  V30 23 1 4 23
M  V30 24 1 4 24
M  V30 25 1 6 25
M  V30 26 1 7 26
M  V30 27 1 7 27
M  V30 28 1 7 28
M  V30 29 1 8 29
M  V30 30 1 9 30
M  V30 31 1 10 31
M  V30 32 1 10 32
M  V30 33 1 11 33
M  V30 34 1 12 34
M  V30 35 1 12 35
M  V30 36 1 13 36
M  V30 37 1 13 37
M  V30 38 1 15 38
M  V30 39 1 15 39
M  V30 40 1 16 40
M  V30 41 1 17 41
M  V30 42 1 17 42
M  V30 43 1 17 43
M  V30 44 1 20 44
M  V30 45 1 20 45
M  V30 46 1 20 46
M  V30 END BOND
M  V30 BEGIN COLLECTION
M  V30 MDLV30/STEABS ATOMS=(2 8 9)
M  V30 END COLLECTION
M  V30 END CTAB
M  END
>  <Structure No>
8233

>  <LogS>
-2.11

>  <MMFF94 Energy>
75.075

$$$$
Compound 8234
Actelion Java MolfileCreator 2.0

  0  0  0  0  0  0              0 V3000
M  V30 BEGIN CTAB
M  V30 COUNTS 43 44 0 0 0
M  V30 BEGIN ATOM
M  V30 1 O 2.6891 0.237 -1.4229 0
M  V30 2 C 2.1053 -0.8222 -0.7058 0 CFG=2
M  V30 3 C 0.6061 -0.7028 -0.7652 0
M  V30 4 C 2.6163 -0.8798 0.761 0 CFG=1
M  V30 5 N 0.0091 0.334 -0.2578 0
M  V30 6 O 1.8082 -1.7704 1.492 0
M  V30 7 C 4.0929 -1.3376 0.8927 0 CFG=1
M  V30 8 N -1.3906 0.512 -0.2465 0
M  V30 9 O 4.2499 -2.626 0.3534 0
M  V30 10 C 5.1095 -0.3601 0.2731 0
M  V30 11 C -2.2852 -0.6183 -0.3086 0
M  V30 12 C -1.907 1.8501 -0.0842 0
M  V30 13 O 5.2457 -0.5888 -1.1027 0
M  V30 14 C -3.3406 -0.6373 -1.2352 0
M  V30 15 C -2.1145 -1.7059 0.5635 0
M  V30 16 C -3.1402 2.082 0.5579 0
M  V30 17 C -1.1682 2.9528 -0.5515 0
M  V30 18 C -4.2094 -1.7313 -1.2902 0
M  V30 19 C -2.9847 -2.7986 0.505 0
M  V30 20 C -3.6236 3.3844 0.7143 0
M  V30 21 C -1.6567 4.2532 -0.3926 0
M  V30 22 C -4.0313 -2.8114 -0.4212 0
M  V30 23 C -2.8836 4.4688 0.2385 0
M  V30 24 H 2.4836 1.0823 -0.9437 0
M  V30 25 H 2.3786 -1.7706 -1.2158 0
M  V30 26 H 0.0394 -1.4897 -1.2472 0
M  V30 27 H 2.5194 0.1403 1.204 0
M  V30 28 H 1.8948 -1.5244 2.4503 0
M  V30 29 H 4.3108 -1.3769 1.9863 0
M  V30 30 H 5.1049 -2.9843 0.7089 0
M  V30 31 H 6.0969 -0.5169 0.7624 0
M  V30 32 H 4.7982 0.6918 0.4617 0
M  V30 33 H 5.894 0.0867 -1.4314 0
M  V30 34 H -3.4839 0.1928 -1.9152 0
M  V30 35 H -1.3122 -1.7013 1.2905 0
M  V30 36 H -3.7233 1.2594 0.951 0
M  V30 37 H -0.2187 2.8071 -1.0506 0
M  V30 38 H -5.0202 -1.7421 -2.007 0
M  V30 39 H -2.8492 -3.6341 1.1793 0
M  V30 40 H -4.5714 3.5533 1.209 0
M  V30 41 H -1.0835 5.0945 -0.7602 0
M  V30 42 H -4.7045 -3.6576 -0.465 0
M  V30 43 H -3.2597 5.4763 0.361 0
M  V30 END ATOM
M  V30 BEGIN BOND
M  V30 1 1 1 2
M  V30 2 1 2 3
M  V30 3 1 2 4
M  V30 4 2 3 5
M  V30 5 1 4 6
M  V30 6 1 4 7
M  V30 7 1 5 8
M  V30 8 1 7 9
M  V30 9 1 7 10
M  V30 10 1 8 11
M  V30 11 1 8 12
M  V30 12 1 10 13
M  V30 13 2 11 14
M  V30 14 1 11 15
M  V30 15 2 12 16
M  V30 16 1 12 17
M  V30 17 1 14 18
M  V30 18 2 15 19
M  V30 19 1 16 20
M  V30 20 2 17 21
M  V30 21 2 18 22
M  V30 22 2 20 23
M  V30 23 1 19 22
M  V30 24 1 21 23
M  V30 25 1 1 24
M  V30 26 1 2 25
M  V30 27 1 3 26
M  V30 28 1 4 27
M  V30 29 1 6 28
M  V30 30 1 7 29
M  V30 31 1 9 30
M  V30 32 1 10 31
M  V30 33 1 10 32
M  V30 34 1 13 33
M  V30 35 1 14 34
M  V30 36 1 15 35
M  V30 37 1 16 36
M  V30 38 1 17 37
M  V30 39 1 18 38
M  V30 40 1 19 39
M  V30 41 1 20 40
M  V30 42 1 21 41
M  V30 43 1 22 42
M  V30 44 1 23 43
M  V30 END BOND
M  V30 BEGIN COLLECTION
M  V30 MDLV30/STEABS ATOMS=(3 2 4 7)
M  V30 END COLLECTION
M  V30 END CTAB
M  END
>  <Structure No>
8234

>  <LogS>
-3.1

>  <MMFF94 Energy>
127.3

$$$$
Compound 8235
Actelion Java MolfileCreator 2.0

  0  0  0  0  0  0              0 V3000
M  V30 BEGIN CTAB
M  V30 COUNTS 56 59 0 0 0
M  V30 BEGIN ATOM
M  V30 1 O 5.7458 1.3734 -1.7777 0
M  V30 2 C 4.7028 1.0137 -1.1704 0
M  V30 3 C 4.3407 -0.4108 -1.1383 0
M  V30 4 C 3.8534 2.0446 -0.4896 0
M  V30 5 C 3.2989 -0.8602 -0.4151 0
M  V30 6 C 2.4662 1.4906 -0.1209 0
M  V30 7 C 2.5164 0.0649 0.5176 0 CFG=1
M  V30 8 C 2.8176 -2.2647 -0.6168 0
M  V30 9 C 1.0605 -0.5174 0.8411 0 CFG=2
M  V30 10 C 3.3115 0.1489 1.8497 0
M  V30 11 C 1.4104 -2.1776 -1.1822 0
M  V30 12 C 0.4359 -1.5861 -0.1422 0 CFG=2
M  V30 13 C 0.0214 0.549 1.2627 0
M  V30 14 C -0.9297 -1.1852 -0.7816 0 CFG=1
M  V30 15 C -1.3367 -0.1046 1.5303 0
M  V30 16 C -2.0119 -0.7115 0.2454 0 CFG=1
M  V30 17 C -0.8236 -0.105 -1.8701 0
M  V30 18 C -2.8961 0.2934 -0.6077 0 CFG=1
M  V30 19 C -2.8398 -1.9473 0.7087 0
M  V30 20 C -1.9051 0.9284 -1.6017 0
M  V30 21 O -3.8164 -0.47 -1.3661 0
M  V30 22 C -3.6989 1.4195 0.1457 0 CFG=2
M  V30 23 O -2.852 2.3362 0.7974 0
M  V30 24 C -4.7293 0.8797 1.1427 0
M  V30 25 H 4.8933 -1.0874 -1.7796 0
M  V30 26 H 4.3775 2.4064 0.42 0
M  V30 27 H 3.7244 2.9175 -1.1657 0
M  V30 28 H 1.8585 1.4658 -1.045 0
M  V30 29 H 1.9989 2.219 0.5758 0
M  V30 30 H 3.4623 -2.8322 -1.3239 0
M  V30 31 H 2.8167 -2.8079 0.3531 0
M  V30 32 H 1.1965 -1.1114 1.7756 0
M  V30 33 H 4.3583 0.4812 1.6915 0
M  V30 34 H 2.8231 0.8556 2.5539 0
M  V30 35 H 3.371 -0.8478 2.3379 0
M  V30 36 H 1.432 -1.5695 -2.1121 0
M  V30 37 H 1.0706 -3.197 -1.4697 0
M  V30 38 H 0.1757 -2.4615 0.4997 0
M  V30 39 H -0.0995 1.3307 0.4945 0
M  V30 40 H 0.3659 1.0513 2.1927 0
M  V30 41 H -1.3122 -2.0952 -1.3012 0
M  V30 42 H -1.1534 -0.9082 2.2789 0
M  V30 43 H -1.9903 0.5936 2.0756 0
M  V30 44 H 0.1651 0.3855 -1.8865 0
M  V30 45 H -0.9836 -0.5608 -2.8725 0
M  V30 46 H -2.1841 -2.69 1.2118 0
M  V30 47 H -3.6305 -1.658 1.4274 0
M  V30 48 H -3.3189 -2.4784 -0.1402 0
M  V30 49 H -2.4012 1.2282 -2.551 0
M  V30 50 H -1.4363 1.8457 -1.1921 0
M  V30 51 H -4.3254 0.1343 -1.968 0
M  V30 52 H -4.2969 1.9656 -0.6253 0
M  V30 53 H -2.8203 3.1656 0.2522 0
M  V30 54 H -4.2456 0.4624 2.0468 0
M  V30 55 H -5.3913 1.7087 1.4721 0
M  V30 56 H -5.3644 0.1011 0.6702 0
M  V30 END ATOM
M  V30 BEGIN BOND
M  V30 1 2 1 2
M  V30 2 1 2 3
M  V30 3 1 2 4
M  V30 4 2 3 5
M  V30 5 1 4 6
M  V30 6 1 5 7
M  V30 7 1 5 8
M  V30 8 1 7 9
M  V30 9 1 7 10
M  V30 10 1 8 11
M  V30 11 1 9 12
M  V30 12 1 9 13
M  V30 13 1 12 14
M  V30 14 1 13 15
M  V30 15 1 14 16
M  V30 16 1 14 17
M  V30 17 1 16 18
M  V30 18 1 16 19
M  V30 19 1 17 20
M  V30 20 1 18 21
M  V30 21 1 18 22
M  V30 22 1 22 23
M  V30 23 1 22 24
M  V30 24 1 6 7
M  V30 25 1 11 12
M  V30 26 1 15 16
M  V30 27 1 18 20
M  V30 28 1 3 25
M  V30 29 1 4 26
M  V30 30 1 4 27
M  V30 31 1 6 28
M  V30 32 1 6 29
M  V30 33 1 8 30
M  V30 34 1 8 31
M  V30 35 1 9 32
M  V30 36 1 10 33
M  V30 37 1 10 34
M  V30 38 1 10 35
M  V30 39 1 11 36
M  V30 40 1 11 37
M  V30 41 1 12 38
M  V30 42 1 13 39
M  V30 43 1 13 40
M  V30 44 1 14 41
M  V30 45 1 15 42
M  V30 46 1 15 43
M  V30 47 1 17 44
M  V30 48 1 17 45
M  V30 49 1 19 46
M  V30 50 1 19 47
M  V30 51 1 19 48
M  V30 52 1 20 49
M  V30 53 1 20 50
M  V30 54 1 21 51
M  V30 55 1 22 52
M  V30 56 1 23 53
M  V30 57 1 24 54
M  V30 58 1 24 55
M  V30 59 1 24 56
M  V30 END BOND
M  V30 BEGIN COLLECTION
M  V30 MDLV30/STEABS ATOMS=(7 7 9 12 14 16 18 22)
M  V30 END COLLECTION
M  V30 END CTAB
M  END
>  <Structure No>
8235

>  <LogS>
-4.16

>  <MMFF94 Energy>
120.74

$$$$
Compound 8236
Actelion Java MolfileCreator 2.0

  0  0  0  0  0  0              0 V3000
M  V30 BEGIN CTAB
M  V30 COUNTS 53 55 0 0 0
M  V30 BEGIN ATOM
M  V30 1 F 9.6126 -0.0798 0.3192 0
M  V30 2 C 8.2856 -0.0235 0.0471 0
M  V30 3 C 7.6508 1.2135 -0.0838 0
M  V30 4 C 7.5533 -1.2024 -0.1072 0
M  V30 5 C 6.2825 1.2751 -0.3652 0
M  V30 6 C 6.1851 -1.1468 -0.3894 0
M  V30 7 C 5.5304 0.0932 -0.5151 0
M  V30 8 C 4.0772 0.1352 -0.8185 0
M  V30 9 O 3.5333 -0.8688 -1.3559 0
M  V30 10 C 3.2483 1.371 -0.5522 0
M  V30 11 C 1.7652 1.0635 -0.2873 0
M  V30 12 C 1.5625 0.3307 1.0606 0
M  V30 13 N 0.1774 -0.1465 1.3065 0 CHG=1 CFG=1
M  V30 14 C -0.1437 -1.3665 0.5204 0
M  V30 15 C -0.8529 0.9287 1.2297 0
M  V30 16 C -1.6573 -1.5647 0.3991 0
M  V30 17 C -1.6336 0.9409 -0.1002 0
M  V30 18 C -2.275 -0.4379 -0.4807 0 CFG=2
M  V30 19 O -1.9365 -0.7006 -1.8252 0
M  V30 20 C -3.8114 -0.3517 -0.3873 0
M  V30 21 C -4.4829 0.5842 -1.2017 0
M  V30 22 C -4.5954 -1.2131 0.4144 0
M  V30 23 C -5.875 0.6956 -1.1769 0
M  V30 24 C -5.9887 -1.0984 0.4365 0
M  V30 25 C -6.6351 -0.1303 -0.3412 0
M  V30 26 C -8.1323 -0.0388 -0.3449 0
M  V30 27 H 8.2198 2.1276 0.0277 0
M  V30 28 H 8.0449 -2.1615 -0.0079 0
M  V30 29 H 5.8242 2.248 -0.4827 0
M  V30 30 H 5.6371 -2.0743 -0.4995 0
M  V30 31 H 3.6526 1.9222 0.324 0
M  V30 32 H 3.3237 2.0366 -1.4385 0
M  V30 33 H 1.2286 2.0349 -0.2592 0
M  V30 34 H 1.3553 0.4845 -1.1387 0
M  V30 35 H 1.8602 1.0252 1.879 0
M  V30 36 H 2.2614 -0.5332 1.124 0
M  V30 37 H 0.1788 -0.4558 2.3092 0
M  V30 38 H 0.2951 -1.3337 -0.4982 0
M  V30 39 H 0.2928 -2.2606 1.0206 0
M  V30 40 H -1.5965 0.7906 2.0483 0
M  V30 41 H -0.4063 1.9317 1.409 0
M  V30 42 H -1.872 -2.5651 -0.036 0
M  V30 43 H -2.0693 -1.5431 1.4306 0
M  V30 44 H -0.9454 1.2682 -0.9067 0
M  V30 45 H -2.3978 1.7443 -0.0263 0
M  V30 46 H -2.3793 -1.5483 -2.0954 0
M  V30 47 H -3.9233 1.2314 -1.8659 0
M  V30 48 H -4.1583 -1.9949 1.0155 0
M  V30 49 H -6.3598 1.425 -1.8142 0
M  V30 50 H -6.5653 -1.7732 1.0575 0
M  V30 51 H -8.5418 -0.7195 -1.12 0
M  V30 52 H -8.4611 0.9993 -0.564 0
M  V30 53 H -8.5446 -0.3272 0.6453 0
M  V30 END ATOM
M  V30 BEGIN BOND
M  V30 1 1 1 2
M  V30 2 2 2 3
M  V30 3 1 2 4
M  V30 4 1 3 5
M  V30 5 2 4 6
M  V30 6 2 5 7
M  V30 7 1 7 8
M  V30 8 2 8 9
M  V30 9 1 8 10
M  V30 10 1 10 11
M  V30 11 1 11 12
M  V30 12 1 12 13
M  V30 13 1 13 14
M  V30 14 1 13 15
M  V30 15 1 14 16
M  V30 16 1 15 17
M  V30 17 1 16 18
M  V30 18 1 18 19
M  V30 19 1 18 20
M  V30 20 2 20 21
M  V30 21 1 20 22
M  V30 22 1 21 23
M  V30 23 2 22 24
M  V30 24 2 23 25
M  V30 25 1 25 26
M  V30 26 1 6 7
M  V30 27 1 17 18
M  V30 28 1 24 25
M  V30 29 1 3 27
M  V30 30 1 4 28
M  V30 31 1 5 29
M  V30 32 1 6 30
M  V30 33 1 10 31
M  V30 34 1 10 32
M  V30 35 1 11 33
M  V30 36 1 11 34
M  V30 37 1 12 35
M  V30 38 1 12 36
M  V30 39 1 13 37
M  V30 40 1 14 38
M  V30 41 1 14 39
M  V30 42 1 15 40
M  V30 43 1 15 41
M  V30 44 1 16 42
M  V30 45 1 16 43
M  V30 46 1 17 44
M  V30 47 1 17 45
M  V30 48 1 19 46
M  V30 49 1 21 47
M  V30 50 1 22 48
M  V30 51 1 23 49
M  V30 52 1 24 50
M  V30 53 1 26 51
M  V30 54 1 26 52
M  V30 55 1 26 53
M  V30 END BOND
M  V30 BEGIN COLLECTION
M  V30 MDLV30/STEABS ATOMS=(2 13 18)
M  V30 END COLLECTION
M  V30 END CTAB
M  END
>  <Structure No>
8236

>  <LogS>
-4.35

>  <MMFF94 Energy>
34.763

$$$$
Compound 8237
Actelion Java MolfileCreator 2.0

  0  0  0  0  0  0              0 V3000
M  V30 BEGIN CTAB
M  V30 COUNTS 67 70 0 0 0
M  V30 BEGIN ATOM
M  V30 1 O -7.1261 2.3441 1.2119 0
M  V30 2 C -6.1569 2.3357 0.4082 0
M  V30 3 O -5.2276 3.3678 0.4401 0 CHG=-1
M  V30 4 C -5.9831 1.1976 -0.5491 0
M  V30 5 C -5.3277 -0.0206 0.1195 0
M  V30 6 C -3.8415 0.2438 0.5475 0 CFG=2
M  V30 7 C -2.9 -0.9486 0.1379 0 CFG=2
M  V30 8 C -3.8214 0.5138 2.0749 0
M  V30 9 C -1.3431 -0.7887 0.3625 0 CFG=1
M  V30 10 C -3.0261 -1.3066 -1.3822 0
M  V30 11 C -0.8597 -0.4055 -1.0471 0 CFG=2
M  V30 12 C -0.8255 0.3168 1.318 0
M  V30 13 C -0.8319 -2.1706 0.874 0
M  V30 14 C -1.6274 -1.2905 -1.9987 0
M  V30 15 C 0.6669 -0.2338 -1.2468 0 CFG=1
M  V30 16 C 0.7121 0.4893 1.2384 0
M  V30 17 C 1.2161 0.7995 -0.2085 0 CFG=1
M  V30 18 C 1.48 -1.5528 -1.36 0
M  V30 19 C 2.7774 1.0683 -0.4016 0 CFG=2
M  V30 20 C 2.8034 -1.5404 -0.5753 0 CFG=2
M  V30 21 C 3.5685 -0.228 -0.8556 0 CFG=2
M  V30 22 C 3.443 1.7286 0.8597 0
M  V30 23 C 2.923 2.1171 -1.5441 0
M  V30 24 O 3.5786 -2.6416 -0.9785 0
M  V30 25 C 5.0078 -0.2573 -0.2891 0
M  V30 26 C 4.0094 0.719 1.871 0
M  V30 27 C 5.0454 -0.2451 1.2513 0 CFG=2
M  V30 28 O 6.3331 0.1145 1.6831 0
M  V30 29 H -5.3728 1.5269 -1.4177 0
M  V30 30 H -6.9816 0.903 -0.9392 0
M  V30 31 H -5.4152 -0.8684 -0.5886 0
M  V30 32 H -5.9517 -0.3456 0.9819 0
M  V30 33 H -3.4676 1.1543 0.0292 0
M  V30 34 H -3.2814 -1.827 0.7088 0
M  V30 35 H -3.0689 1.2765 2.3471 0
M  V30 36 H -4.781 0.9411 2.435 0
M  V30 37 H -3.6342 -0.42 2.6464 0
M  V30 38 H -3.6347 -0.5539 -1.9298 0
M  V30 39 H -3.494 -2.306 -1.5197 0
M  V30 40 H -1.2659 0.6184 -1.2493 0
M  V30 41 H -1.2751 1.2962 1.0497 0
M  V30 42 H -1.0947 0.0717 2.368 0
M  V30 43 H -1.2823 -2.3882 1.8666 0
M  V30 44 H 0.2596 -2.2228 1.0164 0
M  V30 45 H -1.1274 -2.9953 0.1921 0
M  V30 46 H -1.6394 -0.8648 -3.0263 0
M  V30 47 H -1.2088 -2.3175 -2.0375 0
M  V30 48 H 0.7664 0.2541 -2.2422 0
M  V30 49 H 0.9584 1.3299 1.917 0
M  V30 50 H 1.1995 -0.4011 1.6609 0
M  V30 51 H 0.7024 1.7616 -0.4414 0
M  V30 52 H 0.897 -2.4448 -1.0722 0
M  V30 53 H 1.7177 -1.7188 -2.4351 0
M  V30 54 H 2.6032 -1.624 0.5125 0
M  V30 55 H 3.6987 -0.2069 -1.9632 0
M  V30 56 H 4.3045 2.3643 0.553 0
M  V30 57 H 2.7497 2.4349 1.3602 0
M  V30 58 H 3.9933 2.3108 -1.7737 0
M  V30 59 H 2.4572 3.0851 -1.2567 0
M  V30 60 H 2.4435 1.7701 -2.4827 0
M  V30 61 H 3.1853 -3.4449 -0.5469 0
M  V30 62 H 5.5569 0.6301 -0.6746 0
M  V30 63 H 5.56 -1.1456 -0.6649 0
M  V30 64 H 4.4734 1.2849 2.709 0
M  V30 65 H 3.1955 0.1322 2.3322 0
M  V30 66 H 4.8146 -1.2729 1.6188 0
M  V30 67 H 6.9225 -0.6663 1.5129 0
M  V30 END ATOM
M  V30 BEGIN BOND
M  V30 1 2 1 2
M  V30 2 1 2 3
M  V30 3 1 2 4
M  V30 4 1 4 5
M  V30 5 1 5 6
M  V30 6 1 6 7
M  V30 7 1 6 8
M  V30 8 1 7 9
M  V30 9 1 7 10
M  V30 10 1 9 11
M  V30 11 1 9 12
M  V30 12 1 9 13
M  V30 13 1 10 14
M  V30 14 1 11 15
M  V30 15 1 12 16
M  V30 16 1 15 17
M  V30 17 1 15 18
M  V30 18 1 17 19
M  V30 19 1 18 20
M  V30 20 1 19 21
M  V30 21 1 19 22
M  V30 22 1 19 23
M  V30 23 1 20 24
M  V30 24 1 21 25
M  V30 25 1 22 26
M  V30 26 1 25 27
M  V30 27 1 27 28
M  V30 28 1 11 14
M  V30 29 1 16 17
M  V30 30 1 20 21
M  V30 31 1 26 27
M  V30 32 1 4 29
M  V30 33 1 4 30
M  V30 34 1 5 31
M  V30 35 1 5 32
M  V30 36 1 6 33
M  V30 37 1 7 34
M  V30 38 1 8 35
M  V30 39 1 8 36
M  V30 40 1 8 37
M  V30 41 1 10 38
M  V30 42 1 10 39
M  V30 43 1 11 40
M  V30 44 1 12 41
M  V30 45 1 12 42
M  V30 46 1 13 43
M  V30 47 1 13 44
M  V30 48 1 13 45
M  V30 49 1 14 46
M  V30 50 1 14 47
M  V30 51 1 15 48
M  V30 52 1 16 49
M  V30 53 1 16 50
M  V30 54 1 17 51
M  V30 55 1 18 52
M  V30 56 1 18 53
M  V30 57 1 20 54
M  V30 58 1 21 55
M  V30 59 1 22 56
M  V30 60 1 22 57
M  V30 61 1 23 58
M  V30 62 1 23 59
M  V30 63 1 23 60
M  V30 64 1 24 61
M  V30 65 1 25 62
M  V30 66 1 25 63
M  V30 67 1 26 64
M  V30 68 1 26 65
M  V30 69 1 27 66
M  V30 70 1 28 67
M  V30 END BOND
M  V30 BEGIN COLLECTION
M  V30 MDLV30/STEABS ATOMS=(10 6 7 9 11 15 17 19 20 21 27)
M  V30 END COLLECTION
M  V30 END CTAB
M  END
>  <Structure No>
8237

>  <LogS>
-4.82

>  <MMFF94 Energy>
109.8

$$$$
Compound 8238
Actelion Java MolfileCreator 2.0

  0  0  0  0  0  0              0 V3000
M  V30 BEGIN CTAB
M  V30 COUNTS 40 41 0 0 0
M  V30 BEGIN ATOM
M  V30 1 S -1.9946 -0.1661 1.3294 0
M  V30 2 C -2.7572 0.3163 -0.2677 0 CFG=2
M  V30 3 C -0.3387 0.5114 0.9625 0
M  V30 4 C -4.2638 0.2319 -0.1723 0
M  V30 5 C -2.2612 -0.5527 -1.3883 0
M  V30 6 C 0.6031 0.2286 2.1278 0
M  V30 7 C -4.9 -0.9698 0.1958 0
M  V30 8 C -5.0547 1.3562 -0.4729 0
M  V30 9 O -2.0343 -0.0499 -2.5202 0
M  V30 10 O -2.0938 -1.9201 -1.2023 0 CHG=-1
M  V30 11 S 2.263 0.9185 1.7885 0
M  V30 12 C -6.2944 -1.0388 0.2695 0
M  V30 13 C -6.4491 1.2815 -0.3977 0
M  V30 14 C 2.9534 -0.563 0.9508 0 CFG=1
M  V30 15 C -7.0683 0.0857 -0.0262 0
M  V30 16 C 4.1628 -0.181 0.1276 0
M  V30 17 C 3.3158 -1.6292 1.9453 0
M  V30 18 C 4.2031 -0.477 -1.2473 0
M  V30 19 C 5.2695 0.4584 0.7199 0
M  V30 20 O 3.8936 -1.3334 3.0252 0
M  V30 21 O 3.0533 -2.9617 1.6537 0 CHG=-1
M  V30 22 C 5.3221 -0.1343 -2.0124 0
M  V30 23 C 6.3857 0.7986 -0.05 0
M  V30 24 C 6.4119 0.5031 -1.4147 0
M  V30 25 H -2.4599 1.3676 -0.4784 0
M  V30 26 H 0.0561 0.0432 0.0376 0
M  V30 27 H -0.4156 1.6091 0.809 0
M  V30 28 H 0.2083 0.7215 3.0414 0
M  V30 29 H 0.6577 -0.8631 2.3248 0
M  V30 30 H -4.317 -1.8522 0.4273 0
M  V30 31 H -4.5944 2.2915 -0.7661 0
M  V30 32 H -6.7754 -1.9653 0.5553 0
M  V30 33 H -7.0501 2.1514 -0.6289 0
M  V30 34 H 2.1703 -0.975 0.279 0
M  V30 35 H -8.1478 0.0302 0.0309 0
M  V30 36 H 3.3697 -0.9729 -1.7291 0
M  V30 37 H 5.2677 0.6949 1.7765 0
M  V30 38 H 5.3445 -0.3642 -3.0699 0
M  V30 39 H 7.2313 1.2915 0.4123 0
M  V30 40 H 7.277 0.7672 -2.0091 0
M  V30 END ATOM
M  V30 BEGIN BOND
M  V30 1 1 1 2
M  V30 2 1 1 3
M  V30 3 1 2 4
M  V30 4 1 2 5
M  V30 5 1 3 6
M  V30 6 2 4 7
M  V30 7 1 4 8
M  V30 8 2 5 9
M  V30 9 1 5 10
M  V30 10 1 6 11
M  V30 11 1 7 12
M  V30 12 2 8 13
M  V30 13 1 11 14
M  V30 14 2 12 15
M  V30 15 1 14 16
M  V30 16 1 14 17
M  V30 17 2 16 18
M  V30 18 1 16 19
M  V30 19 2 17 20
M  V30 20 1 17 21
M  V30 21 1 18 22
M  V30 22 2 19 23
M  V30 23 2 22 24
M  V30 24 1 13 15
M  V30 25 1 23 24
M  V30 26 1 2 25
M  V30 27 1 3 26
M  V30 28 1 3 27
M  V30 29 1 6 28
M  V30 30 1 6 29
M  V30 31 1 7 30
M  V30 32 1 8 31
M  V30 33 1 12 32
M  V30 34 1 13 33
M  V30 35 1 14 34
M  V30 36 1 15 35
M  V30 37 1 18 36
M  V30 38 1 19 37
M  V30 39 1 22 38
M  V30 40 1 23 39
M  V30 41 1 24 40
M  V30 END BOND
M  V30 BEGIN COLLECTION
M  V30 MDLV30/STEABS ATOMS=(2 2 14)
M  V30 END COLLECTION
M  V30 END CTAB
M  END
>  <Structure No>
8238

>  <LogS>
-3.41

>  <MMFF94 Energy>
244.42

$$$$
Compound 8239
Actelion Java MolfileCreator 2.0

  0  0  0  0  0  0              0 V3000
M  V30 BEGIN CTAB
M  V30 COUNTS 38 38 0 0 0
M  V30 BEGIN ATOM
M  V30 1 O 1.4259 -2.0601 0.2375 0
M  V30 2 C 0.7713 -1.0974 -0.2473 0
M  V30 3 N 1.1865 -0.4971 -1.484 0
M  V30 4 C -0.4488 -0.5925 0.4846 0 CFG=1
M  V30 5 C 2.405 -0.9041 -2.1781 0
M  V30 6 N -0.2897 0.828 0.8257 0 CHG=1
M  V30 7 C -1.7166 -0.8356 -0.3622 0
M  V30 8 C 3.6096 -0.4308 -1.4249 0
M  V30 9 C -2.9744 -0.5438 0.4156 0
M  V30 10 O 4.3732 -1.2725 -0.8787 0
M  V30 11 N 3.8776 0.9736 -1.311 0
M  V30 12 C -3.6329 0.6883 0.269 0
M  V30 13 C -3.479 -1.4894 1.3232 0
M  V30 14 C 5.0218 1.4964 -0.5694 0
M  V30 15 C -4.7863 0.9638 1.0099 0
M  V30 16 C -4.6327 -1.2116 2.0624 0
M  V30 17 C 6.2872 1.2444 -1.3243 0
M  V30 18 C -5.2902 0.0161 1.9066 0
M  V30 19 O 6.5401 1.8988 -2.3698 0
M  V30 20 O 7.1753 0.2683 -0.8911 0 CHG=-1
M  V30 21 O -6.4407 0.3036 2.6373 0
M  V30 22 H 0.606 0.2592 -1.9102 0
M  V30 23 H -0.546 -1.1728 1.4314 0
M  V30 24 H 2.4205 -0.4529 -3.1933 0
M  V30 25 H 2.4209 -2.0093 -2.2981 0
M  V30 26 H 0.6269 0.9786 1.3071 0
M  V30 27 H -1.0475 1.1234 1.4825 0
M  V30 28 H -0.3287 1.4261 -0.031 0
M  V30 29 H -1.6876 -0.2165 -1.2853 0
M  V30 30 H -1.7412 -1.8981 -0.692 0
M  V30 31 H 3.2143 1.6528 -1.7483 0
M  V30 32 H -3.2511 1.4362 -0.4148 0
M  V30 33 H -2.9784 -2.4403 1.4579 0
M  V30 34 H 5.0692 1.0258 0.4361 0
M  V30 35 H 4.9006 2.5917 -0.4266 0
M  V30 36 H -5.2876 1.9157 0.889 0
M  V30 37 H -5.0136 -1.9496 2.7569 0
M  V30 38 H -6.8312 -0.3628 3.293 0
M  V30 END ATOM
M  V30 BEGIN BOND
M  V30 1 2 1 2
M  V30 2 1 2 3
M  V30 3 1 2 4
M  V30 4 1 3 5
M  V30 5 1 4 6
M  V30 6 1 4 7
M  V30 7 1 5 8
M  V30 8 1 7 9
M  V30 9 2 8 10
M  V30 10 1 8 11
M  V30 11 2 9 12
M  V30 12 1 9 13
M  V30 13 1 11 14
M  V30 14 1 12 15
M  V30 15 2 13 16
M  V30 16 1 14 17
M  V30 17 2 15 18
M  V30 18 2 17 19
M  V30 19 1 17 20
M  V30 20 1 18 21
M  V30 21 1 16 18
M  V30 22 1 3 22
M  V30 23 1 4 23
M  V30 24 1 5 24
M  V30 25 1 5 25
M  V30 26 1 6 26
M  V30 27 1 6 27
M  V30 28 1 6 28
M  V30 29 1 7 29
M  V30 30 1 7 30
M  V30 31 1 11 31
M  V30 32 1 12 32
M  V30 33 1 13 33
M  V30 34 1 14 34
M  V30 35 1 14 35
M  V30 36 1 15 36
M  V30 37 1 16 37
M  V30 38 1 21 38
M  V30 END BOND
M  V30 BEGIN COLLECTION
M  V30 MDLV30/STEABS ATOMS=(1 4)
M  V30 END COLLECTION
M  V30 END CTAB
M  END
>  <Structure No>
8239

>  <LogS>
-1.47

>  <MMFF94 Energy>
32.911

$$$$
Compound 8240
Actelion Java MolfileCreator 2.0

  0  0  0  0  0  0              0 V3000
M  V30 BEGIN CTAB
M  V30 COUNTS 42 44 0 0 0
M  V30 BEGIN ATOM
M  V30 1 O -1.4285 -1.9051 1.2697 0
M  V30 2 C -1.418 -0.7448 0.7775 0
M  V30 3 N -2.4945 -0.1225 0.257 0
M  V30 4 C -0.3133 0.0634 0.649 0
M  V30 5 N -2.1156 1.0812 -0.1712 0
M  V30 6 C -3.8191 -0.676 0.1617 0
M  V30 7 N 1.0172 -0.2469 1.0819 0
M  V30 8 C -0.7842 1.2288 0.0551 0
M  V30 9 C -2.9968 2.0679 -0.8032 0
M  V30 10 C -4.4604 -1.1742 1.3072 0
M  V30 11 C -4.4706 -0.7514 -1.0798 0
M  V30 12 C 2.1697 -0.0652 0.2491 0
M  V30 13 C 0.0016 2.477 -0.2256 0
M  V30 14 C -5.743 -1.7235 1.2139 0
M  V30 15 C -5.7532 -1.3014 -1.1699 0
M  V30 16 O 2.0315 0.2784 -0.9566 0
M  V30 17 N 3.4791 -0.2687 0.8013 0
M  V30 18 C -6.3897 -1.7853 -0.0235 0
M  V30 19 C 4.6863 -0.3177 0.0218 0
M  V30 20 C 4.7103 -0.8976 -1.2605 0
M  V30 21 C 5.882 0.1682 0.5741 0
M  V30 22 C 5.9043 -0.9532 -1.9867 0
M  V30 23 C 7.0733 0.1116 -0.1555 0
M  V30 24 C 7.0837 -0.4449 -1.4368 0
M  V30 25 H 1.1307 -0.7912 1.9661 0
M  V30 26 H -2.9866 1.9249 -1.9035 0
M  V30 27 H -4.0345 1.9628 -0.4244 0
M  V30 28 H -2.6675 3.1004 -0.5698 0
M  V30 29 H -3.9698 -1.1265 2.2712 0
M  V30 30 H -3.98 -0.3971 -1.977 0
M  V30 31 H 1.0153 2.4228 0.2191 0
M  V30 32 H -0.5066 3.3536 0.2253 0
M  V30 33 H 0.088 2.6232 -1.322 0
M  V30 34 H -6.2354 -2.1008 2.1007 0
M  V30 35 H -6.2515 -1.3567 -2.129 0
M  V30 36 H 3.5648 -0.2882 1.8427 0
M  V30 37 H -7.3822 -2.2114 -0.0946 0
M  V30 38 H 3.8174 -1.3306 -1.6909 0
M  V30 39 H 5.8872 0.6003 1.567 0
M  V30 40 H 5.9166 -1.3992 -2.9728 0
M  V30 41 H 7.9891 0.4973 0.2735 0
M  V30 42 H 8.0069 -0.4904 -1.9997 0
M  V30 END ATOM
M  V30 BEGIN BOND
M  V30 1 2 1 2
M  V30 2 1 2 3
M  V30 3 1 2 4
M  V30 4 1 3 5
M  V30 5 1 3 6
M  V30 6 1 4 7
M  V30 7 2 4 8
M  V30 8 1 5 9
M  V30 9 2 6 10
M  V30 10 1 6 11
M  V30 11 1 7 12
M  V30 12 1 8 13
M  V30 13 1 10 14
M  V30 14 2 11 15
M  V30 15 2 12 16
M  V30 16 1 12 17
M  V30 17 2 14 18
M  V30 18 1 17 19
M  V30 19 2 19 20
M  V30 20 1 19 21
M  V30 21 1 20 22
M  V30 22 2 21 23
M  V30 23 2 22 24
M  V30 24 1 5 8
M  V30 25 1 15 18
M  V30 26 1 23 24
M  V30 27 1 7 25
M  V30 28 1 9 26
M  V30 29 1 9 27
M  V30 30 1 9 28
M  V30 31 1 10 29
M  V30 32 1 11 30
M  V30 33 1 13 31
M  V30 34 1 13 32
M  V30 35 1 13 33
M  V30 36 1 14 34
M  V30 37 1 15 35
M  V30 38 1 17 36
M  V30 39 1 18 37
M  V30 40 1 20 38
M  V30 41 1 21 39
M  V30 42 1 22 40
M  V30 43 1 23 41
M  V30 44 1 24 42
M  V30 END BOND
M  V30 END CTAB
M  END
>  <Structure No>
8240

>  <LogS>
-2.3

>  <MMFF94 Energy>
51.1

$$$$
Compound 8241
Actelion Java MolfileCreator 2.0

  0  0  0  0  0  0              0 V3000
M  V30 BEGIN CTAB
M  V30 COUNTS 30 30 0 0 0
M  V30 BEGIN ATOM
M  V30 1 O 0.7875 0.63 2.7587 0
M  V30 2 C 0.5158 0.785 1.5363 0
M  V30 3 C -0.6408 0.0427 0.9555 0
M  V30 4 C 1.4216 1.6886 0.729 0
M  V30 5 C -1.2001 0.3804 -0.2933 0
M  V30 6 C -1.2002 -1.0298 1.6725 0
M  V30 7 C 2.5763 0.9413 0.0221 0
M  V30 8 C -2.2838 -0.3433 -0.8224 0
M  V30 9 C -2.2768 -1.7505 1.1551 0
M  V30 10 C 3.4793 0.1998 1.0177 0
M  V30 11 C 2.0773 -0.0109 -1.0719 0
M  V30 12 C -2.8239 -1.4196 -0.0861 0
M  V30 13 C -2.8508 0.0407 -2.1621 0
M  V30 14 O -3.8993 -2.1751 -0.5584 0
M  V30 15 H 0.8495 2.288 -0.0056 0
M  V30 16 H 1.867 2.4404 1.4177 0
M  V30 17 H -0.8091 1.2073 -0.8651 0
M  V30 18 H -0.7985 -1.3224 2.6347 0
M  V30 19 H 3.2029 1.713 -0.4779 0
M  V30 20 H -2.6884 -2.5755 1.723 0
M  V30 21 H 2.9349 -0.6407 1.4983 0
M  V30 22 H 3.8361 0.8969 1.8057 0
M  V30 23 H 4.3674 -0.2109 0.4918 0
M  V30 24 H 1.434 0.5353 -1.7936 0
M  V30 25 H 2.9407 -0.4289 -1.6321 0
M  V30 26 H 1.5037 -0.8551 -0.6351 0
M  V30 27 H -3.9183 0.3251 -2.0504 0
M  V30 28 H -2.7661 -0.8147 -2.8648 0
M  V30 29 H -2.3105 0.9034 -2.6068 0
M  V30 30 H -4.3506 -1.9981 -1.4467 0
M  V30 END ATOM
M  V30 BEGIN BOND
M  V30 1 2 1 2
M  V30 2 1 2 3
M  V30 3 1 2 4
M  V30 4 2 3 5
M  V30 5 1 3 6
M  V30 6 1 4 7
M  V30 7 1 5 8
M  V30 8 2 6 9
M  V30 9 1 7 10
M  V30 10 1 7 11
M  V30 11 2 8 12
M  V30 12 1 8 13
M  V30 13 1 12 14
M  V30 14 1 9 12
M  V30 15 1 4 15
M  V30 16 1 4 16
M  V30 17 1 5 17
M  V30 18 1 6 18
M  V30 19 1 7 19
M  V30 20 1 9 20
M  V30 21 1 10 21
M  V30 22 1 10 22
M  V30 23 1 10 23
M  V30 24 1 11 24
M  V30 25 1 11 25
M  V30 26 1 11 26
M  V30 27 1 13 27
M  V30 28 1 13 28
M  V30 29 1 13 29
M  V30 30 1 14 30
M  V30 END BOND
M  V30 END CTAB
M  END
>  <Structure No>
8241

>  <LogS>
-1.98

>  <MMFF94 Energy>
30.943

$$$$
Compound 8242
Actelion Java MolfileCreator 2.0

  0  0  0  0  0  0              0 V3000
M  V30 BEGIN CTAB
M  V30 COUNTS 26 26 0 0 0
M  V30 BEGIN ATOM
M  V30 1 O -1.6647 2.0613 -2.0613 0
M  V30 2 N -1.8843 1.4071 -0.8649 0
M  V30 3 C -0.9894 0.724 -0.2039 0
M  V30 4 C 0.4513 0.7344 -0.5655 0
M  V30 5 C -1.3916 -0.0266 1.0504 0 CFG=2
M  V30 6 N 0.9733 1.8544 -0.9839 0
M  V30 7 C 1.2159 -0.5827 -0.3892 0 CFG=2
M  V30 8 C -0.6789 -1.3895 1.1043 0
M  V30 9 C -2.9113 -0.2277 1.165 0
M  V30 10 O 2.2818 2.0272 -1.3676 0
M  V30 11 C 0.8387 -1.228 0.9612 0
M  V30 12 C 2.747 -0.5062 -0.4946 0
M  V30 13 H -0.8419 1.902 -2.6282 0
M  V30 14 H -1.0646 0.5769 1.9263 0
M  V30 15 H 0.8728 -1.2662 -1.1973 0
M  V30 16 H -1.0571 -2.052 0.2936 0
M  V30 17 H -0.894 -1.8831 2.0774 0
M  V30 18 H -3.4273 0.7547 1.2184 0
M  V30 19 H -3.1553 -0.7892 2.0922 0
M  V30 20 H -3.2987 -0.7943 0.2908 0
M  V30 21 H 2.6017 2.935 -1.6801 0
M  V30 22 H 1.3046 -2.2349 1.0397 0
M  V30 23 H 1.225 -0.607 1.8005 0
M  V30 24 H 3.0544 -0.2611 -1.5327 0
M  V30 25 H 3.1978 -1.4947 -0.2612 0
M  V30 26 H 3.1568 0.2374 0.222 0
M  V30 END ATOM
M  V30 BEGIN BOND
M  V30 1 1 1 2
M  V30 2 2 2 3
M  V30 3 1 3 4
M  V30 4 1 3 5
M  V30 5 2 4 6
M  V30 6 1 4 7
M  V30 7 1 5 8
M  V30 8 1 5 9
M  V30 9 1 6 10
M  V30 10 1 7 11
M  V30 11 1 7 12
M  V30 12 1 8 11
M  V30 13 1 1 13
M  V30 14 1 5 14
M  V30 15 1 7 15
M  V30 16 1 8 16
M  V30 17 1 8 17
M  V30 18 1 9 18
M  V30 19 1 9 19
M  V30 20 1 9 20
M  V30 21 1 10 21
M  V30 22 1 11 22
M  V30 23 1 11 23
M  V30 24 1 12 24
M  V30 25 1 12 25
M  V30 26 1 12 26
M  V30 END BOND
M  V30 BEGIN COLLECTION
M  V30 MDLV30/STEABS ATOMS=(2 5 7)
M  V30 END COLLECTION
M  V30 END CTAB
M  END
>  <Structure No>
8242

>  <LogS>
-1.32

>  <MMFF94 Energy>
75.022

$$$$
Compound 8243
Actelion Java MolfileCreator 2.0

  0  0  0  0  0  0              0 V3000
M  V30 BEGIN CTAB
M  V30 COUNTS 26 26 0 0 0
M  V30 BEGIN ATOM
M  V30 1 O 2.6928 -0.1582 -3.01 0
M  V30 2 N 1.3598 -0.2371 -2.6762 0
M  V30 3 C 0.9265 -0.2707 -1.4489 0
M  V30 4 C 1.8416 -0.3015 -0.2732 0
M  V30 5 C -0.5587 -0.3735 -1.2303 0
M  V30 6 N 3.1029 -0.5694 -0.4351 0
M  V30 7 C 1.3104 0.0801 1.09 0
M  V30 8 C -1.0048 0.3042 0.0791 0 CFG=2
M  V30 9 O 4.001 -0.5556 0.608 0
M  V30 10 C -0.1762 -0.2525 1.2538 0
M  V30 11 C -2.52 0.0828 0.2916 0
M  V30 12 C -3.1074 0.9813 1.3812 0
M  V30 13 H 2.9703 -0.1355 -3.9828 0
M  V30 14 H -1.091 0.1014 -2.0843 0
M  V30 15 H -0.8349 -1.4506 -1.2128 0
M  V30 16 H 1.4614 1.1718 1.2341 0
M  V30 17 H 1.8695 -0.4514 1.8899 0
M  V30 18 H -0.8153 1.3979 -0.0142 0
M  V30 19 H 4.9755 -0.7702 0.4394 0
M  V30 20 H -0.517 0.1873 2.2139 0
M  V30 21 H -0.3042 -1.3559 1.3205 0
M  V30 22 H -2.722 -0.9813 0.5432 0
M  V30 23 H -3.0594 0.3117 -0.6538 0
M  V30 24 H -2.7339 0.6877 2.3833 0
M  V30 25 H -2.855 2.0454 1.1875 0
M  V30 26 H -4.213 0.8783 1.3864 0
M  V30 END ATOM
M  V30 BEGIN BOND
M  V30 1 1 1 2
M  V30 2 2 2 3
M  V30 3 1 3 4
M  V30 4 1 3 5
M  V30 5 2 4 6
M  V30 6 1 4 7
M  V30 7 1 5 8
M  V30 8 1 6 9
M  V30 9 1 7 10
M  V30 10 1 8 11
M  V30 11 1 11 12
M  V30 12 1 8 10
M  V30 13 1 1 13
M  V30 14 1 5 14
M  V30 15 1 5 15
M  V30 16 1 7 16
M  V30 17 1 7 17
M  V30 18 1 8 18
M  V30 19 1 9 19
M  V30 20 1 10 20
M  V30 21 1 10 21
M  V30 22 1 11 22
M  V30 23 1 11 23
M  V30 24 1 12 24
M  V30 25 1 12 25
M  V30 26 1 12 26
M  V30 END BOND
M  V30 BEGIN COLLECTION
M  V30 MDLV30/STEABS ATOMS=(1 8)
M  V30 END COLLECTION
M  V30 END CTAB
M  END
>  <Structure No>
8243

>  <LogS>
-1.83

>  <MMFF94 Energy>
73.517

$$$$
Compound 8244
Actelion Java MolfileCreator 2.0

  0  0  0  0  0  0              0 V3000
M  V30 BEGIN CTAB
M  V30 COUNTS 48 50 0 0 0
M  V30 BEGIN ATOM
M  V30 1 O 1.7627 2.8857 -2.2439 0
M  V30 2 C 1.4562 2.0117 -1.389 0
M  V30 3 C 0.1966 2.1076 -0.6048 0
M  V30 4 C 2.413 0.8857 -1.1221 0
M  V30 5 C -0.144 1.021 0.2271 0
M  V30 6 C -0.6353 3.2473 -0.6475 0
M  V30 7 C 1.6328 -0.3878 -0.7735 0 CFG=2
M  V30 8 O 0.6751 -0.1161 0.25 0
M  V30 9 C -1.2971 1.0697 1.0347 0
M  V30 10 O -0.2925 4.3232 -1.4842 0
M  V30 11 C -1.7874 3.2853 0.1585 0
M  V30 12 C 2.5657 -1.4867 -0.328 0
M  V30 13 C -2.1129 2.2152 0.9991 0
M  V30 14 C -1.6588 -0.0893 1.9393 0
M  V30 15 C -1.0469 5.5241 -1.6147 0
M  V30 16 C 3.1013 -1.487 0.9723 0
M  V30 17 C 2.9481 -2.4972 -1.2264 0
M  V30 18 O -3.251 2.2884 1.8036 0
M  V30 19 C -2.9584 -0.7387 1.5264 0
M  V30 20 C 3.9849 -2.4939 1.3719 0
M  V30 21 C 3.8321 -3.5029 -0.8238 0
M  V30 22 C -3.1025 -1.5603 0.4618 0
M  V30 23 C 4.3515 -3.5043 0.4776 0
M  V30 24 C -4.4466 -2.174 0.1658 0
M  V30 25 C -1.9473 -1.921 -0.437 0
M  V30 26 O 5.2326 -4.5015 0.8897 0
M  V30 27 H 3.0456 0.702 -2.0182 0
M  V30 28 H 3.0714 1.178 -0.2755 0
M  V30 29 H 1.0752 -0.7161 -1.68 0
M  V30 30 H -2.4373 4.1495 0.1483 0
M  V30 31 H -1.7751 0.3037 2.9724 0
M  V30 32 H -0.8564 -0.8536 1.9986 0
M  V30 33 H -0.5428 6.1906 -2.3441 0
M  V30 34 H -1.1047 6.0476 -0.6369 0
M  V30 35 H -2.0672 5.2958 -1.9892 0
M  V30 36 H 2.8357 -0.7073 1.6756 0
M  V30 37 H 2.5626 -2.5072 -2.2384 0
M  V30 38 H -3.857 3.1006 1.7973 0
M  V30 39 H -3.8219 -0.531 2.1533 0
M  V30 40 H 4.3878 -2.4872 2.3768 0
M  V30 41 H 4.1147 -4.2781 -1.5244 0
M  V30 42 H -5.2439 -1.7854 0.8354 0
M  V30 43 H -4.7349 -1.9473 -0.882 0
M  V30 44 H -4.3857 -3.2752 0.2929 0
M  V30 45 H -2.2543 -2.6805 -1.1869 0
M  V30 46 H -1.6039 -1.023 -0.9887 0
M  V30 47 H -1.1115 -2.3479 0.1554 0
M  V30 48 H 5.5179 -5.2469 0.2654 0
M  V30 END ATOM
M  V30 BEGIN BOND
M  V30 1 2 1 2
M  V30 2 1 2 3
M  V30 3 1 2 4
M  V30 4 2 3 5
M  V30 5 1 3 6
M  V30 6 1 4 7
M  V30 7 1 5 8
M  V30 8 1 5 9
M  V30 9 1 6 10
M  V30 10 2 6 11
M  V30 11 1 7 12
M  V30 12 2 9 13
M  V30 13 1 9 14
M  V30 14 1 10 15
M  V30 15 2 12 16
M  V30 16 1 12 17
M  V30 17 1 13 18
M  V30 18 1 14 19
M  V30 19 1 16 20
M  V30 20 2 17 21
M  V30 21 2 19 22
M  V30 22 2 20 23
M  V30 23 1 22 24
M  V30 24 1 22 25
M  V30 25 1 23 26
M  V30 26 1 7 8
M  V30 27 1 11 13
M  V30 28 1 21 23
M  V30 29 1 4 27
M  V30 30 1 4 28
M  V30 31 1 7 29
M  V30 32 1 11 30
M  V30 33 1 14 31
M  V30 34 1 14 32
M  V30 35 1 15 33
M  V30 36 1 15 34
M  V30 37 1 15 35
M  V30 38 1 16 36
M  V30 39 1 17 37
M  V30 40 1 18 38
M  V30 41 1 19 39
M  V30 42 1 20 40
M  V30 43 1 21 41
M  V30 44 1 24 42
M  V30 45 1 24 43
M  V30 46 1 24 44
M  V30 47 1 25 45
M  V30 48 1 25 46
M  V30 49 1 25 47
M  V30 50 1 26 48
M  V30 END BOND
M  V30 BEGIN COLLECTION
M  V30 MDLV30/STEABS ATOMS=(1 7)
M  V30 END COLLECTION
M  V30 END CTAB
M  END
>  <Structure No>
8244

>  <LogS>
-5.44

>  <MMFF94 Energy>
59.774

$$$$
Compound 8245
Actelion Java MolfileCreator 2.0

  0  0  0  0  0  0              0 V3000
M  V30 BEGIN CTAB
M  V30 COUNTS 29 30 0 0 0
M  V30 BEGIN ATOM
M  V30 1 O -4.3675 0.1585 -2.1422 0
M  V30 2 C -4.1886 0.2898 -0.9018 0
M  V30 3 N -4.5189 1.5242 -0.2654 0
M  V30 4 C -3.5879 -0.8331 -0.113 0
M  V30 5 C -2.0983 -0.6545 -0.0104 0
M  V30 6 C -1.5408 0.0504 1.0668 0
M  V30 7 C -1.2562 -1.1456 -1.0192 0
M  V30 8 C -0.1587 0.2437 1.1453 0
M  V30 9 C 0.1261 -0.954 -0.9412 0
M  V30 10 C 0.6909 -0.2579 0.1428 0
M  V30 11 C 2.1599 -0.0525 0.2251 0
M  V30 12 C 2.6877 1.1778 0.6617 0
M  V30 13 C 3.048 -1.0849 -0.1324 0
M  V30 14 C 4.0709 1.3682 0.7374 0
M  V30 15 C 4.4303 -0.8891 -0.0536 0
M  V30 16 C 4.9412 0.336 0.3805 0
M  V30 17 H -4.9226 2.3116 -0.82 0
M  V30 18 H -4.3583 1.6558 0.7579 0
M  V30 19 H -4.0451 -0.8631 0.8999 0
M  V30 20 H -3.8237 -1.8038 -0.6017 0
M  V30 21 H -2.1763 0.4485 1.8483 0
M  V30 22 H -1.6713 -1.6734 -1.869 0
M  V30 23 H 0.2464 0.7731 1.9985 0
M  V30 24 H 0.7513 -1.3321 -1.7402 0
M  V30 25 H 2.032 1.9977 0.9269 0
M  V30 26 H 2.6739 -2.0484 -0.4555 0
M  V30 27 H 4.4681 2.3187 1.0701 0
M  V30 28 H 5.1058 -1.6896 -0.3265 0
M  V30 29 H 6.0116 0.4855 0.4403 0
M  V30 END ATOM
M  V30 BEGIN BOND
M  V30 1 2 1 2
M  V30 2 1 2 3
M  V30 3 1 2 4
M  V30 4 1 4 5
M  V30 5 2 5 6
M  V30 6 1 5 7
M  V30 7 1 6 8
M  V30 8 2 7 9
M  V30 9 2 8 10
M  V30 10 1 10 11
M  V30 11 2 11 12
M  V30 12 1 11 13
M  V30 13 1 12 14
M  V30 14 2 13 15
M  V30 15 2 14 16
M  V30 16 1 9 10
M  V30 17 1 15 16
M  V30 18 1 3 17
M  V30 19 1 3 18
M  V30 20 1 4 19
M  V30 21 1 4 20
M  V30 22 1 6 21
M  V30 23 1 7 22
M  V30 24 1 8 23
M  V30 25 1 9 24
M  V30 26 1 12 25
M  V30 27 1 13 26
M  V30 28 1 14 27
M  V30 29 1 15 28
M  V30 30 1 16 29
M  V30 END BOND
M  V30 END CTAB
M  END
>  <Structure No>
8245

>  <LogS>
-3.33

>  <MMFF94 Energy>
34.253

$$$$
Compound 8246
Actelion Java MolfileCreator 2.0

  0  0  0  0  0  0              0 V3000
M  V30 BEGIN CTAB
M  V30 COUNTS 25 25 0 0 0
M  V30 BEGIN ATOM
M  V30 1 Cl 5.0847 -2.0961 0.0805 0
M  V30 2 C 3.7613 -0.9428 0.0094 0
M  V30 3 C 4.0194 0.429 -0.1135 0
M  V30 4 C 2.4415 -1.4046 0.0765 0
M  V30 5 O 5.334 0.8878 -0.1803 0
M  V30 6 C 2.9512 1.3333 -0.1686 0
M  V30 7 C 1.3644 -0.501 0.0216 0
M  V30 8 C 1.6333 0.873 -0.1016 0
M  V30 9 C -0.0322 -0.9844 0.0923 0
M  V30 10 O -0.2712 -2.2189 0.2031 0
M  V30 11 O -1.0893 -0.0695 0.0359 0
M  V30 12 C -2.4553 -0.4661 0.0985 0
M  V30 13 C -3.3466 0.7706 0.0112 0
M  V30 14 C -4.824 0.3946 0.0743 0
M  V30 15 H 2.2612 -2.4684 0.1715 0
M  V30 16 H 5.5475 1.8745 -0.2692 0
M  V30 17 H 3.141 2.3949 -0.2636 0
M  V30 18 H 0.8264 1.5938 -0.1465 0
M  V30 19 H -2.6808 -1.151 -0.7481 0
M  V30 20 H -2.643 -0.9962 1.0581 0
M  V30 21 H -3.109 1.4571 0.8526 0
M  V30 22 H -3.1465 1.3031 -0.9437 0
M  V30 23 H -5.4442 1.3132 0.0086 0
M  V30 24 H -5.0508 -0.1191 1.0327 0
M  V30 25 H -5.0885 -0.2739 -0.7723 0
M  V30 END ATOM
M  V30 BEGIN BOND
M  V30 1 1 1 2
M  V30 2 2 2 3
M  V30 3 1 2 4
M  V30 4 1 3 5
M  V30 5 1 3 6
M  V30 6 2 4 7
M  V30 7 2 6 8
M  V30 8 1 7 9
M  V30 9 2 9 10
M  V30 10 1 9 11
M  V30 11 1 11 12
M  V30 12 1 12 13
M  V30 13 1 13 14
M  V30 14 1 7 8
M  V30 15 1 4 15
M  V30 16 1 5 16
M  V30 17 1 6 17
M  V30 18 1 8 18
M  V30 19 1 12 19
M  V30 20 1 12 20
M  V30 21 1 13 21
M  V30 22 1 13 22
M  V30 23 1 14 23
M  V30 24 1 14 24
M  V30 25 1 14 25
M  V30 END BOND
M  V30 END CTAB
M  END
>  <Structure No>
8246

>  <LogS>
-3.38

>  <MMFF94 Energy>
24.775

$$$$
Compound 8247
Actelion Java MolfileCreator 2.0

  0  0  0  0  0  0              0 V3000
M  V30 BEGIN CTAB
M  V30 COUNTS 39 42 0 0 0
M  V30 BEGIN ATOM
M  V30 1 S -1.0725 -2.0634 2.0634 0
M  V30 2 O -0.3026 -3.3024 2.4218 0
M  V30 3 O -2.2032 -1.8175 3.0218 0
M  V30 4 O -0.0499 -0.7177 1.9749 0
M  V30 5 C -1.6061 -2.0939 0.4516 0
M  V30 6 C -0.0107 -0.2764 0.6121 0
M  V30 7 C -0.9831 -1.0938 -0.2353 0
M  V30 8 C -2.5249 -2.9591 -0.1399 0
M  V30 9 C -0.4702 1.1838 0.5504 0
M  V30 10 C 1.4461 -0.4372 0.1587 0
M  V30 11 C -1.2599 -0.9154 -1.6013 0
M  V30 12 C -2.813 -2.7895 -1.501 0
M  V30 13 C -1.4032 1.6768 1.486 0
M  V30 14 C -0.0604 2.0362 -0.498 0
M  V30 15 C 1.8683 -1.4981 -0.6744 0
M  V30 16 C 2.4311 0.4212 0.6912 0
M  V30 17 C -2.1801 -1.7687 -2.2318 0
M  V30 18 C -1.8687 2.9923 1.4053 0
M  V30 19 C -0.5282 3.3507 -0.574 0
M  V30 20 C 3.2153 -1.6423 -1.0186 0
M  V30 21 C 3.7761 0.2728 0.3439 0
M  V30 22 C -1.4293 3.8336 0.3771 0
M  V30 23 C 4.1708 -0.7565 -0.5168 0
M  V30 24 O -1.8862 5.1466 0.2884 0
M  V30 25 O 5.5086 -0.913 -0.8717 0
M  V30 26 H -3.003 -3.741 0.4356 0
M  V30 27 H -0.7663 -0.1409 -2.1717 0
M  V30 28 H -3.5212 -3.4459 -1.9897 0
M  V30 29 H -1.7804 1.0448 2.2792 0
M  V30 30 H 0.6226 1.6862 -1.2609 0
M  V30 31 H 1.1688 -2.2273 -1.0584 0
M  V30 32 H 2.1559 1.2116 1.3785 0
M  V30 33 H -2.4 -1.6421 -3.2839 0
M  V30 34 H -2.5777 3.3541 2.1392 0
M  V30 35 H -0.1944 3.9934 -1.3787 0
M  V30 36 H 3.5187 -2.4526 -1.6693 0
M  V30 37 H 4.5119 0.9541 0.752 0
M  V30 38 H -2.5417 5.5258 0.962 0
M  V30 39 H 6.2257 -0.2882 -0.522 0
M  V30 END ATOM
M  V30 BEGIN BOND
M  V30 1 2 1 2
M  V30 2 2 1 3
M  V30 3 1 1 4
M  V30 4 1 1 5
M  V30 5 1 4 6
M  V30 6 2 5 7
M  V30 7 1 5 8
M  V30 8 1 6 9
M  V30 9 1 6 10
M  V30 10 1 7 11
M  V30 11 2 8 12
M  V30 12 2 9 13
M  V30 13 1 9 14
M  V30 14 2 10 15
M  V30 15 1 10 16
M  V30 16 2 11 17
M  V30 17 1 13 18
M  V30 18 2 14 19
M  V30 19 1 15 20
M  V30 20 2 16 21
M  V30 21 2 18 22
M  V30 22 2 20 23
M  V30 23 1 22 24
M  V30 24 1 23 25
M  V30 25 1 6 7
M  V30 26 1 12 17
M  V30 27 1 19 22
M  V30 28 1 21 23
M  V30 29 1 8 26
M  V30 30 1 11 27
M  V30 31 1 12 28
M  V30 32 1 13 29
M  V30 33 1 14 30
M  V30 34 1 15 31
M  V30 35 1 16 32
M  V30 36 1 17 33
M  V30 37 1 18 34
M  V30 38 1 19 35
M  V30 39 1 20 36
M  V30 40 1 21 37
M  V30 41 1 24 38
M  V30 42 1 25 39
M  V30 END BOND
M  V30 END CTAB
M  END
>  <Structure No>
8247

>  <LogS>
-3.07

>  <MMFF94 Energy>
43.766

$$$$
Compound 8248
Actelion Java MolfileCreator 2.0

  0  0  0  0  0  0              0 V3000
M  V30 BEGIN CTAB
M  V30 COUNTS 24 24 0 0 0
M  V30 BEGIN ATOM
M  V30 1 O 5.0765 0.3958 -1.0295 0
M  V30 2 N 4.3562 0.4112 -0.0097 0 CHG=1
M  V30 3 O 4.9527 0.5718 1.2199 0 CHG=-1
M  V30 4 C 2.9281 0.2636 -0.1162 0
M  V30 5 C 2.3146 0.0993 -1.3705 0
M  V30 6 C 2.1251 0.2817 1.0345 0
M  V30 7 C 0.9231 -0.0446 -1.4771 0
M  V30 8 C 0.7394 0.139 0.9367 0
M  V30 9 N 0.3283 -0.2102 -2.7697 0
M  V30 10 C 0.1245 -0.0253 -0.3185 0
M  V30 11 O -1.2661 -0.1713 -0.4491 0
M  V30 12 C -2.1866 -0.1698 0.6387 0
M  V30 13 C -3.5797 -0.3487 0.1156 0
M  V30 14 C -4.6267 -0.3813 0.9431 0
M  V30 15 H 2.9169 0.0827 -2.2701 0
M  V30 16 H 2.5682 0.4066 2.0141 0
M  V30 17 H 0.1549 0.1583 1.8462 0
M  V30 18 H -0.7034 -0.3201 -2.8851 0
M  V30 19 H 0.9198 -0.2247 -3.6305 0
M  V30 20 H -2.1219 0.7985 1.1809 0
M  V30 21 H -1.9468 -1.0054 1.3316 0
M  V30 22 H -3.7448 -0.454 -0.953 0
M  V30 23 H -4.4935 -0.2786 2.016 0
M  V30 24 H -5.6285 -0.5116 0.5469 0
M  V30 END ATOM
M  V30 BEGIN BOND
M  V30 1 2 1 2
M  V30 2 1 2 3
M  V30 3 1 2 4
M  V30 4 2 4 5
M  V30 5 1 4 6
M  V30 6 1 5 7
M  V30 7 2 6 8
M  V30 8 1 7 9
M  V30 9 2 7 10
M  V30 10 1 10 11
M  V30 11 1 11 12
M  V30 12 1 12 13
M  V30 13 2 13 14
M  V30 14 1 8 10
M  V30 15 1 5 15
M  V30 16 1 6 16
M  V30 17 1 8 17
M  V30 18 1 9 18
M  V30 19 1 9 19
M  V30 20 1 12 20
M  V30 21 1 12 21
M  V30 22 1 13 22
M  V30 23 1 14 23
M  V30 24 1 14 24
M  V30 END BOND
M  V30 END CTAB
M  END
>  <Structure No>
8248

>  <LogS>
-2.8

>  <MMFF94 Energy>
63.552

$$$$
Compound 8249
Actelion Java MolfileCreator 2.0

  0  0  0  0  0  0              0 V3000
M  V30 BEGIN CTAB
M  V30 COUNTS 25 25 0 0 0
M  V30 BEGIN ATOM
M  V30 1 O -4.3186 -0.0783 -0.0783 0
M  V30 2 C -3.1213 0.3134 -0.0296 0
M  V30 3 N -2.0518 -0.5945 -0.3665 0
M  V30 4 N -2.8518 1.6698 0.3356 0
M  V30 5 C -0.6912 -0.3116 0.0125 0
M  V30 6 C -2.3444 -1.7807 -1.1768 0
M  V30 7 C 0.3373 -0.3525 -0.9418 0
M  V30 8 C -0.3757 -0.0115 1.3468 0
M  V30 9 C 1.6586 -0.0869 -0.5703 0
M  V30 10 C 0.9451 0.254 1.718 0
M  V30 11 C 1.9718 0.22 0.7676 0
M  V30 12 O 3.2809 0.4942 1.1903 0
M  V30 13 C 4.4183 0.4946 0.334 0
M  V30 14 H -1.8908 2.0713 0.2748 0
M  V30 15 H -3.636 2.3015 0.6121 0
M  V30 16 H -2.5264 -1.4772 -2.229 0
M  V30 17 H -3.241 -2.3053 -0.7844 0
M  V30 18 H -1.4978 -2.4999 -1.1484 0
M  V30 19 H 0.113 -0.5794 -1.9763 0
M  V30 20 H -1.1539 0.0105 2.0992 0
M  V30 21 H 2.4273 -0.1215 -1.3299 0
M  V30 22 H 1.1731 0.4852 2.7508 0
M  V30 23 H 5.3204 0.743 0.9297 0
M  V30 24 H 4.2965 1.2591 -0.4622 0
M  V30 25 H 4.5562 -0.51 -0.118 0
M  V30 END ATOM
M  V30 BEGIN BOND
M  V30 1 2 1 2
M  V30 2 1 2 3
M  V30 3 1 2 4
M  V30 4 1 3 5
M  V30 5 1 3 6
M  V30 6 2 5 7
M  V30 7 1 5 8
M  V30 8 1 7 9
M  V30 9 2 8 10
M  V30 10 2 9 11
M  V30 11 1 11 12
M  V30 12 1 12 13
M  V30 13 1 10 11
M  V30 14 1 4 14
M  V30 15 1 4 15
M  V30 16 1 6 16
M  V30 17 1 6 17
M  V30 18 1 6 18
M  V30 19 1 7 19
M  V30 20 1 8 20
M  V30 21 1 9 21
M  V30 22 1 10 22
M  V30 23 1 13 23
M  V30 24 1 13 24
M  V30 25 1 13 25
M  V30 END BOND
M  V30 END CTAB
M  END
>  <Structure No>
8249

>  <LogS>
-1.16

>  <MMFF94 Energy>
-49.617

$$$$
Compound 8250
Actelion Java MolfileCreator 2.0

  0  0  0  0  0  0              0 V3000
M  V30 BEGIN CTAB
M  V30 COUNTS 31 31 0 0 0
M  V30 BEGIN ATOM
M  V30 1 O 5.9228 -0.7093 1.5767 0
M  V30 2 C 5.1979 0.2329 1.1587 0
M  V30 3 N 3.8355 -0.0127 0.8033 0
M  V30 4 N 5.7436 1.546 1.0417 0
M  V30 5 N 3.3003 -1.3082 0.9197 0
M  V30 6 C 2.0739 -1.6218 0.6204 0
M  V30 7 C 1.0771 -0.6235 0.111 0
M  V30 8 O -0.1531 -1.2757 -0.1269 0
M  V30 9 C -1.1582 -0.3432 -0.4913 0
M  V30 10 C -2.0334 -0.9675 -1.6034 0
M  V30 11 C -2.0139 0.0017 0.7396 0
M  V30 12 C -3.4831 -0.4382 -1.6259 0
M  V30 13 C -3.1047 1.0406 0.4061 0
M  V30 14 C -3.5822 0.9807 -1.0584 0
M  V30 15 H 3.2572 0.786 0.4595 0
M  V30 16 H 5.1556 2.3368 0.6971 0
M  V30 17 H 6.7384 1.7289 1.3007 0
M  V30 18 H 1.7623 -2.6508 0.747 0
M  V30 19 H 1.4655 -0.1912 -0.8384 0
M  V30 20 H 0.958 0.176 0.8768 0
M  V30 21 H -0.7383 0.6096 -0.9009 0
M  V30 22 H -2.0694 -2.0725 -1.4811 0
M  V30 23 H -1.5534 -0.7646 -2.5858 0
M  V30 24 H -1.37 0.3995 1.5531 0
M  V30 25 H -2.4932 -0.9278 1.1196 0
M  V30 26 H -4.1326 -1.1108 -1.0229 0
M  V30 27 H -3.867 -0.4494 -2.6689 0
M  V30 28 H -3.9711 0.8761 1.0833 0
M  V30 29 H -2.7159 2.0622 0.6102 0
M  V30 30 H -4.6338 1.335 -1.1209 0
M  V30 31 H -2.9612 1.6623 -1.6807 0
M  V30 END ATOM
M  V30 BEGIN BOND
M  V30 1 2 1 2
M  V30 2 1 2 3
M  V30 3 1 2 4
M  V30 4 1 3 5
M  V30 5 2 5 6
M  V30 6 1 6 7
M  V30 7 1 7 8
M  V30 8 1 8 9
M  V30 9 1 9 10
M  V30 10 1 9 11
M  V30 11 1 10 12
M  V30 12 1 11 13
M  V30 13 1 12 14
M  V30 14 1 13 14
M  V30 15 1 3 15
M  V30 16 1 4 16
M  V30 17 1 4 17
M  V30 18 1 6 18
M  V30 19 1 7 19
M  V30 20 1 7 20
M  V30 21 1 9 21
M  V30 22 1 10 22
M  V30 23 1 10 23
M  V30 24 1 11 24
M  V30 25 1 11 25
M  V30 26 1 12 26
M  V30 27 1 12 27
M  V30 28 1 13 28
M  V30 29 1 13 29
M  V30 30 1 14 30
M  V30 31 1 14 31
M  V30 END BOND
M  V30 END CTAB
M  END
>  <Structure No>
8250

>  <LogS>
-1.74

>  <MMFF94 Energy>
-10.402

$$$$
Compound 8251
Actelion Java MolfileCreator 2.0

  0  0  0  0  0  0              0 V3000
M  V30 BEGIN CTAB
M  V30 COUNTS 28 28 0 0 0
M  V30 BEGIN ATOM
M  V30 1 O 2.3532 -0.0783 -2.2747 0
M  V30 2 C 3.0797 -0.151 -1.2464 0
M  V30 3 N 2.4811 -0.0695 0.0663 0
M  V30 4 N 4.4895 -0.3326 -1.4135 0
M  V30 5 C 1.0739 0.2091 0.2024 0
M  V30 6 C 3.2845 -0.305 1.2696 0
M  V30 7 C 0.2465 -0.6562 0.9345 0
M  V30 8 C 0.5166 1.3541 -0.3865 0
M  V30 9 C -1.1182 -0.385 1.0707 0
M  V30 10 C -0.8474 1.6254 -0.2502 0
M  V30 11 C -1.6779 0.7614 0.4732 0
M  V30 12 O -3.0407 1.0863 0.577 0
M  V30 13 C -4.0453 0.2727 1.1831 0
M  V30 14 C -4.4218 -0.8904 0.2717 0
M  V30 15 H 5.1412 -0.4112 -0.6034 0
M  V30 16 H 4.8942 -0.3924 -2.3741 0
M  V30 17 H 4.1054 0.4401 1.3266 0
M  V30 18 H 3.7075 -1.3314 1.2457 0
M  V30 19 H 2.6737 -0.1972 2.1917 0
M  V30 20 H 0.6588 -1.5466 1.392 0
M  V30 21 H 1.1421 2.041 -0.9425 0
M  V30 22 H -1.723 -1.0731 1.6433 0
M  V30 23 H -1.2628 2.5137 -0.7093 0
M  V30 24 H -3.7145 -0.0911 2.1788 0
M  V30 25 H -4.9492 0.8973 1.343 0
M  V30 26 H -5.2336 -1.4844 0.7417 0
M  V30 27 H -4.7796 -0.5032 -0.7056 0
M  V30 28 H -3.5497 -1.5536 0.0994 0
M  V30 END ATOM
M  V30 BEGIN BOND
M  V30 1 2 1 2
M  V30 2 1 2 3
M  V30 3 1 2 4
M  V30 4 1 3 5
M  V30 5 1 3 6
M  V30 6 2 5 7
M  V30 7 1 5 8
M  V30 8 1 7 9
M  V30 9 2 8 10
M  V30 10 2 9 11
M  V30 11 1 11 12
M  V30 12 1 12 13
M  V30 13 1 13 14
M  V30 14 1 10 11
M  V30 15 1 4 15
M  V30 16 1 4 16
M  V30 17 1 6 17
M  V30 18 1 6 18
M  V30 19 1 6 19
M  V30 20 1 7 20
M  V30 21 1 8 21
M  V30 22 1 9 22
M  V30 23 1 10 23
M  V30 24 1 13 24
M  V30 25 1 13 25
M  V30 26 1 14 26
M  V30 27 1 14 27
M  V30 28 1 14 28
M  V30 END BOND
M  V30 END CTAB
M  END
>  <Structure No>
8251

>  <LogS>
-1.66

>  <MMFF94 Energy>
-51.839

$$$$
Compound 8252
Actelion Java MolfileCreator 2.0

  0  0  0  0  0  0              0 V3000
M  V30 BEGIN CTAB
M  V30 COUNTS 29 29 0 0 0
M  V30 BEGIN ATOM
M  V30 1 O 4.8314 0.7117 1.3446 0
M  V30 2 N 4.3883 0.7436 0.1776 0 CHG=1
M  V30 3 O 5.182 1.2661 -0.8178 0 CHG=-1
M  V30 4 C 3.0716 0.2441 -0.1221 0
M  V30 5 C 2.5787 0.2826 -1.436 0
M  V30 6 C 2.2599 -0.29 0.8912 0
M  V30 7 C 1.2966 -0.2001 -1.7381 0
M  V30 8 C 0.9831 -0.774 0.5992 0
M  V30 9 N 0.8243 -0.1427 -3.0897 0
M  V30 10 C 0.4838 -0.73 -0.7173 0
M  V30 11 O -0.7958 -1.2055 -1.0589 0
M  V30 12 C -1.824 -1.6249 -0.158 0
M  V30 13 C -2.7427 -0.4578 0.2234 0
M  V30 14 C -2.0583 0.5662 1.1364 0
M  V30 15 C -3.0359 1.6541 1.5717 0
M  V30 16 H 3.1897 0.6894 -2.2318 0
M  V30 17 H 2.6131 -0.3349 1.9137 0
M  V30 18 H 0.4012 -1.1767 1.4132 0
M  V30 19 H 1.4254 0.2508 -3.8478 0
M  V30 20 H -0.1256 -0.4879 -3.3515 0
M  V30 21 H -1.4215 -2.1452 0.7341 0
M  V30 22 H -2.4458 -2.3737 -0.6925 0
M  V30 23 H -3.0962 0.0448 -0.7035 0
M  V30 24 H -3.6314 -0.8733 0.7475 0
M  V30 25 H -1.216 1.0494 0.5978 0
M  V30 26 H -1.6634 0.0585 2.0428 0
M  V30 27 H -2.5123 2.3852 2.2233 0
M  V30 28 H -3.4356 2.1911 0.685 0
M  V30 29 H -3.8789 1.2102 2.1431 0
M  V30 END ATOM
M  V30 BEGIN BOND
M  V30 1 2 1 2
M  V30 2 1 2 3
M  V30 3 1 2 4
M  V30 4 2 4 5
M  V30 5 1 4 6
M  V30 6 1 5 7
M  V30 7 2 6 8
M  V30 8 1 7 9
M  V30 9 2 7 10
M  V30 10 1 10 11
M  V30 11 1 11 12
M  V30 12 1 12 13
M  V30 13 1 13 14
M  V30 14 1 14 15
M  V30 15 1 8 10
M  V30 16 1 5 16
M  V30 17 1 6 17
M  V30 18 1 8 18
M  V30 19 1 9 19
M  V30 20 1 9 20
M  V30 21 1 12 21
M  V30 22 1 12 22
M  V30 23 1 13 23
M  V30 24 1 13 24
M  V30 25 1 14 25
M  V30 26 1 14 26
M  V30 27 1 15 27
M  V30 28 1 15 28
M  V30 29 1 15 29
M  V30 END BOND
M  V30 END CTAB
M  END
>  <Structure No>
8252

>  <LogS>
-3.82

>  <MMFF94 Energy>
53.446

$$$$
Compound 8253
Actelion Java MolfileCreator 2.0

  0  0  0  0  0  0              0 V3000
M  V30 BEGIN CTAB
M  V30 COUNTS 24 24 0 0 0
M  V30 BEGIN ATOM
M  V30 1 S 2.1988 -0.8139 -0.8139 0
M  V30 2 O 2.5174 -0.1327 -2.1149 0
M  V30 3 O 2.3893 -2.2961 -0.9799 0
M  V30 4 N 3.2679 -0.2421 0.4188 0
M  V30 5 C 0.532 -0.4529 -0.3574 0
M  V30 6 C 0.1378 0.877 -0.1183 0
M  V30 7 C -0.4002 -1.4936 -0.2263 0
M  V30 8 O 1.0872 1.9028 -0.2573 0
M  V30 9 C -1.1937 1.1433 0.2557 0
M  V30 10 C -1.7285 -1.22 0.1284 0
M  V30 11 C 0.8214 3.285 -0.0423 0
M  V30 12 C -2.115 0.1017 0.3838 0
M  V30 13 C -2.7096 -2.3413 0.3049 0
M  V30 14 H 3.0327 -0.7638 1.2928 0
M  V30 15 H 4.2335 -0.531 0.1447 0
M  V30 16 H -0.0963 -2.5181 -0.4002 0
M  V30 17 H -1.527 2.1528 0.4536 0
M  V30 18 H 1.7495 3.8647 -0.2233 0
M  V30 19 H 0.0389 3.6377 -0.747 0
M  V30 20 H 0.4965 3.4528 1.0063 0
M  V30 21 H -3.1318 0.3274 0.6819 0
M  V30 22 H -3.744 -1.9954 0.0936 0
M  V30 23 H -2.659 -2.715 1.349 0
M  V30 24 H -2.4789 -3.1763 -0.3905 0
M  V30 END ATOM
M  V30 BEGIN BOND
M  V30 1 2 1 2
M  V30 2 2 1 3
M  V30 3 1 1 4
M  V30 4 1 1 5
M  V30 5 2 5 6
M  V30 6 1 5 7
M  V30 7 1 6 8
M  V30 8 1 6 9
M  V30 9 2 7 10
M  V30 10 1 8 11
M  V30 11 2 9 12
M  V30 12 1 10 13
M  V30 13 1 10 12
M  V30 14 1 4 14
M  V30 15 1 4 15
M  V30 16 1 7 16
M  V30 17 1 9 17
M  V30 18 1 11 18
M  V30 19 1 11 19
M  V30 20 1 11 20
M  V30 21 1 12 21
M  V30 22 1 13 22
M  V30 23 1 13 23
M  V30 24 1 13 24
M  V30 END BOND
M  V30 END CTAB
M  END
>  <Structure No>
8253

>  <LogS>
-1.53

>  <MMFF94 Energy>
-50.86

$$$$
Compound 8254
Actelion Java MolfileCreator 2.0

  0  0  0  0  0  0              0 V3000
M  V30 BEGIN CTAB
M  V30 COUNTS 28 28 0 0 0
M  V30 BEGIN ATOM
M  V30 1 Cl 4.2654 2.0907 1.7688 0
M  V30 2 C 3.725 0.7839 0.7234 0
M  V30 3 C 4.6319 0.0447 -0.0596 0
M  V30 4 C 2.3581 0.4826 0.6784 0
M  V30 5 O 6.0017 0.3105 -0.0459 0
M  V30 6 C 4.1564 -0.9855 -0.8766 0
M  V30 7 C 1.8784 -0.5529 -0.142 0
M  V30 8 C 2.7924 -1.2843 -0.92 0
M  V30 9 C 0.4322 -0.8637 -0.1842 0
M  V30 10 O 0.006 -1.7932 -0.9243 0
M  V30 11 O -0.4616 -0.1278 0.6047 0
M  V30 12 C -1.8747 -0.3213 0.5835 0
M  V30 13 C -2.4845 0.3237 -0.6675 0
M  V30 14 C -3.9925 0.059 -0.7935 0
M  V30 15 C -4.8154 0.8186 0.2468 0
M  V30 16 H 1.6733 1.061 1.2865 0
M  V30 17 H 6.4117 1.0412 0.522 0
M  V30 18 H 4.8484 -1.5577 -1.4815 0
M  V30 19 H 2.4547 -2.0877 -1.5627 0
M  V30 20 H -2.1117 -1.4072 0.6243 0
M  V30 21 H -2.2976 0.1578 1.4903 0
M  V30 22 H -2.2898 1.4184 -0.6556 0
M  V30 23 H -1.9862 -0.094 -1.5681 0
M  V30 24 H -4.1982 -1.0301 -0.7089 0
M  V30 25 H -4.3227 0.3856 -1.8036 0
M  V30 26 H -4.5832 1.9042 0.2094 0
M  V30 27 H -4.6138 0.4314 1.2669 0
M  V30 28 H -5.8965 0.6815 0.0333 0
M  V30 END ATOM
M  V30 BEGIN BOND
M  V30 1 1 1 2
M  V30 2 2 2 3
M  V30 3 1 2 4
M  V30 4 1 3 5
M  V30 5 1 3 6
M  V30 6 2 4 7
M  V30 7 2 6 8
M  V30 8 1 7 9
M  V30 9 2 9 10
M  V30 10 1 9 11
M  V30 11 1 11 12
M  V30 12 1 12 13
M  V30 13 1 13 14
M  V30 14 1 14 15
M  V30 15 1 7 8
M  V30 16 1 4 16
M  V30 17 1 5 17
M  V30 18 1 6 18
M  V30 19 1 8 19
M  V30 20 1 12 20
M  V30 21 1 12 21
M  V30 22 1 13 22
M  V30 23 1 13 23
M  V30 24 1 14 24
M  V30 25 1 14 25
M  V30 26 1 15 26
M  V30 27 1 15 27
M  V30 28 1 15 28
M  V30 END BOND
M  V30 END CTAB
M  END
>  <Structure No>
8254

>  <LogS>
-3.51

>  <MMFF94 Energy>
24.431

$$$$
Compound 8255
Actelion Java MolfileCreator 2.0

  0  0  0  0  0  0              0 V3000
M  V30 BEGIN CTAB
M  V30 COUNTS 21 21 0 0 0
M  V30 BEGIN ATOM
M  V30 1 Cl -3.815 2.072 -0.9942 0
M  V30 2 C -2.3485 1.2362 -0.5166 0
M  V30 3 C -2.3381 -0.1575 -0.4191 0
M  V30 4 C -1.1912 1.9638 -0.2334 0
M  V30 5 C -1.1676 -0.8343 -0.0371 0
M  V30 6 C -0.0214 1.3024 0.1465 0
M  V30 7 C 0.0036 -0.1034 0.2468 0
M  V30 8 C -1.1635 -2.3341 0.0616 0
M  V30 9 O 1.163 -0.8049 0.6247 0
M  V30 10 C 2.4381 -0.2178 0.8832 0
M  V30 11 C 3.0658 0.264 -0.3884 0
M  V30 12 S 3.9569 1.6349 -0.4062 0
M  V30 13 O 2.9419 -0.4851 -1.5518 0 CHG=-1
M  V30 14 H -3.2424 -0.711 -0.6414 0
M  V30 15 H -1.1966 3.044 -0.3071 0
M  V30 16 H 0.8558 1.8958 0.3605 0
M  V30 17 H -0.4208 -2.7529 -0.6497 0
M  V30 18 H -2.1593 -2.764 -0.1787 0
M  V30 19 H -0.8917 -2.6403 1.0938 0
M  V30 20 H 2.3389 0.6005 1.629 0
M  V30 21 H 3.0991 -0.993 1.323 0
M  V30 END ATOM
M  V30 BEGIN BOND
M  V30 1 1 1 2
M  V30 2 2 2 3
M  V30 3 1 2 4
M  V30 4 1 3 5
M  V30 5 2 4 6
M  V30 6 2 5 7
M  V30 7 1 5 8
M  V30 8 1 7 9
M  V30 9 1 9 10
M  V30 10 1 10 11
M  V30 11 2 11 12
M  V30 12 1 11 13
M  V30 13 1 6 7
M  V30 14 1 3 14
M  V30 15 1 4 15
M  V30 16 1 6 16
M  V30 17 1 8 17
M  V30 18 1 8 18
M  V30 19 1 8 19
M  V30 20 1 10 20
M  V30 21 1 10 21
M  V30 END BOND
M  V30 END CTAB
M  END
>  <Structure No>
8255

>  <LogS>
-3.16

>  <MMFF94 Energy>
57.162

$$$$
Compound 8256
Actelion Java MolfileCreator 2.0

  0  0  0  0  0  0              0 V3000
M  V30 BEGIN CTAB
M  V30 COUNTS 31 31 0 0 0
M  V30 BEGIN ATOM
M  V30 1 Cl -5.7831 0.0 2.3262 0
M  V30 2 C -4.4764 0.0413 1.15 0
M  V30 3 C -4.6694 0.5536 -0.1469 0
M  V30 4 C -3.2201 -0.45 1.5258 0
M  V30 5 O -5.9037 1.0533 -0.5638 0
M  V30 6 C -3.6011 0.5666 -1.0486 0
M  V30 7 C -2.1449 -0.4378 0.6194 0
M  V30 8 C -2.3486 0.0759 -0.6718 0
M  V30 9 C -0.8165 -0.9551 1.0147 0
M  V30 10 O -0.6298 -1.4006 2.1808 0
M  V30 11 O 0.2341 -0.9473 0.0919 0
M  V30 12 C 1.5448 -1.4048 0.4103 0
M  V30 13 C 2.4667 -1.2559 -0.803 0
M  V30 14 C 2.5097 0.1725 -1.3795 0
M  V30 15 C 3.0018 1.2507 -0.3981 0
M  V30 16 C 4.4367 1.0186 0.0728 0
M  V30 17 H -3.0871 -0.8408 2.5272 0
M  V30 18 H -6.7173 1.0737 0.0376 0
M  V30 19 H -3.7424 0.9596 -2.0475 0
M  V30 20 H -1.5408 0.1007 -1.3925 0
M  V30 21 H 1.5009 -2.4777 0.6975 0
M  V30 22 H 1.9491 -0.8342 1.2733 0
M  V30 23 H 2.106 -1.9403 -1.6013 0
M  V30 24 H 3.4902 -1.5901 -0.5316 0
M  V30 25 H 1.494 0.4531 -1.7336 0
M  V30 26 H 3.1709 0.1719 -2.2733 0
M  V30 27 H 2.3246 1.3202 0.4788 0
M  V30 28 H 2.9615 2.2331 -0.9167 0
M  V30 29 H 5.114 0.8812 -0.7964 0
M  V30 30 H 4.7812 1.8996 0.6542 0
M  V30 31 H 4.4928 0.128 0.7324 0
M  V30 END ATOM
M  V30 BEGIN BOND
M  V30 1 1 1 2
M  V30 2 2 2 3
M  V30 3 1 2 4
M  V30 4 1 3 5
M  V30 5 1 3 6
M  V30 6 2 4 7
M  V30 7 2 6 8
M  V30 8 1 7 9
M  V30 9 2 9 10
M  V30 10 1 9 11
M  V30 11 1 11 12
M  V30 12 1 12 13
M  V30 13 1 13 14
M  V30 14 1 14 15
M  V30 15 1 15 16
M  V30 16 1 7 8
M  V30 17 1 4 17
M  V30 18 1 5 18
M  V30 19 1 6 19
M  V30 20 1 8 20
M  V30 21 1 12 21
M  V30 22 1 12 22
M  V30 23 1 13 23
M  V30 24 1 13 24
M  V30 25 1 14 25
M  V30 26 1 14 26
M  V30 27 1 15 27
M  V30 28 1 15 28
M  V30 29 1 16 29
M  V30 30 1 16 30
M  V30 31 1 16 31
M  V30 END BOND
M  V30 END CTAB
M  END
>  <Structure No>
8256

>  <LogS>
-3.95

>  <MMFF94 Energy>
24.955

$$$$
Compound 8257
Actelion Java MolfileCreator 2.0

  0  0  0  0  0  0              0 V3000
M  V30 BEGIN CTAB
M  V30 COUNTS 26 26 0 0 0
M  V30 BEGIN ATOM
M  V30 1 O 4.9164 -0.9501 -0.9501 0
M  V30 2 N 4.4111 -0.3277 0.0071 0 CHG=1
M  V30 3 O 5.2398 0.1573 0.9929 0 CHG=-1
M  V30 4 C 2.9882 -0.121 0.0798 0
M  V30 5 C 2.4256 0.5798 1.1587 0
M  V30 6 C 2.1403 -0.6141 -0.9248 0
M  V30 7 C 1.0401 0.7861 1.2389 0
M  V30 8 C 0.7604 -0.4128 -0.8528 0
M  V30 9 N 0.4989 1.5054 2.3536 0
M  V30 10 C 0.1944 0.2859 0.2308 0
M  V30 11 O -1.1896 0.5116 0.339 0
M  V30 12 C -2.1989 -0.0165 -0.5244 0
M  V30 13 C -2.4261 -1.5026 -0.2285 0
M  V30 14 C -3.4904 0.7683 -0.3021 0
M  V30 15 H 3.0625 0.9691 1.9428 0
M  V30 16 H 2.5446 -1.1561 -1.7701 0
M  V30 17 H 0.1478 -0.8054 -1.6509 0
M  V30 18 H 1.1248 1.8769 3.1028 0
M  V30 19 H -0.5268 1.6758 2.447 0
M  V30 20 H -1.9063 0.1189 -1.5878 0
M  V30 21 H -3.2196 -1.9089 -0.8912 0
M  V30 22 H -1.4974 -2.0823 -0.4059 0
M  V30 23 H -2.7308 -1.6432 0.8306 0
M  V30 24 H -4.2913 0.3939 -0.9751 0
M  V30 25 H -3.827 0.6739 0.7527 0
M  V30 26 H -3.3186 1.8428 -0.5248 0
M  V30 END ATOM
M  V30 BEGIN BOND
M  V30 1 2 1 2
M  V30 2 1 2 3
M  V30 3 1 2 4
M  V30 4 2 4 5
M  V30 5 1 4 6
M  V30 6 1 5 7
M  V30 7 2 6 8
M  V30 8 1 7 9
M  V30 9 2 7 10
M  V30 10 1 10 11
M  V30 11 1 11 12
M  V30 12 1 12 13
M  V30 13 1 12 14
M  V30 14 1 8 10
M  V30 15 1 5 15
M  V30 16 1 6 16
M  V30 17 1 8 17
M  V30 18 1 9 18
M  V30 19 1 9 19
M  V30 20 1 12 20
M  V30 21 1 13 21
M  V30 22 1 13 22
M  V30 23 1 13 23
M  V30 24 1 14 24
M  V30 25 1 14 25
M  V30 26 1 14 26
M  V30 END BOND
M  V30 END CTAB
M  END
>  <Structure No>
8257

>  <LogS>
-2.66

>  <MMFF94 Energy>
58.344

$$$$
Compound 8258
Actelion Java MolfileCreator 2.0

  0  0  0  0  0  0              0 V3000
M  V30 BEGIN CTAB
M  V30 COUNTS 25 26 0 0 0
M  V30 BEGIN ATOM
M  V30 1 O -0.5627 -2.2525 2.8162 0
M  V30 2 N -0.2753 -1.8448 1.6718 0 CHG=1
M  V30 3 O 0.7195 -2.4867 0.9708 0 CHG=-1
M  V30 4 C -1.0923 -0.8478 1.0316 0
M  V30 5 C -0.5578 0.0435 0.0655 0
M  V30 6 C -2.4636 -0.7826 1.3379 0
M  V30 7 C 0.8926 0.1081 -0.2279 0
M  V30 8 C -1.4163 0.9406 -0.5945 0
M  V30 9 C -3.2991 0.1224 0.6818 0
M  V30 10 C 1.8198 0.3189 0.8077 0
M  V30 11 C 1.354 -0.0027 -1.5508 0
M  V30 12 C -2.7814 0.9801 -0.2885 0
M  V30 13 C 3.1868 0.3972 0.5246 0
M  V30 14 C 2.7219 0.0761 -1.829 0
M  V30 15 O -3.6299 1.8731 -0.9391 0
M  V30 16 C 3.6376 0.2743 -0.7921 0
M  V30 17 H -2.8939 -1.454 2.0701 0
M  V30 18 H -1.0191 1.6294 -1.3306 0
M  V30 19 H -4.3542 0.1514 0.9229 0
M  V30 20 H 1.4833 0.4276 1.8315 0
M  V30 21 H 0.6558 -0.1595 -2.3639 0
M  V30 22 H 3.8963 0.5566 1.3263 0
M  V30 23 H 3.0723 -0.0158 -2.8488 0
M  V30 24 H -3.2857 2.5107 -1.6475 0
M  V30 25 H 4.696 0.3358 -1.0093 0
M  V30 END ATOM
M  V30 BEGIN BOND
M  V30 1 2 1 2
M  V30 2 1 2 3
M  V30 3 1 2 4
M  V30 4 2 4 5
M  V30 5 1 4 6
M  V30 6 1 5 7
M  V30 7 1 5 8
M  V30 8 2 6 9
M  V30 9 2 7 10
M  V30 10 1 7 11
M  V30 11 2 8 12
M  V30 12 1 10 13
M  V30 13 2 11 14
M  V30 14 1 12 15
M  V30 15 2 13 16
M  V30 16 1 9 12
M  V30 17 1 14 16
M  V30 18 1 6 17
M  V30 19 1 8 18
M  V30 20 1 9 19
M  V30 21 1 10 20
M  V30 22 1 11 21
M  V30 23 1 13 22
M  V30 24 1 14 23
M  V30 25 1 15 24
M  V30 26 1 16 25
M  V30 END BOND
M  V30 END CTAB
M  END
>  <Structure No>
8258

>  <LogS>
-3.63

>  <MMFF94 Energy>
59.096

$$$$
Compound 8259
Actelion Java MolfileCreator 2.0

  0  0  0  0  0  0              0 V3000
M  V30 BEGIN CTAB
M  V30 COUNTS 25 25 0 0 0
M  V30 BEGIN ATOM
M  V30 1 S -0.7342 0.0815 0.979 0
M  V30 2 O -1.2847 -0.999 1.8684 0
M  V30 3 O -0.9353 1.408 1.6573 0
M  V30 4 C 0.9882 -0.1772 0.7191 0
M  V30 5 C -1.591 0.074 -0.5932 0 CFG=2
M  V30 6 C 1.5528 -1.4483 0.9027 0
M  V30 7 C 1.7988 0.8861 0.2974 0
M  V30 8 C -3.0454 0.4019 -0.3859 0
M  V30 9 C -1.4259 -1.2753 -1.2967 0
M  V30 10 C 2.9181 -1.649 0.6767 0
M  V30 11 C 3.1639 0.6825 0.0725 0
M  V30 12 O -3.8142 -0.4408 0.151 0
M  V30 13 N -3.5581 1.6809 -0.7602 0
M  V30 14 C 3.7235 -0.584 0.2632 0
M  V30 15 H -1.1271 0.8526 -1.2363 0
M  V30 16 H 0.9385 -2.2833 1.214 0
M  V30 17 H 1.3738 1.8693 0.1399 0
M  V30 18 H -1.8142 -2.1022 -0.6644 0
M  V30 19 H -1.9761 -1.2711 -2.2619 0
M  V30 20 H -0.3533 -1.4643 -1.5123 0
M  V30 21 H 3.3511 -2.6305 0.8196 0
M  V30 22 H 3.7872 1.5059 -0.2517 0
M  V30 23 H -2.9366 2.4049 -1.1838 0
M  V30 24 H -4.5652 1.9093 -0.6061 0
M  V30 25 H 4.78 -0.7408 0.0878 0
M  V30 END ATOM
M  V30 BEGIN BOND
M  V30 1 2 1 2
M  V30 2 2 1 3
M  V30 3 1 1 4
M  V30 4 1 1 5
M  V30 5 2 4 6
M  V30 6 1 4 7
M  V30 7 1 5 8
M  V30 8 1 5 9
M  V30 9 1 6 10
M  V30 10 2 7 11
M  V30 11 2 8 12
M  V30 12 1 8 13
M  V30 13 2 10 14
M  V30 14 1 11 14
M  V30 15 1 5 15
M  V30 16 1 6 16
M  V30 17 1 7 17
M  V30 18 1 9 18
M  V30 19 1 9 19
M  V30 20 1 9 20
M  V30 21 1 10 21
M  V30 22 1 11 22
M  V30 23 1 13 23
M  V30 24 1 13 24
M  V30 25 1 14 25
M  V30 END BOND
M  V30 BEGIN COLLECTION
M  V30 MDLV30/STEABS ATOMS=(1 5)
M  V30 END COLLECTION
M  V30 END CTAB
M  END
>  <Structure No>
8259

>  <LogS>
-1.64

>  <MMFF94 Energy>
-0.49347

$$$$
Compound 8260
Actelion Java MolfileCreator 2.0

  0  0  0  0  0  0              0 V3000
M  V30 BEGIN CTAB
M  V30 COUNTS 24 25 0 0 0
M  V30 BEGIN ATOM
M  V30 1 O 0.0 2.515 -0.7296 0
M  V30 2 N 0.8646 2.2562 0.1327 0 CHG=1
M  V30 3 O 1.3043 3.264 0.9596 0 CHG=-1
M  V30 4 C 1.4681 0.9516 0.1909 0
M  V30 5 C 2.8623 0.836 0.3679 0
M  V30 6 C 0.6908 -0.2259 0.029 0
M  V30 7 O 3.6544 1.969 0.5167 0 CHG=-1
M  V30 8 C 3.4725 -0.4207 0.3721 0
M  V30 9 C -0.787 -0.1838 -0.0734 0
M  V30 10 C 1.3294 -1.478 0.0193 0
M  V30 11 C 2.7101 -1.5727 0.1906 0
M  V30 12 C -1.552 0.4642 0.9125 0
M  V30 13 C -1.442 -0.8221 -1.1407 0
M  V30 14 C -2.9469 0.4881 0.8201 0
M  V30 15 C -2.8374 -0.7956 -1.2289 0
M  V30 16 C -3.5891 -0.1398 -0.2502 0
M  V30 17 H 4.5438 -0.5025 0.5051 0
M  V30 18 H 0.7521 -2.3875 -0.0959 0
M  V30 19 H 3.1894 -2.5432 0.1906 0
M  V30 20 H -1.0688 0.9442 1.7546 0
M  V30 21 H -0.8722 -1.3311 -1.9085 0
M  V30 22 H -3.5305 0.9906 1.5808 0
M  V30 23 H -3.3361 -1.2838 -2.0561 0
M  V30 24 H -4.669 -0.1207 -0.3199 0
M  V30 END ATOM
M  V30 BEGIN BOND
M  V30 1 2 1 2
M  V30 2 1 2 3
M  V30 3 1 2 4
M  V30 4 2 4 5
M  V30 5 1 4 6
M  V30 6 1 5 7
M  V30 7 1 5 8
M  V30 8 1 6 9
M  V30 9 2 6 10
M  V30 10 2 8 11
M  V30 11 2 9 12
M  V30 12 1 9 13
M  V30 13 1 12 14
M  V30 14 2 13 15
M  V30 15 2 14 16
M  V30 16 1 10 11
M  V30 17 1 15 16
M  V30 18 1 8 17
M  V30 19 1 10 18
M  V30 20 1 11 19
M  V30 21 1 12 20
M  V30 22 1 13 21
M  V30 23 1 14 22
M  V30 24 1 15 23
M  V30 25 1 16 24
M  V30 END BOND
M  V30 END CTAB
M  END
>  <Structure No>
8260

>  <LogS>
-3.95

>  <MMFF94 Energy>
93.026

$$$$
Compound 8261
Actelion Java MolfileCreator 2.0

  0  0  0  0  0  0              0 V3000
M  V30 BEGIN CTAB
M  V30 COUNTS 31 31 0 0 0
M  V30 BEGIN ATOM
M  V30 1 O -4.5514 0.6268 -0.235 0
M  V30 2 C -3.3458 0.9785 -0.1233 0
M  V30 3 N -2.3565 0.035 0.3401 0
M  V30 4 N -2.9854 2.3255 -0.4407 0
M  V30 5 C -0.9601 0.2492 0.0658 0
M  V30 6 C -2.7769 -1.2427 0.931 0
M  V30 7 C -0.024 0.247 1.1099 0
M  V30 8 C -0.5201 0.4504 -1.2506 0
M  V30 9 C -2.953 -2.2994 -0.1541 0
M  V30 10 C 1.3336 0.4459 0.8428 0
M  V30 11 C 0.8368 0.6487 -1.5179 0
M  V30 12 C 1.7758 0.6453 -0.4797 0
M  V30 13 O 3.126 0.8509 -0.8084 0
M  V30 14 C 4.2237 0.7751 0.1012 0
M  V30 15 C 4.5535 -0.6765 0.4311 0
M  V30 16 H -2.0201 2.6848 -0.2736 0
M  V30 17 H -3.7066 2.9883 -0.8025 0
M  V30 18 H -3.7317 -1.1165 1.4864 0
M  V30 19 H -2.0218 -1.6 1.6637 0
M  V30 20 H -0.3486 0.105 2.1329 0
M  V30 21 H -1.2295 0.4462 -2.0685 0
M  V30 22 H -1.9928 -2.4621 -0.6879 0
M  V30 23 H -3.7255 -1.9771 -0.8837 0
M  V30 24 H -3.2734 -3.2575 0.3062 0
M  V30 25 H 2.0245 0.4467 1.6733 0
M  V30 26 H 1.1621 0.802 -2.539 0
M  V30 27 H 5.1106 1.2327 -0.385 0
M  V30 28 H 4.0156 1.3567 1.0241 0
M  V30 29 H 4.7886 -1.2312 -0.5017 0
M  V30 30 H 5.4359 -0.7147 1.1039 0
M  V30 31 H 3.6985 -1.1693 0.9376 0
M  V30 END ATOM
M  V30 BEGIN BOND
M  V30 1 2 1 2
M  V30 2 1 2 3
M  V30 3 1 2 4
M  V30 4 1 3 5
M  V30 5 1 3 6
M  V30 6 2 5 7
M  V30 7 1 5 8
M  V30 8 1 6 9
M  V30 9 1 7 10
M  V30 10 2 8 11
M  V30 11 2 10 12
M  V30 12 1 12 13
M  V30 13 1 13 14
M  V30 14 1 14 15
M  V30 15 1 11 12
M  V30 16 1 4 16
M  V30 17 1 4 17
M  V30 18 1 6 18
M  V30 19 1 6 19
M  V30 20 1 7 20
M  V30 21 1 8 21
M  V30 22 1 9 22
M  V30 23 1 9 23
M  V30 24 1 9 24
M  V30 25 1 10 25
M  V30 26 1 11 26
M  V30 27 1 14 27
M  V30 28 1 14 28
M  V30 29 1 15 29
M  V30 30 1 15 30
M  V30 31 1 15 31
M  V30 END BOND
M  V30 END CTAB
M  END
>  <Structure No>
8261

>  <LogS>
-1.85

>  <MMFF94 Energy>
-53.668

$$$$
Compound 8262
Actelion Java MolfileCreator 2.0

  0  0  0  0  0  0              0 V3000
M  V30 BEGIN CTAB
M  V30 COUNTS 18 18 0 0 0
M  V30 BEGIN ATOM
M  V30 1 Cl 0.2577 -0.8592 -2.8376 0
M  V30 2 C -0.5042 -0.135 -1.4296 0
M  V30 3 C -0.0127 -0.3977 -0.14 0
M  V30 4 C -1.6049 0.7108 -1.6077 0
M  V30 5 O 1.0953 -1.2516 -0.0035 0
M  V30 6 C -0.6466 0.1986 0.9687 0
M  V30 7 C -2.225 1.3 -0.5024 0
M  V30 8 C 1.7668 -1.5483 1.2209 0
M  V30 9 C -1.7454 1.0428 0.7844 0
M  V30 10 Cl -3.6041 2.3598 -0.73 0
M  V30 11 C 2.535 -0.3594 1.7095 0
M  V30 12 S 3.6787 0.3327 0.7678 0
M  V30 13 O 2.2926 0.1516 2.9782 0 CHG=-1
M  V30 14 H -1.9775 0.9102 -2.6046 0
M  V30 15 H -0.303 0.0164 1.9767 0
M  V30 16 H 2.4796 -2.3798 1.0407 0
M  V30 17 H 1.0403 -1.8946 1.9867 0
M  V30 18 H -2.2239 1.4956 1.6435 0
M  V30 END ATOM
M  V30 BEGIN BOND
M  V30 1 1 1 2
M  V30 2 2 2 3
M  V30 3 1 2 4
M  V30 4 1 3 5
M  V30 5 1 3 6
M  V30 6 2 4 7
M  V30 7 1 5 8
M  V30 8 2 6 9
M  V30 9 1 7 10
M  V30 10 1 8 11
M  V30 11 2 11 12
M  V30 12 1 11 13
M  V30 13 1 7 9
M  V30 14 1 4 14
M  V30 15 1 6 15
M  V30 16 1 8 16
M  V30 17 1 8 17
M  V30 18 1 9 18
M  V30 END BOND
M  V30 END CTAB
M  END
>  <Structure No>
8262

>  <LogS>
-2.69

>  <MMFF94 Energy>
60.375

$$$$
Compound 8263
Actelion Java MolfileCreator 2.0

  0  0  0  0  0  0              0 V3000
M  V30 BEGIN CTAB
M  V30 COUNTS 34 34 0 0 0
M  V30 BEGIN ATOM
M  V30 1 Cl 4.808 2.6422 -1.5206 0
M  V30 2 C 4.0628 1.4678 -0.4443 0
M  V30 3 C 4.5154 1.2886 0.8766 0
M  V30 4 C 2.9948 0.7005 -0.9253 0
M  V30 5 O 5.5758 2.0311 1.3976 0
M  V30 6 C 3.8915 0.3435 1.6965 0
M  V30 7 C 2.3669 -0.251 -0.1016 0
M  V30 8 C 2.8261 -0.4208 1.2148 0
M  V30 9 C 1.2355 -1.0591 -0.6071 0
M  V30 10 O 0.8242 -0.9009 -1.7898 0
M  V30 11 O 0.6233 -2.0001 0.2317 0
M  V30 12 C -0.5318 -2.7571 -0.1299 0
M  V30 13 C -1.8141 -2.0759 0.3609 0
M  V30 14 C -2.0928 -0.7549 -0.3678 0
M  V30 15 C -3.4371 -0.1569 0.072 0
M  V30 16 C -3.8024 1.1128 -0.7124 0
M  V30 17 C -2.9155 2.3055 -0.355 0
M  V30 18 H 2.6572 0.8506 -1.9434 0
M  V30 19 H 6.0706 2.7305 0.8589 0
M  V30 20 H 4.2343 0.2011 2.7137 0
M  V30 21 H 2.3631 -1.1436 1.8747 0
M  V30 22 H -0.4591 -3.7486 0.3646 0
M  V30 23 H -0.5713 -2.9403 -1.226 0
M  V30 24 H -2.6634 -2.7736 0.1924 0
M  V30 25 H -1.733 -1.8902 1.4543 0
M  V30 26 H -1.2812 -0.036 -0.1328 0
M  V30 27 H -2.1098 -0.9348 -1.465 0
M  V30 28 H -3.4139 0.0674 1.1612 0
M  V30 29 H -4.239 -0.9078 -0.1003 0
M  V30 30 H -4.8554 1.3797 -0.4764 0
M  V30 31 H -3.7424 0.9181 -1.8052 0
M  V30 32 H -3.3053 3.2172 -0.8547 0
M  V30 33 H -1.875 2.1408 -0.7032 0
M  V30 34 H -2.9169 2.4767 0.7424 0
M  V30 END ATOM
M  V30 BEGIN BOND
M  V30 1 1 1 2
M  V30 2 2 2 3
M  V30 3 1 2 4
M  V30 4 1 3 5
M  V30 5 1 3 6
M  V30 6 2 4 7
M  V30 7 2 6 8
M  V30 8 1 7 9
M  V30 9 2 9 10
M  V30 10 1 9 11
M  V30 11 1 11 12
M  V30 12 1 12 13
M  V30 13 1 13 14
M  V30 14 1 14 15
M  V30 15 1 15 16
M  V30 16 1 16 17
M  V30 17 1 7 8
M  V30 18 1 4 18
M  V30 19 1 5 19
M  V30 20 1 6 20
M  V30 21 1 8 21
M  V30 22 1 12 22
M  V30 23 1 12 23
M  V30 24 1 13 24
M  V30 25 1 13 25
M  V30 26 1 14 26
M  V30 27 1 14 27
M  V30 28 1 15 28
M  V30 29 1 15 29
M  V30 30 1 16 30
M  V30 31 1 16 31
M  V30 32 1 17 32
M  V30 33 1 17 33
M  V30 34 1 17 34
M  V30 END BOND
M  V30 END CTAB
M  END
>  <Structure No>
8263

>  <LogS>
-4.09

>  <MMFF94 Energy>
24.485

$$$$
Compound 8264
Actelion Java MolfileCreator 2.0

  0  0  0  0  0  0              0 V3000
M  V30 BEGIN CTAB
M  V30 COUNTS 32 32 0 0 0
M  V30 BEGIN ATOM
M  V30 1 O 0.629 -0.7864 -0.9437 0
M  V30 2 C -0.3788 0.0688 -0.4652 0
M  V30 3 C 1.9613 -0.4197 -1.3086 0
M  V30 4 C -1.58 -0.4821 0.0581 0
M  V30 5 C -0.2329 1.4703 -0.509 0
M  V30 6 C 2.8559 -0.2968 -0.0651 0 CFG=2
M  V30 7 O -1.8295 -1.8652 0.1505 0
M  V30 8 C -2.5961 0.3724 0.5223 0
M  V30 9 C -1.245 2.3058 -0.043 0
M  V30 10 O 2.4126 0.7598 0.745 0
M  V30 11 C 4.326 -0.0767 -0.4593 0
M  V30 12 C -0.9418 -2.9154 -0.216 0
M  V30 13 O -3.7697 -0.2064 1.0324 0
M  V30 14 C -2.4202 1.7658 0.4693 0
M  V30 15 O 4.4824 1.1137 -1.1853 0
M  V30 16 C -4.8802 0.5281 1.5373 0
M  V30 17 H 1.9739 0.5022 -1.9255 0
M  V30 18 H 2.3635 -1.2329 -1.9495 0
M  V30 19 H 0.6573 1.9349 -0.9044 0
M  V30 20 H 2.7847 -1.2561 0.4991 0
M  V30 21 H -1.1182 3.3803 -0.0822 0
M  V30 22 H 2.8113 0.62 1.6435 0
M  V30 23 H 4.6734 -0.9251 -1.0865 0
M  V30 24 H 4.9644 -0.0611 0.4535 0
M  V30 25 H -1.4272 -3.8879 0.005 0
M  V30 26 H -0.0055 -2.8531 0.3776 0
M  V30 27 H -0.7278 -2.8762 -1.3046 0
M  V30 28 H -3.1878 2.4409 0.8218 0
M  V30 29 H 4.4856 1.8537 -0.5237 0
M  V30 30 H -4.5669 1.1455 2.4055 0
M  V30 31 H -5.3046 1.1748 0.7405 0
M  V30 32 H -5.6631 -0.1827 1.8717 0
M  V30 END ATOM
M  V30 BEGIN BOND
M  V30 1 1 1 2
M  V30 2 1 1 3
M  V30 3 2 2 4
M  V30 4 1 2 5
M  V30 5 1 3 6
M  V30 6 1 4 7
M  V30 7 1 4 8
M  V30 8 2 5 9
M  V30 9 1 6 10
M  V30 10 1 6 11
M  V30 11 1 7 12
M  V30 12 1 8 13
M  V30 13 2 8 14
M  V30 14 1 11 15
M  V30 15 1 13 16
M  V30 16 1 9 14
M  V30 17 1 3 17
M  V30 18 1 3 18
M  V30 19 1 5 19
M  V30 20 1 6 20
M  V30 21 1 9 21
M  V30 22 1 10 22
M  V30 23 1 11 23
M  V30 24 1 11 24
M  V30 25 1 12 25
M  V30 26 1 12 26
M  V30 27 1 12 27
M  V30 28 1 14 28
M  V30 29 1 15 29
M  V30 30 1 16 30
M  V30 31 1 16 31
M  V30 32 1 16 32
M  V30 END BOND
M  V30 BEGIN COLLECTION
M  V30 MDLV30/STEABS ATOMS=(1 6)
M  V30 END COLLECTION
M  V30 END CTAB
M  END
>  <Structure No>
8264

>  <LogS>
-3.0

>  <MMFF94 Energy>
91.879

$$$$
Compound 8265
Actelion Java MolfileCreator 2.0

  0  0  0  0  0  0              0 V3000
M  V30 BEGIN CTAB
M  V30 COUNTS 21 21 0 0 0
M  V30 BEGIN ATOM
M  V30 1 Cl 0.5927 4.1548 0.0846 0
M  V30 2 C 0.2464 2.4255 0.151 0
M  V30 3 C 1.2199 1.5324 0.622 0
M  V30 4 C -1.0035 1.94 -0.2677 0
M  V30 5 Cl 2.7909 2.1215 1.1639 0
M  V30 6 C 0.9467 0.1587 0.6701 0
M  V30 7 Cl -2.2331 3.0545 -0.8661 0
M  V30 8 C -1.2946 0.5663 -0.2127 0
M  V30 9 O 1.9261 -0.7234 1.1308 0
M  V30 10 C -0.3098 -0.3313 0.2683 0
M  V30 11 O -2.5721 0.1614 -0.6463 0
M  V30 12 C 2.8542 -1.3269 0.2386 0
M  V30 13 O -0.5739 -1.6987 0.3533 0
M  V30 14 C -3.0706 -1.1709 -0.688 0
M  V30 15 H 3.5312 -1.9926 0.8118 0
M  V30 16 H 3.4596 -0.5456 -0.2674 0
M  V30 17 H 2.3154 -1.9287 -0.5233 0
M  V30 18 H 0.0973 -2.3646 0.7157 0
M  V30 19 H -4.1041 -1.1541 -1.0901 0
M  V30 20 H -2.4465 -1.7941 -1.3623 0
M  V30 21 H -3.1045 -1.601 0.3348 0
M  V30 END ATOM
M  V30 BEGIN BOND
M  V30 1 1 1 2
M  V30 2 2 2 3
M  V30 3 1 2 4
M  V30 4 1 3 5
M  V30 5 1 3 6
M  V30 6 1 4 7
M  V30 7 2 4 8
M  V30 8 1 6 9
M  V30 9 2 6 10
M  V30 10 1 8 11
M  V30 11 1 9 12
M  V30 12 1 10 13
M  V30 13 1 11 14
M  V30 14 1 8 10
M  V30 15 1 12 15
M  V30 16 1 12 16
M  V30 17 1 12 17
M  V30 18 1 13 18
M  V30 19 1 14 19
M  V30 20 1 14 20
M  V30 21 1 14 21
M  V30 END BOND
M  V30 END CTAB
M  END
>  <Structure No>
8265

>  <LogS>
-3.41

>  <MMFF94 Energy>
66.393

$$$$
Compound 8266
Actelion Java MolfileCreator 2.0

  0  0  0  0  0  0              0 V3000
M  V30 BEGIN CTAB
M  V30 COUNTS 24 24 0 0 0
M  V30 BEGIN ATOM
M  V30 1 O -1.291 -0.9681 2.5024 0
M  V30 2 C -0.0738 -1.0582 2.1925 0
M  V30 3 O 0.7804 -1.7538 3.0408 0 CHG=-1
M  V30 4 C 0.4544 -0.4159 0.961 0
M  V30 5 C -0.3958 0.0676 -0.0644 0
M  V30 6 C 1.847 -0.2631 0.8191 0
M  V30 7 N -1.8194 -0.1156 -0.003 0
M  V30 8 C 0.1593 0.7023 -1.1846 0
M  V30 9 C 2.3981 0.3697 -0.3077 0
M  V30 10 C -2.3773 -1.4056 -0.406 0
M  V30 11 C -2.691 1.0581 -0.0145 0
M  V30 12 C 1.5397 0.8539 -1.3058 0
M  V30 13 C 3.8646 0.5255 -0.4359 0
M  V30 14 O 4.3627 1.0954 -1.4432 0
M  V30 15 O 4.7143 0.0448 0.5538 0 CHG=-1
M  V30 16 H 2.5064 -0.6265 1.5976 0
M  V30 17 H -0.4838 1.0674 -1.9755 0
M  V30 18 H -1.6749 -2.2304 -0.1592 0
M  V30 19 H -3.3324 -1.592 0.129 0
M  V30 20 H -2.5642 -1.4059 -1.5005 0
M  V30 21 H -2.1979 1.9112 0.4995 0
M  V30 22 H -3.6387 0.8341 0.5192 0
M  V30 23 H -2.9211 1.3464 -1.0618 0
M  V30 24 H 1.935 1.3455 -2.186 0
M  V30 END ATOM
M  V30 BEGIN BOND
M  V30 1 2 1 2
M  V30 2 1 2 3
M  V30 3 1 2 4
M  V30 4 2 4 5
M  V30 5 1 4 6
M  V30 6 1 5 7
M  V30 7 1 5 8
M  V30 8 2 6 9
M  V30 9 1 7 10
M  V30 10 1 7 11
M  V30 11 2 8 12
M  V30 12 1 9 13
M  V30 13 2 13 14
M  V30 14 1 13 15
M  V30 15 1 9 12
M  V30 16 1 6 16
M  V30 17 1 8 17
M  V30 18 1 10 18
M  V30 19 1 10 19
M  V30 20 1 10 20
M  V30 21 1 11 21
M  V30 22 1 11 22
M  V30 23 1 11 23
M  V30 24 1 12 24
M  V30 END BOND
M  V30 END CTAB
M  END
>  <Structure No>
8266

>  <LogS>
-2.02

>  <MMFF94 Energy>
127.69

$$$$
Compound 8267
Actelion Java MolfileCreator 2.0

  0  0  0  0  0  0              0 V3000
M  V30 BEGIN CTAB
M  V30 COUNTS 37 37 0 0 0
M  V30 BEGIN ATOM
M  V30 1 Cl -6.4845 -2.1579 -0.2395 0
M  V30 2 C -5.4972 -0.7096 -0.1195 0
M  V30 3 C -6.0878 0.5601 -0.1747 0
M  V30 4 C -4.1109 -0.8324 0.032 0
M  V30 5 O -7.4685 0.681 -0.3254 0
M  V30 6 C -5.2841 1.7034 -0.0775 0
M  V30 7 C -3.2988 0.3112 0.1303 0
M  V30 8 C -3.9001 1.5816 0.0736 0
M  V30 9 C -1.834 0.1756 0.2892 0
M  V30 10 O -1.1087 1.2052 0.3749 0
M  V30 11 O -1.2552 -1.0987 0.351 0
M  V30 12 C 0.1505 -1.3196 0.4457 0
M  V30 13 C 0.8232 -1.0671 -0.9091 0
M  V30 14 C 2.2991 -1.5029 -0.9395 0
M  V30 15 C 3.2131 -0.7786 0.066 0
M  V30 16 C 3.292 0.7378 -0.18 0
M  V30 17 C 4.2836 1.4361 0.7639 0
M  V30 18 C 5.7428 1.1733 0.3912 0
M  V30 19 H -3.673 -1.8221 0.072 0
M  V30 20 H -7.92 1.5873 -0.3681 0
M  V30 21 H -5.7316 2.6885 -0.1193 0
M  V30 22 H -3.3021 2.4815 0.146 0
M  V30 23 H 0.3163 -2.3758 0.7468 0
M  V30 24 H 0.5793 -0.6625 1.2324 0
M  V30 25 H 0.2789 -1.6508 -1.6831 0
M  V30 26 H 0.7314 0.0021 -1.1907 0
M  V30 27 H 2.6945 -1.3401 -1.9659 0
M  V30 28 H 2.3534 -2.5958 -0.7423 0
M  V30 29 H 4.226 -1.2205 -0.0371 0
M  V30 30 H 2.8765 -0.9787 1.1052 0
M  V30 31 H 3.5693 0.9409 -1.2376 0
M  V30 32 H 2.2922 1.1859 0.0013 0
M  V30 33 H 4.1028 1.1188 1.8141 0
M  V30 34 H 4.1062 2.5323 0.7102 0
M  V30 35 H 6.4037 1.7953 1.031 0
M  V30 36 H 5.9275 1.4413 -0.6706 0
M  V30 37 H 6.0083 0.109 0.5559 0
M  V30 END ATOM
M  V30 BEGIN BOND
M  V30 1 1 1 2
M  V30 2 2 2 3
M  V30 3 1 2 4
M  V30 4 1 3 5
M  V30 5 1 3 6
M  V30 6 2 4 7
M  V30 7 2 6 8
M  V30 8 1 7 9
M  V30 9 2 9 10
M  V30 10 1 9 11
M  V30 11 1 11 12
M  V30 12 1 12 13
M  V30 13 1 13 14
M  V30 14 1 14 15
M  V30 15 1 15 16
M  V30 16 1 16 17
M  V30 17 1 17 18
M  V30 18 1 7 8
M  V30 19 1 4 19
M  V30 20 1 5 20
M  V30 21 1 6 21
M  V30 22 1 8 22
M  V30 23 1 12 23
M  V30 24 1 12 24
M  V30 25 1 13 25
M  V30 26 1 13 26
M  V30 27 1 14 27
M  V30 28 1 14 28
M  V30 29 1 15 29
M  V30 30 1 15 30
M  V30 31 1 16 31
M  V30 32 1 16 32
M  V30 33 1 17 33
M  V30 34 1 17 34
M  V30 35 1 18 35
M  V30 36 1 18 36
M  V30 37 1 18 37
M  V30 END BOND
M  V30 END CTAB
M  END
>  <Structure No>
8267

>  <LogS>
-4.23

>  <MMFF94 Energy>
24.168

$$$$
Compound 8268
Actelion Java MolfileCreator 2.0

  0  0  0  0  0  0              0 V3000
M  V30 BEGIN CTAB
M  V30 COUNTS 21 21 0 0 0
M  V30 BEGIN ATOM
M  V30 1 O -2.86 2.2057 0.4898 0
M  V30 2 C -1.877 1.9726 -0.2619 0
M  V30 3 O -1.5303 2.9088 -1.2291 0 CHG=-1
M  V30 4 C -1.0547 0.7539 -0.0785 0
M  V30 5 C -1.5936 -0.4754 0.385 0
M  V30 6 C 0.3279 0.8516 -0.3146 0
M  V30 7 C -3.0499 -0.7074 0.5278 0
M  V30 8 C -0.7226 -1.5439 0.6573 0
M  V30 9 C 1.1865 -0.2322 -0.0584 0
M  V30 10 O -3.4839 -1.4807 1.4225 0
M  V30 11 O -3.9503 -0.1295 -0.3593 0 CHG=-1
M  V30 12 C 0.6535 -1.4255 0.4369 0
M  V30 13 O 2.5715 -0.1589 -0.2762 0
M  V30 14 O 1.5019 -2.4995 0.7018 0
M  V30 15 C 3.251 0.9882 -0.7759 0
M  V30 16 H 0.7373 1.7882 -0.6691 0
M  V30 17 H -1.1162 -2.4887 1.0132 0
M  V30 18 H 1.1491 -3.3796 1.0593 0
M  V30 19 H 2.869 1.2491 -1.7854 0
M  V30 20 H 3.1161 1.8445 -0.0818 0
M  V30 21 H 4.3341 0.7623 -0.8537 0
M  V30 END ATOM
M  V30 BEGIN BOND
M  V30 1 2 1 2
M  V30 2 1 2 3
M  V30 3 1 2 4
M  V30 4 2 4 5
M  V30 5 1 4 6
M  V30 6 1 5 7
M  V30 7 1 5 8
M  V30 8 2 6 9
M  V30 9 2 7 10
M  V30 10 1 7 11
M  V30 11 2 8 12
M  V30 12 1 9 13
M  V30 13 1 12 14
M  V30 14 1 13 15
M  V30 15 1 9 12
M  V30 16 1 6 16
M  V30 17 1 8 17
M  V30 18 1 14 18
M  V30 19 1 15 19
M  V30 20 1 15 20
M  V30 21 1 15 21
M  V30 END BOND
M  V30 END CTAB
M  END
>  <Structure No>
8268

>  <LogS>
-1.21

>  <MMFF94 Energy>
120.85

$$$$
Compound 8269
Actelion Java MolfileCreator 2.0

  0  0  0  0  0  0              0 V3000
M  V30 BEGIN CTAB
M  V30 COUNTS 26 27 0 0 0
M  V30 BEGIN ATOM
M  V30 1 S 0.4143 -0.7458 1.575 0
M  V30 2 O 0.5026 -2.197 1.9578 0
M  V30 3 O 0.5938 0.0803 2.8183 0
M  V30 4 C 1.6743 -0.3751 0.3978 0
M  V30 5 C -1.1571 -0.3854 0.8688 0
M  V30 6 C 1.8264 -1.1644 -0.7567 0
M  V30 7 C 2.5191 0.7283 0.5952 0
M  V30 8 C -1.5276 0.9481 0.6455 0
M  V30 9 C -2.0332 -1.4186 0.5061 0
M  V30 10 O 0.9939 -2.2546 -0.9851 0 CHG=-1
M  V30 11 C 2.8208 -0.8536 -1.6909 0
M  V30 12 C 3.51 1.0335 -0.3422 0
M  V30 13 C -2.7676 1.2496 0.0709 0
M  V30 14 C -3.2723 -1.1183 -0.0676 0
M  V30 15 C 3.6618 0.2427 -1.4835 0
M  V30 16 O -3.121 2.5801 -0.143 0
M  V30 17 C -3.6408 0.2123 -0.2845 0
M  V30 18 H 2.4115 1.3553 1.4706 0
M  V30 19 H -0.853 1.7515 0.9145 0
M  V30 20 H -1.7594 -2.4537 0.6622 0
M  V30 21 H 2.9397 -1.4613 -2.5789 0
M  V30 22 H 4.1596 1.8849 -0.1844 0
M  V30 23 H -3.9467 -1.9178 -0.3459 0
M  V30 24 H 4.4291 0.4808 -2.2085 0
M  V30 25 H -4.011 2.8313 -0.5573 0
M  V30 26 H -4.6019 0.436 -0.7299 0
M  V30 END ATOM
M  V30 BEGIN BOND
M  V30 1 2 1 2
M  V30 2 2 1 3
M  V30 3 1 1 4
M  V30 4 1 1 5
M  V30 5 2 4 6
M  V30 6 1 4 7
M  V30 7 2 5 8
M  V30 8 1 5 9
M  V30 9 1 6 10
M  V30 10 1 6 11
M  V30 11 2 7 12
M  V30 12 1 8 13
M  V30 13 2 9 14
M  V30 14 2 11 15
M  V30 15 1 13 16
M  V30 16 2 13 17
M  V30 17 1 12 15
M  V30 18 1 14 17
M  V30 19 1 7 18
M  V30 20 1 8 19
M  V30 21 1 9 20
M  V30 22 1 11 21
M  V30 23 1 12 22
M  V30 24 1 14 23
M  V30 25 1 15 24
M  V30 26 1 16 25
M  V30 27 1 17 26
M  V30 END BOND
M  V30 END CTAB
M  END
>  <Structure No>
8269

>  <LogS>
-2.29

>  <MMFF94 Energy>
80.324

$$$$
Compound 8270
Actelion Java MolfileCreator 2.0

  0  0  0  0  0  0              0 V3000
M  V30 BEGIN CTAB
M  V30 COUNTS 27 28 0 0 0
M  V30 BEGIN ATOM
M  V30 1 S 0.2464 -1.4795 1.1505 0
M  V30 2 O 0.2805 -2.9585 0.8821 0
M  V30 3 O 0.483 -1.2668 2.6202 0
M  V30 4 C 1.5004 -0.6713 0.2183 0
M  V30 5 C -1.3205 -0.8222 0.6948 0
M  V30 6 C 2.0767 0.5154 0.6938 0
M  V30 7 C 1.9035 -1.1905 -1.0198 0
M  V30 8 C -1.8242 0.3126 1.3468 0
M  V30 9 C -2.0558 -1.4082 -0.345 0
M  V30 10 C 3.0601 1.1716 -0.0554 0
M  V30 11 C 2.886 -0.5363 -1.7688 0
M  V30 12 C -3.064 0.8501 0.9708 0
M  V30 13 C -3.2918 -0.8725 -0.719 0
M  V30 14 O 3.6252 2.3479 0.432 0
M  V30 15 C 3.4655 0.6415 -1.2883 0
M  V30 16 O -3.5748 1.9753 1.6142 0
M  V30 17 C -3.7959 0.2533 -0.0613 0
M  V30 18 H 1.7609 0.9332 1.6416 0
M  V30 19 H 1.4558 -2.0971 -1.4067 0
M  V30 20 H -1.2548 0.7801 2.1403 0
M  V30 21 H -1.6719 -2.2748 -0.8678 0
M  V30 22 H 3.1965 -0.9409 -2.7235 0
M  V30 23 H -3.8579 -1.3285 -1.521 0
M  V30 24 H 4.3386 2.847 -0.0865 0
M  V30 25 H 4.225 1.1426 -1.8748 0
M  V30 26 H -3.0692 2.4312 2.3647 0
M  V30 27 H -4.7532 0.6644 -0.3559 0
M  V30 END ATOM
M  V30 BEGIN BOND
M  V30 1 2 1 2
M  V30 2 2 1 3
M  V30 3 1 1 4
M  V30 4 1 1 5
M  V30 5 2 4 6
M  V30 6 1 4 7
M  V30 7 2 5 8
M  V30 8 1 5 9
M  V30 9 1 6 10
M  V30 10 2 7 11
M  V30 11 1 8 12
M  V30 12 2 9 13
M  V30 13 1 10 14
M  V30 14 2 10 15
M  V30 15 1 12 16
M  V30 16 2 12 17
M  V30 17 1 11 15
M  V30 18 1 13 17
M  V30 19 1 6 18
M  V30 20 1 7 19
M  V30 21 1 8 20
M  V30 22 1 9 21
M  V30 23 1 11 22
M  V30 24 1 13 23
M  V30 25 1 14 24
M  V30 26 1 15 25
M  V30 27 1 16 26
M  V30 28 1 17 27
M  V30 END BOND
M  V30 END CTAB
M  END
>  <Structure No>
8270

>  <LogS>
-2.33

>  <MMFF94 Energy>
50.702

$$$$
Compound 8271
Actelion Java MolfileCreator 2.0

  0  0  0  0  0  0              0 V3000
M  V30 BEGIN CTAB
M  V30 COUNTS 28 28 0 0 0
M  V30 BEGIN ATOM
M  V30 1 S 0.8455 1.0992 0.0 0
M  V30 2 O 0.1088 2.371 0.3131 0
M  V30 3 O 1.6113 1.288 -1.2799 0
M  V30 4 N 1.9248 0.7505 1.3177 0 CHG=-1
M  V30 5 C -0.3402 -0.2363 -0.1974 0
M  V30 6 S 3.2284 -0.2752 0.7993 0
M  V30 7 C -0.9321 -0.6266 1.1768 0
M  V30 8 C -1.4262 0.1276 -1.2438 0
M  V30 9 O 3.7634 -1.0135 1.9931 0
M  V30 10 O 2.7605 -1.2752 -0.2205 0
M  V30 11 C 4.5379 0.7136 0.1097 0
M  V30 12 C -2.2732 -1.3487 1.0185 0
M  V30 13 C -2.7223 0.6187 -0.5881 0
M  V30 14 C -3.329 -0.4485 0.3447 0
M  V30 15 H 0.2138 -1.1146 -0.5913 0
M  V30 16 H -1.0914 0.2775 1.8053 0
M  V30 17 H -0.2173 -1.2873 1.7136 0
M  V30 18 H -1.6638 -0.7745 -1.8498 0
M  V30 19 H -1.0557 0.898 -1.9539 0
M  V30 20 H 4.1918 1.2111 -0.8181 0
M  V30 21 H 5.4059 0.0648 -0.1274 0
M  V30 22 H 4.8462 1.4842 0.8459 0
M  V30 23 H -2.6424 -1.6716 2.0159 0
M  V30 24 H -2.1191 -2.264 0.4054 0
M  V30 25 H -3.4603 0.8847 -1.3754 0
M  V30 26 H -2.5081 1.5415 -0.0062 0
M  V30 27 H -4.0261 -1.0913 -0.2357 0
M  V30 28 H -3.9289 0.0654 1.1271 0
M  V30 END ATOM
M  V30 BEGIN BOND
M  V30 1 2 1 2
M  V30 2 2 1 3
M  V30 3 1 1 4
M  V30 4 1 1 5
M  V30 5 1 4 6
M  V30 6 1 5 7
M  V30 7 1 5 8
M  V30 8 2 6 9
M  V30 9 2 6 10
M  V30 10 1 6 11
M  V30 11 1 7 12
M  V30 12 1 8 13
M  V30 13 1 12 14
M  V30 14 1 13 14
M  V30 15 1 5 15
M  V30 16 1 7 16
M  V30 17 1 7 17
M  V30 18 1 8 18
M  V30 19 1 8 19
M  V30 20 1 11 20
M  V30 21 1 11 21
M  V30 22 1 11 22
M  V30 23 1 12 23
M  V30 24 1 12 24
M  V30 25 1 13 25
M  V30 26 1 13 26
M  V30 27 1 14 27
M  V30 28 1 14 28
M  V30 END BOND
M  V30 END CTAB
M  END
>  <Structure No>
8271

>  <LogS>
-0.33

>  <MMFF94 Energy>
13.707

$$$$
Compound 8272
Actelion Java MolfileCreator 2.0

  0  0  0  0  0  0              0 V3000
M  V30 BEGIN CTAB
M  V30 COUNTS 40 40 0 0 0
M  V30 BEGIN ATOM
M  V30 1 Cl 6.7945 2.3141 0.2392 0
M  V30 2 C 6.1902 0.6688 0.1214 0
M  V30 3 C 7.0636 -0.4198 0.2455 0
M  V30 4 C 4.8249 0.4513 -0.0976 0
M  V30 5 O 8.4229 -0.2017 0.464 0
M  V30 6 C 6.5632 -1.7244 0.1492 0
M  V30 7 C 4.3164 -0.8557 -0.1957 0
M  V30 8 C 5.2002 -1.9424 -0.0695 0
M  V30 9 C 2.8721 -1.0798 -0.4262 0
M  V30 10 O 2.4198 -2.2551 -0.5113 0
M  V30 11 O 2.0094 0.0162 -0.5567 0
M  V30 12 C 0.5984 -0.1071 -0.7233 0
M  V30 13 C -0.0711 -0.4433 0.6153 0
M  V30 14 C -1.5786 -0.7054 0.4752 0
M  V30 15 C -2.3764 0.5719 0.1733 0
M  V30 16 C -3.8841 0.2907 0.1727 0
M  V30 17 C -4.6819 1.5678 -0.1301 0
M  V30 18 C -6.1901 1.3051 -0.2594 0
M  V30 19 C -6.8488 0.969 1.0782 0
M  V30 20 H 4.1655 1.3053 -0.1904 0
M  V30 21 H 9.0752 -0.9714 0.5572 0
M  V30 22 H 7.2304 -2.5716 0.244 0
M  V30 23 H 4.8396 -2.9608 -0.1397 0
M  V30 24 H 0.371 -0.884 -1.4858 0
M  V30 25 H 0.2141 0.8642 -1.0962 0
M  V30 26 H 0.1065 0.3817 1.339 0
M  V30 27 H 0.3987 -1.3591 1.0328 0
M  V30 28 H -1.941 -1.1362 1.4344 0
M  V30 29 H -1.7569 -1.4608 -0.3213 0
M  V30 30 H -2.148 1.342 0.9428 0
M  V30 31 H -2.0848 0.9674 -0.8227 0
M  V30 32 H -4.1769 -0.1038 1.1691 0
M  V30 33 H -4.1126 -0.4796 -0.5961 0
M  V30 34 H -4.4986 2.3263 0.6623 0
M  V30 35 H -4.3254 1.9942 -1.0933 0
M  V30 36 H -6.375 0.4819 -0.9831 0
M  V30 37 H -6.6723 2.2215 -0.6634 0
M  V30 38 H -6.6292 1.7575 1.8291 0
M  V30 39 H -7.9491 0.9083 0.9422 0
M  V30 40 H -6.4939 -0.0117 1.4563 0
M  V30 END ATOM
M  V30 BEGIN BOND
M  V30 1 1 1 2
M  V30 2 2 2 3
M  V30 3 1 2 4
M  V30 4 1 3 5
M  V30 5 1 3 6
M  V30 6 2 4 7
M  V30 7 2 6 8
M  V30 8 1 7 9
M  V30 9 2 9 10
M  V30 10 1 9 11
M  V30 11 1 11 12
M  V30 12 1 12 13
M  V30 13 1 13 14
M  V30 14 1 14 15
M  V30 15 1 15 16
M  V30 16 1 16 17
M  V30 17 1 17 18
M  V30 18 1 18 19
M  V30 19 1 7 8
M  V30 20 1 4 20
M  V30 21 1 5 21
M  V30 22 1 6 22
M  V30 23 1 8 23
M  V30 24 1 12 24
M  V30 25 1 12 25
M  V30 26 1 13 26
M  V30 27 1 13 27
M  V30 28 1 14 28
M  V30 29 1 14 29
M  V30 30 1 15 30
M  V30 31 1 15 31
M  V30 32 1 16 32
M  V30 33 1 16 33
M  V30 34 1 17 34
M  V30 35 1 17 35
M  V30 36 1 18 36
M  V30 37 1 18 37
M  V30 38 1 19 38
M  V30 39 1 19 39
M  V30 40 1 19 40
M  V30 END BOND
M  V30 END CTAB
M  END
>  <Structure No>
8272

>  <LogS>
-4.38

>  <MMFF94 Energy>
24.651

$$$$
Compound 8273
Actelion Java MolfileCreator 2.0

  0  0  0  0  0  0              0 V3000
M  V30 BEGIN CTAB
M  V30 COUNTS 44 44 0 0 0
M  V30 BEGIN ATOM
M  V30 1 O 1.2522 0.6259 2.0354 0
M  V30 2 C 1.7337 -0.0044 1.0537 0
M  V30 3 O 0.9468 -0.9315 0.3577 0
M  V30 4 C 3.1336 0.2281 0.6369 0
M  V30 5 C -0.4415 -1.1529 0.6181 0 CFG=1
M  V30 6 C 3.9495 1.138 1.3338 0
M  V30 7 C 3.6671 -0.4572 -0.4685 0
M  V30 8 C -1.3017 0.0162 0.0345 0 CFG=2
M  V30 9 C -0.8175 -2.5359 0.0761 0
M  V30 10 C 5.2712 1.3551 0.9327 0
M  V30 11 C 4.9892 -0.2381 -0.8675 0
M  V30 12 N -2.7672 -0.1183 0.3683 0 CHG=1
M  V30 13 C -0.9963 0.2642 -1.4652 0
M  V30 14 C 5.7972 0.6684 -0.1691 0
M  V30 15 C -3.3251 1.1271 0.969 0
M  V30 16 C -3.6032 -0.6649 -0.739 0
M  V30 17 N 7.1492 0.8916 -0.5785 0
M  V30 18 C -3.3779 2.3351 0.0238 0
M  V30 19 C -5.0059 -1.0902 -0.2859 0
M  V30 20 H -0.5933 -1.189 1.7208 0
M  V30 21 H 3.5676 1.6822 2.1887 0
M  V30 22 H 3.0641 -1.1622 -1.027 0
M  V30 23 H -0.9009 0.9212 0.5441 0
M  V30 24 H -0.7092 -2.5817 -1.0262 0
M  V30 25 H -0.1394 -3.2977 0.5158 0
M  V30 26 H -1.8526 -2.8104 0.3646 0
M  V30 27 H 5.8851 2.0589 1.481 0
M  V30 28 H 5.3832 -0.7748 -1.7213 0
M  V30 29 H -2.8396 -0.8167 1.1458 0
M  V30 30 H 0.0764 0.518 -1.5997 0
M  V30 31 H -1.2152 -0.6235 -2.0906 0
M  V30 32 H -1.5842 1.1184 -1.8552 0
M  V30 33 H -4.3455 0.9446 1.3683 0
M  V30 34 H -2.721 1.413 1.8599 0
M  V30 35 H -3.7027 0.058 -1.5742 0
M  V30 36 H -3.123 -1.572 -1.1614 0
M  V30 37 H 7.55 0.3844 -1.3988 0
M  V30 38 H 7.7592 1.5657 -0.0641 0
M  V30 39 H -4.0226 2.1397 -0.8555 0
M  V30 40 H -3.8155 3.1978 0.5695 0
M  V30 41 H -2.3623 2.6337 -0.3035 0
M  V30 42 H -5.6439 -0.2043 -0.0886 0
M  V30 43 H -4.9511 -1.7248 0.6238 0
M  V30 44 H -5.4908 -1.6784 -1.0936 0
M  V30 END ATOM
M  V30 BEGIN BOND
M  V30 1 2 1 2
M  V30 2 1 2 3
M  V30 3 1 2 4
M  V30 4 1 3 5
M  V30 5 2 4 6
M  V30 6 1 4 7
M  V30 7 1 5 8
M  V30 8 1 5 9
M  V30 9 1 6 10
M  V30 10 2 7 11
M  V30 11 1 8 12
M  V30 12 1 8 13
M  V30 13 2 10 14
M  V30 14 1 12 15
M  V30 15 1 12 16
M  V30 16 1 14 17
M  V30 17 1 15 18
M  V30 18 1 16 19
M  V30 19 1 11 14
M  V30 20 1 5 20
M  V30 21 1 6 21
M  V30 22 1 7 22
M  V30 23 1 8 23
M  V30 24 1 9 24
M  V30 25 1 9 25
M  V30 26 1 9 26
M  V30 27 1 10 27
M  V30 28 1 11 28
M  V30 29 1 12 29
M  V30 30 1 13 30
M  V30 31 1 13 31
M  V30 32 1 13 32
M  V30 33 1 15 33
M  V30 34 1 15 34
M  V30 35 1 16 35
M  V30 36 1 16 36
M  V30 37 1 17 37
M  V30 38 1 17 38
M  V30 39 1 18 39
M  V30 40 1 18 40
M  V30 41 1 18 41
M  V30 42 1 19 42
M  V30 43 1 19 43
M  V30 44 1 19 44
M  V30 END BOND
M  V30 BEGIN COLLECTION
M  V30 MDLV30/STEABS ATOMS=(2 5 8)
M  V30 END COLLECTION
M  V30 END CTAB
M  END
>  <Structure No>
8273

>  <LogS>
-3.42

>  <MMFF94 Energy>
41.515

$$$$
Compound 8274
Actelion Java MolfileCreator 2.0

  0  0  0  0  0  0              0 V3000
M  V30 BEGIN CTAB
M  V30 COUNTS 18 18 0 0 0
M  V30 BEGIN ATOM
M  V30 1 Cl -4.6856 -0.4413 0.0 0
M  V30 2 C -2.9295 -0.379 -0.0692 0
M  V30 3 C -2.2415 0.8441 -0.0263 0
M  V30 4 C -2.2128 -1.5754 -0.1688 0
M  V30 5 Cl -3.1056 2.3709 0.0989 0
M  V30 6 C -0.843 0.8596 -0.0834 0
M  V30 7 C -0.8153 -1.5607 -0.226 0
M  V30 8 C -0.1178 -0.3436 -0.1838 0
M  V30 9 Cl 0.0548 -3.0821 -0.3518 0
M  V30 10 O 1.2843 -0.3677 -0.2436 0
M  V30 11 C 2.1148 0.7894 -0.2171 0
M  V30 12 C 3.5449 0.3699 -0.3013 0
M  V30 13 S 4.2038 -0.0397 -1.7406 0
M  V30 14 O 4.3103 0.2768 0.8541 0 CHG=-1
M  V30 15 H -2.7426 -2.5193 -0.2021 0
M  V30 16 H -0.3316 1.812 -0.0487 0
M  V30 17 H 1.952 1.3469 0.7304 0
M  V30 18 H 1.869 1.4527 -1.0748 0
M  V30 END ATOM
M  V30 BEGIN BOND
M  V30 1 1 1 2
M  V30 2 2 2 3
M  V30 3 1 2 4
M  V30 4 1 3 5
M  V30 5 1 3 6
M  V30 6 2 4 7
M  V30 7 2 6 8
M  V30 8 1 7 9
M  V30 9 1 8 10
M  V30 10 1 10 11
M  V30 11 1 11 12
M  V30 12 2 12 13
M  V30 13 1 12 14
M  V30 14 1 7 8
M  V30 15 1 4 15
M  V30 16 1 6 16
M  V30 17 1 11 17
M  V30 18 1 11 18
M  V30 END BOND
M  V30 END CTAB
M  END
>  <Structure No>
8274

>  <LogS>
-2.96

>  <MMFF94 Energy>
60.008

$$$$
Compound 8275
Actelion Java MolfileCreator 2.0

  0  0  0  0  0  0              0 V3000
M  V30 BEGIN CTAB
M  V30 COUNTS 43 45 0 0 0
M  V30 BEGIN ATOM
M  V30 1 O -1.0435 2.0074 -3.133 0
M  V30 2 C -1.3041 2.4972 -2.0004 0
M  V30 3 O -0.9214 1.8355 -0.8292 0
M  V30 4 C -1.9836 3.8204 -1.9067 0
M  V30 5 C -0.2715 0.5632 -0.8286 0 CFG=2
M  V30 6 C -1.2008 -0.5636 -1.2067 0 CFG=2
M  V30 7 C 0.157 0.1747 0.5775 0 CFG=1
M  V30 8 O -2.5271 -0.263 -0.8945 0
M  V30 9 C -0.7914 -1.6907 -0.3106 0 CFG=1
M  V30 10 O 0.1174 -1.2312 0.6671 0
M  V30 11 C 1.5641 0.6996 0.9195 0 CFG=2
M  V30 12 C -3.0026 -1.3416 -0.1217 0
M  V30 13 O -1.9444 -2.1684 0.3099 0
M  V30 14 O 2.5338 0.0425 0.1623 0
M  V30 15 C 1.934 0.4691 2.3614 0
M  V30 16 C -3.9758 -2.173 -0.9651 0
M  V30 17 C -3.7217 -0.7822 1.1084 0
M  V30 18 C 3.5965 -0.242 1.047 0
M  V30 19 O 3.2912 0.1646 2.364 0
M  V30 20 C 3.8571 -1.752 1.0378 0
M  V30 21 C 4.8451 0.5087 0.5763 0
M  V30 22 H -1.2313 4.6301 -2.0065 0
M  V30 23 H -2.4937 3.9155 -0.9251 0
M  V30 24 H -2.7393 3.9193 -2.7143 0
M  V30 25 H 0.6024 0.5736 -1.5194 0
M  V30 26 H -1.1133 -0.8278 -2.2839 0
M  V30 27 H -0.5699 0.5946 1.3108 0
M  V30 28 H -0.318 -2.5073 -0.8972 0
M  V30 29 H 1.6179 1.79 0.6996 0
M  V30 30 H 1.3752 -0.3817 2.81 0
M  V30 31 H 1.7503 1.382 2.9675 0
M  V30 32 H -3.4517 -2.5798 -1.856 0
M  V30 33 H -4.8239 -1.5443 -1.312 0
M  V30 34 H -4.3748 -3.0239 -0.3723 0
M  V30 35 H -4.1152 -1.6086 1.7383 0
M  V30 36 H -3.0145 -0.1808 1.7183 0
M  V30 37 H -4.5657 -0.1279 0.8013 0
M  V30 38 H 4.1112 -2.0961 0.0123 0
M  V30 39 H 4.694 -2.0062 1.7229 0
M  V30 40 H 2.948 -2.2943 1.3748 0
M  V30 41 H 4.6524 1.6028 0.5845 0
M  V30 42 H 5.7034 0.2967 1.2494 0
M  V30 43 H 5.1137 0.206 -0.4585 0
M  V30 END ATOM
M  V30 BEGIN BOND
M  V30 1 2 1 2
M  V30 2 1 2 3
M  V30 3 1 2 4
M  V30 4 1 3 5
M  V30 5 1 5 6
M  V30 6 1 5 7
M  V30 7 1 6 8
M  V30 8 1 6 9
M  V30 9 1 7 10
M  V30 10 1 7 11
M  V30 11 1 8 12
M  V30 12 1 9 13
M  V30 13 1 11 14
M  V30 14 1 11 15
M  V30 15 1 12 16
M  V30 16 1 12 17
M  V30 17 1 14 18
M  V30 18 1 15 19
M  V30 19 1 18 20
M  V30 20 1 18 21
M  V30 21 1 9 10
M  V30 22 1 12 13
M  V30 23 1 18 19
M  V30 24 1 4 22
M  V30 25 1 4 23
M  V30 26 1 4 24
M  V30 27 1 5 25
M  V30 28 1 6 26
M  V30 29 1 7 27
M  V30 30 1 9 28
M  V30 31 1 11 29
M  V30 32 1 15 30
M  V30 33 1 15 31
M  V30 34 1 16 32
M  V30 35 1 16 33
M  V30 36 1 16 34
M  V30 37 1 17 35
M  V30 38 1 17 36
M  V30 39 1 17 37
M  V30 40 1 20 38
M  V30 41 1 20 39
M  V30 42 1 20 40
M  V30 43 1 21 41
M  V30 44 1 21 42
M  V30 45 1 21 43
M  V30 END BOND
M  V30 BEGIN COLLECTION
M  V30 MDLV30/STEABS ATOMS=(5 5 6 7 9 11)
M  V30 END COLLECTION
M  V30 END CTAB
M  END
>  <Structure No>
8275

>  <LogS>
-1.52

>  <MMFF94 Energy>
52.936

$$$$
Compound 8276
Actelion Java MolfileCreator 2.0

  0  0  0  0  0  0              0 V3000
M  V30 BEGIN CTAB
M  V30 COUNTS 34 35 0 0 0
M  V30 BEGIN ATOM
M  V30 1 O 1.1108 0.1586 1.5872 0
M  V30 2 C 1.0338 -0.0038 0.3387 0
M  V30 3 N 2.1543 0.3017 -0.5065 0
M  V30 4 C -0.2749 -0.4238 -0.274 0 CFG=1
M  V30 5 C 3.491 0.5219 -0.0245 0
M  V30 6 O -0.9108 -1.3634 0.552 0
M  V30 7 C -1.1754 0.8023 -0.4707 0
M  V30 8 C 3.9977 -0.1812 1.0848 0
M  V30 9 C 4.3314 1.414 -0.7095 0
M  V30 10 O -2.3733 0.45 -1.1656 0
M  V30 11 C 5.31 0.0356 1.5175 0
M  V30 12 C 5.6425 1.6287 -0.2731 0
M  V30 13 C -3.5324 -0.0997 -0.592 0
M  V30 14 C 6.1302 0.943 0.8421 0
M  V30 15 C -4.5572 -0.5157 -1.4528 0
M  V30 16 C -3.7108 -0.2373 0.8004 0
M  V30 17 C -5.7358 -1.0674 -0.9417 0
M  V30 18 C -4.8914 -0.7902 1.3076 0
M  V30 19 C -5.9025 -1.2054 0.4381 0
M  V30 20 H 1.9678 0.456 -1.5235 0
M  V30 21 H -0.0842 -0.8779 -1.2743 0
M  V30 22 H -0.4234 -2.2211 0.4385 0
M  V30 23 H -1.3998 1.3093 0.4913 0
M  V30 24 H -0.6304 1.5395 -1.0991 0
M  V30 25 H 3.3928 -0.9146 1.6009 0
M  V30 26 H 3.9656 1.9502 -1.5763 0
M  V30 27 H 5.694 -0.5069 2.3718 0
M  V30 28 H 6.2809 2.3251 -0.8012 0
M  V30 29 H 7.1459 1.1082 1.1776 0
M  V30 30 H -4.4375 -0.4125 -2.5239 0
M  V30 31 H -2.9519 0.0764 1.5018 0
M  V30 32 H -6.52 -1.3874 -1.6156 0
M  V30 33 H -5.0227 -0.8956 2.3771 0
M  V30 34 H -6.8152 -1.6325 0.8333 0
M  V30 END ATOM
M  V30 BEGIN BOND
M  V30 1 2 1 2
M  V30 2 1 2 3
M  V30 3 1 2 4
M  V30 4 1 3 5
M  V30 5 1 4 6
M  V30 6 1 4 7
M  V30 7 2 5 8
M  V30 8 1 5 9
M  V30 9 1 7 10
M  V30 10 1 8 11
M  V30 11 2 9 12
M  V30 12 1 10 13
M  V30 13 2 11 14
M  V30 14 2 13 15
M  V30 15 1 13 16
M  V30 16 1 15 17
M  V30 17 2 16 18
M  V30 18 2 17 19
M  V30 19 1 12 14
M  V30 20 1 18 19
M  V30 21 1 3 20
M  V30 22 1 4 21
M  V30 23 1 6 22
M  V30 24 1 7 23
M  V30 25 1 7 24
M  V30 26 1 8 25
M  V30 27 1 9 26
M  V30 28 1 11 27
M  V30 29 1 12 28
M  V30 30 1 14 29
M  V30 31 1 15 30
M  V30 32 1 16 31
M  V30 33 1 17 32
M  V30 34 1 18 33
M  V30 35 1 19 34
M  V30 END BOND
M  V30 BEGIN COLLECTION
M  V30 MDLV30/STEABS ATOMS=(1 4)
M  V30 END COLLECTION
M  V30 END CTAB
M  END
>  <Structure No>
8276

>  <LogS>
-2.41

>  <MMFF94 Energy>
58.522

$$$$
Compound 8277
Actelion Java MolfileCreator 2.0

  0  0  0  0  0  0              0 V3000
M  V30 BEGIN CTAB
M  V30 COUNTS 34 35 0 0 0
M  V30 BEGIN ATOM
M  V30 1 O 0.4762 0.3969 -1.2705 0
M  V30 2 C 0.3225 -0.1287 -0.1341 0
M  V30 3 N 1.3524 0.0174 0.8619 0
M  V30 4 C -0.9273 -0.8688 0.1671 0
M  V30 5 O 0.9962 0.0475 2.1716 0
M  V30 6 C 2.7408 0.1817 0.507 0
M  V30 7 C -2.1635 -0.477 -0.3975 0
M  V30 8 C -0.8779 -1.9921 1.0118 0
M  V30 9 C 3.2738 -0.4369 -0.6405 0
M  V30 10 C 3.5968 0.931 1.3343 0
M  V30 11 O -2.2028 0.6546 -1.2329 0
M  V30 12 C -3.322 -1.2261 -0.1032 0
M  V30 13 C -2.035 -2.7168 1.2983 0
M  V30 14 C 4.6257 -0.2854 -0.9633 0
M  V30 15 C 4.9479 1.0802 1.0066 0
M  V30 16 C -3.3787 1.2545 -1.7768 0
M  V30 17 C -3.2539 -2.335 0.7416 0
M  V30 18 C 5.4613 0.4749 -0.1422 0
M  V30 19 C -4.124 2.0486 -0.7095 0
M  V30 20 H 0.7764 0.9965 2.3581 0
M  V30 21 H 0.0618 -2.3228 1.4362 0
M  V30 22 H 2.6513 -1.0531 -1.2759 0
M  V30 23 H 3.2185 1.4102 2.2278 0
M  V30 24 H -4.2834 -0.9636 -0.5197 0
M  V30 25 H -1.9848 -3.5814 1.9476 0
M  V30 26 H 5.0271 -0.7639 -1.8472 0
M  V30 27 H 5.5974 1.6651 1.6449 0
M  V30 28 H -3.0704 1.9558 -2.5806 0
M  V30 29 H -4.0373 0.4908 -2.2411 0
M  V30 30 H -4.1491 -2.902 0.9624 0
M  V30 31 H 6.5077 0.5902 -0.3933 0
M  V30 32 H -4.4692 1.383 0.1077 0
M  V30 33 H -5.0084 2.5436 -1.1629 0
M  V30 34 H -3.4561 2.8266 -0.2832 0
M  V30 END ATOM
M  V30 BEGIN BOND
M  V30 1 2 1 2
M  V30 2 1 2 3
M  V30 3 1 2 4
M  V30 4 1 3 5
M  V30 5 1 3 6
M  V30 6 2 4 7
M  V30 7 1 4 8
M  V30 8 2 6 9
M  V30 9 1 6 10
M  V30 10 1 7 11
M  V30 11 1 7 12
M  V30 12 2 8 13
M  V30 13 1 9 14
M  V30 14 2 10 15
M  V30 15 1 11 16
M  V30 16 2 12 17
M  V30 17 2 14 18
M  V30 18 1 16 19
M  V30 19 1 13 17
M  V30 20 1 15 18
M  V30 21 1 5 20
M  V30 22 1 8 21
M  V30 23 1 9 22
M  V30 24 1 10 23
M  V30 25 1 12 24
M  V30 26 1 13 25
M  V30 27 1 14 26
M  V30 28 1 15 27
M  V30 29 1 16 28
M  V30 30 1 16 29
M  V30 31 1 17 30
M  V30 32 1 18 31
M  V30 33 1 19 32
M  V30 34 1 19 33
M  V30 35 1 19 34
M  V30 END BOND
M  V30 END CTAB
M  END
>  <Structure No>
8277

>  <LogS>
-3.37

>  <MMFF94 Energy>
93.996

$$$$
Compound 8278
Actelion Java MolfileCreator 2.0

  0  0  0  0  0  0              0 V3000
M  V30 BEGIN CTAB
M  V30 COUNTS 38 39 0 0 0
M  V30 BEGIN ATOM
M  V30 1 S 1.605 -2.2475 0.0802 0
M  V30 2 O 1.6485 -3.1524 1.2801 0
M  V30 3 O 1.537 -3.1081 -1.1506 0
M  V30 4 C 0.1882 -1.2081 0.1638 0
M  V30 5 C 3.0495 -1.245 0.0324 0
M  V30 6 C -0.3166 -0.8042 1.4052 0
M  V30 7 C -0.4179 -0.7485 -1.0111 0
M  V30 8 C 3.562 -0.8062 -1.1957 0
M  V30 9 C 3.6734 -0.851 1.2238 0
M  V30 10 C -1.4299 0.038 1.4713 0
M  V30 11 C -1.5315 0.0941 -0.9476 0
M  V30 12 C 4.6983 0.0074 -1.233 0
M  V30 13 C 4.8098 -0.0373 1.1868 0
M  V30 14 C -2.055 0.4912 0.2985 0
M  V30 15 C 5.3286 0.3946 -0.042 0
M  V30 16 N -3.1983 1.3621 0.4057 0
M  V30 17 N 6.4902 1.2275 -0.0799 0
M  V30 18 C -4.0553 1.7565 -0.7139 0
M  V30 19 C -4.9251 0.5844 -1.1915 0
M  V30 20 N -5.8447 0.1367 -0.1445 0 CHG=1
M  V30 21 H 0.1526 -1.137 2.3221 0
M  V30 22 H -0.0252 -1.0372 -1.9778 0
M  V30 23 H 3.0807 -1.0896 -2.123 0
M  V30 24 H 3.2788 -1.1693 2.1803 0
M  V30 25 H -1.8081 0.3371 2.4408 0
M  V30 26 H -1.9687 0.4338 -1.8753 0
M  V30 27 H 5.0855 0.3381 -2.1885 0
M  V30 28 H 5.2836 0.2584 2.1142 0
M  V30 29 H -3.4443 1.7442 1.3474 0
M  V30 30 H 6.8833 1.5554 -0.9902 0
M  V30 31 H 6.9657 1.5222 0.8019 0
M  V30 32 H -4.7192 2.588 -0.3912 0
M  V30 33 H -3.4383 2.1479 -1.5495 0
M  V30 34 H -4.2852 -0.2652 -1.5119 0
M  V30 35 H -5.5115 0.9155 -2.0766 0
M  V30 36 H -6.4518 -0.6236 -0.5269 0
M  V30 37 H -6.4522 0.9294 0.1657 0
M  V30 38 H -5.3092 -0.2402 0.6704 0
M  V30 END ATOM
M  V30 BEGIN BOND
M  V30 1 2 1 2
M  V30 2 2 1 3
M  V30 3 1 1 4
M  V30 4 1 1 5
M  V30 5 2 4 6
M  V30 6 1 4 7
M  V30 7 2 5 8
M  V30 8 1 5 9
M  V30 9 1 6 10
M  V30 10 2 7 11
M  V30 11 1 8 12
M  V30 12 2 9 13
M  V30 13 2 10 14
M  V30 14 2 12 15
M  V30 15 1 14 16
M  V30 16 1 15 17
M  V30 17 1 16 18
M  V30 18 1 18 19
M  V30 19 1 19 20
M  V30 20 1 11 14
M  V30 21 1 13 15
M  V30 22 1 6 21
M  V30 23 1 7 22
M  V30 24 1 8 23
M  V30 25 1 9 24
M  V30 26 1 10 25
M  V30 27 1 11 26
M  V30 28 1 12 27
M  V30 29 1 13 28
M  V30 30 1 16 29
M  V30 31 1 17 30
M  V30 32 1 17 31
M  V30 33 1 18 32
M  V30 34 1 18 33
M  V30 35 1 19 34
M  V30 36 1 19 35
M  V30 37 1 20 36
M  V30 38 1 20 37
M  V30 39 1 20 38
M  V30 END BOND
M  V30 END CTAB
M  END
>  <Structure No>
8278

>  <LogS>
-2.35

>  <MMFF94 Energy>
108.24

$$$$
Compound 8279
Actelion Java MolfileCreator 2.0

  0  0  0  0  0  0              0 V3000
M  V30 BEGIN CTAB
M  V30 COUNTS 34 34 0 0 0
M  V30 BEGIN ATOM
M  V30 1 S 0.3224 -1.8549 -0.2418 0
M  V30 2 O 0.1093 -2.5144 1.0909 0
M  V30 3 O 0.7431 -2.9133 -1.2213 0
M  V30 4 N -1.1503 -1.1115 -0.8292 0
M  V30 5 C 1.6247 -0.6688 -0.1339 0
M  V30 6 C -1.9847 -0.3614 0.1491 0
M  V30 7 C 2.3009 -0.4535 1.0762 0
M  V30 8 C 1.996 0.0618 -1.2708 0
M  V30 9 C -1.1305 0.651 0.9658 0
M  V30 10 C -3.0539 0.4149 -0.6802 0
M  V30 11 C -2.7047 -1.3521 1.1077 0
M  V30 12 C 3.3264 0.4937 1.1507 0
M  V30 13 C 3.0217 1.0087 -1.1963 0
M  V30 14 O -1.9295 1.438 1.8117 0
M  V30 15 O -4.0167 1.0393 0.1312 0
M  V30 16 O -3.2583 -2.43 0.3995 0
M  V30 17 C 3.6908 1.2306 0.0152 0
M  V30 18 N 4.7393 2.2 0.0919 0
M  V30 19 H -0.8645 -0.4735 -1.6076 0
M  V30 20 H 2.0333 -1.0114 1.964 0
M  V30 21 H 1.4922 -0.1012 -2.2148 0
M  V30 22 H -0.5297 1.2882 0.2741 0
M  V30 23 H -0.4155 0.1083 1.6147 0
M  V30 24 H -2.5529 1.2023 -1.2842 0
M  V30 25 H -3.5421 -0.2725 -1.4113 0
M  V30 26 H -3.4883 -0.837 1.709 0
M  V30 27 H -2.0037 -1.7553 1.8622 0
M  V30 28 H 3.8366 0.6535 2.0923 0
M  V30 29 H 3.2955 1.5681 -2.082 0
M  V30 30 H -2.0188 2.33 1.3854 0
M  V30 31 H -4.821 0.4573 0.1346 0
M  V30 32 H -4.1594 -2.144 0.0978 0
M  V30 33 H 5.2439 2.3719 0.99 0
M  V30 34 H 5.0181 2.7534 -0.7488 0
M  V30 END ATOM
M  V30 BEGIN BOND
M  V30 1 2 1 2
M  V30 2 2 1 3
M  V30 3 1 1 4
M  V30 4 1 1 5
M  V30 5 1 4 6
M  V30 6 2 5 7
M  V30 7 1 5 8
M  V30 8 1 6 9
M  V30 9 1 6 10
M  V30 10 1 6 11
M  V30 11 1 7 12
M  V30 12 2 8 13
M  V30 13 1 9 14
M  V30 14 1 10 15
M  V30 15 1 11 16
M  V30 16 2 12 17
M  V30 17 1 17 18
M  V30 18 1 13 17
M  V30 19 1 4 19
M  V30 20 1 7 20
M  V30 21 1 8 21
M  V30 22 1 9 22
M  V30 23 1 9 23
M  V30 24 1 10 24
M  V30 25 1 10 25
M  V30 26 1 11 26
M  V30 27 1 11 27
M  V30 28 1 12 28
M  V30 29 1 13 29
M  V30 30 1 14 30
M  V30 31 1 15 31
M  V30 32 1 16 32
M  V30 33 1 18 33
M  V30 34 1 18 34
M  V30 END BOND
M  V30 END CTAB
M  END
>  <Structure No>
8279

>  <LogS>
-1.4

>  <MMFF94 Energy>
11.977

$$$$
Compound 8280
Actelion Java MolfileCreator 2.0

  0  0  0  0  0  0              0 V3000
M  V30 BEGIN CTAB
M  V30 COUNTS 32 33 0 0 0
M  V30 BEGIN ATOM
M  V30 1 S 1.1314 2.5065 -0.2423 0
M  V30 2 O 0.6265 3.8032 0.3244 0
M  V30 3 O 1.9272 2.793 -1.4852 0
M  V30 4 N 2.1593 1.7344 0.924 0
M  V30 5 C -0.2487 1.4757 -0.6088 0
M  V30 6 C 2.6683 0.3948 0.7936 0
M  V30 7 C -0.8441 0.7199 0.4098 0
M  V30 8 C -0.7555 1.4088 -1.9134 0
M  V30 9 N 2.5965 -0.2412 -0.3417 0 CHG=1
M  V30 10 N 3.2725 -0.2205 1.9465 0
M  V30 11 C -1.9375 -0.1119 0.1266 0
M  V30 12 C -1.8455 0.5849 -2.2064 0
M  V30 13 C 3.8144 -1.5752 1.9571 0
M  V30 14 C -2.4429 -0.1807 -1.1946 0
M  V30 15 C -2.5356 -0.8779 1.1394 0
M  V30 16 C -3.5366 -1.0135 -1.4774 0
M  V30 17 C -3.6242 -1.7037 0.8442 0
M  V30 18 C -4.1229 -1.7712 -0.4594 0
M  V30 19 H 2.3356 2.2508 1.8142 0
M  V30 20 H -0.4532 0.7792 1.419 0
M  V30 21 H -0.307 1.9938 -2.706 0
M  V30 22 H 2.9594 -1.212 -0.4551 0
M  V30 23 H 2.1865 0.1935 -1.1951 0
M  V30 24 H 3.3185 0.3267 2.8354 0
M  V30 25 H -2.2205 0.546 -3.2222 0
M  V30 26 H 3.0146 -2.3047 1.7103 0
M  V30 27 H 4.6437 -1.6569 1.2237 0
M  V30 28 H 4.2109 -1.8138 2.9666 0
M  V30 29 H -2.1622 -0.8383 2.1557 0
M  V30 30 H -3.9365 -1.0784 -2.4823 0
M  V30 31 H -4.0825 -2.2929 1.628 0
M  V30 32 H -4.9661 -2.4124 -0.6814 0
M  V30 END ATOM
M  V30 BEGIN BOND
M  V30 1 2 1 2
M  V30 2 2 1 3
M  V30 3 1 1 4
M  V30 4 1 1 5
M  V30 5 1 4 6
M  V30 6 2 5 7
M  V30 7 1 5 8
M  V30 8 2 6 9
M  V30 9 1 6 10
M  V30 10 1 7 11
M  V30 11 2 8 12
M  V30 12 1 10 13
M  V30 13 1 11 14
M  V30 14 2 11 15
M  V30 15 2 14 16
M  V30 16 1 15 17
M  V30 17 1 16 18
M  V30 18 1 12 14
M  V30 19 2 17 18
M  V30 20 1 4 19
M  V30 21 1 7 20
M  V30 22 1 8 21
M  V30 23 1 9 22
M  V30 24 1 9 23
M  V30 25 1 10 24
M  V30 26 1 12 25
M  V30 27 1 13 26
M  V30 28 1 13 27
M  V30 29 1 13 28
M  V30 30 1 15 29
M  V30 31 1 16 30
M  V30 32 1 17 31
M  V30 33 1 18 32
M  V30 END BOND
M  V30 END CTAB
M  END
>  <Structure No>
8280

>  <LogS>
-3.1

>  <MMFF94 Energy>
-230.62

$$$$
Compound 8281
Actelion Java MolfileCreator 2.0

  0  0  0  0  0  0              0 V3000
M  V30 BEGIN CTAB
M  V30 COUNTS 34 34 0 0 0
M  V30 BEGIN ATOM
M  V30 1 O -1.9148 -1.5157 -0.957 0
M  V30 2 C -1.6581 -0.4664 -0.3069 0
M  V30 3 N -0.2973 -0.1477 0.0457 0
M  V30 4 C -2.7747 0.4122 0.1183 0
M  V30 5 C 0.9062 -0.7321 -0.5862 0
M  V30 6 C -4.0887 -0.09 0.1762 0
M  V30 7 C -2.5483 1.7627 0.4468 0
M  V30 8 C 2.1345 0.0996 -0.2249 0
M  V30 9 C 1.0803 -2.1759 -0.0737 0
M  V30 10 C 0.7737 -0.7158 -2.1232 0
M  V30 11 C -5.1464 0.7353 0.5702 0
M  V30 12 C -3.6103 2.5835 0.8394 0
M  V30 13 O 1.9896 1.2737 0.2161 0
M  V30 14 N 3.4629 -0.4 -0.4601 0
M  V30 15 C -4.9074 2.0701 0.9035 0
M  V30 16 C 4.6552 0.319 -0.0186 0
M  V30 17 C 4.781 0.2448 1.4692 0
M  V30 18 O 5.1517 -0.825 2.0195 0
M  V30 19 O 4.4548 1.3449 2.2524 0 CHG=-1
M  V30 20 H -0.1721 0.421 0.9137 0
M  V30 21 H -4.2972 -1.1228 -0.0736 0
M  V30 22 H -1.5578 2.1939 0.3822 0
M  V30 23 H 1.2951 -2.1719 1.0167 0
M  V30 24 H 1.9042 -2.7019 -0.5982 0
M  V30 25 H 0.1594 -2.7711 -0.2395 0
M  V30 26 H 1.7293 -1.0117 -2.6068 0
M  V30 27 H 0.5057 0.304 -2.474 0
M  V30 28 H 0.0012 -1.4272 -2.4777 0
M  V30 29 H -6.1527 0.339 0.6173 0
M  V30 30 H -3.4279 3.621 1.0887 0
M  V30 31 H 3.6007 -1.282 -1.0007 0
M  V30 32 H -5.7279 2.7076 1.2069 0
M  V30 33 H 4.6059 1.3783 -0.3511 0
M  V30 34 H 5.5567 -0.1389 -0.4798 0
M  V30 END ATOM
M  V30 BEGIN BOND
M  V30 1 2 1 2
M  V30 2 1 2 3
M  V30 3 1 2 4
M  V30 4 1 3 5
M  V30 5 2 4 6
M  V30 6 1 4 7
M  V30 7 1 5 8
M  V30 8 1 5 9
M  V30 9 1 5 10
M  V30 10 1 6 11
M  V30 11 2 7 12
M  V30 12 2 8 13
M  V30 13 1 8 14
M  V30 14 2 11 15
M  V30 15 1 14 16
M  V30 16 1 16 17
M  V30 17 2 17 18
M  V30 18 1 17 19
M  V30 19 1 12 15
M  V30 20 1 3 20
M  V30 21 1 6 21
M  V30 22 1 7 22
M  V30 23 1 9 23
M  V30 24 1 9 24
M  V30 25 1 9 25
M  V30 26 1 10 26
M  V30 27 1 10 27
M  V30 28 1 10 28
M  V30 29 1 11 29
M  V30 30 1 12 30
M  V30 31 1 14 31
M  V30 32 1 15 32
M  V30 33 1 16 33
M  V30 34 1 16 34
M  V30 END BOND
M  V30 END CTAB
M  END
>  <Structure No>
8281

>  <LogS>
-0.56

>  <MMFF94 Energy>
77.954

$$$$
Compound 8282
Actelion Java MolfileCreator 2.0

  0  0  0  0  0  0              0 V3000
M  V30 BEGIN CTAB
M  V30 COUNTS 27 28 0 0 0
M  V30 BEGIN ATOM
M  V30 1 Cl -5.6049 -1.2343 1.2343 0
M  V30 2 C -4.304 -0.3573 0.4323 0
M  V30 3 C -2.9369 -0.6271 0.6859 0
M  V30 4 C -4.6657 0.5968 -0.5239 0
M  V30 5 C -1.949 0.0779 -0.0457 0
M  V30 6 C -2.5381 -1.6303 1.7045 0
M  V30 7 C -3.6894 1.2877 -1.2372 0
M  V30 8 N -0.5577 -0.1605 0.2171 0
M  V30 9 C -2.3402 1.0312 -1.0039 0
M  V30 10 O -1.5332 -2.3661 1.5168 0
M  V30 11 O -3.2552 -1.7618 2.8875 0 CHG=-1
M  V30 12 N 0.37 0.4498 -0.4046 0
M  V30 13 C 1.7553 0.2046 -0.1354 0
M  V30 14 C 2.7224 0.9139 -0.8585 0
M  V30 15 C 2.1654 -0.7288 0.8345 0
M  V30 16 C 4.0831 0.6975 -0.6196 0
M  V30 17 C 3.5268 -0.9437 1.0717 0
M  V30 18 C 4.4885 -0.2326 0.3469 0
M  V30 19 O 5.841 -0.4569 0.5938 0
M  V30 20 H -5.7108 0.7982 -0.7233 0
M  V30 21 H -3.9799 2.0232 -1.9763 0
M  V30 22 H -1.6012 1.5837 -1.5698 0
M  V30 23 H 2.4197 1.6349 -1.6075 0
M  V30 24 H 1.4376 -1.2896 1.4067 0
M  V30 25 H 4.8203 1.2526 -1.1856 0
M  V30 26 H 3.8345 -1.6635 1.8196 0
M  V30 27 H 6.5617 0.042 0.0856 0
M  V30 END ATOM
M  V30 BEGIN BOND
M  V30 1 1 1 2
M  V30 2 2 2 3
M  V30 3 1 2 4
M  V30 4 1 3 5
M  V30 5 1 3 6
M  V30 6 2 4 7
M  V30 7 1 5 8
M  V30 8 2 5 9
M  V30 9 2 6 10
M  V30 10 1 6 11
M  V30 11 2 8 12
M  V30 12 1 12 13
M  V30 13 2 13 14
M  V30 14 1 13 15
M  V30 15 1 14 16
M  V30 16 2 15 17
M  V30 17 2 16 18
M  V30 18 1 18 19
M  V30 19 1 7 9
M  V30 20 1 17 18
M  V30 21 1 4 20
M  V30 22 1 7 21
M  V30 23 1 9 22
M  V30 24 1 14 23
M  V30 25 1 15 24
M  V30 26 1 16 25
M  V30 27 1 17 26
M  V30 28 1 19 27
M  V30 END BOND
M  V30 END CTAB
M  END
>  <Structure No>
8282

>  <LogS>
-3.0

>  <MMFF94 Energy>
25.14

$$$$
Compound 8283
Actelion Java MolfileCreator 2.0

  0  0  0  0  0  0              0 V3000
M  V30 BEGIN CTAB
M  V30 COUNTS 39 40 0 0 0
M  V30 BEGIN ATOM
M  V30 1 S -2.7275 -1.3217 -2.4793 0
M  V30 2 O -3.7977 -1.4241 -3.5287 0
M  V30 3 O -1.9667 -2.6172 -2.4313 0
M  V30 4 N -1.6403 -0.0396 -2.8906 0 CHG=-1
M  V30 5 C -3.4807 -0.9797 -0.9247 0
M  V30 6 C -0.6263 0.4084 -1.9924 0
M  V30 7 C -4.2146 0.2015 -0.7563 0
M  V30 8 C -3.3288 -1.8607 0.1554 0
M  V30 9 S 0.4355 1.6642 -2.3272 0
M  V30 10 N -0.4142 -0.1297 -0.7719 0
M  V30 11 C -4.7952 0.4995 0.48 0
M  V30 12 C -3.9092 -1.5626 1.3922 0
M  V30 13 C 1.2029 1.5355 -0.8324 0
M  V30 14 C 0.6055 0.4901 -0.1199 0
M  V30 15 C -4.6451 -0.3811 1.5605 0
M  V30 16 C 2.3847 2.3558 -0.4135 0
M  V30 17 C 1.0344 0.0535 1.2449 0
M  V30 18 N -5.2368 -0.0755 2.826 0
M  V30 19 C 3.6504 1.6718 -0.8148 0
M  V30 20 O 4.1186 1.8488 -1.9726 0
M  V30 21 O 4.2792 0.807 0.0844 0
M  V30 22 C 5.4588 0.0819 -0.2442 0
M  V30 23 C 5.8751 -0.7745 0.9405 0
M  V30 24 H -4.3321 0.8932 -1.581 0
M  V30 25 H -2.7586 -2.7737 0.0459 0
M  V30 26 H -5.3589 1.4166 0.5968 0
M  V30 27 H -3.7834 -2.2501 2.2191 0
M  V30 28 H 2.3751 2.5116 0.6855 0
M  V30 29 H 2.3315 3.356 -0.8941 0
M  V30 30 H 0.3722 -0.7576 1.6149 0
M  V30 31 H 0.9751 0.9077 1.951 0
M  V30 32 H 2.076 -0.3268 1.2086 0
M  V30 33 H -5.1308 -0.7253 3.6367 0
M  V30 34 H -5.7853 0.8029 2.9615 0
M  V30 35 H 6.2785 0.7906 -0.4922 0
M  V30 36 H 5.2644 -0.5734 -1.1206 0
M  V30 37 H 6.0804 -0.1295 1.8212 0
M  V30 38 H 6.7944 -1.3434 0.6877 0
M  V30 39 H 5.0649 -1.4908 1.1942 0
M  V30 END ATOM
M  V30 BEGIN BOND
M  V30 1 2 1 2
M  V30 2 2 1 3
M  V30 3 1 1 4
M  V30 4 1 1 5
M  V30 5 1 4 6
M  V30 6 2 5 7
M  V30 7 1 5 8
M  V30 8 1 6 9
M  V30 9 2 6 10
M  V30 10 1 7 11
M  V30 11 2 8 12
M  V30 12 1 9 13
M  V30 13 1 10 14
M  V30 14 2 11 15
M  V30 15 1 13 16
M  V30 16 1 14 17
M  V30 17 1 15 18
M  V30 18 1 16 19
M  V30 19 2 19 20
M  V30 20 1 19 21
M  V30 21 1 21 22
M  V30 22 1 22 23
M  V30 23 1 12 15
M  V30 24 2 13 14
M  V30 25 1 7 24
M  V30 26 1 8 25
M  V30 27 1 11 26
M  V30 28 1 12 27
M  V30 29 1 16 28
M  V30 30 1 16 29
M  V30 31 1 17 30
M  V30 32 1 17 31
M  V30 33 1 17 32
M  V30 34 1 18 33
M  V30 35 1 18 34
M  V30 36 1 22 35
M  V30 37 1 22 36
M  V30 38 1 23 37
M  V30 39 1 23 38
M  V30 40 1 23 39
M  V30 END BOND
M  V30 END CTAB
M  END
>  <Structure No>
8283

>  <LogS>
-2.88

>  <MMFF94 Energy>
53.111

$$$$
Compound 8284
Actelion Java MolfileCreator 2.0

  0  0  0  0  0  0              0 V3000
M  V30 BEGIN CTAB
M  V30 COUNTS 38 40 0 0 0
M  V30 BEGIN ATOM
M  V30 1 S 0.6501 2.6839 -0.4875 0
M  V30 2 O -0.0314 3.4671 -1.5742 0
M  V30 3 O 1.7925 3.4955 0.0559 0
M  V30 4 N -0.4835 2.3557 0.783 0
M  V30 5 C 1.2831 1.1722 -1.1387 0
M  V30 6 C -0.7722 1.0044 1.1655 0
M  V30 7 C 2.1809 0.4125 -0.3769 0
M  V30 8 C 0.8491 0.6898 -2.3805 0
M  V30 9 C -1.5582 0.1713 0.3336 0
M  V30 10 C -0.2231 0.4842 2.3576 0
M  V30 11 C 2.6394 -0.8194 -0.8501 0
M  V30 12 C 1.3094 -0.5411 -2.8555 0
M  V30 13 C -1.7568 -1.1868 0.6904 0
M  V30 14 C -2.1619 0.6604 -0.8413 0
M  V30 15 C -0.4558 -0.854 2.7057 0
M  V30 16 C 0.5954 1.3511 3.2749 0
M  V30 17 C 2.2045 -1.3031 -2.091 0
M  V30 18 C -1.2036 -1.6852 1.8738 0
M  V30 19 C -2.5154 -2.0268 -0.1404 0
M  V30 20 C -2.9115 -0.1877 -1.6596 0
M  V30 21 N 2.6689 -2.566 -2.5737 0
M  V30 22 C -3.0856 -1.5275 -1.3123 0
M  V30 23 H -0.6799 3.1238 1.4624 0
M  V30 24 H 2.5153 0.7702 0.5886 0
M  V30 25 H 0.1463 1.2574 -2.9762 0
M  V30 26 H 3.3276 -1.3997 -0.2468 0
M  V30 27 H 0.9603 -0.9071 -3.814 0
M  V30 28 H -2.0626 1.6967 -1.1342 0
M  V30 29 H -0.0495 -1.2599 3.6238 0
M  V30 30 H -0.0796 2.0142 3.8557 0
M  V30 31 H 1.1931 0.7412 3.9852 0
M  V30 32 H 1.3035 1.9746 2.6938 0
M  V30 33 H -1.3568 -2.7184 2.1619 0
M  V30 34 H -2.6712 -3.0677 0.1192 0
M  V30 35 H -3.3637 0.1973 -2.563 0
M  V30 36 H 2.3616 -2.9283 -3.5034 0
M  V30 37 H 3.3186 -3.151 -2.0047 0
M  V30 38 H -3.6705 -2.179 -1.9491 0
M  V30 END ATOM
M  V30 BEGIN BOND
M  V30 1 2 1 2
M  V30 2 2 1 3
M  V30 3 1 1 4
M  V30 4 1 1 5
M  V30 5 1 4 6
M  V30 6 2 5 7
M  V30 7 1 5 8
M  V30 8 1 6 9
M  V30 9 2 6 10
M  V30 10 1 7 11
M  V30 11 2 8 12
M  V30 12 1 9 13
M  V30 13 2 9 14
M  V30 14 1 10 15
M  V30 15 1 10 16
M  V30 16 2 11 17
M  V30 17 1 13 18
M  V30 18 2 13 19
M  V30 19 1 14 20
M  V30 20 1 17 21
M  V30 21 1 19 22
M  V30 22 1 12 17
M  V30 23 2 15 18
M  V30 24 2 20 22
M  V30 25 1 4 23
M  V30 26 1 7 24
M  V30 27 1 8 25
M  V30 28 1 11 26
M  V30 29 1 12 27
M  V30 30 1 14 28
M  V30 31 1 15 29
M  V30 32 1 16 30
M  V30 33 1 16 31
M  V30 34 1 16 32
M  V30 35 1 18 33
M  V30 36 1 19 34
M  V30 37 1 20 35
M  V30 38 1 21 36
M  V30 39 1 21 37
M  V30 40 1 22 38
M  V30 END BOND
M  V30 END CTAB
M  END
>  <Structure No>
8284

>  <LogS>
-4.5

>  <MMFF94 Energy>
16.375

$$$$
Compound 8285
Actelion Java MolfileCreator 2.0

  0  0  0  0  0  0              0 V3000
M  V30 BEGIN CTAB
M  V30 COUNTS 41 42 0 0 0
M  V30 BEGIN ATOM
M  V30 1 O -0.8735 0.1587 -0.7146 0
M  V30 2 C -1.086 -1.0411 -0.3856 0
M  V30 3 N -2.4344 -1.5284 -0.2821 0
M  V30 4 C 0.0815 -1.9986 -0.2253 0
M  V30 5 C -3.5898 -0.679 -0.1751 0
M  V30 6 O -0.2347 -3.0229 0.6926 0
M  V30 7 O 0.3669 -2.5831 -1.4705 0
M  V30 8 C 1.313 -1.2561 0.2504 0
M  V30 9 C -4.8153 -1.1148 -0.7005 0
M  V30 10 C -3.5352 0.553 0.5011 0
M  V30 11 O 1.5405 -1.1542 1.4874 0
M  V30 12 N 2.1605 -0.581 -0.6952 0
M  V30 13 C -5.9584 -0.3176 -0.5904 0
M  V30 14 C -4.6788 1.3498 0.6118 0
M  V30 15 C 3.4504 -0.034 -0.3718 0
M  V30 16 C -5.8926 0.9287 0.0492 0
M  V30 17 C 3.899 1.1127 -1.0433 0
M  V30 18 C 4.2968 -0.6534 0.565 0
M  V30 19 C -7.1275 1.766 0.2035 0
M  V30 20 C 5.1576 1.6526 -0.7628 0
M  V30 21 C 5.5558 -0.1138 0.8448 0
M  V30 22 C 5.9985 1.036 0.1749 0
M  V30 23 C 7.3329 1.6368 0.5038 0
M  V30 24 H -2.5903 -2.5582 -0.3687 0
M  V30 25 H -0.557 -2.5986 1.5316 0
M  V30 26 H -0.4009 -3.1667 -1.7088 0
M  V30 27 H -4.8826 -2.0723 -1.2015 0
M  V30 28 H -2.6193 0.8883 0.9687 0
M  V30 29 H 1.7787 -0.3986 -1.651 0
M  V30 30 H -6.8945 -0.6731 -1.003 0
M  V30 31 H -4.6191 2.2919 1.1429 0
M  V30 32 H 3.2654 1.5966 -1.776 0
M  V30 33 H 3.9973 -1.5646 1.0652 0
M  V30 34 H -7.6414 1.495 1.1494 0
M  V30 35 H -7.8226 1.6002 -0.6469 0
M  V30 36 H -6.8674 2.8456 0.2287 0
M  V30 37 H 5.4767 2.5497 -1.2788 0
M  V30 38 H 6.1891 -0.5986 1.5777 0
M  V30 39 H 7.2141 2.3702 1.3284 0
M  V30 40 H 8.0504 0.8498 0.8195 0
M  V30 41 H 7.7588 2.1538 -0.3823 0
M  V30 END ATOM
M  V30 BEGIN BOND
M  V30 1 2 1 2
M  V30 2 1 2 3
M  V30 3 1 2 4
M  V30 4 1 3 5
M  V30 5 1 4 6
M  V30 6 1 4 7
M  V30 7 1 4 8
M  V30 8 2 5 9
M  V30 9 1 5 10
M  V30 10 2 8 11
M  V30 11 1 8 12
M  V30 12 1 9 13
M  V30 13 2 10 14
M  V30 14 1 12 15
M  V30 15 2 13 16
M  V30 16 2 15 17
M  V30 17 1 15 18
M  V30 18 1 16 19
M  V30 19 1 17 20
M  V30 20 2 18 21
M  V30 21 2 20 22
M  V30 22 1 22 23
M  V30 23 1 14 16
M  V30 24 1 21 22
M  V30 25 1 3 24
M  V30 26 1 6 25
M  V30 27 1 7 26
M  V30 28 1 9 27
M  V30 29 1 10 28
M  V30 30 1 12 29
M  V30 31 1 13 30
M  V30 32 1 14 31
M  V30 33 1 17 32
M  V30 34 1 18 33
M  V30 35 1 19 34
M  V30 36 1 19 35
M  V30 37 1 19 36
M  V30 38 1 20 37
M  V30 39 1 21 38
M  V30 40 1 23 39
M  V30 41 1 23 40
M  V30 42 1 23 41
M  V30 END BOND
M  V30 END CTAB
M  END
>  <Structure No>
8285

>  <LogS>
-3.1

>  <MMFF94 Energy>
86.64

$$$$
Compound 8286
Actelion Java MolfileCreator 2.0

  0  0  0  0  0  0              0 V3000
M  V30 BEGIN CTAB
M  V30 COUNTS 53 54 0 0 0
M  V30 BEGIN ATOM
M  V30 1 O 3.1005 1.589 2.4638 0
M  V30 2 C 3.324 0.5482 1.7911 0
M  V30 3 O 3.296 -0.6897 2.4228 0 CHG=-1
M  V30 4 C 3.6726 0.6554 0.3271 0 CFG=2
M  V30 5 N 2.8142 -0.221 -0.5135 0 CHG=1
M  V30 6 C 5.1443 0.3173 0.154 0
M  V30 7 C 1.583 0.4385 -0.9972 0
M  V30 8 C 6.0823 1.3404 -0.078 0
M  V30 9 C 5.5989 -1.0119 0.2597 0
M  V30 10 C 0.5291 0.7063 0.0981 0
M  V30 11 C 7.44 1.0378 -0.2185 0
M  V30 12 C 6.9575 -1.3086 0.118 0
M  V30 13 C 8.0E-4 -0.5471 0.8242 0
M  V30 14 C 7.8771 -0.2852 -0.1221 0
M  V30 15 C -0.5992 -1.631 -0.0922 0
M  V30 16 C -1.7579 -1.1548 -0.9896 0
M  V30 17 N -2.9034 -0.6592 -0.2029 0 CHG=1
M  V30 18 C -4.074 -0.3691 -1.0617 0 CFG=2
M  V30 19 C -5.1094 0.4448 -0.3057 0
M  V30 20 C -4.7142 -1.6293 -1.5919 0
M  V30 21 C -5.5195 1.6982 -0.797 0
M  V30 22 C -5.6776 -0.0364 0.8902 0
M  V30 23 O -5.1442 -1.6652 -2.775 0
M  V30 24 O -4.8788 -2.7406 -0.7731 0 CHG=-1
M  V30 25 C -6.4721 2.453 -0.1056 0
M  V30 26 C -6.6299 0.7225 1.5771 0
M  V30 27 C -7.0264 1.9661 1.0803 0
M  V30 28 H 3.5272 1.7172 0.0198 0
M  V30 29 H 3.3475 -0.4878 -1.3751 0
M  V30 30 H 2.5825 -1.1173 -0.0281 0
M  V30 31 H 1.1236 -0.1847 -1.7946 0
M  V30 32 H 1.8377 1.4036 -1.4893 0
M  V30 33 H 5.7649 2.3732 -0.1497 0
M  V30 34 H 4.9029 -1.8184 0.451 0
M  V30 35 H -0.3264 1.242 -0.3645 0
M  V30 36 H 0.9431 1.4091 0.8488 0
M  V30 37 H 8.1543 1.8304 -0.4002 0
M  V30 38 H 7.2979 -2.3331 0.1968 0
M  V30 39 H 0.8175 -1.0035 1.4188 0
M  V30 40 H -0.763 -0.2303 1.5656 0
M  V30 41 H 8.9286 -0.517 -0.2307 0
M  V30 42 H 0.2012 -2.0577 -0.7329 0
M  V30 43 H -0.9641 -2.4646 0.5464 0
M  V30 44 H -2.069 -2.0234 -1.6108 0
M  V30 45 H -1.3998 -0.3675 -1.6878 0
M  V30 46 H -3.1534 -1.3583 0.535 0
M  V30 47 H -2.617 0.2303 0.2684 0
M  V30 48 H -3.7289 0.2275 -1.9387 0
M  V30 49 H -5.103 2.0941 -1.7148 0
M  V30 50 H -5.3874 -0.9984 1.2915 0
M  V30 51 H -6.7812 3.4164 -0.4901 0
M  V30 52 H -7.0615 0.3455 2.4955 0
M  V30 53 H -7.7639 2.552 1.6137 0
M  V30 END ATOM
M  V30 BEGIN BOND
M  V30 1 2 1 2
M  V30 2 1 2 3
M  V30 3 1 2 4
M  V30 4 1 4 5
M  V30 5 1 4 6
M  V30 6 1 5 7
M  V30 7 2 6 8
M  V30 8 1 6 9
M  V30 9 1 7 10
M  V30 10 1 8 11
M  V30 11 2 9 12
M  V30 12 1 10 13
M  V30 13 2 11 14
M  V30 14 1 13 15
M  V30 15 1 15 16
M  V30 16 1 16 17
M  V30 17 1 17 18
M  V30 18 1 18 19
M  V30 19 1 18 20
M  V30 20 2 19 21
M  V30 21 1 19 22
M  V30 22 2 20 23
M  V30 23 1 20 24
M  V30 24 1 21 25
M  V30 25 2 22 26
M  V30 26 2 25 27
M  V30 27 1 12 14
M  V30 28 1 26 27
M  V30 29 1 4 28
M  V30 30 1 5 29
M  V30 31 1 5 30
M  V30 32 1 7 31
M  V30 33 1 7 32
M  V30 34 1 8 33
M  V30 35 1 9 34
M  V30 36 1 10 35
M  V30 37 1 10 36
M  V30 38 1 11 37
M  V30 39 1 12 38
M  V30 40 1 13 39
M  V30 41 1 13 40
M  V30 42 1 14 41
M  V30 43 1 15 42
M  V30 44 1 15 43
M  V30 45 1 16 44
M  V30 46 1 16 45
M  V30 47 1 17 46
M  V30 48 1 17 47
M  V30 49 1 18 48
M  V30 50 1 21 49
M  V30 51 1 22 50
M  V30 52 1 25 51
M  V30 53 1 26 52
M  V30 54 1 27 53
M  V30 END BOND
M  V30 BEGIN COLLECTION
M  V30 MDLV30/STEABS ATOMS=(2 4 18)
M  V30 END COLLECTION
M  V30 END CTAB
M  END
>  <Structure No>
8286

>  <LogS>
-2.02

>  <MMFF94 Energy>
74.13

$$$$
Compound 8287
Actelion Java MolfileCreator 2.0

  0  0  0  0  0  0              0 V3000
M  V30 BEGIN CTAB
M  V30 COUNTS 31 33 0 0 0
M  V30 BEGIN ATOM
M  V30 1 O 4.9582 0.479 1.9171 0
M  V30 2 C 3.9346 0.3382 1.198 0
M  V30 3 N 4.0463 -0.0659 -0.1005 0
M  V30 4 C 2.6633 0.5853 1.6939 0
M  V30 5 C 2.9399 -0.2269 -0.8967 0
M  V30 6 N 2.2929 0.9793 2.9258 0
M  V30 7 C 1.5816 0.4249 0.8963 0
M  V30 8 N 1.6878 0.0193 -0.3959 0
M  V30 9 N 3.0999 -0.6541 -2.2489 0
M  V30 10 C 0.9374 1.0467 2.8239 0
M  V30 11 N 0.4677 0.7154 1.5926 0
M  V30 12 C -0.9423 0.6843 1.1838 0 CFG=1
M  V30 13 C -1.1791 1.515 -0.0277 0
M  V30 14 C -1.4047 -0.7269 0.7862 0
M  V30 15 C -1.8046 0.8419 -0.9782 0
M  V30 16 C -2.0691 -0.5765 -0.5975 0 CFG=2
M  V30 17 C -3.5809 -0.8504 -0.5624 0
M  V30 18 O -3.8315 -2.188 -0.224 0
M  V30 19 H 0.8457 -0.1076 -0.9972 0
M  V30 20 H 4.0524 -0.8429 -2.6326 0
M  V30 21 H 2.2698 -0.7827 -2.8691 0
M  V30 22 H 0.2994 1.336 3.6492 0
M  V30 23 H -1.5875 1.0729 2.0031 0
M  V30 24 H -0.9129 2.5635 -0.1122 0
M  V30 25 H -2.1044 -1.1299 1.5514 0
M  V30 26 H -0.5454 -1.4289 0.713 0
M  V30 27 H -2.0876 1.28 -1.9301 0
M  V30 28 H -1.5809 -1.2484 -1.3373 0
M  V30 29 H -4.0682 -0.1946 0.1915 0
M  V30 30 H -4.0338 -0.6187 -1.5538 0
M  V30 31 H -3.6134 -2.7296 -1.0268 0
M  V30 END ATOM
M  V30 BEGIN BOND
M  V30 1 2 1 2
M  V30 2 1 2 3
M  V30 3 1 2 4
M  V30 4 2 3 5
M  V30 5 1 4 6
M  V30 6 2 4 7
M  V30 7 1 5 8
M  V30 8 1 5 9
M  V30 9 2 6 10
M  V30 10 1 7 11
M  V30 11 1 11 12
M  V30 12 1 12 13
M  V30 13 1 12 14
M  V30 14 2 13 15
M  V30 15 1 14 16
M  V30 16 1 16 17
M  V30 17 1 17 18
M  V30 18 1 7 8
M  V30 19 1 10 11
M  V30 20 1 15 16
M  V30 21 1 8 19
M  V30 22 1 9 20
M  V30 23 1 9 21
M  V30 24 1 10 22
M  V30 25 1 12 23
M  V30 26 1 13 24
M  V30 27 1 14 25
M  V30 28 1 14 26
M  V30 29 1 15 27
M  V30 30 1 16 28
M  V30 31 1 17 29
M  V30 32 1 17 30
M  V30 33 1 18 31
M  V30 END BOND
M  V30 BEGIN COLLECTION
M  V30 MDLV30/STEABS ATOMS=(2 12 16)
M  V30 END COLLECTION
M  V30 END CTAB
M  END
>  <Structure No>
8287

>  <LogS>
-2.3

>  <MMFF94 Energy>
5.3628

$$$$
Compound 8288
Actelion Java MolfileCreator 2.0

  0  0  0  0  0  0              0 V3000
M  V30 BEGIN CTAB
M  V30 COUNTS 28 29 0 0 0
M  V30 BEGIN ATOM
M  V30 1 S 4.1413 0.422 1.2664 0
M  V30 2 O 5.3169 0.0739 0.3981 0
M  V30 3 O 4.5019 0.2002 2.7085 0
M  V30 4 N 3.715 2.0816 1.0349 0
M  V30 5 C 2.7802 -0.5966 0.8458 0
M  V30 6 O 2.3996 -1.6425 1.5446 0
M  V30 7 C 1.9609 -0.4199 -0.2493 0
M  V30 8 C 1.3516 -2.1762 0.9593 0
M  V30 9 C 1.0457 -1.4448 -0.1692 0
M  V30 10 S -0.287 -1.7298 -1.2699 0
M  V30 11 O -0.7936 -3.1349 -1.0999 0
M  V30 12 O 0.1861 -1.5658 -2.6871 0
M  V30 13 C -1.576 -0.5831 -0.925 0
M  V30 14 C -1.5847 0.6732 -1.5466 0
M  V30 15 C -2.5802 -0.9061 -0.0015 0
M  V30 16 C -2.5977 1.5931 -1.2581 0
M  V30 17 C -3.5927 0.0144 0.2863 0
M  V30 18 C -3.6044 1.2671 -0.3428 0
M  V30 19 O -4.6075 2.1928 -0.0643 0
M  V30 20 H 4.5238 2.6542 1.3655 0
M  V30 21 H 2.9178 2.2851 1.6787 0
M  V30 22 H 2.0184 0.3567 -1.0004 0
M  V30 23 H 0.824 -3.0484 1.3216 0
M  V30 24 H -0.807 0.9422 -2.2499 0
M  V30 25 H -2.5778 -1.8665 0.4978 0
M  V30 26 H -2.5992 2.5606 -1.7438 0
M  V30 27 H -4.3648 -0.2449 0.9994 0
M  V30 28 H -5.3497 1.987 0.5942 0
M  V30 END ATOM
M  V30 BEGIN BOND
M  V30 1 2 1 2
M  V30 2 2 1 3
M  V30 3 1 1 4
M  V30 4 1 1 5
M  V30 5 1 5 6
M  V30 6 2 5 7
M  V30 7 1 6 8
M  V30 8 1 7 9
M  V30 9 1 9 10
M  V30 10 2 10 11
M  V30 11 2 10 12
M  V30 12 1 10 13
M  V30 13 2 13 14
M  V30 14 1 13 15
M  V30 15 1 14 16
M  V30 16 2 15 17
M  V30 17 2 16 18
M  V30 18 1 18 19
M  V30 19 2 8 9
M  V30 20 1 17 18
M  V30 21 1 4 20
M  V30 22 1 4 21
M  V30 23 1 7 22
M  V30 24 1 8 23
M  V30 25 1 14 24
M  V30 26 1 15 25
M  V30 27 1 16 26
M  V30 28 1 17 27
M  V30 29 1 19 28
M  V30 END BOND
M  V30 END CTAB
M  END
>  <Structure No>
8288

>  <LogS>
-2.4

>  <MMFF94 Energy>
4.506

$$$$
Compound 8289
Actelion Java MolfileCreator 2.0

  0  0  0  0  0  0              0 V3000
M  V30 BEGIN CTAB
M  V30 COUNTS 28 29 0 0 0
M  V30 BEGIN ATOM
M  V30 1 S 4.3101 0.1721 -0.4304 0
M  V30 2 O 5.3405 -0.6211 -1.1833 0
M  V30 3 O 4.8941 0.6118 0.8822 0
M  V30 4 N 3.8611 1.5564 -1.363 0
M  V30 5 C 2.8991 -0.8258 -0.1363 0
M  V30 6 S 2.6108 -2.3293 -0.8288 0
M  V30 7 C 1.8285 -0.4863 0.6749 0
M  V30 8 C 1.1156 -2.5774 -0.0979 0
M  V30 9 C 0.8343 -1.4721 0.6979 0
M  V30 10 S -0.6529 -1.2992 1.6116 0
M  V30 11 O -0.3498 -0.7205 2.9655 0
M  V30 12 O -1.2925 -2.6457 1.8071 0
M  V30 13 C -1.7472 -0.239 0.7323 0
M  V30 14 C -1.686 1.1485 0.9221 0
M  V30 15 C -2.6595 -0.7728 -0.1883 0
M  V30 16 C -2.5406 1.9939 0.2078 0
M  V30 17 C -3.5138 0.0734 -0.902 0
M  V30 18 C -3.4568 1.4601 -0.7045 0
M  V30 19 O -4.3025 2.3135 -1.4095 0
M  V30 20 H 3.1262 2.0644 -0.8214 0
M  V30 21 H 3.4032 1.2027 -2.2326 0
M  V30 22 H 1.7643 0.4448 1.2228 0
M  V30 23 H 0.4803 -3.4422 -0.2337 0
M  V30 24 H -0.9755 1.5756 1.6184 0
M  V30 25 H -2.7072 -1.841 -0.3568 0
M  V30 26 H -2.4888 3.0643 0.3611 0
M  V30 27 H -4.2164 -0.3483 -1.6092 0
M  V30 28 H -4.9762 1.958 -2.0777 0
M  V30 END ATOM
M  V30 BEGIN BOND
M  V30 1 2 1 2
M  V30 2 2 1 3
M  V30 3 1 1 4
M  V30 4 1 1 5
M  V30 5 1 5 6
M  V30 6 2 5 7
M  V30 7 1 6 8
M  V30 8 1 7 9
M  V30 9 1 9 10
M  V30 10 2 10 11
M  V30 11 2 10 12
M  V30 12 1 10 13
M  V30 13 2 13 14
M  V30 14 1 13 15
M  V30 15 1 14 16
M  V30 16 2 15 17
M  V30 17 2 16 18
M  V30 18 1 18 19
M  V30 19 2 8 9
M  V30 20 1 17 18
M  V30 21 1 4 20
M  V30 22 1 4 21
M  V30 23 1 7 22
M  V30 24 1 8 23
M  V30 25 1 14 24
M  V30 26 1 15 25
M  V30 27 1 16 26
M  V30 28 1 17 27
M  V30 29 1 19 28
M  V30 END BOND
M  V30 END CTAB
M  END
>  <Structure No>
8289

>  <LogS>
-3.03

>  <MMFF94 Energy>
-6.5572

$$$$
Compound 8290
Actelion Java MolfileCreator 2.0

  0  0  0  0  0  0              0 V3000
M  V30 BEGIN CTAB
M  V30 COUNTS 31 32 0 0 0
M  V30 BEGIN ATOM
M  V30 1 S -4.2812 1.3416 -0.5868 0
M  V30 2 O -5.3004 1.7732 -1.6037 0
M  V30 3 O -3.7251 2.5532 0.1061 0
M  V30 4 N -5.0347 0.3005 0.5696 0
M  V30 5 C -2.9856 0.4819 -1.3927 0
M  V30 6 O -2.8063 0.4713 -2.6945 0
M  V30 7 C -2.0169 -0.2706 -0.7628 0
M  V30 8 C -1.7504 -0.2621 -2.9642 0
M  V30 9 C -1.2254 -0.7458 -1.7839 0
M  V30 10 S 0.1872 -1.7679 -1.6072 0
M  V30 11 O 0.9321 -1.8374 -2.911 0
M  V30 12 O -0.2412 -3.1566 -1.2237 0
M  V30 13 C 1.2417 -1.0901 -0.3716 0
M  V30 14 C 1.1379 -1.5179 0.9581 0
M  V30 15 C 2.1661 -0.0925 -0.7067 0
M  V30 16 C 1.9613 -0.9626 1.9416 0
M  V30 17 C 2.9905 0.4635 0.2763 0
M  V30 18 C 2.8933 0.0291 1.6127 0
M  V30 19 O 3.6967 0.5548 2.6354 0
M  V30 20 C 4.6815 1.5654 2.4444 0
M  V30 21 H -5.4352 -0.5056 0.0396 0
M  V30 22 H -5.8414 0.8263 0.9746 0
M  V30 23 H -1.9023 -0.4468 0.2986 0
M  V30 24 H -1.3686 -0.4451 -3.9597 0
M  V30 25 H 0.4173 -2.2767 1.2356 0
M  V30 26 H 2.2462 0.258 -1.7278 0
M  V30 27 H 1.8733 -1.3021 2.966 0
M  V30 28 H 3.696 1.2306 -0.0118 0
M  V30 29 H 5.4588 1.2116 1.7347 0
M  V30 30 H 5.1643 1.7896 3.4176 0
M  V30 31 H 4.2069 2.4933 2.0607 0
M  V30 END ATOM
M  V30 BEGIN BOND
M  V30 1 2 1 2
M  V30 2 2 1 3
M  V30 3 1 1 4
M  V30 4 1 1 5
M  V30 5 1 5 6
M  V30 6 2 5 7
M  V30 7 1 6 8
M  V30 8 1 7 9
M  V30 9 1 9 10
M  V30 10 2 10 11
M  V30 11 2 10 12
M  V30 12 1 10 13
M  V30 13 2 13 14
M  V30 14 1 13 15
M  V30 15 1 14 16
M  V30 16 2 15 17
M  V30 17 2 16 18
M  V30 18 1 18 19
M  V30 19 1 19 20
M  V30 20 2 8 9
M  V30 21 1 17 18
M  V30 22 1 4 21
M  V30 23 1 4 22
M  V30 24 1 7 23
M  V30 25 1 8 24
M  V30 26 1 14 25
M  V30 27 1 15 26
M  V30 28 1 16 27
M  V30 29 1 17 28
M  V30 30 1 20 29
M  V30 31 1 20 30
M  V30 32 1 20 31
M  V30 END BOND
M  V30 END CTAB
M  END
>  <Structure No>
8290

>  <LogS>
-3.02

>  <MMFF94 Energy>
19.346

$$$$
Compound 8291
Actelion Java MolfileCreator 2.0

  0  0  0  0  0  0              0 V3000
M  V30 BEGIN CTAB
M  V30 COUNTS 31 32 0 0 0
M  V30 BEGIN ATOM
M  V30 1 S -4.6157 -0.8536 -0.7682 0
M  V30 2 O -5.8366 -1.4197 -0.0987 0
M  V30 3 O -4.0845 -1.8444 -1.7647 0
M  V30 4 N -5.0429 0.6127 -1.5787 0
M  V30 5 C -3.3881 -0.5209 0.4374 0
M  V30 6 S -3.2037 -1.3526 1.8856 0
M  V30 7 C -2.4001 0.4458 0.3394 0
M  V30 8 C -1.8624 -0.4871 2.4178 0
M  V30 9 C -1.5516 0.4654 1.4532 0
M  V30 10 S -0.1909 1.5636 1.592 0
M  V30 11 O 0.214 1.6962 3.0339 0
M  V30 12 O -0.5857 2.9235 1.0871 0
M  V30 13 C 1.1538 0.935 0.6482 0
M  V30 14 C 2.0826 0.0667 1.2357 0
M  V30 15 C 1.2812 1.2712 -0.7053 0
M  V30 16 C 3.1396 -0.4499 0.4805 0
M  V30 17 C 2.3375 0.7551 -1.4613 0
M  V30 18 C 3.2748 -0.1064 -0.8786 0
M  V30 19 O 4.3167 -0.5976 -1.6791 0
M  V30 20 C 5.3356 -1.4795 -1.2195 0
M  V30 21 H -5.8208 0.3829 -2.237 0
M  V30 22 H -5.4382 1.2568 -0.8574 0
M  V30 23 H -2.2919 1.1081 -0.5097 0
M  V30 24 H -1.33 -0.6513 3.345 0
M  V30 25 H 1.9869 -0.2138 2.277 0
M  V30 26 H 0.5616 1.9285 -1.1767 0
M  V30 27 H 3.8428 -1.1163 0.9611 0
M  V30 28 H 2.427 1.0235 -2.5062 0
M  V30 29 H 6.0258 -1.7043 -2.0581 0
M  V30 30 H 5.914 -1.0013 -0.401 0
M  V30 31 H 4.8855 -2.4308 -0.8646 0
M  V30 END ATOM
M  V30 BEGIN BOND
M  V30 1 2 1 2
M  V30 2 2 1 3
M  V30 3 1 1 4
M  V30 4 1 1 5
M  V30 5 1 5 6
M  V30 6 2 5 7
M  V30 7 1 6 8
M  V30 8 1 7 9
M  V30 9 1 9 10
M  V30 10 2 10 11
M  V30 11 2 10 12
M  V30 12 1 10 13
M  V30 13 2 13 14
M  V30 14 1 13 15
M  V30 15 1 14 16
M  V30 16 2 15 17
M  V30 17 2 16 18
M  V30 18 1 18 19
M  V30 19 1 19 20
M  V30 20 2 8 9
M  V30 21 1 17 18
M  V30 22 1 4 21
M  V30 23 1 4 22
M  V30 24 1 7 23
M  V30 25 1 8 24
M  V30 26 1 14 25
M  V30 27 1 15 26
M  V30 28 1 16 27
M  V30 29 1 17 28
M  V30 30 1 20 29
M  V30 31 1 20 30
M  V30 32 1 20 31
M  V30 END BOND
M  V30 END CTAB
M  END
>  <Structure No>
8291

>  <LogS>
-4.22

>  <MMFF94 Energy>
8.9596

$$$$
Compound 8292
Actelion Java MolfileCreator 2.0

  0  0  0  0  0  0              0 V3000
M  V30 BEGIN CTAB
M  V30 COUNTS 28 29 0 0 0
M  V30 BEGIN ATOM
M  V30 1 S 4.1374 0.2582 -0.7748 0
M  V30 2 O 3.8597 1.5187 -1.5436 0
M  V30 3 O 5.1918 -0.5419 -1.4865 0
M  V30 4 N 4.7025 0.6573 0.8097 0
M  V30 5 C 2.6675 -0.6878 -0.6521 0
M  V30 6 S 2.1857 -1.8727 -1.7414 0
M  V30 7 C 1.7055 -0.5617 0.3373 0
M  V30 8 C 0.7422 -2.2518 -0.9643 0
M  V30 9 C 0.6319 -1.4436 0.1621 0
M  V30 10 S -0.7485 -1.4872 1.2434 0
M  V30 11 O -0.2818 -1.3402 2.6647 0
M  V30 12 O -1.4571 -2.8069 1.1147 0
M  V30 13 C -1.8457 -0.1763 0.8284 0
M  V30 14 C -2.8567 -0.3772 -0.1222 0
M  V30 15 C -1.691 1.0851 1.4201 0
M  V30 16 C -3.7173 0.6707 -0.4689 0
M  V30 17 C -2.5501 2.1324 1.0749 0
M  V30 18 O -4.7188 0.4545 -1.4125 0
M  V30 19 C -3.5629 1.927 0.1338 0
M  V30 20 H 5.6109 1.1596 0.6931 0
M  V30 21 H 4.9155 -0.2432 1.2941 0
M  V30 22 H 1.7733 0.1473 1.1523 0
M  V30 23 H 0.0219 -2.9896 -1.291 0
M  V30 24 H -2.9747 -1.3432 -0.5967 0
M  V30 25 H -0.9048 1.2589 2.1436 0
M  V30 26 H -2.4291 3.1046 1.5351 0
M  V30 27 H -5.3572 1.1925 -1.6854 0
M  V30 28 H -4.2235 2.7435 -0.1284 0
M  V30 END ATOM
M  V30 BEGIN BOND
M  V30 1 2 1 2
M  V30 2 2 1 3
M  V30 3 1 1 4
M  V30 4 1 1 5
M  V30 5 1 5 6
M  V30 6 2 5 7
M  V30 7 1 6 8
M  V30 8 1 7 9
M  V30 9 1 9 10
M  V30 10 2 10 11
M  V30 11 2 10 12
M  V30 12 1 10 13
M  V30 13 2 13 14
M  V30 14 1 13 15
M  V30 15 1 14 16
M  V30 16 2 15 17
M  V30 17 1 16 18
M  V30 18 2 16 19
M  V30 19 2 8 9
M  V30 20 1 17 19
M  V30 21 1 4 20
M  V30 22 1 4 21
M  V30 23 1 7 22
M  V30 24 1 8 23
M  V30 25 1 14 24
M  V30 26 1 15 25
M  V30 27 1 17 26
M  V30 28 1 18 27
M  V30 29 1 19 28
M  V30 END BOND
M  V30 END CTAB
M  END
>  <Structure No>
8292

>  <LogS>
-2.72

>  <MMFF94 Energy>
-12.676

$$$$
Compound 8293
Actelion Java MolfileCreator 2.0

  0  0  0  0  0  0              0 V3000
M  V30 BEGIN CTAB
M  V30 COUNTS 51 53 0 0 0
M  V30 BEGIN ATOM
M  V30 1 O 0.7987 0.3194 0.7987 0
M  V30 2 C 0.265 -0.7768 0.4701 0
M  V30 3 O -1.1261 -0.912 0.4631 0
M  V30 4 N 1.0787 -1.9001 0.1145 0
M  V30 5 C -2.0026 0.1289 0.8826 0
M  V30 6 C 2.5374 -1.8421 0.1031 0
M  V30 7 C -3.4593 -0.3007 0.673 0
M  V30 8 C 3.0326 -1.1665 -1.1815 0
M  V30 9 C -4.4138 0.7507 1.1772 0
M  V30 10 C -3.8325 -0.325 -0.7885 0
M  V30 11 C 4.5658 -1.1182 -1.2619 0
M  V30 12 C -5.1808 1.2746 0.1534 0
M  V30 13 C -4.5924 1.1858 2.4925 0
M  V30 14 C -4.818 0.6025 -1.0739 0
M  V30 15 C -3.3305 -1.1579 -1.7918 0
M  V30 16 C 5.1645 -0.0336 -0.3503 0
M  V30 17 C -6.144 2.257 0.3843 0
M  V30 18 C -5.5543 2.1768 2.7497 0
M  V30 19 C -5.3345 0.7536 -2.3602 0
M  V30 20 C -3.8314 -1.0197 -3.0965 0
M  V30 21 C 6.6918 0.1225 -0.5387 0 CFG=2
M  V30 22 C -6.3253 2.7119 1.6995 0
M  V30 23 C -4.8278 -0.0663 -3.3798 0
M  V30 24 N 7.4217 -1.0618 -0.0654 0 CHG=1
M  V30 25 C 7.1707 1.3451 0.1966 0
M  V30 26 O 7.7775 2.2603 -0.4238 0
M  V30 27 O 6.9749 1.4594 1.5672 0 CHG=-1
M  V30 28 H 0.6103 -2.8129 -0.0885 0
M  V30 29 H -1.8266 0.3325 1.961 0
M  V30 30 H -1.7903 1.0576 0.3062 0
M  V30 31 H 2.9388 -2.8781 0.1472 0
M  V30 32 H 2.8939 -1.301 1.0059 0
M  V30 33 H -3.6697 -1.2809 1.1528 0
M  V30 34 H 2.6145 -0.1392 -1.2632 0
M  V30 35 H 2.6546 -1.7502 -2.0488 0
M  V30 36 H 4.8523 -0.9013 -2.3125 0
M  V30 37 H 4.976 -2.1153 -0.9987 0
M  V30 38 H -4.0041 0.7682 3.299 0
M  V30 39 H -2.574 -1.898 -1.5722 0
M  V30 40 H 4.6821 0.9392 -0.5948 0
M  V30 41 H 4.9506 -0.2737 0.7127 0
M  V30 42 H -6.7411 2.6563 -0.4244 0
M  V30 43 H -5.7056 2.5296 3.7611 0
M  V30 44 H -6.1092 1.4781 -2.57 0
M  V30 45 H -3.4535 -1.6531 -3.8882 0
M  V30 46 H 6.904 0.2637 -1.6247 0
M  V30 47 H -7.0662 3.4724 1.9083 0
M  V30 48 H -5.2104 0.0291 -4.3874 0
M  V30 49 H 8.4521 -0.8751 -0.0749 0
M  V30 50 H 7.2447 -1.8683 -0.7034 0
M  V30 51 H 7.1332 -1.3174 0.908 0
M  V30 END ATOM
M  V30 BEGIN BOND
M  V30 1 2 1 2
M  V30 2 1 2 3
M  V30 3 1 2 4
M  V30 4 1 3 5
M  V30 5 1 4 6
M  V30 6 1 5 7
M  V30 7 1 6 8
M  V30 8 1 7 9
M  V30 9 1 7 10
M  V30 10 1 8 11
M  V30 11 2 9 12
M  V30 12 1 9 13
M  V30 13 2 10 14
M  V30 14 1 10 15
M  V30 15 1 11 16
M  V30 16 1 12 17
M  V30 17 2 13 18
M  V30 18 1 14 19
M  V30 19 2 15 20
M  V30 20 1 16 21
M  V30 21 2 17 22
M  V30 22 2 19 23
M  V30 23 1 21 24
M  V30 24 1 21 25
M  V30 25 2 25 26
M  V30 26 1 25 27
M  V30 27 1 12 14
M  V30 28 1 18 22
M  V30 29 1 20 23
M  V30 30 1 4 28
M  V30 31 1 5 29
M  V30 32 1 5 30
M  V30 33 1 6 31
M  V30 34 1 6 32
M  V30 35 1 7 33
M  V30 36 1 8 34
M  V30 37 1 8 35
M  V30 38 1 11 36
M  V30 39 1 11 37
M  V30 40 1 13 38
M  V30 41 1 15 39
M  V30 42 1 16 40
M  V30 43 1 16 41
M  V30 44 1 17 42
M  V30 45 1 18 43
M  V30 46 1 19 44
M  V30 47 1 20 45
M  V30 48 1 21 46
M  V30 49 1 22 47
M  V30 50 1 23 48
M  V30 51 1 24 49
M  V30 52 1 24 50
M  V30 53 1 24 51
M  V30 END BOND
M  V30 BEGIN COLLECTION
M  V30 MDLV30/STEABS ATOMS=(1 21)
M  V30 END COLLECTION
M  V30 END CTAB
M  END
>  <Structure No>
8293

>  <LogS>
-3.0

>  <MMFF94 Energy>
-12.371

$$$$
Compound 8294
Actelion Java MolfileCreator 2.0

  0  0  0  0  0  0              0 V3000
M  V30 BEGIN CTAB
M  V30 COUNTS 44 47 0 0 0
M  V30 BEGIN ATOM
M  V30 1 N 3.2824 0.3998 0.7198 0 CHG=1
M  V30 2 C 2.8106 1.6319 0.0636 0
M  V30 3 C 3.09 -0.7699 -0.1654 0
M  V30 4 C 4.7006 0.5277 1.0974 0
M  V30 5 C 1.2822 1.6279 -0.0144 0
M  V30 6 C 1.7083 -0.8022 -0.875 0
M  V30 7 C 0.7315 0.2737 -0.418 0
M  V30 8 C -0.6108 0.0494 -0.4004 0
M  V30 9 C -1.2037 -1.2534 -0.7494 0
M  V30 10 C -1.573 1.0577 0.083 0
M  V30 11 C -1.8597 -2.0295 0.2337 0
M  V30 12 C -1.1429 -1.7115 -2.0762 0
M  V30 13 C -2.2985 0.8407 1.276 0
M  V30 14 C -1.8079 2.218 -0.6721 0
M  V30 15 C -1.9395 -1.6216 1.6589 0
M  V30 16 C -2.3933 -3.2787 -0.1271 0
M  V30 17 C -1.6966 -2.9458 -2.4213 0
M  V30 18 C -2.1214 -0.3711 2.1143 0
M  V30 19 C -3.1856 1.8345 1.7264 0
M  V30 20 C -2.7119 3.1831 -0.2233 0
M  V30 21 C -2.3185 -3.7295 -1.4476 0
M  V30 22 C -3.3945 2.995 0.9779 0
M  V30 23 H 2.7349 0.2451 1.6006 0
M  V30 24 H 3.2375 1.7212 -0.9624 0
M  V30 25 H 3.1258 2.5324 0.639 0
M  V30 26 H 3.8876 -0.8054 -0.9471 0
M  V30 27 H 3.2004 -1.7012 0.4418 0
M  V30 28 H 5.3341 0.7698 0.2144 0
M  V30 29 H 5.0692 -0.4172 1.5529 0
M  V30 30 H 4.8257 1.3319 1.855 0
M  V30 31 H 0.8845 1.8944 0.9896 0
M  V30 32 H 0.961 2.4056 -0.7404 0
M  V30 33 H 1.8609 -0.668 -1.9717 0
M  V30 34 H 1.2862 -1.8231 -0.7297 0
M  V30 35 H -0.6628 -1.1118 -2.8409 0
M  V30 36 H -1.2898 2.3746 -1.6101 0
M  V30 37 H -1.9481 -2.4164 2.3945 0
M  V30 38 H -2.8822 -3.902 0.6132 0
M  V30 39 H -1.6456 -3.295 -3.4446 0
M  V30 40 H -2.2636 -0.2552 3.1816 0
M  V30 41 H -3.7331 1.702 2.6517 0
M  V30 42 H -2.8831 4.0776 -0.8071 0
M  V30 43 H -2.7446 -4.6875 -1.7158 0
M  V30 44 H -4.0912 3.7469 1.3277 0
M  V30 END ATOM
M  V30 BEGIN BOND
M  V30 1 1 1 2
M  V30 2 1 1 3
M  V30 3 1 1 4
M  V30 4 1 2 5
M  V30 5 1 3 6
M  V30 6 1 5 7
M  V30 7 2 7 8
M  V30 8 1 8 9
M  V30 9 1 8 10
M  V30 10 2 9 11
M  V30 11 1 9 12
M  V30 12 2 10 13
M  V30 13 1 10 14
M  V30 14 1 11 15
M  V30 15 1 11 16
M  V30 16 2 12 17
M  V30 17 1 13 18
M  V30 18 1 13 19
M  V30 19 2 14 20
M  V30 20 2 16 21
M  V30 21 2 19 22
M  V30 22 1 6 7
M  V30 23 2 15 18
M  V30 24 1 17 21
M  V30 25 1 20 22
M  V30 26 1 1 23
M  V30 27 1 2 24
M  V30 28 1 2 25
M  V30 29 1 3 26
M  V30 30 1 3 27
M  V30 31 1 4 28
M  V30 32 1 4 29
M  V30 33 1 4 30
M  V30 34 1 5 31
M  V30 35 1 5 32
M  V30 36 1 6 33
M  V30 37 1 6 34
M  V30 38 1 12 35
M  V30 39 1 14 36
M  V30 40 1 15 37
M  V30 41 1 16 38
M  V30 42 1 17 39
M  V30 43 1 18 40
M  V30 44 1 19 41
M  V30 45 1 20 42
M  V30 46 1 21 43
M  V30 47 1 22 44
M  V30 END BOND
M  V30 END CTAB
M  END
>  <Structure No>
8294

>  <LogS>
-3.09

>  <MMFF94 Energy>
115.03

$$$$
Compound 8295
Actelion Java MolfileCreator 2.0

  0  0  0  0  0  0              0 V3000
M  V30 BEGIN CTAB
M  V30 COUNTS 45 46 0 0 0
M  V30 BEGIN ATOM
M  V30 1 S 6.8074 -0.6626 -0.9112 0
M  V30 2 O 8.132 -1.1941 -0.4399 0
M  V30 3 O 7.0451 0.5539 -1.7608 0
M  V30 4 N 5.9984 -1.8742 -1.8411 0
M  V30 5 C 5.8247 -0.2252 0.4731 0
M  V30 6 S 6.023 -0.8234 2.0306 0
M  V30 7 C 4.7394 0.6362 0.4517 0
M  V30 8 C 4.7311 0.0151 2.7086 0
M  V30 9 C 4.1327 0.7721 1.7065 0
M  V30 10 S 2.7212 1.7799 1.9711 0
M  V30 11 O 2.9975 3.1719 1.4756 0
M  V30 12 O 2.4081 1.8533 3.4398 0
M  V30 13 C 1.3515 1.0879 1.1104 0
M  V30 14 C 1.0772 1.4776 -0.2067 0
M  V30 15 C 0.5513 0.1165 1.7259 0
M  V30 16 C 0.0021 0.9123 -0.8981 0
M  V30 17 C -0.5244 -0.4494 1.0359 0
M  V30 18 C -0.8094 -0.0533 -0.2811 0
M  V30 19 C -1.9765 -0.6547 -1.0297 0
M  V30 20 N -3.094 0.2983 -1.1687 0 CHG=1
M  V30 21 C -3.8348 0.5143 0.0986 0
M  V30 22 C -5.224 -0.1724 0.1495 0
M  V30 23 C -6.2203 0.441 -0.8458 0
M  V30 24 C -5.1356 -1.6941 -0.0199 0
M  V30 25 H 5.807 -2.675 -1.1978 0
M  V30 26 H 5.0704 -1.4797 -2.1151 0
M  V30 27 H 4.3935 1.1421 -0.4402 0
M  V30 28 H 4.4178 -0.0346 3.7427 0
M  V30 29 H 1.6974 2.2147 -0.7007 0
M  V30 30 H 0.7618 -0.2055 2.7378 0
M  V30 31 H -0.1967 1.2247 -1.9158 0
M  V30 32 H -1.1337 -1.1968 1.5289 0
M  V30 33 H -1.6233 -0.9529 -2.0419 0
M  V30 34 H -2.3209 -1.5903 -0.5372 0
M  V30 35 H -3.7247 -0.053 -1.9231 0
M  V30 36 H -2.7218 1.2165 -1.5081 0
M  V30 37 H -3.2469 0.1763 0.9799 0
M  V30 38 H -3.9852 1.6068 0.2539 0
M  V30 39 H -5.6337 0.0159 1.1673 0
M  V30 40 H -7.2396 0.0449 -0.6486 0
M  V30 41 H -6.2531 1.5452 -0.7274 0
M  V30 42 H -5.9552 0.1989 -1.8955 0
M  V30 43 H -4.4276 -2.1209 0.7221 0
M  V30 44 H -6.1326 -2.1522 0.1542 0
M  V30 45 H -4.8 -1.9671 -1.0421 0
M  V30 END ATOM
M  V30 BEGIN BOND
M  V30 1 2 1 2
M  V30 2 2 1 3
M  V30 3 1 1 4
M  V30 4 1 1 5
M  V30 5 1 5 6
M  V30 6 2 5 7
M  V30 7 1 6 8
M  V30 8 1 7 9
M  V30 9 1 9 10
M  V30 10 2 10 11
M  V30 11 2 10 12
M  V30 12 1 10 13
M  V30 13 2 13 14
M  V30 14 1 13 15
M  V30 15 1 14 16
M  V30 16 2 15 17
M  V30 17 2 16 18
M  V30 18 1 18 19
M  V30 19 1 19 20
M  V30 20 1 20 21
M  V30 21 1 21 22
M  V30 22 1 22 23
M  V30 23 1 22 24
M  V30 24 2 8 9
M  V30 25 1 17 18
M  V30 26 1 4 25
M  V30 27 1 4 26
M  V30 28 1 7 27
M  V30 29 1 8 28
M  V30 30 1 14 29
M  V30 31 1 15 30
M  V30 32 1 16 31
M  V30 33 1 17 32
M  V30 34 1 19 33
M  V30 35 1 19 34
M  V30 36 1 20 35
M  V30 37 1 20 36
M  V30 38 1 21 37
M  V30 39 1 21 38
M  V30 40 1 22 39
M  V30 41 1 23 40
M  V30 42 1 23 41
M  V30 43 1 23 42
M  V30 44 1 24 43
M  V30 45 1 24 44
M  V30 46 1 24 45
M  V30 END BOND
M  V30 END CTAB
M  END
>  <Structure No>
8295

>  <LogS>
-1.16

>  <MMFF94 Energy>
5.9128

$$$$
Compound 8296
Actelion Java MolfileCreator 2.0

  0  0  0  0  0  0              0 V3000
M  V30 BEGIN CTAB
M  V30 COUNTS 19 19 0 0 0
M  V30 BEGIN ATOM
M  V30 1 Cl -3.315 0.5095 -2.1241 0
M  V30 2 N -3.4337 -0.9892 -1.2445 0 CHG=-1
M  V30 3 S -2.7678 -0.732 0.3322 0
M  V30 4 O -3.5197 0.3709 1.0246 0
M  V30 5 O -2.9106 -1.9896 1.1422 0
M  V30 6 C -1.0601 -0.3176 0.2032 0
M  V30 7 C -0.1206 -1.3167 -0.082 0
M  V30 8 C -0.6344 1.0093 0.3563 0
M  V30 9 C 1.235 -0.9959 -0.1995 0
M  V30 10 C 0.7211 1.3312 0.2388 0
M  V30 11 C 1.6664 0.3278 -0.0236 0
M  V30 12 C 3.115 0.6791 -0.1897 0
M  V30 13 H -0.4388 -2.3425 -0.219 0
M  V30 14 H -1.3494 1.7964 0.5586 0
M  V30 15 H 1.9472 -1.7789 -0.4285 0
M  V30 16 H 1.0329 2.3624 0.351 0
M  V30 17 H 3.7617 -0.1712 0.1147 0
M  V30 18 H 3.3157 0.9242 -1.2536 0
M  V30 19 H 3.3806 1.5548 0.4402 0
M  V30 END ATOM
M  V30 BEGIN BOND
M  V30 1 1 1 2
M  V30 2 1 2 3
M  V30 3 2 3 4
M  V30 4 2 3 5
M  V30 5 1 3 6
M  V30 6 2 6 7
M  V30 7 1 6 8
M  V30 8 1 7 9
M  V30 9 2 8 10
M  V30 10 2 9 11
M  V30 11 1 11 12
M  V30 12 1 10 11
M  V30 13 1 7 13
M  V30 14 1 8 14
M  V30 15 1 9 15
M  V30 16 1 10 16
M  V30 17 1 12 17
M  V30 18 1 12 18
M  V30 19 1 12 19
M  V30 END BOND
M  V30 END CTAB
M  END
>  <Structure No>
8296

>  <LogS>
-0.36

>  <MMFF94 Energy>
81.104

$$$$
Compound 8297
Actelion Java MolfileCreator 2.0

  0  0  0  0  0  0              0 V3000
M  V30 BEGIN CTAB
M  V30 COUNTS 21 21 0 0 0
M  V30 BEGIN ATOM
M  V30 1 Cl 2.479 -2.9754 0.7432 0
M  V30 2 C 1.0963 -1.9087 0.5407 0
M  V30 3 C 1.2332 -0.5227 0.7251 0
M  V30 4 C -0.1382 -2.4632 0.1984 0
M  V30 5 O 2.5099 -0.042 1.0734 0
M  V30 6 C 0.0971 0.3104 0.5554 0
M  V30 7 C -1.2551 -1.6461 0.0281 0
M  V30 8 C 2.8694 1.3165 1.2982 0
M  V30 9 O 0.1906 1.6899 0.7422 0
M  V30 10 C -1.141 -0.2594 0.1964 0
M  V30 11 Cl -2.7986 -2.3777 -0.3852 0
M  V30 12 O -2.2614 0.5546 0.0192 0
M  V30 13 C -2.6046 1.0695 -1.2607 0
M  V30 14 H -0.2297 -3.5342 0.0659 0
M  V30 15 H 2.2977 1.7289 2.1559 0
M  V30 16 H 2.6981 1.9167 0.3799 0
M  V30 17 H 3.9492 1.3647 1.547 0
M  V30 18 H -0.6039 2.3099 0.6438 0
M  V30 19 H -2.8 0.2366 -1.9684 0
M  V30 20 H -1.7784 1.7008 -1.6507 0
M  V30 21 H -3.5203 1.6889 -1.1712 0
M  V30 END ATOM
M  V30 BEGIN BOND
M  V30 1 1 1 2
M  V30 2 2 2 3
M  V30 3 1 2 4
M  V30 4 1 3 5
M  V30 5 1 3 6
M  V30 6 2 4 7
M  V30 7 1 5 8
M  V30 8 1 6 9
M  V30 9 2 6 10
M  V30 10 1 7 11
M  V30 11 1 10 12
M  V30 12 1 12 13
M  V30 13 1 7 10
M  V30 14 1 4 14
M  V30 15 1 8 15
M  V30 16 1 8 16
M  V30 17 1 8 17
M  V30 18 1 9 18
M  V30 19 1 13 19
M  V30 20 1 13 20
M  V30 21 1 13 21
M  V30 END BOND
M  V30 END CTAB
M  END
>  <Structure No>
8297

>  <LogS>
-2.96

>  <MMFF94 Energy>
52.93

$$$$
Compound 8298
Actelion Java MolfileCreator 2.0

  0  0  0  0  0  0              0 V3000
M  V30 BEGIN CTAB
M  V30 COUNTS 41 44 0 0 0
M  V30 BEGIN ATOM
M  V30 1 O -0.1623 1.7864 0.9741 0
M  V30 2 C 0.4772 0.5062 1.0883 0 CFG=2
M  V30 3 C -1.54 1.7413 0.6034 0 CFG=1
M  V30 4 C 1.9461 0.7817 1.3352 0
M  V30 5 C 0.2196 -0.4541 -0.1475 0 CFG=1
M  V30 6 C -1.6696 1.0865 -0.7321 0 CFG=2
M  V30 7 C -2.3563 0.7683 1.4631 0
M  V30 8 C 2.9053 0.6456 0.3967 0
M  V30 9 C -1.3371 -0.3795 -0.5256 0 CFG=2
M  V30 10 C 1.1277 0.0689 -1.3121 0
M  V30 11 C 0.6401 -1.9499 0.1434 0
M  V30 12 O -1.2754 1.7841 -1.8854 0
M  V30 13 C -2.6706 1.5959 -1.702 0
M  V30 14 C -2.2934 -0.5919 0.7119 0 CFG=1
M  V30 15 C 2.6191 0.0331 -0.9548 0
M  V30 16 C 4.3254 1.0021 0.7442 0
M  V30 17 C -1.7296 -1.2899 -1.7171 0
M  V30 18 O 1.621 -2.0449 1.1426 0
M  V30 19 O -1.8842 -1.6089 1.5852 0
M  V30 20 H 0.1237 0.0038 2.0128 0
M  V30 21 H -1.9699 2.766 0.6299 0
M  V30 22 H 2.2122 1.2027 2.3019 0
M  V30 23 H -1.9675 0.7128 2.5032 0
M  V30 24 H -3.4127 1.1151 1.5167 0
M  V30 25 H 0.9112 1.1273 -1.5444 0
M  V30 26 H 0.9725 -0.5194 -2.2403 0
M  V30 27 H -0.2094 -2.5986 0.4221 0
M  V30 28 H 1.0307 -2.4236 -0.7863 0
M  V30 29 H -3.1615 2.5641 -1.4713 0
M  V30 30 H -3.0672 0.9225 -2.4888 0
M  V30 31 H -3.321 -0.8231 0.338 0
M  V30 32 H 3.1816 0.5878 -1.737 0
M  V30 33 H 2.9937 -1.0114 -0.963 0
M  V30 34 H 4.3994 2.091 0.9531 0
M  V30 35 H 5.0127 0.7593 -0.0943 0
M  V30 36 H 4.6515 0.4321 1.6407 0
M  V30 37 H -2.8272 -1.2833 -1.8844 0
M  V30 38 H -1.2441 -0.9489 -2.655 0
M  V30 39 H -1.4429 -2.3439 -1.5318 0
M  V30 40 H 1.8101 -3.0122 1.2615 0
M  V30 41 H -2.6734 -1.85 2.1357 0
M  V30 END ATOM
M  V30 BEGIN BOND
M  V30 1 1 1 2
M  V30 2 1 1 3
M  V30 3 1 2 4
M  V30 4 1 2 5
M  V30 5 1 3 6
M  V30 6 1 3 7
M  V30 7 2 4 8
M  V30 8 1 5 9
M  V30 9 1 5 10
M  V30 10 1 5 11
M  V30 11 1 6 12
M  V30 12 1 6 13
M  V30 13 1 7 14
M  V30 14 1 8 15
M  V30 15 1 8 16
M  V30 16 1 9 17
M  V30 17 1 11 18
M  V30 18 1 14 19
M  V30 19 1 6 9
M  V30 20 1 9 14
M  V30 21 1 10 15
M  V30 22 1 12 13
M  V30 23 1 2 20
M  V30 24 1 3 21
M  V30 25 1 4 22
M  V30 26 1 7 23
M  V30 27 1 7 24
M  V30 28 1 10 25
M  V30 29 1 10 26
M  V30 30 1 11 27
M  V30 31 1 11 28
M  V30 32 1 13 29
M  V30 33 1 13 30
M  V30 34 1 14 31
M  V30 35 1 15 32
M  V30 36 1 15 33
M  V30 37 1 16 34
M  V30 38 1 16 35
M  V30 39 1 16 36
M  V30 40 1 17 37
M  V30 41 1 17 38
M  V30 42 1 17 39
M  V30 43 1 18 40
M  V30 44 1 19 41
M  V30 END BOND
M  V30 BEGIN COLLECTION
M  V30 MDLV30/STEABS ATOMS=(6 2 3 5 6 9 14)
M  V30 END COLLECTION
M  V30 END CTAB
M  END
>  <Structure No>
8298

>  <LogS>
-2.61

>  <MMFF94 Energy>
79.482

$$$$
Compound 8299
Actelion Java MolfileCreator 2.0

  0  0  0  0  0  0              0 V3000
M  V30 BEGIN CTAB
M  V30 COUNTS 47 49 0 0 0
M  V30 BEGIN ATOM
M  V30 1 F 2.4923 2.3314 -1.2857 0
M  V30 2 C 1.3075 1.7554 -0.96 0
M  V30 3 C 1.2707 0.4846 -0.3833 0
M  V30 4 C 0.1233 2.4355 -1.2198 0
M  V30 5 N 2.4889 -0.2483 -0.1648 0
M  V30 6 C 0.0387 -0.0701 -0.0118 0
M  V30 7 C -1.1213 1.8766 -0.8679 0
M  V30 8 C 3.3681 -0.5846 -1.2893 0
M  V30 9 C 2.7961 -0.7719 1.1715 0
M  V30 10 C -1.1797 0.636 -0.1697 0
M  V30 11 C -2.3098 2.5216 -1.2345 0
M  V30 12 C 4.8444 -0.2988 -0.9407 0
M  V30 13 C 4.2564 -1.2355 1.2479 0
M  V30 14 N -2.4049 0.1501 0.2869 0
M  V30 15 O -2.2685 3.6348 -1.8297 0
M  V30 16 C -3.5398 1.9096 -0.9685 0
M  V30 17 N 5.1215 -0.3034 0.5117 0 CHG=1
M  V30 18 C -3.5494 0.7156 -0.2354 0
M  V30 19 C -2.5467 -0.9614 1.31 0
M  V30 20 C -4.8301 2.4961 -1.4285 0
M  V30 21 C -1.4725 -0.8486 2.442 0
M  V30 22 C -2.4714 -2.3335 0.6053 0
M  V30 23 C -3.9214 -0.9153 2.0536 0
M  V30 24 O -4.8539 3.5202 -2.1616 0
M  V30 25 O -6.0386 1.9165 -1.0582 0 CHG=-1
M  V30 26 H 0.1843 3.3978 -1.7138 0
M  V30 27 H 0.0653 -1.081 0.3327 0
M  V30 28 H 3.0835 -0.0271 -2.2081 0
M  V30 29 H 3.249 -1.6665 -1.5154 0
M  V30 30 H 2.6386 0.0336 1.9218 0
M  V30 31 H 2.1222 -1.62 1.4164 0
M  V30 32 H 5.1273 0.6923 -1.3603 0
M  V30 33 H 5.4826 -1.0564 -1.4483 0
M  V30 34 H 4.5716 -1.2821 2.3137 0
M  V30 35 H 4.3519 -2.2601 0.8228 0
M  V30 36 H 4.9923 0.663 0.8952 0
M  V30 37 H 6.1199 -0.5767 0.6664 0
M  V30 38 H -4.5117 0.2618 -0.0759 0
M  V30 39 H -0.6018 -1.513 2.2801 0
M  V30 40 H -1.8533 -1.1628 3.4374 0
M  V30 41 H -1.1289 0.2011 2.5578 0
M  V30 42 H -3.3086 -2.4367 -0.1179 0
M  V30 43 H -2.5459 -3.1575 1.3476 0
M  V30 44 H -1.5358 -2.4722 0.0345 0
M  V30 45 H -4.1171 0.1045 2.4499 0
M  V30 46 H -4.7662 -1.2338 1.4078 0
M  V30 47 H -3.9479 -1.6286 2.9061 0
M  V30 END ATOM
M  V30 BEGIN BOND
M  V30 1 1 1 2
M  V30 2 2 2 3
M  V30 3 1 2 4
M  V30 4 1 3 5
M  V30 5 1 3 6
M  V30 6 2 4 7
M  V30 7 1 5 8
M  V30 8 1 5 9
M  V30 9 2 6 10
M  V30 10 1 7 11
M  V30 11 1 8 12
M  V30 12 1 9 13
M  V30 13 1 10 14
M  V30 14 2 11 15
M  V30 15 1 11 16
M  V30 16 1 12 17
M  V30 17 1 14 18
M  V30 18 1 14 19
M  V30 19 1 16 20
M  V30 20 1 19 21
M  V30 21 1 19 22
M  V30 22 1 19 23
M  V30 23 2 20 24
M  V30 24 1 20 25
M  V30 25 1 7 10
M  V30 26 1 13 17
M  V30 27 2 16 18
M  V30 28 1 4 26
M  V30 29 1 6 27
M  V30 30 1 8 28
M  V30 31 1 8 29
M  V30 32 1 9 30
M  V30 33 1 9 31
M  V30 34 1 12 32
M  V30 35 1 12 33
M  V30 36 1 13 34
M  V30 37 1 13 35
M  V30 38 1 17 36
M  V30 39 1 17 37
M  V30 40 1 18 38
M  V30 41 1 21 39
M  V30 42 1 21 40
M  V30 43 1 21 41
M  V30 44 1 22 42
M  V30 45 1 22 43
M  V30 46 1 22 44
M  V30 47 1 23 45
M  V30 48 1 23 46
M  V30 49 1 23 47
M  V30 END BOND
M  V30 END CTAB
M  END
>  <Structure No>
8299

>  <LogS>
-3.43

>  <MMFF94 Energy>
143.64

$$$$
Compound 8300
Actelion Java MolfileCreator 2.0

  0  0  0  0  0  0              0 V3000
M  V30 BEGIN CTAB
M  V30 COUNTS 37 40 0 0 0
M  V30 BEGIN ATOM
M  V30 1 Cl -2.0356 -5.1357 1.221 0
M  V30 2 C -2.0169 -3.5276 0.5198 0
M  V30 3 C -0.9495 -2.6658 0.7744 0
M  V30 4 C -3.0627 -3.1133 -0.2983 0
M  V30 5 C -0.892 -1.3779 0.1951 0
M  V30 6 C -3.0658 -1.8224 -0.8208 0
M  V30 7 C -2.0249 -0.9241 -0.5456 0
M  V30 8 C 0.3571 -0.5417 0.4529 0 CFG=2
M  V30 9 O -2.2196 0.3834 -1.0224 0
M  V30 10 C 0.5899 0.5909 -0.5318 0 CFG=1
M  V30 11 C 1.67 -1.3518 0.3569 0
M  V30 12 C -1.7043 1.5743 -0.4985 0
M  V30 13 C -0.3307 1.7563 -0.2553 0
M  V30 14 C 2.0894 0.8353 -0.4022 0
M  V30 15 N 2.6905 -0.4973 -0.2841 0 CHG=1 CFG=1
M  V30 16 C -2.598 2.6326 -0.2914 0
M  V30 17 C 0.1213 3.0201 0.1896 0
M  V30 18 C 3.9548 -0.469 0.4693 0
M  V30 19 C -2.1431 3.8666 0.171 0
M  V30 20 C -0.7843 4.0605 0.4084 0
M  V30 21 H -0.15 -3.016 1.4149 0
M  V30 22 H -3.8891 -3.7805 -0.5079 0
M  V30 23 H -3.9114 -1.4982 -1.4149 0
M  V30 24 H 0.2826 -0.1205 1.4823 0
M  V30 25 H 0.4045 0.2281 -1.5699 0
M  V30 26 H 1.9725 -1.6829 1.3773 0
M  V30 27 H 1.5271 -2.2683 -0.2606 0
M  V30 28 H 2.308 1.4237 0.5164 0
M  V30 29 H 2.4836 1.3778 -1.2906 0
M  V30 30 H 2.889 -0.8604 -1.2479 0
M  V30 31 H -3.653 2.4952 -0.4927 0
M  V30 32 H 1.1656 3.2327 0.3546 0
M  V30 33 H 4.6848 0.2028 -0.0325 0
M  V30 34 H 3.7959 -0.1105 1.5109 0
M  V30 35 H 4.3972 -1.4882 0.5085 0
M  V30 36 H -2.8426 4.6767 0.3326 0
M  V30 37 H -0.4291 5.0237 0.7518 0
M  V30 END ATOM
M  V30 BEGIN BOND
M  V30 1 1 1 2
M  V30 2 2 2 3
M  V30 3 1 2 4
M  V30 4 1 3 5
M  V30 5 2 4 6
M  V30 6 2 5 7
M  V30 7 1 5 8
M  V30 8 1 7 9
M  V30 9 1 8 10
M  V30 10 1 8 11
M  V30 11 1 9 12
M  V30 12 1 10 13
M  V30 13 1 10 14
M  V30 14 1 11 15
M  V30 15 1 12 16
M  V30 16 1 13 17
M  V30 17 1 15 18
M  V30 18 2 16 19
M  V30 19 2 17 20
M  V30 20 1 6 7
M  V30 21 2 12 13
M  V30 22 1 14 15
M  V30 23 1 19 20
M  V30 24 1 3 21
M  V30 25 1 4 22
M  V30 26 1 6 23
M  V30 27 1 8 24
M  V30 28 1 10 25
M  V30 29 1 11 26
M  V30 30 1 11 27
M  V30 31 1 14 28
M  V30 32 1 14 29
M  V30 33 1 15 30
M  V30 34 1 16 31
M  V30 35 1 17 32
M  V30 36 1 18 33
M  V30 37 1 18 34
M  V30 38 1 18 35
M  V30 39 1 19 36
M  V30 40 1 20 37
M  V30 END BOND
M  V30 BEGIN COLLECTION
M  V30 MDLV30/STEABS ATOMS=(3 8 10 15)
M  V30 END COLLECTION
M  V30 END CTAB
M  END
>  <Structure No>
8300

>  <LogS>
-2.13

>  <MMFF94 Energy>
86.028

$$$$
Compound 8301
Actelion Java MolfileCreator 2.0

  0  0  0  0  0  0              0 V3000
M  V30 BEGIN CTAB
M  V30 COUNTS 24 26 0 0 0
M  V30 BEGIN ATOM
M  V30 1 F -5.3046 -0.7332 -1.3853 0
M  V30 2 C -4.1648 -0.2475 -0.8349 0
M  V30 3 C -2.932 -0.8663 -1.1182 0
M  V30 4 C -4.2201 0.8778 0.0206 0
M  V30 5 C -1.7913 -0.3278 -0.5271 0
M  V30 6 C -3.0439 1.3929 0.5993 0
M  V30 7 N -0.5222 -0.736 -0.6429 0
M  V30 8 C -1.8424 0.7563 0.2974 0
M  V30 9 C 0.1699 0.1344 0.1332 0
M  V30 10 N -0.61 1.0738 0.7331 0
M  V30 11 C 1.6255 0.0691 0.3097 0
M  V30 12 O 2.3937 -0.8302 -0.2613 0
M  V30 13 C 2.3875 0.925 1.0856 0
M  V30 14 C 3.6311 -0.5986 0.1091 0
M  V30 15 C 3.6908 0.4919 0.9559 0
M  V30 16 N 4.7459 -1.3833 -0.3198 0 CHG=1
M  V30 17 O 5.9005 -1.1117 0.0684 0
M  V30 18 O 4.5484 -2.4475 -1.1676 0 CHG=-1
M  V30 19 H -2.8728 -1.7278 -1.7705 0
M  V30 20 H -5.1719 1.3473 0.233 0
M  V30 21 H -3.0737 2.2532 1.2553 0
M  V30 22 H -0.1539 -1.5381 -1.2015 0
M  V30 23 H 2.0382 1.7629 1.6746 0
M  V30 24 H 4.5694 0.9191 1.4208 0
M  V30 END ATOM
M  V30 BEGIN BOND
M  V30 1 1 1 2
M  V30 2 2 2 3
M  V30 3 1 2 4
M  V30 4 1 3 5
M  V30 5 2 4 6
M  V30 6 1 5 7
M  V30 7 2 5 8
M  V30 8 1 7 9
M  V30 9 1 8 10
M  V30 10 1 9 11
M  V30 11 1 11 12
M  V30 12 2 11 13
M  V30 13 1 12 14
M  V30 14 1 13 15
M  V30 15 1 14 16
M  V30 16 2 16 17
M  V30 17 1 16 18
M  V30 18 1 6 8
M  V30 19 2 9 10
M  V30 20 2 14 15
M  V30 21 1 3 19
M  V30 22 1 4 20
M  V30 23 1 6 21
M  V30 24 1 7 22
M  V30 25 1 13 23
M  V30 26 1 15 24
M  V30 END BOND
M  V30 END CTAB
M  END
>  <Structure No>
8301

>  <LogS>
-4.0

>  <MMFF94 Energy>
45.877

$$$$
Compound 8302
Actelion Java MolfileCreator 2.0

  0  0  0  0  0  0              0 V3000
M  V30 BEGIN CTAB
M  V30 COUNTS 47 50 0 0 0
M  V30 BEGIN ATOM
M  V30 1 O -4.0269 3.0593 -0.563 0
M  V30 2 C -3.7881 1.7795 -0.0395 0
M  V30 3 C -3.0236 4.0417 -0.7973 0
M  V30 4 C -2.5095 1.3549 0.3712 0
M  V30 5 C -4.8711 0.9058 0.0694 0
M  V30 6 C -2.3069 0.0524 0.8905 0
M  V30 7 C -4.7002 -0.3725 0.5947 0
M  V30 8 C -3.4385 -0.7996 1.0156 0
M  V30 9 C -1.0346 -0.4416 1.3178 0
M  V30 10 N -3.3163 -2.0309 1.5721 0
M  V30 11 C -0.9864 -1.7102 1.9298 0
M  V30 12 C 0.2712 0.3541 1.1985 0 CFG=1
M  V30 13 C -2.1306 -2.4946 2.0325 0
M  V30 14 O 0.6102 0.8953 2.452 0
M  V30 15 C 1.4687 -0.4603 0.6037 0 CFG=1
M  V30 16 N 1.1259 -1.1575 -0.676 0 CHG=1 CFG=2
M  V30 17 C 2.7265 0.444 0.4 0
M  V30 18 C 2.2584 -2.0409 -1.0579 0
M  V30 19 C 0.88 -0.19 -1.7789 0
M  V30 20 C 3.2431 0.2897 -1.0465 0 CFG=1
M  V30 21 C 3.5409 -1.2024 -1.3384 0 CFG=1
M  V30 22 C 2.1061 0.7348 -1.9873 0
M  V30 23 C 4.6902 -1.6896 -0.5548 0
M  V30 24 C 5.6301 -2.0966 0.0812 0
M  V30 25 H -3.505 4.9582 -1.1967 0
M  V30 26 H -2.5054 4.3006 0.1523 0
M  V30 27 H -2.294 3.6692 -1.5491 0
M  V30 28 H -1.7087 2.0683 0.3098 0
M  V30 29 H -5.8559 1.2249 -0.2471 0
M  V30 30 H -5.5567 -1.0297 0.6885 0
M  V30 31 H -0.065 -2.1026 2.3347 0
M  V30 32 H 0.1463 1.2089 0.5185 0
M  V30 33 H -2.0786 -3.4744 2.4884 0
M  V30 34 H 0.805 0.1392 3.0659 0
M  V30 35 H 1.7522 -1.2283 1.3576 0
M  V30 36 H 0.278 -1.759 -0.5525 0
M  V30 37 H 2.5012 1.5162 0.5895 0
M  V30 38 H 3.5217 0.1592 1.1222 0
M  V30 39 H 1.9933 -2.6236 -1.9694 0
M  V30 40 H 2.4311 -2.7985 -0.2579 0
M  V30 41 H -0.0306 0.4136 -1.5794 0
M  V30 42 H 0.6704 -0.7415 -2.7231 0
M  V30 43 H 4.1459 0.9193 -1.2111 0
M  V30 44 H 3.8136 -1.3068 -2.4117 0
M  V30 45 H 1.8269 1.7899 -1.7758 0
M  V30 46 H 2.4472 0.6861 -3.0437 0
M  V30 47 H 6.4541 -2.4506 0.641 0
M  V30 END ATOM
M  V30 BEGIN BOND
M  V30 1 1 1 2
M  V30 2 1 1 3
M  V30 3 2 2 4
M  V30 4 1 2 5
M  V30 5 1 4 6
M  V30 6 2 5 7
M  V30 7 1 6 8
M  V30 8 2 6 9
M  V30 9 2 8 10
M  V30 10 1 9 11
M  V30 11 1 9 12
M  V30 12 1 10 13
M  V30 13 1 12 14
M  V30 14 1 12 15
M  V30 15 1 15 16
M  V30 16 1 15 17
M  V30 17 1 16 18
M  V30 18 1 16 19
M  V30 19 1 17 20
M  V30 20 1 18 21
M  V30 21 1 19 22
M  V30 22 1 21 23
M  V30 23 3 23 24
M  V30 24 1 7 8
M  V30 25 2 11 13
M  V30 26 1 20 21
M  V30 27 1 20 22
M  V30 28 1 3 25
M  V30 29 1 3 26
M  V30 30 1 3 27
M  V30 31 1 4 28
M  V30 32 1 5 29
M  V30 33 1 7 30
M  V30 34 1 11 31
M  V30 35 1 12 32
M  V30 36 1 13 33
M  V30 37 1 14 34
M  V30 38 1 15 35
M  V30 39 1 16 36
M  V30 40 1 17 37
M  V30 41 1 17 38
M  V30 42 1 18 39
M  V30 43 1 18 40
M  V30 44 1 19 41
M  V30 45 1 19 42
M  V30 46 1 20 43
M  V30 47 1 21 44
M  V30 48 1 22 45
M  V30 49 1 22 46
M  V30 50 1 24 47
M  V30 END BOND
M  V30 BEGIN COLLECTION
M  V30 MDLV30/STEABS ATOMS=(5 12 15 16 20 21)
M  V30 END COLLECTION
M  V30 END CTAB
M  END
>  <Structure No>
8302

>  <LogS>
-2.12

>  <MMFF94 Energy>
114.31

$$$$
Compound 8303
Actelion Java MolfileCreator 2.0

  0  0  0  0  0  0              0 V3000
M  V30 BEGIN CTAB
M  V30 COUNTS 39 38 0 0 0
M  V30 BEGIN ATOM
M  V30 1 S 4.7934 -1.177 -0.3922 0
M  V30 2 C 5.4639 0.1509 0.6163 0
M  V30 3 C 3.6081 -1.7701 0.8715 0
M  V30 4 N 6.4323 -0.0893 1.4439 0 CHG=1
M  V30 5 N 4.9467 1.475 0.4733 0
M  V30 6 C 2.3638 -0.879 0.9793 0
M  V30 7 C 1.4981 -0.9324 -0.2911 0
M  V30 8 C 0.2951 0.0229 -0.2283 0
M  V30 9 C -0.8156 -0.485 0.7074 0
M  V30 10 C -2.0157 0.4737 0.7738 0
M  V30 11 C -2.8679 0.4496 -0.5044 0
M  V30 12 C -4.133 1.3046 -0.3348 0
M  V30 13 C -4.9472 1.4194 -1.6327 0
M  V30 14 C -5.6311 0.1084 -2.0198 0
M  V30 15 H 3.2998 -2.8035 0.6054 0
M  V30 16 H 4.113 -1.8222 1.8601 0
M  V30 17 H 6.8208 -1.0537 1.5419 0
M  V30 18 H 6.841 0.6733 2.0287 0
M  V30 19 H 4.1871 1.6704 -0.2157 0
M  V30 20 H 5.3201 2.2631 1.048 0
M  V30 21 H 1.7699 -1.2387 1.8453 0
M  V30 22 H 2.6661 0.167 1.1929 0
M  V30 23 H 2.1168 -0.6355 -1.1647 0
M  V30 24 H 1.1461 -1.9725 -0.4675 0
M  V30 25 H 0.6323 1.033 0.092 0
M  V30 26 H -0.1104 0.1146 -1.2576 0
M  V30 27 H -1.1558 -1.4929 0.3833 0
M  V30 28 H -0.4109 -0.5816 1.7365 0
M  V30 29 H -1.6605 1.5086 0.9742 0
M  V30 30 H -2.6525 0.1653 1.6323 0
M  V30 31 H -3.1558 -0.5997 -0.7277 0
M  V30 32 H -2.2767 0.8472 -1.3561 0
M  V30 33 H -3.8341 2.3304 -0.0261 0
M  V30 34 H -4.771 0.8823 0.4724 0
M  V30 35 H -4.2943 1.7595 -2.4658 0
M  V30 36 H -5.7334 2.1916 -1.4862 0
M  V30 37 H -6.2464 -0.2729 -1.1773 0
M  V30 38 H -6.2963 0.2833 -2.8916 0
M  V30 39 H -4.8807 -0.6567 -2.307 0
M  V30 END ATOM
M  V30 BEGIN BOND
M  V30 1 1 1 2
M  V30 2 1 1 3
M  V30 3 2 2 4
M  V30 4 1 2 5
M  V30 5 1 3 6
M  V30 6 1 6 7
M  V30 7 1 7 8
M  V30 8 1 8 9
M  V30 9 1 9 10
M  V30 10 1 10 11
M  V30 11 1 11 12
M  V30 12 1 12 13
M  V30 13 1 13 14
M  V30 14 1 3 15
M  V30 15 1 3 16
M  V30 16 1 4 17
M  V30 17 1 4 18
M  V30 18 1 5 19
M  V30 19 1 5 20
M  V30 20 1 6 21
M  V30 21 1 6 22
M  V30 22 1 7 23
M  V30 23 1 7 24
M  V30 24 1 8 25
M  V30 25 1 8 26
M  V30 26 1 9 27
M  V30 27 1 9 28
M  V30 28 1 10 29
M  V30 29 1 10 30
M  V30 30 1 11 31
M  V30 31 1 11 32
M  V30 32 1 12 33
M  V30 33 1 12 34
M  V30 34 1 13 35
M  V30 35 1 13 36
M  V30 36 1 14 37
M  V30 37 1 14 38
M  V30 38 1 14 39
M  V30 END BOND
M  V30 END CTAB
M  END
>  <Structure No>
8303

>  <LogS>
-2.71

>  <MMFF94 Energy>
-72.549

$$$$
Compound 8304
Actelion Java MolfileCreator 2.0

  0  0  0  0  0  0              0 V3000
M  V30 BEGIN CTAB
M  V30 COUNTS 28 28 0 0 0
M  V30 BEGIN ATOM
M  V30 1 O -1.4173 1.0234 -2.0478 0
M  V30 2 C -1.171 0.49 -0.9304 0
M  V30 3 O -2.2093 0.2823 -0.0152 0
M  V30 4 N 0.1745 0.0946 -0.5961 0
M  V30 5 C -3.5583 0.6504 -0.2835 0
M  V30 6 C 1.2937 0.5084 -1.4516 0
M  V30 7 C 0.4745 -0.3686 0.7635 0
M  V30 8 C -4.4305 0.291 0.9086 0
M  V30 9 C 2.4319 -0.5197 -1.3942 0
M  V30 10 C 1.6379 -1.3699 0.7533 0
M  V30 11 N 2.8018 -0.8849 -0.0131 0
M  V30 12 C 3.5323 0.1886 0.682 0
M  V30 13 H -3.6196 1.7452 -0.4667 0
M  V30 14 H -3.9238 0.1082 -1.1826 0
M  V30 15 H 1.6576 1.5063 -1.1269 0
M  V30 16 H 0.9697 0.596 -2.5111 0
M  V30 17 H 0.7202 0.5035 1.4056 0
M  V30 18 H -0.406 -0.879 1.2098 0
M  V30 19 H -5.4837 0.5768 0.7027 0
M  V30 20 H -4.3831 -0.8023 1.0973 0
M  V30 21 H -4.0794 0.8329 1.8124 0
M  V30 22 H 3.317 -0.1242 -1.9391 0
M  V30 23 H 2.1119 -1.4377 -1.9345 0
M  V30 24 H 1.2846 -2.324 0.3039 0
M  V30 25 H 1.935 -1.6039 1.7993 0
M  V30 26 H 2.9096 1.0978 0.8125 0
M  V30 27 H 3.8643 -0.1636 1.6818 0
M  V30 28 H 4.4448 0.4596 0.1094 0
M  V30 END ATOM
M  V30 BEGIN BOND
M  V30 1 2 1 2
M  V30 2 1 2 3
M  V30 3 1 2 4
M  V30 4 1 3 5
M  V30 5 1 4 6
M  V30 6 1 4 7
M  V30 7 1 5 8
M  V30 8 1 6 9
M  V30 9 1 7 10
M  V30 10 1 9 11
M  V30 11 1 11 12
M  V30 12 1 10 11
M  V30 13 1 5 13
M  V30 14 1 5 14
M  V30 15 1 6 15
M  V30 16 1 6 16
M  V30 17 1 7 17
M  V30 18 1 7 18
M  V30 19 1 8 19
M  V30 20 1 8 20
M  V30 21 1 8 21
M  V30 22 1 9 22
M  V30 23 1 9 23
M  V30 24 1 10 24
M  V30 25 1 10 25
M  V30 26 1 12 26
M  V30 27 1 12 27
M  V30 28 1 12 28
M  V30 END BOND
M  V30 END CTAB
M  END
>  <Structure No>
8304

>  <LogS>
1.13

>  <MMFF94 Energy>
-0.74407

$$$$
Compound 8305
Actelion Java MolfileCreator 2.0

  0  0  0  0  0  0              0 V3000
M  V30 BEGIN CTAB
M  V30 COUNTS 32 32 0 0 0
M  V30 BEGIN ATOM
M  V30 1 O 1.6457 -2.1163 0.1566 0
M  V30 2 C 1.3543 -0.8883 0.1702 0
M  V30 3 O 2.313 0.0509 0.5652 0
M  V30 4 N 0.038 -0.4474 -0.2189 0
M  V30 5 C 3.6342 -0.3115 0.9508 0
M  V30 6 C -0.2561 0.9913 -0.3286 0 CFG=2
M  V30 7 C -1.0257 -1.4092 -0.5367 0
M  V30 8 C 4.4198 0.9393 1.3096 0
M  V30 9 C -1.7799 1.2307 -0.3413 0
M  V30 10 C 0.3933 1.5779 -1.5861 0
M  V30 11 C -2.3064 -1.0949 0.2801 0 CFG=1
M  V30 12 N -2.4374 0.3444 0.6295 0 CHG=1
M  V30 13 C -3.551 -1.6037 -0.4642 0
M  V30 14 H 3.5961 -0.9873 1.8325 0
M  V30 15 H 4.1404 -0.8343 0.1106 0
M  V30 16 H 0.1552 1.5139 0.5638 0
M  V30 17 H -1.234 -1.343 -1.6274 0
M  V30 18 H -0.713 -2.4549 -0.3295 0
M  V30 19 H 3.9277 1.4669 2.1539 0
M  V30 20 H 4.4693 1.6199 0.4334 0
M  V30 21 H 5.4518 0.6609 1.6098 0
M  V30 22 H -2.2016 1.0515 -1.3564 0
M  V30 23 H -1.9866 2.2923 -0.0787 0
M  V30 24 H 1.4972 1.477 -1.5347 0
M  V30 25 H 0.0297 1.0485 -2.4926 0
M  V30 26 H 0.1479 2.6577 -1.6746 0
M  V30 27 H -2.2422 -1.6762 1.2288 0
M  V30 28 H -2.0097 0.5079 1.572 0
M  V30 29 H -3.4446 0.6203 0.7065 0
M  V30 30 H -3.436 -2.6804 -0.7125 0
M  V30 31 H -3.7046 -1.0309 -1.4034 0
M  V30 32 H -4.4518 -1.4911 0.1756 0
M  V30 END ATOM
M  V30 BEGIN BOND
M  V30 1 2 1 2
M  V30 2 1 2 3
M  V30 3 1 2 4
M  V30 4 1 3 5
M  V30 5 1 4 6
M  V30 6 1 4 7
M  V30 7 1 5 8
M  V30 8 1 6 9
M  V30 9 1 6 10
M  V30 10 1 7 11
M  V30 11 1 9 12
M  V30 12 1 11 13
M  V30 13 1 11 12
M  V30 14 1 5 14
M  V30 15 1 5 15
M  V30 16 1 6 16
M  V30 17 1 7 17
M  V30 18 1 7 18
M  V30 19 1 8 19
M  V30 20 1 8 20
M  V30 21 1 8 21
M  V30 22 1 9 22
M  V30 23 1 9 23
M  V30 24 1 10 24
M  V30 25 1 10 25
M  V30 26 1 10 26
M  V30 27 1 11 27
M  V30 28 1 12 28
M  V30 29 1 12 29
M  V30 30 1 13 30
M  V30 31 1 13 31
M  V30 32 1 13 32
M  V30 END BOND
M  V30 BEGIN COLLECTION
M  V30 MDLV30/STEABS ATOMS=(2 6 11)
M  V30 END COLLECTION
M  V30 END CTAB
M  END
>  <Structure No>
8305

>  <LogS>
0.65

>  <MMFF94 Energy>
10.485

$$$$
Compound 8306
Actelion Java MolfileCreator 2.0

  0  0  0  0  0  0              0 V3000
M  V30 BEGIN CTAB
M  V30 COUNTS 29 31 0 0 0
M  V30 BEGIN ATOM
M  V30 1 N 0.9532 -1.5095 0.6353 0 CHG=1
M  V30 2 C -0.3515 -1.1393 0.5126 0
M  V30 3 C 1.9734 -0.676 0.2917 0
M  V30 4 C -0.6874 0.1412 0.0084 0
M  V30 5 C -1.3676 -2.039 0.8714 0
M  V30 6 C 1.6991 0.6232 -0.2039 0
M  V30 7 C 3.3037 -1.1025 0.4415 0
M  V30 8 C 0.3518 1.0346 -0.3504 0
M  V30 9 C -2.0514 0.4716 -0.1526 0
M  V30 10 C -2.7088 -1.6872 0.7274 0
M  V30 11 C 2.7835 1.4772 -0.5043 0
M  V30 12 C 4.3596 -0.2504 0.1187 0
M  V30 13 N 0.0431 2.3448 -0.8549 0
M  V30 14 C -3.0587 -0.4288 0.2252 0
M  V30 15 C 4.0999 1.0369 -0.3475 0
M  V30 16 C -4.5026 -0.0758 0.0176 0
M  V30 17 H 1.1784 -2.463 1.0043 0
M  V30 18 H -1.1202 -3.0207 1.2563 0
M  V30 19 H 3.5237 -2.0953 0.8146 0
M  V30 20 H -2.3515 1.4159 -0.5839 0
M  V30 21 H -3.4759 -2.4016 1.0003 0
M  V30 22 H 2.6345 2.4912 -0.8458 0
M  V30 23 H 5.3816 -0.5857 0.2394 0
M  V30 24 H 0.6042 2.7792 -1.6194 0
M  V30 25 H -0.7493 2.9029 -0.4688 0
M  V30 26 H 4.9225 1.6997 -0.5838 0
M  V30 27 H -4.8071 -0.3575 -1.0118 0
M  V30 28 H -4.6624 1.0146 0.1576 0
M  V30 29 H -5.1482 -0.612 0.7456 0
M  V30 END ATOM
M  V30 BEGIN BOND
M  V30 1 1 1 2
M  V30 2 2 1 3
M  V30 3 1 2 4
M  V30 4 2 2 5
M  V30 5 1 3 6
M  V30 6 1 3 7
M  V30 7 1 4 8
M  V30 8 2 4 9
M  V30 9 1 5 10
M  V30 10 1 6 11
M  V30 11 2 7 12
M  V30 12 1 8 13
M  V30 13 1 9 14
M  V30 14 2 11 15
M  V30 15 1 14 16
M  V30 16 2 6 8
M  V30 17 2 10 14
M  V30 18 1 12 15
M  V30 19 1 1 17
M  V30 20 1 5 18
M  V30 21 1 7 19
M  V30 22 1 9 20
M  V30 23 1 10 21
M  V30 24 1 11 22
M  V30 25 1 12 23
M  V30 26 1 13 24
M  V30 27 1 13 25
M  V30 28 1 15 26
M  V30 29 1 16 27
M  V30 30 1 16 28
M  V30 31 1 16 29
M  V30 END BOND
M  V30 END CTAB
M  END
>  <Structure No>
8306

>  <LogS>
-2.39

>  <MMFF94 Energy>
77.411

$$$$
Compound 8307
Actelion Java MolfileCreator 2.0

  0  0  0  0  0  0              0 V3000
M  V30 BEGIN CTAB
M  V30 COUNTS 24 24 0 0 0
M  V30 BEGIN ATOM
M  V30 1 S -2.7484 1.4543 0.1615 0
M  V30 2 O -2.7642 2.482 1.2585 0
M  V30 3 O -3.1322 2.1216 -1.1296 0
M  V30 4 C -1.1374 0.759 0.0183 0
M  V30 5 C -3.9161 0.1666 0.536 0
M  V30 6 C -0.3145 0.6492 1.146 0
M  V30 7 C -0.6807 0.2882 -1.2188 0
M  V30 8 C 0.9597 0.0851 1.0363 0
M  V30 9 C 0.5927 -0.2774 -1.331 0
M  V30 10 C 1.4267 -0.3857 -0.203 0
M  V30 11 C 2.7826 -0.9805 -0.3139 0
M  V30 12 N 2.9991 -1.9987 -1.0931 0 CHG=1
M  V30 13 N 3.8649 -0.4354 0.4505 0
M  V30 14 H -3.9091 -0.5879 -0.2773 0
M  V30 15 H -4.9329 0.6014 0.627 0
M  V30 16 H -3.6363 -0.3207 1.4927 0
M  V30 17 H -0.6605 0.9944 2.1121 0
M  V30 18 H -1.3089 0.3598 -2.0977 0
M  V30 19 H 1.5709 -0.0016 1.9258 0
M  V30 20 H 0.9304 -0.6123 -2.3034 0
M  V30 21 H 2.2296 -2.4476 -1.6382 0
M  V30 22 H 3.9534 -2.4155 -1.1737 0
M  V30 23 H 3.7415 0.434 1.0152 0
M  V30 24 H 4.8139 -0.87 0.4182 0
M  V30 END ATOM
M  V30 BEGIN BOND
M  V30 1 2 1 2
M  V30 2 2 1 3
M  V30 3 1 1 4
M  V30 4 1 1 5
M  V30 5 2 4 6
M  V30 6 1 4 7
M  V30 7 1 6 8
M  V30 8 2 7 9
M  V30 9 2 8 10
M  V30 10 1 10 11
M  V30 11 2 11 12
M  V30 12 1 11 13
M  V30 13 1 9 10
M  V30 14 1 5 14
M  V30 15 1 5 15
M  V30 16 1 5 16
M  V30 17 1 6 17
M  V30 18 1 7 18
M  V30 19 1 8 19
M  V30 20 1 9 20
M  V30 21 1 12 21
M  V30 22 1 12 22
M  V30 23 1 13 23
M  V30 24 1 13 24
M  V30 END BOND
M  V30 END CTAB
M  END
>  <Structure No>
8307

>  <LogS>
-1.38

>  <MMFF94 Energy>
27.662

$$$$
Compound 8308
Actelion Java MolfileCreator 2.0

  0  0  0  0  0  0              0 V3000
M  V30 BEGIN CTAB
M  V30 COUNTS 34 34 0 0 0
M  V30 BEGIN ATOM
M  V30 1 N -2.788 1.858 -1.1609 0 CHG=1
M  V30 2 C -2.6604 0.7057 -0.5739 0
M  V30 3 N -1.3538 0.1289 -0.3612 0
M  V30 4 N -3.8286 0.0024 -0.1362 0
M  V30 5 C -0.3337 0.1404 -1.4313 0 CFG=1
M  V30 6 C -1.0675 -0.5522 0.9074 0
M  V30 7 C 0.9605 -0.5608 -0.9755 0
M  V30 8 C -0.8718 -0.5303 -2.7017 0
M  V30 9 C 0.3073 -0.1097 1.4447 0 CFG=2
M  V30 10 N 1.3265 -0.112 0.3737 0
M  V30 11 C 0.7339 -1.0214 2.6025 0
M  V30 12 C 2.6987 0.241 0.6525 0
M  V30 13 N 2.9799 1.2698 1.3949 0 CHG=1
M  V30 14 N 3.7616 -0.5494 0.1085 0
M  V30 15 H -3.7327 2.2737 -1.3213 0
M  V30 16 H -1.9585 2.4112 -1.4672 0
M  V30 17 H -4.7794 0.4194 -0.2501 0
M  V30 18 H -3.7537 -0.9586 0.2639 0
M  V30 19 H -0.0685 1.1927 -1.6698 0
M  V30 20 H -1.0845 -1.651 0.7353 0
M  V30 21 H -1.8417 -0.3117 1.6699 0
M  V30 22 H 1.7682 -0.3255 -1.704 0
M  V30 23 H 0.8223 -1.6644 -0.9603 0
M  V30 24 H -1.7321 0.0421 -3.1075 0
M  V30 25 H -1.2039 -1.5673 -2.4802 0
M  V30 26 H -0.0834 -0.5617 -3.484 0
M  V30 27 H 0.1891 0.925 1.832 0
M  V30 28 H 0.9202 -2.0529 2.2336 0
M  V30 29 H -0.0589 -1.0526 3.3803 0
M  V30 30 H 1.6614 -0.6377 3.0765 0
M  V30 31 H 2.2326 1.8845 1.7847 0
M  V30 32 H 3.9716 1.523 1.6031 0
M  V30 33 H 4.7599 -0.2894 0.2707 0
M  V30 34 H 3.5571 -1.4244 -0.4224 0
M  V30 END ATOM
M  V30 BEGIN BOND
M  V30 1 2 1 2
M  V30 2 1 2 3
M  V30 3 1 2 4
M  V30 4 1 3 5
M  V30 5 1 3 6
M  V30 6 1 5 7
M  V30 7 1 5 8
M  V30 8 1 6 9
M  V30 9 1 7 10
M  V30 10 1 9 11
M  V30 11 1 10 12
M  V30 12 2 12 13
M  V30 13 1 12 14
M  V30 14 1 9 10
M  V30 15 1 1 15
M  V30 16 1 1 16
M  V30 17 1 4 17
M  V30 18 1 4 18
M  V30 19 1 5 19
M  V30 20 1 6 20
M  V30 21 1 6 21
M  V30 22 1 7 22
M  V30 23 1 7 23
M  V30 24 1 8 24
M  V30 25 1 8 25
M  V30 26 1 8 26
M  V30 27 1 9 27
M  V30 28 1 11 28
M  V30 29 1 11 29
M  V30 30 1 11 30
M  V30 31 1 13 31
M  V30 32 1 13 32
M  V30 33 1 14 33
M  V30 34 1 14 34
M  V30 END BOND
M  V30 BEGIN COLLECTION
M  V30 MDLV30/STEABS ATOMS=(2 5 9)
M  V30 END COLLECTION
M  V30 END CTAB
M  END
>  <Structure No>
8308

>  <LogS>
0.02

>  <MMFF94 Energy>
-209.6

$$$$
Compound 8309
Actelion Java MolfileCreator 2.0

  0  0  0  0  0  0              0 V3000
M  V30 BEGIN CTAB
M  V30 COUNTS 26 28 0 0 0
M  V30 BEGIN ATOM
M  V30 1 F -4.6556 -1.6837 0.2404 0
M  V30 2 C -3.5593 -0.8856 0.2321 0
M  V30 3 C -2.2876 -1.4495 0.101 0
M  V30 4 C -3.7062 0.4958 0.3474 0
M  V30 5 C -1.1355 -0.6323 0.0944 0
M  V30 6 C -2.5834 1.3224 0.3215 0
M  V30 7 C 0.1688 -1.1684 -0.036 0
M  V30 8 C -1.2974 0.7728 0.1887 0
M  V30 9 N 0.3651 -2.5896 -0.1254 0
M  V30 10 C 1.2774 -0.2881 -0.0771 0
M  V30 11 N -0.2128 1.5945 0.1385 0 CHG=1
M  V30 12 C 1.0522 1.109 0.0057 0
M  V30 13 C 2.607 -0.7564 -0.1652 0
M  V30 14 C 2.1396 1.9978 -0.0361 0
M  V30 15 C 3.6761 0.1419 -0.2038 0
M  V30 16 C 3.4432 1.5146 -0.1448 0
M  V30 17 H -2.2261 -2.5221 -0.0097 0
M  V30 18 H -4.693 0.9291 0.4477 0
M  V30 19 H -2.7173 2.3945 0.3995 0
M  V30 20 H -0.2111 -3.2545 0.4348 0
M  V30 21 H 1.0903 -2.9998 -0.753 0
M  V30 22 H -0.3559 2.6294 0.2041 0
M  V30 23 H 2.8411 -1.8104 -0.1891 0
M  V30 24 H 1.9777 3.0672 0.0212 0
M  V30 25 H 4.6905 -0.2291 -0.2741 0
M  V30 26 H 4.2756 2.2058 -0.1739 0
M  V30 END ATOM
M  V30 BEGIN BOND
M  V30 1 1 1 2
M  V30 2 2 2 3
M  V30 3 1 2 4
M  V30 4 1 3 5
M  V30 5 2 4 6
M  V30 6 2 5 7
M  V30 7 1 5 8
M  V30 8 1 7 9
M  V30 9 1 7 10
M  V30 10 2 8 11
M  V30 11 1 10 12
M  V30 12 2 10 13
M  V30 13 2 12 14
M  V30 14 1 13 15
M  V30 15 1 14 16
M  V30 16 1 6 8
M  V30 17 1 11 12
M  V30 18 2 15 16
M  V30 19 1 3 17
M  V30 20 1 4 18
M  V30 21 1 6 19
M  V30 22 1 9 20
M  V30 23 1 9 21
M  V30 24 1 11 22
M  V30 25 1 13 23
M  V30 26 1 14 24
M  V30 27 1 15 25
M  V30 28 1 16 26
M  V30 END BOND
M  V30 END CTAB
M  END
>  <Structure No>
8309

>  <LogS>
-2.4

>  <MMFF94 Energy>
71.455

$$$$
Compound 8310
Actelion Java MolfileCreator 2.0

  0  0  0  0  0  0              0 V3000
M  V30 BEGIN CTAB
M  V30 COUNTS 26 28 0 0 0
M  V30 BEGIN ATOM
M  V30 1 F 4.5751 -2.1652 -0.4006 0
M  V30 2 C 3.4979 -1.3488 -0.2931 0
M  V30 3 C 2.2104 -1.8783 -0.3787 0
M  V30 4 C 3.6778 0.021 -0.1088 0
M  V30 5 C 1.0871 -1.0407 -0.2717 0
M  V30 6 C 2.5727 0.8682 0.0015 0
M  V30 7 N -0.1628 -1.5685 -0.3838 0 CHG=1
M  V30 8 C 1.2601 0.3502 -0.0608 0
M  V30 9 C -1.2808 -0.7967 -0.2919 0
M  V30 10 C 0.1163 1.1785 0.0474 0
M  V30 11 C -1.1707 0.5983 -0.0653 0
M  V30 12 C -2.5494 -1.3893 -0.4092 0
M  V30 13 N 0.2599 2.5914 0.2693 0
M  V30 14 C -2.3534 1.3582 0.0728 0
M  V30 15 C -3.7041 -0.6165 -0.2904 0
M  V30 16 C -3.6061 0.7517 -0.0449 0
M  V30 17 H 2.0871 -2.943 -0.5347 0
M  V30 18 H 4.6781 0.4314 -0.0564 0
M  V30 19 H 2.7648 1.9247 0.1188 0
M  V30 20 H -0.2676 -2.5974 -0.5452 0
M  V30 21 H -2.6442 -2.4533 -0.5873 0
M  V30 22 H 1.0039 2.9709 0.8942 0
M  V30 23 H -0.3753 3.2811 -0.1876 0
M  V30 24 H -2.3306 2.4165 0.2875 0
M  V30 25 H -4.6776 -1.0811 -0.3797 0
M  V30 26 H -4.5053 1.3453 0.0602 0
M  V30 END ATOM
M  V30 BEGIN BOND
M  V30 1 1 1 2
M  V30 2 2 2 3
M  V30 3 1 2 4
M  V30 4 1 3 5
M  V30 5 2 4 6
M  V30 6 2 5 7
M  V30 7 1 5 8
M  V30 8 1 7 9
M  V30 9 2 8 10
M  V30 10 1 9 11
M  V30 11 2 9 12
M  V30 12 1 10 13
M  V30 13 2 11 14
M  V30 14 1 12 15
M  V30 15 1 14 16
M  V30 16 1 6 8
M  V30 17 1 10 11
M  V30 18 2 15 16
M  V30 19 1 3 17
M  V30 20 1 4 18
M  V30 21 1 6 19
M  V30 22 1 7 20
M  V30 23 1 12 21
M  V30 24 1 13 22
M  V30 25 1 13 23
M  V30 26 1 14 24
M  V30 27 1 15 25
M  V30 28 1 16 26
M  V30 END BOND
M  V30 END CTAB
M  END
>  <Structure No>
8310

>  <LogS>
-2.12

>  <MMFF94 Energy>
64.435

$$$$
Compound 8311
Actelion Java MolfileCreator 2.0

  0  0  0  0  0  0              0 V3000
M  V30 BEGIN CTAB
M  V30 COUNTS 26 28 0 0 0
M  V30 BEGIN ATOM
M  V30 1 F 2.0851 -3.2093 -0.4809 0
M  V30 2 C 2.2225 -1.8697 -0.31 0
M  V30 3 C 1.0914 -1.0403 -0.1778 0
M  V30 4 C 3.5052 -1.3225 -0.2733 0
M  V30 5 N -0.16 -1.5766 -0.2411 0 CHG=1
M  V30 6 C 1.2592 0.356 0.0083 0
M  V30 7 C 3.6764 0.0507 -0.1145 0
M  V30 8 C -1.2797 -0.8105 -0.1227 0
M  V30 9 C 0.1133 1.1774 0.1436 0
M  V30 10 C 2.5674 0.8877 0.0199 0
M  V30 11 C -1.1721 0.5876 0.0812 0
M  V30 12 C -2.5476 -1.4129 -0.1901 0
M  V30 13 N 0.2534 2.5942 0.3424 0
M  V30 14 C -2.3548 1.3418 0.2484 0
M  V30 15 C -3.7031 -0.6461 -0.0436 0
M  V30 16 C -3.6066 0.7258 0.1801 0
M  V30 17 H 4.3706 -1.9641 -0.3776 0
M  V30 18 H -0.2693 -2.6071 -0.385 0
M  V30 19 H 4.674 0.4705 -0.1011 0
M  V30 20 H 2.7527 1.9474 0.1158 0
M  V30 21 H -2.6413 -2.4799 -0.3508 0
M  V30 22 H 1.0108 2.9866 0.9427 0
M  V30 23 H -0.3991 3.2733 -0.1058 0
M  V30 24 H -2.3322 2.4031 0.4479 0
M  V30 25 H -4.6758 -1.1184 -0.0944 0
M  V30 26 H -4.5058 1.315 0.3071 0
M  V30 END ATOM
M  V30 BEGIN BOND
M  V30 1 1 1 2
M  V30 2 1 2 3
M  V30 3 2 2 4
M  V30 4 2 3 5
M  V30 5 1 3 6
M  V30 6 1 4 7
M  V30 7 1 5 8
M  V30 8 2 6 9
M  V30 9 1 6 10
M  V30 10 1 8 11
M  V30 11 2 8 12
M  V30 12 1 9 13
M  V30 13 2 11 14
M  V30 14 1 12 15
M  V30 15 1 14 16
M  V30 16 2 7 10
M  V30 17 1 9 11
M  V30 18 2 15 16
M  V30 19 1 4 17
M  V30 20 1 5 18
M  V30 21 1 7 19
M  V30 22 1 10 20
M  V30 23 1 12 21
M  V30 24 1 13 22
M  V30 25 1 13 23
M  V30 26 1 14 24
M  V30 27 1 15 25
M  V30 28 1 16 26
M  V30 END BOND
M  V30 END CTAB
M  END
>  <Structure No>
8311

>  <LogS>
-1.66

>  <MMFF94 Energy>
70.827

$$$$
Compound 8312
Actelion Java MolfileCreator 2.0

  0  0  0  0  0  0              0 V3000
M  V30 BEGIN CTAB
M  V30 COUNTS 26 28 0 0 0
M  V30 BEGIN ATOM
M  V30 1 F -2.2459 -2.4868 1.3631 0
M  V30 2 C -2.3187 -1.2835 0.7419 0
M  V30 3 C -1.1604 -0.569 0.3403 0
M  V30 4 C -3.5922 -0.7796 0.4628 0
M  V30 5 C 0.1569 -1.0227 0.6108 0
M  V30 6 C -1.3291 0.6348 -0.3937 0
M  V30 7 C -3.7426 0.4201 -0.2274 0
M  V30 8 N 0.3782 -2.198 1.4038 0
M  V30 9 C 1.2609 -0.2891 0.1145 0
M  V30 10 N -0.2458 1.3194 -0.855 0 CHG=1
M  V30 11 C -2.6196 1.1207 -0.6607 0
M  V30 12 C 1.0261 0.891 -0.6319 0
M  V30 13 C 2.5949 -0.6781 0.3681 0
M  V30 14 C 2.1108 1.6322 -1.1308 0
M  V30 15 C 3.6615 0.0708 -0.1346 0
M  V30 16 C 3.4204 1.2199 -0.8857 0
M  V30 17 H -4.4706 -1.3302 0.7749 0
M  V30 18 H -4.7333 0.8006 -0.4408 0
M  V30 19 H -0.1053 -2.3207 2.3204 0
M  V30 20 H 1.0852 -2.913 1.1248 0
M  V30 21 H -0.3958 2.2004 -1.4006 0
M  V30 22 H -2.7565 2.0427 -1.2125 0
M  V30 23 H 2.8312 -1.5499 0.9609 0
M  V30 24 H 1.9418 2.5341 -1.7061 0
M  V30 25 H 4.6796 -0.239 0.0635 0
M  V30 26 H 4.2505 1.7974 -1.2718 0
M  V30 END ATOM
M  V30 BEGIN BOND
M  V30 1 1 1 2
M  V30 2 1 2 3
M  V30 3 2 2 4
M  V30 4 2 3 5
M  V30 5 1 3 6
M  V30 6 1 4 7
M  V30 7 1 5 8
M  V30 8 1 5 9
M  V30 9 2 6 10
M  V30 10 1 6 11
M  V30 11 1 9 12
M  V30 12 2 9 13
M  V30 13 2 12 14
M  V30 14 1 13 15
M  V30 15 1 14 16
M  V30 16 2 7 11
M  V30 17 1 10 12
M  V30 18 2 15 16
M  V30 19 1 4 17
M  V30 20 1 7 18
M  V30 21 1 8 19
M  V30 22 1 8 20
M  V30 23 1 10 21
M  V30 24 1 11 22
M  V30 25 1 13 23
M  V30 26 1 14 24
M  V30 27 1 15 25
M  V30 28 1 16 26
M  V30 END BOND
M  V30 END CTAB
M  END
>  <Structure No>
8312

>  <LogS>
-0.95

>  <MMFF94 Energy>
72.52

$$$$
Compound 8313
Actelion Java MolfileCreator 2.0

  0  0  0  0  0  0              0 V3000
M  V30 BEGIN CTAB
M  V30 COUNTS 26 28 0 0 0
M  V30 BEGIN ATOM
M  V30 1 Cl -2.8408 2.6783 -0.6488 0
M  V30 2 C -2.5099 1.0419 -0.0782 0
M  V30 3 C -1.2146 0.4397 -0.0433 0
M  V30 4 C -3.6412 0.2898 0.2611 0
M  V30 5 C -0.0041 1.1407 -0.3109 0
M  V30 6 C -1.131 -0.9511 0.2486 0
M  V30 7 C -3.5296 -1.0534 0.6004 0
M  V30 8 N 0.0097 2.5672 -0.4401 0
M  V30 9 C 1.2192 0.4312 -0.3665 0
M  V30 10 N 0.0653 -1.6003 0.2004 0 CHG=1
M  V30 11 C -2.2871 -1.6752 0.5794 0
M  V30 12 C 1.2226 -0.9597 -0.1132 0
M  V30 13 C 2.4483 1.0757 -0.6327 0
M  V30 14 C 2.4292 -1.6789 -0.1599 0
M  V30 15 C 3.639 0.3466 -0.6757 0
M  V30 16 C 3.6291 -1.0276 -0.4444 0
M  V30 17 H -4.6237 0.7454 0.2397 0
M  V30 18 H -4.4149 -1.6224 0.8545 0
M  V30 19 H 0.5067 3.0337 -1.2305 0
M  V30 20 H -0.3898 3.1645 0.3175 0
M  V30 21 H 0.0957 -2.6265 0.4055 0
M  V30 22 H -2.2256 -2.7302 0.8174 0
M  V30 23 H 2.5077 2.141 -0.8046 0
M  V30 24 H 2.4412 -2.7451 0.0305 0
M  V30 25 H 4.5737 0.8508 -0.8854 0
M  V30 26 H 4.5545 -1.5881 -0.4771 0
M  V30 END ATOM
M  V30 BEGIN BOND
M  V30 1 1 1 2
M  V30 2 1 2 3
M  V30 3 2 2 4
M  V30 4 2 3 5
M  V30 5 1 3 6
M  V30 6 1 4 7
M  V30 7 1 5 8
M  V30 8 1 5 9
M  V30 9 2 6 10
M  V30 10 1 6 11
M  V30 11 1 9 12
M  V30 12 2 9 13
M  V30 13 2 12 14
M  V30 14 1 13 15
M  V30 15 1 14 16
M  V30 16 2 7 11
M  V30 17 1 10 12
M  V30 18 2 15 16
M  V30 19 1 4 17
M  V30 20 1 7 18
M  V30 21 1 8 19
M  V30 22 1 8 20
M  V30 23 1 10 21
M  V30 24 1 11 22
M  V30 25 1 13 23
M  V30 26 1 14 24
M  V30 27 1 15 25
M  V30 28 1 16 26
M  V30 END BOND
M  V30 END CTAB
M  END
>  <Structure No>
8313

>  <LogS>
-1.58

>  <MMFF94 Energy>
78.779

$$$$
Compound 8314
Actelion Java MolfileCreator 2.0

  0  0  0  0  0  0              0 V3000
M  V30 BEGIN CTAB
M  V30 COUNTS 48 48 0 0 0
M  V30 BEGIN ATOM
M  V30 1 N -3.6746 0.4685 -0.7028 0 CHG=1
M  V30 2 C -3.9712 -0.9953 -0.7846 0
M  V30 3 C -4.7921 1.2683 -0.1314 0
M  V30 4 C -2.4271 0.7356 0.058 0
M  V30 5 C -5.0639 -1.4463 0.1964 0
M  V30 6 C -6.1589 0.7335 -0.5745 0
M  V30 7 C -1.1636 0.4802 -0.7873 0
M  V30 8 C -6.3826 -0.6999 -0.0629 0
M  V30 9 C 0.1068 0.731 0.0337 0
M  V30 10 C 1.3648 0.4871 -0.8084 0
M  V30 11 C 2.6349 0.7385 0.013 0
M  V30 12 C 3.8937 0.4774 -0.8269 0
M  V30 13 C 5.1915 0.8701 -0.0984 0
M  V30 14 C 5.4616 0.106 1.2138 0
M  V30 15 C 5.5085 -1.4256 1.0758 0
M  V30 16 C 6.6187 -1.9055 0.1419 0
M  V30 17 H -3.5368 0.8155 -1.6829 0
M  V30 18 H -4.3084 -1.2496 -1.8155 0
M  V30 19 H -3.0682 -1.6162 -0.5994 0
M  V30 20 H -4.7018 2.329 -0.4585 0
M  V30 21 H -4.7575 1.2637 0.983 0
M  V30 22 H -2.3924 1.8024 0.3806 0
M  V30 23 H -2.3989 0.1155 0.983 0
M  V30 24 H -4.7199 -1.2508 1.2358 0
M  V30 25 H -5.2302 -2.5408 0.0966 0
M  V30 26 H -6.2066 0.7459 -1.6855 0
M  V30 27 H -6.9642 1.3976 -0.1922 0
M  V30 28 H -1.1523 -0.5651 -1.1602 0
M  V30 29 H -1.1704 1.1615 -1.6664 0
M  V30 30 H -6.9848 -1.2591 -0.8119 0
M  V30 31 H -6.968 -0.6715 0.882 0
M  V30 32 H 0.1078 1.7816 0.3998 0
M  V30 33 H 0.1155 0.0501 0.9134 0
M  V30 34 H 1.3655 -0.5638 -1.1732 0
M  V30 35 H 1.3548 1.1672 -1.6887 0
M  V30 36 H 2.6399 1.792 0.37 0
M  V30 37 H 2.6294 0.0629 0.8951 0
M  V30 38 H 3.9324 -0.5884 -1.1358 0
M  V30 39 H 3.8354 1.0825 -1.7581 0
M  V30 40 H 5.1562 1.9573 0.1318 0
M  V30 41 H 6.0477 0.7249 -0.7909 0
M  V30 42 H 4.688 0.3749 1.9641 0
M  V30 43 H 6.4322 0.4565 1.6278 0
M  V30 44 H 4.5294 -1.8184 0.7303 0
M  V30 45 H 5.6921 -1.8572 2.0836 0
M  V30 46 H 6.6905 -3.0124 0.1924 0
M  V30 47 H 7.5958 -1.473 0.4454 0
M  V30 48 H 6.3971 -1.622 -0.9078 0
M  V30 END ATOM
M  V30 BEGIN BOND
M  V30 1 1 1 2
M  V30 2 1 1 3
M  V30 3 1 1 4
M  V30 4 1 2 5
M  V30 5 1 3 6
M  V30 6 1 4 7
M  V30 7 1 5 8
M  V30 8 1 7 9
M  V30 9 1 9 10
M  V30 10 1 10 11
M  V30 11 1 11 12
M  V30 12 1 12 13
M  V30 13 1 13 14
M  V30 14 1 14 15
M  V30 15 1 15 16
M  V30 16 1 6 8
M  V30 17 1 1 17
M  V30 18 1 2 18
M  V30 19 1 2 19
M  V30 20 1 3 20
M  V30 21 1 3 21
M  V30 22 1 4 22
M  V30 23 1 4 23
M  V30 24 1 5 24
M  V30 25 1 5 25
M  V30 26 1 6 26
M  V30 27 1 6 27
M  V30 28 1 7 28
M  V30 29 1 7 29
M  V30 30 1 8 30
M  V30 31 1 8 31
M  V30 32 1 9 32
M  V30 33 1 9 33
M  V30 34 1 10 34
M  V30 35 1 10 35
M  V30 36 1 11 36
M  V30 37 1 11 37
M  V30 38 1 12 38
M  V30 39 1 12 39
M  V30 40 1 13 40
M  V30 41 1 13 41
M  V30 42 1 14 42
M  V30 43 1 14 43
M  V30 44 1 15 44
M  V30 45 1 15 45
M  V30 46 1 16 46
M  V30 47 1 16 47
M  V30 48 1 16 48
M  V30 END BOND
M  V30 END CTAB
M  END
>  <Structure No>
8314

>  <LogS>
-1.53

>  <MMFF94 Energy>
3.6513

$$$$
Compound 8315
Actelion Java MolfileCreator 2.0

  0  0  0  0  0  0              0 V3000
M  V30 BEGIN CTAB
M  V30 COUNTS 26 28 0 0 0
M  V30 BEGIN ATOM
M  V30 1 Cl -4.9516 -1.8648 -0.243 0
M  V30 2 C -3.523 -0.8702 -0.0222 0
M  V30 3 C -2.2552 -1.4007 -0.2803 0
M  V30 4 C -3.6555 0.4467 0.4175 0
M  V30 5 C -1.0965 -0.6109 -0.111 0
M  V30 6 C -2.5226 1.2361 0.6119 0
M  V30 7 C 0.203 -1.1143 -0.3637 0
M  V30 8 C -1.2415 0.7184 0.3589 0
M  V30 9 N 0.3814 -2.4554 -0.8495 0
M  V30 10 C 1.3247 -0.281 -0.1326 0
M  V30 11 N -0.1436 1.4935 0.5788 0 CHG=1
M  V30 12 C 1.118 1.0346 0.353 0
M  V30 13 C 2.645 -0.7051 -0.4012 0
M  V30 14 C 2.219 1.8747 0.5905 0
M  V30 15 C 3.7275 0.1444 -0.1607 0
M  V30 16 C 3.5159 1.4283 0.3386 0
M  V30 17 H -2.1969 -2.4324 -0.5952 0
M  V30 18 H -4.6368 0.8578 0.6187 0
M  V30 19 H -2.644 2.2526 0.9662 0
M  V30 20 H 1.1735 -3.0508 -0.5234 0
M  V30 21 H -0.2744 -2.8737 -1.5445 0
M  V30 22 H -0.2736 2.4705 0.9318 0
M  V30 23 H 2.8592 -1.6812 -0.8111 0
M  V30 24 H 2.0722 2.8799 0.9666 0
M  V30 25 H 4.7349 -0.193 -0.368 0
M  V30 26 H 4.3584 2.0826 0.5219 0
M  V30 END ATOM
M  V30 BEGIN BOND
M  V30 1 1 1 2
M  V30 2 2 2 3
M  V30 3 1 2 4
M  V30 4 1 3 5
M  V30 5 2 4 6
M  V30 6 2 5 7
M  V30 7 1 5 8
M  V30 8 1 7 9
M  V30 9 1 7 10
M  V30 10 2 8 11
M  V30 11 1 10 12
M  V30 12 2 10 13
M  V30 13 2 12 14
M  V30 14 1 13 15
M  V30 15 1 14 16
M  V30 16 1 6 8
M  V30 17 1 11 12
M  V30 18 2 15 16
M  V30 19 1 3 17
M  V30 20 1 4 18
M  V30 21 1 6 19
M  V30 22 1 9 20
M  V30 23 1 9 21
M  V30 24 1 11 22
M  V30 25 1 13 23
M  V30 26 1 14 24
M  V30 27 1 15 25
M  V30 28 1 16 26
M  V30 END BOND
M  V30 END CTAB
M  END
>  <Structure No>
8315

>  <LogS>
-2.42

>  <MMFF94 Energy>
73.589

$$$$
Compound 8316
Actelion Java MolfileCreator 2.0

  0  0  0  0  0  0              0 V3000
M  V30 BEGIN CTAB
M  V30 COUNTS 26 28 0 0 0
M  V30 BEGIN ATOM
M  V30 1 Cl 5.3583 -0.7294 -0.4051 0
M  V30 2 C 3.7074 -0.1743 -0.1947 0
M  V30 3 C 2.6454 -1.0672 -0.3455 0
M  V30 4 C 3.4548 1.1627 0.1119 0
M  V30 5 C 1.3194 -0.6318 -0.1818 0
M  V30 6 C 2.1427 1.6118 0.2797 0
M  V30 7 N 0.2931 -1.5092 -0.3582 0 CHG=1
M  V30 8 C 1.0551 0.7199 0.153 0
M  V30 9 C -1.0077 -1.1333 -0.2153 0
M  V30 10 C -0.2876 1.1397 0.3167 0
M  V30 11 C -1.3327 0.2014 0.1344 0
M  V30 12 C -2.0315 -2.0773 -0.403 0
M  V30 13 N -0.5864 2.5023 0.6642 0
M  V30 14 C -2.6909 0.5419 0.3215 0
M  V30 15 C -3.3673 -1.7143 -0.2339 0
M  V30 16 C -3.6953 -0.4102 0.1323 0
M  V30 17 H 2.8528 -2.1006 -0.5961 0
M  V30 18 H 4.2766 1.8599 0.2157 0
M  V30 19 H 1.9989 2.661 0.4923 0
M  V30 20 H 0.5105 -2.5014 -0.611 0
M  V30 21 H -1.7939 -3.0984 -0.6754 0
M  V30 22 H 0.0111 3.037 1.3315 0
M  V30 23 H -1.4102 2.9986 0.26 0
M  V30 24 H -2.9947 1.532 0.6286 0
M  V30 25 H -4.1497 -2.4481 -0.3779 0
M  V30 26 H -4.7327 -0.1364 0.2761 0
M  V30 END ATOM
M  V30 BEGIN BOND
M  V30 1 1 1 2
M  V30 2 2 2 3
M  V30 3 1 2 4
M  V30 4 1 3 5
M  V30 5 2 4 6
M  V30 6 2 5 7
M  V30 7 1 5 8
M  V30 8 1 7 9
M  V30 9 2 8 10
M  V30 10 1 9 11
M  V30 11 2 9 12
M  V30 12 1 10 13
M  V30 13 2 11 14
M  V30 14 1 12 15
M  V30 15 1 14 16
M  V30 16 1 6 8
M  V30 17 1 10 11
M  V30 18 2 15 16
M  V30 19 1 3 17
M  V30 20 1 4 18
M  V30 21 1 6 19
M  V30 22 1 7 20
M  V30 23 1 12 21
M  V30 24 1 13 22
M  V30 25 1 13 23
M  V30 26 1 14 24
M  V30 27 1 15 25
M  V30 28 1 16 26
M  V30 END BOND
M  V30 END CTAB
M  END
>  <Structure No>
8316

>  <LogS>
-1.73

>  <MMFF94 Energy>
66.809

$$$$
Compound 8317
Actelion Java MolfileCreator 2.0

  0  0  0  0  0  0              0 V3000
M  V30 BEGIN CTAB
M  V30 COUNTS 38 38 0 0 0
M  V30 BEGIN ATOM
M  V30 1 O -0.1563 -1.1731 -0.7037 0
M  V30 2 C 0.0587 -0.0077 -0.2723 0
M  V30 3 N 1.3774 0.5406 -0.3308 0
M  V30 4 N -1.0148 0.773 0.2668 0
M  V30 5 N 2.4599 -0.2505 -0.7674 0
M  V30 6 C -2.3322 0.2346 0.4579 0
M  V30 7 C 3.1282 -0.8892 0.3897 0
M  V30 8 C 3.3662 0.5591 -1.6045 0
M  V30 9 C -2.5622 -0.7859 1.4119 0
M  V30 10 C -3.4136 0.7504 -0.2906 0
M  V30 11 C 3.4181 0.0606 1.5625 0
M  V30 12 C 4.0561 -0.32 -2.6425 0
M  V30 13 C -3.8545 -1.3127 1.5604 0
M  V30 14 C -1.4477 -1.3357 2.2618 0
M  V30 15 C -4.701 0.2248 -0.1018 0
M  V30 16 C -3.1999 1.8586 -1.2854 0
M  V30 17 C -4.9158 -0.8069 0.8108 0
M  V30 18 H 1.5429 1.5044 0.0421 0
M  V30 19 H -0.8678 1.7971 0.4106 0
M  V30 20 H 2.4789 -1.7106 0.7617 0
M  V30 21 H 4.0795 -1.3646 0.0697 0
M  V30 22 H 4.1307 1.0898 -0.9993 0
M  V30 23 H 2.7881 1.3313 -2.1608 0
M  V30 24 H 2.4727 0.4043 2.0325 0
M  V30 25 H 4.0007 -0.4831 2.3355 0
M  V30 26 H 4.0105 0.9398 1.2402 0
M  V30 27 H 4.6669 0.3131 -3.32 0
M  V30 28 H 4.7261 -1.0564 -2.153 0
M  V30 29 H 3.2979 -0.8614 -3.2472 0
M  V30 30 H -4.0446 -2.1094 2.2692 0
M  V30 31 H -0.9214 -2.1427 1.7117 0
M  V30 32 H -0.7231 -0.538 2.5289 0
M  V30 33 H -1.8437 -1.7548 3.2112 0
M  V30 34 H -5.5413 0.6088 -0.6669 0
M  V30 35 H -2.9453 2.7962 -0.7485 0
M  V30 36 H -2.3703 1.5947 -1.9747 0
M  V30 37 H -4.1089 2.0395 -1.8976 0
M  V30 38 H -5.9106 -1.2127 0.9421 0
M  V30 END ATOM
M  V30 BEGIN BOND
M  V30 1 2 1 2
M  V30 2 1 2 3
M  V30 3 1 2 4
M  V30 4 1 3 5
M  V30 5 1 4 6
M  V30 6 1 5 7
M  V30 7 1 5 8
M  V30 8 2 6 9
M  V30 9 1 6 10
M  V30 10 1 7 11
M  V30 11 1 8 12
M  V30 12 1 9 13
M  V30 13 1 9 14
M  V30 14 2 10 15
M  V30 15 1 10 16
M  V30 16 2 13 17
M  V30 17 1 15 17
M  V30 18 1 3 18
M  V30 19 1 4 19
M  V30 20 1 7 20
M  V30 21 1 7 21
M  V30 22 1 8 22
M  V30 23 1 8 23
M  V30 24 1 11 24
M  V30 25 1 11 25
M  V30 26 1 11 26
M  V30 27 1 12 27
M  V30 28 1 12 28
M  V30 29 1 12 29
M  V30 30 1 13 30
M  V30 31 1 14 31
M  V30 32 1 14 32
M  V30 33 1 14 33
M  V30 34 1 15 34
M  V30 35 1 16 35
M  V30 36 1 16 36
M  V30 37 1 16 37
M  V30 38 1 17 38
M  V30 END BOND
M  V30 END CTAB
M  END
>  <Structure No>
8317

>  <LogS>
-1.09

>  <MMFF94 Energy>
13.572

$$$$
Compound 8318
Actelion Java MolfileCreator 2.0

  0  0  0  0  0  0              0 V3000
M  V30 BEGIN CTAB
M  V30 COUNTS 42 44 0 0 0
M  V30 BEGIN ATOM
M  V30 1 O -0.6359 0.3179 -2.2273 0
M  V30 2 C -0.4461 0.148 -0.8324 0
M  V30 3 C -0.6117 1.5653 -0.2362 0
M  V30 4 C -1.5593 -0.7731 -0.2936 0
M  V30 5 C 0.9506 -0.5539 -0.5883 0
M  V30 6 C -1.7385 2.3191 -0.64 0
M  V30 7 C 0.2438 2.1384 0.7356 0
M  V30 8 C -2.0937 -0.6025 1.0059 0
M  V30 9 C -2.006 -1.8795 -1.0507 0
M  V30 10 C 2.1498 0.2235 -1.1843 0
M  V30 11 C 1.2056 -1.0255 0.872 0
M  V30 12 C -1.9825 3.593 -0.1215 0
M  V30 13 C -0.0063 3.415 1.2489 0
M  V30 14 C -3.0685 -1.4729 1.5008 0
M  V30 15 C -2.9812 -2.7458 -0.5483 0
M  V30 16 C 3.4738 -0.5639 -1.0517 0
M  V30 17 C 2.7 -1.0271 1.2287 0
M  V30 18 C -1.1152 4.1421 0.82 0
M  V30 19 C -3.5157 -2.54 0.723 0
M  V30 20 N 3.5031 -1.4991 0.093 0 CHG=1
M  V30 21 H -0.2769 -0.4601 -2.7263 0
M  V30 22 H 0.9222 -1.5006 -1.177 0
M  V30 23 H -2.4417 1.9122 -1.3565 0
M  V30 24 H 1.1116 1.6318 1.1152 0
M  V30 25 H -1.7577 0.1994 1.6491 0
M  V30 26 H -1.6007 -2.0906 -2.0296 0
M  V30 27 H 1.9709 0.4353 -2.2604 0
M  V30 28 H 2.2793 1.2051 -0.6916 0
M  V30 29 H 0.6553 -0.4264 1.6224 0
M  V30 30 H 0.8177 -2.0629 0.982 0
M  V30 31 H -2.8499 4.1526 -0.4477 0
M  V30 32 H 0.6624 3.8404 1.9864 0
M  V30 33 H -3.4725 -1.323 2.4939 0
M  V30 34 H -3.3175 -3.5843 -1.1446 0
M  V30 35 H 4.3125 0.1632 -0.9645 0
M  V30 36 H 3.6462 -1.1371 -1.9902 0
M  V30 37 H 2.8635 -1.6915 2.106 0
M  V30 38 H 3.0221 -0.0029 1.5236 0
M  V30 39 H -1.3055 5.1289 1.2224 0
M  V30 40 H -4.2688 -3.2144 1.11 0
M  V30 41 H 4.4943 -1.6164 0.4086 0
M  V30 42 H 3.1542 -2.439 -0.211 0
M  V30 END ATOM
M  V30 BEGIN BOND
M  V30 1 1 1 2
M  V30 2 1 2 3
M  V30 3 1 2 4
M  V30 4 1 2 5
M  V30 5 2 3 6
M  V30 6 1 3 7
M  V30 7 2 4 8
M  V30 8 1 4 9
M  V30 9 1 5 10
M  V30 10 1 5 11
M  V30 11 1 6 12
M  V30 12 2 7 13
M  V30 13 1 8 14
M  V30 14 2 9 15
M  V30 15 1 10 16
M  V30 16 1 11 17
M  V30 17 2 12 18
M  V30 18 2 14 19
M  V30 19 1 16 20
M  V30 20 1 13 18
M  V30 21 1 15 19
M  V30 22 1 17 20
M  V30 23 1 1 21
M  V30 24 1 5 22
M  V30 25 1 6 23
M  V30 26 1 7 24
M  V30 27 1 8 25
M  V30 28 1 9 26
M  V30 29 1 10 27
M  V30 30 1 10 28
M  V30 31 1 11 29
M  V30 32 1 11 30
M  V30 33 1 12 31
M  V30 34 1 13 32
M  V30 35 1 14 33
M  V30 36 1 15 34
M  V30 37 1 16 35
M  V30 38 1 16 36
M  V30 39 1 17 37
M  V30 40 1 17 38
M  V30 41 1 18 39
M  V30 42 1 19 40
M  V30 43 1 20 41
M  V30 44 1 20 42
M  V30 END BOND
M  V30 END CTAB
M  END
>  <Structure No>
8318

>  <LogS>
-1.39

>  <MMFF94 Energy>
55.603

$$$$
Compound 8319
Actelion Java MolfileCreator 2.0

  0  0  0  0  0  0              0 V3000
M  V30 BEGIN CTAB
M  V30 COUNTS 28 30 0 0 0
M  V30 BEGIN ATOM
M  V30 1 O 2.416 1.0464 2.4966 0
M  V30 2 N 2.9627 0.8935 1.3847 0 CHG=1
M  V30 3 O 4.205 1.4453 1.1725 0 CHG=-1
M  V30 4 C 2.4548 -0.0895 0.4718 0
M  V30 5 C 1.0769 -0.1492 0.0982 0
M  V30 6 C 3.334 -1.0948 0.0416 0
M  V30 7 C 0.148 0.8997 0.349 0
M  V30 8 C 0.6082 -1.316 -0.5643 0
M  V30 9 C 2.8675 -2.193 -0.6728 0
M  V30 10 N 0.604 2.1961 0.7636 0
M  V30 11 C -1.2258 0.6969 0.0707 0
M  V30 12 N -0.7174 -1.4745 -0.8323 0 CHG=1
M  V30 13 C 1.5108 -2.3187 -0.9495 0
M  V30 14 C -1.6371 -0.5251 -0.5127 0
M  V30 15 C -2.2003 1.6901 0.3188 0
M  V30 16 C -2.9952 -0.7448 -0.7993 0
M  V30 17 C -3.5462 1.4551 0.0283 0
M  V30 18 C -3.9436 0.2394 -0.524 0
M  V30 19 H 4.3826 -1.0529 0.3092 0
M  V30 20 H 3.5558 -2.9702 -0.9793 0
M  V30 21 H 0.1007 2.7464 1.4929 0
M  V30 22 H 1.4582 2.6186 0.3375 0
M  V30 23 H -1.04 -2.3548 -1.2982 0
M  V30 24 H 1.162 -3.2008 -1.4725 0
M  V30 25 H -1.9434 2.6534 0.7334 0
M  V30 26 H -3.3189 -1.6775 -1.2446 0
M  V30 27 H -4.2839 2.2217 0.2292 0
M  V30 28 H -4.9876 0.0632 -0.7492 0
M  V30 END ATOM
M  V30 BEGIN BOND
M  V30 1 2 1 2
M  V30 2 1 2 3
M  V30 3 1 2 4
M  V30 4 1 4 5
M  V30 5 2 4 6
M  V30 6 2 5 7
M  V30 7 1 5 8
M  V30 8 1 6 9
M  V30 9 1 7 10
M  V30 10 1 7 11
M  V30 11 2 8 12
M  V30 12 1 8 13
M  V30 13 1 11 14
M  V30 14 2 11 15
M  V30 15 2 14 16
M  V30 16 1 15 17
M  V30 17 1 16 18
M  V30 18 2 9 13
M  V30 19 1 12 14
M  V30 20 2 17 18
M  V30 21 1 6 19
M  V30 22 1 9 20
M  V30 23 1 10 21
M  V30 24 1 10 22
M  V30 25 1 12 23
M  V30 26 1 13 24
M  V30 27 1 15 25
M  V30 28 1 16 26
M  V30 29 1 17 27
M  V30 30 1 18 28
M  V30 END BOND
M  V30 END CTAB
M  END
>  <Structure No>
8319

>  <LogS>
-1.84

>  <MMFF94 Energy>
98.003

$$$$
Compound 8320
Actelion Java MolfileCreator 2.0

  0  0  0  0  0  0              0 V3000
M  V30 BEGIN CTAB
M  V30 COUNTS 46 47 0 0 0
M  V30 BEGIN ATOM
M  V30 1 N -1.7293 0.4714 -0.7071 0 CHG=1
M  V30 2 C -3.0864 0.2902 -0.1399 0
M  V30 3 C -0.6833 -0.1496 0.1254 0
M  V30 4 C -4.0569 1.3537 -0.7259 0
M  V30 5 C -3.6376 -1.1307 -0.4053 0
M  V30 6 C 0.7137 0.1343 -0.4506 0
M  V30 7 C -5.5414 0.9344 -0.6912 0
M  V30 8 C -5.0056 -1.3507 0.2744 0
M  V30 9 N 1.7604 -0.4828 0.3833 0 CHG=1
M  V30 10 C -5.8274 -0.0578 0.4379 0
M  V30 11 C 3.1106 -0.3075 -0.1966 0
M  V30 12 C 3.552 1.1861 -0.1912 0
M  V30 13 C 4.1349 -1.1753 0.5648 0
M  V30 14 C 5.0796 1.3835 -0.1193 0
M  V30 15 C 5.5338 -1.115 -0.0821 0
M  V30 16 C 5.8295 0.2257 -0.7819 0
M  V30 17 H -1.5213 1.4968 -0.767 0
M  V30 18 H -1.6913 0.0739 -1.6756 0
M  V30 19 H -3.0528 0.4456 0.9639 0
M  V30 20 H -0.73 0.2546 1.1616 0
M  V30 21 H -0.8248 -1.2498 0.1694 0
M  V30 22 H -3.7871 1.5735 -1.7825 0
M  V30 23 H -3.9316 2.2991 -0.1534 0
M  V30 24 H -3.7464 -1.2789 -1.5027 0
M  V30 25 H -2.9385 -1.9074 -0.0348 0
M  V30 26 H 0.7635 -0.2702 -1.4865 0
M  V30 27 H 0.8587 1.2359 -0.4942 0
M  V30 28 H -5.8165 0.4628 -1.6606 0
M  V30 29 H -6.1798 1.8357 -0.565 0
M  V30 30 H -5.5874 -2.0832 -0.3265 0
M  V30 31 H -4.8504 -1.7992 1.28 0
M  V30 32 H 1.7306 -0.0736 1.3473 0
M  V30 33 H 1.5558 -1.5077 0.4558 0
M  V30 34 H -5.5808 0.4209 1.4113 0
M  V30 35 H -6.9109 -0.3058 0.4511 0
M  V30 36 H 3.1027 -0.6688 -1.2516 0
M  V30 37 H 3.0963 1.7234 0.6691 0
M  V30 38 H 3.1742 1.6694 -1.1188 0
M  V30 39 H 4.2 -0.8208 1.6177 0
M  V30 40 H 3.798 -2.2346 0.5893 0
M  V30 41 H 5.396 1.4561 0.9448 0
M  V30 42 H 5.3548 2.3388 -0.6165 0
M  V30 43 H 6.2971 -1.2958 0.7059 0
M  V30 44 H 5.6304 -1.9333 -0.8287 0
M  V30 45 H 6.9226 0.4255 -0.7549 0
M  V30 46 H 5.5258 0.1634 -1.8503 0
M  V30 END ATOM
M  V30 BEGIN BOND
M  V30 1 1 1 2
M  V30 2 1 1 3
M  V30 3 1 2 4
M  V30 4 1 2 5
M  V30 5 1 3 6
M  V30 6 1 4 7
M  V30 7 1 5 8
M  V30 8 1 6 9
M  V30 9 1 7 10
M  V30 10 1 9 11
M  V30 11 1 11 12
M  V30 12 1 11 13
M  V30 13 1 12 14
M  V30 14 1 13 15
M  V30 15 1 14 16
M  V30 16 1 8 10
M  V30 17 1 15 16
M  V30 18 1 1 17
M  V30 19 1 1 18
M  V30 20 1 2 19
M  V30 21 1 3 20
M  V30 22 1 3 21
M  V30 23 1 4 22
M  V30 24 1 4 23
M  V30 25 1 5 24
M  V30 26 1 5 25
M  V30 27 1 6 26
M  V30 28 1 6 27
M  V30 29 1 7 28
M  V30 30 1 7 29
M  V30 31 1 8 30
M  V30 32 1 8 31
M  V30 33 1 9 32
M  V30 34 1 9 33
M  V30 35 1 10 34
M  V30 36 1 10 35
M  V30 37 1 11 36
M  V30 38 1 12 37
M  V30 39 1 12 38
M  V30 40 1 13 39
M  V30 41 1 13 40
M  V30 42 1 14 41
M  V30 43 1 14 42
M  V30 44 1 15 43
M  V30 45 1 15 44
M  V30 46 1 16 45
M  V30 47 1 16 46
M  V30 END BOND
M  V30 END CTAB
M  END
>  <Structure No>
8320

>  <LogS>
-0.98

>  <MMFF94 Energy>
119.56

$$$$
Compound 8321
Actelion Java MolfileCreator 2.0

  0  0  0  0  0  0              0 V3000
M  V30 BEGIN CTAB
M  V30 COUNTS 29 31 0 0 0
M  V30 BEGIN ATOM
M  V30 1 F -2.0299 -2.6802 0.1622 0
M  V30 2 C -2.8644 -1.6686 0.6026 0
M  V30 3 F -4.1136 -1.9224 0.06 0
M  V30 4 F -2.9839 -1.7125 1.9785 0
M  V30 5 C -2.3466 -0.3051 0.1642 0
M  V30 6 C -0.9541 0.0354 0.0577 0
M  V30 7 C -3.3082 0.642 -0.2421 0
M  V30 8 C 0.1057 -0.7248 0.6324 0
M  V30 9 C -0.6021 1.2003 -0.6819 0
M  V30 10 C -2.9348 1.8227 -0.8724 0
M  V30 11 N -0.154 -1.6706 1.676 0
M  V30 12 C 1.4477 -0.4247 0.2978 0
M  V30 13 N 0.7011 1.4781 -0.9639 0 CHG=1
M  V30 14 C -1.5964 2.0811 -1.129 0
M  V30 15 C 1.7181 0.6881 -0.5301 0
M  V30 16 C 2.5338 -1.1776 0.7982 0
M  V30 17 C 3.0445 1.0071 -0.8679 0
M  V30 18 C 3.8466 -0.8489 0.4519 0
M  V30 19 C 4.1013 0.2374 -0.3827 0
M  V30 20 H -4.3662 0.4523 -0.1109 0
M  V30 21 H -3.6925 2.5226 -1.2015 0
M  V30 22 H -0.6882 -1.374 2.5212 0
M  V30 23 H 0.2723 -2.6229 1.667 0
M  V30 24 H 0.9287 2.325 -1.536 0
M  V30 25 H -1.3309 2.9832 -1.6669 0
M  V30 26 H 2.388 -2.0238 1.4536 0
M  V30 27 H 3.2608 1.8587 -1.5013 0
M  V30 28 H 4.6699 -1.438 0.8354 0
M  V30 29 H 5.1203 0.4899 -0.6462 0
M  V30 END ATOM
M  V30 BEGIN BOND
M  V30 1 1 1 2
M  V30 2 1 2 3
M  V30 3 1 2 4
M  V30 4 1 2 5
M  V30 5 1 5 6
M  V30 6 2 5 7
M  V30 7 2 6 8
M  V30 8 1 6 9
M  V30 9 1 7 10
M  V30 10 1 8 11
M  V30 11 1 8 12
M  V30 12 2 9 13
M  V30 13 1 9 14
M  V30 14 1 12 15
M  V30 15 2 12 16
M  V30 16 2 15 17
M  V30 17 1 16 18
M  V30 18 1 17 19
M  V30 19 2 10 14
M  V30 20 1 13 15
M  V30 21 2 18 19
M  V30 22 1 7 20
M  V30 23 1 10 21
M  V30 24 1 11 22
M  V30 25 1 11 23
M  V30 26 1 13 24
M  V30 27 1 14 25
M  V30 28 1 16 26
M  V30 29 1 17 27
M  V30 30 1 18 28
M  V30 31 1 19 29
M  V30 END BOND
M  V30 END CTAB
M  END
>  <Structure No>
8321

>  <LogS>
-2.48

>  <MMFF94 Energy>
90.54

$$$$
Compound 8322
Actelion Java MolfileCreator 2.0

  0  0  0  0  0  0              0 V3000
M  V30 BEGIN CTAB
M  V30 COUNTS 68 67 0 0 0
M  V30 BEGIN ATOM
M  V30 1 N -0.9304 -1.1632 -0.6978 0 CHG=1
M  V30 2 C -0.4514 -1.0128 0.6884 0
M  V30 3 C -2.2123 -0.465 -0.9155 0
M  V30 4 C 0.7743 -1.8999 0.9755 0
M  V30 5 C -3.4218 -1.3146 -0.4642 0
M  V30 6 N 1.9351 -1.5236 0.151 0 CHG=1
M  V30 7 C -4.7878 -0.6491 -0.7903 0 CFG=2
M  V30 8 C 3.1496 -2.2063 0.6246 0
M  V30 9 C -5.0985 0.4875 0.2341 0
M  V30 10 C -5.8864 -1.727 -0.8106 0
M  V30 11 C 4.3173 -2.1233 -0.3846 0
M  V30 12 C -6.3384 1.4154 -0.0194 0
M  V30 13 C 4.8968 -0.7107 -0.6845 0 CFG=2
M  V30 14 C -6.5032 1.7702 -1.512 0
M  V30 15 C -7.6422 0.7783 0.5145 0
M  V30 16 C -6.1188 2.7325 0.7624 0
M  V30 17 C 5.2179 0.0708 0.624 0
M  V30 18 C 4.0144 0.0775 -1.6724 0
M  V30 19 C 6.1708 1.3106 0.5346 0
M  V30 20 C 7.4528 0.994 -0.2635 0
M  V30 21 C 6.5818 1.6922 1.9754 0
M  V30 22 C 5.4624 2.5332 -0.0889 0
M  V30 23 H -1.0217 -2.1765 -0.9447 0
M  V30 24 H -0.2254 -0.7336 -1.3408 0
M  V30 25 H -1.2469 -1.3033 1.4074 0
M  V30 26 H -0.19 0.0508 0.8884 0
M  V30 27 H -2.3232 -0.2582 -2.0039 0
M  V30 28 H -2.2003 0.5211 -0.4042 0
M  V30 29 H 1.0237 -1.7903 2.0557 0
M  V30 30 H 0.5066 -2.9653 0.7956 0
M  V30 31 H -3.3477 -2.2902 -0.9924 0
M  V30 32 H -3.3653 -1.5287 0.6237 0
M  V30 33 H 2.0761 -0.4911 0.2241 0
M  V30 34 H 1.7517 -1.7947 -0.8426 0
M  V30 35 H -4.7165 -0.2234 -1.8142 0
M  V30 36 H 3.4617 -1.797 1.6104 0
M  V30 37 H 2.9345 -3.2881 0.7811 0
M  V30 38 H -4.204 1.1423 0.2671 0
M  V30 39 H -5.174 0.0462 1.2531 0
M  V30 40 H -6.1824 -2.0136 0.2214 0
M  V30 41 H -5.5443 -2.6394 -1.3441 0
M  V30 42 H -6.7687 -1.3723 -1.3762 0
M  V30 43 H 4.0174 -2.6203 -1.3332 0
M  V30 44 H 5.1434 -2.7449 0.0269 0
M  V30 45 H 5.8518 -0.9181 -1.2112 0
M  V30 46 H -7.3029 2.5305 -1.6476 0
M  V30 47 H -5.556 2.1848 -1.9199 0
M  V30 48 H -6.791 0.8814 -2.11 0
M  V30 49 H -7.5206 0.4603 1.5727 0
M  V30 50 H -7.9614 -0.0956 -0.0798 0
M  V30 51 H -8.4783 1.5097 0.4726 0
M  V30 52 H -6.9895 3.4151 0.6506 0
M  V30 53 H -5.2189 3.2692 0.3902 0
M  V30 54 H -5.9778 2.5255 1.8457 0
M  V30 55 H 4.2656 0.3868 1.1032 0
M  V30 56 H 5.6864 -0.6581 1.3227 0
M  V30 57 H 3.3354 0.7821 -1.1503 0
M  V30 58 H 4.6542 0.6552 -2.3706 0
M  V30 59 H 3.4024 -0.599 -2.305 0
M  V30 60 H 8.187 1.824 -0.1713 0
M  V30 61 H 7.9284 0.0639 0.1151 0
M  V30 62 H 7.2338 0.8711 -1.3451 0
M  V30 63 H 7.1295 0.8579 2.4648 0
M  V30 64 H 7.2472 2.5833 1.9794 0
M  V30 65 H 5.685 1.9283 2.589 0
M  V30 66 H 6.0728 3.4517 0.0511 0
M  V30 67 H 4.4722 2.7019 0.3862 0
M  V30 68 H 5.3209 2.4168 -1.1792 0
M  V30 END ATOM
M  V30 BEGIN BOND
M  V30 1 1 1 2
M  V30 2 1 1 3
M  V30 3 1 2 4
M  V30 4 1 3 5
M  V30 5 1 4 6
M  V30 6 1 5 7
M  V30 7 1 6 8
M  V30 8 1 7 9
M  V30 9 1 7 10
M  V30 10 1 8 11
M  V30 11 1 9 12
M  V30 12 1 11 13
M  V30 13 1 12 14
M  V30 14 1 12 15
M  V30 15 1 12 16
M  V30 16 1 13 17
M  V30 17 1 13 18
M  V30 18 1 17 19
M  V30 19 1 19 20
M  V30 20 1 19 21
M  V30 21 1 19 22
M  V30 22 1 1 23
M  V30 23 1 1 24
M  V30 24 1 2 25
M  V30 25 1 2 26
M  V30 26 1 3 27
M  V30 27 1 3 28
M  V30 28 1 4 29
M  V30 29 1 4 30
M  V30 30 1 5 31
M  V30 31 1 5 32
M  V30 32 1 6 33
M  V30 33 1 6 34
M  V30 34 1 7 35
M  V30 35 1 8 36
M  V30 36 1 8 37
M  V30 37 1 9 38
M  V30 38 1 9 39
M  V30 39 1 10 40
M  V30 40 1 10 41
M  V30 41 1 10 42
M  V30 42 1 11 43
M  V30 43 1 11 44
M  V30 44 1 13 45
M  V30 45 1 14 46
M  V30 46 1 14 47
M  V30 47 1 14 48
M  V30 48 1 15 49
M  V30 49 1 15 50
M  V30 50 1 15 51
M  V30 51 1 16 52
M  V30 52 1 16 53
M  V30 53 1 16 54
M  V30 54 1 17 55
M  V30 55 1 17 56
M  V30 56 1 18 57
M  V30 57 1 18 58
M  V30 58 1 18 59
M  V30 59 1 20 60
M  V30 60 1 20 61
M  V30 61 1 20 62
M  V30 62 1 21 63
M  V30 63 1 21 64
M  V30 64 1 21 65
M  V30 65 1 22 66
M  V30 66 1 22 67
M  V30 67 1 22 68
M  V30 END BOND
M  V30 BEGIN COLLECTION
M  V30 MDLV30/STEABS ATOMS=(2 7 13)
M  V30 END COLLECTION
M  V30 END CTAB
M  END
>  <Structure No>
8322

>  <LogS>
-2.24

>  <MMFF94 Energy>
158.33

$$$$
Compound 8323
Actelion Java MolfileCreator 2.0

  0  0  0  0  0  0              0 V3000
M  V30 BEGIN CTAB
M  V30 COUNTS 41 43 0 0 0
M  V30 BEGIN ATOM
M  V30 1 Cl 4.3475 3.5414 -0.2411 0
M  V30 2 C 3.2906 2.1316 -0.3173 0
M  V30 3 C 3.7566 0.82 -0.094 0
M  V30 4 C 1.9478 2.3499 -0.6077 0
M  V30 5 C 2.8467 -0.2774 -0.1708 0
M  V30 6 C 5.1123 0.5788 0.2079 0
M  V30 7 C 1.0534 1.2882 -0.686 0
M  V30 8 C 1.4723 -0.0412 -0.4811 0
M  V30 9 C 3.3443 -1.5805 0.0688 0
M  V30 10 C 5.5705 -0.7169 0.435 0
M  V30 11 C 0.4701 -1.2057 -0.5582 0 CFG=1
M  V30 12 C 4.6903 -1.7911 0.3669 0
M  V30 13 O 0.3209 -1.8242 0.6952 0
M  V30 14 C -0.9129 -0.9158 -1.2153 0
M  V30 15 N -1.9027 -0.2656 -0.308 0 CHG=1
M  V30 16 C -2.7858 0.6422 -1.0807 0
M  V30 17 C -2.7309 -1.2804 0.392 0
M  V30 18 C -3.7757 1.3739 -0.1619 0
M  V30 19 C -3.7098 -0.6177 1.3714 0
M  V30 20 C -4.6131 0.373 0.6356 0
M  V30 21 H 1.5883 3.3576 -0.7761 0
M  V30 22 H 5.8295 1.3857 0.273 0
M  V30 23 H 0.0313 1.5317 -0.9163 0
M  V30 24 H 2.7099 -2.4534 0.0343 0
M  V30 25 H 6.6138 -0.8884 0.6667 0
M  V30 26 H 0.9317 -1.9544 -1.2374 0
M  V30 27 H 5.0524 -2.7951 0.547 0
M  V30 28 H 0.1763 -1.1113 1.3709 0
M  V30 29 H -1.3224 -1.8761 -1.6055 0
M  V30 30 H -0.7296 -0.3082 -2.1304 0
M  V30 31 H -1.3982 0.3068 0.4089 0
M  V30 32 H -3.3503 0.0725 -1.8545 0
M  V30 33 H -2.1856 1.4147 -1.6089 0
M  V30 34 H -3.3093 -1.8891 -0.3406 0
M  V30 35 H -2.0966 -1.9821 0.9705 0
M  V30 36 H -4.4483 2.0118 -0.7747 0
M  V30 37 H -3.2167 2.0342 0.5368 0
M  V30 38 H -3.1413 -0.0882 2.1671 0
M  V30 39 H -4.3359 -1.3978 1.8554 0
M  V30 40 H -5.2426 0.9186 1.3712 0
M  V30 41 H -5.289 -0.1796 -0.0535 0
M  V30 END ATOM
M  V30 BEGIN BOND
M  V30 1 1 1 2
M  V30 2 1 2 3
M  V30 3 2 2 4
M  V30 4 1 3 5
M  V30 5 2 3 6
M  V30 6 1 4 7
M  V30 7 1 5 8
M  V30 8 2 5 9
M  V30 9 1 6 10
M  V30 10 1 8 11
M  V30 11 1 9 12
M  V30 12 1 11 13
M  V30 13 1 11 14
M  V30 14 1 14 15
M  V30 15 1 15 16
M  V30 16 1 15 17
M  V30 17 1 16 18
M  V30 18 1 17 19
M  V30 19 1 18 20
M  V30 20 2 7 8
M  V30 21 2 10 12
M  V30 22 1 19 20
M  V30 23 1 4 21
M  V30 24 1 6 22
M  V30 25 1 7 23
M  V30 26 1 9 24
M  V30 27 1 10 25
M  V30 28 1 11 26
M  V30 29 1 12 27
M  V30 30 1 13 28
M  V30 31 1 14 29
M  V30 32 1 14 30
M  V30 33 1 15 31
M  V30 34 1 16 32
M  V30 35 1 16 33
M  V30 36 1 17 34
M  V30 37 1 17 35
M  V30 38 1 18 36
M  V30 39 1 18 37
M  V30 40 1 19 38
M  V30 41 1 19 39
M  V30 42 1 20 40
M  V30 43 1 20 41
M  V30 END BOND
M  V30 BEGIN COLLECTION
M  V30 MDLV30/STEABS ATOMS=(1 11)
M  V30 END COLLECTION
M  V30 END CTAB
M  END
>  <Structure No>
8323

>  <LogS>
-1.55

>  <MMFF94 Energy>
81.192

$$$$
Compound 8324
Actelion Java MolfileCreator 2.0

  0  0  0  0  0  0              0 V3000
M  V30 BEGIN CTAB
M  V30 COUNTS 29 31 0 0 0
M  V30 BEGIN ATOM
M  V30 1 F -5.4428 -0.1621 -0.8109 0
M  V30 2 C -4.5676 -0.8593 0.0038 0
M  V30 3 F -4.997 -0.7605 1.314 0
M  V30 4 F -4.5892 -2.1893 -0.3786 0
M  V30 5 C -3.1719 -0.2972 -0.1045 0
M  V30 6 C -2.0579 -1.1108 0.1493 0
M  V30 7 C -2.9723 1.0631 -0.3779 0
M  V30 8 C -0.7554 -0.5869 0.0944 0
M  V30 9 C -1.6833 1.5969 -0.4334 0
M  V30 10 N 0.3114 -1.4071 0.3033 0 CHG=1
M  V30 11 C -0.556 0.7864 -0.1862 0
M  V30 12 C 1.5925 -0.9487 0.2552 0
M  V30 13 C 0.7646 1.2961 -0.2347 0
M  V30 14 C 1.853 0.4192 -0.0082 0
M  V30 15 C 2.6597 -1.8343 0.4808 0
M  V30 16 N 0.9978 2.6874 -0.5109 0
M  V30 17 C 3.1923 0.8678 -0.0026 0
M  V30 18 C 3.9759 -1.3743 0.4609 0
M  V30 19 C 4.2406 -0.0266 0.2251 0
M  V30 20 H -2.2013 -2.1579 0.3875 0
M  V30 21 H -3.8165 1.7183 -0.553 0
M  V30 22 H -1.5898 2.644 -0.681 0
M  V30 23 H 0.1423 -2.4202 0.5052 0
M  V30 24 H 2.4713 -2.8825 0.6782 0
M  V30 25 H 1.7994 2.9972 -1.1019 0
M  V30 26 H 0.3745 3.4303 -0.1264 0
M  V30 27 H 3.4477 1.906 -0.1562 0
M  V30 28 H 4.7921 -2.0625 0.6381 0
M  V30 29 H 5.2631 0.3287 0.2243 0
M  V30 END ATOM
M  V30 BEGIN BOND
M  V30 1 1 1 2
M  V30 2 1 2 3
M  V30 3 1 2 4
M  V30 4 1 2 5
M  V30 5 2 5 6
M  V30 6 1 5 7
M  V30 7 1 6 8
M  V30 8 2 7 9
M  V30 9 2 8 10
M  V30 10 1 8 11
M  V30 11 1 10 12
M  V30 12 2 11 13
M  V30 13 1 12 14
M  V30 14 2 12 15
M  V30 15 1 13 16
M  V30 16 2 14 17
M  V30 17 1 15 18
M  V30 18 1 17 19
M  V30 19 1 9 11
M  V30 20 1 13 14
M  V30 21 2 18 19
M  V30 22 1 6 20
M  V30 23 1 7 21
M  V30 24 1 9 22
M  V30 25 1 10 23
M  V30 26 1 15 24
M  V30 27 1 16 25
M  V30 28 1 16 26
M  V30 29 1 17 27
M  V30 30 1 18 28
M  V30 31 1 19 29
M  V30 END BOND
M  V30 END CTAB
M  END
>  <Structure No>
8324

>  <LogS>
-2.17

>  <MMFF94 Energy>
98.631

$$$$
Compound 8325
Actelion Java MolfileCreator 2.0

  0  0  0  0  0  0              0 V3000
M  V30 BEGIN CTAB
M  V30 COUNTS 50 51 0 0 0
M  V30 BEGIN ATOM
M  V30 1 O -5.0454 -1.5745 -1.4958 0
M  V30 2 C -3.7901 -0.9769 -1.2806 0
M  V30 3 C -5.3113 -2.9698 -1.3895 0
M  V30 4 C -3.6534 0.4154 -1.4289 0
M  V30 5 C -2.6717 -1.7392 -0.9335 0
M  V30 6 C -2.3901 1.0488 -1.2113 0
M  V30 7 C -4.7697 1.1869 -1.811 0
M  V30 8 C -1.4415 -1.1376 -0.7009 0
M  V30 9 C -1.2652 0.2629 -0.7837 0
M  V30 10 C -2.3061 2.4451 -1.4468 0
M  V30 11 C -4.6536 2.5596 -2.0037 0
M  V30 12 C 0.1235 0.8846 -0.4586 0 CFG=1
M  V30 13 C -3.4251 3.1838 -1.8314 0
M  V30 14 O -0.0497 2.0751 0.2727 0
M  V30 15 C 1.0462 -0.0599 0.3844 0
M  V30 16 C 0.8339 1.2119 -1.7885 0
M  V30 17 C 2.3464 0.6092 0.8984 0
M  V30 18 N 3.0403 -0.1967 1.9399 0 CHG=1
M  V30 19 C 3.4251 -1.5597 1.4801 0
M  V30 20 C 4.2203 0.5335 2.4793 0
M  V30 21 C 4.3552 -1.5791 0.2575 0
M  V30 22 C 3.8354 1.5825 3.5301 0
M  V30 23 H -5.0952 -3.3229 -0.3591 0
M  V30 24 H -6.383 -3.152 -1.6089 0
M  V30 25 H -4.6983 -3.5329 -2.1246 0
M  V30 26 H -2.7411 -2.814 -0.8341 0
M  V30 27 H -5.7389 0.7313 -1.9723 0
M  V30 28 H -0.6344 -1.8029 -0.4432 0
M  V30 29 H -1.3858 2.9971 -1.3684 0
M  V30 30 H -5.5174 3.1397 -2.3025 0
M  V30 31 H -3.336 4.249 -2.0031 0
M  V30 32 H -0.5525 1.8491 1.0997 0
M  V30 33 H 0.4714 -0.4316 1.2615 0
M  V30 34 H 1.3433 -0.9283 -0.2394 0
M  V30 35 H 0.1789 1.7791 -2.4794 0
M  V30 36 H 1.7392 1.829 -1.6114 0
M  V30 37 H 1.1347 0.2778 -2.31 0
M  V30 38 H 2.0795 1.5958 1.3278 0
M  V30 39 H 3.0274 0.8153 0.0455 0
M  V30 40 H 2.3644 -0.3411 2.7282 0
M  V30 41 H 3.929 -2.1067 2.3088 0
M  V30 42 H 2.52 -2.1636 1.2551 0
M  V30 43 H 4.7869 1.0342 1.6627 0
M  V30 44 H 4.9263 -0.1685 2.9783 0
M  V30 45 H 4.67 -2.6251 0.0576 0
M  V30 46 H 5.2681 -0.9759 0.4375 0
M  V30 47 H 3.8341 -1.2087 -0.6484 0
M  V30 48 H 4.7574 2.0398 3.947 0
M  V30 49 H 3.2737 1.1093 4.3631 0
M  V30 50 H 3.2227 2.3933 3.0874 0
M  V30 END ATOM
M  V30 BEGIN BOND
M  V30 1 1 1 2
M  V30 2 1 1 3
M  V30 3 1 2 4
M  V30 4 2 2 5
M  V30 5 1 4 6
M  V30 6 2 4 7
M  V30 7 1 5 8
M  V30 8 1 6 9
M  V30 9 2 6 10
M  V30 10 1 7 11
M  V30 11 1 9 12
M  V30 12 1 10 13
M  V30 13 1 12 14
M  V30 14 1 12 15
M  V30 15 1 12 16
M  V30 16 1 15 17
M  V30 17 1 17 18
M  V30 18 1 18 19
M  V30 19 1 18 20
M  V30 20 1 19 21
M  V30 21 1 20 22
M  V30 22 2 8 9
M  V30 23 2 11 13
M  V30 24 1 3 23
M  V30 25 1 3 24
M  V30 26 1 3 25
M  V30 27 1 5 26
M  V30 28 1 7 27
M  V30 29 1 8 28
M  V30 30 1 10 29
M  V30 31 1 11 30
M  V30 32 1 13 31
M  V30 33 1 14 32
M  V30 34 1 15 33
M  V30 35 1 15 34
M  V30 36 1 16 35
M  V30 37 1 16 36
M  V30 38 1 16 37
M  V30 39 1 17 38
M  V30 40 1 17 39
M  V30 41 1 18 40
M  V30 42 1 19 41
M  V30 43 1 19 42
M  V30 44 1 20 43
M  V30 45 1 20 44
M  V30 46 1 21 45
M  V30 47 1 21 46
M  V30 48 1 21 47
M  V30 49 1 22 48
M  V30 50 1 22 49
M  V30 51 1 22 50
M  V30 END BOND
M  V30 BEGIN COLLECTION
M  V30 MDLV30/STEABS ATOMS=(1 12)
M  V30 END COLLECTION
M  V30 END CTAB
M  END
>  <Structure No>
8325

>  <LogS>
-1.68

>  <MMFF94 Energy>
74.221

$$$$
Compound 8326
Actelion Java MolfileCreator 2.0

  0  0  0  0  0  0              0 V3000
M  V30 BEGIN CTAB
M  V30 COUNTS 34 35 0 0 0
M  V30 BEGIN ATOM
M  V30 1 O -2.5727 -0.0778 -0.2336 0
M  V30 2 C -3.7773 0.2696 0.1621 0
M  V30 3 C -1.8243 -0.2737 0.8264 0
M  V30 4 C -4.89 0.5696 -0.7668 0
M  V30 5 C -3.819 0.3078 1.5471 0
M  V30 6 C -2.5551 -0.0403 1.9735 0
M  V30 7 C -0.3782 -0.6521 0.7712 0
M  V30 8 N -4.6951 0.5155 -2.0502 0 CHG=1
M  V30 9 N -6.1853 0.9219 -0.2651 0
M  V30 10 C 0.4979 0.5994 0.7159 0
M  V30 11 C 1.9439 0.2217 0.6512 0
M  V30 12 O 2.5965 0.0055 -0.4664 0
M  V30 13 C 2.7735 0.0126 1.7339 0
M  V30 14 C 3.8324 -0.3322 -0.1713 0
M  V30 15 C 3.9959 -0.3423 1.2049 0
M  V30 16 C 4.8603 -0.6476 -1.1888 0
M  V30 17 N 4.5572 -0.6037 -2.4515 0 CHG=1
M  V30 18 N 6.1922 -1.0012 -0.7958 0
M  V30 19 H -4.6558 0.5624 2.1822 0
M  V30 20 H -2.2088 -0.109 2.9962 0
M  V30 21 H -0.1196 -1.2568 1.6681 0
M  V30 22 H -0.2026 -1.2755 -0.1323 0
M  V30 23 H -5.4701 0.7256 -2.7182 0
M  V30 24 H -3.7645 0.2639 -2.4524 0
M  V30 25 H -6.3828 0.9746 0.7572 0
M  V30 26 H -6.9688 1.1354 -0.9216 0
M  V30 27 H 0.2412 1.1996 -0.1841 0
M  V30 28 H 0.3196 1.2274 1.6162 0
M  V30 29 H 2.5185 0.1026 2.7816 0
M  V30 30 H 4.8864 -0.5813 1.7687 0
M  V30 31 H 3.5969 -0.3507 -2.7755 0
M  V30 32 H 5.2719 -0.8229 -3.1809 0
M  V30 33 H 6.4756 -1.0456 0.2063 0
M  V30 34 H 6.9162 -1.2236 -1.5146 0
M  V30 END ATOM
M  V30 BEGIN BOND
M  V30 1 1 1 2
M  V30 2 1 1 3
M  V30 3 1 2 4
M  V30 4 2 2 5
M  V30 5 2 3 6
M  V30 6 1 3 7
M  V30 7 2 4 8
M  V30 8 1 4 9
M  V30 9 1 7 10
M  V30 10 1 10 11
M  V30 11 1 11 12
M  V30 12 2 11 13
M  V30 13 1 12 14
M  V30 14 1 13 15
M  V30 15 1 14 16
M  V30 16 2 16 17
M  V30 17 1 16 18
M  V30 18 1 5 6
M  V30 19 2 14 15
M  V30 20 1 5 19
M  V30 21 1 6 20
M  V30 22 1 7 21
M  V30 23 1 7 22
M  V30 24 1 8 23
M  V30 25 1 8 24
M  V30 26 1 9 25
M  V30 27 1 9 26
M  V30 28 1 10 27
M  V30 29 1 10 28
M  V30 30 1 13 29
M  V30 31 1 15 30
M  V30 32 1 17 31
M  V30 33 1 17 32
M  V30 34 1 18 33
M  V30 35 1 18 34
M  V30 END BOND
M  V30 END CTAB
M  END
>  <Structure No>
8326

>  <LogS>
-1.02

>  <MMFF94 Energy>
-7.5136

$$$$
Compound 8327
Actelion Java MolfileCreator 2.0

  0  0  0  0  0  0              0 V3000
M  V30 BEGIN CTAB
M  V30 COUNTS 47 48 0 0 0
M  V30 BEGIN ATOM
M  V30 1 O 1.4208 -1.5787 2.2898 0
M  V30 2 C 1.4953 -0.8081 1.2929 0
M  V30 3 O 0.3899 -0.0352 0.9218 0
M  V30 4 C 2.7501 -0.7193 0.5141 0
M  V30 5 C -0.8477 -0.0735 1.6244 0
M  V30 6 C 2.8359 0.1356 -0.5971 0
M  V30 7 C 3.8726 -1.487 0.87 0
M  V30 8 C -1.8394 0.8824 0.9612 0
M  V30 9 C 4.02 0.2216 -1.3346 0
M  V30 10 C 5.0563 -1.3999 0.131 0
M  V30 11 N -3.1229 0.9119 1.6957 0 CHG=1
M  V30 12 C 5.1395 -0.5382 -0.9792 0
M  V30 13 C -4.2605 1.4867 0.9313 0 CFG=2
M  V30 14 O 6.3006 -0.4103 -1.7593 0
M  V30 15 C -4.9408 0.509 -0.0316 0
M  V30 16 C -3.8869 2.8032 0.2203 0
M  V30 17 C 7.5592 -1.0255 -1.4835 0
M  V30 18 C -6.1871 0.8729 -0.5819 0
M  V30 19 C -4.3998 -0.7494 -0.3812 0
M  V30 20 C 8.2772 -0.3034 -0.3483 0
M  V30 21 C -6.8561 0.0249 -1.4684 0
M  V30 22 C -5.0749 -1.593 -1.269 0
M  V30 23 C -6.2987 -1.2054 -1.8148 0
M  V30 24 H -1.2539 -1.1084 1.6013 0
M  V30 25 H -0.6855 0.2327 2.681 0
M  V30 26 H 1.9891 0.7392 -0.8985 0
M  V30 27 H 3.8371 -2.1573 1.7199 0
M  V30 28 H -1.9814 0.5752 -0.0964 0
M  V30 29 H -1.3866 1.8992 0.9539 0
M  V30 30 H 4.0688 0.8859 -2.1882 0
M  V30 31 H 5.8952 -2.0098 0.4332 0
M  V30 32 H -2.9808 1.4979 2.5527 0
M  V30 33 H -3.3829 -0.042 2.0394 0
M  V30 34 H -5.0403 1.759 1.6802 0
M  V30 35 H -4.7998 3.3356 -0.1194 0
M  V30 36 H -3.3467 3.4759 0.9197 0
M  V30 37 H -3.2488 2.6091 -0.6676 0
M  V30 38 H 7.432 -2.1043 -1.2529 0
M  V30 39 H 8.1885 -0.9543 -2.3954 0
M  V30 40 H -6.6476 1.8174 -0.32 0
M  V30 41 H -3.4694 -1.1077 0.0299 0
M  V30 42 H 9.2705 -0.7694 -0.1794 0
M  V30 43 H 7.6906 -0.3657 0.5911 0
M  V30 44 H 8.422 0.7652 -0.613 0
M  V30 45 H -7.8102 0.3218 -1.8846 0
M  V30 46 H -4.6494 -2.5534 -1.5299 0
M  V30 47 H -6.8186 -1.8619 -2.5005 0
M  V30 END ATOM
M  V30 BEGIN BOND
M  V30 1 2 1 2
M  V30 2 1 2 3
M  V30 3 1 2 4
M  V30 4 1 3 5
M  V30 5 2 4 6
M  V30 6 1 4 7
M  V30 7 1 5 8
M  V30 8 1 6 9
M  V30 9 2 7 10
M  V30 10 1 8 11
M  V30 11 2 9 12
M  V30 12 1 11 13
M  V30 13 1 12 14
M  V30 14 1 13 15
M  V30 15 1 13 16
M  V30 16 1 14 17
M  V30 17 2 15 18
M  V30 18 1 15 19
M  V30 19 1 17 20
M  V30 20 1 18 21
M  V30 21 2 19 22
M  V30 22 2 21 23
M  V30 23 1 10 12
M  V30 24 1 22 23
M  V30 25 1 5 24
M  V30 26 1 5 25
M  V30 27 1 6 26
M  V30 28 1 7 27
M  V30 29 1 8 28
M  V30 30 1 8 29
M  V30 31 1 9 30
M  V30 32 1 10 31
M  V30 33 1 11 32
M  V30 34 1 11 33
M  V30 35 1 13 34
M  V30 36 1 16 35
M  V30 37 1 16 36
M  V30 38 1 16 37
M  V30 39 1 17 38
M  V30 40 1 17 39
M  V30 41 1 18 40
M  V30 42 1 19 41
M  V30 43 1 20 42
M  V30 44 1 20 43
M  V30 45 1 20 44
M  V30 46 1 21 45
M  V30 47 1 22 46
M  V30 48 1 23 47
M  V30 END BOND
M  V30 BEGIN COLLECTION
M  V30 MDLV30/STEABS ATOMS=(1 13)
M  V30 END COLLECTION
M  V30 END CTAB
M  END
>  <Structure No>
8327

>  <LogS>
-1.49

>  <MMFF94 Energy>
55.824

$$$$
Compound 8328
Actelion Java MolfileCreator 2.0

  0  0  0  0  0  0              0 V3000
M  V30 BEGIN CTAB
M  V30 COUNTS 38 39 0 0 0
M  V30 BEGIN ATOM
M  V30 1 O 1.5157 0.6379 -0.8773 0
M  V30 2 C 1.2679 -0.0717 0.1351 0
M  V30 3 N 2.3476 -0.5351 0.9642 0
M  V30 4 C -0.1335 -0.4002 0.4865 0
M  V30 5 C 3.7325 -0.4459 0.5812 0
M  V30 6 O -0.3533 -1.1268 1.4928 0
M  V30 7 C -1.2855 0.0867 -0.308 0
M  V30 8 C 4.7217 -0.0995 1.5322 0
M  V30 9 C 4.1226 -0.7562 -0.7344 0
M  V30 10 O -1.0918 0.7999 -1.3298 0
M  V30 11 N -2.6283 -0.2263 0.1006 0
M  V30 12 C 6.0727 -0.0678 1.1452 0
M  V30 13 C 4.353 0.2232 2.9547 0
M  V30 14 C 5.4675 -0.7094 -1.1058 0
M  V30 15 C -3.7828 0.0204 -0.7232 0
M  V30 16 C 6.4405 -0.3654 -0.1681 0
M  V30 17 C -4.9849 0.5028 -0.1526 0
M  V30 18 C -3.7429 -0.2681 -2.0997 0
M  V30 19 C -6.1133 0.6884 -0.9701 0
M  V30 20 C -5.0794 0.8087 1.3174 0
M  V30 21 C -4.8691 -0.0678 -2.9001 0
M  V30 22 C -6.0517 0.4097 -2.3366 0
M  V30 23 H 2.1207 -0.9 1.9162 0
M  V30 24 H 3.3879 -1.0594 -1.4689 0
M  V30 25 H -2.7798 -0.5959 1.0655 0
M  V30 26 H 6.8443 0.1894 1.8602 0
M  V30 27 H 3.5063 0.9415 2.9763 0
M  V30 28 H 4.0601 -0.7076 3.4837 0
M  V30 29 H 5.2027 0.6861 3.5004 0
M  V30 30 H 5.7568 -0.9511 -2.1203 0
M  V30 31 H 7.4829 -0.3357 -0.4575 0
M  V30 32 H -2.8464 -0.6724 -2.5511 0
M  V30 33 H -7.0435 1.0512 -0.5505 0
M  V30 34 H -4.2095 1.4204 1.637 0
M  V30 35 H -5.0952 -0.1393 1.8944 0
M  V30 36 H -6.001 1.3814 1.5557 0
M  V30 37 H -4.8279 -0.2943 -3.9577 0
M  V30 38 H -6.925 0.5583 -2.9585 0
M  V30 END ATOM
M  V30 BEGIN BOND
M  V30 1 2 1 2
M  V30 2 1 2 3
M  V30 3 1 2 4
M  V30 4 1 3 5
M  V30 5 2 4 6
M  V30 6 1 4 7
M  V30 7 2 5 8
M  V30 8 1 5 9
M  V30 9 2 7 10
M  V30 10 1 7 11
M  V30 11 1 8 12
M  V30 12 1 8 13
M  V30 13 2 9 14
M  V30 14 1 11 15
M  V30 15 2 12 16
M  V30 16 2 15 17
M  V30 17 1 15 18
M  V30 18 1 17 19
M  V30 19 1 17 20
M  V30 20 2 18 21
M  V30 21 2 19 22
M  V30 22 1 14 16
M  V30 23 1 21 22
M  V30 24 1 3 23
M  V30 25 1 9 24
M  V30 26 1 11 25
M  V30 27 1 12 26
M  V30 28 1 13 27
M  V30 29 1 13 28
M  V30 30 1 13 29
M  V30 31 1 14 30
M  V30 32 1 16 31
M  V30 33 1 18 32
M  V30 34 1 19 33
M  V30 35 1 20 34
M  V30 36 1 20 35
M  V30 37 1 20 36
M  V30 38 1 21 37
M  V30 39 1 22 38
M  V30 END BOND
M  V30 END CTAB
M  END
>  <Structure No>
8328

>  <LogS>
-2.2

>  <MMFF94 Energy>
76.967

$$$$
Compound 8329
Actelion Java MolfileCreator 2.0

  0  0  0  0  0  0              0 V3000
M  V30 BEGIN CTAB
M  V30 COUNTS 19 20 0 0 0
M  V30 BEGIN ATOM
M  V30 1 O 3.8252 -1.4124 0.9137 0
M  V30 2 N 3.3201 -0.3879 0.4117 0 CHG=1
M  V30 3 O 4.1423 0.6316 -0.0066 0 CHG=-1
M  V30 4 C 1.8989 -0.2766 0.2735 0 CHG=-1 CFG=2
M  V30 5 C 0.9057 -1.2725 0.6708 0
M  V30 6 C 1.1567 0.8547 -0.2921 0
M  V30 7 O 1.1422 -2.3905 1.1994 0
M  V30 8 C -0.4121 -0.7407 0.3455 0
M  V30 9 N 1.7021 1.9367 -0.7562 0
M  V30 10 C -0.2781 0.5176 -0.225 0
M  V30 11 C -1.6624 -1.3273 0.5388 0
M  V30 12 O 0.9661 2.9736 -1.2781 0 CHG=-1
M  V30 13 C -1.4081 1.2406 -0.6266 0
M  V30 14 C -2.8024 -0.6127 0.1404 0
M  V30 15 C -2.6757 0.6642 -0.4391 0
M  V30 16 H -1.7539 -2.3091 0.9848 0
M  V30 17 H -1.3316 2.2206 -1.0725 0
M  V30 18 H -3.7845 -1.0456 0.2794 0
M  V30 19 H -3.5621 1.206 -0.7425 0
M  V30 END ATOM
M  V30 BEGIN BOND
M  V30 1 2 1 2
M  V30 2 1 2 3
M  V30 3 1 2 4
M  V30 4 1 4 5
M  V30 5 1 4 6
M  V30 6 2 5 7
M  V30 7 1 5 8
M  V30 8 2 6 9
M  V30 9 1 6 10
M  V30 10 1 8 11
M  V30 11 1 9 12
M  V30 12 1 10 13
M  V30 13 2 11 14
M  V30 14 2 13 15
M  V30 15 2 8 10
M  V30 16 1 14 15
M  V30 17 1 11 16
M  V30 18 1 13 17
M  V30 19 1 14 18
M  V30 20 1 15 19
M  V30 END BOND
M  V30 BEGIN COLLECTION
M  V30 MDLV30/STEABS ATOMS=(1 4)
M  V30 END COLLECTION
M  V30 END CTAB
M  END
>  <Structure No>
8329

>  <LogS>
-2.68

>  <MMFF94 Energy>
10.017

$$$$
Compound 8330
Actelion Java MolfileCreator 2.0

  0  0  0  0  0  0              0 V3000
M  V30 BEGIN CTAB
M  V30 COUNTS 50 52 0 0 0
M  V30 BEGIN ATOM
M  V30 1 O 3.5852 -0.3978 2.1499 0
M  V30 2 C 3.9784 0.3102 1.1825 0
M  V30 3 C 5.1184 -0.1632 0.3589 0
M  V30 4 C 3.2978 1.6328 0.9213 0
M  V30 5 C 5.3863 -1.5426 0.2632 0
M  V30 6 C 5.9614 0.7409 -0.3168 0
M  V30 7 C 1.7694 1.5475 1.0631 0
M  V30 8 C 6.4585 -2.0063 -0.5061 0
M  V30 9 C 7.033 0.2713 -1.0838 0
M  V30 10 C 1.1388 0.6433 -0.017 0
M  V30 11 C 7.279 -1.1004 -1.1816 0
M  V30 12 N -0.3437 0.6662 0.0236 0 CHG=1 CFG=1
M  V30 13 C -0.8854 -0.032 -1.1636 0
M  V30 14 C -0.8605 0.0718 1.29 0
M  V30 15 C -2.418 0.1289 -1.2744 0
M  V30 16 C -2.2905 -0.5033 1.1679 0
M  V30 17 C -3.1203 0.2585 0.1032 0 CFG=1
M  V30 18 O -3.1485 1.6276 0.4499 0
M  V30 19 C -4.5527 -0.2899 -3.0E-4 0
M  V30 20 C -4.7896 -1.6771 -0.1277 0
M  V30 21 C -5.6635 0.5816 -0.0618 0
M  V30 22 C -6.0905 -2.1724 -0.2558 0
M  V30 23 C -6.9617 0.0788 -0.1902 0
M  V30 24 C -7.1757 -1.2966 -0.2801 0
M  V30 25 H 3.6876 2.3762 1.6489 0
M  V30 26 H 3.5309 2.0034 -0.099 0
M  V30 27 H 4.7592 -2.2631 0.774 0
M  V30 28 H 5.812 1.8102 -0.2373 0
M  V30 29 H 1.514 1.1797 2.08 0
M  V30 30 H 1.3538 2.5738 0.964 0
M  V30 31 H 6.652 -3.0693 -0.5793 0
M  V30 32 H 7.6759 0.9731 -1.5996 0
M  V30 33 H 1.5132 -0.399 0.0956 0
M  V30 34 H 1.4912 1.0124 -1.0072 0
M  V30 35 H 8.108 -1.4602 -1.7769 0
M  V30 36 H -0.6448 1.6688 -0.0314 0
M  V30 37 H -0.632 -1.1162 -1.1132 0
M  V30 38 H -0.4316 0.3688 -2.0983 0
M  V30 39 H -0.1963 -0.7454 1.6524 0
M  V30 40 H -0.8714 0.8545 2.0813 0
M  V30 41 H -2.6492 1.028 -1.8882 0
M  V30 42 H -2.806 -0.7463 -1.8407 0
M  V30 43 H -2.7961 -0.459 2.1578 0
M  V30 44 H -2.1986 -1.5755 0.8943 0
M  V30 45 H -3.5179 1.7046 1.3697 0
M  V30 46 H -3.9723 -2.3836 -0.1508 0
M  V30 47 H -5.5383 1.6554 -0.0173 0
M  V30 48 H -6.2558 -3.2384 -0.3462 0
M  V30 49 H -7.8033 0.7588 -0.2272 0
M  V30 50 H -8.1817 -1.683 -0.3831 0
M  V30 END ATOM
M  V30 BEGIN BOND
M  V30 1 2 1 2
M  V30 2 1 2 3
M  V30 3 1 2 4
M  V30 4 2 3 5
M  V30 5 1 3 6
M  V30 6 1 4 7
M  V30 7 1 5 8
M  V30 8 2 6 9
M  V30 9 1 7 10
M  V30 10 2 8 11
M  V30 11 1 10 12
M  V30 12 1 12 13
M  V30 13 1 12 14
M  V30 14 1 13 15
M  V30 15 1 14 16
M  V30 16 1 15 17
M  V30 17 1 17 18
M  V30 18 1 17 19
M  V30 19 2 19 20
M  V30 20 1 19 21
M  V30 21 1 20 22
M  V30 22 2 21 23
M  V30 23 2 22 24
M  V30 24 1 9 11
M  V30 25 1 16 17
M  V30 26 1 23 24
M  V30 27 1 4 25
M  V30 28 1 4 26
M  V30 29 1 5 27
M  V30 30 1 6 28
M  V30 31 1 7 29
M  V30 32 1 7 30
M  V30 33 1 8 31
M  V30 34 1 9 32
M  V30 35 1 10 33
M  V30 36 1 10 34
M  V30 37 1 11 35
M  V30 38 1 12 36
M  V30 39 1 13 37
M  V30 40 1 13 38
M  V30 41 1 14 39
M  V30 42 1 14 40
M  V30 43 1 15 41
M  V30 44 1 15 42
M  V30 45 1 16 43
M  V30 46 1 16 44
M  V30 47 1 18 45
M  V30 48 1 20 46
M  V30 49 1 21 47
M  V30 50 1 22 48
M  V30 51 1 23 49
M  V30 52 1 24 50
M  V30 END BOND
M  V30 BEGIN COLLECTION
M  V30 MDLV30/STEABS ATOMS=(2 12 17)
M  V30 END COLLECTION
M  V30 END CTAB
M  END
>  <Structure No>
8330

>  <LogS>
-2.68

>  <MMFF94 Energy>
44.025

$$$$
Compound 8331
Actelion Java MolfileCreator 2.0

  0  0  0  0  0  0              0 V3000
M  V30 BEGIN CTAB
M  V30 COUNTS 53 55 0 0 0
M  V30 BEGIN ATOM
M  V30 1 O 3.9016 -1.9891 0.2385 0
M  V30 2 C 4.4878 -0.8795 0.0998 0
M  V30 3 C 5.9755 -0.837 0.124 0
M  V30 4 C 3.6686 0.3735 -0.111 0
M  V30 5 C 6.7079 -1.9947 0.4543 0
M  V30 6 C 6.6828 0.3438 -0.1833 0
M  V30 7 C 2.1614 0.1492 0.0863 0
M  V30 8 C 8.1055 -1.9696 0.4803 0
M  V30 9 C 8.0807 0.3618 -0.1556 0
M  V30 10 C 1.3815 1.4737 -0.0841 0
M  V30 11 C 8.7911 -0.7928 0.1762 0
M  V30 12 N -0.0973 1.3281 -0.097 0 CHG=1 CFG=1
M  V30 13 C -0.5972 0.8242 -1.403 0
M  V30 14 C -0.6067 0.5303 1.0368 0
M  V30 15 C -2.0173 0.2151 -1.3224 0
M  V30 16 C -2.1394 0.6543 1.1635 0
M  V30 17 C -2.8746 0.8574 -0.2035 0 CFG=1
M  V30 18 O -2.9782 2.2314 -0.5117 0
M  V30 19 C -4.2954 0.2636 -0.116 0
M  V30 20 C -5.1655 0.715 0.9001 0
M  V30 21 C -4.7847 -0.7096 -1.0189 0
M  V30 22 C -6.4635 0.2122 1.016 0
M  V30 23 C -6.0845 -1.2098 -0.899 0
M  V30 24 C -6.9259 -0.7643 0.127 0
M  V30 25 C -8.3328 -1.2749 0.2278 0
M  V30 26 H 3.8489 0.7436 -1.1434 0
M  V30 27 H 4.0099 1.148 0.6099 0
M  V30 28 H 6.2018 -2.9206 0.6969 0
M  V30 29 H 6.1655 1.2547 -0.4521 0
M  V30 30 H 1.9978 -0.2469 1.1119 0
M  V30 31 H 1.8136 -0.6089 -0.6442 0
M  V30 32 H 8.6573 -2.8646 0.737 0
M  V30 33 H 8.6139 1.2731 -0.3939 0
M  V30 34 H 1.71 1.9763 -1.0223 0
M  V30 35 H 1.6731 2.1532 0.749 0
M  V30 36 H 9.8731 -0.7756 0.1966 0
M  V30 37 H -0.4697 2.3013 0.0215 0
M  V30 38 H 0.0773 0.0549 -1.833 0
M  V30 39 H -0.6136 1.6656 -2.1326 0
M  V30 40 H -0.351 -0.544 0.8945 0
M  V30 41 H -0.1414 0.8666 1.9907 0
M  V30 42 H -2.5065 0.3557 -2.3112 0
M  V30 43 H -1.9233 -0.8777 -1.1332 0
M  V30 44 H -2.3731 1.4949 1.8525 0
M  V30 45 H -2.5064 -0.2708 1.6619 0
M  V30 46 H -3.4216 2.7005 0.2413 0
M  V30 47 H -4.8403 1.46 1.6144 0
M  V30 48 H -4.1809 -1.0988 -1.8244 0
M  V30 49 H -7.1078 0.5851 1.8028 0
M  V30 50 H -6.4347 -1.9486 -1.6096 0
M  V30 51 H -9.0025 -0.6342 -0.3828 0
M  V30 52 H -8.3973 -2.3209 -0.1398 0
M  V30 53 H -8.6804 -1.2603 1.2828 0
M  V30 END ATOM
M  V30 BEGIN BOND
M  V30 1 2 1 2
M  V30 2 1 2 3
M  V30 3 1 2 4
M  V30 4 2 3 5
M  V30 5 1 3 6
M  V30 6 1 4 7
M  V30 7 1 5 8
M  V30 8 2 6 9
M  V30 9 1 7 10
M  V30 10 2 8 11
M  V30 11 1 10 12
M  V30 12 1 12 13
M  V30 13 1 12 14
M  V30 14 1 13 15
M  V30 15 1 14 16
M  V30 16 1 15 17
M  V30 17 1 17 18
M  V30 18 1 17 19
M  V30 19 2 19 20
M  V30 20 1 19 21
M  V30 21 1 20 22
M  V30 22 2 21 23
M  V30 23 2 22 24
M  V30 24 1 24 25
M  V30 25 1 9 11
M  V30 26 1 16 17
M  V30 27 1 23 24
M  V30 28 1 4 26
M  V30 29 1 4 27
M  V30 30 1 5 28
M  V30 31 1 6 29
M  V30 32 1 7 30
M  V30 33 1 7 31
M  V30 34 1 8 32
M  V30 35 1 9 33
M  V30 36 1 10 34
M  V30 37 1 10 35
M  V30 38 1 11 36
M  V30 39 1 12 37
M  V30 40 1 13 38
M  V30 41 1 13 39
M  V30 42 1 14 40
M  V30 43 1 14 41
M  V30 44 1 15 42
M  V30 45 1 15 43
M  V30 46 1 16 44
M  V30 47 1 16 45
M  V30 48 1 18 46
M  V30 49 1 20 47
M  V30 50 1 21 48
M  V30 51 1 22 49
M  V30 52 1 23 50
M  V30 53 1 25 51
M  V30 54 1 25 52
M  V30 55 1 25 53
M  V30 END BOND
M  V30 BEGIN COLLECTION
M  V30 MDLV30/STEABS ATOMS=(2 12 17)
M  V30 END COLLECTION
M  V30 END CTAB
M  END
>  <Structure No>
8331

>  <LogS>
-1.62

>  <MMFF94 Energy>
52.597

$$$$
Compound 8332
Actelion Java MolfileCreator 2.0

  0  0  0  0  0  0              0 V3000
M  V30 BEGIN CTAB
M  V30 COUNTS 61 64 0 0 0
M  V30 BEGIN ATOM
M  V30 1 O 3.6169 -1.9278 0.5619 0
M  V30 2 C 2.826 -1.2056 -0.0261 0
M  V30 3 C 1.3656 -1.5119 -0.1369 0 CFG=2
M  V30 4 C 3.2399 -0.0233 -0.866 0 CFG=1
M  V30 5 C 0.8376 -0.1486 -0.6059 0 CFG=1
M  V30 6 C 0.6543 -1.9017 1.187 0
M  V30 7 C 1.2249 -2.6489 -1.1866 0
M  V30 8 C 1.9144 0.4085 -1.5379 0
M  V30 9 C 3.8333 1.1353 -0.0194 0
M  V30 10 C -0.6193 -0.2452 -1.0968 0 CFG=1
M  V30 11 C -0.7657 -1.2777 1.3262 0
M  V30 12 N 5.1084 0.8048 0.6652 0 CHG=1
M  V30 13 C -1.5047 -1.014 -0.037 0 CFG=1
M  V30 14 C -1.183 1.1337 -1.4337 0
M  V30 15 C 6.1883 0.4957 -0.2914 0
M  V30 16 C 5.5157 1.9372 1.5169 0
M  V30 17 C -2.9952 -0.4683 0.1343 0 CFG=2
M  V30 18 C -2.6165 1.008 -1.8417 0
M  V30 19 C -3.4762 0.2662 -1.1169 0
M  V30 20 C -3.1771 0.5417 1.3213 0
M  V30 21 C -3.9002 -1.7107 0.3847 0
M  V30 22 C -4.9474 0.6174 -1.1767 0
M  V30 23 C -4.2247 1.6715 1.0864 0
M  V30 24 C -5.401 1.3096 0.1392 0 CFG=2
M  V30 25 O -6.3358 0.505 0.8111 0
M  V30 26 H 3.9494 -0.3417 -1.6576 0
M  V30 27 H 0.8327 0.5485 0.2674 0
M  V30 28 H 1.2645 -1.5681 2.0556 0
M  V30 29 H 0.5754 -3.0078 1.2726 0
M  V30 30 H 1.63 -2.3465 -2.1748 0
M  V30 31 H 0.1766 -2.9688 -1.33 0
M  V30 32 H 1.7903 -3.5454 -0.8518 0
M  V30 33 H 1.8257 1.512 -1.6434 0
M  V30 34 H 1.8245 -0.0469 -2.5478 0
M  V30 35 H 3.985 2.0154 -0.6856 0
M  V30 36 H 3.0727 1.4336 0.7382 0
M  V30 37 H -0.6247 -0.8217 -2.0502 0
M  V30 38 H -1.378 -1.9392 1.9735 0
M  V30 39 H -0.6395 -0.3269 1.8798 0
M  V30 40 H 4.9711 -0.0173 1.2959 0
M  V30 41 H -1.6106 -2.0284 -0.4775 0
M  V30 42 H -0.609 1.5927 -2.2671 0
M  V30 43 H -1.1142 1.806 -0.5516 0
M  V30 44 H 6.2729 1.2842 -1.0717 0
M  V30 45 H 7.1667 0.4094 0.2308 0
M  V30 46 H 6.0122 -0.4862 -0.7778 0
M  V30 47 H 5.706 2.8488 0.9074 0
M  V30 48 H 6.4397 1.6878 2.0841 0
M  V30 49 H 4.7262 2.1669 2.2663 0
M  V30 50 H -2.9739 1.6346 -2.6543 0
M  V30 51 H -3.429 -0.0029 2.2579 0
M  V30 52 H -2.2244 1.0728 1.516 0
M  V30 53 H -3.9597 -2.3403 -0.5295 0
M  V30 54 H -4.9296 -1.4424 0.6795 0
M  V30 55 H -3.4997 -2.3375 1.2075 0
M  V30 56 H -5.1681 1.2826 -2.0413 0
M  V30 57 H -5.5362 -0.3076 -1.3545 0
M  V30 58 H -3.6971 2.5443 0.64 0
M  V30 59 H -4.621 2.016 2.0662 0
M  V30 60 H -5.9026 2.2646 -0.1465 0
M  V30 61 H -6.8142 1.0903 1.455 0
M  V30 END ATOM
M  V30 BEGIN BOND
M  V30 1 2 1 2
M  V30 2 1 2 3
M  V30 3 1 2 4
M  V30 4 1 3 5
M  V30 5 1 3 6
M  V30 6 1 3 7
M  V30 7 1 4 8
M  V30 8 1 4 9
M  V30 9 1 5 10
M  V30 10 1 6 11
M  V30 11 1 9 12
M  V30 12 1 10 13
M  V30 13 1 10 14
M  V30 14 1 12 15
M  V30 15 1 12 16
M  V30 16 1 13 17
M  V30 17 1 14 18
M  V30 18 1 17 19
M  V30 19 1 17 20
M  V30 20 1 17 21
M  V30 21 1 19 22
M  V30 22 1 20 23
M  V30 23 1 22 24
M  V30 24 1 24 25
M  V30 25 1 5 8
M  V30 26 1 11 13
M  V30 27 2 18 19
M  V30 28 1 23 24
M  V30 29 1 4 26
M  V30 30 1 5 27
M  V30 31 1 6 28
M  V30 32 1 6 29
M  V30 33 1 7 30
M  V30 34 1 7 31
M  V30 35 1 7 32
M  V30 36 1 8 33
M  V30 37 1 8 34
M  V30 38 1 9 35
M  V30 39 1 9 36
M  V30 40 1 10 37
M  V30 41 1 11 38
M  V30 42 1 11 39
M  V30 43 1 12 40
M  V30 44 1 13 41
M  V30 45 1 14 42
M  V30 46 1 14 43
M  V30 47 1 15 44
M  V30 48 1 15 45
M  V30 49 1 15 46
M  V30 50 1 16 47
M  V30 51 1 16 48
M  V30 52 1 16 49
M  V30 53 1 18 50
M  V30 54 1 20 51
M  V30 55 1 20 52
M  V30 56 1 21 53
M  V30 57 1 21 54
M  V30 58 1 21 55
M  V30 59 1 22 56
M  V30 60 1 22 57
M  V30 61 1 23 58
M  V30 62 1 23 59
M  V30 63 1 24 60
M  V30 64 1 25 61
M  V30 END BOND
M  V30 BEGIN COLLECTION
M  V30 MDLV30/STEABS ATOMS=(7 3 4 5 10 13 17 24)
M  V30 END COLLECTION
M  V30 END CTAB
M  END
>  <Structure No>
8332

>  <LogS>
-1.49

>  <MMFF94 Energy>
91.284

$$$$
Compound 8333
Actelion Java MolfileCreator 2.0

  0  0  0  0  0  0              0 V3000
M  V30 BEGIN CTAB
M  V30 COUNTS 50 52 0 0 0
M  V30 BEGIN ATOM
M  V30 1 F 8.4983 1.0392 -0.1598 0
M  V30 2 C 7.224 0.5769 -0.1313 0
M  V30 3 C 6.4148 0.8264 0.9761 0
M  V30 4 C 6.7294 -0.1731 -1.1967 0
M  V30 5 C 5.1016 0.3468 1.0139 0
M  V30 6 C 5.4184 -0.6548 -1.1664 0
M  V30 7 C 4.5571 -0.3672 -0.0824 0
M  V30 8 C 3.1354 -0.9617 -0.0887 0 CFG=1
M  V30 9 O 3.3061 -2.3625 -0.0739 0
M  V30 10 C 2.3706 -0.5469 -1.3961 0
M  V30 11 C 2.2922 -0.5417 1.16 0
M  V30 12 C 1.3838 0.6067 -1.1552 0
M  V30 13 C 0.7855 -0.6765 0.8925 0
M  V30 14 N 0.3181 0.2569 -0.172 0 CHG=1 CFG=1
M  V30 15 C -0.8816 -0.271 -0.8726 0
M  V30 16 C -2.0927 -0.5221 0.0528 0
M  V30 17 C -2.6208 0.7613 0.7108 0
M  V30 18 C -3.9465 0.5115 1.3795 0
M  V30 19 O -3.942 0.198 2.6014 0
M  V30 20 C -5.2434 0.5896 0.6494 0
M  V30 21 C -6.4547 0.4896 1.3631 0
M  V30 22 C -5.2988 0.7561 -0.7505 0
M  V30 23 C -7.6823 0.5589 0.6976 0
M  V30 24 C -6.5302 0.824 -1.4097 0
M  V30 25 C -7.7201 0.7265 -0.6871 0
M  V30 26 H 6.8098 1.3812 1.8178 0
M  V30 27 H 7.3656 -0.3934 -2.0441 0
M  V30 28 H 4.5455 0.5261 1.9206 0
M  V30 29 H 5.0799 -1.2691 -1.9913 0
M  V30 30 H 2.415 -2.7973 -0.0871 0
M  V30 31 H 1.7949 -1.4086 -1.7978 0
M  V30 32 H 3.0573 -0.239 -2.2109 0
M  V30 33 H 2.454 0.5268 1.4154 0
M  V30 34 H 2.5769 -1.1568 2.0416 0
M  V30 35 H 1.9621 1.485 -0.787 0
M  V30 36 H 0.9538 0.9256 -2.1313 0
M  V30 37 H 0.2456 -0.4592 1.8417 0
M  V30 38 H 0.5581 -1.7336 0.6326 0
M  V30 39 H 0.048 1.1575 0.2885 0
M  V30 40 H -0.6312 -1.2245 -1.389 0
M  V30 41 H -1.2101 0.4446 -1.6603 0
M  V30 42 H -1.8431 -1.2696 0.8352 0
M  V30 43 H -2.8973 -0.9718 -0.5687 0
M  V30 44 H -2.7124 1.5816 -0.0317 0
M  V30 45 H -1.8985 1.1045 1.4821 0
M  V30 46 H -6.4557 0.3619 2.4385 0
M  V30 47 H -4.4004 0.8248 -1.347 0
M  V30 48 H -8.6056 0.4827 1.2574 0
M  V30 49 H -6.5611 0.9503 -2.4843 0
M  V30 50 H -8.6716 0.7793 -1.2004 0
M  V30 END ATOM
M  V30 BEGIN BOND
M  V30 1 1 1 2
M  V30 2 2 2 3
M  V30 3 1 2 4
M  V30 4 1 3 5
M  V30 5 2 4 6
M  V30 6 2 5 7
M  V30 7 1 7 8
M  V30 8 1 8 9
M  V30 9 1 8 10
M  V30 10 1 8 11
M  V30 11 1 10 12
M  V30 12 1 11 13
M  V30 13 1 12 14
M  V30 14 1 14 15
M  V30 15 1 15 16
M  V30 16 1 16 17
M  V30 17 1 17 18
M  V30 18 2 18 19
M  V30 19 1 18 20
M  V30 20 2 20 21
M  V30 21 1 20 22
M  V30 22 1 21 23
M  V30 23 2 22 24
M  V30 24 2 23 25
M  V30 25 1 6 7
M  V30 26 1 13 14
M  V30 27 1 24 25
M  V30 28 1 3 26
M  V30 29 1 4 27
M  V30 30 1 5 28
M  V30 31 1 6 29
M  V30 32 1 9 30
M  V30 33 1 10 31
M  V30 34 1 10 32
M  V30 35 1 11 33
M  V30 36 1 11 34
M  V30 37 1 12 35
M  V30 38 1 12 36
M  V30 39 1 13 37
M  V30 40 1 13 38
M  V30 41 1 14 39
M  V30 42 1 15 40
M  V30 43 1 15 41
M  V30 44 1 16 42
M  V30 45 1 16 43
M  V30 46 1 17 44
M  V30 47 1 17 45
M  V30 48 1 21 46
M  V30 49 1 22 47
M  V30 50 1 23 48
M  V30 51 1 24 49
M  V30 52 1 25 50
M  V30 END BOND
M  V30 BEGIN COLLECTION
M  V30 MDLV30/STEABS ATOMS=(2 8 14)
M  V30 END COLLECTION
M  V30 END CTAB
M  END
>  <Structure No>
8333

>  <LogS>
-2.97

>  <MMFF94 Energy>
49.472

$$$$
Compound 8334
Actelion Java MolfileCreator 2.0

  0  0  0  0  0  0              0 V3000
M  V30 BEGIN CTAB
M  V30 COUNTS 50 52 0 0 0
M  V30 BEGIN ATOM
M  V30 1 Cl -8.2251 -1.2868 2.4943 0
M  V30 2 C -6.8171 -0.8487 1.539 0
M  V30 3 C -6.9458 0.0353 0.4646 0
M  V30 4 C -5.5617 -1.3643 1.8655 0
M  V30 5 C -5.8237 0.3904 -0.2885 0
M  V30 6 C -4.4387 -1.0162 1.1125 0
M  V30 7 C -4.5532 -0.1565 0.0023 0
M  V30 8 C -3.3222 0.3049 -0.7948 0 CFG=1
M  V30 9 O -3.7221 0.6998 -2.0887 0
M  V30 10 C -2.2379 -0.8101 -0.9541 0
M  V30 11 C -2.7228 1.5417 -0.0878 0
M  V30 12 C -1.0504 -0.6555 0.0161 0
M  V30 13 C -1.2722 1.7667 -0.5349 0
M  V30 14 N -0.3738 0.6739 -0.0757 0 CHG=1 CFG=1
M  V30 15 C 0.8389 0.6135 -0.9332 0
M  V30 16 C 2.041 -0.0369 -0.2099 0
M  V30 17 C 2.9034 0.9951 0.5356 0
M  V30 18 C 3.9748 0.3044 1.3387 0
M  V30 19 O 3.7309 0.0568 2.5538 0
M  V30 20 C 5.2707 -0.1354 0.7485 0
M  V30 21 C 5.5307 -0.0326 -0.6364 0
M  V30 22 C 6.2726 -0.6766 1.5847 0
M  V30 23 C 6.7445 -0.4811 -1.1684 0
M  V30 24 C 7.4908 -1.1082 1.0498 0
M  V30 25 C 7.7242 -1.0148 -0.3247 0
M  V30 26 H -7.912 0.4566 0.2181 0
M  V30 27 H -5.4531 -2.0332 2.7097 0
M  V30 28 H -5.9512 1.1034 -1.0935 0
M  V30 29 H -3.4892 -1.4253 1.4106 0
M  V30 30 H -4.1256 -0.0925 -2.5321 0
M  V30 31 H -2.684 -1.8239 -0.8441 0
M  V30 32 H -1.8193 -0.7763 -1.9852 0
M  V30 33 H -3.3273 2.4468 -0.3166 0
M  V30 34 H -2.7316 1.4062 1.0186 0
M  V30 35 H -1.4046 -0.8146 1.0564 0
M  V30 36 H -0.3443 -1.4917 -0.1783 0
M  V30 37 H -1.2553 1.8642 -1.6449 0
M  V30 38 H -0.9212 2.7388 -0.1177 0
M  V30 39 H -0.0715 0.9282 0.8955 0
M  V30 40 H 1.1381 1.6315 -1.2731 0
M  V30 41 H 0.6175 0.0348 -1.8577 0
M  V30 42 H 2.6648 -0.5665 -0.9579 0
M  V30 43 H 1.6928 -0.7991 0.5169 0
M  V30 44 H 2.2672 1.5911 1.2255 0
M  V30 45 H 3.3558 1.7121 -0.1824 0
M  V30 46 H 4.8082 0.3868 -1.3174 0
M  V30 47 H 6.1143 -0.769 2.6514 0
M  V30 48 H 6.9359 -0.3994 -2.2325 0
M  V30 49 H 8.2532 -1.5179 1.7027 0
M  V30 50 H 8.6695 -1.3422 -0.7399 0
M  V30 END ATOM
M  V30 BEGIN BOND
M  V30 1 1 1 2
M  V30 2 2 2 3
M  V30 3 1 2 4
M  V30 4 1 3 5
M  V30 5 2 4 6
M  V30 6 2 5 7
M  V30 7 1 7 8
M  V30 8 1 8 9
M  V30 9 1 8 10
M  V30 10 1 8 11
M  V30 11 1 10 12
M  V30 12 1 11 13
M  V30 13 1 12 14
M  V30 14 1 14 15
M  V30 15 1 15 16
M  V30 16 1 16 17
M  V30 17 1 17 18
M  V30 18 2 18 19
M  V30 19 1 18 20
M  V30 20 2 20 21
M  V30 21 1 20 22
M  V30 22 1 21 23
M  V30 23 2 22 24
M  V30 24 2 23 25
M  V30 25 1 6 7
M  V30 26 1 13 14
M  V30 27 1 24 25
M  V30 28 1 3 26
M  V30 29 1 4 27
M  V30 30 1 5 28
M  V30 31 1 6 29
M  V30 32 1 9 30
M  V30 33 1 10 31
M  V30 34 1 10 32
M  V30 35 1 11 33
M  V30 36 1 11 34
M  V30 37 1 12 35
M  V30 38 1 12 36
M  V30 39 1 13 37
M  V30 40 1 13 38
M  V30 41 1 14 39
M  V30 42 1 15 40
M  V30 43 1 15 41
M  V30 44 1 16 42
M  V30 45 1 16 43
M  V30 46 1 17 44
M  V30 47 1 17 45
M  V30 48 1 21 46
M  V30 49 1 22 47
M  V30 50 1 23 48
M  V30 51 1 24 49
M  V30 52 1 25 50
M  V30 END BOND
M  V30 BEGIN COLLECTION
M  V30 MDLV30/STEABS ATOMS=(2 8 14)
M  V30 END COLLECTION
M  V30 END CTAB
M  END
>  <Structure No>
8334

>  <LogS>
-3.35

>  <MMFF94 Energy>
50.902

$$$$
Compound 8335
Actelion Java MolfileCreator 2.0

  0  0  0  0  0  0              0 V3000
M  V30 BEGIN CTAB
M  V30 COUNTS 19 19 0 0 0
M  V30 BEGIN ATOM
M  V30 1 S 2.7141 -0.1694 -1.0171 0
M  V30 2 O 3.3746 -1.3936 -0.4485 0
M  V30 3 O 3.5181 1.0383 -0.6257 0
M  V30 4 O 2.6616 -0.2877 -2.6914 0 CHG=-1
M  V30 5 C 1.0755 -0.028 -0.3886 0
M  V30 6 C 0.4972 1.2347 -0.2106 0
M  V30 7 C 0.3367 -1.1798 -0.0867 0
M  V30 8 C -0.8096 1.3514 0.2793 0
M  V30 9 C -0.9758 -1.0783 0.4058 0
M  V30 10 N -1.395 2.6434 0.4625 0
M  V30 11 C -1.5415 0.1964 0.5875 0
M  V30 12 C -1.7491 -2.2988 0.726 0
M  V30 13 O -2.9265 -2.2144 1.1664 0
M  V30 14 O -1.1865 -3.557 0.5454 0 CHG=-1
M  V30 15 H 1.0603 2.1269 -0.4542 0
M  V30 16 H 0.7871 -2.1524 -0.2389 0
M  V30 17 H -2.3689 2.7429 0.8265 0
M  V30 18 H -0.859 3.5106 0.2357 0
M  V30 19 H -2.5516 0.2967 0.9658 0
M  V30 END ATOM
M  V30 BEGIN BOND
M  V30 1 2 1 2
M  V30 2 2 1 3
M  V30 3 1 1 4
M  V30 4 1 1 5
M  V30 5 2 5 6
M  V30 6 1 5 7
M  V30 7 1 6 8
M  V30 8 2 7 9
M  V30 9 1 8 10
M  V30 10 2 8 11
M  V30 11 1 9 12
M  V30 12 2 12 13
M  V30 13 1 12 14
M  V30 14 1 9 11
M  V30 15 1 6 15
M  V30 16 1 7 16
M  V30 17 1 10 17
M  V30 18 1 10 18
M  V30 19 1 11 19
M  V30 END BOND
M  V30 END CTAB
M  END
>  <Structure No>
8335

>  <LogS>
-0.94

>  <MMFF94 Energy>
92.863

$$$$
Compound 8336
Actelion Java MolfileCreator 2.0

  0  0  0  0  0  0              0 V3000
M  V30 BEGIN CTAB
M  V30 COUNTS 19 20 0 0 0
M  V30 BEGIN ATOM
M  V30 1 S 3.4446 -0.258 0.258 0
M  V30 2 O 3.9274 0.1369 1.6247 0
M  V30 3 O 4.0665 0.6429 -0.7709 0
M  V30 4 O 3.8961 -1.8432 -0.0654 0 CHG=-1
M  V30 5 C 1.6949 -0.1183 0.189 0
M  V30 6 C 0.8258 -0.9949 0.6955 0
M  V30 7 C 0.9369 0.9842 -0.4089 0
M  V30 8 O 1.1665 -2.1696 1.3551 0 CHG=-1
M  V30 9 C -0.537 -0.5229 0.4536 0
M  V30 10 O 1.4108 2.0042 -0.9749 0
M  V30 11 C -0.4698 0.6782 -0.2163 0
M  V30 12 C -1.7615 -1.0959 0.7947 0
M  V30 13 C -1.6171 1.3781 -0.5854 0
M  V30 14 C -2.9362 -0.4114 0.434 0
M  V30 15 C -2.8644 0.82 -0.2529 0
M  V30 16 H -1.8081 -2.0398 1.3221 0
M  V30 17 H -1.5513 2.3217 -1.1111 0
M  V30 18 H -3.9015 -0.8314 0.6851 0
M  V30 19 H -3.7747 1.3381 -0.5251 0
M  V30 END ATOM
M  V30 BEGIN BOND
M  V30 1 2 1 2
M  V30 2 2 1 3
M  V30 3 1 1 4
M  V30 4 1 1 5
M  V30 5 2 5 6
M  V30 6 1 5 7
M  V30 7 1 6 8
M  V30 8 1 6 9
M  V30 9 2 7 10
M  V30 10 1 7 11
M  V30 11 1 9 12
M  V30 12 1 11 13
M  V30 13 2 12 14
M  V30 14 2 13 15
M  V30 15 2 9 11
M  V30 16 1 14 15
M  V30 17 1 12 16
M  V30 18 1 13 17
M  V30 19 1 14 18
M  V30 20 1 15 19
M  V30 END BOND
M  V30 END CTAB
M  END
>  <Structure No>
8336

>  <LogS>
-2.23

>  <MMFF94 Energy>
153.31

$$$$
Compound 8337
Actelion Java MolfileCreator 2.0

  0  0  0  0  0  0              0 V3000
M  V30 BEGIN CTAB
M  V30 COUNTS 42 44 0 0 0
M  V30 BEGIN ATOM
M  V30 1 O -0.6359 -0.0794 2.2273 0
M  V30 2 C -0.4778 0.043 0.8291 0
M  V30 3 C -0.8995 -1.2683 0.1291 0
M  V30 4 C -1.3942 1.2108 0.3781 0
M  V30 5 C 1.0572 0.304 0.5795 0 CFG=2
M  V30 6 C -1.1948 -1.2864 -1.2523 0
M  V30 7 C -0.9842 -2.4848 0.8428 0
M  V30 8 C -2.7913 0.9962 0.3061 0
M  V30 9 C -0.9232 2.5277 0.1508 0
M  V30 10 N 1.407 0.4379 -0.8531 0 CHG=1
M  V30 11 C 1.9743 -0.7633 1.2456 0
M  V30 12 C -1.5648 -2.4729 -1.8905 0
M  V30 13 C -1.3541 -3.6682 0.1976 0
M  V30 14 C -3.6652 2.0281 -0.0444 0
M  V30 15 C -1.8046 3.5548 -0.2005 0
M  V30 16 C 2.7523 1.023 -1.0354 0
M  V30 17 C 3.3788 -0.8092 0.6138 0
M  V30 18 C -1.6446 -3.6623 -1.1666 0
M  V30 19 C -3.1718 3.3048 -0.3038 0
M  V30 20 C 3.7756 0.5434 0.019 0
M  V30 21 H -1.5906 -0.2723 2.4243 0
M  V30 22 H 1.3126 1.251 1.1046 0
M  V30 23 H -1.1471 -0.3787 -1.8393 0
M  V30 24 H -0.7538 -2.5287 1.8991 0
M  V30 25 H -3.2118 0.0226 0.5241 0
M  V30 26 H 0.1191 2.7897 0.2287 0
M  V30 27 H 1.3893 -0.5028 -1.312 0
M  V30 28 H 0.7213 1.0473 -1.3526 0
M  V30 29 H 2.0686 -0.5341 2.3301 0
M  V30 30 H 1.5423 -1.7793 1.1639 0
M  V30 31 H -1.7906 -2.4691 -2.949 0
M  V30 32 H -1.4126 -4.5928 0.7575 0
M  V30 33 H -4.729 1.8378 -0.1066 0
M  V30 34 H -1.4251 4.5513 -0.3865 0
M  V30 35 H 3.1275 0.7599 -2.0497 0
M  V30 36 H 2.6886 2.1337 -0.9928 0
M  V30 37 H 3.3972 -1.5736 -0.1943 0
M  V30 38 H 4.1241 -1.1139 1.38 0
M  V30 39 H -1.9307 -4.5804 -1.6632 0
M  V30 40 H -3.8503 4.1039 -0.5733 0
M  V30 41 H 3.8401 1.2911 0.8403 0
M  V30 42 H 4.7834 0.4669 -0.4433 0
M  V30 END ATOM
M  V30 BEGIN BOND
M  V30 1 1 1 2
M  V30 2 1 2 3
M  V30 3 1 2 4
M  V30 4 1 2 5
M  V30 5 2 3 6
M  V30 6 1 3 7
M  V30 7 2 4 8
M  V30 8 1 4 9
M  V30 9 1 5 10
M  V30 10 1 5 11
M  V30 11 1 6 12
M  V30 12 2 7 13
M  V30 13 1 8 14
M  V30 14 2 9 15
M  V30 15 1 10 16
M  V30 16 1 11 17
M  V30 17 2 12 18
M  V30 18 2 14 19
M  V30 19 1 16 20
M  V30 20 1 13 18
M  V30 21 1 15 19
M  V30 22 1 17 20
M  V30 23 1 1 21
M  V30 24 1 5 22
M  V30 25 1 6 23
M  V30 26 1 7 24
M  V30 27 1 8 25
M  V30 28 1 9 26
M  V30 29 1 10 27
M  V30 30 1 10 28
M  V30 31 1 11 29
M  V30 32 1 11 30
M  V30 33 1 12 31
M  V30 34 1 13 32
M  V30 35 1 14 33
M  V30 36 1 15 34
M  V30 37 1 16 35
M  V30 38 1 16 36
M  V30 39 1 17 37
M  V30 40 1 17 38
M  V30 41 1 18 39
M  V30 42 1 19 40
M  V30 43 1 20 41
M  V30 44 1 20 42
M  V30 END BOND
M  V30 BEGIN COLLECTION
M  V30 MDLV30/STEABS ATOMS=(1 5)
M  V30 END COLLECTION
M  V30 END CTAB
M  END
>  <Structure No>
8337

>  <LogS>
-1.9

>  <MMFF94 Energy>
95.483

$$$$
Compound 8338
Actelion Java MolfileCreator 2.0

  0  0  0  0  0  0              0 V3000
M  V30 BEGIN CTAB
M  V30 COUNTS 56 59 0 0 0
M  V30 BEGIN ATOM
M  V30 1 Cl -6.6743 -0.6418 3.6948 0
M  V30 2 C -5.4167 -0.1153 2.5914 0
M  V30 3 C -4.2594 -0.8827 2.4318 0
M  V30 4 C -5.5725 1.0701 1.8668 0
M  V30 5 C -3.2568 -0.4658 1.5518 0
M  V30 6 C -4.5716 1.4913 0.9867 0
M  V30 7 C -3.3964 0.7354 0.8293 0
M  V30 8 C -2.3373 1.1862 -0.1641 0 CFG=1
M  V30 9 N -0.9563 0.9172 0.3286 0
M  V30 10 C -2.6231 0.488 -1.485 0
M  V30 11 C -0.6705 1.6777 1.5653 0
M  V30 12 C 0.0624 1.2692 -0.6938 0
M  V30 13 C -3.2462 1.1921 -2.5313 0
M  V30 14 C -2.3231 -0.8762 -1.6652 0
M  V30 15 C 0.6771 1.2348 2.1714 0
M  V30 16 C 1.4949 1.2807 -0.1138 0
M  V30 17 C -3.5424 0.5508 -3.7378 0
M  V30 18 C -2.6206 -1.5122 -2.8738 0
M  V30 19 N 1.5509 0.5649 1.1787 0 CHG=1
M  V30 20 C -3.2288 -0.7994 -3.9095 0
M  V30 21 C 2.9374 0.4915 1.6979 0
M  V30 22 C 3.7947 -0.4562 0.8904 0
M  V30 23 C 4.7438 0.0393 -0.0195 0
M  V30 24 C 3.6337 -1.8435 1.0303 0
M  V30 25 C 5.518 -0.8421 -0.7904 0
M  V30 26 C 4.4168 -2.7228 0.2787 0
M  V30 27 C 5.3603 -2.2262 -0.6237 0
M  V30 28 C 6.5547 -0.3087 -1.7342 0
M  V30 29 H -4.1363 -1.8035 2.9876 0
M  V30 30 H -6.4703 1.664 1.9818 0
M  V30 31 H -2.3686 -1.0743 1.444 0
M  V30 32 H -4.7145 2.4063 0.4254 0
M  V30 33 H -2.4419 2.2874 -0.3116 0
M  V30 34 H -1.4572 1.5202 2.3333 0
M  V30 35 H -0.6413 2.7704 1.3468 0
M  V30 36 H -0.1543 2.2642 -1.1457 0
M  V30 37 H 0.0374 0.5161 -1.5095 0
M  V30 38 H -3.5052 2.2369 -2.4136 0
M  V30 39 H -1.8478 -1.4442 -0.8765 0
M  V30 40 H 0.4791 0.534 3.0143 0
M  V30 41 H 1.1785 2.1329 2.6005 0
M  V30 42 H 2.1767 0.8098 -0.8554 0
M  V30 43 H 1.8284 2.3357 0.0196 0
M  V30 44 H -4.0187 1.1008 -4.5392 0
M  V30 45 H -2.3801 -2.559 -3.0071 0
M  V30 46 H 1.1948 -0.412 1.0395 0
M  V30 47 H -3.4593 -1.2937 -4.8442 0
M  V30 48 H 2.9312 0.1249 2.7499 0
M  V30 49 H 3.3984 1.5054 1.7243 0
M  V30 50 H 4.8743 1.109 -0.133 0
M  V30 51 H 2.9043 -2.2428 1.7243 0
M  V30 52 H 4.2933 -3.7915 0.3974 0
M  V30 53 H 5.9656 -2.92 -1.1938 0
M  V30 54 H 6.2434 0.6765 -2.1423 0
M  V30 55 H 6.7007 -1.0031 -2.5889 0
M  V30 56 H 7.5178 -0.1897 -1.1955 0
M  V30 END ATOM
M  V30 BEGIN BOND
M  V30 1 1 1 2
M  V30 2 2 2 3
M  V30 3 1 2 4
M  V30 4 1 3 5
M  V30 5 2 4 6
M  V30 6 2 5 7
M  V30 7 1 7 8
M  V30 8 1 8 9
M  V30 9 1 8 10
M  V30 10 1 9 11
M  V30 11 1 9 12
M  V30 12 2 10 13
M  V30 13 1 10 14
M  V30 14 1 11 15
M  V30 15 1 12 16
M  V30 16 1 13 17
M  V30 17 2 14 18
M  V30 18 1 15 19
M  V30 19 2 17 20
M  V30 20 1 19 21
M  V30 21 1 21 22
M  V30 22 2 22 23
M  V30 23 1 22 24
M  V30 24 1 23 25
M  V30 25 2 24 26
M  V30 26 2 25 27
M  V30 27 1 25 28
M  V30 28 1 6 7
M  V30 29 1 16 19
M  V30 30 1 18 20
M  V30 31 1 26 27
M  V30 32 1 3 29
M  V30 33 1 4 30
M  V30 34 1 5 31
M  V30 35 1 6 32
M  V30 36 1 8 33
M  V30 37 1 11 34
M  V30 38 1 11 35
M  V30 39 1 12 36
M  V30 40 1 12 37
M  V30 41 1 13 38
M  V30 42 1 14 39
M  V30 43 1 15 40
M  V30 44 1 15 41
M  V30 45 1 16 42
M  V30 46 1 16 43
M  V30 47 1 17 44
M  V30 48 1 18 45
M  V30 49 1 19 46
M  V30 50 1 20 47
M  V30 51 1 21 48
M  V30 52 1 21 49
M  V30 53 1 23 50
M  V30 54 1 24 51
M  V30 55 1 26 52
M  V30 56 1 27 53
M  V30 57 1 28 54
M  V30 58 1 28 55
M  V30 59 1 28 56
M  V30 END BOND
M  V30 BEGIN COLLECTION
M  V30 MDLV30/STEABS ATOMS=(1 8)
M  V30 END COLLECTION
M  V30 END CTAB
M  END
>  <Structure No>
8338

>  <LogS>
-4.63

>  <MMFF94 Energy>
140.58

$$$$
Compound 8339
Actelion Java MolfileCreator 2.0

  0  0  0  0  0  0              0 V3000
M  V30 BEGIN CTAB
M  V30 COUNTS 50 52 0 0 0
M  V30 BEGIN ATOM
M  V30 1 F -9.8188 0.0 -0.2405 0
M  V30 2 C -8.4904 0.1737 -0.0325 0
M  V30 3 C -8.0046 1.4146 0.3841 0
M  V30 4 C -7.6069 -0.8887 -0.2323 0
M  V30 5 C -6.6352 1.5963 0.6001 0
M  V30 6 C -6.2361 -0.7135 -0.0185 0
M  V30 7 C -5.7303 0.5351 0.3987 0
M  V30 8 C -4.2756 0.7437 0.634 0
M  V30 9 O -3.8892 1.8069 1.195 0
M  V30 10 C -3.258 -0.3043 0.2455 0
M  V30 11 C -1.8105 0.2067 0.3215 0
M  V30 12 C -0.8163 -0.8801 -0.1331 0
M  V30 13 N 0.5984 -0.4974 0.1057 0 CHG=1 CFG=1
M  V30 14 C 1.0438 0.5398 -0.8568 0
M  V30 15 C 1.4569 -1.7012 8.0E-4 0
M  V30 16 C 2.5088 0.9419 -0.6154 0
M  V30 17 C 2.9291 -1.3655 0.2836 0
M  V30 18 C 3.4466 -0.2791 -0.6952 0 CFG=2
M  V30 19 O 3.3909 -0.7778 -2.0152 0
M  V30 20 C 4.8777 0.1552 -0.3428 0
M  V30 21 C 5.1955 0.5991 0.9606 0
M  V30 22 C 5.8969 0.187 -1.3216 0
M  V30 23 C 6.4906 1.0164 1.2799 0
M  V30 24 C 7.1902 0.6055 -0.9946 0
M  V30 25 C 7.4884 1.015 0.3051 0
M  V30 26 F 8.7431 1.423 0.6174 0
M  V30 27 H -8.6891 2.2388 0.5401 0
M  V30 28 H -7.9838 -1.8521 -0.5515 0
M  V30 29 H -6.2854 2.5701 0.9198 0
M  V30 30 H -5.5822 -1.5609 -0.1727 0
M  V30 31 H -3.4621 -0.6322 -0.7969 0
M  V30 32 H -3.375 -1.1776 0.9232 0
M  V30 33 H -1.7208 1.1002 -0.3309 0
M  V30 34 H -1.5819 0.5012 1.3693 0
M  V30 35 H -0.9835 -1.1104 -1.2101 0
M  V30 36 H -1.0561 -1.8058 0.439 0
M  V30 37 H 0.6838 -0.1196 1.0803 0
M  V30 38 H 0.9237 0.182 -1.9047 0
M  V30 39 H 0.4346 1.461 -0.7454 0
M  V30 40 H 1.1381 -2.4643 0.7464 0
M  V30 41 H 1.3646 -2.1622 -1.0091 0
M  V30 42 H 2.8092 1.6951 -1.377 0
M  V30 43 H 2.5805 1.4261 0.3832 0
M  V30 44 H 3.0032 -1.027 1.338 0
M  V30 45 H 3.5419 -2.2884 0.1897 0
M  V30 46 H 3.892 -1.6354 -2.043 0
M  V30 47 H 4.4424 0.6398 1.7353 0
M  V30 48 H 5.7041 -0.1039 -2.3453 0
M  V30 49 H 6.7174 1.3488 2.2849 0
M  V30 50 H 7.9609 0.6174 -1.7547 0
M  V30 END ATOM
M  V30 BEGIN BOND
M  V30 1 1 1 2
M  V30 2 2 2 3
M  V30 3 1 2 4
M  V30 4 1 3 5
M  V30 5 2 4 6
M  V30 6 2 5 7
M  V30 7 1 7 8
M  V30 8 2 8 9
M  V30 9 1 8 10
M  V30 10 1 10 11
M  V30 11 1 11 12
M  V30 12 1 12 13
M  V30 13 1 13 14
M  V30 14 1 13 15
M  V30 15 1 14 16
M  V30 16 1 15 17
M  V30 17 1 16 18
M  V30 18 1 18 19
M  V30 19 1 18 20
M  V30 20 2 20 21
M  V30 21 1 20 22
M  V30 22 1 21 23
M  V30 23 2 22 24
M  V30 24 2 23 25
M  V30 25 1 25 26
M  V30 26 1 6 7
M  V30 27 1 17 18
M  V30 28 1 24 25
M  V30 29 1 3 27
M  V30 30 1 4 28
M  V30 31 1 5 29
M  V30 32 1 6 30
M  V30 33 1 10 31
M  V30 34 1 10 32
M  V30 35 1 11 33
M  V30 36 1 11 34
M  V30 37 1 12 35
M  V30 38 1 12 36
M  V30 39 1 13 37
M  V30 40 1 14 38
M  V30 41 1 14 39
M  V30 42 1 15 40
M  V30 43 1 15 41
M  V30 44 1 16 42
M  V30 45 1 16 43
M  V30 46 1 17 44
M  V30 47 1 17 45
M  V30 48 1 19 46
M  V30 49 1 21 47
M  V30 50 1 22 48
M  V30 51 1 23 49
M  V30 52 1 24 50
M  V30 END BOND
M  V30 BEGIN COLLECTION
M  V30 MDLV30/STEABS ATOMS=(2 13 18)
M  V30 END COLLECTION
M  V30 END CTAB
M  END
>  <Structure No>
8339

>  <LogS>
-2.83

>  <MMFF94 Energy>
33.064

$$$$
Compound 8340
Actelion Java MolfileCreator 2.0

  0  0  0  0  0  0              0 V3000
M  V30 BEGIN CTAB
M  V30 COUNTS 55 60 0 0 0
M  V30 BEGIN ATOM
M  V30 1 O 0.7293 1.2157 -0.4861 0
M  V30 2 C 0.5386 -0.1389 -0.2795 0
M  V30 3 C -0.5229 1.9122 -0.4221 0 CFG=1
M  V30 4 C 1.522 -1.1126 -0.1058 0
M  V30 5 C -0.782 -0.4299 -0.126 0
M  V30 6 C -1.6049 0.7925 -0.2644 0 CFG=1
M  V30 7 C -0.5473 2.9053 0.7538 0
M  V30 8 O 2.8634 -0.7795 -0.336 0
M  V30 9 C 1.1045 -2.3951 0.3314 0
M  V30 10 C -1.2065 -1.6138 0.4795 0
M  V30 11 C -2.4404 0.8848 1.0256 0 CFG=2
M  V30 12 C -2.5038 0.7121 -1.5266 0
M  V30 13 C -1.9818 3.4128 1.0306 0
M  V30 14 C 3.9489 -1.6931 -0.2128 0
M  V30 15 C -0.2487 -2.6285 0.6632 0
M  V30 16 C -2.5754 -1.6701 1.1477 0
M  V30 17 C -3.4159 -0.3337 1.0387 0 CFG=2
M  V30 18 C -3.0489 2.2914 1.1869 0
M  V30 19 C -3.5725 -0.3887 -1.4252 0
M  V30 20 C 5.2282 -0.9816 -0.5419 0
M  V30 21 N -4.3175 -0.3052 -0.1509 0 CHG=1 CFG=1
M  V30 22 C 5.9804 -0.3673 0.4738 0
M  V30 23 C 5.6439 -0.8579 -1.878 0
M  V30 24 C -5.3689 -1.3407 -0.0943 0
M  V30 25 C 7.1472 0.3356 0.1574 0
M  V30 26 C 6.811 -0.1535 -2.1901 0
M  V30 27 C 7.5636 0.4405 -1.1728 0
M  V30 28 H -0.6611 2.4824 -1.368 0
M  V30 29 H 0.1104 3.7702 0.5189 0
M  V30 30 H -0.141 2.4205 1.6687 0
M  V30 31 H 1.8225 -3.1883 0.4912 0
M  V30 32 H -1.7736 0.7575 1.9124 0
M  V30 33 H -3.0126 1.6888 -1.6806 0
M  V30 34 H -1.8792 0.5229 -2.428 0
M  V30 35 H -2.2831 4.083 0.1952 0
M  V30 36 H -1.9643 4.0344 1.9523 0
M  V30 37 H 3.8019 -2.5466 -0.9103 0
M  V30 38 H 3.9896 -2.0926 0.8241 0
M  V30 39 H -0.5337 -3.5691 1.1168 0
M  V30 40 H -3.1261 -2.5519 0.7712 0
M  V30 41 H -2.3996 -1.8604 2.2286 0
M  V30 42 H -4.0367 -0.2476 1.96 0
M  V30 43 H -3.8502 2.4681 0.4422 0
M  V30 44 H -3.519 2.3655 2.1915 0
M  V30 45 H -4.2742 -0.2684 -2.2812 0
M  V30 46 H -3.0929 -1.3855 -1.5417 0
M  V30 47 H -4.8338 0.6042 -0.146 0
M  V30 48 H 5.6624 -0.43 1.5076 0
M  V30 49 H 5.0626 -1.3027 -2.6763 0
M  V30 50 H -4.9847 -2.3443 -0.3741 0
M  V30 51 H -6.1852 -1.0928 -0.8088 0
M  V30 52 H -5.8216 -1.3938 0.9201 0
M  V30 53 H 7.7263 0.8033 0.9442 0
M  V30 54 H 7.1288 -0.0629 -3.2216 0
M  V30 55 H 8.4653 0.9873 -1.4159 0
M  V30 END ATOM
M  V30 BEGIN BOND
M  V30 1 1 1 2
M  V30 2 1 1 3
M  V30 3 2 2 4
M  V30 4 1 2 5
M  V30 5 1 3 6
M  V30 6 1 3 7
M  V30 7 1 4 8
M  V30 8 1 4 9
M  V30 9 2 5 10
M  V30 10 1 6 11
M  V30 11 1 6 12
M  V30 12 1 7 13
M  V30 13 1 8 14
M  V30 14 2 9 15
M  V30 15 1 10 16
M  V30 16 1 11 17
M  V30 17 1 11 18
M  V30 18 1 12 19
M  V30 19 1 14 20
M  V30 20 1 17 21
M  V30 21 2 20 22
M  V30 22 1 20 23
M  V30 23 1 21 24
M  V30 24 1 22 25
M  V30 25 2 23 26
M  V30 26 2 25 27
M  V30 27 1 5 6
M  V30 28 1 10 15
M  V30 29 1 13 18
M  V30 30 1 16 17
M  V30 31 1 19 21
M  V30 32 1 26 27
M  V30 33 1 3 28
M  V30 34 1 7 29
M  V30 35 1 7 30
M  V30 36 1 9 31
M  V30 37 1 11 32
M  V30 38 1 12 33
M  V30 39 1 12 34
M  V30 40 1 13 35
M  V30 41 1 13 36
M  V30 42 1 14 37
M  V30 43 1 14 38
M  V30 44 1 15 39
M  V30 45 1 16 40
M  V30 46 1 16 41
M  V30 47 1 17 42
M  V30 48 1 18 43
M  V30 49 1 18 44
M  V30 50 1 19 45
M  V30 51 1 19 46
M  V30 52 1 21 47
M  V30 53 1 22 48
M  V30 54 1 23 49
M  V30 55 1 24 50
M  V30 56 1 24 51
M  V30 57 1 24 52
M  V30 58 1 25 53
M  V30 59 1 26 54
M  V30 60 1 27 55
M  V30 END BOND
M  V30 BEGIN COLLECTION
M  V30 MDLV30/STEABS ATOMS=(5 3 6 11 17 21)
M  V30 END COLLECTION
M  V30 END CTAB
M  END
>  <Structure No>
8340

>  <LogS>
-4.22

>  <MMFF94 Energy>
122.01

$$$$
Compound 8341
Actelion Java MolfileCreator 2.0

  0  0  0  0  0  0              0 V3000
M  V30 BEGIN CTAB
M  V30 COUNTS 22 22 0 0 0
M  V30 BEGIN ATOM
M  V30 1 S -2.2096 1.0194 -0.6795 0
M  V30 2 O -3.623 1.4052 -0.3463 0
M  V30 3 O -1.9525 1.3104 -2.131 0
M  V30 4 O -1.162 1.9302 0.2671 0 CHG=-1
M  V30 5 C -1.9919 -0.7307 -0.36 0 CFG=1
M  V30 6 S -0.5597 -1.4361 -1.2748 0
M  V30 7 C -1.9305 -1.0167 1.14 0
M  V30 8 C 0.7681 -0.5531 -0.4436 0
M  V30 9 C 1.2707 0.6355 -0.9893 0
M  V30 10 C 1.3654 -1.0973 0.7017 0
M  V30 11 C 2.3294 1.302 -0.3643 0
M  V30 12 C 2.4237 -0.4294 1.3257 0
M  V30 13 C 2.9026 0.7722 0.7955 0
M  V30 14 H -2.8916 -1.2458 -0.7583 0
M  V30 15 H -2.9011 -0.7544 1.6118 0
M  V30 16 H -1.7378 -2.0962 1.314 0
M  V30 17 H -1.135 -0.4201 1.6309 0
M  V30 18 H 0.841 1.0452 -1.8941 0
M  V30 19 H 1.0069 -2.0329 1.1114 0
M  V30 20 H 2.7081 2.2261 -0.7814 0
M  V30 21 H 2.8752 -0.8455 2.2169 0
M  V30 22 H 3.7227 1.2879 1.278 0
M  V30 END ATOM
M  V30 BEGIN BOND
M  V30 1 2 1 2
M  V30 2 2 1 3
M  V30 3 1 1 4
M  V30 4 1 1 5
M  V30 5 1 5 6
M  V30 6 1 5 7
M  V30 7 1 6 8
M  V30 8 2 8 9
M  V30 9 1 8 10
M  V30 10 1 9 11
M  V30 11 2 10 12
M  V30 12 2 11 13
M  V30 13 1 12 13
M  V30 14 1 5 14
M  V30 15 1 7 15
M  V30 16 1 7 16
M  V30 17 1 7 17
M  V30 18 1 9 18
M  V30 19 1 10 19
M  V30 20 1 11 20
M  V30 21 1 12 21
M  V30 22 1 13 22
M  V30 END BOND
M  V30 BEGIN COLLECTION
M  V30 MDLV30/STEABS ATOMS=(1 5)
M  V30 END COLLECTION
M  V30 END CTAB
M  END
>  <Structure No>
8341

>  <LogS>
-0.49

>  <MMFF94 Energy>
72.643

$$$$
Compound 8342
Actelion Java MolfileCreator 2.0

  0  0  0  0  0  0              0 V3000
M  V30 BEGIN CTAB
M  V30 COUNTS 22 22 0 0 0
M  V30 BEGIN ATOM
M  V30 1 S -3.6542 0.8489 0.0 0
M  V30 2 O -5.1336 0.6961 0.2129 0
M  V30 3 O -3.3964 1.1796 -1.4427 0
M  V30 4 O -3.0849 2.0978 0.9689 0 CHG=-1
M  V30 5 C -2.8385 -0.6819 0.4376 0
M  V30 6 C -1.3159 -0.5408 0.4451 0
M  V30 7 S -0.6553 -0.4289 -1.2537 0
M  V30 8 C 1.0405 -0.2202 -0.7097 0
M  V30 9 C 1.5505 1.064 -0.4805 0
M  V30 10 C 1.8603 -1.3402 -0.521 0
M  V30 11 C 2.8738 1.2266 -0.0578 0
M  V30 12 C 3.1835 -1.1758 -0.0983 0
M  V30 13 C 3.6899 0.1071 0.1335 0
M  V30 14 H -3.1753 -0.9726 1.4553 0
M  V30 15 H -3.1467 -1.4823 -0.2681 0
M  V30 16 H -1.0183 0.3538 1.0328 0
M  V30 17 H -0.8789 -1.4378 0.9341 0
M  V30 18 H 0.9227 1.9341 -0.626 0
M  V30 19 H 1.4733 -2.3356 -0.6982 0
M  V30 20 H 3.2664 2.2192 0.1211 0
M  V30 21 H 3.8157 -2.0417 0.0492 0
M  V30 22 H 4.7139 0.2337 0.4605 0
M  V30 END ATOM
M  V30 BEGIN BOND
M  V30 1 2 1 2
M  V30 2 2 1 3
M  V30 3 1 1 4
M  V30 4 1 1 5
M  V30 5 1 5 6
M  V30 6 1 6 7
M  V30 7 1 7 8
M  V30 8 2 8 9
M  V30 9 1 8 10
M  V30 10 1 9 11
M  V30 11 2 10 12
M  V30 12 2 11 13
M  V30 13 1 12 13
M  V30 14 1 5 14
M  V30 15 1 5 15
M  V30 16 1 6 16
M  V30 17 1 6 17
M  V30 18 1 9 18
M  V30 19 1 10 19
M  V30 20 1 11 20
M  V30 21 1 12 21
M  V30 22 1 13 22
M  V30 END BOND
M  V30 END CTAB
M  END
>  <Structure No>
8342

>  <LogS>
-1.53

>  <MMFF94 Energy>
7.4683

$$$$
Compound 8343
Actelion Java MolfileCreator 2.0

  0  0  0  0  0  0              0 V3000
M  V30 BEGIN CTAB
M  V30 COUNTS 31 32 0 0 0
M  V30 BEGIN ATOM
M  V30 1 S 0.0822 -2.3875 -0.9051 0
M  V30 2 O -0.4751 -3.4608 -0.0125 0
M  V30 3 O 0.8085 -3.0302 -2.0526 0
M  V30 4 N -1.2211 -1.4209 -1.5163 0
M  V30 5 C 1.2139 -1.366 -0.0228 0
M  V30 6 C -1.7441 -0.2944 -0.7934 0
M  V30 7 C 1.596 -1.6844 1.2879 0
M  V30 8 C 1.7209 -0.2096 -0.6301 0
M  V30 9 C -2.1342 0.8933 -1.4662 0
M  V30 10 C -1.9298 -0.3904 0.5977 0
M  V30 11 C 2.4769 -0.8516 1.9847 0
M  V30 12 C 2.6007 0.6236 0.0667 0
M  V30 13 C -1.8939 1.1047 -2.914 0
M  V30 14 C -2.7276 1.9339 -0.7275 0
M  V30 15 C -2.5027 0.6606 1.3138 0
M  V30 16 C 2.9829 0.3067 1.378 0
M  V30 17 O -0.9647 0.5007 -3.5117 0
M  V30 18 O -2.6658 2.0183 -3.6229 0 CHG=-1
M  V30 19 C -2.9072 1.8176 0.6516 0
M  V30 20 N 3.8819 1.1596 2.0918 0
M  V30 21 H -1.5888 -1.6476 -2.4665 0
M  V30 22 H 1.2118 -2.572 1.7734 0
M  V30 23 H 1.4291 0.049 -1.6403 0
M  V30 24 H -1.6534 -1.291 1.1293 0
M  V30 25 H 2.7633 -1.1074 2.9972 0
M  V30 26 H 2.9827 1.5156 -0.4135 0
M  V30 27 H -3.0314 2.853 -1.2134 0
M  V30 28 H -2.644 0.5726 2.3834 0
M  V30 29 H -3.3557 2.63 1.209 0
M  V30 30 H 4.1719 0.9321 3.0691 0
M  V30 31 H 4.2635 2.0247 1.6484 0
M  V30 END ATOM
M  V30 BEGIN BOND
M  V30 1 2 1 2
M  V30 2 2 1 3
M  V30 3 1 1 4
M  V30 4 1 1 5
M  V30 5 1 4 6
M  V30 6 2 5 7
M  V30 7 1 5 8
M  V30 8 2 6 9
M  V30 9 1 6 10
M  V30 10 1 7 11
M  V30 11 2 8 12
M  V30 12 1 9 13
M  V30 13 1 9 14
M  V30 14 2 10 15
M  V30 15 2 11 16
M  V30 16 2 13 17
M  V30 17 1 13 18
M  V30 18 2 14 19
M  V30 19 1 16 20
M  V30 20 1 12 16
M  V30 21 1 15 19
M  V30 22 1 4 21
M  V30 23 1 7 22
M  V30 24 1 8 23
M  V30 25 1 10 24
M  V30 26 1 11 25
M  V30 27 1 12 26
M  V30 28 1 14 27
M  V30 29 1 15 28
M  V30 30 1 19 29
M  V30 31 1 20 30
M  V30 32 1 20 31
M  V30 END BOND
M  V30 END CTAB
M  END
>  <Structure No>
8343

>  <LogS>
-0.8

>  <MMFF94 Energy>
-11.262

$$$$
Compound 8344
Actelion Java MolfileCreator 2.0

  0  0  0  0  0  0              0 V3000
M  V30 BEGIN CTAB
M  V30 COUNTS 40 43 0 0 0
M  V30 BEGIN ATOM
M  V30 1 O -2.5832 1.5332 -1.2102 0
M  V30 2 C -2.4246 0.2141 -0.7811 0
M  V30 3 C -3.4022 -0.7387 -1.1179 0
M  V30 4 C -1.2666 -0.1737 -0.0512 0
M  V30 5 O -4.5675 -0.3423 -1.7736 0
M  V30 6 C -3.2022 -2.0851 -0.8116 0
M  V30 7 C -1.0245 -1.5695 0.1255 0
M  V30 8 C -0.1734 0.8437 0.3434 0 CFG=1
M  V30 9 C -2.0144 -2.4991 -0.2199 0
M  V30 10 C 0.2809 -2.1143 0.681 0
M  V30 11 C -0.7374 2.1313 0.9519 0
M  V30 12 C 0.7605 0.2128 1.4099 0 CFG=1
M  V30 13 C 0.6641 1.1774 -0.9139 0
M  V30 14 C 1.4044 -1.0571 0.8279 0 CFG=2
M  V30 15 C 0.0208 2.9124 1.7362 0
M  V30 16 C 1.7468 1.2101 1.9758 0
M  V30 17 C 1.3579 -0.0765 -1.4801 0
M  V30 18 N 2.1337 -0.8288 -0.4617 0 CHG=1 CFG=1
M  V30 19 C 1.3645 2.4763 2.1614 0
M  V30 20 C 3.4663 -0.2224 -0.2613 0
M  V30 21 H -3.3846 1.8399 -1.7483 0
M  V30 22 H -5.2853 -1.009 -2.0326 0
M  V30 23 H -3.9525 -2.8208 -1.0723 0
M  V30 24 H -1.8559 -3.5565 -0.0451 0
M  V30 25 H 0.0639 -2.5395 1.6858 0
M  V30 26 H 0.6337 -2.9588 0.0502 0
M  V30 27 H -1.7462 2.4603 0.7601 0
M  V30 28 H 0.1332 -0.0879 2.2827 0
M  V30 29 H 0.0132 1.6115 -1.7033 0
M  V30 30 H 1.4306 1.9481 -0.6843 0
M  V30 31 H 2.1127 -1.4696 1.5833 0
M  V30 32 H -0.3699 3.8542 2.1002 0
M  V30 33 H 2.7229 0.8887 2.3174 0
M  V30 34 H 2.0147 0.2304 -2.3251 0
M  V30 35 H 0.5941 -0.7439 -1.9364 0
M  V30 36 H 2.332 -1.7704 -0.8768 0
M  V30 37 H 2.0294 3.1787 2.6468 0
M  V30 38 H 4.0207 -0.7334 0.5555 0
M  V30 39 H 4.0779 -0.33 -1.1845 0
M  V30 40 H 3.4006 0.8603 -0.0342 0
M  V30 END ATOM
M  V30 BEGIN BOND
M  V30 1 1 1 2
M  V30 2 2 2 3
M  V30 3 1 2 4
M  V30 4 1 3 5
M  V30 5 1 3 6
M  V30 6 2 4 7
M  V30 7 1 4 8
M  V30 8 2 6 9
M  V30 9 1 7 10
M  V30 10 1 8 11
M  V30 11 1 8 12
M  V30 12 1 8 13
M  V30 13 1 10 14
M  V30 14 2 11 15
M  V30 15 1 12 16
M  V30 16 1 13 17
M  V30 17 1 14 18
M  V30 18 1 15 19
M  V30 19 1 18 20
M  V30 20 1 7 9
M  V30 21 1 12 14
M  V30 22 2 16 19
M  V30 23 1 17 18
M  V30 24 1 1 21
M  V30 25 1 5 22
M  V30 26 1 6 23
M  V30 27 1 9 24
M  V30 28 1 10 25
M  V30 29 1 10 26
M  V30 30 1 11 27
M  V30 31 1 12 28
M  V30 32 1 13 29
M  V30 33 1 13 30
M  V30 34 1 14 31
M  V30 35 1 15 32
M  V30 36 1 16 33
M  V30 37 1 17 34
M  V30 38 1 17 35
M  V30 39 1 18 36
M  V30 40 1 19 37
M  V30 41 1 20 38
M  V30 42 1 20 39
M  V30 43 1 20 40
M  V30 END BOND
M  V30 BEGIN COLLECTION
M  V30 MDLV30/STEABS ATOMS=(4 8 12 14 18)
M  V30 END COLLECTION
M  V30 END CTAB
M  END
>  <Structure No>
8344

>  <LogS>
-1.72

>  <MMFF94 Energy>
67.783

$$$$
Compound 8345
Actelion Java MolfileCreator 2.0

  0  0  0  0  0  0              0 V3000
M  V30 BEGIN CTAB
M  V30 COUNTS 50 54 0 0 0
M  V30 BEGIN ATOM
M  V30 1 O 1.135 -1.9464 -0.4863 0
M  V30 2 C 1.4986 -0.6869 0.023 0
M  V30 3 C -0.227 -2.0473 -0.0659 0 CFG=1
M  V30 4 C 2.745 -0.2827 0.5013 0
M  V30 5 C 0.3669 0.0567 0.293 0
M  V30 6 C -0.8103 -0.6415 -0.2704 0 CFG=2
M  V30 7 C -1.2084 -3.1754 -0.3414 0 CFG=2
M  V30 8 O 3.8785 -1.0368 0.1588 0
M  V30 9 C 2.7696 0.8412 1.3764 0
M  V30 10 C 0.3319 1.0329 1.2666 0
M  V30 11 C -2.1488 -0.438 0.4414 0 CFG=2
M  V30 12 C -0.9919 -0.0818 -1.7096 0
M  V30 13 O -1.606 -3.1721 -1.6853 0
M  V30 14 C -2.4488 -2.9611 0.629 0
M  V30 15 C 5.2353 -0.706 0.4612 0
M  V30 16 C 1.5631 1.4567 1.7986 0
M  V30 17 C -1.0227 1.4146 1.8302 0
M  V30 18 C -2.1753 1.0659 0.826 0 CFG=1
M  V30 19 C -2.4941 -1.5829 1.4135 0
M  V30 20 C -1.9175 1.1855 -1.7301 0
M  V30 21 O 5.8326 -0.0131 -0.6162 0
M  V30 22 N -2.0275 1.9184 -0.4218 0 CHG=1 CFG=1
M  V30 23 C 5.5347 1.3623 -0.546 0
M  V30 24 C -3.1278 2.8961 -0.5029 0
M  V30 25 H -0.0881 -2.2302 1.0373 0
M  V30 26 H -0.7102 -4.1447 -0.1047 0
M  V30 27 H 3.6935 1.1999 1.8028 0
M  V30 28 H -2.9824 -0.563 -0.2887 0
M  V30 29 H -0.015 0.1649 -2.1846 0
M  V30 30 H -1.4542 -0.8481 -2.3624 0
M  V30 31 H -2.0829 -4.0287 -1.8405 0
M  V30 32 H -2.4574 -3.7791 1.3809 0
M  V30 33 H -3.3903 -3.0628 0.0464 0
M  V30 34 H 5.7854 -1.6626 0.5747 0
M  V30 35 H 5.349 -0.1959 1.4424 0
M  V30 36 H 1.5899 2.2294 2.5563 0
M  V30 37 H -1.0419 2.5018 2.0601 0
M  V30 38 H -1.1827 0.8627 2.7811 0
M  V30 39 H -3.1435 1.2573 1.3443 0
M  V30 40 H -1.7957 -1.5881 2.2773 0
M  V30 41 H -3.5157 -1.4287 1.8239 0
M  V30 42 H -1.5416 1.8783 -2.5169 0
M  V30 43 H -2.9294 0.8659 -2.0707 0
M  V30 44 H -1.156 2.497 -0.3588 0
M  V30 45 H 4.459 1.5465 -0.7498 0
M  V30 46 H 5.8371 1.8034 0.43 0
M  V30 47 H 6.1117 1.8863 -1.3352 0
M  V30 48 H -4.1093 2.3805 -0.5971 0
M  V30 49 H -2.9926 3.5692 -1.3787 0
M  V30 50 H -3.1458 3.5342 0.4082 0
M  V30 END ATOM
M  V30 BEGIN BOND
M  V30 1 1 1 2
M  V30 2 1 1 3
M  V30 3 2 2 4
M  V30 4 1 2 5
M  V30 5 1 3 6
M  V30 6 1 3 7
M  V30 7 1 4 8
M  V30 8 1 4 9
M  V30 9 2 5 10
M  V30 10 1 6 11
M  V30 11 1 6 12
M  V30 12 1 7 13
M  V30 13 1 7 14
M  V30 14 1 8 15
M  V30 15 2 9 16
M  V30 16 1 10 17
M  V30 17 1 11 18
M  V30 18 1 11 19
M  V30 19 1 12 20
M  V30 20 1 15 21
M  V30 21 1 18 22
M  V30 22 1 21 23
M  V30 23 1 22 24
M  V30 24 1 5 6
M  V30 25 1 10 16
M  V30 26 1 14 19
M  V30 27 1 17 18
M  V30 28 1 20 22
M  V30 29 1 3 25
M  V30 30 1 7 26
M  V30 31 1 9 27
M  V30 32 1 11 28
M  V30 33 1 12 29
M  V30 34 1 12 30
M  V30 35 1 13 31
M  V30 36 1 14 32
M  V30 37 1 14 33
M  V30 38 1 15 34
M  V30 39 1 15 35
M  V30 40 1 16 36
M  V30 41 1 17 37
M  V30 42 1 17 38
M  V30 43 1 18 39
M  V30 44 1 19 40
M  V30 45 1 19 41
M  V30 46 1 20 42
M  V30 47 1 20 43
M  V30 48 1 22 44
M  V30 49 1 23 45
M  V30 50 1 23 46
M  V30 51 1 23 47
M  V30 52 1 24 48
M  V30 53 1 24 49
M  V30 54 1 24 50
M  V30 END BOND
M  V30 BEGIN COLLECTION
M  V30 MDLV30/STEABS ATOMS=(6 3 6 7 11 18 22)
M  V30 END COLLECTION
M  V30 END CTAB
M  END
>  <Structure No>
8345

>  <LogS>
-1.96

>  <MMFF94 Energy>
126.5

$$$$
Compound 8346
Actelion Java MolfileCreator 2.0

  0  0  0  0  0  0              0 V3000
M  V30 BEGIN CTAB
M  V30 COUNTS 34 35 0 0 0
M  V30 BEGIN ATOM
M  V30 1 Cl 4.7173 1.5972 2.1566 0
M  V30 2 C 3.1808 1.1783 1.3985 0
M  V30 3 C 3.0609 0.146 0.4448 0
M  V30 4 C 2.0634 1.929 1.7524 0
M  V30 5 C 1.7869 -0.1405 -0.1325 0
M  V30 6 C 4.1892 -0.5967 0.0412 0
M  V30 7 C 0.8157 1.6498 1.2052 0
M  V30 8 C 0.6352 0.5845 0.3 0
M  V30 9 C 1.7132 -1.1324 -1.1394 0
M  V30 10 C 4.0772 -1.5875 -0.9317 0
M  V30 11 C -0.7614 0.2835 -0.2587 0 CFG=2
M  V30 12 C 2.847 -1.8474 -1.5256 0
M  V30 13 O -0.8906 0.87 -1.529 0
M  V30 14 C -1.9375 0.7067 0.6756 0
M  V30 15 N -3.2407 0.0487 0.3946 0 CHG=1
M  V30 16 C -3.7174 0.2713 -0.9811 0
M  V30 17 C -3.2415 -1.3887 0.7263 0
M  V30 18 H 2.16 2.7413 2.4623 0
M  V30 19 H 5.1675 -0.4144 0.4651 0
M  V30 20 H -0.0096 2.2782 1.5073 0
M  V30 21 H 0.795 -1.3581 -1.6606 0
M  V30 22 H 4.9522 -2.1472 -1.2362 0
M  V30 23 H -0.841 -0.8114 -0.3716 0
M  V30 24 H 2.771 -2.6049 -2.2953 0
M  V30 25 H -0.8071 1.8528 -1.4121 0
M  V30 26 H -2.0742 1.81 0.6122 0
M  V30 27 H -1.6537 0.493 1.7312 0
M  V30 28 H -3.9402 0.5007 1.0314 0
M  V30 29 H -3.6585 1.3498 -1.2464 0
M  V30 30 H -4.7821 -0.0381 -1.0713 0
M  V30 31 H -3.1281 -0.3189 -1.7157 0
M  V30 32 H -2.683 -1.9875 -0.0237 0
M  V30 33 H -4.2855 -1.7722 0.7507 0
M  V30 34 H -2.8 -1.564 1.7317 0
M  V30 END ATOM
M  V30 BEGIN BOND
M  V30 1 1 1 2
M  V30 2 1 2 3
M  V30 3 2 2 4
M  V30 4 1 3 5
M  V30 5 2 3 6
M  V30 6 1 4 7
M  V30 7 1 5 8
M  V30 8 2 5 9
M  V30 9 1 6 10
M  V30 10 1 8 11
M  V30 11 1 9 12
M  V30 12 1 11 13
M  V30 13 1 11 14
M  V30 14 1 14 15
M  V30 15 1 15 16
M  V30 16 1 15 17
M  V30 17 2 7 8
M  V30 18 2 10 12
M  V30 19 1 4 18
M  V30 20 1 6 19
M  V30 21 1 7 20
M  V30 22 1 9 21
M  V30 23 1 10 22
M  V30 24 1 11 23
M  V30 25 1 12 24
M  V30 26 1 13 25
M  V30 27 1 14 26
M  V30 28 1 14 27
M  V30 29 1 15 28
M  V30 30 1 16 29
M  V30 31 1 16 30
M  V30 32 1 16 31
M  V30 33 1 17 32
M  V30 34 1 17 33
M  V30 35 1 17 34
M  V30 END BOND
M  V30 BEGIN COLLECTION
M  V30 MDLV30/STEABS ATOMS=(1 11)
M  V30 END COLLECTION
M  V30 END CTAB
M  END
>  <Structure No>
8346

>  <LogS>
-1.22

>  <MMFF94 Energy>
82.148

$$$$
Compound 8347
Actelion Java MolfileCreator 2.0

  0  0  0  0  0  0              0 V3000
M  V30 BEGIN CTAB
M  V30 COUNTS 26 27 0 0 0
M  V30 BEGIN ATOM
M  V30 1 S 1.0732 2.0646 -0.8254 0
M  V30 2 O 2.318 2.2314 3.0E-4 0
M  V30 3 O 0.6945 3.3916 -1.4188 0
M  V30 4 N 1.3931 0.938 -2.1015 0 CHG=-1
M  V30 5 C -0.2561 1.4805 0.1704 0
M  V30 6 C 1.7129 -0.4321 -1.8569 0
M  V30 7 C -0.223 1.6359 1.5632 0
M  V30 8 C -1.3572 0.8562 -0.4303 0
M  V30 9 N 1.7922 -0.9099 -0.5846 0
M  V30 10 N 1.934 -1.2661 -2.9068 0
M  V30 11 C -1.279 1.1629 2.3485 0
M  V30 12 C -2.4127 0.3828 0.3545 0
M  V30 13 C 2.0895 -2.2131 -0.3444 0
M  V30 14 C 2.2348 -2.576 -2.7077 0
M  V30 15 C -2.3783 0.533 1.7481 0
M  V30 16 C 2.3189 -3.081 -1.4107 0
M  V30 17 N -3.4576 0.0485 2.5514 0
M  V30 18 H 0.6173 2.1212 2.0422 0
M  V30 19 H -1.3972 0.734 -1.5053 0
M  V30 20 H -1.2406 1.2873 3.4234 0
M  V30 21 H -3.2564 -0.1 -0.1223 0
M  V30 22 H 2.1473 -2.5738 0.6737 0
M  V30 23 H 2.4074 -3.2243 -3.5562 0
M  V30 24 H 2.5571 -4.1222 -1.236 0
M  V30 25 H -3.4418 0.1575 3.59 0
M  V30 26 H -4.2802 -0.4227 2.1134 0
M  V30 END ATOM
M  V30 BEGIN BOND
M  V30 1 2 1 2
M  V30 2 2 1 3
M  V30 3 1 1 4
M  V30 4 1 1 5
M  V30 5 1 4 6
M  V30 6 2 5 7
M  V30 7 1 5 8
M  V30 8 2 6 9
M  V30 9 1 6 10
M  V30 10 1 7 11
M  V30 11 2 8 12
M  V30 12 1 9 13
M  V30 13 2 10 14
M  V30 14 2 11 15
M  V30 15 2 13 16
M  V30 16 1 15 17
M  V30 17 1 12 15
M  V30 18 1 14 16
M  V30 19 1 7 18
M  V30 20 1 8 19
M  V30 21 1 11 20
M  V30 22 1 12 21
M  V30 23 1 13 22
M  V30 24 1 14 23
M  V30 25 1 16 24
M  V30 26 1 17 25
M  V30 27 1 17 26
M  V30 END BOND
M  V30 END CTAB
M  END
>  <Structure No>
8347

>  <LogS>
-2.16

>  <MMFF94 Energy>
12.869

$$$$
Compound 8348
Actelion Java MolfileCreator 2.0

  0  0  0  0  0  0              0 V3000
M  V30 BEGIN CTAB
M  V30 COUNTS 48 49 0 0 0
M  V30 BEGIN ATOM
M  V30 1 O 4.7758 -4.696 -1.6695 0
M  V30 2 N 5.0964 -3.7812 -0.8824 0 CHG=1
M  V30 3 O 6.36 -3.7882 -0.3373 0 CHG=-1
M  V30 4 C 4.1624 -2.7374 -0.55 0
M  V30 5 C 4.5329 -1.7044 0.3272 0
M  V30 6 C 2.8662 -2.733 -1.0951 0
M  V30 7 C 3.6285 -0.6893 0.6528 0
M  V30 8 C 1.9619 -1.7182 -0.7697 0
M  V30 9 C 2.3331 -0.6863 0.1081 0
M  V30 10 C 1.3706 0.3823 0.4517 0
M  V30 11 O 1.7132 1.3233 1.2199 0
M  V30 12 O 0.0736 0.3417 -0.0739 0
M  V30 13 C -0.9205 1.3285 0.1999 0 CFG=1
M  V30 14 C -0.576 2.6195 -0.5126 0
M  V30 15 C -2.3083 0.8353 -0.2652 0
M  V30 16 C -0.7589 3.8551 0.133 0
M  V30 17 C -0.1169 2.6038 -1.8428 0
M  V30 18 N -2.8042 -0.4118 0.3813 0 CHG=1
M  V30 19 C -0.465 5.0496 -0.5315 0
M  V30 20 C 0.1761 3.8008 -2.5027 0
M  V30 21 C -2.101 -1.6333 -0.0941 0
M  V30 22 C -2.9669 -0.2949 1.8615 0
M  V30 23 C 0.0045 5.0226 -1.8471 0
M  V30 24 C -2.9401 -2.9005 0.1077 0
M  V30 25 C -1.7912 -0.8102 2.7114 0
M  V30 26 H 5.5232 -1.6797 0.7632 0
M  V30 27 H 2.5507 -3.5148 -1.7739 0
M  V30 28 H 3.944 0.0919 1.3332 0
M  V30 29 H 0.9723 -1.7428 -1.2087 0
M  V30 30 H -0.9563 1.5248 1.2919 0
M  V30 31 H -3.0422 1.6535 -0.078 0
M  V30 32 H -2.293 0.702 -1.3711 0
M  V30 33 H -1.1295 3.8944 1.1499 0
M  V30 34 H 0.0136 1.6655 -2.3674 0
M  V30 35 H -3.7822 -0.4931 0.01 0
M  V30 36 H -0.604 5.9971 -0.027 0
M  V30 37 H 0.5336 3.7813 -3.5241 0
M  V30 38 H -1.1207 -1.7687 0.4045 0
M  V30 39 H -1.8911 -1.5563 -1.1843 0
M  V30 40 H -3.1688 0.7619 2.1462 0
M  V30 41 H -3.8713 -0.862 2.1792 0
M  V30 42 H 0.2304 5.9483 -2.3601 0
M  V30 43 H -2.3722 -3.782 -0.2574 0
M  V30 44 H -3.8879 -2.8306 -0.4666 0
M  V30 45 H -3.1774 -3.0571 1.1793 0
M  V30 46 H -1.7542 -1.9187 2.7023 0
M  V30 47 H -1.9381 -0.4927 3.7652 0
M  V30 48 H -0.8157 -0.4184 2.37 0
M  V30 END ATOM
M  V30 BEGIN BOND
M  V30 1 2 1 2
M  V30 2 1 2 3
M  V30 3 1 2 4
M  V30 4 2 4 5
M  V30 5 1 4 6
M  V30 6 1 5 7
M  V30 7 2 6 8
M  V30 8 2 7 9
M  V30 9 1 9 10
M  V30 10 2 10 11
M  V30 11 1 10 12
M  V30 12 1 12 13
M  V30 13 1 13 14
M  V30 14 1 13 15
M  V30 15 2 14 16
M  V30 16 1 14 17
M  V30 17 1 15 18
M  V30 18 1 16 19
M  V30 19 2 17 20
M  V30 20 1 18 21
M  V30 21 1 18 22
M  V30 22 2 19 23
M  V30 23 1 21 24
M  V30 24 1 22 25
M  V30 25 1 8 9
M  V30 26 1 20 23
M  V30 27 1 5 26
M  V30 28 1 6 27
M  V30 29 1 7 28
M  V30 30 1 8 29
M  V30 31 1 13 30
M  V30 32 1 15 31
M  V30 33 1 15 32
M  V30 34 1 16 33
M  V30 35 1 17 34
M  V30 36 1 18 35
M  V30 37 1 19 36
M  V30 38 1 20 37
M  V30 39 1 21 38
M  V30 40 1 21 39
M  V30 41 1 22 40
M  V30 42 1 22 41
M  V30 43 1 23 42
M  V30 44 1 24 43
M  V30 45 1 24 44
M  V30 46 1 24 45
M  V30 47 1 25 46
M  V30 48 1 25 47
M  V30 49 1 25 48
M  V30 END BOND
M  V30 BEGIN COLLECTION
M  V30 MDLV30/STEABS ATOMS=(1 13)
M  V30 END COLLECTION
M  V30 END CTAB
M  END
>  <Structure No>
8348

>  <LogS>
-2.84

>  <MMFF94 Energy>
121.56

$$$$
Compound 8349
Actelion Java MolfileCreator 2.0

  0  0  0  0  0  0              0 V3000
M  V30 BEGIN CTAB
M  V30 COUNTS 49 53 0 0 0
M  V30 BEGIN ATOM
M  V30 1 O -2.5217 4.7219 -0.8942 0
M  V30 2 C -3.2526 3.7908 -0.4591 0
M  V30 3 O -2.7179 2.5265 -0.1917 0
M  V30 4 C -4.7136 4.0237 -0.2759 0
M  V30 5 C -1.3334 2.22 -0.3414 0 CFG=1
M  V30 6 C -0.4962 2.8665 0.8019 0
M  V30 7 C -1.1139 0.7238 -0.1493 0 CFG=1
M  V30 8 C 0.6595 2.2734 1.2505 0
M  V30 9 O -1.8647 -0.3915 -0.6413 0
M  V30 10 C 0.3497 0.346 -0.3912 0 CFG=1
M  V30 11 C 1.3297 1.261 0.3404 0 CFG=2
M  V30 12 C -1.0712 -1.4734 -0.2083 0
M  V30 13 C 0.1965 -1.0287 0.0926 0
M  V30 14 C 0.9127 0.2108 -1.8277 0
M  V30 15 C 2.5819 0.3998 0.6454 0 CFG=2
M  V30 16 C -1.4582 -2.7681 0.1357 0
M  V30 17 C 1.081 -1.7 0.896 0
M  V30 18 C 2.34 -0.4396 -1.7556 0
M  V30 19 N 3.2377 0.1137 -0.6829 0 CHG=1 CFG=2
M  V30 20 C 2.2357 -0.9048 1.4702 0
M  V30 21 O -2.7404 -3.2184 -0.2055 0
M  V30 22 C -0.5233 -3.5527 0.8724 0
M  V30 23 C 0.7187 -3.002 1.2908 0
M  V30 24 C 4.4494 -0.7163 -0.55 0
M  V30 25 C -3.241 -4.5117 0.1147 0
M  V30 26 H -5.1248 3.2958 0.4546 0
M  V30 27 H -4.8913 5.0519 0.1041 0
M  V30 28 H -5.2331 3.8969 -1.2483 0
M  V30 29 H -0.9672 2.5417 -1.3409 0
M  V30 30 H -0.9297 3.6739 1.3839 0
M  V30 31 H -1.336 0.6456 0.959 0
M  V30 32 H 1.1677 2.6427 2.1353 0
M  V30 33 H 1.7117 2.0124 -0.3909 0
M  V30 34 H 0.9723 1.2026 -2.3273 0
M  V30 35 H 0.2521 -0.4186 -2.4645 0
M  V30 36 H 3.2749 1.0151 1.263 0
M  V30 37 H 2.2166 -1.5376 -1.6235 0
M  V30 38 H 2.825 -0.3073 -2.7486 0
M  V30 39 H 3.5878 1.0336 -1.0456 0
M  V30 40 H 3.1228 -1.5561 1.5992 0
M  V30 41 H 1.9379 -0.5861 2.4924 0
M  V30 42 H -0.7724 -4.5577 1.1838 0
M  V30 43 H 1.3723 -3.5756 1.9351 0
M  V30 44 H 4.1957 -1.7837 -0.3735 0
M  V30 45 H 5.0529 -0.6653 -1.4834 0
M  V30 46 H 5.0887 -0.3503 0.2831 0
M  V30 47 H -3.2633 -4.6501 1.2164 0
M  V30 48 H -4.2743 -4.608 -0.2767 0
M  V30 49 H -2.6074 -5.2932 -0.3553 0
M  V30 END ATOM
M  V30 BEGIN BOND
M  V30 1 2 1 2
M  V30 2 1 2 3
M  V30 3 1 2 4
M  V30 4 1 3 5
M  V30 5 1 5 6
M  V30 6 1 5 7
M  V30 7 2 6 8
M  V30 8 1 7 9
M  V30 9 1 7 10
M  V30 10 1 8 11
M  V30 11 1 9 12
M  V30 12 1 10 13
M  V30 13 1 10 14
M  V30 14 1 11 15
M  V30 15 1 12 16
M  V30 16 1 13 17
M  V30 17 1 14 18
M  V30 18 1 15 19
M  V30 19 1 15 20
M  V30 20 1 16 21
M  V30 21 2 16 22
M  V30 22 2 17 23
M  V30 23 1 19 24
M  V30 24 1 21 25
M  V30 25 1 10 11
M  V30 26 2 12 13
M  V30 27 1 17 20
M  V30 28 1 18 19
M  V30 29 1 22 23
M  V30 30 1 4 26
M  V30 31 1 4 27
M  V30 32 1 4 28
M  V30 33 1 5 29
M  V30 34 1 6 30
M  V30 35 1 7 31
M  V30 36 1 8 32
M  V30 37 1 11 33
M  V30 38 1 14 34
M  V30 39 1 14 35
M  V30 40 1 15 36
M  V30 41 1 18 37
M  V30 42 1 18 38
M  V30 43 1 19 39
M  V30 44 1 20 40
M  V30 45 1 20 41
M  V30 46 1 22 42
M  V30 47 1 23 43
M  V30 48 1 24 44
M  V30 49 1 24 45
M  V30 50 1 24 46
M  V30 51 1 25 47
M  V30 52 1 25 48
M  V30 53 1 25 49
M  V30 END BOND
M  V30 BEGIN COLLECTION
M  V30 MDLV30/STEABS ATOMS=(6 5 7 10 11 15 19)
M  V30 END COLLECTION
M  V30 END CTAB
M  END
>  <Structure No>
8349

>  <LogS>
-1.3

>  <MMFF94 Energy>
142.55

$$$$
Compound 8350
Actelion Java MolfileCreator 2.0

  0  0  0  0  0  0              0 V3000
M  V30 BEGIN CTAB
M  V30 COUNTS 35 36 0 0 0
M  V30 BEGIN ATOM
M  V30 1 S -1.8929 -0.4112 -3.4587 0
M  V30 2 O -2.8748 -0.1037 -4.5538 0
M  V30 3 O -0.6958 0.485 -3.6116 0
M  V30 4 O -2.6461 -0.1484 -1.9602 0
M  V30 5 O -1.4169 -2.0175 -3.5923 0 CHG=-1
M  V30 6 C -1.7278 -0.3854 -0.91 0 CFG=2
M  V30 7 C -2.4799 -0.764 0.3451 0
M  V30 8 C -0.9158 0.8471 -0.6346 0
M  V30 9 C -1.9449 -1.7206 1.2275 0
M  V30 10 C -3.6832 -0.1167 0.6881 0
M  V30 11 O -1.4793 1.9743 -0.5674 0
M  V30 12 O 0.46 0.7243 -0.4225 0
M  V30 13 C -2.6131 -2.0412 2.4136 0
M  V30 14 C -4.3484 -0.4426 1.874 0
M  V30 15 C 1.2957 1.8386 -0.1311 0
M  V30 16 C -3.8157 -1.4057 2.7346 0
M  V30 17 C 2.7102 1.3647 0.0293 0
M  V30 18 C 3.599 1.3967 -1.0586 0
M  V30 19 C 3.1383 0.8248 1.2534 0
M  V30 20 C 4.9057 0.9196 -0.9137 0
M  V30 21 C 4.4463 0.3501 1.3943 0
M  V30 22 C 5.3298 0.3993 0.3123 0
M  V30 23 H -1.036 -1.224 -1.1589 0
M  V30 24 H -1.0064 -2.2128 1.0021 0
M  V30 25 H -4.1016 0.6456 0.0432 0
M  V30 26 H -2.1949 -2.778 3.0876 0
M  V30 27 H -5.2726 0.0595 2.1307 0
M  V30 28 H 1.2273 2.5841 -0.9541 0
M  V30 29 H 0.953 2.3289 0.8062 0
M  V30 30 H -4.3293 -1.651 3.6554 0
M  V30 31 H 3.2809 1.7897 -2.0165 0
M  V30 32 H 2.4592 0.7707 2.0958 0
M  V30 33 H 5.5887 0.9503 -1.7528 0
M  V30 34 H 4.7735 -0.0601 2.3415 0
M  V30 35 H 6.3408 0.0279 0.422 0
M  V30 END ATOM
M  V30 BEGIN BOND
M  V30 1 2 1 2
M  V30 2 2 1 3
M  V30 3 1 1 4
M  V30 4 1 1 5
M  V30 5 1 4 6
M  V30 6 1 6 7
M  V30 7 1 6 8
M  V30 8 2 7 9
M  V30 9 1 7 10
M  V30 10 2 8 11
M  V30 11 1 8 12
M  V30 12 1 9 13
M  V30 13 2 10 14
M  V30 14 1 12 15
M  V30 15 2 13 16
M  V30 16 1 15 17
M  V30 17 2 17 18
M  V30 18 1 17 19
M  V30 19 1 18 20
M  V30 20 2 19 21
M  V30 21 2 20 22
M  V30 22 1 14 16
M  V30 23 1 21 22
M  V30 24 1 6 23
M  V30 25 1 9 24
M  V30 26 1 10 25
M  V30 27 1 13 26
M  V30 28 1 14 27
M  V30 29 1 15 28
M  V30 30 1 15 29
M  V30 31 1 16 30
M  V30 32 1 18 31
M  V30 33 1 19 32
M  V30 34 1 20 33
M  V30 35 1 21 34
M  V30 36 1 22 35
M  V30 END BOND
M  V30 BEGIN COLLECTION
M  V30 MDLV30/STEABS ATOMS=(1 6)
M  V30 END COLLECTION
M  V30 END CTAB
M  END
>  <Structure No>
8350

>  <LogS>
-1.5

>  <MMFF94 Energy>
-8.6458

$$$$
Compound 8351
Actelion Java MolfileCreator 2.0

  0  0  0  0  0  0              0 V3000
M  V30 BEGIN CTAB
M  V30 COUNTS 36 37 0 0 0
M  V30 BEGIN ATOM
M  V30 1 N -2.7392 -0.782 -0.0781 0 CHG=1
M  V30 2 N -2.3793 0.3488 0.6805 0
M  V30 3 C -3.9653 -1.0253 -0.455 0
M  V30 4 C -0.9973 0.69 0.8685 0
M  V30 5 N -4.2615 -2.2398 -1.151 0
M  V30 6 N -5.0238 -0.086 -0.2234 0
M  V30 7 C -0.1146 0.8784 -0.224 0
M  V30 8 C -0.521 0.8458 2.175 0
M  V30 9 C 1.2636 1.1413 0.0243 0
M  V30 10 C -0.579 0.8613 -1.5558 0
M  V30 11 C 0.8256 1.1043 2.4163 0
M  V30 12 C 1.7327 1.2046 1.3593 0
M  V30 13 C 2.1266 1.3742 -1.0659 0
M  V30 14 C 0.2999 1.0719 -2.6184 0
M  V30 15 N 3.1192 1.4153 1.6741 0
M  V30 16 C 1.6469 1.3265 -2.3746 0
M  V30 17 N 4.0739 0.6285 1.348 0
M  V30 18 C 3.92 -0.6534 0.7146 0
M  V30 19 N 3.022 -1.4993 1.1226 0 CHG=1
M  V30 20 N 4.838 -1.03 -0.3127 0
M  V30 21 H -1.9891 -1.4639 -0.3356 0
M  V30 22 H -3.0684 0.7585 1.3508 0
M  V30 23 H -5.234 -2.4402 -1.4736 0
M  V30 24 H -3.5161 -2.9445 -1.347 0
M  V30 25 H -4.8461 0.8987 0.0699 0
M  V30 26 H -6.0071 -0.3455 -0.4595 0
M  V30 27 H -1.1949 0.7319 3.0153 0
M  V30 28 H -1.6243 0.7142 -1.7887 0
M  V30 29 H 1.1747 1.1893 3.4381 0
M  V30 30 H 3.1709 1.613 -0.9168 0
M  V30 31 H -0.0695 1.0551 -3.6359 0
M  V30 32 H 2.3203 1.5047 -3.2032 0
M  V30 33 H 2.9294 -2.4378 0.6736 0
M  V30 34 H 2.3998 -1.2859 1.9326 0
M  V30 35 H 5.5785 -0.3626 -0.6228 0
M  V30 36 H 4.7763 -1.9645 -0.7748 0
M  V30 END ATOM
M  V30 BEGIN BOND
M  V30 1 1 1 2
M  V30 2 2 1 3
M  V30 3 1 2 4
M  V30 4 1 3 5
M  V30 5 1 3 6
M  V30 6 1 4 7
M  V30 7 2 4 8
M  V30 8 1 7 9
M  V30 9 2 7 10
M  V30 10 1 8 11
M  V30 11 1 9 12
M  V30 12 2 9 13
M  V30 13 1 10 14
M  V30 14 1 12 15
M  V30 15 1 13 16
M  V30 16 2 15 17
M  V30 17 1 17 18
M  V30 18 2 18 19
M  V30 19 1 18 20
M  V30 20 2 11 12
M  V30 21 2 14 16
M  V30 22 1 1 21
M  V30 23 1 2 22
M  V30 24 1 5 23
M  V30 25 1 5 24
M  V30 26 1 6 25
M  V30 27 1 6 26
M  V30 28 1 8 27
M  V30 29 1 10 28
M  V30 30 1 11 29
M  V30 31 1 13 30
M  V30 32 1 14 31
M  V30 33 1 16 32
M  V30 34 1 19 33
M  V30 35 1 19 34
M  V30 36 1 20 35
M  V30 37 1 20 36
M  V30 END BOND
M  V30 END CTAB
M  END
>  <Structure No>
8351

>  <LogS>
-3.29

>  <MMFF94 Energy>
-61.698

$$$$
Compound 8352
Actelion Java MolfileCreator 2.0

  0  0  0  0  0  0              0 V3000
M  V30 BEGIN CTAB
M  V30 COUNTS 25 26 0 0 0
M  V30 BEGIN ATOM
M  V30 1 S 4.0469 -0.86 0.2579 0
M  V30 2 O 5.0195 0.0322 -0.4607 0
M  V30 3 O 4.1284 -2.2387 -0.3347 0
M  V30 4 O 4.4483 -0.9256 1.8873 0 CHG=-1
M  V30 5 C 2.4113 -0.2311 0.0831 0
M  V30 6 C 1.3155 -1.0975 0.1534 0
M  V30 7 C 2.2012 1.1351 -0.1171 0
M  V30 8 C 0.0013 -0.6079 0.0211 0
M  V30 9 C 0.9065 1.6395 -0.2443 0
M  V30 10 C -1.0966 -1.4914 0.0544 0
M  V30 11 C -0.2117 0.7851 -0.156 0
M  V30 12 O -0.8779 -2.8525 0.2524 0 CHG=-1
M  V30 13 C -2.4098 -1.0034 -0.1055 0
M  V30 14 C -1.5341 1.2772 -0.271 0
M  V30 15 N -3.5476 -1.8924 -0.0972 0 CHG=1
M  V30 16 C -2.6078 0.3777 -0.2641 0
M  V30 17 N -1.8152 2.6823 -0.3784 0 CHG=1
M  V30 18 O -4.7066 -1.4349 -0.0138 0
M  V30 19 O -3.3903 -3.2523 -0.2337 0 CHG=-1
M  V30 20 O -1.3361 3.4815 0.4522 0
M  V30 21 O -2.8198 3.1157 -1.2127 0 CHG=-1
M  V30 22 H 1.4959 -2.1545 0.3056 0
M  V30 23 H 3.0416 1.8146 -0.179 0
M  V30 24 H 0.7975 2.6984 -0.4312 0
M  V30 25 H -3.6135 0.7661 -0.3659 0
M  V30 END ATOM
M  V30 BEGIN BOND
M  V30 1 2 1 2
M  V30 2 2 1 3
M  V30 3 1 1 4
M  V30 4 1 1 5
M  V30 5 2 5 6
M  V30 6 1 5 7
M  V30 7 1 6 8
M  V30 8 2 7 9
M  V30 9 2 8 10
M  V30 10 1 8 11
M  V30 11 1 10 12
M  V30 12 1 10 13
M  V30 13 2 11 14
M  V30 14 1 13 15
M  V30 15 2 13 16
M  V30 16 1 14 17
M  V30 17 2 15 18
M  V30 18 1 15 19
M  V30 19 2 17 20
M  V30 20 1 17 21
M  V30 21 1 9 11
M  V30 22 1 14 16
M  V30 23 1 6 22
M  V30 24 1 7 23
M  V30 25 1 9 24
M  V30 26 1 16 25
M  V30 END BOND
M  V30 END CTAB
M  END
>  <Structure No>
8352

>  <LogS>
-2.54

>  <MMFF94 Energy>
174.93

$$$$
Compound 8353
Actelion Java MolfileCreator 2.0

  0  0  0  0  0  0              0 V3000
M  V30 BEGIN CTAB
M  V30 COUNTS 22 22 0 0 0
M  V30 BEGIN ATOM
M  V30 1 Cl 4.6653 -1.6872 0.8031 0
M  V30 2 C 3.1421 -0.9463 0.3469 0
M  V30 3 C 3.0282 0.4466 0.2968 0
M  V30 4 C 2.0427 -1.7476 0.0235 0
M  V30 5 C 1.8151 1.0384 -0.0684 0
M  V30 6 C 0.8283 -1.1585 -0.3414 0
M  V30 7 C 0.6999 0.2402 -0.3738 0
M  V30 8 C -0.5744 0.8722 -0.7764 0
M  V30 9 O -0.54 1.8672 -1.5513 0
M  V30 10 N -1.846 0.3875 -0.2995 0
M  V30 11 C -1.9613 -0.2049 1.0377 0
M  V30 12 C -3.0483 0.6407 -1.0974 0
M  V30 13 H 3.8784 1.0713 0.5396 0
M  V30 14 H 2.13 -2.8264 0.0465 0
M  V30 15 H 1.7425 2.1187 -0.1011 0
M  V30 16 H -0.0019 -1.7943 -0.6214 0
M  V30 17 H -3.0166 -0.2228 1.3826 0
M  V30 18 H -1.3775 0.3937 1.769 0
M  V30 19 H -1.5849 -1.247 1.0305 0
M  V30 20 H -3.2289 1.7339 -1.1712 0
M  V30 21 H -2.9135 0.2224 -2.1173 0
M  V30 22 H -3.9444 0.1631 -0.6477 0
M  V30 END ATOM
M  V30 BEGIN BOND
M  V30 1 1 1 2
M  V30 2 2 2 3
M  V30 3 1 2 4
M  V30 4 1 3 5
M  V30 5 2 4 6
M  V30 6 2 5 7
M  V30 7 1 7 8
M  V30 8 2 8 9
M  V30 9 1 8 10
M  V30 10 1 10 11
M  V30 11 1 10 12
M  V30 12 1 6 7
M  V30 13 1 3 13
M  V30 14 1 4 14
M  V30 15 1 5 15
M  V30 16 1 6 16
M  V30 17 1 11 17
M  V30 18 1 11 18
M  V30 19 1 11 19
M  V30 20 1 12 20
M  V30 21 1 12 21
M  V30 22 1 12 22
M  V30 END BOND
M  V30 END CTAB
M  END
>  <Structure No>
8353

>  <LogS>
-1.0

>  <MMFF94 Energy>
22.246

$$$$
Compound 8354
Actelion Java MolfileCreator 2.0

  0  0  0  0  0  0              0 V3000
M  V30 BEGIN CTAB
M  V30 COUNTS 22 22 0 0 0
M  V30 BEGIN ATOM
M  V30 1 O 3.2209 -1.0989 -0.1569 0
M  V30 2 C 2.471 -0.0974 0.0045 0
M  V30 3 N 3.0604 1.1961 0.214 0
M  V30 4 C 0.9992 -0.2751 -0.0435 0
M  V30 5 N 4.4455 1.351 0.3841 0
M  V30 6 C 0.1341 0.6283 0.5995 0
M  V30 7 C 0.4469 -1.3765 -0.7203 0
M  V30 8 C -1.251 0.4437 0.5501 0
M  V30 9 C -0.9378 -1.5587 -0.7697 0
M  V30 10 C -1.7977 -0.6538 -0.1395 0
M  V30 11 O -3.1797 -0.8808 -0.2191 0
M  V30 12 C -4.1673 -0.0436 0.3735 0
M  V30 13 H 2.4697 2.0558 0.1958 0
M  V30 14 H 4.7295 0.7809 1.2132 0
M  V30 15 H 4.9182 0.9524 -0.4587 0
M  V30 16 H 0.5209 1.4659 1.164 0
M  V30 17 H 1.0858 -2.0927 -1.2222 0
M  V30 18 H -1.8869 1.1564 1.0571 0
M  V30 19 H -1.3455 -2.409 -1.3015 0
M  V30 20 H -4.0304 -0.0126 1.4751 0
M  V30 21 H -5.1728 -0.4562 0.1522 0
M  V30 22 H -4.1025 0.9813 -0.0488 0
M  V30 END ATOM
M  V30 BEGIN BOND
M  V30 1 2 1 2
M  V30 2 1 2 3
M  V30 3 1 2 4
M  V30 4 1 3 5
M  V30 5 2 4 6
M  V30 6 1 4 7
M  V30 7 1 6 8
M  V30 8 2 7 9
M  V30 9 2 8 10
M  V30 10 1 10 11
M  V30 11 1 11 12
M  V30 12 1 9 10
M  V30 13 1 3 13
M  V30 14 1 5 14
M  V30 15 1 5 15
M  V30 16 1 6 16
M  V30 17 1 7 17
M  V30 18 1 8 18
M  V30 19 1 9 19
M  V30 20 1 12 20
M  V30 21 1 12 21
M  V30 22 1 12 22
M  V30 END BOND
M  V30 END CTAB
M  END
>  <Structure No>
8354

>  <LogS>
-1.15

>  <MMFF94 Energy>
78.35

$$$$
Compound 8355
Actelion Java MolfileCreator 2.0

  0  0  0  0  0  0              0 V3000
M  V30 BEGIN CTAB
M  V30 COUNTS 44 45 0 0 0
M  V30 BEGIN ATOM
M  V30 1 O 5.6748 0.8653 -0.1572 0
M  V30 2 C 4.3815 0.3658 -0.3702 0
M  V30 3 C 6.7573 0.0988 0.3604 0
M  V30 4 C 4.031 -0.9681 -0.0876 0
M  V30 5 C 3.4095 1.2327 -0.8823 0
M  V30 6 C 2.7274 -1.4181 -0.3169 0
M  V30 7 C 2.1059 0.7837 -1.1107 0
M  V30 8 C 1.7553 -0.5456 -0.8307 0
M  V30 9 C 0.3437 -1.0179 -1.0583 0
M  V30 10 N -0.5657 -0.4101 -0.0754 0
M  V30 11 C -0.5589 -0.8595 1.2974 0
M  V30 12 C -1.4904 0.65 -0.5043 0
M  V30 13 N 0.2208 -1.911 1.6738 0
M  V30 14 N -1.3327 -0.2367 2.2303 0
M  V30 15 C -2.8987 0.071 -0.7292 0
M  V30 16 C 0.2426 -2.3482 2.9592 0
M  V30 17 C -1.3401 -0.6443 3.5257 0
M  V30 18 N -3.9166 1.1244 -0.9587 0 CHG=1
M  V30 19 C -0.5448 -1.718 3.9205 0
M  V30 20 C -3.7488 1.7681 -2.2757 0
M  V30 21 C -5.2675 0.5428 -0.8639 0
M  V30 22 H 6.511 -0.2705 1.3782 0
M  V30 23 H 6.977 -0.7555 -0.3138 0
M  V30 24 H 7.6589 0.7417 0.4244 0
M  V30 25 H 4.7569 -1.6639 0.3098 0
M  V30 26 H 3.666 2.2612 -1.1028 0
M  V30 27 H 2.4772 -2.4471 -0.0905 0
M  V30 28 H 1.3701 1.4733 -1.5047 0
M  V30 29 H 0.0406 -0.7504 -2.0942 0
M  V30 30 H 0.2731 -2.126 -0.9985 0
M  V30 31 H -1.517 1.4581 0.2581 0
M  V30 32 H -1.1237 1.1125 -1.444 0
M  V30 33 H -2.8693 -0.6416 -1.5846 0
M  V30 34 H -3.1698 -0.5183 0.1754 0
M  V30 35 H 0.8712 -3.1846 3.2333 0
M  V30 36 H -1.9634 -0.1342 4.2478 0
M  V30 37 H -3.8334 1.8575 -0.2147 0
M  V30 38 H -0.5391 -2.0545 4.9491 0
M  V30 39 H -2.8059 2.3521 -2.3125 0
M  V30 40 H -4.5722 2.4914 -2.4662 0
M  V30 41 H -3.7442 1.0147 -3.0943 0
M  V30 42 H -5.4337 0.104 0.1445 0
M  V30 43 H -6.0429 1.3273 -1.0087 0
M  V30 44 H -5.4148 -0.252 -1.629 0
M  V30 END ATOM
M  V30 BEGIN BOND
M  V30 1 1 1 2
M  V30 2 1 1 3
M  V30 3 2 2 4
M  V30 4 1 2 5
M  V30 5 1 4 6
M  V30 6 2 5 7
M  V30 7 2 6 8
M  V30 8 1 8 9
M  V30 9 1 9 10
M  V30 10 1 10 11
M  V30 11 1 10 12
M  V30 12 2 11 13
M  V30 13 1 11 14
M  V30 14 1 12 15
M  V30 15 1 13 16
M  V30 16 2 14 17
M  V30 17 1 15 18
M  V30 18 2 16 19
M  V30 19 1 18 20
M  V30 20 1 18 21
M  V30 21 1 7 8
M  V30 22 1 17 19
M  V30 23 1 3 22
M  V30 24 1 3 23
M  V30 25 1 3 24
M  V30 26 1 4 25
M  V30 27 1 5 26
M  V30 28 1 6 27
M  V30 29 1 7 28
M  V30 30 1 9 29
M  V30 31 1 9 30
M  V30 32 1 12 31
M  V30 33 1 12 32
M  V30 34 1 15 33
M  V30 35 1 15 34
M  V30 36 1 16 35
M  V30 37 1 17 36
M  V30 38 1 18 37
M  V30 39 1 19 38
M  V30 40 1 20 39
M  V30 41 1 20 40
M  V30 42 1 20 41
M  V30 43 1 21 42
M  V30 44 1 21 43
M  V30 45 1 21 44
M  V30 END BOND
M  V30 END CTAB
M  END
>  <Structure No>
8355

>  <LogS>
-2.99

>  <MMFF94 Energy>
-35.837

$$$$
Compound 8356
Actelion Java MolfileCreator 2.0

  0  0  0  0  0  0              0 V3000
M  V30 BEGIN CTAB
M  V30 COUNTS 25 25 0 0 0
M  V30 BEGIN ATOM
M  V30 1 O -2.957 -2.797 0.479 0
M  V30 2 C -1.9928 -1.996 0.3552 0
M  V30 3 N -1.1439 -1.7239 1.4663 0
M  V30 4 N -1.7332 -1.3814 -0.9028 0
M  V30 5 C -0.082 -0.77 1.3693 0
M  V30 6 C -0.6478 -0.464 -1.0621 0
M  V30 7 O 0.6805 -0.6113 2.3619 0
M  V30 8 C 0.0742 0.13 0.1457 0
M  V30 9 O -0.3286 -0.1024 -2.2278 0
M  V30 10 C -0.5817 1.492 0.5219 0
M  V30 11 C 1.5923 0.3183 -0.1718 0
M  V30 12 C -0.5434 2.5719 -0.5662 0
M  V30 13 C 2.3371 -0.9959 -0.4399 0
M  V30 14 H -1.2923 -2.2391 2.3633 0
M  V30 15 H -2.3056 -1.6518 -1.7343 0
M  V30 16 H -1.6484 1.3215 0.7917 0
M  V30 17 H -0.0832 1.9069 1.4265 0
M  V30 18 H 1.7238 0.961 -1.0676 0
M  V30 19 H 2.094 0.8403 0.6726 0
M  V30 20 H 0.4988 2.8583 -0.8121 0
M  V30 21 H -1.071 2.238 -1.4824 0
M  V30 22 H -1.061 3.4806 -0.1922 0
M  V30 23 H 3.3954 -0.7737 -0.6921 0
M  V30 24 H 1.8832 -1.5401 -1.294 0
M  V30 25 H 2.327 -1.6498 0.4565 0
M  V30 END ATOM
M  V30 BEGIN BOND
M  V30 1 2 1 2
M  V30 2 1 2 3
M  V30 3 1 2 4
M  V30 4 1 3 5
M  V30 5 1 4 6
M  V30 6 2 5 7
M  V30 7 1 5 8
M  V30 8 2 6 9
M  V30 9 1 8 10
M  V30 10 1 8 11
M  V30 11 1 10 12
M  V30 12 1 11 13
M  V30 13 1 6 8
M  V30 14 1 3 14
M  V30 15 1 4 15
M  V30 16 1 10 16
M  V30 17 1 10 17
M  V30 18 1 11 18
M  V30 19 1 11 19
M  V30 20 1 12 20
M  V30 21 1 12 21
M  V30 22 1 12 22
M  V30 23 1 13 23
M  V30 24 1 13 24
M  V30 25 1 13 25
M  V30 END BOND
M  V30 END CTAB
M  END
>  <Structure No>
8356

>  <LogS>
-0.07

>  <MMFF94 Energy>
-125.92

$$$$
Compound 8357
Actelion Java MolfileCreator 2.0

  0  0  0  0  0  0              0 V3000
M  V30 BEGIN CTAB
M  V30 COUNTS 51 55 0 0 0
M  V30 BEGIN ATOM
M  V30 1 O 4.7164 -1.4619 -1.7057 0
M  V30 2 C 4.7279 -0.4338 -0.9754 0
M  V30 3 O 3.5428 0.0702 -0.4299 0
M  V30 4 C 6.0112 0.284 -0.7318 0
M  V30 5 C 2.2734 -0.5551 -0.6129 0 CFG=2
M  V30 6 C 1.1813 0.3419 -0.0683 0 CFG=1
M  V30 7 C 2.1841 -1.9136 0.2112 0
M  V30 8 O 1.0184 1.7529 -0.2463 0
M  V30 9 C -0.2083 -0.2458 -0.3346 0 CFG=2
M  V30 10 C 0.8211 -2.1658 0.9919 0
M  V30 11 C -0.2424 1.9707 0.3388 0
M  V30 12 C -0.9219 0.779 0.4342 0
M  V30 13 C -0.3529 -1.6938 0.1159 0 CFG=1
M  V30 14 C -0.8104 -0.2037 -1.7593 0
M  V30 15 C -0.7366 3.1131 0.9675 0
M  V30 16 C -1.9863 0.563 1.2718 0
M  V30 17 C -1.853 -1.889 0.4621 0 CFG=1
M  V30 18 C -2.3245 -0.6034 -1.6949 0
M  V30 19 O -0.0485 4.3263 0.834 0
M  V30 20 C -1.9099 2.9625 1.7622 0
M  V30 21 C -2.5028 1.6844 1.9483 0
M  V30 22 C -2.3735 -0.8741 1.5516 0
M  V30 23 N -2.6592 -1.7745 -0.8077 0 CHG=1 CFG=1
M  V30 24 C -0.4558 5.544 1.448 0
M  V30 25 C -2.6386 -3.0296 -1.5897 0
M  V30 26 H 6.842 -0.4452 -0.6263 0
M  V30 27 H 6.2233 0.9616 -1.5846 0
M  V30 28 H 5.9395 0.8826 0.2003 0
M  V30 29 H 2.0976 -0.737 -1.6962 0
M  V30 30 H 1.4165 0.2919 1.032 0
M  V30 31 H 2.352 -2.757 -0.4924 0
M  V30 32 H 3.0082 -1.9502 0.9558 0
M  V30 33 H 0.7167 -3.2509 1.2095 0
M  V30 34 H 0.8112 -1.6342 1.9675 0
M  V30 35 H -0.1789 -2.3574 -0.758 0
M  V30 36 H -0.7177 0.8119 -2.2042 0
M  V30 37 H -0.2682 -0.8928 -2.4429 0
M  V30 38 H -1.9751 -2.9055 0.8995 0
M  V30 39 H -2.684 -0.7758 -2.7342 0
M  V30 40 H -2.8993 0.2844 -1.3489 0
M  V30 41 H -2.3316 3.808 2.2882 0
M  V30 42 H -3.3369 1.5715 2.6288 0
M  V30 43 H -3.4769 -0.9507 1.6532 0
M  V30 44 H -1.9332 -1.1578 2.5315 0
M  V30 45 H -3.6627 -1.6574 -0.5289 0
M  V30 46 H -0.4584 5.4319 2.553 0
M  V30 47 H 0.2598 6.3458 1.1737 0
M  V30 48 H -1.4673 5.8317 1.0914 0
M  V30 49 H -1.6768 -3.1689 -2.1257 0
M  V30 50 H -2.8263 -3.9124 -0.9406 0
M  V30 51 H -3.4464 -3.017 -2.3549 0
M  V30 END ATOM
M  V30 BEGIN BOND
M  V30 1 2 1 2
M  V30 2 1 2 3
M  V30 3 1 2 4
M  V30 4 1 3 5
M  V30 5 1 5 6
M  V30 6 1 5 7
M  V30 7 1 6 8
M  V30 8 1 6 9
M  V30 9 1 7 10
M  V30 10 1 8 11
M  V30 11 1 9 12
M  V30 12 1 9 13
M  V30 13 1 9 14
M  V30 14 1 11 15
M  V30 15 1 12 16
M  V30 16 1 13 17
M  V30 17 1 14 18
M  V30 18 1 15 19
M  V30 19 2 15 20
M  V30 20 2 16 21
M  V30 21 1 16 22
M  V30 22 1 17 23
M  V30 23 1 19 24
M  V30 24 1 23 25
M  V30 25 1 10 13
M  V30 26 2 11 12
M  V30 27 1 17 22
M  V30 28 1 18 23
M  V30 29 1 20 21
M  V30 30 1 4 26
M  V30 31 1 4 27
M  V30 32 1 4 28
M  V30 33 1 5 29
M  V30 34 1 6 30
M  V30 35 1 7 31
M  V30 36 1 7 32
M  V30 37 1 10 33
M  V30 38 1 10 34
M  V30 39 1 13 35
M  V30 40 1 14 36
M  V30 41 1 14 37
M  V30 42 1 17 38
M  V30 43 1 18 39
M  V30 44 1 18 40
M  V30 45 1 20 41
M  V30 46 1 21 42
M  V30 47 1 22 43
M  V30 48 1 22 44
M  V30 49 1 23 45
M  V30 50 1 24 46
M  V30 51 1 24 47
M  V30 52 1 24 48
M  V30 53 1 25 49
M  V30 54 1 25 50
M  V30 55 1 25 51
M  V30 END BOND
M  V30 BEGIN COLLECTION
M  V30 MDLV30/STEABS ATOMS=(6 5 6 9 13 17 23)
M  V30 END COLLECTION
M  V30 END CTAB
M  END
>  <Structure No>
8357

>  <LogS>
-1.75

>  <MMFF94 Energy>
119.39

$$$$
Compound 8358
Actelion Java MolfileCreator 2.0

  0  0  0  0  0  0              0 V3000
M  V30 BEGIN CTAB
M  V30 COUNTS 59 62 0 0 0
M  V30 BEGIN ATOM
M  V30 1 O 3.0501 2.4074 -0.4811 0
M  V30 2 C 2.4986 1.7481 -1.4061 0
M  V30 3 O 3.0151 0.5013 -1.7791 0
M  V30 4 C 1.3319 2.3432 -2.165 0 CFG=2
M  V30 5 C 3.9115 -0.2472 -0.9614 0
M  V30 6 C 0.4762 3.2943 -1.2689 0 CFG=2
M  V30 7 C 0.3854 1.2494 -2.7753 0
M  V30 8 C 3.1545 -0.8428 0.2352 0
M  V30 9 C -0.1672 2.5018 -0.1052 0
M  V30 10 C -0.6773 3.8323 -2.1295 0
M  V30 11 N -0.9683 1.3367 -2.1672 0 CHG=1 CFG=1
M  V30 12 C 4.0202 -1.8151 1.0682 0
M  V30 13 C -0.8047 1.2056 -0.6802 0 CFG=2
M  V30 14 C -1.5636 2.644 -2.5741 0
M  V30 15 C 5.1295 -1.0764 1.8335 0
M  V30 16 C 3.1389 -2.5943 2.0528 0
M  V30 17 C -2.083 0.7458 0.0983 0 CFG=1
M  V30 18 O -3.2327 1.4322 -0.3236 0
M  V30 19 C -2.3454 -0.7701 0.1579 0
M  V30 20 C -3.2553 -1.3153 1.1116 0
M  V30 21 C -1.7226 -1.66 -0.7446 0
M  V30 22 C -3.4649 -2.72 1.1376 0
M  V30 23 C -3.9642 -0.5172 2.0398 0
M  V30 24 C -1.9714 -3.0284 -0.6759 0
M  V30 25 N -2.8227 -3.5243 0.2536 0
M  V30 26 C -4.34 -3.2906 2.0693 0
M  V30 27 C -4.8339 -1.1016 2.9644 0
M  V30 28 C -5.0199 -2.4833 2.9807 0
M  V30 29 H 1.7654 2.9392 -2.9983 0
M  V30 30 H 4.3372 -1.0705 -1.5748 0
M  V30 31 H 4.7469 0.4046 -0.6269 0
M  V30 32 H 1.0837 4.1409 -0.8805 0
M  V30 33 H 0.3183 1.3951 -3.8779 0
M  V30 34 H 0.7825 0.2186 -2.6455 0
M  V30 35 H 2.7735 -0.0229 0.8836 0
M  V30 36 H 2.271 -1.3904 -0.1625 0
M  V30 37 H -0.9332 3.1337 0.3974 0
M  V30 38 H 0.5972 2.249 0.6618 0
M  V30 39 H -0.2723 4.3638 -3.0187 0
M  V30 40 H -1.2807 4.5651 -1.5495 0
M  V30 41 H -1.565 0.5679 -2.5495 0
M  V30 42 H 4.4958 -2.5534 0.3849 0
M  V30 43 H -0.0451 0.4171 -0.4645 0
M  V30 44 H -2.5827 2.7749 -2.1644 0
M  V30 45 H -1.687 2.6737 -3.6808 0
M  V30 46 H 5.8558 -0.6206 1.1293 0
M  V30 47 H 5.6925 -1.7879 2.4756 0
M  V30 48 H 4.699 -0.2798 2.4787 0
M  V30 49 H 2.3661 -3.1719 1.5016 0
M  V30 50 H 2.6322 -1.9009 2.7593 0
M  V30 51 H 3.7556 -3.3128 2.6365 0
M  V30 52 H -1.8914 1.0477 1.1503 0
M  V30 53 H -3.5877 0.9602 -1.1223 0
M  V30 54 H -1.0307 -1.3256 -1.4999 0
M  V30 55 H -3.8648 0.5576 2.0644 0
M  V30 56 H -1.481 -3.7029 -1.3651 0
M  V30 57 H -4.495 -4.3628 2.0878 0
M  V30 58 H -5.3683 -0.4785 3.6706 0
M  V30 59 H -5.6939 -2.9297 3.7001 0
M  V30 END ATOM
M  V30 BEGIN BOND
M  V30 1 2 1 2
M  V30 2 1 2 3
M  V30 3 1 2 4
M  V30 4 1 3 5
M  V30 5 1 4 6
M  V30 6 1 4 7
M  V30 7 1 5 8
M  V30 8 1 6 9
M  V30 9 1 6 10
M  V30 10 1 7 11
M  V30 11 1 8 12
M  V30 12 1 9 13
M  V30 13 1 10 14
M  V30 14 1 12 15
M  V30 15 1 12 16
M  V30 16 1 13 17
M  V30 17 1 17 18
M  V30 18 1 17 19
M  V30 19 1 19 20
M  V30 20 2 19 21
M  V30 21 1 20 22
M  V30 22 2 20 23
M  V30 23 1 21 24
M  V30 24 1 22 25
M  V30 25 2 22 26
M  V30 26 1 23 27
M  V30 27 1 26 28
M  V30 28 1 11 13
M  V30 29 1 11 14
M  V30 30 2 24 25
M  V30 31 2 27 28
M  V30 32 1 4 29
M  V30 33 1 5 30
M  V30 34 1 5 31
M  V30 35 1 6 32
M  V30 36 1 7 33
M  V30 37 1 7 34
M  V30 38 1 8 35
M  V30 39 1 8 36
M  V30 40 1 9 37
M  V30 41 1 9 38
M  V30 42 1 10 39
M  V30 43 1 10 40
M  V30 44 1 11 41
M  V30 45 1 12 42
M  V30 46 1 13 43
M  V30 47 1 14 44
M  V30 48 1 14 45
M  V30 49 1 15 46
M  V30 50 1 15 47
M  V30 51 1 15 48
M  V30 52 1 16 49
M  V30 53 1 16 50
M  V30 54 1 16 51
M  V30 55 1 17 52
M  V30 56 1 18 53
M  V30 57 1 21 54
M  V30 58 1 23 55
M  V30 59 1 24 56
M  V30 60 1 26 57
M  V30 61 1 27 58
M  V30 62 1 28 59
M  V30 END BOND
M  V30 BEGIN COLLECTION
M  V30 MDLV30/STEABS ATOMS=(5 4 6 11 13 17)
M  V30 END COLLECTION
M  V30 END CTAB
M  END
>  <Structure No>
8358

>  <LogS>
-1.41

>  <MMFF94 Energy>
80.764

$$$$
Compound 8359
Actelion Java MolfileCreator 2.0

  0  0  0  0  0  0              0 V3000
M  V30 BEGIN CTAB
M  V30 COUNTS 19 19 0 0 0
M  V30 BEGIN ATOM
M  V30 1 S -2.5054 -0.2503 -0.3337 0
M  V30 2 O -2.765 0.4625 -1.6307 0
M  V30 3 O -3.1033 0.5301 0.8025 0
M  V30 4 O -3.2437 -1.7588 -0.3984 0 CHG=-1
M  V30 5 C -0.7623 -0.4297 -0.0828 0
M  V30 6 C 0.1136 0.6843 -0.0925 0
M  V30 7 C -0.2403 -1.714 0.138 0
M  V30 8 C 1.4913 0.4779 0.1012 0
M  V30 9 C -0.3883 2.0841 -0.3321 0
M  V30 10 C 1.1284 -1.9011 0.3366 0
M  V30 11 C 1.9969 -0.8095 0.3171 0
M  V30 12 O 3.361 -1.0137 0.513 0
M  V30 13 H -0.891 -2.5781 0.1573 0
M  V30 14 H 2.176 1.3172 0.0859 0
M  V30 15 H -0.7564 2.1777 -1.3747 0
M  V30 16 H -1.2074 2.3258 0.3757 0
M  V30 17 H 0.4139 2.8376 -0.1824 0
M  V30 18 H 1.5152 -2.8982 0.5045 0
M  V30 19 H 4.0189 -0.2429 0.5048 0
M  V30 END ATOM
M  V30 BEGIN BOND
M  V30 1 2 1 2
M  V30 2 2 1 3
M  V30 3 1 1 4
M  V30 4 1 1 5
M  V30 5 2 5 6
M  V30 6 1 5 7
M  V30 7 1 6 8
M  V30 8 1 6 9
M  V30 9 2 7 10
M  V30 10 2 8 11
M  V30 11 1 11 12
M  V30 12 1 10 11
M  V30 13 1 7 13
M  V30 14 1 8 14
M  V30 15 1 9 15
M  V30 16 1 9 16
M  V30 17 1 9 17
M  V30 18 1 10 18
M  V30 19 1 12 19
M  V30 END BOND
M  V30 END CTAB
M  END
>  <Structure No>
8359

>  <LogS>
-0.29

>  <MMFF94 Energy>
40.481

$$$$
Compound 8360
Actelion Java MolfileCreator 2.0

  0  0  0  0  0  0              0 V3000
M  V30 BEGIN CTAB
M  V30 COUNTS 24 24 0 0 0
M  V30 BEGIN ATOM
M  V30 1 O 3.7487 -0.8763 2.8703 0
M  V30 2 N 3.8024 -0.599 1.6542 0 CHG=1
M  V30 3 O 5.0325 -0.3736 1.0797 0 CHG=-1
M  V30 4 C 2.6007 -0.5138 0.8666 0
M  V30 5 C 2.6679 -0.2021 -0.5022 0
M  V30 6 C 1.3417 -0.7479 1.4491 0
M  V30 7 C 1.5024 -0.1188 -1.2696 0
M  V30 8 C 0.1772 -0.6633 0.6807 0
M  V30 9 C 0.2468 -0.3311 -0.6804 0
M  V30 10 C -0.979 -0.2577 -1.5036 0
M  V30 11 O -0.9641 -0.7609 -2.6603 0
M  V30 12 N -2.1796 0.3796 -1.022 0
M  V30 13 C -2.0978 1.5255 -0.1095 0
M  V30 14 C -3.4726 -0.025 -1.5798 0
M  V30 15 H 3.6217 -0.0233 -0.9813 0
M  V30 16 H 1.2578 -1.0043 2.4973 0
M  V30 17 H 1.5796 0.1245 -2.3222 0
M  V30 18 H -0.7761 -0.8811 1.1454 0
M  V30 19 H -3.0495 2.0976 -0.0921 0
M  V30 20 H -1.2945 2.2173 -0.441 0
M  V30 21 H -1.8855 1.1815 0.9221 0
M  V30 22 H -3.5046 0.2079 -2.6651 0
M  V30 23 H -3.6152 -1.1167 -1.4354 0
M  V30 24 H -4.3144 0.499 -1.0798 0
M  V30 END ATOM
M  V30 BEGIN BOND
M  V30 1 2 1 2
M  V30 2 1 2 3
M  V30 3 1 2 4
M  V30 4 2 4 5
M  V30 5 1 4 6
M  V30 6 1 5 7
M  V30 7 2 6 8
M  V30 8 2 7 9
M  V30 9 1 9 10
M  V30 10 2 10 11
M  V30 11 1 10 12
M  V30 12 1 12 13
M  V30 13 1 12 14
M  V30 14 1 8 9
M  V30 15 1 5 15
M  V30 16 1 6 16
M  V30 17 1 7 17
M  V30 18 1 8 18
M  V30 19 1 13 19
M  V30 20 1 13 20
M  V30 21 1 13 21
M  V30 22 1 14 22
M  V30 23 1 14 23
M  V30 24 1 14 24
M  V30 END BOND
M  V30 END CTAB
M  END
>  <Structure No>
8360

>  <LogS>
-1.27

>  <MMFF94 Energy>
57.77

$$$$
Compound 8361
Actelion Java MolfileCreator 2.0

  0  0  0  0  0  0              0 V3000
M  V30 BEGIN CTAB
M  V30 COUNTS 42 42 0 0 0
M  V30 BEGIN ATOM
M  V30 1 O -1.247 -0.7012 -0.7012 0
M  V30 2 C -2.0865 -0.1048 0.2571 0
M  V30 3 C 0.097 -0.3142 -0.9886 0
M  V30 4 C -3.3366 -0.7021 0.5274 0
M  V30 5 C -1.7237 1.0717 0.9448 0
M  V30 6 C 1.0505 -0.7723 0.1314 0 CFG=1
M  V30 7 C -4.2028 -0.1116 1.4632 0
M  V30 8 C -3.7679 -1.9489 -0.2046 0
M  V30 9 C -2.5911 1.6404 1.8799 0
M  V30 10 O 0.9464 -2.1644 0.2898 0
M  V30 11 C 2.5193 -0.427 -0.1869 0
M  V30 12 C -3.8284 1.0513 2.1376 0
M  V30 13 C -4.22 -1.62 -1.5998 0
M  V30 14 N 2.7633 1.031 -0.1757 0 CHG=1
M  V30 15 C -5.3629 -0.9677 -1.8318 0
M  V30 16 C 4.1948 1.4151 -0.2042 0
M  V30 17 C 4.9271 1.0645 1.1024 0
M  V30 18 C 4.9359 0.8464 -1.4251 0
M  V30 19 H 0.1453 0.781 -1.1553 0
M  V30 20 H 0.3981 -0.8031 -1.9393 0
M  V30 21 H -0.7783 1.562 0.7629 0
M  V30 22 H 0.7765 -0.2699 1.0875 0
M  V30 23 H -5.1704 -0.552 1.6703 0
M  V30 24 H -4.5854 -2.4715 0.339 0
M  V30 25 H -2.9153 -2.6597 -0.2564 0
M  V30 26 H -2.3048 2.5441 2.4026 0
M  V30 27 H 0.145 -2.3349 0.851 0
M  V30 28 H 2.7828 -0.8546 -1.1796 0
M  V30 29 H 3.1481 -0.9293 0.5772 0
M  V30 30 H -4.5003 1.4983 2.859 0
M  V30 31 H -3.6062 -1.9303 -2.4402 0
M  V30 32 H 2.3043 1.4573 -1.0136 0
M  V30 33 H 2.3216 1.4567 0.673 0
M  V30 34 H -6.0013 -0.6507 -1.0127 0
M  V30 35 H -5.6655 -0.748 -2.8503 0
M  V30 36 H 4.2379 2.5247 -0.2974 0
M  V30 37 H 4.34 1.4086 1.98 0
M  V30 38 H 5.9132 1.5756 1.1263 0
M  V30 39 H 5.1088 -0.0262 1.1904 0
M  V30 40 H 5.9398 1.3146 -1.5081 0
M  V30 41 H 5.0727 -0.2518 -1.3358 0
M  V30 42 H 4.3705 1.0688 -2.3547 0
M  V30 END ATOM
M  V30 BEGIN BOND
M  V30 1 1 1 2
M  V30 2 1 1 3
M  V30 3 2 2 4
M  V30 4 1 2 5
M  V30 5 1 3 6
M  V30 6 1 4 7
M  V30 7 1 4 8
M  V30 8 2 5 9
M  V30 9 1 6 10
M  V30 10 1 6 11
M  V30 11 2 7 12
M  V30 12 1 8 13
M  V30 13 1 11 14
M  V30 14 2 13 15
M  V30 15 1 14 16
M  V30 16 1 16 17
M  V30 17 1 16 18
M  V30 18 1 9 12
M  V30 19 1 3 19
M  V30 20 1 3 20
M  V30 21 1 5 21
M  V30 22 1 6 22
M  V30 23 1 7 23
M  V30 24 1 8 24
M  V30 25 1 8 25
M  V30 26 1 9 26
M  V30 27 1 10 27
M  V30 28 1 11 28
M  V30 29 1 11 29
M  V30 30 1 12 30
M  V30 31 1 13 31
M  V30 32 1 14 32
M  V30 33 1 14 33
M  V30 34 1 15 34
M  V30 35 1 15 35
M  V30 36 1 16 36
M  V30 37 1 17 37
M  V30 38 1 17 38
M  V30 39 1 17 39
M  V30 40 1 18 40
M  V30 41 1 18 41
M  V30 42 1 18 42
M  V30 END BOND
M  V30 BEGIN COLLECTION
M  V30 MDLV30/STEABS ATOMS=(1 6)
M  V30 END COLLECTION
M  V30 END CTAB
M  END
>  <Structure No>
8361

>  <LogS>
-2.88

>  <MMFF94 Energy>
70.571

$$$$
Compound 8362
Actelion Java MolfileCreator 2.0

  0  0  0  0  0  0              0 V3000
M  V30 BEGIN CTAB
M  V30 COUNTS 53 54 0 0 0
M  V30 BEGIN ATOM
M  V30 1 O 0.5512 -0.0787 0.9451 0
M  V30 2 C -0.8118 0.0196 0.5195 0
M  V30 3 C 1.4929 0.5428 0.0859 0
M  V30 4 C -1.0143 -0.8468 -0.7747 0
M  V30 5 C -1.6364 -0.5205 1.7251 0
M  V30 6 C -1.2021 1.5243 0.2747 0
M  V30 7 C 2.8608 -0.1014 0.3085 0
M  V30 8 C -2.3573 -1.5944 -0.9114 0
M  V30 9 C -1.4392 -2.0248 1.9965 0
M  V30 10 C -2.6651 1.7789 -0.0203 0
M  V30 11 C 3.9434 0.57 -0.5581 0
M  V30 12 C -2.3405 -2.9647 -0.2137 0
M  V30 13 C -2.5104 -2.8815 1.3068 0
M  V30 14 C -3.1508 1.7134 -1.3386 0
M  V30 15 C -3.5505 2.1226 1.0173 0
M  V30 16 N 5.241 -0.1453 -0.4989 0 CHG=1
M  V30 17 C -4.5022 1.9516 -1.6065 0
M  V30 18 C -4.9011 2.36 0.7447 0
M  V30 19 C 6.1341 0.3508 -1.5613 0
M  V30 20 C 5.8967 0.0204 0.8126 0
M  V30 21 C -5.3774 2.2709 -0.5654 0
M  V30 22 H 1.5659 1.6225 0.3424 0
M  V30 23 H 1.2312 0.4417 -0.9892 0
M  V30 24 H -0.8927 -0.2032 -1.6716 0
M  V30 25 H -0.19 -1.5898 -0.8512 0
M  V30 26 H -1.3184 0.0375 2.6344 0
M  V30 27 H -2.719 -0.3117 1.6164 0
M  V30 28 H -0.9029 2.1198 1.1658 0
M  V30 29 H -0.6177 1.9424 -0.5724 0
M  V30 30 H 2.7934 -1.1818 0.0548 0
M  V30 31 H 3.1195 -0.0048 1.3839 0
M  V30 32 H -2.5309 -1.7782 -1.9943 0
M  V30 33 H -3.2124 -0.9819 -0.5586 0
M  V30 34 H -1.5318 -2.1939 3.0917 0
M  V30 35 H -0.4221 -2.3645 1.7034 0
M  V30 36 H 4.0666 1.6314 -0.2426 0
M  V30 37 H 3.5727 0.5804 -1.6089 0
M  V30 38 H -1.407 -3.5168 -0.4591 0
M  V30 39 H -3.183 -3.5691 -0.615 0
M  V30 40 H -3.5259 -2.4996 1.5519 0
M  V30 41 H -2.4483 -3.9135 1.7157 0
M  V30 42 H -2.4859 1.4805 -2.1598 0
M  V30 43 H -3.1962 2.1979 2.038 0
M  V30 44 H 5.0836 -1.1674 -0.6674 0
M  V30 45 H -4.8703 1.892 -2.6224 0
M  V30 46 H -5.5784 2.6145 1.5498 0
M  V30 47 H 5.6813 0.1809 -2.563 0
M  V30 48 H 7.1029 -0.1957 -1.5455 0
M  V30 49 H 6.3347 1.4389 -1.4388 0
M  V30 50 H 6.007 1.0962 1.0747 0
M  V30 51 H 6.9061 -0.4471 0.8082 0
M  V30 52 H 5.319 -0.4914 1.6103 0
M  V30 53 H -6.4232 2.4553 -0.7747 0
M  V30 END ATOM
M  V30 BEGIN BOND
M  V30 1 1 1 2
M  V30 2 1 1 3
M  V30 3 1 2 4
M  V30 4 1 2 5
M  V30 5 1 2 6
M  V30 6 1 3 7
M  V30 7 1 4 8
M  V30 8 1 5 9
M  V30 9 1 6 10
M  V30 10 1 7 11
M  V30 11 1 8 12
M  V30 12 1 9 13
M  V30 13 2 10 14
M  V30 14 1 10 15
M  V30 15 1 11 16
M  V30 16 1 14 17
M  V30 17 2 15 18
M  V30 18 1 16 19
M  V30 19 1 16 20
M  V30 20 2 17 21
M  V30 21 1 12 13
M  V30 22 1 18 21
M  V30 23 1 3 22
M  V30 24 1 3 23
M  V30 25 1 4 24
M  V30 26 1 4 25
M  V30 27 1 5 26
M  V30 28 1 5 27
M  V30 29 1 6 28
M  V30 30 1 6 29
M  V30 31 1 7 30
M  V30 32 1 7 31
M  V30 33 1 8 32
M  V30 34 1 8 33
M  V30 35 1 9 34
M  V30 36 1 9 35
M  V30 37 1 11 36
M  V30 38 1 11 37
M  V30 39 1 12 38
M  V30 40 1 12 39
M  V30 41 1 13 40
M  V30 42 1 13 41
M  V30 43 1 14 42
M  V30 44 1 15 43
M  V30 45 1 16 44
M  V30 46 1 17 45
M  V30 47 1 18 46
M  V30 48 1 19 47
M  V30 49 1 19 48
M  V30 50 1 19 49
M  V30 51 1 20 50
M  V30 52 1 20 51
M  V30 53 1 20 52
M  V30 54 1 21 53
M  V30 END BOND
M  V30 END CTAB
M  END
>  <Structure No>
8362

>  <LogS>
-1.62

>  <MMFF94 Energy>
65.045

$$$$
Compound 8363
Actelion Java MolfileCreator 2.0

  0  0  0  0  0  0              0 V3000
M  V30 BEGIN CTAB
M  V30 COUNTS 22 21 0 0 0
M  V30 BEGIN ATOM
M  V30 1 Cl 4.767 0.0 -0.1641 0
M  V30 2 C 3.4258 1.1683 -0.0906 0
M  V30 3 Cl 3.8436 2.6112 -1.0484 0
M  V30 4 C 2.174 0.5383 -0.6222 0
M  V30 5 O 2.1103 0.216 -1.8401 0
M  V30 6 N 1.0644 0.2825 0.2525 0
M  V30 7 C -0.1496 -0.4003 -0.2039 0 CFG=2
M  V30 8 C -1.3204 8.0E-4 0.651 0
M  V30 9 C 0.0615 -1.9218 -0.1721 0
M  V30 10 O -1.3206 -0.2584 1.8865 0
M  V30 11 O -2.4032 0.6629 0.0648 0
M  V30 12 O -1.0802 -2.5934 -0.6335 0
M  V30 13 C -3.5452 1.0709 0.8082 0
M  V30 14 H 3.2878 1.4806 0.9656 0
M  V30 15 H 1.172 0.5004 1.2696 0
M  V30 16 H -0.371 -0.0931 -1.2503 0
M  V30 17 H 0.2751 -2.2518 0.8672 0
M  V30 18 H 0.9421 -2.1972 -0.796 0
M  V30 19 H -1.0958 -2.4821 -1.62 0
M  V30 20 H -3.2455 1.785 1.6043 0
M  V30 21 H -4.0383 0.1859 1.2637 0
M  V30 22 H -4.2635 1.572 0.1275 0
M  V30 END ATOM
M  V30 BEGIN BOND
M  V30 1 1 1 2
M  V30 2 1 2 3
M  V30 3 1 2 4
M  V30 4 2 4 5
M  V30 5 1 4 6
M  V30 6 1 6 7
M  V30 7 1 7 8
M  V30 8 1 7 9
M  V30 9 2 8 10
M  V30 10 1 8 11
M  V30 11 1 9 12
M  V30 12 1 11 13
M  V30 13 1 2 14
M  V30 14 1 6 15
M  V30 15 1 7 16
M  V30 16 1 9 17
M  V30 17 1 9 18
M  V30 18 1 12 19
M  V30 19 1 13 20
M  V30 20 1 13 21
M  V30 21 1 13 22
M  V30 END BOND
M  V30 BEGIN COLLECTION
M  V30 MDLV30/STEABS ATOMS=(1 7)
M  V30 END COLLECTION
M  V30 END CTAB
M  END
>  <Structure No>
8363

>  <LogS>
-0.06

>  <MMFF94 Energy>
69.829

$$$$
Compound 8364
Actelion Java MolfileCreator 2.0

  0  0  0  0  0  0              0 V3000
M  V30 BEGIN CTAB
M  V30 COUNTS 31 33 0 0 0
M  V30 BEGIN ATOM
M  V30 1 O 0.7291 -2.1075 0.486 0
M  V30 2 C 0.9773 -0.8978 0.2336 0
M  V30 3 C 2.3879 -0.4673 0.1026 0
M  V30 4 C -0.1509 0.0469 0.0949 0
M  V30 5 C 2.7656 0.5035 -0.8432 0
M  V30 6 C 3.3803 -1.0673 0.8979 0
M  V30 7 N -1.4262 -0.3093 -0.1315 0
M  V30 8 C -0.1105 1.436 0.2269 0
M  V30 9 C 4.1048 0.886 -0.967 0
M  V30 10 C 4.7182 -0.6811 0.7707 0
M  V30 11 C -2.1699 0.7716 -0.1636 0
M  V30 12 C -2.1561 -1.5303 -0.3703 0
M  V30 13 C -1.4134 1.9037 0.0512 0
M  V30 14 C 5.0796 0.2969 -0.1586 0
M  V30 15 C -3.5988 0.513 -0.4336 0 CFG=1
M  V30 16 C -3.6066 -1.0364 -0.6178 0
M  V30 17 C -4.4505 0.9511 0.7225 0
M  V30 18 O -5.431 1.7164 0.5282 0
M  V30 19 O -4.1722 0.5065 2.0103 0 CHG=-1
M  V30 20 H 2.0309 0.9516 -1.4997 0
M  V30 21 H 3.1182 -1.8258 1.6254 0
M  V30 22 H 0.7572 2.0442 0.4438 0
M  V30 23 H 4.3877 1.6347 -1.6958 0
M  V30 24 H 5.475 -1.1413 1.3925 0
M  V30 25 H -2.1062 -2.1851 0.5259 0
M  V30 26 H -1.7499 -2.0525 -1.2631 0
M  V30 27 H -1.7564 2.9289 0.0848 0
M  V30 28 H 6.1158 0.5935 -0.2569 0
M  V30 29 H -3.9041 1.0246 -1.3728 0
M  V30 30 H -3.9152 -1.2876 -1.6559 0
M  V30 31 H -4.3083 -1.54 0.0833 0
M  V30 END ATOM
M  V30 BEGIN BOND
M  V30 1 2 1 2
M  V30 2 1 2 3
M  V30 3 1 2 4
M  V30 4 2 3 5
M  V30 5 1 3 6
M  V30 6 1 4 7
M  V30 7 2 4 8
M  V30 8 1 5 9
M  V30 9 2 6 10
M  V30 10 1 7 11
M  V30 11 1 7 12
M  V30 12 1 8 13
M  V30 13 2 9 14
M  V30 14 1 11 15
M  V30 15 1 12 16
M  V30 16 1 15 17
M  V30 17 2 17 18
M  V30 18 1 17 19
M  V30 19 1 10 14
M  V30 20 2 11 13
M  V30 21 1 15 16
M  V30 22 1 5 20
M  V30 23 1 6 21
M  V30 24 1 8 22
M  V30 25 1 9 23
M  V30 26 1 10 24
M  V30 27 1 12 25
M  V30 28 1 12 26
M  V30 29 1 13 27
M  V30 30 1 14 28
M  V30 31 1 15 29
M  V30 32 1 16 30
M  V30 33 1 16 31
M  V30 END BOND
M  V30 BEGIN COLLECTION
M  V30 MDLV30/STEABS ATOMS=(1 15)
M  V30 END COLLECTION
M  V30 END CTAB
M  END
>  <Structure No>
8364

>  <LogS>
-3.26

>  <MMFF94 Energy>
97.732

$$$$
Compound 8365
Actelion Java MolfileCreator 2.0

  0  0  0  0  0  0              0 V3000
M  V30 BEGIN CTAB
M  V30 COUNTS 47 49 0 0 0
M  V30 BEGIN ATOM
M  V30 1 S -2.0074 -0.2407 -2.0878 0
M  V30 2 C -2.1434 1.2863 -1.1584 0
M  V30 3 C -2.3397 -1.267 -0.6533 0
M  V30 4 C -1.4964 1.4042 0.0884 0
M  V30 5 C -2.8612 2.3622 -1.6911 0
M  V30 6 C -1.6635 -1.0101 0.557 0
M  V30 7 C -3.2032 -2.3612 -0.7658 0
M  V30 8 N -0.9199 0.226 0.7027 0
M  V30 9 C -1.5884 2.6245 0.7873 0
M  V30 10 C -2.9237 3.5725 -0.9979 0
M  V30 11 C -1.8402 -1.8986 1.6358 0
M  V30 12 C -3.3739 -3.2299 0.3139 0
M  V30 13 C 0.2189 0.3397 1.6346 0
M  V30 14 C -2.2855 3.7044 0.237 0
M  V30 15 C -2.6856 -3.0048 1.5081 0
M  V30 16 C 1.3905 -0.6307 1.2933 0 CFG=1
M  V30 17 N 2.1086 -0.3315 0.0051 0 CHG=1
M  V30 18 C 2.372 -0.6723 2.4843 0
M  V30 19 C 1.3723 -0.8664 -1.1811 0
M  V30 20 C 2.4321 1.114 -0.1574 0
M  V30 21 C 2.2597 -1.7325 -2.0837 0
M  V30 22 C 3.4821 1.371 -1.2434 0
M  V30 23 H -3.355 2.2675 -2.6498 0
M  V30 24 H -3.7193 -2.5557 -1.6974 0
M  V30 25 H -1.1685 2.7349 1.7777 0
M  V30 26 H -3.472 4.4072 -1.4152 0
M  V30 27 H -1.3559 -1.7306 2.5867 0
M  V30 28 H -4.0332 -4.0833 0.2224 0
M  V30 29 H -0.1462 0.1493 2.6655 0
M  V30 30 H 0.607 1.376 1.6708 0
M  V30 31 H -2.3527 4.6375 0.7815 0
M  V30 32 H -2.8208 -3.68 2.3434 0
M  V30 33 H 0.9771 -1.6634 1.253 0
M  V30 34 H 3.0258 -0.8356 0.0638 0
M  V30 35 H 2.7953 0.3299 2.6995 0
M  V30 36 H 3.2037 -1.3798 2.2818 0
M  V30 37 H 1.8481 -1.0286 3.3974 0
M  V30 38 H 0.5246 -1.5168 -0.8875 0
M  V30 39 H 0.9332 -0.05 -1.7958 0
M  V30 40 H 1.521 1.701 -0.4099 0
M  V30 41 H 2.8443 1.5282 0.7866 0
M  V30 42 H 3.1387 -1.1645 -2.4478 0
M  V30 43 H 2.6128 -2.6253 -1.525 0
M  V30 44 H 1.6735 -2.076 -2.9621 0
M  V30 45 H 3.0606 1.1751 -2.2505 0
M  V30 46 H 3.7944 2.4361 -1.2089 0
M  V30 47 H 4.3793 0.7375 -1.0801 0
M  V30 END ATOM
M  V30 BEGIN BOND
M  V30 1 1 1 2
M  V30 2 1 1 3
M  V30 3 2 2 4
M  V30 4 1 2 5
M  V30 5 2 3 6
M  V30 6 1 3 7
M  V30 7 1 4 8
M  V30 8 1 4 9
M  V30 9 2 5 10
M  V30 10 1 6 11
M  V30 11 2 7 12
M  V30 12 1 8 13
M  V30 13 2 9 14
M  V30 14 2 11 15
M  V30 15 1 13 16
M  V30 16 1 16 17
M  V30 17 1 16 18
M  V30 18 1 17 19
M  V30 19 1 17 20
M  V30 20 1 19 21
M  V30 21 1 20 22
M  V30 22 1 6 8
M  V30 23 1 10 14
M  V30 24 1 12 15
M  V30 25 1 5 23
M  V30 26 1 7 24
M  V30 27 1 9 25
M  V30 28 1 10 26
M  V30 29 1 11 27
M  V30 30 1 12 28
M  V30 31 1 13 29
M  V30 32 1 13 30
M  V30 33 1 14 31
M  V30 34 1 15 32
M  V30 35 1 16 33
M  V30 36 1 17 34
M  V30 37 1 18 35
M  V30 38 1 18 36
M  V30 39 1 18 37
M  V30 40 1 19 38
M  V30 41 1 19 39
M  V30 42 1 20 40
M  V30 43 1 20 41
M  V30 44 1 21 42
M  V30 45 1 21 43
M  V30 46 1 21 44
M  V30 47 1 22 45
M  V30 48 1 22 46
M  V30 49 1 22 47
M  V30 END BOND
M  V30 BEGIN COLLECTION
M  V30 MDLV30/STEABS ATOMS=(1 16)
M  V30 END COLLECTION
M  V30 END CTAB
M  END
>  <Structure No>
8365

>  <LogS>
-2.15

>  <MMFF94 Energy>
103.38

$$$$
Compound 8366
Actelion Java MolfileCreator 2.0

  0  0  0  0  0  0              0 V3000
M  V30 BEGIN CTAB
M  V30 COUNTS 36 38 0 0 0
M  V30 BEGIN ATOM
M  V30 1 S -3.4184 -0.8131 0.2438 0
M  V30 2 C -2.1844 0.2957 -0.1257 0
M  V30 3 C -4.4348 0.3857 0.8262 0
M  V30 4 N -2.5453 1.5659 0.192 0
M  V30 5 C -0.8715 -0.0483 -0.7192 0
M  V30 6 C -3.7953 1.6095 0.7199 0
M  V30 7 C -5.7203 0.2641 1.3472 0
M  V30 8 C -0.5434 -1.3808 -1.0285 0
M  V30 9 C 0.0723 0.9611 -0.978 0
M  V30 10 C -4.434 2.7775 1.1403 0
M  V30 11 C -6.373 1.432 1.7734 0
M  V30 12 C 0.6991 -1.6943 -1.5865 0
M  V30 13 C 1.3142 0.6462 -1.5364 0
M  V30 14 C -5.7327 2.6834 1.6705 0
M  V30 15 C 1.6318 -0.6819 -1.8554 0
M  V30 16 C 2.9839 -1.0247 -2.4157 0
M  V30 17 C 3.9474 -1.2674 -1.2999 0
M  V30 18 O 4.1437 -2.4425 -0.8861 0
M  V30 19 O 4.5858 -0.1783 -0.6964 0
M  V30 20 C 5.4156 -0.2964 0.4568 0
M  V30 21 C 4.5679 -0.4954 1.708 0
M  V30 22 H -6.2032 -0.7014 1.422 0
M  V30 23 H -1.2414 -2.185 -0.8373 0
M  V30 24 H -0.146 1.9959 -0.7454 0
M  V30 25 H -3.941 3.7379 1.0607 0
M  V30 26 H -7.3728 1.3707 2.1831 0
M  V30 27 H 0.9353 -2.728 -1.8069 0
M  V30 28 H 2.0302 1.4384 -1.7172 0
M  V30 29 H -6.244 3.578 2.0018 0
M  V30 30 H 2.9179 -1.9265 -3.0628 0
M  V30 31 H 3.3587 -0.1931 -3.0508 0
M  V30 32 H 6.0015 0.6401 0.5682 0
M  V30 33 H 6.1307 -1.1389 0.3359 0
M  V30 34 H 5.2244 -0.5281 2.6027 0
M  V30 35 H 3.8511 0.3457 1.8172 0
M  V30 36 H 4.0027 -1.4486 1.6452 0
M  V30 END ATOM
M  V30 BEGIN BOND
M  V30 1 1 1 2
M  V30 2 1 1 3
M  V30 3 2 2 4
M  V30 4 1 2 5
M  V30 5 2 3 6
M  V30 6 1 3 7
M  V30 7 2 5 8
M  V30 8 1 5 9
M  V30 9 1 6 10
M  V30 10 2 7 11
M  V30 11 1 8 12
M  V30 12 2 9 13
M  V30 13 2 10 14
M  V30 14 2 12 15
M  V30 15 1 15 16
M  V30 16 1 16 17
M  V30 17 2 17 18
M  V30 18 1 17 19
M  V30 19 1 19 20
M  V30 20 1 20 21
M  V30 21 1 4 6
M  V30 22 1 11 14
M  V30 23 1 13 15
M  V30 24 1 7 22
M  V30 25 1 8 23
M  V30 26 1 9 24
M  V30 27 1 10 25
M  V30 28 1 11 26
M  V30 29 1 12 27
M  V30 30 1 13 28
M  V30 31 1 14 29
M  V30 32 1 16 30
M  V30 33 1 16 31
M  V30 34 1 20 32
M  V30 35 1 20 33
M  V30 36 1 21 34
M  V30 37 1 21 35
M  V30 38 1 21 36
M  V30 END BOND
M  V30 END CTAB
M  END
>  <Structure No>
8366

>  <LogS>
-4.36

>  <MMFF94 Energy>
59.203

$$$$
Compound 8367
Actelion Java MolfileCreator 2.0

  0  0  0  0  0  0              0 V3000
M  V30 BEGIN CTAB
M  V30 COUNTS 46 47 0 0 0
M  V30 BEGIN ATOM
M  V30 1 O 3.0868 1.1863 2.453 0
M  V30 2 C 2.6456 1.3812 1.2898 0
M  V30 3 O 2.1078 2.6194 0.9595 0 CHG=-1
M  V30 4 C 2.6575 0.2667 0.2823 0 CFG=1
M  V30 5 N 1.2726 -0.1168 -0.0043 0
M  V30 6 C 3.3664 0.6828 -1.0309 0
M  V30 7 C 0.5067 -0.944 0.8845 0
M  V30 8 C 4.9136 0.7835 -0.9822 0
M  V30 9 O 1.0307 -1.3948 1.9402 0
M  V30 10 C -0.9483 -1.2166 0.593 0 CFG=1
M  V30 11 C 5.4198 1.9304 -0.0983 0
M  V30 12 C 5.5865 -0.5422 -0.6006 0
M  V30 13 N -1.3019 -2.5966 0.9559 0 CHG=1
M  V30 14 C -1.8212 -0.1944 1.3479 0
M  V30 15 C -3.2592 -0.2736 0.9255 0
M  V30 16 C -3.8216 0.2167 -0.2361 0
M  V30 17 C -4.2886 -0.9268 1.5967 0
M  V30 18 C -5.1452 -0.142 -0.2181 0
M  V30 19 C -3.2681 0.9337 -1.2969 0
M  V30 20 N -5.4408 -0.8379 0.8935 0
M  V30 21 C -6.0087 0.1943 -1.2598 0
M  V30 22 C -4.1165 1.2881 -2.3617 0
M  V30 23 C -5.4806 0.9207 -2.3429 0
M  V30 24 H 3.1821 -0.6151 0.7063 0
M  V30 25 H 0.7905 0.3021 -0.8325 0
M  V30 26 H 3.1112 -0.0691 -1.8105 0
M  V30 27 H 2.9488 1.6483 -1.3929 0
M  V30 28 H 5.2385 1.0187 -2.0205 0
M  V30 29 H -1.112 -1.0892 -0.501 0
M  V30 30 H 6.4985 2.1078 -0.2964 0
M  V30 31 H 5.3075 1.6883 0.9781 0
M  V30 32 H 4.8691 2.868 -0.3249 0
M  V30 33 H 5.1711 -1.3755 -1.2061 0
M  V30 34 H 6.6775 -0.4805 -0.8003 0
M  V30 35 H 5.4476 -0.7697 0.4769 0
M  V30 36 H -0.6436 -3.265 0.4929 0
M  V30 37 H -2.2681 -2.8169 0.6229 0
M  V30 38 H -1.2579 -2.7326 1.9924 0
M  V30 39 H -1.7442 -0.3618 2.4446 0
M  V30 40 H -1.4539 0.8351 1.143 0
M  V30 41 H -4.1958 -1.4475 2.5409 0
M  V30 42 H -2.2216 1.2099 -1.3053 0
M  V30 43 H -6.3673 -1.24 1.1586 0
M  V30 44 H -7.0514 -0.0951 -1.2384 0
M  V30 45 H -3.7211 1.8452 -3.2009 0
M  V30 46 H -6.1235 1.198 -3.1681 0
M  V30 END ATOM
M  V30 BEGIN BOND
M  V30 1 2 1 2
M  V30 2 1 2 3
M  V30 3 1 2 4
M  V30 4 1 4 5
M  V30 5 1 4 6
M  V30 6 1 5 7
M  V30 7 1 6 8
M  V30 8 2 7 9
M  V30 9 1 7 10
M  V30 10 1 8 11
M  V30 11 1 8 12
M  V30 12 1 10 13
M  V30 13 1 10 14
M  V30 14 1 14 15
M  V30 15 1 15 16
M  V30 16 2 15 17
M  V30 17 2 16 18
M  V30 18 1 16 19
M  V30 19 1 17 20
M  V30 20 1 18 21
M  V30 21 2 19 22
M  V30 22 2 21 23
M  V30 23 1 18 20
M  V30 24 1 22 23
M  V30 25 1 4 24
M  V30 26 1 5 25
M  V30 27 1 6 26
M  V30 28 1 6 27
M  V30 29 1 8 28
M  V30 30 1 10 29
M  V30 31 1 11 30
M  V30 32 1 11 31
M  V30 33 1 11 32
M  V30 34 1 12 33
M  V30 35 1 12 34
M  V30 36 1 12 35
M  V30 37 1 13 36
M  V30 38 1 13 37
M  V30 39 1 13 38
M  V30 40 1 14 39
M  V30 41 1 14 40
M  V30 42 1 17 41
M  V30 43 1 19 42
M  V30 44 1 20 43
M  V30 45 1 21 44
M  V30 46 1 22 45
M  V30 47 1 23 46
M  V30 END BOND
M  V30 BEGIN COLLECTION
M  V30 MDLV30/STEABS ATOMS=(2 4 10)
M  V30 END COLLECTION
M  V30 END CTAB
M  END
>  <Structure No>
8367

>  <LogS>
-1.76

>  <MMFF94 Energy>
37.257

$$$$
Compound 8368
Actelion Java MolfileCreator 2.0

  0  0  0  0  0  0              0 V3000
M  V30 BEGIN CTAB
M  V30 COUNTS 47 49 0 0 0
M  V30 BEGIN ATOM
M  V30 1 F 2.7471 1.9385 -1.6152 0
M  V30 2 C 1.5058 1.5367 -1.2416 0
M  V30 3 C 1.3362 0.3945 -0.4617 0
M  V30 4 C 0.4028 2.291 -1.6172 0
M  V30 5 N 2.4786 -0.3825 -0.0616 0
M  V30 6 C 0.0496 0.0178 -0.0551 0
M  V30 7 C -0.8989 1.9232 -1.2186 0
M  V30 8 C 2.7201 -0.6499 1.361 0
M  V30 9 C 3.3435 -1.0045 -1.0694 0
M  V30 10 C -1.1093 0.762 -0.415 0
M  V30 11 C -1.9894 2.7068 -1.6152 0
M  V30 12 C 4.1338 -1.2056 1.5742 0
M  V30 13 C 4.8335 -0.7765 -0.7362 0
M  V30 14 N -2.4041 0.4066 -0.0146 0
M  V30 15 O -1.8034 3.7362 -2.3226 0
M  V30 16 C -3.2812 2.347 -1.2278 0
M  V30 17 N 5.0864 -0.5121 0.6964 0 CHG=1
M  V30 18 C -3.4528 1.2008 -0.4397 0
M  V30 19 C -2.701 -0.8243 0.8264 0
M  V30 20 C -4.4723 3.1502 -1.6342 0
M  V30 21 C -4.2027 -0.9595 1.2514 0
M  V30 22 C -2.405 -2.1017 -0.0079 0
M  V30 23 C -1.8847 -0.7905 2.1612 0
M  V30 24 O -5.628 2.8155 -1.2593 0
M  V30 25 O -4.3391 4.2809 -2.4321 0 CHG=-1
M  V30 26 F -4.3993 -2.075 2.0517 0
M  V30 27 H 0.575 3.1741 -2.2208 0
M  V30 28 H 0.0049 -0.8728 0.5343 0
M  V30 29 H 2.6212 0.2999 1.9308 0
M  V30 30 H 1.9727 -1.3745 1.7485 0
M  V30 31 H 3.1222 -0.617 -2.0878 0
M  V30 32 H 3.1351 -2.0964 -1.0837 0
M  V30 33 H 4.1477 -2.2988 1.3633 0
M  V30 34 H 4.4277 -1.0637 2.6378 0
M  V30 35 H 5.208 0.0835 -1.3349 0
M  V30 36 H 5.4114 -1.6702 -1.0621 0
M  V30 37 H 6.0556 -0.8282 0.9342 0
M  V30 38 H 5.034 0.5187 0.8761 0
M  V30 39 H -4.4708 0.9755 -0.182 0
M  V30 40 H -4.5265 -0.0671 1.8304 0
M  V30 41 H -4.8649 -1.0832 0.3672 0
M  V30 42 H -1.3975 -2.1301 -0.4553 0
M  V30 43 H -2.5182 -3.0159 0.6136 0
M  V30 44 H -3.1162 -2.1718 -0.859 0
M  V30 45 H -2.5238 -0.8304 3.0698 0
M  V30 46 H -1.3078 0.1521 2.264 0
M  V30 47 H -1.1895 -1.653 2.2434 0
M  V30 END ATOM
M  V30 BEGIN BOND
M  V30 1 1 1 2
M  V30 2 2 2 3
M  V30 3 1 2 4
M  V30 4 1 3 5
M  V30 5 1 3 6
M  V30 6 2 4 7
M  V30 7 1 5 8
M  V30 8 1 5 9
M  V30 9 2 6 10
M  V30 10 1 7 11
M  V30 11 1 8 12
M  V30 12 1 9 13
M  V30 13 1 10 14
M  V30 14 2 11 15
M  V30 15 1 11 16
M  V30 16 1 12 17
M  V30 17 1 14 18
M  V30 18 1 14 19
M  V30 19 1 16 20
M  V30 20 1 19 21
M  V30 21 1 19 22
M  V30 22 1 19 23
M  V30 23 2 20 24
M  V30 24 1 20 25
M  V30 25 1 21 26
M  V30 26 1 7 10
M  V30 27 1 13 17
M  V30 28 2 16 18
M  V30 29 1 4 27
M  V30 30 1 6 28
M  V30 31 1 8 29
M  V30 32 1 8 30
M  V30 33 1 9 31
M  V30 34 1 9 32
M  V30 35 1 12 33
M  V30 36 1 12 34
M  V30 37 1 13 35
M  V30 38 1 13 36
M  V30 39 1 17 37
M  V30 40 1 17 38
M  V30 41 1 18 39
M  V30 42 1 21 40
M  V30 43 1 21 41
M  V30 44 1 22 42
M  V30 45 1 22 43
M  V30 46 1 22 44
M  V30 47 1 23 45
M  V30 48 1 23 46
M  V30 49 1 23 47
M  V30 END BOND
M  V30 END CTAB
M  END
>  <Structure No>
8368

>  <LogS>
-2.6

>  <MMFF94 Energy>
162.16

$$$$
Compound 8369
Actelion Java MolfileCreator 2.0

  0  0  0  0  0  0              0 V3000
M  V30 BEGIN CTAB
M  V30 COUNTS 43 47 0 0 0
M  V30 BEGIN ATOM
M  V30 1 F 1.9616 2.6979 -0.245 0
M  V30 2 C 0.8453 1.9382 -0.3632 0
M  V30 3 C 0.915 0.5353 -0.4377 0
M  V30 4 C -0.3899 2.5842 -0.3868 0
M  V30 5 N 2.1799 -0.1627 -0.4367 0
M  V30 6 C -0.2803 -0.199 -0.5127 0
M  V30 7 C -1.5877 1.8518 -0.4707 0
M  V30 8 C 3.5104 0.397 -0.6829 0 CFG=1
M  V30 9 C 2.388 -1.5233 0.0557 0
M  V30 10 C -1.5435 0.4365 -0.5065 0
M  V30 11 C -2.831 2.5067 -0.5316 0
M  V30 12 C 4.1589 0.6348 0.687 0
M  V30 13 C 4.285 -0.8141 -1.1348 0
M  V30 14 C 3.9262 -1.5964 0.1088 0 CFG=1
M  V30 15 N -2.7187 -0.2845 -0.5483 0
M  V30 16 O -2.8806 3.7676 -0.4876 0
M  V30 17 C -4.0144 1.7559 -0.6545 0
M  V30 18 N 4.4043 -0.7274 1.2018 0 CHG=1
M  V30 19 C -3.9198 0.3576 -0.6768 0
M  V30 20 C -2.724 -1.7604 -0.5573 0
M  V30 21 C -5.3536 2.3963 -0.761 0
M  V30 22 C -2.2271 -2.3924 0.7396 0
M  V30 23 C -3.7058 -2.4151 0.414 0
M  V30 24 O -5.476 3.65 -0.7719 0
M  V30 25 O -6.5003 1.6152 -0.8524 0 CHG=-1
M  V30 26 H -0.4039 3.6665 -0.3399 0
M  V30 27 H -0.2114 -1.2723 -0.6008 0
M  V30 28 H 3.5311 1.2428 -1.4016 0
M  V30 29 H 1.9276 -1.663 1.0578 0
M  V30 30 H 1.9808 -2.2644 -0.6662 0
M  V30 31 H 5.1146 1.1948 0.5726 0
M  V30 32 H 3.4818 1.2037 1.3626 0
M  V30 33 H 3.8798 -1.2631 -2.0708 0
M  V30 34 H 5.3795 -0.629 -1.2327 0
M  V30 35 H 4.3398 -2.6271 0.1521 0
M  V30 36 H 5.4287 -0.8805 1.3566 0
M  V30 37 H 3.8829 -0.9006 2.0933 0
M  V30 38 H -4.8256 -0.227 -0.7885 0
M  V30 39 H -2.501 -2.2933 -1.5058 0
M  V30 40 H -1.954 -1.6804 1.5481 0
M  V30 41 H -1.7162 -3.3689 0.6048 0
M  V30 42 H -4.299 -1.7413 1.0683 0
M  V30 43 H -4.0746 -3.4136 0.0984 0
M  V30 END ATOM
M  V30 BEGIN BOND
M  V30 1 1 1 2
M  V30 2 2 2 3
M  V30 3 1 2 4
M  V30 4 1 3 5
M  V30 5 1 3 6
M  V30 6 2 4 7
M  V30 7 1 5 8
M  V30 8 1 5 9
M  V30 9 2 6 10
M  V30 10 1 7 11
M  V30 11 1 8 12
M  V30 12 1 8 13
M  V30 13 1 9 14
M  V30 14 1 10 15
M  V30 15 2 11 16
M  V30 16 1 11 17
M  V30 17 1 12 18
M  V30 18 1 15 19
M  V30 19 1 15 20
M  V30 20 1 17 21
M  V30 21 1 20 22
M  V30 22 1 20 23
M  V30 23 2 21 24
M  V30 24 1 21 25
M  V30 25 1 7 10
M  V30 26 1 13 14
M  V30 27 1 14 18
M  V30 28 2 17 19
M  V30 29 1 22 23
M  V30 30 1 4 26
M  V30 31 1 6 27
M  V30 32 1 8 28
M  V30 33 1 9 29
M  V30 34 1 9 30
M  V30 35 1 12 31
M  V30 36 1 12 32
M  V30 37 1 13 33
M  V30 38 1 13 34
M  V30 39 1 14 35
M  V30 40 1 18 36
M  V30 41 1 18 37
M  V30 42 1 19 38
M  V30 43 1 20 39
M  V30 44 1 22 40
M  V30 45 1 22 41
M  V30 46 1 23 42
M  V30 47 1 23 43
M  V30 END BOND
M  V30 BEGIN COLLECTION
M  V30 MDLV30/STEABS ATOMS=(2 8 14)
M  V30 END COLLECTION
M  V30 END CTAB
M  END
>  <Structure No>
8369

>  <LogS>
-3.65

>  <MMFF94 Energy>
108.48

$$$$
Compound 8370
Actelion Java MolfileCreator 2.0

  0  0  0  0  0  0              0 V3000
M  V30 BEGIN CTAB
M  V30 COUNTS 40 39 0 0 0
M  V30 BEGIN ATOM
M  V30 1 O -1.4959 1.4959 0.3147 0
M  V30 2 C -1.4891 0.244 0.4645 0
M  V30 3 O -2.6006 -0.5335 0.1074 0
M  V30 4 N -0.3338 -0.4067 1.005 0
M  V30 5 C -3.8279 -0.0516 -0.4601 0
M  V30 6 C 0.8828 0.3295 1.3671 0 CFG=2
M  V30 7 C -4.7348 -1.2713 -0.6832 0
M  V30 8 C -3.5671 0.629 -1.8176 0
M  V30 9 C -4.5298 0.9192 0.5086 0
M  V30 10 C 1.5891 0.7933 0.1216 0
M  V30 11 C 1.8304 -0.545 2.2053 0
M  V30 12 O 1.9491 1.9983 0.0272 0
M  V30 13 N 1.8755 -0.1306 -0.9389 0
M  V30 14 C 1.2179 -0.9034 3.4913 0
M  V30 15 C 2.6109 0.2597 -2.138 0
M  V30 16 C 0.7141 -1.1979 4.5461 0
M  V30 17 C 4.0516 0.4828 -1.8067 0
M  V30 18 O 4.5563 1.6312 -1.9392 0
M  V30 19 O 4.8216 -0.5861 -1.34 0
M  V30 20 C 6.1902 -0.444 -0.9806 0
M  V30 21 H -0.3694 -1.445 1.1216 0
M  V30 22 H 0.5996 1.2176 1.9775 0
M  V30 23 H -4.9284 -1.7891 0.2809 0
M  V30 24 H -4.2453 -1.9948 -1.3703 0
M  V30 25 H -5.7095 -0.9689 -1.1241 0
M  V30 26 H -4.5265 0.8865 -2.3162 0
M  V30 27 H -2.9895 1.5679 -1.6956 0
M  V30 28 H -2.9927 -0.0504 -2.4828 0
M  V30 29 H -3.9526 1.8582 0.6305 0
M  V30 30 H -5.5379 1.1911 0.1271 0
M  V30 31 H -4.6445 0.4473 1.5079 0
M  V30 32 H 2.0881 -1.4764 1.6569 0
M  V30 33 H 2.7707 0.0104 2.4118 0
M  V30 34 H 1.5471 -1.1193 -0.8576 0
M  V30 35 H 2.544 -0.5521 -2.8931 0
M  V30 36 H 2.1578 1.1744 -2.5787 0
M  V30 37 H 0.2712 -1.4562 5.472 0
M  V30 38 H 6.7805 -0.1043 -1.8579 0
M  V30 39 H 6.2915 0.2893 -0.1527 0
M  V30 40 H 6.5816 -1.425 -0.6416 0
M  V30 END ATOM
M  V30 BEGIN BOND
M  V30 1 2 1 2
M  V30 2 1 2 3
M  V30 3 1 2 4
M  V30 4 1 3 5
M  V30 5 1 4 6
M  V30 6 1 5 7
M  V30 7 1 5 8
M  V30 8 1 5 9
M  V30 9 1 6 10
M  V30 10 1 6 11
M  V30 11 2 10 12
M  V30 12 1 10 13
M  V30 13 1 11 14
M  V30 14 1 13 15
M  V30 15 3 14 16
M  V30 16 1 15 17
M  V30 17 2 17 18
M  V30 18 1 17 19
M  V30 19 1 19 20
M  V30 20 1 4 21
M  V30 21 1 6 22
M  V30 22 1 7 23
M  V30 23 1 7 24
M  V30 24 1 7 25
M  V30 25 1 8 26
M  V30 26 1 8 27
M  V30 27 1 8 28
M  V30 28 1 9 29
M  V30 29 1 9 30
M  V30 30 1 9 31
M  V30 31 1 11 32
M  V30 32 1 11 33
M  V30 33 1 13 34
M  V30 34 1 15 35
M  V30 35 1 15 36
M  V30 36 1 16 37
M  V30 37 1 20 38
M  V30 38 1 20 39
M  V30 39 1 20 40
M  V30 END BOND
M  V30 BEGIN COLLECTION
M  V30 MDLV30/STEABS ATOMS=(1 6)
M  V30 END COLLECTION
M  V30 END CTAB
M  END
>  <Structure No>
8370

>  <LogS>
-1.45

>  <MMFF94 Energy>
-13.912

$$$$
Compound 8371
Actelion Java MolfileCreator 2.0

  0  0  0  0  0  0              0 V3000
M  V30 BEGIN CTAB
M  V30 COUNTS 44 45 0 0 0
M  V30 BEGIN ATOM
M  V30 1 Cl -1.5503 2.8573 -1.877 0
M  V30 2 C -1.2368 2.462 -0.1836 0
M  V30 3 C -1.4258 3.4613 0.7917 0
M  V30 4 C -0.8021 1.1694 0.2096 0
M  V30 5 Cl -1.9634 5.0795 0.3554 0
M  V30 6 C -1.187 3.1827 2.1398 0
M  V30 7 C -0.5693 0.9175 1.5766 0
M  V30 8 C -0.5766 0.0426 -0.7916 0 CFG=1
M  V30 9 C -0.7605 1.9158 2.5304 0
M  V30 10 C 0.8949 -0.3505 -0.7883 0
M  V30 11 C -1.5544 -1.0905 -0.5086 0
M  V30 12 C 1.2812 -1.5452 -0.2842 0
M  V30 13 C 1.8662 0.6562 -1.2959 0
M  V30 14 C -1.1095 -2.2678 -0.0121 0
M  V30 15 C -2.9982 -0.8136 -0.7419 0
M  V30 16 N 0.293 -2.4544 0.2183 0
M  V30 17 C 2.7235 -1.9811 -0.241 0
M  V30 18 O 1.5123 1.458 -2.2035 0
M  V30 19 O 3.1453 0.7577 -0.74 0
M  V30 20 C -2.0316 -3.4188 0.2986 0
M  V30 21 O -3.3359 -0.0096 -1.6538 0
M  V30 22 O -3.9782 -1.3906 0.0723 0
M  V30 23 C 4.1024 1.7163 -1.1768 0
M  V30 24 C -5.367 -1.135 -0.0975 0
M  V30 25 C 5.3861 1.5499 -0.3801 0
M  V30 26 H -1.3324 3.9509 2.8889 0
M  V30 27 H -0.2371 -0.0591 1.9054 0
M  V30 28 H -0.7948 0.3746 -1.8256 0
M  V30 29 H -0.5771 1.7062 3.5763 0
M  V30 30 H 0.6112 -3.3269 0.6975 0
M  V30 31 H 3.2199 -1.791 -1.2161 0
M  V30 32 H 3.2558 -1.4457 0.5728 0
M  V30 33 H 2.7989 -3.0705 -0.0421 0
M  V30 34 H -2.588 -3.2145 1.2371 0
M  V30 35 H -1.4553 -4.3572 0.4383 0
M  V30 36 H -2.7396 -3.5912 -0.5393 0
M  V30 37 H 3.7035 2.7424 -1.0224 0
M  V30 38 H 4.3183 1.5659 -2.2569 0
M  V30 39 H -5.9381 -1.7062 0.6628 0
M  V30 40 H -5.5732 -0.0517 0.0358 0
M  V30 41 H -5.6917 -1.4579 -1.1093 0
M  V30 42 H 5.7954 0.5286 -0.5303 0
M  V30 43 H 6.1372 2.2943 -0.7188 0
M  V30 44 H 5.1841 1.7063 0.7008 0
M  V30 END ATOM
M  V30 BEGIN BOND
M  V30 1 1 1 2
M  V30 2 2 2 3
M  V30 3 1 2 4
M  V30 4 1 3 5
M  V30 5 1 3 6
M  V30 6 2 4 7
M  V30 7 1 4 8
M  V30 8 2 6 9
M  V30 9 1 8 10
M  V30 10 1 8 11
M  V30 11 2 10 12
M  V30 12 1 10 13
M  V30 13 2 11 14
M  V30 14 1 11 15
M  V30 15 1 12 16
M  V30 16 1 12 17
M  V30 17 2 13 18
M  V30 18 1 13 19
M  V30 19 1 14 20
M  V30 20 2 15 21
M  V30 21 1 15 22
M  V30 22 1 19 23
M  V30 23 1 22 24
M  V30 24 1 23 25
M  V30 25 1 7 9
M  V30 26 1 14 16
M  V30 27 1 6 26
M  V30 28 1 7 27
M  V30 29 1 8 28
M  V30 30 1 9 29
M  V30 31 1 16 30
M  V30 32 1 17 31
M  V30 33 1 17 32
M  V30 34 1 17 33
M  V30 35 1 20 34
M  V30 36 1 20 35
M  V30 37 1 20 36
M  V30 38 1 23 37
M  V30 39 1 23 38
M  V30 40 1 24 39
M  V30 41 1 24 40
M  V30 42 1 24 41
M  V30 43 1 25 42
M  V30 44 1 25 43
M  V30 45 1 25 44
M  V30 END BOND
M  V30 BEGIN COLLECTION
M  V30 MDLV30/STEABS ATOMS=(1 8)
M  V30 END COLLECTION
M  V30 END CTAB
M  END
>  <Structure No>
8371

>  <LogS>
-5.68

>  <MMFF94 Energy>
14.362

$$$$
Compound 8372
Actelion Java MolfileCreator 2.0

  0  0  0  0  0  0              0 V3000
M  V30 BEGIN CTAB
M  V30 COUNTS 42 45 0 0 0
M  V30 BEGIN ATOM
M  V30 1 O 1.298 2.1912 -0.3243 0
M  V30 2 C 0.6469 2.0579 0.7463 0
M  V30 3 O -0.4367 2.8905 0.998 0 CHG=-1
M  V30 4 C 1.0062 0.9762 1.7301 0 CFG=2
M  V30 5 O 2.3966 0.91 1.8452 0
M  V30 6 C 0.5477 -0.4265 1.3464 0 CFG=2
M  V30 7 C 2.7666 -0.3783 1.4072 0 CFG=1
M  V30 8 O 1.6755 -1.0542 0.8263 0
M  V30 9 C -0.6225 -0.5061 0.3424 0 CFG=2
M  V30 10 C 3.8998 -0.2635 0.4195 0
M  V30 11 O -1.7625 0.097 0.8763 0
M  V30 12 C -1.0156 -1.9257 0.0179 0
M  V30 13 C 5.2284 -0.2525 0.8778 0
M  V30 14 C 3.6492 -0.0956 -0.9547 0
M  V30 15 C -2.8213 -0.8078 0.6527 0 CFG=2
M  V30 16 O -2.3988 -1.9084 -0.1167 0
M  V30 17 C 6.2875 -0.1154 -0.0255 0
M  V30 18 C 4.7111 0.0396 -1.8544 0
M  V30 19 C -3.9546 -0.1106 -0.0546 0
M  V30 20 C 6.0294 0.0236 -1.391 0
M  V30 21 C -3.7028 0.7235 -1.1587 0
M  V30 22 C -5.2838 -0.3358 0.3453 0
M  V30 23 C -4.7601 1.3481 -1.8279 0
M  V30 24 C -6.3387 0.2866 -0.3295 0
M  V30 25 C -6.0771 1.1317 -1.4114 0
M  V30 26 H 0.579 1.2466 2.7204 0
M  V30 27 H 0.2491 -0.9638 2.2764 0
M  V30 28 H 3.1067 -0.9669 2.289 0
M  V30 29 H -0.353 0.0094 -0.6057 0
M  V30 30 H -0.7402 -2.637 0.8287 0
M  V30 31 H -0.5472 -2.259 -0.9329 0
M  V30 32 H 5.4448 -0.3504 1.934 0
M  V30 33 H 2.635 -0.074 -1.3326 0
M  V30 34 H -3.167 -1.1809 1.643 0
M  V30 35 H 7.3085 -0.1135 0.3336 0
M  V30 36 H 4.5118 0.1572 -2.9113 0
M  V30 37 H 6.8508 0.1279 -2.0886 0
M  V30 38 H -2.6897 0.8901 -1.502 0
M  V30 39 H -5.5046 -0.9938 1.177 0
M  V30 40 H -4.5591 1.9968 -2.6719 0
M  V30 41 H -7.3599 0.1114 -0.0152 0
M  V30 42 H -6.895 1.6136 -1.9313 0
M  V30 END ATOM
M  V30 BEGIN BOND
M  V30 1 2 1 2
M  V30 2 1 2 3
M  V30 3 1 2 4
M  V30 4 1 4 5
M  V30 5 1 4 6
M  V30 6 1 5 7
M  V30 7 1 6 8
M  V30 8 1 6 9
M  V30 9 1 7 10
M  V30 10 1 9 11
M  V30 11 1 9 12
M  V30 12 2 10 13
M  V30 13 1 10 14
M  V30 14 1 11 15
M  V30 15 1 12 16
M  V30 16 1 13 17
M  V30 17 2 14 18
M  V30 18 1 15 19
M  V30 19 2 17 20
M  V30 20 2 19 21
M  V30 21 1 19 22
M  V30 22 1 21 23
M  V30 23 2 22 24
M  V30 24 2 23 25
M  V30 25 1 7 8
M  V30 26 1 15 16
M  V30 27 1 18 20
M  V30 28 1 24 25
M  V30 29 1 4 26
M  V30 30 1 6 27
M  V30 31 1 7 28
M  V30 32 1 9 29
M  V30 33 1 12 30
M  V30 34 1 12 31
M  V30 35 1 13 32
M  V30 36 1 14 33
M  V30 37 1 15 34
M  V30 38 1 17 35
M  V30 39 1 18 36
M  V30 40 1 20 37
M  V30 41 1 21 38
M  V30 42 1 22 39
M  V30 43 1 23 40
M  V30 44 1 24 41
M  V30 45 1 25 42
M  V30 END BOND
M  V30 BEGIN COLLECTION
M  V30 MDLV30/STEABS ATOMS=(5 4 6 7 9 15)
M  V30 END COLLECTION
M  V30 END CTAB
M  END
>  <Structure No>
8372

>  <LogS>
-2.45

>  <MMFF94 Energy>
120.98

$$$$
Compound 8373
Actelion Java MolfileCreator 2.0

  0  0  0  0  0  0              0 V3000
M  V30 BEGIN CTAB
M  V30 COUNTS 44 46 0 0 0
M  V30 BEGIN ATOM
M  V30 1 O -2.3837 -0.4764 -1.1118 0
M  V30 2 C -1.799 -1.1064 -0.1871 0
M  V30 3 N -1.9426 -2.5424 -0.1083 0
M  V30 4 C -1.0223 -0.3257 0.8463 0
M  V30 5 C -1.4088 -3.2979 1.0302 0
M  V30 6 C -2.6513 -3.2445 -1.1832 0
M  V30 7 C -0.3425 0.8756 0.2403 0
M  V30 8 N -0.9205 2.0761 0.0508 0
M  V30 9 C 0.9869 0.9914 -0.1699 0
M  V30 10 C 0.0419 2.877 -0.4377 0
M  V30 11 C -2.1917 2.4973 0.288 0
M  V30 12 N 1.2306 2.2591 -0.5837 0
M  V30 13 C 2.0324 -0.0529 -0.1428 0
M  V30 14 C -0.2179 4.2126 -0.7328 0
M  V30 15 C -2.5211 3.8331 -0.0079 0
M  V30 16 C 1.7583 -1.3679 -0.5531 0
M  V30 17 C 3.3379 0.2821 0.2492 0
M  V30 18 C -1.517 4.692 -0.5073 0
M  V30 19 C -3.8984 4.3551 0.2708 0
M  V30 20 C 2.7615 -2.3405 -0.5288 0
M  V30 21 C 4.3418 -0.6905 0.2727 0
M  V30 22 C 4.0547 -2.0126 -0.0966 0
M  V30 23 C 5.1406 -3.0469 -0.1089 0
M  V30 24 H -0.253 -0.9541 1.3357 0
M  V30 25 H -1.7186 0.0019 1.6457 0
M  V30 26 H -1.784 -2.8637 1.9811 0
M  V30 27 H -0.2993 -3.2674 1.0156 0
M  V30 28 H -1.7214 -4.3626 0.9996 0
M  V30 29 H -2.1489 -3.0461 -2.1535 0
M  V30 30 H -2.664 -4.3428 -1.022 0
M  V30 31 H -3.7016 -2.8874 -1.2353 0
M  V30 32 H -2.9358 1.8212 0.6901 0
M  V30 33 H 0.557 4.8625 -1.1182 0
M  V30 34 H 0.7795 -1.6392 -0.9209 0
M  V30 35 H 3.5781 1.2953 0.5479 0
M  V30 36 H -1.742 5.7297 -0.72 0
M  V30 37 H -3.9432 4.7414 1.3104 0
M  V30 38 H -4.6536 3.5494 0.1504 0
M  V30 39 H -4.1552 5.1756 -0.4323 0
M  V30 40 H 2.5313 -3.3473 -0.8548 0
M  V30 41 H 5.3423 -0.4122 0.5798 0
M  V30 42 H 5.6406 -3.0452 -1.0998 0
M  V30 43 H 5.8946 -2.8325 0.678 0
M  V30 44 H 4.721 -4.0572 0.0839 0
M  V30 END ATOM
M  V30 BEGIN BOND
M  V30 1 2 1 2
M  V30 2 1 2 3
M  V30 3 1 2 4
M  V30 4 1 3 5
M  V30 5 1 3 6
M  V30 6 1 4 7
M  V30 7 1 7 8
M  V30 8 2 7 9
M  V30 9 1 8 10
M  V30 10 1 8 11
M  V30 11 1 9 12
M  V30 12 1 9 13
M  V30 13 1 10 14
M  V30 14 2 11 15
M  V30 15 2 13 16
M  V30 16 1 13 17
M  V30 17 2 14 18
M  V30 18 1 15 19
M  V30 19 1 16 20
M  V30 20 2 17 21
M  V30 21 2 20 22
M  V30 22 1 22 23
M  V30 23 2 10 12
M  V30 24 1 15 18
M  V30 25 1 21 22
M  V30 26 1 4 24
M  V30 27 1 4 25
M  V30 28 1 5 26
M  V30 29 1 5 27
M  V30 30 1 5 28
M  V30 31 1 6 29
M  V30 32 1 6 30
M  V30 33 1 6 31
M  V30 34 1 11 32
M  V30 35 1 14 33
M  V30 36 1 16 34
M  V30 37 1 17 35
M  V30 38 1 18 36
M  V30 39 1 19 37
M  V30 40 1 19 38
M  V30 41 1 19 39
M  V30 42 1 20 40
M  V30 43 1 21 41
M  V30 44 1 23 42
M  V30 45 1 23 43
M  V30 46 1 23 44
M  V30 END BOND
M  V30 END CTAB
M  END
>  <Structure No>
8373

>  <LogS>
-1.3

>  <MMFF94 Energy>
47.482

$$$$
Compound 8374
Actelion Java MolfileCreator 2.0

  0  0  0  0  0  0              0 V3000
M  V30 BEGIN CTAB
M  V30 COUNTS 34 35 0 0 0
M  V30 BEGIN ATOM
M  V30 1 O -3.9003 1.1927 0.6359 0
M  V30 2 C -3.5189 0.1842 -0.0207 0
M  V30 3 O -3.864 0.0461 -1.3682 0
M  V30 4 C -2.6404 -0.8567 0.6195 0 CFG=1
M  V30 5 C -4.6631 1.0006 -2.0561 0
M  V30 6 C -1.1807 -0.4645 0.5071 0
M  V30 7 C -3.0353 -1.1238 2.0778 0
M  V30 8 C -0.2826 -1.2906 -0.1913 0
M  V30 9 C -0.7026 0.7199 1.098 0
M  V30 10 C 1.0715 -0.9402 -0.3014 0
M  V30 11 C 0.6438 1.0753 0.9927 0
M  V30 12 C 1.5393 0.253 0.2954 0
M  V30 13 C 1.9673 -1.7629 -0.9986 0
M  V30 14 C 2.8942 0.6035 0.1849 0
M  V30 15 C 3.3138 -1.406 -1.1033 0
M  V30 16 C 3.7889 -0.2274 -0.5169 0
M  V30 17 O 5.1507 0.08 -0.6545 0
M  V30 18 C 5.7726 1.2409 -0.1131 0
M  V30 19 H -2.8124 -1.8082 0.0686 0
M  V30 20 H -4.7999 0.6722 -3.1066 0
M  V30 21 H -5.6592 1.0825 -1.5717 0
M  V30 22 H -4.1606 1.991 -2.0512 0
M  V30 23 H -4.094 -1.457 2.1294 0
M  V30 24 H -2.3965 -1.9281 2.5013 0
M  V30 25 H -2.9194 -0.2125 2.7022 0
M  V30 26 H -0.6383 -2.2064 -0.6495 0
M  V30 27 H -1.3735 1.3725 1.6415 0
M  V30 28 H 0.9844 1.9934 1.4566 0
M  V30 29 H 1.6272 -2.6811 -1.4625 0
M  V30 30 H 3.2446 1.5187 0.6447 0
M  V30 31 H 3.9947 -2.0505 -1.6446 0
M  V30 32 H 6.8508 1.2291 -0.3731 0
M  V30 33 H 5.6738 1.2465 0.993 0
M  V30 34 H 5.3133 2.156 -0.5431 0
M  V30 END ATOM
M  V30 BEGIN BOND
M  V30 1 2 1 2
M  V30 2 1 2 3
M  V30 3 1 2 4
M  V30 4 1 3 5
M  V30 5 1 4 6
M  V30 6 1 4 7
M  V30 7 2 6 8
M  V30 8 1 6 9
M  V30 9 1 8 10
M  V30 10 2 9 11
M  V30 11 1 10 12
M  V30 12 2 10 13
M  V30 13 2 12 14
M  V30 14 1 13 15
M  V30 15 1 14 16
M  V30 16 1 16 17
M  V30 17 1 17 18
M  V30 18 1 11 12
M  V30 19 2 15 16
M  V30 20 1 4 19
M  V30 21 1 5 20
M  V30 22 1 5 21
M  V30 23 1 5 22
M  V30 24 1 7 23
M  V30 25 1 7 24
M  V30 26 1 7 25
M  V30 27 1 8 26
M  V30 28 1 9 27
M  V30 29 1 11 28
M  V30 30 1 13 29
M  V30 31 1 14 30
M  V30 32 1 15 31
M  V30 33 1 18 32
M  V30 34 1 18 33
M  V30 35 1 18 34
M  V30 END BOND
M  V30 BEGIN COLLECTION
M  V30 MDLV30/STEABS ATOMS=(1 4)
M  V30 END COLLECTION
M  V30 END CTAB
M  END
>  <Structure No>
8374

>  <LogS>
-4.78

>  <MMFF94 Energy>
49.971

$$$$
Compound 8375
Actelion Java MolfileCreator 2.0

  0  0  0  0  0  0              0 V3000
M  V30 BEGIN CTAB
M  V30 COUNTS 29 29 0 0 0
M  V30 BEGIN ATOM
M  V30 1 O -1.2693 -2.0633 -1.5868 0
M  V30 2 C -0.834 -1.1812 -0.7965 0
M  V30 3 N -1.6059 -0.733 0.2475 0
M  V30 4 C 0.4504 -0.6656 -0.9988 0
M  V30 5 C -1.1248 0.2268 1.0967 0
M  V30 6 C -2.9694 -1.2531 0.4541 0
M  V30 7 C 0.9473 0.3221 -0.1415 0
M  V30 8 C 0.1522 0.7613 0.9217 0
M  V30 9 C -3.9765 -0.5551 -0.468 0
M  V30 10 C 2.34 0.8629 -0.3263 0
M  V30 11 C -4.1086 0.8985 -0.1348 0
M  V30 12 C 3.3528 0.019 0.4543 0
M  V30 13 O -3.4748 1.7612 -0.7978 0
M  V30 14 O -4.8989 1.2972 0.9357 0 CHG=-1
M  V30 15 C 4.7703 0.5549 0.2768 0
M  V30 16 H 1.0569 -1.0321 -1.819 0
M  V30 17 H -1.7307 0.5896 1.9189 0
M  V30 18 H -3.2857 -1.1296 1.5147 0
M  V30 19 H -2.9929 -2.3471 0.2555 0
M  V30 20 H 0.5172 1.5135 1.6103 0
M  V30 21 H -3.6677 -0.6747 -1.529 0
M  V30 22 H -4.9694 -1.0394 -0.3507 0
M  V30 23 H 2.3827 1.9184 0.0226 0
M  V30 24 H 2.6033 0.8608 -1.4071 0
M  V30 25 H 3.096 0.0316 1.5363 0
M  V30 26 H 3.3183 -1.0333 0.0965 0
M  V30 27 H 5.061 0.5293 -0.7948 0
M  V30 28 H 4.8377 1.5989 0.6509 0
M  V30 29 H 5.4806 -0.0751 0.8526 0
M  V30 END ATOM
M  V30 BEGIN BOND
M  V30 1 2 1 2
M  V30 2 1 2 3
M  V30 3 1 2 4
M  V30 4 1 3 5
M  V30 5 1 3 6
M  V30 6 2 4 7
M  V30 7 2 5 8
M  V30 8 1 6 9
M  V30 9 1 7 10
M  V30 10 1 9 11
M  V30 11 1 10 12
M  V30 12 2 11 13
M  V30 13 1 11 14
M  V30 14 1 12 15
M  V30 15 1 7 8
M  V30 16 1 4 16
M  V30 17 1 5 17
M  V30 18 1 6 18
M  V30 19 1 6 19
M  V30 20 1 8 20
M  V30 21 1 9 21
M  V30 22 1 9 22
M  V30 23 1 10 23
M  V30 24 1 10 24
M  V30 25 1 12 25
M  V30 26 1 12 26
M  V30 27 1 15 27
M  V30 28 1 15 28
M  V30 29 1 15 29
M  V30 END BOND
M  V30 END CTAB
M  END
>  <Structure No>
8375

>  <LogS>
-2.11

>  <MMFF94 Energy>
-7.4828

$$$$
Compound 8376
Actelion Java MolfileCreator 2.0

  0  0  0  0  0  0              0 V3000
M  V30 BEGIN CTAB
M  V30 COUNTS 29 29 0 0 0
M  V30 BEGIN ATOM
M  V30 1 O -1.7454 0.6344 -2.619 0
M  V30 2 C -2.5212 0.5048 -1.6326 0
M  V30 3 N -2.1691 -0.2797 -0.5605 0
M  V30 4 C -3.749 1.1759 -1.6428 0
M  V30 5 C -3.0064 -0.3894 0.5174 0
M  V30 6 C -0.8694 -0.9699 -0.5242 0
M  V30 7 C -4.6093 1.0536 -0.554 0
M  V30 8 C -4.2373 0.2695 0.5348 0
M  V30 9 C 0.2059 -0.0466 0.0582 0
M  V30 10 C 1.5686 -0.7467 0.1071 0
M  V30 11 C 2.6422 0.1793 0.6905 0
M  V30 12 C 4.0037 -0.5198 0.7394 0
M  V30 13 C 5.0428 0.3952 1.306 0
M  V30 14 O 5.2507 0.4263 2.5474 0
M  V30 15 O 5.7475 1.2502 0.4682 0 CHG=-1
M  V30 16 H -4.0329 1.7916 -2.4876 0
M  V30 17 H -2.7251 -0.9886 1.3756 0
M  V30 18 H -0.9412 -1.8939 0.0925 0
M  V30 19 H -0.5757 -1.298 -1.5457 0
M  V30 20 H -5.5605 1.5701 -0.5519 0
M  V30 21 H -4.8956 0.1744 1.3886 0
M  V30 22 H -0.0925 0.2561 1.0859 0
M  V30 23 H 0.2819 0.8679 -0.5697 0
M  V30 24 H 1.4901 -1.6609 0.7363 0
M  V30 25 H 1.8635 -1.0494 -0.9217 0
M  V30 26 H 2.7209 1.094 0.0615 0
M  V30 27 H 2.3473 0.4824 1.7198 0
M  V30 28 H 4.3088 -0.8232 -0.2854 0
M  V30 29 H 3.9369 -1.4354 1.3672 0
M  V30 END ATOM
M  V30 BEGIN BOND
M  V30 1 2 1 2
M  V30 2 1 2 3
M  V30 3 1 2 4
M  V30 4 1 3 5
M  V30 5 1 3 6
M  V30 6 2 4 7
M  V30 7 2 5 8
M  V30 8 1 6 9
M  V30 9 1 9 10
M  V30 10 1 10 11
M  V30 11 1 11 12
M  V30 12 1 12 13
M  V30 13 2 13 14
M  V30 14 1 13 15
M  V30 15 1 7 8
M  V30 16 1 4 16
M  V30 17 1 5 17
M  V30 18 1 6 18
M  V30 19 1 6 19
M  V30 20 1 7 20
M  V30 21 1 8 21
M  V30 22 1 9 22
M  V30 23 1 9 23
M  V30 24 1 10 24
M  V30 25 1 10 25
M  V30 26 1 11 26
M  V30 27 1 11 27
M  V30 28 1 12 28
M  V30 29 1 12 29
M  V30 END BOND
M  V30 END CTAB
M  END
>  <Structure No>
8376

>  <LogS>
-0.64

>  <MMFF94 Energy>
6.2611

$$$$
Compound 8377
Actelion Java MolfileCreator 2.0

  0  0  0  0  0  0              0 V3000
M  V30 BEGIN CTAB
M  V30 COUNTS 29 29 0 0 0
M  V30 BEGIN ATOM
M  V30 1 O 0.8754 4.0639 0.3182 0
M  V30 2 N 1.4111 2.9417 0.2153 0 CHG=1
M  V30 3 O 2.7832 2.858 0.1552 0 CHG=-1
M  V30 4 C 0.5951 1.7631 0.1615 0
M  V30 5 C 1.0602 0.5199 0.0527 0
M  V30 6 C -0.912 1.7853 0.2226 0
M  V30 7 O 2.4157 0.1793 -0.0254 0
M  V30 8 C -0.0806 -0.3761 0.0322 0
M  V30 9 N -1.2836 0.3758 0.1344 0
M  V30 10 C 2.8844 -1.1592 -0.1415 0
M  V30 11 O -0.0342 -1.6313 -0.061 0
M  V30 12 C -2.6603 -0.1296 0.1517 0
M  V30 13 C 4.4033 -1.1612 -0.2013 0
M  V30 14 C -2.9867 -0.8528 -1.1574 0
M  V30 15 C -2.8875 -1.0366 1.3641 0
M  V30 16 H -1.2572 2.2153 1.187 0
M  V30 17 H -1.3291 2.3484 -0.6394 0
M  V30 18 H 2.4826 -1.6192 -1.0701 0
M  V30 19 H 2.5539 -1.7511 0.7393 0
M  V30 20 H -3.3572 0.7334 0.2422 0
M  V30 21 H 4.749 -0.5773 -1.0806 0
M  V30 22 H 4.7737 -2.204 -0.2919 0
M  V30 23 H 4.82 -0.7088 0.7236 0
M  V30 24 H -2.3699 -1.7685 -1.2726 0
M  V30 25 H -4.0591 -1.1425 -1.1745 0
M  V30 26 H -2.7921 -0.1784 -2.0184 0
M  V30 27 H -2.6223 -0.493 2.2958 0
M  V30 28 H -3.9569 -1.3319 1.4228 0
M  V30 29 H -2.2688 -1.9559 1.2969 0
M  V30 END ATOM
M  V30 BEGIN BOND
M  V30 1 2 1 2
M  V30 2 1 2 3
M  V30 3 1 2 4
M  V30 4 2 4 5
M  V30 5 1 4 6
M  V30 6 1 5 7
M  V30 7 1 5 8
M  V30 8 1 6 9
M  V30 9 1 7 10
M  V30 10 2 8 11
M  V30 11 1 9 12
M  V30 12 1 10 13
M  V30 13 1 12 14
M  V30 14 1 12 15
M  V30 15 1 8 9
M  V30 16 1 6 16
M  V30 17 1 6 17
M  V30 18 1 10 18
M  V30 19 1 10 19
M  V30 20 1 12 20
M  V30 21 1 13 21
M  V30 22 1 13 22
M  V30 23 1 13 23
M  V30 24 1 14 24
M  V30 25 1 14 25
M  V30 26 1 14 26
M  V30 27 1 15 27
M  V30 28 1 15 28
M  V30 29 1 15 29
M  V30 END BOND
M  V30 END CTAB
M  END
>  <Structure No>
8377

>  <LogS>
-4.33

>  <MMFF94 Energy>
-18.889

$$$$
Compound 8378
Actelion Java MolfileCreator 2.0

  0  0  0  0  0  0              0 V3000
M  V30 BEGIN CTAB
M  V30 COUNTS 41 41 0 0 0
M  V30 BEGIN ATOM
M  V30 1 O 3.7192 -2.531 0.0 0
M  V30 2 C 3.1534 -1.4946 -0.4442 0
M  V30 3 N 3.8936 -0.456 -0.9542 0
M  V30 4 C 1.7572 -1.4166 -0.4072 0
M  V30 5 C 3.2702 0.6709 -1.4181 0
M  V30 6 C 5.3659 -0.5189 -0.9747 0
M  V30 7 C 1.11 -0.2765 -0.8961 0
M  V30 8 C 1.879 0.7799 -1.3937 0
M  V30 9 C 5.9576 -0.1513 0.3915 0
M  V30 10 C -0.3894 -0.1618 -0.8259 0
M  V30 11 C 5.6777 1.2766 0.7441 0
M  V30 12 C -0.82 0.4311 0.523 0
M  V30 13 O 4.7157 1.5653 1.5038 0
M  V30 14 O 6.4532 2.2921 0.1992 0 CHG=-1
M  V30 15 C -2.3335 0.6859 0.6008 0
M  V30 16 C -3.1502 -0.6173 0.6528 0
M  V30 17 C -4.6276 -0.3746 0.9998 0
M  V30 18 C -5.3903 0.3328 -0.1297 0
M  V30 19 C -6.8775 0.4411 0.1952 0
M  V30 20 H 1.1807 -2.2374 0.0038 0
M  V30 21 H 3.8487 1.502 -1.804 0
M  V30 22 H 5.6983 -1.5437 -1.2503 0
M  V30 23 H 5.7816 0.1563 -1.7563 0
M  V30 24 H 1.4061 1.6843 -1.7566 0
M  V30 25 H 5.5487 -0.823 1.177 0
M  V30 26 H 7.0579 -0.3017 0.3608 0
M  V30 27 H -0.8401 -1.1679 -0.9626 0
M  V30 28 H -0.7562 0.4823 -1.6552 0
M  V30 29 H -0.5082 -0.2437 1.3505 0
M  V30 30 H -0.3004 1.4038 0.6695 0
M  V30 31 H -2.5334 1.2759 1.5221 0
M  V30 32 H -2.6467 1.3011 -0.2697 0
M  V30 33 H -3.0855 -1.15 -0.3198 0
M  V30 34 H -2.721 -1.2832 1.4333 0
M  V30 35 H -4.7022 0.2195 1.9372 0
M  V30 36 H -5.1017 -1.3627 1.1897 0
M  V30 37 H -4.9886 1.3576 -0.277 0
M  V30 38 H -5.271 -0.2343 -1.0785 0
M  V30 39 H -7.322 -0.5701 0.3136 0
M  V30 40 H -7.402 0.964 -0.6321 0
M  V30 41 H -7.0264 1.0195 1.132 0
M  V30 END ATOM
M  V30 BEGIN BOND
M  V30 1 2 1 2
M  V30 2 1 2 3
M  V30 3 1 2 4
M  V30 4 1 3 5
M  V30 5 1 3 6
M  V30 6 2 4 7
M  V30 7 2 5 8
M  V30 8 1 6 9
M  V30 9 1 7 10
M  V30 10 1 9 11
M  V30 11 1 10 12
M  V30 12 2 11 13
M  V30 13 1 11 14
M  V30 14 1 12 15
M  V30 15 1 15 16
M  V30 16 1 16 17
M  V30 17 1 17 18
M  V30 18 1 18 19
M  V30 19 1 7 8
M  V30 20 1 4 20
M  V30 21 1 5 21
M  V30 22 1 6 22
M  V30 23 1 6 23
M  V30 24 1 8 24
M  V30 25 1 9 25
M  V30 26 1 9 26
M  V30 27 1 10 27
M  V30 28 1 10 28
M  V30 29 1 12 29
M  V30 30 1 12 30
M  V30 31 1 15 31
M  V30 32 1 15 32
M  V30 33 1 16 33
M  V30 34 1 16 34
M  V30 35 1 17 35
M  V30 36 1 17 36
M  V30 37 1 18 37
M  V30 38 1 18 38
M  V30 39 1 19 39
M  V30 40 1 19 40
M  V30 41 1 19 41
M  V30 END BOND
M  V30 END CTAB
M  END
>  <Structure No>
8378

>  <LogS>
-4.4

>  <MMFF94 Energy>
-8.3529

$$$$
Compound 8379
Actelion Java MolfileCreator 2.0

  0  0  0  0  0  0              0 V3000
M  V30 BEGIN CTAB
M  V30 COUNTS 54 54 0 0 0
M  V30 BEGIN ATOM
M  V30 1 O -1.1835 0.0788 -3.6328 0
M  V30 2 C -0.4676 -0.1787 -2.6267 0
M  V30 3 O -0.8133 0.3267 -1.3699 0
M  V30 4 C 0.7142 -1.059 -2.7652 0
M  V30 5 C -1.9352 1.175 -1.1519 0
M  V30 6 C 1.8602 -0.9338 -1.9324 0
M  V30 7 C 0.6626 -2.1047 -3.7031 0
M  V30 8 C -2.0023 1.5672 0.3353 0 CFG=2
M  V30 9 C 2.0584 0.2054 -1.0109 0
M  V30 10 C 2.8817 -1.8958 -2.0204 0
M  V30 11 C 1.6999 -3.034 -3.7912 0
M  V30 12 C -2.1241 0.3841 1.3512 0
M  V30 13 C -2.9836 2.7341 0.6062 0
M  V30 14 O 1.6642 1.3605 -1.3313 0
M  V30 15 O 2.7299 0.0051 0.1958 0
M  V30 16 C 2.801 -2.9373 -2.9435 0
M  V30 17 C -2.7162 -0.9661 0.866 0
M  V30 18 C -4.4331 2.4777 0.1971 0
M  V30 19 C 2.9336 1.0502 1.1439 0
M  V30 20 C -4.232 -1.1305 1.103 0
M  V30 21 C 3.7813 0.5424 2.3114 0
M  V30 22 C -5.0302 -1.1514 -0.1993 0
M  V30 23 C 5.1986 0.1671 1.858 0
M  V30 24 C 6.0342 -0.346 3.0238 0
M  V30 25 H -2.8627 0.663 -1.4751 0
M  V30 26 H -1.8151 2.0923 -1.7686 0
M  V30 27 H -0.1977 -2.2221 -4.3499 0
M  V30 28 H -1.0062 2.0219 0.5457 0
M  V30 29 H 3.7616 -1.8242 -1.3914 0
M  V30 30 H 1.6426 -3.8397 -4.5088 0
M  V30 31 H -2.6441 0.7158 2.2759 0
M  V30 32 H -1.0887 0.1563 1.6912 0
M  V30 33 H -2.6274 3.6324 0.0535 0
M  V30 34 H -2.9566 2.9995 1.6863 0
M  V30 35 H 3.6006 -3.6641 -3.0088 0
M  V30 36 H -2.216 -1.7606 1.4644 0
M  V30 37 H -2.4361 -1.2048 -0.1783 0
M  V30 38 H -4.5074 2.2504 -0.8862 0
M  V30 39 H -4.8714 1.6573 0.7945 0
M  V30 40 H -5.032 3.3918 0.3934 0
M  V30 41 H 3.4434 1.9125 0.6569 0
M  V30 42 H 1.9485 1.3912 1.5309 0
M  V30 43 H -4.4117 -2.1017 1.615 0
M  V30 44 H -4.6307 -0.35 1.7822 0
M  V30 45 H 3.2842 -0.3405 2.7693 0
M  V30 46 H 3.8423 1.3434 3.0785 0
M  V30 47 H -6.1075 -1.2935 0.0296 0
M  V30 48 H -4.6934 -1.9914 -0.8431 0
M  V30 49 H -4.9115 -0.2012 -0.7539 0
M  V30 50 H 5.1522 -0.6221 1.0801 0
M  V30 51 H 5.6981 1.0573 1.4241 0
M  V30 52 H 7.0584 -0.5892 2.668 0
M  V30 53 H 5.5771 -1.2635 3.4474 0
M  V30 54 H 6.1056 0.4258 3.8181 0
M  V30 END ATOM
M  V30 BEGIN BOND
M  V30 1 2 1 2
M  V30 2 1 2 3
M  V30 3 1 2 4
M  V30 4 1 3 5
M  V30 5 2 4 6
M  V30 6 1 4 7
M  V30 7 1 5 8
M  V30 8 1 6 9
M  V30 9 1 6 10
M  V30 10 2 7 11
M  V30 11 1 8 12
M  V30 12 1 8 13
M  V30 13 2 9 14
M  V30 14 1 9 15
M  V30 15 2 10 16
M  V30 16 1 12 17
M  V30 17 1 13 18
M  V30 18 1 15 19
M  V30 19 1 17 20
M  V30 20 1 19 21
M  V30 21 1 20 22
M  V30 22 1 21 23
M  V30 23 1 23 24
M  V30 24 1 11 16
M  V30 25 1 5 25
M  V30 26 1 5 26
M  V30 27 1 7 27
M  V30 28 1 8 28
M  V30 29 1 10 29
M  V30 30 1 11 30
M  V30 31 1 12 31
M  V30 32 1 12 32
M  V30 33 1 13 33
M  V30 34 1 13 34
M  V30 35 1 16 35
M  V30 36 1 17 36
M  V30 37 1 17 37
M  V30 38 1 18 38
M  V30 39 1 18 39
M  V30 40 1 18 40
M  V30 41 1 19 41
M  V30 42 1 19 42
M  V30 43 1 20 43
M  V30 44 1 20 44
M  V30 45 1 21 45
M  V30 46 1 21 46
M  V30 47 1 22 47
M  V30 48 1 22 48
M  V30 49 1 22 49
M  V30 50 1 23 50
M  V30 51 1 23 51
M  V30 52 1 24 52
M  V30 53 1 24 53
M  V30 54 1 24 54
M  V30 END BOND
M  V30 BEGIN COLLECTION
M  V30 MDLV30/STEABS ATOMS=(1 8)
M  V30 END COLLECTION
M  V30 END CTAB
M  END
>  <Structure No>
8379

>  <LogS>
-7.22

>  <MMFF94 Energy>
24.504

$$$$
Compound 8380
Actelion Java MolfileCreator 2.0

  0  0  0  0  0  0              0 V3000
M  V30 BEGIN CTAB
M  V30 COUNTS 49 51 0 0 0
M  V30 BEGIN ATOM
M  V30 1 S 3.004 0.3244 -3.004 0
M  V30 2 O 3.6614 -0.4788 -4.0903 0
M  V30 3 O 3.0593 1.7822 -3.3677 0
M  V30 4 N 1.3455 -0.1551 -2.8549 0
M  V30 5 C 3.844 0.0316 -1.4846 0
M  V30 6 C 0.495 0.3739 -1.8336 0
M  V30 7 C 4.7661 0.9638 -0.9884 0
M  V30 8 C 3.5867 -1.1407 -0.761 0
M  V30 9 N -0.7682 -0.1016 -1.6969 0
M  V30 10 N 0.9403 1.348 -0.9988 0
M  V30 11 C 5.4174 0.7293 0.2265 0
M  V30 12 C 4.2389 -1.3752 0.4531 0
M  V30 13 C -1.6029 0.3592 -0.7264 0
M  V30 14 C 0.1479 1.8501 -0.0191 0
M  V30 15 C 5.1559 -0.4403 0.9539 0
M  V30 16 C -1.1529 1.3564 0.1665 0
M  V30 17 C -2.9962 -0.214 -0.6293 0 CFG=1
M  V30 18 N 5.8185 -0.6776 2.1989 0
M  V30 19 C -2.0629 1.9882 1.2157 0 CFG=1
M  V30 20 C -3.0126 -1.5052 0.2553 0
M  V30 21 C -3.9465 0.9018 -0.1466 0
M  V30 22 C -3.5139 1.4399 1.219 0
M  V30 23 C -1.4569 1.8511 2.6211 0
M  V30 24 C -4.4372 -2.0513 0.4577 0
M  V30 25 C -2.1363 -2.6146 -0.3544 0
M  V30 26 H 0.9759 -0.8854 -3.503 0
M  V30 27 H 4.9794 1.8718 -1.5376 0
M  V30 28 H 2.8792 -1.8699 -1.1349 0
M  V30 29 H 6.125 1.4586 0.6007 0
M  V30 30 H 4.0284 -2.2831 1.004 0
M  V30 31 H 0.5304 2.6473 0.6038 0
M  V30 32 H -3.3283 -0.4941 -1.6544 0
M  V30 33 H 6.4957 0.018 2.585 0
M  V30 34 H 5.6303 -1.5464 2.7475 0
M  V30 35 H -2.1233 3.0739 0.9777 0
M  V30 36 H -2.5903 -1.2743 1.2576 0
M  V30 37 H -4.9967 0.5469 -0.1034 0
M  V30 38 H -3.9326 1.7373 -0.882 0
M  V30 39 H -3.6366 0.6373 1.9777 0
M  V30 40 H -4.2086 2.2554 1.5174 0
M  V30 41 H -0.4886 2.3881 2.6919 0
M  V30 42 H -2.1403 2.2933 3.3772 0
M  V30 43 H -1.2926 0.7803 2.8687 0
M  V30 44 H -5.0307 -1.3727 1.1042 0
M  V30 45 H -4.9516 -2.1753 -0.5192 0
M  V30 46 H -4.4102 -3.0351 0.9733 0
M  V30 47 H -2.4486 -2.8325 -1.3982 0
M  V30 48 H -2.2153 -3.5477 0.2432 0
M  V30 49 H -1.0668 -2.3201 -0.3459 0
M  V30 END ATOM
M  V30 BEGIN BOND
M  V30 1 2 1 2
M  V30 2 2 1 3
M  V30 3 1 1 4
M  V30 4 1 1 5
M  V30 5 1 4 6
M  V30 6 2 5 7
M  V30 7 1 5 8
M  V30 8 2 6 9
M  V30 9 1 6 10
M  V30 10 1 7 11
M  V30 11 2 8 12
M  V30 12 1 9 13
M  V30 13 2 10 14
M  V30 14 2 11 15
M  V30 15 2 13 16
M  V30 16 1 13 17
M  V30 17 1 15 18
M  V30 18 1 16 19
M  V30 19 1 17 20
M  V30 20 1 17 21
M  V30 21 1 19 22
M  V30 22 1 19 23
M  V30 23 1 20 24
M  V30 24 1 20 25
M  V30 25 1 12 15
M  V30 26 1 14 16
M  V30 27 1 21 22
M  V30 28 1 4 26
M  V30 29 1 7 27
M  V30 30 1 8 28
M  V30 31 1 11 29
M  V30 32 1 12 30
M  V30 33 1 14 31
M  V30 34 1 17 32
M  V30 35 1 18 33
M  V30 36 1 18 34
M  V30 37 1 19 35
M  V30 38 1 20 36
M  V30 39 1 21 37
M  V30 40 1 21 38
M  V30 41 1 22 39
M  V30 42 1 22 40
M  V30 43 1 23 41
M  V30 44 1 23 42
M  V30 45 1 23 43
M  V30 46 1 24 44
M  V30 47 1 24 45
M  V30 48 1 24 46
M  V30 49 1 25 47
M  V30 50 1 25 48
M  V30 51 1 25 49
M  V30 END BOND
M  V30 BEGIN COLLECTION
M  V30 MDLV30/STEABS ATOMS=(2 17 19)
M  V30 END COLLECTION
M  V30 END CTAB
M  END
>  <Structure No>
8380

>  <LogS>
-4.18

>  <MMFF94 Energy>
-113.95

$$$$
Compound 8381
Actelion Java MolfileCreator 2.0

  0  0  0  0  0  0              0 V3000
M  V30 BEGIN CTAB
M  V30 COUNTS 30 32 0 0 0
M  V30 BEGIN ATOM
M  V30 1 O -2.3114 3.349 2.0721 0
M  V30 2 C -1.4904 2.5024 1.6324 0
M  V30 3 O -1.9264 1.4825 0.9036 0
M  V30 4 C -0.1326 2.6418 1.9081 0
M  V30 5 C -1.1258 0.5446 0.4029 0
M  V30 6 C 0.7583 1.6935 1.4157 0
M  V30 7 C -1.6673 -0.5082 -0.383 0
M  V30 8 C 0.2849 0.6082 0.6551 0
M  V30 9 O -3.0323 -0.6618 -0.6849 0
M  V30 10 C -0.7789 -1.4466 -0.8945 0
M  V30 11 C 1.1538 -0.3991 0.1371 0
M  V30 12 C -4.0863 0.1905 -0.2509 0
M  V30 13 O -1.074 -2.4728 -1.6554 0
M  V30 14 C 0.5676 -1.3968 -0.6538 0
M  V30 15 C 2.6534 -0.3976 0.3676 0
M  V30 16 C 0.0478 -3.1069 -1.9321 0
M  V30 17 C 1.1209 -2.4697 -1.3261 0
M  V30 18 N 3.3292 0.4486 -0.6146 0 CHG=1
M  V30 19 H 0.2299 3.4768 2.4954 0
M  V30 20 H 1.8074 1.8321 1.6307 0
M  V30 21 H -5.0477 -0.1978 -0.6447 0
M  V30 22 H -3.9376 1.2173 -0.6465 0
M  V30 23 H -4.1418 0.199 0.858 0
M  V30 24 H 2.8976 -0.0611 1.3969 0
M  V30 25 H 3.0583 -1.4301 0.3031 0
M  V30 26 H 0.1079 -3.9951 -2.5465 0
M  V30 27 H 2.1611 -2.7597 -1.3838 0
M  V30 28 H 4.3582 0.4339 -0.4298 0
M  V30 29 H 2.9862 1.4338 -0.5423 0
M  V30 30 H 3.1527 0.085 -1.5794 0
M  V30 END ATOM
M  V30 BEGIN BOND
M  V30 1 2 1 2
M  V30 2 1 2 3
M  V30 3 1 2 4
M  V30 4 1 3 5
M  V30 5 2 4 6
M  V30 6 2 5 7
M  V30 7 1 5 8
M  V30 8 1 7 9
M  V30 9 1 7 10
M  V30 10 2 8 11
M  V30 11 1 9 12
M  V30 12 1 10 13
M  V30 13 2 10 14
M  V30 14 1 11 15
M  V30 15 1 13 16
M  V30 16 1 14 17
M  V30 17 1 15 18
M  V30 18 1 6 8
M  V30 19 1 11 14
M  V30 20 2 16 17
M  V30 21 1 4 19
M  V30 22 1 6 20
M  V30 23 1 12 21
M  V30 24 1 12 22
M  V30 25 1 12 23
M  V30 26 1 15 24
M  V30 27 1 15 25
M  V30 28 1 16 26
M  V30 29 1 17 27
M  V30 30 1 18 28
M  V30 31 1 18 29
M  V30 32 1 18 30
M  V30 END BOND
M  V30 END CTAB
M  END
>  <Structure No>
8381

>  <LogS>
-0.9

>  <MMFF94 Energy>
51.217

$$$$
Compound 8382
Actelion Java MolfileCreator 2.0

  0  0  0  0  0  0              0 V3000
M  V30 BEGIN CTAB
M  V30 COUNTS 35 36 0 0 0
M  V30 BEGIN ATOM
M  V30 1 O 0.7121 -2.5337 1.2662 0
M  V30 2 C 0.4581 -1.9917 0.1562 0
M  V30 3 N -0.578 -1.0045 0.0491 0
M  V30 4 C 1.2833 -2.3465 -1.0423 0
M  V30 5 C -1.3951 -0.5957 1.1972 0 CFG=1
M  V30 6 C 2.3642 -1.3209 -1.2449 0
M  V30 7 C -2.0326 0.7579 0.9451 0
M  V30 8 C -2.46 -1.6557 1.4975 0
M  V30 9 C 2.1421 -0.2085 -2.0744 0
M  V30 10 C 3.5859 -1.4364 -0.5607 0
M  V30 11 C -2.9179 0.9516 -0.1334 0
M  V30 12 C -1.7436 1.8442 1.7914 0
M  V30 13 C 3.1365 0.762 -2.2319 0
M  V30 14 C 4.5777 -0.4637 -0.7214 0
M  V30 15 C -3.4985 2.2036 -0.3566 0
M  V30 16 C -2.3273 3.0943 1.5636 0
M  V30 17 C 4.3538 0.6337 -1.5575 0
M  V30 18 C -3.2039 3.2739 0.491 0
M  V30 19 H -0.7419 -0.5662 -0.8856 0
M  V30 20 H 0.6294 -2.4041 -1.9394 0
M  V30 21 H 1.7341 -3.354 -0.9063 0
M  V30 22 H -0.7357 -0.5207 2.0909 0
M  V30 23 H -3.0941 -1.8443 0.6056 0
M  V30 24 H -1.9761 -2.6107 1.7913 0
M  V30 25 H -3.1059 -1.3216 2.3377 0
M  V30 26 H 1.2007 -0.0924 -2.5969 0
M  V30 27 H 3.7681 -2.277 0.0974 0
M  V30 28 H -3.156 0.1355 -0.8036 0
M  V30 29 H -1.0666 1.7264 2.6284 0
M  V30 30 H 2.962 1.6153 -2.8744 0
M  V30 31 H 5.5186 -0.5587 -0.1948 0
M  V30 32 H -4.177 2.3443 -1.1882 0
M  V30 33 H -2.0997 3.9247 2.2195 0
M  V30 34 H 5.1219 1.3864 -1.6795 0
M  V30 35 H -3.6542 4.2426 0.3164 0
M  V30 END ATOM
M  V30 BEGIN BOND
M  V30 1 2 1 2
M  V30 2 1 2 3
M  V30 3 1 2 4
M  V30 4 1 3 5
M  V30 5 1 4 6
M  V30 6 1 5 7
M  V30 7 1 5 8
M  V30 8 2 6 9
M  V30 9 1 6 10
M  V30 10 2 7 11
M  V30 11 1 7 12
M  V30 12 1 9 13
M  V30 13 2 10 14
M  V30 14 1 11 15
M  V30 15 2 12 16
M  V30 16 2 13 17
M  V30 17 2 15 18
M  V30 18 1 14 17
M  V30 19 1 16 18
M  V30 20 1 3 19
M  V30 21 1 4 20
M  V30 22 1 4 21
M  V30 23 1 5 22
M  V30 24 1 8 23
M  V30 25 1 8 24
M  V30 26 1 8 25
M  V30 27 1 9 26
M  V30 28 1 10 27
M  V30 29 1 11 28
M  V30 30 1 12 29
M  V30 31 1 13 30
M  V30 32 1 14 31
M  V30 33 1 15 32
M  V30 34 1 16 33
M  V30 35 1 17 34
M  V30 36 1 18 35
M  V30 END BOND
M  V30 BEGIN COLLECTION
M  V30 MDLV30/STEABS ATOMS=(1 5)
M  V30 END COLLECTION
M  V30 END CTAB
M  END
>  <Structure No>
8382

>  <LogS>
-3.19

>  <MMFF94 Energy>
29.39

$$$$
Compound 8383
Actelion Java MolfileCreator 2.0

  0  0  0  0  0  0              0 V3000
M  V30 BEGIN CTAB
M  V30 COUNTS 44 46 0 0 0
M  V30 BEGIN ATOM
M  V30 1 Cl 2.6107 -1.0599 3.7544 0
M  V30 2 C 2.6749 -0.4192 2.1203 0
M  V30 3 C 3.8924 0.0052 1.5492 0
M  V30 4 C 1.5117 -0.323 1.3602 0
M  V30 5 O 5.0628 -0.093 2.318 0
M  V30 6 C 3.9026 0.5164 0.2227 0
M  V30 7 O 0.2281 -0.6912 1.7503 0
M  V30 8 C 1.531 0.1691 0.0851 0
M  V30 9 C 6.357 0.2963 1.8705 0
M  V30 10 C 2.706 0.6026 -0.527 0
M  V30 11 C -0.7098 -0.4529 0.6902 0 CFG=2
M  V30 12 C 0.1658 0.1246 -0.3983 0
M  V30 13 O 2.659 1.0975 -1.8384 0
M  V30 14 C -1.7294 0.5673 1.1269 0
M  V30 15 C -1.407 -1.7826 0.2952 0 CFG=1
M  V30 16 O -0.2229 0.5294 -1.5263 0
M  V30 17 C 3.794 1.5645 -2.5594 0
M  V30 18 O -1.3856 1.5185 1.8791 0
M  V30 19 C -3.1213 0.4941 0.648 0
M  V30 20 C -2.5701 -1.5299 -0.685 0
M  V30 21 C -0.4312 -2.8245 -0.2751 0
M  V30 22 C -3.5364 -0.4879 -0.1765 0
M  V30 23 O -4.8641 -0.5794 -0.6331 0
M  V30 24 C -5.9063 0.3686 -0.3956 0
M  V30 25 C -5.7251 1.6033 -1.2722 0
M  V30 26 H 4.8319 0.8429 -0.2191 0
M  V30 27 H 6.3666 1.3796 1.6259 0
M  V30 28 H 7.0916 0.1089 2.6802 0
M  V30 29 H 6.649 -0.3002 0.9807 0
M  V30 30 H -1.8425 -2.2203 1.2224 0
M  V30 31 H 4.2537 2.4262 -2.031 0
M  V30 32 H 3.4716 1.8965 -3.5674 0
M  V30 33 H 4.5359 0.7463 -2.6746 0
M  V30 34 H -3.8071 1.2495 1.0029 0
M  V30 35 H -2.1815 -1.2011 -1.672 0
M  V30 36 H -3.1233 -2.4812 -0.8434 0
M  V30 37 H -0.9625 -3.7838 -0.4522 0
M  V30 38 H 0.0024 -2.4803 -1.2379 0
M  V30 39 H 0.3929 -3.0167 0.4436 0
M  V30 40 H -6.8744 -0.1065 -0.66 0
M  V30 41 H -5.9584 0.6438 0.6789 0
M  V30 42 H -6.5689 2.3057 -1.1058 0
M  V30 43 H -5.7103 1.3071 -2.3424 0
M  V30 44 H -4.7763 2.1239 -1.0296 0
M  V30 END ATOM
M  V30 BEGIN BOND
M  V30 1 1 1 2
M  V30 2 2 2 3
M  V30 3 1 2 4
M  V30 4 1 3 5
M  V30 5 1 3 6
M  V30 6 1 4 7
M  V30 7 2 4 8
M  V30 8 1 5 9
M  V30 9 2 6 10
M  V30 10 1 7 11
M  V30 11 1 8 12
M  V30 12 1 10 13
M  V30 13 1 11 14
M  V30 14 1 11 15
M  V30 15 2 12 16
M  V30 16 1 13 17
M  V30 17 2 14 18
M  V30 18 1 14 19
M  V30 19 1 15 20
M  V30 20 1 15 21
M  V30 21 2 19 22
M  V30 22 1 22 23
M  V30 23 1 23 24
M  V30 24 1 24 25
M  V30 25 1 8 10
M  V30 26 1 11 12
M  V30 27 1 20 22
M  V30 28 1 6 26
M  V30 29 1 9 27
M  V30 30 1 9 28
M  V30 31 1 9 29
M  V30 32 1 15 30
M  V30 33 1 17 31
M  V30 34 1 17 32
M  V30 35 1 17 33
M  V30 36 1 19 34
M  V30 37 1 20 35
M  V30 38 1 20 36
M  V30 39 1 21 37
M  V30 40 1 21 38
M  V30 41 1 21 39
M  V30 42 1 24 40
M  V30 43 1 24 41
M  V30 44 1 25 42
M  V30 45 1 25 43
M  V30 46 1 25 44
M  V30 END BOND
M  V30 BEGIN COLLECTION
M  V30 MDLV30/STEABS ATOMS=(2 11 15)
M  V30 END COLLECTION
M  V30 END CTAB
M  END
>  <Structure No>
8383

>  <LogS>
-4.6

>  <MMFF94 Energy>
94.104

$$$$
Compound 8384
Actelion Java MolfileCreator 2.0

  0  0  0  0  0  0              0 V3000
M  V30 BEGIN CTAB
M  V30 COUNTS 60 62 0 0 0
M  V30 BEGIN ATOM
M  V30 1 Cl 5.4962 -6.135 0.0794 0
M  V30 2 C 4.5113 -4.6913 0.1772 0
M  V30 3 C 5.1217 -3.4461 0.3474 0
M  V30 4 C 3.1166 -4.7816 0.0791 0
M  V30 5 C 4.3423 -2.2776 0.4159 0
M  V30 6 C 2.3328 -3.6296 0.1491 0
M  V30 7 N 4.9444 -1.0678 0.5706 0 CHG=1
M  V30 8 C 2.9315 -2.3654 0.3186 0
M  V30 9 C 4.2266 0.0926 0.619 0
M  V30 10 C 2.1632 -1.1866 0.3948 0
M  V30 11 C 2.8119 0.0614 0.519 0
M  V30 12 C 4.8891 1.3198 0.7418 0
M  V30 13 N 0.7323 -1.2665 0.2857 0
M  V30 14 C 2.0977 1.2781 0.5052 0
M  V30 15 C 4.1681 2.5137 0.7556 0
M  V30 16 C -0.1612 -1.0876 1.4426 0 CFG=1
M  V30 17 C 2.7622 2.5001 0.6387 0
M  V30 18 C -1.6339 -1.0868 0.9805 0
M  V30 19 C 0.0703 -2.2072 2.469 0
M  V30 20 O 1.9958 3.6791 0.6435 0
M  V30 21 C -1.9498 0.1154 0.0802 0
M  V30 22 C 2.5437 4.9879 0.7813 0
M  V30 23 C -3.236 -0.1277 -0.7345 0
M  V30 24 N -3.5288 0.9945 -1.6696 0 CHG=1
M  V30 25 C -4.5197 0.6186 -2.7159 0
M  V30 26 C -3.825 2.309 -1.0217 0
M  V30 27 C -5.9651 0.4704 -2.2209 0
M  V30 28 C -4.682 2.2451 0.2618 0
M  V30 29 H 6.2031 -3.3868 0.4142 0
M  V30 30 H 2.6401 -5.7449 -0.0636 0
M  V30 31 H 1.2577 -3.7382 0.0586 0
M  V30 32 H 5.9925 -1.0258 0.6401 0
M  V30 33 H 5.9674 1.3544 0.8149 0
M  V30 34 H 0.3471 -1.6219 -0.6198 0
M  V30 35 H 1.0225 1.296 0.3785 0
M  V30 36 H 4.7137 3.4459 0.8449 0
M  V30 37 H 0.0533 -0.1177 1.9358 0
M  V30 38 H -2.3089 -1.0425 1.8647 0
M  V30 39 H -1.8435 -2.043 0.4458 0
M  V30 40 H -0.5964 -2.0559 3.3448 0
M  V30 41 H 1.1285 -2.2026 2.8223 0
M  V30 42 H -0.1479 -3.1996 2.0181 0
M  V30 43 H -2.0429 1.0233 0.7179 0
M  V30 44 H -1.1106 0.3054 -0.6322 0
M  V30 45 H 3.2425 5.1899 -0.0566 0
M  V30 46 H 3.0795 5.0726 1.7519 0
M  V30 47 H 1.724 5.7398 0.7644 0
M  V30 48 H -3.0532 -1.0562 -1.3298 0
M  V30 49 H -4.0957 -0.343 -0.0636 0
M  V30 50 H -2.6474 1.1487 -2.212 0
M  V30 51 H -4.2134 -0.3441 -3.1801 0
M  V30 52 H -4.5104 1.3799 -3.5294 0
M  V30 53 H -2.8746 2.816 -0.7638 0
M  V30 54 H -4.3269 2.9873 -1.7413 0
M  V30 55 H -6.5916 0.0559 -3.0452 0
M  V30 56 H -6.0115 -0.2218 -1.34 0
M  V30 57 H -6.356 1.4659 -1.9114 0
M  V30 58 H -4.0495 2.0024 1.1432 0
M  V30 59 H -5.5063 1.495 0.2019 0
M  V30 60 H -5.1368 3.2405 0.4393 0
M  V30 END ATOM
M  V30 BEGIN BOND
M  V30 1 1 1 2
M  V30 2 2 2 3
M  V30 3 1 2 4
M  V30 4 1 3 5
M  V30 5 2 4 6
M  V30 6 2 5 7
M  V30 7 1 5 8
M  V30 8 1 7 9
M  V30 9 2 8 10
M  V30 10 1 9 11
M  V30 11 2 9 12
M  V30 12 1 10 13
M  V30 13 2 11 14
M  V30 14 1 12 15
M  V30 15 1 13 16
M  V30 16 1 14 17
M  V30 17 1 16 18
M  V30 18 1 16 19
M  V30 19 1 17 20
M  V30 20 1 18 21
M  V30 21 1 20 22
M  V30 22 1 21 23
M  V30 23 1 23 24
M  V30 24 1 24 25
M  V30 25 1 24 26
M  V30 26 1 25 27
M  V30 27 1 26 28
M  V30 28 1 6 8
M  V30 29 1 10 11
M  V30 30 2 15 17
M  V30 31 1 3 29
M  V30 32 1 4 30
M  V30 33 1 6 31
M  V30 34 1 7 32
M  V30 35 1 12 33
M  V30 36 1 13 34
M  V30 37 1 14 35
M  V30 38 1 15 36
M  V30 39 1 16 37
M  V30 40 1 18 38
M  V30 41 1 18 39
M  V30 42 1 19 40
M  V30 43 1 19 41
M  V30 44 1 19 42
M  V30 45 1 21 43
M  V30 46 1 21 44
M  V30 47 1 22 45
M  V30 48 1 22 46
M  V30 49 1 22 47
M  V30 50 1 23 48
M  V30 51 1 23 49
M  V30 52 1 24 50
M  V30 53 1 25 51
M  V30 54 1 25 52
M  V30 55 1 26 53
M  V30 56 1 26 54
M  V30 57 1 27 55
M  V30 58 1 27 56
M  V30 59 1 27 57
M  V30 60 1 28 58
M  V30 61 1 28 59
M  V30 62 1 28 60
M  V30 END BOND
M  V30 BEGIN COLLECTION
M  V30 MDLV30/STEABS ATOMS=(1 16)
M  V30 END COLLECTION
M  V30 END CTAB
M  END
>  <Structure No>
8384

>  <LogS>
-2.64

>  <MMFF94 Energy>
120.06

$$$$
Compound 8385
Actelion Java MolfileCreator 2.0

  0  0  0  0  0  0              0 V3000
M  V30 BEGIN CTAB
M  V30 COUNTS 47 49 0 0 0
M  V30 BEGIN ATOM
M  V30 1 Cl -1.7087 2.2787 2.7676 0
M  V30 2 C -2.5288 1.1549 1.6953 0
M  V30 3 C -3.9333 1.0271 1.7061 0
M  V30 4 C -1.7939 0.3673 0.8126 0
M  V30 5 O -4.6714 1.8231 2.5962 0
M  V30 6 C -4.5584 0.1038 0.8244 0
M  V30 7 O -0.4119 0.3494 0.6647 0
M  V30 8 C -2.4029 -0.5141 -0.0336 0
M  V30 9 C -6.0901 1.7984 2.7142 0
M  V30 10 C -3.7866 -0.6843 -0.0611 0
M  V30 11 C -0.0182 -0.5773 -0.3579 0 CFG=2
M  V30 12 C -1.3485 -1.1614 -0.7865 0
M  V30 13 O -4.3507 -1.6118 -0.9491 0
M  V30 14 C 0.8946 -1.6162 0.2492 0
M  V30 15 C 0.7008 0.1984 -1.4962 0 CFG=1
M  V30 16 O -1.5145 -2.1087 -1.6007 0
M  V30 17 C -5.7466 -1.8663 -1.0615 0
M  V30 18 O 0.4167 -2.6175 0.8479 0
M  V30 19 C 2.355 -1.425 0.2185 0
M  V30 20 C 2.0568 0.7329 -0.9822 0
M  V30 21 C 0.9022 -0.6391 -2.775 0
M  V30 22 C 2.9169 -0.3566 -0.3624 0
M  V30 23 O 4.3143 -0.2519 -0.3221 0
M  V30 24 C 5.0512 0.8516 -0.8423 0
M  V30 25 C 6.5359 0.6858 -0.5209 0
M  V30 26 C 6.799 0.7316 0.9825 0
M  V30 27 H -5.6332 5.0E-4 0.8295 0
M  V30 28 H -6.5588 2.086 1.7495 0
M  V30 29 H -6.4304 0.7863 3.0192 0
M  V30 30 H -6.4018 2.5264 3.491 0
M  V30 31 H 0.0753 1.0765 -1.7746 0
M  V30 32 H -6.1462 -2.2378 -0.0942 0
M  V30 33 H -6.28 -0.9408 -1.3653 0
M  V30 34 H -5.9122 -2.6425 -1.8363 0
M  V30 35 H 2.9884 -2.1754 0.6761 0
M  V30 36 H 2.5909 1.2267 -1.8201 0
M  V30 37 H 1.8756 1.5117 -0.2104 0
M  V30 38 H 1.5256 -0.0829 -3.5069 0
M  V30 39 H -0.072 -0.8376 -3.2666 0
M  V30 40 H 1.3994 -1.6056 -2.5491 0
M  V30 41 H 4.929 0.8894 -1.9461 0
M  V30 42 H 4.6764 1.8026 -0.4037 0
M  V30 43 H 7.1061 1.5041 -1.0114 0
M  V30 44 H 6.8981 -0.282 -0.9298 0
M  V30 45 H 6.4537 1.699 1.4057 0
M  V30 46 H 7.8885 0.6308 1.1714 0
M  V30 47 H 6.2731 -0.1016 1.4949 0
M  V30 END ATOM
M  V30 BEGIN BOND
M  V30 1 1 1 2
M  V30 2 2 2 3
M  V30 3 1 2 4
M  V30 4 1 3 5
M  V30 5 1 3 6
M  V30 6 1 4 7
M  V30 7 2 4 8
M  V30 8 1 5 9
M  V30 9 2 6 10
M  V30 10 1 7 11
M  V30 11 1 8 12
M  V30 12 1 10 13
M  V30 13 1 11 14
M  V30 14 1 11 15
M  V30 15 2 12 16
M  V30 16 1 13 17
M  V30 17 2 14 18
M  V30 18 1 14 19
M  V30 19 1 15 20
M  V30 20 1 15 21
M  V30 21 2 19 22
M  V30 22 1 22 23
M  V30 23 1 23 24
M  V30 24 1 24 25
M  V30 25 1 25 26
M  V30 26 1 8 10
M  V30 27 1 11 12
M  V30 28 1 20 22
M  V30 29 1 6 27
M  V30 30 1 9 28
M  V30 31 1 9 29
M  V30 32 1 9 30
M  V30 33 1 15 31
M  V30 34 1 17 32
M  V30 35 1 17 33
M  V30 36 1 17 34
M  V30 37 1 19 35
M  V30 38 1 20 36
M  V30 39 1 20 37
M  V30 40 1 21 38
M  V30 41 1 21 39
M  V30 42 1 21 40
M  V30 43 1 24 41
M  V30 44 1 24 42
M  V30 45 1 25 43
M  V30 46 1 25 44
M  V30 47 1 26 45
M  V30 48 1 26 46
M  V30 49 1 26 47
M  V30 END BOND
M  V30 BEGIN COLLECTION
M  V30 MDLV30/STEABS ATOMS=(2 11 15)
M  V30 END COLLECTION
M  V30 END CTAB
M  END
>  <Structure No>
8385

>  <LogS>
-5.22

>  <MMFF94 Energy>
96.202

$$$$
Compound 8386
Actelion Java MolfileCreator 2.0

  0  0  0  0  0  0              0 V3000
M  V30 BEGIN CTAB
M  V30 COUNTS 44 46 0 0 0
M  V30 BEGIN ATOM
M  V30 1 F -2.4116 -2.5725 1.1248 0
M  V30 2 C -1.2161 -2.0215 0.7965 0
M  V30 3 C -1.1424 -0.6984 0.3499 0
M  V30 4 C -0.0625 -2.7972 0.8832 0
M  V30 5 N -2.3288 0.1107 0.2766 0
M  V30 6 C 0.0969 -0.1629 -0.0268 0
M  V30 7 C 1.1908 -2.2683 0.5181 0
M  V30 8 C -3.0163 0.4783 1.5206 0
M  V30 9 C -2.6536 0.8127 -0.9703 0
M  V30 10 C 1.283 -0.9342 0.0404 0
M  V30 11 C 2.3559 -3.0478 0.626 0
M  V30 12 C -4.2315 1.3648 1.2298 0
M  V30 13 C -4.1804 0.9182 -1.1802 0
M  V30 14 N 2.5119 -0.4251 -0.3344 0
M  V30 15 O 2.2807 -4.2363 1.0458 0
M  V30 16 C 3.6019 -2.5009 0.2723 0
M  V30 17 N -4.965 0.8425 0.0704 0 CHG=1
M  V30 18 C 3.6443 -1.1822 -0.1998 0
M  V30 19 C 2.6809 0.9463 -0.8578 0
M  V30 20 C 4.8685 -3.275 0.3829 0
M  V30 21 C 2.7781 1.9544 0.2938 0
M  V30 22 O 4.8714 -4.4595 0.8115 0
M  V30 23 O 6.0786 -2.6987 0.013 0 CHG=-1
M  V30 24 C 2.8968 3.3822 -0.2296 0
M  V30 25 H -0.1551 -3.8167 1.2372 0
M  V30 26 H 0.1091 0.8681 -0.3436 0
M  V30 27 H -2.3146 1.0156 2.1946 0
M  V30 28 H -3.3656 -0.4395 2.0384 0
M  V30 29 H -2.2178 1.8347 -0.9263 0
M  V30 30 H -2.2007 0.2894 -1.8412 0
M  V30 31 H -3.9024 2.4107 1.0351 0
M  V30 32 H -4.8963 1.3803 2.1218 0
M  V30 33 H -4.5065 0.1009 -1.8618 0
M  V30 34 H -4.3995 1.8758 -1.704 0
M  V30 35 H -5.8464 1.3948 -0.0466 0
M  V30 36 H -5.2356 -0.1528 0.2534 0
M  V30 37 H 4.6044 -0.7562 -0.4682 0
M  V30 38 H 3.6052 1.0194 -1.4747 0
M  V30 39 H 1.8614 1.2084 -1.5593 0
M  V30 40 H 3.671 1.7195 0.9128 0
M  V30 41 H 1.8803 1.8834 0.9437 0
M  V30 42 H 2.9732 4.0865 0.6252 0
M  V30 43 H 3.8053 3.4881 -0.8598 0
M  V30 44 H 2.0002 3.6478 -0.8296 0
M  V30 END ATOM
M  V30 BEGIN BOND
M  V30 1 1 1 2
M  V30 2 2 2 3
M  V30 3 1 2 4
M  V30 4 1 3 5
M  V30 5 1 3 6
M  V30 6 2 4 7
M  V30 7 1 5 8
M  V30 8 1 5 9
M  V30 9 2 6 10
M  V30 10 1 7 11
M  V30 11 1 8 12
M  V30 12 1 9 13
M  V30 13 1 10 14
M  V30 14 2 11 15
M  V30 15 1 11 16
M  V30 16 1 12 17
M  V30 17 1 14 18
M  V30 18 1 14 19
M  V30 19 1 16 20
M  V30 20 1 19 21
M  V30 21 2 20 22
M  V30 22 1 20 23
M  V30 23 1 21 24
M  V30 24 1 7 10
M  V30 25 1 13 17
M  V30 26 2 16 18
M  V30 27 1 4 25
M  V30 28 1 6 26
M  V30 29 1 8 27
M  V30 30 1 8 28
M  V30 31 1 9 29
M  V30 32 1 9 30
M  V30 33 1 12 31
M  V30 34 1 12 32
M  V30 35 1 13 33
M  V30 36 1 13 34
M  V30 37 1 17 35
M  V30 38 1 17 36
M  V30 39 1 18 37
M  V30 40 1 19 38
M  V30 41 1 19 39
M  V30 42 1 21 40
M  V30 43 1 21 41
M  V30 44 1 24 42
M  V30 45 1 24 43
M  V30 46 1 24 44
M  V30 END BOND
M  V30 END CTAB
M  END
>  <Structure No>
8386

>  <LogS>
-3.57

>  <MMFF94 Energy>
119.24

$$$$
Compound 8387
Actelion Java MolfileCreator 2.0

  0  0  0  0  0  0              0 V3000
M  V30 BEGIN CTAB
M  V30 COUNTS 36 36 0 0 0
M  V30 BEGIN ATOM
M  V30 1 O 2.3887 -3.3455 -0.6365 0
M  V30 2 C 2.2608 -2.1257 -0.9218 0
M  V30 3 O 2.1895 -1.7407 -2.2556 0 CHG=-1
M  V30 4 C 2.1328 -1.104 0.1795 0 CFG=2
M  V30 5 N 0.7178 -0.7885 0.3981 0
M  V30 6 C 2.9755 0.1755 -0.0915 0
M  V30 7 C -0.0557 -0.2238 -0.48 0
M  V30 8 C 2.7709 1.2198 1.0181 0
M  V30 9 C 4.4722 -0.1574 -0.2072 0
M  V30 10 C -1.4629 0.0882 -0.1515 0
M  V30 11 C -1.9745 1.3749 -0.4419 0
M  V30 12 C -2.315 -0.8805 0.4426 0
M  V30 13 O -1.1822 2.3756 -1.0159 0
M  V30 14 C -3.3081 1.6724 -0.1229 0
M  V30 15 C -3.6248 -0.5004 0.7825 0
M  V30 16 C -1.8339 -2.2874 0.7471 0
M  V30 17 N -4.0827 0.741 0.4881 0
M  V30 18 C -3.8822 3.0267 -0.4078 0
M  V30 19 O -2.8971 -3.2041 0.7816 0
M  V30 20 H 2.5135 -1.566 1.1176 0
M  V30 21 H 2.6542 0.6349 -1.0522 0
M  V30 22 H 0.3401 0.0753 -1.442 0
M  V30 23 H 3.0466 0.7977 2.0084 0
M  V30 24 H 3.398 2.1162 0.8242 0
M  V30 25 H 1.713 1.5547 1.0517 0
M  V30 26 H 4.8407 -0.6347 0.7261 0
M  V30 27 H 5.0593 0.7676 -0.3912 0
M  V30 28 H 4.6565 -0.8452 -1.0588 0
M  V30 29 H -0.1958 2.2658 -1.2108 0
M  V30 30 H -4.296 -1.1921 1.273 0
M  V30 31 H -1.1392 -2.6282 -0.0486 0
M  V30 32 H -1.2733 -2.2857 1.7104 0
M  V30 33 H -4.9634 3.0545 -0.1541 0
M  V30 34 H -3.7672 3.2674 -1.4857 0
M  V30 35 H -3.3546 3.7925 0.1986 0
M  V30 36 H -3.1646 -3.3034 1.7327 0
M  V30 END ATOM
M  V30 BEGIN BOND
M  V30 1 2 1 2
M  V30 2 1 2 3
M  V30 3 1 2 4
M  V30 4 1 4 5
M  V30 5 1 4 6
M  V30 6 2 5 7
M  V30 7 1 6 8
M  V30 8 1 6 9
M  V30 9 1 7 10
M  V30 10 2 10 11
M  V30 11 1 10 12
M  V30 12 1 11 13
M  V30 13 1 11 14
M  V30 14 2 12 15
M  V30 15 1 12 16
M  V30 16 2 14 17
M  V30 17 1 14 18
M  V30 18 1 16 19
M  V30 19 1 15 17
M  V30 20 1 4 20
M  V30 21 1 6 21
M  V30 22 1 7 22
M  V30 23 1 8 23
M  V30 24 1 8 24
M  V30 25 1 8 25
M  V30 26 1 9 26
M  V30 27 1 9 27
M  V30 28 1 9 28
M  V30 29 1 13 29
M  V30 30 1 15 30
M  V30 31 1 16 31
M  V30 32 1 16 32
M  V30 33 1 18 33
M  V30 34 1 18 34
M  V30 35 1 18 35
M  V30 36 1 19 36
M  V30 END BOND
M  V30 BEGIN COLLECTION
M  V30 MDLV30/STEABS ATOMS=(1 4)
M  V30 END COLLECTION
M  V30 END CTAB
M  END
>  <Structure No>
8387

>  <LogS>
-1.6

>  <MMFF94 Energy>
90.523

$$$$
Compound 8388
Actelion Java MolfileCreator 2.0

  0  0  0  0  0  0              0 V3000
M  V30 BEGIN CTAB
M  V30 COUNTS 40 42 0 0 0
M  V30 BEGIN ATOM
M  V30 1 S -2.635 -0.9875 0.5759 0
M  V30 2 C -3.8566 0.0503 -0.364 0
M  V30 3 C -1.3897 0.3456 0.653 0 CFG=2
M  V30 4 C -3.3875 1.5401 -0.2998 0 CFG=2
M  V30 5 C -3.8373 -0.4296 -1.8266 0
M  V30 6 C -5.2661 -0.1829 0.2134 0
M  V30 7 N -1.9722 1.4423 -0.0585 0 CFG=2
M  V30 8 C -0.2796 0.219 -0.2562 0 CFG=1
M  V30 9 C -4.0157 2.3418 0.8096 0
M  V30 10 C -0.7982 1.4324 -0.9621 0
M  V30 11 N 1.0105 0.4679 0.3882 0
M  V30 12 O -4.9093 3.189 0.5458 0
M  V30 13 O -3.646 2.1271 2.1326 0 CHG=-1
M  V30 14 O -0.4333 2.1113 -1.957 0
M  V30 15 C 1.631 -0.5139 1.2288 0
M  V30 16 O 1.0571 -1.6146 1.4519 0
M  V30 17 C 2.9875 -0.258 1.8097 0
M  V30 18 C 4.0517 -0.6027 0.805 0
M  V30 19 C 4.5212 -1.9226 0.6964 0
M  V30 20 C 4.5464 0.3782 -0.0712 0
M  V30 21 C 5.4866 -2.2502 -0.2607 0
M  V30 22 C 5.5116 0.0461 -1.0271 0
M  V30 23 C 5.9826 -1.2663 -1.1206 0
M  V30 24 H -1.1242 0.6367 1.6944 0
M  V30 25 H -3.5621 2.0679 -1.2644 0
M  V30 26 H -4.0963 -1.5086 -1.8881 0
M  V30 27 H -4.5706 0.1425 -2.4352 0
M  V30 28 H -2.8283 -0.2923 -2.2709 0
M  V30 29 H -5.2863 0.0251 1.304 0
M  V30 30 H -6.0067 0.4726 -0.2933 0
M  V30 31 H -5.575 -1.2408 0.0713 0
M  V30 32 H -0.2823 -0.6877 -0.9001 0
M  V30 33 H 1.5312 1.3502 0.1781 0
M  V30 34 H 3.1231 -0.8639 2.7322 0
M  V30 35 H 3.0683 0.8092 2.1101 0
M  V30 36 H 4.1382 -2.696 1.3509 0
M  V30 37 H 4.1846 1.3975 -0.0149 0
M  V30 38 H 5.8477 -3.2676 -0.338 0
M  V30 39 H 5.8922 0.806 -1.6974 0
M  V30 40 H 6.7288 -1.5218 -1.8618 0
M  V30 END ATOM
M  V30 BEGIN BOND
M  V30 1 1 1 2
M  V30 2 1 1 3
M  V30 3 1 2 4
M  V30 4 1 2 5
M  V30 5 1 2 6
M  V30 6 1 3 7
M  V30 7 1 3 8
M  V30 8 1 4 9
M  V30 9 1 7 10
M  V30 10 1 8 11
M  V30 11 2 9 12
M  V30 12 1 9 13
M  V30 13 2 10 14
M  V30 14 1 11 15
M  V30 15 2 15 16
M  V30 16 1 15 17
M  V30 17 1 17 18
M  V30 18 2 18 19
M  V30 19 1 18 20
M  V30 20 1 19 21
M  V30 21 2 20 22
M  V30 22 2 21 23
M  V30 23 1 4 7
M  V30 24 1 8 10
M  V30 25 1 22 23
M  V30 26 1 3 24
M  V30 27 1 4 25
M  V30 28 1 5 26
M  V30 29 1 5 27
M  V30 30 1 5 28
M  V30 31 1 6 29
M  V30 32 1 6 30
M  V30 33 1 6 31
M  V30 34 1 8 32
M  V30 35 1 11 33
M  V30 36 1 17 34
M  V30 37 1 17 35
M  V30 38 1 19 36
M  V30 39 1 20 37
M  V30 40 1 21 38
M  V30 41 1 22 39
M  V30 42 1 23 40
M  V30 END BOND
M  V30 BEGIN COLLECTION
M  V30 MDLV30/STEABS ATOMS=(4 3 4 7 8)
M  V30 END COLLECTION
M  V30 END CTAB
M  END
>  <Structure No>
8388

>  <LogS>
-1.63

>  <MMFF94 Energy>
95.577

$$$$
Compound 8389
Actelion Java MolfileCreator 2.0

  0  0  0  0  0  0              0 V3000
M  V30 BEGIN CTAB
M  V30 COUNTS 23 23 0 0 0
M  V30 BEGIN ATOM
M  V30 1 S 1.4045 0.6608 1.4872 0
M  V30 2 O 0.9761 1.1056 2.857 0
M  V30 3 O 2.4212 1.6316 0.9541 0
M  V30 4 N 2.127 -0.9116 1.598 0
M  V30 5 C -0.0109 0.6041 0.4415 0
M  V30 6 C 2.5981 -1.6493 0.4603 0
M  V30 7 C -0.3204 1.687 -0.3927 0
M  V30 8 C -0.8388 -0.5264 0.4447 0
M  V30 9 S 3.1583 -3.1729 0.673 0
M  V30 10 N 2.5935 -1.0857 -0.8552 0
M  V30 11 C -1.4438 1.6355 -1.2239 0
M  V30 12 C -1.9619 -0.5784 -0.3865 0
M  V30 13 C -2.2693 0.5021 -1.2257 0
M  V30 14 N -3.4177 0.4492 -2.0762 0
M  V30 15 H 2.1806 -1.3501 2.5447 0
M  V30 16 H 0.3056 2.57 -0.4012 0
M  V30 17 H -0.6147 -1.3672 1.0888 0
M  V30 18 H 2.9259 -1.6484 -1.6696 0
M  V30 19 H 2.2787 -0.1093 -1.038 0
M  V30 20 H -1.671 2.4778 -1.8653 0
M  V30 21 H -2.5918 -1.4589 -0.3764 0
M  V30 22 H -4.0388 -0.3904 -2.0841 0
M  V30 23 H -3.6552 1.2493 -2.7042 0
M  V30 END ATOM
M  V30 BEGIN BOND
M  V30 1 2 1 2
M  V30 2 2 1 3
M  V30 3 1 1 4
M  V30 4 1 1 5
M  V30 5 1 4 6
M  V30 6 2 5 7
M  V30 7 1 5 8
M  V30 8 2 6 9
M  V30 9 1 6 10
M  V30 10 1 7 11
M  V30 11 2 8 12
M  V30 12 2 11 13
M  V30 13 1 13 14
M  V30 14 1 12 13
M  V30 15 1 4 15
M  V30 16 1 7 16
M  V30 17 1 8 17
M  V30 18 1 10 18
M  V30 19 1 10 19
M  V30 20 1 11 20
M  V30 21 1 12 21
M  V30 22 1 14 22
M  V30 23 1 14 23
M  V30 END BOND
M  V30 END CTAB
M  END
>  <Structure No>
8389

>  <LogS>
-2.24

>  <MMFF94 Energy>
-136.79

$$$$
Compound 8390
Actelion Java MolfileCreator 2.0

  0  0  0  0  0  0              0 V3000
M  V30 BEGIN CTAB
M  V30 COUNTS 43 44 0 0 0
M  V30 BEGIN ATOM
M  V30 1 O 0.3148 0.8659 -0.4722 0
M  V30 2 C -0.7595 0.7466 0.4633 0 CFG=1
M  V30 3 C 1.5174 0.245 -0.045 0
M  V30 4 C -1.915 1.5942 -0.0522 0
M  V30 5 C -1.2285 -0.7181 0.5359 0
M  V30 6 C -0.3558 1.338 1.8412 0
M  V30 7 C 2.3515 -0.1098 -1.2876 0
M  V30 8 N -3.2031 1.2344 0.2241 0
M  V30 9 C -1.6788 2.8065 -0.7283 0
M  V30 10 C -1.6785 -1.3135 1.7357 0
M  V30 11 C -1.2891 -1.4783 -0.6508 0
M  V30 12 N 3.6269 -0.8117 -0.9998 0 CHG=1
M  V30 13 C -4.2669 1.9841 -0.1687 0
M  V30 14 C -2.7593 3.5889 -1.1404 0
M  V30 15 C -2.127 -2.6377 1.748 0
M  V30 16 C -1.7377 -2.8015 -0.6308 0
M  V30 17 C 4.5409 -0.0099 -0.1668 0
M  V30 18 C 3.4197 -2.1494 -0.4151 0
M  V30 19 C -4.0627 3.1761 -0.8642 0
M  V30 20 C -2.152 -3.3822 0.568 0
M  V30 21 H 2.0824 0.965 0.583 0
M  V30 22 H 1.329 -0.6774 0.5426 0
M  V30 23 H 0.1378 2.324 1.7018 0
M  V30 24 H -1.2457 1.4961 2.4886 0
M  V30 25 H 0.3487 0.6678 2.378 0
M  V30 26 H 1.7279 -0.7373 -1.9639 0
M  V30 27 H 2.5645 0.8289 -1.8473 0
M  V30 28 H -0.6712 3.148 -0.9288 0
M  V30 29 H -1.6915 -0.767 2.6675 0
M  V30 30 H -0.9888 -1.0448 -1.5965 0
M  V30 31 H 4.1023 -0.9545 -1.9229 0
M  V30 32 H -5.2713 1.6565 0.0641 0
M  V30 33 H -2.5858 4.5186 -1.6669 0
M  V30 34 H -2.4615 -3.0859 2.6749 0
M  V30 35 H -1.7693 -3.3752 -1.5481 0
M  V30 36 H 4.1837 0.0552 0.8838 0
M  V30 37 H 4.6464 1.0179 -0.578 0
M  V30 38 H 5.5524 -0.4726 -0.1559 0
M  V30 39 H 2.665 -2.722 -0.9977 0
M  V30 40 H 4.37 -2.727 -0.4399 0
M  V30 41 H 3.0886 -2.0879 0.6437 0
M  V30 42 H -4.9057 3.7783 -1.1778 0
M  V30 43 H -2.5013 -4.4065 0.5813 0
M  V30 END ATOM
M  V30 BEGIN BOND
M  V30 1 1 1 2
M  V30 2 1 1 3
M  V30 3 1 2 4
M  V30 4 1 2 5
M  V30 5 1 2 6
M  V30 6 1 3 7
M  V30 7 2 4 8
M  V30 8 1 4 9
M  V30 9 2 5 10
M  V30 10 1 5 11
M  V30 11 1 7 12
M  V30 12 1 8 13
M  V30 13 2 9 14
M  V30 14 1 10 15
M  V30 15 2 11 16
M  V30 16 1 12 17
M  V30 17 1 12 18
M  V30 18 2 13 19
M  V30 19 2 15 20
M  V30 20 1 14 19
M  V30 21 1 16 20
M  V30 22 1 3 21
M  V30 23 1 3 22
M  V30 24 1 6 23
M  V30 25 1 6 24
M  V30 26 1 6 25
M  V30 27 1 7 26
M  V30 28 1 7 27
M  V30 29 1 9 28
M  V30 30 1 10 29
M  V30 31 1 11 30
M  V30 32 1 12 31
M  V30 33 1 13 32
M  V30 34 1 14 33
M  V30 35 1 15 34
M  V30 36 1 16 35
M  V30 37 1 17 36
M  V30 38 1 17 37
M  V30 39 1 17 38
M  V30 40 1 18 39
M  V30 41 1 18 40
M  V30 42 1 18 41
M  V30 43 1 19 42
M  V30 44 1 20 43
M  V30 END BOND
M  V30 BEGIN COLLECTION
M  V30 MDLV30/STEABS ATOMS=(1 2)
M  V30 END COLLECTION
M  V30 END CTAB
M  END
>  <Structure No>
8390

>  <LogS>
-2.82

>  <MMFF94 Energy>
101.56

$$$$
Compound 8391
Actelion Java MolfileCreator 2.0

  0  0  0  0  0  0              0 V3000
M  V30 BEGIN CTAB
M  V30 COUNTS 29 30 0 0 0
M  V30 BEGIN ATOM
M  V30 1 S 0.6568 2.3825 0.821 0
M  V30 2 O 1.0808 3.7813 0.4744 0
M  V30 3 O 0.7514 2.1934 2.3094 0
M  V30 4 N -0.9868 2.1449 0.3289 0 CHG=-1
M  V30 5 C 1.7041 1.2408 -0.0152 0
M  V30 6 C -1.6559 0.89 0.4587 0
M  V30 7 C 1.4684 0.9338 -1.3619 0
M  V30 8 C 2.7754 0.6352 0.6558 0
M  V30 9 N -2.9404 0.7688 0.0322 0
M  V30 10 N -1.0182 -0.1838 0.9988 0
M  V30 11 C 2.2909 0.0222 -2.0301 0
M  V30 12 C 3.5985 -0.276 -0.0124 0
M  V30 13 C -3.6075 -0.412 0.1347 0
M  V30 14 C -1.6454 -1.3818 1.1189 0
M  V30 15 C 3.3595 -0.5879 -1.3583 0
M  V30 16 C -2.9629 -1.5238 0.6862 0
M  V30 17 C -5.0198 -0.5166 -0.3455 0
M  V30 18 N 4.2008 -1.5208 -2.0414 0
M  V30 19 H 0.647 1.3979 -1.8931 0
M  V30 20 H 2.9742 0.8663 1.6945 0
M  V30 21 H 2.0958 -0.2083 -3.0699 0
M  V30 22 H 4.4215 -0.7385 0.5176 0
M  V30 23 H -1.1206 -2.2237 1.5501 0
M  V30 24 H -3.4698 -2.4764 0.7781 0
M  V30 25 H -5.6794 -0.8269 0.492 0
M  V30 26 H -5.3737 0.4621 -0.7339 0
M  V30 27 H -5.0838 -1.268 -1.1602 0
M  V30 28 H 4.0309 -1.7591 -3.0439 0
M  V30 29 H 4.9993 -1.9802 -1.5494 0
M  V30 END ATOM
M  V30 BEGIN BOND
M  V30 1 2 1 2
M  V30 2 2 1 3
M  V30 3 1 1 4
M  V30 4 1 1 5
M  V30 5 1 4 6
M  V30 6 2 5 7
M  V30 7 1 5 8
M  V30 8 2 6 9
M  V30 9 1 6 10
M  V30 10 1 7 11
M  V30 11 2 8 12
M  V30 12 1 9 13
M  V30 13 2 10 14
M  V30 14 2 11 15
M  V30 15 2 13 16
M  V30 16 1 13 17
M  V30 17 1 15 18
M  V30 18 1 12 15
M  V30 19 1 14 16
M  V30 20 1 7 19
M  V30 21 1 8 20
M  V30 22 1 11 21
M  V30 23 1 12 22
M  V30 24 1 14 23
M  V30 25 1 16 24
M  V30 26 1 17 25
M  V30 27 1 17 26
M  V30 28 1 17 27
M  V30 29 1 18 28
M  V30 30 1 18 29
M  V30 END BOND
M  V30 END CTAB
M  END
>  <Structure No>
8391

>  <LogS>
-2.63

>  <MMFF94 Energy>
14.069

$$$$
Compound 8392
Actelion Java MolfileCreator 2.0

  0  0  0  0  0  0              0 V3000
M  V30 BEGIN CTAB
M  V30 COUNTS 29 29 0 0 0
M  V30 BEGIN ATOM
M  V30 1 S 4.7737 0.2465 0.5752 0
M  V30 2 O 5.047 1.2048 1.7004 0
M  V30 3 O 5.5626 0.6804 -0.6281 0
M  V30 4 N 5.2619 -1.3444 1.0415 0
M  V30 5 C 3.0545 0.25 0.1941 0
M  V30 6 C 2.6211 -0.0235 -1.1092 0
M  V30 7 C 2.1102 0.4895 1.2004 0
M  V30 8 C 1.2557 -0.0362 -1.4084 0
M  V30 9 C 0.7443 0.4782 0.9023 0
M  V30 10 C 0.306 0.2348 -0.4118 0
M  V30 11 N -1.0927 0.1917 -0.7409 0
M  V30 12 C -2.0904 1.0255 -0.1298 0
M  V30 13 O -1.7572 2.0045 0.5914 0
M  V30 14 C -3.5446 0.7367 -0.3507 0
M  V30 15 C -4.005 -0.4051 0.5567 0
M  V30 16 C -5.4572 -0.6921 0.3416 0
M  V30 17 O -5.8157 -1.5246 -0.5321 0
M  V30 18 O -6.4177 -0.004 1.0721 0 CHG=-1
M  V30 19 H 5.0153 -1.9825 0.2522 0
M  V30 20 H 4.663 -1.622 1.8512 0
M  V30 21 H 3.3382 -0.2319 -1.8928 0
M  V30 22 H 2.4295 0.6733 2.2185 0
M  V30 23 H 0.9359 -0.2495 -2.4206 0
M  V30 24 H 0.0345 0.6311 1.7041 0
M  V30 25 H -1.3931 -0.4298 -1.5256 0
M  V30 26 H -3.706 0.4625 -1.416 0
M  V30 27 H -4.1426 1.6505 -0.1373 0
M  V30 28 H -3.844 -0.128 1.6215 0
M  V30 29 H -3.4123 -1.3216 0.3432 0
M  V30 END ATOM
M  V30 BEGIN BOND
M  V30 1 2 1 2
M  V30 2 2 1 3
M  V30 3 1 1 4
M  V30 4 1 1 5
M  V30 5 2 5 6
M  V30 6 1 5 7
M  V30 7 1 6 8
M  V30 8 2 7 9
M  V30 9 2 8 10
M  V30 10 1 10 11
M  V30 11 1 11 12
M  V30 12 2 12 13
M  V30 13 1 12 14
M  V30 14 1 14 15
M  V30 15 1 15 16
M  V30 16 2 16 17
M  V30 17 1 16 18
M  V30 18 1 9 10
M  V30 19 1 4 19
M  V30 20 1 4 20
M  V30 21 1 6 21
M  V30 22 1 7 22
M  V30 23 1 8 23
M  V30 24 1 9 24
M  V30 25 1 11 25
M  V30 26 1 14 26
M  V30 27 1 14 27
M  V30 28 1 15 28
M  V30 29 1 15 29
M  V30 END BOND
M  V30 END CTAB
M  END
>  <Structure No>
8392

>  <LogS>
-2.03

>  <MMFF94 Energy>
-84.742

$$$$
Compound 8393
Actelion Java MolfileCreator 2.0

  0  0  0  0  0  0              0 V3000
M  V30 BEGIN CTAB
M  V30 COUNTS 32 33 0 0 0
M  V30 BEGIN ATOM
M  V30 1 N 1.2584 1.2584 0.2358 0
M  V30 2 C -0.0134 1.6292 0.5077 0
M  V30 3 C 1.6255 -0.0302 0.0204 0
M  V30 4 C -1.0348 0.6562 0.6012 0
M  V30 5 C -0.2992 2.9857 0.7024 0
M  V30 6 C 0.6407 -1.0512 0.0423 0
M  V30 7 C 3.0842 -0.3283 -0.27 0
M  V30 8 C -0.6976 -0.7131 0.4044 0
M  V30 9 C -2.351 1.096 0.8826 0
M  V30 10 C -1.6012 3.3961 0.9849 0
M  V30 11 C 1.0282 -2.4881 -0.2527 0
M  V30 12 N 3.9572 0.8103 0.0252 0 CHG=1
M  V30 13 C -1.7519 -1.8019 0.5652 0
M  V30 14 C -2.6244 2.4536 1.0722 0
M  V30 15 C -2.5654 -1.9815 -0.7156 0
M  V30 16 H 0.4895 3.7251 0.6337 0
M  V30 17 H 3.1909 -0.5978 -1.3436 0
M  V30 18 H 3.4132 -1.1932 0.3474 0
M  V30 19 H -3.1857 0.4147 0.9463 0
M  V30 20 H -1.8182 4.4462 1.133 0
M  V30 21 H 1.2166 -3.0256 0.6999 0
M  V30 22 H 0.2343 -3.0104 -0.8225 0
M  V30 23 H 1.9305 -2.5622 -0.8909 0
M  V30 24 H 3.8565 1.0922 1.0277 0
M  V30 25 H 4.9501 0.5308 -0.1461 0
M  V30 26 H 3.726 1.6159 -0.6006 0
M  V30 27 H -1.297 -2.7727 0.8485 0
M  V30 28 H -2.4286 -1.5756 1.4143 0
M  V30 29 H -3.6358 2.776 1.2851 0
M  V30 30 H -3.0986 -1.0442 -0.9781 0
M  V30 31 H -1.9048 -2.2641 -1.5615 0
M  V30 32 H -3.3167 -2.7857 -0.5684 0
M  V30 END ATOM
M  V30 BEGIN BOND
M  V30 1 1 1 2
M  V30 2 2 1 3
M  V30 3 1 2 4
M  V30 4 2 2 5
M  V30 5 1 3 6
M  V30 6 1 3 7
M  V30 7 1 4 8
M  V30 8 2 4 9
M  V30 9 1 5 10
M  V30 10 1 6 11
M  V30 11 1 7 12
M  V30 12 1 8 13
M  V30 13 1 9 14
M  V30 14 1 13 15
M  V30 15 2 6 8
M  V30 16 2 10 14
M  V30 17 1 5 16
M  V30 18 1 7 17
M  V30 19 1 7 18
M  V30 20 1 9 19
M  V30 21 1 10 20
M  V30 22 1 11 21
M  V30 23 1 11 22
M  V30 24 1 11 23
M  V30 25 1 12 24
M  V30 26 1 12 25
M  V30 27 1 12 26
M  V30 28 1 13 27
M  V30 29 1 13 28
M  V30 30 1 14 29
M  V30 31 1 15 30
M  V30 32 1 15 31
M  V30 33 1 15 32
M  V30 END BOND
M  V30 END CTAB
M  END
>  <Structure No>
8393

>  <LogS>
-1.48

>  <MMFF94 Energy>
41.28

$$$$
Compound 8394
Actelion Java MolfileCreator 2.0

  0  0  0  0  0  0              0 V3000
M  V30 BEGIN CTAB
M  V30 COUNTS 33 32 0 0 0
M  V30 BEGIN ATOM
M  V30 1 S -3.7708 0.2353 -2.1983 0
M  V30 2 C -4.5489 1.0753 -0.8127 0
M  V30 3 C -2.0745 0.3465 -1.5279 0
M  V30 4 N -5.0841 0.3875 0.1468 0 CHG=1
M  V30 5 N -4.5985 2.503 -0.7935 0
M  V30 6 C -1.8059 -0.7873 -0.5319 0
M  V30 7 C -0.4072 -0.6999 0.0985 0
M  V30 8 C 0.7155 -1.0125 -0.9067 0
M  V30 9 C 2.0817 -1.204 -0.2286 0
M  V30 10 C 2.6599 0.1135 0.3156 0
M  V30 11 C 4.0326 -0.0765 0.9799 0
M  V30 12 C 5.1502 -0.3333 -0.0306 0
M  V30 13 H -1.9115 1.336 -1.0484 0
M  V30 14 H -1.3776 0.2618 -2.3866 0
M  V30 15 H -5.0668 -0.6563 0.1271 0
M  V30 16 H -5.5467 0.8615 0.9543 0
M  V30 17 H -5.0519 3.0147 -0.0041 0
M  V30 18 H -4.1736 3.053 -1.5723 0
M  V30 19 H -1.9346 -1.7698 -1.0362 0
M  V30 20 H -2.5514 -0.731 0.2888 0
M  V30 21 H -0.2651 0.313 0.5318 0
M  V30 22 H -0.3626 -1.4346 0.932 0
M  V30 23 H 0.4668 -1.9533 -1.4446 0
M  V30 24 H 0.792 -0.201 -1.6618 0
M  V30 25 H 1.9938 -1.949 0.5922 0
M  V30 26 H 2.7752 -1.6213 -0.9885 0
M  V30 27 H 2.7379 0.8629 -0.5022 0
M  V30 28 H 1.9717 0.5234 1.0844 0
M  V30 29 H 4.281 0.8498 1.5421 0
M  V30 30 H 3.992 -0.9119 1.7123 0
M  V30 31 H 5.0193 -1.3188 -0.5226 0
M  V30 32 H 6.128 -0.3389 0.4955 0
M  V30 33 H 5.1696 0.4665 -0.8012 0
M  V30 END ATOM
M  V30 BEGIN BOND
M  V30 1 1 1 2
M  V30 2 1 1 3
M  V30 3 2 2 4
M  V30 4 1 2 5
M  V30 5 1 3 6
M  V30 6 1 6 7
M  V30 7 1 7 8
M  V30 8 1 8 9
M  V30 9 1 9 10
M  V30 10 1 10 11
M  V30 11 1 11 12
M  V30 12 1 3 13
M  V30 13 1 3 14
M  V30 14 1 4 15
M  V30 15 1 4 16
M  V30 16 1 5 17
M  V30 17 1 5 18
M  V30 18 1 6 19
M  V30 19 1 6 20
M  V30 20 1 7 21
M  V30 21 1 7 22
M  V30 22 1 8 23
M  V30 23 1 8 24
M  V30 24 1 9 25
M  V30 25 1 9 26
M  V30 26 1 10 27
M  V30 27 1 10 28
M  V30 28 1 11 29
M  V30 29 1 11 30
M  V30 30 1 12 31
M  V30 31 1 12 32
M  V30 32 1 12 33
M  V30 END BOND
M  V30 END CTAB
M  END
>  <Structure No>
8394

>  <LogS>
0.16

>  <MMFF94 Energy>
-71.265

$$$$
Compound 8395
Actelion Java MolfileCreator 2.0

  0  0  0  0  0  0              0 V3000
M  V30 BEGIN CTAB
M  V30 COUNTS 40 42 0 0 0
M  V30 BEGIN ATOM
M  V30 1 Cl 6.6861 1.3834 -1.2205 0
M  V30 2 C 5.1922 0.8847 -0.4483 0
M  V30 3 C 3.9739 1.0383 -1.1162 0
M  V30 4 C 5.2176 0.3369 0.8375 0
M  V30 5 C 2.7821 0.6417 -0.5024 0
M  V30 6 C 4.0277 -0.0614 1.4545 0
M  V30 7 C 2.7976 0.0787 0.7868 0
M  V30 8 C 1.5371 -0.3424 1.443 0
M  V30 9 O 1.4971 -0.4738 2.6965 0
M  V30 10 N 0.3462 -0.5854 0.677 0
M  V30 11 C -0.8444 0.0292 0.8354 0
M  V30 12 C 0.1885 -1.4606 -0.3524 0
M  V30 13 C -1.7499 -0.4212 -0.0912 0
M  V30 14 C -1.1763 1.0356 1.7455 0
M  V30 15 C -1.1121 -1.3803 -0.8582 0
M  V30 16 C 1.2747 -2.3457 -0.8946 0
M  V30 17 C -3.0423 0.0987 -0.1695 0
M  V30 18 C -2.4751 1.5712 1.698 0
M  V30 19 C -1.6686 -2.0797 -2.0655 0
M  V30 20 C -3.4162 1.1067 0.7393 0
M  V30 21 C -1.3931 -1.2751 -3.294 0
M  V30 22 O -4.7185 1.621 0.6582 0
M  V30 23 O -2.1993 -0.3791 -3.6584 0
M  V30 24 O -0.2213 -1.4795 -4.0112 0 CHG=-1
M  V30 25 C -5.2337 2.6407 1.5079 0
M  V30 26 H 3.9483 1.4681 -2.1094 0
M  V30 27 H 6.1584 0.2183 1.3597 0
M  V30 28 H 1.8496 0.7845 -1.0337 0
M  V30 29 H 4.0709 -0.488 2.4489 0
M  V30 30 H -0.4577 1.4052 2.4648 0
M  V30 31 H 1.7106 -1.8838 -1.8042 0
M  V30 32 H 2.075 -2.4966 -0.1418 0
M  V30 33 H 0.8665 -3.3445 -1.1507 0
M  V30 34 H -3.7436 -0.258 -0.9126 0
M  V30 35 H -2.7371 2.3488 2.4022 0
M  V30 36 H -1.2163 -3.0869 -2.1718 0
M  V30 37 H -2.7634 -2.2262 -1.9491 0
M  V30 38 H -6.2851 2.8521 1.2243 0
M  V30 39 H -4.6398 3.5716 1.3908 0
M  V30 40 H -5.2119 2.3034 2.5659 0
M  V30 END ATOM
M  V30 BEGIN BOND
M  V30 1 1 1 2
M  V30 2 2 2 3
M  V30 3 1 2 4
M  V30 4 1 3 5
M  V30 5 2 4 6
M  V30 6 2 5 7
M  V30 7 1 7 8
M  V30 8 2 8 9
M  V30 9 1 8 10
M  V30 10 1 10 11
M  V30 11 1 10 12
M  V30 12 2 11 13
M  V30 13 1 11 14
M  V30 14 2 12 15
M  V30 15 1 12 16
M  V30 16 1 13 17
M  V30 17 2 14 18
M  V30 18 1 15 19
M  V30 19 2 17 20
M  V30 20 1 19 21
M  V30 21 1 20 22
M  V30 22 2 21 23
M  V30 23 1 21 24
M  V30 24 1 22 25
M  V30 25 1 6 7
M  V30 26 1 13 15
M  V30 27 1 18 20
M  V30 28 1 3 26
M  V30 29 1 4 27
M  V30 30 1 5 28
M  V30 31 1 6 29
M  V30 32 1 14 30
M  V30 33 1 16 31
M  V30 34 1 16 32
M  V30 35 1 16 33
M  V30 36 1 17 34
M  V30 37 1 18 35
M  V30 38 1 19 36
M  V30 39 1 19 37
M  V30 40 1 25 38
M  V30 41 1 25 39
M  V30 42 1 25 40
M  V30 END BOND
M  V30 END CTAB
M  END
>  <Structure No>
8395

>  <LogS>
-4.77

>  <MMFF94 Energy>
126.51

$$$$
Compound 8396
Actelion Java MolfileCreator 2.0

  0  0  0  0  0  0              0 V3000
M  V30 BEGIN CTAB
M  V30 COUNTS 29 30 0 0 0
M  V30 BEGIN ATOM
M  V30 1 S -0.0818 1.3095 -0.8183 0
M  V30 2 O -0.1055 1.5825 -2.2965 0
M  V30 3 O -0.7354 2.4672 -0.113 0
M  V30 4 N 1.5915 1.1856 -0.3213 0
M  V30 5 N -0.9632 -0.1714 -0.5082 0
M  V30 6 C 2.1859 -0.0921 -0.7209 0
M  V30 7 C 1.772 1.3194 1.1306 0
M  V30 8 C -2.2765 -0.1452 -1.1514 0
M  V30 9 C -1.2367 -0.3714 0.9136 0
M  V30 10 C 3.2151 -0.4376 0.3337 0
M  V30 11 C 2.6628 0.1761 1.6003 0
M  V30 12 C -3.176 -1.0706 -0.3454 0
M  V30 13 C -2.476 -1.2475 0.9929 0
M  V30 14 H 1.4344 -0.9101 -0.7619 0
M  V30 15 H 2.6647 0.0076 -1.718 0
M  V30 16 H 0.8163 1.3135 1.6942 0
M  V30 17 H 2.2755 2.2888 1.3332 0
M  V30 18 H -2.1915 -0.4963 -2.2022 0
M  V30 19 H -2.7124 0.8802 -1.143 0
M  V30 20 H -0.3743 -0.8727 1.4015 0
M  V30 21 H -1.4501 0.5913 1.4294 0
M  V30 22 H 3.3502 -1.5366 0.4335 0
M  V30 23 H 4.1878 0.038 0.0785 0
M  V30 24 H 3.4794 0.5381 2.2623 0
M  V30 25 H 2.0543 -0.5774 2.1472 0
M  V30 26 H -4.1854 -0.623 -0.2128 0
M  V30 27 H -3.2764 -2.0526 -0.8579 0
M  V30 28 H -2.182 -2.3113 1.1314 0
M  V30 29 H -3.131 -0.9361 1.836 0
M  V30 END ATOM
M  V30 BEGIN BOND
M  V30 1 2 1 2
M  V30 2 2 1 3
M  V30 3 1 1 4
M  V30 4 1 1 5
M  V30 5 1 4 6
M  V30 6 1 4 7
M  V30 7 1 5 8
M  V30 8 1 5 9
M  V30 9 1 6 10
M  V30 10 1 7 11
M  V30 11 1 8 12
M  V30 12 1 9 13
M  V30 13 1 10 11
M  V30 14 1 12 13
M  V30 15 1 6 14
M  V30 16 1 6 15
M  V30 17 1 7 16
M  V30 18 1 7 17
M  V30 19 1 8 18
M  V30 20 1 8 19
M  V30 21 1 9 20
M  V30 22 1 9 21
M  V30 23 1 10 22
M  V30 24 1 10 23
M  V30 25 1 11 24
M  V30 26 1 11 25
M  V30 27 1 12 26
M  V30 28 1 12 27
M  V30 29 1 13 28
M  V30 30 1 13 29
M  V30 END BOND
M  V30 END CTAB
M  END
>  <Structure No>
8396

>  <LogS>
-0.44

>  <MMFF94 Energy>
-162.48

$$$$
Compound 8397
Actelion Java MolfileCreator 2.0

  0  0  0  0  0  0              0 V3000
M  V30 BEGIN CTAB
M  V30 COUNTS 27 27 0 0 0
M  V30 BEGIN ATOM
M  V30 1 O -1.0395 1.8397 0.9595 0
M  V30 2 C -1.652 0.8368 0.5067 0
M  V30 3 C -1.3351 0.1675 -0.7355 0
M  V30 4 C -2.796 0.1771 1.1824 0
M  V30 5 C -2.16 -0.852 -0.9016 0
M  V30 6 C -0.2045 0.5195 -1.6618 0
M  V30 7 C -3.1457 -0.9721 0.2216 0
M  V30 8 C 0.9873 -0.4448 -1.523 0
M  V30 9 C 1.6405 -0.4673 -0.1245 0 CFG=1
M  V30 10 O 2.5516 -1.5376 -0.0874 0
M  V30 11 C 2.3814 0.8487 0.1823 0
M  V30 12 C 2.9765 0.828 1.5564 0
M  V30 13 O 2.2598 1.0814 2.5605 0
M  V30 14 O 4.3118 0.4876 1.7322 0 CHG=-1
M  V30 15 H -2.4852 -0.2111 2.1761 0
M  V30 16 H -3.6452 0.8864 1.2861 0
M  V30 17 H -2.1199 -1.528 -1.7461 0
M  V30 18 H 0.1158 1.5681 -1.4946 0
M  V30 19 H -0.5765 0.4698 -2.7082 0
M  V30 20 H -4.1803 -0.8629 -0.1686 0
M  V30 21 H -3.0299 -1.9568 0.7231 0
M  V30 22 H 0.6364 -1.4714 -1.7695 0
M  V30 23 H 1.7539 -0.1764 -2.2826 0
M  V30 24 H 0.843 -0.6278 0.6387 0
M  V30 25 H 2.6007 -1.8505 0.8537 0
M  V30 26 H 3.189 1.0102 -0.5642 0
M  V30 27 H 1.6861 1.711 0.1237 0
M  V30 END ATOM
M  V30 BEGIN BOND
M  V30 1 2 1 2
M  V30 2 1 2 3
M  V30 3 1 2 4
M  V30 4 2 3 5
M  V30 5 1 3 6
M  V30 6 1 4 7
M  V30 7 1 6 8
M  V30 8 1 8 9
M  V30 9 1 9 10
M  V30 10 1 9 11
M  V30 11 1 11 12
M  V30 12 2 12 13
M  V30 13 1 12 14
M  V30 14 1 5 7
M  V30 15 1 4 15
M  V30 16 1 4 16
M  V30 17 1 5 17
M  V30 18 1 6 18
M  V30 19 1 6 19
M  V30 20 1 7 20
M  V30 21 1 7 21
M  V30 22 1 8 22
M  V30 23 1 8 23
M  V30 24 1 9 24
M  V30 25 1 10 25
M  V30 26 1 11 26
M  V30 27 1 11 27
M  V30 END BOND
M  V30 BEGIN COLLECTION
M  V30 MDLV30/STEABS ATOMS=(1 9)
M  V30 END COLLECTION
M  V30 END CTAB
M  END
>  <Structure No>
8397

>  <LogS>
-0.4

>  <MMFF94 Energy>
1.8104

$$$$
Compound 8398
Actelion Java MolfileCreator 2.0

  0  0  0  0  0  0              0 V3000
M  V30 BEGIN CTAB
M  V30 COUNTS 32 31 0 0 0
M  V30 BEGIN ATOM
M  V30 1 O -3.9767 -1.9073 -1.1122 0
M  V30 2 N -3.6088 -2.0223 0.0753 0 CHG=1
M  V30 3 O -2.5817 -1.2507 0.5855 0
M  V30 4 O -4.1886 -2.9806 0.8712 0 CHG=-1
M  V30 5 C -1.9625 -0.1939 -0.1516 0 CFG=1
M  V30 6 C -2.7914 1.0897 -0.0162 0
M  V30 7 C -0.5406 0.0334 0.3875 0
M  V30 8 O -4.0799 0.9062 -0.5932 0
M  V30 9 C 0.3545 -1.1951 0.1553 0
M  V30 10 N -5.0295 1.9084 -0.5993 0 CHG=1
M  V30 11 C 1.7484 -1.0395 0.7839 0
M  V30 12 O -4.7901 3.0251 -0.0941 0
M  V30 13 O -6.257 1.6722 -1.1697 0 CHG=-1
M  V30 14 C 2.6271 -0.0265 0.0349 0
M  V30 15 C 4.0489 -0.0058 0.6077 0
M  V30 16 C 4.9241 1.0068 -0.1247 0
M  V30 17 H -1.8888 -0.4676 -1.2279 0
M  V30 18 H -2.9027 1.3534 1.0582 0
M  V30 19 H -2.2785 1.9254 -0.5405 0
M  V30 20 H -0.5907 0.2583 1.4759 0
M  V30 21 H -0.0977 0.9102 -0.1309 0
M  V30 22 H 0.4526 -1.3916 -0.9347 0
M  V30 23 H -0.1262 -2.0861 0.6145 0
M  V30 24 H 2.247 -2.0333 0.7589 0
M  V30 25 H 1.6496 -0.7398 1.8504 0
M  V30 26 H 2.1893 0.9899 0.1277 0
M  V30 27 H 2.6701 -0.2986 -1.0425 0
M  V30 28 H 4.0144 0.2623 1.6863 0
M  V30 29 H 4.508 -1.0136 0.5099 0
M  V30 30 H 4.5022 2.0291 -0.0198 0
M  V30 31 H 4.9946 0.7477 -1.2025 0
M  V30 32 H 5.9457 0.9983 0.3099 0
M  V30 END ATOM
M  V30 BEGIN BOND
M  V30 1 2 1 2
M  V30 2 1 2 3
M  V30 3 1 2 4
M  V30 4 1 3 5
M  V30 5 1 5 6
M  V30 6 1 5 7
M  V30 7 1 6 8
M  V30 8 1 7 9
M  V30 9 1 8 10
M  V30 10 1 9 11
M  V30 11 2 10 12
M  V30 12 1 10 13
M  V30 13 1 11 14
M  V30 14 1 14 15
M  V30 15 1 15 16
M  V30 16 1 5 17
M  V30 17 1 6 18
M  V30 18 1 6 19
M  V30 19 1 7 20
M  V30 20 1 7 21
M  V30 21 1 9 22
M  V30 22 1 9 23
M  V30 23 1 11 24
M  V30 24 1 11 25
M  V30 25 1 14 26
M  V30 26 1 14 27
M  V30 27 1 15 28
M  V30 28 1 15 29
M  V30 29 1 16 30
M  V30 30 1 16 31
M  V30 31 1 16 32
M  V30 END BOND
M  V30 BEGIN COLLECTION
M  V30 MDLV30/STEABS ATOMS=(1 5)
M  V30 END COLLECTION
M  V30 END CTAB
M  END
>  <Structure No>
8398

>  <LogS>
-4.33

>  <MMFF94 Energy>
-28.913

$$$$
Compound 8399
Actelion Java MolfileCreator 2.0

  0  0  0  0  0  0              0 V3000
M  V30 BEGIN CTAB
M  V30 COUNTS 25 26 0 0 0
M  V30 BEGIN ATOM
M  V30 1 Cl 4.9868 1.3879 -0.8162 0
M  V30 2 C 3.4938 0.6134 -0.3182 0
M  V30 3 C 2.9966 -0.4772 -1.0387 0
M  V30 4 C 2.7975 1.0877 0.7982 0
M  V30 5 C 1.8058 -1.0948 -0.6438 0
M  V30 6 C 1.6065 0.472 1.1954 0
M  V30 7 C 1.1056 -0.6287 0.4812 0
M  V30 8 C -0.1953 -1.2672 0.8898 0
M  V30 9 N -1.3311 -0.5033 0.3478 0
M  V30 10 C -1.8112 -0.745 -0.9152 0
M  V30 11 C -1.8842 0.4928 1.1028 0
M  V30 12 O -1.3039 -1.6509 -1.632 0
M  V30 13 N -2.8442 -0.007 -1.4093 0
M  V30 14 C -2.9403 1.2534 0.6072 0
M  V30 15 C -3.4149 0.9825 -0.6731 0
M  V30 16 F -3.489 2.2394 1.3609 0
M  V30 17 O -4.3693 1.6538 -1.1489 0
M  V30 18 H 3.5303 -0.8458 -1.9054 0
M  V30 19 H 3.1762 1.9339 1.3571 0
M  V30 20 H 1.4322 -1.9357 -1.2141 0
M  V30 21 H 1.0757 0.853 2.059 0
M  V30 22 H -0.2534 -1.317 2.0003 0
M  V30 23 H -0.2366 -2.3245 0.5464 0
M  V30 24 H -1.5087 0.7055 2.0968 0
M  V30 25 H -3.2031 -0.2033 -2.3718 0
M  V30 END ATOM
M  V30 BEGIN BOND
M  V30 1 1 1 2
M  V30 2 2 2 3
M  V30 3 1 2 4
M  V30 4 1 3 5
M  V30 5 2 4 6
M  V30 6 2 5 7
M  V30 7 1 7 8
M  V30 8 1 8 9
M  V30 9 1 9 10
M  V30 10 1 9 11
M  V30 11 2 10 12
M  V30 12 1 10 13
M  V30 13 2 11 14
M  V30 14 1 13 15
M  V30 15 1 14 16
M  V30 16 2 15 17
M  V30 17 1 6 7
M  V30 18 1 14 15
M  V30 19 1 3 18
M  V30 20 1 4 19
M  V30 21 1 5 20
M  V30 22 1 6 21
M  V30 23 1 8 22
M  V30 24 1 8 23
M  V30 25 1 11 24
M  V30 26 1 13 25
M  V30 END BOND
M  V30 END CTAB
M  END
>  <Structure No>
8399

>  <LogS>
-3.49

>  <MMFF94 Energy>
-39.434

$$$$
Compound 8400
Actelion Java MolfileCreator 2.0

  0  0  0  0  0  0              0 V3000
M  V30 BEGIN CTAB
M  V30 COUNTS 29 30 0 0 0
M  V30 BEGIN ATOM
M  V30 1 F -3.6006 1.839 2.9598 0
M  V30 2 C -3.301 1.2726 1.7638 0
M  V30 3 C -3.8389 1.7711 0.5804 0
M  V30 4 C -2.4425 0.1783 1.6981 0
M  V30 5 O -4.6189 2.7606 0.608 0
M  V30 6 N -3.5187 1.1887 -0.6048 0
M  V30 7 N -2.1409 -0.397 0.4955 0
M  V30 8 C -2.6774 0.1187 -0.658 0
M  V30 9 C -1.205 -1.5326 0.4588 0
M  V30 10 O -2.3993 -0.3903 -1.7785 0
M  V30 11 C 0.2034 -1.0416 0.252 0
M  V30 12 C 0.9506 -0.5638 1.3392 0
M  V30 13 C 0.7655 -1.0113 -1.0334 0
M  V30 14 C 2.2462 -0.0765 1.1453 0
M  V30 15 C 2.0615 -0.5236 -1.227 0
M  V30 16 C 2.8132 -0.0517 -0.1338 0
M  V30 17 O 4.1165 0.4474 -0.2759 0
M  V30 18 C 4.8139 0.5319 -1.5143 0
M  V30 19 H -2.0173 -0.208 2.617 0
M  V30 20 H -3.9235 1.5701 -1.4906 0
M  V30 21 H -1.491 -2.2486 -0.3431 0
M  V30 22 H -1.2614 -2.1151 1.4057 0
M  V30 23 H 0.5306 -0.5686 2.3374 0
M  V30 24 H 0.202 -1.3663 -1.887 0
M  V30 25 H 2.8123 0.2865 1.9938 0
M  V30 26 H 2.4679 -0.5162 -2.229 0
M  V30 27 H 4.9334 -0.4803 -1.9551 0
M  V30 28 H 4.2647 1.1931 -2.2175 0
M  V30 29 H 5.8204 0.9624 -1.3348 0
M  V30 END ATOM
M  V30 BEGIN BOND
M  V30 1 1 1 2
M  V30 2 1 2 3
M  V30 3 2 2 4
M  V30 4 2 3 5
M  V30 5 1 3 6
M  V30 6 1 4 7
M  V30 7 1 6 8
M  V30 8 1 7 9
M  V30 9 2 8 10
M  V30 10 1 9 11
M  V30 11 2 11 12
M  V30 12 1 11 13
M  V30 13 1 12 14
M  V30 14 2 13 15
M  V30 15 2 14 16
M  V30 16 1 16 17
M  V30 17 1 17 18
M  V30 18 1 7 8
M  V30 19 1 15 16
M  V30 20 1 4 19
M  V30 21 1 6 20
M  V30 22 1 9 21
M  V30 23 1 9 22
M  V30 24 1 12 23
M  V30 25 1 13 24
M  V30 26 1 14 25
M  V30 27 1 15 26
M  V30 28 1 18 27
M  V30 29 1 18 28
M  V30 30 1 18 29
M  V30 END BOND
M  V30 END CTAB
M  END
>  <Structure No>
8400

>  <LogS>
-2.75

>  <MMFF94 Energy>
-34.809

$$$$
Compound 8401
Actelion Java MolfileCreator 2.0

  0  0  0  0  0  0              0 V3000
M  V30 BEGIN CTAB
M  V30 COUNTS 36 39 0 0 0
M  V30 BEGIN ATOM
M  V30 1 O -0.9675 -4.2788 -0.8062 0
M  V30 2 C -1.3398 -3.0987 -0.5747 0
M  V30 3 O -0.4329 -2.1365 -0.4588 0
M  V30 4 C -2.701 -2.8106 -0.4418 0
M  V30 5 C -0.7618 -0.8726 -0.2155 0
M  V30 6 C -3.109 -1.4935 -0.1838 0
M  V30 7 C -2.1224 -0.4883 -0.0653 0
M  V30 8 C 0.217 0.1125 -0.0975 0
M  V30 9 C -4.5781 -1.1912 -0.0407 0
M  V30 10 C -2.4394 0.8738 0.1996 0
M  V30 11 C -0.0986 1.4237 0.1666 0
M  V30 12 C 1.5918 0.0593 -0.1742 0
M  V30 13 C -1.4222 1.8473 0.3051 0
M  V30 14 O 0.9908 2.1544 0.2696 0
M  V30 15 C 2.0188 1.3497 0.0826 0
M  V30 16 C 2.5068 -1.1182 -0.3302 0
M  V30 17 C -1.7472 3.2739 0.6336 0
M  V30 18 C 3.4603 1.7545 0.1 0
M  V30 19 C 3.9435 -0.645 -0.6281 0
M  V30 20 C 4.3657 0.5211 0.2908 0
M  V30 21 H -3.4296 -3.607 -0.5387 0
M  V30 22 H -4.8869 -0.4531 -0.8106 0
M  V30 23 H -5.1997 -2.1026 -0.1712 0
M  V30 24 H -4.7806 -0.7801 0.9706 0
M  V30 25 H -3.4677 1.1856 0.3287 0
M  V30 26 H 2.4972 -1.7051 0.613 0
M  V30 27 H 2.152 -1.7671 -1.1586 0
M  V30 28 H -1.0353 3.9605 0.1281 0
M  V30 29 H -2.773 3.532 0.2948 0
M  V30 30 H -1.68 3.4244 1.7314 0
M  V30 31 H 3.6357 2.479 0.9235 0
M  V30 32 H 3.7027 2.2481 -0.865 0
M  V30 33 H 4.0117 -0.317 -1.6888 0
M  V30 34 H 4.6442 -1.4962 -0.4898 0
M  V30 35 H 5.4175 0.803 0.0697 0
M  V30 36 H 4.3179 0.1876 1.3509 0
M  V30 END ATOM
M  V30 BEGIN BOND
M  V30 1 2 1 2
M  V30 2 1 2 3
M  V30 3 1 2 4
M  V30 4 1 3 5
M  V30 5 2 4 6
M  V30 6 2 5 7
M  V30 7 1 5 8
M  V30 8 1 6 9
M  V30 9 1 7 10
M  V30 10 2 8 11
M  V30 11 1 8 12
M  V30 12 2 10 13
M  V30 13 1 11 14
M  V30 14 2 12 15
M  V30 15 1 12 16
M  V30 16 1 13 17
M  V30 17 1 15 18
M  V30 18 1 16 19
M  V30 19 1 18 20
M  V30 20 1 6 7
M  V30 21 1 11 13
M  V30 22 1 14 15
M  V30 23 1 19 20
M  V30 24 1 4 21
M  V30 25 1 9 22
M  V30 26 1 9 23
M  V30 27 1 9 24
M  V30 28 1 10 25
M  V30 29 1 16 26
M  V30 30 1 16 27
M  V30 31 1 17 28
M  V30 32 1 17 29
M  V30 33 1 17 30
M  V30 34 1 18 31
M  V30 35 1 18 32
M  V30 36 1 19 33
M  V30 37 1 19 34
M  V30 38 1 20 35
M  V30 39 1 20 36
M  V30 END BOND
M  V30 END CTAB
M  END
>  <Structure No>
8401

>  <LogS>
-5.09

>  <MMFF94 Energy>
43.815

$$$$
Compound 8402
Actelion Java MolfileCreator 2.0

  0  0  0  0  0  0              0 V3000
M  V30 BEGIN CTAB
M  V30 COUNTS 47 50 0 0 0
M  V30 BEGIN ATOM
M  V30 1 S 2.7048 2.2126 -2.2947 0
M  V30 2 O 3.4444 2.2958 -3.5997 0
M  V30 3 O 2.3555 3.6013 -1.837 0
M  V30 4 N 1.2418 1.3113 -2.5184 0
M  V30 5 C 3.7263 1.4094 -1.1066 0
M  V30 6 C 0.3709 0.9986 -1.4277 0
M  V30 7 C 3.7986 0.0102 -1.0786 0
M  V30 8 C 4.47 2.1599 -0.1856 0
M  V30 9 N -0.7504 0.2508 -1.6541 0
M  V30 10 N 0.64 1.4701 -0.1669 0
M  V30 11 C 4.6007 -0.6341 -0.132 0
M  V30 12 C 5.2734 1.5156 0.7603 0
M  V30 13 C -1.5363 -0.0769 -0.5999 0
M  V30 14 C -0.1802 1.1987 0.8883 0
M  V30 15 C 5.3419 0.1154 0.7922 0
M  V30 16 C -1.2812 0.3862 0.6646 0
M  V30 17 C -2.9191 -0.6731 -0.58 0 CFG=1
M  V30 18 N 6.1629 -0.5432 1.7602 0
M  V30 19 C -2.5008 0.079 1.4958 0 CFG=2
M  V30 20 C -2.9385 -1.2651 0.8582 0
M  V30 21 C -3.8778 0.5433 -0.4595 0
M  V30 22 C -3.226 -1.6351 -1.7304 0
M  V30 23 C -3.5869 1.0634 0.9807 0
M  V30 24 C -4.3197 -1.7889 1.352 0
M  V30 25 C -1.9149 -2.4186 1.1014 0
M  V30 26 H 1.0097 0.965 -3.4758 0
M  V30 27 H 3.2323 -0.5809 -1.7869 0
M  V30 28 H 4.429 3.2416 -0.1976 0
M  V30 29 H 4.6451 -1.7158 -0.1193 0
M  V30 30 H 5.8418 2.1067 1.4675 0
M  V30 31 H 0.0144 1.624 1.8634 0
M  V30 32 H 6.222 -1.5856 1.7904 0
M  V30 33 H 6.7189 0.0065 2.4524 0
M  V30 34 H -2.336 0.0694 2.5945 0
M  V30 35 H -4.9418 0.2463 -0.5777 0
M  V30 36 H -3.6484 1.3217 -1.2215 0
M  V30 37 H -3.1953 -1.0891 -2.6968 0
M  V30 38 H -4.2372 -2.075 -1.6042 0
M  V30 39 H -2.4772 -2.4542 -1.7617 0
M  V30 40 H -4.4951 1.0312 1.6191 0
M  V30 41 H -3.2131 2.1116 0.963 0
M  V30 42 H -4.2664 -2.0167 2.4381 0
M  V30 43 H -4.5863 -2.724 0.8152 0
M  V30 44 H -5.1618 -1.0875 1.2083 0
M  V30 45 H -2.2426 -3.3409 0.5761 0
M  V30 46 H -0.8882 -2.1898 0.7491 0
M  V30 47 H -1.8503 -2.6419 2.1879 0
M  V30 END ATOM
M  V30 BEGIN BOND
M  V30 1 2 1 2
M  V30 2 2 1 3
M  V30 3 1 1 4
M  V30 4 1 1 5
M  V30 5 1 4 6
M  V30 6 2 5 7
M  V30 7 1 5 8
M  V30 8 2 6 9
M  V30 9 1 6 10
M  V30 10 1 7 11
M  V30 11 2 8 12
M  V30 12 1 9 13
M  V30 13 2 10 14
M  V30 14 2 11 15
M  V30 15 2 13 16
M  V30 16 1 13 17
M  V30 17 1 15 18
M  V30 18 1 16 19
M  V30 19 1 17 20
M  V30 20 1 17 21
M  V30 21 1 17 22
M  V30 22 1 19 23
M  V30 23 1 20 24
M  V30 24 1 20 25
M  V30 25 1 12 15
M  V30 26 1 14 16
M  V30 27 1 19 20
M  V30 28 1 21 23
M  V30 29 1 4 26
M  V30 30 1 7 27
M  V30 31 1 8 28
M  V30 32 1 11 29
M  V30 33 1 12 30
M  V30 34 1 14 31
M  V30 35 1 18 32
M  V30 36 1 18 33
M  V30 37 1 19 34
M  V30 38 1 21 35
M  V30 39 1 21 36
M  V30 40 1 22 37
M  V30 41 1 22 38
M  V30 42 1 22 39
M  V30 43 1 23 40
M  V30 44 1 23 41
M  V30 45 1 24 42
M  V30 46 1 24 43
M  V30 47 1 24 44
M  V30 48 1 25 45
M  V30 49 1 25 46
M  V30 50 1 25 47
M  V30 END BOND
M  V30 BEGIN COLLECTION
M  V30 MDLV30/STEABS ATOMS=(2 17 19)
M  V30 END COLLECTION
M  V30 END CTAB
M  END
>  <Structure No>
8402

>  <LogS>
-4.08

>  <MMFF94 Energy>
-78.92

$$$$
Compound 8403
Actelion Java MolfileCreator 2.0

  0  0  0  0  0  0              0 V3000
M  V30 BEGIN CTAB
M  V30 COUNTS 28 28 0 0 0
M  V30 BEGIN ATOM
M  V30 1 O 2.7475 -1.1767 -0.8628 0
M  V30 2 C 1.4317 -0.6919 -0.7781 0
M  V30 3 C 3.6439 -1.3445 0.2357 0
M  V30 4 C 0.7972 -0.4138 0.4481 0
M  V30 5 C 0.7265 -0.4875 -1.9693 0
M  V30 6 C 4.2036 0.0021 0.6874 0
M  V30 7 C -0.516 0.066 0.471 0
M  V30 8 C -0.5858 -0.008 -1.9462 0
M  V30 9 O 5.1099 -0.1965 1.7358 0
M  V30 10 C -1.2183 0.2733 -0.7306 0
M  V30 11 O -2.536 0.753 -0.7601 0
M  V30 12 C -3.3014 1.078 0.3978 0
M  V30 13 C -4.684 1.5689 -0.0201 0
M  V30 14 O -5.3613 0.5764 -0.7424 0
M  V30 15 H 3.1455 -1.8747 1.075 0
M  V30 16 H 4.4886 -1.9814 -0.102 0
M  V30 17 H 1.3037 -0.5656 1.3903 0
M  V30 18 H 1.1999 -0.6998 -2.9195 0
M  V30 19 H 3.3777 0.6634 1.0282 0
M  V30 20 H 4.7211 0.4879 -0.1696 0
M  V30 21 H -0.9757 0.2714 1.4281 0
M  V30 22 H -1.1148 0.1456 -2.8782 0
M  V30 23 H 5.4468 0.7038 1.9823 0
M  V30 24 H -2.791 1.8829 0.9698 0
M  V30 25 H -3.4082 0.1803 1.0449 0
M  V30 26 H -5.2696 1.8618 0.8806 0
M  V30 27 H -4.5745 2.4681 -0.6629 0
M  V30 28 H -5.674 -0.0934 -0.0796 0
M  V30 END ATOM
M  V30 BEGIN BOND
M  V30 1 1 1 2
M  V30 2 1 1 3
M  V30 3 2 2 4
M  V30 4 1 2 5
M  V30 5 1 3 6
M  V30 6 1 4 7
M  V30 7 2 5 8
M  V30 8 1 6 9
M  V30 9 2 7 10
M  V30 10 1 10 11
M  V30 11 1 11 12
M  V30 12 1 12 13
M  V30 13 1 13 14
M  V30 14 1 8 10
M  V30 15 1 3 15
M  V30 16 1 3 16
M  V30 17 1 4 17
M  V30 18 1 5 18
M  V30 19 1 6 19
M  V30 20 1 6 20
M  V30 21 1 7 21
M  V30 22 1 8 22
M  V30 23 1 9 23
M  V30 24 1 12 24
M  V30 25 1 12 25
M  V30 26 1 13 26
M  V30 27 1 13 27
M  V30 28 1 14 28
M  V30 END BOND
M  V30 END CTAB
M  END
>  <Structure No>
8403

>  <LogS>
-1.23

>  <MMFF94 Energy>
56.812

$$$$
Compound 8404
Actelion Java MolfileCreator 2.0

  0  0  0  0  0  0              0 V3000
M  V30 BEGIN CTAB
M  V30 COUNTS 22 22 0 0 0
M  V30 BEGIN ATOM
M  V30 1 S 0.1668 -0.8345 1.0014 0
M  V30 2 O 0.9749 -2.0744 0.7351 0
M  V30 3 O 0.4001 -0.3736 2.4127 0
M  V30 4 N 0.5833 0.447 -0.1143 0
M  V30 5 C -1.5616 -1.1944 0.7713 0
M  V30 6 C -0.1566 0.2144 -1.3673 0
M  V30 7 C 2.0356 0.4678 -0.3684 0
M  V30 8 C -2.2405 0.0424 0.1877 0
M  V30 9 C -1.675 0.4429 -1.1911 0
M  V30 10 C 2.7793 0.9332 0.8447 0
M  V30 11 O 2.6564 2.1206 1.2449 0
M  V30 12 O 3.5932 0.0515 1.5443 0 CHG=-1
M  V30 13 H -1.6774 -2.0531 0.0762 0
M  V30 14 H -2.0213 -1.4567 1.7476 0
M  V30 15 H 0.024 -0.8207 -1.738 0
M  V30 16 H 0.1957 0.9102 -2.161 0
M  V30 17 H 2.4051 -0.5313 -0.6881 0
M  V30 18 H 2.2693 1.183 -1.1877 0
M  V30 19 H -3.3311 -0.1487 0.0929 0
M  V30 20 H -2.1147 0.8909 0.8962 0
M  V30 21 H -1.9021 1.5182 -1.3598 0
M  V30 22 H -2.2081 -0.1294 -1.981 0
M  V30 END ATOM
M  V30 BEGIN BOND
M  V30 1 2 1 2
M  V30 2 2 1 3
M  V30 3 1 1 4
M  V30 4 1 1 5
M  V30 5 1 4 6
M  V30 6 1 4 7
M  V30 7 1 5 8
M  V30 8 1 6 9
M  V30 9 1 7 10
M  V30 10 2 10 11
M  V30 11 1 10 12
M  V30 12 1 8 9
M  V30 13 1 5 13
M  V30 14 1 5 14
M  V30 15 1 6 15
M  V30 16 1 6 16
M  V30 17 1 7 17
M  V30 18 1 7 18
M  V30 19 1 8 19
M  V30 20 1 8 20
M  V30 21 1 9 21
M  V30 22 1 9 22
M  V30 END BOND
M  V30 END CTAB
M  END
>  <Structure No>
8404

>  <LogS>
-0.59

>  <MMFF94 Energy>
9.0121

$$$$
Compound 8405
Actelion Java MolfileCreator 2.0

  0  0  0  0  0  0              0 V3000
M  V30 BEGIN CTAB
M  V30 COUNTS 38 40 0 0 0
M  V30 BEGIN ATOM
M  V30 1 O 3.5893 -1.1953 1.0359 0
M  V30 2 N 4.2106 -0.4788 0.0373 0 CHG=1
M  V30 3 C 3.5237 0.2205 -0.8179 0
M  V30 4 N 2.0853 0.2197 -0.778 0
M  V30 5 N 4.2049 1.0231 -1.7872 0
M  V30 6 C 1.3626 1.4955 -0.8171 0
M  V30 7 C 1.3437 -1.0256 -0.9775 0
M  V30 8 C -0.069 1.3738 -0.3367 0
M  V30 9 C 0.2334 -1.1059 0.0702 0 CFG=1
M  V30 10 C -0.6474 0.1285 0.0084 0
M  V30 11 C -0.8463 2.5347 -0.2896 0
M  V30 12 C -0.5752 -2.3978 -0.0917 0
M  V30 13 C -2.0129 0.0678 0.4017 0
M  V30 14 C -2.1828 2.4798 0.0904 0
M  V30 15 C -1.7055 -2.4174 0.9311 0
M  V30 16 C -2.7852 1.2574 0.4163 0
M  V30 17 C -2.6852 -1.2696 0.6746 0
M  V30 18 C -4.2448 1.2477 0.7953 0
M  V30 19 H 4.1378 -1.725 1.7022 0
M  V30 20 H 5.2549 -0.4764 -0.0022 0
M  V30 21 H 3.6703 1.5607 -2.5045 0
M  V30 22 H 5.2481 1.0656 -1.8107 0
M  V30 23 H 1.8887 2.2349 -0.1741 0
M  V30 24 H 1.3578 1.8779 -1.86 0
M  V30 25 H 2.014 -1.908 -0.8866 0
M  V30 26 H 0.9103 -1.0321 -2.0018 0
M  V30 27 H 0.7144 -1.1231 1.0742 0
M  V30 28 H -0.4138 3.4915 -0.5568 0
M  V30 29 H -0.9952 -2.4698 -1.1201 0
M  V30 30 H 0.0842 -3.2764 0.079 0
M  V30 31 H -2.7549 3.399 0.1128 0
M  V30 32 H -1.2865 -2.3302 1.958 0
M  V30 33 H -2.2478 -3.3853 0.8648 0
M  V30 34 H -3.3504 -1.1911 1.5607 0
M  V30 35 H -3.3144 -1.5286 -0.2046 0
M  V30 36 H -4.7257 2.2309 0.6028 0
M  V30 37 H -4.7919 0.4875 0.1999 0
M  V30 38 H -4.3482 1.0174 1.8763 0
M  V30 END ATOM
M  V30 BEGIN BOND
M  V30 1 1 1 2
M  V30 2 2 2 3
M  V30 3 1 3 4
M  V30 4 1 3 5
M  V30 5 1 4 6
M  V30 6 1 4 7
M  V30 7 1 6 8
M  V30 8 1 7 9
M  V30 9 2 8 10
M  V30 10 1 8 11
M  V30 11 1 9 12
M  V30 12 1 10 13
M  V30 13 2 11 14
M  V30 14 1 12 15
M  V30 15 2 13 16
M  V30 16 1 13 17
M  V30 17 1 16 18
M  V30 18 1 9 10
M  V30 19 1 14 16
M  V30 20 1 15 17
M  V30 21 1 1 19
M  V30 22 1 2 20
M  V30 23 1 5 21
M  V30 24 1 5 22
M  V30 25 1 6 23
M  V30 26 1 6 24
M  V30 27 1 7 25
M  V30 28 1 7 26
M  V30 29 1 9 27
M  V30 30 1 11 28
M  V30 31 1 12 29
M  V30 32 1 12 30
M  V30 33 1 14 31
M  V30 34 1 15 32
M  V30 35 1 15 33
M  V30 36 1 17 34
M  V30 37 1 17 35
M  V30 38 1 18 36
M  V30 39 1 18 37
M  V30 40 1 18 38
M  V30 END BOND
M  V30 BEGIN COLLECTION
M  V30 MDLV30/STEABS ATOMS=(1 9)
M  V30 END COLLECTION
M  V30 END CTAB
M  END
>  <Structure No>
8405

>  <LogS>
-1.2

>  <MMFF94 Energy>
-41.444

$$$$
Compound 8406
Actelion Java MolfileCreator 2.0

  0  0  0  0  0  0              0 V3000
M  V30 BEGIN CTAB
M  V30 COUNTS 38 40 0 0 0
M  V30 BEGIN ATOM
M  V30 1 O -3.908 1.0356 0.0 0
M  V30 2 C -2.5212 1.0756 -0.2255 0
M  V30 3 C -4.7644 2.1733 -0.0177 0
M  V30 4 C -1.7874 -0.1282 -0.1782 0
M  V30 5 C -1.8529 2.2832 -0.4968 0
M  V30 6 C -0.3801 -0.0987 -0.3457 0
M  V30 7 C -2.5073 -1.4212 0.1451 0
M  V30 8 C -0.4751 2.2989 -0.7057 0
M  V30 9 C 0.2684 1.1165 -0.6209 0
M  V30 10 C 0.4543 -1.36 -0.3409 0 CFG=1
M  V30 11 C -1.6937 -2.6625 -0.2283 0
M  V30 12 C 1.7469 1.1319 -0.9211 0
M  V30 13 C 1.7948 -1.0955 0.3654 0
M  V30 14 C -0.2729 -2.5455 0.3166 0
M  V30 15 N 2.4813 0.0907 -0.179 0
M  V30 16 C 3.9105 0.2331 -0.0035 0
M  V30 17 N 4.5043 -0.265 1.0411 0 CHG=1
M  V30 18 N 4.6889 0.9372 -0.9802 0
M  V30 19 H -4.7404 2.6538 -1.0185 0
M  V30 20 H -4.4526 2.8983 0.7636 0
M  V30 21 H -5.8033 1.8478 0.1947 0
M  V30 22 H -2.3918 3.2189 -0.5552 0
M  V30 23 H -2.7256 -1.4409 1.2351 0
M  V30 24 H -3.4753 -1.4661 -0.3996 0
M  V30 25 H 0.0134 3.2378 -0.9363 0
M  V30 26 H 0.6652 -1.6278 -1.4007 0
M  V30 27 H -1.6665 -2.7775 -1.3346 0
M  V30 28 H -2.1822 -3.5643 0.1998 0
M  V30 29 H 1.8887 0.9749 -2.0114 0
M  V30 30 H 2.1598 2.1297 -0.6522 0
M  V30 31 H 1.6236 -0.942 1.4537 0
M  V30 32 H 2.4403 -1.9922 0.233 0
M  V30 33 H 0.2799 -3.4856 0.1006 0
M  V30 34 H -0.3136 -2.4163 1.4215 0
M  V30 35 H 3.977 -0.7587 1.794 0
M  V30 36 H 5.5363 -0.1638 1.1668 0
M  V30 37 H 4.263 1.2862 -1.8662 0
M  V30 38 H 5.7143 1.08 -0.8426 0
M  V30 END ATOM
M  V30 BEGIN BOND
M  V30 1 1 1 2
M  V30 2 1 1 3
M  V30 3 2 2 4
M  V30 4 1 2 5
M  V30 5 1 4 6
M  V30 6 1 4 7
M  V30 7 2 5 8
M  V30 8 2 6 9
M  V30 9 1 6 10
M  V30 10 1 7 11
M  V30 11 1 9 12
M  V30 12 1 10 13
M  V30 13 1 10 14
M  V30 14 1 12 15
M  V30 15 1 15 16
M  V30 16 2 16 17
M  V30 17 1 16 18
M  V30 18 1 8 9
M  V30 19 1 11 14
M  V30 20 1 13 15
M  V30 21 1 3 19
M  V30 22 1 3 20
M  V30 23 1 3 21
M  V30 24 1 5 22
M  V30 25 1 7 23
M  V30 26 1 7 24
M  V30 27 1 8 25
M  V30 28 1 10 26
M  V30 29 1 11 27
M  V30 30 1 11 28
M  V30 31 1 12 29
M  V30 32 1 12 30
M  V30 33 1 13 31
M  V30 34 1 13 32
M  V30 35 1 14 33
M  V30 36 1 14 34
M  V30 37 1 17 35
M  V30 38 1 17 36
M  V30 39 1 18 37
M  V30 40 1 18 38
M  V30 END BOND
M  V30 BEGIN COLLECTION
M  V30 MDLV30/STEABS ATOMS=(1 10)
M  V30 END COLLECTION
M  V30 END CTAB
M  END
>  <Structure No>
8406

>  <LogS>
-1.22

>  <MMFF94 Energy>
-118.99

$$$$
Compound 8407
Actelion Java MolfileCreator 2.0

  0  0  0  0  0  0              0 V3000
M  V30 BEGIN CTAB
M  V30 COUNTS 35 37 0 0 0
M  V30 BEGIN ATOM
M  V30 1 O 5.3558 0.2393 0.3989 0
M  V30 2 N 4.0049 0.0966 0.6267 0 CHG=1
M  V30 3 C 3.1371 0.2528 -0.3342 0
M  V30 4 N 1.7209 0.1114 -0.0718 0
M  V30 5 N 3.5876 0.5599 -1.6628 0
M  V30 6 C 1.1796 0.5165 1.2411 0
M  V30 7 C 0.8438 -0.3817 -1.1481 0
M  V30 8 C -0.311 0.7499 1.2107 0
M  V30 9 C -0.4571 -0.9814 -0.5923 0 CFG=1
M  V30 10 C -1.1227 0.0168 0.3261 0
M  V30 11 C -0.9007 1.6303 2.1296 0
M  V30 12 C -1.3793 -1.4286 -1.7412 0
M  V30 13 C -2.5304 0.1589 0.3795 0
M  V30 14 C -2.2858 1.7963 2.1569 0
M  V30 15 C -2.7599 -1.8009 -1.2017 0
M  V30 16 C -3.0968 1.0695 1.2842 0
M  V30 17 C -3.4355 -0.5749 -0.5813 0
M  V30 18 H 6.0191 0.1083 1.153 0
M  V30 19 H 3.6961 -0.1562 1.5913 0
M  V30 20 H 4.6031 0.6134 -1.898 0
M  V30 21 H 2.909 0.7744 -2.4254 0
M  V30 22 H 1.3935 -0.2773 1.9877 0
M  V30 23 H 1.6839 1.453 1.5676 0
M  V30 24 H 0.6077 0.4611 -1.8341 0
M  V30 25 H 1.3728 -1.1706 -1.7279 0
M  V30 26 H -0.1984 -1.8783 0.0141 0
M  V30 27 H -0.2874 2.1851 2.829 0
M  V30 28 H -1.4875 -0.6161 -2.4944 0
M  V30 29 H -0.9355 -2.3119 -2.2501 0
M  V30 30 H -2.7332 2.4859 2.8612 0
M  V30 31 H -3.3905 -2.1872 -2.0313 0
M  V30 32 H -2.6631 -2.6049 -0.4389 0
M  V30 33 H -4.1699 1.2135 1.3162 0
M  V30 34 H -4.3577 -0.9056 -0.0556 0
M  V30 35 H -3.7349 0.1263 -1.3902 0
M  V30 END ATOM
M  V30 BEGIN BOND
M  V30 1 1 1 2
M  V30 2 2 2 3
M  V30 3 1 3 4
M  V30 4 1 3 5
M  V30 5 1 4 6
M  V30 6 1 4 7
M  V30 7 1 6 8
M  V30 8 1 7 9
M  V30 9 2 8 10
M  V30 10 1 8 11
M  V30 11 1 9 12
M  V30 12 1 10 13
M  V30 13 2 11 14
M  V30 14 1 12 15
M  V30 15 2 13 16
M  V30 16 1 13 17
M  V30 17 1 9 10
M  V30 18 1 14 16
M  V30 19 1 15 17
M  V30 20 1 1 18
M  V30 21 1 2 19
M  V30 22 1 5 20
M  V30 23 1 5 21
M  V30 24 1 6 22
M  V30 25 1 6 23
M  V30 26 1 7 24
M  V30 27 1 7 25
M  V30 28 1 9 26
M  V30 29 1 11 27
M  V30 30 1 12 28
M  V30 31 1 12 29
M  V30 32 1 14 30
M  V30 33 1 15 31
M  V30 34 1 15 32
M  V30 35 1 16 33
M  V30 36 1 17 34
M  V30 37 1 17 35
M  V30 END BOND
M  V30 BEGIN COLLECTION
M  V30 MDLV30/STEABS ATOMS=(1 9)
M  V30 END COLLECTION
M  V30 END CTAB
M  END
>  <Structure No>
8407

>  <LogS>
-1.35

>  <MMFF94 Energy>
-52.276

$$$$
Compound 8408
Actelion Java MolfileCreator 2.0

  0  0  0  0  0  0              0 V3000
M  V30 BEGIN CTAB
M  V30 COUNTS 38 40 0 0 0
M  V30 BEGIN ATOM
M  V30 1 N 2.6928 0.3165 -0.3165 0 CHG=1
M  V30 2 N 3.9913 0.5209 0.1859 0
M  V30 3 C 1.7342 -0.2017 0.4042 0
M  V30 4 C 5.1237 0.1091 -0.6374 0
M  V30 5 C 4.2134 1.5658 1.1857 0
M  V30 6 N 0.4096 -0.3347 -0.1467 0
M  V30 7 N 1.987 -0.6749 1.7346 0
M  V30 8 C -0.1511 0.7237 -0.9939 0
M  V30 9 C -0.2582 -1.6402 -0.1278 0
M  V30 10 C -1.6421 0.8256 -0.799 0
M  V30 11 C -1.7423 -1.4709 0.0656 0
M  V30 12 C -2.3842 -0.2669 -0.299 0
M  V30 13 C -2.3081 2.0032 -1.1713 0
M  V30 14 C -2.5053 -2.5453 0.5472 0
M  V30 15 C -3.7897 -0.1502 -0.1512 0
M  V30 16 C -3.6923 2.1114 -1.0228 0
M  V30 17 C -3.8884 -2.4219 0.6944 0
M  V30 18 C -4.4318 1.043 -0.5128 0
M  V30 19 C -4.5301 -1.2311 0.3493 0
M  V30 20 H 2.5141 0.5474 -1.32 0
M  V30 21 H 4.8731 -0.8219 -1.1886 0
M  V30 22 H 6.0099 -0.0904 0.0017 0
M  V30 23 H 5.3674 0.9097 -1.3673 0
M  V30 24 H 3.2971 1.7354 1.7889 0
M  V30 25 H 4.4827 2.5165 0.6791 0
M  V30 26 H 5.036 1.2679 1.8696 0
M  V30 27 H 2.9545 -0.7687 2.1144 0
M  V30 28 H 1.1928 -0.9583 2.3501 0
M  V30 29 H 0.318 1.7003 -0.7392 0
M  V30 30 H 0.0611 0.4941 -2.0599 0
M  V30 31 H 0.1528 -2.2818 0.6809 0
M  V30 32 H -0.0779 -2.154 -1.096 0
M  V30 33 H -1.7529 2.8409 -1.5752 0
M  V30 34 H -2.0274 -3.4812 0.8095 0
M  V30 35 H -4.1947 3.0272 -1.3073 0
M  V30 36 H -4.4664 -3.2552 1.0727 0
M  V30 37 H -5.5053 1.1472 -0.4067 0
M  V30 38 H -5.6046 -1.1571 0.468 0
M  V30 END ATOM
M  V30 BEGIN BOND
M  V30 1 1 1 2
M  V30 2 2 1 3
M  V30 3 1 2 4
M  V30 4 1 2 5
M  V30 5 1 3 6
M  V30 6 1 3 7
M  V30 7 1 6 8
M  V30 8 1 6 9
M  V30 9 1 8 10
M  V30 10 1 9 11
M  V30 11 1 10 12
M  V30 12 2 10 13
M  V30 13 1 11 14
M  V30 14 1 12 15
M  V30 15 1 13 16
M  V30 16 2 14 17
M  V30 17 1 15 18
M  V30 18 2 15 19
M  V30 19 2 11 12
M  V30 20 2 16 18
M  V30 21 1 17 19
M  V30 22 1 1 20
M  V30 23 1 4 21
M  V30 24 1 4 22
M  V30 25 1 4 23
M  V30 26 1 5 24
M  V30 27 1 5 25
M  V30 28 1 5 26
M  V30 29 1 7 27
M  V30 30 1 7 28
M  V30 31 1 8 29
M  V30 32 1 8 30
M  V30 33 1 9 31
M  V30 34 1 9 32
M  V30 35 1 13 33
M  V30 36 1 14 34
M  V30 37 1 16 35
M  V30 38 1 17 36
M  V30 39 1 18 37
M  V30 40 1 19 38
M  V30 END BOND
M  V30 END CTAB
M  END
>  <Structure No>
8408

>  <LogS>
-1.07

>  <MMFF94 Energy>
-40.51

$$$$
Compound 8409
Actelion Java MolfileCreator 2.0

  0  0  0  0  0  0              0 V3000
M  V30 BEGIN CTAB
M  V30 COUNTS 39 41 0 0 0
M  V30 BEGIN ATOM
M  V30 1 N -3.6522 0.3964 0.6344 0
M  V30 2 N -2.3874 -0.0517 0.2104 0
M  V30 3 C -4.7463 0.2861 -0.0632 0
M  V30 4 C -1.2261 0.1151 1.0401 0
M  V30 5 C -6.0166 0.8147 0.5311 0
M  V30 6 C -4.7581 -0.3476 -1.4293 0
M  V30 7 N -1.335 0.6056 2.24 0 CHG=1
M  V30 8 N 0.0712 -0.2452 0.5296 0
M  V30 9 C 0.4054 0.0358 -0.8698 0
M  V30 10 C 0.9028 -1.2058 1.2634 0
M  V30 11 C 1.8811 0.3015 -1.0196 0
M  V30 12 C 2.3636 -0.8945 1.0698 0
M  V30 13 C 2.8043 -0.1828 -0.067 0
M  V30 14 C 2.348 0.9896 -2.1497 0
M  V30 15 C 3.3033 -1.3766 1.9936 0
M  V30 16 C 4.1897 0.0576 -0.2491 0
M  V30 17 C 3.7135 1.2234 -2.3223 0
M  V30 18 C 4.6656 -1.1328 1.8102 0
M  V30 19 C 4.6321 0.7637 -1.3771 0
M  V30 20 C 5.1097 -0.418 0.6965 0
M  V30 21 H -2.2699 -0.5239 -0.7128 0
M  V30 22 H -6.2261 0.289 1.4863 0
M  V30 23 H -5.9079 1.9011 0.733 0
M  V30 24 H -6.8823 0.6682 -0.1478 0
M  V30 25 H -4.0891 0.2172 -2.1118 0
M  V30 26 H -5.7766 -0.3473 -1.87 0
M  V30 27 H -4.4158 -1.4013 -1.3579 0
M  V30 28 H -2.2596 0.874 2.6432 0
M  V30 29 H -0.4898 0.7681 2.8311 0
M  V30 30 H -0.1644 0.9241 -1.2229 0
M  V30 31 H 0.1284 -0.8374 -1.4981 0
M  V30 32 H 0.699 -2.2287 0.8811 0
M  V30 33 H 0.6586 -1.1916 2.3473 0
M  V30 34 H 1.6516 1.3478 -2.8978 0
M  V30 35 H 2.9793 -1.9428 2.8582 0
M  V30 36 H 4.0617 1.7612 -3.1947 0
M  V30 37 H 5.3812 -1.5041 2.5324 0
M  V30 38 H 5.6875 0.9544 -1.5308 0
M  V30 39 H 6.1715 -0.2423 0.5712 0
M  V30 END ATOM
M  V30 BEGIN BOND
M  V30 1 1 1 2
M  V30 2 2 1 3
M  V30 3 1 2 4
M  V30 4 1 3 5
M  V30 5 1 3 6
M  V30 6 2 4 7
M  V30 7 1 4 8
M  V30 8 1 8 9
M  V30 9 1 8 10
M  V30 10 1 9 11
M  V30 11 1 10 12
M  V30 12 1 11 13
M  V30 13 2 11 14
M  V30 14 1 12 15
M  V30 15 1 13 16
M  V30 16 1 14 17
M  V30 17 2 15 18
M  V30 18 1 16 19
M  V30 19 2 16 20
M  V30 20 2 12 13
M  V30 21 2 17 19
M  V30 22 1 18 20
M  V30 23 1 2 21
M  V30 24 1 5 22
M  V30 25 1 5 23
M  V30 26 1 5 24
M  V30 27 1 6 25
M  V30 28 1 6 26
M  V30 29 1 6 27
M  V30 30 1 7 28
M  V30 31 1 7 29
M  V30 32 1 9 30
M  V30 33 1 9 31
M  V30 34 1 10 32
M  V30 35 1 10 33
M  V30 36 1 14 34
M  V30 37 1 15 35
M  V30 38 1 17 36
M  V30 39 1 18 37
M  V30 40 1 19 38
M  V30 41 1 20 39
M  V30 END BOND
M  V30 END CTAB
M  END
>  <Structure No>
8409

>  <LogS>
-2.48

>  <MMFF94 Energy>
-51.964

$$$$
Compound 8410
Actelion Java MolfileCreator 2.0

  0  0  0  0  0  0              0 V3000
M  V30 BEGIN CTAB
M  V30 COUNTS 31 33 0 0 0
M  V30 BEGIN ATOM
M  V30 1 Cl -5.026 1.7812 -0.1618 0
M  V30 2 C -3.3121 1.5069 0.1458 0
M  V30 3 C -2.7391 0.2154 0.1371 0
M  V30 4 C -2.5129 2.6217 0.4119 0
M  V30 5 C -1.3484 0.0663 0.3932 0
M  V30 6 C -3.5166 -0.9311 -0.1136 0
M  V30 7 C -1.15 2.4751 0.6635 0
M  V30 8 C -0.5546 1.208 0.6417 0
M  V30 9 C -0.7677 -1.222 0.387 0
M  V30 10 C -2.9336 -2.1983 -0.103 0
M  V30 11 C 0.9163 1.0805 0.9448 0
M  V30 12 C -1.5715 -2.3455 0.1524 0
M  V30 13 C 0.6925 -1.4122 0.7036 0
M  V30 14 N 1.4426 -0.1837 0.4236 0
M  V30 15 C 2.8149 -0.2644 -0.0068 0
M  V30 16 N 3.1147 -0.9574 -1.0728 0 CHG=1
M  V30 17 N 3.818 0.4619 0.7177 0
M  V30 18 O 4.4065 -1.1795 -1.5089 0
M  V30 19 H -2.9511 3.6118 0.427 0
M  V30 20 H -4.5774 -0.8609 -0.3132 0
M  V30 21 H -0.5548 3.3552 0.8742 0
M  V30 22 H -3.5434 -3.0731 -0.2892 0
M  V30 23 H 1.461 1.9343 0.4838 0
M  V30 24 H 1.0648 1.1167 2.0452 0
M  V30 25 H -1.1413 -3.3393 0.1674 0
M  V30 26 H 0.7973 -1.6644 1.7806 0
M  V30 27 H 1.0953 -2.2633 0.1135 0
M  V30 28 H 2.3458 -1.3839 -1.6361 0
M  V30 29 H 3.5966 0.8592 1.6572 0
M  V30 30 H 4.7369 0.7194 0.2986 0
M  V30 31 H 5.2233 -0.9475 -0.96 0
M  V30 END ATOM
M  V30 BEGIN BOND
M  V30 1 1 1 2
M  V30 2 1 2 3
M  V30 3 2 2 4
M  V30 4 1 3 5
M  V30 5 2 3 6
M  V30 6 1 4 7
M  V30 7 1 5 8
M  V30 8 2 5 9
M  V30 9 1 6 10
M  V30 10 1 8 11
M  V30 11 1 9 12
M  V30 12 1 9 13
M  V30 13 1 11 14
M  V30 14 1 14 15
M  V30 15 2 15 16
M  V30 16 1 15 17
M  V30 17 1 16 18
M  V30 18 2 7 8
M  V30 19 2 10 12
M  V30 20 1 13 14
M  V30 21 1 4 19
M  V30 22 1 6 20
M  V30 23 1 7 21
M  V30 24 1 10 22
M  V30 25 1 11 23
M  V30 26 1 11 24
M  V30 27 1 12 25
M  V30 28 1 13 26
M  V30 29 1 13 27
M  V30 30 1 16 28
M  V30 31 1 17 29
M  V30 32 1 17 30
M  V30 33 1 18 31
M  V30 END BOND
M  V30 END CTAB
M  END
>  <Structure No>
8410

>  <LogS>
-2.0

>  <MMFF94 Energy>
-56.6

$$$$
Compound 8411
Actelion Java MolfileCreator 2.0

  0  0  0  0  0  0              0 V3000
M  V30 BEGIN CTAB
M  V30 COUNTS 39 41 0 0 0
M  V30 BEGIN ATOM
M  V30 1 O -4.0739 1.117 0.0797 0
M  V30 2 C -2.6797 1.1179 0.2569 0
M  V30 3 C -4.902 2.2721 0.1676 0
M  V30 4 C -1.9767 -0.0994 0.1416 0
M  V30 5 C -1.974 2.2999 0.546 0
M  V30 6 C -0.5642 -0.1074 0.26 0
M  V30 7 C -2.7376 -1.3635 -0.201 0
M  V30 8 C -0.5899 2.2773 0.7062 0
M  V30 9 C 0.1219 1.0825 0.5541 0
M  V30 10 C 0.2398 -1.386 0.1795 0 CFG=2
M  V30 11 C -1.9407 -2.6352 0.0981 0
M  V30 12 C 1.6096 1.0535 0.8035 0
M  V30 13 C 1.5593 -1.1241 -0.5656 0
M  V30 14 C -0.5378 -2.53 -0.4933 0
M  V30 15 N 2.2931 0.0224 0.0012 0
M  V30 16 C 3.721 0.131 -0.2044 0
M  V30 17 N 4.2573 -0.2995 -1.3173 0 CHG=1
M  V30 18 N 4.5288 0.7486 0.8092 0
M  V30 19 O 5.619 -0.3374 -1.5475 0
M  V30 20 H -4.8317 2.7161 1.1831 0
M  V30 21 H -5.955 1.9777 -0.0185 0
M  V30 22 H -4.6007 3.0173 -0.5985 0
M  V30 23 H -2.4883 3.2446 0.6562 0
M  V30 24 H -2.995 -1.3387 -1.2822 0
M  V30 25 H -3.6863 -1.4066 0.3767 0
M  V30 26 H -0.0715 3.1962 0.9519 0
M  V30 27 H 0.4826 -1.6974 1.2204 0
M  V30 28 H -1.877 -2.7912 1.1978 0
M  V30 29 H -2.4651 -3.5097 -0.3438 0
M  V30 30 H 1.7821 0.8547 1.8824 0
M  V30 31 H 2.039 2.05 0.5567 0
M  V30 32 H 2.188 -2.0395 -0.4963 0
M  V30 33 H 1.3497 -0.9209 -1.6388 0
M  V30 34 H 0.0 -3.4894 -0.3313 0
M  V30 35 H -0.6147 -2.3593 -1.5905 0
M  V30 36 H 3.6469 -0.6512 -2.0867 0
M  V30 37 H 4.1591 0.8733 1.7769 0
M  V30 38 H 5.448 1.1911 0.5947 0
M  V30 39 H 6.3071 -0.1774 -0.8239 0
M  V30 END ATOM
M  V30 BEGIN BOND
M  V30 1 1 1 2
M  V30 2 1 1 3
M  V30 3 2 2 4
M  V30 4 1 2 5
M  V30 5 1 4 6
M  V30 6 1 4 7
M  V30 7 2 5 8
M  V30 8 2 6 9
M  V30 9 1 6 10
M  V30 10 1 7 11
M  V30 11 1 9 12
M  V30 12 1 10 13
M  V30 13 1 10 14
M  V30 14 1 12 15
M  V30 15 1 15 16
M  V30 16 2 16 17
M  V30 17 1 16 18
M  V30 18 1 17 19
M  V30 19 1 8 9
M  V30 20 1 11 14
M  V30 21 1 13 15
M  V30 22 1 3 20
M  V30 23 1 3 21
M  V30 24 1 3 22
M  V30 25 1 5 23
M  V30 26 1 7 24
M  V30 27 1 7 25
M  V30 28 1 8 26
M  V30 29 1 10 27
M  V30 30 1 11 28
M  V30 31 1 11 29
M  V30 32 1 12 30
M  V30 33 1 12 31
M  V30 34 1 13 32
M  V30 35 1 13 33
M  V30 36 1 14 34
M  V30 37 1 14 35
M  V30 38 1 17 36
M  V30 39 1 18 37
M  V30 40 1 18 38
M  V30 41 1 19 39
M  V30 END BOND
M  V30 BEGIN COLLECTION
M  V30 MDLV30/STEABS ATOMS=(1 10)
M  V30 END COLLECTION
M  V30 END CTAB
M  END
>  <Structure No>
8411

>  <LogS>
-1.78

>  <MMFF94 Energy>
-45.661

$$$$
Compound 8412
Actelion Java MolfileCreator 2.0

  0  0  0  0  0  0              0 V3000
M  V30 BEGIN CTAB
M  V30 COUNTS 35 37 0 0 0
M  V30 BEGIN ATOM
M  V30 1 O 4.2241 0.6367 -0.9552 0
M  V30 2 C 2.9885 0.1453 -0.5073 0
M  V30 3 C 4.3786 1.6211 -1.9723 0
M  V30 4 C 2.9889 -0.8225 0.5014 0
M  V30 5 C 1.7637 0.5897 -1.0383 0
M  V30 6 C 1.7852 -1.3556 0.9833 0
M  V30 7 C 0.548 0.082 -0.5562 0
M  V30 8 C 0.552 -0.9056 0.4517 0
M  V30 9 C 1.7956 -2.337 1.9854 0
M  V30 10 C -0.7465 0.5447 -1.1728 0
M  V30 11 C -0.6583 -1.4432 0.9455 0
M  V30 12 C 0.5962 -2.8751 2.4547 0
M  V30 13 N -1.8611 0.3101 -0.2516 0
M  V30 14 C -0.623 -2.4368 1.9352 0
M  V30 15 C -1.9854 -1.0067 0.3801 0
M  V30 16 C -2.8743 1.3171 -0.0745 0
M  V30 17 N -4.13 1.05 -0.2888 0 CHG=1
M  V30 18 N -2.4889 2.633 0.3341 0
M  V30 19 O -4.5326 -0.1836 -0.7493 0
M  V30 20 H 5.4592 1.8216 -2.1212 0
M  V30 21 H 3.8803 2.5659 -1.6684 0
M  V30 22 H 3.9504 1.2528 -2.9283 0
M  V30 23 H 3.936 -1.1619 0.9045 0
M  V30 24 H 1.7463 1.3304 -1.8269 0
M  V30 25 H 2.7311 -2.6921 2.4014 0
M  V30 26 H -0.9236 -0.0254 -2.1094 0
M  V30 27 H -0.6764 1.6231 -1.4357 0
M  V30 28 H 0.6117 -3.6376 3.2227 0
M  V30 29 H -1.5429 -2.8714 2.3068 0
M  V30 30 H -2.3167 -1.7489 -0.3768 0
M  V30 31 H -2.7405 -0.9687 1.1966 0
M  V30 32 H -4.8539 1.7902 -0.1452 0
M  V30 33 H -3.1979 3.3915 0.4454 0
M  V30 34 H -1.4908 2.8457 0.5544 0
M  V30 35 H -5.5123 -0.3698 -0.925 0
M  V30 END ATOM
M  V30 BEGIN BOND
M  V30 1 1 1 2
M  V30 2 1 1 3
M  V30 3 2 2 4
M  V30 4 1 2 5
M  V30 5 1 4 6
M  V30 6 2 5 7
M  V30 7 1 6 8
M  V30 8 2 6 9
M  V30 9 1 7 10
M  V30 10 2 8 11
M  V30 11 1 9 12
M  V30 12 1 10 13
M  V30 13 1 11 14
M  V30 14 1 11 15
M  V30 15 1 13 16
M  V30 16 2 16 17
M  V30 17 1 16 18
M  V30 18 1 17 19
M  V30 19 1 7 8
M  V30 20 2 12 14
M  V30 21 1 13 15
M  V30 22 1 3 20
M  V30 23 1 3 21
M  V30 24 1 3 22
M  V30 25 1 4 23
M  V30 26 1 5 24
M  V30 27 1 9 25
M  V30 28 1 10 26
M  V30 29 1 10 27
M  V30 30 1 12 28
M  V30 31 1 14 29
M  V30 32 1 15 30
M  V30 33 1 15 31
M  V30 34 1 17 32
M  V30 35 1 18 33
M  V30 36 1 18 34
M  V30 37 1 19 35
M  V30 END BOND
M  V30 END CTAB
M  END
>  <Structure No>
8412

>  <LogS>
-1.21

>  <MMFF94 Energy>
-54.348

$$$$
Compound 8413
Actelion Java MolfileCreator 2.0

  0  0  0  0  0  0              0 V3000
M  V30 BEGIN CTAB
M  V30 COUNTS 50 52 0 0 0
M  V30 BEGIN ATOM
M  V30 1 Cl -2.8428 -1.8674 -2.9241 0
M  V30 2 C -3.3136 -1.2165 -1.3619 0
M  V30 3 C -4.6691 -1.1396 -0.9803 0
M  V30 4 C -2.3431 -0.7606 -0.4731 0
M  V30 5 O -5.6446 -1.6 -1.8785 0
M  V30 6 C -5.009 -0.6026 0.2915 0
M  V30 7 O -0.9666 -0.7518 -0.6748 0
M  V30 8 C -2.6793 -0.2458 0.7484 0
M  V30 9 C -7.0459 -1.5826 -1.6265 0
M  V30 10 C -4.0028 -0.1455 1.1748 0
M  V30 11 C -0.2944 -0.1983 0.4655 0 CFG=1
M  V30 12 C -1.4386 0.1295 1.3959 0
M  V30 13 O -4.2819 0.3946 2.4387 0
M  V30 14 C 0.6129 -1.246 1.0662 0
M  V30 15 C 0.5116 1.0696 0.0743 0 CFG=1
M  V30 16 O -1.3343 0.6431 2.5419 0
M  V30 17 C -5.5924 0.5452 2.9739 0
M  V30 18 O 0.1362 -2.1617 1.7902 0
M  V30 19 C 2.0514 -1.2569 0.7532 0
M  V30 20 C 1.7474 0.6852 -0.7644 0
M  V30 21 C -0.3407 2.1019 -0.6841 0
M  V30 22 C 2.6022 -0.3633 -0.0768 0
M  V30 23 O 3.9756 -0.4749 -0.336 0
M  V30 24 C 4.6939 0.3628 -1.2383 0
M  V30 25 C 6.1406 -0.1213 -1.3682 0
M  V30 26 C 6.9004 -0.1458 -0.0314 0
M  V30 27 C 7.1633 1.2524 0.5268 0
M  V30 28 H -6.0453 -0.541 0.5884 0
M  V30 29 H -7.3929 -0.5395 -1.4688 0
M  V30 30 H -7.577 -2.0043 -2.5042 0
M  V30 31 H -7.2817 -2.2037 -0.7366 0
M  V30 32 H 0.8748 1.5569 1.0081 0
M  V30 33 H -6.0853 -0.4459 3.0609 0
M  V30 34 H -6.1947 1.2163 2.3256 0
M  V30 35 H -5.5216 0.997 3.9845 0
M  V30 36 H 2.6773 -2.0156 1.2076 0
M  V30 37 H 2.3444 1.6037 -0.9417 0
M  V30 38 H 1.4287 0.2856 -1.7516 0
M  V30 39 H 0.2678 3.0024 -0.914 0
M  V30 40 H -0.7204 1.679 -1.6385 0
M  V30 41 H -1.2039 2.4264 -0.0657 0
M  V30 42 H 4.6752 1.4138 -0.8816 0
M  V30 43 H 4.2158 0.3226 -2.241 0
M  V30 44 H 6.1301 -1.1511 -1.7868 0
M  V30 45 H 6.6801 0.5259 -2.0937 0
M  V30 46 H 6.3441 -0.7476 0.7193 0
M  V30 47 H 7.8802 -0.6439 -0.1967 0
M  V30 48 H 7.6652 1.8874 -0.2338 0
M  V30 49 H 7.8249 1.1762 1.4152 0
M  V30 50 H 6.215 1.7332 0.8445 0
M  V30 END ATOM
M  V30 BEGIN BOND
M  V30 1 1 1 2
M  V30 2 2 2 3
M  V30 3 1 2 4
M  V30 4 1 3 5
M  V30 5 1 3 6
M  V30 6 1 4 7
M  V30 7 2 4 8
M  V30 8 1 5 9
M  V30 9 2 6 10
M  V30 10 1 7 11
M  V30 11 1 8 12
M  V30 12 1 10 13
M  V30 13 1 11 14
M  V30 14 1 11 15
M  V30 15 2 12 16
M  V30 16 1 13 17
M  V30 17 2 14 18
M  V30 18 1 14 19
M  V30 19 1 15 20
M  V30 20 1 15 21
M  V30 21 2 19 22
M  V30 22 1 22 23
M  V30 23 1 23 24
M  V30 24 1 24 25
M  V30 25 1 25 26
M  V30 26 1 26 27
M  V30 27 1 8 10
M  V30 28 1 11 12
M  V30 29 1 20 22
M  V30 30 1 6 28
M  V30 31 1 9 29
M  V30 32 1 9 30
M  V30 33 1 9 31
M  V30 34 1 15 32
M  V30 35 1 17 33
M  V30 36 1 17 34
M  V30 37 1 17 35
M  V30 38 1 19 36
M  V30 39 1 20 37
M  V30 40 1 20 38
M  V30 41 1 21 39
M  V30 42 1 21 40
M  V30 43 1 21 41
M  V30 44 1 24 42
M  V30 45 1 24 43
M  V30 46 1 25 44
M  V30 47 1 25 45
M  V30 48 1 26 46
M  V30 49 1 26 47
M  V30 50 1 27 48
M  V30 51 1 27 49
M  V30 52 1 27 50
M  V30 END BOND
M  V30 BEGIN COLLECTION
M  V30 MDLV30/STEABS ATOMS=(2 11 15)
M  V30 END COLLECTION
M  V30 END CTAB
M  END
>  <Structure No>
8413

>  <LogS>
-5.4

>  <MMFF94 Energy>
93.876

$$$$
Compound 8414
Actelion Java MolfileCreator 2.0

  0  0  0  0  0  0              0 V3000
M  V30 BEGIN CTAB
M  V30 COUNTS 42 45 0 0 0
M  V30 BEGIN ATOM
M  V30 1 N 1.3545 2.2317 0.0 0 CHG=1
M  V30 2 C 0.7903 1.0708 -0.1688 0
M  V30 3 N -0.5695 0.8473 0.2559 0
M  V30 4 N 1.4935 0.0152 -0.8455 0
M  V30 5 C -1.5524 1.9378 0.2414 0
M  V30 6 C -0.8989 -0.3832 0.9834 0
M  V30 7 C 2.9043 -0.2322 -0.719 0
M  V30 8 C -2.9335 1.4122 -0.0556 0
M  V30 9 C -2.2863 -0.8527 0.6348 0
M  V30 10 C 3.6068 0.1141 0.4493 0
M  V30 11 C 3.5838 -0.8891 -1.7554 0
M  V30 12 C -3.2573 0.0553 0.1612 0
M  V30 13 C -3.9246 2.2972 -0.5069 0
M  V30 14 C -2.6381 -2.1933 0.8531 0
M  V30 15 C 4.9729 -0.162 0.56 0
M  V30 16 C 4.95 -1.1644 -1.6441 0
M  V30 17 C -4.5718 -0.4032 -0.1093 0
M  V30 18 C -5.2168 1.8393 -0.7707 0
M  V30 19 C -3.9324 -2.6393 0.5791 0
M  V30 20 C 5.6517 -0.799 -0.4874 0
M  V30 21 C -5.5411 0.4957 -0.5773 0
M  V30 22 C -4.8963 -1.7515 0.0988 0
M  V30 23 N 7.0488 -1.0817 -0.3733 0
M  V30 24 H 2.3131 2.425 -0.3652 0
M  V30 25 H 0.8692 3.0064 0.5038 0
M  V30 26 H 0.9313 -0.6273 -1.4483 0
M  V30 27 H -1.5591 2.4412 1.2318 0
M  V30 28 H -1.2786 2.6833 -0.5375 0
M  V30 29 H -0.8498 -0.1835 2.0751 0
M  V30 30 H -0.1668 -1.1861 0.7488 0
M  V30 31 H 3.0979 0.5818 1.282 0
M  V30 32 H 3.0547 -1.1802 -2.654 0
M  V30 33 H -3.6943 3.3448 -0.6579 0
M  V30 34 H -1.9079 -2.8948 1.2374 0
M  V30 35 H 5.5003 0.1137 1.4644 0
M  V30 36 H 5.4605 -1.664 -2.4578 0
M  V30 37 H -5.9714 2.53 -1.1248 0
M  V30 38 H -4.1911 -3.6771 0.7456 0
M  V30 39 H -6.5499 0.1607 -0.7872 0
M  V30 40 H -5.8961 -2.1168 -0.1036 0
M  V30 41 H 7.5797 -0.8155 0.4858 0
M  V30 42 H 7.5627 -1.5585 -1.1474 0
M  V30 END ATOM
M  V30 BEGIN BOND
M  V30 1 2 1 2
M  V30 2 1 2 3
M  V30 3 1 2 4
M  V30 4 1 3 5
M  V30 5 1 3 6
M  V30 6 1 4 7
M  V30 7 1 5 8
M  V30 8 1 6 9
M  V30 9 2 7 10
M  V30 10 1 7 11
M  V30 11 1 8 12
M  V30 12 2 8 13
M  V30 13 1 9 14
M  V30 14 1 10 15
M  V30 15 2 11 16
M  V30 16 1 12 17
M  V30 17 1 13 18
M  V30 18 2 14 19
M  V30 19 2 15 20
M  V30 20 1 17 21
M  V30 21 2 17 22
M  V30 22 1 20 23
M  V30 23 2 9 12
M  V30 24 1 16 20
M  V30 25 2 18 21
M  V30 26 1 19 22
M  V30 27 1 1 24
M  V30 28 1 1 25
M  V30 29 1 4 26
M  V30 30 1 5 27
M  V30 31 1 5 28
M  V30 32 1 6 29
M  V30 33 1 6 30
M  V30 34 1 10 31
M  V30 35 1 11 32
M  V30 36 1 13 33
M  V30 37 1 14 34
M  V30 38 1 15 35
M  V30 39 1 16 36
M  V30 40 1 18 37
M  V30 41 1 19 38
M  V30 42 1 21 39
M  V30 43 1 22 40
M  V30 44 1 23 41
M  V30 45 1 23 42
M  V30 END BOND
M  V30 END CTAB
M  END
>  <Structure No>
8414

>  <LogS>
-1.83

>  <MMFF94 Energy>
-114.73

$$$$
Compound 8415
Actelion Java MolfileCreator 2.0

  0  0  0  0  0  0              0 V3000
M  V30 BEGIN CTAB
M  V30 COUNTS 38 39 0 0 0
M  V30 BEGIN ATOM
M  V30 1 S 6.3655 -1.3202 -1.6505 0
M  V30 2 O 6.1402 -1.1295 -3.1242 0
M  V30 3 O 6.8748 -2.7125 -1.4061 0
M  V30 4 N 7.5319 -0.1667 -1.1042 0
M  V30 5 C 4.8555 -1.0911 -0.7877 0
M  V30 6 S 4.69 -1.1294 0.8815 0
M  V30 7 C 3.6143 -0.865 -1.3627 0
M  V30 8 C 3.0313 -0.8513 0.9018 0
M  V30 9 C 2.5872 -0.7183 -0.415 0
M  V30 10 C 1.1726 -0.5041 -0.794 0
M  V30 11 O 0.7928 -0.8515 -1.9454 0
M  V30 12 C 0.1849 0.0959 0.1333 0
M  V30 13 C -1.1473 -0.3495 0.1215 0
M  V30 14 C 0.5469 1.1449 0.9945 0
M  V30 15 C -2.1043 0.2186 0.9796 0
M  V30 16 C -0.3992 1.7181 1.8463 0
M  V30 17 C -1.7202 1.2621 1.8441 0
M  V30 18 C -3.5333 -0.2816 0.9345 0
M  V30 19 O -2.6435 1.8569 2.6977 0 CHG=-1
M  V30 20 N -4.2595 0.2227 -0.2545 0 CHG=1
M  V30 21 C -5.5445 -0.484 -0.3959 0
M  V30 22 C -4.4996 1.6752 -0.1634 0
M  V30 23 H 7.6676 -0.3284 -0.081 0
M  V30 24 H 7.0976 0.7782 -1.2048 0
M  V30 25 H 3.4576 -0.806 -2.432 0
M  V30 26 H 2.4176 -0.8108 1.7916 0
M  V30 27 H -1.4412 -1.1489 -0.549 0
M  V30 28 H 1.5566 1.5356 0.9957 0
M  V30 29 H -0.1074 2.527 2.504 0
M  V30 30 H -3.4962 -1.3947 0.9135 0
M  V30 31 H -4.0786 -0.0145 1.8677 0
M  V30 32 H -3.6946 0.032 -1.1161 0
M  V30 33 H -6.1909 -0.3215 0.4957 0
M  V30 34 H -5.3761 -1.5761 -0.5214 0
M  V30 35 H -6.0875 -0.1303 -1.3002 0
M  V30 36 H -5.0642 1.9315 0.7606 0
M  V30 37 H -3.5381 2.2319 -0.1642 0
M  V30 38 H -5.078 2.0315 -1.0439 0
M  V30 END ATOM
M  V30 BEGIN BOND
M  V30 1 2 1 2
M  V30 2 2 1 3
M  V30 3 1 1 4
M  V30 4 1 1 5
M  V30 5 1 5 6
M  V30 6 2 5 7
M  V30 7 1 6 8
M  V30 8 1 7 9
M  V30 9 1 9 10
M  V30 10 2 10 11
M  V30 11 1 10 12
M  V30 12 2 12 13
M  V30 13 1 12 14
M  V30 14 1 13 15
M  V30 15 2 14 16
M  V30 16 2 15 17
M  V30 17 1 15 18
M  V30 18 1 17 19
M  V30 19 1 18 20
M  V30 20 1 20 21
M  V30 21 1 20 22
M  V30 22 2 8 9
M  V30 23 1 16 17
M  V30 24 1 4 23
M  V30 25 1 4 24
M  V30 26 1 7 25
M  V30 27 1 8 26
M  V30 28 1 13 27
M  V30 29 1 14 28
M  V30 30 1 16 29
M  V30 31 1 18 30
M  V30 32 1 18 31
M  V30 33 1 20 32
M  V30 34 1 21 33
M  V30 35 1 21 34
M  V30 36 1 21 35
M  V30 37 1 22 36
M  V30 38 1 22 37
M  V30 39 1 22 38
M  V30 END BOND
M  V30 END CTAB
M  END
>  <Structure No>
8415

>  <LogS>
-1.54

>  <MMFF94 Energy>
-118.36

$$$$
Compound 8416
Actelion Java MolfileCreator 2.0

  0  0  0  0  0  0              0 V3000
M  V30 BEGIN CTAB
M  V30 COUNTS 44 45 0 0 0
M  V30 BEGIN ATOM
M  V30 1 S 6.4574 -0.0815 1.4685 0
M  V30 2 O 7.8383 0.4286 1.1645 0
M  V30 3 O 6.5351 -1.1083 2.5639 0
M  V30 4 N 5.4715 1.2466 1.9756 0
M  V30 5 C 5.7753 -0.8083 0.0246 0
M  V30 6 S 6.662 -1.3619 -1.2903 0
M  V30 7 C 4.4267 -1.008 -0.2211 0
M  V30 8 C 5.3392 -1.8636 -2.1997 0
M  V30 9 C 4.1766 -1.5818 -1.4826 0
M  V30 10 C 2.8261 -1.8998 -2.0006 0
M  V30 11 O 2.7032 -2.8614 -2.8069 0
M  V30 12 C 1.6179 -1.1272 -1.6088 0
M  V30 13 C 1.7012 0.237 -1.2683 0
M  V30 14 C 0.3543 -1.7454 -1.6339 0
M  V30 15 C 0.5523 0.9525 -0.9184 0
M  V30 16 C -0.7959 -1.0248 -1.2991 0
M  V30 17 C -0.705 0.3276 -0.9348 0
M  V30 18 C -1.9466 1.0916 -0.5482 0
M  V30 19 N -2.4157 0.682 0.7864 0 CHG=1
M  V30 20 C -3.6696 1.3666 1.1771 0
M  V30 21 C -4.934 0.4822 0.9981 0
M  V30 22 C -6.1543 1.182 1.6146 0
M  V30 23 C -5.215 0.1568 -0.4763 0
M  V30 24 H 5.8816 1.6076 2.868 0
M  V30 25 H 4.5319 0.8591 2.2132 0
M  V30 26 H 3.652 -0.7539 0.4919 0
M  V30 27 H 5.3874 -2.3112 -3.1846 0
M  V30 28 H 2.6496 0.7592 -1.291 0
M  V30 29 H 0.2568 -2.7905 -1.9051 0
M  V30 30 H 0.6441 1.9978 -0.6482 0
M  V30 31 H -1.7593 -1.5221 -1.3221 0
M  V30 32 H -1.7362 2.1841 -0.5517 0
M  V30 33 H -2.7243 0.9126 -1.3193 0
M  V30 34 H -2.5287 -0.3591 0.8377 0
M  V30 35 H -1.6724 0.9511 1.4704 0
M  V30 36 H -3.5987 1.635 2.2597 0
M  V30 37 H -3.7964 2.3345 0.6315 0
M  V30 38 H -4.7863 -0.4761 1.5448 0
M  V30 39 H -7.0595 0.5444 1.5136 0
M  V30 40 H -5.9845 1.3643 2.6989 0
M  V30 41 H -6.3429 2.1564 1.1117 0
M  V30 42 H -5.2341 1.0891 -1.085 0
M  V30 43 H -6.1983 -0.3604 -0.5815 0
M  V30 44 H -4.4391 -0.5343 -0.8695 0
M  V30 END ATOM
M  V30 BEGIN BOND
M  V30 1 2 1 2
M  V30 2 2 1 3
M  V30 3 1 1 4
M  V30 4 1 1 5
M  V30 5 1 5 6
M  V30 6 2 5 7
M  V30 7 1 6 8
M  V30 8 1 7 9
M  V30 9 1 9 10
M  V30 10 2 10 11
M  V30 11 1 10 12
M  V30 12 2 12 13
M  V30 13 1 12 14
M  V30 14 1 13 15
M  V30 15 2 14 16
M  V30 16 2 15 17
M  V30 17 1 17 18
M  V30 18 1 18 19
M  V30 19 1 19 20
M  V30 20 1 20 21
M  V30 21 1 21 22
M  V30 22 1 21 23
M  V30 23 2 8 9
M  V30 24 1 16 17
M  V30 25 1 4 24
M  V30 26 1 4 25
M  V30 27 1 7 26
M  V30 28 1 8 27
M  V30 29 1 13 28
M  V30 30 1 14 29
M  V30 31 1 15 30
M  V30 32 1 16 31
M  V30 33 1 18 32
M  V30 34 1 18 33
M  V30 35 1 19 34
M  V30 36 1 19 35
M  V30 37 1 20 36
M  V30 38 1 20 37
M  V30 39 1 21 38
M  V30 40 1 22 39
M  V30 41 1 22 40
M  V30 42 1 22 41
M  V30 43 1 23 42
M  V30 44 1 23 43
M  V30 45 1 23 44
M  V30 END BOND
M  V30 END CTAB
M  END
>  <Structure No>
8416

>  <LogS>
-2.05

>  <MMFF94 Energy>
-2.7355

$$$$
Compound 8417
Actelion Java MolfileCreator 2.0

  0  0  0  0  0  0              0 V3000
M  V30 BEGIN CTAB
M  V30 COUNTS 20 20 0 0 0
M  V30 BEGIN ATOM
M  V30 1 O 4.1553 -1.6765 0.0 0
M  V30 2 N 3.7515 -0.5026 0.1335 0 CHG=1
M  V30 3 O 4.6776 0.5026 0.2937 0 CHG=-1
M  V30 4 C 2.3432 -0.2044 0.1221 0
M  V30 5 C 1.3937 -1.2276 -0.0446 0
M  V30 6 C 1.8951 1.1181 0.2726 0
M  V30 7 C 0.0266 -0.9352 -0.0547 0
M  V30 8 C 0.5283 1.411 0.2615 0
M  V30 9 C -0.4222 0.3873 0.1078 0
M  V30 10 C -1.869 0.715 0.093 0
M  V30 11 O -2.2372 1.8835 -0.2074 0
M  V30 12 N -2.8596 -0.2655 0.4304 0
M  V30 13 N -4.2258 0.0301 0.2965 0
M  V30 14 H 1.708 -2.2553 -0.1739 0
M  V30 15 H 2.6009 1.9287 0.3996 0
M  V30 16 H -0.6713 -1.7456 -0.2147 0
M  V30 17 H 0.2144 2.4403 0.3844 0
M  V30 18 H -2.574 -1.1725 0.8635 0
M  V30 19 H -4.7662 -0.7802 0.6768 0
M  V30 20 H -4.4328 0.0726 -0.7272 0
M  V30 END ATOM
M  V30 BEGIN BOND
M  V30 1 2 1 2
M  V30 2 1 2 3
M  V30 3 1 2 4
M  V30 4 2 4 5
M  V30 5 1 4 6
M  V30 6 1 5 7
M  V30 7 2 6 8
M  V30 8 2 7 9
M  V30 9 1 9 10
M  V30 10 2 10 11
M  V30 11 1 10 12
M  V30 12 1 12 13
M  V30 13 1 8 9
M  V30 14 1 5 14
M  V30 15 1 6 15
M  V30 16 1 7 16
M  V30 17 1 8 17
M  V30 18 1 12 18
M  V30 19 1 13 19
M  V30 20 1 13 20
M  V30 END BOND
M  V30 END CTAB
M  END
>  <Structure No>
8417

>  <LogS>
-2.16

>  <MMFF94 Energy>
109.58

$$$$
Compound 8418
Actelion Java MolfileCreator 2.0

  0  0  0  0  0  0              0 V3000
M  V30 BEGIN CTAB
M  V30 COUNTS 45 47 0 0 0
M  V30 BEGIN ATOM
M  V30 1 S 7.5553 1.8028 0.8191 0
M  V30 2 O 8.1765 1.2176 2.0568 0
M  V30 3 O 7.1913 3.2371 1.0872 0
M  V30 4 N 8.6818 1.7209 -0.4903 0
M  V30 5 C 6.1111 0.8986 0.4081 0
M  V30 6 S 5.9006 -0.7466 0.6598 0
M  V30 7 C 4.9798 1.414 -0.2043 0
M  V30 8 C 4.3541 -0.8291 0.0032 0
M  V30 9 C 3.9827 0.4481 -0.4209 0
M  V30 10 C 2.6969 0.7598 -1.085 0
M  V30 11 O 2.6288 1.7745 -1.8309 0
M  V30 12 C 1.4893 -0.0809 -0.9103 0
M  V30 13 C 1.1895 -0.6691 0.3308 0
M  V30 14 C 0.5969 -0.2565 -1.9811 0
M  V30 15 C 0.0374 -1.4447 0.4871 0
M  V30 16 C -0.5549 -1.0325 -1.8242 0
M  V30 17 C -0.8387 -1.6384 -0.5909 0
M  V30 18 C -2.094 -2.459 -0.4108 0
M  V30 19 N -3.1351 -1.7191 0.3233 0 CHG=1
M  V30 20 C -3.7181 -0.637 -0.4867 0
M  V30 21 C -4.8243 0.0498 0.2716 0
M  V30 22 C -6.149 -0.4051 0.1611 0
M  V30 23 C -4.5308 1.1101 1.1453 0
M  V30 24 C -7.1684 0.2107 0.8944 0
M  V30 25 C -5.5527 1.7226 1.8776 0
M  V30 26 C -6.8708 1.2744 1.7512 0
M  V30 27 H 9.496 2.322 -0.2304 0
M  V30 28 H 8.2249 2.1736 -1.3142 0
M  V30 29 H 4.8789 2.456 -0.4813 0
M  V30 30 H 3.7656 -1.7314 -0.0922 0
M  V30 31 H 1.8356 -0.5146 1.1859 0
M  V30 32 H 0.7969 0.1988 -2.9432 0
M  V30 33 H -0.1761 -1.889 1.4515 0
M  V30 34 H -1.2282 -1.156 -2.6634 0
M  V30 35 H -1.8336 -3.3794 0.1578 0
M  V30 36 H -2.4843 -2.8056 -1.3944 0
M  V30 37 H -3.8928 -2.3962 0.5778 0
M  V30 38 H -2.7355 -1.3268 1.2086 0
M  V30 39 H -4.12 -1.044 -1.4421 0
M  V30 40 H -2.9395 0.1133 -0.7482 0
M  V30 41 H -6.3916 -1.2335 -0.4924 0
M  V30 42 H -3.512 1.459 1.2607 0
M  V30 43 H -8.1885 -0.1382 0.8006 0
M  V30 44 H -5.3221 2.5413 2.5469 0
M  V30 45 H -7.6606 1.7487 2.3194 0
M  V30 END ATOM
M  V30 BEGIN BOND
M  V30 1 2 1 2
M  V30 2 2 1 3
M  V30 3 1 1 4
M  V30 4 1 1 5
M  V30 5 1 5 6
M  V30 6 2 5 7
M  V30 7 1 6 8
M  V30 8 1 7 9
M  V30 9 1 9 10
M  V30 10 2 10 11
M  V30 11 1 10 12
M  V30 12 2 12 13
M  V30 13 1 12 14
M  V30 14 1 13 15
M  V30 15 2 14 16
M  V30 16 2 15 17
M  V30 17 1 17 18
M  V30 18 1 18 19
M  V30 19 1 19 20
M  V30 20 1 20 21
M  V30 21 2 21 22
M  V30 22 1 21 23
M  V30 23 1 22 24
M  V30 24 2 23 25
M  V30 25 2 24 26
M  V30 26 2 8 9
M  V30 27 1 16 17
M  V30 28 1 25 26
M  V30 29 1 4 27
M  V30 30 1 4 28
M  V30 31 1 7 29
M  V30 32 1 8 30
M  V30 33 1 13 31
M  V30 34 1 14 32
M  V30 35 1 15 33
M  V30 36 1 16 34
M  V30 37 1 18 35
M  V30 38 1 18 36
M  V30 39 1 19 37
M  V30 40 1 19 38
M  V30 41 1 20 39
M  V30 42 1 20 40
M  V30 43 1 22 41
M  V30 44 1 23 42
M  V30 45 1 24 43
M  V30 46 1 25 44
M  V30 47 1 26 45
M  V30 END BOND
M  V30 END CTAB
M  END
>  <Structure No>
8418

>  <LogS>
-3.37

>  <MMFF94 Energy>
0.44569

$$$$
Compound 8419
Actelion Java MolfileCreator 2.0

  0  0  0  0  0  0              0 V3000
M  V30 BEGIN CTAB
M  V30 COUNTS 36 38 0 0 0
M  V30 BEGIN ATOM
M  V30 1 N -3.0153 -1.11 0.2377 0 CHG=1
M  V30 2 C -2.1685 -0.1122 0.1968 0
M  V30 3 C -4.3904 -1.0081 0.7192 0
M  V30 4 N -0.7941 -0.3492 -0.17 0
M  V30 5 N -2.5542 1.2232 0.5692 0
M  V30 6 C -0.1121 -1.5889 0.2202 0
M  V30 7 C -0.1554 0.519 -1.1646 0
M  V30 8 C -3.663 1.9272 -0.0665 0
M  V30 9 C 1.347 -1.3323 0.4967 0
M  V30 10 C 1.2959 0.7345 -0.8273 0
M  V30 11 C 2.0007 -0.2024 -0.0415 0
M  V30 12 C 2.0771 -2.2581 1.2575 0
M  V30 13 C 1.973 1.8421 -1.36 0
M  V30 14 C 3.38 -0.0011 0.2189 0
M  V30 15 C 3.435 -2.0539 1.5097 0
M  V30 16 C 3.3299 2.037 -1.0953 0
M  V30 17 C 4.0853 -0.9303 0.9972 0
M  V30 18 C 4.0323 1.1225 -0.3088 0
M  V30 19 H -2.6975 -2.0624 -0.0512 0
M  V30 20 H -4.8118 -2.0257 0.8619 0
M  V30 21 H -5.0193 -0.4858 -0.0303 0
M  V30 22 H -4.422 -0.4807 1.6965 0
M  V30 23 H -1.8246 1.8143 1.0282 0
M  V30 24 H -0.202 -2.3328 -0.5999 0
M  V30 25 H -0.5837 -2.0079 1.1367 0
M  V30 26 H -0.2259 0.039 -2.1639 0
M  V30 27 H -0.6735 1.5013 -1.219 0
M  V30 28 H -3.7864 1.5867 -1.1167 0
M  V30 29 H -4.5989 1.7592 0.5034 0
M  V30 30 H -3.459 3.0188 -0.0724 0
M  V30 31 H 1.5919 -3.1393 1.659 0
M  V30 32 H 1.4481 2.5563 -1.9826 0
M  V30 33 H 3.9864 -2.7714 2.1034 0
M  V30 34 H 3.8406 2.8981 -1.5064 0
M  V30 35 H 5.1398 -0.7908 1.204 0
M  V30 36 H 5.0858 1.2902 -0.1185 0
M  V30 END ATOM
M  V30 BEGIN BOND
M  V30 1 2 1 2
M  V30 2 1 1 3
M  V30 3 1 2 4
M  V30 4 1 2 5
M  V30 5 1 4 6
M  V30 6 1 4 7
M  V30 7 1 5 8
M  V30 8 1 6 9
M  V30 9 1 7 10
M  V30 10 1 9 11
M  V30 11 2 9 12
M  V30 12 1 10 13
M  V30 13 1 11 14
M  V30 14 1 12 15
M  V30 15 2 13 16
M  V30 16 1 14 17
M  V30 17 2 14 18
M  V30 18 2 10 11
M  V30 19 2 15 17
M  V30 20 1 16 18
M  V30 21 1 1 19
M  V30 22 1 3 20
M  V30 23 1 3 21
M  V30 24 1 3 22
M  V30 25 1 5 23
M  V30 26 1 6 24
M  V30 27 1 6 25
M  V30 28 1 7 26
M  V30 29 1 7 27
M  V30 30 1 8 28
M  V30 31 1 8 29
M  V30 32 1 8 30
M  V30 33 1 12 31
M  V30 34 1 13 32
M  V30 35 1 15 33
M  V30 36 1 16 34
M  V30 37 1 17 35
M  V30 38 1 18 36
M  V30 END BOND
M  V30 END CTAB
M  END
>  <Structure No>
8419

>  <LogS>
-1.15

>  <MMFF94 Energy>
-104.51

$$$$
Compound 8420
Actelion Java MolfileCreator 2.0

  0  0  0  0  0  0              0 V3000
M  V30 BEGIN CTAB
M  V30 COUNTS 23 24 0 0 0
M  V30 BEGIN ATOM
M  V30 1 F 3.7845 -2.1727 0.3216 0
M  V30 2 C 2.9407 -1.11 0.3052 0
M  V30 3 C 3.3888 0.1643 0.6387 0
M  V30 4 C 1.6034 -1.2779 -0.0439 0
M  V30 5 O 4.5939 0.3477 0.9578 0
M  V30 6 N 2.5215 1.2097 0.6227 0
M  V30 7 N 0.7488 -0.2102 -0.0695 0
M  V30 8 C 1.2143 1.0356 0.2812 0
M  V30 9 C -0.666 -0.4407 -0.428 0 CFG=2
M  V30 10 O 0.4392 2.0311 0.2977 0
M  V30 11 O -1.1261 0.5499 -1.3213 0
M  V30 12 C -1.5532 -0.4498 0.8055 0
M  V30 13 C -2.4215 0.9272 -0.9089 0
M  V30 14 C -2.8482 0.0836 0.2783 0
M  V30 15 H 1.2543 -2.2728 -0.2946 0
M  V30 16 H 2.8629 2.1637 0.882 0
M  V30 17 H -0.7797 -1.4214 -0.9459 0
M  V30 18 H -1.6684 -1.4742 1.2223 0
M  V30 19 H -1.1603 0.2312 1.5923 0
M  V30 20 H -2.406 2.0007 -0.6214 0
M  V30 21 H -3.1339 0.7988 -1.7516 0
M  V30 22 H -3.4934 -0.7558 -0.0638 0
M  V30 23 H -3.3873 0.6858 1.0419 0
M  V30 END ATOM
M  V30 BEGIN BOND
M  V30 1 1 1 2
M  V30 2 1 2 3
M  V30 3 2 2 4
M  V30 4 2 3 5
M  V30 5 1 3 6
M  V30 6 1 4 7
M  V30 7 1 6 8
M  V30 8 1 7 9
M  V30 9 2 8 10
M  V30 10 1 9 11
M  V30 11 1 9 12
M  V30 12 1 11 13
M  V30 13 1 12 14
M  V30 14 1 7 8
M  V30 15 1 13 14
M  V30 16 1 4 15
M  V30 17 1 6 16
M  V30 18 1 9 17
M  V30 19 1 12 18
M  V30 20 1 12 19
M  V30 21 1 13 20
M  V30 22 1 13 21
M  V30 23 1 14 22
M  V30 24 1 14 23
M  V30 END BOND
M  V30 BEGIN COLLECTION
M  V30 MDLV30/STEABS ATOMS=(1 9)
M  V30 END COLLECTION
M  V30 END CTAB
M  END
>  <Structure No>
8420

>  <LogS>
-1.01

>  <MMFF94 Energy>
-70.72

$$$$
Compound 8421
Actelion Java MolfileCreator 2.0

  0  0  0  0  0  0              0 V3000
M  V30 BEGIN CTAB
M  V30 COUNTS 44 46 0 0 0
M  V30 BEGIN ATOM
M  V30 1 Cl -2.3657 -2.6107 1.9575 0
M  V30 2 C -2.06 -1.1057 1.1053 0
M  V30 3 C -3.0313 -0.0845 1.0526 0
M  V30 4 C -0.8389 -0.898 0.4693 0
M  V30 5 O -4.262 -0.2974 1.6936 0
M  V30 6 C -2.7409 1.1227 0.36 0
M  V30 7 O 0.2434 -1.7732 0.4329 0
M  V30 8 C -0.5693 0.2652 -0.1967 0
M  V30 9 C -5.3301 0.6437 1.7225 0
M  V30 10 C -1.4905 1.3081 -0.275 0
M  V30 11 C 1.3036 -1.2313 -0.369 0 CFG=1
M  V30 12 C 0.7772 0.1422 -0.718 0
M  V30 13 O -1.1496 2.4797 -0.9666 0
M  V30 14 C 2.5978 -1.1406 0.4398 0
M  V30 15 C 1.4899 -2.1347 -1.6281 0 CFG=2
M  V30 16 O 1.3959 1.0324 -1.3602 0
M  V30 17 C -2.0086 3.6061 -1.1062 0
M  V30 18 O 2.6041 -0.9432 1.8299 0
M  V30 19 C 3.7888 -1.2722 -0.1603 0
M  V30 20 C 2.6998 -1.6862 -2.4671 0
M  V30 21 C 0.2306 -2.2232 -2.5072 0
M  V30 22 C 1.8538 0.0518 2.5245 0
M  V30 23 C 3.9156 -1.5331 -1.6034 0
M  V30 24 C 2.3996 1.4435 2.2284 0
M  V30 25 O 5.0606 -1.595 -2.1241 0
M  V30 26 H -3.4804 1.9086 0.3184 0
M  V30 27 H -5.0015 1.5793 2.2225 0
M  V30 28 H -6.1766 0.2136 2.2959 0
M  V30 29 H -5.6751 0.8617 0.6896 0
M  V30 30 H 1.7005 -3.1672 -1.2662 0
M  V30 31 H -2.9363 3.3145 -1.6427 0
M  V30 32 H -2.2591 4.0212 -0.107 0
M  V30 33 H -1.4879 4.3882 -1.6958 0
M  V30 34 H 4.6922 -1.1976 0.4334 0
M  V30 35 H 2.9044 -2.4443 -3.2543 0
M  V30 36 H 2.4914 -0.7177 -2.9693 0
M  V30 37 H -0.632 -2.5944 -1.915 0
M  V30 38 H -0.0263 -1.2326 -2.939 0
M  V30 39 H 0.4008 -2.9358 -3.3422 0
M  V30 40 H 1.9507 -0.1378 3.6141 0
M  V30 41 H 0.7795 -7.0E-4 2.28 0
M  V30 42 H 1.8338 2.1989 2.8133 0
M  V30 43 H 3.4721 1.4972 2.5114 0
M  V30 44 H 2.2979 1.6797 1.1501 0
M  V30 END ATOM
M  V30 BEGIN BOND
M  V30 1 1 1 2
M  V30 2 2 2 3
M  V30 3 1 2 4
M  V30 4 1 3 5
M  V30 5 1 3 6
M  V30 6 1 4 7
M  V30 7 2 4 8
M  V30 8 1 5 9
M  V30 9 2 6 10
M  V30 10 1 7 11
M  V30 11 1 8 12
M  V30 12 1 10 13
M  V30 13 1 11 14
M  V30 14 1 11 15
M  V30 15 2 12 16
M  V30 16 1 13 17
M  V30 17 1 14 18
M  V30 18 2 14 19
M  V30 19 1 15 20
M  V30 20 1 15 21
M  V30 21 1 18 22
M  V30 22 1 19 23
M  V30 23 1 22 24
M  V30 24 2 23 25
M  V30 25 1 8 10
M  V30 26 1 11 12
M  V30 27 1 20 23
M  V30 28 1 6 26
M  V30 29 1 9 27
M  V30 30 1 9 28
M  V30 31 1 9 29
M  V30 32 1 15 30
M  V30 33 1 17 31
M  V30 34 1 17 32
M  V30 35 1 17 33
M  V30 36 1 19 34
M  V30 37 1 20 35
M  V30 38 1 20 36
M  V30 39 1 21 37
M  V30 40 1 21 38
M  V30 41 1 21 39
M  V30 42 1 22 40
M  V30 43 1 22 41
M  V30 44 1 24 42
M  V30 45 1 24 43
M  V30 46 1 24 44
M  V30 END BOND
M  V30 BEGIN COLLECTION
M  V30 MDLV30/STEABS ATOMS=(2 11 15)
M  V30 END COLLECTION
M  V30 END CTAB
M  END
>  <Structure No>
8421

>  <LogS>
-5.0

>  <MMFF94 Energy>
102.55

$$$$
Compound 8422
Actelion Java MolfileCreator 2.0

  0  0  0  0  0  0              0 V3000
M  V30 BEGIN CTAB
M  V30 COUNTS 31 33 0 0 0
M  V30 BEGIN ATOM
M  V30 1 S 1.248 1.581 -0.8319 0
M  V30 2 O 1.2777 1.8585 -2.308 0
M  V30 3 O 1.0586 2.8286 -0.0163 0
M  V30 4 N 0.0763 0.3775 -0.4341 0
M  V30 5 C 2.6134 0.6409 -0.3031 0
M  V30 6 C 0.7538 -0.7641 0.1089 0
M  V30 7 C -1.3673 0.5411 -0.6239 0 CFG=1
M  V30 8 C 2.2107 -0.5955 0.179 0
M  V30 9 C 3.9574 1.0094 -0.3295 0
M  V30 10 O 0.1533 -1.8088 0.477 0
M  V30 11 C -1.9249 -0.5627 -1.488 0
M  V30 12 C -2.0763 0.6168 0.7385 0
M  V30 13 C 3.149 -1.5143 0.6554 0
M  V30 14 C 4.9108 0.096 0.1467 0
M  V30 15 O -1.2552 -0.9884 -2.4671 0
M  V30 16 N -3.2529 -1.0604 -1.2736 0
M  V30 17 C -3.5952 0.5539 0.5679 0
M  V30 18 C 4.5081 -1.1608 0.6373 0
M  V30 19 C -4.0028 -0.7866 -0.0483 0
M  V30 20 H -1.553 1.4993 -1.1572 0
M  V30 21 H 4.2592 1.9772 -0.7082 0
M  V30 22 H -1.8034 1.5708 1.2397 0
M  V30 23 H -1.7501 -0.2164 1.398 0
M  V30 24 H 2.8383 -2.4802 1.0321 0
M  V30 25 H 5.9603 0.3593 0.1365 0
M  V30 26 H -3.6239 -1.7894 -1.9235 0
M  V30 27 H -3.9375 1.3875 -0.0839 0
M  V30 28 H -4.0846 0.6661 1.5594 0
M  V30 29 H 5.2503 -1.8589 1.0022 0
M  V30 30 H -5.0896 -0.7677 -0.2782 0
M  V30 31 H -3.8168 -1.6051 0.6801 0
M  V30 END ATOM
M  V30 BEGIN BOND
M  V30 1 2 1 2
M  V30 2 2 1 3
M  V30 3 1 1 4
M  V30 4 1 1 5
M  V30 5 1 4 6
M  V30 6 1 4 7
M  V30 7 2 5 8
M  V30 8 1 5 9
M  V30 9 2 6 10
M  V30 10 1 7 11
M  V30 11 1 7 12
M  V30 12 1 8 13
M  V30 13 2 9 14
M  V30 14 2 11 15
M  V30 15 1 11 16
M  V30 16 1 12 17
M  V30 17 2 13 18
M  V30 18 1 16 19
M  V30 19 1 6 8
M  V30 20 1 14 18
M  V30 21 1 17 19
M  V30 22 1 7 20
M  V30 23 1 9 21
M  V30 24 1 12 22
M  V30 25 1 12 23
M  V30 26 1 13 24
M  V30 27 1 14 25
M  V30 28 1 16 26
M  V30 29 1 17 27
M  V30 30 1 17 28
M  V30 31 1 18 29
M  V30 32 1 19 30
M  V30 33 1 19 31
M  V30 END BOND
M  V30 BEGIN COLLECTION
M  V30 MDLV30/STEABS ATOMS=(1 7)
M  V30 END COLLECTION
M  V30 END CTAB
M  END
>  <Structure No>
8422

>  <LogS>
-2.64

>  <MMFF94 Energy>
-72.251

$$$$
Compound 8423
Actelion Java MolfileCreator 2.0

  0  0  0  0  0  0              0 V3000
M  V30 BEGIN CTAB
M  V30 COUNTS 21 22 0 0 0
M  V30 BEGIN ATOM
M  V30 1 O 5.3714 0.975 0.0 0
M  V30 2 C 4.4384 0.3402 0.5574 0
M  V30 3 O 4.7221 -0.4641 1.6555 0 CHG=-1
M  V30 4 C 3.067 0.4588 0.0371 0
M  V30 5 C 2.0356 -0.1778 0.6078 0
M  V30 6 C 0.6363 -0.0789 0.1254 0
M  V30 7 C -0.4071 -0.4215 1.0159 0
M  V30 8 C 0.3114 0.3137 -1.2049 0
M  V30 9 C -1.7191 -0.3383 0.5594 0
M  V30 10 C -1.0299 0.3835 -1.6239 0
M  V30 11 O -2.887 -0.6126 1.2446 0
M  V30 12 C -2.0174 0.049 -0.7047 0
M  V30 13 C -3.9878 -0.3822 0.354 0
M  V30 14 O -3.3879 0.0382 -0.8792 0
M  V30 15 H 2.9143 1.1058 -0.8155 0
M  V30 16 H 2.2129 -0.7702 1.4983 0
M  V30 17 H -0.2044 -0.7351 2.0324 0
M  V30 18 H 1.0817 0.5429 -1.9272 0
M  V30 19 H -1.2857 0.6795 -2.6328 0
M  V30 20 H -4.5599 -1.3212 0.2012 0
M  V30 21 H -4.6431 0.4196 0.7542 0
M  V30 END ATOM
M  V30 BEGIN BOND
M  V30 1 2 1 2
M  V30 2 1 2 3
M  V30 3 1 2 4
M  V30 4 2 4 5
M  V30 5 1 5 6
M  V30 6 2 6 7
M  V30 7 1 6 8
M  V30 8 1 7 9
M  V30 9 2 8 10
M  V30 10 1 9 11
M  V30 11 2 9 12
M  V30 12 1 11 13
M  V30 13 1 12 14
M  V30 14 1 10 12
M  V30 15 1 13 14
M  V30 16 1 4 15
M  V30 17 1 5 16
M  V30 18 1 7 17
M  V30 19 1 8 18
M  V30 20 1 10 19
M  V30 21 1 13 20
M  V30 22 1 13 21
M  V30 END BOND
M  V30 END CTAB
M  END
>  <Structure No>
8423

>  <LogS>
-3.19

>  <MMFF94 Energy>
9.663

$$$$
Compound 8424
Actelion Java MolfileCreator 2.0

  0  0  0  0  0  0              0 V3000
M  V30 BEGIN CTAB
M  V30 COUNTS 39 39 0 0 0
M  V30 BEGIN ATOM
M  V30 1 O 0.6287 -0.7073 -0.0785 0
M  V30 2 C -0.436 -0.3785 0.7731 0
M  V30 3 C 0.5435 -1.6368 -1.1567 0
M  V30 4 C -1.7127 -0.9544 0.6441 0
M  V30 5 C -0.211 0.5605 1.7826 0
M  V30 6 C 1.894 -1.7408 -1.8649 0
M  V30 7 C -2.7502 -0.5943 1.5178 0
M  V30 8 C -1.236 0.9204 2.6598 0
M  V30 9 C 2.2858 -0.4176 -2.5364 0
M  V30 10 O -4.0188 -1.1473 1.3423 0
M  V30 11 C -2.5113 0.3397 2.5494 0
M  V30 12 C 3.6393 -0.5444 -3.2508 0
M  V30 13 C -3.5736 0.7379 3.5069 0
M  V30 14 C 4.0131 0.7217 -4.0367 0
M  V30 15 N -3.6675 1.9865 3.855 0
M  V30 16 C -4.5387 -0.2793 4.0565 0
M  V30 17 C 4.3733 1.8971 -3.1283 0
M  V30 18 O -4.6363 2.4355 4.7242 0
M  V30 19 H 0.27 -2.6385 -0.7599 0
M  V30 20 H -0.235 -1.3097 -1.8804 0
M  V30 21 H -1.9141 -1.6753 -0.1363 0
M  V30 22 H 0.7667 1.0131 1.8898 0
M  V30 23 H 2.6713 -2.0327 -1.125 0
M  V30 24 H 1.8292 -2.5408 -2.6346 0
M  V30 25 H -1.027 1.6437 3.4388 0
M  V30 26 H 2.3473 0.3768 -1.7625 0
M  V30 27 H 1.5031 -0.1349 -3.2745 0
M  V30 28 H -4.2126 -1.8139 0.6042 0
M  V30 29 H 3.588 -1.391 -3.97 0
M  V30 30 H 4.4372 -0.7781 -2.5118 0
M  V30 31 H 3.1793 1.0138 -4.7114 0
M  V30 32 H 4.8949 0.4916 -4.6732 0
M  V30 33 H -4.7282 -0.0922 5.1345 0
M  V30 34 H -4.1225 -1.3049 3.9676 0
M  V30 35 H -5.499 -0.2211 3.5027 0
M  V30 36 H 4.7484 2.7394 -3.747 0
M  V30 37 H 5.1689 1.6048 -2.4105 0
M  V30 38 H 3.4819 2.2505 -2.5698 0
M  V30 39 H -4.6784 3.4157 4.9726 0
M  V30 END ATOM
M  V30 BEGIN BOND
M  V30 1 1 1 2
M  V30 2 1 1 3
M  V30 3 2 2 4
M  V30 4 1 2 5
M  V30 5 1 3 6
M  V30 6 1 4 7
M  V30 7 2 5 8
M  V30 8 1 6 9
M  V30 9 1 7 10
M  V30 10 2 7 11
M  V30 11 1 9 12
M  V30 12 1 11 13
M  V30 13 1 12 14
M  V30 14 2 13 15
M  V30 15 1 13 16
M  V30 16 1 14 17
M  V30 17 1 15 18
M  V30 18 1 8 11
M  V30 19 1 3 19
M  V30 20 1 3 20
M  V30 21 1 4 21
M  V30 22 1 5 22
M  V30 23 1 6 23
M  V30 24 1 6 24
M  V30 25 1 8 25
M  V30 26 1 9 26
M  V30 27 1 9 27
M  V30 28 1 10 28
M  V30 29 1 12 29
M  V30 30 1 12 30
M  V30 31 1 14 31
M  V30 32 1 14 32
M  V30 33 1 16 33
M  V30 34 1 16 34
M  V30 35 1 16 35
M  V30 36 1 17 36
M  V30 37 1 17 37
M  V30 38 1 17 38
M  V30 39 1 18 39
M  V30 END BOND
M  V30 END CTAB
M  END
>  <Structure No>
8424

>  <LogS>
-4.15

>  <MMFF94 Energy>
52.683

$$$$
Compound 8425
Actelion Java MolfileCreator 2.0

  0  0  0  0  0  0              0 V3000
M  V30 BEGIN CTAB
M  V30 COUNTS 24 26 0 0 0
M  V30 BEGIN ATOM
M  V30 1 O -5.9919 -0.3231 -0.4848 0
M  V30 2 N -4.9148 -0.7534 -0.024 0 CHG=1
M  V30 3 O -4.9239 -1.8389 0.8197 0 CHG=-1
M  V30 4 C -3.6761 -0.1279 -0.3659 0
M  V30 5 O -2.5105 -0.5298 0.0832 0
M  V30 6 C -3.5275 0.9648 -1.1989 0
M  V30 7 C -1.5888 0.2578 -0.422 0
M  V30 8 C -2.1713 1.2146 -1.2346 0
M  V30 9 C -0.1534 0.1209 -0.1475 0
M  V30 10 N 0.7872 0.9467 -0.68 0
M  V30 11 N 0.3577 -0.8407 0.6606 0
M  V30 12 C 1.9316 0.4601 -0.1675 0
M  V30 13 C 1.6758 -0.6109 0.6359 0
M  V30 14 C 3.227 0.9264 -0.3789 0
M  V30 15 C 2.6888 -1.3045 1.2942 0
M  V30 16 C 4.2789 0.251 0.2696 0
M  V30 17 C 4.0109 -0.8599 1.1029 0
M  V30 18 H -4.3055 1.5116 -1.7151 0
M  V30 19 H -1.6709 1.9994 -1.7867 0
M  V30 20 H -0.1545 -1.5872 1.1816 0
M  V30 21 H 3.4194 1.7778 -1.0189 0
M  V30 22 H 2.4688 -2.1531 1.9288 0
M  V30 23 H 5.2989 0.5845 0.1295 0
M  V30 24 H 4.8266 -1.3717 1.5966 0
M  V30 END ATOM
M  V30 BEGIN BOND
M  V30 1 2 1 2
M  V30 2 1 2 3
M  V30 3 1 2 4
M  V30 4 1 4 5
M  V30 5 2 4 6
M  V30 6 1 5 7
M  V30 7 1 6 8
M  V30 8 1 7 9
M  V30 9 2 9 10
M  V30 10 1 9 11
M  V30 11 1 10 12
M  V30 12 1 11 13
M  V30 13 1 12 14
M  V30 14 1 13 15
M  V30 15 2 14 16
M  V30 16 2 15 17
M  V30 17 2 7 8
M  V30 18 2 12 13
M  V30 19 1 16 17
M  V30 20 1 6 18
M  V30 21 1 8 19
M  V30 22 1 11 20
M  V30 23 1 14 21
M  V30 24 1 15 22
M  V30 25 1 16 23
M  V30 26 1 17 24
M  V30 END BOND
M  V30 END CTAB
M  END
>  <Structure No>
8425

>  <LogS>
-3.89

>  <MMFF94 Energy>
57.04

$$$$
Compound 8426
Actelion Java MolfileCreator 2.0

  0  0  0  0  0  0              0 V3000
M  V30 BEGIN CTAB
M  V30 COUNTS 51 51 0 0 0
M  V30 BEGIN ATOM
M  V30 1 O -1.7289 -0.157 -2.0435 0
M  V30 2 C -2.83 -0.17 -1.1748 0
M  V30 3 C -0.853 0.9541 -2.2208 0
M  V30 4 C -3.1907 0.9437 -0.3952 0
M  V30 5 C -3.5899 -1.3388 -1.0864 0
M  V30 6 C 0.2489 0.6038 -3.2245 0
M  V30 7 C -4.3008 0.8854 0.461 0
M  V30 8 C -4.6943 -1.4063 -0.2346 0
M  V30 9 C 1.0426 -0.6663 -2.8611 0
M  V30 10 O -4.6522 2.0076 1.2123 0
M  V30 11 C -5.065 -0.2978 0.5473 0
M  V30 12 C 1.7378 -0.632 -1.4878 0
M  V30 13 C -6.2316 -0.3913 1.4614 0
M  V30 14 C 2.7925 0.4826 -1.3798 0
M  V30 15 N -6.1425 0.1408 2.6474 0
M  V30 16 C -7.472 -1.1309 1.0303 0
M  V30 17 C 3.551 0.4486 -0.0424 0
M  V30 18 O -7.1312 0.0848 3.6108 0
M  V30 19 C 4.6406 -0.6375 -0.01 0
M  V30 20 C 5.3653 -0.7058 1.3439 0
M  V30 21 C 6.3073 0.4853 1.5733 0
M  V30 22 C 7.1091 0.3112 2.8601 0
M  V30 23 H -0.4028 1.247 -1.2486 0
M  V30 24 H -1.4292 1.8196 -2.6137 0
M  V30 25 H -2.6205 1.861 -0.449 0
M  V30 26 H -3.3182 -2.2044 -1.6774 0
M  V30 27 H 0.9376 1.4679 -3.333 0
M  V30 28 H -0.2221 0.4442 -4.2187 0
M  V30 29 H -5.2468 -2.3355 -0.1725 0
M  V30 30 H 1.8093 -0.8393 -3.6474 0
M  V30 31 H 0.3559 -1.5403 -2.8867 0
M  V30 32 H -4.1214 2.8694 1.1629 0
M  V30 33 H 2.2256 -1.6181 -1.3438 0
M  V30 34 H 0.9843 -0.5244 -0.6788 0
M  V30 35 H 2.2817 1.4664 -1.4475 0
M  V30 36 H 3.511 0.4152 -2.226 0
M  V30 37 H -7.5599 -2.0804 1.5986 0
M  V30 38 H -7.4467 -1.3618 -0.0551 0
M  V30 39 H -8.371 -0.5034 1.2049 0
M  V30 40 H 4.028 1.4416 0.0969 0
M  V30 41 H 2.8344 0.299 0.7948 0
M  V30 42 H -7.9987 -0.4195 3.478 0
M  V30 43 H 4.1777 -1.6298 -0.1907 0
M  V30 44 H 5.3785 -0.4592 -0.8226 0
M  V30 45 H 4.6205 -0.7647 2.1679 0
M  V30 46 H 5.9637 -1.6433 1.3644 0
M  V30 47 H 5.7228 1.4261 1.6513 0
M  V30 48 H 7.0145 0.5771 0.7204 0
M  V30 49 H 7.7378 -0.6028 2.8031 0
M  V30 50 H 7.773 1.1892 3.0064 0
M  V30 51 H 6.4258 0.2332 3.7326 0
M  V30 END ATOM
M  V30 BEGIN BOND
M  V30 1 1 1 2
M  V30 2 1 1 3
M  V30 3 2 2 4
M  V30 4 1 2 5
M  V30 5 1 3 6
M  V30 6 1 4 7
M  V30 7 2 5 8
M  V30 8 1 6 9
M  V30 9 1 7 10
M  V30 10 2 7 11
M  V30 11 1 9 12
M  V30 12 1 11 13
M  V30 13 1 12 14
M  V30 14 2 13 15
M  V30 15 1 13 16
M  V30 16 1 14 17
M  V30 17 1 15 18
M  V30 18 1 17 19
M  V30 19 1 19 20
M  V30 20 1 20 21
M  V30 21 1 21 22
M  V30 22 1 8 11
M  V30 23 1 3 23
M  V30 24 1 3 24
M  V30 25 1 4 25
M  V30 26 1 5 26
M  V30 27 1 6 27
M  V30 28 1 6 28
M  V30 29 1 8 29
M  V30 30 1 9 30
M  V30 31 1 9 31
M  V30 32 1 10 32
M  V30 33 1 12 33
M  V30 34 1 12 34
M  V30 35 1 14 35
M  V30 36 1 14 36
M  V30 37 1 16 37
M  V30 38 1 16 38
M  V30 39 1 16 39
M  V30 40 1 17 40
M  V30 41 1 17 41
M  V30 42 1 18 42
M  V30 43 1 19 43
M  V30 44 1 19 44
M  V30 45 1 20 45
M  V30 46 1 20 46
M  V30 47 1 21 47
M  V30 48 1 21 48
M  V30 49 1 22 49
M  V30 50 1 22 50
M  V30 51 1 22 51
M  V30 END BOND
M  V30 END CTAB
M  END
>  <Structure No>
8426

>  <LogS>
-4.89

>  <MMFF94 Energy>
51.649

$$$$
Compound 8427
Actelion Java MolfileCreator 2.0

  0  0  0  0  0  0              0 V3000
M  V30 BEGIN CTAB
M  V30 COUNTS 53 53 0 0 0
M  V30 BEGIN ATOM
M  V30 1 O -1.3402 -0.5517 0.3152 0
M  V30 2 C -2.6202 -0.2205 -0.153 0
M  V30 3 C -0.1401 -0.3994 -0.4397 0
M  V30 4 C -3.7093 -0.4117 0.7011 0
M  V30 5 C -2.8422 0.2954 -1.4401 0
M  V30 6 C 1.0607 -0.8572 0.388 0
M  V30 7 C -5.0132 -0.0968 0.2902 0
M  V30 8 C -4.1369 0.6067 -1.8604 0
M  V30 9 C 1.2916 0.0551 1.6033 0
M  V30 10 O -6.0677 -0.2654 1.1857 0
M  V30 11 C -5.2413 0.4064 -1.0109 0
M  V30 12 C 2.3865 -0.4716 2.5489 0
M  V30 13 C -6.6035 0.7409 -1.5115 0
M  V30 14 C 3.7863 -0.5861 1.9189 0
M  V30 15 N -6.737 1.7628 -2.3057 0
M  V30 16 C -7.792 -0.1445 -1.2019 0
M  V30 17 C 4.3323 0.7653 1.4265 0
M  V30 18 O -7.9431 2.1086 -2.872 0 CHG=-1
M  V30 19 C -8.7813 0.5387 -0.2575 0
M  V30 20 C 5.825 0.7038 1.0667 0
M  V30 21 C 6.0936 -0.1297 -0.195 0
M  V30 22 C 7.572 -0.0585 -0.5944 0
M  V30 23 C 7.8469 -0.893 -1.8421 0
M  V30 24 H -0.2003 -1.024 -1.3573 0
M  V30 25 H -0.0082 0.6646 -0.7347 0
M  V30 26 H -3.5386 -0.8 1.6977 0
M  V30 27 H -2.0221 0.4566 -2.1262 0
M  V30 28 H 1.9562 -0.8377 -0.2684 0
M  V30 29 H 0.8934 -1.9037 0.7243 0
M  V30 30 H -4.2775 0.991 -2.8634 0
M  V30 31 H 1.5377 1.0839 1.2651 0
M  V30 32 H 0.3496 0.1236 2.1902 0
M  V30 33 H -5.9204 -0.6187 2.1238 0
M  V30 34 H 2.0845 -1.4732 2.9254 0
M  V30 35 H 2.4442 0.2012 3.4324 0
M  V30 36 H 3.7641 -1.3204 1.0878 0
M  V30 37 H 4.4715 -0.9919 2.695 0
M  V30 38 H -7.4582 -1.1054 -0.7563 0
M  V30 39 H -8.3142 -0.404 -2.1479 0
M  V30 40 H 4.2037 1.5224 2.231 0
M  V30 41 H 3.7578 1.1101 0.5399 0
M  V30 42 H -9.584 -0.1774 0.0175 0
M  V30 43 H -9.2515 1.4157 -0.7486 0
M  V30 44 H -8.2776 0.8788 0.6704 0
M  V30 45 H 6.4027 0.2919 1.9233 0
M  V30 46 H 6.1781 1.7439 0.8925 0
M  V30 47 H 5.8235 -1.1908 -0.0062 0
M  V30 48 H 5.4686 0.2528 -1.0318 0
M  V30 49 H 8.2037 -0.4376 0.2383 0
M  V30 50 H 7.8553 0.9969 -0.7993 0
M  V30 51 H 7.5972 -1.9594 -1.6559 0
M  V30 52 H 8.9227 -0.8215 -2.1073 0
M  V30 53 H 7.2445 -0.5186 -2.697 0
M  V30 END ATOM
M  V30 BEGIN BOND
M  V30 1 1 1 2
M  V30 2 1 1 3
M  V30 3 2 2 4
M  V30 4 1 2 5
M  V30 5 1 3 6
M  V30 6 1 4 7
M  V30 7 2 5 8
M  V30 8 1 6 9
M  V30 9 1 7 10
M  V30 10 2 7 11
M  V30 11 1 9 12
M  V30 12 1 11 13
M  V30 13 1 12 14
M  V30 14 2 13 15
M  V30 15 1 13 16
M  V30 16 1 14 17
M  V30 17 1 15 18
M  V30 18 1 16 19
M  V30 19 1 17 20
M  V30 20 1 20 21
M  V30 21 1 21 22
M  V30 22 1 22 23
M  V30 23 1 8 11
M  V30 24 1 3 24
M  V30 25 1 3 25
M  V30 26 1 4 26
M  V30 27 1 5 27
M  V30 28 1 6 28
M  V30 29 1 6 29
M  V30 30 1 8 30
M  V30 31 1 9 31
M  V30 32 1 9 32
M  V30 33 1 10 33
M  V30 34 1 12 34
M  V30 35 1 12 35
M  V30 36 1 14 36
M  V30 37 1 14 37
M  V30 38 1 16 38
M  V30 39 1 16 39
M  V30 40 1 17 40
M  V30 41 1 17 41
M  V30 42 1 19 42
M  V30 43 1 19 43
M  V30 44 1 19 44
M  V30 45 1 20 45
M  V30 46 1 20 46
M  V30 47 1 21 47
M  V30 48 1 21 48
M  V30 49 1 22 49
M  V30 50 1 22 50
M  V30 51 1 23 51
M  V30 52 1 23 52
M  V30 53 1 23 53
M  V30 END BOND
M  V30 END CTAB
M  END
>  <Structure No>
8427

>  <LogS>
-4.06

>  <MMFF94 Energy>
18.118

$$$$
Compound 8428
Actelion Java MolfileCreator 2.0

  0  0  0  0  0  0              0 V3000
M  V30 BEGIN CTAB
M  V30 COUNTS 45 46 0 0 0
M  V30 BEGIN ATOM
M  V30 1 O 1.1924 -0.2384 -1.9084 0
M  V30 2 C -0.0662 -0.5722 -1.3809 0
M  V30 3 C 2.4404 -0.3729 -1.2282 0
M  V30 4 C -0.2294 -1.1766 -0.119 0
M  V30 5 C -1.1983 -0.2919 -2.1527 0
M  V30 6 C 2.6168 0.7505 -0.1973 0
M  V30 7 C -1.5103 -1.4877 0.3605 0
M  V30 8 C -2.4754 -0.6032 -1.6819 0
M  V30 9 C 3.8506 0.5468 0.6948 0
M  V30 10 O -1.6621 -2.0615 1.623 0
M  V30 11 C -2.6414 -1.2073 -0.4274 0
M  V30 12 C 5.17 0.7311 -0.069 0
M  V30 13 C -4.0071 -1.5255 0.0558 0
M  V30 14 C 6.3697 0.6497 0.8819 0
M  V30 15 N -4.347 -2.7587 0.2899 0
M  V30 16 C -5.0125 -0.4439 0.2462 0
M  V30 17 C 7.6846 0.821 0.1271 0
M  V30 18 O -3.4813 -3.8114 0.0942 0 CHG=-1
M  V30 19 C -6.3864 -0.7498 0.3194 0
M  V30 20 C -4.6129 0.9022 0.3711 0
M  V30 21 C -7.3317 0.2642 0.5013 0
M  V30 22 C -5.5631 1.9114 0.5532 0
M  V30 23 C -6.9208 1.5933 0.6169 0
M  V30 24 H 2.5211 -1.3764 -0.7588 0
M  V30 25 H 3.2464 -0.2968 -1.9866 0
M  V30 26 H 0.6249 -1.4044 0.5018 0
M  V30 27 H -1.087 0.172 -3.1245 0
M  V30 28 H 1.7224 0.7905 0.4593 0
M  V30 29 H 2.6837 1.7286 -0.7215 0
M  V30 30 H -3.3373 -0.3771 -2.298 0
M  V30 31 H 3.8175 -0.4647 1.1557 0
M  V30 32 H 3.8047 1.2934 1.5181 0
M  V30 33 H -0.8643 -2.2692 2.2121 0
M  V30 34 H 5.1697 1.7216 -0.5751 0
M  V30 35 H 5.269 -0.0626 -0.84 0
M  V30 36 H 6.3752 -0.3369 1.3945 0
M  V30 37 H 6.2924 1.4469 1.6532 0
M  V30 38 H 8.5333 0.759 0.8402 0
M  V30 39 H 7.8005 0.0196 -0.6332 0
M  V30 40 H 7.7148 1.8112 -0.3755 0
M  V30 41 H -6.7329 -1.7714 0.227 0
M  V30 42 H -3.5666 1.1777 0.341 0
M  V30 43 H -8.3847 0.0186 0.5519 0
M  V30 44 H -5.2455 2.9418 0.6485 0
M  V30 45 H -7.6544 2.3765 0.7582 0
M  V30 END ATOM
M  V30 BEGIN BOND
M  V30 1 1 1 2
M  V30 2 1 1 3
M  V30 3 2 2 4
M  V30 4 1 2 5
M  V30 5 1 3 6
M  V30 6 1 4 7
M  V30 7 2 5 8
M  V30 8 1 6 9
M  V30 9 1 7 10
M  V30 10 2 7 11
M  V30 11 1 9 12
M  V30 12 1 11 13
M  V30 13 1 12 14
M  V30 14 2 13 15
M  V30 15 1 13 16
M  V30 16 1 14 17
M  V30 17 1 15 18
M  V30 18 2 16 19
M  V30 19 1 16 20
M  V30 20 1 19 21
M  V30 21 2 20 22
M  V30 22 2 21 23
M  V30 23 1 8 11
M  V30 24 1 22 23
M  V30 25 1 3 24
M  V30 26 1 3 25
M  V30 27 1 4 26
M  V30 28 1 5 27
M  V30 29 1 6 28
M  V30 30 1 6 29
M  V30 31 1 8 30
M  V30 32 1 9 31
M  V30 33 1 9 32
M  V30 34 1 10 33
M  V30 35 1 12 34
M  V30 36 1 12 35
M  V30 37 1 14 36
M  V30 38 1 14 37
M  V30 39 1 17 38
M  V30 40 1 17 39
M  V30 41 1 17 40
M  V30 42 1 19 41
M  V30 43 1 20 42
M  V30 44 1 21 43
M  V30 45 1 22 44
M  V30 46 1 23 45
M  V30 END BOND
M  V30 END CTAB
M  END
>  <Structure No>
8428

>  <LogS>
-3.47

>  <MMFF94 Energy>
52.469

$$$$
Compound 8429
Actelion Java MolfileCreator 2.0

  0  0  0  0  0  0              0 V3000
M  V30 BEGIN CTAB
M  V30 COUNTS 47 49 0 0 0
M  V30 BEGIN ATOM
M  V30 1 Cl -2.8484 -2.4411 -1.1386 0
M  V30 2 C -2.3151 -0.9086 -0.4657 0
M  V30 3 C -3.223 0.1478 -0.2444 0
M  V30 4 C -0.9753 -0.7184 -0.1368 0
M  V30 5 O -4.5731 -0.0549 -0.5795 0
M  V30 6 C -2.7479 1.3742 0.2964 0
M  V30 7 O 0.0577 -1.6358 -0.2861 0
M  V30 8 C -0.5302 0.4591 0.3897 0
M  V30 9 C -5.6429 0.8543 -0.3205 0
M  V30 10 C -1.3809 1.5388 0.6215 0
M  V30 11 C 1.3035 -1.0871 0.1701 0 CFG=2
M  V30 12 C 0.8947 0.3075 0.5977 0
M  V30 13 C -6.0265 0.8327 1.1553 0
M  V30 14 O -0.8599 2.7253 1.1579 0
M  V30 15 C 2.2762 -1.0643 -0.996 0
M  V30 16 C 1.8322 -1.9478 1.3558 0 CFG=1
M  V30 17 O 1.6655 1.2139 1.0118 0
M  V30 18 C -1.6346 3.8862 1.4378 0
M  V30 19 O 2.27 0.0254 -1.8745 0
M  V30 20 C 3.0564 -2.1249 -1.2531 0
M  V30 21 C 2.1886 -3.3607 0.8478 0
M  V30 22 C 3.038 -1.3136 2.078 0
M  V30 23 C 3.3086 1.0044 -1.902 0
M  V30 24 C 3.0807 -3.2974 -0.3606 0
M  V30 25 C 4.5167 0.5191 -2.6938 0
M  V30 26 O 3.8238 -4.2751 -0.6391 0
M  V30 27 H -3.4304 2.1932 0.4595 0
M  V30 28 H -6.5241 0.5319 -0.914 0
M  V30 29 H -5.3811 1.8814 -0.651 0
M  V30 30 H -6.3155 -0.1967 1.4548 0
M  V30 31 H -6.8881 1.5117 1.3264 0
M  V30 32 H -5.1792 1.1673 1.788 0
M  V30 33 H 1.0177 -2.0551 2.107 0
M  V30 34 H -2.0968 4.2708 0.5043 0
M  V30 35 H -2.4216 3.6489 2.1847 0
M  V30 36 H -0.9727 4.6715 1.8564 0
M  V30 37 H 3.6818 -2.1341 -2.1354 0
M  V30 38 H 2.6789 -3.9508 1.6526 0
M  V30 39 H 1.2569 -3.8973 0.5664 0
M  V30 40 H 2.7259 -0.4046 2.6312 0
M  V30 41 H 3.454 -2.0195 2.8276 0
M  V30 42 H 3.8418 -1.0447 1.3608 0
M  V30 43 H 2.9101 1.9181 -2.3911 0
M  V30 44 H 3.6157 1.274 -0.8686 0
M  V30 45 H 4.1921 0.0953 -3.6674 0
M  V30 46 H 5.0732 -0.248 -2.1174 0
M  V30 47 H 5.2024 1.3714 -2.884 0
M  V30 END ATOM
M  V30 BEGIN BOND
M  V30 1 1 1 2
M  V30 2 2 2 3
M  V30 3 1 2 4
M  V30 4 1 3 5
M  V30 5 1 3 6
M  V30 6 1 4 7
M  V30 7 2 4 8
M  V30 8 1 5 9
M  V30 9 2 6 10
M  V30 10 1 7 11
M  V30 11 1 8 12
M  V30 12 1 9 13
M  V30 13 1 10 14
M  V30 14 1 11 15
M  V30 15 1 11 16
M  V30 16 2 12 17
M  V30 17 1 14 18
M  V30 18 1 15 19
M  V30 19 2 15 20
M  V30 20 1 16 21
M  V30 21 1 16 22
M  V30 22 1 19 23
M  V30 23 1 20 24
M  V30 24 1 23 25
M  V30 25 2 24 26
M  V30 26 1 8 10
M  V30 27 1 11 12
M  V30 28 1 21 24
M  V30 29 1 6 27
M  V30 30 1 9 28
M  V30 31 1 9 29
M  V30 32 1 13 30
M  V30 33 1 13 31
M  V30 34 1 13 32
M  V30 35 1 16 33
M  V30 36 1 18 34
M  V30 37 1 18 35
M  V30 38 1 18 36
M  V30 39 1 20 37
M  V30 40 1 21 38
M  V30 41 1 21 39
M  V30 42 1 22 40
M  V30 43 1 22 41
M  V30 44 1 22 42
M  V30 45 1 23 43
M  V30 46 1 23 44
M  V30 47 1 25 45
M  V30 48 1 25 46
M  V30 49 1 25 47
M  V30 END BOND
M  V30 BEGIN COLLECTION
M  V30 MDLV30/STEABS ATOMS=(2 11 16)
M  V30 END COLLECTION
M  V30 END CTAB
M  END
>  <Structure No>
8429

>  <LogS>
-4.7

>  <MMFF94 Energy>
102.38

$$$$
Compound 8430
Actelion Java MolfileCreator 2.0

  0  0  0  0  0  0              0 V3000
M  V30 BEGIN CTAB
M  V30 COUNTS 47 49 0 0 0
M  V30 BEGIN ATOM
M  V30 1 Cl 3.3373 -2.2782 1.7897 0
M  V30 2 C 2.8722 -0.8428 0.8904 0
M  V30 3 C 3.7615 0.2401 0.7308 0
M  V30 4 C 1.6064 -0.7571 0.316 0
M  V30 5 O 5.0363 0.1507 1.3117 0
M  V30 6 C 3.3479 1.3824 -0.0075 0
M  V30 7 O 0.6031 -1.7194 0.3621 0
M  V30 8 C 1.217 0.3455 -0.3916 0
M  V30 9 C 6.0326 1.1647 1.2308 0
M  V30 10 C 2.0563 1.4422 -0.5819 0
M  V30 11 C -0.5638 -1.2676 -0.3407 0 CFG=2
M  V30 12 C -0.1342 0.0899 -0.8463 0
M  V30 13 O 1.5976 2.5424 -1.321 0
M  V30 14 C -1.7116 -1.1389 0.6474 0
M  V30 15 C -0.9092 -2.2303 -1.5148 0 CFG=2
M  V30 16 O -0.8203 0.8588 -1.5713 0
M  V30 17 C 2.3667 3.7127 -1.5762 0
M  V30 18 O -1.7779 -0.0116 1.4759 0
M  V30 19 C -2.5874 -2.1389 0.8231 0
M  V30 20 C -1.4183 -3.5776 -0.9721 0
M  V30 21 C 0.2807 -2.4634 -2.4618 0
M  V30 22 C -2.7044 1.0546 1.2682 0
M  V30 23 C -2.5264 -3.3679 0.0166 0
M  V30 24 C -4.102 0.6899 1.7761 0
M  V30 25 O -3.3811 -4.2748 0.1994 0
M  V30 26 C -5.0253 1.9049 1.7725 0
M  V30 27 H 4.025 2.2141 -0.1334 0
M  V30 28 H 5.6628 2.1018 1.6982 0
M  V30 29 H 6.3064 1.3474 0.1702 0
M  V30 30 H 6.937 0.8283 1.7779 0
M  V30 31 H -1.7297 -1.7723 -2.1134 0
M  V30 32 H 2.6388 4.2068 -0.6195 0
M  V30 33 H 3.2834 3.4503 -2.1455 0
M  V30 34 H 1.7621 4.4189 -2.1815 0
M  V30 35 H -3.3506 -2.0593 1.5858 0
M  V30 36 H -0.5929 -4.1244 -0.4664 0
M  V30 37 H -1.7888 -4.2027 -1.8141 0
M  V30 38 H -0.0186 -3.1422 -3.2885 0
M  V30 39 H 0.6136 -1.5062 -2.9149 0
M  V30 40 H 1.1354 -2.9215 -1.9199 0
M  V30 41 H -2.3319 1.9408 1.825 0
M  V30 42 H -2.7489 1.321 0.1904 0
M  V30 43 H -4.546 -0.0883 1.1205 0
M  V30 44 H -4.03 0.2905 2.811 0
M  V30 45 H -4.6312 2.6922 2.45 0
M  V30 46 H -5.1166 2.3165 0.7447 0
M  V30 47 H -6.0344 1.6058 2.1268 0
M  V30 END ATOM
M  V30 BEGIN BOND
M  V30 1 1 1 2
M  V30 2 2 2 3
M  V30 3 1 2 4
M  V30 4 1 3 5
M  V30 5 1 3 6
M  V30 6 1 4 7
M  V30 7 2 4 8
M  V30 8 1 5 9
M  V30 9 2 6 10
M  V30 10 1 7 11
M  V30 11 1 8 12
M  V30 12 1 10 13
M  V30 13 1 11 14
M  V30 14 1 11 15
M  V30 15 2 12 16
M  V30 16 1 13 17
M  V30 17 1 14 18
M  V30 18 2 14 19
M  V30 19 1 15 20
M  V30 20 1 15 21
M  V30 21 1 18 22
M  V30 22 1 19 23
M  V30 23 1 22 24
M  V30 24 2 23 25
M  V30 25 1 24 26
M  V30 26 1 8 10
M  V30 27 1 11 12
M  V30 28 1 20 23
M  V30 29 1 6 27
M  V30 30 1 9 28
M  V30 31 1 9 29
M  V30 32 1 9 30
M  V30 33 1 15 31
M  V30 34 1 17 32
M  V30 35 1 17 33
M  V30 36 1 17 34
M  V30 37 1 19 35
M  V30 38 1 20 36
M  V30 39 1 20 37
M  V30 40 1 21 38
M  V30 41 1 21 39
M  V30 42 1 21 40
M  V30 43 1 22 41
M  V30 44 1 22 42
M  V30 45 1 24 43
M  V30 46 1 24 44
M  V30 47 1 26 45
M  V30 48 1 26 46
M  V30 49 1 26 47
M  V30 END BOND
M  V30 BEGIN COLLECTION
M  V30 MDLV30/STEABS ATOMS=(2 11 15)
M  V30 END COLLECTION
M  V30 END CTAB
M  END
>  <Structure No>
8430

>  <LogS>
-4.52

>  <MMFF94 Energy>
103.42

$$$$
Compound 8431
Actelion Java MolfileCreator 2.0

  0  0  0  0  0  0              0 V3000
M  V30 BEGIN CTAB
M  V30 COUNTS 26 28 0 0 0
M  V30 BEGIN ATOM
M  V30 1 O -3.8383 -2.2376 -0.3194 0
M  V30 2 C -2.8971 -1.4 -0.3118 0
M  V30 3 N -1.5973 -1.8042 -0.1765 0
M  V30 4 C -3.1413 -0.0413 -0.4422 0
M  V30 5 C -0.5651 -0.8928 -0.1611 0
M  V30 6 N -4.2945 0.6199 -0.5916 0
M  V30 7 C -2.1182 0.8386 -0.4369 0
M  V30 8 N -0.83 0.4449 -0.304 0
M  V30 9 N 0.79 -1.356 -0.0466 0
M  V30 10 C -3.9098 1.9191 -0.6734 0
M  V30 11 N -2.5629 2.098 -0.5822 0
M  V30 12 C 1.9116 -0.5037 0.2399 0
M  V30 13 C 3.1614 -0.795 -0.3294 0
M  V30 14 C 1.8003 0.5808 1.1303 0
M  V30 15 C 4.2721 0.0061 -0.0462 0
M  V30 16 C 2.9136 1.3792 1.4114 0
M  V30 17 C 4.1472 1.0951 0.8202 0
M  V30 18 H -1.3873 -2.8236 -0.0789 0
M  V30 19 H -5.263 0.2326 -0.6368 0
M  V30 20 H 0.9807 -2.3604 -0.264 0
M  V30 21 H -4.6072 2.7368 -0.8006 0
M  V30 22 H 3.2708 -1.6375 -1.0006 0
M  V30 23 H 0.8635 0.7962 1.6268 0
M  V30 24 H 5.23 -0.2188 -0.497 0
M  V30 25 H 2.8218 2.2132 2.0954 0
M  V30 26 H 5.0081 1.7132 1.0403 0
M  V30 END ATOM
M  V30 BEGIN BOND
M  V30 1 2 1 2
M  V30 2 1 2 3
M  V30 3 1 2 4
M  V30 4 1 3 5
M  V30 5 1 4 6
M  V30 6 2 4 7
M  V30 7 2 5 8
M  V30 8 1 5 9
M  V30 9 1 6 10
M  V30 10 1 7 11
M  V30 11 1 9 12
M  V30 12 2 12 13
M  V30 13 1 12 14
M  V30 14 1 13 15
M  V30 15 2 14 16
M  V30 16 2 15 17
M  V30 17 1 7 8
M  V30 18 2 10 11
M  V30 19 1 16 17
M  V30 20 1 3 18
M  V30 21 1 6 19
M  V30 22 1 9 20
M  V30 23 1 10 21
M  V30 24 1 13 22
M  V30 25 1 14 23
M  V30 26 1 15 24
M  V30 27 1 16 25
M  V30 28 1 17 26
M  V30 END BOND
M  V30 END CTAB
M  END
>  <Structure No>
8431

>  <LogS>
-4.12

>  <MMFF94 Energy>
-119.37

$$$$
Compound 8432
Actelion Java MolfileCreator 2.0

  0  0  0  0  0  0              0 V3000
M  V30 BEGIN CTAB
M  V30 COUNTS 44 46 0 0 0
M  V30 BEGIN ATOM
M  V30 1 S -2.7914 0.5742 -1.1487 0
M  V30 2 C -4.3448 0.1936 -0.2092 0
M  V30 3 C -2.0874 -1.0582 -0.7264 0 CFG=2
M  V30 4 C -3.9569 -0.7857 0.9456 0 CFG=2
M  V30 5 C -4.9153 1.5025 0.3564 0
M  V30 6 C -5.3489 -0.4144 -1.2097 0
M  V30 7 N -2.7313 -1.4028 0.5034 0 CFG=2
M  V30 8 C -0.7593 -1.1309 -0.1576 0 CFG=2
M  V30 9 C -4.9926 -1.8217 1.2894 0
M  V30 10 C -1.397 -1.5772 1.1213 0
M  V30 11 N -0.0893 0.1639 -0.0133 0
M  V30 12 O -4.9753 -2.9566 0.7424 0
M  V30 13 O -6.0081 -1.5086 2.1839 0 CHG=-1
M  V30 14 O -0.9786 -1.8978 2.2641 0
M  V30 15 C 0.6434 0.7524 -1.0965 0
M  V30 16 O 0.6687 0.1907 -2.2251 0
M  V30 17 C 1.367 2.0517 -0.9062 0
M  V30 18 O 2.7278 1.9335 -1.3209 0
M  V30 19 C 3.7192 1.1992 -0.6495 0
M  V30 20 C 4.9906 1.1198 -1.2298 0
M  V30 21 C 3.4847 0.5501 0.5783 0
M  V30 22 C 6.0133 0.3986 -0.607 0
M  V30 23 C 4.5074 -0.1717 1.2011 0
M  V30 24 C 5.7732 -0.2655 0.6045 0
M  V30 25 C 6.8804 -1.0069 1.293 0
M  V30 26 H -2.28 -1.8283 -1.5057 0
M  V30 27 H -3.7278 -0.2135 1.872 0
M  V30 28 H -5.1711 2.2044 -0.4661 0
M  V30 29 H -4.1701 1.9992 1.0142 0
M  V30 30 H -5.8329 1.3001 0.9497 0
M  V30 31 H -6.3332 -0.594 -0.7263 0
M  V30 32 H -5.5095 0.277 -2.0648 0
M  V30 33 H -4.9654 -1.3764 -1.6115 0
M  V30 34 H -0.1066 -1.9166 -0.5968 0
M  V30 35 H -0.0993 0.6497 0.9126 0
M  V30 36 H 0.8721 2.8214 -1.5342 0
M  V30 37 H 1.3155 2.4001 0.1472 0
M  V30 38 H 5.1869 1.6215 -2.169 0
M  V30 39 H 2.5214 0.6006 1.0647 0
M  V30 40 H 6.9913 0.3576 -1.0704 0
M  V30 41 H 4.3117 -0.6575 2.1492 0
M  V30 42 H 7.4252 -0.3136 1.9674 0
M  V30 43 H 7.593 -1.4248 0.5503 0
M  V30 44 H 6.4744 -1.8503 1.8911 0
M  V30 END ATOM
M  V30 BEGIN BOND
M  V30 1 1 1 2
M  V30 2 1 1 3
M  V30 3 1 2 4
M  V30 4 1 2 5
M  V30 5 1 2 6
M  V30 6 1 3 7
M  V30 7 1 3 8
M  V30 8 1 4 9
M  V30 9 1 7 10
M  V30 10 1 8 11
M  V30 11 2 9 12
M  V30 12 1 9 13
M  V30 13 2 10 14
M  V30 14 1 11 15
M  V30 15 2 15 16
M  V30 16 1 15 17
M  V30 17 1 17 18
M  V30 18 1 18 19
M  V30 19 2 19 20
M  V30 20 1 19 21
M  V30 21 1 20 22
M  V30 22 2 21 23
M  V30 23 2 22 24
M  V30 24 1 24 25
M  V30 25 1 4 7
M  V30 26 1 8 10
M  V30 27 1 23 24
M  V30 28 1 3 26
M  V30 29 1 4 27
M  V30 30 1 5 28
M  V30 31 1 5 29
M  V30 32 1 5 30
M  V30 33 1 6 31
M  V30 34 1 6 32
M  V30 35 1 6 33
M  V30 36 1 8 34
M  V30 37 1 11 35
M  V30 38 1 17 36
M  V30 39 1 17 37
M  V30 40 1 20 38
M  V30 41 1 21 39
M  V30 42 1 22 40
M  V30 43 1 23 41
M  V30 44 1 25 42
M  V30 45 1 25 43
M  V30 46 1 25 44
M  V30 END BOND
M  V30 BEGIN COLLECTION
M  V30 MDLV30/STEABS ATOMS=(4 3 4 7 8)
M  V30 END COLLECTION
M  V30 END CTAB
M  END
>  <Structure No>
8432

>  <LogS>
-3.15

>  <MMFF94 Energy>
104.25

$$$$
Compound 8433
Actelion Java MolfileCreator 2.0

  0  0  0  0  0  0              0 V3000
M  V30 BEGIN CTAB
M  V30 COUNTS 36 38 0 0 0
M  V30 BEGIN ATOM
M  V30 1 Cl -1.6994 1.7804 -4.4555 0
M  V30 2 C -0.5815 1.4338 -3.1486 0
M  V30 3 C -0.928 0.5118 -2.1591 0
M  V30 4 C 0.6487 2.086 -3.0929 0
M  V30 5 C -0.0456 0.2207 -1.0999 0
M  V30 6 C 1.5389 1.8102 -2.0556 0
M  V30 7 C -0.501 -0.7239 -0.0331 0
M  V30 8 C 1.2206 0.8698 -1.0622 0
M  V30 9 N 0.3078 -1.615 0.488 0 CHG=1
M  V30 10 C -1.9105 -0.6333 0.4301 0
M  V30 11 N 2.183 0.6475 -0.0101 0 CHG=1
M  V30 12 O -0.1121 -2.406 1.5361 0 CHG=-1
M  V30 13 C 1.6991 -1.7417 0.0647 0
M  V30 14 C -2.7349 -1.7721 0.4507 0
M  V30 15 C -2.4463 0.6084 0.813 0
M  V30 16 C 2.4554 -0.5225 0.508 0
M  V30 17 C -4.0665 -1.671 0.8654 0
M  V30 18 C -3.7783 0.7048 1.227 0
M  V30 19 N 3.4526 -0.6675 1.5396 0
M  V30 20 C -4.5873 -0.4341 1.255 0
M  V30 21 C 4.2334 0.4402 2.0807 0
M  V30 22 H -1.8915 0.02 -2.2184 0
M  V30 23 H 0.9177 2.8076 -3.8538 0
M  V30 24 H 2.4914 2.325 -2.0297 0
M  V30 25 H 2.7446 1.4793 0.2761 0
M  V30 26 H 2.1433 -2.6605 0.5045 0
M  V30 27 H 1.7611 -1.8564 -1.0399 0
M  V30 28 H -2.3522 -2.7336 0.1319 0
M  V30 29 H -1.8308 1.4997 0.7963 0
M  V30 30 H -4.6966 -2.5509 0.8793 0
M  V30 31 H -4.1838 1.6632 1.5249 0
M  V30 32 H 3.6282 -1.6166 1.94 0
M  V30 33 H -5.6187 -0.3576 1.5745 0
M  V30 34 H 3.5564 1.1972 2.5299 0
M  V30 35 H 4.8424 0.903 1.2759 0
M  V30 36 H 4.9189 0.0671 2.8709 0
M  V30 END ATOM
M  V30 BEGIN BOND
M  V30 1 1 1 2
M  V30 2 2 2 3
M  V30 3 1 2 4
M  V30 4 1 3 5
M  V30 5 2 4 6
M  V30 6 1 5 7
M  V30 7 2 5 8
M  V30 8 2 7 9
M  V30 9 1 7 10
M  V30 10 1 8 11
M  V30 11 1 9 12
M  V30 12 1 9 13
M  V30 13 2 10 14
M  V30 14 1 10 15
M  V30 15 2 11 16
M  V30 16 1 14 17
M  V30 17 2 15 18
M  V30 18 1 16 19
M  V30 19 2 17 20
M  V30 20 1 19 21
M  V30 21 1 6 8
M  V30 22 1 13 16
M  V30 23 1 18 20
M  V30 24 1 3 22
M  V30 25 1 4 23
M  V30 26 1 6 24
M  V30 27 1 11 25
M  V30 28 1 13 26
M  V30 29 1 13 27
M  V30 30 1 14 28
M  V30 31 1 15 29
M  V30 32 1 17 30
M  V30 33 1 18 31
M  V30 34 1 19 32
M  V30 35 1 20 33
M  V30 36 1 21 34
M  V30 37 1 21 35
M  V30 38 1 21 36
M  V30 END BOND
M  V30 END CTAB
M  END
>  <Structure No>
8433

>  <LogS>
-3.39

>  <MMFF94 Energy>
57.248

$$$$
Compound 8434
Actelion Java MolfileCreator 2.0

  0  0  0  0  0  0              0 V3000
M  V30 BEGIN CTAB
M  V30 COUNTS 36 36 0 0 0
M  V30 BEGIN ATOM
M  V30 1 O 5.8776 1.4272 1.5859 0
M  V30 2 C 5.7905 0.4357 0.8135 0
M  V30 3 O 6.9241 -0.3319 0.5722 0 CHG=-1
M  V30 4 C 4.5019 0.092 0.1729 0
M  V30 5 C 3.353 0.8677 0.4098 0
M  V30 6 C 4.4108 -1.0127 -0.6907 0
M  V30 7 C 2.1377 0.5377 -0.1972 0
M  V30 8 C 3.1936 -1.34 -1.2958 0
M  V30 9 C 2.0443 -0.5879 -1.0303 0
M  V30 10 N 0.8254 -0.9165 -1.7133 0
M  V30 11 N -0.3427 -0.9659 -1.194 0
M  V30 12 N -0.6175 -0.8457 0.1852 0
M  V30 13 C -1.9784 -0.4678 0.5921 0
M  V30 14 C 0.1727 -1.6217 1.1499 0
M  V30 15 C -2.6173 0.6074 -0.3238 0 CFG=1
M  V30 16 C -4.0537 0.9544 0.1362 0
M  V30 17 C -1.7669 1.8871 -0.3461 0
M  V30 18 C -5.0461 -0.1907 -0.0745 0
M  V30 19 H 3.3936 1.7332 1.0596 0
M  V30 20 H 5.2798 -1.6225 -0.9036 0
M  V30 21 H 1.2743 1.1586 -0.0115 0
M  V30 22 H 3.1423 -2.1889 -1.9661 0
M  V30 23 H -2.6018 -1.3859 0.5808 0
M  V30 24 H -1.9576 -0.084 1.6367 0
M  V30 25 H 0.9469 -0.9808 1.6154 0
M  V30 26 H 0.6536 -2.4886 0.6491 0
M  V30 27 H -0.4698 -2.0201 1.9649 0
M  V30 28 H -2.6722 0.217 -1.3642 0
M  V30 29 H -4.0535 1.248 1.209 0
M  V30 30 H -4.4266 1.8245 -0.448 0
M  V30 31 H -1.5893 2.2606 0.6853 0
M  V30 32 H -2.2746 2.6827 -0.9321 0
M  V30 33 H -0.7944 1.6963 -0.8396 0
M  V30 34 H -4.8499 -1.0214 0.6335 0
M  V30 35 H -4.9913 -0.5684 -1.1175 0
M  V30 36 H -6.0773 0.177 0.1119 0
M  V30 END ATOM
M  V30 BEGIN BOND
M  V30 1 2 1 2
M  V30 2 1 2 3
M  V30 3 1 2 4
M  V30 4 2 4 5
M  V30 5 1 4 6
M  V30 6 1 5 7
M  V30 7 2 6 8
M  V30 8 2 7 9
M  V30 9 1 9 10
M  V30 10 2 10 11
M  V30 11 1 11 12
M  V30 12 1 12 13
M  V30 13 1 12 14
M  V30 14 1 13 15
M  V30 15 1 15 16
M  V30 16 1 15 17
M  V30 17 1 16 18
M  V30 18 1 8 9
M  V30 19 1 5 19
M  V30 20 1 6 20
M  V30 21 1 7 21
M  V30 22 1 8 22
M  V30 23 1 13 23
M  V30 24 1 13 24
M  V30 25 1 14 25
M  V30 26 1 14 26
M  V30 27 1 14 27
M  V30 28 1 15 28
M  V30 29 1 16 29
M  V30 30 1 16 30
M  V30 31 1 17 31
M  V30 32 1 17 32
M  V30 33 1 17 33
M  V30 34 1 18 34
M  V30 35 1 18 35
M  V30 36 1 18 36
M  V30 END BOND
M  V30 BEGIN COLLECTION
M  V30 MDLV30/STEABS ATOMS=(1 15)
M  V30 END COLLECTION
M  V30 END CTAB
M  END
>  <Structure No>
8434

>  <LogS>
-1.79

>  <MMFF94 Energy>
46.806

$$$$
Compound 8435
Actelion Java MolfileCreator 2.0

  0  0  0  0  0  0              0 V3000
M  V30 BEGIN CTAB
M  V30 COUNTS 20 21 0 0 0
M  V30 BEGIN ATOM
M  V30 1 S 3.2506 0.9402 -0.2563 0
M  V30 2 O 3.6901 1.1999 1.1573 0
M  V30 3 O 3.477 2.1752 -1.0812 0
M  V30 4 N 4.1665 -0.3739 -0.9062 0
M  V30 5 C 1.548 0.5311 -0.2718 0
M  V30 6 S 0.7224 -0.0353 -1.6364 0
M  V30 7 N 0.7474 0.6375 0.8159 0
M  V30 8 C -0.7237 -0.1488 -0.7917 0
M  V30 9 C -0.5204 0.2555 0.5183 0
M  V30 10 C -1.9688 -0.5694 -1.2515 0
M  V30 11 C -1.5776 0.2524 1.4291 0
M  V30 12 C -3.0434 -0.5782 -0.3463 0
M  V30 13 C -2.8455 -0.1675 0.9914 0
M  V30 14 O -4.3001 -0.9943 -0.7797 0
M  V30 15 H 4.0067 -1.1958 -0.2817 0
M  V30 16 H 5.1751 -0.1177 -0.8162 0
M  V30 17 H -2.1039 -0.881 -2.2792 0
M  V30 18 H -1.4264 0.567 2.4539 0
M  V30 19 H -3.6733 -0.1741 1.6891 0
M  V30 20 H -5.0964 -1.0128 -0.1532 0
M  V30 END ATOM
M  V30 BEGIN BOND
M  V30 1 2 1 2
M  V30 2 2 1 3
M  V30 3 1 1 4
M  V30 4 1 1 5
M  V30 5 1 5 6
M  V30 6 2 5 7
M  V30 7 1 6 8
M  V30 8 1 7 9
M  V30 9 1 8 10
M  V30 10 1 9 11
M  V30 11 2 10 12
M  V30 12 2 11 13
M  V30 13 1 12 14
M  V30 14 2 8 9
M  V30 15 1 12 13
M  V30 16 1 4 15
M  V30 17 1 4 16
M  V30 18 1 10 17
M  V30 19 1 11 18
M  V30 20 1 13 19
M  V30 21 1 14 20
M  V30 END BOND
M  V30 END CTAB
M  END
>  <Structure No>
8435

>  <LogS>
-2.5

>  <MMFF94 Energy>
-13.101

$$$$
Compound 8436
Actelion Java MolfileCreator 2.0

  0  0  0  0  0  0              0 V3000
M  V30 BEGIN CTAB
M  V30 COUNTS 27 28 0 0 0
M  V30 BEGIN ATOM
M  V30 1 F 4.6529 -0.5606 -2.0035 0
M  V30 2 C 3.9852 -0.144 -0.8994 0
M  V30 3 C 2.5976 0.0291 -0.9455 0
M  V30 4 C 4.6857 0.1235 0.2799 0
M  V30 5 C 1.8988 0.4609 0.1953 0
M  V30 6 C 4.0015 0.5732 1.4119 0
M  V30 7 C 0.4361 0.6681 0.1641 0
M  V30 8 C 2.6149 0.7486 1.3695 0
M  V30 9 O -0.0246 1.7571 0.6037 0
M  V30 10 N -0.4616 -0.347 -0.3342 0
M  V30 11 O 0.0394 -1.4868 -0.8739 0
M  V30 12 C -1.8905 -0.2303 -0.1942 0
M  V30 13 C -2.4675 0.1912 1.0182 0
M  V30 14 C -2.7309 -0.5933 -1.2602 0
M  V30 15 C -3.8573 0.2762 1.1473 0
M  V30 16 C -4.1202 -0.506 -1.1271 0
M  V30 17 C -4.683 -0.0687 0.0745 0
M  V30 18 H 2.0795 -0.1445 -1.8786 0
M  V30 19 H 5.7593 -0.0092 0.315 0
M  V30 20 H 4.5458 0.7877 2.3227 0
M  V30 21 H 2.0983 1.0974 2.2556 0
M  V30 22 H 0.0725 -1.3196 -1.8506 0
M  V30 23 H -1.8451 0.4336 1.8699 0
M  V30 24 H -2.3108 -0.9318 -2.1984 0
M  V30 25 H -4.2946 0.6022 2.0823 0
M  V30 26 H -4.7609 -0.7788 -1.9558 0
M  V30 27 H -5.7586 -0.0036 0.1765 0
M  V30 END ATOM
M  V30 BEGIN BOND
M  V30 1 1 1 2
M  V30 2 2 2 3
M  V30 3 1 2 4
M  V30 4 1 3 5
M  V30 5 2 4 6
M  V30 6 1 5 7
M  V30 7 2 5 8
M  V30 8 2 7 9
M  V30 9 1 7 10
M  V30 10 1 10 11
M  V30 11 1 10 12
M  V30 12 2 12 13
M  V30 13 1 12 14
M  V30 14 1 13 15
M  V30 15 2 14 16
M  V30 16 2 15 17
M  V30 17 1 6 8
M  V30 18 1 16 17
M  V30 19 1 3 18
M  V30 20 1 4 19
M  V30 21 1 6 20
M  V30 22 1 8 21
M  V30 23 1 11 22
M  V30 24 1 13 23
M  V30 25 1 14 24
M  V30 26 1 15 25
M  V30 27 1 16 26
M  V30 28 1 17 27
M  V30 END BOND
M  V30 END CTAB
M  END
>  <Structure No>
8436

>  <LogS>
-2.6

>  <MMFF94 Energy>
76.315

$$$$
Compound 8437
Actelion Java MolfileCreator 2.0

  0  0  0  0  0  0              0 V3000
M  V30 BEGIN CTAB
M  V30 COUNTS 29 30 0 0 0
M  V30 BEGIN ATOM
M  V30 1 O -3.2706 1.1158 -0.1593 0
M  V30 2 C -2.2919 0.6002 -0.7639 0
M  V30 3 N -1.3844 1.4423 -1.4827 0
M  V30 4 C -2.1264 -0.8706 -0.7638 0
M  V30 5 O -1.4891 2.7905 -1.405 0
M  V30 6 C -0.8568 -1.4974 -0.642 0
M  V30 7 C -3.2677 -1.6711 -0.9495 0
M  V30 8 N 0.345 -0.7692 -0.3472 0
M  V30 9 C -0.7568 -2.8861 -0.7997 0
M  V30 10 C -3.1526 -3.0575 -1.0682 0
M  V30 11 C 0.4434 0.1199 0.5943 0
M  V30 12 C -1.898 -3.6625 -1.0072 0
M  V30 13 C 1.7008 0.8499 0.8223 0
M  V30 14 N 1.7569 1.7619 1.8321 0
M  V30 15 C 2.8371 0.6341 0.0235 0
M  V30 16 C 2.8837 2.4754 2.0975 0
M  V30 17 C 4.0032 1.3579 0.2813 0
M  V30 18 C 4.0301 2.2849 1.3241 0
M  V30 19 H -0.6363 1.026 -2.0806 0
M  V30 20 H -2.0905 3.0423 -2.1517 0
M  V30 21 H -4.2482 -1.2185 -1.0366 0
M  V30 22 H 0.209 -3.3708 -0.7303 0
M  V30 23 H -4.0368 -3.6619 -1.2242 0
M  V30 24 H -0.4019 0.3292 1.2399 0
M  V30 25 H -1.8102 -4.7362 -1.1111 0
M  V30 26 H 2.8247 -0.0819 -0.7884 0
M  V30 27 H 2.8891 3.1908 2.9089 0
M  V30 28 H 4.8845 1.2006 -0.3266 0
M  V30 29 H 4.9297 2.8502 1.5306 0
M  V30 END ATOM
M  V30 BEGIN BOND
M  V30 1 2 1 2
M  V30 2 1 2 3
M  V30 3 1 2 4
M  V30 4 1 3 5
M  V30 5 2 4 6
M  V30 6 1 4 7
M  V30 7 1 6 8
M  V30 8 1 6 9
M  V30 9 2 7 10
M  V30 10 2 8 11
M  V30 11 2 9 12
M  V30 12 1 11 13
M  V30 13 2 13 14
M  V30 14 1 13 15
M  V30 15 1 14 16
M  V30 16 2 15 17
M  V30 17 2 16 18
M  V30 18 1 10 12
M  V30 19 1 17 18
M  V30 20 1 3 19
M  V30 21 1 5 20
M  V30 22 1 7 21
M  V30 23 1 9 22
M  V30 24 1 10 23
M  V30 25 1 11 24
M  V30 26 1 12 25
M  V30 27 1 15 26
M  V30 28 1 16 27
M  V30 29 1 17 28
M  V30 30 1 18 29
M  V30 END BOND
M  V30 END CTAB
M  END
>  <Structure No>
8437

>  <LogS>
-3.21

>  <MMFF94 Energy>
91.126

$$$$
Compound 8438
Actelion Java MolfileCreator 2.0

  0  0  0  0  0  0              0 V3000
M  V30 BEGIN CTAB
M  V30 COUNTS 30 31 0 0 0
M  V30 BEGIN ATOM
M  V30 1 F -4.0017 2.3195 -1.5192 0
M  V30 2 C -3.7287 1.1962 -0.8106 0
M  V30 3 C -2.402 0.7963 -0.6192 0
M  V30 4 C -4.7735 0.4342 -0.2814 0
M  V30 5 C -2.1097 -0.3677 0.1146 0
M  V30 6 C -4.4941 -0.7329 0.4333 0
M  V30 7 C -0.7119 -0.8132 0.3107 0
M  V30 8 C -3.1695 -1.137 0.6263 0
M  V30 9 O -0.46 -2.0493 0.2947 0
M  V30 10 N 0.3556 0.1328 0.5182 0
M  V30 11 O 0.0716 1.4223 0.8291 0
M  V30 12 C 1.7336 -0.2654 0.4313 0
M  V30 13 C 2.6035 0.3425 -0.5023 0
M  V30 14 C 2.2329 -1.2418 1.3091 0
M  V30 15 C 3.9583 -0.0307 -0.527 0
M  V30 16 C 2.1082 1.3997 -1.4508 0
M  V30 17 C 3.5781 -1.6133 1.2629 0
M  V30 18 C 4.4396 -1.0075 0.3478 0
M  V30 19 H -1.6092 1.3824 -1.0659 0
M  V30 20 H -5.8001 0.7433 -0.4307 0
M  V30 21 H -5.3045 -1.3256 0.8377 0
M  V30 22 H -2.9717 -2.0435 1.1852 0
M  V30 23 H 0.0191 1.4419 1.8191 0
M  V30 24 H 1.581 -1.7021 2.0407 0
M  V30 25 H 4.6434 0.4323 -1.2263 0
M  V30 26 H 2.8081 1.5361 -2.3025 0
M  V30 27 H 1.1206 1.1115 -1.8694 0
M  V30 28 H 2.0113 2.3657 -0.9127 0
M  V30 29 H 3.955 -2.3653 1.9442 0
M  V30 30 H 5.4834 -1.2921 0.3186 0
M  V30 END ATOM
M  V30 BEGIN BOND
M  V30 1 1 1 2
M  V30 2 2 2 3
M  V30 3 1 2 4
M  V30 4 1 3 5
M  V30 5 2 4 6
M  V30 6 1 5 7
M  V30 7 2 5 8
M  V30 8 2 7 9
M  V30 9 1 7 10
M  V30 10 1 10 11
M  V30 11 1 10 12
M  V30 12 2 12 13
M  V30 13 1 12 14
M  V30 14 1 13 15
M  V30 15 1 13 16
M  V30 16 2 14 17
M  V30 17 2 15 18
M  V30 18 1 6 8
M  V30 19 1 17 18
M  V30 20 1 3 19
M  V30 21 1 4 20
M  V30 22 1 6 21
M  V30 23 1 8 22
M  V30 24 1 11 23
M  V30 25 1 14 24
M  V30 26 1 15 25
M  V30 27 1 16 26
M  V30 28 1 16 27
M  V30 29 1 16 28
M  V30 30 1 17 29
M  V30 31 1 18 30
M  V30 END BOND
M  V30 END CTAB
M  END
>  <Structure No>
8438

>  <LogS>
-2.53

>  <MMFF94 Energy>
82.834

$$$$
Compound 8439
Actelion Java MolfileCreator 2.0

  0  0  0  0  0  0              0 V3000
M  V30 BEGIN CTAB
M  V30 COUNTS 36 37 0 0 0
M  V30 BEGIN ATOM
M  V30 1 O 0.475 -0.3958 -2.2185 0
M  V30 2 C 0.0767 -0.7022 -1.061 0
M  V30 3 N 1.0218 -1.0834 -0.0419 0
M  V30 4 C -1.3941 -0.6561 -0.7627 0
M  V30 5 O 0.567 -1.6896 1.0842 0
M  V30 6 C 2.4354 -0.8346 -0.1742 0
M  V30 7 C -1.7395 0.604 0.0349 0
M  V30 8 C 2.911 0.3572 -0.7512 0
M  V30 9 C 3.3605 -1.768 0.3215 0
M  V30 10 C -3.2099 0.6412 0.3545 0
M  V30 11 C 4.2895 0.5918 -0.872 0
M  V30 12 C 4.7331 -1.5294 0.2172 0
M  V30 13 C -3.6903 0.0678 1.5436 0
M  V30 14 C -4.1216 1.1961 -0.5598 0
M  V30 15 C 5.1981 -0.3544 -0.3753 0
M  V30 16 C 4.7806 1.8778 -1.4685 0
M  V30 17 C -5.0604 0.0709 1.8233 0
M  V30 18 C -5.4906 1.1991 -0.275 0
M  V30 19 C -5.9594 0.639 0.9168 0
M  V30 20 H -1.9668 -0.66 -1.7161 0
M  V30 21 H -1.6872 -1.5633 -0.1916 0
M  V30 22 H 0.5521 -2.6579 0.8692 0
M  V30 23 H -1.4599 1.507 -0.5512 0
M  V30 24 H -1.1489 0.627 0.9771 0
M  V30 25 H 2.2127 1.1115 -1.0904 0
M  V30 26 H 3.0206 -2.6874 0.7806 0
M  V30 27 H 5.4384 -2.2559 0.5987 0
M  V30 28 H -3.0049 -0.381 2.2515 0
M  V30 29 H -3.7719 1.6249 -1.4907 0
M  V30 30 H 6.2649 -0.1803 -0.4416 0
M  V30 31 H 4.1532 2.1607 -2.3403 0
M  V30 32 H 5.8301 1.7801 -1.817 0
M  V30 33 H 4.7291 2.6834 -0.7066 0
M  V30 34 H -5.4255 -0.3685 2.7431 0
M  V30 35 H -6.1884 1.6324 -0.9792 0
M  V30 36 H -7.0195 0.6412 1.1352 0
M  V30 END ATOM
M  V30 BEGIN BOND
M  V30 1 2 1 2
M  V30 2 1 2 3
M  V30 3 1 2 4
M  V30 4 1 3 5
M  V30 5 1 3 6
M  V30 6 1 4 7
M  V30 7 2 6 8
M  V30 8 1 6 9
M  V30 9 1 7 10
M  V30 10 1 8 11
M  V30 11 2 9 12
M  V30 12 2 10 13
M  V30 13 1 10 14
M  V30 14 2 11 15
M  V30 15 1 11 16
M  V30 16 1 13 17
M  V30 17 2 14 18
M  V30 18 2 17 19
M  V30 19 1 12 15
M  V30 20 1 18 19
M  V30 21 1 4 20
M  V30 22 1 4 21
M  V30 23 1 5 22
M  V30 24 1 7 23
M  V30 25 1 7 24
M  V30 26 1 8 25
M  V30 27 1 9 26
M  V30 28 1 12 27
M  V30 29 1 13 28
M  V30 30 1 14 29
M  V30 31 1 15 30
M  V30 32 1 16 31
M  V30 33 1 16 32
M  V30 34 1 16 33
M  V30 35 1 17 34
M  V30 36 1 18 35
M  V30 37 1 19 36
M  V30 END BOND
M  V30 END CTAB
M  END
>  <Structure No>
8439

>  <LogS>
-3.41

>  <MMFF94 Energy>
67.988

$$$$
Compound 8440
Actelion Java MolfileCreator 2.0

  0  0  0  0  0  0              0 V3000
M  V30 BEGIN CTAB
M  V30 COUNTS 36 37 0 0 0
M  V30 BEGIN ATOM
M  V30 1 O -0.9502 0.5542 -2.139 0
M  V30 2 C -0.4544 -0.237 -1.291 0
M  V30 3 N -1.3145 -0.9988 -0.4252 0
M  V30 4 C 1.0382 -0.339 -1.175 0
M  V30 5 O -0.8152 -2.0571 0.2603 0
M  V30 6 C -2.7282 -0.753 -0.3791 0
M  V30 7 C 1.5468 0.5544 -0.0409 0
M  V30 8 C -3.2479 0.4714 0.1045 0
M  V30 9 C -3.6082 -1.7631 -0.7944 0
M  V30 10 C 3.0423 0.4466 0.0869 0
M  V30 11 C -4.6381 0.6775 0.0989 0
M  V30 12 C -2.3453 1.564 0.6107 0
M  V30 13 C -4.9882 -1.5507 -0.7764 0
M  V30 14 C 3.6134 -0.5399 0.9081 0
M  V30 15 C 3.8807 1.2942 -0.6563 0
M  V30 16 C -5.5019 -0.3296 -0.3376 0
M  V30 17 C 5.0035 -0.6602 1.0012 0
M  V30 18 C 5.2704 1.1704 -0.5604 0
M  V30 19 C 5.8313 0.1955 0.2691 0
M  V30 20 H 1.3292 -1.3953 -0.988 0
M  V30 21 H 1.5054 -0.0251 -2.1343 0
M  V30 22 H -0.5657 -1.6926 1.1479 0
M  V30 23 H 1.2602 1.6111 -0.2396 0
M  V30 24 H 1.0673 0.2581 0.9175 0
M  V30 25 H -3.22 -2.71 -1.1482 0
M  V30 26 H -5.0557 1.6154 0.4441 0
M  V30 27 H -1.9892 2.1798 -0.2404 0
M  V30 28 H -1.473 1.1363 1.1475 0
M  V30 29 H -2.8834 2.224 1.3242 0
M  V30 30 H -5.6599 -2.3316 -1.1088 0
M  V30 31 H 2.9828 -1.2155 1.473 0
M  V30 32 H 3.4585 2.0475 -1.3099 0
M  V30 33 H -6.5717 -0.1647 -0.3308 0
M  V30 34 H 5.4389 -1.4194 1.6377 0
M  V30 35 H 5.9124 1.8277 -1.1324 0
M  V30 36 H 6.9069 0.1001 0.3413 0
M  V30 END ATOM
M  V30 BEGIN BOND
M  V30 1 2 1 2
M  V30 2 1 2 3
M  V30 3 1 2 4
M  V30 4 1 3 5
M  V30 5 1 3 6
M  V30 6 1 4 7
M  V30 7 2 6 8
M  V30 8 1 6 9
M  V30 9 1 7 10
M  V30 10 1 8 11
M  V30 11 1 8 12
M  V30 12 2 9 13
M  V30 13 2 10 14
M  V30 14 1 10 15
M  V30 15 2 11 16
M  V30 16 1 14 17
M  V30 17 2 15 18
M  V30 18 2 17 19
M  V30 19 1 13 16
M  V30 20 1 18 19
M  V30 21 1 4 20
M  V30 22 1 4 21
M  V30 23 1 5 22
M  V30 24 1 7 23
M  V30 25 1 7 24
M  V30 26 1 9 25
M  V30 27 1 11 26
M  V30 28 1 12 27
M  V30 29 1 12 28
M  V30 30 1 12 29
M  V30 31 1 13 30
M  V30 32 1 14 31
M  V30 33 1 15 32
M  V30 34 1 16 33
M  V30 35 1 17 34
M  V30 36 1 18 35
M  V30 37 1 19 36
M  V30 END BOND
M  V30 END CTAB
M  END
>  <Structure No>
8440

>  <LogS>
-2.79

>  <MMFF94 Energy>
70.768

$$$$
Compound 8441
Actelion Java MolfileCreator 2.0

  0  0  0  0  0  0              0 V3000
M  V30 BEGIN CTAB
M  V30 COUNTS 50 52 0 0 0
M  V30 BEGIN ATOM
M  V30 1 Cl 2.9238 -2.2735 2.7612 0
M  V30 2 C 2.8107 -0.996 1.5609 0
M  V30 3 C 3.8023 0.0017 1.4594 0
M  V30 4 C 1.7295 -0.9539 0.6841 0
M  V30 5 O 4.8903 -0.043 2.3454 0
M  V30 6 C 3.6756 1.0166 0.4717 0
M  V30 7 O 0.665 -1.8475 0.6297 0
M  V30 8 C 1.6156 0.026 -0.2617 0
M  V30 9 C 5.9608 0.8956 2.3566 0
M  V30 10 C 2.5674 1.034 -0.4074 0
M  V30 11 C -0.2595 -1.4708 -0.4013 0 CFG=2
M  V30 12 C 0.3943 -0.2435 -0.9925 0
M  V30 13 O 2.3937 2.0091 -1.4004 0
M  V30 14 C -1.5918 -1.12 0.2418 0
M  V30 15 C -0.4016 -2.6059 -1.4577 0 CFG=2
M  V30 16 O -0.0262 0.4129 -1.9822 0
M  V30 17 C 3.299 3.0818 -1.6367 0
M  V30 18 O -1.7522 0.132 0.8483 0
M  V30 19 C -2.5676 -2.0329 0.3508 0
M  V30 20 C -1.1399 -3.8134 -0.853 0
M  V30 21 C 0.9527 -3.055 -2.0331 0
M  V30 22 C -2.4774 1.2046 0.246 0
M  V30 23 C -2.427 -3.3839 -0.2141 0
M  V30 24 C -3.9915 1.0047 0.386 0
M  V30 25 O -3.3771 -4.2041 -0.1094 0
M  V30 26 C -4.7953 2.2121 -0.1218 0
M  V30 27 C -4.7539 3.3988 0.8411 0
M  V30 28 H 4.4323 1.7824 0.3891 0
M  V30 29 H 6.6771 0.6186 3.1568 0
M  V30 30 H 6.4931 0.8794 1.3821 0
M  V30 31 H 5.5726 1.9152 2.5645 0
M  V30 32 H -1.0149 -2.2211 -2.3046 0
M  V30 33 H 2.9185 3.699 -2.4762 0
M  V30 34 H 3.3776 3.7213 -0.7321 0
M  V30 35 H 4.2986 2.6839 -1.9118 0
M  V30 36 H -3.4785 -1.787 0.8811 0
M  V30 37 H -0.5078 -4.3017 -0.0796 0
M  V30 38 H -1.3545 -4.5573 -1.6514 0
M  V30 39 H 1.6125 -3.4511 -1.2319 0
M  V30 40 H 1.4653 -2.2078 -2.5348 0
M  V30 41 H 0.7984 -3.8525 -2.7906 0
M  V30 42 H -2.2052 1.2975 -0.8266 0
M  V30 43 H -2.1735 2.1402 0.7573 0
M  V30 44 H -4.2894 0.1256 -0.223 0
M  V30 45 H -4.2493 0.7915 1.4463 0
M  V30 46 H -5.8563 1.9021 -0.2411 0
M  V30 47 H -4.4242 2.5281 -1.1211 0
M  V30 48 H -5.0833 3.0883 1.8555 0
M  V30 49 H -3.7324 3.8272 0.8991 0
M  V30 50 H -5.4395 4.1927 0.4765 0
M  V30 END ATOM
M  V30 BEGIN BOND
M  V30 1 1 1 2
M  V30 2 2 2 3
M  V30 3 1 2 4
M  V30 4 1 3 5
M  V30 5 1 3 6
M  V30 6 1 4 7
M  V30 7 2 4 8
M  V30 8 1 5 9
M  V30 9 2 6 10
M  V30 10 1 7 11
M  V30 11 1 8 12
M  V30 12 1 10 13
M  V30 13 1 11 14
M  V30 14 1 11 15
M  V30 15 2 12 16
M  V30 16 1 13 17
M  V30 17 1 14 18
M  V30 18 2 14 19
M  V30 19 1 15 20
M  V30 20 1 15 21
M  V30 21 1 18 22
M  V30 22 1 19 23
M  V30 23 1 22 24
M  V30 24 2 23 25
M  V30 25 1 24 26
M  V30 26 1 26 27
M  V30 27 1 8 10
M  V30 28 1 11 12
M  V30 29 1 20 23
M  V30 30 1 6 28
M  V30 31 1 9 29
M  V30 32 1 9 30
M  V30 33 1 9 31
M  V30 34 1 15 32
M  V30 35 1 17 33
M  V30 36 1 17 34
M  V30 37 1 17 35
M  V30 38 1 19 36
M  V30 39 1 20 37
M  V30 40 1 20 38
M  V30 41 1 21 39
M  V30 42 1 21 40
M  V30 43 1 21 41
M  V30 44 1 22 42
M  V30 45 1 22 43
M  V30 46 1 24 44
M  V30 47 1 24 45
M  V30 48 1 26 46
M  V30 49 1 26 47
M  V30 50 1 27 48
M  V30 51 1 27 49
M  V30 52 1 27 50
M  V30 END BOND
M  V30 BEGIN COLLECTION
M  V30 MDLV30/STEABS ATOMS=(2 11 15)
M  V30 END COLLECTION
M  V30 END CTAB
M  END
>  <Structure No>
8441

>  <LogS>
-4.7

>  <MMFF94 Energy>
102.07

$$$$
Compound 8442
Actelion Java MolfileCreator 2.0

  0  0  0  0  0  0              0 V3000
M  V30 BEGIN CTAB
M  V30 COUNTS 47 47 0 0 0
M  V30 BEGIN ATOM
M  V30 1 O 0.3952 0.7906 -1.6608 0
M  V30 2 C -0.0103 -0.1838 -0.9703 0
M  V30 3 O -1.1525 -0.07 -0.17 0
M  V30 4 C 0.7567 -1.469 -0.9746 0
M  V30 5 C -1.964 1.1061 -0.1064 0 CFG=1
M  V30 6 C 1.4596 -1.7208 0.3685 0
M  V30 7 C -2.8602 1.1855 -1.3633 0 CFG=2
M  V30 8 C -2.8068 1.0525 1.1923 0 CFG=1
M  V30 9 C 2.4837 -0.6394 0.7592 0
M  V30 10 O -3.4083 2.4743 -1.5125 0
M  V30 11 C -3.9531 0.0721 -1.3522 0 CFG=1
M  V30 12 O -3.0415 2.3513 1.6757 0
M  V30 13 C -4.1681 0.3446 0.9612 0 CFG=1
M  V30 14 C 3.6889 -0.5893 -0.1913 0
M  V30 15 O -4.0677 -0.5889 -0.098 0
M  V30 16 O -5.2006 0.5761 -1.7583 0
M  V30 17 C -4.6253 -0.3887 2.2295 0
M  V30 18 C 4.7585 0.381 0.3312 0
M  V30 19 O -5.8798 -0.9818 2.0273 0
M  V30 20 C 5.919 0.5695 -0.6575 0
M  V30 21 C 6.8015 -0.6725 -0.7771 0
M  V30 22 H 0.0426 -2.2991 -1.1617 0
M  V30 23 H 1.4909 -1.4807 -1.8075 0
M  V30 24 H -1.297 1.9971 -0.0692 0
M  V30 25 H 0.6904 -1.7849 1.1693 0
M  V30 26 H 1.9678 -2.7087 0.3278 0
M  V30 27 H -2.2165 1.02 -2.254 0
M  V30 28 H -2.2206 0.4853 1.9555 0
M  V30 29 H 1.9914 0.3563 0.7991 0
M  V30 30 H 2.8452 -0.8706 1.7853 0
M  V30 31 H -4.0048 2.6507 -0.7415 0
M  V30 32 H -3.6371 -0.6988 -2.0914 0
M  V30 33 H -2.1974 2.6606 2.0976 0
M  V30 34 H -4.9535 1.1038 0.7348 0
M  V30 35 H 4.1217 -1.6083 -0.2812 0
M  V30 36 H 3.356 -0.2506 -1.1953 0
M  V30 37 H -5.8087 -0.2047 -1.8345 0
M  V30 38 H -4.6694 0.3184 3.0895 0
M  V30 39 H -3.8962 -1.1881 2.4823 0
M  V30 40 H 4.289 1.3748 0.5017 0
M  V30 41 H 5.1517 0.0223 1.3078 0
M  V30 42 H -6.5509 -0.2516 2.0762 0
M  V30 43 H 6.5506 1.4117 -0.3005 0
M  V30 44 H 5.5269 0.846 -1.6602 0
M  V30 45 H 6.2462 -1.5046 -1.257 0
M  V30 46 H 7.1589 -0.9936 0.2242 0
M  V30 47 H 7.6843 -0.4378 -1.4082 0
M  V30 END ATOM
M  V30 BEGIN BOND
M  V30 1 2 1 2
M  V30 2 1 2 3
M  V30 3 1 2 4
M  V30 4 1 3 5
M  V30 5 1 4 6
M  V30 6 1 5 7
M  V30 7 1 5 8
M  V30 8 1 6 9
M  V30 9 1 7 10
M  V30 10 1 7 11
M  V30 11 1 8 12
M  V30 12 1 8 13
M  V30 13 1 9 14
M  V30 14 1 11 15
M  V30 15 1 11 16
M  V30 16 1 13 17
M  V30 17 1 14 18
M  V30 18 1 17 19
M  V30 19 1 18 20
M  V30 20 1 20 21
M  V30 21 1 13 15
M  V30 22 1 4 22
M  V30 23 1 4 23
M  V30 24 1 5 24
M  V30 25 1 6 25
M  V30 26 1 6 26
M  V30 27 1 7 27
M  V30 28 1 8 28
M  V30 29 1 9 29
M  V30 30 1 9 30
M  V30 31 1 10 31
M  V30 32 1 11 32
M  V30 33 1 12 33
M  V30 34 1 13 34
M  V30 35 1 14 35
M  V30 36 1 14 36
M  V30 37 1 16 37
M  V30 38 1 17 38
M  V30 39 1 17 39
M  V30 40 1 18 40
M  V30 41 1 18 41
M  V30 42 1 19 42
M  V30 43 1 20 43
M  V30 44 1 20 44
M  V30 45 1 21 45
M  V30 46 1 21 46
M  V30 47 1 21 47
M  V30 END BOND
M  V30 BEGIN COLLECTION
M  V30 MDLV30/STEABS ATOMS=(5 5 7 8 11 13)
M  V30 END COLLECTION
M  V30 END CTAB
M  END
>  <Structure No>
8442

>  <LogS>
-2.63

>  <MMFF94 Energy>
60.455

$$$$
Compound 8443
Actelion Java MolfileCreator 2.0

  0  0  0  0  0  0              0 V3000
M  V30 BEGIN CTAB
M  V30 COUNTS 38 42 0 0 0
M  V30 BEGIN ATOM
M  V30 1 S 2.0855 -1.0006 -1.7516 0
M  V30 2 O 2.2857 -2.4492 -2.0953 0
M  V30 3 O 2.9809 -0.1117 -2.567 0
M  V30 4 O 0.4599 -0.5524 -1.9266 0
M  V30 5 C 2.2582 -0.7153 -0.0832 0
M  V30 6 C -0.0249 -0.1486 -0.6407 0
M  V30 7 C 1.0691 -0.2627 0.4072 0
M  V30 8 C 3.3853 -0.8889 0.7176 0
M  V30 9 C -0.4535 1.3105 -0.7361 0
M  V30 10 C -1.1651 -1.0825 -0.2532 0
M  V30 11 C 0.9481 0.0482 1.7695 0
M  V30 12 C 3.2811 -0.5826 2.0823 0
M  V30 13 C -1.7416 1.7206 -0.3378 0
M  V30 14 C 0.4591 2.2832 -1.1897 0
M  V30 15 C -2.425 -0.5778 0.1259 0
M  V30 16 C -0.9559 -2.4753 -0.2295 0
M  V30 17 C 2.0629 -0.1142 2.6084 0
M  V30 18 O -2.681 0.7919 0.1061 0
M  V30 19 C -2.0986 3.0719 -0.391 0
M  V30 20 C 0.0944 3.6348 -1.2445 0
M  V30 21 C -3.4436 -1.451 0.5215 0
M  V30 22 C -1.9813 -3.3453 0.1637 0
M  V30 23 C -1.185 4.0253 -0.8438 0
M  V30 24 O 0.9973 4.5963 -1.6926 0
M  V30 25 C -3.2234 -2.8291 0.5391 0
M  V30 26 O -1.7739 -4.7225 0.1875 0
M  V30 27 H 4.3152 -1.2501 0.2988 0
M  V30 28 H 0.0098 0.4083 2.1715 0
M  V30 29 H 4.1383 -0.7066 2.7311 0
M  V30 30 H 1.4572 1.9932 -1.4903 0
M  V30 31 H 0.0066 -2.8847 -0.5061 0
M  V30 32 H 1.9846 0.1217 3.6616 0
M  V30 33 H -3.0892 3.3825 -0.084 0
M  V30 34 H -4.41 -1.0589 0.8121 0
M  V30 35 H -1.4715 5.0685 -0.8831 0
M  V30 36 H 1.9333 4.3463 -1.9893 0
M  V30 37 H -4.0187 -3.4969 0.8451 0
M  V30 38 H -0.8842 -5.1287 -0.0776 0
M  V30 END ATOM
M  V30 BEGIN BOND
M  V30 1 2 1 2
M  V30 2 2 1 3
M  V30 3 1 1 4
M  V30 4 1 1 5
M  V30 5 1 4 6
M  V30 6 2 5 7
M  V30 7 1 5 8
M  V30 8 1 6 9
M  V30 9 1 6 10
M  V30 10 1 7 11
M  V30 11 2 8 12
M  V30 12 2 9 13
M  V30 13 1 9 14
M  V30 14 2 10 15
M  V30 15 1 10 16
M  V30 16 2 11 17
M  V30 17 1 13 18
M  V30 18 1 13 19
M  V30 19 2 14 20
M  V30 20 1 15 21
M  V30 21 2 16 22
M  V30 22 2 19 23
M  V30 23 1 20 24
M  V30 24 2 21 25
M  V30 25 1 22 26
M  V30 26 1 6 7
M  V30 27 1 12 17
M  V30 28 1 15 18
M  V30 29 1 20 23
M  V30 30 1 22 25
M  V30 31 1 8 27
M  V30 32 1 11 28
M  V30 33 1 12 29
M  V30 34 1 14 30
M  V30 35 1 16 31
M  V30 36 1 17 32
M  V30 37 1 19 33
M  V30 38 1 21 34
M  V30 39 1 23 35
M  V30 40 1 24 36
M  V30 41 1 25 37
M  V30 42 1 26 38
M  V30 END BOND
M  V30 END CTAB
M  END
>  <Structure No>
8443

>  <LogS>
-3.5

>  <MMFF94 Energy>
16.218

$$$$
Compound 8444
Actelion Java MolfileCreator 2.0

  0  0  0  0  0  0              0 V3000
M  V30 BEGIN CTAB
M  V30 COUNTS 35 36 0 0 0
M  V30 BEGIN ATOM
M  V30 1 O -1.6697 -1.5106 1.1129 0
M  V30 2 C -1.0798 -0.4586 0.742 0
M  V30 3 N -1.8125 0.7787 0.6682 0
M  V30 4 C 0.3667 -0.512 0.4381 0
M  V30 5 O -1.1985 1.9251 1.0587 0
M  V30 6 C -3.225 0.804 0.378 0
M  V30 7 C 0.9158 0.2885 -0.575 0
M  V30 8 C 1.2005 -1.3982 1.138 0
M  V30 9 C -4.0446 1.7972 0.9435 0
M  V30 10 C -3.7987 -0.1319 -0.5038 0
M  V30 11 C 2.2814 0.232 -0.8725 0
M  V30 12 C 2.569 -1.4682 0.8573 0
M  V30 13 C -5.4117 1.8384 0.652 0
M  V30 14 C -5.1661 -0.0861 -0.7928 0
M  V30 15 O 2.7722 1.0592 -1.8943 0
M  V30 16 C 3.11 -0.646 -0.1489 0
M  V30 17 O 3.3533 -2.3647 1.5992 0
M  V30 18 C -5.9724 0.8964 -0.2133 0
M  V30 19 C 4.134 1.1086 -2.3073 0
M  V30 20 C 4.7551 -2.5439 1.4253 0
M  V30 21 H -0.9157 2.3692 0.2196 0
M  V30 22 H 0.2808 0.9411 -1.1603 0
M  V30 23 H 0.7906 -2.0308 1.9165 0
M  V30 24 H -3.6291 2.5339 1.6193 0
M  V30 25 H -3.1874 -0.8863 -0.982 0
M  V30 26 H -6.0366 2.602 1.0973 0
M  V30 27 H -5.5997 -0.8094 -1.4713 0
M  V30 28 H 4.1654 -0.6942 -0.3716 0
M  V30 29 H -7.0306 0.9308 -0.4389 0
M  V30 30 H 4.7784 1.4278 -1.461 0
M  V30 31 H 4.2368 1.8462 -3.1295 0
M  V30 32 H 4.4563 0.1135 -2.6801 0
M  V30 33 H 5.1139 -3.3114 2.1413 0
M  V30 34 H 4.9703 -2.8926 0.3931 0
M  V30 35 H 5.2899 -1.5919 1.6274 0
M  V30 END ATOM
M  V30 BEGIN BOND
M  V30 1 2 1 2
M  V30 2 1 2 3
M  V30 3 1 2 4
M  V30 4 1 3 5
M  V30 5 1 3 6
M  V30 6 2 4 7
M  V30 7 1 4 8
M  V30 8 2 6 9
M  V30 9 1 6 10
M  V30 10 1 7 11
M  V30 11 2 8 12
M  V30 12 1 9 13
M  V30 13 2 10 14
M  V30 14 1 11 15
M  V30 15 2 11 16
M  V30 16 1 12 17
M  V30 17 2 13 18
M  V30 18 1 15 19
M  V30 19 1 17 20
M  V30 20 1 12 16
M  V30 21 1 14 18
M  V30 22 1 5 21
M  V30 23 1 7 22
M  V30 24 1 8 23
M  V30 25 1 9 24
M  V30 26 1 10 25
M  V30 27 1 13 26
M  V30 28 1 14 27
M  V30 29 1 16 28
M  V30 30 1 18 29
M  V30 31 1 19 30
M  V30 32 1 19 31
M  V30 33 1 19 32
M  V30 34 1 20 33
M  V30 35 1 20 34
M  V30 36 1 20 35
M  V30 END BOND
M  V30 END CTAB
M  END
>  <Structure No>
8444

>  <LogS>
-3.1

>  <MMFF94 Energy>
84.156

$$$$
Compound 8445
Actelion Java MolfileCreator 2.0

  0  0  0  0  0  0              0 V3000
M  V30 BEGIN CTAB
M  V30 COUNTS 30 31 0 0 0
M  V30 BEGIN ATOM
M  V30 1 Cl 1.8894 -0.4105 2.3005 0
M  V30 2 C 2.1137 0.1224 0.6372 0
M  V30 3 C 1.8233 -0.714 -0.464 0
M  V30 4 C 2.6579 1.3945 0.421 0
M  V30 5 C 1.2094 -2.0503 -0.2931 0
M  V30 6 C 2.1239 -0.267 -1.7616 0
M  V30 7 C 2.9276 1.8375 -0.8767 0
M  V30 8 O 1.7126 -3.0346 -0.8985 0
M  V30 9 N 0.0582 -2.2562 0.5463 0
M  V30 10 C 2.6665 1.0037 -1.9662 0
M  V30 11 Cl 3.608 3.4333 -1.1361 0
M  V30 12 O -0.1207 -3.4803 1.1031 0
M  V30 13 C -0.946 -1.2413 0.7529 0
M  V30 14 C -1.288 -0.3386 -0.2715 0
M  V30 15 C -1.6175 -1.1609 1.984 0
M  V30 16 C -2.265 0.646 -0.06 0
M  V30 17 C -2.5803 -0.1724 2.2017 0
M  V30 18 C -2.8962 0.7356 1.1891 0
M  V30 19 C -2.5804 1.638 -1.1403 0
M  V30 20 H 2.8823 2.0359 1.2643 0
M  V30 21 H 1.9156 -0.8948 -2.6195 0
M  V30 22 H 2.8801 1.3402 -2.9726 0
M  V30 23 H 0.3591 -3.4414 1.9701 0
M  V30 24 H -0.8072 -0.4088 -1.2387 0
M  V30 25 H -1.3786 -1.8483 2.7849 0
M  V30 26 H -3.0785 -0.1062 3.1604 0
M  V30 27 H -3.6362 1.5038 1.377 0
M  V30 28 H -1.87 2.4887 -1.078 0
M  V30 29 H -2.4925 1.165 -2.1415 0
M  V30 30 H -3.617 2.0227 -1.0324 0
M  V30 END ATOM
M  V30 BEGIN BOND
M  V30 1 1 1 2
M  V30 2 2 2 3
M  V30 3 1 2 4
M  V30 4 1 3 5
M  V30 5 1 3 6
M  V30 6 2 4 7
M  V30 7 2 5 8
M  V30 8 1 5 9
M  V30 9 2 6 10
M  V30 10 1 7 11
M  V30 11 1 9 12
M  V30 12 1 9 13
M  V30 13 2 13 14
M  V30 14 1 13 15
M  V30 15 1 14 16
M  V30 16 2 15 17
M  V30 17 2 16 18
M  V30 18 1 16 19
M  V30 19 1 7 10
M  V30 20 1 17 18
M  V30 21 1 4 20
M  V30 22 1 6 21
M  V30 23 1 10 22
M  V30 24 1 12 23
M  V30 25 1 14 24
M  V30 26 1 15 25
M  V30 27 1 17 26
M  V30 28 1 18 27
M  V30 29 1 19 28
M  V30 30 1 19 29
M  V30 31 1 19 30
M  V30 END BOND
M  V30 END CTAB
M  END
>  <Structure No>
8445

>  <LogS>
-4.47

>  <MMFF94 Energy>
75.979

$$$$
Compound 8446
Actelion Java MolfileCreator 2.0

  0  0  0  0  0  0              0 V3000
M  V30 BEGIN CTAB
M  V30 COUNTS 30 31 0 0 0
M  V30 BEGIN ATOM
M  V30 1 Cl 1.889 2.5467 1.5603 0
M  V30 2 C 2.7152 1.1219 0.9371 0
M  V30 3 C 2.0107 -0.0504 0.5895 0
M  V30 4 C 4.1023 1.1827 0.7545 0
M  V30 5 C 0.5509 -0.15 0.7874 0
M  V30 6 C 2.7183 -1.1495 0.0753 0
M  V30 7 C 4.7949 0.0851 0.2355 0
M  V30 8 O 0.0729 0.0715 1.9336 0
M  V30 9 N -0.3261 -0.4856 -0.3036 0
M  V30 10 C 4.1023 -1.08 -0.1025 0
M  V30 11 Cl 6.5326 0.1696 0.011 0
M  V30 12 O 0.1779 -0.7377 -1.5372 0
M  V30 13 C -1.7505 -0.4876 -0.1312 0
M  V30 14 C -2.4694 0.7161 0.0578 0
M  V30 15 C -2.4396 -1.7076 -0.1781 0
M  V30 16 C -3.8599 0.6617 0.2529 0
M  V30 17 C -1.7734 2.0498 0.0886 0
M  V30 18 C -3.8243 -1.7445 -0.0012 0
M  V30 19 C -4.5325 -0.5623 0.2202 0
M  V30 20 H 4.6417 2.0853 1.013 0
M  V30 21 H 2.2034 -2.0698 -0.1691 0
M  V30 22 H 4.6359 -1.9349 -0.4977 0
M  V30 23 H 0.2815 -1.7228 -1.5779 0
M  V30 24 H -1.898 -2.6313 -0.3386 0
M  V30 25 H -4.4265 1.5693 0.4228 0
M  V30 26 H -0.9209 2.0673 -0.6222 0
M  V30 27 H -1.4008 2.252 1.114 0
M  V30 28 H -2.4686 2.8655 -0.2039 0
M  V30 29 H -4.3482 -2.6911 -0.0302 0
M  V30 30 H -5.6048 -0.594 0.3642 0
M  V30 END ATOM
M  V30 BEGIN BOND
M  V30 1 1 1 2
M  V30 2 2 2 3
M  V30 3 1 2 4
M  V30 4 1 3 5
M  V30 5 1 3 6
M  V30 6 2 4 7
M  V30 7 2 5 8
M  V30 8 1 5 9
M  V30 9 2 6 10
M  V30 10 1 7 11
M  V30 11 1 9 12
M  V30 12 1 9 13
M  V30 13 2 13 14
M  V30 14 1 13 15
M  V30 15 1 14 16
M  V30 16 1 14 17
M  V30 17 2 15 18
M  V30 18 2 16 19
M  V30 19 1 7 10
M  V30 20 1 18 19
M  V30 21 1 4 20
M  V30 22 1 6 21
M  V30 23 1 10 22
M  V30 24 1 12 23
M  V30 25 1 15 24
M  V30 26 1 16 25
M  V30 27 1 17 26
M  V30 28 1 17 27
M  V30 29 1 17 28
M  V30 30 1 18 29
M  V30 31 1 19 30
M  V30 END BOND
M  V30 END CTAB
M  END
>  <Structure No>
8446

>  <LogS>
-4.17

>  <MMFF94 Energy>
79.939

$$$$
Compound 8447
Actelion Java MolfileCreator 2.0

  0  0  0  0  0  0              0 V3000
M  V30 BEGIN CTAB
M  V30 COUNTS 38 39 0 0 0
M  V30 BEGIN ATOM
M  V30 1 O -0.9528 1.7474 -0.5557 0
M  V30 2 C -0.5551 0.55 -0.5464 0
M  V30 3 N -1.51 -0.5125 -0.7184 0
M  V30 4 C 0.8889 0.2667 -0.3747 0
M  V30 5 O -1.1256 -1.6738 -1.3061 0
M  V30 6 C -2.8991 -0.3178 -0.4023 0
M  V30 7 C 1.319 -0.9246 0.2324 0
M  V30 8 C 1.8457 1.21 -0.7855 0
M  V30 9 C -3.3169 0.0222 0.9078 0
M  V30 10 C -3.861 -0.4904 -1.4103 0
M  V30 11 C 2.6809 -1.1884 0.4097 0
M  V30 12 C 3.2196 0.9569 -0.6153 0
M  V30 13 C -4.6825 0.2397 1.1597 0
M  V30 14 C -2.3314 0.1681 2.036 0
M  V30 15 C -5.2158 -0.2884 -1.1396 0
M  V30 16 O 3.0498 -2.3965 1.0204 0
M  V30 17 C 3.6279 -0.2419 -0.0218 0
M  V30 18 O 4.2077 1.8673 -1.0203 0
M  V30 19 C -5.6251 0.0831 0.1412 0
M  V30 20 C 4.394 -2.7966 1.2661 0
M  V30 21 C 3.9422 3.1237 -1.6356 0
M  V30 22 H -1.2002 -1.5095 -2.2811 0
M  V30 23 H 0.598 -1.6473 0.5933 0
M  V30 24 H 1.516 2.1316 -1.2465 0
M  V30 25 H -3.5578 -0.763 -2.413 0
M  V30 26 H -5.0207 0.5209 2.1497 0
M  V30 27 H -1.8791 1.181 2.0089 0
M  V30 28 H -2.8286 0.0293 3.0198 0
M  V30 29 H -1.5309 -0.5971 1.9578 0
M  V30 30 H -5.949 -0.4135 -1.926 0
M  V30 31 H 4.6869 -0.4231 0.1031 0
M  V30 32 H -6.6754 0.2456 0.3468 0
M  V30 33 H 4.9504 -2.8744 0.3082 0
M  V30 34 H 4.8922 -2.0678 1.9401 0
M  V30 35 H 4.392 -3.791 1.7577 0
M  V30 36 H 4.9041 3.6339 -1.8474 0
M  V30 37 H 3.343 3.7639 -0.954 0
M  V30 38 H 3.4013 2.9731 -2.5937 0
M  V30 END ATOM
M  V30 BEGIN BOND
M  V30 1 2 1 2
M  V30 2 1 2 3
M  V30 3 1 2 4
M  V30 4 1 3 5
M  V30 5 1 3 6
M  V30 6 2 4 7
M  V30 7 1 4 8
M  V30 8 2 6 9
M  V30 9 1 6 10
M  V30 10 1 7 11
M  V30 11 2 8 12
M  V30 12 1 9 13
M  V30 13 1 9 14
M  V30 14 2 10 15
M  V30 15 1 11 16
M  V30 16 2 11 17
M  V30 17 1 12 18
M  V30 18 2 13 19
M  V30 19 1 16 20
M  V30 20 1 18 21
M  V30 21 1 12 17
M  V30 22 1 15 19
M  V30 23 1 5 22
M  V30 24 1 7 23
M  V30 25 1 8 24
M  V30 26 1 10 25
M  V30 27 1 13 26
M  V30 28 1 14 27
M  V30 29 1 14 28
M  V30 30 1 14 29
M  V30 31 1 15 30
M  V30 32 1 17 31
M  V30 33 1 19 32
M  V30 34 1 20 33
M  V30 35 1 20 34
M  V30 36 1 20 35
M  V30 37 1 21 36
M  V30 38 1 21 37
M  V30 39 1 21 38
M  V30 END BOND
M  V30 END CTAB
M  END
>  <Structure No>
8447

>  <LogS>
-3.65

>  <MMFF94 Energy>
90.928

$$$$
Compound 8448
Actelion Java MolfileCreator 2.0

  0  0  0  0  0  0              0 V3000
M  V30 BEGIN CTAB
M  V30 COUNTS 38 39 0 0 0
M  V30 BEGIN ATOM
M  V30 1 O 0.3175 -2.0654 -0.0793 0
M  V30 2 C 0.1003 -0.8319 0.0739 0
M  V30 3 N 1.2016 0.0507 0.3583 0
M  V30 4 C -1.2898 -0.3235 -0.0041 0
M  V30 5 O 0.9988 1.1004 1.195 0
M  V30 6 C 2.5233 -0.1847 -0.1707 0
M  V30 7 C -2.371 -1.1783 0.2693 0
M  V30 8 C -1.547 1.0045 -0.3828 0
M  V30 9 C 3.6562 0.2525 0.5391 0
M  V30 10 C 2.7022 -0.816 -1.4157 0
M  V30 11 C -3.6948 -0.7074 0.1881 0
M  V30 12 C -2.8574 1.4854 -0.469 0
M  V30 13 C 4.9464 0.0528 0.0229 0
M  V30 14 C 3.9859 -1.0311 -1.9224 0
M  V30 15 O -4.8019 -1.5249 0.4617 0
M  V30 16 C -3.9288 0.622 -0.1775 0
M  V30 17 O -3.0511 2.8218 -0.85 0
M  V30 18 C 5.1049 -0.6077 -1.2033 0
M  V30 19 C 6.1491 0.4789 0.8117 0
M  V30 20 C -4.7179 -2.8939 0.8439 0
M  V30 21 C -4.3247 3.4451 -0.9803 0
M  V30 22 H 1.1396 0.7356 2.1065 0
M  V30 23 H -2.1766 -2.2032 0.5553 0
M  V30 24 H -0.7312 1.6705 -0.6343 0
M  V30 25 H 3.5379 0.7394 1.499 0
M  V30 26 H 1.8501 -1.1306 -2.0039 0
M  V30 27 H 4.1133 -1.5251 -2.877 0
M  V30 28 H -4.9511 0.9705 -0.2361 0
M  V30 29 H 6.0939 -0.7894 -1.6055 0
M  V30 30 H 6.9979 0.7173 0.136 0
M  V30 31 H 5.9228 1.3867 1.4106 0
M  V30 32 H 6.4505 -0.3408 1.4964 0
M  V30 33 H -5.7422 -3.2916 0.995 0
M  V30 34 H -4.1552 -2.9907 1.7963 0
M  V30 35 H -4.2221 -3.4838 0.0443 0
M  V30 36 H -4.8579 3.4319 -0.0062 0
M  V30 37 H -4.1819 4.4998 -1.2926 0
M  V30 38 H -4.9276 2.924 -1.7537 0
M  V30 END ATOM
M  V30 BEGIN BOND
M  V30 1 2 1 2
M  V30 2 1 2 3
M  V30 3 1 2 4
M  V30 4 1 3 5
M  V30 5 1 3 6
M  V30 6 2 4 7
M  V30 7 1 4 8
M  V30 8 2 6 9
M  V30 9 1 6 10
M  V30 10 1 7 11
M  V30 11 2 8 12
M  V30 12 1 9 13
M  V30 13 2 10 14
M  V30 14 1 11 15
M  V30 15 2 11 16
M  V30 16 1 12 17
M  V30 17 2 13 18
M  V30 18 1 13 19
M  V30 19 1 15 20
M  V30 20 1 17 21
M  V30 21 1 12 16
M  V30 22 1 14 18
M  V30 23 1 5 22
M  V30 24 1 7 23
M  V30 25 1 8 24
M  V30 26 1 9 25
M  V30 27 1 10 26
M  V30 28 1 14 27
M  V30 29 1 16 28
M  V30 30 1 18 29
M  V30 31 1 19 30
M  V30 32 1 19 31
M  V30 33 1 19 32
M  V30 34 1 20 33
M  V30 35 1 20 34
M  V30 36 1 20 35
M  V30 37 1 21 36
M  V30 38 1 21 37
M  V30 39 1 21 38
M  V30 END BOND
M  V30 END CTAB
M  END
>  <Structure No>
8448

>  <LogS>
-3.61

>  <MMFF94 Energy>
86.215

$$$$
Compound 8449
Actelion Java MolfileCreator 2.0

  0  0  0  0  0  0              0 V3000
M  V30 BEGIN CTAB
M  V30 COUNTS 30 31 0 0 0
M  V30 BEGIN ATOM
M  V30 1 O 0.2359 -2.1251 -1.6525 0
M  V30 2 C -0.8118 -1.4977 -0.9731 0
M  V30 3 C -0.6919 -0.1932 -0.4294 0
M  V30 4 C -2.0189 -2.1914 -0.8678 0
M  V30 5 C -1.8266 0.4117 0.1799 0
M  V30 6 C 0.5988 0.5268 -0.4964 0
M  V30 7 C -3.1285 -1.6058 -0.2666 0
M  V30 8 C -3.049 -0.3092 0.2519 0
M  V30 9 C -1.7755 1.706 0.7467 0
M  V30 10 N 1.6903 -0.0413 -0.0893 0
M  V30 11 C -4.1768 0.2722 0.8532 0
M  V30 12 C -2.9073 2.269 1.3416 0
M  V30 13 N 2.9244 0.6286 -0.1037 0
M  V30 14 C -4.1043 1.5566 1.3917 0
M  V30 15 C 4.1278 -0.017 0.336 0
M  V30 16 N 4.1115 -1.2488 0.7506 0 CHG=1
M  V30 17 N 5.3597 0.7091 0.3142 0
M  V30 18 H 1.1021 -1.6628 -1.8937 0
M  V30 19 H -2.1032 -3.1901 -1.278 0
M  V30 20 H 0.6171 1.5574 -0.8298 0
M  V30 21 H -4.0539 -2.1673 -0.2117 0
M  V30 22 H -0.8672 2.2921 0.7456 0
M  V30 23 H -5.1142 -0.2689 0.9099 0
M  V30 24 H -2.8542 3.2621 1.7693 0
M  V30 25 H 2.9787 1.6174 -0.4401 0
M  V30 26 H -4.9769 1.9985 1.8552 0
M  V30 27 H 4.9899 -1.7154 1.0695 0
M  V30 28 H 3.2307 -1.8084 0.7779 0
M  V30 29 H 6.2513 0.2649 0.6276 0
M  V30 30 H 5.384 1.6989 -0.017 0
M  V30 END ATOM
M  V30 BEGIN BOND
M  V30 1 1 1 2
M  V30 2 2 2 3
M  V30 3 1 2 4
M  V30 4 1 3 5
M  V30 5 1 3 6
M  V30 6 2 4 7
M  V30 7 1 5 8
M  V30 8 2 5 9
M  V30 9 2 6 10
M  V30 10 2 8 11
M  V30 11 1 9 12
M  V30 12 1 10 13
M  V30 13 1 11 14
M  V30 14 1 13 15
M  V30 15 2 15 16
M  V30 16 1 15 17
M  V30 17 1 7 8
M  V30 18 2 12 14
M  V30 19 1 1 18
M  V30 20 1 4 19
M  V30 21 1 6 20
M  V30 22 1 7 21
M  V30 23 1 9 22
M  V30 24 1 11 23
M  V30 25 1 12 24
M  V30 26 1 13 25
M  V30 27 1 14 26
M  V30 28 1 16 27
M  V30 29 1 16 28
M  V30 30 1 17 29
M  V30 31 1 17 30
M  V30 END BOND
M  V30 END CTAB
M  END
>  <Structure No>
8449

>  <LogS>
-2.46

>  <MMFF94 Energy>
-70.759

$$$$
Compound 8450
Actelion Java MolfileCreator 2.0

  0  0  0  0  0  0              0 V3000
M  V30 BEGIN CTAB
M  V30 COUNTS 29 29 0 0 0
M  V30 BEGIN ATOM
M  V30 1 O 1.0256 -1.5782 0.631 0
M  V30 2 C 1.3524 -0.4124 0.2836 0
M  V30 3 N 2.6755 -0.2032 -0.2498 0
M  V30 4 C 0.3341 0.7136 0.3866 0
M  V30 5 O 3.4812 -1.2786 -0.4339 0
M  V30 6 C 3.1911 1.1177 -0.6041 0
M  V30 7 C -0.4565 0.9429 -0.92 0
M  V30 8 C -0.5746 0.6462 1.6392 0
M  V30 9 C -1.0445 -0.3115 -1.5906 0
M  V30 10 C -1.5951 -0.5016 1.7102 0
M  V30 11 C -1.9059 -1.2371 -0.7092 0
M  V30 12 C -2.5533 -0.5716 0.5131 0
M  V30 13 H 0.9072 1.6508 0.5463 0
M  V30 14 H 3.9789 -1.375 0.4183 0
M  V30 15 H 2.5542 1.5826 -1.3832 0
M  V30 16 H 4.2219 1.0296 -1.0081 0
M  V30 17 H 3.2278 1.765 0.2969 0
M  V30 18 H -1.2653 1.6846 -0.7435 0
M  V30 19 H 0.2192 1.4206 -1.6611 0
M  V30 20 H -1.1307 1.6066 1.7236 0
M  V30 21 H 0.0737 0.5849 2.5407 0
M  V30 22 H -1.6665 0.0346 -2.4453 0
M  V30 23 H -0.2175 -0.9087 -2.0326 0
M  V30 24 H -1.0897 -1.4763 1.8675 0
M  V30 25 H -2.209 -0.3356 2.6224 0
M  V30 26 H -1.3057 -2.1153 -0.3887 0
M  V30 27 H -2.7176 -1.6523 -1.3465 0
M  V30 28 H -2.9647 0.4297 0.2634 0
M  V30 29 H -3.4185 -1.2005 0.8174 0
M  V30 END ATOM
M  V30 BEGIN BOND
M  V30 1 2 1 2
M  V30 2 1 2 3
M  V30 3 1 2 4
M  V30 4 1 3 5
M  V30 5 1 3 6
M  V30 6 1 4 7
M  V30 7 1 4 8
M  V30 8 1 7 9
M  V30 9 1 8 10
M  V30 10 1 9 11
M  V30 11 1 10 12
M  V30 12 1 11 12
M  V30 13 1 4 13
M  V30 14 1 5 14
M  V30 15 1 6 15
M  V30 16 1 6 16
M  V30 17 1 6 17
M  V30 18 1 7 18
M  V30 19 1 7 19
M  V30 20 1 8 20
M  V30 21 1 8 21
M  V30 22 1 9 22
M  V30 23 1 9 23
M  V30 24 1 10 24
M  V30 25 1 10 25
M  V30 26 1 11 26
M  V30 27 1 11 27
M  V30 28 1 12 28
M  V30 29 1 12 29
M  V30 END BOND
M  V30 END CTAB
M  END
>  <Structure No>
8450

>  <LogS>
-1.45

>  <MMFF94 Energy>
41.13

$$$$
Compound 8451
Actelion Java MolfileCreator 2.0

  0  0  0  0  0  0              0 V3000
M  V30 BEGIN CTAB
M  V30 COUNTS 30 31 0 0 0
M  V30 BEGIN ATOM
M  V30 1 O 1.5972 1.6771 1.1178 0
M  V30 2 C 1.8177 0.8376 0.2027 0
M  V30 3 N 0.75 0.0183 -0.3078 0
M  V30 4 C 3.1936 0.7471 -0.3908 0
M  V30 5 O 0.9526 -0.6803 -1.4541 0
M  V30 6 C -0.6031 0.0825 0.2647 0
M  V30 7 C 4.3306 0.6665 0.6182 0
M  V30 8 C 3.8994 -0.5768 -0.1385 0
M  V30 9 C -1.4811 1.0282 -0.5726 0
M  V30 10 C -1.2334 -1.322 0.3351 0
M  V30 11 C -2.909 1.0916 -0.0143 0
M  V30 12 C -2.6583 -1.2542 0.8993 0
M  V30 13 C -3.5329 -0.3073 0.0674 0
M  V30 14 H 3.4251 1.2447 -1.3561 0
M  V30 15 H 1.2537 -1.5776 -1.1587 0
M  V30 16 H -0.5522 0.4749 1.3056 0
M  V30 17 H 5.2922 1.0947 0.265 0
M  V30 18 H 4.0415 0.6565 1.6915 0
M  V30 19 H 3.3517 -1.3143 0.4876 0
M  V30 20 H 4.604 -0.8829 -0.9403 0
M  V30 21 H -1.0415 2.0492 -0.5598 0
M  V30 22 H -1.5125 0.6813 -1.6291 0
M  V30 23 H -0.6132 -1.9733 0.9883 0
M  V30 24 H -1.2684 -1.7817 -0.6771 0
M  V30 25 H -2.8942 1.5534 0.9974 0
M  V30 26 H -3.5325 1.7331 -0.6736 0
M  V30 27 H -3.106 -2.2711 0.8888 0
M  V30 28 H -2.6275 -0.9046 1.9549 0
M  V30 29 H -4.5392 -0.2334 0.5331 0
M  V30 30 H -3.6595 -0.7198 -0.9577 0
M  V30 END ATOM
M  V30 BEGIN BOND
M  V30 1 2 1 2
M  V30 2 1 2 3
M  V30 3 1 2 4
M  V30 4 1 3 5
M  V30 5 1 3 6
M  V30 6 1 4 7
M  V30 7 1 4 8
M  V30 8 1 6 9
M  V30 9 1 6 10
M  V30 10 1 9 11
M  V30 11 1 10 12
M  V30 12 1 11 13
M  V30 13 1 7 8
M  V30 14 1 12 13
M  V30 15 1 4 14
M  V30 16 1 5 15
M  V30 17 1 6 16
M  V30 18 1 7 17
M  V30 19 1 7 18
M  V30 20 1 8 19
M  V30 21 1 8 20
M  V30 22 1 9 21
M  V30 23 1 9 22
M  V30 24 1 10 23
M  V30 25 1 10 24
M  V30 26 1 11 25
M  V30 27 1 11 26
M  V30 28 1 12 27
M  V30 29 1 12 28
M  V30 30 1 13 29
M  V30 31 1 13 30
M  V30 END BOND
M  V30 END CTAB
M  END
>  <Structure No>
8451

>  <LogS>
-2.04

>  <MMFF94 Energy>
51.823

$$$$
Compound 8452
Actelion Java MolfileCreator 2.0

  0  0  0  0  0  0              0 V3000
M  V30 BEGIN CTAB
M  V30 COUNTS 33 34 0 0 0
M  V30 BEGIN ATOM
M  V30 1 O -1.9965 -1.9965 -1.5171 0
M  V30 2 C -1.4374 -1.2581 -0.6608 0
M  V30 3 N -0.0361 -0.9527 -0.8239 0
M  V30 4 C -2.2432 -0.7331 0.512 0
M  V30 5 O 0.5758 -1.3729 -1.9609 0
M  V30 6 C 0.7444 -0.1564 0.141 0
M  V30 7 C -2.5092 0.7697 0.4292 0
M  V30 8 C -3.7539 -0.9901 0.4596 0
M  V30 9 C 1.9732 -0.9606 0.6429 0
M  V30 10 C 1.13 1.2034 -0.4898 0
M  V30 11 C -4.008 0.5089 0.3968 0
M  V30 12 C 3.2562 -0.5932 -0.1121 0
M  V30 13 C 2.3599 1.8064 0.1956 0
M  V30 14 C 3.5998 0.9021 0.0411 0
M  V30 15 H -1.8187 -1.0434 1.4923 0
M  V30 16 H 0.9168 -2.2803 -1.7522 0
M  V30 17 H 0.139 0.0663 1.0424 0
M  V30 18 H -2.192 1.3079 1.3493 0
M  V30 19 H -2.1503 1.2441 -0.5111 0
M  V30 20 H -4.1375 -1.4393 1.402 0
M  V30 21 H -4.1236 -1.5085 -0.4508 0
M  V30 22 H 2.1344 -0.7494 1.7238 0
M  V30 23 H 1.7874 -2.0531 0.5571 0
M  V30 24 H 1.3521 1.0852 -1.5731 0
M  V30 25 H 0.2765 1.9095 -0.4006 0
M  V30 26 H -4.528 0.8928 1.3018 0
M  V30 27 H -4.4749 0.8233 -0.5623 0
M  V30 28 H 4.1004 -1.2078 0.2686 0
M  V30 29 H 3.1278 -0.8354 -1.1894 0
M  V30 30 H 2.5741 2.8077 -0.2368 0
M  V30 31 H 2.1361 1.9489 1.2762 0
M  V30 32 H 4.2533 1.0404 0.93 0
M  V30 33 H 4.1822 1.2243 -0.8493 0
M  V30 END ATOM
M  V30 BEGIN BOND
M  V30 1 2 1 2
M  V30 2 1 2 3
M  V30 3 1 2 4
M  V30 4 1 3 5
M  V30 5 1 3 6
M  V30 6 1 4 7
M  V30 7 1 4 8
M  V30 8 1 6 9
M  V30 9 1 6 10
M  V30 10 1 7 11
M  V30 11 1 9 12
M  V30 12 1 10 13
M  V30 13 1 12 14
M  V30 14 1 8 11
M  V30 15 1 13 14
M  V30 16 1 4 15
M  V30 17 1 5 16
M  V30 18 1 6 17
M  V30 19 1 7 18
M  V30 20 1 7 19
M  V30 21 1 8 20
M  V30 22 1 8 21
M  V30 23 1 9 22
M  V30 24 1 9 23
M  V30 25 1 10 24
M  V30 26 1 10 25
M  V30 27 1 11 26
M  V30 28 1 11 27
M  V30 29 1 12 28
M  V30 30 1 12 29
M  V30 31 1 13 30
M  V30 32 1 13 31
M  V30 33 1 14 32
M  V30 34 1 14 33
M  V30 END BOND
M  V30 END CTAB
M  END
>  <Structure No>
8452

>  <LogS>
-2.7

>  <MMFF94 Energy>
35.932

$$$$
Compound 8453
Actelion Java MolfileCreator 2.0

  0  0  0  0  0  0              0 V3000
M  V30 BEGIN CTAB
M  V30 COUNTS 36 37 0 0 0
M  V30 BEGIN ATOM
M  V30 1 O -0.7962 -0.2388 -1.5929 0
M  V30 2 C -0.9764 -0.269 -0.344 0
M  V30 3 N 0.1564 -0.36 0.5416 0
M  V30 4 C -2.3746 -0.1284 0.2141 0
M  V30 5 O -0.0282 -0.1897 1.8762 0
M  V30 6 C 1.5185 -0.5332 0.0131 0
M  V30 7 C -2.7988 1.3293 0.3306 0
M  V30 8 C -3.453 -0.7788 -0.6454 0
M  V30 9 C 2.1476 0.8412 -0.2752 0
M  V30 10 C 2.3975 -1.3338 0.9951 0
M  V30 11 C -4.3232 1.3244 0.2484 0
M  V30 12 C -4.7377 -0.0501 -0.2781 0
M  V30 13 C 3.5768 0.6898 -0.8122 0
M  V30 14 C 3.8231 -1.4882 0.4506 0
M  V30 15 C 4.4487 -0.1187 0.1566 0
M  V30 16 H -2.4221 -0.5961 1.2233 0
M  V30 17 H 0.0488 0.7877 2.0247 0
M  V30 18 H 1.4723 -1.1124 -0.9369 0
M  V30 19 H -2.4476 1.7724 1.2881 0
M  V30 20 H -2.3889 1.9254 -0.5157 0
M  V30 21 H -3.2546 -0.6246 -1.7291 0
M  V30 22 H -3.532 -1.8686 -0.4399 0
M  V30 23 H 1.5339 1.3807 -1.0287 0
M  V30 24 H 2.1645 1.4528 0.6537 0
M  V30 25 H 1.9553 -2.3419 1.1501 0
M  V30 26 H 2.443 -0.821 1.9812 0
M  V30 27 H -4.7621 1.494 1.2563 0
M  V30 28 H -4.6763 2.1285 -0.4339 0
M  V30 29 H -5.2707 -0.6129 0.5198 0
M  V30 30 H -5.4074 0.0425 -1.1607 0
M  V30 31 H 4.0239 1.6972 -0.9539 0
M  V30 32 H 3.5519 0.1842 -1.8027 0
M  V30 33 H 4.4461 -2.0227 1.1996 0
M  V30 34 H 3.8055 -2.0991 -0.4786 0
M  V30 35 H 4.5737 0.4463 1.1066 0
M  V30 36 H 5.4556 -0.264 -0.2901 0
M  V30 END ATOM
M  V30 BEGIN BOND
M  V30 1 2 1 2
M  V30 2 1 2 3
M  V30 3 1 2 4
M  V30 4 1 3 5
M  V30 5 1 3 6
M  V30 6 1 4 7
M  V30 7 1 4 8
M  V30 8 1 6 9
M  V30 9 1 6 10
M  V30 10 1 7 11
M  V30 11 1 8 12
M  V30 12 1 9 13
M  V30 13 1 10 14
M  V30 14 1 13 15
M  V30 15 1 11 12
M  V30 16 1 14 15
M  V30 17 1 4 16
M  V30 18 1 5 17
M  V30 19 1 6 18
M  V30 20 1 7 19
M  V30 21 1 7 20
M  V30 22 1 8 21
M  V30 23 1 8 22
M  V30 24 1 9 23
M  V30 25 1 9 24
M  V30 26 1 10 25
M  V30 27 1 10 26
M  V30 28 1 11 27
M  V30 29 1 11 28
M  V30 30 1 12 29
M  V30 31 1 12 30
M  V30 32 1 13 31
M  V30 33 1 13 32
M  V30 34 1 14 33
M  V30 35 1 14 34
M  V30 36 1 15 35
M  V30 37 1 15 36
M  V30 END BOND
M  V30 END CTAB
M  END
>  <Structure No>
8453

>  <LogS>
-3.16

>  <MMFF94 Energy>
35.638

$$$$
Compound 8454
Actelion Java MolfileCreator 2.0

  0  0  0  0  0  0              0 V3000
M  V30 BEGIN CTAB
M  V30 COUNTS 27 27 0 0 0
M  V30 BEGIN ATOM
M  V30 1 O 5.6533 1.7491 1.1923 0
M  V30 2 C 5.1593 0.6956 0.7092 0
M  V30 3 O 6.0117 -0.3324 0.3233 0 CHG=-1
M  V30 4 C 3.6948 0.5534 0.5543 0
M  V30 5 C 2.8279 1.5904 0.943 0
M  V30 6 C 3.149 -0.624 0.0147 0
M  V30 7 C 1.4448 1.4509 0.7945 0
M  V30 8 C 1.7654 -0.7616 -0.133 0
M  V30 9 C 0.9041 0.2781 0.2574 0
M  V30 10 N -0.5175 0.17 0.1192 0
M  V30 11 N -1.0749 -0.8669 -0.3641 0
M  V30 12 N -2.4722 -0.9609 -0.4971 0
M  V30 13 C -3.352 0.1525 -0.1171 0
M  V30 14 C -3.0258 -2.2042 -1.0267 0
M  V30 15 C -3.3434 1.2291 -1.1962 0
M  V30 16 H 3.2175 2.5098 1.362 0
M  V30 17 H 3.7901 -1.4401 -0.2938 0
M  V30 18 H 0.7912 2.2592 1.0986 0
M  V30 19 H 1.3711 -1.6788 -0.5515 0
M  V30 20 H -4.3957 -0.202 0.0263 0
M  V30 21 H -3.02 0.5842 0.8513 0
M  V30 22 H -2.7741 -3.0424 -0.3439 0
M  V30 23 H -4.1298 -2.1472 -1.1322 0
M  V30 24 H -2.5891 -2.407 -2.0268 0
M  V30 25 H -4.0275 2.054 -0.9055 0
M  V30 26 H -3.6874 0.8015 -2.1617 0
M  V30 27 H -2.3216 1.6435 -1.3248 0
M  V30 END ATOM
M  V30 BEGIN BOND
M  V30 1 2 1 2
M  V30 2 1 2 3
M  V30 3 1 2 4
M  V30 4 2 4 5
M  V30 5 1 4 6
M  V30 6 1 5 7
M  V30 7 2 6 8
M  V30 8 2 7 9
M  V30 9 1 9 10
M  V30 10 2 10 11
M  V30 11 1 11 12
M  V30 12 1 12 13
M  V30 13 1 12 14
M  V30 14 1 13 15
M  V30 15 1 8 9
M  V30 16 1 5 16
M  V30 17 1 6 17
M  V30 18 1 7 18
M  V30 19 1 8 19
M  V30 20 1 13 20
M  V30 21 1 13 21
M  V30 22 1 14 22
M  V30 23 1 14 23
M  V30 24 1 14 24
M  V30 25 1 15 25
M  V30 26 1 15 26
M  V30 27 1 15 27
M  V30 END BOND
M  V30 END CTAB
M  END
>  <Structure No>
8454

>  <LogS>
-0.42

>  <MMFF94 Energy>
41.367

$$$$
Compound 8455
Actelion Java MolfileCreator 2.0

  0  0  0  0  0  0              0 V3000
M  V30 BEGIN CTAB
M  V30 COUNTS 30 30 0 0 0
M  V30 BEGIN ATOM
M  V30 1 O -6.4425 -1.1906 -0.5555 0
M  V30 2 C -5.6309 -0.2749 -0.8555 0
M  V30 3 O -6.0798 0.8019 -1.6115 0 CHG=-1
M  V30 4 C -4.2215 -0.343 -0.4107 0
M  V30 5 C -3.7622 -1.4301 0.3542 0
M  V30 6 C -3.3202 0.6812 -0.7484 0
M  V30 7 C -2.4294 -1.4895 0.7719 0
M  V30 8 C -1.9876 0.62 -0.3298 0
M  V30 9 C -1.5344 -0.4687 0.435 0
M  V30 10 N -0.1758 -0.5627 0.8789 0
M  V30 11 N 0.6871 0.3335 0.6112 0
M  V30 12 N 2.0187 0.2274 1.0507 0
M  V30 13 C 2.9538 1.3015 0.7065 0
M  V30 14 C 2.4474 -0.9173 1.8595 0
M  V30 15 C 3.2295 1.3279 -0.8011 0
M  V30 16 C 3.9442 0.0639 -1.2744 0
M  V30 17 H -4.4321 -2.2348 0.6305 0
M  V30 18 H -3.6435 1.5311 -1.3363 0
M  V30 19 H -2.0919 -2.3337 1.3603 0
M  V30 20 H -1.3141 1.4219 -0.604 0
M  V30 21 H 3.9137 1.1938 1.2569 0
M  V30 22 H 2.5117 2.2745 1.0112 0
M  V30 23 H 3.5275 -0.8595 2.1093 0
M  V30 24 H 1.8662 -0.9438 2.8051 0
M  V30 25 H 2.2716 -1.8571 1.2954 0
M  V30 26 H 2.2754 1.4449 -1.3591 0
M  V30 27 H 3.8689 2.2072 -1.0323 0
M  V30 28 H 4.1714 0.1504 -2.3576 0
M  V30 29 H 3.3003 -0.8276 -1.1205 0
M  V30 30 H 4.8978 -0.0713 -0.721 0
M  V30 END ATOM
M  V30 BEGIN BOND
M  V30 1 2 1 2
M  V30 2 1 2 3
M  V30 3 1 2 4
M  V30 4 2 4 5
M  V30 5 1 4 6
M  V30 6 1 5 7
M  V30 7 2 6 8
M  V30 8 2 7 9
M  V30 9 1 9 10
M  V30 10 2 10 11
M  V30 11 1 11 12
M  V30 12 1 12 13
M  V30 13 1 12 14
M  V30 14 1 13 15
M  V30 15 1 15 16
M  V30 16 1 8 9
M  V30 17 1 5 17
M  V30 18 1 6 18
M  V30 19 1 7 19
M  V30 20 1 8 20
M  V30 21 1 13 21
M  V30 22 1 13 22
M  V30 23 1 14 23
M  V30 24 1 14 24
M  V30 25 1 14 25
M  V30 26 1 15 26
M  V30 27 1 15 27
M  V30 28 1 16 28
M  V30 29 1 16 29
M  V30 30 1 16 30
M  V30 END BOND
M  V30 END CTAB
M  END
>  <Structure No>
8455

>  <LogS>
-1.43

>  <MMFF94 Energy>
40.837

$$$$
Compound 8456
Actelion Java MolfileCreator 2.0

  0  0  0  0  0  0              0 V3000
M  V30 BEGIN CTAB
M  V30 COUNTS 33 33 0 0 0
M  V30 BEGIN ATOM
M  V30 1 O 6.9926 0.1585 0.1585 0
M  V30 2 C 6.1357 0.9831 -0.2574 0
M  V30 3 O 6.5677 2.1304 -0.913 0 CHG=-1
M  V30 4 C 4.6915 0.7358 -0.0522 0
M  V30 5 C 4.2489 -0.4231 0.6103 0
M  V30 6 C 3.7398 1.6591 -0.5183 0
M  V30 7 C 2.883 -0.6526 0.802 0
M  V30 8 C 2.3745 1.4279 -0.3258 0
M  V30 9 C 1.9363 0.2747 0.3335 0
M  V30 10 N 0.53 0.0703 0.5122 0
M  V30 11 N 0.0631 -0.9577 1.0993 0
M  V30 12 N -1.3207 -1.1484 1.2664 0
M  V30 13 C -2.2936 -0.1827 0.7377 0
M  V30 14 C -1.7656 -2.3481 1.9701 0
M  V30 15 C -2.4944 -0.4043 -0.7667 0
M  V30 16 C -3.3904 0.6658 -1.4083 0
M  V30 17 C -4.8546 0.5404 -0.9883 0
M  V30 18 H 4.9576 -1.1531 0.9809 0
M  V30 19 H 4.0485 2.5607 -1.0322 0
M  V30 20 H 2.569 -1.5525 1.3149 0
M  V30 21 H 1.6544 2.1494 -0.6915 0
M  V30 22 H -1.9359 0.8514 0.933 0
M  V30 23 H -3.2649 -0.2934 1.2649 0
M  V30 24 H -1.3648 -3.2475 1.4576 0
M  V30 25 H -1.3887 -2.3268 3.014 0
M  V30 26 H -2.8735 -2.4219 1.9903 0
M  V30 27 H -2.925 -1.4145 -0.9413 0
M  V30 28 H -1.5053 -0.3715 -1.2723 0
M  V30 29 H -3.0152 1.6812 -1.1552 0
M  V30 30 H -3.3348 0.5534 -2.5128 0
M  V30 31 H -5.4683 1.2587 -1.5719 0
M  V30 32 H -5.2297 -0.4861 -1.1862 0
M  V30 33 H -4.9771 0.7784 0.0884 0
M  V30 END ATOM
M  V30 BEGIN BOND
M  V30 1 2 1 2
M  V30 2 1 2 3
M  V30 3 1 2 4
M  V30 4 2 4 5
M  V30 5 1 4 6
M  V30 6 1 5 7
M  V30 7 2 6 8
M  V30 8 2 7 9
M  V30 9 1 9 10
M  V30 10 2 10 11
M  V30 11 1 11 12
M  V30 12 1 12 13
M  V30 13 1 12 14
M  V30 14 1 13 15
M  V30 15 1 15 16
M  V30 16 1 16 17
M  V30 17 1 8 9
M  V30 18 1 5 18
M  V30 19 1 6 19
M  V30 20 1 7 20
M  V30 21 1 8 21
M  V30 22 1 13 22
M  V30 23 1 13 23
M  V30 24 1 14 24
M  V30 25 1 14 25
M  V30 26 1 14 26
M  V30 27 1 15 27
M  V30 28 1 15 28
M  V30 29 1 16 29
M  V30 30 1 16 30
M  V30 31 1 17 31
M  V30 32 1 17 32
M  V30 33 1 17 33
M  V30 END BOND
M  V30 END CTAB
M  END
>  <Structure No>
8456

>  <LogS>
-1.81

>  <MMFF94 Energy>
40.885

$$$$
Compound 8457
Actelion Java MolfileCreator 2.0

  0  0  0  0  0  0              0 V3000
M  V30 BEGIN CTAB
M  V30 COUNTS 36 36 0 0 0
M  V30 BEGIN ATOM
M  V30 1 O 7.7815 0.2375 -0.3167 0
M  V30 2 C 6.7848 0.9302 0.0205 0
M  V30 3 O 6.9807 2.254 0.3973 0 CHG=-1
M  V30 4 C 5.4258 0.3455 0.0161 0
M  V30 5 C 5.2218 -0.9929 -0.364 0
M  V30 6 C 4.3172 1.1229 0.3931 0
M  V30 7 C 3.9357 -1.5405 -0.3665 0
M  V30 8 C 3.0316 0.5734 0.3902 0
M  V30 9 C 2.8339 -0.7649 0.0095 0
M  V30 10 N 1.5302 -1.3583 -0.0053 0
M  V30 11 N 0.4875 -0.7095 0.3288 0
M  V30 12 N -0.787 -1.3035 0.3077 0
M  V30 13 C -1.9383 -0.4944 0.7116 0
M  V30 14 C -0.95 -2.7041 -0.0922 0
M  V30 15 C -2.2607 0.5401 -0.3736 0
M  V30 16 C -3.3826 1.5054 0.0402 0
M  V30 17 C -4.7638 0.8343 0.0567 0
M  V30 18 C -5.8651 1.8517 0.3412 0
M  V30 19 H 6.0554 -1.6174 -0.6598 0
M  V30 20 H 4.4416 2.1565 0.6908 0
M  V30 21 H 3.7959 -2.5728 -0.6621 0
M  V30 22 H 2.195 1.1942 0.6846 0
M  V30 23 H -2.8226 -1.1409 0.8909 0
M  V30 24 H -1.7011 0.0195 1.6683 0
M  V30 25 H -0.3863 -3.3585 0.605 0
M  V30 26 H -0.5598 -2.8442 -1.1218 0
M  V30 27 H -2.017 -3.0106 -0.0815 0
M  V30 28 H -1.3478 1.1416 -0.5757 0
M  V30 29 H -2.5352 0.02 -1.3172 0
M  V30 30 H -3.1588 1.9376 1.0403 0
M  V30 31 H -3.4004 2.3427 -0.6915 0
M  V30 32 H -4.7994 0.052 0.8436 0
M  V30 33 H -4.9631 0.3567 -0.927 0
M  V30 34 H -5.6995 2.3333 1.3284 0
M  V30 35 H -5.8843 2.6319 -0.4492 0
M  V30 36 H -6.8499 1.339 0.3569 0
M  V30 END ATOM
M  V30 BEGIN BOND
M  V30 1 2 1 2
M  V30 2 1 2 3
M  V30 3 1 2 4
M  V30 4 2 4 5
M  V30 5 1 4 6
M  V30 6 1 5 7
M  V30 7 2 6 8
M  V30 8 2 7 9
M  V30 9 1 9 10
M  V30 10 2 10 11
M  V30 11 1 11 12
M  V30 12 1 12 13
M  V30 13 1 12 14
M  V30 14 1 13 15
M  V30 15 1 15 16
M  V30 16 1 16 17
M  V30 17 1 17 18
M  V30 18 1 8 9
M  V30 19 1 5 19
M  V30 20 1 6 20
M  V30 21 1 7 21
M  V30 22 1 8 22
M  V30 23 1 13 23
M  V30 24 1 13 24
M  V30 25 1 14 25
M  V30 26 1 14 26
M  V30 27 1 14 27
M  V30 28 1 15 28
M  V30 29 1 15 29
M  V30 30 1 16 30
M  V30 31 1 16 31
M  V30 32 1 17 32
M  V30 33 1 17 33
M  V30 34 1 18 34
M  V30 35 1 18 35
M  V30 36 1 18 36
M  V30 END BOND
M  V30 END CTAB
M  END
>  <Structure No>
8457

>  <LogS>
-2.37

>  <MMFF94 Energy>
41.323

$$$$
Compound 8458
Actelion Java MolfileCreator 2.0

  0  0  0  0  0  0              0 V3000
M  V30 BEGIN CTAB
M  V30 COUNTS 39 39 0 0 0
M  V30 BEGIN ATOM
M  V30 1 O 6.0271 -2.455 -1.4249 0
M  V30 2 C 6.0648 -1.8099 -0.3433 0
M  V30 3 O 7.2934 -1.5951 0.2705 0 CHG=-1
M  V30 4 C 4.8214 -1.2875 0.265 0
M  V30 5 C 3.5751 -1.5069 -0.3484 0
M  V30 6 C 4.8685 -0.5717 1.4737 0
M  V30 7 C 2.4034 -1.01 0.2299 0
M  V30 8 C 3.695 -0.0758 2.0498 0
M  V30 9 C 2.4609 -0.2654 1.4193 0
M  V30 10 N 1.2704 0.2267 2.0539 0
M  V30 11 N 0.2819 0.7694 1.4518 0
M  V30 12 N 0.288 1.1031 0.0835 0
M  V30 13 C -0.8867 0.7797 -0.7251 0
M  V30 14 C 1.3215 1.9823 -0.4661 0
M  V30 15 C -2.1015 1.587 -0.2497 0
M  V30 16 C -3.3159 1.4535 -1.1859 0
M  V30 17 C -3.8656 0.0232 -1.3337 0
M  V30 18 C -4.3752 -0.5615 -0.0085 0
M  V30 19 C -5.0735 -1.9 -0.2309 0
M  V30 20 H 3.5034 -2.0701 -1.2704 0
M  V30 21 H 5.8109 -0.3963 1.977 0
M  V30 22 H 1.4533 -1.2211 -0.2426 0
M  V30 23 H 3.748 0.4695 2.9838 0
M  V30 24 H -0.6866 1.0028 -1.7967 0
M  V30 25 H -1.0892 -0.308 -0.6345 0
M  V30 26 H 0.8638 2.9412 -0.7881 0
M  V30 27 H 1.8027 1.4957 -1.3402 0
M  V30 28 H 2.097 2.209 0.2947 0
M  V30 29 H -1.8186 2.6617 -0.2119 0
M  V30 30 H -2.3771 1.2883 0.7834 0
M  V30 31 H -3.0353 1.8304 -2.1936 0
M  V30 32 H -4.1276 2.1133 -0.8089 0
M  V30 33 H -3.0926 -0.6432 -1.7716 0
M  V30 34 H -4.7094 0.0614 -2.0573 0
M  V30 35 H -5.0924 0.1438 0.4648 0
M  V30 36 H -3.5245 -0.7244 0.6865 0
M  V30 37 H -5.4183 -2.3058 0.7435 0
M  V30 38 H -5.9559 -1.7706 -0.893 0
M  V30 39 H -4.3724 -2.6284 -0.6912 0
M  V30 END ATOM
M  V30 BEGIN BOND
M  V30 1 2 1 2
M  V30 2 1 2 3
M  V30 3 1 2 4
M  V30 4 2 4 5
M  V30 5 1 4 6
M  V30 6 1 5 7
M  V30 7 2 6 8
M  V30 8 2 7 9
M  V30 9 1 9 10
M  V30 10 2 10 11
M  V30 11 1 11 12
M  V30 12 1 12 13
M  V30 13 1 12 14
M  V30 14 1 13 15
M  V30 15 1 15 16
M  V30 16 1 16 17
M  V30 17 1 17 18
M  V30 18 1 18 19
M  V30 19 1 8 9
M  V30 20 1 5 20
M  V30 21 1 6 21
M  V30 22 1 7 22
M  V30 23 1 8 23
M  V30 24 1 13 24
M  V30 25 1 13 25
M  V30 26 1 14 26
M  V30 27 1 14 27
M  V30 28 1 14 28
M  V30 29 1 15 29
M  V30 30 1 15 30
M  V30 31 1 16 31
M  V30 32 1 16 32
M  V30 33 1 17 33
M  V30 34 1 17 34
M  V30 35 1 18 35
M  V30 36 1 18 36
M  V30 37 1 19 37
M  V30 38 1 19 38
M  V30 39 1 19 39
M  V30 END BOND
M  V30 END CTAB
M  END
>  <Structure No>
8458

>  <LogS>
-2.52

>  <MMFF94 Energy>
42.014

$$$$
Compound 8459
Actelion Java MolfileCreator 2.0

  0  0  0  0  0  0              0 V3000
M  V30 BEGIN CTAB
M  V30 COUNTS 42 42 0 0 0
M  V30 BEGIN ATOM
M  V30 1 O -7.8502 1.582 1.8195 0
M  V30 2 C -6.7679 1.1444 2.2934 0
M  V30 3 O -6.6003 1.1138 3.6733 0 CHG=-1
M  V30 4 C -5.6911 0.6699 1.3966 0
M  V30 5 C -5.8555 0.6991 1.0E-4 0
M  V30 6 C -4.4859 0.1824 1.9306 0
M  V30 7 C -4.8348 0.2496 -0.8428 0
M  V30 8 C -3.4662 -0.2666 1.086 0
M  V30 9 C -3.6363 -0.2355 -0.3089 0
M  V30 10 N -2.6115 -0.6869 -1.2021 0
M  V30 11 N -1.5007 -1.1442 -0.7815 0
M  V30 12 N -0.5012 -1.5816 -1.6691 0
M  V30 13 C 0.7483 -2.0986 -1.1085 0
M  V30 14 C -0.7192 -1.536 -3.1179 0
M  V30 15 C 1.5588 -0.9579 -0.4866 0
M  V30 16 C 2.888 -1.4727 0.0854 0
M  V30 17 C 3.6682 -0.3835 0.8384 0
M  V30 18 C 4.2215 0.7032 -0.1 0
M  V30 19 C 5.2092 1.644 0.6072 0
M  V30 20 C 4.5302 2.5455 1.6382 0
M  V30 21 H -6.7722 1.0693 -0.4417 0
M  V30 22 H -4.3291 0.1476 3.0015 0
M  V30 23 H -4.9774 0.2792 -1.9159 0
M  V30 24 H -2.5476 -0.6367 1.5233 0
M  V30 25 H 0.5102 -2.8601 -0.3344 0
M  V30 26 H 1.3571 -2.5984 -1.8934 0
M  V30 27 H 0.1702 -1.8953 -3.6766 0
M  V30 28 H -0.9259 -0.4907 -3.4297 0
M  V30 29 H -1.5867 -2.1756 -3.3841 0
M  V30 30 H 0.9634 -0.4856 0.3253 0
M  V30 31 H 1.7558 -0.1962 -1.271 0
M  V30 32 H 3.5162 -1.8891 -0.7323 0
M  V30 33 H 2.6757 -2.298 0.8002 0
M  V30 34 H 3.0101 0.0734 1.6084 0
M  V30 35 H 4.5164 -0.8732 1.365 0
M  V30 36 H 4.7576 0.2157 -0.9434 0
M  V30 37 H 3.3889 1.3018 -0.5277 0
M  V30 38 H 5.6883 2.2907 -0.1594 0
M  V30 39 H 6.0136 1.0553 1.0993 0
M  V30 40 H 4.147 1.9474 2.4908 0
M  V30 41 H 5.268 3.2758 2.0322 0
M  V30 42 H 3.6921 3.1063 1.1725 0
M  V30 END ATOM
M  V30 BEGIN BOND
M  V30 1 2 1 2
M  V30 2 1 2 3
M  V30 3 1 2 4
M  V30 4 2 4 5
M  V30 5 1 4 6
M  V30 6 1 5 7
M  V30 7 2 6 8
M  V30 8 2 7 9
M  V30 9 1 9 10
M  V30 10 2 10 11
M  V30 11 1 11 12
M  V30 12 1 12 13
M  V30 13 1 12 14
M  V30 14 1 13 15
M  V30 15 1 15 16
M  V30 16 1 16 17
M  V30 17 1 17 18
M  V30 18 1 18 19
M  V30 19 1 19 20
M  V30 20 1 8 9
M  V30 21 1 5 21
M  V30 22 1 6 22
M  V30 23 1 7 23
M  V30 24 1 8 24
M  V30 25 1 13 25
M  V30 26 1 13 26
M  V30 27 1 14 27
M  V30 28 1 14 28
M  V30 29 1 14 29
M  V30 30 1 15 30
M  V30 31 1 15 31
M  V30 32 1 16 32
M  V30 33 1 16 33
M  V30 34 1 17 34
M  V30 35 1 17 35
M  V30 36 1 18 36
M  V30 37 1 18 37
M  V30 38 1 19 38
M  V30 39 1 19 39
M  V30 40 1 20 40
M  V30 41 1 20 41
M  V30 42 1 20 42
M  V30 END BOND
M  V30 END CTAB
M  END
>  <Structure No>
8459

>  <LogS>
-3.39

>  <MMFF94 Energy>
39.802

$$$$
Compound 8460
Actelion Java MolfileCreator 2.0

  0  0  0  0  0  0              0 V3000
M  V30 BEGIN CTAB
M  V30 COUNTS 33 35 0 0 0
M  V30 BEGIN ATOM
M  V30 1 Cl -7.3292 0.8123 1.5439 0
M  V30 2 C -5.7105 0.4783 0.9565 0
M  V30 3 C -4.603 1.037 1.6004 0
M  V30 4 C -5.5257 -0.3525 -0.152 0
M  V30 5 C -3.3119 0.7712 1.1344 0
M  V30 6 C -4.2361 -0.6215 -0.6206 0
M  V30 7 C -3.1144 -0.0524 0.0091 0
M  V30 8 N -1.7861 -0.3491 -0.4703 0
M  V30 9 O -1.5636 -1.5145 -1.13 0
M  V30 10 C -0.6992 0.5842 -0.3258 0
M  V30 11 O -0.9345 1.823 -0.3748 0
M  V30 12 C 0.6969 0.116 -0.1587 0
M  V30 13 C 1.7687 0.9359 -0.5545 0
M  V30 14 C 0.9693 -1.1336 0.425 0
M  V30 15 C 3.0943 0.5058 -0.3905 0
M  V30 16 C 2.2861 -1.5695 0.5927 0
M  V30 17 C 3.355 -0.7598 0.1867 0
M  V30 18 C 4.1658 1.3185 -0.7937 0
M  V30 19 C 4.6813 -1.1892 0.3507 0
M  V30 20 C 5.4821 0.8791 -0.6255 0
M  V30 21 C 5.739 -0.3704 -0.0553 0
M  V30 22 H -4.7404 1.6723 2.4663 0
M  V30 23 H -6.3802 -0.7914 -0.6512 0
M  V30 24 H -2.469 1.194 1.6655 0
M  V30 25 H -4.1166 -1.2656 -1.4818 0
M  V30 26 H -1.7059 -1.3005 -2.088 0
M  V30 27 H 1.5711 1.9044 -1.0002 0
M  V30 28 H 0.1645 -1.7686 0.7726 0
M  V30 29 H 2.4681 -2.5369 1.0458 0
M  V30 30 H 3.9858 2.2905 -1.2375 0
M  V30 31 H 4.8991 -2.1547 0.7916 0
M  V30 32 H 6.3052 1.5088 -0.9378 0
M  V30 33 H 6.7603 -0.705 0.0725 0
M  V30 END ATOM
M  V30 BEGIN BOND
M  V30 1 1 1 2
M  V30 2 2 2 3
M  V30 3 1 2 4
M  V30 4 1 3 5
M  V30 5 2 4 6
M  V30 6 2 5 7
M  V30 7 1 7 8
M  V30 8 1 8 9
M  V30 9 1 8 10
M  V30 10 2 10 11
M  V30 11 1 10 12
M  V30 12 2 12 13
M  V30 13 1 12 14
M  V30 14 1 13 15
M  V30 15 2 14 16
M  V30 16 1 15 17
M  V30 17 2 15 18
M  V30 18 2 17 19
M  V30 19 1 18 20
M  V30 20 1 19 21
M  V30 21 1 6 7
M  V30 22 1 16 17
M  V30 23 2 20 21
M  V30 24 1 3 22
M  V30 25 1 4 23
M  V30 26 1 5 24
M  V30 27 1 6 25
M  V30 28 1 9 26
M  V30 29 1 13 27
M  V30 30 1 14 28
M  V30 31 1 16 29
M  V30 32 1 18 30
M  V30 33 1 19 31
M  V30 34 1 20 32
M  V30 35 1 21 33
M  V30 END BOND
M  V30 END CTAB
M  END
>  <Structure No>
8460

>  <LogS>
-5.47

>  <MMFF94 Energy>
95.935

$$$$
Compound 8461
Actelion Java MolfileCreator 2.0

  0  0  0  0  0  0              0 V3000
M  V30 BEGIN CTAB
M  V30 COUNTS 44 45 0 0 0
M  V30 BEGIN ATOM
M  V30 1 S 6.287 1.7932 1.3039 0
M  V30 2 O 7.427 2.0068 0.3486 0
M  V30 3 O 6.8061 1.1059 2.5354 0
M  V30 4 N 5.6011 3.3185 1.7407 0
M  V30 5 C 5.0663 0.7913 0.5418 0
M  V30 6 S 4.6196 0.8816 -1.0728 0
M  V30 7 C 4.306 -0.1817 1.1713 0
M  V30 8 C 3.4486 -0.3235 -0.9993 0
M  V30 9 C 3.3884 -0.8058 0.3096 0
M  V30 10 C 2.4945 -1.9007 0.7486 0
M  V30 11 O 2.8091 -2.5697 1.7704 0
M  V30 12 C 1.2484 -2.2445 0.025 0
M  V30 13 C 0.4343 -1.2411 -0.5305 0
M  V30 14 C 0.8398 -3.5852 -0.0675 0
M  V30 15 C -0.7497 -1.5747 -1.207 0
M  V30 16 C -0.3459 -3.9188 -0.7262 0
M  V30 17 C -1.14 -2.9193 -1.2922 0
M  V30 18 C -1.6333 -0.4904 -1.7691 0
M  V30 19 N -2.582 -0.0192 -0.7488 0 CHG=1
M  V30 20 C -3.4501 1.0367 -1.3007 0
M  V30 21 C -4.4665 1.5955 -0.2739 0
M  V30 22 C -5.4517 0.5279 0.2206 0
M  V30 23 C -3.7835 2.2985 0.907 0
M  V30 24 H 4.7866 3.1196 2.3642 0
M  V30 25 H 5.215 3.7408 0.8667 0
M  V30 26 H 4.408 -0.4268 2.2208 0
M  V30 27 H 2.8618 -0.6734 -1.838 0
M  V30 28 H 0.7084 -0.1984 -0.4226 0
M  V30 29 H 1.4428 -4.375 0.3635 0
M  V30 30 H -0.6524 -4.9546 -0.7943 0
M  V30 31 H -2.0622 -3.1923 -1.7901 0
M  V30 32 H -2.1838 -0.8832 -2.654 0
M  V30 33 H -0.9992 0.3538 -2.1235 0
M  V30 34 H -3.1656 -0.8297 -0.4373 0
M  V30 35 H -2.0389 0.3567 0.0621 0
M  V30 36 H -4.0161 0.6396 -2.174 0
M  V30 37 H -2.8265 1.8818 -1.6719 0
M  V30 38 H -5.0647 2.3667 -0.8085 0
M  V30 39 H -4.9492 -0.2068 0.8839 0
M  V30 40 H -5.9043 -0.0084 -0.6403 0
M  V30 41 H -6.2706 1.0096 0.7964 0
M  V30 42 H -3.2759 1.5686 1.5718 0
M  V30 43 H -3.0383 3.0358 0.5396 0
M  V30 44 H -4.5412 2.8446 1.5089 0
M  V30 END ATOM
M  V30 BEGIN BOND
M  V30 1 2 1 2
M  V30 2 2 1 3
M  V30 3 1 1 4
M  V30 4 1 1 5
M  V30 5 1 5 6
M  V30 6 2 5 7
M  V30 7 1 6 8
M  V30 8 1 7 9
M  V30 9 1 9 10
M  V30 10 2 10 11
M  V30 11 1 10 12
M  V30 12 2 12 13
M  V30 13 1 12 14
M  V30 14 1 13 15
M  V30 15 2 14 16
M  V30 16 2 15 17
M  V30 17 1 15 18
M  V30 18 1 18 19
M  V30 19 1 19 20
M  V30 20 1 20 21
M  V30 21 1 21 22
M  V30 22 1 21 23
M  V30 23 2 8 9
M  V30 24 1 16 17
M  V30 25 1 4 24
M  V30 26 1 4 25
M  V30 27 1 7 26
M  V30 28 1 8 27
M  V30 29 1 13 28
M  V30 30 1 14 29
M  V30 31 1 16 30
M  V30 32 1 17 31
M  V30 33 1 18 32
M  V30 34 1 18 33
M  V30 35 1 19 34
M  V30 36 1 19 35
M  V30 37 1 20 36
M  V30 38 1 20 37
M  V30 39 1 21 38
M  V30 40 1 22 39
M  V30 41 1 22 40
M  V30 42 1 22 41
M  V30 43 1 23 42
M  V30 44 1 23 43
M  V30 45 1 23 44
M  V30 END BOND
M  V30 END CTAB
M  END
>  <Structure No>
8461

>  <LogS>
-2.05

>  <MMFF94 Energy>
-7.7114

$$$$
Compound 8462
Actelion Java MolfileCreator 2.0

  0  0  0  0  0  0              0 V3000
M  V30 BEGIN CTAB
M  V30 COUNTS 44 45 0 0 0
M  V30 BEGIN ATOM
M  V30 1 S 7.5143 1.0592 -0.1629 0
M  V30 2 O 8.3626 0.2502 -1.1025 0
M  V30 3 O 7.9532 0.8103 1.2529 0
M  V30 4 N 7.6936 2.7407 -0.5238 0
M  V30 5 C 5.8339 0.5948 -0.3451 0
M  V30 6 S 4.7291 1.3492 -1.3579 0
M  V30 7 C 5.2139 -0.4659 0.2958 0
M  V30 8 C 3.4342 0.3415 -0.9878 0
M  V30 9 C 3.8598 -0.6042 -0.053 0
M  V30 10 C 3.0021 -1.6861 0.4798 0
M  V30 11 O 3.549 -2.7324 0.9232 0
M  V30 12 C 1.524 -1.5878 0.5034 0
M  V30 13 C 0.7421 -2.734 0.2838 0
M  V30 14 C 0.8833 -0.3686 0.7867 0
M  V30 15 C -0.6532 -2.6579 0.3192 0
M  V30 16 C -0.5117 -0.2934 0.8225 0
M  V30 17 C -1.2891 -1.4393 0.5987 0
M  V30 18 C -2.7933 -1.3471 0.5977 0
M  V30 19 N -3.2909 -1.0284 -0.7507 0 CHG=1
M  V30 20 C -4.757 -0.8216 -0.7633 0
M  V30 21 C -5.1518 0.6586 -0.9237 0
M  V30 22 C -4.7544 1.5122 0.2878 0
M  V30 23 C -5.2833 2.9373 0.1538 0
M  V30 24 H 8.694 2.9859 -0.3496 0
M  V30 25 H 7.1274 3.2664 0.1793 0
M  V30 26 H 5.7251 -1.1165 0.9938 0
M  V30 27 H 2.448 0.408 -1.4275 0
M  V30 28 H 1.2115 -3.6861 0.0688 0
M  V30 29 H 1.4605 0.5235 0.994 0
M  V30 30 H -1.238 -3.5491 0.1279 0
M  V30 31 H -0.9865 0.6579 1.0294 0
M  V30 32 H -3.2241 -2.3147 0.9418 0
M  V30 33 H -3.1143 -0.5724 1.3276 0
M  V30 34 H -2.7894 -0.1888 -1.1257 0
M  V30 35 H -3.062 -1.8344 -1.3794 0
M  V30 36 H -5.1942 -1.3728 -1.6262 0
M  V30 37 H -5.2477 -1.2413 0.1446 0
M  V30 38 H -6.2555 0.7073 -1.0538 0
M  V30 39 H -4.6864 1.0714 -1.8455 0
M  V30 40 H -5.1664 1.0625 1.2173 0
M  V30 41 H -3.6478 1.557 0.3729 0
M  V30 42 H -6.393 2.9344 0.1016 0
M  V30 43 H -4.9717 3.534 1.037 0
M  V30 44 H -4.8737 3.4161 -0.761 0
M  V30 END ATOM
M  V30 BEGIN BOND
M  V30 1 2 1 2
M  V30 2 2 1 3
M  V30 3 1 1 4
M  V30 4 1 1 5
M  V30 5 1 5 6
M  V30 6 2 5 7
M  V30 7 1 6 8
M  V30 8 1 7 9
M  V30 9 1 9 10
M  V30 10 2 10 11
M  V30 11 1 10 12
M  V30 12 2 12 13
M  V30 13 1 12 14
M  V30 14 1 13 15
M  V30 15 2 14 16
M  V30 16 2 15 17
M  V30 17 1 17 18
M  V30 18 1 18 19
M  V30 19 1 19 20
M  V30 20 1 20 21
M  V30 21 1 21 22
M  V30 22 1 22 23
M  V30 23 2 8 9
M  V30 24 1 16 17
M  V30 25 1 4 24
M  V30 26 1 4 25
M  V30 27 1 7 26
M  V30 28 1 8 27
M  V30 29 1 13 28
M  V30 30 1 14 29
M  V30 31 1 15 30
M  V30 32 1 16 31
M  V30 33 1 18 32
M  V30 34 1 18 33
M  V30 35 1 19 34
M  V30 36 1 19 35
M  V30 37 1 20 36
M  V30 38 1 20 37
M  V30 39 1 21 38
M  V30 40 1 21 39
M  V30 41 1 22 40
M  V30 42 1 22 41
M  V30 43 1 23 42
M  V30 44 1 23 43
M  V30 45 1 23 44
M  V30 END BOND
M  V30 END CTAB
M  END
>  <Structure No>
8462

>  <LogS>
-2.21

>  <MMFF94 Energy>
-9.6702

$$$$
Compound 8463
Actelion Java MolfileCreator 2.0

  0  0  0  0  0  0              0 V3000
M  V30 BEGIN CTAB
M  V30 COUNTS 47 48 0 0 0
M  V30 BEGIN ATOM
M  V30 1 S -6.599 1.8704 0.1625 0
M  V30 2 O -7.4222 1.3877 1.3231 0
M  V30 3 O -7.4955 2.0474 -1.0302 0
M  V30 4 N -5.8639 3.3834 0.5596 0
M  V30 5 C -5.3583 0.6881 -0.2063 0
M  V30 6 S -4.8704 0.2482 -1.7504 0
M  V30 7 C -4.6104 -0.0136 0.7253 0
M  V30 8 C -3.6962 -0.8503 -1.2572 0
M  V30 9 C -3.6673 -0.8736 0.1385 0
M  V30 10 C -2.7761 -1.7471 0.934 0
M  V30 11 O -3.1192 -2.0576 2.1072 0
M  V30 12 C -1.4986 -2.2737 0.3993 0
M  V30 13 C -0.686 -1.4877 -0.4374 0
M  V30 14 C -1.0597 -3.5556 0.77 0
M  V30 15 C 0.5332 -1.9864 -0.9242 0
M  V30 16 C 0.1539 -4.0533 0.2899 0
M  V30 17 C 0.9472 -3.2748 -0.5548 0
M  V30 18 C 1.4095 -1.1338 -1.8117 0
M  V30 19 N 2.5639 -0.581 -1.0814 0 CHG=1
M  V30 20 C 2.1679 0.5096 -0.172 0
M  V30 21 C 3.3384 0.9879 0.7101 0
M  V30 22 C 4.5533 1.5582 -0.0603 0
M  V30 23 C 4.1754 2.7722 -0.9223 0
M  V30 24 C 5.6584 1.9477 0.93 0
M  V30 25 H -5.2215 3.2085 1.3646 0
M  V30 26 H -5.2632 3.6524 -0.2514 0
M  V30 27 H -4.7386 0.1 1.7943 0
M  V30 28 H -3.0852 -1.4482 -1.92 0
M  V30 29 H -0.9876 -0.4791 -0.693 0
M  V30 30 H -1.6613 -4.1754 1.4234 0
M  V30 31 H 0.4811 -5.0447 0.5752 0
M  V30 32 H 1.8873 -3.6724 -0.9163 0
M  V30 33 H 1.7779 -1.7662 -2.6501 0
M  V30 34 H 0.819 -0.3146 -2.2817 0
M  V30 35 H 3.0465 -1.3414 -0.5473 0
M  V30 36 H 3.229 -0.2036 -1.7947 0
M  V30 37 H 1.3691 0.1584 0.5166 0
M  V30 38 H 1.7478 1.3625 -0.7481 0
M  V30 39 H 2.9513 1.7647 1.4062 0
M  V30 40 H 3.6741 0.1311 1.3351 0
M  V30 41 H 4.974 0.7716 -0.7221 0
M  V30 42 H 3.662 3.5443 -0.3096 0
M  V30 43 H 5.0848 3.2224 -1.3745 0
M  V30 44 H 3.5114 2.4671 -1.7569 0
M  V30 45 H 6.5551 2.3108 0.3836 0
M  V30 46 H 5.3072 2.7495 1.6151 0
M  V30 47 H 5.9607 1.0663 1.5348 0
M  V30 END ATOM
M  V30 BEGIN BOND
M  V30 1 2 1 2
M  V30 2 2 1 3
M  V30 3 1 1 4
M  V30 4 1 1 5
M  V30 5 1 5 6
M  V30 6 2 5 7
M  V30 7 1 6 8
M  V30 8 1 7 9
M  V30 9 1 9 10
M  V30 10 2 10 11
M  V30 11 1 10 12
M  V30 12 2 12 13
M  V30 13 1 12 14
M  V30 14 1 13 15
M  V30 15 2 14 16
M  V30 16 2 15 17
M  V30 17 1 15 18
M  V30 18 1 18 19
M  V30 19 1 19 20
M  V30 20 1 20 21
M  V30 21 1 21 22
M  V30 22 1 22 23
M  V30 23 1 22 24
M  V30 24 2 8 9
M  V30 25 1 16 17
M  V30 26 1 4 25
M  V30 27 1 4 26
M  V30 28 1 7 27
M  V30 29 1 8 28
M  V30 30 1 13 29
M  V30 31 1 14 30
M  V30 32 1 16 31
M  V30 33 1 17 32
M  V30 34 1 18 33
M  V30 35 1 18 34
M  V30 36 1 19 35
M  V30 37 1 19 36
M  V30 38 1 20 37
M  V30 39 1 20 38
M  V30 40 1 21 39
M  V30 41 1 21 40
M  V30 42 1 22 41
M  V30 43 1 23 42
M  V30 44 1 23 43
M  V30 45 1 23 44
M  V30 46 1 24 45
M  V30 47 1 24 46
M  V30 48 1 24 47
M  V30 END BOND
M  V30 END CTAB
M  END
>  <Structure No>
8463

>  <LogS>
-1.5

>  <MMFF94 Energy>
-7.2557

$$$$
Compound 8464
Actelion Java MolfileCreator 2.0

  0  0  0  0  0  0              0 V3000
M  V30 BEGIN CTAB
M  V30 COUNTS 47 48 0 0 0
M  V30 BEGIN ATOM
M  V30 1 S 7.2117 0.0 0.4087 0
M  V30 2 O 8.3261 -0.6944 -0.3224 0
M  V30 3 O 7.6769 0.3917 1.7831 0
M  V30 4 N 6.7554 1.4176 -0.4698 0
M  V30 5 C 5.8373 -1.0798 0.5405 0
M  V30 6 S 5.9267 -2.7054 0.9468 0
M  V30 7 C 4.5097 -0.7292 0.353 0
M  V30 8 C 4.2705 -2.9938 0.8837 0
M  V30 9 C 3.6257 -1.8085 0.5305 0
M  V30 10 C 2.1544 -1.7024 0.4123 0
M  V30 11 O 1.4334 -2.5384 1.0224 0
M  V30 12 C 1.4988 -0.6465 -0.3941 0
M  V30 13 C 0.283 -0.0899 0.0358 0
M  V30 14 C 2.0499 -0.2238 -1.6151 0
M  V30 15 C -0.3641 0.8999 -0.723 0
M  V30 16 C 1.4111 0.7565 -2.3765 0
M  V30 17 C 0.2096 1.3197 -1.9387 0
M  V30 18 C -1.6787 1.4724 -0.2329 0
M  V30 19 O -0.4084 2.2889 -2.7216 0 CHG=-1
M  V30 20 N -2.8091 0.5306 -0.4272 0 CHG=1 CFG=1
M  V30 21 C -4.0351 1.0635 0.2279 0
M  V30 22 C -3.0526 0.3018 -1.868 0
M  V30 23 C -5.0311 -0.0529 0.6456 0
M  V30 24 C -4.5798 -0.7576 1.9354 0
M  V30 25 C -6.4344 0.5345 0.8439 0
M  V30 26 H 7.6181 1.9948 -0.5852 0
M  V30 27 H 6.4699 1.1065 -1.4259 0
M  V30 28 H 4.1942 0.2777 0.1137 0
M  V30 29 H 3.7913 -3.9441 1.0798 0
M  V30 30 H -0.1579 -0.4181 0.9698 0
M  V30 31 H 2.9653 -0.6636 -1.99 0
M  V30 32 H 1.8468 1.0733 -3.3154 0
M  V30 33 H -1.5515 1.695 0.8508 0
M  V30 34 H -1.8974 2.4486 -0.7212 0
M  V30 35 H -2.5482 -0.3848 0.006 0
M  V30 36 H -4.5396 1.7896 -0.4513 0
M  V30 37 H -3.7835 1.6481 1.1425 0
M  V30 38 H -3.194 1.2636 -2.409 0
M  V30 39 H -3.9545 -0.323 -2.0312 0
M  V30 40 H -2.2017 -0.2451 -2.327 0
M  V30 41 H -5.1035 -0.8176 -0.1557 0
M  V30 42 H -3.5991 -1.2562 1.7962 0
M  V30 43 H -4.4965 -0.0314 2.7726 0
M  V30 44 H -5.3143 -1.5413 2.2191 0
M  V30 45 H -7.1507 -0.2652 1.1302 0
M  V30 46 H -6.4253 1.3107 1.6395 0
M  V30 47 H -6.7959 0.9933 -0.1015 0
M  V30 END ATOM
M  V30 BEGIN BOND
M  V30 1 2 1 2
M  V30 2 2 1 3
M  V30 3 1 1 4
M  V30 4 1 1 5
M  V30 5 1 5 6
M  V30 6 2 5 7
M  V30 7 1 6 8
M  V30 8 1 7 9
M  V30 9 1 9 10
M  V30 10 2 10 11
M  V30 11 1 10 12
M  V30 12 2 12 13
M  V30 13 1 12 14
M  V30 14 1 13 15
M  V30 15 2 14 16
M  V30 16 2 15 17
M  V30 17 1 15 18
M  V30 18 1 17 19
M  V30 19 1 18 20
M  V30 20 1 20 21
M  V30 21 1 20 22
M  V30 22 1 21 23
M  V30 23 1 23 24
M  V30 24 1 23 25
M  V30 25 2 8 9
M  V30 26 1 16 17
M  V30 27 1 4 26
M  V30 28 1 4 27
M  V30 29 1 7 28
M  V30 30 1 8 29
M  V30 31 1 13 30
M  V30 32 1 14 31
M  V30 33 1 16 32
M  V30 34 1 18 33
M  V30 35 1 18 34
M  V30 36 1 20 35
M  V30 37 1 21 36
M  V30 38 1 21 37
M  V30 39 1 22 38
M  V30 40 1 22 39
M  V30 41 1 22 40
M  V30 42 1 23 41
M  V30 43 1 24 42
M  V30 44 1 24 43
M  V30 45 1 24 44
M  V30 46 1 25 45
M  V30 47 1 25 46
M  V30 48 1 25 47
M  V30 END BOND
M  V30 BEGIN COLLECTION
M  V30 MDLV30/STEABS ATOMS=(1 20)
M  V30 END COLLECTION
M  V30 END CTAB
M  END
>  <Structure No>
8464

>  <LogS>
-1.42

>  <MMFF94 Energy>
-118.33

$$$$
Compound 8465
Actelion Java MolfileCreator 2.0

  0  0  0  0  0  0              0 V3000
M  V30 BEGIN CTAB
M  V30 COUNTS 45 46 0 0 0
M  V30 BEGIN ATOM
M  V30 1 S 6.7265 -0.8286 -0.0828 0
M  V30 2 O 7.9845 -0.7336 0.7337 0
M  V30 3 O 7.0929 -0.898 -1.5384 0
M  V30 4 N 5.8565 -2.2523 0.3684 0
M  V30 5 C 5.7326 0.5869 0.2025 0
M  V30 6 S 5.9262 1.6694 1.473 0
M  V30 7 C 4.639 0.9693 -0.5572 0
M  V30 8 C 4.6209 2.652 1.0696 0
M  V30 9 C 4.0217 2.1284 -0.0712 0
M  V30 10 S 2.5953 2.8251 -0.8179 0
M  V30 11 O 2.8402 3.0161 -2.2885 0
M  V30 12 O 2.2984 4.1674 -0.2091 0
M  V30 13 C 1.2295 1.7457 -0.5626 0
M  V30 14 C 0.4585 1.8501 0.6025 0
M  V30 15 C 0.9267 0.7562 -1.5071 0
M  V30 16 C -0.6133 0.9788 0.8172 0
M  V30 17 C -0.1447 -0.1156 -1.2936 0
M  V30 18 C -0.9149 -0.0183 -0.1237 0
M  V30 19 C -2.0945 -0.9337 0.089 0
M  V30 20 N -3.3158 -0.3373 -0.4876 0 CHG=1
M  V30 21 C -4.5539 -1.1546 -0.3433 0
M  V30 22 C -5.7244 -0.3823 -0.9942 0
M  V30 23 C -4.9065 -1.3905 1.1444 0
M  V30 24 C -4.4205 -2.5163 -1.065 0
M  V30 25 H 5.5755 -2.1342 1.3678 0
M  V30 26 H 4.9751 -2.2624 -0.1926 0
M  V30 27 H 4.2939 0.4243 -1.4265 0
M  V30 28 H 4.3 3.5315 1.6115 0
M  V30 29 H 0.6868 2.6045 1.3446 0
M  V30 30 H 1.5193 0.6583 -2.4076 0
M  V30 31 H -1.2072 1.0804 1.7173 0
M  V30 32 H -0.3733 -0.8674 -2.0389 0
M  V30 33 H -1.8708 -1.9126 -0.3841 0
M  V30 34 H -2.2154 -1.1047 1.1796 0
M  V30 35 H -3.1434 -0.1613 -1.5065 0
M  V30 36 H -3.4702 0.594 -0.0322 0
M  V30 37 H -5.8671 0.6014 -0.4973 0
M  V30 38 H -5.5206 -0.2005 -2.0714 0
M  V30 39 H -6.6754 -0.9524 -0.9131 0
M  V30 40 H -4.1903 -2.0874 1.6268 0
M  V30 41 H -5.9159 -1.846 1.2401 0
M  V30 42 H -4.9021 -0.4301 1.7031 0
M  V30 43 H -4.0634 -2.3719 -2.1072 0
M  V30 44 H -5.4012 -3.0382 -1.1008 0
M  V30 45 H -3.7151 -3.1901 -0.536 0
M  V30 END ATOM
M  V30 BEGIN BOND
M  V30 1 2 1 2
M  V30 2 2 1 3
M  V30 3 1 1 4
M  V30 4 1 1 5
M  V30 5 1 5 6
M  V30 6 2 5 7
M  V30 7 1 6 8
M  V30 8 1 7 9
M  V30 9 1 9 10
M  V30 10 2 10 11
M  V30 11 2 10 12
M  V30 12 1 10 13
M  V30 13 2 13 14
M  V30 14 1 13 15
M  V30 15 1 14 16
M  V30 16 2 15 17
M  V30 17 2 16 18
M  V30 18 1 18 19
M  V30 19 1 19 20
M  V30 20 1 20 21
M  V30 21 1 21 22
M  V30 22 1 21 23
M  V30 23 1 21 24
M  V30 24 2 8 9
M  V30 25 1 17 18
M  V30 26 1 4 25
M  V30 27 1 4 26
M  V30 28 1 7 27
M  V30 29 1 8 28
M  V30 30 1 14 29
M  V30 31 1 15 30
M  V30 32 1 16 31
M  V30 33 1 17 32
M  V30 34 1 19 33
M  V30 35 1 19 34
M  V30 36 1 20 35
M  V30 37 1 20 36
M  V30 38 1 22 37
M  V30 39 1 22 38
M  V30 40 1 22 39
M  V30 41 1 23 40
M  V30 42 1 23 41
M  V30 43 1 23 42
M  V30 44 1 24 43
M  V30 45 1 24 44
M  V30 46 1 24 45
M  V30 END BOND
M  V30 END CTAB
M  END
>  <Structure No>
8465

>  <LogS>
-1.98

>  <MMFF94 Energy>
14.6

$$$$
Compound 8466
Actelion Java MolfileCreator 2.0

  0  0  0  0  0  0              0 V3000
M  V30 BEGIN CTAB
M  V30 COUNTS 45 46 0 0 0
M  V30 BEGIN ATOM
M  V30 1 S -5.974 0.4968 2.486 0
M  V30 2 O -5.7193 0.1821 3.9335 0
M  V30 3 O -7.4348 0.3107 2.1857 0
M  V30 4 N -5.5208 2.1387 2.183 0
M  V30 5 C -5.027 -0.5823 1.4787 0
M  V30 6 S -4.3882 -2.0556 1.9739 0
M  V30 7 C -4.6832 -0.3607 0.1546 0
M  V30 8 C -3.6589 -2.4359 0.5065 0
M  V30 9 C -3.9195 -1.4025 -0.3865 0
M  V30 10 S -3.2911 -1.3804 -2.0239 0
M  V30 11 O -4.1255 -0.4706 -2.8821 0
M  V30 12 O -3.3508 -2.7648 -2.6065 0
M  V30 13 C -1.6297 -0.8046 -1.9861 0
M  V30 14 C -1.366 0.5704 -1.9566 0
M  V30 15 C -0.5664 -1.7149 -1.9363 0
M  V30 16 C -0.0489 1.0327 -1.8874 0
M  V30 17 C 0.7513 -1.254 -1.8681 0
M  V30 18 C 1.0199 0.124 -1.8419 0
M  V30 19 C 2.4407 0.6272 -1.7369 0
M  V30 20 N 2.7499 1.1331 -0.3851 0 CHG=1
M  V30 21 C 2.9263 0.0558 0.6102 0
M  V30 22 C 4.3322 -0.5886 0.5472 0
M  V30 23 C 5.2753 -0.1057 1.6613 0
M  V30 24 C 5.6516 1.3687 1.5223 0
M  V30 25 H -4.4791 2.1837 2.2414 0
M  V30 26 H -5.7797 2.3526 1.1943 0
M  V30 27 H -4.9668 0.5251 -0.3972 0
M  V30 28 H -3.0786 -3.3248 0.2979 0
M  V30 29 H -2.1799 1.2839 -1.9777 0
M  V30 30 H -0.756 -2.7803 -1.9399 0
M  V30 31 H 0.1384 2.0991 -1.8618 0
M  V30 32 H 1.561 -1.9715 -1.8241 0
M  V30 33 H 2.5729 1.4523 -2.4718 0
M  V30 34 H 3.1592 -0.1664 -2.0365 0
M  V30 35 H 3.6176 1.7154 -0.4371 0
M  V30 36 H 1.9793 1.7659 -0.0654 0
M  V30 37 H 2.7416 0.465 1.6289 0
M  V30 38 H 2.1549 -0.7325 0.4723 0
M  V30 39 H 4.2153 -1.6883 0.6625 0
M  V30 40 H 4.8126 -0.4242 -0.4408 0
M  V30 41 H 6.2076 -0.7101 1.6189 0
M  V30 42 H 4.8095 -0.2788 2.6562 0
M  V30 43 H 6.0773 1.5676 0.5158 0
M  V30 44 H 4.764 2.0152 1.6857 0
M  V30 45 H 6.4139 1.6286 2.2866 0
M  V30 END ATOM
M  V30 BEGIN BOND
M  V30 1 2 1 2
M  V30 2 2 1 3
M  V30 3 1 1 4
M  V30 4 1 1 5
M  V30 5 1 5 6
M  V30 6 2 5 7
M  V30 7 1 6 8
M  V30 8 1 7 9
M  V30 9 1 9 10
M  V30 10 2 10 11
M  V30 11 2 10 12
M  V30 12 1 10 13
M  V30 13 2 13 14
M  V30 14 1 13 15
M  V30 15 1 14 16
M  V30 16 2 15 17
M  V30 17 2 16 18
M  V30 18 1 18 19
M  V30 19 1 19 20
M  V30 20 1 20 21
M  V30 21 1 21 22
M  V30 22 1 22 23
M  V30 23 1 23 24
M  V30 24 2 8 9
M  V30 25 1 17 18
M  V30 26 1 4 25
M  V30 27 1 4 26
M  V30 28 1 7 27
M  V30 29 1 8 28
M  V30 30 1 14 29
M  V30 31 1 15 30
M  V30 32 1 16 31
M  V30 33 1 17 32
M  V30 34 1 19 33
M  V30 35 1 19 34
M  V30 36 1 20 35
M  V30 37 1 20 36
M  V30 38 1 21 37
M  V30 39 1 21 38
M  V30 40 1 22 39
M  V30 41 1 22 40
M  V30 42 1 23 41
M  V30 43 1 23 42
M  V30 44 1 24 43
M  V30 45 1 24 44
M  V30 46 1 24 45
M  V30 END BOND
M  V30 END CTAB
M  END
>  <Structure No>
8466

>  <LogS>
-1.68

>  <MMFF94 Energy>
3.616

$$$$
Compound 8467
Actelion Java MolfileCreator 2.0

  0  0  0  0  0  0              0 V3000
M  V30 BEGIN CTAB
M  V30 COUNTS 42 44 0 0 0
M  V30 BEGIN ATOM
M  V30 1 S 7.4656 0.4964 -0.6619 0
M  V30 2 O 8.1568 0.7436 0.649 0
M  V30 3 O 8.0737 1.3836 -1.7112 0
M  V30 4 N 7.667 -1.1561 -1.1264 0
M  V30 5 C 5.7583 0.8621 -0.5001 0
M  V30 6 S 4.8873 1.8893 -1.5009 0
M  V30 7 C 4.9123 0.3425 0.4662 0
M  V30 8 C 3.4122 1.6896 -0.7175 0
M  V30 9 C 3.5889 0.7975 0.3418 0
M  V30 10 C 2.5153 0.4039 1.2814 0
M  V30 11 O 2.8341 -0.002 2.432 0
M  V30 12 C 1.0797 0.4783 0.9224 0
M  V30 13 C 0.1306 0.8246 1.8985 0
M  V30 14 C 0.6395 0.1568 -0.3732 0
M  V30 15 C -1.2284 0.8792 1.5776 0
M  V30 16 C -0.7198 0.2115 -0.6936 0
M  V30 17 C -1.6628 0.5782 0.2784 0
M  V30 18 C -3.1307 0.6269 -0.0534 0
M  V30 19 N -3.8521 -0.4425 0.6715 0
M  V30 20 C -5.2739 -0.1067 0.8797 0
M  V30 21 C -3.7086 -1.7667 0.0196 0
M  V30 22 C -6.0793 -0.1702 -0.4403 0
M  V30 23 C -4.8632 -2.0758 -0.9549 0
M  V30 24 O -5.4125 -0.882 -1.4685 0
M  V30 25 H 7.2176 -1.739 -0.3852 0
M  V30 26 H 7.1107 -1.2977 -1.9992 0
M  V30 27 H 5.2422 -0.3488 1.2312 0
M  V30 28 H 2.4922 2.191 -0.9852 0
M  V30 29 H 0.4424 1.0632 2.9079 0
M  V30 30 H 1.3437 -0.1551 -1.1339 0
M  V30 31 H -1.9444 1.1543 2.3423 0
M  V30 32 H -1.0361 -0.0406 -1.6982 0
M  V30 33 H -3.2929 0.548 -1.1515 0
M  V30 34 H -3.5034 1.631 0.2493 0
M  V30 35 H -5.38 0.8944 1.3527 0
M  V30 36 H -5.707 -0.8345 1.6009 0
M  V30 37 H -3.6877 -2.5496 0.8076 0
M  V30 38 H -2.739 -1.8457 -0.5196 0
M  V30 39 H -6.2491 0.8664 -0.8005 0
M  V30 40 H -7.0805 -0.6193 -0.2573 0
M  V30 41 H -4.4763 -2.6838 -1.7996 0
M  V30 42 H -5.6478 -2.6863 -0.4502 0
M  V30 END ATOM
M  V30 BEGIN BOND
M  V30 1 2 1 2
M  V30 2 2 1 3
M  V30 3 1 1 4
M  V30 4 1 1 5
M  V30 5 1 5 6
M  V30 6 2 5 7
M  V30 7 1 6 8
M  V30 8 1 7 9
M  V30 9 1 9 10
M  V30 10 2 10 11
M  V30 11 1 10 12
M  V30 12 2 12 13
M  V30 13 1 12 14
M  V30 14 1 13 15
M  V30 15 2 14 16
M  V30 16 2 15 17
M  V30 17 1 17 18
M  V30 18 1 18 19
M  V30 19 1 19 20
M  V30 20 1 19 21
M  V30 21 1 20 22
M  V30 22 1 21 23
M  V30 23 1 22 24
M  V30 24 2 8 9
M  V30 25 1 16 17
M  V30 26 1 23 24
M  V30 27 1 4 25
M  V30 28 1 4 26
M  V30 29 1 7 27
M  V30 30 1 8 28
M  V30 31 1 13 29
M  V30 32 1 14 30
M  V30 33 1 15 31
M  V30 34 1 16 32
M  V30 35 1 18 33
M  V30 36 1 18 34
M  V30 37 1 20 35
M  V30 38 1 20 36
M  V30 39 1 21 37
M  V30 40 1 21 38
M  V30 41 1 22 39
M  V30 42 1 22 40
M  V30 43 1 23 41
M  V30 44 1 23 42
M  V30 END BOND
M  V30 END CTAB
M  END
>  <Structure No>
8467

>  <LogS>
-1.52

>  <MMFF94 Energy>
49.66

$$$$
Compound 8468
Actelion Java MolfileCreator 2.0

  0  0  0  0  0  0              0 V3000
M  V30 BEGIN CTAB
M  V30 COUNTS 42 43 0 0 0
M  V30 BEGIN ATOM
M  V30 1 S 6.2467 -0.748 1.5797 0
M  V30 2 O 5.9243 -2.1821 1.2677 0
M  V30 3 O 6.5629 -0.6258 3.044 0
M  V30 4 N 7.616 -0.2425 0.6542 0
M  V30 5 C 4.8652 0.2585 1.1905 0
M  V30 6 S 4.201 1.4287 2.1972 0
M  V30 7 C 4.1538 0.2245 0.0018 0
M  V30 8 C 2.9895 1.9108 1.1335 0
M  V30 9 C 3.1064 1.1535 -0.0272 0
M  V30 10 S 2.0142 1.313 -1.3905 0
M  V30 11 O 2.7842 1.1653 -2.6731 0
M  V30 12 O 1.3754 2.6739 -1.3788 0
M  V30 13 C 0.7734 0.0709 -1.2795 0
M  V30 14 C -0.3718 0.2916 -0.5021 0
M  V30 15 C 0.9391 -1.154 -1.9394 0
M  V30 16 C -1.3538 -0.7056 -0.3854 0
M  V30 17 C -0.0428 -2.1428 -1.8398 0
M  V30 18 C -1.189 -1.9189 -1.0726 0
M  V30 19 C -2.6038 -0.4501 0.4179 0
M  V30 20 N -3.6376 0.174 -0.429 0 CHG=1
M  V30 21 C -4.9129 0.467 0.2668 0
M  V30 22 C -5.6178 -0.8035 0.7694 0
M  V30 23 C -4.7463 1.4929 1.3997 0
M  V30 24 H 7.3494 -0.3213 -0.3529 0
M  V30 25 H 7.7576 0.774 0.8493 0
M  V30 26 H 4.3819 -0.4502 -0.8129 0
M  V30 27 H 2.2459 2.6731 1.3238 0
M  V30 28 H -0.4981 1.236 0.0138 0
M  V30 29 H 1.8258 -1.3437 -2.5304 0
M  V30 30 H 0.0841 -3.0843 -2.3586 0
M  V30 31 H -1.9462 -2.6908 -1.0116 0
M  V30 32 H -2.9654 -1.4151 0.8326 0
M  V30 33 H -2.3477 0.2086 1.275 0
M  V30 34 H -3.2607 1.0697 -0.8205 0
M  V30 35 H -3.8398 -0.4582 -1.2394 0
M  V30 36 H -5.5971 0.9315 -0.4797 0
M  V30 37 H -5.6634 -1.5644 -0.0379 0
M  V30 38 H -5.0958 -1.2352 1.6486 0
M  V30 39 H -6.6578 -0.5596 1.0749 0
M  V30 40 H -5.7447 1.8461 1.7359 0
M  V30 41 H -4.1702 2.3724 1.0423 0
M  V30 42 H -4.2282 1.0486 2.2751 0
M  V30 END ATOM
M  V30 BEGIN BOND
M  V30 1 2 1 2
M  V30 2 2 1 3
M  V30 3 1 1 4
M  V30 4 1 1 5
M  V30 5 1 5 6
M  V30 6 2 5 7
M  V30 7 1 6 8
M  V30 8 1 7 9
M  V30 9 1 9 10
M  V30 10 2 10 11
M  V30 11 2 10 12
M  V30 12 1 10 13
M  V30 13 2 13 14
M  V30 14 1 13 15
M  V30 15 1 14 16
M  V30 16 2 15 17
M  V30 17 2 16 18
M  V30 18 1 16 19
M  V30 19 1 19 20
M  V30 20 1 20 21
M  V30 21 1 21 22
M  V30 22 1 21 23
M  V30 23 2 8 9
M  V30 24 1 17 18
M  V30 25 1 4 24
M  V30 26 1 4 25
M  V30 27 1 7 26
M  V30 28 1 8 27
M  V30 29 1 14 28
M  V30 30 1 15 29
M  V30 31 1 17 30
M  V30 32 1 18 31
M  V30 33 1 19 32
M  V30 34 1 19 33
M  V30 35 1 20 34
M  V30 36 1 20 35
M  V30 37 1 21 36
M  V30 38 1 22 37
M  V30 39 1 22 38
M  V30 40 1 22 39
M  V30 41 1 23 40
M  V30 42 1 23 41
M  V30 43 1 23 42
M  V30 END BOND
M  V30 END CTAB
M  END
>  <Structure No>
8468

>  <LogS>
-1.56

>  <MMFF94 Energy>
4.4056

$$$$
Compound 8469
Actelion Java MolfileCreator 2.0

  0  0  0  0  0  0              0 V3000
M  V30 BEGIN CTAB
M  V30 COUNTS 45 46 0 0 0
M  V30 BEGIN ATOM
M  V30 1 S 5.8084 -0.2484 1.5741 0
M  V30 2 O 7.2663 -0.0152 1.2917 0
M  V30 3 O 5.6703 -1.3683 2.5666 0
M  V30 4 N 5.1118 1.1952 2.2215 0
M  V30 5 C 4.9819 -0.6787 0.0903 0
M  V30 6 S 5.7021 -0.8127 -1.4215 0
M  V30 7 C 3.6278 -0.9449 -0.0262 0
M  V30 8 C 4.2959 -1.2153 -2.253 0
M  V30 9 C 3.2473 -1.2469 -1.3395 0
M  V30 10 S 1.589 -1.6104 -1.7838 0
M  V30 11 O 1.0929 -2.773 -0.9707 0
M  V30 12 O 1.5168 -1.9834 -3.2385 0
M  V30 13 C 0.5888 -0.1933 -1.486 0
M  V30 14 C 0.0546 0.0301 -0.2096 0
M  V30 15 C 0.3496 0.7323 -2.5101 0
M  V30 16 C -0.7287 1.168 0.0436 0
M  V30 17 C -0.4337 1.8629 -2.2647 0
M  V30 18 C -0.9746 2.0801 -0.9947 0
M  V30 19 C -1.3251 1.3958 1.4125 0
M  V30 20 N -2.7744 1.1187 1.4454 0 CHG=1
M  V30 21 C -3.1343 -0.2959 1.1696 0 CFG=2
M  V30 22 C -4.6642 -0.4434 0.9695 0
M  V30 23 C -2.6836 -1.2232 2.3155 0
M  V30 24 C -5.1498 0.1191 -0.3684 0
M  V30 25 H 5.6658 1.4487 3.0701 0
M  V30 26 H 5.2705 1.952 1.5191 0
M  V30 27 H 2.939 -0.9161 0.8076 0
M  V30 28 H 4.2229 -1.4109 -3.3141 0
M  V30 29 H 0.2467 -0.6807 0.5843 0
M  V30 30 H 0.7688 0.5809 -3.4966 0
M  V30 31 H -0.6208 2.5732 -3.0598 0
M  V30 32 H -1.5809 2.96 -0.8187 0
M  V30 33 H -0.7893 0.807 2.1862 0
M  V30 34 H -1.1575 2.4607 1.6899 0
M  V30 35 H -3.1392 1.3916 2.3884 0
M  V30 36 H -3.2314 1.749 0.7491 0
M  V30 37 H -2.6389 -0.6482 0.2385 0
M  V30 38 H -4.9417 -1.5202 0.9898 0
M  V30 39 H -5.2081 0.0577 1.7997 0
M  V30 40 H -1.5785 -1.2707 2.3797 0
M  V30 41 H -3.0918 -0.8728 3.2876 0
M  V30 42 H -3.0351 -2.2616 2.1358 0
M  V30 43 H -6.216 -0.1539 -0.5164 0
M  V30 44 H -4.56 -0.3061 -1.2082 0
M  V30 45 H -5.0796 1.2255 -0.3897 0
M  V30 END ATOM
M  V30 BEGIN BOND
M  V30 1 2 1 2
M  V30 2 2 1 3
M  V30 3 1 1 4
M  V30 4 1 1 5
M  V30 5 1 5 6
M  V30 6 2 5 7
M  V30 7 1 6 8
M  V30 8 1 7 9
M  V30 9 1 9 10
M  V30 10 2 10 11
M  V30 11 2 10 12
M  V30 12 1 10 13
M  V30 13 2 13 14
M  V30 14 1 13 15
M  V30 15 1 14 16
M  V30 16 2 15 17
M  V30 17 2 16 18
M  V30 18 1 16 19
M  V30 19 1 19 20
M  V30 20 1 20 21
M  V30 21 1 21 22
M  V30 22 1 21 23
M  V30 23 1 22 24
M  V30 24 2 8 9
M  V30 25 1 17 18
M  V30 26 1 4 25
M  V30 27 1 4 26
M  V30 28 1 7 27
M  V30 29 1 8 28
M  V30 30 1 14 29
M  V30 31 1 15 30
M  V30 32 1 17 31
M  V30 33 1 18 32
M  V30 34 1 19 33
M  V30 35 1 19 34
M  V30 36 1 20 35
M  V30 37 1 20 36
M  V30 38 1 21 37
M  V30 39 1 22 38
M  V30 40 1 22 39
M  V30 41 1 23 40
M  V30 42 1 23 41
M  V30 43 1 23 42
M  V30 44 1 24 43
M  V30 45 1 24 44
M  V30 46 1 24 45
M  V30 END BOND
M  V30 BEGIN COLLECTION
M  V30 MDLV30/STEABS ATOMS=(1 21)
M  V30 END COLLECTION
M  V30 END CTAB
M  END
>  <Structure No>
8469

>  <LogS>
-1.33

>  <MMFF94 Energy>
-1.1546

$$$$
Compound 8470
Actelion Java MolfileCreator 2.0

  0  0  0  0  0  0              0 V3000
M  V30 BEGIN CTAB
M  V30 COUNTS 42 44 0 0 0
M  V30 BEGIN ATOM
M  V30 1 S 6.8835 0.993 -0.993 0
M  V30 2 O 7.2994 2.427 -1.1668 0
M  V30 3 O 7.015 0.2835 -2.3111 0
M  V30 4 N 7.897 0.2307 0.1812 0
M  V30 5 C 5.2155 0.9277 -0.4581 0
M  V30 6 S 4.4262 2.1403 0.3919 0
M  V30 7 C 4.3457 -0.1337 -0.6508 0
M  V30 8 C 2.9568 1.3328 0.527 0
M  V30 9 C 3.0763 0.086 -0.0901 0
M  V30 10 C 1.972 -0.893 -0.1996 0
M  V30 11 O 2.0055 -1.7454 -1.1286 0
M  V30 12 C 0.8241 -0.9016 0.7367 0
M  V30 13 C -0.4599 -1.2278 0.2675 0
M  V30 14 C 1.0042 -0.6314 2.1046 0
M  V30 15 C -1.5558 -1.2576 1.1449 0
M  V30 16 C -0.0852 -0.6548 2.9786 0
M  V30 17 C -1.3616 -0.9603 2.5024 0
M  V30 18 C -2.9332 -1.5664 0.6183 0
M  V30 19 N -3.4325 -0.4549 -0.2166 0
M  V30 20 C -4.6196 -0.8792 -0.9799 0
M  V30 21 C -3.7592 0.7306 0.6066 0
M  V30 22 C -5.1244 0.2767 -1.8702 0
M  V30 23 C -4.5368 1.7796 -0.2131 0
M  V30 24 O -4.4606 1.4977 -1.5955 0
M  V30 25 H 7.8029 0.7775 1.0664 0
M  V30 26 H 8.8828 0.3496 -0.1431 0
M  V30 27 H 4.6239 -1.0394 -1.1744 0
M  V30 28 H 2.0676 1.7321 0.9965 0
M  V30 29 H -0.6133 -1.4436 -0.7834 0
M  V30 30 H 1.9885 -0.416 2.5004 0
M  V30 31 H 0.0611 -0.4386 4.0291 0
M  V30 32 H -2.1969 -0.9658 3.1916 0
M  V30 33 H -2.8552 -2.496 0.0111 0
M  V30 34 H -3.6406 -1.7897 1.4495 0
M  V30 35 H -5.433 -1.1955 -0.2864 0
M  V30 36 H -4.3657 -1.747 -1.6286 0
M  V30 37 H -2.8146 1.1925 0.9678 0
M  V30 38 H -4.3652 0.4471 1.4973 0
M  V30 39 H -6.2248 0.4026 -1.7564 0
M  V30 40 H -4.9396 0.0201 -2.9352 0
M  V30 41 H -4.1013 2.7855 -0.0324 0
M  V30 42 H -5.5993 1.8268 0.1206 0
M  V30 END ATOM
M  V30 BEGIN BOND
M  V30 1 2 1 2
M  V30 2 2 1 3
M  V30 3 1 1 4
M  V30 4 1 1 5
M  V30 5 1 5 6
M  V30 6 2 5 7
M  V30 7 1 6 8
M  V30 8 1 7 9
M  V30 9 1 9 10
M  V30 10 2 10 11
M  V30 11 1 10 12
M  V30 12 2 12 13
M  V30 13 1 12 14
M  V30 14 1 13 15
M  V30 15 2 14 16
M  V30 16 2 15 17
M  V30 17 1 15 18
M  V30 18 1 18 19
M  V30 19 1 19 20
M  V30 20 1 19 21
M  V30 21 1 20 22
M  V30 22 1 21 23
M  V30 23 1 22 24
M  V30 24 2 8 9
M  V30 25 1 16 17
M  V30 26 1 23 24
M  V30 27 1 4 25
M  V30 28 1 4 26
M  V30 29 1 7 27
M  V30 30 1 8 28
M  V30 31 1 13 29
M  V30 32 1 14 30
M  V30 33 1 16 31
M  V30 34 1 17 32
M  V30 35 1 18 33
M  V30 36 1 18 34
M  V30 37 1 20 35
M  V30 38 1 20 36
M  V30 39 1 21 37
M  V30 40 1 21 38
M  V30 41 1 22 39
M  V30 42 1 22 40
M  V30 43 1 23 41
M  V30 44 1 23 42
M  V30 END BOND
M  V30 END CTAB
M  END
>  <Structure No>
8470

>  <LogS>
-1.92

>  <MMFF94 Energy>
50.079

$$$$
Compound 8471
Actelion Java MolfileCreator 2.0

  0  0  0  0  0  0              0 V3000
M  V30 BEGIN CTAB
M  V30 COUNTS 52 53 0 0 0
M  V30 BEGIN ATOM
M  V30 1 O -3.0107 -0.4749 1.5837 0
M  V30 2 C -4.1458 -0.5217 1.0338 0
M  V30 3 N -5.2851 -0.9425 1.8004 0
M  V30 4 C -4.275 -0.1598 -0.3988 0
M  V30 5 C -5.1932 -1.1794 3.236 0
M  V30 6 C -3.1606 -0.2634 -1.2514 0
M  V30 7 C -5.492 0.3108 -0.9224 0
M  V30 8 C -3.2553 0.0901 -2.6119 0
M  V30 9 C -5.595 0.652 -2.2723 0
M  V30 10 N -2.126 -2.0E-4 -3.5037 0
M  V30 11 C -4.4863 0.5394 -3.1126 0
M  V30 12 C -0.7491 -0.2483 -3.0748 0
M  V30 13 C -0.2242 0.9236 -2.2995 0
M  V30 14 O -0.1449 2.0498 -2.8618 0
M  V30 15 N 0.1777 0.7703 -0.932 0
M  V30 16 C 0.6043 1.9183 -0.131 0
M  V30 17 C 0.9445 1.5107 1.3085 0
M  V30 18 C 2.153 0.6097 1.3641 0
M  V30 19 C 3.4369 1.1388 1.163 0
M  V30 20 C 2.0045 -0.7646 1.5944 0
M  V30 21 C 4.5701 0.3024 1.191 0
M  V30 22 C 3.1225 -1.5994 1.6277 0
M  V30 23 O 5.8679 0.7989 0.9884 0
M  V30 24 C 4.4121 -1.0724 1.4262 0
M  V30 25 C 6.1784 2.1637 0.7267 0
M  V30 26 O 5.5596 -1.8811 1.4507 0
M  V30 27 C 5.5513 -3.2869 1.6776 0
M  V30 28 H -6.1954 -1.1371 1.3273 0
M  V30 29 H -4.9037 -0.2407 3.754 0
M  V30 30 H -6.176 -1.5168 3.6272 0
M  V30 31 H -4.4369 -1.9662 3.4412 0
M  V30 32 H -2.2306 -0.6381 -0.8511 0
M  V30 33 H -6.3605 0.4394 -0.2901 0
M  V30 34 H -6.5359 1.0138 -2.6672 0
M  V30 35 H -2.2833 0.1653 -4.5241 0
M  V30 36 H -4.5842 0.8141 -4.1556 0
M  V30 37 H -0.1064 -0.3888 -3.9703 0
M  V30 38 H -0.6951 -1.1882 -2.4862 0
M  V30 39 H 0.1368 -0.1805 -0.5009 0
M  V30 40 H 1.4871 2.3974 -0.6074 0
M  V30 41 H -0.2191 2.6645 -0.1017 0
M  V30 42 H 0.0612 1.0183 1.7718 0
M  V30 43 H 1.1501 2.428 1.9022 0
M  V30 44 H 3.5429 2.2004 0.9831 0
M  V30 45 H 1.0212 -1.1924 1.7473 0
M  V30 46 H 2.9726 -2.6549 1.8092 0
M  V30 47 H 5.6796 2.4967 -0.2083 0
M  V30 48 H 7.2757 2.2681 0.6007 0
M  V30 49 H 5.8562 2.7986 1.5791 0
M  V30 50 H 5.1271 -3.5096 2.6799 0
M  V30 51 H 4.9593 -3.7974 0.8887 0
M  V30 52 H 6.5933 -3.6662 1.6408 0
M  V30 END ATOM
M  V30 BEGIN BOND
M  V30 1 2 1 2
M  V30 2 1 2 3
M  V30 3 1 2 4
M  V30 4 1 3 5
M  V30 5 2 4 6
M  V30 6 1 4 7
M  V30 7 1 6 8
M  V30 8 2 7 9
M  V30 9 1 8 10
M  V30 10 2 8 11
M  V30 11 1 10 12
M  V30 12 1 12 13
M  V30 13 2 13 14
M  V30 14 1 13 15
M  V30 15 1 15 16
M  V30 16 1 16 17
M  V30 17 1 17 18
M  V30 18 2 18 19
M  V30 19 1 18 20
M  V30 20 1 19 21
M  V30 21 2 20 22
M  V30 22 1 21 23
M  V30 23 2 21 24
M  V30 24 1 23 25
M  V30 25 1 24 26
M  V30 26 1 26 27
M  V30 27 1 9 11
M  V30 28 1 22 24
M  V30 29 1 3 28
M  V30 30 1 5 29
M  V30 31 1 5 30
M  V30 32 1 5 31
M  V30 33 1 6 32
M  V30 34 1 7 33
M  V30 35 1 9 34
M  V30 36 1 10 35
M  V30 37 1 11 36
M  V30 38 1 12 37
M  V30 39 1 12 38
M  V30 40 1 15 39
M  V30 41 1 16 40
M  V30 42 1 16 41
M  V30 43 1 17 42
M  V30 44 1 17 43
M  V30 45 1 19 44
M  V30 46 1 20 45
M  V30 47 1 22 46
M  V30 48 1 25 47
M  V30 49 1 25 48
M  V30 50 1 25 49
M  V30 51 1 27 50
M  V30 52 1 27 51
M  V30 53 1 27 52
M  V30 END BOND
M  V30 END CTAB
M  END
>  <Structure No>
8471

>  <LogS>
-1.85

>  <MMFF94 Energy>
70.241

$$$$
Compound 8472
Actelion Java MolfileCreator 2.0

  0  0  0  0  0  0              0 V3000
M  V30 BEGIN CTAB
M  V30 COUNTS 29 30 0 0 0
M  V30 BEGIN ATOM
M  V30 1 S 4.8657 1.0706 0.0823 0
M  V30 2 O 5.5418 1.3332 1.3981 0
M  V30 3 O 4.8445 2.3305 -0.7359 0
M  V30 4 N 5.7425 -0.1488 -0.7741 0
M  V30 5 C 3.2233 0.5292 0.3659 0
M  V30 6 O 2.7583 -0.6481 -0.0292 0
M  V30 7 C 2.2402 1.2739 1.0308 0
M  V30 8 C 1.5135 -0.6755 0.3629 0
M  V30 9 C 1.1488 0.4419 1.0007 0
M  V30 10 S 0.2616 -1.7795 0.2515 0
M  V30 11 C -0.1675 0.4697 1.4368 0
M  V30 12 C -0.809 -0.7318 1.0887 0
M  V30 13 C -2.2506 -1.0447 1.3704 0
M  V30 14 N -3.1598 -0.2638 0.5148 0 CHG=1
M  V30 15 C -3.1102 -0.7068 -0.8883 0
M  V30 16 C -4.115 0.0674 -1.7392 0
M  V30 17 H 5.2188 -0.3395 -1.6576 0
M  V30 18 H 5.6953 -1.0204 -0.2002 0
M  V30 19 H 2.32 2.2629 1.4622 0
M  V30 20 H -0.6301 1.2954 1.9611 0
M  V30 21 H -2.4344 -2.1347 1.2434 0
M  V30 22 H -2.4562 -0.8048 2.4368 0
M  V30 23 H -2.9191 0.7536 0.5772 0
M  V30 24 H -4.1337 -0.3939 0.8772 0
M  V30 25 H -2.0952 -0.5388 -1.3107 0
M  V30 26 H -3.3482 -1.7917 -0.9589 0
M  V30 27 H -4.0552 -0.2772 -2.7929 0
M  V30 28 H -3.8891 1.1543 -1.7058 0
M  V30 29 H -5.1473 -0.1037 -1.3664 0
M  V30 END ATOM
M  V30 BEGIN BOND
M  V30 1 2 1 2
M  V30 2 2 1 3
M  V30 3 1 1 4
M  V30 4 1 1 5
M  V30 5 1 5 6
M  V30 6 2 5 7
M  V30 7 1 6 8
M  V30 8 1 7 9
M  V30 9 1 8 10
M  V30 10 1 9 11
M  V30 11 1 10 12
M  V30 12 1 12 13
M  V30 13 1 13 14
M  V30 14 1 14 15
M  V30 15 1 15 16
M  V30 16 2 8 9
M  V30 17 2 11 12
M  V30 18 1 4 17
M  V30 19 1 4 18
M  V30 20 1 7 19
M  V30 21 1 11 20
M  V30 22 1 13 21
M  V30 23 1 13 22
M  V30 24 1 14 23
M  V30 25 1 14 24
M  V30 26 1 15 25
M  V30 27 1 15 26
M  V30 28 1 16 27
M  V30 29 1 16 28
M  V30 30 1 16 29
M  V30 END BOND
M  V30 END CTAB
M  END
>  <Structure No>
8472

>  <LogS>
-1.04

>  <MMFF94 Energy>
-47.888

$$$$
Compound 8473
Actelion Java MolfileCreator 2.0

  0  0  0  0  0  0              0 V3000
M  V30 BEGIN CTAB
M  V30 COUNTS 35 36 0 0 0
M  V30 BEGIN ATOM
M  V30 1 S 5.5667 1.0624 0.3268 0
M  V30 2 O 6.5992 -0.029 0.3344 0
M  V30 3 O 5.6674 1.8631 1.5941 0
M  V30 4 N 5.8478 2.1018 -1.026 0
M  V30 5 C 3.9679 0.3549 0.2068 0
M  V30 6 O 3.1291 0.5976 -0.7912 0
M  V30 7 C 3.4133 -0.5293 1.1415 0
M  V30 8 C 2.0615 -0.1034 -0.5216 0
M  V30 9 C 2.1732 -0.7958 0.6171 0
M  V30 10 S 0.5801 -0.3359 -1.2628 0
M  V30 11 C 1.0638 -1.5559 0.9566 0
M  V30 12 C 0.0663 -1.4044 -0.0222 0
M  V30 13 C -1.29 -2.0465 0.0325 0
M  V30 14 N -2.1449 -1.4589 1.0808 0 CHG=1
M  V30 15 C -2.4032 -0.0109 0.9295 0
M  V30 16 C -3.1456 0.3788 -0.3756 0
M  V30 17 C -4.5097 -0.3158 -0.4985 0
M  V30 18 C -3.3304 1.901 -0.4284 0
M  V30 19 H 5.723 1.5244 -1.8875 0
M  V30 20 H 5.0856 2.8162 -1.0275 0
M  V30 21 H 3.8533 -0.9089 2.054 0
M  V30 22 H 0.9788 -2.1669 1.8456 0
M  V30 23 H -1.7841 -1.9934 -0.9596 0
M  V30 24 H -1.1495 -3.1286 0.2474 0
M  V30 25 H -1.6823 -1.6095 2.0082 0
M  V30 26 H -3.0506 -1.9798 1.1144 0
M  V30 27 H -3.0111 0.3296 1.7979 0
M  V30 28 H -1.4435 0.5486 0.9901 0
M  V30 29 H -2.528 0.1026 -1.2554 0
M  V30 30 H -4.38 -1.4067 -0.6528 0
M  V30 31 H -5.0639 0.075 -1.3785 0
M  V30 32 H -5.1214 -0.144 0.4131 0
M  V30 33 H -2.3441 2.4097 -0.3741 0
M  V30 34 H -3.9615 2.2501 0.4172 0
M  V30 35 H -3.8151 2.1977 -1.3832 0
M  V30 END ATOM
M  V30 BEGIN BOND
M  V30 1 2 1 2
M  V30 2 2 1 3
M  V30 3 1 1 4
M  V30 4 1 1 5
M  V30 5 1 5 6
M  V30 6 2 5 7
M  V30 7 1 6 8
M  V30 8 1 7 9
M  V30 9 1 8 10
M  V30 10 1 9 11
M  V30 11 1 10 12
M  V30 12 1 12 13
M  V30 13 1 13 14
M  V30 14 1 14 15
M  V30 15 1 15 16
M  V30 16 1 16 17
M  V30 17 1 16 18
M  V30 18 2 8 9
M  V30 19 2 11 12
M  V30 20 1 4 19
M  V30 21 1 4 20
M  V30 22 1 7 21
M  V30 23 1 11 22
M  V30 24 1 13 23
M  V30 25 1 13 24
M  V30 26 1 14 25
M  V30 27 1 14 26
M  V30 28 1 15 27
M  V30 29 1 15 28
M  V30 30 1 16 29
M  V30 31 1 17 30
M  V30 32 1 17 31
M  V30 33 1 17 32
M  V30 34 1 18 33
M  V30 35 1 18 34
M  V30 36 1 18 35
M  V30 END BOND
M  V30 END CTAB
M  END
>  <Structure No>
8473

>  <LogS>
-1.33

>  <MMFF94 Energy>
-43.688

$$$$
Compound 8474
Actelion Java MolfileCreator 2.0

  0  0  0  0  0  0              0 V3000
M  V30 BEGIN CTAB
M  V30 COUNTS 36 37 0 0 0
M  V30 BEGIN ATOM
M  V30 1 S -6.6282 -0.5715 0.5715 0
M  V30 2 O -6.7336 -1.7035 1.5538 0
M  V30 3 O -7.4549 -0.8883 -0.643 0
M  V30 4 N -7.2109 0.8869 1.2942 0
M  V30 5 C -4.9555 -0.3623 0.0965 0
M  V30 6 O -4.4907 -0.6594 -1.1094 0
M  V30 7 C -3.9444 0.133 0.9305 0
M  V30 8 C -3.2189 -0.3676 -1.0689 0
M  V30 9 C -2.8367 0.1096 0.1206 0
M  V30 10 S -1.9481 -0.4608 -2.153 0
M  V30 11 C -1.4906 0.4278 0.2237 0
M  V30 12 C -0.8467 0.1713 -0.9995 0
M  V30 13 C 0.6236 0.3326 -1.2389 0
M  V30 14 N 1.3476 -0.8771 -0.8167 0 CHG=1
M  V30 15 C 2.7839 -0.8116 -1.1427 0
M  V30 16 C 3.5622 0.1066 -0.1919 0
M  V30 17 O 4.9415 -0.0011 -0.4783 0
M  V30 18 C 5.705 0.7216 0.4695 0
M  V30 19 C 6.2194 -0.2145 1.5573 0
M  V30 20 H -8.2248 0.7426 1.4998 0
M  V30 21 H -7.1538 1.6331 0.5652 0
M  V30 22 H -4.0176 0.454 1.9612 0
M  V30 23 H -1.0092 0.8072 1.1155 0
M  V30 24 H 0.9763 1.2185 -0.6689 0
M  V30 25 H 0.7888 0.5263 -2.3219 0
M  V30 26 H 1.2196 -1.0295 0.2117 0
M  V30 27 H 0.943 -1.702 -1.3199 0
M  V30 28 H 2.9347 -0.4797 -2.1946 0
M  V30 29 H 3.2149 -1.8348 -1.0607 0
M  V30 30 H 3.3505 -0.2018 0.8572 0
M  V30 31 H 3.2316 1.1573 -0.3446 0
M  V30 32 H 6.5818 1.1554 -0.0559 0
M  V30 33 H 5.158 1.5781 0.9314 0
M  V30 34 H 5.3717 -0.6385 2.1348 0
M  V30 35 H 6.8789 0.3465 2.2525 0
M  V30 36 H 6.8003 -1.0438 1.1012 0
M  V30 END ATOM
M  V30 BEGIN BOND
M  V30 1 2 1 2
M  V30 2 2 1 3
M  V30 3 1 1 4
M  V30 4 1 1 5
M  V30 5 1 5 6
M  V30 6 2 5 7
M  V30 7 1 6 8
M  V30 8 1 7 9
M  V30 9 1 8 10
M  V30 10 1 9 11
M  V30 11 1 10 12
M  V30 12 1 12 13
M  V30 13 1 13 14
M  V30 14 1 14 15
M  V30 15 1 15 16
M  V30 16 1 16 17
M  V30 17 1 17 18
M  V30 18 1 18 19
M  V30 19 2 8 9
M  V30 20 2 11 12
M  V30 21 1 4 20
M  V30 22 1 4 21
M  V30 23 1 7 22
M  V30 24 1 11 23
M  V30 25 1 13 24
M  V30 26 1 13 25
M  V30 27 1 14 26
M  V30 28 1 14 27
M  V30 29 1 15 28
M  V30 30 1 15 29
M  V30 31 1 16 30
M  V30 32 1 16 31
M  V30 33 1 18 32
M  V30 34 1 18 33
M  V30 35 1 19 34
M  V30 36 1 19 35
M  V30 37 1 19 36
M  V30 END BOND
M  V30 END CTAB
M  END
>  <Structure No>
8474

>  <LogS>
-0.92

>  <MMFF94 Energy>
-32.386

$$$$
Compound 8475
Actelion Java MolfileCreator 2.0

  0  0  0  0  0  0              0 V3000
M  V30 BEGIN CTAB
M  V30 COUNTS 49 50 0 0 0
M  V30 BEGIN ATOM
M  V30 1 O -9.1383 0.792 -0.0791 0
M  V30 2 C -7.9086 0.899 -0.3353 0
M  V30 3 N -7.4279 2.115 -0.9149 0
M  V30 4 C -6.998 -0.2363 -0.0479 0
M  V30 5 C -5.6201 -0.0316 0.1584 0
M  V30 6 C -7.5142 -1.5402 0.0447 0
M  V30 7 C -4.7635 -1.1171 0.433 0
M  V30 8 C -6.6706 -2.6179 0.3169 0
M  V30 9 N -3.3504 -0.9346 0.6456 0
M  V30 10 C -5.3044 -2.4094 0.5072 0
M  V30 11 C -2.6861 0.3674 0.5622 0
M  V30 12 C -1.2109 0.2236 0.7847 0
M  V30 13 O -0.7244 0.4858 1.9181 0
M  V30 14 N -0.3699 -0.2563 -0.2733 0
M  V30 15 C 1.0732 -0.4223 -0.1173 0
M  V30 16 C 1.7755 0.9376 -0.1498 0
M  V30 17 C 3.2652 0.7673 -0.0154 0
M  V30 18 C 4.0623 0.5799 -1.1543 0
M  V30 19 C 3.8593 0.7375 1.2529 0
M  V30 20 C 5.4524 0.3868 -1.0321 0
M  V30 21 C 5.2359 0.5474 1.3828 0
M  V30 22 O 6.2802 0.2038 -2.1511 0
M  V30 23 C 6.0419 0.3725 0.2419 0
M  V30 24 C 5.8238 0.193 -3.4998 0
M  V30 25 O 7.4295 0.1794 0.3328 0
M  V30 26 C 8.16 0.1407 1.5545 0
M  V30 27 H -8.0795 2.9195 -1.0509 0
M  V30 28 H -6.4595 2.1982 -1.2939 0
M  V30 29 H -5.221 0.9711 0.1314 0
M  V30 30 H -8.5703 -1.7282 -0.1045 0
M  V30 31 H -7.0774 -3.6189 0.3797 0
M  V30 32 H -2.7735 -1.7801 0.863 0
M  V30 33 H -4.6654 -3.2578 0.7173 0
M  V30 34 H -2.8561 0.8092 -0.4429 0
M  V30 35 H -3.1116 1.0516 1.3283 0
M  V30 36 H -0.8109 -0.5542 -1.1728 0
M  V30 37 H 1.2899 -0.9507 0.8369 0
M  V30 38 H 1.4571 -1.0505 -0.951 0
M  V30 39 H 1.3961 1.581 0.6733 0
M  V30 40 H 1.537 1.4538 -1.1058 0
M  V30 41 H 3.5924 0.5839 -2.1289 0
M  V30 42 H 3.2547 0.8606 2.1432 0
M  V30 43 H 5.6634 0.5346 2.3759 0
M  V30 44 H 5.0966 -0.6325 -3.6503 0
M  V30 45 H 6.6895 0.0305 -4.1739 0
M  V30 46 H 5.3548 1.1675 -3.7523 0
M  V30 47 H 8.0538 1.1056 2.0938 0
M  V30 48 H 7.7978 -0.695 2.1898 0
M  V30 49 H 9.2335 -0.024 1.3296 0
M  V30 END ATOM
M  V30 BEGIN BOND
M  V30 1 2 1 2
M  V30 2 1 2 3
M  V30 3 1 2 4
M  V30 4 2 4 5
M  V30 5 1 4 6
M  V30 6 1 5 7
M  V30 7 2 6 8
M  V30 8 1 7 9
M  V30 9 2 7 10
M  V30 10 1 9 11
M  V30 11 1 11 12
M  V30 12 2 12 13
M  V30 13 1 12 14
M  V30 14 1 14 15
M  V30 15 1 15 16
M  V30 16 1 16 17
M  V30 17 2 17 18
M  V30 18 1 17 19
M  V30 19 1 18 20
M  V30 20 2 19 21
M  V30 21 1 20 22
M  V30 22 2 20 23
M  V30 23 1 22 24
M  V30 24 1 23 25
M  V30 25 1 25 26
M  V30 26 1 8 10
M  V30 27 1 21 23
M  V30 28 1 3 27
M  V30 29 1 3 28
M  V30 30 1 5 29
M  V30 31 1 6 30
M  V30 32 1 8 31
M  V30 33 1 9 32
M  V30 34 1 10 33
M  V30 35 1 11 34
M  V30 36 1 11 35
M  V30 37 1 14 36
M  V30 38 1 15 37
M  V30 39 1 15 38
M  V30 40 1 16 39
M  V30 41 1 16 40
M  V30 42 1 18 41
M  V30 43 1 19 42
M  V30 44 1 21 43
M  V30 45 1 24 44
M  V30 46 1 24 45
M  V30 47 1 24 46
M  V30 48 1 26 47
M  V30 49 1 26 48
M  V30 50 1 26 49
M  V30 END BOND
M  V30 END CTAB
M  END
>  <Structure No>
8475

>  <LogS>
-2.69

>  <MMFF94 Energy>
66.617

$$$$
Compound 8476
Actelion Java MolfileCreator 2.0

  0  0  0  0  0  0              0 V3000
M  V30 BEGIN CTAB
M  V30 COUNTS 35 37 0 0 0
M  V30 BEGIN ATOM
M  V30 1 S -5.2862 1.6497 -1.5672 0
M  V30 2 O -5.5207 1.7136 -3.0504 0
M  V30 3 O -5.0257 3.0341 -1.0445 0
M  V30 4 N -6.6844 0.9863 -0.7963 0
M  V30 5 C -3.8993 0.6307 -1.2423 0
M  V30 6 O -3.0688 0.1977 -2.1812 0
M  V30 7 C -3.5245 0.173 0.0277 0
M  V30 8 C -2.1804 -0.5204 -1.5494 0
M  V30 9 C -2.4013 -0.572 -0.2313 0
M  V30 10 S -0.8222 -1.3872 -1.9991 0
M  V30 11 C -1.4825 -1.3174 0.4922 0
M  V30 12 C -0.5176 -1.8563 -0.377 0
M  V30 13 C 0.6605 -2.681 0.0558 0
M  V30 14 N 1.9083 -1.8994 0.0444 0 CHG=1
M  V30 15 C 1.9459 -0.9065 1.1308 0
M  V30 16 C 3.255 -0.1691 1.123 0
M  V30 17 N 4.2825 -0.6112 1.9003 0
M  V30 18 C 3.4479 0.9363 0.2812 0
M  V30 19 C 5.4958 0.0031 1.903 0
M  V30 20 C 4.6869 1.5803 0.2705 0
M  V30 21 C 5.7192 1.1144 1.0868 0
M  V30 22 H -7.497 1.5826 -1.071 0
M  V30 23 H -6.8462 0.0434 -1.2159 0
M  V30 24 H -4.0021 0.361 0.9802 0
M  V30 25 H -1.5019 -1.4532 1.5656 0
M  V30 26 H 0.7592 -3.5359 -0.648 0
M  V30 27 H 0.4782 -3.1135 1.0652 0
M  V30 28 H 2.7077 -2.5649 0.1674 0
M  V30 29 H 2.0182 -1.4217 -0.8814 0
M  V30 30 H 1.1171 -0.1729 1.0174 0
M  V30 31 H 1.82 -1.4098 2.1157 0
M  V30 32 H 2.6493 1.2919 -0.3581 0
M  V30 33 H 6.288 -0.3729 2.5366 0
M  V30 34 H 4.8475 2.4367 -0.3715 0
M  V30 35 H 6.6831 1.6064 1.0841 0
M  V30 END ATOM
M  V30 BEGIN BOND
M  V30 1 2 1 2
M  V30 2 2 1 3
M  V30 3 1 1 4
M  V30 4 1 1 5
M  V30 5 1 5 6
M  V30 6 2 5 7
M  V30 7 1 6 8
M  V30 8 1 7 9
M  V30 9 1 8 10
M  V30 10 1 9 11
M  V30 11 1 10 12
M  V30 12 1 12 13
M  V30 13 1 13 14
M  V30 14 1 14 15
M  V30 15 1 15 16
M  V30 16 2 16 17
M  V30 17 1 16 18
M  V30 18 1 17 19
M  V30 19 2 18 20
M  V30 20 2 19 21
M  V30 21 2 8 9
M  V30 22 2 11 12
M  V30 23 1 20 21
M  V30 24 1 4 22
M  V30 25 1 4 23
M  V30 26 1 7 24
M  V30 27 1 11 25
M  V30 28 1 13 26
M  V30 29 1 13 27
M  V30 30 1 14 28
M  V30 31 1 14 29
M  V30 32 1 15 30
M  V30 33 1 15 31
M  V30 34 1 18 32
M  V30 35 1 19 33
M  V30 36 1 20 34
M  V30 37 1 21 35
M  V30 END BOND
M  V30 END CTAB
M  END
>  <Structure No>
8476

>  <LogS>
-1.33

>  <MMFF94 Energy>
-34.491

$$$$
Compound 8477
Actelion Java MolfileCreator 2.0

  0  0  0  0  0  0              0 V3000
M  V30 BEGIN CTAB
M  V30 COUNTS 32 32 0 0 0
M  V30 BEGIN ATOM
M  V30 1 O 1.265 1.5815 -0.4742 0
M  V30 2 C 1.6076 0.5834 0.2182 0
M  V30 3 O 0.6309 -0.2285 0.8102 0
M  V30 4 C 3.0404 0.2675 0.4068 0
M  V30 5 C -0.7713 -0.0083 0.657 0
M  V30 6 C 4.0371 1.0727 -0.1764 0
M  V30 7 C 3.4267 -0.8472 1.1734 0
M  V30 8 C -1.2502 -0.4248 -0.711 0
M  V30 9 C 5.3894 0.767 0.0055 0
M  V30 10 C 4.7807 -1.148 1.3519 0
M  V30 11 O -0.4346 -0.9748 -1.5019 0
M  V30 12 N -2.6171 -0.2138 -1.1326 0
M  V30 13 C 5.7609 -0.342 0.7688 0
M  V30 14 C -3.6751 0.1587 -0.1809 0
M  V30 15 C -2.9719 -0.4656 -2.5332 0
M  V30 16 C -4.2515 -1.0896 0.489 0
M  V30 17 O -5.2686 -0.7342 1.3853 0
M  V30 18 H -0.9996 1.0644 0.8342 0
M  V30 19 H -1.302 -0.6101 1.4224 0
M  V30 20 H 3.7728 1.9375 -0.7721 0
M  V30 21 H 2.6849 -1.4868 1.6349 0
M  V30 22 H 6.15 1.3909 -0.4459 0
M  V30 23 H 5.0698 -2.0074 1.9431 0
M  V30 24 H 6.8082 -0.5767 0.9084 0
M  V30 25 H -3.2898 0.862 0.5853 0
M  V30 26 H -4.4939 0.6969 -0.7068 0
M  V30 27 H -4.0561 -0.3068 -2.7153 0
M  V30 28 H -2.7305 -1.5163 -2.7998 0
M  V30 29 H -2.4007 0.2213 -3.1927 0
M  V30 30 H -4.6821 -1.7555 -0.2884 0
M  V30 31 H -3.4517 -1.6556 1.0169 0
M  V30 32 H -4.8203 -0.3746 2.1949 0
M  V30 END ATOM
M  V30 BEGIN BOND
M  V30 1 2 1 2
M  V30 2 1 2 3
M  V30 3 1 2 4
M  V30 4 1 3 5
M  V30 5 2 4 6
M  V30 6 1 4 7
M  V30 7 1 5 8
M  V30 8 1 6 9
M  V30 9 2 7 10
M  V30 10 2 8 11
M  V30 11 1 8 12
M  V30 12 2 9 13
M  V30 13 1 12 14
M  V30 14 1 12 15
M  V30 15 1 14 16
M  V30 16 1 16 17
M  V30 17 1 10 13
M  V30 18 1 5 18
M  V30 19 1 5 19
M  V30 20 1 6 20
M  V30 21 1 7 21
M  V30 22 1 9 22
M  V30 23 1 10 23
M  V30 24 1 13 24
M  V30 25 1 14 25
M  V30 26 1 14 26
M  V30 27 1 15 27
M  V30 28 1 15 28
M  V30 29 1 15 29
M  V30 30 1 16 30
M  V30 31 1 16 31
M  V30 32 1 17 32
M  V30 END BOND
M  V30 END CTAB
M  END
>  <Structure No>
8477

>  <LogS>
-1.09

>  <MMFF94 Energy>
53.382

$$$$
Compound 8478
Actelion Java MolfileCreator 2.0

  0  0  0  0  0  0              0 V3000
M  V30 BEGIN CTAB
M  V30 COUNTS 28 29 0 0 0
M  V30 BEGIN ATOM
M  V30 1 F -4.0762 -0.8781 2.1564 0
M  V30 2 C -3.4692 -0.3215 1.0782 0
M  V30 3 C -3.8697 0.92 0.5925 0
M  V30 4 C -2.4266 -0.9848 0.4366 0
M  V30 5 O -4.8103 1.5446 1.152 0
M  V30 6 N -3.2417 1.4576 -0.486 0
M  V30 7 N -1.8147 -0.4289 -0.6517 0
M  V30 8 C -2.2224 0.8006 -1.1061 0
M  V30 9 C -0.6947 -1.1424 -1.2867 0
M  V30 10 O -1.6604 1.3357 -2.1009 0
M  V30 11 C 0.6133 -0.7019 -0.6849 0
M  V30 12 C 1.0521 -1.2527 0.5292 0
M  V30 13 C 1.3791 0.2999 -1.3014 0
M  V30 14 C 2.2491 -0.822 1.1085 0
M  V30 15 C 2.5763 0.7305 -0.7218 0
M  V30 16 C 3.0267 0.1608 0.4783 0
M  V30 17 C 4.2899 0.6519 1.1206 0
M  V30 18 H -2.1085 -1.9486 0.8163 0
M  V30 19 H -3.5451 2.3924 -0.844 0
M  V30 20 H -0.6961 -0.9719 -2.386 0
M  V30 21 H -0.8114 -2.2421 -1.1604 0
M  V30 22 H 0.4658 -2.0135 1.0293 0
M  V30 23 H 1.0499 0.7499 -2.2294 0
M  V30 24 H 2.5683 -1.2537 2.0492 0
M  V30 25 H 3.1507 1.509 -1.2085 0
M  V30 26 H 4.0543 1.4995 1.7976 0
M  V30 27 H 4.7712 -0.1583 1.7085 0
M  V30 28 H 5.0139 0.9935 0.3505 0
M  V30 END ATOM
M  V30 BEGIN BOND
M  V30 1 1 1 2
M  V30 2 1 2 3
M  V30 3 2 2 4
M  V30 4 2 3 5
M  V30 5 1 3 6
M  V30 6 1 4 7
M  V30 7 1 6 8
M  V30 8 1 7 9
M  V30 9 2 8 10
M  V30 10 1 9 11
M  V30 11 2 11 12
M  V30 12 1 11 13
M  V30 13 1 12 14
M  V30 14 2 13 15
M  V30 15 2 14 16
M  V30 16 1 16 17
M  V30 17 1 7 8
M  V30 18 1 15 16
M  V30 19 1 4 18
M  V30 20 1 6 19
M  V30 21 1 9 20
M  V30 22 1 9 21
M  V30 23 1 12 22
M  V30 24 1 13 23
M  V30 25 1 14 24
M  V30 26 1 15 25
M  V30 27 1 17 26
M  V30 28 1 17 27
M  V30 29 1 17 28
M  V30 END BOND
M  V30 END CTAB
M  END
>  <Structure No>
8478

>  <LogS>
-2.92

>  <MMFF94 Energy>
-36.892

$$$$
Compound 8479
Actelion Java MolfileCreator 2.0

  0  0  0  0  0  0              0 V3000
M  V30 BEGIN CTAB
M  V30 COUNTS 25 26 0 0 0
M  V30 BEGIN ATOM
M  V30 1 Cl -2.0831 -1.9997 2.0831 0
M  V30 2 C -2.197 -0.8473 0.7562 0
M  V30 3 C -1.1902 -0.7219 -0.2308 0
M  V30 4 C -3.3426 -0.0436 0.6893 0
M  V30 5 C -1.3686 0.2079 -1.2708 0
M  V30 6 C 0.0777 -1.5466 -0.2072 0
M  V30 7 C -3.5012 0.8799 -0.3468 0
M  V30 8 C -2.515 1.0034 -1.3267 0
M  V30 9 N 1.2465 -0.6915 0.0641 0
M  V30 10 Cl -4.9405 1.8803 -0.419 0
M  V30 11 C 1.541 -0.2817 1.3405 0
M  V30 12 C 2.0316 -0.2788 -0.9763 0
M  V30 13 O 0.8249 -0.6476 2.3125 0
M  V30 14 N 2.613 0.5259 1.5722 0
M  V30 15 C 3.1296 0.5472 -0.7507 0
M  V30 16 C 3.4087 0.9455 0.5537 0
M  V30 17 F 3.9065 0.9543 -1.7859 0
M  V30 18 O 4.3952 1.6931 0.7892 0
M  V30 19 H -4.1133 -0.1389 1.4442 0
M  V30 20 H -0.6175 0.3181 -2.0424 0
M  V30 21 H 0.185 -2.059 -1.1892 0
M  V30 22 H 0.0343 -2.3681 0.5367 0
M  V30 23 H -2.6351 1.7155 -2.1332 0
M  V30 24 H 1.8103 -0.5856 -1.9917 0
M  V30 25 H 2.8271 0.8298 2.5499 0
M  V30 END ATOM
M  V30 BEGIN BOND
M  V30 1 1 1 2
M  V30 2 2 2 3
M  V30 3 1 2 4
M  V30 4 1 3 5
M  V30 5 1 3 6
M  V30 6 2 4 7
M  V30 7 2 5 8
M  V30 8 1 6 9
M  V30 9 1 7 10
M  V30 10 1 9 11
M  V30 11 1 9 12
M  V30 12 2 11 13
M  V30 13 1 11 14
M  V30 14 2 12 15
M  V30 15 1 14 16
M  V30 16 1 15 17
M  V30 17 2 16 18
M  V30 18 1 7 8
M  V30 19 1 15 16
M  V30 20 1 4 19
M  V30 21 1 5 20
M  V30 22 1 6 21
M  V30 23 1 6 22
M  V30 24 1 8 23
M  V30 25 1 12 24
M  V30 26 1 14 25
M  V30 END BOND
M  V30 END CTAB
M  END
>  <Structure No>
8479

>  <LogS>
-3.94

>  <MMFF94 Energy>
-48.086

$$$$
Compound 8480
Actelion Java MolfileCreator 2.0

  0  0  0  0  0  0              0 V3000
M  V30 BEGIN CTAB
M  V30 COUNTS 49 52 0 0 0
M  V30 BEGIN ATOM
M  V30 1 S 5.4309 0.5663 -0.8901 0
M  V30 2 O 6.8458 0.2015 -1.2399 0
M  V30 3 O 5.0512 1.8072 -1.6482 0
M  V30 4 N 4.387 -0.7474 -1.3358 0
M  V30 5 C 5.3402 0.8561 0.8645 0
M  V30 6 C 2.9609 -0.7585 -1.1373 0
M  V30 7 C 2.261 -1.9637 -1.2934 0
M  V30 8 C 2.2482 0.4018 -0.8007 0
M  V30 9 C 0.8657 -2.0308 -1.1052 0
M  V30 10 C 0.8667 0.3554 -0.6222 0
M  V30 11 N 0.1763 -3.2958 -1.1939 0
M  V30 12 C 0.1593 -0.8494 -0.7757 0
M  V30 13 C 0.7434 -4.4759 -1.8389 0
M  V30 14 N -1.2753 -0.8617 -0.6418 0
M  V30 15 C -1.9911 0.115 0.1345 0
M  V30 16 C -1.8659 0.1448 1.5413 0
M  V30 17 C -2.8238 1.0564 -0.5072 0
M  V30 18 C -2.5626 1.1368 2.2745 0
M  V30 19 C -1.0833 -0.7982 2.2394 0
M  V30 20 C -3.5053 2.0214 0.2741 0
M  V30 21 C -2.9759 1.0782 -1.9089 0
M  V30 22 N -3.3546 2.0383 1.6285 0 CHG=1
M  V30 23 C -2.4416 1.184 3.6735 0
M  V30 24 C -0.9745 -0.7372 3.6306 0
M  V30 25 C -4.3318 2.9687 -0.3529 0
M  V30 26 C -3.8012 2.0276 -2.5162 0
M  V30 27 C -1.6481 0.2531 4.3453 0
M  V30 28 C -4.4791 2.9683 -1.7408 0
M  V30 29 H 4.8522 -1.6096 -1.6984 0
M  V30 30 H 6.0565 1.6557 1.1452 0
M  V30 31 H 4.3154 1.1691 1.1487 0
M  V30 32 H 5.6002 -0.0764 1.4063 0
M  V30 33 H 2.8206 -2.8552 -1.5406 0
M  V30 34 H 2.7437 1.354 -0.6889 0
M  V30 35 H 0.3448 1.2738 -0.3852 0
M  V30 36 H -0.7786 -3.3984 -0.7848 0
M  V30 37 H 1.0586 -4.2267 -2.874 0
M  V30 38 H -0.0182 -5.283 -1.8843 0
M  V30 39 H 1.6114 -4.8478 -1.2556 0
M  V30 40 H -1.8377 -1.5056 -1.2416 0
M  V30 41 H -0.5605 -1.5911 1.7222 0
M  V30 42 H -2.4575 0.3715 -2.5432 0
M  V30 43 H -3.8633 2.7622 2.1882 0
M  V30 44 H -2.9654 1.9405 4.245 0
M  V30 45 H -0.3686 -1.4636 4.1569 0
M  V30 46 H -4.8602 3.7105 0.2334 0
M  V30 47 H -3.9133 2.0356 -3.5928 0
M  V30 48 H -1.561 0.2951 5.4234 0
M  V30 49 H -5.1168 3.7022 -2.2167 0
M  V30 END ATOM
M  V30 BEGIN BOND
M  V30 1 2 1 2
M  V30 2 2 1 3
M  V30 3 1 1 4
M  V30 4 1 1 5
M  V30 5 1 4 6
M  V30 6 2 6 7
M  V30 7 1 6 8
M  V30 8 1 7 9
M  V30 9 2 8 10
M  V30 10 1 9 11
M  V30 11 2 9 12
M  V30 12 1 11 13
M  V30 13 1 12 14
M  V30 14 1 14 15
M  V30 15 1 15 16
M  V30 16 2 15 17
M  V30 17 1 16 18
M  V30 18 2 16 19
M  V30 19 1 17 20
M  V30 20 1 17 21
M  V30 21 1 18 22
M  V30 22 2 18 23
M  V30 23 1 19 24
M  V30 24 1 20 25
M  V30 25 2 21 26
M  V30 26 1 23 27
M  V30 27 2 25 28
M  V30 28 1 10 12
M  V30 29 2 20 22
M  V30 30 2 24 27
M  V30 31 1 26 28
M  V30 32 1 4 29
M  V30 33 1 5 30
M  V30 34 1 5 31
M  V30 35 1 5 32
M  V30 36 1 7 33
M  V30 37 1 8 34
M  V30 38 1 10 35
M  V30 39 1 11 36
M  V30 40 1 13 37
M  V30 41 1 13 38
M  V30 42 1 13 39
M  V30 43 1 14 40
M  V30 44 1 19 41
M  V30 45 1 21 42
M  V30 46 1 22 43
M  V30 47 1 23 44
M  V30 48 1 24 45
M  V30 49 1 25 46
M  V30 50 1 26 47
M  V30 51 1 27 48
M  V30 52 1 28 49
M  V30 END BOND
M  V30 END CTAB
M  END
>  <Structure No>
8480

>  <LogS>
-2.94

>  <MMFF94 Energy>
45.609

$$$$
Compound 8481
Actelion Java MolfileCreator 2.0

  0  0  0  0  0  0              0 V3000
M  V30 BEGIN CTAB
M  V30 COUNTS 44 45 0 0 0
M  V30 BEGIN ATOM
M  V30 1 Cl -3.8953 1.6216 0.6484 0
M  V30 2 C -3.8838 0.6348 -0.8102 0
M  V30 3 C -2.7716 -0.1598 -1.1751 0
M  V30 4 C -5.0004 0.6986 -1.6535 0
M  V30 5 C -1.5704 -0.2779 -0.3163 0
M  V30 6 C -2.7968 -0.8488 -2.4003 0
M  V30 7 C -5.0186 -0.0081 -2.8576 0
M  V30 8 O -0.4334 -0.176 -0.8516 0
M  V30 9 C -1.6687 -0.5853 1.1335 0
M  V30 10 C -3.9162 -0.7767 -3.2328 0
M  V30 11 C -0.7279 -0.0796 2.0636 0
M  V30 12 C -2.6951 -1.432 1.5934 0
M  V30 13 N 0.3079 0.8306 1.658 0
M  V30 14 C -0.8312 -0.4291 3.418 0
M  V30 15 C -2.7889 -1.7679 2.947 0
M  V30 16 C 1.6713 0.3655 1.5676 0
M  V30 17 C -0.0537 2.2134 1.3342 0
M  V30 18 C -1.8557 -1.2684 3.8572 0
M  V30 19 Cl -4.0756 -2.8237 3.5013 0
M  V30 20 O 1.9639 -0.7899 1.9831 0
M  V30 21 C 2.77 1.25 1.0355 0
M  V30 22 N 3.8851 0.4539 0.5252 0
M  V30 23 C 3.7957 -0.2976 -0.6932 0
M  V30 24 O 2.7412 -0.268 -1.384 0
M  V30 25 C 4.9753 -1.0873 -1.1784 0
M  V30 26 N 5.9024 -0.2294 -1.9139 0 CHG=1
M  V30 27 H -5.8534 1.3075 -1.3813 0
M  V30 28 H -1.9538 -1.4572 -2.7048 0
M  V30 29 H -5.8846 0.0476 -3.5046 0
M  V30 30 H -3.9292 -1.3187 -4.1694 0
M  V30 31 H -3.4173 -1.844 0.8992 0
M  V30 32 H -0.1196 -0.0376 4.1342 0
M  V30 33 H -0.0075 2.3688 0.2362 0
M  V30 34 H 0.6394 2.9178 1.8402 0
M  V30 35 H -1.0837 2.4442 1.6814 0
M  V30 36 H -1.9253 -1.5271 4.9062 0
M  V30 37 H 3.1292 1.8985 1.8629 0
M  V30 38 H 2.393 1.9056 0.2226 0
M  V30 39 H 4.7841 0.4536 1.0581 0
M  V30 40 H 4.6269 -1.9128 -1.838 0
M  V30 41 H 5.4971 -1.5452 -0.3095 0
M  V30 42 H 6.2583 0.532 -1.2908 0
M  V30 43 H 6.7117 -0.8035 -2.2432 0
M  V30 44 H 5.4222 0.1882 -2.7444 0
M  V30 END ATOM
M  V30 BEGIN BOND
M  V30 1 1 1 2
M  V30 2 2 2 3
M  V30 3 1 2 4
M  V30 4 1 3 5
M  V30 5 1 3 6
M  V30 6 2 4 7
M  V30 7 2 5 8
M  V30 8 1 5 9
M  V30 9 2 6 10
M  V30 10 2 9 11
M  V30 11 1 9 12
M  V30 12 1 11 13
M  V30 13 1 11 14
M  V30 14 2 12 15
M  V30 15 1 13 16
M  V30 16 1 13 17
M  V30 17 2 14 18
M  V30 18 1 15 19
M  V30 19 2 16 20
M  V30 20 1 16 21
M  V30 21 1 21 22
M  V30 22 1 22 23
M  V30 23 2 23 24
M  V30 24 1 23 25
M  V30 25 1 25 26
M  V30 26 1 7 10
M  V30 27 1 15 18
M  V30 28 1 4 27
M  V30 29 1 6 28
M  V30 30 1 7 29
M  V30 31 1 10 30
M  V30 32 1 12 31
M  V30 33 1 14 32
M  V30 34 1 17 33
M  V30 35 1 17 34
M  V30 36 1 17 35
M  V30 37 1 18 36
M  V30 38 1 21 37
M  V30 39 1 21 38
M  V30 40 1 22 39
M  V30 41 1 25 40
M  V30 42 1 25 41
M  V30 43 1 26 42
M  V30 44 1 26 43
M  V30 45 1 26 44
M  V30 END BOND
M  V30 END CTAB
M  END
>  <Structure No>
8481

>  <LogS>
-2.33

>  <MMFF94 Energy>
84.771

$$$$
Compound 8482
Actelion Java MolfileCreator 2.0

  0  0  0  0  0  0              0 V3000
M  V30 BEGIN CTAB
M  V30 COUNTS 21 21 0 0 0
M  V30 BEGIN ATOM
M  V30 1 O -2.609 -0.711 -1.8969 0
M  V30 2 C -2.3665 0.2956 -1.1791 0
M  V30 3 O -2.6252 1.5665 -1.6768 0 CHG=-1
M  V30 4 C -1.7465 0.1408 0.1853 0 CFG=1
M  V30 5 N -2.2193 -1.077 0.8565 0 CHG=1
M  V30 6 C -0.233 0.154 0.0873 0
M  V30 7 C 0.509 1.1351 0.769 0
M  V30 8 C 0.4528 -0.815 -0.6693 0
M  V30 9 C 1.9048 1.1498 0.6907 0
M  V30 10 C 1.8485 -0.797 -0.7453 0
M  V30 11 C 2.5779 0.1834 -0.0671 0
M  V30 12 O 3.9682 0.1887 -0.152 0
M  V30 13 H -2.0837 1.0125 0.7914 0
M  V30 14 H -1.8052 -1.1314 1.8157 0
M  V30 15 H -1.9505 -1.9345 0.3217 0
M  V30 16 H -3.2608 -1.0462 0.9506 0
M  V30 17 H 0.0093 1.8905 1.3625 0
M  V30 18 H -0.0908 -1.5837 -1.203 0
M  V30 19 H 2.4619 1.9122 1.2203 0
M  V30 20 H 2.3638 -1.5468 -1.3319 0
M  V30 21 H 4.5253 0.8859 0.3278 0
M  V30 END ATOM
M  V30 BEGIN BOND
M  V30 1 2 1 2
M  V30 2 1 2 3
M  V30 3 1 2 4
M  V30 4 1 4 5
M  V30 5 1 4 6
M  V30 6 2 6 7
M  V30 7 1 6 8
M  V30 8 1 7 9
M  V30 9 2 8 10
M  V30 10 2 9 11
M  V30 11 1 11 12
M  V30 12 1 10 11
M  V30 13 1 4 13
M  V30 14 1 5 14
M  V30 15 1 5 15
M  V30 16 1 5 16
M  V30 17 1 7 17
M  V30 18 1 8 18
M  V30 19 1 9 19
M  V30 20 1 10 20
M  V30 21 1 12 21
M  V30 END BOND
M  V30 BEGIN COLLECTION
M  V30 MDLV30/STEABS ATOMS=(1 4)
M  V30 END COLLECTION
M  V30 END CTAB
M  END
>  <Structure No>
8482

>  <LogS>
-0.53

>  <MMFF94 Energy>
14.717

$$$$
Compound 8483
Actelion Java MolfileCreator 2.0

  0  0  0  0  0  0              0 V3000
M  V30 BEGIN CTAB
M  V30 COUNTS 25 26 0 0 0
M  V30 BEGIN ATOM
M  V30 1 S -2.0949 0.0872 -1.5709 0
M  V30 2 O -2.5017 1.5092 -1.8349 0
M  V30 3 O -2.2364 -0.7333 -2.8215 0
M  V30 4 C -0.449 0.0217 -0.9956 0
M  V30 5 C -3.1034 -0.6037 -0.2704 0
M  V30 6 S 0.902 0.6259 -1.7902 0
M  V30 7 C -0.0708 -0.5828 0.1949 0
M  V30 8 C -2.3305 -1.6938 0.4885 0
M  V30 9 C 1.9916 0.1328 -0.6041 0
M  V30 10 C 1.3094 -0.5041 0.4253 0
M  V30 11 C -1.0526 -1.1626 1.182 0 CFG=2
M  V30 12 S 3.7193 0.4281 -0.6431 0
M  V30 13 O -1.3806 -0.1788 2.1278 0
M  V30 14 O 4.1441 0.7446 -2.0493 0
M  V30 15 O 4.448 -0.8011 -0.1785 0
M  V30 16 N 4.1074 1.76 0.3879 0
M  V30 17 H -3.4048 0.2039 0.43 0
M  V30 18 H -4.0225 -1.0393 -0.7159 0
M  V30 19 H -3.0012 -2.1357 1.2568 0
M  V30 20 H -2.0562 -2.5093 -0.2164 0
M  V30 21 H 1.7928 -0.8894 1.3138 0
M  V30 22 H -0.5578 -2.0205 1.6943 0
M  V30 23 H -1.7937 -0.6486 2.8989 0
M  V30 24 H 3.7642 1.5157 1.3441 0
M  V30 25 H 3.5379 2.5732 0.0627 0
M  V30 END ATOM
M  V30 BEGIN BOND
M  V30 1 2 1 2
M  V30 2 2 1 3
M  V30 3 1 1 4
M  V30 4 1 1 5
M  V30 5 1 4 6
M  V30 6 2 4 7
M  V30 7 1 5 8
M  V30 8 1 6 9
M  V30 9 1 7 10
M  V30 10 1 7 11
M  V30 11 1 9 12
M  V30 12 1 11 13
M  V30 13 2 12 14
M  V30 14 2 12 15
M  V30 15 1 12 16
M  V30 16 1 8 11
M  V30 17 2 9 10
M  V30 18 1 5 17
M  V30 19 1 5 18
M  V30 20 1 8 19
M  V30 21 1 8 20
M  V30 22 1 10 21
M  V30 23 1 11 22
M  V30 24 1 13 23
M  V30 25 1 16 24
M  V30 26 1 16 25
M  V30 END BOND
M  V30 BEGIN COLLECTION
M  V30 MDLV30/STEABS ATOMS=(1 11)
M  V30 END COLLECTION
M  V30 END CTAB
M  END
>  <Structure No>
8483

>  <LogS>
-1.65

>  <MMFF94 Energy>
-44.883

$$$$
Compound 8484
Actelion Java MolfileCreator 2.0

  0  0  0  0  0  0              0 V3000
M  V30 BEGIN CTAB
M  V30 COUNTS 26 27 0 0 0
M  V30 BEGIN ATOM
M  V30 1 O 0.1602 -1.3623 1.0417 0
M  V30 2 C 0.5315 -0.4041 0.3112 0
M  V30 3 C 1.9827 -0.13 0.1955 0
M  V30 4 C -0.485 0.4112 -0.403 0
M  V30 5 C 2.8875 -1.2025 0.1052 0
M  V30 6 C 2.4835 1.185 0.2234 0
M  V30 7 O -0.1137 1.3694 -1.1335 0
M  V30 8 C -1.9363 0.1371 -0.2872 0
M  V30 9 C 4.2619 -0.9632 0.0122 0
M  V30 10 C 3.8591 1.419 0.1313 0
M  V30 11 C -2.4372 -1.1778 -0.3151 0
M  V30 12 C -2.8412 1.2097 -0.1969 0
M  V30 13 C 4.7472 0.3464 0.0217 0
M  V30 14 C -3.8129 -1.4117 -0.2228 0
M  V30 15 C -4.2157 0.9705 -0.1037 0
M  V30 16 C -4.701 -0.339 -0.1131 0
M  V30 17 H 2.5286 -2.2244 0.0947 0
M  V30 18 H 1.8184 2.0301 0.3434 0
M  V30 19 H 4.9512 -1.794 -0.0659 0
M  V30 20 H 4.2373 2.433 0.1535 0
M  V30 21 H -1.7722 -2.0228 -0.435 0
M  V30 22 H -2.4824 2.2317 -0.1862 0
M  V30 23 H 5.8114 0.53 -0.0481 0
M  V30 24 H -4.1912 -2.4256 -0.245 0
M  V30 25 H -4.905 1.8014 -0.0255 0
M  V30 26 H -5.7653 -0.5225 -0.0431 0
M  V30 END ATOM
M  V30 BEGIN BOND
M  V30 1 2 1 2
M  V30 2 1 2 3
M  V30 3 1 2 4
M  V30 4 2 3 5
M  V30 5 1 3 6
M  V30 6 2 4 7
M  V30 7 1 4 8
M  V30 8 1 5 9
M  V30 9 2 6 10
M  V30 10 2 8 11
M  V30 11 1 8 12
M  V30 12 2 9 13
M  V30 13 1 11 14
M  V30 14 2 12 15
M  V30 15 2 14 16
M  V30 16 1 10 13
M  V30 17 1 15 16
M  V30 18 1 5 17
M  V30 19 1 6 18
M  V30 20 1 9 19
M  V30 21 1 10 20
M  V30 22 1 11 21
M  V30 23 1 12 22
M  V30 24 1 13 23
M  V30 25 1 14 24
M  V30 26 1 15 25
M  V30 27 1 16 26
M  V30 END BOND
M  V30 END CTAB
M  END
>  <Structure No>
8484

>  <LogS>
-2.8

>  <MMFF94 Energy>
95.81

$$$$
Compound 8485
Actelion Java MolfileCreator 2.0

  0  0  0  0  0  0              0 V3000
M  V30 BEGIN CTAB
M  V30 COUNTS 26 25 0 0 0
M  V30 BEGIN ATOM
M  V30 1 O 0.0 2.0466 -2.5981 0
M  V30 2 C 0.3428 1.8673 -1.3998 0
M  V30 3 O 0.5885 2.9671 -0.5861 0 CHG=-1
M  V30 4 C 0.4925 0.4718 -0.857 0 CFG=1
M  V30 5 N 1.8922 0.2366 -0.4911 0
M  V30 6 C -0.408 0.2457 0.3763 0
M  V30 7 C 2.4639 -1.0785 -0.4485 0
M  V30 8 C -1.9224 0.4255 0.1047 0
M  V30 9 O 1.7771 -2.0856 -0.7706 0
M  V30 10 C 3.8737 -1.2628 0.0095 0
M  V30 11 C -2.4655 -0.6417 -0.8575 0
M  V30 12 C -2.6983 0.3748 1.4272 0
M  V30 13 H 0.2126 -0.2461 -1.6574 0
M  V30 14 H 2.475 1.0376 -0.1554 0
M  V30 15 H -0.231 -0.7795 0.7698 0
M  V30 16 H -0.0928 0.955 1.174 0
M  V30 17 H -2.1015 1.4263 -0.3451 0
M  V30 18 H 4.2168 -2.3002 -0.1901 0
M  V30 19 H 4.5382 -0.5564 -0.5305 0
M  V30 20 H 3.9368 -1.0635 1.0993 0
M  V30 21 H -2.0408 -0.5067 -1.873 0
M  V30 22 H -3.5689 -0.551 -0.9501 0
M  V30 23 H -2.2217 -1.662 -0.4917 0
M  V30 24 H -3.7818 0.5409 1.2455 0
M  V30 25 H -2.3418 1.1728 2.1132 0
M  V30 26 H -2.5643 -0.6108 1.9229 0
M  V30 END ATOM
M  V30 BEGIN BOND
M  V30 1 2 1 2
M  V30 2 1 2 3
M  V30 3 1 2 4
M  V30 4 1 4 5
M  V30 5 1 4 6
M  V30 6 1 5 7
M  V30 7 1 6 8
M  V30 8 2 7 9
M  V30 9 1 7 10
M  V30 10 1 8 11
M  V30 11 1 8 12
M  V30 12 1 4 13
M  V30 13 1 5 14
M  V30 14 1 6 15
M  V30 15 1 6 16
M  V30 16 1 8 17
M  V30 17 1 10 18
M  V30 18 1 10 19
M  V30 19 1 10 20
M  V30 20 1 11 21
M  V30 21 1 11 22
M  V30 22 1 11 23
M  V30 23 1 12 24
M  V30 24 1 12 25
M  V30 25 1 12 26
M  V30 END BOND
M  V30 BEGIN COLLECTION
M  V30 MDLV30/STEABS ATOMS=(1 4)
M  V30 END COLLECTION
M  V30 END CTAB
M  END
>  <Structure No>
8485

>  <LogS>
-1.13

>  <MMFF94 Energy>
35.346

$$$$
Compound 8486
Actelion Java MolfileCreator 2.0

  0  0  0  0  0  0              0 V3000
M  V30 BEGIN CTAB
M  V30 COUNTS 26 25 0 0 0
M  V30 BEGIN ATOM
M  V30 1 S 0.4135 0.2481 -1.4067 0
M  V30 2 S -0.6826 0.8031 0.3466 0
M  V30 3 C 1.7671 -0.5773 -0.4946 0
M  V30 4 C -1.7047 -0.7176 0.3885 0
M  V30 5 C 2.9927 0.3427 -0.3435 0 CFG=1
M  V30 6 C -3.0836 -0.5406 -0.279 0 CFG=1
M  V30 7 N 2.7118 1.475 0.5487 0 CHG=1
M  V30 8 C 4.1583 -0.4512 0.1822 0
M  V30 9 N -3.8885 0.4819 0.4033 0 CHG=1
M  V30 10 C -2.9508 -0.2393 -1.7493 0
M  V30 11 O 5.1624 -0.6611 -0.548 0
M  V30 12 O 4.1273 -0.9717 1.4707 0 CHG=-1
M  V30 13 O -2.834 -1.1829 -2.575 0
M  V30 14 O -2.9044 1.0738 -2.2033 0 CHG=-1
M  V30 15 H 2.057 -1.4693 -1.0906 0
M  V30 16 H 1.4233 -0.944 0.4964 0
M  V30 17 H -1.8571 -0.9893 1.4545 0
M  V30 18 H -1.1646 -1.5689 -0.0786 0
M  V30 19 H 3.2607 0.7383 -1.3499 0
M  V30 20 H -3.618 -1.5134 -0.1844 0
M  V30 21 H 2.003 2.1077 0.113 0
M  V30 22 H 2.3554 1.1397 1.4737 0
M  V30 23 H 3.5841 2.0325 0.7004 0
M  V30 24 H -3.4412 1.4245 0.337 0
M  V30 25 H -4.8398 0.5268 -0.0299 0
M  V30 26 H -4.0018 0.2285 1.4118 0
M  V30 END ATOM
M  V30 BEGIN BOND
M  V30 1 1 1 2
M  V30 2 1 1 3
M  V30 3 1 2 4
M  V30 4 1 3 5
M  V30 5 1 4 6
M  V30 6 1 5 7
M  V30 7 1 5 8
M  V30 8 1 6 9
M  V30 9 1 6 10
M  V30 10 2 8 11
M  V30 11 1 8 12
M  V30 12 2 10 13
M  V30 13 1 10 14
M  V30 14 1 3 15
M  V30 15 1 3 16
M  V30 16 1 4 17
M  V30 17 1 4 18
M  V30 18 1 5 19
M  V30 19 1 6 20
M  V30 20 1 7 21
M  V30 21 1 7 22
M  V30 22 1 7 23
M  V30 23 1 9 24
M  V30 24 1 9 25
M  V30 25 1 9 26
M  V30 END BOND
M  V30 BEGIN COLLECTION
M  V30 MDLV30/STEABS ATOMS=(2 5 6)
M  V30 END COLLECTION
M  V30 END CTAB
M  END
>  <Structure No>
8486

>  <LogS>
-3.31

>  <MMFF94 Energy>
-41.345

$$$$
Compound 8487
Actelion Java MolfileCreator 2.0

  0  0  0  0  0  0              0 V3000
M  V30 BEGIN CTAB
M  V30 COUNTS 51 52 0 0 0
M  V30 BEGIN ATOM
M  V30 1 O 4.0945 1.8094 -0.7077 0
M  V30 2 C 3.7423 1.3728 0.5802 0
M  V30 3 C 5.3646 2.3468 -1.0607 0
M  V30 4 C 2.4547 0.8329 0.7948 0
M  V30 5 C 4.6421 1.4567 1.6622 0
M  V30 6 C 2.0963 0.3804 2.0762 0
M  V30 7 C 1.4589 0.7004 -0.3343 0
M  V30 8 C 4.2681 1.008 2.9308 0
M  V30 9 C 2.9982 0.4701 3.1372 0
M  V30 10 C 1.4088 -0.7443 -0.8998 0 CFG=1
M  V30 11 N 0.1989 -0.9408 -1.7382 0 CHG=1
M  V30 12 C 2.6776 -1.0433 -1.7175 0
M  V30 13 C -1.0082 -1.2649 -0.9326 0 CFG=1
M  V30 14 C -2.2868 -0.76 -1.6456 0
M  V30 15 C -1.0976 -2.7819 -0.6677 0
M  V30 16 C -3.5158 -0.885 -0.7741 0
M  V30 17 C -3.7482 0.0273 0.2779 0
M  V30 18 C -4.4188 -1.9397 -0.9913 0
M  V30 19 O -2.8305 1.0702 0.4884 0
M  V30 20 C -4.8902 -0.1316 1.0885 0
M  V30 21 C -5.5454 -2.0846 -0.1801 0
M  V30 22 C -2.9222 2.03 1.5356 0
M  V30 23 C -5.7809 -1.182 0.8568 0
M  V30 24 H 5.5625 3.2727 -0.4804 0
M  V30 25 H 5.3634 2.5983 -2.1409 0
M  V30 26 H 6.1618 1.5973 -0.8713 0
M  V30 27 H 5.6345 1.866 1.5332 0
M  V30 28 H 1.1152 -0.0442 2.2513 0
M  V30 29 H 0.4607 0.9969 0.0515 0
M  V30 30 H 1.6821 1.4206 -1.1509 0
M  V30 31 H 4.9659 1.0757 3.7554 0
M  V30 32 H 2.7127 0.1202 4.1208 0
M  V30 33 H 1.4005 -1.462 -0.049 0
M  V30 34 H 0.3557 -1.7093 -2.4328 0
M  V30 35 H 0.0458 -0.0729 -2.3045 0
M  V30 36 H 2.6482 -2.0849 -2.1018 0
M  V30 37 H 2.7598 -0.3459 -2.5783 0
M  V30 38 H 3.5838 -0.9484 -1.0838 0
M  V30 39 H -0.9549 -0.7621 0.0581 0
M  V30 40 H -2.4244 -1.3123 -2.6014 0
M  V30 41 H -2.1655 0.3108 -1.9191 0
M  V30 42 H -1.2796 -3.3346 -1.614 0
M  V30 43 H -1.922 -3.0044 0.0417 0
M  V30 44 H -0.1575 -3.1585 -0.2154 0
M  V30 45 H -4.2468 -2.6545 -1.7865 0
M  V30 46 H -5.098 0.5509 1.9011 0
M  V30 47 H -6.2357 -2.8998 -0.354 0
M  V30 48 H -2.897 1.5216 2.5225 0
M  V30 49 H -2.0564 2.7202 1.4699 0
M  V30 50 H -3.8567 2.6205 1.4318 0
M  V30 51 H -6.6551 -1.2975 1.4845 0
M  V30 END ATOM
M  V30 BEGIN BOND
M  V30 1 1 1 2
M  V30 2 1 1 3
M  V30 3 2 2 4
M  V30 4 1 2 5
M  V30 5 1 4 6
M  V30 6 1 4 7
M  V30 7 2 5 8
M  V30 8 2 6 9
M  V30 9 1 7 10
M  V30 10 1 10 11
M  V30 11 1 10 12
M  V30 12 1 11 13
M  V30 13 1 13 14
M  V30 14 1 13 15
M  V30 15 1 14 16
M  V30 16 2 16 17
M  V30 17 1 16 18
M  V30 18 1 17 19
M  V30 19 1 17 20
M  V30 20 2 18 21
M  V30 21 1 19 22
M  V30 22 2 20 23
M  V30 23 1 8 9
M  V30 24 1 21 23
M  V30 25 1 3 24
M  V30 26 1 3 25
M  V30 27 1 3 26
M  V30 28 1 5 27
M  V30 29 1 6 28
M  V30 30 1 7 29
M  V30 31 1 7 30
M  V30 32 1 8 31
M  V30 33 1 9 32
M  V30 34 1 10 33
M  V30 35 1 11 34
M  V30 36 1 11 35
M  V30 37 1 12 36
M  V30 38 1 12 37
M  V30 39 1 12 38
M  V30 40 1 13 39
M  V30 41 1 14 40
M  V30 42 1 14 41
M  V30 43 1 15 42
M  V30 44 1 15 43
M  V30 45 1 15 44
M  V30 46 1 18 45
M  V30 47 1 20 46
M  V30 48 1 21 47
M  V30 49 1 22 48
M  V30 50 1 22 49
M  V30 51 1 22 50
M  V30 52 1 23 51
M  V30 END BOND
M  V30 BEGIN COLLECTION
M  V30 MDLV30/STEABS ATOMS=(2 10 13)
M  V30 END COLLECTION
M  V30 END CTAB
M  END
>  <Structure No>
8487

>  <LogS>
-2.0

>  <MMFF94 Energy>
65.897

$$$$
Compound 8488
Actelion Java MolfileCreator 2.0

  0  0  0  0  0  0              0 V3000
M  V30 BEGIN CTAB
M  V30 COUNTS 54 59 0 0 0
M  V30 BEGIN ATOM
M  V30 1 O 0.0 1.7039 1.1357 0
M  V30 2 C 0.4677 0.4056 1.0127 0
M  V30 3 C -1.3893 1.7737 0.7878 0 CFG=2
M  V30 4 C 1.7917 -0.021 1.1147 0
M  V30 5 C -0.5226 -0.4432 0.6167 0
M  V30 6 C -1.7951 0.2939 0.4535 0 CFG=2
M  V30 7 C -1.6401 2.7392 -0.4034 0 CFG=2
M  V30 8 O 2.7636 0.8762 1.5829 0
M  V30 9 C 2.0876 -1.344 0.6998 0
M  V30 10 C -0.2323 -1.6685 0.0062 0
M  V30 11 C -2.2162 0.0637 -1.0078 0 CFG=2
M  V30 12 C -2.8742 -0.207 1.445 0
M  V30 13 O -1.6454 4.0773 0.0238 0
M  V30 14 C -2.9366 2.3912 -1.1287 0
M  V30 15 C 4.1695 0.6289 1.5918 0
M  V30 16 C 1.0875 -2.1453 0.107 0
M  V30 17 C -1.2347 -2.2903 -0.9656 0
M  V30 18 C -3.2146 1.1083 -1.4272 0
M  V30 19 C -2.5566 -1.4484 -1.1729 0 CFG=1
M  V30 20 C -3.3049 -1.6587 1.1823 0
M  V30 21 C 4.7163 0.6082 0.1889 0
M  V30 22 N -3.6233 -1.9198 -0.2403 0 CHG=1 CFG=1
M  V30 23 C 4.4493 1.674 -0.6866 0
M  V30 24 C 5.5185 -0.4584 -0.2497 0
M  V30 25 C -4.9693 -1.4252 -0.5932 0
M  V30 26 C 4.9601 1.6614 -1.9881 0
M  V30 27 C 6.0275 -0.467 -1.5522 0
M  V30 28 C 5.7471 0.591 -2.4212 0
M  V30 29 H -1.9492 2.1437 1.6758 0
M  V30 30 H -0.8084 2.6185 -1.1311 0
M  V30 31 H 3.0935 -1.7335 0.7563 0
M  V30 32 H -1.3416 0.2565 -1.6764 0
M  V30 33 H -2.4899 -0.1371 2.4869 0
M  V30 34 H -3.7641 0.4554 1.3869 0
M  V30 35 H -2.4264 4.1958 0.6261 0
M  V30 36 H -3.6406 3.1724 -1.3994 0
M  V30 37 H 4.6675 1.4495 2.1491 0
M  V30 38 H 4.3843 -0.3153 2.1373 0
M  V30 39 H 1.3562 -3.0979 -0.3313 0
M  V30 40 H -1.4629 -3.328 -0.6426 0
M  V30 41 H -0.7294 -2.3719 -1.9526 0
M  V30 42 H -4.1179 0.8535 -1.9701 0
M  V30 43 H -2.8883 -1.6177 -2.2228 0
M  V30 44 H -4.1806 -1.8972 1.8273 0
M  V30 45 H -2.4935 -2.3413 1.5185 0
M  V30 46 H -3.6861 -2.9607 -0.3463 0
M  V30 47 H 3.8428 2.5107 -0.3622 0
M  V30 48 H 5.7464 -1.2843 0.4123 0
M  V30 49 H -5.152 -1.5104 -1.6863 0
M  V30 50 H -5.1239 -0.3745 -0.2775 0
M  V30 51 H -5.7455 -2.0372 -0.0825 0
M  V30 52 H 4.7468 2.4823 -2.6605 0
M  V30 53 H 6.6404 -1.2935 -1.8874 0
M  V30 54 H 6.142 0.5827 -3.4288 0
M  V30 END ATOM
M  V30 BEGIN BOND
M  V30 1 1 1 2
M  V30 2 1 1 3
M  V30 3 2 2 4
M  V30 4 1 2 5
M  V30 5 1 3 6
M  V30 6 1 3 7
M  V30 7 1 4 8
M  V30 8 1 4 9
M  V30 9 2 5 10
M  V30 10 1 6 11
M  V30 11 1 6 12
M  V30 12 1 7 13
M  V30 13 1 7 14
M  V30 14 1 8 15
M  V30 15 2 9 16
M  V30 16 1 10 17
M  V30 17 1 11 18
M  V30 18 1 11 19
M  V30 19 1 12 20
M  V30 20 1 15 21
M  V30 21 1 19 22
M  V30 22 2 21 23
M  V30 23 1 21 24
M  V30 24 1 22 25
M  V30 25 1 23 26
M  V30 26 2 24 27
M  V30 27 2 26 28
M  V30 28 1 5 6
M  V30 29 1 10 16
M  V30 30 2 14 18
M  V30 31 1 17 19
M  V30 32 1 20 22
M  V30 33 1 27 28
M  V30 34 1 3 29
M  V30 35 1 7 30
M  V30 36 1 9 31
M  V30 37 1 11 32
M  V30 38 1 12 33
M  V30 39 1 12 34
M  V30 40 1 13 35
M  V30 41 1 14 36
M  V30 42 1 15 37
M  V30 43 1 15 38
M  V30 44 1 16 39
M  V30 45 1 17 40
M  V30 46 1 17 41
M  V30 47 1 18 42
M  V30 48 1 19 43
M  V30 49 1 20 44
M  V30 50 1 20 45
M  V30 51 1 22 46
M  V30 52 1 23 47
M  V30 53 1 24 48
M  V30 54 1 25 49
M  V30 55 1 25 50
M  V30 56 1 25 51
M  V30 57 1 26 52
M  V30 58 1 27 53
M  V30 59 1 28 54
M  V30 END BOND
M  V30 BEGIN COLLECTION
M  V30 MDLV30/STEABS ATOMS=(6 3 6 7 11 19 22)
M  V30 END COLLECTION
M  V30 END CTAB
M  END
>  <Structure No>
8488

>  <LogS>
-2.22

>  <MMFF94 Energy>
148.98

$$$$
Compound 8489
Actelion Java MolfileCreator 2.0

  0  0  0  0  0  0              0 V3000
M  V30 BEGIN CTAB
M  V30 COUNTS 47 51 0 0 0
M  V30 BEGIN ATOM
M  V30 1 O 1.3789 1.2166 1.1354 0
M  V30 2 C 1.4831 0.083 0.3031 0
M  V30 3 C 0.1223 1.759 0.7172 0 CFG=1
M  V30 4 C 2.6278 -0.5333 -0.2003 0
M  V30 5 C 0.2437 -0.2367 -0.208 0
M  V30 6 C -0.7822 0.5413 0.4953 0 CFG=2
M  V30 7 C -0.6466 2.9792 1.2206 0 CFG=2
M  V30 8 O 3.8772 -0.2233 0.3525 0
M  V30 9 C 2.4583 -1.4201 -1.303 0
M  V30 10 C 0.0474 -0.9822 -1.3427 0
M  V30 11 C -2.0632 0.8826 -0.2565 0 CFG=1
M  V30 12 C -1.2337 -0.3536 1.6752 0
M  V30 13 O -1.3323 2.6862 2.407 0
M  V30 14 C -1.6394 3.3048 0.0679 0
M  V30 15 C 5.1091 -0.778 -0.099 0
M  V30 16 C 1.1815 -1.6029 -1.8998 0
M  V30 17 C -1.3104 -0.8922 -2.0111 0
M  V30 18 C -2.1225 2.3155 -0.7546 0
M  V30 19 C -2.4554 -0.3904 -1.0484 0 CFG=1
M  V30 20 C -1.9023 -1.6558 1.1084 0
M  V30 21 C 6.2519 -0.223 0.7357 0
M  V30 22 N -2.8356 -1.4689 -0.0624 0 CHG=1 CFG=1
M  V30 23 C -4.2276 -1.3151 0.4136 0
M  V30 24 H 0.4202 2.1734 -0.2951 0
M  V30 25 H 0.0539 3.8306 1.3778 0
M  V30 26 H 3.3106 -1.9146 -1.7483 0
M  V30 27 H -2.8796 0.9928 0.4876 0
M  V30 28 H -1.9546 0.1762 2.3344 0
M  V30 29 H -0.3717 -0.6329 2.3212 0
M  V30 30 H -1.7155 3.544 2.7271 0
M  V30 31 H -1.7639 4.3405 -0.2311 0
M  V30 32 H 5.0849 -1.8842 0.006 0
M  V30 33 H 5.2739 -0.5103 -1.1652 0
M  V30 34 H 1.0876 -2.1985 -2.7986 0
M  V30 35 H -1.5786 -1.8786 -2.4457 0
M  V30 36 H -1.2248 -0.174 -2.8546 0
M  V30 37 H -2.6858 2.5637 -1.6482 0
M  V30 38 H -3.3253 -0.1409 -1.697 0
M  V30 39 H -1.0893 -2.3549 0.8101 0
M  V30 40 H -2.4158 -2.1765 1.9479 0
M  V30 41 H 6.2925 0.8824 0.6361 0
M  V30 42 H 7.2145 -0.6526 0.3868 0
M  V30 43 H 6.1045 -0.4878 1.8043 0
M  V30 44 H -2.8395 -2.3778 -0.5843 0
M  V30 45 H -4.5705 -2.2535 0.9038 0
M  V30 46 H -4.3238 -0.4982 1.1588 0
M  V30 47 H -4.9241 -1.1228 -0.4312 0
M  V30 END ATOM
M  V30 BEGIN BOND
M  V30 1 1 1 2
M  V30 2 1 1 3
M  V30 3 2 2 4
M  V30 4 1 2 5
M  V30 5 1 3 6
M  V30 6 1 3 7
M  V30 7 1 4 8
M  V30 8 1 4 9
M  V30 9 2 5 10
M  V30 10 1 6 11
M  V30 11 1 6 12
M  V30 12 1 7 13
M  V30 13 1 7 14
M  V30 14 1 8 15
M  V30 15 2 9 16
M  V30 16 1 10 17
M  V30 17 1 11 18
M  V30 18 1 11 19
M  V30 19 1 12 20
M  V30 20 1 15 21
M  V30 21 1 19 22
M  V30 22 1 22 23
M  V30 23 1 5 6
M  V30 24 1 10 16
M  V30 25 2 14 18
M  V30 26 1 17 19
M  V30 27 1 20 22
M  V30 28 1 3 24
M  V30 29 1 7 25
M  V30 30 1 9 26
M  V30 31 1 11 27
M  V30 32 1 12 28
M  V30 33 1 12 29
M  V30 34 1 13 30
M  V30 35 1 14 31
M  V30 36 1 15 32
M  V30 37 1 15 33
M  V30 38 1 16 34
M  V30 39 1 17 35
M  V30 40 1 17 36
M  V30 41 1 18 37
M  V30 42 1 19 38
M  V30 43 1 20 39
M  V30 44 1 20 40
M  V30 45 1 21 41
M  V30 46 1 21 42
M  V30 47 1 21 43
M  V30 48 1 22 44
M  V30 49 1 23 45
M  V30 50 1 23 46
M  V30 51 1 23 47
M  V30 END BOND
M  V30 BEGIN COLLECTION
M  V30 MDLV30/STEABS ATOMS=(6 3 6 7 11 19 22)
M  V30 END COLLECTION
M  V30 END CTAB
M  END
>  <Structure No>
8489

>  <LogS>
-0.82

>  <MMFF94 Energy>
150.74

$$$$
Compound 8490
Actelion Java MolfileCreator 2.0

  0  0  0  0  0  0              0 V3000
M  V30 BEGIN CTAB
M  V30 COUNTS 29 30 0 0 0
M  V30 BEGIN ATOM
M  V30 1 Cl -4.2919 -3.3273 0.6998 0
M  V30 2 C -3.3235 -1.8651 0.7268 0
M  V30 3 C -3.8454 -0.6695 0.2209 0
M  V30 4 C -2.028 -1.8925 1.2545 0
M  V30 5 C -3.0726 0.4955 0.2393 0
M  V30 6 C -1.2547 -0.7279 1.2752 0
M  V30 7 C -1.7722 0.4707 0.7617 0
M  V30 8 S -0.803 1.9427 0.7581 0
M  V30 9 O 0.5169 1.7006 1.4357 0
M  V30 10 O -1.5422 2.9984 1.5307 0
M  V30 11 N -0.5291 2.521 -0.8585 0 CHG=-1
M  V30 12 S 0.1033 1.2552 -1.8688 0
M  V30 13 O -0.9715 0.2378 -2.1322 0
M  V30 14 O 0.5216 1.8494 -3.1838 0
M  V30 15 C 1.5086 0.4851 -1.1351 0
M  V30 16 C 1.4895 -0.8784 -0.8059 0
M  V30 17 C 2.6565 1.2449 -0.8708 0
M  V30 18 C 2.6048 -1.4719 -0.2071 0
M  V30 19 C 3.7717 0.6495 -0.2734 0
M  V30 20 C 3.7464 -0.7087 0.0605 0
M  V30 21 Cl 5.1441 -1.4543 0.8136 0
M  V30 22 H -4.8474 -0.6426 -0.1883 0
M  V30 23 H -1.6194 -2.8148 1.6474 0
M  V30 24 H -3.4829 1.4145 -0.1602 0
M  V30 25 H -0.2537 -0.7662 1.6846 0
M  V30 26 H 0.6132 -1.4816 -1.0042 0
M  V30 27 H 2.6831 2.2984 -1.1197 0
M  V30 28 H 2.5799 -2.5234 0.0491 0
M  V30 29 H 4.6526 1.2446 -0.0685 0
M  V30 END ATOM
M  V30 BEGIN BOND
M  V30 1 1 1 2
M  V30 2 2 2 3
M  V30 3 1 2 4
M  V30 4 1 3 5
M  V30 5 2 4 6
M  V30 6 2 5 7
M  V30 7 1 7 8
M  V30 8 2 8 9
M  V30 9 2 8 10
M  V30 10 1 8 11
M  V30 11 1 11 12
M  V30 12 2 12 13
M  V30 13 2 12 14
M  V30 14 1 12 15
M  V30 15 2 15 16
M  V30 16 1 15 17
M  V30 17 1 16 18
M  V30 18 2 17 19
M  V30 19 2 18 20
M  V30 20 1 20 21
M  V30 21 1 6 7
M  V30 22 1 19 20
M  V30 23 1 3 22
M  V30 24 1 4 23
M  V30 25 1 5 24
M  V30 26 1 6 25
M  V30 27 1 16 26
M  V30 28 1 17 27
M  V30 29 1 18 28
M  V30 30 1 19 29
M  V30 END BOND
M  V30 END CTAB
M  END
>  <Structure No>
8490

>  <LogS>
-2.48

>  <MMFF94 Energy>
55.268

$$$$
Compound 8491
Actelion Java MolfileCreator 2.0

  0  0  0  0  0  0              0 V3000
M  V30 BEGIN CTAB
M  V30 COUNTS 27 28 0 0 0
M  V30 BEGIN ATOM
M  V30 1 S 0.503 -2.0132 -1.5096 0
M  V30 2 O 1.2755 -3.2991 -1.5859 0
M  V30 3 O 0.0706 -1.6168 -2.8936 0
M  V30 4 N -0.9036 -2.2508 -0.5273 0 CHG=-1
M  V30 5 C 1.5282 -0.7695 -0.8013 0
M  V30 6 C -1.8409 -1.2113 -0.2404 0
M  V30 7 C 1.6722 -0.6911 0.5902 0
M  V30 8 C 2.2037 0.1455 -1.6201 0
M  V30 9 S -1.7568 0.3708 -0.8117 0
M  V30 10 N -2.9232 -1.4049 0.5407 0
M  V30 11 C 2.4777 0.2996 1.1595 0
M  V30 12 C 3.0099 1.1362 -1.051 0
M  V30 13 C -3.168 0.8379 -0.0242 0
M  V30 14 C -3.6567 -0.266 0.6706 0
M  V30 15 C 3.1498 1.2188 0.3416 0
M  V30 16 C -4.9271 -0.2323 1.4543 0
M  V30 17 N 3.9732 2.2326 0.9236 0
M  V30 18 H 1.1593 -1.3943 1.2339 0
M  V30 19 H 2.1072 0.0946 -2.6969 0
M  V30 20 H 2.578 0.351 2.2363 0
M  V30 21 H 3.5247 1.8385 -1.6943 0
M  V30 22 H -3.6177 1.8214 -0.0563 0
M  V30 23 H -4.9931 0.7129 2.0333 0
M  V30 24 H -4.9636 -1.0867 2.1625 0
M  V30 25 H -5.7916 -0.2983 0.7613 0
M  V30 26 H 4.0837 2.3019 1.9598 0
M  V30 27 H 4.478 2.9216 0.3225 0
M  V30 END ATOM
M  V30 BEGIN BOND
M  V30 1 2 1 2
M  V30 2 2 1 3
M  V30 3 1 1 4
M  V30 4 1 1 5
M  V30 5 1 4 6
M  V30 6 2 5 7
M  V30 7 1 5 8
M  V30 8 1 6 9
M  V30 9 2 6 10
M  V30 10 1 7 11
M  V30 11 2 8 12
M  V30 12 1 9 13
M  V30 13 1 10 14
M  V30 14 2 11 15
M  V30 15 1 14 16
M  V30 16 1 15 17
M  V30 17 1 12 15
M  V30 18 2 13 14
M  V30 19 1 7 18
M  V30 20 1 8 19
M  V30 21 1 11 20
M  V30 22 1 12 21
M  V30 23 1 13 22
M  V30 24 1 16 23
M  V30 25 1 16 24
M  V30 26 1 16 25
M  V30 27 1 17 26
M  V30 28 1 17 27
M  V30 END BOND
M  V30 END CTAB
M  END
>  <Structure No>
8491

>  <LogS>
-2.91

>  <MMFF94 Energy>
50.065

$$$$
Compound 8492
Actelion Java MolfileCreator 2.0

  0  0  0  0  0  0              0 V3000
M  V30 BEGIN CTAB
M  V30 COUNTS 30 31 0 0 0
M  V30 BEGIN ATOM
M  V30 1 S 2.7529 1.2506 -0.25 0
M  V30 2 O 4.1824 1.0353 -0.6587 0
M  V30 3 O 2.6715 1.2093 1.2488 0
M  V30 4 O 2.2693 2.7625 -0.7987 0 CHG=-1
M  V30 5 C 1.7463 -0.0229 -1.0187 0
M  V30 6 C 0.4816 -0.4922 -0.2515 0 CFG=1
M  V30 7 C 0.684 -1.0004 1.1545 0
M  V30 8 C -0.6979 0.4949 -0.0427 0
M  V30 9 C -0.2016 -1.685 -0.98 0
M  V30 10 O 1.7231 -1.4523 1.6098 0
M  V30 11 C -0.6503 -1.0606 1.8359 0
M  V30 12 C -1.563 -0.5723 0.673 0 CFG=2
M  V30 13 C -0.4289 1.7221 0.8798 0
M  V30 14 C -1.3309 1.0563 -1.3505 0
M  V30 15 C -1.6139 -1.7269 -0.3553 0
M  V30 16 H 1.4501 0.3393 -2.0254 0
M  V30 17 H 2.4009 -0.9066 -1.1772 0
M  V30 18 H -0.2581 -1.5253 -2.0784 0
M  V30 19 H 0.3413 -2.6414 -0.8053 0
M  V30 20 H -0.6896 -0.3781 2.7107 0
M  V30 21 H -0.8925 -2.094 2.1656 0
M  V30 22 H -2.5651 -0.2239 1.0043 0
M  V30 23 H -1.3946 2.1222 1.2563 0
M  V30 24 H 0.0654 2.5408 0.3228 0
M  V30 25 H 0.2015 1.4946 1.7602 0
M  V30 26 H -0.6356 1.7785 -1.8288 0
M  V30 27 H -1.5706 0.2948 -2.1147 0
M  V30 28 H -2.2752 1.5905 -1.1111 0
M  V30 29 H -2.4027 -1.5501 -1.1173 0
M  V30 30 H -1.8181 -2.7089 0.1246 0
M  V30 END ATOM
M  V30 BEGIN BOND
M  V30 1 2 1 2
M  V30 2 2 1 3
M  V30 3 1 1 4
M  V30 4 1 1 5
M  V30 5 1 5 6
M  V30 6 1 6 7
M  V30 7 1 6 8
M  V30 8 1 6 9
M  V30 9 2 7 10
M  V30 10 1 7 11
M  V30 11 1 8 12
M  V30 12 1 8 13
M  V30 13 1 8 14
M  V30 14 1 9 15
M  V30 15 1 11 12
M  V30 16 1 12 15
M  V30 17 1 5 16
M  V30 18 1 5 17
M  V30 19 1 9 18
M  V30 20 1 9 19
M  V30 21 1 11 20
M  V30 22 1 11 21
M  V30 23 1 12 22
M  V30 24 1 13 23
M  V30 25 1 13 24
M  V30 26 1 13 25
M  V30 27 1 14 26
M  V30 28 1 14 27
M  V30 29 1 14 28
M  V30 30 1 15 29
M  V30 31 1 15 30
M  V30 END BOND
M  V30 BEGIN COLLECTION
M  V30 MDLV30/STEABS ATOMS=(2 6 12)
M  V30 END COLLECTION
M  V30 END CTAB
M  END
>  <Structure No>
8492

>  <LogS>
-0.3

>  <MMFF94 Energy>
38.17

$$$$
Compound 8493
Actelion Java MolfileCreator 2.0

  0  0  0  0  0  0              0 V3000
M  V30 BEGIN CTAB
M  V30 COUNTS 51 52 0 0 0
M  V30 BEGIN ATOM
M  V30 1 O -4.7251 -0.629 0.2358 0
M  V30 2 C -3.9458 0.4937 0.5607 0
M  V30 3 C -5.9382 -0.9881 0.8886 0
M  V30 4 C -2.753 0.7316 -0.1571 0
M  V30 5 C -4.3282 1.3909 1.5787 0
M  V30 6 C -1.9858 1.8725 0.1335 0
M  V30 7 C -2.2917 -0.22 -1.2376 0
M  V30 8 C -3.5442 2.5099 1.867 0
M  V30 9 C -2.3777 2.7525 1.1431 0
M  V30 10 C -1.7741 -1.5725 -0.6778 0 CFG=2
M  V30 11 N -0.6608 -1.4353 0.2988 0 CHG=1
M  V30 12 C -1.4375 -2.5378 -1.8247 0
M  V30 13 C 0.6298 -0.9236 -0.2493 0 CFG=1
M  V30 14 C 1.2587 0.1152 0.7154 0
M  V30 15 C 1.6263 -2.0786 -0.4913 0
M  V30 16 C 2.4686 0.7946 0.1218 0
M  V30 17 C 3.7635 0.4091 0.5084 0
M  V30 18 C 2.3082 1.7987 -0.8454 0
M  V30 19 C 4.8929 1.0279 -0.063 0
M  V30 20 C 3.4259 2.415 -1.4113 0
M  V30 21 O 6.2038 0.6748 0.2902 0
M  V30 22 C 4.7111 2.032 -1.0209 0
M  V30 23 C 6.5371 -0.3304 1.242 0
M  V30 24 H -5.7507 -1.1742 1.9673 0
M  V30 25 H -6.6923 -0.1826 0.7637 0
M  V30 26 H -6.3334 -1.9182 0.4316 0
M  V30 27 H -5.2322 1.2348 2.151 0
M  V30 28 H -1.0825 2.0828 -0.4235 0
M  V30 29 H -1.5252 0.2611 -1.8799 0
M  V30 30 H -3.1549 -0.4173 -1.9106 0
M  V30 31 H -3.8457 3.1942 2.6497 0
M  V30 32 H -1.776 3.6249 1.3633 0
M  V30 33 H -2.626 -2.0449 -0.1388 0
M  V30 34 H -1.0006 -0.8242 1.0772 0
M  V30 35 H -0.5114 -2.3686 0.7506 0
M  V30 36 H -2.3458 -2.7302 -2.4351 0
M  V30 37 H -1.0924 -3.5114 -1.4175 0
M  V30 38 H -0.6588 -2.1145 -2.4925 0
M  V30 39 H 0.4702 -0.4174 -1.2233 0
M  V30 40 H 0.514 0.8993 0.964 0
M  V30 41 H 1.521 -0.3786 1.6771 0
M  V30 42 H 1.9323 -2.5389 0.4724 0
M  V30 43 H 1.1817 -2.8677 -1.1272 0
M  V30 44 H 2.5326 -1.7079 -1.0145 0
M  V30 45 H 3.8822 -0.3736 1.2456 0
M  V30 46 H 1.3184 2.1015 -1.1625 0
M  V30 47 H 3.296 3.1898 -2.1559 0
M  V30 48 H 5.571 2.5152 -1.4671 0
M  V30 49 H 6.1231 -0.0655 2.238 0
M  V30 50 H 6.1415 -1.3142 0.9125 0
M  V30 51 H 7.641 -0.4005 1.3235 0
M  V30 END ATOM
M  V30 BEGIN BOND
M  V30 1 1 1 2
M  V30 2 1 1 3
M  V30 3 2 2 4
M  V30 4 1 2 5
M  V30 5 1 4 6
M  V30 6 1 4 7
M  V30 7 2 5 8
M  V30 8 2 6 9
M  V30 9 1 7 10
M  V30 10 1 10 11
M  V30 11 1 10 12
M  V30 12 1 11 13
M  V30 13 1 13 14
M  V30 14 1 13 15
M  V30 15 1 14 16
M  V30 16 2 16 17
M  V30 17 1 16 18
M  V30 18 1 17 19
M  V30 19 2 18 20
M  V30 20 1 19 21
M  V30 21 2 19 22
M  V30 22 1 21 23
M  V30 23 1 8 9
M  V30 24 1 20 22
M  V30 25 1 3 24
M  V30 26 1 3 25
M  V30 27 1 3 26
M  V30 28 1 5 27
M  V30 29 1 6 28
M  V30 30 1 7 29
M  V30 31 1 7 30
M  V30 32 1 8 31
M  V30 33 1 9 32
M  V30 34 1 10 33
M  V30 35 1 11 34
M  V30 36 1 11 35
M  V30 37 1 12 36
M  V30 38 1 12 37
M  V30 39 1 12 38
M  V30 40 1 13 39
M  V30 41 1 14 40
M  V30 42 1 14 41
M  V30 43 1 15 42
M  V30 44 1 15 43
M  V30 45 1 15 44
M  V30 46 1 17 45
M  V30 47 1 18 46
M  V30 48 1 20 47
M  V30 49 1 22 48
M  V30 50 1 23 49
M  V30 51 1 23 50
M  V30 52 1 23 51
M  V30 END BOND
M  V30 BEGIN COLLECTION
M  V30 MDLV30/STEABS ATOMS=(2 10 13)
M  V30 END COLLECTION
M  V30 END CTAB
M  END
>  <Structure No>
8493

>  <LogS>
-3.0

>  <MMFF94 Energy>
75.265

$$$$
Compound 8494
Actelion Java MolfileCreator 2.0

  0  0  0  0  0  0              0 V3000
M  V30 BEGIN CTAB
M  V30 COUNTS 46 50 0 0 0
M  V30 BEGIN ATOM
M  V30 1 O 2.1914 0.9735 -0.5678 0
M  V30 2 C 1.9768 -0.3658 -0.2095 0
M  V30 3 C 1.0797 1.6758 0.0084 0 CFG=2
M  V30 4 C 2.8867 -1.4182 -0.1096 0
M  V30 5 C 0.6859 -0.5346 0.2015 0
M  V30 6 C -0.0728 0.6763 -0.061 0 CFG=1
M  V30 7 C 0.6451 3.0781 -0.4214 0 CFG=1
M  V30 8 O 4.2015 -1.238 -0.5587 0
M  V30 9 C 2.4213 -2.6282 0.485 0
M  V30 10 C 0.2027 -1.6513 0.8459 0
M  V30 11 C -1.0778 0.9658 1.0281 0 CFG=2
M  V30 12 C -0.7751 0.4928 -1.4463 0
M  V30 13 O 0.3272 3.1508 -1.7848 0
M  V30 14 C -0.5848 3.4857 0.4713 0
M  V30 15 C 5.2097 -2.2404 -0.492 0
M  V30 16 C 1.0954 -2.7304 0.9886 0
M  V30 17 C -1.1819 -1.57 1.4868 0
M  V30 18 C -2.0248 -0.281 1.0741 0 CFG=2
M  V30 19 C -1.6776 2.3825 0.7488 0
M  V30 20 C -1.8465 -0.6153 -1.3846 0
M  V30 21 N -2.7521 -0.4438 -0.2231 0 CHG=1 CFG=1
M  V30 22 C -3.7488 -1.5321 -0.1819 0
M  V30 23 H 1.3696 1.8153 1.0824 0
M  V30 24 H 1.475 3.7918 -0.2103 0
M  V30 25 H 3.0838 -3.4748 0.6022 0
M  V30 26 H -0.5675 1.024 2.0184 0
M  V30 27 H -0.0309 0.2377 -2.2331 0
M  V30 28 H -1.2843 1.4153 -1.7816 0
M  V30 29 H 1.1781 3.0281 -2.2812 0
M  V30 30 H -0.1875 3.8076 1.4591 0
M  V30 31 H -1.0764 4.3785 0.0283 0
M  V30 32 H 6.151 -1.8369 -0.9178 0
M  V30 33 H 4.9033 -3.1295 -1.0826 0
M  V30 34 H 5.3917 -2.5287 0.5649 0
M  V30 35 H 0.7792 -3.6328 1.4959 0
M  V30 36 H -1.0251 -1.5278 2.5862 0
M  V30 37 H -1.7342 -2.5094 1.2961 0
M  V30 38 H -2.7705 -0.094 1.8801 0
M  V30 39 H -2.3783 2.3751 -0.1071 0
M  V30 40 H -2.2796 2.6905 1.6305 0
M  V30 41 H -2.4358 -0.5808 -2.3288 0
M  V30 42 H -1.3524 -1.6112 -1.3582 0
M  V30 43 H -3.3112 0.4248 -0.3865 0
M  V30 44 H -4.4678 -1.4221 -1.0241 0
M  V30 45 H -4.3357 -1.4987 0.7621 0
M  V30 46 H -3.2773 -2.5326 -0.2824 0
M  V30 END ATOM
M  V30 BEGIN BOND
M  V30 1 1 1 2
M  V30 2 1 1 3
M  V30 3 2 2 4
M  V30 4 1 2 5
M  V30 5 1 3 6
M  V30 6 1 3 7
M  V30 7 1 4 8
M  V30 8 1 4 9
M  V30 9 2 5 10
M  V30 10 1 6 11
M  V30 11 1 6 12
M  V30 12 1 7 13
M  V30 13 1 7 14
M  V30 14 1 8 15
M  V30 15 2 9 16
M  V30 16 1 10 17
M  V30 17 1 11 18
M  V30 18 1 11 19
M  V30 19 1 12 20
M  V30 20 1 18 21
M  V30 21 1 21 22
M  V30 22 1 5 6
M  V30 23 1 10 16
M  V30 24 1 14 19
M  V30 25 1 17 18
M  V30 26 1 20 21
M  V30 27 1 3 23
M  V30 28 1 7 24
M  V30 29 1 9 25
M  V30 30 1 11 26
M  V30 31 1 12 27
M  V30 32 1 12 28
M  V30 33 1 13 29
M  V30 34 1 14 30
M  V30 35 1 14 31
M  V30 36 1 15 32
M  V30 37 1 15 33
M  V30 38 1 15 34
M  V30 39 1 16 35
M  V30 40 1 17 36
M  V30 41 1 17 37
M  V30 42 1 18 38
M  V30 43 1 19 39
M  V30 44 1 19 40
M  V30 45 1 20 41
M  V30 46 1 20 42
M  V30 47 1 21 43
M  V30 48 1 22 44
M  V30 49 1 22 45
M  V30 50 1 22 46
M  V30 END BOND
M  V30 BEGIN COLLECTION
M  V30 MDLV30/STEABS ATOMS=(6 3 6 7 11 18 21)
M  V30 END COLLECTION
M  V30 END CTAB
M  END
>  <Structure No>
8494

>  <LogS>
-1.0

>  <MMFF94 Energy>
112.25

$$$$
Compound 8495
Actelion Java MolfileCreator 2.0

  0  0  0  0  0  0              0 V3000
M  V30 BEGIN CTAB
M  V30 COUNTS 23 22 0 0 0
M  V30 BEGIN ATOM
M  V30 1 S 1.6749 3.0164 0.6697 0
M  V30 2 C 0.9417 1.6262 0.2161 0
M  V30 3 S 1.3249 0.9415 -1.4035 0
M  V30 4 N -0.0313 1.0228 1.0842 0
M  V30 5 C 2.8098 0.0264 -0.8552 0
M  V30 6 C -0.9582 -0.0259 0.6484 0 CFG=1
M  V30 7 C 2.4351 -1.2526 -0.1172 0
M  V30 8 C -1.3458 -0.8758 1.8288 0
M  V30 9 C -2.192 0.6154 -0.0086 0
M  V30 10 O -1.0054 -2.0872 1.8745 0
M  V30 11 O -2.0664 -0.327 2.8833 0 CHG=-1
M  V30 12 C -3.099 -0.4177 -0.6047 0
M  V30 13 O -2.8475 -0.9019 -1.7394 0
M  V30 14 O -4.1979 -0.876 0.1109 0 CHG=-1
M  V30 15 H -0.2041 1.4793 2.0095 0
M  V30 16 H 3.4 -0.2416 -1.7564 0
M  V30 17 H 3.4466 0.6665 -0.208 0
M  V30 18 H -0.4591 -0.6813 -0.097 0
M  V30 19 H 1.7673 -1.8777 -0.7469 0
M  V30 20 H 3.3544 -1.8316 0.111 0
M  V30 21 H 1.9261 -1.014 0.8394 0
M  V30 22 H -2.754 1.2206 0.7356 0
M  V30 23 H -1.8625 1.3053 -0.8158 0
M  V30 END ATOM
M  V30 BEGIN BOND
M  V30 1 2 1 2
M  V30 2 1 2 3
M  V30 3 1 2 4
M  V30 4 1 3 5
M  V30 5 1 4 6
M  V30 6 1 5 7
M  V30 7 1 6 8
M  V30 8 1 6 9
M  V30 9 2 8 10
M  V30 10 1 8 11
M  V30 11 1 9 12
M  V30 12 2 12 13
M  V30 13 1 12 14
M  V30 14 1 4 15
M  V30 15 1 5 16
M  V30 16 1 5 17
M  V30 17 1 6 18
M  V30 18 1 7 19
M  V30 19 1 7 20
M  V30 20 1 7 21
M  V30 21 1 9 22
M  V30 22 1 9 23
M  V30 END BOND
M  V30 BEGIN COLLECTION
M  V30 MDLV30/STEABS ATOMS=(1 6)
M  V30 END COLLECTION
M  V30 END CTAB
M  END
>  <Structure No>
8495

>  <LogS>
-1.38

>  <MMFF94 Energy>
69.127

$$$$
Compound 8496
Actelion Java MolfileCreator 2.0

  0  0  0  0  0  0              0 V3000
M  V30 BEGIN CTAB
M  V30 COUNTS 32 31 0 0 0
M  V30 BEGIN ATOM
M  V30 1 O -2.3152 -1.6761 -2.1554 0
M  V30 2 C -1.2204 -1.1928 -1.7607 0
M  V30 3 O -0.0485 -1.8999 -2.0073 0 CHG=-1
M  V30 4 C -1.188 0.1864 -1.1139 0 CFG=1
M  V30 5 O -1.5053 1.1233 -2.1205 0
M  V30 6 C -2.3206 0.3099 -0.0266 0
M  V30 7 C 0.2456 0.5356 -0.5889 0
M  V30 8 C -2.3964 -0.8308 1.0107 0
M  V30 9 C -2.3194 1.6722 0.6874 0
M  V30 10 C 0.769 -0.3222 0.5875 0
M  V30 11 C 2.3203 -0.3735 0.7196 0 CFG=2
M  V30 12 O 2.6608 -1.0128 1.9293 0
M  V30 13 C 2.906 1.0276 0.7173 0
M  V30 14 C 2.9362 -1.2259 -0.4084 0
M  V30 15 O 3.3857 1.5281 -0.3353 0
M  V30 16 O 2.8526 1.8051 1.8683 0 CHG=-1
M  V30 17 H -0.8436 1.0356 -2.8572 0
M  V30 18 H -3.2855 0.2641 -0.582 0
M  V30 19 H 0.2761 1.6048 -0.2872 0
M  V30 20 H 0.9444 0.4631 -1.4461 0
M  V30 21 H -1.6526 -0.7139 1.8203 0
M  V30 22 H -2.2703 -1.828 0.5441 0
M  V30 23 H -3.3971 -0.8193 1.4937 0
M  V30 24 H -2.2985 2.5018 -0.0501 0
M  V30 25 H -1.446 1.7694 1.3649 0
M  V30 26 H -3.2421 1.7811 1.2966 0
M  V30 27 H 0.366 0.1184 1.5225 0
M  V30 28 H 0.3838 -1.3612 0.5169 0
M  V30 29 H 2.2334 -0.5241 2.681 0
M  V30 30 H 2.4993 -2.2474 -0.4009 0
M  V30 31 H 2.7739 -0.7837 -1.4119 0
M  V30 32 H 4.0325 -1.3228 -0.2536 0
M  V30 END ATOM
M  V30 BEGIN BOND
M  V30 1 2 1 2
M  V30 2 1 2 3
M  V30 3 1 2 4
M  V30 4 1 4 5
M  V30 5 1 4 6
M  V30 6 1 4 7
M  V30 7 1 6 8
M  V30 8 1 6 9
M  V30 9 1 7 10
M  V30 10 1 10 11
M  V30 11 1 11 12
M  V30 12 1 11 13
M  V30 13 1 11 14
M  V30 14 2 13 15
M  V30 15 1 13 16
M  V30 16 1 5 17
M  V30 17 1 6 18
M  V30 18 1 7 19
M  V30 19 1 7 20
M  V30 20 1 8 21
M  V30 21 1 8 22
M  V30 22 1 8 23
M  V30 23 1 9 24
M  V30 24 1 9 25
M  V30 25 1 9 26
M  V30 26 1 10 27
M  V30 27 1 10 28
M  V30 28 1 12 29
M  V30 29 1 14 30
M  V30 30 1 14 31
M  V30 31 1 14 32
M  V30 END BOND
M  V30 BEGIN COLLECTION
M  V30 MDLV30/STEABS ATOMS=(2 4 11)
M  V30 END COLLECTION
M  V30 END CTAB
M  END
>  <Structure No>
8496

>  <LogS>
-1.69

>  <MMFF94 Energy>
183.33

$$$$
Compound 8497
Actelion Java MolfileCreator 2.0

  0  0  0  0  0  0              0 V3000
M  V30 BEGIN CTAB
M  V30 COUNTS 22 21 0 0 0
M  V30 BEGIN ATOM
M  V30 1 S 0.3445 -1.9821 1.6372 0
M  V30 2 C 0.1057 -0.8842 0.7449 0
M  V30 3 S 0.776 0.7409 1.1194 0
M  V30 4 S -0.8543 -1.1387 -0.7526 0
M  V30 5 C 2.2829 0.5439 0.0994 0 CFG=2
M  V30 6 C -2.4691 -0.7199 0.0031 0 CFG=1
M  V30 7 C 3.2786 -0.3289 0.8057 0
M  V30 8 C 2.891 1.9162 -0.1792 0
M  V30 9 C -2.5869 0.763 0.203 0
M  V30 10 C -3.5983 -1.2258 -0.8918 0
M  V30 11 O 3.7474 -1.3459 0.23 0
M  V30 12 O 3.7005 -0.0138 2.0921 0 CHG=-1
M  V30 13 O -2.426 1.554 -0.7643 0
M  V30 14 O -2.8892 1.2708 1.4603 0 CHG=-1
M  V30 15 H 2.0081 0.0876 -0.8773 0
M  V30 16 H -2.5579 -1.232 0.9863 0
M  V30 17 H 3.8021 1.8113 -0.8067 0
M  V30 18 H 2.1603 2.548 -0.7279 0
M  V30 19 H 3.1624 2.4267 0.77 0
M  V30 20 H -3.541 -0.7591 -1.8988 0
M  V30 21 H -3.5247 -2.3284 -1.0047 0
M  V30 22 H -4.5839 -0.9863 -0.4375 0
M  V30 END ATOM
M  V30 BEGIN BOND
M  V30 1 2 1 2
M  V30 2 1 2 3
M  V30 3 1 2 4
M  V30 4 1 3 5
M  V30 5 1 4 6
M  V30 6 1 5 7
M  V30 7 1 5 8
M  V30 8 1 6 9
M  V30 9 1 6 10
M  V30 10 2 7 11
M  V30 11 1 7 12
M  V30 12 2 9 13
M  V30 13 1 9 14
M  V30 14 1 5 15
M  V30 15 1 6 16
M  V30 16 1 8 17
M  V30 17 1 8 18
M  V30 18 1 8 19
M  V30 19 1 10 20
M  V30 20 1 10 21
M  V30 21 1 10 22
M  V30 END BOND
M  V30 BEGIN COLLECTION
M  V30 MDLV30/STEABS ATOMS=(2 5 6)
M  V30 END COLLECTION
M  V30 END CTAB
M  END
>  <Structure No>
8497

>  <LogS>
-1.41

>  <MMFF94 Energy>
106.56

$$$$
Compound 8498
Actelion Java MolfileCreator 2.0

  0  0  0  0  0  0              0 V3000
M  V30 BEGIN CTAB
M  V30 COUNTS 26 26 0 0 0
M  V30 BEGIN ATOM
M  V30 1 S 2.3169 -1.4062 -0.4961 0
M  V30 2 C 3.2951 -2.3882 0.6352 0
M  V30 3 C 1.6844 -0.3049 0.8181 0
M  V30 4 O 4.4895 -2.072 0.8725 0
M  V30 5 O 2.7377 -3.5027 1.247 0 CHG=-1
M  V30 6 C 0.7156 0.7433 0.2398 0 CFG=1
M  V30 7 C -0.5035 0.0842 -0.3892 0
M  V30 8 C 0.3092 1.7616 1.3256 0
M  V30 9 C -1.3866 -0.6998 0.3793 0
M  V30 10 C -0.7669 0.259 -1.7602 0
M  V30 11 C -0.5222 2.8713 0.756 0
M  V30 12 C -2.5035 -1.2952 -0.2144 0
M  V30 13 C -1.8852 -0.3387 -2.3486 0
M  V30 14 O -1.7771 2.8382 0.8538 0
M  V30 15 O 0.0878 3.9196 0.0791 0 CHG=-1
M  V30 16 C -2.7525 -1.1152 -1.5768 0
M  V30 17 H 2.5514 0.2125 1.2835 0
M  V30 18 H 1.1815 -0.9095 1.6031 0
M  V30 19 H 1.2801 1.3046 -0.5394 0
M  V30 20 H 1.2223 2.2114 1.7725 0
M  V30 21 H -0.2456 1.2591 2.1474 0
M  V30 22 H -1.2143 -0.8503 1.4368 0
M  V30 23 H -0.1072 0.8581 -2.3753 0
M  V30 24 H -3.1769 -1.8961 0.3829 0
M  V30 25 H -2.0799 -0.1994 -3.4041 0
M  V30 26 H -3.6179 -1.577 -2.0344 0
M  V30 END ATOM
M  V30 BEGIN BOND
M  V30 1 1 1 2
M  V30 2 1 1 3
M  V30 3 2 2 4
M  V30 4 1 2 5
M  V30 5 1 3 6
M  V30 6 1 6 7
M  V30 7 1 6 8
M  V30 8 2 7 9
M  V30 9 1 7 10
M  V30 10 1 8 11
M  V30 11 1 9 12
M  V30 12 2 10 13
M  V30 13 2 11 14
M  V30 14 1 11 15
M  V30 15 2 12 16
M  V30 16 1 13 16
M  V30 17 1 3 17
M  V30 18 1 3 18
M  V30 19 1 6 19
M  V30 20 1 8 20
M  V30 21 1 8 21
M  V30 22 1 9 22
M  V30 23 1 10 23
M  V30 24 1 12 24
M  V30 25 1 13 25
M  V30 26 1 16 26
M  V30 END BOND
M  V30 BEGIN COLLECTION
M  V30 MDLV30/STEABS ATOMS=(1 6)
M  V30 END COLLECTION
M  V30 END CTAB
M  END
>  <Structure No>
8498

>  <LogS>
-1.24

>  <MMFF94 Energy>
48.637

$$$$
Compound 8499
Actelion Java MolfileCreator 2.0

  0  0  0  0  0  0              0 V3000
M  V30 BEGIN CTAB
M  V30 COUNTS 21 21 0 0 0
M  V30 BEGIN ATOM
M  V30 1 O -1.3459 -3.4863 0.0 0
M  V30 2 N -0.7063 -2.4987 0.4164 0 CHG=1
M  V30 3 O 0.2824 -2.7 1.349 0 CHG=-1
M  V30 4 C -1.0507 -1.181 -0.0462 0
M  V30 5 N -0.396 -0.0323 0.2417 0
M  V30 6 C -2.1133 -0.8923 -0.8751 0
M  V30 7 C -1.0825 0.9224 -0.4336 0
M  V30 8 C 0.8304 0.1577 1.0272 0
M  V30 9 N -2.1383 0.4314 -1.1187 0
M  V30 10 C -0.7428 2.3807 -0.4258 0
M  V30 11 C 2.0641 -0.2526 0.2231 0
M  V30 12 O 2.2033 0.5766 -0.8965 0
M  V30 13 H -2.8268 -1.5981 -1.2793 0
M  V30 14 H 0.9358 1.2204 1.3327 0
M  V30 15 H 0.775 -0.4208 1.9712 0
M  V30 16 H -0.8549 2.7848 0.6015 0
M  V30 17 H 0.3003 2.5293 -0.772 0
M  V30 18 H -1.4237 2.937 -1.1038 0
M  V30 19 H 2.9632 -0.1579 0.8715 0
M  V30 20 H 1.9715 -1.3116 -0.1023 0
M  V30 21 H 3.0152 0.2623 -1.3724 0
M  V30 END ATOM
M  V30 BEGIN BOND
M  V30 1 2 1 2
M  V30 2 1 2 3
M  V30 3 1 2 4
M  V30 4 1 4 5
M  V30 5 2 4 6
M  V30 6 1 5 7
M  V30 7 1 5 8
M  V30 8 1 6 9
M  V30 9 1 7 10
M  V30 10 1 8 11
M  V30 11 1 11 12
M  V30 12 2 7 9
M  V30 13 1 6 13
M  V30 14 1 8 14
M  V30 15 1 8 15
M  V30 16 1 10 16
M  V30 17 1 10 17
M  V30 18 1 10 18
M  V30 19 1 11 19
M  V30 20 1 11 20
M  V30 21 1 12 21
M  V30 END BOND
M  V30 END CTAB
M  END
>  <Structure No>
8499

>  <LogS>
-1.21

>  <MMFF94 Energy>
11.221

$$$$
Compound 8500
Actelion Java MolfileCreator 2.0

  0  0  0  0  0  0              0 V3000
M  V30 BEGIN CTAB
M  V30 COUNTS 28 28 0 0 0
M  V30 BEGIN ATOM
M  V30 1 Cl 0.0797 -3.9111 0.0 0
M  V30 2 C 0.2343 -2.1703 -0.0879 0
M  V30 3 N -0.8682 -1.3997 -0.2583 0
M  V30 4 N 1.4566 -1.592 0.0142 0
M  V30 5 C -0.7533 -0.0469 -0.3254 0
M  V30 6 C 1.5802 -0.24 -0.054 0
M  V30 7 N 0.473 0.5278 -0.2243 0
M  V30 8 N -1.9115 0.7784 -0.508 0
M  V30 9 N 2.8662 0.3807 0.0519 0
M  V30 10 C -3.2692 0.2292 -0.5913 0
M  V30 11 C 4.0854 -0.4057 0.2361 0
M  V30 12 C -3.7671 -0.1554 0.8051 0
M  V30 13 C -4.216 1.2484 -1.2336 0
M  V30 14 C 5.3115 0.4975 0.3183 0
M  V30 15 H -1.7661 1.8095 -0.6056 0
M  V30 16 H 2.9191 1.4237 -0.0055 0
M  V30 17 H -3.2621 -0.6769 -1.2364 0
M  V30 18 H 4.0066 -0.9963 1.1744 0
M  V30 19 H 4.2071 -1.1056 -0.6185 0
M  V30 20 H -3.1079 -0.9296 1.2503 0
M  V30 21 H -3.774 0.7328 1.4728 0
M  V30 22 H -4.7957 -0.571 0.7452 0
M  V30 23 H -4.2767 2.1707 -0.6162 0
M  V30 24 H -3.8477 1.5189 -2.246 0
M  V30 25 H -5.2341 0.8157 -1.3364 0
M  V30 26 H 5.4173 1.0841 -0.6188 0
M  V30 27 H 6.2226 -0.1216 0.4579 0
M  V30 28 H 5.2161 1.1936 1.1787 0
M  V30 END ATOM
M  V30 BEGIN BOND
M  V30 1 1 1 2
M  V30 2 2 2 3
M  V30 3 1 2 4
M  V30 4 1 3 5
M  V30 5 2 4 6
M  V30 6 2 5 7
M  V30 7 1 5 8
M  V30 8 1 6 9
M  V30 9 1 8 10
M  V30 10 1 9 11
M  V30 11 1 10 12
M  V30 12 1 10 13
M  V30 13 1 11 14
M  V30 14 1 6 7
M  V30 15 1 8 15
M  V30 16 1 9 16
M  V30 17 1 10 17
M  V30 18 1 11 18
M  V30 19 1 11 19
M  V30 20 1 12 20
M  V30 21 1 12 21
M  V30 22 1 12 22
M  V30 23 1 13 23
M  V30 24 1 13 24
M  V30 25 1 13 25
M  V30 26 1 14 26
M  V30 27 1 14 27
M  V30 28 1 14 28
M  V30 END BOND
M  V30 END CTAB
M  END
>  <Structure No>
8500

>  <LogS>
-3.76

>  <MMFF94 Energy>
-236.34

$$$$
Compound 8501
Actelion Java MolfileCreator 2.0

  0  0  0  0  0  0              0 V3000
M  V30 BEGIN CTAB
M  V30 COUNTS 29 30 0 0 0
M  V30 BEGIN ATOM
M  V30 1 O -2.4862 -2.8877 -0.8015 0
M  V30 2 N -1.141 -2.772 -0.5335 0
M  V30 3 C -0.6056 -1.6769 -0.08 0
M  V30 4 C -1.4228 -0.4556 0.1424 0
M  V30 5 C 0.8483 -1.6605 0.2403 0
M  V30 6 C -2.2966 0.0196 -0.8521 0
M  V30 7 C -1.2893 0.2705 1.339 0
M  V30 8 N 1.4276 -2.692 0.7829 0
M  V30 9 C 1.6646 -0.4488 -0.0286 0
M  V30 10 C -3.0352 1.1884 -0.643 0
M  V30 11 C -2.0299 1.4385 1.5435 0
M  V30 12 O 0.7501 -3.845 1.1095 0 CHG=-1
M  V30 13 C 2.7485 -0.1223 0.8081 0
M  V30 14 C 1.3803 0.3833 -1.1283 0
M  V30 15 C -2.9037 1.896 0.5542 0
M  V30 16 C 3.5159 1.0198 0.5604 0
M  V30 17 C 2.1506 1.5243 -1.3712 0
M  V30 18 C 3.216 1.8435 -0.5266 0
M  V30 19 H -2.8588 -3.7598 -1.1544 0
M  V30 20 H -2.3893 -0.4984 -1.7981 0
M  V30 21 H -0.6156 -0.0701 2.1157 0
M  V30 22 H -3.704 1.55 -1.4133 0
M  V30 23 H -1.9248 1.9901 2.4688 0
M  V30 24 H 2.9925 -0.7421 1.662 0
M  V30 25 H 0.5726 0.1451 -1.8084 0
M  V30 26 H -3.4747 2.8016 0.7133 0
M  V30 27 H 4.343 1.2672 1.2132 0
M  V30 28 H 1.924 2.159 -2.218 0
M  V30 29 H 3.8113 2.7271 -0.7166 0
M  V30 END ATOM
M  V30 BEGIN BOND
M  V30 1 1 1 2
M  V30 2 2 2 3
M  V30 3 1 3 4
M  V30 4 1 3 5
M  V30 5 2 4 6
M  V30 6 1 4 7
M  V30 7 2 5 8
M  V30 8 1 5 9
M  V30 9 1 6 10
M  V30 10 2 7 11
M  V30 11 1 8 12
M  V30 12 2 9 13
M  V30 13 1 9 14
M  V30 14 2 10 15
M  V30 15 1 13 16
M  V30 16 2 14 17
M  V30 17 2 16 18
M  V30 18 1 11 15
M  V30 19 1 17 18
M  V30 20 1 1 19
M  V30 21 1 6 20
M  V30 22 1 7 21
M  V30 23 1 10 22
M  V30 24 1 11 23
M  V30 25 1 13 24
M  V30 26 1 14 25
M  V30 27 1 15 26
M  V30 28 1 16 27
M  V30 29 1 17 28
M  V30 30 1 18 29
M  V30 END BOND
M  V30 END CTAB
M  END
>  <Structure No>
8501

>  <LogS>
-5.9

>  <MMFF94 Energy>
131.17

$$$$
Compound 8502
Actelion Java MolfileCreator 2.0

  0  0  0  0  0  0              0 V3000
M  V30 BEGIN CTAB
M  V30 COUNTS 39 42 0 0 0
M  V30 BEGIN ATOM
M  V30 1 F 1.6244 2.8441 1.3806 0
M  V30 2 C 0.687 1.9304 1.0249 0
M  V30 3 C 1.0359 0.8121 0.2611 0
M  V30 4 C -0.6315 2.1104 1.4406 0
M  V30 5 N 2.3897 0.6095 -0.1555 0
M  V30 6 C 0.0533 -0.1176 -0.097 0
M  V30 7 C -1.6295 1.1798 1.0916 0
M  V30 8 C 3.1416 -0.3887 -0.9412 0
M  V30 9 C 3.6945 1.2877 -0.0231 0
M  V30 10 C -1.2962 0.0581 0.2896 0
M  V30 11 C -2.9527 1.3389 1.5411 0
M  V30 12 C 4.4748 0.2826 -0.8138 0
M  V30 13 N -2.2792 -0.8347 -0.0819 0
M  V30 14 O -3.2611 2.341 2.2443 0
M  V30 15 C -3.9249 0.376 1.2168 0
M  V30 16 N 5.4362 -0.4763 -0.0075 0 CHG=1
M  V30 17 C -3.548 -0.7116 0.4148 0
M  V30 18 C -1.9839 -2.0022 -0.935 0
M  V30 19 C -5.3294 0.4802 1.7003 0
M  V30 20 C -2.9595 -2.2303 -2.0894 0
M  V30 21 C -1.5907 -1.6439 -2.3652 0
M  V30 22 O -6.1839 -0.3838 1.3674 0
M  V30 23 O -5.729 1.525 2.5256 0 CHG=-1
M  V30 24 H -0.8665 2.9785 2.0446 0
M  V30 25 H 0.362 -0.9809 -0.6684 0
M  V30 26 H 2.7811 -0.4129 -1.9935 0
M  V30 27 H 3.0907 -1.3913 -0.4606 0
M  V30 28 H 3.9989 1.358 1.045 0
M  V30 29 H 3.672 2.2843 -0.5172 0
M  V30 30 H 4.89 0.6697 -1.771 0
M  V30 31 H 6.2496 0.1397 0.2202 0
M  V30 32 H 5.7786 -1.2914 -0.5653 0
M  V30 33 H 5.0099 -0.8245 0.883 0
M  V30 34 H -4.2877 -1.4676 0.1762 0
M  V30 35 H -1.5024 -2.8933 -0.4794 0
M  V30 36 H -3.0605 -3.2887 -2.4093 0
M  V30 37 H -3.7766 -1.4891 -2.2189 0
M  V30 38 H -1.6054 -0.5602 -2.6111 0
M  V30 39 H -0.8777 -2.3542 -2.8342 0
M  V30 END ATOM
M  V30 BEGIN BOND
M  V30 1 1 1 2
M  V30 2 2 2 3
M  V30 3 1 2 4
M  V30 4 1 3 5
M  V30 5 1 3 6
M  V30 6 2 4 7
M  V30 7 1 5 8
M  V30 8 1 5 9
M  V30 9 2 6 10
M  V30 10 1 7 11
M  V30 11 1 8 12
M  V30 12 1 10 13
M  V30 13 2 11 14
M  V30 14 1 11 15
M  V30 15 1 12 16
M  V30 16 1 13 17
M  V30 17 1 13 18
M  V30 18 1 15 19
M  V30 19 1 18 20
M  V30 20 1 18 21
M  V30 21 2 19 22
M  V30 22 1 19 23
M  V30 23 1 7 10
M  V30 24 1 9 12
M  V30 25 2 15 17
M  V30 26 1 20 21
M  V30 27 1 4 24
M  V30 28 1 6 25
M  V30 29 1 8 26
M  V30 30 1 8 27
M  V30 31 1 9 28
M  V30 32 1 9 29
M  V30 33 1 12 30
M  V30 34 1 16 31
M  V30 35 1 16 32
M  V30 36 1 16 33
M  V30 37 1 17 34
M  V30 38 1 18 35
M  V30 39 1 20 36
M  V30 40 1 20 37
M  V30 41 1 21 38
M  V30 42 1 21 39
M  V30 END BOND
M  V30 END CTAB
M  END
>  <Structure No>
8502

>  <LogS>
-5.32

>  <MMFF94 Energy>
43.15

$$$$
Compound 8503
Actelion Java MolfileCreator 2.0

  0  0  0  0  0  0              0 V3000
M  V30 BEGIN CTAB
M  V30 COUNTS 42 45 0 0 0
M  V30 BEGIN ATOM
M  V30 1 F 1.3776 2.7567 -1.3776 0
M  V30 2 C 0.347 1.9608 -0.997 0
M  V30 3 C 0.5812 0.6554 -0.5532 0
M  V30 4 C -0.9552 2.4539 -1.0654 0
M  V30 5 N 1.9127 0.1347 -0.4948 0
M  V30 6 C -0.4956 -0.1487 -0.1637 0
M  V30 7 C -2.0487 1.6535 -0.6812 0
M  V30 8 C 2.5623 -1.1317 -0.1056 0
M  V30 9 C 3.2853 0.5908 -0.7871 0
M  V30 10 C -1.8232 0.3387 -0.198 0
M  V30 11 C -3.3661 2.1348 -0.7847 0
M  V30 12 C 3.9648 -0.6896 -0.397 0
M  V30 13 N -2.8902 -0.433 0.2113 0
M  V30 14 O -3.5761 3.3078 -1.2018 0
M  V30 15 C -4.4465 1.3035 -0.4357 0
M  V30 16 N 4.7994 -0.5866 0.8137 0 CHG=1
M  V30 17 C -4.172 0.015 0.0436 0
M  V30 18 C -2.7013 -1.7965 0.7438 0
M  V30 19 C -5.8618 1.7469 -0.5604 0
M  V30 20 C 6.1154 -0.031 0.4887 0
M  V30 21 C -1.9858 -1.8444 2.0908 0
M  V30 22 C -3.4752 -2.1103 2.0241 0
M  V30 23 O -6.1485 2.8877 -1.011 0
M  V30 24 O -6.8985 0.9023 -0.1794 0 CHG=-1
M  V30 25 H -1.1047 3.4634 -1.4287 0
M  V30 26 H -0.2804 -1.1592 0.1527 0
M  V30 27 H 2.2347 -1.9619 -0.77 0
M  V30 28 H 2.3731 -1.3586 0.9676 0
M  V30 29 H 3.4039 0.8145 -1.8703 0
M  V30 30 H 3.5549 1.4624 -0.1498 0
M  V30 31 H 4.4379 -1.2417 -1.2408 0
M  V30 32 H 4.3455 0.0113 1.5449 0
M  V30 33 H 4.9369 -1.5466 1.2073 0
M  V30 34 H -5.0001 -0.6371 0.2967 0
M  V30 35 H -2.5142 -2.63 0.0342 0
M  V30 36 H 6.6427 -0.6775 -0.2468 0
M  V30 37 H 6.7356 0.025 1.4092 0
M  V30 38 H 6.0177 0.9953 0.0729 0
M  V30 39 H -1.368 -2.7536 2.2474 0
M  V30 40 H -1.723 -0.8587 2.5316 0
M  V30 41 H -3.7404 -3.1803 2.1557 0
M  V30 42 H -4.077 -1.2893 2.469 0
M  V30 END ATOM
M  V30 BEGIN BOND
M  V30 1 1 1 2
M  V30 2 2 2 3
M  V30 3 1 2 4
M  V30 4 1 3 5
M  V30 5 1 3 6
M  V30 6 2 4 7
M  V30 7 1 5 8
M  V30 8 1 5 9
M  V30 9 2 6 10
M  V30 10 1 7 11
M  V30 11 1 8 12
M  V30 12 1 10 13
M  V30 13 2 11 14
M  V30 14 1 11 15
M  V30 15 1 12 16
M  V30 16 1 13 17
M  V30 17 1 13 18
M  V30 18 1 15 19
M  V30 19 1 16 20
M  V30 20 1 18 21
M  V30 21 1 18 22
M  V30 22 2 19 23
M  V30 23 1 19 24
M  V30 24 1 7 10
M  V30 25 1 9 12
M  V30 26 2 15 17
M  V30 27 1 21 22
M  V30 28 1 4 25
M  V30 29 1 6 26
M  V30 30 1 8 27
M  V30 31 1 8 28
M  V30 32 1 9 29
M  V30 33 1 9 30
M  V30 34 1 12 31
M  V30 35 1 16 32
M  V30 36 1 16 33
M  V30 37 1 17 34
M  V30 38 1 18 35
M  V30 39 1 20 36
M  V30 40 1 20 37
M  V30 41 1 20 38
M  V30 42 1 21 39
M  V30 43 1 21 40
M  V30 44 1 22 41
M  V30 45 1 22 42
M  V30 END BOND
M  V30 END CTAB
M  END
>  <Structure No>
8503

>  <LogS>
-5.41

>  <MMFF94 Energy>
53.393

$$$$
Compound 8504
Actelion Java MolfileCreator 2.0

  0  0  0  0  0  0              0 V3000
M  V30 BEGIN CTAB
M  V30 COUNTS 42 45 0 0 0
M  V30 BEGIN ATOM
M  V30 1 F 1.621 -1.1345 2.8382 0
M  V30 2 C 0.6841 -1.1564 1.8574 0
M  V30 3 C 0.7477 -0.2541 0.7907 0
M  V30 4 C -0.3406 -2.0999 1.916 0
M  V30 5 N 1.8047 0.7071 0.7128 0
M  V30 6 C -0.2298 -0.2925 -0.2097 0
M  V30 7 C -1.3282 -2.1529 0.913 0
M  V30 8 C 2.214 1.7909 -0.204 0
M  V30 9 C 2.9939 1.0995 1.4976 0
M  V30 10 C -1.2946 -1.2224 -0.1574 0
M  V30 11 C -2.3414 -3.1277 0.9496 0
M  V30 12 C 3.4307 2.2034 0.5757 0
M  V30 13 N -2.2809 -1.2507 -1.1208 0
M  V30 14 O -2.3866 -3.9512 1.9053 0
M  V30 15 C -3.2929 -3.1904 -0.084 0
M  V30 16 N 4.6966 1.9246 -0.1178 0 CHG=1
M  V30 17 C 3.3619 3.6146 1.1802 0
M  V30 18 C -3.2224 -2.2433 -1.1168 0
M  V30 19 C -2.3005 -0.2871 -2.2386 0
M  V30 20 C -4.3613 -4.227 -0.1099 0
M  V30 21 C -3.6573 0.3577 -2.5208 0
M  V30 22 C -2.5785 1.1521 -1.8143 0
M  V30 23 O -5.216 -4.2386 -1.0358 0
M  V30 24 O -4.4408 -5.2011 0.8786 0 CHG=-1
M  V30 25 H -0.3529 -2.7951 2.7466 0
M  V30 26 H -0.1375 0.4042 -1.0304 0
M  V30 27 H 1.4269 2.5764 -0.2557 0
M  V30 28 H 2.4465 1.3837 -1.2134 0
M  V30 29 H 3.7187 0.2573 1.5599 0
M  V30 30 H 2.695 1.4542 2.5095 0
M  V30 31 H 4.7106 0.9571 -0.5174 0
M  V30 32 H 5.4915 2.0203 0.5547 0
M  V30 33 H 4.826 2.6102 -0.8969 0
M  V30 34 H 2.391 3.7852 1.6945 0
M  V30 35 H 3.4749 4.3735 0.3777 0
M  V30 36 H 4.1809 3.7481 1.9181 0
M  V30 37 H -3.9413 -2.2968 -1.9266 0
M  V30 38 H -1.6133 -0.4446 -3.0968 0
M  V30 39 H -4.499 0.0866 -1.8484 0
M  V30 40 H -3.8146 0.6653 -3.5758 0
M  V30 41 H -2.0878 1.9185 -2.4504 0
M  V30 42 H -2.7688 1.3061 -0.7303 0
M  V30 END ATOM
M  V30 BEGIN BOND
M  V30 1 1 1 2
M  V30 2 2 2 3
M  V30 3 1 2 4
M  V30 4 1 3 5
M  V30 5 1 3 6
M  V30 6 2 4 7
M  V30 7 1 5 8
M  V30 8 1 5 9
M  V30 9 2 6 10
M  V30 10 1 7 11
M  V30 11 1 8 12
M  V30 12 1 10 13
M  V30 13 2 11 14
M  V30 14 1 11 15
M  V30 15 1 12 16
M  V30 16 1 12 17
M  V30 17 1 13 18
M  V30 18 1 13 19
M  V30 19 1 15 20
M  V30 20 1 19 21
M  V30 21 1 19 22
M  V30 22 2 20 23
M  V30 23 1 20 24
M  V30 24 1 7 10
M  V30 25 1 9 12
M  V30 26 2 15 18
M  V30 27 1 21 22
M  V30 28 1 4 25
M  V30 29 1 6 26
M  V30 30 1 8 27
M  V30 31 1 8 28
M  V30 32 1 9 29
M  V30 33 1 9 30
M  V30 34 1 16 31
M  V30 35 1 16 32
M  V30 36 1 16 33
M  V30 37 1 17 34
M  V30 38 1 17 35
M  V30 39 1 17 36
M  V30 40 1 18 37
M  V30 41 1 19 38
M  V30 42 1 21 39
M  V30 43 1 21 40
M  V30 44 1 22 41
M  V30 45 1 22 42
M  V30 END BOND
M  V30 END CTAB
M  END
>  <Structure No>
8504

>  <LogS>
-5.62

>  <MMFF94 Energy>
45.383

$$$$
Compound 8505
Actelion Java MolfileCreator 2.0

  0  0  0  0  0  0              0 V3000
M  V30 BEGIN CTAB
M  V30 COUNTS 42 45 0 0 0
M  V30 BEGIN ATOM
M  V30 1 Cl -0.164 1.1487 1.7234 0
M  V30 2 C -0.3798 0.4584 0.1094 0
M  V30 3 C -1.682 0.1475 -0.4005 0
M  V30 4 C 0.745 0.422 -0.7508 0
M  V30 5 N -2.7866 -0.0614 0.4089 0
M  V30 6 C -1.8453 0.0503 -1.809 0
M  V30 7 N 2.0878 0.5817 -0.2539 0
M  V30 8 C 0.5554 0.2168 -2.1237 0
M  V30 9 C -4.0452 -0.0815 -0.1272 0
M  V30 10 C -2.6917 -0.3175 1.8582 0
M  V30 11 C -3.1373 -0.0629 -2.3557 0
M  V30 12 C -0.7216 0.0764 -2.6484 0
M  V30 13 C 2.7992 0.7103 1.039 0
M  V30 14 C 3.4487 0.5406 -0.8348 0
M  V30 15 F 1.61 0.2004 -2.9758 0
M  V30 16 C -4.2578 -0.0849 -1.5104 0
M  V30 17 C -3.353 -1.6207 2.3094 0
M  V30 18 C -1.8441 -1.5294 2.2408 0
M  V30 19 O -3.2873 -0.1296 -3.6081 0
M  V30 20 C 4.186 0.6593 0.4672 0
M  V30 21 C -5.647 -0.1523 -2.0417 0
M  V30 22 N 4.9331 1.9179 0.6101 0 CHG=1
M  V30 23 C 5.0 -0.5832 0.8611 0
M  V30 24 O -6.6314 -0.121 -1.2563 0
M  V30 25 O -5.8902 -0.2497 -3.4075 0 CHG=-1
M  V30 26 H -4.9017 -0.1551 0.5326 0
M  V30 27 H -2.7972 0.5322 2.5654 0
M  V30 28 H -0.8252 -0.0246 -3.722 0
M  V30 29 H 2.5693 1.684 1.5265 0
M  V30 30 H 2.561 -0.1488 1.7049 0
M  V30 31 H 3.61 1.4037 -1.5186 0
M  V30 32 H 3.624 -0.4279 -1.3553 0
M  V30 33 H -3.7508 -1.6062 3.3463 0
M  V30 34 H -3.7833 -2.269 1.5165 0
M  V30 35 H -1.349 -1.4468 3.2307 0
M  V30 36 H -1.3986 -2.0952 1.3955 0
M  V30 37 H 5.2259 2.0379 1.6072 0
M  V30 38 H 4.356 2.7438 0.3255 0
M  V30 39 H 5.786 1.8839 0.0085 0
M  V30 40 H 5.3164 -0.5067 1.9228 0
M  V30 41 H 4.4022 -1.5126 0.7358 0
M  V30 42 H 5.9051 -0.6561 0.2223 0
M  V30 END ATOM
M  V30 BEGIN BOND
M  V30 1 1 1 2
M  V30 2 2 2 3
M  V30 3 1 2 4
M  V30 4 1 3 5
M  V30 5 1 3 6
M  V30 6 1 4 7
M  V30 7 2 4 8
M  V30 8 1 5 9
M  V30 9 1 5 10
M  V30 10 1 6 11
M  V30 11 2 6 12
M  V30 12 1 7 13
M  V30 13 1 7 14
M  V30 14 1 8 15
M  V30 15 2 9 16
M  V30 16 1 10 17
M  V30 17 1 10 18
M  V30 18 2 11 19
M  V30 19 1 13 20
M  V30 20 1 16 21
M  V30 21 1 20 22
M  V30 22 1 20 23
M  V30 23 2 21 24
M  V30 24 1 21 25
M  V30 25 1 8 12
M  V30 26 1 11 16
M  V30 27 1 14 20
M  V30 28 1 17 18
M  V30 29 1 9 26
M  V30 30 1 10 27
M  V30 31 1 12 28
M  V30 32 1 13 29
M  V30 33 1 13 30
M  V30 34 1 14 31
M  V30 35 1 14 32
M  V30 36 1 17 33
M  V30 37 1 17 34
M  V30 38 1 18 35
M  V30 39 1 18 36
M  V30 40 1 22 37
M  V30 41 1 22 38
M  V30 42 1 22 39
M  V30 43 1 23 40
M  V30 44 1 23 41
M  V30 45 1 23 42
M  V30 END BOND
M  V30 END CTAB
M  END
>  <Structure No>
8505

>  <LogS>
-5.33

>  <MMFF94 Energy>
71.496

$$$$
Compound 8506
Actelion Java MolfileCreator 2.0

  0  0  0  0  0  0              0 V3000
M  V30 BEGIN CTAB
M  V30 COUNTS 44 47 0 0 0
M  V30 BEGIN ATOM
M  V30 1 F -0.0812 -1.3818 -0.7313 0
M  V30 2 C 0.2772 -0.1663 -0.2487 0
M  V30 3 C 1.6403 0.2334 -0.1814 0
M  V30 4 C -0.7497 0.704 0.1322 0
M  V30 5 N 2.6735 -0.6454 -0.4589 0
M  V30 6 C 1.9396 1.584 0.1779 0
M  V30 7 N -2.1155 0.2641 0.1063 0
M  V30 8 C -0.4471 2.0113 0.5109 0
M  V30 9 C 3.9579 -0.1933 -0.5636 0
M  V30 10 C 2.4521 -2.0824 -0.7176 0
M  V30 11 C 3.3004 1.9793 0.2355 0
M  V30 12 C 0.8718 2.4786 0.4892 0
M  V30 13 C -2.8605 -0.9734 -0.2112 0
M  V30 14 C -3.4485 0.8269 0.4119 0
M  V30 15 F -1.4525 2.8651 0.835 0
M  V30 16 C 4.3106 1.1074 -0.1993 0
M  V30 17 C 3.3801 -3.0317 0.0439 0
M  V30 18 C 1.9446 -2.8638 0.4923 0
M  V30 19 O 3.6247 3.1034 0.7041 0
M  V30 20 N 1.0866 3.8792 0.7217 0
M  V30 21 C -4.2238 -0.4191 0.0908 0
M  V30 22 C 5.7404 1.5215 -0.2552 0
M  V30 23 N -5.0826 -0.2888 -1.0954 0 CHG=1
M  V30 24 C -4.9323 -1.0663 1.2912 0
M  V30 25 O 6.6403 0.6755 -0.5051 0
M  V30 26 O 6.1128 2.8447 -0.0468 0 CHG=-1
M  V30 27 H 4.7364 -0.8722 -0.8942 0
M  V30 28 H 2.1236 -2.4041 -1.7289 0
M  V30 29 H -2.7216 -1.2532 -1.2794 0
M  V30 30 H -2.5538 -1.7998 0.4686 0
M  V30 31 H -3.6791 1.681 -0.2634 0
M  V30 32 H -3.5106 1.1273 1.4822 0
M  V30 33 H 4.1036 -2.5795 0.7555 0
M  V30 34 H 3.5732 -4.0002 -0.4632 0
M  V30 35 H 1.2861 -3.7212 0.2389 0
M  V30 36 H 1.8279 -2.2753 1.4279 0
M  V30 37 H 1.7667 4.4223 0.1465 0
M  V30 38 H 0.4025 4.4365 1.2806 0
M  V30 39 H -5.4113 -1.2358 -1.394 0
M  V30 40 H -5.9138 0.3012 -0.8615 0
M  V30 41 H -4.5708 0.1549 -1.8935 0
M  V30 42 H -5.279 -2.0854 1.0186 0
M  V30 43 H -5.8119 -0.4546 1.5834 0
M  V30 44 H -4.2507 -1.1465 2.1658 0
M  V30 END ATOM
M  V30 BEGIN BOND
M  V30 1 1 1 2
M  V30 2 2 2 3
M  V30 3 1 2 4
M  V30 4 1 3 5
M  V30 5 1 3 6
M  V30 6 1 4 7
M  V30 7 2 4 8
M  V30 8 1 5 9
M  V30 9 1 5 10
M  V30 10 1 6 11
M  V30 11 2 6 12
M  V30 12 1 7 13
M  V30 13 1 7 14
M  V30 14 1 8 15
M  V30 15 2 9 16
M  V30 16 1 10 17
M  V30 17 1 10 18
M  V30 18 2 11 19
M  V30 19 1 12 20
M  V30 20 1 13 21
M  V30 21 1 16 22
M  V30 22 1 21 23
M  V30 23 1 21 24
M  V30 24 2 22 25
M  V30 25 1 22 26
M  V30 26 1 8 12
M  V30 27 1 11 16
M  V30 28 1 14 21
M  V30 29 1 17 18
M  V30 30 1 9 27
M  V30 31 1 10 28
M  V30 32 1 13 29
M  V30 33 1 13 30
M  V30 34 1 14 31
M  V30 35 1 14 32
M  V30 36 1 17 33
M  V30 37 1 17 34
M  V30 38 1 18 35
M  V30 39 1 18 36
M  V30 40 1 20 37
M  V30 41 1 20 38
M  V30 42 1 23 39
M  V30 43 1 23 40
M  V30 44 1 23 41
M  V30 45 1 24 42
M  V30 46 1 24 43
M  V30 47 1 24 44
M  V30 END BOND
M  V30 END CTAB
M  END
>  <Structure No>
8506

>  <LogS>
-4.38

>  <MMFF94 Energy>
98.686

$$$$
Compound 8507
Actelion Java MolfileCreator 2.0

  0  0  0  0  0  0              0 V3000
M  V30 BEGIN CTAB
M  V30 COUNTS 28 30 0 0 0
M  V30 BEGIN ATOM
M  V30 1 N -2.1561 1.6767 -0.878 0
M  V30 2 C -1.7767 0.5385 -0.2201 0
M  V30 3 C -3.4768 2.0219 -1.0122 0
M  V30 4 N -0.3912 0.1905 -0.0877 0
M  V30 5 C -2.7903 -0.2575 0.3093 0
M  V30 6 N -4.4581 1.2288 -0.4862 0
M  V30 7 C 0.6614 1.0362 -0.649 0
M  V30 8 N -2.7272 -1.4081 0.9917 0
M  V30 9 C -4.0873 0.1012 0.1657 0
M  V30 10 C 2.0185 0.4481 -0.3719 0
M  V30 11 C -4.0269 -1.708 1.2408 0
M  V30 12 N -4.9046 -0.7943 0.7438 0
M  V30 13 C 2.6993 0.7661 0.8148 0
M  V30 14 C 2.5859 -0.4751 -1.2657 0
M  V30 15 C 3.9435 0.1892 1.0887 0
M  V30 16 C 3.8302 -1.0498 -0.988 0
M  V30 17 C 4.5095 -0.716 0.1869 0
M  V30 18 H -3.7435 2.9284 -1.5379 0
M  V30 19 H -0.131 -0.685 0.4202 0
M  V30 20 H 0.51 1.136 -1.7459 0
M  V30 21 H 0.5935 2.054 -0.2061 0
M  V30 22 H -1.885 -1.9565 1.2729 0
M  V30 23 H -4.3378 -2.5908 1.7838 0
M  V30 24 H 2.2667 1.4583 1.5267 0
M  V30 25 H 2.0649 -0.7498 -2.1745 0
M  V30 26 H 4.4668 0.4411 2.002 0
M  V30 27 H 4.266 -1.7568 -1.682 0
M  V30 28 H 5.4718 -1.1628 0.401 0
M  V30 END ATOM
M  V30 BEGIN BOND
M  V30 1 2 1 2
M  V30 2 1 1 3
M  V30 3 1 2 4
M  V30 4 1 2 5
M  V30 5 2 3 6
M  V30 6 1 4 7
M  V30 7 1 5 8
M  V30 8 2 5 9
M  V30 9 1 7 10
M  V30 10 1 8 11
M  V30 11 1 9 12
M  V30 12 2 10 13
M  V30 13 1 10 14
M  V30 14 1 13 15
M  V30 15 2 14 16
M  V30 16 2 15 17
M  V30 17 1 6 9
M  V30 18 2 11 12
M  V30 19 1 16 17
M  V30 20 1 3 18
M  V30 21 1 4 19
M  V30 22 1 7 20
M  V30 23 1 7 21
M  V30 24 1 8 22
M  V30 25 1 11 23
M  V30 26 1 13 24
M  V30 27 1 14 25
M  V30 28 1 15 26
M  V30 29 1 16 27
M  V30 30 1 17 28
M  V30 END BOND
M  V30 END CTAB
M  END
>  <Structure No>
8507

>  <LogS>
-3.6

>  <MMFF94 Energy>
-61.605

$$$$
Compound 8508
Actelion Java MolfileCreator 2.0

  0  0  0  0  0  0              0 V3000
M  V30 BEGIN CTAB
M  V30 COUNTS 39 42 0 0 0
M  V30 BEGIN ATOM
M  V30 1 F -0.5714 0.9797 -0.9797 0
M  V30 2 C -0.168 -0.0641 -0.214 0
M  V30 3 C 1.202 -0.4452 -0.141 0
M  V30 4 C -1.1571 -0.8014 0.4585 0
M  V30 5 N 2.2129 0.2925 -0.73 0
M  V30 6 C 1.53 -1.6411 0.5535 0
M  V30 7 N -2.5308 -0.3944 0.3953 0
M  V30 8 C -0.8001 -1.9409 1.1853 0
M  V30 9 C 3.485 -0.2081 -0.7974 0
M  V30 10 C 1.9732 1.6051 -1.3612 0
M  V30 11 C 2.8585 -2.1039 0.5526 0
M  V30 12 C 0.5245 -2.3633 1.2217 0
M  V30 13 C -3.3254 0.6877 -0.2214 0
M  V30 14 C -3.8305 -0.8575 0.9234 0
M  V30 15 F -1.7404 -2.6656 1.8421 0
M  V30 16 C 3.8469 -1.3988 -0.1532 0
M  V30 17 C 1.5589 2.7017 -0.3828 0
M  V30 18 C 2.9567 2.7074 -0.9632 0
M  V30 19 O 3.1569 -3.1608 1.1755 0
M  V30 20 C -4.6506 0.2347 0.3092 0
M  V30 21 C 5.256 -1.8749 -0.2254 0
M  V30 22 N -5.2313 1.1541 1.2936 0 CHG=1
M  V30 23 O 6.1275 -1.1974 -0.8333 0
M  V30 24 O 5.641 -3.0712 0.3687 0 CHG=-1
M  V30 25 H 4.2439 0.3404 -1.3444 0
M  V30 26 H 1.5658 1.6407 -2.394 0
M  V30 27 H 0.7588 -3.2673 1.7709 0
M  V30 28 H -3.277 0.6288 -1.3315 0
M  V30 29 H -3.003 1.6833 0.1583 0
M  V30 30 H -3.8322 -0.8515 2.0367 0
M  V30 31 H -4.0891 -1.8582 0.5114 0
M  V30 32 H 0.884 3.4697 -0.8161 0
M  V30 33 H 1.5134 2.399 0.6855 0
M  V30 34 H 3.7319 2.4537 -0.2089 0
M  V30 35 H 3.1118 3.4928 -1.7326 0
M  V30 36 H -5.3674 -0.1083 -0.4699 0
M  V30 37 H -4.5286 1.4547 2.0092 0
M  V30 38 H -5.5964 1.9981 0.7961 0
M  V30 39 H -6.0279 0.6777 1.7748 0
M  V30 END ATOM
M  V30 BEGIN BOND
M  V30 1 1 1 2
M  V30 2 2 2 3
M  V30 3 1 2 4
M  V30 4 1 3 5
M  V30 5 1 3 6
M  V30 6 1 4 7
M  V30 7 2 4 8
M  V30 8 1 5 9
M  V30 9 1 5 10
M  V30 10 1 6 11
M  V30 11 2 6 12
M  V30 12 1 7 13
M  V30 13 1 7 14
M  V30 14 1 8 15
M  V30 15 2 9 16
M  V30 16 1 10 17
M  V30 17 1 10 18
M  V30 18 2 11 19
M  V30 19 1 13 20
M  V30 20 1 16 21
M  V30 21 1 20 22
M  V30 22 2 21 23
M  V30 23 1 21 24
M  V30 24 1 8 12
M  V30 25 1 11 16
M  V30 26 1 14 20
M  V30 27 1 17 18
M  V30 28 1 9 25
M  V30 29 1 10 26
M  V30 30 1 12 27
M  V30 31 1 13 28
M  V30 32 1 13 29
M  V30 33 1 14 30
M  V30 34 1 14 31
M  V30 35 1 17 32
M  V30 36 1 17 33
M  V30 37 1 18 34
M  V30 38 1 18 35
M  V30 39 1 20 36
M  V30 40 1 22 37
M  V30 41 1 22 38
M  V30 42 1 22 39
M  V30 END BOND
M  V30 END CTAB
M  END
>  <Structure No>
8508

>  <LogS>
-5.27

>  <MMFF94 Energy>
57.659

$$$$
Compound 8509
Actelion Java MolfileCreator 2.0

  0  0  0  0  0  0              0 V3000
M  V30 BEGIN CTAB
M  V30 COUNTS 25 27 0 0 0
M  V30 BEGIN ATOM
M  V30 1 O 2.7967 -0.9582 -0.479 0
M  V30 2 C 2.2645 -0.1216 0.3814 0
M  V30 3 C 3.538 -0.2751 -1.3207 0
M  V30 4 C 2.6652 1.1686 0.099 0
M  V30 5 C 1.3407 -0.5326 1.4838 0
M  V30 6 C 3.4889 1.0669 -1.001 0
M  V30 7 N 0.0622 -0.9708 0.9305 0
M  V30 8 C -0.8861 -0.0511 0.3678 0
M  V30 9 N -0.6486 1.2961 0.3712 0
M  V30 10 C -2.0812 -0.484 -0.2023 0
M  V30 11 C -1.5448 2.185 -0.1645 0
M  V30 12 N -2.5777 -1.7186 -0.3509 0
M  V30 13 C -2.9524 0.4096 -0.7257 0
M  V30 14 N -2.712 1.7423 -0.7213 0
M  V30 15 C -3.765 -1.5163 -0.976 0
M  V30 16 N -4.0353 -0.2065 -1.2272 0
M  V30 17 H 4.096 -0.7127 -2.1374 0
M  V30 18 H 2.3879 2.0727 0.6249 0
M  V30 19 H 1.1795 0.303 2.1989 0
M  V30 20 H 1.8088 -1.3716 2.0414 0
M  V30 21 H 3.9929 1.8759 -1.5124 0
M  V30 22 H -0.1606 -1.9905 0.9613 0
M  V30 23 H -1.3262 3.2437 -0.1467 0
M  V30 24 H -2.1608 -2.6301 -0.0611 0
M  V30 25 H -4.4346 -2.3207 -1.2503 0
M  V30 END ATOM
M  V30 BEGIN BOND
M  V30 1 1 1 2
M  V30 2 1 1 3
M  V30 3 2 2 4
M  V30 4 1 2 5
M  V30 5 2 3 6
M  V30 6 1 5 7
M  V30 7 1 7 8
M  V30 8 2 8 9
M  V30 9 1 8 10
M  V30 10 1 9 11
M  V30 11 1 10 12
M  V30 12 2 10 13
M  V30 13 2 11 14
M  V30 14 1 12 15
M  V30 15 1 13 16
M  V30 16 1 4 6
M  V30 17 1 13 14
M  V30 18 2 15 16
M  V30 19 1 3 17
M  V30 20 1 4 18
M  V30 21 1 5 19
M  V30 22 1 5 20
M  V30 23 1 6 21
M  V30 24 1 7 22
M  V30 25 1 11 23
M  V30 26 1 12 24
M  V30 27 1 15 25
M  V30 END BOND
M  V30 END CTAB
M  END
>  <Structure No>
8509

>  <LogS>
-3.95

>  <MMFF94 Energy>
-72.85

$$$$
Compound 8510
Actelion Java MolfileCreator 2.0

  0  0  0  0  0  0              0 V3000
M  V30 BEGIN CTAB
M  V30 COUNTS 42 45 0 0 0
M  V30 BEGIN ATOM
M  V30 1 F -0.0814 -1.3846 0.2442 0
M  V30 2 C -0.3333 -0.09 -0.0701 0
M  V30 3 C -1.6651 0.3925 -0.2154 0
M  V30 4 C 0.7669 0.7495 -0.312 0
M  V30 5 N -2.7739 -0.3797 0.0799 0
M  V30 6 C -1.8503 1.7162 -0.6988 0
M  V30 7 N 2.1032 0.258 -0.141 0
M  V30 8 C 0.5566 2.0671 -0.7289 0
M  V30 9 C -4.0282 0.0551 -0.2533 0
M  V30 10 C -2.6686 -1.7144 0.7008 0
M  V30 11 C -3.1506 2.1866 -0.957 0
M  V30 12 C -0.7351 2.5409 -0.9327 0
M  V30 13 C 3.4805 0.7776 -0.2769 0
M  V30 14 C 2.7621 -1.0001 0.2698 0
M  V30 15 F 1.6055 2.894 -0.9662 0
M  V30 16 C -4.2549 1.3403 -0.7604 0
M  V30 17 C -2.1318 -1.6972 2.13 0
M  V30 18 C -3.6034 -1.9549 1.8879 0
M  V30 19 O -3.3221 3.3644 -1.3789 0
M  V30 20 C 4.1695 -0.4926 0.1337 0
M  V30 21 C -5.6479 1.7683 -1.0634 0
M  V30 22 N 4.9232 -1.1318 -0.9546 0 CHG=1
M  V30 23 C 4.9541 -0.4043 1.452 0
M  V30 24 O -5.8882 2.9066 -1.5461 0
M  V30 25 O -6.715 0.911 -0.819 0 CHG=-1
M  V30 26 H -4.8767 -0.6022 -0.1001 0
M  V30 27 H -2.4305 -2.59 0.0602 0
M  V30 28 H -0.8581 3.5582 -1.2842 0
M  V30 29 H 3.6503 1.6244 0.4253 0
M  V30 30 H 3.6859 1.0757 -1.3293 0
M  V30 31 H 2.5158 -1.8227 -0.4383 0
M  V30 32 H 2.482 -1.2656 1.314 0
M  V30 33 H -1.9111 -0.6911 2.5471 0
M  V30 34 H -1.5527 -2.6017 2.4113 0
M  V30 35 H -3.897 -3.0145 2.0417 0
M  V30 36 H -4.2434 -1.1079 2.215 0
M  V30 37 H 4.3613 -1.1761 -1.8367 0
M  V30 38 H 5.7962 -0.5872 -1.1411 0
M  V30 39 H 5.1829 -2.1051 -0.6743 0
M  V30 40 H 5.8814 0.1866 1.2989 0
M  V30 41 H 5.231 -1.4239 1.7937 0
M  V30 42 H 4.3506 0.0838 2.2478 0
M  V30 END ATOM
M  V30 BEGIN BOND
M  V30 1 1 1 2
M  V30 2 2 2 3
M  V30 3 1 2 4
M  V30 4 1 3 5
M  V30 5 1 3 6
M  V30 6 1 4 7
M  V30 7 2 4 8
M  V30 8 1 5 9
M  V30 9 1 5 10
M  V30 10 1 6 11
M  V30 11 2 6 12
M  V30 12 1 7 13
M  V30 13 1 7 14
M  V30 14 1 8 15
M  V30 15 2 9 16
M  V30 16 1 10 17
M  V30 17 1 10 18
M  V30 18 2 11 19
M  V30 19 1 13 20
M  V30 20 1 16 21
M  V30 21 1 20 22
M  V30 22 1 20 23
M  V30 23 2 21 24
M  V30 24 1 21 25
M  V30 25 1 8 12
M  V30 26 1 11 16
M  V30 27 1 14 20
M  V30 28 1 17 18
M  V30 29 1 9 26
M  V30 30 1 10 27
M  V30 31 1 12 28
M  V30 32 1 13 29
M  V30 33 1 13 30
M  V30 34 1 14 31
M  V30 35 1 14 32
M  V30 36 1 17 33
M  V30 37 1 17 34
M  V30 38 1 18 35
M  V30 39 1 18 36
M  V30 40 1 22 37
M  V30 41 1 22 38
M  V30 42 1 22 39
M  V30 43 1 23 40
M  V30 44 1 23 41
M  V30 45 1 23 42
M  V30 END BOND
M  V30 END CTAB
M  END
>  <Structure No>
8510

>  <LogS>
-5.64

>  <MMFF94 Energy>
59.597

$$$$
Compound 8511
Actelion Java MolfileCreator 2.0

  0  0  0  0  0  0              0 V3000
M  V30 BEGIN CTAB
M  V30 COUNTS 42 45 0 0 0
M  V30 BEGIN ATOM
M  V30 1 F 0.0 -1.059 1.1404 0
M  V30 2 C -0.2528 -0.0784 0.2388 0
M  V30 3 C -1.5008 0.6075 0.219 0
M  V30 4 C 0.7828 0.2849 -0.6386 0
M  V30 5 N -2.5671 0.2387 1.0195 0
M  V30 6 C -1.6387 1.7243 -0.6494 0
M  V30 7 N 2.027 -0.4279 -0.6235 0
M  V30 8 C 0.6006 1.3509 -1.5243 0
M  V30 9 C -3.6766 1.036 1.1039 0
M  V30 10 C -2.545 -0.9732 1.8616 0
M  V30 11 C -2.8189 2.4894 -0.6168 0
M  V30 12 C -0.5902 2.0697 -1.5214 0
M  V30 13 C 2.625 -1.5719 0.098 0
M  V30 14 C 3.3123 -0.3916 -1.3536 0
M  V30 15 F 1.5889 1.718 -2.3782 0
M  V30 16 C -3.8421 2.1632 0.288 0
M  V30 17 C -3.7936 -1.8526 1.7711 0
M  V30 18 C -2.5206 -2.2803 1.0732 0
M  V30 19 O -2.9506 3.4769 -1.3925 0
M  V30 20 C 3.9473 -1.5308 -0.6139 0
M  V30 21 C -5.0882 2.9716 0.3946 0
M  V30 22 N 5.1423 -1.1636 0.1858 0 CHG=1
M  V30 23 O -6.0149 2.6153 1.1711 0
M  V30 24 O -5.257 4.1328 -0.3515 0 CHG=-1
M  V30 25 C 4.9515 -0.1855 1.2713 0
M  V30 26 H -4.4621 0.7817 1.8069 0
M  V30 27 H -2.0206 -0.9398 2.8404 0
M  V30 28 H -0.684 2.9078 -2.2017 0
M  V30 29 H 2.6529 -1.3871 1.1901 0
M  V30 30 H 2.0646 -2.5066 -0.1278 0
M  V30 31 H 3.824 0.5869 -1.2286 0
M  V30 32 H 3.1562 -0.6293 -2.4295 0
M  V30 33 H -4.5872 -1.5434 1.0576 0
M  V30 34 H -4.015 -2.4409 2.6862 0
M  V30 35 H -2.5518 -2.1727 -0.0323 0
M  V30 36 H -1.9816 -3.1089 1.579 0
M  V30 37 H 4.1226 -2.418 -1.2635 0
M  V30 38 H 5.866 -0.7912 -0.4724 0
M  V30 39 H 5.5306 -2.0404 0.6047 0
M  V30 40 H 4.5308 -0.6781 2.174 0
M  V30 41 H 4.2963 0.6566 0.9695 0
M  V30 42 H 5.9355 0.24 1.5648 0
M  V30 END ATOM
M  V30 BEGIN BOND
M  V30 1 1 1 2
M  V30 2 2 2 3
M  V30 3 1 2 4
M  V30 4 1 3 5
M  V30 5 1 3 6
M  V30 6 1 4 7
M  V30 7 2 4 8
M  V30 8 1 5 9
M  V30 9 1 5 10
M  V30 10 1 6 11
M  V30 11 2 6 12
M  V30 12 1 7 13
M  V30 13 1 7 14
M  V30 14 1 8 15
M  V30 15 2 9 16
M  V30 16 1 10 17
M  V30 17 1 10 18
M  V30 18 2 11 19
M  V30 19 1 13 20
M  V30 20 1 16 21
M  V30 21 1 20 22
M  V30 22 2 21 23
M  V30 23 1 21 24
M  V30 24 1 22 25
M  V30 25 1 8 12
M  V30 26 1 11 16
M  V30 27 1 14 20
M  V30 28 1 17 18
M  V30 29 1 9 26
M  V30 30 1 10 27
M  V30 31 1 12 28
M  V30 32 1 13 29
M  V30 33 1 13 30
M  V30 34 1 14 31
M  V30 35 1 14 32
M  V30 36 1 17 33
M  V30 37 1 17 34
M  V30 38 1 18 35
M  V30 39 1 18 36
M  V30 40 1 20 37
M  V30 41 1 22 38
M  V30 42 1 22 39
M  V30 43 1 25 40
M  V30 44 1 25 41
M  V30 45 1 25 42
M  V30 END BOND
M  V30 END CTAB
M  END
>  <Structure No>
8511

>  <LogS>
-5.31

>  <MMFF94 Energy>
63.034

$$$$
Compound 8512
Actelion Java MolfileCreator 2.0

  0  0  0  0  0  0              0 V3000
M  V30 BEGIN CTAB
M  V30 COUNTS 29 31 0 0 0
M  V30 BEGIN ATOM
M  V30 1 O 0.0 3.5089 0.163 0
M  V30 2 C -0.4287 2.3265 0.0516 0
M  V30 3 C -1.8079 2.0635 0.1314 0
M  V30 4 C 0.4768 1.2714 -0.147 0
M  V30 5 C -2.8084 3.1429 0.3566 0
M  V30 6 C -2.2493 0.7399 -0.006 0
M  V30 7 C -0.0209 -0.0677 -0.2769 0
M  V30 8 C 1.8703 1.5225 -0.2113 0
M  V30 9 O -2.451 4.3429 0.4941 0
M  V30 10 O -4.1646 2.8419 0.4199 0 CHG=-1
M  V30 11 N -1.3818 -0.2959 -0.2258 0
M  V30 12 C 0.9153 -1.1276 -0.4508 0
M  V30 13 C 2.7252 0.4459 -0.3907 0
M  V30 14 C -1.9681 -1.6447 -0.3646 0
M  V30 15 C 2.2685 -0.8207 -0.503 0
M  V30 16 O 4.104 0.4505 -0.4773 0
M  V30 17 C -1.9436 -2.3846 0.9702 0
M  V30 18 O 3.3364 -1.6826 -0.6647 0
M  V30 19 C 4.5402 -0.9037 -0.6549 0
M  V30 20 H -3.3124 0.537 0.0618 0
M  V30 21 H 2.281 2.5202 -0.1198 0
M  V30 22 H 0.6294 -2.1647 -0.5325 0
M  V30 23 H -1.4509 -2.2309 -1.1517 0
M  V30 24 H -3.0242 -1.584 -0.7114 0
M  V30 25 H -2.3848 -3.3956 0.8447 0
M  V30 26 H -0.9033 -2.4929 1.3407 0
M  V30 27 H -2.5381 -1.8257 1.7236 0
M  V30 28 H 5.0739 -1.0106 -1.6224 0
M  V30 29 H 5.189 -1.2116 0.1917 0
M  V30 END ATOM
M  V30 BEGIN BOND
M  V30 1 2 1 2
M  V30 2 1 2 3
M  V30 3 1 2 4
M  V30 4 1 3 5
M  V30 5 2 3 6
M  V30 6 2 4 7
M  V30 7 1 4 8
M  V30 8 2 5 9
M  V30 9 1 5 10
M  V30 10 1 6 11
M  V30 11 1 7 12
M  V30 12 2 8 13
M  V30 13 1 11 14
M  V30 14 2 12 15
M  V30 15 1 13 16
M  V30 16 1 14 17
M  V30 17 1 15 18
M  V30 18 1 16 19
M  V30 19 1 7 11
M  V30 20 1 13 15
M  V30 21 1 18 19
M  V30 22 1 6 20
M  V30 23 1 8 21
M  V30 24 1 12 22
M  V30 25 1 14 23
M  V30 26 1 14 24
M  V30 27 1 17 25
M  V30 28 1 17 26
M  V30 29 1 17 27
M  V30 30 1 19 28
M  V30 31 1 19 29
M  V30 END BOND
M  V30 END CTAB
M  END
>  <Structure No>
8512

>  <LogS>
-4.38

>  <MMFF94 Energy>
38.894

$$$$
Compound 8513
Actelion Java MolfileCreator 2.0

  0  0  0  0  0  0              0 V3000
M  V30 BEGIN CTAB
M  V30 COUNTS 40 41 0 0 0
M  V30 BEGIN ATOM
M  V30 1 O -2.7786 1.1107 1.9046 0
M  V30 2 C -2.5018 0.1048 1.1939 0
M  V30 3 O -3.1671 -0.1136 -0.018 0
M  V30 4 C -1.4038 -0.8396 1.6018 0 CFG=1
M  V30 5 C -4.2335 0.7085 -0.4922 0
M  V30 6 C -0.0694 -0.3686 1.0589 0
M  V30 7 C -1.3486 -1.0376 3.1224 0
M  V30 8 C -4.4242 0.4574 -1.9868 0
M  V30 9 C -5.5223 0.396 0.2735 0
M  V30 10 C 0.6543 -1.1821 0.1694 0
M  V30 11 C 0.4636 0.8787 1.434 0
M  V30 12 C 1.8911 -0.758 -0.3401 0
M  V30 13 C 1.6942 1.3076 0.9312 0
M  V30 14 C 2.416 0.4975 0.0437 0
M  V30 15 C 2.6131 -1.5682 -1.2277 0
M  V30 16 C 3.6534 0.9216 -0.4662 0
M  V30 17 C 3.8435 -1.1378 -1.7301 0
M  V30 18 C 4.3735 0.1028 -1.3579 0
M  V30 19 O 5.6131 0.4831 -1.8941 0
M  V30 20 C 6.2719 1.7122 -1.6068 0
M  V30 21 H -1.6531 -1.8321 1.1645 0
M  V30 22 H -3.9729 1.7814 -0.353 0
M  V30 23 H -2.322 -1.4278 3.4899 0
M  V30 24 H -1.1276 -0.084 3.6472 0
M  V30 25 H -0.5588 -1.7756 3.3792 0
M  V30 26 H -4.681 -0.6077 -2.1725 0
M  V30 27 H -3.4849 0.6973 -2.5289 0
M  V30 28 H -5.2351 1.1031 -2.3865 0
M  V30 29 H -6.3592 1.0174 -0.1112 0
M  V30 30 H -5.7867 -0.6774 0.1642 0
M  V30 31 H -5.3908 0.6219 1.3521 0
M  V30 32 H 0.2545 -2.1453 -0.1263 0
M  V30 33 H -0.0747 1.5236 2.1165 0
M  V30 34 H 2.0809 2.2728 1.2364 0
M  V30 35 H 2.2269 -2.5333 -1.5328 0
M  V30 36 H 4.0486 1.8842 -0.1676 0
M  V30 37 H 4.3906 -1.7734 -2.4149 0
M  V30 38 H 7.2297 1.7495 -2.165 0
M  V30 39 H 6.4908 1.7833 -0.5203 0
M  V30 40 H 5.6405 2.568 -1.9269 0
M  V30 END ATOM
M  V30 BEGIN BOND
M  V30 1 2 1 2
M  V30 2 1 2 3
M  V30 3 1 2 4
M  V30 4 1 3 5
M  V30 5 1 4 6
M  V30 6 1 4 7
M  V30 7 1 5 8
M  V30 8 1 5 9
M  V30 9 2 6 10
M  V30 10 1 6 11
M  V30 11 1 10 12
M  V30 12 2 11 13
M  V30 13 1 12 14
M  V30 14 2 12 15
M  V30 15 2 14 16
M  V30 16 1 15 17
M  V30 17 1 16 18
M  V30 18 1 18 19
M  V30 19 1 19 20
M  V30 20 1 13 14
M  V30 21 2 17 18
M  V30 22 1 4 21
M  V30 23 1 5 22
M  V30 24 1 7 23
M  V30 25 1 7 24
M  V30 26 1 7 25
M  V30 27 1 8 26
M  V30 28 1 8 27
M  V30 29 1 8 28
M  V30 30 1 9 29
M  V30 31 1 9 30
M  V30 32 1 9 31
M  V30 33 1 10 32
M  V30 34 1 11 33
M  V30 35 1 13 34
M  V30 36 1 15 35
M  V30 37 1 16 36
M  V30 38 1 17 37
M  V30 39 1 20 38
M  V30 40 1 20 39
M  V30 41 1 20 40
M  V30 END BOND
M  V30 BEGIN COLLECTION
M  V30 MDLV30/STEABS ATOMS=(1 4)
M  V30 END COLLECTION
M  V30 END CTAB
M  END
>  <Structure No>
8513

>  <LogS>
-5.48

>  <MMFF94 Energy>
50.283

$$$$
Compound 8514
Actelion Java MolfileCreator 2.0

  0  0  0  0  0  0              0 V3000
M  V30 BEGIN CTAB
M  V30 COUNTS 38 40 0 0 0
M  V30 BEGIN ATOM
M  V30 1 O -2.3257 -1.6837 2.406 0
M  V30 2 C -2.2062 -1.1776 1.2574 0
M  V30 3 C -3.3611 -0.4797 0.652 0
M  V30 4 C -0.9177 -1.3138 0.5511 0
M  V30 5 C -4.2593 0.2332 1.4654 0
M  V30 6 C -3.6053 -0.5584 -0.7309 0
M  V30 7 N -0.378 -0.3984 -0.2754 0
M  V30 8 C 0.0174 -2.323 0.7624 0
M  V30 9 C -5.3629 0.8802 0.9006 0
M  V30 10 C -4.7099 0.0903 -1.2911 0
M  V30 11 C 0.8537 -0.7719 -0.5548 0
M  V30 12 C -0.6294 0.9977 -0.5577 0
M  V30 13 C 1.1628 -1.9714 0.0536 0
M  V30 14 C -5.5865 0.8113 -0.4766 0
M  V30 15 C 1.6865 0.2944 -1.1542 0 CFG=1
M  V30 16 C 0.6665 1.4657 -1.2662 0
M  V30 17 C 2.8498 0.6339 -0.2656 0
M  V30 18 O 2.6503 1.0583 0.9067 0
M  V30 19 O 4.1512 0.4569 -0.7479 0
M  V30 20 C 5.3164 0.6544 0.0497 0
M  V30 21 C 5.5086 -0.5091 1.0157 0
M  V30 22 H -4.1 0.2992 2.5347 0
M  V30 23 H -2.9463 -1.1259 -1.376 0
M  V30 24 H -0.0892 -3.1745 1.4214 0
M  V30 25 H -6.0457 1.4348 1.5315 0
M  V30 26 H -4.8887 0.0302 -2.3569 0
M  V30 27 H -1.5092 1.1139 -1.2235 0
M  V30 28 H -0.7801 1.5553 0.392 0
M  V30 29 H 2.1237 -2.4679 0.0756 0
M  V30 30 H -6.4415 1.3124 -0.9119 0
M  V30 31 H 2.0414 -0.0213 -2.1591 0
M  V30 32 H 1.0439 2.4072 -0.8095 0
M  V30 33 H 0.4503 1.6645 -2.3387 0
M  V30 34 H 6.1991 0.7103 -0.6214 0
M  V30 35 H 5.2463 1.6131 0.6084 0
M  V30 36 H 5.5716 -1.4632 0.4512 0
M  V30 37 H 4.6603 -0.5646 1.7296 0
M  V30 38 H 6.4487 -0.367 1.5893 0
M  V30 END ATOM
M  V30 BEGIN BOND
M  V30 1 2 1 2
M  V30 2 1 2 3
M  V30 3 1 2 4
M  V30 4 2 3 5
M  V30 5 1 3 6
M  V30 6 1 4 7
M  V30 7 2 4 8
M  V30 8 1 5 9
M  V30 9 2 6 10
M  V30 10 1 7 11
M  V30 11 1 7 12
M  V30 12 1 8 13
M  V30 13 2 9 14
M  V30 14 1 11 15
M  V30 15 1 12 16
M  V30 16 1 15 17
M  V30 17 2 17 18
M  V30 18 1 17 19
M  V30 19 1 19 20
M  V30 20 1 20 21
M  V30 21 1 10 14
M  V30 22 2 11 13
M  V30 23 1 15 16
M  V30 24 1 5 22
M  V30 25 1 6 23
M  V30 26 1 8 24
M  V30 27 1 9 25
M  V30 28 1 10 26
M  V30 29 1 12 27
M  V30 30 1 12 28
M  V30 31 1 13 29
M  V30 32 1 14 30
M  V30 33 1 15 31
M  V30 34 1 16 32
M  V30 35 1 16 33
M  V30 36 1 20 34
M  V30 37 1 20 35
M  V30 38 1 21 36
M  V30 39 1 21 37
M  V30 40 1 21 38
M  V30 END BOND
M  V30 BEGIN COLLECTION
M  V30 MDLV30/STEABS ATOMS=(1 15)
M  V30 END COLLECTION
M  V30 END CTAB
M  END
>  <Structure No>
8514

>  <LogS>
-4.2

>  <MMFF94 Energy>
71.738

$$$$
Compound 8515
Actelion Java MolfileCreator 2.0

  0  0  0  0  0  0              0 V3000
M  V30 BEGIN CTAB
M  V30 COUNTS 42 45 0 0 0
M  V30 BEGIN ATOM
M  V30 1 O 3.468 1.8538 -0.5639 0
M  V30 2 C 2.7646 0.835 -0.3159 0
M  V30 3 C 1.3585 0.9342 -0.212 0
M  V30 4 C 3.3903 -0.4078 -0.1643 0
M  V30 5 C 0.6032 -0.2574 0.0099 0
M  V30 6 C 0.6916 2.1842 -0.3304 0
M  V30 7 C 2.6198 -1.5305 0.1979 0
M  V30 8 C 4.7812 -0.5597 -0.3223 0
M  V30 9 N 1.2633 -1.4188 0.3774 0
M  V30 10 C -0.8133 -0.1913 -0.1481 0
M  V30 11 O 1.4383 3.3675 -0.478 0
M  V30 12 C -0.7094 2.2253 -0.286 0
M  V30 13 N 3.2446 -2.7297 0.3922 0
M  V30 14 C 5.377 -1.8039 -0.1245 0
M  V30 15 C 0.5861 -2.5077 1.1107 0
M  V30 16 C -1.4502 1.0547 -0.2221 0
M  V30 17 C -1.6618 -1.3712 -0.4527 0
M  V30 18 C 0.8851 4.6739 -0.6055 0
M  V30 19 C 4.5841 -2.8891 0.2386 0
M  V30 20 O -2.848 1.1222 -0.2817 0
M  V30 21 C -2.9955 -1.2856 -0.4346 0
M  V30 22 C -3.6861 -0.0078 -0.011 0
M  V30 23 C -3.9793 -0.0639 1.4945 0
M  V30 24 C -4.9932 0.1596 -0.7937 0
M  V30 25 H 5.4094 0.2791 -0.5956 0
M  V30 26 H -1.2424 3.1636 -0.3543 0
M  V30 27 H 6.4457 -1.9245 -0.2461 0
M  V30 28 H 0.3756 -3.3586 0.4301 0
M  V30 29 H -0.3397 -2.1571 1.6119 0
M  V30 30 H 1.228 -2.878 1.9394 0
M  V30 31 H -1.2157 -2.2973 -0.7829 0
M  V30 32 H 1.7103 5.4071 -0.713 0
M  V30 33 H 0.2411 4.73 -1.5083 0
M  V30 34 H 0.2991 4.9311 0.3019 0
M  V30 35 H 5.0327 -3.8598 0.401 0
M  V30 36 H -3.5845 -2.1634 -0.6735 0
M  V30 37 H -4.4761 0.8733 1.8248 0
M  V30 38 H -4.6427 -0.923 1.7341 0
M  V30 39 H -3.0343 -0.1757 2.0685 0
M  V30 40 H -4.7832 0.1984 -1.8842 0
M  V30 41 H -5.4971 1.1066 -0.5032 0
M  V30 42 H -5.6856 -0.6868 -0.5941 0
M  V30 END ATOM
M  V30 BEGIN BOND
M  V30 1 2 1 2
M  V30 2 1 2 3
M  V30 3 1 2 4
M  V30 4 2 3 5
M  V30 5 1 3 6
M  V30 6 2 4 7
M  V30 7 1 4 8
M  V30 8 1 5 9
M  V30 9 1 5 10
M  V30 10 1 6 11
M  V30 11 2 6 12
M  V30 12 1 7 13
M  V30 13 2 8 14
M  V30 14 1 9 15
M  V30 15 2 10 16
M  V30 16 1 10 17
M  V30 17 1 11 18
M  V30 18 2 13 19
M  V30 19 1 16 20
M  V30 20 2 17 21
M  V30 21 1 20 22
M  V30 22 1 22 23
M  V30 23 1 22 24
M  V30 24 1 7 9
M  V30 25 1 12 16
M  V30 26 1 14 19
M  V30 27 1 21 22
M  V30 28 1 8 25
M  V30 29 1 12 26
M  V30 30 1 14 27
M  V30 31 1 15 28
M  V30 32 1 15 29
M  V30 33 1 15 30
M  V30 34 1 17 31
M  V30 35 1 18 32
M  V30 36 1 18 33
M  V30 37 1 18 34
M  V30 38 1 19 35
M  V30 39 1 21 36
M  V30 40 1 23 37
M  V30 41 1 23 38
M  V30 42 1 23 39
M  V30 43 1 24 40
M  V30 44 1 24 41
M  V30 45 1 24 42
M  V30 END BOND
M  V30 END CTAB
M  END
>  <Structure No>
8515

>  <LogS>
-3.96

>  <MMFF94 Energy>
100.67

$$$$
Compound 8516
Actelion Java MolfileCreator 2.0

  0  0  0  0  0  0              0 V3000
M  V30 BEGIN CTAB
M  V30 COUNTS 34 36 0 0 0
M  V30 BEGIN ATOM
M  V30 1 O 1.0432 -3.2931 0.0802 0
M  V30 2 C -0.0224 -2.6204 0.1233 0
M  V30 3 N 0.0287 -1.1975 0.3786 0
M  V30 4 N -1.2645 -3.2881 -0.1214 0
M  V30 5 C -1.1716 -0.4184 0.3715 0
M  V30 6 C 1.2918 -0.5288 0.5772 0
M  V30 7 C -1.4194 0.4481 -0.6992 0
M  V30 8 C -2.0853 -0.514 1.4306 0
M  V30 9 C 1.6982 0.6088 -0.191 0
M  V30 10 C 2.1517 -1.0249 1.5752 0
M  V30 11 C -2.5804 1.2454 -0.6862 0
M  V30 12 C -0.3688 0.5583 -1.7837 0 CFG=2
M  V30 13 C -3.2461 0.2625 1.4251 0
M  V30 14 C 2.969 1.1659 0.0614 0
M  V30 15 C 0.8578 1.3221 -1.255 0 CFG=1
M  V30 16 C 3.3984 -0.447 1.803 0
M  V30 17 C -3.4921 1.1433 0.369 0
M  V30 18 O -0.8731 1.2221 -2.9156 0
M  V30 19 C 3.809 0.6419 1.0427 0
M  V30 20 O 0.4437 2.5731 -0.7607 0
M  V30 21 H -2.1706 -2.7742 -0.1736 0
M  V30 22 H -1.2757 -4.3186 -0.2897 0
M  V30 23 H -1.8922 -1.1866 2.2568 0
M  V30 24 H 1.8474 -1.8649 2.1869 0
M  V30 25 H -2.7816 1.9498 -1.4828 0
M  V30 26 H -0.0384 -0.4612 -2.0941 0
M  V30 27 H -3.9511 0.188 2.243 0
M  V30 28 H 3.3135 2.0224 -0.5054 0
M  V30 29 H 1.5189 1.4752 -2.1428 0
M  V30 30 H 4.0472 -0.8452 2.5725 0
M  V30 31 H -4.3861 1.7534 0.372 0
M  V30 32 H -1.4767 0.5826 -3.3776 0
M  V30 33 H 4.7788 1.089 1.2197 0
M  V30 34 H 1.1855 3.2144 -0.9156 0
M  V30 END ATOM
M  V30 BEGIN BOND
M  V30 1 2 1 2
M  V30 2 1 2 3
M  V30 3 1 2 4
M  V30 4 1 3 5
M  V30 5 1 3 6
M  V30 6 2 5 7
M  V30 7 1 5 8
M  V30 8 2 6 9
M  V30 9 1 6 10
M  V30 10 1 7 11
M  V30 11 1 7 12
M  V30 12 2 8 13
M  V30 13 1 9 14
M  V30 14 1 9 15
M  V30 15 2 10 16
M  V30 16 2 11 17
M  V30 17 1 12 18
M  V30 18 2 14 19
M  V30 19 1 15 20
M  V30 20 1 12 15
M  V30 21 1 13 17
M  V30 22 1 16 19
M  V30 23 1 4 21
M  V30 24 1 4 22
M  V30 25 1 8 23
M  V30 26 1 10 24
M  V30 27 1 11 25
M  V30 28 1 12 26
M  V30 29 1 13 27
M  V30 30 1 14 28
M  V30 31 1 15 29
M  V30 32 1 16 30
M  V30 33 1 17 31
M  V30 34 1 18 32
M  V30 35 1 19 33
M  V30 36 1 20 34
M  V30 END BOND
M  V30 BEGIN COLLECTION
M  V30 MDLV30/STEABS ATOMS=(2 12 15)
M  V30 END COLLECTION
M  V30 END CTAB
M  END
>  <Structure No>
8516

>  <LogS>
-2.03

>  <MMFF94 Energy>
47.564

$$$$
Compound 8517
Actelion Java MolfileCreator 2.0

  0  0  0  0  0  0              0 V3000
M  V30 BEGIN CTAB
M  V30 COUNTS 52 52 0 0 0
M  V30 BEGIN ATOM
M  V30 1 O -0.7104 2.4487 0.4735 0
M  V30 2 C -0.55 1.242 0.8059 0
M  V30 3 O -1.6539 0.4319 1.0839 0
M  V30 4 N 0.7663 0.6881 0.9075 0
M  V30 5 C -2.996 0.9024 0.9934 0
M  V30 6 C 1.9735 1.4549 0.6067 0
M  V30 7 C -3.9818 -0.2257 1.3292 0 CFG=1
M  V30 8 C 2.1375 1.6251 -0.9099 0
M  V30 9 O -5.2673 0.3632 1.4974 0
M  V30 10 C -3.9991 -1.3862 0.2712 0 CFG=2
M  V30 11 C 3.4589 2.3321 -1.2787 0
M  V30 12 C -6.2662 -0.6316 1.6389 0 CFG=1
M  V30 13 O -2.8169 -1.4792 -0.4884 0
M  V30 14 C -5.2604 -1.3073 -0.6161 0 CFG=1
M  V30 15 C 4.5424 1.3761 -1.806 0
M  V30 16 O -7.447 -0.0399 2.1116 0
M  V30 17 C -6.5261 -1.3298 0.2782 0 CFG=2
M  V30 18 O -5.2406 -0.1227 -1.3776 0
M  V30 19 C 5.0486 0.399 -0.7358 0
M  V30 20 O -7.6039 -0.7214 -0.3899 0
M  V30 21 C 6.2326 -0.4263 -1.2604 0
M  V30 22 C 6.8358 -1.3423 -0.1842 0
M  V30 23 C 5.917 -2.5068 0.1852 0
M  V30 24 H 0.8685 -0.2915 1.256 0
M  V30 25 H -3.1984 1.2993 -0.0252 0
M  V30 26 H -3.1336 1.7326 1.7211 0
M  V30 27 H 1.9201 2.4486 1.1029 0
M  V30 28 H 2.8511 0.9193 1.0241 0
M  V30 29 H -3.6563 -0.6471 2.3085 0
M  V30 30 H 1.2911 2.239 -1.2875 0
M  V30 31 H 2.0653 0.6339 -1.409 0
M  V30 32 H -4.0756 -2.3404 0.8395 0
M  V30 33 H 3.2453 3.0658 -2.0867 0
M  V30 34 H 3.8565 2.9187 -0.421 0
M  V30 35 H -5.9464 -1.4025 2.3838 0
M  V30 36 H -2.8113 -0.7437 -1.1528 0
M  V30 37 H -5.2923 -2.2003 -1.2858 0
M  V30 38 H 5.3949 1.9932 -2.1655 0
M  V30 39 H 4.1483 0.8084 -2.6774 0
M  V30 40 H -7.244 0.3052 3.02 0
M  V30 41 H -6.7899 -2.3916 0.4976 0
M  V30 42 H -4.8874 -0.3544 -2.2758 0
M  V30 43 H 4.2234 -0.2884 -0.4579 0
M  V30 44 H 5.3652 0.9688 0.1652 0
M  V30 45 H -7.8828 -1.346 -1.1097 0
M  V30 46 H 7.0309 0.2671 -1.6048 0
M  V30 47 H 5.9128 -1.0334 -2.1356 0
M  V30 48 H 7.077 -0.7542 0.7278 0
M  V30 49 H 7.7883 -1.7615 -0.5748 0
M  V30 50 H 5.0105 -2.1416 0.7107 0
M  V30 51 H 6.455 -3.1985 0.8671 0
M  V30 52 H 5.6173 -3.0699 -0.724 0
M  V30 END ATOM
M  V30 BEGIN BOND
M  V30 1 2 1 2
M  V30 2 1 2 3
M  V30 3 1 2 4
M  V30 4 1 3 5
M  V30 5 1 4 6
M  V30 6 1 5 7
M  V30 7 1 6 8
M  V30 8 1 7 9
M  V30 9 1 7 10
M  V30 10 1 8 11
M  V30 11 1 9 12
M  V30 12 1 10 13
M  V30 13 1 10 14
M  V30 14 1 11 15
M  V30 15 1 12 16
M  V30 16 1 12 17
M  V30 17 1 14 18
M  V30 18 1 15 19
M  V30 19 1 17 20
M  V30 20 1 19 21
M  V30 21 1 21 22
M  V30 22 1 22 23
M  V30 23 1 14 17
M  V30 24 1 4 24
M  V30 25 1 5 25
M  V30 26 1 5 26
M  V30 27 1 6 27
M  V30 28 1 6 28
M  V30 29 1 7 29
M  V30 30 1 8 30
M  V30 31 1 8 31
M  V30 32 1 10 32
M  V30 33 1 11 33
M  V30 34 1 11 34
M  V30 35 1 12 35
M  V30 36 1 13 36
M  V30 37 1 14 37
M  V30 38 1 15 38
M  V30 39 1 15 39
M  V30 40 1 16 40
M  V30 41 1 17 41
M  V30 42 1 18 42
M  V30 43 1 19 43
M  V30 44 1 19 44
M  V30 45 1 20 45
M  V30 46 1 21 46
M  V30 47 1 21 47
M  V30 48 1 22 48
M  V30 49 1 22 49
M  V30 50 1 23 50
M  V30 51 1 23 51
M  V30 52 1 23 52
M  V30 END BOND
M  V30 BEGIN COLLECTION
M  V30 MDLV30/STEABS ATOMS=(5 7 10 12 14 17)
M  V30 END COLLECTION
M  V30 END CTAB
M  END
>  <Structure No>
8517

>  <LogS>
-2.35

>  <MMFF94 Energy>
7.9754

$$$$
Compound 8518
Actelion Java MolfileCreator 2.0

  0  0  0  0  0  0              0 V3000
M  V30 BEGIN CTAB
M  V30 COUNTS 55 55 0 0 0
M  V30 BEGIN ATOM
M  V30 1 O -0.631 -1.1045 0.2366 0
M  V30 2 C -1.1551 0.0303 0.0628 0
M  V30 3 O -2.5414 0.1884 0.138 0
M  V30 4 N -0.3357 1.1699 -0.2207 0
M  V30 5 C -3.425 -0.8943 0.4138 0
M  V30 6 C 1.1211 1.0939 -0.3056 0
M  V30 7 C -4.871 -0.3881 0.4262 0 CFG=1
M  V30 8 C 1.7326 0.9711 1.0963 0
M  V30 9 O -5.176 0.161 -0.8499 0
M  V30 10 C -5.8471 -1.5187 0.8287 0 CFG=2
M  V30 11 C 3.2668 1.0523 1.0812 0
M  V30 12 C -6.5628 0.401 -1.086 0 CFG=1
M  V30 13 O -5.7816 -2.5511 -0.1236 0
M  V30 14 C -7.2977 -0.9704 0.921 0 CFG=2
M  V30 15 C 3.9157 -0.1829 0.4329 0
M  V30 16 O -7.0236 -0.5408 -2.021 0
M  V30 17 C -7.4559 0.3762 0.1824 0 CFG=2
M  V30 18 O -7.7035 -0.8416 2.2615 0
M  V30 19 C 5.4365 -0.2314 0.6462 0
M  V30 20 O -8.8053 0.5705 -0.1559 0
M  V30 21 C 6.1766 0.8843 -0.1123 0
M  V30 22 C 7.7086 0.7049 -0.0625 0
M  V30 23 C 8.3018 0.1239 -1.3569 0
M  V30 24 C 7.8768 -1.3198 -1.6145 0
M  V30 25 H -0.8039 2.0806 -0.4277 0
M  V30 26 H -3.1708 -1.3301 1.4051 0
M  V30 27 H -3.3037 -1.6768 -0.3668 0
M  V30 28 H 1.4087 0.2292 -0.9403 0
M  V30 29 H 1.5016 2.0186 -0.7915 0
M  V30 30 H -4.9191 0.42 1.1911 0
M  V30 31 H 1.3475 1.8046 1.7237 0
M  V30 32 H 1.4125 0.0194 1.5722 0
M  V30 33 H -5.5345 -1.9173 1.8234 0
M  V30 34 H 3.5803 1.9749 0.5472 0
M  V30 35 H 3.6155 1.1347 2.1339 0
M  V30 36 H -6.638 1.4212 -1.5288 0
M  V30 37 H -6.1674 -3.3601 0.3033 0
M  V30 38 H -7.9822 -1.7073 0.4443 0
M  V30 39 H 3.4778 -1.1008 0.8827 0
M  V30 40 H 3.6985 -0.2034 -0.6563 0
M  V30 41 H -7.8031 -0.1368 -2.4846 0
M  V30 42 H -7.1277 1.2049 0.8535 0
M  V30 43 H -7.0658 -0.2271 2.7111 0
M  V30 44 H 5.6656 -0.1608 1.7322 0
M  V30 45 H 5.797 -1.2216 0.2984 0
M  V30 46 H -8.9023 1.525 -0.4118 0
M  V30 47 H 5.9267 1.8569 0.3639 0
M  V30 48 H 5.8222 0.9348 -1.1652 0
M  V30 49 H 8.17 1.7053 0.0898 0
M  V30 50 H 8.014 0.0834 0.808 0
M  V30 51 H 8.0129 0.7559 -2.2247 0
M  V30 52 H 9.4101 0.1525 -1.2774 0
M  V30 53 H 8.4442 -1.7224 -2.4798 0
M  V30 54 H 8.0898 -1.9525 -0.7268 0
M  V30 55 H 6.7954 -1.369 -1.8594 0
M  V30 END ATOM
M  V30 BEGIN BOND
M  V30 1 2 1 2
M  V30 2 1 2 3
M  V30 3 1 2 4
M  V30 4 1 3 5
M  V30 5 1 4 6
M  V30 6 1 5 7
M  V30 7 1 6 8
M  V30 8 1 7 9
M  V30 9 1 7 10
M  V30 10 1 8 11
M  V30 11 1 9 12
M  V30 12 1 10 13
M  V30 13 1 10 14
M  V30 14 1 11 15
M  V30 15 1 12 16
M  V30 16 1 12 17
M  V30 17 1 14 18
M  V30 18 1 15 19
M  V30 19 1 17 20
M  V30 20 1 19 21
M  V30 21 1 21 22
M  V30 22 1 22 23
M  V30 23 1 23 24
M  V30 24 1 14 17
M  V30 25 1 4 25
M  V30 26 1 5 26
M  V30 27 1 5 27
M  V30 28 1 6 28
M  V30 29 1 6 29
M  V30 30 1 7 30
M  V30 31 1 8 31
M  V30 32 1 8 32
M  V30 33 1 10 33
M  V30 34 1 11 34
M  V30 35 1 11 35
M  V30 36 1 12 36
M  V30 37 1 13 37
M  V30 38 1 14 38
M  V30 39 1 15 39
M  V30 40 1 15 40
M  V30 41 1 16 41
M  V30 42 1 17 42
M  V30 43 1 18 43
M  V30 44 1 19 44
M  V30 45 1 19 45
M  V30 46 1 20 46
M  V30 47 1 21 47
M  V30 48 1 21 48
M  V30 49 1 22 49
M  V30 50 1 22 50
M  V30 51 1 23 51
M  V30 52 1 23 52
M  V30 53 1 24 53
M  V30 54 1 24 54
M  V30 55 1 24 55
M  V30 END BOND
M  V30 BEGIN COLLECTION
M  V30 MDLV30/STEABS ATOMS=(5 7 10 12 14 17)
M  V30 END COLLECTION
M  V30 END CTAB
M  END
>  <Structure No>
8518

>  <LogS>
-2.96

>  <MMFF94 Energy>
8.8892

$$$$
Compound 8519
Actelion Java MolfileCreator 2.0

  0  0  0  0  0  0              0 V3000
M  V30 BEGIN CTAB
M  V30 COUNTS 58 58 0 0 0
M  V30 BEGIN ATOM
M  V30 1 O 1.7355 0.8674 0.3153 0
M  V30 2 C 1.967 0.1303 -0.6823 0
M  V30 3 O 2.948 -0.8649 -0.6168 0
M  V30 4 N 1.2198 0.2941 -1.8931 0
M  V30 5 C 3.787 -1.0704 0.5193 0
M  V30 6 C 0.1494 1.2795 -2.0465 0
M  V30 7 C 4.8813 0.0089 0.5911 0 CFG=2
M  V30 8 C -1.2247 0.6016 -2.0258 0
M  V30 9 O 5.5655 0.0161 -0.6573 0
M  V30 10 C 5.8576 -0.1868 1.8029 0 CFG=1
M  V30 11 C -1.5531 0.0075 -0.6463 0
M  V30 12 C 6.7004 0.8613 -0.6072 0 CFG=2
M  V30 13 O 5.3085 -0.9795 2.8298 0
M  V30 14 C 7.2158 -0.7312 1.3206 0 CFG=1
M  V30 15 C -2.914 -0.7061 -0.6195 0
M  V30 16 O 7.1782 1.0682 -1.9084 0
M  V30 17 C 7.8159 0.2083 0.246 0 CFG=2
M  V30 18 O 8.0891 -0.8688 2.412 0
M  V30 19 C -4.097 0.2736 -0.6443 0
M  V30 20 O 8.5879 1.2102 0.8588 0
M  V30 21 C -5.4294 -0.4699 -0.4908 0
M  V30 22 C -6.6117 0.5104 -0.5033 0
M  V30 23 C -7.9779 -0.1976 -0.5371 0
M  V30 24 C -8.281 -1.0772 0.6886 0
M  V30 25 C -8.328 -0.2865 1.9954 0
M  V30 26 H 1.4009 -0.3682 -2.6803 0
M  V30 27 H 3.1687 -1.073 1.4438 0
M  V30 28 H 4.2652 -2.0678 0.4175 0
M  V30 29 H 0.2793 1.7923 -3.0236 0
M  V30 30 H 0.2032 2.0612 -1.2577 0
M  V30 31 H 4.3639 0.9862 0.7216 0
M  V30 32 H -1.2524 -0.197 -2.799 0
M  V30 33 H -1.9836 1.3661 -2.2936 0
M  V30 34 H 6.048 0.8177 2.2431 0
M  V30 35 H -0.775 -0.7404 -0.3821 0
M  V30 36 H -1.5295 0.8055 0.1277 0
M  V30 37 H 6.4277 1.8548 -0.1713 0
M  V30 38 H 5.3777 -1.931 2.5562 0
M  V30 39 H 7.0399 -1.7328 0.8603 0
M  V30 40 H -2.967 -1.3061 0.3155 0
M  V30 41 H -2.9872 -1.4119 -1.4759 0
M  V30 42 H 6.4723 1.5739 -2.3893 0
M  V30 43 H 8.4718 -0.416 -0.4059 0
M  V30 44 H 8.8492 -1.4255 2.0988 0
M  V30 45 H -3.9891 1.0057 0.1861 0
M  V30 46 H -4.1047 0.8274 -1.6068 0
M  V30 47 H 9.1536 1.6096 0.1472 0
M  V30 48 H -5.4194 -1.0264 0.4705 0
M  V30 49 H -5.5417 -1.1976 -1.3244 0
M  V30 50 H -6.5515 1.1898 0.3731 0
M  V30 51 H -6.5415 1.1461 -1.413 0
M  V30 52 H -8.0332 -0.8305 -1.4495 0
M  V30 53 H -8.7735 0.5734 -0.6306 0
M  V30 54 H -9.2746 -1.5511 0.5346 0
M  V30 55 H -7.5406 -1.8998 0.7737 0
M  V30 56 H -8.7051 -0.9411 2.809 0
M  V30 57 H -7.3134 0.0624 2.2782 0
M  V30 58 H -9.0087 0.5858 1.8987 0
M  V30 END ATOM
M  V30 BEGIN BOND
M  V30 1 2 1 2
M  V30 2 1 2 3
M  V30 3 1 2 4
M  V30 4 1 3 5
M  V30 5 1 4 6
M  V30 6 1 5 7
M  V30 7 1 6 8
M  V30 8 1 7 9
M  V30 9 1 7 10
M  V30 10 1 8 11
M  V30 11 1 9 12
M  V30 12 1 10 13
M  V30 13 1 10 14
M  V30 14 1 11 15
M  V30 15 1 12 16
M  V30 16 1 12 17
M  V30 17 1 14 18
M  V30 18 1 15 19
M  V30 19 1 17 20
M  V30 20 1 19 21
M  V30 21 1 21 22
M  V30 22 1 22 23
M  V30 23 1 23 24
M  V30 24 1 24 25
M  V30 25 1 14 17
M  V30 26 1 4 26
M  V30 27 1 5 27
M  V30 28 1 5 28
M  V30 29 1 6 29
M  V30 30 1 6 30
M  V30 31 1 7 31
M  V30 32 1 8 32
M  V30 33 1 8 33
M  V30 34 1 10 34
M  V30 35 1 11 35
M  V30 36 1 11 36
M  V30 37 1 12 37
M  V30 38 1 13 38
M  V30 39 1 14 39
M  V30 40 1 15 40
M  V30 41 1 15 41
M  V30 42 1 16 42
M  V30 43 1 17 43
M  V30 44 1 18 44
M  V30 45 1 19 45
M  V30 46 1 19 46
M  V30 47 1 20 47
M  V30 48 1 21 48
M  V30 49 1 21 49
M  V30 50 1 22 50
M  V30 51 1 22 51
M  V30 52 1 23 52
M  V30 53 1 23 53
M  V30 54 1 24 54
M  V30 55 1 24 55
M  V30 56 1 25 56
M  V30 57 1 25 57
M  V30 58 1 25 58
M  V30 END BOND
M  V30 BEGIN COLLECTION
M  V30 MDLV30/STEABS ATOMS=(5 7 10 12 14 17)
M  V30 END COLLECTION
M  V30 END CTAB
M  END
>  <Structure No>
8519

>  <LogS>
-3.56

>  <MMFF94 Energy>
14.113

$$$$
Compound 8520
Actelion Java MolfileCreator 2.0

  0  0  0  0  0  0              0 V3000
M  V30 BEGIN CTAB
M  V30 COUNTS 47 50 0 0 0
M  V30 BEGIN ATOM
M  V30 1 O -2.4897 -3.6157 -1.7664 0
M  V30 2 C -2.291 -2.5053 -1.2022 0
M  V30 3 C -0.9897 -2.0167 -1.0039 0
M  V30 4 C -3.3812 -1.7472 -0.7766 0
M  V30 5 C -0.8334 -0.7613 -0.3761 0
M  V30 6 C 0.1442 -2.7308 -1.4198 0
M  V30 7 C -3.1558 -0.5051 -0.1609 0
M  V30 8 O -1.9076 -0.0733 0.0051 0
M  V30 9 C 0.4567 -0.2365 -0.1546 0
M  V30 10 C 1.4193 -2.2007 -1.2243 0
M  V30 11 N -4.2493 0.3219 0.2874 0
M  V30 12 C 1.5886 -0.9505 -0.5995 0
M  V30 13 C 0.6325 1.1169 0.4863 0
M  V30 14 C -4.1486 1.7783 0.1377 0
M  V30 15 C -5.5648 -0.2531 0.5955 0
M  V30 16 O 2.8618 -0.3885 -0.4072 0
M  V30 17 C -4.9921 2.4806 1.2054 0
M  V30 18 C -6.2951 0.6189 1.6223 0
M  V30 19 C 4.0833 -0.9677 -0.857 0
M  V30 20 O -6.3116 1.9733 1.2151 0
M  V30 21 C 5.221 -0.0649 -0.4798 0
M  V30 22 C 5.9811 -0.3191 0.6748 0
M  V30 23 C 5.4957 1.0788 -1.2477 0
M  V30 24 C 7.0162 0.5475 1.0406 0
M  V30 25 C 6.532 1.9425 -0.8783 0
M  V30 26 C 7.292 1.6769 0.2642 0
M  V30 27 H -4.3855 -2.1134 -0.9474 0
M  V30 28 H 0.0483 -3.6951 -1.9041 0
M  V30 29 H 2.2704 -2.7728 -1.5682 0
M  V30 30 H -0.2511 1.4044 1.0952 0
M  V30 31 H 0.7876 1.881 -0.3042 0
M  V30 32 H 1.5101 1.1143 1.1666 0
M  V30 33 H -4.5151 2.0648 -0.8718 0
M  V30 34 H -3.0955 2.1187 0.2394 0
M  V30 35 H -5.453 -1.2731 1.024 0
M  V30 36 H -6.1661 -0.3154 -0.3374 0
M  V30 37 H -5.0326 3.5655 0.9692 0
M  V30 38 H -4.5133 2.3823 2.2066 0
M  V30 39 H -7.3432 0.2638 1.7099 0
M  V30 40 H -5.8295 0.5069 2.6291 0
M  V30 41 H 4.2176 -1.97 -0.3958 0
M  V30 42 H 4.0559 -1.0902 -1.9615 0
M  V30 43 H 5.7742 -1.1866 1.2896 0
M  V30 44 H 4.9088 1.2999 -2.1309 0
M  V30 45 H 7.605 0.3436 1.9262 0
M  V30 46 H 6.7442 2.819 -1.4769 0
M  V30 47 H 8.0934 2.3466 0.5494 0
M  V30 END ATOM
M  V30 BEGIN BOND
M  V30 1 2 1 2
M  V30 2 1 2 3
M  V30 3 1 2 4
M  V30 4 2 3 5
M  V30 5 1 3 6
M  V30 6 2 4 7
M  V30 7 1 5 8
M  V30 8 1 5 9
M  V30 9 2 6 10
M  V30 10 1 7 11
M  V30 11 2 9 12
M  V30 12 1 9 13
M  V30 13 1 11 14
M  V30 14 1 11 15
M  V30 15 1 12 16
M  V30 16 1 14 17
M  V30 17 1 15 18
M  V30 18 1 16 19
M  V30 19 1 17 20
M  V30 20 1 19 21
M  V30 21 2 21 22
M  V30 22 1 21 23
M  V30 23 1 22 24
M  V30 24 2 23 25
M  V30 25 2 24 26
M  V30 26 1 7 8
M  V30 27 1 10 12
M  V30 28 1 18 20
M  V30 29 1 25 26
M  V30 30 1 4 27
M  V30 31 1 6 28
M  V30 32 1 10 29
M  V30 33 1 13 30
M  V30 34 1 13 31
M  V30 35 1 13 32
M  V30 36 1 14 33
M  V30 37 1 14 34
M  V30 38 1 15 35
M  V30 39 1 15 36
M  V30 40 1 17 37
M  V30 41 1 17 38
M  V30 42 1 18 39
M  V30 43 1 18 40
M  V30 44 1 19 41
M  V30 45 1 19 42
M  V30 46 1 22 43
M  V30 47 1 23 44
M  V30 48 1 24 45
M  V30 49 1 25 46
M  V30 50 1 26 47
M  V30 END BOND
M  V30 END CTAB
M  END
>  <Structure No>
8520

>  <LogS>
-5.16

>  <MMFF94 Energy>
119.12

$$$$
Compound 8521
Actelion Java MolfileCreator 2.0

  0  0  0  0  0  0              0 V3000
M  V30 BEGIN CTAB
M  V30 COUNTS 46 49 0 0 0
M  V30 BEGIN ATOM
M  V30 1 O -0.8844 -0.8844 -3.8638 0
M  V30 2 C -1.0913 -0.5463 -2.6662 0
M  V30 3 C -0.2246 -0.9521 -1.6394 0
M  V30 4 C -2.1955 0.2475 -2.3584 0
M  V30 5 C -0.5069 -0.5361 -0.3199 0
M  V30 6 C 0.9058 -1.7429 -1.8901 0
M  V30 7 C -2.4216 0.6255 -1.0231 0
M  V30 8 O -1.5734 0.2235 -0.0786 0
M  V30 9 C 0.3384 -0.9225 0.7405 0
M  V30 10 C 1.755 -2.1062 -0.8455 0
M  V30 11 N -3.5482 1.4488 -0.6495 0
M  V30 12 C 1.4907 -1.6912 0.4735 0
M  V30 13 C 0.0609 -0.4478 2.1446 0
M  V30 14 C -4.7108 1.6012 -1.5358 0
M  V30 15 C -3.3978 2.3901 0.4677 0
M  V30 16 O 2.3461 -2.0216 1.5406 0
M  V30 17 C -5.9588 1.9668 -0.7259 0
M  V30 18 C -4.7567 2.6797 1.11 0
M  V30 19 C 3.6119 -2.6716 1.421 0
M  V30 20 O -5.7023 3.0608 0.1313 0
M  V30 21 C 4.6127 -1.7703 0.7591 0
M  V30 22 N 5.2893 -2.203 -0.3407 0
M  V30 23 C 4.8686 -0.4901 1.2716 0
M  V30 24 C 6.2064 -1.4223 -0.9719 0
M  V30 25 C 5.8061 0.3266 0.6362 0
M  V30 26 C 6.4804 -0.139 -0.4937 0
M  V30 27 H -2.8483 0.5788 -3.1555 0
M  V30 28 H 1.1407 -2.0755 -2.8938 0
M  V30 29 H 2.6185 -2.7116 -1.079 0
M  V30 30 H 0.6282 0.4867 2.3362 0
M  V30 31 H 0.3627 -1.215 2.8884 0
M  V30 32 H -1.0206 -0.2521 2.3016 0
M  V30 33 H -4.502 2.4 -2.28 0
M  V30 34 H -4.9184 0.6502 -2.0721 0
M  V30 35 H -2.9588 3.3373 0.0867 0
M  V30 36 H -2.7221 1.9796 1.2487 0
M  V30 37 H -6.7682 2.2526 -1.4303 0
M  V30 38 H -6.325 1.0831 -0.154 0
M  V30 39 H -4.6383 3.5162 1.8309 0
M  V30 40 H -5.1091 1.7974 1.6924 0
M  V30 41 H 3.9793 -2.9185 2.4388 0
M  V30 42 H 3.5019 -3.6294 0.8685 0
M  V30 43 H 4.3456 -0.1299 2.1489 0
M  V30 44 H 6.723 -1.798 -1.8449 0
M  V30 45 H 6.0099 1.318 1.0194 0
M  V30 46 H 7.209 0.4867 -0.9924 0
M  V30 END ATOM
M  V30 BEGIN BOND
M  V30 1 2 1 2
M  V30 2 1 2 3
M  V30 3 1 2 4
M  V30 4 2 3 5
M  V30 5 1 3 6
M  V30 6 2 4 7
M  V30 7 1 5 8
M  V30 8 1 5 9
M  V30 9 2 6 10
M  V30 10 1 7 11
M  V30 11 2 9 12
M  V30 12 1 9 13
M  V30 13 1 11 14
M  V30 14 1 11 15
M  V30 15 1 12 16
M  V30 16 1 14 17
M  V30 17 1 15 18
M  V30 18 1 16 19
M  V30 19 1 17 20
M  V30 20 1 19 21
M  V30 21 2 21 22
M  V30 22 1 21 23
M  V30 23 1 22 24
M  V30 24 2 23 25
M  V30 25 2 24 26
M  V30 26 1 7 8
M  V30 27 1 10 12
M  V30 28 1 18 20
M  V30 29 1 25 26
M  V30 30 1 4 27
M  V30 31 1 6 28
M  V30 32 1 10 29
M  V30 33 1 13 30
M  V30 34 1 13 31
M  V30 35 1 13 32
M  V30 36 1 14 33
M  V30 37 1 14 34
M  V30 38 1 15 35
M  V30 39 1 15 36
M  V30 40 1 17 37
M  V30 41 1 17 38
M  V30 42 1 18 39
M  V30 43 1 18 40
M  V30 44 1 19 41
M  V30 45 1 19 42
M  V30 46 1 23 43
M  V30 47 1 24 44
M  V30 48 1 25 45
M  V30 49 1 26 46
M  V30 END BOND
M  V30 END CTAB
M  END
>  <Structure No>
8521

>  <LogS>
-4.45

>  <MMFF94 Energy>
126.44

$$$$
Compound 8522
Actelion Java MolfileCreator 2.0

  0  0  0  0  0  0              0 V3000
M  V30 BEGIN CTAB
M  V30 COUNTS 31 31 0 0 0
M  V30 BEGIN ATOM
M  V30 1 O 0.3969 -1.4294 -1.2705 0
M  V30 2 C 0.5094 -0.6377 -0.2946 0
M  V30 3 N 1.8234 -0.1856 0.0969 0
M  V30 4 C -0.746 -0.1255 0.4079 0
M  V30 5 C 1.9836 0.7345 1.1941 0
M  V30 6 C 2.9934 -0.5728 -0.7021 0
M  V30 7 C -0.3691 0.1733 1.8903 0
M  V30 8 C -1.2975 1.1817 -0.266 0
M  V30 9 C -1.8484 -1.2432 0.4726 0
M  V30 10 O 3.1054 1.2648 1.4193 0
M  V30 11 C 0.8302 1.1126 2.0694 0
M  V30 12 O 3.1413 0.3181 -1.7717 0
M  V30 13 C -1.1059 1.2819 -1.7862 0
M  V30 14 C -2.6283 -1.5375 -0.8146 0
M  V30 15 H 2.8745 -1.6108 -1.0856 0
M  V30 16 H 3.913 -0.5689 -0.075 0
M  V30 17 H -1.2402 0.6155 2.4232 0
M  V30 18 H -0.1247 -0.7823 2.408 0
M  V30 19 H -0.8105 2.083 0.153 0
M  V30 20 H -2.3773 1.2987 -0.0293 0
M  V30 21 H -1.3856 -2.1943 0.8186 0
M  V30 22 H -2.607 -0.9673 1.2392 0
M  V30 23 H 0.5475 2.166 1.869 0
M  V30 24 H 1.1564 1.0677 3.1313 0
M  V30 25 H 3.9373 0.0109 -2.2784 0
M  V30 26 H -1.6303 2.1853 -2.1632 0
M  V30 27 H -1.5122 0.4019 -2.3184 0
M  V30 28 H -0.028 1.3864 -2.0328 0
M  V30 29 H -3.2406 -0.6635 -1.1165 0
M  V30 30 H -1.9635 -1.8408 -1.6456 0
M  V30 31 H -3.3277 -2.3793 -0.6261 0
M  V30 END ATOM
M  V30 BEGIN BOND
M  V30 1 2 1 2
M  V30 2 1 2 3
M  V30 3 1 2 4
M  V30 4 1 3 5
M  V30 5 1 3 6
M  V30 6 1 4 7
M  V30 7 1 4 8
M  V30 8 1 4 9
M  V30 9 2 5 10
M  V30 10 1 5 11
M  V30 11 1 6 12
M  V30 12 1 8 13
M  V30 13 1 9 14
M  V30 14 1 7 11
M  V30 15 1 6 15
M  V30 16 1 6 16
M  V30 17 1 7 17
M  V30 18 1 7 18
M  V30 19 1 8 19
M  V30 20 1 8 20
M  V30 21 1 9 21
M  V30 22 1 9 22
M  V30 23 1 11 23
M  V30 24 1 11 24
M  V30 25 1 12 25
M  V30 26 1 13 26
M  V30 27 1 13 27
M  V30 28 1 13 28
M  V30 29 1 14 29
M  V30 30 1 14 30
M  V30 31 1 14 31
M  V30 END BOND
M  V30 END CTAB
M  END
>  <Structure No>
8522

>  <LogS>
-3.96

>  <MMFF94 Energy>
-49.915

$$$$
Compound 8523
Actelion Java MolfileCreator 2.0

  0  0  0  0  0  0              0 V3000
M  V30 BEGIN CTAB
M  V30 COUNTS 29 29 0 0 0
M  V30 BEGIN ATOM
M  V30 1 O 3.5939 -1.0372 -0.4786 0
M  V30 2 C 2.3978 -0.9121 -0.1004 0
M  V30 3 N 1.9645 0.2715 0.5881 0
M  V30 4 N 1.473 -1.9708 -0.3347 0
M  V30 5 C 0.5632 0.4378 0.8847 0
M  V30 6 C 2.918 1.3423 0.91 0
M  V30 7 C 0.0843 -1.8036 -0.0411 0
M  V30 8 O 0.2069 1.3555 1.6759 0
M  V30 9 C -0.4953 -0.4073 0.1718 0
M  V30 10 O 2.8383 2.3578 -0.0509 0
M  V30 11 O -0.6567 -2.8223 -0.0422 0
M  V30 12 C -1.7954 -0.4775 1.0522 0
M  V30 13 C -0.758 0.2137 -1.232 0
M  V30 14 C -3.0584 -1.0133 0.3582 0
M  V30 15 C -1.2665 1.6606 -1.2067 0
M  V30 16 H 1.8204 -2.8906 -0.6889 0
M  V30 17 H 2.6875 1.7721 1.9078 0
M  V30 18 H 3.9588 0.9527 0.9732 0
M  V30 19 H 3.2108 1.9784 -0.889 0
M  V30 20 H -1.5925 -1.1043 1.9486 0
M  V30 21 H -2.0606 0.5319 1.4332 0
M  V30 22 H 0.1847 0.2023 -1.8233 0
M  V30 23 H -1.4827 -0.4108 -1.7975 0
M  V30 24 H -3.8687 -1.1149 1.1107 0
M  V30 25 H -3.4144 -0.3071 -0.419 0
M  V30 26 H -2.9017 -2.0056 -0.1038 0
M  V30 27 H -0.5029 2.3381 -0.7712 0
M  V30 28 H -1.4673 1.9954 -2.246 0
M  V30 29 H -2.208 1.7499 -0.6287 0
M  V30 END ATOM
M  V30 BEGIN BOND
M  V30 1 2 1 2
M  V30 2 1 2 3
M  V30 3 1 2 4
M  V30 4 1 3 5
M  V30 5 1 3 6
M  V30 6 1 4 7
M  V30 7 2 5 8
M  V30 8 1 5 9
M  V30 9 1 6 10
M  V30 10 2 7 11
M  V30 11 1 9 12
M  V30 12 1 9 13
M  V30 13 1 12 14
M  V30 14 1 13 15
M  V30 15 1 7 9
M  V30 16 1 4 16
M  V30 17 1 6 17
M  V30 18 1 6 18
M  V30 19 1 10 19
M  V30 20 1 12 20
M  V30 21 1 12 21
M  V30 22 1 13 22
M  V30 23 1 13 23
M  V30 24 1 14 24
M  V30 25 1 14 25
M  V30 26 1 14 26
M  V30 27 1 15 27
M  V30 28 1 15 28
M  V30 29 1 15 29
M  V30 END BOND
M  V30 END CTAB
M  END
>  <Structure No>
8523

>  <LogS>
-3.93

>  <MMFF94 Energy>
-142.08

$$$$
Compound 8524
Actelion Java MolfileCreator 2.0

  0  0  0  0  0  0              0 V3000
M  V30 BEGIN CTAB
M  V30 COUNTS 32 33 0 0 0
M  V30 BEGIN ATOM
M  V30 1 O -3.7192 1.8978 1.2649 0
M  V30 2 C -3.278 1.3831 0.0382 0
M  V30 3 C -2.042 0.489 0.2553 0
M  V30 4 C -1.6855 -0.2456 -1.0559 0
M  V30 5 C -0.8347 1.324 0.769 0
M  V30 6 O -2.6988 -1.1461 -1.4159 0
M  V30 7 C -0.0165 0.6025 1.8519 0
M  V30 8 N 0.6337 -0.5965 1.3281 0
M  V30 9 C 1.7145 -0.6785 0.544 0
M  V30 10 C 0.255 -1.8899 1.4978 0
M  V30 11 N 2.4684 0.3377 0.0601 0
M  V30 12 C 1.9671 -1.9752 0.2594 0
M  V30 13 N 1.0599 -2.7768 0.8483 0
M  V30 14 C 3.5293 0.0209 -0.7441 0
M  V30 15 C 3.037 -2.3109 -0.5548 0
M  V30 16 N 3.8039 -1.2912 -1.0437 0
M  V30 17 N 4.3511 1.0574 -1.2752 0
M  V30 18 H -4.4953 2.4805 1.0565 0
M  V30 19 H -3.0232 2.2182 -0.6535 0
M  V30 20 H -4.1007 0.7873 -0.4169 0
M  V30 21 H -2.3166 -0.2744 1.0178 0
M  V30 22 H -1.5579 0.4922 -1.877 0
M  V30 23 H -0.7225 -0.7909 -0.9594 0
M  V30 24 H -1.1879 2.2763 1.2214 0
M  V30 25 H -0.1678 1.6162 -0.0718 0
M  V30 26 H -2.6118 -1.9277 -0.8099 0
M  V30 27 H -0.6746 0.3359 2.7077 0
M  V30 28 H 0.7611 1.2961 2.2393 0
M  V30 29 H -0.6057 -2.1899 2.0813 0
M  V30 30 H 3.2602 -3.3404 -0.8007 0
M  V30 31 H 5.1622 0.8257 -1.8905 0
M  V30 32 H 4.1491 2.0577 -1.0541 0
M  V30 END ATOM
M  V30 BEGIN BOND
M  V30 1 1 1 2
M  V30 2 1 2 3
M  V30 3 1 3 4
M  V30 4 1 3 5
M  V30 5 1 4 6
M  V30 6 1 5 7
M  V30 7 1 7 8
M  V30 8 1 8 9
M  V30 9 1 8 10
M  V30 10 2 9 11
M  V30 11 1 9 12
M  V30 12 2 10 13
M  V30 13 1 11 14
M  V30 14 2 12 15
M  V30 15 2 14 16
M  V30 16 1 14 17
M  V30 17 1 12 13
M  V30 18 1 15 16
M  V30 19 1 1 18
M  V30 20 1 2 19
M  V30 21 1 2 20
M  V30 22 1 3 21
M  V30 23 1 4 22
M  V30 24 1 4 23
M  V30 25 1 5 24
M  V30 26 1 5 25
M  V30 27 1 6 26
M  V30 28 1 7 27
M  V30 29 1 7 28
M  V30 30 1 10 29
M  V30 31 1 15 30
M  V30 32 1 17 31
M  V30 33 1 17 32
M  V30 END BOND
M  V30 END CTAB
M  END
>  <Structure No>
8524

>  <LogS>
-0.3

>  <MMFF94 Energy>
-47.764

$$$$
Compound 8525
Actelion Java MolfileCreator 2.0

  0  0  0  0  0  0              0 V3000
M  V30 BEGIN CTAB
M  V30 COUNTS 36 38 0 0 0
M  V30 BEGIN ATOM
M  V30 1 S 3.6723 2.6104 0.8152 0
M  V30 2 C 3.0662 1.0975 0.3918 0
M  V30 3 C 5.0897 2.5114 -0.0825 0
M  V30 4 C 1.8251 0.5129 0.9247 0
M  V30 5 C 3.9858 0.4859 -0.4419 0
M  V30 6 C 5.1151 1.275 -0.7127 0
M  V30 7 O 1.4432 0.9252 2.0544 0
M  V30 8 C 0.9691 -0.4707 0.1848 0
M  V30 9 C 3.8131 -0.9043 -0.9305 0
M  V30 10 C 1.3264 -1.0889 -1.0511 0
M  V30 11 C -0.3201 -0.7274 0.7054 0
M  V30 12 O 2.5922 -1.0041 -1.6445 0
M  V30 13 C 0.3774 -1.8507 -1.7437 0
M  V30 14 C -1.2447 -1.5258 0.0176 0
M  V30 15 C -0.8923 -2.0707 -1.2185 0
M  V30 16 C -2.6284 -1.7498 0.5758 0
M  V30 17 C -3.6854 -0.8716 -0.1162 0
M  V30 18 C -3.4727 0.6415 0.0706 0
M  V30 19 C -3.7017 1.1006 1.5157 0
M  V30 20 O -3.6023 2.4963 1.5994 0
M  V30 21 H 5.8585 3.2695 -0.1449 0
M  V30 22 H 5.9377 0.9502 -1.3364 0
M  V30 23 H 3.8203 -1.6162 -0.0765 0
M  V30 24 H 4.645 -1.1759 -1.6142 0
M  V30 25 H -0.629 -0.279 1.6416 0
M  V30 26 H 0.6398 -2.3014 -2.6929 0
M  V30 27 H -1.6002 -2.674 -1.7737 0
M  V30 28 H -2.6453 -1.5826 1.6736 0
M  V30 29 H -2.9054 -2.816 0.425 0
M  V30 30 H -4.691 -1.1496 0.2681 0
M  V30 31 H -3.6837 -1.0974 -1.205 0
M  V30 32 H -4.1966 1.1717 -0.5857 0
M  V30 33 H -2.454 0.9352 -0.2609 0
M  V30 34 H -4.7002 0.7636 1.8772 0
M  V30 35 H -2.9297 0.6613 2.1795 0
M  V30 36 H -4.4535 2.8644 1.2443 0
M  V30 END ATOM
M  V30 BEGIN BOND
M  V30 1 1 1 2
M  V30 2 1 1 3
M  V30 3 1 2 4
M  V30 4 2 2 5
M  V30 5 2 3 6
M  V30 6 2 4 7
M  V30 7 1 4 8
M  V30 8 1 5 9
M  V30 9 2 8 10
M  V30 10 1 8 11
M  V30 11 1 9 12
M  V30 12 1 10 13
M  V30 13 2 11 14
M  V30 14 2 13 15
M  V30 15 1 14 16
M  V30 16 1 16 17
M  V30 17 1 17 18
M  V30 18 1 18 19
M  V30 19 1 19 20
M  V30 20 1 5 6
M  V30 21 1 10 12
M  V30 22 1 14 15
M  V30 23 1 3 21
M  V30 24 1 6 22
M  V30 25 1 9 23
M  V30 26 1 9 24
M  V30 27 1 11 25
M  V30 28 1 13 26
M  V30 29 1 15 27
M  V30 30 1 16 28
M  V30 31 1 16 29
M  V30 32 1 17 30
M  V30 33 1 17 31
M  V30 34 1 18 32
M  V30 35 1 18 33
M  V30 36 1 19 34
M  V30 37 1 19 35
M  V30 38 1 20 36
M  V30 END BOND
M  V30 END CTAB
M  END
>  <Structure No>
8525

>  <LogS>
-3.92

>  <MMFF94 Energy>
74.516

$$$$
Compound 8526
Actelion Java MolfileCreator 2.0

  0  0  0  0  0  0              0 V3000
M  V30 BEGIN CTAB
M  V30 COUNTS 26 27 0 0 0
M  V30 BEGIN ATOM
M  V30 1 S 4.6436 1.546 -1.2204 0
M  V30 2 C 4.3952 -0.2098 -0.8226 0
M  V30 3 C 2.9327 -0.5013 -0.7052 0
M  V30 4 O 2.3153 -0.9732 -1.698 0
M  V30 5 N 2.2457 -0.2425 0.5296 0
M  V30 6 C 0.8153 -0.2592 0.6742 0
M  V30 7 C -0.0294 0.2064 -0.3495 0
M  V30 8 C 0.2538 -0.6915 1.8845 0
M  V30 9 C -1.4224 0.2025 -0.178 0
M  V30 10 C -1.1316 -0.7 2.0649 0
M  V30 11 C -1.9788 -0.2587 1.0393 0
M  V30 12 C -2.2707 0.6574 -1.2 0
M  V30 13 C -3.3721 -0.2616 1.2099 0
M  V30 14 C -3.6567 0.6492 -1.0176 0
M  V30 15 C -4.2055 0.1906 0.1829 0
M  V30 16 H 4.1531 1.9804 0.0262 0
M  V30 17 H 4.8433 -0.8285 -1.6289 0
M  V30 18 H 4.9126 -0.451 0.1297 0
M  V30 19 H 2.824 -0.1114 1.3904 0
M  V30 20 H 0.3943 0.595 -1.267 0
M  V30 21 H 0.8941 -1.0338 2.688 0
M  V30 22 H -1.5399 -1.0489 3.006 0
M  V30 23 H -1.8635 1.0163 -2.1377 0
M  V30 24 H -3.8149 -0.6109 2.1351 0
M  V30 25 H -4.3071 0.9994 -1.8086 0
M  V30 26 H -5.2794 0.187 0.3184 0
M  V30 END ATOM
M  V30 BEGIN BOND
M  V30 1 1 1 2
M  V30 2 1 2 3
M  V30 3 2 3 4
M  V30 4 1 3 5
M  V30 5 1 5 6
M  V30 6 2 6 7
M  V30 7 1 6 8
M  V30 8 1 7 9
M  V30 9 2 8 10
M  V30 10 1 9 11
M  V30 11 2 9 12
M  V30 12 2 11 13
M  V30 13 1 12 14
M  V30 14 1 13 15
M  V30 15 1 10 11
M  V30 16 2 14 15
M  V30 17 1 1 16
M  V30 18 1 2 17
M  V30 19 1 2 18
M  V30 20 1 5 19
M  V30 21 1 7 20
M  V30 22 1 8 21
M  V30 23 1 10 22
M  V30 24 1 12 23
M  V30 25 1 13 24
M  V30 26 1 14 25
M  V30 27 1 15 26
M  V30 END BOND
M  V30 END CTAB
M  END
>  <Structure No>
8526

>  <LogS>
-3.34

>  <MMFF94 Energy>
36.76

$$$$
Compound 8527
Actelion Java MolfileCreator 2.0

  0  0  0  0  0  0              0 V3000
M  V30 BEGIN CTAB
M  V30 COUNTS 20 20 0 0 0
M  V30 BEGIN ATOM
M  V30 1 O -2.5847 -2.9082 -1.5341 0
M  V30 2 C -1.8588 -1.978 -1.0957 0
M  V30 3 N -1.6571 -1.8255 0.3048 0
M  V30 4 N -1.2517 -1.067 -2.0008 0 CHG=-1
M  V30 5 C -0.8097 -0.7963 0.825 0
M  V30 6 C -0.4001 -0.0165 -1.5442 0
M  V30 7 O -0.7001 -0.683 2.0768 0
M  V30 8 C 0.0143 0.1089 -0.0836 0
M  V30 9 O 0.0492 0.8013 -2.3922 0
M  V30 10 C -0.2021 1.5539 0.3594 0
M  V30 11 C 1.4749 -0.3112 0.0232 0
M  V30 12 C 0.3675 2.0808 1.4521 0
M  V30 13 C 2.4833 0.4254 -0.4622 0
M  V30 14 H -2.1457 -2.4713 0.9654 0
M  V30 15 H -0.9087 2.1732 -0.188 0
M  V30 16 H 1.719 -1.2768 0.4594 0
M  V30 17 H 1.0488 1.5024 2.0681 0
M  V30 18 H 0.1476 3.1042 1.738 0
M  V30 19 H 2.3029 1.3856 -0.9347 0
M  V30 20 H 3.5039 0.0652 -0.3846 0
M  V30 END ATOM
M  V30 BEGIN BOND
M  V30 1 2 1 2
M  V30 2 1 2 3
M  V30 3 1 2 4
M  V30 4 1 3 5
M  V30 5 1 4 6
M  V30 6 2 5 7
M  V30 7 1 5 8
M  V30 8 2 6 9
M  V30 9 1 8 10
M  V30 10 1 8 11
M  V30 11 2 10 12
M  V30 12 2 11 13
M  V30 13 1 6 8
M  V30 14 1 3 14
M  V30 15 1 10 15
M  V30 16 1 11 16
M  V30 17 1 12 17
M  V30 18 1 12 18
M  V30 19 1 13 19
M  V30 20 1 13 20
M  V30 END BOND
M  V30 END CTAB
M  END
>  <Structure No>
8527

>  <LogS>
-2.06

>  <MMFF94 Energy>
45.154

$$$$
Compound 8528
Actelion Java MolfileCreator 2.0

  0  0  0  0  0  0              0 V3000
M  V30 BEGIN CTAB
M  V30 COUNTS 26 26 0 0 0
M  V30 BEGIN ATOM
M  V30 1 O 3.1163 -2.7164 -0.3991 0
M  V30 2 C 2.3303 -1.7345 -0.3315 0
M  V30 3 N 1.508 -1.4021 -1.4438 0
M  V30 4 N 2.2776 -0.9434 0.85 0
M  V30 5 C 0.6064 -0.2935 -1.3917 0
M  V30 6 C 1.3502 0.138 0.9819 0
M  V30 7 O 0.0289 0.0608 -2.4562 0
M  V30 8 C 0.2882 0.4279 -0.0799 0
M  V30 9 O 1.371 0.818 2.0442 0
M  V30 10 C 0.3167 1.9338 -0.3626 0
M  V30 11 C -1.1163 -0.0434 0.4587 0
M  V30 12 C -0.1141 2.8658 0.4997 0
M  V30 13 C -2.2943 0.3459 -0.4565 0
M  V30 14 C -1.1706 -1.5592 0.7347 0
M  V30 15 H 1.6017 -1.947 -2.3304 0
M  V30 16 H 2.9289 -1.159 1.6385 0
M  V30 17 H 0.7449 2.2897 -1.2967 0
M  V30 18 H -1.3006 0.4512 1.4374 0
M  V30 19 H -0.5305 2.6042 1.4656 0
M  V30 20 H -0.0454 3.9164 0.2371 0
M  V30 21 H -2.2696 -0.2231 -1.4086 0
M  V30 22 H -3.256 0.1183 0.0512 0
M  V30 23 H -2.2892 1.4316 -0.683 0
M  V30 24 H -1.0327 -2.141 -0.2009 0
M  V30 25 H -2.1547 -1.8321 1.1727 0
M  V30 26 H -0.3892 -1.8577 1.4636 0
M  V30 END ATOM
M  V30 BEGIN BOND
M  V30 1 2 1 2
M  V30 2 1 2 3
M  V30 3 1 2 4
M  V30 4 1 3 5
M  V30 5 1 4 6
M  V30 6 2 5 7
M  V30 7 1 5 8
M  V30 8 2 6 9
M  V30 9 1 8 10
M  V30 10 1 8 11
M  V30 11 2 10 12
M  V30 12 1 11 13
M  V30 13 1 11 14
M  V30 14 1 6 8
M  V30 15 1 3 15
M  V30 16 1 4 16
M  V30 17 1 10 17
M  V30 18 1 11 18
M  V30 19 1 12 19
M  V30 20 1 12 20
M  V30 21 1 13 21
M  V30 22 1 13 22
M  V30 23 1 13 23
M  V30 24 1 14 24
M  V30 25 1 14 25
M  V30 26 1 14 26
M  V30 END BOND
M  V30 END CTAB
M  END
>  <Structure No>
8528

>  <LogS>
-1.71

>  <MMFF94 Energy>
-76.745

$$$$
Compound 8529
Actelion Java MolfileCreator 2.0

  0  0  0  0  0  0              0 V3000
M  V30 BEGIN CTAB
M  V30 COUNTS 29 29 0 0 0
M  V30 BEGIN ATOM
M  V30 1 O -2.6306 3.349 -0.3982 0
M  V30 2 C -2.151 2.1916 -0.2706 0
M  V30 3 N -1.2088 1.6989 -1.2203 0
M  V30 4 N -2.5764 1.3543 0.8031 0
M  V30 5 C -0.6619 0.3858 -1.0748 0
M  V30 6 C -1.9736 0.0725 1.0139 0
M  V30 7 O -0.1168 -0.1619 -2.072 0
M  V30 8 C -0.7015 -0.325 0.2718 0
M  V30 9 O -2.4472 -0.6834 1.9067 0
M  V30 10 C -0.7159 -1.8406 0.0854 0
M  V30 11 C 0.4945 0.1174 1.1805 0
M  V30 12 C -1.6042 -2.4609 -0.7027 0
M  V30 13 C 1.9504 0.1164 0.6239 0
M  V30 14 C 2.3924 -1.2111 -8.0E-4 0
M  V30 15 C 2.2592 1.3035 -0.3027 0
M  V30 16 H -0.9923 2.2603 -2.0745 0
M  V30 17 H -3.3485 1.6727 1.4312 0
M  V30 18 H -0.0409 -2.4609 0.6657 0
M  V30 19 H 0.2946 1.1468 1.5564 0
M  V30 20 H 0.4875 -0.5218 2.0925 0
M  V30 21 H -1.6021 -3.5435 -0.7761 0
M  V30 22 H -2.3386 -1.8981 -1.2708 0
M  V30 23 H 2.6027 0.2636 1.5145 0
M  V30 24 H 1.8224 -1.4341 -0.9245 0
M  V30 25 H 2.2635 -2.0389 0.7274 0
M  V30 26 H 3.4702 -1.1622 -0.2656 0
M  V30 27 H 3.3591 1.4456 -0.3704 0
M  V30 28 H 1.8872 1.1368 -1.3311 0
M  V30 29 H 1.8198 2.2419 0.0971 0
M  V30 END ATOM
M  V30 BEGIN BOND
M  V30 1 2 1 2
M  V30 2 1 2 3
M  V30 3 1 2 4
M  V30 4 1 3 5
M  V30 5 1 4 6
M  V30 6 2 5 7
M  V30 7 1 5 8
M  V30 8 2 6 9
M  V30 9 1 8 10
M  V30 10 1 8 11
M  V30 11 2 10 12
M  V30 12 1 11 13
M  V30 13 1 13 14
M  V30 14 1 13 15
M  V30 15 1 6 8
M  V30 16 1 3 16
M  V30 17 1 4 17
M  V30 18 1 10 18
M  V30 19 1 11 19
M  V30 20 1 11 20
M  V30 21 1 12 21
M  V30 22 1 12 22
M  V30 23 1 13 23
M  V30 24 1 14 24
M  V30 25 1 14 25
M  V30 26 1 14 26
M  V30 27 1 15 27
M  V30 28 1 15 28
M  V30 29 1 15 29
M  V30 END BOND
M  V30 END CTAB
M  END
>  <Structure No>
8529

>  <LogS>
-2.12

>  <MMFF94 Energy>
-74.653

$$$$
Compound 8530
Actelion Java MolfileCreator 2.0

  0  0  0  0  0  0              0 V3000
M  V30 BEGIN CTAB
M  V30 COUNTS 46 48 0 0 0
M  V30 BEGIN ATOM
M  V30 1 O 0.4011 3.6948 -1.3642 0
M  V30 2 C 0.0716 2.48 -1.325 0
M  V30 3 N 0.8119 1.4439 -1.9439 0
M  V30 4 N -1.0794 2.0071 -0.6409 0
M  V30 5 C 0.1085 0.26 -1.5857 0
M  V30 6 C 2.2022 1.5071 -2.3873 0
M  V30 7 C -1.1242 0.5452 -0.7534 0
M  V30 8 O 0.5048 -0.8938 -1.904 0
M  V30 9 O 3.0462 0.8687 -1.433 0
M  V30 10 C -0.9606 -0.135 0.6073 0
M  V30 11 C -2.438 0.1534 -1.4321 0
M  V30 12 C 3.2977 1.3916 -0.161 0
M  V30 13 C -1.1078 -1.534 0.7065 0
M  V30 14 C -0.6097 0.587 1.7689 0
M  V30 15 C -3.6381 0.2138 -0.6934 0
M  V30 16 C -2.5116 -0.1832 -2.8023 0
M  V30 17 O 2.9258 2.5577 0.1436 0
M  V30 18 C 3.9611 0.5316 0.8657 0
M  V30 19 C -0.9281 -2.1862 1.9293 0
M  V30 20 C -0.438 -0.0715 2.9904 0
M  V30 21 C -4.8617 -0.1018 -1.2897 0
M  V30 22 C -3.7395 -0.498 -3.3925 0
M  V30 23 C 2.9058 -0.1521 1.7386 0
M  V30 24 C -0.5949 -1.4556 3.0703 0
M  V30 25 C -4.9119 -0.4627 -2.6364 0
M  V30 26 C 3.5478 -1.0855 2.7592 0
M  V30 27 H -1.7751 2.6074 -0.1433 0
M  V30 28 H 2.5199 2.5604 -2.5446 0
M  V30 29 H 2.2946 0.973 -3.3555 0
M  V30 30 H -1.3596 -2.1214 -0.1674 0
M  V30 31 H -0.4563 1.657 1.7419 0
M  V30 32 H -3.6265 0.5074 0.3489 0
M  V30 33 H -1.6295 -0.2 -3.427 0
M  V30 34 H 4.6293 1.1569 1.4974 0
M  V30 35 H 4.5816 -0.2344 0.3522 0
M  V30 36 H -1.0447 -3.2604 1.9908 0
M  V30 37 H -0.1693 0.4923 3.8744 0
M  V30 38 H -5.7733 -0.0605 -0.7073 0
M  V30 39 H -3.7822 -0.7634 -4.4409 0
M  V30 40 H 2.3189 0.6208 2.2805 0
M  V30 41 H 2.2111 -0.7411 1.0996 0
M  V30 42 H -0.4532 -1.9626 4.0158 0
M  V30 43 H -5.8609 -0.7048 -3.097 0
M  V30 44 H 4.1203 -1.8856 2.2435 0
M  V30 45 H 2.7562 -1.558 3.3786 0
M  V30 46 H 4.2299 -0.517 3.4266 0
M  V30 END ATOM
M  V30 BEGIN BOND
M  V30 1 2 1 2
M  V30 2 1 2 3
M  V30 3 1 2 4
M  V30 4 1 3 5
M  V30 5 1 3 6
M  V30 6 1 4 7
M  V30 7 2 5 8
M  V30 8 1 6 9
M  V30 9 1 7 10
M  V30 10 1 7 11
M  V30 11 1 9 12
M  V30 12 2 10 13
M  V30 13 1 10 14
M  V30 14 2 11 15
M  V30 15 1 11 16
M  V30 16 2 12 17
M  V30 17 1 12 18
M  V30 18 1 13 19
M  V30 19 2 14 20
M  V30 20 1 15 21
M  V30 21 2 16 22
M  V30 22 1 18 23
M  V30 23 2 19 24
M  V30 24 2 21 25
M  V30 25 1 23 26
M  V30 26 1 5 7
M  V30 27 1 20 24
M  V30 28 1 22 25
M  V30 29 1 4 27
M  V30 30 1 6 28
M  V30 31 1 6 29
M  V30 32 1 13 30
M  V30 33 1 14 31
M  V30 34 1 15 32
M  V30 35 1 16 33
M  V30 36 1 18 34
M  V30 37 1 18 35
M  V30 38 1 19 36
M  V30 39 1 20 37
M  V30 40 1 21 38
M  V30 41 1 22 39
M  V30 42 1 23 40
M  V30 43 1 23 41
M  V30 44 1 24 42
M  V30 45 1 25 43
M  V30 46 1 26 44
M  V30 47 1 26 45
M  V30 48 1 26 46
M  V30 END BOND
M  V30 END CTAB
M  END
>  <Structure No>
8530

>  <LogS>
-4.68

>  <MMFF94 Energy>
-38.569

$$$$
Compound 8531
Actelion Java MolfileCreator 2.0

  0  0  0  0  0  0              0 V3000
M  V30 BEGIN CTAB
M  V30 COUNTS 28 29 0 0 0
M  V30 BEGIN ATOM
M  V30 1 O 1.5101 -2.4647 -1.1125 0
M  V30 2 C 1.8888 -1.3956 -0.5622 0
M  V30 3 N 3.2181 -1.1943 -0.365 0
M  V30 4 N 0.9782 -0.4482 -0.1621 0
M  V30 5 C 3.6838 -0.0721 0.2384 0
M  V30 6 C 1.4214 0.6813 0.4729 0
M  V30 7 C -0.4718 -0.6666 -0.3408 0 CFG=2
M  V30 8 N 5.088 0.1035 0.4268 0
M  V30 9 C 2.7825 0.8949 0.6779 0
M  V30 10 O -1.1269 0.5447 -0.6596 0
M  V30 11 C -1.0908 -1.2566 0.9176 0
M  V30 12 C -2.2365 0.6733 0.2034 0 CFG=2
M  V30 13 C -2.4566 -0.6466 0.9285 0
M  V30 14 C -3.4729 1.1017 -0.59 0
M  V30 15 O -3.2469 2.3546 -1.1737 0
M  V30 16 H 0.7216 1.4265 0.8316 0
M  V30 17 H -0.6597 -1.3629 -1.1889 0
M  V30 18 H 5.7579 -0.6267 0.0984 0
M  V30 19 H 5.4647 0.9595 0.8922 0
M  V30 20 H 3.126 1.7938 1.1743 0
M  V30 21 H -0.5324 -0.9377 1.8262 0
M  V30 22 H -1.1343 -2.3667 0.8751 0
M  V30 23 H -2.0044 1.4606 0.9558 0
M  V30 24 H -2.8305 -0.492 1.9642 0
M  V30 25 H -3.1593 -1.3051 0.3695 0
M  V30 26 H -3.6869 0.3518 -1.3849 0
M  V30 27 H -4.3484 1.1634 0.095 0
M  V30 28 H -4.0749 2.5791 -1.6726 0
M  V30 END ATOM
M  V30 BEGIN BOND
M  V30 1 2 1 2
M  V30 2 1 2 3
M  V30 3 1 2 4
M  V30 4 2 3 5
M  V30 5 1 4 6
M  V30 6 1 4 7
M  V30 7 1 5 8
M  V30 8 1 5 9
M  V30 9 1 7 10
M  V30 10 1 7 11
M  V30 11 1 10 12
M  V30 12 1 11 13
M  V30 13 1 12 14
M  V30 14 1 14 15
M  V30 15 2 6 9
M  V30 16 1 12 13
M  V30 17 1 6 16
M  V30 18 1 7 17
M  V30 19 1 8 18
M  V30 20 1 8 19
M  V30 21 1 9 20
M  V30 22 1 11 21
M  V30 23 1 11 22
M  V30 24 1 12 23
M  V30 25 1 13 24
M  V30 26 1 13 25
M  V30 27 1 14 26
M  V30 28 1 14 27
M  V30 29 1 15 28
M  V30 END BOND
M  V30 BEGIN COLLECTION
M  V30 MDLV30/STEABS ATOMS=(2 7 12)
M  V30 END COLLECTION
M  V30 END CTAB
M  END
>  <Structure No>
8531

>  <LogS>
-0.43

>  <MMFF94 Energy>
-66.984

$$$$
Compound 8532
Actelion Java MolfileCreator 2.0

  0  0  0  0  0  0              0 V3000
M  V30 BEGIN CTAB
M  V30 COUNTS 44 46 0 0 0
M  V30 BEGIN ATOM
M  V30 1 O 0.3218 3.303 -1.6907 0
M  V30 2 C 0.6086 2.831 -0.5571 0
M  V30 3 N -0.1561 1.7273 -0.0159 0
M  V30 4 N 1.7256 3.3803 0.1497 0
M  V30 5 C -1.2319 1.1377 -0.776 0
M  V30 6 C 0.2041 1.155 1.2457 0
M  V30 7 C -1.3051 -0.2621 -1.0639 0
M  V30 8 C -2.2443 1.9893 -1.2583 0
M  V30 9 C 0.8275 -0.0992 1.2839 0
M  V30 10 C -0.0409 1.8554 2.4358 0
M  V30 11 C -2.3818 -0.729 -1.8461 0
M  V30 12 C -0.3702 -1.3429 -0.522 0 CFG=1
M  V30 13 C -3.2924 1.4963 -2.0319 0
M  V30 14 C 1.1912 -0.6537 2.5235 0
M  V30 15 C 1.0065 -0.8762 0.0057 0 CFG=1
M  V30 16 C 0.3329 1.3029 3.6634 0
M  V30 17 C -3.3572 0.1404 -2.3309 0
M  V30 18 O -1.0689 -2.0582 0.5012 0
M  V30 19 C 0.9487 0.0496 3.7071 0
M  V30 20 O 1.6911 -0.0777 -0.9622 0
M  V30 21 C -0.726 -3.3474 0.9242 0
M  V30 22 C 2.2482 -0.5876 -2.1392 0
M  V30 23 O 0.2015 -3.989 0.3606 0
M  V30 24 C -1.4376 -3.9478 2.0878 0
M  V30 25 O 2.2699 -1.8286 -2.3607 0
M  V30 26 C 2.8755 0.3481 -3.1146 0
M  V30 27 H 2.0666 2.9782 1.0495 0
M  V30 28 H 2.2527 4.1844 -0.2575 0
M  V30 29 H -2.2227 3.0466 -1.0254 0
M  V30 30 H -0.5179 2.827 2.4069 0
M  V30 31 H -2.4752 -1.7846 -2.0725 0
M  V30 32 H -0.1697 -2.0438 -1.3633 0
M  V30 33 H -4.0585 2.1682 -2.3971 0
M  V30 34 H 1.6514 -1.6325 2.5755 0
M  V30 35 H 1.6321 -1.772 0.2162 0
M  V30 36 H 0.1436 1.8451 4.5809 0
M  V30 37 H -4.1747 -0.2424 -2.9283 0
M  V30 38 H 1.2316 -0.3805 4.6591 0
M  V30 39 H -2.4564 -3.5149 2.1723 0
M  V30 40 H -0.8715 -3.7305 3.0174 0
M  V30 41 H -1.5243 -5.0472 1.9582 0
M  V30 42 H 2.4314 1.3601 -3.0064 0
M  V30 43 H 3.9667 0.4065 -2.922 0
M  V30 44 H 2.7031 -0.0095 -4.1516 0
M  V30 END ATOM
M  V30 BEGIN BOND
M  V30 1 2 1 2
M  V30 2 1 2 3
M  V30 3 1 2 4
M  V30 4 1 3 5
M  V30 5 1 3 6
M  V30 6 2 5 7
M  V30 7 1 5 8
M  V30 8 2 6 9
M  V30 9 1 6 10
M  V30 10 1 7 11
M  V30 11 1 7 12
M  V30 12 2 8 13
M  V30 13 1 9 14
M  V30 14 1 9 15
M  V30 15 2 10 16
M  V30 16 2 11 17
M  V30 17 1 12 18
M  V30 18 2 14 19
M  V30 19 1 15 20
M  V30 20 1 18 21
M  V30 21 1 20 22
M  V30 22 2 21 23
M  V30 23 1 21 24
M  V30 24 2 22 25
M  V30 25 1 22 26
M  V30 26 1 12 15
M  V30 27 1 13 17
M  V30 28 1 16 19
M  V30 29 1 4 27
M  V30 30 1 4 28
M  V30 31 1 8 29
M  V30 32 1 10 30
M  V30 33 1 11 31
M  V30 34 1 12 32
M  V30 35 1 13 33
M  V30 36 1 14 34
M  V30 37 1 15 35
M  V30 38 1 16 36
M  V30 39 1 17 37
M  V30 40 1 19 38
M  V30 41 1 24 39
M  V30 42 1 24 40
M  V30 43 1 24 41
M  V30 44 1 26 42
M  V30 45 1 26 43
M  V30 46 1 26 44
M  V30 END BOND
M  V30 BEGIN COLLECTION
M  V30 MDLV30/STEABS ATOMS=(2 12 15)
M  V30 END COLLECTION
M  V30 END CTAB
M  END
>  <Structure No>
8532

>  <LogS>
-3.55

>  <MMFF94 Energy>
4.4171

$$$$
Compound 8533
Actelion Java MolfileCreator 2.0

  0  0  0  0  0  0              0 V3000
M  V30 BEGIN CTAB
M  V30 COUNTS 25 24 0 0 0
M  V30 BEGIN ATOM
M  V30 1 Cl 4.0043 -1.3062 0.2448 0
M  V30 2 C 3.5577 0.3975 0.5084 0
M  V30 3 Cl 3.9159 1.3422 -0.9582 0
M  V30 4 C 2.1018 0.5004 0.8467 0
M  V30 5 O 1.7613 0.9726 1.9651 0
M  V30 6 N 1.1068 0.0574 -0.0902 0
M  V30 7 C -0.3306 0.0492 0.2094 0 CFG=1
M  V30 8 C -1.0854 0.7984 -0.8538 0
M  V30 9 C -0.8562 -1.3982 0.3387 0 CFG=1
M  V30 10 O -0.7563 0.6871 -2.0674 0
M  V30 11 O -2.1842 1.5815 -0.4873 0
M  V30 12 O -0.5694 -2.1384 -0.8209 0
M  V30 13 C -0.2337 -2.1064 1.5436 0
M  V30 14 C -2.9638 2.2993 -1.4358 0
M  V30 15 H 4.174 0.7969 1.3418 0
M  V30 16 H 1.4286 -0.3472 -0.9989 0
M  V30 17 H -0.5245 0.5743 1.1705 0
M  V30 18 H -1.959 -1.3677 0.5122 0
M  V30 19 H -1.3101 -1.9753 -1.4612 0
M  V30 20 H -0.6707 -3.1222 1.6472 0
M  V30 21 H 0.8649 -2.2076 1.4159 0
M  V30 22 H -0.4411 -1.5392 2.4761 0
M  V30 23 H -2.3275 3.0341 -1.9728 0
M  V30 24 H -3.7726 2.8432 -0.9062 0
M  V30 25 H -3.4201 1.5952 -2.1634 0
M  V30 END ATOM
M  V30 BEGIN BOND
M  V30 1 1 1 2
M  V30 2 1 2 3
M  V30 3 1 2 4
M  V30 4 2 4 5
M  V30 5 1 4 6
M  V30 6 1 6 7
M  V30 7 1 7 8
M  V30 8 1 7 9
M  V30 9 2 8 10
M  V30 10 1 8 11
M  V30 11 1 9 12
M  V30 12 1 9 13
M  V30 13 1 11 14
M  V30 14 1 2 15
M  V30 15 1 6 16
M  V30 16 1 7 17
M  V30 17 1 9 18
M  V30 18 1 12 19
M  V30 19 1 13 20
M  V30 20 1 13 21
M  V30 21 1 13 22
M  V30 22 1 14 23
M  V30 23 1 14 24
M  V30 24 1 14 25
M  V30 END BOND
M  V30 BEGIN COLLECTION
M  V30 MDLV30/STEABS ATOMS=(2 7 9)
M  V30 END COLLECTION
M  V30 END CTAB
M  END
>  <Structure No>
8533

>  <LogS>
-0.62

>  <MMFF94 Energy>
69.833

$$$$
Compound 8534
Actelion Java MolfileCreator 2.0

  0  0  0  0  0  0              0 V3000
M  V30 BEGIN CTAB
M  V30 COUNTS 18 17 0 0 0
M  V30 BEGIN ATOM
M  V30 1 Cl 3.6936 -0.503 -0.6708 0
M  V30 2 C 2.8181 0.4078 0.5844 0
M  V30 3 Cl 2.6902 2.1172 0.1013 0
M  V30 4 C 1.4522 -0.1733 0.7869 0
M  V30 5 O 1.135 -0.6242 1.9211 0
M  V30 6 N 0.5123 -0.2166 -0.298 0
M  V30 7 C -0.8628 -0.6965 -0.1239 0 CFG=2
M  V30 8 C -1.4447 -1.1265 -1.4436 0
M  V30 9 C -1.7307 0.3841 0.5353 0
M  V30 10 O -1.4899 -0.3272 -2.4165 0
M  V30 11 O -1.9529 -2.4111 -1.5909 0 CHG=-1
M  V30 12 O -1.6978 1.5671 -0.2159 0
M  V30 13 H 3.4016 0.3531 1.5282 0
M  V30 14 H 0.8085 0.1658 -1.2248 0
M  V30 15 H -0.853 -1.5882 0.5414 0
M  V30 16 H -2.7791 0.0191 0.6213 0
M  V30 17 H -1.3497 0.585 1.5614 0
M  V30 18 H -2.2749 2.215 0.2656 0
M  V30 END ATOM
M  V30 BEGIN BOND
M  V30 1 1 1 2
M  V30 2 1 2 3
M  V30 3 1 2 4
M  V30 4 2 4 5
M  V30 5 1 4 6
M  V30 6 1 6 7
M  V30 7 1 7 8
M  V30 8 1 7 9
M  V30 9 2 8 10
M  V30 10 1 8 11
M  V30 11 1 9 12
M  V30 12 1 2 13
M  V30 13 1 6 14
M  V30 14 1 7 15
M  V30 15 1 9 16
M  V30 16 1 9 17
M  V30 17 1 12 18
M  V30 END BOND
M  V30 BEGIN COLLECTION
M  V30 MDLV30/STEABS ATOMS=(1 7)
M  V30 END COLLECTION
M  V30 END CTAB
M  END
>  <Structure No>
8534

>  <LogS>
-0.03

>  <MMFF94 Energy>
92.904

$$$$
Compound 8535
Actelion Java MolfileCreator 2.0

  0  0  0  0  0  0              0 V3000
M  V30 BEGIN CTAB
M  V30 COUNTS 37 38 0 0 0
M  V30 BEGIN ATOM
M  V30 1 O 3.2585 1.668 1.4295 0
M  V30 2 C 3.1198 0.4641 1.079 0
M  V30 3 O 3.8168 -0.0387 -0.0269 0
M  V30 4 C 2.1532 -0.4154 1.8245 0 CFG=1
M  V30 5 C 4.6275 0.7687 -0.8771 0
M  V30 6 C 0.7803 -0.3546 1.1848 0
M  V30 7 C 2.6572 -1.8608 1.9127 0
M  V30 8 C 3.757 1.6088 -1.8044 0
M  V30 9 C -0.33 0.0595 1.9415 0
M  V30 10 C 0.5936 -0.7172 -0.1623 0
M  V30 11 C -1.6068 0.1182 1.362 0
M  V30 12 C -0.674 -0.6609 -0.746 0
M  V30 13 C -1.7808 -0.2443 0.0066 0
M  V30 14 C -2.7142 0.5336 2.1152 0
M  V30 15 C -3.0581 -0.185 -0.5728 0
M  V30 16 C -3.9816 0.5895 1.5301 0
M  V30 17 C -4.1664 0.2335 0.1894 0
M  V30 18 O -5.4614 0.309 -0.3449 0
M  V30 19 C -5.7987 -0.0204 -1.6885 0
M  V30 20 H 2.0957 -0.0355 2.8696 0
M  V30 21 H 5.2933 1.4226 -0.2728 0
M  V30 22 H 5.2659 0.1019 -1.494 0
M  V30 23 H 1.9471 -2.4729 2.5089 0
M  V30 24 H 2.7582 -2.316 0.9045 0
M  V30 25 H 3.6473 -1.8877 2.4161 0
M  V30 26 H 4.4012 2.1881 -2.4987 0
M  V30 27 H 3.0891 0.9487 -2.3974 0
M  V30 28 H 3.1376 2.3181 -1.2165 0
M  V30 29 H -0.1999 0.3372 2.9814 0
M  V30 30 H 1.4311 -1.0434 -0.765 0
M  V30 31 H -0.7884 -0.9436 -1.7857 0
M  V30 32 H -2.6004 0.8153 3.1554 0
M  V30 33 H -3.1832 -0.4642 -1.6111 0
M  V30 34 H -4.828 0.9122 2.1231 0
M  V30 35 H -5.2494 0.6393 -2.3929 0
M  V30 36 H -6.8876 0.1306 -1.8363 0
M  V30 37 H -5.5565 -1.0847 -1.8929 0
M  V30 END ATOM
M  V30 BEGIN BOND
M  V30 1 2 1 2
M  V30 2 1 2 3
M  V30 3 1 2 4
M  V30 4 1 3 5
M  V30 5 1 4 6
M  V30 6 1 4 7
M  V30 7 1 5 8
M  V30 8 2 6 9
M  V30 9 1 6 10
M  V30 10 1 9 11
M  V30 11 2 10 12
M  V30 12 1 11 13
M  V30 13 2 11 14
M  V30 14 2 13 15
M  V30 15 1 14 16
M  V30 16 1 15 17
M  V30 17 1 17 18
M  V30 18 1 18 19
M  V30 19 1 12 13
M  V30 20 2 16 17
M  V30 21 1 4 20
M  V30 22 1 5 21
M  V30 23 1 5 22
M  V30 24 1 7 23
M  V30 25 1 7 24
M  V30 26 1 7 25
M  V30 27 1 8 26
M  V30 28 1 8 27
M  V30 29 1 8 28
M  V30 30 1 9 29
M  V30 31 1 10 30
M  V30 32 1 12 31
M  V30 33 1 14 32
M  V30 34 1 15 33
M  V30 35 1 16 34
M  V30 36 1 19 35
M  V30 37 1 19 36
M  V30 38 1 19 37
M  V30 END BOND
M  V30 BEGIN COLLECTION
M  V30 MDLV30/STEABS ATOMS=(1 4)
M  V30 END COLLECTION
M  V30 END CTAB
M  END
>  <Structure No>
8535

>  <LogS>
-5.24

>  <MMFF94 Energy>
47.463

$$$$
Compound 8536
Actelion Java MolfileCreator 2.0

  0  0  0  0  0  0              0 V3000
M  V30 BEGIN CTAB
M  V30 COUNTS 40 41 0 0 0
M  V30 BEGIN ATOM
M  V30 1 O -2.5399 0.0 -2.2221 0
M  V30 2 C -2.5554 -0.8551 -1.2933 0
M  V30 3 O -3.4195 -0.7038 -0.2029 0
M  V30 4 C -1.6005 -2.0183 -1.3077 0 CFG=2
M  V30 5 C -4.2487 0.4404 -0.0123 0
M  V30 6 C -0.3492 -1.6817 -0.5225 0
M  V30 7 C -1.2535 -2.4693 -2.7325 0
M  V30 8 C -3.4139 1.6294 0.4716 0
M  V30 9 C 0.4524 -0.5806 -0.8785 0
M  V30 10 C 0.0282 -2.4769 0.573 0
M  V30 11 C -4.2907 2.8494 0.7356 0
M  V30 12 C 1.609 -0.2743 -0.1461 0
M  V30 13 C 1.1789 -2.1786 1.3067 0
M  V30 14 C 1.9754 -1.0798 0.9561 0
M  V30 15 C 2.4066 0.8241 -0.4967 0
M  V30 16 C 3.1325 -0.7726 1.688 0
M  V30 17 C 3.5573 1.1224 0.2378 0
M  V30 18 C 3.9282 0.3245 1.3369 0
M  V30 19 O 5.0743 0.5864 2.1024 0
M  V30 20 C 5.9737 1.6636 1.8611 0
M  V30 21 H -2.1254 -2.8714 -0.8232 0
M  V30 22 H -5.0116 0.1927 0.7561 0
M  V30 23 H -4.7793 0.6906 -0.9573 0
M  V30 24 H -2.18 -2.7472 -3.2792 0
M  V30 25 H -0.7352 -1.6641 -3.2956 0
M  V30 26 H -0.5907 -3.3602 -2.6962 0
M  V30 27 H -2.8854 1.3509 1.409 0
M  V30 28 H -2.652 1.8921 -0.293 0
M  V30 29 H 0.1726 0.0377 -1.7232 0
M  V30 30 H -0.5699 -3.3315 0.8634 0
M  V30 31 H -3.6575 3.6953 1.0767 0
M  V30 32 H -5.0377 2.6239 1.5264 0
M  V30 33 H -4.8192 3.1529 -0.1931 0
M  V30 34 H 1.446 -2.8072 2.1479 0
M  V30 35 H 2.1405 1.4524 -1.3385 0
M  V30 36 H 3.4216 -1.3845 2.5347 0
M  V30 37 H 4.1521 1.976 -0.0573 0
M  V30 38 H 6.4217 1.5674 0.8494 0
M  V30 39 H 6.7874 1.6323 2.6143 0
M  V30 40 H 5.4412 2.6338 1.9531 0
M  V30 END ATOM
M  V30 BEGIN BOND
M  V30 1 2 1 2
M  V30 2 1 2 3
M  V30 3 1 2 4
M  V30 4 1 3 5
M  V30 5 1 4 6
M  V30 6 1 4 7
M  V30 7 1 5 8
M  V30 8 2 6 9
M  V30 9 1 6 10
M  V30 10 1 8 11
M  V30 11 1 9 12
M  V30 12 2 10 13
M  V30 13 1 12 14
M  V30 14 2 12 15
M  V30 15 2 14 16
M  V30 16 1 15 17
M  V30 17 1 16 18
M  V30 18 1 18 19
M  V30 19 1 19 20
M  V30 20 1 13 14
M  V30 21 2 17 18
M  V30 22 1 4 21
M  V30 23 1 5 22
M  V30 24 1 5 23
M  V30 25 1 7 24
M  V30 26 1 7 25
M  V30 27 1 7 26
M  V30 28 1 8 27
M  V30 29 1 8 28
M  V30 30 1 9 29
M  V30 31 1 10 30
M  V30 32 1 11 31
M  V30 33 1 11 32
M  V30 34 1 11 33
M  V30 35 1 13 34
M  V30 36 1 15 35
M  V30 37 1 16 36
M  V30 38 1 17 37
M  V30 39 1 20 38
M  V30 40 1 20 39
M  V30 41 1 20 40
M  V30 END BOND
M  V30 BEGIN COLLECTION
M  V30 MDLV30/STEABS ATOMS=(1 4)
M  V30 END COLLECTION
M  V30 END CTAB
M  END
>  <Structure No>
8536

>  <LogS>
-5.82

>  <MMFF94 Energy>
47.859

$$$$
Compound 8537
Actelion Java MolfileCreator 2.0

  0  0  0  0  0  0              0 V3000
M  V30 BEGIN CTAB
M  V30 COUNTS 43 44 0 0 0
M  V30 BEGIN ATOM
M  V30 1 O 2.2203 0.0 -1.9029 0
M  V30 2 C 2.0061 -0.3012 -0.697 0
M  V30 3 O 2.6855 0.3587 0.335 0
M  V30 4 C 0.9743 -1.345 -0.3691 0 CFG=2
M  V30 5 C 3.7352 1.3023 0.1239 0
M  V30 6 C -0.3549 -0.6958 -0.0377 0
M  V30 7 C 1.4477 -2.26 0.7664 0
M  V30 8 C 5.1089 0.6409 0.2954 0
M  V30 9 C -1.485 -0.9665 -0.8297 0
M  V30 10 C -0.4811 0.1799 1.0571 0
M  V30 11 C 5.4378 -0.4084 -0.7781 0
M  V30 12 C -2.722 -0.3726 -0.5353 0
M  V30 13 C -1.709 0.7748 1.3559 0
M  V30 14 C 5.7092 0.2129 -2.1478 0
M  V30 15 C -2.8349 0.5053 0.5665 0
M  V30 16 C -3.8494 -0.6415 -1.3246 0
M  V30 17 C -4.0722 1.0987 0.8597 0
M  V30 18 C -5.0777 -0.046 -1.0251 0
M  V30 19 C -5.1971 0.8294 0.071 0
M  V30 20 O -6.4095 1.4494 0.4086 0
M  V30 21 C -7.6303 1.269 -0.3016 0
M  V30 22 H 0.8578 -1.9939 -1.2662 0
M  V30 23 H 3.642 1.8082 -0.86 0
M  V30 24 H 3.6405 2.0929 0.8979 0
M  V30 25 H 2.3975 -2.7599 0.4792 0
M  V30 26 H 0.6863 -3.045 0.9622 0
M  V30 27 H 1.6186 -1.689 1.7037 0
M  V30 28 H 5.138 0.1482 1.2916 0
M  V30 29 H 5.8942 1.4279 0.2963 0
M  V30 30 H -1.4015 -1.6394 -1.6754 0
M  V30 31 H 0.3724 0.4054 1.6827 0
M  V30 32 H 6.3531 -0.9536 -0.4611 0
M  V30 33 H 4.623 -1.1577 -0.8573 0
M  V30 34 H -1.7778 1.4453 2.2043 0
M  V30 35 H 6.5182 0.9705 -2.0763 0
M  V30 36 H 4.795 0.6891 -2.5561 0
M  V30 37 H 6.0307 -0.5803 -2.8548 0
M  V30 38 H -3.7813 -1.3119 -2.173 0
M  V30 39 H -4.1683 1.7732 1.7027 0
M  V30 40 H -5.9287 -0.2731 -1.6524 0
M  V30 41 H -8.4237 1.8754 0.1811 0
M  V30 42 H -7.9333 0.201 -0.2748 0
M  V30 43 H -7.5141 1.6076 -1.3527 0
M  V30 END ATOM
M  V30 BEGIN BOND
M  V30 1 2 1 2
M  V30 2 1 2 3
M  V30 3 1 2 4
M  V30 4 1 3 5
M  V30 5 1 4 6
M  V30 6 1 4 7
M  V30 7 1 5 8
M  V30 8 2 6 9
M  V30 9 1 6 10
M  V30 10 1 8 11
M  V30 11 1 9 12
M  V30 12 2 10 13
M  V30 13 1 11 14
M  V30 14 1 12 15
M  V30 15 2 12 16
M  V30 16 2 15 17
M  V30 17 1 16 18
M  V30 18 1 17 19
M  V30 19 1 19 20
M  V30 20 1 20 21
M  V30 21 1 13 15
M  V30 22 2 18 19
M  V30 23 1 4 22
M  V30 24 1 5 23
M  V30 25 1 5 24
M  V30 26 1 7 25
M  V30 27 1 7 26
M  V30 28 1 7 27
M  V30 29 1 8 28
M  V30 30 1 8 29
M  V30 31 1 9 30
M  V30 32 1 10 31
M  V30 33 1 11 32
M  V30 34 1 11 33
M  V30 35 1 13 34
M  V30 36 1 14 35
M  V30 37 1 14 36
M  V30 38 1 14 37
M  V30 39 1 16 38
M  V30 40 1 17 39
M  V30 41 1 18 40
M  V30 42 1 21 41
M  V30 43 1 21 42
M  V30 44 1 21 43
M  V30 END BOND
M  V30 BEGIN COLLECTION
M  V30 MDLV30/STEABS ATOMS=(1 4)
M  V30 END COLLECTION
M  V30 END CTAB
M  END
>  <Structure No>
8537

>  <LogS>
-7.53

>  <MMFF94 Energy>
47.438

$$$$
Compound 8538
Actelion Java MolfileCreator 2.0

  0  0  0  0  0  0              0 V3000
M  V30 BEGIN CTAB
M  V30 COUNTS 38 39 0 0 0
M  V30 BEGIN ATOM
M  V30 1 O -2.9413 -0.8737 1.6685 0
M  V30 2 C -2.8013 -0.9904 0.4191 0
M  V30 3 O -3.5088 -0.1575 -0.4523 0
M  V30 4 C -1.8252 -1.9831 -0.1523 0 CFG=1
M  V30 5 C -4.4188 0.8377 0.0049 0
M  V30 6 C -0.4579 -1.3501 -0.314 0
M  V30 7 C -1.7481 -3.2662 0.6855 0
M  V30 8 C -5.015 1.5787 -1.1877 0
M  V30 9 C 0.24 -0.8413 0.7979 0
M  V30 10 C 0.1321 -1.2691 -1.5871 0
M  V30 11 O -4.0052 2.1991 -1.9367 0
M  V30 12 C 1.5058 -0.2576 0.6393 0
M  V30 13 C 1.3924 -0.6896 -1.7527 0
M  V30 14 C 2.087 -0.1808 -0.6469 0
M  V30 15 C 2.2015 0.2514 1.7451 0
M  V30 16 C 3.353 0.4034 -0.8045 0
M  V30 17 C 3.4619 0.8317 1.5786 0
M  V30 18 C 4.0466 0.9115 0.3003 0
M  V30 19 O 5.3088 1.4852 0.0863 0
M  V30 20 C 6.1249 2.0398 1.1129 0
M  V30 21 H -2.2162 -2.2815 -1.1505 0
M  V30 22 H -3.8883 1.5591 0.6643 0
M  V30 23 H -5.2379 0.357 0.5825 0
M  V30 24 H -1.056 -3.9905 0.2051 0
M  V30 25 H -1.3845 -3.0566 1.714 0
M  V30 26 H -2.7524 -3.7368 0.7524 0
M  V30 27 H -5.5503 0.8548 -1.8381 0
M  V30 28 H -5.7546 2.3322 -0.8335 0
M  V30 29 H -0.2041 -0.8988 1.7845 0
M  V30 30 H -0.3837 -1.6552 -2.4574 0
M  V30 31 H -3.7271 3.0043 -1.4263 0
M  V30 32 H 1.8234 -0.6393 -2.7456 0
M  V30 33 H 1.7709 0.2011 2.7383 0
M  V30 34 H 3.8064 0.4667 -1.7869 0
M  V30 35 H 3.9734 1.2154 2.4506 0
M  V30 36 H 6.3797 1.2599 1.8613 0
M  V30 37 H 5.5979 2.8846 1.6051 0
M  V30 38 H 7.0643 2.421 0.663 0
M  V30 END ATOM
M  V30 BEGIN BOND
M  V30 1 2 1 2
M  V30 2 1 2 3
M  V30 3 1 2 4
M  V30 4 1 3 5
M  V30 5 1 4 6
M  V30 6 1 4 7
M  V30 7 1 5 8
M  V30 8 2 6 9
M  V30 9 1 6 10
M  V30 10 1 8 11
M  V30 11 1 9 12
M  V30 12 2 10 13
M  V30 13 1 12 14
M  V30 14 2 12 15
M  V30 15 2 14 16
M  V30 16 1 15 17
M  V30 17 1 16 18
M  V30 18 1 18 19
M  V30 19 1 19 20
M  V30 20 1 13 14
M  V30 21 2 17 18
M  V30 22 1 4 21
M  V30 23 1 5 22
M  V30 24 1 5 23
M  V30 25 1 7 24
M  V30 26 1 7 25
M  V30 27 1 7 26
M  V30 28 1 8 27
M  V30 29 1 8 28
M  V30 30 1 9 29
M  V30 31 1 10 30
M  V30 32 1 11 31
M  V30 33 1 13 32
M  V30 34 1 15 33
M  V30 35 1 16 34
M  V30 36 1 17 35
M  V30 37 1 20 36
M  V30 38 1 20 37
M  V30 39 1 20 38
M  V30 END BOND
M  V30 BEGIN COLLECTION
M  V30 MDLV30/STEABS ATOMS=(1 4)
M  V30 END COLLECTION
M  V30 END CTAB
M  END
>  <Structure No>
8538

>  <LogS>
-3.33

>  <MMFF94 Energy>
64.21

$$$$
Compound 8539
Actelion Java MolfileCreator 2.0

  0  0  0  0  0  0              0 V3000
M  V30 BEGIN CTAB
M  V30 COUNTS 43 44 0 0 0
M  V30 BEGIN ATOM
M  V30 1 O -2.4599 0.9516 1.904 0
M  V30 2 C -2.2582 1.0426 0.6631 0
M  V30 3 O -2.9519 0.2279 -0.246 0
M  V30 4 C -1.213 1.9989 0.1577 0 CFG=1
M  V30 5 C -3.9008 -0.7963 0.0822 0
M  V30 6 C 0.1167 1.2902 -0.0073 0
M  V30 7 C -1.6501 2.6693 -1.1501 0
M  V30 8 C -4.3729 -1.4169 -1.241 0
M  V30 9 C -3.2374 -1.8926 0.9374 0
M  V30 10 C -5.1169 -0.1961 0.8133 0
M  V30 11 C 1.2428 1.7338 0.7082 0
M  V30 12 C 0.2472 0.1888 -0.8744 0
M  V30 13 C 2.4797 1.0865 0.5654 0
M  V30 14 C 1.4748 -0.4606 -1.0212 0
M  V30 15 C 2.5971 -0.0205 -0.3061 0
M  V30 16 C 3.6026 1.527 1.2802 0
M  V30 17 C 3.8345 -0.6682 -0.4482 0
M  V30 18 C 4.8299 0.8763 1.1324 0
M  V30 19 C 4.9587 -0.2205 0.273 0
M  V30 20 O 6.2154 -0.8348 0.1644 0
M  V30 21 C 6.4943 -1.956 -0.6676 0
M  V30 22 H -1.1115 2.8127 0.9111 0
M  V30 23 H -2.6059 3.2148 -0.9961 0
M  V30 24 H -1.7943 1.9226 -1.9597 0
M  V30 25 H -0.8803 3.4014 -1.4753 0
M  V30 26 H -3.5095 -1.8444 -1.7951 0
M  V30 27 H -4.8441 -0.6419 -1.8833 0
M  V30 28 H -5.1138 -2.2259 -1.061 0
M  V30 29 H -2.3171 -2.2636 0.4371 0
M  V30 30 H -3.932 -2.748 1.084 0
M  V30 31 H -2.9582 -1.51 1.9403 0
M  V30 32 H -5.9083 -0.9645 0.9506 0
M  V30 33 H -5.5393 0.6468 0.2256 0
M  V30 34 H -4.8394 0.1832 1.8178 0
M  V30 35 H 1.156 2.5824 1.3772 0
M  V30 36 H -0.6032 -0.1711 -1.4387 0
M  V30 37 H 1.5461 -1.3068 -1.6942 0
M  V30 38 H 3.532 2.3737 1.9529 0
M  V30 39 H 3.9163 -1.515 -1.1174 0
M  V30 40 H 5.689 1.2269 1.6904 0
M  V30 41 H 7.563 -2.232 -0.5576 0
M  V30 42 H 5.8702 -2.8225 -0.3625 0
M  V30 43 H 6.3008 -1.7001 -1.7307 0
M  V30 END ATOM
M  V30 BEGIN BOND
M  V30 1 2 1 2
M  V30 2 1 2 3
M  V30 3 1 2 4
M  V30 4 1 3 5
M  V30 5 1 4 6
M  V30 6 1 4 7
M  V30 7 1 5 8
M  V30 8 1 5 9
M  V30 9 1 5 10
M  V30 10 2 6 11
M  V30 11 1 6 12
M  V30 12 1 11 13
M  V30 13 2 12 14
M  V30 14 1 13 15
M  V30 15 2 13 16
M  V30 16 2 15 17
M  V30 17 1 16 18
M  V30 18 1 17 19
M  V30 19 1 19 20
M  V30 20 1 20 21
M  V30 21 1 14 15
M  V30 22 2 18 19
M  V30 23 1 4 22
M  V30 24 1 7 23
M  V30 25 1 7 24
M  V30 26 1 7 25
M  V30 27 1 8 26
M  V30 28 1 8 27
M  V30 29 1 8 28
M  V30 30 1 9 29
M  V30 31 1 9 30
M  V30 32 1 9 31
M  V30 33 1 10 32
M  V30 34 1 10 33
M  V30 35 1 10 34
M  V30 36 1 11 35
M  V30 37 1 12 36
M  V30 38 1 14 37
M  V30 39 1 16 38
M  V30 40 1 17 39
M  V30 41 1 18 40
M  V30 42 1 21 41
M  V30 43 1 21 42
M  V30 44 1 21 43
M  V30 END BOND
M  V30 BEGIN COLLECTION
M  V30 MDLV30/STEABS ATOMS=(1 4)
M  V30 END COLLECTION
M  V30 END CTAB
M  END
>  <Structure No>
8539

>  <LogS>
-6.5

>  <MMFF94 Energy>
59.939

$$$$
Compound 8540
Actelion Java MolfileCreator 2.0

  0  0  0  0  0  0              0 V3000
M  V30 BEGIN CTAB
M  V30 COUNTS 46 47 0 0 0
M  V30 BEGIN ATOM
M  V30 1 O -1.9811 0.2375 1.2675 0
M  V30 2 C -1.5236 -0.7907 0.6979 0
M  V30 3 O -2.0916 -1.2537 -0.4958 0
M  V30 4 C -0.3219 -1.4841 1.2794 0 CFG=2
M  V30 5 C -3.2436 -0.6659 -1.0954 0
M  V30 6 C 0.9527 -0.9593 0.6489 0
M  V30 7 C -0.4274 -3.0069 1.1345 0
M  V30 8 C -4.5122 -1.0833 -0.3406 0
M  V30 9 C 1.9341 -0.3503 1.451 0
M  V30 10 C 1.1765 -1.0759 -0.7357 0
M  V30 11 C -5.7861 -0.4584 -0.946 0
M  V30 12 C 3.1195 0.1382 0.881 0
M  V30 13 C 2.354 -0.5918 -1.3102 0
M  V30 14 C -6.3052 0.7595 -0.1634 0
M  V30 15 C 3.3311 0.0166 -0.5112 0
M  V30 16 C 4.0984 0.7469 1.6796 0
M  V30 17 C -5.3628 1.9593 -0.2286 0
M  V30 18 C 4.5169 0.5057 -1.0802 0
M  V30 19 C 5.2762 1.2311 1.1042 0
M  V30 20 C 5.4933 1.1134 -0.2819 0
M  V30 21 O 6.66 1.5848 -0.902 0
M  V30 22 C 7.7337 2.2218 -0.2173 0
M  V30 23 H -0.3115 -1.2722 2.3725 0
M  V30 24 H -3.3114 -1.028 -2.1433 0
M  V30 25 H -3.1324 0.4379 -1.1268 0
M  V30 26 H 0.4503 -3.4937 1.6109 0
M  V30 27 H -0.4662 -3.3108 0.067 0
M  V30 28 H -1.346 -3.3734 1.6411 0
M  V30 29 H -4.5936 -2.1907 -0.4007 0
M  V30 30 H -4.4215 -0.8245 0.7362 0
M  V30 31 H 1.7746 -0.2562 2.5193 0
M  V30 32 H 0.4379 -1.5418 -1.3749 0
M  V30 33 H -5.6349 -0.1869 -2.014 0
M  V30 34 H -6.5896 -1.227 -0.9283 0
M  V30 35 H 2.5001 -0.6937 -2.3789 0
M  V30 36 H -6.4801 0.4828 0.899 0
M  V30 37 H -7.2842 1.061 -0.5952 0
M  V30 38 H 3.953 0.8486 2.7486 0
M  V30 39 H -5.1036 2.195 -1.2825 0
M  V30 40 H -5.8611 2.8447 0.2194 0
M  V30 41 H -4.4373 1.7577 0.3495 0
M  V30 42 H 4.6877 0.4169 -2.1467 0
M  V30 43 H 6.0121 1.6956 1.7463 0
M  V30 44 H 8.5224 2.4899 -0.9497 0
M  V30 45 H 8.1683 1.5321 0.5366 0
M  V30 46 H 7.3752 3.1504 0.275 0
M  V30 END ATOM
M  V30 BEGIN BOND
M  V30 1 2 1 2
M  V30 2 1 2 3
M  V30 3 1 2 4
M  V30 4 1 3 5
M  V30 5 1 4 6
M  V30 6 1 4 7
M  V30 7 1 5 8
M  V30 8 2 6 9
M  V30 9 1 6 10
M  V30 10 1 8 11
M  V30 11 1 9 12
M  V30 12 2 10 13
M  V30 13 1 11 14
M  V30 14 1 12 15
M  V30 15 2 12 16
M  V30 16 1 14 17
M  V30 17 2 15 18
M  V30 18 1 16 19
M  V30 19 1 18 20
M  V30 20 1 20 21
M  V30 21 1 21 22
M  V30 22 1 13 15
M  V30 23 2 19 20
M  V30 24 1 4 23
M  V30 25 1 5 24
M  V30 26 1 5 25
M  V30 27 1 7 26
M  V30 28 1 7 27
M  V30 29 1 7 28
M  V30 30 1 8 29
M  V30 31 1 8 30
M  V30 32 1 9 31
M  V30 33 1 10 32
M  V30 34 1 11 33
M  V30 35 1 11 34
M  V30 36 1 13 35
M  V30 37 1 14 36
M  V30 38 1 14 37
M  V30 39 1 16 38
M  V30 40 1 17 39
M  V30 41 1 17 40
M  V30 42 1 17 41
M  V30 43 1 18 42
M  V30 44 1 19 43
M  V30 45 1 22 44
M  V30 46 1 22 45
M  V30 47 1 22 46
M  V30 END BOND
M  V30 BEGIN COLLECTION
M  V30 MDLV30/STEABS ATOMS=(1 4)
M  V30 END COLLECTION
M  V30 END CTAB
M  END
>  <Structure No>
8540

>  <LogS>
-6.97

>  <MMFF94 Energy>
46.803

$$$$
Compound 8541
Actelion Java MolfileCreator 2.0

  0  0  0  0  0  0              0 V3000
M  V30 BEGIN CTAB
M  V30 COUNTS 41 42 0 0 0
M  V30 BEGIN ATOM
M  V30 1 O 3.8939 1.429 -0.7937 0
M  V30 2 C 2.7376 1.483 -0.2903 0
M  V30 3 O 2.4984 0.9627 0.9883 0
M  V30 4 C 1.621 2.186 -1.0244 0 CFG=2
M  V30 5 C 3.4494 0.2005 1.731 0
M  V30 6 C 0.2728 1.5967 -0.6545 0
M  V30 7 C 1.816 2.1456 -2.5466 0
M  V30 8 C 3.2671 -1.3032 1.4829 0 CFG=2
M  V30 9 C 0.0071 0.2289 -0.8533 0
M  V30 10 C -0.7299 2.4167 -0.1106 0
M  V30 11 O 4.0319 -2.011 2.4232 0
M  V30 12 C 3.6988 -1.7052 0.0692 0
M  V30 13 C -1.2364 -0.3145 -0.5001 0
M  V30 14 C -1.973 1.8836 0.2395 0
M  V30 15 C -2.2358 0.5195 0.0512 0
M  V30 16 C -1.4977 -1.6788 -0.6869 0
M  V30 17 C -3.4806 -0.0245 0.405 0
M  V30 18 C -2.7391 -2.2115 -0.3313 0
M  V30 19 C -3.7372 -1.3964 0.2144 0
M  V30 20 O -4.9645 -1.986 0.5526 0
M  V30 21 C -6.0678 -1.2831 1.1148 0
M  V30 22 H 1.6589 3.2539 -0.7157 0
M  V30 23 H 3.2695 0.399 2.8091 0
M  V30 24 H 4.49 0.5236 1.5086 0
M  V30 25 H 1.8916 1.0984 -2.9101 0
M  V30 26 H 2.7426 2.6892 -2.8296 0
M  V30 27 H 0.9607 2.6411 -3.0541 0
M  V30 28 H 2.1872 -1.5499 1.6147 0
M  V30 29 H 0.7726 -0.4101 -1.2764 0
M  V30 30 H -0.5505 3.473 0.0463 0
M  V30 31 H 3.6642 -2.9327 2.4588 0
M  V30 32 H 4.751 -1.4028 -0.1182 0
M  V30 33 H 3.6197 -2.8065 -0.0494 0
M  V30 34 H 3.0403 -1.2361 -0.6894 0
M  V30 35 H -2.7277 2.538 0.6593 0
M  V30 36 H -0.743 -2.3331 -1.1068 0
M  V30 37 H -4.2411 0.6201 0.8263 0
M  V30 38 H -2.9279 -3.267 -0.4807 0
M  V30 39 H -5.7802 -0.8387 2.091 0
M  V30 40 H -6.9036 -1.9931 1.2805 0
M  V30 41 H -6.4093 -0.4885 0.4183 0
M  V30 END ATOM
M  V30 BEGIN BOND
M  V30 1 2 1 2
M  V30 2 1 2 3
M  V30 3 1 2 4
M  V30 4 1 3 5
M  V30 5 1 4 6
M  V30 6 1 4 7
M  V30 7 1 5 8
M  V30 8 2 6 9
M  V30 9 1 6 10
M  V30 10 1 8 11
M  V30 11 1 8 12
M  V30 12 1 9 13
M  V30 13 2 10 14
M  V30 14 1 13 15
M  V30 15 2 13 16
M  V30 16 2 15 17
M  V30 17 1 16 18
M  V30 18 1 17 19
M  V30 19 1 19 20
M  V30 20 1 20 21
M  V30 21 1 14 15
M  V30 22 2 18 19
M  V30 23 1 4 22
M  V30 24 1 5 23
M  V30 25 1 5 24
M  V30 26 1 7 25
M  V30 27 1 7 26
M  V30 28 1 7 27
M  V30 29 1 8 28
M  V30 30 1 9 29
M  V30 31 1 10 30
M  V30 32 1 11 31
M  V30 33 1 12 32
M  V30 34 1 12 33
M  V30 35 1 12 34
M  V30 36 1 14 35
M  V30 37 1 16 36
M  V30 38 1 17 37
M  V30 39 1 18 38
M  V30 40 1 21 39
M  V30 41 1 21 40
M  V30 42 1 21 41
M  V30 END BOND
M  V30 BEGIN COLLECTION
M  V30 MDLV30/STEABS ATOMS=(2 4 8)
M  V30 END COLLECTION
M  V30 END CTAB
M  END
>  <Structure No>
8541

>  <LogS>
-3.31

>  <MMFF94 Energy>
63.741

$$$$
Compound 8542
Actelion Java MolfileCreator 2.0

  0  0  0  0  0  0              0 V3000
M  V30 BEGIN CTAB
M  V30 COUNTS 41 42 0 0 0
M  V30 BEGIN ATOM
M  V30 1 O -2.4621 -0.6349 -1.6674 0
M  V30 2 C -2.5384 0.5172 -1.1576 0
M  V30 3 O -3.6538 0.8763 -0.3888 0
M  V30 4 C -1.4467 1.522 -1.4342 0 CFG=2
M  V30 5 C -4.7018 -0.0322 -0.0543 0
M  V30 6 C -0.0769 0.9176 -1.1925 0
M  V30 7 C -1.6144 2.8014 -0.6039 0
M  V30 8 C -4.2793 -0.9716 1.0824 0
M  V30 9 C 0.2446 0.3381 0.0485 0
M  V30 10 C 0.8981 0.9558 -2.2034 0
M  V30 11 C -4.1415 -0.2411 2.4238 0
M  V30 12 C 1.5166 -0.2084 0.2726 0
M  V30 13 C 2.168 0.4144 -1.988 0
M  V30 14 O -3.0785 0.6724 2.392 0
M  V30 15 C 2.4874 -0.1709 -0.7546 0
M  V30 16 C 1.8354 -0.7917 1.5067 0
M  V30 17 C 3.7608 -0.7177 -0.5304 0
M  V30 18 C 3.1052 -1.3336 1.7206 0
M  V30 19 C 4.0749 -1.3029 0.7119 0
M  V30 20 O 5.3327 -1.8623 0.9832 0
M  V30 21 C 6.4128 -1.9027 0.0564 0
M  V30 22 H -1.5439 1.8115 -2.504 0
M  V30 23 H -5.596 0.5495 0.2553 0
M  V30 24 H -4.9887 -0.6267 -0.9489 0
M  V30 25 H -2.5778 3.296 -0.8528 0
M  V30 26 H -0.7933 3.5143 -0.8329 0
M  V30 27 H -1.5985 2.5744 0.4838 0
M  V30 28 H -3.3227 -1.4764 0.8278 0
M  V30 29 H -5.0556 -1.7594 1.1922 0
M  V30 30 H -0.4987 0.312 0.8354 0
M  V30 31 H 0.6766 1.4061 -3.163 0
M  V30 32 H -3.9848 -0.9858 3.2375 0
M  V30 33 H -5.0806 0.306 2.6536 0
M  V30 34 H 2.9004 0.4547 -2.7855 0
M  V30 35 H -2.2478 0.1439 2.5165 0
M  V30 36 H 1.1039 -0.8291 2.3054 0
M  V30 37 H 4.4989 -0.6852 -1.3215 0
M  V30 38 H 3.3384 -1.7814 2.6785 0
M  V30 39 H 6.707 -0.8715 -0.2322 0
M  V30 40 H 6.1217 -2.484 -0.8438 0
M  V30 41 H 7.2819 -2.3993 0.5341 0
M  V30 END ATOM
M  V30 BEGIN BOND
M  V30 1 2 1 2
M  V30 2 1 2 3
M  V30 3 1 2 4
M  V30 4 1 3 5
M  V30 5 1 4 6
M  V30 6 1 4 7
M  V30 7 1 5 8
M  V30 8 2 6 9
M  V30 9 1 6 10
M  V30 10 1 8 11
M  V30 11 1 9 12
M  V30 12 2 10 13
M  V30 13 1 11 14
M  V30 14 1 12 15
M  V30 15 2 12 16
M  V30 16 2 15 17
M  V30 17 1 16 18
M  V30 18 1 17 19
M  V30 19 1 19 20
M  V30 20 1 20 21
M  V30 21 1 13 15
M  V30 22 2 18 19
M  V30 23 1 4 22
M  V30 24 1 5 23
M  V30 25 1 5 24
M  V30 26 1 7 25
M  V30 27 1 7 26
M  V30 28 1 7 27
M  V30 29 1 8 28
M  V30 30 1 8 29
M  V30 31 1 9 30
M  V30 32 1 10 31
M  V30 33 1 11 32
M  V30 34 1 11 33
M  V30 35 1 13 34
M  V30 36 1 14 35
M  V30 37 1 16 36
M  V30 38 1 17 37
M  V30 39 1 18 38
M  V30 40 1 21 39
M  V30 41 1 21 40
M  V30 42 1 21 41
M  V30 END BOND
M  V30 BEGIN COLLECTION
M  V30 MDLV30/STEABS ATOMS=(1 4)
M  V30 END COLLECTION
M  V30 END CTAB
M  END
>  <Structure No>
8542

>  <LogS>
-3.4

>  <MMFF94 Energy>
47.932

$$$$
Compound 8543
Actelion Java MolfileCreator 2.0

  0  0  0  0  0  0              0 V3000
M  V30 BEGIN CTAB
M  V30 COUNTS 49 50 0 0 0
M  V30 BEGIN ATOM
M  V30 1 O -0.7915 -3.407 -0.7123 0
M  V30 2 C -1.1635 -2.3723 -1.3324 0
M  V30 3 O -2.3598 -1.7341 -0.9941 0
M  V30 4 C -0.2887 -1.771 -2.3946 0 CFG=1
M  V30 5 C -3.0687 -1.998 0.2141 0
M  V30 6 C 0.9197 -1.1214 -1.748 0
M  V30 7 C 0.0901 -2.8013 -3.4668 0
M  V30 8 C -2.3367 -1.3977 1.4248 0
M  V30 9 C 0.9319 0.2696 -1.5404 0
M  V30 10 C 1.9877 -1.894 -1.2534 0
M  V30 11 C -1.9801 0.093 1.2609 0
M  V30 12 C 1.9986 0.8832 -0.8678 0
M  V30 13 C 3.06 -1.2886 -0.5949 0
M  V30 14 C -3.1752 1.02 0.9771 0
M  V30 15 C 3.0753 0.0981 -0.3957 0
M  V30 16 C 2.0029 2.2679 -0.6494 0
M  V30 17 C -4.1955 1.0456 2.1242 0
M  V30 18 C 4.1429 0.7109 0.2778 0
M  V30 19 C 3.0677 2.8687 0.0253 0
M  V30 20 C -5.3141 2.0467 1.8429 0
M  V30 21 C 4.1434 2.1029 0.4909 0
M  V30 22 O 5.1884 2.7594 1.1582 0
M  V30 23 C 6.3539 2.1129 1.665 0
M  V30 24 H -0.8818 -0.9881 -2.9177 0
M  V30 25 H -3.1919 -3.0938 0.3541 0
M  V30 26 H -4.0861 -1.5632 0.137 0
M  V30 27 H 0.7838 -2.3449 -4.205 0
M  V30 28 H 0.5729 -3.6973 -3.0251 0
M  V30 29 H -0.8215 -3.1324 -4.0064 0
M  V30 30 H -1.3942 -1.9629 1.587 0
M  V30 31 H -2.9515 -1.5434 2.3369 0
M  V30 32 H 0.1002 0.8721 -1.8871 0
M  V30 33 H 1.9895 -2.9696 -1.3614 0
M  V30 34 H -1.4645 0.4363 2.1841 0
M  V30 35 H -1.2514 0.1997 0.4315 0
M  V30 36 H 3.8706 -1.9079 -0.2295 0
M  V30 37 H -2.7789 2.0488 0.8292 0
M  V30 38 H -3.6731 0.7262 0.0285 0
M  V30 39 H 1.1834 2.8853 -0.9986 0
M  V30 40 H -4.6524 0.0416 2.2498 0
M  V30 41 H -3.6874 1.3274 3.0729 0
M  V30 42 H 4.9641 0.1021 0.6349 0
M  V30 43 H 3.0576 3.9389 0.1874 0
M  V30 44 H -5.8471 1.7722 0.9061 0
M  V30 45 H -4.8996 3.0739 1.7443 0
M  V30 46 H -6.0434 2.0374 2.6823 0
M  V30 47 H 6.9097 1.6238 0.8348 0
M  V30 48 H 7.0136 2.87 2.139 0
M  V30 49 H 6.0715 1.3621 2.4327 0
M  V30 END ATOM
M  V30 BEGIN BOND
M  V30 1 2 1 2
M  V30 2 1 2 3
M  V30 3 1 2 4
M  V30 4 1 3 5
M  V30 5 1 4 6
M  V30 6 1 4 7
M  V30 7 1 5 8
M  V30 8 2 6 9
M  V30 9 1 6 10
M  V30 10 1 8 11
M  V30 11 1 9 12
M  V30 12 2 10 13
M  V30 13 1 11 14
M  V30 14 1 12 15
M  V30 15 2 12 16
M  V30 16 1 14 17
M  V30 17 2 15 18
M  V30 18 1 16 19
M  V30 19 1 17 20
M  V30 20 1 18 21
M  V30 21 1 21 22
M  V30 22 1 22 23
M  V30 23 1 13 15
M  V30 24 2 19 21
M  V30 25 1 4 24
M  V30 26 1 5 25
M  V30 27 1 5 26
M  V30 28 1 7 27
M  V30 29 1 7 28
M  V30 30 1 7 29
M  V30 31 1 8 30
M  V30 32 1 8 31
M  V30 33 1 9 32
M  V30 34 1 10 33
M  V30 35 1 11 34
M  V30 36 1 11 35
M  V30 37 1 13 36
M  V30 38 1 14 37
M  V30 39 1 14 38
M  V30 40 1 16 39
M  V30 41 1 17 40
M  V30 42 1 17 41
M  V30 43 1 18 42
M  V30 44 1 19 43
M  V30 45 1 20 44
M  V30 46 1 20 45
M  V30 47 1 20 46
M  V30 48 1 23 47
M  V30 49 1 23 48
M  V30 50 1 23 49
M  V30 END BOND
M  V30 BEGIN COLLECTION
M  V30 MDLV30/STEABS ATOMS=(1 4)
M  V30 END COLLECTION
M  V30 END CTAB
M  END
>  <Structure No>
8543

>  <LogS>
-7.54

>  <MMFF94 Energy>
46.311

$$$$
Compound 8544
Actelion Java MolfileCreator 2.0

  0  0  0  0  0  0              0 V3000
M  V30 BEGIN CTAB
M  V30 COUNTS 52 53 0 0 0
M  V30 BEGIN ATOM
M  V30 1 O 0.3163 2.3746 1.9786 0
M  V30 2 C 0.2256 2.4968 0.7265 0
M  V30 3 O 1.2605 2.0541 -0.1071 0
M  V30 4 C -1.0335 3.0642 0.1293 0 CFG=2
M  V30 5 C 2.3926 1.3281 0.3653 0
M  V30 6 C -2.0453 1.9634 -0.1205 0
M  V30 7 C -0.7478 3.8466 -1.1569 0
M  V30 8 C 2.0119 -0.1346 0.6254 0
M  V30 9 C -3.3353 2.0569 0.431 0
M  V30 10 C -1.72 0.8485 -0.9166 0
M  V30 11 C 3.1404 -0.9332 1.2955 0
M  V30 12 C -4.2829 1.0471 0.2044 0
M  V30 13 C -2.6569 -0.1619 -1.1438 0
M  V30 14 C 4.3444 -1.1524 0.3673 0
M  V30 15 C -3.9405 -0.0736 -0.5872 0
M  V30 16 C -5.5687 1.1384 0.7564 0
M  V30 17 C 5.3746 -2.0878 1.0175 0
M  V30 18 C -4.888 -1.0856 -0.81 0
M  V30 19 C -6.5055 0.1276 0.5276 0
M  V30 20 C 6.5549 -2.4039 0.086 0
M  V30 21 C -6.1778 -0.988 -0.2514 0
M  V30 22 C 7.4903 -1.2108 -0.1088 0
M  V30 23 O -7.1584 -1.9728 -0.4454 0
M  V30 24 C -6.9659 -3.1635 -1.2023 0
M  V30 25 H -1.4474 3.7929 0.8619 0
M  V30 26 H 2.7967 1.8052 1.285 0
M  V30 27 H 3.176 1.3706 -0.419 0
M  V30 28 H -0.3259 3.1868 -1.9443 0
M  V30 29 H -1.6867 4.2999 -1.5402 0
M  V30 30 H -0.0245 4.6651 -0.9513 0
M  V30 31 H 1.1252 -0.1644 1.2949 0
M  V30 32 H 1.7207 -0.6182 -0.3324 0
M  V30 33 H -3.6009 2.9157 1.0379 0
M  V30 34 H -0.7373 0.7585 -1.3613 0
M  V30 35 H 3.469 -0.413 2.2222 0
M  V30 36 H 2.7274 -1.9219 1.5928 0
M  V30 37 H -2.3778 -1.0117 -1.7557 0
M  V30 38 H 4.8227 -0.1735 0.1567 0
M  V30 39 H 3.9973 -1.5955 -0.5922 0
M  V30 40 H -5.8497 1.9902 1.365 0
M  V30 41 H 4.8758 -3.0472 1.275 0
M  V30 42 H 5.7508 -1.6396 1.9637 0
M  V30 43 H -4.6182 -1.9416 -1.4152 0
M  V30 44 H -7.4949 0.2106 0.9601 0
M  V30 45 H 7.1425 -3.235 0.5327 0
M  V30 46 H 6.1815 -2.7497 -0.9023 0
M  V30 47 H 7.8297 -0.8173 0.8727 0
M  V30 48 H 6.9843 -0.403 -0.6765 0
M  V30 49 H 8.3825 -1.5321 -0.6867 0
M  V30 50 H -6.7214 -2.9113 -2.2558 0
M  V30 51 H -7.9032 -3.7568 -1.1874 0
M  V30 52 H -6.1519 -3.773 -0.7551 0
M  V30 END ATOM
M  V30 BEGIN BOND
M  V30 1 2 1 2
M  V30 2 1 2 3
M  V30 3 1 2 4
M  V30 4 1 3 5
M  V30 5 1 4 6
M  V30 6 1 4 7
M  V30 7 1 5 8
M  V30 8 2 6 9
M  V30 9 1 6 10
M  V30 10 1 8 11
M  V30 11 1 9 12
M  V30 12 2 10 13
M  V30 13 1 11 14
M  V30 14 1 12 15
M  V30 15 2 12 16
M  V30 16 1 14 17
M  V30 17 2 15 18
M  V30 18 1 16 19
M  V30 19 1 17 20
M  V30 20 1 18 21
M  V30 21 1 20 22
M  V30 22 1 21 23
M  V30 23 1 23 24
M  V30 24 1 13 15
M  V30 25 2 19 21
M  V30 26 1 4 25
M  V30 27 1 5 26
M  V30 28 1 5 27
M  V30 29 1 7 28
M  V30 30 1 7 29
M  V30 31 1 7 30
M  V30 32 1 8 31
M  V30 33 1 8 32
M  V30 34 1 9 33
M  V30 35 1 10 34
M  V30 36 1 11 35
M  V30 37 1 11 36
M  V30 38 1 13 37
M  V30 39 1 14 38
M  V30 40 1 14 39
M  V30 41 1 16 40
M  V30 42 1 17 41
M  V30 43 1 17 42
M  V30 44 1 18 43
M  V30 45 1 19 44
M  V30 46 1 20 45
M  V30 47 1 20 46
M  V30 48 1 22 47
M  V30 49 1 22 48
M  V30 50 1 22 49
M  V30 51 1 24 50
M  V30 52 1 24 51
M  V30 53 1 24 52
M  V30 END BOND
M  V30 BEGIN COLLECTION
M  V30 MDLV30/STEABS ATOMS=(1 4)
M  V30 END COLLECTION
M  V30 END CTAB
M  END
>  <Structure No>
8544

>  <LogS>
-7.12

>  <MMFF94 Energy>
47.337

$$$$
Compound 8545
Actelion Java MolfileCreator 2.0

  0  0  0  0  0  0              0 V3000
M  V30 BEGIN CTAB
M  V30 COUNTS 39 40 0 0 0
M  V30 BEGIN ATOM
M  V30 1 O 2.9495 -0.2389 2.7101 0
M  V30 2 C 2.7247 -0.9275 1.6757 0
M  V30 3 O 3.4398 -0.6898 0.4972 0
M  V30 4 C 1.628 -1.959 1.6573 0 CFG=2
M  V30 5 C 4.3078 0.4268 0.3225 0
M  V30 6 C 0.463 -1.4545 0.8308 0
M  V30 7 C 1.1664 -2.3609 3.0647 0
M  V30 8 C 3.5166 1.7058 0.2789 0
M  V30 9 C -0.1598 -0.23 1.1375 0
M  V30 10 C -4.0E-4 -2.2031 -0.2639 0
M  V30 11 O 3.8099 2.6248 1.028 0
M  V30 12 C 2.3784 1.8751 -0.6825 0
M  V30 13 C -1.2148 0.2502 0.3484 0
M  V30 14 C -1.0557 -1.7344 -1.0506 0
M  V30 15 C -1.6669 -0.5075 -0.756 0
M  V30 16 C -1.8225 1.4789 0.6412 0
M  V30 17 C -2.7202 -0.0242 -1.5486 0
M  V30 18 C -2.8694 1.9522 -0.1533 0
M  V30 19 C -3.3268 1.2113 -1.2489 0
M  V30 20 O -4.3815 1.7359 -2.0112 0
M  V30 21 C -4.9488 1.0954 -3.1493 0
M  V30 22 H 2.0549 -2.871 1.1843 0
M  V30 23 H 5.0619 0.4525 1.1396 0
M  V30 24 H 4.8495 0.3099 -0.639 0
M  V30 25 H 2.0234 -2.7639 3.6457 0
M  V30 26 H 0.7404 -1.4919 3.6106 0
M  V30 27 H 0.3902 -3.1527 2.9964 0
M  V30 28 H 0.1911 0.3547 1.9798 0
M  V30 29 H 0.4604 -3.1499 -0.5168 0
M  V30 30 H 2.5891 2.7256 -1.3639 0
M  V30 31 H 1.4442 2.0825 -0.1198 0
M  V30 32 H 2.2315 0.9573 -1.2907 0
M  V30 33 H -1.3903 -2.3292 -1.892 0
M  V30 34 H -1.4885 2.0737 1.4836 0
M  V30 35 H -3.0606 -0.6095 -2.3933 0
M  V30 36 H -3.3302 2.9029 0.084 0
M  V30 37 H -5.3761 0.112 -2.8607 0
M  V30 38 H -5.7628 1.7308 -3.5545 0
M  V30 39 H -4.1771 0.9614 -3.9363 0
M  V30 END ATOM
M  V30 BEGIN BOND
M  V30 1 2 1 2
M  V30 2 1 2 3
M  V30 3 1 2 4
M  V30 4 1 3 5
M  V30 5 1 4 6
M  V30 6 1 4 7
M  V30 7 1 5 8
M  V30 8 2 6 9
M  V30 9 1 6 10
M  V30 10 2 8 11
M  V30 11 1 8 12
M  V30 12 1 9 13
M  V30 13 2 10 14
M  V30 14 1 13 15
M  V30 15 2 13 16
M  V30 16 2 15 17
M  V30 17 1 16 18
M  V30 18 1 17 19
M  V30 19 1 19 20
M  V30 20 1 20 21
M  V30 21 1 14 15
M  V30 22 2 18 19
M  V30 23 1 4 22
M  V30 24 1 5 23
M  V30 25 1 5 24
M  V30 26 1 7 25
M  V30 27 1 7 26
M  V30 28 1 7 27
M  V30 29 1 9 28
M  V30 30 1 10 29
M  V30 31 1 12 30
M  V30 32 1 12 31
M  V30 33 1 12 32
M  V30 34 1 14 33
M  V30 35 1 16 34
M  V30 36 1 17 35
M  V30 37 1 18 36
M  V30 38 1 21 37
M  V30 39 1 21 38
M  V30 40 1 21 39
M  V30 END BOND
M  V30 BEGIN COLLECTION
M  V30 MDLV30/STEABS ATOMS=(1 4)
M  V30 END COLLECTION
M  V30 END CTAB
M  END
>  <Structure No>
8545

>  <LogS>
-4.65

>  <MMFF94 Energy>
60.719

$$$$
Compound 8546
Actelion Java MolfileCreator 2.0

  0  0  0  0  0  0              0 V3000
M  V30 BEGIN CTAB
M  V30 COUNTS 45 46 0 0 0
M  V30 BEGIN ATOM
M  V30 1 O -0.9521 -2.6994 -2.7789 0
M  V30 2 C -1.2743 -2.5574 -1.5673 0
M  V30 3 O -2.4299 -1.8507 -1.2194 0
M  V30 4 C -0.3732 -3.101 -0.49 0 CFG=1
M  V30 5 C -3.262 -1.2027 -2.1764 0
M  V30 6 C 0.7168 -2.1062 -0.1396 0
M  V30 7 C -1.1659 -3.4893 0.7636 0
M  V30 8 C -4.4267 -0.5128 -1.4692 0
M  V30 9 C 0.4086 -0.7632 0.1571 0
M  V30 10 C 2.051 -2.5376 -0.0456 0
M  V30 11 C -3.9363 0.4565 -0.481 0
M  V30 12 C 1.4214 0.1384 0.5155 0
M  V30 13 C 3.0637 -1.6469 0.3194 0
M  V30 14 C -3.527 1.2422 0.3361 0
M  V30 15 C 2.7602 -0.3072 0.602 0
M  V30 16 C 1.1176 1.4782 0.7955 0
M  V30 17 C -3.0276 2.1918 1.3352 0
M  V30 18 C 3.7707 0.5923 0.9777 0
M  V30 19 C 2.1287 2.3655 1.17 0
M  V30 20 C -2.6886 3.5261 0.6811 0
M  V30 21 C 3.4566 1.935 1.2674 0
M  V30 22 O 4.4287 2.868 1.6548 0
M  V30 23 C 5.8159 2.5772 1.7875 0
M  V30 24 H 0.087 -4.0346 -0.8861 0
M  V30 25 H -3.6644 -1.9544 -2.8884 0
M  V30 26 H -2.6692 -0.4514 -2.7434 0
M  V30 27 H -0.4888 -3.96 1.5079 0
M  V30 28 H -1.9613 -4.2208 0.5034 0
M  V30 29 H -1.6377 -2.5967 1.2268 0
M  V30 30 H -5.0517 -1.2718 -0.953 0
M  V30 31 H -5.0555 0.0177 -2.2156 0
M  V30 32 H -0.6187 -0.4219 0.114 0
M  V30 33 H 2.3094 -3.5699 -0.2488 0
M  V30 34 H 4.0833 -2.0076 0.3849 0
M  V30 35 H 0.0996 1.8397 0.7242 0
M  V30 36 H -3.8058 2.3435 2.114 0
M  V30 37 H -2.121 1.7695 1.8161 0
M  V30 38 H 4.7925 0.2428 1.0456 0
M  V30 39 H 1.8787 3.3962 1.387 0
M  V30 40 H -1.9347 3.3831 -0.1222 0
M  V30 41 H -2.2651 4.2159 1.4419 0
M  V30 42 H -3.6036 3.9899 0.2499 0
M  V30 43 H 6.2332 2.2558 0.8101 0
M  V30 44 H 5.9691 1.7837 2.5497 0
M  V30 45 H 6.3482 3.493 2.1173 0
M  V30 END ATOM
M  V30 BEGIN BOND
M  V30 1 2 1 2
M  V30 2 1 2 3
M  V30 3 1 2 4
M  V30 4 1 3 5
M  V30 5 1 4 6
M  V30 6 1 4 7
M  V30 7 1 5 8
M  V30 8 2 6 9
M  V30 9 1 6 10
M  V30 10 1 8 11
M  V30 11 1 9 12
M  V30 12 2 10 13
M  V30 13 3 11 14
M  V30 14 1 12 15
M  V30 15 2 12 16
M  V30 16 1 14 17
M  V30 17 2 15 18
M  V30 18 1 16 19
M  V30 19 1 17 20
M  V30 20 1 18 21
M  V30 21 1 21 22
M  V30 22 1 22 23
M  V30 23 1 13 15
M  V30 24 2 19 21
M  V30 25 1 4 24
M  V30 26 1 5 25
M  V30 27 1 5 26
M  V30 28 1 7 27
M  V30 29 1 7 28
M  V30 30 1 7 29
M  V30 31 1 8 30
M  V30 32 1 8 31
M  V30 33 1 9 32
M  V30 34 1 10 33
M  V30 35 1 13 34
M  V30 36 1 16 35
M  V30 37 1 17 36
M  V30 38 1 17 37
M  V30 39 1 18 38
M  V30 40 1 19 39
M  V30 41 1 20 40
M  V30 42 1 20 41
M  V30 43 1 20 42
M  V30 44 1 23 43
M  V30 45 1 23 44
M  V30 46 1 23 45
M  V30 END BOND
M  V30 BEGIN COLLECTION
M  V30 MDLV30/STEABS ATOMS=(1 4)
M  V30 END COLLECTION
M  V30 END CTAB
M  END
>  <Structure No>
8546

>  <LogS>
-7.33

>  <MMFF94 Energy>
55.561

$$$$
Compound 8547
Actelion Java MolfileCreator 2.0

  0  0  0  0  0  0              0 V3000
M  V30 BEGIN CTAB
M  V30 COUNTS 42 43 0 0 0
M  V30 BEGIN ATOM
M  V30 1 O 1.8265 2.0649 2.1444 0
M  V30 2 C 1.8513 0.8388 1.8488 0
M  V30 3 O 2.8707 0.3259 1.0405 0
M  V30 4 C 0.7492 -0.0647 2.3309 0 CFG=1
M  V30 5 C 3.927 1.1292 0.5255 0
M  V30 6 C -0.3137 -0.2233 1.2625 0
M  V30 7 C 1.2978 -1.4259 2.7744 0
M  V30 8 C 4.8866 0.2578 -0.2938 0 CFG=1
M  V30 9 C -1.6359 0.18 1.5198 0
M  V30 10 C -6.0E-4 -0.7775 0.0078 0
M  V30 11 O 4.2059 -0.305 -1.3869 0
M  V30 12 C 6.0675 1.0918 -0.8066 0
M  V30 13 C -2.6303 0.0366 0.5395 0
M  V30 14 C -0.9856 -0.9253 -0.9722 0
M  V30 15 O 7.0007 0.2711 -1.4546 0
M  V30 16 C -2.3023 -0.5202 -0.717 0
M  V30 17 C -3.948 0.4435 0.793 0
M  V30 18 C -3.2969 -0.6604 -1.6969 0
M  V30 19 C -4.9319 0.3011 -0.1897 0
M  V30 20 C -4.6118 -0.2529 -1.4427 0
M  V30 21 O -5.5662 -0.4147 -2.4576 0
M  V30 22 C -6.9391 -0.0563 -2.3362 0
M  V30 23 H 0.3017 0.4041 3.2358 0
M  V30 24 H 3.5026 1.9324 -0.118 0
M  V30 25 H 4.4766 1.5948 1.3724 0
M  V30 26 H 0.4707 -2.059 3.1613 0
M  V30 27 H 1.7898 -1.9583 1.932 0
M  V30 28 H 2.041 -1.2893 3.5886 0
M  V30 29 H 5.2918 -0.5473 0.3635 0
M  V30 30 H -1.8906 0.6067 2.4826 0
M  V30 31 H 1.0086 -1.0974 -0.2158 0
M  V30 32 H 3.7121 -1.0953 -1.0443 0
M  V30 33 H 6.5761 1.5827 0.05 0
M  V30 34 H 5.7101 1.8923 -1.4936 0
M  V30 35 H -0.7169 -1.3541 -1.9297 0
M  V30 36 H 6.6518 0.1057 -2.3684 0
M  V30 37 H -4.2176 0.8748 1.7505 0
M  V30 38 H -3.0546 -1.0861 -2.6632 0
M  V30 39 H -5.9381 0.6262 0.0352 0
M  V30 40 H -7.4127 -0.6314 -1.5126 0
M  V30 41 H -7.4613 -0.2988 -3.2841 0
M  V30 42 H -7.0339 1.0329 -2.1461 0
M  V30 END ATOM
M  V30 BEGIN BOND
M  V30 1 2 1 2
M  V30 2 1 2 3
M  V30 3 1 2 4
M  V30 4 1 3 5
M  V30 5 1 4 6
M  V30 6 1 4 7
M  V30 7 1 5 8
M  V30 8 2 6 9
M  V30 9 1 6 10
M  V30 10 1 8 11
M  V30 11 1 8 12
M  V30 12 1 9 13
M  V30 13 2 10 14
M  V30 14 1 12 15
M  V30 15 1 13 16
M  V30 16 2 13 17
M  V30 17 2 16 18
M  V30 18 1 17 19
M  V30 19 1 18 20
M  V30 20 1 20 21
M  V30 21 1 21 22
M  V30 22 1 14 16
M  V30 23 2 19 20
M  V30 24 1 4 23
M  V30 25 1 5 24
M  V30 26 1 5 25
M  V30 27 1 7 26
M  V30 28 1 7 27
M  V30 29 1 7 28
M  V30 30 1 8 29
M  V30 31 1 9 30
M  V30 32 1 10 31
M  V30 33 1 11 32
M  V30 34 1 12 33
M  V30 35 1 12 34
M  V30 36 1 14 35
M  V30 37 1 15 36
M  V30 38 1 17 37
M  V30 39 1 18 38
M  V30 40 1 19 39
M  V30 41 1 22 40
M  V30 42 1 22 41
M  V30 43 1 22 42
M  V30 END BOND
M  V30 BEGIN COLLECTION
M  V30 MDLV30/STEABS ATOMS=(2 4 8)
M  V30 END COLLECTION
M  V30 END CTAB
M  END
>  <Structure No>
8547

>  <LogS>
-2.62

>  <MMFF94 Energy>
81.87

$$$$
Compound 8548
Actelion Java MolfileCreator 2.0

  0  0  0  0  0  0              0 V3000
M  V30 BEGIN CTAB
M  V30 COUNTS 48 50 0 0 0
M  V30 BEGIN ATOM
M  V30 1 O -2.1606 2.3208 -0.3198 0
M  V30 2 C -1.6516 1.813 0.718 0
M  V30 3 O -2.1718 0.6325 1.26 0
M  V30 4 C -0.4335 2.4263 1.3551 0 CFG=1
M  V30 5 C -3.2087 -0.1318 0.6417 0 CFG=2
M  V30 6 C 0.8142 1.6892 0.9147 0
M  V30 7 C -0.3143 3.9288 1.0677 0
M  V30 8 C -3.8343 -1.1131 1.6721 0 CFG=2
M  V30 9 C -2.6561 -0.8919 -0.5764 0
M  V30 10 C 1.1377 1.5698 -0.45 0
M  V30 11 C 1.6702 1.1208 1.8732 0
M  V30 12 O -2.864 -1.5475 2.5926 0
M  V30 13 C -4.4727 -2.3567 1.0085 0
M  V30 14 C -3.7711 -1.6484 -1.3271 0
M  V30 15 C 2.2928 0.8826 -0.8514 0
M  V30 16 C 2.8233 0.4366 1.4813 0
M  V30 17 C -4.9445 -2.0682 -0.4198 0
M  V30 18 C 3.1433 0.3103 0.1223 0
M  V30 19 C 2.6122 0.7565 -2.2104 0
M  V30 20 C 4.299 -0.3779 -0.2794 0
M  V30 21 C 3.7642 0.0696 -2.6008 0
M  V30 22 C 4.6141 -0.5011 -1.6467 0
M  V30 23 O 5.7567 -1.1794 -2.0968 0
M  V30 24 C 6.7084 -1.8076 -1.2441 0
M  V30 25 H -0.5603 2.32 2.4555 0
M  V30 26 H -4.0093 0.5612 0.2951 0
M  V30 27 H -1.2221 4.4582 1.4287 0
M  V30 28 H -0.1964 4.1222 -0.0199 0
M  V30 29 H 0.5667 4.3468 1.6002 0
M  V30 30 H -4.6443 -0.5667 2.2127 0
M  V30 31 H -2.1597 -0.1881 -1.2783 0
M  V30 32 H -1.8844 -1.615 -0.2309 0
M  V30 33 H 0.4863 2.0082 -1.197 0
M  V30 34 H 1.4452 1.2046 2.9292 0
M  V30 35 H -2.8081 -0.859 3.3061 0
M  V30 36 H -3.7362 -3.1904 0.9724 0
M  V30 37 H -5.3344 -2.7027 1.6201 0
M  V30 38 H -3.3303 -2.5519 -1.802 0
M  V30 39 H -4.1676 -1.0062 -2.1437 0
M  V30 40 H 3.4644 0.006 2.2413 0
M  V30 41 H -5.4338 -2.9728 -0.8411 0
M  V30 42 H -5.7049 -1.2568 -0.3929 0
M  V30 43 H 1.972 1.1883 -2.9706 0
M  V30 44 H 4.9452 -0.8132 0.4719 0
M  V30 45 H 3.9991 -0.0204 -3.6537 0
M  V30 46 H 6.2186 -2.6072 -0.649 0
M  V30 47 H 7.5052 -2.2649 -1.8653 0
M  V30 48 H 7.1706 -1.0567 -0.5691 0
M  V30 END ATOM
M  V30 BEGIN BOND
M  V30 1 2 1 2
M  V30 2 1 2 3
M  V30 3 1 2 4
M  V30 4 1 3 5
M  V30 5 1 4 6
M  V30 6 1 4 7
M  V30 7 1 5 8
M  V30 8 1 5 9
M  V30 9 2 6 10
M  V30 10 1 6 11
M  V30 11 1 8 12
M  V30 12 1 8 13
M  V30 13 1 9 14
M  V30 14 1 10 15
M  V30 15 2 11 16
M  V30 16 1 13 17
M  V30 17 1 15 18
M  V30 18 2 15 19
M  V30 19 2 18 20
M  V30 20 1 19 21
M  V30 21 1 20 22
M  V30 22 1 22 23
M  V30 23 1 23 24
M  V30 24 1 14 17
M  V30 25 1 16 18
M  V30 26 2 21 22
M  V30 27 1 4 25
M  V30 28 1 5 26
M  V30 29 1 7 27
M  V30 30 1 7 28
M  V30 31 1 7 29
M  V30 32 1 8 30
M  V30 33 1 9 31
M  V30 34 1 9 32
M  V30 35 1 10 33
M  V30 36 1 11 34
M  V30 37 1 12 35
M  V30 38 1 13 36
M  V30 39 1 13 37
M  V30 40 1 14 38
M  V30 41 1 14 39
M  V30 42 1 16 40
M  V30 43 1 17 41
M  V30 44 1 17 42
M  V30 45 1 19 43
M  V30 46 1 20 44
M  V30 47 1 21 45
M  V30 48 1 24 46
M  V30 49 1 24 47
M  V30 50 1 24 48
M  V30 END BOND
M  V30 BEGIN COLLECTION
M  V30 MDLV30/STEABS ATOMS=(3 4 5 8)
M  V30 END COLLECTION
M  V30 END CTAB
M  END
>  <Structure No>
8548

>  <LogS>
-5.07

>  <MMFF94 Energy>
70.901

$$$$
Compound 8549
Actelion Java MolfileCreator 2.0

  0  0  0  0  0  0              0 V3000
M  V30 BEGIN CTAB
M  V30 COUNTS 54 55 0 0 0
M  V30 BEGIN ATOM
M  V30 1 O 0.1587 1.9062 -1.5883 0
M  V30 2 C 0.5352 1.4346 -0.4807 0
M  V30 3 O -0.2904 0.5773 0.2542 0
M  V30 4 C 1.9049 1.7478 0.0308 0
M  V30 5 C -1.6383 0.2704 -0.1058 0 CFG=1
M  V30 6 C 2.9511 0.8627 -0.6598 0
M  V30 7 C -2.0464 -1.0515 0.4959 0 CFG=2
M  V30 8 C -2.6255 1.2396 0.5416 0 CFG=2
M  V30 9 C 4.3943 1.2254 -0.262 0
M  V30 10 O -2.0966 -2.0542 -0.4706 0
M  V30 11 C -3.4388 -0.8301 0.9948 0 CFG=1
M  V30 12 O -3.8022 0.5218 0.8336 0
M  V30 13 C -2.9495 2.4515 -0.359 0 CFG=1
M  V30 14 C 4.7438 0.9645 1.2174 0
M  V30 15 C -3.4554 -2.4121 -0.6033 0
M  V30 16 O -4.2836 -1.6322 0.2316 0
M  V30 17 O -3.6253 2.0232 -1.5145 0
M  V30 18 C -3.7919 3.5031 0.3814 0
M  V30 19 C 4.6694 -0.5132 1.6525 0
M  V30 20 C -3.6183 -3.8875 -0.2254 0
M  V30 21 C -3.8799 -2.1931 -2.058 0
M  V30 22 O -5.0661 2.9987 0.675 0
M  V30 23 C 5.7224 -1.4131 0.9698 0
M  V30 24 C 5.1231 -2.2826 -0.1342 0
M  V30 25 H 2.1289 2.8199 -0.1565 0
M  V30 26 H 1.9178 1.5741 1.1265 0
M  V30 27 H -1.7599 0.235 -1.2132 0
M  V30 28 H 2.7417 -0.2076 -0.452 0
M  V30 29 H 2.8623 1.0029 -1.76 0
M  V30 30 H -1.3729 -1.3552 1.3286 0
M  V30 31 H -2.1936 1.608 1.5013 0
M  V30 32 H 4.5627 2.3057 -0.4757 0
M  V30 33 H 5.1006 0.6674 -0.9125 0
M  V30 34 H -3.529 -1.1152 2.0658 0
M  V30 35 H -1.9892 2.939 -0.641 0
M  V30 36 H 5.7742 1.3385 1.4048 0
M  V30 37 H 4.0773 1.5667 1.8716 0
M  V30 38 H -3.5108 2.7357 -2.1967 0
M  V30 39 H -3.276 3.8048 1.3211 0
M  V30 40 H -3.892 4.4055 -0.2633 0
M  V30 41 H 3.6414 -0.9139 1.5211 0
M  V30 42 H 4.8611 -0.5356 2.7496 0
M  V30 43 H -3.2866 -4.0488 0.8221 0
M  V30 44 H -3.0032 -4.5293 -0.8912 0
M  V30 45 H -4.6834 -4.1943 -0.309 0
M  V30 46 H -3.2574 -2.8112 -2.7404 0
M  V30 47 H -4.9488 -2.4657 -2.1952 0
M  V30 48 H -3.7496 -1.1246 -2.3348 0
M  V30 49 H -5.5393 3.7181 1.166 0
M  V30 50 H 6.558 -0.8102 0.5531 0
M  V30 51 H 6.1629 -2.092 1.7326 0
M  V30 52 H 4.6932 -1.6585 -0.9416 0
M  V30 53 H 5.918 -2.9225 -0.5736 0
M  V30 54 H 4.3281 -2.9405 0.2812 0
M  V30 END ATOM
M  V30 BEGIN BOND
M  V30 1 2 1 2
M  V30 2 1 2 3
M  V30 3 1 2 4
M  V30 4 1 3 5
M  V30 5 1 4 6
M  V30 6 1 5 7
M  V30 7 1 5 8
M  V30 8 1 6 9
M  V30 9 1 7 10
M  V30 10 1 7 11
M  V30 11 1 8 12
M  V30 12 1 8 13
M  V30 13 1 9 14
M  V30 14 1 10 15
M  V30 15 1 11 16
M  V30 16 1 13 17
M  V30 17 1 13 18
M  V30 18 1 14 19
M  V30 19 1 15 20
M  V30 20 1 15 21
M  V30 21 1 18 22
M  V30 22 1 19 23
M  V30 23 1 23 24
M  V30 24 1 11 12
M  V30 25 1 15 16
M  V30 26 1 4 25
M  V30 27 1 4 26
M  V30 28 1 5 27
M  V30 29 1 6 28
M  V30 30 1 6 29
M  V30 31 1 7 30
M  V30 32 1 8 31
M  V30 33 1 9 32
M  V30 34 1 9 33
M  V30 35 1 11 34
M  V30 36 1 13 35
M  V30 37 1 14 36
M  V30 38 1 14 37
M  V30 39 1 17 38
M  V30 40 1 18 39
M  V30 41 1 18 40
M  V30 42 1 19 41
M  V30 43 1 19 42
M  V30 44 1 20 43
M  V30 45 1 20 44
M  V30 46 1 20 45
M  V30 47 1 21 46
M  V30 48 1 21 47
M  V30 49 1 21 48
M  V30 50 1 22 49
M  V30 51 1 23 50
M  V30 52 1 23 51
M  V30 53 1 24 52
M  V30 54 1 24 53
M  V30 55 1 24 54
M  V30 END BOND
M  V30 BEGIN COLLECTION
M  V30 MDLV30/STEABS ATOMS=(5 5 7 8 11 13)
M  V30 END COLLECTION
M  V30 END CTAB
M  END
>  <Structure No>
8549

>  <LogS>
-3.17

>  <MMFF94 Energy>
58.989

$$$$
Compound 8550
Actelion Java MolfileCreator 2.0

  0  0  0  0  0  0              0 V3000
M  V30 BEGIN CTAB
M  V30 COUNTS 46 48 0 0 0
M  V30 BEGIN ATOM
M  V30 1 O -2.9704 2.8097 0.0801 0
M  V30 2 C -3.4672 1.706 -0.0862 0
M  V30 3 C -3.6617 1.1696 -1.4817 0 CFG=1
M  V30 4 C -3.8679 0.8804 1.107 0
M  V30 5 O -2.5867 0.2953 -1.8217 0
M  V30 6 C -4.9927 0.4065 -1.5531 0
M  V30 7 C -4.1571 -0.5709 0.7048 0
M  V30 8 C -1.2979 0.7461 -2.1362 0
M  V30 9 C -5.1625 -0.6745 -0.4575 0
M  V30 10 O -1.069 1.9789 -2.2764 0
M  V30 11 C -0.1602 -0.2321 -2.2622 0 CFG=1
M  V30 12 C 0.7354 -0.1646 -1.0414 0
M  V30 13 C -0.6565 -1.6654 -2.4882 0
M  V30 14 C 2.1196 0.0276 -1.1936 0
M  V30 15 C 0.2033 -0.3179 0.2524 0
M  V30 16 C 2.9598 0.0813 -0.0706 0
M  V30 17 C 1.0326 -0.2651 1.3748 0
M  V30 18 C 2.4114 -0.0649 1.2244 0
M  V30 19 C 4.3399 0.2789 -0.2196 0
M  V30 20 C 3.2523 -0.01 2.3465 0
M  V30 21 C 5.1696 0.3324 0.9038 0
M  V30 22 C 4.6301 0.1881 2.1963 0
M  V30 23 O 5.4244 0.2355 3.3517 0
M  V30 24 C 6.8345 0.4332 3.3508 0
M  V30 25 H -3.7071 2.0087 -2.2122 0
M  V30 26 H -3.0448 0.8878 1.854 0
M  V30 27 H -4.7713 1.3294 1.5729 0
M  V30 28 H -5.8206 1.144 -1.4562 0
M  V30 29 H -5.0949 -0.0607 -2.5567 0
M  V30 30 H -4.5495 -1.1263 1.584 0
M  V30 31 H -3.2062 -1.0619 0.4055 0
M  V30 32 H -5.0604 -1.6819 -0.9178 0
M  V30 33 H -6.1943 -0.6095 -0.0472 0
M  V30 34 H 0.4182 0.057 -3.168 0
M  V30 35 H 0.2087 -2.3484 -2.627 0
M  V30 36 H -1.2857 -1.7111 -3.4029 0
M  V30 37 H -1.2559 -2.0225 -1.623 0
M  V30 38 H 2.5419 0.136 -2.1861 0
M  V30 39 H -0.8573 -0.4748 0.3929 0
M  V30 40 H 0.5953 -0.3812 2.3596 0
M  V30 41 H 4.7774 0.3926 -1.2045 0
M  V30 42 H 2.8408 -0.1208 3.3432 0
M  V30 43 H 6.2296 0.4866 0.7562 0
M  V30 44 H 7.0821 1.4139 2.8923 0
M  V30 45 H 7.3345 -0.3871 2.794 0
M  V30 46 H 7.2021 0.4278 4.3976 0
M  V30 END ATOM
M  V30 BEGIN BOND
M  V30 1 2 1 2
M  V30 2 1 2 3
M  V30 3 1 2 4
M  V30 4 1 3 5
M  V30 5 1 3 6
M  V30 6 1 4 7
M  V30 7 1 5 8
M  V30 8 1 6 9
M  V30 9 2 8 10
M  V30 10 1 8 11
M  V30 11 1 11 12
M  V30 12 1 11 13
M  V30 13 2 12 14
M  V30 14 1 12 15
M  V30 15 1 14 16
M  V30 16 2 15 17
M  V30 17 1 16 18
M  V30 18 2 16 19
M  V30 19 2 18 20
M  V30 20 1 19 21
M  V30 21 1 20 22
M  V30 22 1 22 23
M  V30 23 1 23 24
M  V30 24 1 7 9
M  V30 25 1 17 18
M  V30 26 2 21 22
M  V30 27 1 3 25
M  V30 28 1 4 26
M  V30 29 1 4 27
M  V30 30 1 6 28
M  V30 31 1 6 29
M  V30 32 1 7 30
M  V30 33 1 7 31
M  V30 34 1 9 32
M  V30 35 1 9 33
M  V30 36 1 11 34
M  V30 37 1 13 35
M  V30 38 1 13 36
M  V30 39 1 13 37
M  V30 40 1 14 38
M  V30 41 1 15 39
M  V30 42 1 17 40
M  V30 43 1 19 41
M  V30 44 1 20 42
M  V30 45 1 21 43
M  V30 46 1 24 44
M  V30 47 1 24 45
M  V30 48 1 24 46
M  V30 END BOND
M  V30 BEGIN COLLECTION
M  V30 MDLV30/STEABS ATOMS=(2 3 11)
M  V30 END COLLECTION
M  V30 END CTAB
M  END
>  <Structure No>
8550

>  <LogS>
-5.59

>  <MMFF94 Energy>
61.503

$$$$
Compound 8551
Actelion Java MolfileCreator 2.0

  0  0  0  0  0  0              0 V3000
M  V30 BEGIN CTAB
M  V30 COUNTS 47 48 0 0 0
M  V30 BEGIN ATOM
M  V30 1 O -1.2665 -3.3273 -1.821 0
M  V30 2 C -0.7957 -2.9212 -0.7228 0
M  V30 3 O -1.6226 -2.2951 0.2148 0
M  V30 4 C 0.6618 -3.1234 -0.4163 0 CFG=1
M  V30 5 C -2.9975 -2.0201 -0.0264 0
M  V30 6 C 1.3133 -1.8061 -0.0335 0
M  V30 7 C 0.8423 -4.1937 0.6662 0
M  V30 8 C -3.5551 -1.2029 1.136 0
M  V30 9 C 2.1825 -1.1686 -0.9374 0
M  V30 10 C 1.027 -1.1785 1.1951 0
M  V30 11 C -4.9931 -0.8234 0.8911 0
M  V30 12 C 2.7671 0.0664 -0.6173 0
M  V30 13 C 1.6047 0.0503 1.5201 0
M  V30 14 C -5.3886 0.2589 0.1952 0
M  V30 15 C 2.476 0.6808 0.622 0
M  V30 16 C 3.6361 0.7011 -1.5172 0
M  V30 17 C -4.4565 1.2949 -0.3805 0
M  V30 18 C 3.0583 1.917 0.9401 0
M  V30 19 C 4.2114 1.9327 -1.1922 0
M  V30 20 C -4.1613 2.3891 0.6409 0
M  V30 21 C 3.9246 2.55 0.0403 0
M  V30 22 O 4.4757 3.7871 0.4066 0
M  V30 23 C 5.3717 4.5413 -0.4042 0
M  V30 24 H 1.1564 -3.5188 -1.3327 0
M  V30 25 H -3.0998 -1.4543 -0.9765 0
M  V30 26 H -3.5564 -2.9768 -0.1164 0
M  V30 27 H 1.9175 -4.2947 0.9264 0
M  V30 28 H 0.4824 -5.1746 0.2895 0
M  V30 29 H 0.2709 -3.9441 1.5851 0
M  V30 30 H -2.928 -0.3043 1.3104 0
M  V30 31 H -3.5052 -1.8199 2.0587 0
M  V30 32 H 2.4006 -1.6323 -1.8928 0
M  V30 33 H 0.3479 -1.6332 1.9037 0
M  V30 34 H -5.7597 -1.4831 1.2892 0
M  V30 35 H 1.3667 0.5091 2.4726 0
M  V30 36 H -6.4551 0.4206 0.0662 0
M  V30 37 H 3.87 0.2459 -2.4723 0
M  V30 38 H -4.9485 1.7578 -1.2628 0
M  V30 39 H -3.5083 0.842 -0.7344 0
M  V30 40 H 2.8394 2.3961 1.8876 0
M  V30 41 H 4.8764 2.3976 -1.9076 0
M  V30 42 H -3.6771 1.9655 1.5457 0
M  V30 43 H -3.4771 3.1385 0.1896 0
M  V30 44 H -5.1007 2.9011 0.9371 0
M  V30 45 H 4.8816 4.8131 -1.3634 0
M  V30 46 H 5.6471 5.474 0.1302 0
M  V30 47 H 6.2957 3.9559 -0.5982 0
M  V30 END ATOM
M  V30 BEGIN BOND
M  V30 1 2 1 2
M  V30 2 1 2 3
M  V30 3 1 2 4
M  V30 4 1 3 5
M  V30 5 1 4 6
M  V30 6 1 4 7
M  V30 7 1 5 8
M  V30 8 2 6 9
M  V30 9 1 6 10
M  V30 10 1 8 11
M  V30 11 1 9 12
M  V30 12 2 10 13
M  V30 13 2 11 14
M  V30 14 1 12 15
M  V30 15 2 12 16
M  V30 16 1 14 17
M  V30 17 2 15 18
M  V30 18 1 16 19
M  V30 19 1 17 20
M  V30 20 1 18 21
M  V30 21 1 21 22
M  V30 22 1 22 23
M  V30 23 1 13 15
M  V30 24 2 19 21
M  V30 25 1 4 24
M  V30 26 1 5 25
M  V30 27 1 5 26
M  V30 28 1 7 27
M  V30 29 1 7 28
M  V30 30 1 7 29
M  V30 31 1 8 30
M  V30 32 1 8 31
M  V30 33 1 9 32
M  V30 34 1 10 33
M  V30 35 1 11 34
M  V30 36 1 13 35
M  V30 37 1 14 36
M  V30 38 1 16 37
M  V30 39 1 17 38
M  V30 40 1 17 39
M  V30 41 1 18 40
M  V30 42 1 19 41
M  V30 43 1 20 42
M  V30 44 1 20 43
M  V30 45 1 20 44
M  V30 46 1 23 45
M  V30 47 1 23 46
M  V30 48 1 23 47
M  V30 END BOND
M  V30 BEGIN COLLECTION
M  V30 MDLV30/STEABS ATOMS=(1 4)
M  V30 END COLLECTION
M  V30 END CTAB
M  END
>  <Structure No>
8551

>  <LogS>
-7.36

>  <MMFF94 Energy>
61.716

$$$$
Compound 8552
Actelion Java MolfileCreator 2.0

  0  0  0  0  0  0              0 V3000
M  V30 BEGIN CTAB
M  V30 COUNTS 48 51 0 0 0
M  V30 BEGIN ATOM
M  V30 1 O -1.4499 0.5636 2.1755 0
M  V30 2 C -1.2743 0.6816 0.9306 0
M  V30 3 O -1.9724 -0.1355 0.0356 0
M  V30 4 C -0.2789 1.6726 0.3925 0 CFG=2
M  V30 5 C -2.9254 -1.114 0.4533 0 CFG=1
M  V30 6 C 1.1332 1.1363 0.5251 0
M  V30 7 C -0.4276 3.0446 1.0634 0
M  V30 8 C -4.1893 -0.5027 1.0062 0 CFG=1
M  V30 9 C -3.4305 -1.9137 -0.728 0
M  V30 10 C 1.8953 0.8711 -0.6269 0
M  V30 11 C 1.698 0.8883 1.7904 0
M  V30 12 O -4.4197 0.789 0.4739 0
M  V30 13 C -5.2729 -1.4494 0.5389 0 CFG=2
M  V30 14 O -4.7679 -2.2847 -0.4861 0
M  V30 15 C 3.2012 0.3686 -0.5196 0
M  V30 16 C 2.9963 0.3865 1.9054 0
M  V30 17 C -5.5694 0.7229 -0.3363 0
M  V30 18 C -6.3469 -0.5264 0.026 0 CFG=1
M  V30 19 C 3.7556 0.1228 0.7575 0
M  V30 20 C 3.963 0.1056 -1.6679 0
M  V30 21 O -7.0133 -1.0653 -1.086 0
M  V30 22 C 5.0597 -0.3839 0.8644 0
M  V30 23 C 5.2613 -0.3982 -1.5522 0
M  V30 24 C 5.818 -0.6489 -0.2828 0
M  V30 25 O 7.114 -1.1597 -0.1186 0
M  V30 26 C 7.9929 -1.4844 -1.1915 0
M  V30 27 H -0.5172 1.8244 -0.6839 0
M  V30 28 H -2.471 -1.804 1.2011 0
M  V30 29 H -0.25 2.983 2.158 0
M  V30 30 H 0.2994 3.7607 0.6247 0
M  V30 31 H -1.452 3.4407 0.8938 0
M  V30 32 H -4.1535 -0.444 2.117 0
M  V30 33 H -2.8092 -2.8231 -0.8748 0
M  V30 34 H -3.3919 -1.3049 -1.659 0
M  V30 35 H 1.4715 1.0545 -1.6075 0
M  V30 36 H 1.1332 1.0807 2.6932 0
M  V30 37 H -5.6511 -2.0788 1.3747 0
M  V30 38 H 3.4057 0.2039 2.8917 0
M  V30 39 H -5.2545 0.6938 -1.4026 0
M  V30 40 H -6.1939 1.6274 -0.1756 0
M  V30 41 H -7.0667 -0.3035 0.8485 0
M  V30 42 H 3.5548 0.2887 -2.6554 0
M  V30 43 H -7.7911 -0.4726 -1.2586 0
M  V30 44 H 5.492 -0.5778 1.84 0
M  V30 45 H 5.8236 -0.5913 -2.4563 0
M  V30 46 H 7.5386 -2.2675 -1.8348 0
M  V30 47 H 8.2136 -0.5767 -1.7928 0
M  V30 48 H 8.9436 -1.8752 -0.7751 0
M  V30 END ATOM
M  V30 BEGIN BOND
M  V30 1 2 1 2
M  V30 2 1 2 3
M  V30 3 1 2 4
M  V30 4 1 3 5
M  V30 5 1 4 6
M  V30 6 1 4 7
M  V30 7 1 5 8
M  V30 8 1 5 9
M  V30 9 2 6 10
M  V30 10 1 6 11
M  V30 11 1 8 12
M  V30 12 1 8 13
M  V30 13 1 9 14
M  V30 14 1 10 15
M  V30 15 2 11 16
M  V30 16 1 12 17
M  V30 17 1 13 18
M  V30 18 1 15 19
M  V30 19 2 15 20
M  V30 20 1 18 21
M  V30 21 2 19 22
M  V30 22 1 20 23
M  V30 23 1 22 24
M  V30 24 1 24 25
M  V30 25 1 25 26
M  V30 26 1 13 14
M  V30 27 1 16 19
M  V30 28 1 17 18
M  V30 29 2 23 24
M  V30 30 1 4 27
M  V30 31 1 5 28
M  V30 32 1 7 29
M  V30 33 1 7 30
M  V30 34 1 7 31
M  V30 35 1 8 32
M  V30 36 1 9 33
M  V30 37 1 9 34
M  V30 38 1 10 35
M  V30 39 1 11 36
M  V30 40 1 13 37
M  V30 41 1 16 38
M  V30 42 1 17 39
M  V30 43 1 17 40
M  V30 44 1 18 41
M  V30 45 1 20 42
M  V30 46 1 21 43
M  V30 47 1 22 44
M  V30 48 1 23 45
M  V30 49 1 26 46
M  V30 50 1 26 47
M  V30 51 1 26 48
M  V30 END BOND
M  V30 BEGIN COLLECTION
M  V30 MDLV30/STEABS ATOMS=(5 4 5 8 13 18)
M  V30 END COLLECTION
M  V30 END CTAB
M  END
>  <Structure No>
8552

>  <LogS>
-3.98

>  <MMFF94 Energy>
128.93

$$$$
Compound 8553
Actelion Java MolfileCreator 2.0

  0  0  0  0  0  0              0 V3000
M  V30 BEGIN CTAB
M  V30 COUNTS 42 43 0 0 0
M  V30 BEGIN ATOM
M  V30 1 O 0.0 -0.2371 -0.7117 0
M  V30 2 C -0.1295 -1.0304 0.26 0
M  V30 3 N 1.0163 -1.4188 1.0331 0
M  V30 4 N -1.4081 -1.6164 0.5487 0
M  V30 5 C 2.2922 -0.7582 0.9728 0
M  V30 6 C -2.6506 -1.1604 -0.0138 0
M  V30 7 C 3.4621 -1.5023 1.1793 0
M  V30 8 C 2.3922 0.6293 0.7725 0
M  V30 9 C -2.8814 0.2004 -0.2794 0
M  V30 10 C -3.6785 -2.0839 -0.249 0
M  V30 11 C 4.7146 -0.8821 1.1475 0
M  V30 12 C 3.6444 1.2495 0.7417 0
M  V30 13 C -4.107 0.6218 -0.8043 0
M  V30 14 C -4.903 -1.6628 -0.7747 0
M  V30 15 C 4.8149 0.504 0.9206 0
M  V30 16 C -5.1308 -0.3113 -1.0571 0
M  V30 17 O 6.0444 1.1821 0.8783 0
M  V30 18 O -6.3797 0.0524 -1.5872 0
M  V30 19 C 7.333 0.5707 0.9378 0
M  V30 20 C -6.8203 1.3876 -1.8353 0
M  V30 21 C 7.6808 -0.0891 -0.3919 0
M  V30 22 C -7.2096 2.0793 -0.5333 0
M  V30 23 H 0.9369 -2.2806 1.6189 0
M  V30 24 H -1.4251 -2.4736 1.1464 0
M  V30 25 H 3.403 -2.5689 1.3565 0
M  V30 26 H 1.5057 1.2398 0.6656 0
M  V30 27 H -2.1264 0.9433 -0.0595 0
M  V30 28 H -3.5261 -3.1341 -0.0342 0
M  V30 29 H 5.5925 -1.4912 1.306 0
M  V30 30 H 3.7056 2.3189 0.5841 0
M  V30 31 H -4.2447 1.6749 -1.0025 0
M  V30 32 H -5.6822 -2.3912 -0.9603 0
M  V30 33 H 7.3879 -0.1598 1.7723 0
M  V30 34 H 8.0845 1.3623 1.1417 0
M  V30 35 H -6.0448 1.9674 -2.3789 0
M  V30 36 H -7.7173 1.3424 -2.4879 0
M  V30 37 H 6.9644 -0.9027 -0.6267 0
M  V30 38 H 7.6503 0.6648 -1.2066 0
M  V30 39 H 8.7029 -0.5191 -0.3385 0
M  V30 40 H -7.5885 3.0997 -0.752 0
M  V30 41 H -6.3359 2.1621 0.145 0
M  V30 42 H -8.0088 1.5012 -0.0232 0
M  V30 END ATOM
M  V30 BEGIN BOND
M  V30 1 2 1 2
M  V30 2 1 2 3
M  V30 3 1 2 4
M  V30 4 1 3 5
M  V30 5 1 4 6
M  V30 6 2 5 7
M  V30 7 1 5 8
M  V30 8 2 6 9
M  V30 9 1 6 10
M  V30 10 1 7 11
M  V30 11 2 8 12
M  V30 12 1 9 13
M  V30 13 2 10 14
M  V30 14 2 11 15
M  V30 15 2 13 16
M  V30 16 1 15 17
M  V30 17 1 16 18
M  V30 18 1 17 19
M  V30 19 1 18 20
M  V30 20 1 19 21
M  V30 21 1 20 22
M  V30 22 1 12 15
M  V30 23 1 14 16
M  V30 24 1 3 23
M  V30 25 1 4 24
M  V30 26 1 7 25
M  V30 27 1 8 26
M  V30 28 1 9 27
M  V30 29 1 10 28
M  V30 30 1 11 29
M  V30 31 1 12 30
M  V30 32 1 13 31
M  V30 33 1 14 32
M  V30 34 1 19 33
M  V30 35 1 19 34
M  V30 36 1 20 35
M  V30 37 1 20 36
M  V30 38 1 21 37
M  V30 39 1 21 38
M  V30 40 1 21 39
M  V30 41 1 22 40
M  V30 42 1 22 41
M  V30 43 1 22 42
M  V30 END BOND
M  V30 END CTAB
M  END
>  <Structure No>
8553

>  <LogS>
-4.44

>  <MMFF94 Energy>
-26.166

$$$$
Compound 8554
Actelion Java MolfileCreator 2.0

  0  0  0  0  0  0              0 V3000
M  V30 BEGIN CTAB
M  V30 COUNTS 38 39 0 0 0
M  V30 BEGIN ATOM
M  V30 1 Cl 6.1034 -1.95 -0.2436 0
M  V30 2 C 4.4416 -1.5069 0.1026 0
M  V30 3 C 3.9123 -1.7201 1.3788 0
M  V30 4 C 3.646 -0.9517 -0.9001 0
M  V30 5 C 2.579 -1.3697 1.6697 0
M  V30 6 C 2.3241 -0.599 -0.6284 0
M  V30 7 C 1.7877 -0.7781 0.6591 0
M  V30 8 C 2.0025 -1.5992 3.0498 0
M  V30 9 N 0.4145 -0.4482 0.9258 0
M  V30 10 F 2.9271 -2.1724 3.906 0
M  V30 11 F 1.5989 -0.3908 3.5888 0
M  V30 12 F 0.9096 -2.4424 2.9604 0
M  V30 13 C -0.2081 0.645 0.5829 0
M  V30 14 N 0.4792 1.7603 -0.0128 0
M  V30 15 C -1.6867 0.7243 0.8062 0
M  V30 16 C 1.642 2.3156 0.3859 0
M  V30 17 C 0.03 2.5397 -1.0105 0
M  V30 18 O -2.3451 0.2255 -0.3371 0
M  V30 19 N 1.9669 3.4076 -0.3365 0
M  V30 20 C 0.952 3.541 -1.2146 0
M  V30 21 C -3.7425 0.3296 -0.161 0
M  V30 22 C -4.4579 -0.2362 -1.3881 0
M  V30 23 C -4.203 -1.7329 -1.5549 0
M  V30 24 H 4.547 -2.1612 2.1363 0
M  V30 25 H 4.0486 -0.7995 -1.8935 0
M  V30 26 H 1.7131 -0.1942 -1.4251 0
M  V30 27 H -1.9613 1.7874 0.9943 0
M  V30 28 H -1.9499 0.1234 1.7072 0
M  V30 29 H 2.2412 1.947 1.2085 0
M  V30 30 H -0.898 2.3955 -1.5485 0
M  V30 31 H 0.8835 4.3295 -1.9518 0
M  V30 32 H -4.0411 1.3975 -0.0541 0
M  V30 33 H -4.0773 -0.2317 0.7419 0
M  V30 34 H -5.5513 -0.0675 -1.2803 0
M  V30 35 H -4.1135 0.3002 -2.2987 0
M  V30 36 H -4.7579 -2.1068 -2.4409 0
M  V30 37 H -4.553 -2.2866 -0.6576 0
M  V30 38 H -3.1206 -1.9285 -1.7079 0
M  V30 END ATOM
M  V30 BEGIN BOND
M  V30 1 1 1 2
M  V30 2 2 2 3
M  V30 3 1 2 4
M  V30 4 1 3 5
M  V30 5 2 4 6
M  V30 6 2 5 7
M  V30 7 1 5 8
M  V30 8 1 7 9
M  V30 9 1 8 10
M  V30 10 1 8 11
M  V30 11 1 8 12
M  V30 12 2 9 13
M  V30 13 1 13 14
M  V30 14 1 13 15
M  V30 15 1 14 16
M  V30 16 1 14 17
M  V30 17 1 15 18
M  V30 18 2 16 19
M  V30 19 2 17 20
M  V30 20 1 18 21
M  V30 21 1 21 22
M  V30 22 1 22 23
M  V30 23 1 6 7
M  V30 24 1 19 20
M  V30 25 1 3 24
M  V30 26 1 4 25
M  V30 27 1 6 26
M  V30 28 1 15 27
M  V30 29 1 15 28
M  V30 30 1 16 29
M  V30 31 1 17 30
M  V30 32 1 20 31
M  V30 33 1 21 32
M  V30 34 1 21 33
M  V30 35 1 22 34
M  V30 36 1 22 35
M  V30 37 1 23 36
M  V30 38 1 23 37
M  V30 39 1 23 38
M  V30 END BOND
M  V30 END CTAB
M  END
>  <Structure No>
8554

>  <LogS>
-4.44

>  <MMFF94 Energy>
74.296

$$$$
Compound 8555
Actelion Java MolfileCreator 2.0

  0  0  0  0  0  0              0 V3000
M  V30 BEGIN CTAB
M  V30 COUNTS 25 27 0 0 0
M  V30 BEGIN ATOM
M  V30 1 O 4.4123 1.6027 -0.4806 0
M  V30 2 C 3.3055 1.036 -0.2801 0
M  V30 3 O 2.1825 1.7272 -0.4566 0
M  V30 4 C 3.2589 -0.3104 0.1253 0
M  V30 5 C 0.9766 1.2018 -0.2656 0
M  V30 6 N 4.4577 -1.0693 0.32 0
M  V30 7 C 2.0107 -0.9047 0.338 0
M  V30 8 C 0.8471 -0.1567 0.1458 0
M  V30 9 C -0.1704 1.9912 -0.4721 0
M  V30 10 C -0.4292 -0.7208 0.3507 0
M  V30 11 C -1.4146 1.4021 -0.2613 0
M  V30 12 C -1.5378 0.0973 0.1385 0
M  V30 13 O -2.5958 1.9547 -0.4062 0
M  V30 14 C -2.8883 -0.1471 0.2495 0
M  V30 15 C -3.5072 1.0445 -0.1116 0
M  V30 16 C -3.5543 -1.4377 0.5998 0
M  V30 17 H 5.3993 -0.6449 0.1668 0
M  V30 18 H 4.412 -2.0683 0.6211 0
M  V30 19 H 1.9505 -1.9406 0.6507 0
M  V30 20 H -0.0914 3.0236 -0.7877 0
M  V30 21 H -0.5508 -1.751 0.6626 0
M  V30 22 H -4.5744 1.2177 -0.1538 0
M  V30 23 H -4.6275 -1.2676 0.828 0
M  V30 24 H -3.471 -2.1409 -0.2544 0
M  V30 25 H -3.0659 -1.8837 1.4912 0
M  V30 END ATOM
M  V30 BEGIN BOND
M  V30 1 2 1 2
M  V30 2 1 2 3
M  V30 3 1 2 4
M  V30 4 1 3 5
M  V30 5 1 4 6
M  V30 6 2 4 7
M  V30 7 2 5 8
M  V30 8 1 5 9
M  V30 9 1 8 10
M  V30 10 2 9 11
M  V30 11 2 10 12
M  V30 12 1 11 13
M  V30 13 1 12 14
M  V30 14 1 13 15
M  V30 15 1 14 16
M  V30 16 1 7 8
M  V30 17 1 11 12
M  V30 18 2 14 15
M  V30 19 1 6 17
M  V30 20 1 6 18
M  V30 21 1 7 19
M  V30 22 1 9 20
M  V30 23 1 10 21
M  V30 24 1 15 22
M  V30 25 1 16 23
M  V30 26 1 16 24
M  V30 27 1 16 25
M  V30 END BOND
M  V30 END CTAB
M  END
>  <Structure No>
8555

>  <LogS>
-5.08

>  <MMFF94 Energy>
73.474

$$$$
Compound 8556
Actelion Java MolfileCreator 2.0

  0  0  0  0  0  0              0 V3000
M  V30 BEGIN CTAB
M  V30 COUNTS 27 29 0 0 0
M  V30 BEGIN ATOM
M  V30 1 O 3.7775 -2.4903 -0.321 0
M  V30 2 C 2.7619 -1.758 -0.1848 0
M  V30 3 O 1.5582 -2.26 -0.447 0
M  V30 4 C 2.9088 -0.4287 0.2396 0
M  V30 5 C 0.4414 -1.5498 -0.3269 0
M  V30 6 O 4.1962 0.064 0.5067 0
M  V30 7 C 1.7549 0.36 0.3808 0
M  V30 8 C 0.5027 -0.1912 0.0987 0
M  V30 9 C -0.8001 -2.145 -0.6202 0
M  V30 10 C 4.4751 1.3908 0.942 0
M  V30 11 C -0.6789 0.5687 0.2282 0
M  V30 12 C -1.9462 -1.366 -0.481 0
M  V30 13 C -1.8863 -0.0584 -0.0759 0
M  V30 14 O -3.1897 -1.7282 -0.6919 0
M  V30 15 C -3.185 0.3985 -0.0505 0
M  V30 16 C -3.9631 -0.6879 -0.4352 0
M  V30 17 C -3.6683 1.7455 0.3788 0
M  V30 18 H 1.8246 1.3903 0.7058 0
M  V30 19 H -0.8656 -3.1766 -0.9415 0
M  V30 20 H 5.5703 1.506 1.0753 0
M  V30 21 H 4.1305 2.1227 0.1813 0
M  V30 22 H 3.9761 1.5864 1.9147 0
M  V30 23 H -0.6563 1.6027 0.5509 0
M  V30 24 H -5.0422 -0.6989 -0.5148 0
M  V30 25 H -4.7276 1.8886 0.0778 0
M  V30 26 H -3.5885 1.8331 1.4823 0
M  V30 27 H -3.0517 2.5363 -0.0973 0
M  V30 END ATOM
M  V30 BEGIN BOND
M  V30 1 2 1 2
M  V30 2 1 2 3
M  V30 3 1 2 4
M  V30 4 1 3 5
M  V30 5 1 4 6
M  V30 6 2 4 7
M  V30 7 2 5 8
M  V30 8 1 5 9
M  V30 9 1 6 10
M  V30 10 1 8 11
M  V30 11 2 9 12
M  V30 12 2 11 13
M  V30 13 1 12 14
M  V30 14 1 13 15
M  V30 15 1 14 16
M  V30 16 1 15 17
M  V30 17 1 7 8
M  V30 18 1 12 13
M  V30 19 2 15 16
M  V30 20 1 7 18
M  V30 21 1 9 19
M  V30 22 1 10 20
M  V30 23 1 10 21
M  V30 24 1 10 22
M  V30 25 1 11 23
M  V30 26 1 16 24
M  V30 27 1 17 25
M  V30 28 1 17 26
M  V30 29 1 17 27
M  V30 END BOND
M  V30 END CTAB
M  END
>  <Structure No>
8556

>  <LogS>
-5.0

>  <MMFF94 Energy>
61.731

$$$$
Compound 8557
Actelion Java MolfileCreator 2.0

  0  0  0  0  0  0              0 V3000
M  V30 BEGIN CTAB
M  V30 COUNTS 32 34 0 0 0
M  V30 BEGIN ATOM
M  V30 1 O 3.2209 -1.5289 -1.5289 0
M  V30 2 C 2.2295 -0.9501 -1.011 0
M  V30 3 O 1.0089 -1.3375 -1.3695 0
M  V30 4 C 2.4071 0.0886 -0.0694 0
M  V30 5 C -0.101 -0.7916 -0.8826 0
M  V30 6 C 3.7546 0.5504 0.3561 0
M  V30 7 C 1.2583 0.6894 0.4694 0
M  V30 8 C -0.0093 0.2592 0.0733 0
M  V30 9 C -1.3673 -1.2556 -1.3131 0
M  V30 10 O 3.8626 1.482 1.2013 0
M  V30 11 O 4.9068 -0.0406 -0.1736 0
M  V30 12 C -1.1755 0.8433 0.6077 0
M  V30 13 C -2.4999 -0.6594 -0.7478 0
M  V30 14 C -1.4916 -2.3874 -2.2926 0
M  V30 15 C 6.2191 0.3626 0.1987 0
M  V30 16 C -2.4031 0.3544 0.169 0
M  V30 17 O -3.7604 -0.9509 -0.9753 0
M  V30 18 C -3.6927 0.7006 0.5055 0
M  V30 19 C -4.5046 -0.153 -0.2308 0
M  V30 20 C -4.1307 1.7134 1.5129 0
M  V30 21 H 1.3474 1.4886 1.1964 0
M  V30 22 H -1.1262 1.6416 1.3385 0
M  V30 23 H -1.2754 -3.3465 -1.7778 0
M  V30 24 H -0.7723 -2.2515 -3.1276 0
M  V30 25 H -2.5129 -2.4342 -2.7261 0
M  V30 26 H 6.3682 0.2116 1.2888 0
M  V30 27 H 6.3752 1.432 -0.0572 0
M  V30 28 H 6.9595 -0.251 -0.3538 0
M  V30 29 H -5.5861 -0.1774 -0.2076 0
M  V30 30 H -3.942 1.3245 2.535 0
M  V30 31 H -5.2144 1.9265 1.3986 0
M  V30 32 H -3.5641 2.6571 1.3693 0
M  V30 END ATOM
M  V30 BEGIN BOND
M  V30 1 2 1 2
M  V30 2 1 2 3
M  V30 3 1 2 4
M  V30 4 1 3 5
M  V30 5 1 4 6
M  V30 6 2 4 7
M  V30 7 2 5 8
M  V30 8 1 5 9
M  V30 9 2 6 10
M  V30 10 1 6 11
M  V30 11 1 8 12
M  V30 12 2 9 13
M  V30 13 1 9 14
M  V30 14 1 11 15
M  V30 15 2 12 16
M  V30 16 1 13 17
M  V30 17 1 16 18
M  V30 18 1 17 19
M  V30 19 1 18 20
M  V30 20 1 7 8
M  V30 21 1 13 16
M  V30 22 2 18 19
M  V30 23 1 7 21
M  V30 24 1 12 22
M  V30 25 1 14 23
M  V30 26 1 14 24
M  V30 27 1 14 25
M  V30 28 1 15 26
M  V30 29 1 15 27
M  V30 30 1 15 28
M  V30 31 1 19 29
M  V30 32 1 20 30
M  V30 33 1 20 31
M  V30 34 1 20 32
M  V30 END BOND
M  V30 END CTAB
M  END
>  <Structure No>
8557

>  <LogS>
-4.9

>  <MMFF94 Energy>
22.234

$$$$
Compound 8558
Actelion Java MolfileCreator 2.0

  0  0  0  0  0  0              0 V3000
M  V30 BEGIN CTAB
M  V30 COUNTS 45 47 0 0 0
M  V30 BEGIN ATOM
M  V30 1 O -3.2078 -1.9237 -0.4806 0
M  V30 2 C -3.404 -0.7158 -0.1778 0
M  V30 3 C -4.7145 -0.1018 -0.4912 0
M  V30 4 C -2.3108 0.0446 0.4636 0
M  V30 5 C -5.3051 0.8326 0.3797 0
M  V30 6 C -5.4101 -0.4879 -1.6507 0
M  V30 7 N -1.242 -0.5057 1.0628 0
M  V30 8 C -2.156 1.4317 0.5002 0
M  V30 9 C -6.5517 1.3899 0.0784 0
M  V30 10 C -6.6563 0.0725 -1.9479 0
M  V30 11 C -0.4454 0.4527 1.4746 0
M  V30 12 C -0.7519 -1.834 1.3397 0
M  V30 13 C -0.9535 1.6941 1.1575 0
M  V30 14 C -7.2252 1.0131 -1.0858 0
M  V30 15 C 0.7867 -0.028 2.1321 0 CFG=1
M  V30 16 C 0.5689 -1.5727 2.1113 0
M  V30 17 C 2.001 0.377 1.3492 0
M  V30 18 O 2.9653 0.9358 1.9395 0
M  V30 19 O 2.0616 0.1132 -0.0253 0
M  V30 20 C 3.1974 0.4235 -0.8308 0
M  V30 21 C 4.337 -0.5243 -0.5571 0
M  V30 22 O 4.0977 -1.6081 0.044 0
M  V30 23 N 5.677 -0.2439 -1.0161 0
M  V30 24 C 5.9652 0.9625 -1.7994 0
M  V30 25 C 6.7513 -1.192 -0.7038 0
M  V30 26 H -4.8143 1.117 1.3016 0
M  V30 27 H -4.9835 -1.214 -2.3318 0
M  V30 28 H -2.8198 2.1718 0.0739 0
M  V30 29 H -6.9992 2.1093 0.7522 0
M  V30 30 H -7.1817 -0.2232 -2.8468 0
M  V30 31 H -1.4823 -2.3916 1.9646 0
M  V30 32 H -0.5549 -2.3722 0.3879 0
M  V30 33 H -0.5061 2.6591 1.3537 0
M  V30 34 H -8.1906 1.4447 -1.3166 0
M  V30 35 H 0.8345 0.3537 3.1756 0
M  V30 36 H 0.4724 -1.9488 3.1532 0
M  V30 37 H 1.4124 -2.1117 1.6253 0
M  V30 38 H 3.5041 1.4747 -0.6454 0
M  V30 39 H 2.9091 0.3284 -1.8981 0
M  V30 40 H 5.3104 0.9961 -2.6955 0
M  V30 41 H 7.0188 0.9846 -2.1479 0
M  V30 42 H 5.7914 1.8654 -1.1775 0
M  V30 43 H 6.5214 -2.1802 -1.1551 0
M  V30 44 H 6.8415 -1.3052 0.3973 0
M  V30 45 H 7.7318 -0.8497 -1.0961 0
M  V30 END ATOM
M  V30 BEGIN BOND
M  V30 1 2 1 2
M  V30 2 1 2 3
M  V30 3 1 2 4
M  V30 4 2 3 5
M  V30 5 1 3 6
M  V30 6 1 4 7
M  V30 7 2 4 8
M  V30 8 1 5 9
M  V30 9 2 6 10
M  V30 10 1 7 11
M  V30 11 1 7 12
M  V30 12 1 8 13
M  V30 13 2 9 14
M  V30 14 1 11 15
M  V30 15 1 12 16
M  V30 16 1 15 17
M  V30 17 2 17 18
M  V30 18 1 17 19
M  V30 19 1 19 20
M  V30 20 1 20 21
M  V30 21 2 21 22
M  V30 22 1 21 23
M  V30 23 1 23 24
M  V30 24 1 23 25
M  V30 25 1 10 14
M  V30 26 2 11 13
M  V30 27 1 15 16
M  V30 28 1 5 26
M  V30 29 1 6 27
M  V30 30 1 8 28
M  V30 31 1 9 29
M  V30 32 1 10 30
M  V30 33 1 12 31
M  V30 34 1 12 32
M  V30 35 1 13 33
M  V30 36 1 14 34
M  V30 37 1 15 35
M  V30 38 1 16 36
M  V30 39 1 16 37
M  V30 40 1 20 38
M  V30 41 1 20 39
M  V30 42 1 24 40
M  V30 43 1 24 41
M  V30 44 1 24 42
M  V30 45 1 25 43
M  V30 46 1 25 44
M  V30 47 1 25 45
M  V30 END BOND
M  V30 BEGIN COLLECTION
M  V30 MDLV30/STEABS ATOMS=(1 15)
M  V30 END COLLECTION
M  V30 END CTAB
M  END
>  <Structure No>
8558

>  <LogS>
-3.03

>  <MMFF94 Energy>
79.78

$$$$
Compound 8559
Actelion Java MolfileCreator 2.0

  0  0  0  0  0  0              0 V3000
M  V30 BEGIN CTAB
M  V30 COUNTS 43 44 0 0 0
M  V30 BEGIN ATOM
M  V30 1 O 5.8954 0.3179 0.8746 0
M  V30 2 C 4.7051 0.6428 0.6104 0
M  V30 3 O 4.3044 1.9769 0.7474 0
M  V30 4 C 3.7252 -0.3772 0.1555 0
M  V30 5 C 5.1879 3.0051 1.1784 0
M  V30 6 C 4.0784 -1.7382 5.0E-4 0
M  V30 7 C 2.4036 0.0181 -0.1269 0
M  V30 8 O 5.3763 -2.1743 0.2674 0
M  V30 9 C 3.1168 -2.6661 -0.4233 0
M  V30 10 C 1.4497 -0.9132 -0.5647 0
M  V30 11 C 1.8118 -2.2591 -0.6987 0
M  V30 12 C 0.0318 -0.481 -0.8273 0
M  V30 13 C -0.8038 -0.5707 0.453 0
M  V30 14 C -2.2277 -0.1477 0.188 0
M  V30 15 C -3.1726 -1.0689 -0.3086 0
M  V30 16 C -2.5975 1.1938 0.3837 0
M  V30 17 O -2.7765 -2.3986 -0.5299 0
M  V30 18 C -4.4847 -0.6326 -0.5725 0
M  V30 19 C -3.9101 1.622 0.1153 0
M  V30 20 C -3.626 -3.4215 -1.0384 0
M  V30 21 C -4.845 0.6988 -0.3585 0
M  V30 22 O -4.3227 2.9498 0.3037 0
M  V30 23 C -3.4798 3.995 0.7774 0
M  V30 24 H 5.5683 2.7774 2.1967 0
M  V30 25 H 6.0391 3.0962 0.471 0
M  V30 26 H 4.6393 3.9688 1.2069 0
M  V30 27 H 2.1065 1.0529 -0.0061 0
M  V30 28 H 5.6446 -3.1457 0.162 0
M  V30 29 H 3.3814 -3.7098 -0.5371 0
M  V30 30 H 1.082 -2.9941 -1.0154 0
M  V30 31 H -0.4172 -1.1242 -1.6161 0
M  V30 32 H 0.0206 0.5639 -1.209 0
M  V30 33 H -0.3542 0.0787 1.2366 0
M  V30 34 H -0.7823 -1.6104 0.8469 0
M  V30 35 H -1.8573 1.8964 0.7429 0
M  V30 36 H -5.2351 -1.3147 -0.9479 0
M  V30 37 H -4.4833 -3.5829 -0.3513 0
M  V30 38 H -3.9918 -3.146 -2.05 0
M  V30 39 H -3.0495 -4.366 -1.1144 0
M  V30 40 H -5.8583 1.0175 -0.5682 0
M  V30 41 H -4.0643 4.9362 0.8303 0
M  V30 42 H -3.1045 3.7521 1.7939 0
M  V30 43 H -2.6282 4.1444 0.0805 0
M  V30 END ATOM
M  V30 BEGIN BOND
M  V30 1 2 1 2
M  V30 2 1 2 3
M  V30 3 1 2 4
M  V30 4 1 3 5
M  V30 5 2 4 6
M  V30 6 1 4 7
M  V30 7 1 6 8
M  V30 8 1 6 9
M  V30 9 2 7 10
M  V30 10 2 9 11
M  V30 11 1 10 12
M  V30 12 1 12 13
M  V30 13 1 13 14
M  V30 14 2 14 15
M  V30 15 1 14 16
M  V30 16 1 15 17
M  V30 17 1 15 18
M  V30 18 2 16 19
M  V30 19 1 17 20
M  V30 20 2 18 21
M  V30 21 1 19 22
M  V30 22 1 22 23
M  V30 23 1 10 11
M  V30 24 1 19 21
M  V30 25 1 5 24
M  V30 26 1 5 25
M  V30 27 1 5 26
M  V30 28 1 7 27
M  V30 29 1 8 28
M  V30 30 1 9 29
M  V30 31 1 11 30
M  V30 32 1 12 31
M  V30 33 1 12 32
M  V30 34 1 13 33
M  V30 35 1 13 34
M  V30 36 1 16 35
M  V30 37 1 18 36
M  V30 38 1 20 37
M  V30 39 1 20 38
M  V30 40 1 20 39
M  V30 41 1 21 40
M  V30 42 1 23 41
M  V30 43 1 23 42
M  V30 44 1 23 43
M  V30 END BOND
M  V30 END CTAB
M  END
>  <Structure No>
8559

>  <LogS>
-6.39

>  <MMFF94 Energy>
60.077

$$$$
Compound 8560
Actelion Java MolfileCreator 2.0

  0  0  0  0  0  0              0 V3000
M  V30 BEGIN CTAB
M  V30 COUNTS 33 35 0 0 0
M  V30 BEGIN ATOM
M  V30 1 O -0.3179 -3.5814 0.0794 0
M  V30 2 C -0.4908 -2.339 -0.0394 0
M  V30 3 N 0.5431 -1.4644 0.1556 0
M  V30 4 C -1.7337 -1.8155 -0.3601 0
M  V30 5 C 0.3595 -0.1033 0.0278 0
M  V30 6 N -2.9019 -2.4516 -0.5716 0
M  V30 7 C -1.8946 -0.4788 -0.4614 0
M  V30 8 N -0.8801 0.3962 -0.2668 0
M  V30 9 N 1.4407 0.8116 0.2594 0
M  V30 10 C -3.7636 -1.4231 -0.8074 0
M  V30 11 N -3.1713 -0.2026 -0.752 0
M  V30 12 C 2.8227 0.5145 2.0E-4 0
M  V30 13 C -3.8105 1.1044 -0.8859 0
M  V30 14 C 3.2021 -0.3429 -1.0492 0
M  V30 15 C 3.8184 1.1435 0.7635 0
M  V30 16 C -4.4982 1.4845 0.3942 0
M  V30 17 C 4.5547 -0.5931 -1.3008 0
M  V30 18 C 5.1699 0.8906 0.5092 0
M  V30 19 C -3.8081 1.7796 1.4992 0
M  V30 20 C 5.5377 0.0199 -0.5197 0
M  V30 21 H 1.4758 -1.8435 0.4336 0
M  V30 22 H 1.2007 1.7605 0.626 0
M  V30 23 H -4.8177 -1.5679 -1.0061 0
M  V30 24 H -4.5618 1.0612 -1.7033 0
M  V30 25 H -3.0597 1.8776 -1.1585 0
M  V30 26 H 2.4557 -0.8044 -1.6824 0
M  V30 27 H 3.5451 1.8227 1.5613 0
M  V30 28 H -5.5831 1.5278 0.4185 0
M  V30 29 H 4.8408 -1.2565 -2.1066 0
M  V30 30 H 5.9321 1.3719 1.1082 0
M  V30 31 H -4.3318 2.0536 2.4091 0
M  V30 32 H -2.723 1.7529 1.5051 0
M  V30 33 H 6.5842 -0.1734 -0.7167 0
M  V30 END ATOM
M  V30 BEGIN BOND
M  V30 1 2 1 2
M  V30 2 1 2 3
M  V30 3 1 2 4
M  V30 4 1 3 5
M  V30 5 1 4 6
M  V30 6 2 4 7
M  V30 7 2 5 8
M  V30 8 1 5 9
M  V30 9 2 6 10
M  V30 10 1 7 11
M  V30 11 1 9 12
M  V30 12 1 11 13
M  V30 13 2 12 14
M  V30 14 1 12 15
M  V30 15 1 13 16
M  V30 16 1 14 17
M  V30 17 2 15 18
M  V30 18 2 16 19
M  V30 19 2 17 20
M  V30 20 1 7 8
M  V30 21 1 10 11
M  V30 22 1 18 20
M  V30 23 1 3 21
M  V30 24 1 9 22
M  V30 25 1 10 23
M  V30 26 1 13 24
M  V30 27 1 13 25
M  V30 28 1 14 26
M  V30 29 1 15 27
M  V30 30 1 16 28
M  V30 31 1 17 29
M  V30 32 1 18 30
M  V30 33 1 19 31
M  V30 34 1 19 32
M  V30 35 1 20 33
M  V30 END BOND
M  V30 END CTAB
M  END
>  <Structure No>
8560

>  <LogS>
-5.09

>  <MMFF94 Energy>
-6.9214

$$$$
Compound 8561
Actelion Java MolfileCreator 2.0

  0  0  0  0  0  0              0 V3000
M  V30 BEGIN CTAB
M  V30 COUNTS 45 48 0 0 0
M  V30 BEGIN ATOM
M  V30 1 F -0.6468 0.2425 3.7237 0
M  V30 2 C 0.1567 0.0523 2.648 0
M  V30 3 C -0.3887 -0.1 1.3685 0
M  V30 4 C 1.5387 0.0272 2.8307 0
M  V30 5 N -1.8107 -0.0859 1.184 0
M  V30 6 C 0.4635 -0.2995 0.2762 0
M  V30 7 C 2.4059 -0.1504 1.7358 0
M  V30 8 C -2.8147 0.6518 0.3788 0 CFG=2
M  V30 9 C -2.9828 -0.5957 1.9265 0
M  V30 10 C 1.8692 -0.2952 0.4312 0
M  V30 11 C 3.799 -0.2078 1.9204 0
M  V30 12 C -4.0261 0.0608 1.0727 0 CFG=2
M  V30 13 C -2.6463 0.4395 -1.1418 0
M  V30 14 N 2.7171 -0.4431 -0.6461 0
M  V30 15 O 4.286 -0.0673 3.0765 0
M  V30 16 C 4.6442 -0.4341 0.8192 0
M  V30 17 N -4.8191 -0.9248 0.3241 0 CHG=1
M  V30 18 C -3.5851 1.3314 -1.9549 0
M  V30 19 C 4.0659 -0.565 -0.4525 0
M  V30 20 C 2.2051 -0.5716 -2.0245 0
M  V30 21 C 6.1218 -0.5392 0.9684 0
M  V30 22 C 1.5168 0.6835 -2.5537 0
M  V30 23 C 2.8955 0.3145 -3.0606 0
M  V30 24 O 6.8535 -0.7167 -0.042 0
M  V30 25 O 6.7258 -0.446 2.217 0 CHG=-1
M  V30 26 H 1.9273 0.1442 3.8352 0
M  V30 27 H 0.0218 -0.511 -0.6824 0
M  V30 28 H -2.7301 1.7392 0.6108 0
M  V30 29 H -3.0073 -1.708 1.9061 0
M  V30 30 H -3.0006 -0.2054 2.9677 0
M  V30 31 H -4.6478 0.8073 1.6161 0
M  V30 32 H -2.7638 -0.6231 -1.4341 0
M  V30 33 H -1.6202 0.7468 -1.4248 0
M  V30 34 H -5.4566 -1.4114 0.995 0
M  V30 35 H -5.4176 -0.4428 -0.3805 0
M  V30 36 H -4.2267 -1.6499 -0.1402 0
M  V30 37 H -3.4148 1.1553 -3.0379 0
M  V30 38 H -3.3793 2.4013 -1.7374 0
M  V30 39 H -4.6481 1.1228 -1.7317 0
M  V30 40 H 4.7091 -0.7569 -1.3038 0
M  V30 41 H 1.8116 -1.5536 -2.3629 0
M  V30 42 H 0.6969 0.4841 -3.2756 0
M  V30 43 H 1.5079 1.5551 -1.8641 0
M  V30 44 H 3.6866 1.0023 -2.693 0
M  V30 45 H 2.8938 -0.0921 -4.0937 0
M  V30 END ATOM
M  V30 BEGIN BOND
M  V30 1 1 1 2
M  V30 2 2 2 3
M  V30 3 1 2 4
M  V30 4 1 3 5
M  V30 5 1 3 6
M  V30 6 2 4 7
M  V30 7 1 5 8
M  V30 8 1 5 9
M  V30 9 2 6 10
M  V30 10 1 7 11
M  V30 11 1 8 12
M  V30 12 1 8 13
M  V30 13 1 10 14
M  V30 14 2 11 15
M  V30 15 1 11 16
M  V30 16 1 12 17
M  V30 17 1 13 18
M  V30 18 1 14 19
M  V30 19 1 14 20
M  V30 20 1 16 21
M  V30 21 1 20 22
M  V30 22 1 20 23
M  V30 23 2 21 24
M  V30 24 1 21 25
M  V30 25 1 7 10
M  V30 26 1 9 12
M  V30 27 2 16 19
M  V30 28 1 22 23
M  V30 29 1 4 26
M  V30 30 1 6 27
M  V30 31 1 8 28
M  V30 32 1 9 29
M  V30 33 1 9 30
M  V30 34 1 12 31
M  V30 35 1 13 32
M  V30 36 1 13 33
M  V30 37 1 17 34
M  V30 38 1 17 35
M  V30 39 1 17 36
M  V30 40 1 18 37
M  V30 41 1 18 38
M  V30 42 1 18 39
M  V30 43 1 19 40
M  V30 44 1 20 41
M  V30 45 1 22 42
M  V30 46 1 22 43
M  V30 47 1 23 44
M  V30 48 1 23 45
M  V30 END BOND
M  V30 BEGIN COLLECTION
M  V30 MDLV30/STEABS ATOMS=(2 8 12)
M  V30 END COLLECTION
M  V30 END CTAB
M  END
>  <Structure No>
8561

>  <LogS>
-3.91

>  <MMFF94 Energy>
51.42

$$$$
Compound 8562
Actelion Java MolfileCreator 2.0

  0  0  0  0  0  0              0 V3000
M  V30 BEGIN CTAB
M  V30 COUNTS 45 48 0 0 0
M  V30 BEGIN ATOM
M  V30 1 F 1.4558 -0.4042 -2.8322 0
M  V30 2 C 0.345 -0.2368 -2.0728 0
M  V30 3 C 0.4435 -0.0616 -0.688 0
M  V30 4 C -0.9057 -0.2576 -2.6885 0
M  V30 5 N 1.7211 -0.0191 -0.0422 0
M  V30 6 C -0.7209 0.0608 0.0788 0
M  V30 7 C -2.0841 -0.1194 -1.9298 0
M  V30 8 C 3.1519 0.0608 -0.4071 0 CFG=2
M  V30 9 C 2.2197 -0.1016 1.3458 0
M  V30 10 C -2.0014 0.0151 -0.5202 0
M  V30 11 C -3.3448 -0.1014 -2.5526 0
M  V30 12 C 3.6786 -0.0348 1.0023 0 CFG=1
M  V30 13 C 3.4843 1.4029 -1.0684 0
M  V30 14 N -3.1561 0.1108 0.2277 0
M  V30 15 O -3.4293 -0.2333 -3.8054 0
M  V30 16 C -4.507 0.0764 -1.7796 0
M  V30 17 N 4.3929 -1.2914 1.2918 0 CHG=1
M  V30 18 C -4.3742 0.197 -0.3891 0
M  V30 19 C -3.1195 0.2266 1.6987 0
M  V30 20 C -5.8634 0.141 -2.3888 0
M  V30 21 C 5.7776 -1.2174 0.8195 0
M  V30 22 C -4.0866 -0.6881 2.4497 0
M  V30 23 C -2.6105 -1.0243 2.4087 0
M  V30 24 O -6.0204 0.0633 -3.6361 0
M  V30 25 O -6.9881 0.2905 -1.5847 0 CHG=-1
M  V30 26 H -0.9475 -0.3805 -3.7639 0
M  V30 27 H -0.6088 0.2102 1.143 0
M  V30 28 H 3.4434 -0.7956 -1.0557 0
M  V30 29 H 1.9104 -1.06 1.8198 0
M  V30 30 H 1.8847 0.7799 1.9364 0
M  V30 31 H 4.1789 0.876 1.4059 0
M  V30 32 H 4.5835 1.4939 -1.1966 0
M  V30 33 H 3.0073 1.4664 -2.0673 0
M  V30 34 H 3.12 2.2498 -0.4476 0
M  V30 35 H 4.407 -1.437 2.3283 0
M  V30 36 H 3.9216 -2.1143 0.8461 0
M  V30 37 H -5.2636 0.3525 0.2106 0
M  V30 38 H -2.8764 1.2097 2.1551 0
M  V30 39 H 6.3174 -0.3821 1.3176 0
M  V30 40 H 5.8106 -1.0711 -0.2819 0
M  V30 41 H 6.3059 -2.165 1.0598 0
M  V30 42 H -4.425 -0.2988 3.433 0
M  V30 43 H -4.7017 -1.3859 1.8426 0
M  V30 44 H -2.0716 -0.8229 3.3584 0
M  V30 45 H -2.3621 -1.884 1.7499 0
M  V30 END ATOM
M  V30 BEGIN BOND
M  V30 1 1 1 2
M  V30 2 2 2 3
M  V30 3 1 2 4
M  V30 4 1 3 5
M  V30 5 1 3 6
M  V30 6 2 4 7
M  V30 7 1 5 8
M  V30 8 1 5 9
M  V30 9 2 6 10
M  V30 10 1 7 11
M  V30 11 1 8 12
M  V30 12 1 8 13
M  V30 13 1 10 14
M  V30 14 2 11 15
M  V30 15 1 11 16
M  V30 16 1 12 17
M  V30 17 1 14 18
M  V30 18 1 14 19
M  V30 19 1 16 20
M  V30 20 1 17 21
M  V30 21 1 19 22
M  V30 22 1 19 23
M  V30 23 2 20 24
M  V30 24 1 20 25
M  V30 25 1 7 10
M  V30 26 1 9 12
M  V30 27 2 16 18
M  V30 28 1 22 23
M  V30 29 1 4 26
M  V30 30 1 6 27
M  V30 31 1 8 28
M  V30 32 1 9 29
M  V30 33 1 9 30
M  V30 34 1 12 31
M  V30 35 1 13 32
M  V30 36 1 13 33
M  V30 37 1 13 34
M  V30 38 1 17 35
M  V30 39 1 17 36
M  V30 40 1 18 37
M  V30 41 1 19 38
M  V30 42 1 21 39
M  V30 43 1 21 40
M  V30 44 1 21 41
M  V30 45 1 22 42
M  V30 46 1 22 43
M  V30 47 1 23 44
M  V30 48 1 23 45
M  V30 END BOND
M  V30 BEGIN COLLECTION
M  V30 MDLV30/STEABS ATOMS=(2 8 12)
M  V30 END COLLECTION
M  V30 END CTAB
M  END
>  <Structure No>
8562

>  <LogS>
-4.57

>  <MMFF94 Energy>
51.622

$$$$
Compound 8563
Actelion Java MolfileCreator 2.0

  0  0  0  0  0  0              0 V3000
M  V30 BEGIN CTAB
M  V30 COUNTS 45 48 0 0 0
M  V30 BEGIN ATOM
M  V30 1 F 1.2135 -2.9143 -0.9707 0
M  V30 2 C 0.21 -2.0363 -0.7247 0
M  V30 3 C 0.4873 -0.706 -0.3908 0
M  V30 4 C -1.1101 -2.4643 -0.8575 0
M  V30 5 N 1.8378 -0.2455 -0.2639 0
M  V30 6 C -0.568 0.1926 -0.1952 0
M  V30 7 C -2.1806 -1.5718 -0.6547 0
M  V30 8 C 3.2045 -0.8084 -0.1709 0 CFG=1
M  V30 9 C 2.5154 1.0691 -0.2333 0
M  V30 10 C -1.9154 -0.2255 -0.2959 0
M  V30 11 C -3.512 -1.9926 -0.8236 0
M  V30 12 C 3.9188 0.5313 -0.1568 0 CFG=1
M  V30 13 C 3.3587 -1.6828 1.0839 0
M  V30 14 N -2.9631 0.6417 -0.0674 0
M  V30 15 O -3.7578 -3.192 -1.1306 0
M  V30 16 C -4.5645 -1.0738 -0.6623 0
M  V30 17 N 4.6132 0.8952 1.0911 0 CHG=1
M  V30 18 C 4.7665 0.8038 -1.411 0
M  V30 19 C -4.2517 0.245 -0.2997 0
M  V30 20 C -2.7356 2.0442 0.332 0
M  V30 21 C -5.9874 -1.4613 -0.8668 0
M  V30 22 C -3.5921 2.5383 1.4976 0
M  V30 23 C -2.1325 2.2044 1.7245 0
M  V30 24 O -6.9091 -0.621 -0.6874 0
M  V30 25 O -6.3313 -2.7498 -1.2589 0 CHG=-1
M  V30 26 H -1.2908 -3.4957 -1.1349 0
M  V30 27 H -0.3189 1.2192 0.0313 0
M  V30 28 H 3.4369 -1.406 -1.0819 0
M  V30 29 H 2.2056 1.6467 0.666 0
M  V30 30 H 2.3041 1.638 -1.1665 0
M  V30 31 H 4.4307 -1.9057 1.2656 0
M  V30 32 H 2.8326 -2.6477 0.9383 0
M  V30 33 H 2.9192 -1.1911 1.9768 0
M  V30 34 H 3.9966 0.8046 1.9303 0
M  V30 35 H 5.4576 0.2912 1.2142 0
M  V30 36 H 4.9255 1.8916 1.0342 0
M  V30 37 H 5.0425 1.8785 -1.4553 0
M  V30 38 H 5.6952 0.1965 -1.3739 0
M  V30 39 H 4.2112 0.5452 -2.3389 0
M  V30 40 H -5.0564 0.9636 -0.1921 0
M  V30 41 H -2.4393 2.7829 -0.4426 0
M  V30 42 H -3.8011 3.6288 1.4907 0
M  V30 43 H -4.278 1.8045 1.9719 0
M  V30 44 H -1.9683 1.2614 2.2891 0
M  V30 45 H -1.4752 3.092 1.8381 0
M  V30 END ATOM
M  V30 BEGIN BOND
M  V30 1 1 1 2
M  V30 2 2 2 3
M  V30 3 1 2 4
M  V30 4 1 3 5
M  V30 5 1 3 6
M  V30 6 2 4 7
M  V30 7 1 5 8
M  V30 8 1 5 9
M  V30 9 2 6 10
M  V30 10 1 7 11
M  V30 11 1 8 12
M  V30 12 1 8 13
M  V30 13 1 10 14
M  V30 14 2 11 15
M  V30 15 1 11 16
M  V30 16 1 12 17
M  V30 17 1 12 18
M  V30 18 1 14 19
M  V30 19 1 14 20
M  V30 20 1 16 21
M  V30 21 1 20 22
M  V30 22 1 20 23
M  V30 23 2 21 24
M  V30 24 1 21 25
M  V30 25 1 7 10
M  V30 26 1 9 12
M  V30 27 2 16 19
M  V30 28 1 22 23
M  V30 29 1 4 26
M  V30 30 1 6 27
M  V30 31 1 8 28
M  V30 32 1 9 29
M  V30 33 1 9 30
M  V30 34 1 13 31
M  V30 35 1 13 32
M  V30 36 1 13 33
M  V30 37 1 17 34
M  V30 38 1 17 35
M  V30 39 1 17 36
M  V30 40 1 18 37
M  V30 41 1 18 38
M  V30 42 1 18 39
M  V30 43 1 19 40
M  V30 44 1 20 41
M  V30 45 1 22 42
M  V30 46 1 22 43
M  V30 47 1 23 44
M  V30 48 1 23 45
M  V30 END BOND
M  V30 BEGIN COLLECTION
M  V30 MDLV30/STEABS ATOMS=(2 8 12)
M  V30 END COLLECTION
M  V30 END CTAB
M  END
>  <Structure No>
8563

>  <LogS>
-5.42

>  <MMFF94 Energy>
55.276

$$$$
Compound 8564
Actelion Java MolfileCreator 2.0

  0  0  0  0  0  0              0 V3000
M  V30 BEGIN CTAB
M  V30 COUNTS 42 45 0 0 0
M  V30 BEGIN ATOM
M  V30 1 Cl 0.0 2.1341 0.5742 0
M  V30 2 C -0.2567 0.3963 0.3693 0
M  V30 3 C -1.5685 -0.1754 0.4479 0
M  V30 4 C 0.8833 -0.446 0.3195 0
M  V30 5 N -2.732 0.5568 0.2748 0
M  V30 6 C -1.6782 -1.565 0.7224 0
M  V30 7 N 2.2106 0.0797 0.1114 0
M  V30 8 C 0.7227 -1.8279 0.4858 0
M  V30 9 C -3.9418 0.0333 0.6419 0
M  V30 10 C -2.7642 1.8943 -0.3462 0
M  V30 11 C -2.9386 -2.1233 1.0074 0
M  V30 12 C -0.5315 -2.3719 0.7232 0
M  V30 13 C 3.5433 -0.468 -0.2376 0 CFG=2
M  V30 14 C 2.9236 1.3773 0.1667 0
M  V30 15 F 1.7955 -2.6569 0.5015 0
M  V30 16 C -4.0815 -1.3073 1.0157 0
M  V30 17 C -2.1825 1.9609 -1.7569 0
M  V30 18 C -3.6831 1.9957 -1.565 0
M  V30 19 O -3.0383 -3.3549 1.2691 0
M  V30 20 C 4.2816 0.8384 -0.1599 0 CFG=1
M  V30 21 C 3.5471 -1.0628 -1.6511 0
M  V30 22 C -5.4302 -1.8296 1.3675 0
M  V30 23 N 5.2201 0.9097 0.9652 0 CHG=1
M  V30 24 O -5.5907 -3.0264 1.7266 0
M  V30 25 O -6.5426 -0.9969 1.3114 0 CHG=-1
M  V30 26 H -4.8276 0.6574 0.589 0
M  V30 27 H -2.7463 2.7937 0.3059 0
M  V30 28 H -0.6002 -3.4378 0.9051 0
M  V30 29 H 3.8842 -1.2112 0.5182 0
M  V30 30 H 2.8543 1.8288 1.1819 0
M  V30 31 H 2.5576 2.0659 -0.6271 0
M  V30 32 H -1.8034 1.0012 -2.1689 0
M  V30 33 H -1.7352 2.9426 -2.0196 0
M  V30 34 H -4.1837 1.0612 -1.8978 0
M  V30 35 H -4.1277 2.9997 -1.731 0
M  V30 36 H 4.7037 1.2219 -1.117 0
M  V30 37 H 2.9198 -1.9767 -1.6847 0
M  V30 38 H 3.1466 -0.3326 -2.3874 0
M  V30 39 H 4.5839 -1.3368 -1.9392 0
M  V30 40 H 5.523 1.9021 1.0934 0
M  V30 41 H 6.0602 0.3286 0.743 0
M  V30 42 H 4.7903 0.5647 1.8556 0
M  V30 END ATOM
M  V30 BEGIN BOND
M  V30 1 1 1 2
M  V30 2 2 2 3
M  V30 3 1 2 4
M  V30 4 1 3 5
M  V30 5 1 3 6
M  V30 6 1 4 7
M  V30 7 2 4 8
M  V30 8 1 5 9
M  V30 9 1 5 10
M  V30 10 1 6 11
M  V30 11 2 6 12
M  V30 12 1 7 13
M  V30 13 1 7 14
M  V30 14 1 8 15
M  V30 15 2 9 16
M  V30 16 1 10 17
M  V30 17 1 10 18
M  V30 18 2 11 19
M  V30 19 1 13 20
M  V30 20 1 13 21
M  V30 21 1 16 22
M  V30 22 1 20 23
M  V30 23 2 22 24
M  V30 24 1 22 25
M  V30 25 1 8 12
M  V30 26 1 11 16
M  V30 27 1 14 20
M  V30 28 1 17 18
M  V30 29 1 9 26
M  V30 30 1 10 27
M  V30 31 1 12 28
M  V30 32 1 13 29
M  V30 33 1 14 30
M  V30 34 1 14 31
M  V30 35 1 17 32
M  V30 36 1 17 33
M  V30 37 1 18 34
M  V30 38 1 18 35
M  V30 39 1 20 36
M  V30 40 1 21 37
M  V30 41 1 21 38
M  V30 42 1 21 39
M  V30 43 1 23 40
M  V30 44 1 23 41
M  V30 45 1 23 42
M  V30 END BOND
M  V30 BEGIN COLLECTION
M  V30 MDLV30/STEABS ATOMS=(2 13 20)
M  V30 END COLLECTION
M  V30 END CTAB
M  END
>  <Structure No>
8564

>  <LogS>
-4.48

>  <MMFF94 Energy>
72.373

$$$$
Compound 8565
Actelion Java MolfileCreator 2.0

  0  0  0  0  0  0              0 V3000
M  V30 BEGIN CTAB
M  V30 COUNTS 44 47 0 0 0
M  V30 BEGIN ATOM
M  V30 1 F -0.1624 1.3003 -1.219 0
M  V30 2 C -0.2591 0.2218 -0.4029 0
M  V30 3 C -1.5172 -0.3657 -0.0955 0
M  V30 4 C 0.9319 -0.3195 0.0935 0
M  V30 5 N -2.7109 0.2157 -0.4885 0
M  V30 6 C -1.5373 -1.5934 0.6355 0
M  V30 7 N 2.1855 0.3254 -0.1822 0
M  V30 8 C 0.9016 -1.5089 0.8219 0
M  V30 9 C -3.891 -0.4552 -0.3381 0
M  V30 10 C -2.7784 1.54 -1.1391 0
M  V30 11 C -2.7943 -2.1779 0.935 0
M  V30 12 C -0.3054 -2.1771 1.0567 0
M  V30 13 C 3.596 0.2323 0.2585 0 CFG=1
M  V30 14 C 2.6849 1.3826 -1.0884 0
M  V30 15 F 2.0656 -2.0806 1.223 0
M  V30 16 C -3.9729 -1.6414 0.3914 0
M  V30 17 C -3.8294 2.4944 -0.567 0
M  V30 18 C -2.3674 2.701 -0.2361 0
M  V30 19 O -2.8753 -3.166 1.7135 0
M  V30 20 N -0.2401 -3.4788 1.6596 0
M  V30 21 C 4.1217 1.2905 -0.6724 0 CFG=2
M  V30 22 C 3.7438 0.619 1.7347 0
M  V30 23 C -5.3037 -2.2794 0.5915 0
M  V30 24 N 4.9959 0.7575 -1.7226 0 CHG=1
M  V30 25 O -5.4078 -3.4071 1.143 0
M  V30 26 O -6.4612 -1.6409 0.1594 0 CHG=-1
M  V30 27 H -4.7996 -0.0348 -0.755 0
M  V30 28 H -2.5678 1.6178 -2.2271 0
M  V30 29 H 4.0123 -0.781 0.0588 0
M  V30 30 H 2.5042 1.1113 -2.1526 0
M  V30 31 H 2.2388 2.3683 -0.828 0
M  V30 32 H -4.4179 2.1442 0.3078 0
M  V30 33 H -4.2271 3.2369 -1.2904 0
M  V30 34 H -2.0951 2.4245 0.8052 0
M  V30 35 H -1.8962 3.5517 -0.7719 0
M  V30 36 H 0.5654 -3.7423 2.2698 0
M  V30 37 H -0.8381 -4.2616 1.3163 0
M  V30 38 H 4.5145 2.2158 -0.1923 0
M  V30 39 H 3.2651 -0.1448 2.3806 0
M  V30 40 H 4.8205 0.6795 1.9999 0
M  V30 41 H 3.2648 1.6019 1.9352 0
M  V30 42 H 5.9227 0.5178 -1.3025 0
M  V30 43 H 5.1383 1.4926 -2.4522 0
M  V30 44 H 4.5913 -0.0975 -2.1713 0
M  V30 END ATOM
M  V30 BEGIN BOND
M  V30 1 1 1 2
M  V30 2 2 2 3
M  V30 3 1 2 4
M  V30 4 1 3 5
M  V30 5 1 3 6
M  V30 6 1 4 7
M  V30 7 2 4 8
M  V30 8 1 5 9
M  V30 9 1 5 10
M  V30 10 1 6 11
M  V30 11 2 6 12
M  V30 12 1 7 13
M  V30 13 1 7 14
M  V30 14 1 8 15
M  V30 15 2 9 16
M  V30 16 1 10 17
M  V30 17 1 10 18
M  V30 18 2 11 19
M  V30 19 1 12 20
M  V30 20 1 13 21
M  V30 21 1 13 22
M  V30 22 1 16 23
M  V30 23 1 21 24
M  V30 24 2 23 25
M  V30 25 1 23 26
M  V30 26 1 8 12
M  V30 27 1 11 16
M  V30 28 1 14 21
M  V30 29 1 17 18
M  V30 30 1 9 27
M  V30 31 1 10 28
M  V30 32 1 13 29
M  V30 33 1 14 30
M  V30 34 1 14 31
M  V30 35 1 17 32
M  V30 36 1 17 33
M  V30 37 1 18 34
M  V30 38 1 18 35
M  V30 39 1 20 36
M  V30 40 1 20 37
M  V30 41 1 21 38
M  V30 42 1 22 39
M  V30 43 1 22 40
M  V30 44 1 22 41
M  V30 45 1 24 42
M  V30 46 1 24 43
M  V30 47 1 24 44
M  V30 END BOND
M  V30 BEGIN COLLECTION
M  V30 MDLV30/STEABS ATOMS=(2 13 21)
M  V30 END COLLECTION
M  V30 END CTAB
M  END
>  <Structure No>
8565

>  <LogS>
-3.98

>  <MMFF94 Energy>
98.414

$$$$
Compound 8566
Actelion Java MolfileCreator 2.0

  0  0  0  0  0  0              0 V3000
M  V30 BEGIN CTAB
M  V30 COUNTS 45 48 0 0 0
M  V30 BEGIN ATOM
M  V30 1 F 0.3249 -0.7312 1.5442 0
M  V30 2 C 0.646 0.2085 0.6213 0
M  V30 3 C 2.0008 0.566 0.3685 0
M  V30 4 C -0.4076 0.8578 -0.0443 0
M  V30 5 N 3.0673 -0.1008 0.9436 0
M  V30 6 C 2.2546 1.6628 -0.4983 0
M  V30 7 N -1.7663 0.4654 0.2032 0
M  V30 8 C -0.1274 1.9027 -0.9308 0
M  V30 9 C 4.3377 0.3937 0.8237 0
M  V30 10 C 2.8958 -1.3225 1.7536 0
M  V30 11 C 3.5748 2.1113 -0.6845 0
M  V30 12 C 1.1856 2.3068 -1.1466 0
M  V30 13 C -3.1046 0.6795 -0.3916 0 CFG=2
M  V30 14 C -2.4983 -0.2936 1.2392 0
M  V30 15 F -1.1283 2.5795 -1.5457 0
M  V30 16 C 4.6301 1.4916 0.0038 0
M  V30 17 C 2.3933 -2.529 0.9646 0
M  V30 18 C 3.8407 -2.4734 1.4028 0
M  V30 19 O 3.8066 3.08 -1.4602 0
M  V30 20 C -3.8744 -0.0424 0.6983 0 CFG=2
M  V30 21 C -3.1569 0.1036 -1.817 0
M  V30 22 C 6.0375 1.9611 -0.1218 0
M  V30 23 N -4.5887 -1.2876 0.3467 0 CHG=1
M  V30 24 O 6.9669 1.3576 0.4777 0
M  V30 25 O 6.3578 3.0707 -0.8954 0 CHG=-1
M  V30 26 C -5.9727 -1.0024 -0.043 0
M  V30 27 H 5.1485 -0.0884 1.3582 0
M  V30 28 H 2.5908 -1.226 2.8174 0
M  V30 29 H 1.361 3.1405 -1.8157 0
M  V30 30 H -3.3588 1.7633 -0.3995 0
M  V30 31 H -2.2011 -1.3661 1.2228 0
M  V30 32 H -2.3501 0.1645 2.2421 0
M  V30 33 H 1.767 -3.2314 1.5537 0
M  V30 34 H 2.2428 -2.3609 -0.1234 0
M  V30 35 H 4.0731 -3.1579 2.2454 0
M  V30 36 H 4.5376 -2.3217 0.5513 0
M  V30 37 H -4.4604 0.6397 1.3567 0
M  V30 38 H -2.5793 0.7548 -2.5034 0
M  V30 39 H -4.198 0.0691 -2.1925 0
M  V30 40 H -2.7023 -0.9082 -1.8615 0
M  V30 41 H -4.6263 -1.8954 1.1984 0
M  V30 42 H -4.1127 -1.8357 -0.4035 0
M  V30 43 H -6.5438 -0.5976 0.8215 0
M  V30 44 H -6.4688 -1.9386 -0.378 0
M  V30 45 H -6.0152 -0.2678 -0.8733 0
M  V30 END ATOM
M  V30 BEGIN BOND
M  V30 1 1 1 2
M  V30 2 2 2 3
M  V30 3 1 2 4
M  V30 4 1 3 5
M  V30 5 1 3 6
M  V30 6 1 4 7
M  V30 7 2 4 8
M  V30 8 1 5 9
M  V30 9 1 5 10
M  V30 10 1 6 11
M  V30 11 2 6 12
M  V30 12 1 7 13
M  V30 13 1 7 14
M  V30 14 1 8 15
M  V30 15 2 9 16
M  V30 16 1 10 17
M  V30 17 1 10 18
M  V30 18 2 11 19
M  V30 19 1 13 20
M  V30 20 1 13 21
M  V30 21 1 16 22
M  V30 22 1 20 23
M  V30 23 2 22 24
M  V30 24 1 22 25
M  V30 25 1 23 26
M  V30 26 1 8 12
M  V30 27 1 11 16
M  V30 28 1 14 20
M  V30 29 1 17 18
M  V30 30 1 9 27
M  V30 31 1 10 28
M  V30 32 1 12 29
M  V30 33 1 13 30
M  V30 34 1 14 31
M  V30 35 1 14 32
M  V30 36 1 17 33
M  V30 37 1 17 34
M  V30 38 1 18 35
M  V30 39 1 18 36
M  V30 40 1 20 37
M  V30 41 1 21 38
M  V30 42 1 21 39
M  V30 43 1 21 40
M  V30 44 1 23 41
M  V30 45 1 23 42
M  V30 46 1 26 43
M  V30 47 1 26 44
M  V30 48 1 26 45
M  V30 END BOND
M  V30 BEGIN COLLECTION
M  V30 MDLV30/STEABS ATOMS=(2 13 20)
M  V30 END COLLECTION
M  V30 END CTAB
M  END
>  <Structure No>
8566

>  <LogS>
-4.44

>  <MMFF94 Energy>
75.513

$$$$
Compound 8567
Actelion Java MolfileCreator 2.0

  0  0  0  0  0  0              0 V3000
M  V30 BEGIN CTAB
M  V30 COUNTS 45 48 0 0 0
M  V30 BEGIN ATOM
M  V30 1 F -0.1624 -0.2436 -1.3814 0
M  V30 2 C -0.4301 -0.3856 -0.0605 0
M  V30 3 C -1.7524 -0.2352 0.4433 0
M  V30 4 C 0.6217 -0.7776 0.7839 0
M  V30 5 N -2.7939 0.2393 -0.3325 0
M  V30 6 C -2.0031 -0.6024 1.7927 0
M  V30 7 N 1.9623 -0.8691 0.2803 0
M  V30 8 C 0.3585 -1.0841 2.1225 0
M  V30 9 C -4.0804 0.1901 0.1313 0
M  V30 10 C -2.5906 0.7666 -1.6958 0
M  V30 11 C -3.3193 -0.5711 2.2883 0
M  V30 12 C -0.9396 -1.0117 2.6174 0
M  V30 13 C 2.7178 -0.4902 -0.9362 0 CFG=2
M  V30 14 C 3.2538 -1.4259 0.739 0
M  V30 15 F 1.3586 -1.4697 2.9537 0
M  V30 16 C -4.3786 -0.1979 1.4433 0
M  V30 17 C -3.2505 2.1184 -1.9725 0
M  V30 18 C -1.7545 2.043 -1.7547 0
M  V30 19 O -3.5482 -0.8914 3.4881 0
M  V30 20 C 4.0343 -1.0697 -0.4913 0 CFG=1
M  V30 21 C 2.7487 1.0397 -1.1698 0
M  V30 22 C -5.7952 -0.1918 1.9003 0
M  V30 23 N 4.4474 -2.2404 -1.2724 0 CHG=1
M  V30 24 C 2.9748 1.8743 0.0952 0
M  V30 25 O -6.1045 -0.5584 3.0651 0
M  V30 26 O -6.8085 0.2194 1.0414 0 CHG=-1
M  V30 27 H -4.8929 0.4832 -0.5242 0
M  V30 28 H -2.5237 0.0542 -2.5454 0
M  V30 29 H -1.1092 -1.2805 3.6532 0
M  V30 30 H 2.3036 -1.0095 -1.8303 0
M  V30 31 H 3.6212 -0.8819 1.6374 0
M  V30 32 H 3.1713 -2.5207 0.9213 0
M  V30 33 H -3.7814 2.6084 -1.1284 0
M  V30 34 H -3.5349 2.2889 -3.0321 0
M  V30 35 H -1.1534 2.1523 -2.6818 0
M  V30 36 H -1.4188 2.4425 -0.7734 0
M  V30 37 H 4.8592 -0.3441 -0.3155 0
M  V30 38 H 1.7858 1.3553 -1.6236 0
M  V30 39 H 3.5474 1.2749 -1.906 0
M  V30 40 H 4.7813 -1.9213 -2.2102 0
M  V30 41 H 3.663 -2.9219 -1.4013 0
M  V30 42 H 5.2367 -2.7168 -0.7795 0
M  V30 43 H 2.1434 1.7268 0.8159 0
M  V30 44 H 3.0077 2.9502 -0.1769 0
M  V30 45 H 3.9354 1.6108 0.5826 0
M  V30 END ATOM
M  V30 BEGIN BOND
M  V30 1 1 1 2
M  V30 2 2 2 3
M  V30 3 1 2 4
M  V30 4 1 3 5
M  V30 5 1 3 6
M  V30 6 1 4 7
M  V30 7 2 4 8
M  V30 8 1 5 9
M  V30 9 1 5 10
M  V30 10 1 6 11
M  V30 11 2 6 12
M  V30 12 1 7 13
M  V30 13 1 7 14
M  V30 14 1 8 15
M  V30 15 2 9 16
M  V30 16 1 10 17
M  V30 17 1 10 18
M  V30 18 2 11 19
M  V30 19 1 13 20
M  V30 20 1 13 21
M  V30 21 1 16 22
M  V30 22 1 20 23
M  V30 23 1 21 24
M  V30 24 2 22 25
M  V30 25 1 22 26
M  V30 26 1 8 12
M  V30 27 1 11 16
M  V30 28 1 14 20
M  V30 29 1 17 18
M  V30 30 1 9 27
M  V30 31 1 10 28
M  V30 32 1 12 29
M  V30 33 1 13 30
M  V30 34 1 14 31
M  V30 35 1 14 32
M  V30 36 1 17 33
M  V30 37 1 17 34
M  V30 38 1 18 35
M  V30 39 1 18 36
M  V30 40 1 20 37
M  V30 41 1 21 38
M  V30 42 1 21 39
M  V30 43 1 23 40
M  V30 44 1 23 41
M  V30 45 1 23 42
M  V30 46 1 24 43
M  V30 47 1 24 44
M  V30 48 1 24 45
M  V30 END BOND
M  V30 BEGIN COLLECTION
M  V30 MDLV30/STEABS ATOMS=(2 13 20)
M  V30 END COLLECTION
M  V30 END CTAB
M  END
>  <Structure No>
8567

>  <LogS>
-3.81

>  <MMFF94 Energy>
60.802

$$$$
Compound 8568
Actelion Java MolfileCreator 2.0

  0  0  0  0  0  0              0 V3000
M  V30 BEGIN CTAB
M  V30 COUNTS 45 48 0 0 0
M  V30 BEGIN ATOM
M  V30 1 F -0.2437 -1.3006 -0.2437 0
M  V30 2 C -0.5177 0.0175 -0.0944 0
M  V30 3 C -1.8513 0.5112 -0.1812 0
M  V30 4 C 0.5616 0.8913 0.1253 0
M  V30 5 N -2.9461 -0.3199 -0.3386 0
M  V30 6 C -2.0518 1.9168 -0.1176 0
M  V30 7 N 1.9025 0.3872 0.2221 0
M  V30 8 C 0.3258 2.263 0.2595 0
M  V30 9 C -4.1802 0.2064 -0.6107 0
M  V30 10 C -2.8399 -1.7914 -0.2904 0
M  V30 11 C -3.3411 2.4453 -0.3101 0
M  V30 12 C -0.9612 2.7712 0.1236 0
M  V30 13 C 2.6446 -0.8614 -0.0723 0 CFG=2
M  V30 14 C 3.1902 0.8672 0.7728 0
M  V30 15 F 1.3508 3.1229 0.483 0
M  V30 16 C -4.4169 1.5861 -0.5895 0
M  V30 17 C -2.465 -2.3444 1.0825 0
M  V30 18 C -3.8848 -2.4925 0.5801 0
M  V30 19 O -3.5266 3.6929 -0.2461 0
M  V30 20 C 3.9667 -0.3941 0.5089 0 CFG=2
M  V30 21 C 2.6282 -1.1727 -1.578 0
M  V30 22 C -5.7918 2.0933 -0.8516 0
M  V30 23 N 5.0762 -0.2063 -0.4427 0 CHG=1
M  V30 24 C 4.3942 -1.1472 1.7805 0
M  V30 25 O -6.0366 3.3287 -0.8703 0
M  V30 26 O -6.8357 1.2048 -1.0847 0 CHG=-1
M  V30 27 H -5.007 -0.4607 -0.8273 0
M  V30 28 H -2.4845 -2.336 -1.191 0
M  V30 29 H -1.0988 3.8434 0.1975 0
M  V30 30 H 2.2089 -1.7136 0.4975 0
M  V30 31 H 3.0858 1.1102 1.854 0
M  V30 32 H 3.56 1.7452 0.198 0
M  V30 33 H -2.3455 -1.5873 1.8871 0
M  V30 34 H -1.8718 -3.2824 1.0506 0
M  V30 35 H -4.1352 -3.5272 0.2647 0
M  V30 36 H -4.6014 -1.8523 1.1377 0
M  V30 37 H 2.8437 -0.266 -2.1812 0
M  V30 38 H 1.6276 -1.5446 -1.8771 0
M  V30 39 H 3.368 -1.9661 -1.8128 0
M  V30 40 H 5.8733 0.2631 0.0452 0
M  V30 41 H 4.8064 0.3927 -1.2555 0
M  V30 42 H 5.4041 -1.136 -0.7905 0
M  V30 43 H 4.7579 -2.1609 1.5104 0
M  V30 44 H 5.2133 -0.5965 2.2894 0
M  V30 45 H 3.5468 -1.2532 2.4925 0
M  V30 END ATOM
M  V30 BEGIN BOND
M  V30 1 1 1 2
M  V30 2 2 2 3
M  V30 3 1 2 4
M  V30 4 1 3 5
M  V30 5 1 3 6
M  V30 6 1 4 7
M  V30 7 2 4 8
M  V30 8 1 5 9
M  V30 9 1 5 10
M  V30 10 1 6 11
M  V30 11 2 6 12
M  V30 12 1 7 13
M  V30 13 1 7 14
M  V30 14 1 8 15
M  V30 15 2 9 16
M  V30 16 1 10 17
M  V30 17 1 10 18
M  V30 18 2 11 19
M  V30 19 1 13 20
M  V30 20 1 13 21
M  V30 21 1 16 22
M  V30 22 1 20 23
M  V30 23 1 20 24
M  V30 24 2 22 25
M  V30 25 1 22 26
M  V30 26 1 8 12
M  V30 27 1 11 16
M  V30 28 1 14 20
M  V30 29 1 17 18
M  V30 30 1 9 27
M  V30 31 1 10 28
M  V30 32 1 12 29
M  V30 33 1 13 30
M  V30 34 1 14 31
M  V30 35 1 14 32
M  V30 36 1 17 33
M  V30 37 1 17 34
M  V30 38 1 18 35
M  V30 39 1 18 36
M  V30 40 1 21 37
M  V30 41 1 21 38
M  V30 42 1 21 39
M  V30 43 1 23 40
M  V30 44 1 23 41
M  V30 45 1 23 42
M  V30 46 1 24 43
M  V30 47 1 24 44
M  V30 48 1 24 45
M  V30 END BOND
M  V30 BEGIN COLLECTION
M  V30 MDLV30/STEABS ATOMS=(2 13 20)
M  V30 END COLLECTION
M  V30 END CTAB
M  END
>  <Structure No>
8568

>  <LogS>
-5.04

>  <MMFF94 Energy>
64.639

$$$$
Compound 8569
Actelion Java MolfileCreator 2.0

  0  0  0  0  0  0              0 V3000
M  V30 BEGIN CTAB
M  V30 COUNTS 42 45 0 0 0
M  V30 BEGIN ATOM
M  V30 1 F 1.7833 1.2967 2.8382 0
M  V30 2 C 0.7621 1.1051 1.9661 0
M  V30 3 C 0.8973 0.2165 0.8942 0
M  V30 4 C -0.4212 1.8217 2.1379 0
M  V30 5 N 2.1175 -0.5095 0.7033 0
M  V30 6 C -0.1729 0.0301 0.0113 0
M  V30 7 C -1.4998 1.6537 1.2482 0
M  V30 8 C 2.7009 -1.4302 -0.2974 0 CFG=2
M  V30 9 C 3.3464 -0.7864 1.4773 0
M  V30 10 C -1.3925 0.7267 0.1801 0
M  V30 11 C -2.6802 2.4038 1.3964 0
M  V30 12 C 3.9571 -1.7323 0.487 0 CFG=2
M  V30 13 C 2.8795 -0.7375 -1.6575 0
M  V30 14 N -2.4617 0.5335 -0.6691 0
M  V30 15 O -2.7893 3.2217 2.3519 0
M  V30 16 C -3.7299 2.2503 0.4733 0
M  V30 17 N 5.2209 -1.2427 -0.0805 0 CHG=1
M  V30 18 C -3.5796 1.315 -0.5614 0
M  V30 19 C -2.4038 -0.436 -1.7802 0
M  V30 20 C -4.9833 3.0487 0.5653 0
M  V30 21 C -2.3407 -1.8929 -1.3311 0
M  V30 22 C -3.6245 -1.3453 -1.9184 0
M  V30 23 O -5.9171 2.8668 -0.2608 0
M  V30 24 O -5.1522 4.0085 1.5567 0 CHG=-1
M  V30 25 H -0.4863 2.5163 2.9667 0
M  V30 26 H -0.0397 -0.6637 -0.8037 0
M  V30 27 H 2.0656 -2.3386 -0.4028 0
M  V30 28 H 3.9326 0.1462 1.6356 0
M  V30 29 H 3.1 -1.2888 2.4389 0
M  V30 30 H 4.015 -2.7826 0.8506 0
M  V30 31 H 3.3234 0.2732 -1.5409 0
M  V30 32 H 1.8937 -0.621 -2.1519 0
M  V30 33 H 3.5194 -1.3553 -2.321 0
M  V30 34 H 5.9801 -1.3912 0.6226 0
M  V30 35 H 5.188 -0.2248 -0.3173 0
M  V30 36 H 5.4549 -1.7978 -0.9344 0
M  V30 37 H -4.3768 1.2052 -1.2878 0
M  V30 38 H -1.8542 -0.1616 -2.7056 0
M  V30 39 H -2.3819 -2.0599 -0.2332 0
M  V30 40 H -1.7737 -2.5573 -2.0165 0
M  V30 41 H -3.8253 -1.6993 -2.9513 0
M  V30 42 H -4.4292 -1.236 -1.1604 0
M  V30 END ATOM
M  V30 BEGIN BOND
M  V30 1 1 1 2
M  V30 2 2 2 3
M  V30 3 1 2 4
M  V30 4 1 3 5
M  V30 5 1 3 6
M  V30 6 2 4 7
M  V30 7 1 5 8
M  V30 8 1 5 9
M  V30 9 2 6 10
M  V30 10 1 7 11
M  V30 11 1 8 12
M  V30 12 1 8 13
M  V30 13 1 10 14
M  V30 14 2 11 15
M  V30 15 1 11 16
M  V30 16 1 12 17
M  V30 17 1 14 18
M  V30 18 1 14 19
M  V30 19 1 16 20
M  V30 20 1 19 21
M  V30 21 1 19 22
M  V30 22 2 20 23
M  V30 23 1 20 24
M  V30 24 1 7 10
M  V30 25 1 9 12
M  V30 26 2 16 18
M  V30 27 1 21 22
M  V30 28 1 4 25
M  V30 29 1 6 26
M  V30 30 1 8 27
M  V30 31 1 9 28
M  V30 32 1 9 29
M  V30 33 1 12 30
M  V30 34 1 13 31
M  V30 35 1 13 32
M  V30 36 1 13 33
M  V30 37 1 17 34
M  V30 38 1 17 35
M  V30 39 1 17 36
M  V30 40 1 18 37
M  V30 41 1 19 38
M  V30 42 1 21 39
M  V30 43 1 21 40
M  V30 44 1 22 41
M  V30 45 1 22 42
M  V30 END BOND
M  V30 BEGIN COLLECTION
M  V30 MDLV30/STEABS ATOMS=(2 8 12)
M  V30 END COLLECTION
M  V30 END CTAB
M  END
>  <Structure No>
8569

>  <LogS>
-4.63

>  <MMFF94 Energy>
48.001

$$$$
Compound 8570
Actelion Java MolfileCreator 2.0

  0  0  0  0  0  0              0 V3000
M  V30 BEGIN CTAB
M  V30 COUNTS 42 45 0 0 0
M  V30 BEGIN ATOM
M  V30 1 F 0.0 -1.2214 -0.7327 0
M  V30 2 C 0.2008 0.0358 -0.2685 0
M  V30 3 C 1.512 0.5657 -0.1016 0
M  V30 4 C -0.9329 0.8145 0.0168 0
M  V30 5 N 2.6529 -0.1907 -0.2992 0
M  V30 6 C 1.6409 1.9316 0.2684 0
M  V30 7 N -2.245 0.2558 -0.1356 0
M  V30 8 C -0.7775 2.1405 0.4294 0
M  V30 9 C 3.8842 0.4066 -0.3142 0
M  V30 10 C 2.607 -1.642 -0.5635 0
M  V30 11 C 2.9184 2.5165 0.3361 0
M  V30 12 C 0.4924 2.6956 0.5432 0
M  V30 13 C -3.4005 -0.057 0.7377 0 CFG=2
M  V30 14 C -2.9441 -0.5911 -1.1269 0
M  V30 15 F -1.8568 2.9296 0.6472 0
M  V30 16 C 4.0553 1.7579 0.0145 0
M  V30 17 C 3.5777 -2.4859 0.2648 0
M  V30 18 C 2.1053 -2.4746 0.6139 0
M  V30 19 O 3.0391 3.7273 0.6728 0
M  V30 20 C -4.1272 -0.9106 -0.2649 0 CFG=1
M  V30 21 C -4.1905 1.1933 1.132 0
M  V30 22 C 5.4237 2.3449 0.0228 0
M  V30 23 N -4.2017 -2.3239 0.1198 0 CHG=1
M  V30 24 O 6.4272 1.6264 -0.2306 0
M  V30 25 O 5.6258 3.691 0.3052 0 CHG=-1
M  V30 26 H 4.7585 -0.1835 -0.5648 0
M  V30 27 H 2.3802 -1.996 -1.5916 0
M  V30 28 H 0.5719 3.7371 0.8309 0
M  V30 29 H -3.0699 -0.6206 1.6399 0
M  V30 30 H -2.3439 -1.4848 -1.4024 0
M  V30 31 H -3.2244 0.0067 -2.022 0
M  V30 32 H 4.1978 -1.9592 1.0212 0
M  V30 33 H 3.9083 -3.4273 -0.2218 0
M  V30 34 H 1.8625 -1.9032 1.5356 0
M  V30 35 H 1.5622 -3.3979 0.322 0
M  V30 36 H -5.0888 -0.5015 -0.6508 0
M  V30 37 H -4.361 1.8485 0.2508 0
M  V30 38 H -3.6386 1.7559 1.9125 0
M  V30 39 H -5.1728 0.8972 1.5573 0
M  V30 40 H -3.2783 -2.6876 0.4532 0
M  V30 41 H -4.9076 -2.4304 0.8835 0
M  V30 42 H -4.513 -2.8851 -0.7053 0
M  V30 END ATOM
M  V30 BEGIN BOND
M  V30 1 1 1 2
M  V30 2 2 2 3
M  V30 3 1 2 4
M  V30 4 1 3 5
M  V30 5 1 3 6
M  V30 6 1 4 7
M  V30 7 2 4 8
M  V30 8 1 5 9
M  V30 9 1 5 10
M  V30 10 1 6 11
M  V30 11 2 6 12
M  V30 12 1 7 13
M  V30 13 1 7 14
M  V30 14 1 8 15
M  V30 15 2 9 16
M  V30 16 1 10 17
M  V30 17 1 10 18
M  V30 18 2 11 19
M  V30 19 1 13 20
M  V30 20 1 13 21
M  V30 21 1 16 22
M  V30 22 1 20 23
M  V30 23 2 22 24
M  V30 24 1 22 25
M  V30 25 1 8 12
M  V30 26 1 11 16
M  V30 27 1 14 20
M  V30 28 1 17 18
M  V30 29 1 9 26
M  V30 30 1 10 27
M  V30 31 1 12 28
M  V30 32 1 13 29
M  V30 33 1 14 30
M  V30 34 1 14 31
M  V30 35 1 17 32
M  V30 36 1 17 33
M  V30 37 1 18 34
M  V30 38 1 18 35
M  V30 39 1 20 36
M  V30 40 1 21 37
M  V30 41 1 21 38
M  V30 42 1 21 39
M  V30 43 1 23 40
M  V30 44 1 23 41
M  V30 45 1 23 42
M  V30 END BOND
M  V30 BEGIN COLLECTION
M  V30 MDLV30/STEABS ATOMS=(2 13 20)
M  V30 END COLLECTION
M  V30 END CTAB
M  END
>  <Structure No>
8570

>  <LogS>
-4.17

>  <MMFF94 Energy>
60.21

$$$$
Compound 8571
Actelion Java MolfileCreator 2.0

  0  0  0  0  0  0              0 V3000
M  V30 BEGIN CTAB
M  V30 COUNTS 62 65 0 0 0
M  V30 BEGIN ATOM
M  V30 1 O -5.9073 2.9099 1.1308 0
M  V30 2 C -5.1803 1.9928 0.6649 0
M  V30 3 C -4.4661 1.0939 1.584 0
M  V30 4 C -5.1002 1.7904 -0.8137 0
M  V30 5 C -3.6829 0.0871 1.1487 0
M  V30 6 C -3.7816 1.1017 -1.1754 0
M  V30 7 C -3.5151 -0.2053 -0.3478 0 CFG=1
M  V30 8 C -3.1588 -0.862 2.1972 0
M  V30 9 C -2.0805 -0.8258 -0.6764 0 CFG=2
M  V30 10 C -4.6077 -1.2392 -0.7432 0
M  V30 11 C -2.3336 -2.0202 1.637 0
M  V30 12 C -1.3854 -1.6206 0.491 0 CFG=2
M  V30 13 C -1.0742 0.1284 -1.3739 0
M  V30 14 C -0.0259 -1.0327 0.9993 0 CFG=1
M  V30 15 C 0.298 -0.5358 -1.5159 0
M  V30 16 C 0.9981 -0.703 -0.1367 0 CFG=1
M  V30 17 C -0.1347 0.2305 1.8526 0
M  V30 18 C 1.6658 0.6457 0.2949 0 CFG=1
M  V30 19 C 2.0324 -1.8497 -0.2472 0
M  V30 20 C 1.21 0.9115 1.721 0
M  V30 21 O 3.0959 0.6195 0.2527 0
M  V30 22 C 3.8464 0.9022 -0.8954 0
M  V30 23 O 3.2753 1.205 -1.9783 0
M  V30 24 C 5.3479 0.8251 -0.8437 0
M  V30 25 C 5.8891 1.6386 0.3435 0
M  V30 26 C 5.8134 -0.6429 -0.8131 0
M  V30 27 O 7.2897 1.657 0.3154 0
M  V30 28 O 5.354 -1.3054 0.3363 0
M  V30 29 H -4.6073 1.2453 2.6487 0
M  V30 30 H -5.968 1.19 -1.1571 0
M  V30 31 H -5.1479 2.7754 -1.3271 0
M  V30 32 H -2.9899 1.8538 -0.9794 0
M  V30 33 H -3.7787 0.8811 -2.2655 0
M  V30 34 H -4.0202 -1.2933 2.7539 0
M  V30 35 H -2.5632 -0.2952 2.9396 0
M  V30 36 H -2.265 -1.5899 -1.4685 0
M  V30 37 H -5.6075 -0.9473 -0.3573 0
M  V30 38 H -4.3891 -2.247 -0.3429 0
M  V30 39 H -4.6761 -1.3347 -1.8484 0
M  V30 40 H -3.0193 -2.8177 1.2833 0
M  V30 41 H -1.7533 -2.4798 2.4668 0
M  V30 42 H -1.0841 -2.5976 0.0449 0
M  V30 43 H -1.4392 0.3804 -2.3934 0
M  V30 44 H -0.9591 1.0749 -0.8101 0
M  V30 45 H 0.4216 -1.8026 1.6715 0
M  V30 46 H 0.1593 -1.5241 -2.0097 0
M  V30 47 H 0.9303 0.0668 -2.202 0
M  V30 48 H -0.3241 -0.0152 2.9196 0
M  V30 49 H -0.9314 0.9079 1.48 0
M  V30 50 H 1.2989 1.4984 -0.321 0
M  V30 51 H 2.6203 -1.9419 0.6914 0
M  V30 52 H 2.7318 -1.6721 -1.0915 0
M  V30 53 H 1.5184 -2.8187 -0.428 0
M  V30 54 H 1.1322 2.0012 1.9293 0
M  V30 55 H 1.9249 0.4542 2.4419 0
M  V30 56 H 5.752 1.2845 -1.7742 0
M  V30 57 H 5.5109 2.6837 0.2729 0
M  V30 58 H 5.535 1.2053 1.3062 0
M  V30 59 H 5.4124 -1.1694 -1.7058 0
M  V30 60 H 6.9245 -0.6961 -0.8829 0
M  V30 61 H 7.5756 2.1583 1.1226 0
M  V30 62 H 6.0381 -1.1688 1.0416 0
M  V30 END ATOM
M  V30 BEGIN BOND
M  V30 1 2 1 2
M  V30 2 1 2 3
M  V30 3 1 2 4
M  V30 4 2 3 5
M  V30 5 1 4 6
M  V30 6 1 5 7
M  V30 7 1 5 8
M  V30 8 1 7 9
M  V30 9 1 7 10
M  V30 10 1 8 11
M  V30 11 1 9 12
M  V30 12 1 9 13
M  V30 13 1 12 14
M  V30 14 1 13 15
M  V30 15 1 14 16
M  V30 16 1 14 17
M  V30 17 1 16 18
M  V30 18 1 16 19
M  V30 19 1 17 20
M  V30 20 1 18 21
M  V30 21 1 21 22
M  V30 22 2 22 23
M  V30 23 1 22 24
M  V30 24 1 24 25
M  V30 25 1 24 26
M  V30 26 1 25 27
M  V30 27 1 26 28
M  V30 28 1 6 7
M  V30 29 1 11 12
M  V30 30 1 15 16
M  V30 31 1 18 20
M  V30 32 1 3 29
M  V30 33 1 4 30
M  V30 34 1 4 31
M  V30 35 1 6 32
M  V30 36 1 6 33
M  V30 37 1 8 34
M  V30 38 1 8 35
M  V30 39 1 9 36
M  V30 40 1 10 37
M  V30 41 1 10 38
M  V30 42 1 10 39
M  V30 43 1 11 40
M  V30 44 1 11 41
M  V30 45 1 12 42
M  V30 46 1 13 43
M  V30 47 1 13 44
M  V30 48 1 14 45
M  V30 49 1 15 46
M  V30 50 1 15 47
M  V30 51 1 17 48
M  V30 52 1 17 49
M  V30 53 1 18 50
M  V30 54 1 19 51
M  V30 55 1 19 52
M  V30 56 1 19 53
M  V30 57 1 20 54
M  V30 58 1 20 55
M  V30 59 1 24 56
M  V30 60 1 25 57
M  V30 61 1 25 58
M  V30 62 1 26 59
M  V30 63 1 26 60
M  V30 64 1 27 61
M  V30 65 1 28 62
M  V30 END BOND
M  V30 BEGIN COLLECTION
M  V30 MDLV30/STEABS ATOMS=(6 7 9 12 14 16 18)
M  V30 END COLLECTION
M  V30 END CTAB
M  END
>  <Structure No>
8571

>  <LogS>
-4.25

>  <MMFF94 Energy>
72.828

$$$$
Compound 8572
Actelion Java MolfileCreator 2.0

  0  0  0  0  0  0              0 V3000
M  V30 BEGIN CTAB
M  V30 COUNTS 39 42 0 0 0
M  V30 BEGIN ATOM
M  V30 1 O 3.5327 -1.9257 -1.5243 0
M  V30 2 C 2.6221 -1.5859 -0.641 0
M  V30 3 C 3.7981 -3.2041 -1.3871 0
M  V30 4 C 2.1233 -0.2079 -0.4906 0
M  V30 5 C 2.2833 -2.6842 0.1262 0
M  V30 6 C 3.0385 -3.728 -0.362 0
M  V30 7 N 2.9486 0.8543 -0.6793 0
M  V30 8 N 0.8418 0.1499 -0.1755 0
M  V30 9 C 2.1501 1.9099 -0.4543 0
M  V30 10 C 0.8855 1.4977 -0.1516 0
M  V30 11 C -0.3527 -0.7045 -0.0658 0 CFG=2
M  V30 12 C 2.4934 3.2582 -0.5212 0
M  V30 13 C -0.1388 2.4133 0.1077 0
M  V30 14 O -1.3504 -0.2518 -0.9514 0
M  V30 15 C -0.9254 -0.6938 1.3575 0 CFG=2
M  V30 16 C 1.4857 4.2045 -0.2623 0
M  V30 17 C 0.1747 3.7835 0.0512 0
M  V30 18 C -2.573 -0.6419 -0.3765 0 CFG=1
M  V30 19 O -0.6116 -1.8957 2.0143 0
M  V30 20 C -2.4247 -0.5368 1.1414 0 CFG=1
M  V30 21 C -3.72 0.213 -0.9276 0
M  V30 22 O -3.1573 -1.5451 1.7905 0
M  V30 23 O -3.4652 1.5751 -0.722 0
M  V30 24 H 4.5119 -3.7484 -1.9904 0
M  V30 25 H 1.6068 -2.7212 0.9668 0
M  V30 26 H 3.0486 -4.7475 -8.0E-4 0
M  V30 27 H -0.1066 -1.7442 -0.3676 0
M  V30 28 H 3.5009 3.5683 -0.7663 0
M  V30 29 H -1.1384 2.0929 0.3568 0
M  V30 30 H -0.5316 0.1738 1.9379 0
M  V30 31 H 1.7163 5.261 -0.3046 0
M  V30 32 H -0.5934 4.5193 0.2504 0
M  V30 33 H -2.7716 -1.7023 -0.659 0
M  V30 34 H -0.7565 -1.7365 2.9835 0
M  V30 35 H -2.7377 0.4669 1.5139 0
M  V30 36 H -4.6723 -0.0745 -0.4285 0
M  V30 37 H -3.8225 0.0159 -2.0181 0
M  V30 38 H -4.1084 -1.2624 1.7674 0
M  V30 39 H -4.2446 2.0609 -1.0978 0
M  V30 END ATOM
M  V30 BEGIN BOND
M  V30 1 1 1 2
M  V30 2 1 1 3
M  V30 3 1 2 4
M  V30 4 2 2 5
M  V30 5 2 3 6
M  V30 6 2 4 7
M  V30 7 1 4 8
M  V30 8 1 7 9
M  V30 9 1 8 10
M  V30 10 1 8 11
M  V30 11 1 9 12
M  V30 12 1 10 13
M  V30 13 1 11 14
M  V30 14 1 11 15
M  V30 15 2 12 16
M  V30 16 2 13 17
M  V30 17 1 14 18
M  V30 18 1 15 19
M  V30 19 1 15 20
M  V30 20 1 18 21
M  V30 21 1 20 22
M  V30 22 1 21 23
M  V30 23 1 5 6
M  V30 24 2 9 10
M  V30 25 1 16 17
M  V30 26 1 18 20
M  V30 27 1 3 24
M  V30 28 1 5 25
M  V30 29 1 6 26
M  V30 30 1 11 27
M  V30 31 1 12 28
M  V30 32 1 13 29
M  V30 33 1 15 30
M  V30 34 1 16 31
M  V30 35 1 17 32
M  V30 36 1 18 33
M  V30 37 1 19 34
M  V30 38 1 20 35
M  V30 39 1 21 36
M  V30 40 1 21 37
M  V30 41 1 22 38
M  V30 42 1 23 39
M  V30 END BOND
M  V30 BEGIN COLLECTION
M  V30 MDLV30/STEABS ATOMS=(4 11 15 18 20)
M  V30 END COLLECTION
M  V30 END CTAB
M  END
>  <Structure No>
8572

>  <LogS>
-2.92

>  <MMFF94 Energy>
102.93

$$$$
Compound 8573
Actelion Java MolfileCreator 2.0

  0  0  0  0  0  0              0 V3000
M  V30 BEGIN CTAB
M  V30 COUNTS 43 46 0 0 0
M  V30 BEGIN ATOM
M  V30 1 O -1.0436 -0.0802 1.0436 0
M  V30 2 C -0.2687 0.6304 0.0867 0 CFG=1
M  V30 3 C -2.4171 0.2335 0.9143 0 CFG=1
M  V30 4 N 1.1088 0.1039 0.0879 0
M  V30 5 C -0.8875 0.6057 -1.3519 0 CFG=1
M  V30 6 C -3.0039 -0.4463 -0.3523 0 CFG=1
M  V30 7 C -3.1548 -0.1503 2.2053 0
M  V30 8 C 2.2843 0.7999 -0.0015 0
M  V30 9 C 1.5079 -1.1812 0.2126 0
M  V30 10 O 0.1129 0.4366 -2.3258 0
M  V30 11 C -1.9488 -0.5062 -1.489 0 CFG=1
M  V30 12 O -3.4455 -1.7492 -0.0642 0
M  V30 13 O -2.8446 -1.4651 2.5795 0
M  V30 14 N 3.3845 0.0092 0.0857 0
M  V30 15 C 2.4244 2.2633 -0.1406 0
M  V30 16 C 2.8726 -1.2245 0.2104 0
M  V30 17 C 0.7451 -2.3473 0.3591 0
M  V30 18 O -2.5737 -0.4576 -2.7479 0
M  V30 19 O 3.4493 2.9248 0.3474 0
M  V30 20 C 1.5889 3.1373 -0.8141 0
M  V30 21 C 3.5788 -2.4179 0.339 0
M  V30 22 C 1.4292 -3.5698 0.4877 0
M  V30 23 C 3.3217 4.1948 0.0414 0
M  V30 24 C 2.1678 4.3812 -0.689 0
M  V30 25 C 2.8398 -3.6055 0.4761 0
M  V30 26 H -0.2307 1.6857 0.4333 0
M  V30 27 H -2.5533 1.3376 0.8089 0
M  V30 28 H -1.396 1.5872 -1.5098 0
M  V30 29 H -3.8756 0.1704 -0.6758 0
M  V30 30 H -4.2531 -0.0422 2.0579 0
M  V30 31 H -2.8412 0.5439 3.017 0
M  V30 32 H -0.2447 0.801 -3.1772 0
M  V30 33 H -1.416 -1.478 -1.4294 0
M  V30 34 H -4.039 -2.0222 -0.8118 0
M  V30 35 H -3.3619 -1.645 3.4072 0
M  V30 36 H -0.3328 -2.3356 0.3863 0
M  V30 37 H -3.003 0.4332 -2.8375 0
M  V30 38 H 0.6918 2.9114 -1.3687 0
M  V30 39 H 4.6609 -2.4315 0.3359 0
M  V30 40 H 0.8694 -4.4889 0.6014 0
M  V30 41 H 4.0268 4.9654 0.3224 0
M  V30 42 H 1.8007 5.3129 -1.0979 0
M  V30 43 H 3.3555 -4.5514 0.5783 0
M  V30 END ATOM
M  V30 BEGIN BOND
M  V30 1 1 1 2
M  V30 2 1 1 3
M  V30 3 1 2 4
M  V30 4 1 2 5
M  V30 5 1 3 6
M  V30 6 1 3 7
M  V30 7 1 4 8
M  V30 8 1 4 9
M  V30 9 1 5 10
M  V30 10 1 5 11
M  V30 11 1 6 12
M  V30 12 1 7 13
M  V30 13 2 8 14
M  V30 14 1 8 15
M  V30 15 2 9 16
M  V30 16 1 9 17
M  V30 17 1 11 18
M  V30 18 1 15 19
M  V30 19 2 15 20
M  V30 20 1 16 21
M  V30 21 2 17 22
M  V30 22 1 19 23
M  V30 23 1 20 24
M  V30 24 2 21 25
M  V30 25 1 6 11
M  V30 26 1 14 16
M  V30 27 1 22 25
M  V30 28 2 23 24
M  V30 29 1 2 26
M  V30 30 1 3 27
M  V30 31 1 5 28
M  V30 32 1 6 29
M  V30 33 1 7 30
M  V30 34 1 7 31
M  V30 35 1 10 32
M  V30 36 1 11 33
M  V30 37 1 12 34
M  V30 38 1 13 35
M  V30 39 1 17 36
M  V30 40 1 18 37
M  V30 41 1 20 38
M  V30 42 1 21 39
M  V30 43 1 22 40
M  V30 44 1 23 41
M  V30 45 1 24 42
M  V30 46 1 25 43
M  V30 END BOND
M  V30 BEGIN COLLECTION
M  V30 MDLV30/STEABS ATOMS=(5 2 3 5 6 11)
M  V30 END COLLECTION
M  V30 END CTAB
M  END
>  <Structure No>
8573

>  <LogS>
-2.33

>  <MMFF94 Energy>
128.98

$$$$
Compound 8574
Actelion Java MolfileCreator 2.0

  0  0  0  0  0  0              0 V3000
M  V30 BEGIN CTAB
M  V30 COUNTS 48 48 0 0 0
M  V30 BEGIN ATOM
M  V30 1 S -0.9578 1.1175 0.0797 0
M  V30 2 C -2.3405 0.0187 -0.4616 0 CFG=2
M  V30 3 C 0.217 -0.2048 0.5415 0
M  V30 4 C -3.1776 0.6645 -1.5938 0 CFG=2
M  V30 5 C -3.2463 -0.3181 0.733 0 CFG=2
M  V30 6 C 1.0612 -0.6112 -0.6709 0
M  V30 7 O -2.3875 1.5141 -2.3877 0
M  V30 8 C -4.4134 1.4435 -1.0623 0 CFG=2
M  V30 9 O -4.1992 -1.2819 0.3586 0
M  V30 10 C -3.9357 0.9796 1.2425 0 CFG=1
M  V30 11 C 1.96 -1.828 -0.3904 0
M  V30 12 O -4.227 1.9599 0.2466 0
M  V30 13 O -5.5725 0.6504 -1.1122 0
M  V30 14 C -5.1447 0.7314 2.1619 0
M  V30 15 C 2.9935 -1.6305 0.7371 0
M  V30 16 O -6.2341 0.2182 1.4485 0
M  V30 17 C 3.9401 -0.43 0.5567 0
M  V30 18 C 4.8143 -0.5431 -0.7035 0
M  V30 19 C 5.8011 0.6267 -0.8416 0
M  V30 20 C 6.965 0.5407 0.1456 0
M  V30 21 H -1.9091 -0.9244 -0.8613 0
M  V30 22 H 0.8774 0.203 1.3342 0
M  V30 23 H -0.3186 -1.0832 0.959 0
M  V30 24 H -3.559 -0.1584 -2.2441 0
M  V30 25 H -2.6283 -0.7313 1.5643 0
M  V30 26 H 1.6715 0.2506 -1.0133 0
M  V30 27 H 0.3852 -0.878 -1.5109 0
M  V30 28 H -1.7715 0.9323 -2.9056 0
M  V30 29 H -4.5765 2.3252 -1.7251 0
M  V30 30 H -3.7226 -2.1509 0.2997 0
M  V30 31 H -3.1843 1.461 1.9072 0
M  V30 32 H 2.4842 -2.1106 -1.3277 0
M  V30 33 H 1.3141 -2.6928 -0.1233 0
M  V30 34 H -5.8419 0.5878 -2.066 0
M  V30 35 H -4.8544 0.02 2.9677 0
M  V30 36 H -5.4377 1.6942 2.6379 0
M  V30 37 H 2.4613 -1.5225 1.7061 0
M  V30 38 H 3.6034 -2.5566 0.8174 0
M  V30 39 H -6.9597 0.0835 2.112 0
M  V30 40 H 4.5937 -0.3923 1.4532 0
M  V30 41 H 3.3619 0.5176 0.5381 0
M  V30 42 H 4.16 -0.5317 -1.6005 0
M  V30 43 H 5.3685 -1.507 -0.6994 0
M  V30 44 H 5.27 1.5946 -0.7098 0
M  V30 45 H 6.22 0.6121 -1.8712 0
M  V30 46 H 7.7017 1.3391 -0.0837 0
M  V30 47 H 7.4744 -0.4426 0.0621 0
M  V30 48 H 6.6124 0.6881 1.187 0
M  V30 END ATOM
M  V30 BEGIN BOND
M  V30 1 1 1 2
M  V30 2 1 1 3
M  V30 3 1 2 4
M  V30 4 1 2 5
M  V30 5 1 3 6
M  V30 6 1 4 7
M  V30 7 1 4 8
M  V30 8 1 5 9
M  V30 9 1 5 10
M  V30 10 1 6 11
M  V30 11 1 8 12
M  V30 12 1 8 13
M  V30 13 1 10 14
M  V30 14 1 11 15
M  V30 15 1 14 16
M  V30 16 1 15 17
M  V30 17 1 17 18
M  V30 18 1 18 19
M  V30 19 1 19 20
M  V30 20 1 10 12
M  V30 21 1 2 21
M  V30 22 1 3 22
M  V30 23 1 3 23
M  V30 24 1 4 24
M  V30 25 1 5 25
M  V30 26 1 6 26
M  V30 27 1 6 27
M  V30 28 1 7 28
M  V30 29 1 8 29
M  V30 30 1 9 30
M  V30 31 1 10 31
M  V30 32 1 11 32
M  V30 33 1 11 33
M  V30 34 1 13 34
M  V30 35 1 14 35
M  V30 36 1 14 36
M  V30 37 1 15 37
M  V30 38 1 15 38
M  V30 39 1 16 39
M  V30 40 1 17 40
M  V30 41 1 17 41
M  V30 42 1 18 42
M  V30 43 1 18 43
M  V30 44 1 19 44
M  V30 45 1 19 45
M  V30 46 1 20 46
M  V30 47 1 20 47
M  V30 48 1 20 48
M  V30 END BOND
M  V30 BEGIN COLLECTION
M  V30 MDLV30/STEABS ATOMS=(5 2 4 5 8 10)
M  V30 END COLLECTION
M  V30 END CTAB
M  END
>  <Structure No>
8574

>  <LogS>
-2.91

>  <MMFF94 Energy>
80.582

$$$$
Compound 8575
Actelion Java MolfileCreator 2.0

  0  0  0  0  0  0              0 V3000
M  V30 BEGIN CTAB
M  V30 COUNTS 43 44 0 0 0
M  V30 BEGIN ATOM
M  V30 1 S 1.5392 1.6203 -1.4582 0
M  V30 2 C 0.1388 0.7879 -0.6856 0
M  V30 3 C 2.4756 0.1045 -1.8766 0
M  V30 4 C 0.0066 0.5611 0.6237 0
M  V30 5 C -1.1641 0.466 -1.4229 0 CFG=2
M  V30 6 C 3.0027 -0.5864 -0.6373 0
M  V30 7 N -1.2772 0.0377 0.8373 0 CFG=2
M  V30 8 C 0.9148 0.9447 1.7184 0
M  V30 9 C -2.03 -0.2505 -0.3443 0 CFG=1
M  V30 10 C -0.9433 -0.4283 -2.6425 0
M  V30 11 N 2.353 -1.6216 -0.1818 0 CHG=1
M  V30 12 N 4.1813 -0.0828 0.0512 0
M  V30 13 C -2.5028 0.5913 1.4564 0
M  V30 14 O 0.6525 0.5858 2.8959 0
M  V30 15 O 2.0456 1.7153 1.4824 0 CHG=-1
M  V30 16 C -3.2263 0.4024 0.1539 0 CFG=2
M  V30 17 C 5.0037 0.9703 -0.558 0
M  V30 18 C 4.5721 -0.6186 1.3625 0
M  V30 19 O -2.7885 1.0896 2.5763 0
M  V30 20 C -4.4645 -0.5172 0.2509 0 CFG=1
M  V30 21 O -4.194 -1.639 1.0552 0
M  V30 22 C -5.6627 0.2487 0.8189 0
M  V30 23 H 3.3137 0.3835 -2.5453 0
M  V30 24 H 1.8416 -0.5818 -2.4719 0
M  V30 25 H -1.6336 1.4187 -1.7523 0
M  V30 26 H -2.1092 -1.3537 -0.4864 0
M  V30 27 H -1.9219 -0.6764 -3.1051 0
M  V30 28 H -0.3284 0.1026 -3.399 0
M  V30 29 H -0.4375 -1.3737 -2.3521 0
M  V30 30 H 2.6501 -2.1462 0.6684 0
M  V30 31 H 1.4935 -1.9725 -0.6614 0
M  V30 32 H -3.4438 1.3762 -0.3382 0
M  V30 33 H 5.864 1.2507 0.0845 0
M  V30 34 H 5.4133 0.6145 -1.5265 0
M  V30 35 H 4.3947 1.8833 -0.7194 0
M  V30 36 H 4.8661 -1.6845 1.2607 0
M  V30 37 H 3.7255 -0.5288 2.0756 0
M  V30 38 H 5.4331 -0.0689 1.7975 0
M  V30 39 H -4.7215 -0.8469 -0.783 0
M  V30 40 H -4.8833 -2.3204 0.8394 0
M  V30 41 H -5.4543 0.5864 1.8562 0
M  V30 42 H -5.8893 1.1337 0.1869 0
M  V30 43 H -6.558 -0.4082 0.8326 0
M  V30 END ATOM
M  V30 BEGIN BOND
M  V30 1 1 1 2
M  V30 2 1 1 3
M  V30 3 2 2 4
M  V30 4 1 2 5
M  V30 5 1 3 6
M  V30 6 1 4 7
M  V30 7 1 4 8
M  V30 8 1 5 9
M  V30 9 1 5 10
M  V30 10 2 6 11
M  V30 11 1 6 12
M  V30 12 1 7 13
M  V30 13 2 8 14
M  V30 14 1 8 15
M  V30 15 1 9 16
M  V30 16 1 12 17
M  V30 17 1 12 18
M  V30 18 2 13 19
M  V30 19 1 16 20
M  V30 20 1 20 21
M  V30 21 1 20 22
M  V30 22 1 7 9
M  V30 23 1 13 16
M  V30 24 1 3 23
M  V30 25 1 3 24
M  V30 26 1 5 25
M  V30 27 1 9 26
M  V30 28 1 10 27
M  V30 29 1 10 28
M  V30 30 1 10 29
M  V30 31 1 11 30
M  V30 32 1 11 31
M  V30 33 1 16 32
M  V30 34 1 17 33
M  V30 35 1 17 34
M  V30 36 1 17 35
M  V30 37 1 18 36
M  V30 38 1 18 37
M  V30 39 1 18 38
M  V30 40 1 20 39
M  V30 41 1 21 40
M  V30 42 1 22 41
M  V30 43 1 22 42
M  V30 44 1 22 43
M  V30 END BOND
M  V30 BEGIN COLLECTION
M  V30 MDLV30/STEABS ATOMS=(5 5 7 9 16 20)
M  V30 END COLLECTION
M  V30 END CTAB
M  END
>  <Structure No>
8575

>  <LogS>
-0.28

>  <MMFF94 Energy>
0.019325

$$$$
Compound 8576
Actelion Java MolfileCreator 2.0

  0  0  0  0  0  0              0 V3000
M  V30 BEGIN CTAB
M  V30 COUNTS 32 33 0 0 0
M  V30 BEGIN ATOM
M  V30 1 N 1.5034 1.9786 0.3954 0
M  V30 2 N 0.2523 2.1808 0.5709 0
M  V30 3 C 2.0988 0.7541 -0.0688 0
M  V30 4 C -0.7774 1.1818 0.4959 0
M  V30 5 C 3.2675 0.2638 0.5494 0
M  V30 6 C 1.576 0.0853 -1.1901 0
M  V30 7 C -1.9859 1.4968 -0.1332 0
M  V30 8 C -0.6293 -0.0654 1.1193 0
M  V30 9 C 3.859 -0.9184 0.0726 0
M  V30 10 C 3.8604 0.977 1.7327 0
M  V30 11 C 2.1747 -1.0867 -1.6559 0
M  V30 12 C -3.0301 0.5573 -0.2 0
M  V30 13 C -1.6571 -1.0072 1.0603 0
M  V30 14 C 3.3111 -1.5908 -1.0223 0
M  V30 15 C -2.8591 -0.7129 0.3997 0
M  V30 16 C -4.3075 0.924 -0.9057 0
M  V30 17 N -3.8912 -1.7082 0.3583 0
M  V30 18 H 0.711 0.4772 -1.7094 0
M  V30 19 H -2.1034 2.4752 -0.5835 0
M  V30 20 H 0.2757 -0.3059 1.6617 0
M  V30 21 H 4.746 -1.3204 0.546 0
M  V30 22 H 4.0985 2.0262 1.4582 0
M  V30 23 H 3.1325 0.9756 2.5712 0
M  V30 24 H 4.7959 0.4884 2.0789 0
M  V30 25 H 1.761 -1.6009 -2.5137 0
M  V30 26 H -1.5194 -1.9687 1.5386 0
M  V30 27 H 3.7735 -2.4995 -1.3853 0
M  V30 28 H -4.2711 1.9574 -1.3116 0
M  V30 29 H -4.481 0.229 -1.7538 0
M  V30 30 H -5.1593 0.8651 -0.196 0
M  V30 31 H -4.8046 -1.5436 -0.1177 0
M  V30 32 H -3.7475 -2.6387 0.8106 0
M  V30 END ATOM
M  V30 BEGIN BOND
M  V30 1 2 1 2
M  V30 2 1 1 3
M  V30 3 1 2 4
M  V30 4 2 3 5
M  V30 5 1 3 6
M  V30 6 2 4 7
M  V30 7 1 4 8
M  V30 8 1 5 9
M  V30 9 1 5 10
M  V30 10 2 6 11
M  V30 11 1 7 12
M  V30 12 2 8 13
M  V30 13 2 9 14
M  V30 14 2 12 15
M  V30 15 1 12 16
M  V30 16 1 15 17
M  V30 17 1 11 14
M  V30 18 1 13 15
M  V30 19 1 6 18
M  V30 20 1 7 19
M  V30 21 1 8 20
M  V30 22 1 9 21
M  V30 23 1 10 22
M  V30 24 1 10 23
M  V30 25 1 10 24
M  V30 26 1 11 25
M  V30 27 1 13 26
M  V30 28 1 14 27
M  V30 29 1 16 28
M  V30 30 1 16 29
M  V30 31 1 16 30
M  V30 32 1 17 31
M  V30 33 1 17 32
M  V30 END BOND
M  V30 END CTAB
M  END
>  <Structure No>
8576

>  <LogS>
-4.05

>  <MMFF94 Energy>
38.229

$$$$
Compound 8577
Actelion Java MolfileCreator 2.0

  0  0  0  0  0  0              0 V3000
M  V30 BEGIN CTAB
M  V30 COUNTS 32 33 0 0 0
M  V30 BEGIN ATOM
M  V30 1 N 1.4244 -2.1372 -1.7412 0
M  V30 2 N 2.6276 -1.9064 -1.3716 0
M  V30 3 C 0.2535 -1.451 -1.2694 0
M  V30 4 C 3.0585 -0.8142 -0.5435 0
M  V30 5 C 0.0554 -1.1969 0.0956 0
M  V30 6 C -0.7505 -1.1136 -2.1801 0
M  V30 7 C 2.6024 0.498 -0.7652 0
M  V30 8 C 4.0244 -1.0478 0.444 0
M  V30 9 C -1.1067 -0.5566 0.5338 0
M  V30 10 C -1.9153 -0.474 -1.7467 0
M  V30 11 C 3.0665 1.5478 0.0333 0
M  V30 12 C 4.4876 0.0042 1.2407 0
M  V30 13 C -2.111 -0.177 -0.3813 0
M  V30 14 C 4.0044 1.3003 1.0395 0
M  V30 15 N -3.3172 0.4925 0.0713 0
M  V30 16 C -3.3427 1.1914 1.3625 0
M  V30 17 C -4.5307 0.4855 -0.7552 0
M  V30 18 H 0.7937 -1.5055 0.8245 0
M  V30 19 H -0.6222 -1.3329 -3.2328 0
M  V30 20 H 1.9001 0.7105 -1.5608 0
M  V30 21 H 4.4076 -2.0479 0.6031 0
M  V30 22 H -1.2201 -0.3782 1.594 0
M  V30 23 H -2.6545 -0.2068 -2.4889 0
M  V30 24 H 2.7059 2.5546 -0.1337 0
M  V30 25 H 5.2233 -0.1847 2.0119 0
M  V30 26 H 4.3646 2.1141 1.6556 0
M  V30 27 H -3.3411 0.4531 2.1913 0
M  V30 28 H -2.4566 1.8556 1.45 0
M  V30 29 H -4.2472 1.8274 1.4661 0
M  V30 30 H -4.7538 -0.5498 -1.0897 0
M  V30 31 H -4.3894 1.1428 -1.6385 0
M  V30 32 H -5.4138 0.8503 -0.1891 0
M  V30 END ATOM
M  V30 BEGIN BOND
M  V30 1 2 1 2
M  V30 2 1 1 3
M  V30 3 1 2 4
M  V30 4 2 3 5
M  V30 5 1 3 6
M  V30 6 2 4 7
M  V30 7 1 4 8
M  V30 8 1 5 9
M  V30 9 2 6 10
M  V30 10 1 7 11
M  V30 11 2 8 12
M  V30 12 2 9 13
M  V30 13 2 11 14
M  V30 14 1 13 15
M  V30 15 1 15 16
M  V30 16 1 15 17
M  V30 17 1 10 13
M  V30 18 1 12 14
M  V30 19 1 5 18
M  V30 20 1 6 19
M  V30 21 1 7 20
M  V30 22 1 8 21
M  V30 23 1 9 22
M  V30 24 1 10 23
M  V30 25 1 11 24
M  V30 26 1 12 25
M  V30 27 1 14 26
M  V30 28 1 16 27
M  V30 29 1 16 28
M  V30 30 1 16 29
M  V30 31 1 17 30
M  V30 32 1 17 31
M  V30 33 1 17 32
M  V30 END BOND
M  V30 END CTAB
M  END
>  <Structure No>
8577

>  <LogS>
-5.25

>  <MMFF94 Energy>
55.994

$$$$
Compound 8578
Actelion Java MolfileCreator 2.0

  0  0  0  0  0  0              0 V3000
M  V30 BEGIN CTAB
M  V30 COUNTS 24 25 0 0 0
M  V30 BEGIN ATOM
M  V30 1 O -0.642 -1.8467 -2.2486 0
M  V30 2 C -0.1825 -1.1529 -1.3014 0
M  V30 3 N 1.2351 -1.1263 -1.0943 0
M  V30 4 C -1.1279 -0.4382 -0.4069 0
M  V30 5 C 1.847 -0.3935 0.0089 0 CFG=2
M  V30 6 C -0.8821 0.8683 0.0988 0
M  V30 7 C -2.3475 -1.0703 -0.097 0
M  V30 8 C 1.6276 1.0752 -0.2208 0
M  V30 9 C 3.3332 -0.7554 0.1374 0
M  V30 10 N 0.3027 1.6189 -0.2232 0
M  V30 11 C -1.8656 1.4971 0.8807 0
M  V30 12 C -3.3009 -0.4352 0.6994 0
M  V30 13 O 2.6046 1.8426 -0.4402 0
M  V30 14 C -3.061 0.847 1.1866 0
M  V30 15 H 1.8378 -1.6687 -1.7551 0
M  V30 16 H 1.3523 -0.686 0.9614 0
M  V30 17 H -2.5616 -2.0646 -0.47 0
M  V30 18 H 3.7888 -0.2074 0.9897 0
M  V30 19 H 3.8823 -0.5012 -0.7948 0
M  V30 20 H 3.4396 -1.8448 0.3268 0
M  V30 21 H 0.2178 2.6589 -0.2904 0
M  V30 22 H -1.6999 2.4983 1.2593 0
M  V30 23 H -4.2313 -0.9367 0.9335 0
M  V30 24 H -3.8054 1.3417 1.7973 0
M  V30 END ATOM
M  V30 BEGIN BOND
M  V30 1 2 1 2
M  V30 2 1 2 3
M  V30 3 1 2 4
M  V30 4 1 3 5
M  V30 5 2 4 6
M  V30 6 1 4 7
M  V30 7 1 5 8
M  V30 8 1 5 9
M  V30 9 1 6 10
M  V30 10 1 6 11
M  V30 11 2 7 12
M  V30 12 2 8 13
M  V30 13 2 11 14
M  V30 14 1 8 10
M  V30 15 1 12 14
M  V30 16 1 3 15
M  V30 17 1 5 16
M  V30 18 1 7 17
M  V30 19 1 9 18
M  V30 20 1 9 19
M  V30 21 1 9 20
M  V30 22 1 10 21
M  V30 23 1 11 22
M  V30 24 1 12 23
M  V30 25 1 14 24
M  V30 END BOND
M  V30 BEGIN COLLECTION
M  V30 MDLV30/STEABS ATOMS=(1 5)
M  V30 END COLLECTION
M  V30 END CTAB
M  END
>  <Structure No>
8578

>  <LogS>
-2.38

>  <MMFF94 Energy>
40.15

$$$$
Compound 8579
Actelion Java MolfileCreator 2.0

  0  0  0  0  0  0              0 V3000
M  V30 BEGIN CTAB
M  V30 COUNTS 21 22 0 0 0
M  V30 BEGIN ATOM
M  V30 1 Cl 4.2895 1.3184 0.659 0
M  V30 2 C 2.7673 0.5052 0.3428 0
M  V30 3 C 1.651 1.242 -0.0584 0
M  V30 4 C 2.6744 -0.8781 0.4837 0
M  V30 5 C 0.4186 0.6086 -0.3096 0
M  V30 6 C 1.4666 -1.5264 0.2272 0
M  V30 7 C -0.7101 1.4483 -0.7847 0
M  V30 8 C 0.3258 -0.8021 -0.1561 0
M  V30 9 O -0.4713 2.4157 -1.5574 0
M  V30 10 N -2.059 1.2301 -0.3551 0
M  V30 11 N -0.8717 -1.542 -0.4549 0
M  V30 12 C -2.4201 0.1847 0.5882 0
M  V30 13 C -2.1852 -1.1418 -0.0493 0
M  V30 14 O -3.1588 -1.9176 -0.245 0
M  V30 15 H 1.7452 2.3158 -0.1699 0
M  V30 16 H 3.5394 -1.4542 0.7866 0
M  V30 17 H 1.4156 -2.603 0.3324 0
M  V30 18 H -2.8099 1.8647 -0.7101 0
M  V30 19 H -0.7654 -2.516 -0.8197 0
M  V30 20 H -3.4912 0.2903 0.868 0
M  V30 21 H -1.8117 0.2785 1.5132 0
M  V30 END ATOM
M  V30 BEGIN BOND
M  V30 1 1 1 2
M  V30 2 2 2 3
M  V30 3 1 2 4
M  V30 4 1 3 5
M  V30 5 2 4 6
M  V30 6 1 5 7
M  V30 7 2 5 8
M  V30 8 2 7 9
M  V30 9 1 7 10
M  V30 10 1 8 11
M  V30 11 1 10 12
M  V30 12 1 11 13
M  V30 13 2 13 14
M  V30 14 1 6 8
M  V30 15 1 12 13
M  V30 16 1 3 15
M  V30 17 1 4 16
M  V30 18 1 6 17
M  V30 19 1 10 18
M  V30 20 1 11 19
M  V30 21 1 12 20
M  V30 22 1 12 21
M  V30 END BOND
M  V30 END CTAB
M  END
>  <Structure No>
8579

>  <LogS>
-3.05

>  <MMFF94 Energy>
26.278

$$$$
Compound 8580
Actelion Java MolfileCreator 2.0

  0  0  0  0  0  0              0 V3000
M  V30 BEGIN CTAB
M  V30 COUNTS 32 32 0 0 0
M  V30 BEGIN ATOM
M  V30 1 O -3.0268 3.1066 -1.0347 0
M  V30 2 C -2.5104 2.0605 -0.5602 0
M  V30 3 N -2.5442 0.8488 -1.3043 0
M  V30 4 N -1.9077 2.0845 0.7284 0
M  V30 5 C -1.9702 -0.3543 -0.7875 0
M  V30 6 C -1.2538 0.9321 1.2679 0
M  V30 7 O -2.1682 -1.4311 -1.4148 0
M  V30 8 C -1.0905 -0.3596 0.4648 0
M  V30 9 O -0.7404 1.019 2.417 0
M  V30 10 C -1.5702 -1.5105 1.3561 0
M  V30 11 C 0.4238 -0.5212 0.0458 0 CFG=2
M  V30 12 C -0.9078 -1.947 2.4372 0
M  V30 13 C 0.9053 0.6504 -0.8631 0
M  V30 14 C 0.7224 -1.8832 -0.6224 0
M  V30 15 C 2.4109 0.6502 -1.19 0
M  V30 16 C 3.2947 0.808 0.047 0
M  V30 17 H -3.0402 0.8271 -2.2238 0
M  V30 18 H -1.9344 2.967 1.2879 0
M  V30 19 H -2.5213 -1.99 1.1357 0
M  V30 20 H 1.0274 -0.4825 0.9761 0
M  V30 21 H 0.0343 -1.5108 2.7478 0
M  V30 22 H -1.319 -2.7574 3.0304 0
M  V30 23 H 0.668 1.6244 -0.3852 0
M  V30 24 H 0.3503 0.6218 -1.8256 0
M  V30 25 H 0.2509 -2.7235 -0.0744 0
M  V30 26 H 0.3661 -1.8991 -1.6737 0
M  V30 27 H 1.8144 -2.0803 -0.6197 0
M  V30 28 H 2.6134 1.5073 -1.8686 0
M  V30 29 H 2.6964 -0.2686 -1.743 0
M  V30 30 H 3.2785 -0.1157 0.6615 0
M  V30 31 H 2.9569 1.6702 0.6608 0
M  V30 32 H 4.3434 0.989 -0.2697 0
M  V30 END ATOM
M  V30 BEGIN BOND
M  V30 1 2 1 2
M  V30 2 1 2 3
M  V30 3 1 2 4
M  V30 4 1 3 5
M  V30 5 1 4 6
M  V30 6 2 5 7
M  V30 7 1 5 8
M  V30 8 2 6 9
M  V30 9 1 8 10
M  V30 10 1 8 11
M  V30 11 2 10 12
M  V30 12 1 11 13
M  V30 13 1 11 14
M  V30 14 1 13 15
M  V30 15 1 15 16
M  V30 16 1 6 8
M  V30 17 1 3 17
M  V30 18 1 4 18
M  V30 19 1 10 19
M  V30 20 1 11 20
M  V30 21 1 12 21
M  V30 22 1 12 22
M  V30 23 1 13 23
M  V30 24 1 13 24
M  V30 25 1 14 25
M  V30 26 1 14 26
M  V30 27 1 14 27
M  V30 28 1 15 28
M  V30 29 1 15 29
M  V30 30 1 16 30
M  V30 31 1 16 31
M  V30 32 1 16 32
M  V30 END BOND
M  V30 BEGIN COLLECTION
M  V30 MDLV30/STEABS ATOMS=(1 11)
M  V30 END COLLECTION
M  V30 END CTAB
M  END
>  <Structure No>
8580

>  <LogS>
-2.36

>  <MMFF94 Energy>
-75.33

$$$$
Compound 8581
Actelion Java MolfileCreator 2.0

  0  0  0  0  0  0              0 V3000
M  V30 BEGIN CTAB
M  V30 COUNTS 26 25 0 0 0
M  V30 BEGIN ATOM
M  V30 1 O 0.5578 -3.2706 1.5146 0
M  V30 2 N 0.3383 -2.3237 0.734 0 CHG=1
M  V30 3 O 1.0498 -1.1482 0.8795 0
M  V30 4 O -0.5804 -2.4836 -0.2778 0 CHG=-1
M  V30 5 C 0.8328 -1.0E-4 0.0564 0 CFG=2
M  V30 6 C 2.1884 0.6426 -0.2462 0
M  V30 7 C -0.079 1.0108 0.782 0
M  V30 8 O 3.0173 -0.2879 -0.9358 0
M  V30 9 C -1.5108 0.5023 1.0196 0
M  V30 10 N 4.3013 0.0289 -1.3322 0 CHG=1
M  V30 11 C -2.3517 0.4857 -0.2655 0
M  V30 12 O 4.7876 1.155 -1.0982 0
M  V30 13 O 5.0549 -0.91 -1.9941 0 CHG=-1
M  V30 14 C -3.7817 0.0368 0.0205 0
M  V30 15 H 0.3866 -0.2919 -0.9174 0
M  V30 16 H 2.6846 0.9456 0.7018 0
M  V30 17 H 2.0451 1.5428 -0.8832 0
M  V30 18 H -0.1241 1.9615 0.2061 0
M  V30 19 H 0.3728 1.2488 1.7702 0
M  V30 20 H -1.9981 1.1863 1.7489 0
M  V30 21 H -1.4913 -0.5069 1.4817 0
M  V30 22 H -1.9093 -0.208 -1.0095 0
M  V30 23 H -2.3782 1.5045 -0.7094 0
M  V30 24 H -4.269 0.7317 0.7373 0
M  V30 25 H -4.3664 0.0335 -0.9234 0
M  V30 26 H -3.7854 -0.99 0.4442 0
M  V30 END ATOM
M  V30 BEGIN BOND
M  V30 1 2 1 2
M  V30 2 1 2 3
M  V30 3 1 2 4
M  V30 4 1 3 5
M  V30 5 1 5 6
M  V30 6 1 5 7
M  V30 7 1 6 8
M  V30 8 1 7 9
M  V30 9 1 8 10
M  V30 10 1 9 11
M  V30 11 2 10 12
M  V30 12 1 10 13
M  V30 13 1 11 14
M  V30 14 1 5 15
M  V30 15 1 6 16
M  V30 16 1 6 17
M  V30 17 1 7 18
M  V30 18 1 7 19
M  V30 19 1 9 20
M  V30 20 1 9 21
M  V30 21 1 11 22
M  V30 22 1 11 23
M  V30 23 1 14 24
M  V30 24 1 14 25
M  V30 25 1 14 26
M  V30 END BOND
M  V30 BEGIN COLLECTION
M  V30 MDLV30/STEABS ATOMS=(1 5)
M  V30 END COLLECTION
M  V30 END CTAB
M  END
>  <Structure No>
8581

>  <LogS>
-3.1

>  <MMFF94 Energy>
-27.946

$$$$
Compound 8582
Actelion Java MolfileCreator 2.0

  0  0  0  0  0  0              0 V3000
M  V30 BEGIN CTAB
M  V30 COUNTS 33 35 0 0 0
M  V30 BEGIN ATOM
M  V30 1 Cl -0.8152 4.4085 1.4678 0
M  V30 2 C -1.2035 2.7882 0.9194 0
M  V30 3 C -0.2337 1.7849 0.9632 0
M  V30 4 C -2.4817 2.5013 0.4421 0
M  V30 5 C -0.527 0.4804 0.5244 0
M  V30 6 C -2.7941 1.212 0.0104 0
M  V30 7 C 0.5493 -0.5515 0.5742 0
M  V30 8 C -1.8307 0.1871 0.0462 0
M  V30 9 N 0.3221 -1.7393 1.0603 0
M  V30 10 C 1.9214 -0.2316 0.0996 0
M  V30 11 N -2.1869 -1.1364 -0.41 0
M  V30 12 C -0.9659 -2.2073 1.5569 0
M  V30 13 C 3.0386 -0.8819 0.6581 0
M  V30 14 C 2.1265 0.7043 -0.9327 0
M  V30 15 C -1.9324 -2.2877 0.4179 0
M  V30 16 C -2.9835 -1.2943 -1.6305 0
M  V30 17 C 4.3288 -0.5884 0.2062 0
M  V30 18 C 3.4188 0.9936 -1.3805 0
M  V30 19 O -2.5141 -3.3817 0.1819 0
M  V30 20 C 4.5189 0.3496 -0.8106 0
M  V30 21 H 0.7516 2.0224 1.3459 0
M  V30 22 H -3.2373 3.2759 0.4097 0
M  V30 23 H -3.7973 1.0088 -0.3417 0
M  V30 24 H -1.3513 -1.5208 2.3415 0
M  V30 25 H -0.8292 -3.2107 2.013 0
M  V30 26 H 2.9156 -1.6081 1.452 0
M  V30 27 H 1.2881 1.2025 -1.403 0
M  V30 28 H -2.8195 -0.4372 -2.3184 0
M  V30 29 H -2.6838 -2.2181 -2.1694 0
M  V30 30 H -4.0611 -1.3546 -1.3698 0
M  V30 31 H 5.1821 -1.0885 0.6457 0
M  V30 32 H 3.5668 1.7148 -2.1739 0
M  V30 33 H 5.5184 0.5747 -1.1592 0
M  V30 END ATOM
M  V30 BEGIN BOND
M  V30 1 1 1 2
M  V30 2 2 2 3
M  V30 3 1 2 4
M  V30 4 1 3 5
M  V30 5 2 4 6
M  V30 6 1 5 7
M  V30 7 2 5 8
M  V30 8 2 7 9
M  V30 9 1 7 10
M  V30 10 1 8 11
M  V30 11 1 9 12
M  V30 12 2 10 13
M  V30 13 1 10 14
M  V30 14 1 11 15
M  V30 15 1 11 16
M  V30 16 1 13 17
M  V30 17 2 14 18
M  V30 18 2 15 19
M  V30 19 2 17 20
M  V30 20 1 6 8
M  V30 21 1 12 15
M  V30 22 1 18 20
M  V30 23 1 3 21
M  V30 24 1 4 22
M  V30 25 1 6 23
M  V30 26 1 12 24
M  V30 27 1 12 25
M  V30 28 1 13 26
M  V30 29 1 14 27
M  V30 30 1 16 28
M  V30 31 1 16 29
M  V30 32 1 16 30
M  V30 33 1 17 31
M  V30 34 1 18 32
M  V30 35 1 20 33
M  V30 END BOND
M  V30 END CTAB
M  END
>  <Structure No>
8582

>  <LogS>
-3.71

>  <MMFF94 Energy>
106.36

$$$$
Compound 8583
Actelion Java MolfileCreator 2.0

  0  0  0  0  0  0              0 V3000
M  V30 BEGIN CTAB
M  V30 COUNTS 35 36 0 0 0
M  V30 BEGIN ATOM
M  V30 1 S 4.6717 -0.5728 -2.3748 0
M  V30 2 O 3.8644 0.1499 -3.4161 0
M  V30 3 O 4.9249 -1.9763 -2.8486 0
M  V30 4 O 6.1372 0.2169 -2.1544 0 CHG=-1
M  V30 5 C 3.7895 -0.6061 -0.8521 0
M  V30 6 C 3.9709 -1.667 0.0452 0
M  V30 7 C 2.927 0.4454 -0.5143 0
M  V30 8 C 3.2764 -1.6886 1.2585 0
M  V30 9 C 2.2335 0.4239 0.6991 0
M  V30 10 C 2.3811 -0.6616 1.5796 0
M  V30 11 N 1.7057 -0.6937 2.8473 0
M  V30 12 N 0.4778 -0.3955 3.0493 0
M  V30 13 C -0.5013 -0.1311 2.0317 0
M  V30 14 C -1.4102 0.9131 2.2167 0
M  V30 15 C -0.623 -0.955 0.903 0
M  V30 16 C -2.3933 1.1757 1.2585 0
M  V30 17 C -1.6039 -0.6964 -0.0578 0
M  V30 18 C -2.5035 0.3791 0.0993 0
M  V30 19 N -3.5209 0.6533 -0.8998 0
M  V30 20 C -3.9305 -0.3851 -1.8535 0
M  V30 21 C -4.1548 1.9756 -0.976 0
M  V30 22 H 4.6517 -2.4746 -0.191 0
M  V30 23 H 2.7986 1.286 -1.184 0
M  V30 24 H 3.4258 -2.5125 1.9451 0
M  V30 25 H 1.5936 1.258 0.956 0
M  V30 26 H -1.3483 1.5341 3.1017 0
M  V30 27 H 0.0348 -1.8038 0.7692 0
M  V30 28 H -3.072 1.9975 1.4391 0
M  V30 29 H -1.6493 -1.3424 -0.9232 0
M  V30 30 H -4.1562 -1.3278 -1.3114 0
M  V30 31 H -3.1196 -0.561 -2.5908 0
M  V30 32 H -4.8467 -0.0928 -2.409 0
M  V30 33 H -4.839 2.1163 -0.1132 0
M  V30 34 H -4.745 2.0939 -1.9092 0
M  V30 35 H -3.3768 2.7683 -0.971 0
M  V30 END ATOM
M  V30 BEGIN BOND
M  V30 1 2 1 2
M  V30 2 2 1 3
M  V30 3 1 1 4
M  V30 4 1 1 5
M  V30 5 2 5 6
M  V30 6 1 5 7
M  V30 7 1 6 8
M  V30 8 2 7 9
M  V30 9 2 8 10
M  V30 10 1 10 11
M  V30 11 2 11 12
M  V30 12 1 12 13
M  V30 13 2 13 14
M  V30 14 1 13 15
M  V30 15 1 14 16
M  V30 16 2 15 17
M  V30 17 2 16 18
M  V30 18 1 18 19
M  V30 19 1 19 20
M  V30 20 1 19 21
M  V30 21 1 9 10
M  V30 22 1 17 18
M  V30 23 1 6 22
M  V30 24 1 7 23
M  V30 25 1 8 24
M  V30 26 1 9 25
M  V30 27 1 14 26
M  V30 28 1 15 27
M  V30 29 1 16 28
M  V30 30 1 17 29
M  V30 31 1 20 30
M  V30 32 1 20 31
M  V30 33 1 20 32
M  V30 34 1 21 33
M  V30 35 1 21 34
M  V30 36 1 21 35
M  V30 END BOND
M  V30 END CTAB
M  END
>  <Structure No>
8583

>  <LogS>
-3.86

>  <MMFF94 Energy>
85.022

$$$$
Compound 8584
Actelion Java MolfileCreator 2.0

  0  0  0  0  0  0              0 V3000
M  V30 BEGIN CTAB
M  V30 COUNTS 32 34 0 0 0
M  V30 BEGIN ATOM
M  V30 1 Cl 1.2378 0.2474 3.6341 0
M  V30 2 C 1.9352 0.8223 2.1223 0
M  V30 3 C 1.4688 0.3802 0.8616 0
M  V30 4 C 2.9473 1.788 2.1918 0
M  V30 5 C 0.4088 -0.6505 0.7326 0
M  V30 6 C 2.0306 0.9315 -0.3047 0
M  V30 7 C 3.4987 2.3199 1.0247 0
M  V30 8 N 0.4924 -1.7196 1.4708 0
M  V30 9 C -0.7122 -0.4384 -0.2325 0
M  V30 10 C 3.0392 1.8941 -0.2216 0
M  V30 11 C -0.4529 -2.8253 1.4554 0
M  V30 12 C -1.1853 -1.4585 -1.0994 0
M  V30 13 C -1.2761 0.8492 -0.3228 0
M  V30 14 C -0.378 -3.5108 0.1325 0
M  V30 15 N -0.6638 -2.7987 -1.0755 0
M  V30 16 C -2.1697 -1.1501 -2.0489 0
M  V30 17 C -2.2777 1.1434 -1.2613 0
M  V30 18 O -0.0544 -4.7274 0.0772 0
M  V30 19 C -2.7143 0.1309 -2.1274 0
M  V30 20 N -2.8396 2.4671 -1.3372 0 CHG=1
M  V30 21 O -3.731 2.734 -2.1699 0
M  V30 22 O -2.4041 3.4621 -0.4919 0 CHG=-1
M  V30 23 H 3.3026 2.135 3.1539 0
M  V30 24 H 1.695 0.6071 -1.2823 0
M  V30 25 H 4.2796 3.0667 1.0869 0
M  V30 26 H 3.4666 2.3086 -1.1254 0
M  V30 27 H -0.1889 -3.5338 2.2692 0
M  V30 28 H -1.4844 -2.4543 1.6392 0
M  V30 29 H -0.9278 1.6282 0.3439 0
M  V30 30 H -0.6741 -3.3488 -1.9645 0
M  V30 31 H -2.5274 -1.9153 -2.7268 0
M  V30 32 H -3.4797 0.3282 -2.867 0
M  V30 END ATOM
M  V30 BEGIN BOND
M  V30 1 1 1 2
M  V30 2 2 2 3
M  V30 3 1 2 4
M  V30 4 1 3 5
M  V30 5 1 3 6
M  V30 6 2 4 7
M  V30 7 2 5 8
M  V30 8 1 5 9
M  V30 9 2 6 10
M  V30 10 1 8 11
M  V30 11 2 9 12
M  V30 12 1 9 13
M  V30 13 1 11 14
M  V30 14 1 12 15
M  V30 15 1 12 16
M  V30 16 2 13 17
M  V30 17 2 14 18
M  V30 18 2 16 19
M  V30 19 1 17 20
M  V30 20 2 20 21
M  V30 21 1 20 22
M  V30 22 1 7 10
M  V30 23 1 14 15
M  V30 24 1 17 19
M  V30 25 1 4 23
M  V30 26 1 6 24
M  V30 27 1 7 25
M  V30 28 1 10 26
M  V30 29 1 11 27
M  V30 30 1 11 28
M  V30 31 1 13 29
M  V30 32 1 15 30
M  V30 33 1 16 31
M  V30 34 1 19 32
M  V30 END BOND
M  V30 END CTAB
M  END
>  <Structure No>
8584

>  <LogS>
-4.41

>  <MMFF94 Energy>
131.83

$$$$
Compound 8585
Actelion Java MolfileCreator 2.0

  0  0  0  0  0  0              0 V3000
M  V30 BEGIN CTAB
M  V30 COUNTS 38 37 0 0 0
M  V30 BEGIN ATOM
M  V30 1 O 0.3142 -0.4714 -2.3587 0
M  V30 2 C 0.2351 -0.7122 -1.1221 0
M  V30 3 N 1.4119 -1.0754 -0.3885 0
M  V30 4 C -1.0823 -0.5558 -0.3954 0
M  V30 5 C 2.7152 -1.1964 -1.0429 0
M  V30 6 C -1.117 0.788 0.3723 0
M  V30 7 C -2.286 -0.7781 -1.35 0
M  V30 8 C 3.8516 -1.3724 -0.0211 0
M  V30 9 C -1.1271 2.0288 -0.5364 0
M  V30 10 C -3.671 -0.699 -0.682 0
M  V30 11 C 4.3095 -0.0468 0.6078 0
M  V30 12 C -1.0552 3.311 0.2876 0
M  V30 13 C -3.8789 -1.7623 0.3957 0
M  V30 14 C 3.2573 0.5651 1.4798 0
M  V30 15 O 3.0321 0.0955 2.6261 0
M  V30 16 O 2.5049 1.6364 1.0149 0 CHG=-1
M  V30 17 H 1.3219 -1.2593 0.6363 0
M  V30 18 H -1.1132 -1.3655 0.3649 0
M  V30 19 H 2.9095 -0.2988 -1.6699 0
M  V30 20 H 2.6924 -2.0821 -1.7136 0
M  V30 21 H -0.2278 0.8356 1.0389 0
M  V30 22 H -2.0033 0.8128 1.0412 0
M  V30 23 H -2.1847 -1.7794 -1.8244 0
M  V30 24 H -2.2573 -0.0344 -2.1749 0
M  V30 25 H 4.7246 -1.8106 -0.5519 0
M  V30 26 H 3.558 -2.097 0.7698 0
M  V30 27 H -0.2582 2.0046 -1.2278 0
M  V30 28 H -2.0597 2.0532 -1.1384 0
M  V30 29 H -4.441 -0.8505 -1.4692 0
M  V30 30 H -3.8445 0.3101 -0.2539 0
M  V30 31 H 5.2148 -0.2364 1.2239 0
M  V30 32 H 4.5978 0.6712 -0.1899 0
M  V30 33 H -1.9241 3.3759 0.9768 0
M  V30 34 H -0.115 3.338 0.8786 0
M  V30 35 H -1.073 4.1903 -0.3901 0
M  V30 36 H -4.9414 -1.7574 0.7183 0
M  V30 37 H -3.6338 -2.7707 3.0E-4 0
M  V30 38 H -3.25 -1.5479 1.2845 0
M  V30 END ATOM
M  V30 BEGIN BOND
M  V30 1 2 1 2
M  V30 2 1 2 3
M  V30 3 1 2 4
M  V30 4 1 3 5
M  V30 5 1 4 6
M  V30 6 1 4 7
M  V30 7 1 5 8
M  V30 8 1 6 9
M  V30 9 1 7 10
M  V30 10 1 8 11
M  V30 11 1 9 12
M  V30 12 1 10 13
M  V30 13 1 11 14
M  V30 14 2 14 15
M  V30 15 1 14 16
M  V30 16 1 3 17
M  V30 17 1 4 18
M  V30 18 1 5 19
M  V30 19 1 5 20
M  V30 20 1 6 21
M  V30 21 1 6 22
M  V30 22 1 7 23
M  V30 23 1 7 24
M  V30 24 1 8 25
M  V30 25 1 8 26
M  V30 26 1 9 27
M  V30 27 1 9 28
M  V30 28 1 10 29
M  V30 29 1 10 30
M  V30 30 1 11 31
M  V30 31 1 11 32
M  V30 32 1 12 33
M  V30 33 1 12 34
M  V30 34 1 12 35
M  V30 35 1 13 36
M  V30 36 1 13 37
M  V30 37 1 13 38
M  V30 END BOND
M  V30 END CTAB
M  END
>  <Structure No>
8585

>  <LogS>
-1.5

>  <MMFF94 Energy>
-22.761

$$$$
Compound 8586
Actelion Java MolfileCreator 2.0

  0  0  0  0  0  0              0 V3000
M  V30 BEGIN CTAB
M  V30 COUNTS 28 28 0 0 0
M  V30 BEGIN ATOM
M  V30 1 O -0.7054 2.9812 0.2351 0
M  V30 2 C -1.6891 2.1925 0.2102 0
M  V30 3 N -1.5185 0.8523 -0.3037 0
M  V30 4 N -2.9536 2.6571 0.6935 0
M  V30 5 C -0.1922 0.3004 -0.407 0
M  V30 6 C -2.6694 -2.0E-4 -0.6334 0
M  V30 7 C 0.2815 -0.1907 -1.6328 0
M  V30 8 C 0.6402 0.2471 0.7213 0
M  V30 9 C -3.0576 -0.8599 0.5654 0
M  V30 10 C 1.5676 -0.7298 -1.7271 0
M  V30 11 C 1.9261 -0.2927 0.6274 0
M  V30 12 C 2.3995 -0.7871 -0.603 0
M  V30 13 O 3.681 -1.3381 -0.7495 0
M  V30 14 C 4.6293 -1.4589 0.3057 0
M  V30 15 H -3.0511 3.6433 1.0224 0
M  V30 16 H -3.7831 2.0322 0.7805 0
M  V30 17 H -2.4246 -0.6706 -1.4844 0
M  V30 18 H -3.5337 0.6137 -0.9635 0
M  V30 19 H -0.3388 -0.1427 -2.5185 0
M  V30 20 H 0.2862 0.6159 1.6759 0
M  V30 21 H -3.2997 -0.2233 1.4414 0
M  V30 22 H -3.9471 -1.4743 0.3118 0
M  V30 23 H -2.2199 -1.5379 0.8336 0
M  V30 24 H 1.9213 -1.1028 -2.6798 0
M  V30 25 H 2.5418 -0.3225 1.5157 0
M  V30 26 H 4.8833 -0.4552 0.7075 0
M  V30 27 H 4.2216 -2.1024 1.1137 0
M  V30 28 H 5.5536 -1.9276 -0.0894 0
M  V30 END ATOM
M  V30 BEGIN BOND
M  V30 1 2 1 2
M  V30 2 1 2 3
M  V30 3 1 2 4
M  V30 4 1 3 5
M  V30 5 1 3 6
M  V30 6 2 5 7
M  V30 7 1 5 8
M  V30 8 1 6 9
M  V30 9 1 7 10
M  V30 10 2 8 11
M  V30 11 2 10 12
M  V30 12 1 12 13
M  V30 13 1 13 14
M  V30 14 1 11 12
M  V30 15 1 4 15
M  V30 16 1 4 16
M  V30 17 1 6 17
M  V30 18 1 6 18
M  V30 19 1 7 19
M  V30 20 1 8 20
M  V30 21 1 9 21
M  V30 22 1 9 22
M  V30 23 1 9 23
M  V30 24 1 10 24
M  V30 25 1 11 25
M  V30 26 1 14 26
M  V30 27 1 14 27
M  V30 28 1 14 28
M  V30 END BOND
M  V30 END CTAB
M  END
>  <Structure No>
8586

>  <LogS>
-1.27

>  <MMFF94 Energy>
-51.445

$$$$
Compound 8587
Actelion Java MolfileCreator 2.0

  0  0  0  0  0  0              0 V3000
M  V30 BEGIN CTAB
M  V30 COUNTS 25 26 0 0 0
M  V30 BEGIN ATOM
M  V30 1 F -3.4435 -2.6419 0.2399 0
M  V30 2 C -2.9186 -1.3933 0.1588 0
M  V30 3 C -3.4912 -0.3293 0.8507 0
M  V30 4 C -1.7892 -1.1533 -0.6192 0
M  V30 5 O -4.5138 -0.5155 1.5632 0
M  V30 6 N -2.9429 0.9104 0.7566 0
M  V30 7 N -1.2596 0.1038 -0.706 0
M  V30 8 C -1.8375 1.1344 -0.0071 0
M  V30 9 C -0.0467 0.3166 -1.5125 0
M  V30 10 O -1.3541 2.2986 -0.0638 0
M  V30 11 C 1.1825 0.1694 -0.6556 0
M  V30 12 C 1.8018 1.3004 -0.0975 0
M  V30 13 C 1.6935 -1.107 -0.3674 0
M  V30 14 C 2.9241 1.1554 0.7241 0
M  V30 15 C 2.8157 -1.2476 0.4548 0
M  V30 16 C 3.4311 -0.1174 0.9995 0
M  V30 17 H -1.3377 -1.9805 -1.1538 0
M  V30 18 H -3.3757 1.7048 1.2816 0
M  V30 19 H -0.0046 -0.412 -2.3529 0
M  V30 20 H -0.0694 1.3189 -1.9945 0
M  V30 21 H 1.4186 2.2928 -0.2987 0
M  V30 22 H 1.2238 -1.9917 -0.7787 0
M  V30 23 H 3.3995 2.0299 1.1492 0
M  V30 24 H 3.207 -2.2331 0.6715 0
M  V30 25 H 4.2991 -0.2278 1.6365 0
M  V30 END ATOM
M  V30 BEGIN BOND
M  V30 1 1 1 2
M  V30 2 1 2 3
M  V30 3 2 2 4
M  V30 4 2 3 5
M  V30 5 1 3 6
M  V30 6 1 4 7
M  V30 7 1 6 8
M  V30 8 1 7 9
M  V30 9 2 8 10
M  V30 10 1 9 11
M  V30 11 2 11 12
M  V30 12 1 11 13
M  V30 13 1 12 14
M  V30 14 2 13 15
M  V30 15 2 14 16
M  V30 16 1 7 8
M  V30 17 1 15 16
M  V30 18 1 4 17
M  V30 19 1 6 18
M  V30 20 1 9 19
M  V30 21 1 9 20
M  V30 22 1 12 21
M  V30 23 1 13 22
M  V30 24 1 14 23
M  V30 25 1 15 24
M  V30 26 1 16 25
M  V30 END BOND
M  V30 END CTAB
M  END
>  <Structure No>
8587

>  <LogS>
-2.65

>  <MMFF94 Energy>
-39.009

$$$$
Compound 8588
Actelion Java MolfileCreator 2.0

  0  0  0  0  0  0              0 V3000
M  V30 BEGIN CTAB
M  V30 COUNTS 39 41 0 0 0
M  V30 BEGIN ATOM
M  V30 1 Cl -3.3442 1.0859 -2.4237 0
M  V30 2 C -2.2303 2.1289 -1.5439 0
M  V30 3 C -1.3163 1.6212 -0.5902 0
M  V30 4 C -2.2785 3.5041 -1.8038 0
M  V30 5 C -0.4955 2.5265 0.1111 0
M  V30 6 C -1.2489 0.1374 -0.2624 0 CFG=1
M  V30 7 C -1.4397 4.3848 -1.1168 0
M  V30 8 C -0.5525 3.8956 -0.157 0
M  V30 9 O 0.0746 -0.2424 0.0771 0
M  V30 10 C -2.1674 -0.1618 0.9286 0
M  V30 11 Cl -1.5106 6.1054 -1.4502 0
M  V30 12 C 0.8292 -0.5175 -1.0848 0
M  V30 13 N -2.1471 -1.5889 1.2416 0
M  V30 14 C 2.2571 -0.7677 -0.6835 0
M  V30 15 C -1.3649 -2.2104 2.1444 0
M  V30 16 C -2.8347 -2.5603 0.6208 0
M  V30 17 C 2.6538 -1.9983 -0.1156 0
M  V30 18 C 3.2022 0.2651 -0.8108 0
M  V30 19 N -1.5356 -3.5489 2.1373 0
M  V30 20 C -2.4613 -3.7622 1.1787 0
M  V30 21 Cl 1.513 -3.3179 0.1246 0
M  V30 22 C 3.983 -2.1868 0.281 0
M  V30 23 C 4.5274 0.067 -0.4107 0
M  V30 24 C 4.9171 -1.1597 0.1313 0
M  V30 25 Cl 5.6986 1.3614 -0.583 0
M  V30 26 H -2.9745 3.8903 -2.5382 0
M  V30 27 H 0.1924 2.1731 0.869 0
M  V30 28 H -1.6264 -0.4695 -1.1179 0
M  V30 29 H 0.0915 4.5757 0.3854 0
M  V30 30 H -1.8399 0.4204 1.8185 0
M  V30 31 H -3.2094 0.1452 0.6884 0
M  V30 32 H 0.7853 0.3333 -1.8033 0
M  V30 33 H 0.4315 -1.4165 -1.606 0
M  V30 34 H -0.6661 -1.6995 2.7944 0
M  V30 35 H -3.5424 -2.4082 -0.1838 0
M  V30 36 H 2.9099 1.2253 -1.2189 0
M  V30 37 H -2.8333 -4.738 0.8974 0
M  V30 38 H 4.2928 -3.1303 0.7124 0
M  V30 39 H 5.9417 -1.3163 0.4437 0
M  V30 END ATOM
M  V30 BEGIN BOND
M  V30 1 1 1 2
M  V30 2 2 2 3
M  V30 3 1 2 4
M  V30 4 1 3 5
M  V30 5 1 3 6
M  V30 6 2 4 7
M  V30 7 2 5 8
M  V30 8 1 6 9
M  V30 9 1 6 10
M  V30 10 1 7 11
M  V30 11 1 9 12
M  V30 12 1 10 13
M  V30 13 1 12 14
M  V30 14 1 13 15
M  V30 15 1 13 16
M  V30 16 2 14 17
M  V30 17 1 14 18
M  V30 18 2 15 19
M  V30 19 2 16 20
M  V30 20 1 17 21
M  V30 21 1 17 22
M  V30 22 2 18 23
M  V30 23 2 22 24
M  V30 24 1 23 25
M  V30 25 1 7 8
M  V30 26 1 19 20
M  V30 27 1 23 24
M  V30 28 1 4 26
M  V30 29 1 5 27
M  V30 30 1 6 28
M  V30 31 1 8 29
M  V30 32 1 10 30
M  V30 33 1 10 31
M  V30 34 1 12 32
M  V30 35 1 12 33
M  V30 36 1 15 34
M  V30 37 1 16 35
M  V30 38 1 18 36
M  V30 39 1 20 37
M  V30 40 1 22 38
M  V30 41 1 24 39
M  V30 END BOND
M  V30 BEGIN COLLECTION
M  V30 MDLV30/STEABS ATOMS=(1 6)
M  V30 END COLLECTION
M  V30 END CTAB
M  END
>  <Structure No>
8588

>  <LogS>
-3.54

>  <MMFF94 Energy>
37.953

$$$$
Compound 8589
Actelion Java MolfileCreator 2.0

  0  0  0  0  0  0              0 V3000
M  V30 BEGIN CTAB
M  V30 COUNTS 24 25 0 0 0
M  V30 BEGIN ATOM
M  V30 1 O -0.1605 -1.6063 -0.5619 0
M  V30 2 C -0.0789 -0.4088 0.1836 0 CFG=2
M  V30 3 C -1.433 -2.1964 -0.3345 0
M  V30 4 C -1.1496 0.5619 -0.3004 0 CFG=2
M  V30 5 C 1.2718 0.2976 0.0042 0 CFG=1
M  V30 6 O -2.4857 -1.3719 -0.8147 0
M  V30 7 O -1.0765 1.7614 0.4396 0
M  V30 8 C -2.4932 -0.1376 -0.1196 0
M  V30 9 O 1.2476 1.5348 0.699 0
M  V30 10 C 2.4152 -0.563 0.5579 0
M  V30 11 C 0.194 2.3542 0.2126 0
M  V30 12 O 3.6433 0.0944 0.3995 0
M  V30 13 H -0.2144 -0.6152 1.2738 0
M  V30 14 H -1.4688 -3.1545 -0.892 0
M  V30 15 H -1.5802 -2.457 0.7401 0
M  V30 16 H -1.0266 0.7674 -1.3915 0
M  V30 17 H 1.468 0.4693 -1.0805 0
M  V30 18 H -2.7232 -0.2944 0.9592 0
M  V30 19 H -3.2951 0.5038 -0.542 0
M  V30 20 H 2.4429 -1.5509 0.0438 0
M  V30 21 H 2.2529 -0.7485 1.6413 0
M  V30 22 H 0.3431 2.6117 -0.8625 0
M  V30 23 H 0.2257 3.3145 0.7666 0
M  V30 24 H 3.8878 0.0128 -0.5591 0
M  V30 END ATOM
M  V30 BEGIN BOND
M  V30 1 1 1 2
M  V30 2 1 1 3
M  V30 3 1 2 4
M  V30 4 1 2 5
M  V30 5 1 3 6
M  V30 6 1 4 7
M  V30 7 1 4 8
M  V30 8 1 5 9
M  V30 9 1 5 10
M  V30 10 1 7 11
M  V30 11 1 10 12
M  V30 12 1 6 8
M  V30 13 1 9 11
M  V30 14 1 2 13
M  V30 15 1 3 14
M  V30 16 1 3 15
M  V30 17 1 4 16
M  V30 18 1 5 17
M  V30 19 1 8 18
M  V30 20 1 8 19
M  V30 21 1 10 20
M  V30 22 1 10 21
M  V30 23 1 11 22
M  V30 24 1 11 23
M  V30 25 1 12 24
M  V30 END BOND
M  V30 BEGIN COLLECTION
M  V30 MDLV30/STEABS ATOMS=(3 2 4 5)
M  V30 END COLLECTION
M  V30 END CTAB
M  END
>  <Structure No>
8589

>  <LogS>
-0.62

>  <MMFF94 Energy>
29.296

$$$$
Compound 8590
Actelion Java MolfileCreator 2.0

  0  0  0  0  0  0              0 V3000
M  V30 BEGIN CTAB
M  V30 COUNTS 23 22 0 0 0
M  V30 BEGIN ATOM
M  V30 1 O -1.6784 3.6794 0.799 0
M  V30 2 N -1.1814 2.5466 0.9538 0 CHG=1
M  V30 3 O -0.5588 1.9287 -0.1134 0
M  V30 4 O -1.2113 1.9609 2.199 0 CHG=-1
M  V30 5 C -0.0144 0.6106 -0.0338 0 CFG=1
M  V30 6 C -1.1236 -0.4215 -0.2912 0
M  V30 7 C 1.1221 0.5041 -1.0714 0
M  V30 8 O -2.2006 -0.2249 0.619 0
M  V30 9 C 1.8881 -0.8317 -1.0729 0
M  V30 10 N -3.3312 -1.017 0.5989 0 CHG=1
M  V30 11 C 2.5912 -1.1228 0.2523 0
M  V30 12 O -3.4521 -1.9454 -0.2273 0
M  V30 13 O -4.339 -0.7788 1.5022 0 CHG=-1
M  V30 14 H 0.4111 0.4542 0.98 0
M  V30 15 H -0.728 -1.4486 -0.1489 0
M  V30 16 H -1.5008 -0.3174 -1.3319 0
M  V30 17 H 1.8481 1.3263 -0.8871 0
M  V30 18 H 0.7014 0.669 -2.0875 0
M  V30 19 H 2.6613 -0.7816 -1.87 0
M  V30 20 H 1.2135 -1.6733 -1.3338 0
M  V30 21 H 3.2035 -0.2517 0.5685 0
M  V30 22 H 3.261 -1.9998 0.1294 0
M  V30 23 H 1.8515 -1.3655 1.043 0
M  V30 END ATOM
M  V30 BEGIN BOND
M  V30 1 2 1 2
M  V30 2 1 2 3
M  V30 3 1 2 4
M  V30 4 1 3 5
M  V30 5 1 5 6
M  V30 6 1 5 7
M  V30 7 1 6 8
M  V30 8 1 7 9
M  V30 9 1 8 10
M  V30 10 1 9 11
M  V30 11 2 10 12
M  V30 12 1 10 13
M  V30 13 1 5 14
M  V30 14 1 6 15
M  V30 15 1 6 16
M  V30 16 1 7 17
M  V30 17 1 7 18
M  V30 18 1 9 19
M  V30 19 1 9 20
M  V30 20 1 11 21
M  V30 21 1 11 22
M  V30 22 1 11 23
M  V30 END BOND
M  V30 BEGIN COLLECTION
M  V30 MDLV30/STEABS ATOMS=(1 5)
M  V30 END COLLECTION
M  V30 END CTAB
M  END
>  <Structure No>
8590

>  <LogS>
-2.5

>  <MMFF94 Energy>
-29.613

$$$$
Compound 8591
Actelion Java MolfileCreator 2.0

  0  0  0  0  0  0              0 V3000
M  V30 BEGIN CTAB
M  V30 COUNTS 23 22 0 0 0
M  V30 BEGIN ATOM
M  V30 1 O -2.6385 2.2384 0.6391 0
M  V30 2 N -2.8995 1.4639 -0.3048 0 CHG=1
M  V30 3 O -2.4614 0.1531 -0.2971 0
M  V30 4 O -3.6779 1.9074 -1.3467 0 CHG=-1
M  V30 5 C -1.6084 -0.3704 0.7222 0 CFG=2
M  V30 6 C -0.1721 0.1764 0.5777 0
M  V30 7 C -1.65 -1.8992 0.6759 0
M  V30 8 C 0.4363 -0.0629 -0.8154 0
M  V30 9 C 1.8102 0.5947 -0.9491 0
M  V30 10 O 2.7332 -0.0082 -0.0469 0
M  V30 11 N 4.05 0.3992 0.034 0 CHG=1
M  V30 12 O 4.4842 1.3207 -0.6882 0
M  V30 13 O 4.8947 -0.2187 0.9245 0 CHG=-1
M  V30 14 H -2.0004 -0.0622 1.7171 0
M  V30 15 H -0.1876 1.2688 0.7817 0
M  V30 16 H 0.4747 -0.2901 1.3526 0
M  V30 17 H -2.6757 -2.2496 0.9185 0
M  V30 18 H -0.9478 -2.3304 1.4209 0
M  V30 19 H -1.3889 -2.2731 -0.3358 0
M  V30 20 H -0.2316 0.3624 -1.5951 0
M  V30 21 H 0.5457 -1.1516 -1.0049 0
M  V30 22 H 2.1755 0.4609 -1.9901 0
M  V30 23 H 1.7333 1.6837 -0.7381 0
M  V30 END ATOM
M  V30 BEGIN BOND
M  V30 1 2 1 2
M  V30 2 1 2 3
M  V30 3 1 2 4
M  V30 4 1 3 5
M  V30 5 1 5 6
M  V30 6 1 5 7
M  V30 7 1 6 8
M  V30 8 1 8 9
M  V30 9 1 9 10
M  V30 10 1 10 11
M  V30 11 2 11 12
M  V30 12 1 11 13
M  V30 13 1 5 14
M  V30 14 1 6 15
M  V30 15 1 6 16
M  V30 16 1 7 17
M  V30 17 1 7 18
M  V30 18 1 7 19
M  V30 19 1 8 20
M  V30 20 1 8 21
M  V30 21 1 9 22
M  V30 22 1 9 23
M  V30 END BOND
M  V30 BEGIN COLLECTION
M  V30 MDLV30/STEABS ATOMS=(1 5)
M  V30 END COLLECTION
M  V30 END CTAB
M  END
>  <Structure No>
8591

>  <LogS>
-2.44

>  <MMFF94 Energy>
-22.886

$$$$
Compound 8592
Actelion Java MolfileCreator 2.0

  0  0  0  0  0  0              0 V3000
M  V30 BEGIN CTAB
M  V30 COUNTS 26 25 0 0 0
M  V30 BEGIN ATOM
M  V30 1 O -3.4304 0.6375 -1.9135 0
M  V30 2 N -4.0427 0.6497 -0.8251 0 CHG=1
M  V30 3 O -3.5519 -0.0207 0.2795 0
M  V30 4 O -5.2488 1.3019 -0.736 0 CHG=-1
M  V30 5 C -2.2891 -0.6871 0.2801 0 CFG=1
M  V30 6 C -1.1552 0.3535 0.387 0
M  V30 7 C -2.2672 -1.6749 1.449 0
M  V30 8 C 0.2333 -0.2554 0.1395 0
M  V30 9 C 1.3143 0.8321 0.1219 0
M  V30 10 C 2.6984 0.2305 -0.1122 0
M  V30 11 O 3.672 1.2692 -0.1238 0
M  V30 12 N 5.0147 1.0117 -0.3169 0 CHG=1
M  V30 13 O 5.428 -0.1537 -0.4902 0
M  V30 14 O 5.9093 2.0547 -0.3182 0 CHG=-1
M  V30 15 H -2.1849 -1.2669 -0.6638 0
M  V30 16 H -1.3293 1.1489 -0.3693 0
M  V30 17 H -1.1812 0.8365 1.3887 0
M  V30 18 H -2.2937 -1.1342 2.4191 0
M  V30 19 H -3.1553 -2.3395 1.3914 0
M  V30 20 H -1.3625 -2.3157 1.4085 0
M  V30 21 H 0.4719 -0.9836 0.9436 0
M  V30 22 H 0.2346 -0.7889 -0.8362 0
M  V30 23 H 1.314 1.3731 1.0936 0
M  V30 24 H 1.0961 1.5622 -0.6882 0
M  V30 25 H 2.9384 -0.4888 0.7006 0
M  V30 26 H 2.717 -0.3013 -1.0882 0
M  V30 END ATOM
M  V30 BEGIN BOND
M  V30 1 2 1 2
M  V30 2 1 2 3
M  V30 3 1 2 4
M  V30 4 1 3 5
M  V30 5 1 5 6
M  V30 6 1 5 7
M  V30 7 1 6 8
M  V30 8 1 8 9
M  V30 9 1 9 10
M  V30 10 1 10 11
M  V30 11 1 11 12
M  V30 12 2 12 13
M  V30 13 1 12 14
M  V30 14 1 5 15
M  V30 15 1 6 16
M  V30 16 1 6 17
M  V30 17 1 7 18
M  V30 18 1 7 19
M  V30 19 1 7 20
M  V30 20 1 8 21
M  V30 21 1 8 22
M  V30 22 1 9 23
M  V30 23 1 9 24
M  V30 24 1 10 25
M  V30 25 1 10 26
M  V30 END BOND
M  V30 BEGIN COLLECTION
M  V30 MDLV30/STEABS ATOMS=(1 5)
M  V30 END COLLECTION
M  V30 END CTAB
M  END
>  <Structure No>
8592

>  <LogS>
-2.84

>  <MMFF94 Energy>
-24.382

$$$$
Compound 8593
Actelion Java MolfileCreator 2.0

  0  0  0  0  0  0              0 V3000
M  V30 BEGIN CTAB
M  V30 COUNTS 24 24 0 0 0
M  V30 BEGIN ATOM
M  V30 1 O -3.7427 2.6025 -0.8127 0
M  V30 2 N -2.9121 1.9329 -0.1679 0 CHG=1
M  V30 3 O -1.8322 1.3769 -0.8248 0
M  V30 4 O -3.0604 1.8012 1.194 0 CHG=-1
M  V30 5 C -0.8676 0.5651 -0.1581 0 CFG=2
M  V30 6 C 0.3792 0.4428 -1.0477 0
M  V30 7 C -1.4599 -0.8253 0.1297 0
M  V30 8 C 1.4381 -0.482 -0.4184 0 CFG=1
M  V30 9 C -0.4156 -1.748 0.7688 0
M  V30 10 O 1.9544 0.0887 0.7842 0
M  V30 11 C 0.8344 -1.8616 -0.1133 0
M  V30 12 N 2.8317 1.1549 0.7804 0 CHG=1
M  V30 13 O 3.2136 1.6377 1.8648 0
M  V30 14 O 3.3295 1.662 -0.3981 0 CHG=-1
M  V30 15 H -0.576 1.0545 0.7981 0
M  V30 16 H 0.0869 0.0393 -2.0425 0
M  V30 17 H 0.8112 1.4526 -1.2136 0
M  V30 18 H -1.8276 -1.2801 -0.8166 0
M  V30 19 H -2.3248 -0.7309 0.8199 0
M  V30 20 H 2.2719 -0.6251 -1.1404 0
M  V30 21 H -0.8571 -2.7582 0.909 0
M  V30 22 H -0.1349 -1.3573 1.7715 0
M  V30 23 H 0.5675 -2.3679 -1.0671 0
M  V30 24 H 1.5915 -2.4911 0.402 0
M  V30 END ATOM
M  V30 BEGIN BOND
M  V30 1 2 1 2
M  V30 2 1 2 3
M  V30 3 1 2 4
M  V30 4 1 3 5
M  V30 5 1 5 6
M  V30 6 1 5 7
M  V30 7 1 6 8
M  V30 8 1 7 9
M  V30 9 1 8 10
M  V30 10 1 8 11
M  V30 11 1 10 12
M  V30 12 2 12 13
M  V30 13 1 12 14
M  V30 14 1 9 11
M  V30 15 1 5 15
M  V30 16 1 6 16
M  V30 17 1 6 17
M  V30 18 1 7 18
M  V30 19 1 7 19
M  V30 20 1 8 20
M  V30 21 1 9 21
M  V30 22 1 9 22
M  V30 23 1 11 23
M  V30 24 1 11 24
M  V30 END BOND
M  V30 BEGIN COLLECTION
M  V30 MDLV30/STEABS ATOMS=(2 5 8)
M  V30 END COLLECTION
M  V30 END CTAB
M  END
>  <Structure No>
8593

>  <LogS>
-2.33

>  <MMFF94 Energy>
-22.397

$$$$
Compound 8594
Actelion Java MolfileCreator 2.0

  0  0  0  0  0  0              0 V3000
M  V30 BEGIN CTAB
M  V30 COUNTS 29 30 0 0 0
M  V30 BEGIN ATOM
M  V30 1 Cl -0.6486 2.8401 4.9539 0
M  V30 2 C 0.0315 2.2793 3.4399 0
M  V30 3 N 0.8261 1.1763 3.4259 0
M  V30 4 C -0.2426 2.9586 2.2502 0
M  V30 5 C 1.3748 0.7046 2.2746 0
M  V30 6 C 0.3089 2.4938 1.0551 0
M  V30 7 C 1.1326 1.3588 1.0575 0
M  V30 8 C 1.711 0.8217 -0.2224 0
M  V30 9 N 0.9792 -0.3712 -0.6447 0
M  V30 10 C -0.3368 -0.4079 -1.1623 0
M  V30 11 C 1.5114 -1.7275 -0.6244 0
M  V30 12 N -1.0506 0.6705 -1.3222 0
M  V30 13 N -0.7355 -1.7381 -1.4806 0
M  V30 14 C 0.3755 -2.6305 -1.16 0
M  V30 15 C -2.3558 0.7266 -1.8318 0
M  V30 16 C -2.0142 -2.2063 -2.0081 0
M  V30 17 N -3.4333 0.7798 -2.2516 0
M  V30 18 H -0.8776 3.8354 2.2506 0
M  V30 19 H 1.9979 -0.1797 2.3073 0
M  V30 20 H 0.092 3.0158 0.1314 0
M  V30 21 H 2.7813 0.5685 -0.0592 0
M  V30 22 H 1.6755 1.5842 -1.0305 0
M  V30 23 H 1.783 -2.0127 0.4146 0
M  V30 24 H 2.4058 -1.792 -1.2807 0
M  V30 25 H 0.0604 -3.3612 -0.384 0
M  V30 26 H 0.7034 -3.1703 -2.0746 0
M  V30 27 H -2.1978 -1.758 -3.0064 0
M  V30 28 H -2.8323 -1.9403 -1.3069 0
M  V30 29 H -2.0011 -3.3111 -2.1221 0
M  V30 END ATOM
M  V30 BEGIN BOND
M  V30 1 1 1 2
M  V30 2 2 2 3
M  V30 3 1 2 4
M  V30 4 1 3 5
M  V30 5 2 4 6
M  V30 6 2 5 7
M  V30 7 1 7 8
M  V30 8 1 8 9
M  V30 9 1 9 10
M  V30 10 1 9 11
M  V30 11 2 10 12
M  V30 12 1 10 13
M  V30 13 1 11 14
M  V30 14 1 12 15
M  V30 15 1 13 16
M  V30 16 3 15 17
M  V30 17 1 6 7
M  V30 18 1 13 14
M  V30 19 1 4 18
M  V30 20 1 5 19
M  V30 21 1 6 20
M  V30 22 1 8 21
M  V30 23 1 8 22
M  V30 24 1 11 23
M  V30 25 1 11 24
M  V30 26 1 14 25
M  V30 27 1 14 26
M  V30 28 1 16 27
M  V30 29 1 16 28
M  V30 30 1 16 29
M  V30 END BOND
M  V30 END CTAB
M  END
>  <Structure No>
8594

>  <LogS>
-2.13

>  <MMFF94 Energy>
-46.168

$$$$
Compound 8595
Actelion Java MolfileCreator 2.0

  0  0  0  0  0  0              0 V3000
M  V30 BEGIN CTAB
M  V30 COUNTS 24 24 0 0 0
M  V30 BEGIN ATOM
M  V30 1 O 2.8474 -2.1146 2.196 0
M  V30 2 N 2.1484 -1.9708 1.1738 0 CHG=1
M  V30 3 O 1.8695 -0.6981 0.7164 0
M  V30 4 O 1.7088 -3.0833 0.4931 0 CHG=-1
M  V30 5 C 1.0366 -0.4571 -0.4184 0 CFG=1
M  V30 6 C -0.4471 -0.69 -0.0602 0 CFG=2
M  V30 7 C 1.2649 0.9786 -0.9211 0
M  V30 8 O -1.2328 -0.6459 -1.2534 0
M  V30 9 C -0.9416 0.3647 0.9489 0
M  V30 10 C 0.7651 2.0187 0.09 0
M  V30 11 N -2.5248 -1.1325 -1.3162 0 CHG=1
M  V30 12 C -0.7111 1.79 0.4313 0
M  V30 13 O -3.0428 -1.7191 -0.3432 0
M  V30 14 O -3.2333 -1.0115 -2.4872 0 CHG=-1
M  V30 15 H 1.3298 -1.1539 -1.2346 0
M  V30 16 H -0.5473 -1.6983 0.3964 0
M  V30 17 H 2.3496 1.1377 -1.1034 0
M  V30 18 H 0.738 1.1231 -1.8899 0
M  V30 19 H -2.0243 0.221 1.1494 0
M  V30 20 H -0.4065 0.2325 1.9149 0
M  V30 21 H 0.8877 3.0358 -0.3402 0
M  V30 22 H 1.3761 1.9658 1.0177 0
M  V30 23 H -1.0232 2.5177 1.211 0
M  V30 24 H -1.3365 1.9685 -0.4708 0
M  V30 END ATOM
M  V30 BEGIN BOND
M  V30 1 2 1 2
M  V30 2 1 2 3
M  V30 3 1 2 4
M  V30 4 1 3 5
M  V30 5 1 5 6
M  V30 6 1 5 7
M  V30 7 1 6 8
M  V30 8 1 6 9
M  V30 9 1 7 10
M  V30 10 1 8 11
M  V30 11 1 9 12
M  V30 12 2 11 13
M  V30 13 1 11 14
M  V30 14 1 10 12
M  V30 15 1 5 15
M  V30 16 1 6 16
M  V30 17 1 7 17
M  V30 18 1 7 18
M  V30 19 1 9 19
M  V30 20 1 9 20
M  V30 21 1 10 21
M  V30 22 1 10 22
M  V30 23 1 12 23
M  V30 24 1 12 24
M  V30 END BOND
M  V30 BEGIN COLLECTION
M  V30 MDLV30/STEABS ATOMS=(2 5 6)
M  V30 END COLLECTION
M  V30 END CTAB
M  END
>  <Structure No>
8595

>  <LogS>
-2.35

>  <MMFF94 Energy>
-22.321

$$$$
Compound 8596
Actelion Java MolfileCreator 2.0

  0  0  0  0  0  0              0 V3000
M  V30 BEGIN CTAB
M  V30 COUNTS 26 27 0 0 0
M  V30 BEGIN ATOM
M  V30 1 Cl 4.8079 2.0351 -1.5464 0
M  V30 2 C 3.3895 1.5126 -0.6609 0
M  V30 3 N 2.5089 2.4363 -0.1931 0
M  V30 4 C 3.1637 0.1535 -0.4315 0
M  V30 5 C 1.3943 2.0773 0.4983 0
M  V30 6 C 2.0272 -0.2404 0.2763 0
M  V30 7 C 1.1204 0.7225 0.7431 0
M  V30 8 C -0.1057 0.3084 1.513 0
M  V30 9 N -0.9472 -0.5741 0.7062 0
M  V30 10 C -1.7113 -0.2251 -0.4363 0
M  V30 11 C -1.1907 -1.979 0.9795 0
M  V30 12 N -2.3761 -1.2083 -0.9374 0
M  V30 13 N -1.7697 1.1008 -0.9755 0
M  V30 14 C -2.1307 -2.4155 -0.1562 0
M  V30 15 C -2.5084 1.3876 -2.1326 0
M  V30 16 N -3.1179 1.6244 -3.0872 0
M  V30 17 H 3.8615 -0.5895 -0.7955 0
M  V30 18 H 0.7233 2.8482 0.8542 0
M  V30 19 H 1.8545 -1.2929 0.4599 0
M  V30 20 H -0.7018 1.1899 1.8335 0
M  V30 21 H 0.218 -0.2216 2.4346 0
M  V30 22 H -0.2379 -2.5493 0.9515 0
M  V30 23 H -1.6831 -2.0944 1.9692 0
M  V30 24 H -1.2716 1.8843 -0.5017 0
M  V30 25 H -1.6471 -3.184 -0.7963 0
M  V30 26 H -3.0896 -2.8052 0.2474 0
M  V30 END ATOM
M  V30 BEGIN BOND
M  V30 1 1 1 2
M  V30 2 2 2 3
M  V30 3 1 2 4
M  V30 4 1 3 5
M  V30 5 2 4 6
M  V30 6 2 5 7
M  V30 7 1 7 8
M  V30 8 1 8 9
M  V30 9 1 9 10
M  V30 10 1 9 11
M  V30 11 2 10 12
M  V30 12 1 10 13
M  V30 13 1 11 14
M  V30 14 1 13 15
M  V30 15 3 15 16
M  V30 16 1 6 7
M  V30 17 1 12 14
M  V30 18 1 4 17
M  V30 19 1 5 18
M  V30 20 1 6 19
M  V30 21 1 8 20
M  V30 22 1 8 21
M  V30 23 1 11 22
M  V30 24 1 11 23
M  V30 25 1 13 24
M  V30 26 1 14 25
M  V30 27 1 14 26
M  V30 END BOND
M  V30 END CTAB
M  END
>  <Structure No>
8596

>  <LogS>
-2.63

>  <MMFF94 Energy>
-93.63

$$$$
Compound 8597
Actelion Java MolfileCreator 2.0

  0  0  0  0  0  0              0 V3000
M  V30 BEGIN CTAB
M  V30 COUNTS 27 27 0 0 0
M  V30 BEGIN ATOM
M  V30 1 O 0.7294 3.6511 0.8915 0
M  V30 2 N 0.7095 3.3928 -0.3299 0 CHG=1
M  V30 3 O 0.6381 2.0897 -0.7857 0
M  V30 4 O 0.8133 4.4184 -1.2383 0 CHG=-1
M  V30 5 C 0.483 0.9687 0.0882 0 CFG=2
M  V30 6 C 0.9265 -0.3116 -0.6717 0 CFG=1
M  V30 7 C -0.96 0.9595 0.6409 0
M  V30 8 O 1.5232 -1.2536 0.2245 0
M  V30 9 C -0.1939 -0.9864 -1.4947 0
M  V30 10 C -1.395 -0.3686 1.2795 0
M  V30 11 N 2.7817 -1.0779 0.7689 0 CHG=1
M  V30 12 C -1.0564 -1.9779 -0.6913 0
M  V30 13 C -2.0529 -1.3084 0.2597 0
M  V30 14 O 3.4966 -0.1066 0.4449 0
M  V30 15 O 3.2684 -2.0098 1.6534 0 CHG=-1
M  V30 16 H 1.1744 1.1043 0.9488 0
M  V30 17 H 1.7083 -0.0103 -1.4056 0
M  V30 18 H -1.0315 1.751 1.4182 0
M  V30 19 H -1.673 1.2563 -0.1593 0
M  V30 20 H -0.8348 -0.2226 -1.9866 0
M  V30 21 H 0.2901 -1.5639 -2.3127 0
M  V30 22 H -0.5478 -0.8677 1.7969 0
M  V30 23 H -2.1555 -0.1408 2.0585 0
M  V30 24 H -0.4205 -2.6941 -0.1285 0
M  V30 25 H -1.6418 -2.5862 -1.4148 0
M  V30 26 H -2.8251 -0.7637 -0.3267 0
M  V30 27 H -2.583 -2.111 0.8174 0
M  V30 END ATOM
M  V30 BEGIN BOND
M  V30 1 2 1 2
M  V30 2 1 2 3
M  V30 3 1 2 4
M  V30 4 1 3 5
M  V30 5 1 5 6
M  V30 6 1 5 7
M  V30 7 1 6 8
M  V30 8 1 6 9
M  V30 9 1 7 10
M  V30 10 1 8 11
M  V30 11 1 9 12
M  V30 12 1 10 13
M  V30 13 2 11 14
M  V30 14 1 11 15
M  V30 15 1 12 13
M  V30 16 1 5 16
M  V30 17 1 6 17
M  V30 18 1 7 18
M  V30 19 1 7 19
M  V30 20 1 9 20
M  V30 21 1 9 21
M  V30 22 1 10 22
M  V30 23 1 10 23
M  V30 24 1 12 24
M  V30 25 1 12 25
M  V30 26 1 13 26
M  V30 27 1 13 27
M  V30 END BOND
M  V30 BEGIN COLLECTION
M  V30 MDLV30/STEABS ATOMS=(2 5 6)
M  V30 END COLLECTION
M  V30 END CTAB
M  END
>  <Structure No>
8597

>  <LogS>
-3.02

>  <MMFF94 Energy>
-11.695

$$$$
Compound 8598
Actelion Java MolfileCreator 2.0

  0  0  0  0  0  0              0 V3000
M  V30 BEGIN CTAB
M  V30 COUNTS 41 43 0 0 0
M  V30 BEGIN ATOM
M  V30 1 S -0.7233 -2.1712 -2.0102 0
M  V30 2 C 0.4781 -0.8475 -1.8918 0
M  V30 3 C -1.5736 -1.7439 -0.4497 0
M  V30 4 N 0.2622 0.3361 -2.5556 0
M  V30 5 N 1.6014 -1.0148 -1.1313 0
M  V30 6 C -2.5471 -0.5684 -0.6631 0
M  V30 7 N 1.1286 1.355 -2.4742 0
M  V30 8 C 2.4627 0.024 -1.0612 0
M  V30 9 N -3.1903 -0.0581 0.5812 0 CHG=1
M  V30 10 C 2.2367 1.1958 -1.7178 0
M  V30 11 C 3.6459 0.1714 -0.3856 0
M  V30 12 C -4.0268 -1.0744 1.2709 0
M  V30 13 C -2.228 0.5258 1.5534 0
M  V30 14 N 3.2157 2.0988 -1.5042 0
M  V30 15 C 4.0781 1.454 -0.6804 0
M  V30 16 C 4.3632 -0.6831 0.4458 0
M  V30 17 C -5.1782 -1.5997 0.4052 0
M  V30 18 C -1.3669 1.65 0.9643 0
M  V30 19 C 5.2678 1.9509 -0.1508 0
M  V30 20 C 5.5672 -0.1993 0.9896 0
M  V30 21 C 6.0166 1.1084 0.6933 0
M  V30 22 H -0.8148 -1.5171 0.3249 0
M  V30 23 H -2.1367 -2.6437 -0.1295 0
M  V30 24 H -3.3238 -0.8807 -1.393 0
M  V30 25 H -2.0234 0.2614 -1.1782 0
M  V30 26 H -3.832 0.7191 0.2925 0
M  V30 27 H -3.4107 -1.9276 1.6286 0
M  V30 28 H -4.4915 -0.6196 2.1752 0
M  V30 29 H -2.7927 0.9708 2.4043 0
M  V30 30 H -1.5697 -0.2542 1.9917 0
M  V30 31 H 3.2887 3.0692 -1.8831 0
M  V30 32 H 4.0095 -1.6818 0.6668 0
M  V30 33 H -5.7245 -0.7587 -0.0717 0
M  V30 34 H -5.8902 -2.1655 1.0425 0
M  V30 35 H -4.8015 -2.2933 -0.3743 0
M  V30 36 H -0.8635 2.1999 1.7873 0
M  V30 37 H -1.9954 2.3663 0.3941 0
M  V30 38 H -0.5753 1.2355 0.306 0
M  V30 39 H 5.6065 2.9531 -0.3797 0
M  V30 40 H 6.1542 -0.8337 1.6408 0
M  V30 41 H 6.9447 1.4658 1.1199 0
M  V30 END ATOM
M  V30 BEGIN BOND
M  V30 1 1 1 2
M  V30 2 1 1 3
M  V30 3 2 2 4
M  V30 4 1 2 5
M  V30 5 1 3 6
M  V30 6 1 4 7
M  V30 7 2 5 8
M  V30 8 1 6 9
M  V30 9 2 7 10
M  V30 10 1 8 11
M  V30 11 1 9 12
M  V30 12 1 9 13
M  V30 13 1 10 14
M  V30 14 2 11 15
M  V30 15 1 11 16
M  V30 16 1 12 17
M  V30 17 1 13 18
M  V30 18 1 15 19
M  V30 19 2 16 20
M  V30 20 2 19 21
M  V30 21 1 8 10
M  V30 22 1 14 15
M  V30 23 1 20 21
M  V30 24 1 3 22
M  V30 25 1 3 23
M  V30 26 1 6 24
M  V30 27 1 6 25
M  V30 28 1 9 26
M  V30 29 1 12 27
M  V30 30 1 12 28
M  V30 31 1 13 29
M  V30 32 1 13 30
M  V30 33 1 14 31
M  V30 34 1 16 32
M  V30 35 1 17 33
M  V30 36 1 17 34
M  V30 37 1 17 35
M  V30 38 1 18 36
M  V30 39 1 18 37
M  V30 40 1 18 38
M  V30 41 1 19 39
M  V30 42 1 20 40
M  V30 43 1 21 41
M  V30 END BOND
M  V30 END CTAB
M  END
>  <Structure No>
8598

>  <LogS>
-3.09

>  <MMFF94 Energy>
42.768

$$$$
Compound 8599
Actelion Java MolfileCreator 2.0

  0  0  0  0  0  0              0 V3000
M  V30 BEGIN CTAB
M  V30 COUNTS 32 34 0 0 0
M  V30 BEGIN ATOM
M  V30 1 O 6.135 0.8862 1.1279 0
M  V30 2 C 4.974 0.6755 0.6922 0
M  V30 3 O 4.477 -0.627 0.631 0
M  V30 4 O 4.1589 1.7485 0.3304 0
M  V30 5 C 3.2111 -0.9185 0.0398 0
M  V30 6 C 2.8907 1.5414 -0.2881 0
M  V30 7 C 2.2267 0.2537 0.2355 0
M  V30 8 C 0.8844 0.0144 -0.4887 0
M  V30 9 C 0.0564 -1.1065 0.152 0
M  V30 10 N -1.2595 -1.179 -0.4775 0
M  V30 11 C -2.3603 -0.4799 -0.179 0
M  V30 12 C -1.6141 -1.8902 -1.5786 0
M  V30 13 N -2.5276 0.4192 0.8205 0
M  V30 14 C -3.3383 -0.78 -1.0622 0
M  V30 15 N -2.9014 -1.6734 -1.9693 0
M  V30 16 C -3.7456 1.033 0.9326 0
M  V30 17 C -4.5762 -0.1645 -0.9624 0
M  V30 18 N -4.7539 0.7388 0.047 0
M  V30 19 N -3.9683 1.9838 1.9711 0
M  V30 20 H 3.3595 -1.1103 -1.0451 0
M  V30 21 H 2.8154 -1.8436 0.5061 0
M  V30 22 H 3.0375 1.4705 -1.3883 0
M  V30 23 H 2.2437 2.4201 -0.08 0
M  V30 24 H 2.0345 0.3832 1.3243 0
M  V30 25 H 1.0655 -0.2256 -1.5597 0
M  V30 26 H 0.2845 0.9507 -0.4502 0
M  V30 27 H -0.0649 -0.9156 1.2408 0
M  V30 28 H 0.5702 -2.083 0.029 0
M  V30 29 H -0.94 -2.5539 -2.1044 0
M  V30 30 H -5.3749 -0.3832 -1.6583 0
M  V30 31 H -3.2075 2.2149 2.648 0
M  V30 32 H -4.8939 2.458 2.0642 0
M  V30 END ATOM
M  V30 BEGIN BOND
M  V30 1 2 1 2
M  V30 2 1 2 3
M  V30 3 1 2 4
M  V30 4 1 3 5
M  V30 5 1 4 6
M  V30 6 1 5 7
M  V30 7 1 7 8
M  V30 8 1 8 9
M  V30 9 1 9 10
M  V30 10 1 10 11
M  V30 11 1 10 12
M  V30 12 2 11 13
M  V30 13 1 11 14
M  V30 14 2 12 15
M  V30 15 1 13 16
M  V30 16 2 14 17
M  V30 17 2 16 18
M  V30 18 1 16 19
M  V30 19 1 6 7
M  V30 20 1 14 15
M  V30 21 1 17 18
M  V30 22 1 5 20
M  V30 23 1 5 21
M  V30 24 1 6 22
M  V30 25 1 6 23
M  V30 26 1 7 24
M  V30 27 1 8 25
M  V30 28 1 8 26
M  V30 29 1 9 27
M  V30 30 1 9 28
M  V30 31 1 12 29
M  V30 32 1 17 30
M  V30 33 1 19 31
M  V30 34 1 19 32
M  V30 END BOND
M  V30 END CTAB
M  END
>  <Structure No>
8599

>  <LogS>
-1.43

>  <MMFF94 Energy>
-81.537

$$$$
Compound 8600
Actelion Java MolfileCreator 2.0

  0  0  0  0  0  0              0 V3000
M  V30 BEGIN CTAB
M  V30 COUNTS 36 38 0 0 0
M  V30 BEGIN ATOM
M  V30 1 S 4.0327 1.2332 1.3977 0
M  V30 2 O 3.636 2.5924 1.9021 0
M  V30 3 O 4.6134 0.446 2.5389 0
M  V30 4 C 2.6213 0.4003 0.7556 0
M  V30 5 C 5.2504 1.4067 0.114 0
M  V30 6 C 2.5452 -0.9972 0.8033 0
M  V30 7 C 1.5824 1.1293 0.1636 0
M  V30 8 C 1.4303 -1.6601 0.2824 0
M  V30 9 C 0.4674 0.4681 -0.3583 0
M  V30 10 C 0.3728 -0.9328 -0.2869 0
M  V30 11 C -0.7987 -1.6456 -0.8474 0
M  V30 12 C -2.0805 -1.2725 -0.7412 0
M  V30 13 C -0.6789 -2.8775 -1.7122 0
M  V30 14 C -2.6411 -0.1723 0.0765 0
M  V30 15 C -2.8507 -2.206 -1.5361 0
M  V30 16 O -2.0182 -3.144 -2.111 0
M  V30 17 C -3.6403 0.6606 -0.4539 0
M  V30 18 C -2.2039 0.0366 1.3969 0
M  V30 19 O -4.1021 -2.2014 -1.6739 0
M  V30 20 C -4.1768 1.6976 0.3156 0
M  V30 21 C -2.7424 1.075 2.1625 0
M  V30 22 C -3.7267 1.9061 1.622 0
M  V30 23 H 5.5477 0.4028 -0.253 0
M  V30 24 H 6.1417 1.9317 0.5152 0
M  V30 25 H 4.8233 1.9936 -0.7251 0
M  V30 26 H 3.3489 -1.5747 1.2417 0
M  V30 27 H 1.6384 2.2084 0.0978 0
M  V30 28 H 1.3888 -2.7403 0.338 0
M  V30 29 H -0.3137 1.0505 -0.8302 0
M  V30 30 H -0.2807 -3.7348 -1.1302 0
M  V30 31 H -0.0482 -2.6722 -2.6027 0
M  V30 32 H -3.9926 0.5199 -1.468 0
M  V30 33 H -1.4543 -0.6083 1.8379 0
M  V30 34 H -4.9405 2.3411 -0.1015 0
M  V30 35 H -2.3994 1.2328 3.1768 0
M  V30 36 H -4.1431 2.7093 2.2161 0
M  V30 END ATOM
M  V30 BEGIN BOND
M  V30 1 2 1 2
M  V30 2 2 1 3
M  V30 3 1 1 4
M  V30 4 1 1 5
M  V30 5 2 4 6
M  V30 6 1 4 7
M  V30 7 1 6 8
M  V30 8 2 7 9
M  V30 9 2 8 10
M  V30 10 1 10 11
M  V30 11 2 11 12
M  V30 12 1 11 13
M  V30 13 1 12 14
M  V30 14 1 12 15
M  V30 15 1 13 16
M  V30 16 2 14 17
M  V30 17 1 14 18
M  V30 18 2 15 19
M  V30 19 1 17 20
M  V30 20 2 18 21
M  V30 21 2 20 22
M  V30 22 1 9 10
M  V30 23 1 15 16
M  V30 24 1 21 22
M  V30 25 1 5 23
M  V30 26 1 5 24
M  V30 27 1 5 25
M  V30 28 1 6 26
M  V30 29 1 7 27
M  V30 30 1 8 28
M  V30 31 1 9 29
M  V30 32 1 13 30
M  V30 33 1 13 31
M  V30 34 1 17 32
M  V30 35 1 18 33
M  V30 36 1 20 34
M  V30 37 1 21 35
M  V30 38 1 22 36
M  V30 END BOND
M  V30 END CTAB
M  END
>  <Structure No>
8600

>  <LogS>
-4.52

>  <MMFF94 Energy>
70.518

$$$$
Compound 8601
Actelion Java MolfileCreator 2.0

  0  0  0  0  0  0              0 V3000
M  V30 BEGIN CTAB
M  V30 COUNTS 23 23 0 0 0
M  V30 BEGIN ATOM
M  V30 1 O -2.5915 -1.4914 -2.0414 0
M  V30 2 C -2.4475 -1.2629 -0.8115 0
M  V30 3 O -3.1951 -1.9845 0.1116 0 CHG=-1
M  V30 4 C -1.4554 -0.2318 -0.3445 0 CFG=1
M  V30 5 N -2.1185 0.7473 0.5272 0 CHG=1
M  V30 6 C -0.2857 -0.9312 0.3781 0
M  V30 7 C 0.8386 0.0212 0.6771 0
M  V30 8 N 1.8262 0.3636 -0.1708 0
M  V30 9 C 1.0165 0.7224 1.8503 0
M  V30 10 C 2.5939 1.2382 0.5086 0
M  V30 11 C 2.0949 -0.1754 -1.5005 0
M  V30 12 N 2.1229 1.4873 1.7495 0
M  V30 13 H -1.0583 0.3009 -1.2383 0
M  V30 14 H -1.4673 1.5369 0.7394 0
M  V30 15 H -2.9551 1.1461 0.0415 0
M  V30 16 H -2.4234 0.3014 1.4233 0
M  V30 17 H 0.1073 -1.7556 -0.2557 0
M  V30 18 H -0.643 -1.3899 1.3262 0
M  V30 19 H 0.3826 0.6794 2.7263 0
M  V30 20 H 3.4942 1.6891 0.1115 0
M  V30 21 H 1.1616 -0.1994 -2.0998 0
M  V30 22 H 2.836 0.4584 -2.0323 0
M  V30 23 H 2.4993 -1.205 -1.4092 0
M  V30 END ATOM
M  V30 BEGIN BOND
M  V30 1 2 1 2
M  V30 2 1 2 3
M  V30 3 1 2 4
M  V30 4 1 4 5
M  V30 5 1 4 6
M  V30 6 1 6 7
M  V30 7 1 7 8
M  V30 8 2 7 9
M  V30 9 1 8 10
M  V30 10 1 8 11
M  V30 11 1 9 12
M  V30 12 2 10 12
M  V30 13 1 4 13
M  V30 14 1 5 14
M  V30 15 1 5 15
M  V30 16 1 5 16
M  V30 17 1 6 17
M  V30 18 1 6 18
M  V30 19 1 9 19
M  V30 20 1 10 20
M  V30 21 1 11 21
M  V30 22 1 11 22
M  V30 23 1 11 23
M  V30 END BOND
M  V30 BEGIN COLLECTION
M  V30 MDLV30/STEABS ATOMS=(1 4)
M  V30 END COLLECTION
M  V30 END CTAB
M  END
>  <Structure No>
8601

>  <LogS>
0.08

>  <MMFF94 Energy>
1.453

$$$$
Compound 8602
Actelion Java MolfileCreator 2.0

  0  0  0  0  0  0              0 V3000
M  V30 BEGIN CTAB
M  V30 COUNTS 24 25 0 0 0
M  V30 BEGIN ATOM
M  V30 1 Cl 4.3402 1.5303 0.3399 0
M  V30 2 C 3.4183 0.0399 0.6713 0
M  V30 3 Cl 2.7013 0.1606 2.3006 0
M  V30 4 Cl 4.5542 -1.3344 0.6524 0
M  V30 5 C 2.3338 -0.1603 -0.3959 0 CFG=1
M  V30 6 O 1.5986 -1.3309 -0.1281 0
M  V30 7 O 1.4738 0.9529 -0.4378 0
M  V30 8 C 0.2986 -1.0487 -0.5473 0 CFG=2
M  V30 9 C 0.2405 0.4251 -0.8227 0 CFG=1
M  V30 10 O -0.6127 -1.3831 0.4754 0
M  V30 11 C -0.91 0.935 0.0246 0 CFG=1
M  V30 12 C -1.5684 -0.3497 0.5407 0 CFG=1
M  V30 13 O -0.4745 1.7559 1.0838 0
M  V30 14 C -2.812 -0.7488 -0.2714 0
M  V30 15 O -3.8689 0.1392 -0.0186 0
M  V30 16 H 2.8303 -0.2669 -1.3878 0
M  V30 17 H 0.065 -1.6367 -1.4626 0
M  V30 18 H 0.0621 0.6237 -1.9037 0
M  V30 19 H -1.6044 1.5313 -0.6056 0
M  V30 20 H -1.8788 -0.2239 1.6019 0
M  V30 21 H 0.0571 1.1977 1.7091 0
M  V30 22 H -2.5722 -0.7986 -1.3597 0
M  V30 23 H -3.1333 -1.7645 0.0426 0
M  V30 24 H -3.8723 0.8066 -0.7531 0
M  V30 END ATOM
M  V30 BEGIN BOND
M  V30 1 1 1 2
M  V30 2 1 2 3
M  V30 3 1 2 4
M  V30 4 1 2 5
M  V30 5 1 5 6
M  V30 6 1 5 7
M  V30 7 1 6 8
M  V30 8 1 7 9
M  V30 9 1 8 10
M  V30 10 1 9 11
M  V30 11 1 10 12
M  V30 12 1 11 13
M  V30 13 1 12 14
M  V30 14 1 14 15
M  V30 15 1 8 9
M  V30 16 1 11 12
M  V30 17 1 5 16
M  V30 18 1 8 17
M  V30 19 1 9 18
M  V30 20 1 11 19
M  V30 21 1 12 20
M  V30 22 1 13 21
M  V30 23 1 14 22
M  V30 24 1 14 23
M  V30 25 1 15 24
M  V30 END BOND
M  V30 BEGIN COLLECTION
M  V30 MDLV30/STEABS ATOMS=(5 5 8 9 11 12)
M  V30 END COLLECTION
M  V30 END CTAB
M  END
>  <Structure No>
8602

>  <LogS>
-2.12

>  <MMFF94 Energy>
132.41

$$$$
Compound 8603
Actelion Java MolfileCreator 2.0

  0  0  0  0  0  0              0 V3000
M  V30 BEGIN CTAB
M  V30 COUNTS 18 18 0 0 0
M  V30 BEGIN ATOM
M  V30 1 S -1.0574 1.5865 1.2338 0
M  V30 2 S 0.7777 0.8348 2.0158 0
M  V30 3 C -1.5254 -0.0181 0.5034 0 CFG=1
M  V30 4 C 1.5016 0.5829 0.3603 0 CFG=1
M  V30 5 C -2.9674 0.041 0.095 0
M  V30 6 C -0.6398 -0.3217 -0.7177 0
M  V30 7 C 2.971 0.3238 0.5121 0
M  V30 8 C 0.8218 -0.6077 -0.3383 0
M  V30 9 O -3.8025 -0.752 0.6044 0
M  V30 10 O -3.3925 0.9705 -0.8474 0 CHG=-1
M  V30 11 O 3.8084 1.0994 -0.0199 0
M  V30 12 O 3.4191 -0.7726 1.2399 0 CHG=-1
M  V30 13 H -1.4023 -0.8212 1.2643 0
M  V30 14 H 1.3621 1.504 -0.2486 0
M  V30 15 H -0.6767 0.5266 -1.4368 0
M  V30 16 H -1.0372 -1.2196 -1.2406 0
M  V30 17 H 0.8658 -1.5089 0.3128 0
M  V30 18 H 1.3756 -0.8446 -1.2736 0
M  V30 END ATOM
M  V30 BEGIN BOND
M  V30 1 1 1 2
M  V30 2 1 1 3
M  V30 3 1 2 4
M  V30 4 1 3 5
M  V30 5 1 3 6
M  V30 6 1 4 7
M  V30 7 1 4 8
M  V30 8 2 5 9
M  V30 9 1 5 10
M  V30 10 2 7 11
M  V30 11 1 7 12
M  V30 12 1 6 8
M  V30 13 1 3 13
M  V30 14 1 4 14
M  V30 15 1 6 15
M  V30 16 1 6 16
M  V30 17 1 8 17
M  V30 18 1 8 18
M  V30 END BOND
M  V30 BEGIN COLLECTION
M  V30 MDLV30/STEABS ATOMS=(2 3 4)
M  V30 END COLLECTION
M  V30 END CTAB
M  END
>  <Structure No>
8603

>  <LogS>
-1.93

>  <MMFF94 Energy>
125.43

$$$$
Compound 8604
Actelion Java MolfileCreator 2.0

  0  0  0  0  0  0              0 V3000
M  V30 BEGIN CTAB
M  V30 COUNTS 26 27 0 0 0
M  V30 BEGIN ATOM
M  V30 1 O 1.7596 -0.7995 -1.8397 0
M  V30 2 C 2.1206 -0.309 -0.7364 0
M  V30 3 N 1.1414 0.3015 0.1263 0
M  V30 4 C 3.5912 -0.3592 -0.3946 0
M  V30 5 C -0.2691 0.034 0.0404 0
M  V30 6 C 4.2083 0.9467 0.0816 0
M  V30 7 C 3.984 -0.1936 1.0665 0
M  V30 8 C -1.1887 1.0267 0.4071 0
M  V30 9 C -0.7606 -1.2234 -0.348 0
M  V30 10 N -2.5245 0.7794 0.353 0
M  V30 11 C -2.137 -1.4523 -0.3953 0
M  V30 12 C -3.0177 -0.4278 -0.0406 0
M  V30 13 O -4.3957 -0.6581 -0.0899 0
M  V30 14 C -5.3547 0.3335 0.2575 0
M  V30 15 H 1.4436 1.0515 0.7862 0
M  V30 16 H 4.267 -1.0022 -0.9986 0
M  V30 17 H 3.5207 1.8082 0.2097 0
M  V30 18 H 5.2712 1.084 -0.2088 0
M  V30 19 H 4.9168 -0.7242 1.3522 0
M  V30 20 H 3.1687 -0.019 1.7975 0
M  V30 21 H -0.8424 2.0007 0.7278 0
M  V30 22 H -0.0862 -2.0333 -0.5915 0
M  V30 23 H -2.5166 -2.4203 -0.6966 0
M  V30 24 H -6.3742 -0.0872 0.1376 0
M  V30 25 H -5.2155 0.6434 1.315 0
M  V30 26 H -5.2488 1.2152 -0.4094 0
M  V30 END ATOM
M  V30 BEGIN BOND
M  V30 1 2 1 2
M  V30 2 1 2 3
M  V30 3 1 2 4
M  V30 4 1 3 5
M  V30 5 1 4 6
M  V30 6 1 4 7
M  V30 7 2 5 8
M  V30 8 1 5 9
M  V30 9 1 8 10
M  V30 10 2 9 11
M  V30 11 2 10 12
M  V30 12 1 12 13
M  V30 13 1 13 14
M  V30 14 1 6 7
M  V30 15 1 11 12
M  V30 16 1 3 15
M  V30 17 1 4 16
M  V30 18 1 6 17
M  V30 19 1 6 18
M  V30 20 1 7 19
M  V30 21 1 7 20
M  V30 22 1 8 21
M  V30 23 1 9 22
M  V30 24 1 11 23
M  V30 25 1 14 24
M  V30 26 1 14 25
M  V30 27 1 14 26
M  V30 END BOND
M  V30 END CTAB
M  END
>  <Structure No>
8604

>  <LogS>
-2.14

>  <MMFF94 Energy>
22.723

$$$$
Compound 8605
Actelion Java MolfileCreator 2.0

  0  0  0  0  0  0              0 V3000
M  V30 BEGIN CTAB
M  V30 COUNTS 31 32 0 0 0
M  V30 BEGIN ATOM
M  V30 1 Cl 1.504 2.424 2.424 0
M  V30 2 C 1.2378 0.8913 1.5987 0
M  V30 3 C 2.2828 0.1996 0.9619 0
M  V30 4 C -0.0532 0.3582 1.5983 0
M  V30 5 S 3.9291 0.845 0.9478 0
M  V30 6 C 2.0086 -1.0126 0.3147 0
M  V30 7 C -0.3346 -0.8621 0.9602 0
M  V30 8 O 4.8555 -0.0947 0.2271 0
M  V30 9 O 4.4137 1.0127 2.3605 0
M  V30 10 N 3.9414 2.3748 0.1417 0
M  V30 11 C 0.7081 -1.5474 0.2907 0
M  V30 12 N -1.6566 -1.4305 1.0476 0
M  V30 13 C 0.4638 -2.7854 -0.487 0
M  V30 14 C -2.8819 -0.631 1.0416 0
M  V30 15 O 1.3861 -3.6296 -0.6414 0
M  V30 16 O -0.7624 -3.0094 -1.102 0 CHG=-1
M  V30 17 C -2.9456 0.2146 -0.1908 0
M  V30 18 O -2.7544 1.5134 -0.2028 0
M  V30 19 C -3.1728 -0.2443 -1.4721 0
M  V30 20 C -2.8498 1.9371 -1.4421 0
M  V30 21 C -3.1118 0.8709 -2.2795 0
M  V30 22 H -0.8329 0.8928 2.1231 0
M  V30 23 H 2.8076 -1.5318 -0.1992 0
M  V30 24 H 3.6306 2.2043 -0.8408 0
M  V30 25 H 4.9368 2.688 0.0944 0
M  V30 26 H -1.761 -2.4687 1.0951 0
M  V30 27 H -3.7648 -1.3057 1.0621 0
M  V30 28 H -2.9307 0.0058 1.949 0
M  V30 29 H -3.3519 -1.2657 -1.7811 0
M  V30 30 H -2.7357 2.9692 -1.7455 0
M  V30 31 H -3.239 0.9036 -3.3532 0
M  V30 END ATOM
M  V30 BEGIN BOND
M  V30 1 1 1 2
M  V30 2 2 2 3
M  V30 3 1 2 4
M  V30 4 1 3 5
M  V30 5 1 3 6
M  V30 6 2 4 7
M  V30 7 2 5 8
M  V30 8 2 5 9
M  V30 9 1 5 10
M  V30 10 2 6 11
M  V30 11 1 7 12
M  V30 12 1 11 13
M  V30 13 1 12 14
M  V30 14 2 13 15
M  V30 15 1 13 16
M  V30 16 1 14 17
M  V30 17 1 17 18
M  V30 18 2 17 19
M  V30 19 1 18 20
M  V30 20 1 19 21
M  V30 21 1 7 11
M  V30 22 2 20 21
M  V30 23 1 4 22
M  V30 24 1 6 23
M  V30 25 1 10 24
M  V30 26 1 10 25
M  V30 27 1 12 26
M  V30 28 1 14 27
M  V30 29 1 14 28
M  V30 30 1 19 29
M  V30 31 1 20 30
M  V30 32 1 21 31
M  V30 END BOND
M  V30 END CTAB
M  END
>  <Structure No>
8605

>  <LogS>
-3.83

>  <MMFF94 Energy>
-52.573

$$$$
Compound 8606
Actelion Java MolfileCreator 2.0

  0  0  0  0  0  0              0 V3000
M  V30 BEGIN CTAB
M  V30 COUNTS 56 57 0 0 0
M  V30 BEGIN ATOM
M  V30 1 O -6.2881 0.397 -2.3843 0
M  V30 2 C -5.7786 -0.0448 -1.321 0
M  V30 3 O -6.0486 -1.3504 -0.927 0 CHG=-1
M  V30 4 C -4.8495 0.8295 -0.5068 0 CFG=2
M  V30 5 N -3.4525 0.341 -0.5858 0 CHG=1 CFG=2
M  V30 6 C -5.2386 0.8101 0.9681 0
M  V30 7 C -3.3151 -0.608 0.5396 0
M  V30 8 C -2.4675 1.4604 -0.4821 0
M  V30 9 C -4.3548 -0.2496 1.598 0
M  V30 10 C -1.1464 1.2029 -1.2552 0 CFG=1
M  V30 11 N -0.5577 -0.1016 -0.8817 0
M  V30 12 C -1.3577 1.2987 -2.7776 0
M  V30 13 C 0.3943 -0.0015 0.2415 0 CFG=1
M  V30 14 C 0.4527 -1.3307 0.9386 0
M  V30 15 C 1.805 0.4032 -0.2494 0
M  V30 16 O 0.217 -1.4008 2.1758 0
M  V30 17 O 0.7965 -2.476 0.2112 0
M  V30 18 C 2.7621 0.6938 0.9157 0
M  V30 19 C 1.0484 -3.7416 0.8163 0
M  V30 20 C 4.1255 1.0631 0.3978 0
M  V30 21 C 2.4097 -3.7421 1.5029 0
M  V30 22 C 5.0804 0.0641 0.1447 0
M  V30 23 C 4.4358 2.4021 0.1074 0
M  V30 24 C 6.3352 0.404 -0.3701 0
M  V30 25 C 5.692 2.7377 -0.4071 0
M  V30 26 C 6.6414 1.7399 -0.644 0
M  V30 27 H -4.9606 1.8677 -0.8945 0
M  V30 28 H -3.3071 -0.1742 -1.4849 0
M  V30 29 H -6.3185 0.5944 1.1288 0
M  V30 30 H -5.007 1.7996 1.421 0
M  V30 31 H -2.3014 -0.6038 0.9904 0
M  V30 32 H -3.502 -1.6456 0.1806 0
M  V30 33 H -2.886 2.4112 -0.8801 0
M  V30 34 H -2.2314 1.684 0.5831 0
M  V30 35 H -3.8633 0.1486 2.5129 0
M  V30 36 H -4.9546 -1.1456 1.8703 0
M  V30 37 H -0.4545 2.0362 -0.9961 0
M  V30 38 H -0.0805 -0.551 -1.6993 0
M  V30 39 H -0.373 1.2839 -3.2916 0
M  V30 40 H -1.865 2.2505 -3.0428 0
M  V30 41 H -1.9583 0.4491 -3.1614 0
M  V30 42 H 0.0355 0.7575 0.9748 0
M  V30 43 H 2.2287 -0.4066 -0.8849 0
M  V30 44 H 1.7325 1.3151 -0.8799 0
M  V30 45 H 2.3561 1.523 1.536 0
M  V30 46 H 2.848 -0.1988 1.5729 0
M  V30 47 H 0.2468 -3.9901 1.5455 0
M  V30 48 H 1.0483 -4.5188 0.0232 0
M  V30 49 H 3.2028 -3.4777 0.7717 0
M  V30 50 H 2.4236 -3.0069 2.3346 0
M  V30 51 H 2.6204 -4.7513 1.915 0
M  V30 52 H 4.8515 -0.9756 0.3437 0
M  V30 53 H 3.7051 3.1835 0.2772 0
M  V30 54 H 7.069 -0.3685 -0.5596 0
M  V30 55 H 5.9281 3.7712 -0.6254 0
M  V30 56 H 7.6123 2.0014 -1.0441 0
M  V30 END ATOM
M  V30 BEGIN BOND
M  V30 1 2 1 2
M  V30 2 1 2 3
M  V30 3 1 2 4
M  V30 4 1 4 5
M  V30 5 1 4 6
M  V30 6 1 5 7
M  V30 7 1 5 8
M  V30 8 1 6 9
M  V30 9 1 8 10
M  V30 10 1 10 11
M  V30 11 1 10 12
M  V30 12 1 11 13
M  V30 13 1 13 14
M  V30 14 1 13 15
M  V30 15 2 14 16
M  V30 16 1 14 17
M  V30 17 1 15 18
M  V30 18 1 17 19
M  V30 19 1 18 20
M  V30 20 1 19 21
M  V30 21 2 20 22
M  V30 22 1 20 23
M  V30 23 1 22 24
M  V30 24 2 23 25
M  V30 25 2 24 26
M  V30 26 1 7 9
M  V30 27 1 25 26
M  V30 28 1 4 27
M  V30 29 1 5 28
M  V30 30 1 6 29
M  V30 31 1 6 30
M  V30 32 1 7 31
M  V30 33 1 7 32
M  V30 34 1 8 33
M  V30 35 1 8 34
M  V30 36 1 9 35
M  V30 37 1 9 36
M  V30 38 1 10 37
M  V30 39 1 11 38
M  V30 40 1 12 39
M  V30 41 1 12 40
M  V30 42 1 12 41
M  V30 43 1 13 42
M  V30 44 1 15 43
M  V30 45 1 15 44
M  V30 46 1 18 45
M  V30 47 1 18 46
M  V30 48 1 19 47
M  V30 49 1 19 48
M  V30 50 1 21 49
M  V30 51 1 21 50
M  V30 52 1 21 51
M  V30 53 1 22 52
M  V30 54 1 23 53
M  V30 55 1 24 54
M  V30 56 1 25 55
M  V30 57 1 26 56
M  V30 END BOND
M  V30 BEGIN COLLECTION
M  V30 MDLV30/STEABS ATOMS=(4 4 5 10 13)
M  V30 END COLLECTION
M  V30 END CTAB
M  END
>  <Structure No>
8606

>  <LogS>
-1.24

>  <MMFF94 Energy>
85.116

$$$$
Compound 8607
Actelion Java MolfileCreator 2.0

  0  0  0  0  0  0              0 V3000
M  V30 BEGIN CTAB
M  V30 COUNTS 54 55 0 0 0
M  V30 BEGIN ATOM
M  V30 1 O -4.96 0.7188 2.9577 0
M  V30 2 C -5.0549 -0.5104 2.6987 0
M  V30 3 O -5.3099 -1.4101 3.7257 0 CHG=-1
M  V30 4 C -4.9393 -1.0035 1.2822 0 CFG=2
M  V30 5 N -3.8543 -0.3356 0.5735 0
M  V30 6 C -6.2068 -0.6961 0.4813 0
M  V30 7 C -2.4823 -0.3661 1.017 0
M  V30 8 C -4.2879 0.2441 -0.6875 0
M  V30 9 C -5.7276 -0.2127 -0.8838 0
M  V30 10 O -2.1574 -1.1223 1.9737 0
M  V30 11 C -1.4394 0.561 0.4296 0 CFG=2
M  V30 12 N -0.1132 -0.0946 0.4584 0
M  V30 13 C -1.4466 1.8656 1.2378 0
M  V30 14 C 0.9348 0.6695 -0.2598 0 CFG=1
M  V30 15 C 1.6563 1.5931 0.6844 0
M  V30 16 C 1.9479 -0.2633 -0.9662 0
M  V30 17 O 1.8147 1.2698 1.8943 0
M  V30 18 O 2.1823 2.7921 0.196 0
M  V30 19 C 2.6947 -1.2076 -0.0083 0
M  V30 20 C 2.8897 3.7114 1.0211 0
M  V30 21 C 3.5902 -2.1382 -0.781 0
M  V30 22 C 3.3222 4.9102 0.1927 0
M  V30 23 C 4.9059 -1.758 -1.0949 0
M  V30 24 C 3.1001 -3.3703 -1.2453 0
M  V30 25 C 5.7258 -2.6101 -1.8413 0
M  V30 26 C 3.9232 -4.2192 -1.9917 0
M  V30 27 C 5.2357 -3.8405 -2.2874 0
M  V30 28 H -4.7509 -2.0999 1.2806 0
M  V30 29 H -6.8477 -1.5993 0.3832 0
M  V30 30 H -6.8041 0.1139 0.9577 0
M  V30 31 H -3.6579 -0.1262 -1.5251 0
M  V30 32 H -4.2331 1.3526 -0.6272 0
M  V30 33 H -5.7558 -1.0585 -1.6057 0
M  V30 34 H -6.3645 0.6136 -1.2679 0
M  V30 35 H -1.7089 0.7952 -0.6222 0
M  V30 36 H -0.2329 -1.0223 -0.0142 0
M  V30 37 H -2.4817 2.2618 1.3219 0
M  V30 38 H -0.8398 2.6437 0.7309 0
M  V30 39 H -1.0459 1.6931 2.2597 0
M  V30 40 H 0.4788 1.2936 -1.0619 0
M  V30 41 H 1.4042 -0.8665 -1.7269 0
M  V30 42 H 2.6899 0.3583 -1.5153 0
M  V30 43 H 3.3081 -0.6177 0.7061 0
M  V30 44 H 1.9719 -1.8014 0.5914 0
M  V30 45 H 2.2323 4.0549 1.8492 0
M  V30 46 H 3.7885 3.2167 1.4489 0
M  V30 47 H 3.9857 4.58 -0.6344 0
M  V30 48 H 3.8745 5.6295 0.8335 0
M  V30 49 H 2.4312 5.4173 -0.2343 0
M  V30 50 H 5.2946 -0.803 -0.7631 0
M  V30 51 H 2.082 -3.6711 -1.0308 0
M  V30 52 H 6.74 -2.3147 -2.0769 0
M  V30 53 H 3.5426 -5.1693 -2.3436 0
M  V30 54 H 5.871 -4.4981 -2.8662 0
M  V30 END ATOM
M  V30 BEGIN BOND
M  V30 1 2 1 2
M  V30 2 1 2 3
M  V30 3 1 2 4
M  V30 4 1 4 5
M  V30 5 1 4 6
M  V30 6 1 5 7
M  V30 7 1 5 8
M  V30 8 1 6 9
M  V30 9 2 7 10
M  V30 10 1 7 11
M  V30 11 1 11 12
M  V30 12 1 11 13
M  V30 13 1 12 14
M  V30 14 1 14 15
M  V30 15 1 14 16
M  V30 16 2 15 17
M  V30 17 1 15 18
M  V30 18 1 16 19
M  V30 19 1 18 20
M  V30 20 1 19 21
M  V30 21 1 20 22
M  V30 22 2 21 23
M  V30 23 1 21 24
M  V30 24 1 23 25
M  V30 25 2 24 26
M  V30 26 2 25 27
M  V30 27 1 8 9
M  V30 28 1 26 27
M  V30 29 1 4 28
M  V30 30 1 6 29
M  V30 31 1 6 30
M  V30 32 1 8 31
M  V30 33 1 8 32
M  V30 34 1 9 33
M  V30 35 1 9 34
M  V30 36 1 11 35
M  V30 37 1 12 36
M  V30 38 1 13 37
M  V30 39 1 13 38
M  V30 40 1 13 39
M  V30 41 1 14 40
M  V30 42 1 16 41
M  V30 43 1 16 42
M  V30 44 1 19 43
M  V30 45 1 19 44
M  V30 46 1 20 45
M  V30 47 1 20 46
M  V30 48 1 22 47
M  V30 49 1 22 48
M  V30 50 1 22 49
M  V30 51 1 23 50
M  V30 52 1 24 51
M  V30 53 1 25 52
M  V30 54 1 26 53
M  V30 55 1 27 54
M  V30 END BOND
M  V30 BEGIN COLLECTION
M  V30 MDLV30/STEABS ATOMS=(3 4 11 14)
M  V30 END COLLECTION
M  V30 END CTAB
M  END
>  <Structure No>
8607

>  <LogS>
-1.18

>  <MMFF94 Energy>
143.71

$$$$
Compound 8608
Actelion Java MolfileCreator 2.0

  0  0  0  0  0  0              0 V3000
M  V30 BEGIN CTAB
M  V30 COUNTS 46 48 0 0 0
M  V30 BEGIN ATOM
M  V30 1 O -2.5576 0.3194 -1.1183 0
M  V30 2 C -1.8112 -0.8066 -0.666 0 CFG=1
M  V30 3 C -3.8377 0.4847 -0.5132 0 CFG=1
M  V30 4 O -0.9201 -0.3771 0.3552 0
M  V30 5 C -2.6932 -1.9624 -0.1382 0 CFG=1
M  V30 6 C -3.8832 0.0131 0.9629 0 CFG=2
M  V30 7 C -4.2473 1.9594 -0.6529 0
M  V30 8 C 0.4195 -0.7431 0.0854 0
M  V30 9 O -1.8972 -3.0531 0.2484 0
M  V30 10 C -3.547 -1.4983 1.0586 0 CFG=1
M  V30 11 O -5.1472 0.2788 1.5184 0
M  V30 12 O -3.3223 2.7991 -0.0137 0
M  V30 13 C 1.094 0.3037 -0.8089 0
M  V30 14 O -4.7208 -2.2726 1.0983 0
M  V30 15 C 2.5499 -0.0418 -1.0415 0
M  V30 16 C 3.5793 0.2765 -0.1114 0
M  V30 17 C 2.8791 -0.7473 -2.2125 0
M  V30 18 C 4.9203 -0.096 -0.4065 0
M  V30 19 C 3.3201 0.9488 1.1039 0
M  V30 20 C 4.1974 -1.1072 -2.4859 0
M  V30 21 C 5.2144 -0.7807 -1.5928 0
M  V30 22 C 5.9523 0.2157 0.4927 0
M  V30 23 C 4.3597 1.2488 1.9877 0
M  V30 24 C 5.6705 0.8861 1.6827 0
M  V30 25 H -1.2848 -1.1985 -1.5688 0
M  V30 26 H -4.5789 -0.1096 -1.0939 0
M  V30 27 H -3.3741 -2.2788 -0.9647 0
M  V30 28 H -3.1078 0.5847 1.526 0
M  V30 29 H -5.278 2.1256 -0.2627 0
M  V30 30 H -4.2679 2.2223 -1.732 0
M  V30 31 H 0.5051 -1.7626 -0.3575 0
M  V30 32 H 0.9557 -0.7862 1.0563 0
M  V30 33 H -1.5744 -3.4833 -0.586 0
M  V30 34 H -2.9588 -1.6574 1.9951 0
M  V30 35 H -5.0398 0.237 2.5046 0
M  V30 36 H -3.6378 2.9173 0.92 0
M  V30 37 H 0.9916 1.316 -0.3663 0
M  V30 38 H 0.5577 0.3532 -1.7813 0
M  V30 39 H -5.0074 -2.3209 2.0478 0
M  V30 40 H 2.1083 -1.0206 -2.923 0
M  V30 41 H 2.3221 1.2432 1.3931 0
M  V30 42 H 4.4314 -1.6444 -3.3959 0
M  V30 43 H 6.2321 -1.0705 -1.8265 0
M  V30 44 H 6.9772 -0.0621 0.2762 0
M  V30 45 H 4.1465 1.7641 2.9155 0
M  V30 46 H 6.4704 1.1222 2.3726 0
M  V30 END ATOM
M  V30 BEGIN BOND
M  V30 1 1 1 2
M  V30 2 1 1 3
M  V30 3 1 2 4
M  V30 4 1 2 5
M  V30 5 1 3 6
M  V30 6 1 3 7
M  V30 7 1 4 8
M  V30 8 1 5 9
M  V30 9 1 5 10
M  V30 10 1 6 11
M  V30 11 1 7 12
M  V30 12 1 8 13
M  V30 13 1 10 14
M  V30 14 1 13 15
M  V30 15 1 15 16
M  V30 16 2 15 17
M  V30 17 1 16 18
M  V30 18 2 16 19
M  V30 19 1 17 20
M  V30 20 1 18 21
M  V30 21 2 18 22
M  V30 22 1 19 23
M  V30 23 1 22 24
M  V30 24 1 6 10
M  V30 25 2 20 21
M  V30 26 2 23 24
M  V30 27 1 2 25
M  V30 28 1 3 26
M  V30 29 1 5 27
M  V30 30 1 6 28
M  V30 31 1 7 29
M  V30 32 1 7 30
M  V30 33 1 8 31
M  V30 34 1 8 32
M  V30 35 1 9 33
M  V30 36 1 10 34
M  V30 37 1 11 35
M  V30 38 1 12 36
M  V30 39 1 13 37
M  V30 40 1 13 38
M  V30 41 1 14 39
M  V30 42 1 17 40
M  V30 43 1 19 41
M  V30 44 1 20 42
M  V30 45 1 21 43
M  V30 46 1 22 44
M  V30 47 1 23 45
M  V30 48 1 24 46
M  V30 END BOND
M  V30 BEGIN COLLECTION
M  V30 MDLV30/STEABS ATOMS=(5 2 3 5 6 10)
M  V30 END COLLECTION
M  V30 END CTAB
M  END
>  <Structure No>
8608

>  <LogS>
-1.11

>  <MMFF94 Energy>
137.35

$$$$
Compound 8609
Actelion Java MolfileCreator 2.0

  0  0  0  0  0  0              0 V3000
M  V30 BEGIN CTAB
M  V30 COUNTS 27 28 0 0 0
M  V30 BEGIN ATOM
M  V30 1 O -3.3634 -1.7607 -0.96 0
M  V30 2 C -2.4522 -1.2056 -0.2922 0
M  V30 3 N -2.293 -1.3789 1.1002 0
M  V30 4 N -1.4932 -0.3247 -0.8586 0
M  V30 5 C -1.1856 -0.5519 1.4251 0
M  V30 6 C -0.6034 0.1422 0.2123 0 CFG=1
M  V30 7 O -0.7702 -0.4069 2.6056 0
M  V30 8 C 0.8402 -0.3158 -0.0155 0
M  V30 9 C -0.6859 1.6866 0.3307 0
M  V30 10 C 1.2193 -1.0565 -1.158 0
M  V30 11 C 1.8348 -0.006 0.9372 0
M  V30 12 C -2.1153 2.222 0.467 0
M  V30 13 C 2.5452 -1.4619 -1.3376 0
M  V30 14 C 3.158 -0.4148 0.7505 0
M  V30 15 C 3.5132 -1.1409 -0.3858 0
M  V30 16 H -2.8853 -1.9429 1.749 0
M  V30 17 H -1.4865 0.0025 -1.8508 0
M  V30 18 H -0.2272 2.1443 -0.573 0
M  V30 19 H -0.1059 2.0351 1.2117 0
M  V30 20 H 0.5015 -1.3317 -1.9177 0
M  V30 21 H 1.5898 0.5509 1.8316 0
M  V30 22 H -2.0864 3.3277 0.564 0
M  V30 23 H -2.7182 1.9686 -0.4298 0
M  V30 24 H -2.6064 1.8057 1.3714 0
M  V30 25 H 2.8221 -2.0282 -2.2175 0
M  V30 26 H 3.909 -0.1687 1.4901 0
M  V30 27 H 4.5385 -1.4568 -0.5281 0
M  V30 END ATOM
M  V30 BEGIN BOND
M  V30 1 2 1 2
M  V30 2 1 2 3
M  V30 3 1 2 4
M  V30 4 1 3 5
M  V30 5 1 4 6
M  V30 6 2 5 7
M  V30 7 1 6 8
M  V30 8 1 6 9
M  V30 9 2 8 10
M  V30 10 1 8 11
M  V30 11 1 9 12
M  V30 12 1 10 13
M  V30 13 2 11 14
M  V30 14 2 13 15
M  V30 15 1 5 6
M  V30 16 1 14 15
M  V30 17 1 3 16
M  V30 18 1 4 17
M  V30 19 1 9 18
M  V30 20 1 9 19
M  V30 21 1 10 20
M  V30 22 1 11 21
M  V30 23 1 12 22
M  V30 24 1 12 23
M  V30 25 1 12 24
M  V30 26 1 13 25
M  V30 27 1 14 26
M  V30 28 1 15 27
M  V30 END BOND
M  V30 BEGIN COLLECTION
M  V30 MDLV30/STEABS ATOMS=(1 6)
M  V30 END COLLECTION
M  V30 END CTAB
M  END
>  <Structure No>
8609

>  <LogS>
-2.64

>  <MMFF94 Energy>
-35.802

$$$$
Compound 8610
Actelion Java MolfileCreator 2.0

  0  0  0  0  0  0              0 V3000
M  V30 BEGIN CTAB
M  V30 COUNTS 30 31 0 0 0
M  V30 BEGIN ATOM
M  V30 1 O 0.638 -0.5582 1.037 0
M  V30 2 C 0.4241 0.289 -0.0766 0 CFG=1
M  V30 3 C 1.7484 -1.4102 0.7994 0
M  V30 4 O -0.8399 0.9374 0.0598 0
M  V30 5 C 1.5371 1.3631 -0.1497 0 CFG=2
M  V30 6 C 3.0055 -0.6543 0.2949 0 CFG=1
M  V30 7 C -2.0833 0.2864 0.0404 0
M  V30 8 O 1.78 1.7012 -1.492 0
M  V30 9 C 2.8413 0.8589 0.5151 0 CFG=1
M  V30 10 O 4.142 -1.1251 0.9738 0
M  V30 11 C -2.21 -1.1041 -0.1541 0
M  V30 12 C -3.239 1.0582 0.2197 0
M  V30 13 O 3.958 1.5412 0.0042 0
M  V30 14 C -3.4752 -1.7005 -0.1645 0
M  V30 15 C -4.502 0.4583 0.2085 0
M  V30 16 C -4.62 -0.9203 0.0167 0
M  V30 17 H 0.4141 -0.2996 -1.0259 0
M  V30 18 H 1.4656 -2.2081 0.0768 0
M  V30 19 H 1.9836 -1.9226 1.757 0
M  V30 20 H 1.2163 2.275 0.4076 0
M  V30 21 H 3.1114 -0.8481 -0.7995 0
M  V30 22 H 1.0072 2.2474 -1.7928 0
M  V30 23 H 2.7748 1.0353 1.6156 0
M  V30 24 H 4.9284 -0.9045 0.4093 0
M  V30 25 H -1.342 -1.7319 -0.2986 0
M  V30 26 H -3.1568 2.1275 0.3691 0
M  V30 27 H 3.9203 2.463 0.3714 0
M  V30 28 H -3.568 -2.7685 -0.3139 0
M  V30 29 H -5.3891 1.0626 0.3485 0
M  V30 30 H -5.5981 -1.384 0.0081 0
M  V30 END ATOM
M  V30 BEGIN BOND
M  V30 1 1 1 2
M  V30 2 1 1 3
M  V30 3 1 2 4
M  V30 4 1 2 5
M  V30 5 1 3 6
M  V30 6 1 4 7
M  V30 7 1 5 8
M  V30 8 1 5 9
M  V30 9 1 6 10
M  V30 10 2 7 11
M  V30 11 1 7 12
M  V30 12 1 9 13
M  V30 13 1 11 14
M  V30 14 2 12 15
M  V30 15 2 14 16
M  V30 16 1 6 9
M  V30 17 1 15 16
M  V30 18 1 2 17
M  V30 19 1 3 18
M  V30 20 1 3 19
M  V30 21 1 5 20
M  V30 22 1 6 21
M  V30 23 1 8 22
M  V30 24 1 9 23
M  V30 25 1 10 24
M  V30 26 1 11 25
M  V30 27 1 12 26
M  V30 28 1 13 27
M  V30 29 1 14 28
M  V30 30 1 15 29
M  V30 31 1 16 30
M  V30 END BOND
M  V30 BEGIN COLLECTION
M  V30 MDLV30/STEABS ATOMS=(4 2 5 6 9)
M  V30 END COLLECTION
M  V30 END CTAB
M  END
>  <Structure No>
8610

>  <LogS>
-1.66

>  <MMFF94 Energy>
104.94

$$$$
Compound 8611
Actelion Java MolfileCreator 2.0

  0  0  0  0  0  0              0 V3000
M  V30 BEGIN CTAB
M  V30 COUNTS 35 36 0 0 0
M  V30 BEGIN ATOM
M  V30 1 O 0.564 -0.4028 -2.0963 0
M  V30 2 C -0.4229 0.1226 -1.5114 0
M  V30 3 O -0.2766 1.3539 -0.8592 0
M  V30 4 C -1.7541 -0.5291 -1.594 0
M  V30 5 C 0.9232 2.1312 -0.889 0
M  V30 6 C -2.7662 -0.3518 -0.6097 0
M  V30 7 C -2.0493 -1.2895 -2.7423 0
M  V30 8 C 1.9331 1.6827 0.1792 0 CFG=2
M  V30 9 C -2.5248 0.3249 0.6812 0
M  V30 10 C -4.0467 -0.8887 -0.8346 0
M  V30 11 C -3.3202 -1.8335 -2.9342 0
M  V30 12 O 2.2922 0.3497 -0.0113 0
M  V30 13 C 1.4003 1.7961 1.5895 0
M  V30 14 O -1.4458 0.1503 1.3042 0
M  V30 15 O -3.5215 1.1062 1.2548 0 CHG=-1
M  V30 16 C -4.3191 -1.626 -1.9866 0
M  V30 17 C 2.2774 -0.2435 1.2673 0
M  V30 18 O 1.535 0.5379 2.1769 0
M  V30 19 C 1.6265 -1.6251 1.1578 0
M  V30 20 C 3.7184 -0.3866 1.7787 0
M  V30 21 H 1.3888 2.0837 -1.8975 0
M  V30 22 H 0.6573 3.1936 -0.7018 0
M  V30 23 H -1.3028 -1.4386 -3.5126 0
M  V30 24 H 2.8473 2.3102 0.0797 0
M  V30 25 H -4.8307 -0.7696 -0.0971 0
M  V30 26 H -3.5334 -2.409 -3.8261 0
M  V30 27 H 0.3332 2.1038 1.6209 0
M  V30 28 H 1.9924 2.5359 2.1713 0
M  V30 29 H -5.3052 -2.0457 -2.1395 0
M  V30 30 H 1.5924 -2.1194 2.1527 0
M  V30 31 H 2.1979 -2.2675 0.4539 0
M  V30 32 H 0.5889 -1.5293 0.7758 0
M  V30 33 H 4.1946 0.6139 1.8629 0
M  V30 34 H 3.7289 -0.8646 2.7817 0
M  V30 35 H 4.3199 -1.0031 1.0759 0
M  V30 END ATOM
M  V30 BEGIN BOND
M  V30 1 2 1 2
M  V30 2 1 2 3
M  V30 3 1 2 4
M  V30 4 1 3 5
M  V30 5 2 4 6
M  V30 6 1 4 7
M  V30 7 1 5 8
M  V30 8 1 6 9
M  V30 9 1 6 10
M  V30 10 2 7 11
M  V30 11 1 8 12
M  V30 12 1 8 13
M  V30 13 2 9 14
M  V30 14 1 9 15
M  V30 15 2 10 16
M  V30 16 1 12 17
M  V30 17 1 13 18
M  V30 18 1 17 19
M  V30 19 1 17 20
M  V30 20 1 11 16
M  V30 21 1 17 18
M  V30 22 1 5 21
M  V30 23 1 5 22
M  V30 24 1 7 23
M  V30 25 1 8 24
M  V30 26 1 10 25
M  V30 27 1 11 26
M  V30 28 1 13 27
M  V30 29 1 13 28
M  V30 30 1 16 29
M  V30 31 1 19 30
M  V30 32 1 19 31
M  V30 33 1 19 32
M  V30 34 1 20 33
M  V30 35 1 20 34
M  V30 36 1 20 35
M  V30 END BOND
M  V30 BEGIN COLLECTION
M  V30 MDLV30/STEABS ATOMS=(1 8)
M  V30 END COLLECTION
M  V30 END CTAB
M  END
>  <Structure No>
8611

>  <LogS>
-1.23

>  <MMFF94 Energy>
56.205

$$$$
Compound 8612
Actelion Java MolfileCreator 2.0

  0  0  0  0  0  0              0 V3000
M  V30 BEGIN CTAB
M  V30 COUNTS 33 34 0 0 0
M  V30 BEGIN ATOM
M  V30 1 O -1.2895 3.2261 1.3701 0
M  V30 2 C -1.4855 2.0031 1.1465 0
M  V30 3 N -0.5457 0.9981 1.446 0
M  V30 4 N -2.681 1.4944 0.6048 0
M  V30 5 C -1.1265 -0.2906 1.0789 0 CFG=1
M  V30 6 C -2.5872 0.0387 0.6089 0 CFG=2
M  V30 7 C -0.2883 -1.0047 -0.0162 0 CFG=1
M  V30 8 C -2.9425 -0.5339 -0.7729 0
M  V30 9 C -0.4373 -0.2971 -1.3816 0
M  V30 10 C 1.1866 -1.26 0.4052 0
M  V30 11 C -1.9052 -0.1699 -1.8478 0
M  V30 12 C 2.1911 -0.1556 0.0211 0
M  V30 13 C 3.56 -0.4146 0.6576 0
M  V30 14 C 4.5366 0.6431 0.2507 0
M  V30 15 O 4.6469 1.6983 0.929 0
M  V30 16 O 5.2895 0.4864 -0.906 0 CHG=-1
M  V30 17 H 0.3089 1.1361 2.0294 0
M  V30 18 H -3.5362 2.0532 0.3875 0
M  V30 19 H -1.1712 -0.9355 1.9845 0
M  V30 20 H -3.311 -0.3578 1.3549 0
M  V30 21 H -0.7341 -2.0188 -0.1309 0
M  V30 22 H -3.943 -0.1629 -1.0851 0
M  V30 23 H -3.017 -1.6404 -0.6957 0
M  V30 24 H -0.0052 0.725 -1.3179 0
M  V30 25 H 0.1399 -0.8557 -2.1505 0
M  V30 26 H 1.2251 -1.4355 1.503 0
M  V30 27 H 1.5276 -2.2034 -0.0763 0
M  V30 28 H -2.089 0.874 -2.1849 0
M  V30 29 H -2.0706 -0.8267 -2.7295 0
M  V30 30 H 1.8261 0.8396 0.3445 0
M  V30 31 H 2.3106 -0.1375 -1.0843 0
M  V30 32 H 3.4666 -0.4218 1.7658 0
M  V30 33 H 3.9445 -1.4064 0.3349 0
M  V30 END ATOM
M  V30 BEGIN BOND
M  V30 1 2 1 2
M  V30 2 1 2 3
M  V30 3 1 2 4
M  V30 4 1 3 5
M  V30 5 1 4 6
M  V30 6 1 5 7
M  V30 7 1 6 8
M  V30 8 1 7 9
M  V30 9 1 7 10
M  V30 10 1 8 11
M  V30 11 1 10 12
M  V30 12 1 12 13
M  V30 13 1 13 14
M  V30 14 2 14 15
M  V30 15 1 14 16
M  V30 16 1 5 6
M  V30 17 1 9 11
M  V30 18 1 3 17
M  V30 19 1 4 18
M  V30 20 1 5 19
M  V30 21 1 6 20
M  V30 22 1 7 21
M  V30 23 1 8 22
M  V30 24 1 8 23
M  V30 25 1 9 24
M  V30 26 1 9 25
M  V30 27 1 10 26
M  V30 28 1 10 27
M  V30 29 1 11 28
M  V30 30 1 11 29
M  V30 31 1 12 30
M  V30 32 1 12 31
M  V30 33 1 13 32
M  V30 34 1 13 33
M  V30 END BOND
M  V30 BEGIN COLLECTION
M  V30 MDLV30/STEABS ATOMS=(3 5 6 7)
M  V30 END COLLECTION
M  V30 END CTAB
M  END
>  <Structure No>
8612

>  <LogS>
-0.96

>  <MMFF94 Energy>
-42.926

$$$$
Compound 8613
Actelion Java MolfileCreator 2.0

  0  0  0  0  0  0              0 V3000
M  V30 BEGIN CTAB
M  V30 COUNTS 27 28 0 0 0
M  V30 BEGIN ATOM
M  V30 1 O 1.6631 2.4559 -0.4749 0
M  V30 2 C 1.862 1.4617 0.2726 0
M  V30 3 O 1.5985 1.5644 1.6327 0 CHG=-1
M  V30 4 C 2.3446 0.1549 -0.303 0 CFG=2
M  V30 5 N 3.5304 0.3725 -1.1405 0 CHG=1
M  V30 6 C 1.2305 -0.5375 -1.1135 0
M  V30 7 C 0.08 -0.9462 -0.2374 0
M  V30 8 C -1.0883 -0.2499 0.008 0
M  V30 9 C 0.0233 -2.0747 0.575 0
M  V30 10 C -1.7966 -0.9777 0.9303 0
M  V30 11 C -1.5673 0.96 -0.4961 0
M  V30 12 N -1.1298 -2.0909 1.2815 0
M  V30 13 C -3.0332 -0.5477 1.4099 0
M  V30 14 C -2.8135 1.4177 -0.0309 0
M  V30 15 C -3.5435 0.6671 0.9172 0
M  V30 16 H 2.6337 -0.5133 0.5403 0
M  V30 17 H 3.2918 0.9546 -1.9766 0
M  V30 18 H 4.2743 0.8549 -0.5851 0
M  V30 19 H 3.909 -0.5477 -1.4626 0
M  V30 20 H 0.8728 0.1298 -1.9271 0
M  V30 21 H 1.6406 -1.4511 -1.5956 0
M  V30 22 H 0.7902 -2.8341 0.6536 0
M  V30 23 H -1.0041 1.533 -1.2205 0
M  V30 24 H -1.4308 -2.816 1.9701 0
M  V30 25 H -3.583 -1.1274 2.1402 0
M  V30 26 H -3.215 2.3519 -0.4013 0
M  V30 27 H -4.5006 1.0299 1.2687 0
M  V30 END ATOM
M  V30 BEGIN BOND
M  V30 1 2 1 2
M  V30 2 1 2 3
M  V30 3 1 2 4
M  V30 4 1 4 5
M  V30 5 1 4 6
M  V30 6 1 6 7
M  V30 7 1 7 8
M  V30 8 2 7 9
M  V30 9 2 8 10
M  V30 10 1 8 11
M  V30 11 1 9 12
M  V30 12 1 10 13
M  V30 13 2 11 14
M  V30 14 2 13 15
M  V30 15 1 10 12
M  V30 16 1 14 15
M  V30 17 1 4 16
M  V30 18 1 5 17
M  V30 19 1 5 18
M  V30 20 1 5 19
M  V30 21 1 6 20
M  V30 22 1 6 21
M  V30 23 1 9 22
M  V30 24 1 11 23
M  V30 25 1 12 24
M  V30 26 1 13 25
M  V30 27 1 14 26
M  V30 28 1 15 27
M  V30 END BOND
M  V30 BEGIN COLLECTION
M  V30 MDLV30/STEABS ATOMS=(1 4)
M  V30 END COLLECTION
M  V30 END CTAB
M  END
>  <Structure No>
8613

>  <LogS>
-1.77

>  <MMFF94 Energy>
4.1761

$$$$
Compound 8614
Actelion Java MolfileCreator 2.0

  0  0  0  0  0  0              0 V3000
M  V30 BEGIN CTAB
M  V30 COUNTS 20 20 0 0 0
M  V30 BEGIN ATOM
M  V30 1 O 5.0273 -0.1593 1.1952 0
M  V30 2 N 4.6186 -0.409 0.0433 0 CHG=1
M  V30 3 O 5.5264 -0.6675 -0.957 0 CHG=-1
M  V30 4 C 3.2162 -0.4253 -0.23 0
M  V30 5 O 2.2931 -0.1884 0.6728 0
M  V30 6 C 2.642 -0.687 -1.4582 0
M  V30 7 C 1.1212 -0.2835 0.088 0
M  V30 8 C 1.2811 -0.5951 -1.252 0
M  V30 9 C -0.1518 -0.0817 0.7873 0
M  V30 10 N -1.2768 -0.1896 0.1531 0
M  V30 11 N -2.5094 -0.0015 0.798 0
M  V30 12 C -3.7311 -0.1281 0.0677 0
M  V30 13 O -3.7081 -0.4095 -1.1602 0
M  V30 14 N -4.9825 0.0635 0.7256 0
M  V30 15 H 3.147 -0.916 -2.3871 0
M  V30 16 H 0.503 -0.7382 -1.9902 0
M  V30 17 H -0.1376 0.1592 1.8435 0
M  V30 18 H -2.5447 0.2325 1.8166 0
M  V30 19 H -5.8773 -0.0282 0.1952 0
M  V30 20 H -5.0175 0.297 1.7426 0
M  V30 END ATOM
M  V30 BEGIN BOND
M  V30 1 2 1 2
M  V30 2 1 2 3
M  V30 3 1 2 4
M  V30 4 1 4 5
M  V30 5 2 4 6
M  V30 6 1 5 7
M  V30 7 1 6 8
M  V30 8 1 7 9
M  V30 9 2 9 10
M  V30 10 1 10 11
M  V30 11 1 11 12
M  V30 12 2 12 13
M  V30 13 1 12 14
M  V30 14 2 7 8
M  V30 15 1 6 15
M  V30 16 1 8 16
M  V30 17 1 9 17
M  V30 18 1 11 18
M  V30 19 1 14 19
M  V30 20 1 14 20
M  V30 END BOND
M  V30 END CTAB
M  END
>  <Structure No>
8614

>  <LogS>
-2.92

>  <MMFF94 Energy>
19.295

$$$$
Compound 8615
Actelion Java MolfileCreator 2.0

  0  0  0  0  0  0              0 V3000
M  V30 BEGIN CTAB
M  V30 COUNTS 34 34 0 0 0
M  V30 BEGIN ATOM
M  V30 1 O -4.5408 2.1489 -1.0342 0
M  V30 2 C -3.4274 1.6225 -0.7708 0
M  V30 3 N -2.2442 2.4104 -0.7899 0
M  V30 4 N -3.3482 0.2351 -0.4731 0
M  V30 5 C -0.9754 1.8641 -0.4183 0
M  V30 6 C -2.0935 -0.3905 -0.1958 0
M  V30 7 O 0.0238 2.6318 -0.4241 0
M  V30 8 C -0.8235 0.4243 0.0869 0
M  V30 9 O -2.0564 -1.65 -0.1365 0
M  V30 10 C 0.4066 -0.2844 -0.6276 0 CFG=2
M  V30 11 C -0.6761 0.5208 1.6404 0
M  V30 12 C 1.8065 0.31 -0.2738 0
M  V30 13 C 0.2206 -0.3088 -2.1637 0
M  V30 14 C -0.3496 -0.7922 2.361 0
M  V30 15 C 2.9872 -0.6477 -0.5341 0
M  V30 16 C 3.0973 -1.76 0.5091 0
M  V30 17 H -2.3071 3.417 -1.0642 0
M  V30 18 H -4.2132 -0.3489 -0.5247 0
M  V30 19 H 0.4087 -1.345 -0.3035 0
M  V30 20 H -1.6272 0.9111 2.0682 0
M  V30 21 H 0.0955 1.2694 1.9193 0
M  V30 22 H 1.8615 0.6234 0.7855 0
M  V30 23 H 1.9858 1.2231 -0.88 0
M  V30 24 H 0.2988 0.7136 -2.5897 0
M  V30 25 H -0.7669 -0.7293 -2.4432 0
M  V30 26 H 0.9846 -0.9493 -2.6472 0
M  V30 27 H 0.6229 -1.2025 2.028 0
M  V30 28 H -0.2772 -0.5985 3.4519 0
M  V30 29 H -1.1469 -1.5459 2.2057 0
M  V30 30 H 3.927 -0.0548 -0.4959 0
M  V30 31 H 2.9304 -1.0945 -1.5468 0
M  V30 32 H 3.1429 -1.3307 1.5324 0
M  V30 33 H 4.028 -2.339 0.3315 0
M  V30 34 H 2.2406 -2.4604 0.4382 0
M  V30 END ATOM
M  V30 BEGIN BOND
M  V30 1 2 1 2
M  V30 2 1 2 3
M  V30 3 1 2 4
M  V30 4 1 3 5
M  V30 5 1 4 6
M  V30 6 2 5 7
M  V30 7 1 5 8
M  V30 8 2 6 9
M  V30 9 1 8 10
M  V30 10 1 8 11
M  V30 11 1 10 12
M  V30 12 1 10 13
M  V30 13 1 11 14
M  V30 14 1 12 15
M  V30 15 1 15 16
M  V30 16 1 6 8
M  V30 17 1 3 17
M  V30 18 1 4 18
M  V30 19 1 10 19
M  V30 20 1 11 20
M  V30 21 1 11 21
M  V30 22 1 12 22
M  V30 23 1 12 23
M  V30 24 1 13 24
M  V30 25 1 13 25
M  V30 26 1 13 26
M  V30 27 1 14 27
M  V30 28 1 14 28
M  V30 29 1 14 29
M  V30 30 1 15 30
M  V30 31 1 15 31
M  V30 32 1 16 32
M  V30 33 1 16 33
M  V30 34 1 16 34
M  V30 END BOND
M  V30 BEGIN COLLECTION
M  V30 MDLV30/STEABS ATOMS=(1 10)
M  V30 END COLLECTION
M  V30 END CTAB
M  END
>  <Structure No>
8615

>  <LogS>
-2.39

>  <MMFF94 Energy>
-118.45

$$$$
Compound 8616
Actelion Java MolfileCreator 2.0

  0  0  0  0  0  0              0 V3000
M  V30 BEGIN CTAB
M  V30 COUNTS 43 44 0 0 0
M  V30 BEGIN ATOM
M  V30 1 O -4.9525 -0.8773 -0.2392 0
M  V30 2 C -3.9104 -0.3334 0.2164 0
M  V30 3 N -3.8261 1.096 0.2346 0
M  V30 4 C -2.8437 -1.1832 0.7973 0
M  V30 5 C -2.6089 1.7821 0.6519 0 CFG=1
M  V30 6 C -1.4545 -0.9527 0.5741 0
M  V30 7 C -3.2435 -2.2647 1.6039 0
M  V30 8 C -1.5214 1.4158 -0.3178 0
M  V30 9 C -2.8415 3.2969 0.7357 0
M  V30 10 N -0.9746 0.078 -0.3318 0
M  V30 11 C -0.5233 -1.8108 1.1968 0
M  V30 12 C -2.3003 -3.095 2.2059 0
M  V30 13 O -1.1555 2.2552 -1.1868 0
M  V30 14 C 0.0902 -0.2521 -1.2982 0
M  V30 15 C -0.9433 -2.8652 2.0071 0
M  V30 16 C 1.4624 0.3146 -0.8517 0 CFG=2
M  V30 17 O 1.5591 1.6929 -1.116 0
M  V30 18 C 2.6424 -0.4691 -1.4899 0 CFG=1
M  V30 19 O 2.4836 -0.5597 -2.886 0
M  V30 20 C 4.0463 0.1048 -1.1354 0 CFG=2
M  V30 21 O 5.0377 -0.5822 -1.8584 0
M  V30 22 C 4.3689 0.0422 0.3708 0
M  V30 23 O 3.7364 1.0914 1.0505 0
M  V30 24 H -4.6496 1.6465 -0.101 0
M  V30 25 H -2.3223 1.4375 1.6698 0
M  V30 26 H -4.2945 -2.4575 1.7835 0
M  V30 27 H -3.6275 3.5148 1.4898 0
M  V30 28 H -1.9065 3.8104 1.0468 0
M  V30 29 H -3.17 3.7016 -0.2457 0
M  V30 30 H 0.5381 -1.6755 1.0535 0
M  V30 31 H -2.6235 -3.9176 2.831 0
M  V30 32 H 0.1577 -1.3566 -1.4143 0
M  V30 33 H -0.18 0.1329 -2.3056 0
M  V30 34 H -0.2122 -3.5118 2.475 0
M  V30 35 H 1.5334 0.1879 0.2468 0
M  V30 36 H 1.4286 1.8282 -2.0898 0
M  V30 37 H 2.5977 -1.5079 -1.0936 0
M  V30 38 H 2.6821 0.3311 -3.2753 0
M  V30 39 H 4.092 1.169 -1.4547 0
M  V30 40 H 5.0132 -1.5325 -1.5701 0
M  V30 41 H 4.0502 -0.9375 0.7926 0
M  V30 42 H 5.469 0.1392 0.5106 0
M  V30 43 H 3.9566 0.9707 2.0106 0
M  V30 END ATOM
M  V30 BEGIN BOND
M  V30 1 2 1 2
M  V30 2 1 2 3
M  V30 3 1 2 4
M  V30 4 1 3 5
M  V30 5 2 4 6
M  V30 6 1 4 7
M  V30 7 1 5 8
M  V30 8 1 5 9
M  V30 9 1 6 10
M  V30 10 1 6 11
M  V30 11 2 7 12
M  V30 12 2 8 13
M  V30 13 1 10 14
M  V30 14 2 11 15
M  V30 15 1 14 16
M  V30 16 1 16 17
M  V30 17 1 16 18
M  V30 18 1 18 19
M  V30 19 1 18 20
M  V30 20 1 20 21
M  V30 21 1 20 22
M  V30 22 1 22 23
M  V30 23 1 8 10
M  V30 24 1 12 15
M  V30 25 1 3 24
M  V30 26 1 5 25
M  V30 27 1 7 26
M  V30 28 1 9 27
M  V30 29 1 9 28
M  V30 30 1 9 29
M  V30 31 1 11 30
M  V30 32 1 12 31
M  V30 33 1 14 32
M  V30 34 1 14 33
M  V30 35 1 15 34
M  V30 36 1 16 35
M  V30 37 1 17 36
M  V30 38 1 18 37
M  V30 39 1 19 38
M  V30 40 1 20 39
M  V30 41 1 21 40
M  V30 42 1 22 41
M  V30 43 1 22 42
M  V30 44 1 23 43
M  V30 END BOND
M  V30 BEGIN COLLECTION
M  V30 MDLV30/STEABS ATOMS=(4 5 16 18 20)
M  V30 END COLLECTION
M  V30 END CTAB
M  END
>  <Structure No>
8616

>  <LogS>
-1.51

>  <MMFF94 Energy>
120.84

$$$$
Compound 8617
Actelion Java MolfileCreator 2.0

  0  0  0  0  0  0              0 V3000
M  V30 BEGIN CTAB
M  V30 COUNTS 40 41 0 0 0
M  V30 BEGIN ATOM
M  V30 1 O -4.5571 -0.0798 -2.0767 0
M  V30 2 C -3.8838 -0.402 -1.0609 0
M  V30 3 N -3.857 -1.7743 -0.6547 0
M  V30 4 C -3.21 0.6556 -0.2706 0
M  V30 5 C -3.0353 -2.2301 0.4535 0
M  V30 6 C -1.8986 0.5092 0.2695 0
M  V30 7 C -3.9136 1.8561 -0.0599 0
M  V30 8 C -1.6055 -1.9974 0.1009 0
M  V30 9 N -1.074 -0.6574 3.0E-4 0
M  V30 10 C -1.3598 1.5749 1.021 0
M  V30 11 C -3.3555 2.8906 0.6882 0
M  V30 12 O -0.8888 -2.9928 -0.1904 0
M  V30 13 C 0.3284 -0.4657 -0.417 0
M  V30 14 C -2.0832 2.7482 1.2315 0
M  V30 15 C 1.3191 -0.7565 0.7436 0 CFG=1
M  V30 16 O 1.4501 -2.1392 0.963 0
M  V30 17 C 2.7254 -0.0979 0.5903 0 CFG=2
M  V30 18 O 2.6905 1.2737 0.9052 0
M  V30 19 C 3.4404 -0.3537 -0.7703 0 CFG=1
M  V30 20 O 2.7838 0.2909 -1.8345 0
M  V30 21 C 4.9251 0.0614 -0.7326 0
M  V30 22 O 5.6527 -0.7747 0.1282 0
M  V30 23 H -4.4174 -2.4748 -1.1909 0
M  V30 24 H -3.2162 -3.3126 0.6325 0
M  V30 25 H -3.3017 -1.6797 1.3813 0
M  V30 26 H -4.9104 1.9875 -0.4641 0
M  V30 27 H -0.3698 1.5093 1.4451 0
M  V30 28 H -3.9128 3.8047 0.8487 0
M  V30 29 H 0.456 0.5716 -0.7889 0
M  V30 30 H 0.5525 -1.1217 -1.2861 0
M  V30 31 H -1.6508 3.5535 1.8114 0
M  V30 32 H 0.8832 -0.3413 1.676 0
M  V30 33 H 1.7884 -2.5509 0.127 0
M  V30 34 H 3.3518 -0.5729 1.3763 0
M  V30 35 H 2.0306 1.7136 0.3125 0
M  V30 36 H 3.4201 -1.4427 -0.9834 0
M  V30 37 H 2.9549 1.2655 -1.7575 0
M  V30 38 H 5.3512 -0.0427 -1.7531 0
M  V30 39 H 5.0283 1.1328 -0.4402 0
M  V30 40 H 5.7168 -0.3079 1.0018 0
M  V30 END ATOM
M  V30 BEGIN BOND
M  V30 1 2 1 2
M  V30 2 1 2 3
M  V30 3 1 2 4
M  V30 4 1 3 5
M  V30 5 2 4 6
M  V30 6 1 4 7
M  V30 7 1 5 8
M  V30 8 1 6 9
M  V30 9 1 6 10
M  V30 10 2 7 11
M  V30 11 2 8 12
M  V30 12 1 9 13
M  V30 13 2 10 14
M  V30 14 1 13 15
M  V30 15 1 15 16
M  V30 16 1 15 17
M  V30 17 1 17 18
M  V30 18 1 17 19
M  V30 19 1 19 20
M  V30 20 1 19 21
M  V30 21 1 21 22
M  V30 22 1 8 9
M  V30 23 1 11 14
M  V30 24 1 3 23
M  V30 25 1 5 24
M  V30 26 1 5 25
M  V30 27 1 7 26
M  V30 28 1 10 27
M  V30 29 1 11 28
M  V30 30 1 13 29
M  V30 31 1 13 30
M  V30 32 1 14 31
M  V30 33 1 15 32
M  V30 34 1 16 33
M  V30 35 1 17 34
M  V30 36 1 18 35
M  V30 37 1 19 36
M  V30 38 1 20 37
M  V30 39 1 21 38
M  V30 40 1 21 39
M  V30 41 1 22 40
M  V30 END BOND
M  V30 BEGIN COLLECTION
M  V30 MDLV30/STEABS ATOMS=(3 15 17 19)
M  V30 END COLLECTION
M  V30 END CTAB
M  END
>  <Structure No>
8617

>  <LogS>
-1.46

>  <MMFF94 Energy>
113.66

$$$$
Compound 8618
Actelion Java MolfileCreator 2.0

  0  0  0  0  0  0              0 V3000
M  V30 BEGIN CTAB
M  V30 COUNTS 30 30 0 0 0
M  V30 BEGIN ATOM
M  V30 1 O 4.5345 -0.9533 -1.6687 0
M  V30 2 C 3.6228 -0.0884 -1.742 0
M  V30 3 O 3.6043 0.7912 -2.8171 0 CHG=-1
M  V30 4 C 2.5818 -0.0017 -0.7042 0
M  V30 5 C 2.4303 -0.7845 0.4315 0
M  V30 6 C 1.5387 0.9019 -0.6854 0
M  V30 7 O 1.3705 -0.3916 1.1003 0
M  V30 8 C 3.3065 -1.9129 0.8689 0
M  V30 9 C 0.8162 0.6133 0.4598 0
M  V30 10 C -0.4375 1.3072 0.9286 0 CFG=1
M  V30 11 O -0.2311 2.6965 1.0012 0
M  V30 12 C -1.6829 0.9742 0.0662 0 CFG=1
M  V30 13 O -1.436 1.2866 -1.2831 0
M  V30 14 C -2.1254 -0.5085 0.2152 0 CFG=2
M  V30 15 O -1.1527 -1.3896 -0.2901 0
M  V30 16 C -3.4866 -0.7918 -0.4476 0
M  V30 17 O -4.5099 -0.0744 0.1906 0
M  V30 18 H 1.3277 1.6702 -1.4177 0
M  V30 19 H 4.341 -1.5448 1.0301 0
M  V30 20 H 2.9261 -2.3403 1.8202 0
M  V30 21 H 3.3087 -2.7083 0.0949 0
M  V30 22 H -0.6409 0.9614 1.9654 0
M  V30 23 H -0.1207 3.0392 0.0764 0
M  V30 24 H -2.5046 1.6199 0.4578 0
M  V30 25 H -2.2968 1.5825 -1.679 0
M  V30 26 H -2.2408 -0.7272 1.2996 0
M  V30 27 H -1.0834 -1.2362 -1.2684 0
M  V30 28 H -3.4532 -0.5654 -1.5385 0
M  V30 29 H -3.7121 -1.8748 -0.3472 0
M  V30 30 H -4.6382 0.7655 -0.3224 0
M  V30 END ATOM
M  V30 BEGIN BOND
M  V30 1 2 1 2
M  V30 2 1 2 3
M  V30 3 1 2 4
M  V30 4 2 4 5
M  V30 5 1 4 6
M  V30 6 1 5 7
M  V30 7 1 5 8
M  V30 8 2 6 9
M  V30 9 1 9 10
M  V30 10 1 10 11
M  V30 11 1 10 12
M  V30 12 1 12 13
M  V30 13 1 12 14
M  V30 14 1 14 15
M  V30 15 1 14 16
M  V30 16 1 16 17
M  V30 17 1 7 9
M  V30 18 1 6 18
M  V30 19 1 8 19
M  V30 20 1 8 20
M  V30 21 1 8 21
M  V30 22 1 10 22
M  V30 23 1 11 23
M  V30 24 1 12 24
M  V30 25 1 13 25
M  V30 26 1 14 26
M  V30 27 1 15 27
M  V30 28 1 16 28
M  V30 29 1 16 29
M  V30 30 1 17 30
M  V30 END BOND
M  V30 BEGIN COLLECTION
M  V30 MDLV30/STEABS ATOMS=(3 10 12 14)
M  V30 END COLLECTION
M  V30 END CTAB
M  END
>  <Structure No>
8618

>  <LogS>
-1.28

>  <MMFF94 Energy>
75.627

$$$$
Compound 8619
Actelion Java MolfileCreator 2.0

  0  0  0  0  0  0              0 V3000
M  V30 BEGIN CTAB
M  V30 COUNTS 34 35 0 0 0
M  V30 BEGIN ATOM
M  V30 1 O 1.1957 -0.797 -0.9565 0
M  V30 2 C 0.0786 -0.1776 -0.3498 0 CFG=1
M  V30 3 C 2.2106 0.1546 -1.2585 0 CFG=1
M  V30 4 O -0.9935 -1.1227 -0.3369 0
M  V30 5 C 0.4416 0.2289 1.1044 0 CFG=2
M  V30 6 C 2.5282 1.0986 -0.0471 0 CFG=1
M  V30 7 C 3.445 -0.6166 -1.7491 0
M  V30 8 C -2.3478 -0.8388 -0.0933 0
M  V30 9 O -0.3255 1.3313 1.5228 0
M  V30 10 C 1.9612 0.5052 1.2539 0 CFG=1
M  V30 11 O 3.9107 1.3246 0.0869 0
M  V30 12 O 3.09 -1.4482 -2.8196 0
M  V30 13 C -2.8666 0.472 -0.0704 0
M  V30 14 C -3.2164 -1.9174 0.1205 0
M  V30 15 O 2.2071 1.3768 2.3279 0
M  V30 16 C -4.2264 0.6867 0.1776 0
M  V30 17 C -4.5749 -1.6988 0.3681 0
M  V30 18 C -5.0794 -0.3969 0.3987 0
M  V30 19 H -0.2237 0.7061 -0.9575 0
M  V30 20 H 1.8705 0.7837 -2.1135 0
M  V30 21 H 0.1982 -0.6199 1.7809 0
M  V30 22 H 2.0175 2.0725 -0.2398 0
M  V30 23 H 4.2259 0.0994 -2.0906 0
M  V30 24 H 3.8527 -1.2332 -0.9163 0
M  V30 25 H -0.0764 2.1054 0.9537 0
M  V30 26 H 2.4868 -0.4621 1.4386 0
M  V30 27 H 4.021 2.1776 0.5829 0
M  V30 28 H 3.9179 -1.9289 -3.0813 0
M  V30 29 H -2.2409 1.3317 -0.2543 0
M  V30 30 H -2.8344 -2.9303 0.0993 0
M  V30 31 H 2.0401 0.8585 3.1581 0
M  V30 32 H -4.6199 1.6949 0.1943 0
M  V30 33 H -5.2362 -2.539 0.536 0
M  V30 34 H -6.1314 -0.228 0.5898 0
M  V30 END ATOM
M  V30 BEGIN BOND
M  V30 1 1 1 2
M  V30 2 1 1 3
M  V30 3 1 2 4
M  V30 4 1 2 5
M  V30 5 1 3 6
M  V30 6 1 3 7
M  V30 7 1 4 8
M  V30 8 1 5 9
M  V30 9 1 5 10
M  V30 10 1 6 11
M  V30 11 1 7 12
M  V30 12 2 8 13
M  V30 13 1 8 14
M  V30 14 1 10 15
M  V30 15 1 13 16
M  V30 16 2 14 17
M  V30 17 2 16 18
M  V30 18 1 6 10
M  V30 19 1 17 18
M  V30 20 1 2 19
M  V30 21 1 3 20
M  V30 22 1 5 21
M  V30 23 1 6 22
M  V30 24 1 7 23
M  V30 25 1 7 24
M  V30 26 1 9 25
M  V30 27 1 10 26
M  V30 28 1 11 27
M  V30 29 1 12 28
M  V30 30 1 13 29
M  V30 31 1 14 30
M  V30 32 1 15 31
M  V30 33 1 16 32
M  V30 34 1 17 33
M  V30 35 1 18 34
M  V30 END BOND
M  V30 BEGIN COLLECTION
M  V30 MDLV30/STEABS ATOMS=(5 2 3 5 6 10)
M  V30 END COLLECTION
M  V30 END CTAB
M  END
>  <Structure No>
8619

>  <LogS>
-1.46

>  <MMFF94 Energy>
126.51

$$$$
Compound 8620
Actelion Java MolfileCreator 2.0

  0  0  0  0  0  0              0 V3000
M  V30 BEGIN CTAB
M  V30 COUNTS 52 54 0 0 0
M  V30 BEGIN ATOM
M  V30 1 O -1.2715 -3.1015 0.4766 0
M  V30 2 C -0.5991 -2.3301 1.2172 0
M  V30 3 O -1.1504 -1.1298 1.6802 0
M  V30 4 C 0.8295 -2.6515 1.5654 0 CFG=2
M  V30 5 C -2.4348 -0.652 1.286 0
M  V30 6 C 1.7722 -1.8674 0.6759 0
M  V30 7 C 1.1283 -4.1553 1.4961 0
M  V30 8 C -2.3904 -0.1411 -0.1676 0
M  V30 9 C 2.709 -0.9874 1.2453 0
M  V30 10 C 1.7239 -2.005 -0.7236 0
M  V30 11 N -3.5558 0.6864 -0.546 0
M  V30 12 C 3.58 -0.2481 0.4305 0
M  V30 13 C 2.5894 -1.2743 -1.5412 0
M  V30 14 C -3.5879 2.0216 0.1011 0
M  V30 15 C -4.836 -0.0489 -0.5136 0
M  V30 16 C 3.5198 -0.3927 -0.9745 0
M  V30 17 C 4.5094 0.6363 0.9964 0
M  V30 18 C -4.8751 2.2565 0.9075 0
M  V30 19 C -5.9935 0.899 -0.8495 0
M  V30 20 C 4.3904 0.3481 -1.7883 0
M  V30 21 C 5.3705 1.3721 0.1779 0
M  V30 22 N -6.0787 2.0499 0.0797 0 CHG=1
M  V30 23 C 5.3165 1.2323 -1.2221 0
M  V30 24 O 6.1615 1.9501 -2.0818 0
M  V30 25 C 7.1347 2.8948 -1.6487 0
M  V30 26 H 0.9764 -2.3467 2.6254 0
M  V30 27 H -2.7189 0.169 1.9742 0
M  V30 28 H -3.1821 -1.466 1.3976 0
M  V30 29 H 2.1771 -4.347 1.808 0
M  V30 30 H 0.4541 -4.7089 2.1843 0
M  V30 31 H 0.9869 -4.5471 0.4662 0
M  V30 32 H -1.4601 0.4499 -0.3184 0
M  V30 33 H -2.3207 -1.0089 -0.858 0
M  V30 34 H 2.7567 -0.875 2.3224 0
M  V30 35 H 1.0101 -2.6761 -1.184 0
M  V30 36 H 2.529 -1.3969 -2.6161 0
M  V30 37 H -3.5299 2.7928 -0.697 0
M  V30 38 H -2.7103 2.1888 0.7649 0
M  V30 39 H -5.0248 -0.4942 0.4863 0
M  V30 40 H -4.8122 -0.8696 -1.263 0
M  V30 41 H 4.5693 0.76 2.0716 0
M  V30 42 H -4.8703 3.2943 1.3092 0
M  V30 43 H -4.8918 1.5677 1.7819 0
M  V30 44 H -5.8535 1.2662 -1.892 0
M  V30 45 H -6.9473 0.3248 -0.8321 0
M  V30 46 H 4.3517 0.2436 -2.8666 0
M  V30 47 H 6.075 2.0472 0.6441 0
M  V30 48 H -6.8967 1.9159 0.7192 0
M  V30 49 H -6.2566 2.9194 -0.4752 0
M  V30 50 H 7.6559 3.311 -2.5349 0
M  V30 51 H 7.8838 2.3997 -0.9956 0
M  V30 52 H 6.6418 3.7269 -1.1031 0
M  V30 END ATOM
M  V30 BEGIN BOND
M  V30 1 2 1 2
M  V30 2 1 2 3
M  V30 3 1 2 4
M  V30 4 1 3 5
M  V30 5 1 4 6
M  V30 6 1 4 7
M  V30 7 1 5 8
M  V30 8 2 6 9
M  V30 9 1 6 10
M  V30 10 1 8 11
M  V30 11 1 9 12
M  V30 12 2 10 13
M  V30 13 1 11 14
M  V30 14 1 11 15
M  V30 15 1 12 16
M  V30 16 2 12 17
M  V30 17 1 14 18
M  V30 18 1 15 19
M  V30 19 2 16 20
M  V30 20 1 17 21
M  V30 21 1 18 22
M  V30 22 1 20 23
M  V30 23 1 23 24
M  V30 24 1 24 25
M  V30 25 1 13 16
M  V30 26 1 19 22
M  V30 27 2 21 23
M  V30 28 1 4 26
M  V30 29 1 5 27
M  V30 30 1 5 28
M  V30 31 1 7 29
M  V30 32 1 7 30
M  V30 33 1 7 31
M  V30 34 1 8 32
M  V30 35 1 8 33
M  V30 36 1 9 34
M  V30 37 1 10 35
M  V30 38 1 13 36
M  V30 39 1 14 37
M  V30 40 1 14 38
M  V30 41 1 15 39
M  V30 42 1 15 40
M  V30 43 1 17 41
M  V30 44 1 18 42
M  V30 45 1 18 43
M  V30 46 1 19 44
M  V30 47 1 19 45
M  V30 48 1 20 46
M  V30 49 1 21 47
M  V30 50 1 22 48
M  V30 51 1 22 49
M  V30 52 1 25 50
M  V30 53 1 25 51
M  V30 54 1 25 52
M  V30 END BOND
M  V30 BEGIN COLLECTION
M  V30 MDLV30/STEABS ATOMS=(1 4)
M  V30 END COLLECTION
M  V30 END CTAB
M  END
>  <Structure No>
8620

>  <LogS>
-1.52

>  <MMFF94 Energy>
144.74

$$$$
Compound 8621
Actelion Java MolfileCreator 2.0

  0  0  0  0  0  0              0 V3000
M  V30 BEGIN CTAB
M  V30 COUNTS 55 57 0 0 0
M  V30 BEGIN ATOM
M  V30 1 O -0.4764 2.2249 -0.4764 0
M  V30 2 C 0.0194 1.4683 0.4059 0
M  V30 3 O -0.4129 0.142 0.5292 0
M  V30 4 C 1.1209 1.959 1.3085 0 CFG=1
M  V30 5 C -1.4967 -0.4023 -0.2211 0
M  V30 6 C 2.4559 1.3857 0.8782 0
M  V30 7 C 1.183 3.4915 1.3838 0
M  V30 8 C -2.8387 0.0278 0.3897 0
M  V30 9 C 3.2334 0.6505 1.7914 0
M  V30 10 C 2.9452 1.5959 -0.4238 0
M  V30 11 N -3.9693 -0.3241 -0.4973 0
M  V30 12 C 4.476 0.1227 1.408 0
M  V30 13 C 4.1825 1.0748 -0.8126 0
M  V30 14 C -4.2973 -1.7622 -0.3971 0
M  V30 15 C -5.1546 0.4826 -0.1424 0
M  V30 16 C 4.9551 0.336 0.0944 0
M  V30 17 C 5.2483 -0.616 2.3163 0
M  V30 18 C -5.4664 -2.107 -1.3291 0
M  V30 19 C -6.3294 0.1454 -1.0698 0
M  V30 20 C 6.1985 -0.1925 -0.2884 0
M  V30 21 C 6.483 -1.1395 1.9253 0
M  V30 22 N -6.6538 -1.2933 -0.998 0 CHG=1
M  V30 23 C 6.9683 -0.935 0.6282 0
M  V30 24 C -7.7625 -1.6117 -1.9132 0
M  V30 25 O 8.2141 -1.4851 0.2918 0
M  V30 26 C 8.8351 -1.3545 -0.9828 0
M  V30 27 H 0.8732 1.599 2.332 0
M  V30 28 H -1.4072 -1.5081 -0.1889 0
M  V30 29 H -1.4282 -0.0811 -1.2851 0
M  V30 30 H 1.4069 3.9334 0.3893 0
M  V30 31 H 0.2121 3.8949 1.7437 0
M  V30 32 H 1.9755 3.804 2.0972 0
M  V30 33 H -2.7986 1.1319 0.5335 0
M  V30 34 H -2.959 -0.4303 1.3995 0
M  V30 35 H 2.8702 0.4892 2.8006 0
M  V30 36 H 2.3662 2.1643 -1.1407 0
M  V30 37 H 4.535 1.2499 -1.8221 0
M  V30 38 H -3.4296 -2.3798 -0.71 0
M  V30 39 H -4.5629 -2.0394 0.6491 0
M  V30 40 H -4.9275 1.5654 -0.2639 0
M  V30 41 H -5.4512 0.3059 0.9175 0
M  V30 42 H 4.8978 -0.7892 3.3275 0
M  V30 43 H -5.1529 -1.9329 -2.3847 0
M  V30 44 H -5.7015 -3.1893 -1.2142 0
M  V30 45 H -6.0628 0.437 -2.112 0
M  V30 46 H -7.2102 0.751 -0.7581 0
M  V30 47 H 6.5598 -0.0239 -1.295 0
M  V30 48 H 7.0687 -1.7086 2.6365 0
M  V30 49 H -6.9661 -1.5257 -0.0238 0
M  V30 50 H -8.0202 -2.692 -1.8493 0
M  V30 51 H -8.6725 -1.0354 -1.6333 0
M  V30 52 H -7.4976 -1.3701 -2.9677 0
M  V30 53 H 9.026 -0.2845 -1.2069 0
M  V30 54 H 8.1912 -1.8008 -1.7696 0
M  V30 55 H 9.8044 -1.8926 -0.9691 0
M  V30 END ATOM
M  V30 BEGIN BOND
M  V30 1 2 1 2
M  V30 2 1 2 3
M  V30 3 1 2 4
M  V30 4 1 3 5
M  V30 5 1 4 6
M  V30 6 1 4 7
M  V30 7 1 5 8
M  V30 8 2 6 9
M  V30 9 1 6 10
M  V30 10 1 8 11
M  V30 11 1 9 12
M  V30 12 2 10 13
M  V30 13 1 11 14
M  V30 14 1 11 15
M  V30 15 1 12 16
M  V30 16 2 12 17
M  V30 17 1 14 18
M  V30 18 1 15 19
M  V30 19 2 16 20
M  V30 20 1 17 21
M  V30 21 1 18 22
M  V30 22 1 20 23
M  V30 23 1 22 24
M  V30 24 1 23 25
M  V30 25 1 25 26
M  V30 26 1 13 16
M  V30 27 1 19 22
M  V30 28 2 21 23
M  V30 29 1 4 27
M  V30 30 1 5 28
M  V30 31 1 5 29
M  V30 32 1 7 30
M  V30 33 1 7 31
M  V30 34 1 7 32
M  V30 35 1 8 33
M  V30 36 1 8 34
M  V30 37 1 9 35
M  V30 38 1 10 36
M  V30 39 1 13 37
M  V30 40 1 14 38
M  V30 41 1 14 39
M  V30 42 1 15 40
M  V30 43 1 15 41
M  V30 44 1 17 42
M  V30 45 1 18 43
M  V30 46 1 18 44
M  V30 47 1 19 45
M  V30 48 1 19 46
M  V30 49 1 20 47
M  V30 50 1 21 48
M  V30 51 1 22 49
M  V30 52 1 24 50
M  V30 53 1 24 51
M  V30 54 1 24 52
M  V30 55 1 26 53
M  V30 56 1 26 54
M  V30 57 1 26 55
M  V30 END BOND
M  V30 BEGIN COLLECTION
M  V30 MDLV30/STEABS ATOMS=(1 4)
M  V30 END COLLECTION
M  V30 END CTAB
M  END
>  <Structure No>
8621

>  <LogS>
-1.49

>  <MMFF94 Energy>
140.45

$$$$
Compound 8622
Actelion Java MolfileCreator 2.0

  0  0  0  0  0  0              0 V3000
M  V30 BEGIN CTAB
M  V30 COUNTS 57 59 0 0 0
M  V30 BEGIN ATOM
M  V30 1 O 1.1131 -0.6359 -2.068 0
M  V30 2 C 0.4637 -0.2207 -1.0685 0
M  V30 3 O -0.3893 -1.086 -0.3751 0
M  V30 4 C 0.5745 1.2274 -0.6621 0 CFG=2
M  V30 5 C -0.584 -2.4452 -0.7539 0
M  V30 6 C 2.0252 1.6383 -0.5043 0
M  V30 7 C -0.2094 1.5328 0.6199 0
M  V30 8 C -1.6871 -3.0781 0.1 0
M  V30 9 C 2.8899 0.9216 0.3439 0
M  V30 10 C 2.5168 2.7585 -1.1959 0
M  V30 11 C -3.1043 -2.6631 -0.3339 0
M  V30 12 C 4.2346 1.3026 0.4766 0
M  V30 13 C 3.8518 3.1472 -1.0646 0
M  V30 14 C -3.4149 -1.1767 -0.0283 0
M  V30 15 C 4.7197 2.4234 -0.2359 0
M  V30 16 C 5.1058 0.5788 1.3041 0
M  V30 17 N -4.8497 -0.8038 -0.1422 0 CHG=1
M  V30 18 C 6.0663 2.7973 -0.1121 0
M  V30 19 C 6.4477 0.9554 1.4161 0
M  V30 20 C -5.4637 -1.2305 -1.4182 0
M  V30 21 C -5.6509 -1.2551 1.0241 0
M  V30 22 C 6.9377 2.0663 0.7034 0
M  V30 23 C -6.9117 -0.6911 -1.5283 0
M  V30 24 C -7.1617 -1.2199 0.7175 0
M  V30 25 O 8.278 2.4735 0.7735 0
M  V30 26 O -7.4393 -0.2609 -0.2828 0
M  V30 27 C 9.2915 1.7889 1.5038 0
M  V30 28 H 0.1064 1.8208 -1.4782 0
M  V30 29 H -0.8504 -2.5097 -1.8322 0
M  V30 30 H 0.3644 -3.0032 -0.5929 0
M  V30 31 H -0.107 2.6082 0.8792 0
M  V30 32 H 0.1631 0.9223 1.4699 0
M  V30 33 H -1.2897 1.3165 0.47 0
M  V30 34 H -1.5246 -2.8357 1.1731 0
M  V30 35 H -1.6088 -4.182 -0.0025 0
M  V30 36 H 2.5152 0.0627 0.8894 0
M  V30 37 H 1.8663 3.3323 -1.8434 0
M  V30 38 H -3.8205 -3.3235 0.1955 0
M  V30 39 H -3.2177 -2.8568 -1.4232 0
M  V30 40 H 4.2073 4.0101 -1.615 0
M  V30 41 H -2.8293 -0.5482 -0.7371 0
M  V30 42 H -3.0487 -0.9242 0.9938 0
M  V30 43 H 4.7517 -0.2825 1.8592 0
M  V30 44 H -4.8698 0.2461 -0.1348 0
M  V30 45 H 6.4479 3.6526 -0.6573 0
M  V30 46 H 7.0957 0.3752 2.0583 0
M  V30 47 H -5.5081 -2.3421 -1.4752 0
M  V30 48 H -4.8602 -0.863 -2.2814 0
M  V30 49 H -5.3838 -2.284 1.3398 0
M  V30 50 H -5.4439 -0.5883 1.8918 0
M  V30 51 H -6.9165 0.1796 -2.2196 0
M  V30 52 H -7.578 -1.463 -1.9747 0
M  V30 53 H -7.515 -2.2291 0.4061 0
M  V30 54 H -7.7215 -0.9555 1.6373 0
M  V30 55 H 10.2585 2.3105 1.3569 0
M  V30 56 H 9.3899 0.7472 1.1338 0
M  V30 57 H 9.049 1.7873 2.5887 0
M  V30 END ATOM
M  V30 BEGIN BOND
M  V30 1 2 1 2
M  V30 2 1 2 3
M  V30 3 1 2 4
M  V30 4 1 3 5
M  V30 5 1 4 6
M  V30 6 1 4 7
M  V30 7 1 5 8
M  V30 8 2 6 9
M  V30 9 1 6 10
M  V30 10 1 8 11
M  V30 11 1 9 12
M  V30 12 2 10 13
M  V30 13 1 11 14
M  V30 14 1 12 15
M  V30 15 2 12 16
M  V30 16 1 14 17
M  V30 17 2 15 18
M  V30 18 1 16 19
M  V30 19 1 17 20
M  V30 20 1 17 21
M  V30 21 1 18 22
M  V30 22 1 20 23
M  V30 23 1 21 24
M  V30 24 1 22 25
M  V30 25 1 23 26
M  V30 26 1 25 27
M  V30 27 1 13 15
M  V30 28 2 19 22
M  V30 29 1 24 26
M  V30 30 1 4 28
M  V30 31 1 5 29
M  V30 32 1 5 30
M  V30 33 1 7 31
M  V30 34 1 7 32
M  V30 35 1 7 33
M  V30 36 1 8 34
M  V30 37 1 8 35
M  V30 38 1 9 36
M  V30 39 1 10 37
M  V30 40 1 11 38
M  V30 41 1 11 39
M  V30 42 1 13 40
M  V30 43 1 14 41
M  V30 44 1 14 42
M  V30 45 1 16 43
M  V30 46 1 17 44
M  V30 47 1 18 45
M  V30 48 1 19 46
M  V30 49 1 20 47
M  V30 50 1 20 48
M  V30 51 1 21 49
M  V30 52 1 21 50
M  V30 53 1 23 51
M  V30 54 1 23 52
M  V30 55 1 24 53
M  V30 56 1 24 54
M  V30 57 1 27 55
M  V30 58 1 27 56
M  V30 59 1 27 57
M  V30 END BOND
M  V30 BEGIN COLLECTION
M  V30 MDLV30/STEABS ATOMS=(1 4)
M  V30 END COLLECTION
M  V30 END CTAB
M  END
>  <Structure No>
8622

>  <LogS>
-3.7

>  <MMFF94 Energy>
113.41

$$$$
Compound 8623
Actelion Java MolfileCreator 2.0

  0  0  0  0  0  0              0 V3000
M  V30 BEGIN CTAB
M  V30 COUNTS 61 63 0 0 0
M  V30 BEGIN ATOM
M  V30 1 O -1.2696 1.0314 -2.0637 0
M  V30 2 C -0.9756 2.1234 -1.5 0
M  V30 3 O 0.2821 2.706 -1.6973 0
M  V30 4 C -1.9905 2.8524 -0.6598 0 CFG=2
M  V30 5 C 1.3475 2.0556 -2.3892 0
M  V30 6 C -2.999 1.9017 -0.0321 0
M  V30 7 C -2.668 3.9585 -1.4783 0
M  V30 8 C 2.0097 0.9963 -1.5005 0
M  V30 9 C -4.0111 1.2962 -0.8032 0
M  V30 10 C -2.8962 1.5767 1.3324 0
M  V30 11 C 2.7172 1.6368 -0.2957 0
M  V30 12 C -4.9178 0.4 -0.2155 0
M  V30 13 C -3.7937 0.6824 1.9237 0
M  V30 14 C 3.2021 0.609 0.7507 0
M  V30 15 C -4.8087 0.0904 1.1594 0
M  V30 16 C -5.9299 -0.1967 -0.9806 0
M  V30 17 N 4.116 -0.4366 0.2207 0 CHG=1
M  V30 18 C -5.7128 -0.811 1.7445 0
M  V30 19 C -6.8256 -1.093 -0.3896 0
M  V30 20 C 5.3775 0.1439 -0.2937 0
M  V30 21 C 4.4097 -1.409 1.2963 0
M  V30 22 C -6.7218 -1.4077 0.9786 0
M  V30 23 C 6.3343 -0.955 -0.7931 0
M  V30 24 C 5.3566 -2.519 0.8065 0
M  V30 25 O -7.5967 -2.3045 1.6108 0
M  V30 26 N 6.6055 -1.9804 0.2323 0
M  V30 27 C -8.6547 -2.9943 0.9531 0
M  V30 28 C 7.5448 -1.5084 1.2646 0
M  V30 29 H -1.4302 3.3652 0.1542 0
M  V30 30 H 0.9666 1.5866 -3.3237 0
M  V30 31 H 2.1027 2.8169 -2.6826 0
M  V30 32 H -3.1282 3.5532 -2.4042 0
M  V30 33 H -1.9181 4.7252 -1.7717 0
M  V30 34 H -3.453 4.4576 -0.8709 0
M  V30 35 H 1.2427 0.2716 -1.151 0
M  V30 36 H 2.7516 0.4486 -2.1194 0
M  V30 37 H -4.0871 1.5131 -1.8621 0
M  V30 38 H -2.1162 2.0138 1.9436 0
M  V30 39 H 2.0049 2.3176 0.2201 0
M  V30 40 H 3.5607 2.271 -0.641 0
M  V30 41 H -3.6903 0.4509 2.9781 0
M  V30 42 H 2.2957 0.1281 1.1868 0
M  V30 43 H 3.6984 1.1684 1.5765 0
M  V30 44 H -6.0297 0.0293 -2.0356 0
M  V30 45 H 3.6323 -0.9541 -0.5504 0
M  V30 46 H -5.6352 -1.0562 2.7975 0
M  V30 47 H -7.5949 -1.5369 -1.0062 0
M  V30 48 H 5.8778 0.7612 0.4855 0
M  V30 49 H 5.1721 0.8043 -1.1622 0
M  V30 50 H 4.8553 -0.8988 2.1798 0
M  V30 51 H 3.4667 -1.8938 1.6378 0
M  V30 52 H 5.8826 -1.4504 -1.6812 0
M  V30 53 H 7.2847 -0.4899 -1.1394 0
M  V30 54 H 4.8349 -3.122 0.031 0
M  V30 55 H 5.5819 -3.2126 1.6467 0
M  V30 56 H -8.2474 -3.6295 0.1383 0
M  V30 57 H -9.3875 -2.2677 0.5409 0
M  V30 58 H -9.1724 -3.6469 1.6857 0
M  V30 59 H 7.1344 -0.6547 1.8434 0
M  V30 60 H 8.5016 -1.196 0.7941 0
M  V30 61 H 7.7838 -2.3354 1.9669 0
M  V30 END ATOM
M  V30 BEGIN BOND
M  V30 1 2 1 2
M  V30 2 1 2 3
M  V30 3 1 2 4
M  V30 4 1 3 5
M  V30 5 1 4 6
M  V30 6 1 4 7
M  V30 7 1 5 8
M  V30 8 2 6 9
M  V30 9 1 6 10
M  V30 10 1 8 11
M  V30 11 1 9 12
M  V30 12 2 10 13
M  V30 13 1 11 14
M  V30 14 1 12 15
M  V30 15 2 12 16
M  V30 16 1 14 17
M  V30 17 2 15 18
M  V30 18 1 16 19
M  V30 19 1 17 20
M  V30 20 1 17 21
M  V30 21 1 18 22
M  V30 22 1 20 23
M  V30 23 1 21 24
M  V30 24 1 22 25
M  V30 25 1 23 26
M  V30 26 1 25 27
M  V30 27 1 26 28
M  V30 28 1 13 15
M  V30 29 2 19 22
M  V30 30 1 24 26
M  V30 31 1 4 29
M  V30 32 1 5 30
M  V30 33 1 5 31
M  V30 34 1 7 32
M  V30 35 1 7 33
M  V30 36 1 7 34
M  V30 37 1 8 35
M  V30 38 1 8 36
M  V30 39 1 9 37
M  V30 40 1 10 38
M  V30 41 1 11 39
M  V30 42 1 11 40
M  V30 43 1 13 41
M  V30 44 1 14 42
M  V30 45 1 14 43
M  V30 46 1 16 44
M  V30 47 1 17 45
M  V30 48 1 18 46
M  V30 49 1 19 47
M  V30 50 1 20 48
M  V30 51 1 20 49
M  V30 52 1 21 50
M  V30 53 1 21 51
M  V30 54 1 23 52
M  V30 55 1 23 53
M  V30 56 1 24 54
M  V30 57 1 24 55
M  V30 58 1 27 56
M  V30 59 1 27 57
M  V30 60 1 27 58
M  V30 61 1 28 59
M  V30 62 1 28 60
M  V30 63 1 28 61
M  V30 END BOND
M  V30 BEGIN COLLECTION
M  V30 MDLV30/STEABS ATOMS=(1 4)
M  V30 END COLLECTION
M  V30 END CTAB
M  END
>  <Structure No>
8623

>  <LogS>
-1.29

>  <MMFF94 Energy>
136.71

$$$$
Compound 8624
Actelion Java MolfileCreator 2.0

  0  0  0  0  0  0              0 V3000
M  V30 BEGIN CTAB
M  V30 COUNTS 28 30 0 0 0
M  V30 BEGIN ATOM
M  V30 1 O -0.324 -2.1889 1.4588 0
M  V30 2 C -0.1148 -1.185 0.724 0
M  V30 3 N -1.2323 -0.4966 0.1434 0
M  V30 4 C 1.2836 -0.7783 0.4394 0
M  V30 5 C -1.0987 0.6185 -0.7705 0 CFG=2
M  V30 6 C -2.6159 -0.8541 0.4082 0
M  V30 7 C 1.6948 0.5814 0.3503 0
M  V30 8 C 2.2498 -1.7931 0.3009 0
M  V30 9 C -0.5195 1.7779 -0.0077 0
M  V30 10 C -2.5142 0.855 -1.3129 0
M  V30 11 C -3.4534 0.2013 -0.303 0
M  V30 12 N 0.7946 1.6867 0.555 0
M  V30 13 C 3.0529 0.8731 0.1404 0
M  V30 14 C 3.5896 -1.4793 0.0717 0
M  V30 15 O -1.1891 2.8317 0.1708 0
M  V30 16 C 3.9908 -0.1483 -0.0071 0
M  V30 17 H -0.4207 0.3495 -1.6104 0
M  V30 18 H -2.8261 -1.8636 -0.0072 0
M  V30 19 H -2.818 -0.8432 1.5013 0
M  V30 20 H 1.9645 -2.8363 0.3642 0
M  V30 21 H -2.6186 0.3285 -2.2875 0
M  V30 22 H -2.7643 1.9251 -1.477 0
M  V30 23 H -4.3382 -0.249 -0.8028 0
M  V30 24 H -3.7943 0.9646 0.4305 0
M  V30 25 H 1.1817 2.5541 0.9925 0
M  V30 26 H 3.3848 1.9028 0.0875 0
M  V30 27 H 4.3194 -2.2711 -0.0381 0
M  V30 28 H 5.0321 0.0933 -0.1765 0
M  V30 END ATOM
M  V30 BEGIN BOND
M  V30 1 2 1 2
M  V30 2 1 2 3
M  V30 3 1 2 4
M  V30 4 1 3 5
M  V30 5 1 3 6
M  V30 6 2 4 7
M  V30 7 1 4 8
M  V30 8 1 5 9
M  V30 9 1 5 10
M  V30 10 1 6 11
M  V30 11 1 7 12
M  V30 12 1 7 13
M  V30 13 2 8 14
M  V30 14 2 9 15
M  V30 15 2 13 16
M  V30 16 1 9 12
M  V30 17 1 10 11
M  V30 18 1 14 16
M  V30 19 1 5 17
M  V30 20 1 6 18
M  V30 21 1 6 19
M  V30 22 1 8 20
M  V30 23 1 10 21
M  V30 24 1 10 22
M  V30 25 1 11 23
M  V30 26 1 11 24
M  V30 27 1 12 25
M  V30 28 1 13 26
M  V30 29 1 14 27
M  V30 30 1 16 28
M  V30 END BOND
M  V30 BEGIN COLLECTION
M  V30 MDLV30/STEABS ATOMS=(1 5)
M  V30 END COLLECTION
M  V30 END CTAB
M  END
>  <Structure No>
8624

>  <LogS>
-3.75

>  <MMFF94 Energy>
49.569

$$$$
Compound 8625
Actelion Java MolfileCreator 2.0

  0  0  0  0  0  0              0 V3000
M  V30 BEGIN CTAB
M  V30 COUNTS 28 30 0 0 0
M  V30 BEGIN ATOM
M  V30 1 Cl 4.9535 1.9792 -1.2366 0
M  V30 2 C 3.6968 0.9087 -0.6429 0
M  V30 3 C 2.4678 1.4316 -0.2345 0
M  V30 4 C 3.9272 -0.464 -0.571 0
M  V30 5 C 1.4454 0.5866 0.2365 0
M  V30 6 C 2.9308 -1.3149 -0.0929 0
M  V30 7 C 0.1809 1.2088 0.6913 0
M  V30 8 C 1.6807 -0.8105 0.3017 0
M  V30 9 O 0.2305 2.3008 1.3212 0
M  V30 10 N -1.0987 0.6414 0.3701 0
M  V30 11 N 0.7227 -1.7318 0.8491 0
M  V30 12 C -1.2777 -0.6319 -0.3041 0 CFG=1
M  V30 13 C -2.3329 1.4037 0.4684 0
M  V30 14 C -0.6718 -1.7393 0.5216 0
M  V30 15 C -2.7944 -0.7614 -0.52 0
M  V30 16 C -3.3467 0.6527 -0.3816 0
M  V30 17 O -1.379 -2.7065 0.9151 0
M  V30 18 H 2.3078 2.5019 -0.2914 0
M  V30 19 H 4.8813 -0.8733 -0.8782 0
M  V30 20 H 3.1313 -2.3773 -0.031 0
M  V30 21 H 1.0917 -2.568 1.357 0
M  V30 22 H -0.771 -0.5952 -1.2937 0
M  V30 23 H -2.6605 1.4442 1.5296 0
M  V30 24 H -2.1922 2.4346 0.0756 0
M  V30 25 H -3.0242 -1.1864 -1.5212 0
M  V30 26 H -3.2786 -1.391 0.2572 0
M  V30 27 H -3.412 1.1237 -1.3873 0
M  V30 28 H -4.3535 0.6552 0.0898 0
M  V30 END ATOM
M  V30 BEGIN BOND
M  V30 1 1 1 2
M  V30 2 2 2 3
M  V30 3 1 2 4
M  V30 4 1 3 5
M  V30 5 2 4 6
M  V30 6 1 5 7
M  V30 7 2 5 8
M  V30 8 2 7 9
M  V30 9 1 7 10
M  V30 10 1 8 11
M  V30 11 1 10 12
M  V30 12 1 10 13
M  V30 13 1 11 14
M  V30 14 1 12 15
M  V30 15 1 13 16
M  V30 16 2 14 17
M  V30 17 1 6 8
M  V30 18 1 12 14
M  V30 19 1 15 16
M  V30 20 1 3 18
M  V30 21 1 4 19
M  V30 22 1 6 20
M  V30 23 1 11 21
M  V30 24 1 12 22
M  V30 25 1 13 23
M  V30 26 1 13 24
M  V30 27 1 15 25
M  V30 28 1 15 26
M  V30 29 1 16 27
M  V30 30 1 16 28
M  V30 END BOND
M  V30 BEGIN COLLECTION
M  V30 MDLV30/STEABS ATOMS=(1 12)
M  V30 END COLLECTION
M  V30 END CTAB
M  END
>  <Structure No>
8625

>  <LogS>
-4.7

>  <MMFF94 Energy>
36.947

$$$$
Compound 8626
Actelion Java MolfileCreator 2.0

  0  0  0  0  0  0              0 V3000
M  V30 BEGIN CTAB
M  V30 COUNTS 29 31 0 0 0
M  V30 BEGIN ATOM
M  V30 1 O 0.162 -2.4326 1.0536 0
M  V30 2 C 0.2162 -1.3129 0.4745 0
M  V30 3 N -1.0043 -0.6246 0.1642 0
M  V30 4 C 1.5396 -0.7662 0.0847 0
M  V30 5 C -1.0554 0.6234 -0.5682 0 CFG=2
M  V30 6 C -2.318 -1.121 0.5393 0
M  V30 7 C 1.8638 0.6171 0.1686 0
M  V30 8 C 2.5288 -1.6737 -0.34 0
M  V30 9 C -0.4361 1.6931 0.2885 0
M  V30 10 C -2.5428 0.8367 -0.88 0
M  V30 11 C -3.3054 -0.0286 0.1243 0 CFG=2
M  V30 12 N 0.9439 1.6083 0.6638 0
M  V30 13 C 3.1637 1.0366 -0.1609 0
M  V30 14 C 3.8068 -1.231 -0.6824 0
M  V30 15 O -1.1246 2.6632 0.7074 0
M  V30 16 O -3.6657 0.7517 1.2346 0
M  V30 17 C 4.1241 0.1218 -0.592 0
M  V30 18 H -0.4868 0.5349 -1.5204 0
M  V30 19 H -2.3609 -1.3153 1.6335 0
M  V30 20 H -2.529 -2.062 -0.0135 0
M  V30 21 H 2.3093 -2.7321 -0.413 0
M  V30 22 H -2.863 1.9008 -0.853 0
M  V30 23 H -2.7493 0.4537 -1.9042 0
M  V30 24 H -4.2137 -0.4657 -0.3526 0
M  V30 25 H 1.3417 2.4227 1.1853 0
M  V30 26 H 3.4314 2.0834 -0.0856 0
M  V30 27 H 4.5546 -1.9405 -1.0127 0
M  V30 28 H -4.3377 0.227 1.7433 0
M  V30 29 H 5.1186 0.4625 -0.85 0
M  V30 END ATOM
M  V30 BEGIN BOND
M  V30 1 2 1 2
M  V30 2 1 2 3
M  V30 3 1 2 4
M  V30 4 1 3 5
M  V30 5 1 3 6
M  V30 6 2 4 7
M  V30 7 1 4 8
M  V30 8 1 5 9
M  V30 9 1 5 10
M  V30 10 1 6 11
M  V30 11 1 7 12
M  V30 12 1 7 13
M  V30 13 2 8 14
M  V30 14 2 9 15
M  V30 15 1 11 16
M  V30 16 2 13 17
M  V30 17 1 9 12
M  V30 18 1 10 11
M  V30 19 1 14 17
M  V30 20 1 5 18
M  V30 21 1 6 19
M  V30 22 1 6 20
M  V30 23 1 8 21
M  V30 24 1 10 22
M  V30 25 1 10 23
M  V30 26 1 11 24
M  V30 27 1 12 25
M  V30 28 1 13 26
M  V30 29 1 14 27
M  V30 30 1 16 28
M  V30 31 1 17 29
M  V30 END BOND
M  V30 BEGIN COLLECTION
M  V30 MDLV30/STEABS ATOMS=(2 5 11)
M  V30 END COLLECTION
M  V30 END CTAB
M  END
>  <Structure No>
8626

>  <LogS>
-2.37

>  <MMFF94 Energy>
58.975

$$$$
Compound 8627
Actelion Java MolfileCreator 2.0

  0  0  0  0  0  0              0 V3000
M  V30 BEGIN CTAB
M  V30 COUNTS 39 41 0 0 0
M  V30 BEGIN ATOM
M  V30 1 O 4.534 -0.8893 -1.132 0
M  V30 2 C 3.3518 -0.7838 -0.7114 0
M  V30 3 O 2.3698 -1.722 -0.9807 0
M  V30 4 C 2.851 0.3275 0.1502 0 CFG=2
M  V30 5 C 1.2242 -1.4209 -0.2043 0 CFG=1
M  V30 6 C 1.3338 0.0947 0.0251 0 CFG=1
M  V30 7 C 3.2885 1.7038 -0.3617 0
M  V30 8 C -0.0987 -1.8399 -0.8633 0
M  V30 9 C 0.4597 0.608 1.1853 0 CFG=2
M  V30 10 C -1.2471 -1.8795 0.1851 0 CFG=1
M  V30 11 O 0.544 -0.2355 2.3044 0
M  V30 12 C -0.9689 0.6917 0.6802 0
M  V30 13 C -1.9044 -0.4965 0.5021 0 CFG=1
M  V30 14 C -2.3027 -2.9277 -0.2082 0
M  V30 15 C -1.4779 1.7873 0.11 0
M  V30 16 C -2.932 -0.0183 -0.548 0
M  V30 17 C -2.693 1.4397 -0.5938 0
M  V30 18 C -0.7998 3.1231 0.0036 0
M  V30 19 O -3.4164 2.2563 -1.2232 0
M  V30 20 H 3.1932 0.172 1.1968 0
M  V30 21 H 1.3524 -1.9685 0.7566 0
M  V30 22 H 1.0067 0.6038 -0.914 0
M  V30 23 H 2.8108 2.5025 0.2436 0
M  V30 24 H 3.005 1.842 -1.4274 0
M  V30 25 H 4.3902 1.8074 -0.2689 0
M  V30 26 H -0.3568 -1.1702 -1.7117 0
M  V30 27 H 0.0541 -2.8578 -1.2842 0
M  V30 28 H 0.8262 1.6168 1.4774 0
M  V30 29 H -0.8311 -2.2545 1.1466 0
M  V30 30 H 0.0945 0.2379 3.0525 0
M  V30 31 H -2.4504 -0.6069 1.4667 0
M  V30 32 H -1.8546 -3.9441 -0.1863 0
M  V30 33 H -2.6916 -2.7444 -1.2314 0
M  V30 34 H -3.1499 -2.9131 0.5105 0
M  V30 35 H -3.974 -0.2428 -0.2337 0
M  V30 36 H -2.7283 -0.4374 -1.5557 0
M  V30 37 H -1.478 3.8704 -0.4583 0
M  V30 38 H 0.1114 3.0347 -0.624 0
M  V30 39 H -0.5228 3.4907 1.0136 0
M  V30 END ATOM
M  V30 BEGIN BOND
M  V30 1 2 1 2
M  V30 2 1 2 3
M  V30 3 1 2 4
M  V30 4 1 3 5
M  V30 5 1 4 6
M  V30 6 1 4 7
M  V30 7 1 5 8
M  V30 8 1 6 9
M  V30 9 1 8 10
M  V30 10 1 9 11
M  V30 11 1 9 12
M  V30 12 1 10 13
M  V30 13 1 10 14
M  V30 14 2 12 15
M  V30 15 1 13 16
M  V30 16 1 15 17
M  V30 17 1 15 18
M  V30 18 2 17 19
M  V30 19 1 5 6
M  V30 20 1 12 13
M  V30 21 1 16 17
M  V30 22 1 4 20
M  V30 23 1 5 21
M  V30 24 1 6 22
M  V30 25 1 7 23
M  V30 26 1 7 24
M  V30 27 1 7 25
M  V30 28 1 8 26
M  V30 29 1 8 27
M  V30 30 1 9 28
M  V30 31 1 10 29
M  V30 32 1 11 30
M  V30 33 1 13 31
M  V30 34 1 14 32
M  V30 35 1 14 33
M  V30 36 1 14 34
M  V30 37 1 16 35
M  V30 38 1 16 36
M  V30 39 1 18 37
M  V30 40 1 18 38
M  V30 41 1 18 39
M  V30 END BOND
M  V30 BEGIN COLLECTION
M  V30 MDLV30/STEABS ATOMS=(6 4 5 6 9 10 13)
M  V30 END COLLECTION
M  V30 END CTAB
M  END
>  <Structure No>
8627

>  <LogS>
-1.95

>  <MMFF94 Energy>
4.9285

$$$$
Compound 8628
Actelion Java MolfileCreator 2.0

  0  0  0  0  0  0              0 V3000
M  V30 BEGIN CTAB
M  V30 COUNTS 31 32 0 0 0
M  V30 BEGIN ATOM
M  V30 1 O 2.717 -1.2779 3.2771 0
M  V30 2 C 2.7891 -0.1306 2.761 0
M  V30 3 O 3.7698 0.7535 3.1932 0 CHG=-1
M  V30 4 C 1.8202 0.2871 1.6921 0 CFG=1
M  V30 5 N 1.9067 -0.6409 0.5593 0
M  V30 6 C 0.3883 0.3201 2.2526 0
M  V30 7 C 1.922 -0.2038 -0.8077 0
M  V30 8 C -0.5815 0.8523 1.2374 0
M  V30 9 O 1.9466 1.025 -1.0884 0
M  V30 10 C 1.8501 -1.2075 -1.9116 0
M  V30 11 C -1.3127 0.1346 0.3102 0
M  V30 12 C -0.8231 2.1927 0.9511 0
M  V30 13 C -1.9643 1.0506 -0.4755 0
M  V30 14 C -1.4263 -1.238 0.0857 0
M  V30 15 N -1.676 2.3065 -0.0923 0
M  V30 16 C -2.7781 0.6576 -1.5371 0
M  V30 17 C -2.2427 -1.6635 -0.9776 0
M  V30 18 C -2.9162 -0.7201 -1.7848 0
M  V30 19 H 2.0986 1.3153 1.3703 0
M  V30 20 H 1.8173 -1.6658 0.7473 0
M  V30 21 H 0.3561 0.9766 3.1497 0
M  V30 22 H 0.0759 -0.6977 2.5719 0
M  V30 23 H 2.1945 -0.7581 -2.8671 0
M  V30 24 H 2.4965 -2.078 -1.6742 0
M  V30 25 H 0.8016 -1.5515 -2.0293 0
M  V30 26 H -0.3813 3.0367 1.4648 0
M  V30 27 H -0.901 -1.9564 0.701 0
M  V30 28 H -2.0197 3.1928 -0.5247 0
M  V30 29 H -3.2832 1.3882 -2.1556 0
M  V30 30 H -2.3519 -2.7208 -1.1809 0
M  V30 31 H -3.5391 -1.0592 -2.6022 0
M  V30 END ATOM
M  V30 BEGIN BOND
M  V30 1 2 1 2
M  V30 2 1 2 3
M  V30 3 1 2 4
M  V30 4 1 4 5
M  V30 5 1 4 6
M  V30 6 1 5 7
M  V30 7 1 6 8
M  V30 8 2 7 9
M  V30 9 1 7 10
M  V30 10 1 8 11
M  V30 11 2 8 12
M  V30 12 2 11 13
M  V30 13 1 11 14
M  V30 14 1 12 15
M  V30 15 1 13 16
M  V30 16 2 14 17
M  V30 17 2 16 18
M  V30 18 1 13 15
M  V30 19 1 17 18
M  V30 20 1 4 19
M  V30 21 1 5 20
M  V30 22 1 6 21
M  V30 23 1 6 22
M  V30 24 1 10 23
M  V30 25 1 10 24
M  V30 26 1 10 25
M  V30 27 1 12 26
M  V30 28 1 14 27
M  V30 29 1 15 28
M  V30 30 1 16 29
M  V30 31 1 17 30
M  V30 32 1 18 31
M  V30 END BOND
M  V30 BEGIN COLLECTION
M  V30 MDLV30/STEABS ATOMS=(1 4)
M  V30 END COLLECTION
M  V30 END CTAB
M  END
>  <Structure No>
8628

>  <LogS>
-2.31

>  <MMFF94 Energy>
50.567

$$$$
Compound 8629
Actelion Java MolfileCreator 2.0

  0  0  0  0  0  0              0 V3000
M  V30 BEGIN CTAB
M  V30 COUNTS 52 56 0 0 0
M  V30 BEGIN ATOM
M  V30 1 O 3.1523 -1.6964 1.3731 0
M  V30 2 C 2.5185 -0.6105 1.2626 0
M  V30 3 O 3.0855 0.589 1.7091 0
M  V30 4 C 1.1499 -0.6062 0.7114 0
M  V30 5 C 4.3946 0.6802 2.268 0
M  V30 6 N 0.564 0.6025 0.1826 0
M  V30 7 C 0.3413 -1.6828 0.8763 0
M  V30 8 C 5.4546 0.6222 1.1745 0
M  V30 9 C 1.063 1.6294 -0.5454 0
M  V30 10 C -0.7661 0.7847 0.1727 0
M  V30 11 C -1.101 -1.6651 0.3465 0 CFG=2
M  V30 12 C 0.0343 2.4621 -0.9621 0
M  V30 13 C 2.367 1.811 -1.0148 0
M  V30 14 C -1.1461 1.923 -0.4844 0
M  V30 15 C -1.7116 -0.2609 0.6309 0 CFG=2
M  V30 16 C -2.0145 -2.7148 1.0605 0
M  V30 17 C -1.074 -1.9462 -1.1983 0
M  V30 18 C 0.2562 3.5346 -1.8224 0
M  V30 19 C 2.6197 2.9058 -1.8607 0
M  V30 20 C -2.5742 2.195 -0.853 0
M  V30 21 N -3.0087 -0.1394 -0.0641 0
M  V30 22 C -3.4352 -2.1902 1.4076 0
M  V30 23 C -0.225 -3.1554 -1.6148 0
M  V30 24 C 1.5726 3.7659 -2.2568 0
M  V30 25 C -3.519 1.2548 -0.0569 0
M  V30 26 C -4.0022 -1.1358 0.4161 0
M  V30 27 H 4.5575 -0.1338 3.0072 0
M  V30 28 H 4.4851 1.6504 2.8002 0
M  V30 29 H 0.7156 -2.5775 1.36 0
M  V30 30 H 6.464 0.7015 1.6296 0
M  V30 31 H 5.315 1.4655 0.4659 0
M  V30 32 H 5.3876 -0.3365 0.6193 0
M  V30 33 H 3.1596 1.1184 -0.7775 0
M  V30 34 H -1.8402 -0.1026 1.727 0
M  V30 35 H -1.5443 -3.0472 2.012 0
M  V30 36 H -2.1295 -3.6314 0.4459 0
M  V30 37 H -0.6769 -1.0642 -1.7455 0
M  V30 38 H -2.1078 -2.11 -1.572 0
M  V30 39 H -0.5594 4.1614 -2.1595 0
M  V30 40 H 3.622 3.0754 -2.2318 0
M  V30 41 H -2.8236 3.256 -0.6402 0
M  V30 42 H -2.7027 2.0063 -1.9403 0
M  V30 43 H -3.4048 -1.731 2.4203 0
M  V30 44 H -4.1398 -3.0473 1.4737 0
M  V30 45 H -0.3556 -3.3375 -2.7023 0
M  V30 46 H -0.5253 -4.0734 -1.0714 0
M  V30 47 H 0.852 -2.9596 -1.4301 0
M  V30 48 H 1.7802 4.5932 -2.9228 0
M  V30 49 H -4.5251 1.2946 -0.5295 0
M  V30 50 H -3.6152 1.6208 0.9902 0
M  V30 51 H -4.401 -1.6729 -0.4702 0
M  V30 52 H -4.8695 -0.6397 0.9071 0
M  V30 END ATOM
M  V30 BEGIN BOND
M  V30 1 2 1 2
M  V30 2 1 2 3
M  V30 3 1 2 4
M  V30 4 1 3 5
M  V30 5 1 4 6
M  V30 6 2 4 7
M  V30 7 1 5 8
M  V30 8 1 6 9
M  V30 9 1 6 10
M  V30 10 1 7 11
M  V30 11 2 9 12
M  V30 12 1 9 13
M  V30 13 2 10 14
M  V30 14 1 10 15
M  V30 15 1 11 16
M  V30 16 1 11 17
M  V30 17 1 12 18
M  V30 18 2 13 19
M  V30 19 1 14 20
M  V30 20 1 15 21
M  V30 21 1 16 22
M  V30 22 1 17 23
M  V30 23 2 18 24
M  V30 24 1 20 25
M  V30 25 1 21 26
M  V30 26 1 11 15
M  V30 27 1 12 14
M  V30 28 1 19 24
M  V30 29 1 21 25
M  V30 30 1 22 26
M  V30 31 1 5 27
M  V30 32 1 5 28
M  V30 33 1 7 29
M  V30 34 1 8 30
M  V30 35 1 8 31
M  V30 36 1 8 32
M  V30 37 1 13 33
M  V30 38 1 15 34
M  V30 39 1 16 35
M  V30 40 1 16 36
M  V30 41 1 17 37
M  V30 42 1 17 38
M  V30 43 1 18 39
M  V30 44 1 19 40
M  V30 45 1 20 41
M  V30 46 1 20 42
M  V30 47 1 22 43
M  V30 48 1 22 44
M  V30 49 1 23 45
M  V30 50 1 23 46
M  V30 51 1 23 47
M  V30 52 1 24 48
M  V30 53 1 25 49
M  V30 54 1 25 50
M  V30 55 1 26 51
M  V30 56 1 26 52
M  V30 END BOND
M  V30 BEGIN COLLECTION
M  V30 MDLV30/STEABS ATOMS=(2 11 15)
M  V30 END COLLECTION
M  V30 END CTAB
M  END
>  <Structure No>
8629

>  <LogS>
-4.84

>  <MMFF94 Energy>
80.639

$$$$
Compound 8630
Actelion Java MolfileCreator 2.0

  0  0  0  0  0  0              0 V3000
M  V30 BEGIN CTAB
M  V30 COUNTS 44 47 0 0 0
M  V30 BEGIN ATOM
M  V30 1 O -6.0261 -1.3634 -0.6414 0
M  V30 2 C -5.1865 -0.685 -1.5591 0
M  V30 3 C -6.7189 -0.4238 0.155 0
M  V30 4 C -4.26 0.3354 -0.8635 0
M  V30 5 C -5.7423 0.3716 1.0444 0
M  V30 6 N -4.3459 0.1835 0.6019 0
M  V30 7 C -3.4545 1.1362 1.2938 0
M  V30 8 C -2.0209 0.6854 1.194 0
M  V30 9 C -1.1017 1.3937 0.4049 0
M  V30 10 C -1.6003 -0.4689 1.8707 0
M  V30 11 C 0.2221 0.9573 0.3006 0
M  V30 12 C -0.2765 -0.9057 1.7673 0
M  V30 13 C 0.6465 -0.1955 0.9813 0
M  V30 14 C 2.0462 -0.6517 0.8658 0
M  V30 15 O 2.9566 -0.0338 0.1465 0
M  V30 16 N 2.5339 -1.7482 1.486 0
M  V30 17 C 4.0735 -0.7076 0.2723 0
M  V30 18 C 3.8252 -1.7808 1.1059 0
M  V30 19 C 5.3471 -0.3385 -0.3852 0
M  V30 20 C 5.3995 0.8026 -1.2056 0
M  V30 21 C 6.5145 -1.1058 -0.2089 0
M  V30 22 C 6.593 1.1682 -1.8358 0
M  V30 23 C 7.7055 -0.7354 -0.8418 0
M  V30 24 C 7.7449 0.4 -1.6541 0
M  V30 25 H -4.563 -1.4448 -2.0768 0
M  V30 26 H -5.7984 -0.1833 -2.3422 0
M  V30 27 H -7.4418 -0.9693 0.7981 0
M  V30 28 H -7.3166 0.2674 -0.4832 0
M  V30 29 H -4.5549 1.3666 -1.1658 0
M  V30 30 H -3.2167 0.1639 -1.2077 0
M  V30 31 H -6.0256 1.4493 1.0217 0
M  V30 32 H -5.8383 0.0134 2.0932 0
M  V30 33 H -3.7112 1.1864 2.3763 0
M  V30 34 H -3.5816 2.1667 0.8895 0
M  V30 35 H -1.41 2.2811 -0.1337 0
M  V30 36 H -2.2998 -1.0315 2.477 0
M  V30 37 H 0.9131 1.5207 -0.3141 0
M  V30 38 H 0.023 -1.7994 2.3003 0
M  V30 39 H 4.5257 -2.5408 1.4225 0
M  V30 40 H 4.5176 1.4123 -1.3598 0
M  V30 41 H 6.5143 -1.9896 0.4138 0
M  V30 42 H 6.6242 2.048 -2.4654 0
M  V30 43 H 8.5992 -1.33 -0.7018 0
M  V30 44 H 8.6679 0.6843 -2.1427 0
M  V30 END ATOM
M  V30 BEGIN BOND
M  V30 1 1 1 2
M  V30 2 1 1 3
M  V30 3 1 2 4
M  V30 4 1 3 5
M  V30 5 1 4 6
M  V30 6 1 6 7
M  V30 7 1 7 8
M  V30 8 2 8 9
M  V30 9 1 8 10
M  V30 10 1 9 11
M  V30 11 2 10 12
M  V30 12 2 11 13
M  V30 13 1 13 14
M  V30 14 1 14 15
M  V30 15 2 14 16
M  V30 16 1 15 17
M  V30 17 1 16 18
M  V30 18 1 17 19
M  V30 19 2 19 20
M  V30 20 1 19 21
M  V30 21 1 20 22
M  V30 22 2 21 23
M  V30 23 2 22 24
M  V30 24 1 5 6
M  V30 25 1 12 13
M  V30 26 2 17 18
M  V30 27 1 23 24
M  V30 28 1 2 25
M  V30 29 1 2 26
M  V30 30 1 3 27
M  V30 31 1 3 28
M  V30 32 1 4 29
M  V30 33 1 4 30
M  V30 34 1 5 31
M  V30 35 1 5 32
M  V30 36 1 7 33
M  V30 37 1 7 34
M  V30 38 1 9 35
M  V30 39 1 10 36
M  V30 40 1 11 37
M  V30 41 1 12 38
M  V30 42 1 18 39
M  V30 43 1 20 40
M  V30 44 1 21 41
M  V30 45 1 22 42
M  V30 46 1 23 43
M  V30 47 1 24 44
M  V30 END BOND
M  V30 END CTAB
M  END
>  <Structure No>
8630

>  <LogS>
-4.35

>  <MMFF94 Energy>
114.47

$$$$
Compound 8631
Actelion Java MolfileCreator 2.0

  0  0  0  0  0  0              0 V3000
M  V30 BEGIN CTAB
M  V30 COUNTS 29 30 0 0 0
M  V30 BEGIN ATOM
M  V30 1 O 5.1191 1.6775 -0.9583 0
M  V30 2 C 4.8793 0.4483 -0.8143 0
M  V30 3 N 3.5545 -0.0023 -0.5304 0
M  V30 4 N 5.9373 -0.4988 -0.935 0
M  V30 5 N 2.5909 0.8189 -0.4126 0
M  V30 6 C 1.2489 0.4021 -0.1267 0
M  V30 7 C 0.9386 -0.7704 0.6299 0
M  V30 8 C 0.2012 1.1869 -0.644 0
M  V30 9 O 1.9129 -1.5307 1.279 0
M  V30 10 C -0.4016 -1.1708 0.7737 0
M  V30 11 C -1.1162 0.7725 -0.4556 0
M  V30 12 C -1.4057 -0.3774 0.2184 0
M  V30 13 C -2.3667 1.4285 -0.9387 0 CFG=2
M  V30 14 N -2.8013 -0.6062 0.2684 0
M  V30 15 O -2.4892 2.7005 -0.3626 0
M  V30 16 C -3.487 0.4757 -0.4356 0
M  V30 17 C -3.4598 -1.7407 0.9051 0
M  V30 18 H 5.7473 -1.5184 -0.8158 0
M  V30 19 H 6.9102 -0.1818 -1.1423 0
M  V30 20 H 0.4121 2.0873 -1.2074 0
M  V30 21 H 2.8629 -1.2177 1.4205 0
M  V30 22 H -0.6493 -2.0648 1.3313 0
M  V30 23 H -2.3557 1.4899 -2.051 0
M  V30 24 H -3.2368 3.1495 -0.8365 0
M  V30 25 H -4.0583 0.0624 -1.2944 0
M  V30 26 H -4.1824 0.9946 0.2594 0
M  V30 27 H -3.1099 -2.6853 0.4392 0
M  V30 28 H -4.5609 -1.6656 0.7821 0
M  V30 29 H -3.2196 -1.7516 1.9888 0
M  V30 END ATOM
M  V30 BEGIN BOND
M  V30 1 2 1 2
M  V30 2 1 2 3
M  V30 3 1 2 4
M  V30 4 2 3 5
M  V30 5 1 5 6
M  V30 6 2 6 7
M  V30 7 1 6 8
M  V30 8 1 7 9
M  V30 9 1 7 10
M  V30 10 2 8 11
M  V30 11 2 10 12
M  V30 12 1 11 13
M  V30 13 1 12 14
M  V30 14 1 13 15
M  V30 15 1 13 16
M  V30 16 1 14 17
M  V30 17 1 11 12
M  V30 18 1 14 16
M  V30 19 1 4 18
M  V30 20 1 4 19
M  V30 21 1 8 20
M  V30 22 1 9 21
M  V30 23 1 10 22
M  V30 24 1 13 23
M  V30 25 1 15 24
M  V30 26 1 16 25
M  V30 27 1 16 26
M  V30 28 1 17 27
M  V30 29 1 17 28
M  V30 30 1 17 29
M  V30 END BOND
M  V30 BEGIN COLLECTION
M  V30 MDLV30/STEABS ATOMS=(1 13)
M  V30 END COLLECTION
M  V30 END CTAB
M  END
>  <Structure No>
8631

>  <LogS>
-2.72

>  <MMFF94 Energy>
26.314

$$$$
Compound 8632
Actelion Java MolfileCreator 2.0

  0  0  0  0  0  0              0 V3000
M  V30 BEGIN CTAB
M  V30 COUNTS 24 24 0 0 0
M  V30 BEGIN ATOM
M  V30 1 O 5.3453 -0.0796 1.4339 0
M  V30 2 C 4.8627 0.1401 0.291 0
M  V30 3 O 5.7269 0.4023 -0.7659 0 CHG=-1
M  V30 4 C 3.399 0.1197 0.0754 0
M  V30 5 C 2.5201 -0.1448 1.1412 0
M  V30 6 C 2.866 0.3656 -1.2016 0
M  V30 7 C 1.1376 -0.163 0.9326 0
M  V30 8 C 1.4833 0.347 -1.4083 0
M  V30 9 C 0.6108 0.0836 -0.3469 0
M  V30 10 N -0.8 0.0725 -0.5952 0
M  V30 11 N -1.6484 -0.1599 0.3249 0
M  V30 12 N -3.0301 -0.1673 0.0657 0
M  V30 13 C -3.5393 0.0948 -1.2835 0
M  V30 14 C -3.9362 -0.4429 1.1775 0
M  V30 15 H 2.9002 -0.338 2.1367 0
M  V30 16 H 3.5161 0.5725 -2.0424 0
M  V30 17 H 0.4833 -0.3693 1.77 0
M  V30 18 H 1.0893 0.5386 -2.3987 0
M  V30 19 H -3.1373 -0.6643 -1.9866 0
M  V30 20 H -3.217 1.1048 -1.6128 0
M  V30 21 H -4.6482 0.0522 -1.3182 0
M  V30 22 H -4.9988 -0.4229 0.8564 0
M  V30 23 H -3.7923 0.3207 1.9702 0
M  V30 24 H -3.7127 -1.4462 1.5969 0
M  V30 END ATOM
M  V30 BEGIN BOND
M  V30 1 2 1 2
M  V30 2 1 2 3
M  V30 3 1 2 4
M  V30 4 2 4 5
M  V30 5 1 4 6
M  V30 6 1 5 7
M  V30 7 2 6 8
M  V30 8 2 7 9
M  V30 9 1 9 10
M  V30 10 2 10 11
M  V30 11 1 11 12
M  V30 12 1 12 13
M  V30 13 1 12 14
M  V30 14 1 8 9
M  V30 15 1 5 15
M  V30 16 1 6 16
M  V30 17 1 7 17
M  V30 18 1 8 18
M  V30 19 1 13 19
M  V30 20 1 13 20
M  V30 21 1 13 21
M  V30 22 1 14 22
M  V30 23 1 14 23
M  V30 24 1 14 24
M  V30 END BOND
M  V30 END CTAB
M  END
>  <Structure No>
8632

>  <LogS>
-0.8

>  <MMFF94 Energy>
43.64

$$$$
Compound 8633
Actelion Java MolfileCreator 2.0

  0  0  0  0  0  0              0 V3000
M  V30 BEGIN CTAB
M  V30 COUNTS 34 35 0 0 0
M  V30 BEGIN ATOM
M  V30 1 O 2.6982 -1.9834 1.7452 0
M  V30 2 C 2.0323 -1.0332 1.2506 0
M  V30 3 N 2.0031 -0.8517 -0.1737 0
M  V30 4 C 1.2392 -0.1377 2.1795 0 CFG=1
M  V30 5 C 2.6436 -1.812 -1.071 0
M  V30 6 N 1.3983 1.2831 1.8413 0 CHG=1
M  V30 7 C -0.2476 -0.5546 2.2602 0
M  V30 8 C 2.3687 -1.4667 -2.4998 0
M  V30 9 C -0.9725 -0.4884 0.9435 0
M  V30 10 O 1.2535 -1.7469 -3.0137 0
M  V30 11 O 3.3275 -0.7994 -3.2522 0 CHG=-1
M  V30 12 C -1.6662 0.5806 0.4085 0
M  V30 13 C -1.0504 -1.5013 -0.0091 0
M  V30 14 C -2.1229 0.1811 -0.8218 0
M  V30 15 C -1.9297 1.8563 0.9101 0
M  V30 16 N -1.754 -1.0842 -1.0862 0
M  V30 17 C -2.8678 1.0313 -1.6382 0
M  V30 18 C -2.6805 2.7352 0.1084 0
M  V30 19 C -3.1463 2.3249 -1.1604 0
M  V30 20 H 1.4722 -0.0493 -0.5807 0
M  V30 21 H 1.656 -0.28 3.2034 0
M  V30 22 H 2.2533 -2.8318 -0.8632 0
M  V30 23 H 3.7403 -1.81 -0.8946 0
M  V30 24 H 2.4154 1.5252 1.8008 0
M  V30 25 H 0.9561 1.5146 0.9247 0
M  V30 26 H 0.9529 1.8714 2.583 0
M  V30 27 H -0.7702 0.0895 2.9999 0
M  V30 28 H -0.3099 -1.5951 2.6465 0
M  V30 29 H -0.6073 -2.4846 0.0781 0
M  V30 30 H -1.5744 2.1644 1.8843 0
M  V30 31 H -1.9634 -1.6353 -1.9479 0
M  V30 32 H -3.2217 0.7079 -2.6085 0
M  V30 33 H -2.9053 3.7313 0.4676 0
M  V30 34 H -3.7251 3.0093 -1.7678 0
M  V30 END ATOM
M  V30 BEGIN BOND
M  V30 1 2 1 2
M  V30 2 1 2 3
M  V30 3 1 2 4
M  V30 4 1 3 5
M  V30 5 1 4 6
M  V30 6 1 4 7
M  V30 7 1 5 8
M  V30 8 1 7 9
M  V30 9 2 8 10
M  V30 10 1 8 11
M  V30 11 1 9 12
M  V30 12 2 9 13
M  V30 13 2 12 14
M  V30 14 1 12 15
M  V30 15 1 13 16
M  V30 16 1 14 17
M  V30 17 2 15 18
M  V30 18 2 17 19
M  V30 19 1 14 16
M  V30 20 1 18 19
M  V30 21 1 3 20
M  V30 22 1 4 21
M  V30 23 1 5 22
M  V30 24 1 5 23
M  V30 25 1 6 24
M  V30 26 1 6 25
M  V30 27 1 6 26
M  V30 28 1 7 27
M  V30 29 1 7 28
M  V30 30 1 13 29
M  V30 31 1 15 30
M  V30 32 1 16 31
M  V30 33 1 17 32
M  V30 34 1 18 33
M  V30 35 1 19 34
M  V30 END BOND
M  V30 BEGIN COLLECTION
M  V30 MDLV30/STEABS ATOMS=(1 4)
M  V30 END COLLECTION
M  V30 END CTAB
M  END
>  <Structure No>
8633

>  <LogS>
-0.85

>  <MMFF94 Energy>
-1.7561

$$$$
Compound 8634
Actelion Java MolfileCreator 2.0

  0  0  0  0  0  0              0 V3000
M  V30 BEGIN CTAB
M  V30 COUNTS 28 29 0 0 0
M  V30 BEGIN ATOM
M  V30 1 F -2.645 -0.1601 -1.442 0
M  V30 2 C -2.4366 -0.968 -0.3344 0 CFG=2
M  V30 3 C -2.4106 -0.1631 0.9616 0 CFG=1
M  V30 4 C -1.0539 -1.5658 -0.3931 0
M  V30 5 O -1.08 0.2225 1.2045 0
M  V30 6 C -3.3334 1.0621 0.9501 0
M  V30 7 C -0.2734 -0.813 0.6873 0 CFG=2
M  V30 8 O -2.8346 2.0494 0.0897 0
M  V30 9 N 0.9915 -0.2668 0.1541 0
M  V30 10 C 1.0116 0.8167 -0.6914 0
M  V30 11 C 2.1686 -0.8834 0.4803 0
M  V30 12 O -0.0572 1.389 -1.0347 0
M  V30 13 N 2.191 1.2848 -1.177 0
M  V30 14 C 3.3816 -0.409 -0.0134 0
M  V30 15 C 3.3721 0.7007 -0.8552 0
M  V30 16 N 4.5911 1.2221 -1.3848 0
M  V30 17 H -3.2209 -1.7556 -0.302 0
M  V30 18 H -2.7416 -0.8263 1.7944 0
M  V30 19 H -0.6058 -1.4427 -1.4038 0
M  V30 20 H -1.0912 -2.6514 -0.1528 0
M  V30 21 H -3.3961 1.4725 1.9827 0
M  V30 22 H -4.3553 0.7569 0.6311 0
M  V30 23 H -0.0658 -1.5168 1.5272 0
M  V30 24 H -3.4829 2.7998 0.1267 0
M  V30 25 H 2.1788 -1.7516 1.1286 0
M  V30 26 H 4.3095 -0.899 0.2535 0
M  V30 27 H 5.5097 0.7843 -1.1497 0
M  V30 28 H 4.5766 2.053 -2.017 0
M  V30 END ATOM
M  V30 BEGIN BOND
M  V30 1 1 1 2
M  V30 2 1 2 3
M  V30 3 1 2 4
M  V30 4 1 3 5
M  V30 5 1 3 6
M  V30 6 1 4 7
M  V30 7 1 6 8
M  V30 8 1 7 9
M  V30 9 1 9 10
M  V30 10 1 9 11
M  V30 11 2 10 12
M  V30 12 1 10 13
M  V30 13 2 11 14
M  V30 14 2 13 15
M  V30 15 1 15 16
M  V30 16 1 5 7
M  V30 17 1 14 15
M  V30 18 1 2 17
M  V30 19 1 3 18
M  V30 20 1 4 19
M  V30 21 1 4 20
M  V30 22 1 6 21
M  V30 23 1 6 22
M  V30 24 1 7 23
M  V30 25 1 8 24
M  V30 26 1 11 25
M  V30 27 1 14 26
M  V30 28 1 16 27
M  V30 29 1 16 28
M  V30 END BOND
M  V30 BEGIN COLLECTION
M  V30 MDLV30/STEABS ATOMS=(3 2 3 7)
M  V30 END COLLECTION
M  V30 END CTAB
M  END
>  <Structure No>
8634

>  <LogS>
-1.18

>  <MMFF94 Energy>
-56.818

$$$$
Compound 8635
Actelion Java MolfileCreator 2.0

  0  0  0  0  0  0              0 V3000
M  V30 BEGIN CTAB
M  V30 COUNTS 27 28 0 0 0
M  V30 BEGIN ATOM
M  V30 1 Cl 4.4491 2.7995 -1.3167 0
M  V30 2 C 3.6304 1.4289 -0.5702 0
M  V30 3 C 4.3216 0.3605 0.0578 0
M  V30 4 C 2.2313 1.4104 -0.6419 0
M  V30 5 C 5.8027 0.3141 0.1813 0
M  V30 6 C 3.5709 -0.7055 0.5889 0
M  V30 7 C 1.4985 0.3493 -0.105 0
M  V30 8 O 6.5124 1.3264 -0.0535 0
M  V30 9 O 6.4324 -0.8584 0.5841 0 CHG=-1
M  V30 10 C 2.177 -0.7119 0.5108 0
M  V30 11 N 0.0692 0.3738 -0.2021 0
M  V30 12 N -0.6582 -0.5603 0.2645 0
M  V30 13 C -2.0871 -0.5351 0.167 0
M  V30 14 C -2.8224 -1.5992 0.7041 0
M  V30 15 C -2.767 0.5295 -0.4532 0
M  V30 16 C -4.2185 -1.605 0.6255 0
M  V30 17 C -4.1633 0.5219 -0.5309 0
M  V30 18 C -4.8928 -0.5461 0.0086 0
M  V30 19 O -6.2839 -0.5646 -0.0627 0
M  V30 20 H 1.7078 2.2272 -1.1243 0
M  V30 21 H 4.0609 -1.5385 1.0773 0
M  V30 22 H 1.6317 -1.5462 0.9332 0
M  V30 23 H -2.3112 -2.4245 1.184 0
M  V30 24 H -2.2219 1.3637 -0.8759 0
M  V30 25 H -4.7768 -2.4327 1.044 0
M  V30 26 H -4.6769 1.3457 -1.0101 0
M  V30 27 H -6.8014 0.1872 -0.5029 0
M  V30 END ATOM
M  V30 BEGIN BOND
M  V30 1 1 1 2
M  V30 2 2 2 3
M  V30 3 1 2 4
M  V30 4 1 3 5
M  V30 5 1 3 6
M  V30 6 2 4 7
M  V30 7 2 5 8
M  V30 8 1 5 9
M  V30 9 2 6 10
M  V30 10 1 7 11
M  V30 11 2 11 12
M  V30 12 1 12 13
M  V30 13 2 13 14
M  V30 14 1 13 15
M  V30 15 1 14 16
M  V30 16 2 15 17
M  V30 17 2 16 18
M  V30 18 1 18 19
M  V30 19 1 7 10
M  V30 20 1 17 18
M  V30 21 1 4 20
M  V30 22 1 6 21
M  V30 23 1 10 22
M  V30 24 1 14 23
M  V30 25 1 15 24
M  V30 26 1 16 25
M  V30 27 1 17 26
M  V30 28 1 19 27
M  V30 END BOND
M  V30 END CTAB
M  END
>  <Structure No>
8635

>  <LogS>
-2.62

>  <MMFF94 Energy>
34.162

$$$$
Compound 8636
Actelion Java MolfileCreator 2.0

  0  0  0  0  0  0              0 V3000
M  V30 BEGIN CTAB
M  V30 COUNTS 36 37 0 0 0
M  V30 BEGIN ATOM
M  V30 1 O 5.7185 -2.0912 -0.5627 0
M  V30 2 N 5.6871 -0.8465 -0.6567 0 CHG=1
M  V30 3 O 6.8525 -0.1744 -0.9467 0 CHG=-1
M  V30 4 C 4.4556 -0.126 -0.4658 0
M  V30 5 C 3.2615 -0.8098 -0.1688 0
M  V30 6 C 4.428 1.2743 -0.5734 0
M  V30 7 C 2.0589 -0.1154 0.0151 0
M  V30 8 C 3.2343 1.974 -0.3864 0
M  V30 9 O 0.9057 -0.863 0.3101 0
M  V30 10 C 2.0542 1.2885 -0.0919 0
M  V30 11 C -0.4259 -0.3526 0.4074 0 CFG=2
M  V30 12 O -1.2215 -1.3366 1.0496 0
M  V30 13 C -0.9672 -0.0482 -1.0026 0 CFG=1
M  V30 14 C -2.5664 -0.9163 1.2509 0 CFG=2
M  V30 15 O -0.8884 -1.2082 -1.7931 0
M  V30 16 C -2.4222 0.444 -0.8966 0 CFG=2
M  V30 17 C -3.2715 -0.5425 -0.0791 0 CFG=1
M  V30 18 C -2.6874 0.1735 2.3405 0
M  V30 19 O -2.9848 0.6092 -2.1731 0
M  V30 20 O -3.498 -1.7054 -0.8362 0
M  V30 21 O -4.0163 0.2939 2.7734 0
M  V30 22 H 3.2584 -1.8889 -0.0811 0
M  V30 23 H 5.3289 1.8294 -0.8003 0
M  V30 24 H 3.2243 3.0533 -0.4686 0
M  V30 25 H 1.1516 1.8641 0.0518 0
M  V30 26 H -0.3999 0.569 1.0258 0
M  V30 27 H -0.3517 0.7605 -1.4586 0
M  V30 28 H -3.1026 -1.8024 1.6565 0
M  V30 29 H -0.8893 -0.9134 -2.741 0
M  V30 30 H -2.4279 1.4278 -0.3717 0
M  V30 31 H -4.2505 -0.0538 0.1394 0
M  V30 32 H -2.3624 1.161 1.9563 0
M  V30 33 H -2.028 -0.0822 3.2012 0
M  V30 34 H -2.5585 1.4121 -2.5726 0
M  V30 35 H -4.2865 -2.1599 -0.439 0
M  V30 36 H -4.1871 -0.4669 3.3877 0
M  V30 END ATOM
M  V30 BEGIN BOND
M  V30 1 2 1 2
M  V30 2 1 2 3
M  V30 3 1 2 4
M  V30 4 2 4 5
M  V30 5 1 4 6
M  V30 6 1 5 7
M  V30 7 2 6 8
M  V30 8 1 7 9
M  V30 9 2 7 10
M  V30 10 1 9 11
M  V30 11 1 11 12
M  V30 12 1 11 13
M  V30 13 1 12 14
M  V30 14 1 13 15
M  V30 15 1 13 16
M  V30 16 1 14 17
M  V30 17 1 14 18
M  V30 18 1 16 19
M  V30 19 1 17 20
M  V30 20 1 18 21
M  V30 21 1 8 10
M  V30 22 1 16 17
M  V30 23 1 5 22
M  V30 24 1 6 23
M  V30 25 1 8 24
M  V30 26 1 10 25
M  V30 27 1 11 26
M  V30 28 1 13 27
M  V30 29 1 14 28
M  V30 30 1 15 29
M  V30 31 1 16 30
M  V30 32 1 17 31
M  V30 33 1 18 32
M  V30 34 1 18 33
M  V30 35 1 19 34
M  V30 36 1 20 35
M  V30 37 1 21 36
M  V30 END BOND
M  V30 BEGIN COLLECTION
M  V30 MDLV30/STEABS ATOMS=(5 11 13 14 16 17)
M  V30 END COLLECTION
M  V30 END CTAB
M  END
>  <Structure No>
8636

>  <LogS>
-1.28

>  <MMFF94 Energy>
145.34

$$$$
Compound 8637
Actelion Java MolfileCreator 2.0

  0  0  0  0  0  0              0 V3000
M  V30 BEGIN CTAB
M  V30 COUNTS 43 46 0 0 0
M  V30 BEGIN ATOM
M  V30 1 O -4.8731 -1.2166 -0.892 0
M  V30 2 C -4.5692 -0.8251 0.2663 0
M  V30 3 O -5.5509 -0.7829 1.2485 0 CHG=-1
M  V30 4 C -3.1737 -0.3506 0.588 0 CFG=2
M  V30 5 C -2.9532 1.1242 0.1672 0 CFG=1
M  V30 6 C -2.0608 -1.2319 -0.0536 0
M  V30 7 C -1.5867 1.5605 0.7314 0
M  V30 8 C -2.877 1.225 -1.374 0
M  V30 9 N -1.0663 -0.3892 -0.7696 0 CHG=1 CFG=2
M  V30 10 C -0.4681 0.6664 0.1117 0 CFG=2
M  V30 11 C -1.7636 0.2804 -1.8987 0
M  V30 12 C 0.5247 0.1338 1.1896 0 CFG=1
M  V30 13 O -0.1541 -0.5961 2.1814 0
M  V30 14 C 1.6574 -0.6834 0.5678 0
M  V30 15 C 2.7831 -0.0787 -0.0617 0
M  V30 16 C 1.5675 -2.0896 0.5705 0
M  V30 17 C 3.7736 -0.9188 -0.6374 0
M  V30 18 C 2.9634 1.3211 -0.1437 0
M  V30 19 C 2.5693 -2.8623 -0.0104 0
M  V30 20 N 3.6381 -2.2687 -0.5932 0
M  V30 21 C 4.8975 -0.3658 -1.2615 0
M  V30 22 C 4.0907 1.8578 -0.772 0
M  V30 23 C 5.0549 1.018 -1.3276 0
M  V30 24 H -3.0642 -0.4156 1.6942 0
M  V30 25 H -3.7591 1.7793 0.5657 0
M  V30 26 H -2.4896 -1.9768 -0.7611 0
M  V30 27 H -1.5692 -1.8519 0.7211 0
M  V30 28 H -1.6049 1.4945 1.8413 0
M  V30 29 H -1.4029 2.6288 0.4807 0
M  V30 30 H -2.6519 2.2736 -1.6687 0
M  V30 31 H -3.8543 0.9629 -1.8311 0
M  V30 32 H -0.3188 -1.0007 -1.1715 0
M  V30 33 H 0.1402 1.3381 -0.536 0
M  V30 34 H -2.2075 -0.4783 -2.5823 0
M  V30 35 H -1.036 0.8601 -2.5105 0
M  V30 36 H 0.9638 1.0212 1.6979 0
M  V30 37 H 0.4705 -0.6972 2.947 0
M  V30 38 H 0.7232 -2.5968 1.0173 0
M  V30 39 H 2.2489 2.0196 0.2638 0
M  V30 40 H 2.4946 -3.9415 -6.0E-4 0
M  V30 41 H 5.6508 -1.0096 -1.6988 0
M  V30 42 H 4.2163 2.9315 -0.8285 0
M  V30 43 H 5.9254 1.4408 -1.8125 0
M  V30 END ATOM
M  V30 BEGIN BOND
M  V30 1 2 1 2
M  V30 2 1 2 3
M  V30 3 1 2 4
M  V30 4 1 4 5
M  V30 5 1 4 6
M  V30 6 1 5 7
M  V30 7 1 5 8
M  V30 8 1 6 9
M  V30 9 1 7 10
M  V30 10 1 8 11
M  V30 11 1 10 12
M  V30 12 1 12 13
M  V30 13 1 12 14
M  V30 14 1 14 15
M  V30 15 2 14 16
M  V30 16 1 15 17
M  V30 17 2 15 18
M  V30 18 1 16 19
M  V30 19 1 17 20
M  V30 20 2 17 21
M  V30 21 1 18 22
M  V30 22 1 21 23
M  V30 23 1 9 10
M  V30 24 1 9 11
M  V30 25 2 19 20
M  V30 26 2 22 23
M  V30 27 1 4 24
M  V30 28 1 5 25
M  V30 29 1 6 26
M  V30 30 1 6 27
M  V30 31 1 7 28
M  V30 32 1 7 29
M  V30 33 1 8 30
M  V30 34 1 8 31
M  V30 35 1 9 32
M  V30 36 1 10 33
M  V30 37 1 11 34
M  V30 38 1 11 35
M  V30 39 1 12 36
M  V30 40 1 13 37
M  V30 41 1 16 38
M  V30 42 1 18 39
M  V30 43 1 19 40
M  V30 44 1 21 41
M  V30 45 1 22 42
M  V30 46 1 23 43
M  V30 END BOND
M  V30 BEGIN COLLECTION
M  V30 MDLV30/STEABS ATOMS=(5 4 5 9 10 12)
M  V30 END COLLECTION
M  V30 END CTAB
M  END
>  <Structure No>
8637

>  <LogS>
-1.94

>  <MMFF94 Energy>
12.751

$$$$
Compound 8638
Actelion Java MolfileCreator 2.0

  0  0  0  0  0  0              0 V3000
M  V30 BEGIN CTAB
M  V30 COUNTS 29 30 0 0 0
M  V30 BEGIN ATOM
M  V30 1 O -2.123 1.5511 2.123 0
M  V30 2 N -3.2131 1.4755 1.5198 0 CHG=1
M  V30 3 O -4.2486 2.2823 1.9337 0 CHG=-1
M  V30 4 C -3.4192 0.5149 0.4623 0
M  V30 5 C -2.3345 -0.1249 -0.1913 0
M  V30 6 C -4.7334 0.2065 0.0617 0
M  V30 7 N -0.9833 0.1976 0.1684 0
M  V30 8 C -2.5956 -1.0606 -1.2117 0
M  V30 9 C -4.973 -0.722 -0.9522 0
M  V30 10 N 0.0216 -0.3453 -0.3928 0
M  V30 11 C -3.9068 -1.3558 -1.5859 0
M  V30 12 C 1.3679 -0.0178 -0.0281 0
M  V30 13 C 2.4223 -0.6543 -0.6911 0
M  V30 14 C 1.6513 0.9306 0.9665 0
M  V30 15 C 3.7614 -0.3571 -0.3764 0
M  V30 16 C 2.974 1.2197 1.3028 0
M  V30 17 C 4.0335 0.5712 0.6588 0
M  V30 18 C 4.8345 -0.9998 -1.1665 0
M  V30 19 O 5.3294 0.8484 1.0986 0
M  V30 20 O 4.6798 -2.1689 -1.6094 0
M  V30 21 O 5.9936 -0.3048 -1.4895 0 CHG=-1
M  V30 22 H -5.5811 0.678 0.5418 0
M  V30 23 H -1.7848 -1.5613 -1.725 0
M  V30 24 H -5.9892 -0.9518 -1.2456 0
M  V30 25 H -4.096 -2.0755 -2.3718 0
M  V30 26 H 2.1929 -1.366 -1.4757 0
M  V30 27 H 0.8528 1.4411 1.4896 0
M  V30 28 H 3.1786 1.9374 2.0874 0
M  V30 29 H 6.1383 0.3102 0.8205 0
M  V30 END ATOM
M  V30 BEGIN BOND
M  V30 1 2 1 2
M  V30 2 1 2 3
M  V30 3 1 2 4
M  V30 4 2 4 5
M  V30 5 1 4 6
M  V30 6 1 5 7
M  V30 7 1 5 8
M  V30 8 2 6 9
M  V30 9 2 7 10
M  V30 10 2 8 11
M  V30 11 1 10 12
M  V30 12 2 12 13
M  V30 13 1 12 14
M  V30 14 1 13 15
M  V30 15 2 14 16
M  V30 16 2 15 17
M  V30 17 1 15 18
M  V30 18 1 17 19
M  V30 19 2 18 20
M  V30 20 1 18 21
M  V30 21 1 9 11
M  V30 22 1 16 17
M  V30 23 1 6 22
M  V30 24 1 8 23
M  V30 25 1 9 24
M  V30 26 1 11 25
M  V30 27 1 13 26
M  V30 28 1 14 27
M  V30 29 1 16 28
M  V30 30 1 19 29
M  V30 END BOND
M  V30 END CTAB
M  END
>  <Structure No>
8638

>  <LogS>
-2.01

>  <MMFF94 Energy>
49.673

$$$$
Compound 8639
Actelion Java MolfileCreator 2.0

  0  0  0  0  0  0              0 V3000
M  V30 BEGIN CTAB
M  V30 COUNTS 44 46 0 0 0
M  V30 BEGIN ATOM
M  V30 1 O 2.0269 -2.2703 -1.7835 0
M  V30 2 C 1.0493 -2.295 -0.9883 0
M  V30 3 C 0.6955 -3.4434 -0.1852 0
M  V30 4 C 0.0053 -1.219 -0.8671 0 CFG=2
M  V30 5 C -0.3577 -3.1462 0.5524 0
M  V30 6 C 0.6101 0.2362 -0.793 0 CFG=2
M  V30 7 C -0.6956 -1.679 0.4625 0 CFG=2
M  V30 8 C -0.8783 -1.4014 -2.1347 0
M  V30 9 O 1.9822 0.1725 -0.3845 0
M  V30 10 C -0.132 1.1999 0.1814 0 CFG=2
M  V30 11 C -2.2052 -1.2961 0.6031 0 CFG=2
M  V30 12 C 3.0451 0.754 -1.0876 0
M  V30 13 C -1.68 1.1942 0.0389 0 CFG=1
M  V30 14 C 0.2765 2.6877 0.0061 0 CFG=1
M  V30 15 C -2.3815 0.1997 0.9823 0
M  V30 16 C -2.9173 -2.1495 1.6681 0
M  V30 17 O 2.8511 1.3686 -2.1711 0
M  V30 18 C 4.4328 0.6022 -0.5666 0
M  V30 19 O -2.0756 2.5192 0.3447 0
M  V30 20 C -1.0088 3.3843 0.2556 0
M  V30 21 C 1.3498 3.1413 1.005 0
M  V30 22 O -1.1355 4.6335 0.3519 0
M  V30 23 H 1.1971 -4.402 -0.1922 0
M  V30 24 H -0.7597 -3.8349 1.2832 0
M  V30 25 H 0.5453 0.6762 -1.813 0
M  V30 26 H -0.1601 -1.2487 1.3361 0
M  V30 27 H -1.7027 -0.6756 -2.211 0
M  V30 28 H -0.2636 -1.2782 -3.0531 0
M  V30 29 H -1.327 -2.4187 -2.1625 0
M  V30 30 H 0.1242 0.9142 1.2255 0
M  V30 31 H -2.7463 -1.4845 -0.3456 0
M  V30 32 H -1.9845 1.021 -1.007 0
M  V30 33 H 0.6051 2.9028 -1.0338 0
M  V30 34 H -3.4684 0.4365 0.971 0
M  V30 35 H -2.0271 0.3714 2.0231 0
M  V30 36 H -3.9511 -1.779 1.8381 0
M  V30 37 H -2.3646 -2.1165 2.6317 0
M  V30 38 H -3.0048 -3.2026 1.3287 0
M  V30 39 H 5.0201 1.522 -0.7716 0
M  V30 40 H 4.92 -0.2636 -1.0606 0
M  V30 41 H 4.4082 0.4303 0.5298 0
M  V30 42 H 2.278 2.5511 0.8728 0
M  V30 43 H 1.595 4.2114 0.8364 0
M  V30 44 H 0.9959 3.0173 2.0515 0
M  V30 END ATOM
M  V30 BEGIN BOND
M  V30 1 2 1 2
M  V30 2 1 2 3
M  V30 3 1 2 4
M  V30 4 2 3 5
M  V30 5 1 4 6
M  V30 6 1 4 7
M  V30 7 1 4 8
M  V30 8 1 6 9
M  V30 9 1 6 10
M  V30 10 1 7 11
M  V30 11 1 9 12
M  V30 12 1 10 13
M  V30 13 1 10 14
M  V30 14 1 11 15
M  V30 15 1 11 16
M  V30 16 2 12 17
M  V30 17 1 12 18
M  V30 18 1 13 19
M  V30 19 1 14 20
M  V30 20 1 14 21
M  V30 21 2 20 22
M  V30 22 1 5 7
M  V30 23 1 13 15
M  V30 24 1 19 20
M  V30 25 1 3 23
M  V30 26 1 5 24
M  V30 27 1 6 25
M  V30 28 1 7 26
M  V30 29 1 8 27
M  V30 30 1 8 28
M  V30 31 1 8 29
M  V30 32 1 10 30
M  V30 33 1 11 31
M  V30 34 1 13 32
M  V30 35 1 14 33
M  V30 36 1 15 34
M  V30 37 1 15 35
M  V30 38 1 16 36
M  V30 39 1 16 37
M  V30 40 1 16 38
M  V30 41 1 18 39
M  V30 42 1 18 40
M  V30 43 1 18 41
M  V30 44 1 21 42
M  V30 45 1 21 43
M  V30 46 1 21 44
M  V30 END BOND
M  V30 BEGIN COLLECTION
M  V30 MDLV30/STEABS ATOMS=(7 4 6 7 10 11 13 14)
M  V30 END COLLECTION
M  V30 END CTAB
M  END
>  <Structure No>
8639

>  <LogS>
-2.19

>  <MMFF94 Energy>
30.641

$$$$
Compound 8640
Actelion Java MolfileCreator 2.0

  0  0  0  0  0  0              0 V3000
M  V30 BEGIN CTAB
M  V30 COUNTS 31 32 0 0 0
M  V30 BEGIN ATOM
M  V30 1 O 1.2296 -0.4097 -2.3783 0
M  V30 2 C 1.645 0.103 -1.3052 0
M  V30 3 N 1.2252 -0.3318 -0.027 0
M  V30 4 C 2.6215 1.2076 -1.2457 0
M  V30 5 C 1.9082 0.432 1.005 0 CFG=2
M  V30 6 C 0.2169 -1.3617 0.2175 0
M  V30 7 C 2.6896 1.5388 0.2546 0
M  V30 8 C 2.8346 -0.4595 1.7815 0
M  V30 9 N -1.1042 -0.8858 -0.1984 0
M  V30 10 O 2.8399 -0.4221 3.0399 0
M  V30 11 O 3.7107 -1.3087 1.1162 0 CHG=-1
M  V30 12 C -2.1015 -1.7267 -0.7502 0
M  V30 13 C -1.7372 0.3135 0.3386 0 CFG=1
M  V30 14 O -1.8493 -2.8491 -1.2638 0
M  V30 15 C -3.4594 -1.1553 -0.6677 0
M  V30 16 C -1.3114 1.5189 -0.45 0
M  V30 17 C -3.2625 0.0805 0.2193 0
M  V30 18 O -0.8728 2.5395 0.1423 0
M  V30 19 O -1.4181 1.5226 -1.8357 0 CHG=-1
M  V30 20 H 2.2653 2.0788 -1.8363 0
M  V30 21 H 3.6079 0.8585 -1.6187 0
M  V30 22 H 1.158 0.8915 1.6866 0
M  V30 23 H 0.1854 -1.6179 1.2983 0
M  V30 24 H 0.4973 -2.2794 -0.3422 0
M  V30 25 H 2.1982 2.5202 0.4349 0
M  V30 26 H 3.7474 1.619 0.5905 0
M  V30 27 H -1.4592 0.4416 1.409 0
M  V30 28 H -3.8047 -0.8619 -1.6821 0
M  V30 29 H -4.1669 -1.8773 -0.2063 0
M  V30 30 H -3.8014 0.9584 -0.2018 0
M  V30 31 H -3.6805 -0.1255 1.2294 0
M  V30 END ATOM
M  V30 BEGIN BOND
M  V30 1 2 1 2
M  V30 2 1 2 3
M  V30 3 1 2 4
M  V30 4 1 3 5
M  V30 5 1 3 6
M  V30 6 1 4 7
M  V30 7 1 5 8
M  V30 8 1 6 9
M  V30 9 2 8 10
M  V30 10 1 8 11
M  V30 11 1 9 12
M  V30 12 1 9 13
M  V30 13 2 12 14
M  V30 14 1 12 15
M  V30 15 1 13 16
M  V30 16 1 13 17
M  V30 17 2 16 18
M  V30 18 1 16 19
M  V30 19 1 5 7
M  V30 20 1 15 17
M  V30 21 1 4 20
M  V30 22 1 4 21
M  V30 23 1 5 22
M  V30 24 1 6 23
M  V30 25 1 6 24
M  V30 26 1 7 25
M  V30 27 1 7 26
M  V30 28 1 13 27
M  V30 29 1 15 28
M  V30 30 1 15 29
M  V30 31 1 17 30
M  V30 32 1 17 31
M  V30 END BOND
M  V30 BEGIN COLLECTION
M  V30 MDLV30/STEABS ATOMS=(2 5 13)
M  V30 END COLLECTION
M  V30 END CTAB
M  END
>  <Structure No>
8640

>  <LogS>
-1.31

>  <MMFF94 Energy>
97.92

$$$$
Compound 8641
Actelion Java MolfileCreator 2.0

  0  0  0  0  0  0              0 V3000
M  V30 BEGIN CTAB
M  V30 COUNTS 36 37 0 0 0
M  V30 BEGIN ATOM
M  V30 1 O -2.8211 -2.1757 -0.8054 0
M  V30 2 C -2.3667 -1.0067 -0.6936 0
M  V30 3 N -3.1753 0.1382 -0.459 0
M  V30 4 N -0.9816 -0.7042 -0.7689 0
M  V30 5 C -2.2272 1.1946 -0.3326 0
M  V30 6 C -4.5635 0.1713 0.0124 0 CFG=1
M  V30 7 C -0.8128 0.7284 -0.5322 0 CFG=1
M  V30 8 O -2.5513 2.3865 -0.0828 0
M  V30 9 C -5.4565 -0.5946 -0.9257 0
M  V30 10 C -4.6509 -0.3428 1.4534 0
M  V30 11 C 0.0363 0.9821 0.7219 0
M  V30 12 O -5.735 -1.8053 -0.7153 0
M  V30 13 O -5.9394 0.0263 -2.0704 0 CHG=-1
M  V30 14 C 1.4584 0.5287 0.519 0
M  V30 15 C 1.8801 -0.7237 0.9908 0
M  V30 16 C 2.3644 1.339 -0.1819 0
M  V30 17 C 3.193 -1.1522 0.7765 0
M  V30 18 C 3.6777 0.9101 -0.3957 0
M  V30 19 C 4.102 -0.3432 0.0851 0
M  V30 20 O 5.408 -0.8188 -0.1035 0
M  V30 21 C 6.4324 -0.1043 -0.787 0
M  V30 22 H -0.2214 -1.3875 -0.9822 0
M  V30 23 H -4.9185 1.2253 0.0127 0
M  V30 24 H -0.3729 1.217 -1.4285 0
M  V30 25 H -4.2973 -1.3938 1.521 0
M  V30 26 H -4.0186 0.2862 2.1154 0
M  V30 27 H -5.6999 -0.2896 1.8156 0
M  V30 28 H 0.0336 2.0695 0.9556 0
M  V30 29 H -0.4142 0.4608 1.5959 0
M  V30 30 H 1.1918 -1.3702 1.521 0
M  V30 31 H 2.052 2.303 -0.5645 0
M  V30 32 H 3.5057 -2.1201 1.1476 0
M  V30 33 H 4.3528 1.5585 -0.9371 0
M  V30 34 H 7.3601 -0.7122 -0.7873 0
M  V30 35 H 6.6373 0.857 -0.2703 0
M  V30 36 H 6.13 0.0836 -1.8388 0
M  V30 END ATOM
M  V30 BEGIN BOND
M  V30 1 2 1 2
M  V30 2 1 2 3
M  V30 3 1 2 4
M  V30 4 1 3 5
M  V30 5 1 3 6
M  V30 6 1 4 7
M  V30 7 2 5 8
M  V30 8 1 6 9
M  V30 9 1 6 10
M  V30 10 1 7 11
M  V30 11 2 9 12
M  V30 12 1 9 13
M  V30 13 1 11 14
M  V30 14 2 14 15
M  V30 15 1 14 16
M  V30 16 1 15 17
M  V30 17 2 16 18
M  V30 18 2 17 19
M  V30 19 1 19 20
M  V30 20 1 20 21
M  V30 21 1 5 7
M  V30 22 1 18 19
M  V30 23 1 4 22
M  V30 24 1 6 23
M  V30 25 1 7 24
M  V30 26 1 10 25
M  V30 27 1 10 26
M  V30 28 1 10 27
M  V30 29 1 11 28
M  V30 30 1 11 29
M  V30 31 1 15 30
M  V30 32 1 16 31
M  V30 33 1 17 32
M  V30 34 1 18 33
M  V30 35 1 21 34
M  V30 36 1 21 35
M  V30 37 1 21 36
M  V30 END BOND
M  V30 BEGIN COLLECTION
M  V30 MDLV30/STEABS ATOMS=(2 6 7)
M  V30 END COLLECTION
M  V30 END CTAB
M  END
>  <Structure No>
8641

>  <LogS>
-0.86

>  <MMFF94 Energy>
4.6313

$$$$
Compound 8642
Actelion Java MolfileCreator 2.0

  0  0  0  0  0  0              0 V3000
M  V30 BEGIN CTAB
M  V30 COUNTS 45 46 0 0 0
M  V30 BEGIN ATOM
M  V30 1 S 1.9512 0.8126 1.9512 0
M  V30 2 O 1.1536 2.0473 1.6333 0
M  V30 3 O 2.5493 0.971 3.3207 0
M  V30 4 N 0.9078 -0.5789 1.9373 0
M  V30 5 C 3.246 0.6048 0.7746 0
M  V30 6 C 0.1892 -0.7049 0.652 0 CFG=2
M  V30 7 C 3.1893 1.2487 -0.4704 0
M  V30 8 C 4.324 -0.2421 1.0673 0
M  V30 9 C -1.2468 -0.3213 0.9014 0
M  V30 10 C 0.2984 -2.1428 0.0521 0
M  V30 11 C 4.2039 1.0479 -1.4112 0
M  V30 12 C 5.3374 -0.4412 0.1248 0
M  V30 13 O -1.912 -0.9425 1.7752 0
M  V30 14 N -1.8585 0.734 0.1447 0
M  V30 15 C -0.6496 -2.3376 -1.1467 0
M  V30 16 C 1.7372 -2.4473 -0.4057 0
M  V30 17 C 5.2777 0.2034 -1.1142 0
M  V30 18 C -3.2716 1.0873 0.315 0 CFG=1
M  V30 19 F 6.2594 0.0075 -2.0285 0
M  V30 20 C -3.6703 2.3043 -0.5045 0 CFG=1
M  V30 21 C -4.1836 0.028 -0.2344 0
M  V30 22 O -5.0399 2.1908 -0.8165 0
M  V30 23 O -3.4432 3.4741 0.2332 0
M  V30 24 C -5.3841 0.8256 -0.7148 0
M  V30 25 H 1.4909 -1.4161 2.1576 0
M  V30 26 H 0.603 -0.0093 -0.1115 0
M  V30 27 H 2.3582 1.8966 -0.7176 0
M  V30 28 H 4.3736 -0.755 2.0194 0
M  V30 29 H 0.0166 -2.8845 0.8324 0
M  V30 30 H 4.1548 1.5446 -2.3717 0
M  V30 31 H 6.166 -1.0984 0.3545 0
M  V30 32 H -1.2638 1.2837 -0.516 0
M  V30 33 H -0.4636 -1.5628 -1.9214 0
M  V30 34 H -0.5017 -3.3406 -1.6007 0
M  V30 35 H -1.7104 -2.2793 -0.8248 0
M  V30 36 H 1.7908 -3.4603 -0.8588 0
M  V30 37 H 2.0737 -1.7043 -1.1605 0
M  V30 38 H 2.4473 -2.4367 0.4442 0
M  V30 39 H -3.4977 1.2631 1.3919 0
M  V30 40 H -3.0939 2.3401 -1.4589 0
M  V30 41 H -3.7097 -0.4931 -1.0966 0
M  V30 42 H -4.4669 -0.7139 0.5436 0
M  V30 43 H -3.6376 4.2314 -0.3782 0
M  V30 44 H -6.2197 0.7221 0.0105 0
M  V30 45 H -5.7281 0.4529 -1.7034 0
M  V30 END ATOM
M  V30 BEGIN BOND
M  V30 1 2 1 2
M  V30 2 2 1 3
M  V30 3 1 1 4
M  V30 4 1 1 5
M  V30 5 1 4 6
M  V30 6 2 5 7
M  V30 7 1 5 8
M  V30 8 1 6 9
M  V30 9 1 6 10
M  V30 10 1 7 11
M  V30 11 2 8 12
M  V30 12 2 9 13
M  V30 13 1 9 14
M  V30 14 1 10 15
M  V30 15 1 10 16
M  V30 16 2 11 17
M  V30 17 1 14 18
M  V30 18 1 17 19
M  V30 19 1 18 20
M  V30 20 1 18 21
M  V30 21 1 20 22
M  V30 22 1 20 23
M  V30 23 1 21 24
M  V30 24 1 12 17
M  V30 25 1 22 24
M  V30 26 1 4 25
M  V30 27 1 6 26
M  V30 28 1 7 27
M  V30 29 1 8 28
M  V30 30 1 10 29
M  V30 31 1 11 30
M  V30 32 1 12 31
M  V30 33 1 14 32
M  V30 34 1 15 33
M  V30 35 1 15 34
M  V30 36 1 15 35
M  V30 37 1 16 36
M  V30 38 1 16 37
M  V30 39 1 16 38
M  V30 40 1 18 39
M  V30 41 1 20 40
M  V30 42 1 21 41
M  V30 43 1 21 42
M  V30 44 1 23 43
M  V30 45 1 24 44
M  V30 46 1 24 45
M  V30 END BOND
M  V30 BEGIN COLLECTION
M  V30 MDLV30/STEABS ATOMS=(3 6 18 20)
M  V30 END COLLECTION
M  V30 END CTAB
M  END
>  <Structure No>
8642

>  <LogS>
-2.38

>  <MMFF94 Energy>
-24.375

$$$$
Compound 8643
Actelion Java MolfileCreator 2.0

  0  0  0  0  0  0              0 V3000
M  V30 BEGIN CTAB
M  V30 COUNTS 49 50 0 0 0
M  V30 BEGIN ATOM
M  V30 1 S 2.394 0.6379 -2.0745 0
M  V30 2 C 2.0279 -0.4768 -0.9185 0
M  V30 3 N 3.0071 -1.4546 -0.5321 0
M  V30 4 N 0.6787 -0.6239 -0.4397 0
M  V30 5 C 4.4233 -1.2118 -0.4793 0
M  V30 6 C -0.3887 0.3579 -0.6736 0 CFG=1
M  V30 7 C 4.9368 0.0475 -0.1182 0
M  V30 8 C 5.3136 -2.2682 -0.726 0
M  V30 9 C -1.7364 -0.282 -0.439 0
M  V30 10 C -0.1757 1.5939 0.2308 0
M  V30 11 C 6.3183 0.2508 -0.0454 0
M  V30 12 C 6.6946 -2.061 -0.6526 0
M  V30 13 O -2.5512 -0.3579 -1.3979 0
M  V30 14 N -2.091 -0.7903 0.8614 0
M  V30 15 C -1.2578 2.6919 0.0818 0
M  V30 16 C 7.1966 -0.8011 -0.3167 0
M  V30 17 C -3.3905 -1.3848 1.2068 0 CFG=2
M  V30 18 C -1.0351 3.7885 1.1312 0
M  V30 19 C -1.2609 3.3096 -1.3244 0
M  V30 20 C -3.69 -2.6493 0.3971 0 CFG=2
M  V30 21 C -4.5537 -0.4648 0.9085 0
M  V30 22 O -5.038 -2.6083 -0.0127 0
M  V30 23 O -3.4516 -3.8031 1.1606 0
M  V30 24 C -5.3946 -1.2489 -0.0832 0
M  V30 25 H 2.6646 -2.4086 -0.2781 0
M  V30 26 H 0.4844 -1.4387 0.1857 0
M  V30 27 H -0.3463 0.6729 -1.7375 0
M  V30 28 H 4.2719 0.8654 0.1263 0
M  V30 29 H 4.9357 -3.2494 -0.9845 0
M  V30 30 H 0.8185 2.0386 0.0093 0
M  V30 31 H -0.1416 1.2584 1.2902 0
M  V30 32 H 6.7079 1.2225 0.2295 0
M  V30 33 H 7.3752 -2.8779 -0.8541 0
M  V30 34 H -1.3844 -0.724 1.6279 0
M  V30 35 H -2.2604 2.252 0.2736 0
M  V30 36 H 8.2655 -0.6424 -0.2585 0
M  V30 37 H -3.3971 -1.621 2.2958 0
M  V30 38 H -1.0722 3.3554 2.1536 0
M  V30 39 H -0.0481 4.2775 0.9839 0
M  V30 40 H -1.8319 4.5593 1.0586 0
M  V30 41 H -1.9711 4.1627 -1.3691 0
M  V30 42 H -0.2471 3.6748 -1.5957 0
M  V30 43 H -1.5949 2.5664 -2.0772 0
M  V30 44 H -3.052 -2.7072 -0.5103 0
M  V30 45 H -5.1403 -0.2788 1.8354 0
M  V30 46 H -4.2427 0.5146 0.4851 0
M  V30 47 H -4.1662 -3.8537 1.8485 0
M  V30 48 H -5.2203 -0.8777 -1.1168 0
M  V30 49 H -6.4744 -1.1356 0.1506 0
M  V30 END ATOM
M  V30 BEGIN BOND
M  V30 1 2 1 2
M  V30 2 1 2 3
M  V30 3 1 2 4
M  V30 4 1 3 5
M  V30 5 1 4 6
M  V30 6 2 5 7
M  V30 7 1 5 8
M  V30 8 1 6 9
M  V30 9 1 6 10
M  V30 10 1 7 11
M  V30 11 2 8 12
M  V30 12 2 9 13
M  V30 13 1 9 14
M  V30 14 1 10 15
M  V30 15 2 11 16
M  V30 16 1 14 17
M  V30 17 1 15 18
M  V30 18 1 15 19
M  V30 19 1 17 20
M  V30 20 1 17 21
M  V30 21 1 20 22
M  V30 22 1 20 23
M  V30 23 1 21 24
M  V30 24 1 12 16
M  V30 25 1 22 24
M  V30 26 1 3 25
M  V30 27 1 4 26
M  V30 28 1 6 27
M  V30 29 1 7 28
M  V30 30 1 8 29
M  V30 31 1 10 30
M  V30 32 1 10 31
M  V30 33 1 11 32
M  V30 34 1 12 33
M  V30 35 1 14 34
M  V30 36 1 15 35
M  V30 37 1 16 36
M  V30 38 1 17 37
M  V30 39 1 18 38
M  V30 40 1 18 39
M  V30 41 1 18 40
M  V30 42 1 19 41
M  V30 43 1 19 42
M  V30 44 1 19 43
M  V30 45 1 20 44
M  V30 46 1 21 45
M  V30 47 1 21 46
M  V30 48 1 23 47
M  V30 49 1 24 48
M  V30 50 1 24 49
M  V30 END BOND
M  V30 BEGIN COLLECTION
M  V30 MDLV30/STEABS ATOMS=(3 6 17 20)
M  V30 END COLLECTION
M  V30 END CTAB
M  END
>  <Structure No>
8643

>  <LogS>
-2.37

>  <MMFF94 Energy>
-4.1302

$$$$
Compound 8644
Actelion Java MolfileCreator 2.0

  0  0  0  0  0  0              0 V3000
M  V30 BEGIN CTAB
M  V30 COUNTS 41 43 0 0 0
M  V30 BEGIN ATOM
M  V30 1 Cl -2.7001 2.7001 2.1269 0
M  V30 2 C -2.5805 1.2609 1.1272 0
M  V30 3 C -3.7305 0.6461 0.5903 0
M  V30 4 C -1.3347 0.7034 0.8497 0
M  V30 5 O -4.9848 1.2106 0.8713 0
M  V30 6 C -3.5909 -0.518 -0.2134 0
M  V30 7 O -0.099 1.1633 1.2902 0
M  V30 8 C -1.2095 -0.4141 0.075 0
M  V30 9 C -6.2252 0.6971 0.3971 0
M  V30 10 C -2.3125 -1.0628 -0.4786 0
M  V30 11 C 0.962 0.3355 0.7882 0 CFG=2
M  V30 12 C 0.2064 -0.7111 0.0022 0
M  V30 13 O -2.1174 -2.2088 -1.2632 0
M  V30 14 C 1.7085 -0.3077 1.9282 0
M  V30 15 C 1.9153 1.1647 -0.1148 0 CFG=2
M  V30 16 O 0.7124 -1.7003 -0.5918 0
M  V30 17 C -3.1679 -2.9484 -1.876 0
M  V30 18 O 1.0958 -0.6317 2.9808 0
M  V30 19 C 3.1444 -0.6098 1.8061 0
M  V30 20 C 3.1739 0.3487 -0.4914 0
M  V30 21 C 2.3165 2.4952 0.5499 0
M  V30 22 C 3.8457 -0.2982 0.7087 0
M  V30 23 O 5.2042 -0.6453 0.6841 0
M  V30 24 C 6.064 -0.4296 -0.4291 0
M  V30 25 H -4.468 -0.9932 -0.6264 0
M  V30 26 H -7.0494 1.3383 0.7711 0
M  V30 27 H -6.3799 -0.3359 0.7739 0
M  V30 28 H -6.2433 0.7071 -0.713 0
M  V30 29 H 1.3804 1.4248 -1.0561 0
M  V30 30 H -2.7323 -3.8023 -2.4339 0
M  V30 31 H -3.7232 -2.3032 -2.5892 0
M  V30 32 H -3.8582 -3.3443 -1.1014 0
M  V30 33 H 3.6458 -1.0914 2.637 0
M  V30 34 H 2.8969 -0.452 -1.2083 0
M  V30 35 H 3.8861 1.0146 -1.0214 0
M  V30 36 H 1.4207 3.1275 0.7253 0
M  V30 37 H 2.8262 2.3194 1.5208 0
M  V30 38 H 3.0017 3.065 -0.113 0
M  V30 39 H 7.0581 -0.8698 -0.2092 0
M  V30 40 H 5.6494 -0.9203 -1.335 0
M  V30 41 H 6.1922 0.6586 -0.6072 0
M  V30 END ATOM
M  V30 BEGIN BOND
M  V30 1 1 1 2
M  V30 2 2 2 3
M  V30 3 1 2 4
M  V30 4 1 3 5
M  V30 5 1 3 6
M  V30 6 1 4 7
M  V30 7 2 4 8
M  V30 8 1 5 9
M  V30 9 2 6 10
M  V30 10 1 7 11
M  V30 11 1 8 12
M  V30 12 1 10 13
M  V30 13 1 11 14
M  V30 14 1 11 15
M  V30 15 2 12 16
M  V30 16 1 13 17
M  V30 17 2 14 18
M  V30 18 1 14 19
M  V30 19 1 15 20
M  V30 20 1 15 21
M  V30 21 2 19 22
M  V30 22 1 22 23
M  V30 23 1 23 24
M  V30 24 1 8 10
M  V30 25 1 11 12
M  V30 26 1 20 22
M  V30 27 1 6 25
M  V30 28 1 9 26
M  V30 29 1 9 27
M  V30 30 1 9 28
M  V30 31 1 15 29
M  V30 32 1 17 30
M  V30 33 1 17 31
M  V30 34 1 17 32
M  V30 35 1 19 33
M  V30 36 1 20 34
M  V30 37 1 20 35
M  V30 38 1 21 36
M  V30 39 1 21 37
M  V30 40 1 21 38
M  V30 41 1 24 39
M  V30 42 1 24 40
M  V30 43 1 24 41
M  V30 END BOND
M  V30 BEGIN COLLECTION
M  V30 MDLV30/STEABS ATOMS=(2 11 15)
M  V30 END COLLECTION
M  V30 END CTAB
M  END
>  <Structure No>
8644

>  <LogS>
-4.4

>  <MMFF94 Energy>
96.719

$$$$
Compound 8645
Actelion Java MolfileCreator 2.0

  0  0  0  0  0  0              0 V3000
M  V30 BEGIN CTAB
M  V30 COUNTS 46 47 0 0 0
M  V30 BEGIN ATOM
M  V30 1 O 2.2154 2.6907 2.2154 0
M  V30 2 C 1.3958 2.5749 1.2665 0
M  V30 3 O 0.8674 3.7165 0.6752 0 CHG=-1
M  V30 4 C 0.9959 1.2096 0.7754 0 CFG=1
M  V30 5 N -0.4465 1.024 0.9516 0
M  V30 6 C 1.3634 1.0223 -0.7062 0
M  V30 7 C -1.0362 -0.2744 1.1183 0
M  V30 8 C 2.8508 1.032 -0.9115 0
M  V30 9 O -0.3038 -1.2998 1.1849 0
M  V30 10 C -2.5386 -0.4238 1.141 0 CFG=2
M  V30 11 C 3.7399 0.0061 -0.6599 0
M  V30 12 C 3.6279 2.1158 -1.3089 0
M  V30 13 N -2.9395 -1.4581 2.1063 0 CHG=1
M  V30 14 C -3.0332 -0.7462 -0.2898 0
M  V30 15 C 4.994 0.4946 -0.9234 0
M  V30 16 C 3.5383 -1.2991 -0.2109 0
M  V30 17 N 4.9376 1.778 -1.3203 0
M  V30 18 C -4.5684 -0.8814 -0.4372 0
M  V30 19 C 6.1343 -0.2906 -0.7604 0
M  V30 20 C 4.671 -2.1152 -0.039 0
M  V30 21 C -5.3028 0.4173 -0.0708 0
M  V30 22 C -4.9172 -1.2862 -1.8757 0
M  V30 23 C 5.9629 -1.6137 -0.3132 0
M  V30 24 H 1.5371 0.4485 1.382 0
M  V30 25 H -1.0824 1.841 0.8045 0
M  V30 26 H 0.8933 1.8197 -1.3223 0
M  V30 27 H 0.9636 0.0503 -1.0672 0
M  V30 28 H -2.9671 0.5486 1.4671 0
M  V30 29 H 3.2556 3.0999 -1.5627 0
M  V30 30 H -3.9683 -1.4058 2.2813 0
M  V30 31 H -2.4589 -1.2978 3.0219 0
M  V30 32 H -2.6947 -2.4121 1.7535 0
M  V30 33 H -2.6773 0.053 -0.9784 0
M  V30 34 H -2.5583 -1.6967 -0.6211 0
M  V30 35 H 2.5457 -1.6754 4.0E-4 0
M  V30 36 H 5.7403 2.3962 -1.573 0
M  V30 37 H -4.934 -1.694 0.2262 0
M  V30 38 H 7.1204 0.1042 -0.9678 0
M  V30 39 H 4.5517 -3.1337 0.3068 0
M  V30 40 H -5.2131 0.6247 1.0151 0
M  V30 41 H -6.3866 0.3246 -0.297 0
M  V30 42 H -4.8913 1.2762 -0.643 0
M  V30 43 H -4.4188 -2.244 -2.1373 0
M  V30 44 H -6.0137 -1.4328 -1.9798 0
M  V30 45 H -4.5903 -0.5035 -2.5939 0
M  V30 46 H 6.8272 -2.2504 -0.1759 0
M  V30 END ATOM
M  V30 BEGIN BOND
M  V30 1 2 1 2
M  V30 2 1 2 3
M  V30 3 1 2 4
M  V30 4 1 4 5
M  V30 5 1 4 6
M  V30 6 1 5 7
M  V30 7 1 6 8
M  V30 8 2 7 9
M  V30 9 1 7 10
M  V30 10 1 8 11
M  V30 11 2 8 12
M  V30 12 1 10 13
M  V30 13 1 10 14
M  V30 14 2 11 15
M  V30 15 1 11 16
M  V30 16 1 12 17
M  V30 17 1 14 18
M  V30 18 1 15 19
M  V30 19 2 16 20
M  V30 20 1 18 21
M  V30 21 1 18 22
M  V30 22 2 19 23
M  V30 23 1 15 17
M  V30 24 1 20 23
M  V30 25 1 4 24
M  V30 26 1 5 25
M  V30 27 1 6 26
M  V30 28 1 6 27
M  V30 29 1 10 28
M  V30 30 1 12 29
M  V30 31 1 13 30
M  V30 32 1 13 31
M  V30 33 1 13 32
M  V30 34 1 14 33
M  V30 35 1 14 34
M  V30 36 1 16 35
M  V30 37 1 17 36
M  V30 38 1 18 37
M  V30 39 1 19 38
M  V30 40 1 20 39
M  V30 41 1 21 40
M  V30 42 1 21 41
M  V30 43 1 21 42
M  V30 44 1 22 43
M  V30 45 1 22 44
M  V30 46 1 22 45
M  V30 47 1 23 46
M  V30 END BOND
M  V30 BEGIN COLLECTION
M  V30 MDLV30/STEABS ATOMS=(2 4 10)
M  V30 END COLLECTION
M  V30 END CTAB
M  END
>  <Structure No>
8645

>  <LogS>
-1.12

>  <MMFF94 Energy>
4.2712

$$$$
Compound 8646
Actelion Java MolfileCreator 2.0

  0  0  0  0  0  0              0 V3000
M  V30 BEGIN CTAB
M  V30 COUNTS 47 50 0 0 0
M  V30 BEGIN ATOM
M  V30 1 O 5.5159 0.0 -1.6199 0
M  V30 2 C 5.2329 -0.3469 -0.442 0
M  V30 3 O 6.26 -0.5597 0.4687 0 CHG=-1
M  V30 4 C 3.7991 -0.4805 0.008 0 CFG=1
M  V30 5 C 3.1868 0.8883 0.4022 0 CFG=2
M  V30 6 C 2.8812 -1.1601 -1.0526 0
M  V30 7 C 1.8107 0.6086 1.0387 0
M  V30 8 C 2.9495 1.7418 -0.865 0
M  V30 9 N 1.6527 -0.3541 -1.2791 0 CHG=1 CFG=1
M  V30 10 C 0.8997 -0.1083 -0.0088 0 CFG=1
M  V30 11 C 2.0558 0.9538 -1.8581 0
M  V30 12 C 0.209 -1.3932 0.5416 0 CFG=1
M  V30 13 O 1.1397 -2.2177 1.2001 0
M  V30 14 C -0.9453 -1.0237 1.4744 0
M  V30 15 C -2.2305 -0.6498 0.9867 0
M  V30 16 C -0.724 -0.9986 2.8656 0
M  V30 17 C -3.2443 -0.3218 1.923 0
M  V30 18 C -2.5407 -0.5787 -0.3902 0
M  V30 19 C -1.7565 -0.6632 3.7378 0
M  V30 20 N -2.9806 -0.3406 3.2549 0
M  V30 21 C -4.5227 0.0359 1.4856 0
M  V30 22 C -3.8211 -0.2153 -0.825 0
M  V30 23 C -4.8136 0.0867 0.123 0
M  V30 24 O -4.0636 -0.1649 -2.2062 0
M  V30 25 C -5.3122 0.1894 -2.7921 0
M  V30 26 H 3.8105 -1.128 0.9139 0
M  V30 27 H 3.8402 1.4272 1.1234 0
M  V30 28 H 2.6184 -2.1891 -0.731 0
M  V30 29 H 3.4126 -1.3024 -2.0204 0
M  V30 30 H 1.3426 1.5673 1.3549 0
M  V30 31 H 1.9486 0.007 1.9619 0
M  V30 32 H 2.4517 2.6963 -0.5849 0
M  V30 33 H 3.9159 2.0091 -1.342 0
M  V30 34 H 1.0384 -0.8458 -1.9706 0
M  V30 35 H 0.0752 0.6035 -0.249 0
M  V30 36 H 1.154 1.5557 -2.1118 0
M  V30 37 H 2.605 0.7982 -2.8143 0
M  V30 38 H -0.1937 -1.9743 -0.3167 0
M  V30 39 H 0.7098 -3.1056 1.3157 0
M  V30 40 H 0.2434 -1.2428 3.2844 0
M  V30 41 H -1.8018 -0.7845 -1.1503 0
M  V30 42 H -1.5831 -0.6577 4.8058 0
M  V30 43 H -5.2951 0.2817 2.2045 0
M  V30 44 H -5.8116 0.3693 -0.183 0
M  V30 45 H -5.2193 0.147 -3.8966 0
M  V30 46 H -6.1001 -0.5255 -2.4737 0
M  V30 47 H -5.5921 1.2232 -2.4982 0
M  V30 END ATOM
M  V30 BEGIN BOND
M  V30 1 2 1 2
M  V30 2 1 2 3
M  V30 3 1 2 4
M  V30 4 1 4 5
M  V30 5 1 4 6
M  V30 6 1 5 7
M  V30 7 1 5 8
M  V30 8 1 6 9
M  V30 9 1 7 10
M  V30 10 1 8 11
M  V30 11 1 10 12
M  V30 12 1 12 13
M  V30 13 1 12 14
M  V30 14 1 14 15
M  V30 15 2 14 16
M  V30 16 1 15 17
M  V30 17 2 15 18
M  V30 18 1 16 19
M  V30 19 1 17 20
M  V30 20 2 17 21
M  V30 21 1 18 22
M  V30 22 1 21 23
M  V30 23 1 22 24
M  V30 24 1 24 25
M  V30 25 1 9 10
M  V30 26 1 9 11
M  V30 27 2 19 20
M  V30 28 2 22 23
M  V30 29 1 4 26
M  V30 30 1 5 27
M  V30 31 1 6 28
M  V30 32 1 6 29
M  V30 33 1 7 30
M  V30 34 1 7 31
M  V30 35 1 8 32
M  V30 36 1 8 33
M  V30 37 1 9 34
M  V30 38 1 10 35
M  V30 39 1 11 36
M  V30 40 1 11 37
M  V30 41 1 12 38
M  V30 42 1 13 39
M  V30 43 1 16 40
M  V30 44 1 18 41
M  V30 45 1 19 42
M  V30 46 1 21 43
M  V30 47 1 23 44
M  V30 48 1 25 45
M  V30 49 1 25 46
M  V30 50 1 25 47
M  V30 END BOND
M  V30 BEGIN COLLECTION
M  V30 MDLV30/STEABS ATOMS=(5 4 5 9 10 12)
M  V30 END COLLECTION
M  V30 END CTAB
M  END
>  <Structure No>
8646

>  <LogS>
-2.03

>  <MMFF94 Energy>
21.425

$$$$
Compound 8647
Actelion Java MolfileCreator 2.0

  0  0  0  0  0  0              0 V3000
M  V30 BEGIN CTAB
M  V30 COUNTS 42 44 0 0 0
M  V30 BEGIN ATOM
M  V30 1 Cl 1.0597 -3.5084 -1.0597 0
M  V30 2 C 1.6275 -1.9461 -0.4919 0
M  V30 3 C 3.0039 -1.679 -0.3406 0
M  V30 4 C 0.7147 -0.9409 -0.1817 0
M  V30 5 O 3.9216 -2.694 -0.6541 0
M  V30 6 C 3.4219 -0.4009 0.1212 0
M  V30 7 O -0.6706 -1.0183 -0.2657 0
M  V30 8 C 1.1249 0.2838 0.2606 0
M  V30 9 C 5.3355 -2.5639 -0.5487 0
M  V30 10 C 2.472 0.6016 0.4288 0
M  V30 11 C -1.2813 0.223 0.1306 0 CFG=2
M  V30 12 C -0.0741 1.0658 0.4806 0
M  V30 13 O 2.8282 1.8783 0.8874 0
M  V30 14 C -2.1544 -0.0011 1.4021 0 CFG=2
M  V30 15 C -2.0732 0.8641 -1.0678 0 CFG=2
M  V30 16 O -0.1033 2.257 0.8908 0
M  V30 17 C 4.1688 2.3097 1.095 0
M  V30 18 O -1.5771 -0.9708 2.2396 0
M  V30 19 C -3.5662 -0.4531 1.0156 0
M  V30 20 C -3.3637 1.5615 -0.5865 0
M  V30 21 C -2.3807 -0.1361 -2.1987 0
M  V30 22 C -4.3142 0.6232 0.1926 0 CFG=1
M  V30 23 O -5.2034 0.0081 -0.7036 0
M  V30 24 H 4.4745 -0.1907 0.2393 0
M  V30 25 H 5.6953 -1.7527 -1.2165 0
M  V30 26 H 5.6221 -2.3503 0.5027 0
M  V30 27 H 5.811 -3.5166 -0.8594 0
M  V30 28 H -2.2581 0.9557 1.9685 0
M  V30 29 H -1.4461 1.6546 -1.5404 0
M  V30 30 H 4.735 2.2688 0.1406 0
M  V30 31 H 4.1603 3.3576 1.4588 0
M  V30 32 H 4.661 1.6718 1.8594 0
M  V30 33 H -0.8188 -0.5326 2.7072 0
M  V30 34 H -3.4969 -1.4026 0.4411 0
M  V30 35 H -4.1493 -0.6731 1.9368 0
M  V30 36 H -3.9001 2.0195 -1.4469 0
M  V30 37 H -3.0713 2.4045 0.0784 0
M  V30 38 H -1.4349 -0.4872 -2.6636 0
M  V30 39 H -2.938 -1.0174 -1.8219 0
M  V30 40 H -2.9828 0.3526 -2.9942 0
M  V30 41 H -4.897 1.2641 0.8956 0
M  V30 42 H -5.9445 -0.3671 -0.1595 0
M  V30 END ATOM
M  V30 BEGIN BOND
M  V30 1 1 1 2
M  V30 2 2 2 3
M  V30 3 1 2 4
M  V30 4 1 3 5
M  V30 5 1 3 6
M  V30 6 1 4 7
M  V30 7 2 4 8
M  V30 8 1 5 9
M  V30 9 2 6 10
M  V30 10 1 7 11
M  V30 11 1 8 12
M  V30 12 1 10 13
M  V30 13 1 11 14
M  V30 14 1 11 15
M  V30 15 2 12 16
M  V30 16 1 13 17
M  V30 17 1 14 18
M  V30 18 1 14 19
M  V30 19 1 15 20
M  V30 20 1 15 21
M  V30 21 1 19 22
M  V30 22 1 22 23
M  V30 23 1 8 10
M  V30 24 1 11 12
M  V30 25 1 20 22
M  V30 26 1 6 24
M  V30 27 1 9 25
M  V30 28 1 9 26
M  V30 29 1 9 27
M  V30 30 1 14 28
M  V30 31 1 15 29
M  V30 32 1 17 30
M  V30 33 1 17 31
M  V30 34 1 17 32
M  V30 35 1 18 33
M  V30 36 1 19 34
M  V30 37 1 19 35
M  V30 38 1 20 36
M  V30 39 1 20 37
M  V30 40 1 21 38
M  V30 41 1 21 39
M  V30 42 1 21 40
M  V30 43 1 22 41
M  V30 44 1 23 42
M  V30 END BOND
M  V30 BEGIN COLLECTION
M  V30 MDLV30/STEABS ATOMS=(4 11 14 15 22)
M  V30 END COLLECTION
M  V30 END CTAB
M  END
>  <Structure No>
8647

>  <LogS>
-2.34

>  <MMFF94 Energy>
106.31

$$$$
Compound 8648
Actelion Java MolfileCreator 2.0

  0  0  0  0  0  0              0 V3000
M  V30 BEGIN CTAB
M  V30 COUNTS 61 65 0 0 0
M  V30 BEGIN ATOM
M  V30 1 O -7.4014 -2.2729 1.7043 0
M  V30 2 C -6.2533 -2.1693 1.1994 0
M  V30 3 O -5.4928 -3.2394 0.784 0
M  V30 4 C -5.5569 -0.9336 0.951 0
M  V30 5 C -4.27 -2.7472 0.2507 0
M  V30 6 C -4.371 -1.246 0.4255 0
M  V30 7 C -3.4204 -0.2477 -0.2247 0 CFG=2
M  V30 8 C -1.9031 -0.4518 0.0356 0 CFG=2
M  V30 9 C -3.6542 1.2323 0.1815 0
M  V30 10 C -1.3416 0.8948 -0.5001 0 CFG=2
M  V30 11 C -1.2292 -1.5924 -0.7644 0
M  V30 12 C -1.6696 -0.682 1.5708 0
M  V30 13 C -2.2827 1.9304 0.135 0
M  V30 14 O -1.5146 0.9336 -1.9087 0
M  V30 15 C 0.1745 1.0225 -0.1746 0 CFG=1
M  V30 16 C 0.312 -1.5516 -0.6224 0
M  V30 17 C 0.9596 -0.1434 -0.8655 0 CFG=2
M  V30 18 C 0.7554 2.3735 -0.6268 0
M  V30 19 C 2.5085 -0.0984 -0.538 0 CFG=1
M  V30 20 C 2.2214 2.478 -0.22 0
M  V30 21 C 3.0685 1.3396 -0.8399 0 CFG=1
M  V30 22 C 2.7959 -0.5251 0.9485 0
M  V30 23 C 3.222 -1.0958 -1.5002 0
M  V30 24 C 4.5688 1.5052 -0.4623 0
M  V30 25 C 3.8793 0.2818 1.688 0
M  V30 26 C 5.0371 0.72 0.7903 0 CFG=1
M  V30 27 O 5.7886 -0.4092 0.4246 0
M  V30 28 H -5.9691 0.0567 1.0868 0
M  V30 29 H -4.1943 -3.0106 -0.8259 0
M  V30 30 H -3.4241 -3.1743 0.8242 0
M  V30 31 H -3.6083 -0.3267 -1.3197 0
M  V30 32 H -4.3673 1.7166 -0.5207 0
M  V30 33 H -4.0525 1.3193 1.2155 0
M  V30 34 H -1.4989 -1.532 -1.8413 0
M  V30 35 H -1.5826 -2.5804 -0.4089 0
M  V30 36 H -0.602 -0.7423 1.8491 0
M  V30 37 H -2.1146 -1.6424 1.8964 0
M  V30 38 H -2.1287 0.114 2.1905 0
M  V30 39 H -2.3366 2.8749 -0.4484 0
M  V30 40 H -1.9439 2.1883 1.1623 0
M  V30 41 H -1.4106 1.8674 -2.2264 0
M  V30 42 H 0.3085 0.9892 0.9236 0
M  V30 43 H 0.7144 -2.2724 -1.3643 0
M  V30 44 H 0.5906 -1.9509 0.3725 0
M  V30 45 H 0.863 0.0323 -1.9617 0
M  V30 46 H 0.6848 2.4951 -1.7292 0
M  V30 47 H 0.1956 3.2071 -0.1501 0
M  V30 48 H 2.6066 3.4582 -0.5774 0
M  V30 49 H 2.2876 2.4896 0.884 0
M  V30 50 H 3.0062 1.4992 -1.9416 0
M  V30 51 H 1.8809 -0.4538 1.5697 0
M  V30 52 H 3.0798 -1.5995 0.9912 0
M  V30 53 H 2.9563 -2.1486 -1.2716 0
M  V30 54 H 2.9478 -0.8916 -2.558 0
M  V30 55 H 4.3231 -1.0316 -1.4332 0
M  V30 56 H 5.1893 1.2016 -1.3339 0
M  V30 57 H 4.8005 2.5828 -0.3144 0
M  V30 58 H 4.2819 -0.3381 2.519 0
M  V30 59 H 3.4313 1.1713 2.1752 0
M  V30 60 H 5.6845 1.392 1.4023 0
M  V30 61 H 6.6707 -0.0799 0.1101 0
M  V30 END ATOM
M  V30 BEGIN BOND
M  V30 1 2 1 2
M  V30 2 1 2 3
M  V30 3 1 2 4
M  V30 4 1 3 5
M  V30 5 2 4 6
M  V30 6 1 6 7
M  V30 7 1 7 8
M  V30 8 1 7 9
M  V30 9 1 8 10
M  V30 10 1 8 11
M  V30 11 1 8 12
M  V30 12 1 9 13
M  V30 13 1 10 14
M  V30 14 1 10 15
M  V30 15 1 11 16
M  V30 16 1 15 17
M  V30 17 1 15 18
M  V30 18 1 17 19
M  V30 19 1 18 20
M  V30 20 1 19 21
M  V30 21 1 19 22
M  V30 22 1 19 23
M  V30 23 1 21 24
M  V30 24 1 22 25
M  V30 25 1 24 26
M  V30 26 1 26 27
M  V30 27 1 5 6
M  V30 28 1 10 13
M  V30 29 1 16 17
M  V30 30 1 20 21
M  V30 31 1 25 26
M  V30 32 1 4 28
M  V30 33 1 5 29
M  V30 34 1 5 30
M  V30 35 1 7 31
M  V30 36 1 9 32
M  V30 37 1 9 33
M  V30 38 1 11 34
M  V30 39 1 11 35
M  V30 40 1 12 36
M  V30 41 1 12 37
M  V30 42 1 12 38
M  V30 43 1 13 39
M  V30 44 1 13 40
M  V30 45 1 14 41
M  V30 46 1 15 42
M  V30 47 1 16 43
M  V30 48 1 16 44
M  V30 49 1 17 45
M  V30 50 1 18 46
M  V30 51 1 18 47
M  V30 52 1 20 48
M  V30 53 1 20 49
M  V30 54 1 21 50
M  V30 55 1 22 51
M  V30 56 1 22 52
M  V30 57 1 23 53
M  V30 58 1 23 54
M  V30 59 1 23 55
M  V30 60 1 24 56
M  V30 61 1 24 57
M  V30 62 1 25 58
M  V30 63 1 25 59
M  V30 64 1 26 60
M  V30 65 1 27 61
M  V30 END BOND
M  V30 BEGIN COLLECTION
M  V30 MDLV30/STEABS ATOMS=(8 7 8 10 15 17 19 21 26)
M  V30 END COLLECTION
M  V30 END CTAB
M  END
>  <Structure No>
8648

>  <LogS>
-4.57

>  <MMFF94 Energy>
75.191

$$$$
Compound 8649
Actelion Java MolfileCreator 2.0

  0  0  0  0  0  0              0 V3000
M  V30 BEGIN CTAB
M  V30 COUNTS 25 26 0 0 0
M  V30 BEGIN ATOM
M  V30 1 O 4.0649 1.5129 1.1146 0
M  V30 2 C 3.0961 0.5571 0.8177 0
M  V30 3 C 2.9322 -0.5461 1.6618 0
M  V30 4 C 2.2894 0.6866 -0.321 0
M  V30 5 C 1.9615 -1.5116 1.3767 0
M  V30 6 C 1.3191 -0.2785 -0.6071 0
M  V30 7 C 1.13 -1.37 0.2588 0
M  V30 8 N 0.1667 -2.3961 -0.0298 0
M  V30 9 N -1.0339 -2.2058 -0.4294 0
M  V30 10 C -1.7035 -0.9372 -0.5084 0
M  V30 11 C -2.52 -0.6654 -1.614 0
M  V30 12 C -1.633 -0.0046 0.5424 0
M  V30 13 C -3.2124 0.5467 -1.6989 0
M  V30 14 C -2.3258 1.2068 0.4547 0
M  V30 15 C -3.1107 1.4849 -0.6677 0
M  V30 16 H 4.2091 2.3222 0.522 0
M  V30 17 H 3.5595 -0.6569 2.5372 0
M  V30 18 H 2.4194 1.5287 -0.9888 0
M  V30 19 H 1.8472 -2.3648 2.0337 0
M  V30 20 H 0.7266 -0.1804 -1.5073 0
M  V30 21 H -2.6086 -1.3891 -2.4146 0
M  V30 22 H -1.0551 -0.219 1.4319 0
M  V30 23 H -3.8304 0.7571 -2.5621 0
M  V30 24 H -2.2616 1.9261 1.261 0
M  V30 25 H -3.6483 2.422 -0.7336 0
M  V30 END ATOM
M  V30 BEGIN BOND
M  V30 1 1 1 2
M  V30 2 2 2 3
M  V30 3 1 2 4
M  V30 4 1 3 5
M  V30 5 2 4 6
M  V30 6 2 5 7
M  V30 7 1 7 8
M  V30 8 2 8 9
M  V30 9 1 9 10
M  V30 10 2 10 11
M  V30 11 1 10 12
M  V30 12 1 11 13
M  V30 13 2 12 14
M  V30 14 2 13 15
M  V30 15 1 6 7
M  V30 16 1 14 15
M  V30 17 1 1 16
M  V30 18 1 3 17
M  V30 19 1 4 18
M  V30 20 1 5 19
M  V30 21 1 6 20
M  V30 22 1 11 21
M  V30 23 1 12 22
M  V30 24 1 13 23
M  V30 25 1 14 24
M  V30 26 1 15 25
M  V30 END BOND
M  V30 END CTAB
M  END
>  <Structure No>
8649

>  <LogS>
-3.95

>  <MMFF94 Energy>
28.427

$$$$
Compound 8650
Actelion Java MolfileCreator 2.0

  0  0  0  0  0  0              0 V3000
M  V30 BEGIN CTAB
M  V30 COUNTS 25 26 0 0 0
M  V30 BEGIN ATOM
M  V30 1 O -5.8902 -0.4831 -0.4026 0
M  V30 2 C -4.6464 -0.3338 -0.2773 0
M  V30 3 C -4.1017 0.4003 0.8764 0
M  V30 4 C -3.7288 -0.895 -1.2822 0
M  V30 5 C -2.7814 0.5646 1.0105 0
M  V30 6 C -2.4073 -0.7363 -1.157 0
M  V30 7 O -2.2874 1.2606 2.1089 0 CHG=-1
M  V30 8 C -1.8447 0.0153 0.0012 0
M  V30 9 N -0.5677 0.2093 0.178 0
M  V30 10 N 0.4607 -0.22 -0.6818 0
M  V30 11 C 1.8385 -0.0038 -0.3395 0
M  V30 12 C 2.8485 -0.4125 -1.2262 0
M  V30 13 C 2.2002 0.6106 0.8743 0
M  V30 14 C 4.1947 -0.2101 -0.9071 0
M  V30 15 C 3.548 0.8108 1.189 0
M  V30 16 C 4.5443 0.4012 0.2993 0
M  V30 17 H -4.7769 0.808 1.6192 0
M  V30 18 H -4.128 -1.4441 -2.1262 0
M  V30 19 H -1.7793 -1.178 -1.9143 0
M  V30 20 H 0.251 -0.6707 -1.5975 0
M  V30 21 H 2.5923 -0.8878 -2.1648 0
M  V30 22 H 1.4456 0.9352 1.5789 0
M  V30 23 H 4.9671 -0.5275 -1.5956 0
M  V30 24 H 3.8203 1.284 2.1238 0
M  V30 25 H 5.5868 0.5571 0.5451 0
M  V30 END ATOM
M  V30 BEGIN BOND
M  V30 1 2 1 2
M  V30 2 1 2 3
M  V30 3 1 2 4
M  V30 4 2 3 5
M  V30 5 2 4 6
M  V30 6 1 5 7
M  V30 7 1 5 8
M  V30 8 2 8 9
M  V30 9 1 9 10
M  V30 10 1 10 11
M  V30 11 2 11 12
M  V30 12 1 11 13
M  V30 13 1 12 14
M  V30 14 2 13 15
M  V30 15 2 14 16
M  V30 16 1 6 8
M  V30 17 1 15 16
M  V30 18 1 3 17
M  V30 19 1 4 18
M  V30 20 1 6 19
M  V30 21 1 10 20
M  V30 22 1 12 21
M  V30 23 1 13 22
M  V30 24 1 14 23
M  V30 25 1 15 24
M  V30 26 1 16 25
M  V30 END BOND
M  V30 END CTAB
M  END
>  <Structure No>
8650

>  <LogS>
-3.08

>  <MMFF94 Energy>
83.358

$$$$
Compound 8651
Actelion Java MolfileCreator 2.0

  0  0  0  0  0  0              0 V3000
M  V30 BEGIN CTAB
M  V30 COUNTS 42 47 0 0 0
M  V30 BEGIN ATOM
M  V30 1 O 2.148 3.5543 -1.0735 0
M  V30 2 C 1.1409 2.8577 -0.7821 0
M  V30 3 N 1.247 1.4434 -0.5933 0
M  V30 4 C -0.2002 3.4826 -0.617 0
M  V30 5 C 2.3452 0.6098 -0.1905 0
M  V30 6 C 0.1486 0.7852 0.0565 0 CFG=2
M  V30 7 C -1.2956 2.7348 -0.3386 0
M  V30 8 C 1.8894 -0.6227 0.2925 0
M  V30 9 C 3.702 0.9336 -0.167 0
M  V30 10 C 0.4198 -0.7148 -0.0199 0 CFG=1
M  V30 11 C -1.253 1.212 -0.3376 0 CFG=2
M  V30 12 C 2.7773 -1.5984 0.7394 0
M  V30 13 C 4.6051 -0.0278 0.319 0
M  V30 14 C -0.6622 -1.4494 0.838 0 CFG=2
M  V30 15 C 0.2995 -1.3409 -1.4431 0
M  V30 16 C -2.2669 0.5045 0.6664 0 CFG=2
M  V30 17 C 4.1467 -1.2852 0.7664 0
M  V30 18 N -1.4933 -2.1312 -0.1669 0
M  V30 19 C -1.5715 -0.4909 1.6621 0
M  V30 20 C -0.647 -2.5116 -1.2803 0
M  V30 21 C -3.3442 -0.3138 -0.094 0 CFG=1
M  V30 22 C -2.8348 -1.6874 -0.4919 0
M  V30 23 O -4.4764 -0.4825 0.72 0
M  V30 24 O -3.5934 -2.4463 -1.1533 0
M  V30 25 H -0.2945 4.5592 -0.6836 0
M  V30 26 H 0.2511 1.1214 1.1222 0
M  V30 27 H -2.2512 3.2302 -0.2214 0
M  V30 28 H 4.0579 1.894 -0.5125 0
M  V30 29 H -1.4556 0.8992 -1.3816 0
M  V30 30 H 2.4236 -2.5745 1.0441 0
M  V30 31 H 5.6634 0.1964 0.3441 0
M  V30 32 H -0.1857 -2.2001 1.5047 0
M  V30 33 H -0.1093 -0.6266 -2.1858 0
M  V30 34 H 1.2664 -1.713 -1.8522 0
M  V30 35 H -2.7736 1.2882 1.2722 0
M  V30 36 H 4.8575 -2.0205 1.12 0
M  V30 37 H -2.3332 -1.0868 2.2127 0
M  V30 38 H -0.9985 0.0375 2.4527 0
M  V30 39 H -0.0777 -3.4286 -1.0116 0
M  V30 40 H -1.2213 -2.701 -2.2142 0
M  V30 41 H -3.6436 0.226 -1.0225 0
M  V30 42 H -4.9692 0.3797 0.7108 0
M  V30 END ATOM
M  V30 BEGIN BOND
M  V30 1 2 1 2
M  V30 2 1 2 3
M  V30 3 1 2 4
M  V30 4 1 3 5
M  V30 5 1 3 6
M  V30 6 2 4 7
M  V30 7 2 5 8
M  V30 8 1 5 9
M  V30 9 1 6 10
M  V30 10 1 6 11
M  V30 11 1 8 12
M  V30 12 2 9 13
M  V30 13 1 10 14
M  V30 14 1 10 15
M  V30 15 1 11 16
M  V30 16 2 12 17
M  V30 17 1 14 18
M  V30 18 1 14 19
M  V30 19 1 15 20
M  V30 20 1 16 21
M  V30 21 1 18 22
M  V30 22 1 21 23
M  V30 23 2 22 24
M  V30 24 1 7 11
M  V30 25 1 8 10
M  V30 26 1 13 17
M  V30 27 1 16 19
M  V30 28 1 18 20
M  V30 29 1 21 22
M  V30 30 1 4 25
M  V30 31 1 6 26
M  V30 32 1 7 27
M  V30 33 1 9 28
M  V30 34 1 11 29
M  V30 35 1 12 30
M  V30 36 1 13 31
M  V30 37 1 14 32
M  V30 38 1 15 33
M  V30 39 1 15 34
M  V30 40 1 16 35
M  V30 41 1 17 36
M  V30 42 1 19 37
M  V30 43 1 19 38
M  V30 44 1 20 39
M  V30 45 1 20 40
M  V30 46 1 21 41
M  V30 47 1 23 42
M  V30 END BOND
M  V30 BEGIN COLLECTION
M  V30 MDLV30/STEABS ATOMS=(6 6 10 11 14 16 21)
M  V30 END COLLECTION
M  V30 END CTAB
M  END
>  <Structure No>
8651

>  <LogS>
-2.11

>  <MMFF94 Energy>
120.04

$$$$
Compound 8652
Actelion Java MolfileCreator 2.0

  0  0  0  0  0  0              0 V3000
M  V30 BEGIN CTAB
M  V30 COUNTS 27 28 0 0 0
M  V30 BEGIN ATOM
M  V30 1 O 6.5525 -1.0494 0.4842 0
M  V30 2 C 5.8357 -0.0352 0.273 0
M  V30 3 O 6.4516 1.1938 0.067 0 CHG=-1
M  V30 4 C 4.3608 -0.1488 0.2441 0
M  V30 5 C 3.5658 0.9858 0.008 0
M  V30 6 C 3.7325 -1.3897 0.4519 0
M  V30 7 C 2.1717 0.8821 -0.0199 0
M  V30 8 C 2.3385 -1.4915 0.4236 0
M  V30 9 C 1.5494 -0.3608 0.1884 0
M  V30 10 N 0.1241 -0.502 0.1663 0
M  V30 11 N -0.6515 0.4852 -0.0419 0
M  V30 12 C -2.0768 0.3439 -0.0639 0
M  V30 13 C -2.867 1.476 -0.2994 0
M  V30 14 C -2.6994 -0.9007 0.1446 0
M  V30 15 C -4.2611 1.3719 -0.3273 0
M  V30 16 C -4.0939 -1.0027 0.1164 0
M  V30 17 C -4.8784 0.1342 -0.1198 0
M  V30 18 O -6.2682 0.0447 -0.1502 0
M  V30 19 H 4.0197 1.9552 -0.1554 0
M  V30 20 H 4.3172 -2.2822 0.6364 0
M  V30 21 H 1.5829 1.7716 -0.2038 0
M  V30 22 H 1.8706 -2.4547 0.5855 0
M  V30 23 H -2.4002 2.4396 -0.4614 0
M  V30 24 H -2.1112 -1.7904 0.3287 0
M  V30 25 H -4.8622 2.2535 -0.5103 0
M  V30 26 H -4.5632 -1.9647 0.278 0
M  V30 27 H -6.7452 -0.8371 -0.0036 0
M  V30 END ATOM
M  V30 BEGIN BOND
M  V30 1 2 1 2
M  V30 2 1 2 3
M  V30 3 1 2 4
M  V30 4 2 4 5
M  V30 5 1 4 6
M  V30 6 1 5 7
M  V30 7 2 6 8
M  V30 8 2 7 9
M  V30 9 1 9 10
M  V30 10 2 10 11
M  V30 11 1 11 12
M  V30 12 2 12 13
M  V30 13 1 12 14
M  V30 14 1 13 15
M  V30 15 2 14 16
M  V30 16 2 15 17
M  V30 17 1 17 18
M  V30 18 1 8 9
M  V30 19 1 16 17
M  V30 20 1 5 19
M  V30 21 1 6 20
M  V30 22 1 7 21
M  V30 23 1 8 22
M  V30 24 1 13 23
M  V30 25 1 14 24
M  V30 26 1 15 25
M  V30 27 1 16 26
M  V30 28 1 18 27
M  V30 END BOND
M  V30 END CTAB
M  END
>  <Structure No>
8652

>  <LogS>
-4.38

>  <MMFF94 Energy>
47.558

$$$$
Compound 8653
Actelion Java MolfileCreator 2.0

  0  0  0  0  0  0              0 V3000
M  V30 BEGIN CTAB
M  V30 COUNTS 27 28 0 0 0
M  V30 BEGIN ATOM
M  V30 1 O 5.3391 -1.6156 -1.0499 0
M  V30 2 C 4.0962 -1.6439 -0.8482 0
M  V30 3 O 3.466 -2.8791 -0.7443 0 CHG=-1
M  V30 4 C 3.3111 -0.3888 -0.7223 0
M  V30 5 C 3.9176 0.8851 -0.8224 0
M  V30 6 C 1.9228 -0.4653 -0.4969 0
M  V30 7 O 5.2894 1.0074 -1.045 0
M  V30 8 C 3.1367 2.0427 -0.697 0
M  V30 9 C 1.1468 0.7009 -0.3724 0
M  V30 10 C 1.7629 1.95 -0.474 0
M  V30 11 N -0.2665 0.6445 -0.1429 0
M  V30 12 N -0.894 -0.4579 -0.0396 0
M  V30 13 C -2.307 -0.5126 0.1896 0
M  V30 14 C -2.9298 -1.7636 0.2923 0
M  V30 15 C -3.0818 0.6564 0.3139 0
M  V30 16 C -4.3077 -1.8504 0.516 0
M  V30 17 C -4.4596 0.5655 0.5375 0
M  V30 18 C -5.072 -0.6867 0.6385 0
M  V30 19 H 1.4424 -1.4323 -0.4177 0
M  V30 20 H 5.7386 1.9128 -1.1191 0
M  V30 21 H 3.5966 3.02 -0.7729 0
M  V30 22 H 1.175 2.8548 -0.3797 0
M  V30 23 H -2.3454 -2.6703 0.1987 0
M  V30 24 H -2.6251 1.635 0.2385 0
M  V30 25 H -4.7826 -2.8198 0.5943 0
M  V30 26 H -5.0527 1.466 0.6327 0
M  V30 27 H -6.1384 -0.7553 0.8117 0
M  V30 END ATOM
M  V30 BEGIN BOND
M  V30 1 2 1 2
M  V30 2 1 2 3
M  V30 3 1 2 4
M  V30 4 2 4 5
M  V30 5 1 4 6
M  V30 6 1 5 7
M  V30 7 1 5 8
M  V30 8 2 6 9
M  V30 9 2 8 10
M  V30 10 1 9 11
M  V30 11 2 11 12
M  V30 12 1 12 13
M  V30 13 2 13 14
M  V30 14 1 13 15
M  V30 15 1 14 16
M  V30 16 2 15 17
M  V30 17 2 16 18
M  V30 18 1 9 10
M  V30 19 1 17 18
M  V30 20 1 6 19
M  V30 21 1 7 20
M  V30 22 1 8 21
M  V30 23 1 10 22
M  V30 24 1 14 23
M  V30 25 1 15 24
M  V30 26 1 16 25
M  V30 27 1 17 26
M  V30 28 1 18 27
M  V30 END BOND
M  V30 END CTAB
M  END
>  <Structure No>
8653

>  <LogS>
-3.05

>  <MMFF94 Energy>
29.486

$$$$
Compound 8654
Actelion Java MolfileCreator 2.0

  0  0  0  0  0  0              0 V3000
M  V30 BEGIN CTAB
M  V30 COUNTS 41 44 0 0 0
M  V30 BEGIN ATOM
M  V30 1 O 3.2134 -0.1604 -2.2486 0
M  V30 2 C 2.7058 0.5892 -1.1716 0 CFG=1
M  V30 3 C 1.2894 0.1916 -0.8234 0
M  V30 4 C 3.6617 0.5477 0.0505 0 CFG=1
M  V30 5 N 0.7974 -1.0751 -0.8652 0
M  V30 6 C 0.2913 1.0171 -0.3583 0
M  V30 7 O 3.2093 1.4406 1.04 0
M  V30 8 C 3.8122 -0.8499 0.6858 0
M  V30 9 N -0.4688 -1.0571 -0.4492 0
M  V30 10 N 0.2506 2.3577 -0.1734 0
M  V30 11 C -0.7826 0.2183 -0.1413 0
M  V30 12 O 4.4984 -1.7299 -0.1647 0
M  V30 13 C -1.3091 -2.2257 -0.3984 0
M  V30 14 C -0.9281 2.9065 0.2512 0
M  V30 15 N -1.9771 0.7205 0.2554 0
M  V30 16 C -1.0475 -3.3099 -1.2544 0
M  V30 17 C -2.3767 -2.3218 0.5153 0
M  V30 18 C -2.0691 2.0689 0.4673 0
M  V30 19 C -1.0305 4.2851 0.4679 0
M  V30 20 C -1.852 -4.4527 -1.2175 0
M  V30 21 C -3.1779 -3.467 0.5496 0
M  V30 22 C -3.2738 2.637 0.8922 0
M  V30 23 C -2.2427 4.8372 0.8954 0
M  V30 24 C -2.9188 -4.5296 -0.3186 0
M  V30 25 C -3.3583 4.0177 1.1065 0
M  V30 26 H 3.0437 -1.1223 -2.0768 0
M  V30 27 H 2.6691 1.6435 -1.5186 0
M  V30 28 H 4.6735 0.8735 -0.2904 0
M  V30 29 H 3.3868 2.3583 0.7011 0
M  V30 30 H 4.3636 -0.7646 1.649 0
M  V30 31 H 2.8174 -1.2787 0.9264 0
M  V30 32 H 5.4518 -1.4513 -0.1554 0
M  V30 33 H -0.228 -3.2658 -1.961 0
M  V30 34 H -2.5801 -1.5298 1.2205 0
M  V30 35 H -0.1748 4.9293 0.3072 0
M  V30 36 H -1.6491 -5.2784 -1.8888 0
M  V30 37 H -3.9971 -3.5334 1.2548 0
M  V30 38 H -4.1434 2.0133 1.0588 0
M  V30 39 H -2.3191 5.9045 1.0641 0
M  V30 40 H -3.5406 -5.4148 -0.2906 0
M  V30 41 H -4.2915 4.455 1.4377 0
M  V30 END ATOM
M  V30 BEGIN BOND
M  V30 1 1 1 2
M  V30 2 1 2 3
M  V30 3 1 2 4
M  V30 4 2 3 5
M  V30 5 1 3 6
M  V30 6 1 4 7
M  V30 7 1 4 8
M  V30 8 1 5 9
M  V30 9 2 6 10
M  V30 10 1 6 11
M  V30 11 1 8 12
M  V30 12 1 9 13
M  V30 13 1 10 14
M  V30 14 2 11 15
M  V30 15 2 13 16
M  V30 16 1 13 17
M  V30 17 1 14 18
M  V30 18 2 14 19
M  V30 19 1 16 20
M  V30 20 2 17 21
M  V30 21 2 18 22
M  V30 22 1 19 23
M  V30 23 2 20 24
M  V30 24 1 22 25
M  V30 25 1 9 11
M  V30 26 1 15 18
M  V30 27 1 21 24
M  V30 28 2 23 25
M  V30 29 1 1 26
M  V30 30 1 2 27
M  V30 31 1 4 28
M  V30 32 1 7 29
M  V30 33 1 8 30
M  V30 34 1 8 31
M  V30 35 1 12 32
M  V30 36 1 16 33
M  V30 37 1 17 34
M  V30 38 1 19 35
M  V30 39 1 20 36
M  V30 40 1 21 37
M  V30 41 1 22 38
M  V30 42 1 23 39
M  V30 43 1 24 40
M  V30 44 1 25 41
M  V30 END BOND
M  V30 BEGIN COLLECTION
M  V30 MDLV30/STEABS ATOMS=(2 2 4)
M  V30 END COLLECTION
M  V30 END CTAB
M  END
>  <Structure No>
8654

>  <LogS>
-3.13

>  <MMFF94 Energy>
186.7

$$$$
Compound 8655
Actelion Java MolfileCreator 2.0

  0  0  0  0  0  0              0 V3000
M  V30 BEGIN CTAB
M  V30 COUNTS 41 43 0 0 0
M  V30 BEGIN ATOM
M  V30 1 S -2.0584 0.4937 -1.8112 0
M  V30 2 C -3.7659 0.1097 -1.1872 0
M  V30 3 C -1.4248 0.9252 -0.1532 0 CFG=1
M  V30 4 C -3.8896 0.6582 0.2709 0 CFG=1
M  V30 5 C -4.8039 0.6973 -2.1627 0
M  V30 6 C -3.9156 -1.4222 -1.1719 0
M  V30 7 N -2.5274 0.7102 0.7333 0 CFG=1
M  V30 8 C -0.5979 -0.0735 0.4804 0 CFG=2
M  V30 9 C -4.497 2.0332 0.3709 0
M  V30 10 C -1.6876 -0.2474 1.4898 0
M  V30 11 N 0.6182 0.4668 1.0935 0
M  V30 12 O -3.8458 3.0519 0.0161 0
M  V30 13 O -5.8033 2.1794 0.8199 0 CHG=-1
M  V30 14 O -1.8547 -0.9668 2.5088 0
M  V30 15 C 1.5419 -0.3813 1.7892 0
M  V30 16 O 1.2899 -1.6075 1.9387 0
M  V30 17 C 2.8096 0.1816 2.3591 0
M  V30 18 O 3.9378 -0.5681 1.9095 0
M  V30 19 C 4.4416 -0.567 0.5985 0
M  V30 20 C 5.511 -1.4215 0.2995 0
M  V30 21 C 3.9172 0.2568 -0.4181 0
M  V30 22 C 6.0481 -1.462 -0.9906 0
M  V30 23 C 4.4567 0.213 -1.7076 0
M  V30 24 C 5.5206 -0.6458 -1.9939 0
M  V30 25 H -1.0634 1.9755 -0.0926 0
M  V30 26 H -4.4747 -0.0299 0.9205 0
M  V30 27 H -5.8337 0.534 -1.7784 0
M  V30 28 H -4.6404 1.786 -2.3063 0
M  V30 29 H -4.7182 0.2144 -3.1598 0
M  V30 30 H -3.7568 -1.8413 -2.1887 0
M  V30 31 H -3.1688 -1.8822 -0.4901 0
M  V30 32 H -4.9318 -1.712 -0.8277 0
M  V30 33 H -0.4144 -0.9839 -0.1316 0
M  V30 34 H 0.8426 1.4846 1.0126 0
M  V30 35 H 2.9351 1.2549 2.1019 0
M  V30 36 H 2.7566 0.1101 3.4654 0
M  V30 37 H 5.9253 -2.0584 1.0706 0
M  V30 38 H 3.0987 0.9348 -0.2254 0
M  V30 39 H 6.8729 -2.1266 -1.2122 0
M  V30 40 H 4.0501 0.8467 -2.4851 0
M  V30 41 H 5.9367 -0.6777 -2.9925 0
M  V30 END ATOM
M  V30 BEGIN BOND
M  V30 1 1 1 2
M  V30 2 1 1 3
M  V30 3 1 2 4
M  V30 4 1 2 5
M  V30 5 1 2 6
M  V30 6 1 3 7
M  V30 7 1 3 8
M  V30 8 1 4 9
M  V30 9 1 7 10
M  V30 10 1 8 11
M  V30 11 2 9 12
M  V30 12 1 9 13
M  V30 13 2 10 14
M  V30 14 1 11 15
M  V30 15 2 15 16
M  V30 16 1 15 17
M  V30 17 1 17 18
M  V30 18 1 18 19
M  V30 19 2 19 20
M  V30 20 1 19 21
M  V30 21 1 20 22
M  V30 22 2 21 23
M  V30 23 2 22 24
M  V30 24 1 4 7
M  V30 25 1 8 10
M  V30 26 1 23 24
M  V30 27 1 3 25
M  V30 28 1 4 26
M  V30 29 1 5 27
M  V30 30 1 5 28
M  V30 31 1 5 29
M  V30 32 1 6 30
M  V30 33 1 6 31
M  V30 34 1 6 32
M  V30 35 1 8 33
M  V30 36 1 11 34
M  V30 37 1 17 35
M  V30 38 1 17 36
M  V30 39 1 20 37
M  V30 40 1 21 38
M  V30 41 1 22 39
M  V30 42 1 23 40
M  V30 43 1 24 41
M  V30 END BOND
M  V30 BEGIN COLLECTION
M  V30 MDLV30/STEABS ATOMS=(4 3 4 7 8)
M  V30 END COLLECTION
M  V30 END CTAB
M  END
>  <Structure No>
8655

>  <LogS>
-2.81

>  <MMFF94 Energy>
103.79

$$$$
Compound 8656
Actelion Java MolfileCreator 2.0

  0  0  0  0  0  0              0 V3000
M  V30 BEGIN CTAB
M  V30 COUNTS 37 38 0 0 0
M  V30 BEGIN ATOM
M  V30 1 O 1.3526 -1.1138 2.1489 0
M  V30 2 C 1.0927 -0.8572 0.9435 0
M  V30 3 N -0.2198 -1.1218 0.4438 0
M  V30 4 C 2.1745 -0.3716 -0.0082 0 CFG=1
M  V30 5 C -0.6387 -0.6349 -0.8685 0 CFG=2
M  V30 6 O 1.5998 0.3152 -1.1149 0
M  V30 7 C 3.1994 0.5651 0.7042 0
M  V30 8 C 0.6003 -0.4454 -1.7764 0 CFG=1
M  V30 9 C -1.4108 0.6908 -0.7143 0
M  V30 10 C 4.2383 -0.2357 1.5124 0
M  V30 11 C 3.9463 1.4647 -0.297 0
M  V30 12 O 1.1145 -1.6633 -2.2695 0
M  V30 13 C -2.6693 0.5104 0.0954 0
M  V30 14 C -3.8283 -0.0085 -0.5054 0
M  V30 15 C -2.6833 0.817 1.4669 0
M  V30 16 C -4.9877 -0.2027 0.2518 0
M  V30 17 C -3.8446 0.6207 2.2205 0
M  V30 18 C -4.9963 0.1127 1.6133 0
M  V30 19 H -0.9307 -1.5498 1.0793 0
M  V30 20 H 2.7346 -1.2564 -0.3845 0
M  V30 21 H -1.3096 -1.3878 -1.3387 0
M  V30 22 H 2.653 1.2366 1.404 0
M  V30 23 H 0.2837 0.1371 -2.6676 0
M  V30 24 H -0.7563 1.4546 -0.2387 0
M  V30 25 H -1.6866 1.082 -1.7183 0
M  V30 26 H 4.8274 -0.8984 0.8429 0
M  V30 27 H 4.9379 0.4564 2.0279 0
M  V30 28 H 3.7608 -0.8586 2.2929 0
M  V30 29 H 4.7128 2.0761 0.2255 0
M  V30 30 H 3.2433 2.1704 -0.7884 0
M  V30 31 H 4.4478 0.8499 -1.0751 0
M  V30 32 H 1.0279 -2.356 -1.5645 0
M  V30 33 H -3.832 -0.2635 -1.5579 0
M  V30 34 H -1.795 1.2023 1.9522 0
M  V30 35 H -5.8788 -0.6006 -0.2163 0
M  V30 36 H -3.8508 0.8595 3.2761 0
M  V30 37 H -5.8941 -0.0394 2.1983 0
M  V30 END ATOM
M  V30 BEGIN BOND
M  V30 1 2 1 2
M  V30 2 1 2 3
M  V30 3 1 2 4
M  V30 4 1 3 5
M  V30 5 1 4 6
M  V30 6 1 4 7
M  V30 7 1 5 8
M  V30 8 1 5 9
M  V30 9 1 7 10
M  V30 10 1 7 11
M  V30 11 1 8 12
M  V30 12 1 9 13
M  V30 13 2 13 14
M  V30 14 1 13 15
M  V30 15 1 14 16
M  V30 16 2 15 17
M  V30 17 2 16 18
M  V30 18 1 6 8
M  V30 19 1 17 18
M  V30 20 1 3 19
M  V30 21 1 4 20
M  V30 22 1 5 21
M  V30 23 1 7 22
M  V30 24 1 8 23
M  V30 25 1 9 24
M  V30 26 1 9 25
M  V30 27 1 10 26
M  V30 28 1 10 27
M  V30 29 1 10 28
M  V30 30 1 11 29
M  V30 31 1 11 30
M  V30 32 1 11 31
M  V30 33 1 12 32
M  V30 34 1 14 33
M  V30 35 1 15 34
M  V30 36 1 16 35
M  V30 37 1 17 36
M  V30 38 1 18 37
M  V30 END BOND
M  V30 BEGIN COLLECTION
M  V30 MDLV30/STEABS ATOMS=(3 4 5 8)
M  V30 END COLLECTION
M  V30 END CTAB
M  END
>  <Structure No>
8656

>  <LogS>
-2.28

>  <MMFF94 Energy>
68.409

$$$$
Compound 8657
Actelion Java MolfileCreator 2.0

  0  0  0  0  0  0              0 V3000
M  V30 BEGIN CTAB
M  V30 COUNTS 40 41 0 0 0
M  V30 BEGIN ATOM
M  V30 1 O -2.3848 -0.556 2.3053 0
M  V30 2 C -1.417 -0.0935 1.6442 0
M  V30 3 N -0.1278 0.0057 2.2583 0
M  V30 4 C -1.6195 0.4516 0.2397 0 CFG=1
M  V30 5 C 1.0485 0.3638 1.4684 0 CFG=2
M  V30 6 O -0.3896 0.5019 -0.4709 0
M  V30 7 C -2.6035 -0.4214 -0.5721 0
M  V30 8 C 0.5893 1.2162 0.2645 0 CFG=2
M  V30 9 C 1.7797 -0.9364 1.0592 0
M  V30 10 C -4.0952 -0.0846 -0.3174 0
M  V30 11 O 1.6741 1.5207 -0.5677 0
M  V30 12 C 3.1735 -0.6913 0.5368 0
M  V30 13 C -4.5288 1.1727 -1.0878 0
M  V30 14 C -4.9831 -1.2687 -0.7212 0
M  V30 15 C 4.1921 -0.2697 1.4086 0
M  V30 16 C 3.4714 -0.8902 -0.8226 0
M  V30 17 C 5.484 -0.0413 0.9253 0
M  V30 18 C 4.7648 -0.6599 -1.3015 0
M  V30 19 C 5.77 -0.2352 -0.4285 0
M  V30 20 H 0.0 -0.3314 3.2393 0
M  V30 21 H -2.0276 1.4823 0.3229 0
M  V30 22 H 1.7193 0.9815 2.1052 0
M  V30 23 H -2.3934 -0.3026 -1.6586 0
M  V30 24 H -2.4025 -1.4913 -0.3389 0
M  V30 25 H 0.1753 2.1804 0.6509 0
M  V30 26 H 1.8645 -1.5985 1.9491 0
M  V30 27 H 1.1705 -1.4937 0.3141 0
M  V30 28 H -4.2623 0.1016 0.7646 0
M  V30 29 H 1.3247 2.1229 -1.2751 0
M  V30 30 H -5.5989 1.3935 -0.8869 0
M  V30 31 H -3.9396 2.0569 -0.7704 0
M  V30 32 H -4.396 1.029 -2.1817 0
M  V30 33 H -4.7228 -2.1657 -0.1196 0
M  V30 34 H -6.0523 -1.0311 -0.5339 0
M  V30 35 H -4.851 -1.5076 -1.7986 0
M  V30 36 H 3.9849 -0.1192 2.4609 0
M  V30 37 H 2.7023 -1.2157 -1.5119 0
M  V30 38 H 6.264 0.2851 1.6011 0
M  V30 39 H 4.9876 -0.8104 -2.3498 0
M  V30 40 H 6.7704 -0.0575 -0.801 0
M  V30 END ATOM
M  V30 BEGIN BOND
M  V30 1 2 1 2
M  V30 2 1 2 3
M  V30 3 1 2 4
M  V30 4 1 3 5
M  V30 5 1 4 6
M  V30 6 1 4 7
M  V30 7 1 5 8
M  V30 8 1 5 9
M  V30 9 1 7 10
M  V30 10 1 8 11
M  V30 11 1 9 12
M  V30 12 1 10 13
M  V30 13 1 10 14
M  V30 14 2 12 15
M  V30 15 1 12 16
M  V30 16 1 15 17
M  V30 17 2 16 18
M  V30 18 2 17 19
M  V30 19 1 6 8
M  V30 20 1 18 19
M  V30 21 1 3 20
M  V30 22 1 4 21
M  V30 23 1 5 22
M  V30 24 1 7 23
M  V30 25 1 7 24
M  V30 26 1 8 25
M  V30 27 1 9 26
M  V30 28 1 9 27
M  V30 29 1 10 28
M  V30 30 1 11 29
M  V30 31 1 13 30
M  V30 32 1 13 31
M  V30 33 1 13 32
M  V30 34 1 14 33
M  V30 35 1 14 34
M  V30 36 1 14 35
M  V30 37 1 15 36
M  V30 38 1 16 37
M  V30 39 1 17 38
M  V30 40 1 18 39
M  V30 41 1 19 40
M  V30 END BOND
M  V30 BEGIN COLLECTION
M  V30 MDLV30/STEABS ATOMS=(3 4 5 8)
M  V30 END COLLECTION
M  V30 END CTAB
M  END
>  <Structure No>
8657

>  <LogS>
-2.12

>  <MMFF94 Energy>
76.15

$$$$
Compound 8658
Actelion Java MolfileCreator 2.0

  0  0  0  0  0  0              0 V3000
M  V30 BEGIN CTAB
M  V30 COUNTS 24 24 0 0 0
M  V30 BEGIN ATOM
M  V30 1 O 3.0686 -2.0449 -0.4716 0
M  V30 2 C 2.7694 -0.8413 -0.2413 0
M  V30 3 N 3.8164 0.1012 0.0219 0
M  V30 4 C 1.3433 -0.4322 -0.233 0
M  V30 5 N 5.1592 -0.2936 -0.0652 0
M  V30 6 C 0.967 0.9016 -0.4677 0
M  V30 7 C 0.3385 -1.3907 -0.0165 0
M  V30 8 C -0.3812 1.2705 -0.463 0
M  V30 9 C -1.0096 -1.0212 -0.0095 0
M  V30 10 C -1.3847 0.3168 -0.2213 0
M  V30 11 C -2.8112 0.7238 -0.2236 0
M  V30 12 O -3.156 1.7748 -0.8301 0
M  V30 13 N -3.8068 -0.0451 0.4629 0
M  V30 14 N -5.1586 0.3192 0.3835 0
M  V30 15 H 3.5925 1.0453 0.4091 0
M  V30 16 H 5.5347 -0.3211 0.9096 0
M  V30 17 H 5.6714 0.465 -0.5693 0
M  V30 18 H 1.7072 1.6612 -0.6797 0
M  V30 19 H 0.5953 -2.4292 0.1527 0
M  V30 20 H -0.6388 2.3069 -0.6444 0
M  V30 21 H -1.7533 -1.7926 0.1385 0
M  V30 22 H -3.5255 -0.7965 1.1322 0
M  V30 23 H -5.7065 -0.5584 0.2357 0
M  V30 24 H -5.4305 0.6956 1.3199 0
M  V30 END ATOM
M  V30 BEGIN BOND
M  V30 1 2 1 2
M  V30 2 1 2 3
M  V30 3 1 2 4
M  V30 4 1 3 5
M  V30 5 2 4 6
M  V30 6 1 4 7
M  V30 7 1 6 8
M  V30 8 2 7 9
M  V30 9 2 8 10
M  V30 10 1 10 11
M  V30 11 2 11 12
M  V30 12 1 11 13
M  V30 13 1 13 14
M  V30 14 1 9 10
M  V30 15 1 3 15
M  V30 16 1 5 16
M  V30 17 1 5 17
M  V30 18 1 6 18
M  V30 19 1 7 19
M  V30 20 1 8 20
M  V30 21 1 9 21
M  V30 22 1 13 22
M  V30 23 1 14 23
M  V30 24 1 14 24
M  V30 END BOND
M  V30 END CTAB
M  END
>  <Structure No>
8658

>  <LogS>
-2.29

>  <MMFF94 Energy>
134.42

$$$$
Compound 8659
Actelion Java MolfileCreator 2.0

  0  0  0  0  0  0              0 V3000
M  V30 BEGIN CTAB
M  V30 COUNTS 38 39 0 0 0
M  V30 BEGIN ATOM
M  V30 1 O -0.3933 2.4405 1.1803 0
M  V30 2 C 0.2592 2.0685 0.1665 0
M  V30 3 N -0.4236 1.7912 -1.0635 0
M  V30 4 C 1.7411 1.8042 0.2671 0 CFG=1
M  V30 5 C -1.8341 1.3949 -1.0769 0 CFG=2
M  V30 6 N 2.3488 2.5102 1.4034 0 CHG=1
M  V30 7 C 1.9808 0.3096 0.3643 0
M  V30 8 C -1.9839 0.0103 -0.4819 0
M  V30 9 C -2.3891 1.4293 -2.5039 0
M  V30 10 C 2.7155 -0.3546 -0.634 0
M  V30 11 C 1.4404 -0.4408 1.4272 0
M  V30 12 C -2.9122 -0.2219 0.5478 0
M  V30 13 C -1.1896 -1.0579 -0.9409 0
M  V30 14 C 2.9045 -1.7386 -0.5702 0
M  V30 15 C 1.6333 -1.824 1.4863 0
M  V30 16 C -3.0338 -1.4944 1.1151 0
M  V30 17 C -1.315 -2.3277 -0.3705 0
M  V30 18 C 2.3637 -2.4725 0.4882 0
M  V30 19 C -2.2344 -2.5453 0.6582 0
M  V30 20 H 0.1507 1.6536 -1.9265 0
M  V30 21 H 2.2084 2.1971 -0.6643 0
M  V30 22 H -2.4158 2.1353 -0.4831 0
M  V30 23 H 2.2016 3.5406 1.2972 0
M  V30 24 H 1.9351 2.1977 2.3119 0
M  V30 25 H 3.3785 2.3261 1.4188 0
M  V30 26 H -3.4645 1.1498 -2.5013 0
M  V30 27 H -2.294 2.4549 -2.9198 0
M  V30 28 H -1.836 0.726 -3.1626 0
M  V30 29 H 3.1353 0.1953 -1.4669 0
M  V30 30 H 0.8559 0.0407 2.2006 0
M  V30 31 H -3.5371 0.5817 0.9172 0
M  V30 32 H -0.465 -0.9046 -1.7307 0
M  V30 33 H 3.4678 -2.243 -1.3446 0
M  V30 34 H 1.2079 -2.3946 2.3019 0
M  V30 35 H -3.7469 -1.6651 1.9113 0
M  V30 36 H -0.694 -3.1415 -0.722 0
M  V30 37 H 2.5076 -3.5442 0.533 0
M  V30 38 H -2.3276 -3.5284 1.1013 0
M  V30 END ATOM
M  V30 BEGIN BOND
M  V30 1 2 1 2
M  V30 2 1 2 3
M  V30 3 1 2 4
M  V30 4 1 3 5
M  V30 5 1 4 6
M  V30 6 1 4 7
M  V30 7 1 5 8
M  V30 8 1 5 9
M  V30 9 2 7 10
M  V30 10 1 7 11
M  V30 11 2 8 12
M  V30 12 1 8 13
M  V30 13 1 10 14
M  V30 14 2 11 15
M  V30 15 1 12 16
M  V30 16 2 13 17
M  V30 17 2 14 18
M  V30 18 2 16 19
M  V30 19 1 15 18
M  V30 20 1 17 19
M  V30 21 1 3 20
M  V30 22 1 4 21
M  V30 23 1 5 22
M  V30 24 1 6 23
M  V30 25 1 6 24
M  V30 26 1 6 25
M  V30 27 1 9 26
M  V30 28 1 9 27
M  V30 29 1 9 28
M  V30 30 1 10 29
M  V30 31 1 11 30
M  V30 32 1 12 31
M  V30 33 1 13 32
M  V30 34 1 14 33
M  V30 35 1 15 34
M  V30 36 1 16 35
M  V30 37 1 17 36
M  V30 38 1 18 37
M  V30 39 1 19 38
M  V30 END BOND
M  V30 BEGIN COLLECTION
M  V30 MDLV30/STEABS ATOMS=(2 4 5)
M  V30 END COLLECTION
M  V30 END CTAB
M  END
>  <Structure No>
8659

>  <LogS>
-1.66

>  <MMFF94 Energy>
51.482

$$$$
Compound 8660
Actelion Java MolfileCreator 2.0

  0  0  0  0  0  0              0 V3000
M  V30 BEGIN CTAB
M  V30 COUNTS 27 28 0 0 0
M  V30 BEGIN ATOM
M  V30 1 Cl 2.1866 -1.7004 1.7004 0
M  V30 2 C 2.4736 -0.2485 0.7381 0
M  V30 3 C 3.533 0.6016 1.0784 0
M  V30 4 C 1.6762 0.0908 -0.3757 0
M  V30 5 O 4.2731 0.3387 2.0631 0
M  V30 6 N 3.7697 1.7187 0.3466 0 CHG=-1
M  V30 7 N 1.959 1.2288 -1.0743 0
M  V30 8 C 0.4901 -0.7489 -0.804 0
M  V30 9 C 2.9949 2.0354 -0.7199 0
M  V30 10 N -0.7876 -0.1099 -0.4209 0 CHG=1
M  V30 11 O 3.2382 3.0797 -1.3801 0
M  V30 12 C -1.9428 -0.8103 -0.9959 0
M  V30 13 C -1.0218 -0.1142 1.0284 0
M  V30 14 C -3.1292 -0.533 -0.081 0
M  V30 15 C -2.528 -0.0397 1.2263 0
M  V30 16 H 1.3714 1.4915 -1.8988 0
M  V30 17 H 0.5524 -1.7849 -0.4067 0
M  V30 18 H 0.5328 -0.8496 -1.9119 0
M  V30 19 H -0.8026 0.8816 -0.7639 0
M  V30 20 H -2.1489 -0.4523 -2.0296 0
M  V30 21 H -1.7686 -1.9111 -1.0315 0
M  V30 22 H -0.5148 0.7479 1.5167 0
M  V30 23 H -0.6524 -1.0573 1.4913 0
M  V30 24 H -3.78 0.253 -0.5237 0
M  V30 25 H -3.7292 -1.4557 0.0779 0
M  V30 26 H -2.8342 1.0132 1.4128 0
M  V30 27 H -2.8495 -0.6715 2.083 0
M  V30 END ATOM
M  V30 BEGIN BOND
M  V30 1 1 1 2
M  V30 2 1 2 3
M  V30 3 2 2 4
M  V30 4 2 3 5
M  V30 5 1 3 6
M  V30 6 1 4 7
M  V30 7 1 4 8
M  V30 8 1 6 9
M  V30 9 1 8 10
M  V30 10 2 9 11
M  V30 11 1 10 12
M  V30 12 1 10 13
M  V30 13 1 12 14
M  V30 14 1 13 15
M  V30 15 1 7 9
M  V30 16 1 14 15
M  V30 17 1 7 16
M  V30 18 1 8 17
M  V30 19 1 8 18
M  V30 20 1 10 19
M  V30 21 1 12 20
M  V30 22 1 12 21
M  V30 23 1 13 22
M  V30 24 1 13 23
M  V30 25 1 14 24
M  V30 26 1 14 25
M  V30 27 1 15 26
M  V30 28 1 15 27
M  V30 END BOND
M  V30 END CTAB
M  END
>  <Structure No>
8660

>  <LogS>
-1.54

>  <MMFF94 Energy>
-51.154

$$$$
Compound 8661
Actelion Java MolfileCreator 2.0

  0  0  0  0  0  0              0 V3000
M  V30 BEGIN CTAB
M  V30 COUNTS 41 42 0 0 0
M  V30 BEGIN ATOM
M  V30 1 F 6.1528 -0.4784 1.6751 0
M  V30 2 C 5.8403 -0.3268 0.3352 0
M  V30 3 F 6.2815 0.9111 -0.0928 0
M  V30 4 F 6.5015 -1.3124 -0.3767 0
M  V30 5 C 4.3507 -0.4237 0.1218 0
M  V30 6 C 3.4589 0.0269 1.1099 0
M  V30 7 C 3.8349 -0.8796 -1.1028 0
M  V30 8 C 2.0784 -0.0188 0.8947 0
M  V30 9 C 2.4545 -0.9244 -1.3167 0
M  V30 10 C 1.5651 -0.4975 -0.3252 0
M  V30 11 O 0.1887 -0.5629 -0.5965 0
M  V30 12 C -0.851 -0.1125 0.2773 0 CFG=1
M  V30 13 C -0.8385 1.3976 0.3806 0
M  V30 14 C -2.2116 -0.5847 -0.2582 0
M  V30 15 C -0.6573 2.1938 -0.765 0
M  V30 16 C -1.0552 2.0222 1.6211 0
M  V30 17 C -2.3225 -2.1213 -0.2478 0
M  V30 18 C -0.6667 3.5882 -0.6638 0
M  V30 19 C -1.0638 3.417 1.7172 0
M  V30 20 N -3.5783 -2.5953 -0.8562 0 CHG=1
M  V30 21 C -0.8675 4.1993 0.5764 0
M  V30 22 C -4.737 -2.3969 0.0215 0
M  V30 23 H 3.8296 0.4167 2.0497 0
M  V30 24 H 4.4987 -1.1991 -1.896 0
M  V30 25 H 1.4237 0.3253 1.6823 0
M  V30 26 H 2.0727 -1.2859 -2.2631 0
M  V30 27 H -0.7021 -0.5672 1.2825 0
M  V30 28 H -2.3508 -0.2094 -1.2958 0
M  V30 29 H -3.0124 -0.1538 0.3798 0
M  V30 30 H -0.508 1.7352 -1.7344 0
M  V30 31 H -1.2147 1.4301 2.5137 0
M  V30 32 H -2.2253 -2.5022 0.7937 0
M  V30 33 H -1.4712 -2.5429 -0.8272 0
M  V30 34 H -0.5211 4.1951 -1.5479 0
M  V30 35 H -1.2253 3.8917 2.6764 0
M  V30 36 H -3.7456 -2.1133 -1.7702 0
M  V30 37 H -3.4862 -3.6211 -1.0433 0
M  V30 38 H -0.8754 5.2789 0.6527 0
M  V30 39 H -4.9709 -1.3173 0.1322 0
M  V30 40 H -4.5589 -2.8463 1.0229 0
M  V30 41 H -5.6287 -2.8897 -0.4225 0
M  V30 END ATOM
M  V30 BEGIN BOND
M  V30 1 1 1 2
M  V30 2 1 2 3
M  V30 3 1 2 4
M  V30 4 1 2 5
M  V30 5 2 5 6
M  V30 6 1 5 7
M  V30 7 1 6 8
M  V30 8 2 7 9
M  V30 9 2 8 10
M  V30 10 1 10 11
M  V30 11 1 11 12
M  V30 12 1 12 13
M  V30 13 1 12 14
M  V30 14 2 13 15
M  V30 15 1 13 16
M  V30 16 1 14 17
M  V30 17 1 15 18
M  V30 18 2 16 19
M  V30 19 1 17 20
M  V30 20 2 18 21
M  V30 21 1 20 22
M  V30 22 1 9 10
M  V30 23 1 19 21
M  V30 24 1 6 23
M  V30 25 1 7 24
M  V30 26 1 8 25
M  V30 27 1 9 26
M  V30 28 1 12 27
M  V30 29 1 14 28
M  V30 30 1 14 29
M  V30 31 1 15 30
M  V30 32 1 16 31
M  V30 33 1 17 32
M  V30 34 1 17 33
M  V30 35 1 18 34
M  V30 36 1 19 35
M  V30 37 1 20 36
M  V30 38 1 20 37
M  V30 39 1 21 38
M  V30 40 1 22 39
M  V30 41 1 22 40
M  V30 42 1 22 41
M  V30 END BOND
M  V30 BEGIN COLLECTION
M  V30 MDLV30/STEABS ATOMS=(1 12)
M  V30 END COLLECTION
M  V30 END CTAB
M  END
>  <Structure No>
8661

>  <LogS>
-1.59

>  <MMFF94 Energy>
71.882

$$$$
Compound 8662
Actelion Java MolfileCreator 2.0

  0  0  0  0  0  0              0 V3000
M  V30 BEGIN CTAB
M  V30 COUNTS 23 22 0 0 0
M  V30 BEGIN ATOM
M  V30 1 O 2.2087 1.4195 -2.2877 0
M  V30 2 C 2.0883 1.164 -1.0597 0
M  V30 3 O 2.7766 1.9417 -0.1348 0 CHG=-1
M  V30 4 C 1.1448 0.0745 -0.59 0 CFG=1
M  V30 5 O 0.8656 -0.7993 -1.6612 0
M  V30 6 C 1.8109 -0.7076 0.5719 0
M  V30 7 C -0.1761 0.7644 -0.1523 0
M  V30 8 O 1.1752 -1.9412 0.7697 0
M  V30 9 C -1.2893 -0.1988 0.3225 0 CFG=1
M  V30 10 O -1.0396 -0.5742 1.6527 0
M  V30 11 C -2.6712 0.4715 0.2494 0
M  V30 12 O -3.059 0.6564 -1.0872 0
M  V30 13 H 1.7172 -1.236 -1.9292 0
M  V30 14 H 2.8808 -0.8996 0.3271 0
M  V30 15 H 1.777 -0.1066 1.5091 0
M  V30 16 H -0.5487 1.3459 -1.0246 0
M  V30 17 H 0.0302 1.5033 0.6548 0
M  V30 18 H 1.629 -2.3653 1.5436 0
M  V30 19 H -1.3051 -1.1007 -0.3328 0
M  V30 20 H -1.5456 -1.4129 1.8166 0
M  V30 21 H -3.4211 -0.1895 0.7338 0
M  V30 22 H -2.6649 1.4339 0.8142 0
M  V30 23 H -2.9335 1.618 -1.2989 0
M  V30 END ATOM
M  V30 BEGIN BOND
M  V30 1 2 1 2
M  V30 2 1 2 3
M  V30 3 1 2 4
M  V30 4 1 4 5
M  V30 5 1 4 6
M  V30 6 1 4 7
M  V30 7 1 6 8
M  V30 8 1 7 9
M  V30 9 1 9 10
M  V30 10 1 9 11
M  V30 11 1 11 12
M  V30 12 1 5 13
M  V30 13 1 6 14
M  V30 14 1 6 15
M  V30 15 1 7 16
M  V30 16 1 7 17
M  V30 17 1 8 18
M  V30 18 1 9 19
M  V30 19 1 10 20
M  V30 20 1 11 21
M  V30 21 1 11 22
M  V30 22 1 12 23
M  V30 END BOND
M  V30 BEGIN COLLECTION
M  V30 MDLV30/STEABS ATOMS=(2 4 9)
M  V30 END COLLECTION
M  V30 END CTAB
M  END
>  <Structure No>
8662

>  <LogS>
0.61

>  <MMFF94 Energy>
73.439

$$$$
Compound 8663
Actelion Java MolfileCreator 2.0

  0  0  0  0  0  0              0 V3000
M  V30 BEGIN CTAB
M  V30 COUNTS 8 7 0 0 0
M  V30 BEGIN ATOM
M  V30 1 Cl 1.52 1.52 -0.0949 0
M  V30 2 C 0.8043 -0.1068 0.0737 0
M  V30 3 F 1.3207 -0.9302 -0.9107 0
M  V30 4 F 1.158 -0.6161 1.3102 0
M  V30 5 C -0.7216 -0.0542 -0.0374 0
M  V30 6 Cl -1.2317 0.5146 -1.651 0
M  V30 7 F -1.2354 0.798 0.9238 0
M  V30 8 F -1.2415 -1.3196 0.1667 0
M  V30 END ATOM
M  V30 BEGIN BOND
M  V30 1 1 1 2
M  V30 2 1 2 3
M  V30 3 1 2 4
M  V30 4 1 2 5
M  V30 5 1 5 6
M  V30 6 1 5 7
M  V30 7 1 5 8
M  V30 END BOND
M  V30 END CTAB
M  END
>  <Structure No>
8663

>  <LogS>
-2.74

>  <MMFF94 Energy>
73.147

$$$$
Compound 8664
Actelion Java MolfileCreator 2.0

  0  0  0  0  0  0              0 V3000
M  V30 BEGIN CTAB
M  V30 COUNTS 29 30 0 0 0
M  V30 BEGIN ATOM
M  V30 1 O 0.0799 -0.7995 0.8795 0
M  V30 2 C -1.148 -0.5047 0.2121 0 CFG=1
M  V30 3 C 1.1889 -0.0377 0.3795 0
M  V30 4 C -0.9916 -0.8125 -1.3048 0
M  V30 5 C -1.4764 1.0058 0.3902 0
M  V30 6 C -2.2598 -1.3667 0.8191 0
M  V30 7 C 0.7543 0.9329 -0.7858 0 CFG=2
M  V30 8 C 1.7932 0.7586 1.5563 0
M  V30 9 C 2.2692 -1.027 -0.1082 0
M  V30 10 C 0.1106 0.0886 -1.9119 0
M  V30 11 C -0.3625 1.8643 -0.2566 0
M  V30 12 H -0.7153 -1.8809 -1.4425 0
M  V30 13 H -1.9536 -0.6363 -1.8352 0
M  V30 14 H -2.4554 1.2457 -0.0807 0
M  V30 15 H -1.5491 1.247 1.4734 0
M  V30 16 H -2.3626 -1.1512 1.9041 0
M  V30 17 H -2.0179 -2.4443 0.6986 0
M  V30 18 H -3.2318 -1.1614 0.321 0
M  V30 19 H 1.6099 1.5258 -1.177 0
M  V30 20 H 2.591 1.4443 1.1984 0
M  V30 21 H 1.0169 1.3491 2.0843 0
M  V30 22 H 2.2306 0.0725 2.3133 0
M  V30 23 H 2.6799 -1.613 0.7419 0
M  V30 24 H 1.8473 -1.7658 -0.8194 0
M  V30 25 H 3.1054 -0.4848 -0.5999 0
M  V30 26 H -0.3301 0.7571 -2.6842 0
M  V30 27 H 0.8741 -0.5225 -2.4367 0
M  V30 28 H 0.0424 2.5975 0.4718 0
M  V30 29 H -0.7853 2.4648 -1.0922 0
M  V30 END ATOM
M  V30 BEGIN BOND
M  V30 1 1 1 2
M  V30 2 1 1 3
M  V30 3 1 2 4
M  V30 4 1 2 5
M  V30 5 1 2 6
M  V30 6 1 3 7
M  V30 7 1 3 8
M  V30 8 1 3 9
M  V30 9 1 4 10
M  V30 10 1 5 11
M  V30 11 1 7 10
M  V30 12 1 7 11
M  V30 13 1 4 12
M  V30 14 1 4 13
M  V30 15 1 5 14
M  V30 16 1 5 15
M  V30 17 1 6 16
M  V30 18 1 6 17
M  V30 19 1 6 18
M  V30 20 1 7 19
M  V30 21 1 8 20
M  V30 22 1 8 21
M  V30 23 1 8 22
M  V30 24 1 9 23
M  V30 25 1 9 24
M  V30 26 1 9 25
M  V30 27 1 10 26
M  V30 28 1 10 27
M  V30 29 1 11 28
M  V30 30 1 11 29
M  V30 END BOND
M  V30 BEGIN COLLECTION
M  V30 MDLV30/STEABS ATOMS=(2 2 7)
M  V30 END COLLECTION
M  V30 END CTAB
M  END
>  <Structure No>
8664

>  <LogS>
-1.74

>  <MMFF94 Energy>
38.382

$$$$
Compound 8665
Actelion Java MolfileCreator 2.0

  0  0  0  0  0  0              0 V3000
M  V30 BEGIN CTAB
M  V30 COUNTS 12 11 0 0 0
M  V30 BEGIN ATOM
M  V30 1 C 0.8988 -0.4493 0.2995 0
M  V30 2 C 1.6256 0.6715 0.2627 0
M  V30 3 C -0.3604 -0.6033 -0.508 0
M  V30 4 C -1.4863 0.2661 0.0451 0
M  V30 5 H 1.2426 -1.2834 0.9042 0
M  V30 6 H 2.5377 0.7464 0.846 0
M  V30 7 H 1.321 1.5159 -0.3481 0
M  V30 8 H -0.1642 -0.3366 -1.5692 0
M  V30 9 H -0.6815 -1.6664 -0.4744 0
M  V30 10 H -1.2176 1.3417 -0.0218 0
M  V30 11 H -2.4106 0.0963 -0.5463 0
M  V30 12 H -1.6896 0.0038 1.1056 0
M  V30 END ATOM
M  V30 BEGIN BOND
M  V30 1 2 1 2
M  V30 2 1 1 3
M  V30 3 1 3 4
M  V30 4 1 1 5
M  V30 5 1 2 6
M  V30 6 1 2 7
M  V30 7 1 3 8
M  V30 8 1 3 9
M  V30 9 1 4 10
M  V30 10 1 4 11
M  V30 11 1 4 12
M  V30 END BOND
M  V30 END CTAB
M  END
>  <Structure No>
8665

>  <LogS>
-1.94

>  <MMFF94 Energy>
5.693

$$$$
Compound 8666
Actelion Java MolfileCreator 2.0

  0  0  0  0  0  0              0 V3000
M  V30 BEGIN CTAB
M  V30 COUNTS 30 29 0 0 0
M  V30 BEGIN ATOM
M  V30 1 C 4.3977 -0.3081 -0.3851 0
M  V30 2 C 4.9334 0.8911 -0.1386 0
M  V30 3 C 2.9088 -0.5136 -0.4405 0
M  V30 4 C 2.2804 -0.3929 0.9562 0
M  V30 5 C 0.7897 -0.7663 0.9683 0
M  V30 6 C -0.0871 0.2785 0.2621 0
M  V30 7 C -1.5749 -0.0628 0.4095 0
M  V30 8 C -2.4508 0.9705 -0.3145 0
M  V30 9 C -3.9521 0.7341 -0.0885 0
M  V30 10 C -4.4697 -0.5105 -0.809 0
M  V30 11 H 5.0543 -1.1509 -0.5801 0
M  V30 12 H 6.0117 1.0103 -0.1187 0
M  V30 13 H 4.3047 1.7582 0.0402 0
M  V30 14 H 2.709 -1.5283 -0.8476 0
M  V30 15 H 2.4664 0.2315 -1.1352 0
M  V30 16 H 2.8127 -1.0827 1.6478 0
M  V30 17 H 2.41 0.6403 1.3464 0
M  V30 18 H 0.4661 -0.8479 2.0294 0
M  V30 19 H 0.6469 -1.7629 0.4957 0
M  V30 20 H 0.1674 0.3116 -0.8186 0
M  V30 21 H 0.1048 1.2813 0.7036 0
M  V30 22 H -1.7556 -1.0718 -0.019 0
M  V30 23 H -1.8422 -0.0817 1.489 0
M  V30 24 H -2.2281 0.9595 -1.4041 0
M  V30 25 H -2.2025 1.9842 0.0697 0
M  V30 26 H -4.5079 1.6157 -0.4749 0
M  V30 27 H -4.1676 0.652 0.9989 0
M  V30 28 H -5.5744 -0.5619 -0.7079 0
M  V30 29 H -4.0398 -1.4308 -0.3628 0
M  V30 30 H -4.2159 -0.4684 -1.8894 0
M  V30 END ATOM
M  V30 BEGIN BOND
M  V30 1 2 1 2
M  V30 2 1 1 3
M  V30 3 1 3 4
M  V30 4 1 4 5
M  V30 5 1 5 6
M  V30 6 1 6 7
M  V30 7 1 7 8
M  V30 8 1 8 9
M  V30 9 1 9 10
M  V30 10 1 1 11
M  V30 11 1 2 12
M  V30 12 1 2 13
M  V30 13 1 3 14
M  V30 14 1 3 15
M  V30 15 1 4 16
M  V30 16 1 4 17
M  V30 17 1 5 18
M  V30 18 1 5 19
M  V30 19 1 6 20
M  V30 20 1 6 21
M  V30 21 1 7 22
M  V30 22 1 7 23
M  V30 23 1 8 24
M  V30 24 1 8 25
M  V30 25 1 9 26
M  V30 26 1 9 27
M  V30 27 1 10 28
M  V30 28 1 10 29
M  V30 29 1 10 30
M  V30 END BOND
M  V30 END CTAB
M  END
>  <Structure No>
8666

>  <LogS>
-5.51

>  <MMFF94 Energy>
4.213

$$$$
Compound 8667
Actelion Java MolfileCreator 2.0

  0  0  0  0  0  0              0 V3000
M  V30 BEGIN CTAB
M  V30 COUNTS 12 11 0 0 0
M  V30 BEGIN ATOM
M  V30 1 O 1.58 0.9026 0.4512 0
M  V30 2 C 1.0502 -0.3952 0.4104 0
M  V30 3 C -0.2177 -0.4421 -0.4482 0
M  V30 4 C -1.3349 0.4175 0.1389 0
M  V30 5 H 2.0129 1.0604 -0.4281 0
M  V30 6 H 1.8046 -1.1043 4.0E-4 0
M  V30 7 H 0.8138 -0.7208 1.446 0
M  V30 8 H 0.0147 -0.0931 -1.4777 0
M  V30 9 H -0.5703 -1.4941 -0.5131 0
M  V30 10 H -1.5888 0.0732 1.1642 0
M  V30 11 H -1.0263 1.4838 0.1753 0
M  V30 12 H -2.2407 0.3338 -0.4976 0
M  V30 END ATOM
M  V30 BEGIN BOND
M  V30 1 1 1 2
M  V30 2 1 2 3
M  V30 3 1 3 4
M  V30 4 1 1 5
M  V30 5 1 2 6
M  V30 6 1 2 7
M  V30 7 1 3 8
M  V30 8 1 3 9
M  V30 9 1 4 10
M  V30 10 1 4 11
M  V30 11 1 4 12
M  V30 END BOND
M  V30 END CTAB
M  END
>  <Structure No>
8667

>  <LogS>
0.62

>  <MMFF94 Energy>
-1.8102

$$$$
Compound 8668
Actelion Java MolfileCreator 2.0

  0  0  0  0  0  0              0 V3000
M  V30 BEGIN CTAB
M  V30 COUNTS 22 23 0 0 0
M  V30 BEGIN ATOM
M  V30 1 Cl 5.2945 -0.6853 -0.1957 0
M  V30 2 C 3.5466 -0.445 -0.1299 0
M  V30 3 C 2.9732 0.7022 -0.7051 0
M  V30 4 C 2.7294 -1.4011 0.4978 0
M  V30 5 Cl 4.0008 1.9021 -1.4929 0
M  V30 6 C 1.582 0.8947 -0.6533 0
M  V30 7 Cl 3.451 -2.8413 1.2198 0
M  V30 8 C 1.3379 -1.211 0.5509 0
M  V30 9 Cl 0.8635 2.3381 -1.3773 0
M  V30 10 C 0.7619 -0.0621 -0.0248 0
M  V30 11 Cl 0.3125 -2.4147 1.3407 0
M  V30 12 C -0.7052 0.1395 0.0303 0
M  V30 13 C -1.5245 -0.356 -1.0023 0
M  V30 14 C -1.2822 0.827 1.1157 0
M  V30 15 Cl -0.805 -1.2193 -2.3662 0
M  V30 16 C -2.9156 -0.164 -0.9486 0
M  V30 17 Cl -0.2581 1.4508 2.4141 0
M  V30 18 C -2.6737 1.0175 1.1669 0
M  V30 19 Cl -3.9423 -0.7854 -2.2433 0
M  V30 20 C -3.49 0.5223 0.1354 0
M  V30 21 Cl -3.3965 1.8795 2.5276 0
M  V30 22 Cl -5.2378 0.7627 0.2013 0
M  V30 END ATOM
M  V30 BEGIN BOND
M  V30 1 1 1 2
M  V30 2 2 2 3
M  V30 3 1 2 4
M  V30 4 1 3 5
M  V30 5 1 3 6
M  V30 6 1 4 7
M  V30 7 2 4 8
M  V30 8 1 6 9
M  V30 9 2 6 10
M  V30 10 1 8 11
M  V30 11 1 10 12
M  V30 12 2 12 13
M  V30 13 1 12 14
M  V30 14 1 13 15
M  V30 15 1 13 16
M  V30 16 1 14 17
M  V30 17 2 14 18
M  V30 18 1 16 19
M  V30 19 2 16 20
M  V30 20 1 18 21
M  V30 21 1 20 22
M  V30 22 1 8 10
M  V30 23 1 18 20
M  V30 END BOND
M  V30 END CTAB
M  END
>  <Structure No>
8668

>  <LogS>
-11.6

>  <MMFF94 Energy>
68.956

$$$$
Compound 8669
Actelion Java MolfileCreator 2.0

  0  0  0  0  0  0              0 V3000
M  V30 BEGIN CTAB
M  V30 COUNTS 22 23 0 0 0
M  V30 BEGIN ATOM
M  V30 1 Cl -0.2651 2.6534 0.7071 0
M  V30 2 C -1.3031 1.3335 0.161 0
M  V30 3 C -2.7011 1.498 0.1482 0
M  V30 4 C -0.7425 0.1022 -0.2415 0
M  V30 5 Cl -3.448 3.0138 0.6374 0
M  V30 6 C -3.526 0.4423 -0.2547 0
M  V30 7 C 0.7187 -0.1102 -0.2479 0
M  V30 8 C -1.5845 -0.9495 -0.6322 0
M  V30 9 C -2.9696 -0.7778 -0.6407 0
M  V30 10 C 1.5363 0.46 -1.2433 0
M  V30 11 C 1.2988 -0.9079 0.7495 0
M  V30 12 Cl 0.8571 1.4289 -2.547 0
M  V30 13 C 2.9179 0.2404 -1.2186 0
M  V30 14 C 2.6805 -1.1254 0.7713 0
M  V30 15 C 3.4941 -0.5466 -0.2159 0
M  V30 16 Cl 3.3646 -2.1256 2.0456 0
M  V30 17 Cl 5.2348 -0.7958 -0.2244 0
M  V30 18 H -4.6016 0.5655 -0.2651 0
M  V30 19 H -1.1659 -1.9011 -0.9368 0
M  V30 20 H -3.6132 -1.592 -0.9479 0
M  V30 21 H 0.6752 -1.3549 1.5147 0
M  V30 22 H 3.5454 0.6793 -1.9843 0
M  V30 END ATOM
M  V30 BEGIN BOND
M  V30 1 1 1 2
M  V30 2 2 2 3
M  V30 3 1 2 4
M  V30 4 1 3 5
M  V30 5 1 3 6
M  V30 6 1 4 7
M  V30 7 2 4 8
M  V30 8 2 6 9
M  V30 9 2 7 10
M  V30 10 1 7 11
M  V30 11 1 10 12
M  V30 12 1 10 13
M  V30 13 2 11 14
M  V30 14 2 13 15
M  V30 15 1 14 16
M  V30 16 1 15 17
M  V30 17 1 8 9
M  V30 18 1 14 15
M  V30 19 1 6 18
M  V30 20 1 8 19
M  V30 21 1 9 20
M  V30 22 1 11 21
M  V30 23 1 13 22
M  V30 END BOND
M  V30 END CTAB
M  END
>  <Structure No>
8669

>  <LogS>
-7.21

>  <MMFF94 Energy>
54.368

$$$$
Compound 8670
Actelion Java MolfileCreator 2.0

  0  0  0  0  0  0              0 V3000
M  V30 BEGIN CTAB
M  V30 COUNTS 22 23 0 0 0
M  V30 BEGIN ATOM
M  V30 1 Cl 0.6186 2.7416 -0.1767 0
M  V30 2 C 1.458 1.192 -0.0644 0
M  V30 3 C 0.726 -0.0098 0.0464 0
M  V30 4 C 2.864 1.1537 -0.081 0
M  V30 5 C 1.4118 -1.2372 0.1431 0
M  V30 6 C -0.751 0.0153 0.0623 0
M  V30 7 Cl 3.8176 2.6256 -0.2191 0
M  V30 8 C 3.5309 -0.0708 0.0138 0
M  V30 9 Cl 0.546 -2.7648 0.2761 0
M  V30 10 C 2.8089 -1.2591 0.1257 0
M  V30 11 C -1.4915 0.0396 -1.1361 0
M  V30 12 C -1.425 0.0137 1.2929 0
M  V30 13 Cl -0.6938 0.0319 -2.7049 0
M  V30 14 C -2.8905 0.0645 -1.0892 0
M  V30 15 C -2.8216 0.0386 1.3313 0
M  V30 16 C -3.5552 0.0645 0.1414 0
M  V30 17 Cl -5.3083 0.0955 0.1922 0
M  V30 18 H 4.6129 -0.1031 0.0012 0
M  V30 19 H 3.3388 -2.2005 0.1975 0
M  V30 20 H -0.8675 -0.0056 2.2214 0
M  V30 21 H -3.4614 0.0828 -2.0092 0
M  V30 22 H -3.3322 0.0378 2.2859 0
M  V30 END ATOM
M  V30 BEGIN BOND
M  V30 1 1 1 2
M  V30 2 2 2 3
M  V30 3 1 2 4
M  V30 4 1 3 5
M  V30 5 1 3 6
M  V30 6 1 4 7
M  V30 7 2 4 8
M  V30 8 1 5 9
M  V30 9 2 5 10
M  V30 10 2 6 11
M  V30 11 1 6 12
M  V30 12 1 11 13
M  V30 13 1 11 14
M  V30 14 2 12 15
M  V30 15 2 14 16
M  V30 16 1 16 17
M  V30 17 1 8 10
M  V30 18 1 15 16
M  V30 19 1 8 18
M  V30 20 1 10 19
M  V30 21 1 12 20
M  V30 22 1 14 21
M  V30 23 1 15 22
M  V30 END BOND
M  V30 BEGIN COLLECTION
M  V30 MDLV30/STEABS BONDS=(1 5)
M  V30 END COLLECTION
M  V30 END CTAB
M  END
>  <Structure No>
8670

>  <LogS>
-7.43

>  <MMFF94 Energy>
45.542

$$$$
Compound 8671
Actelion Java MolfileCreator 2.0

  0  0  0  0  0  0              0 V3000
M  V30 BEGIN CTAB
M  V30 COUNTS 23 22 0 0 0
M  V30 BEGIN ATOM
M  V30 1 C 0.6154 0.0 0.0 0
M  V30 2 C -0.8625 -0.0953 -0.5503 0
M  V30 3 C 1.4522 0.9571 -0.883 0
M  V30 4 C 0.6701 0.5106 1.4587 0
M  V30 5 C 1.2956 -1.3893 -0.0558 0
M  V30 6 C -1.7509 -1.0991 0.2127 0
M  V30 7 C -1.5934 1.2611 -0.6193 0
M  V30 8 H -0.8036 -0.4685 -1.5976 0
M  V30 9 H 1.3671 0.6779 -1.9553 0
M  V30 10 H 1.1282 2.0114 -0.7604 0
M  V30 11 H 2.527 0.9204 -0.6012 0
M  V30 12 H 0.2407 1.5294 1.5484 0
M  V30 13 H 0.1275 -0.1689 2.1472 0
M  V30 14 H 1.7238 0.5637 1.8089 0
M  V30 15 H 1.1995 -1.8336 -1.0698 0
M  V30 16 H 0.8546 -2.0882 0.6848 0
M  V30 17 H 2.378 -1.3119 0.1858 0
M  V30 18 H -1.885 -0.7977 1.2717 0
M  V30 19 H -1.3346 -2.125 0.1674 0
M  V30 20 H -2.7572 -1.1477 -0.2561 0
M  V30 21 H -2.6055 1.1247 -1.0573 0
M  V30 22 H -1.0609 1.9755 -1.2782 0
M  V30 23 H -1.7179 1.7059 0.389 0
M  V30 END ATOM
M  V30 BEGIN BOND
M  V30 1 1 1 2
M  V30 2 1 1 3
M  V30 3 1 1 4
M  V30 4 1 1 5
M  V30 5 1 2 6
M  V30 6 1 2 7
M  V30 7 1 2 8
M  V30 8 1 3 9
M  V30 9 1 3 10
M  V30 10 1 3 11
M  V30 11 1 4 12
M  V30 12 1 4 13
M  V30 13 1 4 14
M  V30 14 1 5 15
M  V30 15 1 5 16
M  V30 16 1 5 17
M  V30 17 1 6 18
M  V30 18 1 6 19
M  V30 19 1 6 20
M  V30 20 1 7 21
M  V30 21 1 7 22
M  V30 22 1 7 23
M  V30 END BOND
M  V30 END CTAB
M  END
>  <Structure No>
8671

>  <LogS>
-4.36

>  <MMFF94 Energy>
17.394

$$$$
Compound 8672
Actelion Java MolfileCreator 2.0

  0  0  0  0  0  0              0 V3000
M  V30 BEGIN CTAB
M  V30 COUNTS 12 12 0 0 0
M  V30 BEGIN ATOM
M  V30 1 Cl -2.0572 2.3379 -0.0934 0
M  V30 2 C -0.9113 0.9965 -0.063 0
M  V30 3 C 0.4745 1.2494 -0.0688 0
M  V30 4 C -1.3812 -0.3299 -0.0329 0
M  V30 5 Cl 1.0761 2.9075 -0.1063 0
M  V30 6 C 1.3803 0.174 -0.0443 0
M  V30 7 Cl -3.109 -0.6765 -0.0248 0
M  V30 8 C -0.4686 -1.3935 -0.0088 0
M  V30 9 Cl 3.1192 0.442 -0.0505 0
M  V30 10 C 0.9041 -1.1395 -0.0144 0
M  V30 11 O -0.921 -2.708 0.021 0 CHG=-1
M  V30 12 H 1.6021 -1.9674 0.0043 0
M  V30 END ATOM
M  V30 BEGIN BOND
M  V30 1 1 1 2
M  V30 2 2 2 3
M  V30 3 1 2 4
M  V30 4 1 3 5
M  V30 5 1 3 6
M  V30 6 1 4 7
M  V30 7 2 4 8
M  V30 8 1 6 9
M  V30 9 2 6 10
M  V30 10 1 8 11
M  V30 11 1 8 10
M  V30 12 1 10 12
M  V30 END BOND
M  V30 END CTAB
M  END
>  <Structure No>
8672

>  <LogS>
-3.15

>  <MMFF94 Energy>
36.047

$$$$
Compound 8673
Actelion Java MolfileCreator 2.0

  0  0  0  0  0  0              0 V3000
M  V30 BEGIN CTAB
M  V30 COUNTS 12 12 0 0 0
M  V30 BEGIN ATOM
M  V30 1 Cl -2.4298 -1.9623 0.0933 0
M  V30 2 C -1.0611 -0.8531 0.0642 0
M  V30 3 C -1.2636 0.5398 0.038 0
M  V30 4 C 0.243 -1.3714 0.0671 0
M  V30 5 Cl -2.8991 1.1998 0.0342 0
M  V30 6 C -0.1542 1.404 0.0151 0
M  V30 7 O 0.4453 -2.7474 0.0931 0 CHG=-1
M  V30 8 C 1.3428 -0.5042 0.0442 0
M  V30 9 Cl -0.3567 3.1512 -0.0178 0
M  V30 10 C 1.1414 0.878 0.0183 0
M  V30 11 Cl 2.981 -1.1386 0.0476 0
M  V30 12 H 1.9939 1.5454 6.0E-4 0
M  V30 END ATOM
M  V30 BEGIN BOND
M  V30 1 1 1 2
M  V30 2 2 2 3
M  V30 3 1 2 4
M  V30 4 1 3 5
M  V30 5 1 3 6
M  V30 6 1 4 7
M  V30 7 2 4 8
M  V30 8 1 6 9
M  V30 9 2 6 10
M  V30 10 1 8 11
M  V30 11 1 8 10
M  V30 12 1 10 12
M  V30 END BOND
M  V30 END CTAB
M  END
>  <Structure No>
8673

>  <LogS>
-3.1

>  <MMFF94 Energy>
47.555

$$$$
Compound 8674
Actelion Java MolfileCreator 2.0

  0  0  0  0  0  0              0 V3000
M  V30 BEGIN CTAB
M  V30 COUNTS 22 23 0 0 0
M  V30 BEGIN ATOM
M  V30 1 Cl -0.7622 -1.7793 -2.1184 0
M  V30 2 C -1.5135 -0.6936 -0.9448 0
M  V30 3 C -2.9165 -0.5773 -0.9063 0
M  V30 4 C -0.7268 0.0204 -0.0108 0
M  V30 5 Cl -3.9387 -1.4455 -2.0451 0
M  V30 6 C -3.5265 0.2345 0.0552 0
M  V30 7 C 0.7514 -0.0527 -0.02 0
M  V30 8 C -1.3604 0.8202 0.955 0
M  V30 9 C -2.7513 0.9273 0.9847 0
M  V30 10 C 1.4779 0.3275 -1.1611 0
M  V30 11 C 1.4448 -0.4665 1.1296 0
M  V30 12 C 2.875 0.2734 -1.158 0
M  V30 13 C 2.8419 -0.5197 1.1297 0
M  V30 14 C 3.5579 -0.1518 -0.0141 0
M  V30 15 Cl 5.3107 -0.2182 -0.0117 0
M  V30 16 H -4.605 0.3248 0.0867 0
M  V30 17 H -0.7743 1.373 1.6793 0
M  V30 18 H -3.2295 1.5513 1.7288 0
M  V30 19 H 0.9629 0.6739 -2.0488 0
M  V30 20 H 0.9029 -0.7557 2.022 0
M  V30 21 H 3.425 0.5663 -2.0432 0
M  V30 22 H 3.3663 -0.846 2.0188 0
M  V30 END ATOM
M  V30 BEGIN BOND
M  V30 1 1 1 2
M  V30 2 2 2 3
M  V30 3 1 2 4
M  V30 4 1 3 5
M  V30 5 1 3 6
M  V30 6 1 4 7
M  V30 7 2 4 8
M  V30 8 2 6 9
M  V30 9 2 7 10
M  V30 10 1 7 11
M  V30 11 1 10 12
M  V30 12 2 11 13
M  V30 13 2 12 14
M  V30 14 1 14 15
M  V30 15 1 8 9
M  V30 16 1 13 14
M  V30 17 1 6 16
M  V30 18 1 8 17
M  V30 19 1 9 18
M  V30 20 1 10 19
M  V30 21 1 11 20
M  V30 22 1 12 21
M  V30 23 1 13 22
M  V30 END BOND
M  V30 END CTAB
M  END
>  <Structure No>
8674

>  <LogS>
-6.29

>  <MMFF94 Energy>
51.911

$$$$
Compound 8675
Actelion Java MolfileCreator 2.0

  0  0  0  0  0  0              0 V3000
M  V30 BEGIN CTAB
M  V30 COUNTS 12 12 0 0 0
M  V30 BEGIN ATOM
M  V30 1 Cl 3.0579 0.5391 0.0 0
M  V30 2 C 1.3271 0.2006 -0.009 0
M  V30 3 C 0.3974 1.258 0.0204 0
M  V30 4 C 0.8681 -1.129 -0.0458 0
M  V30 5 Cl 0.9377 2.9342 0.067 0
M  V30 6 C -0.9778 0.9793 0.013 0
M  V30 7 Cl 1.99 -2.4832 -0.0836 0
M  V30 8 C -0.5054 -1.3937 -0.0529 0
M  V30 9 O -1.9058 2.0143 0.0419 0 CHG=-1
M  V30 10 C -1.4245 -0.3437 -0.0236 0
M  V30 11 H -0.8626 -2.4153 -0.0811 0
M  V30 12 H -2.4856 -0.5581 -0.0293 0
M  V30 END ATOM
M  V30 BEGIN BOND
M  V30 1 1 1 2
M  V30 2 2 2 3
M  V30 3 1 2 4
M  V30 4 1 3 5
M  V30 5 1 3 6
M  V30 6 1 4 7
M  V30 7 2 4 8
M  V30 8 1 6 9
M  V30 9 2 6 10
M  V30 10 1 8 10
M  V30 11 1 8 11
M  V30 12 1 10 12
M  V30 END BOND
M  V30 END CTAB
M  END
>  <Structure No>
8675

>  <LogS>
-2.67

>  <MMFF94 Energy>
32.967

$$$$
Compound 8676
Actelion Java MolfileCreator 2.0

  0  0  0  0  0  0              0 V3000
M  V30 BEGIN CTAB
M  V30 COUNTS 12 12 0 0 0
M  V30 BEGIN ATOM
M  V30 1 Cl -2.5234 1.9623 0.0933 0
M  V30 2 C -1.1513 0.8586 0.0423 0
M  V30 3 C 0.1525 1.3768 0.0104 0
M  V30 4 C -1.3499 -0.5323 0.0332 0
M  V30 5 O 0.3518 2.754 0.0194 0 CHG=-1
M  V30 6 C 1.256 0.5107 -0.0303 0
M  V30 7 Cl -2.9667 -1.2242 0.0723 0
M  V30 8 C -0.2484 -1.3928 -0.0074 0
M  V30 9 Cl 2.8848 1.1805 -0.0699 0
M  V30 10 C 1.052 -0.8794 -0.0393 0
M  V30 11 Cl 2.406 -2.0008 -0.09 0
M  V30 12 H -0.4035 -2.4646 -0.0144 0
M  V30 END ATOM
M  V30 BEGIN BOND
M  V30 1 1 1 2
M  V30 2 2 2 3
M  V30 3 1 2 4
M  V30 4 1 3 5
M  V30 5 1 3 6
M  V30 6 1 4 7
M  V30 7 2 4 8
M  V30 8 1 6 9
M  V30 9 2 6 10
M  V30 10 1 10 11
M  V30 11 1 8 10
M  V30 12 1 8 12
M  V30 END BOND
M  V30 END CTAB
M  END
>  <Structure No>
8676

>  <LogS>
-3.37

>  <MMFF94 Energy>
60.809

$$$$
Compound 8677
Actelion Java MolfileCreator 2.0

  0  0  0  0  0  0              0 V3000
M  V30 BEGIN CTAB
M  V30 COUNTS 12 12 0 0 0
M  V30 BEGIN ATOM
M  V30 1 Cl 1.9763 2.4258 0.0897 0
M  V30 2 C 0.8898 1.04 0.0591 0
M  V30 3 C -0.5049 1.2177 0.1093 0
M  V30 4 C 1.4228 -0.2563 -0.0161 0
M  V30 5 Cl -1.218 2.8226 0.2042 0
M  V30 6 C -1.3511 0.1025 0.0838 0
M  V30 7 O 2.7988 -0.4491 -0.0663 0 CHG=-1
M  V30 8 C 0.5704 -1.3651 -0.041 0
M  V30 9 C -0.8153 -1.1868 0.0088 0
M  V30 10 Cl -1.8811 -2.5797 -0.0226 0
M  V30 11 H -2.4248 0.2381 0.1224 0
M  V30 12 H 0.9863 -2.3631 -0.0991 0
M  V30 END ATOM
M  V30 BEGIN BOND
M  V30 1 1 1 2
M  V30 2 2 2 3
M  V30 3 1 2 4
M  V30 4 1 3 5
M  V30 5 1 3 6
M  V30 6 1 4 7
M  V30 7 2 4 8
M  V30 8 2 6 9
M  V30 9 1 9 10
M  V30 10 1 8 9
M  V30 11 1 6 11
M  V30 12 1 8 12
M  V30 END BOND
M  V30 END CTAB
M  END
>  <Structure No>
8677

>  <LogS>
-2.67

>  <MMFF94 Energy>
27.644

$$$$
Compound 8678
Actelion Java MolfileCreator 2.0

  0  0  0  0  0  0              0 V3000
M  V30 BEGIN CTAB
M  V30 COUNTS 22 23 0 0 0
M  V30 BEGIN ATOM
M  V30 1 Cl -0.8466 -1.609 -2.287 0
M  V30 2 C -1.5566 -0.6179 -1.0157 0
M  V30 3 C -0.7672 -0.0078 -0.0145 0
M  V30 4 C -2.9501 -0.4838 -0.9819 0
M  V30 5 C 0.7093 -0.1105 -0.0171 0
M  V30 6 C -1.4007 0.7126 1.0134 0
M  V30 7 C -3.5659 0.2447 0.0379 0
M  V30 8 C 1.4544 0.3322 -1.1233 0
M  V30 9 C 1.3837 -0.6174 1.1065 0
M  V30 10 C -2.793 0.8401 1.0373 0
M  V30 11 C 2.8499 0.2488 -1.1128 0
M  V30 12 C 2.7795 -0.6996 1.1139 0
M  V30 13 Cl -3.569 1.75 2.3209 0
M  V30 14 C 3.5134 -0.2686 0.0042 0
M  V30 15 Cl 5.2644 -0.3716 0.0158 0
M  V30 16 H -3.5599 -0.9534 -1.7435 0
M  V30 17 H -0.8109 1.1861 1.7894 0
M  V30 18 H -4.6443 0.3402 0.0536 0
M  V30 19 H 0.9554 0.7508 -1.9886 0
M  V30 20 H 0.8281 -0.9568 1.9723 0
M  V30 21 H 3.4142 0.5908 -1.9711 0
M  V30 22 H 3.2888 -1.0975 1.9824 0
M  V30 END ATOM
M  V30 BEGIN BOND
M  V30 1 1 1 2
M  V30 2 2 2 3
M  V30 3 1 2 4
M  V30 4 1 3 5
M  V30 5 1 3 6
M  V30 6 2 4 7
M  V30 7 2 5 8
M  V30 8 1 5 9
M  V30 9 2 6 10
M  V30 10 1 8 11
M  V30 11 2 9 12
M  V30 12 1 10 13
M  V30 13 2 11 14
M  V30 14 1 14 15
M  V30 15 1 7 10
M  V30 16 1 12 14
M  V30 17 1 4 16
M  V30 18 1 6 17
M  V30 19 1 7 18
M  V30 20 1 8 19
M  V30 21 1 9 20
M  V30 22 1 11 21
M  V30 23 1 12 22
M  V30 END BOND
M  V30 END CTAB
M  END
>  <Structure No>
8678

>  <LogS>
-6.27

>  <MMFF94 Energy>
39.61

$$$$
Compound 8679
Actelion Java MolfileCreator 2.0

  0  0  0  0  0  0              0 V3000
M  V30 BEGIN CTAB
M  V30 COUNTS 12 12 0 0 0
M  V30 BEGIN ATOM
M  V30 1 Cl 2.9345 1.035 0.0862 0
M  V30 2 C 1.2936 0.4085 0.0557 0
M  V30 3 C 0.1951 1.2817 0.0801 0
M  V30 4 C 1.0848 -0.9747 0.0067 0
M  V30 5 O 0.3988 2.6571 0.1289 0 CHG=-1
M  V30 6 C -1.1094 0.7646 0.0552 0
M  V30 7 C -0.2152 -1.4874 -0.018 0
M  V30 8 Cl -2.4981 1.8401 0.0851 0
M  V30 9 C -1.3107 -0.6197 0.0062 0
M  V30 10 H 1.9286 -1.6526 -0.0122 0
M  V30 11 H -0.3738 -2.5574 -0.0558 0
M  V30 12 H -2.315 -1.0238 -0.0131 0
M  V30 END ATOM
M  V30 BEGIN BOND
M  V30 1 1 1 2
M  V30 2 2 2 3
M  V30 3 1 2 4
M  V30 4 1 3 5
M  V30 5 1 3 6
M  V30 6 2 4 7
M  V30 7 1 6 8
M  V30 8 2 6 9
M  V30 9 1 7 9
M  V30 10 1 4 10
M  V30 11 1 7 11
M  V30 12 1 9 12
M  V30 END BOND
M  V30 END CTAB
M  END
>  <Structure No>
8679

>  <LogS>
-1.79

>  <MMFF94 Energy>
47.182

$$$$
Compound 8680
Actelion Java MolfileCreator 2.0

  0  0  0  0  0  0              0 V3000
M  V30 BEGIN CTAB
M  V30 COUNTS 23 22 0 0 0
M  V30 BEGIN ATOM
M  V30 1 O -0.3864 -2.0106 -0.8502 0
M  V30 2 C 0.7186 -1.7039 -0.3326 0
M  V30 3 C 1.0543 -0.3196 0.0906 0
M  V30 4 C 0.1981 0.7268 0.0546 0
M  V30 5 C 2.4775 -0.0668 0.5287 0
M  V30 6 C -1.2564 0.6749 -0.3309 0
M  V30 7 C 3.3513 0.3157 -0.6617 0
M  V30 8 C -2.1092 0.0738 0.794 0
M  V30 9 C -3.5777 -0.0062 0.3877 0
M  V30 10 H 1.4592 -2.484 -0.212 0
M  V30 11 H 0.5728 1.7073 0.3283 0
M  V30 12 H 2.5175 0.7443 1.2892 0
M  V30 13 H 2.8976 -0.9766 1.0103 0
M  V30 14 H -1.3948 0.1347 -1.2903 0
M  V30 15 H -1.6016 1.7171 -0.5078 0
M  V30 16 H 2.9721 1.2467 -1.135 0
M  V30 17 H 4.3925 0.4907 -0.3179 0
M  V30 18 H 3.3576 -0.5018 -1.4139 0
M  V30 19 H -1.7543 -0.9457 1.0528 0
M  V30 20 H -2.0215 0.7081 1.7033 0
M  V30 21 H -4.1719 -0.4342 1.2225 0
M  V30 22 H -3.9701 1.0068 0.1554 0
M  V30 23 H -3.6954 -0.6589 -0.5033 0
M  V30 END ATOM
M  V30 BEGIN BOND
M  V30 1 2 1 2
M  V30 2 1 2 3
M  V30 3 2 3 4
M  V30 4 1 3 5
M  V30 5 1 4 6
M  V30 6 1 5 7
M  V30 7 1 6 8
M  V30 8 1 8 9
M  V30 9 1 2 10
M  V30 10 1 4 11
M  V30 11 1 5 12
M  V30 12 1 5 13
M  V30 13 1 6 14
M  V30 14 1 6 15
M  V30 15 1 7 16
M  V30 16 1 7 17
M  V30 17 1 7 18
M  V30 18 1 8 19
M  V30 19 1 8 20
M  V30 20 1 9 21
M  V30 21 1 9 22
M  V30 22 1 9 23
M  V30 END BOND
M  V30 END CTAB
M  END
>  <Structure No>
8680

>  <LogS>
-2.46

>  <MMFF94 Energy>
13.367

$$$$
Compound 8681
Actelion Java MolfileCreator 2.0

  0  0  0  0  0  0              0 V3000
M  V30 BEGIN CTAB
M  V30 COUNTS 19 18 0 0 0
M  V30 BEGIN ATOM
M  V30 1 O -0.1541 -2.9318 -0.3082 0
M  V30 2 C -0.2808 -2.1595 0.6295 0
M  V30 3 C -0.1567 -0.6703 0.4258 0
M  V30 4 C 1.2656 -0.3172 -0.0891 0
M  V30 5 C -1.2786 -0.1959 -0.5267 0
M  V30 6 C 1.8409 0.9279 0.5881 0
M  V30 7 C -1.3689 1.3243 -0.6435 0
M  V30 8 H -0.4844 -2.5535 1.6201 0
M  V30 9 H -0.3235 -0.2007 1.4213 0
M  V30 10 H 1.2609 -0.1679 -1.1907 0
M  V30 11 H 1.9746 -1.1504 0.1155 0
M  V30 12 H -2.2564 -0.5639 -0.1434 0
M  V30 13 H -1.1321 -0.6291 -1.5406 0
M  V30 14 H 2.8468 1.1451 0.1712 0
M  V30 15 H 1.9432 0.7556 1.6807 0
M  V30 16 H 1.1947 1.8123 0.4218 0
M  V30 17 H -1.4164 1.7917 0.3629 0
M  V30 18 H -0.4987 1.7234 -1.2041 0
M  V30 19 H -2.2887 1.5974 -1.2023 0
M  V30 END ATOM
M  V30 BEGIN BOND
M  V30 1 2 1 2
M  V30 2 1 2 3
M  V30 3 1 3 4
M  V30 4 1 3 5
M  V30 5 1 4 6
M  V30 6 1 5 7
M  V30 7 1 2 8
M  V30 8 1 3 9
M  V30 9 1 4 10
M  V30 10 1 4 11
M  V30 11 1 5 12
M  V30 12 1 5 13
M  V30 13 1 6 14
M  V30 14 1 6 15
M  V30 15 1 6 16
M  V30 16 1 7 17
M  V30 17 1 7 18
M  V30 18 1 7 19
M  V30 END BOND
M  V30 END CTAB
M  END
>  <Structure No>
8681

>  <LogS>
-1.52

>  <MMFF94 Energy>
3.3551

$$$$
Compound 8682
Actelion Java MolfileCreator 2.0

  0  0  0  0  0  0              0 V3000
M  V30 BEGIN CTAB
M  V30 COUNTS 26 25 0 0 0
M  V30 BEGIN ATOM
M  V30 1 C 1.847 -0.3845 0.1538 0
M  V30 2 C 0.8697 0.5119 -0.6453 0
M  V30 3 C 3.138 -0.5881 -0.6498 0
M  V30 4 C 2.1797 0.2049 1.5327 0
M  V30 5 C -0.4951 0.7575 0.0257 0
M  V30 6 C -1.3091 -0.5329 0.2213 0
M  V30 7 C -2.7143 -0.2625 0.7826 0
M  V30 8 C -3.6673 0.3213 -0.2604 0
M  V30 9 H 1.394 -1.3883 0.2989 0
M  V30 10 H 1.3484 1.5001 -0.8244 0
M  V30 11 H 0.6894 0.0544 -1.6432 0
M  V30 12 H 3.6542 0.382 -0.8158 0
M  V30 13 H 2.9089 -1.0461 -1.6358 0
M  V30 14 H 3.8258 -1.2718 -0.1075 0
M  V30 15 H 2.5439 1.2502 1.4355 0
M  V30 16 H 1.2861 0.1885 2.1902 0
M  V30 17 H 2.9651 -0.4016 2.0323 0
M  V30 18 H -0.361 1.2758 0.9984 0
M  V30 19 H -1.0603 1.4502 -0.6321 0
M  V30 20 H -1.3857 -1.088 -0.7392 0
M  V30 21 H -0.7828 -1.1849 0.9498 0
M  V30 22 H -2.6537 0.4205 1.6578 0
M  V30 23 H -3.1411 -1.2255 1.1383 0
M  V30 24 H -3.3559 1.3448 -0.5533 0
M  V30 25 H -4.6896 0.383 0.1689 0
M  V30 26 H -3.7029 -0.3271 -1.1614 0
M  V30 END ATOM
M  V30 BEGIN BOND
M  V30 1 1 1 2
M  V30 2 1 1 3
M  V30 3 1 1 4
M  V30 4 1 2 5
M  V30 5 1 5 6
M  V30 6 1 6 7
M  V30 7 1 7 8
M  V30 8 1 1 9
M  V30 9 1 2 10
M  V30 10 1 2 11
M  V30 11 1 3 12
M  V30 12 1 3 13
M  V30 13 1 3 14
M  V30 14 1 4 15
M  V30 15 1 4 16
M  V30 16 1 4 17
M  V30 17 1 5 18
M  V30 18 1 5 19
M  V30 19 1 6 20
M  V30 20 1 6 21
M  V30 21 1 7 22
M  V30 22 1 7 23
M  V30 23 1 8 24
M  V30 24 1 8 25
M  V30 25 1 8 26
M  V30 END BOND
M  V30 END CTAB
M  END
>  <Structure No>
8682

>  <LogS>
-5.08

>  <MMFF94 Energy>
-0.23577

$$$$
Compound 8683
Actelion Java MolfileCreator 2.0

  0  0  0  0  0  0              0 V3000
M  V30 BEGIN CTAB
M  V30 COUNTS 12 11 0 0 0
M  V30 BEGIN ATOM
M  V30 1 O -0.2256 1.5049 0.5265 0
M  V30 2 C 0.0409 0.3612 -0.2415 0
M  V30 3 C 1.3473 -0.2692 0.2372 0
M  V30 4 C -1.1165 -0.6325 -0.1165 0
M  V30 5 H -0.8951 2.0382 0.0231 0
M  V30 6 H 0.1635 0.6425 -1.3134 0
M  V30 7 H 1.2682 -0.5653 1.3053 0
M  V30 8 H 1.5884 -1.1663 -0.372 0
M  V30 9 H 2.1776 0.4609 0.1305 0
M  V30 10 H -2.054 -0.1688 -0.4901 0
M  V30 11 H -1.2627 -0.9272 0.9449 0
M  V30 12 H -0.9107 -1.5414 -0.7213 0
M  V30 END ATOM
M  V30 BEGIN BOND
M  V30 1 1 1 2
M  V30 2 1 2 3
M  V30 3 1 2 4
M  V30 4 1 1 5
M  V30 5 1 2 6
M  V30 6 1 3 7
M  V30 7 1 3 8
M  V30 8 1 3 9
M  V30 9 1 4 10
M  V30 10 1 4 11
M  V30 11 1 4 12
M  V30 END BOND
M  V30 END CTAB
M  END
>  <Structure No>
8683

>  <LogS>
0.43

>  <MMFF94 Energy>
0.99634

$$$$
Compound 8684
Actelion Java MolfileCreator 2.0

  0  0  0  0  0  0              0 V3000
M  V30 BEGIN CTAB
M  V30 COUNTS 19 19 0 0 0
M  V30 BEGIN ATOM
M  V30 1 O 3.3638 -0.547 0.2344 0
M  V30 2 C 2.0391 -0.1436 0.0808 0
M  V30 3 C 0.9871 -0.9985 0.4319 0
M  V30 4 C 1.7613 1.1257 -0.4284 0
M  V30 5 C -0.3495 -0.5909 0.2747 0
M  V30 6 C 0.4396 1.5464 -0.5866 0
M  V30 7 C -0.6268 0.701 -0.2348 0
M  V30 8 C -1.4593 -1.5317 0.6647 0
M  V30 9 C -2.0423 1.1815 -0.4202 0
M  V30 10 H 3.6001 -1.4616 0.6011 0
M  V30 11 H 1.2144 -1.9813 0.8267 0
M  V30 12 H 2.5721 1.7888 -0.7022 0
M  V30 13 H 0.25 2.536 -0.984 0
M  V30 14 H -1.0662 -2.5203 0.9841 0
M  V30 15 H -2.1369 -1.6977 -0.1985 0
M  V30 16 H -2.0372 -1.1007 1.509 0
M  V30 17 H -2.5915 1.1244 0.5427 0
M  V30 18 H -2.5565 0.5515 -1.1757 0
M  V30 19 H -2.0752 2.2357 -0.769 0
M  V30 END ATOM
M  V30 BEGIN BOND
M  V30 1 1 1 2
M  V30 2 2 2 3
M  V30 3 1 2 4
M  V30 4 1 3 5
M  V30 5 2 4 6
M  V30 6 2 5 7
M  V30 7 1 5 8
M  V30 8 1 7 9
M  V30 9 1 6 7
M  V30 10 1 1 10
M  V30 11 1 3 11
M  V30 12 1 4 12
M  V30 13 1 6 13
M  V30 14 1 8 14
M  V30 15 1 8 15
M  V30 16 1 8 16
M  V30 17 1 9 17
M  V30 18 1 9 18
M  V30 19 1 9 19
M  V30 END BOND
M  V30 END CTAB
M  END
>  <Structure No>
8684

>  <LogS>
-1.38

>  <MMFF94 Energy>
11.308

$$$$
Compound 8685
Actelion Java MolfileCreator 2.0

  0  0  0  0  0  0              0 V3000
M  V30 BEGIN CTAB
M  V30 COUNTS 55 57 0 0 0
M  V30 BEGIN ATOM
M  V30 1 O 0.4796 2.7201 0.9594 0
M  V30 2 C -0.4238 2.0723 0.3675 0
M  V30 3 N -0.2708 1.5212 -0.9291 0
M  V30 4 N -1.6812 1.7778 0.957 0
M  V30 5 C -1.4985 0.8314 -1.1449 0
M  V30 6 C 1.013 1.1644 -1.5273 0
M  V30 7 C -2.4405 0.9312 0.0332 0
M  V30 8 O -1.7413 0.1754 -2.1942 0
M  V30 9 O 1.6972 0.2315 -0.6931 0
M  V30 10 C -2.6345 -0.4775 0.5975 0
M  V30 11 C -3.7656 1.6311 -0.2763 0
M  V30 12 C 1.3005 -1.1011 -0.5376 0
M  V30 13 C -1.7833 -0.9906 1.6007 0
M  V30 14 C -3.5915 -1.3416 0.0252 0
M  V30 15 C -4.7763 1.6514 0.7069 0
M  V30 16 C -3.9868 2.3386 -1.4789 0
M  V30 17 O 0.4138 -1.6036 -1.2799 0
M  V30 18 C 1.9717 -1.952 0.4943 0
M  V30 19 C -1.9255 -2.3063 2.0507 0
M  V30 20 C -3.7307 -2.6549 0.4823 0
M  V30 21 C -5.9862 2.3113 0.4756 0
M  V30 22 C -5.1998 2.9971 -1.7036 0
M  V30 23 C 3.0853 -2.8207 -0.1112 0
M  V30 24 C -2.9019 -3.1352 1.497 0
M  V30 25 C -6.1998 2.9791 -0.7305 0
M  V30 26 C 4.2195 -2.0237 -0.7814 0
M  V30 27 C 5.0168 -1.1685 0.2143 0
M  V30 28 C 6.2244 -0.5161 -0.4682 0
M  V30 29 C 7.0119 0.3483 0.5121 0
M  V30 30 H -1.9796 2.0606 1.9176 0
M  V30 31 H 1.6345 2.0794 -1.6189 0
M  V30 32 H 0.87 0.7453 -2.5467 0
M  V30 33 H -0.9971 -0.3852 2.0315 0
M  V30 34 H -4.228 -1.0009 -0.7817 0
M  V30 35 H -4.6268 1.1528 1.6566 0
M  V30 36 H -3.2288 2.3952 -2.2475 0
M  V30 37 H 1.2114 -2.618 0.957 0
M  V30 38 H 2.3728 -1.312 1.3075 0
M  V30 39 H -1.2698 -2.6863 2.8235 0
M  V30 40 H -4.4761 -3.3041 0.0414 0
M  V30 41 H -6.7568 2.3093 1.2355 0
M  V30 42 H -5.3615 3.5287 -2.6325 0
M  V30 43 H 2.6364 -3.501 -0.8675 0
M  V30 44 H 3.5137 -3.4624 0.6891 0
M  V30 45 H -3.0078 -4.1544 1.8457 0
M  V30 46 H -7.1367 3.4917 -0.9072 0
M  V30 47 H 4.9084 -2.7538 -1.2601 0
M  V30 48 H 3.8092 -1.3798 -1.5891 0
M  V30 49 H 5.3695 -1.808 1.0531 0
M  V30 50 H 4.3647 -0.3682 0.6252 0
M  V30 51 H 5.8786 0.121 -1.3116 0
M  V30 52 H 6.8974 -1.3028 -0.8737 0
M  V30 53 H 6.3686 1.16 0.9138 0
M  V30 54 H 7.3911 -0.2702 1.3535 0
M  V30 55 H 7.8778 0.8072 -0.0097 0
M  V30 END ATOM
M  V30 BEGIN BOND
M  V30 1 2 1 2
M  V30 2 1 2 3
M  V30 3 1 2 4
M  V30 4 1 3 5
M  V30 5 1 3 6
M  V30 6 1 4 7
M  V30 7 2 5 8
M  V30 8 1 6 9
M  V30 9 1 7 10
M  V30 10 1 7 11
M  V30 11 1 9 12
M  V30 12 2 10 13
M  V30 13 1 10 14
M  V30 14 2 11 15
M  V30 15 1 11 16
M  V30 16 2 12 17
M  V30 17 1 12 18
M  V30 18 1 13 19
M  V30 19 2 14 20
M  V30 20 1 15 21
M  V30 21 2 16 22
M  V30 22 1 18 23
M  V30 23 2 19 24
M  V30 24 2 21 25
M  V30 25 1 23 26
M  V30 26 1 26 27
M  V30 27 1 27 28
M  V30 28 1 28 29
M  V30 29 1 5 7
M  V30 30 1 20 24
M  V30 31 1 22 25
M  V30 32 1 4 30
M  V30 33 1 6 31
M  V30 34 1 6 32
M  V30 35 1 13 33
M  V30 36 1 14 34
M  V30 37 1 15 35
M  V30 38 1 16 36
M  V30 39 1 18 37
M  V30 40 1 18 38
M  V30 41 1 19 39
M  V30 42 1 20 40
M  V30 43 1 21 41
M  V30 44 1 22 42
M  V30 45 1 23 43
M  V30 46 1 23 44
M  V30 47 1 24 45
M  V30 48 1 25 46
M  V30 49 1 26 47
M  V30 50 1 26 48
M  V30 51 1 27 49
M  V30 52 1 27 50
M  V30 53 1 28 51
M  V30 54 1 28 52
M  V30 55 1 29 53
M  V30 56 1 29 54
M  V30 57 1 29 55
M  V30 END BOND
M  V30 END CTAB
M  END
>  <Structure No>
8685

>  <LogS>
-6.301

>  <MMFF94 Energy>
-39.324

$$$$
Compound 8686
Actelion Java MolfileCreator 2.0

  0  0  0  0  0  0              0 V3000
M  V30 BEGIN CTAB
M  V30 COUNTS 52 54 0 0 0
M  V30 BEGIN ATOM
M  V30 1 O 1.1208 1.8418 -1.7617 0
M  V30 2 C 0.0382 1.267 -1.4715 0
M  V30 3 N -0.311 -0.0265 -1.9311 0
M  V30 4 N -0.9409 1.8384 -0.6162 0
M  V30 5 C -1.5396 -0.3004 -1.2655 0
M  V30 6 C 0.6237 -1.028 -2.4269 0
M  V30 7 C -2.0233 0.8666 -0.4319 0
M  V30 8 O -2.1307 -1.4115 -1.3463 0
M  V30 9 O 1.3313 -1.5916 -1.3291 0
M  V30 10 C -2.1304 0.4109 1.0248 0
M  V30 11 C -3.3221 1.4961 -0.9429 0
M  V30 12 C 2.3688 -2.5128 -1.4911 0
M  V30 13 C -1.0801 0.6179 1.9457 0
M  V30 14 C -3.262 -0.3181 1.4505 0
M  V30 15 C -3.9686 2.4755 -0.1601 0
M  V30 16 C -3.8537 1.2012 -2.2185 0
M  V30 17 O 2.6933 -2.9223 -2.6386 0
M  V30 18 C 3.1346 -2.9743 -0.2906 0
M  V30 19 C -1.1864 0.1548 3.2608 0
M  V30 20 C -3.3617 -0.7769 2.7671 0
M  V30 21 C -5.1375 3.0954 -0.6116 0
M  V30 22 C -5.0214 1.8269 -2.6652 0
M  V30 23 C 4.3621 -2.0917 -0.0281 0
M  V30 24 C -2.327 -0.5372 3.6722 0
M  V30 25 C -5.6665 2.7676 -1.8605 0
M  V30 26 C 3.9743 -0.6819 0.4556 0
M  V30 27 C 5.1956 0.2296 0.6579 0
M  V30 28 C 6.0376 -0.1659 1.8709 0
M  V30 29 H -0.8831 2.7853 -0.1768 0
M  V30 30 H 1.3374 -0.5493 -3.1321 0
M  V30 31 H 0.0691 -1.8243 -2.9677 0
M  V30 32 H -0.1726 1.1301 1.6555 0
M  V30 33 H -4.0693 -0.5324 0.7603 0
M  V30 34 H -3.5675 2.759 0.8053 0
M  V30 35 H -3.3728 0.4937 -2.8797 0
M  V30 36 H 3.4667 -4.0221 -0.4545 0
M  V30 37 H 2.4687 -2.9721 0.6 0
M  V30 38 H -0.3798 0.33 3.9617 0
M  V30 39 H -4.2416 -1.3216 3.0852 0
M  V30 40 H -5.6308 3.8356 0.006 0
M  V30 41 H -5.4235 1.5859 -3.641 0
M  V30 42 H 4.9766 -2.0205 -0.9521 0
M  V30 43 H 4.9749 -2.5917 0.7509 0
M  V30 44 H -2.4054 -0.8925 4.6916 0
M  V30 45 H -6.5703 3.2504 -2.2102 0
M  V30 46 H 3.3232 -0.2007 -0.3051 0
M  V30 47 H 3.393 -0.7503 1.4014 0
M  V30 48 H 5.8312 0.2246 -0.2552 0
M  V30 49 H 4.8344 1.2704 0.8108 0
M  V30 50 H 6.5227 -1.1517 1.7097 0
M  V30 51 H 6.8367 0.591 2.029 0
M  V30 52 H 5.405 -0.21 2.7836 0
M  V30 END ATOM
M  V30 BEGIN BOND
M  V30 1 2 1 2
M  V30 2 1 2 3
M  V30 3 1 2 4
M  V30 4 1 3 5
M  V30 5 1 3 6
M  V30 6 1 4 7
M  V30 7 2 5 8
M  V30 8 1 6 9
M  V30 9 1 7 10
M  V30 10 1 7 11
M  V30 11 1 9 12
M  V30 12 2 10 13
M  V30 13 1 10 14
M  V30 14 2 11 15
M  V30 15 1 11 16
M  V30 16 2 12 17
M  V30 17 1 12 18
M  V30 18 1 13 19
M  V30 19 2 14 20
M  V30 20 1 15 21
M  V30 21 2 16 22
M  V30 22 1 18 23
M  V30 23 2 19 24
M  V30 24 2 21 25
M  V30 25 1 23 26
M  V30 26 1 26 27
M  V30 27 1 27 28
M  V30 28 1 5 7
M  V30 29 1 20 24
M  V30 30 1 22 25
M  V30 31 1 4 29
M  V30 32 1 6 30
M  V30 33 1 6 31
M  V30 34 1 13 32
M  V30 35 1 14 33
M  V30 36 1 15 34
M  V30 37 1 16 35
M  V30 38 1 18 36
M  V30 39 1 18 37
M  V30 40 1 19 38
M  V30 41 1 20 39
M  V30 42 1 21 40
M  V30 43 1 22 41
M  V30 44 1 23 42
M  V30 45 1 23 43
M  V30 46 1 24 44
M  V30 47 1 25 45
M  V30 48 1 26 46
M  V30 49 1 26 47
M  V30 50 1 27 48
M  V30 51 1 27 49
M  V30 52 1 28 50
M  V30 53 1 28 51
M  V30 54 1 28 52
M  V30 END BOND
M  V30 END CTAB
M  END
>  <Structure No>
8686

>  <LogS>
-5.886

>  <MMFF94 Energy>
-38.996

$$$$
Compound 8687
Actelion Java MolfileCreator 2.0

  0  0  0  0  0  0              0 V3000
M  V30 BEGIN CTAB
M  V30 COUNTS 18 17 0 0 0
M  V30 BEGIN ATOM
M  V30 1 O 1.1467 -1.3762 1.2997 0
M  V30 2 C 0.712 -0.1172 0.8463 0 CFG=2
M  V30 3 C -0.7251 -0.211 0.2575 0
M  V30 4 C 1.7503 0.5115 -0.1002 0
M  V30 5 C -1.3651 1.1754 0.0892 0
M  V30 6 C -0.8009 -0.9939 -1.0633 0
M  V30 7 H 1.3952 -1.9202 0.5083 0
M  V30 8 H 0.6615 0.5383 1.7433 0
M  V30 9 H -1.3454 -0.7609 1.0003 0
M  V30 10 H 2.7284 0.5822 0.4211 0
M  V30 11 H 1.8911 -0.1056 -1.0114 0
M  V30 12 H 1.4472 1.537 -0.3948 0
M  V30 13 H -2.4367 1.0673 -0.184 0
M  V30 14 H -1.3119 1.7461 1.0407 0
M  V30 15 H -0.8593 1.756 -0.7102 0
M  V30 16 H -1.8621 -1.1056 -1.3733 0
M  V30 17 H -0.38 -2.0132 -0.9454 0
M  V30 18 H -0.2598 -0.4645 -1.8751 0
M  V30 END ATOM
M  V30 BEGIN BOND
M  V30 1 1 1 2
M  V30 2 1 2 3
M  V30 3 1 2 4
M  V30 4 1 3 5
M  V30 5 1 3 6
M  V30 6 1 1 7
M  V30 7 1 2 8
M  V30 8 1 3 9
M  V30 9 1 4 10
M  V30 10 1 4 11
M  V30 11 1 4 12
M  V30 12 1 5 13
M  V30 13 1 5 14
M  V30 14 1 5 15
M  V30 15 1 6 16
M  V30 16 1 6 17
M  V30 17 1 6 18
M  V30 END BOND
M  V30 BEGIN COLLECTION
M  V30 MDLV30/STEABS ATOMS=(1 2)
M  V30 END COLLECTION
M  V30 END CTAB
M  END
>  <Structure No>
8687

>  <LogS>
-0.18

>  <MMFF94 Energy>
7.0366

$$$$
Compound 8688
Actelion Java MolfileCreator 2.0

  0  0  0  0  0  0              0 V3000
M  V30 BEGIN CTAB
M  V30 COUNTS 21 20 0 0 0
M  V30 BEGIN ATOM
M  V30 1 O 3.4553 0.1533 -0.1533 0
M  V30 2 C 2.1745 -0.3485 0.1093 0
M  V30 3 C 1.1384 0.7563 -0.1246 0
M  V30 4 C -0.2877 0.3622 0.3323 0 CFG=2
M  V30 5 C -0.9116 -0.6913 -0.6167 0
M  V30 6 C -1.1644 1.6243 0.4113 0
M  V30 7 C -2.2577 -1.2232 -0.1208 0
M  V30 8 H 4.086 -0.592 0.0246 0
M  V30 9 H 1.9781 -1.209 -0.5652 0
M  V30 10 H 2.1223 -0.6938 1.1664 0
M  V30 11 H 1.1305 1.0353 -1.2014 0
M  V30 12 H 1.4721 1.6499 0.4486 0
M  V30 13 H -0.2233 -0.0669 1.3572 0
M  V30 14 H -0.2338 -1.5645 -0.7052 0
M  V30 15 H -1.0411 -0.2614 -1.634 0
M  V30 16 H -2.1484 1.3934 0.8688 0
M  V30 17 H -1.3239 2.0548 -0.6005 0
M  V30 18 H -0.6828 2.392 1.0537 0
M  V30 19 H -3.0448 -0.4457 -0.2042 0
M  V30 20 H -2.5663 -2.087 -0.7467 0
M  V30 21 H -2.1783 -1.5628 0.9337 0
M  V30 END ATOM
M  V30 BEGIN BOND
M  V30 1 1 1 2
M  V30 2 1 2 3
M  V30 3 1 3 4
M  V30 4 1 4 5
M  V30 5 1 4 6
M  V30 6 1 5 7
M  V30 7 1 1 8
M  V30 8 1 2 9
M  V30 9 1 2 10
M  V30 10 1 3 11
M  V30 11 1 3 12
M  V30 12 1 4 13
M  V30 13 1 5 14
M  V30 14 1 5 15
M  V30 15 1 6 16
M  V30 16 1 6 17
M  V30 17 1 6 18
M  V30 18 1 7 19
M  V30 19 1 7 20
M  V30 20 1 7 21
M  V30 END BOND
M  V30 BEGIN COLLECTION
M  V30 MDLV30/STEABS ATOMS=(1 4)
M  V30 END COLLECTION
M  V30 END CTAB
M  END
>  <Structure No>
8688

>  <LogS>
-0.72

>  <MMFF94 Energy>
4.4678

$$$$
Compound 8689
Actelion Java MolfileCreator 2.0

  0  0  0  0  0  0              0 V3000
M  V30 BEGIN CTAB
M  V30 COUNTS 37 41 0 0 0
M  V30 BEGIN ATOM
M  V30 1 C 0.2425 0.2425 0.1616 0
M  V30 2 C 1.6652 0.1206 0.2335 0
M  V30 3 C -0.5341 -0.9234 -0.1526 0
M  V30 4 C -0.4432 1.4794 0.3886 0
M  V30 5 C 2.2663 -1.1464 -0.0129 0
M  V30 6 C 2.518 1.2069 0.5467 0
M  V30 7 C -1.9331 -0.8133 -0.224 0
M  V30 8 C 0.0926 -2.1515 -0.3849 0
M  V30 9 C -1.8438 1.5434 0.3066 0
M  V30 10 C 3.6615 -1.2952 0.0479 0
M  V30 11 C 1.4752 -2.2603 -0.3162 0
M  V30 12 C 3.9034 1.0414 0.6029 0
M  V30 13 C -2.5334 0.3809 9.0E-4 0
M  V30 14 C -2.9744 -1.8533 -0.528 0
M  V30 15 C -2.5957 2.7158 0.5148 0
M  V30 16 C 4.4836 -0.202 0.3385 0
M  V30 17 C -3.8878 0.3173 -0.107 0
M  V30 18 C -4.3167 -1.0729 -0.4466 0
M  V30 19 C -4.0054 2.6718 0.4075 0
M  V30 20 C 5.9701 -0.3793 0.4396 0
M  V30 21 C -4.6626 1.463 0.0936 0
M  V30 22 H 0.0751 2.3938 0.6247 0
M  V30 23 H 2.1486 2.196 0.7588 0
M  V30 24 H -0.4868 -3.0353 -0.6224 0
M  V30 25 H 4.1124 -2.265 -0.1321 0
M  V30 26 H 1.931 -3.2259 -0.5025 0
M  V30 27 H 4.5269 1.8908 0.8543 0
M  V30 28 H -2.942 -2.6645 0.2306 0
M  V30 29 H -2.8192 -2.2675 -1.5473 0
M  V30 30 H -2.1047 3.6504 0.756 0
M  V30 31 H -4.9682 -1.4819 0.3552 0
M  V30 32 H -4.8455 -1.0852 -1.4237 0
M  V30 33 H -4.5848 3.5719 0.5672 0
M  V30 34 H 6.4969 0.564 0.1819 0
M  V30 35 H 6.3188 -1.1682 -0.2604 0
M  V30 36 H 6.2372 -0.6714 1.4767 0
M  V30 37 H -5.7409 1.4243 0.0101 0
M  V30 END ATOM
M  V30 BEGIN BOND
M  V30 1 2 1 2
M  V30 2 1 1 3
M  V30 3 1 1 4
M  V30 4 1 2 5
M  V30 5 1 2 6
M  V30 6 1 3 7
M  V30 7 2 3 8
M  V30 8 2 4 9
M  V30 9 1 5 10
M  V30 10 2 5 11
M  V30 11 2 6 12
M  V30 12 2 7 13
M  V30 13 1 7 14
M  V30 14 1 9 15
M  V30 15 2 10 16
M  V30 16 1 13 17
M  V30 17 1 14 18
M  V30 18 2 15 19
M  V30 19 1 16 20
M  V30 20 2 17 21
M  V30 21 1 8 11
M  V30 22 1 9 13
M  V30 23 1 12 16
M  V30 24 1 17 18
M  V30 25 1 19 21
M  V30 26 1 4 22
M  V30 27 1 6 23
M  V30 28 1 8 24
M  V30 29 1 10 25
M  V30 30 1 11 26
M  V30 31 1 12 27
M  V30 32 1 14 28
M  V30 33 1 14 29
M  V30 34 1 15 30
M  V30 35 1 18 31
M  V30 36 1 18 32
M  V30 37 1 19 33
M  V30 38 1 20 34
M  V30 39 1 20 35
M  V30 40 1 20 36
M  V30 41 1 21 37
M  V30 END BOND
M  V30 END CTAB
M  END
>  <Structure No>
8689

>  <LogS>
-7.92

>  <MMFF94 Energy>
81.66

$$$$
Compound 8690
Actelion Java MolfileCreator 2.0

  0  0  0  0  0  0              0 V3000
M  V30 BEGIN CTAB
M  V30 COUNTS 28 28 0 0 0
M  V30 BEGIN ATOM
M  V30 1 O 4.3139 0.5584 -0.3988 0
M  V30 2 C 3.0759 0.3615 -0.2756 0
M  V30 3 N 2.3916 0.8271 0.8797 0
M  V30 4 N 2.3631 -0.3471 -1.2814 0
M  V30 5 C 0.9907 0.5995 1.0483 0
M  V30 6 C 0.9442 -0.5175 -1.2122 0
M  V30 7 O 0.4783 0.8456 2.1747 0
M  V30 8 C 0.0994 0.1385 -0.1126 0
M  V30 9 O 0.3784 -1.1439 -2.1473 0
M  V30 10 C -0.9804 -0.879 0.4482 0
M  V30 11 C -0.5393 1.4099 -0.755 0
M  V30 12 C -2.1319 -1.2324 -0.5177 0
M  V30 13 C -0.3382 -2.1805 0.968 0
M  V30 14 C -1.4687 2.2198 0.1582 0
M  V30 15 H 2.9349 1.2814 1.6481 0
M  V30 16 H 2.8871 -0.7414 -2.0951 0
M  V30 17 H -1.475 -0.4108 1.3273 0
M  V30 18 H -1.1035 1.1358 -1.6722 0
M  V30 19 H 0.2735 2.0912 -1.0933 0
M  V30 20 H -1.7871 -1.8359 -1.3793 0
M  V30 21 H -2.8925 -1.8376 0.0208 0
M  V30 22 H -2.6534 -0.328 -0.8868 0
M  V30 23 H 0.1099 -2.7634 0.1362 0
M  V30 24 H -1.1048 -2.8134 1.4642 0
M  V30 25 H 0.4513 -1.9623 1.7168 0
M  V30 26 H -2.3139 1.6063 0.5284 0
M  V30 27 H -0.9115 2.6444 1.0177 0
M  V30 28 H -1.8936 3.0684 -0.4181 0
M  V30 END ATOM
M  V30 BEGIN BOND
M  V30 1 2 1 2
M  V30 2 1 2 3
M  V30 3 1 2 4
M  V30 4 1 3 5
M  V30 5 1 4 6
M  V30 6 2 5 7
M  V30 7 1 5 8
M  V30 8 2 6 9
M  V30 9 1 8 10
M  V30 10 1 8 11
M  V30 11 1 10 12
M  V30 12 1 10 13
M  V30 13 1 11 14
M  V30 14 1 6 8
M  V30 15 1 3 15
M  V30 16 1 4 16
M  V30 17 1 10 17
M  V30 18 1 11 18
M  V30 19 1 11 19
M  V30 20 1 12 20
M  V30 21 1 12 21
M  V30 22 1 12 22
M  V30 23 1 13 23
M  V30 24 1 13 24
M  V30 25 1 13 25
M  V30 26 1 14 26
M  V30 27 1 14 27
M  V30 28 1 14 28
M  V30 END BOND
M  V30 END CTAB
M  END
>  <Structure No>
8690

>  <LogS>
-2.148

>  <MMFF94 Energy>
-121.09

$$$$
Compound 8691
Actelion Java MolfileCreator 2.0

  0  0  0  0  0  0              0 V3000
M  V30 BEGIN CTAB
M  V30 COUNTS 28 27 0 0 0
M  V30 BEGIN ATOM
M  V30 1 O -0.1547 2.4788 0.6192 0
M  V30 2 C 0.0841 1.3108 0.8889 0
M  V30 3 C 1.5014 0.8079 0.8004 0
M  V30 4 C -1.042 0.4078 1.3198 0
M  V30 5 C 1.9638 0.7561 -0.6623 0
M  V30 6 C -1.9993 0.1451 0.1524 0
M  V30 7 C 3.4369 0.3424 -0.8016 0
M  V30 8 C -3.1429 -0.7833 0.5767 0
M  V30 9 C 3.6689 -1.1346 -0.4847 0
M  V30 10 C -4.0984 -1.0465 -0.5835 0
M  V30 11 H 2.16 1.4873 1.3837 0
M  V30 12 H 1.5734 -0.2038 1.2503 0
M  V30 13 H -0.6425 -0.5609 1.69 0
M  V30 14 H -1.59 0.8912 2.1577 0
M  V30 15 H 1.8486 1.7667 -1.1129 0
M  V30 16 H 1.3188 0.0558 -1.2378 0
M  V30 17 H -2.4231 1.1105 -0.2028 0
M  V30 18 H -1.4356 -0.3232 -0.6847 0
M  V30 19 H 4.0753 0.9704 -0.1427 0
M  V30 20 H 3.7548 0.5263 -1.8508 0
M  V30 21 H -3.7113 -0.3202 1.4127 0
M  V30 22 H -2.7281 -1.7534 0.9274 0
M  V30 23 H 4.7214 -1.4004 -0.7184 0
M  V30 24 H 2.9992 -1.7741 -1.0981 0
M  V30 25 H 3.4931 -1.3394 0.5913 0
M  V30 26 H -4.9142 -1.7207 -0.2476 0
M  V30 27 H -3.5594 -1.5326 -1.4245 0
M  V30 28 H -4.5478 -0.094 -0.9372 0
M  V30 END ATOM
M  V30 BEGIN BOND
M  V30 1 2 1 2
M  V30 2 1 2 3
M  V30 3 1 2 4
M  V30 4 1 3 5
M  V30 5 1 4 6
M  V30 6 1 5 7
M  V30 7 1 6 8
M  V30 8 1 7 9
M  V30 9 1 8 10
M  V30 10 1 3 11
M  V30 11 1 3 12
M  V30 12 1 4 13
M  V30 13 1 4 14
M  V30 14 1 5 15
M  V30 15 1 5 16
M  V30 16 1 6 17
M  V30 17 1 6 18
M  V30 18 1 7 19
M  V30 19 1 7 20
M  V30 20 1 8 21
M  V30 21 1 8 22
M  V30 22 1 9 23
M  V30 23 1 9 24
M  V30 24 1 9 25
M  V30 25 1 10 26
M  V30 26 1 10 27
M  V30 27 1 10 28
M  V30 END BOND
M  V30 END CTAB
M  END
>  <Structure No>
8691

>  <LogS>
-2.58

>  <MMFF94 Energy>
-0.89921

$$$$
Compound 8692
Actelion Java MolfileCreator 2.0

  0  0  0  0  0  0              0 V3000
M  V30 BEGIN CTAB
M  V30 COUNTS 6 5 0 0 0
M  V30 BEGIN ATOM
M  V30 1 N 2.1583 0.0 0.0 0
M  V30 2 C 1.0012 -0.004 -0.0192 0
M  V30 3 C -0.4616 -0.0091 -0.0437 0
M  V30 4 H -0.8172 -0.785 -0.7524 0
M  V30 5 H -0.8479 -0.2316 0.9723 0
M  V30 6 H -0.8298 0.9855 -0.3693 0
M  V30 END ATOM
M  V30 BEGIN BOND
M  V30 1 3 1 2
M  V30 2 1 2 3
M  V30 3 1 3 4
M  V30 4 1 3 5
M  V30 5 1 3 6
M  V30 END BOND
M  V30 END CTAB
M  END
>  <Structure No>
8692

>  <LogS>
0.26

>  <MMFF94 Energy>
0.024626

$$$$
Compound 8693
Actelion Java MolfileCreator 2.0

  0  0  0  0  0  0              0 V3000
M  V30 BEGIN CTAB
M  V30 COUNTS 35 36 0 0 0
M  V30 BEGIN ATOM
M  V30 1 S 0.243 -1.2968 1.459 0 CFG=2
M  V30 2 O 0.7268 -2.6835 1.8627 0
M  V30 3 N -0.8185 -1.5333 0.0692 0
M  V30 4 C 1.681 -0.4258 0.8658 0
M  V30 5 C -2.1195 -0.9221 0.0713 0
M  V30 6 C -0.4762 -2.4721 -0.9673 0
M  V30 7 C 1.9887 0.831 1.4009 0
M  V30 8 C 2.5169 -0.9844 -0.1109 0
M  V30 9 O -3.2042 -1.5166 -0.371 0
M  V30 10 C -2.4555 0.3468 0.5107 0
M  V30 11 O 0.2486 -3.469 -0.7065 0
M  V30 12 C -1.0052 -2.311 -2.359 0
M  V30 13 C 3.1095 1.5345 0.9499 0
M  V30 14 C 3.6385 -0.282 -0.5622 0
M  V30 15 N -4.2461 -0.7451 -0.2502 0
M  V30 16 C -3.8215 0.4096 0.3003 0
M  V30 17 C -1.5605 1.4226 1.0412 0
M  V30 18 C 3.9387 0.9822 -0.036 0
M  V30 19 C -4.7132 1.5783 0.5672 0
M  V30 20 N 5.0854 1.7008 -0.4979 0
M  V30 21 H 1.3596 1.2669 2.1665 0
M  V30 22 H 2.3118 -1.9631 -0.5182 0
M  V30 23 H -1.9715 -2.8477 -2.4554 0
M  V30 24 H -1.1546 -1.2354 -2.5905 0
M  V30 25 H -0.2839 -2.7302 -3.0917 0
M  V30 26 H 3.3321 2.5077 1.3692 0
M  V30 27 H 4.2747 -0.7239 -1.3187 0
M  V30 28 H -1.2792 1.192 2.0891 0
M  V30 29 H -0.6501 1.4935 0.4118 0
M  V30 30 H -2.0723 2.4068 1.018 0
M  V30 31 H -5.7767 1.2847 0.443 0
M  V30 32 H -4.5611 1.9386 1.6063 0
M  V30 33 H -4.478 2.3962 -0.1451 0
M  V30 34 H 5.7098 1.2967 -1.231 0
M  V30 35 H 5.3178 2.6426 -0.1106 0
M  V30 END ATOM
M  V30 BEGIN BOND
M  V30 1 2 1 2
M  V30 2 1 1 3
M  V30 3 1 1 4
M  V30 4 1 3 5
M  V30 5 1 3 6
M  V30 6 2 4 7
M  V30 7 1 4 8
M  V30 8 1 5 9
M  V30 9 2 5 10
M  V30 10 2 6 11
M  V30 11 1 6 12
M  V30 12 1 7 13
M  V30 13 2 8 14
M  V30 14 1 9 15
M  V30 15 1 10 16
M  V30 16 1 10 17
M  V30 17 2 13 18
M  V30 18 1 16 19
M  V30 19 1 18 20
M  V30 20 1 14 18
M  V30 21 2 15 16
M  V30 22 1 7 21
M  V30 23 1 8 22
M  V30 24 1 12 23
M  V30 25 1 12 24
M  V30 26 1 12 25
M  V30 27 1 13 26
M  V30 28 1 14 27
M  V30 29 1 17 28
M  V30 30 1 17 29
M  V30 31 1 17 30
M  V30 32 1 19 31
M  V30 33 1 19 32
M  V30 34 1 19 33
M  V30 35 1 20 34
M  V30 36 1 20 35
M  V30 END BOND
M  V30 BEGIN COLLECTION
M  V30 MDLV30/STEABS ATOMS=(1 1)
M  V30 END COLLECTION
M  V30 END CTAB
M  END
>  <Structure No>
8693

>  <LogS>
-3.59

>  <MMFF94 Energy>
13.447

$$$$
Compound 8694
Actelion Java MolfileCreator 2.0

  0  0  0  0  0  0              0 V3000
M  V30 BEGIN CTAB
M  V30 COUNTS 54 57 0 0 0
M  V30 BEGIN ATOM
M  V30 1 O -6.1056 -1.7067 -0.3249 0
M  V30 2 C -5.067 -0.9973 -0.2577 0
M  V30 3 C -4.1412 -1.1741 0.8705 0
M  V30 4 C -4.8319 0.0685 -1.2812 0
M  V30 5 C -2.978 -0.505 0.9554 0
M  V30 6 C -3.3318 0.3273 -1.4559 0
M  V30 7 C -2.5727 0.5276 -0.096 0 CFG=2
M  V30 8 C -2.1741 -0.6007 2.2395 0
M  V30 9 C -1.0114 0.4385 -0.312 0 CFG=2
M  V30 10 C -2.9628 1.9367 0.437 0
M  V30 11 C -0.6505 -0.5375 2.0271 0
M  V30 12 C -0.5109 -0.7976 -1.1554 0 CFG=2
M  V30 13 C -0.231 0.5662 1.0279 0 CFG=1
M  V30 14 O -1.342 -1.9291 -1.0359 0
M  V30 15 C 0.9606 -1.2049 -0.8912 0
M  V30 16 C 1.3051 0.7199 0.7606 0 CFG=2
M  V30 17 C 1.8751 -0.0228 -0.4892 0 CFG=2
M  V30 18 C 2.2356 0.369 1.925 0
M  V30 19 C 2.0046 0.943 -1.6657 0
M  V30 20 C 3.2698 -0.5669 -0.0238 0 CFG=2
M  V30 21 C 3.5893 0.1834 1.2698 0
M  V30 22 O 2.6762 1.9593 -1.5721 0
M  V30 23 C 4.3676 -0.5475 -1.0788 0
M  V30 24 O 4.2208 -1.2342 -2.0798 0
M  V30 25 C 5.6285 0.2702 -0.9224 0
M  V30 26 O 6.5166 0.0431 -1.9845 0
M  V30 27 H -4.4298 -1.8606 1.658 0
M  V30 28 H -5.2604 -0.2506 -2.2563 0
M  V30 29 H -5.3609 0.9946 -0.9763 0
M  V30 30 H -2.9418 -0.5259 -2.0384 0
M  V30 31 H -3.1918 1.2196 -2.1049 0
M  V30 32 H -2.403 -1.5464 2.7787 0
M  V30 33 H -2.4823 0.2328 2.9064 0
M  V30 34 H -0.7345 1.3378 -0.9093 0
M  V30 35 H -4.0625 2.0434 0.5273 0
M  V30 36 H -2.5694 2.1397 1.4512 0
M  V30 37 H -2.5938 2.7319 -0.2454 0
M  V30 38 H -0.2728 -1.5293 1.7182 0
M  V30 39 H -0.2005 -0.3218 3.0198 0
M  V30 40 H -0.5623 -0.4877 -2.2223 0
M  V30 41 H -0.5154 1.5213 1.5144 0
M  V30 42 H -1.2491 -2.2976 -0.1227 0
M  V30 43 H 0.9893 -1.9737 -0.091 0
M  V30 44 H 1.3676 -1.7019 -1.7998 0
M  V30 45 H 1.4612 1.8142 0.6067 0
M  V30 46 H 2.2603 1.1738 2.6917 0
M  V30 47 H 1.9573 -0.5939 2.402 0
M  V30 48 H 1.5095 0.7349 -2.6087 0
M  V30 49 H 3.174 -1.635 0.2784 0
M  V30 50 H 4.0229 1.1856 1.062 0
M  V30 51 H 4.2791 -0.3948 1.9225 0
M  V30 52 H 5.3744 1.3521 -0.8623 0
M  V30 53 H 6.1338 -0.0214 0.0217 0
M  V30 54 H 6.1786 0.5701 -2.7554 0
M  V30 END ATOM
M  V30 BEGIN BOND
M  V30 1 2 1 2
M  V30 2 1 2 3
M  V30 3 1 2 4
M  V30 4 2 3 5
M  V30 5 1 4 6
M  V30 6 1 5 7
M  V30 7 1 5 8
M  V30 8 1 7 9
M  V30 9 1 7 10
M  V30 10 1 8 11
M  V30 11 1 9 12
M  V30 12 1 9 13
M  V30 13 1 12 14
M  V30 14 1 12 15
M  V30 15 1 13 16
M  V30 16 1 15 17
M  V30 17 1 16 18
M  V30 18 1 17 19
M  V30 19 1 17 20
M  V30 20 1 18 21
M  V30 21 2 19 22
M  V30 22 1 20 23
M  V30 23 2 23 24
M  V30 24 1 23 25
M  V30 25 1 25 26
M  V30 26 1 6 7
M  V30 27 1 11 13
M  V30 28 1 16 17
M  V30 29 1 20 21
M  V30 30 1 3 27
M  V30 31 1 4 28
M  V30 32 1 4 29
M  V30 33 1 6 30
M  V30 34 1 6 31
M  V30 35 1 8 32
M  V30 36 1 8 33
M  V30 37 1 9 34
M  V30 38 1 10 35
M  V30 39 1 10 36
M  V30 40 1 10 37
M  V30 41 1 11 38
M  V30 42 1 11 39
M  V30 43 1 12 40
M  V30 44 1 13 41
M  V30 45 1 14 42
M  V30 46 1 15 43
M  V30 47 1 15 44
M  V30 48 1 16 45
M  V30 49 1 18 46
M  V30 50 1 18 47
M  V30 51 1 19 48
M  V30 52 1 20 49
M  V30 53 1 21 50
M  V30 54 1 21 51
M  V30 55 1 25 52
M  V30 56 1 25 53
M  V30 57 1 26 54
M  V30 END BOND
M  V30 BEGIN COLLECTION
M  V30 MDLV30/STEABS ATOMS=(7 7 9 12 13 16 17 20)
M  V30 END COLLECTION
M  V30 END CTAB
M  END
>  <Structure No>
8694

>  <LogS>
-3.85

>  <MMFF94 Energy>
91.229

$$$$
Compound 8695
Actelion Java MolfileCreator 2.0

  0  0  0  0  0  0              0 V3000
M  V30 BEGIN CTAB
M  V30 COUNTS 59 61 0 0 0
M  V30 BEGIN ATOM
M  V30 1 O 1.2841 -0.4814 0.9629 0
M  V30 2 C 2.5727 0.0131 0.5869 0 CFG=1
M  V30 3 C 0.5711 0.342 1.8729 0 CFG=1
M  V30 4 O 2.5724 0.2898 -0.8037 0
M  V30 5 C 3.0461 1.2788 1.3415 0 CFG=1
M  V30 6 C 0.5421 1.8256 1.4164 0 CFG=1
M  V30 7 C -0.8415 -0.226 2.0684 0
M  V30 8 C 2.6956 -0.8971 -1.5654 0 CFG=1
M  V30 9 O 4.2701 1.7173 0.8084 0
M  V30 10 C 1.9824 2.3965 1.2707 0 CFG=2
M  V30 11 O -0.2029 1.9858 0.2319 0
M  V30 12 O -1.4682 -0.4354 0.8118 0
M  V30 13 C 2.1065 -0.6629 -2.8876 0
M  V30 14 C 4.1507 -1.2704 -1.7325 0
M  V30 15 O 2.1244 3.1164 0.0703 0
M  V30 16 C -2.7587 0.1453 0.7523 0 CFG=1
M  V30 17 N 1.6411 -0.4767 -3.9305 0
M  V30 18 C 5.1073 -0.294 -2.0667 0
M  V30 19 C 4.5617 -2.6046 -1.5766 0
M  V30 20 O -3.0939 0.2868 -0.6209 0
M  V30 21 C -3.7882 -0.7532 1.5139 0 CFG=1
M  V30 22 C 6.4504 -0.6473 -2.2263 0
M  V30 23 C 5.906 -2.9538 -1.7395 0
M  V30 24 C -4.4266 0.744 -0.7656 0 CFG=2
M  V30 25 O -4.5218 0.0218 2.4284 0
M  V30 26 C -4.7561 -1.4296 0.5257 0 CFG=2
M  V30 27 C 6.8493 -1.9767 -2.0629 0
M  V30 28 C -5.4262 -0.3863 -0.3975 0 CFG=1
M  V30 29 C -4.6249 1.2217 -2.2106 0
M  V30 30 O -5.7303 -2.1712 1.2145 0
M  V30 31 O -6.5468 0.1843 0.2329 0
M  V30 32 O -5.9221 1.7217 -2.3975 0
M  V30 33 H 3.3208 -0.7777 0.8334 0
M  V30 34 H 1.0612 0.2874 2.8716 0
M  V30 35 H 3.2056 0.9975 2.4096 0
M  V30 36 H 0.0261 2.4128 2.2076 0
M  V30 37 H -0.7508 -1.213 2.5706 0
M  V30 38 H -1.405 0.43 2.7724 0
M  V30 39 H 2.1208 -1.7389 -1.1126 0
M  V30 40 H 4.6448 2.373 1.4537 0
M  V30 41 H 2.1824 3.084 2.1269 0
M  V30 42 H 0.2145 1.4236 -0.47 0
M  V30 43 H 1.6453 3.9771 0.1951 0
M  V30 44 H -2.7351 1.1723 1.194 0
M  V30 45 H 4.8119 0.7391 -2.2018 0
M  V30 46 H 3.8435 -3.3744 -1.3276 0
M  V30 47 H -3.2586 -1.5643 2.0669 0
M  V30 48 H 7.1814 0.1093 -2.4797 0
M  V30 49 H 6.2168 -3.9822 -1.6151 0
M  V30 50 H -4.5994 1.631 -0.1085 0
M  V30 51 H -3.92 0.2015 3.1977 0
M  V30 52 H -4.1626 -2.12 -0.1197 0
M  V30 53 H 7.8889 -2.249 -2.1886 0
M  V30 54 H -5.7468 -0.922 -1.3239 0
M  V30 55 H -3.8726 2.0068 -2.4541 0
M  V30 56 H -4.461 0.3755 -2.9123 0
M  V30 57 H -5.2765 -2.9771 1.5758 0
M  V30 58 H -7.3195 -0.4139 0.055 0
M  V30 59 H -5.9417 2.6235 -1.9825 0
M  V30 END ATOM
M  V30 BEGIN BOND
M  V30 1 1 1 2
M  V30 2 1 1 3
M  V30 3 1 2 4
M  V30 4 1 2 5
M  V30 5 1 3 6
M  V30 6 1 3 7
M  V30 7 1 4 8
M  V30 8 1 5 9
M  V30 9 1 5 10
M  V30 10 1 6 11
M  V30 11 1 7 12
M  V30 12 1 8 13
M  V30 13 1 8 14
M  V30 14 1 10 15
M  V30 15 1 12 16
M  V30 16 3 13 17
M  V30 17 2 14 18
M  V30 18 1 14 19
M  V30 19 1 16 20
M  V30 20 1 16 21
M  V30 21 1 18 22
M  V30 22 2 19 23
M  V30 23 1 20 24
M  V30 24 1 21 25
M  V30 25 1 21 26
M  V30 26 2 22 27
M  V30 27 1 24 28
M  V30 28 1 24 29
M  V30 29 1 26 30
M  V30 30 1 28 31
M  V30 31 1 29 32
M  V30 32 1 6 10
M  V30 33 1 23 27
M  V30 34 1 26 28
M  V30 35 1 2 33
M  V30 36 1 3 34
M  V30 37 1 5 35
M  V30 38 1 6 36
M  V30 39 1 7 37
M  V30 40 1 7 38
M  V30 41 1 8 39
M  V30 42 1 9 40
M  V30 43 1 10 41
M  V30 44 1 11 42
M  V30 45 1 15 43
M  V30 46 1 16 44
M  V30 47 1 18 45
M  V30 48 1 19 46
M  V30 49 1 21 47
M  V30 50 1 22 48
M  V30 51 1 23 49
M  V30 52 1 24 50
M  V30 53 1 25 51
M  V30 54 1 26 52
M  V30 55 1 27 53
M  V30 56 1 28 54
M  V30 57 1 29 55
M  V30 58 1 29 56
M  V30 59 1 30 57
M  V30 60 1 31 58
M  V30 61 1 32 59
M  V30 END BOND
M  V30 BEGIN COLLECTION
M  V30 MDLV30/STEABS ATOMS=(11 2 3 5 6 8 10 16 21 24 26 28)
M  V30 END COLLECTION
M  V30 END CTAB
M  END
>  <Structure No>
8695

>  <LogS>
-0.77

>  <MMFF94 Energy>
242.02

$$$$
Compound 8696
Actelion Java MolfileCreator 2.0

  0  0  0  0  0  0              0 V3000
M  V30 BEGIN CTAB
M  V30 COUNTS 42 44 0 0 0
M  V30 BEGIN ATOM
M  V30 1 O 0.2373 -2.9307 0.1582 0
M  V30 2 C 0.5135 -1.7223 0.3865 0
M  V30 3 N -0.3321 -0.6854 0.1962 0
M  V30 4 C 1.7306 -1.2503 0.8389 0 CHG=-1 CFG=2
M  V30 5 N 0.2991 0.4468 0.4925 0
M  V30 6 C -1.6188 -0.7008 -0.2525 0
M  V30 7 C 1.5604 0.1236 0.8828 0
M  V30 8 C 2.9826 -2.0344 1.1107 0
M  V30 9 C -0.3195 1.6643 0.3602 0
M  V30 10 N -2.2711 0.4828 -0.4064 0 CHG=1
M  V30 11 N -2.2907 -1.9335 -0.5458 0
M  V30 12 O 2.4548 0.9436 1.2182 0
M  V30 13 C 3.9663 -1.9664 -0.0649 0
M  V30 14 C -1.6558 1.6648 -0.1107 0
M  V30 15 C 0.2991 2.8947 0.6689 0
M  V30 16 C -2.8194 -2.7491 0.5458 0
M  V30 17 C -2.6338 -2.2473 -1.9309 0
M  V30 18 C 3.4447 -2.6914 -1.3051 0
M  V30 19 C -2.3442 2.8763 -0.2641 0
M  V30 20 C -0.3936 4.1034 0.4937 0
M  V30 21 C -1.7193 4.0854 0.0411 0
M  V30 22 C 0.258 5.4049 0.8599 0
M  V30 23 H 2.7282 -3.0931 1.3336 0
M  V30 24 H 3.4746 -1.615 2.0144 0
M  V30 25 H -3.2613 0.4772 -0.7424 0
M  V30 26 H 4.1838 -0.9061 -0.3189 0
M  V30 27 H 4.9215 -2.4423 0.2454 0
M  V30 28 H 1.3058 2.9446 1.0478 0
M  V30 29 H -2.3553 -2.4625 1.5142 0
M  V30 30 H -2.6004 -3.8212 0.3566 0
M  V30 31 H -3.9179 -2.6062 0.6187 0
M  V30 32 H -3.2449 -1.4294 -2.3672 0
M  V30 33 H -1.7036 -2.365 -2.5255 0
M  V30 34 H -3.2147 -3.1924 -1.9919 0
M  V30 35 H 4.2246 -2.6807 -2.0952 0
M  V30 36 H 2.5396 -2.1847 -1.7012 0
M  V30 37 H 3.1997 -3.7472 -1.0623 0
M  V30 38 H -3.3681 2.8844 -0.617 0
M  V30 39 H -2.2714 5.0099 -0.0752 0
M  V30 40 H 1.3487 5.3674 0.653 0
M  V30 41 H 0.1006 5.6052 1.9403 0
M  V30 42 H -0.173 6.2419 0.2702 0
M  V30 END ATOM
M  V30 BEGIN BOND
M  V30 1 2 1 2
M  V30 2 1 2 3
M  V30 3 1 2 4
M  V30 4 1 3 5
M  V30 5 1 3 6
M  V30 6 1 4 7
M  V30 7 1 4 8
M  V30 8 1 5 9
M  V30 9 2 6 10
M  V30 10 1 6 11
M  V30 11 2 7 12
M  V30 12 1 8 13
M  V30 13 2 9 14
M  V30 14 1 9 15
M  V30 15 1 11 16
M  V30 16 1 11 17
M  V30 17 1 13 18
M  V30 18 1 14 19
M  V30 19 2 15 20
M  V30 20 2 19 21
M  V30 21 1 20 22
M  V30 22 1 5 7
M  V30 23 1 10 14
M  V30 24 1 20 21
M  V30 25 1 8 23
M  V30 26 1 8 24
M  V30 27 1 10 25
M  V30 28 1 13 26
M  V30 29 1 13 27
M  V30 30 1 15 28
M  V30 31 1 16 29
M  V30 32 1 16 30
M  V30 33 1 16 31
M  V30 34 1 17 32
M  V30 35 1 17 33
M  V30 36 1 17 34
M  V30 37 1 18 35
M  V30 38 1 18 36
M  V30 39 1 18 37
M  V30 40 1 19 38
M  V30 41 1 21 39
M  V30 42 1 22 40
M  V30 43 1 22 41
M  V30 44 1 22 42
M  V30 END BOND
M  V30 BEGIN COLLECTION
M  V30 MDLV30/STEABS ATOMS=(1 4)
M  V30 END COLLECTION
M  V30 END CTAB
M  END
>  <Structure No>
8696

>  <LogS>
-3.538

>  <MMFF94 Energy>
-117.35

$$$$
Compound 8697
Actelion Java MolfileCreator 2.0

  0  0  0  0  0  0              0 V3000
M  V30 BEGIN CTAB
M  V30 COUNTS 44 47 0 0 0
M  V30 BEGIN ATOM
M  V30 1 Cl 8.496 -0.0822 0.4111 0
M  V30 2 C 6.7733 -0.1478 0.0873 0
M  V30 3 C 6.311 -0.5935 -1.1539 0
M  V30 4 C 5.8609 0.2454 1.0703 0
M  V30 5 C 4.9384 -0.6467 -1.4142 0
M  V30 6 C 4.4875 0.1939 0.8145 0
M  V30 7 C 4.0099 -0.2536 -0.4329 0
M  V30 8 C 2.5226 -0.3159 -0.7279 0 CFG=1
M  V30 9 C 1.8067 -1.2963 0.2236 0
M  V30 10 C 1.8818 1.0854 -0.6597 0
M  V30 11 C 0.3068 -1.372 -0.094 0
M  V30 12 C 0.3823 1.0189 -0.9807 0
M  V30 13 C -0.3368 0.03 -0.0383 0 CFG=1
M  V30 14 C -1.8473 -0.0135 -0.2847 0
M  V30 15 C -2.3698 -0.434 -1.463 0
M  V30 16 C -2.7708 0.4203 0.8065 0
M  V30 17 O -1.547 -0.8468 -2.506 0 CHG=-1
M  V30 18 C -3.8289 -0.4713 -1.6878 0
M  V30 19 O -2.3053 0.8151 1.9105 0
M  V30 20 C -4.2385 0.3925 0.6067 0
M  V30 21 O -4.2721 -0.8694 -2.799 0
M  V30 22 C -4.7599 -0.047 -0.6232 0
M  V30 23 C -5.1182 0.7987 1.6269 0
M  V30 24 C -6.1521 -0.076 -0.8199 0
M  V30 25 C -6.4997 0.766 1.4212 0
M  V30 26 C -7.0155 0.3296 0.2003 0
M  V30 27 H 7.0139 -0.8992 -1.9181 0
M  V30 28 H 6.2142 0.5913 2.0333 0
M  V30 29 H 4.6025 -0.9952 -2.3827 0
M  V30 30 H 3.8004 0.5035 1.5909 0
M  V30 31 H 2.377 -0.6959 -1.765 0
M  V30 32 H 2.25 -2.3101 0.1147 0
M  V30 33 H 1.9362 -0.9792 1.2814 0
M  V30 34 H 2.3783 1.757 -1.3936 0
M  V30 35 H 2.0154 1.5275 0.3516 0
M  V30 36 H 0.1817 -1.8341 -1.0943 0
M  V30 37 H -0.186 -2.0348 0.65 0
M  V30 38 H 0.2623 0.7238 -2.0431 0
M  V30 39 H -0.0577 2.0326 -0.8583 0
M  V30 40 H -0.155 0.4063 0.9917 0
M  V30 41 H -4.7399 1.141 2.5819 0
M  V30 42 H -6.572 -0.4113 -1.7598 0
M  V30 43 H -7.1713 1.0799 2.2101 0
M  V30 44 H -8.0863 0.3054 0.0439 0
M  V30 END ATOM
M  V30 BEGIN BOND
M  V30 1 1 1 2
M  V30 2 2 2 3
M  V30 3 1 2 4
M  V30 4 1 3 5
M  V30 5 2 4 6
M  V30 6 2 5 7
M  V30 7 1 7 8
M  V30 8 1 8 9
M  V30 9 1 8 10
M  V30 10 1 9 11
M  V30 11 1 10 12
M  V30 12 1 11 13
M  V30 13 1 13 14
M  V30 14 2 14 15
M  V30 15 1 14 16
M  V30 16 1 15 17
M  V30 17 1 15 18
M  V30 18 2 16 19
M  V30 19 1 16 20
M  V30 20 2 18 21
M  V30 21 1 18 22
M  V30 22 1 20 23
M  V30 23 1 22 24
M  V30 24 2 23 25
M  V30 25 2 24 26
M  V30 26 1 6 7
M  V30 27 1 12 13
M  V30 28 2 20 22
M  V30 29 1 25 26
M  V30 30 1 3 27
M  V30 31 1 4 28
M  V30 32 1 5 29
M  V30 33 1 6 30
M  V30 34 1 8 31
M  V30 35 1 9 32
M  V30 36 1 9 33
M  V30 37 1 10 34
M  V30 38 1 10 35
M  V30 39 1 11 36
M  V30 40 1 11 37
M  V30 41 1 12 38
M  V30 42 1 12 39
M  V30 43 1 13 40
M  V30 44 1 23 41
M  V30 45 1 24 42
M  V30 46 1 25 43
M  V30 47 1 26 44
M  V30 END BOND
M  V30 BEGIN COLLECTION
M  V30 MDLV30/STEABS ATOMS=(2 8 13)
M  V30 END COLLECTION
M  V30 END CTAB
M  END
>  <Structure No>
8697

>  <LogS>
-5.931

>  <MMFF94 Energy>
113.17

$$$$
Compound 8698
Actelion Java MolfileCreator 2.0

  0  0  0  0  0  0              0 V3000
M  V30 BEGIN CTAB
M  V30 COUNTS 26 27 0 0 0
M  V30 BEGIN ATOM
M  V30 1 O 2.626 0.8747 0.9543 0
M  V30 2 C 2.4408 -0.0108 0.0749 0
M  V30 3 O 1.1466 -0.3499 -0.3401 0
M  V30 4 N 3.5547 -0.7235 -0.4699 0
M  V30 5 C -0.0084 0.4165 -0.1098 0
M  V30 6 C 4.9259 -0.436 -0.0683 0
M  V30 7 C -1.2552 -0.2313 0.0252 0
M  V30 8 C 0.0454 1.8222 -0.0542 0
M  V30 9 C -2.4286 0.5362 0.2454 0
M  V30 10 C -1.3573 -1.6336 -0.0454 0
M  V30 11 C -1.1131 2.5701 0.1629 0
M  V30 12 C -2.3444 1.9334 0.317 0
M  V30 13 C -3.6679 -0.1071 0.3885 0
M  V30 14 C -2.5986 -2.2596 0.0982 0
M  V30 15 C -3.7495 -1.4993 0.3145 0
M  V30 16 H 3.3786 -1.4693 -1.1799 0
M  V30 17 H 5.1736 0.6204 -0.3042 0
M  V30 18 H 5.0437 -0.6111 1.0217 0
M  V30 19 H 5.6265 -1.1002 -0.6167 0
M  V30 20 H 0.9779 2.3473 -0.2085 0
M  V30 21 H -0.4823 -2.2499 -0.2099 0
M  V30 22 H -1.0573 3.6504 0.2029 0
M  V30 23 H -3.2316 2.533 0.4831 0
M  V30 24 H -4.5721 0.4659 0.5568 0
M  V30 25 H -2.6683 -3.3382 0.0424 0
M  V30 26 H -4.7076 -1.9906 0.4253 0
M  V30 END ATOM
M  V30 BEGIN BOND
M  V30 1 2 1 2
M  V30 2 1 2 3
M  V30 3 1 2 4
M  V30 4 1 3 5
M  V30 5 1 4 6
M  V30 6 1 5 7
M  V30 7 2 5 8
M  V30 8 1 7 9
M  V30 9 2 7 10
M  V30 10 1 8 11
M  V30 11 1 9 12
M  V30 12 2 9 13
M  V30 13 1 10 14
M  V30 14 1 13 15
M  V30 15 2 11 12
M  V30 16 2 14 15
M  V30 17 1 4 16
M  V30 18 1 6 17
M  V30 19 1 6 18
M  V30 20 1 6 19
M  V30 21 1 8 20
M  V30 22 1 10 21
M  V30 23 1 11 22
M  V30 24 1 12 23
M  V30 25 1 13 24
M  V30 26 1 14 25
M  V30 27 1 15 26
M  V30 END BOND
M  V30 END CTAB
M  END
>  <Structure No>
8698

>  <LogS>
-3.224

>  <MMFF94 Energy>


$$$$
Compound 8699
Actelion Java MolfileCreator 2.0

  0  0  0  0  0  0              0 V3000
M  V30 BEGIN CTAB
M  V30 COUNTS 42 43 0 0 0
M  V30 BEGIN ATOM
M  V30 1 Cl 4.6313 3.3892 -1.9829 0
M  V30 2 C 4.1713 1.9398 -1.1132 0
M  V30 3 N 3.0201 1.9238 -0.3935 0
M  V30 4 C 4.9792 0.8041 -1.1582 0
M  V30 5 C 2.6313 0.814 0.2919 0
M  V30 6 C 4.5754 -0.3283 -0.4524 0
M  V30 7 N 3.4139 -0.2994 0.2561 0
M  V30 8 N 1.3944 0.8132 1.0359 0
M  V30 9 O 5.3665 -1.4799 -0.4851 0
M  V30 10 N 0.4266 1.8228 0.8474 0
M  V30 11 C 1.1173 -0.2367 1.975 0
M  V30 12 C 5.0092 -2.6771 0.1953 0
M  V30 13 S -0.4299 1.5068 -0.632 0
M  V30 14 O 0.0447 -0.237 2.6351 0
M  V30 15 O -1.6175 2.4228 -0.733 0
M  V30 16 O 0.4671 1.787 -1.8056 0
M  V30 17 C -0.9645 -0.1834 -0.6793 0
M  V30 18 C -2.1392 -0.6393 -0.0209 0
M  V30 19 C -0.1962 -1.0953 -1.4226 0
M  V30 20 C -2.9729 0.2274 0.8415 0
M  V30 21 C -2.532 -1.9807 -0.1778 0
M  V30 22 C -0.5924 -2.4267 -1.5468 0
M  V30 23 O -2.4392 1.1026 1.5759 0
M  V30 24 O -4.3588 0.0296 0.8778 0
M  V30 25 C -1.7631 -2.8664 -0.9335 0
M  V30 26 C -5.2491 0.8431 1.6391 0
M  V30 27 C -5.4342 2.2037 0.9769 0
M  V30 28 H 5.8989 0.7995 -1.729 0
M  V30 29 H 0.9055 2.7482 0.7644 0
M  V30 30 H 1.8261 -1.0386 2.1338 0
M  V30 31 H 5.7899 -3.4446 0.0175 0
M  V30 32 H 4.0377 -3.0561 -0.187 0
M  V30 33 H 4.9336 -2.4863 1.287 0
M  V30 34 H 0.7138 -0.7758 -1.9139 0
M  V30 35 H -3.4265 -2.3529 0.3071 0
M  V30 36 H 0.0071 -3.1171 -2.1254 0
M  V30 37 H -2.0715 -3.8988 -1.0356 0
M  V30 38 H -4.8693 0.9668 2.6766 0
M  V30 39 H -6.2351 0.3352 1.6919 0
M  V30 40 H -4.4747 2.7614 0.9623 0
M  V30 41 H -5.7935 2.0721 -0.0652 0
M  V30 42 H -6.1815 2.7976 1.5441 0
M  V30 END ATOM
M  V30 BEGIN BOND
M  V30 1 1 1 2
M  V30 2 2 2 3
M  V30 3 1 2 4
M  V30 4 1 3 5
M  V30 5 2 4 6
M  V30 6 2 5 7
M  V30 7 1 5 8
M  V30 8 1 6 9
M  V30 9 1 8 10
M  V30 10 1 8 11
M  V30 11 1 9 12
M  V30 12 1 10 13
M  V30 13 2 11 14
M  V30 14 2 13 15
M  V30 15 2 13 16
M  V30 16 1 13 17
M  V30 17 2 17 18
M  V30 18 1 17 19
M  V30 19 1 18 20
M  V30 20 1 18 21
M  V30 21 2 19 22
M  V30 22 2 20 23
M  V30 23 1 20 24
M  V30 24 2 21 25
M  V30 25 1 24 26
M  V30 26 1 26 27
M  V30 27 1 6 7
M  V30 28 1 22 25
M  V30 29 1 4 28
M  V30 30 1 10 29
M  V30 31 1 11 30
M  V30 32 1 12 31
M  V30 33 1 12 32
M  V30 34 1 12 33
M  V30 35 1 19 34
M  V30 36 1 21 35
M  V30 37 1 22 36
M  V30 38 1 25 37
M  V30 39 1 26 38
M  V30 40 1 26 39
M  V30 41 1 27 40
M  V30 42 1 27 41
M  V30 43 1 27 42
M  V30 END BOND
M  V30 END CTAB
M  END
>  <Structure No>
8699

>  <LogS>
-4.576

>  <MMFF94 Energy>
-100.05

$$$$
Compound 8700
Actelion Java MolfileCreator 2.0

  0  0  0  0  0  0              0 V3000
M  V30 BEGIN CTAB
M  V30 COUNTS 6 5 0 0 0
M  V30 BEGIN ATOM
M  V30 1 Cl -1.3242 1.3242 -0.0827 0
M  V30 2 C -0.4376 -0.2135 0.0265 0
M  V30 3 C 1.0015 0.0475 -0.0197 0
M  V30 4 N 2.1397 0.2534 -0.0563 0
M  V30 5 H -0.6913 -0.7191 0.9809 0
M  V30 6 H -0.7229 -0.8657 -0.8243 0
M  V30 END ATOM
M  V30 BEGIN BOND
M  V30 1 1 1 2
M  V30 2 1 2 3
M  V30 3 3 3 4
M  V30 4 1 2 5
M  V30 5 1 2 6
M  V30 END BOND
M  V30 END CTAB
M  END
>  <Structure No>
8700

>  <LogS>
-0.092

>  <MMFF94 Energy>
10.878

$$$$
Compound 8701
Actelion Java MolfileCreator 2.0

  0  0  0  0  0  0              0 V3000
M  V30 BEGIN CTAB
M  V30 COUNTS 38 39 0 0 0
M  V30 BEGIN ATOM
M  V30 1 Cl -0.4895 4.0852 -3.8397 0
M  V30 2 C -0.5863 3.145 -2.3619 0
M  V30 3 C -0.4374 1.7543 -2.4068 0
M  V30 4 C -0.8013 3.7875 -1.1403 0
M  V30 5 C -0.5249 0.9834 -1.2279 0
M  V30 6 C -0.8575 3.0436 0.0386 0
M  V30 7 C -0.71 1.6551 -1.0E-4 0
M  V30 8 C -0.3035 -0.5339 -1.2541 0 CFG=2
M  V30 9 O -0.4434 -1.0396 -2.5633 0
M  V30 10 C -1.2955 -1.2884 -0.3514 0
M  V30 11 C 1.1252 -0.7512 -0.8084 0
M  V30 12 C -2.6423 -0.8714 -0.271 0
M  V30 13 C -0.9349 -2.4944 0.2908 0
M  V30 14 O 2.0089 -1.0841 -1.6461 0
M  V30 15 O 1.4656 -0.5387 0.5338 0
M  V30 16 C -3.5685 -1.5834 0.4957 0
M  V30 17 C -1.8651 -3.2025 1.0568 0
M  V30 18 C 2.8017 -0.5989 1.0298 0
M  V30 19 C -3.1791 -2.7436 1.1675 0
M  V30 20 C 3.5662 0.6666 0.6327 0
M  V30 21 C 2.7559 -0.742 2.5493 0
M  V30 22 Cl -4.3448 -3.6377 2.1258 0
M  V30 23 H -0.2468 1.2848 -3.3628 0
M  V30 24 H -0.9141 4.8635 -1.1023 0
M  V30 25 H -1.0092 3.5442 0.9862 0
M  V30 26 H -0.7395 1.1022 0.9303 0
M  V30 27 H -1.3803 -0.8807 -2.8546 0
M  V30 28 H -2.9818 0.0065 -0.8054 0
M  V30 29 H 0.0644 -2.8986 0.2 0
M  V30 30 H -4.5922 -1.2367 0.5582 0
M  V30 31 H -1.5649 -4.1154 1.5553 0
M  V30 32 H 3.3196 -1.491 0.6128 0
M  V30 33 H 3.0478 1.5693 1.0215 0
M  V30 34 H 4.5993 0.6361 1.0398 0
M  V30 35 H 3.6307 0.744 -0.4725 0
M  V30 36 H 3.7849 -0.8148 2.9616 0
M  V30 37 H 2.2401 0.1297 3.0063 0
M  V30 38 H 2.2016 -1.6654 2.8211 0
M  V30 END ATOM
M  V30 BEGIN BOND
M  V30 1 1 1 2
M  V30 2 2 2 3
M  V30 3 1 2 4
M  V30 4 1 3 5
M  V30 5 2 4 6
M  V30 6 2 5 7
M  V30 7 1 5 8
M  V30 8 1 8 9
M  V30 9 1 8 10
M  V30 10 1 8 11
M  V30 11 2 10 12
M  V30 12 1 10 13
M  V30 13 2 11 14
M  V30 14 1 11 15
M  V30 15 1 12 16
M  V30 16 2 13 17
M  V30 17 1 15 18
M  V30 18 2 16 19
M  V30 19 1 18 20
M  V30 20 1 18 21
M  V30 21 1 19 22
M  V30 22 1 6 7
M  V30 23 1 17 19
M  V30 24 1 3 23
M  V30 25 1 4 24
M  V30 26 1 6 25
M  V30 27 1 7 26
M  V30 28 1 9 27
M  V30 29 1 12 28
M  V30 30 1 13 29
M  V30 31 1 16 30
M  V30 32 1 17 31
M  V30 33 1 18 32
M  V30 34 1 20 33
M  V30 35 1 20 34
M  V30 36 1 20 35
M  V30 37 1 21 36
M  V30 38 1 21 37
M  V30 39 1 21 38
M  V30 END BOND
M  V30 BEGIN COLLECTION
M  V30 MDLV30/STEABS ATOMS=(1 8)
M  V30 END COLLECTION
M  V30 END CTAB
M  END
>  <Structure No>
8701

>  <LogS>
-4.53

>  <MMFF94 Energy>
111.2

$$$$
Compound 8702
Actelion Java MolfileCreator 2.0

  0  0  0  0  0  0              0 V3000
M  V30 BEGIN CTAB
M  V30 COUNTS 6 5 0 0 0
M  V30 BEGIN ATOM
M  V30 1 Cl -1.4062 1.582 -0.0878 0
M  V30 2 C -0.7205 -0.0343 0.0337 0
M  V30 3 C 0.5968 -0.2568 -0.0107 0
M  V30 4 Cl 1.7654 1.0466 -0.1949 0
M  V30 5 H -1.3986 -0.8738 0.1487 0
M  V30 6 H 0.968 -1.2735 0.0687 0
M  V30 END ATOM
M  V30 BEGIN BOND
M  V30 1 1 1 2
M  V30 2 2 2 3
M  V30 3 1 3 4
M  V30 4 1 2 5
M  V30 5 1 3 6
M  V30 END BOND
M  V30 END CTAB
M  END
>  <Structure No>
8702

>  <LogS>
-1.3

>  <MMFF94 Energy>
3.1872

$$$$
Compound 8703
Actelion Java MolfileCreator 2.0

  0  0  0  0  0  0              0 V3000
M  V30 BEGIN CTAB
M  V30 COUNTS 24 24 0 0 0
M  V30 BEGIN ATOM
M  V30 1 C 0.392 0.7841 0.6272 0 CFG=2
M  V30 2 C 0.6776 -0.7351 0.4498 0 CFG=1
M  V30 3 C -1.1253 1.0264 0.7839 0
M  V30 4 C 0.985 1.6654 -0.4899 0
M  V30 5 C -0.1447 -1.3457 -0.7034 0
M  V30 6 C 2.1716 -1.0426 0.2765 0
M  V30 7 C -1.9347 0.4122 -0.3671 0
M  V30 8 C -1.6432 -1.085 -0.511 0
M  V30 9 H 0.8713 1.1092 1.5778 0
M  V30 10 H 0.3594 -1.2412 1.3897 0
M  V30 11 H -1.3369 2.1162 0.8431 0
M  V30 12 H -1.4671 0.5772 1.7426 0
M  V30 13 H 2.0937 1.6303 -0.4642 0
M  V30 14 H 0.6405 1.3453 -1.4936 0
M  V30 15 H 0.6886 2.7251 -0.3385 0
M  V30 16 H 0.1831 -0.9315 -1.681 0
M  V30 17 H 0.0211 -2.4447 -0.7346 0
M  V30 18 H 2.341 -2.1385 0.341 0
M  V30 19 H 2.5405 -0.6924 -0.7104 0
M  V30 20 H 2.7608 -0.5534 1.0812 0
M  V30 21 H -3.0182 0.5524 -0.1637 0
M  V30 22 H -1.7036 0.9349 -1.3199 0
M  V30 23 H -2.1996 -1.4837 -1.3865 0
M  V30 24 H -2.0018 -1.6227 0.3942 0
M  V30 END ATOM
M  V30 BEGIN BOND
M  V30 1 1 1 2
M  V30 2 1 1 3
M  V30 3 1 1 4
M  V30 4 1 2 5
M  V30 5 1 2 6
M  V30 6 1 3 7
M  V30 7 1 5 8
M  V30 8 1 7 8
M  V30 9 1 1 9
M  V30 10 1 2 10
M  V30 11 1 3 11
M  V30 12 1 3 12
M  V30 13 1 4 13
M  V30 14 1 4 14
M  V30 15 1 4 15
M  V30 16 1 5 16
M  V30 17 1 5 17
M  V30 18 1 6 18
M  V30 19 1 6 19
M  V30 20 1 6 20
M  V30 21 1 7 21
M  V30 22 1 7 22
M  V30 23 1 8 23
M  V30 24 1 8 24
M  V30 END BOND
M  V30 BEGIN COLLECTION
M  V30 MDLV30/STEABS ATOMS=(2 1 2)
M  V30 END COLLECTION
M  V30 END CTAB
M  END
>  <Structure No>
8703

>  <LogS>
-4.3

>  <MMFF94 Energy>
7.3993

$$$$
Compound 8704
Actelion Java MolfileCreator 2.0

  0  0  0  0  0  0              0 V3000
M  V30 BEGIN CTAB
M  V30 COUNTS 59 62 0 0 0
M  V30 BEGIN ATOM
M  V30 1 O -7.0034 -1.8694 0.8124 0
M  V30 2 C -5.8792 -1.4113 0.4771 0
M  V30 3 C -4.7328 -1.5743 1.3785 0
M  V30 4 C -5.7417 -0.6468 -0.7992 0
M  V30 5 C -3.52 -1.0607 1.0987 0
M  V30 6 C -4.2875 -0.6575 -1.2722 0
M  V30 7 C -3.2755 -0.2115 -0.1618 0 CFG=2
M  V30 8 C -2.4493 -1.2406 2.1435 0
M  V30 9 C -1.7927 -0.4006 -0.7209 0 CFG=1
M  V30 10 C -3.5568 1.2714 0.2102 0
M  V30 11 C -1.152 -0.5292 1.7828 0
M  V30 12 C -1.3424 0.7536 -1.6117 0
M  V30 13 C -0.7399 -0.8598 0.3365 0 CFG=2
M  V30 14 O -2.0859 1.1145 -2.5117 0
M  V30 15 C 0.0178 1.3967 -1.5763 0
M  V30 16 C 0.7263 -0.4418 0.0522 0 CFG=2
M  V30 17 C 0.97 1.0078 -0.3999 0 CFG=1
M  V30 18 C 1.4204 -1.3043 -1.0059 0
M  V30 19 C 2.4603 0.9458 -0.9149 0 CFG=1
M  V30 20 C 0.7888 2.0242 0.7557 0
M  V30 21 C 2.5572 -0.449 -1.5749 0
M  V30 22 O 2.7138 1.9183 -1.9096 0
M  V30 23 C 3.5087 1.1154 0.2041 0
M  V30 24 O 4.0358 2.2102 0.3502 0
M  V30 25 C 3.8601 0.0372 1.2063 0
M  V30 26 O 5.2521 0.0688 1.5163 0
M  V30 27 C 6.2477 -0.362 0.6344 0
M  V30 28 O 5.9506 -0.8275 -0.4983 0
M  V30 29 C 7.6749 -0.3173 1.0611 0
M  V30 30 H -4.8855 -2.1324 2.2968 0
M  V30 31 H -6.3837 -1.1069 -1.5808 0
M  V30 32 H -6.0901 0.3951 -0.6428 0
M  V30 33 H -4.2163 -0.0107 -2.1699 0
M  V30 34 H -4.0493 -1.6936 -1.6007 0
M  V30 35 H -2.8074 -0.846 3.1191 0
M  V30 36 H -2.2474 -2.3266 2.2663 0
M  V30 37 H -1.8293 -1.2583 -1.4312 0
M  V30 38 H -2.7109 1.726 0.76 0
M  V30 39 H -3.7356 1.8904 -0.6934 0
M  V30 40 H -4.4597 1.3596 0.8567 0
M  V30 41 H -0.3715 -0.8783 2.494 0
M  V30 42 H -1.2678 0.5552 1.9428 0
M  V30 43 H -0.7309 -1.9765 0.3072 0
M  V30 44 H 0.4806 1.1337 -2.551 0
M  V30 45 H -0.1177 2.5007 -1.5987 0
M  V30 46 H 1.2924 -0.6142 0.9915 0
M  V30 47 H 0.711 -1.5758 -1.8185 0
M  V30 48 H 1.8143 -2.241 -0.5536 0
M  V30 49 H -0.2839 2.2494 0.9202 0
M  V30 50 H 1.2781 2.9893 0.5057 0
M  V30 51 H 1.223 1.6473 1.7065 0
M  V30 52 H 3.5423 -0.9315 -1.4238 0
M  V30 53 H 2.4173 -0.3649 -2.6755 0
M  V30 54 H 2.4617 2.804 -1.5436 0
M  V30 55 H 3.5838 -0.9796 0.8657 0
M  V30 56 H 3.2978 0.2387 2.1424 0
M  V30 57 H 7.9863 -1.3263 1.4047 0
M  V30 58 H 7.8001 0.4094 1.8922 0
M  V30 59 H 8.3153 -0.0049 0.2092 0
M  V30 END ATOM
M  V30 BEGIN BOND
M  V30 1 2 1 2
M  V30 2 1 2 3
M  V30 3 1 2 4
M  V30 4 2 3 5
M  V30 5 1 4 6
M  V30 6 1 5 7
M  V30 7 1 5 8
M  V30 8 1 7 9
M  V30 9 1 7 10
M  V30 10 1 8 11
M  V30 11 1 9 12
M  V30 12 1 9 13
M  V30 13 2 12 14
M  V30 14 1 12 15
M  V30 15 1 13 16
M  V30 16 1 15 17
M  V30 17 1 16 18
M  V30 18 1 17 19
M  V30 19 1 17 20
M  V30 20 1 18 21
M  V30 21 1 19 22
M  V30 22 1 19 23
M  V30 23 2 23 24
M  V30 24 1 23 25
M  V30 25 1 25 26
M  V30 26 1 26 27
M  V30 27 2 27 28
M  V30 28 1 27 29
M  V30 29 1 6 7
M  V30 30 1 11 13
M  V30 31 1 16 17
M  V30 32 1 19 21
M  V30 33 1 3 30
M  V30 34 1 4 31
M  V30 35 1 4 32
M  V30 36 1 6 33
M  V30 37 1 6 34
M  V30 38 1 8 35
M  V30 39 1 8 36
M  V30 40 1 9 37
M  V30 41 1 10 38
M  V30 42 1 10 39
M  V30 43 1 10 40
M  V30 44 1 11 41
M  V30 45 1 11 42
M  V30 46 1 13 43
M  V30 47 1 15 44
M  V30 48 1 15 45
M  V30 49 1 16 46
M  V30 50 1 18 47
M  V30 51 1 18 48
M  V30 52 1 20 49
M  V30 53 1 20 50
M  V30 54 1 20 51
M  V30 55 1 21 52
M  V30 56 1 21 53
M  V30 57 1 22 54
M  V30 58 1 25 55
M  V30 59 1 25 56
M  V30 60 1 29 57
M  V30 61 1 29 58
M  V30 62 1 29 59
M  V30 END BOND
M  V30 BEGIN COLLECTION
M  V30 MDLV30/STEABS ATOMS=(6 7 9 13 16 17 19)
M  V30 END COLLECTION
M  V30 END CTAB
M  END
>  <Structure No>
8704

>  <LogS>
-4.21

>  <MMFF94 Energy>
104.8

$$$$
Compound 8705
Actelion Java MolfileCreator 2.0

  0  0  0  0  0  0              0 V3000
M  V30 BEGIN CTAB
M  V30 COUNTS 38 40 0 0 0
M  V30 BEGIN ATOM
M  V30 1 Cl -3.7619 4.663 0.8986 0
M  V30 2 C -2.9331 3.136 0.6577 0
M  V30 3 C -2.5094 2.7637 -0.6209 0
M  V30 4 C -2.6952 2.2898 1.7444 0
M  V30 5 C -1.8489 1.5473 -0.8152 0
M  V30 6 C -2.0348 1.0724 1.5544 0
M  V30 7 C -1.6052 0.6854 0.2714 0
M  V30 8 C -0.8842 -0.6376 0.0797 0 CFG=2
M  V30 9 C 0.5654 -0.396 -0.3552 0
M  V30 10 C -1.6818 -1.6122 -0.821 0
M  V30 11 C 0.9776 -0.3248 -1.7108 0
M  V30 12 C 1.5431 -0.1497 0.6334 0
M  V30 13 C -2.9067 -2.1409 -0.1145 0
M  V30 14 O 0.1579 -0.4889 -2.6508 0
M  V30 15 O 2.2459 -0.0785 -2.0217 0
M  V30 16 O 1.1934 -0.1518 1.9828 0 CHG=-1
M  V30 17 C 2.8704 0.1045 0.26 0
M  V30 18 O -3.8697 -1.4078 0.0527 0
M  V30 19 C -2.9724 -3.555 0.3814 0
M  V30 20 C 3.1887 0.1288 -1.1124 0
M  V30 21 C 3.8815 0.3378 1.2098 0
M  V30 22 C 4.5035 0.3787 -1.5217 0
M  V30 23 C 5.1923 0.5871 0.7909 0
M  V30 24 C 5.5027 0.6069 -0.5715 0
M  V30 25 H -2.6913 3.4161 -1.4655 0
M  V30 26 H -3.0209 2.574 2.7369 0
M  V30 27 H -1.5318 1.282 -1.8136 0
M  V30 28 H -1.8604 0.4326 2.4104 0
M  V30 29 H -0.8308 -1.1578 1.0631 0
M  V30 30 H -2.0171 -1.1203 -1.7578 0
M  V30 31 H -1.0237 -2.4612 -1.1072 0
M  V30 32 H -3.8021 -4.0889 -0.1274 0
M  V30 33 H -3.1577 -3.5548 1.476 0
M  V30 34 H -2.0245 -4.0981 0.1852 0
M  V30 35 H 3.6648 0.3269 2.2708 0
M  V30 36 H 4.7506 0.3981 -2.5758 0
M  V30 37 H 5.9688 0.7651 1.5238 0
M  V30 38 H 6.5185 0.8004 -0.8914 0
M  V30 END ATOM
M  V30 BEGIN BOND
M  V30 1 1 1 2
M  V30 2 2 2 3
M  V30 3 1 2 4
M  V30 4 1 3 5
M  V30 5 2 4 6
M  V30 6 2 5 7
M  V30 7 1 7 8
M  V30 8 1 8 9
M  V30 9 1 8 10
M  V30 10 1 9 11
M  V30 11 2 9 12
M  V30 12 1 10 13
M  V30 13 2 11 14
M  V30 14 1 11 15
M  V30 15 1 12 16
M  V30 16 1 12 17
M  V30 17 2 13 18
M  V30 18 1 13 19
M  V30 19 1 15 20
M  V30 20 1 17 21
M  V30 21 1 20 22
M  V30 22 2 21 23
M  V30 23 2 22 24
M  V30 24 1 6 7
M  V30 25 2 17 20
M  V30 26 1 23 24
M  V30 27 1 3 25
M  V30 28 1 4 26
M  V30 29 1 5 27
M  V30 30 1 6 28
M  V30 31 1 8 29
M  V30 32 1 10 30
M  V30 33 1 10 31
M  V30 34 1 19 32
M  V30 35 1 19 33
M  V30 36 1 19 34
M  V30 37 1 21 35
M  V30 38 1 22 36
M  V30 39 1 23 37
M  V30 40 1 24 38
M  V30 END BOND
M  V30 BEGIN COLLECTION
M  V30 MDLV30/STEABS ATOMS=(1 8)
M  V30 END COLLECTION
M  V30 END CTAB
M  END
>  <Structure No>
8705

>  <LogS>
-5.839

>  <MMFF94 Energy>
55.444

$$$$
Compound 8706
Actelion Java MolfileCreator 2.0

  0  0  0  0  0  0              0 V3000
M  V30 BEGIN CTAB
M  V30 COUNTS 22 22 0 0 0
M  V30 BEGIN ATOM
M  V30 1 O -1.4139 0.314 1.5711 0
M  V30 2 C -1.4975 -0.0121 0.2062 0
M  V30 3 C -0.854 1.0853 -0.6743 0
M  V30 4 C -0.9354 -1.4337 -0.0245 0
M  V30 5 C 0.4531 1.6649 -0.1015 0
M  V30 6 C 0.5513 -1.5439 -0.4047 0
M  V30 7 C 1.6649 0.7411 -0.259 0
M  V30 8 C 1.4833 -0.6305 0.4058 0
M  V30 9 H -2.0312 1.0771 1.7233 0
M  V30 10 H -2.5775 -0.063 -0.0707 0
M  V30 11 H -0.6947 0.7133 -1.7099 0
M  V30 12 H -1.5805 1.9242 -0.7503 0
M  V30 13 H -1.5206 -1.9178 -0.8375 0
M  V30 14 H -1.1168 -2.0433 0.8884 0
M  V30 15 H 0.3303 1.9471 0.966 0
M  V30 16 H 0.6778 2.607 -0.6476 0
M  V30 17 H 0.8618 -2.5987 -0.2375 0
M  V30 18 H 0.6734 -1.3595 -1.4945 0
M  V30 19 H 2.5385 1.2426 0.2115 0
M  V30 20 H 1.9086 0.6198 -1.3374 0
M  V30 21 H 2.4836 -1.1142 0.4493 0
M  V30 22 H 1.1325 -0.5223 1.455 0
M  V30 END ATOM
M  V30 BEGIN BOND
M  V30 1 1 1 2
M  V30 2 1 2 3
M  V30 3 1 2 4
M  V30 4 1 3 5
M  V30 5 1 4 6
M  V30 6 1 5 7
M  V30 7 1 6 8
M  V30 8 1 7 8
M  V30 9 1 1 9
M  V30 10 1 2 10
M  V30 11 1 3 11
M  V30 12 1 3 12
M  V30 13 1 4 13
M  V30 14 1 4 14
M  V30 15 1 5 15
M  V30 16 1 5 16
M  V30 17 1 6 17
M  V30 18 1 6 18
M  V30 19 1 7 19
M  V30 20 1 7 20
M  V30 21 1 8 21
M  V30 22 1 8 22
M  V30 END BOND
M  V30 END CTAB
M  END
>  <Structure No>
8706

>  <LogS>
-0.88

>  <MMFF94 Energy>
12.027

$$$$
Compound 8707
Actelion Java MolfileCreator 2.0

  0  0  0  0  0  0              0 V3000
M  V30 BEGIN CTAB
M  V30 COUNTS 19 19 0 0 0
M  V30 BEGIN ATOM
M  V30 1 C 0.0783 1.6468 0.3135 0
M  V30 2 C 1.273 1.0379 0.3903 0
M  V30 3 C -1.0286 1.1205 -0.5666 0
M  V30 4 C 1.5827 -0.2102 -0.3989 0
M  V30 5 C -1.5682 -0.2637 -0.1395 0
M  V30 6 C 0.7372 -1.4385 0.0087 0
M  V30 7 C -0.6086 -1.1342 0.6954 0
M  V30 8 H -0.0921 2.5517 0.8892 0
M  V30 9 H 2.0435 1.4633 1.0264 0
M  V30 10 H -1.8672 1.8501 -0.5601 0
M  V30 11 H -0.6656 1.0715 -1.6159 0
M  V30 12 H 1.4384 -6.0E-4 -1.4806 0
M  V30 13 H 2.6589 -0.4564 -0.2693 0
M  V30 14 H -1.8728 -0.8279 -1.0478 0
M  V30 15 H -2.4888 -0.1095 0.4651 0
M  V30 16 H 1.3363 -2.0587 0.7109 0
M  V30 17 H 0.5519 -2.0636 -0.8919 0
M  V30 18 H -1.1151 -2.1015 0.9044 0
M  V30 19 H -0.4299 -0.6587 1.6847 0
M  V30 END ATOM
M  V30 BEGIN BOND
M  V30 1 2 1 2
M  V30 2 1 1 3
M  V30 3 1 2 4
M  V30 4 1 3 5
M  V30 5 1 4 6
M  V30 6 1 5 7
M  V30 7 1 6 7
M  V30 8 1 1 8
M  V30 9 1 2 9
M  V30 10 1 3 10
M  V30 11 1 3 11
M  V30 12 1 4 12
M  V30 13 1 4 13
M  V30 14 1 5 14
M  V30 15 1 5 15
M  V30 16 1 6 16
M  V30 17 1 6 17
M  V30 18 1 7 18
M  V30 19 1 7 19
M  V30 END BOND
M  V30 END CTAB
M  END
>  <Structure No>
8707

>  <LogS>
-3.18

>  <MMFF94 Energy>
10.931

$$$$
Compound 8708
Actelion Java MolfileCreator 2.0

  0  0  0  0  0  0              0 V3000
M  V30 BEGIN CTAB
M  V30 COUNTS 25 25 0 0 0
M  V30 BEGIN ATOM
M  V30 1 O -2.9881 0.3927 0.4713 0
M  V30 2 C -1.5919 0.2493 0.3891 0
M  V30 3 C -1.2589 -1.0132 -0.4431 0
M  V30 4 C -1.0264 1.5573 -0.2104 0
M  V30 5 C 0.0027 -1.7708 0.0373 0
M  V30 6 C 0.4469 1.5379 -0.6564 0
M  V30 7 C 1.2831 -1.4047 -0.7348 0
M  V30 8 C 1.4145 0.9532 0.3931 0
M  V30 9 C 2.1503 -0.3144 -0.0746 0
M  V30 10 H -3.3104 -0.2567 1.1505 0
M  V30 11 H -1.201 0.1367 1.4256 0
M  V30 12 H -1.2077 -0.7721 -1.5269 0
M  V30 13 H -2.11 -1.7232 -0.3428 0
M  V30 14 H -1.6414 1.8444 -1.092 0
M  V30 15 H -1.1538 2.3646 0.5441 0
M  V30 16 H 0.1567 -1.6703 1.1333 0
M  V30 17 H -0.1813 -2.854 -0.1388 0
M  V30 18 H 0.7444 2.5902 -0.8594 0
M  V30 19 H 0.5322 1.0277 -1.6364 0
M  V30 20 H 1.9156 -2.3175 -0.7995 0
M  V30 21 H 1.0529 -1.1421 -1.7886 0
M  V30 22 H 0.915 0.7569 1.3623 0
M  V30 23 H 2.1877 1.7189 0.6239 0
M  V30 24 H 2.9397 -0.0186 -0.7996 0
M  V30 25 H 2.6698 -0.7555 0.8039 0
M  V30 END ATOM
M  V30 BEGIN BOND
M  V30 1 1 1 2
M  V30 2 1 2 3
M  V30 3 1 2 4
M  V30 4 1 3 5
M  V30 5 1 4 6
M  V30 6 1 5 7
M  V30 7 1 6 8
M  V30 8 1 7 9
M  V30 9 1 8 9
M  V30 10 1 1 10
M  V30 11 1 2 11
M  V30 12 1 3 12
M  V30 13 1 3 13
M  V30 14 1 4 14
M  V30 15 1 4 15
M  V30 16 1 5 16
M  V30 17 1 5 17
M  V30 18 1 6 18
M  V30 19 1 6 19
M  V30 20 1 7 20
M  V30 21 1 7 21
M  V30 22 1 8 22
M  V30 23 1 8 23
M  V30 24 1 9 24
M  V30 25 1 9 25
M  V30 END BOND
M  V30 END CTAB
M  END
>  <Structure No>
8708

>  <LogS>
-1.29

>  <MMFF94 Energy>
18.115

$$$$
Compound 8709
Actelion Java MolfileCreator 2.0

  0  0  0  0  0  0              0 V3000
M  V30 BEGIN CTAB
M  V30 COUNTS 23 24 0 0 0
M  V30 BEGIN ATOM
M  V30 1 O 4.2302 0.0 0.3249 0
M  V30 2 C 2.9842 0.0144 0.1408 0
M  V30 3 N 2.1941 -1.1025 0.5325 0
M  V30 4 N 2.3682 1.1418 -0.4717 0
M  V30 5 C 0.7765 -1.1132 0.3467 0
M  V30 6 C 0.9529 1.2048 -0.6663 0
M  V30 7 O 0.1402 -2.1629 0.6374 0
M  V30 8 C 0.0171 0.1224 -0.1361 0
M  V30 9 O 0.4701 2.2175 -1.2435 0
M  V30 10 C -0.8346 0.6795 1.0132 0
M  V30 11 C -1.019 -0.2838 -1.2024 0
M  V30 12 C -2.1629 -0.0666 0.9625 0
M  V30 13 C -2.3072 -0.6204 -0.4534 0
M  V30 14 H 2.6637 -1.9421 0.9405 0
M  V30 15 H 2.965 1.9374 -0.7926 0
M  V30 16 H -0.3405 0.5587 2.003 0
M  V30 17 H -1.0405 1.7637 0.8652 0
M  V30 18 H -0.6737 -1.145 -1.8167 0
M  V30 19 H -1.2371 0.5543 -1.9003 0
M  V30 20 H -3.0067 0.6128 1.2132 0
M  V30 21 H -2.1517 -0.9027 1.6959 0
M  V30 22 H -3.1846 -0.1662 -0.964 0
M  V30 23 H -2.4517 -1.7224 -0.4179 0
M  V30 END ATOM
M  V30 BEGIN BOND
M  V30 1 2 1 2
M  V30 2 1 2 3
M  V30 3 1 2 4
M  V30 4 1 3 5
M  V30 5 1 4 6
M  V30 6 2 5 7
M  V30 7 1 5 8
M  V30 8 2 6 9
M  V30 9 1 8 10
M  V30 10 1 8 11
M  V30 11 1 10 12
M  V30 12 1 11 13
M  V30 13 1 6 8
M  V30 14 1 12 13
M  V30 15 1 3 14
M  V30 16 1 4 15
M  V30 17 1 10 16
M  V30 18 1 10 17
M  V30 19 1 11 18
M  V30 20 1 11 19
M  V30 21 1 12 20
M  V30 22 1 12 21
M  V30 23 1 13 22
M  V30 24 1 13 23
M  V30 END BOND
M  V30 END CTAB
M  END
>  <Structure No>
8709

>  <LogS>
-2.349

>  <MMFF94 Energy>
-126.68

$$$$
Compound 8710
Actelion Java MolfileCreator 2.0

  0  0  0  0  0  0              0 V3000
M  V30 BEGIN CTAB
M  V30 COUNTS 47 49 0 0 0
M  V30 BEGIN ATOM
M  V30 1 Cl -6.9271 -5.1094 -0.9874 0
M  V30 2 C -5.9678 -3.93 -0.1078 0
M  V30 3 Cl -5.9098 -4.0406 1.6496 0
M  V30 4 C -5.3016 -2.9826 -0.7823 0
M  V30 5 C -4.4686 -1.9414 -0.0801 0 CFG=1
M  V30 6 C -3.006 -2.3017 0.2138 0
M  V30 7 C -3.3456 -1.3439 -0.9392 0 CFG=2
M  V30 8 C -2.4863 -3.6836 -0.2121 0
M  V30 9 C -2.4533 -1.7327 1.5301 0
M  V30 10 C -3.0923 0.1146 -0.7075 0
M  V30 11 O -4.0423 0.9396 -0.7979 0
M  V30 12 O -1.7897 0.5478 -0.4394 0
M  V30 13 C -1.4431 1.913 -0.2114 0 CFG=2
M  V30 14 C -1.482 2.6612 -1.4765 0
M  V30 15 C -0.0581 1.9892 0.3784 0
M  V30 16 N -1.5128 3.2499 -2.4724 0
M  V30 17 C 0.9971 1.2432 -0.1769 0
M  V30 18 C 0.1995 2.8274 1.4756 0
M  V30 19 C 2.2897 1.3287 0.3533 0
M  V30 20 C 1.482 2.8965 2.0241 0
M  V30 21 O 3.3053 0.5555 -0.2265 0
M  V30 22 C 2.5248 2.1465 1.4747 0
M  V30 23 C 4.6213 0.9855 -0.4497 0
M  V30 24 F 3.7471 2.1848 2.0608 0
M  V30 25 C 4.9424 2.345 -0.6285 0
M  V30 26 C 5.6362 0.0242 -0.5387 0
M  V30 27 C 6.266 2.7298 -0.8626 0
M  V30 28 C 6.9588 0.4119 -0.7737 0
M  V30 29 C 7.2741 1.7641 -0.9326 0
M  V30 30 H -5.3755 -2.9538 -1.8659 0
M  V30 31 H -4.9717 -1.238 0.6197 0
M  V30 32 H -3.2427 -1.7421 -1.9718 0
M  V30 33 H -2.8227 -4.4482 0.519 0
M  V30 34 H -2.8384 -3.9782 -1.2236 0
M  V30 35 H -1.377 -3.6698 -0.2265 0
M  V30 36 H -2.6075 -2.473 2.3435 0
M  V30 37 H -1.3647 -1.5434 1.4239 0
M  V30 38 H -2.9529 -0.7858 1.8293 0
M  V30 39 H -2.1793 2.3633 0.4909 0
M  V30 40 H 0.8178 0.601 -1.0309 0
M  V30 41 H -0.5934 3.4223 1.9136 0
M  V30 42 H 1.6658 3.5299 2.883 0
M  V30 43 H 4.1713 3.1038 -0.6001 0
M  V30 44 H 5.3991 -1.0255 -0.4193 0
M  V30 45 H 6.509 3.7765 -0.9961 0
M  V30 46 H 7.7388 -0.3363 -0.8335 0
M  V30 47 H 8.2976 2.0634 -1.1155 0
M  V30 END ATOM
M  V30 BEGIN BOND
M  V30 1 1 1 2
M  V30 2 1 2 3
M  V30 3 2 2 4
M  V30 4 1 4 5
M  V30 5 1 5 6
M  V30 6 1 5 7
M  V30 7 1 6 8
M  V30 8 1 6 9
M  V30 9 1 7 10
M  V30 10 2 10 11
M  V30 11 1 10 12
M  V30 12 1 12 13
M  V30 13 1 13 14
M  V30 14 1 13 15
M  V30 15 3 14 16
M  V30 16 2 15 17
M  V30 17 1 15 18
M  V30 18 1 17 19
M  V30 19 2 18 20
M  V30 20 1 19 21
M  V30 21 2 19 22
M  V30 22 1 21 23
M  V30 23 1 22 24
M  V30 24 2 23 25
M  V30 25 1 23 26
M  V30 26 1 25 27
M  V30 27 2 26 28
M  V30 28 2 27 29
M  V30 29 1 6 7
M  V30 30 1 20 22
M  V30 31 1 28 29
M  V30 32 1 4 30
M  V30 33 1 5 31
M  V30 34 1 7 32
M  V30 35 1 8 33
M  V30 36 1 8 34
M  V30 37 1 8 35
M  V30 38 1 9 36
M  V30 39 1 9 37
M  V30 40 1 9 38
M  V30 41 1 13 39
M  V30 42 1 17 40
M  V30 43 1 18 41
M  V30 44 1 20 42
M  V30 45 1 25 43
M  V30 46 1 26 44
M  V30 47 1 27 45
M  V30 48 1 28 46
M  V30 49 1 29 47
M  V30 END BOND
M  V30 BEGIN COLLECTION
M  V30 MDLV30/STEABS ATOMS=(3 5 7 13)
M  V30 END COLLECTION
M  V30 END CTAB
M  END
>  <Structure No>
8710

>  <LogS>
-7.337

>  <MMFF94 Energy>
83.229

$$$$
Compound 8711
Actelion Java MolfileCreator 2.0

  0  0  0  0  0  0              0 V3000
M  V30 BEGIN CTAB
M  V30 COUNTS 50 52 0 0 0
M  V30 BEGIN ATOM
M  V30 1 Cl 0.1638 2.3781 -0.0819 0
M  V30 2 C -1.1109 3.3706 -0.8012 0
M  V30 3 C -2.3978 2.9707 -0.7846 0
M  V30 4 C -0.742 4.6807 -1.4482 0
M  V30 5 C -2.8393 1.6606 -0.1797 0 CFG=2
M  V30 6 F -1.0738 4.6475 -2.7909 0
M  V30 7 F -1.4279 5.7143 -0.8337 0
M  V30 8 F 0.6168 4.9192 -1.331 0
M  V30 9 C -4.1588 1.6752 0.6073 0
M  V30 10 C -2.818 1.62 1.357 0 CFG=1
M  V30 11 C -5.0013 0.3953 0.4875 0
M  V30 12 C -4.9329 2.9937 0.7589 0
M  V30 13 C -2.4495 0.2951 1.9559 0
M  V30 14 O -3.0704 -0.1161 2.9742 0
M  V30 15 O -1.407 -0.459 1.4035 0
M  V30 16 C -1.1366 -1.8116 1.7784 0 CFG=1
M  V30 17 C -2.1927 -2.6745 1.2188 0
M  V30 18 C 0.2305 -2.2547 1.2885 0
M  V30 19 N -3.023 -3.351 0.7786 0
M  V30 20 C 1.1814 -1.3203 0.8304 0
M  V30 21 C 0.6066 -3.6104 1.3799 0
M  V30 22 C 2.449 -1.734 0.4058 0
M  V30 23 C 1.8757 -4.0252 0.9708 0
M  V30 24 O 3.3592 -0.7633 -0.0393 0
M  V30 25 C 2.7945 -3.0941 0.4834 0
M  V30 26 C 4.3385 -0.961 -1.0241 0
M  V30 27 C 4.1497 -1.8595 -2.0923 0
M  V30 28 C 5.5156 -0.2023 -0.9642 0
M  V30 29 C 5.1423 -2.0118 -3.0657 0
M  V30 30 C 6.5046 -0.355 -1.9412 0
M  V30 31 C 6.3218 -1.265 -2.9876 0
M  V30 32 H -3.1494 3.5841 -1.2758 0
M  V30 33 H -2.5668 0.7165 -0.699 0
M  V30 34 H -2.479 2.5479 1.8646 0
M  V30 35 H -5.7451 0.5177 -0.3287 0
M  V30 36 H -4.3841 -0.4994 0.2565 0
M  V30 37 H -5.5435 0.219 1.4409 0
M  V30 38 H -4.2678 3.8544 0.9842 0
M  V30 39 H -5.6612 2.8997 1.5904 0
M  V30 40 H -5.4888 3.2069 -0.1777 0
M  V30 41 H -1.1463 -1.9004 2.8869 0
M  V30 42 H 0.9491 -0.2647 0.7973 0
M  V30 43 H -0.0829 -4.3485 1.7725 0
M  V30 44 H 2.1519 -5.07 1.0434 0
M  V30 45 H 3.7828 -3.4294 0.1971 0
M  V30 46 H 3.2296 -2.423 -2.1853 0
M  V30 47 H 5.6636 0.5045 -0.1566 0
M  V30 48 H 4.9925 -2.7028 -3.8857 0
M  V30 49 H 7.4135 0.23 -1.8862 0
M  V30 50 H 7.0841 -1.3791 -3.7467 0
M  V30 END ATOM
M  V30 BEGIN BOND
M  V30 1 1 1 2
M  V30 2 2 2 3
M  V30 3 1 2 4
M  V30 4 1 3 5
M  V30 5 1 4 6
M  V30 6 1 4 7
M  V30 7 1 4 8
M  V30 8 1 5 9
M  V30 9 1 5 10
M  V30 10 1 9 11
M  V30 11 1 9 12
M  V30 12 1 10 13
M  V30 13 2 13 14
M  V30 14 1 13 15
M  V30 15 1 15 16
M  V30 16 1 16 17
M  V30 17 1 16 18
M  V30 18 3 17 19
M  V30 19 2 18 20
M  V30 20 1 18 21
M  V30 21 1 20 22
M  V30 22 2 21 23
M  V30 23 1 22 24
M  V30 24 2 22 25
M  V30 25 1 24 26
M  V30 26 2 26 27
M  V30 27 1 26 28
M  V30 28 1 27 29
M  V30 29 2 28 30
M  V30 30 2 29 31
M  V30 31 1 9 10
M  V30 32 1 23 25
M  V30 33 1 30 31
M  V30 34 1 3 32
M  V30 35 1 5 33
M  V30 36 1 10 34
M  V30 37 1 11 35
M  V30 38 1 11 36
M  V30 39 1 11 37
M  V30 40 1 12 38
M  V30 41 1 12 39
M  V30 42 1 12 40
M  V30 43 1 16 41
M  V30 44 1 20 42
M  V30 45 1 21 43
M  V30 46 1 23 44
M  V30 47 1 25 45
M  V30 48 1 27 46
M  V30 49 1 28 47
M  V30 50 1 29 48
M  V30 51 1 30 49
M  V30 52 1 31 50
M  V30 END BOND
M  V30 BEGIN COLLECTION
M  V30 MDLV30/STEABS ATOMS=(3 5 10 16)
M  V30 END COLLECTION
M  V30 END CTAB
M  END
>  <Structure No>
8711

>  <LogS>
-8.176

>  <MMFF94 Energy>
104.61

$$$$
Compound 8712
Actelion Java MolfileCreator 2.0

  0  0  0  0  0  0              0 V3000
M  V30 BEGIN CTAB
M  V30 COUNTS 29 30 0 0 0
M  V30 BEGIN ATOM
M  V30 1 S 0.0 -1.2202 -1.7087 0
M  V30 2 O 0.068 -2.7216 -1.6663 0
M  V30 3 O -0.0894 -0.7979 -3.1489 0
M  V30 4 C -1.417 -0.6591 -0.83 0
M  V30 5 C 1.4417 -0.5335 -0.9708 0
M  V30 6 C -2.0523 0.5323 -1.2051 0
M  V30 7 C -1.8955 -1.3825 0.2707 0
M  V30 8 C 2.0871 -1.2073 0.0747 0
M  V30 9 C 1.9304 0.7074 -1.401 0
M  V30 10 C -3.1666 0.9891 -0.4943 0
M  V30 11 C -3.0098 -0.9259 0.9815 0
M  V30 12 C 3.2214 -0.6521 0.6749 0
M  V30 13 C 3.0646 1.2629 -0.8011 0
M  V30 14 C -3.6517 0.2612 0.6015 0
M  V30 15 C 3.7164 0.585 0.2388 0
M  V30 16 N -4.7906 0.7287 1.329 0
M  V30 17 N 4.8758 1.1536 0.8533 0
M  V30 18 H -1.6838 1.1096 -2.0434 0
M  V30 19 H -1.405 -2.2961 0.5812 0
M  V30 20 H 1.7111 -2.159 0.4279 0
M  V30 21 H 1.4323 1.2464 -2.1968 0
M  V30 22 H -3.6496 1.9102 -0.7954 0
M  V30 23 H -3.3708 -1.4949 1.8291 0
M  V30 24 H 3.712 -1.1837 1.4804 0
M  V30 25 H 3.4332 2.2214 -1.144 0
M  V30 26 H -5.2747 1.6126 1.0543 0
M  V30 27 H -5.1585 0.1942 2.1475 0
M  V30 28 H 5.3674 0.6568 1.6294 0
M  V30 29 H 5.2512 2.0752 0.5363 0
M  V30 END ATOM
M  V30 BEGIN BOND
M  V30 1 2 1 2
M  V30 2 2 1 3
M  V30 3 1 1 4
M  V30 4 1 1 5
M  V30 5 2 4 6
M  V30 6 1 4 7
M  V30 7 2 5 8
M  V30 8 1 5 9
M  V30 9 1 6 10
M  V30 10 2 7 11
M  V30 11 1 8 12
M  V30 12 2 9 13
M  V30 13 2 10 14
M  V30 14 2 12 15
M  V30 15 1 14 16
M  V30 16 1 15 17
M  V30 17 1 11 14
M  V30 18 1 13 15
M  V30 19 1 6 18
M  V30 20 1 7 19
M  V30 21 1 8 20
M  V30 22 1 9 21
M  V30 23 1 10 22
M  V30 24 1 11 23
M  V30 25 1 12 24
M  V30 26 1 13 25
M  V30 27 1 16 26
M  V30 28 1 16 27
M  V30 29 1 17 28
M  V30 30 1 17 29
M  V30 END BOND
M  V30 END CTAB
M  END
>  <Structure No>
8712

>  <LogS>
-3.094

>  <MMFF94 Energy>
67.695

$$$$
Compound 8713
Actelion Java MolfileCreator 2.0

  0  0  0  0  0  0              0 V3000
M  V30 BEGIN CTAB
M  V30 COUNTS 38 39 0 0 0
M  V30 BEGIN ATOM
M  V30 1 O 5.302 -0.1579 -2.134 0
M  V30 2 C 4.1003 -0.0735 -1.4345 0
M  V30 3 C 4.0856 -0.098 -0.0337 0
M  V30 4 C 2.8971 0.0312 -2.1387 0
M  V30 5 C 2.8737 -0.0118 0.6573 0
M  V30 6 C 1.6837 0.1168 -1.45 0
M  V30 7 C 1.6627 0.1131 -0.0457 0
M  V30 8 C 0.3663 0.1742 0.676 0
M  V30 9 C -0.7098 -0.7979 0.3249 0
M  V30 10 C 0.0909 1.1551 1.559 0
M  V30 11 C -2.0524 -0.2747 -0.0601 0
M  V30 12 C -0.4972 -2.1308 0.3514 0
M  V30 13 C 1.0178 2.2941 1.8648 0
M  V30 14 C -3.2323 -0.903 0.3842 0
M  V30 15 C -2.1591 0.8811 -0.8559 0
M  V30 16 C 0.7795 -2.7706 0.8085 0
M  V30 17 C -4.4847 -0.3952 0.0264 0
M  V30 18 C -3.4132 1.3854 -1.2118 0
M  V30 19 C -4.578 0.7496 -0.7742 0
M  V30 20 O -5.8207 1.2638 -1.1371 0
M  V30 21 H 6.1903 -0.2364 -1.6527 0
M  V30 22 H 5.011 -0.1936 0.5196 0
M  V30 23 H 2.902 0.043 -3.2213 0
M  V30 24 H 2.8783 -0.0708 1.738 0
M  V30 25 H 0.7618 0.1899 -2.0126 0
M  V30 26 H -0.881 1.1755 2.0395 0
M  V30 27 H -1.2947 -2.8048 0.0628 0
M  V30 28 H 0.4863 3.0486 2.4816 0
M  V30 29 H 1.8956 1.9379 2.4401 0
M  V30 30 H 1.352 2.7819 0.9248 0
M  V30 31 H -3.1881 -1.7745 1.0249 0
M  V30 32 H -1.2724 1.3918 -1.2088 0
M  V30 33 H 1.5835 -2.5993 0.0644 0
M  V30 34 H 1.0811 -2.3681 1.7986 0
M  V30 35 H 0.631 -3.8664 0.9057 0
M  V30 36 H -5.3819 -0.8891 0.3771 0
M  V30 37 H -3.4796 2.2727 -1.8286 0
M  V30 38 H -6.6834 0.8263 -0.8351 0
M  V30 END ATOM
M  V30 BEGIN BOND
M  V30 1 1 1 2
M  V30 2 2 2 3
M  V30 3 1 2 4
M  V30 4 1 3 5
M  V30 5 2 4 6
M  V30 6 2 5 7
M  V30 7 1 7 8
M  V30 8 1 8 9
M  V30 9 2 8 10
M  V30 10 1 9 11
M  V30 11 2 9 12
M  V30 12 1 10 13
M  V30 13 2 11 14
M  V30 14 1 11 15
M  V30 15 1 12 16
M  V30 16 1 14 17
M  V30 17 2 15 18
M  V30 18 2 17 19
M  V30 19 1 19 20
M  V30 20 1 6 7
M  V30 21 1 18 19
M  V30 22 1 1 21
M  V30 23 1 3 22
M  V30 24 1 4 23
M  V30 25 1 5 24
M  V30 26 1 6 25
M  V30 27 1 10 26
M  V30 28 1 12 27
M  V30 29 1 13 28
M  V30 30 1 13 29
M  V30 31 1 13 30
M  V30 32 1 14 31
M  V30 33 1 15 32
M  V30 34 1 16 33
M  V30 35 1 16 34
M  V30 36 1 16 35
M  V30 37 1 17 36
M  V30 38 1 18 37
M  V30 39 1 20 38
M  V30 END BOND
M  V30 END CTAB
M  END
>  <Structure No>
8713

>  <LogS>
-4.95

>  <MMFF94 Energy>
33.509

$$$$
Compound 8714
Actelion Java MolfileCreator 2.0

  0  0  0  0  0  0              0 V3000
M  V30 BEGIN CTAB
M  V30 COUNTS 16 15 0 0 0
M  V30 BEGIN ATOM
M  V30 1 S 0.5814 0.9138 -0.8307 0
M  V30 2 S -0.7183 -0.5217 -1.7338 0
M  V30 3 C 1.7482 -0.353 -0.2378 0
M  V30 4 C -1.8372 -0.6327 -0.2961 0
M  V30 5 C 2.8952 0.307 0.5119 0
M  V30 6 C -2.8125 0.5369 -0.2793 0
M  V30 7 H 1.224 -1.0573 0.4424 0
M  V30 8 H 2.1527 -0.9182 -1.1042 0
M  V30 9 H -1.2585 -0.6605 0.6511 0
M  V30 10 H -2.4124 -1.5791 -0.375 0
M  V30 11 H 3.4389 1.0056 -0.1589 0
M  V30 12 H 3.6032 -0.4698 0.8693 0
M  V30 13 H 2.5064 0.8676 1.3885 0
M  V30 14 H -3.4019 0.5566 -1.2204 0
M  V30 15 H -3.5106 0.4265 0.5768 0
M  V30 16 H -2.2659 1.4967 -0.1696 0
M  V30 END ATOM
M  V30 BEGIN BOND
M  V30 1 1 1 2
M  V30 2 1 1 3
M  V30 3 1 2 4
M  V30 4 1 3 5
M  V30 5 1 4 6
M  V30 6 1 3 7
M  V30 7 1 3 8
M  V30 8 1 4 9
M  V30 9 1 4 10
M  V30 10 1 5 11
M  V30 11 1 5 12
M  V30 12 1 5 13
M  V30 13 1 6 14
M  V30 14 1 6 15
M  V30 15 1 6 16
M  V30 END BOND
M  V30 END CTAB
M  END
>  <Structure No>
8714

>  <LogS>
-2.42

>  <MMFF94 Energy>
-3.1234

$$$$
Compound 8715
Actelion Java MolfileCreator 2.0

  0  0  0  0  0  0              0 V3000
M  V30 BEGIN CTAB
M  V30 COUNTS 54 54 0 0 0
M  V30 BEGIN ATOM
M  V30 1 O 2.0516 1.2621 2.2095 0
M  V30 2 C 0.8307 0.9608 2.3161 0
M  V30 3 O 0.1909 0.224 1.3117 0
M  V30 4 C 0.0878 1.3354 3.5366 0
M  V30 5 C 0.8623 -0.2879 0.1614 0
M  V30 6 C -1.2593 1.7843 3.5006 0
M  V30 7 C 0.7206 1.1564 4.7797 0
M  V30 8 C 1.75 -1.4786 0.5353 0
M  V30 9 C -1.9444 2.139 2.2362 0
M  V30 10 C -1.9477 1.9775 4.7131 0
M  V30 11 C 0.0256 1.3731 5.9703 0
M  V30 12 C 2.4178 -2.077 -0.7086 0
M  V30 13 O -3.1956 2.0061 2.1428 0
M  V30 14 O -1.2114 2.6787 1.1717 0
M  V30 15 C -1.3092 1.7709 5.937 0
M  V30 16 C 3.2941 -3.2818 -0.3365 0
M  V30 17 C -1.7973 3.0969 -0.0603 0
M  V30 18 C 4.069 -3.8406 -1.54 0
M  V30 19 C -2.1738 1.8848 -0.9157 0
M  V30 20 C 3.1668 -4.5706 -2.5348 0
M  V30 21 C -2.6207 2.3096 -2.321 0
M  V30 22 C -3.1931 1.14 -3.1437 0
M  V30 23 C -2.2274 -0.0421 -3.3499 0
M  V30 24 C -0.9352 0.3552 -4.0633 0
M  V30 25 H 0.0953 -0.6305 -0.564 0
M  V30 26 H 1.4617 0.5159 -0.3196 0
M  V30 27 H 1.747 0.8131 4.8298 0
M  V30 28 H 1.1257 -2.2526 1.0328 0
M  V30 29 H 2.5342 -1.1476 1.2491 0
M  V30 30 H -2.9754 2.3203 4.7152 0
M  V30 31 H 0.5193 1.217 6.9214 0
M  V30 32 H 3.0455 -1.2987 -1.1965 0
M  V30 33 H 1.6284 -2.3956 -1.4229 0
M  V30 34 H -1.8477 1.9328 6.8621 0
M  V30 35 H 2.6657 -4.0832 0.111 0
M  V30 36 H 4.0333 -2.9655 0.4324 0
M  V30 37 H -2.6899 3.7311 0.1349 0
M  V30 38 H -1.0505 3.713 -0.6051 0
M  V30 39 H 4.6114 -3.0226 -2.0617 0
M  V30 40 H 4.8275 -4.5617 -1.1651 0
M  V30 41 H -2.9891 1.3167 -0.4181 0
M  V30 42 H -1.2836 1.232 -0.9992 0
M  V30 43 H 2.5794 -5.3622 -2.0221 0
M  V30 44 H 2.474 -3.8607 -3.0326 0
M  V30 45 H 3.7919 -5.0476 -3.3184 0
M  V30 46 H -1.7694 2.7746 -2.8643 0
M  V30 47 H -3.415 3.084 -2.2308 0
M  V30 48 H -3.504 1.5273 -4.1389 0
M  V30 49 H -4.1114 0.7635 -2.6405 0
M  V30 50 H -1.9859 -0.5223 -2.3775 0
M  V30 51 H -2.745 -0.8068 -3.9684 0
M  V30 52 H -1.1612 0.9073 -5.001 0
M  V30 53 H -0.3588 -0.5594 -4.3196 0
M  V30 54 H -0.302 0.9853 -3.4044 0
M  V30 END ATOM
M  V30 BEGIN BOND
M  V30 1 2 1 2
M  V30 2 1 2 3
M  V30 3 1 2 4
M  V30 4 1 3 5
M  V30 5 2 4 6
M  V30 6 1 4 7
M  V30 7 1 5 8
M  V30 8 1 6 9
M  V30 9 1 6 10
M  V30 10 2 7 11
M  V30 11 1 8 12
M  V30 12 2 9 13
M  V30 13 1 9 14
M  V30 14 2 10 15
M  V30 15 1 12 16
M  V30 16 1 14 17
M  V30 17 1 16 18
M  V30 18 1 17 19
M  V30 19 1 18 20
M  V30 20 1 19 21
M  V30 21 1 21 22
M  V30 22 1 22 23
M  V30 23 1 23 24
M  V30 24 1 11 15
M  V30 25 1 5 25
M  V30 26 1 5 26
M  V30 27 1 7 27
M  V30 28 1 8 28
M  V30 29 1 8 29
M  V30 30 1 10 30
M  V30 31 1 11 31
M  V30 32 1 12 32
M  V30 33 1 12 33
M  V30 34 1 15 34
M  V30 35 1 16 35
M  V30 36 1 16 36
M  V30 37 1 17 37
M  V30 38 1 17 38
M  V30 39 1 18 39
M  V30 40 1 18 40
M  V30 41 1 19 41
M  V30 42 1 19 42
M  V30 43 1 20 43
M  V30 44 1 20 44
M  V30 45 1 20 45
M  V30 46 1 21 46
M  V30 47 1 21 47
M  V30 48 1 22 48
M  V30 49 1 22 49
M  V30 50 1 23 50
M  V30 51 1 23 51
M  V30 52 1 24 52
M  V30 53 1 24 53
M  V30 54 1 24 54
M  V30 END BOND
M  V30 END CTAB
M  END
>  <Structure No>
8715

>  <LogS>
-6.144

>  <MMFF94 Energy>
17.972

$$$$
Compound 8716
Actelion Java MolfileCreator 2.0

  0  0  0  0  0  0              0 V3000
M  V30 BEGIN CTAB
M  V30 COUNTS 21 20 0 0 0
M  V30 BEGIN ATOM
M  V30 1 S -0.0791 -0.7126 0.8711 0
M  V30 2 C 1.3343 0.2568 0.2207 0
M  V30 3 C -1.3076 -0.2078 -0.3924 0
M  V30 4 C 2.2474 0.6493 1.3812 0
M  V30 5 C 2.1024 -0.5721 -0.8101 0
M  V30 6 C -2.3137 -1.3402 -0.5921 0
M  V30 7 C -2.0195 1.0697 0.0562 0
M  V30 8 H 0.976 1.1913 -0.2617 0
M  V30 9 H -0.8086 -0.0198 -1.367 0
M  V30 10 H 3.1034 1.252 1.0095 0
M  V30 11 H 1.6823 1.2626 2.1149 0
M  V30 12 H 2.6383 -0.2547 1.8955 0
M  V30 13 H 2.9583 0.012 -1.2102 0
M  V30 14 H 1.4402 -0.8411 -1.659 0
M  V30 15 H 2.4877 -1.5071 -0.3496 0
M  V30 16 H -1.7867 -2.2571 -0.9315 0
M  V30 17 H -3.059 -1.0599 -1.3667 0
M  V30 18 H -2.8461 -1.5635 0.3575 0
M  V30 19 H -1.2878 1.8942 0.1842 0
M  V30 20 H -2.5429 0.9058 1.0226 0
M  V30 21 H -2.763 1.3823 -0.7076 0
M  V30 END ATOM
M  V30 BEGIN BOND
M  V30 1 1 1 2
M  V30 2 1 1 3
M  V30 3 1 2 4
M  V30 4 1 2 5
M  V30 5 1 3 6
M  V30 6 1 3 7
M  V30 7 1 2 8
M  V30 8 1 3 9
M  V30 9 1 4 10
M  V30 10 1 4 11
M  V30 11 1 4 12
M  V30 12 1 5 13
M  V30 13 1 5 14
M  V30 14 1 5 15
M  V30 15 1 6 16
M  V30 16 1 6 17
M  V30 17 1 6 18
M  V30 18 1 7 19
M  V30 19 1 7 20
M  V30 20 1 7 21
M  V30 END BOND
M  V30 END CTAB
M  END
>  <Structure No>
8716

>  <LogS>
-2.24

>  <MMFF94 Energy>
9.3254

$$$$
Compound 8717
Actelion Java MolfileCreator 2.0

  0  0  0  0  0  0              0 V3000
M  V30 BEGIN CTAB
M  V30 COUNTS 21 20 0 0 0
M  V30 BEGIN ATOM
M  V30 1 S 0.2374 1.1876 0.3165 0
M  V30 2 C -1.3748 0.6797 -0.3796 0
M  V30 3 C 1.1158 -0.3711 -0.0667 0
M  V30 4 C -2.2142 -0.0405 0.6773 0
M  V30 5 C 2.5627 -0.321 0.431 0
M  V30 6 C -3.5836 -0.4248 0.1252 0
M  V30 7 C 3.423 0.642 -0.3856 0
M  V30 8 H -1.2337 0.0338 -1.2728 0
M  V30 9 H -1.9067 1.5992 -0.7044 0
M  V30 10 H 0.5993 -1.2131 0.4391 0
M  V30 11 H 1.0994 -0.5577 -1.1619 0
M  V30 12 H -2.3531 0.6243 1.5573 0
M  V30 13 H -1.6928 -0.9616 1.0132 0
M  V30 14 H 3.002 -1.3389 0.3526 0
M  V30 15 H 2.5829 -0.0231 1.5019 0
M  V30 16 H -4.1697 -0.9438 0.9127 0
M  V30 17 H -4.1408 0.4824 -0.1918 0
M  V30 18 H -3.4713 -1.1088 -0.7428 0
M  V30 19 H 3.049 1.6826 -0.2868 0
M  V30 20 H 3.4187 0.3504 -1.4575 0
M  V30 21 H 4.4689 0.6089 -0.0145 0
M  V30 END ATOM
M  V30 BEGIN BOND
M  V30 1 1 1 2
M  V30 2 1 1 3
M  V30 3 1 2 4
M  V30 4 1 3 5
M  V30 5 1 4 6
M  V30 6 1 5 7
M  V30 7 1 2 8
M  V30 8 1 2 9
M  V30 9 1 3 10
M  V30 10 1 3 11
M  V30 11 1 4 12
M  V30 12 1 4 13
M  V30 13 1 5 14
M  V30 14 1 5 15
M  V30 15 1 6 16
M  V30 16 1 6 17
M  V30 17 1 6 18
M  V30 18 1 7 19
M  V30 19 1 7 20
M  V30 20 1 7 21
M  V30 END BOND
M  V30 END CTAB
M  END
>  <Structure No>
8717

>  <LogS>
-2.58

>  <MMFF94 Energy>
1.07

$$$$
Compound 8718
Actelion Java MolfileCreator 2.0

  0  0  0  0  0  0              0 V3000
M  V30 BEGIN CTAB
M  V30 COUNTS 72 77 0 0 0
M  V30 BEGIN ATOM
M  V30 1 O 3.0839 0.973 -0.3242 0
M  V30 2 C 4.358 0.3468 -0.2568 0 CFG=2
M  V30 3 C 2.3243 0.4301 -1.3914 0 CFG=1
M  V30 4 C 4.2349 -1.1953 -0.0441 0 CFG=1
M  V30 5 C 5.1587 0.9894 0.8781 0
M  V30 6 C 1.9132 -1.0664 -1.1141 0 CFG=1
M  V30 7 C 1.0261 1.2401 -1.5653 0
M  V30 8 O 5.0414 -1.6885 1.019 0
M  V30 9 C 2.7587 -1.6304 0.0777 0
M  V30 10 C 4.6552 0.4628 2.2243 0 CFG=1
M  V30 11 C 0.3423 -0.9931 -0.8519 0 CFG=1
M  V30 12 C 2.2602 -1.9141 -2.3822 0
M  V30 13 C -0.0455 0.1798 -1.779 0 CFG=1
M  V30 14 C 4.7689 -1.0827 2.2755 0
M  V30 15 C 5.4077 1.1256 3.3849 0
M  V30 16 C -0.4996 -2.2722 -1.2143 0
M  V30 17 C 0.0272 -0.6317 0.6362 0
M  V30 18 C -1.5511 0.5686 -1.7827 0 CFG=2
M  V30 19 C -1.6392 -2.0137 -2.2276 0
M  V30 20 C -1.955 1.4862 -0.6404 0
M  V30 21 C -2.4473 -0.7127 -1.9531 0 CFG=1
M  V30 22 C -3.1252 1.4018 0.0291 0
M  V30 23 C -3.4562 -0.9344 -0.8062 0
M  V30 24 C -4.1812 0.3625 -0.3669 0 CFG=1
M  V30 25 C -3.3324 2.3802 1.1728 0
M  V30 26 C -5.1748 -0.0028 0.7973 0
M  V30 27 C -5.0004 0.9428 -1.5456 0
M  V30 28 C -4.5995 2.1281 1.9986 0 CFG=2
M  V30 29 C -4.8332 0.6272 2.1492 0
M  V30 30 O -5.7149 2.7344 1.3954 0
M  V30 31 H 4.921 0.5495 -1.1983 0
M  V30 32 H 2.8946 0.5346 -2.3451 0
M  V30 33 H 4.6379 -1.6767 -0.959 0
M  V30 34 H 6.2376 0.7429 0.757 0
M  V30 35 H 5.0529 2.0961 0.8307 0
M  V30 36 H 1.0881 1.926 -2.4385 0
M  V30 37 H 0.8348 1.8455 -0.6569 0
M  V30 38 H 2.4027 -1.2359 1.042 0
M  V30 39 H 2.6845 -2.7382 0.1319 0
M  V30 40 H 3.5804 0.7385 2.3259 0
M  V30 41 H 1.5602 -1.7349 -3.2211 0
M  V30 42 H 2.2555 -3.0016 -2.1599 0
M  V30 43 H 3.2759 -1.6807 -2.7626 0
M  V30 44 H 0.1279 -0.1413 -2.8306 0
M  V30 45 H 3.8553 -1.5249 2.7281 0
M  V30 46 H 5.5994 -1.3749 2.9535 0
M  V30 47 H 5.0242 0.7415 4.3542 0
M  V30 48 H 5.2544 2.2257 3.362 0
M  V30 49 H 6.4968 0.9142 3.3182 0
M  V30 50 H -0.9612 -2.7143 -0.3042 0
M  V30 51 H 0.125 -3.0938 -1.6068 0
M  V30 52 H 0.602 0.2489 0.9889 0
M  V30 53 H -1.0419 -0.4221 0.7993 0
M  V30 54 H 0.2508 -1.4903 1.3043 0
M  V30 55 H -1.6989 1.1884 -2.696 0
M  V30 56 H -2.3226 -2.891 -2.2378 0
M  V30 57 H -1.2024 -1.9595 -3.2488 0
M  V30 58 H -1.2876 2.3022 -0.3876 0
M  V30 59 H -3.057 -0.5605 -2.8718 0
M  V30 60 H -2.9416 -1.3757 0.0724 0
M  V30 61 H -4.2088 -1.6844 -1.1395 0
M  V30 62 H -3.3417 3.4191 0.776 0
M  V30 63 H -2.4603 2.2969 1.8596 0
M  V30 64 H -6.216 0.2982 0.5427 0
M  V30 65 H -5.2377 -1.1031 0.9501 0
M  V30 66 H -5.5921 1.8214 -1.2104 0
M  V30 67 H -5.7033 0.1806 -1.9458 0
M  V30 68 H -4.348 1.29 -2.3738 0
M  V30 69 H -4.454 2.5567 3.0183 0
M  V30 70 H -5.6711 0.4516 2.8586 0
M  V30 71 H -3.9249 0.1413 2.5703 0
M  V30 72 H -5.649 3.7074 1.5828 0
M  V30 END ATOM
M  V30 BEGIN BOND
M  V30 1 1 1 2
M  V30 2 1 1 3
M  V30 3 1 2 4
M  V30 4 1 2 5
M  V30 5 1 3 6
M  V30 6 1 3 7
M  V30 7 1 4 8
M  V30 8 1 4 9
M  V30 9 1 5 10
M  V30 10 1 6 11
M  V30 11 1 6 12
M  V30 12 1 7 13
M  V30 13 1 8 14
M  V30 14 1 10 15
M  V30 15 1 11 16
M  V30 16 1 11 17
M  V30 17 1 13 18
M  V30 18 1 16 19
M  V30 19 1 18 20
M  V30 20 1 18 21
M  V30 21 2 20 22
M  V30 22 1 21 23
M  V30 23 1 22 24
M  V30 24 1 22 25
M  V30 25 1 24 26
M  V30 26 1 24 27
M  V30 27 1 25 28
M  V30 28 1 26 29
M  V30 29 1 28 30
M  V30 30 1 6 9
M  V30 31 1 10 14
M  V30 32 1 11 13
M  V30 33 1 19 21
M  V30 34 1 23 24
M  V30 35 1 28 29
M  V30 36 1 2 31
M  V30 37 1 3 32
M  V30 38 1 4 33
M  V30 39 1 5 34
M  V30 40 1 5 35
M  V30 41 1 7 36
M  V30 42 1 7 37
M  V30 43 1 9 38
M  V30 44 1 9 39
M  V30 45 1 10 40
M  V30 46 1 12 41
M  V30 47 1 12 42
M  V30 48 1 12 43
M  V30 49 1 13 44
M  V30 50 1 14 45
M  V30 51 1 14 46
M  V30 52 1 15 47
M  V30 53 1 15 48
M  V30 54 1 15 49
M  V30 55 1 16 50
M  V30 56 1 16 51
M  V30 57 1 17 52
M  V30 58 1 17 53
M  V30 59 1 17 54
M  V30 60 1 18 55
M  V30 61 1 19 56
M  V30 62 1 19 57
M  V30 63 1 20 58
M  V30 64 1 21 59
M  V30 65 1 23 60
M  V30 66 1 23 61
M  V30 67 1 25 62
M  V30 68 1 25 63
M  V30 69 1 26 64
M  V30 70 1 26 65
M  V30 71 1 27 66
M  V30 72 1 27 67
M  V30 73 1 27 68
M  V30 74 1 28 69
M  V30 75 1 29 70
M  V30 76 1 29 71
M  V30 77 1 30 72
M  V30 END BOND
M  V30 BEGIN COLLECTION
M  V30 MDLV30/STEABS ATOMS=(11 2 3 4 6 10 11 13 18 21 24 28)
M  V30 END COLLECTION
M  V30 END CTAB
M  END
>  <Structure No>
8718

>  <LogS>
-7.32

>  <MMFF94 Energy>
153.92

$$$$
Compound 8719
Actelion Java MolfileCreator 2.0

  0  0  0  0  0  0              0 V3000
M  V30 BEGIN CTAB
M  V30 COUNTS 37 37 0 0 0
M  V30 BEGIN ATOM
M  V30 1 F 4.2189 1.5399 -2.6758 0
M  V30 2 C 4.2682 0.5955 -1.6637 0
M  V30 3 F 4.8194 -0.5706 -2.1627 0
M  V30 4 F 5.0826 1.0843 -0.6572 0
M  V30 5 C 2.8867 0.3026 -1.1292 0
M  V30 6 C 1.761 0.4386 -1.9492 0
M  V30 7 C 2.7279 -0.2062 0.1635 0
M  V30 8 C 0.4758 0.1472 -1.4708 0
M  V30 9 C 1.4606 -0.5478 0.6625 0
M  V30 10 N -0.6435 0.3778 -2.3423 0 CHG=1
M  V30 11 C 0.3104 -0.3551 -0.1506 0
M  V30 12 N 1.3728 -1.1149 1.9822 0 CHG=1
M  V30 13 O -1.6899 0.8995 -1.9124 0
M  V30 14 O -0.5271 0.132 -3.6938 0 CHG=-1
M  V30 15 N -1.0119 -0.6512 0.357 0
M  V30 16 O 2.2102 -0.8072 2.8561 0
M  V30 17 O 0.4736 -2.115 2.2583 0 CHG=-1
M  V30 18 C -1.5537 0.1107 1.4946 0
M  V30 19 C -1.8507 -1.6664 -0.3028 0
M  V30 20 C -1.9331 1.5089 1.0725 0
M  V30 21 C -1.8141 -2.9908 0.4495 0
M  V30 22 C -3.1705 1.7693 0.6269 0
M  V30 23 C -0.9118 2.6151 1.1149 0
M  V30 24 H 1.878 0.7997 -2.9649 0
M  V30 25 H 3.604 -0.3681 0.7798 0
M  V30 26 H -2.4411 -0.4061 1.9212 0
M  V30 27 H -0.8149 0.1657 2.3186 0
M  V30 28 H -2.9008 -1.306 -0.3616 0
M  V30 29 H -1.505 -1.8528 -1.3407 0
M  V30 30 H -2.5044 -3.7118 -0.038 0
M  V30 31 H -0.7885 -3.4174 0.4214 0
M  V30 32 H -2.1342 -2.8506 1.5043 0
M  V30 33 H -3.4471 2.7703 0.3081 0
M  V30 34 H -3.9191 0.9861 0.5684 0
M  V30 35 H -0.7807 3.0501 0.0986 0
M  V30 36 H 0.0748 2.2387 1.4609 0
M  V30 37 H -1.2538 3.4116 1.8117 0
M  V30 END ATOM
M  V30 BEGIN BOND
M  V30 1 1 1 2
M  V30 2 1 2 3
M  V30 3 1 2 4
M  V30 4 1 2 5
M  V30 5 2 5 6
M  V30 6 1 5 7
M  V30 7 1 6 8
M  V30 8 2 7 9
M  V30 9 1 8 10
M  V30 10 2 8 11
M  V30 11 1 9 12
M  V30 12 2 10 13
M  V30 13 1 10 14
M  V30 14 1 11 15
M  V30 15 2 12 16
M  V30 16 1 12 17
M  V30 17 1 15 18
M  V30 18 1 15 19
M  V30 19 1 18 20
M  V30 20 1 19 21
M  V30 21 2 20 22
M  V30 22 1 20 23
M  V30 23 1 9 11
M  V30 24 1 6 24
M  V30 25 1 7 25
M  V30 26 1 18 26
M  V30 27 1 18 27
M  V30 28 1 19 28
M  V30 29 1 19 29
M  V30 30 1 21 30
M  V30 31 1 21 31
M  V30 32 1 21 32
M  V30 33 1 22 33
M  V30 34 1 22 34
M  V30 35 1 23 35
M  V30 36 1 23 36
M  V30 37 1 23 37
M  V30 END BOND
M  V30 END CTAB
M  END
>  <Structure No>
8719

>  <LogS>
-6.124

>  <MMFF94 Energy>
141.7

$$$$
Compound 8720
Actelion Java MolfileCreator 2.0

  0  0  0  0  0  0              0 V3000
M  V30 BEGIN CTAB
M  V30 COUNTS 26 25 0 0 0
M  V30 BEGIN ATOM
M  V30 1 O -2.0178 -0.2326 -1.7072 0
M  V30 2 C -1.5587 0.4618 -0.7594 0
M  V30 3 O -2.401 0.9482 0.2468 0
M  V30 4 C -0.0901 0.7343 -0.6826 0
M  V30 5 C -3.7965 0.6606 0.309 0
M  V30 6 C 0.6092 -0.3508 0.1458 0
M  V30 7 C -4.0299 -0.7607 0.8078 0
M  V30 8 C 2.0989 -0.0516 0.3753 0
M  V30 9 C 2.9373 -0.2142 -0.9009 0
M  V30 10 C 4.4244 -0.0368 -0.6073 0
M  V30 11 H 0.0671 1.7297 -0.2136 0
M  V30 12 H 0.3261 0.7639 -1.7117 0
M  V30 13 H -4.2722 1.37 1.0187 0
M  V30 14 H -4.2669 0.8026 -0.6882 0
M  V30 15 H 0.1154 -0.4158 1.141 0
M  V30 16 H 0.4949 -1.3396 -0.3511 0
M  V30 17 H -5.1202 -0.9483 0.9039 0
M  V30 18 H -3.552 -0.8967 1.8011 0
M  V30 19 H -3.6031 -1.4966 0.0949 0
M  V30 20 H 2.4758 -0.761 1.1445 0
M  V30 21 H 2.2188 0.9777 0.7793 0
M  V30 22 H 2.6368 0.5441 -1.6543 0
M  V30 23 H 2.7755 -1.2259 -1.3324 0
M  V30 24 H 4.6171 0.9744 -0.1898 0
M  V30 25 H 5.0051 -0.1498 -1.5469 0
M  V30 26 H 4.7696 -0.8049 0.1172 0
M  V30 END ATOM
M  V30 BEGIN BOND
M  V30 1 2 1 2
M  V30 2 1 2 3
M  V30 3 1 2 4
M  V30 4 1 3 5
M  V30 5 1 4 6
M  V30 6 1 5 7
M  V30 7 1 6 8
M  V30 8 1 8 9
M  V30 9 1 9 10
M  V30 10 1 4 11
M  V30 11 1 4 12
M  V30 12 1 5 13
M  V30 13 1 5 14
M  V30 14 1 6 15
M  V30 15 1 6 16
M  V30 16 1 7 17
M  V30 17 1 7 18
M  V30 18 1 7 19
M  V30 19 1 8 20
M  V30 20 1 8 21
M  V30 21 1 9 22
M  V30 22 1 9 23
M  V30 23 1 10 24
M  V30 24 1 10 25
M  V30 25 1 10 26
M  V30 END BOND
M  V30 END CTAB
M  END
>  <Structure No>
8720

>  <LogS>
-2.35

>  <MMFF94 Energy>
-12.279

$$$$
Compound 8721
Actelion Java MolfileCreator 2.0

  0  0  0  0  0  0              0 V3000
M  V30 BEGIN CTAB
M  V30 COUNTS 6 5 0 0 0
M  V30 BEGIN ATOM
M  V30 1 C 0.6382 0.0709 0.0 0
M  V30 2 C -0.685 -0.0732 -0.0075 0
M  V30 3 H 1.2815 -0.7936 0.127 0
M  V30 4 H 1.0815 1.054 -0.1204 0
M  V30 5 H -1.3284 0.7913 -0.1345 0
M  V30 6 H -1.1284 -1.0563 0.1129 0
M  V30 END ATOM
M  V30 BEGIN BOND
M  V30 1 2 1 2
M  V30 2 1 1 3
M  V30 3 1 1 4
M  V30 4 1 2 5
M  V30 5 1 2 6
M  V30 END BOND
M  V30 END CTAB
M  END
>  <Structure No>
8721

>  <LogS>
-0.4

>  <MMFF94 Energy>
8.2001

$$$$
Compound 8722
Actelion Java MolfileCreator 2.0

  0  0  0  0  0  0              0 V3000
M  V30 BEGIN CTAB
M  V30 COUNTS 34 36 0 0 0
M  V30 BEGIN ATOM
M  V30 1 F 1.6982 -0.3233 -2.2648 0
M  V30 2 C 2.0895 -0.4404 -0.9711 0
M  V30 3 C 1.242 -0.0736 0.108 0
M  V30 4 C 3.3675 -0.9545 -0.7264 0
M  V30 5 C 1.7252 -0.2706 1.4227 0
M  V30 6 C -0.1852 0.4673 -0.1023 0
M  V30 7 C 3.8245 -1.1239 0.5796 0
M  V30 8 C 3.0027 -0.7853 1.6524 0
M  V30 9 O -0.4236 0.6687 -1.4788 0
M  V30 10 C -0.3166 1.8377 0.6236 0
M  V30 11 C -1.2086 -0.56 0.4636 0
M  V30 12 F 5.0634 -1.626 0.8057 0
M  V30 13 N -1.5912 2.4975 0.3419 0
M  V30 14 N -1.0549 -1.8648 -0.1778 0
M  V30 15 N -1.8126 3.2921 -0.6887 0
M  V30 16 C -2.7218 2.4148 1.0626 0
M  V30 17 N -1.5258 -2.172 -1.3719 0
M  V30 18 C -0.3738 -2.922 0.2937 0
M  V30 19 C -3.0973 3.6816 -0.5744 0
M  V30 20 N -3.7041 3.1533 0.5116 0
M  V30 21 C -1.1231 -3.4367 -1.6033 0
M  V30 22 N -0.3956 -3.9437 -0.5831 0
M  V30 23 H 4.0054 -1.2286 -1.5571 0
M  V30 24 H 1.1101 -0.0403 2.2817 0
M  V30 25 H 3.3525 -0.927 2.667 0
M  V30 26 H -1.3962 0.8057 -1.623 0
M  V30 27 H 0.5089 2.5065 0.2935 0
M  V30 28 H -0.2141 1.7169 1.7231 0
M  V30 29 H -1.0886 -0.6682 1.5637 0
M  V30 30 H -2.2475 -0.2054 0.2943 0
M  V30 31 H -2.8338 1.8313 1.9675 0
M  V30 32 H 0.1364 -2.9499 1.2479 0
M  V30 33 H -3.5885 4.3443 -1.2741 0
M  V30 34 H -1.352 -3.9837 -2.5077 0
M  V30 END ATOM
M  V30 BEGIN BOND
M  V30 1 1 1 2
M  V30 2 2 2 3
M  V30 3 1 2 4
M  V30 4 1 3 5
M  V30 5 1 3 6
M  V30 6 2 4 7
M  V30 7 2 5 8
M  V30 8 1 6 9
M  V30 9 1 6 10
M  V30 10 1 6 11
M  V30 11 1 7 12
M  V30 12 1 10 13
M  V30 13 1 11 14
M  V30 14 1 13 15
M  V30 15 1 13 16
M  V30 16 1 14 17
M  V30 17 1 14 18
M  V30 18 2 15 19
M  V30 19 2 16 20
M  V30 20 2 17 21
M  V30 21 2 18 22
M  V30 22 1 7 8
M  V30 23 1 19 20
M  V30 24 1 21 22
M  V30 25 1 4 23
M  V30 26 1 5 24
M  V30 27 1 8 25
M  V30 28 1 9 26
M  V30 29 1 10 27
M  V30 30 1 10 28
M  V30 31 1 11 29
M  V30 32 1 11 30
M  V30 33 1 16 31
M  V30 34 1 18 32
M  V30 35 1 19 33
M  V30 36 1 21 34
M  V30 END BOND
M  V30 END CTAB
M  END
>  <Structure No>
8722

>  <LogS>
-1.8

>  <MMFF94 Energy>
35.085

$$$$
Compound 8723
Actelion Java MolfileCreator 2.0

  0  0  0  0  0  0              0 V3000
M  V30 BEGIN CTAB
M  V30 COUNTS 13 13 0 0 0
M  V30 BEGIN ATOM
M  V30 1 F 0.6345 -1.9838 -1.1899 0
M  V30 2 C 0.0948 -0.9055 -0.5685 0
M  V30 3 C 0.9033 0.0776 0.0131 0
M  V30 4 C -1.2901 -0.7566 -0.4979 0
M  V30 5 N 0.3241 1.1436 0.6268 0
M  V30 6 N 2.3273 -0.025 -0.0302 0
M  V30 7 N -1.8277 0.3251 0.1255 0
M  V30 8 C -1.0271 1.2725 0.6862 0
M  V30 9 O -1.5351 2.2708 1.2615 0
M  V30 10 H -1.9372 -1.5036 -0.9401 0
M  V30 11 H 2.7985 -0.8326 -0.4948 0
M  V30 12 H 2.9196 0.715 0.4074 0
M  V30 13 H -2.8669 0.4249 0.1715 0
M  V30 END ATOM
M  V30 BEGIN BOND
M  V30 1 1 1 2
M  V30 2 1 2 3
M  V30 3 2 2 4
M  V30 4 2 3 5
M  V30 5 1 3 6
M  V30 6 1 4 7
M  V30 7 1 5 8
M  V30 8 2 8 9
M  V30 9 1 7 8
M  V30 10 1 4 10
M  V30 11 1 6 11
M  V30 12 1 6 12
M  V30 13 1 7 13
M  V30 END BOND
M  V30 END CTAB
M  END
>  <Structure No>
8723

>  <LogS>
-0.972

>  <MMFF94 Energy>
-51.415

$$$$
Compound 8724
Actelion Java MolfileCreator 2.0

  0  0  0  0  0  0              0 V3000
M  V30 BEGIN CTAB
M  V30 COUNTS 57 60 0 0 0
M  V30 BEGIN ATOM
M  V30 1 F 1.3866 1.7947 -0.2445 0
M  V30 2 C 1.5026 0.4883 0.2188 0 CFG=1
M  V30 3 C 3.0703 0.1244 0.2809 0 CFG=1
M  V30 4 C 0.8202 0.4546 1.618 0 CFG=1
M  V30 5 C 0.7223 -0.3965 -0.817 0 CFG=2
M  V30 6 C 3.4822 -0.6873 -0.9626 0
M  V30 7 C 3.8778 1.4178 0.4214 0
M  V30 8 C 3.4821 -0.7449 1.4999 0
M  V30 9 O 1.4101 1.4283 2.4432 0
M  V30 10 C -0.6904 0.736 1.5429 0
M  V30 11 C -0.838 -0.3104 -0.7577 0 CFG=1
M  V30 12 C 1.237 -1.8483 -0.8103 0
M  V30 13 C 4.5978 -0.411 -1.657 0
M  V30 14 C 2.6685 -1.9 -1.3642 0 CFG=2
M  V30 15 C 4.973 1.6808 -0.2919 0
M  V30 16 C -1.4866 -0.2563 0.6402 0 CFG=2
M  V30 17 C -1.3856 0.9164 -1.4987 0
M  V30 18 C 5.4134 0.7607 -1.3376 0
M  V30 19 F 3.3 -3.0523 -0.9295 0
M  V30 20 C -2.94 0.3036 0.3461 0 CFG=2
M  V30 21 C -1.5375 -1.6557 1.3182 0
M  V30 22 C -2.789 1.1835 -0.9385 0 CFG=1
M  V30 23 O 6.4742 0.9883 -1.9763 0
M  V30 24 O -3.4098 1.0883 1.4236 0
M  V30 25 C -3.9664 -0.8036 0.0373 0
M  V30 26 C -3.0349 2.6877 -0.7208 0
M  V30 27 O -3.7769 -1.5571 -0.9074 0
M  V30 28 C -5.2374 -0.9675 0.8326 0
M  V30 29 O -6.0367 0.1779 0.7187 0
M  V30 30 H 0.9633 -0.543 2.0791 0
M  V30 31 H 0.9888 -0.0062 -1.828 0
M  V30 32 H 3.6006 2.1215 1.1968 0
M  V30 33 H 2.9165 -1.6956 1.5481 0
M  V30 34 H 3.3467 -0.2049 2.4602 0
M  V30 35 H 4.5609 -1.0097 1.4361 0
M  V30 36 H 1.2031 1.18 3.3825 0
M  V30 37 H -0.8269 1.7778 1.1856 0
M  V30 38 H -1.0957 0.7006 2.5778 0
M  V30 39 H -1.2513 -1.1898 -1.3007 0
M  V30 40 H 0.5983 -2.4964 -1.449 0
M  V30 41 H 1.2034 -2.2696 0.2122 0
M  V30 42 H 4.8947 -1.0396 -2.4888 0
M  V30 43 H 2.6007 -1.9355 -2.4747 0
M  V30 44 H 5.534 2.5877 -0.1024 0
M  V30 45 H -1.4265 0.7234 -2.5936 0
M  V30 46 H -0.7308 1.7975 -1.3395 0
M  V30 47 H -1.9466 -2.4285 0.636 0
M  V30 48 H -2.1741 -1.6176 2.2273 0
M  V30 49 H -0.5436 -2.0202 1.6277 0
M  V30 50 H -3.5228 0.8745 -1.7188 0
M  V30 51 H -3.3986 0.5252 2.2405 0
M  V30 52 H -4.0811 2.8568 -0.3875 0
M  V30 53 H -2.8867 3.2369 -1.6751 0
M  V30 54 H -2.3424 3.1067 0.038 0
M  V30 55 H -4.9902 -1.1363 1.9009 0
M  V30 56 H -5.8037 -1.862 0.4853 0
M  V30 57 H -6.4111 0.1718 -0.2008 0
M  V30 END ATOM
M  V30 BEGIN BOND
M  V30 1 1 1 2
M  V30 2 1 2 3
M  V30 3 1 2 4
M  V30 4 1 2 5
M  V30 5 1 3 6
M  V30 6 1 3 7
M  V30 7 1 3 8
M  V30 8 1 4 9
M  V30 9 1 4 10
M  V30 10 1 5 11
M  V30 11 1 5 12
M  V30 12 2 6 13
M  V30 13 1 6 14
M  V30 14 2 7 15
M  V30 15 1 10 16
M  V30 16 1 11 17
M  V30 17 1 13 18
M  V30 18 1 14 19
M  V30 19 1 16 20
M  V30 20 1 16 21
M  V30 21 1 17 22
M  V30 22 2 18 23
M  V30 23 1 20 24
M  V30 24 1 20 25
M  V30 25 1 22 26
M  V30 26 2 25 27
M  V30 27 1 25 28
M  V30 28 1 28 29
M  V30 29 1 11 16
M  V30 30 1 12 14
M  V30 31 1 15 18
M  V30 32 1 20 22
M  V30 33 1 4 30
M  V30 34 1 5 31
M  V30 35 1 7 32
M  V30 36 1 8 33
M  V30 37 1 8 34
M  V30 38 1 8 35
M  V30 39 1 9 36
M  V30 40 1 10 37
M  V30 41 1 10 38
M  V30 42 1 11 39
M  V30 43 1 12 40
M  V30 44 1 12 41
M  V30 45 1 13 42
M  V30 46 1 14 43
M  V30 47 1 15 44
M  V30 48 1 17 45
M  V30 49 1 17 46
M  V30 50 1 21 47
M  V30 51 1 21 48
M  V30 52 1 21 49
M  V30 53 1 22 50
M  V30 54 1 24 51
M  V30 55 1 26 52
M  V30 56 1 26 53
M  V30 57 1 26 54
M  V30 58 1 28 55
M  V30 59 1 28 56
M  V30 60 1 29 57
M  V30 END BOND
M  V30 BEGIN COLLECTION
M  V30 MDLV30/STEABS ATOMS=(9 2 3 4 5 11 14 16 20 22)
M  V30 END COLLECTION
M  V30 END CTAB
M  END
>  <Structure No>
8724

>  <LogS>
-5.613

>  <MMFF94 Energy>
166.22

$$$$
Compound 8725
Actelion Java MolfileCreator 2.0

  0  0  0  0  0  0              0 V3000
M  V30 BEGIN CTAB
M  V30 COUNTS 24 24 0 0 0
M  V30 BEGIN ATOM
M  V30 1 O -0.1576 1.025 0.3941 0
M  V30 2 C 1.0178 0.4327 -0.1231 0 CFG=1
M  V30 3 C -1.2518 0.1766 0.1069 0 CFG=1
M  V30 4 O 1.8008 0.0064 0.9689 0
M  V30 5 C 0.5954 -0.761 -1.0 0 CFG=2
M  V30 6 C 1.7775 1.4905 -0.9531 0
M  V30 7 C -0.725 -1.164 -0.3929 0 CFG=2
M  V30 8 C -2.1311 0.0161 1.3534 0
M  V30 9 O 1.538 -1.8083 -1.0292 0
M  V30 10 O 2.1361 2.5841 -0.151 0
M  V30 11 O -1.5878 -1.7145 -1.3533 0
M  V30 12 O -2.6327 1.2601 1.7618 0
M  V30 13 H -1.8559 0.6574 -0.6958 0
M  V30 14 H 2.6989 -0.2447 0.6277 0
M  V30 15 H 0.4178 -0.4221 -2.0465 0
M  V30 16 H 2.6799 1.0409 -1.4284 0
M  V30 17 H 1.1218 1.8617 -1.7698 0
M  V30 18 H -0.5805 -1.8695 0.4596 0
M  V30 19 H -1.5276 -0.4094 2.1837 0
M  V30 20 H -2.9701 -0.6865 1.144 0
M  V30 21 H 1.5638 -2.2395 -0.1358 0
M  V30 22 H 2.9734 2.3327 0.3192 0
M  V30 23 H -1.2607 -2.6354 -1.5274 0
M  V30 24 H -3.3679 1.4897 1.1353 0
M  V30 END ATOM
M  V30 BEGIN BOND
M  V30 1 1 1 2
M  V30 2 1 1 3
M  V30 3 1 2 4
M  V30 4 1 2 5
M  V30 5 1 2 6
M  V30 6 1 3 7
M  V30 7 1 3 8
M  V30 8 1 5 9
M  V30 9 1 6 10
M  V30 10 1 7 11
M  V30 11 1 8 12
M  V30 12 1 5 7
M  V30 13 1 3 13
M  V30 14 1 4 14
M  V30 15 1 5 15
M  V30 16 1 6 16
M  V30 17 1 6 17
M  V30 18 1 7 18
M  V30 19 1 8 19
M  V30 20 1 8 20
M  V30 21 1 9 21
M  V30 22 1 10 22
M  V30 23 1 11 23
M  V30 24 1 12 24
M  V30 END BOND
M  V30 BEGIN COLLECTION
M  V30 MDLV30/STEABS ATOMS=(4 2 3 5 7)
M  V30 END COLLECTION
M  V30 END CTAB
M  END
>  <Structure No>
8725

>  <LogS>
0.64

>  <MMFF94 Energy>
99.478

$$$$
Compound 8726
Actelion Java MolfileCreator 2.0

  0  0  0  0  0  0              0 V3000
M  V30 BEGIN CTAB
M  V30 COUNTS 33 35 0 0 0
M  V30 BEGIN ATOM
M  V30 1 O -1.7924 -2.3632 -1.4663 0
M  V30 2 C -1.3369 -1.4355 -0.7449 0
M  V30 3 C 0.1185 -1.1757 -0.6369 0
M  V30 4 C -2.2852 -0.6039 0.0697 0 CFG=1
M  V30 5 C 1.0276 -1.5791 -1.5577 0
M  V30 6 C 0.5885 -0.5225 0.6581 0 CFG=2
M  V30 7 C -1.5999 -0.184 1.3931 0 CFG=1
M  V30 8 C -2.7316 0.6274 -0.7405 0
M  V30 9 O 0.6679 -2.0925 -2.8068 0
M  V30 10 C 2.4992 -1.4818 -1.2489 0
M  V30 11 O -0.3521 0.4314 1.126 0
M  V30 12 C 1.9118 0.1755 0.4744 0
M  V30 13 C -2.4579 0.7833 2.1692 0
M  V30 14 C -3.534 1.5641 0.1158 0
M  V30 15 C 2.8172 -0.2728 -0.4123 0
M  V30 16 C -3.3205 1.611 1.5713 0
M  V30 17 O -4.361 2.3492 -0.4189 0
M  V30 18 O 4.0758 0.3286 -0.5778 0
M  V30 19 C 4.5304 1.474 0.1372 0
M  V30 20 H -3.1833 -1.2154 0.3159 0
M  V30 21 H 0.7458 -1.3172 1.4226 0
M  V30 22 H -1.4681 -1.0837 2.0394 0
M  V30 23 H -1.8454 1.1773 -1.1268 0
M  V30 24 H -3.3448 0.2979 -1.6077 0
M  V30 25 H -0.2551 -1.9979 -3.2079 0
M  V30 26 H 2.8167 -2.395 -0.7024 0
M  V30 27 H 3.0717 -1.4279 -2.1996 0
M  V30 28 H 2.1289 1.0281 1.104 0
M  V30 29 H -2.3256 0.8488 3.2422 0
M  V30 30 H -3.8902 2.3105 2.1706 0
M  V30 31 H 4.5637 1.2566 1.2258 0
M  V30 32 H 3.8618 2.3384 -0.0607 0
M  V30 33 H 5.5539 1.7315 -0.2041 0
M  V30 END ATOM
M  V30 BEGIN BOND
M  V30 1 2 1 2
M  V30 2 1 2 3
M  V30 3 1 2 4
M  V30 4 2 3 5
M  V30 5 1 3 6
M  V30 6 1 4 7
M  V30 7 1 4 8
M  V30 8 1 5 9
M  V30 9 1 5 10
M  V30 10 1 6 11
M  V30 11 1 6 12
M  V30 12 1 7 13
M  V30 13 1 8 14
M  V30 14 1 10 15
M  V30 15 2 13 16
M  V30 16 2 14 17
M  V30 17 1 15 18
M  V30 18 1 18 19
M  V30 19 1 7 11
M  V30 20 2 12 15
M  V30 21 1 14 16
M  V30 22 1 4 20
M  V30 23 1 6 21
M  V30 24 1 7 22
M  V30 25 1 8 23
M  V30 26 1 8 24
M  V30 27 1 9 25
M  V30 28 1 10 26
M  V30 29 1 10 27
M  V30 30 1 12 28
M  V30 31 1 13 29
M  V30 32 1 16 30
M  V30 33 1 19 31
M  V30 34 1 19 32
M  V30 35 1 19 33
M  V30 END BOND
M  V30 BEGIN COLLECTION
M  V30 MDLV30/STEABS ATOMS=(3 4 6 7)
M  V30 END COLLECTION
M  V30 END CTAB
M  END
>  <Structure No>
8726

>  <LogS>
-2.943

>  <MMFF94 Energy>
2.4959

$$$$
Compound 8727
Actelion Java MolfileCreator 2.0

  0  0  0  0  0  0              0 V3000
M  V30 BEGIN CTAB
M  V30 COUNTS 25 26 0 0 0
M  V30 BEGIN ATOM
M  V30 1 Cl 2.6934 -2.3456 -0.7814 0
M  V30 2 C 1.3862 -1.2526 -0.3388 0
M  V30 3 C 1.6289 0.0354 0.1853 0
M  V30 4 C 0.0705 -1.694 -0.5257 0
M  V30 5 S 3.2725 0.6404 0.4337 0
M  V30 6 C 0.5401 0.8653 0.4945 0
M  V30 7 C -1.0126 -0.8705 -0.1944 0
M  V30 8 O 4.0979 -0.3944 1.1457 0
M  V30 9 O 3.24 1.8845 1.2773 0
M  V30 10 N 3.9899 1.0182 -1.0936 0
M  V30 11 C -0.7706 0.4171 0.3033 0
M  V30 12 N -2.3574 -1.3389 -0.3867 0
M  V30 13 S -2.1307 1.4717 0.6367 0
M  V30 14 C -3.5045 -0.7119 0.2757 0
M  V30 15 O -1.9239 2.8037 -0.0277 0
M  V30 16 O -2.2821 1.6599 2.1198 0
M  V30 17 N -3.5581 0.7243 -0.0059 0
M  V30 18 H -0.11 -2.6848 -0.9238 0
M  V30 19 H 0.7066 1.8648 0.8755 0
M  V30 20 H 4.9564 1.3638 -0.8996 0
M  V30 21 H 4.092 0.122 -1.6193 0
M  V30 22 H -2.5245 -2.1963 -0.9605 0
M  V30 23 H -4.443 -1.1869 -0.0821 0
M  V30 24 H -3.4417 -0.8831 1.3726 0
M  V30 25 H -3.5414 0.8538 -1.0439 0
M  V30 END ATOM
M  V30 BEGIN BOND
M  V30 1 1 1 2
M  V30 2 2 2 3
M  V30 3 1 2 4
M  V30 4 1 3 5
M  V30 5 1 3 6
M  V30 6 2 4 7
M  V30 7 2 5 8
M  V30 8 2 5 9
M  V30 9 1 5 10
M  V30 10 2 6 11
M  V30 11 1 7 12
M  V30 12 1 11 13
M  V30 13 1 12 14
M  V30 14 2 13 15
M  V30 15 2 13 16
M  V30 16 1 13 17
M  V30 17 1 7 11
M  V30 18 1 14 17
M  V30 19 1 4 18
M  V30 20 1 6 19
M  V30 21 1 10 20
M  V30 22 1 10 21
M  V30 23 1 12 22
M  V30 24 1 14 23
M  V30 25 1 14 24
M  V30 26 1 17 25
M  V30 END BOND
M  V30 END CTAB
M  END
>  <Structure No>
8727

>  <LogS>
-2.63

>  <MMFF94 Energy>
-222.66

$$$$
Compound 8728
Actelion Java MolfileCreator 2.0

  0  0  0  0  0  0              0 V3000
M  V30 BEGIN CTAB
M  V30 COUNTS 56 59 0 0 0
M  V30 BEGIN ATOM
M  V30 1 O 6.4126 -0.0809 1.1341 0
M  V30 2 C 5.2644 0.0397 0.6307 0
M  V30 3 C 4.4406 -1.1544 0.4031 0
M  V30 4 C 4.7789 1.3864 0.2028 0
M  V30 5 C 3.1914 -1.076 -0.0923 0
M  V30 6 C 3.25 1.4401 0.2509 0
M  V30 7 C 2.5692 0.2619 -0.5189 0 CFG=2
M  V30 8 C 2.4786 -2.3553 -0.4586 0
M  V30 9 C 1.0275 0.2389 -0.1563 0 CFG=1
M  V30 10 C 2.8255 0.429 -2.0402 0
M  V30 11 C 1.0146 -2.3029 -0.0364 0
M  V30 12 C 0.2347 1.5508 -0.5083 0 CFG=1
M  V30 13 C 0.3021 -1.07 -0.6263 0 CFG=1
M  V30 14 O 0.3723 1.8856 -1.8631 0
M  V30 15 C -1.2709 1.4688 -0.1275 0
M  V30 16 C -1.1637 -1.0226 -0.1339 0 CFG=1
M  V30 17 C -1.9523 0.1814 -0.6647 0 CFG=1
M  V30 18 C -2.07 -2.2192 -0.3928 0
M  V30 19 C -3.3955 -0.1177 -0.118 0 CFG=2
M  V30 20 C -2.0105 0.2205 -2.2318 0
M  V30 21 C -3.5004 -1.6673 -0.235 0
M  V30 22 O -4.396 0.4604 -0.9286 0
M  V30 23 C -3.609 0.3125 1.3433 0
M  V30 24 O -3.0494 -0.2941 2.2465 0
M  V30 25 C -4.5073 1.4729 1.6945 0
M  V30 26 O -4.5532 1.6612 3.0828 0
M  V30 27 H 4.875 -2.1195 0.6367 0
M  V30 28 H 5.1923 2.1665 0.8782 0
M  V30 29 H 5.1401 1.5962 -0.8259 0
M  V30 30 H 2.9301 2.419 -0.166 0
M  V30 31 H 2.9414 1.4205 1.3202 0
M  V30 32 H 2.5457 -2.5064 -1.5574 0
M  V30 33 H 2.9479 -3.2379 0.0294 0
M  V30 34 H 0.9938 0.1962 0.958 0
M  V30 35 H 3.8683 0.1433 -2.2969 0
M  V30 36 H 2.1536 -0.2115 -2.645 0
M  V30 37 H 2.7013 1.4819 -2.3659 0
M  V30 38 H 0.9554 -2.2895 1.075 0
M  V30 39 H 0.5189 -3.2316 -0.3928 0
M  V30 40 H 0.6622 2.3767 0.1052 0
M  V30 41 H 0.3323 -1.1703 -1.7274 0
M  V30 42 H 0.1299 2.8443 -1.9533 0
M  V30 43 H -1.8075 2.3676 -0.5019 0
M  V30 44 H -1.3306 1.5028 0.9813 0
M  V30 45 H -1.0941 -0.9394 0.9746 0
M  V30 46 H -1.877 -3.0337 0.3388 0
M  V30 47 H -1.9129 -2.6097 -1.4221 0
M  V30 48 H -2.6146 -0.6151 -2.642 0
M  V30 49 H -2.4748 1.1682 -2.5772 0
M  V30 50 H -1.0251 0.1571 -2.7222 0
M  V30 51 H -4.0977 -1.9547 -1.1286 0
M  V30 52 H -3.9992 -2.1238 0.6484 0
M  V30 53 H -4.2112 1.4338 -0.99 0
M  V30 54 H -4.1133 2.3936 1.2104 0
M  V30 55 H -5.5327 1.2673 1.3157 0
M  V30 56 H -5.1543 2.4361 3.2359 0
M  V30 END ATOM
M  V30 BEGIN BOND
M  V30 1 2 1 2
M  V30 2 1 2 3
M  V30 3 1 2 4
M  V30 4 2 3 5
M  V30 5 1 4 6
M  V30 6 1 5 7
M  V30 7 1 5 8
M  V30 8 1 7 9
M  V30 9 1 7 10
M  V30 10 1 8 11
M  V30 11 1 9 12
M  V30 12 1 9 13
M  V30 13 1 12 14
M  V30 14 1 12 15
M  V30 15 1 13 16
M  V30 16 1 15 17
M  V30 17 1 16 18
M  V30 18 1 17 19
M  V30 19 1 17 20
M  V30 20 1 18 21
M  V30 21 1 19 22
M  V30 22 1 19 23
M  V30 23 2 23 24
M  V30 24 1 23 25
M  V30 25 1 25 26
M  V30 26 1 6 7
M  V30 27 1 11 13
M  V30 28 1 16 17
M  V30 29 1 19 21
M  V30 30 1 3 27
M  V30 31 1 4 28
M  V30 32 1 4 29
M  V30 33 1 6 30
M  V30 34 1 6 31
M  V30 35 1 8 32
M  V30 36 1 8 33
M  V30 37 1 9 34
M  V30 38 1 10 35
M  V30 39 1 10 36
M  V30 40 1 10 37
M  V30 41 1 11 38
M  V30 42 1 11 39
M  V30 43 1 12 40
M  V30 44 1 13 41
M  V30 45 1 14 42
M  V30 46 1 15 43
M  V30 47 1 15 44
M  V30 48 1 16 45
M  V30 49 1 18 46
M  V30 50 1 18 47
M  V30 51 1 20 48
M  V30 52 1 20 49
M  V30 53 1 20 50
M  V30 54 1 21 51
M  V30 55 1 21 52
M  V30 56 1 22 53
M  V30 57 1 25 54
M  V30 58 1 25 55
M  V30 59 1 26 56
M  V30 END BOND
M  V30 BEGIN COLLECTION
M  V30 MDLV30/STEABS ATOMS=(7 7 9 12 13 16 17 19)
M  V30 END COLLECTION
M  V30 END CTAB
M  END
>  <Structure No>
8728

>  <LogS>
-3.09

>  <MMFF94 Energy>
127.53

$$$$
Compound 8729
Actelion Java MolfileCreator 2.0

  0  0  0  0  0  0              0 V3000
M  V30 BEGIN CTAB
M  V30 COUNTS 31 33 0 0 0
M  V30 BEGIN ATOM
M  V30 1 O -0.3207 -3.2108 0.0801 0
M  V30 2 C -0.7924 -2.0437 0.1497 0
M  V30 3 C 0.0054 -0.9097 -0.1114 0
M  V30 4 C -2.1329 -1.8786 0.4923 0
M  V30 5 C -0.614 0.3795 -0.0096 0
M  V30 6 C 1.3814 -1.0085 -0.4538 0
M  V30 7 C -2.6642 -0.5899 0.572 0
M  V30 8 O -1.8988 0.4662 0.3226 0
M  V30 9 C 0.1386 1.56 -0.2645 0
M  V30 10 O 2.0229 -2.2474 -0.5483 0
M  V30 11 C 2.0728 0.1768 -0.71 0
M  V30 12 C -4.099 -0.3879 0.9384 0
M  V30 13 O -0.3745 2.8673 -0.1918 0
M  V30 14 C 1.4751 1.4033 -0.6183 0
M  V30 15 C 3.0224 -2.6512 0.3803 0
M  V30 16 C 3.3718 0.4 -1.1141 0
M  V30 17 C -1.709 3.2232 0.1523 0
M  V30 18 O 2.3276 2.352 -0.9221 0
M  V30 19 C 3.477 1.7801 -1.2251 0
M  V30 20 H -2.756 -2.7421 0.6951 0
M  V30 21 H -4.2936 -0.813 1.9455 0
M  V30 22 H -4.3433 0.6954 0.9541 0
M  V30 23 H -4.7516 -0.8909 0.1941 0
M  V30 24 H 2.5935 -2.68 1.4044 0
M  V30 25 H 3.8844 -1.9548 0.3629 0
M  V30 26 H 3.378 -3.667 0.1125 0
M  V30 27 H 4.1412 -0.3303 -1.3231 0
M  V30 28 H -1.804 4.3281 0.1276 0
M  V30 29 H -1.9466 2.8761 1.18 0
M  V30 30 H -2.4227 2.7958 -0.5829 0
M  V30 31 H 4.3651 2.3215 -1.5217 0
M  V30 END ATOM
M  V30 BEGIN BOND
M  V30 1 2 1 2
M  V30 2 1 2 3
M  V30 3 1 2 4
M  V30 4 2 3 5
M  V30 5 1 3 6
M  V30 6 2 4 7
M  V30 7 1 5 8
M  V30 8 1 5 9
M  V30 9 1 6 10
M  V30 10 2 6 11
M  V30 11 1 7 12
M  V30 12 1 9 13
M  V30 13 2 9 14
M  V30 14 1 10 15
M  V30 15 1 11 16
M  V30 16 1 13 17
M  V30 17 1 14 18
M  V30 18 2 16 19
M  V30 19 1 7 8
M  V30 20 1 11 14
M  V30 21 1 18 19
M  V30 22 1 4 20
M  V30 23 1 12 21
M  V30 24 1 12 22
M  V30 25 1 12 23
M  V30 26 1 15 24
M  V30 27 1 15 25
M  V30 28 1 15 26
M  V30 29 1 16 27
M  V30 30 1 17 28
M  V30 31 1 17 29
M  V30 32 1 17 30
M  V30 33 1 19 31
M  V30 END BOND
M  V30 END CTAB
M  END
>  <Structure No>
8729

>  <LogS>
-3.021

>  <MMFF94 Energy>
61.951

$$$$
Compound 8730
Actelion Java MolfileCreator 2.0

  0  0  0  0  0  0              0 V3000
M  V30 BEGIN CTAB
M  V30 COUNTS 18 18 0 0 0
M  V30 BEGIN ATOM
M  V30 1 Cl 0.7417 -1.6693 1.9477 0
M  V30 2 C 0.8017 -1.2253 0.2112 0 CFG=1
M  V30 3 C -0.5919 -1.3481 -0.4401 0 CFG=2
M  V30 4 C 1.4358 0.1593 -0.0384 0 CFG=2
M  V30 5 Cl -0.4234 -1.586 -2.2079 0
M  V30 6 C -1.5343 -0.1564 -0.137 0 CFG=1
M  V30 7 Cl 3.049 0.2889 0.7283 0
M  V30 8 C 0.5239 1.3382 0.3626 0 CFG=1
M  V30 9 Cl -2.2802 -0.3327 1.4815 0
M  V30 10 C -0.8719 1.2359 -0.2875 0 CFG=1
M  V30 11 Cl 0.3923 1.5542 2.1383 0
M  V30 12 Cl -0.7804 1.7082 -2.0133 0
M  V30 13 H 1.4652 -1.9869 -0.2539 0
M  V30 14 H -1.0723 -2.2804 -0.0709 0
M  V30 15 H 1.6263 0.2446 -1.1305 0
M  V30 16 H -2.3931 -0.2078 -0.8413 0
M  V30 17 H 1.0037 2.2728 -0.0023 0
M  V30 18 H -1.5355 1.9948 0.1815 0
M  V30 END ATOM
M  V30 BEGIN BOND
M  V30 1 1 1 2
M  V30 2 1 2 3
M  V30 3 1 2 4
M  V30 4 1 3 5
M  V30 5 1 3 6
M  V30 6 1 4 7
M  V30 7 1 4 8
M  V30 8 1 6 9
M  V30 9 1 6 10
M  V30 10 1 8 11
M  V30 11 1 10 12
M  V30 12 1 8 10
M  V30 13 1 2 13
M  V30 14 1 3 14
M  V30 15 1 4 15
M  V30 16 1 6 16
M  V30 17 1 8 17
M  V30 18 1 10 18
M  V30 END BOND
M  V30 BEGIN COLLECTION
M  V30 MDLV30/STEABS ATOMS=(6 2 3 4 6 8 10)
M  V30 END COLLECTION
M  V30 END CTAB
M  END
>  <Structure No>
8730

>  <LogS>
-4.64

>  <MMFF94 Energy>
30.838

$$$$
Compound 8731
Actelion Java MolfileCreator 2.0

  0  0  0  0  0  0              0 V3000
M  V30 BEGIN CTAB
M  V30 COUNTS 26 27 0 0 0
M  V30 BEGIN ATOM
M  V30 1 O -1.2079 2.9008 -1.6913 0
M  V30 2 C -1.631 1.7442 -1.431 0
M  V30 3 O -2.9627 1.3642 -1.5475 0
M  V30 4 C -0.7926 0.5744 -1.0981 0 CFG=1
M  V30 5 C -3.1133 -0.0147 -1.2042 0
M  V30 6 C 0.4079 0.6637 -0.1918 0
M  V30 7 C -1.8363 -0.2944 -0.4127 0 CFG=1
M  V30 8 O 1.045 1.9089 -0.0398 0
M  V30 9 C 0.8276 -0.5115 0.3711 0
M  V30 10 C -1.2708 -1.6737 -0.2814 0
M  V30 11 C 2.1595 2.1854 0.801 0
M  V30 12 O 2.0043 -0.5562 1.1303 0
M  V30 13 C 4.0E-4 -1.7618 0.1596 0
M  V30 14 C 2.5027 -1.7292 1.7627 0
M  V30 15 H -0.4711 0.1152 -2.0616 0
M  V30 16 H -4.025 -0.1712 -0.5895 0
M  V30 17 H -3.1493 -0.632 -2.1281 0
M  V30 18 H -2.0125 0.0862 0.6232 0
M  V30 19 H -1.8648 -2.5559 -0.4824 0
M  V30 20 H 3.055 1.6342 0.4456 0
M  V30 21 H 2.3818 3.2713 0.7563 0
M  V30 22 H 1.923 1.9204 1.8532 0
M  V30 23 H 0.4245 -2.7399 0.3408 0
M  V30 24 H 2.7596 -2.4939 0.9997 0
M  V30 25 H 3.4207 -1.4724 2.3298 0
M  V30 26 H 1.7476 -2.1326 2.4701 0
M  V30 END ATOM
M  V30 BEGIN BOND
M  V30 1 2 1 2
M  V30 2 1 2 3
M  V30 3 1 2 4
M  V30 4 1 3 5
M  V30 5 1 4 6
M  V30 6 1 4 7
M  V30 7 1 6 8
M  V30 8 2 6 9
M  V30 9 1 7 10
M  V30 10 1 8 11
M  V30 11 1 9 12
M  V30 12 1 9 13
M  V30 13 1 12 14
M  V30 14 1 5 7
M  V30 15 2 10 13
M  V30 16 1 4 15
M  V30 17 1 5 16
M  V30 18 1 5 17
M  V30 19 1 7 18
M  V30 20 1 10 19
M  V30 21 1 11 20
M  V30 22 1 11 21
M  V30 23 1 11 22
M  V30 24 1 13 23
M  V30 25 1 14 24
M  V30 26 1 14 25
M  V30 27 1 14 26
M  V30 END BOND
M  V30 BEGIN COLLECTION
M  V30 MDLV30/STEABS ATOMS=(2 4 7)
M  V30 END COLLECTION
M  V30 END CTAB
M  END
>  <Structure No>
8731

>  <LogS>
-1.899

>  <MMFF94 Energy>
48.679

$$$$
Compound 8732
Actelion Java MolfileCreator 2.0

  0  0  0  0  0  0              0 V3000
M  V30 BEGIN CTAB
M  V30 COUNTS 11 10 0 0 0
M  V30 BEGIN ATOM
M  V30 1 O -0.2293 -1.5301 0.4588 0
M  V30 2 C -0.4848 -0.3445 0.1126 0
M  V30 3 O 0.5467 0.5666 -0.1306 0
M  V30 4 C -1.9027 0.1049 0.009 0
M  V30 5 C 1.9206 0.212 -0.0312 0
M  V30 6 H -1.9726 0.9898 -0.6578 0
M  V30 7 H -2.2788 0.3779 1.0168 0
M  V30 8 H -2.5313 -0.7092 -0.4092 0
M  V30 9 H 2.1567 -0.5999 -0.7511 0
M  V30 10 H 2.1533 -0.1225 1.0018 0
M  V30 11 H 2.544 1.0978 -0.2712 0
M  V30 END ATOM
M  V30 BEGIN BOND
M  V30 1 2 1 2
M  V30 2 1 2 3
M  V30 3 1 2 4
M  V30 4 1 3 5
M  V30 5 1 4 6
M  V30 6 1 4 7
M  V30 7 1 4 8
M  V30 8 1 5 9
M  V30 9 1 5 10
M  V30 10 1 5 11
M  V30 END BOND
M  V30 END CTAB
M  END
>  <Structure No>
8732

>  <LogS>
0.46

>  <MMFF94 Energy>
-8.8492

$$$$
Compound 8733
Actelion Java MolfileCreator 2.0

  0  0  0  0  0  0              0 V3000
M  V30 BEGIN CTAB
M  V30 COUNTS 20 19 0 0 0
M  V30 BEGIN ATOM
M  V30 1 O 1.4691 -1.5465 1.0823 0
M  V30 2 C 1.1732 -0.8479 0.0744 0
M  V30 3 O -0.0066 -0.0995 0.0463 0
M  V30 4 C 2.1143 -0.7803 -1.0854 0
M  V30 5 C -0.9407 -0.0964 1.1219 0
M  V30 6 C 3.0593 0.4063 -0.9393 0
M  V30 7 C -2.1203 0.8168 0.7901 0
M  V30 8 C -2.9212 0.2984 -0.4022 0
M  V30 9 H 1.5318 -0.6742 -2.0256 0
M  V30 10 H 2.7054 -1.7196 -1.1476 0
M  V30 11 H -1.3036 -1.1305 1.3118 0
M  V30 12 H -0.442 0.2793 2.0418 0
M  V30 13 H 3.7472 0.4427 -1.8101 0
M  V30 14 H 2.4834 1.3559 -0.9009 0
M  V30 15 H 3.6639 0.3059 -0.0124 0
M  V30 16 H -2.7905 0.8783 1.6747 0
M  V30 17 H -1.7463 1.8396 0.5672 0
M  V30 18 H -2.2858 0.2656 -1.3126 0
M  V30 19 H -3.7796 0.976 -0.595 0
M  V30 20 H -3.3134 -0.7192 -0.191 0
M  V30 END ATOM
M  V30 BEGIN BOND
M  V30 1 2 1 2
M  V30 2 1 2 3
M  V30 3 1 2 4
M  V30 4 1 3 5
M  V30 5 1 4 6
M  V30 6 1 5 7
M  V30 7 1 7 8
M  V30 8 1 4 9
M  V30 9 1 4 10
M  V30 10 1 5 11
M  V30 11 1 5 12
M  V30 12 1 6 13
M  V30 13 1 6 14
M  V30 14 1 6 15
M  V30 15 1 7 16
M  V30 16 1 7 17
M  V30 17 1 8 18
M  V30 18 1 8 19
M  V30 19 1 8 20
M  V30 END BOND
M  V30 END CTAB
M  END
>  <Structure No>
8733

>  <LogS>
-0.82

>  <MMFF94 Energy>
-12.553

$$$$
Compound 8734
Actelion Java MolfileCreator 2.0

  0  0  0  0  0  0              0 V3000
M  V30 BEGIN CTAB
M  V30 COUNTS 23 22 0 0 0
M  V30 BEGIN ATOM
M  V30 1 O -2.3258 -1.8603 0.0 0
M  V30 2 C -2.0451 -0.6624 -0.2786 0
M  V30 3 O -3.0503 0.3052 -0.3623 0
M  V30 4 C -0.6179 -0.2599 -0.4742 0
M  V30 5 C -4.425 3.0E-4 -0.1619 0
M  V30 6 C 0.002 0.1731 0.8603 0
M  V30 7 C 1.4265 0.7263 0.6987 0
M  V30 8 C 2.4495 -0.367 0.3579 0
M  V30 9 C 3.8676 0.1963 0.3338 0
M  V30 10 H -0.5768 0.5796 -1.2013 0
M  V30 11 H -0.0566 -1.1178 -0.9008 0
M  V30 12 H -4.5802 -0.3997 0.8623 0
M  V30 13 H -4.7622 -0.7461 -0.9118 0
M  V30 14 H -5.0248 0.9258 -0.2809 0
M  V30 15 H -0.6284 0.975 1.3046 0
M  V30 16 H 0.008 -0.6825 1.5711 0
M  V30 17 H 1.4382 1.5145 -0.0857 0
M  V30 18 H 1.7192 1.2038 1.6597 0
M  V30 19 H 2.3997 -1.1795 1.115 0
M  V30 20 H 2.228 -0.7992 -0.6404 0
M  V30 21 H 4.1381 0.6053 1.3306 0
M  V30 22 H 3.95 1.0007 -0.4278 0
M  V30 23 H 4.5843 -0.6116 0.076 0
M  V30 END ATOM
M  V30 BEGIN BOND
M  V30 1 2 1 2
M  V30 2 1 2 3
M  V30 3 1 2 4
M  V30 4 1 3 5
M  V30 5 1 4 6
M  V30 6 1 6 7
M  V30 7 1 7 8
M  V30 8 1 8 9
M  V30 9 1 4 10
M  V30 10 1 4 11
M  V30 11 1 5 12
M  V30 12 1 5 13
M  V30 13 1 5 14
M  V30 14 1 6 15
M  V30 15 1 6 16
M  V30 16 1 7 17
M  V30 17 1 7 18
M  V30 18 1 8 19
M  V30 19 1 8 20
M  V30 20 1 9 21
M  V30 21 1 9 22
M  V30 22 1 9 23
M  V30 END BOND
M  V30 END CTAB
M  END
>  <Structure No>
8734

>  <LogS>
-1.87

>  <MMFF94 Energy>
-10.835

$$$$
Compound 8735
Actelion Java MolfileCreator 2.0

  0  0  0  0  0  0              0 V3000
M  V30 BEGIN CTAB
M  V30 COUNTS 32 31 0 0 0
M  V30 BEGIN ATOM
M  V30 1 O 3.9694 -1.0884 1.7107 0
M  V30 2 C 3.7915 -0.5732 0.573 0
M  V30 3 O 4.8744 -0.0979 -0.172 0
M  V30 4 C 2.4045 -0.4237 0.0336 0
M  V30 5 C 6.217 -0.1823 0.2893 0
M  V30 6 C 1.8102 0.9258 0.4563 0
M  V30 7 C 0.4394 1.1956 -0.184 0
M  V30 8 C -0.6702 0.3061 0.3963 0
M  V30 9 C -2.0401 0.6961 -0.1719 0
M  V30 10 C -3.147 -0.207 0.3921 0
M  V30 11 C -4.5503 0.2282 -0.0569 0
M  V30 12 C -4.8063 -0.0395 -1.5396 0
M  V30 13 H 1.778 -1.2579 0.414 0
M  V30 14 H 2.4399 -0.4915 -1.075 0
M  V30 15 H 6.8926 0.2568 -0.4728 0
M  V30 16 H 6.3291 0.3833 1.2384 0
M  V30 17 H 6.4977 -1.2448 0.4499 0
M  V30 18 H 2.5021 1.7372 0.1386 0
M  V30 19 H 1.7245 0.972 1.5645 0
M  V30 20 H 0.5034 1.0522 -1.285 0
M  V30 21 H 0.1788 2.2607 0.0017 0
M  V30 22 H -0.6883 0.4126 1.5033 0
M  V30 23 H -0.4677 -0.7567 0.145 0
M  V30 24 H -2.2584 1.7549 0.0897 0
M  V30 25 H -2.0092 0.6027 -1.2785 0
M  V30 26 H -2.966 -1.262 0.0906 0
M  V30 27 H -3.1146 -0.1639 1.503 0
M  V30 28 H -5.3 -0.3416 0.5336 0
M  V30 29 H -4.704 1.3079 0.1588 0
M  V30 30 H -5.8682 0.1827 -1.7763 0
M  V30 31 H -4.1688 0.6112 -2.1728 0
M  V30 32 H -4.6063 -1.1047 -1.7827 0
M  V30 END ATOM
M  V30 BEGIN BOND
M  V30 1 2 1 2
M  V30 2 1 2 3
M  V30 3 1 2 4
M  V30 4 1 3 5
M  V30 5 1 4 6
M  V30 6 1 6 7
M  V30 7 1 7 8
M  V30 8 1 8 9
M  V30 9 1 9 10
M  V30 10 1 10 11
M  V30 11 1 11 12
M  V30 12 1 4 13
M  V30 13 1 4 14
M  V30 14 1 5 15
M  V30 15 1 5 16
M  V30 16 1 5 17
M  V30 17 1 6 18
M  V30 18 1 6 19
M  V30 19 1 7 20
M  V30 20 1 7 21
M  V30 21 1 8 22
M  V30 22 1 8 23
M  V30 23 1 9 24
M  V30 24 1 9 25
M  V30 25 1 10 26
M  V30 26 1 10 27
M  V30 27 1 11 28
M  V30 28 1 11 29
M  V30 29 1 12 30
M  V30 30 1 12 31
M  V30 31 1 12 32
M  V30 END BOND
M  V30 END CTAB
M  END
>  <Structure No>
8735

>  <LogS>
-3.38

>  <MMFF94 Energy>
-11.455

$$$$
Compound 8736
Actelion Java MolfileCreator 2.0

  0  0  0  0  0  0              0 V3000
M  V30 BEGIN CTAB
M  V30 COUNTS 29 28 0 0 0
M  V30 BEGIN ATOM
M  V30 1 O -2.4101 -1.6322 -1.0101 0
M  V30 2 C -2.6583 -0.4706 -0.5849 0
M  V30 3 O -3.9353 -0.1365 -0.1247 0
M  V30 4 C -1.5647 0.5479 -0.5259 0
M  V30 5 C -5.0159 -1.0615 -0.1259 0
M  V30 6 C -0.8659 0.5049 0.8391 0
M  V30 7 C 0.2943 1.5184 0.934 0
M  V30 8 C 1.6839 0.8804 0.7666 0
M  V30 9 C 1.9212 0.3291 -0.6486 0
M  V30 10 C 3.3892 -0.0517 -0.8939 0
M  V30 11 C 3.8256 -1.2712 -0.0825 0
M  V30 12 H -2.0032 1.5563 -0.6893 0
M  V30 13 H -0.8405 0.3553 -1.3443 0
M  V30 14 H -4.7672 -1.9372 0.5102 0
M  V30 15 H -5.9205 -0.566 0.2819 0
M  V30 16 H -5.2266 -1.3985 -1.163 0
M  V30 17 H -0.5056 -0.5261 1.051 0
M  V30 18 H -1.6178 0.7541 1.6208 0
M  V30 19 H 0.2652 1.9831 1.9441 0
M  V30 20 H 0.167 2.3486 0.2046 0
M  V30 21 H 2.4456 1.6606 0.9853 0
M  V30 22 H 1.8065 0.0701 1.5172 0
M  V30 23 H 1.6402 1.1061 -1.3927 0
M  V30 24 H 1.2795 -0.5613 -0.8216 0
M  V30 25 H 4.0527 0.8088 -0.6594 0
M  V30 26 H 3.515 -0.2876 -1.9729 0
M  V30 27 H 4.8535 -1.5651 -0.3824 0
M  V30 28 H 3.8356 -1.0375 1.0023 0
M  V30 29 H 3.1439 -2.1278 -0.2707 0
M  V30 END ATOM
M  V30 BEGIN BOND
M  V30 1 2 1 2
M  V30 2 1 2 3
M  V30 3 1 2 4
M  V30 4 1 3 5
M  V30 5 1 4 6
M  V30 6 1 6 7
M  V30 7 1 7 8
M  V30 8 1 8 9
M  V30 9 1 9 10
M  V30 10 1 10 11
M  V30 11 1 4 12
M  V30 12 1 4 13
M  V30 13 1 5 14
M  V30 14 1 5 15
M  V30 15 1 5 16
M  V30 16 1 6 17
M  V30 17 1 6 18
M  V30 18 1 7 19
M  V30 19 1 7 20
M  V30 20 1 8 21
M  V30 21 1 8 22
M  V30 22 1 9 23
M  V30 23 1 9 24
M  V30 24 1 10 25
M  V30 25 1 10 26
M  V30 26 1 11 27
M  V30 27 1 11 28
M  V30 28 1 11 29
M  V30 END BOND
M  V30 END CTAB
M  END
>  <Structure No>
8736

>  <LogS>
-3.17

>  <MMFF94 Energy>
-11.248

$$$$
Compound 8737
Actelion Java MolfileCreator 2.0

  0  0  0  0  0  0              0 V3000
M  V30 BEGIN CTAB
M  V30 COUNTS 20 19 0 0 0
M  V30 BEGIN ATOM
M  V30 1 O 0.5411 1.1598 -1.5467 0
M  V30 2 C 0.2538 0.0629 -0.9942 0
M  V30 3 O 1.257 -0.7624 -0.4741 0
M  V30 4 C -1.1778 -0.3446 -0.8536 0
M  V30 5 C 2.6399 -0.4146 -0.4789 0
M  V30 6 C -1.7345 0.1229 0.4937 0
M  V30 7 C 2.9376 0.6187 0.6014 0
M  V30 8 C -3.1939 -0.2899 0.6599 0
M  V30 9 H -1.7728 0.0965 -1.6831 0
M  V30 10 H -1.2472 -1.4515 -0.9267 0
M  V30 11 H 3.2348 -1.3286 -0.2711 0
M  V30 12 H 2.9393 -0.0275 -1.4771 0
M  V30 13 H -1.6634 1.2306 0.5646 0
M  V30 14 H -1.1382 -0.3216 1.3206 0
M  V30 15 H 2.39 1.5622 0.3968 0
M  V30 16 H 2.6302 0.2275 1.5943 0
M  V30 17 H 4.0263 0.8354 0.6209 0
M  V30 18 H -3.57 0.0618 1.6437 0
M  V30 19 H -3.8167 0.1627 -0.1407 0
M  V30 20 H -3.2892 -1.3958 0.6182 0
M  V30 END ATOM
M  V30 BEGIN BOND
M  V30 1 2 1 2
M  V30 2 1 2 3
M  V30 3 1 2 4
M  V30 4 1 3 5
M  V30 5 1 4 6
M  V30 6 1 5 7
M  V30 7 1 6 8
M  V30 8 1 4 9
M  V30 9 1 4 10
M  V30 10 1 5 11
M  V30 11 1 5 12
M  V30 12 1 6 13
M  V30 13 1 6 14
M  V30 14 1 7 15
M  V30 15 1 7 16
M  V30 16 1 7 17
M  V30 17 1 8 18
M  V30 18 1 8 19
M  V30 19 1 8 20
M  V30 END BOND
M  V30 END CTAB
M  END
>  <Structure No>
8737

>  <LogS>
-1.36

>  <MMFF94 Energy>
-11.678

$$$$
Compound 8738
Actelion Java MolfileCreator 2.0

  0  0  0  0  0  0              0 V3000
M  V30 BEGIN CTAB
M  V30 COUNTS 19 19 0 0 0
M  V30 BEGIN ATOM
M  V30 1 O 1.9786 -1.5034 -0.791 0
M  V30 2 C 1.4866 -0.4523 -0.2942 0
M  V30 3 O 2.3281 0.5877 0.116 0
M  V30 4 C 0.0206 -0.3171 -0.1441 0
M  V30 5 C 3.7443 0.5211 -4.0E-4 0
M  V30 6 C -0.8418 -1.3522 -0.5508 0
M  V30 7 C -0.5316 0.8521 0.4089 0
M  V30 8 C -2.2262 -1.218 -0.4062 0
M  V30 9 C -1.9166 0.9823 0.5518 0
M  V30 10 C -2.7675 -0.0528 0.1442 0
M  V30 11 O -4.1486 0.0663 0.282 0
M  V30 12 H 4.0329 0.4027 -1.0663 0
M  V30 13 H 4.1866 1.4606 0.3897 0
M  V30 14 H 4.1347 -0.3335 0.5918 0
M  V30 15 H -0.4482 -2.2648 -0.9803 0
M  V30 16 H 0.1044 1.6668 0.7316 0
M  V30 17 H -2.8795 -2.0213 -0.7229 0
M  V30 18 H -2.3272 1.8884 0.9793 0
M  V30 19 H -4.5715 0.8982 0.6773 0
M  V30 END ATOM
M  V30 BEGIN BOND
M  V30 1 2 1 2
M  V30 2 1 2 3
M  V30 3 1 2 4
M  V30 4 1 3 5
M  V30 5 2 4 6
M  V30 6 1 4 7
M  V30 7 1 6 8
M  V30 8 2 7 9
M  V30 9 2 8 10
M  V30 10 1 10 11
M  V30 11 1 9 10
M  V30 12 1 5 12
M  V30 13 1 5 13
M  V30 14 1 5 14
M  V30 15 1 6 15
M  V30 16 1 7 16
M  V30 17 1 8 17
M  V30 18 1 9 18
M  V30 19 1 11 19
M  V30 END BOND
M  V30 END CTAB
M  END
>  <Structure No>
8738

>  <LogS>
-1.827

>  <MMFF94 Energy>
18.594

$$$$
Compound 8739
Actelion Java MolfileCreator 2.0

  0  0  0  0  0  0              0 V3000
M  V30 BEGIN CTAB
M  V30 COUNTS 20 20 0 0 0
M  V30 BEGIN ATOM
M  V30 1 O 1.5723 -0.2357 1.1004 0
M  V30 2 C 1.6293 -0.0656 -0.1485 0
M  V30 3 O 0.4813 -0.1858 -0.9425 0
M  V30 4 N 2.8862 0.1965 -0.779 0
M  V30 5 C -0.8396 -0.165 -0.4697 0
M  V30 6 C 4.1225 0.3144 -0.016 0
M  V30 7 C -1.8198 -0.8519 -1.1983 0
M  V30 8 C -1.2171 0.5534 0.6817 0
M  V30 9 C -3.1514 -0.8512 -0.7709 0
M  V30 10 C -2.5501 0.5528 1.1057 0
M  V30 11 C -3.5157 -0.1523 0.3828 0
M  V30 12 H 2.9165 0.3115 -1.8169 0
M  V30 13 H 4.037 1.1475 0.7132 0
M  V30 14 H 4.3232 -0.6341 0.5249 0
M  V30 15 H 4.9703 0.5231 -0.702 0
M  V30 16 H -1.5461 -1.3945 -2.0942 0
M  V30 17 H -0.4956 1.1378 1.2355 0
M  V30 18 H -3.9007 -1.3911 -1.3353 0
M  V30 19 H -2.8362 1.1072 1.9905 0
M  V30 20 H -4.547 -0.1503 0.7116 0
M  V30 END ATOM
M  V30 BEGIN BOND
M  V30 1 2 1 2
M  V30 2 1 2 3
M  V30 3 1 2 4
M  V30 4 1 3 5
M  V30 5 1 4 6
M  V30 6 2 5 7
M  V30 7 1 5 8
M  V30 8 1 7 9
M  V30 9 2 8 10
M  V30 10 2 9 11
M  V30 11 1 10 11
M  V30 12 1 4 12
M  V30 13 1 6 13
M  V30 14 1 6 14
M  V30 15 1 6 15
M  V30 16 1 7 16
M  V30 17 1 8 17
M  V30 18 1 9 18
M  V30 19 1 10 19
M  V30 20 1 11 20
M  V30 END BOND
M  V30 END CTAB
M  END
>  <Structure No>
8739

>  <LogS>
-1.803

>  <MMFF94 Energy>


$$$$
Compound 8740
Actelion Java MolfileCreator 2.0

  0  0  0  0  0  0              0 V3000
M  V30 BEGIN CTAB
M  V30 COUNTS 28 28 0 0 0
M  V30 BEGIN ATOM
M  V30 1 Cl -3.3602 -2.7195 1.759 0
M  V30 2 C -2.4282 -1.4318 1.0102 0
M  V30 3 C -3.0758 -0.3345 0.4223 0
M  V30 4 C -1.0313 -1.512 1.0088 0
M  V30 5 O -4.4789 -0.2881 0.4404 0
M  V30 6 C -2.3007 0.6851 -0.1619 0
M  V30 7 C -0.2593 -0.5079 0.408 0
M  V30 8 C -5.2577 0.7647 -0.1181 0
M  V30 9 C -0.9058 0.6014 -0.1624 0
M  V30 10 N 1.1753 -0.6047 0.4411 0
M  V30 11 C 2.0344 -0.0847 -0.5897 0
M  V30 12 O 1.5579 0.1589 -1.7326 0
M  V30 13 N 3.4404 0.1303 -0.3452 0
M  V30 14 C 4.2988 0.5751 -1.4476 0
M  V30 15 C 4.0013 -0.0517 0.9971 0
M  V30 16 H -0.5449 -2.3636 1.4682 0
M  V30 17 H -2.766 1.5516 -0.6113 0
M  V30 18 H -5.0191 1.7251 0.3856 0
M  V30 19 H -5.064 0.8458 -1.2085 0
M  V30 20 H -6.3331 0.5409 0.0358 0
M  V30 21 H -0.3349 1.4159 -0.5881 0
M  V30 22 H 1.6021 -1.1708 1.2075 0
M  V30 23 H 4.2648 -0.1686 -2.2714 0
M  V30 24 H 3.9436 1.5567 -1.8265 0
M  V30 25 H 5.3563 0.6865 -1.1286 0
M  V30 26 H 3.4241 0.5491 1.7315 0
M  V30 27 H 3.9608 -1.1245 1.2788 0
M  V30 28 H 5.0606 0.2765 1.0476 0
M  V30 END ATOM
M  V30 BEGIN BOND
M  V30 1 1 1 2
M  V30 2 2 2 3
M  V30 3 1 2 4
M  V30 4 1 3 5
M  V30 5 1 3 6
M  V30 6 2 4 7
M  V30 7 1 5 8
M  V30 8 2 6 9
M  V30 9 1 7 10
M  V30 10 1 10 11
M  V30 11 2 11 12
M  V30 12 1 11 13
M  V30 13 1 13 14
M  V30 14 1 13 15
M  V30 15 1 7 9
M  V30 16 1 4 16
M  V30 17 1 6 17
M  V30 18 1 8 18
M  V30 19 1 8 19
M  V30 20 1 8 20
M  V30 21 1 9 21
M  V30 22 1 10 22
M  V30 23 1 14 23
M  V30 24 1 14 24
M  V30 25 1 14 25
M  V30 26 1 15 26
M  V30 27 1 15 27
M  V30 28 1 15 28
M  V30 END BOND
M  V30 END CTAB
M  END
>  <Structure No>
8740

>  <LogS>
-2.564

>  <MMFF94 Energy>
-31.318

$$$$
Compound 8741
Actelion Java MolfileCreator 2.0

  0  0  0  0  0  0              0 V3000
M  V30 BEGIN CTAB
M  V30 COUNTS 34 37 0 0 0
M  V30 BEGIN ATOM
M  V30 1 O 0.6489 2.2727 -2.4352 0
M  V30 2 C 0.4297 1.5531 -1.4228 0
M  V30 3 N 1.4311 0.5957 -1.0443 0
M  V30 4 C -0.8369 1.7508 -0.6756 0
M  V30 5 C 1.4755 -0.1125 0.2057 0
M  V30 6 C -1.5053 0.6936 -0.0231 0
M  V30 7 C -1.4588 3.0122 -0.7055 0
M  V30 8 C 0.3317 -0.7607 0.7035 0
M  V30 9 C 2.7026 -0.2798 0.8887 0
M  V30 10 N -2.7239 0.915 0.547 0
M  V30 11 N -0.9326 -0.6173 0.049 0
M  V30 12 C -2.6988 3.2058 -0.0985 0
M  V30 13 N 0.4241 -1.5477 1.8107 0
M  V30 14 C 2.7517 -1.0966 2.0271 0
M  V30 15 C 3.965 0.3771 0.3998 0
M  V30 16 C -3.326 2.1313 0.5256 0
M  V30 17 C -1.8159 -1.7815 -0.0417 0
M  V30 18 C 1.5933 -1.7266 2.4741 0
M  V30 19 C -2.4354 -1.9709 -1.4168 0
M  V30 20 C -1.296 -2.8706 -0.9659 0
M  V30 21 H 2.2653 0.5278 -1.6698 0
M  V30 22 H -0.9856 3.85 -1.2031 0
M  V30 23 H -3.174 4.178 -0.1214 0
M  V30 24 H 3.6806 -1.2505 2.5624 0
M  V30 25 H 4.3505 -0.1703 -0.4853 0
M  V30 26 H 3.7652 1.4339 0.1226 0
M  V30 27 H 4.7509 0.3784 1.185 0
M  V30 28 H -4.2924 2.2624 0.9938 0
M  V30 29 H -2.4095 -2.0886 0.8457 0
M  V30 30 H 1.6231 -2.3608 3.35 0
M  V30 31 H -2.1429 -1.2222 -2.1843 0
M  V30 32 H -3.4314 -2.4616 -1.4061 0
M  V30 33 H -0.3269 -2.6562 -1.4657 0
M  V30 34 H -1.6132 -3.8973 -0.6867 0
M  V30 END ATOM
M  V30 BEGIN BOND
M  V30 1 2 1 2
M  V30 2 1 2 3
M  V30 3 1 2 4
M  V30 4 1 3 5
M  V30 5 2 4 6
M  V30 6 1 4 7
M  V30 7 2 5 8
M  V30 8 1 5 9
M  V30 9 1 6 10
M  V30 10 1 6 11
M  V30 11 2 7 12
M  V30 12 1 8 13
M  V30 13 2 9 14
M  V30 14 1 9 15
M  V30 15 2 10 16
M  V30 16 1 11 17
M  V30 17 2 13 18
M  V30 18 1 17 19
M  V30 19 1 17 20
M  V30 20 1 8 11
M  V30 21 1 12 16
M  V30 22 1 14 18
M  V30 23 1 19 20
M  V30 24 1 3 21
M  V30 25 1 7 22
M  V30 26 1 12 23
M  V30 27 1 14 24
M  V30 28 1 15 25
M  V30 29 1 15 26
M  V30 30 1 15 27
M  V30 31 1 16 28
M  V30 32 1 17 29
M  V30 33 1 18 30
M  V30 34 1 19 31
M  V30 35 1 19 32
M  V30 36 1 20 33
M  V30 37 1 20 34
M  V30 END BOND
M  V30 END CTAB
M  END
>  <Structure No>
8741

>  <LogS>
-3.19

>  <MMFF94 Energy>
63.299

$$$$
Compound 8742
Actelion Java MolfileCreator 2.0

  0  0  0  0  0  0              0 V3000
M  V30 BEGIN CTAB
M  V30 COUNTS 43 44 0 0 0
M  V30 BEGIN ATOM
M  V30 1 O -2.0112 -0.5628 2.2527 0
M  V30 2 N -1.0196 0.1824 2.1197 0 CHG=1
M  V30 3 O -1.0748 1.4607 2.6229 0 CHG=-1
M  V30 4 C 0.2565 -0.4006 1.8593 0
M  V30 5 C 0.794 -0.4627 0.5472 0
M  V30 6 C 0.9871 -0.9153 2.94 0
M  V30 7 C 2.063 -1.0526 0.3692 0
M  V30 8 C 0.0645 0.0835 -0.6791 0
M  V30 9 C 2.2396 -1.4937 2.7387 0
M  V30 10 C 2.7763 -1.5627 1.455 0
M  V30 11 C -1.2131 -0.6979 -0.957 0
M  V30 12 C -0.1043 1.5951 -0.5933 0
M  V30 13 C -2.4193 -0.1165 -0.7499 0
M  V30 14 C -1.0611 -2.0986 -1.4496 0
M  V30 15 C -1.334 2.127 -0.3923 0
M  V30 16 C 1.1273 2.4268 -0.7316 0
M  V30 17 N -2.4861 1.2723 -0.3969 0
M  V30 18 C -3.7193 -0.8704 -0.872 0
M  V30 19 O -1.9838 -2.6646 -2.0973 0
M  V30 20 O 0.145 -2.7734 -1.237 0
M  V30 21 C -1.5567 3.6001 -0.1601 0
M  V30 22 O 1.0612 3.6323 -1.0974 0
M  V30 23 O 2.3778 1.8433 -0.5055 0
M  V30 24 C 0.3752 -4.1024 -1.6871 0
M  V30 25 C 3.5984 2.562 -0.6302 0
M  V30 26 H 0.5793 -0.8666 3.9422 0
M  V30 27 H 2.5068 -1.1188 -0.6162 0
M  V30 28 H 0.7 -0.0809 -1.5786 0
M  V30 29 H 2.7949 -1.889 3.5794 0
M  V30 30 H 3.7488 -2.0116 1.2999 0
M  V30 31 H -3.4222 1.6944 -0.204 0
M  V30 32 H -4.5534 -0.2959 -0.4182 0
M  V30 33 H -3.9615 -1.0376 -1.9422 0
M  V30 34 H -3.6603 -1.8394 -0.3327 0
M  V30 35 H -0.8399 3.989 0.5938 0
M  V30 36 H -1.4515 4.1548 -1.1157 0
M  V30 37 H -2.5771 3.788 0.234 0
M  V30 38 H -0.358 -4.7939 -1.2207 0
M  V30 39 H 0.2865 -4.1499 -2.793 0
M  V30 40 H 1.399 -4.4129 -1.3944 0
M  V30 41 H 3.6121 3.414 0.0819 0
M  V30 42 H 4.4447 1.8841 -0.3964 0
M  V30 43 H 3.714 2.9376 -1.6689 0
M  V30 END ATOM
M  V30 BEGIN BOND
M  V30 1 2 1 2
M  V30 2 1 2 3
M  V30 3 1 2 4
M  V30 4 2 4 5
M  V30 5 1 4 6
M  V30 6 1 5 7
M  V30 7 1 5 8
M  V30 8 2 6 9
M  V30 9 2 7 10
M  V30 10 1 8 11
M  V30 11 1 8 12
M  V30 12 2 11 13
M  V30 13 1 11 14
M  V30 14 2 12 15
M  V30 15 1 12 16
M  V30 16 1 13 17
M  V30 17 1 13 18
M  V30 18 2 14 19
M  V30 19 1 14 20
M  V30 20 1 15 21
M  V30 21 2 16 22
M  V30 22 1 16 23
M  V30 23 1 20 24
M  V30 24 1 23 25
M  V30 25 1 9 10
M  V30 26 1 15 17
M  V30 27 1 6 26
M  V30 28 1 7 27
M  V30 29 1 8 28
M  V30 30 1 9 29
M  V30 31 1 10 30
M  V30 32 1 17 31
M  V30 33 1 18 32
M  V30 34 1 18 33
M  V30 35 1 18 34
M  V30 36 1 21 35
M  V30 37 1 21 36
M  V30 38 1 21 37
M  V30 39 1 24 38
M  V30 40 1 24 39
M  V30 41 1 24 40
M  V30 42 1 25 41
M  V30 43 1 25 42
M  V30 44 1 25 43
M  V30 END BOND
M  V30 END CTAB
M  END
>  <Structure No>
8742

>  <LogS>
-4.76

>  <MMFF94 Energy>
40.778

$$$$
Compound 8743
Actelion Java MolfileCreator 2.0

  0  0  0  0  0  0              0 V3000
M  V30 BEGIN CTAB
M  V30 COUNTS 10 9 0 0 0
M  V30 BEGIN ATOM
M  V30 1 O 1.2405 -1.318 -1.2405 0
M  V30 2 N 1.2241 -0.3526 -0.4496 0 CHG=1
M  V30 3 O 2.2241 -0.2288 0.4862 0 CHG=-1
M  V30 4 C 0.0466 0.5024 -0.3677 0
M  V30 5 C -0.9714 -0.092 0.597 0
M  V30 6 H -0.4128 0.6094 -1.3744 0
M  V30 7 H 0.3451 1.5128 -0.0142 0
M  V30 8 H -1.2919 -1.0952 0.2442 0
M  V30 9 H -0.5282 -0.185 1.6111 0
M  V30 10 H -1.8619 0.569 0.6543 0
M  V30 END ATOM
M  V30 BEGIN BOND
M  V30 1 2 1 2
M  V30 2 1 2 3
M  V30 3 1 2 4
M  V30 4 1 4 5
M  V30 5 1 4 6
M  V30 6 1 4 7
M  V30 7 1 5 8
M  V30 8 1 5 9
M  V30 9 1 5 10
M  V30 END BOND
M  V30 END CTAB
M  END
>  <Structure No>
8743

>  <LogS>
-0.22

>  <MMFF94 Energy>
1.0761

$$$$
Compound 8744
Actelion Java MolfileCreator 2.0

  0  0  0  0  0  0              0 V3000
M  V30 BEGIN CTAB
M  V30 COUNTS 23 24 0 0 0
M  V30 BEGIN ATOM
M  V30 1 O 4.8901 -2.1983 -1.1394 0
M  V30 2 N 4.8931 -1.155 -0.4553 0 CHG=1
M  V30 3 O 6.0904 -0.6152 -0.0472 0 CHG=-1
M  V30 4 C 3.6586 -0.529 -0.1005 0
M  V30 5 O 2.4799 -0.9862 -0.4534 0
M  V30 6 C 3.531 0.6234 0.6493 0
M  V30 7 C 1.5689 -0.1769 0.036 0
M  V30 8 C 2.1736 0.8525 0.7383 0
M  V30 9 C 0.1278 -0.3691 -0.1549 0
M  V30 10 N -0.7211 0.4686 0.3559 0
M  V30 11 N -2.1135 0.3383 0.2078 0
M  V30 12 C -3.0638 1.2393 0.7556 0
M  V30 13 C -2.8296 -0.7129 -0.5138 0
M  V30 14 O -2.756 2.2538 1.4347 0
M  V30 15 N -4.3964 0.8741 0.4561 0
M  V30 16 C -4.2609 -0.3125 -0.316 0
M  V30 17 O -5.2456 -0.947 -0.7764 0
M  V30 18 H 4.3231 1.2228 1.0781 0
M  V30 19 H 1.6871 1.6709 1.2529 0
M  V30 20 H -0.2089 -1.2221 -0.7294 0
M  V30 21 H -2.5639 -0.6964 -1.5919 0
M  V30 22 H -2.6334 -1.7045 -0.0542 0
M  V30 23 H -5.2757 1.3623 0.7366 0
M  V30 END ATOM
M  V30 BEGIN BOND
M  V30 1 2 1 2
M  V30 2 1 2 3
M  V30 3 1 2 4
M  V30 4 1 4 5
M  V30 5 2 4 6
M  V30 6 1 5 7
M  V30 7 1 6 8
M  V30 8 1 7 9
M  V30 9 2 9 10
M  V30 10 1 10 11
M  V30 11 1 11 12
M  V30 12 1 11 13
M  V30 13 2 12 14
M  V30 14 1 12 15
M  V30 15 1 13 16
M  V30 16 2 16 17
M  V30 17 2 7 8
M  V30 18 1 15 16
M  V30 19 1 6 18
M  V30 20 1 8 19
M  V30 21 1 9 20
M  V30 22 1 13 21
M  V30 23 1 13 22
M  V30 24 1 15 23
M  V30 END BOND
M  V30 END CTAB
M  END
>  <Structure No>
8744

>  <LogS>
-3.38

>  <MMFF94 Energy>
45.153

$$$$
Compound 8745
Actelion Java MolfileCreator 2.0

  0  0  0  0  0  0              0 V3000
M  V30 BEGIN CTAB
M  V30 COUNTS 64 70 0 0 0
M  V30 BEGIN ATOM
M  V30 1 O 1.9548 3.586 2.1178 0
M  V30 2 C 1.7225 3.5109 0.8822 0
M  V30 3 N 2.6682 3.8914 -0.0995 0
M  V30 4 C 0.4311 3.0219 0.3001 0 CFG=2
M  V30 5 C 2.0446 3.6843 -1.3529 0
M  V30 6 C 0.2188 1.4988 0.4794 0 CFG=1
M  V30 7 C 0.6482 3.1523 -1.2359 0 CFG=1
M  V30 8 O 2.6177 3.9268 -2.4475 0
M  V30 9 C -1.0966 1.1393 -0.1785 0
M  V30 10 C 1.1163 0.9533 -0.5725 0
M  V30 11 C 0.5138 1.6915 -1.7171 0 CFG=1
M  V30 12 C -0.9218 1.2984 -1.5041 0
M  V30 13 C -2.4115 0.8414 0.5427 0 CFG=2
M  V30 14 C 1.8788 -0.1605 -0.5379 0
M  V30 15 O -2.9478 2.0793 0.9565 0
M  V30 16 C -2.1937 -0.0526 1.7606 0
M  V30 17 C -3.4199 0.1301 -0.367 0
M  V30 18 C 2.3475 -0.8214 -1.7839 0
M  V30 19 C 2.244 -0.7686 0.7661 0
M  V30 20 N -2.9284 0.1665 2.8894 0
M  V30 21 C -1.3296 -1.1648 1.7188 0
M  V30 22 C -3.0359 -0.9986 -1.1261 0
M  V30 23 C -4.7769 0.5243 -0.3962 0
M  V30 24 N 1.518 -0.9121 -2.8639 0
M  V30 25 C 3.6068 -1.4333 -1.8394 0
M  V30 26 C 2.8522 0.0047 1.7721 0
M  V30 27 C 2.0294 -2.1395 0.991 0
M  V30 28 C -2.8305 -0.6315 3.9869 0
M  V30 29 C -1.2163 -1.9956 2.8352 0
M  V30 30 C -3.9675 -1.6833 -1.9101 0
M  V30 31 C -5.7041 -0.1665 -1.1815 0
M  V30 32 C 1.879 -1.5619 -4.002 0
M  V30 33 C 3.9936 -2.1119 -2.9961 0
M  V30 34 C 3.2086 -0.5776 2.992 0
M  V30 35 C 2.3858 -2.7185 2.2129 0
M  V30 36 C -1.9689 -1.7299 3.9787 0
M  V30 37 C -5.3009 -1.2681 -1.9373 0
M  V30 38 C 3.1253 -2.1799 -4.086 0
M  V30 39 C 2.9733 -1.9373 3.2135 0
M  V30 40 H 3.6331 4.2552 0.0667 0
M  V30 41 H -0.4263 3.6295 0.6617 0
M  V30 42 H 0.3559 1.1216 1.514 0
M  V30 43 H -0.0843 3.8371 -1.7178 0
M  V30 44 H 0.9164 1.5041 -2.7326 0
M  V30 45 H -1.6804 1.2016 -2.2733 0
M  V30 46 H -2.3326 2.477 1.6281 0
M  V30 47 H -0.7511 -1.39 0.8343 0
M  V30 48 H -2.0104 -1.347 -1.1237 0
M  V30 49 H -5.1304 1.3633 0.1901 0
M  V30 50 H 4.2847 -1.3875 -0.9963 0
M  V30 51 H 3.0611 1.0526 1.6083 0
M  V30 52 H 1.5689 -2.755 0.2274 0
M  V30 53 H -3.429 -0.4173 4.8627 0
M  V30 54 H -0.5529 -2.8505 2.8085 0
M  V30 55 H -3.6548 -2.5407 -2.4954 0
M  V30 56 H -6.74 0.1491 -1.1989 0
M  V30 57 H 1.1946 -1.6061 -4.8381 0
M  V30 58 H 4.9636 -2.5886 -3.0459 0
M  V30 59 H 3.679 0.0238 3.7615 0
M  V30 60 H 2.2071 -3.7729 2.3845 0
M  V30 61 H -1.8927 -2.374 4.8461 0
M  V30 62 H -6.0223 -1.805 -2.5399 0
M  V30 63 H 3.4183 -2.702 -4.9874 0
M  V30 64 H 3.2507 -2.3862 4.1585 0
M  V30 END ATOM
M  V30 BEGIN BOND
M  V30 1 2 1 2
M  V30 2 1 2 3
M  V30 3 1 2 4
M  V30 4 1 3 5
M  V30 5 1 4 6
M  V30 6 1 4 7
M  V30 7 2 5 8
M  V30 8 1 6 9
M  V30 9 1 6 10
M  V30 10 1 7 11
M  V30 11 2 9 12
M  V30 12 1 9 13
M  V30 13 2 10 14
M  V30 14 1 13 15
M  V30 15 1 13 16
M  V30 16 1 13 17
M  V30 17 1 14 18
M  V30 18 1 14 19
M  V30 19 2 16 20
M  V30 20 1 16 21
M  V30 21 2 17 22
M  V30 22 1 17 23
M  V30 23 2 18 24
M  V30 24 1 18 25
M  V30 25 2 19 26
M  V30 26 1 19 27
M  V30 27 1 20 28
M  V30 28 2 21 29
M  V30 29 1 22 30
M  V30 30 2 23 31
M  V30 31 1 24 32
M  V30 32 2 25 33
M  V30 33 1 26 34
M  V30 34 2 27 35
M  V30 35 2 28 36
M  V30 36 2 30 37
M  V30 37 2 32 38
M  V30 38 2 34 39
M  V30 39 1 5 7
M  V30 40 1 10 11
M  V30 41 1 11 12
M  V30 42 1 29 36
M  V30 43 1 31 37
M  V30 44 1 33 38
M  V30 45 1 35 39
M  V30 46 1 3 40
M  V30 47 1 4 41
M  V30 48 1 6 42
M  V30 49 1 7 43
M  V30 50 1 11 44
M  V30 51 1 12 45
M  V30 52 1 15 46
M  V30 53 1 21 47
M  V30 54 1 22 48
M  V30 55 1 23 49
M  V30 56 1 25 50
M  V30 57 1 26 51
M  V30 58 1 27 52
M  V30 59 1 28 53
M  V30 60 1 29 54
M  V30 61 1 30 55
M  V30 62 1 31 56
M  V30 63 1 32 57
M  V30 64 1 33 58
M  V30 65 1 34 59
M  V30 66 1 35 60
M  V30 67 1 36 61
M  V30 68 1 37 62
M  V30 69 1 38 63
M  V30 70 1 39 64
M  V30 END BOND
M  V30 BEGIN COLLECTION
M  V30 MDLV30/STEABS ATOMS=(5 4 6 7 11 13)
M  V30 END COLLECTION
M  V30 END CTAB
M  END
>  <Structure No>
8745

>  <LogS>
-3.931

>  <MMFF94 Energy>
95.955

$$$$
Compound 8746
Actelion Java MolfileCreator 2.0

  0  0  0  0  0  0              0 V3000
M  V30 BEGIN CTAB
M  V30 COUNTS 49 52 0 0 0
M  V30 BEGIN ATOM
M  V30 1 O -6.2608 0.1622 -0.4056 0
M  V30 2 C -5.0425 -0.1192 -0.2538 0
M  V30 3 C -4.084 0.201 -1.3186 0
M  V30 4 C -4.5952 -0.8471 0.9719 0
M  V30 5 C -2.7643 -0.0163 -1.1778 0
M  V30 6 C -3.1425 -0.4976 1.3016 0
M  V30 7 C -2.1811 -0.6702 0.0851 0 CFG=1
M  V30 8 C -1.8681 0.1646 -2.3796 0
M  V30 9 O -1.9659 -2.0431 -0.155 0
M  V30 10 C -0.8005 -0.0035 0.4084 0 CFG=2
M  V30 11 C -0.5283 0.7831 -1.9844 0
M  V30 12 C 0.1324 -0.0168 -0.8472 0 CFG=1
M  V30 13 C -0.1134 -0.6258 1.667 0
M  V30 14 C 1.4953 0.5978 -0.4624 0 CFG=1
M  V30 15 C 1.3071 -0.0737 1.9321 0
M  V30 16 C 2.2 -0.1682 0.6681 0 CFG=2
M  V30 17 C 2.5583 0.7589 -1.5458 0
M  V30 18 C 3.5737 0.5779 0.7211 0 CFG=2
M  V30 19 C 2.4438 -1.6764 0.3255 0
M  V30 20 C 3.8907 0.87 -0.7787 0
M  V30 21 O 4.5788 -0.1792 1.3602 0
M  V30 22 C 3.4824 1.8668 1.4442 0
M  V30 23 C 3.4112 2.918 2.0312 0
M  V30 24 H -4.4727 0.6114 -2.2435 0
M  V30 25 H -4.7005 -1.9401 0.8063 0
M  V30 26 H -5.2411 -0.5667 1.8323 0
M  V30 27 H -3.1117 0.5557 1.6599 0
M  V30 28 H -2.8217 -1.1518 2.1401 0
M  V30 29 H -2.341 0.82 -3.1443 0
M  V30 30 H -1.6945 -0.8286 -2.8472 0
M  V30 31 H -2.8085 -2.436 -0.5025 0
M  V30 32 H -0.9957 1.0651 0.6605 0
M  V30 33 H -0.6861 1.8397 -1.6722 0
M  V30 34 H 0.1291 0.7858 -2.8802 0
M  V30 35 H 0.2744 -1.0547 -1.2137 0
M  V30 36 H -0.7173 -0.393 2.569 0
M  V30 37 H -0.0834 -1.7317 1.5885 0
M  V30 38 H 1.2751 1.6331 -0.1031 0
M  V30 39 H 1.7741 -0.6348 2.7705 0
M  V30 40 H 1.197 0.9809 2.2633 0
M  V30 41 H 2.3732 1.6722 -2.1525 0
M  V30 42 H 2.5671 -0.1267 -2.2182 0
M  V30 43 H 1.514 -2.2428 0.1351 0
M  V30 44 H 2.947 -2.1837 1.176 0
M  V30 45 H 3.0847 -1.7991 -0.5717 0
M  V30 46 H 4.6077 0.1335 -1.2015 0
M  V30 47 H 4.3391 1.8787 -0.9256 0
M  V30 48 H 4.9294 -0.8625 0.7333 0
M  V30 49 H 3.3475 3.8403 2.546 0
M  V30 END ATOM
M  V30 BEGIN BOND
M  V30 1 2 1 2
M  V30 2 1 2 3
M  V30 3 1 2 4
M  V30 4 2 3 5
M  V30 5 1 4 6
M  V30 6 1 5 7
M  V30 7 1 5 8
M  V30 8 1 7 9
M  V30 9 1 7 10
M  V30 10 1 8 11
M  V30 11 1 10 12
M  V30 12 1 10 13
M  V30 13 1 12 14
M  V30 14 1 13 15
M  V30 15 1 14 16
M  V30 16 1 14 17
M  V30 17 1 16 18
M  V30 18 1 16 19
M  V30 19 1 17 20
M  V30 20 1 18 21
M  V30 21 1 18 22
M  V30 22 3 22 23
M  V30 23 1 6 7
M  V30 24 1 11 12
M  V30 25 1 15 16
M  V30 26 1 18 20
M  V30 27 1 3 24
M  V30 28 1 4 25
M  V30 29 1 4 26
M  V30 30 1 6 27
M  V30 31 1 6 28
M  V30 32 1 8 29
M  V30 33 1 8 30
M  V30 34 1 9 31
M  V30 35 1 10 32
M  V30 36 1 11 33
M  V30 37 1 11 34
M  V30 38 1 12 35
M  V30 39 1 13 36
M  V30 40 1 13 37
M  V30 41 1 14 38
M  V30 42 1 15 39
M  V30 43 1 15 40
M  V30 44 1 17 41
M  V30 45 1 17 42
M  V30 46 1 19 43
M  V30 47 1 19 44
M  V30 48 1 19 45
M  V30 49 1 20 46
M  V30 50 1 20 47
M  V30 51 1 21 48
M  V30 52 1 23 49
M  V30 END BOND
M  V30 BEGIN COLLECTION
M  V30 MDLV30/STEABS ATOMS=(6 7 10 12 14 16 18)
M  V30 END COLLECTION
M  V30 END CTAB
M  END
>  <Structure No>
8746

>  <LogS>
-4.57

>  <MMFF94 Energy>
55.815

$$$$
Compound 8747
Actelion Java MolfileCreator 2.0

  0  0  0  0  0  0              0 V3000
M  V30 BEGIN CTAB
M  V30 COUNTS 27 26 0 0 0
M  V30 BEGIN ATOM
M  V30 1 S -0.1602 0.8014 2.6465 0
M  V30 2 C -0.73 0.2717 1.0205 0
M  V30 3 C 0.1374 2.5181 2.1204 0
M  V30 4 N 0.123 -0.145 0.1385 0
M  V30 5 C -2.1732 0.3512 0.6956 0
M  V30 6 O 1.4717 -0.217 0.4102 0
M  V30 7 O -2.9199 1.0205 1.4613 0
M  V30 8 N -2.7527 -0.2952 -0.4605 0
M  V30 9 C 2.3727 -0.6683 -0.5516 0
M  V30 10 C -2.1476 -1.4919 -1.0554 0
M  V30 11 C -4.0349 0.1965 -0.9739 0
M  V30 12 O 1.9608 -1.0227 -1.6902 0
M  V30 13 N 3.7667 -0.726 -0.2364 0
M  V30 14 C 4.7565 -1.189 -1.2007 0
M  V30 15 H 0.5172 3.101 2.9844 0
M  V30 16 H -0.8075 2.9785 1.7639 0
M  V30 17 H 0.895 2.5427 1.3094 0
M  V30 18 H -2.8879 -2.0621 -1.6557 0
M  V30 19 H -1.7754 -2.1691 -0.2572 0
M  V30 20 H -1.3125 -1.2004 -1.7253 0
M  V30 21 H -3.9521 1.2785 -1.2104 0
M  V30 22 H -4.3341 -0.3335 -1.9029 0
M  V30 23 H -4.8281 0.0481 -0.2109 0
M  V30 24 H 4.0828 -0.4267 0.7133 0
M  V30 25 H 5.7699 -1.1514 -0.7482 0
M  V30 26 H 4.5336 -2.236 -1.496 0
M  V30 27 H 4.7401 -0.5374 -2.0995 0
M  V30 END ATOM
M  V30 BEGIN BOND
M  V30 1 1 1 2
M  V30 2 1 1 3
M  V30 3 2 2 4
M  V30 4 1 2 5
M  V30 5 1 4 6
M  V30 6 2 5 7
M  V30 7 1 5 8
M  V30 8 1 6 9
M  V30 9 1 8 10
M  V30 10 1 8 11
M  V30 11 2 9 12
M  V30 12 1 9 13
M  V30 13 1 13 14
M  V30 14 1 3 15
M  V30 15 1 3 16
M  V30 16 1 3 17
M  V30 17 1 10 18
M  V30 18 1 10 19
M  V30 19 1 10 20
M  V30 20 1 11 21
M  V30 21 1 11 22
M  V30 22 1 11 23
M  V30 23 1 13 24
M  V30 24 1 14 25
M  V30 25 1 14 26
M  V30 26 1 14 27
M  V30 END BOND
M  V30 END CTAB
M  END
>  <Structure No>
8747

>  <LogS>
0.106

>  <MMFF94 Energy>
39.314

$$$$
Compound 8748
Actelion Java MolfileCreator 2.0

  0  0  0  0  0  0              0 V3000
M  V30 BEGIN CTAB
M  V30 COUNTS 31 33 0 0 0
M  V30 BEGIN ATOM
M  V30 1 Cl -1.3086 4.4218 -0.327 0
M  V30 2 C -1.5358 2.7411 0.1211 0
M  V30 3 C -0.6273 1.7736 -0.3124 0
M  V30 4 C -2.6182 2.3725 0.9184 0
M  V30 5 C -0.7879 0.4203 0.0436 0
M  V30 6 C -2.8036 1.0353 1.2689 0
M  V30 7 C 0.2588 -0.5561 -0.3824 0
M  V30 8 C -1.9141 0.0452 0.8226 0
M  V30 9 N -0.0507 -1.7209 -0.8783 0
M  V30 10 C 1.6987 -0.2007 -0.2793 0
M  V30 11 N -2.1702 -1.3175 1.2003 0
M  V30 12 C -1.3954 -2.2586 -1.0444 0 CFG=1
M  V30 13 C 2.6282 -0.72 -1.2006 0
M  V30 14 C 2.1619 0.6353 0.755 0
M  V30 15 C -2.0284 -2.4257 0.3041 0
M  V30 16 O -2.1613 -1.4065 -1.8555 0
M  V30 17 C 3.9841 -0.3943 -1.0989 0
M  V30 18 C 3.5188 0.9575 0.8517 0
M  V30 19 O -2.441 -3.563 0.6567 0
M  V30 20 C 4.4286 0.4449 -0.0751 0
M  V30 21 H 0.2112 2.08 -0.9259 0
M  V30 22 H -3.321 3.1204 1.2631 0
M  V30 23 H -3.6565 0.7643 1.8787 0
M  V30 24 H -2.678 -1.4915 2.0977 0
M  V30 25 H -1.303 -3.2531 -1.5379 0
M  V30 26 H 2.3046 -1.3675 -2.006 0
M  V30 27 H 1.4778 1.0293 1.4961 0
M  V30 28 H -2.9786 -1.9111 -2.1072 0
M  V30 29 H 4.6906 -0.7927 -1.8153 0
M  V30 30 H 3.8655 1.6018 1.6495 0
M  V30 31 H 5.4787 0.6953 0.002 0
M  V30 END ATOM
M  V30 BEGIN BOND
M  V30 1 1 1 2
M  V30 2 2 2 3
M  V30 3 1 2 4
M  V30 4 1 3 5
M  V30 5 2 4 6
M  V30 6 1 5 7
M  V30 7 2 5 8
M  V30 8 2 7 9
M  V30 9 1 7 10
M  V30 10 1 8 11
M  V30 11 1 9 12
M  V30 12 2 10 13
M  V30 13 1 10 14
M  V30 14 1 11 15
M  V30 15 1 12 16
M  V30 16 1 13 17
M  V30 17 2 14 18
M  V30 18 2 15 19
M  V30 19 2 17 20
M  V30 20 1 6 8
M  V30 21 1 12 15
M  V30 22 1 18 20
M  V30 23 1 3 21
M  V30 24 1 4 22
M  V30 25 1 6 23
M  V30 26 1 11 24
M  V30 27 1 12 25
M  V30 28 1 13 26
M  V30 29 1 14 27
M  V30 30 1 16 28
M  V30 31 1 17 29
M  V30 32 1 18 30
M  V30 33 1 20 31
M  V30 END BOND
M  V30 BEGIN COLLECTION
M  V30 MDLV30/STEABS ATOMS=(1 12)
M  V30 END COLLECTION
M  V30 END CTAB
M  END
>  <Structure No>
8748

>  <LogS>
-3.952

>  <MMFF94 Energy>
95.771

$$$$
Compound 8749
Actelion Java MolfileCreator 2.0

  0  0  0  0  0  0              0 V3000
M  V30 BEGIN CTAB
M  V30 COUNTS 44 46 0 0 0
M  V30 BEGIN ATOM
M  V30 1 Cl -2.4166 -5.1608 0.805 0
M  V30 2 C -2.2458 -3.4155 0.8171 0
M  V30 3 C -1.97 -2.747 2.0145 0
M  V30 4 C -2.3811 -2.6911 -0.3712 0
M  V30 5 C -1.8296 -1.3565 2.0246 0
M  V30 6 C -2.237 -1.3004 -0.3649 0
M  V30 7 C -1.9598 -0.6208 0.8332 0
M  V30 8 C -1.7392 0.8736 0.8344 0
M  V30 9 N -0.4121 1.2214 0.2929 0
M  V30 10 C 0.7428 0.5 0.7561 0
M  V30 11 C -0.2255 2.3683 -0.6204 0
M  V30 12 O 0.8886 0.285 1.9905 0
M  V30 13 N 1.7106 0.0046 -0.1823 0
M  V30 14 C -0.8435 2.1123 -1.998 0
M  V30 15 C -0.8608 3.66 -0.0798 0
M  V30 16 C 2.5831 -1.104 0.0875 0
M  V30 17 C -1.5071 3.4173 -2.4014 0
M  V30 18 C -1.9107 4.0811 -1.0979 0
M  V30 19 C 3.8296 -1.1717 -0.5537 0
M  V30 20 C 2.1861 -2.1614 0.9284 0
M  V30 21 C 4.6817 -2.2573 -0.3304 0
M  V30 22 C 3.041 -3.2448 1.1487 0
M  V30 23 C 4.2895 -3.2912 0.5234 0
M  V30 24 H -1.8611 -3.3037 2.9372 0
M  V30 25 H -2.5942 -3.2042 -1.3009 0
M  V30 26 H -1.6016 -0.8563 2.9584 0
M  V30 27 H -2.3382 -0.7592 -1.2949 0
M  V30 28 H -2.5451 1.3576 0.2434 0
M  V30 29 H -1.8208 1.2705 1.8693 0
M  V30 30 H 0.8608 2.5703 -0.7614 0
M  V30 31 H 1.7688 0.4512 -1.1242 0
M  V30 32 H -1.6143 1.3177 -1.956 0
M  V30 33 H -0.0692 1.8144 -2.7378 0
M  V30 34 H -0.0856 4.4545 -0.0058 0
M  V30 35 H -1.3143 3.5375 0.9265 0
M  V30 36 H -0.7727 4.0605 -2.9346 0
M  V30 37 H -2.3873 3.242 -3.0573 0
M  V30 38 H -1.9553 5.1863 -1.2046 0
M  V30 39 H -2.9087 3.7041 -0.7834 0
M  V30 40 H 4.1431 -0.3781 -1.22 0
M  V30 41 H 1.2092 -2.1657 1.3931 0
M  V30 42 H 5.6451 -2.2986 -0.8215 0
M  V30 43 H 2.7312 -4.0544 1.7967 0
M  V30 44 H 4.9488 -4.1324 0.6933 0
M  V30 END ATOM
M  V30 BEGIN BOND
M  V30 1 1 1 2
M  V30 2 2 2 3
M  V30 3 1 2 4
M  V30 4 1 3 5
M  V30 5 2 4 6
M  V30 6 2 5 7
M  V30 7 1 7 8
M  V30 8 1 8 9
M  V30 9 1 9 10
M  V30 10 1 9 11
M  V30 11 2 10 12
M  V30 12 1 10 13
M  V30 13 1 11 14
M  V30 14 1 11 15
M  V30 15 1 13 16
M  V30 16 1 14 17
M  V30 17 1 15 18
M  V30 18 2 16 19
M  V30 19 1 16 20
M  V30 20 1 19 21
M  V30 21 2 20 22
M  V30 22 2 21 23
M  V30 23 1 6 7
M  V30 24 1 17 18
M  V30 25 1 22 23
M  V30 26 1 3 24
M  V30 27 1 4 25
M  V30 28 1 5 26
M  V30 29 1 6 27
M  V30 30 1 8 28
M  V30 31 1 8 29
M  V30 32 1 11 30
M  V30 33 1 13 31
M  V30 34 1 14 32
M  V30 35 1 14 33
M  V30 36 1 15 34
M  V30 37 1 15 35
M  V30 38 1 17 36
M  V30 39 1 17 37
M  V30 40 1 18 38
M  V30 41 1 18 39
M  V30 42 1 19 40
M  V30 43 1 20 41
M  V30 44 1 21 42
M  V30 45 1 22 43
M  V30 46 1 23 44
M  V30 END BOND
M  V30 END CTAB
M  END
>  <Structure No>
8749

>  <LogS>
-5.915

>  <MMFF94 Energy>
-21.239

$$$$
Compound 8750
Actelion Java MolfileCreator 2.0

  0  0  0  0  0  0              0 V3000
M  V30 BEGIN CTAB
M  V30 COUNTS 18 19 0 0 0
M  V30 BEGIN ATOM
M  V30 1 O -2.0285 1.7849 1.2979 0
M  V30 2 C -1.5595 0.9438 0.4858 0
M  V30 3 N -1.9185 0.9264 -0.8799 0
M  V30 4 C -0.6108 -0.1498 0.8664 0 CFG=2
M  V30 5 C -1.2471 -0.177 -1.451 0
M  V30 6 C 0.633 0.4347 1.4874 0
M  V30 7 C -0.3946 -0.926 -0.4745 0 CFG=1
M  V30 8 O -1.3903 -0.5051 -2.6588 0
M  V30 9 C 1.84 0.3107 0.9378 0
M  V30 10 C 1.029 -0.9866 -0.9682 0
M  V30 11 C 2.0427 -0.4164 -0.3185 0
M  V30 12 H -2.5815 1.5737 -1.3615 0
M  V30 13 H -1.1036 -0.8147 1.6086 0
M  V30 14 H 0.5381 0.9782 2.4198 0
M  V30 15 H -0.7839 -1.9624 -0.374 0
M  V30 16 H 2.6966 0.7538 1.4298 0
M  V30 17 H 1.2334 -1.5165 -1.8907 0
M  V30 18 H 3.0439 -0.4923 -0.7232 0
M  V30 END ATOM
M  V30 BEGIN BOND
M  V30 1 2 1 2
M  V30 2 1 2 3
M  V30 3 1 2 4
M  V30 4 1 3 5
M  V30 5 1 4 6
M  V30 6 1 4 7
M  V30 7 2 5 8
M  V30 8 2 6 9
M  V30 9 1 7 10
M  V30 10 1 9 11
M  V30 11 1 5 7
M  V30 12 2 10 11
M  V30 13 1 3 12
M  V30 14 1 4 13
M  V30 15 1 6 14
M  V30 16 1 7 15
M  V30 17 1 9 16
M  V30 18 1 10 17
M  V30 19 1 11 18
M  V30 END BOND
M  V30 BEGIN COLLECTION
M  V30 MDLV30/STEABS ATOMS=(2 4 7)
M  V30 END COLLECTION
M  V30 END CTAB
M  END
>  <Structure No>
8750

>  <LogS>
-2.932

>  <MMFF94 Energy>
-14.43

$$$$
Compound 8751
Actelion Java MolfileCreator 2.0

  0  0  0  0  0  0              0 V3000
M  V30 BEGIN CTAB
M  V30 COUNTS 36 40 0 0 0
M  V30 BEGIN ATOM
M  V30 1 C -0.7275 -0.6466 -0.3233 0
M  V30 2 C 0.7094 -0.6997 -0.3573 0
M  V30 3 C -1.3873 0.473 0.2741 0
M  V30 4 C -1.5295 -1.6783 -0.8677 0
M  V30 5 C 1.4774 0.3673 0.206 0
M  V30 6 C 1.4064 -1.7867 -0.9375 0
M  V30 7 C -2.8205 0.5293 0.3099 0
M  V30 8 C -0.5946 1.5001 0.8163 0
M  V30 9 C -2.9149 -1.6206 -0.8313 0
M  V30 10 C 2.9109 0.3177 0.1737 0
M  V30 11 C 0.7892 1.449 0.7834 0
M  V30 12 C 2.7923 -1.8313 -0.967 0
M  V30 13 C -3.5688 -0.5374 -0.2533 0
M  V30 14 C -3.5467 1.6066 0.8851 0
M  V30 15 C 3.5507 -0.8003 -0.4226 0
M  V30 16 C 3.7408 1.3375 0.7118 0
M  V30 17 C -4.9734 -0.5157 -0.2359 0
M  V30 18 C -4.9437 1.6114 0.8936 0
M  V30 19 C 4.9523 -0.8822 -0.4719 0
M  V30 20 C 5.1332 1.2393 0.6539 0
M  V30 21 C -5.6549 0.5547 0.3353 0
M  V30 22 C 5.7371 0.134 0.0645 0
M  V30 23 H -1.1256 -2.5573 -1.3362 0
M  V30 24 H 0.9168 -2.6327 -1.3848 0
M  V30 25 H -1.0132 2.375 1.2826 0
M  V30 26 H -3.4822 -2.4377 -1.2629 0
M  V30 27 H 1.2926 2.2899 1.2278 0
M  V30 28 H 3.2766 -2.6873 -1.4237 0
M  V30 29 H -3.0745 2.4612 1.337 0
M  V30 30 H 3.3549 2.2239 1.1842 0
M  V30 31 H -5.5457 -1.3297 -0.6658 0
M  V30 32 H -5.4778 2.4422 1.337 0
M  V30 33 H 5.4419 -1.7354 -0.927 0
M  V30 34 H 5.7474 2.0278 1.0701 0
M  V30 35 H -6.7373 0.5651 0.3454 0
M  V30 36 H 6.8165 0.0647 0.0232 0
M  V30 END ATOM
M  V30 BEGIN BOND
M  V30 1 2 1 2
M  V30 2 1 1 3
M  V30 3 1 1 4
M  V30 4 1 2 5
M  V30 5 1 2 6
M  V30 6 1 3 7
M  V30 7 2 3 8
M  V30 8 2 4 9
M  V30 9 1 5 10
M  V30 10 2 5 11
M  V30 11 2 6 12
M  V30 12 1 7 13
M  V30 13 2 7 14
M  V30 14 1 10 15
M  V30 15 2 10 16
M  V30 16 2 13 17
M  V30 17 1 14 18
M  V30 18 2 15 19
M  V30 19 1 16 20
M  V30 20 1 17 21
M  V30 21 1 19 22
M  V30 22 1 8 11
M  V30 23 1 9 13
M  V30 24 1 12 15
M  V30 25 2 18 21
M  V30 26 2 20 22
M  V30 27 1 4 23
M  V30 28 1 6 24
M  V30 29 1 8 25
M  V30 30 1 9 26
M  V30 31 1 11 27
M  V30 32 1 12 28
M  V30 33 1 14 29
M  V30 34 1 16 30
M  V30 35 1 17 31
M  V30 36 1 18 32
M  V30 37 1 19 33
M  V30 38 1 20 34
M  V30 39 1 21 35
M  V30 40 1 22 36
M  V30 END BOND
M  V30 END CTAB
M  END
>  <Structure No>
8751

>  <LogS>
-7.87

>  <MMFF94 Energy>
97.164

$$$$
Compound 8752
Actelion Java MolfileCreator 2.0

  0  0  0  0  0  0              0 V3000
M  V30 BEGIN CTAB
M  V30 COUNTS 54 57 0 0 0
M  V30 BEGIN ATOM
M  V30 1 O 6.2513 2.1075 -0.0809 0
M  V30 2 C 5.2123 1.4003 -0.1564 0
M  V30 3 C 4.5803 0.8878 1.0576 0
M  V30 4 C 4.6185 1.1028 -1.4564 0
M  V30 5 C 3.4874 0.1102 0.9903 0
M  V30 6 C 3.5361 0.329 -1.5466 0
M  V30 7 C 2.8788 -0.3528 -0.3431 0 CFG=2
M  V30 8 C 2.8217 -0.3426 2.2618 0
M  V30 9 C 1.3329 -0.0044 -0.3263 0 CFG=1
M  V30 10 C 3.1657 -1.8666 -0.4801 0
M  V30 11 C 1.3702 0.1172 2.2492 0
M  V30 12 C 0.5263 -0.5512 -1.5381 0 CFG=1
M  V30 13 C 0.6172 -0.4012 1.0022 0 CFG=1
M  V30 14 O 0.546 -1.9539 -1.5768 0
M  V30 15 C -0.9272 -0.0418 -1.5088 0
M  V30 16 C -0.8744 0.055 1.0466 0 CFG=2
M  V30 17 C -1.7182 -0.3394 -0.1865 0 CFG=1
M  V30 18 C -1.0989 1.5686 1.2285 0
M  V30 19 C -2.964 0.6196 -0.086 0 CFG=1
M  V30 20 C -2.1311 -1.8363 -0.1356 0
M  V30 21 C -2.3819 1.9299 0.4763 0
M  V30 22 O -3.5224 0.885 -1.3546 0
M  V30 23 C -4.0595 0.1221 0.8709 0
M  V30 24 O -3.8088 -0.0117 2.0612 0
M  V30 25 C -5.4472 -0.2097 0.3737 0
M  V30 26 O -6.3002 -0.5521 1.4337 0
M  V30 27 H 4.9961 1.1746 2.0165 0
M  V30 28 H 5.0634 1.5121 -2.3552 0
M  V30 29 H 3.171 0.1099 -2.5407 0
M  V30 30 H 2.8703 -1.449 2.3431 0
M  V30 31 H 3.3207 0.0758 3.1638 0
M  V30 32 H 1.2863 1.1048 -0.3984 0
M  V30 33 H 4.2369 -2.0757 -0.2664 0
M  V30 34 H 2.974 -2.2276 -1.5126 0
M  V30 35 H 2.5539 -2.4683 0.2221 0
M  V30 36 H 0.8697 -0.2569 3.1689 0
M  V30 37 H 1.3573 1.2281 2.2834 0
M  V30 38 H 0.978 -0.1565 -2.4746 0
M  V30 39 H 0.6132 -1.5108 1.07 0
M  V30 40 H 0.2793 -2.2235 -2.4945 0
M  V30 41 H -1.4701 -0.4713 -2.3791 0
M  V30 42 H -0.8869 1.055 -1.6867 0
M  V30 43 H -1.3196 -0.4391 1.9402 0
M  V30 44 H -0.2601 2.1684 0.8193 0
M  V30 45 H -1.2025 1.8137 2.3086 0
M  V30 46 H -2.7516 -2.0996 -1.0178 0
M  V30 47 H -2.7092 -2.0754 0.7799 0
M  V30 48 H -1.2517 -2.5057 -0.1104 0
M  V30 49 H -2.131 2.6279 -0.3536 0
M  V30 50 H -3.0963 2.4649 1.142 0
M  V30 51 H -3.7624 0.0151 -1.7676 0
M  V30 52 H -5.3824 -1.0759 -0.3169 0
M  V30 53 H -5.8663 0.6545 -0.1895 0
M  V30 54 H -6.5608 0.2986 1.8748 0
M  V30 END ATOM
M  V30 BEGIN BOND
M  V30 1 2 1 2
M  V30 2 1 2 3
M  V30 3 1 2 4
M  V30 4 2 3 5
M  V30 5 2 4 6
M  V30 6 1 5 7
M  V30 7 1 5 8
M  V30 8 1 7 9
M  V30 9 1 7 10
M  V30 10 1 8 11
M  V30 11 1 9 12
M  V30 12 1 9 13
M  V30 13 1 12 14
M  V30 14 1 12 15
M  V30 15 1 13 16
M  V30 16 1 15 17
M  V30 17 1 16 18
M  V30 18 1 17 19
M  V30 19 1 17 20
M  V30 20 1 18 21
M  V30 21 1 19 22
M  V30 22 1 19 23
M  V30 23 2 23 24
M  V30 24 1 23 25
M  V30 25 1 25 26
M  V30 26 1 6 7
M  V30 27 1 11 13
M  V30 28 1 16 17
M  V30 29 1 19 21
M  V30 30 1 3 27
M  V30 31 1 4 28
M  V30 32 1 6 29
M  V30 33 1 8 30
M  V30 34 1 8 31
M  V30 35 1 9 32
M  V30 36 1 10 33
M  V30 37 1 10 34
M  V30 38 1 10 35
M  V30 39 1 11 36
M  V30 40 1 11 37
M  V30 41 1 12 38
M  V30 42 1 13 39
M  V30 43 1 14 40
M  V30 44 1 15 41
M  V30 45 1 15 42
M  V30 46 1 16 43
M  V30 47 1 18 44
M  V30 48 1 18 45
M  V30 49 1 20 46
M  V30 50 1 20 47
M  V30 51 1 20 48
M  V30 52 1 21 49
M  V30 53 1 21 50
M  V30 54 1 22 51
M  V30 55 1 25 52
M  V30 56 1 25 53
M  V30 57 1 26 54
M  V30 END BOND
M  V30 BEGIN COLLECTION
M  V30 MDLV30/STEABS ATOMS=(7 7 9 12 13 16 17 19)
M  V30 END COLLECTION
M  V30 END CTAB
M  END
>  <Structure No>
8752

>  <LogS>
-3.18

>  <MMFF94 Energy>
133.16

$$$$
Compound 8753
Actelion Java MolfileCreator 2.0

  0  0  0  0  0  0              0 V3000
M  V30 BEGIN CTAB
M  V30 COUNTS 9 8 0 0 0
M  V30 BEGIN ATOM
M  V30 1 C 0.2208 0.5152 0.2208 0
M  V30 2 C 1.3289 -0.2245 0.1417 0
M  V30 3 C -1.1042 -0.0255 -0.2187 0
M  V30 4 H 0.2805 1.5272 0.6106 0
M  V30 5 H 2.2801 0.1854 0.4654 0
M  V30 6 H 1.2961 -1.2391 -0.244 0
M  V30 7 H -1.065 -0.2966 -1.2949 0
M  V30 8 H -1.8903 0.7442 -0.0709 0
M  V30 9 H -1.3644 -0.924 0.3798 0
M  V30 END ATOM
M  V30 BEGIN BOND
M  V30 1 2 1 2
M  V30 2 1 1 3
M  V30 3 1 1 4
M  V30 4 1 2 5
M  V30 5 1 2 6
M  V30 6 1 3 7
M  V30 7 1 3 8
M  V30 8 1 3 9
M  V30 END BOND
M  V30 END CTAB
M  END
>  <Structure No>
8753

>  <LogS>
-1.08

>  <MMFF94 Energy>
6.4832

$$$$
Compound 8754
Actelion Java MolfileCreator 2.0

  0  0  0  0  0  0              0 V3000
M  V30 BEGIN CTAB
M  V30 COUNTS 14 14 0 0 0
M  V30 BEGIN ATOM
M  V30 1 O -2.3779 -1.1884 0.7129 0
M  V30 2 C -1.7713 -0.2266 0.1687 0
M  V30 3 N -2.5301 0.8563 -0.3737 0
M  V30 4 C -0.2947 -0.2262 0.0967 0
M  V30 5 N 0.3572 0.8143 -0.4917 0
M  V30 6 C 0.4625 -1.2843 0.6262 0
M  V30 7 C 1.7128 0.849 -0.5762 0
M  V30 8 N 1.8184 -1.247 0.5403 0
M  V30 9 C 2.4595 -0.2044 -0.0486 0
M  V30 10 H -2.0655 1.6709 -0.8322 0
M  V30 11 H -3.5728 0.8448 -0.3168 0
M  V30 12 H -0.0148 -2.1307 1.1025 0
M  V30 13 H 2.2053 1.688 -1.049 0
M  V30 14 H 3.5395 -0.1944 -0.1065 0
M  V30 END ATOM
M  V30 BEGIN BOND
M  V30 1 2 1 2
M  V30 2 1 2 3
M  V30 3 1 2 4
M  V30 4 2 4 5
M  V30 5 1 4 6
M  V30 6 1 5 7
M  V30 7 2 6 8
M  V30 8 2 7 9
M  V30 9 1 8 9
M  V30 10 1 3 10
M  V30 11 1 3 11
M  V30 12 1 6 12
M  V30 13 1 7 13
M  V30 14 1 9 14
M  V30 END BOND
M  V30 END CTAB
M  END
>  <Structure No>
8754

>  <LogS>
-0.667

>  <MMFF94 Energy>
67.467

$$$$
Compound 8755
Actelion Java MolfileCreator 2.0

  0  0  0  0  0  0              0 V3000
M  V30 BEGIN CTAB
M  V30 COUNTS 28 29 0 0 0
M  V30 BEGIN ATOM
M  V30 1 Cl 0.4247 -2.2952 2.8058 0
M  V30 2 C -0.3638 -1.2221 1.6486 0
M  V30 3 C 0.3639 -0.5018 0.7722 0
M  V30 4 C -1.8422 -1.1649 1.6371 0
M  V30 5 N 1.7996 -0.5676 0.8038 0
M  V30 6 C -0.3117 0.4056 -0.1905 0
M  V30 7 O -2.4986 -1.847 2.4703 0
M  V30 8 C -2.5451 -0.3164 0.6495 0
M  V30 9 C 2.5913 -0.801 -0.3699 0
M  V30 10 O 0.3774 1.1566 -0.9331 0
M  V30 11 C -1.7901 0.4564 -0.2538 0
M  V30 12 C -3.9496 -0.2683 0.6006 0
M  V30 13 O 2.0405 -1.1257 -1.457 0
M  V30 14 C 4.0827 -0.6432 -0.3191 0
M  V30 15 C -2.4498 1.2682 -1.1936 0
M  V30 16 C -4.594 0.5408 -0.3383 0
M  V30 17 C 4.5071 0.7518 -0.7855 0
M  V30 18 C -3.8458 1.3075 -1.2334 0
M  V30 19 Cl 3.9428 2.0094 0.3488 0
M  V30 20 Cl 6.2835 0.838 -0.8896 0
M  V30 21 H 2.2847 -0.502 1.727 0
M  V30 22 H -4.5483 -0.8547 1.2864 0
M  V30 23 H 4.5454 -1.4084 -0.9796 0
M  V30 24 H 4.4513 -0.8249 0.7135 0
M  V30 25 H -1.8882 1.8706 -1.8965 0
M  V30 26 H -5.6755 0.5739 -0.3717 0
M  V30 27 H 4.089 0.9604 -1.7937 0
M  V30 28 H -4.3484 1.9335 -1.9594 0
M  V30 END ATOM
M  V30 BEGIN BOND
M  V30 1 1 1 2
M  V30 2 2 2 3
M  V30 3 1 2 4
M  V30 4 1 3 5
M  V30 5 1 3 6
M  V30 6 2 4 7
M  V30 7 1 4 8
M  V30 8 1 5 9
M  V30 9 2 6 10
M  V30 10 1 6 11
M  V30 11 1 8 12
M  V30 12 2 9 13
M  V30 13 1 9 14
M  V30 14 1 11 15
M  V30 15 2 12 16
M  V30 16 1 14 17
M  V30 17 2 15 18
M  V30 18 1 17 19
M  V30 19 1 17 20
M  V30 20 2 8 11
M  V30 21 1 16 18
M  V30 22 1 5 21
M  V30 23 1 12 22
M  V30 24 1 14 23
M  V30 25 1 14 24
M  V30 26 1 15 25
M  V30 27 1 16 26
M  V30 28 1 17 27
M  V30 29 1 18 28
M  V30 END BOND
M  V30 END CTAB
M  END
>  <Structure No>
8755

>  <LogS>
-5.03

>  <MMFF94 Energy>
43.541

$$$$
Compound 8756
Actelion Java MolfileCreator 2.0

  0  0  0  0  0  0              0 V3000
M  V30 BEGIN CTAB
M  V30 COUNTS 37 39 0 0 0
M  V30 BEGIN ATOM
M  V30 1 O 2.6004 2.3564 2.6817 0
M  V30 2 C 2.3365 1.4686 1.8284 0
M  V30 3 N 2.5985 1.7028 0.447 0
M  V30 4 N 1.8124 0.2098 2.2432 0
M  V30 5 C 2.2422 0.7249 -0.5349 0
M  V30 6 C 1.4675 -0.7854 1.275 0
M  V30 7 O 2.6666 0.867 -1.7148 0
M  V30 8 C 1.2695 -0.4075 -0.1936 0
M  V30 9 O 1.2511 -1.9642 1.6693 0
M  V30 10 C -0.1927 0.0479 -0.395 0
M  V30 11 C 1.5168 -1.6371 -1.1211 0
M  V30 12 C -0.5315 1.0621 -1.2453 0
M  V30 13 C -1.3363 -0.7053 0.3008 0 CFG=2
M  V30 14 C 2.9302 -2.2292 -1.0282 0
M  V30 15 C -1.9782 1.4127 -1.5621 0
M  V30 16 C -2.509 -0.8439 -0.6589 0
M  V30 17 C -1.9055 0.1687 1.4236 0
M  V30 18 C -2.9912 0.5966 -0.7202 0 CFG=1
M  V30 19 C -2.9688 1.0434 0.7499 0
M  V30 20 H 3.0994 2.5723 0.1557 0
M  V30 21 H 1.741 -0.0103 3.2622 0
M  V30 22 H 0.7892 -2.4434 -0.8815 0
M  V30 23 H 1.3279 -1.3487 -2.179 0
M  V30 24 H 0.221 1.6093 -1.7992 0
M  V30 25 H -1.0285 -1.7029 0.675 0
M  V30 26 H 3.6974 -1.4861 -1.3265 0
M  V30 27 H 3.008 -3.0978 -1.7154 0
M  V30 28 H 3.1496 -2.5832 -4.0E-4 0
M  V30 29 H -2.138 2.5017 -1.4117 0
M  V30 30 H -2.1554 1.1977 -2.6377 0
M  V30 31 H -2.2032 -1.2421 -1.6526 0
M  V30 32 H -3.2959 -1.5039 -0.2285 0
M  V30 33 H -2.3798 -0.4758 2.1963 0
M  V30 34 H -1.1212 0.7877 1.9134 0
M  V30 35 H -4.0124 0.673 -1.1531 0
M  V30 36 H -3.9615 0.8534 1.2142 0
M  V30 37 H -2.7307 2.1241 0.8594 0
M  V30 END ATOM
M  V30 BEGIN BOND
M  V30 1 2 1 2
M  V30 2 1 2 3
M  V30 3 1 2 4
M  V30 4 1 3 5
M  V30 5 1 4 6
M  V30 6 2 5 7
M  V30 7 1 5 8
M  V30 8 2 6 9
M  V30 9 1 8 10
M  V30 10 1 8 11
M  V30 11 2 10 12
M  V30 12 1 10 13
M  V30 13 1 11 14
M  V30 14 1 12 15
M  V30 15 1 13 16
M  V30 16 1 13 17
M  V30 17 1 15 18
M  V30 18 1 17 19
M  V30 19 1 6 8
M  V30 20 1 16 18
M  V30 21 1 18 19
M  V30 22 1 3 20
M  V30 23 1 4 21
M  V30 24 1 11 22
M  V30 25 1 11 23
M  V30 26 1 12 24
M  V30 27 1 13 25
M  V30 28 1 14 26
M  V30 29 1 14 27
M  V30 30 1 14 28
M  V30 31 1 15 29
M  V30 32 1 15 30
M  V30 33 1 16 31
M  V30 34 1 16 32
M  V30 35 1 17 33
M  V30 36 1 17 34
M  V30 37 1 18 35
M  V30 38 1 19 36
M  V30 39 1 19 37
M  V30 END BOND
M  V30 BEGIN COLLECTION
M  V30 MDLV30/STEABS ATOMS=(2 13 18)
M  V30 END COLLECTION
M  V30 END CTAB
M  END
>  <Structure No>
8756

>  <LogS>
-2.696

>  <MMFF94 Energy>
-68.521

$$$$
Compound 8757
Actelion Java MolfileCreator 2.0

  0  0  0  0  0  0              0 V3000
M  V30 BEGIN CTAB
M  V30 COUNTS 33 35 0 0 0
M  V30 BEGIN ATOM
M  V30 1 O -1.2859 3.2171 -0.1606 0
M  V30 2 C -0.7848 2.0599 -0.095 0
M  V30 3 N 0.5882 1.8831 -0.4992 0
M  V30 4 C -1.6518 0.9422 0.3813 0
M  V30 5 C 1.4179 0.873 0.0972 0
M  V30 6 C 1.2143 2.9067 -1.3421 0
M  V30 7 C -1.4046 -0.4217 0.0812 0
M  V30 8 C -2.84 1.2592 1.0693 0
M  V30 9 C 1.0576 -0.4764 0.0153 0
M  V30 10 C 2.6482 1.2095 0.6854 0
M  V30 11 N -2.3238 -1.3633 0.4349 0
M  V30 12 N -0.196 -0.8499 -0.5647 0
M  V30 13 C -3.7453 0.2627 1.4274 0
M  V30 14 N 1.8998 -1.434 0.4935 0
M  V30 15 C 3.4859 0.2085 1.1777 0
M  V30 16 C -3.4722 -1.057 1.0882 0
M  V30 17 C -0.2418 -1.8398 -1.6485 0
M  V30 18 C 3.092 -1.1242 1.0665 0
M  V30 19 C -0.2061 -3.2732 -1.118 0
M  V30 20 H 2.1162 2.4988 -1.8474 0
M  V30 21 H 0.5077 3.2394 -2.1322 0
M  V30 22 H 1.5059 3.7793 -0.7203 0
M  V30 23 H -3.0779 2.2847 1.3237 0
M  V30 24 H 2.9577 2.2442 0.7599 0
M  V30 25 H -4.6578 0.5145 1.9525 0
M  V30 26 H 4.4343 0.4629 1.6327 0
M  V30 27 H -4.1693 -1.8417 1.3495 0
M  V30 28 H 0.6198 -1.6832 -2.3336 0
M  V30 29 H -1.1682 -1.6961 -2.2468 0
M  V30 30 H 3.7327 -1.9133 1.4366 0
M  V30 31 H -1.0448 -3.4591 -0.4172 0
M  V30 32 H 0.7528 -3.4794 -0.6015 0
M  V30 33 H -0.2989 -3.9808 -1.9684 0
M  V30 END ATOM
M  V30 BEGIN BOND
M  V30 1 2 1 2
M  V30 2 1 2 3
M  V30 3 1 2 4
M  V30 4 1 3 5
M  V30 5 1 3 6
M  V30 6 2 4 7
M  V30 7 1 4 8
M  V30 8 2 5 9
M  V30 9 1 5 10
M  V30 10 1 7 11
M  V30 11 1 7 12
M  V30 12 2 8 13
M  V30 13 1 9 14
M  V30 14 2 10 15
M  V30 15 2 11 16
M  V30 16 1 12 17
M  V30 17 2 14 18
M  V30 18 1 17 19
M  V30 19 1 9 12
M  V30 20 1 13 16
M  V30 21 1 15 18
M  V30 22 1 6 20
M  V30 23 1 6 21
M  V30 24 1 6 22
M  V30 25 1 8 23
M  V30 26 1 10 24
M  V30 27 1 13 25
M  V30 28 1 15 26
M  V30 29 1 16 27
M  V30 30 1 17 28
M  V30 31 1 17 29
M  V30 32 1 18 30
M  V30 33 1 19 31
M  V30 34 1 19 32
M  V30 35 1 19 33
M  V30 END BOND
M  V30 END CTAB
M  END
>  <Structure No>
8757

>  <LogS>
-2.62

>  <MMFF94 Energy>
46.567

$$$$
Compound 8758
Actelion Java MolfileCreator 2.0

  0  0  0  0  0  0              0 V3000
M  V30 BEGIN CTAB
M  V30 COUNTS 26 26 0 0 0
M  V30 BEGIN ATOM
M  V30 1 O -1.0998 0.2356 -2.0433 0
M  V30 2 C -0.5776 0.4971 -0.9243 0
M  V30 3 O -1.3118 1.1849 0.0503 0
M  V30 4 C 0.8138 0.0831 -0.6398 0
M  V30 5 C -2.6824 1.5503 -0.1065 0
M  V30 6 C 1.5757 -0.5913 -1.6111 0
M  V30 7 C 1.3934 0.3569 0.6115 0
M  V30 8 C -3.6016 0.3339 0.0487 0
M  V30 9 C 2.8896 -0.9817 -1.3354 0
M  V30 10 C 2.7075 -0.0347 0.8847 0
M  V30 11 C -3.4736 -0.3009 1.4316 0
M  V30 12 C 3.4616 -0.7054 -0.0867 0
M  V30 13 N 4.8054 -1.1054 0.1941 0
M  V30 14 H -2.9404 2.306 0.6657 0
M  V30 15 H -2.8403 2.0206 -1.1014 0
M  V30 16 H 1.1577 -0.8174 -2.5841 0
M  V30 17 H 0.8328 0.8726 1.381 0
M  V30 18 H -3.3623 -0.4239 -0.7271 0
M  V30 19 H -4.654 0.657 -0.1027 0
M  V30 20 H 3.4616 -1.4997 -2.0949 0
M  V30 21 H 3.1376 0.1843 1.8541 0
M  V30 22 H -2.4415 -0.6787 1.5915 0
M  V30 23 H -3.7203 0.4403 2.2214 0
M  V30 24 H -4.1784 -1.1549 1.5141 0
M  V30 25 H 5.2404 -0.9039 1.1222 0
M  V30 26 H 5.3754 -1.6059 -0.5237 0
M  V30 END ATOM
M  V30 BEGIN BOND
M  V30 1 2 1 2
M  V30 2 1 2 3
M  V30 3 1 2 4
M  V30 4 1 3 5
M  V30 5 2 4 6
M  V30 6 1 4 7
M  V30 7 1 5 8
M  V30 8 1 6 9
M  V30 9 2 7 10
M  V30 10 1 8 11
M  V30 11 2 9 12
M  V30 12 1 12 13
M  V30 13 1 10 12
M  V30 14 1 5 14
M  V30 15 1 5 15
M  V30 16 1 6 16
M  V30 17 1 7 17
M  V30 18 1 8 18
M  V30 19 1 8 19
M  V30 20 1 9 20
M  V30 21 1 10 21
M  V30 22 1 11 22
M  V30 23 1 11 23
M  V30 24 1 11 24
M  V30 25 1 13 25
M  V30 26 1 13 26
M  V30 END BOND
M  V30 END CTAB
M  END
>  <Structure No>
8758

>  <LogS>
-2.452

>  <MMFF94 Energy>
18.24

$$$$
Compound 8759
Actelion Java MolfileCreator 2.0

  0  0  0  0  0  0              0 V3000
M  V30 BEGIN CTAB
M  V30 COUNTS 27 29 0 0 0
M  V30 BEGIN ATOM
M  V30 1 O -0.8897 -2.6709 -0.7278 0
M  V30 2 C -0.6413 -1.5346 -0.2362 0
M  V30 3 N 0.6721 -1.2919 0.2871 0
M  V30 4 C -1.7325 -0.5211 -0.1743 0
M  V30 5 C 1.3569 -0.0792 -0.0468 0
M  V30 6 C 1.4255 -2.413 0.8554 0
M  V30 7 C -1.6138 0.7325 0.4851 0
M  V30 8 C -2.9956 -0.8668 -0.699 0
M  V30 9 C 0.8165 1.1552 0.3321 0
M  V30 10 C 2.6083 -0.1193 -0.6894 0
M  V30 11 O -0.4115 1.2422 0.9851 0
M  V30 12 N -2.7191 1.5115 0.6436 0
M  V30 13 C -4.0931 -0.0247 -0.538 0
M  V30 14 C 1.536 2.334 0.0965 0
M  V30 15 C 3.3097 1.0621 -0.943 0
M  V30 16 C -3.9377 1.1664 0.159 0
M  V30 17 C 2.7757 2.2888 -0.5454 0
M  V30 18 H 2.2474 -2.039 1.503 0
M  V30 19 H 1.8536 -3.033 0.0396 0
M  V30 20 H 0.7584 -3.044 1.4809 0
M  V30 21 H -3.1471 -1.8058 -1.2167 0
M  V30 22 H 3.04 -1.0642 -0.9929 0
M  V30 23 H -5.0609 -0.3038 -0.9343 0
M  V30 24 H 1.127 3.2881 0.4043 0
M  V30 25 H 4.2709 1.0254 -1.4393 0
M  V30 26 H -4.7834 1.8246 0.308 0
M  V30 27 H 3.3223 3.204 -0.7331 0
M  V30 END ATOM
M  V30 BEGIN BOND
M  V30 1 2 1 2
M  V30 2 1 2 3
M  V30 3 1 2 4
M  V30 4 1 3 5
M  V30 5 1 3 6
M  V30 6 2 4 7
M  V30 7 1 4 8
M  V30 8 2 5 9
M  V30 9 1 5 10
M  V30 10 1 7 11
M  V30 11 1 7 12
M  V30 12 2 8 13
M  V30 13 1 9 14
M  V30 14 2 10 15
M  V30 15 2 12 16
M  V30 16 2 14 17
M  V30 17 1 9 11
M  V30 18 1 13 16
M  V30 19 1 15 17
M  V30 20 1 6 18
M  V30 21 1 6 19
M  V30 22 1 6 20
M  V30 23 1 8 21
M  V30 24 1 10 22
M  V30 25 1 13 23
M  V30 26 1 14 24
M  V30 27 1 15 25
M  V30 28 1 16 26
M  V30 29 1 17 27
M  V30 END BOND
M  V30 END CTAB
M  END
>  <Structure No>
8759

>  <LogS>
-3.672

>  <MMFF94 Energy>
59.273

$$$$
Compound 8760
Actelion Java MolfileCreator 2.0

  0  0  0  0  0  0              0 V3000
M  V30 BEGIN CTAB
M  V30 COUNTS 33 35 0 0 0
M  V30 BEGIN ATOM
M  V30 1 O 0.7216 2.648 0.7216 0
M  V30 2 C 0.4245 1.5664 0.1417 0
M  V30 3 N -0.8827 1.4424 -0.436 0
M  V30 4 C 1.4568 0.495 0.0363 0
M  V30 5 C -1.6527 0.2585 -0.2 0
M  V30 6 C -1.5448 2.6431 -0.9529 0
M  V30 7 C 1.2753 -0.699 -0.714 0
M  V30 8 C 2.7198 0.7307 0.6248 0
M  V30 9 C -1.1805 -0.9797 -0.6473 0
M  V30 10 C -2.9165 0.3386 0.4135 0
M  V30 11 O 0.0578 -1.1018 -1.2743 0
M  V30 12 C 2.3601 -1.5625 -0.9121 0
M  V30 13 C 3.7894 -0.1539 0.4348 0
M  V30 14 C -1.978 -2.1217 -0.5093 0
M  V30 15 C -3.7039 -0.8097 0.5727 0
M  V30 16 C 3.6012 -1.3029 -0.336 0
M  V30 17 C 5.1113 0.1047 1.0969 0
M  V30 18 C -3.2304 -2.0408 0.1036 0
M  V30 19 N -4.9858 -0.7231 1.2009 0
M  V30 20 H -2.3672 2.364 -1.6463 0
M  V30 21 H -0.819 3.2669 -1.5174 0
M  V30 22 H -1.9594 3.2383 -0.1119 0
M  V30 23 H 2.8881 1.6204 1.2201 0
M  V30 24 H -3.2872 1.2927 0.7667 0
M  V30 25 H 2.2275 -2.4661 -1.4942 0
M  V30 26 H -1.62 -3.0775 -0.8707 0
M  V30 27 H 4.4129 -2.0042 -0.4854 0
M  V30 28 H 5.3116 1.1959 1.1558 0
M  V30 29 H 5.0984 -0.3171 2.1236 0
M  V30 30 H 5.9391 -0.3643 0.5234 0
M  V30 31 H -3.8308 -2.9355 0.2115 0
M  V30 32 H -5.3493 0.1913 1.5511 0
M  V30 33 H -5.5809 -1.5731 1.3209 0
M  V30 END ATOM
M  V30 BEGIN BOND
M  V30 1 2 1 2
M  V30 2 1 2 3
M  V30 3 1 2 4
M  V30 4 1 3 5
M  V30 5 1 3 6
M  V30 6 2 4 7
M  V30 7 1 4 8
M  V30 8 2 5 9
M  V30 9 1 5 10
M  V30 10 1 7 11
M  V30 11 1 7 12
M  V30 12 2 8 13
M  V30 13 1 9 14
M  V30 14 2 10 15
M  V30 15 2 12 16
M  V30 16 1 13 17
M  V30 17 2 14 18
M  V30 18 1 15 19
M  V30 19 1 9 11
M  V30 20 1 13 16
M  V30 21 1 15 18
M  V30 22 1 6 20
M  V30 23 1 6 21
M  V30 24 1 6 22
M  V30 25 1 8 23
M  V30 26 1 10 24
M  V30 27 1 12 25
M  V30 28 1 14 26
M  V30 29 1 16 27
M  V30 30 1 17 28
M  V30 31 1 17 29
M  V30 32 1 17 30
M  V30 33 1 18 31
M  V30 34 1 19 32
M  V30 35 1 19 33
M  V30 END BOND
M  V30 END CTAB
M  END
>  <Structure No>
8760

>  <LogS>
-3.928

>  <MMFF94 Energy>
59.738

$$$$
Compound 8761
Actelion Java MolfileCreator 2.0

  0  0  0  0  0  0              0 V3000
M  V30 BEGIN CTAB
M  V30 COUNTS 33 35 0 0 0
M  V30 BEGIN ATOM
M  V30 1 Cl -2.0398 -3.8375 2.6116 0
M  V30 2 C -1.8495 -2.4123 1.6113 0
M  V30 3 N -0.6164 -2.0683 1.1567 0
M  V30 4 C -2.9568 -1.6297 1.2811 0
M  V30 5 C -0.4156 -0.9688 0.3779 0
M  V30 6 C -2.7804 -0.5053 0.4744 0
M  V30 7 N 0.9044 -0.6391 -0.0649 0
M  V30 8 C -1.4993 -0.162 0.0131 0
M  V30 9 C 1.471 0.585 0.423 0
M  V30 10 C 1.7888 -1.699 -0.567 0
M  V30 11 N -1.3149 0.9334 -0.9004 0
M  V30 12 N 2.6407 0.5318 1.1212 0
M  V30 13 C 0.8288 1.8324 0.2277 0
M  V30 14 C 1.1804 -2.383 -1.7886 0
M  V30 15 C -0.3855 2.0022 -0.6211 0
M  V30 16 C -2.2483 1.0831 -2.0216 0
M  V30 17 C 3.224 1.6353 1.6526 0
M  V30 18 C 1.4318 2.9777 0.7827 0
M  V30 19 O -0.6053 3.1391 -1.1246 0
M  V30 20 C 2.6235 2.8799 1.4982 0
M  V30 21 H -3.9444 -1.894 1.6373 0
M  V30 22 H -3.6403 0.095 0.2066 0
M  V30 23 H 2.7686 -1.2692 -0.8714 0
M  V30 24 H 1.9751 -2.4472 0.2333 0
M  V30 25 H 0.9563 -1.6299 -2.5737 0
M  V30 26 H 0.2448 -2.9135 -1.513 0
M  V30 27 H 1.8988 -3.1245 -2.1967 0
M  V30 28 H -3.0923 1.74 -1.723 0
M  V30 29 H -2.6463 0.0938 -2.3345 0
M  V30 30 H -1.7294 1.5276 -2.8978 0
M  V30 31 H 4.1525 1.5433 2.1999 0
M  V30 32 H 0.9832 3.9557 0.6589 0
M  V30 33 H 3.082 3.7643 1.9215 0
M  V30 END ATOM
M  V30 BEGIN BOND
M  V30 1 1 1 2
M  V30 2 2 2 3
M  V30 3 1 2 4
M  V30 4 1 3 5
M  V30 5 2 4 6
M  V30 6 1 5 7
M  V30 7 2 5 8
M  V30 8 1 7 9
M  V30 9 1 7 10
M  V30 10 1 8 11
M  V30 11 2 9 12
M  V30 12 1 9 13
M  V30 13 1 10 14
M  V30 14 1 11 15
M  V30 15 1 11 16
M  V30 16 1 12 17
M  V30 17 2 13 18
M  V30 18 2 15 19
M  V30 19 2 17 20
M  V30 20 1 6 8
M  V30 21 1 13 15
M  V30 22 1 18 20
M  V30 23 1 4 21
M  V30 24 1 6 22
M  V30 25 1 10 23
M  V30 26 1 10 24
M  V30 27 1 14 25
M  V30 28 1 14 26
M  V30 29 1 14 27
M  V30 30 1 16 28
M  V30 31 1 16 29
M  V30 32 1 16 30
M  V30 33 1 17 31
M  V30 34 1 18 32
M  V30 35 1 20 33
M  V30 END BOND
M  V30 END CTAB
M  END
>  <Structure No>
8761

>  <LogS>
-4.114

>  <MMFF94 Energy>
39.911

$$$$
Compound 8762
Actelion Java MolfileCreator 2.0

  0  0  0  0  0  0              0 V3000
M  V30 BEGIN CTAB
M  V30 COUNTS 36 38 0 0 0
M  V30 BEGIN ATOM
M  V30 1 F -4.1646 -2.4482 0.0815 0
M  V30 2 C -2.9239 -2.2713 0.6704 0
M  V30 3 F -2.1201 -3.3309 0.2881 0
M  V30 4 F -3.0824 -2.2896 2.044 0
M  V30 5 C -2.294 -0.9579 0.2531 0
M  V30 6 C -0.9137 -0.7048 0.4547 0
M  V30 7 C -3.0953 0.0509 -0.3093 0
M  V30 8 N -0.0953 -1.6388 1.1788 0
M  V30 9 C -0.3832 0.5317 0.0501 0
M  V30 10 C -2.5236 1.2684 -0.6852 0
M  V30 11 C 1.2131 -2.0733 0.777 0
M  V30 12 N -1.1957 1.4742 -0.4985 0
M  V30 13 N 1.01 0.8194 0.2219 0
M  V30 14 C -3.3673 2.3496 -1.2821 0
M  V30 15 O 1.7008 -3.0912 1.3398 0
M  V30 16 C 2.0104 -1.3937 -0.2737 0
M  V30 17 C 1.9431 -0.0014 -0.4923 0
M  V30 18 C 1.4288 2.1494 0.6848 0
M  V30 19 C 2.945 -2.1388 -1.0147 0
M  V30 20 N 2.7738 0.5798 -1.4035 0
M  V30 21 C 0.8576 2.45 2.0684 0
M  V30 22 C 3.7714 -1.5122 -1.9464 0
M  V30 23 C 3.6731 -0.1354 -2.1262 0
M  V30 24 H -4.1586 -0.0984 -0.4522 0
M  V30 25 H -0.5319 -2.155 1.9751 0
M  V30 26 H -4.1369 2.6715 -0.5492 0
M  V30 27 H -3.8685 1.9727 -2.1985 0
M  V30 28 H -2.743 3.2275 -1.5532 0
M  V30 29 H 2.5379 2.1992 0.7573 0
M  V30 30 H 1.0973 2.9247 -0.0393 0
M  V30 31 H 3.0372 -3.2086 -0.8715 0
M  V30 32 H 1.1581 1.6558 2.7845 0
M  V30 33 H 1.248 3.425 2.4291 0
M  V30 34 H -0.2506 2.5071 2.0292 0
M  V30 35 H 4.4877 -2.0885 -2.5177 0
M  V30 36 H 4.3116 0.3668 -2.8405 0
M  V30 END ATOM
M  V30 BEGIN BOND
M  V30 1 1 1 2
M  V30 2 1 2 3
M  V30 3 1 2 4
M  V30 4 1 2 5
M  V30 5 2 5 6
M  V30 6 1 5 7
M  V30 7 1 6 8
M  V30 8 1 6 9
M  V30 9 2 7 10
M  V30 10 1 8 11
M  V30 11 2 9 12
M  V30 12 1 9 13
M  V30 13 1 10 14
M  V30 14 2 11 15
M  V30 15 1 11 16
M  V30 16 1 13 17
M  V30 17 1 13 18
M  V30 18 1 16 19
M  V30 19 1 17 20
M  V30 20 1 18 21
M  V30 21 2 19 22
M  V30 22 2 20 23
M  V30 23 1 10 12
M  V30 24 2 16 17
M  V30 25 1 22 23
M  V30 26 1 7 24
M  V30 27 1 8 25
M  V30 28 1 14 26
M  V30 29 1 14 27
M  V30 30 1 14 28
M  V30 31 1 18 29
M  V30 32 1 18 30
M  V30 33 1 19 31
M  V30 34 1 21 32
M  V30 35 1 21 33
M  V30 36 1 21 34
M  V30 37 1 22 35
M  V30 38 1 23 36
M  V30 END BOND
M  V30 END CTAB
M  END
>  <Structure No>
8762

>  <LogS>
-4.207

>  <MMFF94 Energy>
40.158

$$$$
Compound 8763
Actelion Java MolfileCreator 2.0

  0  0  0  0  0  0              0 V3000
M  V30 BEGIN CTAB
M  V30 COUNTS 36 38 0 0 0
M  V30 BEGIN ATOM
M  V30 1 O 1.7645 -2.969 -1.604 0
M  V30 2 C 1.2343 -2.0268 -0.9547 0
M  V30 3 N -0.0439 -1.5389 -1.3915 0
M  V30 4 C 1.9505 -1.4931 0.23 0
M  V30 5 C -0.9035 -0.6694 -0.6353 0
M  V30 6 C 1.8754 -0.1374 0.6126 0
M  V30 7 C 2.8187 -2.3383 0.9437 0
M  V30 8 C -0.3958 0.4972 -0.0395 0
M  V30 9 C -2.296 -0.9075 -0.5849 0
M  V30 10 N 2.6354 0.3145 1.6503 0
M  V30 11 N 1.0084 0.7798 -0.0661 0
M  V30 12 C 3.5728 -1.8441 2.0071 0
M  V30 13 N -1.2427 1.3788 0.5589 0
M  V30 14 C -3.1333 0.0264 0.0413 0
M  V30 15 C -2.902 -2.1311 -1.2174 0
M  V30 16 C 3.4697 -0.4982 2.3471 0
M  V30 17 C 1.4723 2.149 -0.3276 0
M  V30 18 C -2.5834 1.1744 0.6159 0
M  V30 19 C 1.0135 2.6266 -1.703 0
M  V30 20 C -3.4633 2.1857 1.279 0
M  V30 21 H -0.4342 -1.9738 -2.2578 0
M  V30 22 H 2.9146 -3.3837 0.6775 0
M  V30 23 H 4.2379 -2.4974 2.5568 0
M  V30 24 H -4.2047 -0.1334 0.0785 0
M  V30 25 H -3.9373 -2.3047 -0.8536 0
M  V30 26 H -2.9316 -2.004 -2.3198 0
M  V30 27 H -2.3022 -3.0308 -0.9649 0
M  V30 28 H 4.0529 -0.0975 3.1653 0
M  V30 29 H 1.0908 2.8352 0.4591 0
M  V30 30 H 2.5838 2.1882 -0.3079 0
M  V30 31 H 1.4383 3.6314 -1.9094 0
M  V30 32 H -0.0938 2.6976 -1.7424 0
M  V30 33 H 1.363 1.921 -2.4863 0
M  V30 34 H -4.0558 1.7002 2.0829 0
M  V30 35 H -2.854 2.9988 1.7279 0
M  V30 36 H -4.154 2.6281 0.5307 0
M  V30 END ATOM
M  V30 BEGIN BOND
M  V30 1 2 1 2
M  V30 2 1 2 3
M  V30 3 1 2 4
M  V30 4 1 3 5
M  V30 5 2 4 6
M  V30 6 1 4 7
M  V30 7 2 5 8
M  V30 8 1 5 9
M  V30 9 1 6 10
M  V30 10 1 6 11
M  V30 11 2 7 12
M  V30 12 1 8 13
M  V30 13 2 9 14
M  V30 14 1 9 15
M  V30 15 2 10 16
M  V30 16 1 11 17
M  V30 17 2 13 18
M  V30 18 1 17 19
M  V30 19 1 18 20
M  V30 20 1 8 11
M  V30 21 1 12 16
M  V30 22 1 14 18
M  V30 23 1 3 21
M  V30 24 1 7 22
M  V30 25 1 12 23
M  V30 26 1 14 24
M  V30 27 1 15 25
M  V30 28 1 15 26
M  V30 29 1 15 27
M  V30 30 1 16 28
M  V30 31 1 17 29
M  V30 32 1 17 30
M  V30 33 1 19 31
M  V30 34 1 19 32
M  V30 35 1 19 33
M  V30 36 1 20 34
M  V30 37 1 20 35
M  V30 38 1 20 36
M  V30 END BOND
M  V30 END CTAB
M  END
>  <Structure No>
8763

>  <LogS>
-4.554

>  <MMFF94 Energy>
38.363

$$$$
Compound 8764
Actelion Java MolfileCreator 2.0

  0  0  0  0  0  0              0 V3000
M  V30 BEGIN CTAB
M  V30 COUNTS 33 35 0 0 0
M  V30 BEGIN ATOM
M  V30 1 S 1.2159 -3.2449 -0.8104 0
M  V30 2 C 0.7039 -1.8841 -0.0461 0
M  V30 3 N -0.6034 -1.8264 0.5357 0
M  V30 4 C 1.6554 -0.8335 0.2968 0
M  V30 5 C -1.5313 -0.7401 0.2499 0
M  V30 6 C -0.9706 -2.9061 1.4639 0
M  V30 7 C 1.3419 0.4889 -0.0151 0
M  V30 8 C 2.8505 -1.1175 0.9732 0
M  V30 9 C -1.1539 0.4801 -0.4014 0
M  V30 10 C -2.8983 -0.9016 0.5772 0
M  V30 11 N 2.2124 1.4818 0.3216 0
M  V30 12 N 0.1949 0.7852 -0.8278 0
M  V30 13 C 3.7122 -0.0781 1.3247 0
M  V30 14 N -2.1178 1.4071 -0.6712 0
M  V30 15 C -3.8341 0.0861 0.29 0
M  V30 16 C 3.3701 1.2319 0.9888 0
M  V30 17 C 0.4024 1.5413 -2.0729 0
M  V30 18 C -3.4213 1.2466 -0.3428 0
M  V30 19 C 0.3909 3.0513 -1.8303 0
M  V30 20 H -1.4492 -2.4852 2.3736 0
M  V30 21 H -0.0738 -3.468 1.8044 0
M  V30 22 H -1.6626 -3.6149 0.9622 0
M  V30 23 H 3.1056 -2.1353 1.2414 0
M  V30 24 H -3.2649 -1.8064 1.0407 0
M  V30 25 H 4.6343 -0.2854 1.852 0
M  V30 26 H -4.8764 -0.0547 0.5464 0
M  V30 27 H 4.0302 2.0493 1.2466 0
M  V30 28 H -0.3903 1.2833 -2.8089 0
M  V30 29 H 1.3739 1.2544 -2.5322 0
M  V30 30 H -4.1372 2.0219 -0.5818 0
M  V30 31 H 0.4937 3.5798 -2.8012 0
M  V30 32 H 1.2371 3.3535 -1.181 0
M  V30 33 H -0.5595 3.3713 -1.3573 0
M  V30 END ATOM
M  V30 BEGIN BOND
M  V30 1 2 1 2
M  V30 2 1 2 3
M  V30 3 1 2 4
M  V30 4 1 3 5
M  V30 5 1 3 6
M  V30 6 2 4 7
M  V30 7 1 4 8
M  V30 8 2 5 9
M  V30 9 1 5 10
M  V30 10 1 7 11
M  V30 11 1 7 12
M  V30 12 2 8 13
M  V30 13 1 9 14
M  V30 14 2 10 15
M  V30 15 2 11 16
M  V30 16 1 12 17
M  V30 17 2 14 18
M  V30 18 1 17 19
M  V30 19 1 9 12
M  V30 20 1 13 16
M  V30 21 1 15 18
M  V30 22 1 6 20
M  V30 23 1 6 21
M  V30 24 1 6 22
M  V30 25 1 8 23
M  V30 26 1 10 24
M  V30 27 1 13 25
M  V30 28 1 15 26
M  V30 29 1 16 27
M  V30 30 1 17 28
M  V30 31 1 17 29
M  V30 32 1 18 30
M  V30 33 1 19 31
M  V30 34 1 19 32
M  V30 35 1 19 33
M  V30 END BOND
M  V30 END CTAB
M  END
>  <Structure No>
8764

>  <LogS>
-4.634

>  <MMFF94 Energy>
71.084

$$$$
Compound 8765
Actelion Java MolfileCreator 2.0

  0  0  0  0  0  0              0 V3000
M  V30 BEGIN CTAB
M  V30 COUNTS 34 36 0 0 0
M  V30 BEGIN ATOM
M  V30 1 S 3.643 0.3234 -0.6469 0
M  V30 2 C 2.071 0.1293 -0.18 0
M  V30 3 N 1.4743 -1.1905 -0.2555 0
M  V30 4 C 1.2994 1.3394 0.2574 0
M  V30 5 C 0.3454 -1.5475 0.5598 0
M  V30 6 C 2.0905 -2.2412 -1.0761 0
M  V30 7 C -0.1001 1.4577 0.0653 0
M  V30 8 C 1.9787 2.4511 0.8001 0
M  V30 9 C -0.8526 -0.8312 0.4441 0
M  V30 10 C 0.3999 -2.6763 1.3957 0
M  V30 11 N -0.7283 2.6314 0.3572 0
M  V30 12 N -0.8925 0.345 -0.3708 0
M  V30 13 C 1.2978 3.6307 1.0955 0
M  V30 14 C -1.9858 -1.2393 1.1673 0
M  V30 15 C -0.7288 -3.0758 2.1162 0
M  V30 16 C -0.0682 3.708 0.8507 0
M  V30 17 C -1.9911 0.544 -1.3251 0
M  V30 18 C -1.9219 -2.3592 2.0 0
M  V30 19 C -1.4623 1.0742 -2.6546 0
M  V30 20 H 2.9813 -2.6514 -0.5554 0
M  V30 21 H 1.3718 -3.0676 -1.2669 0
M  V30 22 H 2.3906 -1.8311 -2.0636 0
M  V30 23 H 3.0422 2.4161 0.9961 0
M  V30 24 H 1.3161 -3.246 1.4852 0
M  V30 25 H 1.8283 4.4812 1.5041 0
M  V30 26 H -2.9104 -0.6802 1.0975 0
M  V30 27 H -0.68 -3.9441 2.7606 0
M  V30 28 H -0.6096 4.6192 1.0677 0
M  V30 29 H -2.7366 1.2522 -0.9032 0
M  V30 30 H -2.5075 -0.4212 -1.5227 0
M  V30 31 H -2.7957 -2.6688 2.5588 0
M  V30 32 H -0.6939 0.3824 -3.0607 0
M  V30 33 H -2.2966 1.1525 -3.3832 0
M  V30 34 H -1.0137 2.0812 -2.5212 0
M  V30 END ATOM
M  V30 BEGIN BOND
M  V30 1 2 1 2
M  V30 2 1 2 3
M  V30 3 1 2 4
M  V30 4 1 3 5
M  V30 5 1 3 6
M  V30 6 2 4 7
M  V30 7 1 4 8
M  V30 8 2 5 9
M  V30 9 1 5 10
M  V30 10 1 7 11
M  V30 11 1 7 12
M  V30 12 2 8 13
M  V30 13 1 9 14
M  V30 14 2 10 15
M  V30 15 2 11 16
M  V30 16 1 12 17
M  V30 17 2 14 18
M  V30 18 1 17 19
M  V30 19 1 9 12
M  V30 20 1 13 16
M  V30 21 1 15 18
M  V30 22 1 6 20
M  V30 23 1 6 21
M  V30 24 1 6 22
M  V30 25 1 8 23
M  V30 26 1 10 24
M  V30 27 1 13 25
M  V30 28 1 14 26
M  V30 29 1 15 27
M  V30 30 1 16 28
M  V30 31 1 17 29
M  V30 32 1 17 30
M  V30 33 1 18 31
M  V30 34 1 19 32
M  V30 35 1 19 33
M  V30 36 1 19 34
M  V30 END BOND
M  V30 END CTAB
M  END
>  <Structure No>
8765

>  <LogS>
-4.706

>  <MMFF94 Energy>
81.364

$$$$
Compound 8766
Actelion Java MolfileCreator 2.0

  0  0  0  0  0  0              0 V3000
M  V30 BEGIN CTAB
M  V30 COUNTS 35 37 0 0 0
M  V30 BEGIN ATOM
M  V30 1 O 0.3198 3.3622 -0.3198 0
M  V30 2 C 0.185 2.1529 0.0173 0
M  V30 3 N -1.1079 1.5301 -0.1516 0
M  V30 4 C 1.3763 1.4396 0.5653 0
M  V30 5 C -1.5273 0.422 0.6656 0
M  V30 6 C -2.0936 2.1744 -1.0255 0
M  V30 7 C 1.5339 0.0336 0.4799 0
M  V30 8 C 2.4299 2.2052 1.1057 0
M  V30 9 C -0.7702 -0.7565 0.6888 0
M  V30 10 C -2.7416 0.4762 1.3732 0
M  V30 11 N 0.4774 -0.8032 -0.0108 0
M  V30 12 C 2.7232 -0.5629 0.9341 0
M  V30 13 C 3.6026 1.5963 1.5552 0
M  V30 14 C -1.2231 -1.8686 1.4165 0
M  V30 15 C -3.1858 -0.6314 2.0999 0
M  V30 16 C 0.7497 -1.8555 -0.9997 0
M  V30 17 C 3.7503 0.2147 1.4666 0
M  V30 18 C -2.4282 -1.8038 2.1195 0
M  V30 19 C -0.2974 -1.8421 -2.11 0
M  V30 20 H -2.8769 1.4488 -1.3343 0
M  V30 21 H -1.6026 2.5497 -1.9485 0
M  V30 22 H -2.5706 3.0234 -0.4921 0
M  V30 23 H 2.3482 3.2825 1.1815 0
M  V30 24 H -3.343 1.3762 1.3617 0
M  V30 25 H 2.8453 -1.6379 0.8918 0
M  V30 26 H 4.4003 2.1991 1.9697 0
M  V30 27 H -0.6366 -2.777 1.452 0
M  V30 28 H -4.1197 -0.5819 2.6448 0
M  V30 29 H 0.764 -2.8494 -0.5046 0
M  V30 30 H 1.7454 -1.6929 -1.4678 0
M  V30 31 H 4.6597 -0.2558 1.8172 0
M  V30 32 H -2.7727 -2.6611 2.6832 0
M  V30 33 H -1.2981 -2.0995 -1.703 0
M  V30 34 H -0.341 -0.8363 -2.5794 0
M  V30 35 H -0.0285 -2.5897 -2.8854 0
M  V30 END ATOM
M  V30 BEGIN BOND
M  V30 1 2 1 2
M  V30 2 1 2 3
M  V30 3 1 2 4
M  V30 4 1 3 5
M  V30 5 1 3 6
M  V30 6 2 4 7
M  V30 7 1 4 8
M  V30 8 2 5 9
M  V30 9 1 5 10
M  V30 10 1 7 11
M  V30 11 1 7 12
M  V30 12 2 8 13
M  V30 13 1 9 14
M  V30 14 2 10 15
M  V30 15 1 11 16
M  V30 16 2 12 17
M  V30 17 2 14 18
M  V30 18 1 16 19
M  V30 19 1 9 11
M  V30 20 1 13 17
M  V30 21 1 15 18
M  V30 22 1 6 20
M  V30 23 1 6 21
M  V30 24 1 6 22
M  V30 25 1 8 23
M  V30 26 1 10 24
M  V30 27 1 12 25
M  V30 28 1 13 26
M  V30 29 1 14 27
M  V30 30 1 15 28
M  V30 31 1 16 29
M  V30 32 1 16 30
M  V30 33 1 17 31
M  V30 34 1 18 32
M  V30 35 1 19 33
M  V30 36 1 19 34
M  V30 37 1 19 35
M  V30 END BOND
M  V30 END CTAB
M  END
>  <Structure No>
8766

>  <LogS>
-4.749

>  <MMFF94 Energy>
86.449

$$$$
Compound 8767
Actelion Java MolfileCreator 2.0

  0  0  0  0  0  0              0 V3000
M  V30 BEGIN CTAB
M  V30 COUNTS 36 38 0 0 0
M  V30 BEGIN ATOM
M  V30 1 O 1.4437 2.8087 -0.0801 0
M  V30 2 C 0.909 1.6768 0.0795 0
M  V30 3 N 1.5546 0.5082 -0.4847 0
M  V30 4 C -0.3677 1.6247 0.8353 0
M  V30 5 C 1.1454 -0.8406 -0.1623 0
M  V30 6 C 2.6592 0.7003 -1.4427 0
M  V30 7 C -1.4171 0.7517 0.4833 0
M  V30 8 C -0.6052 2.5777 1.8422 0
M  V30 9 C -0.2008 -1.2363 -0.2653 0
M  V30 10 C 2.1056 -1.8259 0.1318 0
M  V30 11 C 3.9511 1.1245 -0.7407 0
M  V30 12 N -2.6215 0.8557 1.1113 0
M  V30 13 N -1.2275 -0.2691 -0.5025 0
M  V30 14 C -1.8458 2.6461 2.4743 0
M  V30 15 N -0.54 -2.5438 -0.0917 0
M  V30 16 C 1.7239 -3.1544 0.3143 0
M  V30 17 C -2.8566 1.7719 2.085 0
M  V30 18 C -2.2114 -0.4694 -1.5736 0
M  V30 19 C 0.3814 -3.4999 0.1887 0
M  V30 20 C -3.3654 -1.3702 -1.1333 0
M  V30 21 H 2.3774 1.4731 -2.1904 0
M  V30 22 H 2.8479 -0.2357 -2.0132 0
M  V30 23 H 0.1686 3.2772 2.1337 0
M  V30 24 H 3.1525 -1.5746 0.2102 0
M  V30 25 H 4.2008 0.4351 0.0899 0
M  V30 26 H 3.8612 2.1518 -0.3331 0
M  V30 27 H 4.7871 1.1162 -1.4711 0
M  V30 28 H -2.026 3.38 3.2492 0
M  V30 29 H 2.4646 -3.9109 0.5388 0
M  V30 30 H -3.8281 1.8178 2.5583 0
M  V30 31 H -1.7124 -0.9228 -2.4576 0
M  V30 32 H -2.6194 0.5142 -1.8932 0
M  V30 33 H 0.069 -4.5272 0.3196 0
M  V30 34 H -4.0928 -1.4667 -1.9665 0
M  V30 35 H -3.8946 -0.9397 -0.2594 0
M  V30 36 H -3.0 -2.3845 -0.8755 0
M  V30 END ATOM
M  V30 BEGIN BOND
M  V30 1 2 1 2
M  V30 2 1 2 3
M  V30 3 1 2 4
M  V30 4 1 3 5
M  V30 5 1 3 6
M  V30 6 2 4 7
M  V30 7 1 4 8
M  V30 8 2 5 9
M  V30 9 1 5 10
M  V30 10 1 6 11
M  V30 11 1 7 12
M  V30 12 1 7 13
M  V30 13 2 8 14
M  V30 14 1 9 15
M  V30 15 2 10 16
M  V30 16 2 12 17
M  V30 17 1 13 18
M  V30 18 2 15 19
M  V30 19 1 18 20
M  V30 20 1 9 13
M  V30 21 1 14 17
M  V30 22 1 16 19
M  V30 23 1 6 21
M  V30 24 1 6 22
M  V30 25 1 8 23
M  V30 26 1 10 24
M  V30 27 1 11 25
M  V30 28 1 11 26
M  V30 29 1 11 27
M  V30 30 1 14 28
M  V30 31 1 16 29
M  V30 32 1 17 30
M  V30 33 1 18 31
M  V30 34 1 18 32
M  V30 35 1 19 33
M  V30 36 1 20 34
M  V30 37 1 20 35
M  V30 38 1 20 36
M  V30 END BOND
M  V30 END CTAB
M  END
>  <Structure No>
8767

>  <LogS>
-2.86

>  <MMFF94 Energy>
45.987

$$$$
Compound 8768
Actelion Java MolfileCreator 2.0

  0  0  0  0  0  0              0 V3000
M  V30 BEGIN CTAB
M  V30 COUNTS 42 44 0 0 0
M  V30 BEGIN ATOM
M  V30 1 O -3.2737 2.9539 0.1595 0
M  V30 2 C -2.4704 1.9859 0.0694 0
M  V30 3 N -1.1056 2.2002 0.4649 0
M  V30 4 C -2.9789 0.6873 -0.4429 0
M  V30 5 C -0.0032 1.3507 0.1046 0
M  V30 6 C -2.4432 -0.5506 -0.0293 0
M  V30 7 C -4.1029 0.6747 -1.2883 0
M  V30 8 C -0.0779 -0.0327 0.3271 0
M  V30 9 C 1.1979 1.9131 -0.3821 0
M  V30 10 N -3.0211 -1.7122 -0.4466 0
M  V30 11 N -1.2941 -0.6128 0.8224 0
M  V30 12 C -4.6609 -0.5326 -1.7069 0
M  V30 13 C 1.0305 -0.8487 0.0545 0
M  V30 14 C 2.3039 1.0856 -0.6309 0
M  V30 15 C 1.3227 3.3957 -0.6151 0
M  V30 16 C -4.1029 -1.7297 -1.2664 0
M  V30 17 C -1.2852 -1.5546 1.9515 0
M  V30 18 C 2.2353 -0.303 -0.4208 0
M  V30 19 C -0.5837 -0.9522 3.1667 0
M  V30 20 N 3.3806 -1.1529 -0.6873 0
M  V30 21 C 3.5336 -2.4367 0.0077 0
M  V30 22 C 4.4051 -0.7426 -1.655 0
M  V30 23 H -0.8848 3.1306 0.8866 0
M  V30 24 H -4.5531 1.6012 -1.6236 0
M  V30 25 H -5.5246 -0.5394 -2.3592 0
M  V30 26 H 0.9392 -1.9154 0.1986 0
M  V30 27 H 3.2242 1.5351 -0.9789 0
M  V30 28 H 0.4255 3.7777 -1.147 0
M  V30 29 H 2.2092 3.6367 -1.2396 0
M  V30 30 H 1.4248 3.9181 0.3591 0
M  V30 31 H -4.529 -2.6747 -1.5758 0
M  V30 32 H -0.7892 -2.5032 1.6564 0
M  V30 33 H -2.3292 -1.7987 2.2492 0
M  V30 34 H 0.4943 -0.7919 2.9554 0
M  V30 35 H -1.0532 0.0183 3.4347 0
M  V30 36 H -0.6735 -1.6447 4.03 0
M  V30 37 H 2.8217 -3.1792 -0.4093 0
M  V30 38 H 4.5628 -2.839 -0.1041 0
M  V30 39 H 3.3426 -2.304 1.094 0
M  V30 40 H 3.9215 -0.3765 -2.5857 0
M  V30 41 H 5.0357 0.0605 -1.2197 0
M  V30 42 H 5.0647 -1.5919 -1.9328 0
M  V30 END ATOM
M  V30 BEGIN BOND
M  V30 1 2 1 2
M  V30 2 1 2 3
M  V30 3 1 2 4
M  V30 4 1 3 5
M  V30 5 2 4 6
M  V30 6 1 4 7
M  V30 7 2 5 8
M  V30 8 1 5 9
M  V30 9 1 6 10
M  V30 10 1 6 11
M  V30 11 2 7 12
M  V30 12 1 8 13
M  V30 13 2 9 14
M  V30 14 1 9 15
M  V30 15 2 10 16
M  V30 16 1 11 17
M  V30 17 2 13 18
M  V30 18 1 17 19
M  V30 19 1 18 20
M  V30 20 1 20 21
M  V30 21 1 20 22
M  V30 22 1 8 11
M  V30 23 1 12 16
M  V30 24 1 14 18
M  V30 25 1 3 23
M  V30 26 1 7 24
M  V30 27 1 12 25
M  V30 28 1 13 26
M  V30 29 1 14 27
M  V30 30 1 15 28
M  V30 31 1 15 29
M  V30 32 1 15 30
M  V30 33 1 16 31
M  V30 34 1 17 32
M  V30 35 1 17 33
M  V30 36 1 19 34
M  V30 37 1 19 35
M  V30 38 1 19 36
M  V30 39 1 21 37
M  V30 40 1 21 38
M  V30 41 1 21 39
M  V30 42 1 22 40
M  V30 43 1 22 41
M  V30 44 1 22 42
M  V30 END BOND
M  V30 END CTAB
M  END
>  <Structure No>
8768

>  <LogS>
-4.871

>  <MMFF94 Energy>
54.421

$$$$
Compound 8769
Actelion Java MolfileCreator 2.0

  0  0  0  0  0  0              0 V3000
M  V30 BEGIN CTAB
M  V30 COUNTS 38 40 0 0 0
M  V30 BEGIN ATOM
M  V30 1 O -2.6447 -1.8427 -2.1634 0
M  V30 2 C -1.8894 -1.204 -1.381 0
M  V30 3 N -0.4785 -1.2039 -1.6526 0
M  V30 4 C -2.4996 -0.4993 -0.2246 0
M  V30 5 C 0.5414 -0.8218 -0.7144 0
M  V30 6 C -1.959 0.69 0.3072 0
M  V30 7 C -3.7193 -0.9658 0.2979 0
M  V30 8 C 0.4486 0.4014 -0.0294 0
M  V30 9 C 1.6951 -1.6243 -0.5521 0
M  V30 10 N -2.6231 1.3528 1.2956 0
M  V30 11 N -0.7184 1.2208 -0.1752 0
M  V30 12 C -4.365 -0.2693 1.3187 0
M  V30 13 C 1.4915 0.8138 0.8133 0
M  V30 14 C 2.7349 -1.1881 0.2847 0
M  V30 15 C 1.8392 -2.9338 -1.2809 0
M  V30 16 C -3.7977 0.9043 1.807 0
M  V30 17 C -0.5828 2.6621 -0.4265 0
M  V30 18 C 2.6355 0.0314 0.9745 0
M  V30 19 C -1.5644 3.1201 -1.5016 0
M  V30 20 O 3.6467 0.4999 1.827 0
M  V30 21 C 4.8648 -0.1898 2.0874 0
M  V30 22 H -0.1757 -1.679 -2.5327 0
M  V30 23 H -4.1758 -1.8695 -0.0864 0
M  V30 24 H -5.3025 -0.6317 1.7206 0
M  V30 25 H 1.4111 1.7487 1.3543 0
M  V30 26 H 3.618 -1.8032 0.3952 0
M  V30 27 H 0.8981 -3.5188 -1.2084 0
M  V30 28 H 2.6529 -3.5534 -0.8475 0
M  V30 29 H 2.0731 -2.7413 -2.3488 0
M  V30 30 H -4.2902 1.4605 2.5934 0
M  V30 31 H 0.445 2.8957 -0.7819 0
M  V30 32 H -0.7585 3.2287 0.5132 0
M  V30 33 H -1.4125 2.5306 -2.4307 0
M  V30 34 H -2.611 2.9915 -1.1537 0
M  V30 35 H -1.3966 4.1944 -1.7263 0
M  V30 36 H 4.653 -1.1784 2.5468 0
M  V30 37 H 5.4751 0.4072 2.7954 0
M  V30 38 H 5.4386 -0.3201 1.1457 0
M  V30 END ATOM
M  V30 BEGIN BOND
M  V30 1 2 1 2
M  V30 2 1 2 3
M  V30 3 1 2 4
M  V30 4 1 3 5
M  V30 5 2 4 6
M  V30 6 1 4 7
M  V30 7 2 5 8
M  V30 8 1 5 9
M  V30 9 1 6 10
M  V30 10 1 6 11
M  V30 11 2 7 12
M  V30 12 1 8 13
M  V30 13 2 9 14
M  V30 14 1 9 15
M  V30 15 2 10 16
M  V30 16 1 11 17
M  V30 17 2 13 18
M  V30 18 1 17 19
M  V30 19 1 18 20
M  V30 20 1 20 21
M  V30 21 1 8 11
M  V30 22 1 12 16
M  V30 23 1 14 18
M  V30 24 1 3 22
M  V30 25 1 7 23
M  V30 26 1 12 24
M  V30 27 1 13 25
M  V30 28 1 14 26
M  V30 29 1 15 27
M  V30 30 1 15 28
M  V30 31 1 15 29
M  V30 32 1 16 30
M  V30 33 1 17 31
M  V30 34 1 17 32
M  V30 35 1 19 33
M  V30 36 1 19 34
M  V30 37 1 19 35
M  V30 38 1 21 36
M  V30 39 1 21 37
M  V30 40 1 21 38
M  V30 END BOND
M  V30 END CTAB
M  END
>  <Structure No>
8769

>  <LogS>
-5.153

>  <MMFF94 Energy>
56.286

$$$$
Compound 8770
Actelion Java MolfileCreator 2.0

  0  0  0  0  0  0              0 V3000
M  V30 BEGIN CTAB
M  V30 COUNTS 31 33 0 0 0
M  V30 BEGIN ATOM
M  V30 1 Cl 4.3292 0.5709 2.4488 0
M  V30 2 C 3.1685 -0.0576 1.2936 0
M  V30 3 C 1.9596 0.6104 1.0821 0
M  V30 4 C 3.4532 -1.2236 0.5812 0
M  V30 5 C 1.0231 0.1134 0.158 0
M  V30 6 C 2.5281 -1.7248 -0.3365 0
M  V30 7 N -0.2082 0.8138 -0.0699 0
M  V30 8 C 1.3001 -1.0754 -0.5411 0
M  V30 9 C -1.4198 0.1487 0.2999 0
M  V30 10 C -0.227 2.2649 -0.3051 0
M  V30 11 N 0.4045 -1.5835 -1.5412 0
M  V30 12 N -2.2222 0.7122 1.2465 0
M  V30 13 C -1.7931 -1.0711 -0.2998 0
M  V30 14 C 0.6728 2.6435 -1.4789 0
M  V30 15 C -1.0244 -1.6789 -1.4154 0
M  V30 16 C -3.3815 0.1336 1.6515 0
M  V30 17 C -2.9969 -1.6715 0.1105 0
M  V30 18 O -1.6537 -2.3371 -2.2879 0
M  V30 19 C -3.7876 -1.0745 1.0917 0
M  V30 20 H 1.7485 1.5108 1.6435 0
M  V30 21 H 4.3917 -1.7406 0.7349 0
M  V30 22 H 2.7655 -2.6257 -0.8883 0
M  V30 23 H 0.0918 2.8064 0.6102 0
M  V30 24 H -1.2604 2.5968 -0.5495 0
M  V30 25 H 0.8339 -2.0993 -2.3428 0
M  V30 26 H 0.3775 2.0717 -2.3842 0
M  V30 27 H 1.7357 2.4294 -1.2407 0
M  V30 28 H 0.5716 3.7286 -1.691 0
M  V30 29 H -3.9875 0.6136 2.4082 0
M  V30 30 H -3.3275 -2.604 -0.33 0
M  V30 31 H -4.7121 -1.5402 1.408 0
M  V30 END ATOM
M  V30 BEGIN BOND
M  V30 1 1 1 2
M  V30 2 2 2 3
M  V30 3 1 2 4
M  V30 4 1 3 5
M  V30 5 2 4 6
M  V30 6 1 5 7
M  V30 7 2 5 8
M  V30 8 1 7 9
M  V30 9 1 7 10
M  V30 10 1 8 11
M  V30 11 2 9 12
M  V30 12 1 9 13
M  V30 13 1 10 14
M  V30 14 1 11 15
M  V30 15 1 12 16
M  V30 16 2 13 17
M  V30 17 2 15 18
M  V30 18 2 16 19
M  V30 19 1 6 8
M  V30 20 1 13 15
M  V30 21 1 17 19
M  V30 22 1 3 20
M  V30 23 1 4 21
M  V30 24 1 6 22
M  V30 25 1 10 23
M  V30 26 1 10 24
M  V30 27 1 11 25
M  V30 28 1 14 26
M  V30 29 1 14 27
M  V30 30 1 14 28
M  V30 31 1 16 29
M  V30 32 1 17 30
M  V30 33 1 19 31
M  V30 END BOND
M  V30 END CTAB
M  END
>  <Structure No>
8770

>  <LogS>
-5.36

>  <MMFF94 Energy>
41.79

$$$$
Compound 8771
Actelion Java MolfileCreator 2.0

  0  0  0  0  0  0              0 V3000
M  V30 BEGIN CTAB
M  V30 COUNTS 32 34 0 0 0
M  V30 BEGIN ATOM
M  V30 1 O 2.1715 -2.3324 -0.1607 0
M  V30 2 C 1.3952 -1.4369 0.2746 0
M  V30 3 N 0.0719 -1.8197 0.6755 0
M  V30 4 C 1.903 -0.0408 0.4011 0
M  V30 5 C -1.0523 -1.0386 0.2549 0
M  V30 6 C -0.1441 -3.1686 1.2057 0
M  V30 7 C 1.1764 1.0119 1.0187 0
M  V30 8 C 3.2247 0.2292 -0.0109 0
M  V30 9 C -1.1594 0.2986 0.65 0
M  V30 10 C -2.0922 -1.6259 -0.4866 0
M  V30 11 O -0.1634 0.9139 1.4057 0
M  V30 12 N 1.792 2.2033 1.2492 0
M  V30 13 C 3.8105 1.4763 0.2192 0
M  V30 14 C -2.3064 1.034 0.3267 0
M  V30 15 C -3.2246 -0.8833 -0.8283 0
M  V30 16 C 3.0702 2.4567 0.8754 0
M  V30 17 N 5.1551 1.736 -0.1921 0
M  V30 18 C -3.3341 0.4562 -0.4322 0
M  V30 19 C -4.5713 1.2414 -0.7526 0
M  V30 20 H -1.0999 -3.2146 1.7706 0
M  V30 21 H 0.677 -3.4418 1.9022 0
M  V30 22 H -0.1741 -3.9019 0.3725 0
M  V30 23 H 3.8183 -0.5374 -0.4933 0
M  V30 24 H -2.0279 -2.6606 -0.7974 0
M  V30 25 H -2.3896 2.0613 0.6604 0
M  V30 26 H -4.0184 -1.355 -1.3942 0
M  V30 27 H 3.5032 3.4268 1.0816 0
M  V30 28 H 5.717 1.0023 -0.6784 0
M  V30 29 H 5.5982 2.6651 -0.0148 0
M  V30 30 H -5.3121 1.1126 0.0638 0
M  V30 31 H -4.3332 2.3212 -0.8589 0
M  V30 32 H -5.02 0.8936 -1.7074 0
M  V30 END ATOM
M  V30 BEGIN BOND
M  V30 1 2 1 2
M  V30 2 1 2 3
M  V30 3 1 2 4
M  V30 4 1 3 5
M  V30 5 1 3 6
M  V30 6 2 4 7
M  V30 7 1 4 8
M  V30 8 2 5 9
M  V30 9 1 5 10
M  V30 10 1 7 11
M  V30 11 1 7 12
M  V30 12 2 8 13
M  V30 13 1 9 14
M  V30 14 2 10 15
M  V30 15 2 12 16
M  V30 16 1 13 17
M  V30 17 2 14 18
M  V30 18 1 18 19
M  V30 19 1 9 11
M  V30 20 1 13 16
M  V30 21 1 15 18
M  V30 22 1 6 20
M  V30 23 1 6 21
M  V30 24 1 6 22
M  V30 25 1 8 23
M  V30 26 1 10 24
M  V30 27 1 14 25
M  V30 28 1 15 26
M  V30 29 1 16 27
M  V30 30 1 17 28
M  V30 31 1 17 29
M  V30 32 1 19 30
M  V30 33 1 19 31
M  V30 34 1 19 32
M  V30 END BOND
M  V30 END CTAB
M  END
>  <Structure No>
8771

>  <LogS>
-3.043

>  <MMFF94 Energy>
70.933

$$$$
Compound 8772
Actelion Java MolfileCreator 2.0

  0  0  0  0  0  0              0 V3000
M  V30 BEGIN CTAB
M  V30 COUNTS 34 36 0 0 0
M  V30 BEGIN ATOM
M  V30 1 O -0.6412 -3.129 -1.2025 0
M  V30 2 C -0.4183 -1.9984 -0.6865 0
M  V30 3 N 0.8485 -1.3587 -0.9501 0
M  V30 4 C -1.4865 -1.384 0.1551 0
M  V30 5 C 1.4515 -0.4717 0.0076 0
M  V30 6 C 1.643 -1.8075 -2.0975 0
M  V30 7 C -1.5834 0.0097 0.3877 0
M  V30 8 C -2.5102 -2.2079 0.6615 0
M  V30 9 C 0.7696 0.6811 0.42 0
M  V30 10 C 2.7549 -0.7104 0.4783 0
M  V30 11 N -2.6535 0.5081 1.069 0
M  V30 12 N -0.5639 0.9168 -0.0498 0
M  V30 13 C -3.5829 -1.6612 1.3635 0
M  V30 14 C 1.3882 1.5815 1.3039 0
M  V30 15 C 3.3636 0.1876 1.3582 0
M  V30 16 C -3.6422 -0.2847 1.5527 0
M  V30 17 C -0.9437 2.2151 -0.6245 0
M  V30 18 C 2.6811 1.3335 1.7697 0
M  V30 19 C -0.0389 2.5803 -1.7985 0
M  V30 20 H 2.3913 -1.0358 -2.3802 0
M  V30 21 H 0.986 -1.9773 -2.977 0
M  V30 22 H 2.1686 -2.7522 -1.8445 0
M  V30 23 H -2.4862 -3.2797 0.5089 0
M  V30 24 H 3.2973 -1.5933 0.1656 0
M  V30 25 H -4.3672 -2.2998 1.7489 0
M  V30 26 H 0.8658 2.4661 1.6431 0
M  V30 27 H 4.3656 -0.0038 1.7195 0
M  V30 28 H -4.4721 0.1555 2.0891 0
M  V30 29 H -0.8967 3.0065 0.1529 0
M  V30 30 H -1.9893 2.173 -1.002 0
M  V30 31 H 3.1526 2.028 2.4529 0
M  V30 32 H 1.0038 2.7388 -1.4522 0
M  V30 33 H -0.0538 1.7687 -2.5568 0
M  V30 34 H -0.3999 3.5187 -2.2695 0
M  V30 END ATOM
M  V30 BEGIN BOND
M  V30 1 2 1 2
M  V30 2 1 2 3
M  V30 3 1 2 4
M  V30 4 1 3 5
M  V30 5 1 3 6
M  V30 6 2 4 7
M  V30 7 1 4 8
M  V30 8 2 5 9
M  V30 9 1 5 10
M  V30 10 1 7 11
M  V30 11 1 7 12
M  V30 12 2 8 13
M  V30 13 1 9 14
M  V30 14 2 10 15
M  V30 15 2 11 16
M  V30 16 1 12 17
M  V30 17 2 14 18
M  V30 18 1 17 19
M  V30 19 1 9 12
M  V30 20 1 13 16
M  V30 21 1 15 18
M  V30 22 1 6 20
M  V30 23 1 6 21
M  V30 24 1 6 22
M  V30 25 1 8 23
M  V30 26 1 10 24
M  V30 27 1 13 25
M  V30 28 1 14 26
M  V30 29 1 15 27
M  V30 30 1 16 28
M  V30 31 1 17 29
M  V30 32 1 17 30
M  V30 33 1 18 31
M  V30 34 1 19 32
M  V30 35 1 19 33
M  V30 36 1 19 34
M  V30 END BOND
M  V30 END CTAB
M  END
>  <Structure No>
8772

>  <LogS>
-3.324

>  <MMFF94 Energy>
61.009

$$$$
Compound 8773
Actelion Java MolfileCreator 2.0

  0  0  0  0  0  0              0 V3000
M  V30 BEGIN CTAB
M  V30 COUNTS 42 44 0 0 0
M  V30 BEGIN ATOM
M  V30 1 O -4.0795 -1.4384 2.2381 0
M  V30 2 C -2.9871 -1.0158 1.771 0
M  V30 3 N -1.9159 -1.9561 1.5923 0
M  V30 4 C -2.8575 0.4305 1.4813 0
M  V30 5 C -0.5831 -1.6467 1.1584 0
M  V30 6 C -2.1252 0.9152 0.38 0
M  V30 7 C -3.5769 1.3533 2.2614 0
M  V30 8 C -0.3288 -0.7304 0.1259 0
M  V30 9 C 0.4915 -2.375 1.6837 0
M  V30 10 N -2.1305 2.2495 0.1008 0
M  V30 11 N -1.3878 0.0263 -0.4693 0
M  V30 12 C -3.5498 2.7127 1.954 0
M  V30 13 N 0.9437 -0.5645 -0.3285 0
M  V30 14 C 1.787 -2.1718 1.2089 0
M  V30 15 C -2.814 3.1469 0.8555 0
M  V30 16 C -1.3775 0.2462 -1.9224 0
M  V30 17 C 2.0099 -1.2442 0.1769 0
M  V30 18 C -2.7859 0.1379 -2.5002 0
M  V30 19 N 3.3322 -1.0053 -0.3651 0
M  V30 20 C 3.5009 -0.1036 -1.5149 0
M  V30 21 C 4.5202 -1.6262 0.232 0
M  V30 22 C 3.5412 1.353 -1.0528 0
M  V30 23 O 3.7076 2.202 -2.1553 0
M  V30 24 H -2.0838 -2.9219 1.9569 0
M  V30 25 H -4.1627 1.02 3.11 0
M  V30 26 H 0.3227 -3.1067 2.4639 0
M  V30 27 H -4.1048 3.4215 2.5551 0
M  V30 28 H 2.5933 -2.7483 1.6404 0
M  V30 29 H -2.7909 4.1971 0.5968 0
M  V30 30 H -0.9483 1.2451 -2.1512 0
M  V30 31 H -0.7456 -0.5199 -2.4241 0
M  V30 32 H -3.431 0.9538 -2.1111 0
M  V30 33 H -3.2327 -0.8431 -2.2331 0
M  V30 34 H -2.7417 0.2218 -3.607 0
M  V30 35 H 4.4407 -0.3374 -2.0617 0
M  V30 36 H 2.6721 -0.2512 -2.2415 0
M  V30 37 H 5.454 -1.2693 -0.2519 0
M  V30 38 H 4.5797 -1.3659 1.3096 0
M  V30 39 H 4.4676 -2.7291 0.1127 0
M  V30 40 H 2.613 1.6121 -0.4952 0
M  V30 41 H 4.401 1.4939 -0.3644 0
M  V30 42 H 2.8046 2.3456 -2.5428 0
M  V30 END ATOM
M  V30 BEGIN BOND
M  V30 1 2 1 2
M  V30 2 1 2 3
M  V30 3 1 2 4
M  V30 4 1 3 5
M  V30 5 2 4 6
M  V30 6 1 4 7
M  V30 7 2 5 8
M  V30 8 1 5 9
M  V30 9 1 6 10
M  V30 10 1 6 11
M  V30 11 2 7 12
M  V30 12 1 8 13
M  V30 13 2 9 14
M  V30 14 2 10 15
M  V30 15 1 11 16
M  V30 16 2 13 17
M  V30 17 1 16 18
M  V30 18 1 17 19
M  V30 19 1 19 20
M  V30 20 1 19 21
M  V30 21 1 20 22
M  V30 22 1 22 23
M  V30 23 1 8 11
M  V30 24 1 12 15
M  V30 25 1 14 17
M  V30 26 1 3 24
M  V30 27 1 7 25
M  V30 28 1 9 26
M  V30 29 1 12 27
M  V30 30 1 14 28
M  V30 31 1 15 29
M  V30 32 1 16 30
M  V30 33 1 16 31
M  V30 34 1 18 32
M  V30 35 1 18 33
M  V30 36 1 18 34
M  V30 37 1 20 35
M  V30 38 1 20 36
M  V30 39 1 21 37
M  V30 40 1 21 38
M  V30 41 1 21 39
M  V30 42 1 22 40
M  V30 43 1 22 41
M  V30 44 1 23 42
M  V30 END BOND
M  V30 END CTAB
M  END
>  <Structure No>
8773

>  <LogS>
-3.36

>  <MMFF94 Energy>
25.934

$$$$
Compound 8774
Actelion Java MolfileCreator 2.0

  0  0  0  0  0  0              0 V3000
M  V30 BEGIN CTAB
M  V30 COUNTS 33 35 0 0 0
M  V30 BEGIN ATOM
M  V30 1 F 2.0992 1.2914 2.5033 0
M  V30 2 C 1.8939 2.4405 1.7613 0
M  V30 3 C 2.016 2.1312 0.272 0
M  V30 4 N 0.9639 1.1913 -0.1486 0
M  V30 5 C -0.3852 1.6808 -0.3522 0
M  V30 6 C 1.3042 -0.1994 -0.3255 0
M  V30 7 O -0.5686 2.9201 -0.5068 0
M  V30 8 C -1.5767 0.7866 -0.3994 0
M  V30 9 C 0.6216 -1.2033 0.3894 0
M  V30 10 C 2.3417 -0.5631 -1.2011 0
M  V30 11 C -1.6736 -0.3926 0.3817 0
M  V30 12 C -2.667 1.1557 -1.2104 0
M  V30 13 C 0.9763 -2.5509 0.2121 0
M  V30 14 C -0.5391 -0.8343 1.2627 0
M  V30 15 C 2.6953 -1.9048 -1.3617 0
M  V30 16 C -2.8328 -1.1846 0.3042 0
M  V30 17 C -3.8144 0.3629 -1.2694 0
M  V30 18 C 2.0148 -2.897 -0.6548 0
M  V30 19 C -3.8961 -0.806 -0.5156 0
M  V30 20 H 2.6577 3.1938 2.0474 0
M  V30 21 H 0.888 2.8513 1.9903 0
M  V30 22 H 3.0279 1.7135 0.0825 0
M  V30 23 H 1.9448 3.0742 -0.3116 0
M  V30 24 H 2.8683 0.1933 -1.7687 0
M  V30 25 H -2.6268 2.0563 -1.8108 0
M  V30 26 H 0.445 -3.3338 0.7388 0
M  V30 27 H -0.2545 -0.0086 1.9495 0
M  V30 28 H -0.8366 -1.6896 1.9088 0
M  V30 29 H 3.4945 -2.1756 -2.0393 0
M  V30 30 H -2.9154 -2.0979 0.8802 0
M  V30 31 H -4.6417 0.6555 -1.903 0
M  V30 32 H 2.2858 -3.9365 -0.7859 0
M  V30 33 H -4.7855 -1.4209 -0.5664 0
M  V30 END ATOM
M  V30 BEGIN BOND
M  V30 1 1 1 2
M  V30 2 1 2 3
M  V30 3 1 3 4
M  V30 4 1 4 5
M  V30 5 1 4 6
M  V30 6 2 5 7
M  V30 7 1 5 8
M  V30 8 2 6 9
M  V30 9 1 6 10
M  V30 10 2 8 11
M  V30 11 1 8 12
M  V30 12 1 9 13
M  V30 13 1 9 14
M  V30 14 2 10 15
M  V30 15 1 11 16
M  V30 16 2 12 17
M  V30 17 2 13 18
M  V30 18 2 16 19
M  V30 19 1 11 14
M  V30 20 1 15 18
M  V30 21 1 17 19
M  V30 22 1 2 20
M  V30 23 1 2 21
M  V30 24 1 3 22
M  V30 25 1 3 23
M  V30 26 1 10 24
M  V30 27 1 12 25
M  V30 28 1 13 26
M  V30 29 1 14 27
M  V30 30 1 14 28
M  V30 31 1 15 29
M  V30 32 1 16 30
M  V30 33 1 17 31
M  V30 34 1 18 32
M  V30 35 1 19 33
M  V30 END BOND
M  V30 END CTAB
M  END
>  <Structure No>
8774

>  <LogS>
-3.535

>  <MMFF94 Energy>
66.635

$$$$
Compound 8775
Actelion Java MolfileCreator 2.0

  0  0  0  0  0  0              0 V3000
M  V30 BEGIN CTAB
M  V30 COUNTS 31 33 0 0 0
M  V30 BEGIN ATOM
M  V30 1 O 0.5624 2.0902 1.2859 0
M  V30 2 C 0.5143 1.1261 0.4745 0
M  V30 3 N -0.7398 0.7436 -0.0797 0
M  V30 4 C 1.7517 0.4456 0.0623 0
M  V30 5 C -1.297 -0.5081 0.3152 0
M  V30 6 C -1.4386 1.6248 -1.0238 0
M  V30 7 C 1.772 -0.8773 -0.4561 0
M  V30 8 C 2.9551 1.179 0.113 0
M  V30 9 C -0.5725 -1.7032 0.1428 0
M  V30 10 C -2.5897 -0.5517 0.8666 0
M  V30 11 C -1.9877 2.8711 -0.3323 0
M  V30 12 O 0.6864 -1.7731 -0.472 0
M  V30 13 C 2.9772 -1.3873 -0.9624 0
M  V30 14 C 4.1448 0.6376 -0.3715 0
M  V30 15 C -1.1594 -2.9181 0.5249 0
M  V30 16 C -3.1544 -1.7679 1.253 0
M  V30 17 C 4.1536 -0.6404 -0.92 0
M  V30 18 C -2.4385 -2.9516 1.0832 0
M  V30 19 H -2.2786 1.0796 -1.5076 0
M  V30 20 H -0.7375 1.9326 -1.8294 0
M  V30 21 H 2.9718 2.1905 0.5005 0
M  V30 22 H -3.1586 0.3568 1.0058 0
M  V30 23 H -2.5971 2.5953 0.5522 0
M  V30 24 H -2.6275 3.4361 -1.0424 0
M  V30 25 H -1.158 3.5345 -0.0121 0
M  V30 26 H 3.0061 -2.3901 -1.3701 0
M  V30 27 H 5.0583 1.2171 -0.3354 0
M  V30 28 H -0.6188 -3.8453 0.3824 0
M  V30 29 H -4.1481 -1.7926 1.6815 0
M  V30 30 H 5.0749 -1.0582 -1.3046 0
M  V30 31 H -2.8771 -3.8965 1.3767 0
M  V30 END ATOM
M  V30 BEGIN BOND
M  V30 1 2 1 2
M  V30 2 1 2 3
M  V30 3 1 2 4
M  V30 4 1 3 5
M  V30 5 1 3 6
M  V30 6 2 4 7
M  V30 7 1 4 8
M  V30 8 2 5 9
M  V30 9 1 5 10
M  V30 10 1 6 11
M  V30 11 1 7 12
M  V30 12 1 7 13
M  V30 13 2 8 14
M  V30 14 1 9 15
M  V30 15 2 10 16
M  V30 16 2 13 17
M  V30 17 2 15 18
M  V30 18 1 9 12
M  V30 19 1 14 17
M  V30 20 1 16 18
M  V30 21 1 6 19
M  V30 22 1 6 20
M  V30 23 1 8 21
M  V30 24 1 10 22
M  V30 25 1 11 23
M  V30 26 1 11 24
M  V30 27 1 11 25
M  V30 28 1 13 26
M  V30 29 1 14 27
M  V30 30 1 15 28
M  V30 31 1 16 29
M  V30 32 1 17 30
M  V30 33 1 18 31
M  V30 END BOND
M  V30 END CTAB
M  END
>  <Structure No>
8775

>  <LogS>
-3.68

>  <MMFF94 Energy>
65.751

$$$$
Compound 8776
Actelion Java MolfileCreator 2.0

  0  0  0  0  0  0              0 V3000
M  V30 BEGIN CTAB
M  V30 COUNTS 29 29 0 0 0
M  V30 BEGIN ATOM
M  V30 1 S -1.7629 3.2874 -0.4004 0
M  V30 2 C -0.9485 1.6953 -0.372 0
M  V30 3 C -1.5075 3.5773 1.3772 0
M  V30 4 N -1.6664 0.571 -0.1295 0
M  V30 5 N 0.3864 1.6129 -0.5943 0
M  V30 6 C -1.0538 -0.6422 -0.1048 0
M  V30 7 C 1.0124 0.4064 -0.5726 0
M  V30 8 N 0.2854 -0.7161 -0.327 0
M  V30 9 N -1.8151 -1.8371 0.1551 0
M  V30 10 N 2.431 0.3177 -0.8061 0
M  V30 11 C -3.2578 -1.7423 0.3977 0
M  V30 12 C -1.1401 -3.1384 0.1763 0
M  V30 13 C 3.091 -0.9909 -0.7816 0
M  V30 14 C 3.2031 1.5367 -1.0651 0
M  V30 15 H -1.9442 4.5596 1.651 0
M  V30 16 H -0.4219 3.5887 1.6095 0
M  V30 17 H -2.0092 2.783 1.9689 0
M  V30 18 H -3.7104 -2.7387 0.5843 0
M  V30 19 H -3.7574 -1.2945 -0.4871 0
M  V30 20 H -3.4467 -1.1036 1.2866 0
M  V30 21 H -1.8488 -3.9664 0.3877 0
M  V30 22 H -0.6665 -3.3302 -0.8095 0
M  V30 23 H -0.3578 -3.1414 0.9644 0
M  V30 24 H 2.6484 -1.6478 -1.5601 0
M  V30 25 H 4.1804 -0.9063 -0.9774 0
M  V30 26 H 2.9529 -1.4612 0.2148 0
M  V30 27 H 4.2793 1.3163 -1.2248 0
M  V30 28 H 3.115 2.2266 -0.1991 0
M  V30 29 H 2.8133 2.0403 -1.9749 0
M  V30 END ATOM
M  V30 BEGIN BOND
M  V30 1 1 1 2
M  V30 2 1 1 3
M  V30 3 2 2 4
M  V30 4 1 2 5
M  V30 5 1 4 6
M  V30 6 2 5 7
M  V30 7 2 6 8
M  V30 8 1 6 9
M  V30 9 1 7 10
M  V30 10 1 9 11
M  V30 11 1 9 12
M  V30 12 1 10 13
M  V30 13 1 10 14
M  V30 14 1 7 8
M  V30 15 1 3 15
M  V30 16 1 3 16
M  V30 17 1 3 17
M  V30 18 1 11 18
M  V30 19 1 11 19
M  V30 20 1 11 20
M  V30 21 1 12 21
M  V30 22 1 12 22
M  V30 23 1 12 23
M  V30 24 1 13 24
M  V30 25 1 13 25
M  V30 26 1 13 26
M  V30 27 1 14 27
M  V30 28 1 14 28
M  V30 29 1 14 29
M  V30 END BOND
M  V30 END CTAB
M  END
>  <Structure No>
8776

>  <LogS>
-2.676

>  <MMFF94 Energy>
-216.98

$$$$
Compound 8777
Actelion Java MolfileCreator 2.0

  0  0  0  0  0  0              0 V3000
M  V30 BEGIN CTAB
M  V30 COUNTS 42 42 0 0 0
M  V30 BEGIN ATOM
M  V30 1 S 4.2435 0.0814 -0.4074 0 CFG=2
M  V30 2 O 4.0786 1.4441 -1.068 0
M  V30 3 C 4.8566 -0.9688 -1.7402 0
M  V30 4 C 2.543 -0.4832 -0.1516 0
M  V30 5 S 6.5834 -0.5357 -2.1381 0
M  V30 6 C 1.8567 0.2616 1.0097 0 CFG=1
M  V30 7 C 7.3179 -1.4001 -0.7115 0
M  V30 8 N 0.4044 0.1029 0.8891 0
M  V30 9 C 2.3029 -0.2636 2.3859 0
M  V30 10 C -0.5161 1.1464 1.2524 0
M  V30 11 O 3.6471 0.0521 2.6335 0
M  V30 12 O -0.0944 2.1782 1.8412 0
M  V30 13 C -1.9628 1.0381 0.9813 0
M  V30 14 C -2.4846 0.1705 0.1058 0
M  V30 15 C -3.9452 0.0735 -0.1247 0
M  V30 16 C -4.5784 -1.1741 0.0029 0
M  V30 17 C -4.7373 1.1816 -0.5102 0
M  V30 18 O -3.9117 -2.1996 0.3123 0
M  V30 19 N -5.919 -1.283 -0.1926 0
M  V30 20 N -6.0818 1.0175 -0.6708 0
M  V30 21 C -4.1406 2.544 -0.7519 0
M  V30 22 C -6.6695 -0.1983 -0.5168 0
M  V30 23 O -7.9134 -0.3207 -0.6804 0
M  V30 24 H 4.232 -0.8091 -2.6436 0
M  V30 25 H 4.7775 -2.0362 -1.4464 0
M  V30 26 H 1.9806 -0.3013 -1.093 0
M  V30 27 H 2.5429 -1.5783 0.0364 0
M  V30 28 H 2.1144 1.3416 0.9342 0
M  V30 29 H 6.9319 -0.976 0.2383 0
M  V30 30 H 7.0862 -2.4842 -0.7606 0
M  V30 31 H 8.4189 -1.269 -0.7387 0
M  V30 32 H 0.0366 -0.8581 0.7097 0
M  V30 33 H 1.689 0.2239 3.173 0
M  V30 34 H 2.1198 -1.3615 2.4625 0
M  V30 35 H 4.1778 -0.764 2.44 0
M  V30 36 H -2.6201 1.7171 1.5103 0
M  V30 37 H -1.852 -0.5351 -0.4145 0
M  V30 38 H -6.3814 -2.215 -0.0854 0
M  V30 39 H -6.6783 1.8364 -0.9306 0
M  V30 40 H -4.078 3.1016 0.2051 0
M  V30 41 H -3.1316 2.4631 -1.2074 0
M  V30 42 H -4.7727 3.1258 -1.4554 0
M  V30 END ATOM
M  V30 BEGIN BOND
M  V30 1 2 1 2
M  V30 2 1 1 3
M  V30 3 1 1 4
M  V30 4 1 3 5
M  V30 5 1 4 6
M  V30 6 1 5 7
M  V30 7 1 6 8
M  V30 8 1 6 9
M  V30 9 1 8 10
M  V30 10 1 9 11
M  V30 11 2 10 12
M  V30 12 1 10 13
M  V30 13 2 13 14
M  V30 14 1 14 15
M  V30 15 1 15 16
M  V30 16 2 15 17
M  V30 17 2 16 18
M  V30 18 1 16 19
M  V30 19 1 17 20
M  V30 20 1 17 21
M  V30 21 1 19 22
M  V30 22 2 22 23
M  V30 23 1 20 22
M  V30 24 1 3 24
M  V30 25 1 3 25
M  V30 26 1 4 26
M  V30 27 1 4 27
M  V30 28 1 6 28
M  V30 29 1 7 29
M  V30 30 1 7 30
M  V30 31 1 7 31
M  V30 32 1 8 32
M  V30 33 1 9 33
M  V30 34 1 9 34
M  V30 35 1 11 35
M  V30 36 1 13 36
M  V30 37 1 14 37
M  V30 38 1 19 38
M  V30 39 1 20 39
M  V30 40 1 21 40
M  V30 41 1 21 41
M  V30 42 1 21 42
M  V30 END BOND
M  V30 BEGIN COLLECTION
M  V30 MDLV30/STEABS ATOMS=(2 1 6)
M  V30 END COLLECTION
M  V30 END CTAB
M  END
>  <Structure No>
8777

>  <LogS>
-1.981

>  <MMFF94 Energy>
-72.39

$$$$
Compound 8778
Actelion Java MolfileCreator 2.0

  0  0  0  0  0  0              0 V3000
M  V30 BEGIN CTAB
M  V30 COUNTS 48 48 0 0 0
M  V30 BEGIN ATOM
M  V30 1 O -2.9074 0.1569 1.4135 0
M  V30 2 C -2.0135 -0.7075 1.2114 0
M  V30 3 O -2.189 -2.017 1.6762 0
M  V30 4 C -0.7634 -0.3438 0.5065 0
M  V30 5 C -3.3927 -2.4793 2.2854 0
M  V30 6 C -0.6834 0.7547 -0.3841 0
M  V30 7 C 0.386 -1.1202 0.7312 0
M  V30 8 C -4.4835 -2.6764 1.2386 0
M  V30 9 N -1.8379 1.5459 -0.7191 0
M  V30 10 C 0.5409 1.0626 -0.9972 0
M  V30 11 C 1.5961 -0.8058 0.1107 0
M  V30 12 C -2.5399 1.2327 -1.9735 0
M  V30 13 C -1.9369 2.8942 -0.1402 0
M  V30 14 C 1.684 0.2968 -0.7554 0
M  V30 15 C -3.5987 0.1603 -1.7486 0
M  V30 16 C -3.3755 3.2522 0.2331 0
M  V30 17 O 2.8748 0.6624 -1.4048 0
M  V30 18 C 4.1521 0.06 -1.1956 0
M  V30 19 C 4.7548 0.5279 0.1356 0
M  V30 20 C 6.1735 -0.0139 0.3636 0
M  V30 21 C 6.1872 -1.5087 0.6827 0
M  V30 22 H -3.7314 -1.7642 3.0663 0
M  V30 23 H -3.1885 -3.4541 2.7759 0
M  V30 24 H 0.3552 -1.9686 1.4039 0
M  V30 25 H -4.7482 -1.7072 0.7667 0
M  V30 26 H -4.1327 -3.3792 0.4537 0
M  V30 27 H -5.3911 -3.0974 1.7199 0
M  V30 28 H 0.6006 1.9028 -1.6783 0
M  V30 29 H 2.4542 -1.4295 0.3162 0
M  V30 30 H -1.8163 0.8782 -2.7402 0
M  V30 31 H -3.0273 2.1388 -2.3922 0
M  V30 32 H -1.5437 3.6389 -0.8654 0
M  V30 33 H -1.3188 2.9588 0.7827 0
M  V30 34 H -4.1491 -0.0232 -2.695 0
M  V30 35 H -4.3222 0.4922 -0.9745 0
M  V30 36 H -3.1227 -0.7896 -1.4284 0
M  V30 37 H -3.7936 2.5062 0.9382 0
M  V30 38 H -3.3903 4.2468 0.7264 0
M  V30 39 H -4.0214 3.3051 -0.6667 0
M  V30 40 H 4.0679 -1.045 -1.2474 0
M  V30 41 H 4.8205 0.3798 -2.0228 0
M  V30 42 H 4.8027 1.6386 0.1247 0
M  V30 43 H 4.1006 0.2344 0.9838 0
M  V30 44 H 6.8082 0.1837 -0.5272 0
M  V30 45 H 6.6227 0.529 1.2233 0
M  V30 46 H 5.5211 -1.7286 1.5441 0
M  V30 47 H 5.8623 -2.1023 -0.1963 0
M  V30 48 H 7.2198 -1.8195 0.9469 0
M  V30 END ATOM
M  V30 BEGIN BOND
M  V30 1 2 1 2
M  V30 2 1 2 3
M  V30 3 1 2 4
M  V30 4 1 3 5
M  V30 5 2 4 6
M  V30 6 1 4 7
M  V30 7 1 5 8
M  V30 8 1 6 9
M  V30 9 1 6 10
M  V30 10 2 7 11
M  V30 11 1 9 12
M  V30 12 1 9 13
M  V30 13 2 10 14
M  V30 14 1 12 15
M  V30 15 1 13 16
M  V30 16 1 14 17
M  V30 17 1 17 18
M  V30 18 1 18 19
M  V30 19 1 19 20
M  V30 20 1 20 21
M  V30 21 1 11 14
M  V30 22 1 5 22
M  V30 23 1 5 23
M  V30 24 1 7 24
M  V30 25 1 8 25
M  V30 26 1 8 26
M  V30 27 1 8 27
M  V30 28 1 10 28
M  V30 29 1 11 29
M  V30 30 1 12 30
M  V30 31 1 12 31
M  V30 32 1 13 32
M  V30 33 1 13 33
M  V30 34 1 15 34
M  V30 35 1 15 35
M  V30 36 1 15 36
M  V30 37 1 16 37
M  V30 38 1 16 38
M  V30 39 1 16 39
M  V30 40 1 18 40
M  V30 41 1 18 41
M  V30 42 1 19 42
M  V30 43 1 19 43
M  V30 44 1 20 44
M  V30 45 1 20 45
M  V30 46 1 21 46
M  V30 47 1 21 47
M  V30 48 1 21 48
M  V30 END BOND
M  V30 END CTAB
M  END
>  <Structure No>
8778

>  <LogS>
-3.84

>  <MMFF94 Energy>
56.964

$$$$
Compound 8779
Actelion Java MolfileCreator 2.0

  0  0  0  0  0  0              0 V3000
M  V30 BEGIN CTAB
M  V30 COUNTS 45 46 0 0 0
M  V30 BEGIN ATOM
M  V30 1 O -1.2771 0.3191 0.5586 0
M  V30 2 C -0.7915 -0.9943 0.2891 0 CFG=2
M  V30 3 C -2.3252 0.6803 -0.3225 0 CFG=1
M  V30 4 O 0.1474 -0.9441 -0.778 0
M  V30 5 C -1.9213 -2.0058 -0.0779 0 CFG=1
M  V30 6 C -3.6128 -0.1293 0.0229 0 CFG=1
M  V30 7 C -2.5435 2.1981 -0.2698 0
M  V30 8 C 1.5083 -0.8855 -0.3516 0 CFG=2
M  V30 9 O -1.5907 -3.32 0.3005 0
M  V30 10 C -3.2698 -1.5609 0.5209 0 CFG=2
M  V30 11 O -4.4458 0.5378 0.9426 0
M  V30 12 O -1.4215 2.8539 -0.7914 0
M  V30 13 O 1.6646 -0.008 0.7486 0
M  V30 14 C 2.3226 -0.2819 -1.5082 0 CFG=2
M  V30 15 C 1.993 -2.3122 0.0124 0
M  V30 16 O -3.1987 -1.5874 1.9269 0
M  V30 17 C 1.8494 1.2958 0.2331 0 CFG=2
M  V30 18 O 3.6719 -0.693 -1.5081 0
M  V30 19 C 2.2078 1.2083 -1.2618 0 CFG=2
M  V30 20 O 3.1937 -2.2616 0.7344 0
M  V30 21 C 2.9335 2.0082 1.0481 0
M  V30 22 O 1.171 1.7393 -2.0465 0
M  V30 23 O 3.0436 3.3426 0.6351 0
M  V30 24 H -0.3367 -1.3504 1.2406 0
M  V30 25 H -2.0354 0.4477 -1.376 0
M  V30 26 H -2.0432 -2.0113 -1.1844 0
M  V30 27 H -4.191 -0.2305 -0.9222 0
M  V30 28 H -2.7048 2.5261 0.7811 0
M  V30 29 H -3.4398 2.4641 -0.8744 0
M  V30 30 H -1.4444 -3.332 1.2817 0
M  V30 31 H -4.0715 -2.2527 0.166 0
M  V30 32 H -3.904 0.7466 1.7478 0
M  V30 33 H -1.6158 3.8253 -0.7303 0
M  V30 34 H 1.8817 -0.5628 -2.4911 0
M  V30 35 H 1.2336 -2.8388 0.6285 0
M  V30 36 H 2.132 -2.9073 -0.9183 0
M  V30 37 H -3.5078 -2.4841 2.2202 0
M  V30 38 H 0.9009 1.8609 0.3692 0
M  V30 39 H 4.1034 -0.3534 -0.681 0
M  V30 40 H 3.1668 1.7215 -1.5132 0
M  V30 41 H 3.4624 -3.204 0.8913 0
M  V30 42 H 2.6549 1.9773 2.1254 0
M  V30 43 H 3.9092 1.4881 0.9217 0
M  V30 44 H 1.2496 2.7272 -1.9853 0
M  V30 45 H 3.7614 3.744 1.1905 0
M  V30 END ATOM
M  V30 BEGIN BOND
M  V30 1 1 1 2
M  V30 2 1 1 3
M  V30 3 1 2 4
M  V30 4 1 2 5
M  V30 5 1 3 6
M  V30 6 1 3 7
M  V30 7 1 4 8
M  V30 8 1 5 9
M  V30 9 1 5 10
M  V30 10 1 6 11
M  V30 11 1 7 12
M  V30 12 1 8 13
M  V30 13 1 8 14
M  V30 14 1 8 15
M  V30 15 1 10 16
M  V30 16 1 13 17
M  V30 17 1 14 18
M  V30 18 1 14 19
M  V30 19 1 15 20
M  V30 20 1 17 21
M  V30 21 1 19 22
M  V30 22 1 21 23
M  V30 23 1 6 10
M  V30 24 1 17 19
M  V30 25 1 2 24
M  V30 26 1 3 25
M  V30 27 1 5 26
M  V30 28 1 6 27
M  V30 29 1 7 28
M  V30 30 1 7 29
M  V30 31 1 9 30
M  V30 32 1 10 31
M  V30 33 1 11 32
M  V30 34 1 12 33
M  V30 35 1 14 34
M  V30 36 1 15 35
M  V30 37 1 15 36
M  V30 38 1 16 37
M  V30 39 1 17 38
M  V30 40 1 18 39
M  V30 41 1 19 40
M  V30 42 1 20 41
M  V30 43 1 21 42
M  V30 44 1 21 43
M  V30 45 1 22 44
M  V30 46 1 23 45
M  V30 END BOND
M  V30 BEGIN COLLECTION
M  V30 MDLV30/STEABS ATOMS=(9 2 3 5 6 8 10 14 17 19)
M  V30 END COLLECTION
M  V30 END CTAB
M  END
>  <Structure No>
8779

>  <LogS>
0.79

>  <MMFF94 Energy>
198.71

$$$$
Compound 8780
Actelion Java MolfileCreator 2.0

  0  0  0  0  0  0              0 V3000
M  V30 BEGIN CTAB
M  V30 COUNTS 19 19 0 0 0
M  V30 BEGIN ATOM
M  V30 1 S 2.4533 0.0 0.6537 0
M  V30 2 O 2.8419 -1.2527 1.3877 0
M  V30 3 O 2.8272 1.1868 1.497 0
M  V30 4 N 3.2999 0.0725 -0.8511 0
M  V30 5 C 0.7175 0.0029 0.3568 0
M  V30 6 C 0.0177 1.2148 0.2787 0
M  V30 7 C 0.0321 -1.2052 0.1703 0
M  V30 8 C -1.3582 1.2179 0.0294 0
M  V30 9 C -1.3437 -1.2022 -0.0789 0
M  V30 10 C -2.0459 0.0093 -0.1492 0
M  V30 11 N -3.4528 0.0123 -0.4047 0
M  V30 12 H 2.9704 0.932 -1.3452 0
M  V30 13 H 2.9804 -0.7429 -1.4202 0
M  V30 14 H 0.5358 2.1565 0.4078 0
M  V30 15 H 0.5615 -2.1482 0.2149 0
M  V30 16 H -1.8874 2.1609 -0.0264 0
M  V30 17 H -1.8616 -2.1427 -0.2193 0
M  V30 18 H -3.9735 -0.8827 -0.5402 0
M  V30 19 H -3.9842 0.9099 -0.4599 0
M  V30 END ATOM
M  V30 BEGIN BOND
M  V30 1 2 1 2
M  V30 2 2 1 3
M  V30 3 1 1 4
M  V30 4 1 1 5
M  V30 5 2 5 6
M  V30 6 1 5 7
M  V30 7 1 6 8
M  V30 8 2 7 9
M  V30 9 2 8 10
M  V30 10 1 10 11
M  V30 11 1 9 10
M  V30 12 1 4 12
M  V30 13 1 4 13
M  V30 14 1 6 14
M  V30 15 1 7 15
M  V30 16 1 8 16
M  V30 17 1 9 17
M  V30 18 1 11 18
M  V30 19 1 11 19
M  V30 END BOND
M  V30 END CTAB
M  END
>  <Structure No>
8780

>  <LogS>
-1.34

>  <MMFF94 Energy>
-67.486

$$$$
Compound 8781
Actelion Java MolfileCreator 2.0

  0  0  0  0  0  0              0 V3000
M  V30 BEGIN CTAB
M  V30 COUNTS 11 10 0 0 0
M  V30 BEGIN ATOM
M  V30 1 O 3.1137 -0.0758 -0.2275 0
M  V30 2 C 2.036 0.3766 0.239 0
M  V30 3 C 0.755 -0.1925 -0.1919 0
M  V30 4 C -0.4012 0.2687 0.287 0
M  V30 5 C -1.7042 -0.3147 -0.1552 0
M  V30 6 H 2.0674 1.1861 0.9576 0
M  V30 7 H 0.7579 -1.0021 -0.9128 0
M  V30 8 H -0.4108 1.0782 1.0081 0
M  V30 9 H -1.7426 -1.3947 0.1006 0
M  V30 10 H -2.541 0.2049 0.3567 0
M  V30 11 H -1.8226 -0.1901 -1.2524 0
M  V30 END ATOM
M  V30 BEGIN BOND
M  V30 1 2 1 2
M  V30 2 1 2 3
M  V30 3 2 3 4
M  V30 4 1 4 5
M  V30 5 1 2 6
M  V30 6 1 3 7
M  V30 7 1 4 8
M  V30 8 1 5 9
M  V30 9 1 5 10
M  V30 10 1 5 11
M  V30 END BOND
M  V30 END CTAB
M  END
>  <Structure No>
8781

>  <LogS>
0.32

>  <MMFF94 Energy>
7.4615

$$$$
Compound 8782
Actelion Java MolfileCreator 2.0

  0  0  0  0  0  0              0 V3000
M  V30 BEGIN CTAB
M  V30 COUNTS 49 52 0 0 0
M  V30 BEGIN ATOM
M  V30 1 O -2.9177 2.0255 2.7554 0
M  V30 2 C -2.6312 1.4215 1.6878 0
M  V30 3 C -2.3026 -0.0079 1.7307 0
M  V30 4 C -2.5543 2.1824 0.4053 0
M  V30 5 C -2.0182 -0.7143 0.6221 0
M  V30 6 C -2.8518 1.2636 -0.7787 0
M  V30 7 C -2.079 -0.1072 -0.7804 0 CFG=1
M  V30 8 C -1.4669 -2.1161 0.7776 0
M  V30 9 C -0.5983 -0.0917 -1.3947 0 CFG=2
M  V30 10 C -2.9804 -1.0299 -1.6599 0
M  V30 11 C -0.375 -2.4343 -0.263 0
M  V30 12 C 0.3771 -1.1799 -0.7686 0 CFG=2
M  V30 13 C 0.1005 1.31 -1.5763 0
M  V30 14 C 1.2456 -0.5695 0.359 0 CFG=2
M  V30 15 C 1.0724 1.7507 -0.4546 0
M  V30 16 C 2.0664 0.6343 -0.1012 0 CFG=1
M  V30 17 C 2.2531 -1.4655 1.0748 0
M  V30 18 C 2.9034 0.9136 1.1641 0 CFG=1
M  V30 19 C 3.0166 0.3371 -1.3062 0
M  V30 20 C 3.2526 -0.4857 1.7115 0
M  V30 21 O 4.0579 1.6644 0.8862 0
M  V30 22 H -2.241 -0.481 2.704 0
M  V30 23 H -3.3071 3.001 0.4197 0
M  V30 24 H -1.5679 2.6628 0.3091 0
M  V30 25 H -3.9478 1.0681 -0.7138 0
M  V30 26 H -2.7303 1.8038 -1.7401 0
M  V30 27 H -2.2967 -2.8493 0.6893 0
M  V30 28 H -1.0189 -2.2434 1.7887 0
M  V30 29 H -0.7234 -0.4263 -2.4505 0
M  V30 30 H -2.535 -2.013 -1.8802 0
M  V30 31 H -3.9584 -1.219 -1.1644 0
M  V30 32 H -3.1804 -0.552 -2.6441 0
M  V30 33 H -0.803 -2.9795 -1.1264 0
M  V30 34 H 0.3426 -3.159 0.1772 0
M  V30 35 H 1.0534 -1.5468 -1.5691 0
M  V30 36 H -0.6126 2.1295 -1.7617 0
M  V30 37 H 0.6812 1.2819 -2.523 0
M  V30 38 H 0.5462 -0.2231 1.156 0
M  V30 39 H 0.5009 2.0331 0.4513 0
M  V30 40 H 1.6255 2.6579 -0.7825 0
M  V30 41 H 2.7689 -2.1325 0.3498 0
M  V30 42 H 1.7576 -2.0852 1.8538 0
M  V30 43 H 2.2796 1.4516 1.918 0
M  V30 44 H 3.5686 1.2578 -1.5918 0
M  V30 45 H 3.7669 -0.4405 -1.0537 0
M  V30 46 H 2.481 -0.004 -2.2114 0
M  V30 47 H 3.1619 -0.4968 2.8197 0
M  V30 48 H 4.2906 -0.7744 1.4352 0
M  V30 49 H 4.4536 1.907 1.7638 0
M  V30 END ATOM
M  V30 BEGIN BOND
M  V30 1 2 1 2
M  V30 2 1 2 3
M  V30 3 1 2 4
M  V30 4 2 3 5
M  V30 5 1 4 6
M  V30 6 1 5 7
M  V30 7 1 5 8
M  V30 8 1 7 9
M  V30 9 1 7 10
M  V30 10 1 8 11
M  V30 11 1 9 12
M  V30 12 1 9 13
M  V30 13 1 12 14
M  V30 14 1 13 15
M  V30 15 1 14 16
M  V30 16 1 14 17
M  V30 17 1 16 18
M  V30 18 1 16 19
M  V30 19 1 17 20
M  V30 20 1 18 21
M  V30 21 1 6 7
M  V30 22 1 11 12
M  V30 23 1 15 16
M  V30 24 1 18 20
M  V30 25 1 3 22
M  V30 26 1 4 23
M  V30 27 1 4 24
M  V30 28 1 6 25
M  V30 29 1 6 26
M  V30 30 1 8 27
M  V30 31 1 8 28
M  V30 32 1 9 29
M  V30 33 1 10 30
M  V30 34 1 10 31
M  V30 35 1 10 32
M  V30 36 1 11 33
M  V30 37 1 11 34
M  V30 38 1 12 35
M  V30 39 1 13 36
M  V30 40 1 13 37
M  V30 41 1 14 38
M  V30 42 1 15 39
M  V30 43 1 15 40
M  V30 44 1 17 41
M  V30 45 1 17 42
M  V30 46 1 18 43
M  V30 47 1 19 44
M  V30 48 1 19 45
M  V30 49 1 19 46
M  V30 50 1 20 47
M  V30 51 1 20 48
M  V30 52 1 21 49
M  V30 END BOND
M  V30 BEGIN COLLECTION
M  V30 MDLV30/STEABS ATOMS=(6 7 9 12 14 16 18)
M  V30 END COLLECTION
M  V30 END CTAB
M  END
>  <Structure No>
8782

>  <LogS>
-4.02

>  <MMFF94 Energy>
82.416

$$$$
Compound 8783
Actelion Java MolfileCreator 2.0

  0  0  0  0  0  0              0 V3000
M  V30 BEGIN CTAB
M  V30 COUNTS 54 57 0 0 0
M  V30 BEGIN ATOM
M  V30 1 O -5.7598 2.5117 -0.8097 0
M  V30 2 C -4.7552 1.8339 -0.4671 0
M  V30 3 C -4.1343 0.9189 -1.4386 0
M  V30 4 C -4.251 1.9206 0.9402 0
M  V30 5 C -3.0418 0.1906 -1.144 0
M  V30 6 C -2.7652 1.5508 1.0021 0
M  V30 7 C -2.429 0.2101 0.2603 0 CFG=2
M  V30 8 C -2.5878 -0.864 -2.1348 0
M  V30 9 C -0.8635 0.0118 0.1569 0 CFG=1
M  V30 10 C -3.0532 -0.9526 1.0816 0
M  V30 11 C -1.0642 -1.0346 -2.1563 0
M  V30 12 C -0.4974 -1.2061 -0.7307 0 CFG=1
M  V30 13 C -0.1137 1.2906 -0.3257 0
M  V30 14 C 1.0325 -1.5102 -0.7064 0 CFG=1
M  V30 15 C 1.2417 1.0632 -1.0254 0
M  V30 16 C 1.9627 -0.2583 -0.668 0 CFG=1
M  V30 17 C 1.4156 -2.357 0.5317 0
M  V30 18 C 2.5066 -0.2137 0.7784 0 CFG=1
M  V30 19 C 3.125 -0.459 -1.6782 0
M  V30 20 C 2.5847 -1.6661 1.2164 0
M  V30 21 O 3.7831 0.4259 0.8552 0
M  V30 22 C 4.4045 0.7608 2.0628 0
M  V30 23 O 3.8269 0.5574 3.1652 0
M  V30 24 C 5.7426 1.4167 2.041 0
M  V30 25 H -4.5966 0.831 -2.415 0
M  V30 26 H -4.3806 2.9591 1.3163 0
M  V30 27 H -4.8538 1.2573 1.5936 0
M  V30 28 H -2.4448 1.4922 2.0655 0
M  V30 29 H -2.2287 2.4101 0.554 0
M  V30 30 H -3.0619 -1.832 -1.8652 0
M  V30 31 H -2.9192 -0.61 -3.1661 0
M  V30 32 H -0.4948 -0.205 1.1839 0
M  V30 33 H -2.6096 -0.9964 2.0993 0
M  V30 34 H -4.1502 -0.8316 1.1857 0
M  V30 35 H -2.915 -1.9389 0.6001 0
M  V30 36 H -0.8234 -1.9354 -2.762 0
M  V30 37 H -0.6172 -0.1665 -2.6757 0
M  V30 38 H -0.9911 -2.1159 -0.3336 0
M  V30 39 H 0.0566 1.9513 0.5529 0
M  V30 40 H -0.7502 1.8546 -1.0421 0
M  V30 41 H 1.2577 -2.1327 -1.6027 0
M  V30 42 H 1.9104 1.9211 -0.79 0
M  V30 43 H 1.0879 1.1136 -2.1244 0
M  V30 44 H 0.5793 -2.4333 1.2613 0
M  V30 45 H 1.7007 -3.3897 0.2336 0
M  V30 46 H 1.7911 0.3194 1.4431 0
M  V30 47 H 3.7182 -1.3654 -1.4327 0
M  V30 48 H 3.8076 0.4178 -1.6816 0
M  V30 49 H 2.7275 -0.5797 -2.7093 0
M  V30 50 H 3.5413 -2.1197 0.8757 0
M  V30 51 H 2.5159 -1.7588 2.3222 0
M  V30 52 H 5.6159 2.5171 2.1089 0
M  V30 53 H 6.3546 1.0634 2.8975 0
M  V30 54 H 6.2705 1.1682 1.0965 0
M  V30 END ATOM
M  V30 BEGIN BOND
M  V30 1 2 1 2
M  V30 2 1 2 3
M  V30 3 1 2 4
M  V30 4 2 3 5
M  V30 5 1 4 6
M  V30 6 1 5 7
M  V30 7 1 5 8
M  V30 8 1 7 9
M  V30 9 1 7 10
M  V30 10 1 8 11
M  V30 11 1 9 12
M  V30 12 1 9 13
M  V30 13 1 12 14
M  V30 14 1 13 15
M  V30 15 1 14 16
M  V30 16 1 14 17
M  V30 17 1 16 18
M  V30 18 1 16 19
M  V30 19 1 17 20
M  V30 20 1 18 21
M  V30 21 1 21 22
M  V30 22 2 22 23
M  V30 23 1 22 24
M  V30 24 1 6 7
M  V30 25 1 11 12
M  V30 26 1 15 16
M  V30 27 1 18 20
M  V30 28 1 3 25
M  V30 29 1 4 26
M  V30 30 1 4 27
M  V30 31 1 6 28
M  V30 32 1 6 29
M  V30 33 1 8 30
M  V30 34 1 8 31
M  V30 35 1 9 32
M  V30 36 1 10 33
M  V30 37 1 10 34
M  V30 38 1 10 35
M  V30 39 1 11 36
M  V30 40 1 11 37
M  V30 41 1 12 38
M  V30 42 1 13 39
M  V30 43 1 13 40
M  V30 44 1 14 41
M  V30 45 1 15 42
M  V30 46 1 15 43
M  V30 47 1 17 44
M  V30 48 1 17 45
M  V30 49 1 18 46
M  V30 50 1 19 47
M  V30 51 1 19 48
M  V30 52 1 19 49
M  V30 53 1 20 50
M  V30 54 1 20 51
M  V30 55 1 24 52
M  V30 56 1 24 53
M  V30 57 1 24 54
M  V30 END BOND
M  V30 BEGIN COLLECTION
M  V30 MDLV30/STEABS ATOMS=(6 7 9 12 14 16 18)
M  V30 END COLLECTION
M  V30 END CTAB
M  END
>  <Structure No>
8783

>  <LogS>
-5.184

>  <MMFF94 Energy>
63.691

$$$$
Compound 8784
Actelion Java MolfileCreator 2.0

  0  0  0  0  0  0              0 V3000
M  V30 BEGIN CTAB
M  V30 COUNTS 41 42 0 0 0
M  V30 BEGIN ATOM
M  V30 1 Cl 1.7494 3.2507 0.8327 0
M  V30 2 C 2.4399 1.9699 -0.1622 0
M  V30 3 C 1.82 0.7746 -0.1656 0
M  V30 4 C 3.6803 2.2565 -0.9758 0
M  V30 5 C 2.3168 -0.4115 -0.9711 0 CFG=1
M  V30 6 F 4.1123 3.5516 -0.7559 0
M  V30 7 F 4.6951 1.3899 -0.6168 0
M  V30 8 F 3.4053 2.111 -2.3229 0
M  V30 9 C 3.1791 -1.4375 -0.2191 0
M  V30 10 C 1.7575 -1.8186 -0.6651 0 CFG=1
M  V30 11 C 3.4681 -1.2045 1.2772 0
M  V30 12 C 4.307 -2.0704 -1.041 0
M  V30 13 C 0.695 -1.956 0.3878 0
M  V30 14 O 0.874 -2.7341 1.3646 0
M  V30 15 O -0.5284 -1.3037 0.2142 0
M  V30 16 C -1.5835 -1.3805 1.165 0
M  V30 17 C -2.6997 -0.4699 0.7341 0
M  V30 18 C -2.7154 0.8758 1.1424 0
M  V30 19 C -3.6927 -0.9323 -0.1466 0
M  V30 20 F -1.7369 1.3625 1.9484 0
M  V30 21 C -3.7359 1.7322 0.715 0
M  V30 22 F -3.6704 -2.2134 -0.5964 0
M  V30 23 C -4.7114 -0.0749 -0.5768 0
M  V30 24 F -3.7286 3.0278 1.1218 0
M  V30 25 C -4.7518 1.2585 -0.1326 0
M  V30 26 F -5.6548 -0.5451 -1.4323 0
M  V30 27 C -5.8253 2.1929 -0.6169 0
M  V30 28 H 0.9285 0.6737 0.441 0
M  V30 29 H 2.5357 -0.2586 -2.0494 0
M  V30 30 H 1.6859 -2.4861 -1.5505 0
M  V30 31 H 3.7188 -2.1736 1.7584 0
M  V30 32 H 2.6148 -0.7538 1.825 0
M  V30 33 H 4.3387 -0.5238 1.3817 0
M  V30 34 H 5.2176 -1.4385 -0.9703 0
M  V30 35 H 4.5361 -3.0784 -0.6368 0
M  V30 36 H 4.0353 -2.1753 -2.1138 0
M  V30 37 H -1.2082 -1.0807 2.1685 0
M  V30 38 H -1.9429 -2.4298 1.2432 0
M  V30 39 H -6.1044 2.9151 0.1801 0
M  V30 40 H -6.7448 1.6371 -0.8982 0
M  V30 41 H -5.4561 2.7528 -1.5017 0
M  V30 END ATOM
M  V30 BEGIN BOND
M  V30 1 1 1 2
M  V30 2 2 2 3
M  V30 3 1 2 4
M  V30 4 1 3 5
M  V30 5 1 4 6
M  V30 6 1 4 7
M  V30 7 1 4 8
M  V30 8 1 5 9
M  V30 9 1 5 10
M  V30 10 1 9 11
M  V30 11 1 9 12
M  V30 12 1 10 13
M  V30 13 2 13 14
M  V30 14 1 13 15
M  V30 15 1 15 16
M  V30 16 1 16 17
M  V30 17 2 17 18
M  V30 18 1 17 19
M  V30 19 1 18 20
M  V30 20 1 18 21
M  V30 21 1 19 22
M  V30 22 2 19 23
M  V30 23 1 21 24
M  V30 24 2 21 25
M  V30 25 1 23 26
M  V30 26 1 25 27
M  V30 27 1 9 10
M  V30 28 1 23 25
M  V30 29 1 3 28
M  V30 30 1 5 29
M  V30 31 1 10 30
M  V30 32 1 11 31
M  V30 33 1 11 32
M  V30 34 1 11 33
M  V30 35 1 12 34
M  V30 36 1 12 35
M  V30 37 1 12 36
M  V30 38 1 16 37
M  V30 39 1 16 38
M  V30 40 1 27 39
M  V30 41 1 27 40
M  V30 42 1 27 41
M  V30 END BOND
M  V30 BEGIN COLLECTION
M  V30 MDLV30/STEABS ATOMS=(2 5 10)
M  V30 END COLLECTION
M  V30 END CTAB
M  END
>  <Structure No>
8784

>  <LogS>
-7.321

>  <MMFF94 Energy>
48.5

$$$$
Compound 8785
Actelion Java MolfileCreator 2.0

  0  0  0  0  0  0              0 V3000
M  V30 BEGIN CTAB
M  V30 COUNTS 27 27 0 0 0
M  V30 BEGIN ATOM
M  V30 1 C 1.0158 0.1562 0.8594 0
M  V30 2 C 1.5428 1.3817 0.4158 0
M  V30 3 C 1.7962 -1.0073 0.7445 0
M  V30 4 C -0.3704 0.092 1.461 0
M  V30 5 C 2.8228 1.4381 -0.144 0
M  V30 6 C 3.0757 -0.9463 0.184 0
M  V30 7 C -1.5081 -0.1704 0.43 0
M  V30 8 C 3.5881 0.275 -0.2609 0
M  V30 9 C -2.8513 -0.2084 1.1884 0
M  V30 10 C -1.3077 -1.525 -0.2812 0
M  V30 11 C -1.5708 0.9562 -0.6226 0
M  V30 12 H 0.9617 2.2916 0.5009 0
M  V30 13 H 1.4127 -1.9608 1.086 0
M  V30 14 H -0.5723 1.045 1.9994 0
M  V30 15 H -0.387 -0.7028 2.24 0
M  V30 16 H 3.2215 2.3842 -0.4868 0
M  V30 17 H 3.6702 -1.8463 0.0952 0
M  V30 18 H 4.5788 0.3204 -0.6944 0
M  V30 19 H -3.6958 -0.3941 0.4897 0
M  V30 20 H -3.0372 0.7574 1.7063 0
M  V30 21 H -2.8489 -1.0177 1.9505 0
M  V30 22 H -2.1726 -1.7522 -0.9414 0
M  V30 23 H -1.2105 -2.3463 0.461 0
M  V30 24 H -0.3967 -1.5116 -0.9159 0
M  V30 25 H -1.6658 1.9478 -0.1295 0
M  V30 26 H -2.445 0.8158 -1.2947 0
M  V30 27 H -0.659 0.9618 -1.2562 0
M  V30 END ATOM
M  V30 BEGIN BOND
M  V30 1 2 1 2
M  V30 2 1 1 3
M  V30 3 1 1 4
M  V30 4 1 2 5
M  V30 5 2 3 6
M  V30 6 1 4 7
M  V30 7 2 5 8
M  V30 8 1 7 9
M  V30 9 1 7 10
M  V30 10 1 7 11
M  V30 11 1 6 8
M  V30 12 1 2 12
M  V30 13 1 3 13
M  V30 14 1 4 14
M  V30 15 1 4 15
M  V30 16 1 5 16
M  V30 17 1 6 17
M  V30 18 1 8 18
M  V30 19 1 9 19
M  V30 20 1 9 20
M  V30 21 1 9 21
M  V30 22 1 10 22
M  V30 23 1 10 23
M  V30 24 1 10 24
M  V30 25 1 11 25
M  V30 26 1 11 26
M  V30 27 1 11 27
M  V30 END BOND
M  V30 END CTAB
M  END
>  <Structure No>
8785

>  <LogS>
-4.15

>  <MMFF94 Energy>
32.287

$$$$
Compound 8786
Actelion Java MolfileCreator 2.0

  0  0  0  0  0  0              0 V3000
M  V30 BEGIN CTAB
M  V30 COUNTS 30 32 0 0 0
M  V30 BEGIN ATOM
M  V30 1 N -3.5229 0.3198 -0.8798 0
M  V30 2 C -4.3304 -0.384 -0.0416 0
M  V30 3 C -2.1776 0.3284 -0.7019 0
M  V30 4 N -3.792 -1.0886 0.991 0
M  V30 5 N -5.7415 -0.3826 -0.2437 0
M  V30 6 N -1.3778 1.0414 -1.5339 0
M  V30 7 C -1.6047 -0.3911 0.3557 0
M  V30 8 C -2.4498 -1.1105 1.2118 0
M  V30 9 C -0.0262 1.0672 -1.3752 0
M  V30 10 N -0.2561 -0.3789 0.516 0
M  V30 11 N -1.929 -1.8653 2.3089 0
M  V30 12 N 0.7534 1.8999 -2.2394 0
M  V30 13 C 0.5575 0.3175 -0.3248 0
M  V30 14 C 2.0174 0.2415 -0.1089 0
M  V30 15 C 2.882 -0.1294 -1.1537 0
M  V30 16 C 2.5467 0.4676 1.1724 0
M  V30 17 C 4.2577 -0.2341 -0.9263 0
M  V30 18 C 3.9232 0.3617 1.3955 0
M  V30 19 C 4.7783 0.0146 0.3463 0
M  V30 20 H -6.3677 -0.9201 0.3958 0
M  V30 21 H -6.162 0.1558 -1.0332 0
M  V30 22 H -2.5774 -2.3945 2.9334 0
M  V30 23 H -0.9049 -1.9034 2.5088 0
M  V30 24 H 0.2939 2.3927 -3.0371 0
M  V30 25 H 1.7557 2.1153 -2.0471 0
M  V30 26 H 2.4906 -0.3466 -2.1399 0
M  V30 27 H 1.8952 0.734 1.9958 0
M  V30 28 H 4.9194 -0.5148 -1.7355 0
M  V30 29 H 4.3264 0.5463 2.3828 0
M  V30 30 H 5.8432 -0.0684 0.521 0
M  V30 END ATOM
M  V30 BEGIN BOND
M  V30 1 2 1 2
M  V30 2 1 1 3
M  V30 3 1 2 4
M  V30 4 1 2 5
M  V30 5 2 3 6
M  V30 6 1 3 7
M  V30 7 2 4 8
M  V30 8 1 6 9
M  V30 9 2 7 10
M  V30 10 1 8 11
M  V30 11 1 9 12
M  V30 12 2 9 13
M  V30 13 1 13 14
M  V30 14 2 14 15
M  V30 15 1 14 16
M  V30 16 1 15 17
M  V30 17 2 16 18
M  V30 18 2 17 19
M  V30 19 1 7 8
M  V30 20 1 10 13
M  V30 21 1 18 19
M  V30 22 1 5 20
M  V30 23 1 5 21
M  V30 24 1 11 22
M  V30 25 1 11 23
M  V30 26 1 12 24
M  V30 27 1 12 25
M  V30 28 1 15 26
M  V30 29 1 16 27
M  V30 30 1 17 28
M  V30 31 1 18 29
M  V30 32 1 19 30
M  V30 END BOND
M  V30 END CTAB
M  END
>  <Structure No>
8786

>  <LogS>
-2.404

>  <MMFF94 Energy>
-11.946

$$$$
Compound 8787
Actelion Java MolfileCreator 2.0

  0  0  0  0  0  0              0 V3000
M  V30 BEGIN CTAB
M  V30 COUNTS 6 5 0 0 0
M  V30 BEGIN ATOM
M  V30 1 Cl -0.3978 -1.5918 0.9947 0
M  V30 2 C -0.4057 -0.0444 0.1186 0
M  V30 3 Cl -1.4357 -0.1861 -1.3238 0
M  V30 4 Cl -1.0442 1.2325 1.1786 0
M  V30 5 C 0.959 0.2943 -0.2868 0
M  V30 6 N 2.0382 0.5623 -0.6074 0
M  V30 END ATOM
M  V30 BEGIN BOND
M  V30 1 1 1 2
M  V30 2 1 2 3
M  V30 3 1 2 4
M  V30 4 1 2 5
M  V30 5 3 5 6
M  V30 END BOND
M  V30 END CTAB
M  END
>  <Structure No>
8787

>  <LogS>
-2.168

>  <MMFF94 Energy>
32.728

$$$$
Compound 8788
Actelion Java MolfileCreator 2.0

  0  0  0  0  0  0              0 V3000
M  V30 BEGIN CTAB
M  V30 COUNTS 32 32 0 0 0
M  V30 BEGIN ATOM
M  V30 1 Cl 2.5998 -2.9468 -0.0865 0
M  V30 2 C 3.0091 -1.7002 1.1259 0
M  V30 3 Cl 2.0719 -2.0375 2.6067 0
M  V30 4 Cl 4.7366 -1.8752 1.5394 0
M  V30 5 C 2.7318 -0.2613 0.6189 0 CFG=2
M  V30 6 N 1.2963 -0.0431 0.3579 0
M  V30 7 N 3.5218 0.0531 -0.5792 0
M  V30 8 C 0.4764 0.5788 1.366 0
M  V30 9 C 0.6926 -0.4504 -0.8867 0
M  V30 10 C 3.613 1.3833 -1.0995 0
M  V30 11 C -0.8262 0.7701 1.1537 0
M  V30 12 C -0.6095 -0.2578 -1.0996 0
M  V30 13 O 3.0077 2.338 -0.5435 0
M  V30 14 N -1.4298 0.3642 -0.0896 0
M  V30 15 C -2.8691 0.6 -0.3119 0 CFG=2
M  V30 16 N -3.4809 -0.5619 -0.9704 0
M  V30 17 C -3.1185 1.9066 -1.1088 0
M  V30 18 C -3.5844 -1.8335 -0.3217 0
M  V30 19 Cl -4.8726 2.2075 -1.247 0
M  V30 20 Cl -2.4344 1.8467 -2.7579 0
M  V30 21 Cl -2.4049 3.3065 -0.2624 0
M  V30 22 O -3.1449 -2.0006 0.847 0
M  V30 23 H 3.065 0.4315 1.425 0
M  V30 24 H 4.0534 -0.6967 -1.0752 0
M  V30 25 H 0.9103 0.893 2.3076 0
M  V30 26 H 1.2899 -0.912 -1.6627 0
M  V30 27 H 4.2088 1.5737 -1.9822 0
M  V30 28 H -1.4248 1.2385 1.9256 0
M  V30 29 H -1.0422 -0.579 -2.0386 0
M  V30 30 H -3.3743 0.7251 0.6729 0
M  V30 31 H -3.8723 -0.479 -1.9355 0
M  V30 32 H -4.0458 -2.6634 -0.84 0
M  V30 END ATOM
M  V30 BEGIN BOND
M  V30 1 1 1 2
M  V30 2 1 2 3
M  V30 3 1 2 4
M  V30 4 1 2 5
M  V30 5 1 5 6
M  V30 6 1 5 7
M  V30 7 1 6 8
M  V30 8 1 6 9
M  V30 9 1 7 10
M  V30 10 2 8 11
M  V30 11 2 9 12
M  V30 12 2 10 13
M  V30 13 1 11 14
M  V30 14 1 14 15
M  V30 15 1 15 16
M  V30 16 1 15 17
M  V30 17 1 16 18
M  V30 18 1 17 19
M  V30 19 1 17 20
M  V30 20 1 17 21
M  V30 21 2 18 22
M  V30 22 1 12 14
M  V30 23 1 5 23
M  V30 24 1 7 24
M  V30 25 1 8 25
M  V30 26 1 9 26
M  V30 27 1 10 27
M  V30 28 1 11 28
M  V30 29 1 12 29
M  V30 30 1 15 30
M  V30 31 1 16 31
M  V30 32 1 18 32
M  V30 END BOND
M  V30 BEGIN COLLECTION
M  V30 MDLV30/STEABS ATOMS=(2 5 15)
M  V30 END COLLECTION
M  V30 END CTAB
M  END
>  <Structure No>
8788

>  <LogS>
-4.19

>  <MMFF94 Energy>
87.599

$$$$
Compound 8789
Actelion Java MolfileCreator 2.0

  0  0  0  0  0  0              0 V3000
M  V30 BEGIN CTAB
M  V30 COUNTS 27 28 0 0 0
M  V30 BEGIN ATOM
M  V30 1 Cl 5.0826 -2.164 -0.5822 0
M  V30 2 C 3.9141 -0.9487 -0.0973 0
M  V30 3 C 4.3305 0.1689 0.6317 0
M  V30 4 C 2.5651 -1.101 -0.436 0
M  V30 5 C 3.3992 1.135 1.0236 0
M  V30 6 C 1.6211 -0.1355 -0.0463 0
M  V30 7 Cl 3.9241 2.5404 1.9327 0
M  V30 8 C 2.0497 0.9841 0.6867 0
M  V30 9 N 0.2338 -0.2907 -0.3928 0
M  V30 10 C -0.3224 -0.8239 -1.5836 0
M  V30 11 C -0.9116 0.0478 0.3813 0
M  V30 12 O 0.3601 -1.2154 -2.5663 0
M  V30 13 O -1.7103 -0.8239 -1.5733 0
M  V30 14 O -0.8482 0.4979 1.5571 0
M  V30 15 C -2.1935 -0.2685 -0.3472 0 CFG=2
M  V30 16 C -2.991 0.9824 -0.6416 0
M  V30 17 C -3.0216 -1.3219 0.3974 0
M  V30 18 C -3.516 1.75 0.3205 0
M  V30 19 H 5.3746 0.2862 0.8932 0
M  V30 20 H 2.2529 -1.9812 -0.9822 0
M  V30 21 H 1.3425 1.7495 0.9782 0
M  V30 22 H -3.1443 1.2734 -1.6769 0
M  V30 23 H -2.4268 -2.2506 0.5335 0
M  V30 24 H -3.3279 -0.9514 1.3986 0
M  V30 25 H -3.9328 -1.5722 -0.1866 0
M  V30 26 H -3.39 1.5043 1.3698 0
M  V30 27 H -4.0799 2.6388 0.0568 0
M  V30 END ATOM
M  V30 BEGIN BOND
M  V30 1 1 1 2
M  V30 2 2 2 3
M  V30 3 1 2 4
M  V30 4 1 3 5
M  V30 5 2 4 6
M  V30 6 1 5 7
M  V30 7 2 5 8
M  V30 8 1 6 9
M  V30 9 1 9 10
M  V30 10 1 9 11
M  V30 11 2 10 12
M  V30 12 1 10 13
M  V30 13 2 11 14
M  V30 14 1 11 15
M  V30 15 1 15 16
M  V30 16 1 15 17
M  V30 17 2 16 18
M  V30 18 1 6 8
M  V30 19 1 13 15
M  V30 20 1 3 19
M  V30 21 1 4 20
M  V30 22 1 8 21
M  V30 23 1 16 22
M  V30 24 1 17 23
M  V30 25 1 17 24
M  V30 26 1 17 25
M  V30 27 1 18 26
M  V30 28 1 18 27
M  V30 END BOND
M  V30 BEGIN COLLECTION
M  V30 MDLV30/STEABS ATOMS=(1 15)
M  V30 END COLLECTION
M  V30 END CTAB
M  END
>  <Structure No>
8789

>  <LogS>
-4.925

>  <MMFF94 Energy>
5.6545

$$$$
Compound 8790
Actelion Java MolfileCreator 2.0

  0  0  0  0  0  0              0 V3000
M  V30 BEGIN CTAB
M  V30 COUNTS 49 52 0 0 0
M  V30 BEGIN ATOM
M  V30 1 O 4.3962 -1.5451 -2.6848 0
M  V30 2 C 3.8166 -0.9438 -1.7412 0
M  V30 3 C 4.6068 -0.0549 -0.8487 0
M  V30 4 C 2.3188 -1.1104 -1.5781 0
M  V30 5 O 5.8454 0.0735 -1.0408 0
M  V30 6 C 3.9694 0.6651 0.3159 0
M  V30 7 C 1.8381 -0.7125 -0.1569 0 CFG=1
M  V30 8 C 2.4459 0.7117 0.1364 0 CFG=1
M  V30 9 C 0.2637 -0.6492 -0.0269 0 CFG=1
M  V30 10 C 2.3532 -1.7825 0.8551 0
M  V30 11 C 1.6909 1.4513 1.2649 0
M  V30 12 C -0.2798 0.7895 -0.2638 0 CFG=2
M  V30 13 C -0.547 -1.7015 -0.8261 0
M  V30 14 C 0.2053 1.7172 0.879 0
M  V30 15 C -1.8031 0.7836 -0.5589 0 CFG=1
M  V30 16 C -2.0513 -1.7296 -0.4096 0
M  V30 17 C -2.6017 -0.3509 0.0916 0 CFG=2
M  V30 18 C -2.6342 2.0424 -0.3657 0
M  V30 19 C -4.0208 -0.0111 -0.4031 0
M  V30 20 C -2.6317 -0.2974 1.6501 0
M  V30 21 C -4.0838 1.5312 -0.4298 0
M  V30 22 H 1.8162 -0.4734 -2.3376 0
M  V30 23 H 2.049 -2.1668 -1.7946 0
M  V30 24 H 4.3663 1.7029 0.3598 0
M  V30 25 H 4.2416 0.1618 1.2674 0
M  V30 26 H 2.3117 1.3513 -0.7669 0
M  V30 27 H 0.0587 -0.8907 1.0314 0
M  V30 28 H 3.4356 -1.9939 0.74 0
M  V30 29 H 2.1793 -1.4575 1.9022 0
M  V30 30 H 1.8246 -2.7471 0.7047 0
M  V30 31 H 2.1885 2.4223 1.4781 0
M  V30 32 H 1.7318 0.8486 2.1971 0
M  V30 33 H 0.1778 1.1755 -1.2022 0
M  V30 34 H -0.4764 -1.4681 -1.9107 0
M  V30 35 H -0.1176 -2.7142 -0.6753 0
M  V30 36 H 0.0999 2.7732 0.5473 0
M  V30 37 H -0.4292 1.5858 1.7802 0
M  V30 38 H -1.86 0.5945 -1.6619 0
M  V30 39 H -2.1894 -2.5011 0.3792 0
M  V30 40 H -2.6345 -2.0859 -1.2857 0
M  V30 41 H -2.4299 2.7853 -1.1673 0
M  V30 42 H -2.4368 2.509 0.6225 0
M  V30 43 H -4.8189 -0.4395 0.2424 0
M  V30 44 H -4.1772 -0.3908 -1.4373 0
M  V30 45 H -3.006 0.6787 2.0219 0
M  V30 46 H -1.656 -0.4718 2.128 0
M  V30 47 H -3.3179 -1.0806 2.0378 0
M  V30 48 H -4.6596 1.9084 0.4433 0
M  V30 49 H -4.5802 1.8793 -1.3617 0
M  V30 END ATOM
M  V30 BEGIN BOND
M  V30 1 2 1 2
M  V30 2 1 2 3
M  V30 3 1 2 4
M  V30 4 2 3 5
M  V30 5 1 3 6
M  V30 6 1 4 7
M  V30 7 1 6 8
M  V30 8 1 7 9
M  V30 9 1 7 10
M  V30 10 1 8 11
M  V30 11 1 9 12
M  V30 12 1 9 13
M  V30 13 1 11 14
M  V30 14 1 12 15
M  V30 15 1 13 16
M  V30 16 1 15 17
M  V30 17 1 15 18
M  V30 18 1 17 19
M  V30 19 1 17 20
M  V30 20 1 18 21
M  V30 21 1 7 8
M  V30 22 1 12 14
M  V30 23 1 16 17
M  V30 24 1 19 21
M  V30 25 1 4 22
M  V30 26 1 4 23
M  V30 27 1 6 24
M  V30 28 1 6 25
M  V30 29 1 8 26
M  V30 30 1 9 27
M  V30 31 1 10 28
M  V30 32 1 10 29
M  V30 33 1 10 30
M  V30 34 1 11 31
M  V30 35 1 11 32
M  V30 36 1 12 33
M  V30 37 1 13 34
M  V30 38 1 13 35
M  V30 39 1 14 36
M  V30 40 1 14 37
M  V30 41 1 15 38
M  V30 42 1 16 39
M  V30 43 1 16 40
M  V30 44 1 18 41
M  V30 45 1 18 42
M  V30 46 1 19 43
M  V30 47 1 19 44
M  V30 48 1 20 45
M  V30 49 1 20 46
M  V30 50 1 20 47
M  V30 51 1 21 48
M  V30 52 1 21 49
M  V30 END BOND
M  V30 BEGIN COLLECTION
M  V30 MDLV30/STEABS ATOMS=(6 7 8 9 12 15 17)
M  V30 END COLLECTION
M  V30 END CTAB
M  END
>  <Structure No>
8790

>  <LogS>
-3.76

>  <MMFF94 Energy>
109.27

$$$$
Compound 8791
Actelion Java MolfileCreator 2.0

  0  0  0  0  0  0              0 V3000
M  V30 BEGIN CTAB
M  V30 COUNTS 73 76 0 0 0
M  V30 BEGIN ATOM
M  V30 1 F 3.3319 -0.6494 -1.7055 0
M  V30 2 C 2.4449 0.2815 -1.1642 0 CFG=1
M  V30 3 C 3.2806 1.6047 -0.9089 0 CFG=2
M  V30 4 C 1.2569 0.3209 -2.2318 0 CFG=2
M  V30 5 C 2.0259 -0.2673 0.2431 0 CFG=1
M  V30 6 C 4.1766 1.3979 0.3389 0
M  V30 7 C 2.373 2.8162 -0.7004 0
M  V30 8 C 4.2331 1.9186 -2.088 0
M  V30 9 O 1.4107 1.3782 -3.1426 0
M  V30 10 C -0.2247 0.2732 -1.7273 0
M  V30 11 C 0.8128 -1.1847 0.0838 0 CFG=2
M  V30 12 C 3.2491 -0.8958 0.9513 0
M  V30 13 C 4.5883 2.4478 1.068 0
M  V30 14 C 4.518 -0.0135 0.7926 0
M  V30 15 C 2.7661 3.8613 0.0351 0
M  V30 16 C -0.4541 -0.3887 -0.3219 0 CFG=2
M  V30 17 C 0.3735 -2.0882 1.2245 0
M  V30 18 C 3.9832 3.7671 0.8518 0
M  V30 19 C -1.6011 -1.5061 -0.1957 0 CFG=2
M  V30 20 C -0.7081 0.8131 0.6565 0
M  V30 21 C -0.951 -2.6497 0.6873 0 CFG=2
M  V30 22 O 4.4544 4.7869 1.4175 0
M  V30 23 O -1.9827 -2.0446 -1.4872 0
M  V30 24 C -2.9312 -0.9456 0.3735 0
M  V30 25 C -1.7906 -3.3503 1.7664 0
M  V30 26 C -1.245 -2.7468 -2.4581 0
M  V30 27 O -3.8287 -0.6792 -0.4162 0
M  V30 28 C -3.2193 -0.6726 1.8371 0
M  V30 29 O -0.0714 -3.1525 -2.2508 0
M  V30 30 C -1.8817 -3.0197 -3.7851 0
M  V30 31 O -3.961 0.5427 1.9661 0
M  V30 32 C -2.2918 -4.4867 -3.9065 0
M  V30 33 C -3.4847 1.7001 2.6 0
M  V30 34 O -2.4097 1.6861 3.2635 0
M  V30 35 C -4.2855 2.958 2.5179 0
M  V30 36 C -4.8998 3.3018 3.8717 0
M  V30 37 H 1.3593 -0.6293 -2.8125 0
M  V30 38 H 1.7567 0.5705 0.912 0
M  V30 39 H 1.4451 2.9091 -1.2455 0
M  V30 40 H 3.6886 2.097 -3.0365 0
M  V30 41 H 4.8264 2.8346 -1.8734 0
M  V30 42 H 4.9575 1.0899 -2.247 0
M  V30 43 H 0.9157 1.1331 -3.9716 0
M  V30 44 H -0.6275 1.3117 -1.7413 0
M  V30 45 H -0.8354 -0.2105 -2.5112 0
M  V30 46 H 1.106 -1.8811 -0.7262 0
M  V30 47 H 3.0166 -1.0132 2.0324 0
M  V30 48 H 3.4552 -1.9103 0.5445 0
M  V30 49 H 5.2597 2.3148 1.9095 0
M  V30 50 H 5.0832 -0.0114 1.7512 0
M  V30 51 H 5.1894 -0.4641 0.0316 0
M  V30 52 H 2.158 4.7566 0.073 0
M  V30 53 H 0.2261 -1.5157 2.1655 0
M  V30 54 H 1.1097 -2.9029 1.406 0
M  V30 55 H -1.7036 1.2709 0.4761 0
M  V30 56 H -0.599 0.5303 1.7198 0
M  V30 57 H -0.0115 1.66 0.4773 0
M  V30 58 H -0.6706 -3.484 0.0141 0
M  V30 59 H -2.8187 -3.54 1.3984 0
M  V30 60 H -1.3388 -4.3367 2.0033 0
M  V30 61 H -1.8114 -2.7869 2.7179 0
M  V30 62 H -2.3025 -0.6531 2.4543 0
M  V30 63 H -3.8671 -1.4902 2.2176 0
M  V30 64 H -2.7778 -2.3732 -3.9104 0
M  V30 65 H -1.1591 -2.7719 -4.596 0
M  V30 66 H -3.0094 -4.7577 -3.0974 0
M  V30 67 H -1.3964 -5.1477 -3.8479 0
M  V30 68 H -2.7837 -4.6484 -4.8906 0
M  V30 69 H -3.6288 3.7914 2.1856 0
M  V30 70 H -5.0914 2.8367 1.7631 0
M  V30 71 H -4.0979 3.5358 4.6078 0
M  V30 72 H -5.5588 4.1929 3.7666 0
M  V30 73 H -5.511 2.451 4.251 0
M  V30 END ATOM
M  V30 BEGIN BOND
M  V30 1 1 1 2
M  V30 2 1 2 3
M  V30 3 1 2 4
M  V30 4 1 2 5
M  V30 5 1 3 6
M  V30 6 1 3 7
M  V30 7 1 3 8
M  V30 8 1 4 9
M  V30 9 1 4 10
M  V30 10 1 5 11
M  V30 11 1 5 12
M  V30 12 2 6 13
M  V30 13 1 6 14
M  V30 14 2 7 15
M  V30 15 1 10 16
M  V30 16 1 11 17
M  V30 17 1 13 18
M  V30 18 1 16 19
M  V30 19 1 16 20
M  V30 20 1 17 21
M  V30 21 2 18 22
M  V30 22 1 19 23
M  V30 23 1 19 24
M  V30 24 1 21 25
M  V30 25 1 23 26
M  V30 26 2 24 27
M  V30 27 1 24 28
M  V30 28 2 26 29
M  V30 29 1 26 30
M  V30 30 1 28 31
M  V30 31 1 30 32
M  V30 32 1 31 33
M  V30 33 2 33 34
M  V30 34 1 33 35
M  V30 35 1 35 36
M  V30 36 1 11 16
M  V30 37 1 12 14
M  V30 38 1 15 18
M  V30 39 1 19 21
M  V30 40 1 4 37
M  V30 41 1 5 38
M  V30 42 1 7 39
M  V30 43 1 8 40
M  V30 44 1 8 41
M  V30 45 1 8 42
M  V30 46 1 9 43
M  V30 47 1 10 44
M  V30 48 1 10 45
M  V30 49 1 11 46
M  V30 50 1 12 47
M  V30 51 1 12 48
M  V30 52 1 13 49
M  V30 53 1 14 50
M  V30 54 1 14 51
M  V30 55 1 15 52
M  V30 56 1 17 53
M  V30 57 1 17 54
M  V30 58 1 20 55
M  V30 59 1 20 56
M  V30 60 1 20 57
M  V30 61 1 21 58
M  V30 62 1 25 59
M  V30 63 1 25 60
M  V30 64 1 25 61
M  V30 65 1 28 62
M  V30 66 1 28 63
M  V30 67 1 30 64
M  V30 68 1 30 65
M  V30 69 1 32 66
M  V30 70 1 32 67
M  V30 71 1 32 68
M  V30 72 1 35 69
M  V30 73 1 35 70
M  V30 74 1 36 71
M  V30 75 1 36 72
M  V30 76 1 36 73
M  V30 END BOND
M  V30 BEGIN COLLECTION
M  V30 MDLV30/STEABS ATOMS=(8 2 3 4 5 11 16 19 21)
M  V30 END COLLECTION
M  V30 END CTAB
M  END
>  <Structure No>
8791

>  <LogS>
-3.77

>  <MMFF94 Energy>
145.24

$$$$
Compound 8792
Actelion Java MolfileCreator 2.0

  0  0  0  0  0  0              0 V3000
M  V30 BEGIN CTAB
M  V30 COUNTS 74 77 0 0 0
M  V30 BEGIN ATOM
M  V30 1 O 6.8954 2.7217 -1.8405 0
M  V30 2 C 5.8949 2.0439 -1.1228 0 CFG=2
M  V30 3 C 5.5185 0.7319 -1.8228 0
M  V30 4 C 4.6625 2.9394 -0.9324 0
M  V30 5 C 4.3856 0.0406 -1.0859 0
M  V30 6 C 3.5806 2.2166 -0.115 0
M  V30 7 C 4.4553 -1.2935 -0.9098 0
M  V30 8 C 3.1301 0.8493 -0.7249 0 CFG=2
M  V30 9 C 3.4739 -2.0727 -0.0866 0
M  V30 10 C 2.2502 0.0794 0.3423 0 CFG=2
M  V30 11 C 2.3346 1.1082 -2.0351 0
M  V30 12 C 2.0769 -1.4194 -0.0049 0 CFG=2
M  V30 13 C 0.8713 0.7277 0.5685 0
M  V30 14 C 1.1926 -2.1949 1.0406 0 CFG=1
M  V30 15 C 0.1304 0.0337 1.7036 0
M  V30 16 C -0.1284 -1.4819 1.4604 0 CFG=1
M  V30 17 C 0.7115 -3.5202 0.4383 0
M  V30 18 C -1.1099 -1.8345 0.2885 0 CFG=1
M  V30 19 C -0.6231 -2.0967 2.8023 0
M  V30 20 C -0.6689 -3.25 -0.1508 0
M  V30 21 C -2.668 -1.7705 0.5256 0 CFG=1
M  V30 22 C -3.1458 -0.3652 0.9866 0
M  V30 23 C -3.4055 -2.1836 -0.771 0
M  V30 24 C -4.6777 -0.1978 1.1387 0
M  V30 25 C -5.3606 0.5143 -0.049 0
M  V30 26 C -5.0227 2.0198 -0.1977 0
M  V30 27 C -5.6861 2.5746 -1.4661 0
M  V30 28 C -5.4654 2.8428 1.0234 0
M  V30 29 H 6.5261 2.9435 -2.7358 0
M  V30 30 H 6.309 1.7981 -0.1192 0
M  V30 31 H 5.2093 0.928 -2.8714 0
M  V30 32 H 6.4267 0.0906 -1.8627 0
M  V30 33 H 4.2544 3.2539 -1.9165 0
M  V30 34 H 4.9646 3.8617 -0.3908 0
M  V30 35 H 2.7166 2.9075 -0.0209 0
M  V30 36 H 3.9816 2.0563 0.9107 0
M  V30 37 H 5.3376 -1.8322 -1.2455 0
M  V30 38 H 3.4058 -3.089 -0.5241 0
M  V30 39 H 3.9055 -2.1761 0.9329 0
M  V30 40 H 2.794 0.1177 1.3153 0
M  V30 41 H 1.5044 1.826 -1.8705 0
M  V30 42 H 1.9178 0.1688 -2.4492 0
M  V30 43 H 2.9755 1.5485 -2.825 0
M  V30 44 H 1.5929 -1.4998 -1.002 0
M  V30 45 H 0.9905 1.7925 0.8544 0
M  V30 46 H 0.2527 0.7016 -0.3495 0
M  V30 47 H 1.8136 -2.3953 1.9434 0
M  V30 48 H 0.7414 0.1536 2.6266 0
M  V30 49 H -0.7965 0.5964 1.895 0
M  V30 50 H 1.3839 -3.935 -0.3397 0
M  V30 51 H 0.6349 -4.2846 1.243 0
M  V30 52 H -0.8908 -1.1596 -0.5648 0
M  V30 53 H -0.8887 -3.1679 2.6929 0
M  V30 54 H -1.5136 -1.5693 3.1938 0
M  V30 55 H 0.1646 -2.0214 3.582 0
M  V30 56 H -1.3691 -4.0316 0.2203 0
M  V30 57 H -0.6285 -3.3116 -1.2612 0
M  V30 58 H -2.9447 -2.504 1.3146 0
M  V30 59 H -2.7142 0.4084 0.3209 0
M  V30 60 H -2.7515 -0.188 2.0009 0
M  V30 61 H -4.4974 -2.2813 -0.6025 0
M  V30 62 H -3.2195 -1.4409 -1.5763 0
M  V30 63 H -3.0799 -3.1786 -1.1343 0
M  V30 64 H -4.8984 0.3611 2.0726 0
M  V30 65 H -5.1539 -1.1897 1.293 0
M  V30 66 H -6.4606 0.405 0.0709 0
M  V30 67 H -5.0928 -0.0078 -0.9899 0
M  V30 68 H -3.9272 2.1501 -0.3232 0
M  V30 69 H -5.4055 3.6395 -1.6125 0
M  V30 70 H -6.7936 2.5007 -1.3942 0
M  V30 71 H -5.3453 2.0059 -2.3588 0
M  V30 72 H -4.8242 2.6156 1.9015 0
M  V30 73 H -5.3563 3.93 0.8182 0
M  V30 74 H -6.5271 2.6321 1.2779 0
M  V30 END ATOM
M  V30 BEGIN BOND
M  V30 1 1 1 2
M  V30 2 1 2 3
M  V30 3 1 2 4
M  V30 4 1 3 5
M  V30 5 1 4 6
M  V30 6 2 5 7
M  V30 7 1 5 8
M  V30 8 1 7 9
M  V30 9 1 8 10
M  V30 10 1 8 11
M  V30 11 1 9 12
M  V30 12 1 10 13
M  V30 13 1 12 14
M  V30 14 1 13 15
M  V30 15 1 14 16
M  V30 16 1 14 17
M  V30 17 1 16 18
M  V30 18 1 16 19
M  V30 19 1 17 20
M  V30 20 1 18 21
M  V30 21 1 21 22
M  V30 22 1 21 23
M  V30 23 1 22 24
M  V30 24 1 24 25
M  V30 25 1 25 26
M  V30 26 1 26 27
M  V30 27 1 26 28
M  V30 28 1 6 8
M  V30 29 1 10 12
M  V30 30 1 15 16
M  V30 31 1 18 20
M  V30 32 1 1 29
M  V30 33 1 2 30
M  V30 34 1 3 31
M  V30 35 1 3 32
M  V30 36 1 4 33
M  V30 37 1 4 34
M  V30 38 1 6 35
M  V30 39 1 6 36
M  V30 40 1 7 37
M  V30 41 1 9 38
M  V30 42 1 9 39
M  V30 43 1 10 40
M  V30 44 1 11 41
M  V30 45 1 11 42
M  V30 46 1 11 43
M  V30 47 1 12 44
M  V30 48 1 13 45
M  V30 49 1 13 46
M  V30 50 1 14 47
M  V30 51 1 15 48
M  V30 52 1 15 49
M  V30 53 1 17 50
M  V30 54 1 17 51
M  V30 55 1 18 52
M  V30 56 1 19 53
M  V30 57 1 19 54
M  V30 58 1 19 55
M  V30 59 1 20 56
M  V30 60 1 20 57
M  V30 61 1 21 58
M  V30 62 1 22 59
M  V30 63 1 22 60
M  V30 64 1 23 61
M  V30 65 1 23 62
M  V30 66 1 23 63
M  V30 67 1 24 64
M  V30 68 1 24 65
M  V30 69 1 25 66
M  V30 70 1 25 67
M  V30 71 1 26 68
M  V30 72 1 27 69
M  V30 73 1 27 70
M  V30 74 1 27 71
M  V30 75 1 28 72
M  V30 76 1 28 73
M  V30 77 1 28 74
M  V30 END BOND
M  V30 BEGIN COLLECTION
M  V30 MDLV30/STEABS ATOMS=(8 2 8 10 12 14 16 18 21)
M  V30 END COLLECTION
M  V30 END CTAB
M  END
>  <Structure No>
8792

>  <LogS>
-7.0

>  <MMFF94 Energy>
94.715

$$$$
Compound 8793
Actelion Java MolfileCreator 2.0

  0  0  0  0  0  0              0 V3000
M  V30 BEGIN CTAB
M  V30 COUNTS 23 24 0 0 0
M  V30 BEGIN ATOM
M  V30 1 Cl 5.3565 0.0972 1.3617 0
M  V30 2 C 3.7674 -0.1171 0.6228 0
M  V30 3 C 3.4134 -1.3579 0.0674 0
M  V30 4 C 2.8608 0.9566 0.5793 0
M  V30 5 Cl 4.5557 -2.703 0.1039 0
M  V30 6 C 2.1467 -1.5291 -0.5138 0
M  V30 7 Cl 3.3214 2.5239 1.2506 0
M  V30 8 C 1.5928 0.7866 -0.0061 0
M  V30 9 Cl 1.6805 -3.0846 -1.2012 0
M  V30 10 C 1.224 -0.4727 -0.5298 0
M  V30 11 Cl 0.5147 2.1774 -0.1533 0
M  V30 12 O -0.0386 -0.7049 -1.0982 0
M  V30 13 C -1.2665 -0.2834 -0.5628 0
M  V30 14 C -2.2164 0.2645 -1.4374 0
M  V30 15 C -1.5752 -0.4202 0.8092 0
M  V30 16 Cl -1.8265 0.3977 -3.1519 0
M  V30 17 C -3.4492 0.7266 -0.9492 0
M  V30 18 Cl -0.467 -1.2481 1.9067 0
M  V30 19 C -2.8092 0.0463 1.2986 0
M  V30 20 Cl -4.6256 1.4376 -2.0567 0
M  V30 21 C -3.7421 0.6264 0.4212 0
M  V30 22 Cl -3.1942 -0.1065 3.0154 0
M  V30 23 Cl -5.2883 1.2149 1.038 0
M  V30 END ATOM
M  V30 BEGIN BOND
M  V30 1 1 1 2
M  V30 2 2 2 3
M  V30 3 1 2 4
M  V30 4 1 3 5
M  V30 5 1 3 6
M  V30 6 1 4 7
M  V30 7 2 4 8
M  V30 8 1 6 9
M  V30 9 2 6 10
M  V30 10 1 8 11
M  V30 11 1 10 12
M  V30 12 1 12 13
M  V30 13 2 13 14
M  V30 14 1 13 15
M  V30 15 1 14 16
M  V30 16 1 14 17
M  V30 17 1 15 18
M  V30 18 2 15 19
M  V30 19 1 17 20
M  V30 20 2 17 21
M  V30 21 1 19 22
M  V30 22 1 21 23
M  V30 23 1 8 10
M  V30 24 1 19 21
M  V30 END BOND
M  V30 END CTAB
M  END
>  <Structure No>
8793

>  <LogS>
-12.95

>  <MMFF94 Energy>


$$$$
Compound 8794
Actelion Java MolfileCreator 2.0

  0  0  0  0  0  0              0 V3000
M  V30 BEGIN CTAB
M  V30 COUNTS 5 4 0 0 0
M  V30 BEGIN ATOM
M  V30 1 Cl 1.4817 0.7901 -0.0987 0
M  V30 2 C -0.0551 -0.1001 -0.0151 0
M  V30 3 Cl -1.4102 1.0492 -0.0803 0
M  V30 4 F -0.1401 -0.9734 -1.0822 0
M  V30 5 F -0.1113 -0.8115 1.1679 0
M  V30 END ATOM
M  V30 BEGIN BOND
M  V30 1 1 1 2
M  V30 2 1 2 3
M  V30 3 1 2 4
M  V30 4 1 2 5
M  V30 END BOND
M  V30 END CTAB
M  END
>  <Structure No>
8794

>  <LogS>
-1.99

>  <MMFF94 Energy>
0.070935

$$$$
Compound 8795
Actelion Java MolfileCreator 2.0

  0  0  0  0  0  0              0 V3000
M  V30 BEGIN CTAB
M  V30 COUNTS 15 14 0 0 0
M  V30 BEGIN ATOM
M  V30 1 Cl 2.1996 2.0235 0.5276 0
M  V30 2 C 2.0516 0.3595 -0.0963 0
M  V30 3 Cl 3.6696 -0.3849 -0.1416 0
M  V30 4 C 1.1196 -0.4677 0.7915 0
M  V30 5 O -0.1653 0.1237 0.849 0
M  V30 6 C -1.0318 -0.4741 -0.0947 0
M  V30 7 C -2.3424 0.3062 -0.1619 0
M  V30 8 Cl -3.1574 0.3092 1.4244 0
M  V30 9 Cl -2.045 1.9878 -0.6763 0
M  V30 10 H 1.6555 0.3998 -1.1323 0
M  V30 11 H 1.5345 -0.4843 1.822 0
M  V30 12 H 1.103 -1.529 0.4457 0
M  V30 13 H -0.5801 -0.4817 -1.1129 0
M  V30 14 H -1.2589 -1.5219 0.2052 0
M  V30 15 H -3.0166 -0.1739 -0.9023 0
M  V30 END ATOM
M  V30 BEGIN BOND
M  V30 1 1 1 2
M  V30 2 1 2 3
M  V30 3 1 2 4
M  V30 4 1 4 5
M  V30 5 1 5 6
M  V30 6 1 6 7
M  V30 7 1 7 8
M  V30 8 1 7 9
M  V30 9 1 2 10
M  V30 10 1 4 11
M  V30 11 1 4 12
M  V30 12 1 6 13
M  V30 13 1 6 14
M  V30 14 1 7 15
M  V30 END BOND
M  V30 END CTAB
M  END
>  <Structure No>
8795

>  <LogS>
-1.12

>  <MMFF94 Energy>
59.499

$$$$
Compound 8796
Actelion Java MolfileCreator 2.0

  0  0  0  0  0  0              0 V3000
M  V30 BEGIN CTAB
M  V30 COUNTS 24 23 0 0 0
M  V30 BEGIN ATOM
M  V30 1 C -1.2998 -0.2292 0.0 0
M  V30 2 C 0.0091 0.4718 0.0223 0
M  V30 3 C -2.3857 0.4726 -0.3791 0
M  V30 4 C -1.3954 -1.6889 0.3814 0
M  V30 5 C 1.1787 -0.1561 -0.1446 0
M  V30 6 C -3.7391 -0.1058 -0.5217 0
M  V30 7 C 2.4466 0.5925 -0.1302 0
M  V30 8 C -4.7797 0.6595 -0.8392 0
M  V30 9 C 3.6138 -0.0275 -0.3125 0
M  V30 10 C 4.8999 0.7339 -0.2968 0
M  V30 11 H 0.0083 1.5517 0.1299 0
M  V30 12 H -2.2672 1.5234 -0.6242 0
M  V30 13 H -1.4934 -2.311 -0.5327 0
M  V30 14 H -0.504 -2.0188 0.9532 0
M  V30 15 H -2.2651 -1.8635 1.0491 0
M  V30 16 H 1.2078 -1.2244 -0.3205 0
M  V30 17 H -3.9088 -1.166 -0.3882 0
M  V30 18 H 2.4313 1.665 0.0322 0
M  V30 19 H -4.6674 1.726 -0.9922 0
M  V30 20 H -5.7623 0.219 -0.9483 0
M  V30 21 H 3.6451 -1.0988 -0.4752 0
M  V30 22 H 5.0342 1.2317 0.6868 0
M  V30 23 H 4.8971 1.4996 -1.1014 0
M  V30 24 H 5.7491 0.0393 -0.4659 0
M  V30 END ATOM
M  V30 BEGIN BOND
M  V30 1 1 1 2
M  V30 2 2 1 3
M  V30 3 1 1 4
M  V30 4 2 2 5
M  V30 5 1 3 6
M  V30 6 1 5 7
M  V30 7 2 6 8
M  V30 8 2 7 9
M  V30 9 1 9 10
M  V30 10 1 2 11
M  V30 11 1 3 12
M  V30 12 1 4 13
M  V30 13 1 4 14
M  V30 14 1 4 15
M  V30 15 1 5 16
M  V30 16 1 6 17
M  V30 17 1 7 18
M  V30 18 1 8 19
M  V30 19 1 8 20
M  V30 20 1 9 21
M  V30 21 1 10 22
M  V30 22 1 10 23
M  V30 23 1 10 24
M  V30 END BOND
M  V30 END CTAB
M  END
>  <Structure No>
8796

>  <LogS>
-2.09

>  <MMFF94 Energy>
15.678

$$$$
Compound 8797
Actelion Java MolfileCreator 2.0

  0  0  0  0  0  0              0 V3000
M  V30 BEGIN CTAB
M  V30 COUNTS 8 7 0 0 0
M  V30 BEGIN ATOM
M  V30 1 Cl -1.6172 1.3617 -0.5105 0
M  V30 2 C -0.7146 -0.1199 -0.1073 0
M  V30 3 C 0.7607 0.2022 0.0868 0
M  V30 4 Cl 1.6633 -1.2795 0.49 0
M  V30 5 H -0.8372 -0.851 -0.9342 0
M  V30 6 H -1.1339 -0.5529 0.8255 0
M  V30 7 H 1.18 0.6353 -0.8459 0
M  V30 8 H 0.8832 0.9334 0.9139 0
M  V30 END ATOM
M  V30 BEGIN BOND
M  V30 1 1 1 2
M  V30 2 1 2 3
M  V30 3 1 3 4
M  V30 4 1 2 5
M  V30 5 1 2 6
M  V30 6 1 3 7
M  V30 7 1 3 8
M  V30 END BOND
M  V30 END CTAB
M  END
>  <Structure No>
8797

>  <LogS>
-1.08

>  <MMFF94 Energy>
5.0141

$$$$
Compound 8798
Actelion Java MolfileCreator 2.0

  0  0  0  0  0  0              0 V3000
M  V30 BEGIN CTAB
M  V30 COUNTS 22 23 0 0 0
M  V30 BEGIN ATOM
M  V30 1 Cl -0.3684 1.382 -2.3963 0
M  V30 2 C -1.3431 0.5736 -1.1649 0
M  V30 3 C -0.7248 -0.0414 -0.0563 0
M  V30 4 C -2.742 0.5404 -1.2903 0
M  V30 5 C -1.5137 -0.6837 0.9208 0
M  V30 6 C 0.7459 -0.0128 0.0811 0
M  V30 7 Cl -3.5559 1.2924 -2.6567 0
M  V30 8 C -3.5158 -0.0988 -0.3192 0
M  V30 9 Cl -0.7538 -1.4579 2.3145 0
M  V30 10 C -2.9116 -0.7089 0.7822 0
M  V30 11 C 1.5464 -1.0323 -0.4671 0
M  V30 12 C 1.3504 1.0485 0.7696 0
M  V30 13 Cl -3.9347 -1.5 1.9749 0
M  V30 14 Cl 0.8345 -2.3848 -1.3397 0
M  V30 15 C 2.9368 -0.9786 -0.3211 0
M  V30 16 C 2.7409 1.0997 0.9143 0
M  V30 17 C 3.5378 0.0813 0.3662 0
M  V30 18 Cl 3.4567 2.449 1.7852 0
M  V30 19 Cl 5.2887 0.1086 0.5259 0
M  V30 20 H -4.5938 -0.1215 -0.421 0
M  V30 21 H 0.7384 1.8358 1.1936 0
M  V30 22 H 3.552 -1.7632 -0.7433 0
M  V30 END ATOM
M  V30 BEGIN BOND
M  V30 1 1 1 2
M  V30 2 2 2 3
M  V30 3 1 2 4
M  V30 4 1 3 5
M  V30 5 1 3 6
M  V30 6 1 4 7
M  V30 7 2 4 8
M  V30 8 1 5 9
M  V30 9 2 5 10
M  V30 10 2 6 11
M  V30 11 1 6 12
M  V30 12 1 10 13
M  V30 13 1 11 14
M  V30 14 1 11 15
M  V30 15 2 12 16
M  V30 16 2 15 17
M  V30 17 1 16 18
M  V30 18 1 17 19
M  V30 19 1 8 10
M  V30 20 1 16 17
M  V30 21 1 8 20
M  V30 22 1 12 21
M  V30 23 1 15 22
M  V30 END BOND
M  V30 END CTAB
M  END
>  <Structure No>
8798

>  <LogS>
-8.94

>  <MMFF94 Energy>
49.969

$$$$
Compound 8799
Actelion Java MolfileCreator 2.0

  0  0  0  0  0  0              0 V3000
M  V30 BEGIN CTAB
M  V30 COUNTS 23 24 0 0 0
M  V30 BEGIN ATOM
M  V30 1 Cl 4.778 1.4685 1.8359 0
M  V30 2 C 3.4927 0.6173 0.9777 0
M  V30 3 C 3.6973 -0.6997 0.5258 0
M  V30 4 C 2.2606 1.2557 0.7431 0
M  V30 5 Cl 5.237 -1.5105 0.8157 0
M  V30 6 C 2.6721 -1.3668 -0.1649 0
M  V30 7 Cl 1.9829 2.9054 1.2982 0
M  V30 8 C 1.2315 0.579 0.0719 0
M  V30 9 Cl 2.8901 -3.0061 -0.765 0
M  V30 10 C 1.452 -0.7266 -0.394 0
M  V30 11 O 0.0169 1.2429 -0.1615 0
M  V30 12 C -1.2444 0.6319 -0.2404 0
M  V30 13 C -2.2314 1.206 -1.0579 0
M  V30 14 C -1.5529 -0.5106 0.5168 0
M  V30 15 Cl -1.8447 2.6555 -1.9825 0
M  V30 16 C -3.5091 0.6205 -1.1426 0
M  V30 17 C -2.8187 -1.0909 0.4335 0
M  V30 18 Cl -4.7451 1.3321 -2.1802 0
M  V30 19 C -3.7971 -0.5346 -0.3945 0
M  V30 20 Cl -5.3787 -1.301 -0.4669 0
M  V30 21 H 0.6817 -1.2422 -0.9527 0
M  V30 22 H -0.8207 -0.9425 1.1862 0
M  V30 23 H -3.041 -1.9727 1.021 0
M  V30 END ATOM
M  V30 BEGIN BOND
M  V30 1 1 1 2
M  V30 2 2 2 3
M  V30 3 1 2 4
M  V30 4 1 3 5
M  V30 5 1 3 6
M  V30 6 1 4 7
M  V30 7 2 4 8
M  V30 8 1 6 9
M  V30 9 2 6 10
M  V30 10 1 8 11
M  V30 11 1 11 12
M  V30 12 2 12 13
M  V30 13 1 12 14
M  V30 14 1 13 15
M  V30 15 1 13 16
M  V30 16 2 14 17
M  V30 17 1 16 18
M  V30 18 2 16 19
M  V30 19 1 19 20
M  V30 20 1 8 10
M  V30 21 1 17 19
M  V30 22 1 10 21
M  V30 23 1 14 22
M  V30 24 1 17 23
M  V30 END BOND
M  V30 END CTAB
M  END
>  <Structure No>
8799

>  <LogS>
-9.12

>  <MMFF94 Energy>
72.463

$$$$
Compound 8800
Actelion Java MolfileCreator 2.0

  0  0  0  0  0  0              0 V3000
M  V30 BEGIN CTAB
M  V30 COUNTS 12 12 0 0 0
M  V30 BEGIN ATOM
M  V30 1 Cl 1.6857 -2.6781 0.0 0
M  V30 2 C 0.727 -1.1957 0.0226 0
M  V30 3 C 1.3677 0.0554 0.0497 0
M  V30 4 C -0.677 -1.2663 0.0135 0
M  V30 5 Cl 3.1308 0.1442 0.0612 0
M  V30 6 C 0.6042 1.2359 0.0678 0
M  V30 7 Cl -1.4817 -2.8374 -0.0204 0
M  V30 8 C -1.4405 -0.0858 0.0315 0
M  V30 9 Cl 1.4088 2.8071 0.1018 0
M  V30 10 C -0.7998 1.1653 0.0586 0
M  V30 11 Cl -3.2037 -0.1745 0.0201 0
M  V30 12 Cl -1.7585 2.6477 0.0813 0
M  V30 END ATOM
M  V30 BEGIN BOND
M  V30 1 1 1 2
M  V30 2 2 2 3
M  V30 3 1 2 4
M  V30 4 1 3 5
M  V30 5 1 3 6
M  V30 6 1 4 7
M  V30 7 2 4 8
M  V30 8 1 6 9
M  V30 9 2 6 10
M  V30 10 1 8 11
M  V30 11 1 10 12
M  V30 12 1 8 10
M  V30 END BOND
M  V30 END CTAB
M  END
>  <Structure No>
8800

>  <LogS>
-7.56

>  <MMFF94 Energy>
33.401

$$$$
Compound 8801
Actelion Java MolfileCreator 2.0

  0  0  0  0  0  0              0 V3000
M  V30 BEGIN CTAB
M  V30 COUNTS 22 23 0 0 0
M  V30 BEGIN ATOM
M  V30 1 Cl -0.8121 -1.9859 -1.8053 0
M  V30 2 C -1.5504 -0.9045 -0.6206 0
M  V30 3 C -2.9477 -0.8972 -0.4528 0
M  V30 4 C -0.7516 -0.0257 0.1426 0
M  V30 5 Cl -3.9858 -1.9694 -1.3841 0
M  V30 6 C -3.5382 -0.0235 0.4661 0
M  V30 7 C 0.7205 -0.0127 0.0076 0
M  V30 8 C -1.36 0.8443 1.0606 0
M  V30 9 C -2.7475 0.8459 1.2203 0
M  V30 10 C 1.3938 1.0832 -0.5738 0
M  V30 11 C 1.4585 -1.1077 0.4826 0
M  V30 12 Cl -3.4965 1.9387 2.37 0
M  V30 13 Cl 0.486 2.4584 -1.2081 0
M  V30 14 C 2.7976 1.0646 -0.6711 0
M  V30 15 C 2.8513 -1.1187 0.3812 0
M  V30 16 Cl 3.6816 2.4039 -1.3919 0
M  V30 17 C 3.5183 -0.0346 -0.193 0
M  V30 18 Cl 3.7628 -2.4935 0.9776 0
M  V30 19 H -4.6136 -0.0193 0.5931 0
M  V30 20 H -0.7535 1.5181 1.654 0
M  V30 21 H 0.9493 -1.9504 0.9349 0
M  V30 22 H 4.5983 -0.0468 -0.2695 0
M  V30 END ATOM
M  V30 BEGIN BOND
M  V30 1 1 1 2
M  V30 2 2 2 3
M  V30 3 1 2 4
M  V30 4 1 3 5
M  V30 5 1 3 6
M  V30 6 1 4 7
M  V30 7 2 4 8
M  V30 8 2 6 9
M  V30 9 2 7 10
M  V30 10 1 7 11
M  V30 11 1 9 12
M  V30 12 1 10 13
M  V30 13 1 10 14
M  V30 14 2 11 15
M  V30 15 1 14 16
M  V30 16 2 14 17
M  V30 17 1 15 18
M  V30 18 1 8 9
M  V30 19 1 15 17
M  V30 20 1 6 19
M  V30 21 1 8 20
M  V30 22 1 11 21
M  V30 23 1 17 22
M  V30 END BOND
M  V30 END CTAB
M  END
>  <Structure No>
8801

>  <LogS>
-8.56

>  <MMFF94 Energy>
39.946

$$$$
Compound 8802
Actelion Java MolfileCreator 2.0

  0  0  0  0  0  0              0 V3000
M  V30 BEGIN CTAB
M  V30 COUNTS 22 23 0 0 0
M  V30 BEGIN ATOM
M  V30 1 Cl 3.5244 2.8008 1.0835 0
M  V30 2 C 2.7372 1.3141 0.549 0
M  V30 3 C 3.514 0.1895 0.2126 0
M  V30 4 C 1.3328 1.2522 0.4623 0
M  V30 5 Cl 5.2737 0.2596 0.3193 0
M  V30 6 C 2.8843 -0.9933 -0.2075 0
M  V30 7 Cl 0.3584 2.6534 0.9194 0
M  V30 8 C 0.7085 0.0615 0.0381 0
M  V30 9 Cl 3.8157 -2.4228 -0.6364 0
M  V30 10 C 1.4921 -1.0513 -0.2934 0
M  V30 11 C -0.7621 -0.0362 -0.0795 0
M  V30 12 C -1.5138 -0.8514 0.7921 0
M  V30 13 C -1.4206 0.683 -1.0901 0
M  V30 14 Cl -0.75 -1.754 2.0966 0
M  V30 15 C -2.9038 -0.933 0.6443 0
M  V30 16 C -2.8079 0.5957 -1.2303 0
M  V30 17 C -3.5502 -0.212 -0.3644 0
M  V30 18 Cl -5.2921 -0.3195 -0.5421 0
M  V30 19 H 1.0164 -1.967 -0.6247 0
M  V30 20 H -0.8572 1.3087 -1.7717 0
M  V30 21 H -3.4826 -1.5544 1.3162 0
M  V30 22 H -3.3043 1.1549 -2.0131 0
M  V30 END ATOM
M  V30 BEGIN BOND
M  V30 1 1 1 2
M  V30 2 2 2 3
M  V30 3 1 2 4
M  V30 4 1 3 5
M  V30 5 1 3 6
M  V30 6 1 4 7
M  V30 7 2 4 8
M  V30 8 1 6 9
M  V30 9 2 6 10
M  V30 10 1 8 11
M  V30 11 2 11 12
M  V30 12 1 11 13
M  V30 13 1 12 14
M  V30 14 1 12 15
M  V30 15 2 13 16
M  V30 16 2 15 17
M  V30 17 1 17 18
M  V30 18 1 8 10
M  V30 19 1 16 17
M  V30 20 1 10 19
M  V30 21 1 13 20
M  V30 22 1 15 21
M  V30 23 1 16 22
M  V30 END BOND
M  V30 END CTAB
M  END
>  <Structure No>
8802

>  <LogS>
-8.32

>  <MMFF94 Energy>
50.733

$$$$
Compound 8803
Actelion Java MolfileCreator 2.0

  0  0  0  0  0  0              0 V3000
M  V30 BEGIN CTAB
M  V30 COUNTS 21 23 0 0 0
M  V30 BEGIN ATOM
M  V30 1 Cl 5.1171 0.3649 0.0 0
M  V30 2 C 3.3538 0.4041 -0.0053 0
M  V30 3 C 2.667 1.6442 0.0871 0
M  V30 4 C 2.63 -0.8037 -0.102 0
M  V30 5 Cl 3.5838 3.1471 0.2076 0
M  V30 6 C 1.2517 1.6833 0.0834 0
M  V30 7 Cl 3.4326 -2.3648 -0.2187 0
M  V30 8 C 1.24 -0.7385 -0.1036 0
M  V30 9 Cl 0.4006 3.2206 0.1981 0
M  V30 10 C 0.5656 0.4644 -0.0139 0
M  V30 11 O 0.4047 -1.7536 -0.1859 0
M  V30 12 C -0.7778 0.1254 -0.0465 0
M  V30 13 C -0.8091 -1.2496 -0.1528 0
M  V30 14 C -1.9547 0.8761 0.0058 0
M  V30 15 C -2.0083 -1.9526 -0.2128 0
M  V30 16 C -3.1836 0.1907 -0.0529 0
M  V30 17 C -3.2105 -1.2235 -0.1623 0
M  V30 18 Cl -4.6736 1.1219 0.0118 0
M  V30 19 Cl -4.7333 -2.0989 -0.2371 0
M  V30 20 H -1.9425 1.9515 0.0889 0
M  V30 21 H -2.011 -3.0318 -0.2961 0
M  V30 END ATOM
M  V30 BEGIN BOND
M  V30 1 1 1 2
M  V30 2 2 2 3
M  V30 3 1 2 4
M  V30 4 1 3 5
M  V30 5 1 3 6
M  V30 6 1 4 7
M  V30 7 2 4 8
M  V30 8 1 6 9
M  V30 9 2 6 10
M  V30 10 1 8 11
M  V30 11 1 10 12
M  V30 12 1 11 13
M  V30 13 1 12 14
M  V30 14 1 13 15
M  V30 15 2 14 16
M  V30 16 2 15 17
M  V30 17 1 16 18
M  V30 18 1 17 19
M  V30 19 1 8 10
M  V30 20 2 12 13
M  V30 21 1 16 17
M  V30 22 1 14 20
M  V30 23 1 15 21
M  V30 END BOND
M  V30 END CTAB
M  END
>  <Structure No>
8803

>  <LogS>
-10.66

>  <MMFF94 Energy>
42.919

$$$$
Compound 8804
Actelion Java MolfileCreator 2.0

  0  0  0  0  0  0              0 V3000
M  V30 BEGIN CTAB
M  V30 COUNTS 54 57 0 0 0
M  V30 BEGIN ATOM
M  V30 1 O -5.8438 0.4049 1.5396 0
M  V30 2 C -4.6665 0.1629 1.1636 0
M  V30 3 C -3.9672 1.1406 0.3072 0
M  V30 4 C -4.0196 -1.133 1.5613 0
M  V30 5 C -2.7234 0.932 -0.1676 0
M  V30 6 C -2.4831 -1.0438 1.4417 0 CFG=1
M  V30 7 C -2.021 -0.4087 0.0631 0 CFG=2
M  V30 8 C -2.2023 1.8877 -1.2243 0
M  V30 9 O -1.9971 -0.3598 2.571 0
M  V30 10 C -0.4418 -0.244 -0.0529 0 CFG=1
M  V30 11 C -2.4939 -1.3775 -1.0657 0
M  V30 12 C -0.6717 1.9582 -1.286 0
M  V30 13 C -0.0401 0.5505 -1.3257 0 CFG=1
M  V30 14 C 0.2411 0.3789 1.1952 0
M  V30 15 C 1.5076 0.5889 -1.5751 0 CFG=1
M  V30 16 C 1.6249 1.0169 0.965 0
M  V30 17 C 2.3985 0.5457 -0.2966 0 CFG=1
M  V30 18 C 1.9857 -0.6008 -2.4238 0
M  V30 19 C 2.9816 -0.9146 -0.2265 0 CFG=2
M  V30 20 C 3.5849 1.5299 -0.4875 0
M  V30 21 C 2.4532 -1.6681 -1.4536 0
M  V30 22 C 2.7769 -1.6691 1.0791 0
M  V30 23 O 1.8287 -2.4261 1.2248 0
M  V30 24 C 3.7396 -1.4966 2.2169 0
M  V30 25 H -4.5013 2.0453 0.0395 0
M  V30 26 H -4.2927 -1.3712 2.6128 0
M  V30 27 H -4.4225 -1.9585 0.9396 0
M  V30 28 H -2.0814 -2.0792 1.4992 0
M  V30 29 H -2.5842 2.9164 -1.0405 0
M  V30 30 H -2.5906 1.5612 -2.2134 0
M  V30 31 H -2.4044 0.5449 2.5882 0
M  V30 32 H -0.031 -1.2656 -0.1528 0
M  V30 33 H -2.0086 -2.3715 -0.9608 0
M  V30 34 H -2.2878 -0.9954 -2.0819 0
M  V30 35 H -3.5915 -1.5255 -1.0546 0
M  V30 36 H -0.3918 2.5185 -2.2048 0
M  V30 37 H -0.3022 2.5478 -0.4241 0
M  V30 38 H -0.4783 0.0688 -2.218 0
M  V30 39 H 0.3519 -0.4027 1.9759 0
M  V30 40 H -0.4044 1.1828 1.6071 0
M  V30 41 H 1.7187 1.5063 -2.1713 0
M  V30 42 H 1.4793 2.1177 0.9004 0
M  V30 43 H 2.2494 0.8764 1.8729 0
M  V30 44 H 2.8544 -0.2789 -3.041 0
M  V30 45 H 1.216 -1.0 -3.1183 0
M  V30 46 H 4.0861 -0.8785 -0.3711 0
M  V30 47 H 4.2651 1.4939 0.391 0
M  V30 48 H 4.1734 1.2732 -1.3951 0
M  V30 49 H 3.2241 2.5751 -0.6048 0
M  V30 50 H 1.6018 -2.3376 -1.2147 0
M  V30 51 H 3.2491 -2.2931 -1.9155 0
M  V30 52 H 4.5157 -0.7408 1.9737 0
M  V30 53 H 4.2365 -2.4652 2.4327 0
M  V30 54 H 3.1907 -1.161 3.1218 0
M  V30 END ATOM
M  V30 BEGIN BOND
M  V30 1 2 1 2
M  V30 2 1 2 3
M  V30 3 1 2 4
M  V30 4 2 3 5
M  V30 5 1 4 6
M  V30 6 1 5 7
M  V30 7 1 5 8
M  V30 8 1 6 9
M  V30 9 1 7 10
M  V30 10 1 7 11
M  V30 11 1 8 12
M  V30 12 1 10 13
M  V30 13 1 10 14
M  V30 14 1 13 15
M  V30 15 1 14 16
M  V30 16 1 15 17
M  V30 17 1 15 18
M  V30 18 1 17 19
M  V30 19 1 17 20
M  V30 20 1 18 21
M  V30 21 1 19 22
M  V30 22 2 22 23
M  V30 23 1 22 24
M  V30 24 1 6 7
M  V30 25 1 12 13
M  V30 26 1 16 17
M  V30 27 1 19 21
M  V30 28 1 3 25
M  V30 29 1 4 26
M  V30 30 1 4 27
M  V30 31 1 6 28
M  V30 32 1 8 29
M  V30 33 1 8 30
M  V30 34 1 9 31
M  V30 35 1 10 32
M  V30 36 1 11 33
M  V30 37 1 11 34
M  V30 38 1 11 35
M  V30 39 1 12 36
M  V30 40 1 12 37
M  V30 41 1 13 38
M  V30 42 1 14 39
M  V30 43 1 14 40
M  V30 44 1 15 41
M  V30 45 1 16 42
M  V30 46 1 16 43
M  V30 47 1 18 44
M  V30 48 1 18 45
M  V30 49 1 19 46
M  V30 50 1 20 47
M  V30 51 1 20 48
M  V30 52 1 20 49
M  V30 53 1 21 50
M  V30 54 1 21 51
M  V30 55 1 24 52
M  V30 56 1 24 53
M  V30 57 1 24 54
M  V30 END BOND
M  V30 BEGIN COLLECTION
M  V30 MDLV30/STEABS ATOMS=(7 6 7 10 13 15 17 19)
M  V30 END COLLECTION
M  V30 END CTAB
M  END
>  <Structure No>
8804

>  <LogS>
-3.82

>  <MMFF94 Energy>
95.431

$$$$
Compound 8805
Actelion Java MolfileCreator 2.0

  0  0  0  0  0  0              0 V3000
M  V30 BEGIN CTAB
M  V30 COUNTS 5 4 0 0 0
M  V30 BEGIN ATOM
M  V30 1 Cl 1.6765 0.0797 0.0 0
M  V30 2 C -0.098 -0.028 0.0262 0
M  V30 3 H -0.4475 -0.5887 -0.8648 0
M  V30 4 H -0.4228 -0.5559 0.9462 0
M  V30 5 H -0.5308 0.9933 0.0136 0
M  V30 END ATOM
M  V30 BEGIN BOND
M  V30 1 1 1 2
M  V30 2 1 2 3
M  V30 3 1 2 4
M  V30 4 1 2 5
M  V30 END BOND
M  V30 END CTAB
M  END
>  <Structure No>
8805

>  <LogS>
-0.88

>  <MMFF94 Energy>
0.065103

$$$$
Compound 8806
Actelion Java MolfileCreator 2.0

  0  0  0  0  0  0              0 V3000
M  V30 BEGIN CTAB
M  V30 COUNTS 52 55 0 0 0
M  V30 BEGIN ATOM
M  V30 1 O 5.5076 2.1031 0.1616 0
M  V30 2 C 4.5235 1.3183 0.2044 0
M  V30 3 C 3.9847 0.7525 -1.0369 0
M  V30 4 C 3.844 1.0401 1.5041 0
M  V30 5 C 2.9952 -0.1602 -1.0296 0
M  V30 6 C 3.2918 -0.3837 1.4976 0
M  V30 7 C 2.375 -0.6952 0.2659 0 CFG=1
M  V30 8 C 2.2204 -0.3946 -2.2981 0
M  V30 9 C 0.9555 -0.0211 0.3983 0 CFG=1
M  V30 10 C 2.2721 -2.2433 0.1669 0
M  V30 11 C 0.8616 0.2961 -2.1635 0
M  V30 12 C 0.0871 -0.1688 -0.9001 0 CFG=2
M  V30 13 C 0.1758 -0.4419 1.6837 0
M  V30 14 C -1.2247 0.6514 -0.7394 0 CFG=2
M  V30 15 C -1.3072 -0.7555 1.4378 0
M  V30 16 C -2.0252 0.3227 0.5681 0 CFG=2
M  V30 17 C -2.2018 0.4592 -1.9097 0
M  V30 18 C -3.429 -0.182 0.0558 0 CFG=1
M  V30 19 C -2.1491 1.6276 1.4081 0
M  V30 20 C -3.5885 0.5094 -1.2997 0
M  V30 21 O -3.392 -1.5786 -0.1572 0
M  V30 22 C -4.6158 0.1406 0.995 0
M  V30 23 H 4.3543 1.149 -1.9753 0
M  V30 24 H 3.0268 1.7749 1.6604 0
M  V30 25 H 4.5693 1.1473 2.34 0
M  V30 26 H 2.7618 -0.5654 2.4552 0
M  V30 27 H 4.1661 -1.074 1.4924 0
M  V30 28 H 2.0801 -1.4806 -2.4758 0
M  V30 29 H 2.7505 0.0087 -3.189 0
M  V30 30 H 1.1372 1.0728 0.5006 0
M  V30 31 H 3.2432 -2.6694 -0.1669 0
M  V30 32 H 1.4977 -2.5809 -0.5473 0
M  V30 33 H 2.0405 -2.7038 1.1492 0
M  V30 34 H 1.0214 1.3968 -2.1249 0
M  V30 35 H 0.268 0.0738 -3.0759 0
M  V30 36 H -0.1877 -1.2349 -1.0453 0
M  V30 37 H 0.2587 0.365 2.4436 0
M  V30 38 H 0.6159 -1.3387 2.1605 0
M  V30 39 H -0.936 1.7287 -0.745 0
M  V30 40 H -1.3379 -1.7525 0.9505 0
M  V30 41 H -1.8274 -0.8673 2.4143 0
M  V30 42 H -2.0586 -0.5336 -2.3912 0
M  V30 43 H -2.0788 1.2526 -2.6792 0
M  V30 44 H -1.1489 2.0567 1.6276 0
M  V30 45 H -2.6507 1.4363 2.3805 0
M  V30 46 H -2.7219 2.4027 0.8561 0
M  V30 47 H -3.8936 1.5718 -1.1683 0
M  V30 48 H -4.334 0.0043 -1.9521 0
M  V30 49 H -4.2567 -1.8627 -0.5552 0
M  V30 50 H -4.4359 -0.2989 1.9987 0
M  V30 51 H -4.7787 1.2335 1.0986 0
M  V30 52 H -5.5562 -0.291 0.5907 0
M  V30 END ATOM
M  V30 BEGIN BOND
M  V30 1 2 1 2
M  V30 2 1 2 3
M  V30 3 1 2 4
M  V30 4 2 3 5
M  V30 5 1 4 6
M  V30 6 1 5 7
M  V30 7 1 5 8
M  V30 8 1 7 9
M  V30 9 1 7 10
M  V30 10 1 8 11
M  V30 11 1 9 12
M  V30 12 1 9 13
M  V30 13 1 12 14
M  V30 14 1 13 15
M  V30 15 1 14 16
M  V30 16 1 14 17
M  V30 17 1 16 18
M  V30 18 1 16 19
M  V30 19 1 17 20
M  V30 20 1 18 21
M  V30 21 1 18 22
M  V30 22 1 6 7
M  V30 23 1 11 12
M  V30 24 1 15 16
M  V30 25 1 18 20
M  V30 26 1 3 23
M  V30 27 1 4 24
M  V30 28 1 4 25
M  V30 29 1 6 26
M  V30 30 1 6 27
M  V30 31 1 8 28
M  V30 32 1 8 29
M  V30 33 1 9 30
M  V30 34 1 10 31
M  V30 35 1 10 32
M  V30 36 1 10 33
M  V30 37 1 11 34
M  V30 38 1 11 35
M  V30 39 1 12 36
M  V30 40 1 13 37
M  V30 41 1 13 38
M  V30 42 1 14 39
M  V30 43 1 15 40
M  V30 44 1 15 41
M  V30 45 1 17 42
M  V30 46 1 17 43
M  V30 47 1 19 44
M  V30 48 1 19 45
M  V30 49 1 19 46
M  V30 50 1 20 47
M  V30 51 1 20 48
M  V30 52 1 21 49
M  V30 53 1 22 50
M  V30 54 1 22 51
M  V30 55 1 22 52
M  V30 END BOND
M  V30 BEGIN COLLECTION
M  V30 MDLV30/STEABS ATOMS=(6 7 9 12 14 16 18)
M  V30 END COLLECTION
M  V30 END CTAB
M  END
>  <Structure No>
8806

>  <LogS>
-3.97

>  <MMFF94 Energy>
80.086

$$$$
Compound 8807
Actelion Java MolfileCreator 2.0

  0  0  0  0  0  0              0 V3000
M  V30 BEGIN CTAB
M  V30 COUNTS 16 15 0 0 0
M  V30 BEGIN ATOM
M  V30 1 O -1.3245 2.0263 0.9348 0
M  V30 2 N -0.8702 1.3055 0.0227 0 CHG=1
M  V30 3 O -0.842 1.7885 -1.2656 0 CHG=-1
M  V30 4 C -0.5192 -0.0884 0.2986 0 CFG=2
M  V30 5 C 0.883 -0.4181 -0.2468 0
M  V30 6 C -1.5717 -1.0151 -0.3143 0
M  V30 7 C 1.9709 0.4083 0.4372 0
M  V30 8 H -0.5174 -0.2597 1.3994 0
M  V30 9 H 1.1027 -1.4942 -0.072 0
M  V30 10 H 0.9215 -0.2366 -1.3432 0
M  V30 11 H -1.3458 -2.073 -0.0618 0
M  V30 12 H -2.5757 -0.7661 0.0906 0
M  V30 13 H -1.5944 -0.9052 -1.4197 0
M  V30 14 H 1.9564 0.2336 1.5342 0
M  V30 15 H 2.9655 0.1101 0.044 0
M  V30 16 H 1.8236 1.4905 0.2359 0
M  V30 END ATOM
M  V30 BEGIN BOND
M  V30 1 2 1 2
M  V30 2 1 2 3
M  V30 3 1 2 4
M  V30 4 1 4 5
M  V30 5 1 4 6
M  V30 6 1 5 7
M  V30 7 1 4 8
M  V30 8 1 5 9
M  V30 9 1 5 10
M  V30 10 1 6 11
M  V30 11 1 6 12
M  V30 12 1 6 13
M  V30 13 1 7 14
M  V30 14 1 7 15
M  V30 15 1 7 16
M  V30 END BOND
M  V30 BEGIN COLLECTION
M  V30 MDLV30/STEABS ATOMS=(1 4)
M  V30 END COLLECTION
M  V30 END CTAB
M  END
>  <Structure No>
8807

>  <LogS>
-0.62

>  <MMFF94 Energy>
4.7523

$$$$
Compound 8808
Actelion Java MolfileCreator 2.0

  0  0  0  0  0  0              0 V3000
M  V30 BEGIN CTAB
M  V30 COUNTS 17 17 0 0 0
M  V30 BEGIN ATOM
M  V30 1 O -3.4256 1.4329 0.0795 0
M  V30 2 N -2.2039 1.6809 0.0097 0 CHG=1
M  V30 3 O -1.7995 2.9917 -0.1002 0 CHG=-1
M  V30 4 C -1.2354 0.6165 0.0445 0
M  V30 5 C 0.1397 0.9027 -0.038 0
M  V30 6 C -1.6469 -0.7241 0.1577 0
M  V30 7 C 1.0896 -0.1304 0.0047 0
M  V30 8 C -0.7036 -1.7543 0.1819 0
M  V30 9 C 0.6587 -1.4614 0.0994 0
M  V30 10 C 2.5513 0.1821 -0.1233 0
M  V30 11 H 0.4756 1.9277 -0.1351 0
M  V30 12 H -2.6976 -0.9764 0.2224 0
M  V30 13 H -1.0303 -2.7833 0.2613 0
M  V30 14 H 1.3772 -2.2718 0.1102 0
M  V30 15 H 2.8313 0.2035 -1.1972 0
M  V30 16 H 3.1643 -0.5851 0.3957 0
M  V30 17 H 2.7816 1.1694 0.3311 0
M  V30 END ATOM
M  V30 BEGIN BOND
M  V30 1 2 1 2
M  V30 2 1 2 3
M  V30 3 1 2 4
M  V30 4 2 4 5
M  V30 5 1 4 6
M  V30 6 1 5 7
M  V30 7 2 6 8
M  V30 8 2 7 9
M  V30 9 1 7 10
M  V30 10 1 8 9
M  V30 11 1 5 11
M  V30 12 1 6 12
M  V30 13 1 8 13
M  V30 14 1 9 14
M  V30 15 1 10 15
M  V30 16 1 10 16
M  V30 17 1 10 17
M  V30 END BOND
M  V30 END CTAB
M  END
>  <Structure No>
8808

>  <LogS>
-2.46

>  <MMFF94 Energy>
51.144

$$$$
Compound 8809
Actelion Java MolfileCreator 2.0

  0  0  0  0  0  0              0 V3000
M  V30 BEGIN CTAB
M  V30 COUNTS 31 31 0 0 0
M  V30 BEGIN ATOM
M  V30 1 O -2.2052 1.1808 -1.8899 0
M  V30 2 C -1.979 1.1908 -0.5034 0 CFG=2
M  V30 3 C -0.4557 1.2464 -0.2242 0
M  V30 4 C -2.6815 -0.0159 0.1532 0
M  V30 5 C 0.2437 -0.1456 -0.0926 0 CFG=1
M  V30 6 C -1.9124 -0.5198 1.368 0
M  V30 7 C 1.7429 0.0554 0.3818 0
M  V30 8 C -0.5149 -1.0261 0.9728 0
M  V30 9 C 0.2029 -0.8561 -1.4738 0
M  V30 10 C 2.5427 -1.2623 0.4725 0
M  V30 11 C 2.5536 1.068 -0.4541 0
M  V30 12 H -3.1606 1.4148 -2.0267 0
M  V30 13 H -2.4169 2.1245 -0.0769 0
M  V30 14 H 0.0146 1.8481 -1.0312 0
M  V30 15 H -0.2981 1.8092 0.7233 0
M  V30 16 H -2.7961 -0.8497 -0.5729 0
M  V30 17 H -3.7056 0.2821 0.4671 0
M  V30 18 H -1.8192 0.3021 2.1122 0
M  V30 19 H -2.4807 -1.3448 1.8501 0
M  V30 20 H 1.7103 0.4751 1.413 0
M  V30 21 H 0.061 -1.0922 1.9214 0
M  V30 22 H -0.6111 -2.074 0.6113 0
M  V30 23 H -0.8379 -1.054 -1.7961 0
M  V30 24 H 0.7098 -1.8418 -1.4394 0
M  V30 25 H 0.6808 -0.2384 -2.2614 0
M  V30 26 H 2.8158 -1.6343 -0.5373 0
M  V30 27 H 1.9781 -2.0546 1.0041 0
M  V30 28 H 3.4848 -1.0916 1.0362 0
M  V30 29 H 2.5775 0.7853 -1.5259 0
M  V30 30 H 2.1456 2.0937 -0.3476 0
M  V30 31 H 3.6023 1.1108 -0.0889 0
M  V30 END ATOM
M  V30 BEGIN BOND
M  V30 1 1 1 2
M  V30 2 1 2 3
M  V30 3 1 2 4
M  V30 4 1 3 5
M  V30 5 1 4 6
M  V30 6 1 5 7
M  V30 7 1 5 8
M  V30 8 1 5 9
M  V30 9 1 7 10
M  V30 10 1 7 11
M  V30 11 1 6 8
M  V30 12 1 1 12
M  V30 13 1 2 13
M  V30 14 1 3 14
M  V30 15 1 3 15
M  V30 16 1 4 16
M  V30 17 1 4 17
M  V30 18 1 6 18
M  V30 19 1 6 19
M  V30 20 1 7 20
M  V30 21 1 8 21
M  V30 22 1 8 22
M  V30 23 1 9 23
M  V30 24 1 9 24
M  V30 25 1 9 25
M  V30 26 1 10 26
M  V30 27 1 10 27
M  V30 28 1 10 28
M  V30 29 1 11 29
M  V30 30 1 11 30
M  V30 31 1 11 31
M  V30 END BOND
M  V30 BEGIN COLLECTION
M  V30 MDLV30/STEABS ATOMS=(2 2 5)
M  V30 END COLLECTION
M  V30 END CTAB
M  END
>  <Structure No>
8809

>  <LogS>
-0.6

>  <MMFF94 Energy>
26.305

$$$$
Compound 8810
Actelion Java MolfileCreator 2.0

  0  0  0  0  0  0              0 V3000
M  V30 BEGIN CTAB
M  V30 COUNTS 31 31 0 0 0
M  V30 BEGIN ATOM
M  V30 1 O 0.0786 -2.5978 0.1572 0
M  V30 2 C 0.4684 -1.3714 -0.4121 0 CFG=1
M  V30 3 C -0.2979 -0.1679 0.2376 0 CFG=1
M  V30 4 C 1.9946 -1.2165 -0.2871 0
M  V30 5 C 0.4493 1.1984 -0.0115 0 CFG=2
M  V30 6 C -1.7961 -0.0698 -0.2251 0
M  V30 7 C 2.5199 0.0425 -0.9966 0
M  V30 8 C 1.4487 1.1278 -1.1842 0
M  V30 9 C 1.1252 1.7223 1.2669 0
M  V30 10 C -2.5141 -1.4293 -0.3093 0
M  V30 11 C -2.608 0.8401 0.7198 0
M  V30 12 H 0.3161 -2.5751 1.1212 0
M  V30 13 H 0.2246 -1.41 -1.4968 0
M  V30 14 H -0.3168 -0.3618 1.3344 0
M  V30 15 H 2.2712 -1.1776 0.789 0
M  V30 16 H 2.4934 -2.1116 -0.7188 0
M  V30 17 H -0.2755 1.9858 -0.3073 0
M  V30 18 H -1.824 0.3762 -1.2443 0
M  V30 19 H 3.3691 0.4588 -0.4118 0
M  V30 20 H 2.9177 -0.2357 -1.997 0
M  V30 21 H 1.9429 2.1135 -1.3289 0
M  V30 22 H 0.8812 0.9156 -2.1173 0
M  V30 23 H 1.8759 1.0023 1.6515 0
M  V30 24 H 0.361 1.8905 2.0556 0
M  V30 25 H 1.63 2.6917 1.0673 0
M  V30 26 H -2.4453 -1.9699 0.6589 0
M  V30 27 H -2.0866 -2.0541 -1.1202 0
M  V30 28 H -3.5884 -1.2858 -0.555 0
M  V30 29 H -3.6515 0.9425 0.3524 0
M  V30 30 H -2.1842 1.8616 0.7819 0
M  V30 31 H -2.6348 0.4106 1.7444 0
M  V30 END ATOM
M  V30 BEGIN BOND
M  V30 1 1 1 2
M  V30 2 1 2 3
M  V30 3 1 2 4
M  V30 4 1 3 5
M  V30 5 1 3 6
M  V30 6 1 4 7
M  V30 7 1 5 8
M  V30 8 1 5 9
M  V30 9 1 6 10
M  V30 10 1 6 11
M  V30 11 1 7 8
M  V30 12 1 1 12
M  V30 13 1 2 13
M  V30 14 1 3 14
M  V30 15 1 4 15
M  V30 16 1 4 16
M  V30 17 1 5 17
M  V30 18 1 6 18
M  V30 19 1 7 19
M  V30 20 1 7 20
M  V30 21 1 8 21
M  V30 22 1 8 22
M  V30 23 1 9 23
M  V30 24 1 9 24
M  V30 25 1 9 25
M  V30 26 1 10 26
M  V30 27 1 10 27
M  V30 28 1 10 28
M  V30 29 1 11 29
M  V30 30 1 11 30
M  V30 31 1 11 31
M  V30 END BOND
M  V30 BEGIN COLLECTION
M  V30 MDLV30/STEABS ATOMS=(3 2 3 5)
M  V30 END COLLECTION
M  V30 END CTAB
M  END
>  <Structure No>
8810

>  <LogS>
-0.29

>  <MMFF94 Energy>
23.495

$$$$
Compound 8811
Actelion Java MolfileCreator 2.0

  0  0  0  0  0  0              0 V3000
M  V30 BEGIN CTAB
M  V30 COUNTS 31 31 0 0 0
M  V30 BEGIN ATOM
M  V30 1 O -1.1804 0.8655 -1.8105 0
M  V30 2 C -0.514 0.3132 -0.6943 0 CFG=1
M  V30 3 C -1.5515 -0.6076 0.0549 0
M  V30 4 C 0.7323 -0.4948 -1.2114 0
M  V30 5 C -0.0559 1.4757 0.2499 0
M  V30 6 C -2.7536 0.1991 0.5923 0
M  V30 7 C -2.0923 -1.7564 -0.8251 0
M  V30 8 C 1.9546 -0.5026 -0.2633 0 CFG=1
M  V30 9 C 1.3389 2.0049 -0.0955 0
M  V30 10 C 2.4143 0.9288 0.1221 0
M  V30 11 C 1.7301 -1.3838 0.9752 0
M  V30 12 H -0.5852 1.5355 -2.2373 0
M  V30 13 H -1.0632 -1.0755 0.9336 0
M  V30 14 H 0.4831 -1.5333 -1.4952 0
M  V30 15 H 1.0831 -0.0354 -2.1624 0
M  V30 16 H -0.0406 1.144 1.3109 0
M  V30 17 H -0.779 2.3187 0.1879 0
M  V30 18 H -3.4753 -0.473 1.1041 0
M  V30 19 H -2.4342 0.9488 1.3445 0
M  V30 20 H -3.2821 0.7187 -0.235 0
M  V30 21 H -1.337 -2.5561 -0.9558 0
M  V30 22 H -2.4148 -1.3834 -1.8199 0
M  V30 23 H -2.9642 -2.246 -0.3406 0
M  V30 24 H 2.7889 -0.9791 -0.8266 0
M  V30 25 H 1.3598 2.3477 -1.1526 0
M  V30 26 H 1.5685 2.886 0.5423 0
M  V30 27 H 3.3027 1.2041 -0.4877 0
M  V30 28 H 2.7451 0.9593 1.1841 0
M  V30 29 H 1.0685 -0.8879 1.7129 0
M  V30 30 H 2.7033 -1.58 1.4739 0
M  V30 31 H 1.29 -2.3617 0.6853 0
M  V30 END ATOM
M  V30 BEGIN BOND
M  V30 1 1 1 2
M  V30 2 1 2 3
M  V30 3 1 2 4
M  V30 4 1 2 5
M  V30 5 1 3 6
M  V30 6 1 3 7
M  V30 7 1 4 8
M  V30 8 1 5 9
M  V30 9 1 8 10
M  V30 10 1 8 11
M  V30 11 1 9 10
M  V30 12 1 1 12
M  V30 13 1 3 13
M  V30 14 1 4 14
M  V30 15 1 4 15
M  V30 16 1 5 16
M  V30 17 1 5 17
M  V30 18 1 6 18
M  V30 19 1 6 19
M  V30 20 1 6 20
M  V30 21 1 7 21
M  V30 22 1 7 22
M  V30 23 1 7 23
M  V30 24 1 8 24
M  V30 25 1 9 25
M  V30 26 1 9 26
M  V30 27 1 10 27
M  V30 28 1 10 28
M  V30 29 1 11 29
M  V30 30 1 11 30
M  V30 31 1 11 31
M  V30 END BOND
M  V30 BEGIN COLLECTION
M  V30 MDLV30/STEABS ATOMS=(2 2 8)
M  V30 END COLLECTION
M  V30 END CTAB
M  END
>  <Structure No>
8811

>  <LogS>
-0.24

>  <MMFF94 Energy>
21.578

$$$$
Compound 8812
Actelion Java MolfileCreator 2.0

  0  0  0  0  0  0              0 V3000
M  V30 BEGIN CTAB
M  V30 COUNTS 26 26 0 0 0
M  V30 BEGIN ATOM
M  V30 1 O -3.3791 -1.4919 -0.3139 0
M  V30 2 C -3.7508 -0.357 0.0898 0
M  V30 3 N -2.8114 0.5556 0.6785 0
M  V30 4 C -5.2015 -0.0027 0.043 0
M  V30 5 C -1.3833 0.3987 0.6126 0
M  V30 6 C -0.5912 0.861 1.6734 0
M  V30 7 C -0.7561 -0.154 -0.5178 0
M  V30 8 C 0.8001 0.7398 1.6246 0
M  V30 9 C 0.6361 -0.2739 -0.5669 0
M  V30 10 C 1.4257 0.1705 0.5102 0
M  V30 11 O 2.8248 0.07 0.5103 0
M  V30 12 C 3.5923 -0.4853 -0.5545 0
M  V30 13 C 5.0691 -0.4293 -0.1984 0
M  V30 14 H -3.1936 1.3363 1.2595 0
M  V30 15 H -5.3201 1.0749 -0.1961 0
M  V30 16 H -5.72 -0.5992 -0.7373 0
M  V30 17 H -5.6649 -0.2115 1.0295 0
M  V30 18 H -1.0549 1.3068 2.5446 0
M  V30 19 H -1.3363 -0.4696 -1.3744 0
M  V30 20 H 1.3963 1.0923 2.457 0
M  V30 21 H 1.088 -0.705 -1.4496 0
M  V30 22 H 3.2976 -1.5445 -0.7184 0
M  V30 23 H 3.4205 0.0964 -1.4859 0
M  V30 24 H 5.3808 0.6244 -0.0371 0
M  V30 25 H 5.2584 -1.0116 0.7281 0
M  V30 26 H 5.671 -0.8611 -1.0256 0
M  V30 END ATOM
M  V30 BEGIN BOND
M  V30 1 2 1 2
M  V30 2 1 2 3
M  V30 3 1 2 4
M  V30 4 1 3 5
M  V30 5 2 5 6
M  V30 6 1 5 7
M  V30 7 1 6 8
M  V30 8 2 7 9
M  V30 9 2 8 10
M  V30 10 1 10 11
M  V30 11 1 11 12
M  V30 12 1 12 13
M  V30 13 1 9 10
M  V30 14 1 3 14
M  V30 15 1 4 15
M  V30 16 1 4 16
M  V30 17 1 4 17
M  V30 18 1 6 18
M  V30 19 1 7 19
M  V30 20 1 8 20
M  V30 21 1 9 21
M  V30 22 1 12 22
M  V30 23 1 12 23
M  V30 24 1 13 24
M  V30 25 1 13 25
M  V30 26 1 13 26
M  V30 END BOND
M  V30 END CTAB
M  END
>  <Structure No>
8812

>  <LogS>
-2.3

>  <MMFF94 Energy>
0.30841

$$$$
Compound 8813
Actelion Java MolfileCreator 2.0

  0  0  0  0  0  0              0 V3000
M  V30 BEGIN CTAB
M  V30 COUNTS 11 10 0 0 0
M  V30 BEGIN ATOM
M  V30 1 C 0.0 0.5971 0.0746 0
M  V30 2 C -1.3085 -0.1864 0.0322 0
M  V30 3 C 1.2063 -0.3339 -0.0012 0
M  V30 4 H 0.0302 1.3069 -0.7799 0
M  V30 5 H 0.0468 1.1819 1.0186 0
M  V30 6 H -2.1652 0.5178 0.089 0
M  V30 7 H -1.3667 -0.887 0.8924 0
M  V30 8 H -1.3834 -0.7613 -0.9154 0
M  V30 9 H 1.205 -1.0378 0.8582 0
M  V30 10 H 1.1884 -0.9121 -0.9496 0
M  V30 11 H 2.1406 0.2653 0.0317 0
M  V30 END ATOM
M  V30 BEGIN BOND
M  V30 1 1 1 2
M  V30 2 1 1 3
M  V30 3 1 1 4
M  V30 4 1 1 5
M  V30 5 1 2 6
M  V30 6 1 2 7
M  V30 7 1 2 8
M  V30 8 1 3 9
M  V30 9 1 3 10
M  V30 10 1 3 11
M  V30 END BOND
M  V30 END CTAB
M  END
>  <Structure No>
8813

>  <LogS>
-2.84

>  <MMFF94 Energy>
-4.8973

$$$$
Compound 8814
Actelion Java MolfileCreator 2.0

  0  0  0  0  0  0              0 V3000
M  V30 BEGIN CTAB
M  V30 COUNTS 12 11 0 0 0
M  V30 BEGIN ATOM
M  V30 1 O 1.5944 -1.3665 0.0758 0
M  V30 2 C 0.9879 -0.2749 -0.092 0
M  V30 3 N 1.5183 0.9239 0.4727 0
M  V30 4 C -0.3078 -0.2501 -0.8442 0
M  V30 5 C -1.4881 -0.3501 0.1151 0
M  V30 6 H 1.0157 1.8325 0.3617 0
M  V30 7 H 2.4144 0.9028 1.0082 0
M  V30 8 H -0.3833 0.6933 -1.4263 0
M  V30 9 H -0.343 -1.0991 -1.5608 0
M  V30 10 H -1.4383 -1.2996 0.69 0
M  V30 11 H -2.4374 -0.3324 -0.4605 0
M  V30 12 H -1.4852 0.5074 0.8218 0
M  V30 END ATOM
M  V30 BEGIN BOND
M  V30 1 2 1 2
M  V30 2 1 2 3
M  V30 3 1 2 4
M  V30 4 1 4 5
M  V30 5 1 3 6
M  V30 6 1 3 7
M  V30 7 1 4 8
M  V30 8 1 4 9
M  V30 9 1 5 10
M  V30 10 1 5 11
M  V30 11 1 5 12
M  V30 END BOND
M  V30 END CTAB
M  END
>  <Structure No>
8814

>  <LogS>
-4.23

>  <MMFF94 Energy>
-29.737

$$$$
Compound 8815
Actelion Java MolfileCreator 2.0

  0  0  0  0  0  0              0 V3000
M  V30 BEGIN CTAB
M  V30 COUNTS 16 16 0 0 0
M  V30 BEGIN ATOM
M  V30 1 Cl -0.3545 2.7502 -0.3545 0
M  V30 2 C 0.3867 1.1531 -0.281 0
M  V30 3 C 1.7759 1.0143 -0.101 0
M  V30 4 C -0.4234 0.0121 -0.4029 0
M  V30 5 Cl 2.7979 2.4428 0.0597 0
M  V30 6 C 2.3464 -0.2697 -0.0508 0
M  V30 7 O -1.8014 0.1526 -0.5794 0
M  V30 8 C 0.1562 -1.2651 -0.3622 0
M  V30 9 Cl 4.0771 -0.4931 0.1717 0
M  V30 10 C 1.5352 -1.4003 -0.1841 0
M  V30 11 C -2.6987 0.0892 0.5218 0
M  V30 12 Cl -0.829 -2.7074 -0.5547 0
M  V30 13 H 1.9787 -2.3878 -0.1527 0
M  V30 14 H -3.7368 0.2222 0.1546 0
M  V30 15 H -2.4663 0.8973 1.2474 0
M  V30 16 H -2.6184 -0.896 1.0271 0
M  V30 END ATOM
M  V30 BEGIN BOND
M  V30 1 1 1 2
M  V30 2 2 2 3
M  V30 3 1 2 4
M  V30 4 1 3 5
M  V30 5 1 3 6
M  V30 6 1 4 7
M  V30 7 2 4 8
M  V30 8 1 6 9
M  V30 9 2 6 10
M  V30 10 1 7 11
M  V30 11 1 8 12
M  V30 12 1 8 10
M  V30 13 1 10 13
M  V30 14 1 11 14
M  V30 15 1 11 15
M  V30 16 1 11 16
M  V30 END BOND
M  V30 END CTAB
M  END
>  <Structure No>
8815

>  <LogS>
-5.13

>  <MMFF94 Energy>
41.83

$$$$
Compound 8816
Actelion Java MolfileCreator 2.0

  0  0  0  0  0  0              0 V3000
M  V30 BEGIN CTAB
M  V30 COUNTS 12 12 0 0 0
M  V30 BEGIN ATOM
M  V30 1 Cl 1.1928 2.8459 0.0917 0
M  V30 2 C 0.5133 1.2194 0.0443 0
M  V30 3 C 1.3627 0.0979 0.0062 0
M  V30 4 C -0.8819 1.0344 0.0445 0
M  V30 5 Cl 3.1126 0.2764 0.0045 0
M  V30 6 C 0.8177 -1.1905 -0.0313 0
M  V30 7 Cl -1.9855 2.4035 0.0914 0
M  V30 8 C -1.4154 -0.2588 0.0067 0
M  V30 9 C -0.5682 -1.3694 -0.0309 0
M  V30 10 Cl -1.2442 -2.9874 -0.0781 0
M  V30 11 H 1.4716 -2.0529 -0.0605 0
M  V30 12 H -2.489 -0.4005 0.0069 0
M  V30 END ATOM
M  V30 BEGIN BOND
M  V30 1 1 1 2
M  V30 2 2 2 3
M  V30 3 1 2 4
M  V30 4 1 3 5
M  V30 5 1 3 6
M  V30 6 1 4 7
M  V30 7 2 4 8
M  V30 8 2 6 9
M  V30 9 1 9 10
M  V30 10 1 8 9
M  V30 11 1 6 11
M  V30 12 1 8 12
M  V30 END BOND
M  V30 END CTAB
M  END
>  <Structure No>
8816

>  <LogS>
-4.68

>  <MMFF94 Energy>
12.047

$$$$
Compound 8817
Actelion Java MolfileCreator 2.0

  0  0  0  0  0  0              0 V3000
M  V30 BEGIN CTAB
M  V30 COUNTS 12 12 0 0 0
M  V30 BEGIN ATOM
M  V30 1 Cl -1.9271 -2.4781 -0.1834 0
M  V30 2 C -0.8482 -1.093 -0.0846 0
M  V30 3 C -1.3488 0.219 -0.0423 0
M  V30 4 C 0.5335 -1.3111 -0.0478 0
M  V30 5 Cl -3.0777 0.5375 -0.0862 0
M  V30 6 C -0.4622 1.2991 0.0361 0
M  V30 7 C 1.4201 -0.231 0.0306 0
M  V30 8 C 0.9195 1.081 0.0729 0
M  V30 9 Cl 3.1489 -0.5494 0.0746 0
M  V30 10 Cl 1.9984 2.4661 0.1717 0
M  V30 11 H 0.9194 -2.3225 -0.0803 0
M  V30 12 H -0.8482 2.3106 0.0687 0
M  V30 END ATOM
M  V30 BEGIN BOND
M  V30 1 1 1 2
M  V30 2 2 2 3
M  V30 3 1 2 4
M  V30 4 1 3 5
M  V30 5 1 3 6
M  V30 6 2 4 7
M  V30 7 2 6 8
M  V30 8 1 7 9
M  V30 9 1 8 10
M  V30 10 1 7 8
M  V30 11 1 4 11
M  V30 12 1 6 12
M  V30 END BOND
M  V30 END CTAB
M  END
>  <Structure No>
8817

>  <LogS>
-5.47

>  <MMFF94 Energy>
17.528

$$$$
Compound 8818
Actelion Java MolfileCreator 2.0

  0  0  0  0  0  0              0 V3000
M  V30 BEGIN CTAB
M  V30 COUNTS 28 29 0 0 0
M  V30 BEGIN ATOM
M  V30 1 Cl -0.4249 1.02 2.0407 0
M  V30 2 C -1.2458 0.0737 0.7936 0
M  V30 3 C -0.6112 -1.0584 0.2258 0
M  V30 4 C -2.5598 0.4272 0.3959 0
M  V30 5 C -1.3305 -1.8629 -0.6719 0
M  V30 6 C 0.8012 -1.4718 0.6012 0
M  V30 7 C -3.2553 -0.4063 -0.5082 0
M  V30 8 C -3.2355 1.6389 0.9949 0
M  V30 9 C -2.6344 -1.5391 -1.033 0
M  V30 10 C 1.8498 -0.4308 0.2342 0
M  V30 11 Cl -4.9205 -0.0914 -0.9923 0
M  V30 12 C 2.0449 -0.0471 -1.1178 0
M  V30 13 C 2.6949 0.1369 1.2251 0
M  V30 14 Cl 1.1615 -0.787 -2.4486 0
M  V30 15 C 2.997 0.9241 -1.445 0
M  V30 16 Cl 2.6385 -0.3449 2.9205 0
M  V30 17 C 3.6401 1.1065 0.8721 0
M  V30 18 C 3.7828 1.506 -0.4538 0
M  V30 19 H -0.8803 -2.7507 -1.0984 0
M  V30 20 H 1.0819 -2.4222 0.0976 0
M  V30 21 H 0.7996 -1.7092 1.6826 0
M  V30 22 H -4.0456 2.029 0.3468 0
M  V30 23 H -3.6601 1.3746 1.9857 0
M  V30 24 H -2.5155 2.4746 1.1154 0
M  V30 25 H -3.168 -2.1795 -1.7243 0
M  V30 26 H 3.1381 1.2218 -2.4765 0
M  V30 27 H 4.2757 1.5475 1.6298 0
M  V30 28 H 4.5192 2.2543 -0.717 0
M  V30 END ATOM
M  V30 BEGIN BOND
M  V30 1 1 1 2
M  V30 2 2 2 3
M  V30 3 1 2 4
M  V30 4 1 3 5
M  V30 5 1 3 6
M  V30 6 2 4 7
M  V30 7 1 4 8
M  V30 8 2 5 9
M  V30 9 1 6 10
M  V30 10 1 7 11
M  V30 11 2 10 12
M  V30 12 1 10 13
M  V30 13 1 12 14
M  V30 14 1 12 15
M  V30 15 1 13 16
M  V30 16 2 13 17
M  V30 17 2 15 18
M  V30 18 1 7 9
M  V30 19 1 17 18
M  V30 20 1 5 19
M  V30 21 1 6 20
M  V30 22 1 6 21
M  V30 23 1 8 22
M  V30 24 1 8 23
M  V30 25 1 8 24
M  V30 26 1 9 25
M  V30 27 1 15 26
M  V30 28 1 17 27
M  V30 29 1 18 28
M  V30 END BOND
M  V30 END CTAB
M  END
>  <Structure No>
8818

>  <LogS>
-7.99

>  <MMFF94 Energy>
35.804

$$$$
Compound 8819
Actelion Java MolfileCreator 2.0

  0  0  0  0  0  0              0 V3000
M  V30 BEGIN CTAB
M  V30 COUNTS 28 29 0 0 0
M  V30 BEGIN ATOM
M  V30 1 Cl 0.5095 0.9343 2.2094 0
M  V30 2 C 1.338 0.2864 0.7881 0
M  V30 3 C 0.8987 -0.9251 0.2006 0
M  V30 4 C 2.4742 0.9574 0.2705 0
M  V30 5 C 1.6455 -1.4838 -0.8476 0
M  V30 6 C -0.3339 -1.6598 0.6928 0
M  V30 7 C 3.2055 0.3643 -0.7827 0
M  V30 8 C 2.9419 2.2523 0.8928 0
M  V30 9 C 2.7838 -0.8467 -1.3307 0
M  V30 10 C -1.6172 -0.9305 0.3484 0
M  V30 11 Cl 4.6778 1.0838 -1.4306 0
M  V30 12 C -2.0937 -0.8384 -0.9808 0
M  V30 13 C -2.3804 -0.3552 1.382 0
M  V30 14 Cl -1.2667 -1.6053 -2.3303 0
M  V30 15 C -3.281 -0.147 -1.2527 0
M  V30 16 C -3.5629 0.3315 1.0993 0
M  V30 17 C -4.0107 0.4417 -0.2176 0
M  V30 18 Cl -5.4974 1.3035 -0.5703 0
M  V30 19 H 1.3521 -2.4267 -1.2917 0
M  V30 20 H -0.2452 -1.8103 1.7906 0
M  V30 21 H -0.384 -2.6836 0.2626 0
M  V30 22 H 3.5432 2.8607 0.1882 0
M  V30 23 H 3.5525 2.0316 1.793 0
M  V30 24 H 2.0794 2.8877 1.1814 0
M  V30 25 H 3.3461 -1.3034 -2.1354 0
M  V30 26 H -2.0615 -0.437 2.4134 0
M  V30 27 H -3.6422 -0.0745 -2.2711 0
M  V30 28 H -4.1319 0.7751 1.9064 0
M  V30 END ATOM
M  V30 BEGIN BOND
M  V30 1 1 1 2
M  V30 2 2 2 3
M  V30 3 1 2 4
M  V30 4 1 3 5
M  V30 5 1 3 6
M  V30 6 2 4 7
M  V30 7 1 4 8
M  V30 8 2 5 9
M  V30 9 1 6 10
M  V30 10 1 7 11
M  V30 11 2 10 12
M  V30 12 1 10 13
M  V30 13 1 12 14
M  V30 14 1 12 15
M  V30 15 2 13 16
M  V30 16 2 15 17
M  V30 17 1 17 18
M  V30 18 1 7 9
M  V30 19 1 16 17
M  V30 20 1 5 19
M  V30 21 1 6 20
M  V30 22 1 6 21
M  V30 23 1 8 22
M  V30 24 1 8 23
M  V30 25 1 8 24
M  V30 26 1 9 25
M  V30 27 1 13 26
M  V30 28 1 15 27
M  V30 29 1 16 28
M  V30 END BOND
M  V30 END CTAB
M  END
>  <Structure No>
8819

>  <LogS>
-7.4

>  <MMFF94 Energy>
35.75

$$$$
Compound 8820
Actelion Java MolfileCreator 2.0

  0  0  0  0  0  0              0 V3000
M  V30 BEGIN CTAB
M  V30 COUNTS 28 29 0 0 0
M  V30 BEGIN ATOM
M  V30 1 Cl 0.3394 -2.5478 -1.1884 0
M  V30 2 C 1.1825 -1.2063 -0.4224 0
M  V30 3 C 0.694 -0.592 0.7497 0
M  V30 4 C 2.3692 -0.7523 -1.0082 0
M  V30 5 C 1.4119 0.4786 1.3085 0
M  V30 6 C -0.598 -1.0374 1.3989 0
M  V30 7 C 3.0853 0.3152 -0.4456 0
M  V30 8 C 2.597 0.9322 0.7213 0
M  V30 9 C -1.8066 -0.5435 0.63 0
M  V30 10 C 4.357 0.7891 -1.0933 0
M  V30 11 Cl 3.4449 2.2807 1.4714 0
M  V30 12 C -2.8189 -1.4201 0.1691 0
M  V30 13 C -1.9542 0.8394 0.4079 0
M  V30 14 Cl -2.772 -3.1573 0.4565 0
M  V30 15 C -3.9195 -0.9086 -0.5298 0
M  V30 16 C -3.0574 1.3369 -0.2909 0
M  V30 17 C -4.0364 0.462 -0.7633 0
M  V30 18 Cl -3.2137 3.0616 -0.5706 0
M  V30 19 H 2.7319 -1.2351 -1.9075 0
M  V30 20 H 1.0459 0.9686 2.2027 0
M  V30 21 H -0.5793 -2.1407 1.4973 0
M  V30 22 H -0.6657 -0.6485 2.4383 0
M  V30 23 H 4.2488 1.8514 -1.3978 0
M  V30 24 H 4.6047 0.1925 -1.9967 0
M  V30 25 H 5.1997 0.6977 -0.376 0
M  V30 26 H -1.2097 1.5335 0.7769 0
M  V30 27 H -4.6929 -1.576 -0.8889 0
M  V30 28 H -4.8932 0.8436 -1.3041 0
M  V30 END ATOM
M  V30 BEGIN BOND
M  V30 1 1 1 2
M  V30 2 2 2 3
M  V30 3 1 2 4
M  V30 4 1 3 5
M  V30 5 1 3 6
M  V30 6 2 4 7
M  V30 7 2 5 8
M  V30 8 1 6 9
M  V30 9 1 7 10
M  V30 10 1 8 11
M  V30 11 2 9 12
M  V30 12 1 9 13
M  V30 13 1 12 14
M  V30 14 1 12 15
M  V30 15 2 13 16
M  V30 16 2 15 17
M  V30 17 1 16 18
M  V30 18 1 7 8
M  V30 19 1 16 17
M  V30 20 1 4 19
M  V30 21 1 5 20
M  V30 22 1 6 21
M  V30 23 1 6 22
M  V30 24 1 10 23
M  V30 25 1 10 24
M  V30 26 1 10 25
M  V30 27 1 13 26
M  V30 28 1 15 27
M  V30 29 1 17 28
M  V30 END BOND
M  V30 END CTAB
M  END
>  <Structure No>
8820

>  <LogS>
-8.03

>  <MMFF94 Energy>
40.992

$$$$
Compound 8821
Actelion Java MolfileCreator 2.0

  0  0  0  0  0  0              0 V3000
M  V30 BEGIN CTAB
M  V30 COUNTS 28 29 0 0 0
M  V30 BEGIN ATOM
M  V30 1 Cl -0.8492 -3.6555 1.1041 0
M  V30 2 C -1.4254 -2.0338 0.7261 0
M  V30 3 C -0.7081 -1.1469 -0.1098 0
M  V30 4 C -2.6491 -1.6387 1.2765 0
M  V30 5 C -1.2712 0.1085 -0.4072 0
M  V30 6 C 0.6147 -1.5323 -0.7439 0
M  V30 7 C -3.1864 -0.3797 0.998 0
M  V30 8 C -2.499 0.5036 0.1466 0
M  V30 9 C 1.6856 -0.4845 -0.4967 0
M  V30 10 Cl -4.7311 0.0556 1.7225 0
M  V30 11 C -3.0673 1.8579 -0.1783 0
M  V30 12 C 2.0836 0.4142 -1.5186 0
M  V30 13 C 2.2879 -0.3729 0.78 0
M  V30 14 Cl 1.3876 0.3763 -3.1373 0
M  V30 15 C 3.0592 1.3835 -1.2592 0
M  V30 16 Cl 1.8526 -1.4373 2.1142 0
M  V30 17 C 3.2612 0.6035 1.0166 0
M  V30 18 C 3.6454 1.4773 0.0015 0
M  V30 19 H -3.1909 -2.3191 1.9221 0
M  V30 20 H -0.7486 0.7847 -1.0714 0
M  V30 21 H 0.9936 -2.5014 -0.3642 0
M  V30 22 H 0.4444 -1.7039 -1.8253 0
M  V30 23 H -4.0508 1.7407 -0.68 0
M  V30 24 H -2.3991 2.4329 -0.8542 0
M  V30 25 H -3.2 2.4429 0.7561 0
M  V30 26 H 3.3641 2.0704 -2.0388 0
M  V30 27 H 3.722 0.6872 1.993 0
M  V30 28 H 4.3987 2.2307 0.1929 0
M  V30 END ATOM
M  V30 BEGIN BOND
M  V30 1 1 1 2
M  V30 2 2 2 3
M  V30 3 1 2 4
M  V30 4 1 3 5
M  V30 5 1 3 6
M  V30 6 2 4 7
M  V30 7 2 5 8
M  V30 8 1 6 9
M  V30 9 1 7 10
M  V30 10 1 8 11
M  V30 11 2 9 12
M  V30 12 1 9 13
M  V30 13 1 12 14
M  V30 14 1 12 15
M  V30 15 1 13 16
M  V30 16 2 13 17
M  V30 17 2 15 18
M  V30 18 1 7 8
M  V30 19 1 17 18
M  V30 20 1 4 19
M  V30 21 1 5 20
M  V30 22 1 6 21
M  V30 23 1 6 22
M  V30 24 1 11 23
M  V30 25 1 11 24
M  V30 26 1 11 25
M  V30 27 1 15 26
M  V30 28 1 17 27
M  V30 29 1 18 28
M  V30 END BOND
M  V30 END CTAB
M  END
>  <Structure No>
8821

>  <LogS>
-8.36

>  <MMFF94 Energy>
31.278

$$$$
Compound 8822
Actelion Java MolfileCreator 2.0

  0  0  0  0  0  0              0 V3000
M  V30 BEGIN CTAB
M  V30 COUNTS 28 29 0 0 0
M  V30 BEGIN ATOM
M  V30 1 Cl -0.2546 -2.6332 1.3584 0
M  V30 2 C -1.1609 -1.3175 0.622 0
M  V30 3 C -0.6945 -0.626 -0.5181 0
M  V30 4 C -2.3978 -0.9855 1.184 0
M  V30 5 C -1.5128 0.3635 -1.0929 0
M  V30 6 C 0.645 -0.9408 -1.1532 0
M  V30 7 C -3.1913 0.0182 0.6234 0
M  V30 8 C -2.7534 0.6983 -0.5272 0
M  V30 9 C 1.8088 -0.4724 -0.3031 0
M  V30 10 Cl -4.738 0.3893 1.3788 0
M  V30 11 C -3.5992 1.7716 -1.1554 0
M  V30 12 C 2.1229 0.8992 -0.1525 0
M  V30 13 C 2.6232 -1.4272 0.3344 0
M  V30 14 Cl 1.2245 2.165 -0.9801 0
M  V30 15 C 3.2023 1.2861 0.6519 0
M  V30 16 C 3.697 -1.03 1.1339 0
M  V30 17 C 3.9837 0.3259 1.2983 0
M  V30 18 Cl 5.3342 0.8225 2.3018 0
M  V30 19 H -2.7486 -1.5171 2.0601 0
M  V30 20 H -1.1822 0.8775 -1.9872 0
M  V30 21 H 0.7274 -0.4723 -2.158 0
M  V30 22 H 0.704 -2.0358 -1.3358 0
M  V30 23 H -3.1058 2.2153 -2.0462 0
M  V30 24 H -4.5721 1.3425 -1.4753 0
M  V30 25 H -3.7809 2.5841 -0.4207 0
M  V30 26 H 2.4292 -2.4855 0.2136 0
M  V30 27 H 3.4392 2.3365 0.7684 0
M  V30 28 H 4.3074 -1.7783 1.623 0
M  V30 END ATOM
M  V30 BEGIN BOND
M  V30 1 1 1 2
M  V30 2 2 2 3
M  V30 3 1 2 4
M  V30 4 1 3 5
M  V30 5 1 3 6
M  V30 6 2 4 7
M  V30 7 2 5 8
M  V30 8 1 6 9
M  V30 9 1 7 10
M  V30 10 1 8 11
M  V30 11 2 9 12
M  V30 12 1 9 13
M  V30 13 1 12 14
M  V30 14 1 12 15
M  V30 15 2 13 16
M  V30 16 2 15 17
M  V30 17 1 17 18
M  V30 18 1 7 8
M  V30 19 1 16 17
M  V30 20 1 4 19
M  V30 21 1 5 20
M  V30 22 1 6 21
M  V30 23 1 6 22
M  V30 24 1 11 23
M  V30 25 1 11 24
M  V30 26 1 11 25
M  V30 27 1 13 26
M  V30 28 1 15 27
M  V30 29 1 16 28
M  V30 END BOND
M  V30 END CTAB
M  END
>  <Structure No>
8822

>  <LogS>
-7.49

>  <MMFF94 Energy>
30.512

$$$$
Compound 8823
Actelion Java MolfileCreator 2.0

  0  0  0  0  0  0              0 V3000
M  V30 BEGIN CTAB
M  V30 COUNTS 28 29 0 0 0
M  V30 BEGIN ATOM
M  V30 1 Cl -3.6551 -0.5094 -2.549 0
M  V30 2 C -2.711 -0.1852 -1.0922 0
M  V30 3 C -1.5845 -0.9751 -0.7936 0
M  V30 4 C -3.0864 0.8648 -0.2342 0
M  V30 5 Cl -1.1318 -2.288 -1.8854 0
M  V30 6 C -0.8323 -0.7168 0.373 0
M  V30 7 Cl -4.5004 1.8529 -0.6175 0
M  V30 8 C -2.3342 1.1273 0.9264 0
M  V30 9 C -1.2147 0.3365 1.2173 0
M  V30 10 C 0.406 -1.5143 0.7172 0
M  V30 11 C -2.7143 2.2488 1.8554 0
M  V30 12 C 1.6136 -0.967 2.0E-4 0
M  V30 13 C 2.193 -1.6735 -1.0675 0
M  V30 14 C 2.1694 0.2638 0.3896 0
M  V30 15 C 3.3044 -1.1532 -1.7375 0
M  V30 16 C 3.2806 0.7812 -0.2824 0
M  V30 17 C 3.8481 0.0743 -1.3469 0
M  V30 18 Cl 5.242 0.7253 -2.1894 0
M  V30 19 H -0.6331 0.5424 2.1083 0
M  V30 20 H 0.2518 -2.5881 0.4778 0
M  V30 21 H 0.5934 -1.4817 1.8129 0
M  V30 22 H -2.6823 3.215 1.3094 0
M  V30 23 H -2.023 2.3188 2.722 0
M  V30 24 H -3.7403 2.0814 2.2455 0
M  V30 25 H 1.7885 -2.6274 -1.3805 0
M  V30 26 H 1.7425 0.8224 1.2129 0
M  V30 27 H 3.7419 -1.7055 -2.5594 0
M  V30 28 H 3.6992 1.7311 0.025 0
M  V30 END ATOM
M  V30 BEGIN BOND
M  V30 1 1 1 2
M  V30 2 2 2 3
M  V30 3 1 2 4
M  V30 4 1 3 5
M  V30 5 1 3 6
M  V30 6 1 4 7
M  V30 7 2 4 8
M  V30 8 2 6 9
M  V30 9 1 6 10
M  V30 10 1 8 11
M  V30 11 1 10 12
M  V30 12 2 12 13
M  V30 13 1 12 14
M  V30 14 1 13 15
M  V30 15 2 14 16
M  V30 16 2 15 17
M  V30 17 1 17 18
M  V30 18 1 8 9
M  V30 19 1 16 17
M  V30 20 1 9 19
M  V30 21 1 10 20
M  V30 22 1 10 21
M  V30 23 1 11 22
M  V30 24 1 11 23
M  V30 25 1 11 24
M  V30 26 1 13 25
M  V30 27 1 14 26
M  V30 28 1 15 27
M  V30 29 1 16 28
M  V30 END BOND
M  V30 END CTAB
M  END
>  <Structure No>
8823

>  <LogS>
-8.18

>  <MMFF94 Energy>
60.215

$$$$
Compound 8824
Actelion Java MolfileCreator 2.0

  0  0  0  0  0  0              0 V3000
M  V30 BEGIN CTAB
M  V30 COUNTS 28 29 0 0 0
M  V30 BEGIN ATOM
M  V30 1 Cl 2.6365 -3.2326 -1.6153 0
M  V30 2 C 2.3885 -1.6347 -0.9058 0
M  V30 3 C 1.2874 -1.3922 -0.0632 0
M  V30 4 C 3.2996 -0.6073 -1.1797 0
M  V30 5 Cl 0.2193 -2.7423 0.3384 0
M  V30 6 C 1.0726 -0.0988 0.4831 0
M  V30 7 Cl 4.6856 -0.8691 -2.232 0
M  V30 8 C 3.1354 0.6449 -0.5932 0
M  V30 9 C 2.0485 0.9116 0.2521 0
M  V30 10 C -0.1542 0.1759 1.3479 0
M  V30 11 C 1.9747 2.2693 0.9077 0
M  V30 12 C -1.47 -0.0932 0.64 0
M  V30 13 C -1.8367 0.5636 -0.5602 0
M  V30 14 C -2.3889 -0.9823 1.2314 0
M  V30 15 Cl -0.8027 1.7519 -1.3418 0
M  V30 16 C -3.0727 0.2876 -1.1588 0
M  V30 17 C -3.618 -1.2478 0.6242 0
M  V30 18 C -3.9574 -0.6175 -0.5719 0
M  V30 19 H 3.8712 1.4144 -0.794 0
M  V30 20 H -0.0637 -0.4499 2.2621 0
M  V30 21 H -0.1978 1.2193 1.7139 0
M  V30 22 H 1.9412 2.1533 2.0114 0
M  V30 23 H 2.861 2.8942 0.667 0
M  V30 24 H 1.0752 2.8176 0.5616 0
M  V30 25 H -2.1508 -1.4815 2.1625 0
M  V30 26 H -3.3533 0.7828 -2.0798 0
M  V30 27 H -4.3093 -1.9422 1.084 0
M  V30 28 H -4.911 -0.8236 -1.0404 0
M  V30 END ATOM
M  V30 BEGIN BOND
M  V30 1 1 1 2
M  V30 2 2 2 3
M  V30 3 1 2 4
M  V30 4 1 3 5
M  V30 5 1 3 6
M  V30 6 1 4 7
M  V30 7 2 4 8
M  V30 8 2 6 9
M  V30 9 1 6 10
M  V30 10 1 9 11
M  V30 11 1 10 12
M  V30 12 2 12 13
M  V30 13 1 12 14
M  V30 14 1 13 15
M  V30 15 1 13 16
M  V30 16 2 14 17
M  V30 17 2 16 18
M  V30 18 1 8 9
M  V30 19 1 17 18
M  V30 20 1 8 19
M  V30 21 1 10 20
M  V30 22 1 10 21
M  V30 23 1 11 22
M  V30 24 1 11 23
M  V30 25 1 11 24
M  V30 26 1 14 25
M  V30 27 1 16 26
M  V30 28 1 17 27
M  V30 29 1 18 28
M  V30 END BOND
M  V30 END CTAB
M  END
>  <Structure No>
8824

>  <LogS>
-7.24

>  <MMFF94 Energy>
61.389

$$$$
Compound 8825
Actelion Java MolfileCreator 2.0

  0  0  0  0  0  0              0 V3000
M  V30 BEGIN CTAB
M  V30 COUNTS 28 29 0 0 0
M  V30 BEGIN ATOM
M  V30 1 Cl -3.8262 -3.3154 -0.0849 0
M  V30 2 C -3.0045 -1.7589 0.0557 0
M  V30 3 C -1.8943 -1.4632 -0.7578 0
M  V30 4 C -3.462 -0.817 0.9863 0
M  V30 5 Cl -1.3462 -2.6847 -1.915 0
M  V30 6 C -1.2364 -0.2097 -0.6416 0
M  V30 7 Cl -4.8441 -1.1513 2.0234 0
M  V30 8 C -2.8203 0.413 1.1081 0
M  V30 9 C -1.7149 0.734 0.3073 0
M  V30 10 C -0.0185 0.1082 -1.4975 0
M  V30 11 C -1.0582 2.0788 0.4982 0
M  V30 12 C 1.2672 -0.0309 -0.7186 0
M  V30 13 C 1.6038 -1.2494 -0.1026 0
M  V30 14 C 2.1666 1.0466 -0.638 0
M  V30 15 C 2.8043 -1.3774 0.602 0
M  V30 16 C 3.3661 0.9154 0.068 0
M  V30 17 C 3.685 -0.2951 0.6902 0
M  V30 18 Cl 5.1906 -0.458 1.5751 0
M  V30 19 H -3.1894 1.1243 1.8374 0
M  V30 20 H 0.0444 -0.5386 -2.3942 0
M  V30 21 H -0.1193 1.1323 -1.9137 0
M  V30 22 H -1.6065 2.7039 1.2347 0
M  V30 23 H -0.0256 1.9447 0.8782 0
M  V30 24 H -1.0398 2.64 -0.4584 0
M  V30 25 H 0.9382 -2.0997 -0.1635 0
M  V30 26 H 1.9378 1.9912 -1.1156 0
M  V30 27 H 3.0494 -2.3186 1.0774 0
M  V30 28 H 4.0471 1.7546 0.129 0
M  V30 END ATOM
M  V30 BEGIN BOND
M  V30 1 1 1 2
M  V30 2 2 2 3
M  V30 3 1 2 4
M  V30 4 1 3 5
M  V30 5 1 3 6
M  V30 6 1 4 7
M  V30 7 2 4 8
M  V30 8 2 6 9
M  V30 9 1 6 10
M  V30 10 1 9 11
M  V30 11 1 10 12
M  V30 12 2 12 13
M  V30 13 1 12 14
M  V30 14 1 13 15
M  V30 15 2 14 16
M  V30 16 2 15 17
M  V30 17 1 17 18
M  V30 18 1 8 9
M  V30 19 1 16 17
M  V30 20 1 8 19
M  V30 21 1 10 20
M  V30 22 1 10 21
M  V30 23 1 11 22
M  V30 24 1 11 23
M  V30 25 1 11 24
M  V30 26 1 13 25
M  V30 27 1 14 26
M  V30 28 1 15 27
M  V30 29 1 16 28
M  V30 END BOND
M  V30 END CTAB
M  END
>  <Structure No>
8825

>  <LogS>
-7.44

>  <MMFF94 Energy>
60.205

$$$$
Compound 8826
Actelion Java MolfileCreator 2.0

  0  0  0  0  0  0              0 V3000
M  V30 BEGIN CTAB
M  V30 COUNTS 22 23 0 0 0
M  V30 BEGIN ATOM
M  V30 1 Cl -3.9855 2.078 0.7789 0
M  V30 2 C -2.9553 0.7858 0.178 0
M  V30 3 C -3.4988 -0.3378 -0.4649 0
M  V30 4 C -1.5701 0.8873 0.3525 0
M  V30 5 Cl -5.2331 -0.5028 -0.7047 0
M  V30 6 C -2.6517 -1.3496 -0.9267 0
M  V30 7 C -0.7126 -0.1274 -0.1099 0
M  V30 8 C -1.2695 -1.248 -0.7512 0
M  V30 9 C 0.7568 -0.0172 0.0761 0
M  V30 10 C 1.4115 1.2132 -0.1147 0
M  V30 11 C 1.5162 -1.1412 0.4461 0
M  V30 12 C 2.7963 1.3197 0.0602 0
M  V30 13 C 2.898 -1.0358 0.6219 0
M  V30 14 Cl 3.5692 2.8784 -0.1957 0
M  V30 15 C 3.5431 0.1898 0.4308 0
M  V30 16 Cl 5.2838 0.2815 0.6616 0
M  V30 17 H -1.1664 1.7514 0.8657 0
M  V30 18 H -3.0641 -2.2169 -1.4265 0
M  V30 19 H -0.6349 -2.0375 -1.1335 0
M  V30 20 H 0.8506 2.0889 -0.4174 0
M  V30 21 H 1.0391 -2.098 0.6171 0
M  V30 22 H 3.4674 -1.91 0.9111 0
M  V30 END ATOM
M  V30 BEGIN BOND
M  V30 1 1 1 2
M  V30 2 2 2 3
M  V30 3 1 2 4
M  V30 4 1 3 5
M  V30 5 1 3 6
M  V30 6 2 4 7
M  V30 7 2 6 8
M  V30 8 1 7 9
M  V30 9 2 9 10
M  V30 10 1 9 11
M  V30 11 1 10 12
M  V30 12 2 11 13
M  V30 13 1 12 14
M  V30 14 2 12 15
M  V30 15 1 15 16
M  V30 16 1 7 8
M  V30 17 1 13 15
M  V30 18 1 4 17
M  V30 19 1 6 18
M  V30 20 1 8 19
M  V30 21 1 10 20
M  V30 22 1 11 21
M  V30 23 1 13 22
M  V30 END BOND
M  V30 END CTAB
M  END
>  <Structure No>
8826

>  <LogS>
-8.53

>  <MMFF94 Energy>
48.736

$$$$
Compound 8827
Actelion Java MolfileCreator 2.0

  0  0  0  0  0  0              0 V3000
M  V30 BEGIN CTAB
M  V30 COUNTS 22 23 0 0 0
M  V30 BEGIN ATOM
M  V30 1 Cl -0.692 -2.5968 0.2594 0
M  V30 2 C -1.4914 -1.0693 -0.102 0
M  V30 3 C -0.7799 0.1498 -0.1323 0
M  V30 4 C -2.8602 -1.0884 -0.3917 0
M  V30 5 C -1.4655 1.3409 -0.457 0
M  V30 6 C 0.6663 0.1792 0.1724 0
M  V30 7 C -3.5304 0.0942 -0.7118 0
M  V30 8 Cl -0.6482 2.9011 -0.4779 0
M  V30 9 C -2.8345 1.3045 -0.7439 0
M  V30 10 C 1.1199 -0.0814 1.4751 0
M  V30 11 C 1.5964 0.468 -0.8386 0
M  V30 12 Cl -5.2468 0.0594 -1.0733 0
M  V30 13 C 2.4882 -0.0534 1.762 0
M  V30 14 C 2.9639 0.4958 -0.5489 0
M  V30 15 C 3.4111 0.2351 0.7509 0
M  V30 16 Cl 5.127 0.2699 1.1126 0
M  V30 17 H -3.4031 -2.0252 -0.3724 0
M  V30 18 H -3.3594 2.2198 -0.9881 0
M  V30 19 H 0.4139 -0.3025 2.2665 0
M  V30 20 H 1.2615 0.6682 -1.8491 0
M  V30 21 H 2.8293 -0.2553 2.7695 0
M  V30 22 H 3.6743 0.719 -1.3346 0
M  V30 END ATOM
M  V30 BEGIN BOND
M  V30 1 1 1 2
M  V30 2 2 2 3
M  V30 3 1 2 4
M  V30 4 1 3 5
M  V30 5 1 3 6
M  V30 6 2 4 7
M  V30 7 1 5 8
M  V30 8 2 5 9
M  V30 9 2 6 10
M  V30 10 1 6 11
M  V30 11 1 7 12
M  V30 12 1 10 13
M  V30 13 2 11 14
M  V30 14 2 13 15
M  V30 15 1 15 16
M  V30 16 1 7 9
M  V30 17 1 14 15
M  V30 18 1 4 17
M  V30 19 1 9 18
M  V30 20 1 10 19
M  V30 21 1 11 20
M  V30 22 1 13 21
M  V30 23 1 14 22
M  V30 END BOND
M  V30 END CTAB
M  END
>  <Structure No>
8827

>  <LogS>
-6.94

>  <MMFF94 Energy>
29.828

$$$$
Compound 8828
Actelion Java MolfileCreator 2.0

  0  0  0  0  0  0              0 V3000
M  V30 BEGIN CTAB
M  V30 COUNTS 22 24 0 0 0
M  V30 BEGIN ATOM
M  V30 1 Cl 5.1159 1.4094 0.4403 0
M  V30 2 C 3.5731 0.57 0.273 0
M  V30 3 C 3.5367 -0.837 0.2093 0
M  V30 4 C 2.3769 1.3072 0.2032 0
M  V30 5 Cl 5.0336 -1.7666 0.2964 0
M  V30 6 C 2.3042 -1.5022 0.0759 0
M  V30 7 Cl 2.3921 3.0672 0.2804 0
M  V30 8 C 1.1536 0.6401 0.0706 0
M  V30 9 Cl 2.2285 -3.2602 -0.0061 0
M  V30 10 C 1.1172 -0.7635 0.007 0
M  V30 11 O -0.0459 1.3623 -1.0E-4 0
M  V30 12 O -0.1176 -1.4135 -0.1259 0
M  V30 13 C -1.2774 0.7119 -0.1327 0
M  V30 14 C -1.3138 -0.691 -0.1963 0
M  V30 15 C -2.4654 1.4463 -0.2019 0
M  V30 16 C -2.5379 -1.3538 -0.3288 0
M  V30 17 C -3.6893 0.7809 -0.3345 0
M  V30 18 C -3.7255 -0.6169 -0.3979 0
M  V30 19 H -2.4403 2.5273 -0.1532 0
M  V30 20 H -2.5686 -2.4346 -0.378 0
M  V30 21 H -4.6095 1.3481 -0.3882 0
M  V30 22 H -4.6735 -1.1286 -0.5005 0
M  V30 END ATOM
M  V30 BEGIN BOND
M  V30 1 1 1 2
M  V30 2 2 2 3
M  V30 3 1 2 4
M  V30 4 1 3 5
M  V30 5 1 3 6
M  V30 6 1 4 7
M  V30 7 2 4 8
M  V30 8 1 6 9
M  V30 9 2 6 10
M  V30 10 1 8 11
M  V30 11 1 10 12
M  V30 12 1 11 13
M  V30 13 1 12 14
M  V30 14 1 13 15
M  V30 15 1 14 16
M  V30 16 2 15 17
M  V30 17 2 16 18
M  V30 18 1 8 10
M  V30 19 2 13 14
M  V30 20 1 17 18
M  V30 21 1 15 19
M  V30 22 1 16 20
M  V30 23 1 17 21
M  V30 24 1 18 22
M  V30 END BOND
M  V30 END CTAB
M  END
>  <Structure No>
8828

>  <LogS>
-8.77

>  <MMFF94 Energy>
62.887

$$$$
Compound 8829
Actelion Java MolfileCreator 2.0

  0  0  0  0  0  0              0 V3000
M  V30 BEGIN CTAB
M  V30 COUNTS 6 5 0 0 0
M  V30 BEGIN ATOM
M  V30 1 Cl -1.5737 1.4687 -0.2097 0
M  V30 2 C -0.6334 -0.0162 -0.0999 0
M  V30 3 Cl -1.5213 -1.5367 -0.1365 0
M  V30 4 C 0.7067 0.0097 0.0077 0
M  V30 5 Cl 1.5946 1.5303 0.0445 0
M  V30 6 Cl 1.647 -1.4751 0.1176 0
M  V30 END ATOM
M  V30 BEGIN BOND
M  V30 1 1 1 2
M  V30 2 1 2 3
M  V30 3 2 2 4
M  V30 4 1 4 5
M  V30 5 1 4 6
M  V30 END BOND
M  V30 END CTAB
M  END
>  <Structure No>
8829

>  <LogS>
-2.74

>  <MMFF94 Energy>
10.685

$$$$
Compound 8830
Actelion Java MolfileCreator 2.0

  0  0  0  0  0  0              0 V3000
M  V30 BEGIN CTAB
M  V30 COUNTS 16 16 0 0 0
M  V30 BEGIN ATOM
M  V30 1 Cl 1.0309 -2.4927 1.1169 0
M  V30 2 C -0.0617 -1.204 0.6352 0
M  V30 3 C 0.3961 0.1191 0.5282 0
M  V30 4 C -1.3992 -1.5064 0.3565 0
M  V30 5 O 1.7306 0.4195 0.806 0
M  V30 6 C -0.4976 1.1374 0.155 0
M  V30 7 C -2.2842 -0.4927 -0.0235 0
M  V30 8 C 2.7041 0.4846 -0.2277 0
M  V30 9 Cl 0.0363 2.808 0.0485 0
M  V30 10 C -1.8339 0.8274 -0.1217 0
M  V30 11 Cl -3.9603 -0.876 -0.3709 0
M  V30 12 H -1.7506 -2.5275 0.4364 0
M  V30 13 H 2.4279 1.2661 -0.9663 0
M  V30 14 H 3.689 0.7386 0.2144 0
M  V30 15 H 2.7806 -0.498 -0.7389 0
M  V30 16 H -2.5223 1.6122 -0.4095 0
M  V30 END ATOM
M  V30 BEGIN BOND
M  V30 1 1 1 2
M  V30 2 2 2 3
M  V30 3 1 2 4
M  V30 4 1 3 5
M  V30 5 1 3 6
M  V30 6 2 4 7
M  V30 7 1 5 8
M  V30 8 1 6 9
M  V30 9 2 6 10
M  V30 10 1 7 11
M  V30 11 1 7 10
M  V30 12 1 4 12
M  V30 13 1 8 13
M  V30 14 1 8 14
M  V30 15 1 8 15
M  V30 16 1 10 16
M  V30 END BOND
M  V30 END CTAB
M  END
>  <Structure No>
8830

>  <LogS>
-4.2

>  <MMFF94 Energy>
25.157

$$$$
Compound 8831
Actelion Java MolfileCreator 2.0

  0  0  0  0  0  0              0 V3000
M  V30 BEGIN CTAB
M  V30 COUNTS 12 12 0 0 0
M  V30 BEGIN ATOM
M  V30 1 Cl 2.9975 -0.4404 -0.7047 0
M  V30 2 C 1.3068 -0.2163 -0.2941 0
M  V30 3 C 0.5231 -1.3169 0.0716 0
M  V30 4 C 0.7406 1.0631 -0.3321 0
M  V30 5 C -0.8259 -1.1385 0.3993 0
M  V30 6 C -0.6085 1.2424 -0.0044 0
M  V30 7 Cl -1.8074 -2.5181 0.8578 0
M  V30 8 C -1.3914 0.1413 0.3611 0
M  V30 9 Cl -1.3176 2.8461 -0.0522 0
M  V30 10 H 0.9609 -2.3068 0.1012 0
M  V30 11 H 1.3463 1.9149 -0.615 0
M  V30 12 H -2.435 0.2796 0.6146 0
M  V30 END ATOM
M  V30 BEGIN BOND
M  V30 1 1 1 2
M  V30 2 2 2 3
M  V30 3 1 2 4
M  V30 4 1 3 5
M  V30 5 2 4 6
M  V30 6 1 5 7
M  V30 7 2 5 8
M  V30 8 1 6 9
M  V30 9 1 6 8
M  V30 10 1 3 10
M  V30 11 1 4 11
M  V30 12 1 8 12
M  V30 END BOND
M  V30 END CTAB
M  END
>  <Structure No>
8831

>  <LogS>
-4.6

>  <MMFF94 Energy>
-7.7584

$$$$
Compound 8832
Actelion Java MolfileCreator 2.0

  0  0  0  0  0  0              0 V3000
M  V30 BEGIN CTAB
M  V30 COUNTS 22 24 0 0 0
M  V30 BEGIN ATOM
M  V30 1 Cl -2.1569 -0.4311 -3.3662 0
M  V30 2 C -2.3049 -0.2869 -1.6176 0
M  V30 3 C -1.1497 -0.1403 -0.8367 0
M  V30 4 C -3.5657 -0.317 -0.9953 0
M  V30 5 O 0.1163 -0.1079 -1.4369 0
M  V30 6 C -1.2524 -0.0239 0.5623 0
M  V30 7 Cl -5.0414 -0.4991 -1.9344 0
M  V30 8 C -3.6614 -0.2008 0.3969 0
M  V30 9 C 1.2781 0.038 -0.6704 0
M  V30 10 O -0.0879 0.122 1.3283 0
M  V30 11 C -2.5097 -0.0544 1.1769 0
M  V30 12 C 1.1748 0.1542 0.7264 0
M  V30 13 C 2.5343 0.0686 -1.2837 0
M  V30 14 Cl -2.6539 0.0895 2.9211 0
M  V30 15 C 2.3283 0.3003 1.5032 0
M  V30 16 C 3.687 0.215 -0.5042 0
M  V30 17 C 3.5841 0.3308 0.887 0
M  V30 18 H -4.6334 -0.2242 0.8738 0
M  V30 19 H 2.6167 -0.0205 -2.3593 0
M  V30 20 H 2.2516 0.3901 2.5792 0
M  V30 21 H 4.6598 0.2389 -0.9777 0
M  V30 22 H 4.4776 0.4439 1.4872 0
M  V30 END ATOM
M  V30 BEGIN BOND
M  V30 1 1 1 2
M  V30 2 2 2 3
M  V30 3 1 2 4
M  V30 4 1 3 5
M  V30 5 1 3 6
M  V30 6 1 4 7
M  V30 7 2 4 8
M  V30 8 1 5 9
M  V30 9 1 6 10
M  V30 10 2 6 11
M  V30 11 2 9 12
M  V30 12 1 9 13
M  V30 13 1 11 14
M  V30 14 1 12 15
M  V30 15 2 13 16
M  V30 16 2 15 17
M  V30 17 1 8 11
M  V30 18 1 10 12
M  V30 19 1 16 17
M  V30 20 1 8 18
M  V30 21 1 13 19
M  V30 22 1 15 20
M  V30 23 1 16 21
M  V30 24 1 17 22
M  V30 END BOND
M  V30 END CTAB
M  END
>  <Structure No>
8832

>  <LogS>
-7.58

>  <MMFF94 Energy>
53.742

$$$$
Compound 8833
Actelion Java MolfileCreator 2.0

  0  0  0  0  0  0              0 V3000
M  V30 BEGIN CTAB
M  V30 COUNTS 8 7 0 0 0
M  V30 BEGIN ATOM
M  V30 1 Cl -1.0933 -0.3643 1.7315 0
M  V30 2 C -0.6339 -0.0013 0.0491 0
M  V30 3 Cl -1.2974 1.5892 -0.4024 0
M  V30 4 Cl -1.3276 -1.244 -1.0221 0
M  V30 5 C 0.8844 0.0117 -0.084 0
M  V30 6 H 1.3024 -0.9784 0.1968 0
M  V30 7 H 1.3212 0.7856 0.5826 0
M  V30 8 H 1.1755 0.2379 -1.1319 0
M  V30 END ATOM
M  V30 BEGIN BOND
M  V30 1 1 1 2
M  V30 2 1 2 3
M  V30 3 1 2 4
M  V30 4 1 2 5
M  V30 5 1 5 6
M  V30 6 1 5 7
M  V30 7 1 5 8
M  V30 END BOND
M  V30 END CTAB
M  END
>  <Structure No>
8833

>  <LogS>
-2.14

>  <MMFF94 Energy>
3.0703

$$$$
Compound 8834
Actelion Java MolfileCreator 2.0

  0  0  0  0  0  0              0 V3000
M  V30 BEGIN CTAB
M  V30 COUNTS 8 7 0 0 0
M  V30 BEGIN ATOM
M  V30 1 Cl -1.2174 -1.03 -1.4048 0
M  V30 2 C -0.7506 -0.0157 -0.0133 0
M  V30 3 Cl -1.5943 1.5478 -0.1451 0
M  V30 4 F -1.1484 -0.637 1.1569 0
M  V30 5 C 0.7602 0.2161 0.0062 0
M  V30 6 Cl 1.6501 -1.3098 0.263 0
M  V30 7 H 1.0209 0.9123 0.8316 0
M  V30 8 H 1.089 0.6683 -0.9535 0
M  V30 END ATOM
M  V30 BEGIN BOND
M  V30 1 1 1 2
M  V30 2 1 2 3
M  V30 3 1 2 4
M  V30 4 1 2 5
M  V30 5 1 5 6
M  V30 6 1 5 7
M  V30 7 1 5 8
M  V30 END BOND
M  V30 END CTAB
M  END
>  <Structure No>
8834

>  <LogS>
-3.04

>  <MMFF94 Energy>
22.774

$$$$
Compound 8835
Actelion Java MolfileCreator 2.0

  0  0  0  0  0  0              0 V3000
M  V30 BEGIN CTAB
M  V30 COUNTS 34 33 0 0 0
M  V30 BEGIN ATOM
M  V30 1 S 1.5053 -0.4751 -2.0604 0
M  V30 2 C 0.4708 -1.2881 -0.8287 0
M  V30 3 C 3.0075 -0.4211 -1.0156 0
M  V30 4 O 0.6263 -2.5292 -0.6704 0
M  V30 5 N -0.5331 -0.5732 -0.0619 0
M  V30 6 C 2.9468 0.6871 0.0397 0
M  V30 7 C -0.9904 0.7589 -0.5188 0
M  V30 8 C -1.3272 -1.3269 0.9327 0
M  V30 9 C 3.0003 2.0826 -0.5799 0
M  V30 10 C -1.4603 1.6862 0.6167 0
M  V30 11 C -2.712 -1.7201 0.3941 0
M  V30 12 C -0.3369 2.0354 1.5904 0
M  V30 13 C -2.6293 -2.6658 -0.8014 0
M  V30 14 H 3.1483 -1.4021 -0.5133 0
M  V30 15 H 3.8884 -0.2604 -1.6731 0
M  V30 16 H 2.0268 0.5796 0.6488 0
M  V30 17 H 3.8156 0.5731 0.7233 0
M  V30 18 H -1.8244 0.624 -1.2401 0
M  V30 19 H -0.1851 1.295 -1.0581 0
M  V30 20 H -0.7901 -2.2398 1.269 0
M  V30 21 H -1.4562 -0.7257 1.8548 0
M  V30 22 H 2.1188 2.259 -1.2303 0
M  V30 23 H 3.9277 2.2038 -1.1789 0
M  V30 24 H 2.9988 2.8456 0.2267 0
M  V30 25 H -2.319 1.2461 1.1642 0
M  V30 26 H -1.8285 2.6316 0.1626 0
M  V30 27 H -3.2753 -2.2277 1.2069 0
M  V30 28 H -3.2865 -0.8137 0.1083 0
M  V30 29 H 0.0675 1.1224 2.0736 0
M  V30 30 H 0.4809 2.5639 1.0576 0
M  V30 31 H -0.7301 2.7067 2.3827 0
M  V30 32 H -3.6531 -2.976 -1.0988 0
M  V30 33 H -2.0472 -3.574 -0.5371 0
M  V30 34 H -2.1541 -2.1582 -1.6669 0
M  V30 END ATOM
M  V30 BEGIN BOND
M  V30 1 1 1 2
M  V30 2 1 1 3
M  V30 3 2 2 4
M  V30 4 1 2 5
M  V30 5 1 3 6
M  V30 6 1 5 7
M  V30 7 1 5 8
M  V30 8 1 6 9
M  V30 9 1 7 10
M  V30 10 1 8 11
M  V30 11 1 10 12
M  V30 12 1 11 13
M  V30 13 1 3 14
M  V30 14 1 3 15
M  V30 15 1 6 16
M  V30 16 1 6 17
M  V30 17 1 7 18
M  V30 18 1 7 19
M  V30 19 1 8 20
M  V30 20 1 8 21
M  V30 21 1 9 22
M  V30 22 1 9 23
M  V30 23 1 9 24
M  V30 24 1 10 25
M  V30 25 1 10 26
M  V30 26 1 11 27
M  V30 27 1 11 28
M  V30 28 1 12 29
M  V30 29 1 12 30
M  V30 30 1 12 31
M  V30 31 1 13 32
M  V30 32 1 13 33
M  V30 33 1 13 34
M  V30 END BOND
M  V30 END CTAB
M  END
>  <Structure No>
8835

>  <LogS>
-3.3

>  <MMFF94 Energy>
-45.526

$$$$
Compound 8836
Actelion Java MolfileCreator 2.0

  0  0  0  0  0  0              0 V3000
M  V30 BEGIN CTAB
M  V30 COUNTS 10 9 0 0 0
M  V30 BEGIN ATOM
M  V30 1 Cl 3.4161 -0.0975 1.0728 0
M  V30 2 C 2.1217 -0.2256 -0.0985 0
M  V30 3 Cl 2.4855 -0.593 -1.7706 0
M  V30 4 C 0.8865 -0.0474 0.274 0
M  V30 5 C -0.3523 0.1307 0.6453 0
M  V30 6 Cl -0.6846 0.4981 2.3305 0
M  V30 7 C -1.4699 0.0235 -0.35 0
M  V30 8 Cl -2.5924 -1.2738 0.1286 0
M  V30 9 Cl -2.3555 1.5659 -0.4436 0
M  V30 10 H -1.0809 -0.2134 -1.3646 0
M  V30 END ATOM
M  V30 BEGIN BOND
M  V30 1 1 1 2
M  V30 2 1 2 3
M  V30 3 2 2 4
M  V30 4 2 4 5
M  V30 5 1 5 6
M  V30 6 1 5 7
M  V30 7 1 7 8
M  V30 8 1 7 9
M  V30 9 1 7 10
M  V30 END BOND
M  V30 END CTAB
M  END
>  <Structure No>
8836

>  <LogS>
-4.23

>  <MMFF94 Energy>
9.7571

$$$$
Compound 8837
Actelion Java MolfileCreator 2.0

  0  0  0  0  0  0              0 V3000
M  V30 BEGIN CTAB
M  V30 COUNTS 23 24 0 0 0
M  V30 BEGIN ATOM
M  V30 1 Cl -5.2556 1.6225 -0.0954 0
M  V30 2 C -3.7156 0.7598 -0.1149 0
M  V30 3 C -2.7557 1.0108 0.8809 0
M  V30 4 C -3.4543 -0.1867 -1.1196 0
M  V30 5 Cl -3.1001 2.1789 2.1597 0
M  V30 6 C -1.5268 0.3264 0.8648 0
M  V30 7 Cl -4.6641 -0.5173 -2.3614 0
M  V30 8 C -2.2264 -0.8673 -1.138 0
M  V30 9 Cl -0.3803 0.5729 2.1847 0
M  V30 10 C -1.2506 -0.5971 -0.1673 0
M  V30 11 Cl -1.8756 -2.0464 -2.4012 0
M  V30 12 O -0.0292 -1.2847 -0.2445 0
M  V30 13 C 1.2419 -0.7111 -0.09 0
M  V30 14 C 1.5965 0.5323 -0.662 0
M  V30 15 C 2.1915 -1.4279 0.6422 0
M  V30 16 Cl 0.48 1.393 -1.7247 0
M  V30 17 C 2.8837 1.0607 -0.4392 0
M  V30 18 C 3.468 -0.9086 0.8618 0
M  V30 19 Cl 3.333 2.6198 -1.1352 0
M  V30 20 C 3.8177 0.3425 0.3303 0
M  V30 21 Cl 4.6086 -1.8491 1.8155 0
M  V30 22 Cl 5.4298 1.0002 0.6161 0
M  V30 23 H 1.924 -2.3894 1.0626 0
M  V30 END ATOM
M  V30 BEGIN BOND
M  V30 1 1 1 2
M  V30 2 2 2 3
M  V30 3 1 2 4
M  V30 4 1 3 5
M  V30 5 1 3 6
M  V30 6 1 4 7
M  V30 7 2 4 8
M  V30 8 1 6 9
M  V30 9 2 6 10
M  V30 10 1 8 11
M  V30 11 1 10 12
M  V30 12 1 12 13
M  V30 13 2 13 14
M  V30 14 1 13 15
M  V30 15 1 14 16
M  V30 16 1 14 17
M  V30 17 2 15 18
M  V30 18 1 17 19
M  V30 19 2 17 20
M  V30 20 1 18 21
M  V30 21 1 20 22
M  V30 22 1 8 10
M  V30 23 1 18 20
M  V30 24 1 15 23
M  V30 END BOND
M  V30 END CTAB
M  END
>  <Structure No>
8837

>  <LogS>
-10.55

>  <MMFF94 Energy>
76.905

$$$$
Compound 8838
Actelion Java MolfileCreator 2.0

  0  0  0  0  0  0              0 V3000
M  V30 BEGIN CTAB
M  V30 COUNTS 28 29 0 0 0
M  V30 BEGIN ATOM
M  V30 1 Cl -0.3394 2.8032 0.7639 0
M  V30 2 C 0.8486 1.5548 0.4113 0
M  V30 3 C 0.6208 0.1921 0.706 0
M  V30 4 C 2.0651 1.9553 -0.1501 0
M  V30 5 C 1.6502 -0.7354 0.4631 0
M  V30 6 C -0.6867 -0.2911 1.3012 0
M  V30 7 C 3.0716 1.0232 -0.4142 0
M  V30 8 C 2.8705 -0.3334 -0.1026 0
M  V30 9 C -1.8256 -0.2423 0.3027 0
M  V30 10 Cl 4.5801 1.5912 -1.1226 0
M  V30 11 C 3.9468 -1.3507 -0.3649 0
M  V30 12 C -1.9079 -1.1446 -0.7844 0
M  V30 13 C -2.8497 0.7086 0.4728 0
M  V30 14 Cl -0.7297 -2.4267 -1.0326 0
M  V30 15 C -2.9731 -1.0545 -1.6891 0
M  V30 16 C -3.908 0.7898 -0.4369 0
M  V30 17 C -3.9656 -0.0881 -1.5202 0
M  V30 18 Cl -5.1655 1.9929 -0.2156 0
M  V30 19 H 2.2326 3.0011 -0.3764 0
M  V30 20 H 1.5011 -1.7781 0.7162 0
M  V30 21 H -0.5896 -1.3318 1.6796 0
M  V30 22 H -0.9195 0.3246 2.1972 0
M  V30 23 H 3.6255 -2.3735 -0.0742 0
M  V30 24 H 4.1968 -1.3615 -1.4466 0
M  V30 25 H 4.8556 -1.0933 0.2187 0
M  V30 26 H -2.8292 1.3902 1.3141 0
M  V30 27 H -3.0373 -1.7416 -2.5234 0
M  V30 28 H -4.7842 -0.0296 -2.2263 0
M  V30 END ATOM
M  V30 BEGIN BOND
M  V30 1 1 1 2
M  V30 2 2 2 3
M  V30 3 1 2 4
M  V30 4 1 3 5
M  V30 5 1 3 6
M  V30 6 2 4 7
M  V30 7 2 5 8
M  V30 8 1 6 9
M  V30 9 1 7 10
M  V30 10 1 8 11
M  V30 11 2 9 12
M  V30 12 1 9 13
M  V30 13 1 12 14
M  V30 14 1 12 15
M  V30 15 2 13 16
M  V30 16 2 15 17
M  V30 17 1 16 18
M  V30 18 1 7 8
M  V30 19 1 16 17
M  V30 20 1 4 19
M  V30 21 1 5 20
M  V30 22 1 6 21
M  V30 23 1 6 22
M  V30 24 1 11 23
M  V30 25 1 11 24
M  V30 26 1 11 25
M  V30 27 1 13 26
M  V30 28 1 15 27
M  V30 29 1 17 28
M  V30 END BOND
M  V30 END CTAB
M  END
>  <Structure No>
8838

>  <LogS>
-8.06

>  <MMFF94 Energy>
36.271

$$$$
Compound 8839
Actelion Java MolfileCreator 2.0

  0  0  0  0  0  0              0 V3000
M  V30 BEGIN CTAB
M  V30 COUNTS 38 38 0 0 0
M  V30 BEGIN ATOM
M  V30 1 Cl 2.3879 -1.8303 2.4676 0
M  V30 2 C 2.1471 -0.0767 2.2801 0
M  V30 3 C 0.8203 0.1827 1.6279 0
M  V30 4 O -0.1831 0.3556 2.3725 0
M  V30 5 N 0.652 0.1764 0.1926 0
M  V30 6 C -0.6776 0.1914 -0.36 0
M  V30 7 C 1.7961 0.1735 -0.7282 0
M  V30 8 C -1.2693 1.4171 -0.7581 0
M  V30 9 C -1.3925 -1.0211 -0.5314 0
M  V30 10 O 2.4642 -1.067 -0.6485 0
M  V30 11 C -2.5647 1.4139 -1.2986 0
M  V30 12 C -0.569 2.7447 -0.5749 0
M  V30 13 C -2.6854 -0.9873 -1.0772 0
M  V30 14 C -0.8186 -2.3588 -0.1224 0
M  V30 15 C 3.5962 -1.0458 -1.4876 0
M  V30 16 C -3.2645 0.2204 -1.4582 0
M  V30 17 C -1.0362 3.4397 0.6998 0
M  V30 18 C -1.3868 -2.8171 1.2173 0
M  V30 19 H 2.9832 0.3541 1.6953 0
M  V30 20 H 2.1679 0.3905 3.2875 0
M  V30 21 H 1.4382 0.3474 -1.77 0
M  V30 22 H 2.4735 1.0165 -0.4625 0
M  V30 23 H -3.0365 2.3431 -1.5944 0
M  V30 24 H -0.7852 3.4032 -1.4444 0
M  V30 25 H 0.5323 2.6249 -0.5384 0
M  V30 26 H -3.248 -1.9036 -1.2076 0
M  V30 27 H -1.0632 -3.1184 -0.8962 0
M  V30 28 H 0.2863 -2.3258 -0.0527 0
M  V30 29 H 4.1006 -2.0316 -1.4244 0
M  V30 30 H 4.326 -0.2733 -1.1583 0
M  V30 31 H 3.3085 -0.8827 -2.5502 0
M  V30 32 H -4.2629 0.2323 -1.876 0
M  V30 33 H -0.521 4.4182 0.7991 0
M  V30 34 H -2.132 3.6186 0.6645 0
M  V30 35 H -0.7954 2.822 1.5891 0
M  V30 36 H -1.141 -2.0867 2.0149 0
M  V30 37 H -0.9463 -3.7988 1.4905 0
M  V30 38 H -2.4899 -2.9299 1.153 0
M  V30 END ATOM
M  V30 BEGIN BOND
M  V30 1 1 1 2
M  V30 2 1 2 3
M  V30 3 2 3 4
M  V30 4 1 3 5
M  V30 5 1 5 6
M  V30 6 1 5 7
M  V30 7 2 6 8
M  V30 8 1 6 9
M  V30 9 1 7 10
M  V30 10 1 8 11
M  V30 11 1 8 12
M  V30 12 2 9 13
M  V30 13 1 9 14
M  V30 14 1 10 15
M  V30 15 2 11 16
M  V30 16 1 12 17
M  V30 17 1 14 18
M  V30 18 1 13 16
M  V30 19 1 2 19
M  V30 20 1 2 20
M  V30 21 1 7 21
M  V30 22 1 7 22
M  V30 23 1 11 23
M  V30 24 1 12 24
M  V30 25 1 12 25
M  V30 26 1 13 26
M  V30 27 1 14 27
M  V30 28 1 14 28
M  V30 29 1 15 29
M  V30 30 1 15 30
M  V30 31 1 15 31
M  V30 32 1 16 32
M  V30 33 1 17 33
M  V30 34 1 17 34
M  V30 35 1 17 35
M  V30 36 1 18 36
M  V30 37 1 18 37
M  V30 38 1 18 38
M  V30 END BOND
M  V30 END CTAB
M  END
>  <Structure No>
8839

>  <LogS>
-3.17

>  <MMFF94 Energy>
29.137

$$$$
Compound 8840
Actelion Java MolfileCreator 2.0

  0  0  0  0  0  0              0 V3000
M  V30 BEGIN CTAB
M  V30 COUNTS 26 25 0 0 0
M  V30 BEGIN ATOM
M  V30 1 S -3.1971 -0.2395 -1.0382 0
M  V30 2 C -1.7369 0.382 -0.0877 0
M  V30 3 C -4.5625 0.5798 -0.1436 0
M  V30 4 C -0.544 -0.44 -0.5196 0
M  V30 5 C -1.4781 1.8591 -0.4356 0
M  V30 6 C -1.9385 0.2103 1.4303 0
M  V30 7 N 0.6349 -0.2055 -0.0372 0
M  V30 8 O 1.7176 -0.9572 -0.4352 0
M  V30 9 C 2.989 -0.7109 0.0793 0
M  V30 10 O 3.1647 0.2109 0.9227 0
M  V30 11 N 4.0912 -1.5114 -0.3565 0
M  V30 12 C 5.4431 -1.3012 0.1456 0
M  V30 13 H -5.4986 0.4309 -0.7196 0
M  V30 14 H -4.6999 0.1175 0.855 0
M  V30 15 H -4.3905 1.6686 -0.0439 0
M  V30 16 H -0.6679 -1.2376 -1.2436 0
M  V30 17 H -1.362 1.9824 -1.5339 0
M  V30 18 H -2.3096 2.508 -0.0958 0
M  V30 19 H -0.5517 2.2235 0.0589 0
M  V30 20 H -2.7125 0.9055 1.8159 0
M  V30 21 H -1.0005 0.4369 1.9819 0
M  V30 22 H -2.2408 -0.8327 1.6644 0
M  V30 23 H 3.9203 -2.2687 -1.0556 0
M  V30 24 H 6.1373 -2.0296 -0.324 0
M  V30 25 H 5.7809 -0.2725 -0.101 0
M  V30 26 H 5.4626 -1.4448 1.2466 0
M  V30 END ATOM
M  V30 BEGIN BOND
M  V30 1 1 1 2
M  V30 2 1 1 3
M  V30 3 1 2 4
M  V30 4 1 2 5
M  V30 5 1 2 6
M  V30 6 2 4 7
M  V30 7 1 7 8
M  V30 8 1 8 9
M  V30 9 2 9 10
M  V30 10 1 9 11
M  V30 11 1 11 12
M  V30 12 1 3 13
M  V30 13 1 3 14
M  V30 14 1 3 15
M  V30 15 1 4 16
M  V30 16 1 5 17
M  V30 17 1 5 18
M  V30 18 1 5 19
M  V30 19 1 6 20
M  V30 20 1 6 21
M  V30 21 1 6 22
M  V30 22 1 11 23
M  V30 23 1 12 24
M  V30 24 1 12 25
M  V30 25 1 12 26
M  V30 END BOND
M  V30 END CTAB
M  END
>  <Structure No>
8840

>  <LogS>
-0.71

>  <MMFF94 Energy>
19.344

$$$$
Compound 8841
Actelion Java MolfileCreator 2.0

  0  0  0  0  0  0              0 V3000
M  V30 BEGIN CTAB
M  V30 COUNTS 40 40 0 0 0
M  V30 BEGIN ATOM
M  V30 1 O -2.8783 1.9982 1.9182 0
M  V30 2 C -2.6016 2.3512 0.7417 0
M  V30 3 O -3.6092 2.8265 -0.088 0 CHG=-1
M  V30 4 C -1.2068 2.3061 0.2555 0
M  V30 5 C -0.5325 3.5179 -0.0512 0
M  V30 6 C -0.5643 1.0532 0.0256 0
M  V30 7 C -1.1259 4.857 0.2096 0
M  V30 8 C 0.7556 3.4634 -0.5981 0
M  V30 9 C 0.7363 1.0368 -0.5533 0
M  V30 10 C -1.3021 -0.2516 0.296 0
M  V30 11 O -0.742 5.8593 -0.4505 0
M  V30 12 O -2.0773 5.0398 1.2062 0 CHG=-1
M  V30 13 C 1.3796 2.247 -0.8383 0
M  V30 14 C 1.4949 -0.2425 -0.846 0
M  V30 15 C -2.1292 -0.6717 -0.9286 0
M  V30 16 C 2.3181 -0.6777 0.3723 0
M  V30 17 C -2.8646 -2.0033 -0.7146 0
M  V30 18 C 3.0248 -2.012 0.1099 0
M  V30 19 C -1.9255 -3.2088 -0.7633 0
M  V30 20 C 3.8522 -2.4443 1.3167 0
M  V30 21 H 1.2962 4.3735 -0.8294 0
M  V30 22 H -0.5921 -1.0504 0.5799 0
M  V30 23 H -1.9672 -0.1605 1.1771 0
M  V30 24 H 2.3797 2.2505 -1.2549 0
M  V30 25 H 2.1818 -0.0833 -1.7067 0
M  V30 26 H 0.8093 -1.054 -1.1647 0
M  V30 27 H -2.8893 0.1137 -1.1308 0
M  V30 28 H -1.4814 -0.7414 -1.8292 0
M  V30 29 H 1.6552 -0.7821 1.2586 0
M  V30 30 H 3.0769 0.1043 0.5971 0
M  V30 31 H -3.4084 -1.9909 0.2549 0
M  V30 32 H -3.6201 -2.1201 -1.5215 0
M  V30 33 H 3.6964 -1.9139 -0.7707 0
M  V30 34 H 2.2696 -2.7987 -0.1082 0
M  V30 35 H -1.3399 -3.208 -1.7072 0
M  V30 36 H -2.5236 -4.1433 -0.7207 0
M  V30 37 H -1.2306 -3.2056 0.1013 0
M  V30 38 H 3.1988 -2.5746 2.2056 0
M  V30 39 H 4.3512 -3.4118 1.0979 0
M  V30 40 H 4.6316 -1.6855 1.542 0
M  V30 END ATOM
M  V30 BEGIN BOND
M  V30 1 2 1 2
M  V30 2 1 2 3
M  V30 3 1 2 4
M  V30 4 2 4 5
M  V30 5 1 4 6
M  V30 6 1 5 7
M  V30 7 1 5 8
M  V30 8 2 6 9
M  V30 9 1 6 10
M  V30 10 2 7 11
M  V30 11 1 7 12
M  V30 12 2 8 13
M  V30 13 1 9 14
M  V30 14 1 10 15
M  V30 15 1 14 16
M  V30 16 1 15 17
M  V30 17 1 16 18
M  V30 18 1 17 19
M  V30 19 1 18 20
M  V30 20 1 9 13
M  V30 21 1 8 21
M  V30 22 1 10 22
M  V30 23 1 10 23
M  V30 24 1 13 24
M  V30 25 1 14 25
M  V30 26 1 14 26
M  V30 27 1 15 27
M  V30 28 1 15 28
M  V30 29 1 16 29
M  V30 30 1 16 30
M  V30 31 1 17 31
M  V30 32 1 17 32
M  V30 33 1 18 33
M  V30 34 1 18 34
M  V30 35 1 19 35
M  V30 36 1 19 36
M  V30 37 1 19 37
M  V30 38 1 20 38
M  V30 39 1 20 39
M  V30 40 1 20 40
M  V30 END BOND
M  V30 END CTAB
M  END
>  <Structure No>
8841

>  <LogS>
-4.4

>  <MMFF94 Energy>
134.97

$$$$
Compound 8842
Actelion Java MolfileCreator 2.0

  0  0  0  0  0  0              0 V3000
M  V30 BEGIN CTAB
M  V30 COUNTS 119 126 0 0 0
M  V30 BEGIN ATOM
M  V30 1 O -12.9336 4.2972 -0.8097 0
M  V30 2 C -12.3756 3.3658 -0.1739 0
M  V30 3 O -12.2773 3.3207 1.202 0
M  V30 4 C -11.7345 2.2177 -0.76 0
M  V30 5 C -11.6088 2.1199 1.5697 0
M  V30 6 C -11.2212 1.4984 0.2375 0
M  V30 7 C -10.4731 0.1845 -0.0034 0 CFG=1
M  V30 8 C -8.9704 0.3259 -0.4526 0 CFG=1
M  V30 9 C -10.4052 -0.7041 1.2556 0
M  V30 10 C -8.2184 0.4019 0.9179 0 CFG=2
M  V30 11 C -8.5247 -0.9304 -1.3402 0 CFG=2
M  V30 12 C -8.7237 1.6148 -1.289 0
M  V30 13 C -8.9665 -0.6442 1.7779 0
M  V30 14 O -8.4561 1.6724 1.4916 0
M  V30 15 C -6.6558 0.1263 0.8525 0 CFG=1
M  V30 16 O -9.4988 -1.9464 -1.3682 0
M  V30 17 C -7.212 -1.5998 -0.9101 0
M  V30 18 C -6.167 -0.5798 -0.4413 0 CFG=2
M  V30 19 C -5.7979 1.3964 1.0869 0
M  V30 20 C -4.7042 -1.17 -0.2537 0 CFG=2
M  V30 21 C -4.3551 1.2754 0.5691 0
M  V30 22 C -3.805 -0.1698 0.5876 0 CFG=2
M  V30 23 C -4.0504 -1.3739 -1.6499 0
M  V30 24 C -4.7845 -2.5444 0.4797 0
M  V30 25 C -2.3166 -0.1045 0.1348 0
M  V30 26 C -2.6248 -1.9562 -1.5842 0
M  V30 27 C -1.764 -1.4296 -0.4111 0 CFG=1
M  V30 28 O -0.4426 -1.2352 -0.8929 0
M  V30 29 C 0.535 -1.2611 0.1383 0 CFG=1
M  V30 30 O 1.4392 -2.3205 -0.1557 0
M  V30 31 C 1.2293 0.1265 0.1817 0
M  V30 32 C 2.6493 -2.1775 0.5641 0 CFG=2
M  V30 33 C 2.5611 0.1042 -0.5767 0 CFG=1
M  V30 34 C 3.4875 -1.0087 -0.0204 0 CFG=1
M  V30 35 C 3.4253 -3.4938 0.4973 0
M  V30 36 O 2.3005 -0.1153 -1.9412 0
M  V30 37 O 4.297 -0.4703 1.0178 0
M  V30 38 C 5.6265 -0.2468 0.5849 0 CFG=1
M  V30 39 O 5.6422 0.724 -0.4481 0
M  V30 40 C 6.4582 0.2504 1.7841 0
M  V30 41 C 6.9236 0.8399 -1.0584 0 CFG=1
M  V30 42 C 7.6749 1.0895 1.3404 0 CFG=1
M  V30 43 C 8.1214 0.6801 -0.074 0 CFG=2
M  V30 44 C 7.0356 -0.1079 -2.2582 0
M  V30 45 O 7.3402 2.4572 1.3476 0
M  V30 46 O 9.1834 1.5145 -0.5176 0
M  V30 47 C 10.4548 0.9161 -0.3437 0 CFG=2
M  V30 48 O 10.8015 0.9554 1.037 0
M  V30 49 C 11.4421 1.6865 -1.2243 0
M  V30 50 C 12.192 0.9007 1.346 0 CFG=1
M  V30 51 C 12.8566 1.0831 -1.1504 0 CFG=1
M  V30 52 C 13.1304 0.3934 0.2096 0 CFG=2
M  V30 53 C 12.6461 2.2654 1.8814 0
M  V30 54 O 13.0519 0.1708 -2.204 0
M  V30 55 O 13.0867 -1.0124 0.1033 0
M  V30 56 H -11.6652 1.993 -1.816 0
M  V30 57 H -10.7222 2.3533 2.1929 0
M  V30 58 H -12.3196 1.4689 2.1183 0
M  V30 59 H -11.081 -0.3386 -0.7695 0
M  V30 60 H -10.6493 -1.7565 0.9826 0
M  V30 61 H -11.1261 -0.4186 2.0503 0
M  V30 62 H -8.3443 -0.5818 -2.3883 0
M  V30 63 H -7.657 1.7241 -1.5569 0
M  V30 64 H -9.3027 1.575 -2.2368 0
M  V30 65 H -9.0102 2.5394 -0.7488 0
M  V30 66 H -8.5066 -1.6502 1.6937 0
M  V30 67 H -8.9531 -0.3782 2.8582 0
M  V30 68 H -8.1133 1.667 2.4219 0
M  V30 69 H -6.4197 -0.5395 1.7096 0
M  V30 70 H -9.9333 -1.9383 -2.2587 0
M  V30 71 H -7.4105 -2.3374 -0.1063 0
M  V30 72 H -6.8277 -2.1803 -1.7735 0
M  V30 73 H -6.1025 0.1851 -1.2457 0
M  V30 74 H -6.2561 2.2723 0.5783 0
M  V30 75 H -5.7654 1.6159 2.1767 0
M  V30 76 H -4.3219 1.6642 -0.4742 0
M  V30 77 H -3.7031 1.9375 1.1827 0
M  V30 78 H -3.8103 -0.4956 1.6542 0
M  V30 79 H -4.0018 -0.3903 -2.1691 0
M  V30 80 H -4.6633 -2.0385 -2.2892 0
M  V30 81 H -5.2185 -3.3242 -0.182 0
M  V30 82 H -5.4053 -2.4819 1.3963 0
M  V30 83 H -3.7955 -2.9105 0.8019 0
M  V30 84 H -2.1887 0.6625 -0.6613 0
M  V30 85 H -1.7024 0.2226 0.9999 0
M  V30 86 H -2.6875 -3.0652 -1.5147 0
M  V30 87 H -2.127 -1.7305 -2.5529 0
M  V30 88 H -1.7863 -2.1973 0.3922 0
M  V30 89 H 0.106 -1.4476 1.1532 0
M  V30 90 H 0.5703 0.9172 -0.2375 0
M  V30 91 H 1.4356 0.4056 1.2404 0
M  V30 92 H 2.4331 -1.9864 1.6453 0
M  V30 93 H 3.0409 1.1036 -0.4517 0
M  V30 94 H 4.0879 -1.4084 -0.8757 0
M  V30 95 H 3.6655 -3.7514 -0.5555 0
M  V30 96 H 2.8134 -4.3106 0.9314 0
M  V30 97 H 4.3692 -3.4124 1.0757 0
M  V30 98 H 3.1152 0.1619 -2.4384 0
M  V30 99 H 6.0646 -1.2154 0.2366 0
M  V30 100 H 5.8223 0.8584 2.4668 0
M  V30 101 H 6.8095 -0.629 2.3659 0
M  V30 102 H 6.9694 1.8738 -1.4705 0
M  V30 103 H 8.5101 0.8922 2.0517 0
M  V30 104 H 8.3977 -0.4019 -0.0363 0
M  V30 105 H 6.1919 0.0753 -2.9595 0
M  V30 106 H 7.9914 0.0736 -2.7966 0
M  V30 107 H 7.002 -1.171 -1.9323 0
M  V30 108 H 7.6599 2.8325 2.2129 0
M  V30 109 H 10.444 -0.1356 -0.7068 0
M  V30 110 H 11.4663 2.7487 -0.9006 0
M  V30 111 H 11.0815 1.6773 -2.2788 0
M  V30 112 H 12.3005 0.1918 2.1932 0
M  V30 113 H 13.5844 1.9252 -1.2581 0
M  V30 114 H 14.1755 0.6385 0.498 0
M  V30 115 H 12.6722 3.0259 1.0779 0
M  V30 116 H 11.9426 2.6111 2.6688 0
M  V30 117 H 13.6572 2.1843 2.3324 0
M  V30 118 H 13.2175 0.7085 -3.0215 0
M  V30 119 H 12.1391 -1.3041 0.1044 0
M  V30 END ATOM
M  V30 BEGIN BOND
M  V30 1 2 1 2
M  V30 2 1 2 3
M  V30 3 1 2 4
M  V30 4 1 3 5
M  V30 5 2 4 6
M  V30 6 1 6 7
M  V30 7 1 7 8
M  V30 8 1 7 9
M  V30 9 1 8 10
M  V30 10 1 8 11
M  V30 11 1 8 12
M  V30 12 1 9 13
M  V30 13 1 10 14
M  V30 14 1 10 15
M  V30 15 1 11 16
M  V30 16 1 11 17
M  V30 17 1 15 18
M  V30 18 1 15 19
M  V30 19 1 18 20
M  V30 20 1 19 21
M  V30 21 1 20 22
M  V30 22 1 20 23
M  V30 23 1 20 24
M  V30 24 1 22 25
M  V30 25 1 23 26
M  V30 26 1 25 27
M  V30 27 1 27 28
M  V30 28 1 28 29
M  V30 29 1 29 30
M  V30 30 1 29 31
M  V30 31 1 30 32
M  V30 32 1 31 33
M  V30 33 1 32 34
M  V30 34 1 32 35
M  V30 35 1 33 36
M  V30 36 1 34 37
M  V30 37 1 37 38
M  V30 38 1 38 39
M  V30 39 1 38 40
M  V30 40 1 39 41
M  V30 41 1 40 42
M  V30 42 1 41 43
M  V30 43 1 41 44
M  V30 44 1 42 45
M  V30 45 1 43 46
M  V30 46 1 46 47
M  V30 47 1 47 48
M  V30 48 1 47 49
M  V30 49 1 48 50
M  V30 50 1 49 51
M  V30 51 1 50 52
M  V30 52 1 50 53
M  V30 53 1 51 54
M  V30 54 1 52 55
M  V30 55 1 5 6
M  V30 56 1 10 13
M  V30 57 1 17 18
M  V30 58 1 21 22
M  V30 59 1 26 27
M  V30 60 1 33 34
M  V30 61 1 42 43
M  V30 62 1 51 52
M  V30 63 1 4 56
M  V30 64 1 5 57
M  V30 65 1 5 58
M  V30 66 1 7 59
M  V30 67 1 9 60
M  V30 68 1 9 61
M  V30 69 1 11 62
M  V30 70 1 12 63
M  V30 71 1 12 64
M  V30 72 1 12 65
M  V30 73 1 13 66
M  V30 74 1 13 67
M  V30 75 1 14 68
M  V30 76 1 15 69
M  V30 77 1 16 70
M  V30 78 1 17 71
M  V30 79 1 17 72
M  V30 80 1 18 73
M  V30 81 1 19 74
M  V30 82 1 19 75
M  V30 83 1 21 76
M  V30 84 1 21 77
M  V30 85 1 22 78
M  V30 86 1 23 79
M  V30 87 1 23 80
M  V30 88 1 24 81
M  V30 89 1 24 82
M  V30 90 1 24 83
M  V30 91 1 25 84
M  V30 92 1 25 85
M  V30 93 1 26 86
M  V30 94 1 26 87
M  V30 95 1 27 88
M  V30 96 1 29 89
M  V30 97 1 31 90
M  V30 98 1 31 91
M  V30 99 1 32 92
M  V30 100 1 33 93
M  V30 101 1 34 94
M  V30 102 1 35 95
M  V30 103 1 35 96
M  V30 104 1 35 97
M  V30 105 1 36 98
M  V30 106 1 38 99
M  V30 107 1 40 100
M  V30 108 1 40 101
M  V30 109 1 41 102
M  V30 110 1 42 103
M  V30 111 1 43 104
M  V30 112 1 44 105
M  V30 113 1 44 106
M  V30 114 1 44 107
M  V30 115 1 45 108
M  V30 116 1 47 109
M  V30 117 1 49 110
M  V30 118 1 49 111
M  V30 119 1 50 112
M  V30 120 1 51 113
M  V30 121 1 52 114
M  V30 122 1 53 115
M  V30 123 1 53 116
M  V30 124 1 53 117
M  V30 125 1 54 118
M  V30 126 1 55 119
M  V30 END BOND
M  V30 BEGIN COLLECTION
M  V30 MDLV30/STEABS ATOMS=(21 7 8 10 11 15 18 20 22 27 29 32 33 34 38 41 42 43 47 50 51 52)
M  V30 END COLLECTION
M  V30 END CTAB
M  END
>  <Structure No>
8842

>  <LogS>
-4.16

>  <MMFF94 Energy>
159.58

$$$$
Compound 8843
Actelion Java MolfileCreator 2.0

  0  0  0  0  0  0              0 V3000
M  V30 BEGIN CTAB
M  V30 COUNTS 25 27 0 0 0
M  V30 BEGIN ATOM
M  V30 1 Cl -2.3387 -0.8415 2.6196 0
M  V30 2 C -1.7093 -0.2537 1.086 0
M  V30 3 C -1.6612 1.0211 0.6959 0
M  V30 4 C -1.2181 -1.086 -0.0788 0 CFG=1
M  V30 5 Cl -2.2162 2.4075 1.6255 0
M  V30 6 C -1.1386 1.0239 -0.7244 0 CFG=1
M  V30 7 Cl -1.7202 -2.8031 -0.0558 0
M  V30 8 C -1.7835 -0.2653 -1.242 0
M  V30 9 C 0.3179 -0.8519 -0.2178 0 CFG=1
M  V30 10 Cl -1.5205 2.4903 -1.6758 0
M  V30 11 C 0.3743 0.647 -0.6766 0 CFG=2
M  V30 12 Cl -1.2304 -0.7866 -2.8771 0
M  V30 13 Cl -3.5888 -0.211 -1.2874 0
M  V30 14 C 1.1046 -1.1812 1.0772 0
M  V30 15 C 1.2091 1.5888 0.2294 0
M  V30 16 O 2.5046 -1.2888 0.9305 0
M  V30 17 O 2.6099 1.4993 0.0774 0
M  V30 18 S 3.2374 -0.103 -0.0925 0 CFG=2
M  V30 19 O 2.9714 -0.5326 -1.5296 0
M  V30 20 H 0.6985 -1.515 -1.0253 0
M  V30 21 H 0.7827 0.7174 -1.7085 0
M  V30 22 H 0.8667 -0.5088 1.923 0
M  V30 23 H 0.7547 -2.1769 1.4218 0
M  V30 24 H 0.9434 1.5225 1.3014 0
M  V30 25 H 0.9361 2.6283 -0.0486 0
M  V30 END ATOM
M  V30 BEGIN BOND
M  V30 1 1 1 2
M  V30 2 2 2 3
M  V30 3 1 2 4
M  V30 4 1 3 5
M  V30 5 1 3 6
M  V30 6 1 4 7
M  V30 7 1 4 8
M  V30 8 1 4 9
M  V30 9 1 6 10
M  V30 10 1 6 11
M  V30 11 1 8 12
M  V30 12 1 8 13
M  V30 13 1 9 14
M  V30 14 1 11 15
M  V30 15 1 14 16
M  V30 16 1 15 17
M  V30 17 1 16 18
M  V30 18 2 18 19
M  V30 19 1 6 8
M  V30 20 1 9 11
M  V30 21 1 17 18
M  V30 22 1 9 20
M  V30 23 1 11 21
M  V30 24 1 14 22
M  V30 25 1 14 23
M  V30 26 1 15 24
M  V30 27 1 15 25
M  V30 END BOND
M  V30 BEGIN COLLECTION
M  V30 MDLV30/STEABS ATOMS=(5 4 6 9 11 18)
M  V30 END COLLECTION
M  V30 END CTAB
M  END
>  <Structure No>
8843

>  <LogS>
-6.08

>  <MMFF94 Energy>
54.617

$$$$
Compound 8844
Actelion Java MolfileCreator 2.0

  0  0  0  0  0  0              0 V3000
M  V30 BEGIN CTAB
M  V30 COUNTS 34 33 0 0 0
M  V30 BEGIN ATOM
M  V30 1 S 1.9792 -0.8705 2.0585 0
M  V30 2 C 0.6293 0.1168 1.3979 0
M  V30 3 C 3.2486 -0.1761 0.9392 0
M  V30 4 O 0.5719 1.3378 1.7049 0
M  V30 5 N -0.3739 -0.4605 0.5377 0
M  V30 6 C 3.1443 -0.7722 -0.4659 0
M  V30 7 C -1.1382 0.4026 -0.372 0
M  V30 8 C -0.7532 -1.8746 0.6668 0
M  V30 9 C 4.2047 -0.1855 -1.3923 0
M  V30 10 C -2.3559 1.0007 0.3424 0
M  V30 11 C 0.0498 -2.7485 -0.2895 0
M  V30 12 C -3.1614 1.8986 -0.6027 0
M  V30 13 C -4.3749 2.4953 0.1042 0
M  V30 14 H 4.2453 -0.4183 1.3656 0
M  V30 15 H 3.1552 0.9306 0.8989 0
M  V30 16 H 3.2858 -1.8727 -0.4121 0
M  V30 17 H 2.1417 -0.5602 -0.8943 0
M  V30 18 H -0.4842 1.2156 -0.758 0
M  V30 19 H -1.4772 -0.1875 -1.2517 0
M  V30 20 H -1.8331 -2.0 0.4334 0
M  V30 21 H -0.6086 -2.2227 1.7124 0
M  V30 22 H 5.2217 -0.4019 -1.0013 0
M  V30 23 H 4.1083 -0.6388 -2.4013 0
M  V30 24 H 4.0722 0.9136 -1.4828 0
M  V30 25 H -3.0057 0.1778 0.7119 0
M  V30 26 H -2.0175 1.5977 1.2166 0
M  V30 27 H -0.0063 -2.3454 -1.3226 0
M  V30 28 H -0.3631 -3.7791 -0.2855 0
M  V30 29 H 1.1085 -2.8005 0.03 0
M  V30 30 H -3.5101 1.306 -1.4765 0
M  V30 31 H -2.5178 2.7265 -0.9726 0
M  V30 32 H -4.938 3.1395 -0.6035 0
M  V30 33 H -5.0484 1.6879 0.4625 0
M  V30 34 H -4.0522 3.1146 0.9682 0
M  V30 END ATOM
M  V30 BEGIN BOND
M  V30 1 1 1 2
M  V30 2 1 1 3
M  V30 3 2 2 4
M  V30 4 1 2 5
M  V30 5 1 3 6
M  V30 6 1 5 7
M  V30 7 1 5 8
M  V30 8 1 6 9
M  V30 9 1 7 10
M  V30 10 1 8 11
M  V30 11 1 10 12
M  V30 12 1 12 13
M  V30 13 1 3 14
M  V30 14 1 3 15
M  V30 15 1 6 16
M  V30 16 1 6 17
M  V30 17 1 7 18
M  V30 18 1 7 19
M  V30 19 1 8 20
M  V30 20 1 8 21
M  V30 21 1 9 22
M  V30 22 1 9 23
M  V30 23 1 9 24
M  V30 24 1 10 25
M  V30 25 1 10 26
M  V30 26 1 11 27
M  V30 27 1 11 28
M  V30 28 1 11 29
M  V30 29 1 12 30
M  V30 30 1 12 31
M  V30 31 1 13 32
M  V30 32 1 13 33
M  V30 33 1 13 34
M  V30 END BOND
M  V30 END CTAB
M  END
>  <Structure No>
8844

>  <LogS>
-3.41

>  <MMFF94 Energy>
-44.182

$$$$
Compound 8845
Actelion Java MolfileCreator 2.0

  0  0  0  0  0  0              0 V3000
M  V30 BEGIN CTAB
M  V30 COUNTS 40 41 0 0 0
M  V30 BEGIN ATOM
M  V30 1 Cl 1.2139 -4.1319 -2.0238 0
M  V30 2 C 0.2447 -3.3537 -0.7416 0
M  V30 3 Cl 1.1395 -3.5345 0.7988 0
M  V30 4 C -0.0737 -1.8809 -1.1194 0
M  V30 5 C -1.3134 -1.2939 -0.45 0
M  V30 6 C 1.1301 -0.9626 -0.9653 0
M  V30 7 C -1.9745 -0.2246 -1.0827 0
M  V30 8 C -1.7865 -1.7283 0.805 0
M  V30 9 C 1.9794 -0.7337 -2.0622 0
M  V30 10 C 1.4328 -0.3491 0.266 0
M  V30 11 C -3.0898 0.3767 -0.4941 0
M  V30 12 C -2.9029 -1.1259 1.3921 0
M  V30 13 C 3.0979 0.0942 -1.9354 0
M  V30 14 C 2.5515 0.4786 0.3913 0
M  V30 15 C -3.5697 -0.0784 0.7414 0
M  V30 16 C 3.3975 0.6978 -0.7054 0
M  V30 17 C -4.7483 0.5935 1.3933 0
M  V30 18 C 4.583 1.6165 -0.5784 0
M  V30 19 C -4.2907 1.7525 2.2726 0
M  V30 20 C 4.19 3.0533 -0.9055 0
M  V30 21 H -0.702 -3.9296 -0.6655 0
M  V30 22 H -0.3325 -1.9137 -2.2026 0
M  V30 23 H -1.6183 0.1508 -2.0343 0
M  V30 24 H -1.3031 -2.5277 1.3434 0
M  V30 25 H 1.7744 -1.1942 -3.0206 0
M  V30 26 H 0.8045 -0.5103 1.1323 0
M  V30 27 H -3.5759 1.2018 -0.9999 0
M  V30 28 H -3.245 -1.4736 2.3593 0
M  V30 29 H 3.7311 0.2649 -2.7973 0
M  V30 30 H 2.759 0.9482 1.345 0
M  V30 31 H -5.3105 -0.1378 2.014 0
M  V30 32 H -5.448 0.9754 0.618 0
M  V30 33 H 5.3936 1.2923 -1.2669 0
M  V30 34 H 4.9908 1.5741 0.455 0
M  V30 35 H -3.7552 2.5111 1.6626 0
M  V30 36 H -5.1738 2.2337 2.7433 0
M  V30 37 H -3.6161 1.3846 3.0752 0
M  V30 38 H 5.0772 3.7134 -0.8061 0
M  V30 39 H 3.4032 3.4067 -0.2049 0
M  V30 40 H 3.8107 3.1215 -1.9476 0
M  V30 END ATOM
M  V30 BEGIN BOND
M  V30 1 1 1 2
M  V30 2 1 2 3
M  V30 3 1 2 4
M  V30 4 1 4 5
M  V30 5 1 4 6
M  V30 6 2 5 7
M  V30 7 1 5 8
M  V30 8 2 6 9
M  V30 9 1 6 10
M  V30 10 1 7 11
M  V30 11 2 8 12
M  V30 12 1 9 13
M  V30 13 2 10 14
M  V30 14 2 11 15
M  V30 15 2 13 16
M  V30 16 1 15 17
M  V30 17 1 16 18
M  V30 18 1 17 19
M  V30 19 1 18 20
M  V30 20 1 12 15
M  V30 21 1 14 16
M  V30 22 1 2 21
M  V30 23 1 4 22
M  V30 24 1 7 23
M  V30 25 1 8 24
M  V30 26 1 9 25
M  V30 27 1 10 26
M  V30 28 1 11 27
M  V30 29 1 12 28
M  V30 30 1 13 29
M  V30 31 1 14 30
M  V30 32 1 17 31
M  V30 33 1 17 32
M  V30 34 1 18 33
M  V30 35 1 18 34
M  V30 36 1 19 35
M  V30 37 1 19 36
M  V30 38 1 19 37
M  V30 39 1 20 38
M  V30 40 1 20 39
M  V30 41 1 20 40
M  V30 END BOND
M  V30 END CTAB
M  END
>  <Structure No>
8845

>  <LogS>
-7.04

>  <MMFF94 Energy>
79.985

$$$$
Compound 8846
Actelion Java MolfileCreator 2.0

  0  0  0  0  0  0              0 V3000
M  V30 BEGIN CTAB
M  V30 COUNTS 49 52 0 0 0
M  V30 BEGIN ATOM
M  V30 1 O -5.1054 -0.6472 0.9709 0
M  V30 2 C -4.224 -0.013 0.4117 0
M  V30 3 C -2.7971 -0.4455 0.3431 0 CFG=1
M  V30 4 C -4.4701 1.2532 -0.3505 0
M  V30 5 C -2.1291 0.9085 0.0849 0 CFG=2
M  V30 6 C -2.1958 -1.0141 1.6405 0
M  V30 7 C -2.6844 -1.4653 -0.8231 0
M  V30 8 C -3.0745 1.6526 -0.8599 0
M  V30 9 C -0.6403 0.7597 -0.2695 0 CFG=2
M  V30 10 C -0.6626 -1.1912 1.4996 0
M  V30 11 C 0.0886 0.0654 0.9216 0 CFG=1
M  V30 12 C 0.0032 2.1363 -0.4922 0
M  V30 13 C 1.606 -0.1916 0.5705 0 CFG=2
M  V30 14 C 1.4927 2.0323 -0.6519 0
M  V30 15 C 2.2311 1.0194 -0.143 0
M  V30 16 C 1.7933 -1.4478 -0.3574 0
M  V30 17 C 2.3662 -0.4087 1.9074 0
M  V30 18 C 3.6984 0.925 -0.5309 0
M  V30 19 C 2.8085 -1.2713 -1.5114 0
M  V30 20 C 4.0594 -0.4688 -1.1035 0 CFG=2
M  V30 21 O 4.8193 -1.1941 -0.1712 0
M  V30 22 H -5.1702 1.0786 -1.1949 0
M  V30 23 H -4.8738 2.0295 0.3345 0
M  V30 24 H -2.1618 1.5025 1.0338 0
M  V30 25 H -2.6617 -1.9949 1.8801 0
M  V30 26 H -2.4078 -0.3319 2.4939 0
M  V30 27 H -3.2682 -2.3793 -0.5807 0
M  V30 28 H -1.6427 -1.7821 -1.018 0
M  V30 29 H -3.0886 -1.0475 -1.7692 0
M  V30 30 H -2.9277 2.753 -0.8017 0
M  V30 31 H -2.9262 1.3149 -1.9084 0
M  V30 32 H -0.5265 0.1721 -1.2044 0
M  V30 33 H -0.4706 -2.0981 0.8961 0
M  V30 34 H -0.2698 -1.4157 2.5129 0
M  V30 35 H 0.0681 0.8056 1.7565 0
M  V30 36 H -0.4192 2.6008 -1.4089 0
M  V30 37 H -0.2091 2.8121 0.3647 0
M  V30 38 H 1.9803 2.8326 -1.2015 0
M  V30 39 H 0.8367 -1.7201 -0.8478 0
M  V30 40 H 2.0899 -2.335 0.2442 0
M  V30 41 H 1.9842 -1.2968 2.45 0
M  V30 42 H 3.4472 -0.5803 1.7561 0
M  V30 43 H 2.2601 0.4794 2.5672 0
M  V30 44 H 4.3247 1.1575 0.3568 0
M  V30 45 H 3.954 1.6931 -1.2947 0
M  V30 46 H 3.1094 -2.2703 -1.895 0
M  V30 47 H 2.3085 -0.7387 -2.351 0
M  V30 48 H 4.6769 -0.31 -2.019 0
M  V30 49 H 5.2513 -1.9386 -0.666 0
M  V30 END ATOM
M  V30 BEGIN BOND
M  V30 1 2 1 2
M  V30 2 1 2 3
M  V30 3 1 2 4
M  V30 4 1 3 5
M  V30 5 1 3 6
M  V30 6 1 3 7
M  V30 7 1 4 8
M  V30 8 1 5 9
M  V30 9 1 6 10
M  V30 10 1 9 11
M  V30 11 1 9 12
M  V30 12 1 11 13
M  V30 13 1 12 14
M  V30 14 1 13 15
M  V30 15 1 13 16
M  V30 16 1 13 17
M  V30 17 1 15 18
M  V30 18 1 16 19
M  V30 19 1 18 20
M  V30 20 1 20 21
M  V30 21 1 5 8
M  V30 22 1 10 11
M  V30 23 2 14 15
M  V30 24 1 19 20
M  V30 25 1 4 22
M  V30 26 1 4 23
M  V30 27 1 5 24
M  V30 28 1 6 25
M  V30 29 1 6 26
M  V30 30 1 7 27
M  V30 31 1 7 28
M  V30 32 1 7 29
M  V30 33 1 8 30
M  V30 34 1 8 31
M  V30 35 1 9 32
M  V30 36 1 10 33
M  V30 37 1 10 34
M  V30 38 1 11 35
M  V30 39 1 12 36
M  V30 40 1 12 37
M  V30 41 1 14 38
M  V30 42 1 16 39
M  V30 43 1 16 40
M  V30 44 1 17 41
M  V30 45 1 17 42
M  V30 46 1 17 43
M  V30 47 1 18 44
M  V30 48 1 18 45
M  V30 49 1 19 46
M  V30 50 1 19 47
M  V30 51 1 20 48
M  V30 52 1 21 49
M  V30 END BOND
M  V30 BEGIN COLLECTION
M  V30 MDLV30/STEABS ATOMS=(6 3 5 9 11 13 20)
M  V30 END COLLECTION
M  V30 END CTAB
M  END
>  <Structure No>
8846

>  <LogS>
-4.01

>  <MMFF94 Energy>
76.988

$$$$
Compound 8847
Actelion Java MolfileCreator 2.0

  0  0  0  0  0  0              0 V3000
M  V30 BEGIN CTAB
M  V30 COUNTS 18 18 0 0 0
M  V30 BEGIN ATOM
M  V30 1 S 3.4654 -0.7789 -0.2596 0
M  V30 2 O 3.8447 -1.2453 -1.6368 0
M  V30 3 O 3.9049 -1.8056 0.746 0
M  V30 4 N 4.2398 0.727 0.0876 0
M  V30 5 C 1.7277 -0.5809 -0.1669 0
M  V30 6 S 0.8205 0.3892 -1.2028 0
M  V30 7 N 0.9522 -1.1897 0.7564 0
M  V30 8 C -0.587 -0.0361 -0.3852 0
M  V30 9 N -0.3388 -0.8867 0.6353 0
M  V30 10 N -1.8873 0.4497 -0.7314 0 CHG=-1
M  V30 11 C -3.1008 0.1006 -0.0558 0
M  V30 12 O -3.0946 -0.7163 0.9037 0
M  V30 13 C -4.3953 0.67 -0.5302 0
M  V30 14 H 5.2674 0.574 -0.0201 0
M  V30 15 H 3.9551 1.397 -0.6614 0
M  V30 16 H -4.8322 0.0018 -1.301 0
M  V30 17 H -4.2303 1.6758 -0.9705 0
M  V30 18 H -5.1065 0.7645 0.3175 0
M  V30 END ATOM
M  V30 BEGIN BOND
M  V30 1 2 1 2
M  V30 2 2 1 3
M  V30 3 1 1 4
M  V30 4 1 1 5
M  V30 5 1 5 6
M  V30 6 2 5 7
M  V30 7 1 6 8
M  V30 8 1 7 9
M  V30 9 1 8 10
M  V30 10 1 10 11
M  V30 11 2 11 12
M  V30 12 1 11 13
M  V30 13 2 8 9
M  V30 14 1 4 14
M  V30 15 1 4 15
M  V30 16 1 13 16
M  V30 17 1 13 17
M  V30 18 1 13 18
M  V30 END BOND
M  V30 END CTAB
M  END
>  <Structure No>
8847

>  <LogS>
-2.44

>  <MMFF94 Energy>
-10.419

$$$$
Compound 8848
Actelion Java MolfileCreator 2.0

  0  0  0  0  0  0              0 V3000
M  V30 BEGIN CTAB
M  V30 COUNTS 45 47 0 0 0
M  V30 BEGIN ATOM
M  V30 1 N 3.33 0.4751 -0.4751 0 CHG=1
M  V30 2 C 2.7415 0.5413 -1.8373 0
M  V30 3 C 4.6184 -0.2388 -0.5137 0
M  V30 4 C 3.5351 1.8236 0.0876 0
M  V30 5 C 1.2177 0.7652 -1.8213 0
M  V30 6 C 0.4895 -0.4461 -1.2895 0
M  V30 7 C -0.5001 -0.413 -0.372 0
M  V30 8 C -1.2405 -1.6599 -0.0415 0
M  V30 9 C -0.9209 0.8461 0.2696 0
M  V30 10 C -2.669 -1.7457 -0.0094 0
M  V30 11 C -0.4805 -2.808 0.2633 0
M  V30 12 C -2.1747 1.3933 -0.0376 0
M  V30 13 C -0.0909 1.4812 1.2067 0
M  V30 14 C -3.2608 -2.977 0.3352 0
M  V30 15 C -3.6444 -0.5992 -0.2638 0
M  V30 16 C -1.0978 -4.014 0.5878 0
M  V30 17 C -2.5836 2.5856 0.5829 0
M  V30 18 C -3.0966 0.6488 -0.9617 0
M  V30 19 C -0.4979 2.6737 1.8099 0
M  V30 20 C -2.4851 -4.0983 0.6233 0
M  V30 21 C -1.7416 3.2273 1.4959 0
M  V30 22 H 2.6968 -0.0589 0.1652 0
M  V30 23 H 3.2185 1.3553 -2.4292 0
M  V30 24 H 2.9365 -0.4017 -2.3985 0
M  V30 25 H 5.0725 -0.2836 0.5008 0
M  V30 26 H 4.4703 -1.2881 -0.8517 0
M  V30 27 H 5.3327 0.2626 -1.2045 0
M  V30 28 H 3.9409 1.7546 1.121 0
M  V30 29 H 4.2451 2.4145 -0.5329 0
M  V30 30 H 2.578 2.3799 0.1541 0
M  V30 31 H 0.9713 1.6957 -1.2759 0
M  V30 32 H 0.8795 0.9218 -2.8678 0
M  V30 33 H 0.7231 -1.3892 -1.7704 0
M  V30 34 H 0.6021 -2.7668 0.2651 0
M  V30 35 H 0.8657 1.0501 1.4712 0
M  V30 36 H -4.3394 -3.07 0.3837 0
M  V30 37 H -4.4731 -0.983 -0.899 0
M  V30 38 H -4.1 -0.3016 0.7064 0
M  V30 39 H -0.4974 -4.884 0.8201 0
M  V30 40 H -3.5548 3.0133 0.3676 0
M  V30 41 H -3.9495 1.299 -1.2561 0
M  V30 42 H -2.5714 0.3676 -1.9003 0
M  V30 43 H 0.1476 3.1648 2.5264 0
M  V30 44 H -2.9628 -5.0345 0.8823 0
M  V30 45 H -2.0589 4.147 1.97 0
M  V30 END ATOM
M  V30 BEGIN BOND
M  V30 1 1 1 2
M  V30 2 1 1 3
M  V30 3 1 1 4
M  V30 4 1 2 5
M  V30 5 1 5 6
M  V30 6 2 6 7
M  V30 7 1 7 8
M  V30 8 1 7 9
M  V30 9 2 8 10
M  V30 10 1 8 11
M  V30 11 2 9 12
M  V30 12 1 9 13
M  V30 13 1 10 14
M  V30 14 1 10 15
M  V30 15 2 11 16
M  V30 16 1 12 17
M  V30 17 1 12 18
M  V30 18 2 13 19
M  V30 19 2 14 20
M  V30 20 2 17 21
M  V30 21 1 15 18
M  V30 22 1 16 20
M  V30 23 1 19 21
M  V30 24 1 1 22
M  V30 25 1 2 23
M  V30 26 1 2 24
M  V30 27 1 3 25
M  V30 28 1 3 26
M  V30 29 1 3 27
M  V30 30 1 4 28
M  V30 31 1 4 29
M  V30 32 1 4 30
M  V30 33 1 5 31
M  V30 34 1 5 32
M  V30 35 1 6 33
M  V30 36 1 11 34
M  V30 37 1 13 35
M  V30 38 1 14 36
M  V30 39 1 15 37
M  V30 40 1 15 38
M  V30 41 1 16 39
M  V30 42 1 17 40
M  V30 43 1 18 41
M  V30 44 1 18 42
M  V30 45 1 19 43
M  V30 46 1 20 44
M  V30 47 1 21 45
M  V30 END BOND
M  V30 END CTAB
M  END
>  <Structure No>
8848

>  <LogS>
-4.55

>  <MMFF94 Energy>
81.863

$$$$
Compound 8849
Actelion Java MolfileCreator 2.0

  0  0  0  0  0  0              0 V3000
M  V30 BEGIN CTAB
M  V30 COUNTS 48 50 0 0 0
M  V30 BEGIN ATOM
M  V30 1 Cl 7.696 -2.24 -2.8807 0
M  V30 2 C 6.4083 -1.6097 -1.8697 0
M  V30 3 C 6.705 -0.7162 -0.8366 0
M  V30 4 C 5.0853 -1.9963 -2.102 0
M  V30 5 C 5.6804 -0.2099 -0.0288 0
M  V30 6 C 4.0532 -1.4978 -1.3014 0
M  V30 7 N 5.9791 0.6673 0.9656 0
M  V30 8 C 4.3378 -0.606 -0.2486 0
M  V30 9 C 5.0201 1.1875 1.7732 0
M  V30 10 C 3.3272 -0.0717 0.582 0
M  V30 11 C 3.6845 0.8255 1.6004 0
M  V30 12 N 1.9554 -0.4819 0.4422 0
M  V30 13 C 0.8401 0.4265 0.4831 0
M  V30 14 C -0.4299 -0.0561 0.8237 0
M  V30 15 C 0.9883 1.778 0.1448 0
M  V30 16 C -1.5587 0.7888 0.84 0
M  V30 17 C -0.1048 2.6398 0.2006 0
M  V30 18 C -1.3719 2.1732 0.5672 0
M  V30 19 C -2.9058 0.1769 1.2108 0
M  V30 20 O -2.393 3.1246 0.6525 0
M  V30 21 N -3.3306 -0.901 0.2753 0 CHG=1
M  V30 22 C -4.4558 -1.7105 0.8157 0
M  V30 23 C -3.527 -0.4846 -1.1432 0
M  V30 24 C -5.811 -0.9964 0.8599 0
M  V30 25 C -4.1914 0.8859 -1.3529 0
M  V30 26 H 7.7308 -0.4139 -0.6638 0
M  V30 27 H 4.854 -2.6819 -2.9073 0
M  V30 28 H 3.0398 -1.8059 -1.5211 0
M  V30 29 H 5.2964 1.8789 2.5581 0
M  V30 30 H 2.9333 1.2297 2.2672 0
M  V30 31 H 1.7569 -1.5051 0.365 0
M  V30 32 H -0.5296 -1.0996 1.0943 0
M  V30 33 H 1.9494 2.1706 -0.1604 0
M  V30 34 H 0.0347 3.6875 -0.0348 0
M  V30 35 H -3.7041 0.9268 1.3129 0
M  V30 36 H -2.7862 -0.246 2.2335 0
M  V30 37 H -3.3356 2.939 0.9592 0
M  V30 38 H -2.5439 -1.5907 0.2438 0
M  V30 39 H -4.2108 -2.0559 1.8455 0
M  V30 40 H -4.576 -2.6364 0.2086 0
M  V30 41 H -4.1224 -1.2511 -1.6882 0
M  V30 42 H -2.54 -0.4542 -1.6584 0
M  V30 43 H -6.1996 -0.8286 -0.1652 0
M  V30 44 H -5.7519 -0.0391 1.4151 0
M  V30 45 H -6.5428 -1.6451 1.3861 0
M  V30 46 H -3.4452 1.6949 -1.2405 0
M  V30 47 H -4.5837 0.9463 -2.3899 0
M  V30 48 H -5.0305 1.0712 -0.6577 0
M  V30 END ATOM
M  V30 BEGIN BOND
M  V30 1 1 1 2
M  V30 2 2 2 3
M  V30 3 1 2 4
M  V30 4 1 3 5
M  V30 5 2 4 6
M  V30 6 2 5 7
M  V30 7 1 5 8
M  V30 8 1 7 9
M  V30 9 2 8 10
M  V30 10 2 9 11
M  V30 11 1 10 12
M  V30 12 1 12 13
M  V30 13 2 13 14
M  V30 14 1 13 15
M  V30 15 1 14 16
M  V30 16 2 15 17
M  V30 17 2 16 18
M  V30 18 1 16 19
M  V30 19 1 18 20
M  V30 20 1 19 21
M  V30 21 1 21 22
M  V30 22 1 21 23
M  V30 23 1 22 24
M  V30 24 1 23 25
M  V30 25 1 6 8
M  V30 26 1 10 11
M  V30 27 1 17 18
M  V30 28 1 3 26
M  V30 29 1 4 27
M  V30 30 1 6 28
M  V30 31 1 9 29
M  V30 32 1 11 30
M  V30 33 1 12 31
M  V30 34 1 14 32
M  V30 35 1 15 33
M  V30 36 1 17 34
M  V30 37 1 19 35
M  V30 38 1 19 36
M  V30 39 1 20 37
M  V30 40 1 21 38
M  V30 41 1 22 39
M  V30 42 1 22 40
M  V30 43 1 23 41
M  V30 44 1 23 42
M  V30 45 1 24 43
M  V30 46 1 24 44
M  V30 47 1 24 45
M  V30 48 1 25 46
M  V30 49 1 25 47
M  V30 50 1 25 48
M  V30 END BOND
M  V30 END CTAB
M  END
>  <Structure No>
8849

>  <LogS>
-5.79

>  <MMFF94 Energy>
20.194

$$$$
Compound 8850
Actelion Java MolfileCreator 2.0

  0  0  0  0  0  0              0 V3000
M  V30 BEGIN CTAB
M  V30 COUNTS 45 47 0 0 0
M  V30 BEGIN ATOM
M  V30 1 O 1.4385 -0.719 2.3984 0
M  V30 2 C 1.2985 -0.6721 1.1456 0
M  V30 3 O 0.2285 0.0324 0.5787 0
M  V30 4 C 2.3244 -1.3368 0.2636 0 CFG=2
M  V30 5 C -0.7961 0.6674 1.3465 0 CFG=2
M  V30 6 C 3.4172 -0.369 -0.1535 0
M  V30 7 C 1.6884 -2.0325 -0.9519 0
M  V30 8 C -1.7817 -0.3978 1.9161 0
M  V30 9 C -1.4964 1.7441 0.4683 0
M  V30 10 C 4.7661 -0.7586 -0.061 0
M  V30 11 C 3.1127 0.9014 -0.6835 0
M  V30 12 O 1.1238 -1.1006 -1.8338 0
M  V30 13 C -2.9629 -0.6938 0.954 0 CFG=1
M  V30 14 C -2.7164 1.1847 -0.3118 0 CFG=2
M  V30 15 C 5.7851 0.1087 -0.4653 0
M  V30 16 C 4.1358 1.7649 -1.0858 0
M  V30 17 N -3.6401 0.5763 0.6561 0 CHG=1 CFG=1
M  V30 18 C -2.4394 -1.2164 -0.3957 0
M  V30 19 C -2.2796 0.0443 -1.2467 0
M  V30 20 C 5.4705 1.37 -0.9749 0
M  V30 21 C -4.9947 0.3798 0.1016 0
M  V30 22 H 2.7828 -2.1486 0.8727 0
M  V30 23 H -0.3151 1.1983 2.1986 0
M  V30 24 H 0.9054 -2.743 -0.6016 0
M  V30 25 H 2.4704 -2.6184 -1.4854 0
M  V30 26 H -1.2449 -1.3418 2.1507 0
M  V30 27 H -2.1959 -0.0221 2.8773 0
M  V30 28 H -0.7661 2.1926 -0.2404 0
M  V30 29 H -1.8495 2.5689 1.1254 0
M  V30 30 H 5.0314 -1.7351 0.3246 0
M  V30 31 H 2.0868 1.2275 -0.7884 0
M  V30 32 H 0.7072 -1.6284 -2.5635 0
M  V30 33 H -3.6506 -1.4292 1.4302 0
M  V30 34 H -3.1987 2.0103 -0.8835 0
M  V30 35 H 6.8196 -0.1987 -0.3856 0
M  V30 36 H 3.8929 2.7408 -1.4858 0
M  V30 37 H -3.7432 1.1698 1.5156 0
M  V30 38 H -3.1902 -1.8947 -0.8565 0
M  V30 39 H -1.4831 -1.7733 -0.2975 0
M  V30 40 H -1.2396 0.1703 -1.6144 0
M  V30 41 H -2.9552 -0.0023 -2.1289 0
M  V30 42 H 6.2607 2.0401 -1.2868 0
M  V30 43 H -5.4515 1.3631 -0.1443 0
M  V30 44 H -4.9884 -0.2432 -0.8179 0
M  V30 45 H -5.6461 -0.1143 0.8551 0
M  V30 END ATOM
M  V30 BEGIN BOND
M  V30 1 2 1 2
M  V30 2 1 2 3
M  V30 3 1 2 4
M  V30 4 1 3 5
M  V30 5 1 4 6
M  V30 6 1 4 7
M  V30 7 1 5 8
M  V30 8 1 5 9
M  V30 9 2 6 10
M  V30 10 1 6 11
M  V30 11 1 7 12
M  V30 12 1 8 13
M  V30 13 1 9 14
M  V30 14 1 10 15
M  V30 15 2 11 16
M  V30 16 1 13 17
M  V30 17 1 13 18
M  V30 18 1 14 19
M  V30 19 2 15 20
M  V30 20 1 17 21
M  V30 21 1 14 17
M  V30 22 1 16 20
M  V30 23 1 18 19
M  V30 24 1 4 22
M  V30 25 1 5 23
M  V30 26 1 7 24
M  V30 27 1 7 25
M  V30 28 1 8 26
M  V30 29 1 8 27
M  V30 30 1 9 28
M  V30 31 1 9 29
M  V30 32 1 10 30
M  V30 33 1 11 31
M  V30 34 1 12 32
M  V30 35 1 13 33
M  V30 36 1 14 34
M  V30 37 1 15 35
M  V30 38 1 16 36
M  V30 39 1 17 37
M  V30 40 1 18 38
M  V30 41 1 18 39
M  V30 42 1 19 40
M  V30 43 1 19 41
M  V30 44 1 20 42
M  V30 45 1 21 43
M  V30 46 1 21 44
M  V30 47 1 21 45
M  V30 END BOND
M  V30 BEGIN COLLECTION
M  V30 MDLV30/STEABS ATOMS=(5 4 5 13 14 17)
M  V30 END COLLECTION
M  V30 END CTAB
M  END
>  <Structure No>
8850

>  <LogS>
-2.0

>  <MMFF94 Energy>
55.472

$$$$
Compound 8851
Actelion Java MolfileCreator 2.0

  0  0  0  0  0  0              0 V3000
M  V30 BEGIN CTAB
M  V30 COUNTS 22 23 0 0 0
M  V30 BEGIN ATOM
M  V30 1 N 2.7625 -1.8147 -1.341 0
M  V30 2 C 1.8253 -1.8213 -0.37 0
M  V30 3 C 3.1834 -0.5332 -1.3901 0
M  V30 4 N 1.6555 -0.6072 0.1871 0
M  V30 5 C 2.4993 0.2141 -0.4576 0
M  V30 6 C 0.6775 -0.2372 1.2058 0
M  V30 7 C -0.6158 0.1641 0.553 0
M  V30 8 C -0.8279 1.4966 0.1621 0
M  V30 9 C -1.5948 -0.8019 0.2677 0
M  V30 10 C -2.0151 1.8608 -0.4812 0
M  V30 11 C -2.7805 -0.4336 -0.3758 0
M  V30 12 C -2.9916 0.897 -0.7479 0
M  V30 13 H 1.267 -2.7031 -0.0825 0
M  V30 14 H 3.937 -0.1651 -2.0731 0
M  V30 15 H 2.6009 1.2759 -0.2735 0
M  V30 16 H 1.0742 0.6001 1.8213 0
M  V30 17 H 0.5111 -1.0936 1.8958 0
M  V30 18 H -0.0746 2.2508 0.3536 0
M  V30 19 H -1.4388 -1.8381 0.5415 0
M  V30 20 H -2.1762 2.8895 -0.7766 0
M  V30 21 H -3.5342 -1.1806 -0.5896 0
M  V30 22 H -3.9092 1.1801 -1.2472 0
M  V30 END ATOM
M  V30 BEGIN BOND
M  V30 1 2 1 2
M  V30 2 1 1 3
M  V30 3 1 2 4
M  V30 4 2 3 5
M  V30 5 1 4 6
M  V30 6 1 6 7
M  V30 7 2 7 8
M  V30 8 1 7 9
M  V30 9 1 8 10
M  V30 10 2 9 11
M  V30 11 2 10 12
M  V30 12 1 4 5
M  V30 13 1 11 12
M  V30 14 1 2 13
M  V30 15 1 3 14
M  V30 16 1 5 15
M  V30 17 1 6 16
M  V30 18 1 6 17
M  V30 19 1 8 18
M  V30 20 1 9 19
M  V30 21 1 10 20
M  V30 22 1 11 21
M  V30 23 1 12 22
M  V30 END BOND
M  V30 END CTAB
M  END
>  <Structure No>
8851

>  <LogS>
-2.26

>  <MMFF94 Energy>
32.935

$$$$
Compound 8852
Actelion Java MolfileCreator 2.0

  0  0  0  0  0  0              0 V3000
M  V30 BEGIN CTAB
M  V30 COUNTS 57 60 0 0 0
M  V30 BEGIN ATOM
M  V30 1 O 3.2551 -1.3487 0.3172 0
M  V30 2 C 3.8253 -0.183 0.8532 0
M  V30 3 C 1.969 -1.8705 0.6511 0
M  V30 4 C 5.0298 0.3016 0.3332 0
M  V30 5 C 3.2439 0.5451 1.921 0
M  V30 6 C 0.8544 -1.0353 -0.004 0 CFG=1
M  V30 7 C 5.635 1.4426 0.8261 0
M  V30 8 C 5.8481 -0.1471 -0.6852 0
M  V30 9 C 3.8651 1.7102 2.4208 0
M  V30 10 O 1.0362 -0.9881 -1.3978 0
M  V30 11 C -0.5394 -1.5999 0.359 0
M  V30 12 N 6.7819 1.7231 0.1705 0
M  V30 13 C 5.0736 2.1701 1.8721 0
M  V30 14 C 6.9013 0.7442 -0.751 0
M  V30 15 C 5.7579 -1.2407 -1.5479 0
M  V30 16 N -1.6472 -0.8365 -0.2472 0 CHG=1
M  V30 17 C 7.9263 0.5915 -1.6832 0
M  V30 18 C 6.7821 -1.4137 -2.4962 0
M  V30 19 C -1.8875 0.4443 0.4411 0
M  V30 20 C 7.8598 -0.5034 -2.5635 0
M  V30 21 C -3.1148 1.1583 -0.1299 0
M  V30 22 O -4.2903 0.3983 0.1412 0
M  V30 23 C -5.5862 0.7674 -0.2509 0
M  V30 24 C -6.6504 -0.0909 0.0718 0
M  V30 25 C -5.844 1.9622 -0.9523 0
M  V30 26 O -6.3643 -1.2746 0.7703 0
M  V30 27 C -7.9624 0.254 -0.3098 0
M  V30 28 C -7.1485 2.2929 -1.3251 0
M  V30 29 C -7.3388 -2.2373 1.1584 0
M  V30 30 C -8.2053 1.4408 -1.0046 0
M  V30 31 H 1.8429 -1.9168 1.7539 0
M  V30 32 H 1.9127 -2.9141 0.2745 0
M  V30 33 H 2.3182 0.2249 2.3769 0
M  V30 34 H 0.9334 -0.0014 0.3854 0
M  V30 35 H 3.4064 2.2545 3.2362 0
M  V30 36 H 0.9567 -1.9159 -1.7427 0
M  V30 37 H -0.5967 -2.6542 0.0057 0
M  V30 38 H -0.6547 -1.6315 1.4662 0
M  V30 39 H 7.4324 2.523 0.3382 0
M  V30 40 H 5.5525 3.0631 2.2525 0
M  V30 41 H 4.9332 -1.938 -1.4991 0
M  V30 42 H -1.4585 -0.6664 -1.2625 0
M  V30 43 H -2.5104 -1.4249 -0.1753 0
M  V30 44 H 8.7486 1.2937 -1.7299 0
M  V30 45 H 6.7434 -2.2512 -3.1804 0
M  V30 46 H -2.0466 0.2779 1.5302 0
M  V30 47 H -1.0152 1.1198 0.3134 0
M  V30 48 H 8.6404 -0.6489 -3.2985 0
M  V30 49 H -3.2027 2.158 0.3484 0
M  V30 50 H -2.9923 1.2905 -1.227 0
M  V30 51 H -5.0442 2.6413 -1.2131 0
M  V30 52 H -8.8003 -0.3878 -0.0745 0
M  V30 53 H -7.3403 3.2122 -1.8637 0
M  V30 54 H -8.0819 -1.7746 1.8417 0
M  V30 55 H -7.8477 -2.6485 0.2612 0
M  V30 56 H -6.8345 -3.0682 1.6926 0
M  V30 57 H -9.2152 1.7002 -1.2951 0
M  V30 END ATOM
M  V30 BEGIN BOND
M  V30 1 1 1 2
M  V30 2 1 1 3
M  V30 3 2 2 4
M  V30 4 1 2 5
M  V30 5 1 3 6
M  V30 6 1 4 7
M  V30 7 1 4 8
M  V30 8 2 5 9
M  V30 9 1 6 10
M  V30 10 1 6 11
M  V30 11 1 7 12
M  V30 12 2 7 13
M  V30 13 2 8 14
M  V30 14 1 8 15
M  V30 15 1 11 16
M  V30 16 1 14 17
M  V30 17 2 15 18
M  V30 18 1 16 19
M  V30 19 2 17 20
M  V30 20 1 19 21
M  V30 21 1 21 22
M  V30 22 1 22 23
M  V30 23 2 23 24
M  V30 24 1 23 25
M  V30 25 1 24 26
M  V30 26 1 24 27
M  V30 27 2 25 28
M  V30 28 1 26 29
M  V30 29 2 27 30
M  V30 30 1 9 13
M  V30 31 1 12 14
M  V30 32 1 18 20
M  V30 33 1 28 30
M  V30 34 1 3 31
M  V30 35 1 3 32
M  V30 36 1 5 33
M  V30 37 1 6 34
M  V30 38 1 9 35
M  V30 39 1 10 36
M  V30 40 1 11 37
M  V30 41 1 11 38
M  V30 42 1 12 39
M  V30 43 1 13 40
M  V30 44 1 15 41
M  V30 45 1 16 42
M  V30 46 1 16 43
M  V30 47 1 17 44
M  V30 48 1 18 45
M  V30 49 1 19 46
M  V30 50 1 19 47
M  V30 51 1 20 48
M  V30 52 1 21 49
M  V30 53 1 21 50
M  V30 54 1 25 51
M  V30 55 1 27 52
M  V30 56 1 28 53
M  V30 57 1 29 54
M  V30 58 1 29 55
M  V30 59 1 29 56
M  V30 60 1 30 57
M  V30 END BOND
M  V30 BEGIN COLLECTION
M  V30 MDLV30/STEABS ATOMS=(1 6)
M  V30 END COLLECTION
M  V30 END CTAB
M  END
>  <Structure No>
8852

>  <LogS>
-4.26

>  <MMFF94 Energy>
116.93

$$$$
Compound 8853
Actelion Java MolfileCreator 2.0

  0  0  0  0  0  0              0 V3000
M  V30 BEGIN CTAB
M  V30 COUNTS 41 43 0 0 0
M  V30 BEGIN ATOM
M  V30 1 S 1.0872 1.5893 -1.0035 0
M  V30 2 C 0.0948 0.4868 0.0855 0 CFG=2
M  V30 3 C 2.1246 0.3105 -1.8215 0
M  V30 4 N 0.665 -0.8376 0.1471 0
M  V30 5 C -1.1455 0.0194 -0.4827 0 CFG=1
M  V30 6 C 2.8001 -0.6259 -0.8326 0
M  V30 7 C 2.0167 -1.2735 0.0607 0
M  V30 8 C -0.6228 -1.3784 -0.3419 0
M  V30 9 N -2.297 0.2652 0.3873 0
M  V30 10 C 4.2917 -0.8343 -0.933 0
M  V30 11 C 2.4616 -2.3479 0.9806 0
M  V30 12 O -1.0675 -2.5278 -0.5969 0
M  V30 13 C -2.8926 1.5649 0.4959 0
M  V30 14 O 4.9095 -0.4856 0.3022 0
M  V30 15 O 1.6992 -2.7122 1.9144 0
M  V30 16 O 3.6816 -2.9937 0.8277 0 CHG=-1
M  V30 17 O -2.4244 2.5362 -0.1581 0
M  V30 18 C -4.1049 1.7669 1.3505 0
M  V30 19 C 6.2842 -0.6087 0.5198 0
M  V30 20 C -5.3345 1.3851 0.5906 0
M  V30 21 O 7.0488 -1.0122 -0.3982 0
M  V30 22 C 6.8573 -0.2104 1.8373 0
M  V30 23 S -6.2313 2.4183 -0.3874 0
M  V30 24 C -5.867 0.1056 0.493 0
M  V30 25 C -7.323 1.2563 -0.924 0
M  V30 26 C -6.9833 0.0379 -0.349 0
M  V30 27 H -0.0033 0.9161 1.1082 0
M  V30 28 H 1.4774 -0.2864 -2.4992 0
M  V30 29 H 2.8685 0.834 -2.4569 0
M  V30 30 H -1.3284 0.3003 -1.5431 0
M  V30 31 H -2.739 -0.5336 0.8979 0
M  V30 32 H 4.5105 -1.8905 -1.1965 0
M  V30 33 H 4.7256 -0.2044 -1.7387 0
M  V30 34 H -4.1763 2.8308 1.6625 0
M  V30 35 H -4.0233 1.1497 2.2707 0
M  V30 36 H 7.6981 -0.8837 2.1072 0
M  V30 37 H 7.2274 0.8342 1.7788 0
M  V30 38 H 6.0778 -0.2775 2.625 0
M  V30 39 H -5.4578 -0.7548 1.0064 0
M  V30 40 H -8.1434 1.4242 -1.608 0
M  V30 41 H -7.5247 -0.8784 -0.5425 0
M  V30 END ATOM
M  V30 BEGIN BOND
M  V30 1 1 1 2
M  V30 2 1 1 3
M  V30 3 1 2 4
M  V30 4 1 2 5
M  V30 5 1 3 6
M  V30 6 1 4 7
M  V30 7 1 4 8
M  V30 8 1 5 9
M  V30 9 1 6 10
M  V30 10 1 7 11
M  V30 11 2 8 12
M  V30 12 1 9 13
M  V30 13 1 10 14
M  V30 14 2 11 15
M  V30 15 1 11 16
M  V30 16 2 13 17
M  V30 17 1 13 18
M  V30 18 1 14 19
M  V30 19 1 18 20
M  V30 20 2 19 21
M  V30 21 1 19 22
M  V30 22 1 20 23
M  V30 23 2 20 24
M  V30 24 1 23 25
M  V30 25 1 24 26
M  V30 26 1 5 8
M  V30 27 2 6 7
M  V30 28 2 25 26
M  V30 29 1 2 27
M  V30 30 1 3 28
M  V30 31 1 3 29
M  V30 32 1 5 30
M  V30 33 1 9 31
M  V30 34 1 10 32
M  V30 35 1 10 33
M  V30 36 1 18 34
M  V30 37 1 18 35
M  V30 38 1 22 36
M  V30 39 1 22 37
M  V30 40 1 22 38
M  V30 41 1 24 39
M  V30 42 1 25 40
M  V30 43 1 26 41
M  V30 END BOND
M  V30 BEGIN COLLECTION
M  V30 MDLV30/STEABS ATOMS=(2 2 5)
M  V30 END COLLECTION
M  V30 END CTAB
M  END
>  <Structure No>
8853

>  <LogS>
-2.94

>  <MMFF94 Energy>
48.089

$$$$
Compound 8854
Actelion Java MolfileCreator 2.0

  0  0  0  0  0  0              0 V3000
M  V30 BEGIN CTAB
M  V30 COUNTS 39 40 0 0 0
M  V30 BEGIN ATOM
M  V30 1 Cl -4.7885 4.5487 -0.8765 0
M  V30 2 C -3.4897 3.3717 -0.809 0
M  V30 3 C -3.4433 2.3268 -1.7357 0
M  V30 4 C -2.5035 3.4734 0.1759 0
M  V30 5 C -2.4102 1.3867 -1.6822 0
M  V30 6 C -1.4686 2.5355 0.2332 0
M  V30 7 C -1.4008 1.4868 -0.7065 0
M  V30 8 C -0.3143 0.425 -0.6423 0 CFG=2
M  V30 9 C -0.7373 -0.6694 0.3135 0
M  V30 10 C 1.0854 1.0189 -0.3178 0
M  V30 11 N -1.0877 -1.886 -0.1922 0
M  V30 12 C -0.8211 -0.4551 1.7015 0
M  V30 13 C 2.2739 0.2087 -0.8892 0
M  V30 14 C -1.4928 -2.9113 0.6035 0
M  V30 15 C -1.2326 -1.4972 2.5343 0
M  V30 16 N 2.4676 -1.1258 -0.2702 0 CHG=1
M  V30 17 C -1.5689 -2.7348 1.9857 0
M  V30 18 C 3.4927 -1.8727 -1.0214 0
M  V30 19 C 2.8748 -1.0242 1.1444 0
M  V30 20 H -4.2098 2.2389 -2.4952 0
M  V30 21 H -2.5396 4.2772 0.9005 0
M  V30 22 H -2.4001 0.5773 -2.4018 0
M  V30 23 H -0.7231 2.6339 1.0105 0
M  V30 24 H -0.2359 -0.0244 -1.6583 0
M  V30 25 H 1.2166 1.1995 0.7673 0
M  V30 26 H 1.15 2.0231 -0.7931 0
M  V30 27 H -0.5698 0.5012 2.1385 0
M  V30 28 H 3.1985 0.8185 -0.7691 0
M  V30 29 H 2.1124 0.1007 -1.986 0
M  V30 30 H -1.7569 -3.8629 0.1622 0
M  V30 31 H -1.2933 -1.3442 3.6042 0
M  V30 32 H 1.584 -1.6786 -0.3297 0
M  V30 33 H -1.8903 -3.5474 2.6243 0
M  V30 34 H 4.4725 -1.345 -0.9952 0
M  V30 35 H 3.6245 -2.8923 -0.596 0
M  V30 36 H 3.1836 -2.0006 -2.0824 0
M  V30 37 H 2.0476 -0.6293 1.7681 0
M  V30 38 H 3.7652 -0.3672 1.2609 0
M  V30 39 H 3.12 -2.0284 1.5555 0
M  V30 END ATOM
M  V30 BEGIN BOND
M  V30 1 1 1 2
M  V30 2 2 2 3
M  V30 3 1 2 4
M  V30 4 1 3 5
M  V30 5 2 4 6
M  V30 6 2 5 7
M  V30 7 1 7 8
M  V30 8 1 8 9
M  V30 9 1 8 10
M  V30 10 2 9 11
M  V30 11 1 9 12
M  V30 12 1 10 13
M  V30 13 1 11 14
M  V30 14 2 12 15
M  V30 15 1 13 16
M  V30 16 2 14 17
M  V30 17 1 16 18
M  V30 18 1 16 19
M  V30 19 1 6 7
M  V30 20 1 15 17
M  V30 21 1 3 20
M  V30 22 1 4 21
M  V30 23 1 5 22
M  V30 24 1 6 23
M  V30 25 1 8 24
M  V30 26 1 10 25
M  V30 27 1 10 26
M  V30 28 1 12 27
M  V30 29 1 13 28
M  V30 30 1 13 29
M  V30 31 1 14 30
M  V30 32 1 15 31
M  V30 33 1 16 32
M  V30 34 1 17 33
M  V30 35 1 18 34
M  V30 36 1 18 35
M  V30 37 1 18 36
M  V30 38 1 19 37
M  V30 39 1 19 38
M  V30 40 1 19 39
M  V30 END BOND
M  V30 BEGIN COLLECTION
M  V30 MDLV30/STEABS ATOMS=(1 8)
M  V30 END COLLECTION
M  V30 END CTAB
M  END
>  <Structure No>
8854

>  <LogS>
-2.67

>  <MMFF94 Energy>
48.861

$$$$
Compound 8855
Actelion Java MolfileCreator 2.0

  0  0  0  0  0  0              0 V3000
M  V30 BEGIN CTAB
M  V30 COUNTS 41 43 0 0 0
M  V30 BEGIN ATOM
M  V30 1 Cl -0.407 -2.607 3.8308 0
M  V30 2 C -1.4403 -1.6165 2.8175 0
M  V30 3 C -0.9722 -1.1552 1.5819 0
M  V30 4 C -2.7217 -1.2687 3.2558 0
M  V30 5 C -1.7865 -0.3418 0.7711 0
M  V30 6 C -3.5506 -0.4907 2.4455 0
M  V30 7 N -1.2703 0.289 -0.4263 0
M  V30 8 C -3.0957 -0.0483 1.1989 0
M  V30 9 C -1.7173 1.6316 -0.734 0
M  V30 10 C -0.3735 -0.4459 -1.3337 0
M  V30 11 S -4.2272 0.7728 0.0773 0
M  V30 12 C -3.0297 2.0185 -0.3961 0
M  V30 13 C -0.8299 2.6053 -1.2289 0
M  V30 14 C 1.1137 -0.2141 -0.9936 0
M  V30 15 C -3.4291 3.3536 -0.5132 0
M  V30 16 C -1.2415 3.9343 -1.3659 0
M  V30 17 C 1.9457 -1.4944 -1.2032 0
M  V30 18 C -2.5357 4.3098 -1.0001 0
M  V30 19 N 3.402 -1.2601 -1.0532 0 CHG=1
M  V30 20 C 3.7689 -0.9733 0.3472 0
M  V30 21 C 4.1469 -2.4416 -1.5238 0
M  V30 22 H 0.0315 -1.4117 1.2801 0
M  V30 23 H -3.0829 -1.617 4.2149 0
M  V30 24 H -4.5569 -0.2617 2.7717 0
M  V30 25 H -0.5643 -0.1368 -2.3846 0
M  V30 26 H -0.6252 -1.5293 -1.2845 0
M  V30 27 H 0.1894 2.3599 -1.4734 0
M  V30 28 H 1.5216 0.5787 -1.6541 0
M  V30 29 H 1.2098 0.1366 0.0533 0
M  V30 30 H -4.4394 3.6458 -0.2548 0
M  V30 31 H -0.5494 4.6787 -1.7384 0
M  V30 32 H 1.7324 -1.8614 -2.2331 0
M  V30 33 H 1.6031 -2.2824 -0.495 0
M  V30 34 H -2.8485 5.3412 -1.1001 0
M  V30 35 H 3.6881 -0.4463 -1.6487 0
M  V30 36 H 4.8741 -0.9118 0.4593 0
M  V30 37 H 3.3879 -1.7626 1.0328 0
M  V30 38 H 3.3694 0.0106 0.668 0
M  V30 39 H 3.9202 -2.6464 -2.5931 0
M  V30 40 H 5.243 -2.2667 -1.4518 0
M  V30 41 H 3.8888 -3.342 -0.9228 0
M  V30 END ATOM
M  V30 BEGIN BOND
M  V30 1 1 1 2
M  V30 2 2 2 3
M  V30 3 1 2 4
M  V30 4 1 3 5
M  V30 5 2 4 6
M  V30 6 1 5 7
M  V30 7 2 5 8
M  V30 8 1 7 9
M  V30 9 1 7 10
M  V30 10 1 8 11
M  V30 11 2 9 12
M  V30 12 1 9 13
M  V30 13 1 10 14
M  V30 14 1 12 15
M  V30 15 2 13 16
M  V30 16 1 14 17
M  V30 17 2 15 18
M  V30 18 1 17 19
M  V30 19 1 19 20
M  V30 20 1 19 21
M  V30 21 1 6 8
M  V30 22 1 11 12
M  V30 23 1 16 18
M  V30 24 1 3 22
M  V30 25 1 4 23
M  V30 26 1 6 24
M  V30 27 1 10 25
M  V30 28 1 10 26
M  V30 29 1 13 27
M  V30 30 1 14 28
M  V30 31 1 14 29
M  V30 32 1 15 30
M  V30 33 1 16 31
M  V30 34 1 17 32
M  V30 35 1 17 33
M  V30 36 1 18 34
M  V30 37 1 19 35
M  V30 38 1 20 36
M  V30 39 1 20 37
M  V30 40 1 20 38
M  V30 41 1 21 39
M  V30 42 1 21 40
M  V30 43 1 21 41
M  V30 END BOND
M  V30 END CTAB
M  END
>  <Structure No>
8855

>  <LogS>
-5.07

>  <MMFF94 Energy>
67.753

$$$$
Compound 8856
Actelion Java MolfileCreator 2.0

  0  0  0  0  0  0              0 V3000
M  V30 BEGIN CTAB
M  V30 COUNTS 29 29 0 0 0
M  V30 BEGIN ATOM
M  V30 1 Cl -4.1497 3.651 -0.9118 0
M  V30 2 C -3.4709 2.0866 -0.5018 0
M  V30 3 C -3.1027 1.1955 -1.5154 0
M  V30 4 C -3.2983 1.7276 0.8393 0
M  V30 5 C -2.5611 -0.0514 -1.1893 0
M  V30 6 C -2.7563 0.4809 1.167 0
M  V30 7 C -2.3812 -0.4121 0.1534 0
M  V30 8 S -1.6897 -1.9792 0.5604 0
M  V30 9 O -2.7879 -3.0038 0.5871 0
M  V30 10 O -1.0304 -1.9327 1.9107 0
M  V30 11 N -0.5139 -2.4403 -0.626 0 CHG=-1
M  V30 12 C 0.6877 -1.7146 -0.9069 0
M  V30 13 O 1.4584 -2.1488 -1.8036 0
M  V30 14 N 1.0211 -0.5105 -0.1958 0
M  V30 15 C 2.248 0.2385 -0.4596 0
M  V30 16 C 3.453 -0.4714 0.1644 0
M  V30 17 C 4.7385 0.3167 -0.0678 0
M  V30 18 H -3.2361 1.4676 -2.5546 0
M  V30 19 H -3.5835 2.4128 1.6275 0
M  V30 20 H -2.2814 -0.7332 -1.9821 0
M  V30 21 H -2.6291 0.2146 2.2085 0
M  V30 22 H 0.3545 -0.1103 0.499 0
M  V30 23 H 2.3887 0.3571 -1.5563 0
M  V30 24 H 2.1539 1.2541 -0.0161 0
M  V30 25 H 3.2895 -0.5844 1.2582 0
M  V30 26 H 3.568 -1.4836 -0.2784 0
M  V30 27 H 5.5929 -0.2213 0.3939 0
M  V30 28 H 4.9328 0.4248 -1.1562 0
M  V30 29 H 4.6624 1.3244 0.3935 0
M  V30 END ATOM
M  V30 BEGIN BOND
M  V30 1 1 1 2
M  V30 2 2 2 3
M  V30 3 1 2 4
M  V30 4 1 3 5
M  V30 5 2 4 6
M  V30 6 2 5 7
M  V30 7 1 7 8
M  V30 8 2 8 9
M  V30 9 2 8 10
M  V30 10 1 8 11
M  V30 11 1 11 12
M  V30 12 2 12 13
M  V30 13 1 12 14
M  V30 14 1 14 15
M  V30 15 1 15 16
M  V30 16 1 16 17
M  V30 17 1 6 7
M  V30 18 1 3 18
M  V30 19 1 4 19
M  V30 20 1 5 20
M  V30 21 1 6 21
M  V30 22 1 14 22
M  V30 23 1 15 23
M  V30 24 1 15 24
M  V30 25 1 16 25
M  V30 26 1 16 26
M  V30 27 1 17 27
M  V30 28 1 17 28
M  V30 29 1 17 29
M  V30 END BOND
M  V30 END CTAB
M  END
>  <Structure No>
8856

>  <LogS>
-3.25

>  <MMFF94 Energy>
-12.42

$$$$
Compound 8857
Actelion Java MolfileCreator 2.0

  0  0  0  0  0  0              0 V3000
M  V30 BEGIN CTAB
M  V30 COUNTS 15 16 0 0 0
M  V30 BEGIN ATOM
M  V30 1 Cl 3.4527 -1.3142 -0.4105 0
M  V30 2 C 1.9186 -0.4862 -0.2194 0
M  V30 3 C 0.7248 -1.232 -0.1468 0
M  V30 4 C 1.8858 0.9274 -0.1386 0
M  V30 5 C -0.4658 -0.5257 0.0051 0
M  V30 6 C 0.6613 1.6065 0.0149 0
M  V30 7 N -1.7164 -1.0028 0.0977 0
M  V30 8 C -0.4963 0.8375 0.0828 0
M  V30 9 C -2.4589 0.1222 0.2301 0
M  V30 10 O -1.7389 1.2314 0.2225 0
M  V30 11 O -3.7123 0.1121 0.3486 0
M  V30 12 H 0.7299 -2.3127 -0.2065 0
M  V30 13 H 2.806 1.4944 -0.1949 0
M  V30 14 H 0.622 2.6862 0.0779 0
M  V30 15 H -2.038 -1.9962 0.0738 0
M  V30 END ATOM
M  V30 BEGIN BOND
M  V30 1 1 1 2
M  V30 2 2 2 3
M  V30 3 1 2 4
M  V30 4 1 3 5
M  V30 5 2 4 6
M  V30 6 1 5 7
M  V30 7 2 5 8
M  V30 8 1 7 9
M  V30 9 1 8 10
M  V30 10 2 9 11
M  V30 11 1 6 8
M  V30 12 1 9 10
M  V30 13 1 3 12
M  V30 14 1 4 13
M  V30 15 1 6 14
M  V30 16 1 7 15
M  V30 END BOND
M  V30 END CTAB
M  END
>  <Structure No>
8857

>  <LogS>
-2.66

>  <MMFF94 Energy>
-7.1424

$$$$
Compound 8858
Actelion Java MolfileCreator 2.0

  0  0  0  0  0  0              0 V3000
M  V30 BEGIN CTAB
M  V30 COUNTS 42 45 0 0 0
M  V30 BEGIN ATOM
M  V30 1 F 1.4609 3.1673 0.4056 0
M  V30 2 C 0.5174 2.1929 0.4248 0
M  V30 3 C 0.8489 0.8628 0.1223 0
M  V30 4 C -0.7833 2.5277 0.7981 0
M  V30 5 N 2.195 0.5032 -0.2597 0
M  V30 6 C -0.15 -0.1223 0.1963 0
M  V30 7 C -1.7881 1.5457 0.8731 0
M  V30 8 C 2.7961 -0.7459 0.2251 0
M  V30 9 C 2.9534 1.3341 -1.2034 0
M  V30 10 C -1.4818 0.2005 0.5479 0
M  V30 11 C -3.0909 1.8783 1.2854 0
M  V30 12 C 4.3257 -0.6431 0.1902 0
M  V30 13 C 3.9185 0.4605 -2.0118 0
M  V30 14 N -2.4732 -0.7573 0.5918 0
M  V30 15 O -3.3758 3.076 1.5659 0
M  V30 16 C -4.0691 0.8738 1.3968 0
M  V30 17 N 4.8475 -0.3048 -1.1531 0 CHG=1
M  V30 18 C -3.7197 -0.4408 1.0587 0
M  V30 19 C -2.2066 -2.1669 0.2439 0
M  V30 20 C -5.4546 1.1619 1.8567 0
M  V30 21 C -3.2332 -2.8176 -0.6831 0
M  V30 22 C -1.8864 -2.3935 -1.2306 0
M  V30 23 O -5.8087 2.3312 2.162 0
M  V30 24 O -6.3909 0.1374 1.9515 0 CHG=-1
M  V30 25 H -0.9972 3.5609 1.043 0
M  V30 26 H 0.1264 -1.1408 -0.0249 0
M  V30 27 H 2.4769 -0.94 1.2726 0
M  V30 28 H 2.4646 -1.5929 -0.4133 0
M  V30 29 H 3.5275 2.1038 -0.6466 0
M  V30 30 H 2.2609 1.8408 -1.9092 0
M  V30 31 H 4.7624 -1.6068 0.5344 0
M  V30 32 H 4.6412 0.1362 0.9213 0
M  V30 33 H 3.3189 -0.2425 -2.6326 0
M  V30 34 H 4.4943 1.1046 -2.7128 0
M  V30 35 H 5.1011 -1.1911 -1.6513 0
M  V30 36 H 5.7309 0.2457 -1.0357 0
M  V30 37 H -4.4638 -1.2229 1.1608 0
M  V30 38 H -1.6927 -2.8155 0.9851 0
M  V30 39 H -3.3373 -3.9163 -0.563 0
M  V30 40 H -4.0647 -2.1792 -1.0502 0
M  V30 41 H -1.9262 -1.4897 -1.8763 0
M  V30 42 H -1.1871 -3.2347 -1.4197 0
M  V30 END ATOM
M  V30 BEGIN BOND
M  V30 1 1 1 2
M  V30 2 2 2 3
M  V30 3 1 2 4
M  V30 4 1 3 5
M  V30 5 1 3 6
M  V30 6 2 4 7
M  V30 7 1 5 8
M  V30 8 1 5 9
M  V30 9 2 6 10
M  V30 10 1 7 11
M  V30 11 1 8 12
M  V30 12 1 9 13
M  V30 13 1 10 14
M  V30 14 2 11 15
M  V30 15 1 11 16
M  V30 16 1 12 17
M  V30 17 1 14 18
M  V30 18 1 14 19
M  V30 19 1 16 20
M  V30 20 1 19 21
M  V30 21 1 19 22
M  V30 22 2 20 23
M  V30 23 1 20 24
M  V30 24 1 7 10
M  V30 25 1 13 17
M  V30 26 2 16 18
M  V30 27 1 21 22
M  V30 28 1 4 25
M  V30 29 1 6 26
M  V30 30 1 8 27
M  V30 31 1 8 28
M  V30 32 1 9 29
M  V30 33 1 9 30
M  V30 34 1 12 31
M  V30 35 1 12 32
M  V30 36 1 13 33
M  V30 37 1 13 34
M  V30 38 1 17 35
M  V30 39 1 17 36
M  V30 40 1 18 37
M  V30 41 1 19 38
M  V30 42 1 21 39
M  V30 43 1 21 40
M  V30 44 1 22 41
M  V30 45 1 22 42
M  V30 END BOND
M  V30 END CTAB
M  END
>  <Structure No>
8858

>  <LogS>
-3.6

>  <MMFF94 Energy>
114.8

$$$$
Compound 8859
Actelion Java MolfileCreator 2.0

  0  0  0  0  0  0              0 V3000
M  V30 BEGIN CTAB
M  V30 COUNTS 46 50 0 0 0
M  V30 BEGIN ATOM
M  V30 1 F -1.1416 2.7743 -1.0601 0
M  V30 2 C -0.1297 1.9289 -0.7456 0
M  V30 3 C -0.3681 0.7136 -0.0786 0
M  V30 4 C 1.161 2.2718 -1.1453 0
M  V30 5 N -1.6965 0.3259 0.3371 0
M  V30 6 C 0.7169 -0.1405 0.1812 0
M  V30 7 C 2.2492 1.4196 -0.8853 0
M  V30 8 C -2.8761 1.1838 0.4757 0 CFG=1
M  V30 9 C -2.1582 -1.0504 0.5151 0
M  V30 10 C 2.0376 0.2033 -0.1904 0
M  V30 11 C 3.5446 1.7505 -1.3228 0
M  V30 12 C -3.7367 0.9841 -0.7805 0
M  V30 13 C -3.6982 0.4252 1.4839 0
M  V30 14 C -3.6801 -0.8449 0.6537 0 CFG=1
M  V30 15 N 3.109 -0.6173 0.0953 0
M  V30 16 O 3.7436 2.8385 -1.9316 0
M  V30 17 C 4.6111 0.8637 -1.0922 0
M  V30 18 N -4.2099 -0.418 -0.6659 0 CHG=1 CFG=1
M  V30 19 C 4.3532 -0.3244 -0.3922 0
M  V30 20 C 2.9422 -1.881 0.8399 0
M  V30 21 C 5.9921 1.1506 -1.5689 0
M  V30 22 C -5.6777 -0.5269 -0.7362 0
M  V30 23 C 3.9515 -2.1152 1.9637 0
M  V30 24 C 2.5359 -1.694 2.299 0
M  V30 25 O 6.932 0.3492 -1.3193 0
M  V30 26 O 6.2761 2.3006 -2.2967 0 CHG=-1
M  V30 27 H 1.3026 3.2064 -1.6747 0
M  V30 28 H 0.5177 -1.078 0.6766 0
M  V30 29 H -2.6543 2.2313 0.77 0
M  V30 30 H -1.8962 -1.6795 -0.363 0
M  V30 31 H -1.7297 -1.487 1.444 0
M  V30 32 H -3.1322 1.1266 -1.7039 0
M  V30 33 H -4.5722 1.7222 -0.787 0
M  V30 34 H -4.714 0.8524 1.6365 0
M  V30 35 H -3.1827 0.317 2.4664 0
M  V30 36 H -4.2127 -1.7117 1.1044 0
M  V30 37 H -3.8072 -1.0012 -1.4385 0
M  V30 38 H 5.1667 -1.0217 -0.2267 0
M  V30 39 H 2.5442 -2.7707 0.3072 0
M  V30 40 H -6.0375 -0.1645 -1.724 0
M  V30 41 H -5.9866 -1.5896 -0.631 0
M  V30 42 H -6.1761 0.067 0.0592 0
M  V30 43 H 4.6939 -1.3116 2.1568 0
M  V30 44 H 4.1599 -3.1829 2.1855 0
M  V30 45 H 2.4478 -0.6408 2.6427 0
M  V30 46 H 1.9021 -2.5108 2.7046 0
M  V30 END ATOM
M  V30 BEGIN BOND
M  V30 1 1 1 2
M  V30 2 2 2 3
M  V30 3 1 2 4
M  V30 4 1 3 5
M  V30 5 1 3 6
M  V30 6 2 4 7
M  V30 7 1 5 8
M  V30 8 1 5 9
M  V30 9 2 6 10
M  V30 10 1 7 11
M  V30 11 1 8 12
M  V30 12 1 8 13
M  V30 13 1 9 14
M  V30 14 1 10 15
M  V30 15 2 11 16
M  V30 16 1 11 17
M  V30 17 1 12 18
M  V30 18 1 15 19
M  V30 19 1 15 20
M  V30 20 1 17 21
M  V30 21 1 18 22
M  V30 22 1 20 23
M  V30 23 1 20 24
M  V30 24 2 21 25
M  V30 25 1 21 26
M  V30 26 1 7 10
M  V30 27 1 13 14
M  V30 28 1 14 18
M  V30 29 2 17 19
M  V30 30 1 23 24
M  V30 31 1 4 27
M  V30 32 1 6 28
M  V30 33 1 8 29
M  V30 34 1 9 30
M  V30 35 1 9 31
M  V30 36 1 12 32
M  V30 37 1 12 33
M  V30 38 1 13 34
M  V30 39 1 13 35
M  V30 40 1 14 36
M  V30 41 1 18 37
M  V30 42 1 19 38
M  V30 43 1 20 39
M  V30 44 1 22 40
M  V30 45 1 22 41
M  V30 46 1 22 42
M  V30 47 1 23 43
M  V30 48 1 23 44
M  V30 49 1 24 45
M  V30 50 1 24 46
M  V30 END BOND
M  V30 BEGIN COLLECTION
M  V30 MDLV30/STEABS ATOMS=(3 8 14 18)
M  V30 END COLLECTION
M  V30 END CTAB
M  END
>  <Structure No>
8859

>  <LogS>
-2.9

>  <MMFF94 Energy>
117.68

$$$$
Compound 8860
Actelion Java MolfileCreator 2.0

  0  0  0  0  0  0              0 V3000
M  V30 BEGIN CTAB
M  V30 COUNTS 32 32 0 0 0
M  V30 BEGIN ATOM
M  V30 1 N 1.4813 -0.1558 1.1693 0 CHG=1 CFG=2
M  V30 2 C 0.1492 0.1571 0.5605 0 CFG=2
M  V30 3 C 2.6279 0.2956 0.3389 0
M  V30 4 C 1.5986 -1.5966 1.4855 0
M  V30 5 C 0.0255 -0.2926 -0.9232 0
M  V30 6 C -0.1984 1.6546 0.7088 0
M  V30 7 C 3.88 0.331 1.1145 0
M  V30 8 C -1.4046 -0.2633 -1.403 0
M  V30 9 C 4.9043 0.3599 1.7493 0
M  V30 10 C -2.2873 -1.299 -1.0528 0
M  V30 11 C -1.877 0.8112 -2.1759 0
M  V30 12 C -3.619 -1.2639 -1.4781 0
M  V30 13 C -3.2095 0.8424 -2.5988 0
M  V30 14 C -4.0795 -0.1945 -2.2511 0
M  V30 15 H 1.5292 0.3434 2.0906 0
M  V30 16 H -0.6366 -0.3804 1.1407 0
M  V30 17 H 2.7763 -0.3739 -0.5364 0
M  V30 18 H 2.4598 1.322 -0.0452 0
M  V30 19 H 2.5041 -1.7872 2.102 0
M  V30 20 H 1.6748 -2.216 0.5675 0
M  V30 21 H 0.7279 -1.9449 2.0832 0
M  V30 22 H 0.4041 -1.327 -1.0486 0
M  V30 23 H 0.6531 0.3541 -1.5742 0
M  V30 24 H 0.4133 2.2849 0.0313 0
M  V30 25 H -0.041 1.9919 1.755 0
M  V30 26 H -1.2682 1.8255 0.4656 0
M  V30 27 H 5.8033 0.3851 2.307 0
M  V30 28 H -1.9436 -2.1305 -0.4497 0
M  V30 29 H -1.2162 1.6255 -2.4464 0
M  V30 30 H -4.2945 -2.0649 -1.2066 0
M  V30 31 H -3.5684 1.6721 -3.1942 0
M  V30 32 H -5.1108 -0.1683 -2.5786 0
M  V30 END ATOM
M  V30 BEGIN BOND
M  V30 1 1 1 2
M  V30 2 1 1 3
M  V30 3 1 1 4
M  V30 4 1 2 5
M  V30 5 1 2 6
M  V30 6 1 3 7
M  V30 7 1 5 8
M  V30 8 3 7 9
M  V30 9 2 8 10
M  V30 10 1 8 11
M  V30 11 1 10 12
M  V30 12 2 11 13
M  V30 13 2 12 14
M  V30 14 1 13 14
M  V30 15 1 1 15
M  V30 16 1 2 16
M  V30 17 1 3 17
M  V30 18 1 3 18
M  V30 19 1 4 19
M  V30 20 1 4 20
M  V30 21 1 4 21
M  V30 22 1 5 22
M  V30 23 1 5 23
M  V30 24 1 6 24
M  V30 25 1 6 25
M  V30 26 1 6 26
M  V30 27 1 9 27
M  V30 28 1 10 28
M  V30 29 1 11 29
M  V30 30 1 12 30
M  V30 31 1 13 31
M  V30 32 1 14 32
M  V30 END BOND
M  V30 BEGIN COLLECTION
M  V30 MDLV30/STEABS ATOMS=(2 1 2)
M  V30 END COLLECTION
M  V30 END CTAB
M  END
>  <Structure No>
8860

>  <LogS>
-2.51

>  <MMFF94 Energy>
25.986

$$$$
Compound 8861
Actelion Java MolfileCreator 2.0

  0  0  0  0  0  0              0 V3000
M  V30 BEGIN CTAB
M  V30 COUNTS 56 58 0 0 0
M  V30 BEGIN ATOM
M  V30 1 S 0.0805 -1.1283 1.6929 0
M  V30 2 C -0.8723 -2.5052 1.0405 0
M  V30 3 C 1.2385 -0.9798 0.2662 0 CFG=2
M  V30 4 C -1.8376 -2.2981 0.0321 0
M  V30 5 C -0.6763 -3.7844 1.5731 0
M  V30 6 C 2.0881 0.2654 0.4383 0
M  V30 7 C 0.5447 -1.0216 -1.1261 0 CFG=2
M  V30 8 N -1.9744 -1.005 -0.5969 0
M  V30 9 C -2.5993 -3.3894 -0.4199 0
M  V30 10 C -1.4434 -4.8592 1.1184 0
M  V30 11 C 1.4974 1.5269 0.6333 0
M  V30 12 C 3.4879 0.1789 0.3481 0
M  V30 13 O 1.4006 -0.4564 -2.124 0
M  V30 14 C -0.8037 -0.3314 -1.1191 0
M  V30 15 C -3.2994 -0.3632 -0.6519 0
M  V30 16 C -2.4055 -4.6613 0.126 0
M  V30 17 C 2.2905 2.6708 0.7528 0
M  V30 18 C 4.2803 1.3244 0.4672 0
M  V30 19 C 1.1929 -0.6129 -3.4988 0
M  V30 20 O -0.8913 0.8513 -1.5492 0
M  V30 21 C -3.7449 0.1298 0.7389 0
M  V30 22 C 3.684 2.5825 0.6721 0
M  V30 23 O 0.2146 -1.2799 -3.9327 0
M  V30 24 C 2.1156 0.0547 -4.4601 0
M  V30 25 N -2.8848 1.2117 1.2794 0 CHG=1
M  V30 26 O 4.4352 3.7605 0.7976 0
M  V30 27 C -3.1768 2.5085 0.6399 0
M  V30 28 C -3.0767 1.3277 2.7358 0
M  V30 29 C 5.8564 3.8181 0.7318 0
M  V30 30 H 1.9019 -1.8712 0.3242 0
M  V30 31 H 0.062 -3.9444 2.3483 0
M  V30 32 H 0.3878 -2.0912 -1.3903 0
M  V30 33 H -3.3193 -3.2662 -1.2178 0
M  V30 34 H -1.2919 -5.8463 1.5356 0
M  V30 35 H 0.423 1.6289 0.6961 0
M  V30 36 H 3.9695 -0.7762 0.1805 0
M  V30 37 H -3.3177 0.4643 -1.3893 0
M  V30 38 H -4.0523 -1.0916 -1.0182 0
M  V30 39 H -2.9927 -5.4976 -0.2307 0
M  V30 40 H 1.8187 3.6333 0.9067 0
M  V30 41 H 5.3543 1.2209 0.3952 0
M  V30 42 H -4.804 0.4685 0.6787 0
M  V30 43 H -3.7369 -0.7512 1.4202 0
M  V30 44 H 1.6493 0.9914 -4.83 0
M  V30 45 H 3.075 0.2996 -3.9576 0
M  V30 46 H 2.3215 -0.6181 -5.3189 0
M  V30 47 H -1.8787 0.9831 1.1167 0
M  V30 48 H -2.9506 2.4767 -0.4452 0
M  V30 49 H -4.2431 2.7944 0.7781 0
M  V30 50 H -2.5372 3.3087 1.0736 0
M  V30 51 H -4.1384 1.5534 2.9823 0
M  V30 52 H -2.7841 0.3816 3.2427 0
M  V30 53 H -2.4324 2.1329 3.1533 0
M  V30 54 H 6.1832 4.8701 0.8628 0
M  V30 55 H 6.3015 3.2038 1.543 0
M  V30 56 H 6.2076 3.457 -0.2579 0
M  V30 END ATOM
M  V30 BEGIN BOND
M  V30 1 1 1 2
M  V30 2 1 1 3
M  V30 3 2 2 4
M  V30 4 1 2 5
M  V30 5 1 3 6
M  V30 6 1 3 7
M  V30 7 1 4 8
M  V30 8 1 4 9
M  V30 9 2 5 10
M  V30 10 2 6 11
M  V30 11 1 6 12
M  V30 12 1 7 13
M  V30 13 1 7 14
M  V30 14 1 8 15
M  V30 15 2 9 16
M  V30 16 1 11 17
M  V30 17 2 12 18
M  V30 18 1 13 19
M  V30 19 2 14 20
M  V30 20 1 15 21
M  V30 21 2 17 22
M  V30 22 2 19 23
M  V30 23 1 19 24
M  V30 24 1 21 25
M  V30 25 1 22 26
M  V30 26 1 25 27
M  V30 27 1 25 28
M  V30 28 1 26 29
M  V30 29 1 8 14
M  V30 30 1 10 16
M  V30 31 1 18 22
M  V30 32 1 3 30
M  V30 33 1 5 31
M  V30 34 1 7 32
M  V30 35 1 9 33
M  V30 36 1 10 34
M  V30 37 1 11 35
M  V30 38 1 12 36
M  V30 39 1 15 37
M  V30 40 1 15 38
M  V30 41 1 16 39
M  V30 42 1 17 40
M  V30 43 1 18 41
M  V30 44 1 21 42
M  V30 45 1 21 43
M  V30 46 1 24 44
M  V30 47 1 24 45
M  V30 48 1 24 46
M  V30 49 1 25 47
M  V30 50 1 27 48
M  V30 51 1 27 49
M  V30 52 1 27 50
M  V30 53 1 28 51
M  V30 54 1 28 52
M  V30 55 1 28 53
M  V30 56 1 29 54
M  V30 57 1 29 55
M  V30 58 1 29 56
M  V30 END BOND
M  V30 BEGIN COLLECTION
M  V30 MDLV30/STEABS ATOMS=(2 3 7)
M  V30 END COLLECTION
M  V30 END CTAB
M  END
>  <Structure No>
8861

>  <LogS>
-3.16

>  <MMFF94 Energy>
85.58

$$$$
Compound 8862
Actelion Java MolfileCreator 2.0

  0  0  0  0  0  0              0 V3000
M  V30 BEGIN CTAB
M  V30 COUNTS 41 42 0 0 0
M  V30 BEGIN ATOM
M  V30 1 O 0.3925 0.3925 0.8638 0
M  V30 2 C -0.6674 0.1014 -0.0352 0
M  V30 3 C 1.5711 -0.3195 0.5296 0
M  V30 4 C -1.3594 -1.1928 0.3414 0
M  V30 5 C -1.6769 1.2268 -0.0108 0
M  V30 6 C 2.5107 0.5775 -0.2943 0
M  V30 7 C -1.5662 -1.5373 1.6903 0
M  V30 8 C -1.8543 -2.0415 -0.6641 0
M  V30 9 C -2.0075 1.8782 1.1931 0
M  V30 10 C -2.3519 1.5913 -1.1902 0
M  V30 11 N 3.6708 -0.1647 -0.8429 0 CHG=1
M  V30 12 C -2.2339 -2.7198 2.0226 0
M  V30 13 C -2.5215 -3.2228 -0.3267 0
M  V30 14 C -2.9717 2.8907 1.2075 0
M  V30 15 C -3.3153 2.6044 -1.1701 0
M  V30 16 C 4.3748 0.6702 -1.8324 0
M  V30 17 C 4.6112 -0.5701 0.2189 0
M  V30 18 C -2.7094 -3.5628 1.0152 0
M  V30 19 C -3.6232 3.2552 0.027 0
M  V30 20 H -0.277 0.0251 -1.0792 0
M  V30 21 H 1.3699 -1.2774 -0.0056 0
M  V30 22 H 2.071 -0.59 1.4819 0
M  V30 23 H 1.9153 1.0095 -1.1298 0
M  V30 24 H 2.8509 1.4298 0.337 0
M  V30 25 H -1.2109 -0.8933 2.4845 0
M  V30 26 H -1.7251 -1.788 -1.7089 0
M  V30 27 H -1.522 1.6036 2.1207 0
M  V30 28 H -2.1347 1.0896 -2.1249 0
M  V30 29 H 3.3316 -1.0246 -1.3364 0
M  V30 30 H -2.3853 -2.9813 3.0619 0
M  V30 31 H -2.8962 -3.8735 -1.1062 0
M  V30 32 H -3.2169 3.3902 2.1359 0
M  V30 33 H -3.8266 2.8821 -2.0826 0
M  V30 34 H 3.6945 0.94 -2.67 0
M  V30 35 H 4.7571 1.6058 -1.3661 0
M  V30 36 H 5.2313 0.1148 -2.2745 0
M  V30 37 H 4.9325 0.3043 0.8272 0
M  V30 38 H 4.1491 -1.3277 0.886 0
M  V30 39 H 5.5152 -1.0473 -0.2193 0
M  V30 40 H -3.2271 -4.4772 1.2744 0
M  V30 41 H -4.3704 4.0381 0.0407 0
M  V30 END ATOM
M  V30 BEGIN BOND
M  V30 1 1 1 2
M  V30 2 1 1 3
M  V30 3 1 2 4
M  V30 4 1 2 5
M  V30 5 1 3 6
M  V30 6 2 4 7
M  V30 7 1 4 8
M  V30 8 2 5 9
M  V30 9 1 5 10
M  V30 10 1 6 11
M  V30 11 1 7 12
M  V30 12 2 8 13
M  V30 13 1 9 14
M  V30 14 2 10 15
M  V30 15 1 11 16
M  V30 16 1 11 17
M  V30 17 2 12 18
M  V30 18 2 14 19
M  V30 19 1 13 18
M  V30 20 1 15 19
M  V30 21 1 2 20
M  V30 22 1 3 21
M  V30 23 1 3 22
M  V30 24 1 6 23
M  V30 25 1 6 24
M  V30 26 1 7 25
M  V30 27 1 8 26
M  V30 28 1 9 27
M  V30 29 1 10 28
M  V30 30 1 11 29
M  V30 31 1 12 30
M  V30 32 1 13 31
M  V30 33 1 14 32
M  V30 34 1 15 33
M  V30 35 1 16 34
M  V30 36 1 16 35
M  V30 37 1 16 36
M  V30 38 1 17 37
M  V30 39 1 17 38
M  V30 40 1 17 39
M  V30 41 1 18 40
M  V30 42 1 19 41
M  V30 END BOND
M  V30 END CTAB
M  END
>  <Structure No>
8862

>  <LogS>
-2.95

>  <MMFF94 Energy>
74.724

$$$$
Compound 8863
Actelion Java MolfileCreator 2.0

  0  0  0  0  0  0              0 V3000
M  V30 BEGIN CTAB
M  V30 COUNTS 36 36 0 0 0
M  V30 BEGIN ATOM
M  V30 1 S 4.221 1.0747 -0.0826 0
M  V30 2 O 5.2836 0.0123 -0.0428 0
M  V30 3 O 4.3305 1.8273 -1.3785 0
M  V30 4 N 2.6541 0.3406 0.0159 0
M  V30 5 N 4.4341 2.1762 1.2332 0
M  V30 6 C 2.2955 -0.5717 1.0619 0
M  V30 7 N 3.1718 -0.9223 1.9511 0
M  V30 8 C 0.9187 -1.1751 1.0763 0
M  V30 9 C 0.8887 -2.4602 0.2495 0
M  V30 10 S -0.8122 -3.1358 0.1972 0
M  V30 11 C -1.2105 -2.6262 -1.5138 0
M  V30 12 C -1.2923 -1.1355 -1.6232 0
M  V30 13 N -2.2143 -0.4177 -0.9264 0
M  V30 14 C -0.427 -0.3795 -2.4124 0
M  V30 15 C -2.0791 0.9083 -1.1438 0
M  V30 16 S -0.8368 1.2413 -2.2245 0
M  V30 17 N -2.9317 1.9059 -0.5691 0
M  V30 18 C -3.8532 1.6509 0.5031 0
M  V30 19 N -3.5662 0.8029 1.4457 0 CHG=1
M  V30 20 N -5.0692 2.4004 0.5686 0
M  V30 21 H 1.9516 0.5837 -0.7172 0
M  V30 22 H 4.4369 1.6106 2.1111 0
M  V30 23 H 5.3904 2.5854 1.1368 0
M  V30 24 H 2.9491 -1.606 2.709 0
M  V30 25 H 0.1961 -0.4399 0.665 0
M  V30 26 H 0.6088 -1.3956 2.1212 0
M  V30 27 H 1.5433 -3.2181 0.7302 0
M  V30 28 H 1.2833 -2.2727 -0.772 0
M  V30 29 H -0.4561 -3.0398 -2.2169 0
M  V30 30 H -2.1964 -3.0571 -1.7861 0
M  V30 31 H 0.3731 -0.7637 -3.0309 0
M  V30 32 H -2.945 2.8503 -1.0153 0
M  V30 33 H -4.2327 0.6343 2.2321 0
M  V30 34 H -2.6525 0.2998 1.4718 0
M  V30 35 H -5.7465 2.2602 1.3511 0
M  V30 36 H -5.2993 3.0966 -0.1743 0
M  V30 END ATOM
M  V30 BEGIN BOND
M  V30 1 2 1 2
M  V30 2 2 1 3
M  V30 3 1 1 4
M  V30 4 1 1 5
M  V30 5 1 4 6
M  V30 6 2 6 7
M  V30 7 1 6 8
M  V30 8 1 8 9
M  V30 9 1 9 10
M  V30 10 1 10 11
M  V30 11 1 11 12
M  V30 12 1 12 13
M  V30 13 2 12 14
M  V30 14 2 13 15
M  V30 15 1 14 16
M  V30 16 1 15 17
M  V30 17 1 17 18
M  V30 18 2 18 19
M  V30 19 1 18 20
M  V30 20 1 15 16
M  V30 21 1 4 21
M  V30 22 1 5 22
M  V30 23 1 5 23
M  V30 24 1 7 24
M  V30 25 1 8 25
M  V30 26 1 8 26
M  V30 27 1 9 27
M  V30 28 1 9 28
M  V30 29 1 11 29
M  V30 30 1 11 30
M  V30 31 1 14 31
M  V30 32 1 17 32
M  V30 33 1 19 33
M  V30 34 1 19 34
M  V30 35 1 20 35
M  V30 36 1 20 36
M  V30 END BOND
M  V30 END CTAB
M  END
>  <Structure No>
8863

>  <LogS>
-2.65

>  <MMFF94 Energy>
-449.72

$$$$
Compound 8864
Actelion Java MolfileCreator 2.0

  0  0  0  0  0  0              0 V3000
M  V30 BEGIN CTAB
M  V30 COUNTS 31 32 0 0 0
M  V30 BEGIN ATOM
M  V30 1 O -4.4932 0.6409 -1.0417 0
M  V30 2 C -3.5126 1.0969 -0.3946 0
M  V30 3 O -3.0657 2.3867 -0.6532 0 CHG=-1
M  V30 4 C -2.7851 0.2439 0.6097 0 CFG=2
M  V30 5 C -1.7381 -0.6123 -0.0746 0
M  V30 6 C -3.751 -0.6122 1.4392 0
M  V30 7 C -0.3797 -0.4637 0.2588 0
M  V30 8 C -2.1021 -1.5699 -1.04 0
M  V30 9 C 0.6036 -1.246 -0.374 0
M  V30 10 C -1.1284 -2.3627 -1.6511 0
M  V30 11 O 1.9643 -1.1259 -0.055 0
M  V30 12 C 0.2173 -2.2053 -1.315 0
M  V30 13 C 2.6042 0.0566 0.3449 0
M  V30 14 C 2.189 1.3209 -0.1147 0
M  V30 15 C 3.7179 -0.0334 1.1894 0
M  V30 16 C 2.8639 2.475 0.2955 0
M  V30 17 C 4.391 1.1224 1.5983 0
M  V30 18 C 3.9619 2.3762 1.1545 0
M  V30 19 H -2.2875 0.9372 1.3239 0
M  V30 20 H -4.4743 0.0409 1.973 0
M  V30 21 H -4.3184 -1.3193 0.7977 0
M  V30 22 H -3.1845 -1.1953 2.1966 0
M  V30 23 H -0.089 0.2463 1.0224 0
M  V30 24 H -3.1394 -1.7079 -1.3164 0
M  V30 25 H -1.4179 -3.1017 -2.3871 0
M  V30 26 H 0.9648 -2.8249 -1.7938 0
M  V30 27 H 1.3588 1.4136 -0.8025 0
M  V30 28 H 4.0573 -1.0014 1.5357 0
M  V30 29 H 2.5401 3.4454 -0.0582 0
M  V30 30 H 5.2459 1.0457 2.2575 0
M  V30 31 H 4.4842 3.2702 1.4701 0
M  V30 END ATOM
M  V30 BEGIN BOND
M  V30 1 2 1 2
M  V30 2 1 2 3
M  V30 3 1 2 4
M  V30 4 1 4 5
M  V30 5 1 4 6
M  V30 6 2 5 7
M  V30 7 1 5 8
M  V30 8 1 7 9
M  V30 9 2 8 10
M  V30 10 1 9 11
M  V30 11 2 9 12
M  V30 12 1 11 13
M  V30 13 2 13 14
M  V30 14 1 13 15
M  V30 15 1 14 16
M  V30 16 2 15 17
M  V30 17 2 16 18
M  V30 18 1 10 12
M  V30 19 1 17 18
M  V30 20 1 4 19
M  V30 21 1 6 20
M  V30 22 1 6 21
M  V30 23 1 6 22
M  V30 24 1 7 23
M  V30 25 1 8 24
M  V30 26 1 10 25
M  V30 27 1 12 26
M  V30 28 1 14 27
M  V30 29 1 15 28
M  V30 30 1 16 29
M  V30 31 1 17 30
M  V30 32 1 18 31
M  V30 END BOND
M  V30 BEGIN COLLECTION
M  V30 MDLV30/STEABS ATOMS=(1 4)
M  V30 END COLLECTION
M  V30 END CTAB
M  END
>  <Structure No>
8864

>  <LogS>
-3.7

>  <MMFF94 Energy>
79

$$$$
Compound 8865
Actelion Java MolfileCreator 2.0

  0  0  0  0  0  0              0 V3000
M  V30 BEGIN CTAB
M  V30 COUNTS 57 59 0 0 0
M  V30 BEGIN ATOM
M  V30 1 S -2.7676 -1.0575 -3.6642 0
M  V30 2 O -2.906 -2.5073 -4.0358 0
M  V30 3 O -2.631 -0.2498 -4.9237 0
M  V30 4 N -4.1797 -0.545 -2.8053 0 CHG=-1
M  V30 5 C -1.3457 -0.8019 -2.6582 0
M  V30 6 C -4.5682 -1.124 -1.5586 0
M  V30 7 C -0.6575 -1.8893 -2.1027 0
M  V30 8 C -0.9122 0.5025 -2.3884 0
M  V30 9 O -3.9136 -2.0878 -1.0767 0
M  V30 10 N -5.7067 -0.6011 -0.8637 0
M  V30 11 C 0.457 -1.6732 -1.2867 0
M  V30 12 C 0.202 0.72 -1.5729 0
M  V30 13 C -6.1209 -1.0961 0.4566 0
M  V30 14 C 0.8876 -0.3663 -1.0067 0
M  V30 15 C -5.1315 -0.6262 1.5395 0
M  V30 16 C -7.567 -0.6428 0.7949 0
M  V30 17 C 2.1043 -0.1335 -0.1517 0
M  V30 18 C -5.1036 0.9094 1.6754 0
M  V30 19 C -7.6383 0.6346 1.6585 0
M  V30 20 C 3.3682 -0.0737 -1.0149 0
M  V30 21 C -6.4632 1.5788 1.3863 0
M  V30 22 N 4.5542 0.1525 -0.1887 0
M  V30 23 C 5.8608 0.2602 -0.7742 0
M  V30 24 O 5.9936 0.1704 -2.0258 0
M  V30 25 C 7.0517 0.4749 0.0767 0
M  V30 26 N 6.9155 0.565 1.4281 0
M  V30 27 C 8.3357 0.5889 -0.4798 0
M  V30 28 C 7.9853 0.7591 2.2425 0
M  V30 29 N 9.4056 0.7833 0.335 0
M  V30 30 C 9.2635 0.8661 1.6848 0
M  V30 31 C 10.4588 1.0963 2.553 0
M  V30 32 H -0.9821 -2.9034 -2.2966 0
M  V30 33 H -1.4379 1.3506 -2.8089 0
M  V30 34 H -6.26 0.1476 -1.3384 0
M  V30 35 H 0.983 -2.5239 -0.8715 0
M  V30 36 H 0.5296 1.7346 -1.3817 0
M  V30 37 H -6.1157 -2.2085 0.4301 0
M  V30 38 H -4.1076 -0.9966 1.3196 0
M  V30 39 H -5.4339 -1.0722 2.5129 0
M  V30 40 H -8.1497 -0.4922 -0.1402 0
M  V30 41 H -8.079 -1.4596 1.3499 0
M  V30 42 H 2.2028 -0.9505 0.5967 0
M  V30 43 H 1.993 0.8202 0.4103 0
M  V30 44 H -4.7778 1.1677 2.7068 0
M  V30 45 H -4.3447 1.3256 0.9768 0
M  V30 46 H -7.63 0.3554 2.7354 0
M  V30 47 H -8.5951 1.1641 1.4589 0
M  V30 48 H 3.2736 0.7542 -1.7519 0
M  V30 49 H 3.4855 -1.0325 -1.5667 0
M  V30 50 H -6.5671 2.4896 2.0154 0
M  V30 51 H -6.5016 1.9064 0.3248 0
M  V30 52 H 4.4496 0.2378 0.8481 0
M  V30 53 H 8.4899 0.5255 -1.5493 0
M  V30 54 H 7.8402 0.829 3.3127 0
M  V30 55 H 11.3936 1.0195 1.9576 0
M  V30 56 H 10.4902 0.3362 3.3622 0
M  V30 57 H 10.4021 2.1093 3.0042 0
M  V30 END ATOM
M  V30 BEGIN BOND
M  V30 1 2 1 2
M  V30 2 2 1 3
M  V30 3 1 1 4
M  V30 4 1 1 5
M  V30 5 1 4 6
M  V30 6 2 5 7
M  V30 7 1 5 8
M  V30 8 2 6 9
M  V30 9 1 6 10
M  V30 10 1 7 11
M  V30 11 2 8 12
M  V30 12 1 10 13
M  V30 13 2 11 14
M  V30 14 1 13 15
M  V30 15 1 13 16
M  V30 16 1 14 17
M  V30 17 1 15 18
M  V30 18 1 16 19
M  V30 19 1 17 20
M  V30 20 1 18 21
M  V30 21 1 20 22
M  V30 22 1 22 23
M  V30 23 2 23 24
M  V30 24 1 23 25
M  V30 25 2 25 26
M  V30 26 1 25 27
M  V30 27 1 26 28
M  V30 28 2 27 29
M  V30 29 2 28 30
M  V30 30 1 30 31
M  V30 31 1 12 14
M  V30 32 1 19 21
M  V30 33 1 29 30
M  V30 34 1 7 32
M  V30 35 1 8 33
M  V30 36 1 10 34
M  V30 37 1 11 35
M  V30 38 1 12 36
M  V30 39 1 13 37
M  V30 40 1 15 38
M  V30 41 1 15 39
M  V30 42 1 16 40
M  V30 43 1 16 41
M  V30 44 1 17 42
M  V30 45 1 17 43
M  V30 46 1 18 44
M  V30 47 1 18 45
M  V30 48 1 19 46
M  V30 49 1 19 47
M  V30 50 1 20 48
M  V30 51 1 20 49
M  V30 52 1 21 50
M  V30 53 1 21 51
M  V30 54 1 22 52
M  V30 55 1 27 53
M  V30 56 1 28 54
M  V30 57 1 31 55
M  V30 58 1 31 56
M  V30 59 1 31 57
M  V30 END BOND
M  V30 END CTAB
M  END
>  <Structure No>
8865

>  <LogS>
-5.49

>  <MMFF94 Energy>
78.407

$$$$
Compound 8866
Actelion Java MolfileCreator 2.0

  0  0  0  0  0  0              0 V3000
M  V30 BEGIN CTAB
M  V30 COUNTS 16 17 0 0 0
M  V30 BEGIN ATOM
M  V30 1 O 0.2377 -1.9825 1.7444 0
M  V30 2 C -0.0064 -1.0506 0.9323 0
M  V30 3 N -1.2922 -0.6599 0.676 0
M  V30 4 C 1.015 -0.387 0.269 0
M  V30 5 C -1.5611 0.3579 -0.2107 0
M  V30 6 N 2.3402 -0.5594 0.3285 0
M  V30 7 C 0.7318 0.6091 -0.5974 0
M  V30 8 N -0.5384 1.0008 -0.8557 0
M  V30 9 N -2.9101 0.7503 -0.4641 0
M  V30 10 C 2.8231 0.3707 -0.5338 0
M  V30 11 N 1.8545 1.1188 -1.131 0
M  V30 12 H -2.081 -1.1434 1.1626 0
M  V30 13 H 2.8795 -1.2459 0.9013 0
M  V30 14 H -3.1171 1.5221 -1.1364 0
M  V30 15 H -3.7041 0.2728 0.0173 0
M  V30 16 H 3.8786 0.5061 -0.7293 0
M  V30 END ATOM
M  V30 BEGIN BOND
M  V30 1 2 1 2
M  V30 2 1 2 3
M  V30 3 1 2 4
M  V30 4 1 3 5
M  V30 5 1 4 6
M  V30 6 2 4 7
M  V30 7 2 5 8
M  V30 8 1 5 9
M  V30 9 1 6 10
M  V30 10 1 7 11
M  V30 11 1 7 8
M  V30 12 2 10 11
M  V30 13 1 3 12
M  V30 14 1 6 13
M  V30 15 1 9 14
M  V30 16 1 9 15
M  V30 17 1 10 16
M  V30 END BOND
M  V30 END CTAB
M  END
>  <Structure No>
8866

>  <LogS>
-4.43

>  <MMFF94 Energy>
-161.62

$$$$
Compound 8867
Actelion Java MolfileCreator 2.0

  0  0  0  0  0  0              0 V3000
M  V30 BEGIN CTAB
M  V30 COUNTS 28 29 0 0 0
M  V30 BEGIN ATOM
M  V30 1 S -2.3317 1.7268 -0.1725 0
M  V30 2 O -2.376 2.2841 -1.5673 0
M  V30 3 O -2.1893 2.8467 0.8196 0
M  V30 4 N -3.7943 0.8528 0.1533 0
M  V30 5 C -0.9876 0.612 -0.0163 0
M  V30 6 C -3.7015 -0.4675 -0.4727 0
M  V30 7 C -1.2484 -0.7533 0.1269 0
M  V30 8 C 0.3256 1.0826 -0.0081 0
M  V30 9 N -2.5984 -1.2462 0.0965 0
M  V30 10 C -0.1841 -1.6401 0.322 0
M  V30 11 C 1.4066 0.2013 0.1546 0
M  V30 12 C 1.1507 -1.1846 0.3627 0
M  V30 13 S 3.0424 0.8916 0.12 0
M  V30 14 C 2.2622 -2.2001 0.5613 0
M  V30 15 O 3.9641 0.028 -0.6936 0
M  V30 16 O 3.5664 1.0072 1.5235 0
M  V30 17 N 3.0131 2.4675 -0.5943 0
M  V30 18 F 1.7716 -3.4013 1.0449 0
M  V30 19 F 2.8848 -2.4448 -0.648 0
M  V30 20 F 3.1905 -1.7392 1.4753 0
M  V30 21 H -3.8571 0.719 1.189 0
M  V30 22 H -3.5555 -0.3599 -1.5697 0
M  V30 23 H -4.6576 -1.0114 -0.3156 0
M  V30 24 H 0.4986 2.1443 -0.1242 0
M  V30 25 H -2.7975 -2.2175 0.4269 0
M  V30 26 H -0.4089 -2.6931 0.433 0
M  V30 27 H 2.7408 2.3447 -1.5954 0
M  V30 28 H 3.9952 2.8233 -0.5912 0
M  V30 END ATOM
M  V30 BEGIN BOND
M  V30 1 2 1 2
M  V30 2 2 1 3
M  V30 3 1 1 4
M  V30 4 1 1 5
M  V30 5 1 4 6
M  V30 6 2 5 7
M  V30 7 1 5 8
M  V30 8 1 6 9
M  V30 9 1 7 10
M  V30 10 2 8 11
M  V30 11 2 10 12
M  V30 12 1 11 13
M  V30 13 1 12 14
M  V30 14 2 13 15
M  V30 15 2 13 16
M  V30 16 1 13 17
M  V30 17 1 14 18
M  V30 18 1 14 19
M  V30 19 1 14 20
M  V30 20 1 7 9
M  V30 21 1 11 12
M  V30 22 1 4 21
M  V30 23 1 6 22
M  V30 24 1 6 23
M  V30 25 1 8 24
M  V30 26 1 9 25
M  V30 27 1 10 26
M  V30 28 1 17 27
M  V30 29 1 17 28
M  V30 END BOND
M  V30 END CTAB
M  END
>  <Structure No>
8867

>  <LogS>
-2.97

>  <MMFF94 Energy>
-222.98

$$$$
Compound 8868
Actelion Java MolfileCreator 2.0

  0  0  0  0  0  0              0 V3000
M  V30 BEGIN CTAB
M  V30 COUNTS 28 29 0 0 0
M  V30 BEGIN ATOM
M  V30 1 O 1.2877 -3.3023 0.1608 0
M  V30 2 C 1.1508 -2.0756 -0.1027 0
M  V30 3 C 2.2099 -1.3483 -0.6809 0
M  V30 4 C -0.0637 -1.4303 0.1855 0
M  V30 5 C 3.5195 -1.981 -0.9961 0
M  V30 6 C 2.0131 0.0152 -0.9608 0
M  V30 7 C -0.2089 -0.0578 -0.1173 0
M  V30 8 C -1.1439 -2.1118 0.7743 0
M  V30 9 O 4.4455 -1.3037 -1.5169 0
M  V30 10 O 3.7509 -3.3246 -0.7251 0 CHG=-1
M  V30 11 N 0.8235 0.6354 -0.6957 0
M  V30 12 N -1.385 0.569 0.174 0
M  V30 13 C -2.3304 -1.4352 1.0546 0
M  V30 14 C 0.6964 2.0726 -0.9949 0
M  V30 15 C -2.4356 -0.0758 0.7476 0
M  V30 16 C 1.0613 2.9067 0.2288 0
M  V30 17 C -3.6992 0.6697 1.036 0
M  V30 18 H 2.8244 0.5879 -1.3958 0
M  V30 19 H -1.0739 -3.1642 1.0204 0
M  V30 20 H -3.1592 -1.9645 1.5082 0
M  V30 21 H 1.361 2.3584 -1.8402 0
M  V30 22 H -0.3379 2.3191 -1.3196 0
M  V30 23 H 2.1076 2.6956 0.5354 0
M  V30 24 H 0.9694 3.9862 -0.0135 0
M  V30 25 H 0.3793 2.6701 1.0726 0
M  V30 26 H -3.9444 0.591 2.1161 0
M  V30 27 H -3.5875 1.7432 0.7738 0
M  V30 28 H -4.5313 0.2407 0.439 0
M  V30 END ATOM
M  V30 BEGIN BOND
M  V30 1 2 1 2
M  V30 2 1 2 3
M  V30 3 1 2 4
M  V30 4 1 3 5
M  V30 5 2 3 6
M  V30 6 2 4 7
M  V30 7 1 4 8
M  V30 8 2 5 9
M  V30 9 1 5 10
M  V30 10 1 6 11
M  V30 11 1 7 12
M  V30 12 2 8 13
M  V30 13 1 11 14
M  V30 14 2 12 15
M  V30 15 1 14 16
M  V30 16 1 15 17
M  V30 17 1 7 11
M  V30 18 1 13 15
M  V30 19 1 6 18
M  V30 20 1 8 19
M  V30 21 1 13 20
M  V30 22 1 14 21
M  V30 23 1 14 22
M  V30 24 1 16 23
M  V30 25 1 16 24
M  V30 26 1 16 25
M  V30 27 1 17 26
M  V30 28 1 17 27
M  V30 29 1 17 28
M  V30 END BOND
M  V30 END CTAB
M  END
>  <Structure No>
8868

>  <LogS>
-3.61

>  <MMFF94 Energy>
22.193

$$$$
Compound 8869
Actelion Java MolfileCreator 2.0

  0  0  0  0  0  0              0 V3000
M  V30 BEGIN CTAB
M  V30 COUNTS 46 50 0 0 0
M  V30 BEGIN ATOM
M  V30 1 O -3.7484 -2.9326 0.3255 0
M  V30 2 C -2.7164 -2.3348 0.0605 0
M  V30 3 C -2.231 -1.2807 1.0386 0 CFG=2
M  V30 4 C -1.979 -2.7188 -1.2005 0
M  V30 5 O -3.2079 -0.2326 1.1047 0
M  V30 6 C -0.8948 -0.5578 0.6249 0 CFG=2
M  V30 7 C -0.9634 -1.6676 -1.6545 0
M  V30 8 C -2.7413 0.891 0.4541 0
M  V30 9 C -1.4396 0.7334 0.091 0
M  V30 10 C -0.0494 -1.2326 -0.4794 0 CFG=2
M  V30 11 C -0.0066 -0.2523 1.8743 0
M  V30 12 C -3.4738 2.0125 0.0679 0
M  V30 13 C -0.8438 1.5588 -0.8662 0
M  V30 14 O 0.57 -2.391 0.0352 0
M  V30 15 C 1.0383 -0.1582 -0.8917 0 CFG=1
M  V30 16 C 1.5113 -0.2591 1.5883 0
M  V30 17 O -4.7901 2.1772 0.4914 0
M  V30 18 C -2.8533 2.9467 -0.7875 0
M  V30 19 C -1.5561 2.6985 -1.2872 0
M  V30 20 C 0.3772 1.0649 -1.6078 0
M  V30 21 N 1.86 0.3437 0.2756 0 CHG=1 CFG=1
M  V30 22 C 3.3084 0.1723 -0.007 0
M  V30 23 C 4.1869 0.964 0.9345 0
M  V30 24 C 5.5161 0.8484 0.8897 0
M  V30 25 H -2.1516 -1.7637 2.0357 0
M  V30 26 H -2.715 -2.8687 -2.0203 0
M  V30 27 H -1.467 -3.6904 -1.0315 0
M  V30 28 H -1.5281 -0.8142 -2.0838 0
M  V30 29 H -0.3441 -2.0933 -2.4736 0
M  V30 30 H -0.1769 -1.0098 2.669 0
M  V30 31 H -0.285 0.7269 2.3259 0
M  V30 32 H 1.1848 -2.7404 -0.6618 0
M  V30 33 H 1.6862 -0.6493 -1.6549 0
M  V30 34 H 2.0014 0.3038 2.4132 0
M  V30 35 H 1.908 -1.2947 1.6679 0
M  V30 36 H -5.3378 2.9813 0.2082 0
M  V30 37 H -3.3962 3.8215 -1.1215 0
M  V30 38 H -1.1336 3.3607 -2.0322 0
M  V30 39 H 0.0749 0.7721 -2.6359 0
M  V30 40 H 1.1104 1.8924 -1.7248 0
M  V30 41 H 1.6995 1.3728 0.3995 0
M  V30 42 H 3.5401 0.5325 -1.0353 0
M  V30 43 H 3.5841 -0.9057 0.0413 0
M  V30 44 H 3.7478 1.6516 1.6513 0
M  V30 45 H 5.9943 0.1782 0.1816 0
M  V30 46 H 6.1354 1.4286 1.5663 0
M  V30 END ATOM
M  V30 BEGIN BOND
M  V30 1 2 1 2
M  V30 2 1 2 3
M  V30 3 1 2 4
M  V30 4 1 3 5
M  V30 5 1 3 6
M  V30 6 1 4 7
M  V30 7 1 5 8
M  V30 8 1 6 9
M  V30 9 1 6 10
M  V30 10 1 6 11
M  V30 11 1 8 12
M  V30 12 1 9 13
M  V30 13 1 10 14
M  V30 14 1 10 15
M  V30 15 1 11 16
M  V30 16 1 12 17
M  V30 17 2 12 18
M  V30 18 2 13 19
M  V30 19 1 13 20
M  V30 20 1 15 21
M  V30 21 1 21 22
M  V30 22 1 22 23
M  V30 23 2 23 24
M  V30 24 1 7 10
M  V30 25 2 8 9
M  V30 26 1 15 20
M  V30 27 1 16 21
M  V30 28 1 18 19
M  V30 29 1 3 25
M  V30 30 1 4 26
M  V30 31 1 4 27
M  V30 32 1 7 28
M  V30 33 1 7 29
M  V30 34 1 11 30
M  V30 35 1 11 31
M  V30 36 1 14 32
M  V30 37 1 15 33
M  V30 38 1 16 34
M  V30 39 1 16 35
M  V30 40 1 17 36
M  V30 41 1 18 37
M  V30 42 1 19 38
M  V30 43 1 20 39
M  V30 44 1 20 40
M  V30 45 1 21 41
M  V30 46 1 22 42
M  V30 47 1 22 43
M  V30 48 1 23 44
M  V30 49 1 24 45
M  V30 50 1 24 46
M  V30 END BOND
M  V30 BEGIN COLLECTION
M  V30 MDLV30/STEABS ATOMS=(5 3 6 10 15 21)
M  V30 END COLLECTION
M  V30 END CTAB
M  END
>  <Structure No>
8869

>  <LogS>
-2.9

>  <MMFF94 Energy>
96.261

$$$$
Compound 8870
Actelion Java MolfileCreator 2.0

  0  0  0  0  0  0              0 V3000
M  V30 BEGIN CTAB
M  V30 COUNTS 30 31 0 0 0
M  V30 BEGIN ATOM
M  V30 1 O -3.7718 1.6839 1.4432 0
M  V30 2 C -3.8361 1.4969 0.1986 0
M  V30 3 O -4.204 2.5493 -0.6304 0 CHG=-1
M  V30 4 C -3.4648 0.1683 -0.4038 0 CFG=1
M  V30 5 C -1.968 0.0819 -0.629 0
M  V30 6 C -3.9695 -1.0057 0.4451 0
M  V30 7 C -1.0667 0.1652 0.4497 0
M  V30 8 C -1.4632 -0.09 -1.9295 0
M  V30 9 C 0.3167 0.0804 0.2315 0
M  V30 10 C -0.0869 -0.1753 -2.1544 0
M  V30 11 C 0.8108 -0.0912 -1.0815 0
M  V30 12 C 1.2155 0.1641 1.3044 0
M  V30 13 C 2.1945 -0.176 -1.2986 0
M  V30 14 C 2.592 0.0786 1.0788 0
M  V30 15 C 3.0911 -0.0921 -0.2265 0
M  V30 16 O 4.4642 -0.1829 -0.4998 0
M  V30 17 C 5.4872 -0.114 0.4882 0
M  V30 18 H -3.9909 0.0976 -1.382 0
M  V30 19 H -5.0743 -0.9502 0.5509 0
M  V30 20 H -3.5156 -0.9973 1.4588 0
M  V30 21 H -3.7155 -1.9673 -0.0501 0
M  V30 22 H -1.4428 0.2967 1.4572 0
M  V30 23 H -2.1357 -0.1589 -2.7755 0
M  V30 24 H 0.2747 -0.3074 -3.1672 0
M  V30 25 H 0.8543 0.2957 2.3177 0
M  V30 26 H 2.5826 -0.3076 -2.302 0
M  V30 27 H 3.2599 0.1468 1.9266 0
M  V30 28 H 6.4754 -0.2133 -0.0057 0
M  V30 29 H 5.3695 -0.9427 1.218 0
M  V30 30 H 5.4479 0.8649 1.0112 0
M  V30 END ATOM
M  V30 BEGIN BOND
M  V30 1 2 1 2
M  V30 2 1 2 3
M  V30 3 1 2 4
M  V30 4 1 4 5
M  V30 5 1 4 6
M  V30 6 2 5 7
M  V30 7 1 5 8
M  V30 8 1 7 9
M  V30 9 2 8 10
M  V30 10 1 9 11
M  V30 11 2 9 12
M  V30 12 2 11 13
M  V30 13 1 12 14
M  V30 14 1 13 15
M  V30 15 1 15 16
M  V30 16 1 16 17
M  V30 17 1 10 11
M  V30 18 2 14 15
M  V30 19 1 4 18
M  V30 20 1 6 19
M  V30 21 1 6 20
M  V30 22 1 6 21
M  V30 23 1 7 22
M  V30 24 1 8 23
M  V30 25 1 10 24
M  V30 26 1 12 25
M  V30 27 1 13 26
M  V30 28 1 14 27
M  V30 29 1 17 28
M  V30 30 1 17 29
M  V30 31 1 17 30
M  V30 END BOND
M  V30 BEGIN COLLECTION
M  V30 MDLV30/STEABS ATOMS=(1 4)
M  V30 END COLLECTION
M  V30 END CTAB
M  END
>  <Structure No>
8870

>  <LogS>
-4.5

>  <MMFF94 Energy>
69.832

$$$$
Compound 8871
Actelion Java MolfileCreator 2.0

  0  0  0  0  0  0              0 V3000
M  V30 BEGIN CTAB
M  V30 COUNTS 42 44 0 0 0
M  V30 BEGIN ATOM
M  V30 1 N 4.0456 -0.0792 -0.2376 0 CHG=1
M  V30 2 C 3.0819 -0.6244 -1.2075 0
M  V30 3 C 5.3103 0.2557 -0.8966 0
M  V30 4 C 1.7544 -1.0026 -0.5321 0
M  V30 5 C 0.9536 0.21 -0.1242 0
M  V30 6 C -0.2824 0.1355 0.4104 0
M  V30 7 C -1.0438 1.3828 0.6938 0
M  V30 8 C -0.9307 -1.1686 0.6525 0
M  V30 9 C -2.4037 1.5891 0.2971 0
M  V30 10 C -0.3784 2.4052 1.4022 0
M  V30 11 C -2.0403 -1.5436 -0.1188 0
M  V30 12 C -0.455 -2.0274 1.656 0
M  V30 13 C -3.0273 2.8054 0.6389 0
M  V30 14 C -3.2901 0.5812 -0.4282 0
M  V30 15 C -1.0204 3.6019 1.7125 0
M  V30 16 C -2.6654 -2.7795 0.1168 0
M  V30 17 C -2.5918 -0.5832 -1.134 0
M  V30 18 C -1.0741 -3.2602 1.8767 0
M  V30 19 C -2.342 3.8018 1.3314 0
M  V30 20 C -2.1769 -3.6366 1.1066 0
M  V30 21 H 4.236 -0.7888 0.5081 0
M  V30 22 H 3.6627 0.7886 0.2038 0
M  V30 23 H 2.888 0.1113 -2.021 0
M  V30 24 H 3.503 -1.5432 -1.6745 0
M  V30 25 H 6.0248 0.6643 -0.1498 0
M  V30 26 H 5.1504 1.0263 -1.6824 0
M  V30 27 H 5.7661 -0.6498 -1.3541 0
M  V30 28 H 1.9652 -1.6367 0.3543 0
M  V30 29 H 1.1533 -1.6003 -1.2514 0
M  V30 30 H 1.3706 1.1882 -0.336 0
M  V30 31 H 0.6444 2.27 1.7327 0
M  V30 32 H 0.3897 -1.739 2.2692 0
M  V30 33 H -4.061 2.9849 0.3673 0
M  V30 34 H -4.0319 0.1771 0.2956 0
M  V30 35 H -3.8701 1.125 -1.2064 0
M  V30 36 H -0.4926 4.3737 2.2578 0
M  V30 37 H -3.5328 -3.0765 -0.4591 0
M  V30 38 H -3.3279 -1.0996 -1.7884 0
M  V30 39 H -1.7847 -0.2051 -1.7986 0
M  V30 40 H -0.7029 -3.9211 2.6491 0
M  V30 41 H -2.8414 4.7295 1.5798 0
M  V30 42 H -2.6596 -4.5889 1.2835 0
M  V30 END ATOM
M  V30 BEGIN BOND
M  V30 1 1 1 2
M  V30 2 1 1 3
M  V30 3 1 2 4
M  V30 4 1 4 5
M  V30 5 2 5 6
M  V30 6 1 6 7
M  V30 7 1 6 8
M  V30 8 2 7 9
M  V30 9 1 7 10
M  V30 10 2 8 11
M  V30 11 1 8 12
M  V30 12 1 9 13
M  V30 13 1 9 14
M  V30 14 2 10 15
M  V30 15 1 11 16
M  V30 16 1 11 17
M  V30 17 2 12 18
M  V30 18 2 13 19
M  V30 19 2 16 20
M  V30 20 1 14 17
M  V30 21 1 15 19
M  V30 22 1 18 20
M  V30 23 1 1 21
M  V30 24 1 1 22
M  V30 25 1 2 23
M  V30 26 1 2 24
M  V30 27 1 3 25
M  V30 28 1 3 26
M  V30 29 1 3 27
M  V30 30 1 4 28
M  V30 31 1 4 29
M  V30 32 1 5 30
M  V30 33 1 10 31
M  V30 34 1 12 32
M  V30 35 1 13 33
M  V30 36 1 14 34
M  V30 37 1 14 35
M  V30 38 1 15 36
M  V30 39 1 16 37
M  V30 40 1 17 38
M  V30 41 1 17 39
M  V30 42 1 18 40
M  V30 43 1 19 41
M  V30 44 1 20 42
M  V30 END BOND
M  V30 END CTAB
M  END
>  <Structure No>
8871

>  <LogS>
-4.02

>  <MMFF94 Energy>
75.7

$$$$
Compound 8872
Actelion Java MolfileCreator 2.0

  0  0  0  0  0  0              0 V3000
M  V30 BEGIN CTAB
M  V30 COUNTS 56 59 0 0 0
M  V30 BEGIN ATOM
M  V30 1 O 2.7762 -1.1424 2.7762 0
M  V30 2 C 2.6547 -0.624 1.6331 0
M  V30 3 C 3.855 -0.0776 0.9431 0
M  V30 4 C 1.3149 -0.5408 0.9829 0
M  V30 5 C 5.0904 0.0689 1.6213 0
M  V30 6 C 3.7642 0.2982 -0.4207 0
M  V30 7 C 0.2243 -1.1456 1.5245 0
M  V30 8 C 1.2291 0.3401 -0.2561 0 CFG=1
M  V30 9 O 5.2085 -0.2603 2.9721 0
M  V30 10 C 6.2127 0.5543 0.9384 0
M  V30 11 C 4.9199 0.7525 -1.0879 0
M  V30 12 C 2.4617 0.104 -1.1994 0 CFG=1
M  V30 13 O 0.3947 -2.0211 2.5966 0 CHG=-1
M  V30 14 C -1.1882 -1.009 0.9451 0 CFG=1
M  V30 15 C -0.1308 0.2424 -0.9954 0 CFG=1
M  V30 16 C 6.1283 0.8871 -0.4091 0
M  V30 17 O 2.4072 1.0112 -2.2774 0
M  V30 18 C 2.476 -1.3212 -1.7904 0
M  V30 19 O -1.4618 -2.1683 0.2018 0
M  V30 20 C -2.2465 -0.8636 2.04 0
M  V30 21 C -1.2805 0.2402 0.028 0 CFG=1
M  V30 22 O -0.2743 1.3523 -1.8506 0
M  V30 23 O -2.0365 -1.2948 3.1663 0
M  V30 24 C -3.6093 -0.2746 1.7557 0 CFG=2
M  V30 25 C -2.6877 0.4597 -0.6212 0 CFG=2
M  V30 26 C -3.8308 0.0736 0.3033 0
M  V30 27 C -3.8267 0.9487 2.6063 0
M  V30 28 N -2.7949 -0.1103 -2.0006 0
M  V30 29 O -4.9806 0.148 -0.1046 0
M  V30 30 O -3.1066 1.9709 2.4385 0
M  V30 31 N -4.8419 0.9614 3.6111 0
M  V30 32 C -3.6876 0.6768 -2.8707 0
M  V30 33 C -3.0926 -1.555 -2.093 0
M  V30 34 H 1.3048 1.3852 0.1242 0
M  V30 35 H 6.085 -0.1614 3.4712 0
M  V30 36 H 7.1578 0.667 1.4545 0
M  V30 37 H 4.8916 0.9993 -2.1416 0
M  V30 38 H -0.1868 -0.7109 -1.5667 0
M  V30 39 H 7.0045 1.2484 -0.932 0
M  V30 40 H 2.4411 1.9317 -1.9039 0
M  V30 41 H 3.4305 -1.5041 -2.3299 0
M  V30 42 H 1.6624 -1.4576 -2.5316 0
M  V30 43 H 2.3753 -2.0907 -0.9962 0
M  V30 44 H -1.4633 -2.9432 0.8241 0
M  V30 45 H -1.1122 1.124 0.6904 0
M  V30 46 H -0.2449 1.0163 -2.7846 0
M  V30 47 H -4.3579 -1.051 2.0287 0
M  V30 48 H -2.7706 1.5677 -0.705 0
M  V30 49 H -5.4486 0.1264 3.7716 0
M  V30 50 H -4.9857 1.8113 4.2005 0
M  V30 51 H -3.5614 0.359 -3.9274 0
M  V30 52 H -4.7519 0.5443 -2.5833 0
M  V30 53 H -3.4257 1.7557 -2.8354 0
M  V30 54 H -3.6228 -1.8096 -3.0368 0
M  V30 55 H -3.7175 -1.9234 -1.2551 0
M  V30 56 H -2.1417 -2.1212 -2.1288 0
M  V30 END ATOM
M  V30 BEGIN BOND
M  V30 1 2 1 2
M  V30 2 1 2 3
M  V30 3 1 2 4
M  V30 4 2 3 5
M  V30 5 1 3 6
M  V30 6 2 4 7
M  V30 7 1 4 8
M  V30 8 1 5 9
M  V30 9 1 5 10
M  V30 10 2 6 11
M  V30 11 1 6 12
M  V30 12 1 7 13
M  V30 13 1 7 14
M  V30 14 1 8 15
M  V30 15 2 10 16
M  V30 16 1 12 17
M  V30 17 1 12 18
M  V30 18 1 14 19
M  V30 19 1 14 20
M  V30 20 1 14 21
M  V30 21 1 15 22
M  V30 22 2 20 23
M  V30 23 1 20 24
M  V30 24 1 21 25
M  V30 25 1 24 26
M  V30 26 1 24 27
M  V30 27 1 25 28
M  V30 28 2 26 29
M  V30 29 2 27 30
M  V30 30 1 27 31
M  V30 31 1 28 32
M  V30 32 1 28 33
M  V30 33 1 8 12
M  V30 34 1 11 16
M  V30 35 1 15 21
M  V30 36 1 25 26
M  V30 37 1 8 34
M  V30 38 1 9 35
M  V30 39 1 10 36
M  V30 40 1 11 37
M  V30 41 1 15 38
M  V30 42 1 16 39
M  V30 43 1 17 40
M  V30 44 1 18 41
M  V30 45 1 18 42
M  V30 46 1 18 43
M  V30 47 1 19 44
M  V30 48 1 21 45
M  V30 49 1 22 46
M  V30 50 1 24 47
M  V30 51 1 25 48
M  V30 52 1 31 49
M  V30 53 1 31 50
M  V30 54 1 32 51
M  V30 55 1 32 52
M  V30 56 1 32 53
M  V30 57 1 33 54
M  V30 58 1 33 55
M  V30 59 1 33 56
M  V30 END BOND
M  V30 BEGIN COLLECTION
M  V30 MDLV30/STEABS ATOMS=(7 8 12 14 15 21 24 25)
M  V30 END COLLECTION
M  V30 END CTAB
M  END
>  <Structure No>
8872

>  <LogS>
-3.09

>  <MMFF94 Energy>
106.24

$$$$
Compound 8873
Actelion Java MolfileCreator 2.0

  0  0  0  0  0  0              0 V3000
M  V30 BEGIN CTAB
M  V30 COUNTS 46 48 0 0 0
M  V30 BEGIN ATOM
M  V30 1 O -2.7938 1.436 -1.2764 0
M  V30 2 C -2.4086 1.0802 0.0266 0
M  V30 3 C -2.3801 0.7547 -2.4566 0
M  V30 4 C -2.8465 1.8822 1.089 0
M  V30 5 C -1.6034 -0.0449 0.2846 0
M  V30 6 O -3.6538 2.993 0.7948 0
M  V30 7 C -2.4706 1.5609 2.4054 0
M  V30 8 C -1.2135 -0.3699 1.5981 0
M  V30 9 C -4.1713 3.8965 1.7662 0
M  V30 10 C -1.6586 0.4481 2.6642 0
M  V30 11 C -0.3874 -1.4857 1.8975 0
M  V30 12 C -1.2835 0.1441 3.9784 0
M  V30 13 N -0.0465 -1.7339 3.1924 0
M  V30 14 C 0.1726 -2.4064 0.839 0
M  V30 15 C -0.4712 -0.9592 4.2221 0
M  V30 16 C 1.2827 -1.7434 0.0603 0
M  V30 17 C 1.2006 -1.624 -1.3359 0
M  V30 18 C 2.4239 -1.2686 0.7222 0
M  V30 19 C 2.2345 -1.0058 -2.0658 0
M  V30 20 C 3.4534 -0.6565 0.0061 0
M  V30 21 O 2.1762 -0.8587 -3.461 0
M  V30 22 C 3.3643 -0.5173 -1.3916 0
M  V30 23 C 1.0997 -1.31 -4.2766 0
M  V30 24 O 4.3774 0.0966 -2.145 0
M  V30 25 C 5.575 0.6375 -1.5967 0
M  V30 26 H -2.7407 -0.2954 -2.4389 0
M  V30 27 H -1.2732 0.7788 -2.5417 0
M  V30 28 H -2.8154 1.2639 -3.3406 0
M  V30 29 H -1.2894 -0.6601 -0.541 0
M  V30 30 H -2.8034 2.1758 3.2319 0
M  V30 31 H -3.3387 4.3916 2.3093 0
M  V30 32 H -4.8269 3.3552 2.4807 0
M  V30 33 H -4.7725 4.6748 1.2531 0
M  V30 34 H -1.6133 0.756 4.8097 0
M  V30 35 H 0.5835 -3.3208 1.3196 0
M  V30 36 H -0.647 -2.7537 0.174 0
M  V30 37 H -0.1735 -1.2003 5.2338 0
M  V30 38 H 0.3293 -2.0101 -1.8473 0
M  V30 39 H 2.5148 -1.3689 1.7969 0
M  V30 40 H 4.3154 -0.2949 0.5494 0
M  V30 41 H 1.3189 -1.0627 -5.3353 0
M  V30 42 H 0.1573 -0.8026 -3.9816 0
M  V30 43 H 0.9866 -2.4108 -4.1849 0
M  V30 44 H 5.3336 1.4499 -0.8791 0
M  V30 45 H 6.1574 -0.1606 -1.0899 0
M  V30 46 H 6.1905 1.0598 -2.4169 0
M  V30 END ATOM
M  V30 BEGIN BOND
M  V30 1 1 1 2
M  V30 2 1 1 3
M  V30 3 1 2 4
M  V30 4 2 2 5
M  V30 5 1 4 6
M  V30 6 2 4 7
M  V30 7 1 5 8
M  V30 8 1 6 9
M  V30 9 1 7 10
M  V30 10 2 8 11
M  V30 11 2 10 12
M  V30 12 1 11 13
M  V30 13 1 11 14
M  V30 14 1 12 15
M  V30 15 1 14 16
M  V30 16 2 16 17
M  V30 17 1 16 18
M  V30 18 1 17 19
M  V30 19 2 18 20
M  V30 20 1 19 21
M  V30 21 2 19 22
M  V30 22 1 21 23
M  V30 23 1 22 24
M  V30 24 1 24 25
M  V30 25 1 8 10
M  V30 26 2 13 15
M  V30 27 1 20 22
M  V30 28 1 3 26
M  V30 29 1 3 27
M  V30 30 1 3 28
M  V30 31 1 5 29
M  V30 32 1 7 30
M  V30 33 1 9 31
M  V30 34 1 9 32
M  V30 35 1 9 33
M  V30 36 1 12 34
M  V30 37 1 14 35
M  V30 38 1 14 36
M  V30 39 1 15 37
M  V30 40 1 17 38
M  V30 41 1 18 39
M  V30 42 1 20 40
M  V30 43 1 23 41
M  V30 44 1 23 42
M  V30 45 1 23 43
M  V30 46 1 25 44
M  V30 47 1 25 45
M  V30 48 1 25 46
M  V30 END BOND
M  V30 END CTAB
M  END
>  <Structure No>
8873

>  <LogS>
-3.87

>  <MMFF94 Energy>
111.78

$$$$
Compound 8874
Actelion Java MolfileCreator 2.0

  0  0  0  0  0  0              0 V3000
M  V30 BEGIN CTAB
M  V30 COUNTS 28 29 0 0 0
M  V30 BEGIN ATOM
M  V30 1 N -3.2322 -0.4725 -1.3392 0 CHG=1
M  V30 2 C -2.301 -0.3679 -0.3463 0
M  V30 3 C -2.8995 -0.349 -2.6555 0
M  V30 4 N -2.7089 -0.5065 1.0202 0
M  V30 5 C -0.9531 -0.1257 -0.6733 0
M  V30 6 N -3.9066 -0.4654 -3.6639 0
M  V30 7 C -1.5708 -0.1082 -3.0172 0
M  V30 8 N 0.0277 -0.0154 0.367 0
M  V30 9 C -0.5986 0.0031 -2.0254 0
M  V30 10 N 1.2573 0.2027 0.1224 0
M  V30 11 C 2.2331 0.3122 1.1651 0
M  V30 12 C 1.8819 0.1836 2.5224 0
M  V30 13 C 3.5696 0.5534 0.8211 0
M  V30 14 C 2.8611 0.2962 3.5148 0
M  V30 15 C 4.5458 0.6654 1.8163 0
M  V30 16 C 4.1918 0.5369 3.1622 0
M  V30 17 H -4.2295 -0.6523 -1.0836 0
M  V30 18 H -3.7098 -0.686 1.2567 0
M  V30 19 H -2.0267 -0.433 1.8071 0
M  V30 20 H -3.6651 -0.3728 -4.6759 0
M  V30 21 H -4.9015 -0.645 -3.4032 0
M  V30 22 H -1.2919 -0.0078 -4.0585 0
M  V30 23 H 0.4274 0.1896 -2.3152 0
M  V30 24 H 0.8563 -0.0027 2.8147 0
M  V30 25 H 3.8529 0.6545 -0.2189 0
M  V30 26 H 2.5881 0.1969 4.5574 0
M  V30 27 H 5.5765 0.8518 1.5439 0
M  V30 28 H 4.9482 0.6237 3.9314 0
M  V30 END ATOM
M  V30 BEGIN BOND
M  V30 1 2 1 2
M  V30 2 1 1 3
M  V30 3 1 2 4
M  V30 4 1 2 5
M  V30 5 1 3 6
M  V30 6 2 3 7
M  V30 7 1 5 8
M  V30 8 2 5 9
M  V30 9 2 8 10
M  V30 10 1 10 11
M  V30 11 2 11 12
M  V30 12 1 11 13
M  V30 13 1 12 14
M  V30 14 2 13 15
M  V30 15 2 14 16
M  V30 16 1 7 9
M  V30 17 1 15 16
M  V30 18 1 1 17
M  V30 19 1 4 18
M  V30 20 1 4 19
M  V30 21 1 6 20
M  V30 22 1 6 21
M  V30 23 1 7 22
M  V30 24 1 9 23
M  V30 25 1 12 24
M  V30 26 1 13 25
M  V30 27 1 14 26
M  V30 28 1 15 27
M  V30 29 1 16 28
M  V30 END BOND
M  V30 END CTAB
M  END
>  <Structure No>
8874

>  <LogS>
-4.19

>  <MMFF94 Energy>
45.891

$$$$
Compound 8875
Actelion Java MolfileCreator 2.0

  0  0  0  0  0  0              0 V3000
M  V30 BEGIN CTAB
M  V30 COUNTS 29 30 0 0 0
M  V30 BEGIN ATOM
M  V30 1 O -4.441 -1.6939 0.645 0
M  V30 2 C -3.214 -1.4657 0.4774 0
M  V30 3 N -2.6186 -1.6267 -0.8121 0
M  V30 4 N -2.391 -1.0904 1.5843 0
M  V30 5 C -1.2229 -1.3415 -0.9764 0
M  V30 6 C -0.9975 -0.8374 1.3614 0
M  V30 7 O -0.5773 -1.9808 -1.8496 0
M  V30 8 C -0.5488 -0.3432 -0.0234 0
M  V30 9 O -0.1872 -1.1122 2.2834 0
M  V30 10 C 0.9876 -0.2278 -0.2564 0
M  V30 11 C -1.1753 1.0598 -0.2894 0
M  V30 12 C 1.4941 -0.1419 -1.5786 0
M  V30 13 C 1.905 0.0461 0.791 0
M  V30 14 C -0.6807 2.1583 0.6587 0
M  V30 15 C 2.8598 0.016 -1.8279 0
M  V30 16 C 3.2709 0.2029 0.5365 0
M  V30 17 C 3.7512 0.1639 -0.7694 0
M  V30 18 H -3.1564 -2.0836 -1.5826 0
M  V30 19 H -2.7639 -1.1567 2.5581 0
M  V30 20 H -0.956 1.3761 -1.3332 0
M  V30 21 H -2.2827 1.0188 -0.2031 0
M  V30 22 H 0.8332 -0.1599 -2.4337 0
M  V30 23 H 1.5895 0.2133 1.8062 0
M  V30 24 H -0.8383 1.868 1.7186 0
M  V30 25 H 0.3944 2.3721 0.488 0
M  V30 26 H -1.2482 3.0931 0.4657 0
M  V30 27 H 3.223 0.0501 -2.8471 0
M  V30 28 H 3.9548 0.3898 1.3549 0
M  V30 29 H 4.8078 0.2965 -0.9637 0
M  V30 END ATOM
M  V30 BEGIN BOND
M  V30 1 2 1 2
M  V30 2 1 2 3
M  V30 3 1 2 4
M  V30 4 1 3 5
M  V30 5 1 4 6
M  V30 6 2 5 7
M  V30 7 1 5 8
M  V30 8 2 6 9
M  V30 9 1 8 10
M  V30 10 1 8 11
M  V30 11 2 10 12
M  V30 12 1 10 13
M  V30 13 1 11 14
M  V30 14 1 12 15
M  V30 15 2 13 16
M  V30 16 2 15 17
M  V30 17 1 6 8
M  V30 18 1 16 17
M  V30 19 1 3 18
M  V30 20 1 4 19
M  V30 21 1 11 20
M  V30 22 1 11 21
M  V30 23 1 12 22
M  V30 24 1 13 23
M  V30 25 1 14 24
M  V30 26 1 14 25
M  V30 27 1 14 26
M  V30 28 1 15 27
M  V30 29 1 16 28
M  V30 30 1 17 29
M  V30 END BOND
M  V30 END CTAB
M  END
>  <Structure No>
8875

>  <LogS>
-2.29

>  <MMFF94 Energy>
-74.424

$$$$
Compound 8876
Actelion Java MolfileCreator 2.0

  0  0  0  0  0  0              0 V3000
M  V30 BEGIN CTAB
M  V30 COUNTS 39 40 0 0 0
M  V30 BEGIN ATOM
M  V30 1 O 1.5662 1.0961 0.7045 0
M  V30 2 C 2.599 0.1954 0.3966 0
M  V30 3 C 0.2614 0.7489 1.1714 0
M  V30 4 C 3.7339 0.6631 -0.2685 0
M  V30 5 C 2.5713 -1.1801 0.7367 0
M  V30 6 C -0.6583 0.3768 -0.0051 0 CFG=1
M  V30 7 C 4.7789 -0.1599 -0.5973 0
M  V30 8 C 4.0526 1.9268 -0.72 0
M  V30 9 C 3.6504 -2.0254 0.3955 0
M  V30 10 O -0.1914 -0.7764 -0.6591 0
M  V30 11 C -2.1189 0.1967 0.4662 0
M  V30 12 N 5.7441 0.5226 -1.2344 0
M  V30 13 C 4.7715 -1.516 -0.2814 0
M  V30 14 C 5.3048 1.7993 -1.3119 0
M  V30 15 N -3.0136 -0.0897 -0.6728 0 CHG=1
M  V30 16 C -4.4455 -0.2242 -0.3142 0
M  V30 17 C -4.7072 -1.3952 0.6473 0
M  V30 18 C -5.0454 1.0831 0.2297 0
M  V30 19 H 0.3008 -0.0552 1.9348 0
M  V30 20 H -0.1581 1.645 1.6763 0
M  V30 21 H 1.7369 -1.6108 1.2687 0
M  V30 22 H -0.6312 1.2176 -0.7323 0
M  V30 23 H 3.4575 2.8266 -0.6351 0
M  V30 24 H 3.6157 -3.074 0.6608 0
M  V30 25 H -0.3045 -1.5409 -0.0358 0
M  V30 26 H -2.1532 -0.6316 1.2062 0
M  V30 27 H -2.4341 1.1334 0.9733 0
M  V30 28 H 6.6488 0.1485 -1.5976 0
M  V30 29 H 5.6023 -2.1575 -0.5455 0
M  V30 30 H 5.8625 2.6021 -1.7756 0
M  V30 31 H -2.9203 0.6757 -1.3815 0
M  V30 32 H -2.7076 -0.9789 -1.1331 0
M  V30 33 H -5.0002 -0.4574 -1.2519 0
M  V30 34 H -5.7987 -1.5929 0.7097 0
M  V30 35 H -4.2087 -2.3162 0.2776 0
M  V30 36 H -4.3413 -1.1675 1.6703 0
M  V30 37 H -4.7815 1.9343 -0.433 0
M  V30 38 H -6.1528 1.0017 0.2636 0
M  V30 39 H -4.6875 1.2968 1.2584 0
M  V30 END ATOM
M  V30 BEGIN BOND
M  V30 1 1 1 2
M  V30 2 1 1 3
M  V30 3 2 2 4
M  V30 4 1 2 5
M  V30 5 1 3 6
M  V30 6 1 4 7
M  V30 7 1 4 8
M  V30 8 2 5 9
M  V30 9 1 6 10
M  V30 10 1 6 11
M  V30 11 1 7 12
M  V30 12 2 7 13
M  V30 13 2 8 14
M  V30 14 1 11 15
M  V30 15 1 15 16
M  V30 16 1 16 17
M  V30 17 1 16 18
M  V30 18 1 9 13
M  V30 19 1 12 14
M  V30 20 1 3 19
M  V30 21 1 3 20
M  V30 22 1 5 21
M  V30 23 1 6 22
M  V30 24 1 8 23
M  V30 25 1 9 24
M  V30 26 1 10 25
M  V30 27 1 11 26
M  V30 28 1 11 27
M  V30 29 1 12 28
M  V30 30 1 13 29
M  V30 31 1 14 30
M  V30 32 1 15 31
M  V30 33 1 15 32
M  V30 34 1 16 33
M  V30 35 1 17 34
M  V30 36 1 17 35
M  V30 37 1 17 36
M  V30 38 1 18 37
M  V30 39 1 18 38
M  V30 40 1 18 39
M  V30 END BOND
M  V30 BEGIN COLLECTION
M  V30 MDLV30/STEABS ATOMS=(1 6)
M  V30 END COLLECTION
M  V30 END CTAB
M  END
>  <Structure No>
8876

>  <LogS>
-3.79

>  <MMFF94 Energy>
59.062

$$$$
Compound 8877
Actelion Java MolfileCreator 2.0

  0  0  0  0  0  0              0 V3000
M  V30 BEGIN CTAB
M  V30 COUNTS 38 38 0 0 0
M  V30 BEGIN ATOM
M  V30 1 O 1.0944 0.7816 1.7203 0
M  V30 2 C 1.5907 0.5395 0.5853 0
M  V30 3 O 0.7924 0.6229 -0.5627 0
M  V30 4 C 3.0189 0.1734 0.463 0
M  V30 5 C -0.6035 0.9128 -0.5292 0
M  V30 6 C 3.5759 -0.0991 -0.7986 0
M  V30 7 C 3.8396 0.0908 1.6028 0
M  V30 8 C -1.3978 -0.3249 -0.0734 0
M  V30 9 C 4.925 -0.4463 -0.9177 0
M  V30 10 C 5.1884 -0.2566 1.481 0
M  V30 11 N -2.8635 -0.0827 -0.0795 0 CHG=1
M  V30 12 C 5.7374 -0.5267 0.2208 0
M  V30 13 C -3.5792 -1.3828 -0.0145 0
M  V30 14 C -3.266 0.8166 1.0467 0
M  V30 15 N 7.117 -0.882 0.0974 0
M  V30 16 C -5.0752 -1.2424 -0.3226 0
M  V30 17 C -3.9955 2.0651 0.5452 0
M  V30 18 H -0.7895 1.7874 0.1291 0
M  V30 19 H -0.9236 1.1902 -1.5558 0
M  V30 20 H 2.9708 -0.045 -1.6948 0
M  V30 21 H 3.4406 0.2944 2.5887 0
M  V30 22 H -1.0614 -0.6474 0.9375 0
M  V30 23 H -1.1346 -1.145 -0.7791 0
M  V30 24 H 5.337 -0.653 -1.8975 0
M  V30 25 H 5.8054 -0.3152 2.3689 0
M  V30 26 H -3.1 0.351 -1.0047 0
M  V30 27 H -3.4466 -1.8568 0.9845 0
M  V30 28 H -3.1681 -2.0893 -0.7705 0
M  V30 29 H -2.3944 1.1562 1.6492 0
M  V30 30 H -3.9253 0.3023 1.7811 0
M  V30 31 H 7.7304 -0.9444 0.9405 0
M  V30 32 H 7.5352 -1.0852 -0.8377 0
M  V30 33 H -5.593 -0.649 0.4582 0
M  V30 34 H -5.2226 -0.7564 -1.3101 0
M  V30 35 H -5.5415 -2.2498 -0.3535 0
M  V30 36 H -3.3307 2.6535 -0.1221 0
M  V30 37 H -4.9124 1.7791 -0.0114 0
M  V30 38 H -4.2865 2.701 1.4079 0
M  V30 END ATOM
M  V30 BEGIN BOND
M  V30 1 2 1 2
M  V30 2 1 2 3
M  V30 3 1 2 4
M  V30 4 1 3 5
M  V30 5 2 4 6
M  V30 6 1 4 7
M  V30 7 1 5 8
M  V30 8 1 6 9
M  V30 9 2 7 10
M  V30 10 1 8 11
M  V30 11 2 9 12
M  V30 12 1 11 13
M  V30 13 1 11 14
M  V30 14 1 12 15
M  V30 15 1 13 16
M  V30 16 1 14 17
M  V30 17 1 10 12
M  V30 18 1 5 18
M  V30 19 1 5 19
M  V30 20 1 6 20
M  V30 21 1 7 21
M  V30 22 1 8 22
M  V30 23 1 8 23
M  V30 24 1 9 24
M  V30 25 1 10 25
M  V30 26 1 11 26
M  V30 27 1 13 27
M  V30 28 1 13 28
M  V30 29 1 14 29
M  V30 30 1 14 30
M  V30 31 1 15 31
M  V30 32 1 15 32
M  V30 33 1 16 33
M  V30 34 1 16 34
M  V30 35 1 16 35
M  V30 36 1 17 36
M  V30 37 1 17 37
M  V30 38 1 17 38
M  V30 END BOND
M  V30 END CTAB
M  END
>  <Structure No>
8877

>  <LogS>
-1.72

>  <MMFF94 Energy>
31.54

$$$$
Compound 8878
Actelion Java MolfileCreator 2.0

  0  0  0  0  0  0              0 V3000
M  V30 BEGIN CTAB
M  V30 COUNTS 49 52 0 0 0
M  V30 BEGIN ATOM
M  V30 1 O -4.4159 0.5612 1.8448 0
M  V30 2 C -3.9384 -0.269 0.8174 0
M  V30 3 C -5.5123 0.239 2.6925 0
M  V30 4 C -2.8272 0.1572 0.0795 0
M  V30 5 C -4.5347 -1.5035 0.5139 0
M  V30 6 C -2.2921 -0.6368 -0.9617 0
M  V30 7 C -4.0301 -2.295 -0.5168 0
M  V30 8 C -2.9213 -1.8747 -1.2536 0
M  V30 9 C -1.1489 -0.2571 -1.7247 0
M  V30 10 N -2.4476 -2.6709 -2.247 0
M  V30 11 C -0.6997 -1.1305 -2.7362 0
M  V30 12 C -0.3457 1.011 -1.4309 0 CFG=2
M  V30 13 C -1.3678 -2.3264 -2.9853 0
M  V30 14 O 0.3988 1.425 -2.5484 0
M  V30 15 C 0.5776 0.8334 -0.187 0 CFG=1
M  V30 16 N 1.5181 -0.3328 -0.2652 0 CHG=1 CFG=2
M  V30 17 C 1.3544 2.1407 0.1614 0
M  V30 18 C 2.1131 -0.5588 1.079 0
M  V30 19 C 2.6292 -0.0923 -1.2215 0
M  V30 20 C 2.8295 1.7928 0.4395 0 CFG=1
M  V30 21 C 2.8524 0.7257 1.5693 0 CFG=2
M  V30 22 C 3.3973 1.2053 -0.8678 0
M  V30 23 C 4.2436 0.4839 2.1276 0
M  V30 24 C 5.1702 -0.2867 1.5443 0
M  V30 25 H -5.6567 1.0587 3.4287 0
M  V30 26 H -6.4441 0.1347 2.0924 0
M  V30 27 H -5.2998 -0.7012 3.2421 0
M  V30 28 H -2.4013 1.1108 0.3459 0
M  V30 29 H -5.3903 -1.8618 1.0678 0
M  V30 30 H -4.5017 -3.244 -0.7388 0
M  V30 31 H 0.1753 -0.9018 -3.3299 0
M  V30 32 H -1.0535 1.8374 -1.2027 0
M  V30 33 H -1.0166 -2.9911 -3.763 0
M  V30 34 H -0.2516 1.69 -3.2527 0
M  V30 35 H -0.1134 0.6496 0.6665 0
M  V30 36 H 1.0101 -1.2012 -0.5426 0
M  V30 37 H 1.2991 2.8871 -0.6589 0
M  V30 38 H 0.9074 2.6239 1.055 0
M  V30 39 H 2.7852 -1.4431 1.0508 0
M  V30 40 H 1.3141 -0.8297 1.8062 0
M  V30 41 H 2.2579 -0.057 -2.2655 0
M  V30 42 H 3.3345 -0.9516 -1.2024 0
M  V30 43 H 3.3918 2.7054 0.7371 0
M  V30 44 H 2.2638 1.1371 2.418 0
M  V30 45 H 4.4849 1.0095 -0.7693 0
M  V30 46 H 3.2833 1.9432 -1.6929 0
M  V30 47 H 4.5097 0.9807 3.051 0
M  V30 48 H 6.1471 -0.4001 2.0037 0
M  V30 49 H 4.975 -0.8169 0.6233 0
M  V30 END ATOM
M  V30 BEGIN BOND
M  V30 1 1 1 2
M  V30 2 1 1 3
M  V30 3 2 2 4
M  V30 4 1 2 5
M  V30 5 1 4 6
M  V30 6 2 5 7
M  V30 7 1 6 8
M  V30 8 2 6 9
M  V30 9 2 8 10
M  V30 10 1 9 11
M  V30 11 1 9 12
M  V30 12 1 10 13
M  V30 13 1 12 14
M  V30 14 1 12 15
M  V30 15 1 15 16
M  V30 16 1 15 17
M  V30 17 1 16 18
M  V30 18 1 16 19
M  V30 19 1 17 20
M  V30 20 1 18 21
M  V30 21 1 19 22
M  V30 22 1 21 23
M  V30 23 2 23 24
M  V30 24 1 7 8
M  V30 25 2 11 13
M  V30 26 1 20 21
M  V30 27 1 20 22
M  V30 28 1 3 25
M  V30 29 1 3 26
M  V30 30 1 3 27
M  V30 31 1 4 28
M  V30 32 1 5 29
M  V30 33 1 7 30
M  V30 34 1 11 31
M  V30 35 1 12 32
M  V30 36 1 13 33
M  V30 37 1 14 34
M  V30 38 1 15 35
M  V30 39 1 16 36
M  V30 40 1 17 37
M  V30 41 1 17 38
M  V30 42 1 18 39
M  V30 43 1 18 40
M  V30 44 1 19 41
M  V30 45 1 19 42
M  V30 46 1 20 43
M  V30 47 1 21 44
M  V30 48 1 22 45
M  V30 49 1 22 46
M  V30 50 1 23 47
M  V30 51 1 24 48
M  V30 52 1 24 49
M  V30 END BOND
M  V30 BEGIN COLLECTION
M  V30 MDLV30/STEABS ATOMS=(5 12 15 16 20 21)
M  V30 END COLLECTION
M  V30 END CTAB
M  END
>  <Structure No>
8878

>  <LogS>
-2.79

>  <MMFF94 Energy>
117.8

$$$$
Compound 8879
Actelion Java MolfileCreator 2.0

  0  0  0  0  0  0              0 V3000
M  V30 BEGIN CTAB
M  V30 COUNTS 44 44 0 0 0
M  V30 BEGIN ATOM
M  V30 1 S 0.0793 0.0 -1.6676 0
M  V30 2 C 0.1378 0.9549 -0.1142 0
M  V30 3 C 1.874 -0.3324 -1.7526 0
M  V30 4 C -1.2447 1.3795 0.2513 0
M  V30 5 C 2.2261 -1.5962 -0.9654 0
M  V30 6 O -2.0878 0.6311 0.9243 0
M  V30 7 C -1.8419 2.5766 -0.0962 0
M  V30 8 N 3.6593 -1.8794 -1.0572 0
M  V30 9 C -3.2169 1.2909 1.0432 0
M  V30 10 C -3.1197 2.5196 0.4185 0
M  V30 11 C 4.6987 -1.0197 -0.5457 0
M  V30 12 C -4.4378 0.7493 1.7296 0
M  V30 13 N 4.4484 -0.1797 0.4283 0 CHG=1
M  V30 14 C 6.0648 -1.1541 -1.1097 0 CHG=-1
M  V30 15 N -5.4458 0.2699 0.7567 0 CHG=1
M  V30 16 C 5.4384 0.7361 0.9948 0
M  V30 17 N 6.2908 -1.5498 -2.4666 0 CHG=1
M  V30 18 C -4.9788 -0.9377 0.0501 0
M  V30 19 C -6.714 -0.0188 1.4481 0
M  V30 20 O 7.4552 -1.7722 -2.8547 0
M  V30 21 O 5.2688 -1.5318 -3.3876 0 CHG=-1
M  V30 22 H 0.7819 1.8509 -0.244 0
M  V30 23 H 0.5519 0.3304 0.7039 0
M  V30 24 H 2.4502 0.5414 -1.3825 0
M  V30 25 H 2.1442 -0.4865 -2.8189 0
M  V30 26 H 1.6609 -2.4511 -1.3968 0
M  V30 27 H 1.9204 -1.5111 0.0969 0
M  V30 28 H -1.4039 3.3873 -0.6635 0
M  V30 29 H 3.9404 -2.7555 -1.5531 0
M  V30 30 H -3.889 3.2762 0.3378 0
M  V30 31 H -4.8627 1.5682 2.3527 0
M  V30 32 H -4.1374 -0.0692 2.4218 0
M  V30 33 H 3.4907 -0.123 0.8379 0
M  V30 34 H 6.9239 -0.9246 -0.4922 0
M  V30 35 H -5.6304 1.0209 0.0494 0
M  V30 36 H 6.2443 0.1637 1.5007 0
M  V30 37 H 5.8683 1.3781 0.1964 0
M  V30 38 H 4.9551 1.3931 1.7487 0
M  V30 39 H -4.066 -0.7169 -0.5436 0
M  V30 40 H -4.7516 -1.759 0.7661 0
M  V30 41 H -5.7522 -1.2938 -0.6655 0
M  V30 42 H -7.4843 -0.3628 0.7234 0
M  V30 43 H -6.5769 -0.8049 2.2239 0
M  V30 44 H -7.1091 0.8994 1.9355 0
M  V30 END ATOM
M  V30 BEGIN BOND
M  V30 1 1 1 2
M  V30 2 1 1 3
M  V30 3 1 2 4
M  V30 4 1 3 5
M  V30 5 1 4 6
M  V30 6 2 4 7
M  V30 7 1 5 8
M  V30 8 1 6 9
M  V30 9 1 7 10
M  V30 10 1 8 11
M  V30 11 1 9 12
M  V30 12 2 11 13
M  V30 13 1 11 14
M  V30 14 1 12 15
M  V30 15 1 13 16
M  V30 16 1 14 17
M  V30 17 1 15 18
M  V30 18 1 15 19
M  V30 19 2 17 20
M  V30 20 1 17 21
M  V30 21 2 9 10
M  V30 22 1 2 22
M  V30 23 1 2 23
M  V30 24 1 3 24
M  V30 25 1 3 25
M  V30 26 1 5 26
M  V30 27 1 5 27
M  V30 28 1 7 28
M  V30 29 1 8 29
M  V30 30 1 10 30
M  V30 31 1 12 31
M  V30 32 1 12 32
M  V30 33 1 13 33
M  V30 34 1 14 34
M  V30 35 1 15 35
M  V30 36 1 16 36
M  V30 37 1 16 37
M  V30 38 1 16 38
M  V30 39 1 18 39
M  V30 40 1 18 40
M  V30 41 1 18 41
M  V30 42 1 19 42
M  V30 43 1 19 43
M  V30 44 1 19 44
M  V30 END BOND
M  V30 END CTAB
M  END
>  <Structure No>
8879

>  <LogS>
-2.5

>  <MMFF94 Energy>
-8.3281

$$$$
Compound 8880
Actelion Java MolfileCreator 2.0

  0  0  0  0  0  0              0 V3000
M  V30 BEGIN CTAB
M  V30 COUNTS 45 48 0 0 0
M  V30 BEGIN ATOM
M  V30 1 F 2.8421 -2.6795 -0.0811 0
M  V30 2 C 1.5749 -2.2005 -0.0034 0
M  V30 3 C 1.3306 -0.8258 -0.1039 0
M  V30 4 C 0.5215 -3.0881 0.2126 0
M  V30 5 N 2.4206 0.088 -0.3185 0
M  V30 6 C 0.0182 -0.3468 0.0155 0
M  V30 7 C -0.8012 -2.6193 0.3303 0
M  V30 8 C 3.1725 0.0346 -1.5755 0
M  V30 9 C 2.534 1.3008 0.4971 0
M  V30 10 C -1.0658 -1.2309 0.2218 0
M  V30 11 C -1.8666 -3.5092 0.5625 0
M  V30 12 C 4.6277 0.4455 -1.3282 0
M  V30 13 C 4.0102 1.6724 0.674 0
M  V30 14 N -2.3594 -0.773 0.3325 0
M  V30 15 O -1.6404 -4.7471 0.66 0
M  V30 16 C -3.1797 -3.0175 0.688 0
M  V30 17 N 4.6978 1.7355 -0.6246 0 CHG=1
M  V30 18 C -2.6865 0.622 0.1963 0
M  V30 19 C -3.3913 -1.6355 0.5677 0
M  V30 20 C -4.3383 -3.9181 0.9392 0
M  V30 21 C -2.6773 1.2294 -1.069 0
M  V30 22 C -3.0322 1.3791 1.326 0
M  V30 23 O -5.5016 -3.4454 1.0451 0
M  V30 24 O -4.1661 -5.2918 1.0627 0 CHG=-1
M  V30 25 C -2.998 2.5841 -1.1997 0
M  V30 26 C -3.353 2.7335 1.192 0
M  V30 27 C -3.335 3.3365 -0.0698 0
M  V30 28 F -3.6457 4.6499 -0.1979 0
M  V30 29 H 0.747 -4.1443 0.2956 0
M  V30 30 H -0.1432 0.7195 -0.0596 0
M  V30 31 H 3.152 -0.9874 -2.0106 0
M  V30 32 H 2.7077 0.7292 -2.3083 0
M  V30 33 H 2.0809 1.1378 1.4997 0
M  V30 34 H 1.9954 2.1346 -0.0034 0
M  V30 35 H 5.1532 0.5253 -2.3052 0
M  V30 36 H 5.1398 -0.343 -0.732 0
M  V30 37 H 4.5053 0.9226 1.3317 0
M  V30 38 H 4.0774 2.661 1.1793 0
M  V30 39 H 4.2721 2.4875 -1.2164 0
M  V30 40 H 5.7035 1.9748 -0.4611 0
M  V30 41 H -4.3995 -1.2435 0.6535 0
M  V30 42 H -2.4182 0.6518 -1.9471 0
M  V30 43 H -3.0467 0.9185 2.3056 0
M  V30 44 H -2.9857 3.0496 -2.1767 0
M  V30 45 H -3.6155 3.3148 2.0665 0
M  V30 END ATOM
M  V30 BEGIN BOND
M  V30 1 1 1 2
M  V30 2 2 2 3
M  V30 3 1 2 4
M  V30 4 1 3 5
M  V30 5 1 3 6
M  V30 6 2 4 7
M  V30 7 1 5 8
M  V30 8 1 5 9
M  V30 9 2 6 10
M  V30 10 1 7 11
M  V30 11 1 8 12
M  V30 12 1 9 13
M  V30 13 1 10 14
M  V30 14 2 11 15
M  V30 15 1 11 16
M  V30 16 1 12 17
M  V30 17 1 14 18
M  V30 18 1 14 19
M  V30 19 1 16 20
M  V30 20 2 18 21
M  V30 21 1 18 22
M  V30 22 2 20 23
M  V30 23 1 20 24
M  V30 24 1 21 25
M  V30 25 2 22 26
M  V30 26 2 25 27
M  V30 27 1 27 28
M  V30 28 1 7 10
M  V30 29 1 13 17
M  V30 30 2 16 19
M  V30 31 1 26 27
M  V30 32 1 4 29
M  V30 33 1 6 30
M  V30 34 1 8 31
M  V30 35 1 8 32
M  V30 36 1 9 33
M  V30 37 1 9 34
M  V30 38 1 12 35
M  V30 39 1 12 36
M  V30 40 1 13 37
M  V30 41 1 13 38
M  V30 42 1 17 39
M  V30 43 1 17 40
M  V30 44 1 19 41
M  V30 45 1 21 42
M  V30 46 1 22 43
M  V30 47 1 25 44
M  V30 48 1 26 45
M  V30 END BOND
M  V30 END CTAB
M  END
>  <Structure No>
8880

>  <LogS>
-3.13

>  <MMFF94 Energy>
128.21

$$$$
Compound 8881
Actelion Java MolfileCreator 2.0

  0  0  0  0  0  0              0 V3000
M  V30 BEGIN CTAB
M  V30 COUNTS 50 53 0 0 0
M  V30 BEGIN ATOM
M  V30 1 F -0.243 0.4861 1.621 0
M  V30 2 C -0.6986 0.3241 0.3536 0
M  V30 3 C 0.252 0.0543 -0.6335 0
M  V30 4 C -2.0709 0.4877 0.0221 0
M  V30 5 N 1.6257 -0.153 -0.2714 0
M  V30 6 C -0.1223 0.0212 -1.9735 0
M  V30 7 N -3.041 0.6563 0.9948 0
M  V30 8 C -2.4456 0.4827 -1.3578 0
M  V30 9 C 2.6012 0.9108 -0.527 0
M  V30 10 C 1.9935 -1.292 0.5728 0
M  V30 11 F 0.8216 -0.2172 -2.9208 0
M  V30 12 C -1.4431 0.2835 -2.3548 0
M  V30 13 C -4.3206 0.9841 0.6476 0
M  V30 14 C -2.7467 0.561 2.4386 0
M  V30 15 C -3.8154 0.6537 -1.6825 0
M  V30 16 C 4.0009 0.4897 -0.0425 0 CFG=1
M  V30 17 C 3.3511 -1.8946 0.1272 0 CFG=1
M  V30 18 N -1.72 0.406 -3.7585 0
M  V30 19 C -4.7478 0.9675 -0.68 0
M  V30 20 C -3.7195 -0.3011 3.2464 0
M  V30 21 C -2.3463 -0.8369 2.9038 0
M  V30 22 O -4.2206 0.4991 -2.8659 0
M  V30 23 N 4.2778 -0.8947 -0.4725 0 CHG=1
M  V30 24 C 5.0682 1.4525 -0.58 0
M  V30 25 C 4.0105 -2.6308 1.3042 0
M  V30 26 C -6.1769 1.2534 -0.9853 0
M  V30 27 O -6.5722 1.3946 -2.1729 0
M  V30 28 O -7.1031 1.3825 0.0441 0 CHG=-1
M  V30 29 H 2.2861 1.8391 -0.0021 0
M  V30 30 H 2.632 1.1182 -1.6187 0
M  V30 31 H 1.209 -2.0805 0.5256 0
M  V30 32 H 2.0506 -0.9404 1.6271 0
M  V30 33 H -5.039 1.222 1.4246 0
M  V30 34 H -2.3003 1.4372 2.9558 0
M  V30 35 H 4.0308 0.5449 1.0699 0
M  V30 36 H 3.1272 -2.6672 -0.644 0
M  V30 37 H -1.1092 -0.0621 -4.4641 0
M  V30 38 H -2.3517 1.1551 -4.1178 0
M  V30 39 H -3.8265 -0.0071 4.3117 0
M  V30 40 H -4.5294 -0.8184 2.6891 0
M  V30 41 H -1.6373 -0.8486 3.7586 0
M  V30 42 H -2.3506 -1.6233 2.1185 0
M  V30 43 H 5.2717 -1.1354 -0.2446 0
M  V30 44 H 4.1924 -0.9436 -1.5158 0
M  V30 45 H 4.8354 2.4944 -0.271 0
M  V30 46 H 6.0647 1.1825 -0.1704 0
M  V30 47 H 5.1134 1.4077 -1.6891 0
M  V30 48 H 4.3021 -1.9108 2.0983 0
M  V30 49 H 4.9178 -3.1709 0.959 0
M  V30 50 H 3.3078 -3.3766 1.7332 0
M  V30 END ATOM
M  V30 BEGIN BOND
M  V30 1 1 1 2
M  V30 2 2 2 3
M  V30 3 1 2 4
M  V30 4 1 3 5
M  V30 5 1 3 6
M  V30 6 1 4 7
M  V30 7 2 4 8
M  V30 8 1 5 9
M  V30 9 1 5 10
M  V30 10 1 6 11
M  V30 11 2 6 12
M  V30 12 1 7 13
M  V30 13 1 7 14
M  V30 14 1 8 15
M  V30 15 1 9 16
M  V30 16 1 10 17
M  V30 17 1 12 18
M  V30 18 2 13 19
M  V30 19 1 14 20
M  V30 20 1 14 21
M  V30 21 2 15 22
M  V30 22 1 16 23
M  V30 23 1 16 24
M  V30 24 1 17 25
M  V30 25 1 19 26
M  V30 26 2 26 27
M  V30 27 1 26 28
M  V30 28 1 8 12
M  V30 29 1 15 19
M  V30 30 1 17 23
M  V30 31 1 20 21
M  V30 32 1 9 29
M  V30 33 1 9 30
M  V30 34 1 10 31
M  V30 35 1 10 32
M  V30 36 1 13 33
M  V30 37 1 14 34
M  V30 38 1 16 35
M  V30 39 1 17 36
M  V30 40 1 18 37
M  V30 41 1 18 38
M  V30 42 1 20 39
M  V30 43 1 20 40
M  V30 44 1 21 41
M  V30 45 1 21 42
M  V30 46 1 23 43
M  V30 47 1 23 44
M  V30 48 1 24 45
M  V30 49 1 24 46
M  V30 50 1 24 47
M  V30 51 1 25 48
M  V30 52 1 25 49
M  V30 53 1 25 50
M  V30 END BOND
M  V30 BEGIN COLLECTION
M  V30 MDLV30/STEABS ATOMS=(2 16 17)
M  V30 END COLLECTION
M  V30 END CTAB
M  END
>  <Structure No>
8881

>  <LogS>
-3.37

>  <MMFF94 Energy>
177.41

$$$$
Compound 8882
Actelion Java MolfileCreator 2.0

  0  0  0  0  0  0              0 V3000
M  V30 BEGIN CTAB
M  V30 COUNTS 32 33 0 0 0
M  V30 BEGIN ATOM
M  V30 1 S 1.1446 -2.6176 -0.4086 0
M  V30 2 O 2.3122 -3.5528 -0.2689 0
M  V30 3 O 0.1445 -3.2322 -1.3474 0
M  V30 4 N 0.4082 -2.3853 1.1413 0 CHG=-1
M  V30 5 C 1.7178 -1.0734 -1.0314 0
M  V30 6 C -0.6347 -1.4352 1.3629 0
M  V30 7 C 1.0787 -0.4583 -2.1175 0
M  V30 8 C 2.7972 -0.4322 -0.4104 0
M  V30 9 N -1.0982 -0.6653 0.3422 0
M  V30 10 N -1.162 -1.2953 2.6068 0
M  V30 11 C 1.5193 0.7852 -2.5802 0
M  V30 12 C 3.2388 0.8108 -0.8737 0
M  V30 13 C -2.0859 0.2465 0.5382 0
M  V30 14 C -2.1479 -0.3919 2.8553 0
M  V30 15 C 2.6018 1.4256 -1.9608 0
M  V30 16 C -2.6351 0.405 1.8141 0
M  V30 17 C -2.5503 1.096 -0.6009 0
M  V30 18 C -2.7153 -0.267 4.2332 0
M  V30 19 N 3.0509 2.6989 -2.432 0
M  V30 20 H 0.2341 -0.9326 -2.6004 0
M  V30 21 H 3.2918 -0.892 0.4358 0
M  V30 22 H 1.0149 1.2515 -3.417 0
M  V30 23 H 4.0734 1.2961 -0.3838 0
M  V30 24 H -3.4195 1.1311 1.9929 0
M  V30 25 H -2.2427 2.1488 -0.4296 0
M  V30 26 H -3.6563 1.0458 -0.6847 0
M  V30 27 H -2.1054 0.7429 -1.5555 0
M  V30 28 H -2.6675 0.7913 4.5668 0
M  V30 29 H -3.7735 -0.6031 4.2334 0
M  V30 30 H -2.1405 -0.891 4.95 0
M  V30 31 H 2.5813 3.1663 -3.2393 0
M  V30 32 H 3.857 3.1828 -1.9772 0
M  V30 END ATOM
M  V30 BEGIN BOND
M  V30 1 2 1 2
M  V30 2 2 1 3
M  V30 3 1 1 4
M  V30 4 1 1 5
M  V30 5 1 4 6
M  V30 6 2 5 7
M  V30 7 1 5 8
M  V30 8 2 6 9
M  V30 9 1 6 10
M  V30 10 1 7 11
M  V30 11 2 8 12
M  V30 12 1 9 13
M  V30 13 2 10 14
M  V30 14 2 11 15
M  V30 15 2 13 16
M  V30 16 1 13 17
M  V30 17 1 14 18
M  V30 18 1 15 19
M  V30 19 1 12 15
M  V30 20 1 14 16
M  V30 21 1 7 20
M  V30 22 1 8 21
M  V30 23 1 11 22
M  V30 24 1 12 23
M  V30 25 1 16 24
M  V30 26 1 17 25
M  V30 27 1 17 26
M  V30 28 1 17 27
M  V30 29 1 18 28
M  V30 30 1 18 29
M  V30 31 1 18 30
M  V30 32 1 19 31
M  V30 33 1 19 32
M  V30 END BOND
M  V30 END CTAB
M  END
>  <Structure No>
8882

>  <LogS>
-2.73

>  <MMFF94 Energy>
15.627

$$$$
Compound 8883
Actelion Java MolfileCreator 2.0

  0  0  0  0  0  0              0 V3000
M  V30 BEGIN CTAB
M  V30 COUNTS 40 42 0 0 0
M  V30 BEGIN ATOM
M  V30 1 S 4.1478 -0.6627 -2.4871 0
M  V30 2 O 4.9553 0.5818 -2.7289 0
M  V30 3 O 4.142 -1.4938 -3.7382 0
M  V30 4 N 4.8809 -1.5723 -1.2052 0 CHG=-1
M  V30 5 C 2.4874 -0.2538 -2.0673 0
M  V30 6 C 5.0383 -1.1179 0.1447 0
M  V30 7 C 1.9354 0.9692 -2.4702 0
M  V30 8 C 1.71 -1.1532 -1.3262 0
M  V30 9 N 5.5875 -1.9652 1.0574 0
M  V30 10 C 4.642 0.1687 0.5517 0
M  V30 11 C 0.6196 1.2939 -2.1268 0
M  V30 12 C 0.3945 -0.8292 -0.9816 0
M  V30 13 C 5.7652 -1.6104 2.358 0
M  V30 14 C 4.8155 0.5499 1.8838 0
M  V30 15 C -0.1587 0.401 -1.3806 0
M  V30 16 C 5.3798 -0.3424 2.7956 0
M  V30 17 N -1.5023 0.766 -1.0439 0
M  V30 18 N -2.2628 0.0017 -0.3678 0
M  V30 19 C -3.6067 0.3659 -0.0302 0
M  V30 20 C -4.3826 -0.5276 0.7164 0
M  V30 21 C -4.1589 1.5925 -0.4297 0
M  V30 22 C -5.7084 -0.2157 1.0735 0
M  V30 23 C -5.4711 1.9163 -0.0839 0
M  V30 24 C -6.252 1.0241 0.6642 0
M  V30 25 C -6.4951 -1.1943 1.8672 0
M  V30 26 O -7.5611 1.3743 0.9955 0
M  V30 27 O -7.6827 -0.9501 2.2077 0
M  V30 28 O -5.9277 -2.4046 2.2494 0 CHG=-1
M  V30 29 H 2.5215 1.672 -3.0481 0
M  V30 30 H 2.1225 -2.1038 -1.0128 0
M  V30 31 H 4.2072 0.8748 -0.1406 0
M  V30 32 H 0.2044 2.2432 -2.4416 0
M  V30 33 H -0.187 -1.5374 -0.4057 0
M  V30 34 H 6.2052 -2.3136 3.0524 0
M  V30 35 H 4.5134 1.5372 2.2088 0
M  V30 36 H 5.518 -0.0544 3.8296 0
M  V30 37 H -3.9416 -1.4701 1.0172 0
M  V30 38 H -3.5784 2.2999 -1.0077 0
M  V30 39 H -5.8832 2.8666 -0.3993 0
M  V30 40 H -7.965 2.2587 0.7097 0
M  V30 END ATOM
M  V30 BEGIN BOND
M  V30 1 2 1 2
M  V30 2 2 1 3
M  V30 3 1 1 4
M  V30 4 1 1 5
M  V30 5 1 4 6
M  V30 6 2 5 7
M  V30 7 1 5 8
M  V30 8 2 6 9
M  V30 9 1 6 10
M  V30 10 1 7 11
M  V30 11 2 8 12
M  V30 12 1 9 13
M  V30 13 2 10 14
M  V30 14 2 11 15
M  V30 15 2 13 16
M  V30 16 1 15 17
M  V30 17 2 17 18
M  V30 18 1 18 19
M  V30 19 2 19 20
M  V30 20 1 19 21
M  V30 21 1 20 22
M  V30 22 2 21 23
M  V30 23 2 22 24
M  V30 24 1 22 25
M  V30 25 1 24 26
M  V30 26 2 25 27
M  V30 27 1 25 28
M  V30 28 1 12 15
M  V30 29 1 14 16
M  V30 30 1 23 24
M  V30 31 1 7 29
M  V30 32 1 8 30
M  V30 33 1 10 31
M  V30 34 1 11 32
M  V30 35 1 12 33
M  V30 36 1 13 34
M  V30 37 1 14 35
M  V30 38 1 16 36
M  V30 39 1 20 37
M  V30 40 1 21 38
M  V30 41 1 23 39
M  V30 42 1 26 40
M  V30 END BOND
M  V30 END CTAB
M  END
>  <Structure No>
8883

>  <LogS>
-6.14

>  <MMFF94 Energy>
94.677

$$$$
Compound 8884
Actelion Java MolfileCreator 2.0

  0  0  0  0  0  0              0 V3000
M  V30 BEGIN CTAB
M  V30 COUNTS 41 43 0 0 0
M  V30 BEGIN ATOM
M  V30 1 S 5.5147 0.0821 1.5615 0 CFG=2
M  V30 2 O 5.7665 -1.3845 1.8849 0
M  V30 3 C 3.9588 0.0824 0.6974 0
M  V30 4 C 6.7468 0.4975 0.3139 0
M  V30 5 C 2.9553 0.9787 1.0825 0
M  V30 6 C 3.7321 -0.7987 -0.3687 0
M  V30 7 C 1.729 0.9908 0.4117 0
M  V30 8 C 2.506 -0.788 -1.0404 0
M  V30 9 C 1.4886 0.0874 -0.6366 0
M  V30 10 C 0.2208 0.1255 -1.3819 0
M  V30 11 C -0.9948 -0.014 -0.8243 0
M  V30 12 C -1.3554 -0.4386 0.5378 0
M  V30 13 C -2.2817 0.2406 -1.5087 0
M  V30 14 C -2.7316 -0.4053 0.6297 0
M  V30 15 C -0.5817 -0.9386 1.5945 0
M  V30 16 C -3.2935 -0.0044 -0.6609 0
M  V30 17 C -2.4286 0.6656 -2.944 0
M  V30 18 C -3.3953 -0.7878 1.7984 0
M  V30 19 C -1.23 -1.3206 2.7798 0
M  V30 20 C -4.763 0.1328 -0.955 0
M  V30 21 C -2.6304 -1.2355 2.8861 0
M  V30 22 C -5.2338 1.5063 -0.5996 0
M  V30 23 F -3.2454 -1.6158 4.0328 0
M  V30 24 O -5.5496 1.7796 0.5883 0
M  V30 25 O -5.2846 2.4989 -1.5698 0 CHG=-1
M  V30 26 H 6.531 1.5053 -0.0968 0
M  V30 27 H 7.7544 0.4994 0.7779 0
M  V30 28 H 6.7239 -0.2477 -0.5073 0
M  V30 29 H 3.1255 1.6708 1.8975 0
M  V30 30 H 4.5035 -1.4911 -0.68 0
M  V30 31 H 0.9655 1.6984 0.7115 0
M  V30 32 H 2.3458 -1.4689 -1.8674 0
M  V30 33 H 0.296 0.3158 -2.4439 0
M  V30 34 H 0.4856 -1.0672 1.5151 0
M  V30 35 H -1.6083 1.3555 -3.228 0
M  V30 36 H -3.379 1.2112 -3.1108 0
M  V30 37 H -2.3995 -0.2291 -3.5991 0
M  V30 38 H -4.4744 -0.755 1.8663 0
M  V30 39 H -0.6489 -1.6988 3.6111 0
M  V30 40 H -5.3351 -0.6179 -0.3704 0
M  V30 41 H -4.9736 -0.0754 -2.0247 0
M  V30 END ATOM
M  V30 BEGIN BOND
M  V30 1 2 1 2
M  V30 2 1 1 3
M  V30 3 1 1 4
M  V30 4 2 3 5
M  V30 5 1 3 6
M  V30 6 1 5 7
M  V30 7 2 6 8
M  V30 8 2 7 9
M  V30 9 1 9 10
M  V30 10 2 10 11
M  V30 11 1 11 12
M  V30 12 1 11 13
M  V30 13 2 12 14
M  V30 14 1 12 15
M  V30 15 2 13 16
M  V30 16 1 13 17
M  V30 17 1 14 18
M  V30 18 2 15 19
M  V30 19 1 16 20
M  V30 20 2 18 21
M  V30 21 1 20 22
M  V30 22 1 21 23
M  V30 23 2 22 24
M  V30 24 1 22 25
M  V30 25 1 8 9
M  V30 26 1 14 16
M  V30 27 1 19 21
M  V30 28 1 4 26
M  V30 29 1 4 27
M  V30 30 1 4 28
M  V30 31 1 5 29
M  V30 32 1 6 30
M  V30 33 1 7 31
M  V30 34 1 8 32
M  V30 35 1 10 33
M  V30 36 1 15 34
M  V30 37 1 17 35
M  V30 38 1 17 36
M  V30 39 1 17 37
M  V30 40 1 18 38
M  V30 41 1 19 39
M  V30 42 1 20 40
M  V30 43 1 20 41
M  V30 END BOND
M  V30 BEGIN COLLECTION
M  V30 MDLV30/STEABS ATOMS=(1 1)
M  V30 END COLLECTION
M  V30 END CTAB
M  END
>  <Structure No>
8884

>  <LogS>
-4.5

>  <MMFF94 Energy>
91.685

$$$$
Compound 8885
Actelion Java MolfileCreator 2.0

  0  0  0  0  0  0              0 V3000
M  V30 BEGIN CTAB
M  V30 COUNTS 44 44 0 0 0
M  V30 BEGIN ATOM
M  V30 1 O -1.8764 -0.3906 1.407 0
M  V30 2 C -1.6066 -0.2647 0.1804 0
M  V30 3 O -2.6282 -0.3406 -0.7751 0
M  V30 4 C -0.2092 -0.0442 -0.2527 0
M  V30 5 C -4.0073 -0.4928 -0.4437 0
M  V30 6 C 0.0963 0.0987 -1.6159 0
M  V30 7 C 0.8316 0.0292 0.6885 0
M  V30 8 C -4.5861 0.8481 0.0509 0
M  V30 9 C 1.415 0.3079 -2.0287 0
M  V30 10 C 2.1506 0.2385 0.2754 0
M  V30 11 N -6.0249 0.8043 0.4106 0 CHG=1
M  V30 12 C 2.4571 0.3754 -1.0918 0
M  V30 13 C -6.8878 0.4764 -0.7384 0
M  V30 14 C -6.297 -0.0957 1.5455 0
M  V30 15 N 3.8041 0.5959 -1.5563 0
M  V30 16 C 4.9957 0.5458 -0.7083 0
M  V30 17 C 5.3311 -0.9061 -0.3394 0
M  V30 18 C 6.621 -1.0214 0.4862 0
M  V30 19 C 6.4495 -0.5153 1.9184 0
M  V30 20 H -4.5376 -0.8153 -1.362 0
M  V30 21 H -4.1178 -1.291 0.3198 0
M  V30 22 H -0.6828 0.0498 -2.3662 0
M  V30 23 H 0.6277 -0.0733 1.7472 0
M  V30 24 H -3.9991 1.1923 0.9312 0
M  V30 25 H -4.4258 1.6127 -0.7422 0
M  V30 26 H 1.6254 0.4143 -3.0856 0
M  V30 27 H 2.9193 0.2951 1.0326 0
M  V30 28 H -6.2847 1.7716 0.7201 0
M  V30 29 H -6.6334 1.1119 -1.6148 0
M  V30 30 H -7.9532 0.6696 -0.4828 0
M  V30 31 H -6.7954 -0.5927 -1.0269 0
M  V30 32 H -5.5991 0.11 2.3867 0
M  V30 33 H -7.3313 0.0662 1.9215 0
M  V30 34 H -6.2047 -1.1635 1.2518 0
M  V30 35 H 3.9502 0.8195 -2.5672 0
M  V30 36 H 5.8527 0.9783 -1.2698 0
M  V30 37 H 4.8442 1.1754 0.1921 0
M  V30 38 H 5.4676 -1.483 -1.2801 0
M  V30 39 H 4.4897 -1.3735 0.2148 0
M  V30 40 H 6.9157 -2.0923 0.5291 0
M  V30 41 H 7.4462 -0.4656 -0.01 0
M  V30 42 H 5.598 -1.0294 2.4132 0
M  V30 43 H 7.3733 -0.7265 2.497 0
M  V30 44 H 6.2772 0.5806 1.9314 0
M  V30 END ATOM
M  V30 BEGIN BOND
M  V30 1 2 1 2
M  V30 2 1 2 3
M  V30 3 1 2 4
M  V30 4 1 3 5
M  V30 5 2 4 6
M  V30 6 1 4 7
M  V30 7 1 5 8
M  V30 8 1 6 9
M  V30 9 2 7 10
M  V30 10 1 8 11
M  V30 11 2 9 12
M  V30 12 1 11 13
M  V30 13 1 11 14
M  V30 14 1 12 15
M  V30 15 1 15 16
M  V30 16 1 16 17
M  V30 17 1 17 18
M  V30 18 1 18 19
M  V30 19 1 10 12
M  V30 20 1 5 20
M  V30 21 1 5 21
M  V30 22 1 6 22
M  V30 23 1 7 23
M  V30 24 1 8 24
M  V30 25 1 8 25
M  V30 26 1 9 26
M  V30 27 1 10 27
M  V30 28 1 11 28
M  V30 29 1 13 29
M  V30 30 1 13 30
M  V30 31 1 13 31
M  V30 32 1 14 32
M  V30 33 1 14 33
M  V30 34 1 14 34
M  V30 35 1 15 35
M  V30 36 1 16 36
M  V30 37 1 16 37
M  V30 38 1 17 38
M  V30 39 1 17 39
M  V30 40 1 18 40
M  V30 41 1 18 41
M  V30 42 1 19 42
M  V30 43 1 19 43
M  V30 44 1 19 44
M  V30 END BOND
M  V30 END CTAB
M  END
>  <Structure No>
8885

>  <LogS>
-3.01

>  <MMFF94 Energy>
42.544

$$$$
Compound 8886
Actelion Java MolfileCreator 2.0

  0  0  0  0  0  0              0 V3000
M  V30 BEGIN CTAB
M  V30 COUNTS 56 59 0 0 0
M  V30 BEGIN ATOM
M  V30 1 O 2.2753 3.3331 -0.3248 0
M  V30 2 C 2.2974 2.0734 -0.3259 0
M  V30 3 C 3.573 1.3246 -0.1541 0
M  V30 4 C 1.0242 1.3326 -0.3098 0
M  V30 5 C 4.8419 1.9417 -0.3387 0
M  V30 6 C 3.5188 -0.0398 0.2598 0
M  V30 7 C -0.0172 1.6599 -1.1111 0
M  V30 8 C 1.0137 0.1578 0.6333 0 CFG=2
M  V30 9 O 4.9981 3.2186 -0.8836 0
M  V30 10 C 6.0075 1.2491 -0.0053 0
M  V30 11 C 4.7241 -0.7194 0.5295 0
M  V30 12 C 2.19 -0.814 0.3022 0 CFG=2
M  V30 13 O 0.1075 2.6622 -2.0823 0
M  V30 14 C -1.3792 0.9968 -1.0045 0 CFG=2
M  V30 15 C -0.3706 -0.5119 0.8108 0
M  V30 16 C 5.95 -0.07 0.4269 0
M  V30 17 O 2.2378 -1.7746 1.3393 0
M  V30 18 C 1.9945 -1.498 -1.0743 0
M  V30 19 O -1.8984 0.9355 -2.3175 0
M  V30 20 C -2.2769 1.8756 -0.1377 0
M  V30 21 C -1.2685 -0.4592 -0.4502 0 CFG=1
M  V30 22 O -2.2761 3.1239 -0.324 0
M  V30 23 C -3.2411 1.2839 0.8188 0 CHG=-1 CFG=1
M  V30 24 C -2.7007 -1.0531 -0.1741 0 CFG=2
M  V30 25 C -3.3647 -0.1873 0.8914 0
M  V30 26 C -4.0338 2.1386 1.7327 0
M  V30 27 N -2.7273 -2.5135 0.178 0 CHG=1
M  V30 28 O -3.9515 -0.7065 1.8796 0
M  V30 29 O -5.2055 1.7973 2.0461 0
M  V30 30 N -3.4845 3.3347 2.2888 0
M  V30 31 C -4.0956 -3.0643 0.0305 0
M  V30 32 C -1.833 -3.3323 -0.6683 0
M  V30 33 H 1.2572 0.5797 1.6371 0
M  V30 34 H 4.2852 3.692 -1.42 0
M  V30 35 H 6.9719 1.7274 -0.1225 0
M  V30 36 H 4.7266 -1.761 0.8184 0
M  V30 37 H 0.9889 3.0724 -2.3617 0
M  V30 38 H -0.2479 -1.5589 1.1512 0
M  V30 39 H -0.8829 0.0126 1.6453 0
M  V30 40 H 6.8642 -0.6036 0.6525 0
M  V30 41 H 2.6267 -2.6199 0.9933 0
M  V30 42 H 1.1667 -2.2283 -1.0352 0
M  V30 43 H 1.7892 -0.7533 -1.8718 0
M  V30 44 H 2.9086 -2.0611 -1.3616 0
M  V30 45 H -2.8904 0.9211 -2.2844 0
M  V30 46 H -0.782 -1.0465 -1.253 0
M  V30 47 H -3.2933 -0.9233 -1.1057 0
M  V30 48 H -2.4286 -2.6424 1.1739 0
M  V30 49 H -4.0732 3.9487 2.8942 0
M  V30 50 H -2.4763 3.5749 2.1676 0
M  V30 51 H -4.8497 -2.4856 0.5974 0
M  V30 52 H -4.4103 -3.0721 -1.0372 0
M  V30 53 H -4.1403 -4.1054 0.4205 0
M  V30 54 H -0.776 -3.1917 -0.3768 0
M  V30 55 H -2.0283 -4.4192 -0.5295 0
M  V30 56 H -1.9649 -3.0886 -1.7458 0
M  V30 END ATOM
M  V30 BEGIN BOND
M  V30 1 2 1 2
M  V30 2 1 2 3
M  V30 3 1 2 4
M  V30 4 2 3 5
M  V30 5 1 3 6
M  V30 6 2 4 7
M  V30 7 1 4 8
M  V30 8 1 5 9
M  V30 9 1 5 10
M  V30 10 2 6 11
M  V30 11 1 6 12
M  V30 12 1 7 13
M  V30 13 1 7 14
M  V30 14 1 8 15
M  V30 15 2 10 16
M  V30 16 1 12 17
M  V30 17 1 12 18
M  V30 18 1 14 19
M  V30 19 1 14 20
M  V30 20 1 14 21
M  V30 21 2 20 22
M  V30 22 1 20 23
M  V30 23 1 21 24
M  V30 24 1 23 25
M  V30 25 1 23 26
M  V30 26 1 24 27
M  V30 27 2 25 28
M  V30 28 2 26 29
M  V30 29 1 26 30
M  V30 30 1 27 31
M  V30 31 1 27 32
M  V30 32 1 8 12
M  V30 33 1 11 16
M  V30 34 1 15 21
M  V30 35 1 24 25
M  V30 36 1 8 33
M  V30 37 1 9 34
M  V30 38 1 10 35
M  V30 39 1 11 36
M  V30 40 1 13 37
M  V30 41 1 15 38
M  V30 42 1 15 39
M  V30 43 1 16 40
M  V30 44 1 17 41
M  V30 45 1 18 42
M  V30 46 1 18 43
M  V30 47 1 18 44
M  V30 48 1 19 45
M  V30 49 1 21 46
M  V30 50 1 24 47
M  V30 51 1 27 48
M  V30 52 1 30 49
M  V30 53 1 30 50
M  V30 54 1 31 51
M  V30 55 1 31 52
M  V30 56 1 31 53
M  V30 57 1 32 54
M  V30 58 1 32 55
M  V30 59 1 32 56
M  V30 END BOND
M  V30 BEGIN COLLECTION
M  V30 MDLV30/STEABS ATOMS=(6 8 12 14 21 23 24)
M  V30 END COLLECTION
M  V30 END CTAB
M  END
>  <Structure No>
8886

>  <LogS>
-2.93

>  <MMFF94 Energy>
78.638

$$$$
Compound 8887
Actelion Java MolfileCreator 2.0

  0  0  0  0  0  0              0 V3000
M  V30 BEGIN CTAB
M  V30 COUNTS 25 25 0 0 0
M  V30 BEGIN ATOM
M  V30 1 O -0.7821 1.0168 -1.5647 0
M  V30 2 C 0.0662 0.5088 -0.5821 0
M  V30 3 C -0.439 -0.3076 0.4575 0
M  V30 4 C 1.434 0.8169 -0.6302 0
M  V30 5 C 0.4537 -0.7895 1.4331 0
M  V30 6 C -1.9125 -0.6773 0.563 0
M  V30 7 C 2.3143 0.3144 0.3365 0
M  V30 8 C 1.8132 -0.4767 1.3767 0
M  V30 9 C -2.7956 0.5577 0.7804 0
M  V30 10 C -2.3816 -1.5005 -0.643 0
M  V30 11 C 3.7681 0.6818 0.2992 0
M  V30 12 H -0.4379 1.6035 -2.3157 0
M  V30 13 H 1.8111 1.4498 -1.4244 0
M  V30 14 H 0.0987 -1.4097 2.2468 0
M  V30 15 H -2.0602 -1.3252 1.4562 0
M  V30 16 H 2.4758 -0.8538 2.1459 0
M  V30 17 H -2.8166 1.2094 -0.1165 0
M  V30 18 H -2.4207 1.1466 1.6447 0
M  V30 19 H -3.8373 0.2419 1.003 0
M  V30 20 H -3.4097 -1.8811 -0.4627 0
M  V30 21 H -1.711 -2.3735 -0.7923 0
M  V30 22 H -2.396 -0.8949 -1.5719 0
M  V30 23 H 3.9253 1.6241 0.8644 0
M  V30 24 H 4.1088 0.8262 -0.7482 0
M  V30 25 H 4.3876 -0.1206 0.7533 0
M  V30 END ATOM
M  V30 BEGIN BOND
M  V30 1 1 1 2
M  V30 2 2 2 3
M  V30 3 1 2 4
M  V30 4 1 3 5
M  V30 5 1 3 6
M  V30 6 2 4 7
M  V30 7 2 5 8
M  V30 8 1 6 9
M  V30 9 1 6 10
M  V30 10 1 7 11
M  V30 11 1 7 8
M  V30 12 1 1 12
M  V30 13 1 4 13
M  V30 14 1 5 14
M  V30 15 1 6 15
M  V30 16 1 8 16
M  V30 17 1 9 17
M  V30 18 1 9 18
M  V30 19 1 9 19
M  V30 20 1 10 20
M  V30 21 1 10 21
M  V30 22 1 10 22
M  V30 23 1 11 23
M  V30 24 1 11 24
M  V30 25 1 11 25
M  V30 END BOND
M  V30 END CTAB
M  END
>  <Structure No>
8887

>  <LogS>
-2.19

>  <MMFF94 Energy>
16.701

$$$$
Compound 8888
Actelion Java MolfileCreator 2.0

  0  0  0  0  0  0              0 V3000
M  V30 BEGIN CTAB
M  V30 COUNTS 72 73 0 0 0
M  V30 BEGIN ATOM
M  V30 1 O -6.5745 -2.135 -1.0275 0
M  V30 2 C -5.9424 -1.2663 -0.1224 0
M  V30 3 C -5.9595 -2.6841 -2.1887 0
M  V30 4 C -6.6802 -0.8047 0.9736 0
M  V30 5 C -4.6071 -0.85 -0.2931 0
M  V30 6 O -8.006 -1.2437 1.1205 0
M  V30 7 C -6.0841 0.0827 1.8822 0
M  V30 8 C -3.9782 0.0137 0.6339 0
M  V30 9 C -8.8703 -0.8592 2.1851 0
M  V30 10 C -4.763 0.4933 1.7089 0
M  V30 11 C -2.5195 0.5036 0.4291 0 CFG=2
M  V30 12 C -1.9335 0.8312 1.7574 0
M  V30 13 C -2.4907 1.795 -0.4755 0
M  V30 14 C -1.6118 -0.6407 -0.1543 0
M  V30 15 N -1.4751 1.085 2.7898 0
M  V30 16 C -3.0569 1.573 -1.8923 0
M  V30 17 C -3.2193 2.9995 0.1573 0
M  V30 18 C -0.0924 -0.3208 -0.2608 0
M  V30 19 C 0.3639 -0.0804 -1.7168 0
M  V30 20 N 1.8268 0.1196 -1.8903 0 CHG=1 CFG=1
M  V30 21 C 2.3837 1.2757 -1.1309 0
M  V30 22 C 2.5953 -1.1323 -1.7615 0
M  V30 23 C 2.9331 0.9637 0.2886 0
M  V30 24 C 4.4156 0.6677 0.2954 0
M  V30 25 C 4.8906 -0.6031 0.6562 0
M  V30 26 C 5.3361 1.6772 -0.0203 0
M  V30 27 C 6.2722 -0.8765 0.6714 0
M  V30 28 C 6.7071 1.4159 -0.0028 0
M  V30 29 O 6.7771 -2.1419 1.0109 0
M  V30 30 C 7.1844 0.1375 0.3409 0
M  V30 31 C 5.9732 -3.2684 1.3468 0
M  V30 32 O 8.5553 -0.1631 0.3695 0
M  V30 33 C 9.5912 0.7656 0.0669 0
M  V30 34 H -5.6526 -1.8705 -2.8796 0
M  V30 35 H -5.079 -3.2964 -1.901 0
M  V30 36 H -6.6895 -3.3352 -2.7114 0
M  V30 37 H -4.0776 -1.1853 -1.1668 0
M  V30 38 H -6.6376 0.4707 2.7265 0
M  V30 39 H -9.0278 0.24 2.171 0
M  V30 40 H -8.4385 -1.1719 3.1596 0
M  V30 41 H -9.8512 -1.3606 2.0553 0
M  V30 42 H -4.3635 1.2027 2.4218 0
M  V30 43 H -1.4319 2.1108 -0.5957 0
M  V30 44 H -1.7231 -1.5289 0.5091 0
M  V30 45 H -1.9651 -0.9864 -1.1427 0
M  V30 46 H -4.1467 1.3663 -1.8581 0
M  V30 47 H -2.9027 2.4862 -2.5063 0
M  V30 48 H -2.5487 0.7422 -2.4171 0
M  V30 49 H -4.3089 2.8064 0.2472 0
M  V30 50 H -3.0814 3.9021 -0.4761 0
M  V30 51 H -2.8087 3.238 1.16 0
M  V30 52 H 0.1654 0.5639 0.3515 0
M  V30 53 H 0.4625 -1.1868 0.1541 0
M  V30 54 H 0.0342 -0.9389 -2.3447 0
M  V30 55 H -0.1684 0.8099 -2.1146 0
M  V30 56 H 1.9308 0.3851 -2.8999 0
M  V30 57 H 1.6039 2.065 -1.0329 0
M  V30 58 H 3.1863 1.7571 -1.7348 0
M  V30 59 H 3.6727 -0.946 -1.9617 0
M  V30 60 H 2.4838 -1.5872 -0.7585 0
M  V30 61 H 2.2472 -1.8768 -2.5108 0
M  V30 62 H 2.372 0.1445 0.7779 0
M  V30 63 H 2.7698 1.8581 0.9289 0
M  V30 64 H 4.1821 -1.3734 0.9273 0
M  V30 65 H 4.9907 2.671 -0.2785 0
M  V30 66 H 7.3881 2.2167 -0.2561 0
M  V30 67 H 5.372 -3.0516 2.2552 0
M  V30 68 H 5.3052 -3.5276 0.4983 0
M  V30 69 H 6.6331 -4.1347 1.5575 0
M  V30 70 H 9.5561 1.6206 0.7745 0
M  V30 71 H 9.4865 1.1276 -0.9776 0
M  V30 72 H 10.5726 0.2593 0.1711 0
M  V30 END ATOM
M  V30 BEGIN BOND
M  V30 1 1 1 2
M  V30 2 1 1 3
M  V30 3 2 2 4
M  V30 4 1 2 5
M  V30 5 1 4 6
M  V30 6 1 4 7
M  V30 7 2 5 8
M  V30 8 1 6 9
M  V30 9 2 7 10
M  V30 10 1 8 11
M  V30 11 1 11 12
M  V30 12 1 11 13
M  V30 13 1 11 14
M  V30 14 3 12 15
M  V30 15 1 13 16
M  V30 16 1 13 17
M  V30 17 1 14 18
M  V30 18 1 18 19
M  V30 19 1 19 20
M  V30 20 1 20 21
M  V30 21 1 20 22
M  V30 22 1 21 23
M  V30 23 1 23 24
M  V30 24 2 24 25
M  V30 25 1 24 26
M  V30 26 1 25 27
M  V30 27 2 26 28
M  V30 28 1 27 29
M  V30 29 2 27 30
M  V30 30 1 29 31
M  V30 31 1 30 32
M  V30 32 1 32 33
M  V30 33 1 8 10
M  V30 34 1 28 30
M  V30 35 1 3 34
M  V30 36 1 3 35
M  V30 37 1 3 36
M  V30 38 1 5 37
M  V30 39 1 7 38
M  V30 40 1 9 39
M  V30 41 1 9 40
M  V30 42 1 9 41
M  V30 43 1 10 42
M  V30 44 1 13 43
M  V30 45 1 14 44
M  V30 46 1 14 45
M  V30 47 1 16 46
M  V30 48 1 16 47
M  V30 49 1 16 48
M  V30 50 1 17 49
M  V30 51 1 17 50
M  V30 52 1 17 51
M  V30 53 1 18 52
M  V30 54 1 18 53
M  V30 55 1 19 54
M  V30 56 1 19 55
M  V30 57 1 20 56
M  V30 58 1 21 57
M  V30 59 1 21 58
M  V30 60 1 22 59
M  V30 61 1 22 60
M  V30 62 1 22 61
M  V30 63 1 23 62
M  V30 64 1 23 63
M  V30 65 1 25 64
M  V30 66 1 26 65
M  V30 67 1 28 66
M  V30 68 1 31 67
M  V30 69 1 31 68
M  V30 70 1 31 69
M  V30 71 1 33 70
M  V30 72 1 33 71
M  V30 73 1 33 72
M  V30 END BOND
M  V30 BEGIN COLLECTION
M  V30 MDLV30/STEABS ATOMS=(2 11 20)
M  V30 END COLLECTION
M  V30 END CTAB
M  END
>  <Structure No>
8888

>  <LogS>
-3.98

>  <MMFF94 Energy>
137.78

$$$$
Compound 8889
Actelion Java MolfileCreator 2.0

  0  0  0  0  0  0              0 V3000
M  V30 BEGIN CTAB
M  V30 COUNTS 38 40 0 0 0
M  V30 BEGIN ATOM
M  V30 1 O 0.7256 -0.403 2.9856 0
M  V30 2 C 1.098 -0.3556 1.7832 0
M  V30 3 O 2.3945 -0.4648 1.5147 0
M  V30 4 C 0.1561 -0.1925 0.7416 0
M  V30 5 C 2.8824 -0.433 0.2814 0
M  V30 6 C 0.6416 -0.1602 -0.5832 0
M  V30 7 C -1.3381 -0.0893 1.0471 0 CFG=1
M  V30 8 C 2.0182 -0.2791 -0.8225 0
M  V30 9 C 4.2616 -0.5548 0.0786 0
M  V30 10 O -0.2355 -0.0127 -1.6541 0 CHG=-1
M  V30 11 C -1.9087 1.2207 0.5173 0
M  V30 12 C -2.0963 -1.357 0.5865 0
M  V30 13 C 2.5543 -0.2505 -2.1224 0
M  V30 14 C 4.7855 -0.5247 -1.2164 0
M  V30 15 C -2.7442 1.2927 -0.6186 0
M  V30 16 C -1.5589 2.4174 1.1718 0
M  V30 17 C -1.6349 -2.5799 1.3366 0
M  V30 18 C 3.9339 -0.3732 -2.3141 0
M  V30 19 C -3.2201 2.5271 -1.0715 0
M  V30 20 C -2.0378 3.6479 0.7139 0
M  V30 21 O -1.8787 -2.6888 2.529 0
M  V30 22 C -0.8898 -3.6697 0.6271 0
M  V30 23 C -2.8688 3.7027 -0.4059 0
M  V30 24 H -1.4916 -0.0401 2.148 0
M  V30 25 H 4.9272 -0.673 0.9244 0
M  V30 26 H -1.955 -1.5226 -0.502 0
M  V30 27 H -3.1856 -1.2285 0.7686 0
M  V30 28 H 1.9144 -0.134 -2.9881 0
M  V30 29 H 5.8527 -0.6193 -1.3697 0
M  V30 30 H -3.0303 0.4062 -1.1659 0
M  V30 31 H -0.91 2.3957 2.0389 0
M  V30 32 H 4.3438 -0.3507 -3.3155 0
M  V30 33 H -3.8607 2.5721 -1.9428 0
M  V30 34 H -1.7623 4.56 1.2273 0
M  V30 35 H -0.6064 -4.4771 1.3355 0
M  V30 36 H 0.0331 -3.254 0.1713 0
M  V30 37 H -1.5299 -4.1002 -0.1708 0
M  V30 38 H -3.2381 4.6565 -0.7599 0
M  V30 END ATOM
M  V30 BEGIN BOND
M  V30 1 2 1 2
M  V30 2 1 2 3
M  V30 3 1 2 4
M  V30 4 1 3 5
M  V30 5 2 4 6
M  V30 6 1 4 7
M  V30 7 2 5 8
M  V30 8 1 5 9
M  V30 9 1 6 10
M  V30 10 1 7 11
M  V30 11 1 7 12
M  V30 12 1 8 13
M  V30 13 2 9 14
M  V30 14 2 11 15
M  V30 15 1 11 16
M  V30 16 1 12 17
M  V30 17 2 13 18
M  V30 18 1 15 19
M  V30 19 2 16 20
M  V30 20 2 17 21
M  V30 21 1 17 22
M  V30 22 2 19 23
M  V30 23 1 6 8
M  V30 24 1 14 18
M  V30 25 1 20 23
M  V30 26 1 7 24
M  V30 27 1 9 25
M  V30 28 1 12 26
M  V30 29 1 12 27
M  V30 30 1 13 28
M  V30 31 1 14 29
M  V30 32 1 15 30
M  V30 33 1 16 31
M  V30 34 1 18 32
M  V30 35 1 19 33
M  V30 36 1 20 34
M  V30 37 1 22 35
M  V30 38 1 22 36
M  V30 39 1 22 37
M  V30 40 1 23 38
M  V30 END BOND
M  V30 BEGIN COLLECTION
M  V30 MDLV30/STEABS ATOMS=(1 7)
M  V30 END COLLECTION
M  V30 END CTAB
M  END
>  <Structure No>
8889

>  <LogS>
-4.78

>  <MMFF94 Energy>
57.881

$$$$
